
###############################################################################
#
# This file contains modified crystal structure data generated from the
# MOF subset of the Cambridge Structural Database (CSD) v543 
# hosted by the Cambridge Crystallographic Data Centre (CCDC).
#
# This work is licensed under the Creative Commons
# Attribution-NonCommercial-ShareAlike 4.0 International License.
# To view a copy of this license, visit
# http://creativecommons.org/licenses/by-nc-sa/4.0/
# or send a letter to
# Creative Commons, PO Box 1866, Mountain View, CA 94042, USA.
#
# CIF created using the CSD Python API on 29 September 2022
# The structure has been converted into the P1 space group
# The structure has a 3D framework
# The original CSD entry LEPSIL is in the rhombohedral crystal system
# The framework has been calculated to contain at least 10.0% void space
# The void calculation uses a probe of radius 1.32A, grid spacing 0.4
# H atom positions have been added when not included in the experimental data
# Generated hydrogen atom positions removed from atoms on special positions
#
###############################################################################

data_LEPSIL
_chemical_formula_moiety         '(C576 H576 Fe80 N72 O392)n'
_symmetry_cell_setting           triclinic
_symmetry_space_group_name_H-M   'P 1'
_symmetry_Int_Tables_number      1
_space_group_name_Hall           'P 1'
loop_
_symmetry_equiv_pos_site_id
_symmetry_equiv_pos_as_xyz
1 x,y,z
_cell_length_a                   31.9644(15)
_cell_length_b                   31.9644(15)
_cell_length_c                   35.4737(18)
_cell_angle_alpha                90
_cell_angle_beta                 90
_cell_angle_gamma                120
_cell_volume                     31388.5
loop_
_atom_site_label
_atom_site_type_symbol
_atom_site_fract_x
_atom_site_fract_y
_atom_site_fract_z
Fe22 Fe 0.01683(2) 0.48755(2) 0.29478(2)
O73 O 0.02280(15) 0.52757(10) 0.17189(9)
O84 O 0.03745(10) 0.45609(13) 0.20647(9)
Fe32 Fe 0.01683(2) 0.52927(3) 0.79478(2)
H1 H 0.4916 0.2649 0.0105
C4 C 0.54861(13) 0.33324(15) 0.00308(11)
C5 C 0.58205(12) 0.33232(14) 0.03235(10)
Fe1 Fe 0.60702(2) 0.27369(2) 0.0833
O1 O 0.36812(13) 0.13158(12) 0.01080(9)
O6 O 0.54198(11) 0.20865(11) 0.0833
O7 O 0.6667 0.3333 0.0833
O8 O 0.57230(9) 0.29179(9) 0.04499(8)
O9 O 0.61719(10) 0.37196(10) 0.04194(8)
H7 H 0.7351 0.2267 0.0105
C20 C 0.66676(15) 0.21537(20) 0.00308(11)
C21 C 0.66768(14) 0.24973(18) 0.03235(10)
Fe4 Fe 0.72631(2) 0.33333(3) 0.0833
O14 O 0.86842(12) 0.23654(18) 0.01080(9)
O19 O 0.79135(11) 0.33333(16) 0.0833
O20 O 0.70821(9) 0.28051(13) 0.04499(8)
O21 O 0.62804(10) 0.24523(14) 0.04194(8)
H13 H 0.7733 0.5084 0.0105
C36 C 0.78463(20) 0.45139(13) 0.00308(11)
C37 C 0.75027(18) 0.41795(12) 0.03235(10)
Fe7 Fe 0.66667(3) 0.39298(2) 0.0833
O26 O 0.76346(18) 0.63188(13) 0.01080(9)
O31 O 0.66667(16) 0.45802(11) 0.0833
O32 O 0.71949(13) 0.42770(9) 0.04499(8)
O33 O 0.75477(14) 0.38281(10) 0.04194(8)
C49 C 0.49781(18) 0.40826(13) 0.20538(11)
C50 C 0.50773(21) 0.36793(15) 0.19709(13)
C51 C 0.54197(19) 0.37257(14) 0.16987(11)
H19 H 0.5600 0.4018 0.1562
C52 C 0.54870(20) 0.33343(15) 0.16359(11)
C53 C 0.58306(18) 0.33435(14) 0.13432(10)
C54 C 0.52282(23) 0.29099(17) 0.18371(15)
H20 H 0.5282 0.2647 0.1797
C55 C 0.48893(25) 0.28715(19) 0.20983(18)
C56 C 0.48209(24) 0.32587(18) 0.21713(16)
H21 H 0.4598 0.3234 0.2360
C57 C 0.44839(28) 0.1741(2) 0.25235(18)
C58 C 0.41829(25) 0.17161(18) 0.28209(16)
H22 H 0.4082 0.1949 0.2842
C59 C 0.40366(21) 0.13515(15) 0.30812(14)
C60 C 0.41631(21) 0.09933(15) 0.30366(14)
H23 H 0.4064 0.0744 0.3219
C61 C 0.44293(21) 0.10015(15) 0.27317(14)
C62 C 0.45800(26) 0.13735(19) 0.24716(17)
H24 H 0.4752 0.1373 0.2254
C63 C 0.45616(18) 0.06212(13) 0.26561(13)
C64 C 0.37352(20) 0.13440(14) 0.34098(12)
Fe10 Fe 0.52927(3) 0.51245(2) 0.20522(2)
N7 N 0.46405(24) 0.24616(18) 0.23470(16)
N8 N 0.46901(28) 0.2128(2) 0.22600(19)
O38 O 0.56987(18) 0.53509(12) 0.15587(9)
O39 O 0.46031(13) 0.39671(9) 0.22310(9)
O40 O 0.52722(13) 0.44987(9) 0.19360(8)
O41 O 0.61384(13) 0.37488(9) 0.12168(8)
O42 O 0.57856(14) 0.29471(10) 0.12473(8)
O43 O 0.35613(15) 0.16190(11) 0.33856(9)
O44 O 0.36869(14) 0.10768(10) 0.36806(8)
O45 O 0.46626(15) 0.05773(11) 0.23253(9)
O46 O 0.45609(13) 0.03745(10) 0.29353(9)
C65 C 0.91044(13) 0.50219(18) 0.20538(11)
C66 C 0.86019(14) 0.49227(21) 0.19709(13)
C67 C 0.83059(13) 0.45803(19) 0.16987(11)
H25 H 0.8417 0.4400 0.1562
C68 C 0.78472(13) 0.45130(20) 0.16359(11)
C69 C 0.75128(12) 0.41694(18) 0.13432(10)
C70 C 0.76816(15) 0.47718(23) 0.18371(15)
H26 H 0.7364 0.4718 0.1797
C71 C 0.79821(17) 0.51107(25) 0.20983(18)
C72 C 0.84377(16) 0.51791(24) 0.21713(16)
H27 H 0.8635 0.5402 0.2360
C73 C 0.72567(19) 0.55161(28) 0.25235(18)
C74 C 0.75331(17) 0.58171(25) 0.28209(16)
H28 H 0.7866 0.5918 0.2842
C75 C 0.73148(15) 0.59634(21) 0.30812(14)
C76 C 0.68301(15) 0.58369(21) 0.30366(14)
H29 H 0.6679 0.5936 0.3219
C77 C 0.65721(15) 0.55707(21) 0.27317(14)
C78 C 0.67934(18) 0.54200(26) 0.24716(17)
H30 H 0.6620 0.5248 0.2254
C79 C 0.60595(13) 0.54384(18) 0.26561(13)
C80 C 0.76087(14) 0.62648(20) 0.34098(12)
Fe11 Fe 0.98317(2) 0.47073(3) 0.20522(2)
N9 N 0.78210(16) 0.53595(24) 0.23470(16)
N10 N 0.74375(19) 0.53099(28) 0.22600(19)
O47 O 0.96521(13) 0.43013(18) 0.15587(9)
O48 O 0.93639(10) 0.53969(13) 0.22310(9)
O49 O 0.92264(9) 0.47278(13) 0.19360(8)
O50 O 0.76103(9) 0.38616(13) 0.12168(8)
O51 O 0.71614(10) 0.42144(14) 0.12473(8)
O52 O 0.80576(10) 0.64387(15) 0.33856(9)
O53 O 0.73898(10) 0.63131(14) 0.36806(8)
O54 O 0.59146(10) 0.53374(15) 0.23253(9)
O55 O 0.58135(9) 0.54391(13) 0.29353(9)
C81 C 0.59174(13) 0.08956(13) 0.20538(11)
C82 C 0.63207(15) 0.13981(14) 0.19709(13)
C83 C 0.62743(14) 0.16941(13) 0.16987(11)
H31 H 0.5982 0.1583 0.1562
C84 C 0.66657(15) 0.21528(13) 0.16359(11)
C85 C 0.66565(14) 0.24872(12) 0.13432(10)
C86 C 0.70901(17) 0.23184(15) 0.18371(15)
H32 H 0.7353 0.2636 0.1797
C87 C 0.71285(19) 0.20179(17) 0.20983(18)
C88 C 0.67413(18) 0.15623(16) 0.21713(16)
H33 H 0.6766 0.1365 0.2360
C89 C 0.8259(2) 0.27433(19) 0.25235(18)
C90 C 0.82839(18) 0.24669(17) 0.28209(16)
H34 H 0.8051 0.2134 0.2842
C91 C 0.86485(15) 0.26852(15) 0.30812(14)
C92 C 0.90067(15) 0.31699(15) 0.30366(14)
H35 H 0.9256 0.3321 0.3219
C93 C 0.89985(15) 0.34279(15) 0.27317(14)
C94 C 0.86265(19) 0.32066(18) 0.24716(17)
H36 H 0.8627 0.3380 0.2254
C95 C 0.93788(13) 0.39405(13) 0.26561(13)
C96 C 0.86560(14) 0.23913(14) 0.34098(12)
Fe12 Fe 0.48755(2) 0.01683(2) 0.20522(2)
N11 N 0.75384(18) 0.21790(16) 0.23470(16)
N12 N 0.7872(2) 0.25625(19) 0.22600(19)
O56 O 0.46491(12) 0.03479(13) 0.15587(9)
O57 O 0.60329(9) 0.06361(10) 0.22310(9)
O58 O 0.55013(9) 0.07736(9) 0.19360(8)
O59 O 0.62512(9) 0.23897(9) 0.12168(8)
O60 O 0.70529(10) 0.28386(10) 0.12473(8)
O61 O 0.83810(11) 0.19424(10) 0.33856(9)
O62 O 0.89232(10) 0.26102(10) 0.36806(8)
O63 O 0.94227(11) 0.40854(10) 0.23253(9)
O64 O 0.96255(10) 0.41865(9) 0.29353(9)
Fe13 Fe 1.0000 0.56870(2) 0.2500
Fe14 Fe 0.43130(2) 0.43126(2) 0.2500
Fe15 Fe 0.56874(2) 0.0000 0.2500
Fe16 Fe 0.90207(2) 0.23537(2) 0.4167
Fe17 Fe 0.3333 0.09793(2) 0.4167
Fe18 Fe 0.76463(2) 0.6667 0.4167
Fe23 Fe 0.51245(2) 0.52927(3) 0.29478(2)
Fe28 Fe 0.31651(2) 0.17911(2) 0.37188(2)
Fe29 Fe 0.82089(2) 0.13739(3) 0.37188(2)
Fe30 Fe 0.86261(3) 0.68349(2) 0.37188(2)
O65 O 1.0000 0.50850(10) 0.2500
O66 O 0.49150(10) 0.49146(10) 0.2500
O67 O 0.50854(10) 0.0000 0.2500
O71 O 0.47243(10) 0.49523(11) 0.17189(9)
O85 O 0.54391(13) 0.58135(9) 0.20647(9)
C1 C 0.42289(13) 0.25841(13) 0.96129(11)
C2 C 0.47314(14) 0.29874(15) 0.96958(13)
C3 C 0.50274(13) 0.29410(14) 0.99680(11)
C6 C 0.56517(15) 0.37568(17) 0.98296(15)
H2 H 0.5969 0.4020 0.9870
C7 C 0.53512(17) 0.37952(19) 0.95684(18)
C8 C 0.48956(16) 0.34080(18) 0.94954(16)
H3 H 0.4698 0.3433 0.9307
C9 C 0.60766(19) 0.4926(2) 0.91432(18)
C10 C 0.58002(17) 0.49506(18) 0.88458(16)
H4 H 0.5467 0.4718 0.8825
C11 C 0.60185(15) 0.53152(15) 0.85855(14)
C12 C 0.65032(15) 0.56734(15) 0.86301(14)
H5 H 0.6654 0.5923 0.8448
C13 C 0.67612(15) 0.56652(15) 0.89350(14)
C14 C 0.65399(18) 0.52932(19) 0.91951(17)
H6 H 0.6713 0.5294 0.9413
C15 C 0.72738(13) 0.60455(13) 0.90106(13)
C16 C 0.57246(14) 0.53227(14) 0.82569(12)
Fe2 Fe 0.3333 0.23537(2) 0.9167
Fe3 Fe 0.35016(2) 0.15422(2) 0.96145(2)
N1 N 0.55123(16) 0.42051(18) 0.93197(16)
N2 N 0.58958(19) 0.4539(2) 0.94067(19)
O2 O 0.3333 0.17517(10) 0.9167
O3 O 0.3333 0.30032(11) 0.9167
O4 O 0.39694(10) 0.26996(9) 0.94357(9)
O5 O 0.41069(9) 0.21680(9) 0.97307(8)
O10 O 0.52757(10) 0.50477(11) 0.82811(9)
O11 O 0.59435(10) 0.55899(10) 0.79861(8)
O12 O 0.74187(10) 0.60894(11) 0.93414(9)
O13 O 0.75198(9) 0.62922(10) 0.87314(9)
C17 C 0.74159(13) 0.16448(18) 0.96129(11)
C18 C 0.70126(15) 0.17440(21) 0.96958(13)
C19 C 0.70590(14) 0.20864(19) 0.99680(11)
C22 C 0.62432(17) 0.18949(23) 0.98296(15)
H8 H 0.5980 0.1949 0.9870
C23 C 0.62048(19) 0.15560(25) 0.95684(18)
C24 C 0.65920(18) 0.14876(24) 0.94954(16)
H9 H 0.6567 0.1265 0.9307
C25 C 0.5074(2) 0.11506(28) 0.91432(18)
C26 C 0.50494(18) 0.08496(25) 0.88458(16)
H10 H 0.5282 0.0749 0.8825
C27 C 0.46848(15) 0.07033(21) 0.85855(14)
C28 C 0.43266(15) 0.08298(21) 0.86301(14)
H11 H 0.4077 0.0731 0.8448
C29 C 0.43348(15) 0.10960(21) 0.89350(14)
C30 C 0.47068(19) 0.12467(26) 0.91951(17)
H12 H 0.4706 0.1419 0.9413
C31 C 0.39545(13) 0.12283(18) 0.90106(13)
C32 C 0.46773(14) 0.04019(20) 0.82569(12)
Fe5 Fe 0.76463(2) 0.09793(2) 0.9167
Fe6 Fe 0.84578(2) 0.19594(3) 0.96145(2)
N3 N 0.57949(18) 0.13072(24) 0.93197(16)
N4 N 0.5461(2) 0.13568(28) 0.94067(19)
O15 O 0.82483(10) 0.15813(10) 0.9167
O16 O 0.69968(11) 0.03298(11) 0.9167
O17 O 0.73004(9) 0.12698(13) 0.94357(9)
O18 O 0.78320(9) 0.19389(13) 0.97307(8)
O22 O 0.49523(11) 0.02280(15) 0.82811(9)
O23 O 0.44101(10) 0.03536(14) 0.79861(8)
O24 O 0.39106(11) 0.13293(15) 0.93414(9)
O25 O 0.37078(10) 0.12276(13) 0.87314(9)
C33 C 0.83552(18) 0.57711(13) 0.96129(11)
C34 C 0.82560(21) 0.52686(14) 0.96958(13)
C35 C 0.79136(19) 0.49726(13) 0.99680(11)
C38 C 0.81051(23) 0.43483(15) 0.98296(15)
H14 H 0.8051 0.4031 0.9870
C39 C 0.84440(25) 0.46488(17) 0.95684(18)
C40 C 0.85124(24) 0.51044(16) 0.94954(16)
H15 H 0.8735 0.5302 0.9307
C41 C 0.88494(28) 0.39234(19) 0.91432(18)
C42 C 0.91504(25) 0.41998(17) 0.88458(16)
H16 H 0.9251 0.4533 0.8825
C43 C 0.92967(21) 0.39815(15) 0.85855(14)
C44 C 0.91702(21) 0.34968(15) 0.86301(14)
H17 H 0.9269 0.3346 0.8448
C45 C 0.89040(21) 0.32388(15) 0.89350(14)
C46 C 0.87533(26) 0.34601(18) 0.91951(17)
H18 H 0.8581 0.3287 0.9413
C47 C 0.87717(18) 0.27262(13) 0.90106(13)
C48 C 0.95981(20) 0.42754(14) 0.82569(12)
Fe8 Fe 0.90207(2) 0.6667 0.9167
Fe9 Fe 0.80406(3) 0.64984(2) 0.96145(2)
N5 N 0.86928(24) 0.44877(16) 0.93197(16)
N6 N 0.86432(28) 0.41042(19) 0.94067(19)
O27 O 0.84187(10) 0.6667 0.9167
O28 O 0.96702(11) 0.6667 0.9167
O29 O 0.87302(13) 0.60306(10) 0.94357(9)
O30 O 0.80611(13) 0.58931(9) 0.97307(8)
O34 O 0.97720(15) 0.47243(10) 0.82811(9)
O35 O 0.96464(14) 0.40565(10) 0.79861(8)
O36 O 0.86707(15) 0.25813(10) 0.93414(9)
O37 O 0.87724(13) 0.24802(9) 0.87314(9)
Fe19 Fe 0.56874(2) 0.56870(2) 0.7500
Fe20 Fe 1.0000 0.43126(2) 0.7500
Fe21 Fe 0.43130(2) 0.0000 0.7500
Fe25 Fe 0.86261(3) 0.17911(2) 0.87188(2)
Fe26 Fe 0.31651(2) 0.13739(3) 0.87188(2)
Fe27 Fe 0.82089(2) 0.68349(2) 0.87188(2)
Fe31 Fe 0.47073(3) 0.48755(2) 0.79478(2)
O68 O 0.79365(13) 0.06337(9) 0.88976(9)
O69 O 0.26973(10) 0.20635(13) 0.88976(9)
O70 O 0.93663(9) 0.73027(10) 0.88976(9)
O74 O 0.31053(15) 0.17144(11) 0.99478(9)
O75 O 0.86090(10) 0.68947(15) 0.99478(9)
O76 O 0.82856(11) 0.13910(10) 0.99478(9)
O77 O 0.73898(10) 0.10768(10) 0.86806(8)
O78 O 0.89232(10) 0.63131(14) 0.86806(8)
O79 O 0.36869(14) 0.26102(10) 0.86806(8)
O80 O 0.29797(14) 0.22566(10) 0.96528(8)
O81 O 0.92768(10) 0.70203(14) 0.96528(8)
O82 O 0.77434(10) 0.07232(10) 0.96528(8)
O86 O 0.78943(13) 0.70411(10) 0.96019(9)
O87 O 0.91469(9) 0.21057(13) 0.96019(9)
O88 O 0.29589(10) 0.08531(9) 0.96019(9)
Fe24 Fe 0.47073(3) 0.98317(2) 0.29478(2)
O72 O 0.50477(11) 0.97720(15) 0.17189(9)
O83 O 0.41865(9) 0.96255(10) 0.20647(9)
Fe33 Fe 0.51245(2) 0.98317(2) 0.79478(2)
Fe33_2 Fe 0.52927(3) 0.01683(2) 0.70522(2)
O72_2 O 0.52757(19) 0.02280(15) 0.32811(9)
C1_2 C 0.16448(18) 0.74159(13) 0.53871(11)
C2_2 C 0.17440(21) 0.70126(15) 0.53042(13)
C3_2 C 0.20864(19) 0.70590(14) 0.50320(11)
H1_2 H 0.2267 0.7351 0.4895
C4_2 C 0.21537(20) 0.66676(15) 0.49692(11)
C5_2 C 0.24973(18) 0.66768(14) 0.46765(10)
C6_2 C 0.18949(23) 0.62432(17) 0.51704(15)
H2_2 H 0.1949 0.5980 0.5130
C7_2 C 0.15560(25) 0.62048(19) 0.54316(18)
C8_2 C 0.14876(24) 0.65920(18) 0.55046(16)
H3_2 H 0.1265 0.6567 0.5693
C9_2 C 0.11506(28) 0.5074(2) 0.58568(18)
C10_2 C 0.08496(25) 0.50494(18) 0.61542(16)
H4_2 H 0.0749 0.5282 0.6175
C11_2 C 0.07033(21) 0.46848(15) 0.64145(14)
C12_2 C 0.08298(21) 0.43266(15) 0.63699(14)
H5_2 H 0.0731 0.4077 0.6552
C13_2 C 0.10960(21) 0.43348(15) 0.60650(14)
C14_2 C 0.12467(26) 0.47068(19) 0.58049(17)
H6_2 H 0.1419 0.4706 0.5587
C15_2 C 0.12283(18) 0.39545(13) 0.59894(13)
C16_2 C 0.04019(20) 0.46773(14) 0.67431(12)
Fe1_2 Fe 0.33333(3) 0.72631(2) 0.4167
Fe2_2 Fe 0.09793(2) 0.76463(2) 0.5833
Fe3_2 Fe 0.19594(3) 0.84578(2) 0.53855(2)
N1_2 N 0.13072(24) 0.57949(18) 0.56803(16)
N2_2 N 0.13568(28) 0.5461(2) 0.55933(19)
O1_2 O 0.23654(18) 0.86842(12) 0.48920(9)
O2_2 O 0.15813(10) 0.82483(10) 0.5833
O3_2 O 0.03298(11) 0.69968(11) 0.5833
O4_2 O 0.12698(13) 0.73004(9) 0.55643(9)
O5_2 O 0.19389(13) 0.78320(9) 0.52693(8)
O6_2 O 0.33333(16) 0.79135(11) 0.4167
O7_2 O 0.3334 0.6667 0.4167
O8_2 O 0.28051(13) 0.70821(9) 0.45501(8)
O9_2 O 0.24523(14) 0.62804(10) 0.45806(8)
O10_2 O 0.02280(15) 0.49523(11) 0.67189(9)
O11_2 O 0.03536(14) 0.44101(10) 0.70139(8)
O12_2 O 0.13293(15) 0.39106(11) 0.56586(9)
O13_2 O 0.12276(13) 0.37078(10) 0.62686(9)
C17_2 C 0.57711(22) 0.83552(18) 0.53871(11)
C18_2 C 0.52686(26) 0.82560(21) 0.53042(13)
C19_2 C 0.49726(24) 0.79136(19) 0.50320(11)
H7_2 H 0.5084 0.7733 0.4895
C20_2 C 0.45139(25) 0.78463(20) 0.49692(11)
C21_2 C 0.41795(23) 0.75027(18) 0.46765(10)
C22_2 C 0.43483(29) 0.81051(23) 0.51704(15)
H8_2 H 0.4031 0.8051 0.5130
C23_2 C 0.46488(31) 0.84440(25) 0.54316(18)
C24_2 C 0.51044(30) 0.85124(24) 0.55046(16)
H9_2 H 0.5302 0.8735 0.5693
C25_2 C 0.39234(34) 0.88494(28) 0.58568(18)
C26_2 C 0.41998(31) 0.91504(25) 0.61542(16)
H10_2 H 0.4533 0.9251 0.6175
C27_2 C 0.39815(26) 0.92967(21) 0.64145(14)
C28_2 C 0.34968(26) 0.91702(21) 0.63699(14)
H11_2 H 0.3346 0.9269 0.6552
C29_2 C 0.32388(26) 0.89040(21) 0.60650(14)
C30_2 C 0.34601(32) 0.87533(26) 0.58049(17)
H12_2 H 0.3287 0.8581 0.5587
C31_2 C 0.27262(22) 0.87717(18) 0.59894(13)
C32_2 C 0.42754(24) 0.95981(20) 0.67431(12)
Fe4_2 Fe 0.39298(4) 0.66667(3) 0.4167
Fe5_2 Fe 0.66670(3) 0.90207(2) 0.5833
Fe6_2 Fe 0.64984(4) 0.80406(3) 0.53855(2)
N3_2 N 0.44877(30) 0.86928(24) 0.56803(16)
N4_2 N 0.41042(34) 0.86432(28) 0.55933(19)
O14_2 O 0.63188(22) 0.76346(18) 0.48920(9)
O15_2 O 0.66670(14) 0.84187(10) 0.5833
O16_2 O 0.66670(16) 0.96702(11) 0.5833
O17_2 O 0.60306(16) 0.87302(13) 0.55643(9)
O18_2 O 0.58931(16) 0.80611(13) 0.52693(8)
O19_2 O 0.45802(19) 0.66667(16) 0.4167
O20_2 O 0.42770(16) 0.71949(13) 0.45501(8)
O21_2 O 0.38281(17) 0.75477(14) 0.45806(8)
O22_2 O 0.47243(19) 0.97720(15) 0.67189(9)
O23_2 O 0.40565(17) 0.96464(14) 0.70139(8)
O24_2 O 0.25813(19) 0.86707(15) 0.56586(9)
O25_2 O 0.24802(16) 0.87724(13) 0.62686(9)
C33_2 C 0.25841(22) 0.42289(13) 0.53871(11)
C34_2 C 0.29874(25) 0.47314(14) 0.53042(13)
C35_2 C 0.29410(23) 0.50274(13) 0.50320(11)
H13_2 H 0.2649 0.4916 0.4895
C36_2 C 0.33324(24) 0.54861(13) 0.49692(11)
C37_2 C 0.33232(22) 0.58205(12) 0.46765(10)
C38_2 C 0.37568(27) 0.56517(15) 0.51704(15)
H14_2 H 0.4020 0.5969 0.5130
C39_2 C 0.37952(30) 0.53512(17) 0.54316(18)
C40_2 C 0.34080(29) 0.48956(16) 0.55046(16)
H15_2 H 0.3433 0.4698 0.5693
C41_2 C 0.49260(34) 0.60766(19) 0.58568(18)
C42_2 C 0.49506(30) 0.58002(17) 0.61542(16)
H16_2 H 0.4718 0.5467 0.6175
C43_2 C 0.53152(26) 0.60185(15) 0.64145(14)
C44_2 C 0.56734(26) 0.65032(15) 0.63699(14)
H17_2 H 0.5923 0.6654 0.6552
C45_2 C 0.56652(26) 0.67612(15) 0.60650(14)
C46_2 C 0.52932(32) 0.65399(18) 0.58049(17)
H18_2 H 0.5294 0.6713 0.5587
C47_2 C 0.60455(22) 0.72738(13) 0.59894(13)
C48_2 C 0.53227(24) 0.57246(14) 0.67431(12)
Fe7_2 Fe 0.27369(4) 0.60702(2) 0.4167
Fe8_2 Fe 0.23537(2) 0.3333 0.5833
Fe9_2 Fe 0.15422(4) 0.35016(2) 0.53855(2)
N5_2 N 0.42051(29) 0.55123(16) 0.56803(16)
N6_2 N 0.45390(34) 0.58958(19) 0.55933(19)
O26_2 O 0.13158(22) 0.36812(13) 0.48920(9)
O27_2 O 0.17517(10) 0.3333 0.5833
O28_2 O 0.30032(11) 0.3333 0.5833
O29_2 O 0.26996(16) 0.39694(10) 0.55643(9)
O30_2 O 0.21680(16) 0.41069(9) 0.52693(8)
O31_2 O 0.20865(19) 0.54198(11) 0.4167
O32_2 O 0.29179(16) 0.57230(9) 0.45501(8)
O33_2 O 0.37196(17) 0.61719(10) 0.45806(8)
O34_2 O 0.50477(18) 0.52757(10) 0.67189(9)
O35_2 O 0.55899(17) 0.59435(10) 0.70139(8)
O36_2 O 0.60894(18) 0.74187(10) 0.56586(9)
O37_2 O 0.62922(16) 0.75198(9) 0.62686(9)
C49_2 C 0.08956(22) 0.59174(13) 0.29462(11)
C50_2 C 0.13981(26) 0.63207(15) 0.30291(13)
C51_2 C 0.16941(24) 0.62743(14) 0.33013(11)
H19_2 H 0.1583 0.5982 0.3438
C52_2 C 0.21528(25) 0.66657(15) 0.33641(11)
C53_2 C 0.24872(23) 0.66565(14) 0.36568(10)
C54_2 C 0.23184(29) 0.70901(17) 0.31629(15)
H20_2 H 0.2636 0.7353 0.3203
C55_2 C 0.20179(31) 0.71285(19) 0.29017(18)
C56_2 C 0.15623(30) 0.67413(18) 0.28287(16)
H21_2 H 0.1365 0.6766 0.2640
C57_2 C 0.27433(34) 0.8259(2) 0.24765(18)
C58_2 C 0.24669(31) 0.82839(18) 0.21791(16)
H22_2 H 0.2134 0.8051 0.2158
C59_2 C 0.26852(26) 0.86485(15) 0.19188(14)
C60_2 C 0.31699(26) 0.90067(15) 0.19634(14)
H23_2 H 0.3321 0.9256 0.1781
C61_2 C 0.34279(26) 0.89985(15) 0.22683(14)
C62_2 C 0.32066(32) 0.86265(19) 0.25284(17)
H24_2 H 0.3380 0.8627 0.2746
C63_2 C 0.39405(22) 0.93788(13) 0.23439(13)
C64_2 C 0.23913(24) 0.86560(14) 0.15902(12)
N7_2 N 0.21790(30) 0.75384(18) 0.26530(16)
N8_2 N 0.25625(34) 0.7872(2) 0.27400(19)
O38_2 O 0.03479(22) 0.46491(12) 0.34413(9)
O39_2 O 0.06361(16) 0.60329(9) 0.27690(9)
O40_2 O 0.07736(16) 0.55013(9) 0.30640(8)
O41_2 O 0.23897(16) 0.62512(9) 0.37832(8)
O42_2 O 0.28386(17) 0.70529(10) 0.37527(8)
O43_2 O 0.19424(19) 0.83810(11) 0.16144(9)
O44_2 O 0.26102(17) 0.89232(10) 0.13194(8)
O45_2 O 0.40854(19) 0.94227(11) 0.26747(9)
C65_2 C 0.40826(22) 0.49781(18) 0.29462(11)
C66_2 C 0.36793(25) 0.50773(21) 0.30291(13)
C67_2 C 0.37257(23) 0.54197(19) 0.33013(11)
H25_2 H 0.4018 0.5600 0.3438
C68_2 C 0.33343(24) 0.54870(20) 0.33641(11)
C69_2 C 0.33435(22) 0.58306(18) 0.36568(10)
C70_2 C 0.29099(27) 0.52282(23) 0.31629(15)
H26_2 H 0.2647 0.5282 0.3203
C71_2 C 0.28715(30) 0.48893(25) 0.29017(18)
C72_2 C 0.32587(29) 0.48209(24) 0.28287(16)
H27_2 H 0.3234 0.4598 0.2640
C73_2 C 0.17407(34) 0.44839(28) 0.24765(18)
C74_2 C 0.17161(30) 0.41829(25) 0.21791(16)
H28_2 H 0.1949 0.4082 0.2158
C75_2 C 0.13515(26) 0.40366(21) 0.19188(14)
C76_2 C 0.09933(26) 0.41631(21) 0.19634(14)
H29_2 H 0.0744 0.4064 0.1781
C77_2 C 0.10015(26) 0.44293(21) 0.22683(14)
C78_2 C 0.13735(32) 0.45800(26) 0.25284(17)
H30_2 H 0.1373 0.4752 0.2746
C79_2 C 0.06212(22) 0.45616(18) 0.23439(13)
C80_2 C 0.13440(24) 0.37352(20) 0.15902(12)
N9_2 N 0.24616(29) 0.46405(24) 0.26530(16)
N10_2 N 0.21277(34) 0.46901(28) 0.27400(19)
O47_2 O 0.53509(22) 0.56987(18) 0.34413(9)
O48_2 O 0.39671(16) 0.46031(13) 0.27690(9)
O49_2 O 0.44987(16) 0.52722(13) 0.30640(8)
O50_2 O 0.37488(16) 0.61384(13) 0.37832(8)
O51_2 O 0.29471(17) 0.57856(14) 0.37527(8)
O52_2 O 0.16190(18) 0.35613(15) 0.16144(9)
O53_2 O 0.10768(17) 0.36869(14) 0.13194(8)
O54_2 O 0.05773(18) 0.46626(15) 0.26747(9)
C81_2 C 0.50219(18) 0.91044(13) 0.29462(11)
C82_2 C 0.49227(21) 0.86019(14) 0.30291(13)
C83_2 C 0.45803(19) 0.83059(13) 0.33013(11)
H31_2 H 0.4400 0.8417 0.3438
C84_2 C 0.45130(20) 0.78472(13) 0.33641(11)
C85_2 C 0.41694(18) 0.75128(12) 0.36568(10)
C86_2 C 0.47718(23) 0.76816(15) 0.31629(15)
H32_2 H 0.4718 0.7364 0.3203
C87_2 C 0.51107(25) 0.79821(17) 0.29017(18)
C88_2 C 0.51791(24) 0.84377(16) 0.28287(16)
H33_2 H 0.5402 0.8635 0.2640
C89_2 C 0.55161(28) 0.72567(19) 0.24765(18)
C90_2 C 0.58171(25) 0.75331(17) 0.21791(16)
H34_2 H 0.5918 0.7866 0.2158
C91_2 C 0.59634(21) 0.73148(15) 0.19188(14)
C92_2 C 0.58369(21) 0.68301(15) 0.19634(14)
H35_2 H 0.5936 0.6679 0.1781
C93_2 C 0.55707(21) 0.65721(15) 0.22683(14)
C94_2 C 0.54200(26) 0.67934(18) 0.25284(17)
H36_2 H 0.5248 0.6620 0.2746
C95_2 C 0.54384(18) 0.60595(13) 0.23439(13)
C96_2 C 0.62648(20) 0.76087(14) 0.15902(12)
N11_2 N 0.53595(24) 0.78210(16) 0.26530(16)
N12_2 N 0.53099(28) 0.74375(19) 0.27400(19)
O56_2 O 0.43013(18) 0.96521(13) 0.34413(9)
O57_2 O 0.53969(13) 0.93639(10) 0.27690(9)
O58_2 O 0.47278(13) 0.92264(9) 0.30640(8)
O59_2 O 0.38616(13) 0.76103(9) 0.37832(8)
O60_2 O 0.42144(14) 0.71614(10) 0.37527(8)
O61_2 O 0.64387(15) 0.80576(10) 0.16144(9)
O62_2 O 0.63131(14) 0.73898(10) 0.13194(8)
O63_2 O 0.53374(15) 0.59146(10) 0.26747(9)
Fe14_2 Fe 0.00003(3) 0.56874(2) 0.2500
Fe15_2 Fe 0.56870(2) 1.0000 0.2500
Fe16_2 Fe 0.66670(3) 0.76463(2) 0.0833
Fe17_2 Fe 0.23537(2) 0.90207(2) 0.0833
Fe18_2 Fe 0.09793(2) 0.3333 0.0833
Fe19_2 Fe 0.00003(3) 0.43130(2) 0.7500
Fe21_2 Fe 0.43126(2) 1.0000 0.7500
Fe25_2 Fe 0.68349(4) 0.82089(2) 0.62812(2)
Fe26_2 Fe 0.17911(4) 0.86261(3) 0.62812(2)
Fe27_2 Fe 0.13739(3) 0.31651(2) 0.62812(2)
Fe28_2 Fe 0.13739(3) 0.82089(2) 0.12812(2)
Fe29_2 Fe 0.68349(4) 0.86261(3) 0.12812(2)
Fe30_2 Fe 0.17911(4) 0.31651(2) 0.12812(2)
Fe32_2 Fe 0.48755(4) 0.47073(3) 0.70522(2)
O66_2 O 0.00003(14) 0.50854(10) 0.2500
O67_2 O 0.50850(10) 1.0000 0.2500
O68_2 O 0.73027(16) 0.93663(9) 0.61024(9)
O69_2 O 0.06337(16) 0.79365(13) 0.61024(9)
O70_2 O 0.20635(13) 0.26973(10) 0.61024(9)
O73_2 O 0.49523(18) 0.47243(10) 0.32811(9)
O74_2 O 0.13910(19) 0.82856(11) 0.50522(9)
O75_2 O 0.17144(18) 0.31053(15) 0.50522(9)
O76_2 O 0.68947(15) 0.86090(10) 0.50522(9)
O77_2 O 0.63131(14) 0.89232(10) 0.63194(8)
O78_2 O 0.26102(17) 0.36869(14) 0.63194(8)
O79_2 O 0.10768(17) 0.73898(10) 0.63194(8)
O80_2 O 0.07232(17) 0.77434(10) 0.53472(8)
O81_2 O 0.22566(17) 0.29797(14) 0.53472(8)
O82_2 O 0.70203(14) 0.92768(10) 0.53472(8)
O86_2 O 0.08531(16) 0.29589(10) 0.53981(9)
O87_2 O 0.70411(16) 0.78943(13) 0.53981(9)
O88_2 O 0.21057(13) 0.91469(9) 0.53981(9)
Fe31_2 Fe 0.98317(4) 0.51245(2) 0.70522(2)
O71_2 O 0.97720(15) 0.50477(11) 0.32811(9)
O28_3 O 0.63369(11) 0.0000 0.2500
O81_3 O 0.59435(10) 0.03536(14) 0.29861(8)
H38 H 0.658915 0.0297787 0.237474
O16_3 O 0.36635(11) 0.36631(11) 0.2500
O77_3 O 0.40565(10) 0.44101(10) 0.20139(8)
O78_3 O 0.55899(10) 0.96464(14) 0.20139(8)
O79_3 O 0.03536(14) 0.59435(10) 0.20139(8)
O82_3 O 0.44101(10) 0.40565(10) 0.29861(8)
H37 H 0.629637 0.971223 0.236211
H57 H 0.0287772 0.658414 0.236211
O3_3 O 1.0000 0.63365(11) 0.2500
O80_3 O 0.96464(14) 0.55899(10) 0.29861(8)
H58 H 0.970221 0.629136 0.237474
C32_3 C 0.09421(24) 0.29314(20) 0.00764(12)
O22_3 O 0.13910(19) 0.31053(15) 0.00522(9)
O23_3 O 0.07232(17) 0.29797(14) 0.03472(8)
Fe33_3 Fe 0.19594(3) 0.35016(2) 0.03855(2)
Fe1_3 Fe -0.00000(3) 0.05964(2) 0.7500
O6_3 O -0.00000(16) 0.12468(11) 0.7500
O7_3 O 0.0001 0.0000 0.7500
C17_3 C 0.24378(22) 0.16885(18) 0.87204(11)
C18_3 C 0.19353(26) 0.15893(21) 0.86375(13)
C19_3 C 0.16393(24) 0.12469(19) 0.83653(11)
H7_3 H 0.1751 0.1066 0.8228
C20_3 C 0.11806(25) 0.11796(20) 0.83025(11)
C21_3 C 0.08462(23) 0.08360(18) 0.80098(10)
C22_3 C 0.10150(29) 0.14384(23) 0.85037(15)
H8_3 H 0.0698 0.1384 0.8463
C23_3 C 0.13155(31) 0.17773(25) 0.87649(18)
C24_3 C 0.17711(30) 0.18457(24) 0.88379(16)
H9_3 H 0.1969 0.2068 0.9026
C25_3 C 0.05901(34) 0.21827(28) 0.91901(18)
C26_3 C 0.08665(31) 0.24837(25) 0.94875(16)
H10_3 H 0.1200 0.2584 0.9508
C27_3 C 0.06482(26) 0.26300(21) 0.97478(14)
C28_3 C 0.01635(26) 0.25035(21) 0.97032(14)
H11_3 H 0.0013 0.2602 0.9885
C30_3 C 0.01268(32) 0.20866(26) 0.91382(17)
Fe4_3 Fe 0.05965(4) 0.00000(3) 0.7500
N3_3 N 0.11544(30) 0.20261(24) 0.90136(16)
N4_3 N 0.07709(34) 0.19765(28) 0.89266(19)
O14_3 O 0.29855(22) 0.09679(18) 0.82253(9)
O18_3 O 0.25598(16) 0.13944(13) 0.86026(8)
O19_3 O 0.12469(19) 0.00000(16) 0.7500
O20_3 O 0.09437(16) 0.05282(13) 0.78834(8)
O21_3 O 0.04948(17) 0.08810(14) 0.79139(8)
C45_3 C 0.23319(26) 0.00945(15) 0.93983(14)
H18_3 H 0.1961 0.0046 0.8920
C47_3 C 0.27122(22) 0.06071(13) 0.93227(13)
O36_3 O 0.27561(18) 0.07520(10) 0.89919(9)
C61_3 C 0.00945(26) 0.23319(15) 0.56017(14)
H24_3 H 0.0046 0.1961 0.6080
C63_3 C 0.06071(22) 0.27122(13) 0.56773(13)
O45_3 O 0.07520(19) 0.27561(11) 0.60081(9)
C81_3 C 0.16885(18) 0.24378(13) 0.62796(11)
C82_3 C 0.15893(21) 0.19353(14) 0.63625(13)
C83_3 C 0.12469(19) 0.16393(13) 0.66347(11)
H31_3 H 0.1066 0.1751 0.6772
C84_3 C 0.11796(20) 0.11806(13) 0.66975(11)
C85_3 C 0.08360(18) 0.08462(12) 0.69902(10)
C86_3 C 0.14384(23) 0.10150(15) 0.64963(15)
H32_3 H 0.1384 0.0698 0.6537
C87_3 C 0.17773(25) 0.13155(17) 0.62351(18)
C88_3 C 0.18457(24) 0.17711(16) 0.61621(16)
H33_3 H 0.2068 0.1969 0.5974
C89_3 C 0.21827(28) 0.05901(19) 0.58099(18)
C90_3 C 0.24837(25) 0.08665(17) 0.55125(16)
H34_3 H 0.2584 0.1200 0.5492
C91_3 C 0.26300(21) 0.06482(15) 0.52522(14)
C92_3 C 0.25035(21) 0.01635(15) 0.52968(14)
H35_3 H 0.2602 0.0013 0.5115
C94_3 C 0.20866(26) 0.01268(18) 0.58618(17)
C96_3 C 0.29314(20) 0.09421(14) 0.49236(12)
N11_3 N 0.20261(24) 0.11544(16) 0.59864(16)
N12_3 N 0.19765(28) 0.07709(19) 0.60734(19)
O56_3 O 0.09679(18) 0.29855(13) 0.67747(9)
O58_3 O 0.13944(13) 0.25598(9) 0.63974(8)
O59_3 O 0.05282(13) 0.09437(9) 0.71166(8)
O60_3 O 0.08810(14) 0.04948(10) 0.70861(8)
O61_3 O 0.31053(15) 0.13910(10) 0.49478(9)
O62_3 O 0.29797(14) 0.07232(10) 0.46528(8)
Fe29_3 Fe 0.35016(4) 0.19594(3) 0.46145(2)
O72_3 O 0.19424(19) 0.35613(15) 0.66144(9)
O76_3 O 0.35613(15) 0.19424(10) 0.83856(9)
C48_3 C 0.19894(24) 0.90579(14) 0.00764(12)
O34_3 O 0.17144(18) 0.86090(10) 0.00522(9)
O35_3 O 0.22566(17) 0.92768(10) 0.03472(8)
Fe32_3 Fe 0.15422(4) 0.80406(3) 0.03855(2)
Fe4_4 Fe 0.05965(4) 1.00000(3) 0.7500
O19_4 O 0.12469(19) 1.00000(16) 0.7500
C38_3 C 0.04235(27) 0.89850(15) 0.85037(15)
H14_3 H 0.0687 0.9302 0.8463
C39_3 C 0.04619(30) 0.86845(17) 0.87649(18)
C40_3 C 0.00747(29) 0.82289(16) 0.88379(16)
H15_3 H 0.0100 0.8031 0.9026
C41_3 C 0.15927(34) 0.94099(19) 0.91901(18)
C42_3 C 0.16173(30) 0.91335(17) 0.94875(16)
H16_3 H 0.1385 0.8800 0.9508
C43_3 C 0.19819(26) 0.93518(15) 0.97478(14)
C44_3 C 0.23401(26) 0.98365(15) 0.97032(14)
H17_3 H 0.2590 0.9987 0.9885
C46_3 C 0.19599(32) 0.98732(18) 0.91382(17)
N5_3 N 0.08718(29) 0.88456(16) 0.90136(16)
N6_3 N 0.12057(34) 0.92291(19) 0.89266(19)
O33_3 O 0.03863(17) 0.95052(10) 0.79139(8)
C65_3 C 0.07492(22) 0.83115(18) 0.62796(11)
C66_3 C 0.03459(25) 0.84107(21) 0.63625(13)
C67_3 C 0.03923(23) 0.87531(19) 0.66347(11)
H25_3 H 0.0684 0.8934 0.6772
C68_3 C 0.00009(24) 0.88204(20) 0.66975(11)
C69_3 C 0.00101(22) 0.91640(18) 0.69902(10)
O47_3 O 0.20175(22) 0.90321(18) 0.67747(9)
O49_3 O 0.11653(16) 0.86056(13) 0.63974(8)
O50_3 O 0.04154(16) 0.94718(13) 0.71166(8)
C93_3 C 0.22373(21) 0.99055(15) 0.56017(14)
H36_3 H 0.1914 0.9954 0.6080
C95_3 C 0.21050(18) 0.93929(13) 0.56773(13)
O63_3 O 0.20040(15) 0.92480(10) 0.60081(9)
O73_3 O 0.16190(18) 0.80576(10) 0.66144(9)
C1_3 C 0.83115(18) 0.07492(13) 0.87204(11)
C2_3 C 0.84107(21) 0.03459(15) 0.86375(13)
C3_3 C 0.87531(19) 0.03923(14) 0.83653(11)
H1_3 H 0.8934 0.0684 0.8228
C4_3 C 0.88204(20) 0.00009(15) 0.83025(11)
C5_3 C 0.91640(18) 0.00101(14) 0.80098(10)
Fe1_4 Fe 1.00000(3) 0.05964(2) 0.7500
O1_3 O 0.90321(18) 0.20175(12) 0.82253(9)
O5_3 O 0.86056(13) 0.11653(9) 0.86026(8)
O6_4 O 1.00000(16) 0.12468(11) 0.7500
O8_3 O 0.94718(13) 0.04154(9) 0.78834(8)
C29_3 C 0.99055(26) 0.22373(21) 0.93983(14)
H12_3 H 0.9954 0.1914 0.8920
C31_3 C 0.93929(22) 0.21050(18) 0.93227(13)
O24_3 O 0.92480(19) 0.20040(15) 0.89919(9)
C54_3 C 0.89850(29) 0.04235(17) 0.64963(15)
H20_3 H 0.9302 0.0687 0.6537
C55_3 C 0.86845(31) 0.04619(19) 0.62351(18)
C56_3 C 0.82289(30) 0.00747(18) 0.61621(16)
H21_3 H 0.8031 0.0100 0.5974
C57_3 C 0.94099(34) 0.1593(2) 0.58099(18)
C58_3 C 0.91335(31) 0.16173(18) 0.55125(16)
H22_3 H 0.8800 0.1385 0.5492
C59_3 C 0.93518(26) 0.19819(15) 0.52522(14)
C60_3 C 0.98365(26) 0.23401(15) 0.52968(14)
H23_3 H 0.9987 0.2590 0.5115
C62_3 C 0.98732(32) 0.19599(19) 0.58618(17)
C64_3 C 0.90579(24) 0.19894(14) 0.49236(12)
N7_3 N 0.88456(30) 0.08718(18) 0.59864(16)
N8_3 N 0.92291(34) 0.1206(2) 0.60734(19)
O42_3 O 0.95052(17) 0.03863(10) 0.70861(8)
O43_3 O 0.86090(19) 0.17144(11) 0.49478(9)
O44_3 O 0.92768(17) 0.22566(10) 0.46528(8)
Fe28_3 Fe 0.80406(3) 0.15422(2) 0.46145(2)
O74_3 O 0.80576(19) 0.16190(11) 0.83856(9)
C16_3 C 0.70686(20) 0.80106(14) 0.00764(12)
O10_3 O 0.68947(15) 0.82856(11) 0.00522(9)
O11_3 O 0.70203(14) 0.77434(10) 0.03472(8)
Fe31_3 Fe 0.64984(4) 0.84578(2) 0.03855(2)
C6_3 C 0.85616(23) 0.95765(17) 0.85037(15)
H2_3 H 0.8616 0.9313 0.8463
C7_3 C 0.82227(25) 0.95381(19) 0.87649(18)
C8_3 C 0.81543(24) 0.99253(18) 0.88379(16)
H3_3 H 0.7932 0.9900 0.9026
C9_3 C 0.78173(28) 0.8407(2) 0.91901(18)
C10_3 C 0.75163(25) 0.83827(18) 0.94875(16)
H4_3 H 0.7416 0.8615 0.9508
C11_3 C 0.73700(21) 0.80181(15) 0.97478(14)
C12_3 C 0.74965(21) 0.76599(15) 0.97032(14)
H5_3 H 0.7398 0.7410 0.9885
C13_3 C 0.77627(21) 0.76681(15) 0.93983(14)
C14_3 C 0.79134(26) 0.80401(19) 0.91382(17)
H6_3 H 0.8086 0.8039 0.8920
C15_3 C 0.78950(18) 0.72878(13) 0.93227(13)
N1_3 N 0.79739(24) 0.91282(18) 0.90136(16)
N2_3 N 0.80235(28) 0.8794(2) 0.89266(19)
O9_3 O 0.91190(14) 0.96137(10) 0.79139(8)
O12_3 O 0.79960(15) 0.72439(11) 0.89919(9)
C33_3 C 0.92508(22) 0.75622(13) 0.87204(11)
C34_3 C 0.96541(25) 0.80647(14) 0.86375(13)
C35_3 C 0.96077(23) 0.83607(13) 0.83653(11)
H13_3 H 0.9316 0.8249 0.8228
C36_3 C 0.99991(24) 0.88194(13) 0.83025(11)
C37_3 C 0.99899(22) 0.91538(12) 0.80098(10)
Fe7_3 Fe 0.94036(4) 0.94035(2) 0.7500
O26_3 O 0.79825(22) 0.70145(13) 0.82253(9)
O30_3 O 0.88347(16) 0.74402(9) 0.86026(8)
O31_3 O 0.87532(19) 0.87531(11) 0.7500
O32_3 O 0.95846(16) 0.90563(9) 0.78834(8)
C49_3 C 0.75622(22) 0.92508(13) 0.62796(11)
C50_3 C 0.80647(26) 0.96541(15) 0.63625(13)
C51_3 C 0.83607(24) 0.96077(14) 0.66347(11)
H19_3 H 0.8249 0.9316 0.6772
C52_3 C 0.88194(25) 0.99991(15) 0.66975(11)
C53_3 C 0.91538(23) 0.99899(14) 0.69902(10)
O38_3 O 0.70145(22) 0.79825(12) 0.67747(9)
O40_3 O 0.74402(16) 0.88347(9) 0.63974(8)
O41_3 O 0.90563(16) 0.95846(9) 0.71166(8)
C70_3 C 0.95765(27) 0.85616(23) 0.64963(15)
H26_3 H 0.9313 0.8616 0.6537
C71_3 C 0.95381(30) 0.82227(25) 0.62351(18)
C72_3 C 0.99253(29) 0.81543(24) 0.61621(16)
H27_3 H 0.9900 0.7932 0.5974
C73_3 C 0.84073(34) 0.78173(28) 0.58099(18)
C74_3 C 0.83827(30) 0.75163(25) 0.55125(16)
H28_3 H 0.8615 0.7416 0.5492
C75_3 C 0.80181(26) 0.73700(21) 0.52522(14)
C76_3 C 0.76599(26) 0.74965(21) 0.52968(14)
H29_3 H 0.7410 0.7398 0.5115
C77_3 C 0.76681(26) 0.77627(21) 0.56017(14)
C78_3 C 0.80401(32) 0.79134(26) 0.58618(17)
H30_3 H 0.8039 0.8086 0.6080
C79_3 C 0.72878(22) 0.78950(18) 0.56773(13)
C80_3 C 0.80106(24) 0.70686(20) 0.49236(12)
N9_3 N 0.91282(29) 0.79739(24) 0.59864(16)
N10_3 N 0.87943(34) 0.80235(28) 0.60734(19)
O51_3 O 0.96137(17) 0.91190(14) 0.70861(8)
O52_3 O 0.82856(18) 0.68947(15) 0.49478(9)
O53_3 O 0.77434(17) 0.70203(14) 0.46528(8)
O54_3 O 0.72439(18) 0.79960(15) 0.60081(9)
Fe30_3 Fe 0.84578(4) 0.64984(2) 0.46145(2)
O71_3 O 0.64387(15) 0.83810(11) 0.66144(9)
O75_3 O 0.83810(18) 0.64387(15) 0.83856(9)
O7_4 O 1.0000 0.9999 0.7500
O7_5 O 1.0000 0.0000 0.7500
O7_6 O 0.0000 1.0000 0.7500
O16_4 O 0.00003(16) 0.63369(11) 0.2500
H48 H 0.0297787 0.658915 0.262526
H37_2 H 0.658414 0.0287772 0.263789
H47 H 0.971223 0.629637 0.263789
O28_4 O 0.63365(11) 1.0000 0.2500
H38_2 H 0.629136 0.970221 0.262526
O83_2 O 0.58135(9) 0.03745(10) 0.79353(9)
C1_4 C 0.57711(13) 0.74159(13) 0.03871(11)
C2_4 C 0.52686(14) 0.70126(15) 0.03042(13)
C3_4 C 0.49726(13) 0.70590(14) 0.00320(11)
C6_4 C 0.43483(15) 0.62432(17) 0.01704(15)
H2_4 H 0.4031 0.5980 0.0130
C7_4 C 0.46488(17) 0.62048(19) 0.04316(18)
C8_4 C 0.51044(16) 0.65920(18) 0.05046(16)
H3_4 H 0.5302 0.6567 0.0693
C9_4 C 0.39234(19) 0.5074(2) 0.08568(18)
C10_4 C 0.41998(17) 0.50494(18) 0.11542(16)
H4_4 H 0.4533 0.5282 0.1175
C11_4 C 0.39815(15) 0.46848(15) 0.14145(14)
C12_4 C 0.34968(15) 0.43266(15) 0.13699(14)
H5_4 H 0.3346 0.4077 0.1552
C13_4 C 0.32388(15) 0.43348(15) 0.10650(14)
C14_4 C 0.34601(18) 0.47068(19) 0.08049(17)
H6_4 H 0.3287 0.4706 0.0587
C15_4 C 0.27262(13) 0.39545(13) 0.09894(13)
C16_4 C 0.42754(14) 0.46773(14) 0.17431(12)
N1_4 N 0.44877(16) 0.57949(18) 0.06803(16)
N2_4 N 0.41042(19) 0.5461(2) 0.05933(19)
O2_3 O 0.6667 0.82483(10) 0.0833
O3_4 O 0.6667 0.69968(11) 0.0833
O4_3 O 0.60306(10) 0.73004(9) 0.05643(9)
O5_4 O 0.58931(9) 0.78320(9) 0.02693(8)
O12_4 O 0.25813(10) 0.39106(11) 0.06586(9)
O13_3 O 0.24802(9) 0.37078(10) 0.12686(9)
C17_4 C 0.25841(13) 0.83552(18) 0.03871(11)
C18_4 C 0.29874(15) 0.82560(21) 0.03042(13)
C19_4 C 0.29410(14) 0.79136(19) 0.00320(11)
C22_4 C 0.37568(17) 0.81051(23) 0.01704(15)
H8_4 H 0.4020 0.8051 0.0130
C23_4 C 0.37952(19) 0.84440(25) 0.04316(18)
C24_4 C 0.34080(18) 0.85124(24) 0.05046(16)
H9_4 H 0.3433 0.8735 0.0693
C25_4 C 0.4926(2) 0.88494(28) 0.08568(18)
C26_4 C 0.49506(18) 0.91504(25) 0.11542(16)
H10_4 H 0.4718 0.9251 0.1175
C27_4 C 0.53152(15) 0.92967(21) 0.14145(14)
C28_4 C 0.56734(15) 0.91702(21) 0.13699(14)
H11_4 H 0.5923 0.9269 0.1552
C29_4 C 0.56652(15) 0.89040(21) 0.10650(14)
C30_4 C 0.52932(19) 0.87533(26) 0.08049(17)
H12_4 H 0.5294 0.8581 0.0587
C31_4 C 0.60455(13) 0.87717(18) 0.09894(13)
C32_4 C 0.53227(14) 0.95981(20) 0.17431(12)
N3_4 N 0.42051(18) 0.86928(24) 0.06803(16)
N4_4 N 0.4539(2) 0.86432(28) 0.05933(19)
O15_3 O 0.17517(10) 0.84187(10) 0.0833
O16_5 O 0.30032(11) 0.96702(11) 0.0833
O17_3 O 0.26996(9) 0.87302(13) 0.05643(9)
O18_4 O 0.21680(9) 0.80611(13) 0.02693(8)
O24_4 O 0.60894(11) 0.86707(15) 0.06586(9)
O25_3 O 0.62922(10) 0.87724(13) 0.12686(9)
C33_4 C 0.16448(18) 0.42289(13) 0.03871(11)
C34_4 C 0.17440(21) 0.47314(14) 0.03042(13)
C35_4 C 0.20864(19) 0.50274(13) 0.00320(11)
C38_4 C 0.18949(23) 0.56517(15) 0.01704(15)
H14_4 H 0.1949 0.5969 0.0130
C39_4 C 0.15560(25) 0.53512(17) 0.04316(18)
C40_4 C 0.14876(24) 0.48956(16) 0.05046(16)
H15_4 H 0.1265 0.4698 0.0693
C41_4 C 0.11506(28) 0.60766(19) 0.08568(18)
C42_4 C 0.08496(25) 0.58002(17) 0.11542(16)
H16_4 H 0.0749 0.5467 0.1175
C43_4 C 0.07033(21) 0.60185(15) 0.14145(14)
C44_4 C 0.08298(21) 0.65032(15) 0.13699(14)
H17_4 H 0.0731 0.6654 0.1552
C45_4 C 0.10960(21) 0.67612(15) 0.10650(14)
C46_4 C 0.12467(26) 0.65399(18) 0.08049(17)
H18_4 H 0.1419 0.6713 0.0587
C47_4 C 0.12283(18) 0.72738(13) 0.09894(13)
C48_4 C 0.04019(20) 0.57246(14) 0.17431(12)
N5_4 N 0.13072(24) 0.55123(16) 0.06803(16)
N6_4 N 0.13568(28) 0.58958(19) 0.05933(19)
O27_3 O 0.15813(10) 0.3333 0.0833
O28_5 O 0.03298(11) 0.3333 0.0833
O29_3 O 0.12698(13) 0.39694(10) 0.05643(9)
O30_4 O 0.19389(13) 0.41069(9) 0.02693(8)
O36_4 O 0.13293(15) 0.74187(10) 0.06586(9)
O37_3 O 0.12276(13) 0.75198(9) 0.12686(9)
O68_3 O 0.20635(13) 0.93663(9) 0.11024(9)
O69_3 O 0.73027(10) 0.79365(13) 0.11024(9)
O70_3 O 0.06337(9) 0.26973(10) 0.11024(9)
O86_3 O 0.21057(13) 0.29589(10) 0.03981(9)
O87_3 O 0.08531(9) 0.78943(13) 0.03981(9)
O88_3 O 0.70411(10) 0.91469(9) 0.03981(9)
H1_4 H 0.5084 0.7351 0.9895
C4_4 C 0.45139(13) 0.66676(15) 0.99692(11)
C5_4 C 0.41795(12) 0.66768(14) 0.96765(10)
Fe1_5 Fe 0.39298(2) 0.72631(2) 0.9167
O1_4 O 0.63188(13) 0.86842(12) 0.98920(9)
O6_5 O 0.45802(11) 0.79135(11) 0.9167
O7_7 O 0.3333 0.6667 0.9167
O8_4 O 0.42770(9) 0.70821(9) 0.95501(8)
O9_4 O 0.38281(10) 0.62804(10) 0.95806(8)
H7_4 H 0.2649 0.7733 0.9895
C20_4 C 0.33324(15) 0.78463(20) 0.99692(11)
C21_4 C 0.33232(14) 0.75027(18) 0.96765(10)
Fe4_5 Fe 0.27369(2) 0.66667(3) 0.9167
O14_4 O 0.13158(12) 0.76346(18) 0.98920(9)
O19_5 O 0.20865(11) 0.66667(16) 0.9167
O20_4 O 0.29179(9) 0.71949(13) 0.95501(8)
O21_4 O 0.37196(10) 0.75477(14) 0.95806(8)
H13_4 H 0.2267 0.4916 0.9895
C36_4 C 0.21537(20) 0.54861(13) 0.99692(11)
C37_4 C 0.24973(18) 0.58205(12) 0.96765(10)
Fe7_4 Fe 0.33333(3) 0.60702(2) 0.9167
O26_4 O 0.23654(18) 0.36812(13) 0.98920(9)
O31_4 O 0.33333(16) 0.54198(11) 0.9167
O32_4 O 0.28051(13) 0.57230(9) 0.95501(8)
O33_4 O 0.24523(14) 0.61719(10) 0.95806(8)
C49_4 C 0.50219(18) 0.59174(13) 0.79462(11)
C50_4 C 0.49227(21) 0.63207(15) 0.80291(13)
C51_4 C 0.45803(19) 0.62743(14) 0.83013(11)
H19_4 H 0.4400 0.5982 0.8438
C52_4 C 0.45130(20) 0.66657(15) 0.83641(11)
C53_4 C 0.41694(18) 0.66565(14) 0.86568(10)
C54_4 C 0.47718(23) 0.70901(17) 0.81629(15)
H20_4 H 0.4718 0.7353 0.8203
C55_4 C 0.51107(25) 0.71285(19) 0.79017(18)
C56_4 C 0.51791(24) 0.67413(18) 0.78287(16)
H21_4 H 0.5402 0.6766 0.7640
C57_4 C 0.55161(28) 0.8259(2) 0.74765(18)
C58_4 C 0.58171(25) 0.82839(18) 0.71791(16)
H22_4 H 0.5918 0.8051 0.7158
C59_4 C 0.59634(21) 0.86485(15) 0.69188(14)
C60_4 C 0.58369(21) 0.90067(15) 0.69634(14)
H23_4 H 0.5936 0.9256 0.6781
C61_4 C 0.55707(21) 0.89985(15) 0.72683(14)
C62_4 C 0.54200(26) 0.86265(19) 0.75284(17)
H24_4 H 0.5248 0.8627 0.7746
C63_4 C 0.54384(18) 0.93788(13) 0.73439(13)
C64_4 C 0.62648(20) 0.86560(14) 0.65902(12)
N7_4 N 0.53595(24) 0.75384(18) 0.76530(16)
N8_4 N 0.53099(28) 0.7872(2) 0.77400(19)
O38_4 O 0.43013(18) 0.46491(12) 0.84413(9)
O39_3 O 0.53969(13) 0.60329(9) 0.77690(9)
O40_4 O 0.47278(13) 0.55013(9) 0.80640(8)
O41_4 O 0.38616(13) 0.62512(9) 0.87832(8)
O42_4 O 0.42144(14) 0.70529(10) 0.87527(8)
O45_4 O 0.53374(15) 0.94227(11) 0.76747(9)
O46_2 O 0.54391(13) 0.96255(10) 0.70647(9)
C65_4 C 0.08956(13) 0.49781(18) 0.79462(11)
C66_4 C 0.13981(14) 0.50773(21) 0.80291(13)
C67_4 C 0.16941(13) 0.54197(19) 0.83013(11)
H25_4 H 0.1583 0.5600 0.8438
C68_4 C 0.21528(13) 0.54870(20) 0.83641(11)
C69_4 C 0.24872(12) 0.58306(18) 0.86568(10)
C70_4 C 0.23184(15) 0.52282(23) 0.81629(15)
H26_4 H 0.2636 0.5282 0.8203
C71_4 C 0.20179(17) 0.48893(25) 0.79017(18)
C72_4 C 0.15623(16) 0.48209(24) 0.78287(16)
H27_4 H 0.1365 0.4598 0.7640
C73_4 C 0.27433(19) 0.44839(28) 0.74765(18)
C74_4 C 0.24669(17) 0.41829(25) 0.71791(16)
H28_4 H 0.2134 0.4082 0.7158
C75_4 C 0.26852(15) 0.40366(21) 0.69188(14)
C76_4 C 0.31699(15) 0.41631(21) 0.69634(14)
H29_4 H 0.3321 0.4064 0.6781
C77_4 C 0.34279(15) 0.44293(21) 0.72683(14)
C78_4 C 0.32066(18) 0.45800(26) 0.75284(17)
H30_4 H 0.3380 0.4752 0.7746
C79_4 C 0.39405(13) 0.45616(18) 0.73439(13)
C80_4 C 0.23913(14) 0.37352(20) 0.65902(12)
N9_4 N 0.21790(16) 0.46405(24) 0.76530(16)
N10_4 N 0.25625(19) 0.46901(28) 0.77400(19)
O47_4 O 0.03479(13) 0.56987(18) 0.84413(9)
O48_3 O 0.06361(10) 0.46031(13) 0.77690(9)
O49_4 O 0.07736(9) 0.52722(13) 0.80640(8)
O50_4 O 0.23897(9) 0.61384(13) 0.87832(8)
O51_4 O 0.28386(10) 0.57856(14) 0.87527(8)
O54_4 O 0.40854(10) 0.46626(15) 0.76747(9)
O55_2 O 0.41865(9) 0.45609(13) 0.70647(9)
C81_4 C 0.40826(13) 0.91044(13) 0.79462(11)
C82_4 C 0.36793(15) 0.86019(14) 0.80291(13)
C83_4 C 0.37257(14) 0.83059(13) 0.83013(11)
H31_4 H 0.4018 0.8417 0.8438
C84_4 C 0.33343(15) 0.78472(13) 0.83641(11)
C85_4 C 0.33435(14) 0.75128(12) 0.86568(10)
C86_4 C 0.29099(17) 0.76816(15) 0.81629(15)
H32_4 H 0.2647 0.7364 0.8203
C87_4 C 0.28715(19) 0.79821(17) 0.79017(18)
C88_4 C 0.32587(18) 0.84377(16) 0.78287(16)
H33_4 H 0.3234 0.8635 0.7640
C89_4 C 0.1741(2) 0.72567(19) 0.74765(18)
C90_4 C 0.17161(18) 0.75331(17) 0.71791(16)
H34_4 H 0.1949 0.7866 0.7158
C91_4 C 0.13515(15) 0.73148(15) 0.69188(14)
C92_4 C 0.09933(15) 0.68301(15) 0.69634(14)
H35_4 H 0.0744 0.6679 0.6781
C93_4 C 0.10015(15) 0.65721(15) 0.72683(14)
C94_4 C 0.13735(19) 0.67934(18) 0.75284(17)
H36_4 H 0.1373 0.6620 0.7746
C95_4 C 0.06212(13) 0.60595(13) 0.73439(13)
C96_4 C 0.13440(14) 0.76087(14) 0.65902(12)
N11_4 N 0.24616(18) 0.78210(16) 0.76530(16)
N12_4 N 0.2128(2) 0.74375(19) 0.77400(19)
O56_4 O 0.53509(12) 0.96521(13) 0.84413(9)
O57_3 O 0.39671(9) 0.93639(10) 0.77690(9)
O58_4 O 0.44987(9) 0.92264(9) 0.80640(8)
O59_4 O 0.37488(9) 0.76103(9) 0.87832(8)
O60_4 O 0.29471(10) 0.71614(10) 0.87527(8)
O63_4 O 0.05773(11) 0.59146(10) 0.76747(9)
O64_2 O 0.03745(10) 0.58135(9) 0.70647(9)
O65_2 O 0.0000 0.49150(10) 0.7500
O66_3 O 0.50850(10) 0.50854(10) 0.7500
O67_3 O 0.49146(10) 1.0000 0.7500
O85_2 O 0.45609(13) 0.41865(9) 0.79353(9)
O84_2 O 0.96255(10) 0.54391(13) 0.79353(9)
C1_5 C 0.83552(18) 0.25841(13) 0.46129(11)
C2_5 C 0.82560(21) 0.29874(15) 0.46958(13)
C3_5 C 0.79136(19) 0.29410(14) 0.49680(11)
H1_5 H 0.7733 0.2649 0.5105
C4_5 C 0.78463(20) 0.33324(15) 0.50308(11)
C5_5 C 0.75027(18) 0.33232(14) 0.53235(10)
C6_5 C 0.81051(23) 0.37568(17) 0.48296(15)
H2_5 H 0.8051 0.4020 0.4870
C7_5 C 0.84440(25) 0.37952(19) 0.45684(18)
C8_5 C 0.85124(24) 0.34080(18) 0.44954(16)
H3_5 H 0.8735 0.3433 0.4307
C9_5 C 0.88494(28) 0.4926(2) 0.41432(18)
C10_5 C 0.91504(25) 0.49506(18) 0.38458(16)
H4_5 H 0.9251 0.4718 0.3825
C11_5 C 0.92967(21) 0.53152(15) 0.35855(14)
C12_5 C 0.91702(21) 0.56734(15) 0.36301(14)
H5_5 H 0.9269 0.5923 0.3448
C13_5 C 0.89040(21) 0.56652(15) 0.39350(14)
C14_5 C 0.87533(26) 0.52932(19) 0.41951(17)
H6_5 H 0.8581 0.5294 0.4413
C15_5 C 0.87717(18) 0.60455(13) 0.40106(13)
C16_5 C 0.95981(20) 0.53227(14) 0.32569(12)
Fe1_6 Fe 0.66667(3) 0.27369(2) 0.5833
N1_5 N 0.86928(24) 0.42051(18) 0.43197(16)
N2_5 N 0.86432(28) 0.4539(2) 0.44067(19)
O1_5 O 0.76346(18) 0.13158(12) 0.51080(9)
O2_4 O 0.84187(10) 0.17517(10) 0.4167
O3_5 O 0.96702(11) 0.30032(11) 0.4167
O4_4 O 0.87302(13) 0.26996(9) 0.44357(9)
O5_5 O 0.80611(13) 0.21680(9) 0.47307(8)
O6_6 O 0.66667(16) 0.20865(11) 0.5833
O7_8 O 0.6666 0.3333 0.5833
O8_5 O 0.71949(13) 0.29179(9) 0.54499(8)
O9_5 O 0.75477(14) 0.37196(10) 0.54194(8)
O12_5 O 0.86707(15) 0.60894(11) 0.43414(9)
O13_4 O 0.87724(13) 0.62922(10) 0.37314(9)
C17_5 C 0.42289(22) 0.16448(18) 0.46129(11)
C18_5 C 0.47314(26) 0.17440(21) 0.46958(13)
C19_5 C 0.50274(24) 0.20864(19) 0.49680(11)
H7_5 H 0.4916 0.2267 0.5105
C20_5 C 0.54861(25) 0.21537(20) 0.50308(11)
C21_5 C 0.58205(23) 0.24973(18) 0.53235(10)
C22_5 C 0.56517(29) 0.18949(23) 0.48296(15)
H8_5 H 0.5969 0.1949 0.4870
C23_5 C 0.53512(31) 0.15560(25) 0.45684(18)
C24_5 C 0.48956(30) 0.14876(24) 0.44954(16)
H9_5 H 0.4698 0.1265 0.4307
C25_5 C 0.60766(34) 0.11506(28) 0.41432(18)
C26_5 C 0.58002(31) 0.08496(25) 0.38458(16)
H10_5 H 0.5467 0.0749 0.3825
C27_5 C 0.60185(26) 0.07033(21) 0.35855(14)
C28_5 C 0.65032(26) 0.08298(21) 0.36301(14)
H11_5 H 0.6654 0.0731 0.3448
C29_5 C 0.67612(26) 0.10960(21) 0.39350(14)
C30_5 C 0.65399(32) 0.12467(26) 0.41951(17)
H12_5 H 0.6713 0.1419 0.4413
C31_5 C 0.72738(22) 0.12283(18) 0.40106(13)
C32_5 C 0.57246(24) 0.04019(20) 0.32569(12)
Fe4_6 Fe 0.60702(4) 0.33333(3) 0.5833
N3_5 N 0.55123(30) 0.13072(24) 0.43197(16)
N4_5 N 0.58958(34) 0.13568(28) 0.44067(19)
O14_5 O 0.36812(22) 0.23654(18) 0.51080(9)
O15_4 O 0.33330(14) 0.15813(10) 0.4167
O16_6 O 0.33330(16) 0.03298(11) 0.4167
O17_4 O 0.39694(16) 0.12698(13) 0.44357(9)
O18_5 O 0.41069(16) 0.19389(13) 0.47307(8)
O19_6 O 0.54198(19) 0.33333(16) 0.5833
O20_5 O 0.57230(16) 0.28051(13) 0.54499(8)
O21_5 O 0.61719(17) 0.24523(14) 0.54194(8)
O24_5 O 0.74187(19) 0.13293(15) 0.43414(9)
O25_4 O 0.75198(16) 0.12276(13) 0.37314(9)
C33_5 C 0.74159(22) 0.57711(13) 0.46129(11)
C34_5 C 0.70126(25) 0.52686(14) 0.46958(13)
C35_5 C 0.70590(23) 0.49726(13) 0.49680(11)
H13_5 H 0.7351 0.5084 0.5105
C36_5 C 0.66676(24) 0.45139(13) 0.50308(11)
C37_5 C 0.66768(22) 0.41795(12) 0.53235(10)
C38_5 C 0.62432(27) 0.43483(15) 0.48296(15)
H14_5 H 0.5980 0.4031 0.4870
C39_5 C 0.62048(30) 0.46488(17) 0.45684(18)
C40_5 C 0.65920(29) 0.51044(16) 0.44954(16)
H15_5 H 0.6567 0.5302 0.4307
C41_5 C 0.50740(34) 0.39234(19) 0.41432(18)
C42_5 C 0.50494(30) 0.41998(17) 0.38458(16)
H16_5 H 0.5282 0.4533 0.3825
C43_5 C 0.46848(26) 0.39815(15) 0.35855(14)
C44_5 C 0.43266(26) 0.34968(15) 0.36301(14)
H17_5 H 0.4077 0.3346 0.3448
C45_5 C 0.43348(26) 0.32388(15) 0.39350(14)
C46_5 C 0.47068(32) 0.34601(18) 0.41951(17)
H18_5 H 0.4706 0.3287 0.4413
C47_5 C 0.39545(22) 0.27262(13) 0.40106(13)
C48_5 C 0.46773(24) 0.42754(14) 0.32569(12)
Fe7_5 Fe 0.72631(4) 0.39298(2) 0.5833
N5_5 N 0.57949(29) 0.44877(16) 0.43197(16)
N6_5 N 0.54610(34) 0.41042(19) 0.44067(19)
O26_5 O 0.86842(22) 0.63188(13) 0.51080(9)
O27_4 O 0.82483(10) 0.6667 0.4167
O28_6 O 0.69968(11) 0.6667 0.4167
O29_4 O 0.73004(16) 0.60306(10) 0.44357(9)
O30_5 O 0.78320(16) 0.58931(9) 0.47307(8)
O31_5 O 0.79135(19) 0.45802(11) 0.5833
O32_5 O 0.70821(16) 0.42770(9) 0.54499(8)
O33_5 O 0.62804(17) 0.38281(10) 0.54194(8)
O36_5 O 0.39106(18) 0.25813(10) 0.43414(9)
O37_4 O 0.37078(16) 0.24802(9) 0.37314(9)
C49_5 C 0.91044(22) 0.40826(13) 0.70538(11)
C50_5 C 0.86019(26) 0.36793(15) 0.69709(13)
C51_5 C 0.83059(24) 0.37257(14) 0.66987(11)
H19_5 H 0.8417 0.4018 0.6562
C52_5 C 0.78472(25) 0.33343(15) 0.66359(11)
C53_5 C 0.75128(23) 0.33435(14) 0.63432(10)
C54_5 C 0.76816(29) 0.29099(17) 0.68371(15)
H20_5 H 0.7364 0.2647 0.6797
C55_5 C 0.79821(31) 0.28715(19) 0.70983(18)
C56_5 C 0.84377(30) 0.32587(18) 0.71713(16)
H21_5 H 0.8635 0.3234 0.7360
C57_5 C 0.72567(34) 0.1741(2) 0.75235(18)
C58_5 C 0.75331(31) 0.17161(18) 0.78209(16)
H22_5 H 0.7866 0.1949 0.7842
C59_5 C 0.73148(26) 0.13515(15) 0.80812(14)
C60_5 C 0.68301(26) 0.09933(15) 0.80366(14)
H23_5 H 0.6679 0.0744 0.8219
C61_5 C 0.65721(26) 0.10015(15) 0.77317(14)
C62_5 C 0.67934(32) 0.13735(19) 0.74716(17)
H24_5 H 0.6620 0.1373 0.7254
C63_5 C 0.60595(22) 0.06212(13) 0.76561(13)
C64_5 C 0.76087(24) 0.13440(14) 0.84098(12)
N7_5 N 0.78210(30) 0.24616(18) 0.73470(16)
N8_5 N 0.74375(34) 0.2128(2) 0.72600(19)
O38_5 O 0.96521(22) 0.53509(12) 0.65587(9)
O39_4 O 0.93639(16) 0.39671(9) 0.72310(9)
O40_5 O 0.92264(16) 0.44987(9) 0.69360(8)
O41_5 O 0.76103(16) 0.37488(9) 0.62168(8)
O42_5 O 0.71614(17) 0.29471(10) 0.62473(8)
O45_5 O 0.59146(19) 0.05773(11) 0.73253(9)
C65_5 C 0.59174(22) 0.50219(18) 0.70538(11)
C66_5 C 0.63207(25) 0.49227(21) 0.69709(13)
C67_5 C 0.62743(23) 0.45803(19) 0.66987(11)
H25_5 H 0.5982 0.4400 0.6562
C68_5 C 0.66657(24) 0.45130(20) 0.66359(11)
C69_5 C 0.66565(22) 0.41694(18) 0.63432(10)
C70_5 C 0.70901(27) 0.47718(23) 0.68371(15)
H26_5 H 0.7353 0.4718 0.6797
C71_5 C 0.71285(30) 0.51107(25) 0.70983(18)
C72_5 C 0.67413(29) 0.51791(24) 0.71713(16)
H27_5 H 0.6766 0.5402 0.7360
C73_5 C 0.82593(34) 0.55161(28) 0.75235(18)
C74_5 C 0.82839(30) 0.58171(25) 0.78209(16)
H28_5 H 0.8051 0.5918 0.7842
C75_5 C 0.86485(26) 0.59634(21) 0.80812(14)
C76_5 C 0.90067(26) 0.58369(21) 0.80366(14)
H29_5 H 0.9256 0.5936 0.8219
C77_5 C 0.89985(26) 0.55707(21) 0.77317(14)
C78_5 C 0.86265(32) 0.54200(26) 0.74716(17)
H30_5 H 0.8627 0.5248 0.7254
C79_5 C 0.93788(22) 0.54384(18) 0.76561(13)
C80_5 C 0.86560(24) 0.62648(20) 0.84098(12)
N9_5 N 0.75384(29) 0.53595(24) 0.73470(16)
N10_5 N 0.78723(34) 0.53099(28) 0.72600(19)
O47_5 O 0.46491(22) 0.43013(18) 0.65587(9)
O48_4 O 0.60329(16) 0.53969(13) 0.72310(9)
O49_5 O 0.55013(16) 0.47278(13) 0.69360(8)
O50_5 O 0.62512(16) 0.38616(13) 0.62168(8)
O51_5 O 0.70529(17) 0.42144(14) 0.62473(8)
O54_5 O 0.94227(18) 0.53374(15) 0.73253(9)
C81_5 C 0.49781(18) 0.08956(13) 0.70538(11)
C82_5 C 0.50773(21) 0.13981(14) 0.69709(13)
C83_5 C 0.54197(19) 0.16941(13) 0.66987(11)
H31_5 H 0.5600 0.1583 0.6562
C84_5 C 0.54870(20) 0.21528(13) 0.66359(11)
C85_5 C 0.58306(18) 0.24872(12) 0.63432(10)
C86_5 C 0.52282(23) 0.23184(15) 0.68371(15)
H32_5 H 0.5282 0.2636 0.6797
C87_5 C 0.48893(25) 0.20179(17) 0.70983(18)
C88_5 C 0.48209(24) 0.15623(16) 0.71713(16)
H33_5 H 0.4598 0.1365 0.7360
C89_5 C 0.44839(28) 0.27433(19) 0.75235(18)
C90_5 C 0.41829(25) 0.24669(17) 0.78209(16)
H34_5 H 0.4082 0.2134 0.7842
C91_5 C 0.40366(21) 0.26852(15) 0.80812(14)
C92_5 C 0.41631(21) 0.31699(15) 0.80366(14)
H35_5 H 0.4064 0.3321 0.8219
C93_5 C 0.44293(21) 0.34279(15) 0.77317(14)
C94_5 C 0.45800(26) 0.32066(18) 0.74716(17)
H36_5 H 0.4752 0.3380 0.7254
C95_5 C 0.45616(18) 0.39405(13) 0.76561(13)
C96_5 C 0.37352(20) 0.23913(14) 0.84098(12)
N11_5 N 0.46405(24) 0.21790(16) 0.73470(16)
N12_5 N 0.46901(28) 0.25625(19) 0.72600(19)
O56_5 O 0.56987(18) 0.03479(13) 0.65587(9)
O57_4 O 0.46031(13) 0.06361(10) 0.72310(9)
O58_5 O 0.52722(13) 0.07736(9) 0.69360(8)
O59_5 O 0.61384(13) 0.23897(9) 0.62168(8)
O60_5 O 0.57856(14) 0.28386(10) 0.62473(8)
O63_5 O 0.46626(15) 0.40854(10) 0.73253(9)
O66_4 O 0.99997(14) 0.49146(10) 0.7500
O67_4 O 0.49150(10) 0.0000 0.7500
O68_4 O 0.26973(16) 0.06337(9) 0.38976(9)
O69_4 O 0.93663(16) 0.20635(13) 0.38976(9)
O70_4 O 0.79365(13) 0.73027(10) 0.38976(9)
O86_4 O 0.91469(16) 0.70411(10) 0.46019(9)
O87_4 O 0.29589(16) 0.21057(13) 0.46019(9)
O88_4 O 0.78943(13) 0.08531(9) 0.46019(9)
O3_6 O 0.0000 0.36635(11) 0.7500
H58_2 H 0.0297787 0.370864 0.762526
O16_7 O 0.63365(11) 0.63369(11) 0.7500
H37_3 H 0.370363 0.0287772 0.763789
H57_2 H 0.971223 0.341586 0.763789
O28_7 O 0.36631(11) 1.0000 0.7500
H38_3 H 0.341085 0.970221 0.762526
C6_6 C 0.14384(23) 0.04235(17) 0.14963(15)
H2_6 H 0.1384 0.0687 0.1537
C7_6 C 0.17773(25) 0.04619(19) 0.12351(18)
C8_6 C 0.18457(24) 0.00747(18) 0.11621(16)
H3_6 H 0.2068 0.0100 0.0974
C9_6 C 0.21827(28) 0.1593(2) 0.08099(18)
C10_6 C 0.24837(25) 0.16173(18) 0.05125(16)
H4_6 H 0.2584 0.1385 0.0492
C11_6 C 0.26300(21) 0.19819(15) 0.02522(14)
C12_6 C 0.25035(21) 0.23401(15) 0.02968(14)
H5_6 H 0.2602 0.2590 0.0115
C13_6 C 0.22373(21) 0.23319(15) 0.06017(14)
C14_6 C 0.20866(26) 0.19599(19) 0.08618(17)
H6_6 H 0.1914 0.1961 0.1080
C15_6 C 0.21050(18) 0.27122(13) 0.06773(13)
N1_6 N 0.20261(24) 0.08718(18) 0.09864(16)
N2_6 N 0.19765(28) 0.1206(2) 0.10734(19)
O9_6 O 0.08810(14) 0.03863(10) 0.20861(8)
O12_6 O 0.20040(15) 0.27561(11) 0.10081(9)
C33_6 C 0.07492(22) 0.24378(13) 0.12796(11)
C34_6 C 0.03459(25) 0.19353(14) 0.13625(13)
C35_6 C 0.03923(23) 0.16393(13) 0.16347(11)
H13_6 H 0.0684 0.1751 0.1772
C36_6 C 0.00009(24) 0.11806(13) 0.16975(11)
C37_6 C 0.00101(22) 0.08462(12) 0.19902(10)
Fe7_6 Fe 0.05964(4) 0.05965(2) 0.2500
O26_6 O 0.20175(22) 0.29855(13) 0.17747(9)
O30_6 O 0.11653(16) 0.25598(9) 0.13974(8)
O31_6 O 0.12468(19) 0.12469(11) 0.2500
O32_6 O 0.04154(16) 0.09437(9) 0.21166(8)
C49_6 C 0.24378(22) 0.07492(13) 0.37204(11)
C50_6 C 0.19353(26) 0.03459(15) 0.36375(13)
C51_6 C 0.16393(24) 0.03923(14) 0.33653(11)
H19_6 H 0.1751 0.0684 0.3228
C52_6 C 0.11806(25) 0.00009(15) 0.33025(11)
C53_6 C 0.08462(23) 0.00101(14) 0.30098(10)
O38_6 O 0.29855(22) 0.20175(12) 0.32253(9)
O40_6 O 0.25598(16) 0.11653(9) 0.36026(8)
O41_6 O 0.09437(16) 0.04154(9) 0.28834(8)
C70_6 C 0.04235(27) 0.14384(23) 0.35037(15)
H26_6 H 0.0687 0.1384 0.3463
C71_6 C 0.04619(30) 0.17773(25) 0.37649(18)
C72_6 C 0.00747(29) 0.18457(24) 0.38379(16)
H27_6 H 0.0100 0.2068 0.4026
C73_6 C 0.15927(34) 0.21827(28) 0.41901(18)
C74_6 C 0.16173(30) 0.24837(25) 0.44875(16)
H28_6 H 0.1385 0.2584 0.4508
C75_6 C 0.19819(26) 0.26300(21) 0.47478(14)
C76_6 C 0.23401(26) 0.25035(21) 0.47032(14)
H29_6 H 0.2590 0.2602 0.4885
C77_6 C 0.23319(26) 0.22373(21) 0.43983(14)
C78_6 C 0.19599(32) 0.20866(26) 0.41382(17)
H30_6 H 0.1961 0.1914 0.3920
C79_6 C 0.27122(22) 0.21050(18) 0.43227(13)
C80_6 C 0.19894(24) 0.29314(20) 0.50764(12)
N9_6 N 0.08718(29) 0.20261(24) 0.40136(16)
N10_6 N 0.12057(34) 0.19765(28) 0.39266(19)
O51_6 O 0.03863(17) 0.08810(14) 0.29139(8)
O54_6 O 0.27561(18) 0.20040(15) 0.39919(9)
C16_6 C 0.29314(20) 0.19894(14) 0.99236(12)
C1_6 C 0.16885(18) 0.92508(13) 0.12796(11)
C2_6 C 0.15893(21) 0.96541(15) 0.13625(13)
C3_6 C 0.12469(19) 0.96077(14) 0.16347(11)
H1_6 H 0.1066 0.9316 0.1772
C4_6 C 0.11796(20) 0.99991(15) 0.16975(11)
C5_6 C 0.08360(18) 0.99899(14) 0.19902(10)
Fe1_7 Fe 0.00000(3) 0.94036(2) 0.2500
O1_6 O 0.09679(18) 0.79825(12) 0.17747(9)
O5_6 O 0.13944(13) 0.88347(9) 0.13974(8)
O6_7 O 0.00000(16) 0.87532(11) 0.2500
O8_6 O 0.05282(13) 0.95846(9) 0.21166(8)
C29_6 C 0.00945(26) 0.77627(21) 0.06017(14)
H12_6 H 0.0046 0.8086 0.1080
C31_6 C 0.06071(22) 0.78950(18) 0.06773(13)
O24_6 O 0.07520(19) 0.79960(15) 0.10081(9)
C54_6 C 0.10150(29) 0.95765(17) 0.35037(15)
H20_6 H 0.0698 0.9313 0.3463
C55_6 C 0.13155(31) 0.95381(19) 0.37649(18)
C56_6 C 0.17711(30) 0.99253(18) 0.38379(16)
H21_6 H 0.1969 0.9900 0.4026
C57_6 C 0.05901(34) 0.8407(2) 0.41901(18)
C58_6 C 0.08665(31) 0.83827(18) 0.44875(16)
H22_6 H 0.1200 0.8615 0.4508
C59_6 C 0.06482(26) 0.80181(15) 0.47478(14)
C60_6 C 0.01635(26) 0.76599(15) 0.47032(14)
H23_6 H 0.0013 0.7410 0.4885
C62_6 C 0.01268(32) 0.80401(19) 0.41382(17)
C64_6 C 0.09421(24) 0.80106(14) 0.50764(12)
N7_6 N 0.11544(30) 0.91282(18) 0.40136(16)
N8_6 N 0.07709(34) 0.8794(2) 0.39266(19)
O42_6 O 0.04948(17) 0.96137(10) 0.29139(8)
Fe4_7 Fe 0.94035(4) -0.00000(3) 0.2500
O19_7 O 0.87531(19) -0.00000(16) 0.2500
C38_6 C 0.95765(27) 0.10150(15) 0.14963(15)
H14_6 H 0.9313 0.0698 0.1537
C39_6 C 0.95381(30) 0.13155(17) 0.12351(18)
C40_6 C 0.99253(29) 0.17711(16) 0.11621(16)
H15_6 H 0.9900 0.1969 0.0974
C41_6 C 0.84073(34) 0.05901(19) 0.08099(18)
C42_6 C 0.83827(30) 0.08665(17) 0.05125(16)
H16_6 H 0.8615 0.1200 0.0492
C43_6 C 0.80181(26) 0.06482(15) 0.02522(14)
C44_6 C 0.76599(26) 0.01635(15) 0.02968(14)
H17_6 H 0.7410 0.0013 0.0115
C46_6 C 0.80401(32) 0.01268(18) 0.08618(17)
N5_6 N 0.91282(29) 0.11544(16) 0.09864(16)
N6_6 N 0.87943(34) 0.07709(19) 0.10734(19)
O33_6 O 0.96137(17) 0.04948(10) 0.20861(8)
C65_6 C 0.92508(22) 0.16885(18) 0.37204(11)
C66_6 C 0.96541(25) 0.15893(21) 0.36375(13)
C67_6 C 0.96077(23) 0.12469(19) 0.33653(11)
H25_6 H 0.9316 0.1066 0.3228
C68_6 C 0.99991(24) 0.11796(20) 0.33025(11)
C69_6 C 0.99899(22) 0.08360(18) 0.30098(10)
O47_6 O 0.79825(22) 0.09679(18) 0.32253(9)
O49_6 O 0.88347(16) 0.13944(13) 0.36026(8)
O50_6 O 0.95846(16) 0.05282(13) 0.28834(8)
C93_6 C 0.77627(21) 0.00945(15) 0.43983(14)
H36_6 H 0.8086 0.0046 0.3920
C95_6 C 0.78950(18) 0.06071(13) 0.43227(13)
O63_6 O 0.79960(15) 0.07520(10) 0.39919(9)
C48_6 C 0.80106(24) 0.09421(14) 0.99236(12)
Fe1_8 Fe 1.00000(3) 0.94036(2) 0.2500
O6_8 O 1.00000(16) 0.87532(11) 0.2500
O7_9 O 0.9999 1.0000 0.2500
C17_6 C 0.75622(22) 0.83115(18) 0.12796(11)
C18_6 C 0.80647(26) 0.84107(21) 0.13625(13)
C19_6 C 0.83607(24) 0.87531(19) 0.16347(11)
H7_6 H 0.8249 0.8934 0.1772
C20_6 C 0.88194(25) 0.88204(20) 0.16975(11)
C21_6 C 0.91538(23) 0.91640(18) 0.19902(10)
C22_6 C 0.89850(29) 0.85616(23) 0.14963(15)
H8_6 H 0.9302 0.8616 0.1537
C23_6 C 0.86845(31) 0.82227(25) 0.12351(18)
C24_6 C 0.82289(30) 0.81543(24) 0.11621(16)
H9_6 H 0.8031 0.7932 0.0974
C25_6 C 0.94099(34) 0.78173(28) 0.08099(18)
C26_6 C 0.91335(31) 0.75163(25) 0.05125(16)
H10_6 H 0.8800 0.7416 0.0492
C27_6 C 0.93518(26) 0.73700(21) 0.02522(14)
C28_6 C 0.98365(26) 0.74965(21) 0.02968(14)
H11_6 H 0.9987 0.7398 0.0115
C30_6 C 0.98732(32) 0.79134(26) 0.08618(17)
Fe4_8 Fe 0.94035(4) 1.00000(3) 0.2500
N3_6 N 0.88456(30) 0.79739(24) 0.09864(16)
N4_6 N 0.92291(34) 0.80235(28) 0.10734(19)
O14_6 O 0.70145(22) 0.90321(18) 0.17747(9)
O18_6 O 0.74402(16) 0.86056(13) 0.13974(8)
O19_8 O 0.87531(19) 1.00000(16) 0.2500
O20_6 O 0.90563(16) 0.94718(13) 0.21166(8)
O21_6 O 0.95052(17) 0.91190(14) 0.20861(8)
C45_6 C 0.76681(26) 0.99055(15) 0.06017(14)
H18_6 H 0.8039 0.9954 0.1080
C47_6 C 0.72878(22) 0.93929(13) 0.06773(13)
O36_6 O 0.72439(18) 0.92480(10) 0.10081(9)
C61_6 C 0.99055(26) 0.76681(15) 0.43983(14)
H24_6 H 0.9954 0.8039 0.3920
C63_6 C 0.93929(22) 0.72878(13) 0.43227(13)
O45_6 O 0.92480(19) 0.72439(11) 0.39919(9)
C81_6 C 0.83115(18) 0.75622(13) 0.37204(11)
C82_6 C 0.84107(21) 0.80647(14) 0.36375(13)
C83_6 C 0.87531(19) 0.83607(13) 0.33653(11)
H31_6 H 0.8934 0.8249 0.3228
C84_6 C 0.88204(20) 0.88194(13) 0.33025(11)
C85_6 C 0.91640(18) 0.91538(12) 0.30098(10)
C86_6 C 0.85616(23) 0.89850(15) 0.35037(15)
H32_6 H 0.8616 0.9302 0.3463
C87_6 C 0.82227(25) 0.86845(17) 0.37649(18)
C88_6 C 0.81543(24) 0.82289(16) 0.38379(16)
H33_6 H 0.7932 0.8031 0.4026
C89_6 C 0.78173(28) 0.94099(19) 0.41901(18)
C90_6 C 0.75163(25) 0.91335(17) 0.44875(16)
H34_6 H 0.7416 0.8800 0.4508
C91_6 C 0.73700(21) 0.93518(15) 0.47478(14)
C92_6 C 0.74965(21) 0.98365(15) 0.47032(14)
H35_6 H 0.7398 0.9987 0.4885
C94_6 C 0.79134(26) 0.98732(18) 0.41382(17)
C96_6 C 0.70686(20) 0.90579(14) 0.50764(12)
N11_6 N 0.79739(24) 0.88456(16) 0.40136(16)
N12_6 N 0.80235(28) 0.92291(19) 0.39266(19)
O56_6 O 0.90321(18) 0.70145(13) 0.32253(9)
O58_6 O 0.86056(13) 0.74402(9) 0.36026(8)
O59_6 O 0.94718(13) 0.90563(9) 0.28834(8)
O60_6 O 0.91190(14) 0.95052(10) 0.29139(8)
C32_6 C 0.90579(24) 0.70686(20) 0.99236(12)
O7_10 O 0.0000 0.0001 0.2500
O7_11 O 0.0000 1.0000 0.2500
O7_12 O 1.0000 0.0000 0.2500
O28_8 O 0.36635(11) 0.0000 0.7500
H38_4 H 0.370864 0.0297787 0.737474
H37_4 H 0.341586 0.971223 0.736211
H47_2 H 0.0287772 0.370363 0.736211
O16_8 O 0.99997(16) 0.36631(11) 0.7500
H48_2 H 0.970221 0.341085 0.737474
loop_
_geom_bond_atom_site_label_1
_geom_bond_atom_site_label_2
_geom_bond_site_symmetry_1
_geom_bond_site_symmetry_2
C5 C4 1_555 1_555
Fe1 O6 1_555 1_555
O7 Fe1 1_555 1_555
O8 C5 1_555 1_555
O9 C5 1_555 1_555
C21 C20 1_555 1_555
Fe4 O7 1_555 1_555
O19 Fe4 1_555 1_555
O20 C21 1_555 1_555
O21 Fe1 1_555 1_555
C37 C36 1_555 1_555
Fe7 O7 1_555 1_555
O31 Fe7 1_555 1_555
O32 C37 1_555 1_555
O33 Fe4 1_555 1_555
C49 C50 1_555 1_555
C50 C51 1_555 1_555
C51 H19 1_555 1_555
C52 C51 1_555 1_555
C53 C52 1_555 1_555
C54 C52 1_555 1_555
H20 C54 1_555 1_555
C55 C54 1_555 1_555
C56 C50 1_555 1_555
H21 C56 1_555 1_555
C57 C58 1_555 1_555
C58 H22 1_555 1_555
C59 C58 1_555 1_555
C60 C59 1_555 1_555
H23 C60 1_555 1_555
C61 C60 1_555 1_555
C62 C57 1_555 1_555
H24 C62 1_555 1_555
C63 C61 1_555 1_555
C64 C59 1_555 1_555
Fe10 O38 1_555 1_555
N7 C55 1_555 1_555
N8 C57 1_555 1_555
O39 C49 1_555 1_555
O40 C49 1_555 1_555
O41 Fe7 1_555 1_555
O42 Fe1 1_555 1_555
O43 C64 1_555 1_555
O44 C64 1_555 1_555
O45 C63 1_555 1_555
O46 C63 1_555 1_555
C65 C66 1_555 1_555
C66 C67 1_555 1_555
C67 H25 1_555 1_555
C68 C67 1_555 1_555
C69 C68 1_555 1_555
C70 C68 1_555 1_555
H26 C70 1_555 1_555
C71 C70 1_555 1_555
C72 C66 1_555 1_555
H27 C72 1_555 1_555
C73 C74 1_555 1_555
C74 H28 1_555 1_555
C75 C74 1_555 1_555
C76 C75 1_555 1_555
H29 C76 1_555 1_555
C77 C76 1_555 1_555
C78 C73 1_555 1_555
H30 C78 1_555 1_555
C79 C77 1_555 1_555
C80 C75 1_555 1_555
Fe11 O47 1_555 1_555
N9 C71 1_555 1_555
N10 C73 1_555 1_555
O48 C65 1_555 1_555
O49 C65 1_555 1_555
O50 Fe4 1_555 1_555
O51 Fe7 1_555 1_555
O52 C80 1_555 1_555
O53 C80 1_555 1_555
O54 Fe10 1_555 1_555
O55 C79 1_555 1_555
C81 C82 1_555 1_555
C82 C83 1_555 1_555
C83 H31 1_555 1_555
C84 C83 1_555 1_555
C85 C84 1_555 1_555
C86 C84 1_555 1_555
H32 C86 1_555 1_555
C87 C86 1_555 1_555
C88 C82 1_555 1_555
H33 C88 1_555 1_555
C89 C90 1_555 1_555
C90 H34 1_555 1_555
C91 C90 1_555 1_555
C92 C91 1_555 1_555
H35 C92 1_555 1_555
C93 C92 1_555 1_555
C94 C89 1_555 1_555
H36 C94 1_555 1_555
C95 C93 1_555 1_555
C96 C91 1_555 1_555
Fe12 O45 1_555 1_555
N11 C87 1_555 1_555
N12 C89 1_555 1_555
O56 Fe12 1_555 1_555
O57 C81 1_555 1_555
O58 C81 1_555 1_555
O59 Fe1 1_555 1_555
O60 Fe4 1_555 1_555
O61 C96 1_555 1_555
O62 C96 1_555 1_555
O63 Fe11 1_555 1_555
O64 C95 1_555 1_555
Fe13 O48 1_555 1_555
Fe14 O39 1_555 1_555
Fe15 O57 1_555 1_555
Fe16 O62 1_555 1_555
Fe17 O44 1_555 1_555
Fe18 O53 1_555 1_555
Fe23 O55 1_555 1_555
Fe28 O43 1_555 1_555
Fe29 O61 1_555 1_555
Fe30 O52 1_555 1_555
O65 Fe11 1_555 1_555
O66 Fe10 1_555 1_555
O67 Fe12 1_555 1_555
O71 Fe10 1_555 1_555
O85 Fe10 1_555 1_555
Fe1 O8 1_555 1_555
O9 Fe7 1_555 1_555
C21 O21 1_555 1_555
Fe4 O20 1_555 1_555
C37 O33 1_555 1_555
Fe7 O32 1_555 1_555
C53 O41 1_555 1_555
C53 O42 1_555 1_555
C55 C56 1_555 1_555
C61 C62 1_555 1_555
Fe10 O40 1_555 1_555
N7 N8 1_555 1_555
C69 O50 1_555 1_555
C69 O51 1_555 1_555
C71 C72 1_555 1_555
C77 C78 1_555 1_555
C79 O54 1_555 1_555
Fe11 O49 1_555 1_555
N9 N10 1_555 1_555
C85 O59 1_555 1_555
C85 O60 1_555 1_555
C87 C88 1_555 1_555
C93 C94 1_555 1_555
C95 O63 1_555 1_555
Fe12 O58 1_555 1_555
N11 N12 1_555 1_555
Fe13 O65 1_555 1_555
Fe14 O66 1_555 1_555
Fe15 O67 1_555 1_555
Fe23 O66 1_555 1_555
C1 C2 1_555 1_555
C2 C3 1_555 1_555
H2 C6 1_555 1_555
C7 C6 1_555 1_555
C8 C2 1_555 1_555
H3 C8 1_555 1_555
C9 C10 1_555 1_555
C10 H4 1_555 1_555
C11 C10 1_555 1_555
C12 C11 1_555 1_555
H5 C12 1_555 1_555
C13 C12 1_555 1_555
C14 C9 1_555 1_555
H6 C14 1_555 1_555
C15 C13 1_555 1_555
C16 C11 1_555 1_555
Fe2 O2 1_555 1_555
N1 C7 1_555 1_555
N2 C9 1_555 1_555
O2 Fe3 1_555 1_555
O3 Fe2 1_555 1_555
O4 C1 1_555 1_555
O5 C1 1_555 1_555
O10 C16 1_555 1_555
O11 C16 1_555 1_555
O12 C15 1_555 1_555
O13 C15 1_555 1_555
C17 C18 1_555 1_555
C18 C19 1_555 1_555
H8 C22 1_555 1_555
C23 C22 1_555 1_555
C24 C18 1_555 1_555
H9 C24 1_555 1_555
C25 C26 1_555 1_555
C26 H10 1_555 1_555
C27 C26 1_555 1_555
C28 C27 1_555 1_555
H11 C28 1_555 1_555
C29 C28 1_555 1_555
C30 C25 1_555 1_555
H12 C30 1_555 1_555
C31 C29 1_555 1_555
C32 C27 1_555 1_555
Fe5 O15 1_555 1_555
N3 C23 1_555 1_555
N4 C25 1_555 1_555
O15 Fe6 1_555 1_555
O16 Fe5 1_555 1_555
O17 C17 1_555 1_555
O18 C17 1_555 1_555
O22 C32 1_555 1_555
O23 C32 1_555 1_555
O24 Fe3 1_555 1_555
O25 C31 1_555 1_555
C33 C34 1_555 1_555
C34 C35 1_555 1_555
H14 C38 1_555 1_555
C39 C38 1_555 1_555
C40 C34 1_555 1_555
H15 C40 1_555 1_555
C41 C42 1_555 1_555
C42 H16 1_555 1_555
C43 C42 1_555 1_555
C44 C43 1_555 1_555
H17 C44 1_555 1_555
C45 C44 1_555 1_555
C46 C41 1_555 1_555
H18 C46 1_555 1_555
C47 C45 1_555 1_555
C48 C43 1_555 1_555
Fe8 O27 1_555 1_555
Fe9 O12 1_555 1_555
N5 C39 1_555 1_555
N6 C41 1_555 1_555
O27 Fe9 1_555 1_555
O28 Fe8 1_555 1_555
O29 C33 1_555 1_555
O30 C33 1_555 1_555
O34 C48 1_555 1_555
O35 C48 1_555 1_555
O36 Fe6 1_555 1_555
O37 C47 1_555 1_555
Fe19 O11 1_555 1_555
Fe20 O35 1_555 1_555
Fe21 O23 1_555 1_555
Fe25 O15 1_555 1_555
Fe26 O2 1_555 1_555
Fe27 O13 1_555 1_555
Fe31 O10 1_555 1_555
O68 Fe5 1_555 1_555
O69 Fe2 1_555 1_555
O70 Fe8 1_555 1_555
O74 Fe3 1_555 1_555
O75 Fe9 1_555 1_555
O76 Fe6 1_555 1_555
O77 Fe5 1_555 1_555
O78 Fe8 1_555 1_555
O79 Fe2 1_555 1_555
O80 Fe2 1_555 1_555
O81 Fe8 1_555 1_555
O82 Fe5 1_555 1_555
O86 Fe9 1_555 1_555
O87 Fe6 1_555 1_555
O88 Fe3 1_555 1_555
C7 C8 1_555 1_555
C13 C14 1_555 1_555
Fe2 O4 1_555 1_555
Fe3 O5 1_555 1_555
N1 N2 1_555 1_555
C23 C24 1_555 1_555
C29 C30 1_555 1_555
C31 O24 1_555 1_555
Fe5 O17 1_555 1_555
Fe6 O18 1_555 1_555
N3 N4 1_555 1_555
O25 Fe26 1_555 1_555
C39 C40 1_555 1_555
C45 C46 1_555 1_555
C47 O36 1_555 1_555
Fe8 O29 1_555 1_555
Fe9 O30 1_555 1_555
N5 N6 1_555 1_555
O27 Fe27 1_555 1_555
O37 Fe25 1_555 1_555
C1_2 C2_2 1_555 1_555
C2_2 C3_2 1_555 1_555
C3_2 H1_2 1_555 1_555
C4_2 C3_2 1_555 1_555
C5_2 C4_2 1_555 1_555
C6_2 C4_2 1_555 1_555
H2_2 C6_2 1_555 1_555
C7_2 C6_2 1_555 1_555
C8_2 C2_2 1_555 1_555
H3_2 C8_2 1_555 1_555
C9_2 C10_2 1_555 1_555
C10_2 H4_2 1_555 1_555
C11_2 C10_2 1_555 1_555
C12_2 C11_2 1_555 1_555
H5_2 C12_2 1_555 1_555
C13_2 C12_2 1_555 1_555
C14_2 C9_2 1_555 1_555
H6_2 C14_2 1_555 1_555
C15_2 C13_2 1_555 1_555
C16_2 C11_2 1_555 1_555
Fe1_2 O6_2 1_555 1_555
Fe2_2 O2_2 1_555 1_555
Fe3_2 O1_2 1_555 1_555
N1_2 C7_2 1_555 1_555
N2_2 C9_2 1_555 1_555
O2_2 Fe3_2 1_555 1_555
O3_2 Fe2_2 1_555 1_555
O4_2 C1_2 1_555 1_555
O5_2 C1_2 1_555 1_555
O7_2 Fe1_2 1_555 1_555
O8_2 C5_2 1_555 1_555
O9_2 C5_2 1_555 1_555
O10_2 C16_2 1_555 1_555
O11_2 C16_2 1_555 1_555
O12_2 C15_2 1_555 1_555
O13_2 C15_2 1_555 1_555
C17_2 C18_2 1_555 1_555
C18_2 C19_2 1_555 1_555
C19_2 H7_2 1_555 1_555
C20_2 C19_2 1_555 1_555
C21_2 C20_2 1_555 1_555
C22_2 C20_2 1_555 1_555
H8_2 C22_2 1_555 1_555
C23_2 C22_2 1_555 1_555
C24_2 C18_2 1_555 1_555
H9_2 C24_2 1_555 1_555
C25_2 C26_2 1_555 1_555
C26_2 H10_2 1_555 1_555
C27_2 C26_2 1_555 1_555
C28_2 C27_2 1_555 1_555
H11_2 C28_2 1_555 1_555
C29_2 C28_2 1_555 1_555
C30_2 C25_2 1_555 1_555
H12_2 C30_2 1_555 1_555
C31_2 C29_2 1_555 1_555
C32_2 C27_2 1_555 1_555
Fe4_2 O7_2 1_555 1_555
Fe5_2 O15_2 1_555 1_555
Fe6_2 O14_2 1_555 1_555
N3_2 C23_2 1_555 1_555
N4_2 C25_2 1_555 1_555
O15_2 Fe6_2 1_555 1_555
O16_2 Fe5_2 1_555 1_555
O17_2 C17_2 1_555 1_555
O18_2 C17_2 1_555 1_555
O19_2 Fe4_2 1_555 1_555
O20_2 C21_2 1_555 1_555
O21_2 Fe1_2 1_555 1_555
O22_2 C32_2 1_555 1_555
O23_2 C32_2 1_555 1_555
O24_2 Fe3_2 1_555 1_555
O25_2 C31_2 1_555 1_555
C33_2 C34_2 1_555 1_555
C34_2 C35_2 1_555 1_555
C35_2 H13_2 1_555 1_555
C36_2 C35_2 1_555 1_555
C37_2 C36_2 1_555 1_555
C38_2 C36_2 1_555 1_555
H14_2 C38_2 1_555 1_555
C39_2 C38_2 1_555 1_555
C40_2 C34_2 1_555 1_555
H15_2 C40_2 1_555 1_555
C41_2 C42_2 1_555 1_555
C42_2 H16_2 1_555 1_555
C43_2 C42_2 1_555 1_555
C44_2 C43_2 1_555 1_555
H17_2 C44_2 1_555 1_555
C45_2 C44_2 1_555 1_555
C46_2 C41_2 1_555 1_555
H18_2 C46_2 1_555 1_555
C47_2 C45_2 1_555 1_555
C48_2 C43_2 1_555 1_555
Fe7_2 O7_2 1_555 1_555
Fe8_2 O27_2 1_555 1_555
Fe9_2 O12_2 1_555 1_555
N5_2 C39_2 1_555 1_555
N6_2 C41_2 1_555 1_555
O26_2 Fe9_2 1_555 1_555
O27_2 Fe9_2 1_555 1_555
O28_2 Fe8_2 1_555 1_555
O29_2 C33_2 1_555 1_555
O30_2 C33_2 1_555 1_555
O31_2 Fe7_2 1_555 1_555
O32_2 C37_2 1_555 1_555
O33_2 Fe4_2 1_555 1_555
O34_2 C48_2 1_555 1_555
O35_2 C48_2 1_555 1_555
O36_2 Fe6_2 1_555 1_555
O37_2 C47_2 1_555 1_555
C49_2 C50_2 1_555 1_555
C50_2 C51_2 1_555 1_555
C51_2 H19_2 1_555 1_555
C52_2 C51_2 1_555 1_555
C53_2 C52_2 1_555 1_555
C54_2 C52_2 1_555 1_555
H20_2 C54_2 1_555 1_555
C55_2 C54_2 1_555 1_555
C56_2 C50_2 1_555 1_555
H21_2 C56_2 1_555 1_555
C57_2 C58_2 1_555 1_555
C58_2 H22_2 1_555 1_555
C59_2 C58_2 1_555 1_555
C60_2 C59_2 1_555 1_555
H23_2 C60_2 1_555 1_555
C61_2 C60_2 1_555 1_555
C62_2 C57_2 1_555 1_555
H24_2 C62_2 1_555 1_555
C63_2 C61_2 1_555 1_555
C64_2 C59_2 1_555 1_555
Fe22 O38_2 1_555 1_555
N7_2 C55_2 1_555 1_555
N8_2 C57_2 1_555 1_555
O39_2 C49_2 1_555 1_555
O40_2 C49_2 1_555 1_555
O41_2 Fe7_2 1_555 1_555
O42_2 Fe1_2 1_555 1_555
O43_2 C64_2 1_555 1_555
O44_2 C64_2 1_555 1_555
O45_2 C63_2 1_555 1_555
O83 C63_2 1_555 1_555
C65_2 C66_2 1_555 1_555
C66_2 C67_2 1_555 1_555
C67_2 H25_2 1_555 1_555
C68_2 C67_2 1_555 1_555
C69_2 C68_2 1_555 1_555
C70_2 C68_2 1_555 1_555
H26_2 C70_2 1_555 1_555
C71_2 C70_2 1_555 1_555
C72_2 C66_2 1_555 1_555
H27_2 C72_2 1_555 1_555
C73_2 C74_2 1_555 1_555
C74_2 H28_2 1_555 1_555
C75_2 C74_2 1_555 1_555
C76_2 C75_2 1_555 1_555
H29_2 C76_2 1_555 1_555
C77_2 C76_2 1_555 1_555
C78_2 C73_2 1_555 1_555
H30_2 C78_2 1_555 1_555
C79_2 C77_2 1_555 1_555
C80_2 C75_2 1_555 1_555
Fe23 O47_2 1_555 1_555
N9_2 C71_2 1_555 1_555
N10_2 C73_2 1_555 1_555
O48_2 C65_2 1_555 1_555
O49_2 C65_2 1_555 1_555
O50_2 Fe4_2 1_555 1_555
O51_2 Fe7_2 1_555 1_555
O52_2 C80_2 1_555 1_555
O53_2 C80_2 1_555 1_555
O54_2 Fe22 1_555 1_555
O84 C79_2 1_555 1_555
C81_2 C82_2 1_555 1_555
C82_2 C83_2 1_555 1_555
C83_2 H31_2 1_555 1_555
C84_2 C83_2 1_555 1_555
C85_2 C84_2 1_555 1_555
C86_2 C84_2 1_555 1_555
H32_2 C86_2 1_555 1_555
C87_2 C86_2 1_555 1_555
C88_2 C82_2 1_555 1_555
H33_2 C88_2 1_555 1_555
C89_2 C90_2 1_555 1_555
C90_2 H34_2 1_555 1_555
C91_2 C90_2 1_555 1_555
C92_2 C91_2 1_555 1_555
H35_2 C92_2 1_555 1_555
C93_2 C92_2 1_555 1_555
C94_2 C89_2 1_555 1_555
H36_2 C94_2 1_555 1_555
C95_2 C93_2 1_555 1_555
C96_2 C91_2 1_555 1_555
Fe24 O45_2 1_555 1_555
N11_2 C87_2 1_555 1_555
N12_2 C89_2 1_555 1_555
O56_2 Fe24 1_555 1_555
O57_2 C81_2 1_555 1_555
O58_2 C81_2 1_555 1_555
O59_2 Fe1_2 1_555 1_555
O60_2 Fe4_2 1_555 1_555
O61_2 C96_2 1_555 1_555
O62_2 C96_2 1_555 1_555
O63_2 Fe23 1_555 1_555
O85 C95_2 1_555 1_555
Fe14 O48_2 1_555 1_555
Fe14_2 O39_2 1_555 1_555
Fe15_2 O57_2 1_555 1_555
Fe16_2 O62_2 1_555 1_555
Fe17_2 O44_2 1_555 1_555
Fe18_2 O53_2 1_555 1_555
Fe19_2 O11_2 1_555 1_555
Fe19 O35_2 1_555 1_555
Fe21_2 O23_2 1_555 1_555
Fe25_2 O15_2 1_555 1_555
Fe26_2 O2_2 1_555 1_555
Fe27_2 O13_2 1_555 1_555
Fe28_2 O43_2 1_555 1_555
Fe29_2 O61_2 1_555 1_555
Fe30_2 O52_2 1_555 1_555
Fe32_2 O34_2 1_555 1_555
O66_2 Fe22 1_555 1_555
O67_2 Fe24 1_555 1_555
O68_2 Fe5_2 1_555 1_555
O69_2 Fe2_2 1_555 1_555
O70_2 Fe8_2 1_555 1_555
O73_2 Fe23 1_555 1_555
O74_2 Fe3_2 1_555 1_555
O75_2 Fe9_2 1_555 1_555
O76_2 Fe6_2 1_555 1_555
O77_2 Fe5_2 1_555 1_555
O78_2 Fe8_2 1_555 1_555
O79_2 Fe2_2 1_555 1_555
O80_2 Fe2_2 1_555 1_555
O81_2 Fe8_2 1_555 1_555
O82_2 Fe5_2 1_555 1_555
O86_2 Fe9_2 1_555 1_555
O87_2 Fe6_2 1_555 1_555
O88_2 Fe3_2 1_555 1_555
C7_2 C8_2 1_555 1_555
C13_2 C14_2 1_555 1_555
Fe1_2 O8_2 1_555 1_555
Fe2_2 O4_2 1_555 1_555
Fe3_2 O5_2 1_555 1_555
N1_2 N2_2 1_555 1_555
O9_2 Fe7_2 1_555 1_555
C21_2 O21_2 1_555 1_555
C23_2 C24_2 1_555 1_555
C29_2 C30_2 1_555 1_555
C31_2 O24_2 1_555 1_555
Fe4_2 O20_2 1_555 1_555
Fe5_2 O17_2 1_555 1_555
Fe6_2 O18_2 1_555 1_555
N3_2 N4_2 1_555 1_555
O25_2 Fe26_2 1_555 1_555
C37_2 O33_2 1_555 1_555
C39_2 C40_2 1_555 1_555
C45_2 C46_2 1_555 1_555
C47_2 O36_2 1_555 1_555
Fe7_2 O32_2 1_555 1_555
Fe8_2 O29_2 1_555 1_555
Fe9_2 O30_2 1_555 1_555
N5_2 N6_2 1_555 1_555
O27_2 Fe27_2 1_555 1_555
O37_2 Fe25_2 1_555 1_555
C53_2 O41_2 1_555 1_555
C53_2 O42_2 1_555 1_555
C55_2 C56_2 1_555 1_555
C61_2 C62_2 1_555 1_555
Fe22 O40_2 1_555 1_555
N7_2 N8_2 1_555 1_555
C69_2 O50_2 1_555 1_555
C69_2 O51_2 1_555 1_555
C71_2 C72_2 1_555 1_555
C77_2 C78_2 1_555 1_555
C79_2 O54_2 1_555 1_555
Fe23 O49_2 1_555 1_555
N9_2 N10_2 1_555 1_555
C85_2 O59_2 1_555 1_555
C85_2 O60_2 1_555 1_555
C87_2 C88_2 1_555 1_555
C93_2 C94_2 1_555 1_555
C95_2 O63_2 1_555 1_555
Fe24 O58_2 1_555 1_555
N11_2 N12_2 1_555 1_555
Fe14_2 O66_2 1_555 1_555
Fe15_2 O67_2 1_555 1_555
O28_3 Fe15 1_555 1_555
O81_3 Fe15 1_555 1_555
O28_3 H38 1_555 1_555
O16_3 Fe14 1_555 1_555
O77_3 Fe14 1_555 1_555
O82_3 Fe14 1_555 1_555
O3_3 Fe13 1_555 1_555
O80_3 Fe13 1_555 1_555
O3_3 H58 1_555 1_555
O22_3 C32_3 1_555 1_555
O23_3 C32_3 1_555 1_555
Fe18_2 O23_3 1_555 1_555
Fe33_3 O22_3 1_555 1_555
Fe1_3 O6_3 1_555 1_555
O7_3 Fe1_3 1_555 1_555
C17_3 C18_3 1_555 1_555
C18_3 C19_3 1_555 1_555
C19_3 H7_3 1_555 1_555
C20_3 C19_3 1_555 1_555
C21_3 C20_3 1_555 1_555
C22_3 C20_3 1_555 1_555
H8_3 C22_3 1_555 1_555
C23_3 C22_3 1_555 1_555
C24_3 C18_3 1_555 1_555
H9_3 C24_3 1_555 1_555
C25_3 C26_3 1_555 1_555
C26_3 H10_3 1_555 1_555
C27_3 C26_3 1_555 1_555
C28_3 C27_3 1_555 1_555
H11_3 C28_3 1_555 1_555
C30_3 C25_3 1_555 1_555
Fe4_3 O7_3 1_555 1_555
Fe26 O14_3 1_555 1_555
N3_3 C23_3 1_555 1_555
N4_3 C25_3 1_555 1_555
O69 C17_3 1_555 1_555
O18_3 C17_3 1_555 1_555
O19_3 Fe4_3 1_555 1_555
O20_3 C21_3 1_555 1_555
O21_3 Fe1_3 1_555 1_555
C47_3 C45_3 1_555 1_555
O36_3 Fe26 1_555 1_555
O88 C47_3 1_555 1_555
C63_3 C61_3 1_555 1_555
O45_3 C63_3 1_555 1_555
O86_2 C63_3 1_555 1_555
C81_3 C82_3 1_555 1_555
C82_3 C83_3 1_555 1_555
C83_3 H31_3 1_555 1_555
C84_3 C83_3 1_555 1_555
C85_3 C84_3 1_555 1_555
C86_3 C84_3 1_555 1_555
H32_3 C86_3 1_555 1_555
C87_3 C86_3 1_555 1_555
C88_3 C82_3 1_555 1_555
H33_3 C88_3 1_555 1_555
C89_3 C90_3 1_555 1_555
C90_3 H34_3 1_555 1_555
C91_3 C90_3 1_555 1_555
C92_3 C91_3 1_555 1_555
H35_3 C92_3 1_555 1_555
C94_3 C89_3 1_555 1_555
C96_3 C91_3 1_555 1_555
Fe27_2 O45_3 1_555 1_555
N11_3 C87_3 1_555 1_555
N12_3 C89_3 1_555 1_555
O56_3 Fe27_2 1_555 1_555
O70_2 C81_3 1_555 1_555
O58_3 C81_3 1_555 1_555
O59_3 Fe1_3 1_555 1_555
O60_3 Fe4_3 1_555 1_555
O61_3 C96_3 1_555 1_555
O62_3 C96_3 1_555 1_555
Fe17 O62_3 1_555 1_555
Fe29_3 O61_3 1_555 1_555
O72_3 Fe27_2 1_555 1_555
O76_3 Fe26 1_555 1_555
C21_3 O21_3 1_555 1_555
C23_3 C24_3 1_555 1_555
Fe4_3 O20_3 1_555 1_555
Fe26 O18_3 1_555 1_555
N3_3 N4_3 1_555 1_555
C47_3 O36_3 1_555 1_555
C85_3 O59_3 1_555 1_555
C85_3 O60_3 1_555 1_555
C87_3 C88_3 1_555 1_555
Fe27_2 O58_3 1_555 1_555
N11_3 N12_3 1_555 1_555
O34_3 C48_3 1_555 1_555
O35_3 C48_3 1_555 1_555
Fe17_2 O35_3 1_555 1_555
Fe32_3 O34_3 1_555 1_555
O19_4 Fe4_4 1_555 1_555
H14_3 C38_3 1_555 1_555
C39_3 C38_3 1_555 1_555
H15_3 C40_3 1_555 1_555
C41_3 C42_3 1_555 1_555
C42_3 H16_3 1_555 1_555
C43_3 C42_3 1_555 1_555
C44_3 C43_3 1_555 1_555
H17_3 C44_3 1_555 1_555
C46_3 C41_3 1_555 1_555
N5_3 C39_3 1_555 1_555
N6_3 C41_3 1_555 1_555
O33_3 Fe4_4 1_555 1_555
C65_3 C66_3 1_555 1_555
C66_3 C67_3 1_555 1_555
C67_3 H25_3 1_555 1_555
C68_3 C67_3 1_555 1_555
C69_3 C68_3 1_555 1_555
Fe26_2 O47_3 1_555 1_555
O69_2 C65_3 1_555 1_555
O49_3 C65_3 1_555 1_555
O50_3 Fe4_4 1_555 1_555
C95_3 C93_3 1_555 1_555
O63_3 Fe26_2 1_555 1_555
O88_2 C95_3 1_555 1_555
O73_3 Fe26_2 1_555 1_555
C39_3 C40_3 1_555 1_555
N5_3 N6_3 1_555 1_555
C69_3 O50_3 1_555 1_555
Fe26_2 O49_3 1_555 1_555
C95_3 O63_3 1_555 1_555
C1_3 C2_3 1_555 1_555
C2_3 C3_3 1_555 1_555
C3_3 H1_3 1_555 1_555
C4_3 C3_3 1_555 1_555
C5_3 C4_3 1_555 1_555
Fe1_4 O6_4 1_555 1_555
Fe25 O1_3 1_555 1_555
O68 C1_3 1_555 1_555
O5_3 C1_3 1_555 1_555
O8_3 C5_3 1_555 1_555
C31_3 C29_3 1_555 1_555
O24_3 Fe25 1_555 1_555
O87 C31_3 1_555 1_555
H20_3 C54_3 1_555 1_555
C55_3 C54_3 1_555 1_555
H21_3 C56_3 1_555 1_555
C57_3 C58_3 1_555 1_555
C58_3 H22_3 1_555 1_555
C59_3 C58_3 1_555 1_555
C60_3 C59_3 1_555 1_555
H23_3 C60_3 1_555 1_555
C62_3 C57_3 1_555 1_555
C64_3 C59_3 1_555 1_555
N7_3 C55_3 1_555 1_555
N8_3 C57_3 1_555 1_555
O42_3 Fe1_4 1_555 1_555
O43_3 C64_3 1_555 1_555
O44_3 C64_3 1_555 1_555
Fe16 O44_3 1_555 1_555
Fe28_3 O43_3 1_555 1_555
O74_3 Fe25 1_555 1_555
Fe1_4 O8_3 1_555 1_555
Fe25 O5_3 1_555 1_555
C31_3 O24_3 1_555 1_555
C55_3 C56_3 1_555 1_555
N7_3 N8_3 1_555 1_555
O10_3 C16_3 1_555 1_555
O11_3 C16_3 1_555 1_555
Fe16_2 O11_3 1_555 1_555
Fe31_3 O10_3 1_555 1_555
H2_3 C6_3 1_555 1_555
C7_3 C6_3 1_555 1_555
H3_3 C8_3 1_555 1_555
C9_3 C10_3 1_555 1_555
C10_3 H4_3 1_555 1_555
C11_3 C10_3 1_555 1_555
C12_3 C11_3 1_555 1_555
H5_3 C12_3 1_555 1_555
C13_3 C12_3 1_555 1_555
C14_3 C9_3 1_555 1_555
H6_3 C14_3 1_555 1_555
C15_3 C13_3 1_555 1_555
N1_3 C7_3 1_555 1_555
N2_3 C9_3 1_555 1_555
O12_3 C15_3 1_555 1_555
O86 C15_3 1_555 1_555
C33_3 C34_3 1_555 1_555
C34_3 C35_3 1_555 1_555
C35_3 H13_3 1_555 1_555
C36_3 C35_3 1_555 1_555
C37_3 C36_3 1_555 1_555
Fe27 O12_3 1_555 1_555
O26_3 Fe27 1_555 1_555
O70 C33_3 1_555 1_555
O30_3 C33_3 1_555 1_555
O31_3 Fe7_3 1_555 1_555
O32_3 C37_3 1_555 1_555
C49_3 C50_3 1_555 1_555
C50_3 C51_3 1_555 1_555
C51_3 H19_3 1_555 1_555
C52_3 C51_3 1_555 1_555
C53_3 C52_3 1_555 1_555
Fe25_2 O38_3 1_555 1_555
O68_2 C49_3 1_555 1_555
O40_3 C49_3 1_555 1_555
O41_3 Fe7_3 1_555 1_555
H26_3 C70_3 1_555 1_555
C71_3 C70_3 1_555 1_555
H27_3 C72_3 1_555 1_555
C73_3 C74_3 1_555 1_555
C74_3 H28_3 1_555 1_555
C75_3 C74_3 1_555 1_555
C76_3 C75_3 1_555 1_555
H29_3 C76_3 1_555 1_555
C77_3 C76_3 1_555 1_555
C78_3 C73_3 1_555 1_555
H30_3 C78_3 1_555 1_555
C79_3 C77_3 1_555 1_555
C80_3 C75_3 1_555 1_555
N9_3 C71_3 1_555 1_555
N10_3 C73_3 1_555 1_555
O51_3 Fe7_3 1_555 1_555
O52_3 C80_3 1_555 1_555
O53_3 C80_3 1_555 1_555
O54_3 Fe25_2 1_555 1_555
O87_2 C79_3 1_555 1_555
Fe18 O53_3 1_555 1_555
Fe30_3 O52_3 1_555 1_555
O71_3 Fe25_2 1_555 1_555
O75_3 Fe27 1_555 1_555
C7_3 C8_3 1_555 1_555
C13_3 C14_3 1_555 1_555
N1_3 N2_3 1_555 1_555
O9_3 Fe7_3 1_555 1_555
Fe7_3 O32_3 1_555 1_555
Fe27 O30_3 1_555 1_555
C53_3 O41_3 1_555 1_555
Fe25_2 O40_3 1_555 1_555
C71_3 C72_3 1_555 1_555
C77_3 C78_3 1_555 1_555
C79_3 O54_3 1_555 1_555
N9_3 N10_3 1_555 1_555
Fe7_3 O7_4 1_555 1_555
Fe1_4 O7_5 1_555 1_555
Fe4_4 O7_6 1_555 1_555
O16_4 Fe14_2 1_555 1_555
O79_3 Fe14_2 1_555 1_555
O16_4 H48 1_555 1_555
O28_4 Fe15_2 1_555 1_555
O78_3 Fe15_2 1_555 1_555
O28_4 H38_2 1_555 1_555
C1_4 C2_4 1_555 1_555
C2_4 C3_4 1_555 1_555
H2_4 C6_4 1_555 1_555
C7_4 C6_4 1_555 1_555
C8_4 C2_4 1_555 1_555
H3_4 C8_4 1_555 1_555
C9_4 C10_4 1_555 1_555
C10_4 H4_4 1_555 1_555
C11_4 C10_4 1_555 1_555
C12_4 C11_4 1_555 1_555
H5_4 C12_4 1_555 1_555
C13_4 C12_4 1_555 1_555
C14_4 C9_4 1_555 1_555
H6_4 C14_4 1_555 1_555
C15_4 C13_4 1_555 1_555
C16_4 C11_4 1_555 1_555
Fe16_2 O2_3 1_555 1_555
N1_4 C7_4 1_555 1_555
N2_4 C9_4 1_555 1_555
O2_3 Fe31_3 1_555 1_555
O3_4 Fe16_2 1_555 1_555
O4_3 C1_4 1_555 1_555
O5_4 C1_4 1_555 1_555
O71 C16_4 1_555 1_555
O77_3 C16_4 1_555 1_555
O12_4 C15_4 1_555 1_555
O13_3 C15_4 1_555 1_555
C17_4 C18_4 1_555 1_555
C18_4 C19_4 1_555 1_555
H8_4 C22_4 1_555 1_555
C23_4 C22_4 1_555 1_555
C24_4 C18_4 1_555 1_555
H9_4 C24_4 1_555 1_555
C25_4 C26_4 1_555 1_555
C26_4 H10_4 1_555 1_555
C27_4 C26_4 1_555 1_555
C28_4 C27_4 1_555 1_555
H11_4 C28_4 1_555 1_555
C29_4 C28_4 1_555 1_555
C30_4 C25_4 1_555 1_555
H12_4 C30_4 1_555 1_555
C31_4 C29_4 1_555 1_555
C32_4 C27_4 1_555 1_555
Fe17_2 O15_3 1_555 1_555
N3_4 C23_4 1_555 1_555
N4_4 C25_4 1_555 1_555
O15_3 Fe32_3 1_555 1_555
O16_5 Fe17_2 1_555 1_555
O17_3 C17_4 1_555 1_555
O18_4 C17_4 1_555 1_555
O72 C32_4 1_555 1_555
O78_3 C32_4 1_555 1_555
O24_4 Fe31_3 1_555 1_555
O25_3 C31_4 1_555 1_555
C33_4 C34_4 1_555 1_555
C34_4 C35_4 1_555 1_555
H14_4 C38_4 1_555 1_555
C39_4 C38_4 1_555 1_555
C40_4 C34_4 1_555 1_555
H15_4 C40_4 1_555 1_555
C41_4 C42_4 1_555 1_555
C42_4 H16_4 1_555 1_555
C43_4 C42_4 1_555 1_555
C44_4 C43_4 1_555 1_555
H17_4 C44_4 1_555 1_555
C45_4 C44_4 1_555 1_555
C46_4 C41_4 1_555 1_555
H18_4 C46_4 1_555 1_555
C47_4 C45_4 1_555 1_555
C48_4 C43_4 1_555 1_555
Fe18_2 O27_3 1_555 1_555
Fe33_3 O12_4 1_555 1_555
N5_4 C39_4 1_555 1_555
N6_4 C41_4 1_555 1_555
O27_3 Fe33_3 1_555 1_555
O28_5 Fe18_2 1_555 1_555
O29_3 C33_4 1_555 1_555
O30_4 C33_4 1_555 1_555
O73 C48_4 1_555 1_555
O79_3 C48_4 1_555 1_555
O36_4 Fe32_3 1_555 1_555
O37_3 C47_4 1_555 1_555
Fe28_2 O15_3 1_555 1_555
Fe29_2 O2_3 1_555 1_555
Fe30_2 O13_3 1_555 1_555
O68_3 Fe17_2 1_555 1_555
O69_3 Fe16_2 1_555 1_555
O70_3 Fe18_2 1_555 1_555
O86_3 Fe33_3 1_555 1_555
O87_3 Fe32_3 1_555 1_555
O88_3 Fe31_3 1_555 1_555
C7_4 C8_4 1_555 1_555
C13_4 C14_4 1_555 1_555
Fe16_2 O4_3 1_555 1_555
Fe31_3 O5_4 1_555 1_555
N1_4 N2_4 1_555 1_555
C23_4 C24_4 1_555 1_555
C29_4 C30_4 1_555 1_555
C31_4 O24_4 1_555 1_555
Fe17_2 O17_3 1_555 1_555
Fe32_3 O18_4 1_555 1_555
N3_4 N4_4 1_555 1_555
O25_3 Fe29_2 1_555 1_555
C39_4 C40_4 1_555 1_555
C45_4 C46_4 1_555 1_555
C47_4 O36_4 1_555 1_555
Fe18_2 O29_3 1_555 1_555
Fe33_3 O30_4 1_555 1_555
N5_4 N6_4 1_555 1_555
O27_3 Fe30_2 1_555 1_555
O37_3 Fe28_2 1_555 1_555
C5_4 C4_4 1_555 1_555
Fe1_5 O6_5 1_555 1_555
O7_7 Fe1_5 1_555 1_555
O8_4 C5_4 1_555 1_555
O9_4 C5_4 1_555 1_555
C21_4 C20_4 1_555 1_555
Fe4_5 O7_7 1_555 1_555
O19_5 Fe4_5 1_555 1_555
O20_4 C21_4 1_555 1_555
O21_4 Fe1_5 1_555 1_555
C37_4 C36_4 1_555 1_555
Fe7_4 O7_7 1_555 1_555
O31_4 Fe7_4 1_555 1_555
O32_4 C37_4 1_555 1_555
O33_4 Fe4_5 1_555 1_555
C49_4 C50_4 1_555 1_555
C50_4 C51_4 1_555 1_555
C51_4 H19_4 1_555 1_555
C52_4 C51_4 1_555 1_555
C53_4 C52_4 1_555 1_555
C54_4 C52_4 1_555 1_555
H20_4 C54_4 1_555 1_555
C55_4 C54_4 1_555 1_555
C56_4 C50_4 1_555 1_555
H21_4 C56_4 1_555 1_555
C57_4 C58_4 1_555 1_555
C58_4 H22_4 1_555 1_555
C59_4 C58_4 1_555 1_555
C60_4 C59_4 1_555 1_555
H23_4 C60_4 1_555 1_555
C61_4 C60_4 1_555 1_555
C62_4 C57_4 1_555 1_555
H24_4 C62_4 1_555 1_555
C63_4 C61_4 1_555 1_555
C64_4 C59_4 1_555 1_555
Fe31 O38_4 1_555 1_555
N7_4 C55_4 1_555 1_555
N8_4 C57_4 1_555 1_555
O39_3 C49_4 1_555 1_555
O40_4 C49_4 1_555 1_555
O41_4 Fe7_4 1_555 1_555
O42_4 Fe1_5 1_555 1_555
O71_3 C64_4 1_555 1_555
O77_2 C64_4 1_555 1_555
O45_4 C63_4 1_555 1_555
O46_2 C63_4 1_555 1_555
C65_4 C66_4 1_555 1_555
C66_4 C67_4 1_555 1_555
C67_4 H25_4 1_555 1_555
C68_4 C67_4 1_555 1_555
C69_4 C68_4 1_555 1_555
C70_4 C68_4 1_555 1_555
H26_4 C70_4 1_555 1_555
C71_4 C70_4 1_555 1_555
C72_4 C66_4 1_555 1_555
H27_4 C72_4 1_555 1_555
C73_4 C74_4 1_555 1_555
C74_4 H28_4 1_555 1_555
C75_4 C74_4 1_555 1_555
C76_4 C75_4 1_555 1_555
H29_4 C76_4 1_555 1_555
C77_4 C76_4 1_555 1_555
C78_4 C73_4 1_555 1_555
H30_4 C78_4 1_555 1_555
C79_4 C77_4 1_555 1_555
C80_4 C75_4 1_555 1_555
Fe32 O47_4 1_555 1_555
N9_4 C71_4 1_555 1_555
N10_4 C73_4 1_555 1_555
O48_3 C65_4 1_555 1_555
O49_4 C65_4 1_555 1_555
O50_4 Fe4_5 1_555 1_555
O51_4 Fe7_4 1_555 1_555
O72_3 C80_4 1_555 1_555
O78_2 C80_4 1_555 1_555
O54_4 Fe31 1_555 1_555
O55_2 C79_4 1_555 1_555
C81_4 C82_4 1_555 1_555
C82_4 C83_4 1_555 1_555
C83_4 H31_4 1_555 1_555
C84_4 C83_4 1_555 1_555
C85_4 C84_4 1_555 1_555
C86_4 C84_4 1_555 1_555
H32_4 C86_4 1_555 1_555
C87_4 C86_4 1_555 1_555
C88_4 C82_4 1_555 1_555
H33_4 C88_4 1_555 1_555
C89_4 C90_4 1_555 1_555
C90_4 H34_4 1_555 1_555
C91_4 C90_4 1_555 1_555
C92_4 C91_4 1_555 1_555
H35_4 C92_4 1_555 1_555
C93_4 C92_4 1_555 1_555
C94_4 C89_4 1_555 1_555
H36_4 C94_4 1_555 1_555
C95_4 C93_4 1_555 1_555
C96_4 C91_4 1_555 1_555
Fe33 O45_4 1_555 1_555
N11_4 C87_4 1_555 1_555
N12_4 C89_4 1_555 1_555
O56_4 Fe33 1_555 1_555
O57_3 C81_4 1_555 1_555
O58_4 C81_4 1_555 1_555
O59_4 Fe1_5 1_555 1_555
O60_4 Fe4_5 1_555 1_555
O73_3 C96_4 1_555 1_555
O79_2 C96_4 1_555 1_555
O63_4 Fe32 1_555 1_555
O64_2 C95_4 1_555 1_555
Fe19_2 O48_3 1_555 1_555
Fe19 O39_3 1_555 1_555
Fe21_2 O57_3 1_555 1_555
Fe32_2 O55_2 1_555 1_555
O65_2 Fe32 1_555 1_555
O66_3 Fe31 1_555 1_555
O67_3 Fe33 1_555 1_555
O85_2 Fe31 1_555 1_555
Fe1_5 O8_4 1_555 1_555
O9_4 Fe7_4 1_555 1_555
C21_4 O21_4 1_555 1_555
Fe4_5 O20_4 1_555 1_555
C37_4 O33_4 1_555 1_555
Fe7_4 O32_4 1_555 1_555
C53_4 O41_4 1_555 1_555
C53_4 O42_4 1_555 1_555
C55_4 C56_4 1_555 1_555
C61_4 C62_4 1_555 1_555
Fe31 O40_4 1_555 1_555
N7_4 N8_4 1_555 1_555
C69_4 O50_4 1_555 1_555
C69_4 O51_4 1_555 1_555
C71_4 C72_4 1_555 1_555
C77_4 C78_4 1_555 1_555
C79_4 O54_4 1_555 1_555
Fe32 O49_4 1_555 1_555
N9_4 N10_4 1_555 1_555
C85_4 O59_4 1_555 1_555
C85_4 O60_4 1_555 1_555
C87_4 C88_4 1_555 1_555
C93_4 C94_4 1_555 1_555
C95_4 O63_4 1_555 1_555
Fe33 O58_4 1_555 1_555
N11_4 N12_4 1_555 1_555
Fe19_2 O65_2 1_555 1_555
Fe19 O66_3 1_555 1_555
Fe21_2 O67_3 1_555 1_555
Fe32_2 O66_3 1_555 1_555
C1_5 C2_5 1_555 1_555
C2_5 C3_5 1_555 1_555
C3_5 H1_5 1_555 1_555
C4_5 C3_5 1_555 1_555
C5_5 C4_5 1_555 1_555
C6_5 C4_5 1_555 1_555
H2_5 C6_5 1_555 1_555
C7_5 C6_5 1_555 1_555
C8_5 C2_5 1_555 1_555
H3_5 C8_5 1_555 1_555
C9_5 C10_5 1_555 1_555
C10_5 H4_5 1_555 1_555
C11_5 C10_5 1_555 1_555
C12_5 C11_5 1_555 1_555
H5_5 C12_5 1_555 1_555
C13_5 C12_5 1_555 1_555
C14_5 C9_5 1_555 1_555
H6_5 C14_5 1_555 1_555
C15_5 C13_5 1_555 1_555
C16_5 C11_5 1_555 1_555
Fe1_6 O6_6 1_555 1_555
Fe16 O2_4 1_555 1_555
Fe28_3 O1_5 1_555 1_555
N1_5 C7_5 1_555 1_555
N2_5 C9_5 1_555 1_555
O2_4 Fe28_3 1_555 1_555
O3_5 Fe16 1_555 1_555
O4_4 C1_5 1_555 1_555
O5_5 C1_5 1_555 1_555
O7_8 Fe1_6 1_555 1_555
O8_5 C5_5 1_555 1_555
O9_5 C5_5 1_555 1_555
O71_2 C16_5 1_555 1_555
O80_3 C16_5 1_555 1_555
O12_5 C15_5 1_555 1_555
O13_4 C15_5 1_555 1_555
C17_5 C18_5 1_555 1_555
C18_5 C19_5 1_555 1_555
C19_5 H7_5 1_555 1_555
C20_5 C19_5 1_555 1_555
C21_5 C20_5 1_555 1_555
C22_5 C20_5 1_555 1_555
H8_5 C22_5 1_555 1_555
C23_5 C22_5 1_555 1_555
C24_5 C18_5 1_555 1_555
H9_5 C24_5 1_555 1_555
C25_5 C26_5 1_555 1_555
C26_5 H10_5 1_555 1_555
C27_5 C26_5 1_555 1_555
C28_5 C27_5 1_555 1_555
H11_5 C28_5 1_555 1_555
C29_5 C28_5 1_555 1_555
C30_5 C25_5 1_555 1_555
H12_5 C30_5 1_555 1_555
C31_5 C29_5 1_555 1_555
C32_5 C27_5 1_555 1_555
Fe4_6 O7_8 1_555 1_555
Fe17 O15_4 1_555 1_555
Fe29_3 O14_5 1_555 1_555
N3_5 C23_5 1_555 1_555
N4_5 C25_5 1_555 1_555
O15_4 Fe29_3 1_555 1_555
O16_6 Fe17 1_555 1_555
O17_4 C17_5 1_555 1_555
O18_5 C17_5 1_555 1_555
O19_6 Fe4_6 1_555 1_555
O20_5 C21_5 1_555 1_555
O21_5 Fe1_6 1_555 1_555
O72_2 C32_5 1_555 1_555
O81_3 C32_5 1_555 1_555
O24_5 Fe28_3 1_555 1_555
O25_4 C31_5 1_555 1_555
C33_5 C34_5 1_555 1_555
C34_5 C35_5 1_555 1_555
C35_5 H13_5 1_555 1_555
C36_5 C35_5 1_555 1_555
C37_5 C36_5 1_555 1_555
C38_5 C36_5 1_555 1_555
H14_5 C38_5 1_555 1_555
C39_5 C38_5 1_555 1_555
C40_5 C34_5 1_555 1_555
H15_5 C40_5 1_555 1_555
C41_5 C42_5 1_555 1_555
C42_5 H16_5 1_555 1_555
C43_5 C42_5 1_555 1_555
C44_5 C43_5 1_555 1_555
H17_5 C44_5 1_555 1_555
C45_5 C44_5 1_555 1_555
C46_5 C41_5 1_555 1_555
H18_5 C46_5 1_555 1_555
C47_5 C45_5 1_555 1_555
C48_5 C43_5 1_555 1_555
Fe7_5 O7_8 1_555 1_555
Fe18 O27_4 1_555 1_555
Fe30_3 O12_5 1_555 1_555
N5_5 C39_5 1_555 1_555
N6_5 C41_5 1_555 1_555
O26_5 Fe30_3 1_555 1_555
O27_4 Fe30_3 1_555 1_555
O28_6 Fe18 1_555 1_555
O29_4 C33_5 1_555 1_555
O30_5 C33_5 1_555 1_555
O31_5 Fe7_5 1_555 1_555
O32_5 C37_5 1_555 1_555
O33_5 Fe4_6 1_555 1_555
O73_2 C48_5 1_555 1_555
O82_3 C48_5 1_555 1_555
O36_5 Fe29_3 1_555 1_555
O37_4 C47_5 1_555 1_555
C49_5 C50_5 1_555 1_555
C50_5 C51_5 1_555 1_555
C51_5 H19_5 1_555 1_555
C52_5 C51_5 1_555 1_555
C53_5 C52_5 1_555 1_555
C54_5 C52_5 1_555 1_555
H20_5 C54_5 1_555 1_555
C55_5 C54_5 1_555 1_555
C56_5 C50_5 1_555 1_555
H21_5 C56_5 1_555 1_555
C57_5 C58_5 1_555 1_555
C58_5 H22_5 1_555 1_555
C59_5 C58_5 1_555 1_555
C60_5 C59_5 1_555 1_555
H23_5 C60_5 1_555 1_555
C61_5 C60_5 1_555 1_555
C62_5 C57_5 1_555 1_555
H24_5 C62_5 1_555 1_555
C63_5 C61_5 1_555 1_555
C64_5 C59_5 1_555 1_555
Fe31_2 O38_5 1_555 1_555
N7_5 C55_5 1_555 1_555
N8_5 C57_5 1_555 1_555
O39_4 C49_5 1_555 1_555
O40_5 C49_5 1_555 1_555
O41_5 Fe7_5 1_555 1_555
O42_5 Fe1_6 1_555 1_555
O74_3 C64_5 1_555 1_555
O77 C64_5 1_555 1_555
O45_5 C63_5 1_555 1_555
O83_2 C63_5 1_555 1_555
C65_5 C66_5 1_555 1_555
C66_5 C67_5 1_555 1_555
C67_5 H25_5 1_555 1_555
C68_5 C67_5 1_555 1_555
C69_5 C68_5 1_555 1_555
C70_5 C68_5 1_555 1_555
H26_5 C70_5 1_555 1_555
C71_5 C70_5 1_555 1_555
C72_5 C66_5 1_555 1_555
H27_5 C72_5 1_555 1_555
C73_5 C74_5 1_555 1_555
C74_5 H28_5 1_555 1_555
C75_5 C74_5 1_555 1_555
C76_5 C75_5 1_555 1_555
H29_5 C76_5 1_555 1_555
C77_5 C76_5 1_555 1_555
C78_5 C73_5 1_555 1_555
H30_5 C78_5 1_555 1_555
C79_5 C77_5 1_555 1_555
C80_5 C75_5 1_555 1_555
Fe32_2 O47_5 1_555 1_555
N9_5 C71_5 1_555 1_555
N10_5 C73_5 1_555 1_555
O48_4 C65_5 1_555 1_555
O49_5 C65_5 1_555 1_555
O50_5 Fe4_6 1_555 1_555
O51_5 Fe7_5 1_555 1_555
O75_3 C80_5 1_555 1_555
O78 C80_5 1_555 1_555
O54_5 Fe31_2 1_555 1_555
O84_2 C79_5 1_555 1_555
C81_5 C82_5 1_555 1_555
C82_5 C83_5 1_555 1_555
C83_5 H31_5 1_555 1_555
C84_5 C83_5 1_555 1_555
C85_5 C84_5 1_555 1_555
C86_5 C84_5 1_555 1_555
H32_5 C86_5 1_555 1_555
C87_5 C86_5 1_555 1_555
C88_5 C82_5 1_555 1_555
H33_5 C88_5 1_555 1_555
C89_5 C90_5 1_555 1_555
C90_5 H34_5 1_555 1_555
C91_5 C90_5 1_555 1_555
C92_5 C91_5 1_555 1_555
H35_5 C92_5 1_555 1_555
C93_5 C92_5 1_555 1_555
C94_5 C89_5 1_555 1_555
H36_5 C94_5 1_555 1_555
C95_5 C93_5 1_555 1_555
C96_5 C91_5 1_555 1_555
Fe33_2 O45_5 1_555 1_555
N11_5 C87_5 1_555 1_555
N12_5 C89_5 1_555 1_555
O56_5 Fe33_2 1_555 1_555
O57_4 C81_5 1_555 1_555
O58_5 C81_5 1_555 1_555
O59_5 Fe1_6 1_555 1_555
O60_5 Fe4_6 1_555 1_555
O76_3 C96_5 1_555 1_555
O79 C96_5 1_555 1_555
O63_5 Fe32_2 1_555 1_555
O85_2 C95_5 1_555 1_555
Fe19 O48_4 1_555 1_555
Fe20 O39_4 1_555 1_555
Fe21 O57_4 1_555 1_555
Fe28 O15_4 1_555 1_555
Fe29 O2_4 1_555 1_555
Fe30 O13_4 1_555 1_555
O66_4 Fe31_2 1_555 1_555
O67_4 Fe33_2 1_555 1_555
O68_4 Fe17 1_555 1_555
O69_4 Fe16 1_555 1_555
O70_4 Fe18 1_555 1_555
O86_4 Fe30_3 1_555 1_555
O87_4 Fe29_3 1_555 1_555
O88_4 Fe28_3 1_555 1_555
C7_5 C8_5 1_555 1_555
C13_5 C14_5 1_555 1_555
Fe1_6 O8_5 1_555 1_555
Fe16 O4_4 1_555 1_555
Fe28_3 O5_5 1_555 1_555
N1_5 N2_5 1_555 1_555
O9_5 Fe7_5 1_555 1_555
C21_5 O21_5 1_555 1_555
C23_5 C24_5 1_555 1_555
C29_5 C30_5 1_555 1_555
C31_5 O24_5 1_555 1_555
Fe4_6 O20_5 1_555 1_555
Fe17 O17_4 1_555 1_555
Fe29_3 O18_5 1_555 1_555
N3_5 N4_5 1_555 1_555
O25_4 Fe29 1_555 1_555
C37_5 O33_5 1_555 1_555
C39_5 C40_5 1_555 1_555
C45_5 C46_5 1_555 1_555
C47_5 O36_5 1_555 1_555
Fe7_5 O32_5 1_555 1_555
Fe18 O29_4 1_555 1_555
Fe30_3 O30_5 1_555 1_555
N5_5 N6_5 1_555 1_555
O27_4 Fe30 1_555 1_555
O37_4 Fe28 1_555 1_555
C53_5 O41_5 1_555 1_555
C53_5 O42_5 1_555 1_555
C55_5 C56_5 1_555 1_555
C61_5 C62_5 1_555 1_555
Fe31_2 O40_5 1_555 1_555
N7_5 N8_5 1_555 1_555
C69_5 O50_5 1_555 1_555
C69_5 O51_5 1_555 1_555
C71_5 C72_5 1_555 1_555
C77_5 C78_5 1_555 1_555
C79_5 O54_5 1_555 1_555
Fe32_2 O49_5 1_555 1_555
N9_5 N10_5 1_555 1_555
C85_5 O59_5 1_555 1_555
C85_5 O60_5 1_555 1_555
C87_5 C88_5 1_555 1_555
C93_5 C94_5 1_555 1_555
C95_5 O63_5 1_555 1_555
Fe33_2 O58_5 1_555 1_555
N11_5 N12_5 1_555 1_555
Fe20 O66_4 1_555 1_555
Fe21 O67_4 1_555 1_555
O3_6 Fe19_2 1_555 1_555
O3_6 H58_2 1_555 1_555
O16_7 Fe19 1_555 1_555
O28_7 Fe21_2 1_555 1_555
O28_7 H38_3 1_555 1_555
H2_6 C6_6 1_555 1_555
C7_6 C6_6 1_555 1_555
H3_6 C8_6 1_555 1_555
C9_6 C10_6 1_555 1_555
C10_6 H4_6 1_555 1_555
C11_6 C10_6 1_555 1_555
C12_6 C11_6 1_555 1_555
H5_6 C12_6 1_555 1_555
C13_6 C12_6 1_555 1_555
C14_6 C9_6 1_555 1_555
H6_6 C14_6 1_555 1_555
C15_6 C13_6 1_555 1_555
N1_6 C7_6 1_555 1_555
N2_6 C9_6 1_555 1_555
O12_6 C15_6 1_555 1_555
O86_3 C15_6 1_555 1_555
C33_6 C34_6 1_555 1_555
C34_6 C35_6 1_555 1_555
C35_6 H13_6 1_555 1_555
C36_6 C35_6 1_555 1_555
C37_6 C36_6 1_555 1_555
Fe30_2 O12_6 1_555 1_555
O26_6 Fe30_2 1_555 1_555
O70_3 C33_6 1_555 1_555
O30_6 C33_6 1_555 1_555
O31_6 Fe7_6 1_555 1_555
O32_6 C37_6 1_555 1_555
C49_6 C50_6 1_555 1_555
C50_6 C51_6 1_555 1_555
C51_6 H19_6 1_555 1_555
C52_6 C51_6 1_555 1_555
C53_6 C52_6 1_555 1_555
Fe28 O38_6 1_555 1_555
O68_4 C49_6 1_555 1_555
O40_6 C49_6 1_555 1_555
O41_6 Fe7_6 1_555 1_555
H26_6 C70_6 1_555 1_555
C71_6 C70_6 1_555 1_555
H27_6 C72_6 1_555 1_555
C73_6 C74_6 1_555 1_555
C74_6 H28_6 1_555 1_555
C75_6 C74_6 1_555 1_555
C76_6 C75_6 1_555 1_555
H29_6 C76_6 1_555 1_555
C77_6 C76_6 1_555 1_555
C78_6 C73_6 1_555 1_555
H30_6 C78_6 1_555 1_555
C79_6 C77_6 1_555 1_555
C80_6 C75_6 1_555 1_555
N9_6 C71_6 1_555 1_555
N10_6 C73_6 1_555 1_555
O51_6 Fe7_6 1_555 1_555
O75_2 C80_6 1_555 1_555
O81_2 C80_6 1_555 1_555
O54_6 Fe28 1_555 1_555
O87_4 C79_6 1_555 1_555
C7_6 C8_6 1_555 1_555
C13_6 C14_6 1_555 1_555
N1_6 N2_6 1_555 1_555
O9_6 Fe7_6 1_555 1_555
Fe7_6 O32_6 1_555 1_555
Fe30_2 O30_6 1_555 1_555
C53_6 O41_6 1_555 1_555
Fe28 O40_6 1_555 1_555
C71_6 C72_6 1_555 1_555
C77_6 C78_6 1_555 1_555
C79_6 O54_6 1_555 1_555
N9_6 N10_6 1_555 1_555
O74 C16_6 1_555 1_555
O80 C16_6 1_555 1_555
C1_6 C2_6 1_555 1_555
C2_6 C3_6 1_555 1_555
C3_6 H1_6 1_555 1_555
C4_6 C3_6 1_555 1_555
C5_6 C4_6 1_555 1_555
Fe1_7 O6_7 1_555 1_555
Fe28_2 O1_6 1_555 1_555
O68_3 C1_6 1_555 1_555
O5_6 C1_6 1_555 1_555
O8_6 C5_6 1_555 1_555
C31_6 C29_6 1_555 1_555
O24_6 Fe28_2 1_555 1_555
O87_3 C31_6 1_555 1_555
H20_6 C54_6 1_555 1_555
C55_6 C54_6 1_555 1_555
H21_6 C56_6 1_555 1_555
C57_6 C58_6 1_555 1_555
C58_6 H22_6 1_555 1_555
C59_6 C58_6 1_555 1_555
C60_6 C59_6 1_555 1_555
H23_6 C60_6 1_555 1_555
C62_6 C57_6 1_555 1_555
C64_6 C59_6 1_555 1_555
N7_6 C55_6 1_555 1_555
N8_6 C57_6 1_555 1_555
O42_6 Fe1_7 1_555 1_555
O74_2 C64_6 1_555 1_555
O80_2 C64_6 1_555 1_555
Fe1_7 O8_6 1_555 1_555
Fe28_2 O5_6 1_555 1_555
C31_6 O24_6 1_555 1_555
C55_6 C56_6 1_555 1_555
N7_6 N8_6 1_555 1_555
O19_7 Fe4_7 1_555 1_555
H14_6 C38_6 1_555 1_555
C39_6 C38_6 1_555 1_555
H15_6 C40_6 1_555 1_555
C41_6 C42_6 1_555 1_555
C42_6 H16_6 1_555 1_555
C43_6 C42_6 1_555 1_555
C44_6 C43_6 1_555 1_555
H17_6 C44_6 1_555 1_555
C46_6 C41_6 1_555 1_555
N5_6 C39_6 1_555 1_555
N6_6 C41_6 1_555 1_555
O33_6 Fe4_7 1_555 1_555
C65_6 C66_6 1_555 1_555
C66_6 C67_6 1_555 1_555
C67_6 H25_6 1_555 1_555
C68_6 C67_6 1_555 1_555
C69_6 C68_6 1_555 1_555
Fe29 O47_6 1_555 1_555
O69_4 C65_6 1_555 1_555
O49_6 C65_6 1_555 1_555
O50_6 Fe4_7 1_555 1_555
C95_6 C93_6 1_555 1_555
O63_6 Fe29 1_555 1_555
O88_4 C95_6 1_555 1_555
C39_6 C40_6 1_555 1_555
N5_6 N6_6 1_555 1_555
C69_6 O50_6 1_555 1_555
Fe29 O49_6 1_555 1_555
C95_6 O63_6 1_555 1_555
O76 C48_6 1_555 1_555
O82 C48_6 1_555 1_555
Fe1_8 O6_8 1_555 1_555
O7_9 Fe1_8 1_555 1_555
C17_6 C18_6 1_555 1_555
C18_6 C19_6 1_555 1_555
C19_6 H7_6 1_555 1_555
C20_6 C19_6 1_555 1_555
C21_6 C20_6 1_555 1_555
C22_6 C20_6 1_555 1_555
H8_6 C22_6 1_555 1_555
C23_6 C22_6 1_555 1_555
C24_6 C18_6 1_555 1_555
H9_6 C24_6 1_555 1_555
C25_6 C26_6 1_555 1_555
C26_6 H10_6 1_555 1_555
C27_6 C26_6 1_555 1_555
C28_6 C27_6 1_555 1_555
H11_6 C28_6 1_555 1_555
C30_6 C25_6 1_555 1_555
Fe4_8 O7_9 1_555 1_555
Fe29_2 O14_6 1_555 1_555
N3_6 C23_6 1_555 1_555
N4_6 C25_6 1_555 1_555
O69_3 C17_6 1_555 1_555
O18_6 C17_6 1_555 1_555
O19_8 Fe4_8 1_555 1_555
O20_6 C21_6 1_555 1_555
O21_6 Fe1_8 1_555 1_555
C47_6 C45_6 1_555 1_555
O36_6 Fe29_2 1_555 1_555
O88_3 C47_6 1_555 1_555
C63_6 C61_6 1_555 1_555
O45_6 C63_6 1_555 1_555
O86_4 C63_6 1_555 1_555
C81_6 C82_6 1_555 1_555
C82_6 C83_6 1_555 1_555
C83_6 H31_6 1_555 1_555
C84_6 C83_6 1_555 1_555
C85_6 C84_6 1_555 1_555
C86_6 C84_6 1_555 1_555
H32_6 C86_6 1_555 1_555
C87_6 C86_6 1_555 1_555
C88_6 C82_6 1_555 1_555
H33_6 C88_6 1_555 1_555
C89_6 C90_6 1_555 1_555
C90_6 H34_6 1_555 1_555
C91_6 C90_6 1_555 1_555
C92_6 C91_6 1_555 1_555
H35_6 C92_6 1_555 1_555
C94_6 C89_6 1_555 1_555
C96_6 C91_6 1_555 1_555
Fe30 O45_6 1_555 1_555
N11_6 C87_6 1_555 1_555
N12_6 C89_6 1_555 1_555
O56_6 Fe30 1_555 1_555
O70_4 C81_6 1_555 1_555
O58_6 C81_6 1_555 1_555
O59_6 Fe1_8 1_555 1_555
O60_6 Fe4_8 1_555 1_555
O76_2 C96_6 1_555 1_555
O82_2 C96_6 1_555 1_555
C21_6 O21_6 1_555 1_555
C23_6 C24_6 1_555 1_555
Fe4_8 O20_6 1_555 1_555
Fe29_2 O18_6 1_555 1_555
N3_6 N4_6 1_555 1_555
C47_6 O36_6 1_555 1_555
C85_6 O59_6 1_555 1_555
C85_6 O60_6 1_555 1_555
C87_6 C88_6 1_555 1_555
Fe30 O58_6 1_555 1_555
N11_6 N12_6 1_555 1_555
O75 C32_6 1_555 1_555
O81 C32_6 1_555 1_555
Fe7_6 O7_10 1_555 1_555
Fe1_7 O7_11 1_555 1_555
Fe4_7 O7_12 1_555 1_555
O28_8 Fe21 1_555 1_555
O28_8 H38_4 1_555 1_555
O16_8 Fe20 1_555 1_555
O16_8 H48_2 1_555 1_555

#END
