
###############################################################################
#
# This file contains modified crystal structure data generated from the
# MOF subset of the Cambridge Structural Database (CSD) v543 
# hosted by the Cambridge Crystallographic Data Centre (CCDC).
#
# This work is licensed under the Creative Commons
# Attribution-NonCommercial-ShareAlike 4.0 International License.
# To view a copy of this license, visit
# http://creativecommons.org/licenses/by-nc-sa/4.0/
# or send a letter to
# Creative Commons, PO Box 1866, Mountain View, CA 94042, USA.
#
# CIF created using the CSD Python API on 29 September 2022
# The structure has been converted into the P1 space group
# The structure has a 3D framework
# The original CSD entry LEPTAE is in the triclinic crystal system
# The framework has been calculated to contain at least 10.0% void space
# The void calculation uses a probe of radius 1.32A, grid spacing 0.4
#
###############################################################################

data_LEPTAE
_chemical_formula_moiety         '(C144 H96 In4 N4 O32 S16 2+)n'
_symmetry_cell_setting           triclinic
_symmetry_space_group_name_H-M   'P 1'
_symmetry_Int_Tables_number      1
_space_group_name_Hall           'P 1'
loop_
_symmetry_equiv_pos_site_id
_symmetry_equiv_pos_as_xyz
1 x,y,z
_cell_length_a                   12.247(3)
_cell_length_b                   15.245(4)
_cell_length_c                   30.785(3)
_cell_angle_alpha                83.165(2)
_cell_angle_beta                 88.424(3)
_cell_angle_gamma                88.289(2)
_cell_volume                     5702.67
loop_
_atom_site_label
_atom_site_type_symbol
_atom_site_fract_x
_atom_site_fract_y
_atom_site_fract_z
C1 C 0.7165(5) 0.3999(3) 0.86972(16)
H1 H 0.725174 0.454135 0.883333
H2 H 0.777097 0.358322 0.877982
H3 H 0.647197 0.373053 0.879736
C2 C 0.6602(5) 0.5156(4) 0.8086(2)
H4 H 0.589471 0.521488 0.823807
H5 H 0.649206 0.520265 0.776982
H6 H 0.707835 0.562682 0.815044
N1 N 0.7168(4) 0.4198(4) 0.82515(16)
H7 H 0.680853 0.377089 0.813455
H8 H 0.787099 0.418849 0.814803
C1_2 C 0.2835(5) 0.6001(3) 0.13028(16)
H1_2 H 0.274826 0.545865 0.116667
H2_2 H 0.222903 0.641678 0.122018
H3_2 H 0.352803 0.626947 0.120264
C2_2 C 0.3398(5) 0.4844(4) 0.1914(2)
H4_2 H 0.410529 0.478512 0.176193
H5_2 H 0.350794 0.479735 0.223018
H6_2 H 0.292165 0.437318 0.184956
N1_2 N 0.2832(4) 0.5802(4) 0.17485(16)
H7_2 H 0.319147 0.622911 0.186545
H8_2 H 0.212901 0.581151 0.185197
C3 C 0.0627(4) 0.8999(3) 0.55322(13)
H9 H 0.124193 0.857176 0.553743
H10 H 0.034015 0.902487 0.583088
H11 H 0.087650 0.958427 0.541001
H12 H 0.075358 0.844793 0.474781
C4 C 0.9960(5) 0.8491(4) 0.47956(18)
H13 H 0.965121 0.895604 0.458327
H14 H 0.963751 0.792506 0.475859
N2 N 0.9716(5) 0.8710(3) 0.52454(15)
H15 H 0.940720 0.822670 0.539691
H16 H 0.919379 0.914859 0.522425
C4_2 C 0.0040(5) 0.1509(4) 0.52044(18)
H13_2 H 0.034879 0.104396 0.541673
H14_2 H 0.036249 0.207494 0.524141
N2_2 N 0.0284(5) 0.1290(3) 0.47546(15)
H15_2 H 0.059280 0.177330 0.460309
H16_2 H 0.080621 0.085141 0.477575
C3_2 C 0.9373(4) 0.1001(3) 0.44678(13)
H9_2 H 0.875807 0.142824 0.446257
H10_2 H 0.965985 0.097513 0.416912
H11_2 H 0.912350 0.041573 0.458999
H12_2 H 0.924642 0.155207 0.525219
C52 C 0.0230(3) 0.2402(3) 0.00956(13)
S7 S 0.08055(9) 0.18005(7) 0.05754(3)
C56 C 0.1518(3) 0.0994(3) 0.03322(11)
C59 C 0.2198(4) 0.0352(3) 0.05983(14)
C61 C 0.2983(4) 0.0643(3) 0.08457(14)
H41 H 0.315149 0.125188 0.080577
C65 C 0.3552(4) 0.0074(3) 0.11576(16)
H45 H 0.406723 0.030087 0.133749
S8 S 0.06458(9) 0.19440(7) 0.96118(3)
C57 C 0.1457(3) 0.1042(3) 0.98671(13)
C60 C 0.1981(4) 0.0447(3) 0.95925(14)
C64 C 0.2809(3) 0.0774(3) 0.93044(14)
C68 C 0.3277(4) 0.0218(3) 0.89873(15)
H44 H 0.306688 0.135305 0.931373
H48 H 0.386963 0.043484 0.880347
C62 C 0.1974(4) 0.9465(3) 0.06388(17)
C66 C 0.2526(5) 0.8853(3) 0.09611(18)
H42 H 0.145559 0.925522 0.045458
C69 C 0.3351(4) 0.9150(3) 0.12028(14)
H46 H 0.232557 0.825174 0.100714
C71 C 0.4001(4) 0.8536(3) 0.15516(12)
O23 O 0.3699(2) 0.7744(2) 0.15929(10)
O24 O 0.4697(2) 0.8814(2) 0.17582(9)
In6 In 0.50542(3) 0.74336(2) 0.20934(2)
C63 C 0.1495(4) 0.9623(3) 0.95158(18)
H43 H 0.084709 0.943086 0.967099
C67 C 0.1992(4) 0.9112(3) 0.92095(14)
H47 H 0.170282 0.855042 0.918106
C70 C 0.2894(3) 0.9393(3) 0.89444(13)
C72 C 0.3374(4) 0.8785(3) 0.86447(13)
O25 O 0.3118(3) 0.7992(2) 0.86593(8)
O26 O 0.4194(2) 0.90644(19) 0.83934(10)
In7 In 0.44623(3) 0.77456(2) 0.81540(2)
C47 C 0.8300(3) 0.4371(3) 0.03641(12)
C48 C 0.7705(3) 0.4909(3) 0.06550(12)
S6 S 0.90660(9) 0.34492(7) 0.06028(3)
C49 C 0.9533(3) 0.3104(3) 0.01005(12)
C50 C 0.7798(3) 0.5842(3) 0.05830(12)
C51 C 0.7082(3) 0.4549(3) 0.10026(13)
H37 H 0.822249 0.611066 0.034333
C53 C 0.7266(3) 0.6343(3) 0.08648(11)
C54 C 0.6533(4) 0.5048(3) 0.12798(14)
H38 H 0.702940 0.392401 0.105261
H39 H 0.734168 0.696605 0.082293
C55 C 0.6611(4) 0.5966(3) 0.12146(12)
H40 H 0.609974 0.477395 0.151565
C58 C 0.5992(4) 0.6486(3) 0.15028(14)
O21 O 0.6320(3) 0.7342(3) 0.14873(11)
O22 O 0.5287(2) 0.6172(2) 0.17897(8)
O1 O 0.4044(3) 0.7881(3) 0.26427(9)
O2 O 0.3604(3) 0.6613(2) 0.24463(9)
O3 O 0.6479(3) 0.7878(3) 0.24714(12)
O4 O 0.5877(4) 0.6583(3) 0.26388(12)
C5 C 0.3492(4) 0.7209(4) 0.27054(12)
C6 C 0.2680(4) 0.7030(4) 0.30779(15)
C7 C 0.2708(4) 0.7490(4) 0.34179(15)
C8 C 0.1936(5) 0.6353(4) 0.30852(14)
C9 C 0.1955(6) 0.7288(5) 0.3789(2)
H17 H 0.321593 0.794851 0.341910
H18 H 0.190517 0.604791 0.283438
C10 C 0.1210(4) 0.6089(4) 0.34529(16)
C11 C 0.1242(4) 0.6620(4) 0.38113(15)
H19 H 0.196486 0.763826 0.402436
H20 H 0.074383 0.560031 0.345842
C12 C 0.0515(4) 0.6432(4) 0.41789(15)
S1 S 0.11382(11) 0.61591(11) 0.47015(4)
S4 S 0.09962(11) 0.62882(11) 0.57582(4)
C23 C 0.0241(4) 0.6659(4) 0.61918(13)
C26 C 0.0951(5) 0.6938(4) 0.65580(15)
C29 C 0.1690(6) 0.7618(4) 0.64912(15)
C30 C 0.0860(5) 0.6439(4) 0.69651(18)
H27 H 0.175124 0.795955 0.621304
C33 C 0.2338(5) 0.7800(4) 0.6831(2)
C34 C 0.1509(5) 0.6620(5) 0.73053(14)
H28 H 0.035552 0.597363 0.701074
H31 H 0.284294 0.826469 0.678585
C36 C 0.2248(5) 0.7300(5) 0.72385(16)
H32 H 0.144723 0.627877 0.758355
C38 C 0.2967(4) 0.7405(5) 0.76080(17)
O11 O 0.3399(3) 0.8200(3) 0.75978(11)
O12 O 0.3168(3) 0.6876(3) 0.79022(11)
O13 O 0.6008(3) 0.7653(2) 0.86292(10)
O14 O 0.4817(3) 0.6630(3) 0.86337(10)
C39 C 0.5691(4) 0.6921(4) 0.87746(13)
C40 C 0.6365(4) 0.6334(3) 0.91022(14)
C41 C 0.7475(4) 0.6409(4) 0.91038(16)
C42 C 0.5853(4) 0.5690(4) 0.93854(15)
C43 C 0.8078(4) 0.5800(3) 0.93791(13)
H33 H 0.782632 0.686744 0.892055
H34 H 0.507876 0.566717 0.939756
C44 C 0.6471(4) 0.5083(4) 0.96496(14)
C45 C 0.7593(3) 0.5131(3) 0.96497(13)
H35 H 0.885004 0.584675 0.938048
H36 H 0.611810 0.462606 0.983361
C46 C 0.8281(3) 0.4462(3) 0.99301(12)
S5 S 0.90480(9) 0.36996(7) 0.96394(3)
O19 O 0.5599(4) 0.6929(3) 0.77294(16)
O20 O 0.5924(3) 0.8302(3) 0.76297(12)
C13 C 0.9381(4) 0.6364(4) 0.41976(12)
C14 C 0.8684(4) 0.6598(4) 0.38043(13)
S2 S 0.87325(11) 0.60761(11) 0.46916(4)
C15 C 0.9908(4) 0.6163(4) 0.50159(17)
C16 C 0.8787(6) 0.7380(5) 0.3529(2)
C17 C 0.7863(5) 0.6023(5) 0.37457(18)
C18 C 0.9826(4) 0.6224(4) 0.54393(15)
H21 H 0.932051 0.779579 0.357582
C19 C 0.8078(6) 0.7532(6) 0.3180(2)
C20 C 0.7158(6) 0.6165(5) 0.3414(2)
H22 H 0.779336 0.550438 0.394775
S3 S 0.85926(11) 0.61872(11) 0.57439(4)
H23 H 0.814657 0.806107 0.298514
C21 C 0.7279(4) 0.6951(5) 0.3104(2)
H24 H 0.659597 0.576144 0.338481
C22 C 0.9177(5) 0.6620(4) 0.61920(14)
C24 C 0.6510(5) 0.7146(5) 0.27095(16)
C25 C 0.8354(5) 0.6868(5) 0.6552(2)
C27 C 0.7592(6) 0.6254(4) 0.6723(2)
C28 C 0.8396(5) 0.7678(5) 0.6715(2)
H25 H 0.756326 0.570039 0.661149
C31 C 0.6874(6) 0.6449(5) 0.7058(2)
C32 C 0.7678(6) 0.7873(4) 0.7050(2)
H26 H 0.891653 0.809766 0.659808
H29 H 0.635365 0.602903 0.717494
C35 C 0.6917(6) 0.7259(5) 0.7221(2)
H30 H 0.770690 0.842629 0.716153
C37 C 0.6063(5) 0.7531(5) 0.75334(16)
C13_2 C 0.0619(4) 0.3636(4) 0.58024(12)
C14_2 C 0.1316(4) 0.3402(4) 0.61957(13)
S2_2 S 0.12675(11) 0.39239(11) 0.53084(4)
C15_2 C 0.0092(4) 0.3837(4) 0.49841(17)
C16_2 C 0.1213(6) 0.2620(5) 0.6471(2)
C17_2 C 0.2137(5) 0.3977(5) 0.62543(18)
C18_2 C 0.0174(4) 0.3776(4) 0.45607(15)
H21_2 H 0.067949 0.220421 0.642418
C19_2 C 0.1922(6) 0.2468(6) 0.6820(2)
C20_2 C 0.2842(6) 0.3835(5) 0.6586(2)
H22_2 H 0.220664 0.449562 0.605225
S3_2 S 0.14074(11) 0.38128(11) 0.42561(4)
H23_2 H 0.185343 0.193893 0.701486
C21_2 C 0.2721(4) 0.3049(5) 0.6896(2)
H24_2 H 0.340403 0.423856 0.661519
C22_2 C 0.0823(5) 0.3380(4) 0.38080(14)
C24_2 C 0.3490(5) 0.2854(5) 0.72905(16)
C25_2 C 0.1646(5) 0.3132(5) 0.3448(2)
C27_2 C 0.2408(6) 0.3746(4) 0.3277(2)
C28_2 C 0.1604(5) 0.2322(5) 0.3285(2)
H25_2 H 0.243674 0.429961 0.338851
C31_2 C 0.3126(6) 0.3551(5) 0.2942(2)
C32_2 C 0.2322(6) 0.2127(4) 0.2950(2)
H26_2 H 0.108347 0.190234 0.340192
H29_2 H 0.364635 0.397097 0.282506
C35_2 C 0.3083(6) 0.2741(5) 0.2779(2)
H30_2 H 0.229310 0.157371 0.283847
C37_2 C 0.3937(5) 0.2469(5) 0.24666(16)
O9 O 0.4401(4) 0.3071(3) 0.22706(16)
O10 O 0.4076(3) 0.1698(3) 0.23703(12)
In2 In 0.55377(3) 0.22544(2) 0.18460(2)
O17 O 0.3521(3) 0.2122(3) 0.75286(12)
O18 O 0.4123(4) 0.3417(3) 0.73612(12)
In3 In 0.49458(3) 0.25664(2) 0.79066(2)
O1_2 O 0.5956(3) 0.2119(3) 0.73573(9)
O2_2 O 0.6396(3) 0.3387(2) 0.75537(9)
O5 O 0.3680(3) 0.2658(3) 0.85127(11)
O6 O 0.4713(2) 0.3828(2) 0.82103(8)
O7 O 0.6301(2) 0.2256(2) 0.84071(10)
O8 O 0.5303(2) 0.1186(2) 0.82418(9)
C5_2 C 0.6508(4) 0.2791(4) 0.72946(12)
C6_2 C 0.7320(4) 0.2970(4) 0.69221(15)
C7_2 C 0.7292(4) 0.2510(4) 0.65821(15)
C8_2 C 0.8064(5) 0.3647(4) 0.69148(14)
C9_2 C 0.8045(6) 0.2712(5) 0.6211(2)
H17_2 H 0.678407 0.205149 0.658090
H18_2 H 0.809483 0.395209 0.716562
C10_2 C 0.8790(4) 0.3911(4) 0.65471(16)
C11_2 C 0.8758(4) 0.3380(4) 0.61887(15)
H19_2 H 0.803514 0.236174 0.597564
H20_2 H 0.925617 0.439969 0.654158
C12_2 C 0.9485(4) 0.3568(4) 0.58211(15)
S1_2 S 0.88618(11) 0.38409(11) 0.52985(4)
S4_2 S 0.90038(11) 0.37118(11) 0.42418(4)
C23_2 C 0.9759(4) 0.3341(4) 0.38082(13)
C26_2 C 0.9049(5) 0.3062(4) 0.34420(15)
C29_2 C 0.8310(6) 0.2382(4) 0.35088(15)
C30_2 C 0.9140(5) 0.3561(4) 0.30349(18)
H27_2 H 0.824876 0.204045 0.378696
C33_2 C 0.7662(5) 0.2200(4) 0.3169(2)
C34_2 C 0.8491(5) 0.3380(5) 0.26947(14)
H28_2 H 0.964448 0.402637 0.298926
H31_2 H 0.715706 0.173531 0.321415
C36_2 C 0.7752(5) 0.2700(5) 0.27615(16)
H32_2 H 0.855277 0.372123 0.241645
C38_2 C 0.7033(4) 0.2595(5) 0.23920(17)
O11_2 O 0.6601(3) 0.1800(3) 0.24022(11)
O12_2 O 0.6832(3) 0.3124(3) 0.20978(11)
O13_2 O 0.3992(3) 0.2347(2) 0.13708(10)
O14_2 O 0.5183(3) 0.3370(3) 0.13663(10)
O15 O 0.6882(3) 0.2008(2) 0.13407(8)
O16 O 0.5806(2) 0.09356(19) 0.16066(10)
C39_2 C 0.4309(4) 0.3079(4) 0.12254(13)
C40_2 C 0.3635(4) 0.3666(3) 0.08978(14)
C41_2 C 0.2525(4) 0.3591(4) 0.08962(16)
C42_2 C 0.4147(4) 0.4310(4) 0.06146(15)
C43_2 C 0.1922(4) 0.4200(3) 0.06209(13)
H33_2 H 0.217368 0.313256 0.107945
H34_2 H 0.492124 0.433283 0.060244
C44_2 C 0.3529(4) 0.4917(4) 0.03504(14)
C45_2 C 0.2407(3) 0.4869(3) 0.03503(13)
H35_2 H 0.114996 0.415325 0.061952
H36_2 H 0.388190 0.537394 0.016639
C46_2 C 0.1719(3) 0.5538(3) 0.00699(12)
S5_2 S 0.09520(9) 0.63004(7) 0.03606(3)
C47_2 C 0.1700(3) 0.5629(3) 0.96359(12)
C48_2 C 0.2295(3) 0.5091(3) 0.93450(12)
S6_2 S 0.09340(9) 0.65508(7) 0.93972(3)
C49_2 C 0.0467(3) 0.6896(3) 0.98995(12)
C50_2 C 0.2202(3) 0.4158(3) 0.94170(12)
C51_2 C 0.2918(3) 0.5451(3) 0.89974(13)
H37_2 H 0.177751 0.388934 0.965667
C53_2 C 0.2734(3) 0.3657(3) 0.91352(11)
C54_2 C 0.3467(4) 0.4952(3) 0.87202(14)
H38_2 H 0.297060 0.607599 0.894739
H39_2 H 0.265832 0.303395 0.917707
C55_2 C 0.3389(4) 0.4034(3) 0.87854(12)
H40_2 H 0.390026 0.522605 0.848435
C58_2 C 0.4008(4) 0.3514(3) 0.84972(14)
C63_2 C 0.8505(4) 0.0377(3) 0.04842(18)
H43_2 H 0.915291 0.056914 0.032901
C67_2 C 0.8008(4) 0.0888(3) 0.07905(14)
H47_2 H 0.829718 0.144958 0.081894
C70_2 C 0.7106(3) 0.0607(3) 0.10556(13)
C72_2 C 0.6626(4) 0.1215(3) 0.13553(13)
C62_2 C 0.8026(4) 0.0535(3) 0.93612(17)
C66_2 C 0.7474(5) 0.1147(3) 0.90389(18)
H42_2 H 0.854441 0.074478 0.954542
C69_2 C 0.6649(4) 0.0850(3) 0.87972(14)
H46_2 H 0.767443 0.174826 0.899286
C71_2 C 0.5999(4) 0.1464(3) 0.84484(12)
S8_2 S 0.93542(9) 0.80560(7) 0.03882(3)
C57_2 C 0.8543(3) 0.8958(3) 0.01329(13)
C60_2 C 0.8019(4) 0.9553(3) 0.04075(14)
C64_2 C 0.7191(3) 0.9226(3) 0.06956(14)
C68_2 C 0.6723(4) 0.9782(3) 0.10127(15)
H44_2 H 0.693312 0.864695 0.068627
H48_2 H 0.613037 0.956516 0.119653
C52_2 C 0.9770(3) 0.7598(3) 0.99044(13)
S7_2 S 0.91945(9) 0.81995(7) 0.94246(3)
C56_2 C 0.8482(3) 0.9006(3) 0.96678(11)
C59_2 C 0.7802(4) 0.9648(3) 0.94017(14)
C61_2 C 0.7017(4) 0.9357(3) 0.91543(14)
H41_2 H 0.684851 0.874812 0.919423
C65_2 C 0.6448(4) 0.9926(3) 0.88424(16)
H45_2 H 0.593277 0.969913 0.866251
loop_
_geom_bond_atom_site_label_1
_geom_bond_atom_site_label_2
_geom_bond_site_symmetry_1
_geom_bond_site_symmetry_2
C1 H1 1_555 1_555
H2 C1 1_555 1_555
H3 C1 1_555 1_555
C2 H4 1_555 1_555
H5 C2 1_555 1_555
H6 C2 1_555 1_555
N1 C1 1_555 1_555
H7 N1 1_555 1_555
H8 N1 1_555 1_555
C2 N1 1_555 1_555
C1_2 H1_2 1_555 1_555
H2_2 C1_2 1_555 1_555
H3_2 C1_2 1_555 1_555
C2_2 H4_2 1_555 1_555
H5_2 C2_2 1_555 1_555
H6_2 C2_2 1_555 1_555
N1_2 C1_2 1_555 1_555
H7_2 N1_2 1_555 1_555
H8_2 N1_2 1_555 1_555
C2_2 N1_2 1_555 1_555
C3 H9 1_555 1_555
H10 C3 1_555 1_555
H11 C3 1_555 1_555
H13 C4 1_555 1_555
H14 C4 1_555 1_555
H15 N2 1_555 1_555
H16 N2 1_555 1_555
C4 N2 1_555 1_555
H13_2 C4_2 1_555 1_555
H14_2 C4_2 1_555 1_555
H15_2 N2_2 1_555 1_555
H16_2 N2_2 1_555 1_555
C4_2 N2_2 1_555 1_555
C3_2 H9_2 1_555 1_555
H10_2 C3_2 1_555 1_555
H11_2 C3_2 1_555 1_555
S7 C52 1_555 1_555
C56 S7 1_555 1_555
C59 C56 1_555 1_555
C61 C59 1_555 1_555
H41 C61 1_555 1_555
C65 C61 1_555 1_555
H45 C65 1_555 1_555
C57 S8 1_555 1_555
C60 C57 1_555 1_555
C64 C60 1_555 1_555
C68 C64 1_555 1_555
H44 C64 1_555 1_555
H48 C68 1_555 1_555
C66 C62 1_555 1_555
H42 C62 1_555 1_555
H46 C66 1_555 1_555
C71 C69 1_555 1_555
O23 C71 1_555 1_555
O24 C71 1_555 1_555
In6 O23 1_555 1_555
C66 C69 1_555 1_555
O24 In6 1_555 1_555
H43 C63 1_555 1_555
C67 C63 1_555 1_555
H47 C67 1_555 1_555
C70 C67 1_555 1_555
C72 C70 1_555 1_555
O25 C72 1_555 1_555
O26 C72 1_555 1_555
In7 O25 1_555 1_555
O26 In7 1_555 1_555
C48 C47 1_555 1_555
S6 C47 1_555 1_555
C50 C48 1_555 1_555
C51 C48 1_555 1_555
H37 C50 1_555 1_555
C53 C50 1_555 1_555
C54 C51 1_555 1_555
H38 C51 1_555 1_555
H39 C53 1_555 1_555
C55 C53 1_555 1_555
H40 C54 1_555 1_555
C58 C55 1_555 1_555
O21 C58 1_555 1_555
O22 C58 1_555 1_555
In6 O21 1_555 1_555
S6 C49 1_555 1_555
C54 C55 1_555 1_555
O22 In6 1_555 1_555
In6 O1 1_555 1_555
O1 C5 1_555 1_555
O2 In6 1_555 1_555
O3 In6 1_555 1_555
O4 In6 1_555 1_555
C5 O2 1_555 1_555
C6 C5 1_555 1_555
C7 C6 1_555 1_555
C8 C6 1_555 1_555
C9 C7 1_555 1_555
H17 C7 1_555 1_555
H18 C8 1_555 1_555
C10 C8 1_555 1_555
C11 C9 1_555 1_555
H19 C9 1_555 1_555
H20 C10 1_555 1_555
C12 C11 1_555 1_555
S1 C12 1_555 1_555
C23 S4 1_555 1_555
C26 C23 1_555 1_555
C29 C26 1_555 1_555
C30 C26 1_555 1_555
H27 C29 1_555 1_555
C33 C29 1_555 1_555
C34 C30 1_555 1_555
H28 C30 1_555 1_555
H31 C33 1_555 1_555
C36 C33 1_555 1_555
H32 C34 1_555 1_555
C38 C36 1_555 1_555
O11 C38 1_555 1_555
O12 C38 1_555 1_555
O13 C39 1_555 1_555
O14 C39 1_555 1_555
C39 C40 1_555 1_555
C40 C41 1_555 1_555
C41 C43 1_555 1_555
C42 C40 1_555 1_555
C43 C45 1_555 1_555
H33 C41 1_555 1_555
H34 C42 1_555 1_555
C44 C42 1_555 1_555
C45 C44 1_555 1_555
H35 C43 1_555 1_555
H36 C44 1_555 1_555
C46 C45 1_555 1_555
S5 C46 1_555 1_555
In7 O11 1_555 1_555
O19 In7 1_555 1_555
O20 In7 1_555 1_555
C10 C11 1_555 1_555
C34 C36 1_555 1_555
O12 In7 1_555 1_555
O13 In7 1_555 1_555
O14 In7 1_555 1_555
C14 C13 1_555 1_555
S2 C13 1_555 1_555
C16 C14 1_555 1_555
C17 C14 1_555 1_555
C18 C15 1_555 1_555
H21 C16 1_555 1_555
C19 C16 1_555 1_555
C20 C17 1_555 1_555
H22 C17 1_555 1_555
S3 C18 1_555 1_555
H23 C19 1_555 1_555
C21 C19 1_555 1_555
H24 C20 1_555 1_555
C22 S3 1_555 1_555
C24 C21 1_555 1_555
C25 C22 1_555 1_555
C27 C25 1_555 1_555
C28 C25 1_555 1_555
H25 C27 1_555 1_555
C31 C27 1_555 1_555
C32 C28 1_555 1_555
H26 C28 1_555 1_555
H29 C31 1_555 1_555
C35 C31 1_555 1_555
H30 C32 1_555 1_555
C37 C35 1_555 1_555
O19 C37 1_555 1_555
O20 C37 1_555 1_555
O3 C24 1_555 1_555
O4 C24 1_555 1_555
S2 C15 1_555 1_555
C20 C21 1_555 1_555
C32 C35 1_555 1_555
C14_2 C13_2 1_555 1_555
S2_2 C13_2 1_555 1_555
C16_2 C14_2 1_555 1_555
C17_2 C14_2 1_555 1_555
C18_2 C15_2 1_555 1_555
H21_2 C16_2 1_555 1_555
C19_2 C16_2 1_555 1_555
C20_2 C17_2 1_555 1_555
H22_2 C17_2 1_555 1_555
S3_2 C18_2 1_555 1_555
H23_2 C19_2 1_555 1_555
C21_2 C19_2 1_555 1_555
H24_2 C20_2 1_555 1_555
C22_2 S3_2 1_555 1_555
C24_2 C21_2 1_555 1_555
C25_2 C22_2 1_555 1_555
C27_2 C25_2 1_555 1_555
C28_2 C25_2 1_555 1_555
H25_2 C27_2 1_555 1_555
C31_2 C27_2 1_555 1_555
C32_2 C28_2 1_555 1_555
H26_2 C28_2 1_555 1_555
H29_2 C31_2 1_555 1_555
C35_2 C31_2 1_555 1_555
H30_2 C32_2 1_555 1_555
C37_2 C35_2 1_555 1_555
O9 C37_2 1_555 1_555
O10 C37_2 1_555 1_555
In2 O9 1_555 1_555
O17 C24_2 1_555 1_555
O18 C24_2 1_555 1_555
In3 O17 1_555 1_555
S2_2 C15_2 1_555 1_555
C20_2 C21_2 1_555 1_555
C32_2 C35_2 1_555 1_555
O10 In2 1_555 1_555
O18 In3 1_555 1_555
In3 O1_2 1_555 1_555
O1_2 C5_2 1_555 1_555
O2_2 In3 1_555 1_555
O5 In3 1_555 1_555
O6 In3 1_555 1_555
O7 In3 1_555 1_555
O8 In3 1_555 1_555
C5_2 O2_2 1_555 1_555
C6_2 C5_2 1_555 1_555
C7_2 C6_2 1_555 1_555
C8_2 C6_2 1_555 1_555
C9_2 C7_2 1_555 1_555
H17_2 C7_2 1_555 1_555
H18_2 C8_2 1_555 1_555
C10_2 C8_2 1_555 1_555
C11_2 C9_2 1_555 1_555
H19_2 C9_2 1_555 1_555
H20_2 C10_2 1_555 1_555
C12_2 C11_2 1_555 1_555
S1_2 C12_2 1_555 1_555
C23_2 S4_2 1_555 1_555
C26_2 C23_2 1_555 1_555
C29_2 C26_2 1_555 1_555
C30_2 C26_2 1_555 1_555
H27_2 C29_2 1_555 1_555
C33_2 C29_2 1_555 1_555
C34_2 C30_2 1_555 1_555
H28_2 C30_2 1_555 1_555
H31_2 C33_2 1_555 1_555
C36_2 C33_2 1_555 1_555
H32_2 C34_2 1_555 1_555
C38_2 C36_2 1_555 1_555
O11_2 C38_2 1_555 1_555
O12_2 C38_2 1_555 1_555
O13_2 C39_2 1_555 1_555
O14_2 C39_2 1_555 1_555
O15 In2 1_555 1_555
O16 In2 1_555 1_555
C39_2 C40_2 1_555 1_555
C40_2 C41_2 1_555 1_555
C41_2 C43_2 1_555 1_555
C42_2 C40_2 1_555 1_555
C43_2 C45_2 1_555 1_555
H33_2 C41_2 1_555 1_555
H34_2 C42_2 1_555 1_555
C44_2 C42_2 1_555 1_555
C45_2 C44_2 1_555 1_555
H35_2 C43_2 1_555 1_555
H36_2 C44_2 1_555 1_555
C46_2 C45_2 1_555 1_555
S5_2 C46_2 1_555 1_555
In2 O11_2 1_555 1_555
C10_2 C11_2 1_555 1_555
C34_2 C36_2 1_555 1_555
O12_2 In2 1_555 1_555
O13_2 In2 1_555 1_555
O14_2 In2 1_555 1_555
C48_2 C47_2 1_555 1_555
S6_2 C47_2 1_555 1_555
C50_2 C48_2 1_555 1_555
C51_2 C48_2 1_555 1_555
H37_2 C50_2 1_555 1_555
C53_2 C50_2 1_555 1_555
C54_2 C51_2 1_555 1_555
H38_2 C51_2 1_555 1_555
H39_2 C53_2 1_555 1_555
C55_2 C53_2 1_555 1_555
H40_2 C54_2 1_555 1_555
C58_2 C55_2 1_555 1_555
O5 C58_2 1_555 1_555
O6 C58_2 1_555 1_555
S6_2 C49_2 1_555 1_555
C54_2 C55_2 1_555 1_555
H43_2 C63_2 1_555 1_555
C67_2 C63_2 1_555 1_555
H47_2 C67_2 1_555 1_555
C70_2 C67_2 1_555 1_555
C72_2 C70_2 1_555 1_555
O15 C72_2 1_555 1_555
O16 C72_2 1_555 1_555
C66_2 C62_2 1_555 1_555
H42_2 C62_2 1_555 1_555
H46_2 C66_2 1_555 1_555
C71_2 C69_2 1_555 1_555
O7 C71_2 1_555 1_555
O8 C71_2 1_555 1_555
C66_2 C69_2 1_555 1_555
C57_2 S8_2 1_555 1_555
C60_2 C57_2 1_555 1_555
C64_2 C60_2 1_555 1_555
C68_2 C64_2 1_555 1_555
H44_2 C64_2 1_555 1_555
H48_2 C68_2 1_555 1_555
S7_2 C52_2 1_555 1_555
C56_2 S7_2 1_555 1_555
C59_2 C56_2 1_555 1_555
C61_2 C59_2 1_555 1_555
H41_2 C61_2 1_555 1_555
C65_2 C61_2 1_555 1_555
H45_2 C65_2 1_555 1_555

#END
