
###############################################################################
#
# This file contains modified crystal structure data generated from the
# MOF subset of the Cambridge Structural Database (CSD) v543 
# hosted by the Cambridge Crystallographic Data Centre (CCDC).
#
# This work is licensed under the Creative Commons
# Attribution-NonCommercial-ShareAlike 4.0 International License.
# To view a copy of this license, visit
# http://creativecommons.org/licenses/by-nc-sa/4.0/
# or send a letter to
# Creative Commons, PO Box 1866, Mountain View, CA 94042, USA.
#
# CIF created using the CSD Python API on 29 September 2022
# The structure has been converted into the P1 space group
# The structure has a 3D framework
# The original CSD entry LEPTIM01 is in the triclinic crystal system
# The framework has been calculated to contain at least 10.0% void space
# The void calculation uses a probe of radius 1.32A, grid spacing 0.4
# The framework is charged, counterions have been retained in the structure
#
###############################################################################

data_LEPTIM01
_chemical_formula_moiety         '(C144 H96 In4 N4 O28 S16)n'
_symmetry_cell_setting           triclinic
_symmetry_space_group_name_H-M   'P 1'
_symmetry_Int_Tables_number      1
_space_group_name_Hall           'P 1'
loop_
_symmetry_equiv_pos_site_id
_symmetry_equiv_pos_as_xyz
1 x,y,z
_cell_length_a                   14.611(3)
_cell_length_b                   14.811(3)
_cell_length_c                   30.363(8)
_cell_angle_alpha                93.057(4)
_cell_angle_beta                 93.057(4)
_cell_angle_gamma                117.98
_cell_volume                     5771.45
loop_
_atom_site_label
_atom_site_type_symbol
_atom_site_fract_x
_atom_site_fract_y
_atom_site_fract_z
O4 O 0.4557(10) 0.0496(8) 0.2492(3)
O5 O 0.5841(8) 0.1219(6) 0.3362(3)
O7 O 0.4253(7) 0.0509(6) 0.3600(3)
C4 C 0.3011(13) 0.0145(12) 0.2052(4)
C8 C 0.3632(15) 0.0714(13) 0.1737(6)
C12 C 0.3148(15) 0.0959(13) 0.1353(5)
H4 H 0.4345 0.0940 0.1766
C14 C 0.2084(14) 0.0566(12) 0.1326(5)
H8 H 0.3544 0.1359 0.1139
C16 C 0.1599(13) 0.0857(12) 0.0945(5)
S2 S 0.1824(4) 0.0440(4) 0.04104(13)
C18 C 0.1033(13) 0.1325(11) 0.0943(5)
C21 C 0.1334(13) 0.1134(12) 0.0120(5)
S4 S 0.0524(4) 0.1494(4) 0.04292(13)
C22 C 0.0746(15) 0.1773(12) 0.1336(5)
C28 C 0.1599(15) 0.2492(13) 0.1660(6)
C32 C 0.1313(16) 0.3015(14) 0.2005(6)
H12 H 0.2279 0.2607 0.1646
C38 C 0.0382(15) 0.2881(11) 0.2033(5)
H16 H 0.1833 0.3470 0.2217
C44 C 0.0165(17) 0.3507(14) 0.2409(6)
O9 O 0.0931(8) 0.4261(8) 0.2620(3)
In3 In 0.53114(7) 0.03897(6) 0.69316(3)
C26 C 0.1386(14) 0.1271(13) 0.9696(5)
S7 S 0.2205(5) 0.0923(5) 0.93834(15)
S8 S 0.0911(5) 0.1979(5) 0.94099(15)
C36 C 0.2256(15) 0.1676(13) 0.8947(6)
C37 C 0.1580(14) 0.2093(13) 0.8946(5)
C42 C 0.2747(15) 0.1504(13) 0.8544(6)
C43 C 0.1457(16) 0.2767(13) 0.8606(6)
C49 C 0.3802(14) 0.1999(13) 0.8586(6)
C50 C 0.2209(16) 0.0862(14) 0.8173(6)
C51 C 0.2213(17) 0.3350(15) 0.8339(7)
C52 C 0.0511(17) 0.2724(14) 0.8552(6)
C57 C 0.4368(16) 0.1850(14) 0.8215(6)
H21 H 0.4168 0.2422 0.8841
C58 C 0.2725(15) 0.0674(13) 0.7837(6)
H22 H 0.1486 0.0547 0.8145
C59 C 0.2053(16) 0.4015(13) 0.8028(6)
H23 H 0.2839 0.3327 0.8354
C60 C 0.0276(16) 0.3297(14) 0.8258(6)
C63 C 0.3783(14) 0.1193(12) 0.7869(5)
H29 H 0.5090 0.2197 0.8225
H30 H 0.2354 0.0203 0.7596
C64 C 0.1064(13) 0.3912(11) 0.7984(5)
H31 H 0.2586 0.4472 0.7873
C67 C 0.4293(15) 0.0910(13) 0.7500(5)
C68 C 0.0862(13) 0.4535(11) 0.7621(4)
O15 O 0.1627(9) 0.5232(8) 0.7443(3)
O19 O 0.5255(8) 0.1494(7) 0.7496(3)
O20 O 0.3806(8) 0.0116(8) 0.7247(3)
In7 In 0.03087(8) 0.54248(6) 0.70182(3)
C33 C 0.1571(10) 0.9965(8) 0.5204(4)
C34 C 0.1485(10) 0.9866(8) 0.4769(4)
C39 C 0.1367(11) 0.9146(9) 0.5518(4)
C40 C 0.1238(11) 0.8955(9) 0.4457(4)
C45 C 0.0458(11) 0.8333(9) 0.5538(4)
C46 C 0.2170(10) 0.9254(9) 0.5822(4)
C47 C 0.1886(11) 0.8919(10) 0.4167(4)
C48 C 0.0234(11) 0.8092(9) 0.4422(4)
C53 C 0.0221(12) 0.7571(10) 0.5833(4)
H18 H 0.2827 0.9817 0.5824
C54 C 0.1986(11) 0.8505(9) 0.6128(4)
H19 H 0.2531 0.9494 0.4162
C55 C 0.1633(11) 0.8042(9) 0.3868(4)
C61 C 0.1013(11) 0.7653(9) 0.6135(4)
H26 H 0.2529 0.8587 0.6329
C62 C 0.0686(11) 0.7215(9) 0.3854(4)
H27 H 0.2121 0.8041 0.3683
C65 C 0.0812(12) 0.6848(9) 0.6454(4)
C66 C 0.0334(12) 0.6249(9) 0.3522(4)
O11 O 0.1526(8) 0.6855(6) 0.6700(3)
O13 O 0.1020(7) 0.6164(6) 0.3298(3)
O23 O 0.0613(7) 0.4462(6) 0.6506(3)
O24 O 0.0725(10) 0.6732(8) 0.7569(3)
H17 H 0.0081 0.1743 0.4663
H20 H 0.0254 0.1900 0.5396
C56 C 0.0056(10) 0.2768(9) 0.5874(4)
H25 H 0.0448 0.2975 0.4174
H28 H 0.0725 0.3318 0.5891
O12 O 0.0144(7) 0.3837(6) 0.3521(3)
O26 O 0.0088(9) 0.5649(7) 0.2412(3)
H24 H 0.0010 0.7710 0.1281
H32 H 0.0369 0.6721 0.1758
C27 C 0.0252(16) 0.8346(13) 0.8647(6)
H11 H 0.0786 0.8756 0.8863
C31 C 0.0424(15) 0.7803(13) 0.8279(6)
H15 H 0.1097 0.7910 0.8247
O1 O 0.4721(7) 0.1064(6) 0.6385(3)
O2 O 0.6334(8) 0.1867(6) 0.6653(3)
O3 O 0.6906(8) 0.0748(8) 0.7336(3)
C1 C 0.5701(12) 0.1856(10) 0.6391(4)
C2 C 0.6417(14) 0.0063(13) 0.7579(5)
C3 C 0.5889(11) 0.2701(9) 0.6081(4)
C5 C 0.5115(13) 0.2741(10) 0.5821(4)
C6 C 0.6915(11) 0.3479(9) 0.6088(4)
C7 C 0.8076(15) 0.0256(12) 0.7982(5)
H1 H 0.4425 0.2251 0.5833
C9 C 0.5376(11) 0.3532(9) 0.5534(4)
H2 H 0.7438 0.3478 0.6275
C10 C 0.7145(12) 0.4282(10) 0.5798(4)
H3 H 0.8483 0.0669 0.7774
C11 C 0.8515(12) 0.0003(10) 0.8344(5)
H5 H 0.4850 0.3527 0.5345
C13 C 0.6345(11) 0.4284(9) 0.5524(4)
H6 H 0.7826 0.4799 0.5793
H7 H 0.9226 0.0217 0.8367
C15 C 0.6639(10) 0.5138(9) 0.5210(4)
S1 S 0.7258(3) 0.6421(2) 0.54950(10)
C17 C 0.6527(9) 0.5038(8) 0.4785(4)
C19 C 0.7435(10) 0.7084(10) 0.5005(4)
S3 S 0.7102(3) 0.6226(2) 0.45150(10)
C20 C 0.6194(11) 0.4089(9) 0.4478(4)
C23 C 0.7772(10) 0.8104(9) 0.5005(4)
C24 C 0.6865(12) 0.3955(10) 0.4217(4)
C25 C 0.5165(12) 0.3302(10) 0.4443(4)
S5 S 0.7990(3) 0.8757(2) 0.45177(10)
S6 S 0.8137(3) 0.8947(2) 0.54982(10)
H9 H 0.7546 0.4478 0.4224
C29 C 0.6548(12) 0.3029(10) 0.3933(4)
C30 C 0.4816(12) 0.2390(10) 0.4161(4)
H10 H 0.4692 0.3381 0.4613
C35 C 0.5530(11) 0.2259(10) 0.3908(4)
H13 H 0.7027 0.2950 0.3767
H14 H 0.4124 0.1885 0.4143
C41 C 0.5166(12) 0.1262(10) 0.3597(4)
In1 In 0.46886(7) 0.96103(6) 0.30684(3)
O1_2 O 0.5279(7) 0.8936(6) 0.3615(3)
O2_2 O 0.3666(8) 0.8133(6) 0.3347(3)
O3_2 O 0.3094(8) 0.9252(8) 0.2664(3)
O6 O 0.4745(8) 0.8506(7) 0.2504(3)
O8 O 0.6194(8) 0.9884(8) 0.2753(3)
C1_2 C 0.4299(12) 0.8144(10) 0.3609(4)
C2_2 C 0.3583(14) 0.9937(13) 0.2421(5)
C3_2 C 0.4111(11) 0.7299(9) 0.3919(4)
C5_2 C 0.4885(13) 0.7259(10) 0.4179(4)
C6_2 C 0.3085(11) 0.6521(9) 0.3912(4)
C7_2 C 0.1924(15) 0.9744(12) 0.2018(5)
H1_2 H 0.5575 0.7749 0.4167
C9_2 C 0.4624(11) 0.6468(9) 0.4466(4)
H2_2 H 0.2562 0.6522 0.3725
C10_2 C 0.2855(12) 0.5718(10) 0.4202(4)
H3_2 H 0.1517 0.9331 0.2226
C11_2 C 0.1485(12) 0.9997(10) 0.1656(5)
H5_2 H 0.5150 0.6473 0.4655
C13_2 C 0.3655(11) 0.5716(9) 0.4476(4)
H6_2 H 0.2174 0.5201 0.4207
H7_2 H 0.0774 0.9783 0.1633
C15_2 C 0.3361(10) 0.4862(9) 0.4790(4)
S1_2 S 0.2742(3) 0.3579(2) 0.45050(10)
C17_2 C 0.3473(9) 0.4962(8) 0.5215(4)
C19_2 C 0.2565(10) 0.2916(10) 0.4995(4)
S3_2 S 0.2898(3) 0.3774(2) 0.54850(10)
C20_2 C 0.3806(11) 0.5911(9) 0.5522(4)
C23_2 C 0.2228(10) 0.1896(9) 0.4995(4)
C24_2 C 0.3135(12) 0.6045(10) 0.5783(4)
C25_2 C 0.4835(12) 0.6698(10) 0.5557(4)
S5_2 S 0.2010(3) 0.1243(2) 0.54823(10)
S6_2 S 0.1863(3) 0.1053(2) 0.45018(10)
H9_2 H 0.2454 0.5522 0.5776
C29_2 C 0.3452(12) 0.6971(10) 0.6067(4)
C30_2 C 0.5184(12) 0.7610(10) 0.5839(4)
H10_2 H 0.5308 0.6619 0.5387
C35_2 C 0.4470(11) 0.7741(10) 0.6092(4)
H13_2 H 0.2973 0.7050 0.6233
H14_2 H 0.5876 0.8115 0.5857
C41_2 C 0.4834(12) 0.8738(10) 0.6403(4)
O17 O 0.4159(8) 0.8781(6) 0.6638(3)
O18 O 0.5747(7) 0.9491(6) 0.6400(3)
C27_2 C 0.9748(16) 0.1654(13) 0.1353(6)
H11_2 H 0.9214 0.1244 0.1137
C31_2 C 0.9576(15) 0.2197(13) 0.1721(6)
H15_2 H 0.8903 0.2090 0.1753
O10 O 0.9275(10) 0.3268(8) 0.2431(3)
In2 In 0.96913(8) 0.45752(6) 0.29818(3)
H24_2 H 0.9990 0.2290 0.8719
H32_2 H 0.9631 0.3279 0.8242
O16 O 0.9912(9) 0.4351(7) 0.7588(3)
H17_2 H 0.9919 0.8257 0.5337
H20_2 H 0.9746 0.8100 0.4604
C56_2 C 0.9944(10) 0.7232(9) 0.4126(4)
H25_2 H 0.9552 0.7025 0.5826
H28_2 H 0.9275 0.6682 0.4109
O12_2 O 0.9856(7) 0.6163(6) 0.6479(3)
O14 O 0.9387(7) 0.5538(6) 0.3494(3)
O21 O 0.8980(7) 0.3836(6) 0.6702(3)
O22 O 0.9069(8) 0.5739(8) 0.7380(3)
C33_2 C 0.8429(10) 0.0035(8) 0.4796(4)
C34_2 C 0.8515(10) 0.0134(8) 0.5231(4)
C39_2 C 0.8633(11) 0.0854(9) 0.4482(4)
C40_2 C 0.8762(11) 0.1045(9) 0.5543(4)
C45_2 C 0.9542(11) 0.1667(9) 0.4462(4)
C46_2 C 0.7830(10) 0.0746(9) 0.4178(4)
C47_2 C 0.8114(11) 0.1081(10) 0.5833(4)
C48_2 C 0.9766(11) 0.1908(9) 0.5578(4)
C53_2 C 0.9779(12) 0.2429(10) 0.4167(4)
H18_2 H 0.7173 0.0183 0.4176
C54_2 C 0.8014(11) 0.1495(9) 0.3872(4)
H19_2 H 0.7469 0.0506 0.5838
C55_2 C 0.8367(11) 0.1958(9) 0.6132(4)
C61_2 C 0.8987(11) 0.2347(9) 0.3865(4)
H26_2 H 0.7471 0.1413 0.3671
C62_2 C 0.9314(11) 0.2785(9) 0.6146(4)
H27_2 H 0.7879 0.1959 0.6317
C65_2 C 0.9188(12) 0.3152(9) 0.3546(4)
C66_2 C 0.9666(12) 0.3751(9) 0.6478(4)
O11_2 O 0.8474(8) 0.3145(6) 0.3300(3)
O25 O 0.8373(9) 0.4768(8) 0.2557(3)
C26_2 C 0.8614(14) 0.8729(13) 0.0304(5)
S7_2 S 0.7795(5) 0.9077(5) 0.06166(15)
S8_2 S 0.9089(5) 0.8021(5) 0.05901(15)
C36_2 C 0.7744(15) 0.8324(13) 0.1053(6)
C37_2 C 0.8420(14) 0.7907(13) 0.1054(5)
C42_2 C 0.7253(15) 0.8496(13) 0.1456(6)
C43_2 C 0.8543(16) 0.7233(13) 0.1394(6)
C49_2 C 0.6198(14) 0.8001(13) 0.1414(6)
C50_2 C 0.7791(16) 0.9138(14) 0.1827(6)
C51_2 C 0.7787(17) 0.6650(15) 0.1661(7)
C52_2 C 0.9489(17) 0.7276(14) 0.1448(6)
C57_2 C 0.5632(16) 0.8150(14) 0.1785(6)
H21_2 H 0.5832 0.7578 0.1159
C58_2 C 0.7275(15) 0.9326(13) 0.2163(6)
H22_2 H 0.8514 0.9453 0.1855
C59_2 C 0.7947(16) 0.5985(13) 0.1972(6)
H23_2 H 0.7161 0.6673 0.1646
C60_2 C 0.9724(16) 0.6703(14) 0.1742(6)
C63_2 C 0.6217(14) 0.8807(12) 0.2131(5)
H29_2 H 0.4910 0.7803 0.1775
H30_2 H 0.7646 0.9797 0.2404
C64_2 C 0.8936(13) 0.6088(11) 0.2016(5)
H31_2 H 0.7414 0.5528 0.2127
C67_2 C 0.5707(15) 0.9090(13) 0.2500(5)
C68_2 C 0.9138(13) 0.5465(11) 0.2379(4)
O4_2 O 0.5443(10) 0.9504(8) 0.7508(3)
C4_2 C 0.6989(13) 0.9855(12) 0.7948(4)
C8_2 C 0.6368(15) 0.9286(13) 0.8263(6)
C12_2 C 0.6852(15) 0.9041(13) 0.8647(5)
H4_2 H 0.5655 0.9060 0.8234
C14_2 C 0.7916(14) 0.9434(12) 0.8674(5)
H8_2 H 0.6456 0.8641 0.8861
C16_2 C 0.8401(13) 0.9143(12) 0.9055(5)
S2_2 S 0.8176(4) 0.9560(4) 0.95896(13)
C18_2 C 0.8967(13) 0.8675(11) 0.9057(5)
C21_2 C 0.8666(13) 0.8866(12) 0.9880(5)
S4_2 S 0.9476(4) 0.8506(4) 0.95708(13)
C22_2 C 0.9254(15) 0.8227(12) 0.8664(5)
C28_2 C 0.8401(15) 0.7508(13) 0.8340(6)
C32_2 C 0.8687(16) 0.6985(14) 0.7995(6)
H12_2 H 0.7721 0.7393 0.8354
C38_2 C 0.9618(15) 0.7119(11) 0.7967(5)
H16_2 H 0.8167 0.6530 0.7783
C44_2 C 0.9835(17) 0.6493(14) 0.7591(6)
N1 N 0.3146(10) 0.7771(10) 0.7383(4)
H33 H 0.3479 0.8337 0.7244
H34 H 0.2497 0.7433 0.7257
C69 C 0.3120(15) 0.8062(14) 0.7835(6)
H35 H 0.2853 0.8544 0.7851
H36 H 0.3811 0.8374 0.7981
H37 H 0.2678 0.7465 0.7978
C70 C 0.3686(14) 0.7085(13) 0.7313(6)
H38 H 0.3714 0.6958 0.7002
H39 H 0.3296 0.6445 0.7438
H40 H 0.4379 0.7432 0.7457
N1_2 N 0.6854(10) 0.2229(10) 0.2617(4)
H33_2 H 0.6521 0.1663 0.2756
H34_2 H 0.7503 0.2567 0.2743
C69_2 C 0.6880(15) 0.1938(14) 0.2165(6)
H35_2 H 0.7147 0.1456 0.2149
H36_2 H 0.6189 0.1626 0.2019
H37_2 H 0.7322 0.2535 0.2022
C70_2 C 0.6314(14) 0.2915(13) 0.2687(6)
H38_2 H 0.6286 0.3042 0.2998
H39_2 H 0.6704 0.3555 0.2562
H40_2 H 0.5621 0.2568 0.2543
N2 N 0.2393(11) 0.6726(11) 0.2605(4)
H41 H 0.1752 0.6351 0.2684
H42 H 0.2690 0.7313 0.2778
C71 C 0.2336(17) 0.6940(15) 0.2153(7)
H43 H 0.1930 0.6309 0.1971
H44 H 0.3025 0.7282 0.2058
H45 H 0.2015 0.7373 0.2127
C72 C 0.3046(13) 0.6124(12) 0.2678(5)
H46 H 0.2686 0.5458 0.2517
H47 H 0.3123 0.6047 0.2987
H48 H 0.3720 0.6503 0.2573
N2_2 N 0.7607(11) 0.3274(11) 0.7395(4)
H41_2 H 0.8248 0.3649 0.7316
H42_2 H 0.7310 0.2687 0.7222
C71_2 C 0.7664(17) 0.3060(15) 0.7847(7)
H43_2 H 0.8070 0.3691 0.8029
H44_2 H 0.6975 0.2718 0.7942
H45_2 H 0.7985 0.2627 0.7873
C72_2 C 0.6954(13) 0.3876(12) 0.7322(5)
H46_2 H 0.7314 0.4542 0.7483
H47_2 H 0.6877 0.3953 0.7013
H48_2 H 0.6280 0.3497 0.7427
loop_
_geom_bond_atom_site_label_1
_geom_bond_atom_site_label_2
_geom_bond_site_symmetry_1
_geom_bond_site_symmetry_2
C8 C4 1_555 1_555
C12 C8 1_555 1_555
H4 C8 1_555 1_555
H8 C12 1_555 1_555
C16 C14 1_555 1_555
S2 C16 1_555 1_555
C18 C16 1_555 1_555
C21 S2 1_555 1_555
S4 C18 1_555 1_555
C22 C18 1_555 1_555
C28 C22 1_555 1_555
C32 C28 1_555 1_555
H12 C28 1_555 1_555
H16 C32 1_555 1_555
C44 C38 1_555 1_555
O9 C44 1_555 1_555
C12 C14 1_555 1_555
C21 S4 1_555 1_555
C32 C38 1_555 1_555
S7 C26 1_555 1_555
S8 C26 1_555 1_555
C36 S7 1_555 1_555
C37 S8 1_555 1_555
C42 C36 1_555 1_555
C43 C37 1_555 1_555
C49 C42 1_555 1_555
C50 C42 1_555 1_555
C51 C43 1_555 1_555
C52 C43 1_555 1_555
C57 C49 1_555 1_555
H21 C49 1_555 1_555
C58 C50 1_555 1_555
H22 C50 1_555 1_555
C59 C51 1_555 1_555
H23 C51 1_555 1_555
C60 C52 1_555 1_555
C63 C57 1_555 1_555
H29 C57 1_555 1_555
H30 C58 1_555 1_555
C64 C59 1_555 1_555
H31 C59 1_555 1_555
C67 C63 1_555 1_555
C68 C64 1_555 1_555
O15 C68 1_555 1_555
O19 C67 1_555 1_555
O20 C67 1_555 1_555
In3 O19 1_555 1_555
In7 O15 1_555 1_555
C36 C37 1_555 1_555
C58 C63 1_555 1_555
C60 C64 1_555 1_555
O20 In3 1_555 1_555
C39 C33 1_555 1_555
C40 C34 1_555 1_555
C45 C39 1_555 1_555
C46 C39 1_555 1_555
C47 C40 1_555 1_555
C48 C40 1_555 1_555
C53 C45 1_555 1_555
H18 C46 1_555 1_555
C54 C46 1_555 1_555
H19 C47 1_555 1_555
C55 C47 1_555 1_555
C61 C53 1_555 1_555
H26 C54 1_555 1_555
C62 C55 1_555 1_555
H27 C55 1_555 1_555
C65 C61 1_555 1_555
C66 C62 1_555 1_555
O11 C65 1_555 1_555
O13 C66 1_555 1_555
In7 O11 1_555 1_555
O23 In7 1_555 1_555
O24 In7 1_555 1_555
C33 C34 1_555 1_555
C54 C61 1_555 1_555
H28 C56 1_555 1_555
H11 C27 1_555 1_555
C31 C27 1_555 1_555
H15 C31 1_555 1_555
In3 O1 1_555 1_555
O1 C1 1_555 1_555
O2 In3 1_555 1_555
O3 In3 1_555 1_555
C1 O2 1_555 1_555
C2 O3 1_555 1_555
C3 C1 1_555 1_555
C5 C3 1_555 1_555
C6 C3 1_555 1_555
H1 C5 1_555 1_555
C9 C5 1_555 1_555
H2 C6 1_555 1_555
C10 C6 1_555 1_555
H3 C7 1_555 1_555
C11 C7 1_555 1_555
H5 C9 1_555 1_555
C13 C9 1_555 1_555
H6 C10 1_555 1_555
H7 C11 1_555 1_555
C15 C13 1_555 1_555
S1 C15 1_555 1_555
C17 C15 1_555 1_555
C19 S1 1_555 1_555
S3 C17 1_555 1_555
C20 C17 1_555 1_555
C23 C19 1_555 1_555
C24 C20 1_555 1_555
C25 C20 1_555 1_555
S5 C23 1_555 1_555
S6 C23 1_555 1_555
H9 C24 1_555 1_555
C29 C24 1_555 1_555
C30 C25 1_555 1_555
H10 C25 1_555 1_555
C35 C29 1_555 1_555
H13 C29 1_555 1_555
H14 C30 1_555 1_555
C41 C35 1_555 1_555
O5 C41 1_555 1_555
O7 C41 1_555 1_555
C10 C13 1_555 1_555
C19 S3 1_555 1_555
C30 C35 1_555 1_555
In1 O1_2 1_555 1_555
O1_2 C1_2 1_555 1_555
O2_2 In1 1_555 1_555
O3_2 In1 1_555 1_555
O6 In1 1_555 1_555
O8 In1 1_555 1_555
C1_2 O2_2 1_555 1_555
C2_2 O3_2 1_555 1_555
C3_2 C1_2 1_555 1_555
C5_2 C3_2 1_555 1_555
C6_2 C3_2 1_555 1_555
H1_2 C5_2 1_555 1_555
C9_2 C5_2 1_555 1_555
H2_2 C6_2 1_555 1_555
C10_2 C6_2 1_555 1_555
H3_2 C7_2 1_555 1_555
C11_2 C7_2 1_555 1_555
H5_2 C9_2 1_555 1_555
C13_2 C9_2 1_555 1_555
H6_2 C10_2 1_555 1_555
H7_2 C11_2 1_555 1_555
C15_2 C13_2 1_555 1_555
S1_2 C15_2 1_555 1_555
C17_2 C15_2 1_555 1_555
C19_2 S1_2 1_555 1_555
S3_2 C17_2 1_555 1_555
C20_2 C17_2 1_555 1_555
C23_2 C19_2 1_555 1_555
C24_2 C20_2 1_555 1_555
C25_2 C20_2 1_555 1_555
S5_2 C23_2 1_555 1_555
S6_2 C23_2 1_555 1_555
H9_2 C24_2 1_555 1_555
C29_2 C24_2 1_555 1_555
C30_2 C25_2 1_555 1_555
H10_2 C25_2 1_555 1_555
C35_2 C29_2 1_555 1_555
H13_2 C29_2 1_555 1_555
H14_2 C30_2 1_555 1_555
C41_2 C35_2 1_555 1_555
O17 C41_2 1_555 1_555
O18 C41_2 1_555 1_555
C10_2 C13_2 1_555 1_555
C19_2 S3_2 1_555 1_555
C30_2 C35_2 1_555 1_555
H11_2 C27_2 1_555 1_555
C31_2 C27_2 1_555 1_555
H15_2 C31_2 1_555 1_555
O10 In2 1_555 1_555
H28_2 C56_2 1_555 1_555
O14 In2 1_555 1_555
C39_2 C33_2 1_555 1_555
C40_2 C34_2 1_555 1_555
C45_2 C39_2 1_555 1_555
C46_2 C39_2 1_555 1_555
C47_2 C40_2 1_555 1_555
C48_2 C40_2 1_555 1_555
C53_2 C45_2 1_555 1_555
H18_2 C46_2 1_555 1_555
C54_2 C46_2 1_555 1_555
H19_2 C47_2 1_555 1_555
C55_2 C47_2 1_555 1_555
C61_2 C53_2 1_555 1_555
H26_2 C54_2 1_555 1_555
C62_2 C55_2 1_555 1_555
H27_2 C55_2 1_555 1_555
C65_2 C61_2 1_555 1_555
C66_2 C62_2 1_555 1_555
O11_2 C65_2 1_555 1_555
O21 C66_2 1_555 1_555
In2 O11_2 1_555 1_555
O25 In2 1_555 1_555
C33_2 C34_2 1_555 1_555
C54_2 C61_2 1_555 1_555
S7_2 C26_2 1_555 1_555
S8_2 C26_2 1_555 1_555
C36_2 S7_2 1_555 1_555
C37_2 S8_2 1_555 1_555
C42_2 C36_2 1_555 1_555
C43_2 C37_2 1_555 1_555
C49_2 C42_2 1_555 1_555
C50_2 C42_2 1_555 1_555
C51_2 C43_2 1_555 1_555
C52_2 C43_2 1_555 1_555
C57_2 C49_2 1_555 1_555
H21_2 C49_2 1_555 1_555
C58_2 C50_2 1_555 1_555
H22_2 C50_2 1_555 1_555
C59_2 C51_2 1_555 1_555
H23_2 C51_2 1_555 1_555
C60_2 C52_2 1_555 1_555
C63_2 C57_2 1_555 1_555
H29_2 C57_2 1_555 1_555
H30_2 C58_2 1_555 1_555
C64_2 C59_2 1_555 1_555
H31_2 C59_2 1_555 1_555
C67_2 C63_2 1_555 1_555
C68_2 C64_2 1_555 1_555
O25 C68_2 1_555 1_555
O6 C67_2 1_555 1_555
O8 C67_2 1_555 1_555
C36_2 C37_2 1_555 1_555
C58_2 C63_2 1_555 1_555
C60_2 C64_2 1_555 1_555
C8_2 C4_2 1_555 1_555
C12_2 C8_2 1_555 1_555
H4_2 C8_2 1_555 1_555
H8_2 C12_2 1_555 1_555
C16_2 C14_2 1_555 1_555
S2_2 C16_2 1_555 1_555
C18_2 C16_2 1_555 1_555
C21_2 S2_2 1_555 1_555
S4_2 C18_2 1_555 1_555
C22_2 C18_2 1_555 1_555
C28_2 C22_2 1_555 1_555
C32_2 C28_2 1_555 1_555
H12_2 C28_2 1_555 1_555
H16_2 C32_2 1_555 1_555
C44_2 C38_2 1_555 1_555
O22 C44_2 1_555 1_555
C12_2 C14_2 1_555 1_555
C21_2 S4_2 1_555 1_555
C32_2 C38_2 1_555 1_555
N1 H33 1_555 1_555
H34 N1 1_555 1_555
C69 N1 1_555 1_555
H35 C69 1_555 1_555
H36 C69 1_555 1_555
H37 C69 1_555 1_555
C70 N1 1_555 1_555
H38 C70 1_555 1_555
H39 C70 1_555 1_555
H40 C70 1_555 1_555
N1_2 H33_2 1_555 1_555
H34_2 N1_2 1_555 1_555
C69_2 N1_2 1_555 1_555
H35_2 C69_2 1_555 1_555
H36_2 C69_2 1_555 1_555
H37_2 C69_2 1_555 1_555
C70_2 N1_2 1_555 1_555
H38_2 C70_2 1_555 1_555
H39_2 C70_2 1_555 1_555
H40_2 C70_2 1_555 1_555
N2 H41 1_555 1_555
H42 N2 1_555 1_555
C71 N2 1_555 1_555
H43 C71 1_555 1_555
H44 C71 1_555 1_555
H45 C71 1_555 1_555
C72 N2 1_555 1_555
H46 C72 1_555 1_555
H47 C72 1_555 1_555
H48 C72 1_555 1_555
N2_2 H41_2 1_555 1_555
H42_2 N2_2 1_555 1_555
C71_2 N2_2 1_555 1_555
H43_2 C71_2 1_555 1_555
H44_2 C71_2 1_555 1_555
H45_2 C71_2 1_555 1_555
C72_2 N2_2 1_555 1_555
H46_2 C72_2 1_555 1_555
H47_2 C72_2 1_555 1_555
H48_2 C72_2 1_555 1_555

#END
