
###############################################################################
#
# This file contains modified crystal structure data generated from the
# MOF subset of the Cambridge Structural Database (CSD) v543 
# hosted by the Cambridge Crystallographic Data Centre (CCDC).
#
# This work is licensed under the Creative Commons
# Attribution-NonCommercial-ShareAlike 4.0 International License.
# To view a copy of this license, visit
# http://creativecommons.org/licenses/by-nc-sa/4.0/
# or send a letter to
# Creative Commons, PO Box 1866, Mountain View, CA 94042, USA.
#
# CIF created using the CSD Python API on 29 September 2022
# The structure has been converted into the P1 space group
# The structure has a 3D framework
# The original CSD entry LEPTUY is in the triclinic crystal system
# The framework has been calculated to contain at least 10.0% void space
# The void calculation uses a probe of radius 1.32A, grid spacing 0.4
# The framework is charged, counterions have been retained in the structure
#
###############################################################################

data_LEPTUY
_chemical_formula_moiety         '(C168 H136 In4 N2 O32 S16 2-)n'
_symmetry_cell_setting           triclinic
_symmetry_space_group_name_H-M   'P 1'
_symmetry_Int_Tables_number      1
_space_group_name_Hall           'P 1'
loop_
_symmetry_equiv_pos_site_id
_symmetry_equiv_pos_as_xyz
1 x,y,z
_cell_length_a                   12.1284(5)
_cell_length_b                   15.2917(7)
_cell_length_c                   30.6531(13)
_cell_angle_alpha                83.195(2)
_cell_angle_beta                 88.220(2)
_cell_angle_gamma                88.062(2)
_cell_volume                     5639.67
loop_
_atom_site_label
_atom_site_type_symbol
_atom_site_fract_x
_atom_site_fract_y
_atom_site_fract_z
In1 In 0.05334(2) 0.72920(2) 0.18400(2)
O1 O 0.0213(2) 0.84533(18) 0.13609(9)
O17 O 0.0741(2) 0.59485(18) 0.15960(9)
O18 O 0.1860(2) 0.69711(18) 0.13523(9)
O23 O 0.1910(2) 0.8042(2) 0.20937(10)
O24 O 0.1520(2) 0.6720(2) 0.24133(9)
O19 O 0.1294(2) 0.72531(18) 0.84089(9)
O20 O 0.0279(2) 0.61951(17) 0.82642(9)
O21 O 0.1351(2) 0.83903(19) 0.75508(10)
O22 O 0.0973(2) 0.7085(2) 0.73615(10)
C1 C 0.6733(3) 0.0565(3) 0.00742(14)
C7 C 0.8455(3) 0.0116(3) 0.04359(16)
H4 H 0.873277 0.066738 0.031324
C17 C 0.3593(3) 0.3973(3) 0.01368(15)
C18 C 0.3063(3) 0.4552(3) 0.04378(15)
C19 C 0.2205(3) 0.4235(3) 0.07388(14)
H9 H 0.195823 0.365219 0.073960
C20 C 0.1743(3) 0.4763(3) 0.10232(15)
H10 H 0.115980 0.454227 0.121491
C21 C 0.2086(3) 0.5612(3) 0.10462(14)
C22 C 0.2939(3) 0.5926(3) 0.07644(14)
H11 H 0.319396 0.650226 0.077727
C23 C 0.3436(3) 0.5395(3) 0.04564(15)
H12 H 0.401888 0.561630 0.026493
C24 C 0.1541(3) 0.6179(3) 0.13484(14)
S1 S 0.59986(8) 0.13408(7) 0.03585(4)
S3 S 0.43934(8) 0.30988(7) 0.03812(4)
C9 C 0.6688(3) 0.0661(3) 0.96180(13)
C10 C 0.7244(3) 0.0095(3) 0.93343(14)
H7 H 0.887642 0.021278 0.844926
C15 C 0.7864(3) 0.0477(3) 0.89637(14)
H8 H 0.788469 0.109979 0.890295
C25 C 0.3527(3) 0.4044(3) 0.96834(15)
C26 C 0.2855(3) 0.4677(3) 0.93992(15)
C27 C 0.3186(3) 0.5545(3) 0.92872(15)
H13 H 0.383365 0.573728 0.940870
C28 C 0.2571(3) 0.6131(3) 0.89984(15)
H14 H 0.277838 0.672775 0.893918
C29 C 0.1669(3) 0.5851(3) 0.87994(15)
C30 C 0.1346(3) 0.4974(3) 0.88973(15)
H15 H 0.070864 0.478066 0.876885
C31 C 0.1961(3) 0.4391(3) 0.91819(15)
H16 H 0.177302 0.378811 0.922992
C32 C 0.1036(3) 0.6462(3) 0.84712(14)
C33 C 0.5480(3) 0.1937(3) 0.98831(15)
C34 C 0.4767(3) 0.2662(3) 0.98934(14)
S2 S 0.59151(8) 0.15709(6) 0.93847(3)
S4 S 0.42270(8) 0.32275(6) 0.94172(4)
C2 C 0.7407(3) 0.9880(3) 0.03324(14)
C3 C 0.7028(3) 0.9066(3) 0.05047(15)
H1 H 0.631983 0.889276 0.042967
C4 C 0.7667(3) 0.8504(3) 0.07846(14)
H2 H 0.739511 0.794707 0.090231
C5 C 0.8696(3) 0.8742(3) 0.08947(14)
C6 C 0.9094(4) 0.9553(3) 0.07159(16)
H3 H 0.980881 0.971880 0.078676
C8 C 0.9334(3) 0.8162(3) 0.12257(14)
O2 O 0.9042(2) 0.74049(18) 0.13679(9)
O25 O 0.9487(2) 0.8129(2) 0.22600(10)
O26 O 0.9045(2) 0.6748(2) 0.23576(9)
C11 C 0.7175(3) 0.9175(3) 0.94022(14)
H5 H 0.675041 0.890794 0.964442
C12 C 0.7717(3) 0.8654(3) 0.91220(13)
H6 H 0.764673 0.803255 0.916836
C13 C 0.8365(3) 0.9029(3) 0.87719(14)
C14 C 0.8439(3) 0.9953(3) 0.86895(14)
C16 C 0.8970(3) 0.8494(3) 0.84665(14)
C35 C 0.5614(3) 0.8564(3) 0.58104(15)
C36 C 0.6317(3) 0.8380(3) 0.62075(15)
C37 C 0.6235(4) 0.7590(3) 0.64787(15)
H17 H 0.569452 0.718219 0.642714
C38 C 0.6948(3) 0.7398(3) 0.68268(15)
H18 H 0.689150 0.685793 0.701282
C39 C 0.7738(4) 0.7990(3) 0.69034(15)
C40 C 0.7825(3) 0.8768(3) 0.66320(15)
H19 H 0.837419 0.917064 0.668210
C41 C 0.7116(3) 0.8972(3) 0.62854(15)
H20 H 0.717586 0.951432 0.610129
C42 C 0.8511(4) 0.7869(3) 0.72703(16)
C43 C 0.4457(3) 0.8559(3) 0.58041(14)
C44 C 0.3695(3) 0.8320(3) 0.62012(15)
C45 C 0.3738(3) 0.8864(3) 0.65484(14)
H21 H 0.424687 0.932689 0.652919
C46 C 0.3025(3) 0.8711(3) 0.69192(15)
H22 H 0.304622 0.904920 0.715935
C47 C 0.2268(3) 0.8017(3) 0.69129(15)
C48 C 0.2252(4) 0.7502(3) 0.65877(15)
H23 H 0.176536 0.702448 0.660531
C49 C 0.2985(3) 0.7685(3) 0.62113(15)
H24 H 0.295631 0.734792 0.597098
C50 C 0.1480(3) 0.7803(3) 0.73032(15)
C51 C 0.4686(3) 0.8281(3) 0.38116(15)
C52 C 0.4126(3) 0.7966(3) 0.34314(15)
C53 C 0.4071(4) 0.8542(3) 0.30449(15)
H25 H 0.449454 0.905804 0.300851
C54 C 0.3392(3) 0.8357(3) 0.27126(15)
H26 H 0.335289 0.875423 0.245015
C55 C 0.2776(3) 0.7612(3) 0.27561(15)
C56 C 0.2840(4) 0.7027(3) 0.31514(15)
H27 H 0.241769 0.651039 0.318899
C57 C 0.3515(4) 0.7211(3) 0.34802(15)
H28 H 0.356122 0.681576 0.374298
C58 C 0.2045(3) 0.7420(3) 0.23992(15)
C59 C 0.5828(3) 0.8383(3) 0.37878(15)
C60 C 0.6606(4) 0.8284(3) 0.34200(16)
C61 C 0.6832(4) 0.8820(3) 0.30491(18)
H29 H 0.651945 0.940159 0.300951
C62 C 0.7501(4) 0.8530(3) 0.27346(18)
H30 H 0.755724 0.889146 0.246099
C63 C 0.8116(3) 0.7741(3) 0.27801(15)
C64 C 0.7956(4) 0.7231(4) 0.31877(17)
H31 H 0.838928 0.670580 0.325352
C65 C 0.7179(4) 0.7475(3) 0.34975(18)
H32 H 0.703877 0.709469 0.376001
C66 C 0.8965(4) 0.7506(3) 0.24530(15)
C67 C 0.5084(3) 0.8826(3) 0.49959(15)
C68 C 0.5141(3) 0.8817(3) 0.45576(15)
In2 In 0.99510(2) 0.75697(2) 0.79081(2)
O3 O 0.8729(2) 0.77055(19) 0.84768(9)
O4 O 0.9695(2) 0.88246(18) 0.82060(9)
O9 O 0.8516(2) 0.7137(2) 0.75042(10)
O10 O 0.9156(2) 0.8434(2) 0.73629(10)
S5 S 0.62455(8) 0.89261(7) 0.53049(4)
S6 S 0.38422(9) 0.87994(7) 0.52975(4)
S7 S 0.39520(9) 0.86810(7) 0.42593(4)
S8 S 0.63605(8) 0.88417(7) 0.42348(4)
In6 In 0.00490(2) 0.24303(2) 0.20919(2)
C11_2 C 0.2825(3) 0.0825(3) 0.05978(14)
H5_2 H 0.324959 0.109206 0.035558
C12_2 C 0.2283(3) 0.1346(3) 0.08780(13)
H6_2 H 0.235327 0.196745 0.083164
C13_2 C 0.1635(3) 0.0971(3) 0.12281(14)
C14_2 C 0.1561(3) 0.0047(3) 0.13105(14)
C16_2 C 0.1030(3) 0.1506(3) 0.15335(14)
C35_2 C 0.4386(3) 0.1436(3) 0.41896(15)
C36_2 C 0.3683(3) 0.1620(3) 0.37925(15)
C37_2 C 0.3765(4) 0.2410(3) 0.35213(15)
H17_2 H 0.430548 0.281781 0.357286
C38_2 C 0.3052(3) 0.2602(3) 0.31732(15)
H18_2 H 0.310850 0.314207 0.298718
C39_2 C 0.2262(4) 0.2010(3) 0.30966(15)
C40_2 C 0.2175(3) 0.1232(3) 0.33680(15)
H19_2 H 0.162581 0.082936 0.331790
C41_2 C 0.2884(3) 0.1028(3) 0.37146(15)
H20_2 H 0.282414 0.048568 0.389871
C42_2 C 0.1489(4) 0.2131(3) 0.27297(16)
C43_2 C 0.5543(3) 0.1441(3) 0.41959(14)
C44_2 C 0.6305(3) 0.1680(3) 0.37988(15)
C45_2 C 0.6262(3) 0.1136(3) 0.34516(14)
H21_2 H 0.575313 0.067311 0.347081
C46_2 C 0.6975(3) 0.1289(3) 0.30808(15)
H22_2 H 0.695378 0.095080 0.284065
C47_2 C 0.7732(3) 0.1983(3) 0.30871(15)
C48_2 C 0.7748(4) 0.2498(3) 0.34123(15)
H23_2 H 0.823464 0.297552 0.339469
C49_2 C 0.7015(3) 0.2315(3) 0.37887(15)
H24_2 H 0.704369 0.265208 0.402902
C50_2 C 0.8520(3) 0.2197(3) 0.26968(15)
C51_2 C 0.5314(3) 0.1719(3) 0.61884(15)
C52_2 C 0.5874(3) 0.2034(3) 0.65686(15)
C53_2 C 0.5929(4) 0.1458(3) 0.69551(15)
H25_2 H 0.550546 0.094196 0.699149
C54_2 C 0.6608(3) 0.1643(3) 0.72874(15)
H26_2 H 0.664711 0.124577 0.754985
C55_2 C 0.7224(3) 0.2388(3) 0.72439(15)
C56_2 C 0.7160(4) 0.2973(3) 0.68486(15)
H27_2 H 0.758231 0.348961 0.681101
C57_2 C 0.6485(4) 0.2789(3) 0.65198(15)
H28_2 H 0.643878 0.318424 0.625702
C58_2 C 0.7955(3) 0.2580(3) 0.76008(15)
C59_2 C 0.4172(3) 0.1617(3) 0.62122(15)
C60_2 C 0.3394(4) 0.1716(3) 0.65800(16)
C61_2 C 0.3168(4) 0.1180(3) 0.69509(18)
H29_2 H 0.348055 0.059841 0.699049
C62_2 C 0.2499(4) 0.1470(3) 0.72654(18)
H30_2 H 0.244276 0.110854 0.753901
C63_2 C 0.1884(3) 0.2259(3) 0.72199(15)
C64_2 C 0.2044(4) 0.2769(4) 0.68123(17)
H31_2 H 0.161072 0.329420 0.674648
C65_2 C 0.2821(4) 0.2525(3) 0.65025(18)
H32_2 H 0.296123 0.290531 0.623999
C66_2 C 0.1035(4) 0.2494(3) 0.75470(15)
C67_2 C 0.4916(3) 0.1174(3) 0.50041(15)
C68_2 C 0.4859(3) 0.1183(3) 0.54424(15)
O3_2 O 0.1271(2) 0.22945(19) 0.15232(9)
O4_2 O 0.0305(2) 0.11754(18) 0.17940(9)
O9_2 O 0.1484(2) 0.2863(2) 0.24958(10)
O10_2 O 0.0844(2) 0.1566(2) 0.26371(10)
O11 O 0.8649(2) 0.16097(19) 0.24492(10)
O12 O 0.9027(2) 0.2915(2) 0.26385(10)
O13 O 0.8090(2) 0.1958(2) 0.79063(10)
O14 O 0.8480(2) 0.3280(2) 0.75867(9)
O15 O 0.0513(2) 0.1871(2) 0.77400(10)
O16 O 0.0955(2) 0.3252(2) 0.76424(9)
S5_2 S 0.37545(8) 0.10739(7) 0.46951(4)
S6_2 S 0.61578(9) 0.12006(7) 0.47025(4)
S7_2 S 0.60480(9) 0.13190(7) 0.57407(4)
S8_2 S 0.36395(8) 0.11583(7) 0.57652(4)
In3 In 0.94666(2) 0.27080(2) 0.81600(2)
C2_2 C 0.2593(3) 0.0120(3) 0.96676(14)
C3_2 C 0.2972(3) 0.0934(3) 0.94953(15)
H1_2 H 0.368017 0.110724 0.957033
C4_2 C 0.2333(3) 0.1496(3) 0.92154(14)
H2_2 H 0.260489 0.205293 0.909769
C5_2 C 0.1304(3) 0.1258(3) 0.91053(14)
C6_2 C 0.0906(4) 0.0447(3) 0.92841(16)
H3_2 H 0.019119 0.028120 0.921324
C8_2 C 0.0666(3) 0.1838(3) 0.87743(14)
O2_2 O 0.0958(2) 0.25951(18) 0.86321(9)
C9_2 C 0.3312(3) 0.9339(3) 0.03820(13)
C10_2 C 0.2756(3) 0.9905(3) 0.06657(14)
H7_2 H 0.112358 0.978722 0.155074
C15_2 C 0.2136(3) 0.9523(3) 0.10363(14)
H8_2 H 0.211531 0.890021 0.109705
C25_2 C 0.6473(3) 0.5956(3) 0.03166(15)
C26_2 C 0.7145(3) 0.5323(3) 0.06008(15)
C27_2 C 0.6814(3) 0.4455(3) 0.07128(15)
H13_2 H 0.616635 0.426272 0.059130
C28_2 C 0.7429(3) 0.3869(3) 0.10016(15)
H14_2 H 0.722162 0.327225 0.106082
C29_2 C 0.8331(3) 0.4149(3) 0.12006(15)
C30_2 C 0.8654(3) 0.5026(3) 0.11027(15)
H15_2 H 0.929136 0.521934 0.123115
C31_2 C 0.8039(3) 0.5609(3) 0.08181(15)
H16_2 H 0.822698 0.621189 0.077008
C32_2 C 0.8964(3) 0.3538(3) 0.15288(14)
C33_2 C 0.4520(3) 0.8063(3) 0.01169(15)
C34_2 C 0.5233(3) 0.7338(3) 0.01066(14)
O7 O 0.8706(2) 0.27469(18) 0.15911(9)
O8 O 0.9721(2) 0.38049(17) 0.17358(9)
S2_2 S 0.40849(8) 0.84291(6) 0.06153(3)
S4_2 S 0.57730(8) 0.67725(6) 0.05828(4)
C1_2 C 0.3267(3) 0.9435(3) 0.99258(14)
C7_2 C 0.1545(3) 0.9884(3) 0.95641(16)
H4_2 H 0.126723 0.933262 0.968676
C17_2 C 0.6407(3) 0.6027(3) 0.98632(15)
C18_2 C 0.6937(3) 0.5448(3) 0.95622(15)
C19_2 C 0.7795(3) 0.5765(3) 0.92612(14)
H9_2 H 0.804177 0.634781 0.926040
C20_2 C 0.8257(3) 0.5237(3) 0.89768(15)
H10_2 H 0.884020 0.545773 0.878509
C21_2 C 0.7914(3) 0.4388(3) 0.89538(14)
C22_2 C 0.7061(3) 0.4074(3) 0.92356(14)
H11_2 H 0.680604 0.349774 0.922273
C23_2 C 0.6564(3) 0.4605(3) 0.95436(15)
H12_2 H 0.598112 0.438370 0.973507
C24_2 C 0.8459(3) 0.3821(3) 0.86516(14)
O5 O 0.9259(2) 0.40515(18) 0.84040(9)
O6 O 0.8140(2) 0.30289(18) 0.86477(9)
S1_2 S 0.40014(8) 0.86592(7) 0.96415(4)
S3_2 S 0.56066(8) 0.69012(7) 0.96188(4)
O1_2 O 0.9787(2) 0.15467(18) 0.86391(9)
C74 C 0.0130(4) 0.4455(3) 0.35593(18)
H45 H 0.079852 0.463703 0.369813
C75 C 0.0500(4) 0.4032(3) 0.31694(17)
H47 H 0.120503 0.370454 0.323420
C76 C 0.0665(4) 0.4686(3) 0.27507(17)
H49 H 0.106920 0.438764 0.252606
H50 H 0.108684 0.518446 0.282015
C77 C 0.0209(4) 0.4209(3) 0.46118(18)
H51 H 0.055434 0.474353 0.446039
H52 H 0.006371 0.430895 0.492184
C78 C 0.1031(4) 0.3437(3) 0.46023(18)
H53 H 0.071030 0.290618 0.476774
H54 H 0.116185 0.331786 0.429425
C79 C 0.2117(4) 0.3606(3) 0.47973(18)
H55 H 0.213431 0.330808 0.510196
H56 H 0.217210 0.424674 0.481074
C80 C 0.3120(4) 0.3282(3) 0.45355(16)
H57 H 0.287153 0.291978 0.431652
H58 H 0.362074 0.292965 0.473646
H59 H 0.350862 0.378984 0.438668
C69 C 0.8333(4) 0.4854(3) 0.42778(17)
H33 H 0.857412 0.510200 0.397841
H34 H 0.850046 0.529994 0.447348
C70 C 0.7078(4) 0.4846(3) 0.42688(18)
H35 H 0.685991 0.457219 0.456654
H36 H 0.693232 0.440104 0.406963
C71 C 0.6182(4) 0.5565(3) 0.41600(18)
H37 H 0.632487 0.585327 0.385784
H38 H 0.624024 0.601822 0.436302
C72 C 0.4991(4) 0.5228(3) 0.41924(18)
H39 H 0.499909 0.461129 0.432318
H40 H 0.468741 0.527362 0.389775
H41 H 0.453286 0.558546 0.437674
C73 C 0.9422(4) 0.3949(3) 0.39227(17)
H42 H 0.975420 0.334509 0.395128
H43 H 0.870301 0.390359 0.378394
H44 H 0.971034 0.500162 0.345302
H46 H 0.994806 0.359989 0.311235
H48 H 0.994400 0.490014 0.263982
C81 C 0.8499(4) 0.3350(3) 0.46600(16)
H60 H 0.896714 0.280701 0.466070
H61 H 0.781588 0.325654 0.450542
C82 C 0.8188(4) 0.3477(3) 0.51345(17)
H62 H 0.868553 0.390385 0.523857
H63 H 0.742360 0.372235 0.514946
C83 C 0.8270(4) 0.2626(3) 0.54261(17)
H64 H 0.872352 0.219717 0.527418
H65 H 0.752320 0.238724 0.548001
C84 C 0.8779(4) 0.2720(3) 0.58646(17)
H66 H 0.881363 0.214446 0.604284
H67 H 0.952530 0.294346 0.581383
H68 H 0.832465 0.313358 0.601971
N1 N 0.9104(2) 0.4101(2) 0.44003(11)
C69_2 C 0.1667(4) 0.5146(3) 0.57222(17)
H33_2 H 0.142588 0.489800 0.602159
H34_2 H 0.149954 0.470006 0.552652
C70_2 C 0.2922(4) 0.5154(3) 0.57312(18)
H35_2 H 0.314009 0.542781 0.543346
H36_2 H 0.306768 0.559896 0.593037
C71_2 C 0.3818(4) 0.4435(3) 0.58400(18)
H37_2 H 0.367513 0.414673 0.614216
H38_2 H 0.375976 0.398178 0.563698
C72_2 C 0.5009(4) 0.4772(3) 0.58076(18)
H39_2 H 0.500091 0.538871 0.567682
H40_2 H 0.531259 0.472638 0.610225
H41_2 H 0.546714 0.441454 0.562326
C73_2 C 0.0578(4) 0.6051(3) 0.60773(17)
H42_2 H 0.024580 0.665491 0.604872
H43_2 H 0.129699 0.609641 0.621606
H44_2 H 0.028966 0.499838 0.654698
H46_2 H 0.005194 0.640011 0.688765
H48_2 H 0.005600 0.509986 0.736018
C81_2 C 0.1501(4) 0.6650(3) 0.53400(16)
H60_2 H 0.103286 0.719299 0.533930
H61_2 H 0.218412 0.674346 0.549458
C82_2 C 0.1812(4) 0.6523(3) 0.48655(17)
H62_2 H 0.131447 0.609615 0.476143
H63_2 H 0.257640 0.627765 0.485054
C83_2 C 0.1730(4) 0.7374(3) 0.45739(17)
H64_2 H 0.127648 0.780283 0.472582
H65_2 H 0.247680 0.761276 0.451999
C84_2 C 0.1221(4) 0.7280(3) 0.41354(17)
H66_2 H 0.118637 0.785554 0.395716
H67_2 H 0.047470 0.705654 0.418617
H68_2 H 0.167535 0.686642 0.398029
N1_2 N 0.0896(2) 0.5899(2) 0.55997(11)
C74_2 C 0.9870(4) 0.5545(3) 0.64407(18)
H45_2 H 0.920148 0.536297 0.630187
C75_2 C 0.9500(4) 0.5968(3) 0.68306(17)
H47_2 H 0.879497 0.629546 0.676580
C76_2 C 0.9335(4) 0.5314(3) 0.72493(17)
H49_2 H 0.893080 0.561236 0.747394
H50_2 H 0.891316 0.481554 0.717985
C77_2 C 0.9791(4) 0.5791(3) 0.53882(18)
H51_2 H 0.944566 0.525647 0.553961
H52_2 H 0.993629 0.569105 0.507816
C78_2 C 0.8969(4) 0.6563(3) 0.53977(18)
H53_2 H 0.928970 0.709382 0.523226
H54_2 H 0.883815 0.668214 0.570575
C79_2 C 0.7883(4) 0.6394(3) 0.52027(18)
H55_2 H 0.786569 0.669192 0.489804
H56_2 H 0.782790 0.575326 0.518926
C80_2 C 0.6880(4) 0.6718(3) 0.54645(16)
H57_2 H 0.712847 0.708022 0.568348
H58_2 H 0.637926 0.707035 0.526354
H59_2 H 0.649138 0.621016 0.561332
loop_
_geom_bond_atom_site_label_1
_geom_bond_atom_site_label_2
_geom_bond_site_symmetry_1
_geom_bond_site_symmetry_2
In1 O1 1_555 1_555
O17 In1 1_555 1_555
O18 In1 1_555 1_555
O23 In1 1_555 1_555
O24 In1 1_555 1_555
H4 C7 1_555 1_555
C17 C18 1_555 1_555
C18 C19 1_555 1_555
C19 H9 1_555 1_555
C20 C19 1_555 1_555
H10 C20 1_555 1_555
C21 C20 1_555 1_555
C22 C21 1_555 1_555
H11 C22 1_555 1_555
C23 C18 1_555 1_555
H12 C23 1_555 1_555
C24 C21 1_555 1_555
O17 C24 1_555 1_555
O18 C24 1_555 1_555
S1 C1 1_555 1_555
S3 C17 1_555 1_555
C22 C23 1_555 1_555
C10 C9 1_555 1_555
C15 C10 1_555 1_555
H8 C15 1_555 1_555
C26 C25 1_555 1_555
C27 C26 1_555 1_555
H13 C27 1_555 1_555
C28 C27 1_555 1_555
H14 C28 1_555 1_555
C29 C28 1_555 1_555
C30 C29 1_555 1_555
H15 C30 1_555 1_555
C31 C26 1_555 1_555
H16 C31 1_555 1_555
C32 C29 1_555 1_555
C33 C34 1_555 1_555
O19 C32 1_555 1_555
O20 C32 1_555 1_555
S2 C9 1_555 1_555
S4 C25 1_555 1_555
C30 C31 1_555 1_555
C33 S2 1_555 1_555
C34 S4 1_555 1_555
C2 C3 1_555 1_555
C3 H1 1_555 1_555
C4 C3 1_555 1_555
H2 C4 1_555 1_555
C5 C4 1_555 1_555
C6 C5 1_555 1_555
H3 C6 1_555 1_555
C8 C5 1_555 1_555
O2 C8 1_555 1_555
H5 C11 1_555 1_555
C12 C11 1_555 1_555
H6 C12 1_555 1_555
C13 C12 1_555 1_555
C14 C13 1_555 1_555
C16 C13 1_555 1_555
C35 C36 1_555 1_555
C36 C37 1_555 1_555
C37 H17 1_555 1_555
C38 C37 1_555 1_555
H18 C38 1_555 1_555
C39 C38 1_555 1_555
C40 C39 1_555 1_555
H19 C40 1_555 1_555
C41 C36 1_555 1_555
H20 C41 1_555 1_555
C42 C39 1_555 1_555
C43 C35 1_555 1_555
C44 C43 1_555 1_555
C45 C44 1_555 1_555
H21 C45 1_555 1_555
C46 C45 1_555 1_555
H22 C46 1_555 1_555
C47 C46 1_555 1_555
C48 C47 1_555 1_555
H23 C48 1_555 1_555
C49 C44 1_555 1_555
H24 C49 1_555 1_555
C50 C47 1_555 1_555
C51 C52 1_555 1_555
C52 C53 1_555 1_555
C53 H25 1_555 1_555
C54 C53 1_555 1_555
H26 C54 1_555 1_555
C55 C54 1_555 1_555
C56 C55 1_555 1_555
H27 C56 1_555 1_555
C57 C52 1_555 1_555
H28 C57 1_555 1_555
C58 C55 1_555 1_555
C59 C51 1_555 1_555
C60 C59 1_555 1_555
C61 C60 1_555 1_555
H29 C61 1_555 1_555
C62 C61 1_555 1_555
H30 C62 1_555 1_555
C63 C62 1_555 1_555
C64 C63 1_555 1_555
H31 C64 1_555 1_555
C65 C60 1_555 1_555
H32 C65 1_555 1_555
C66 C63 1_555 1_555
C67 C68 1_555 1_555
C68 S7 1_555 1_555
In2 O3 1_555 1_555
O3 C16 1_555 1_555
O4 C16 1_555 1_555
O9 C42 1_555 1_555
O10 C42 1_555 1_555
O21 C50 1_555 1_555
O22 C50 1_555 1_555
O23 C58 1_555 1_555
O24 C58 1_555 1_555
O25 C66 1_555 1_555
O26 C66 1_555 1_555
S5 C35 1_555 1_555
S6 C43 1_555 1_555
S7 C51 1_555 1_555
S8 C59 1_555 1_555
C40 C41 1_555 1_555
C48 C49 1_555 1_555
C56 C57 1_555 1_555
C64 C65 1_555 1_555
C67 S5 1_555 1_555
C67 S6 1_555 1_555
C68 S8 1_555 1_555
In2 O4 1_555 1_555
In2 O9 1_555 1_555
In2 O10 1_555 1_555
H5_2 C11_2 1_555 1_555
C12_2 C11_2 1_555 1_555
H6_2 C12_2 1_555 1_555
C13_2 C12_2 1_555 1_555
C14_2 C13_2 1_555 1_555
C16_2 C13_2 1_555 1_555
C35_2 C36_2 1_555 1_555
C36_2 C37_2 1_555 1_555
C37_2 H17_2 1_555 1_555
C38_2 C37_2 1_555 1_555
H18_2 C38_2 1_555 1_555
C39_2 C38_2 1_555 1_555
C40_2 C39_2 1_555 1_555
H19_2 C40_2 1_555 1_555
C41_2 C36_2 1_555 1_555
H20_2 C41_2 1_555 1_555
C42_2 C39_2 1_555 1_555
C43_2 C35_2 1_555 1_555
C44_2 C43_2 1_555 1_555
C45_2 C44_2 1_555 1_555
H21_2 C45_2 1_555 1_555
C46_2 C45_2 1_555 1_555
H22_2 C46_2 1_555 1_555
C47_2 C46_2 1_555 1_555
C48_2 C47_2 1_555 1_555
H23_2 C48_2 1_555 1_555
C49_2 C44_2 1_555 1_555
H24_2 C49_2 1_555 1_555
C50_2 C47_2 1_555 1_555
C51_2 C52_2 1_555 1_555
C52_2 C53_2 1_555 1_555
C53_2 H25_2 1_555 1_555
C54_2 C53_2 1_555 1_555
H26_2 C54_2 1_555 1_555
C55_2 C54_2 1_555 1_555
C56_2 C55_2 1_555 1_555
H27_2 C56_2 1_555 1_555
C57_2 C52_2 1_555 1_555
H28_2 C57_2 1_555 1_555
C58_2 C55_2 1_555 1_555
C59_2 C51_2 1_555 1_555
C60_2 C59_2 1_555 1_555
C61_2 C60_2 1_555 1_555
H29_2 C61_2 1_555 1_555
C62_2 C61_2 1_555 1_555
H30_2 C62_2 1_555 1_555
C63_2 C62_2 1_555 1_555
C64_2 C63_2 1_555 1_555
H31_2 C64_2 1_555 1_555
C65_2 C60_2 1_555 1_555
H32_2 C65_2 1_555 1_555
C66_2 C63_2 1_555 1_555
C67_2 C68_2 1_555 1_555
C68_2 S7_2 1_555 1_555
In6 O3_2 1_555 1_555
O3_2 C16_2 1_555 1_555
O4_2 C16_2 1_555 1_555
O9_2 C42_2 1_555 1_555
O10_2 C42_2 1_555 1_555
O11 C50_2 1_555 1_555
O12 C50_2 1_555 1_555
O13 C58_2 1_555 1_555
O14 C58_2 1_555 1_555
O15 C66_2 1_555 1_555
O16 C66_2 1_555 1_555
S5_2 C35_2 1_555 1_555
S6_2 C43_2 1_555 1_555
S7_2 C51_2 1_555 1_555
S8_2 C59_2 1_555 1_555
In3 O13 1_555 1_555
C40_2 C41_2 1_555 1_555
C48_2 C49_2 1_555 1_555
C56_2 C57_2 1_555 1_555
C64_2 C65_2 1_555 1_555
C67_2 S5_2 1_555 1_555
C67_2 S6_2 1_555 1_555
C68_2 S8_2 1_555 1_555
In6 O4_2 1_555 1_555
In6 O9_2 1_555 1_555
In6 O10_2 1_555 1_555
O14 In3 1_555 1_555
C2_2 C3_2 1_555 1_555
C3_2 H1_2 1_555 1_555
C4_2 C3_2 1_555 1_555
H2_2 C4_2 1_555 1_555
C5_2 C4_2 1_555 1_555
C6_2 C5_2 1_555 1_555
H3_2 C6_2 1_555 1_555
C8_2 C5_2 1_555 1_555
O2_2 C8_2 1_555 1_555
C10_2 C9_2 1_555 1_555
C15_2 C10_2 1_555 1_555
H8_2 C15_2 1_555 1_555
C26_2 C25_2 1_555 1_555
C27_2 C26_2 1_555 1_555
H13_2 C27_2 1_555 1_555
C28_2 C27_2 1_555 1_555
H14_2 C28_2 1_555 1_555
C29_2 C28_2 1_555 1_555
C30_2 C29_2 1_555 1_555
H15_2 C30_2 1_555 1_555
C31_2 C26_2 1_555 1_555
H16_2 C31_2 1_555 1_555
C32_2 C29_2 1_555 1_555
C33_2 C34_2 1_555 1_555
O7 C32_2 1_555 1_555
O8 C32_2 1_555 1_555
S2_2 C9_2 1_555 1_555
S4_2 C25_2 1_555 1_555
C30_2 C31_2 1_555 1_555
C33_2 S2_2 1_555 1_555
C34_2 S4_2 1_555 1_555
H4_2 C7_2 1_555 1_555
C17_2 C18_2 1_555 1_555
C18_2 C19_2 1_555 1_555
C19_2 H9_2 1_555 1_555
C20_2 C19_2 1_555 1_555
H10_2 C20_2 1_555 1_555
C21_2 C20_2 1_555 1_555
C22_2 C21_2 1_555 1_555
H11_2 C22_2 1_555 1_555
C23_2 C18_2 1_555 1_555
H12_2 C23_2 1_555 1_555
C24_2 C21_2 1_555 1_555
O5 C24_2 1_555 1_555
O6 C24_2 1_555 1_555
S1_2 C1_2 1_555 1_555
S3_2 C17_2 1_555 1_555
In3 O5 1_555 1_555
C22_2 C23_2 1_555 1_555
O6 In3 1_555 1_555
In3 O1_2 1_555 1_555
H45 C74 1_555 1_555
C75 C74 1_555 1_555
H47 C75 1_555 1_555
C76 C75 1_555 1_555
H49 C76 1_555 1_555
H50 C76 1_555 1_555
C77 H51 1_555 1_555
H52 C77 1_555 1_555
C78 C77 1_555 1_555
H53 C78 1_555 1_555
H54 C78 1_555 1_555
C79 C78 1_555 1_555
H55 C79 1_555 1_555
H56 C79 1_555 1_555
C80 C79 1_555 1_555
H57 C80 1_555 1_555
H58 C80 1_555 1_555
H59 C80 1_555 1_555
C69 H33 1_555 1_555
H34 C69 1_555 1_555
C70 C69 1_555 1_555
H35 C70 1_555 1_555
H36 C70 1_555 1_555
C71 C70 1_555 1_555
H37 C71 1_555 1_555
H38 C71 1_555 1_555
C72 C71 1_555 1_555
H39 C72 1_555 1_555
H40 C72 1_555 1_555
H41 C72 1_555 1_555
C73 H42 1_555 1_555
H43 C73 1_555 1_555
C81 H60 1_555 1_555
H61 C81 1_555 1_555
C82 C81 1_555 1_555
H62 C82 1_555 1_555
H63 C82 1_555 1_555
C83 C82 1_555 1_555
H64 C83 1_555 1_555
H65 C83 1_555 1_555
C84 C83 1_555 1_555
H66 C84 1_555 1_555
H67 C84 1_555 1_555
H68 C84 1_555 1_555
N1 C69 1_555 1_555
C73 N1 1_555 1_555
C81 N1 1_555 1_555
C69_2 H33_2 1_555 1_555
H34_2 C69_2 1_555 1_555
C70_2 C69_2 1_555 1_555
H35_2 C70_2 1_555 1_555
H36_2 C70_2 1_555 1_555
C71_2 C70_2 1_555 1_555
H37_2 C71_2 1_555 1_555
H38_2 C71_2 1_555 1_555
C72_2 C71_2 1_555 1_555
H39_2 C72_2 1_555 1_555
H40_2 C72_2 1_555 1_555
H41_2 C72_2 1_555 1_555
C73_2 H42_2 1_555 1_555
H43_2 C73_2 1_555 1_555
C81_2 H60_2 1_555 1_555
H61_2 C81_2 1_555 1_555
C82_2 C81_2 1_555 1_555
H62_2 C82_2 1_555 1_555
H63_2 C82_2 1_555 1_555
C83_2 C82_2 1_555 1_555
H64_2 C83_2 1_555 1_555
H65_2 C83_2 1_555 1_555
C84_2 C83_2 1_555 1_555
H66_2 C84_2 1_555 1_555
H67_2 C84_2 1_555 1_555
H68_2 C84_2 1_555 1_555
N1_2 C69_2 1_555 1_555
C73_2 N1_2 1_555 1_555
C81_2 N1_2 1_555 1_555
H45_2 C74_2 1_555 1_555
C75_2 C74_2 1_555 1_555
H47_2 C75_2 1_555 1_555
C76_2 C75_2 1_555 1_555
H49_2 C76_2 1_555 1_555
H50_2 C76_2 1_555 1_555
C77_2 H51_2 1_555 1_555
H52_2 C77_2 1_555 1_555
C78_2 C77_2 1_555 1_555
H53_2 C78_2 1_555 1_555
H54_2 C78_2 1_555 1_555
C79_2 C78_2 1_555 1_555
H55_2 C79_2 1_555 1_555
H56_2 C79_2 1_555 1_555
C80_2 C79_2 1_555 1_555
H57_2 C80_2 1_555 1_555
H58_2 C80_2 1_555 1_555
H59_2 C80_2 1_555 1_555

#END
