
###############################################################################
#
# This file contains modified crystal structure data generated from the
# MOF subset of the Cambridge Structural Database (CSD) v543 
# hosted by the Cambridge Crystallographic Data Centre (CCDC).
#
# This work is licensed under the Creative Commons
# Attribution-NonCommercial-ShareAlike 4.0 International License.
# To view a copy of this license, visit
# http://creativecommons.org/licenses/by-nc-sa/4.0/
# or send a letter to
# Creative Commons, PO Box 1866, Mountain View, CA 94042, USA.
#
# CIF created using the CSD Python API on 29 September 2022
# The structure has been converted into the P1 space group
# The structure has a 3D framework
# The original CSD entry LEPTIM is in the triclinic crystal system
# The framework has been calculated to contain at least 10.0% void space
# The void calculation uses a probe of radius 1.32A, grid spacing 0.4
# The framework is charged, counterions have been retained in the structure
#
###############################################################################

data_LEPTIM
_chemical_formula_moiety         '(C144 H96 In2 N4 O30 S16)n'
_symmetry_cell_setting           triclinic
_symmetry_space_group_name_H-M   'P 1'
_symmetry_Int_Tables_number      1
_space_group_name_Hall           'P 1'
loop_
_symmetry_equiv_pos_site_id
_symmetry_equiv_pos_as_xyz
1 x,y,z
_cell_length_a                   12.1632(13)
_cell_length_b                   15.3236(18)
_cell_length_c                   30.622(2)
_cell_angle_alpha                83.6933(13)
_cell_angle_beta                 88.5300(19)
_cell_angle_gamma                87.9124(18)
_cell_volume                     5667.8
loop_
_atom_site_label
_atom_site_type_symbol
_atom_site_fract_x
_atom_site_fract_y
_atom_site_fract_z
In1 In 0.00617(2) 0.24288(2) 0.70905(2)
O19 O 0.0526(3) 0.18865(19) 0.27694(9)
O20 O 0.1012(2) 0.3222(2) 0.26630(9)
O21 O 0.0961(2) 0.16103(18) 0.76248(9)
O22 O 0.1548(2) 0.29240(19) 0.74767(9)
O24 O 0.1039(2) 0.26183(18) 0.36302(9)
O25 O 0.0278(2) 0.11628(18) 0.67881(9)
O26 O 0.1359(2) 0.22929(19) 0.65122(9)
C55 C 0.2631(3) 0.0059(3) 0.46468(13)
C57 C 0.0864(4) 0.0600(3) 0.43686(14)
H26 H 0.008993 0.054473 0.435571
C58 C 0.1382(3) 0.1284(3) 0.41242(14)
C59 C 0.2481(3) 0.1372(3) 0.41317(13)
H27 H 0.281326 0.184401 0.395540
C60 C 0.3135(3) 0.0768(3) 0.43993(13)
H28 H 0.390558 0.083765 0.441254
C61 C 0.0734(4) 0.1860(3) 0.37747(13)
C64 C 0.1530(4) 0.0048(3) 0.62914(13)
C65 C 0.1642(3) 0.0965(3) 0.62123(13)
C66 C 0.2279(3) 0.1334(3) 0.58604(13)
H31 H 0.234041 0.195313 0.580957
C67 C 0.2814(3) 0.0804(3) 0.55889(14)
H32 H 0.322958 0.105687 0.534313
C68 C 0.1008(4) 0.1501(3) 0.65235(14)
C1 C 0.7953(3) 0.2429(3) 0.26425(14)
C2 C 0.7265(4) 0.2306(3) 0.22595(14)
C3 C 0.6571(4) 0.1591(3) 0.22968(14)
H1 H 0.653377 0.121685 0.256521
C4 C 0.5947(4) 0.1423(3) 0.19521(14)
H2 H 0.548995 0.092998 0.198145
C5 C 0.5979(3) 0.1979(3) 0.15533(13)
C6 C 0.6654(4) 0.2687(3) 0.15151(15)
H3 H 0.669741 0.305058 0.124365
C7 C 0.7272(4) 0.2880(3) 0.18651(14)
H4 H 0.769495 0.339288 0.183977
C8 C 0.5278(3) 0.1671(3) 0.12058(13)
C9 C 0.4161(3) 0.1591(3) 0.11886(13)
C10 C 0.3377(4) 0.1886(3) 0.15412(15)
C11 C 0.3351(3) 0.2706(3) 0.16793(14)
H5 H 0.380977 0.314406 0.153708
C12 C 0.2652(3) 0.2904(3) 0.20301(14)
H6 H 0.263287 0.347295 0.212693
C13 C 0.1984(4) 0.2246(3) 0.22339(14)
C14 C 0.2010(4) 0.1426(3) 0.20922(15)
H7 H 0.154678 0.098608 0.223019
C15 C 0.2717(3) 0.1237(3) 0.17444(13)
H8 H 0.274419 0.066742 0.164853
C16 C 0.1180(4) 0.2420(3) 0.25792(15)
C17 C 0.4995(4) 0.1221(3) 0.04500(14)
C18 C 0.4922(3) 0.1138(3) 0.00151(14)
O1 O 0.8179(2) 0.18235(19) 0.29294(9)
O2 O 0.8430(2) 0.3156(2) 0.26035(9)
S1 S 0.36989(9) 0.11795(7) 0.07221(4)
S2 S 0.61213(9) 0.13521(7) 0.07834(4)
In7 In 0.95082(2) 0.27227(2) 0.31731(2)
C19 C 0.4426(3) 0.1304(3) 0.91858(13)
C20 C 0.5576(4) 0.1437(3) 0.91916(14)
C21 C 0.6283(4) 0.1670(3) 0.87985(14)
C22 C 0.7011(4) 0.2335(3) 0.87804(15)
H9 H 0.702458 0.268648 0.901703
C23 C 0.7741(4) 0.2510(3) 0.84181(15)
H10 H 0.824182 0.297394 0.840847
C24 C 0.7710(3) 0.1987(3) 0.80763(14)
C25 C 0.6998(3) 0.1301(3) 0.80972(14)
H11 H 0.700914 0.092576 0.786972
C26 C 0.6260(3) 0.1159(3) 0.84546(13)
H12 H 0.574116 0.070870 0.846052
C27 C 0.8553(4) 0.2213(3) 0.77124(15)
C28 C 0.3715(3) 0.1625(3) 0.88046(14)
C29 C 0.2958(3) 0.1032(3) 0.87236(14)
H13 H 0.290726 0.049284 0.890713
C30 C 0.2256(4) 0.1222(3) 0.83695(14)
H14 H 0.173341 0.080403 0.831328
C31 C 0.2304(3) 0.2000(3) 0.81004(14)
C32 C 0.3070(4) 0.2610(3) 0.81920(14)
H15 H 0.310034 0.315801 0.801440
C33 C 0.3792(4) 0.2427(3) 0.85405(13)
H16 H 0.432264 0.283750 0.859695
C34 C 0.1585(4) 0.2168(3) 0.77109(14)
C35 C 0.8458(4) 0.3802(3) 0.36488(15)
C36 C 0.7935(3) 0.4400(3) 0.39671(14)
C37 C 0.7078(3) 0.4067(3) 0.42386(13)
H17 H 0.682378 0.349411 0.421862
C38 C 0.6597(3) 0.4601(3) 0.45442(14)
H18 H 0.602103 0.438436 0.473737
C39 C 0.6968(3) 0.5448(3) 0.45623(14)
C40 C 0.7809(4) 0.5771(3) 0.42826(13)
H19 H 0.805728 0.634802 0.429503
C41 C 0.8287(4) 0.5238(3) 0.39822(15)
H20 H 0.885887 0.545666 0.378748
C42 C 0.6431(3) 0.6036(3) 0.48678(14)
C43 C 0.6492(3) 0.5949(3) 0.53388(13)
C44 C 0.7171(3) 0.5313(3) 0.56233(14)
C45 C 0.6968(3) 0.4426(3) 0.56644(13)
H21 H 0.642714 0.420974 0.548944
C46 C 0.7553(4) 0.3855(3) 0.59607(14)
H22 H 0.739876 0.324812 0.599295
C47 C 0.8374(3) 0.4162(3) 0.62157(13)
C48 C 0.8570(3) 0.5054(3) 0.61698(13)
H23 H 0.912363 0.527185 0.633837
C49 C 0.7967(3) 0.5630(3) 0.58802(13)
H24 H 0.809424 0.624124 0.585642
C50 C 0.8978(4) 0.3509(3) 0.65349(14)
C51 C 0.5219(3) 0.7338(3) 0.51127(13)
C52 C 0.4529(3) 0.8090(3) 0.51152(14)
C53 C 0.3335(3) 0.9412(3) 0.49158(14)
C54 C 0.3265(3) 0.9344(3) 0.53729(13)
C56 C 0.1511(3) 0.9983(3) 0.46387(14)
H25 H 0.116902 0.951516 0.481473
C62 C 0.2757(3) 0.9879(3) 0.56699(13)
C63 C 0.2116(3) 0.9527(3) 0.60131(14)
H29 H 0.206624 0.890640 0.606378
H30 H 0.107481 0.979452 0.652485
O7 O 0.8617(2) 0.16327(18) 0.74490(9)
O8 O 0.9070(2) 0.2869(2) 0.76582(8)
O9 O 0.8695(2) 0.27585(18) 0.65803(9)
O10 O 0.9720(2) 0.37948(17) 0.67562(9)
O11 O 0.8190(2) 0.30243(18) 0.36716(8)
O12 O 0.9267(2) 0.40490(17) 0.34040(9)
S3 S 0.37540(9) 0.10770(7) 0.96926(4)
S4 S 0.61666(9) 0.11754(7) 0.97063(4)
S5 S 0.58040(8) 0.67836(7) 0.55872(3)
S6 S 0.56555(9) 0.69251(7) 0.46191(3)
S7 S 0.40774(9) 0.84390(7) 0.56168(3)
S8 S 0.40391(9) 0.86462(7) 0.46405(3)
O23 O 0.9863(2) 0.15628(17) 0.36476(9)
In5 In 0.04918(2) 0.72773(2) 0.68269(2)
O13 O 0.0137(2) 0.84372(17) 0.63524(9)
C19_2 C 0.5574(3) 0.8696(3) 0.08142(13)
C20_2 C 0.4424(4) 0.8563(3) 0.08084(14)
C21_2 C 0.3717(4) 0.8330(3) 0.12015(14)
C22_2 C 0.2989(4) 0.7665(3) 0.12196(15)
H9_2 H 0.297542 0.731352 0.098297
C23_2 C 0.2259(4) 0.7490(3) 0.15819(15)
H10_2 H 0.175818 0.702606 0.159153
C24_2 C 0.2290(3) 0.8013(3) 0.19237(14)
C25_2 C 0.3002(3) 0.8699(3) 0.19028(14)
H11_2 H 0.299086 0.907424 0.213028
C26_2 C 0.3740(3) 0.8841(3) 0.15454(13)
H12_2 H 0.425884 0.929130 0.153948
C27_2 C 0.1447(4) 0.7787(3) 0.22876(15)
C28_2 C 0.6285(3) 0.8375(3) 0.11954(14)
C29_2 C 0.7042(3) 0.8968(3) 0.12764(14)
H13_2 H 0.709274 0.950716 0.109287
C30_2 C 0.7744(4) 0.8778(3) 0.16305(14)
H14_2 H 0.826659 0.919597 0.168672
C31_2 C 0.7696(3) 0.8000(3) 0.18996(14)
C32_2 C 0.6930(4) 0.7390(3) 0.18080(14)
H15_2 H 0.689966 0.684199 0.198560
C33_2 C 0.6208(4) 0.7573(3) 0.14595(13)
H16_2 H 0.567736 0.716250 0.140305
C34_2 C 0.8415(4) 0.7832(3) 0.22891(14)
C35_2 C 0.1542(4) 0.6198(3) 0.63512(15)
C36_2 C 0.2065(3) 0.5600(3) 0.60329(14)
C37_2 C 0.2922(3) 0.5933(3) 0.57614(13)
H17_2 H 0.317622 0.650589 0.578138
C38_2 C 0.3403(3) 0.5399(3) 0.54558(14)
H18_2 H 0.397897 0.561564 0.526263
C39_2 C 0.3032(3) 0.4552(3) 0.54377(14)
C40_2 C 0.2191(4) 0.4229(3) 0.57174(13)
H19_2 H 0.194272 0.365198 0.570497
C41_2 C 0.1713(4) 0.4762(3) 0.60178(15)
H20_2 H 0.114113 0.454334 0.621252
C42_2 C 0.3569(3) 0.3964(3) 0.51322(14)
C43_2 C 0.3508(3) 0.4051(3) 0.46612(13)
C44_2 C 0.2829(3) 0.4687(3) 0.43767(14)
C45_2 C 0.3032(3) 0.5574(3) 0.43356(13)
H21_2 H 0.357286 0.579026 0.451056
C46_2 C 0.2447(4) 0.6145(3) 0.40393(14)
H22_2 H 0.260124 0.675188 0.400705
C47_2 C 0.1626(3) 0.5838(3) 0.37843(13)
C48_2 C 0.1430(3) 0.4946(3) 0.38302(13)
H23_2 H 0.087637 0.472815 0.366163
C49_2 C 0.2033(3) 0.4370(3) 0.41198(13)
H24_2 H 0.190576 0.375876 0.414358
C50_2 C 0.1022(4) 0.6491(3) 0.34651(14)
C51_2 C 0.4781(3) 0.2662(3) 0.48873(13)
C52_2 C 0.5471(3) 0.1910(3) 0.48848(14)
C53_2 C 0.6665(3) 0.0588(3) 0.50842(14)
C54_2 C 0.6735(3) 0.0656(3) 0.46271(13)
C56_2 C 0.8489(3) 0.0017(3) 0.53613(14)
H25_2 H 0.883098 0.048484 0.518527
C62_2 C 0.7243(3) 0.0121(3) 0.43301(13)
C63_2 C 0.7884(3) 0.0473(3) 0.39869(14)
H29_2 H 0.793376 0.109360 0.393622
H30_2 H 0.892519 0.020548 0.347515
O5 O 0.9039(2) 0.83897(18) 0.23752(9)
O6 O 0.8452(2) 0.70760(19) 0.25233(9)
O7_2 O 0.1383(2) 0.83673(18) 0.25510(9)
O8_2 O 0.0930(2) 0.7131(2) 0.23418(8)
O9_2 O 0.1305(2) 0.72415(18) 0.34197(9)
O10_2 O 0.0280(2) 0.62052(17) 0.32438(9)
O11_2 O 0.1810(2) 0.69757(18) 0.63284(8)
O12_2 O 0.0733(2) 0.59510(17) 0.65960(9)
S3_2 S 0.62460(9) 0.89230(7) 0.03074(4)
S4_2 S 0.38334(9) 0.88246(7) 0.02937(4)
S5_2 S 0.41960(8) 0.32164(7) 0.44128(3)
S6_2 S 0.43445(9) 0.30749(7) 0.53809(3)
S7_2 S 0.59226(9) 0.15610(7) 0.43832(3)
S8_2 S 0.59609(9) 0.13538(7) 0.53595(3)
In3 In 0.99383(2) 0.75712(2) 0.29095(2)
O17 O 0.1821(2) 0.81765(19) 0.70706(9)
O18 O 0.1570(2) 0.6844(2) 0.73965(9)
C1_2 C 0.2047(3) 0.7571(3) 0.73575(14)
C2_2 C 0.2735(4) 0.7694(3) 0.77405(14)
C3_2 C 0.3429(4) 0.8409(3) 0.77032(14)
H1_2 H 0.346623 0.878315 0.743479
C4_2 C 0.4053(4) 0.8577(3) 0.80479(14)
H2_2 H 0.451005 0.907002 0.801855
C5_2 C 0.4021(3) 0.8021(3) 0.84467(13)
C6_2 C 0.3346(4) 0.7313(3) 0.84849(15)
H3_2 H 0.330259 0.694942 0.875635
C7_2 C 0.2728(4) 0.7120(3) 0.81349(14)
H4_2 H 0.230505 0.660712 0.816023
C8_2 C 0.4722(3) 0.8329(3) 0.87942(13)
C9_2 C 0.5839(3) 0.8409(3) 0.88114(13)
C10_2 C 0.6623(4) 0.8114(3) 0.84588(15)
C11_2 C 0.6649(3) 0.7294(3) 0.83207(14)
H5_2 H 0.619023 0.685594 0.846292
C12_2 C 0.7348(3) 0.7096(3) 0.79699(14)
H6_2 H 0.736713 0.652705 0.787307
C13_2 C 0.8016(4) 0.7754(3) 0.77661(14)
C14_2 C 0.7990(4) 0.8574(3) 0.79078(15)
H7_2 H 0.845322 0.901392 0.776981
C15_2 C 0.7283(3) 0.8763(3) 0.82556(13)
H8_2 H 0.725581 0.933258 0.835147
C16_2 C 0.8820(4) 0.7580(3) 0.74208(15)
C17_2 C 0.5005(4) 0.8779(3) 0.95500(14)
C18_2 C 0.5078(3) 0.8862(3) 0.99849(14)
O3 O 0.9474(3) 0.81135(19) 0.72306(9)
O4 O 0.8988(2) 0.6778(2) 0.73370(9)
S1_2 S 0.63011(9) 0.88205(7) 0.92779(4)
S2_2 S 0.38787(9) 0.86479(7) 0.92166(4)
C55_2 C 0.7369(3) 0.9941(3) 0.53532(13)
C57_2 C 0.9136(4) 0.9400(3) 0.56314(14)
H26_2 H 0.991007 0.945527 0.564429
C58_2 C 0.8618(3) 0.8716(3) 0.58758(14)
C59_2 C 0.7519(3) 0.8628(3) 0.58683(13)
H27_2 H 0.718674 0.815599 0.604460
C60_2 C 0.6865(3) 0.9232(3) 0.56007(13)
H28_2 H 0.609442 0.916235 0.558746
C61_2 C 0.9266(4) 0.8140(3) 0.62253(13)
C64_2 C 0.8470(4) 0.9952(3) 0.37086(13)
C65_2 C 0.8358(3) 0.9035(3) 0.37877(13)
C66_2 C 0.7721(3) 0.8666(3) 0.41396(13)
H31_2 H 0.765959 0.804687 0.419043
C67_2 C 0.7186(3) 0.9196(3) 0.44111(14)
H32_2 H 0.677042 0.894313 0.465687
C68_2 C 0.8992(4) 0.8499(3) 0.34765(14)
O14 O 0.8961(2) 0.73817(18) 0.63698(9)
O15 O 0.9722(2) 0.88372(18) 0.32119(9)
O16 O 0.8641(2) 0.77071(19) 0.34878(9)
C69 C 0.6742(4) 0.0977(3) 0.65263(15)
H33 H 0.752630 0.082702 0.648818
H34 H 0.656333 0.153662 0.635188
H35 H 0.630360 0.051414 0.642795
C70 C 0.5982(4) 0.0233(3) 0.72470(14)
H36 H 0.583198 0.032159 0.755532
H37 H 0.529301 0.011772 0.710772
N1 N 0.6484(3) 0.1058(3) 0.70072(12)
H39 H 0.600677 0.152352 0.702817
H40 H 0.711421 0.116793 0.714212
H38 H 0.649835 0.973069 0.723174
H38_2 H 0.350165 0.026931 0.276826
C69_2 C 0.3258(4) 0.9023(3) 0.34737(15)
H33_2 H 0.247370 0.917298 0.351182
H34_2 H 0.343667 0.846338 0.364812
H35_2 H 0.369640 0.948586 0.357205
C70_2 C 0.4018(4) 0.9767(3) 0.27530(14)
H36_2 H 0.416802 0.967841 0.244468
H37_2 H 0.470699 0.988228 0.289228
N1_2 N 0.3516(3) 0.8942(3) 0.29928(12)
H39_2 H 0.399323 0.847648 0.297183
H40_2 H 0.288579 0.883207 0.285788
C72 C 0.6305(4) 0.4082(3) 0.04141(16)
H44 H 0.703434 0.383269 0.034655
H45 H 0.609776 0.388963 0.072002
H46 H 0.632140 0.472506 0.037169
N2 N 0.5466(3) 0.3771(2) 0.01099(11)
H47 H 0.486091 0.413928 0.010432
H48 H 0.525283 0.322593 0.021955
C71 C 0.5939(4) 0.3737(3) 0.96129(15)
H41 H 0.663761 0.403776 0.957683
H42 H 0.540710 0.402790 0.940498
H43 H 0.605770 0.312289 0.955592
C71_2 C 0.4061(4) 0.6263(3) 0.03871(15)
H41_2 H 0.336239 0.596224 0.042317
H42_2 H 0.459290 0.597210 0.059502
H43_2 H 0.394230 0.687711 0.044408
C72_2 C 0.3695(4) 0.5918(3) 0.95859(16)
H44_2 H 0.296566 0.616731 0.965345
H45_2 H 0.390224 0.611037 0.927998
H46_2 H 0.367860 0.527494 0.962831
N2_2 N 0.4534(3) 0.6229(2) 0.98901(11)
H47_2 H 0.513909 0.586072 0.989568
H48_2 H 0.474717 0.677407 0.978045
loop_
_geom_bond_atom_site_label_1
_geom_bond_atom_site_label_2
_geom_bond_site_symmetry_1
_geom_bond_site_symmetry_2
O21 In1 1_555 1_555
O22 In1 1_555 1_555
O25 In1 1_555 1_555
O26 In1 1_555 1_555
H26 C57 1_555 1_555
C58 C57 1_555 1_555
C59 C58 1_555 1_555
H27 C59 1_555 1_555
C60 C55 1_555 1_555
H28 C60 1_555 1_555
C61 C58 1_555 1_555
C65 C64 1_555 1_555
C66 C65 1_555 1_555
H31 C66 1_555 1_555
H32 C67 1_555 1_555
C68 C65 1_555 1_555
O24 C61 1_555 1_555
O25 C68 1_555 1_555
O26 C68 1_555 1_555
C59 C60 1_555 1_555
C66 C67 1_555 1_555
C1 C2 1_555 1_555
C2 C3 1_555 1_555
C3 H1 1_555 1_555
C4 C3 1_555 1_555
H2 C4 1_555 1_555
C5 C4 1_555 1_555
C6 C5 1_555 1_555
H3 C6 1_555 1_555
C7 C2 1_555 1_555
H4 C7 1_555 1_555
C8 C5 1_555 1_555
C9 C8 1_555 1_555
C10 C9 1_555 1_555
C11 C10 1_555 1_555
H5 C11 1_555 1_555
C12 C11 1_555 1_555
H6 C12 1_555 1_555
C13 C12 1_555 1_555
C14 C13 1_555 1_555
H7 C14 1_555 1_555
C15 C10 1_555 1_555
H8 C15 1_555 1_555
C16 C13 1_555 1_555
C17 C18 1_555 1_555
O1 C1 1_555 1_555
O2 C1 1_555 1_555
O19 C16 1_555 1_555
O20 C16 1_555 1_555
S1 C9 1_555 1_555
S2 C8 1_555 1_555
In7 O1 1_555 1_555
C6 C7 1_555 1_555
C14 C15 1_555 1_555
C17 S1 1_555 1_555
C17 S2 1_555 1_555
O2 In7 1_555 1_555
C19 C20 1_555 1_555
C20 C21 1_555 1_555
C21 C22 1_555 1_555
C22 H9 1_555 1_555
C23 C22 1_555 1_555
H10 C23 1_555 1_555
C24 C23 1_555 1_555
C25 C24 1_555 1_555
H11 C25 1_555 1_555
C26 C21 1_555 1_555
H12 C26 1_555 1_555
C27 C24 1_555 1_555
C28 C19 1_555 1_555
C29 C28 1_555 1_555
H13 C29 1_555 1_555
C30 C29 1_555 1_555
H14 C30 1_555 1_555
C31 C30 1_555 1_555
C32 C31 1_555 1_555
H15 C32 1_555 1_555
C33 C28 1_555 1_555
H16 C33 1_555 1_555
C34 C31 1_555 1_555
C35 C36 1_555 1_555
C36 C37 1_555 1_555
C37 H17 1_555 1_555
C38 C37 1_555 1_555
H18 C38 1_555 1_555
C39 C38 1_555 1_555
C40 C39 1_555 1_555
H19 C40 1_555 1_555
C41 C36 1_555 1_555
H20 C41 1_555 1_555
C42 C39 1_555 1_555
C43 C42 1_555 1_555
C44 C43 1_555 1_555
C45 C44 1_555 1_555
H21 C45 1_555 1_555
C46 C45 1_555 1_555
H22 C46 1_555 1_555
C47 C46 1_555 1_555
C48 C47 1_555 1_555
H23 C48 1_555 1_555
C49 C44 1_555 1_555
H24 C49 1_555 1_555
C50 C47 1_555 1_555
C51 C52 1_555 1_555
C52 S7 1_555 1_555
C53 C54 1_555 1_555
C54 C62 1_555 1_555
H25 C56 1_555 1_555
C62 C63 1_555 1_555
C63 H29 1_555 1_555
In7 O11 1_555 1_555
O21 C34 1_555 1_555
O22 C34 1_555 1_555
O7 C27 1_555 1_555
O8 C27 1_555 1_555
O9 C50 1_555 1_555
O10 C50 1_555 1_555
O11 C35 1_555 1_555
O12 C35 1_555 1_555
S3 C19 1_555 1_555
S5 C43 1_555 1_555
S6 C42 1_555 1_555
S7 C54 1_555 1_555
S8 C52 1_555 1_555
O23 In7 1_555 1_555
C20 S4 1_555 1_555
C25 C26 1_555 1_555
C32 C33 1_555 1_555
C40 C41 1_555 1_555
C48 C49 1_555 1_555
C51 S5 1_555 1_555
C51 S6 1_555 1_555
C53 S8 1_555 1_555
In7 O12 1_555 1_555
In5 O13 1_555 1_555
C19_2 C20_2 1_555 1_555
C20_2 C21_2 1_555 1_555
C21_2 C22_2 1_555 1_555
C22_2 H9_2 1_555 1_555
C23_2 C22_2 1_555 1_555
H10_2 C23_2 1_555 1_555
C24_2 C23_2 1_555 1_555
C25_2 C24_2 1_555 1_555
H11_2 C25_2 1_555 1_555
C26_2 C21_2 1_555 1_555
H12_2 C26_2 1_555 1_555
C27_2 C24_2 1_555 1_555
C28_2 C19_2 1_555 1_555
C29_2 C28_2 1_555 1_555
H13_2 C29_2 1_555 1_555
C30_2 C29_2 1_555 1_555
H14_2 C30_2 1_555 1_555
C31_2 C30_2 1_555 1_555
C32_2 C31_2 1_555 1_555
H15_2 C32_2 1_555 1_555
C33_2 C28_2 1_555 1_555
H16_2 C33_2 1_555 1_555
C34_2 C31_2 1_555 1_555
C35_2 C36_2 1_555 1_555
C36_2 C37_2 1_555 1_555
C37_2 H17_2 1_555 1_555
C38_2 C37_2 1_555 1_555
H18_2 C38_2 1_555 1_555
C39_2 C38_2 1_555 1_555
C40_2 C39_2 1_555 1_555
H19_2 C40_2 1_555 1_555
C41_2 C36_2 1_555 1_555
H20_2 C41_2 1_555 1_555
C42_2 C39_2 1_555 1_555
C43_2 C42_2 1_555 1_555
C44_2 C43_2 1_555 1_555
C45_2 C44_2 1_555 1_555
H21_2 C45_2 1_555 1_555
C46_2 C45_2 1_555 1_555
H22_2 C46_2 1_555 1_555
C47_2 C46_2 1_555 1_555
C48_2 C47_2 1_555 1_555
H23_2 C48_2 1_555 1_555
C49_2 C44_2 1_555 1_555
H24_2 C49_2 1_555 1_555
C50_2 C47_2 1_555 1_555
C51_2 C52_2 1_555 1_555
C52_2 S7_2 1_555 1_555
C53_2 C54_2 1_555 1_555
C54_2 C62_2 1_555 1_555
H25_2 C56_2 1_555 1_555
C62_2 C63_2 1_555 1_555
C63_2 H29_2 1_555 1_555
In5 O11_2 1_555 1_555
O5 C34_2 1_555 1_555
O6 C34_2 1_555 1_555
O7_2 C27_2 1_555 1_555
O8_2 C27_2 1_555 1_555
O9_2 C50_2 1_555 1_555
O10_2 C50_2 1_555 1_555
O11_2 C35_2 1_555 1_555
O12_2 C35_2 1_555 1_555
S3_2 C19_2 1_555 1_555
S5_2 C43_2 1_555 1_555
S6_2 C42_2 1_555 1_555
S7_2 C54_2 1_555 1_555
S8_2 C52_2 1_555 1_555
In3 O5 1_555 1_555
O17 In5 1_555 1_555
O18 In5 1_555 1_555
C20_2 S4_2 1_555 1_555
C25_2 C26_2 1_555 1_555
C32_2 C33_2 1_555 1_555
C40_2 C41_2 1_555 1_555
C48_2 C49_2 1_555 1_555
C51_2 S5_2 1_555 1_555
C51_2 S6_2 1_555 1_555
C53_2 S8_2 1_555 1_555
In5 O12_2 1_555 1_555
O6 In3 1_555 1_555
C1_2 C2_2 1_555 1_555
C2_2 C3_2 1_555 1_555
C3_2 H1_2 1_555 1_555
C4_2 C3_2 1_555 1_555
H2_2 C4_2 1_555 1_555
C5_2 C4_2 1_555 1_555
C6_2 C5_2 1_555 1_555
H3_2 C6_2 1_555 1_555
C7_2 C2_2 1_555 1_555
H4_2 C7_2 1_555 1_555
C8_2 C5_2 1_555 1_555
C9_2 C8_2 1_555 1_555
C10_2 C9_2 1_555 1_555
C11_2 C10_2 1_555 1_555
H5_2 C11_2 1_555 1_555
C12_2 C11_2 1_555 1_555
H6_2 C12_2 1_555 1_555
C13_2 C12_2 1_555 1_555
C14_2 C13_2 1_555 1_555
H7_2 C14_2 1_555 1_555
C15_2 C10_2 1_555 1_555
H8_2 C15_2 1_555 1_555
C16_2 C13_2 1_555 1_555
C17_2 C18_2 1_555 1_555
O17 C1_2 1_555 1_555
O18 C1_2 1_555 1_555
O3 C16_2 1_555 1_555
O4 C16_2 1_555 1_555
S1_2 C9_2 1_555 1_555
S2_2 C8_2 1_555 1_555
C6_2 C7_2 1_555 1_555
C14_2 C15_2 1_555 1_555
C17_2 S1_2 1_555 1_555
C17_2 S2_2 1_555 1_555
H26_2 C57_2 1_555 1_555
C58_2 C57_2 1_555 1_555
C59_2 C58_2 1_555 1_555
H27_2 C59_2 1_555 1_555
C60_2 C55_2 1_555 1_555
H28_2 C60_2 1_555 1_555
C61_2 C58_2 1_555 1_555
C65_2 C64_2 1_555 1_555
C66_2 C65_2 1_555 1_555
H31_2 C66_2 1_555 1_555
H32_2 C67_2 1_555 1_555
C68_2 C65_2 1_555 1_555
O14 C61_2 1_555 1_555
O15 C68_2 1_555 1_555
O16 C68_2 1_555 1_555
In3 O15 1_555 1_555
C59_2 C60_2 1_555 1_555
C66_2 C67_2 1_555 1_555
O16 In3 1_555 1_555
C69 H33 1_555 1_555
H34 C69 1_555 1_555
H35 C69 1_555 1_555
C70 H36 1_555 1_555
H37 C70 1_555 1_555
N1 C69 1_555 1_555
H39 N1 1_555 1_555
H40 N1 1_555 1_555
C70 N1 1_555 1_555
C69_2 H33_2 1_555 1_555
H34_2 C69_2 1_555 1_555
H35_2 C69_2 1_555 1_555
C70_2 H36_2 1_555 1_555
H37_2 C70_2 1_555 1_555
N1_2 C69_2 1_555 1_555
H39_2 N1_2 1_555 1_555
H40_2 N1_2 1_555 1_555
C70_2 N1_2 1_555 1_555
C72 H44 1_555 1_555
H45 C72 1_555 1_555
H46 C72 1_555 1_555
H47 N2 1_555 1_555
H48 N2 1_555 1_555
C72 N2 1_555 1_555
C71 H41 1_555 1_555
H42 C71 1_555 1_555
H43 C71 1_555 1_555
C71_2 H41_2 1_555 1_555
H42_2 C71_2 1_555 1_555
H43_2 C71_2 1_555 1_555
C72_2 H44_2 1_555 1_555
H45_2 C72_2 1_555 1_555
H46_2 C72_2 1_555 1_555
H47_2 N2_2 1_555 1_555
H48_2 N2_2 1_555 1_555
C72_2 N2_2 1_555 1_555

#END
