
###############################################################################
#
# This file contains modified crystal structure data generated from the
# MOF subset of the Cambridge Structural Database (CSD) v543 
# hosted by the Cambridge Crystallographic Data Centre (CCDC).
#
# This work is licensed under the Creative Commons
# Attribution-NonCommercial-ShareAlike 4.0 International License.
# To view a copy of this license, visit
# http://creativecommons.org/licenses/by-nc-sa/4.0/
# or send a letter to
# Creative Commons, PO Box 1866, Mountain View, CA 94042, USA.
#
# CIF created using the CSD Python API on 29 September 2022
# The structure has been converted into the P1 space group
# The structure has a 3D framework
# The original CSD entry LEQQAA is in the tetragonal crystal system
# The framework has been calculated to contain at least 10.0% void space
# The void calculation uses a probe of radius 1.32A, grid spacing 0.4
# The framework is charged, counterions have been retained in the structure
#
###############################################################################

data_LEQQAA
_chemical_formula_moiety         '(C140 H160 Cu12 N16 O32 12+)n'
_symmetry_cell_setting           triclinic
_symmetry_space_group_name_H-M   'P 1'
_symmetry_Int_Tables_number      1
_space_group_name_Hall           'P 1'
loop_
_symmetry_equiv_pos_site_id
_symmetry_equiv_pos_as_xyz
1 x,y,z
_cell_length_a                   21.435(2)
_cell_length_b                   21.435(2)
_cell_length_c                   11.382(2)
_cell_angle_alpha                90
_cell_angle_beta                 90
_cell_angle_gamma                90
_cell_volume                     5229.56
loop_
_atom_site_label
_atom_site_type_symbol
_atom_site_fract_x
_atom_site_fract_y
_atom_site_fract_z
N1 N 0.2024(2) 0.0032(2) 0.0900(5)
C1 C 0.1760(3) 0.0529(3) 0.0379(6)
C2 C 0.1395(3) 0.0952(3) 0.0969(5)
H2 H 0.1227 0.1294 0.0579
C3 C 0.1278(2) 0.0859(2) 0.2162(5)
C4 C 0.1556(3) 0.0346(3) 0.2712(6)
H3 H 0.1497 0.0273 0.3509
N2 N 0.0032(2) 0.2024(2) 0.4100(5)
C10 C 0.0529(3) 0.1760(3) 0.4621(6)
H11 H 0.0589 0.1828 0.5419
H12 H 0.3172 0.0589 0.0419
C13 C 0.0952(3) 0.1395(3) 0.4031(5)
H14 H 0.1294 0.1227 0.4421
C16 C 0.0859(2) 0.1278(2) 0.2838(5)
C19 C 0.0346(3) 0.1556(3) 0.2288(6)
H17 H 0.0273 0.1497 0.1491
Cu1 Cu 0.2500 0.93806(4) 1.0000
O1 O 0.2987(2) 0.87622(17) 0.9207(4)
C6 C 0.2934(3) 0.8162(2) 0.9314(5)
C7 C 0.2500 0.7854(3) 1.0000
C8 C 0.3413(3) 0.7813(3) 0.8582(5)
H5 H 0.3506 0.8048 0.7887
H6 H 0.3249 0.7412 0.8364
H7 H 0.3788 0.7756 0.9033
O2 O 0.1685(3) 0.9452(3) 0.8455(5)
C9 C 0.1092(7) 0.9218(8) 0.8577(19)
H8 H 0.0880 0.9437 0.9195
H9 H 0.1114 0.8782 0.8769
H10 H 0.0868 0.9270 0.7854
Cu2 Cu 0.2500 0.56194(4) 1.0000
O4 O 0.2013(2) 0.62378(17) 0.9207(4)
N6 N 0.2024(2) 0.4968(2) 0.9100(5)
C23 C 0.3080(3) 0.9952(2) 0.7957(6)
H21 H 0.2898 0.9611 0.7589
C26 C 0.2066(3) 0.6838(2) 0.9314(5)
C28 C 0.2500 0.7146(3) 1.0000
C30 C 0.1587(3) 0.7187(3) 0.8582(5)
H24 H 0.1494 0.6952 0.7887
H27 H 0.1751 0.7588 0.8364
H30 H 0.1212 0.7244 0.9033
O7 O 0.3315(3) 0.5548(3) 0.8455(5)
C33 C 0.3908(7) 0.5782(8) 0.8577(19)
H33 H 0.4120 0.5563 0.9195
H36 H 0.3886 0.6218 0.8769
H39 H 0.4132 0.5730 0.7854
N5 N 0.0032(2) 0.2976(2) 0.5900(5)
H13 H 0.3172 0.4411 0.9581
C1_2 C 0.0529(3) 0.3240(3) 0.5379(6)
H1 H 0.0589 0.3172 0.4581
C2_2 C 0.0952(3) 0.3605(3) 0.5969(5)
H2_2 H 0.1294 0.3773 0.5579
C3_2 C 0.0859(2) 0.3722(2) 0.7162(5)
C4_2 C 0.0346(3) 0.3444(3) 0.7712(6)
H3_2 H 0.0273 0.3503 0.8509
C10_2 C 0.1760(3) 0.4471(3) 0.9621(6)
C13_2 C 0.1395(3) 0.4048(3) 0.9031(5)
H14_2 H 0.1227 0.3706 0.9421
C16_2 C 0.1278(2) 0.4141(2) 0.7838(5)
C19_2 C 0.1556(3) 0.4654(3) 0.7288(6)
H17_2 H 0.1497 0.4727 0.6491
C22 C 0.1920(3) 0.5048(2) 0.7957(6)
H20 H 0.2102 0.5389 0.7589
H1_2 H 0.1828 0.0589 0.9581
Cu4 Cu 0.56194(4) 0.2500 0.5000
N3 N 0.2976(2) 0.0032(2) 0.9100(5)
N4 N 0.4968(2) 0.2024(2) 0.5900(5)
C11 C 0.3240(3) 0.0529(3) 0.9621(6)
C12 C 0.4471(3) 0.1760(3) 0.5379(6)
H13_2 H 0.4411 0.1828 0.4581
C14 C 0.3605(3) 0.0952(3) 0.9031(5)
C15 C 0.4048(3) 0.1395(3) 0.5969(5)
H15 H 0.3773 0.1294 0.9421
H16 H 0.3706 0.1227 0.5579
C17 C 0.3722(2) 0.0859(2) 0.7838(5)
C18 C 0.4141(2) 0.1278(2) 0.7162(5)
C20 C 0.3444(3) 0.0346(3) 0.7288(6)
C21 C 0.4654(3) 0.1556(3) 0.7712(6)
H18 H 0.3503 0.0273 0.6491
H19 H 0.4727 0.1497 0.8509
C24 C 0.5048(2) 0.1920(3) 0.7043(6)
H22 H 0.5389 0.2102 0.7411
Cu1_2 Cu 0.2500 0.93806(4) -0.0000
C5 C 0.1920(3) 0.9952(2) 0.2043(6)
H4 H 0.2102 0.9611 0.2411
C7_2 C 0.2500 0.7854(3) -0.0000
Cu2_2 Cu 0.2500 0.56194(4) -0.0000
O3 O 0.2013(2) 0.87622(17) 0.0793(4)
O5 O 0.2987(2) 0.62378(17) 0.0793(4)
N5_2 N 0.2976(2) 0.4968(2) 0.0900(5)
C25 C 0.2066(3) 0.8162(2) 0.0686(5)
C27 C 0.2934(3) 0.6838(2) 0.0686(5)
C28_2 C 0.2500 0.7146(3) -0.0000
C29 C 0.1587(3) 0.7813(3) 0.1418(5)
C31 C 0.3413(3) 0.7187(3) 0.1418(5)
H23 H 0.1494 0.8048 0.2113
H25 H 0.3506 0.6952 0.2113
H26 H 0.1751 0.7412 0.1636
H28 H 0.3249 0.7588 0.1636
H29 H 0.1212 0.7756 0.0967
H31 H 0.3788 0.7244 0.0967
O6 O 0.3315(3) 0.9452(3) 0.1545(5)
O8 O 0.1685(3) 0.5548(3) 0.1545(5)
C32 C 0.3908(7) 0.9218(8) 0.1423(19)
C34 C 0.1092(7) 0.5782(8) 0.1423(19)
H32 H 0.4120 0.9437 0.0805
H34 H 0.0880 0.5563 0.0805
H35 H 0.3886 0.8782 0.1231
H37 H 0.1114 0.6218 0.1231
H38 H 0.4132 0.9270 0.2146
H40 H 0.0868 0.5730 0.2146
Cu3 Cu 0.93806(4) 0.2500 0.5000
C22_2 C 0.9952(2) 0.1920(3) 0.2957(6)
H20_2 H 0.9611 0.2102 0.2589
O1_2 O 0.62378(17) 0.2987(2) 0.4207(4)
C6_2 C 0.6838(2) 0.2934(3) 0.4314(5)
C7_3 C 0.7146(3) 0.2500 0.5000
C8_2 C 0.7187(3) 0.3413(3) 0.3582(5)
H5_2 H 0.6952 0.3506 0.2887
H6_2 H 0.7588 0.3249 0.3364
H7_2 H 0.7244 0.3788 0.4033
O2_2 O 0.5548(3) 0.1685(3) 0.3455(5)
C9_2 C 0.5782(8) 0.1092(7) 0.3577(19)
H8_2 H 0.5563 0.0880 0.4195
H9_2 H 0.6218 0.1114 0.3769
H10_2 H 0.5730 0.0868 0.2854
O3_2 O 0.62378(17) 0.2013(2) 0.5793(4)
O4_2 O 0.87622(17) 0.2013(2) 0.4207(4)
O5_2 O 0.87622(17) 0.2987(2) 0.5793(4)
N3_2 N 0.4968(2) 0.2976(2) 0.4100(5)
C11_2 C 0.4471(3) 0.3240(3) 0.4621(6)
C12_2 C 0.3240(3) 0.4471(3) 0.0379(6)
H12_2 H 0.4411 0.3172 0.5419
C14_2 C 0.4048(3) 0.3605(3) 0.4031(5)
C15_2 C 0.3605(3) 0.4048(3) 0.0969(5)
H15_2 H 0.3706 0.3773 0.4421
H16_2 H 0.3773 0.3706 0.0579
C17_2 C 0.4141(2) 0.3722(2) 0.2838(5)
C18_2 C 0.3722(2) 0.4141(2) 0.2162(5)
C20_2 C 0.4654(3) 0.3444(3) 0.2288(6)
C21_2 C 0.3444(3) 0.4654(3) 0.2712(6)
H18_2 H 0.4727 0.3503 0.1491
H19_2 H 0.3503 0.4727 0.3509
C23_2 C 0.5048(2) 0.3080(3) 0.2957(6)
C24_2 C 0.3080(3) 0.5048(2) 0.2043(6)
H21_2 H 0.5389 0.2898 0.2589
H22_2 H 0.2898 0.5389 0.2411
C25_2 C 0.6838(2) 0.2066(3) 0.5686(5)
C26_2 C 0.8162(2) 0.2066(3) 0.4314(5)
C27_2 C 0.8162(2) 0.2934(3) 0.5686(5)
C28_3 C 0.7854(3) 0.2500 0.5000
C29_2 C 0.7187(3) 0.1587(3) 0.6418(5)
C30_2 C 0.7813(3) 0.1587(3) 0.3582(5)
C31_2 C 0.7813(3) 0.3413(3) 0.6418(5)
H23_2 H 0.6952 0.1494 0.7113
H24_2 H 0.8048 0.1494 0.2887
H25_2 H 0.8048 0.3506 0.7113
H26_2 H 0.7588 0.1751 0.6636
H27_2 H 0.7412 0.1751 0.3364
H28_2 H 0.7412 0.3249 0.6636
H29_2 H 0.7244 0.1212 0.5967
H30_2 H 0.7756 0.1212 0.4033
H31_2 H 0.7756 0.3788 0.5967
O6_2 O 0.5548(3) 0.3315(3) 0.6545(5)
O7_2 O 0.9452(3) 0.3315(3) 0.3455(5)
O8_2 O 0.9452(3) 0.1685(3) 0.6545(5)
C32_2 C 0.5782(8) 0.3908(7) 0.6423(19)
C33_2 C 0.9218(8) 0.3908(7) 0.3577(19)
C34_2 C 0.9218(8) 0.1092(7) 0.6423(19)
H32_2 H 0.5563 0.4120 0.5805
H33_2 H 0.9437 0.4120 0.4195
H34_2 H 0.9437 0.0880 0.5805
H35_2 H 0.6218 0.3886 0.6231
H36_2 H 0.8782 0.3886 0.3769
H37_2 H 0.8782 0.1114 0.6231
H38_2 H 0.5730 0.4132 0.7146
H39_2 H 0.9270 0.4132 0.2854
H40_2 H 0.9270 0.0868 0.7146
H11_2 H 0.1828 0.4411 0.0419
C5_2 C 0.9952(2) 0.3080(3) 0.7043(6)
H4_2 H 0.9611 0.2898 0.7411
Cu3_2 Cu 0.06194(4) 0.7500 0.5000
C22_3 C 0.0048(2) 0.8080(3) 0.7043(6)
H20_3 H 0.0389 0.7898 0.7411
Cu1_3 Cu 0.7500 0.06194(4) 1.0000
C5_3 C 0.8080(3) 0.0048(2) 0.7957(6)
H4_3 H 0.7898 0.0389 0.7589
C7_4 C 0.7500 0.2146(3) 1.0000
Cu2_3 Cu 0.7500 0.43806(4) 1.0000
O3_3 O 0.7987(2) 0.12378(17) 0.9207(4)
O5_3 O 0.7013(2) 0.37622(17) 0.9207(4)
N5_3 N 0.7024(2) 0.5032(2) 0.9100(5)
C25_3 C 0.7934(3) 0.1838(2) 0.9314(5)
C27_3 C 0.7066(3) 0.3162(2) 0.9314(5)
C28_4 C 0.7500 0.2854(3) 1.0000
C29_3 C 0.8413(3) 0.2187(3) 0.8582(5)
C31_3 C 0.6587(3) 0.2813(3) 0.8582(5)
H23_3 H 0.8506 0.1952 0.7887
H25_3 H 0.6494 0.3048 0.7887
H26_3 H 0.8249 0.2588 0.8364
H28_3 H 0.6751 0.2412 0.8364
H29_3 H 0.8788 0.2244 0.9033
H31_3 H 0.6212 0.2756 0.9033
O6_3 O 0.6685(3) 0.0548(3) 0.8455(5)
O8_3 O 0.8315(3) 0.4452(3) 0.8455(5)
C32_3 C 0.6092(7) 0.0782(8) 0.8577(19)
C34_3 C 0.8908(7) 0.4218(8) 0.8577(19)
H32_3 H 0.5880 0.0563 0.9195
H34_3 H 0.9120 0.4437 0.9195
H35_3 H 0.6114 0.1218 0.8769
H37_3 H 0.8886 0.3782 0.8769
H38_3 H 0.5868 0.0730 0.7854
H40_3 H 0.9132 0.4270 0.7854
H1_3 H 0.8172 0.9411 0.0419
Cu4_2 Cu 0.43806(4) 0.7500 0.5000
N3_3 N 0.7024(2) 0.9968(2) 0.0900(5)
N4_2 N 0.5032(2) 0.7976(2) 0.4100(5)
C11_3 C 0.6760(3) 0.9471(3) 0.0379(6)
C12_3 C 0.5529(3) 0.8240(3) 0.4621(6)
H13_3 H 0.5589 0.8172 0.5419
C14_3 C 0.6395(3) 0.9048(3) 0.0969(5)
C15_3 C 0.5952(3) 0.8605(3) 0.4031(5)
H15_3 H 0.6227 0.8706 0.0579
H16_3 H 0.6294 0.8773 0.4421
C17_3 C 0.6278(2) 0.9141(2) 0.2162(5)
C18_3 C 0.5859(2) 0.8722(2) 0.2838(5)
C20_3 C 0.6556(3) 0.9654(3) 0.2712(6)
C21_3 C 0.5346(3) 0.8444(3) 0.2288(6)
H18_3 H 0.6497 0.9727 0.3509
H19_3 H 0.5273 0.8503 0.1491
C24_3 C 0.4952(2) 0.8080(3) 0.2957(6)
H22_3 H 0.4611 0.7898 0.2589
O1_3 O 0.37622(17) 0.7013(2) 0.5793(4)
C6_3 C 0.3162(2) 0.7066(3) 0.5686(5)
C7_5 C 0.2854(3) 0.7500 0.5000
C8_3 C 0.2813(3) 0.6587(3) 0.6418(5)
H5_3 H 0.3048 0.6494 0.7113
H6_3 H 0.2412 0.6751 0.6636
H7_3 H 0.2756 0.6212 0.5967
O2_3 O 0.4452(3) 0.8315(3) 0.6545(5)
C9_3 C 0.4218(8) 0.8908(7) 0.6423(19)
H8_3 H 0.4437 0.9120 0.5805
H9_3 H 0.3782 0.8886 0.6231
H10_3 H 0.4270 0.9132 0.7146
O3_4 O 0.37622(17) 0.7987(2) 0.4207(4)
O4_3 O 0.12378(17) 0.7987(2) 0.5793(4)
O5_4 O 0.12378(17) 0.7013(2) 0.4207(4)
N3_4 N 0.5032(2) 0.7024(2) 0.5900(5)
C11_4 C 0.5529(3) 0.6760(3) 0.5379(6)
C12_4 C 0.6760(3) 0.5529(3) 0.9621(6)
H12_3 H 0.5589 0.6828 0.4581
C14_4 C 0.5952(3) 0.6395(3) 0.5969(5)
C15_4 C 0.6395(3) 0.5952(3) 0.9031(5)
H15_4 H 0.6294 0.6227 0.5579
H16_4 H 0.6227 0.6294 0.9421
C17_4 C 0.5859(2) 0.6278(2) 0.7162(5)
C18_4 C 0.6278(2) 0.5859(2) 0.7838(5)
C20_4 C 0.5346(3) 0.6556(3) 0.7712(6)
C21_4 C 0.6556(3) 0.5346(3) 0.7288(6)
H18_4 H 0.5273 0.6497 0.8509
H19_4 H 0.6497 0.5273 0.6491
C23_3 C 0.4952(2) 0.6920(3) 0.7043(6)
C24_4 C 0.6920(3) 0.4952(2) 0.7957(6)
H21_3 H 0.4611 0.7102 0.7411
H22_4 H 0.7102 0.4611 0.7589
C25_4 C 0.3162(2) 0.7934(3) 0.4314(5)
C26_3 C 0.1838(2) 0.7934(3) 0.5686(5)
C27_4 C 0.1838(2) 0.7066(3) 0.4314(5)
C28_5 C 0.2146(3) 0.7500 0.5000
C29_4 C 0.2813(3) 0.8413(3) 0.3582(5)
C30_3 C 0.2187(3) 0.8413(3) 0.6418(5)
C31_4 C 0.2187(3) 0.6587(3) 0.3582(5)
H23_4 H 0.3048 0.8506 0.2887
H24_3 H 0.1952 0.8506 0.7113
H25_4 H 0.1952 0.6494 0.2887
H26_4 H 0.2412 0.8249 0.3364
H27_3 H 0.2588 0.8249 0.6636
H28_4 H 0.2588 0.6751 0.3364
H29_4 H 0.2756 0.8788 0.4033
H30_3 H 0.2244 0.8788 0.5967
H31_4 H 0.2244 0.6212 0.4033
O6_4 O 0.4452(3) 0.6685(3) 0.3455(5)
O7_3 O 0.0548(3) 0.6685(3) 0.6545(5)
O8_4 O 0.0548(3) 0.8315(3) 0.3455(5)
C32_4 C 0.4218(8) 0.6092(7) 0.3577(19)
C33_3 C 0.0782(8) 0.6092(7) 0.6423(19)
C34_4 C 0.0782(8) 0.8908(7) 0.3577(19)
H32_4 H 0.4437 0.5880 0.4195
H33_3 H 0.0563 0.5880 0.5805
H34_4 H 0.0563 0.9120 0.4195
H35_4 H 0.3782 0.6114 0.3769
H36_3 H 0.1218 0.6114 0.6231
H37_4 H 0.1218 0.8886 0.3769
H38_4 H 0.4270 0.5868 0.2854
H39_3 H 0.0730 0.5868 0.7146
H40_4 H 0.0730 0.9132 0.2854
C5_4 C 0.0048(2) 0.6920(3) 0.2957(6)
H4_4 H 0.0389 0.7102 0.2589
H11_3 H 0.8172 0.5589 0.9581
Cu1_4 Cu 0.7500 0.06194(4) 0.0000
O1_4 O 0.7013(2) 0.12378(17) 0.0793(4)
C6_4 C 0.7066(3) 0.1838(2) 0.0686(5)
C7_6 C 0.7500 0.2146(3) 0.0000
C8_4 C 0.6587(3) 0.2187(3) 0.1418(5)
H5_4 H 0.6494 0.1952 0.2113
H6_4 H 0.6751 0.2588 0.1636
H7_4 H 0.6212 0.2244 0.0967
O2_4 O 0.8315(3) 0.0548(3) 0.1545(5)
C9_4 C 0.8908(7) 0.0782(8) 0.1423(19)
H8_4 H 0.9120 0.0563 0.0805
H9_4 H 0.8886 0.1218 0.1231
H10_4 H 0.9132 0.0730 0.2146
Cu2_4 Cu 0.7500 0.43806(4) 0.0000
O4_4 O 0.7987(2) 0.37622(17) 0.0793(4)
N6_2 N 0.7976(2) 0.5032(2) 0.0900(5)
C23_4 C 0.6920(3) 0.0048(2) 0.2043(6)
H21_4 H 0.7102 0.0389 0.2411
C26_4 C 0.7934(3) 0.3162(2) 0.0686(5)
C28_6 C 0.7500 0.2854(3) 0.0000
C30_4 C 0.8413(3) 0.2813(3) 0.1418(5)
H24_4 H 0.8506 0.3048 0.2113
H27_4 H 0.8249 0.2412 0.1636
H30_4 H 0.8788 0.2756 0.0967
O7_4 O 0.6685(3) 0.4452(3) 0.1545(5)
C33_4 C 0.6092(7) 0.4218(8) 0.1423(19)
H33_4 H 0.5880 0.4437 0.0805
H36_4 H 0.6114 0.3782 0.1231
H39_4 H 0.5868 0.4270 0.2146
N1_2 N 0.7976(2) 0.9968(2) 0.9100(5)
C1_3 C 0.8240(3) 0.9471(3) 0.9621(6)
C2_3 C 0.8605(3) 0.9048(3) 0.9031(5)
H2_3 H 0.8773 0.8706 0.9421
C3_3 C 0.8722(2) 0.9141(2) 0.7838(5)
C4_3 C 0.8444(3) 0.9654(3) 0.7288(6)
H3_3 H 0.8503 0.9727 0.6491
N2_2 N 0.9968(2) 0.7976(2) 0.5900(5)
C10_3 C 0.9471(3) 0.8240(3) 0.5379(6)
H11_4 H 0.9411 0.8172 0.4581
H12_4 H 0.6828 0.9411 0.9581
C13_3 C 0.9048(3) 0.8605(3) 0.5969(5)
H14_3 H 0.8706 0.8773 0.5579
C16_3 C 0.9141(2) 0.8722(2) 0.7162(5)
C19_3 C 0.9654(3) 0.8444(3) 0.7712(6)
H17_3 H 0.9727 0.8503 0.8509
H13_4 H 0.6828 0.5589 0.0419
N5_4 N 0.9968(2) 0.7024(2) 0.4100(5)
C1_4 C 0.9471(3) 0.6760(3) 0.4621(6)
H1_4 H 0.9411 0.6828 0.5419
C2_4 C 0.9048(3) 0.6395(3) 0.4031(5)
H2_4 H 0.8706 0.6227 0.4421
C3_4 C 0.9141(2) 0.6278(2) 0.2838(5)
C4_4 C 0.9654(3) 0.6556(3) 0.2288(6)
H3_4 H 0.9727 0.6497 0.1491
C10_4 C 0.8240(3) 0.5529(3) 0.0379(6)
C13_4 C 0.8605(3) 0.5952(3) 0.0969(5)
H14_4 H 0.8773 0.6294 0.0579
C16_4 C 0.8722(2) 0.5859(2) 0.2162(5)
C19_4 C 0.8444(3) 0.5346(3) 0.2712(6)
H17_4 H 0.8503 0.5273 0.3509
C22_4 C 0.8080(3) 0.4952(2) 0.2043(6)
H20_4 H 0.7898 0.4611 0.2411
loop_
_geom_bond_atom_site_label_1
_geom_bond_atom_site_label_2
_geom_bond_site_symmetry_1
_geom_bond_site_symmetry_2
C1 N1 1_555 1_555
C2 C1 1_555 1_555
H2 C2 1_555 1_555
C3 C2 1_555 1_555
C4 C3 1_555 1_555
H3 C4 1_555 1_555
N2 C10 1_555 1_555
C10 H11 1_555 1_555
C13 C10 1_555 1_555
H14 C13 1_555 1_555
C16 C3 1_555 1_555
C19 C16 1_555 1_555
H17 C19 1_555 1_555
C13 C16 1_555 1_555
Cu1 O1 1_555 1_555
O1 C6 1_555 1_555
C6 C7 1_555 1_555
C8 C6 1_555 1_555
H5 C8 1_555 1_555
H6 C8 1_555 1_555
H7 C8 1_555 1_555
O2 Cu1 1_555 1_555
C9 O2 1_555 1_555
H8 C9 1_555 1_555
H9 C9 1_555 1_555
H10 C9 1_555 1_555
Cu2 O4 1_555 1_555
O4 C26 1_555 1_555
N6 Cu2 1_555 1_555
H21 C23 1_555 1_555
C26 C28 1_555 1_555
C28 C7 1_555 1_555
C30 C26 1_555 1_555
H24 C30 1_555 1_555
H27 C30 1_555 1_555
H30 C30 1_555 1_555
O7 Cu2 1_555 1_555
C33 O7 1_555 1_555
H33 C33 1_555 1_555
H36 C33 1_555 1_555
H39 C33 1_555 1_555
C1_2 N5 1_555 1_555
H1 C1_2 1_555 1_555
C2_2 C1_2 1_555 1_555
H2_2 C2_2 1_555 1_555
C3_2 C2_2 1_555 1_555
C4_2 C3_2 1_555 1_555
H3_2 C4_2 1_555 1_555
N6 C10_2 1_555 1_555
C13_2 C10_2 1_555 1_555
H14_2 C13_2 1_555 1_555
C16_2 C3_2 1_555 1_555
C19_2 C16_2 1_555 1_555
H17_2 C19_2 1_555 1_555
C22 N6 1_555 1_555
H20 C22 1_555 1_555
C13_2 C16_2 1_555 1_555
C19_2 C22 1_555 1_555
Cu4 N4 1_555 1_555
N4 C12 1_555 1_555
C11 N3 1_555 1_555
C12 H13_2 1_555 1_555
C14 C11 1_555 1_555
C15 C12 1_555 1_555
H15 C14 1_555 1_555
H16 C15 1_555 1_555
C17 C14 1_555 1_555
C18 C15 1_555 1_555
C20 C17 1_555 1_555
C21 C18 1_555 1_555
H18 C20 1_555 1_555
H19 C21 1_555 1_555
C24 N4 1_555 1_555
H22 C24 1_555 1_555
C17 C18 1_555 1_555
C21 C24 1_555 1_555
H4 C5 1_555 1_555
C7_2 C25 1_555 1_555
O3 Cu1_2 1_555 1_555
O5 Cu2_2 1_555 1_555
N5_2 Cu2_2 1_555 1_555
C25 O3 1_555 1_555
C27 O5 1_555 1_555
C28_2 C7_2 1_555 1_555
C29 C25 1_555 1_555
C31 C27 1_555 1_555
H23 C29 1_555 1_555
H25 C31 1_555 1_555
H26 C29 1_555 1_555
H28 C31 1_555 1_555
H29 C29 1_555 1_555
H31 C31 1_555 1_555
O6 Cu1_2 1_555 1_555
O8 Cu2_2 1_555 1_555
C32 O6 1_555 1_555
C34 O8 1_555 1_555
H32 C32 1_555 1_555
H34 C34 1_555 1_555
H35 C32 1_555 1_555
H37 C34 1_555 1_555
H38 C32 1_555 1_555
H40 C34 1_555 1_555
C27 C28_2 1_555 1_555
H20_2 C22_2 1_555 1_555
Cu4 O1_2 1_555 1_555
O1_2 C6_2 1_555 1_555
C6_2 C7_3 1_555 1_555
C7_3 C25_2 1_555 1_555
C8_2 C6_2 1_555 1_555
H5_2 C8_2 1_555 1_555
H6_2 C8_2 1_555 1_555
H7_2 C8_2 1_555 1_555
O2_2 Cu4 1_555 1_555
C9_2 O2_2 1_555 1_555
H8_2 C9_2 1_555 1_555
H9_2 C9_2 1_555 1_555
H10_2 C9_2 1_555 1_555
Cu3 O4_2 1_555 1_555
O3_2 Cu4 1_555 1_555
O4_2 C26_2 1_555 1_555
O5_2 Cu3 1_555 1_555
N3_2 Cu4 1_555 1_555
N5_2 C12_2 1_555 1_555
C11_2 N3_2 1_555 1_555
H12_2 C11_2 1_555 1_555
C14_2 C11_2 1_555 1_555
C15_2 C12_2 1_555 1_555
H15_2 C14_2 1_555 1_555
H16_2 C15_2 1_555 1_555
C17_2 C14_2 1_555 1_555
C18_2 C15_2 1_555 1_555
C20_2 C17_2 1_555 1_555
C21_2 C18_2 1_555 1_555
H18_2 C20_2 1_555 1_555
H19_2 C21_2 1_555 1_555
C23_2 N3_2 1_555 1_555
C24_2 N5_2 1_555 1_555
H21_2 C23_2 1_555 1_555
H22_2 C24_2 1_555 1_555
C25_2 O3_2 1_555 1_555
C26_2 C28_3 1_555 1_555
C27_2 O5_2 1_555 1_555
C28_3 C7_3 1_555 1_555
C29_2 C25_2 1_555 1_555
C30_2 C26_2 1_555 1_555
C31_2 C27_2 1_555 1_555
H23_2 C29_2 1_555 1_555
H24_2 C30_2 1_555 1_555
H25_2 C31_2 1_555 1_555
H26_2 C29_2 1_555 1_555
H27_2 C30_2 1_555 1_555
H28_2 C31_2 1_555 1_555
H29_2 C29_2 1_555 1_555
H30_2 C30_2 1_555 1_555
H31_2 C31_2 1_555 1_555
O6_2 Cu4 1_555 1_555
O7_2 Cu3 1_555 1_555
O8_2 Cu3 1_555 1_555
C32_2 O6_2 1_555 1_555
C33_2 O7_2 1_555 1_555
C34_2 O8_2 1_555 1_555
H32_2 C32_2 1_555 1_555
H33_2 C33_2 1_555 1_555
H34_2 C34_2 1_555 1_555
H35_2 C32_2 1_555 1_555
H36_2 C33_2 1_555 1_555
H37_2 C34_2 1_555 1_555
H38_2 C32_2 1_555 1_555
H39_2 C33_2 1_555 1_555
H40_2 C34_2 1_555 1_555
C17_2 C18_2 1_555 1_555
C20_2 C23_2 1_555 1_555
C21_2 C24_2 1_555 1_555
C27_2 C28_3 1_555 1_555
H4_2 C5_2 1_555 1_555
H20_3 C22_3 1_555 1_555
H4_3 C5_3 1_555 1_555
C7_4 C25_3 1_555 1_555
O3_3 Cu1_3 1_555 1_555
O5_3 Cu2_3 1_555 1_555
N5_3 Cu2_3 1_555 1_555
C25_3 O3_3 1_555 1_555
C27_3 O5_3 1_555 1_555
C28_4 C7_4 1_555 1_555
C29_3 C25_3 1_555 1_555
C31_3 C27_3 1_555 1_555
H23_3 C29_3 1_555 1_555
H25_3 C31_3 1_555 1_555
H26_3 C29_3 1_555 1_555
H28_3 C31_3 1_555 1_555
H29_3 C29_3 1_555 1_555
H31_3 C31_3 1_555 1_555
O6_3 Cu1_3 1_555 1_555
O8_3 Cu2_3 1_555 1_555
C32_3 O6_3 1_555 1_555
C34_3 O8_3 1_555 1_555
H32_3 C32_3 1_555 1_555
H34_3 C34_3 1_555 1_555
H35_3 C32_3 1_555 1_555
H37_3 C34_3 1_555 1_555
H38_3 C32_3 1_555 1_555
H40_3 C34_3 1_555 1_555
C27_3 C28_4 1_555 1_555
Cu4_2 N4_2 1_555 1_555
N4_2 C12_3 1_555 1_555
C11_3 N3_3 1_555 1_555
C12_3 H13_3 1_555 1_555
C14_3 C11_3 1_555 1_555
C15_3 C12_3 1_555 1_555
H15_3 C14_3 1_555 1_555
H16_3 C15_3 1_555 1_555
C17_3 C14_3 1_555 1_555
C18_3 C15_3 1_555 1_555
C20_3 C17_3 1_555 1_555
C21_3 C18_3 1_555 1_555
H18_3 C20_3 1_555 1_555
H19_3 C21_3 1_555 1_555
C24_3 N4_2 1_555 1_555
H22_3 C24_3 1_555 1_555
C17_3 C18_3 1_555 1_555
C21_3 C24_3 1_555 1_555
Cu4_2 O1_3 1_555 1_555
O1_3 C6_3 1_555 1_555
C6_3 C7_5 1_555 1_555
C7_5 C25_4 1_555 1_555
C8_3 C6_3 1_555 1_555
H5_3 C8_3 1_555 1_555
H6_3 C8_3 1_555 1_555
H7_3 C8_3 1_555 1_555
O2_3 Cu4_2 1_555 1_555
C9_3 O2_3 1_555 1_555
H8_3 C9_3 1_555 1_555
H9_3 C9_3 1_555 1_555
H10_3 C9_3 1_555 1_555
Cu3_2 O4_3 1_555 1_555
O3_4 Cu4_2 1_555 1_555
O4_3 C26_3 1_555 1_555
O5_4 Cu3_2 1_555 1_555
N3_4 Cu4_2 1_555 1_555
N5_3 C12_4 1_555 1_555
C11_4 N3_4 1_555 1_555
H12_3 C11_4 1_555 1_555
C14_4 C11_4 1_555 1_555
C15_4 C12_4 1_555 1_555
H15_4 C14_4 1_555 1_555
H16_4 C15_4 1_555 1_555
C17_4 C14_4 1_555 1_555
C18_4 C15_4 1_555 1_555
C20_4 C17_4 1_555 1_555
C21_4 C18_4 1_555 1_555
H18_4 C20_4 1_555 1_555
H19_4 C21_4 1_555 1_555
C23_3 N3_4 1_555 1_555
C24_4 N5_3 1_555 1_555
H21_3 C23_3 1_555 1_555
H22_4 C24_4 1_555 1_555
C25_4 O3_4 1_555 1_555
C26_3 C28_5 1_555 1_555
C27_4 O5_4 1_555 1_555
C28_5 C7_5 1_555 1_555
C29_4 C25_4 1_555 1_555
C30_3 C26_3 1_555 1_555
C31_4 C27_4 1_555 1_555
H23_4 C29_4 1_555 1_555
H24_3 C30_3 1_555 1_555
H25_4 C31_4 1_555 1_555
H26_4 C29_4 1_555 1_555
H27_3 C30_3 1_555 1_555
H28_4 C31_4 1_555 1_555
H29_4 C29_4 1_555 1_555
H30_3 C30_3 1_555 1_555
H31_4 C31_4 1_555 1_555
O6_4 Cu4_2 1_555 1_555
O7_3 Cu3_2 1_555 1_555
O8_4 Cu3_2 1_555 1_555
C32_4 O6_4 1_555 1_555
C33_3 O7_3 1_555 1_555
C34_4 O8_4 1_555 1_555
H32_4 C32_4 1_555 1_555
H33_3 C33_3 1_555 1_555
H34_4 C34_4 1_555 1_555
H35_4 C32_4 1_555 1_555
H36_3 C33_3 1_555 1_555
H37_4 C34_4 1_555 1_555
H38_4 C32_4 1_555 1_555
H39_3 C33_3 1_555 1_555
H40_4 C34_4 1_555 1_555
C17_4 C18_4 1_555 1_555
C20_4 C23_3 1_555 1_555
C21_4 C24_4 1_555 1_555
C27_4 C28_5 1_555 1_555
H4_4 C5_4 1_555 1_555
Cu1_4 O1_4 1_555 1_555
O1_4 C6_4 1_555 1_555
C6_4 C7_6 1_555 1_555
C8_4 C6_4 1_555 1_555
H5_4 C8_4 1_555 1_555
H6_4 C8_4 1_555 1_555
H7_4 C8_4 1_555 1_555
O2_4 Cu1_4 1_555 1_555
C9_4 O2_4 1_555 1_555
H8_4 C9_4 1_555 1_555
H9_4 C9_4 1_555 1_555
H10_4 C9_4 1_555 1_555
Cu2_4 O4_4 1_555 1_555
O4_4 C26_4 1_555 1_555
N6_2 Cu2_4 1_555 1_555
H21_4 C23_4 1_555 1_555
C26_4 C28_6 1_555 1_555
C28_6 C7_6 1_555 1_555
C30_4 C26_4 1_555 1_555
H24_4 C30_4 1_555 1_555
H27_4 C30_4 1_555 1_555
H30_4 C30_4 1_555 1_555
O7_4 Cu2_4 1_555 1_555
C33_4 O7_4 1_555 1_555
H33_4 C33_4 1_555 1_555
H36_4 C33_4 1_555 1_555
H39_4 C33_4 1_555 1_555
C1_3 N1_2 1_555 1_555
C2_3 C1_3 1_555 1_555
H2_3 C2_3 1_555 1_555
C3_3 C2_3 1_555 1_555
C4_3 C3_3 1_555 1_555
H3_3 C4_3 1_555 1_555
N2_2 C10_3 1_555 1_555
C10_3 H11_4 1_555 1_555
C13_3 C10_3 1_555 1_555
H14_3 C13_3 1_555 1_555
C16_3 C3_3 1_555 1_555
C19_3 C16_3 1_555 1_555
H17_3 C19_3 1_555 1_555
C13_3 C16_3 1_555 1_555
C1_4 N5_4 1_555 1_555
H1_4 C1_4 1_555 1_555
C2_4 C1_4 1_555 1_555
H2_4 C2_4 1_555 1_555
C3_4 C2_4 1_555 1_555
C4_4 C3_4 1_555 1_555
H3_4 C4_4 1_555 1_555
N6_2 C10_4 1_555 1_555
C13_4 C10_4 1_555 1_555
H14_4 C13_4 1_555 1_555
C16_4 C3_4 1_555 1_555
C19_4 C16_4 1_555 1_555
H17_4 C19_4 1_555 1_555
C22_4 N6_2 1_555 1_555
H20_4 C22_4 1_555 1_555
C13_4 C16_4 1_555 1_555
C19_4 C22_4 1_555 1_555

#END
