
###############################################################################
#
# This file contains modified crystal structure data generated from the
# MOF subset of the Cambridge Structural Database (CSD) v543 
# hosted by the Cambridge Crystallographic Data Centre (CCDC).
#
# This work is licensed under the Creative Commons
# Attribution-NonCommercial-ShareAlike 4.0 International License.
# To view a copy of this license, visit
# http://creativecommons.org/licenses/by-nc-sa/4.0/
# or send a letter to
# Creative Commons, PO Box 1866, Mountain View, CA 94042, USA.
#
# CIF created using the CSD Python API on 29 September 2022
# The structure has been converted into the P1 space group
# The structure has a 3D framework
# The original CSD entry LESWAI is in the monoclinic crystal system
# The framework has been calculated to contain at least 10.0% void space
# The void calculation uses a probe of radius 1.32A, grid spacing 0.4
#
###############################################################################

data_LESWAI
_chemical_formula_moiety         '(C168 H128 La8 N8 O59)n'
_symmetry_cell_setting           triclinic
_symmetry_space_group_name_H-M   'P 1'
_symmetry_Int_Tables_number      1
_space_group_name_Hall           'P 1'
loop_
_symmetry_equiv_pos_site_id
_symmetry_equiv_pos_as_xyz
1 x,y,z
_cell_length_a                   12.4561(14)
_cell_length_b                   21.813(3)
_cell_length_c                   16.592(2)
_cell_angle_alpha                90
_cell_angle_beta                 103.659(2)
_cell_angle_gamma                90
_cell_volume                     4380.63
loop_
_atom_site_label
_atom_site_type_symbol
_atom_site_fract_x
_atom_site_fract_y
_atom_site_fract_z
La7 La 0.47052(2) 0.046910(14) 0.09998(2)
C10 C 0.0103(6) 0.0496(3) 0.6406(4)
H5 H 0.0645 0.0500 0.6105
C12 C 0.0413(5) 0.0499(3) 0.7274(4)
O13 O 0.3685(4) 0.0242(2) 0.8649(3)
O15 O 0.3205(4) 0.0582(2) 0.9766(3)
C28 C 0.2987(5) 0.0429(3) 0.9026(4)
C29 C 0.1810(5) 0.0472(3) 0.8550(4)
C30 C 0.0974(6) 0.0486(3) 0.8999(5)
H20 H 0.1168 0.0489 0.9576
C32 C 0.1527(5) 0.0478(3) 0.7714(4)
H22 H 0.2078 0.0468 0.7422
La6 La 0.52948(2) 0.953090(14) 0.90002(2)
O3 O 0.6315(4) 0.0242(2) 0.6351(3)
O4 O 0.6795(4) 0.0582(2) 0.5234(3)
C7 C 0.7013(5) 0.0429(3) 0.5974(4)
C8 C 0.8190(5) 0.0472(3) 0.6450(4)
C9 C 0.9026(6) 0.0486(3) 0.6001(5)
H4 H 0.8832 0.0489 0.5424
C11 C 0.8473(5) 0.0478(3) 0.7286(4)
H6 H 0.7922 0.0468 0.7578
O5 O 0.3447(4) 0.0460(2) 0.6085(3)
O6 O 0.4251(3) 0.06306(19) 0.5066(3)
C13 C 0.3641(5) 0.0796(3) 0.5538(4)
C14 C 0.3131(5) 0.1427(3) 0.5425(4)
C15 C 0.3247(5) 0.1800(3) 0.4797(4)
H7 H 0.3637 0.1663 0.4418
C16 C 0.2786(5) 0.2393(3) 0.4711(4)
C17 C 0.2528(7) 0.1632(3) 0.5994(5)
H8 H 0.2433 0.1373 0.6417
C18 C 0.2915(7) 0.2798(4) 0.4066(5)
H9 H 0.3307 0.2669 0.3684
O8 O 0.5000 0.0068(3) 0.7500
La4 La 0.52948(2) 0.046910(14) 0.40002(2)
La8 La 0.02948(2) 0.546910(14) 0.40002(2)
C31 C 0.9897(6) 0.0496(3) 0.8594(4)
H21 H 0.9355 0.0500 0.8895
C33 C 0.9587(5) 0.0499(3) 0.7726(4)
O18 O 0.1553(4) 0.4540(2) 0.3915(3)
O20 O 0.0749(3) 0.43694(19) 0.4934(3)
C34 C 0.1359(5) 0.4204(3) 0.4462(4)
C35 C 0.1869(5) 0.3573(3) 0.4575(4)
C36 C 0.1753(5) 0.3200(3) 0.5203(4)
H23 H 0.1363 0.3337 0.5582
C37 C 0.2214(5) 0.2607(3) 0.5289(4)
C38 C 0.2472(7) 0.3368(3) 0.4006(5)
H24 H 0.2567 0.3627 0.3583
C39 C 0.2085(7) 0.2202(4) 0.5934(5)
H25 H 0.1693 0.2331 0.6316
La1 La 0.47052(2) 0.953090(14) 0.59998(2)
O1 O 0.3459(3) 0.9128(2) 0.6760(3)
O2 O 0.3783(3) 0.8946(2) 0.8102(3)
C1 C 0.3149(5) 0.9016(3) 0.7403(4)
C2 C 0.1931(5) 0.8958(3) 0.7311(4)
C3 C 0.1235(5) 0.8958(3) 0.6513(4)
H1 H 0.1536 0.8973 0.6050
C4 C 0.0122(5) 0.8938(4) 0.6414(4)
C5 C 0.1499(5) 0.8939(3) 0.7986(4)
H3 H 0.1967 0.8931 0.8514
O7 O 0.4386(4) 0.8370(2) 0.5677(4)
C19 C 0.391(3) 0.7076(12) 0.691(2)
H10 H 0.3945 0.7370 0.7342
H11 H 0.4496 0.6782 0.7072
H12 H 0.3212 0.6868 0.6797
C20 C 0.4021(15) 0.7147(8) 0.5301(12)
H13 H 0.4189 0.7463 0.4947
H14 H 0.3301 0.6983 0.5062
H15 H 0.4561 0.6826 0.5357
C21 C 0.4262(13) 0.8007(5) 0.6208(12)
H16 H 0.4330 0.8166 0.6737
N1 N 0.4038(13) 0.7405(5) 0.6120(11)
O11 O 0.6217(3) 0.8946(2) 0.6898(3)
H18 H 0.0336 0.8928 0.9117
C27 C 0.0341(5) 0.8931(3) 0.7895(4)
O16 O 0.3205(4) 0.9418(2) 0.4766(3)
O21 O 0.5749(3) 0.93694(19) 0.4934(3)
La9 La 0.97052(2) 0.453090(14) 0.59998(2)
O19 O 0.6553(4) 0.0460(2) 0.8915(3)
O23 O 0.5749(3) 0.06306(19) 0.9934(3)
O17 O 0.6795(4) 0.9418(2) 0.0234(3)
O22 O 0.4251(3) 0.93694(19) 0.0066(3)
H29 H 0.5811 0.7463 0.0053
H2 H 0.9664 0.8928 0.5883
C6 C 0.9659(5) 0.8931(3) 0.7105(4)
O9 O 0.6541(3) 0.9128(2) 0.8240(3)
C22 C 0.6851(5) 0.9016(3) 0.7597(4)
C23 C 0.8069(5) 0.8958(3) 0.7689(4)
C24 C 0.8765(5) 0.8958(3) 0.8487(4)
H17 H 0.8464 0.8973 0.8950
C25 C 0.9878(5) 0.8938(4) 0.8586(4)
C26 C 0.8501(5) 0.8939(3) 0.7014(4)
H19 H 0.8033 0.8931 0.6486
O24 O 0.5614(4) 0.8370(2) 0.9323(4)
C40 C 0.609(3) 0.7076(12) 0.809(2)
H26 H 0.6055 0.7370 0.7658
H27 H 0.5504 0.6782 0.7928
H28 H 0.6788 0.6868 0.8203
C41 C 0.5979(15) 0.7147(8) 0.9699(12)
H30 H 0.6699 0.6983 0.9938
H31 H 0.5439 0.6826 0.9643
C42 C 0.5738(13) 0.8007(5) 0.8792(12)
H32 H 0.5670 0.8166 0.8263
N2 N 0.5962(13) 0.7405(5) 0.8880(11)
La6_2 La 0.02948(2) 0.453090(14) 0.90002(2)
La7_2 La 0.97052(2) 0.546910(14) 0.09998(2)
O3_2 O 0.1315(4) 0.5242(2) 0.6351(3)
O4_2 O 0.1795(4) 0.5582(2) 0.5234(3)
C7_2 C 0.2013(5) 0.5429(3) 0.5974(4)
C8_2 C 0.3190(5) 0.5472(3) 0.6450(4)
C9_2 C 0.4026(6) 0.5486(3) 0.6001(5)
H4_2 H 0.3832 0.5489 0.5424
C10_2 C 0.5103(6) 0.5496(3) 0.6406(4)
H5_2 H 0.5645 0.5500 0.6105
C11_2 C 0.3473(5) 0.5478(3) 0.7286(4)
H6_2 H 0.2922 0.5468 0.7578
C12_2 C 0.5413(5) 0.5499(3) 0.7274(4)
O8_2 O 0.0000 0.5068(3) 0.7500
O11_2 O 0.1217(3) 0.3946(2) 0.6898(3)
O13_2 O 0.8685(4) 0.5242(2) 0.8649(3)
O15_2 O 0.8205(4) 0.5582(2) 0.9766(3)
C28_2 C 0.7987(5) 0.5429(3) 0.9026(4)
C29_2 C 0.6810(5) 0.5472(3) 0.8550(4)
C30_2 C 0.5974(6) 0.5486(3) 0.8999(5)
H20_2 H 0.6168 0.5489 0.9576
C31_2 C 0.4897(6) 0.5496(3) 0.8594(4)
H21_2 H 0.4355 0.5500 0.8895
C32_2 C 0.6527(5) 0.5478(3) 0.7714(4)
H22_2 H 0.7078 0.5468 0.7422
C33_2 C 0.4587(5) 0.5499(3) 0.7726(4)
O17_2 O 0.1795(4) 0.4418(2) 0.0234(3)
H29_2 H 0.0811 0.2463 0.0053
O1_2 O 0.8459(3) 0.4128(2) 0.6760(3)
O2_2 O 0.8783(3) 0.3946(2) 0.8102(3)
C1_2 C 0.8149(5) 0.4016(3) 0.7403(4)
C2_2 C 0.6931(5) 0.3958(3) 0.7311(4)
C3_2 C 0.6235(5) 0.3958(3) 0.6513(4)
H1_2 H 0.6536 0.3973 0.6050
C4_2 C 0.5122(5) 0.3938(4) 0.6414(4)
H2_2 H 0.4664 0.3928 0.5883
C5_2 C 0.6499(5) 0.3939(3) 0.7986(4)
H3_2 H 0.6967 0.3931 0.8514
C6_2 C 0.4659(5) 0.3931(3) 0.7105(4)
O5_2 O 0.8447(4) 0.5460(2) 0.6085(3)
O6_2 O 0.9251(3) 0.56306(19) 0.5066(3)
C13_2 C 0.8641(5) 0.5796(3) 0.5538(4)
C14_2 C 0.8131(5) 0.6427(3) 0.5425(4)
C15_2 C 0.8247(5) 0.6800(3) 0.4797(4)
H7_2 H 0.8637 0.6663 0.4418
C16_2 C 0.7786(5) 0.7393(3) 0.4711(4)
C17_2 C 0.7528(7) 0.6632(3) 0.5994(5)
H8_2 H 0.7433 0.6373 0.6417
C18_2 C 0.7915(7) 0.7798(4) 0.4066(5)
H9_2 H 0.8307 0.7669 0.3684
O7_2 O 0.9386(4) 0.3370(2) 0.5677(4)
C19_2 C 0.891(3) 0.2076(12) 0.691(2)
H10_2 H 0.8945 0.2370 0.7342
H11_2 H 0.9496 0.1782 0.7072
H12_2 H 0.8212 0.1868 0.6797
C20_2 C 0.9021(15) 0.2147(8) 0.5301(12)
H13_2 H 0.9189 0.2463 0.4947
H14_2 H 0.8301 0.1983 0.5062
H15_2 H 0.9561 0.1826 0.5357
C21_2 C 0.9262(13) 0.3007(5) 0.6208(12)
H16_2 H 0.9330 0.3166 0.6737
N1_2 N 0.9038(13) 0.2405(5) 0.6120(11)
O8_3 O 1.0000 0.5068(3) 0.7500
O9_2 O 0.1541(3) 0.4128(2) 0.8240(3)
C22_2 C 0.1851(5) 0.4016(3) 0.7597(4)
C23_2 C 0.3069(5) 0.3958(3) 0.7689(4)
C24_2 C 0.3765(5) 0.3958(3) 0.8487(4)
H17_2 H 0.3464 0.3973 0.8950
C25_2 C 0.4878(5) 0.3938(4) 0.8586(4)
H18_2 H 0.5336 0.3928 0.9117
C26_2 C 0.3501(5) 0.3939(3) 0.7014(4)
H19_2 H 0.3033 0.3931 0.6486
C27_2 C 0.5341(5) 0.3931(3) 0.7895(4)
O16_2 O 0.8205(4) 0.4418(2) 0.4766(3)
O18_2 O 0.6553(4) 0.9540(2) 0.3915(3)
O19_2 O 0.1553(4) 0.5460(2) 0.8915(3)
O23_2 O 0.0749(3) 0.56306(19) 0.9934(3)
C34_2 C 0.6359(5) 0.9204(3) 0.4462(4)
C35_2 C 0.6869(5) 0.8573(3) 0.4575(4)
C36_2 C 0.6753(5) 0.8200(3) 0.5203(4)
H23_2 H 0.6363 0.8337 0.5582
C37_2 C 0.7214(5) 0.7607(3) 0.5289(4)
C38_2 C 0.7472(7) 0.8368(3) 0.4006(5)
H24_2 H 0.7567 0.8627 0.3583
C39_2 C 0.7085(7) 0.7202(4) 0.5934(5)
H25_2 H 0.6693 0.7331 0.6316
O24_2 O 0.0614(4) 0.3370(2) 0.9323(4)
C40_2 C 0.109(3) 0.2076(12) 0.809(2)
H26_2 H 0.1055 0.2370 0.7658
H27_2 H 0.0504 0.1782 0.7928
H28_2 H 0.1788 0.1868 0.8203
C41_2 C 0.0979(15) 0.2147(8) 0.9699(12)
H30_2 H 0.1699 0.1983 0.9938
H31_2 H 0.0439 0.1826 0.9643
C42_2 C 0.0738(13) 0.3007(5) 0.8792(12)
H32_2 H 0.0670 0.3166 0.8263
N2_2 N 0.0962(13) 0.2405(5) 0.8880(11)
O22_2 O 0.9251(3) 0.43694(19) 0.0066(3)
C15_3 C 0.6753(5) 0.1800(3) 0.0203(4)
H7_3 H 0.6363 0.1663 0.0582
C16_3 C 0.7214(5) 0.2393(3) 0.0289(4)
C18_3 C 0.7085(7) 0.2798(4) 0.0934(5)
H9_3 H 0.6693 0.2669 0.1316
O18_3 O 0.8447(4) 0.4540(2) 0.1085(3)
C34_3 C 0.8641(5) 0.4204(3) 0.0538(4)
C35_3 C 0.8131(5) 0.3573(3) 0.0425(4)
C38_3 C 0.7528(7) 0.3368(3) 0.0994(5)
H24_3 H 0.7433 0.3627 0.1417
C13_3 C 0.6359(5) 0.0796(3) 0.9462(4)
C14_3 C 0.6869(5) 0.1427(3) 0.9575(4)
C17_3 C 0.7472(7) 0.1632(3) 0.9006(5)
H8_3 H 0.7567 0.1373 0.8583
C36_3 C 0.8247(5) 0.3200(3) 0.9797(4)
H23_3 H 0.8637 0.3337 0.9418
C37_3 C 0.7786(5) 0.2607(3) 0.9711(4)
C39_3 C 0.7915(7) 0.2202(4) 0.9066(5)
H25_3 H 0.8307 0.2331 0.8684
C15_4 C 0.1753(5) 0.6800(3) 0.0203(4)
H7_4 H 0.1363 0.6663 0.0582
C16_4 C 0.2214(5) 0.7393(3) 0.0289(4)
C18_4 C 0.2085(7) 0.7798(4) 0.0934(5)
H9_4 H 0.1693 0.7669 0.1316
O18_4 O 0.3447(4) 0.9540(2) 0.1085(3)
C34_4 C 0.3641(5) 0.9204(3) 0.0538(4)
C35_4 C 0.3131(5) 0.8573(3) 0.0425(4)
C38_4 C 0.2528(7) 0.8368(3) 0.0994(5)
H24_4 H 0.2433 0.8627 0.1417
C13_4 C 0.1359(5) 0.5796(3) 0.9462(4)
C14_4 C 0.1869(5) 0.6427(3) 0.9575(4)
C17_4 C 0.2472(7) 0.6632(3) 0.9006(5)
H8_4 H 0.2567 0.6373 0.8583
C36_4 C 0.3247(5) 0.8200(3) 0.9797(4)
H23_4 H 0.3637 0.8337 0.9418
C37_4 C 0.2786(5) 0.7607(3) 0.9711(4)
C39_4 C 0.2915(7) 0.7202(4) 0.9066(5)
H25_4 H 0.3307 0.7331 0.8684
H2_3 H 0.0336 0.1072 0.4117
C6_3 C 0.0341(5) 0.1069(3) 0.2895(4)
O9_3 O 0.3459(3) 0.0872(2) 0.1760(3)
O10 O 0.3783(3) 0.1054(2) 0.3102(3)
O12 O 0.6217(3) 0.1054(2) 0.1898(3)
C22_3 C 0.3149(5) 0.0984(3) 0.2403(4)
C23_3 C 0.1931(5) 0.1042(3) 0.2311(4)
C24_3 C 0.1235(5) 0.1042(3) 0.1513(4)
H17_3 H 0.1536 0.1027 0.1050
C25_3 C 0.0122(5) 0.1062(4) 0.1414(4)
C26_3 C 0.1499(5) 0.1061(3) 0.2986(4)
H19_3 H 0.1967 0.1069 0.3514
O24_3 O 0.4386(4) 0.1630(2) 0.0677(4)
C40_3 C 0.391(3) 0.2924(12) 0.191(2)
H26_3 H 0.3945 0.2630 0.2342
H27_3 H 0.4496 0.3218 0.2072
H28_3 H 0.3212 0.3132 0.1797
C41_3 C 0.4021(15) 0.2853(8) 0.0301(12)
H30_3 H 0.3301 0.3017 0.0062
H31_3 H 0.4561 0.3174 0.0357
C42_3 C 0.4262(13) 0.1993(5) 0.1208(12)
H32_3 H 0.4330 0.1834 0.1737
N2_3 N 0.4038(13) 0.2595(5) 0.1120(11)
H29_3 H 0.4189 0.2537 0.9947
O14 O 0.6315(4) 0.9758(2) 0.1351(3)
O25 O 0.5000 0.9932(3) 0.2500
O1_3 O 0.6541(3) 0.0872(2) 0.3240(3)
C1_3 C 0.6851(5) 0.0984(3) 0.2597(4)
C2_3 C 0.8069(5) 0.1042(3) 0.2689(4)
C3_3 C 0.8765(5) 0.1042(3) 0.3487(4)
H1_3 H 0.8464 0.1027 0.3950
C4_3 C 0.9878(5) 0.1062(4) 0.3586(4)
C5_3 C 0.8501(5) 0.1061(3) 0.2014(4)
H3_3 H 0.8033 0.1069 0.1486
O7_3 O 0.5614(4) 0.1630(2) 0.4323(4)
C19_3 C 0.609(3) 0.2924(12) 0.309(2)
H10_3 H 0.6055 0.2630 0.2658
H11_3 H 0.5504 0.3218 0.2928
H12_3 H 0.6788 0.3132 0.3203
C20_3 C 0.5979(15) 0.2853(8) 0.4699(12)
H13_3 H 0.5811 0.2537 0.5053
H14_3 H 0.6699 0.3017 0.4938
H15_3 H 0.5439 0.3174 0.4643
C21_3 C 0.5738(13) 0.1993(5) 0.3792(12)
H16_3 H 0.5670 0.1834 0.3263
N1_3 N 0.5962(13) 0.2595(5) 0.3880(11)
H18_3 H 0.9664 0.1072 0.0883
C27_3 C 0.9659(5) 0.1069(3) 0.2105(4)
O3_3 O 0.3685(4) 0.9758(2) 0.3649(3)
C7_3 C 0.2987(5) 0.9571(3) 0.4026(4)
C8_3 C 0.1810(5) 0.9528(3) 0.3550(4)
C9_3 C 0.0974(6) 0.9514(3) 0.3999(5)
H4_3 H 0.1168 0.9511 0.4576
C11_3 C 0.1527(5) 0.9522(3) 0.2714(4)
H6_3 H 0.2078 0.9532 0.2422
C31_3 C 0.0103(6) 0.9504(3) 0.1406(4)
H21_3 H 0.0645 0.9500 0.1105
C33_3 C 0.0413(5) 0.9501(3) 0.2274(4)
C10_3 C 0.9897(6) 0.9504(3) 0.3594(4)
H5_3 H 0.9355 0.9500 0.3895
C12_3 C 0.9587(5) 0.9501(3) 0.2726(4)
C28_3 C 0.7013(5) 0.9571(3) 0.0974(4)
C29_3 C 0.8190(5) 0.9528(3) 0.1450(4)
C30_3 C 0.9026(6) 0.9514(3) 0.1001(5)
H20_3 H 0.8832 0.9511 0.0424
C32_3 C 0.8473(5) 0.9522(3) 0.2286(4)
H22_3 H 0.7922 0.9532 0.2578
O12_2 O 0.1217(3) 0.6054(2) 0.1898(3)
O14_2 O 0.1315(4) 0.4758(2) 0.1351(3)
O25_2 O -0.0000 0.4932(3) 0.2500
O1_4 O 0.1541(3) 0.5872(2) 0.3240(3)
C1_4 C 0.1851(5) 0.5984(3) 0.2597(4)
C2_4 C 0.3069(5) 0.6042(3) 0.2689(4)
C3_4 C 0.3765(5) 0.6042(3) 0.3487(4)
H1_4 H 0.3464 0.6027 0.3950
C4_4 C 0.4878(5) 0.6062(4) 0.3586(4)
H2_4 H 0.5336 0.6072 0.4117
C5_4 C 0.3501(5) 0.6061(3) 0.2014(4)
H3_4 H 0.3033 0.6069 0.1486
C6_4 C 0.5341(5) 0.6069(3) 0.2895(4)
O7_4 O 0.0614(4) 0.6630(2) 0.4323(4)
C19_4 C 0.109(3) 0.7924(12) 0.309(2)
H10_4 H 0.1055 0.7630 0.2658
H11_4 H 0.0504 0.8218 0.2928
H12_4 H 0.1788 0.8132 0.3203
C20_4 C 0.0979(15) 0.7853(8) 0.4699(12)
H13_4 H 0.0811 0.7537 0.5053
H14_4 H 0.1699 0.8017 0.4938
H15_4 H 0.0439 0.8174 0.4643
C21_4 C 0.0738(13) 0.6993(5) 0.3792(12)
H16_4 H 0.0670 0.6834 0.3263
N1_4 N 0.0962(13) 0.7595(5) 0.3880(11)
O9_4 O 0.8459(3) 0.5872(2) 0.1760(3)
O10_2 O 0.8783(3) 0.6054(2) 0.3102(3)
C22_4 C 0.8149(5) 0.5984(3) 0.2403(4)
C23_4 C 0.6931(5) 0.6042(3) 0.2311(4)
C24_4 C 0.6235(5) 0.6042(3) 0.1513(4)
H17_4 H 0.6536 0.6027 0.1050
C25_4 C 0.5122(5) 0.6062(4) 0.1414(4)
H18_4 H 0.4664 0.6072 0.0883
C26_4 C 0.6499(5) 0.6061(3) 0.2986(4)
H19_4 H 0.6967 0.6069 0.3514
C27_4 C 0.4659(5) 0.6069(3) 0.2105(4)
O24_4 O 0.9386(4) 0.6630(2) 0.0677(4)
C40_4 C 0.891(3) 0.7924(12) 0.191(2)
H26_4 H 0.8945 0.7630 0.2342
H27_4 H 0.9496 0.8218 0.2072
H28_4 H 0.8212 0.8132 0.1797
C41_4 C 0.9021(15) 0.7853(8) 0.0301(12)
H30_4 H 0.8301 0.8017 0.0062
H31_4 H 0.9561 0.8174 0.0357
C42_4 C 0.9262(13) 0.6993(5) 0.1208(12)
H32_4 H 0.9330 0.6834 0.1737
N2_4 N 0.9038(13) 0.7595(5) 0.1120(11)
O25_3 O 1.0000 0.4932(3) 0.2500
H29_4 H 0.9189 0.7537 0.9947
O3_4 O 0.8685(4) 0.4758(2) 0.3649(3)
C7_4 C 0.7987(5) 0.4571(3) 0.4026(4)
C8_4 C 0.6810(5) 0.4528(3) 0.3550(4)
C9_4 C 0.5974(6) 0.4514(3) 0.3999(5)
H4_4 H 0.6168 0.4511 0.4576
C10_4 C 0.4897(6) 0.4504(3) 0.3594(4)
H5_4 H 0.4355 0.4500 0.3895
C11_4 C 0.6527(5) 0.4522(3) 0.2714(4)
H6_4 H 0.7078 0.4532 0.2422
C12_4 C 0.4587(5) 0.4501(3) 0.2726(4)
C28_4 C 0.2013(5) 0.4571(3) 0.0974(4)
C29_4 C 0.3190(5) 0.4528(3) 0.1450(4)
C30_4 C 0.4026(6) 0.4514(3) 0.1001(5)
H20_4 H 0.3832 0.4511 0.0424
C31_4 C 0.5103(6) 0.4504(3) 0.1406(4)
H21_4 H 0.5645 0.4500 0.1105
C32_4 C 0.3473(5) 0.4522(3) 0.2286(4)
H22_4 H 0.2922 0.4532 0.2578
C33_4 C 0.5413(5) 0.4501(3) 0.2274(4)
loop_
_geom_bond_atom_site_label_1
_geom_bond_atom_site_label_2
_geom_bond_site_symmetry_1
_geom_bond_site_symmetry_2
H5 C10 1_555 1_555
C12 C10 1_555 1_555
O13 C28 1_555 1_555
O15 C28 1_555 1_555
C28 C29 1_555 1_555
C29 C30 1_555 1_555
C30 H20 1_555 1_555
C32 C12 1_555 1_555
H22 C32 1_555 1_555
C29 C32 1_555 1_555
O4 C7 1_555 1_555
C7 O3 1_555 1_555
C8 C7 1_555 1_555
C9 C8 1_555 1_555
H4 C9 1_555 1_555
C11 C8 1_555 1_555
H6 C11 1_555 1_555
C13 O5 1_555 1_555
C14 C13 1_555 1_555
C15 C14 1_555 1_555
H7 C15 1_555 1_555
C16 C15 1_555 1_555
C17 C14 1_555 1_555
H8 C17 1_555 1_555
C18 C16 1_555 1_555
H9 C18 1_555 1_555
La4 O4 1_555 1_555
La8 O18 1_555 1_555
H21 C31 1_555 1_555
C33 C11 1_555 1_555
O18 C34 1_555 1_555
O20 La8 1_555 1_555
C34 O20 1_555 1_555
C35 C34 1_555 1_555
C36 C35 1_555 1_555
H23 C36 1_555 1_555
C37 C16 1_555 1_555
C38 C18 1_555 1_555
H24 C38 1_555 1_555
C39 C17 1_555 1_555
H25 C39 1_555 1_555
O6 C13 1_555 1_555
O6 La4 1_555 1_555
C31 C33 1_555 1_555
C35 C38 1_555 1_555
C36 C37 1_555 1_555
C37 C39 1_555 1_555
La1 O1 1_555 1_555
O1 C1 1_555 1_555
O2 C1 1_555 1_555
C1 C2 1_555 1_555
C2 C3 1_555 1_555
C3 H1 1_555 1_555
C4 C3 1_555 1_555
C5 C2 1_555 1_555
H3 C5 1_555 1_555
O7 La1 1_555 1_555
C19 H10 1_555 1_555
H11 C19 1_555 1_555
H12 C19 1_555 1_555
C20 H13 1_555 1_555
H14 C20 1_555 1_555
H15 C20 1_555 1_555
C21 O7 1_555 1_555
H16 C21 1_555 1_555
N1 C19 1_555 1_555
La6 O2 1_555 1_555
O11 La1 1_555 1_555
C27 C5 1_555 1_555
O16 La1 1_555 1_555
O21 La1 1_555 1_555
C20 N1 1_555 1_555
C21 N1 1_555 1_555
La6 O9 1_555 1_555
O9 C22 1_555 1_555
O11 C22 1_555 1_555
C22 C23 1_555 1_555
C23 C24 1_555 1_555
C24 H17 1_555 1_555
C25 C24 1_555 1_555
C26 C6 1_555 1_555
H19 C26 1_555 1_555
O24 La6 1_555 1_555
C40 H26 1_555 1_555
H27 C40 1_555 1_555
H28 C40 1_555 1_555
H30 C41 1_555 1_555
H31 C41 1_555 1_555
C42 O24 1_555 1_555
H32 C42 1_555 1_555
N2 C40 1_555 1_555
C23 C26 1_555 1_555
C41 N2 1_555 1_555
C42 N2 1_555 1_555
O4_2 C7_2 1_555 1_555
C7_2 O3_2 1_555 1_555
C8_2 C7_2 1_555 1_555
C9_2 C8_2 1_555 1_555
H4_2 C9_2 1_555 1_555
C10_2 C9_2 1_555 1_555
H5_2 C10_2 1_555 1_555
C11_2 C8_2 1_555 1_555
H6_2 C11_2 1_555 1_555
C12_2 C10_2 1_555 1_555
La8 O4_2 1_555 1_555
O13_2 C28_2 1_555 1_555
O15_2 C28_2 1_555 1_555
C28_2 C29_2 1_555 1_555
C29_2 C30_2 1_555 1_555
C30_2 H20_2 1_555 1_555
C31_2 C30_2 1_555 1_555
H21_2 C31_2 1_555 1_555
C32_2 C12_2 1_555 1_555
H22_2 C32_2 1_555 1_555
C33_2 C11_2 1_555 1_555
C12_2 C33_2 1_555 1_555
O8_2 La6_2 1_555 1_555
C29_2 C32_2 1_555 1_555
C31_2 C33_2 1_555 1_555
La9 O1_2 1_555 1_555
O1_2 C1_2 1_555 1_555
O2_2 C1_2 1_555 1_555
C1_2 C2_2 1_555 1_555
C2_2 C3_2 1_555 1_555
C3_2 H1_2 1_555 1_555
C4_2 C3_2 1_555 1_555
H2_2 C4_2 1_555 1_555
C5_2 C2_2 1_555 1_555
H3_2 C5_2 1_555 1_555
C6_2 C4_2 1_555 1_555
O5_2 La9 1_555 1_555
O6_2 La9 1_555 1_555
C13_2 O5_2 1_555 1_555
C14_2 C13_2 1_555 1_555
C15_2 C14_2 1_555 1_555
H7_2 C15_2 1_555 1_555
C16_2 C15_2 1_555 1_555
C17_2 C14_2 1_555 1_555
H8_2 C17_2 1_555 1_555
C18_2 C16_2 1_555 1_555
H9_2 C18_2 1_555 1_555
O7_2 La9 1_555 1_555
C19_2 H10_2 1_555 1_555
H11_2 C19_2 1_555 1_555
H12_2 C19_2 1_555 1_555
C20_2 H13_2 1_555 1_555
H14_2 C20_2 1_555 1_555
H15_2 C20_2 1_555 1_555
C21_2 O7_2 1_555 1_555
H16_2 C21_2 1_555 1_555
N1_2 C19_2 1_555 1_555
O8_3 La9 1_555 1_555
La6_2 O9_2 1_555 1_555
O9_2 C22_2 1_555 1_555
O11_2 C22_2 1_555 1_555
C22_2 C23_2 1_555 1_555
C23_2 C24_2 1_555 1_555
C24_2 H17_2 1_555 1_555
C25_2 C24_2 1_555 1_555
H18_2 C25_2 1_555 1_555
C26_2 C6_2 1_555 1_555
H19_2 C26_2 1_555 1_555
C27_2 C5_2 1_555 1_555
O16_2 La9 1_555 1_555
O18_2 C34_2 1_555 1_555
O19_2 La6_2 1_555 1_555
O23_2 La6_2 1_555 1_555
C34_2 O21 1_555 1_555
C35_2 C34_2 1_555 1_555
C36_2 C35_2 1_555 1_555
H23_2 C36_2 1_555 1_555
C37_2 C16_2 1_555 1_555
C38_2 C18_2 1_555 1_555
H24_2 C38_2 1_555 1_555
C39_2 C17_2 1_555 1_555
H25_2 C39_2 1_555 1_555
O24_2 La6_2 1_555 1_555
C40_2 H26_2 1_555 1_555
H27_2 C40_2 1_555 1_555
H28_2 C40_2 1_555 1_555
H30_2 C41_2 1_555 1_555
H31_2 C41_2 1_555 1_555
C42_2 O24_2 1_555 1_555
H32_2 C42_2 1_555 1_555
N2_2 C40_2 1_555 1_555
C6_2 C27_2 1_555 1_555
O6_2 C13_2 1_555 1_555
C20_2 N1_2 1_555 1_555
C21_2 N1_2 1_555 1_555
C23_2 C26_2 1_555 1_555
C25_2 C27_2 1_555 1_555
C35_2 C38_2 1_555 1_555
C36_2 C37_2 1_555 1_555
C37_2 C39_2 1_555 1_555
C41_2 N2_2 1_555 1_555
C42_2 N2_2 1_555 1_555
H7_3 C15_3 1_555 1_555
C16_3 C15_3 1_555 1_555
C18_3 C16_3 1_555 1_555
H9_3 C18_3 1_555 1_555
La7_2 O18_3 1_555 1_555
O18_3 C34_3 1_555 1_555
O22_2 La7_2 1_555 1_555
C34_3 O22_2 1_555 1_555
C35_3 C34_3 1_555 1_555
C38_3 C18_3 1_555 1_555
H24_3 C38_3 1_555 1_555
C35_3 C38_3 1_555 1_555
C13_3 O19 1_555 1_555
C14_3 C13_3 1_555 1_555
C17_3 C14_3 1_555 1_555
H8_3 C17_3 1_555 1_555
H23_3 C36_3 1_555 1_555
C39_3 C17_3 1_555 1_555
H25_3 C39_3 1_555 1_555
O23 C13_3 1_555 1_555
C36_3 C37_3 1_555 1_555
C37_3 C39_3 1_555 1_555
H7_4 C15_4 1_555 1_555
C16_4 C15_4 1_555 1_555
C18_4 C16_4 1_555 1_555
H9_4 C18_4 1_555 1_555
O18_4 C34_4 1_555 1_555
C34_4 O22 1_555 1_555
C35_4 C34_4 1_555 1_555
C38_4 C18_4 1_555 1_555
H24_4 C38_4 1_555 1_555
C35_4 C38_4 1_555 1_555
C13_4 O19_2 1_555 1_555
C14_4 C13_4 1_555 1_555
C17_4 C14_4 1_555 1_555
H8_4 C17_4 1_555 1_555
H23_4 C36_4 1_555 1_555
C39_4 C17_4 1_555 1_555
H25_4 C39_4 1_555 1_555
O23_2 C13_4 1_555 1_555
C36_4 C37_4 1_555 1_555
C37_4 C39_4 1_555 1_555
La7 O9_3 1_555 1_555
La4 O10 1_555 1_555
O9_3 C22_3 1_555 1_555
O10 C22_3 1_555 1_555
O12 La7 1_555 1_555
C22_3 C23_3 1_555 1_555
C23_3 C24_3 1_555 1_555
C24_3 H17_3 1_555 1_555
C25_3 C24_3 1_555 1_555
C26_3 C6_3 1_555 1_555
H19_3 C26_3 1_555 1_555
O24_3 La7 1_555 1_555
C40_3 H26_3 1_555 1_555
H27_3 C40_3 1_555 1_555
H28_3 C40_3 1_555 1_555
H30_3 C41_3 1_555 1_555
H31_3 C41_3 1_555 1_555
C42_3 O24_3 1_555 1_555
H32_3 C42_3 1_555 1_555
N2_3 C40_3 1_555 1_555
C23_3 C26_3 1_555 1_555
C41_3 N2_3 1_555 1_555
C42_3 N2_3 1_555 1_555
La4 O1_3 1_555 1_555
O1_3 C1_3 1_555 1_555
O12 C1_3 1_555 1_555
C1_3 C2_3 1_555 1_555
C2_3 C3_3 1_555 1_555
C3_3 H1_3 1_555 1_555
C4_3 C3_3 1_555 1_555
C5_3 C2_3 1_555 1_555
H3_3 C5_3 1_555 1_555
O7_3 La4 1_555 1_555
C19_3 H10_3 1_555 1_555
H11_3 C19_3 1_555 1_555
H12_3 C19_3 1_555 1_555
C20_3 H13_3 1_555 1_555
H14_3 C20_3 1_555 1_555
H15_3 C20_3 1_555 1_555
C21_3 O7_3 1_555 1_555
H16_3 C21_3 1_555 1_555
N1_3 C19_3 1_555 1_555
C27_3 C5_3 1_555 1_555
C20_3 N1_3 1_555 1_555
C21_3 N1_3 1_555 1_555
O16 C7_3 1_555 1_555
C7_3 O3_3 1_555 1_555
C8_3 C7_3 1_555 1_555
C9_3 C8_3 1_555 1_555
H4_3 C9_3 1_555 1_555
C11_3 C8_3 1_555 1_555
H6_3 C11_3 1_555 1_555
H21_3 C31_3 1_555 1_555
C33_3 C11_3 1_555 1_555
C31_3 C33_3 1_555 1_555
H5_3 C10_3 1_555 1_555
C12_3 C10_3 1_555 1_555
O14 C28_3 1_555 1_555
O17 C28_3 1_555 1_555
C28_3 C29_3 1_555 1_555
C29_3 C30_3 1_555 1_555
C30_3 H20_3 1_555 1_555
C32_3 C12_3 1_555 1_555
H22_3 C32_3 1_555 1_555
C29_3 C32_3 1_555 1_555
La8 O25_2 1_555 1_555
La8 O1_4 1_555 1_555
O1_4 C1_4 1_555 1_555
O12_2 C1_4 1_555 1_555
C1_4 C2_4 1_555 1_555
C2_4 C3_4 1_555 1_555
C3_4 H1_4 1_555 1_555
C4_4 C3_4 1_555 1_555
H2_4 C4_4 1_555 1_555
C5_4 C2_4 1_555 1_555
H3_4 C5_4 1_555 1_555
C6_4 C4_4 1_555 1_555
O7_4 La8 1_555 1_555
C19_4 H10_4 1_555 1_555
H11_4 C19_4 1_555 1_555
H12_4 C19_4 1_555 1_555
C20_4 H13_4 1_555 1_555
H14_4 C20_4 1_555 1_555
H15_4 C20_4 1_555 1_555
C21_4 O7_4 1_555 1_555
H16_4 C21_4 1_555 1_555
N1_4 C19_4 1_555 1_555
La7_2 O9_4 1_555 1_555
O9_4 C22_4 1_555 1_555
O10_2 C22_4 1_555 1_555
C22_4 C23_4 1_555 1_555
C23_4 C24_4 1_555 1_555
C24_4 H17_4 1_555 1_555
C25_4 C24_4 1_555 1_555
H18_4 C25_4 1_555 1_555
C26_4 C6_4 1_555 1_555
H19_4 C26_4 1_555 1_555
C27_4 C5_4 1_555 1_555
O24_4 La7_2 1_555 1_555
C40_4 H26_4 1_555 1_555
H27_4 C40_4 1_555 1_555
H28_4 C40_4 1_555 1_555
H30_4 C41_4 1_555 1_555
H31_4 C41_4 1_555 1_555
C42_4 O24_4 1_555 1_555
H32_4 C42_4 1_555 1_555
N2_4 C40_4 1_555 1_555
O25_3 La7_2 1_555 1_555
C6_4 C27_4 1_555 1_555
C20_4 N1_4 1_555 1_555
C21_4 N1_4 1_555 1_555
C23_4 C26_4 1_555 1_555
C25_4 C27_4 1_555 1_555
C41_4 N2_4 1_555 1_555
C42_4 N2_4 1_555 1_555
O16_2 C7_4 1_555 1_555
C7_4 O3_4 1_555 1_555
C8_4 C7_4 1_555 1_555
C9_4 C8_4 1_555 1_555
H4_4 C9_4 1_555 1_555
C10_4 C9_4 1_555 1_555
H5_4 C10_4 1_555 1_555
C11_4 C8_4 1_555 1_555
H6_4 C11_4 1_555 1_555
C12_4 C10_4 1_555 1_555
O14_2 C28_4 1_555 1_555
O17_2 C28_4 1_555 1_555
C28_4 C29_4 1_555 1_555
C29_4 C30_4 1_555 1_555
C30_4 H20_4 1_555 1_555
C31_4 C30_4 1_555 1_555
H21_4 C31_4 1_555 1_555
C32_4 C12_4 1_555 1_555
H22_4 C32_4 1_555 1_555
C33_4 C11_4 1_555 1_555
C12_4 C33_4 1_555 1_555
C29_4 C32_4 1_555 1_555
C31_4 C33_4 1_555 1_555

#END
