
###############################################################################
#
# This file contains modified crystal structure data generated from the
# MOF subset of the Cambridge Structural Database (CSD) v543 
# hosted by the Cambridge Crystallographic Data Centre (CCDC).
#
# This work is licensed under the Creative Commons
# Attribution-NonCommercial-ShareAlike 4.0 International License.
# To view a copy of this license, visit
# http://creativecommons.org/licenses/by-nc-sa/4.0/
# or send a letter to
# Creative Commons, PO Box 1866, Mountain View, CA 94042, USA.
#
# CIF created using the CSD Python API on 29 September 2022
# The structure has been converted into the P1 space group
# The structure has a 3D framework
# The original CSD entry LETBIY is in the monoclinic crystal system
# The framework has been calculated to contain at least 10.0% void space
# The void calculation uses a probe of radius 1.32A, grid spacing 0.4
#
###############################################################################

data_LETBIY
_chemical_formula_moiety         '(C232 H120 Eu8 N32 O44)n'
_symmetry_cell_setting           triclinic
_symmetry_space_group_name_H-M   'P 1'
_symmetry_Int_Tables_number      1
_space_group_name_Hall           'P 1'
loop_
_symmetry_equiv_pos_site_id
_symmetry_equiv_pos_as_xyz
1 x,y,z
_cell_length_a                   24.2376(15)
_cell_length_b                   11.2547(7)
_cell_length_c                   20.0571(12)
_cell_angle_alpha                90
_cell_angle_beta                 95.3860(10)
_cell_angle_gamma                90
_cell_volume                     5447.16
loop_
_atom_site_label
_atom_site_type_symbol
_atom_site_fract_x
_atom_site_fract_y
_atom_site_fract_z
O1 O 0.03114(15) 0.8841(4) 0.39673(19)
Eu9 Eu 0.076262(10) 0.83076(2) 0.292653(12)
C2 C 0.6921(2) 0.0011(6) 0.7479(3)
H2 H 0.6918 0.0795 0.7625
H3 H 0.7545 0.0183 0.6884
C25 C 0.5000 0.0462(7) 0.7500
C26 C 0.5333(3) 0.1083(5) 0.7982(3)
H13 H 0.5554 0.0673 0.8309
C27 C 0.5335(3) 0.2317(5) 0.7977(3)
H14 H 0.5563 0.2733 0.8295
C28 C 0.5000 0.2924(6) 0.7500
C30 C 0.5000 0.4256(6) 0.7500
O6 O 0.54264(15) 0.4760(3) 0.7762(2)
C35 C 0.4667(3) 0.1083(5) 0.7018(3)
H18 H 0.4446 0.0673 0.6691
C36 C 0.4665(3) 0.2317(5) 0.7023(3)
H19 H 0.4437 0.2733 0.6705
O10 O 0.45736(15) 0.4760(3) 0.7238(2)
C38 C 0.3079(2) 0.0011(6) 0.7521(3)
H21 H 0.3082 0.0795 0.7375
H22 H 0.2455 0.0183 0.8116
Eu3 Eu 0.576262(10) 0.66924(2) 0.792653(12)
Eu4 Eu 0.423738(10) 0.66924(2) 0.707347(12)
C31 C 0.7449(3) 0.8441(6) 0.0432(3)
H16 H 0.7413 0.9073 0.0723
C32 C 0.7939(2) 0.7794(5) 0.0469(3)
C33 C 0.7989(3) 0.6848(6) 0.0037(3)
H17 H 0.8315 0.6407 0.0061
C34 C 0.8405(2) 0.8057(5) 0.0991(3)
O7 O 0.87721(16) 0.7291(4) 0.11094(19)
O8 O 0.84157(15) 0.9032(3) 0.13167(19)
C52 C 0.0665(2) 0.9075(6) 0.0258(3)
H27 H 0.0450 0.9761 0.0222
C53 C 0.0586(2) 0.8256(5) 0.0756(3)
C54 C 0.0890(2) 0.7216(6) 0.0789(3)
H28 H 0.0834 0.6655 0.1117
C55 C 0.1278(3) 0.7002(6) 0.0337(3)
H29 H 0.1478 0.6295 0.0358
C56 C 0.0157(2) 0.8462(5) 0.1235(3)
O12 O 0.02792(15) 0.8212(3) 0.18489(17)
Eu7 Eu 0.923738(10) 0.83076(2) 0.207347(12)
C1 C 0.6556(2) 0.9197(5) 0.7704(3)
H1 H 0.6316 0.9454 0.8010
C3 C 0.7290(2) 0.9653(5) 0.7036(3)
C4 C 0.7270(2) 0.8471(5) 0.6821(3)
C5 C 0.6874(2) 0.7693(5) 0.7068(3)
C6 C 0.6828(2) 0.6462(5) 0.6845(3)
C7 C 0.7162(2) 0.6027(5) 0.6353(3)
C8 C 0.7097(3) 0.4842(6) 0.6152(3)
H4 H 0.7304 0.4531 0.5826
C9 C 0.6723(3) 0.4147(6) 0.6441(3)
H5 H 0.6677 0.3354 0.6319
C10 C 0.6411(2) 0.4642(5) 0.6923(3)
H6 H 0.6159 0.4155 0.7115
C11 C 0.7558(2) 0.6835(5) 0.6109(3)
C12 C 0.7608(2) 0.7973(5) 0.6345(3)
C13 C 0.8200(2) 0.7636(6) 0.5602(3)
C14 C 0.8632(2) 0.7851(6) 0.5149(3)
C15 C 0.8943(3) 0.8886(6) 0.5185(3)
H7 H 0.8887 0.9453 0.5509
C16 C 0.9335(2) 0.9075(6) 0.4742(3)
H8 H 0.9550 0.9761 0.4778
C17 C 0.9414(2) 0.8256(5) 0.4244(3)
C18 C 0.9110(2) 0.7216(6) 0.4211(3)
H9 H 0.9166 0.6655 0.3883
C19 C 0.8722(3) 0.7002(6) 0.4663(3)
H10 H 0.8522 0.6295 0.4642
C20 C 0.9843(2) 0.8462(5) 0.3765(3)
C21 C 0.7551(3) 0.6559(6) 0.9568(3)
H11 H 0.7587 0.5927 0.9277
C22 C 0.7061(2) 0.7206(5) 0.9531(3)
C23 C 0.7011(3) 0.8152(6) 0.9963(3)
H12 H 0.6685 0.8593 0.9939
C24 C 0.6595(2) 0.6943(5) 0.9009(3)
C29 C 0.5000 0.9126(7) 0.7500
N1 N 0.65255(19) 0.8061(4) 0.7511(2)
N2 N 0.64503(18) 0.5752(4) 0.7121(2)
N3 N 0.80258(19) 0.8478(4) 0.6018(2)
H15 H 0.8152 0.9190 0.6069
N4 N 0.7927(2) 0.6616(5) 0.5640(2)
O2 O 0.97208(15) 0.8212(3) 0.31511(17)
O3 O 0.62279(16) 0.7709(4) 0.88906(19)
O4 O 0.65843(15) 0.5968(3) 0.86833(19)
O5 O 0.53937(16) 0.8625(3) 0.7840(2)
O9 O 0.46063(16) 0.8625(3) 0.7160(2)
C37 C 0.3444(2) 0.9197(5) 0.7296(3)
H20 H 0.3684 0.9454 0.6990
C39 C 0.2710(2) 0.9653(5) 0.7964(3)
C40 C 0.2730(2) 0.8471(5) 0.8179(3)
C41 C 0.3126(2) 0.7693(5) 0.7932(3)
C42 C 0.3172(2) 0.6462(5) 0.8155(3)
C43 C 0.2838(2) 0.6027(5) 0.8647(3)
C44 C 0.2903(3) 0.4842(6) 0.8848(3)
H23 H 0.2696 0.4531 0.9174
C45 C 0.3277(3) 0.4147(6) 0.8559(3)
H24 H 0.3323 0.3354 0.8681
C46 C 0.3589(2) 0.4642(5) 0.8077(3)
H25 H 0.3841 0.4155 0.7885
C47 C 0.2442(2) 0.6835(5) 0.8891(3)
C48 C 0.2392(2) 0.7973(5) 0.8655(3)
C49 C 0.1800(2) 0.7636(6) 0.9398(3)
C50 C 0.1368(2) 0.7851(6) 0.9851(3)
C51 C 0.1057(3) 0.8886(6) 0.9815(3)
H26 H 0.1113 0.9453 0.9491
N5 N 0.34745(19) 0.8061(4) 0.7489(2)
N6 N 0.35497(18) 0.5752(4) 0.7879(2)
N7 N 0.19742(19) 0.8478(4) 0.8982(2)
H30 H 0.1848 0.9190 0.8931
N8 N 0.2073(2) 0.6616(5) 0.9360(2)
O13 O 0.46886(15) 0.6159(4) 0.60327(19)
O14 O 0.53114(15) 0.6159(4) 0.89673(19)
O15 O 0.52792(15) 0.6788(3) 0.68489(17)
O16 O 0.47208(15) 0.6788(3) 0.81511(17)
O17 O 0.37721(16) 0.7709(4) 0.61094(19)
O18 O 0.34157(15) 0.5968(3) 0.63167(19)
O11 O 0.96886(15) 0.8841(4) 0.10327(19)
C21_2 C 0.2449(3) 0.6559(6) 0.5432(3)
H11_2 H 0.2413 0.5927 0.5723
C22_2 C 0.2939(2) 0.7206(5) 0.5469(3)
C23_2 C 0.2989(3) 0.8152(6) 0.5037(3)
H12_2 H 0.3315 0.8593 0.5061
C24_2 C 0.3405(2) 0.6943(5) 0.5991(3)
C31_2 C 0.2551(3) 0.8441(6) 0.4568(3)
H16_2 H 0.2587 0.9073 0.4277
C32_2 C 0.2061(2) 0.7794(5) 0.4531(3)
C33_2 C 0.2011(3) 0.6848(6) 0.4963(3)
H17_2 H 0.1685 0.6407 0.4939
C34_2 C 0.1595(2) 0.8057(5) 0.4009(3)
O7_2 O 0.12279(16) 0.7291(4) 0.38906(19)
O8_2 O 0.15843(15) 0.9032(3) 0.36833(19)
C44_2 C 0.2097(3) 0.0158(6) 0.1152(3)
H23_2 H 0.2304 0.0469 0.0826
C45_2 C 0.1723(3) 0.0853(6) 0.1441(3)
H24_2 H 0.1677 0.1646 0.1319
C46_2 C 0.1411(2) 0.0358(5) 0.1923(3)
H25_2 H 0.1159 0.0845 0.2115
O20 O 0.04264(15) 0.0240(3) 0.2762(2)
C25_2 C 0.0000 0.4538(7) 0.2500
C28_2 C -0.0000 0.2076(6) 0.2500
C29_2 C 0.0000 0.5874(7) 0.2500
C30_2 C -0.0000 0.0744(6) 0.2500
C35_2 C 0.0333(3) 0.3917(5) 0.2982(3)
H18_2 H 0.0554 0.4327 0.3309
C36_2 C 0.0335(3) 0.2683(5) 0.2977(3)
H19_2 H 0.0563 0.2267 0.3295
O9_2 O 0.03937(16) 0.6375(3) 0.2840(2)
C37_2 C 0.1556(2) 0.5803(5) 0.2704(3)
H20_2 H 0.1316 0.5546 0.3010
C38_2 C 0.1921(2) 0.4989(6) 0.2479(3)
H21_2 H 0.1918 0.4205 0.2625
C39_2 C 0.2290(2) 0.5347(5) 0.2036(3)
H22_2 H 0.2545 0.4817 0.1884
C40_2 C 0.2270(2) 0.6529(5) 0.1821(3)
C41_2 C 0.1874(2) 0.7307(5) 0.2068(3)
C42_2 C 0.1828(2) 0.8538(5) 0.1845(3)
C43_2 C 0.2162(2) 0.8973(5) 0.1353(3)
C47_2 C 0.2558(2) 0.8165(5) 0.1109(3)
C48_2 C 0.2608(2) 0.7027(5) 0.1345(3)
C49_2 C 0.3200(2) 0.7364(6) 0.0602(3)
C50_2 C 0.3632(2) 0.7149(6) 0.0149(3)
C51_2 C 0.3943(3) 0.6114(6) 0.0185(3)
H26_2 H 0.3887 0.5547 0.0509
N5_2 N 0.15255(19) 0.6939(4) 0.2511(2)
N6_2 N 0.14503(18) 0.9248(4) 0.2121(2)
N7_2 N 0.30258(19) 0.6522(4) 0.1018(2)
H30_2 H 0.3152 0.5810 0.1069
N8_2 N 0.2927(2) 0.8384(5) 0.0640(2)
C52_2 C 0.4335(2) 0.5925(6) 0.9742(3)
H27_2 H 0.4550 0.5239 0.9778
C53_2 C 0.4414(2) 0.6744(5) 0.9244(3)
C54_2 C 0.4110(2) 0.7784(6) 0.9211(3)
H28_2 H 0.4166 0.8345 0.8883
C55_2 C 0.3722(3) 0.7998(6) 0.9663(3)
H29_2 H 0.3522 0.8705 0.9642
C56_2 C 0.4843(2) 0.6538(5) 0.8765(3)
C8_2 C 0.7903(3) 0.0158(6) 0.3848(3)
H4_2 H 0.7696 0.0469 0.4174
C9_2 C 0.8277(3) 0.0853(6) 0.3559(3)
H5_2 H 0.8323 0.1646 0.3681
C10_2 C 0.8589(2) 0.0358(5) 0.3077(3)
H6_2 H 0.8841 0.0845 0.2885
O19 O 0.95736(15) 0.0240(3) 0.2238(2)
C1_2 C 0.8444(2) 0.5803(5) 0.2296(3)
H1_2 H 0.8684 0.5546 0.1990
C2_2 C 0.8079(2) 0.4989(6) 0.2521(3)
H2_2 H 0.8082 0.4205 0.2375
C3_2 C 0.7710(2) 0.5347(5) 0.2964(3)
H3_2 H 0.7455 0.4817 0.3116
C4_2 C 0.7730(2) 0.6529(5) 0.3179(3)
C5_2 C 0.8126(2) 0.7307(5) 0.2932(3)
C6_2 C 0.8172(2) 0.8538(5) 0.3155(3)
C7_2 C 0.7838(2) 0.8973(5) 0.3647(3)
C11_2 C 0.7442(2) 0.8165(5) 0.3891(3)
C12_2 C 0.7392(2) 0.7027(5) 0.3655(3)
C13_2 C 0.6800(2) 0.7364(6) 0.4398(3)
C14_2 C 0.6368(2) 0.7149(6) 0.4851(3)
C15_2 C 0.6057(3) 0.6114(6) 0.4815(3)
H7_2 H 0.6113 0.5547 0.4491
C16_2 C 0.5665(2) 0.5925(6) 0.5258(3)
H8_2 H 0.5450 0.5239 0.5222
C17_2 C 0.5586(2) 0.6744(5) 0.5756(3)
C18_2 C 0.5890(2) 0.7784(6) 0.5789(3)
H9_2 H 0.5834 0.8345 0.6117
C19_2 C 0.6278(3) 0.7998(6) 0.5337(3)
H10_2 H 0.6478 0.8705 0.5358
C20_2 C 0.5157(2) 0.6538(5) 0.6235(3)
C25_3 C 1.0000 0.4538(7) 0.2500
C26_2 C 0.9667(3) 0.3917(5) 0.2018(3)
H13_2 H 0.9446 0.4327 0.1691
C27_2 C 0.9665(3) 0.2683(5) 0.2023(3)
H14_2 H 0.9437 0.2267 0.1705
C28_3 C 1.0000 0.2076(6) 0.2500
C29_3 C 1.0000 0.5874(7) 0.2500
C30_3 C 1.0000 0.0744(6) 0.2500
N1_2 N 0.84745(19) 0.6939(4) 0.2489(2)
N2_2 N 0.85497(18) 0.9248(4) 0.2879(2)
N3_2 N 0.69742(19) 0.6522(4) 0.3982(2)
H15_2 H 0.6848 0.5810 0.3931
N4_2 N 0.7073(2) 0.8384(5) 0.4360(2)
O5_2 O 0.96063(16) 0.6375(3) 0.2160(2)
Eu3_2 Eu 0.076262(10) 0.16924(2) 0.792653(12)
C31_3 C 0.2449(3) 0.3441(6) 0.0432(3)
H16_3 H 0.2413 0.4073 0.0723
C32_3 C 0.2939(2) 0.2794(5) 0.0469(3)
C33_3 C 0.2989(3) 0.1848(6) 0.0037(3)
H17_3 H 0.3315 0.1407 0.0061
C34_3 C 0.3405(2) 0.3057(5) 0.0991(3)
O7_3 O 0.37721(16) 0.2291(4) 0.11094(19)
O8_3 O 0.34157(15) 0.4032(3) 0.13167(19)
Eu7_2 Eu 0.423738(10) 0.33076(2) 0.207347(12)
C1_3 C 0.1556(2) 0.4197(5) 0.7704(3)
H1_3 H 0.1316 0.4454 0.8010
C2_3 C 0.1921(2) 0.5011(6) 0.7479(3)
H2_3 H 0.1918 0.5795 0.7625
C3_3 C 0.2290(2) 0.4653(5) 0.7036(3)
H3_3 H 0.2545 0.5183 0.6884
C4_3 C 0.2270(2) 0.3471(5) 0.6821(3)
C5_3 C 0.1874(2) 0.2693(5) 0.7068(3)
C6_3 C 0.1828(2) 0.1462(5) 0.6845(3)
C7_3 C 0.2162(2) 0.1027(5) 0.6353(3)
C11_3 C 0.2558(2) 0.1835(5) 0.6109(3)
C12_3 C 0.2608(2) 0.2973(5) 0.6345(3)
C13_3 C 0.3200(2) 0.2636(6) 0.5602(3)
C14_3 C 0.3632(2) 0.2851(6) 0.5149(3)
C15_3 C 0.3943(3) 0.3886(6) 0.5185(3)
H7_3 H 0.3887 0.4453 0.5509
C16_3 C 0.4335(2) 0.4075(6) 0.4742(3)
H8_3 H 0.4550 0.4761 0.4778
C17_3 C 0.4414(2) 0.3256(5) 0.4244(3)
C18_3 C 0.4110(2) 0.2216(6) 0.4211(3)
H9_3 H 0.4166 0.1655 0.3883
C19_3 C 0.3722(3) 0.2002(6) 0.4663(3)
H10_3 H 0.3522 0.1295 0.4642
C20_3 C 0.4843(2) 0.3462(5) 0.3765(3)
C21_3 C 0.2551(3) 0.1559(6) 0.9568(3)
H11_3 H 0.2587 0.0927 0.9277
C22_3 C 0.2061(2) 0.2206(5) 0.9531(3)
C23_3 C 0.2011(3) 0.3152(6) 0.9963(3)
H12_3 H 0.1685 0.3593 0.9939
C24_3 C 0.1595(2) 0.1943(5) 0.9009(3)
C25_4 C 0.0000 0.5462(7) 0.7500
C26_3 C 0.0333(3) 0.6083(5) 0.7982(3)
H13_3 H 0.0554 0.5673 0.8309
C27_3 C 0.0335(3) 0.7317(5) 0.7977(3)
H14_3 H 0.0563 0.7733 0.8295
C28_4 C 0.0000 0.7924(6) 0.7500
C29_4 C -0.0000 0.4126(7) 0.7500
C30_4 C 0.0000 0.9256(6) 0.7500
N1_3 N 0.15255(19) 0.3061(4) 0.7511(2)
N2_3 N 0.14503(18) 0.0752(4) 0.7121(2)
N3_3 N 0.30258(19) 0.3478(4) 0.6018(2)
H15_3 H 0.3152 0.4190 0.6069
N4_3 N 0.2927(2) 0.1616(5) 0.5640(2)
O1_2 O 0.53114(15) 0.3841(4) 0.39673(19)
O2_2 O 0.47208(15) 0.3212(3) 0.31511(17)
O3_2 O 0.12279(16) 0.2709(4) 0.88906(19)
O4_2 O 0.15843(15) 0.0968(3) 0.86833(19)
O5_3 O 0.03937(16) 0.3625(3) 0.7840(2)
O6_2 O 0.04264(15) 0.9760(3) 0.7762(2)
O14_2 O 0.03114(15) 0.1159(4) 0.89673(19)
O15_2 O 0.02792(15) 0.1788(3) 0.68489(17)
Eu9_2 Eu 0.576262(10) 0.33076(2) 0.292653(12)
C8_3 C 0.2097(3) 0.9842(6) 0.6152(3)
H4_3 H 0.2304 0.9531 0.5826
C9_3 C 0.1723(3) 0.9147(6) 0.6441(3)
H5_3 H 0.1677 0.8354 0.6319
C10_3 C 0.1411(2) 0.9642(5) 0.6923(3)
H6_3 H 0.1159 0.9155 0.7115
Eu4_2 Eu 0.923738(10) 0.16924(2) 0.707347(12)
C52_3 C 0.5665(2) 0.4075(6) 0.0258(3)
H27_3 H 0.5450 0.4761 0.0222
C53_3 C 0.5586(2) 0.3256(5) 0.0756(3)
C54_3 C 0.5890(2) 0.2216(6) 0.0789(3)
H28_3 H 0.5834 0.1655 0.1117
C55_3 C 0.6278(3) 0.2002(6) 0.0337(3)
H29_3 H 0.6478 0.1295 0.0358
C56_3 C 0.5157(2) 0.3462(5) 0.1235(3)
O11_2 O 0.46886(15) 0.3841(4) 0.10327(19)
O12_2 O 0.52792(15) 0.3212(3) 0.18489(17)
C25_5 C 1.0000 0.5462(7) 0.7500
C28_5 C 1.0000 0.7924(6) 0.7500
C29_5 C 1.0000 0.4126(7) 0.7500
C30_5 C 1.0000 0.9256(6) 0.7500
C35_3 C 0.9667(3) 0.6083(5) 0.7018(3)
H18_3 H 0.9446 0.5673 0.6691
C36_3 C 0.9665(3) 0.7317(5) 0.7023(3)
H19_3 H 0.9437 0.7733 0.6705
O9_3 O 0.96063(16) 0.3625(3) 0.7160(2)
O10_2 O 0.95736(15) 0.9760(3) 0.7238(2)
C37_3 C 0.8444(2) 0.4197(5) 0.7296(3)
H20_3 H 0.8684 0.4454 0.6990
C38_3 C 0.8079(2) 0.5011(6) 0.7521(3)
H21_3 H 0.8082 0.5795 0.7375
C39_3 C 0.7710(2) 0.4653(5) 0.7964(3)
H22_3 H 0.7455 0.5183 0.8116
C40_3 C 0.7730(2) 0.3471(5) 0.8179(3)
C41_3 C 0.8126(2) 0.2693(5) 0.7932(3)
C42_3 C 0.8172(2) 0.1462(5) 0.8155(3)
C43_3 C 0.7838(2) 0.1027(5) 0.8647(3)
C47_3 C 0.7442(2) 0.1835(5) 0.8891(3)
C48_3 C 0.7392(2) 0.2973(5) 0.8655(3)
C49_3 C 0.6800(2) 0.2636(6) 0.9398(3)
C50_3 C 0.6368(2) 0.2851(6) 0.9851(3)
C51_3 C 0.6057(3) 0.3886(6) 0.9815(3)
H26_3 H 0.6113 0.4453 0.9491
N5_3 N 0.84745(19) 0.3061(4) 0.7489(2)
N6_3 N 0.85497(18) 0.0752(4) 0.7879(2)
N7_3 N 0.69742(19) 0.3478(4) 0.8982(2)
H30_3 H 0.6848 0.4190 0.8931
N8_3 N 0.7073(2) 0.1616(5) 0.9360(2)
O13_2 O 0.96886(15) 0.1159(4) 0.60327(19)
O16_2 O 0.97208(15) 0.1788(3) 0.81511(17)
O17_2 O 0.87721(16) 0.2709(4) 0.61094(19)
O18_2 O 0.84157(15) 0.0968(3) 0.63167(19)
C44_3 C 0.7903(3) 0.9842(6) 0.8848(3)
H23_3 H 0.7696 0.9531 0.9174
C45_3 C 0.8277(3) 0.9147(6) 0.8559(3)
H24_3 H 0.8323 0.8354 0.8681
C46_3 C 0.8589(2) 0.9642(5) 0.8077(3)
H25_3 H 0.8841 0.9155 0.7885
C21_4 C 0.7449(3) 0.1559(6) 0.5432(3)
H11_4 H 0.7413 0.0927 0.5723
C22_4 C 0.7939(2) 0.2206(5) 0.5469(3)
C23_4 C 0.7989(3) 0.3152(6) 0.5037(3)
H12_4 H 0.8315 0.3593 0.5061
C24_4 C 0.8405(2) 0.1943(5) 0.5991(3)
C31_4 C 0.7551(3) 0.3441(6) 0.4568(3)
H16_4 H 0.7587 0.4073 0.4277
C32_4 C 0.7061(2) 0.2794(5) 0.4531(3)
C33_4 C 0.7011(3) 0.1848(6) 0.4963(3)
H17_4 H 0.6685 0.1407 0.4939
C34_4 C 0.6595(2) 0.3057(5) 0.4009(3)
O7_4 O 0.62279(16) 0.2291(4) 0.38906(19)
O8_4 O 0.65843(15) 0.4032(3) 0.36833(19)
C1_4 C 0.3444(2) 0.0803(5) 0.2296(3)
H1_4 H 0.3684 0.0546 0.1990
C3_4 C 0.2710(2) 0.0347(5) 0.2964(3)
C4_4 C 0.2730(2) 0.1529(5) 0.3179(3)
C5_4 C 0.3126(2) 0.2307(5) 0.2932(3)
C6_4 C 0.3172(2) 0.3538(5) 0.3155(3)
C7_4 C 0.2838(2) 0.3973(5) 0.3647(3)
C8_4 C 0.2903(3) 0.5158(6) 0.3848(3)
H4_4 H 0.2696 0.5469 0.4174
C9_4 C 0.3277(3) 0.5853(6) 0.3559(3)
H5_4 H 0.3323 0.6646 0.3681
C10_4 C 0.3589(2) 0.5358(5) 0.3077(3)
H6_4 H 0.3841 0.5845 0.2885
C11_4 C 0.2442(2) 0.3165(5) 0.3891(3)
C12_4 C 0.2392(2) 0.2027(5) 0.3655(3)
C13_4 C 0.1800(2) 0.2364(6) 0.4398(3)
C14_4 C 0.1368(2) 0.2149(6) 0.4851(3)
C15_4 C 0.1057(3) 0.1114(6) 0.4815(3)
H7_4 H 0.1113 0.0547 0.4491
C16_4 C 0.0665(2) 0.0925(6) 0.5258(3)
H8_4 H 0.0450 0.0239 0.5222
C17_4 C 0.0586(2) 0.1744(5) 0.5756(3)
C18_4 C 0.0890(2) 0.2784(6) 0.5789(3)
H9_4 H 0.0834 0.3345 0.6117
C19_4 C 0.1278(3) 0.2998(6) 0.5337(3)
H10_4 H 0.1478 0.3705 0.5358
C20_4 C 0.0157(2) 0.1538(5) 0.6235(3)
C29_6 C 0.5000 0.0874(7) 0.2500
N1_4 N 0.34745(19) 0.1939(4) 0.2489(2)
N2_4 N 0.35497(18) 0.4248(4) 0.2879(2)
N3_4 N 0.19742(19) 0.1522(4) 0.3982(2)
H15_4 H 0.1848 0.0810 0.3931
N4_4 N 0.2073(2) 0.3384(5) 0.4360(2)
O5_4 O 0.46063(16) 0.1375(3) 0.2160(2)
O9_4 O 0.53937(16) 0.1375(3) 0.2840(2)
C37_4 C 0.6556(2) 0.0803(5) 0.2704(3)
H20_4 H 0.6316 0.0546 0.3010
C39_4 C 0.7290(2) 0.0347(5) 0.2036(3)
C40_4 C 0.7270(2) 0.1529(5) 0.1821(3)
C41_4 C 0.6874(2) 0.2307(5) 0.2068(3)
C42_4 C 0.6828(2) 0.3538(5) 0.1845(3)
C43_4 C 0.7162(2) 0.3973(5) 0.1353(3)
C44_4 C 0.7097(3) 0.5158(6) 0.1152(3)
H23_4 H 0.7304 0.5469 0.0826
C45_4 C 0.6723(3) 0.5853(6) 0.1441(3)
H24_4 H 0.6677 0.6646 0.1319
C46_4 C 0.6411(2) 0.5358(5) 0.1923(3)
H25_4 H 0.6159 0.5845 0.2115
C47_4 C 0.7558(2) 0.3165(5) 0.1109(3)
C48_4 C 0.7608(2) 0.2027(5) 0.1345(3)
C49_4 C 0.8200(2) 0.2364(6) 0.0602(3)
C50_4 C 0.8632(2) 0.2149(6) 0.0149(3)
C51_4 C 0.8943(3) 0.1114(6) 0.0185(3)
H26_4 H 0.8887 0.0547 0.0509
N5_4 N 0.65255(19) 0.1939(4) 0.2511(2)
N6_4 N 0.64503(18) 0.4248(4) 0.2121(2)
N7_4 N 0.80258(19) 0.1522(4) 0.1018(2)
H30_4 H 0.8152 0.0810 0.1069
N8_4 N 0.7927(2) 0.3384(5) 0.0640(2)
O19_2 O 0.45736(15) 0.5240(3) 0.2238(2)
O20_2 O 0.54264(15) 0.5240(3) 0.2762(2)
C52_4 C 0.9335(2) 0.0925(6) 0.9742(3)
H27_4 H 0.9550 0.0239 0.9778
C53_4 C 0.9414(2) 0.1744(5) 0.9244(3)
C54_4 C 0.9110(2) 0.2784(6) 0.9211(3)
H28_4 H 0.9166 0.3345 0.8883
C55_4 C 0.8722(3) 0.2998(6) 0.9663(3)
H29_4 H 0.8522 0.3705 0.9642
C56_4 C 0.9843(2) 0.1538(5) 0.8765(3)
C2_4 C 0.3079(2) 0.9989(6) 0.2521(3)
H2_4 H 0.3082 0.9205 0.2375
H3_4 H 0.2455 0.9817 0.3116
C25_6 C 0.5000 0.9538(7) 0.2500
C26_4 C 0.4667(3) 0.8917(5) 0.2018(3)
H13_4 H 0.4446 0.9327 0.1691
C27_4 C 0.4665(3) 0.7683(5) 0.2023(3)
H14_4 H 0.4437 0.7267 0.1705
C28_6 C 0.5000 0.7076(6) 0.2500
C30_6 C 0.5000 0.5744(6) 0.2500
C35_4 C 0.5333(3) 0.8917(5) 0.2982(3)
H18_4 H 0.5554 0.9327 0.3309
C36_4 C 0.5335(3) 0.7683(5) 0.2977(3)
H19_4 H 0.5563 0.7267 0.3295
C38_4 C 0.6921(2) 0.9989(6) 0.2479(3)
H21_4 H 0.6918 0.9205 0.2625
H22_4 H 0.7545 0.9817 0.1884
loop_
_geom_bond_atom_site_label_1
_geom_bond_atom_site_label_2
_geom_bond_site_symmetry_1
_geom_bond_site_symmetry_2
Eu9 O1 1_555 1_555
H2 C2 1_555 1_555
C25 C26 1_555 1_555
C26 H13 1_555 1_555
C27 C26 1_555 1_555
H14 C27 1_555 1_555
C28 C27 1_555 1_555
C30 C28 1_555 1_555
O6 C30 1_555 1_555
C35 C25 1_555 1_555
H18 C35 1_555 1_555
C36 C28 1_555 1_555
H19 C36 1_555 1_555
O10 C30 1_555 1_555
H21 C38 1_555 1_555
Eu3 O6 1_555 1_555
Eu4 O10 1_555 1_555
C35 C36 1_555 1_555
H16 C31 1_555 1_555
C32 C31 1_555 1_555
H17 C33 1_555 1_555
C34 C32 1_555 1_555
O7 C34 1_555 1_555
O8 C34 1_555 1_555
H27 C52 1_555 1_555
C53 C52 1_555 1_555
C54 C53 1_555 1_555
H28 C54 1_555 1_555
H29 C55 1_555 1_555
C56 C53 1_555 1_555
O12 C56 1_555 1_555
Eu7 O7 1_555 1_555
Eu9 O12 1_555 1_555
C32 C33 1_555 1_555
O8 Eu7 1_555 1_555
C54 C55 1_555 1_555
C1 H1 1_555 1_555
C4 C3 1_555 1_555
C5 C4 1_555 1_555
C6 C5 1_555 1_555
C7 C6 1_555 1_555
C8 C7 1_555 1_555
H4 C8 1_555 1_555
C9 C8 1_555 1_555
H5 C9 1_555 1_555
C10 C9 1_555 1_555
H6 C10 1_555 1_555
C11 C7 1_555 1_555
C12 C4 1_555 1_555
C13 C14 1_555 1_555
C14 C15 1_555 1_555
C15 H7 1_555 1_555
C16 C15 1_555 1_555
H8 C16 1_555 1_555
C17 C16 1_555 1_555
C18 C17 1_555 1_555
H9 C18 1_555 1_555
C19 C14 1_555 1_555
H10 C19 1_555 1_555
C20 C17 1_555 1_555
C21 H11 1_555 1_555
C22 C21 1_555 1_555
C23 C22 1_555 1_555
H12 C23 1_555 1_555
C24 C22 1_555 1_555
N1 C1 1_555 1_555
N2 C6 1_555 1_555
N3 C12 1_555 1_555
H15 N3 1_555 1_555
N4 C11 1_555 1_555
O2 C20 1_555 1_555
O3 C24 1_555 1_555
O4 C24 1_555 1_555
O5 C29 1_555 1_555
Eu3 N1 1_555 1_555
O9 C29 1_555 1_555
C37 H20 1_555 1_555
C40 C39 1_555 1_555
C41 C40 1_555 1_555
C42 C41 1_555 1_555
C43 C42 1_555 1_555
C44 C43 1_555 1_555
H23 C44 1_555 1_555
C45 C44 1_555 1_555
H24 C45 1_555 1_555
C46 C45 1_555 1_555
H25 C46 1_555 1_555
C47 C43 1_555 1_555
C48 C40 1_555 1_555
C49 C50 1_555 1_555
C50 C51 1_555 1_555
C51 H26 1_555 1_555
N5 C37 1_555 1_555
N6 C42 1_555 1_555
N7 C48 1_555 1_555
H30 N7 1_555 1_555
N8 C47 1_555 1_555
Eu4 O9 1_555 1_555
O13 Eu4 1_555 1_555
O14 Eu3 1_555 1_555
O15 Eu3 1_555 1_555
O16 Eu3 1_555 1_555
O17 Eu4 1_555 1_555
O18 Eu4 1_555 1_555
Eu7 O2 1_555 1_555
C5 N1 1_555 1_555
C10 N2 1_555 1_555
C11 C12 1_555 1_555
C13 N3 1_555 1_555
C13 N4 1_555 1_555
C18 C19 1_555 1_555
N2 Eu3 1_555 1_555
O3 Eu3 1_555 1_555
O4 Eu3 1_555 1_555
O5 Eu3 1_555 1_555
C41 N5 1_555 1_555
C46 N6 1_555 1_555
C47 C48 1_555 1_555
C49 N7 1_555 1_555
C49 N8 1_555 1_555
N5 Eu4 1_555 1_555
N6 Eu4 1_555 1_555
Eu4 O15 1_555 1_555
Eu4 O16 1_555 1_555
Eu7 O11 1_555 1_555
C21_2 H11_2 1_555 1_555
C22_2 C21_2 1_555 1_555
C23_2 C22_2 1_555 1_555
H12_2 C23_2 1_555 1_555
C24_2 C22_2 1_555 1_555
O17 C24_2 1_555 1_555
O18 C24_2 1_555 1_555
C31_2 C23_2 1_555 1_555
H16_2 C31_2 1_555 1_555
C32_2 C31_2 1_555 1_555
C33_2 C21_2 1_555 1_555
H17_2 C33_2 1_555 1_555
C34_2 C32_2 1_555 1_555
O7_2 C34_2 1_555 1_555
O8_2 C34_2 1_555 1_555
Eu9 O7_2 1_555 1_555
C32_2 C33_2 1_555 1_555
O8_2 Eu9 1_555 1_555
H23_2 C44_2 1_555 1_555
C45_2 C44_2 1_555 1_555
H24_2 C45_2 1_555 1_555
C46_2 C45_2 1_555 1_555
H25_2 C46_2 1_555 1_555
C29_2 C25_2 1_555 1_555
C30_2 C28_2 1_555 1_555
C35_2 C25_2 1_555 1_555
H18_2 C35_2 1_555 1_555
C36_2 C28_2 1_555 1_555
H19_2 C36_2 1_555 1_555
O9_2 C29_2 1_555 1_555
O20 C30_2 1_555 1_555
C37_2 H20_2 1_555 1_555
C38_2 C37_2 1_555 1_555
H21_2 C38_2 1_555 1_555
C39_2 C38_2 1_555 1_555
H22_2 C39_2 1_555 1_555
C40_2 C39_2 1_555 1_555
C41_2 C40_2 1_555 1_555
C42_2 C41_2 1_555 1_555
C43_2 C42_2 1_555 1_555
C47_2 C43_2 1_555 1_555
C48_2 C40_2 1_555 1_555
C49_2 C50_2 1_555 1_555
C50_2 C51_2 1_555 1_555
C51_2 H26_2 1_555 1_555
N5_2 C37_2 1_555 1_555
N6_2 C42_2 1_555 1_555
N7_2 C48_2 1_555 1_555
H30_2 N7_2 1_555 1_555
N8_2 C47_2 1_555 1_555
Eu9 O9_2 1_555 1_555
C35_2 C36_2 1_555 1_555
C41_2 N5_2 1_555 1_555
C47_2 C48_2 1_555 1_555
C49_2 N7_2 1_555 1_555
C49_2 N8_2 1_555 1_555
N5_2 Eu9 1_555 1_555
N6_2 Eu9 1_555 1_555
H27_2 C52_2 1_555 1_555
C53_2 C52_2 1_555 1_555
C54_2 C53_2 1_555 1_555
H28_2 C54_2 1_555 1_555
H29_2 C55_2 1_555 1_555
C56_2 C53_2 1_555 1_555
O14 C56_2 1_555 1_555
O16 C56_2 1_555 1_555
C54_2 C55_2 1_555 1_555
H4_2 C8_2 1_555 1_555
C9_2 C8_2 1_555 1_555
H5_2 C9_2 1_555 1_555
C10_2 C9_2 1_555 1_555
H6_2 C10_2 1_555 1_555
C1_2 H1_2 1_555 1_555
C2_2 C1_2 1_555 1_555
H2_2 C2_2 1_555 1_555
C3_2 C2_2 1_555 1_555
H3_2 C3_2 1_555 1_555
C4_2 C3_2 1_555 1_555
C5_2 C4_2 1_555 1_555
C6_2 C5_2 1_555 1_555
C7_2 C6_2 1_555 1_555
C11_2 C7_2 1_555 1_555
C12_2 C4_2 1_555 1_555
C13_2 C14_2 1_555 1_555
C14_2 C15_2 1_555 1_555
C15_2 H7_2 1_555 1_555
C16_2 C15_2 1_555 1_555
H8_2 C16_2 1_555 1_555
C17_2 C16_2 1_555 1_555
C18_2 C17_2 1_555 1_555
H9_2 C18_2 1_555 1_555
C19_2 C14_2 1_555 1_555
H10_2 C19_2 1_555 1_555
C20_2 C17_2 1_555 1_555
C25_3 C26_2 1_555 1_555
C26_2 H13_2 1_555 1_555
C27_2 C26_2 1_555 1_555
H14_2 C27_2 1_555 1_555
C28_3 C27_2 1_555 1_555
C29_3 C25_3 1_555 1_555
C30_3 C28_3 1_555 1_555
N1_2 C1_2 1_555 1_555
N2_2 C6_2 1_555 1_555
N3_2 C12_2 1_555 1_555
H15_2 N3_2 1_555 1_555
N4_2 C11_2 1_555 1_555
O13 C20_2 1_555 1_555
O15 C20_2 1_555 1_555
O5_2 C29_3 1_555 1_555
O19 C30_3 1_555 1_555
Eu7 N1_2 1_555 1_555
C5_2 N1_2 1_555 1_555
C11_2 C12_2 1_555 1_555
C13_2 N3_2 1_555 1_555
C13_2 N4_2 1_555 1_555
C18_2 C19_2 1_555 1_555
N2_2 Eu7 1_555 1_555
O5_2 Eu7 1_555 1_555
H16_3 C31_3 1_555 1_555
C32_3 C31_3 1_555 1_555
H17_3 C33_3 1_555 1_555
C34_3 C32_3 1_555 1_555
O7_3 C34_3 1_555 1_555
O8_3 C34_3 1_555 1_555
Eu7_2 O7_3 1_555 1_555
C32_3 C33_3 1_555 1_555
O8_3 Eu7_2 1_555 1_555
C1_3 H1_3 1_555 1_555
C2_3 C1_3 1_555 1_555
H2_3 C2_3 1_555 1_555
C3_3 C2_3 1_555 1_555
H3_3 C3_3 1_555 1_555
C4_3 C3_3 1_555 1_555
C5_3 C4_3 1_555 1_555
C6_3 C5_3 1_555 1_555
C7_3 C6_3 1_555 1_555
C11_3 C7_3 1_555 1_555
C12_3 C4_3 1_555 1_555
C13_3 C14_3 1_555 1_555
C14_3 C15_3 1_555 1_555
C15_3 H7_3 1_555 1_555
C16_3 C15_3 1_555 1_555
H8_3 C16_3 1_555 1_555
C17_3 C16_3 1_555 1_555
C18_3 C17_3 1_555 1_555
H9_3 C18_3 1_555 1_555
C19_3 C14_3 1_555 1_555
H10_3 C19_3 1_555 1_555
C20_3 C17_3 1_555 1_555
C21_3 H11_3 1_555 1_555
C22_3 C21_3 1_555 1_555
C23_3 C22_3 1_555 1_555
H12_3 C23_3 1_555 1_555
C24_3 C22_3 1_555 1_555
C25_4 C26_3 1_555 1_555
C26_3 H13_3 1_555 1_555
C27_3 C26_3 1_555 1_555
H14_3 C27_3 1_555 1_555
C28_4 C27_3 1_555 1_555
C29_4 C25_4 1_555 1_555
C30_4 C28_4 1_555 1_555
N1_3 C1_3 1_555 1_555
N2_3 C6_3 1_555 1_555
N3_3 C12_3 1_555 1_555
H15_3 N3_3 1_555 1_555
N4_3 C11_3 1_555 1_555
O1_2 C20_3 1_555 1_555
O2_2 C20_3 1_555 1_555
O3_2 C24_3 1_555 1_555
O4_2 C24_3 1_555 1_555
O5_3 C29_4 1_555 1_555
O6_2 C30_4 1_555 1_555
Eu3_2 N1_3 1_555 1_555
O14_2 Eu3_2 1_555 1_555
O15_2 Eu3_2 1_555 1_555
Eu7_2 O2_2 1_555 1_555
Eu9_2 O1_2 1_555 1_555
C5_3 N1_3 1_555 1_555
C11_3 C12_3 1_555 1_555
C13_3 N3_3 1_555 1_555
C13_3 N4_3 1_555 1_555
C18_3 C19_3 1_555 1_555
N2_3 Eu3_2 1_555 1_555
O2_2 Eu9_2 1_555 1_555
O3_2 Eu3_2 1_555 1_555
O4_2 Eu3_2 1_555 1_555
O5_3 Eu3_2 1_555 1_555
H4_3 C8_3 1_555 1_555
C9_3 C8_3 1_555 1_555
H5_3 C9_3 1_555 1_555
C10_3 C9_3 1_555 1_555
H6_3 C10_3 1_555 1_555
H27_3 C52_3 1_555 1_555
C53_3 C52_3 1_555 1_555
C54_3 C53_3 1_555 1_555
H28_3 C54_3 1_555 1_555
H29_3 C55_3 1_555 1_555
C56_3 C53_3 1_555 1_555
O11_2 C56_3 1_555 1_555
O12_2 C56_3 1_555 1_555
Eu7_2 O11_2 1_555 1_555
Eu9_2 O12_2 1_555 1_555
C54_3 C55_3 1_555 1_555
O12_2 Eu7_2 1_555 1_555
C29_5 C25_5 1_555 1_555
C30_5 C28_5 1_555 1_555
C35_3 C25_5 1_555 1_555
H18_3 C35_3 1_555 1_555
C36_3 C28_5 1_555 1_555
H19_3 C36_3 1_555 1_555
O9_3 C29_5 1_555 1_555
O10_2 C30_5 1_555 1_555
C37_3 H20_3 1_555 1_555
C38_3 C37_3 1_555 1_555
H21_3 C38_3 1_555 1_555
C39_3 C38_3 1_555 1_555
H22_3 C39_3 1_555 1_555
C40_3 C39_3 1_555 1_555
C41_3 C40_3 1_555 1_555
C42_3 C41_3 1_555 1_555
C43_3 C42_3 1_555 1_555
C47_3 C43_3 1_555 1_555
C48_3 C40_3 1_555 1_555
C49_3 C50_3 1_555 1_555
C50_3 C51_3 1_555 1_555
C51_3 H26_3 1_555 1_555
N5_3 C37_3 1_555 1_555
N6_3 C42_3 1_555 1_555
N7_3 C48_3 1_555 1_555
H30_3 N7_3 1_555 1_555
N8_3 C47_3 1_555 1_555
Eu4_2 O9_3 1_555 1_555
O13_2 Eu4_2 1_555 1_555
O17_2 Eu4_2 1_555 1_555
O18_2 Eu4_2 1_555 1_555
C35_3 C36_3 1_555 1_555
C41_3 N5_3 1_555 1_555
C47_3 C48_3 1_555 1_555
C49_3 N7_3 1_555 1_555
C49_3 N8_3 1_555 1_555
N5_3 Eu4_2 1_555 1_555
N6_3 Eu4_2 1_555 1_555
Eu4_2 O16_2 1_555 1_555
H23_3 C44_3 1_555 1_555
C45_3 C44_3 1_555 1_555
H24_3 C45_3 1_555 1_555
C46_3 C45_3 1_555 1_555
H25_3 C46_3 1_555 1_555
C21_4 H11_4 1_555 1_555
C22_4 C21_4 1_555 1_555
C23_4 C22_4 1_555 1_555
H12_4 C23_4 1_555 1_555
C24_4 C22_4 1_555 1_555
O17_2 C24_4 1_555 1_555
O18_2 C24_4 1_555 1_555
C31_4 C23_4 1_555 1_555
H16_4 C31_4 1_555 1_555
C32_4 C31_4 1_555 1_555
C33_4 C21_4 1_555 1_555
H17_4 C33_4 1_555 1_555
C34_4 C32_4 1_555 1_555
O7_4 C34_4 1_555 1_555
O8_4 C34_4 1_555 1_555
Eu9_2 O7_4 1_555 1_555
C32_4 C33_4 1_555 1_555
O8_4 Eu9_2 1_555 1_555
C1_4 H1_4 1_555 1_555
C4_4 C3_4 1_555 1_555
C5_4 C4_4 1_555 1_555
C6_4 C5_4 1_555 1_555
C7_4 C6_4 1_555 1_555
C8_4 C7_4 1_555 1_555
H4_4 C8_4 1_555 1_555
C9_4 C8_4 1_555 1_555
H5_4 C9_4 1_555 1_555
C10_4 C9_4 1_555 1_555
H6_4 C10_4 1_555 1_555
C11_4 C7_4 1_555 1_555
C12_4 C4_4 1_555 1_555
C13_4 C14_4 1_555 1_555
C14_4 C15_4 1_555 1_555
C15_4 H7_4 1_555 1_555
C16_4 C15_4 1_555 1_555
H8_4 C16_4 1_555 1_555
C17_4 C16_4 1_555 1_555
C18_4 C17_4 1_555 1_555
H9_4 C18_4 1_555 1_555
C19_4 C14_4 1_555 1_555
H10_4 C19_4 1_555 1_555
C20_4 C17_4 1_555 1_555
N1_4 C1_4 1_555 1_555
N2_4 C6_4 1_555 1_555
N3_4 C12_4 1_555 1_555
H15_4 N3_4 1_555 1_555
N4_4 C11_4 1_555 1_555
O15_2 C20_4 1_555 1_555
O5_4 C29_6 1_555 1_555
Eu7_2 N1_4 1_555 1_555
O9_4 C29_6 1_555 1_555
C37_4 H20_4 1_555 1_555
C40_4 C39_4 1_555 1_555
C41_4 C40_4 1_555 1_555
C42_4 C41_4 1_555 1_555
C43_4 C42_4 1_555 1_555
C44_4 C43_4 1_555 1_555
H23_4 C44_4 1_555 1_555
C45_4 C44_4 1_555 1_555
H24_4 C45_4 1_555 1_555
C46_4 C45_4 1_555 1_555
H25_4 C46_4 1_555 1_555
C47_4 C43_4 1_555 1_555
C48_4 C40_4 1_555 1_555
C49_4 C50_4 1_555 1_555
C50_4 C51_4 1_555 1_555
C51_4 H26_4 1_555 1_555
N5_4 C37_4 1_555 1_555
N6_4 C42_4 1_555 1_555
N7_4 C48_4 1_555 1_555
H30_4 N7_4 1_555 1_555
N8_4 C47_4 1_555 1_555
Eu9_2 O9_4 1_555 1_555
O19_2 Eu7_2 1_555 1_555
O20_2 Eu9_2 1_555 1_555
C5_4 N1_4 1_555 1_555
C10_4 N2_4 1_555 1_555
C11_4 C12_4 1_555 1_555
C13_4 N3_4 1_555 1_555
C13_4 N4_4 1_555 1_555
C18_4 C19_4 1_555 1_555
N2_4 Eu7_2 1_555 1_555
O5_4 Eu7_2 1_555 1_555
C41_4 N5_4 1_555 1_555
C46_4 N6_4 1_555 1_555
C47_4 C48_4 1_555 1_555
C49_4 N7_4 1_555 1_555
C49_4 N8_4 1_555 1_555
N5_4 Eu9_2 1_555 1_555
N6_4 Eu9_2 1_555 1_555
H27_4 C52_4 1_555 1_555
C53_4 C52_4 1_555 1_555
C54_4 C53_4 1_555 1_555
H28_4 C54_4 1_555 1_555
H29_4 C55_4 1_555 1_555
C56_4 C53_4 1_555 1_555
O16_2 C56_4 1_555 1_555
C54_4 C55_4 1_555 1_555
H2_4 C2_4 1_555 1_555
C25_6 C26_4 1_555 1_555
C26_4 H13_4 1_555 1_555
C27_4 C26_4 1_555 1_555
H14_4 C27_4 1_555 1_555
C28_6 C27_4 1_555 1_555
C30_6 C28_6 1_555 1_555
O19_2 C30_6 1_555 1_555
C35_4 C25_6 1_555 1_555
H18_4 C35_4 1_555 1_555
C36_4 C28_6 1_555 1_555
H19_4 C36_4 1_555 1_555
O20_2 C30_6 1_555 1_555
H21_4 C38_4 1_555 1_555
C35_4 C36_4 1_555 1_555

#END
