
###############################################################################
#
# This file contains modified crystal structure data generated from the
# MOF subset of the Cambridge Structural Database (CSD) v543 
# hosted by the Cambridge Crystallographic Data Centre (CCDC).
#
# This work is licensed under the Creative Commons
# Attribution-NonCommercial-ShareAlike 4.0 International License.
# To view a copy of this license, visit
# http://creativecommons.org/licenses/by-nc-sa/4.0/
# or send a letter to
# Creative Commons, PO Box 1866, Mountain View, CA 94042, USA.
#
# CIF created using the CSD Python API on 29 September 2022
# The structure has been converted into the P1 space group
# The structure has a 3D framework
# The original CSD entry LETDEU is in the tetragonal crystal system
# The framework has been calculated to contain at least 10.0% void space
# The void calculation uses a probe of radius 1.32A, grid spacing 0.4
# The framework is charged, counterions have been retained in the structure
#
###############################################################################

data_LETDEU
_chemical_formula_moiety         '(C64 H64 Br12 Cu48 N96)n'
_symmetry_cell_setting           triclinic
_symmetry_space_group_name_H-M   'P 1'
_symmetry_Int_Tables_number      1
_space_group_name_Hall           'P 1'
loop_
_symmetry_equiv_pos_site_id
_symmetry_equiv_pos_as_xyz
1 x,y,z
_cell_length_a                   28.6782(14)
_cell_length_b                   28.6782(14)
_cell_length_c                   6.5270(6)
_cell_angle_alpha                90
_cell_angle_beta                 90
_cell_angle_gamma                90
_cell_volume                     5368.06
loop_
_atom_site_label
_atom_site_type_symbol
_atom_site_fract_x
_atom_site_fract_y
_atom_site_fract_z
Br1 Br 0.0000 0.7500 0.8750
Br1_2 Br 1.0000 0.7500 0.8750
Br1_3 Br 0.5000 0.7500 0.1250
Br1_4 Br 0.0000 0.2500 0.6250
Br1_5 Br 1.0000 0.2500 0.6250
Br1_6 Br 0.5000 0.2500 0.3750
Br1_7 Br -0.0000 0.2500 0.1250
Br1_8 Br 1.0000 0.2500 0.1250
Br1_9 Br 0.5000 0.2500 0.8750
Br1_10 Br -0.0000 0.7500 0.3750
Br1_11 Br 1.0000 0.7500 0.3750
Br1_12 Br 0.5000 0.7500 0.6250
Cu1 Cu 0.05280(3) 0.31845(2) 0.36733(12)
N1 N 0.00940(16) 0.36733(17) 0.3411(7)
C1 C 0.0147(2) 0.4117(2) 0.3113(8)
H1 H 0.0446 0.4258 0.2998
Cu3 Cu 0.05280(3) 0.68155(2) 0.13267(12)
Cu6 Cu 0.06845(2) 0.19720(3) 0.38267(12)
Cu7 Cu 0.06845(2) 0.80280(3) 0.11733(12)
Cu8 Cu 0.2500 0.28116(4) 0.5000
Cu9 Cu 0.2500 0.71884(4) 0.0000
N4 N 0.00940(16) 0.63267(17) 0.1589(7)
N5 N 0.11733(17) 0.24060(16) 0.4089(7)
N6 N 0.11733(17) 0.75940(16) 0.0911(7)
N10 N 0.11111(18) 0.28905(17) 0.4016(7)
N11 N 0.11111(18) 0.71095(17) 0.0984(7)
N13 N 0.18602(17) 0.27466(18) 0.4521(8)
N14 N 0.18602(17) 0.72534(18) 0.0479(8)
N15 N 0.31398(17) 0.27466(18) 0.5479(8)
C3 C 0.0147(2) 0.5883(2) 0.1887(8)
C4 C 0.1617(2) 0.2353(2) 0.4387(8)
C5 C 0.1617(2) 0.7647(2) 0.0613(8)
H3 H 0.0446 0.5742 0.2002
H4 H 0.1758 0.2054 0.4502
H5 H 0.1758 0.7946 0.0498
C7 C 0.1519(2) 0.3075(2) 0.4285(9)
C8 C 0.1519(2) 0.6925(2) 0.0715(9)
H7 H 0.1575 0.3401 0.4315
H8 H 0.1575 0.6599 0.0685
Cu9_2 Cu 0.2500 0.71884(4) 1.0000
Cu2 Cu 0.96884(4) 0.5000 0.2500
N2 N 0.96095(17) 0.36111(18) 0.3484(7)
N3 N 0.97534(18) 0.43602(17) 0.2979(8)
C2 C 0.9425(2) 0.4019(2) 0.3215(9)
H2 H 0.9099 0.4075 0.3185
Cu4 Cu 0.93155(2) 0.30280(3) 0.38267(12)
Cu5 Cu 0.93155(2) 0.69720(3) 0.11733(12)
N7 N 0.88267(17) 0.25940(16) 0.4089(7)
N8 N 0.88267(17) 0.74060(16) 0.0911(7)
N9 N 0.96095(17) 0.63889(18) 0.1516(7)
N12 N 0.97534(18) 0.56398(17) 0.2021(8)
C6 C 0.9425(2) 0.5981(2) 0.1785(9)
H6 H 0.9099 0.5925 0.1815
N15_2 N 0.31398(17) 0.72534(18) 0.9521(8)
Cu1_2 Cu 0.44720(3) 0.68155(2) 0.86733(12)
Cu2_2 Cu 0.53116(4) 0.5000 0.7500
N1_2 N 0.49060(16) 0.63267(17) 0.8411(7)
N2_2 N 0.53905(17) 0.63889(18) 0.8484(7)
N3_2 N 0.52466(18) 0.56398(17) 0.7979(8)
C1_2 C 0.4853(2) 0.5883(2) 0.8113(8)
H1_2 H 0.4554 0.5742 0.7998
C2_2 C 0.5575(2) 0.5981(2) 0.8215(9)
H2_2 H 0.5901 0.5925 0.8185
Cu3_2 Cu 0.44720(3) 0.31845(2) 0.63267(12)
Cu4_2 Cu 0.56845(2) 0.69720(3) 0.88267(12)
Cu5_2 Cu 0.56845(2) 0.30280(3) 0.61733(12)
Cu6_2 Cu 0.43155(2) 0.80280(3) 0.88267(12)
Cu7_2 Cu 0.43155(2) 0.19720(3) 0.61733(12)
N4_2 N 0.49060(16) 0.36733(17) 0.6589(7)
N5_2 N 0.38267(17) 0.75940(16) 0.9089(7)
N6_2 N 0.38267(17) 0.24060(16) 0.5911(7)
N7_2 N 0.61733(17) 0.74060(16) 0.9089(7)
N8_2 N 0.61733(17) 0.25940(16) 0.5911(7)
N9_2 N 0.53905(17) 0.36111(18) 0.6516(7)
N10_2 N 0.38889(18) 0.71095(17) 0.9016(7)
N11_2 N 0.38889(18) 0.28905(17) 0.5984(7)
N12_2 N 0.52466(18) 0.43602(17) 0.7021(8)
C3_2 C 0.4853(2) 0.4117(2) 0.6887(8)
C4_2 C 0.3383(2) 0.7647(2) 0.9387(8)
C5_2 C 0.3383(2) 0.2353(2) 0.5613(8)
H3_2 H 0.4554 0.4258 0.7002
H4_2 H 0.3242 0.7946 0.9502
H5_2 H 0.3242 0.2054 0.5498
C6_2 C 0.5575(2) 0.4019(2) 0.6785(9)
C7_2 C 0.3481(2) 0.6925(2) 0.9285(9)
C8_2 C 0.3481(2) 0.3075(2) 0.5715(9)
H6_2 H 0.5901 0.4075 0.6815
H7_2 H 0.3425 0.6599 0.9315
H8_2 H 0.3425 0.3401 0.5685
Cu2_3 Cu 0.46884(4) 0.0000 0.7500
Cu3_3 Cu 0.55280(3) 0.18155(2) 0.63267(12)
Cu9_3 Cu 0.7500 0.21884(4) 0.5000
N4_3 N 0.50940(16) 0.13267(17) 0.6589(7)
N9_3 N 0.46095(17) 0.13889(18) 0.6516(7)
N11_3 N 0.61111(18) 0.21095(17) 0.5984(7)
N12_3 N 0.47534(18) 0.06398(17) 0.7021(8)
N14_2 N 0.68602(17) 0.22534(18) 0.5479(8)
C3_3 C 0.5147(2) 0.0883(2) 0.6887(8)
C5_3 C 0.6617(2) 0.2647(2) 0.5613(8)
H3_3 H 0.5446 0.0742 0.7002
H5_3 H 0.6758 0.2946 0.5498
C6_3 C 0.4425(2) 0.0981(2) 0.6785(9)
C8_3 C 0.6519(2) 0.1925(2) 0.5715(9)
H6_3 H 0.4099 0.0925 0.6815
H8_3 H 0.6575 0.1599 0.5685
Cu8_2 Cu 0.7500 0.78116(4) -0.0000
N15_3 N 0.81398(17) 0.77466(18) 0.0479(8)
Cu1_3 Cu 0.55280(3) 0.81845(2) 0.86733(12)
Cu2_4 Cu 0.46884(4) 1.0000 0.7500
N1_3 N 0.50940(16) 0.86733(17) 0.8411(7)
N2_3 N 0.46095(17) 0.86111(18) 0.8484(7)
N3_3 N 0.47534(18) 0.93602(17) 0.7979(8)
C1_3 C 0.5147(2) 0.9117(2) 0.8113(8)
H1_3 H 0.5446 0.9258 0.7998
C2_3 C 0.4425(2) 0.9019(2) 0.8215(9)
H2_3 H 0.4099 0.9075 0.8185
Cu8_3 Cu 0.7500 0.78116(4) 1.0000
N10_3 N 0.61111(18) 0.78905(17) 0.9016(7)
N13_2 N 0.68602(17) 0.77466(18) 0.9521(8)
C4_3 C 0.6617(2) 0.7353(2) 0.9387(8)
H4_3 H 0.6758 0.7054 0.9502
C7_3 C 0.6519(2) 0.8075(2) 0.9285(9)
H7_3 H 0.6575 0.8401 0.9315
N15_4 N 0.81398(17) 0.22534(18) 0.4521(8)
Cu2_5 Cu 0.03116(4) 0.0000 0.2500
N2_4 N 0.03905(17) 0.13889(18) 0.3484(7)
N3_4 N 0.02466(18) 0.06398(17) 0.2979(8)
C2_4 C 0.0575(2) 0.0981(2) 0.3215(9)
H2_4 H 0.0901 0.0925 0.3185
Cu2_6 Cu 0.03116(4) 1.0000 0.2500
N9_4 N 0.03905(17) 0.86111(18) 0.1516(7)
N12_4 N 0.02466(18) 0.93602(17) 0.2021(8)
C6_4 C 0.0575(2) 0.9019(2) 0.1785(9)
H6_4 H 0.0901 0.9075 0.1815
Cu1_4 Cu 0.94720(3) 0.18155(2) 0.36733(12)
N1_4 N 0.99060(16) 0.13267(17) 0.3411(7)
C1_4 C 0.9853(2) 0.0883(2) 0.3113(8)
H1_4 H 0.9554 0.0742 0.2998
N10_4 N 0.88889(18) 0.21095(17) 0.4016(7)
C4_4 C 0.8383(2) 0.2647(2) 0.4387(8)
H4_4 H 0.8242 0.2946 0.4502
C7_4 C 0.8481(2) 0.1925(2) 0.4285(9)
H7_4 H 0.8425 0.1599 0.4315
Cu3_4 Cu 0.94720(3) 0.81845(2) 0.13267(12)
N4_4 N 0.99060(16) 0.86733(17) 0.1589(7)
N11_4 N 0.88889(18) 0.78905(17) 0.0984(7)
C3_4 C 0.9853(2) 0.9117(2) 0.1887(8)
C5_4 C 0.8383(2) 0.7353(2) 0.0613(8)
H3_4 H 0.9554 0.9258 0.2002
H5_4 H 0.8242 0.7054 0.0498
C8_4 C 0.8481(2) 0.8075(2) 0.0715(9)
H8_4 H 0.8425 0.8401 0.0685
Cu6_3 Cu 0.05280(3) 0.81845(2) 0.63267(12)
N5_3 N 0.00940(16) 0.86733(17) 0.6589(7)
C4_5 C 0.0147(2) 0.9117(2) 0.6887(8)
H4_5 H 0.0446 0.9258 0.7002
Cu8_4 Cu 0.96884(4) 0.0000 0.7500
Cu9_4 Cu 0.53116(4) 0.0000 0.2500
N15_5 N 0.97534(18) 0.06398(17) 0.7979(8)
Cu1_5 Cu 0.93155(2) 0.80280(3) 0.61733(12)
Cu2_7 Cu 0.7500 0.71884(4) 0.5000
N1_5 N 0.88267(17) 0.75940(16) 0.5911(7)
N2_5 N 0.88889(18) 0.71095(17) 0.5984(7)
N3_5 N 0.81398(17) 0.72534(18) 0.5479(8)
C1_5 C 0.8383(2) 0.7647(2) 0.5613(8)
H1_5 H 0.8242 0.7946 0.5498
C2_5 C 0.8481(2) 0.6925(2) 0.5715(9)
H2_5 H 0.8425 0.6599 0.5685
Cu3_5 Cu 0.56845(2) 0.80280(3) 0.38267(12)
Cu4_3 Cu 0.94720(3) 0.68155(2) 0.63267(12)
Cu5_3 Cu 0.55280(3) 0.68155(2) 0.36733(12)
Cu7_3 Cu 0.44720(3) 0.81845(2) 0.36733(12)
Cu8_5 Cu 0.96884(4) 1.0000 0.7500
Cu9_5 Cu 0.53116(4) 1.0000 0.2500
N4_5 N 0.61733(17) 0.75940(16) 0.4089(7)
N6_3 N 0.49060(16) 0.86733(17) 0.3411(7)
N7_3 N 0.99060(16) 0.63267(17) 0.6589(7)
N8_3 N 0.50940(16) 0.63267(17) 0.3411(7)
N9_5 N 0.61111(18) 0.71095(17) 0.4016(7)
N10_5 N 0.96095(17) 0.86111(18) 0.6516(7)
N11_5 N 0.53905(17) 0.86111(18) 0.3484(7)
N12_5 N 0.68602(17) 0.72534(18) 0.4521(8)
N13_3 N 0.97534(18) 0.93602(17) 0.7021(8)
N14_3 N 0.52466(18) 0.93602(17) 0.2979(8)
C3_5 C 0.6617(2) 0.7647(2) 0.4387(8)
C5_5 C 0.4853(2) 0.9117(2) 0.3113(8)
H3_5 H 0.6758 0.7946 0.4502
H5_5 H 0.4554 0.9258 0.2998
C6_5 C 0.6519(2) 0.6925(2) 0.4285(9)
C7_5 C 0.9425(2) 0.9019(2) 0.6785(9)
C8_5 C 0.5575(2) 0.9019(2) 0.3215(9)
H6_5 H 0.6575 0.6599 0.4315
H7_5 H 0.9099 0.9075 0.6815
H8_5 H 0.5901 0.9075 0.3185
N15_6 N 0.52466(18) 0.06398(17) 0.2021(8)
Cu7_4 Cu 0.05280(3) 0.18155(2) 0.86733(12)
N6_4 N 0.00940(16) 0.13267(17) 0.8411(7)
C5_6 C 0.0147(2) 0.0883(2) 0.8113(8)
H5_6 H 0.0446 0.0742 0.7998
Cu1_6 Cu 0.56845(2) 0.19720(3) 0.11733(12)
Cu2_8 Cu 0.7500 0.28116(4) -0.0000
N1_6 N 0.61733(17) 0.24060(16) 0.0911(7)
N2_6 N 0.61111(18) 0.28905(17) 0.0984(7)
N3_6 N 0.68602(17) 0.27466(18) 0.0479(8)
C1_6 C 0.6617(2) 0.2353(2) 0.0613(8)
H1_6 H 0.6758 0.2054 0.0498
C2_6 C 0.6519(2) 0.3075(2) 0.0715(9)
H2_6 H 0.6575 0.3401 0.0685
Cu4_4 Cu 0.55280(3) 0.31845(2) 0.13267(12)
Cu6_4 Cu 0.44720(3) 0.18155(2) 0.13267(12)
N5_4 N 0.49060(16) 0.13267(17) 0.1589(7)
N7_4 N 0.50940(16) 0.36733(17) 0.1589(7)
N10_6 N 0.53905(17) 0.13889(18) 0.1516(7)
C4_6 C 0.4853(2) 0.0883(2) 0.1887(8)
H4_6 H 0.4554 0.0742 0.2002
C7_6 C 0.5575(2) 0.0981(2) 0.1785(9)
H7_6 H 0.5901 0.0925 0.1815
Cu2_9 Cu 0.7500 0.28116(4) 1.0000
Cu3_6 Cu 0.93155(2) 0.19720(3) 0.88267(12)
Cu5_4 Cu 0.94720(3) 0.31845(2) 0.86733(12)
N4_6 N 0.88267(17) 0.24060(16) 0.9089(7)
N8_4 N 0.99060(16) 0.36733(17) 0.8411(7)
N9_6 N 0.88889(18) 0.28905(17) 0.9016(7)
N11_6 N 0.96095(17) 0.13889(18) 0.8484(7)
N12_6 N 0.81398(17) 0.27466(18) 0.9521(8)
C3_6 C 0.8383(2) 0.2353(2) 0.9387(8)
H3_6 H 0.8242 0.2054 0.9502
C6_6 C 0.8481(2) 0.3075(2) 0.9285(9)
C8_6 C 0.9425(2) 0.0981(2) 0.8215(9)
H6_6 H 0.8425 0.3401 0.9315
H8_6 H 0.9099 0.0925 0.8185
Cu1_7 Cu 0.43155(2) 0.30280(3) 0.11733(12)
Cu2_10 Cu 0.2500 0.21884(4) -0.0000
N1_7 N 0.38267(17) 0.25940(16) 0.0911(7)
N2_7 N 0.38889(18) 0.21095(17) 0.0984(7)
N3_7 N 0.31398(17) 0.22534(18) 0.0479(8)
C1_7 C 0.3383(2) 0.2647(2) 0.0613(8)
H1_7 H 0.3242 0.2946 0.0498
C2_7 C 0.3481(2) 0.1925(2) 0.0715(9)
H2_7 H 0.3425 0.1599 0.0685
Cu8_6 Cu 0.46884(4) 0.5000 0.2500
N10_7 N 0.46095(17) 0.36111(18) 0.1516(7)
N13_4 N 0.47534(18) 0.43602(17) 0.2021(8)
N15_7 N 0.47534(18) 0.56398(17) 0.2979(8)
C4_7 C 0.5147(2) 0.4117(2) 0.1887(8)
H4_7 H 0.5446 0.4258 0.2002
C7_7 C 0.4425(2) 0.4019(2) 0.1785(9)
H7_7 H 0.4099 0.4075 0.1815
Cu2_11 Cu 0.2500 0.21884(4) 1.0000
Cu3_7 Cu 0.06845(2) 0.30280(3) 0.88267(12)
Cu9_6 Cu 0.03116(4) 0.5000 0.7500
N4_7 N 0.11733(17) 0.25940(16) 0.9089(7)
N9_7 N 0.11111(18) 0.21095(17) 0.9016(7)
N11_7 N 0.03905(17) 0.36111(18) 0.8484(7)
N12_7 N 0.18602(17) 0.22534(18) 0.9521(8)
N14_4 N 0.02466(18) 0.43602(17) 0.7979(8)
C3_7 C 0.1617(2) 0.2647(2) 0.9387(8)
H3_7 H 0.1758 0.2946 0.9502
C6_7 C 0.1519(2) 0.1925(2) 0.9285(9)
C8_7 C 0.0575(2) 0.4019(2) 0.8215(9)
H6_7 H 0.1575 0.1599 0.9315
H8_7 H 0.0901 0.4075 0.8185
C5_7 C 0.9853(2) 0.4117(2) 0.8113(8)
H5_7 H 0.9554 0.4258 0.7998
N15_8 N 0.02466(18) 0.56398(17) 0.7021(8)
Cu1_8 Cu 0.06845(2) 0.69720(3) 0.61733(12)
Cu2_12 Cu 0.2500 0.78116(4) 0.5000
N1_8 N 0.11733(17) 0.74060(16) 0.5911(7)
N2_8 N 0.11111(18) 0.78905(17) 0.5984(7)
N3_8 N 0.18602(17) 0.77466(18) 0.5479(8)
C1_8 C 0.1617(2) 0.7353(2) 0.5613(8)
H1_8 H 0.1758 0.7054 0.5498
C2_8 C 0.1519(2) 0.8075(2) 0.5715(9)
H2_8 H 0.1575 0.8401 0.5685
Cu3_8 Cu 0.43155(2) 0.69720(3) 0.38267(12)
N4_8 N 0.38267(17) 0.74060(16) 0.4089(7)
N9_8 N 0.38889(18) 0.78905(17) 0.4016(7)
N10_8 N 0.03905(17) 0.63889(18) 0.6516(7)
N11_8 N 0.46095(17) 0.63889(18) 0.3484(7)
N12_8 N 0.31398(17) 0.77466(18) 0.4521(8)
C3_8 C 0.3383(2) 0.7353(2) 0.4387(8)
C5_8 C 0.5147(2) 0.5883(2) 0.3113(8)
H3_8 H 0.3242 0.7054 0.4502
H5_8 H 0.5446 0.5742 0.2998
C6_8 C 0.3481(2) 0.8075(2) 0.4285(9)
C7_8 C 0.0575(2) 0.5981(2) 0.6785(9)
C8_8 C 0.4425(2) 0.5981(2) 0.3215(9)
H6_8 H 0.3425 0.8401 0.4315
H7_8 H 0.0901 0.5925 0.6815
H8_8 H 0.4099 0.5925 0.3185
C4_8 C 0.9853(2) 0.5883(2) 0.6887(8)
H4_8 H 0.9554 0.5742 0.7002
loop_
_geom_bond_atom_site_label_1
_geom_bond_atom_site_label_2
_geom_bond_site_symmetry_1
_geom_bond_site_symmetry_2
Cu1 N1 1_555 1_555
C1 N1 1_555 1_555
H1 C1 1_555 1_555
Cu3 N4 1_555 1_555
Cu6 N5 1_555 1_555
Cu7 N6 1_555 1_555
Cu8 N13 1_555 1_555
Cu9 N14 1_555 1_555
N5 N10 1_555 1_555
N6 N11 1_555 1_555
N10 Cu1 1_555 1_555
N11 Cu3 1_555 1_555
N13 C4 1_555 1_555
N14 C5 1_555 1_555
N15 Cu8 1_555 1_555
C3 N4 1_555 1_555
C4 N5 1_555 1_555
C5 N6 1_555 1_555
H3 C3 1_555 1_555
H4 C4 1_555 1_555
H5 C5 1_555 1_555
C7 N10 1_555 1_555
C8 N11 1_555 1_555
H7 C7 1_555 1_555
H8 C8 1_555 1_555
N13 C7 1_555 1_555
N14 C8 1_555 1_555
Cu2 N3 1_555 1_555
N2 C2 1_555 1_555
C2 N3 1_555 1_555
H2 C2 1_555 1_555
Cu4 N2 1_555 1_555
Cu5 N8 1_555 1_555
N7 Cu4 1_555 1_555
N9 Cu5 1_555 1_555
N12 Cu2 1_555 1_555
C6 N9 1_555 1_555
H6 C6 1_555 1_555
N12 C6 1_555 1_555
N15_2 Cu9_2 1_555 1_555
Cu1_2 N1_2 1_555 1_555
Cu2_2 N3_2 1_555 1_555
N1_2 N2_2 1_555 1_555
N2_2 C2_2 1_555 1_555
N3_2 C1_2 1_555 1_555
C1_2 N1_2 1_555 1_555
H1_2 C1_2 1_555 1_555
C2_2 N3_2 1_555 1_555
H2_2 C2_2 1_555 1_555
Cu3_2 N4_2 1_555 1_555
Cu4_2 N2_2 1_555 1_555
Cu5_2 N8_2 1_555 1_555
Cu6_2 N5_2 1_555 1_555
Cu7_2 N6_2 1_555 1_555
N4_2 N9_2 1_555 1_555
N5_2 N10_2 1_555 1_555
N6_2 N11_2 1_555 1_555
N7_2 Cu4_2 1_555 1_555
N9_2 Cu5_2 1_555 1_555
N10_2 Cu1_2 1_555 1_555
N11_2 Cu3_2 1_555 1_555
N12_2 Cu2_2 1_555 1_555
N15_2 C4_2 1_555 1_555
N15 C5_2 1_555 1_555
C3_2 N4_2 1_555 1_555
C4_2 N5_2 1_555 1_555
C5_2 N6_2 1_555 1_555
H3_2 C3_2 1_555 1_555
H4_2 C4_2 1_555 1_555
H5_2 C5_2 1_555 1_555
C6_2 N9_2 1_555 1_555
C7_2 N10_2 1_555 1_555
C8_2 N11_2 1_555 1_555
H6_2 C6_2 1_555 1_555
H7_2 C7_2 1_555 1_555
H8_2 C8_2 1_555 1_555
N12_2 C3_2 1_555 1_555
N12_2 C6_2 1_555 1_555
N15_2 C7_2 1_555 1_555
N15 C8_2 1_555 1_555
Cu3_3 N4_3 1_555 1_555
Cu9_3 N14_2 1_555 1_555
N4_3 N9_3 1_555 1_555
N8_2 N11_3 1_555 1_555
N9_3 Cu7_2 1_555 1_555
N11_3 Cu3_3 1_555 1_555
N12_3 Cu2_3 1_555 1_555
N14_2 C5_3 1_555 1_555
C3_3 N4_3 1_555 1_555
C5_3 N8_2 1_555 1_555
H3_3 C3_3 1_555 1_555
H5_3 C5_3 1_555 1_555
C6_3 N9_3 1_555 1_555
C8_3 N11_3 1_555 1_555
H6_3 C6_3 1_555 1_555
H8_3 C8_3 1_555 1_555
N12_3 C3_3 1_555 1_555
N12_3 C6_3 1_555 1_555
N14_2 C8_3 1_555 1_555
N15_3 Cu8_2 1_555 1_555
Cu1_3 N1_3 1_555 1_555
Cu2_4 N3_3 1_555 1_555
N1_3 N2_3 1_555 1_555
N2_3 C2_3 1_555 1_555
N3_3 C1_3 1_555 1_555
C1_3 N1_3 1_555 1_555
H1_3 C1_3 1_555 1_555
C2_3 N3_3 1_555 1_555
H2_3 C2_3 1_555 1_555
Cu6_2 N2_3 1_555 1_555
Cu8_3 N13_2 1_555 1_555
N7_2 N10_3 1_555 1_555
N10_3 Cu1_3 1_555 1_555
N13_2 C4_3 1_555 1_555
C4_3 N7_2 1_555 1_555
H4_3 C4_3 1_555 1_555
C7_3 N10_3 1_555 1_555
H7_3 C7_3 1_555 1_555
N13_2 C7_3 1_555 1_555
N15_4 Cu9_3 1_555 1_555
Cu2_5 N3_4 1_555 1_555
N2_4 C2_4 1_555 1_555
C2_4 N3_4 1_555 1_555
H2_4 C2_4 1_555 1_555
Cu6 N2_4 1_555 1_555
N9_4 Cu7 1_555 1_555
N12_4 Cu2_6 1_555 1_555
C6_4 N9_4 1_555 1_555
H6_4 C6_4 1_555 1_555
N12_4 C6_4 1_555 1_555
Cu1_4 N1_4 1_555 1_555
C1_4 N1_4 1_555 1_555
H1_4 C1_4 1_555 1_555
N7 N10_4 1_555 1_555
N10_4 Cu1_4 1_555 1_555
N15_4 C4_4 1_555 1_555
C4_4 N7 1_555 1_555
H4_4 C4_4 1_555 1_555
C7_4 N10_4 1_555 1_555
H7_4 C7_4 1_555 1_555
N15_4 C7_4 1_555 1_555
Cu3_4 N4_4 1_555 1_555
N8 N11_4 1_555 1_555
N11_4 Cu3_4 1_555 1_555
N15_3 C5_4 1_555 1_555
C3_4 N4_4 1_555 1_555
C5_4 N8 1_555 1_555
H3_4 C3_4 1_555 1_555
H5_4 C5_4 1_555 1_555
C8_4 N11_4 1_555 1_555
H8_4 C8_4 1_555 1_555
N15_3 C8_4 1_555 1_555
Cu6_3 N5_3 1_555 1_555
C4_5 N5_3 1_555 1_555
H4_5 C4_5 1_555 1_555
N15_5 Cu8_4 1_555 1_555
Cu1_5 N1_5 1_555 1_555
Cu2_7 N3_5 1_555 1_555
N1_5 N2_5 1_555 1_555
N2_5 C2_5 1_555 1_555
N3_5 C1_5 1_555 1_555
C1_5 N1_5 1_555 1_555
H1_5 C1_5 1_555 1_555
C2_5 N3_5 1_555 1_555
H2_5 C2_5 1_555 1_555
Cu3_5 N4_5 1_555 1_555
Cu4_3 N2_5 1_555 1_555
Cu5_3 N8_3 1_555 1_555
Cu7_3 N6_3 1_555 1_555
Cu8_5 N13_3 1_555 1_555
Cu9_5 N14_3 1_555 1_555
N4_5 N9_5 1_555 1_555
N6_3 N11_5 1_555 1_555
N7_3 Cu4_3 1_555 1_555
N9_5 Cu5_3 1_555 1_555
N10_5 Cu1_5 1_555 1_555
N11_5 Cu3_5 1_555 1_555
N12_5 Cu2_7 1_555 1_555
N14_3 C5_5 1_555 1_555
C3_5 N4_5 1_555 1_555
C5_5 N6_3 1_555 1_555
H3_5 C3_5 1_555 1_555
H5_5 C5_5 1_555 1_555
C6_5 N9_5 1_555 1_555
C7_5 N10_5 1_555 1_555
C8_5 N11_5 1_555 1_555
H6_5 C6_5 1_555 1_555
H7_5 C7_5 1_555 1_555
H8_5 C8_5 1_555 1_555
N12_5 C3_5 1_555 1_555
N12_5 C6_5 1_555 1_555
N13_3 C7_5 1_555 1_555
N14_3 C8_5 1_555 1_555
N15_6 Cu9_4 1_555 1_555
Cu7_4 N6_4 1_555 1_555
C5_6 N6_4 1_555 1_555
H5_6 C5_6 1_555 1_555
Cu1_6 N1_6 1_555 1_555
Cu2_8 N3_6 1_555 1_555
N1_6 N2_6 1_555 1_555
N2_6 C2_6 1_555 1_555
N3_6 C1_6 1_555 1_555
C1_6 N1_6 1_555 1_555
H1_6 C1_6 1_555 1_555
C2_6 N3_6 1_555 1_555
H2_6 C2_6 1_555 1_555
Cu4_4 N2_6 1_555 1_555
Cu6_4 N5_4 1_555 1_555
N5_4 N10_6 1_555 1_555
N7_4 Cu4_4 1_555 1_555
N10_6 Cu1_6 1_555 1_555
N15_6 C4_6 1_555 1_555
C4_6 N5_4 1_555 1_555
H4_6 C4_6 1_555 1_555
C7_6 N10_6 1_555 1_555
H7_6 C7_6 1_555 1_555
N15_6 C7_6 1_555 1_555
Cu3_6 N4_6 1_555 1_555
Cu5_4 N8_4 1_555 1_555
N4_6 N9_6 1_555 1_555
N9_6 Cu5_4 1_555 1_555
N11_6 Cu3_6 1_555 1_555
N12_6 Cu2_9 1_555 1_555
C3_6 N4_6 1_555 1_555
H3_6 C3_6 1_555 1_555
C6_6 N9_6 1_555 1_555
C8_6 N11_6 1_555 1_555
H6_6 C6_6 1_555 1_555
H8_6 C8_6 1_555 1_555
N12_6 C3_6 1_555 1_555
N12_6 C6_6 1_555 1_555
N15_5 C8_6 1_555 1_555
Cu1_7 N1_7 1_555 1_555
Cu2_10 N3_7 1_555 1_555
N1_7 N2_7 1_555 1_555
N2_7 C2_7 1_555 1_555
N3_7 C1_7 1_555 1_555
C1_7 N1_7 1_555 1_555
H1_7 C1_7 1_555 1_555
C2_7 N3_7 1_555 1_555
H2_7 C2_7 1_555 1_555
Cu6_4 N2_7 1_555 1_555
Cu8_6 N13_4 1_555 1_555
N7_4 N10_7 1_555 1_555
N10_7 Cu1_7 1_555 1_555
N13_4 C4_7 1_555 1_555
N15_7 Cu8_6 1_555 1_555
C4_7 N7_4 1_555 1_555
H4_7 C4_7 1_555 1_555
C7_7 N10_7 1_555 1_555
H7_7 C7_7 1_555 1_555
N13_4 C7_7 1_555 1_555
Cu3_7 N4_7 1_555 1_555
Cu9_6 N14_4 1_555 1_555
N4_7 N9_7 1_555 1_555
N9_7 Cu7_4 1_555 1_555
N11_7 Cu3_7 1_555 1_555
N12_7 Cu2_11 1_555 1_555
C3_7 N4_7 1_555 1_555
H3_7 C3_7 1_555 1_555
C6_7 N9_7 1_555 1_555
C8_7 N11_7 1_555 1_555
H6_7 C6_7 1_555 1_555
H8_7 C8_7 1_555 1_555
N12_7 C3_7 1_555 1_555
N12_7 C6_7 1_555 1_555
N14_4 C8_7 1_555 1_555
C5_7 N8_4 1_555 1_555
H5_7 C5_7 1_555 1_555
N15_8 Cu9_6 1_555 1_555
Cu1_8 N1_8 1_555 1_555
Cu2_12 N3_8 1_555 1_555
N1_8 N2_8 1_555 1_555
N2_8 C2_8 1_555 1_555
N3_8 C1_8 1_555 1_555
C1_8 N1_8 1_555 1_555
H1_8 C1_8 1_555 1_555
C2_8 N3_8 1_555 1_555
H2_8 C2_8 1_555 1_555
Cu3_8 N4_8 1_555 1_555
Cu6_3 N2_8 1_555 1_555
N4_8 N9_8 1_555 1_555
N8_3 N11_8 1_555 1_555
N9_8 Cu7_3 1_555 1_555
N10_8 Cu1_8 1_555 1_555
N11_8 Cu3_8 1_555 1_555
N12_8 Cu2_12 1_555 1_555
N15_7 C5_8 1_555 1_555
C3_8 N4_8 1_555 1_555
C5_8 N8_3 1_555 1_555
H3_8 C3_8 1_555 1_555
H5_8 C5_8 1_555 1_555
C6_8 N9_8 1_555 1_555
C7_8 N10_8 1_555 1_555
C8_8 N11_8 1_555 1_555
H6_8 C6_8 1_555 1_555
H7_8 C7_8 1_555 1_555
H8_8 C8_8 1_555 1_555
N12_8 C3_8 1_555 1_555
N12_8 C6_8 1_555 1_555
N15_8 C7_8 1_555 1_555
N15_7 C8_8 1_555 1_555
C4_8 N7_3 1_555 1_555
H4_8 C4_8 1_555 1_555

#END
