
###############################################################################
#
# This file contains modified crystal structure data generated from the
# MOF subset of the Cambridge Structural Database (CSD) v543 
# hosted by the Cambridge Crystallographic Data Centre (CCDC).
#
# This work is licensed under the Creative Commons
# Attribution-NonCommercial-ShareAlike 4.0 International License.
# To view a copy of this license, visit
# http://creativecommons.org/licenses/by-nc-sa/4.0/
# or send a letter to
# Creative Commons, PO Box 1866, Mountain View, CA 94042, USA.
#
# CIF created using the CSD Python API on 29 September 2022
# The structure has been converted into the P1 space group
# The structure has a 3D framework
# The original CSD entry LETFIA is in the orthorhombic crystal system
# The framework has been calculated to contain at least 10.0% void space
# The void calculation uses a probe of radius 1.32A, grid spacing 0.4
# The framework is charged, counterions have been retained in the structure
# H atom positions have been added when not included in the experimental data
# Generated hydrogen atom positions removed from atoms on special positions
#
###############################################################################

data_LETFIA
_chemical_formula_moiety         '(C16 H40 Cu9 F4 N24 O9 2+)n'
_symmetry_cell_setting           triclinic
_symmetry_space_group_name_H-M   'P 1'
_symmetry_Int_Tables_number      1
_space_group_name_Hall           'P 1'
loop_
_symmetry_equiv_pos_site_id
_symmetry_equiv_pos_as_xyz
1 x,y,z
_cell_length_a                   8.9307(6)
_cell_length_b                   12.8226(9)
_cell_length_c                   7.9821(6)
_cell_angle_alpha                90
_cell_angle_beta                 90
_cell_angle_gamma                90
_cell_volume                     914.069
loop_
_atom_site_label
_atom_site_type_symbol
_atom_site_fract_x
_atom_site_fract_y
_atom_site_fract_z
Cu1 Cu -0.0000 0.01547(4) 0.00222(6)
O1 O -0.0000 0.1815(3) 0.0961(5)
Cu6 Cu 0.5000 0.49236(4) 0.09137(7)
Cu2 Cu -0.0000 0.50764(4) 0.59137(7)
Cu3 Cu -0.0000 0.25217(4) 0.77156(8)
O2 O -0.0000 0.3071(3) 0.4881(5)
O3 O -0.0000 0.6782(3) 0.7188(5)
N1 N 0.1550(3) 0.0494(2) 0.8312(4)
N2 N 0.1574(3) 0.1429(2) 0.7478(4)
N3 N 0.1572(3) 0.3575(2) 0.8159(4)
N4 N 0.1548(3) 0.4560(2) 0.7501(4)
N5 N 0.3405(3) 0.4479(2) 0.9321(4)
N6 N 0.3400(3) 0.0442(2) 0.6475(4)
C1 C 0.2668(6) 0.5075(3) 0.8218(6)
H1 H 0.2915 0.5780 0.7978
C2 C 0.2699(4) 0.3551(3) 0.9239(4)
H2 H 0.2974 0.2955 0.9875
C4 C 0.2702(4) 0.1373(2) 0.6408(4)
H4 H 0.2986 0.1924 0.5679
N12 N 0.1595(3) 0.5521(2) 0.4321(4)
H13 H 0.101685 0.709092 0.710432
N15 N 0.1600(3) 0.9558(2) 0.1475(4)
C3 C 0.2640(6) 0.9926(3) 0.7677(6)
H3 H 0.2864 0.9235 0.8025
Cu4 Cu 0.5000 0.98453(4) 0.50222(6)
Cu1_2 Cu 1.0000 0.01547(4) 0.00222(6)
O1_2 O 1.0000 0.1815(3) 0.0961(5)
H9 H 0.971152 0.229155 0.00350475
H10 H 0.927144 0.188419 0.189417
Cu2_2 Cu 1.0000 0.50764(4) 0.59137(7)
Cu3_2 Cu 1.0000 0.25217(4) 0.77156(8)
O2_2 O 1.0000 0.3071(3) 0.4881(5)
O3_2 O 1.0000 0.6782(3) 0.7188(5)
N7 N 0.8450(3) 0.0494(2) 0.8312(4)
N8 N 0.8426(3) 0.1429(2) 0.7478(4)
N9 N 0.8428(3) 0.3575(2) 0.8159(4)
N10 N 0.8452(3) 0.4560(2) 0.7501(4)
N11 N 0.6595(3) 0.4479(2) 0.9321(4)
N13 N 0.8405(3) 0.5521(2) 0.4321(4)
N14 N 0.6600(3) 0.0442(2) 0.6475(4)
C5 C 0.7332(6) 0.5075(3) 0.8218(6)
H5 H 0.7085 0.5780 0.7978
C6 C 0.7301(4) 0.3551(3) 0.9239(4)
H6 H 0.7026 0.2955 0.9875
C8 C 0.7298(4) 0.1373(2) 0.6408(4)
H8 H 0.7014 0.1924 0.5679
H11 H 0.973285 0.247362 0.414796
H12 H 0.925569 0.363864 0.473056
H14 H 0.927086 0.723728 0.659877
N16 N 0.8400(3) 0.9558(2) 0.1475(4)
C7 C 0.7360(6) 0.9926(3) 0.7677(6)
H7 H 0.7136 0.9235 0.8025
C3_2 C 0.2360(6) 0.0074(3) 0.2677(6)
H3_2 H 0.2136 0.0765 0.3025
C7_2 C 0.7640(6) 0.0074(3) 0.2677(6)
H7_2 H 0.7864 0.0765 0.3025
Cu3_3 Cu 0.5000 0.74783(4) 0.27156(8)
O1_3 O 0.5000 0.8185(3) 0.5961(5)
O3_3 O 0.5000 0.3218(3) 0.2188(5)
N1_2 N 0.3450(3) 0.9506(2) 0.3312(4)
N2_2 N 0.3426(3) 0.8571(2) 0.2478(4)
N3_2 N 0.3428(3) 0.6425(2) 0.3159(4)
N4_2 N 0.3452(3) 0.5440(2) 0.2501(4)
C1_2 C 0.2332(6) 0.4925(3) 0.3218(6)
H1_2 H 0.2085 0.4220 0.2978
C2_2 C 0.2301(4) 0.6449(3) 0.4239(4)
H2_2 H 0.2026 0.7045 0.4875
C4_2 C 0.2298(4) 0.8627(2) 0.1408(4)
H4_2 H 0.2014 0.8076 0.0679
N7_2 N 0.6550(3) 0.9506(2) 0.3312(4)
N8_2 N 0.6574(3) 0.8571(2) 0.2478(4)
N9_2 N 0.6572(3) 0.6425(2) 0.3159(4)
N10_2 N 0.6548(3) 0.5440(2) 0.2501(4)
C5_2 C 0.7668(6) 0.4925(3) 0.3218(6)
H5_2 H 0.7915 0.4220 0.2978
C6_2 C 0.7699(4) 0.6449(3) 0.4239(4)
H6_2 H 0.7974 0.7045 0.4875
C8_2 C 0.7702(4) 0.8627(2) 0.1408(4)
H8_2 H 0.7986 0.8076 0.0679
O2_3 O 0.5000 0.6929(3) 0.9881(5)
H9_2 H 0.0288485 0.229155 0.00350475
H10_2 H 0.0728563 0.188419 0.189417
H11_2 H 0.0267153 0.247362 0.414796
H12_2 H 0.0744306 0.363864 0.473056
H14_2 H 0.0729142 0.723728 0.659877
H13_2 H 0.898315 0.709092 0.710432
F1 F 0.2783(2) 0.75253(15) 0.7884(3)
F1_2 F 0.2217(2) 0.24747(15) 0.2884(3)
F1_3 F 0.7783(2) 0.24747(15) 0.2884(3)
F1_4 F 0.7217(2) 0.75253(15) 0.7884(3)
loop_
_geom_bond_atom_site_label_1
_geom_bond_atom_site_label_2
_geom_bond_site_symmetry_1
_geom_bond_site_symmetry_2
Cu1 O1 1_555 1_555
Cu2 O3 1_555 1_555
Cu3 O2 1_555 1_555
N2 Cu3 1_555 1_555
N3 Cu3 1_555 1_555
N4 Cu2 1_555 1_555
N5 C1 1_555 1_555
C1 N4 1_555 1_555
H1 C1 1_555 1_555
C2 N3 1_555 1_555
H2 C2 1_555 1_555
C4 N2 1_555 1_555
H4 C4 1_555 1_555
N12 Cu2 1_555 1_555
N1 N2 1_555 1_555
N3 N4 1_555 1_555
N5 C2 1_555 1_555
N6 C4 1_555 1_555
O3 H13 1_555 1_555
H3 C3 1_555 1_555
Cu1_2 O1_2 1_555 1_555
O1_2 H9 1_555 1_555
O1_2 H10 1_555 1_555
Cu2_2 O3_2 1_555 1_555
Cu3_2 O2_2 1_555 1_555
N8 Cu3_2 1_555 1_555
N9 Cu3_2 1_555 1_555
N10 Cu2_2 1_555 1_555
N11 C5 1_555 1_555
N13 Cu2_2 1_555 1_555
C5 N10 1_555 1_555
H5 C5 1_555 1_555
C6 N9 1_555 1_555
H6 C6 1_555 1_555
C8 N8 1_555 1_555
H8 C8 1_555 1_555
N7 N8 1_555 1_555
N9 N10 1_555 1_555
N11 C6 1_555 1_555
N14 C8 1_555 1_555
O2_2 H11 1_555 1_555
O2_2 H12 1_555 1_555
O3_2 H14 1_555 1_555
H7 C7 1_555 1_555
H3_2 C3_2 1_555 1_555
H7_2 C7_2 1_555 1_555
Cu4 O1_3 1_555 1_555
Cu6 O3_3 1_555 1_555
N1_2 Cu4 1_555 1_555
N2_2 Cu3_3 1_555 1_555
N3_2 Cu3_3 1_555 1_555
N4_2 Cu6 1_555 1_555
N12 C1_2 1_555 1_555
C1_2 N4_2 1_555 1_555
H1_2 C1_2 1_555 1_555
C2_2 N3_2 1_555 1_555
H2_2 C2_2 1_555 1_555
C4_2 N2_2 1_555 1_555
H4_2 C4_2 1_555 1_555
N7_2 Cu4 1_555 1_555
N8_2 Cu3_3 1_555 1_555
N9_2 Cu3_3 1_555 1_555
N10_2 Cu6 1_555 1_555
N13 C5_2 1_555 1_555
C5_2 N10_2 1_555 1_555
H5_2 C5_2 1_555 1_555
C6_2 N9_2 1_555 1_555
H6_2 C6_2 1_555 1_555
C8_2 N8_2 1_555 1_555
H8_2 C8_2 1_555 1_555
N1_2 N2_2 1_555 1_555
N3_2 N4_2 1_555 1_555
N12 C2_2 1_555 1_555
N15 C4_2 1_555 1_555
N7_2 N8_2 1_555 1_555
N9_2 N10_2 1_555 1_555
N13 C6_2 1_555 1_555
N16 C8_2 1_555 1_555
O1 H9_2 1_555 1_555
O1 H10_2 1_555 1_555
O2 H11_2 1_555 1_555
O2 H12_2 1_555 1_555
O3 H14_2 1_555 1_555
O3_2 H13_2 1_555 1_555

#END
