
###############################################################################
#
# This file contains modified crystal structure data generated from the
# MOF subset of the Cambridge Structural Database (CSD) v543 
# hosted by the Cambridge Crystallographic Data Centre (CCDC).
#
# This work is licensed under the Creative Commons
# Attribution-NonCommercial-ShareAlike 4.0 International License.
# To view a copy of this license, visit
# http://creativecommons.org/licenses/by-nc-sa/4.0/
# or send a letter to
# Creative Commons, PO Box 1866, Mountain View, CA 94042, USA.
#
# CIF created using the CSD Python API on 29 September 2022
# The structure has been converted into the P1 space group
# The structure has a 3D framework
# The original CSD entry LETFEW is in the orthorhombic crystal system
# The framework has been calculated to contain at least 10.0% void space
# The void calculation uses a probe of radius 1.32A, grid spacing 0.4
# The framework is charged, counterions have been retained in the structure
#
###############################################################################

data_LETFEW
_chemical_formula_moiety         '(C96 H96 Cu70 N154 26+)n'
_symmetry_cell_setting           triclinic
_symmetry_space_group_name_H-M   'P 1'
_symmetry_Int_Tables_number      1
_space_group_name_Hall           'P 1'
loop_
_symmetry_equiv_pos_site_id
_symmetry_equiv_pos_as_xyz
1 x,y,z
_cell_length_a                   6.5561(6)
_cell_length_b                   21.983(2)
_cell_length_c                   39.775(4)
_cell_angle_alpha                90
_cell_angle_beta                 90
_cell_angle_gamma                90
_cell_volume                     5732.48
loop_
_atom_site_label
_atom_site_type_symbol
_atom_site_fract_x
_atom_site_fract_y
_atom_site_fract_z
Cu1 Cu 0.2500 0.2500 0.50104(4)
Cu2 Cu 0.0000 0.0000 0.46658(5)
Cu3 Cu 0.0457(2) 0.07669(6) 0.39289(3)
N1 N 0.1635(14) 0.1772(4) 0.4757(2)
N2 N 0.0757(11) 0.0817(3) 0.46520(19)
N3 N 0.0920(11) 0.1143(3) 0.43434(18)
N4 N 0.2676(11) 0.2185(3) 0.60394(17)
N5 N 0.2500 0.2500 0.5506(3)
C1 C 0.1177(15) 0.1192(5) 0.4893(2)
H1 H 0.1178 0.1093 0.5125
C2 C 0.1374(16) 0.1690(4) 0.4426(2)
H2 H 0.1512 0.2009 0.4267
C3 C 0.2675(13) 0.2007(3) 0.5721(2)
H3 H 0.2781 0.1596 0.5650
Cu4 Cu 0.5000 0.5000 0.46658(5)
Cu5 Cu 0.4543(2) 0.42331(6) 0.39289(3)
Cu6 Cu 0.2957(2) 0.17331(6) 0.64289(3)
Cu7 Cu 0.2043(2) 0.32669(6) 0.64289(3)
N6 N 0.3365(14) 0.3228(4) 0.4757(2)
N7 N 0.4243(11) 0.4183(3) 0.46520(19)
N9 N 0.4080(11) 0.3857(3) 0.43434(18)
N10 N 0.2324(11) 0.2815(3) 0.60394(17)
N11 N 0.0176(11) 0.0315(3) 0.35394(17)
N12 N 0.4824(11) 0.4685(3) 0.35394(17)
C4 C 0.3823(15) 0.3808(5) 0.4893(2)
H4 H 0.3822 0.3907 0.5125
C5 C 0.3626(16) 0.3310(4) 0.4426(2)
H5 H 0.3488 0.2991 0.4267
C6 C 0.2325(13) 0.2993(3) 0.5721(2)
H6 H 0.2219 0.3404 0.5650
Cu2_2 Cu 1.0000 1.0000 0.46658(5)
N8 N 0.9243(11) 0.9183(3) 0.46520(19)
Cu1_2 Cu 0.7500 0.7500 0.50104(4)
Cu3_2 Cu 0.9543(2) 0.92331(6) 0.39289(3)
N1_2 N 0.8365(14) 0.8228(4) 0.4757(2)
N3_2 N 0.9080(11) 0.8857(3) 0.43434(18)
N4_2 N 0.7324(11) 0.7815(3) 0.60394(17)
N5_2 N 0.7500 0.7500 0.5506(3)
C1_2 C 0.8823(15) 0.8808(5) 0.4893(2)
H1_2 H 0.8822 0.8907 0.5125
C2_2 C 0.8626(16) 0.8310(4) 0.4426(2)
H2_2 H 0.8488 0.7991 0.4267
C3_2 C 0.7325(13) 0.7993(3) 0.5721(2)
H3_2 H 0.7219 0.8404 0.5650
Cu5_2 Cu 0.5457(2) 0.57669(6) 0.39289(3)
Cu6_2 Cu 0.7043(2) 0.82669(6) 0.64289(3)
Cu7_2 Cu 0.7957(2) 0.67331(6) 0.64289(3)
N6_2 N 0.6635(14) 0.6772(4) 0.4757(2)
N7_2 N 0.5757(11) 0.5817(3) 0.46520(19)
N9_2 N 0.5920(11) 0.6143(3) 0.43434(18)
N10_2 N 0.7676(11) 0.7185(3) 0.60394(17)
N11_2 N 0.9824(11) 0.9685(3) 0.35394(17)
N12_2 N 0.5176(11) 0.5315(3) 0.35394(17)
C4_2 C 0.6177(15) 0.6192(5) 0.4893(2)
H4_2 H 0.6178 0.6093 0.5125
C5_2 C 0.6374(16) 0.6690(4) 0.4426(2)
H5_2 H 0.6512 0.7009 0.4267
C6_2 C 0.7675(13) 0.7007(3) 0.5721(2)
H6_2 H 0.7781 0.6596 0.5650
Cu1_3 Cu 0.5000 0.0000 0.75104(4)
Cu2_3 Cu 0.2500 0.2500 0.71658(5)
N1_3 N 0.4135(14) 0.0728(4) 0.7257(2)
N2_2 N 0.3257(11) 0.1683(3) 0.71520(19)
N3_3 N 0.3420(11) 0.1357(3) 0.68434(18)
N4_3 N 0.5176(11) 0.0315(3) 0.85394(17)
N5_3 N 0.5000 -0.0000 0.8006(3)
C1_3 C 0.3677(15) 0.1308(5) 0.7393(2)
H1_3 H 0.3678 0.1407 0.7625
C2_3 C 0.3874(16) 0.0810(4) 0.6926(2)
H2_3 H 0.4012 0.0491 0.6767
C3_3 C 0.5175(13) 0.0493(3) 0.8221(2)
H3_3 H 0.5281 0.0904 0.8150
Cu6_3 Cu 0.5457(2) 0.07669(6) 0.89289(3)
N8_2 N 0.1743(11) 0.3317(3) 0.71520(19)
Cu1_4 Cu 0.5000 1.0000 0.75104(4)
N5_4 N 0.5000 1.0000 0.8006(3)
Cu4_2 Cu 0.7500 0.7500 0.71658(5)
Cu7_3 Cu 0.4543(2) 0.92331(6) 0.89289(3)
N6_3 N 0.5865(14) 0.9272(4) 0.7257(2)
N7_3 N 0.6743(11) 0.8317(3) 0.71520(19)
N9_3 N 0.6580(11) 0.8643(3) 0.68434(18)
N10_3 N 0.4824(11) 0.9685(3) 0.85394(17)
C4_3 C 0.6323(15) 0.8692(5) 0.7393(2)
H4_3 H 0.6322 0.8593 0.7625
C5_3 C 0.6126(16) 0.9190(4) 0.6926(2)
H5_3 H 0.5988 0.9509 0.6767
C6_3 C 0.4825(13) 0.9507(3) 0.8221(2)
H6_3 H 0.4719 0.9096 0.8150
Cu1_5 Cu 0.0000 0.5000 0.75104(4)
N1_4 N 0.0865(14) 0.4272(4) 0.7257(2)
N3_4 N 0.1580(11) 0.3643(3) 0.68434(18)
N5_5 N 0.0000 0.5000 0.8006(3)
C1_4 C 0.1323(15) 0.3692(5) 0.7393(2)
H1_4 H 0.1322 0.3593 0.7625
C2_4 C 0.1126(16) 0.4190(4) 0.6926(2)
H2_4 H 0.0988 0.4509 0.6767
Cu7_4 Cu 0.0457(2) 0.57669(6) 0.89289(3)
N10_4 N 0.0176(11) 0.5315(3) 0.85394(17)
C6_4 C 0.0175(13) 0.5493(3) 0.8221(2)
H6_4 H 0.0281 0.5904 0.8150
Cu1_6 Cu 1.0000 0.5000 0.75104(4)
N4_4 N 0.9824(11) 0.4685(3) 0.85394(17)
N5_6 N 1.0000 0.5000 0.8006(3)
C3_4 C 0.9825(13) 0.4507(3) 0.8221(2)
H3_4 H 0.9719 0.4096 0.8150
Cu6_4 Cu 0.9543(2) 0.42331(6) 0.89289(3)
N6_4 N 0.9135(14) 0.5728(4) 0.7257(2)
N7_4 N 0.8257(11) 0.6683(3) 0.71520(19)
N9_4 N 0.8420(11) 0.6357(3) 0.68434(18)
C4_4 C 0.8677(15) 0.6308(5) 0.7393(2)
H4_4 H 0.8678 0.6407 0.7625
C5_4 C 0.8874(16) 0.5810(4) 0.6926(2)
H5_4 H 0.9012 0.5491 0.6767
Cu4_3 Cu 0.5000 0.0000 0.96658(5)
Cu1_7 Cu 0.2500 0.7500 0.00104(4)
N4_5 N 0.2676(11) 0.7185(3) 0.10394(17)
N5_7 N 0.2500 0.7500 0.0506(3)
H1_5 H 0.1178 0.6093 0.0125
C3_5 C 0.2675(13) 0.7007(3) 0.0721(2)
H3_5 H 0.2781 0.6596 0.0650
Cu6_5 Cu 0.2957(2) 0.67331(6) 0.14289(3)
Cu7_5 Cu 0.2043(2) 0.82669(6) 0.14289(3)
N10_5 N 0.2324(11) 0.7815(3) 0.10394(17)
H4_5 H 0.3822 0.8907 0.0125
C6_5 C 0.2325(13) 0.7993(3) 0.0721(2)
H6_5 H 0.2219 0.8404 0.0650
Cu2_4 Cu 0.0000 0.5000 0.96658(5)
N1_5 N 0.1635(14) 0.6772(4) 0.9757(2)
N2_3 N 0.0757(11) 0.5817(3) 0.96520(19)
N3_5 N 0.0920(11) 0.6143(3) 0.93434(18)
C1_5 C 0.1177(15) 0.6192(5) 0.9893(2)
C2_5 C 0.1374(16) 0.6690(4) 0.9426(2)
H2_5 H 0.1512 0.7009 0.9267
Cu4_4 Cu 0.5000 1.0000 0.96658(5)
N6_5 N 0.3365(14) 0.8228(4) 0.9757(2)
N7_5 N 0.4243(11) 0.9183(3) 0.96520(19)
N9_5 N 0.4080(11) 0.8857(3) 0.93434(18)
C4_5 C 0.3823(15) 0.8808(5) 0.9893(2)
C5_5 C 0.3626(16) 0.8310(4) 0.9426(2)
H5_5 H 0.3488 0.7991 0.9267
Cu2_5 Cu 1.0000 0.5000 0.96658(5)
N8_3 N 0.9243(11) 0.4183(3) 0.96520(19)
Cu1_8 Cu 0.7500 0.2500 0.00104(4)
N4_6 N 0.7324(11) 0.2815(3) 0.10394(17)
N5_8 N 0.7500 0.2500 0.0506(3)
H1_6 H 0.8822 0.3907 0.0125
C3_6 C 0.7325(13) 0.2993(3) 0.0721(2)
H3_6 H 0.7219 0.3404 0.0650
Cu6_6 Cu 0.7043(2) 0.32669(6) 0.14289(3)
Cu7_6 Cu 0.7957(2) 0.17331(6) 0.14289(3)
N10_6 N 0.7676(11) 0.2185(3) 0.10394(17)
H4_6 H 0.6178 0.1093 0.0125
C6_6 C 0.7675(13) 0.2007(3) 0.0721(2)
H6_6 H 0.7781 0.1596 0.0650
N1_6 N 0.8365(14) 0.3228(4) 0.9757(2)
N3_6 N 0.9080(11) 0.3857(3) 0.93434(18)
C1_6 C 0.8823(15) 0.3808(5) 0.9893(2)
C2_6 C 0.8626(16) 0.3310(4) 0.9426(2)
H2_6 H 0.8488 0.2991 0.9267
N6_6 N 0.6635(14) 0.1772(4) 0.9757(2)
N7_6 N 0.5757(11) 0.0817(3) 0.96520(19)
N9_6 N 0.5920(11) 0.1143(3) 0.93434(18)
C4_6 C 0.6177(15) 0.1192(5) 0.9893(2)
C5_6 C 0.6374(16) 0.1690(4) 0.9426(2)
H5_6 H 0.6512 0.2009 0.9267
Cu1_9 Cu 0.5000 0.5000 0.25104(4)
Cu2_6 Cu 0.2500 0.7500 0.21658(5)
N1_7 N 0.4135(14) 0.5728(4) 0.2257(2)
N2_4 N 0.3257(11) 0.6683(3) 0.21520(19)
N3_7 N 0.3420(11) 0.6357(3) 0.18434(18)
N5_9 N 0.5000 0.5000 0.3006(3)
C1_7 C 0.3677(15) 0.6308(5) 0.2393(2)
H1_7 H 0.3678 0.6407 0.2625
C2_7 C 0.3874(16) 0.5810(4) 0.1926(2)
H2_7 H 0.4012 0.5491 0.1767
C3_7 C 0.5175(13) 0.5493(3) 0.3221(2)
H3_7 H 0.5281 0.5904 0.3150
Cu4_5 Cu 0.7500 0.2500 0.21658(5)
N6_7 N 0.5865(14) 0.4272(4) 0.2257(2)
N7_7 N 0.6743(11) 0.3317(3) 0.21520(19)
N8_4 N 0.1743(11) 0.8317(3) 0.21520(19)
N9_7 N 0.6580(11) 0.3643(3) 0.18434(18)
C4_7 C 0.6323(15) 0.3692(5) 0.2393(2)
H4_7 H 0.6322 0.3593 0.2625
C5_7 C 0.6126(16) 0.4190(4) 0.1926(2)
H5_7 H 0.5988 0.4509 0.1767
C6_7 C 0.4825(13) 0.4507(3) 0.3221(2)
H6_7 H 0.4719 0.4096 0.3150
Cu1_10 Cu 0.0000 -0.0000 0.25104(4)
N5_10 N 0.0000 0.0000 0.3006(3)
C6_8 C 0.0175(13) 0.0493(3) 0.3221(2)
H6_8 H 0.0281 0.0904 0.3150
Cu1_11 Cu 0.0000 1.0000 0.25104(4)
N1_8 N 0.0865(14) 0.9272(4) 0.2257(2)
N3_8 N 0.1580(11) 0.8643(3) 0.18434(18)
N5_11 N 0.0000 1.0000 0.3006(3)
C1_8 C 0.1323(15) 0.8692(5) 0.2393(2)
H1_8 H 0.1322 0.8593 0.2625
C2_8 C 0.1126(16) 0.9190(4) 0.1926(2)
H2_8 H 0.0988 0.9509 0.1767
Cu1_12 Cu 1.0000 -0.0000 0.25104(4)
N5_12 N 1.0000 0.0000 0.3006(3)
N6_8 N 0.9135(14) 0.0728(4) 0.2257(2)
N7_8 N 0.8257(11) 0.1683(3) 0.21520(19)
N9_8 N 0.8420(11) 0.1357(3) 0.18434(18)
C4_8 C 0.8677(15) 0.1308(5) 0.2393(2)
H4_8 H 0.8678 0.1407 0.2625
C5_8 C 0.8874(16) 0.0810(4) 0.1926(2)
H5_8 H 0.9012 0.0491 0.1767
Cu1_13 Cu 1.0000 1.0000 0.25104(4)
N5_13 N 1.0000 1.0000 0.3006(3)
C3_8 C 0.9825(13) 0.9507(3) 0.3221(2)
H3_8 H 0.9719 0.9096 0.3150
Cu2_7 Cu 0.0000 1.0000 0.46658(5)
Cu2_8 Cu 1.0000 0.0000 0.46658(5)
Cu8 Cu 0.5000 0.0000 0.28203(6)
Cu9 Cu 0.2500 0.2500 0.24798(8)
Cu10 Cu 0.3158(3) 0.17330(12) 0.17330(5)
N13 N 0.415(2) 0.0719(5) 0.2569(4)
N14 N 0.353(2) 0.1392(7) 0.2150(4)
N15 N 0.349(3) 0.1684(8) 0.2445(4)
N16 N 0.525(2) 0.0341(6) 0.3839(3)
N17 N 0.5000 0.0000 0.3332(4)
C7 C 0.397(3) 0.0852(8) 0.2218(4)
H7 H 0.4169 0.0552 0.2049
C8 C 0.376(3) 0.1316(10) 0.2696(4)
H8 H 0.3715 0.1426 0.2927
C9 C 0.533(2) 0.0446(7) 0.3524(4)
H9 H 0.5628 0.0839 0.3438
Cu13 Cu 0.5658(3) 0.07670(12) 0.42330(5)
N21 N 0.151(3) 0.3316(8) 0.2445(4)
N23 N 0.275(2) 0.2159(6) 0.1339(3)
Cu8_2 Cu 0.5000 1.0000 0.28203(6)
N17_2 N 0.5000 1.0000 0.3332(4)
Cu11 Cu 0.7500 0.7500 0.24798(8)
Cu12 Cu 0.6842(3) 0.82670(12) 0.17330(5)
Cu14 Cu 0.4342(3) 0.92330(12) 0.42330(5)
N18 N 0.585(2) 0.9281(5) 0.2569(4)
N19 N 0.647(2) 0.8608(7) 0.2150(4)
N20 N 0.651(3) 0.8316(8) 0.2445(4)
N22 N 0.475(2) 0.9659(6) 0.3839(3)
N24 N 0.725(2) 0.7841(6) 0.1339(3)
C10 C 0.603(3) 0.9148(8) 0.2218(4)
H10 H 0.5831 0.9448 0.2049
C11 C 0.624(3) 0.8684(10) 0.2696(4)
H11 H 0.6285 0.8574 0.2927
C12 C 0.467(2) 0.9554(7) 0.3524(4)
H12 H 0.4372 0.9161 0.3438
N21_2 N 0.849(3) 0.6684(8) 0.2445(4)
Cu11_2 Cu 0.0000 0.5000 0.49798(8)
Cu8_3 Cu 0.7500 0.2500 0.53203(6)
Cu9_2 Cu 0.5000 -0.0000 0.49798(8)
N13_2 N 0.665(2) 0.1781(5) 0.5069(4)
N14_2 N 0.603(2) 0.1108(7) 0.4650(4)
N15_2 N 0.599(3) 0.0816(8) 0.4945(4)
N16_2 N 0.775(2) 0.2159(6) 0.6339(3)
N17_3 N 0.7500 0.2500 0.5832(4)
C7_2 C 0.647(3) 0.1648(8) 0.4718(4)
H7_2 H 0.6669 0.1948 0.4549
C8_2 C 0.626(3) 0.1184(10) 0.5196(4)
H8_2 H 0.6215 0.1074 0.5427
C9_2 C 0.783(2) 0.2054(7) 0.6024(4)
H9_2 H 0.8128 0.1661 0.5938
Cu11_3 Cu 1.0000 0.5000 0.49798(8)
Cu12_2 Cu 0.9342(3) 0.42330(12) 0.42330(5)
Cu13_2 Cu 0.8158(3) 0.17330(12) 0.67330(5)
Cu14_2 Cu 0.6842(3) 0.32670(12) 0.67330(5)
N18_2 N 0.835(2) 0.3219(5) 0.5069(4)
N19_2 N 0.897(2) 0.3892(7) 0.4650(4)
N20_2 N 0.901(3) 0.4184(8) 0.4945(4)
N22_2 N 0.725(2) 0.2841(6) 0.6339(3)
N24_2 N 0.975(2) 0.4659(6) 0.3839(3)
C10_2 C 0.853(3) 0.3352(8) 0.4718(4)
H10_2 H 0.8331 0.3052 0.4549
C11_2 C 0.874(3) 0.3816(10) 0.5196(4)
H11_2 H 0.8785 0.3926 0.5427
C12_2 C 0.717(2) 0.2946(7) 0.6024(4)
H12_2 H 0.6872 0.3339 0.5938
Cu9_3 Cu 0.5000 1.0000 0.49798(8)
N21_3 N 0.401(3) 0.9184(8) 0.4945(4)
N21_4 N 0.099(3) 0.5816(8) 0.4945(4)
Cu8_4 Cu 0.5000 0.5000 0.78203(6)
Cu9_4 Cu 0.2500 0.7500 0.74798(8)
Cu10_2 Cu 0.3158(3) 0.67330(12) 0.67330(5)
N13_3 N 0.415(2) 0.5719(5) 0.7569(4)
N14_3 N 0.353(2) 0.6392(7) 0.7150(4)
N15_3 N 0.349(3) 0.6684(8) 0.7445(4)
N16_3 N 0.525(2) 0.5341(6) 0.8839(3)
N17_4 N 0.5000 0.5000 0.8332(4)
C7_3 C 0.397(3) 0.5852(8) 0.7218(4)
H7_3 H 0.4169 0.5552 0.7049
C8_3 C 0.376(3) 0.6316(10) 0.7696(4)
H8_3 H 0.3715 0.6426 0.7927
C9_3 C 0.533(2) 0.5446(7) 0.8524(4)
H9_3 H 0.5628 0.5839 0.8438
Cu11_4 Cu 0.7500 0.2500 0.74798(8)
Cu13_3 Cu 0.5658(3) 0.57670(12) 0.92330(5)
Cu14_3 Cu 0.4342(3) 0.42330(12) 0.92330(5)
N18_3 N 0.585(2) 0.4281(5) 0.7569(4)
N19_3 N 0.647(2) 0.3608(7) 0.7150(4)
N20_3 N 0.651(3) 0.3316(8) 0.7445(4)
N21_5 N 0.151(3) 0.8316(8) 0.7445(4)
N22_3 N 0.475(2) 0.4659(6) 0.8839(3)
N23_2 N 0.275(2) 0.7159(6) 0.6339(3)
C10_3 C 0.603(3) 0.4148(8) 0.7218(4)
H10_3 H 0.5831 0.4448 0.7049
C11_3 C 0.624(3) 0.3684(10) 0.7696(4)
H11_3 H 0.6285 0.3574 0.7927
C12_3 C 0.467(2) 0.4554(7) 0.8524(4)
H12_3 H 0.4372 0.4161 0.8438
N21_6 N 0.849(3) 0.1684(8) 0.7445(4)
Cu11_5 Cu 0.0000 0.0000 0.99798(8)
Cu8_5 Cu 0.7500 0.7500 0.03203(6)
N13_4 N 0.665(2) 0.6781(5) 0.0069(4)
N16_4 N 0.775(2) 0.7159(6) 0.1339(3)
N17_5 N 0.7500 0.7500 0.0832(4)
C8_4 C 0.626(3) 0.6184(10) 0.0196(4)
H8_4 H 0.6215 0.6074 0.0427
C9_4 C 0.783(2) 0.7054(7) 0.1024(4)
H9_4 H 0.8128 0.6661 0.0938
Cu13_4 Cu 0.8158(3) 0.67330(12) 0.17330(5)
N18_4 N 0.835(2) 0.8219(5) 0.0069(4)
C11_4 C 0.874(3) 0.8816(10) 0.0196(4)
H11_4 H 0.8785 0.8926 0.0427
C12_4 C 0.717(2) 0.7946(7) 0.1024(4)
H12_4 H 0.6872 0.8339 0.0938
Cu9_5 Cu 0.5000 0.5000 0.99798(8)
N14_4 N 0.603(2) 0.6108(7) 0.9650(4)
N15_4 N 0.599(3) 0.5816(8) 0.9945(4)
C7_4 C 0.647(3) 0.6648(8) 0.9718(4)
H7_4 H 0.6669 0.6948 0.9549
Cu11_6 Cu 1.0000 1.0000 0.99798(8)
Cu12_3 Cu 0.9342(3) 0.92330(12) 0.92330(5)
N19_4 N 0.897(2) 0.8892(7) 0.9650(4)
N20_4 N 0.901(3) 0.9184(8) 0.9945(4)
N21_7 N 0.401(3) 0.4184(8) 0.9945(4)
N24_3 N 0.975(2) 0.9659(6) 0.8839(3)
C10_4 C 0.853(3) 0.8352(8) 0.9718(4)
H10_4 H 0.8331 0.8052 0.9549
N21_8 N 0.099(3) 0.0816(8) 0.9945(4)
Cu8_6 Cu 0.0000 -0.0000 0.78203(6)
N16_5 N 0.025(2) 0.0341(6) 0.8839(3)
N17_6 N 0.0000 0.0000 0.8332(4)
C9_5 C 0.033(2) 0.0446(7) 0.8524(4)
H9_5 H 0.0628 0.0839 0.8438
Cu13_5 Cu 0.0658(3) 0.07670(12) 0.92330(5)
Cu8_7 Cu 0.0000 1.0000 0.78203(6)
N17_7 N -0.0000 1.0000 0.8332(4)
Cu12_4 Cu 0.1842(3) 0.82670(12) 0.67330(5)
N18_5 N 0.085(2) 0.9281(5) 0.7569(4)
N19_5 N 0.147(2) 0.8608(7) 0.7150(4)
N24_4 N 0.225(2) 0.7841(6) 0.6339(3)
C10_5 C 0.103(3) 0.9148(8) 0.7218(4)
H10_5 H 0.0831 0.9448 0.7049
C11_5 C 0.124(3) 0.8684(10) 0.7696(4)
H11_5 H 0.1285 0.8574 0.7927
Cu8_8 Cu 1.0000 -0.0000 0.78203(6)
N13_5 N 0.915(2) 0.0719(5) 0.7569(4)
N14_5 N 0.853(2) 0.1392(7) 0.7150(4)
N17_8 N 1.0000 0.0000 0.8332(4)
C7_5 C 0.897(3) 0.0852(8) 0.7218(4)
H7_5 H 0.9169 0.0552 0.7049
C8_5 C 0.876(3) 0.1316(10) 0.7696(4)
H8_5 H 0.8715 0.1426 0.7927
Cu8_9 Cu 1.0000 1.0000 0.78203(6)
N17_9 N 1.0000 1.0000 0.8332(4)
C12_5 C 0.967(2) 0.9554(7) 0.8524(4)
H12_5 H 0.9372 0.9161 0.8438
Cu8_10 Cu 0.2500 0.2500 0.03203(6)
N13_6 N 0.165(2) 0.1781(5) 0.0069(4)
N17_10 N 0.2500 0.2500 0.0832(4)
C8_6 C 0.126(3) 0.1184(10) 0.0196(4)
H8_6 H 0.1215 0.1074 0.0427
C9_6 C 0.283(2) 0.2054(7) 0.1024(4)
H9_6 H 0.3128 0.1661 0.0938
Cu14_4 Cu 0.1842(3) 0.32670(12) 0.17330(5)
N18_6 N 0.335(2) 0.3219(5) 0.0069(4)
N22_4 N 0.225(2) 0.2841(6) 0.1339(3)
C11_6 C 0.374(3) 0.3816(10) 0.0196(4)
H11_6 H 0.3785 0.3926 0.0427
C12_6 C 0.217(2) 0.2946(7) 0.1024(4)
H12_6 H 0.1872 0.3339 0.0938
N14_6 N 0.103(2) 0.1108(7) 0.9650(4)
C7_6 C 0.147(3) 0.1648(8) 0.9718(4)
H7_6 H 0.1669 0.1948 0.9549
N19_6 N 0.397(2) 0.3892(7) 0.9650(4)
C10_6 C 0.353(3) 0.3352(8) 0.9718(4)
H10_6 H 0.3331 0.3052 0.9549
Cu8_11 Cu 0.0000 0.5000 0.28203(6)
N16_6 N 0.025(2) 0.5341(6) 0.3839(3)
N17_11 N 0.0000 0.5000 0.3332(4)
C9_7 C 0.033(2) 0.5446(7) 0.3524(4)
H9_7 H 0.0628 0.5839 0.3438
Cu13_6 Cu 0.0658(3) 0.57670(12) 0.42330(5)
N18_7 N 0.085(2) 0.4281(5) 0.2569(4)
N19_7 N 0.147(2) 0.3608(7) 0.2150(4)
C10_7 C 0.103(3) 0.4148(8) 0.2218(4)
H10_7 H 0.0831 0.4448 0.2049
C11_7 C 0.124(3) 0.3684(10) 0.2696(4)
H11_7 H 0.1285 0.3574 0.2927
Cu8_12 Cu 1.0000 0.5000 0.28203(6)
N13_7 N 0.915(2) 0.5719(5) 0.2569(4)
N14_7 N 0.853(2) 0.6392(7) 0.2150(4)
N17_12 N 1.0000 0.5000 0.3332(4)
C7_7 C 0.897(3) 0.5852(8) 0.2218(4)
H7_7 H 0.9169 0.5552 0.2049
C8_7 C 0.876(3) 0.6316(10) 0.2696(4)
H8_7 H 0.8715 0.6426 0.2927
C12_7 C 0.967(2) 0.4554(7) 0.3524(4)
H12_7 H 0.9372 0.4161 0.3438
Cu8_13 Cu 0.2500 0.7500 0.53203(6)
N13_8 N 0.165(2) 0.6781(5) 0.5069(4)
N14_8 N 0.103(2) 0.6108(7) 0.4650(4)
N17_13 N 0.2500 0.7500 0.5832(4)
C7_8 C 0.147(3) 0.6648(8) 0.4718(4)
H7_8 H 0.1669 0.6948 0.4549
C8_8 C 0.126(3) 0.6184(10) 0.5196(4)
H8_8 H 0.1215 0.6074 0.5427
C9_8 C 0.283(2) 0.7054(7) 0.6024(4)
H9_8 H 0.3128 0.6661 0.5938
N18_8 N 0.335(2) 0.8219(5) 0.5069(4)
N19_8 N 0.397(2) 0.8892(7) 0.4650(4)
C10_8 C 0.353(3) 0.8352(8) 0.4718(4)
H10_8 H 0.3331 0.8052 0.4549
C11_8 C 0.374(3) 0.8816(10) 0.5196(4)
H11_8 H 0.3785 0.8926 0.5427
C12_8 C 0.217(2) 0.7946(7) 0.6024(4)
H12_8 H 0.1872 0.8339 0.5938
Cu11_7 Cu 0.0000 1.0000 0.99798(8)
Cu11_8 Cu 1.0000 0.0000 0.99798(8)
loop_
_geom_bond_atom_site_label_1
_geom_bond_atom_site_label_2
_geom_bond_site_symmetry_1
_geom_bond_site_symmetry_2
Cu1 N1 1_555 1_555
Cu2 N2 1_555 1_555
Cu3 N3 1_555 1_555
N1 C1 1_555 1_555
N2 N3 1_555 1_555
N3 C2 1_555 1_555
N4 C3 1_555 1_555
N5 Cu1 1_555 1_555
C1 N2 1_555 1_555
H1 C1 1_555 1_555
C2 N1 1_555 1_555
H2 C2 1_555 1_555
C3 N5 1_555 1_555
H3 C3 1_555 1_555
Cu4 N7 1_555 1_555
Cu5 N9 1_555 1_555
Cu6 N4 1_555 1_555
Cu7 N10 1_555 1_555
N6 Cu1 1_555 1_555
N7 N9 1_555 1_555
N9 C5 1_555 1_555
N10 N4 1_555 1_555
N11 Cu3 1_555 1_555
N12 Cu5 1_555 1_555
C4 N6 1_555 1_555
H4 C4 1_555 1_555
C5 N6 1_555 1_555
H5 C5 1_555 1_555
C6 N5 1_555 1_555
H6 C6 1_555 1_555
N7 C4 1_555 1_555
N10 C6 1_555 1_555
N8 Cu2_2 1_555 1_555
Cu1_2 N1_2 1_555 1_555
Cu3_2 N3_2 1_555 1_555
N1_2 C1_2 1_555 1_555
N8 N3_2 1_555 1_555
N3_2 C2_2 1_555 1_555
N4_2 C3_2 1_555 1_555
N5_2 Cu1_2 1_555 1_555
C1_2 N8 1_555 1_555
H1_2 C1_2 1_555 1_555
C2_2 N1_2 1_555 1_555
H2_2 C2_2 1_555 1_555
C3_2 N5_2 1_555 1_555
H3_2 C3_2 1_555 1_555
Cu4 N7_2 1_555 1_555
Cu5_2 N9_2 1_555 1_555
Cu6_2 N4_2 1_555 1_555
Cu7_2 N10_2 1_555 1_555
N6_2 Cu1_2 1_555 1_555
N7_2 N9_2 1_555 1_555
N9_2 C5_2 1_555 1_555
N10_2 N4_2 1_555 1_555
N11_2 Cu3_2 1_555 1_555
N12_2 Cu5_2 1_555 1_555
C4_2 N6_2 1_555 1_555
H4_2 C4_2 1_555 1_555
C5_2 N6_2 1_555 1_555
H5_2 C5_2 1_555 1_555
C6_2 N5_2 1_555 1_555
H6_2 C6_2 1_555 1_555
N7_2 C4_2 1_555 1_555
N10_2 C6_2 1_555 1_555
Cu1_3 N1_3 1_555 1_555
Cu2_3 N2_2 1_555 1_555
Cu6 N3_3 1_555 1_555
N1_3 C1_3 1_555 1_555
N2_2 N3_3 1_555 1_555
N3_3 C2_3 1_555 1_555
N4_3 C3_3 1_555 1_555
N5_3 Cu1_3 1_555 1_555
C1_3 N2_2 1_555 1_555
H1_3 C1_3 1_555 1_555
C2_3 N1_3 1_555 1_555
H2_3 C2_3 1_555 1_555
C3_3 N5_3 1_555 1_555
H3_3 C3_3 1_555 1_555
Cu6_3 N4_3 1_555 1_555
N8_2 Cu2_3 1_555 1_555
N5_4 Cu1_4 1_555 1_555
Cu4_2 N7_3 1_555 1_555
Cu6_2 N9_3 1_555 1_555
Cu7_3 N10_3 1_555 1_555
N6_3 Cu1_4 1_555 1_555
N7_3 N9_3 1_555 1_555
N9_3 C5_3 1_555 1_555
C4_3 N6_3 1_555 1_555
H4_3 C4_3 1_555 1_555
C5_3 N6_3 1_555 1_555
H5_3 C5_3 1_555 1_555
C6_3 N5_4 1_555 1_555
H6_3 C6_3 1_555 1_555
N7_3 C4_3 1_555 1_555
N10_3 C6_3 1_555 1_555
Cu1_5 N1_4 1_555 1_555
Cu7 N3_4 1_555 1_555
N1_4 C1_4 1_555 1_555
N8_2 N3_4 1_555 1_555
N3_4 C2_4 1_555 1_555
N5_5 Cu1_5 1_555 1_555
C1_4 N8_2 1_555 1_555
H1_4 C1_4 1_555 1_555
C2_4 N1_4 1_555 1_555
H2_4 C2_4 1_555 1_555
Cu7_4 N10_4 1_555 1_555
C6_4 N5_5 1_555 1_555
H6_4 C6_4 1_555 1_555
N10_4 C6_4 1_555 1_555
N4_4 C3_4 1_555 1_555
N5_6 Cu1_6 1_555 1_555
C3_4 N5_6 1_555 1_555
H3_4 C3_4 1_555 1_555
Cu4_2 N7_4 1_555 1_555
Cu7_2 N9_4 1_555 1_555
Cu6_4 N4_4 1_555 1_555
N6_4 Cu1_6 1_555 1_555
N7_4 N9_4 1_555 1_555
N9_4 C5_4 1_555 1_555
C4_4 N6_4 1_555 1_555
H4_4 C4_4 1_555 1_555
C5_4 N6_4 1_555 1_555
H5_4 C5_4 1_555 1_555
N7_4 C4_4 1_555 1_555
N4_5 C3_5 1_555 1_555
N5_7 Cu1_7 1_555 1_555
C3_5 N5_7 1_555 1_555
H3_5 C3_5 1_555 1_555
Cu6_5 N4_5 1_555 1_555
Cu7_5 N10_5 1_555 1_555
N10_5 N4_5 1_555 1_555
C6_5 N5_7 1_555 1_555
H6_5 C6_5 1_555 1_555
N10_5 C6_5 1_555 1_555
Cu2_4 N2_3 1_555 1_555
Cu7_4 N3_5 1_555 1_555
N1_5 C1_5 1_555 1_555
N2_3 N3_5 1_555 1_555
N3_5 C2_5 1_555 1_555
C1_5 N2_3 1_555 1_555
C2_5 N1_5 1_555 1_555
H2_5 C2_5 1_555 1_555
Cu4_4 N7_5 1_555 1_555
Cu7_3 N9_5 1_555 1_555
N7_5 N9_5 1_555 1_555
N9_5 C5_5 1_555 1_555
C4_5 N6_5 1_555 1_555
C5_5 N6_5 1_555 1_555
H5_5 C5_5 1_555 1_555
N7_5 C4_5 1_555 1_555
N8_3 Cu2_5 1_555 1_555
N4_6 C3_6 1_555 1_555
N5_8 Cu1_8 1_555 1_555
C3_6 N5_8 1_555 1_555
H3_6 C3_6 1_555 1_555
Cu6_6 N4_6 1_555 1_555
Cu7_6 N10_6 1_555 1_555
N10_6 N4_6 1_555 1_555
C6_6 N5_8 1_555 1_555
H6_6 C6_6 1_555 1_555
N10_6 C6_6 1_555 1_555
Cu6_4 N3_6 1_555 1_555
N1_6 C1_6 1_555 1_555
N8_3 N3_6 1_555 1_555
N3_6 C2_6 1_555 1_555
C1_6 N8_3 1_555 1_555
C2_6 N1_6 1_555 1_555
H2_6 C2_6 1_555 1_555
Cu4_3 N7_6 1_555 1_555
Cu6_3 N9_6 1_555 1_555
N7_6 N9_6 1_555 1_555
N9_6 C5_6 1_555 1_555
C4_6 N6_6 1_555 1_555
C5_6 N6_6 1_555 1_555
H5_6 C5_6 1_555 1_555
N7_6 C4_6 1_555 1_555
Cu1_9 N1_7 1_555 1_555
Cu2_6 N2_4 1_555 1_555
Cu6_5 N3_7 1_555 1_555
N1_7 C1_7 1_555 1_555
N2_4 N3_7 1_555 1_555
N3_7 C2_7 1_555 1_555
N12_2 C3_7 1_555 1_555
N5_9 Cu1_9 1_555 1_555
C1_7 N2_4 1_555 1_555
H1_7 C1_7 1_555 1_555
C2_7 N1_7 1_555 1_555
H2_7 C2_7 1_555 1_555
C3_7 N5_9 1_555 1_555
H3_7 C3_7 1_555 1_555
Cu4_5 N7_7 1_555 1_555
Cu6_6 N9_7 1_555 1_555
N6_7 Cu1_9 1_555 1_555
N7_7 N9_7 1_555 1_555
N8_4 Cu2_6 1_555 1_555
N9_7 C5_7 1_555 1_555
N12 N12_2 1_555 1_555
C4_7 N6_7 1_555 1_555
H4_7 C4_7 1_555 1_555
C5_7 N6_7 1_555 1_555
H5_7 C5_7 1_555 1_555
C6_7 N5_9 1_555 1_555
H6_7 C6_7 1_555 1_555
N7_7 C4_7 1_555 1_555
N12 C6_7 1_555 1_555
N5_10 Cu1_10 1_555 1_555
C6_8 N5_10 1_555 1_555
H6_8 C6_8 1_555 1_555
N11 C6_8 1_555 1_555
Cu1_11 N1_8 1_555 1_555
Cu7_5 N3_8 1_555 1_555
N1_8 C1_8 1_555 1_555
N8_4 N3_8 1_555 1_555
N3_8 C2_8 1_555 1_555
N5_11 Cu1_11 1_555 1_555
C1_8 N8_4 1_555 1_555
H1_8 C1_8 1_555 1_555
C2_8 N1_8 1_555 1_555
H2_8 C2_8 1_555 1_555
N5_12 Cu1_12 1_555 1_555
Cu4_5 N7_8 1_555 1_555
Cu7_6 N9_8 1_555 1_555
N6_8 Cu1_12 1_555 1_555
N7_8 N9_8 1_555 1_555
N9_8 C5_8 1_555 1_555
C4_8 N6_8 1_555 1_555
H4_8 C4_8 1_555 1_555
C5_8 N6_8 1_555 1_555
H5_8 C5_8 1_555 1_555
N7_8 C4_8 1_555 1_555
N11_2 C3_8 1_555 1_555
N5_13 Cu1_13 1_555 1_555
C3_8 N5_13 1_555 1_555
H3_8 C3_8 1_555 1_555
Cu8 N13 1_555 1_555
Cu9 N15 1_555 1_555
Cu10 N14 1_555 1_555
N13 C7 1_555 1_555
N14 N15 1_555 1_555
N15 C8 1_555 1_555
N16 C9 1_555 1_555
N17 Cu8 1_555 1_555
C7 N14 1_555 1_555
H7 C7 1_555 1_555
C8 N13 1_555 1_555
H8 C8 1_555 1_555
C9 N17 1_555 1_555
H9 C9 1_555 1_555
Cu13 N16 1_555 1_555
N21 Cu9 1_555 1_555
N23 Cu10 1_555 1_555
N17_2 Cu8_2 1_555 1_555
Cu11 N20 1_555 1_555
Cu12 N19 1_555 1_555
Cu14 N22 1_555 1_555
N18 Cu8_2 1_555 1_555
N19 N20 1_555 1_555
N20 C11 1_555 1_555
N24 Cu12 1_555 1_555
C10 N18 1_555 1_555
H10 C10 1_555 1_555
C11 N18 1_555 1_555
H11 C11 1_555 1_555
C12 N17_2 1_555 1_555
H12 C12 1_555 1_555
N19 C10 1_555 1_555
N22 C12 1_555 1_555
N21_2 Cu11 1_555 1_555
Cu8_3 N13_2 1_555 1_555
Cu9_2 N15_2 1_555 1_555
Cu13 N14_2 1_555 1_555
N13_2 C7_2 1_555 1_555
N14_2 N15_2 1_555 1_555
N15_2 C8_2 1_555 1_555
N16_2 C9_2 1_555 1_555
N17_3 Cu8_3 1_555 1_555
C7_2 N14_2 1_555 1_555
H7_2 C7_2 1_555 1_555
C8_2 N13_2 1_555 1_555
H8_2 C8_2 1_555 1_555
C9_2 N17_3 1_555 1_555
H9_2 C9_2 1_555 1_555
Cu11_3 N20_2 1_555 1_555
Cu12_2 N19_2 1_555 1_555
Cu13_2 N16_2 1_555 1_555
Cu14_2 N22_2 1_555 1_555
N18_2 Cu8_3 1_555 1_555
N19_2 N20_2 1_555 1_555
N20_2 C11_2 1_555 1_555
N22_2 N16_2 1_555 1_555
N24_2 Cu12_2 1_555 1_555
C10_2 N18_2 1_555 1_555
H10_2 C10_2 1_555 1_555
C11_2 N18_2 1_555 1_555
H11_2 C11_2 1_555 1_555
C12_2 N17_3 1_555 1_555
H12_2 C12_2 1_555 1_555
N19_2 C10_2 1_555 1_555
N22_2 C12_2 1_555 1_555
N21_3 Cu9_3 1_555 1_555
N21_4 Cu11_2 1_555 1_555
Cu8_4 N13_3 1_555 1_555
Cu9_4 N15_3 1_555 1_555
Cu10_2 N14_3 1_555 1_555
N13_3 C7_3 1_555 1_555
N14_3 N15_3 1_555 1_555
N15_3 C8_3 1_555 1_555
N16_3 C9_3 1_555 1_555
N17_4 Cu8_4 1_555 1_555
C7_3 N14_3 1_555 1_555
H7_3 C7_3 1_555 1_555
C8_3 N13_3 1_555 1_555
H8_3 C8_3 1_555 1_555
C9_3 N17_4 1_555 1_555
H9_3 C9_3 1_555 1_555
Cu11_4 N20_3 1_555 1_555
Cu14_2 N19_3 1_555 1_555
Cu13_3 N16_3 1_555 1_555
Cu14_3 N22_3 1_555 1_555
N18_3 Cu8_4 1_555 1_555
N19_3 N20_3 1_555 1_555
N20_3 C11_3 1_555 1_555
N21_5 Cu9_4 1_555 1_555
N22_3 N16_3 1_555 1_555
N23_2 Cu10_2 1_555 1_555
C10_3 N18_3 1_555 1_555
H10_3 C10_3 1_555 1_555
C11_3 N18_3 1_555 1_555
H11_3 C11_3 1_555 1_555
C12_3 N17_4 1_555 1_555
H12_3 C12_3 1_555 1_555
N19_3 C10_3 1_555 1_555
N22_3 C12_3 1_555 1_555
N21_6 Cu11_4 1_555 1_555
Cu8_5 N13_4 1_555 1_555
N16_4 C9_4 1_555 1_555
N17_5 Cu8_5 1_555 1_555
C8_4 N13_4 1_555 1_555
H8_4 C8_4 1_555 1_555
C9_4 N17_5 1_555 1_555
H9_4 C9_4 1_555 1_555
Cu13_4 N16_4 1_555 1_555
N18_4 Cu8_5 1_555 1_555
N24 N16_4 1_555 1_555
C11_4 N18_4 1_555 1_555
H11_4 C11_4 1_555 1_555
C12_4 N17_5 1_555 1_555
H12_4 C12_4 1_555 1_555
N24 C12_4 1_555 1_555
Cu9_5 N15_4 1_555 1_555
Cu13_3 N14_4 1_555 1_555
N14_4 N15_4 1_555 1_555
C7_4 N14_4 1_555 1_555
H7_4 C7_4 1_555 1_555
Cu11_6 N20_4 1_555 1_555
Cu12_3 N19_4 1_555 1_555
N19_4 N20_4 1_555 1_555
N21_7 Cu9_5 1_555 1_555
N24_3 Cu12_3 1_555 1_555
H10_4 C10_4 1_555 1_555
N19_4 C10_4 1_555 1_555
N21_8 Cu11_5 1_555 1_555
N16_5 C9_5 1_555 1_555
N17_6 Cu8_6 1_555 1_555
C9_5 N17_6 1_555 1_555
H9_5 C9_5 1_555 1_555
Cu13_5 N16_5 1_555 1_555
N17_7 Cu8_7 1_555 1_555
Cu12_4 N19_5 1_555 1_555
N18_5 Cu8_7 1_555 1_555
N19_5 N21_5 1_555 1_555
N21_5 C11_5 1_555 1_555
N24_4 Cu12_4 1_555 1_555
C10_5 N18_5 1_555 1_555
H10_5 C10_5 1_555 1_555
C11_5 N18_5 1_555 1_555
H11_5 C11_5 1_555 1_555
N19_5 C10_5 1_555 1_555
Cu8_8 N13_5 1_555 1_555
Cu13_2 N14_5 1_555 1_555
N13_5 C7_5 1_555 1_555
N14_5 N21_6 1_555 1_555
N21_6 C8_5 1_555 1_555
N17_8 Cu8_8 1_555 1_555
C7_5 N14_5 1_555 1_555
H7_5 C7_5 1_555 1_555
C8_5 N13_5 1_555 1_555
H8_5 C8_5 1_555 1_555
N17_9 Cu8_9 1_555 1_555
C12_5 N17_9 1_555 1_555
H12_5 C12_5 1_555 1_555
N24_3 C12_5 1_555 1_555
Cu8_10 N13_6 1_555 1_555
N23 C9_6 1_555 1_555
N17_10 Cu8_10 1_555 1_555
C8_6 N13_6 1_555 1_555
H8_6 C8_6 1_555 1_555
C9_6 N17_10 1_555 1_555
H9_6 C9_6 1_555 1_555
Cu14_4 N22_4 1_555 1_555
N18_6 Cu8_10 1_555 1_555
N22_4 N23 1_555 1_555
C11_6 N18_6 1_555 1_555
H11_6 C11_6 1_555 1_555
C12_6 N17_10 1_555 1_555
H12_6 C12_6 1_555 1_555
N22_4 C12_6 1_555 1_555
Cu13_5 N14_6 1_555 1_555
N14_6 N21_8 1_555 1_555
C7_6 N14_6 1_555 1_555
H7_6 C7_6 1_555 1_555
Cu14_3 N19_6 1_555 1_555
N19_6 N21_7 1_555 1_555
H10_6 C10_6 1_555 1_555
N19_6 C10_6 1_555 1_555
N16_6 C9_7 1_555 1_555
N17_11 Cu8_11 1_555 1_555
C9_7 N17_11 1_555 1_555
H9_7 C9_7 1_555 1_555
Cu14_4 N19_7 1_555 1_555
Cu13_6 N16_6 1_555 1_555
N18_7 Cu8_11 1_555 1_555
N19_7 N21 1_555 1_555
N21 C11_7 1_555 1_555
C10_7 N18_7 1_555 1_555
H10_7 C10_7 1_555 1_555
C11_7 N18_7 1_555 1_555
H11_7 C11_7 1_555 1_555
N19_7 C10_7 1_555 1_555
Cu8_12 N13_7 1_555 1_555
Cu13_4 N14_7 1_555 1_555
N13_7 C7_7 1_555 1_555
N14_7 N21_2 1_555 1_555
N21_2 C8_7 1_555 1_555
N17_12 Cu8_12 1_555 1_555
C7_7 N14_7 1_555 1_555
H7_7 C7_7 1_555 1_555
C8_7 N13_7 1_555 1_555
H8_7 C8_7 1_555 1_555
C12_7 N17_12 1_555 1_555
H12_7 C12_7 1_555 1_555
N24_2 C12_7 1_555 1_555
Cu8_13 N13_8 1_555 1_555
Cu13_6 N14_8 1_555 1_555
N13_8 C7_8 1_555 1_555
N14_8 N21_4 1_555 1_555
N21_4 C8_8 1_555 1_555
N23_2 C9_8 1_555 1_555
N17_13 Cu8_13 1_555 1_555
C7_8 N14_8 1_555 1_555
H7_8 C7_8 1_555 1_555
C8_8 N13_8 1_555 1_555
H8_8 C8_8 1_555 1_555
C9_8 N17_13 1_555 1_555
H9_8 C9_8 1_555 1_555
Cu14 N19_8 1_555 1_555
N18_8 Cu8_13 1_555 1_555
N19_8 N21_3 1_555 1_555
N21_3 C11_8 1_555 1_555
N24_4 N23_2 1_555 1_555
C10_8 N18_8 1_555 1_555
H10_8 C10_8 1_555 1_555
C11_8 N18_8 1_555 1_555
H11_8 C11_8 1_555 1_555
C12_8 N17_13 1_555 1_555
H12_8 C12_8 1_555 1_555
N19_8 C10_8 1_555 1_555
N24_4 C12_8 1_555 1_555

#END
