
###############################################################################
#
# This file contains modified crystal structure data generated from the
# MOF subset of the Cambridge Structural Database (CSD) v543 
# hosted by the Cambridge Crystallographic Data Centre (CCDC).
#
# This work is licensed under the Creative Commons
# Attribution-NonCommercial-ShareAlike 4.0 International License.
# To view a copy of this license, visit
# http://creativecommons.org/licenses/by-nc-sa/4.0/
# or send a letter to
# Creative Commons, PO Box 1866, Mountain View, CA 94042, USA.
#
# CIF created using the CSD Python API on 29 September 2022
# The structure has been converted into the P1 space group
# The structure has a 3D framework
# The original CSD entry LETRUZ is in the monoclinic crystal system
# The framework has been calculated to contain at least 10.0% void space
# The void calculation uses a probe of radius 1.32A, grid spacing 0.4
#
###############################################################################

data_LETRUZ
_chemical_formula_moiety         '(C56 H32 N24 O24 Zn8)n'
_symmetry_cell_setting           triclinic
_symmetry_space_group_name_H-M   'P 1'
_symmetry_Int_Tables_number      1
_space_group_name_Hall           'P 1'
loop_
_symmetry_equiv_pos_site_id
_symmetry_equiv_pos_as_xyz
1 x,y,z
_cell_length_a                   19.465(3)
_cell_length_b                   9.3348(13)
_cell_length_c                   11.0748(15)
_cell_angle_alpha                90
_cell_angle_beta                 90.00
_cell_angle_gamma                90
_cell_volume                     2012.31
loop_
_atom_site_label
_atom_site_type_symbol
_atom_site_fract_x
_atom_site_fract_y
_atom_site_fract_z
Zn4 Zn -0.0000 0.35940(11) 0.7500
O10 O 0.51357(18) 0.1196(4) 0.0669(3)
H7 H 0.5439 0.0561 0.0530
N1 N 0.6195(2) 0.0417(5) 0.8641(4)
N2 N 0.5833(2) 0.0304(6) 0.7618(4)
N3 N 0.6209(2) 0.0697(6) 0.6652(4)
C1 C 0.6841(3) 0.0872(6) 0.8346(5)
C2 C 0.6853(3) 0.1061(6) 0.7073(5)
C3 C 0.7456(3) 0.1484(7) 0.6488(5)
H2 H 0.7467 0.1635 0.5658
C6 C 0.7414(3) 0.1098(7) 0.9068(5)
H4 H 0.7399 0.0990 0.9903
Zn4_2 Zn 1.0000 0.35940(11) 0.7500
Zn6 Zn 0.57502(3) 0.05946(8) 0.50530(6)
Zn8 Zn 0.42498(3) 0.05946(8) 0.99470(6)
Zn10 Zn 0.92498(3) 0.44054(8) 0.49470(6)
O5 O 0.8695(2) 0.2518(5) 0.5526(4)
O7 O 0.9220(2) 0.2112(5) 0.7304(4)
O8 O 0.48643(18) 0.1196(4) 0.4331(3)
H5 H 0.4561 0.0561 0.4470
N4 N 0.3805(2) 0.0417(5) 0.6359(4)
N7 N 0.4167(2) 0.0304(6) 0.7382(4)
C11 C 0.8027(3) 0.1667(7) 0.7180(5)
C12 C 0.8006(3) 0.1490(7) 0.8474(5)
H9 H 0.8404 0.1645 0.8919
C14 C 0.8698(3) 0.2129(7) 0.6606(6)
Zn7 Zn 0.57502(3) 0.94054(8) 0.00530(6)
Zn9 Zn 0.07502(3) 0.44054(8) 0.00530(6)
N10 N 0.6209(2) 0.9303(6) 0.1652(4)
Zn1 Zn 0.5000 0.85940(11) 0.7500
Zn2 Zn 0.42498(3) 0.94054(8) 0.49470(6)
O1 O 0.3695(2) 0.7518(5) 0.5526(4)
O2 O 0.4220(2) 0.7112(5) 0.7304(4)
O3 O 0.51357(18) 0.8804(4) 0.5669(3)
H1 H 0.5439 0.9439 0.5530
C4 C 0.3027(3) 0.6667(7) 0.7180(5)
C5 C 0.3006(3) 0.6490(7) 0.8474(5)
H3 H 0.3404 0.6645 0.8919
C7 C 0.3698(3) 0.7129(7) 0.6606(6)
Zn5 Zn 0.07502(3) 0.55946(8) 0.50530(6)
O4 O 0.6305(2) 0.7518(5) 0.9474(4)
O6 O 0.5780(2) 0.7112(5) 0.7696(4)
O9 O 0.48643(18) 0.8804(4) 0.9331(3)
H6 H 0.4561 0.9439 0.9470
N5 N 0.1195(2) 0.5417(5) 0.8641(4)
N6 N 0.0833(2) 0.5304(6) 0.7618(4)
N8 N 0.3791(2) 0.9303(6) 0.3348(4)
N9 N 0.1209(2) 0.5697(6) 0.6652(4)
C8 C 0.1841(3) 0.5872(6) 0.8346(5)
C9 C 0.1853(3) 0.6061(6) 0.7073(5)
C10 C 0.2456(3) 0.6484(7) 0.6488(5)
H8 H 0.2467 0.6635 0.5658
C13 C 0.2414(3) 0.6098(7) 0.9068(5)
H10 H 0.2399 0.5990 0.9903
N3_2 N 0.3791(2) 0.0697(6) 0.8348(4)
C1_2 C 0.3159(3) 0.0872(6) 0.6654(5)
C2_2 C 0.3147(3) 0.1061(6) 0.7927(5)
C3_2 C 0.2544(3) 0.1484(7) 0.8512(5)
H2_2 H 0.2533 0.1635 0.9342
C6_2 C 0.2586(3) 0.1098(7) 0.5932(5)
H4_2 H 0.2601 0.0990 0.5097
O5_2 O 0.1305(2) 0.2518(5) 0.9474(4)
O7_2 O 0.0780(2) 0.2112(5) 0.7696(4)
C11_2 C 0.1973(3) 0.1667(7) 0.7820(5)
C12_2 C 0.1994(3) 0.1490(7) 0.6526(5)
H9_2 H 0.1596 0.1645 0.6081
C14_2 C 0.1302(3) 0.2129(7) 0.8394(6)
C4_2 C 0.6973(3) 0.6667(7) 0.7820(5)
C5_2 C 0.6994(3) 0.6490(7) 0.6526(5)
H3_2 H 0.6596 0.6645 0.6081
C7_2 C 0.6302(3) 0.7129(7) 0.8394(6)
Zn5_2 Zn 0.92498(3) 0.55946(8) 0.99470(6)
N5_2 N 0.8805(2) 0.5417(5) 0.6359(4)
N6_2 N 0.9167(2) 0.5304(6) 0.7382(4)
N9_2 N 0.8791(2) 0.5697(6) 0.8348(4)
C8_2 C 0.8159(3) 0.5872(6) 0.6654(5)
C9_2 C 0.8147(3) 0.6061(6) 0.7927(5)
C10_2 C 0.7544(3) 0.6484(7) 0.8512(5)
H8_2 H 0.7533 0.6635 0.9342
C13_2 C 0.7586(3) 0.6098(7) 0.5932(5)
H10_2 H 0.7601 0.5990 0.5097
O10_2 O 0.01357(18) 0.6196(4) 0.0669(3)
H7_2 H 0.0439 0.5561 0.0530
N10_2 N 0.1209(2) 0.4303(6) 0.1652(4)
O3_2 O 0.01357(18) 0.3804(4) 0.5669(3)
H1_2 H 0.0439 0.4439 0.5530
O8_2 O 0.98643(18) 0.6196(4) 0.4331(3)
O9_2 O 0.98643(18) 0.3804(4) 0.9331(3)
H5_2 H 0.9561 0.5561 0.4470
H6_2 H 0.9561 0.4439 0.9470
N8_2 N 0.8791(2) 0.4303(6) 0.3348(4)
Zn3 Zn 0.0000 0.64060(11) 0.2500
Zn1_2 Zn 0.5000 0.14060(11) 0.2500
O1_2 O 0.6305(2) 0.2482(5) 0.4474(4)
O2_2 O 0.5780(2) 0.2888(5) 0.2696(4)
C4_3 C 0.6973(3) 0.3333(7) 0.2820(5)
C5_3 C 0.6994(3) 0.3510(7) 0.1526(5)
H3_3 H 0.6596 0.3355 0.1081
C7_3 C 0.6302(3) 0.2871(7) 0.3394(6)
Zn3_2 Zn 1.0000 0.64060(11) 0.2500
O4_2 O 0.3695(2) 0.2482(5) 0.0526(4)
O6_2 O 0.4220(2) 0.2888(5) 0.2304(4)
N5_3 N 0.8805(2) 0.4583(5) 0.1359(4)
N6_3 N 0.9167(2) 0.4696(6) 0.2382(4)
C8_3 C 0.8159(3) 0.4128(6) 0.1654(5)
C9_3 C 0.8147(3) 0.3939(6) 0.2927(5)
C10_3 C 0.7544(3) 0.3516(7) 0.3512(5)
H8_3 H 0.7533 0.3365 0.4342
C13_3 C 0.7586(3) 0.3902(7) 0.0932(5)
H10_3 H 0.7601 0.4010 0.0097
N1_2 N 0.3805(2) 0.9583(5) 0.1359(4)
N2_2 N 0.4167(2) 0.9696(6) 0.2382(4)
C1_3 C 0.3159(3) 0.9128(6) 0.1654(5)
C2_3 C 0.3147(3) 0.8939(6) 0.2927(5)
C3_3 C 0.2544(3) 0.8516(7) 0.3512(5)
H2_3 H 0.2533 0.8365 0.4342
C6_3 C 0.2586(3) 0.8902(7) 0.0932(5)
H4_3 H 0.2601 0.9010 0.0097
O5_3 O 0.1305(2) 0.7482(5) 0.4474(4)
O7_3 O 0.0780(2) 0.7888(5) 0.2696(4)
N4_2 N 0.6195(2) 0.9583(5) 0.3641(4)
N7_2 N 0.5833(2) 0.9696(6) 0.2618(4)
C11_3 C 0.1973(3) 0.8333(7) 0.2820(5)
C12_3 C 0.1994(3) 0.8510(7) 0.1526(5)
H9_3 H 0.1596 0.8355 0.1081
C14_3 C 0.1302(3) 0.7871(7) 0.3394(6)
C4_4 C 0.3027(3) 0.3333(7) 0.2180(5)
C5_4 C 0.3006(3) 0.3510(7) 0.3474(5)
H3_4 H 0.3404 0.3355 0.3919
C7_4 C 0.3698(3) 0.2871(7) 0.1606(6)
N5_4 N 0.1195(2) 0.4583(5) 0.3641(4)
N6_4 N 0.0833(2) 0.4696(6) 0.2618(4)
C8_4 C 0.1841(3) 0.4128(6) 0.3346(5)
C9_4 C 0.1853(3) 0.3939(6) 0.2073(5)
C10_4 C 0.2456(3) 0.3516(7) 0.1488(5)
H8_4 H 0.2467 0.3365 0.0658
C13_4 C 0.2414(3) 0.3902(7) 0.4068(5)
H10_4 H 0.2399 0.4010 0.4903
C1_4 C 0.6841(3) 0.9128(6) 0.3346(5)
C2_4 C 0.6853(3) 0.8939(6) 0.2073(5)
C3_4 C 0.7456(3) 0.8516(7) 0.1488(5)
H2_4 H 0.7467 0.8365 0.0658
C6_4 C 0.7414(3) 0.8902(7) 0.4068(5)
H4_4 H 0.7399 0.9010 0.4903
O5_4 O 0.8695(2) 0.7482(5) 0.0526(4)
O7_4 O 0.9220(2) 0.7888(5) 0.2304(4)
C11_4 C 0.8027(3) 0.8333(7) 0.2180(5)
C12_4 C 0.8006(3) 0.8510(7) 0.3474(5)
H9_4 H 0.8404 0.8355 0.3919
C14_4 C 0.8698(3) 0.7871(7) 0.1606(6)
loop_
_geom_bond_atom_site_label_1
_geom_bond_atom_site_label_2
_geom_bond_site_symmetry_1
_geom_bond_site_symmetry_2
H7 O10 1_555 1_555
N1 N2 1_555 1_555
N3 N2 1_555 1_555
C1 N1 1_555 1_555
C2 N3 1_555 1_555
C3 C2 1_555 1_555
H2 C3 1_555 1_555
C6 C1 1_555 1_555
H4 C6 1_555 1_555
Zn4_2 O7 1_555 1_555
Zn10 O5 1_555 1_555
O5 C14 1_555 1_555
O7 C14 1_555 1_555
H5 O8 1_555 1_555
C11 C3 1_555 1_555
C12 C6 1_555 1_555
H9 C12 1_555 1_555
C14 C11 1_555 1_555
N3 Zn6 1_555 1_555
C1 C2 1_555 1_555
Zn6 O8 1_555 1_555
N4 N7 1_555 1_555
C11 C12 1_555 1_555
N10 Zn7 1_555 1_555
Zn1 O2 1_555 1_555
Zn2 O1 1_555 1_555
O1 C7 1_555 1_555
O2 C7 1_555 1_555
O3 Zn1 1_555 1_555
H1 O3 1_555 1_555
C4 C5 1_555 1_555
C5 H3 1_555 1_555
C7 C4 1_555 1_555
Zn4 N6 1_555 1_555
Zn5 N9 1_555 1_555
O6 Zn1 1_555 1_555
O9 Zn1 1_555 1_555
H6 O9 1_555 1_555
N5 N6 1_555 1_555
N6 N9 1_555 1_555
N8 Zn2 1_555 1_555
N9 C9 1_555 1_555
C8 N5 1_555 1_555
C9 C8 1_555 1_555
C10 C4 1_555 1_555
H8 C10 1_555 1_555
C13 C5 1_555 1_555
H10 C13 1_555 1_555
Zn2 O3 1_555 1_555
C8 C13 1_555 1_555
C9 C10 1_555 1_555
N3_2 N7 1_555 1_555
C1_2 N4 1_555 1_555
C2_2 N3_2 1_555 1_555
C3_2 C2_2 1_555 1_555
H2_2 C3_2 1_555 1_555
C6_2 C1_2 1_555 1_555
H4_2 C6_2 1_555 1_555
Zn4 O7_2 1_555 1_555
O5_2 C14_2 1_555 1_555
O7_2 C14_2 1_555 1_555
C11_2 C3_2 1_555 1_555
C12_2 C6_2 1_555 1_555
H9_2 C12_2 1_555 1_555
C14_2 C11_2 1_555 1_555
N3_2 Zn8 1_555 1_555
C1_2 C2_2 1_555 1_555
C11_2 C12_2 1_555 1_555
O4 C7_2 1_555 1_555
O6 C7_2 1_555 1_555
C4_2 C5_2 1_555 1_555
C5_2 H3_2 1_555 1_555
C7_2 C4_2 1_555 1_555
Zn4_2 N6_2 1_555 1_555
Zn5_2 N9_2 1_555 1_555
Zn10 N5_2 1_555 1_555
N5_2 N6_2 1_555 1_555
N6_2 N9_2 1_555 1_555
N9_2 C9_2 1_555 1_555
C8_2 N5_2 1_555 1_555
C9_2 C8_2 1_555 1_555
C10_2 C4_2 1_555 1_555
H8_2 C10_2 1_555 1_555
C13_2 C5_2 1_555 1_555
H10_2 C13_2 1_555 1_555
C8_2 C13_2 1_555 1_555
C9_2 C10_2 1_555 1_555
O10_2 Zn9 1_555 1_555
H7_2 O10_2 1_555 1_555
N10_2 Zn9 1_555 1_555
O3_2 Zn4 1_555 1_555
H1_2 O3_2 1_555 1_555
Zn5 O3_2 1_555 1_555
Zn5_2 O9_2 1_555 1_555
O8_2 Zn10 1_555 1_555
O9_2 Zn4_2 1_555 1_555
H5_2 O8_2 1_555 1_555
H6_2 O9_2 1_555 1_555
N8_2 Zn10 1_555 1_555
Zn1_2 O2_2 1_555 1_555
Zn6 O1_2 1_555 1_555
O1_2 C7_3 1_555 1_555
O2_2 C7_3 1_555 1_555
O8 Zn1_2 1_555 1_555
C4_3 C5_3 1_555 1_555
C5_3 H3_3 1_555 1_555
C7_3 C4_3 1_555 1_555
Zn3_2 N6_3 1_555 1_555
O6_2 Zn1_2 1_555 1_555
O10 Zn1_2 1_555 1_555
N5_3 N6_3 1_555 1_555
N6_3 N8_2 1_555 1_555
N8_2 C9_3 1_555 1_555
C8_3 N5_3 1_555 1_555
C9_3 C8_3 1_555 1_555
C10_3 C4_3 1_555 1_555
H8_3 C10_3 1_555 1_555
C13_3 C5_3 1_555 1_555
H10_3 C13_3 1_555 1_555
C8_3 C13_3 1_555 1_555
C9_3 C10_3 1_555 1_555
N1_2 N2_2 1_555 1_555
N8 N2_2 1_555 1_555
C1_3 N1_2 1_555 1_555
C2_3 N8 1_555 1_555
C3_3 C2_3 1_555 1_555
H2_3 C3_3 1_555 1_555
C6_3 C1_3 1_555 1_555
H4_3 C6_3 1_555 1_555
Zn3 O7_3 1_555 1_555
Zn5 O5_3 1_555 1_555
O5_3 C14_3 1_555 1_555
O7_3 C14_3 1_555 1_555
C11_3 C3_3 1_555 1_555
C12_3 C6_3 1_555 1_555
H9_3 C12_3 1_555 1_555
C14_3 C11_3 1_555 1_555
C1_3 C2_3 1_555 1_555
N4_2 N7_2 1_555 1_555
C11_3 C12_3 1_555 1_555
O4_2 C7_4 1_555 1_555
O6_2 C7_4 1_555 1_555
C4_4 C5_4 1_555 1_555
C5_4 H3_4 1_555 1_555
C7_4 C4_4 1_555 1_555
Zn3 N6_4 1_555 1_555
Zn5 N5_4 1_555 1_555
N5_4 N6_4 1_555 1_555
N6_4 N10_2 1_555 1_555
N10_2 C9_4 1_555 1_555
C8_4 N5_4 1_555 1_555
C9_4 C8_4 1_555 1_555
C10_4 C4_4 1_555 1_555
H8_4 C10_4 1_555 1_555
C13_4 C5_4 1_555 1_555
H10_4 C13_4 1_555 1_555
C8_4 C13_4 1_555 1_555
C9_4 C10_4 1_555 1_555
N10 N7_2 1_555 1_555
C1_4 N4_2 1_555 1_555
C2_4 N10 1_555 1_555
C3_4 C2_4 1_555 1_555
H2_4 C3_4 1_555 1_555
C6_4 C1_4 1_555 1_555
H4_4 C6_4 1_555 1_555
Zn3_2 O7_4 1_555 1_555
O5_4 C14_4 1_555 1_555
O7_4 C14_4 1_555 1_555
C11_4 C3_4 1_555 1_555
C12_4 C6_4 1_555 1_555
H9_4 C12_4 1_555 1_555
C14_4 C11_4 1_555 1_555
C1_4 C2_4 1_555 1_555
C11_4 C12_4 1_555 1_555
O10_2 Zn3 1_555 1_555
O8_2 Zn3_2 1_555 1_555

#END
