
###############################################################################
#
# This file contains modified crystal structure data generated from the
# MOF subset of the Cambridge Structural Database (CSD) v543 
# hosted by the Cambridge Crystallographic Data Centre (CCDC).
#
# This work is licensed under the Creative Commons
# Attribution-NonCommercial-ShareAlike 4.0 International License.
# To view a copy of this license, visit
# http://creativecommons.org/licenses/by-nc-sa/4.0/
# or send a letter to
# Creative Commons, PO Box 1866, Mountain View, CA 94042, USA.
#
# CIF created using the CSD Python API on 29 September 2022
# The structure has been converted into the P1 space group
# The structure has a 3D framework
# The original CSD entry LETRIN is in the monoclinic crystal system
# The framework has been calculated to contain at least 10.0% void space
# The void calculation uses a probe of radius 1.32A, grid spacing 0.4
#
###############################################################################

data_LETRIN
_chemical_formula_moiety         '(C56 H32 N24 O24 Zn10)n'
_symmetry_cell_setting           triclinic
_symmetry_space_group_name_H-M   'P 1'
_symmetry_Int_Tables_number      1
_space_group_name_Hall           'P 1'
loop_
_symmetry_equiv_pos_site_id
_symmetry_equiv_pos_as_xyz
1 x,y,z
_cell_length_a                   17.9856(4)
_cell_length_b                   12.7314(4)
_cell_length_c                   11.0892(3)
_cell_angle_alpha                90
_cell_angle_beta                 93.206(2)
_cell_angle_gamma                90
_cell_volume                     2535.25
loop_
_atom_site_label
_atom_site_type_symbol
_atom_site_fract_x
_atom_site_fract_y
_atom_site_fract_z
Zn1 Zn 0.080187(19) 0.05111(3) 0.00083(3)
Zn2 Zn 0.0000 0.10390(4) 0.2500
O1 O 0.08251(13) 0.2133(2) 0.2381(2)
O2 O 0.14085(13) 0.1859(2) 0.0671(2)
O3 O 0.01664(12) 0.08715(18) 0.4339(2)
H1 H 0.0480 0.0385 0.4499
N1 N 0.37476(15) 0.4677(2) 0.3553(3)
N2 N 0.40979(14) 0.4812(2) 0.2548(3)
N3 N 0.37354(15) 0.4351(2) 0.1613(3)
C1 C 0.31333(18) 0.4098(3) 0.3279(3)
C2 C 0.31209(19) 0.3880(3) 0.2046(3)
C3 C 0.25378(18) 0.3282(3) 0.1483(3)
H2 H 0.2518 0.3143 0.0659
C4 C 0.19978(18) 0.2915(3) 0.2215(3)
C5 C 0.2021(2) 0.3148(3) 0.3455(4)
H3 H 0.1642 0.2897 0.3915
C6 C 0.2580(2) 0.3733(3) 0.4014(4)
H4 H 0.2592 0.3878 0.4836
C7 C 0.13577(19) 0.2244(3) 0.1700(3)
Zn6 Zn 0.419813(19) 0.55111(3) 0.49917(3)
Zn9 Zn 0.5000 0.60390(4) 0.2500
Zn7 Zn 0.419813(19) 0.44889(3) 0.99917(3)
N9 N 0.12646(15) 0.0649(2) 0.8387(3)
Zn5 Zn 0.080187(19) 0.94889(3) 0.50083(3)
N5 N 0.12524(15) 0.9677(2) 0.1447(3)
N7 N 0.09021(14) 0.9812(2) 0.2452(3)
O9 O 0.01664(12) 0.91285(18) 0.9339(2)
H6 H 0.0480 0.9615 0.9499
Zn2_2 Zn 1.0000 0.10390(4) 0.2500
Zn4 Zn 0.919813(19) 0.05111(3) 0.49917(3)
O5 O 0.91749(13) 0.2133(2) 0.2619(2)
O7 O 0.85915(13) 0.1859(2) 0.4329(2)
O8 O 0.98336(12) 0.08715(18) 0.0661(2)
H5 H 0.9520 0.0385 0.0501
N10 N 0.87354(15) 0.0649(2) 0.6613(3)
Zn3 Zn 0.580187(19) 0.55111(3) 0.00083(3)
O4 O 0.58251(13) 0.7133(2) 0.2381(2)
O6 O 0.64085(13) 0.6859(2) 0.0671(2)
O10 O 0.98336(12) 0.91285(18) 0.5661(2)
H7 H 0.9520 0.9615 0.5501
N4 N 0.87476(15) 0.9677(2) 0.3553(3)
N6 N 0.90979(14) 0.9812(2) 0.2548(3)
N8 N 0.87354(15) 0.9351(2) 0.1613(3)
C8 C 0.81333(18) 0.9098(3) 0.3279(3)
C9 C 0.81209(19) 0.8880(3) 0.2046(3)
C10 C 0.75378(18) 0.8282(3) 0.1483(3)
H8 H 0.7518 0.8143 0.0659
C11 C 0.69978(18) 0.7915(3) 0.2215(3)
C12 C 0.7021(2) 0.8148(3) 0.3455(4)
H9 H 0.6642 0.7897 0.3915
C13 C 0.7580(2) 0.8733(3) 0.4014(4)
H10 H 0.7592 0.8878 0.4836
C14 C 0.63577(19) 0.7244(3) 0.1700(3)
Zn8 Zn 0.919813(19) 0.94889(3) 0.99917(3)
O4_2 O 0.41749(13) 0.7133(2) 0.2619(2)
O6_2 O 0.35915(13) 0.6859(2) 0.4329(2)
N8_2 N 0.12646(15) 0.9351(2) 0.3387(3)
C8_2 C 0.18667(18) 0.9098(3) 0.1721(3)
C9_2 C 0.18791(19) 0.8880(3) 0.2954(3)
C10_2 C 0.24622(18) 0.8282(3) 0.3517(3)
H8_2 H 0.2482 0.8143 0.4341
C11_2 C 0.30022(18) 0.7915(3) 0.2785(3)
C12_2 C 0.2979(2) 0.8148(3) 0.1545(4)
H9_2 H 0.3358 0.7897 0.1085
C13_2 C 0.2420(2) 0.8733(3) 0.0986(4)
H10_2 H 0.2408 0.8878 0.0164
C14_2 C 0.36423(19) 0.7244(3) 0.3300(3)
N1_2 N 0.62524(15) 0.4677(2) 0.1447(3)
N2_2 N 0.59021(14) 0.4812(2) 0.2452(3)
N3_2 N 0.62646(15) 0.4351(2) 0.3387(3)
C1_2 C 0.68667(18) 0.4098(3) 0.1721(3)
C2_2 C 0.68791(19) 0.3880(3) 0.2954(3)
C3_2 C 0.74622(18) 0.3282(3) 0.3517(3)
H2_2 H 0.7482 0.3143 0.4341
C4_2 C 0.80022(18) 0.2915(3) 0.2785(3)
C5_2 C 0.7979(2) 0.3148(3) 0.1545(4)
H3_2 H 0.8358 0.2897 0.1085
C6_2 C 0.7420(2) 0.3733(3) 0.0986(4)
H4_2 H 0.7408 0.3878 0.0164
C7_2 C 0.86423(19) 0.2244(3) 0.3300(3)
Zn7_2 Zn 0.580187(19) 0.44889(3) 0.50083(3)
O3_2 O 0.51664(12) 0.58715(18) 0.4339(2)
H1_2 H 0.5480 0.5385 0.4499
O8_2 O 0.48336(12) 0.58715(18) 0.0661(2)
O10_2 O 0.48336(12) 0.41285(18) 0.5661(2)
H5_2 H 0.4520 0.5385 0.0501
H7_2 H 0.4520 0.4615 0.5501
N10_2 N 0.37354(15) 0.5649(2) 0.6613(3)
O9_2 O 0.51664(12) 0.41285(18) 0.9339(2)
H6_2 H 0.5480 0.4615 0.9499
N9_2 N 0.62646(15) 0.5649(2) 0.8387(3)
Zn10 Zn 0.5000 0.39610(4) 0.7500
O4_3 O 0.41749(13) 0.2867(2) 0.7619(2)
O6_3 O 0.35915(13) 0.3141(2) 0.9329(2)
N4_2 N 0.12524(15) 0.0323(2) 0.6447(3)
N6_2 N 0.09021(14) 0.0188(2) 0.7452(3)
C8_3 C 0.18667(18) 0.0902(3) 0.6721(3)
C9_3 C 0.18791(19) 0.1120(3) 0.7954(3)
C10_3 C 0.24622(18) 0.1718(3) 0.8517(3)
H8_3 H 0.2482 0.1857 0.9341
C11_3 C 0.30022(18) 0.2085(3) 0.7785(3)
C12_3 C 0.2979(2) 0.1852(3) 0.6545(4)
H9_3 H 0.3358 0.2103 0.6085
C13_3 C 0.2420(2) 0.1267(3) 0.5986(4)
H10_3 H 0.2408 0.1122 0.5164
C14_3 C 0.36423(19) 0.2756(3) 0.8300(3)
Zn2_3 Zn 0.0000 0.89610(4) 0.7500
O5_2 O 0.08251(13) 0.7867(2) 0.7381(2)
O7_2 O 0.14085(13) 0.8141(2) 0.5671(2)
N5_2 N 0.87476(15) 0.0323(2) 0.8553(3)
N7_2 N 0.90979(14) 0.0188(2) 0.7548(3)
Zn2_4 Zn 1.0000 0.89610(4) 0.7500
O1_2 O 0.91749(13) 0.7867(2) 0.7619(2)
O2_2 O 0.85915(13) 0.8141(2) 0.9329(2)
N1_3 N 0.62524(15) 0.5323(2) 0.6447(3)
N2_3 N 0.59021(14) 0.5188(2) 0.7452(3)
C1_3 C 0.68667(18) 0.5902(3) 0.6721(3)
C2_3 C 0.68791(19) 0.6120(3) 0.7954(3)
C3_3 C 0.74622(18) 0.6718(3) 0.8517(3)
H2_3 H 0.7482 0.6857 0.9341
C4_3 C 0.80022(18) 0.7085(3) 0.7785(3)
C5_3 C 0.7979(2) 0.6852(3) 0.6545(4)
H3_3 H 0.8358 0.7103 0.6085
C6_3 C 0.7420(2) 0.6267(3) 0.5986(4)
H4_3 H 0.7408 0.6122 0.5164
C7_3 C 0.86423(19) 0.7756(3) 0.8300(3)
N1_4 N 0.37476(15) 0.5323(2) 0.8553(3)
N2_4 N 0.40979(14) 0.5188(2) 0.7548(3)
C1_4 C 0.31333(18) 0.5902(3) 0.8279(3)
C2_4 C 0.31209(19) 0.6120(3) 0.7046(3)
C3_4 C 0.25378(18) 0.6718(3) 0.6483(3)
H2_4 H 0.2518 0.6857 0.5659
C4_4 C 0.19978(18) 0.7085(3) 0.7215(3)
C5_4 C 0.2021(2) 0.6852(3) 0.8455(4)
H3_4 H 0.1642 0.7103 0.8915
C6_4 C 0.2580(2) 0.6267(3) 0.9014(4)
H4_4 H 0.2592 0.6122 0.9836
C7_4 C 0.13577(19) 0.7756(3) 0.6700(3)
O4_4 O 0.58251(13) 0.2867(2) 0.7381(2)
O6_4 O 0.64085(13) 0.3141(2) 0.5671(2)
C8_4 C 0.81333(18) 0.0902(3) 0.8279(3)
C9_4 C 0.81209(19) 0.1120(3) 0.7046(3)
C10_4 C 0.75378(18) 0.1718(3) 0.6483(3)
H8_4 H 0.7518 0.1857 0.5659
C11_4 C 0.69978(18) 0.2085(3) 0.7215(3)
C12_4 C 0.7021(2) 0.1852(3) 0.8455(4)
H9_4 H 0.6642 0.2103 0.8915
C13_4 C 0.7580(2) 0.1267(3) 0.9014(4)
H10_4 H 0.7592 0.1122 0.9836
C14_4 C 0.63577(19) 0.2756(3) 0.6700(3)
loop_
_geom_bond_atom_site_label_1
_geom_bond_atom_site_label_2
_geom_bond_site_symmetry_1
_geom_bond_site_symmetry_2
Zn1 O2 1_555 1_555
Zn2 O1 1_555 1_555
O1 C7 1_555 1_555
O2 C7 1_555 1_555
O3 Zn2 1_555 1_555
H1 O3 1_555 1_555
N1 N2 1_555 1_555
N2 N3 1_555 1_555
N3 C2 1_555 1_555
C1 N1 1_555 1_555
C2 C1 1_555 1_555
C3 C2 1_555 1_555
H2 C3 1_555 1_555
C4 C3 1_555 1_555
C5 C4 1_555 1_555
H3 C5 1_555 1_555
C6 C1 1_555 1_555
H4 C6 1_555 1_555
C7 C4 1_555 1_555
Zn6 N1 1_555 1_555
Zn9 N2 1_555 1_555
C5 C6 1_555 1_555
N5 N7 1_555 1_555
H6 O9 1_555 1_555
O5 Zn2_2 1_555 1_555
O7 Zn4 1_555 1_555
H5 O8 1_555 1_555
N10 Zn4 1_555 1_555
Zn2_2 O8 1_555 1_555
Zn3 O6 1_555 1_555
Zn9 O4 1_555 1_555
O4 C14 1_555 1_555
O6 C14 1_555 1_555
H7 O10 1_555 1_555
C8 N4 1_555 1_555
C9 N8 1_555 1_555
C10 C9 1_555 1_555
H8 C10 1_555 1_555
C11 C10 1_555 1_555
C12 C11 1_555 1_555
H9 C12 1_555 1_555
C13 C8 1_555 1_555
H10 C13 1_555 1_555
C14 C11 1_555 1_555
N4 N6 1_555 1_555
N6 N8 1_555 1_555
C8 C9 1_555 1_555
C12 C13 1_555 1_555
Zn6 O6_2 1_555 1_555
Zn9 O4_2 1_555 1_555
O4_2 C14_2 1_555 1_555
O6_2 C14_2 1_555 1_555
N8_2 Zn5 1_555 1_555
C8_2 N5 1_555 1_555
C9_2 N8_2 1_555 1_555
C10_2 C9_2 1_555 1_555
H8_2 C10_2 1_555 1_555
C11_2 C10_2 1_555 1_555
C12_2 C11_2 1_555 1_555
H9_2 C12_2 1_555 1_555
C13_2 C8_2 1_555 1_555
H10_2 C13_2 1_555 1_555
C14_2 C11_2 1_555 1_555
N7 N8_2 1_555 1_555
C8_2 C9_2 1_555 1_555
C12_2 C13_2 1_555 1_555
O5 C7_2 1_555 1_555
O7 C7_2 1_555 1_555
N1_2 N2_2 1_555 1_555
N2_2 N3_2 1_555 1_555
N3_2 C2_2 1_555 1_555
C1_2 N1_2 1_555 1_555
C2_2 C1_2 1_555 1_555
C3_2 C2_2 1_555 1_555
H2_2 C3_2 1_555 1_555
C4_2 C3_2 1_555 1_555
C5_2 C4_2 1_555 1_555
H3_2 C5_2 1_555 1_555
C6_2 C1_2 1_555 1_555
H4_2 C6_2 1_555 1_555
C7_2 C4_2 1_555 1_555
Zn3 N1_2 1_555 1_555
Zn7_2 N3_2 1_555 1_555
Zn9 N2_2 1_555 1_555
C5_2 C6_2 1_555 1_555
O3_2 Zn9 1_555 1_555
H1_2 O3_2 1_555 1_555
Zn6 O3_2 1_555 1_555
Zn7_2 O3_2 1_555 1_555
O8_2 Zn3 1_555 1_555
O10_2 Zn6 1_555 1_555
H5_2 O8_2 1_555 1_555
H7_2 O10_2 1_555 1_555
N10_2 Zn6 1_555 1_555
Zn9 O8_2 1_555 1_555
Zn7_2 O10_2 1_555 1_555
H6_2 O9_2 1_555 1_555
Zn7 O9_2 1_555 1_555
Zn7 O6_3 1_555 1_555
Zn10 O4_3 1_555 1_555
O4_3 C14_3 1_555 1_555
O6_3 C14_3 1_555 1_555
C8_3 N4_2 1_555 1_555
C9_3 N9 1_555 1_555
C10_3 C9_3 1_555 1_555
H8_3 C10_3 1_555 1_555
C11_3 C10_3 1_555 1_555
C12_3 C11_3 1_555 1_555
H9_3 C12_3 1_555 1_555
C13_3 C8_3 1_555 1_555
H10_3 C13_3 1_555 1_555
C14_3 C11_3 1_555 1_555
N4_2 N6_2 1_555 1_555
N6_2 N9 1_555 1_555
C8_3 C9_3 1_555 1_555
C12_3 C13_3 1_555 1_555
O5_2 Zn2_3 1_555 1_555
O7_2 Zn5 1_555 1_555
Zn2_3 O9 1_555 1_555
N5_2 N7_2 1_555 1_555
Zn8 O2_2 1_555 1_555
Zn2_4 O1_2 1_555 1_555
O1_2 C7_3 1_555 1_555
O2_2 C7_3 1_555 1_555
O10 Zn2_4 1_555 1_555
N1_3 N2_3 1_555 1_555
N2_3 N9_2 1_555 1_555
N9_2 C2_3 1_555 1_555
C1_3 N1_3 1_555 1_555
C2_3 C1_3 1_555 1_555
C3_3 C2_3 1_555 1_555
H2_3 C3_3 1_555 1_555
C4_3 C3_3 1_555 1_555
C5_3 C4_3 1_555 1_555
H3_3 C5_3 1_555 1_555
C6_3 C1_3 1_555 1_555
H4_3 C6_3 1_555 1_555
C7_3 C4_3 1_555 1_555
Zn7_2 N1_3 1_555 1_555
Zn10 N2_3 1_555 1_555
C5_3 C6_3 1_555 1_555
O5_2 C7_4 1_555 1_555
O7_2 C7_4 1_555 1_555
N1_4 N2_4 1_555 1_555
N2_4 N10_2 1_555 1_555
N10_2 C2_4 1_555 1_555
C1_4 N1_4 1_555 1_555
C2_4 C1_4 1_555 1_555
C3_4 C2_4 1_555 1_555
H2_4 C3_4 1_555 1_555
C4_4 C3_4 1_555 1_555
C5_4 C4_4 1_555 1_555
H3_4 C5_4 1_555 1_555
C6_4 C1_4 1_555 1_555
H4_4 C6_4 1_555 1_555
C7_4 C4_4 1_555 1_555
Zn7 N1_4 1_555 1_555
Zn10 N2_4 1_555 1_555
C5_4 C6_4 1_555 1_555
Zn7_2 O6_4 1_555 1_555
Zn10 O4_4 1_555 1_555
O4_4 C14_4 1_555 1_555
O6_4 C14_4 1_555 1_555
C8_4 N5_2 1_555 1_555
C9_4 N10 1_555 1_555
C10_4 C9_4 1_555 1_555
H8_4 C10_4 1_555 1_555
C11_4 C10_4 1_555 1_555
C12_4 C11_4 1_555 1_555
H9_4 C12_4 1_555 1_555
C13_4 C8_4 1_555 1_555
H10_4 C13_4 1_555 1_555
C14_4 C11_4 1_555 1_555
N7_2 N10 1_555 1_555
C8_4 C9_4 1_555 1_555
C12_4 C13_4 1_555 1_555
O10_2 Zn10 1_555 1_555
Zn10 O9_2 1_555 1_555

#END
