
###############################################################################
#
# This file contains modified crystal structure data generated from the
# MOF subset of the Cambridge Structural Database (CSD) v543 
# hosted by the Cambridge Crystallographic Data Centre (CCDC).
#
# This work is licensed under the Creative Commons
# Attribution-NonCommercial-ShareAlike 4.0 International License.
# To view a copy of this license, visit
# http://creativecommons.org/licenses/by-nc-sa/4.0/
# or send a letter to
# Creative Commons, PO Box 1866, Mountain View, CA 94042, USA.
#
# CIF created using the CSD Python API on 29 September 2022
# The structure has been converted into the P1 space group
# The structure has a 3D framework
# The original CSD entry LEVFAW is in the orthorhombic crystal system
# The framework has been calculated to contain at least 10.0% void space
# The void calculation uses a probe of radius 1.32A, grid spacing 0.4
# H atom positions have been added when not included in the experimental data
# Generated hydrogen atom positions removed from atoms on special positions
#
###############################################################################

data_LEVFAW
_chemical_formula_moiety         '(C456 H312 Cu28 N34 O80)n'
_symmetry_cell_setting           triclinic
_symmetry_space_group_name_H-M   'P 1'
_symmetry_Int_Tables_number      1
_space_group_name_Hall           'P 1'
loop_
_symmetry_equiv_pos_site_id
_symmetry_equiv_pos_as_xyz
1 x,y,z
_cell_length_a                   26.294(4)
_cell_length_b                   34.046(6)
_cell_length_c                   34.098(6)
_cell_angle_alpha                90
_cell_angle_beta                 90
_cell_angle_gamma                90
_cell_volume                     30524.7
loop_
_atom_site_label
_atom_site_type_symbol
_atom_site_fract_x
_atom_site_fract_y
_atom_site_fract_z
Cu3 Cu -0.0000 0.5000 -0.0000
N7 N 0.0773(5) 0.5000 -0.0000
N8 N -0.0000 0.5000 0.0603(3)
O30 O 0.1967(3) 0.70677(18) 0.22387(15)
O31 O 0.2804(3) 0.68999(19) 0.22963(18)
C176 C 0.1620(5) 0.5000 0.01959(13)
H92 H 0.1910 0.5000 0.0362
C177 C 0.2483(4) 0.5824(3) 0.1795(3)
H93 H 0.2748 0.5639 0.1754
C178 C 0.2375(5) 0.6837(3) 0.2217(2)
C179 C 0.1989(4) 0.5738(3) 0.1663(2)
C180 C 0.2019(4) 0.5000 0.1631(3)
H94 H 0.2275 0.5000 0.1827
C181 C 0.2589(4) 0.6180(3) 0.1988(2)
H95 H 0.2916 0.6231 0.2094
C182 C 0.1610(4) 0.6021(4) 0.1700(3)
H96 H 0.1280 0.5966 0.1601
C183 C 0.1699(4) 0.6385(4) 0.1878(3)
H97 H 0.1435 0.6574 0.1901
C184 C 0.0433(4) 0.5000 0.0821(3)
C185 C 0.0944(5) 0.5000 0.0709(3)
C186 C 0.1487(3) 0.5370(2) 0.1172(3)
H98 H 0.1365 0.5611 0.1066
C187 C 0.1101(5) 0.5000 0.0318(3)
C188 C 0.1829(3) 0.5351(2) 0.1486(3)
C189 C 0.1339(5) 0.5000 0.1026(3)
C190 C 0.2190(5) 0.6464(3) 0.2020(3)
C191 C 0.02559(17) 0.5000 0.1221(3)
H99 H 0.0466 0.5000 0.1448
O32 O 0.1967(3) 0.29323(18) 0.22387(15)
O33 O 0.2804(3) 0.31001(19) 0.22963(18)
C192 C 0.2483(4) 0.4176(3) 0.1795(3)
H100 H 0.2748 0.4361 0.1754
C193 C 0.2375(5) 0.3163(3) 0.2217(2)
C194 C 0.1989(4) 0.4262(3) 0.1663(2)
C195 C 0.2589(4) 0.3820(3) 0.1988(2)
H101 H 0.2916 0.3769 0.2094
C196 C 0.1610(4) 0.3979(4) 0.1700(3)
H102 H 0.1280 0.4034 0.1601
C197 C 0.1699(4) 0.3615(4) 0.1878(3)
H103 H 0.1435 0.3426 0.1901
C198 C 0.1487(3) 0.4630(2) 0.1172(3)
H104 H 0.1365 0.4389 0.1066
C199 C 0.1829(3) 0.4649(2) 0.1486(3)
C200 C 0.2190(5) 0.3536(3) 0.2020(3)
Cu11 Cu 0.29884(4) 0.73993(2) 0.25315(3)
Cu14 Cu 0.20116(4) 0.23993(2) 0.24685(3)
Cu19 Cu 0.29884(4) 0.26007(2) 0.25315(3)
Cu24 Cu 0.20116(4) 0.76007(2) 0.24685(3)
Cu1 Cu -0.0000 0.5000 0.5000
Cu3_2 Cu -0.0000 0.5000 1.0000
N2 N -0.0000 0.5613(3) 0.5000
N3 N -0.0000 0.5000 0.9397(3)
N5 N 0.0762(6) 0.5000 0.5000
C33 C 0.1093(4) 0.5314(3) 0.5000
O6 O 0.2788(3) 0.71568(18) 0.3049(2)
O7 O 0.1947(3) 0.73473(19) 0.2990(2)
C34 C 0.0927(5) 0.5702(4) 0.5000
C35 C 0.1713(7) 0.6930(4) 0.3649(5)
H17 H 0.1443 0.6988 0.3474
C36 C 0.1500(3) 0.6165(3) 0.4644(2)
H18 H 0.1411 0.6041 0.4404
C37 C 0.1981(8) 0.6673(3) 0.4265(3)
C38 C 0.0424(5) 0.5841(3) 0.5000
C39 C 0.1302(4) 0.6032(3) 0.5000
C40 C 0.1837(3) 0.6489(3) 0.4649(3)
C41 C 0.2045(4) 0.6635(3) 0.5000
H19 H 0.2312 0.6823 0.5000
C42 C 0.2480(6) 0.6779(3) 0.4174(4)
H20 H 0.2743 0.6744 0.4362
C43 C 0.1610(5) 0.51974(13) 0.5000
H21 H 0.1899 0.5365 0.5000
C44 C 0.2599(5) 0.6941(3) 0.3798(6)
H22 H 0.2942 0.6998 0.3732
C45 C 0.2207(8) 0.7014(3) 0.3526(4)
C46 C 0.02515(17) 0.6244(4) 0.5000
H23 H 0.0463 0.6470 0.5000
C47 C 0.2346(5) 0.7199(3) 0.3138(4)
C48 C 0.1590(5) 0.6767(3) 0.4013(6)
H24 H 0.1245 0.6722 0.4085
N6 N -0.0000 0.4387(3) 0.5000
O14 O 0.2788(3) 0.71568(18) 0.6951(2)
O15 O 0.1947(3) 0.73473(19) 0.7010(2)
C83 C 0.1713(7) 0.6930(4) 0.6351(5)
H43 H 0.1443 0.6988 0.6526
C84 C 0.1500(3) 0.6165(3) 0.5356(2)
H44 H 0.1411 0.6041 0.5596
C85 C 0.1981(8) 0.6673(3) 0.5735(3)
C86 C 0.1837(3) 0.6489(3) 0.5351(3)
C87 C 0.2480(6) 0.6779(3) 0.5826(4)
H45 H 0.2743 0.6744 0.5638
C88 C 0.2599(5) 0.6941(3) 0.6202(6)
H46 H 0.2942 0.6998 0.6268
C89 C 0.2207(8) 0.7014(3) 0.6474(4)
C90 C 0.2346(5) 0.7199(3) 0.6862(4)
C91 C 0.1590(5) 0.6767(3) 0.5987(6)
H47 H 0.1245 0.6722 0.5915
C92 C 0.1093(4) 0.4686(3) 0.5000
O16 O 0.2788(3) 0.28432(18) 0.6951(2)
O17 O 0.1947(3) 0.26527(19) 0.7010(2)
C93 C 0.0927(5) 0.4298(4) 0.5000
C94 C 0.1713(7) 0.3070(4) 0.6351(5)
H48 H 0.1443 0.3012 0.6526
C95 C 0.1500(3) 0.3835(3) 0.5356(2)
H49 H 0.1411 0.3959 0.5596
C96 C 0.1981(8) 0.3327(3) 0.5735(3)
C97 C 0.0424(5) 0.4159(3) 0.5000
C98 C 0.1302(4) 0.3968(3) 0.5000
C99 C 0.1837(3) 0.3511(3) 0.5351(3)
C100 C 0.2045(4) 0.3365(3) 0.5000
H50 H 0.2312 0.3177 0.5000
C101 C 0.2480(6) 0.3221(3) 0.5826(4)
H51 H 0.2743 0.3256 0.5638
C102 C 0.1610(5) 0.48026(13) 0.5000
H52 H 0.1899 0.4635 0.5000
C103 C 0.2599(5) 0.3059(3) 0.6202(6)
H53 H 0.2942 0.3002 0.6268
C104 C 0.2207(8) 0.2986(3) 0.6474(4)
C105 C 0.02515(17) 0.3756(4) 0.5000
H54 H 0.0463 0.3530 0.5000
C106 C 0.2346(5) 0.2801(3) 0.6862(4)
C107 C 0.1590(5) 0.3233(3) 0.5987(6)
H55 H 0.1245 0.3278 0.5915
O18 O 0.2788(3) 0.28432(18) 0.3049(2)
O19 O 0.1947(3) 0.26527(19) 0.2990(2)
C108 C 0.1713(7) 0.3070(4) 0.3649(5)
H56 H 0.1443 0.3012 0.3474
C109 C 0.1500(3) 0.3835(3) 0.4644(2)
H57 H 0.1411 0.3959 0.4404
C110 C 0.1981(8) 0.3327(3) 0.4265(3)
C111 C 0.1837(3) 0.3511(3) 0.4649(3)
C112 C 0.2480(6) 0.3221(3) 0.4174(4)
H58 H 0.2743 0.3256 0.4362
C113 C 0.2599(5) 0.3059(3) 0.3798(6)
H59 H 0.2942 0.3002 0.3732
C114 C 0.2207(8) 0.2986(3) 0.3526(4)
C115 C 0.2346(5) 0.2801(3) 0.3138(4)
C116 C 0.1590(5) 0.3233(3) 0.4013(6)
H60 H 0.1245 0.3278 0.4085
O20 O 0.1967(3) 0.29323(18) 0.77613(15)
O21 O 0.2804(3) 0.31001(19) 0.77037(18)
C117 C 0.1620(5) 0.5000 0.98041(13)
H61 H 0.1910 0.5000 0.9638
C118 C 0.2483(4) 0.4176(3) 0.8205(3)
H62 H 0.2748 0.4361 0.8246
C119 C 0.2375(5) 0.3163(3) 0.7783(2)
C120 C 0.1989(4) 0.4262(3) 0.8337(2)
C121 C 0.2019(4) 0.5000 0.8369(3)
H63 H 0.2275 0.5000 0.8173
C122 C 0.2589(4) 0.3820(3) 0.8012(2)
H64 H 0.2916 0.3769 0.7906
C123 C 0.1610(4) 0.3979(4) 0.8300(3)
H65 H 0.1280 0.4034 0.8399
C124 C 0.1699(4) 0.3615(4) 0.8122(3)
H66 H 0.1435 0.3426 0.8099
C125 C 0.0433(4) 0.5000 0.9179(3)
C126 C 0.0944(5) 0.5000 0.9291(3)
C127 C 0.1487(3) 0.4630(2) 0.8828(3)
H67 H 0.1365 0.4389 0.8934
C128 C 0.1101(5) 0.5000 0.9682(3)
C129 C 0.1829(3) 0.4649(2) 0.8514(3)
C130 C 0.1339(5) 0.5000 0.8974(3)
N7_2 N 0.0773(5) 0.5000 1.0000
C131 C 0.2190(5) 0.3536(3) 0.7980(3)
C132 C 0.02559(17) 0.5000 0.8779(3)
H68 H 0.0466 0.5000 0.8552
O28 O 0.1967(3) 0.70677(18) 0.77613(15)
O29 O 0.2804(3) 0.68999(19) 0.77037(18)
C167 C 0.2483(4) 0.5824(3) 0.8205(3)
H87 H 0.2748 0.5639 0.8246
C168 C 0.2375(5) 0.6837(3) 0.7783(2)
C169 C 0.1989(4) 0.5738(3) 0.8337(2)
C170 C 0.2589(4) 0.6180(3) 0.8012(2)
H88 H 0.2916 0.6231 0.7906
C171 C 0.1610(4) 0.6021(4) 0.8300(3)
H89 H 0.1280 0.5966 0.8399
C172 C 0.1699(4) 0.6385(4) 0.8122(3)
H90 H 0.1435 0.6574 0.8099
C173 C 0.1487(3) 0.5370(2) 0.8828(3)
H91 H 0.1365 0.5611 0.8934
C174 C 0.1829(3) 0.5351(2) 0.8514(3)
C175 C 0.2190(5) 0.6464(3) 0.7980(3)
Cu4 Cu 0.29884(4) 0.26007(2) 0.74685(3)
O34 O 0.3782(2) 0.27450(16) 0.74133(14)
O35 O 0.3782(2) 0.72550(16) 0.25867(14)
O37 O 0.3782(2) 0.27450(16) 0.25867(14)
Cu10 Cu 0.29884(4) 0.73993(2) 0.74685(3)
O40 O 0.3782(2) 0.72550(16) 0.74133(14)
Cu18 Cu 0.20116(4) 0.76007(2) 0.75315(3)
Cu22 Cu 0.20116(4) 0.23993(2) 0.75315(3)
O41 O 0.3033(3) 0.20677(18) 0.27613(15)
O44 O 0.3033(3) 0.79323(18) 0.72387(15)
O46 O 0.3033(3) 0.20677(18) 0.72387(15)
O47 O 0.3033(3) 0.79323(18) 0.27613(15)
O53 O 0.3053(3) 0.23473(19) 0.2010(2)
O56 O 0.3053(3) 0.76527(19) 0.7990(2)
O58 O 0.3053(3) 0.23473(19) 0.7990(2)
O59 O 0.3053(3) 0.76527(19) 0.2010(2)
Cu3_3 Cu 1.0000 0.5000 -0.0000
N4 N 0.9227(5) 0.5000 -0.0000
O22 O 0.8033(3) 0.29323(18) 0.22387(15)
O23 O 0.7196(3) 0.31001(19) 0.22963(18)
C133 C 0.8380(5) 0.5000 0.01959(13)
H69 H 0.8090 0.5000 0.0362
C134 C 0.7517(4) 0.4176(3) 0.1795(3)
H70 H 0.7252 0.4361 0.1754
C135 C 0.7625(5) 0.3163(3) 0.2217(2)
C136 C 0.8011(4) 0.4262(3) 0.1663(2)
C137 C 0.7981(4) 0.5000 0.1631(3)
H71 H 0.7725 0.5000 0.1827
C138 C 0.7411(4) 0.3820(3) 0.1988(2)
H72 H 0.7084 0.3769 0.2094
C139 C 0.8390(4) 0.3979(4) 0.1700(3)
H73 H 0.8720 0.4034 0.1601
C140 C 0.8301(4) 0.3615(4) 0.1878(3)
H74 H 0.8565 0.3426 0.1901
N8_2 N 1.0000 0.5000 0.0603(3)
C141 C 0.9567(4) 0.5000 0.0821(3)
C142 C 0.9056(5) 0.5000 0.0709(3)
C143 C 0.8513(3) 0.4630(2) 0.1172(3)
H75 H 0.8635 0.4389 0.1066
C144 C 0.8899(5) 0.5000 0.0318(3)
C145 C 0.8171(3) 0.4649(2) 0.1486(3)
C146 C 0.8661(5) 0.5000 0.1026(3)
C147 C 0.7810(5) 0.3536(3) 0.2020(3)
C148 C 0.97441(17) 0.5000 0.1221(3)
H76 H 0.9534 0.5000 0.1448
O24 O 0.8033(3) 0.70677(18) 0.22387(15)
O25 O 0.7196(3) 0.68999(19) 0.22963(18)
C149 C 0.7517(4) 0.5824(3) 0.1795(3)
H77 H 0.7252 0.5639 0.1754
C150 C 0.7625(5) 0.6837(3) 0.2217(2)
C151 C 0.8011(4) 0.5738(3) 0.1663(2)
C152 C 0.7411(4) 0.6180(3) 0.1988(2)
H78 H 0.7084 0.6231 0.2094
C153 C 0.8390(4) 0.6021(4) 0.1700(3)
H79 H 0.8720 0.5966 0.1601
C154 C 0.8301(4) 0.6385(4) 0.1878(3)
H80 H 0.8565 0.6574 0.1901
C155 C 0.8513(3) 0.5370(2) 0.1172(3)
H81 H 0.8635 0.5611 0.1066
C156 C 0.8171(3) 0.5351(2) 0.1486(3)
C157 C 0.7810(5) 0.6464(3) 0.2020(3)
Cu12 Cu 0.70116(4) 0.26007(2) 0.25315(3)
Cu16 Cu 0.79884(4) 0.76007(2) 0.24685(3)
Cu20 Cu 0.70116(4) 0.73993(2) 0.25315(3)
Cu26 Cu 0.79884(4) 0.23993(2) 0.24685(3)
Cu1_2 Cu 1.0000 0.5000 0.5000
Cu2 Cu 0.70116(4) 0.73993(2) 0.74685(3)
Cu3_4 Cu 1.0000 0.5000 1.0000
N1 N 0.9238(6) 0.5000 0.5000
O1 O 0.6218(2) 0.72550(16) 0.74133(14)
O2 O 0.8033(3) 0.70677(18) 0.77613(15)
O3 O 0.7196(3) 0.68999(19) 0.77037(18)
C1 C 0.8907(4) 0.5314(3) 0.5000
C2 C 0.8380(5) 0.5000 0.98041(13)
H1 H 0.8090 0.5000 0.9638
O4 O 0.7212(3) 0.71568(18) 0.6951(2)
N2_2 N 1.0000 0.5613(3) 0.5000
O5 O 0.8053(3) 0.73473(19) 0.7010(2)
C3 C 0.9073(5) 0.5702(4) 0.5000
C4 C 0.8287(7) 0.6930(4) 0.6351(5)
H2 H 0.8557 0.6988 0.6526
C5 C 0.8500(3) 0.6165(3) 0.5356(2)
H3 H 0.8589 0.6041 0.5596
C6 C 0.8019(8) 0.6673(3) 0.5735(3)
C7 C 0.9576(5) 0.5841(3) 0.5000
C8 C 0.8698(4) 0.6032(3) 0.5000
C9 C 0.8163(3) 0.6489(3) 0.5351(3)
C10 C 0.7955(4) 0.6635(3) 0.5000
H4 H 0.7688 0.6823 0.5000
C11 C 0.7520(6) 0.6779(3) 0.5826(4)
H5 H 0.7257 0.6744 0.5638
C12 C 0.7517(4) 0.5824(3) 0.8205(3)
H6 H 0.7252 0.5639 0.8246
C13 C 0.8390(5) 0.51974(13) 0.5000
H7 H 0.8101 0.5365 0.5000
C14 C 0.7401(5) 0.6941(3) 0.6202(6)
H8 H 0.7058 0.6998 0.6268
C15 C 0.7793(8) 0.7014(3) 0.6474(4)
C16 C 0.7625(5) 0.6837(3) 0.7783(2)
C17 C 0.8011(4) 0.5738(3) 0.8337(2)
C18 C 0.7981(4) 0.5000 0.8369(3)
H9 H 0.7725 0.5000 0.8173
C19 C 0.97485(17) 0.6244(4) 0.5000
H10 H 0.9537 0.6470 0.5000
C20 C 0.7654(5) 0.7199(3) 0.6862(4)
C21 C 0.8410(5) 0.6767(3) 0.5987(6)
H11 H 0.8755 0.6722 0.5915
C22 C 0.7411(4) 0.6180(3) 0.8012(2)
H12 H 0.7084 0.6231 0.7906
C23 C 0.8390(4) 0.6021(4) 0.8300(3)
H13 H 0.8720 0.5966 0.8399
C24 C 0.8301(4) 0.6385(4) 0.8122(3)
H14 H 0.8565 0.6574 0.8099
N3_2 N 1.0000 0.5000 0.9397(3)
C25 C 0.9567(4) 0.5000 0.9179(3)
C26 C 0.9056(5) 0.5000 0.9291(3)
C27 C 0.8513(3) 0.5370(2) 0.8828(3)
H15 H 0.8635 0.5611 0.8934
C28 C 0.8899(5) 0.5000 0.9682(3)
C29 C 0.8171(3) 0.5351(2) 0.8514(3)
C30 C 0.8661(5) 0.5000 0.8974(3)
N4_2 N 0.9227(5) 0.5000 1.0000
C31 C 0.7810(5) 0.6464(3) 0.7980(3)
C32 C 0.97441(17) 0.5000 0.8779(3)
H16 H 0.9534 0.5000 0.8552
C49 C 0.8907(4) 0.4686(3) 0.5000
O8 O 0.7212(3) 0.28432(18) 0.3049(2)
N6_2 N 1.0000 0.4387(3) 0.5000
O9 O 0.8053(3) 0.26527(19) 0.2990(2)
C50 C 0.9073(5) 0.4298(4) 0.5000
C51 C 0.8287(7) 0.3070(4) 0.3649(5)
H25 H 0.8557 0.3012 0.3474
C52 C 0.8500(3) 0.3835(3) 0.4644(2)
H26 H 0.8589 0.3959 0.4404
C53 C 0.8019(8) 0.3327(3) 0.4265(3)
C54 C 0.9576(5) 0.4159(3) 0.5000
C55 C 0.8698(4) 0.3968(3) 0.5000
C56 C 0.8163(3) 0.3511(3) 0.4649(3)
C57 C 0.7955(4) 0.3365(3) 0.5000
H27 H 0.7688 0.3177 0.5000
C58 C 0.7520(6) 0.3221(3) 0.4174(4)
H28 H 0.7257 0.3256 0.4362
C59 C 0.8390(5) 0.48026(13) 0.5000
H29 H 0.8101 0.4635 0.5000
C60 C 0.7401(5) 0.3059(3) 0.3798(6)
H30 H 0.7058 0.3002 0.3732
C61 C 0.7793(8) 0.2986(3) 0.3526(4)
C62 C 0.97485(17) 0.3756(4) 0.5000
H31 H 0.9537 0.3530 0.5000
C63 C 0.7654(5) 0.2801(3) 0.3138(4)
C64 C 0.8410(5) 0.3233(3) 0.4013(6)
H32 H 0.8755 0.3278 0.4085
O10 O 0.7212(3) 0.71568(18) 0.3049(2)
O11 O 0.8053(3) 0.73473(19) 0.2990(2)
C65 C 0.8287(7) 0.6930(4) 0.3649(5)
H33 H 0.8557 0.6988 0.3474
C66 C 0.8500(3) 0.6165(3) 0.4644(2)
H34 H 0.8589 0.6041 0.4404
C67 C 0.8019(8) 0.6673(3) 0.4265(3)
C68 C 0.8163(3) 0.6489(3) 0.4649(3)
C69 C 0.7520(6) 0.6779(3) 0.4174(4)
H35 H 0.7257 0.6744 0.4362
C70 C 0.7401(5) 0.6941(3) 0.3798(6)
H36 H 0.7058 0.6998 0.3732
C71 C 0.7793(8) 0.7014(3) 0.3526(4)
C72 C 0.7654(5) 0.7199(3) 0.3138(4)
C73 C 0.8410(5) 0.6767(3) 0.4013(6)
H37 H 0.8755 0.6722 0.4085
O12 O 0.7212(3) 0.28432(18) 0.6951(2)
O13 O 0.8053(3) 0.26527(19) 0.7010(2)
C74 C 0.8287(7) 0.3070(4) 0.6351(5)
H38 H 0.8557 0.3012 0.6526
C75 C 0.8500(3) 0.3835(3) 0.5356(2)
H39 H 0.8589 0.3959 0.5596
C76 C 0.8019(8) 0.3327(3) 0.5735(3)
C77 C 0.8163(3) 0.3511(3) 0.5351(3)
C78 C 0.7520(6) 0.3221(3) 0.5826(4)
H40 H 0.7257 0.3256 0.5638
C79 C 0.7401(5) 0.3059(3) 0.6202(6)
H41 H 0.7058 0.3002 0.6268
C80 C 0.7793(8) 0.2986(3) 0.6474(4)
C81 C 0.7654(5) 0.2801(3) 0.6862(4)
C82 C 0.8410(5) 0.3233(3) 0.5987(6)
H42 H 0.8755 0.3278 0.5915
O26 O 0.8033(3) 0.29323(18) 0.77613(15)
O27 O 0.7196(3) 0.31001(19) 0.77037(18)
C158 C 0.7517(4) 0.4176(3) 0.8205(3)
H82 H 0.7252 0.4361 0.8246
C159 C 0.7625(5) 0.3163(3) 0.7783(2)
C160 C 0.8011(4) 0.4262(3) 0.8337(2)
C161 C 0.7411(4) 0.3820(3) 0.8012(2)
H83 H 0.7084 0.3769 0.7906
C162 C 0.8390(4) 0.3979(4) 0.8300(3)
H84 H 0.8720 0.4034 0.8399
C163 C 0.8301(4) 0.3615(4) 0.8122(3)
H85 H 0.8565 0.3426 0.8099
C164 C 0.8513(3) 0.4630(2) 0.8828(3)
H86 H 0.8635 0.4389 0.8934
C165 C 0.8171(3) 0.4649(2) 0.8514(3)
C166 C 0.7810(5) 0.3536(3) 0.7980(3)
O36 O 0.6218(2) 0.27450(16) 0.25867(14)
O38 O 0.6218(2) 0.72550(16) 0.25867(14)
Cu9 Cu 0.70116(4) 0.26007(2) 0.74685(3)
O39 O 0.6218(2) 0.27450(16) 0.74133(14)
Cu17 Cu 0.79884(4) 0.23993(2) 0.75315(3)
Cu21 Cu 0.79884(4) 0.76007(2) 0.75315(3)
O42 O 0.6967(3) 0.79323(18) 0.27613(15)
O43 O 0.6967(3) 0.20677(18) 0.72387(15)
O45 O 0.6967(3) 0.79323(18) 0.72387(15)
O48 O 0.6967(3) 0.20677(18) 0.27613(15)
O54 O 0.6947(3) 0.76527(19) 0.2010(2)
O55 O 0.6947(3) 0.23473(19) 0.7990(2)
O57 O 0.6947(3) 0.76527(19) 0.7990(2)
O60 O 0.6947(3) 0.23473(19) 0.2010(2)
Cu1_3 Cu 0.5000 -0.0000 -0.0000
Cu3_5 Cu 0.5000 -0.0000 0.5000
N1_2 N 0.4238(6) -0.0000 -0.0000
O1_2 O 0.1218(2) 0.22550(16) 0.24133(14)
O3_2 O 0.2196(3) 0.18999(19) 0.27037(18)
C1_2 C 0.3907(4) 0.0314(3) -0.0000
C2_2 C 0.3380(5) 0.0000 0.48041(13)
H1_2 H 0.3090 0.0000 0.4638
O4_2 O 0.2212(3) 0.21568(18) 0.1951(2)
N2_3 N 0.5000 0.0613(3) -0.0000
C3_2 C 0.4073(5) 0.0702(4) -0.0000
C4_2 C 0.3287(7) 0.1930(4) 0.1351(5)
H2_2 H 0.3557 0.1988 0.1526
C5_2 C 0.3500(3) 0.1165(3) 0.0356(2)
H3_2 H 0.3589 0.1041 0.0596
C6_2 C 0.3019(8) 0.1673(3) 0.0735(3)
C7_2 C 0.4576(5) 0.0841(3) -0.0000
C8_2 C 0.3698(4) 0.1032(3) -0.0000
C9_2 C 0.3163(3) 0.1489(3) 0.0351(3)
C10_2 C 0.2955(4) 0.1635(3) -0.0000
H4_2 H 0.2688 0.1823 -0.0000
C11_2 C 0.2520(6) 0.1779(3) 0.0826(4)
H5_2 H 0.2257 0.1744 0.0638
C12_2 C 0.2517(4) 0.0824(3) 0.3205(3)
H6_2 H 0.2252 0.0639 0.3246
C13_2 C 0.3390(5) 0.01974(13) -0.0000
H7_2 H 0.3101 0.0365 -0.0000
C14_2 C 0.2401(5) 0.1941(3) 0.1202(6)
H8_2 H 0.2058 0.1998 0.1268
C15_2 C 0.2793(8) 0.2014(3) 0.1474(4)
C16_2 C 0.2625(5) 0.1837(3) 0.2783(2)
C17_2 C 0.3011(4) 0.0738(3) 0.3337(2)
C18_2 C 0.2981(4) -0.0000 0.3369(3)
H9_2 H 0.2725 -0.0000 0.3173
C19_2 C 0.47485(17) 0.1244(4) -0.0000
H10_2 H 0.4537 0.1470 -0.0000
C20_2 C 0.2654(5) 0.2199(3) 0.1862(4)
C21_2 C 0.3410(5) 0.1767(3) 0.0987(6)
H11_2 H 0.3755 0.1722 0.0915
C22_2 C 0.2411(4) 0.1180(3) 0.3012(2)
H12_2 H 0.2084 0.1231 0.2906
C23_2 C 0.3390(4) 0.1021(4) 0.3300(3)
H13_2 H 0.3720 0.0966 0.3399
C24_2 C 0.3301(4) 0.1385(4) 0.3122(3)
H14_2 H 0.3565 0.1574 0.3099
N3_3 N 0.5000 0.0000 0.4397(3)
C25_2 C 0.4567(4) -0.0000 0.4179(3)
C26_2 C 0.4056(5) -0.0000 0.4291(3)
C27_2 C 0.3513(3) 0.0370(2) 0.3828(3)
H15_2 H 0.3635 0.0611 0.3934
C28_2 C 0.3899(5) 0.0000 0.4682(3)
C29_2 C 0.3171(3) 0.0351(2) 0.3514(3)
C30_2 C 0.3661(5) 0.0000 0.3974(3)
N4_3 N 0.4227(5) -0.0000 0.5000
C31_2 C 0.2810(5) 0.1464(3) 0.2980(3)
C32_2 C 0.47441(17) 0.0000 0.3779(3)
H16_2 H 0.4534 0.0000 0.3552
N5_2 N 0.5762(6) -0.0000 -0.0000
C33_2 C 0.6093(4) 0.0314(3) -0.0000
C34_2 C 0.5927(5) 0.0702(4) -0.0000
C38_2 C 0.5424(5) 0.0841(3) -0.0000
C39_2 C 0.6302(4) 0.1032(3) -0.0000
C41_2 C 0.7045(4) 0.1635(3) -0.0000
H19_2 H 0.7312 0.1823 -0.0000
C43_2 C 0.6610(5) 0.01974(13) -0.0000
H21_2 H 0.6899 0.0365 -0.0000
C46_2 C 0.52515(17) 0.1244(4) -0.0000
H23_2 H 0.5463 0.1470 -0.0000
O14_2 O 0.7788(3) 0.21568(18) 0.1951(2)
C83_2 C 0.6713(7) 0.1930(4) 0.1351(5)
H43_2 H 0.6443 0.1988 0.1526
C84_2 C 0.6500(3) 0.1165(3) 0.0356(2)
H44_2 H 0.6411 0.1041 0.0596
C85_2 C 0.6981(8) 0.1673(3) 0.0735(3)
C86_2 C 0.6837(3) 0.1489(3) 0.0351(3)
C87_2 C 0.7480(6) 0.1779(3) 0.0826(4)
H45_2 H 0.7743 0.1744 0.0638
C88_2 C 0.7599(5) 0.1941(3) 0.1202(6)
H46_2 H 0.7942 0.1998 0.1268
C89_2 C 0.7207(8) 0.2014(3) 0.1474(4)
C90_2 C 0.7346(5) 0.2199(3) 0.1862(4)
C91_2 C 0.6590(5) 0.1767(3) 0.0987(6)
H47_2 H 0.6245 0.1722 0.0915
C117_2 C 0.6620(5) 0.0000 0.48041(13)
H61_2 H 0.6910 0.0000 0.4638
C121_2 C 0.7019(4) -0.0000 0.3369(3)
H63_2 H 0.7275 -0.0000 0.3173
C125_2 C 0.5433(4) -0.0000 0.4179(3)
C126_2 C 0.5944(5) -0.0000 0.4291(3)
C128_2 C 0.6101(5) 0.0000 0.4682(3)
C130_2 C 0.6339(5) 0.0000 0.3974(3)
N7_3 N 0.5773(5) -0.0000 0.5000
C132_2 C 0.52559(17) 0.0000 0.3779(3)
H68_2 H 0.5466 0.0000 0.3552
C133_2 C 0.3380(5) -0.0000 0.51959(13)
H69_2 H 0.3090 -0.0000 0.5362
C137_2 C 0.2981(4) -0.0000 0.6631(3)
H71_2 H 0.2725 -0.0000 0.6827
N8_3 N 0.5000 -0.0000 0.5603(3)
C141_2 C 0.4567(4) -0.0000 0.5821(3)
C142_2 C 0.4056(5) -0.0000 0.5709(3)
C144_2 C 0.3899(5) -0.0000 0.5318(3)
C146_2 C 0.3661(5) -0.0000 0.6026(3)
C148_2 C 0.47441(17) 0.0000 0.6221(3)
H76_2 H 0.4534 -0.0000 0.6448
O25_2 O 0.2196(3) 0.18999(19) 0.72963(18)
C149_2 C 0.2517(4) 0.0824(3) 0.6795(3)
H77_2 H 0.2252 0.0639 0.6754
C150_2 C 0.2625(5) 0.1837(3) 0.7217(2)
C151_2 C 0.3011(4) 0.0738(3) 0.6663(2)
C152_2 C 0.2411(4) 0.1180(3) 0.6988(2)
H78_2 H 0.2084 0.1231 0.7094
C153_2 C 0.3390(4) 0.1021(4) 0.6700(3)
H79_2 H 0.3720 0.0966 0.6601
C154_2 C 0.3301(4) 0.1385(4) 0.6878(3)
H80_2 H 0.3565 0.1574 0.6901
C155_2 C 0.3513(3) 0.0370(2) 0.6172(3)
H81_2 H 0.3635 0.0611 0.6066
C156_2 C 0.3171(3) 0.0351(2) 0.6486(3)
C157_2 C 0.2810(5) 0.1464(3) 0.7020(3)
O29_2 O 0.7804(3) 0.18999(19) 0.27037(18)
C167_2 C 0.7483(4) 0.0824(3) 0.3205(3)
H87_2 H 0.7748 0.0639 0.3246
C168_2 C 0.7375(5) 0.1837(3) 0.2783(2)
C169_2 C 0.6989(4) 0.0738(3) 0.3337(2)
C170_2 C 0.7589(4) 0.1180(3) 0.3012(2)
H88_2 H 0.7916 0.1231 0.2906
C171_2 C 0.6610(4) 0.1021(4) 0.3300(3)
H89_2 H 0.6280 0.0966 0.3399
C172_2 C 0.6699(4) 0.1385(4) 0.3122(3)
H90_2 H 0.6435 0.1574 0.3099
C173_2 C 0.6487(3) 0.0370(2) 0.3828(3)
H91_2 H 0.6365 0.0611 0.3934
C174_2 C 0.6829(3) 0.0351(2) 0.3514(3)
C175_2 C 0.7190(5) 0.1464(3) 0.2980(3)
O31_2 O 0.7804(3) 0.18999(19) 0.72963(18)
C176_2 C 0.6620(5) -0.0000 0.51959(13)
H92_2 H 0.6910 -0.0000 0.5362
C177_2 C 0.7483(4) 0.0824(3) 0.6795(3)
H93_2 H 0.7748 0.0639 0.6754
C178_2 C 0.7375(5) 0.1837(3) 0.7217(2)
C179_2 C 0.6989(4) 0.0738(3) 0.6663(2)
C180_2 C 0.7019(4) -0.0000 0.6631(3)
H94_2 H 0.7275 -0.0000 0.6827
C181_2 C 0.7589(4) 0.1180(3) 0.6988(2)
H95_2 H 0.7916 0.1231 0.7094
C182_2 C 0.6610(4) 0.1021(4) 0.6700(3)
H96_2 H 0.6280 0.0966 0.6601
C183_2 C 0.6699(4) 0.1385(4) 0.6878(3)
H97_2 H 0.6435 0.1574 0.6901
C184_2 C 0.5433(4) -0.0000 0.5821(3)
C185_2 C 0.5944(5) -0.0000 0.5709(3)
C186_2 C 0.6487(3) 0.0370(2) 0.6172(3)
H98_2 H 0.6365 0.0611 0.6066
C187_2 C 0.6101(5) -0.0000 0.5318(3)
C188_2 C 0.6829(3) 0.0351(2) 0.6486(3)
C189_2 C 0.6339(5) -0.0000 0.6026(3)
C190_2 C 0.7190(5) 0.1464(3) 0.7020(3)
C191_2 C 0.52559(17) 0.0000 0.6221(3)
H99_2 H 0.5466 -0.0000 0.6448
O40_2 O 0.8782(2) 0.22550(16) 0.24133(14)
Cu1_4 Cu 0.5000 -0.0000 1.0000
N1_3 N 0.4238(6) -0.0000 1.0000
C1_3 C 0.3907(4) 0.0314(3) 1.0000
N2_4 N 0.5000 0.0613(3) 1.0000
C3_3 C 0.4073(5) 0.0702(4) 1.0000
C7_3 C 0.4576(5) 0.0841(3) 1.0000
C8_3 C 0.3698(4) 0.1032(3) 1.0000
C10_3 C 0.2955(4) 0.1635(3) 1.0000
H4_3 H 0.2688 0.1823 1.0000
C13_3 C 0.3390(5) 0.01974(13) 1.0000
H7_3 H 0.3101 0.0365 1.0000
C19_3 C 0.47485(17) 0.1244(4) 1.0000
H10_3 H 0.4537 0.1470 1.0000
N5_3 N 0.5762(6) -0.0000 1.0000
C33_3 C 0.6093(4) 0.0314(3) 1.0000
O6_2 O 0.7788(3) 0.21568(18) 0.8049(2)
C34_3 C 0.5927(5) 0.0702(4) 1.0000
C35_2 C 0.6713(7) 0.1930(4) 0.8649(5)
H17_2 H 0.6443 0.1988 0.8474
C36_2 C 0.6500(3) 0.1165(3) 0.9644(2)
H18_2 H 0.6411 0.1041 0.9404
C37_2 C 0.6981(8) 0.1673(3) 0.9265(3)
C38_3 C 0.5424(5) 0.0841(3) 1.0000
C39_3 C 0.6302(4) 0.1032(3) 1.0000
C40_2 C 0.6837(3) 0.1489(3) 0.9649(3)
C41_3 C 0.7045(4) 0.1635(3) 1.0000
H19_3 H 0.7312 0.1823 1.0000
C42_2 C 0.7480(6) 0.1779(3) 0.9174(4)
H20_2 H 0.7743 0.1744 0.9362
C43_3 C 0.6610(5) 0.01974(13) 1.0000
H21_3 H 0.6899 0.0365 1.0000
C44_2 C 0.7599(5) 0.1941(3) 0.8798(6)
H22_2 H 0.7942 0.1998 0.8732
C45_2 C 0.7207(8) 0.2014(3) 0.8526(4)
C46_3 C 0.52515(17) 0.1244(4) 1.0000
H23_3 H 0.5463 0.1470 1.0000
C47_2 C 0.7346(5) 0.2199(3) 0.8138(4)
C48_2 C 0.6590(5) 0.1767(3) 0.9013(6)
H24_2 H 0.6245 0.1722 0.9085
O10_2 O 0.2212(3) 0.21568(18) 0.8049(2)
C65_2 C 0.3287(7) 0.1930(4) 0.8649(5)
H33_2 H 0.3557 0.1988 0.8474
C66_2 C 0.3500(3) 0.1165(3) 0.9644(2)
H34_2 H 0.3589 0.1041 0.9404
C67_2 C 0.3019(8) 0.1673(3) 0.9265(3)
C68_2 C 0.3163(3) 0.1489(3) 0.9649(3)
C69_2 C 0.2520(6) 0.1779(3) 0.9174(4)
H35_2 H 0.2257 0.1744 0.9362
C70_2 C 0.2401(5) 0.1941(3) 0.8798(6)
H36_2 H 0.2058 0.1998 0.8732
C71_2 C 0.2793(8) 0.2014(3) 0.8526(4)
C72_2 C 0.2654(5) 0.2199(3) 0.8138(4)
C73_2 C 0.3410(5) 0.1767(3) 0.9013(6)
H37_2 H 0.3755 0.1722 0.9085
O35_2 O 0.8782(2) 0.22550(16) 0.75867(14)
O38_2 O 0.1218(2) 0.22550(16) 0.75867(14)
Cu1_5 Cu 0.5000 1.0000 -0.0000
Cu3_6 Cu 0.5000 1.0000 0.5000
N1_4 N 0.4238(6) 1.0000 -0.0000
C2_3 C 0.3380(5) 1.0000 0.48041(13)
H1_3 H 0.3090 1.0000 0.4638
C18_3 C 0.2981(4) 1.0000 0.3369(3)
H9_3 H 0.2725 1.0000 0.3173
N3_4 N 0.5000 1.0000 0.4397(3)
C25_3 C 0.4567(4) 1.0000 0.4179(3)
C26_3 C 0.4056(5) 1.0000 0.4291(3)
C28_3 C 0.3899(5) 1.0000 0.4682(3)
C30_3 C 0.3661(5) 1.0000 0.3974(3)
N4_4 N 0.4227(5) 1.0000 0.5000
C32_3 C 0.47441(17) 1.0000 0.3779(3)
H16_3 H 0.4534 1.0000 0.3552
N5_4 N 0.5762(6) 1.0000 -0.0000
C49_2 C 0.3907(4) 0.9686(3) -0.0000
N6_3 N 0.5000 0.9387(3) -0.0000
C50_2 C 0.4073(5) 0.9298(4) -0.0000
C54_2 C 0.4576(5) 0.9159(3) -0.0000
C55_2 C 0.3698(4) 0.8968(3) -0.0000
C57_2 C 0.2955(4) 0.8365(3) -0.0000
H27_2 H 0.2688 0.8177 -0.0000
C59_2 C 0.3390(5) 0.98026(13) -0.0000
H29_2 H 0.3101 0.9635 -0.0000
C62_2 C 0.47485(17) 0.8756(4) -0.0000
H31_2 H 0.4537 0.8530 -0.0000
O12_2 O 0.2212(3) 0.78432(18) 0.1951(2)
C74_2 C 0.3287(7) 0.8070(4) 0.1351(5)
H38_2 H 0.3557 0.8012 0.1526
C75_2 C 0.3500(3) 0.8835(3) 0.0356(2)
H39_2 H 0.3589 0.8959 0.0596
C76_2 C 0.3019(8) 0.8327(3) 0.0735(3)
C77_2 C 0.3163(3) 0.8511(3) 0.0351(3)
C78_2 C 0.2520(6) 0.8221(3) 0.0826(4)
H40_2 H 0.2257 0.8256 0.0638
C79_2 C 0.2401(5) 0.8059(3) 0.1202(6)
H41_2 H 0.2058 0.8002 0.1268
C80_2 C 0.2793(8) 0.7986(3) 0.1474(4)
C81_2 C 0.2654(5) 0.7801(3) 0.1862(4)
C82_2 C 0.3410(5) 0.8233(3) 0.0987(6)
H42_2 H 0.3755 0.8278 0.0915
C92_2 C 0.6093(4) 0.9686(3) -0.0000
O16_2 O 0.7788(3) 0.78432(18) 0.1951(2)
C93_2 C 0.5927(5) 0.9298(4) -0.0000
C94_2 C 0.6713(7) 0.8070(4) 0.1351(5)
H48_2 H 0.6443 0.8012 0.1526
C95_2 C 0.6500(3) 0.8835(3) 0.0356(2)
H49_2 H 0.6411 0.8959 0.0596
C96_2 C 0.6981(8) 0.8327(3) 0.0735(3)
C97_2 C 0.5424(5) 0.9159(3) -0.0000
C98_2 C 0.6302(4) 0.8968(3) -0.0000
C99_2 C 0.6837(3) 0.8511(3) 0.0351(3)
C100_2 C 0.7045(4) 0.8365(3) -0.0000
H50_2 H 0.7312 0.8177 -0.0000
C101_2 C 0.7480(6) 0.8221(3) 0.0826(4)
H51_2 H 0.7743 0.8256 0.0638
C102_2 C 0.6610(5) 0.98026(13) -0.0000
H52_2 H 0.6899 0.9635 -0.0000
C103_2 C 0.7599(5) 0.8059(3) 0.1202(6)
H53_2 H 0.7942 0.8002 0.1268
C104_2 C 0.7207(8) 0.7986(3) 0.1474(4)
C105_2 C 0.52515(17) 0.8756(4) -0.0000
H54_2 H 0.5463 0.8530 -0.0000
C106_2 C 0.7346(5) 0.7801(3) 0.1862(4)
C107_2 C 0.6590(5) 0.8233(3) 0.0987(6)
H55_2 H 0.6245 0.8278 0.0915
O21_2 O 0.7804(3) 0.81001(19) 0.27037(18)
C117_3 C 0.6620(5) 1.0000 0.48041(13)
H61_3 H 0.6910 1.0000 0.4638
C118_2 C 0.7483(4) 0.9176(3) 0.3205(3)
H62_2 H 0.7748 0.9361 0.3246
C119_2 C 0.7375(5) 0.8163(3) 0.2783(2)
C120_2 C 0.6989(4) 0.9262(3) 0.3337(2)
C121_3 C 0.7019(4) 1.0000 0.3369(3)
H63_3 H 0.7275 1.0000 0.3173
C122_2 C 0.7589(4) 0.8820(3) 0.3012(2)
H64_2 H 0.7916 0.8769 0.2906
C123_2 C 0.6610(4) 0.8979(4) 0.3300(3)
H65_2 H 0.6280 0.9034 0.3399
C124_2 C 0.6699(4) 0.8615(4) 0.3122(3)
H66_2 H 0.6435 0.8426 0.3099
C125_3 C 0.5433(4) 1.0000 0.4179(3)
C126_3 C 0.5944(5) 1.0000 0.4291(3)
C127_2 C 0.6487(3) 0.9630(2) 0.3828(3)
H67_2 H 0.6365 0.9389 0.3934
C128_3 C 0.6101(5) 1.0000 0.4682(3)
C129_2 C 0.6829(3) 0.9649(2) 0.3514(3)
C130_3 C 0.6339(5) 1.0000 0.3974(3)
N7_4 N 0.5773(5) 1.0000 0.5000
C131_2 C 0.7190(5) 0.8536(3) 0.2980(3)
C132_3 C 0.52559(17) 1.0000 0.3779(3)
H68_3 H 0.5466 1.0000 0.3552
O23_2 O 0.2196(3) 0.81001(19) 0.72963(18)
C133_3 C 0.3380(5) 1.0000 0.51959(13)
H69_3 H 0.3090 1.0000 0.5362
C134_2 C 0.2517(4) 0.9176(3) 0.6795(3)
H70_2 H 0.2252 0.9361 0.6754
C135_2 C 0.2625(5) 0.8163(3) 0.7217(2)
C136_2 C 0.3011(4) 0.9262(3) 0.6663(2)
C137_3 C 0.2981(4) 1.0000 0.6631(3)
H71_3 H 0.2725 1.0000 0.6827
C138_2 C 0.2411(4) 0.8820(3) 0.6988(2)
H72_2 H 0.2084 0.8769 0.7094
C139_2 C 0.3390(4) 0.8979(4) 0.6700(3)
H73_2 H 0.3720 0.9034 0.6601
C140_2 C 0.3301(4) 0.8615(4) 0.6878(3)
H74_2 H 0.3565 0.8426 0.6901
N8_4 N 0.5000 1.0000 0.5603(3)
C141_3 C 0.4567(4) 1.0000 0.5821(3)
C142_3 C 0.4056(5) 1.0000 0.5709(3)
C143_2 C 0.3513(3) 0.9630(2) 0.6172(3)
H75_2 H 0.3635 0.9389 0.6066
C144_3 C 0.3899(5) 1.0000 0.5318(3)
C145_2 C 0.3171(3) 0.9649(2) 0.6486(3)
C146_3 C 0.3661(5) 1.0000 0.6026(3)
C147_2 C 0.2810(5) 0.8536(3) 0.7020(3)
C148_3 C 0.47441(17) 1.0000 0.6221(3)
H76_3 H 0.4534 1.0000 0.6448
O27_2 O 0.2196(3) 0.81001(19) 0.27037(18)
C158_2 C 0.2517(4) 0.9176(3) 0.3205(3)
H82_2 H 0.2252 0.9361 0.3246
C159_2 C 0.2625(5) 0.8163(3) 0.2783(2)
C160_2 C 0.3011(4) 0.9262(3) 0.3337(2)
C161_2 C 0.2411(4) 0.8820(3) 0.3012(2)
H83_2 H 0.2084 0.8769 0.2906
C162_2 C 0.3390(4) 0.8979(4) 0.3300(3)
H84_2 H 0.3720 0.9034 0.3399
C163_2 C 0.3301(4) 0.8615(4) 0.3122(3)
H85_2 H 0.3565 0.8426 0.3099
C164_2 C 0.3513(3) 0.9630(2) 0.3828(3)
H86_2 H 0.3635 0.9389 0.3934
C165_2 C 0.3171(3) 0.9649(2) 0.3514(3)
C166_2 C 0.2810(5) 0.8536(3) 0.2980(3)
C176_3 C 0.6620(5) 1.0000 0.51959(13)
H92_3 H 0.6910 1.0000 0.5362
C180_3 C 0.7019(4) 1.0000 0.6631(3)
H94_3 H 0.7275 1.0000 0.6827
C184_3 C 0.5433(4) 1.0000 0.5821(3)
C185_3 C 0.5944(5) 1.0000 0.5709(3)
C187_3 C 0.6101(5) 1.0000 0.5318(3)
C189_3 C 0.6339(5) 1.0000 0.6026(3)
C191_3 C 0.52559(17) 1.0000 0.6221(3)
H99_3 H 0.5466 1.0000 0.6448
O33_2 O 0.7804(3) 0.81001(19) 0.72963(18)
C192_2 C 0.7483(4) 0.9176(3) 0.6795(3)
H100_2 H 0.7748 0.9361 0.6754
C193_2 C 0.7375(5) 0.8163(3) 0.7217(2)
C194_2 C 0.6989(4) 0.9262(3) 0.6663(2)
C195_2 C 0.7589(4) 0.8820(3) 0.6988(2)
H101_2 H 0.7916 0.8769 0.7094
C196_2 C 0.6610(4) 0.8979(4) 0.6700(3)
H102_2 H 0.6280 0.9034 0.6601
C197_2 C 0.6699(4) 0.8615(4) 0.6878(3)
H103_2 H 0.6435 0.8426 0.6901
C198_2 C 0.6487(3) 0.9630(2) 0.6172(3)
H104_2 H 0.6365 0.9389 0.6066
C199_2 C 0.6829(3) 0.9649(2) 0.6486(3)
C200_2 C 0.7190(5) 0.8536(3) 0.7020(3)
O34_2 O 0.8782(2) 0.77450(16) 0.24133(14)
O39_2 O 0.1218(2) 0.77450(16) 0.24133(14)
Cu1_6 Cu 0.5000 1.0000 1.0000
N1_5 N 0.4238(6) 1.0000 1.0000
N5_5 N 0.5762(6) 1.0000 1.0000
C49_3 C 0.3907(4) 0.9686(3) 1.0000
O8_2 O 0.2212(3) 0.78432(18) 0.8049(2)
N6_4 N 0.5000 0.9387(3) 1.0000
C50_3 C 0.4073(5) 0.9298(4) 1.0000
C51_2 C 0.3287(7) 0.8070(4) 0.8649(5)
H25_2 H 0.3557 0.8012 0.8474
C52_2 C 0.3500(3) 0.8835(3) 0.9644(2)
H26_2 H 0.3589 0.8959 0.9404
C53_2 C 0.3019(8) 0.8327(3) 0.9265(3)
C54_3 C 0.4576(5) 0.9159(3) 1.0000
C55_3 C 0.3698(4) 0.8968(3) 1.0000
C56_2 C 0.3163(3) 0.8511(3) 0.9649(3)
C57_3 C 0.2955(4) 0.8365(3) 1.0000
H27_3 H 0.2688 0.8177 1.0000
C58_2 C 0.2520(6) 0.8221(3) 0.9174(4)
H28_2 H 0.2257 0.8256 0.9362
C59_3 C 0.3390(5) 0.98026(13) 1.0000
H29_3 H 0.3101 0.9635 1.0000
C60_2 C 0.2401(5) 0.8059(3) 0.8798(6)
H30_2 H 0.2058 0.8002 0.8732
C61_2 C 0.2793(8) 0.7986(3) 0.8526(4)
C62_3 C 0.47485(17) 0.8756(4) 1.0000
H31_3 H 0.4537 0.8530 1.0000
C63_2 C 0.2654(5) 0.7801(3) 0.8138(4)
C64_2 C 0.3410(5) 0.8233(3) 0.9013(6)
H32_2 H 0.3755 0.8278 0.9085
C92_3 C 0.6093(4) 0.9686(3) 1.0000
C93_3 C 0.5927(5) 0.9298(4) 1.0000
C97_3 C 0.5424(5) 0.9159(3) 1.0000
C98_3 C 0.6302(4) 0.8968(3) 1.0000
C100_3 C 0.7045(4) 0.8365(3) 1.0000
H50_3 H 0.7312 0.8177 1.0000
C102_3 C 0.6610(5) 0.98026(13) 1.0000
H52_3 H 0.6899 0.9635 1.0000
C105_3 C 0.52515(17) 0.8756(4) 1.0000
H54_3 H 0.5463 0.8530 1.0000
O18_2 O 0.7788(3) 0.78432(18) 0.8049(2)
C108_2 C 0.6713(7) 0.8070(4) 0.8649(5)
H56_2 H 0.6443 0.8012 0.8474
C109_2 C 0.6500(3) 0.8835(3) 0.9644(2)
H57_2 H 0.6411 0.8959 0.9404
C110_2 C 0.6981(8) 0.8327(3) 0.9265(3)
C111_2 C 0.6837(3) 0.8511(3) 0.9649(3)
C112_2 C 0.7480(6) 0.8221(3) 0.9174(4)
H58_2 H 0.7743 0.8256 0.9362
C113_2 C 0.7599(5) 0.8059(3) 0.8798(6)
H59_2 H 0.7942 0.8002 0.8732
C114_2 C 0.7207(8) 0.7986(3) 0.8526(4)
C115_2 C 0.7346(5) 0.7801(3) 0.8138(4)
C116_2 C 0.6590(5) 0.8233(3) 0.9013(6)
H60_2 H 0.6245 0.8278 0.9085
O36_2 O 0.1218(2) 0.77450(16) 0.75867(14)
O37_2 O 0.8782(2) 0.77450(16) 0.75867(14)
loop_
_geom_bond_atom_site_label_1
_geom_bond_atom_site_label_2
_geom_bond_site_symmetry_1
_geom_bond_site_symmetry_2
N7 Cu3 1_555 1_555
N8 Cu3 1_555 1_555
O30 C178 1_555 1_555
O31 C178 1_555 1_555
H92 C176 1_555 1_555
C177 H93 1_555 1_555
C178 C190 1_555 1_555
C179 C177 1_555 1_555
C180 H94 1_555 1_555
C181 C177 1_555 1_555
H95 C181 1_555 1_555
C182 C179 1_555 1_555
H96 C182 1_555 1_555
C183 C182 1_555 1_555
H97 C183 1_555 1_555
C184 N8 1_555 1_555
C185 C184 1_555 1_555
C186 H98 1_555 1_555
C187 N7 1_555 1_555
C188 C179 1_555 1_555
C189 C185 1_555 1_555
C190 C181 1_555 1_555
H99 C191 1_555 1_555
O32 C193 1_555 1_555
O33 C193 1_555 1_555
C192 H100 1_555 1_555
C193 C200 1_555 1_555
C194 C192 1_555 1_555
C195 C192 1_555 1_555
H101 C195 1_555 1_555
C196 C194 1_555 1_555
H102 C196 1_555 1_555
C197 C196 1_555 1_555
H103 C197 1_555 1_555
C198 C189 1_555 1_555
H104 C198 1_555 1_555
C199 C180 1_555 1_555
C200 C195 1_555 1_555
Cu11 O31 1_555 1_555
Cu14 O32 1_555 1_555
Cu19 O33 1_555 1_555
Cu24 O30 1_555 1_555
C176 C187 1_555 1_555
C180 C188 1_555 1_555
C183 C190 1_555 1_555
C184 C191 1_555 1_555
C185 C187 1_555 1_555
C186 C188 1_555 1_555
C186 C189 1_555 1_555
C194 C199 1_555 1_555
C197 C200 1_555 1_555
C198 C199 1_555 1_555
Cu3_2 N3 1_555 1_555
N2 Cu1 1_555 1_555
N5 Cu1 1_555 1_555
C33 N5 1_555 1_555
O6 C47 1_555 1_555
O7 C47 1_555 1_555
C34 C33 1_555 1_555
C35 H17 1_555 1_555
C36 H18 1_555 1_555
C37 C40 1_555 1_555
C38 N2 1_555 1_555
C39 C34 1_555 1_555
C40 C36 1_555 1_555
C41 C40 1_555 1_555
H19 C41 1_555 1_555
C42 C37 1_555 1_555
H20 C42 1_555 1_555
C43 C33 1_555 1_555
H21 C43 1_555 1_555
C44 C42 1_555 1_555
H22 C44 1_555 1_555
C45 C35 1_555 1_555
H23 C46 1_555 1_555
C47 C45 1_555 1_555
C48 C35 1_555 1_555
H24 C48 1_555 1_555
N6 Cu1 1_555 1_555
O14 C90 1_555 1_555
O15 C90 1_555 1_555
C83 H43 1_555 1_555
C84 C39 1_555 1_555
H44 C84 1_555 1_555
C85 C86 1_555 1_555
C86 C41 1_555 1_555
C87 C85 1_555 1_555
H45 C87 1_555 1_555
C88 C87 1_555 1_555
H46 C88 1_555 1_555
C89 C83 1_555 1_555
C90 C89 1_555 1_555
C91 C83 1_555 1_555
H47 C91 1_555 1_555
C92 N5 1_555 1_555
O16 C106 1_555 1_555
O17 C106 1_555 1_555
C93 C92 1_555 1_555
C94 H48 1_555 1_555
C95 H49 1_555 1_555
C96 C99 1_555 1_555
C97 N6 1_555 1_555
C98 C93 1_555 1_555
C99 C95 1_555 1_555
C100 C99 1_555 1_555
H50 C100 1_555 1_555
C101 C96 1_555 1_555
H51 C101 1_555 1_555
C102 C43 1_555 1_555
H52 C102 1_555 1_555
C103 C101 1_555 1_555
H53 C103 1_555 1_555
C104 C94 1_555 1_555
H54 C105 1_555 1_555
C106 C104 1_555 1_555
C107 C94 1_555 1_555
H55 C107 1_555 1_555
O18 C115 1_555 1_555
O19 C115 1_555 1_555
C108 H56 1_555 1_555
C109 C98 1_555 1_555
H57 C109 1_555 1_555
C110 C111 1_555 1_555
C111 C100 1_555 1_555
C112 C110 1_555 1_555
H58 C112 1_555 1_555
C113 C112 1_555 1_555
H59 C113 1_555 1_555
C114 C108 1_555 1_555
C115 C114 1_555 1_555
C116 C108 1_555 1_555
H60 C116 1_555 1_555
O20 C119 1_555 1_555
O21 C119 1_555 1_555
C117 H61 1_555 1_555
C118 H62 1_555 1_555
C119 C131 1_555 1_555
C120 C118 1_555 1_555
C121 H63 1_555 1_555
C122 C118 1_555 1_555
H64 C122 1_555 1_555
C123 C120 1_555 1_555
H65 C123 1_555 1_555
C124 C123 1_555 1_555
H66 C124 1_555 1_555
C125 N3 1_555 1_555
C126 C125 1_555 1_555
C127 H67 1_555 1_555
C128 C117 1_555 1_555
C129 C120 1_555 1_555
C130 C126 1_555 1_555
N7_2 Cu3_2 1_555 1_555
C131 C122 1_555 1_555
H68 C132 1_555 1_555
O28 C168 1_555 1_555
O29 C168 1_555 1_555
C167 H87 1_555 1_555
C168 C175 1_555 1_555
C169 C167 1_555 1_555
C170 C167 1_555 1_555
H88 C170 1_555 1_555
C171 C169 1_555 1_555
H89 C171 1_555 1_555
C172 C171 1_555 1_555
H90 C172 1_555 1_555
C173 C130 1_555 1_555
H91 C173 1_555 1_555
C174 C121 1_555 1_555
C175 C170 1_555 1_555
Cu4 O16 1_555 1_555
O34 Cu4 1_555 1_555
Cu11 O6 1_555 1_555
O35 Cu11 1_555 1_555
Cu19 O18 1_555 1_555
O37 Cu19 1_555 1_555
Cu10 O14 1_555 1_555
O40 Cu10 1_555 1_555
Cu14 O19 1_555 1_555
Cu18 O15 1_555 1_555
Cu22 O17 1_555 1_555
Cu24 O7 1_555 1_555
O41 Cu19 1_555 1_555
O44 Cu10 1_555 1_555
O46 Cu4 1_555 1_555
O47 Cu11 1_555 1_555
O53 Cu19 1_555 1_555
O56 Cu10 1_555 1_555
O58 Cu4 1_555 1_555
O59 Cu11 1_555 1_555
C34 C38 1_555 1_555
C36 C39 1_555 1_555
C37 C48 1_555 1_555
C38 C46 1_555 1_555
C44 C45 1_555 1_555
C84 C86 1_555 1_555
C85 C91 1_555 1_555
C88 C89 1_555 1_555
C92 C102 1_555 1_555
C93 C97 1_555 1_555
C95 C98 1_555 1_555
C96 C107 1_555 1_555
C97 C105 1_555 1_555
C103 C104 1_555 1_555
C109 C111 1_555 1_555
C110 C116 1_555 1_555
C113 C114 1_555 1_555
O20 Cu22 1_555 1_555
O21 Cu4 1_555 1_555
C121 C129 1_555 1_555
C124 C131 1_555 1_555
C125 C132 1_555 1_555
C126 C128 1_555 1_555
C127 C129 1_555 1_555
C127 C130 1_555 1_555
C128 N7_2 1_555 1_555
O28 Cu18 1_555 1_555
O29 Cu10 1_555 1_555
C169 C174 1_555 1_555
C172 C175 1_555 1_555
C173 C174 1_555 1_555
N4 Cu3_3 1_555 1_555
O22 C135 1_555 1_555
O23 C135 1_555 1_555
H69 C133 1_555 1_555
C134 H70 1_555 1_555
C135 C147 1_555 1_555
C136 C134 1_555 1_555
C137 H71 1_555 1_555
C138 C134 1_555 1_555
H72 C138 1_555 1_555
C139 C136 1_555 1_555
H73 C139 1_555 1_555
C140 C139 1_555 1_555
H74 C140 1_555 1_555
N8_2 Cu3_3 1_555 1_555
C141 N8_2 1_555 1_555
C142 C141 1_555 1_555
C143 H75 1_555 1_555
C144 N4 1_555 1_555
C145 C136 1_555 1_555
C146 C142 1_555 1_555
C147 C138 1_555 1_555
C148 C141 1_555 1_555
H76 C148 1_555 1_555
O24 C150 1_555 1_555
O25 C150 1_555 1_555
C149 H77 1_555 1_555
C150 C157 1_555 1_555
C151 C149 1_555 1_555
C152 C149 1_555 1_555
H78 C152 1_555 1_555
C153 C151 1_555 1_555
H79 C153 1_555 1_555
C154 C153 1_555 1_555
H80 C154 1_555 1_555
C155 C146 1_555 1_555
H81 C155 1_555 1_555
C156 C137 1_555 1_555
C157 C152 1_555 1_555
Cu12 O23 1_555 1_555
Cu16 O24 1_555 1_555
Cu20 O25 1_555 1_555
Cu26 O22 1_555 1_555
C133 C144 1_555 1_555
C137 C145 1_555 1_555
C140 C147 1_555 1_555
C142 C144 1_555 1_555
C143 C145 1_555 1_555
C143 C146 1_555 1_555
C151 C156 1_555 1_555
C154 C157 1_555 1_555
C155 C156 1_555 1_555
Cu1_2 N1 1_555 1_555
Cu2 O1 1_555 1_555
Cu3_4 N3_2 1_555 1_555
N1 C1 1_555 1_555
O2 C16 1_555 1_555
O3 Cu2 1_555 1_555
C1 C3 1_555 1_555
C2 H1 1_555 1_555
O4 Cu2 1_555 1_555
N2_2 Cu1_2 1_555 1_555
O5 C20 1_555 1_555
C3 C7 1_555 1_555
C4 H2 1_555 1_555
C5 H3 1_555 1_555
C6 C9 1_555 1_555
C7 N2_2 1_555 1_555
C8 C3 1_555 1_555
C9 C5 1_555 1_555
C10 C9 1_555 1_555
H4 C10 1_555 1_555
C11 C6 1_555 1_555
H5 C11 1_555 1_555
C12 H6 1_555 1_555
C13 C1 1_555 1_555
H7 C13 1_555 1_555
C14 C11 1_555 1_555
H8 C14 1_555 1_555
C15 C4 1_555 1_555
C16 O3 1_555 1_555
C17 C12 1_555 1_555
C18 H9 1_555 1_555
C19 C7 1_555 1_555
H10 C19 1_555 1_555
C20 O4 1_555 1_555
C21 C4 1_555 1_555
H11 C21 1_555 1_555
C22 C12 1_555 1_555
H12 C22 1_555 1_555
C23 C17 1_555 1_555
H13 C23 1_555 1_555
C24 C23 1_555 1_555
H14 C24 1_555 1_555
N3_2 C25 1_555 1_555
C25 C26 1_555 1_555
C26 C28 1_555 1_555
C27 H15 1_555 1_555
C28 C2 1_555 1_555
C29 C17 1_555 1_555
C30 C26 1_555 1_555
N4_2 Cu3_4 1_555 1_555
C31 C16 1_555 1_555
C32 C25 1_555 1_555
H16 C32 1_555 1_555
C49 N1 1_555 1_555
O8 C63 1_555 1_555
N6_2 Cu1_2 1_555 1_555
O9 C63 1_555 1_555
C50 C49 1_555 1_555
C51 H25 1_555 1_555
C52 H26 1_555 1_555
C53 C56 1_555 1_555
C54 N6_2 1_555 1_555
C55 C50 1_555 1_555
C56 C52 1_555 1_555
C57 C56 1_555 1_555
H27 C57 1_555 1_555
C58 C53 1_555 1_555
H28 C58 1_555 1_555
C59 C13 1_555 1_555
H29 C59 1_555 1_555
C60 C58 1_555 1_555
H30 C60 1_555 1_555
C61 C51 1_555 1_555
C62 C54 1_555 1_555
H31 C62 1_555 1_555
C63 C61 1_555 1_555
C64 C51 1_555 1_555
H32 C64 1_555 1_555
O10 C72 1_555 1_555
O11 C72 1_555 1_555
C65 H33 1_555 1_555
C66 C8 1_555 1_555
H34 C66 1_555 1_555
C67 C68 1_555 1_555
C68 C10 1_555 1_555
C69 C67 1_555 1_555
H35 C69 1_555 1_555
C70 C69 1_555 1_555
H36 C70 1_555 1_555
C71 C65 1_555 1_555
C72 C71 1_555 1_555
C73 C65 1_555 1_555
H37 C73 1_555 1_555
O12 C81 1_555 1_555
O13 C81 1_555 1_555
C74 H38 1_555 1_555
C75 C55 1_555 1_555
H39 C75 1_555 1_555
C76 C77 1_555 1_555
C77 C57 1_555 1_555
C78 C76 1_555 1_555
H40 C78 1_555 1_555
C79 C78 1_555 1_555
H41 C79 1_555 1_555
C80 C74 1_555 1_555
C81 C80 1_555 1_555
C82 C74 1_555 1_555
H42 C82 1_555 1_555
O26 C159 1_555 1_555
O27 C159 1_555 1_555
C158 H82 1_555 1_555
C159 C166 1_555 1_555
C160 C158 1_555 1_555
C161 C158 1_555 1_555
H83 C161 1_555 1_555
C162 C160 1_555 1_555
H84 C162 1_555 1_555
C163 C162 1_555 1_555
H85 C163 1_555 1_555
C164 C30 1_555 1_555
H86 C164 1_555 1_555
C165 C18 1_555 1_555
C166 C161 1_555 1_555
Cu12 O8 1_555 1_555
O36 Cu12 1_555 1_555
Cu20 O10 1_555 1_555
O38 Cu20 1_555 1_555
Cu9 O12 1_555 1_555
O39 Cu9 1_555 1_555
Cu16 O11 1_555 1_555
Cu17 O13 1_555 1_555
Cu21 O2 1_555 1_555
Cu26 O9 1_555 1_555
O42 Cu20 1_555 1_555
O43 Cu9 1_555 1_555
O45 Cu2 1_555 1_555
O48 Cu12 1_555 1_555
O54 Cu20 1_555 1_555
O55 Cu9 1_555 1_555
O57 Cu2 1_555 1_555
O60 Cu12 1_555 1_555
O5 Cu21 1_555 1_555
C5 C8 1_555 1_555
C6 C21 1_555 1_555
C14 C15 1_555 1_555
C15 C20 1_555 1_555
C18 C29 1_555 1_555
C22 C31 1_555 1_555
C24 C31 1_555 1_555
C27 C29 1_555 1_555
C27 C30 1_555 1_555
C28 N4_2 1_555 1_555
C49 C59 1_555 1_555
C50 C54 1_555 1_555
C52 C55 1_555 1_555
C53 C64 1_555 1_555
C60 C61 1_555 1_555
C66 C68 1_555 1_555
C67 C73 1_555 1_555
C70 C71 1_555 1_555
C75 C77 1_555 1_555
C76 C82 1_555 1_555
C79 C80 1_555 1_555
O26 Cu17 1_555 1_555
O27 Cu9 1_555 1_555
C160 C165 1_555 1_555
C163 C166 1_555 1_555
C164 C165 1_555 1_555
Cu1_3 N1_2 1_555 1_555
Cu14 O1_2 1_555 1_555
Cu3_5 N3_3 1_555 1_555
N1_2 C1_2 1_555 1_555
O41 C16_2 1_555 1_555
O3_2 Cu14 1_555 1_555
C1_2 C3_2 1_555 1_555
C2_2 H1_2 1_555 1_555
O4_2 Cu14 1_555 1_555
N2_3 Cu1_3 1_555 1_555
O53 C20_2 1_555 1_555
C3_2 C7_2 1_555 1_555
C4_2 H2_2 1_555 1_555
C5_2 H3_2 1_555 1_555
C6_2 C9_2 1_555 1_555
C7_2 N2_3 1_555 1_555
C8_2 C3_2 1_555 1_555
C9_2 C5_2 1_555 1_555
C10_2 C9_2 1_555 1_555
H4_2 C10_2 1_555 1_555
C11_2 C6_2 1_555 1_555
H5_2 C11_2 1_555 1_555
C12_2 H6_2 1_555 1_555
C13_2 C1_2 1_555 1_555
H7_2 C13_2 1_555 1_555
C14_2 C11_2 1_555 1_555
H8_2 C14_2 1_555 1_555
C15_2 C4_2 1_555 1_555
C16_2 O3_2 1_555 1_555
C17_2 C12_2 1_555 1_555
C18_2 H9_2 1_555 1_555
C19_2 C7_2 1_555 1_555
H10_2 C19_2 1_555 1_555
C20_2 O4_2 1_555 1_555
C21_2 C4_2 1_555 1_555
H11_2 C21_2 1_555 1_555
C22_2 C12_2 1_555 1_555
H12_2 C22_2 1_555 1_555
C23_2 C17_2 1_555 1_555
H13_2 C23_2 1_555 1_555
C24_2 C23_2 1_555 1_555
H14_2 C24_2 1_555 1_555
N3_3 C25_2 1_555 1_555
C25_2 C26_2 1_555 1_555
C26_2 C28_2 1_555 1_555
C27_2 H15_2 1_555 1_555
C28_2 C2_2 1_555 1_555
C29_2 C17_2 1_555 1_555
C30_2 C26_2 1_555 1_555
N4_3 Cu3_5 1_555 1_555
C31_2 C16_2 1_555 1_555
C32_2 C25_2 1_555 1_555
H16_2 C32_2 1_555 1_555
N5_2 Cu1_3 1_555 1_555
C33_2 N5_2 1_555 1_555
C34_2 C33_2 1_555 1_555
C38_2 N2_3 1_555 1_555
C39_2 C34_2 1_555 1_555
H19_2 C41_2 1_555 1_555
C43_2 C33_2 1_555 1_555
H21_2 C43_2 1_555 1_555
C46_2 C19_2 1_555 1_555
H23_2 C46_2 1_555 1_555
O14_2 C90_2 1_555 1_555
O60 C90_2 1_555 1_555
C83_2 H43_2 1_555 1_555
C84_2 C39_2 1_555 1_555
H44_2 C84_2 1_555 1_555
C85_2 C86_2 1_555 1_555
C86_2 C41_2 1_555 1_555
C87_2 C85_2 1_555 1_555
H45_2 C87_2 1_555 1_555
C88_2 C87_2 1_555 1_555
H46_2 C88_2 1_555 1_555
C89_2 C83_2 1_555 1_555
C90_2 C89_2 1_555 1_555
C91_2 C83_2 1_555 1_555
H47_2 C91_2 1_555 1_555
C117_2 H61_2 1_555 1_555
C121_2 H63_2 1_555 1_555
C125_2 N3_3 1_555 1_555
C126_2 C125_2 1_555 1_555
C128_2 C117_2 1_555 1_555
C130_2 C126_2 1_555 1_555
N7_3 Cu3_5 1_555 1_555
C132_2 C32_2 1_555 1_555
H68_2 C132_2 1_555 1_555
C133_2 C2_2 1_555 1_555
H69_2 C133_2 1_555 1_555
C137_2 H71_2 1_555 1_555
N8_3 Cu3_5 1_555 1_555
C141_2 N8_3 1_555 1_555
C142_2 C141_2 1_555 1_555
C144_2 N4_3 1_555 1_555
C146_2 C142_2 1_555 1_555
C148_2 C141_2 1_555 1_555
H76_2 C148_2 1_555 1_555
O46 C150_2 1_555 1_555
O25_2 C150_2 1_555 1_555
C149_2 H77_2 1_555 1_555
C150_2 C157_2 1_555 1_555
C151_2 C149_2 1_555 1_555
C152_2 C149_2 1_555 1_555
H78_2 C152_2 1_555 1_555
C153_2 C151_2 1_555 1_555
H79_2 C153_2 1_555 1_555
C154_2 C153_2 1_555 1_555
H80_2 C154_2 1_555 1_555
C155_2 C146_2 1_555 1_555
H81_2 C155_2 1_555 1_555
C156_2 C137_2 1_555 1_555
C157_2 C152_2 1_555 1_555
O48 C168_2 1_555 1_555
O29_2 C168_2 1_555 1_555
C167_2 H87_2 1_555 1_555
C168_2 C175_2 1_555 1_555
C169_2 C167_2 1_555 1_555
C170_2 C167_2 1_555 1_555
H88_2 C170_2 1_555 1_555
C171_2 C169_2 1_555 1_555
H89_2 C171_2 1_555 1_555
C172_2 C171_2 1_555 1_555
H90_2 C172_2 1_555 1_555
C173_2 C130_2 1_555 1_555
H91_2 C173_2 1_555 1_555
C174_2 C121_2 1_555 1_555
C175_2 C170_2 1_555 1_555
O43 C178_2 1_555 1_555
O31_2 C178_2 1_555 1_555
C176_2 C117_2 1_555 1_555
H92_2 C176_2 1_555 1_555
C177_2 H93_2 1_555 1_555
C178_2 C190_2 1_555 1_555
C179_2 C177_2 1_555 1_555
C180_2 H94_2 1_555 1_555
C181_2 C177_2 1_555 1_555
H95_2 C181_2 1_555 1_555
C182_2 C179_2 1_555 1_555
H96_2 C182_2 1_555 1_555
C183_2 C182_2 1_555 1_555
H97_2 C183_2 1_555 1_555
C184_2 N8_3 1_555 1_555
C185_2 C184_2 1_555 1_555
C186_2 H98_2 1_555 1_555
C187_2 N7_3 1_555 1_555
C188_2 C179_2 1_555 1_555
C189_2 C185_2 1_555 1_555
C190_2 C181_2 1_555 1_555
C191_2 C148_2 1_555 1_555
H99_2 C191_2 1_555 1_555
Cu26 O14_2 1_555 1_555
O40_2 Cu26 1_555 1_555
Cu17 O31_2 1_555 1_555
Cu22 O25_2 1_555 1_555
C5_2 C8_2 1_555 1_555
C6_2 C21_2 1_555 1_555
C14_2 C15_2 1_555 1_555
C15_2 C20_2 1_555 1_555
C18_2 C29_2 1_555 1_555
C22_2 C31_2 1_555 1_555
C24_2 C31_2 1_555 1_555
C27_2 C29_2 1_555 1_555
C27_2 C30_2 1_555 1_555
C28_2 N4_3 1_555 1_555
C34_2 C38_2 1_555 1_555
C38_2 C46_2 1_555 1_555
C84_2 C86_2 1_555 1_555
C85_2 C91_2 1_555 1_555
C88_2 C89_2 1_555 1_555
C125_2 C132_2 1_555 1_555
C126_2 C128_2 1_555 1_555
C128_2 N7_3 1_555 1_555
C133_2 C144_2 1_555 1_555
C142_2 C144_2 1_555 1_555
C151_2 C156_2 1_555 1_555
C154_2 C157_2 1_555 1_555
C155_2 C156_2 1_555 1_555
O29_2 Cu26 1_555 1_555
C169_2 C174_2 1_555 1_555
C172_2 C175_2 1_555 1_555
C173_2 C174_2 1_555 1_555
C176_2 C187_2 1_555 1_555
C180_2 C188_2 1_555 1_555
C183_2 C190_2 1_555 1_555
C184_2 C191_2 1_555 1_555
C185_2 C187_2 1_555 1_555
C186_2 C188_2 1_555 1_555
C186_2 C189_2 1_555 1_555
Cu1_4 N1_3 1_555 1_555
N1_3 C1_3 1_555 1_555
C1_3 C3_3 1_555 1_555
N2_4 Cu1_4 1_555 1_555
C3_3 C7_3 1_555 1_555
C7_3 N2_4 1_555 1_555
C8_3 C3_3 1_555 1_555
H4_3 C10_3 1_555 1_555
C13_3 C1_3 1_555 1_555
H7_3 C13_3 1_555 1_555
C19_3 C7_3 1_555 1_555
H10_3 C19_3 1_555 1_555
N5_3 Cu1_4 1_555 1_555
C33_3 N5_3 1_555 1_555
O6_2 C47_2 1_555 1_555
O55 C47_2 1_555 1_555
C34_3 C33_3 1_555 1_555
C35_2 H17_2 1_555 1_555
C36_2 H18_2 1_555 1_555
C37_2 C40_2 1_555 1_555
C38_3 N2_4 1_555 1_555
C39_3 C34_3 1_555 1_555
C40_2 C36_2 1_555 1_555
C41_3 C40_2 1_555 1_555
H19_3 C41_3 1_555 1_555
C42_2 C37_2 1_555 1_555
H20_2 C42_2 1_555 1_555
C43_3 C33_3 1_555 1_555
H21_3 C43_3 1_555 1_555
C44_2 C42_2 1_555 1_555
H22_2 C44_2 1_555 1_555
C45_2 C35_2 1_555 1_555
C46_3 C19_3 1_555 1_555
H23_3 C46_3 1_555 1_555
C47_2 C45_2 1_555 1_555
C48_2 C35_2 1_555 1_555
H24_2 C48_2 1_555 1_555
O10_2 C72_2 1_555 1_555
O58 C72_2 1_555 1_555
C65_2 H33_2 1_555 1_555
C66_2 C8_3 1_555 1_555
H34_2 C66_2 1_555 1_555
C67_2 C68_2 1_555 1_555
C68_2 C10_3 1_555 1_555
C69_2 C67_2 1_555 1_555
H35_2 C69_2 1_555 1_555
C70_2 C69_2 1_555 1_555
H36_2 C70_2 1_555 1_555
C71_2 C65_2 1_555 1_555
C72_2 C71_2 1_555 1_555
C73_2 C65_2 1_555 1_555
H37_2 C73_2 1_555 1_555
Cu17 O6_2 1_555 1_555
O35_2 Cu17 1_555 1_555
Cu22 O10_2 1_555 1_555
O38_2 Cu22 1_555 1_555
C34_3 C38_3 1_555 1_555
C36_2 C39_3 1_555 1_555
C37_2 C48_2 1_555 1_555
C38_3 C46_3 1_555 1_555
C44_2 C45_2 1_555 1_555
C66_2 C68_2 1_555 1_555
C67_2 C73_2 1_555 1_555
C70_2 C71_2 1_555 1_555
Cu1_5 N1_4 1_555 1_555
Cu3_6 N3_4 1_555 1_555
C2_3 H1_3 1_555 1_555
C18_3 H9_3 1_555 1_555
N3_4 C25_3 1_555 1_555
C25_3 C26_3 1_555 1_555
C26_3 C28_3 1_555 1_555
C28_3 C2_3 1_555 1_555
C30_3 C26_3 1_555 1_555
N4_4 Cu3_6 1_555 1_555
C32_3 C25_3 1_555 1_555
H16_3 C32_3 1_555 1_555
N5_4 Cu1_5 1_555 1_555
C49_2 N1_4 1_555 1_555
N6_3 Cu1_5 1_555 1_555
C50_2 C49_2 1_555 1_555
C54_2 N6_3 1_555 1_555
C55_2 C50_2 1_555 1_555
H27_2 C57_2 1_555 1_555
H29_2 C59_2 1_555 1_555
C62_2 C54_2 1_555 1_555
H31_2 C62_2 1_555 1_555
O12_2 C81_2 1_555 1_555
O59 C81_2 1_555 1_555
C74_2 H38_2 1_555 1_555
C75_2 C55_2 1_555 1_555
H39_2 C75_2 1_555 1_555
C76_2 C77_2 1_555 1_555
C77_2 C57_2 1_555 1_555
C78_2 C76_2 1_555 1_555
H40_2 C78_2 1_555 1_555
C79_2 C78_2 1_555 1_555
H41_2 C79_2 1_555 1_555
C80_2 C74_2 1_555 1_555
C81_2 C80_2 1_555 1_555
C82_2 C74_2 1_555 1_555
H42_2 C82_2 1_555 1_555
C92_2 N5_4 1_555 1_555
O16_2 C106_2 1_555 1_555
O54 C106_2 1_555 1_555
C93_2 C92_2 1_555 1_555
C94_2 H48_2 1_555 1_555
C95_2 H49_2 1_555 1_555
C96_2 C99_2 1_555 1_555
C97_2 N6_3 1_555 1_555
C98_2 C93_2 1_555 1_555
C99_2 C95_2 1_555 1_555
C100_2 C99_2 1_555 1_555
H50_2 C100_2 1_555 1_555
C101_2 C96_2 1_555 1_555
H51_2 C101_2 1_555 1_555
H52_2 C102_2 1_555 1_555
C103_2 C101_2 1_555 1_555
H53_2 C103_2 1_555 1_555
C104_2 C94_2 1_555 1_555
C105_2 C62_2 1_555 1_555
H54_2 C105_2 1_555 1_555
C106_2 C104_2 1_555 1_555
C107_2 C94_2 1_555 1_555
H55_2 C107_2 1_555 1_555
O42 C119_2 1_555 1_555
O21_2 C119_2 1_555 1_555
C117_3 H61_3 1_555 1_555
C118_2 H62_2 1_555 1_555
C119_2 C131_2 1_555 1_555
C120_2 C118_2 1_555 1_555
C121_3 H63_3 1_555 1_555
C122_2 C118_2 1_555 1_555
H64_2 C122_2 1_555 1_555
C123_2 C120_2 1_555 1_555
H65_2 C123_2 1_555 1_555
C124_2 C123_2 1_555 1_555
H66_2 C124_2 1_555 1_555
C125_3 N3_4 1_555 1_555
C126_3 C125_3 1_555 1_555
C127_2 H67_2 1_555 1_555
C128_3 C117_3 1_555 1_555
C129_2 C120_2 1_555 1_555
C130_3 C126_3 1_555 1_555
N7_4 Cu3_6 1_555 1_555
C131_2 C122_2 1_555 1_555
C132_3 C32_3 1_555 1_555
H68_3 C132_3 1_555 1_555
O44 C135_2 1_555 1_555
O23_2 C135_2 1_555 1_555
C133_3 C2_3 1_555 1_555
H69_3 C133_3 1_555 1_555
C134_2 H70_2 1_555 1_555
C135_2 C147_2 1_555 1_555
C136_2 C134_2 1_555 1_555
C137_3 H71_3 1_555 1_555
C138_2 C134_2 1_555 1_555
H72_2 C138_2 1_555 1_555
C139_2 C136_2 1_555 1_555
H73_2 C139_2 1_555 1_555
C140_2 C139_2 1_555 1_555
H74_2 C140_2 1_555 1_555
N8_4 Cu3_6 1_555 1_555
C141_3 N8_4 1_555 1_555
C142_3 C141_3 1_555 1_555
C143_2 H75_2 1_555 1_555
C144_3 N4_4 1_555 1_555
C145_2 C136_2 1_555 1_555
C146_3 C142_3 1_555 1_555
C147_2 C138_2 1_555 1_555
C148_3 C141_3 1_555 1_555
H76_3 C148_3 1_555 1_555
O47 C159_2 1_555 1_555
O27_2 C159_2 1_555 1_555
C158_2 H82_2 1_555 1_555
C159_2 C166_2 1_555 1_555
C160_2 C158_2 1_555 1_555
C161_2 C158_2 1_555 1_555
H83_2 C161_2 1_555 1_555
C162_2 C160_2 1_555 1_555
H84_2 C162_2 1_555 1_555
C163_2 C162_2 1_555 1_555
H85_2 C163_2 1_555 1_555
C164_2 C30_3 1_555 1_555
H86_2 C164_2 1_555 1_555
C165_2 C18_3 1_555 1_555
C166_2 C161_2 1_555 1_555
C176_3 C117_3 1_555 1_555
H92_3 C176_3 1_555 1_555
C180_3 H94_3 1_555 1_555
C184_3 N8_4 1_555 1_555
C185_3 C184_3 1_555 1_555
C187_3 N7_4 1_555 1_555
C189_3 C185_3 1_555 1_555
C191_3 C148_3 1_555 1_555
H99_3 C191_3 1_555 1_555
O45 C193_2 1_555 1_555
O33_2 C193_2 1_555 1_555
C192_2 H100_2 1_555 1_555
C193_2 C200_2 1_555 1_555
C194_2 C192_2 1_555 1_555
C195_2 C192_2 1_555 1_555
H101_2 C195_2 1_555 1_555
C196_2 C194_2 1_555 1_555
H102_2 C196_2 1_555 1_555
C197_2 C196_2 1_555 1_555
H103_2 C197_2 1_555 1_555
C198_2 C189_3 1_555 1_555
H104_2 C198_2 1_555 1_555
C199_2 C180_3 1_555 1_555
C200_2 C195_2 1_555 1_555
Cu16 O16_2 1_555 1_555
O34_2 Cu16 1_555 1_555
Cu24 O12_2 1_555 1_555
O39_2 Cu24 1_555 1_555
Cu18 O23_2 1_555 1_555
Cu21 O33_2 1_555 1_555
C28_3 N4_4 1_555 1_555
C49_2 C59_2 1_555 1_555
C50_2 C54_2 1_555 1_555
C75_2 C77_2 1_555 1_555
C76_2 C82_2 1_555 1_555
C79_2 C80_2 1_555 1_555
C92_2 C102_2 1_555 1_555
C93_2 C97_2 1_555 1_555
C95_2 C98_2 1_555 1_555
C96_2 C107_2 1_555 1_555
C97_2 C105_2 1_555 1_555
C103_2 C104_2 1_555 1_555
O21_2 Cu16 1_555 1_555
C121_3 C129_2 1_555 1_555
C124_2 C131_2 1_555 1_555
C125_3 C132_3 1_555 1_555
C126_3 C128_3 1_555 1_555
C127_2 C129_2 1_555 1_555
C127_2 C130_3 1_555 1_555
C128_3 N7_4 1_555 1_555
C133_3 C144_3 1_555 1_555
C137_3 C145_2 1_555 1_555
C140_2 C147_2 1_555 1_555
C142_3 C144_3 1_555 1_555
C143_2 C145_2 1_555 1_555
C143_2 C146_3 1_555 1_555
O27_2 Cu24 1_555 1_555
C160_2 C165_2 1_555 1_555
C163_2 C166_2 1_555 1_555
C164_2 C165_2 1_555 1_555
C176_3 C187_3 1_555 1_555
C184_3 C191_3 1_555 1_555
C185_3 C187_3 1_555 1_555
C194_2 C199_2 1_555 1_555
C197_2 C200_2 1_555 1_555
C198_2 C199_2 1_555 1_555
Cu1_6 N1_5 1_555 1_555
N5_5 Cu1_6 1_555 1_555
C49_3 N1_5 1_555 1_555
O8_2 C63_2 1_555 1_555
N6_4 Cu1_6 1_555 1_555
O56 C63_2 1_555 1_555
C50_3 C49_3 1_555 1_555
C51_2 H25_2 1_555 1_555
C52_2 H26_2 1_555 1_555
C53_2 C56_2 1_555 1_555
C54_3 N6_4 1_555 1_555
C55_3 C50_3 1_555 1_555
C56_2 C52_2 1_555 1_555
C57_3 C56_2 1_555 1_555
H27_3 C57_3 1_555 1_555
C58_2 C53_2 1_555 1_555
H28_2 C58_2 1_555 1_555
H29_3 C59_3 1_555 1_555
C60_2 C58_2 1_555 1_555
H30_2 C60_2 1_555 1_555
C61_2 C51_2 1_555 1_555
C62_3 C54_3 1_555 1_555
H31_3 C62_3 1_555 1_555
C63_2 C61_2 1_555 1_555
C64_2 C51_2 1_555 1_555
H32_2 C64_2 1_555 1_555
C92_3 N5_5 1_555 1_555
C93_3 C92_3 1_555 1_555
C97_3 N6_4 1_555 1_555
C98_3 C93_3 1_555 1_555
H50_3 C100_3 1_555 1_555
H52_3 C102_3 1_555 1_555
C105_3 C62_3 1_555 1_555
H54_3 C105_3 1_555 1_555
O18_2 C115_2 1_555 1_555
O57 C115_2 1_555 1_555
C108_2 H56_2 1_555 1_555
C109_2 C98_3 1_555 1_555
H57_2 C109_2 1_555 1_555
C110_2 C111_2 1_555 1_555
C111_2 C100_3 1_555 1_555
C112_2 C110_2 1_555 1_555
H58_2 C112_2 1_555 1_555
C113_2 C112_2 1_555 1_555
H59_2 C113_2 1_555 1_555
C114_2 C108_2 1_555 1_555
C115_2 C114_2 1_555 1_555
C116_2 C108_2 1_555 1_555
H60_2 C116_2 1_555 1_555
Cu18 O8_2 1_555 1_555
O36_2 Cu18 1_555 1_555
Cu21 O18_2 1_555 1_555
O37_2 Cu21 1_555 1_555
C49_3 C59_3 1_555 1_555
C50_3 C54_3 1_555 1_555
C52_2 C55_3 1_555 1_555
C53_2 C64_2 1_555 1_555
C60_2 C61_2 1_555 1_555
C92_3 C102_3 1_555 1_555
C93_3 C97_3 1_555 1_555
C97_3 C105_3 1_555 1_555
C109_2 C111_2 1_555 1_555
C110_2 C116_2 1_555 1_555
C113_2 C114_2 1_555 1_555

#END
