
###############################################################################
#
# This file contains modified crystal structure data generated from the
# MOF subset of the Cambridge Structural Database (CSD) v543 
# hosted by the Cambridge Crystallographic Data Centre (CCDC).
#
# This work is licensed under the Creative Commons
# Attribution-NonCommercial-ShareAlike 4.0 International License.
# To view a copy of this license, visit
# http://creativecommons.org/licenses/by-nc-sa/4.0/
# or send a letter to
# Creative Commons, PO Box 1866, Mountain View, CA 94042, USA.
#
# CIF created using the CSD Python API on 29 September 2022
# The structure has been converted into the P1 space group
# The structure has a 3D framework
# The original CSD entry LEVPAF is in the rhombohedral crystal system
# The framework has been calculated to contain at least 10.0% void space
# The void calculation uses a probe of radius 1.32A, grid spacing 0.4
#
###############################################################################

data_LEVPAF
_chemical_formula_moiety         '(C414 H324 N18 O108 Zn18)n'
_symmetry_cell_setting           triclinic
_symmetry_space_group_name_H-M   'P 1'
_symmetry_Int_Tables_number      1
_space_group_name_Hall           'P 1'
loop_
_symmetry_equiv_pos_site_id
_symmetry_equiv_pos_as_xyz
1 x,y,z
_cell_length_a                   31.864(5)
_cell_length_b                   31.864(5)
_cell_length_c                   12.846(3)
_cell_angle_alpha                90
_cell_angle_beta                 90
_cell_angle_gamma                120
_cell_volume                     11295.3
loop_
_atom_site_label
_atom_site_type_symbol
_atom_site_fract_x
_atom_site_fract_y
_atom_site_fract_z
C1 C 0.02159(14) 0.29412(15) 0.0340(3)
C2 C 0.05546(15) 0.27527(15) 0.0227(3)
C3 C 0.06643(15) 0.25664(15) 0.1033(3)
H2 H 0.0501 0.2549 0.1646
C4 C 0.10012(16) 0.23843(16) 0.1108(4)
C5 C 0.13111(16) 0.24046(16) 0.0320(3)
C6 C 0.16487(19) 0.22550(18) 0.0496(5)
C7 C 0.1677(2) 0.20793(19) 0.1467(5)
H4 H 0.1907 0.1986 0.1586
C8 C 0.1368(2) 0.2040(2) 0.2249(5)
H5 H 0.1381 0.1914 0.2893
C9 C 0.10353(19) 0.21904(18) 0.2073(4)
H6 H 0.0826 0.2162 0.2609
O1 O 0.01044(10) 0.30035(10) 0.1245(2)
H1 H 0.0692 0.2765 0.9581
H3 H 0.1855 0.2273 0.9963
C10 C 0.09638(16) 0.30748(16) 0.7495(3)
C11 C 0.12992(16) 0.29221(16) 0.7092(3)
H7 H 0.1630 0.3137 0.7156
C12 C 0.11599(16) 0.24995(17) 0.6644(3)
H8 H 0.0829 0.2289 0.6569
C13 C 0.14874(16) 0.23362(17) 0.6256(4)
C14 C 0.13243(18) 0.19606(18) 0.5520(4)
C15 C 0.16328(19) 0.18021(19) 0.5158(4)
H9 H 0.1522 0.1555 0.4667
C16 C 0.21009(18) 0.20092(19) 0.5524(4)
H10 H 0.2303 0.1896 0.5290
C17 C 0.22723(17) 0.23855(18) 0.6238(4)
H11 H 0.2592 0.2533 0.6465
C18 C 0.19660(17) 0.25413(17) 0.6611(4)
H12 H 0.2080 0.2787 0.7106
O2 O 0.00454(10) 0.30376(10) 0.9547(2)
O3 O 0.05080(11) 0.27825(11) 0.7432(2)
O4 O 0.11311(11) 0.34883(12) 0.7878(3)
O5 O 0.12857(13) 0.25786(12) 0.9382(3)
H17 H 0.1555 0.2714 0.9112
O6 O 0.08627(14) 0.17652(17) 0.5182(4)
H18 H 0.0798 0.1535 0.4799
Zn1 Zn 0.016727(16) 0.309263(16) 0.80286(4)
O7 O 0.03298(10) 0.37676(14) 0.7912(2)
C19 C 0.32915(23) 0.08902(16) 0.8149(3)
H13 H 0.3353 0.0845 0.8835
C20 C 0.33792(22) 0.13434(15) 0.7853(3)
H14 H 0.3496 0.1594 0.8338
C21 C 0.32939(21) 0.14268(15) 0.6836(3)
C22 C 0.31239(23) 0.10323(16) 0.6155(3)
H15 H 0.3065 0.1068 0.5460
C23 C 0.30434(23) 0.05915(16) 0.6512(3)
H16 H 0.2928 0.0334 0.6046
N1 N 0.31234(17) 0.05148(12) 0.7501(3)
C24 C 0.39414(21) 0.35492(14) 0.2993(3)
C25 C 0.44686(21) 0.38879(15) 0.3106(3)
H19 H 0.4594 0.4025 0.3752
C26 C 0.47646(21) 0.39976(15) 0.2300(3)
H20 H 0.4619 0.3834 0.1687
C27 C 0.52836(23) 0.43345(16) 0.2225(4)
C28 C 0.55732(23) 0.46444(16) 0.3013(3)
C29 C 0.60604(26) 0.49820(19) 0.2837(5)
H21 H 0.6249 0.5188 0.3370
C30 C 0.62644(28) 0.5010(2) 0.1866(5)
H22 H 0.6588 0.5240 0.1747
C31 C 0.5995(3) 0.4701(2) 0.1084(5)
H23 H 0.6134 0.4714 0.0440
C32 C 0.55116(26) 0.43686(19) 0.1260(4)
H24 H 0.5331 0.4159 0.0724
C33 C 0.45557(23) 0.42971(16) 0.5838(3)
C34 C 0.50438(23) 0.46325(16) 0.6241(3)
H25 H 0.5160 0.4963 0.6177
C35 C 0.53271(23) 0.44932(16) 0.6689(3)
H26 H 0.5207 0.4162 0.6764
C36 C 0.58179(23) 0.48207(16) 0.7077(4)
C37 C 0.60304(25) 0.46576(18) 0.7813(4)
C38 C 0.64974(27) 0.49661(19) 0.8175(4)
H27 H 0.6634 0.4855 0.8666
C39 C 0.67584(26) 0.54342(18) 0.7809(4)
H28 H 0.7074 0.5636 0.8043
C40 C 0.65535(25) 0.56056(17) 0.7095(4)
H29 H 0.6726 0.5925 0.6868
C41 C 0.60914(24) 0.52993(17) 0.6722(4)
H30 H 0.5960 0.5413 0.6227
C42 C 0.33752(23) 0.24431(16) 0.5184(3)
H31 H 0.3314 0.2488 0.4498
C43 C 0.32875(22) 0.19899(15) 0.5480(3)
H32 H 0.3171 0.1739 0.4995
C44 C 0.33728(21) 0.19065(15) 0.6497(3)
C45 C 0.35428(23) 0.23010(16) 0.7178(3)
H33 H 0.3602 0.2265 0.7873
C46 C 0.36233(23) 0.27418(16) 0.6821(3)
H34 H 0.3739 0.2999 0.7287
N2 N 0.35433(17) 0.28185(12) 0.5832(3)
O8 O 0.37676(14) 0.34377(10) 0.2088(2)
O9 O 0.32289(17) 0.36632(10) 0.5422(2)
O10 O 0.36745(14) 0.33787(10) 0.3786(2)
O11 O 0.43922(16) 0.38413(11) 0.5901(2)
O12 O 0.43095(16) 0.44644(11) 0.5455(3)
O13 O 0.53738(18) 0.46190(13) 0.3951(3)
H35 H 0.5508 0.4888 0.4221
O14 O 0.57642(22) 0.41960(14) 0.8151(4)
H36 H 0.5930 0.4131 0.8534
Zn2 Zn 0.374131(23) 0.350060(16) 0.53047(4)
Zn4 Zn 0.309263(28) 0.292536(23) 0.19714(4)
C12_2 C 0.78266(16) 0.58328(17) 0.9977(3)
H8_2 H 0.7496 0.5622 0.9902
C13_2 C 0.81541(16) 0.56695(17) 0.9589(4)
C14_2 C 0.79910(18) 0.52939(18) 0.8853(4)
C15_2 C 0.82995(19) 0.51354(19) 0.8491(4)
H9_2 H 0.8189 0.4888 0.8000
C16_2 C 0.87676(18) 0.53425(19) 0.8857(4)
H10_2 H 0.8970 0.5229 0.8623
C17_2 C 0.89390(17) 0.57188(18) 0.9571(4)
H11_2 H 0.9259 0.5866 0.9798
C18_2 C 0.86327(17) 0.58746(17) 0.9944(4)
C22_2 C 0.56344(16) 0.54249(16) 0.9488(3)
H15_2 H 0.5599 0.5330 0.8793
C23_2 C 0.60752(16) 0.57852(16) 0.9845(3)
H16_2 H 0.6333 0.5927 0.9379
O6_2 O 0.75294(14) 0.50985(17) 0.8515(4)
H18_2 H 0.7465 0.4868 0.8132
C24_2 C 0.31174(14) 0.37255(15) 0.6327(3)
C25_2 C 0.27787(15) 0.39140(15) 0.6440(3)
H19_2 H 0.2641 0.3902 0.7086
C26_2 C 0.26690(15) 0.41003(15) 0.5634(3)
H20_2 H 0.2832 0.4118 0.5021
C27_2 C 0.23321(16) 0.42824(16) 0.5559(4)
C28_2 C 0.20222(16) 0.42621(16) 0.6347(3)
C29_2 C 0.16846(19) 0.44117(18) 0.6171(5)
H21_2 H 0.1478 0.4394 0.6704
C30_2 C 0.1656(2) 0.45874(19) 0.5200(5)
H22_2 H 0.1426 0.4681 0.5081
C31_2 C 0.1965(2) 0.4627(2) 0.4418(5)
H23_2 H 0.1952 0.4753 0.3774
C32_2 C 0.22980(19) 0.44763(18) 0.4594(4)
H24_2 H 0.2507 0.4505 0.4058
C33_2 C 0.23695(16) 0.35919(16) 0.9172(3)
C34_2 C 0.20341(16) 0.37446(16) 0.9575(3)
H25_2 H 0.1703 0.3530 0.9511
H30_2 H 0.1253 0.3880 0.9561
C42_2 C 0.42235(16) 0.42654(17) 0.8518(3)
H31_2 H 0.4178 0.4159 0.7832
C43_2 C 0.46767(15) 0.46309(16) 0.8814(3)
H32_2 H 0.4927 0.4765 0.8329
C44_2 C 0.47601(15) 0.47996(15) 0.9831(3)
N2_2 N 0.38481(12) 0.40581(12) 0.9166(3)
O9_2 O 0.30035(10) 0.28991(14) 0.8755(2)
O10_2 O 0.32879(10) 0.36291(10) 0.7120(2)
O11_2 O 0.28253(11) 0.38842(11) 0.9235(2)
O12_2 O 0.22022(11) 0.31784(12) 0.8789(3)
O13_2 O 0.20476(13) 0.40881(12) 0.7285(3)
H35_2 H 0.1778 0.3953 0.7555
Zn2_2 Zn 0.316606(16) 0.357404(16) 0.86381(4)
H13_2 H 0.0020 0.4178 0.2168
C20_2 C 0.00459(22) 0.46767(15) 0.1186(3)
H14_2 H 0.0163 0.4927 0.1671
C35_2 C 0.19937(23) 0.78266(16) 0.0023(3)
H26_2 H 0.1873 0.7496 0.0098
C36_2 C 0.24845(23) 0.81541(16) 0.0411(4)
C37_2 C 0.26970(25) 0.79910(18) 0.1147(4)
C38_2 C 0.31640(27) 0.82995(19) 0.1509(4)
H27_2 H 0.3300 0.8189 0.2000
C39_2 C 0.34250(26) 0.87676(18) 0.1143(4)
H28_2 H 0.3740 0.8970 0.1377
C40_2 C 0.32201(25) 0.89390(17) 0.0429(4)
H29_2 H 0.3392 0.9259 0.0202
C41_2 C 0.27580(24) 0.86327(17) 0.0056(4)
C45_2 C 0.02094(23) 0.56344(16) 0.0512(3)
H33_2 H 0.0268 0.5599 0.1207
C46_2 C 0.02899(23) 0.60752(16) 0.0155(3)
H34_2 H 0.0405 0.6333 0.0621
O14_2 O 0.24308(22) 0.75294(14) 0.1485(4)
H36_2 H 0.2596 0.7465 0.1868
Zn3 Zn 0.024070(28) 0.374131(23) 0.46953(4)
C1_2 C 0.03921(15) 0.39414(21) 0.7007(3)
C2_2 C 0.05806(15) 0.44686(21) 0.6894(3)
H1_2 H 0.0568 0.4594 0.6248
C3_2 C 0.07669(15) 0.47646(21) 0.7700(3)
H2_2 H 0.0784 0.4619 0.8313
C4_2 C 0.09490(16) 0.52836(23) 0.7775(4)
C5_2 C 0.09287(16) 0.55732(23) 0.6987(3)
C6_2 C 0.10783(18) 0.60604(26) 0.7163(5)
H3_2 H 0.1060 0.6249 0.6630
C7_2 C 0.12540(19) 0.62644(28) 0.8134(5)
H4_2 H 0.1347 0.6588 0.8253
C8_2 C 0.1293(2) 0.5995(3) 0.8916(5)
H5_2 H 0.1419 0.6134 0.9560
C9_2 C 0.11429(18) 0.55116(26) 0.8740(4)
H6_2 H 0.1171 0.5331 0.9276
C10_2 C 0.02585(16) 0.45557(23) 0.4162(3)
C11_2 C 0.04112(16) 0.50438(23) 0.3759(3)
H7_2 H 0.0196 0.5160 0.3823
C12_3 C 0.08338(17) 0.53271(23) 0.3311(3)
H8_3 H 0.1044 0.5207 0.3236
C13_3 C 0.09971(17) 0.58179(23) 0.2923(4)
C14_3 C 0.13727(18) 0.60304(25) 0.2187(4)
C15_3 C 0.15312(19) 0.64974(27) 0.1825(4)
H9_3 H 0.1778 0.6634 0.1334
C16_3 C 0.13241(19) 0.67584(26) 0.2191(4)
H10_3 H 0.1437 0.7074 0.1957
C17_3 C 0.09478(18) 0.65535(25) 0.2905(4)
H11_3 H 0.0800 0.6726 0.3132
C18_3 C 0.07920(17) 0.60914(24) 0.3278(4)
H12_2 H 0.0546 0.5960 0.3773
C19_2 C 0.09320(17) 0.33752(23) 0.4816(3)
H13_3 H 0.0825 0.3314 0.5502
C20_3 C 0.12975(16) 0.32875(22) 0.4520(3)
H14_3 H 0.1431 0.3171 0.5005
C21_2 C 0.14662(15) 0.33728(21) 0.3503(3)
C22_3 C 0.12417(16) 0.35428(23) 0.2822(3)
H15_3 H 0.1336 0.3602 0.2127
C23_3 C 0.08814(16) 0.36233(23) 0.3179(3)
H16_3 H 0.0739 0.3739 0.2713
N1_2 N 0.07247(12) 0.35433(17) 0.4168(3)
O2_2 O 0.02957(10) 0.36745(14) 0.6214(2)
O3_2 O 0.05508(11) 0.43922(16) 0.4099(2)
O5_2 O 0.07547(12) 0.53738(18) 0.6049(3)
H17_2 H 0.0619 0.5508 0.5779
O6_3 O 0.15681(17) 0.57642(22) 0.1849(4)
H18_3 H 0.1798 0.5930 0.1466
H19_3 H 0.2765 0.2073 0.0419
H21_3 H 0.2273 0.0418 0.0037
C33_3 C 0.30748(16) 0.21110(23) 0.2505(3)
C34_3 C 0.29221(16) 0.16229(23) 0.2908(3)
H25_3 H 0.3137 0.1507 0.2844
C35_3 C 0.24995(17) 0.13396(23) 0.3356(3)
H26_3 H 0.2289 0.1460 0.3431
C36_3 C 0.23362(17) 0.08488(23) 0.3744(4)
C37_3 C 0.19606(18) 0.06363(25) 0.4480(4)
C38_3 C 0.18021(19) 0.01693(27) 0.4842(4)
H27_3 H 0.1555 0.0033 0.5333
C40_3 C 0.23855(18) 0.01132(25) 0.3762(4)
C41_3 C 0.25413(17) 0.05753(24) 0.3389(4)
H30_3 H 0.2787 0.0707 0.2894
C42_3 C 0.24013(17) 0.32915(23) 0.1851(3)
H31_3 H 0.2508 0.3353 0.1165
C43_3 C 0.20358(16) 0.33792(22) 0.2147(3)
H32_3 H 0.1902 0.3496 0.1662
C44_3 C 0.18671(15) 0.32939(21) 0.3164(3)
C45_3 C 0.20916(16) 0.31239(23) 0.3845(3)
H33_3 H 0.1997 0.3065 0.4540
C46_3 C 0.24519(16) 0.30434(23) 0.3488(3)
H34_3 H 0.2594 0.2928 0.3954
N2_3 N 0.26086(12) 0.31234(17) 0.2499(3)
O10_3 O 0.30376(10) 0.29922(14) 0.0453(2)
O11_3 O 0.27825(11) 0.22745(16) 0.2568(2)
O12_3 O 0.34883(12) 0.23572(16) 0.2122(3)
O13_3 O 0.25786(12) 0.12929(18) 0.0618(3)
H35_3 H 0.2714 0.1159 0.0888
O14_3 O 0.17652(17) 0.09025(22) 0.4818(4)
H36_3 H 0.1535 0.0737 0.5201
C24_3 C 0.29412(15) 0.27253(21) 0.9660(3)
C25_3 C 0.27527(15) 0.21981(21) 0.9773(3)
C26_3 C 0.25664(15) 0.19021(21) 0.8967(3)
H20_3 H 0.2549 0.2048 0.8354
C27_3 C 0.23843(16) 0.13831(23) 0.8892(4)
C28_3 C 0.24046(16) 0.10935(23) 0.9680(3)
C29_3 C 0.22550(18) 0.06063(26) 0.9504(5)
C30_3 C 0.20793(19) 0.04023(28) 0.8533(5)
H22_3 H 0.1986 0.0079 0.8414
C31_3 C 0.2040(2) 0.0672(3) 0.7751(5)
H23_3 H 0.1914 0.0533 0.7107
C32_3 C 0.21904(18) 0.11551(26) 0.7927(4)
H24_3 H 0.2162 0.1336 0.7391
Zn3_2 Zn 0.959203(23) 0.316606(16) 0.13619(4)
C1_3 C 0.93920(21) 0.31174(14) 0.3673(3)
C2_3 C 0.88648(21) 0.27787(15) 0.3560(3)
H1_3 H 0.8740 0.2641 0.2914
C3_3 C 0.85688(21) 0.26690(15) 0.4366(3)
H2_3 H 0.8715 0.2832 0.4979
C4_3 C 0.80498(23) 0.23321(16) 0.4441(4)
C5_3 C 0.77602(23) 0.20222(16) 0.3653(3)
C6_3 C 0.72730(26) 0.16846(19) 0.3829(5)
H3_3 H 0.7085 0.1478 0.3296
C7_3 C 0.70690(28) 0.1656(2) 0.4800(5)
H4_3 H 0.6746 0.1426 0.4919
C8_3 C 0.7339(3) 0.1965(2) 0.5582(5)
H5_3 H 0.7200 0.1952 0.6226
C9_3 C 0.78218(26) 0.22980(19) 0.5406(4)
H6_3 H 0.8003 0.2507 0.5942
C10_3 C 0.87777(23) 0.23695(16) 0.0828(3)
C11_3 C 0.82896(23) 0.20341(16) 0.0425(3)
H7_3 H 0.8174 0.1703 0.0489
H12_3 H 0.7374 0.1253 0.0439
C19_3 C 0.99582(23) 0.42235(16) 0.1482(3)
C21_3 C 0.99606(21) 0.47601(15) 0.0169(3)
N1_3 N 0.97901(17) 0.38481(12) 0.0834(3)
O1_2 O 0.95658(14) 0.32289(10) 0.4578(2)
O2_3 O 0.96589(14) 0.32879(10) 0.2880(2)
O3_3 O 0.89412(16) 0.28253(11) 0.0765(2)
O4_2 O 0.90239(16) 0.22022(11) 0.1211(3)
O5_3 O 0.79596(18) 0.20476(13) 0.2715(3)
H17_3 H 0.7826 0.1778 0.2445
O4_3 O 0.98450(12) 0.43095(16) 0.4545(3)
C19_4 C 0.91098(16) 0.24013(17) 0.8149(3)
H13_4 H 0.9155 0.2508 0.8835
C20_4 C 0.86566(15) 0.20358(16) 0.7853(3)
H14_4 H 0.8406 0.1902 0.8338
C21_4 C 0.85732(15) 0.18671(15) 0.6836(3)
C22_4 C 0.89677(16) 0.20916(16) 0.6155(3)
H15_4 H 0.8932 0.1997 0.5460
C23_4 C 0.94085(16) 0.24519(16) 0.6512(3)
H16_4 H 0.9666 0.2594 0.6046
N1_4 N 0.94852(12) 0.26086(12) 0.7501(3)
C24_4 C 0.64508(14) 0.03921(15) 0.2993(3)
C25_4 C 0.61121(15) 0.05806(15) 0.3106(3)
H19_4 H 0.5975 0.0568 0.3752
C26_4 C 0.60024(15) 0.07669(15) 0.2300(3)
H20_4 H 0.6166 0.0784 0.1687
C27_4 C 0.56655(16) 0.09490(16) 0.2225(4)
C28_4 C 0.53556(16) 0.09287(16) 0.3013(3)
C29_4 C 0.50180(19) 0.10783(18) 0.2837(5)
H21_4 H 0.4812 0.1060 0.3370
C30_4 C 0.4990(2) 0.12540(19) 0.1866(5)
H22_4 H 0.4760 0.1347 0.1747
C31_4 C 0.5299(2) 0.1293(2) 0.1084(5)
H23_4 H 0.5286 0.1419 0.0440
C32_4 C 0.56314(19) 0.11429(18) 0.1260(4)
H24_4 H 0.5841 0.1171 0.0724
C33_4 C 0.57029(16) 0.02585(16) 0.5838(3)
C34_4 C 0.53675(16) 0.04112(16) 0.6241(3)
H25_4 H 0.5037 0.0196 0.6177
C35_4 C 0.55068(16) 0.08338(17) 0.6689(3)
H26_4 H 0.5838 0.1044 0.6764
C36_4 C 0.51793(16) 0.09971(17) 0.7077(4)
C37_4 C 0.53424(18) 0.13727(18) 0.7813(4)
C38_4 C 0.50339(19) 0.15312(19) 0.8175(4)
H27_4 H 0.5145 0.1778 0.8666
C39_3 C 0.45658(18) 0.13241(19) 0.7809(4)
H28_3 H 0.4364 0.1437 0.8043
C40_4 C 0.43944(17) 0.09478(18) 0.7095(4)
H29_3 H 0.4075 0.0800 0.6868
C41_4 C 0.47007(17) 0.07920(17) 0.6722(4)
H30_4 H 0.4587 0.0546 0.6227
C42_4 C 0.75569(16) 0.09320(17) 0.5184(3)
H31_4 H 0.7512 0.0825 0.4498
C43_4 C 0.80101(15) 0.12975(16) 0.5480(3)
H32_4 H 0.8261 0.1431 0.4995
C44_4 C 0.80935(15) 0.14662(15) 0.6497(3)
C45_4 C 0.76990(16) 0.12417(16) 0.7178(3)
H33_4 H 0.7735 0.1336 0.7873
C46_4 C 0.72582(16) 0.08814(16) 0.6821(3)
H34_4 H 0.7001 0.0739 0.7287
N2_4 N 0.71815(12) 0.07247(12) 0.5832(3)
O8_2 O 0.65623(10) 0.03298(10) 0.2088(2)
O10_4 O 0.66213(10) 0.02957(10) 0.3786(2)
O11_4 O 0.61587(11) 0.05508(11) 0.5901(2)
O13_4 O 0.53810(13) 0.07547(12) 0.3951(3)
H35_4 H 0.5112 0.0619 0.4221
O14_4 O 0.58040(14) 0.15681(17) 0.8151(4)
H36_4 H 0.5869 0.1798 0.8534
Zn2_3 Zn 0.649940(16) 0.024070(16) 0.53047(4)
Zn4_2 Zn 0.707464(23) 0.016727(16) 0.19714(4)
C12_4 C 0.41672(17) 0.19937(23) 0.9977(3)
H8_4 H 0.4378 0.1873 0.9902
C13_4 C 0.43305(17) 0.24845(23) 0.9589(4)
C14_4 C 0.47061(18) 0.26970(25) 0.8853(4)
C15_4 C 0.48646(19) 0.31640(27) 0.8491(4)
H9_4 H 0.5112 0.3300 0.8000
C16_4 C 0.46575(19) 0.34250(26) 0.8857(4)
H10_4 H 0.4771 0.3740 0.8623
C17_4 C 0.42812(18) 0.32201(25) 0.9571(4)
H11_4 H 0.4134 0.3392 0.9798
C18_4 C 0.41254(17) 0.27580(24) 0.9944(4)
C22_5 C 0.45751(16) 0.02094(23) 0.9488(3)
H15_5 H 0.4670 0.0268 0.8793
C23_5 C 0.42148(16) 0.02899(23) 0.9845(3)
H16_5 H 0.4073 0.0405 0.9379
O6_4 O 0.49015(17) 0.24308(22) 0.8515(4)
H18_4 H 0.5132 0.2596 0.8132
H31_5 H 0.5841 0.0020 0.7832
C43_5 C 0.53691(16) 0.00459(22) 0.8814(3)
H32_5 H 0.5235 0.0163 0.8329
O9_3 O 0.71009(14) 0.01044(17) 0.8755(2)
H19_5 H 0.7927 0.0692 0.0419
H21_5 H 0.9582 0.1855 0.0037
C33_5 C 0.78890(23) 0.09638(16) 0.2505(3)
C34_5 C 0.83771(23) 0.12992(16) 0.2908(3)
H25_5 H 0.8493 0.1630 0.2844
C35_5 C 0.86604(23) 0.11599(16) 0.3356(3)
H26_5 H 0.8540 0.0829 0.3431
C36_5 C 0.91512(23) 0.14874(16) 0.3744(4)
C37_5 C 0.93637(25) 0.13243(18) 0.4480(4)
C38_5 C 0.98307(27) 0.16328(19) 0.4842(4)
H27_5 H 0.9967 0.1522 0.5333
C40_5 C 0.98868(25) 0.22723(17) 0.3762(4)
C41_5 C 0.94247(24) 0.19660(17) 0.3389(4)
H30_5 H 0.9293 0.2080 0.2894
O10_5 O 0.70078(14) 0.00454(10) 0.0453(2)
O11_5 O 0.77255(16) 0.05080(11) 0.2568(2)
O12_4 O 0.76428(16) 0.11311(11) 0.2122(3)
O13_5 O 0.87071(18) 0.12857(13) 0.0618(3)
H35_5 H 0.8841 0.1555 0.0888
O14_5 O 0.90975(22) 0.08627(14) 0.4818(4)
H36_5 H 0.9263 0.0798 0.5201
C24_5 C 0.72747(21) 0.02159(14) 0.9660(3)
C25_5 C 0.78019(21) 0.05546(15) 0.9773(3)
C26_5 C 0.80979(21) 0.06643(15) 0.8967(3)
H20_5 H 0.7952 0.0501 0.8354
C27_5 C 0.86169(23) 0.10012(16) 0.8892(4)
C28_5 C 0.89065(23) 0.13111(16) 0.9680(3)
C29_5 C 0.93937(26) 0.16487(19) 0.9504(5)
C30_5 C 0.95977(28) 0.1677(2) 0.8533(5)
H22_5 H 0.9921 0.1907 0.8414
C31_5 C 0.9328(3) 0.1368(2) 0.7751(5)
H23_5 H 0.9467 0.1381 0.7107
C32_5 C 0.88449(26) 0.10353(19) 0.7927(4)
H24_5 H 0.8664 0.0826 0.7391
O9_4 O 0.63368(10) 0.95658(14) 0.5422(2)
O12_5 O 0.55356(11) 0.98450(12) 0.5455(3)
C24_6 C 0.62745(15) 0.93920(21) 0.6327(3)
C25_6 C 0.60860(15) 0.88648(21) 0.6440(3)
H19_6 H 0.6098 0.8740 0.7086
C26_6 C 0.58997(15) 0.85688(21) 0.5634(3)
H20_6 H 0.5882 0.8715 0.5021
C27_6 C 0.57176(16) 0.80498(23) 0.5559(4)
C28_6 C 0.57379(16) 0.77602(23) 0.6347(3)
C29_6 C 0.55883(18) 0.72730(26) 0.6171(5)
H21_6 H 0.5606 0.7085 0.6704
C30_6 C 0.54126(19) 0.70690(28) 0.5200(5)
H22_6 H 0.5319 0.6746 0.5081
C31_6 C 0.5373(2) 0.7339(3) 0.4418(5)
H23_6 H 0.5247 0.7200 0.3774
C32_6 C 0.55237(18) 0.78218(26) 0.4594(4)
H24_6 H 0.5495 0.8003 0.4058
C33_6 C 0.64081(16) 0.87777(23) 0.9172(3)
C34_6 C 0.62554(16) 0.82896(23) 0.9575(3)
H25_6 H 0.6470 0.8174 0.9511
H30_6 H 0.6120 0.7374 0.9561
C42_5 C 0.57346(17) 0.99582(23) 0.8518(3)
C44_5 C 0.52004(15) 0.99606(21) 0.9831(3)
N2_5 N 0.59419(12) 0.97901(17) 0.9166(3)
O10_6 O 0.63709(10) 0.96589(14) 0.7120(2)
O11_6 O 0.61158(11) 0.89412(16) 0.9235(2)
O12_6 O 0.68216(12) 0.90239(16) 0.8789(3)
O13_6 O 0.59119(12) 0.79596(18) 0.7285(3)
H35_6 H 0.6047 0.7826 0.7555
Zn2_4 Zn 0.642596(16) 0.959203(23) 0.86381(4)
O9_5 O 0.04342(14) 0.67711(17) 0.5422(2)
O12_7 O 0.01550(12) 0.56905(16) 0.5455(3)
C24_7 C 0.06080(21) 0.68826(14) 0.6327(3)
C25_7 C 0.11352(21) 0.72213(15) 0.6440(3)
H19_7 H 0.1260 0.7359 0.7086
C26_7 C 0.14312(21) 0.73310(15) 0.5634(3)
H20_7 H 0.1285 0.7168 0.5021
C27_7 C 0.19502(23) 0.76679(16) 0.5559(4)
C28_7 C 0.22398(23) 0.79778(16) 0.6347(3)
C29_7 C 0.27270(26) 0.83154(19) 0.6171(5)
H21_7 H 0.2915 0.8522 0.6704
C30_7 C 0.29310(28) 0.8344(2) 0.5200(5)
H22_7 H 0.3254 0.8574 0.5081
C31_7 C 0.2661(3) 0.8035(2) 0.4418(5)
H23_7 H 0.2800 0.8048 0.3774
C32_7 C 0.21782(26) 0.77020(19) 0.4594(4)
H24_7 H 0.1997 0.7493 0.4058
C33_7 C 0.12223(23) 0.76305(16) 0.9172(3)
C34_7 C 0.17104(23) 0.79659(16) 0.9575(3)
H25_7 H 0.1826 0.8297 0.9511
H30_7 H 0.2626 0.8747 0.9561
C42_6 C 0.00418(23) 0.57765(16) 0.8518(3)
C44_6 C 0.00394(21) 0.52399(15) 0.9831(3)
N2_6 N 0.02099(17) 0.61519(12) 0.9166(3)
O10_7 O 0.03411(14) 0.67121(10) 0.7120(2)
O11_7 O 0.10588(16) 0.71747(11) 0.9235(2)
O12_8 O 0.09761(16) 0.77978(11) 0.8789(3)
O13_7 O 0.20404(18) 0.79524(13) 0.7285(3)
H35_7 H 0.2174 0.8222 0.7555
Zn2_5 Zn 0.040797(23) 0.683394(16) 0.86381(4)
C16_5 C 0.79908(19) 0.00917(26) 0.5524(4)
H10_5 H 0.8104 0.0407 0.5290
H11_5 H 0.7467 0.0059 0.6465
C1_4 C 0.70588(15) 0.72747(21) 0.0340(3)
C2_4 C 0.72473(15) 0.78019(21) 0.0227(3)
C3_4 C 0.74336(15) 0.80979(21) 0.1033(3)
H2_4 H 0.7451 0.7952 0.1646
C4_4 C 0.76157(16) 0.86169(23) 0.1108(4)
C5_4 C 0.75954(16) 0.89065(23) 0.0320(3)
C6_4 C 0.77450(18) 0.93937(26) 0.0496(5)
C7_4 C 0.79207(19) 0.95977(28) 0.1467(5)
H4_4 H 0.8014 0.9921 0.1586
C8_4 C 0.7960(2) 0.9328(3) 0.2249(5)
H5_4 H 0.8086 0.9467 0.2893
C9_4 C 0.78096(18) 0.88449(26) 0.2073(4)
H6_4 H 0.7838 0.8664 0.2609
O1_3 O 0.69965(10) 0.71009(14) 0.1245(2)
Zn3_3 Zn 0.683394(16) 0.642596(28) 0.13619(4)
H1_4 H 0.7235 0.7927 0.9581
H3_4 H 0.7727 0.9582 0.9963
C10_4 C 0.69252(16) 0.78890(23) 0.7495(3)
C11_4 C 0.70779(16) 0.83771(23) 0.7092(3)
H7_4 H 0.6863 0.8493 0.7156
C12_5 C 0.75005(17) 0.86604(23) 0.6644(3)
H8_5 H 0.7711 0.8540 0.6569
C13_5 C 0.76638(17) 0.91512(23) 0.6256(4)
C14_5 C 0.80394(18) 0.93637(25) 0.5520(4)
C15_5 C 0.81979(19) 0.98307(27) 0.5158(4)
H9_5 H 0.8445 0.9967 0.4667
C17_5 C 0.76145(18) 0.98868(25) 0.6238(4)
C18_5 C 0.74587(17) 0.94247(24) 0.6611(4)
H12_4 H 0.7213 0.9293 0.7106
C19_5 C 0.75987(17) 0.67085(23) 0.8149(3)
H13_5 H 0.7492 0.6647 0.8835
C20_5 C 0.79642(16) 0.66208(22) 0.7853(3)
H14_5 H 0.8098 0.6504 0.8338
C21_5 C 0.81329(15) 0.67061(21) 0.6836(3)
C22_6 C 0.79084(16) 0.68761(23) 0.6155(3)
H15_6 H 0.8003 0.6935 0.5460
C23_6 C 0.75481(16) 0.69566(23) 0.6512(3)
H16_6 H 0.7406 0.7072 0.6046
N1_5 N 0.73914(12) 0.68766(17) 0.7501(3)
O2_4 O 0.69624(10) 0.70078(14) 0.9547(2)
O3_4 O 0.72175(11) 0.77255(16) 0.7432(2)
O4_4 O 0.65117(12) 0.76428(16) 0.7878(3)
O5_4 O 0.74214(12) 0.87071(18) 0.9382(3)
H17_4 H 0.7286 0.8841 0.9112
O6_5 O 0.82348(17) 0.90975(22) 0.5182(4)
H18_5 H 0.8465 0.9263 0.4799
Zn1_2 Zn 0.690737(16) 0.707464(23) 0.80286(4)
C24_8 C 0.96079(15) 0.60586(21) 0.2993(3)
C25_8 C 0.94194(15) 0.55314(21) 0.3106(3)
H19_8 H 0.9432 0.5406 0.3752
C26_8 C 0.92331(15) 0.52354(21) 0.2300(3)
H20_8 H 0.9216 0.5381 0.1687
C27_8 C 0.90510(16) 0.47164(23) 0.2225(4)
C28_8 C 0.90713(16) 0.44268(23) 0.3013(3)
C29_8 C 0.89217(18) 0.39396(26) 0.2837(5)
H21_8 H 0.8940 0.3751 0.3370
C30_8 C 0.87460(19) 0.37356(28) 0.1866(5)
H22_8 H 0.8653 0.3412 0.1747
C31_8 C 0.8707(2) 0.4005(3) 0.1084(5)
H23_8 H 0.8581 0.3866 0.0440
C32_8 C 0.88571(18) 0.44884(26) 0.1260(4)
H24_8 H 0.8829 0.4669 0.0724
C33_8 C 0.97415(16) 0.54443(23) 0.5838(3)
C34_8 C 0.95888(16) 0.49562(23) 0.6241(3)
H25_8 H 0.9804 0.4840 0.6177
C35_6 C 0.91662(17) 0.46729(23) 0.6689(3)
H26_6 H 0.8956 0.4793 0.6764
C36_6 C 0.90029(17) 0.41821(23) 0.7077(4)
C37_6 C 0.86273(18) 0.39696(25) 0.7813(4)
C38_6 C 0.84688(19) 0.35026(27) 0.8175(4)
H27_6 H 0.8222 0.3366 0.8666
C39_4 C 0.86759(19) 0.32416(26) 0.7809(4)
H28_4 H 0.8563 0.2926 0.8043
C40_6 C 0.90522(18) 0.34465(25) 0.7095(4)
H29_4 H 0.9200 0.3274 0.6868
C41_6 C 0.92080(17) 0.39086(24) 0.6722(4)
H30_8 H 0.9454 0.4040 0.6227
C42_7 C 0.90680(17) 0.66248(23) 0.5184(3)
H31_6 H 0.9175 0.6686 0.4498
C43_6 C 0.87025(16) 0.67125(22) 0.5480(3)
H32_6 H 0.8569 0.6829 0.4995
C44_7 C 0.85338(15) 0.66272(21) 0.6497(3)
C45_5 C 0.87583(16) 0.64572(23) 0.7178(3)
H33_5 H 0.8664 0.6398 0.7873
C46_5 C 0.91186(16) 0.63767(23) 0.6821(3)
H34_5 H 0.9261 0.6261 0.7287
N2_7 N 0.92753(12) 0.64567(17) 0.5832(3)
O7_2 O 0.62324(14) 0.65623(17) 0.7912(2)
O8_3 O 0.96702(10) 0.62324(14) 0.2088(2)
O10_8 O 0.97043(10) 0.63255(14) 0.3786(2)
O11_8 O 0.94492(11) 0.56078(16) 0.5901(2)
O13_8 O 0.92453(12) 0.46262(18) 0.3951(3)
H35_8 H 0.9381 0.4492 0.4221
O14_6 O 0.84319(17) 0.42358(22) 0.8151(4)
H36_6 H 0.8202 0.4070 0.8534
Zn2_6 Zn 0.975930(16) 0.625869(23) 0.53047(4)
Zn4_3 Zn 0.983273(16) 0.690737(28) 0.19714(4)
C1_5 C 0.68826(14) 0.62745(15) 0.3673(3)
C2_5 C 0.72213(15) 0.60860(15) 0.3560(3)
H1_5 H 0.7359 0.6098 0.2914
C3_5 C 0.73310(15) 0.58997(15) 0.4366(3)
H2_5 H 0.7168 0.5882 0.4979
C4_5 C 0.76679(16) 0.57176(16) 0.4441(4)
C5_5 C 0.79778(16) 0.57379(16) 0.3653(3)
C6_5 C 0.83154(19) 0.55883(18) 0.3829(5)
H3_5 H 0.8522 0.5606 0.3296
C7_5 C 0.8344(2) 0.54126(19) 0.4800(5)
H4_5 H 0.8574 0.5319 0.4919
C8_5 C 0.8035(2) 0.5373(2) 0.5582(5)
H5_5 H 0.8048 0.5247 0.6226
C9_5 C 0.77020(19) 0.55237(18) 0.5406(4)
H6_5 H 0.7493 0.5495 0.5942
C10_5 C 0.76305(16) 0.64081(16) 0.0828(3)
C11_5 C 0.79659(16) 0.62554(16) 0.0425(3)
H7_5 H 0.8297 0.6470 0.0489
H12_5 H 0.8747 0.6120 0.0439
C19_6 C 0.57765(16) 0.57346(17) 0.1482(3)
H13_6 H 0.5822 0.5841 0.2168
C20_6 C 0.53233(15) 0.53691(16) 0.1186(3)
H14_6 H 0.5073 0.5235 0.1671
C21_6 C 0.52399(15) 0.52004(15) 0.0169(3)
N1_6 N 0.61519(12) 0.59419(12) 0.0834(3)
O1_4 O 0.67711(10) 0.63368(10) 0.4578(2)
O2_5 O 0.67121(10) 0.63709(10) 0.2880(2)
O3_5 O 0.71747(11) 0.61158(11) 0.0765(2)
O4_5 O 0.77978(11) 0.68216(12) 0.1211(3)
O5_5 O 0.79524(13) 0.59119(12) 0.2715(3)
H17_5 H 0.8222 0.6047 0.2445
C35_7 C 0.21734(16) 0.41672(17) 0.0023(3)
H26_7 H 0.2504 0.4378 0.0098
C36_7 C 0.18459(16) 0.43305(17) 0.0411(4)
C37_7 C 0.20090(18) 0.47061(18) 0.1147(4)
C38_7 C 0.17005(19) 0.48646(19) 0.1509(4)
H27_7 H 0.1811 0.5112 0.2000
C39_5 C 0.12324(18) 0.46575(19) 0.1143(4)
H28_5 H 0.1030 0.4771 0.1377
C40_7 C 0.10610(17) 0.42812(18) 0.0429(4)
H29_5 H 0.0741 0.4134 0.0202
C41_7 C 0.13673(17) 0.41254(17) 0.0056(4)
C45_6 C 0.43656(16) 0.45751(16) 0.0512(3)
H33_6 H 0.4401 0.4670 0.1207
C46_6 C 0.39248(16) 0.42148(16) 0.0155(3)
H34_6 H 0.3667 0.4073 0.0621
O14_7 O 0.24706(14) 0.49015(17) 0.1485(4)
H36_7 H 0.2535 0.5132 0.1868
Zn3_4 Zn 0.625869(23) 0.649940(16) 0.46953(4)
C12_6 C 0.80063(23) 0.21734(16) 0.9977(3)
H8_6 H 0.8127 0.2504 0.9902
C13_6 C 0.75155(23) 0.18459(16) 0.9589(4)
C14_6 C 0.73030(25) 0.20090(18) 0.8853(4)
C15_6 C 0.68360(27) 0.17005(19) 0.8491(4)
H9_6 H 0.6700 0.1811 0.8000
C16_6 C 0.65750(26) 0.12324(18) 0.8857(4)
H10_6 H 0.6260 0.1030 0.8623
C17_6 C 0.67799(25) 0.10610(17) 0.9571(4)
H11_6 H 0.6608 0.0741 0.9798
C18_6 C 0.72420(24) 0.13673(17) 0.9944(4)
C22_7 C 0.97906(23) 0.43656(16) 0.9488(3)
H15_7 H 0.9732 0.4401 0.8793
C23_7 C 0.97101(23) 0.39248(16) 0.9845(3)
H16_7 H 0.9595 0.3667 0.9379
O6_6 O 0.75692(22) 0.24706(14) 0.8515(4)
H18_6 H 0.7404 0.2535 0.8132
H31_7 H 0.9980 0.5822 0.7832
C43_7 C 0.99541(22) 0.53233(15) 0.8814(3)
H32_7 H 0.9837 0.5073 0.8329
O9_6 O 0.98956(17) 0.69965(10) 0.8755(2)
H19_9 H 0.9308 0.7235 0.0419
H21_9 H 0.8145 0.7727 0.0037
C33_9 C 0.90362(16) 0.69252(16) 0.2505(3)
C34_9 C 0.87008(16) 0.70779(16) 0.2908(3)
H25_9 H 0.8370 0.6863 0.2844
C35_8 C 0.88401(16) 0.75005(17) 0.3356(3)
H26_8 H 0.9171 0.7711 0.3431
C36_8 C 0.85126(16) 0.76638(17) 0.3744(4)
C37_8 C 0.86757(18) 0.80394(18) 0.4480(4)
C38_8 C 0.83672(19) 0.81979(19) 0.4842(4)
H27_8 H 0.8478 0.8445 0.5333
C39_6 C 0.78991(18) 0.79908(19) 0.4476(4)
H28_6 H 0.7697 0.8104 0.4710
C40_8 C 0.77277(17) 0.76145(18) 0.3762(4)
H29_6 H 0.7408 0.7467 0.3535
C41_8 C 0.80340(17) 0.74587(17) 0.3389(4)
H30_9 H 0.7920 0.7213 0.2894
O10_9 O 0.99546(10) 0.69624(10) 0.0453(2)
O11_9 O 0.94920(11) 0.72175(11) 0.2568(2)
O12_9 O 0.88689(11) 0.65117(12) 0.2122(3)
O13_9 O 0.87143(13) 0.74214(12) 0.0618(3)
H35_9 H 0.8445 0.7286 0.0888
O14_8 O 0.91373(14) 0.82348(17) 0.4818(4)
H36_8 H 0.9202 0.8465 0.5201
C24_9 C 0.97841(14) 0.70588(15) 0.9660(3)
C25_9 C 0.94454(15) 0.72473(15) 0.9773(3)
C26_9 C 0.93357(15) 0.74336(15) 0.8967(3)
H20_9 H 0.9499 0.7451 0.8354
C27_9 C 0.89988(16) 0.76157(16) 0.8892(4)
C28_9 C 0.86889(16) 0.75954(16) 0.9680(3)
C29_9 C 0.83513(19) 0.77450(18) 0.9504(5)
C30_9 C 0.8323(2) 0.79207(19) 0.8533(5)
H22_9 H 0.8093 0.8014 0.8414
C31_9 C 0.8632(2) 0.7960(2) 0.7751(5)
H23_9 H 0.8619 0.8086 0.7107
C32_9 C 0.89647(19) 0.78096(18) 0.7927(4)
H24_9 H 0.9174 0.7838 0.7391
C1_6 C 0.60586(21) 0.64508(14) 0.7007(3)
C2_6 C 0.55314(21) 0.61121(15) 0.6894(3)
H1_6 H 0.5406 0.5975 0.6248
C3_6 C 0.52354(21) 0.60024(15) 0.7700(3)
H2_6 H 0.5381 0.6166 0.8313
C4_6 C 0.47164(23) 0.56655(16) 0.7775(4)
C5_6 C 0.44268(23) 0.53556(16) 0.6987(3)
C6_6 C 0.39396(26) 0.50180(19) 0.7163(5)
H3_6 H 0.3751 0.4812 0.6630
C7_6 C 0.37356(28) 0.4990(2) 0.8134(5)
H4_6 H 0.3412 0.4760 0.8253
C8_6 C 0.4005(3) 0.5299(2) 0.8916(5)
H5_6 H 0.3866 0.5286 0.9560
C9_6 C 0.44884(26) 0.56314(19) 0.8740(4)
H6_6 H 0.4669 0.5841 0.9276
C10_6 C 0.54443(23) 0.57029(16) 0.4162(3)
C11_6 C 0.49562(23) 0.53675(16) 0.3759(3)
H7_6 H 0.4840 0.5037 0.3823
C12_7 C 0.46729(23) 0.55068(16) 0.3311(3)
H8_7 H 0.4793 0.5838 0.3236
C13_7 C 0.41821(23) 0.51793(16) 0.2923(4)
C14_7 C 0.39696(25) 0.53424(18) 0.2187(4)
C15_7 C 0.35026(27) 0.50339(19) 0.1825(4)
H9_7 H 0.3366 0.5145 0.1334
C16_7 C 0.32416(26) 0.45658(18) 0.2191(4)
H10_7 H 0.2926 0.4364 0.1957
C17_7 C 0.34465(25) 0.43944(17) 0.2905(4)
H11_7 H 0.3274 0.4075 0.3132
C18_7 C 0.39086(24) 0.47007(17) 0.3278(4)
H12_6 H 0.4040 0.4587 0.3773
C19_7 C 0.66248(23) 0.75569(16) 0.4816(3)
H13_7 H 0.6686 0.7512 0.5502
C20_7 C 0.67125(22) 0.80101(15) 0.4520(3)
H14_7 H 0.6829 0.8261 0.5005
C21_7 C 0.66272(21) 0.80935(15) 0.3503(3)
C22_8 C 0.64572(23) 0.76990(16) 0.2822(3)
H15_8 H 0.6398 0.7735 0.2127
C23_8 C 0.63767(23) 0.72582(16) 0.3179(3)
H16_8 H 0.6261 0.7001 0.2713
N1_7 N 0.64567(17) 0.71815(12) 0.4168(3)
O2_6 O 0.63255(14) 0.66213(10) 0.6214(2)
O3_6 O 0.56078(16) 0.61587(11) 0.4099(2)
O4_6 O 0.56905(16) 0.55356(11) 0.4545(3)
O5_6 O 0.46262(18) 0.53810(13) 0.6049(3)
H17_6 H 0.4492 0.5112 0.5779
O6_7 O 0.42358(22) 0.58040(14) 0.1849(4)
H18_7 H 0.4070 0.5869 0.1466
C42_8 C 0.67085(23) 0.91098(16) 0.1851(3)
H31_8 H 0.6647 0.9155 0.1165
C43_8 C 0.66208(22) 0.86566(15) 0.2147(3)
H32_8 H 0.6504 0.8406 0.1662
C44_8 C 0.67061(21) 0.85732(15) 0.3164(3)
C45_7 C 0.68761(23) 0.89677(16) 0.3845(3)
H33_7 H 0.6935 0.8932 0.4540
C46_7 C 0.69566(23) 0.94085(16) 0.3488(3)
H34_7 H 0.7072 0.9666 0.3954
N2_8 N 0.68766(17) 0.94852(12) 0.2499(3)
Zn3_5 Zn 0.357404(28) 0.040797(23) 0.13619(4)
C1_7 C 0.37255(15) 0.06080(21) 0.3673(3)
C2_7 C 0.39140(15) 0.11352(21) 0.3560(3)
H1_7 H 0.3902 0.1260 0.2914
C3_7 C 0.41003(15) 0.14312(21) 0.4366(3)
H2_7 H 0.4118 0.1285 0.4979
C4_7 C 0.42824(16) 0.19502(23) 0.4441(4)
C5_7 C 0.42621(16) 0.22398(23) 0.3653(3)
C6_7 C 0.44117(18) 0.27270(26) 0.3829(5)
H3_7 H 0.4394 0.2915 0.3296
C7_7 C 0.45874(19) 0.29310(28) 0.4800(5)
H4_7 H 0.4681 0.3254 0.4919
C8_7 C 0.4627(2) 0.2661(3) 0.5582(5)
H5_7 H 0.4753 0.2800 0.6226
C9_7 C 0.44763(18) 0.21782(26) 0.5406(4)
H6_7 H 0.4505 0.1997 0.5942
C10_7 C 0.35919(16) 0.12223(23) 0.0828(3)
C11_7 C 0.37446(16) 0.17104(23) 0.0425(3)
H7_7 H 0.3530 0.1826 0.0489
H12_7 H 0.3880 0.2626 0.0439
C19_8 C 0.42654(17) 0.00418(23) 0.1482(3)
C21_8 C 0.47996(15) 0.00394(21) 0.0169(3)
N1_8 N 0.40581(12) 0.02099(17) 0.0834(3)
O1_5 O 0.36632(10) 0.04342(14) 0.4578(2)
O2_7 O 0.36291(10) 0.03411(14) 0.2880(2)
O3_7 O 0.38842(11) 0.10588(16) 0.0765(2)
O4_7 O 0.31784(12) 0.09761(16) 0.1211(3)
O5_7 O 0.40881(12) 0.20404(18) 0.2715(3)
H17_7 H 0.3953 0.2174 0.2445
O4_8 O 0.44644(11) 0.01550(12) 0.4545(3)
C1_8 C 0.27253(21) 0.97841(14) 0.0340(3)
C2_8 C 0.21981(21) 0.94454(15) 0.0227(3)
C3_8 C 0.19021(21) 0.93357(15) 0.1033(3)
H2_8 H 0.2048 0.9499 0.1646
C4_8 C 0.13831(23) 0.89988(16) 0.1108(4)
C5_8 C 0.10935(23) 0.86889(16) 0.0320(3)
C6_8 C 0.06063(26) 0.83513(19) 0.0496(5)
C7_8 C 0.04023(28) 0.8323(2) 0.1467(5)
H4_8 H 0.0079 0.8093 0.1586
C8_8 C 0.0672(3) 0.8632(2) 0.2249(5)
H5_8 H 0.0533 0.8619 0.2893
C9_8 C 0.11551(26) 0.89647(19) 0.2073(4)
H6_8 H 0.1336 0.9174 0.2609
O1_6 O 0.28991(14) 0.98956(10) 0.1245(2)
H1_8 H 0.2073 0.9308 0.9581
H3_8 H 0.0418 0.8145 0.9963
C10_8 C 0.21110(23) 0.90362(16) 0.7495(3)
C11_8 C 0.16229(23) 0.87008(16) 0.7092(3)
H7_8 H 0.1507 0.8370 0.7156
C12_8 C 0.13396(23) 0.88401(16) 0.6644(3)
H8_8 H 0.1460 0.9171 0.6569
C13_8 C 0.08488(23) 0.85126(16) 0.6256(4)
C14_8 C 0.06363(25) 0.86757(18) 0.5520(4)
C15_8 C 0.01693(27) 0.83672(19) 0.5158(4)
H9_8 H 0.0033 0.8478 0.4667
C17_8 C 0.01132(25) 0.77277(17) 0.6238(4)
C18_8 C 0.05753(24) 0.80340(17) 0.6611(4)
H12_8 H 0.0707 0.7920 0.7106
O2_8 O 0.29922(14) 0.99546(10) 0.9547(2)
O3_8 O 0.22745(16) 0.94920(11) 0.7432(2)
O4_9 O 0.23572(16) 0.88689(11) 0.7878(3)
O5_8 O 0.12929(18) 0.87143(13) 0.9382(3)
H17_8 H 0.1159 0.8445 0.9112
O6_8 O 0.09025(22) 0.91373(14) 0.5182(4)
H18_8 H 0.0737 0.9202 0.4799
Zn1_3 Zn 0.292536(23) 0.983273(16) 0.80286(4)
O7_3 O 0.34377(17) 0.96702(10) 0.7912(2)
H13_8 H 0.4159 0.9980 0.2168
C20_8 C 0.46309(16) 0.99541(22) 0.1186(3)
H14_8 H 0.4765 0.9837 0.1671
C35_9 C 0.58328(17) 0.80063(23) 0.0023(3)
H26_9 H 0.5622 0.8127 0.0098
C36_9 C 0.56695(17) 0.75155(23) 0.0411(4)
C37_9 C 0.52939(18) 0.73030(25) 0.1147(4)
C38_9 C 0.51354(19) 0.68360(27) 0.1509(4)
H27_9 H 0.4888 0.6700 0.2000
C39_7 C 0.53425(19) 0.65750(26) 0.1143(4)
H28_7 H 0.5229 0.6260 0.1377
C40_9 C 0.57188(18) 0.67799(25) 0.0429(4)
H29_7 H 0.5866 0.6608 0.0202
C41_9 C 0.58746(17) 0.72420(24) 0.0056(4)
C45_8 C 0.54249(16) 0.97906(23) 0.0512(3)
H33_8 H 0.5330 0.9732 0.1207
C46_8 C 0.57852(16) 0.97101(23) 0.0155(3)
H34_8 H 0.5927 0.9595 0.0621
O14_9 O 0.50985(17) 0.75692(22) 0.1485(4)
H36_9 H 0.4868 0.7404 0.1868
Zn3_6 Zn 0.350060(16) 0.975930(28) 0.46953(4)
C1_9 C 0.35492(14) 0.96079(15) 0.7007(3)
C2_9 C 0.38879(15) 0.94194(15) 0.6894(3)
H1_9 H 0.4025 0.9432 0.6248
C3_9 C 0.39976(15) 0.92331(15) 0.7700(3)
H2_9 H 0.3834 0.9216 0.8313
C4_9 C 0.43345(16) 0.90510(16) 0.7775(4)
C5_9 C 0.46444(16) 0.90713(16) 0.6987(3)
C6_9 C 0.49820(19) 0.89217(18) 0.7163(5)
H3_9 H 0.5188 0.8940 0.6630
C7_9 C 0.5010(2) 0.87460(19) 0.8134(5)
H4_9 H 0.5240 0.8653 0.8253
C8_9 C 0.4701(2) 0.8707(2) 0.8916(5)
H5_9 H 0.4714 0.8581 0.9560
C9_9 C 0.43686(19) 0.88571(18) 0.8740(4)
H6_9 H 0.4159 0.8829 0.9276
C10_9 C 0.42971(16) 0.97415(16) 0.4162(3)
C11_9 C 0.46325(16) 0.95888(16) 0.3759(3)
H7_9 H 0.4963 0.9804 0.3823
C12_9 C 0.44932(16) 0.91662(17) 0.3311(3)
H8_9 H 0.4162 0.8956 0.3236
C13_9 C 0.48207(16) 0.90029(17) 0.2923(4)
C14_9 C 0.46576(18) 0.86273(18) 0.2187(4)
C15_9 C 0.49661(19) 0.84688(19) 0.1825(4)
H9_9 H 0.4855 0.8222 0.1334
C16_8 C 0.54342(18) 0.86759(19) 0.2191(4)
H10_8 H 0.5636 0.8563 0.1957
C17_9 C 0.56056(17) 0.90522(18) 0.2905(4)
H11_8 H 0.5925 0.9200 0.3132
C18_9 C 0.52993(17) 0.92080(17) 0.3278(4)
H12_9 H 0.5413 0.9454 0.3773
C19_9 C 0.24431(16) 0.90680(17) 0.4816(3)
H13_9 H 0.2488 0.9175 0.5502
C20_9 C 0.19899(15) 0.87025(16) 0.4520(3)
H14_9 H 0.1739 0.8569 0.5005
C21_9 C 0.19065(15) 0.85338(15) 0.3503(3)
C22_9 C 0.23010(16) 0.87583(16) 0.2822(3)
H15_9 H 0.2265 0.8664 0.2127
C23_9 C 0.27418(16) 0.91186(16) 0.3179(3)
H16_9 H 0.2999 0.9261 0.2713
N1_9 N 0.28185(12) 0.92753(12) 0.4168(3)
O2_9 O 0.33787(10) 0.97043(10) 0.6214(2)
O3_9 O 0.38413(11) 0.94492(11) 0.4099(2)
O5_9 O 0.46190(13) 0.92453(12) 0.6049(3)
H17_9 H 0.4888 0.9381 0.5779
O6_9 O 0.41960(14) 0.84319(17) 0.1849(4)
H18_9 H 0.4131 0.8202 0.1466
C42_9 C 0.08902(16) 0.75987(17) 0.1851(3)
H31_9 H 0.0845 0.7492 0.1165
C43_9 C 0.13434(15) 0.79642(16) 0.2147(3)
H32_9 H 0.1594 0.8098 0.1662
C44_9 C 0.14268(15) 0.81329(15) 0.3164(3)
C45_9 C 0.10323(16) 0.79084(16) 0.3845(3)
H33_9 H 0.1068 0.8003 0.4540
C46_9 C 0.05915(16) 0.75481(16) 0.3488(3)
H34_9 H 0.0334 0.7406 0.3954
N2_9 N 0.05148(12) 0.73914(12) 0.2499(3)
C16_9 C 0.99083(26) 0.78991(18) 0.5524(4)
H10_9 H 0.9593 0.7697 0.5290
H11_9 H 0.9941 0.7408 0.6465
C39_8 C 0.20092(19) 0.99083(26) 0.4476(4)
H28_8 H 0.1896 0.9593 0.4710
H29_8 H 0.2533 0.9941 0.3535
C39_9 C 0.00917(26) 0.21009(18) 0.4476(4)
H28_9 H 0.0407 0.2303 0.4710
H29_9 H 0.0059 0.2592 0.3535
loop_
_geom_bond_atom_site_label_1
_geom_bond_atom_site_label_2
_geom_bond_site_symmetry_1
_geom_bond_site_symmetry_2
C1 C2 1_555 1_555
C3 C2 1_555 1_555
H2 C3 1_555 1_555
C4 C3 1_555 1_555
C5 C4 1_555 1_555
C6 C5 1_555 1_555
C7 C6 1_555 1_555
H4 C7 1_555 1_555
C8 C7 1_555 1_555
H5 C8 1_555 1_555
C9 C4 1_555 1_555
H6 C9 1_555 1_555
O1 C1 1_555 1_555
C8 C9 1_555 1_555
C10 C11 1_555 1_555
C11 H7 1_555 1_555
C12 C11 1_555 1_555
H8 C12 1_555 1_555
C13 C12 1_555 1_555
C14 C13 1_555 1_555
C15 C14 1_555 1_555
H9 C15 1_555 1_555
C16 C15 1_555 1_555
H10 C16 1_555 1_555
C17 C16 1_555 1_555
H11 C17 1_555 1_555
C18 C13 1_555 1_555
H12 C18 1_555 1_555
O3 C10 1_555 1_555
O4 C10 1_555 1_555
H17 O5 1_555 1_555
O6 C14 1_555 1_555
H18 O6 1_555 1_555
O7 Zn1 1_555 1_555
C17 C18 1_555 1_555
O2 Zn1 1_555 1_555
O3 Zn1 1_555 1_555
C19 H13 1_555 1_555
C20 C19 1_555 1_555
H14 C20 1_555 1_555
C21 C20 1_555 1_555
C22 C21 1_555 1_555
H15 C22 1_555 1_555
C23 C22 1_555 1_555
H16 C23 1_555 1_555
N1 C19 1_555 1_555
C24 C25 1_555 1_555
C25 H19 1_555 1_555
C26 C25 1_555 1_555
H20 C26 1_555 1_555
C27 C26 1_555 1_555
C28 C27 1_555 1_555
C29 C28 1_555 1_555
H21 C29 1_555 1_555
C30 C29 1_555 1_555
H22 C30 1_555 1_555
C31 C30 1_555 1_555
H23 C31 1_555 1_555
C32 C27 1_555 1_555
H24 C32 1_555 1_555
C33 C34 1_555 1_555
C34 H25 1_555 1_555
C35 C34 1_555 1_555
H26 C35 1_555 1_555
C36 C35 1_555 1_555
C37 C36 1_555 1_555
C38 C37 1_555 1_555
H27 C38 1_555 1_555
C39 C38 1_555 1_555
H28 C39 1_555 1_555
C40 C39 1_555 1_555
H29 C40 1_555 1_555
C41 C36 1_555 1_555
H30 C41 1_555 1_555
C42 H31 1_555 1_555
C43 C42 1_555 1_555
H32 C43 1_555 1_555
C44 C21 1_555 1_555
C45 C44 1_555 1_555
H33 C45 1_555 1_555
C46 C45 1_555 1_555
H34 C46 1_555 1_555
N2 C42 1_555 1_555
O8 C24 1_555 1_555
O9 Zn2 1_555 1_555
O10 C24 1_555 1_555
O11 C33 1_555 1_555
O12 C33 1_555 1_555
O13 C28 1_555 1_555
H35 O13 1_555 1_555
O14 C37 1_555 1_555
H36 O14 1_555 1_555
Zn2 N2 1_555 1_555
Zn4 O8 1_555 1_555
C23 N1 1_555 1_555
C31 C32 1_555 1_555
C40 C41 1_555 1_555
C43 C44 1_555 1_555
C46 N2 1_555 1_555
O10 Zn2 1_555 1_555
O11 Zn2 1_555 1_555
H8_2 C12_2 1_555 1_555
C13_2 C12_2 1_555 1_555
C14_2 C13_2 1_555 1_555
C15_2 C14_2 1_555 1_555
H9_2 C15_2 1_555 1_555
C16_2 C15_2 1_555 1_555
H10_2 C16_2 1_555 1_555
C17_2 C16_2 1_555 1_555
H11_2 C17_2 1_555 1_555
C18_2 C13_2 1_555 1_555
H15_2 C22_2 1_555 1_555
C23_2 C22_2 1_555 1_555
H16_2 C23_2 1_555 1_555
O6_2 C14_2 1_555 1_555
H18_2 O6_2 1_555 1_555
C24_2 C25_2 1_555 1_555
C25_2 H19_2 1_555 1_555
C26_2 C25_2 1_555 1_555
H20_2 C26_2 1_555 1_555
C27_2 C26_2 1_555 1_555
C28_2 C27_2 1_555 1_555
C29_2 C28_2 1_555 1_555
H21_2 C29_2 1_555 1_555
C30_2 C29_2 1_555 1_555
H22_2 C30_2 1_555 1_555
C31_2 C30_2 1_555 1_555
H23_2 C31_2 1_555 1_555
C32_2 C27_2 1_555 1_555
H24_2 C32_2 1_555 1_555
C33_2 C34_2 1_555 1_555
C34_2 H25_2 1_555 1_555
C42_2 H31_2 1_555 1_555
C43_2 C42_2 1_555 1_555
H32_2 C43_2 1_555 1_555
N2_2 C42_2 1_555 1_555
O9 C24_2 1_555 1_555
O9_2 Zn2_2 1_555 1_555
O10_2 C24_2 1_555 1_555
O11_2 C33_2 1_555 1_555
O12_2 C33_2 1_555 1_555
O13_2 C28_2 1_555 1_555
H35_2 O13_2 1_555 1_555
Zn2_2 N2_2 1_555 1_555
C17_2 C18_2 1_555 1_555
C31_2 C32_2 1_555 1_555
C43_2 C44_2 1_555 1_555
O10_2 Zn2_2 1_555 1_555
O11_2 Zn2_2 1_555 1_555
H14_2 C20_2 1_555 1_555
H26_2 C35_2 1_555 1_555
C36_2 C35_2 1_555 1_555
C37_2 C36_2 1_555 1_555
C38_2 C37_2 1_555 1_555
H27_2 C38_2 1_555 1_555
C39_2 C38_2 1_555 1_555
H28_2 C39_2 1_555 1_555
C40_2 C39_2 1_555 1_555
H29_2 C40_2 1_555 1_555
C41_2 C36_2 1_555 1_555
H33_2 C45_2 1_555 1_555
C46_2 C45_2 1_555 1_555
H34_2 C46_2 1_555 1_555
O14_2 C37_2 1_555 1_555
H36_2 O14_2 1_555 1_555
C40_2 C41_2 1_555 1_555
C1_2 C2_2 1_555 1_555
C2_2 H1_2 1_555 1_555
C3_2 C2_2 1_555 1_555
H2_2 C3_2 1_555 1_555
C4_2 C3_2 1_555 1_555
C5_2 C4_2 1_555 1_555
C6_2 C5_2 1_555 1_555
H3_2 C6_2 1_555 1_555
C7_2 C6_2 1_555 1_555
H4_2 C7_2 1_555 1_555
C8_2 C7_2 1_555 1_555
H5_2 C8_2 1_555 1_555
C9_2 C4_2 1_555 1_555
H6_2 C9_2 1_555 1_555
C10_2 C11_2 1_555 1_555
C11_2 H7_2 1_555 1_555
C12_3 C11_2 1_555 1_555
H8_3 C12_3 1_555 1_555
C13_3 C12_3 1_555 1_555
C14_3 C13_3 1_555 1_555
C15_3 C14_3 1_555 1_555
H9_3 C15_3 1_555 1_555
C16_3 C15_3 1_555 1_555
H10_3 C16_3 1_555 1_555
C17_3 C16_3 1_555 1_555
H11_3 C17_3 1_555 1_555
C18_3 C13_3 1_555 1_555
H12_2 C18_3 1_555 1_555
C19_2 H13_3 1_555 1_555
C20_3 C19_2 1_555 1_555
H14_3 C20_3 1_555 1_555
C21_2 C20_3 1_555 1_555
C22_3 C21_2 1_555 1_555
H15_3 C22_3 1_555 1_555
C23_3 C22_3 1_555 1_555
H16_3 C23_3 1_555 1_555
N1_2 C19_2 1_555 1_555
O7 C1_2 1_555 1_555
O2_2 C1_2 1_555 1_555
O3_2 C10_2 1_555 1_555
O5_2 C5_2 1_555 1_555
H17_2 O5_2 1_555 1_555
O6_3 C14_3 1_555 1_555
H18_3 O6_3 1_555 1_555
Zn3 N1_2 1_555 1_555
C33_3 C34_3 1_555 1_555
C34_3 H25_3 1_555 1_555
C35_3 C34_3 1_555 1_555
H26_3 C35_3 1_555 1_555
C36_3 C35_3 1_555 1_555
C37_3 C36_3 1_555 1_555
C38_3 C37_3 1_555 1_555
H27_3 C38_3 1_555 1_555
C41_3 C36_3 1_555 1_555
H30_3 C41_3 1_555 1_555
C42_3 H31_3 1_555 1_555
C43_3 C42_3 1_555 1_555
H32_3 C43_3 1_555 1_555
C44_3 C21_2 1_555 1_555
C45_3 C44_3 1_555 1_555
H33_3 C45_3 1_555 1_555
C46_3 C45_3 1_555 1_555
H34_3 C46_3 1_555 1_555
N2_3 C42_3 1_555 1_555
O11_3 C33_3 1_555 1_555
O12_3 C33_3 1_555 1_555
H35_3 O13_3 1_555 1_555
O14_3 C37_3 1_555 1_555
H36_3 O14_3 1_555 1_555
Zn4 N2_3 1_555 1_555
C8_2 C9_2 1_555 1_555
C17_3 C18_3 1_555 1_555
C23_3 N1_2 1_555 1_555
O2_2 Zn3 1_555 1_555
O3_2 Zn3 1_555 1_555
C40_3 C41_3 1_555 1_555
C43_3 C44_3 1_555 1_555
C46_3 N2_3 1_555 1_555
O10_3 Zn4 1_555 1_555
O11_3 Zn4 1_555 1_555
C24_3 C25_3 1_555 1_555
C26_3 C25_3 1_555 1_555
H20_3 C26_3 1_555 1_555
C27_3 C26_3 1_555 1_555
C28_3 C27_3 1_555 1_555
C29_3 C28_3 1_555 1_555
C30_3 C29_3 1_555 1_555
H22_3 C30_3 1_555 1_555
C31_3 C30_3 1_555 1_555
H23_3 C31_3 1_555 1_555
C32_3 C27_3 1_555 1_555
H24_3 C32_3 1_555 1_555
O9_2 C24_3 1_555 1_555
C31_3 C32_3 1_555 1_555
C1_3 C2_3 1_555 1_555
C2_3 H1_3 1_555 1_555
C3_3 C2_3 1_555 1_555
H2_3 C3_3 1_555 1_555
C4_3 C3_3 1_555 1_555
C5_3 C4_3 1_555 1_555
C6_3 C5_3 1_555 1_555
H3_3 C6_3 1_555 1_555
C7_3 C6_3 1_555 1_555
H4_3 C7_3 1_555 1_555
C8_3 C7_3 1_555 1_555
H5_3 C8_3 1_555 1_555
C9_3 C4_3 1_555 1_555
H6_3 C9_3 1_555 1_555
C10_3 C11_3 1_555 1_555
C11_3 H7_3 1_555 1_555
N1_3 C19_3 1_555 1_555
O1_2 C1_3 1_555 1_555
O2_3 C1_3 1_555 1_555
O3_3 C10_3 1_555 1_555
O4_2 C10_3 1_555 1_555
O5_3 C5_3 1_555 1_555
H17_3 O5_3 1_555 1_555
Zn3_2 N1_3 1_555 1_555
C8_3 C9_3 1_555 1_555
O2_3 Zn3_2 1_555 1_555
O3_3 Zn3_2 1_555 1_555
C19_4 H13_4 1_555 1_555
C20_4 C19_4 1_555 1_555
H14_4 C20_4 1_555 1_555
C21_4 C20_4 1_555 1_555
C22_4 C21_4 1_555 1_555
H15_4 C22_4 1_555 1_555
C23_4 C22_4 1_555 1_555
H16_4 C23_4 1_555 1_555
N1_4 C19_4 1_555 1_555
C24_4 C25_4 1_555 1_555
C25_4 H19_4 1_555 1_555
C26_4 C25_4 1_555 1_555
H20_4 C26_4 1_555 1_555
C27_4 C26_4 1_555 1_555
C28_4 C27_4 1_555 1_555
C29_4 C28_4 1_555 1_555
H21_4 C29_4 1_555 1_555
C30_4 C29_4 1_555 1_555
H22_4 C30_4 1_555 1_555
C31_4 C30_4 1_555 1_555
H23_4 C31_4 1_555 1_555
C32_4 C27_4 1_555 1_555
H24_4 C32_4 1_555 1_555
C33_4 C34_4 1_555 1_555
C34_4 H25_4 1_555 1_555
C35_4 C34_4 1_555 1_555
H26_4 C35_4 1_555 1_555
C36_4 C35_4 1_555 1_555
C37_4 C36_4 1_555 1_555
C38_4 C37_4 1_555 1_555
H27_4 C38_4 1_555 1_555
C39_3 C38_4 1_555 1_555
H28_3 C39_3 1_555 1_555
C40_4 C39_3 1_555 1_555
H29_3 C40_4 1_555 1_555
C41_4 C36_4 1_555 1_555
H30_4 C41_4 1_555 1_555
C42_4 H31_4 1_555 1_555
C43_4 C42_4 1_555 1_555
H32_4 C43_4 1_555 1_555
C44_4 C21_4 1_555 1_555
C45_4 C44_4 1_555 1_555
H33_4 C45_4 1_555 1_555
C46_4 C45_4 1_555 1_555
H34_4 C46_4 1_555 1_555
N2_4 C42_4 1_555 1_555
O8_2 C24_4 1_555 1_555
O10_4 C24_4 1_555 1_555
O11_4 C33_4 1_555 1_555
O13_4 C28_4 1_555 1_555
H35_4 O13_4 1_555 1_555
O14_4 C37_4 1_555 1_555
H36_4 O14_4 1_555 1_555
Zn2_3 N2_4 1_555 1_555
Zn4_2 O8_2 1_555 1_555
C23_4 N1_4 1_555 1_555
C31_4 C32_4 1_555 1_555
C40_4 C41_4 1_555 1_555
C43_4 C44_4 1_555 1_555
C46_4 N2_4 1_555 1_555
O10_4 Zn2_3 1_555 1_555
O11_4 Zn2_3 1_555 1_555
H8_4 C12_4 1_555 1_555
C13_4 C12_4 1_555 1_555
C14_4 C13_4 1_555 1_555
C15_4 C14_4 1_555 1_555
H9_4 C15_4 1_555 1_555
C16_4 C15_4 1_555 1_555
H10_4 C16_4 1_555 1_555
C17_4 C16_4 1_555 1_555
H11_4 C17_4 1_555 1_555
C18_4 C13_4 1_555 1_555
H15_5 C22_5 1_555 1_555
C23_5 C22_5 1_555 1_555
H16_5 C23_5 1_555 1_555
O6_4 C14_4 1_555 1_555
H18_4 O6_4 1_555 1_555
H32_5 C43_5 1_555 1_555
C17_4 C18_4 1_555 1_555
C33_5 C34_5 1_555 1_555
C34_5 H25_5 1_555 1_555
C35_5 C34_5 1_555 1_555
H26_5 C35_5 1_555 1_555
C36_5 C35_5 1_555 1_555
C37_5 C36_5 1_555 1_555
C38_5 C37_5 1_555 1_555
H27_5 C38_5 1_555 1_555
C41_5 C36_5 1_555 1_555
H30_5 C41_5 1_555 1_555
O11_5 C33_5 1_555 1_555
O12_4 C33_5 1_555 1_555
H35_5 O13_5 1_555 1_555
O14_5 C37_5 1_555 1_555
H36_5 O14_5 1_555 1_555
C40_5 C41_5 1_555 1_555
O10_5 Zn4_2 1_555 1_555
O11_5 Zn4_2 1_555 1_555
C24_5 C25_5 1_555 1_555
C26_5 C25_5 1_555 1_555
H20_5 C26_5 1_555 1_555
C27_5 C26_5 1_555 1_555
C28_5 C27_5 1_555 1_555
C29_5 C28_5 1_555 1_555
C30_5 C29_5 1_555 1_555
H22_5 C30_5 1_555 1_555
C31_5 C30_5 1_555 1_555
H23_5 C31_5 1_555 1_555
C32_5 C27_5 1_555 1_555
H24_5 C32_5 1_555 1_555
O9_3 C24_5 1_555 1_555
C31_5 C32_5 1_555 1_555
C24_6 C25_6 1_555 1_555
C25_6 H19_6 1_555 1_555
C26_6 C25_6 1_555 1_555
H20_6 C26_6 1_555 1_555
C27_6 C26_6 1_555 1_555
C28_6 C27_6 1_555 1_555
C29_6 C28_6 1_555 1_555
H21_6 C29_6 1_555 1_555
C30_6 C29_6 1_555 1_555
H22_6 C30_6 1_555 1_555
C31_6 C30_6 1_555 1_555
H23_6 C31_6 1_555 1_555
C32_6 C27_6 1_555 1_555
H24_6 C32_6 1_555 1_555
C33_6 C34_6 1_555 1_555
C34_6 H25_6 1_555 1_555
N2_5 C42_5 1_555 1_555
O9_4 C24_6 1_555 1_555
O10_6 C24_6 1_555 1_555
O11_6 C33_6 1_555 1_555
O12_6 C33_6 1_555 1_555
O13_6 C28_6 1_555 1_555
H35_6 O13_6 1_555 1_555
Zn2_4 N2_5 1_555 1_555
C31_6 C32_6 1_555 1_555
O10_6 Zn2_4 1_555 1_555
O11_6 Zn2_4 1_555 1_555
C24_7 C25_7 1_555 1_555
C25_7 H19_7 1_555 1_555
C26_7 C25_7 1_555 1_555
H20_7 C26_7 1_555 1_555
C27_7 C26_7 1_555 1_555
C28_7 C27_7 1_555 1_555
C29_7 C28_7 1_555 1_555
H21_7 C29_7 1_555 1_555
C30_7 C29_7 1_555 1_555
H22_7 C30_7 1_555 1_555
C31_7 C30_7 1_555 1_555
H23_7 C31_7 1_555 1_555
C32_7 C27_7 1_555 1_555
H24_7 C32_7 1_555 1_555
C33_7 C34_7 1_555 1_555
C34_7 H25_7 1_555 1_555
N2_6 C42_6 1_555 1_555
O9_5 C24_7 1_555 1_555
O10_7 C24_7 1_555 1_555
O11_7 C33_7 1_555 1_555
O12_8 C33_7 1_555 1_555
O13_7 C28_7 1_555 1_555
H35_7 O13_7 1_555 1_555
Zn2_5 N2_6 1_555 1_555
C31_7 C32_7 1_555 1_555
O10_7 Zn2_5 1_555 1_555
O11_7 Zn2_5 1_555 1_555
H10_5 C16_5 1_555 1_555
C1_4 C2_4 1_555 1_555
C3_4 C2_4 1_555 1_555
H2_4 C3_4 1_555 1_555
C4_4 C3_4 1_555 1_555
C5_4 C4_4 1_555 1_555
C6_4 C5_4 1_555 1_555
C7_4 C6_4 1_555 1_555
H4_4 C7_4 1_555 1_555
C8_4 C7_4 1_555 1_555
H5_4 C8_4 1_555 1_555
C9_4 C4_4 1_555 1_555
H6_4 C9_4 1_555 1_555
O1_3 C1_4 1_555 1_555
Zn3_3 O1_3 1_555 1_555
C8_4 C9_4 1_555 1_555
C10_4 C11_4 1_555 1_555
C11_4 H7_4 1_555 1_555
C12_5 C11_4 1_555 1_555
H8_5 C12_5 1_555 1_555
C13_5 C12_5 1_555 1_555
C14_5 C13_5 1_555 1_555
C15_5 C14_5 1_555 1_555
H9_5 C15_5 1_555 1_555
C18_5 C13_5 1_555 1_555
H12_4 C18_5 1_555 1_555
C19_5 H13_5 1_555 1_555
C20_5 C19_5 1_555 1_555
H14_5 C20_5 1_555 1_555
C21_5 C20_5 1_555 1_555
C22_6 C21_5 1_555 1_555
H15_6 C22_6 1_555 1_555
C23_6 C22_6 1_555 1_555
H16_6 C23_6 1_555 1_555
N1_5 C19_5 1_555 1_555
O3_4 C10_4 1_555 1_555
O4_4 C10_4 1_555 1_555
H17_4 O5_4 1_555 1_555
O6_5 C14_5 1_555 1_555
H18_5 O6_5 1_555 1_555
Zn1_2 N1_5 1_555 1_555
C24_8 C25_8 1_555 1_555
C25_8 H19_8 1_555 1_555
C26_8 C25_8 1_555 1_555
H20_8 C26_8 1_555 1_555
C27_8 C26_8 1_555 1_555
C28_8 C27_8 1_555 1_555
C29_8 C28_8 1_555 1_555
H21_8 C29_8 1_555 1_555
C30_8 C29_8 1_555 1_555
H22_8 C30_8 1_555 1_555
C31_8 C30_8 1_555 1_555
H23_8 C31_8 1_555 1_555
C32_8 C27_8 1_555 1_555
H24_8 C32_8 1_555 1_555
C33_8 C34_8 1_555 1_555
C34_8 H25_8 1_555 1_555
C35_6 C34_8 1_555 1_555
H26_6 C35_6 1_555 1_555
C36_6 C35_6 1_555 1_555
C37_6 C36_6 1_555 1_555
C38_6 C37_6 1_555 1_555
H27_6 C38_6 1_555 1_555
C39_4 C38_6 1_555 1_555
H28_4 C39_4 1_555 1_555
C40_6 C39_4 1_555 1_555
H29_4 C40_6 1_555 1_555
C41_6 C36_6 1_555 1_555
H30_8 C41_6 1_555 1_555
C42_7 H31_6 1_555 1_555
C43_6 C42_7 1_555 1_555
H32_6 C43_6 1_555 1_555
C44_7 C21_5 1_555 1_555
C45_5 C44_7 1_555 1_555
H33_5 C45_5 1_555 1_555
C46_5 C45_5 1_555 1_555
H34_5 C46_5 1_555 1_555
N2_7 C42_7 1_555 1_555
O7_2 Zn1_2 1_555 1_555
O8_3 C24_8 1_555 1_555
O10_8 C24_8 1_555 1_555
O11_8 C33_8 1_555 1_555
O13_8 C28_8 1_555 1_555
H35_8 O13_8 1_555 1_555
O14_6 C37_6 1_555 1_555
H36_6 O14_6 1_555 1_555
Zn2_6 N2_7 1_555 1_555
Zn4_3 O8_3 1_555 1_555
C17_5 C18_5 1_555 1_555
C23_6 N1_5 1_555 1_555
O2_4 Zn1_2 1_555 1_555
O3_4 Zn1_2 1_555 1_555
C31_8 C32_8 1_555 1_555
C40_6 C41_6 1_555 1_555
C43_6 C44_7 1_555 1_555
C46_5 N2_7 1_555 1_555
O10_8 Zn2_6 1_555 1_555
O11_8 Zn2_6 1_555 1_555
C1_5 C2_5 1_555 1_555
C2_5 H1_5 1_555 1_555
C3_5 C2_5 1_555 1_555
H2_5 C3_5 1_555 1_555
C4_5 C3_5 1_555 1_555
C5_5 C4_5 1_555 1_555
C6_5 C5_5 1_555 1_555
H3_5 C6_5 1_555 1_555
C7_5 C6_5 1_555 1_555
H4_5 C7_5 1_555 1_555
C8_5 C7_5 1_555 1_555
H5_5 C8_5 1_555 1_555
C9_5 C4_5 1_555 1_555
H6_5 C9_5 1_555 1_555
C10_5 C11_5 1_555 1_555
C11_5 H7_5 1_555 1_555
C19_6 H13_6 1_555 1_555
C20_6 C19_6 1_555 1_555
H14_6 C20_6 1_555 1_555
C21_6 C20_6 1_555 1_555
N1_6 C19_6 1_555 1_555
O1_4 C1_5 1_555 1_555
O2_5 C1_5 1_555 1_555
O3_5 C10_5 1_555 1_555
O4_5 C10_5 1_555 1_555
O5_5 C5_5 1_555 1_555
H17_5 O5_5 1_555 1_555
Zn3_3 N1_6 1_555 1_555
H26_7 C35_7 1_555 1_555
C36_7 C35_7 1_555 1_555
C37_7 C36_7 1_555 1_555
C38_7 C37_7 1_555 1_555
H27_7 C38_7 1_555 1_555
C39_5 C38_7 1_555 1_555
H28_5 C39_5 1_555 1_555
C40_7 C39_5 1_555 1_555
H29_5 C40_7 1_555 1_555
C41_7 C36_7 1_555 1_555
H33_6 C45_6 1_555 1_555
C46_6 C45_6 1_555 1_555
H34_6 C46_6 1_555 1_555
O14_7 C37_7 1_555 1_555
H36_7 O14_7 1_555 1_555
Zn3_4 O1_4 1_555 1_555
C8_5 C9_5 1_555 1_555
O2_5 Zn3_3 1_555 1_555
O3_5 Zn3_3 1_555 1_555
C40_7 C41_7 1_555 1_555
H8_6 C12_6 1_555 1_555
C13_6 C12_6 1_555 1_555
C14_6 C13_6 1_555 1_555
C15_6 C14_6 1_555 1_555
H9_6 C15_6 1_555 1_555
C16_6 C15_6 1_555 1_555
H10_6 C16_6 1_555 1_555
C17_6 C16_6 1_555 1_555
H11_6 C17_6 1_555 1_555
C18_6 C13_6 1_555 1_555
H15_7 C22_7 1_555 1_555
C23_7 C22_7 1_555 1_555
H16_7 C23_7 1_555 1_555
O6_6 C14_6 1_555 1_555
H18_6 O6_6 1_555 1_555
H32_7 C43_7 1_555 1_555
C17_6 C18_6 1_555 1_555
C33_9 C34_9 1_555 1_555
C34_9 H25_9 1_555 1_555
C35_8 C34_9 1_555 1_555
H26_8 C35_8 1_555 1_555
C36_8 C35_8 1_555 1_555
C37_8 C36_8 1_555 1_555
C38_8 C37_8 1_555 1_555
H27_8 C38_8 1_555 1_555
C39_6 C38_8 1_555 1_555
H28_6 C39_6 1_555 1_555
C40_8 C39_6 1_555 1_555
H29_6 C40_8 1_555 1_555
C41_8 C36_8 1_555 1_555
H30_9 C41_8 1_555 1_555
O11_9 C33_9 1_555 1_555
O12_9 C33_9 1_555 1_555
H35_9 O13_9 1_555 1_555
O14_8 C37_8 1_555 1_555
H36_8 O14_8 1_555 1_555
C40_8 C41_8 1_555 1_555
O10_9 Zn4_3 1_555 1_555
O11_9 Zn4_3 1_555 1_555
C24_9 C25_9 1_555 1_555
C26_9 C25_9 1_555 1_555
H20_9 C26_9 1_555 1_555
C27_9 C26_9 1_555 1_555
C28_9 C27_9 1_555 1_555
C29_9 C28_9 1_555 1_555
C30_9 C29_9 1_555 1_555
H22_9 C30_9 1_555 1_555
C31_9 C30_9 1_555 1_555
H23_9 C31_9 1_555 1_555
C32_9 C27_9 1_555 1_555
H24_9 C32_9 1_555 1_555
O9_6 C24_9 1_555 1_555
C31_9 C32_9 1_555 1_555
C1_6 C2_6 1_555 1_555
C2_6 H1_6 1_555 1_555
C3_6 C2_6 1_555 1_555
H2_6 C3_6 1_555 1_555
C4_6 C3_6 1_555 1_555
C5_6 C4_6 1_555 1_555
C6_6 C5_6 1_555 1_555
H3_6 C6_6 1_555 1_555
C7_6 C6_6 1_555 1_555
H4_6 C7_6 1_555 1_555
C8_6 C7_6 1_555 1_555
H5_6 C8_6 1_555 1_555
C9_6 C4_6 1_555 1_555
H6_6 C9_6 1_555 1_555
C10_6 C11_6 1_555 1_555
C11_6 H7_6 1_555 1_555
C12_7 C11_6 1_555 1_555
H8_7 C12_7 1_555 1_555
C13_7 C12_7 1_555 1_555
C14_7 C13_7 1_555 1_555
C15_7 C14_7 1_555 1_555
H9_7 C15_7 1_555 1_555
C16_7 C15_7 1_555 1_555
H10_7 C16_7 1_555 1_555
C17_7 C16_7 1_555 1_555
H11_7 C17_7 1_555 1_555
C18_7 C13_7 1_555 1_555
H12_6 C18_7 1_555 1_555
C19_7 H13_7 1_555 1_555
C20_7 C19_7 1_555 1_555
H14_7 C20_7 1_555 1_555
C21_7 C20_7 1_555 1_555
C22_8 C21_7 1_555 1_555
H15_8 C22_8 1_555 1_555
C23_8 C22_8 1_555 1_555
H16_8 C23_8 1_555 1_555
N1_7 C19_7 1_555 1_555
O7_2 C1_6 1_555 1_555
O2_6 C1_6 1_555 1_555
O3_6 C10_6 1_555 1_555
O4_6 C10_6 1_555 1_555
O5_6 C5_6 1_555 1_555
H17_6 O5_6 1_555 1_555
O6_7 C14_7 1_555 1_555
H18_7 O6_7 1_555 1_555
Zn3_4 N1_7 1_555 1_555
C42_8 H31_8 1_555 1_555
C43_8 C42_8 1_555 1_555
H32_8 C43_8 1_555 1_555
C44_8 C21_7 1_555 1_555
C45_7 C44_8 1_555 1_555
H33_7 C45_7 1_555 1_555
C46_7 C45_7 1_555 1_555
H34_7 C46_7 1_555 1_555
N2_8 C42_8 1_555 1_555
C8_6 C9_6 1_555 1_555
C17_7 C18_7 1_555 1_555
C23_8 N1_7 1_555 1_555
O2_6 Zn3_4 1_555 1_555
O3_6 Zn3_4 1_555 1_555
C43_8 C44_8 1_555 1_555
C46_7 N2_8 1_555 1_555
C1_7 C2_7 1_555 1_555
C2_7 H1_7 1_555 1_555
C3_7 C2_7 1_555 1_555
H2_7 C3_7 1_555 1_555
C4_7 C3_7 1_555 1_555
C5_7 C4_7 1_555 1_555
C6_7 C5_7 1_555 1_555
H3_7 C6_7 1_555 1_555
C7_7 C6_7 1_555 1_555
H4_7 C7_7 1_555 1_555
C8_7 C7_7 1_555 1_555
H5_7 C8_7 1_555 1_555
C9_7 C4_7 1_555 1_555
H6_7 C9_7 1_555 1_555
C10_7 C11_7 1_555 1_555
C11_7 H7_7 1_555 1_555
N1_8 C19_8 1_555 1_555
O1_5 C1_7 1_555 1_555
O2_7 C1_7 1_555 1_555
O3_7 C10_7 1_555 1_555
O4_7 C10_7 1_555 1_555
O5_7 C5_7 1_555 1_555
H17_7 O5_7 1_555 1_555
Zn3_5 N1_8 1_555 1_555
C8_7 C9_7 1_555 1_555
O2_7 Zn3_5 1_555 1_555
O3_7 Zn3_5 1_555 1_555
C1_8 C2_8 1_555 1_555
C3_8 C2_8 1_555 1_555
H2_8 C3_8 1_555 1_555
C4_8 C3_8 1_555 1_555
C5_8 C4_8 1_555 1_555
C6_8 C5_8 1_555 1_555
C7_8 C6_8 1_555 1_555
H4_8 C7_8 1_555 1_555
C8_8 C7_8 1_555 1_555
H5_8 C8_8 1_555 1_555
C9_8 C4_8 1_555 1_555
H6_8 C9_8 1_555 1_555
O1_6 C1_8 1_555 1_555
C8_8 C9_8 1_555 1_555
C10_8 C11_8 1_555 1_555
C11_8 H7_8 1_555 1_555
C12_8 C11_8 1_555 1_555
H8_8 C12_8 1_555 1_555
C13_8 C12_8 1_555 1_555
C14_8 C13_8 1_555 1_555
C15_8 C14_8 1_555 1_555
H9_8 C15_8 1_555 1_555
C18_8 C13_8 1_555 1_555
H12_8 C18_8 1_555 1_555
O3_8 C10_8 1_555 1_555
O4_9 C10_8 1_555 1_555
H17_8 O5_8 1_555 1_555
O6_8 C14_8 1_555 1_555
H18_8 O6_8 1_555 1_555
O7_3 Zn1_3 1_555 1_555
C17_8 C18_8 1_555 1_555
O2_8 Zn1_3 1_555 1_555
O3_8 Zn1_3 1_555 1_555
H14_8 C20_8 1_555 1_555
H26_9 C35_9 1_555 1_555
C36_9 C35_9 1_555 1_555
C37_9 C36_9 1_555 1_555
C38_9 C37_9 1_555 1_555
H27_9 C38_9 1_555 1_555
C39_7 C38_9 1_555 1_555
H28_7 C39_7 1_555 1_555
C40_9 C39_7 1_555 1_555
H29_7 C40_9 1_555 1_555
C41_9 C36_9 1_555 1_555
H33_8 C45_8 1_555 1_555
C46_8 C45_8 1_555 1_555
H34_8 C46_8 1_555 1_555
O14_9 C37_9 1_555 1_555
H36_9 O14_9 1_555 1_555
C40_9 C41_9 1_555 1_555
C1_9 C2_9 1_555 1_555
C2_9 H1_9 1_555 1_555
C3_9 C2_9 1_555 1_555
H2_9 C3_9 1_555 1_555
C4_9 C3_9 1_555 1_555
C5_9 C4_9 1_555 1_555
C6_9 C5_9 1_555 1_555
H3_9 C6_9 1_555 1_555
C7_9 C6_9 1_555 1_555
H4_9 C7_9 1_555 1_555
C8_9 C7_9 1_555 1_555
H5_9 C8_9 1_555 1_555
C9_9 C4_9 1_555 1_555
H6_9 C9_9 1_555 1_555
C10_9 C11_9 1_555 1_555
C11_9 H7_9 1_555 1_555
C12_9 C11_9 1_555 1_555
H8_9 C12_9 1_555 1_555
C13_9 C12_9 1_555 1_555
C14_9 C13_9 1_555 1_555
C15_9 C14_9 1_555 1_555
H9_9 C15_9 1_555 1_555
C16_8 C15_9 1_555 1_555
H10_8 C16_8 1_555 1_555
C17_9 C16_8 1_555 1_555
H11_8 C17_9 1_555 1_555
C18_9 C13_9 1_555 1_555
H12_9 C18_9 1_555 1_555
C19_9 H13_9 1_555 1_555
C20_9 C19_9 1_555 1_555
H14_9 C20_9 1_555 1_555
C21_9 C20_9 1_555 1_555
C22_9 C21_9 1_555 1_555
H15_9 C22_9 1_555 1_555
C23_9 C22_9 1_555 1_555
H16_9 C23_9 1_555 1_555
N1_9 C19_9 1_555 1_555
O7_3 C1_9 1_555 1_555
O2_9 C1_9 1_555 1_555
O3_9 C10_9 1_555 1_555
O5_9 C5_9 1_555 1_555
H17_9 O5_9 1_555 1_555
O6_9 C14_9 1_555 1_555
H18_9 O6_9 1_555 1_555
Zn3_6 N1_9 1_555 1_555
C42_9 H31_9 1_555 1_555
C43_9 C42_9 1_555 1_555
H32_9 C43_9 1_555 1_555
C44_9 C21_9 1_555 1_555
C45_9 C44_9 1_555 1_555
H33_9 C45_9 1_555 1_555
C46_9 C45_9 1_555 1_555
H34_9 C46_9 1_555 1_555
N2_9 C42_9 1_555 1_555
C8_9 C9_9 1_555 1_555
C17_9 C18_9 1_555 1_555
C23_9 N1_9 1_555 1_555
O2_9 Zn3_6 1_555 1_555
O3_9 Zn3_6 1_555 1_555
C43_9 C44_9 1_555 1_555
C46_9 N2_9 1_555 1_555
H10_9 C16_9 1_555 1_555
H28_8 C39_8 1_555 1_555
H28_9 C39_9 1_555 1_555

#END
