
###############################################################################
#
# This file contains modified crystal structure data generated from the
# MOF subset of the Cambridge Structural Database (CSD) v543 
# hosted by the Cambridge Crystallographic Data Centre (CCDC).
#
# This work is licensed under the Creative Commons
# Attribution-NonCommercial-ShareAlike 4.0 International License.
# To view a copy of this license, visit
# http://creativecommons.org/licenses/by-nc-sa/4.0/
# or send a letter to
# Creative Commons, PO Box 1866, Mountain View, CA 94042, USA.
#
# CIF created using the CSD Python API on 29 September 2022
# The structure has been converted into the P1 space group
# The structure has a 3D framework
# The original CSD entry LEVYOC is in the monoclinic crystal system
# The framework has been calculated to contain at least 10.0% void space
# The void calculation uses a probe of radius 1.32A, grid spacing 0.4
#
###############################################################################

data_LEVYOC
_chemical_formula_moiety         '(C88 H104 Co21 N40 O76 S8)n'
_symmetry_cell_setting           triclinic
_symmetry_space_group_name_H-M   'P 1'
_symmetry_Int_Tables_number      1
_space_group_name_Hall           'P 1'
loop_
_symmetry_equiv_pos_site_id
_symmetry_equiv_pos_as_xyz
1 x,y,z
_cell_length_a                   29.956(5)
_cell_length_b                   8.0173(13)
_cell_length_c                   20.629(4)
_cell_angle_alpha                90
_cell_angle_beta                 122.302(5)
_cell_angle_gamma                90
_cell_volume                     4187.66
loop_
_atom_site_label
_atom_site_type_symbol
_atom_site_fract_x
_atom_site_fract_y
_atom_site_fract_z
Co1 Co 0.114584(17) 0.03064(6) 0.10240(3)
O9 O 0.03664(9) 0.0215(3) 0.07693(14)
H2 H 0.0332 0.0120 0.1214
O10 O 0.14180(12) 0.0858(5) 0.21737(17)
H3 H 0.1236 0.1583 0.2233
C11 C 0.1876(3) 0.0173(9) 0.2815(4)
H13 H 0.2143 0.1020 0.3056
O13 O 0.19532(9) 0.0367(3) 0.13385(16)
N7 N 0.10325(11) 0.2642(4) 0.05626(18)
Co2 Co 0.014198(17) 0.80783(6) 0.00646(3)
Co3 Co 0.132159(18) 0.75058(6) 0.01317(3)
N1 N 0.05155(11) 0.3220(4) 0.00395(17)
N3 N 0.10835(11) 0.5180(4) 0.01555(18)
N4 N 0.18867(12) 0.3820(4) 0.1054(2)
H4 H 0.2046 0.2973 0.1342
H5 H 0.2067 0.4652 0.1050
C1 C 0.13488(13) 0.3846(4) 0.0603(2)
H11 H 0.2005 0.9276 0.2650
H12 H 0.1792 0.9757 0.3174
O11 O 0.06200(9) 0.6651(3) 0.10778(14)
O12 O 0.13932(10) 0.7784(3) 0.14189(16)
O14 O 0.20643(9) 0.8094(4) 0.08055(16)
S1 S 0.09588(4) 0.72372(14) 0.83746(6)
O1 O 0.06200(9) 0.3349(3) 0.60778(14)
O2 O 0.13932(10) 0.2216(3) 0.64189(16)
O3 O 0.30468(9) 0.4633(3) 0.86615(16)
O4 O 0.29357(9) 0.6906(4) 0.91945(16)
O5 O 0.07726(13) 0.8577(4) 0.78245(19)
O6 O 0.13315(11) 0.7838(4) 0.91590(16)
O7 O 0.05489(11) 0.6223(5) 0.83232(18)
O8 O 0.07729(9) 0.9035(3) 0.99661(14)
H1 H 0.0653 0.9771 0.9524
N5 N 0.01650(11) 0.5835(4) 0.93721(17)
H7 H 0.0207 0.6219 0.8998
C2 C 0.05717(13) 0.4717(4) 0.9829(2)
C3 C 0.13808(13) 0.4224(5) 0.7244(2)
C4 C 0.19296(14) 0.4384(5) 0.7665(2)
H8 H 0.2128 0.3831 0.7507
C5 C 0.21799(13) 0.5373(5) 0.8322(2)
C6 C 0.18887(14) 0.6178(5) 0.8566(2)
H9 H 0.2056 0.6832 0.9006
C7 C 0.13430(14) 0.6003(5) 0.8148(2)
C8 C 0.10896(14) 0.5032(5) 0.7488(2)
H10 H 0.0724 0.4927 0.7211
C9 C 0.11091(13) 0.3179(4) 0.6530(2)
C10 C 0.27676(13) 0.5640(5) 0.8758(2)
Co6 Co 0.385416(17) 0.46936(6) 0.89760(3)
Co9 Co 0.014198(17) 0.19217(6) 0.50646(3)
Co10 Co 0.367841(18) 0.74942(6) 0.98683(3)
Co5 Co 0.114584(17) 0.96936(6) 0.60240(3)
Co8 Co 0.985802(17) 0.19217(6) 0.99354(3)
H6 H 0.9854 0.5293 0.9148
O15 O 0.96336(9) 0.9785(3) 0.92307(14)
N6 N 0.94845(11) 0.6780(4) 0.99605(17)
H6_2 H 0.0146 0.5293 0.5852
O15_2 O 0.03664(9) 0.9785(3) 0.57693(14)
N6_2 N 0.05155(11) 0.6780(4) 0.50395(17)
Co1_2 Co 0.885416(17) 0.03064(6) 0.39760(3)
O9_2 O 0.96336(9) 0.0215(3) 0.42307(14)
H2_2 H 0.9668 0.0120 0.3786
O10_2 O 0.85820(12) 0.0858(5) 0.28263(17)
H3_2 H 0.8764 0.1583 0.2767
C11_2 C 0.8124(3) 0.0173(9) 0.2185(4)
H13_2 H 0.7857 0.1020 0.1944
O13_2 O 0.80468(9) 0.0367(3) 0.36615(16)
N7_2 N 0.89675(11) 0.2642(4) 0.44374(18)
Co2_2 Co 0.985802(17) 0.80783(6) 0.49354(3)
Co3_2 Co 0.867841(18) 0.75058(6) 0.48683(3)
S1_2 S 0.90412(4) 0.72372(14) 0.66254(6)
O1_2 O 0.93800(9) 0.3349(3) 0.89222(14)
O2_2 O 0.86068(10) 0.2216(3) 0.85811(16)
O3_2 O 0.69532(9) 0.4633(3) 0.63385(16)
O4_2 O 0.70643(9) 0.6906(4) 0.58055(16)
O5_2 O 0.92274(13) 0.8577(4) 0.71755(19)
O6_2 O 0.86685(11) 0.7838(4) 0.58410(16)
O7_2 O 0.94511(11) 0.6223(5) 0.66768(18)
O8_2 O 0.92271(9) 0.9035(3) 0.50339(14)
H1_2 H 0.9347 0.9771 0.5476
N1_2 N 0.94845(11) 0.3220(4) 0.49605(17)
N3_2 N 0.89165(11) 0.5180(4) 0.48445(18)
N4_2 N 0.81133(12) 0.3820(4) 0.3946(2)
H4_2 H 0.7954 0.2973 0.3658
H5_2 H 0.7933 0.4652 0.3950
N5_2 N 0.98350(11) 0.5835(4) 0.56279(17)
H7_2 H 0.9793 0.6219 0.6002
C1_2 C 0.86512(13) 0.3846(4) 0.4397(2)
C2_2 C 0.94283(13) 0.4717(4) 0.5171(2)
C3_2 C 0.86192(13) 0.4224(5) 0.7756(2)
C4_2 C 0.80704(14) 0.4384(5) 0.7335(2)
H8_2 H 0.7872 0.3831 0.7493
C5_2 C 0.78201(13) 0.5373(5) 0.6678(2)
C6_2 C 0.81113(14) 0.6178(5) 0.6434(2)
H9_2 H 0.7944 0.6832 0.5994
C7_2 C 0.86570(14) 0.6003(5) 0.6852(2)
C8_2 C 0.89104(14) 0.5032(5) 0.7512(2)
H10_2 H 0.9276 0.4927 0.7789
C9_2 C 0.88909(13) 0.3179(4) 0.8470(2)
C10_2 C 0.72324(13) 0.5640(5) 0.6242(2)
H11_2 H 0.7995 0.9276 0.2350
H12_2 H 0.8208 0.9757 0.1826
Co6_2 Co 0.614584(17) 0.46936(6) 0.60240(3)
Co10_2 Co 0.632159(18) 0.74942(6) 0.51317(3)
O11_2 O 0.93800(9) 0.6651(3) 0.39222(14)
O12_2 O 0.86068(10) 0.7784(3) 0.35811(16)
O14_2 O 0.79357(9) 0.8094(4) 0.41945(16)
Co5_2 Co 0.885416(17) 0.96936(6) 0.89760(3)
Co1_3 Co 0.614584(17) 0.53064(6) 0.10240(3)
Co2_3 Co 0.514198(17) 0.30783(6) 0.00646(3)
Co3_3 Co 0.632159(18) 0.25058(6) 0.01317(3)
O9_3 O 0.53664(9) 0.5215(3) 0.07693(14)
H2_3 H 0.5332 0.5120 0.1214
O10_3 O 0.64180(12) 0.5858(5) 0.21737(17)
H3_3 H 0.6236 0.6583 0.2233
N3_3 N 0.60835(11) 0.0180(4) 0.01555(18)
C11_3 C 0.6876(3) 0.5173(9) 0.2815(4)
H11_3 H 0.7005 0.4276 0.2650
H12_3 H 0.6792 0.4757 0.3174
H13_3 H 0.7143 0.6020 0.3056
O11_3 O 0.56200(9) 0.1651(3) 0.10778(14)
O12_3 O 0.63932(10) 0.2784(3) 0.14189(16)
O13_3 O 0.69532(9) 0.5367(3) 0.13385(16)
O14_3 O 0.70643(9) 0.3094(4) 0.08055(16)
N7_3 N 0.60325(11) 0.7642(4) 0.05626(18)
S1_3 S 0.59588(4) 0.22372(14) 0.83746(6)
O4_3 O 0.79357(9) 0.1906(4) 0.91945(16)
O5_3 O 0.57726(13) 0.3577(4) 0.78245(19)
O6_3 O 0.63315(11) 0.2838(4) 0.91590(16)
O7_3 O 0.55489(11) 0.1223(5) 0.83232(18)
O8_3 O 0.57729(9) 0.4035(3) 0.99661(14)
H1_3 H 0.5653 0.4771 0.9524
N5_3 N 0.51650(11) 0.0835(4) 0.93721(17)
H6_3 H 0.4854 0.0293 0.9148
H7_3 H 0.5207 0.1219 0.8998
C5_3 C 0.71799(13) 0.0373(5) 0.8322(2)
C6_3 C 0.68887(14) 0.1178(5) 0.8566(2)
H9_3 H 0.7056 0.1832 0.9006
C7_3 C 0.63430(14) 0.1003(5) 0.8148(2)
C8_3 C 0.60896(14) 0.0032(5) 0.7488(2)
C10_3 C 0.77676(13) 0.0640(5) 0.8758(2)
Co8_2 Co 0.485802(17) 0.69217(6) 0.99354(3)
Co10_3 Co 0.867841(18) 0.24942(6) 0.98683(3)
O15_3 O 0.46336(9) 0.4785(3) 0.92307(14)
N6_3 N 0.44845(11) 0.1780(4) 0.99605(17)
N1_3 N 0.55155(11) 0.8220(4) 0.00395(17)
N4_3 N 0.68867(12) 0.8820(4) 0.1054(2)
H4_3 H 0.7046 0.7973 0.1342
H5_3 H 0.7067 0.9652 0.1050
C1_3 C 0.63488(13) 0.8846(4) 0.0603(2)
O1_3 O 0.56200(9) 0.8349(3) 0.60778(14)
O2_3 O 0.63932(10) 0.7216(3) 0.64189(16)
O3_3 O 0.80468(9) 0.9633(3) 0.86615(16)
C2_3 C 0.55717(13) 0.9717(4) 0.9829(2)
C3_3 C 0.63808(13) 0.9224(5) 0.7244(2)
C4_3 C 0.69296(14) 0.9384(5) 0.7665(2)
H8_3 H 0.7128 0.8831 0.7507
H10_3 H 0.5724 0.9927 0.7211
C9_3 C 0.61091(13) 0.8179(4) 0.6530(2)
Co9_2 Co 0.514198(17) 0.69217(6) 0.50646(3)
Co1_4 Co 0.385416(17) 0.53064(6) 0.39760(3)
Co2_4 Co 0.485802(17) 0.30783(6) 0.49354(3)
Co3_4 Co 0.367841(18) 0.25058(6) 0.48683(3)
S1_4 S 0.40412(4) 0.22372(14) 0.66254(6)
O4_4 O 0.20643(9) 0.1906(4) 0.58055(16)
O5_4 O 0.42274(13) 0.3577(4) 0.71755(19)
O6_4 O 0.36685(11) 0.2838(4) 0.58410(16)
O7_4 O 0.44511(11) 0.1223(5) 0.66768(18)
O8_4 O 0.42271(9) 0.4035(3) 0.50339(14)
H1_4 H 0.4347 0.4771 0.5476
O9_4 O 0.46336(9) 0.5215(3) 0.42307(14)
H2_4 H 0.4668 0.5120 0.3786
O10_4 O 0.35820(12) 0.5858(5) 0.28263(17)
H3_4 H 0.3764 0.6583 0.2767
N3_4 N 0.39165(11) 0.0180(4) 0.48445(18)
N5_4 N 0.48350(11) 0.0835(4) 0.56279(17)
H6_4 H 0.5146 0.0293 0.5852
H7_4 H 0.4793 0.1219 0.6002
C5_4 C 0.28201(13) 0.0373(5) 0.6678(2)
C6_4 C 0.31113(14) 0.1178(5) 0.6434(2)
H9_4 H 0.2944 0.1832 0.5994
C7_4 C 0.36570(14) 0.1003(5) 0.6852(2)
C8_4 C 0.39104(14) 0.0032(5) 0.7512(2)
C10_4 C 0.22324(13) 0.0640(5) 0.6242(2)
C11_4 C 0.3124(3) 0.5173(9) 0.2185(4)
H11_4 H 0.2995 0.4276 0.2350
H12_4 H 0.3208 0.4757 0.1826
H13_4 H 0.2857 0.6020 0.1944
Co10_4 Co 0.132159(18) 0.24942(6) 0.51317(3)
O11_4 O 0.43800(9) 0.1651(3) 0.39222(14)
O12_4 O 0.36068(10) 0.2784(3) 0.35811(16)
O13_4 O 0.30468(9) 0.5367(3) 0.36615(16)
O14_4 O 0.29357(9) 0.3094(4) 0.41945(16)
O15_4 O 0.53664(9) 0.4785(3) 0.57693(14)
N6_4 N 0.55155(11) 0.1780(4) 0.50395(17)
N7_4 N 0.39675(11) 0.7642(4) 0.44374(18)
O1_4 O 0.43800(9) 0.8349(3) 0.89222(14)
O2_4 O 0.36068(10) 0.7216(3) 0.85811(16)
O3_4 O 0.19532(9) 0.9633(3) 0.63385(16)
N1_4 N 0.44845(11) 0.8220(4) 0.49605(17)
N4_4 N 0.31133(12) 0.8820(4) 0.3946(2)
H4_4 H 0.2954 0.7973 0.3658
H5_4 H 0.2933 0.9652 0.3950
C1_4 C 0.36512(13) 0.8846(4) 0.4397(2)
C2_4 C 0.44283(13) 0.9717(4) 0.5171(2)
C3_4 C 0.36192(13) 0.9224(5) 0.7756(2)
C4_4 C 0.30704(14) 0.9384(5) 0.7335(2)
H8_4 H 0.2872 0.8831 0.7493
H10_4 H 0.4276 0.9927 0.7789
C9_4 C 0.38909(13) 0.8179(4) 0.8470(2)
H6_5 H 0.0146 0.4707 0.0852
S1_5 S 0.90412(4) 0.27628(14) 0.16254(6)
O5_5 O 0.92274(13) 0.1423(4) 0.21755(19)
O6_5 O 0.86685(11) 0.2162(4) 0.08410(16)
O7_5 O 0.94511(11) 0.3777(5) 0.16768(18)
O8_5 O 0.92271(9) 0.0965(3) 0.00339(14)
H1_5 H 0.9347 0.0229 0.0476
N5_5 N 0.98350(11) 0.4165(4) 0.06279(17)
H7_5 H 0.9793 0.3781 0.1002
C2_5 C 0.94283(13) 0.5283(4) 0.0171(2)
C3_5 C 0.86192(13) 0.5776(5) 0.2756(2)
C4_5 C 0.80704(14) 0.5616(5) 0.2335(2)
H8_5 H 0.7872 0.6169 0.2493
C5_5 C 0.78201(13) 0.4627(5) 0.1678(2)
C6_5 C 0.81113(14) 0.3822(5) 0.1434(2)
H9_5 H 0.7944 0.3168 0.0994
C7_5 C 0.86570(14) 0.3997(5) 0.1852(2)
C8_5 C 0.89104(14) 0.4968(5) 0.2512(2)
H10_5 H 0.9276 0.5073 0.2789
C9_5 C 0.88909(13) 0.6821(4) 0.3470(2)
C10_5 C 0.72324(13) 0.4360(5) 0.1242(2)
N2 N 0.89675(11) 0.7358(4) 0.94374(18)
N3_5 N 0.89165(11) 0.4820(4) 0.98445(18)
N4_5 N 0.81133(12) 0.6180(4) 0.8946(2)
H4_5 H 0.7954 0.7027 0.8658
H5_5 H 0.7933 0.5348 0.8950
C1_5 C 0.86512(13) 0.6154(4) 0.9397(2)
H11_5 H 0.7995 0.0724 0.7350
H12_5 H 0.8208 0.0243 0.6826
H2_5 H 0.9668 0.9880 0.8786
O10_5 O 0.85820(12) 0.9142(5) 0.78263(17)
H3_5 H 0.8764 0.8417 0.7767
C11_5 C 0.8124(3) 0.9827(9) 0.7185(4)
H13_5 H 0.7857 0.8980 0.6944
S1_6 S 0.09588(4) 0.27628(14) 0.33746(6)
O5_6 O 0.07726(13) 0.1423(4) 0.28245(19)
O6_6 O 0.13315(11) 0.2162(4) 0.41590(16)
O7_6 O 0.05489(11) 0.3777(5) 0.33232(18)
O8_6 O 0.07729(9) 0.0965(3) 0.49661(14)
H1_6 H 0.0653 0.0229 0.4524
N2_2 N 0.10325(11) 0.7358(4) 0.55626(18)
N3_6 N 0.10835(11) 0.4820(4) 0.51555(18)
N4_6 N 0.18867(12) 0.6180(4) 0.6054(2)
H4_6 H 0.2046 0.7027 0.6342
H5_6 H 0.2067 0.5348 0.6050
N5_6 N 0.01650(11) 0.4165(4) 0.43721(17)
H7_6 H 0.0207 0.3781 0.3998
C1_6 C 0.13488(13) 0.6154(4) 0.5603(2)
C2_6 C 0.05717(13) 0.5283(4) 0.4829(2)
C3_6 C 0.13808(13) 0.5776(5) 0.2244(2)
C4_6 C 0.19296(14) 0.5616(5) 0.2665(2)
H8_6 H 0.2128 0.6169 0.2507
C5_6 C 0.21799(13) 0.4627(5) 0.3322(2)
C6_6 C 0.18887(14) 0.3822(5) 0.3566(2)
H9_6 H 0.2056 0.3168 0.4006
C7_6 C 0.13430(14) 0.3997(5) 0.3148(2)
C8_6 C 0.10896(14) 0.4968(5) 0.2488(2)
H10_6 H 0.0724 0.5073 0.2211
C9_6 C 0.11091(13) 0.6821(4) 0.1530(2)
C10_6 C 0.27676(13) 0.4360(5) 0.3758(2)
H11_6 H 0.2005 0.0724 0.7650
H12_6 H 0.1792 0.0243 0.8174
H2_6 H 0.0332 0.9880 0.6214
O10_6 O 0.14180(12) 0.9142(5) 0.71737(17)
H3_6 H 0.1236 0.8417 0.7233
C11_6 C 0.1876(3) 0.9827(9) 0.7815(4)
H13_6 H 0.2143 0.8980 0.8056
H6_6 H 0.9854 0.4707 0.4148
C2_7 C 0.44283(13) 0.0283(4) 0.0171(2)
C3_7 C 0.36192(13) 0.0776(5) 0.2756(2)
C4_7 C 0.30704(14) 0.0616(5) 0.2335(2)
H8_7 H 0.2872 0.1169 0.2493
H10_7 H 0.4276 0.0073 0.2789
C9_7 C 0.38909(13) 0.1821(4) 0.3470(2)
N2_3 N 0.39675(11) 0.2358(4) 0.94374(18)
N4_7 N 0.31133(12) 0.1180(4) 0.8946(2)
H4_7 H 0.2954 0.2027 0.8658
H5_7 H 0.2933 0.0348 0.8950
C1_7 C 0.36512(13) 0.1154(4) 0.9397(2)
S1_7 S 0.40412(4) 0.77628(14) 0.16254(6)
O5_7 O 0.42274(13) 0.6423(4) 0.21755(19)
O6_7 O 0.36685(11) 0.7162(4) 0.08410(16)
O7_7 O 0.44511(11) 0.8777(5) 0.16768(18)
O8_7 O 0.42271(9) 0.5965(3) 0.00339(14)
H1_7 H 0.4347 0.5229 0.0476
N5_7 N 0.48350(11) 0.9165(4) 0.06279(17)
H6_7 H 0.5146 0.9707 0.0852
H7_7 H 0.4793 0.8781 0.1002
C5_7 C 0.28201(13) 0.9627(5) 0.1678(2)
C6_7 C 0.31113(14) 0.8822(5) 0.1434(2)
H9_7 H 0.2944 0.8168 0.0994
C7_7 C 0.36570(14) 0.8997(5) 0.1852(2)
C8_7 C 0.39104(14) 0.9968(5) 0.2512(2)
C10_7 C 0.22324(13) 0.9360(5) 0.1242(2)
H2_7 H 0.4668 0.4880 0.8786
O10_7 O 0.35820(12) 0.4142(5) 0.78263(17)
H3_7 H 0.3764 0.3417 0.7767
N3_7 N 0.39165(11) 0.9820(4) 0.98445(18)
C11_7 C 0.3124(3) 0.4827(9) 0.7185(4)
H11_7 H 0.2995 0.5724 0.7350
H12_7 H 0.3208 0.5243 0.6826
H13_7 H 0.2857 0.3980 0.6944
N2_4 N 0.60325(11) 0.2358(4) 0.55626(18)
N4_8 N 0.68867(12) 0.1180(4) 0.6054(2)
H4_8 H 0.7046 0.2027 0.6342
H5_8 H 0.7067 0.0348 0.6050
C1_8 C 0.63488(13) 0.1154(4) 0.5603(2)
C2_8 C 0.55717(13) 0.0283(4) 0.4829(2)
C3_8 C 0.63808(13) 0.0776(5) 0.2244(2)
C4_8 C 0.69296(14) 0.0616(5) 0.2665(2)
H8_8 H 0.7128 0.1169 0.2507
H10_8 H 0.5724 0.0073 0.2211
C9_8 C 0.61091(13) 0.1821(4) 0.1530(2)
S1_8 S 0.59588(4) 0.77628(14) 0.33746(6)
O5_8 O 0.57726(13) 0.6423(4) 0.28245(19)
O6_8 O 0.63315(11) 0.7162(4) 0.41590(16)
O7_8 O 0.55489(11) 0.8777(5) 0.33232(18)
O8_8 O 0.57729(9) 0.5965(3) 0.49661(14)
H1_8 H 0.5653 0.5229 0.4524
H2_8 H 0.5332 0.4880 0.6214
O10_8 O 0.64180(12) 0.4142(5) 0.71737(17)
H3_8 H 0.6236 0.3417 0.7233
N3_8 N 0.60835(11) 0.9820(4) 0.51555(18)
N5_8 N 0.51650(11) 0.9165(4) 0.43721(17)
H6_8 H 0.4854 0.9707 0.4148
H7_8 H 0.5207 0.8781 0.3998
C5_8 C 0.71799(13) 0.9627(5) 0.3322(2)
C6_8 C 0.68887(14) 0.8822(5) 0.3566(2)
H9_8 H 0.7056 0.8168 0.4006
C7_8 C 0.63430(14) 0.8997(5) 0.3148(2)
C8_8 C 0.60896(14) 0.9968(5) 0.2488(2)
C10_8 C 0.77676(13) 0.9360(5) 0.3758(2)
C11_8 C 0.6876(3) 0.4827(9) 0.7815(4)
H11_8 H 0.7005 0.5724 0.7650
H12_8 H 0.6792 0.5243 0.8174
H13_8 H 0.7143 0.3980 0.8056
loop_
_geom_bond_atom_site_label_1
_geom_bond_atom_site_label_2
_geom_bond_site_symmetry_1
_geom_bond_site_symmetry_2
O9 Co1 1_555 1_555
H2 O9 1_555 1_555
O10 Co1 1_555 1_555
H3 O10 1_555 1_555
C11 O10 1_555 1_555
H13 C11 1_555 1_555
O13 Co1 1_555 1_555
N7 Co1 1_555 1_555
N1 N7 1_555 1_555
N7 C1 1_555 1_555
N3 Co3 1_555 1_555
N4 H4 1_555 1_555
H5 N4 1_555 1_555
C1 N3 1_555 1_555
O11 Co2 1_555 1_555
O14 Co3 1_555 1_555
N4 C1 1_555 1_555
S1 O5 1_555 1_555
O1 C9 1_555 1_555
O2 C9 1_555 1_555
O3 C10 1_555 1_555
O4 C10 1_555 1_555
O6 S1 1_555 1_555
O7 S1 1_555 1_555
H1 O8 1_555 1_555
H7 N5 1_555 1_555
C3 C4 1_555 1_555
C4 H8 1_555 1_555
C5 C4 1_555 1_555
C6 C5 1_555 1_555
H9 C6 1_555 1_555
C7 S1 1_555 1_555
C8 C3 1_555 1_555
H10 C8 1_555 1_555
C9 C3 1_555 1_555
C10 C5 1_555 1_555
Co6 O3 1_555 1_555
Co9 O1 1_555 1_555
Co10 O4 1_555 1_555
N5 C2 1_555 1_555
C6 C7 1_555 1_555
C7 C8 1_555 1_555
O9_2 Co1_2 1_555 1_555
H2_2 O9_2 1_555 1_555
O10_2 Co1_2 1_555 1_555
H3_2 O10_2 1_555 1_555
C11_2 O10_2 1_555 1_555
H13_2 C11_2 1_555 1_555
O13_2 Co1_2 1_555 1_555
N7_2 Co1_2 1_555 1_555
Co2_2 O8_2 1_555 1_555
Co3_2 O6_2 1_555 1_555
S1_2 O5_2 1_555 1_555
O1_2 C9_2 1_555 1_555
O2_2 C9_2 1_555 1_555
O3_2 C10_2 1_555 1_555
O4_2 C10_2 1_555 1_555
O6_2 S1_2 1_555 1_555
O7_2 S1_2 1_555 1_555
O8_2 Co3_2 1_555 1_555
H1_2 O8_2 1_555 1_555
N1_2 N7_2 1_555 1_555
N7_2 C1_2 1_555 1_555
N3_2 Co3_2 1_555 1_555
N4_2 H4_2 1_555 1_555
H5_2 N4_2 1_555 1_555
N5_2 Co2_2 1_555 1_555
H7_2 N5_2 1_555 1_555
C1_2 N3_2 1_555 1_555
C2_2 N1_2 1_555 1_555
C3_2 C4_2 1_555 1_555
C4_2 H8_2 1_555 1_555
C5_2 C4_2 1_555 1_555
C6_2 C5_2 1_555 1_555
H9_2 C6_2 1_555 1_555
C7_2 S1_2 1_555 1_555
C8_2 C3_2 1_555 1_555
H10_2 C8_2 1_555 1_555
C9_2 C3_2 1_555 1_555
C10_2 C5_2 1_555 1_555
Co6_2 O3_2 1_555 1_555
Co8 O1_2 1_555 1_555
Co10_2 O4_2 1_555 1_555
O11_2 Co2_2 1_555 1_555
O14_2 Co3_2 1_555 1_555
N3_2 C2_2 1_555 1_555
N4_2 C1_2 1_555 1_555
N5_2 C2_2 1_555 1_555
C6_2 C7_2 1_555 1_555
C7_2 C8_2 1_555 1_555
O9_3 Co1_3 1_555 1_555
H2_3 O9_3 1_555 1_555
O10_3 Co1_3 1_555 1_555
H3_3 O10_3 1_555 1_555
N3_3 Co3_3 1_555 1_555
C11_3 O10_3 1_555 1_555
H11_3 C11_3 1_555 1_555
H12_3 C11_3 1_555 1_555
H13_3 C11_3 1_555 1_555
O11_3 Co2_3 1_555 1_555
O12_3 Co1_3 1_555 1_555
O13_3 Co1_3 1_555 1_555
O14_3 Co3_3 1_555 1_555
N7_3 Co1_3 1_555 1_555
Co2_3 O9_3 1_555 1_555
S1_3 O5_3 1_555 1_555
O4_3 C10_3 1_555 1_555
O6_3 S1_3 1_555 1_555
O7_3 S1_3 1_555 1_555
H1_3 O8_3 1_555 1_555
H6_3 N5_3 1_555 1_555
H7_3 N5_3 1_555 1_555
C6_3 C5_3 1_555 1_555
H9_3 C6_3 1_555 1_555
C7_3 S1_3 1_555 1_555
C10_3 C5_3 1_555 1_555
Co10_3 O4_3 1_555 1_555
C6_3 C7_3 1_555 1_555
C7_3 C8_3 1_555 1_555
Co8_2 O15_3 1_555 1_555
N1_3 N7_3 1_555 1_555
N7_3 C1_3 1_555 1_555
N4_3 H4_3 1_555 1_555
H5_3 N4_3 1_555 1_555
N4_3 C1_3 1_555 1_555
O1_3 C9_3 1_555 1_555
O2_3 C9_3 1_555 1_555
C3_3 C4_3 1_555 1_555
C4_3 H8_3 1_555 1_555
C9_3 C3_3 1_555 1_555
Co6_2 O2_3 1_555 1_555
Co5_2 O3_3 1_555 1_555
Co9_2 O1_3 1_555 1_555
Co1_4 O8_4 1_555 1_555
Co2_4 O8_4 1_555 1_555
Co3_4 O6_4 1_555 1_555
S1_4 O5_4 1_555 1_555
O4_4 C10_4 1_555 1_555
O6_4 S1_4 1_555 1_555
O7_4 S1_4 1_555 1_555
O8_4 Co3_4 1_555 1_555
H1_4 O8_4 1_555 1_555
O9_4 Co1_4 1_555 1_555
H2_4 O9_4 1_555 1_555
O10_4 Co1_4 1_555 1_555
H3_4 O10_4 1_555 1_555
N3_4 Co3_4 1_555 1_555
N5_4 Co2_4 1_555 1_555
H6_4 N5_4 1_555 1_555
H7_4 N5_4 1_555 1_555
C6_4 C5_4 1_555 1_555
H9_4 C6_4 1_555 1_555
C7_4 S1_4 1_555 1_555
C10_4 C5_4 1_555 1_555
C11_4 O10_4 1_555 1_555
H11_4 C11_4 1_555 1_555
H12_4 C11_4 1_555 1_555
H13_4 C11_4 1_555 1_555
Co9_2 O9_4 1_555 1_555
Co10_4 O4_4 1_555 1_555
O11_4 Co2_4 1_555 1_555
O12_4 Co1_4 1_555 1_555
O13_4 Co1_4 1_555 1_555
O14_4 Co3_4 1_555 1_555
O15_4 Co2_4 1_555 1_555
N6_4 Co2_4 1_555 1_555
N7_4 Co1_4 1_555 1_555
Co2_4 O9_4 1_555 1_555
C6_4 C7_4 1_555 1_555
C7_4 C8_4 1_555 1_555
Co9_2 O15_4 1_555 1_555
O1_4 C9_4 1_555 1_555
O2_4 C9_4 1_555 1_555
N1_4 N7_4 1_555 1_555
N7_4 C1_4 1_555 1_555
N4_4 H4_4 1_555 1_555
H5_4 N4_4 1_555 1_555
C2_4 N1_4 1_555 1_555
C3_4 C4_4 1_555 1_555
C4_4 H8_4 1_555 1_555
C9_4 C3_4 1_555 1_555
Co6 O2_4 1_555 1_555
Co5 O3_4 1_555 1_555
Co9_2 N1_4 1_555 1_555
Co8_2 O1_4 1_555 1_555
N4_4 C1_4 1_555 1_555
S1_5 O5_5 1_555 1_555
O11_2 C9_5 1_555 1_555
O12_2 C9_5 1_555 1_555
O13_3 C10_5 1_555 1_555
O14_3 C10_5 1_555 1_555
O6_5 S1_5 1_555 1_555
O7_5 S1_5 1_555 1_555
H1_5 O8_5 1_555 1_555
H7_5 N5_5 1_555 1_555
C3_5 C4_5 1_555 1_555
C4_5 H8_5 1_555 1_555
C5_5 C4_5 1_555 1_555
C6_5 C5_5 1_555 1_555
H9_5 C6_5 1_555 1_555
C7_5 S1_5 1_555 1_555
C8_5 C3_5 1_555 1_555
H10_5 C8_5 1_555 1_555
C9_5 C3_5 1_555 1_555
C10_5 C5_5 1_555 1_555
N5_5 C2_5 1_555 1_555
C6_5 C7_5 1_555 1_555
C7_5 C8_5 1_555 1_555
N6 N2 1_555 1_555
N2 C1_5 1_555 1_555
N3_5 Co10_3 1_555 1_555
N4_5 H4_5 1_555 1_555
H5_5 N4_5 1_555 1_555
C1_5 N3_5 1_555 1_555
Co5_2 N2 1_555 1_555
N4_5 C1_5 1_555 1_555
O15 Co5_2 1_555 1_555
H2_5 O15 1_555 1_555
O10_5 Co5_2 1_555 1_555
H3_5 O10_5 1_555 1_555
C11_5 O10_5 1_555 1_555
H13_5 C11_5 1_555 1_555
Co9 O8_6 1_555 1_555
Co10_4 O6_6 1_555 1_555
S1_6 O5_6 1_555 1_555
O11 C9_6 1_555 1_555
O12 C9_6 1_555 1_555
O13_4 C10_6 1_555 1_555
O14_4 C10_6 1_555 1_555
O6_6 S1_6 1_555 1_555
O7_6 S1_6 1_555 1_555
O8_6 Co10_4 1_555 1_555
H1_6 O8_6 1_555 1_555
N6_2 N2_2 1_555 1_555
N2_2 C1_6 1_555 1_555
N3_6 Co10_4 1_555 1_555
N4_6 H4_6 1_555 1_555
H5_6 N4_6 1_555 1_555
N5_6 Co9 1_555 1_555
H7_6 N5_6 1_555 1_555
C1_6 N3_6 1_555 1_555
C2_6 N6_2 1_555 1_555
C3_6 C4_6 1_555 1_555
C4_6 H8_6 1_555 1_555
C5_6 C4_6 1_555 1_555
C6_6 C5_6 1_555 1_555
H9_6 C6_6 1_555 1_555
C7_6 S1_6 1_555 1_555
C8_6 C3_6 1_555 1_555
H10_6 C8_6 1_555 1_555
C9_6 C3_6 1_555 1_555
C10_6 C5_6 1_555 1_555
Co5 N2_2 1_555 1_555
N3_6 C2_6 1_555 1_555
N4_6 C1_6 1_555 1_555
N5_6 C2_6 1_555 1_555
C6_6 C7_6 1_555 1_555
C7_6 C8_6 1_555 1_555
O15_2 Co5 1_555 1_555
H2_6 O15_2 1_555 1_555
O10_6 Co5 1_555 1_555
H3_6 O10_6 1_555 1_555
C11_6 O10_6 1_555 1_555
H13_6 C11_6 1_555 1_555
O11_4 C9_7 1_555 1_555
O12_4 C9_7 1_555 1_555
C3_7 C4_7 1_555 1_555
C4_7 H8_7 1_555 1_555
C9_7 C3_7 1_555 1_555
N6_3 N2_3 1_555 1_555
N2_3 C1_7 1_555 1_555
N4_7 H4_7 1_555 1_555
H5_7 N4_7 1_555 1_555
Co6 N2_3 1_555 1_555
N4_7 C1_7 1_555 1_555
S1_7 O5_7 1_555 1_555
O14 C10_7 1_555 1_555
O6_7 S1_7 1_555 1_555
O7_7 S1_7 1_555 1_555
H1_7 O8_7 1_555 1_555
H6_7 N5_7 1_555 1_555
H7_7 N5_7 1_555 1_555
C6_7 C5_7 1_555 1_555
H9_7 C6_7 1_555 1_555
C7_7 S1_7 1_555 1_555
C10_7 C5_7 1_555 1_555
C6_7 C7_7 1_555 1_555
C7_7 C8_7 1_555 1_555
O15_3 Co6 1_555 1_555
H2_7 O15_3 1_555 1_555
O10_7 Co6 1_555 1_555
H3_7 O10_7 1_555 1_555
N3_7 Co10 1_555 1_555
C11_7 O10_7 1_555 1_555
H11_7 C11_7 1_555 1_555
H12_7 C11_7 1_555 1_555
H13_7 C11_7 1_555 1_555
O11_3 C9_8 1_555 1_555
O12_3 C9_8 1_555 1_555
N6_4 N2_4 1_555 1_555
N2_4 C1_8 1_555 1_555
N4_8 H4_8 1_555 1_555
H5_8 N4_8 1_555 1_555
C2_8 N6_4 1_555 1_555
C3_8 C4_8 1_555 1_555
C4_8 H8_8 1_555 1_555
C9_8 C3_8 1_555 1_555
Co6_2 N2_4 1_555 1_555
N4_8 C1_8 1_555 1_555
Co6_2 O8_8 1_555 1_555
Co9_2 O8_8 1_555 1_555
Co10_2 O6_8 1_555 1_555
S1_8 O5_8 1_555 1_555
O14_2 C10_8 1_555 1_555
O6_8 S1_8 1_555 1_555
O7_8 S1_8 1_555 1_555
O8_8 Co10_2 1_555 1_555
H1_8 O8_8 1_555 1_555
O15_4 Co6_2 1_555 1_555
H2_8 O15_4 1_555 1_555
O10_8 Co6_2 1_555 1_555
H3_8 O10_8 1_555 1_555
N3_8 Co10_2 1_555 1_555
N5_8 Co9_2 1_555 1_555
H6_8 N5_8 1_555 1_555
H7_8 N5_8 1_555 1_555
C6_8 C5_8 1_555 1_555
H9_8 C6_8 1_555 1_555
C7_8 S1_8 1_555 1_555
C10_8 C5_8 1_555 1_555
C11_8 O10_8 1_555 1_555
H11_8 C11_8 1_555 1_555
H12_8 C11_8 1_555 1_555
H13_8 C11_8 1_555 1_555
C6_8 C7_8 1_555 1_555
C7_8 C8_8 1_555 1_555

#END
