
###############################################################################
#
# This file contains modified crystal structure data generated from the
# MOF subset of the Cambridge Structural Database (CSD) v543 
# hosted by the Cambridge Crystallographic Data Centre (CCDC).
#
# This work is licensed under the Creative Commons
# Attribution-NonCommercial-ShareAlike 4.0 International License.
# To view a copy of this license, visit
# http://creativecommons.org/licenses/by-nc-sa/4.0/
# or send a letter to
# Creative Commons, PO Box 1866, Mountain View, CA 94042, USA.
#
# CIF created using the CSD Python API on 29 September 2022
# The structure has been converted into the P1 space group
# The structure has a 3D framework
# The original CSD entry LEYCEA is in the monoclinic crystal system
# The framework has been calculated to contain at least 10.0% void space
# The void calculation uses a probe of radius 1.32A, grid spacing 0.4
#
###############################################################################

data_LEYCEA
_chemical_formula_moiety         '(C184 H104 Eu4 N32 O56)n'
_symmetry_cell_setting           triclinic
_symmetry_space_group_name_H-M   'P 1'
_symmetry_Int_Tables_number      1
_space_group_name_Hall           'P 1'
loop_
_symmetry_equiv_pos_site_id
_symmetry_equiv_pos_as_xyz
1 x,y,z
_cell_length_a                   13.6133(8)
_cell_length_b                   22.4610(11)
_cell_length_c                   15.4497(9)
_cell_angle_alpha                90
_cell_angle_beta                 97.045(6)
_cell_angle_gamma                90
_cell_volume                     4688.36
loop_
_atom_site_label
_atom_site_type_symbol
_atom_site_fract_x
_atom_site_fract_y
_atom_site_fract_z
C13 C 0.0467(7) 0.5107(5) 0.6353(8)
H8 H 0.1007 0.5350 0.6534
C14 C 0.0593(6) 0.4541(5) 0.6003(7)
H9 H 0.1217 0.4409 0.5904
Eu1 Eu 0.25794(3) 0.64223(2) 0.41930(3)
O1 O 0.3544(4) 0.7066(2) 0.5107(4)
O2 O 0.3775(4) 0.7979(2) 0.5632(4)
O3 O 0.6819(5) 0.8460(2) 0.7671(4)
O4 O 0.7778(4) 0.7735(2) 0.8185(4)
O5 O 0.2116(5) 0.6203(3) 0.5706(5)
O6 O 0.3399(4) 0.5737(2) 0.5385(4)
O7 O 0.2901(6) 0.5611(4) 0.6655(5)
N1 N 0.5696(5) 0.3754(3) 0.6252(4)
N2 N 0.7035(4) 0.4650(2) 0.6306(4)
N3 N 0.8863(5) 0.4348(3) 0.5941(5)
N4 N 0.2820(6) 0.5837(3) 0.5920(5)
C1 C 0.5057(7) 0.3294(3) 0.6266(6)
H1 H 0.5294 0.2910 0.6203
C2 C 0.4089(8) 0.3365(5) 0.6365(7)
H2 H 0.3685 0.3035 0.6405
C3 C 0.3716(8) 0.3925(5) 0.6406(8)
H3 H 0.3046 0.3984 0.6442
C4 C 0.4351(6) 0.4405(4) 0.6394(7)
H4 H 0.4112 0.4790 0.6438
C5 C 0.5350(6) 0.4312(3) 0.6314(5)
C6 C 0.6064(5) 0.4800(3) 0.6342(5)
C7 C 0.5787(6) 0.5394(3) 0.6402(5)
H5 H 0.5124 0.5489 0.6414
C8 C 0.6479(6) 0.5843(3) 0.6445(5)
C9 C 0.7467(6) 0.5688(3) 0.6405(5)
H6 H 0.7953 0.5979 0.6423
C10 C 0.7709(5) 0.5090(3) 0.6338(5)
C11 C 0.8738(5) 0.4905(3) 0.6256(5)
C12 C 0.9526(6) 0.5289(4) 0.6418(7)
H7 H 0.9413 0.5680 0.6575
C15 C 0.9775(7) 0.4181(4) 0.5809(7)
H10 H 0.9862 0.3806 0.5576
C16 C 0.6182(6) 0.6482(3) 0.6504(5)
C17 C 0.5304(6) 0.6670(3) 0.6036(5)
H11 H 0.4912 0.6399 0.5694
C18 C 0.5003(5) 0.7259(3) 0.6072(5)
C19 C 0.5593(6) 0.7667(3) 0.6599(5)
H12 H 0.5392 0.8061 0.6633
C20 C 0.6472(5) 0.7479(3) 0.7064(5)
C21 C 0.6773(6) 0.6888(3) 0.7022(5)
H13 H 0.7364 0.6764 0.7337
C22 C 0.4029(5) 0.7446(3) 0.5560(5)
C23 C 0.7065(6) 0.7918(3) 0.7674(5)
Eu2 Eu 0.74206(3) 0.35777(2) 0.58070(3)
Eu3 Eu 0.24206(3) 0.85777(2) 0.58070(3)
Eu4 Eu 0.75794(3) 0.85777(2) 0.91930(3)
O8 O 0.1225(4) 0.7021(2) 0.4368(4)
O9 O 0.1819(5) 0.6540(2) 0.2671(4)
O10 O 0.2778(4) 0.7265(2) 0.3185(4)
N5 N 0.4304(5) 0.6246(3) 0.3748(4)
N6 N 0.2965(4) 0.5350(2) 0.3694(4)
N7 N 0.1137(5) 0.5652(3) 0.4059(5)
Eu1_2 Eu 0.74206(3) 0.64223(2) 0.08070(3)
O8_2 O 0.8775(4) 0.7021(2) 0.0632(4)
O9_2 O 0.8181(5) 0.6540(2) 0.2329(4)
O10_2 O 0.7222(4) 0.7265(2) 0.1815(4)
N5_2 N 0.5696(5) 0.6246(3) 0.1252(4)
N6_2 N 0.7035(4) 0.5350(2) 0.1306(4)
N7_2 N 0.8863(5) 0.5652(3) 0.0941(5)
O1_2 O 0.6456(4) 0.7066(2) 0.9893(4)
O2_2 O 0.6225(4) 0.7979(2) 0.9368(4)
O3_2 O 0.3181(5) 0.8460(2) 0.7329(4)
O4_2 O 0.2222(4) 0.7735(2) 0.6815(4)
O5_2 O 0.7884(5) 0.6203(3) 0.9294(5)
O6_2 O 0.6601(4) 0.5737(2) 0.9615(4)
O7_2 O 0.7099(6) 0.5611(4) 0.8345(5)
N1_2 N 0.4304(5) 0.3754(3) 0.8748(4)
N2_2 N 0.2965(4) 0.4650(2) 0.8694(4)
N3_2 N 0.1137(5) 0.4348(3) 0.9059(5)
N4_2 N 0.7180(6) 0.5837(3) 0.9080(5)
C1_2 C 0.4943(7) 0.3294(3) 0.8734(6)
H1_2 H 0.4706 0.2910 0.8797
C2_2 C 0.5911(8) 0.3365(5) 0.8635(7)
H2_2 H 0.6315 0.3035 0.8595
C3_2 C 0.6284(8) 0.3925(5) 0.8594(8)
H3_2 H 0.6954 0.3984 0.8558
C4_2 C 0.5649(6) 0.4405(4) 0.8606(7)
H4_2 H 0.5888 0.4790 0.8562
C5_2 C 0.4650(6) 0.4312(3) 0.8686(5)
C6_2 C 0.3936(5) 0.4800(3) 0.8658(5)
C7_2 C 0.4213(6) 0.5394(3) 0.8598(5)
H5_2 H 0.4876 0.5489 0.8586
C8_2 C 0.3521(6) 0.5843(3) 0.8555(5)
C9_2 C 0.2533(6) 0.5688(3) 0.8595(5)
H6_2 H 0.2047 0.5979 0.8577
C10_2 C 0.2291(5) 0.5090(3) 0.8662(5)
C11_2 C 0.1262(5) 0.4905(3) 0.8744(5)
C12_2 C 0.0474(6) 0.5289(4) 0.8582(7)
H7_2 H 0.0587 0.5680 0.8425
C15_2 C 0.0225(7) 0.4181(4) 0.9191(7)
H10_2 H 0.0138 0.3806 0.9424
C16_2 C 0.3818(6) 0.6482(3) 0.8496(5)
C17_2 C 0.4696(6) 0.6670(3) 0.8964(5)
H11_2 H 0.5088 0.6399 0.9306
C18_2 C 0.4997(5) 0.7259(3) 0.8928(5)
C19_2 C 0.4407(6) 0.7667(3) 0.8401(5)
H12_2 H 0.4608 0.8061 0.8367
C20_2 C 0.3528(5) 0.7479(3) 0.7936(5)
C21_2 C 0.3227(6) 0.6888(3) 0.7978(5)
H13_2 H 0.2636 0.6764 0.7663
C22_2 C 0.5971(5) 0.7446(3) 0.9440(5)
C23_2 C 0.2935(6) 0.7918(3) 0.7326(5)
Eu2_2 Eu 0.25794(3) 0.35777(2) 0.91930(3)
O3_3 O 0.1819(5) 0.3460(2) 0.7671(4)
O4_3 O 0.2778(4) 0.2735(2) 0.8185(4)
C7_3 C 0.0787(6) 0.0394(3) 0.6402(5)
H5_3 H 0.0124 0.0489 0.6414
C8_3 C 0.1479(6) 0.0843(3) 0.6445(5)
C9_3 C 0.2467(6) 0.0688(3) 0.6405(5)
H6_3 H 0.2953 0.0979 0.6423
C10_3 C 0.2709(5) 0.0090(3) 0.6338(5)
C12_3 C 0.4526(6) 0.0289(4) 0.6418(7)
H7_3 H 0.4413 0.0680 0.6575
C13_2 C 0.5467(7) 0.0107(5) 0.6353(8)
H8_2 H 0.6007 0.0350 0.6534
C16_3 C 0.1182(6) 0.1482(3) 0.6504(5)
C17_3 C 0.0304(6) 0.1670(3) 0.6036(5)
C18_3 C 0.0003(5) 0.2259(3) 0.6072(5)
C19_3 C 0.0593(6) 0.2667(3) 0.6599(5)
H12_3 H 0.0392 0.3061 0.6633
C20_3 C 0.1472(5) 0.2479(3) 0.7064(5)
C21_3 C 0.1773(6) 0.1888(3) 0.7022(5)
H13_3 H 0.2364 0.1764 0.7337
C23_3 C 0.2065(6) 0.2918(3) 0.7674(5)
N1_3 N 0.0696(5) 0.8754(3) 0.6252(4)
N2_3 N 0.2035(4) 0.9650(2) 0.6306(4)
N3_3 N 0.3863(5) 0.9348(3) 0.5941(5)
C1_3 C 0.0057(7) 0.8294(3) 0.6266(6)
H1_3 H 0.0294 0.7910 0.6203
C5_3 C 0.0350(6) 0.9312(3) 0.6314(5)
C6_3 C 0.1064(5) 0.9800(3) 0.6342(5)
C11_3 C 0.3738(5) 0.9905(3) 0.6256(5)
C14_2 C 0.5593(6) 0.9541(5) 0.6003(7)
H9_2 H 0.6217 0.9409 0.5904
C15_3 C 0.4775(7) 0.9181(4) 0.5809(7)
H10_3 H 0.4862 0.8806 0.5576
Eu1_3 Eu 0.75794(3) 0.14223(2) 0.41930(3)
O1_3 O 0.8544(4) 0.2066(2) 0.5107(4)
O2_3 O 0.8775(4) 0.2979(2) 0.5632(4)
O5_3 O 0.7116(5) 0.1203(3) 0.5706(5)
O6_3 O 0.8399(4) 0.0737(2) 0.5385(4)
O7_3 O 0.7901(6) 0.0611(4) 0.6655(5)
N4_3 N 0.7820(6) 0.0837(3) 0.5920(5)
H11_3 H 0.9912 0.1399 0.5694
C22_3 C 0.9029(5) 0.2446(3) 0.5560(5)
O8_3 O 0.6225(4) 0.2021(2) 0.4368(4)
O9_3 O 0.6819(5) 0.1540(2) 0.2671(4)
O10_3 O 0.7778(4) 0.2265(2) 0.3185(4)
N5_3 N 0.9304(5) 0.1246(3) 0.3748(4)
N6_3 N 0.7965(4) 0.0350(2) 0.3694(4)
N7_3 N 0.6137(5) 0.0652(3) 0.4059(5)
Eu1_4 Eu 0.24206(3) 0.14223(2) 0.08070(3)
O8_4 O 0.3775(4) 0.2021(2) 0.0632(4)
O9_4 O 0.3181(5) 0.1540(2) 0.2329(4)
O10_4 O 0.2222(4) 0.2265(2) 0.1815(4)
N5_4 N 0.0696(5) 0.1246(3) 0.1252(4)
N6_4 N 0.2035(4) 0.0350(2) 0.1306(4)
N7_4 N 0.3863(5) 0.0652(3) 0.0941(5)
O1_4 O 0.1456(4) 0.2066(2) 0.9893(4)
O2_4 O 0.1225(4) 0.2979(2) 0.9368(4)
O5_4 O 0.2884(5) 0.1203(3) 0.9294(5)
O6_4 O 0.1601(4) 0.0737(2) 0.9615(4)
O7_4 O 0.2099(6) 0.0611(4) 0.8345(5)
N4_4 N 0.2180(6) 0.0837(3) 0.9080(5)
H11_4 H 0.0088 0.1399 0.9306
C22_4 C 0.0971(5) 0.2446(3) 0.9440(5)
O3_4 O 0.8181(5) 0.3460(2) 0.7329(4)
O4_4 O 0.7222(4) 0.2735(2) 0.6815(4)
C7_4 C 0.9213(6) 0.0394(3) 0.8598(5)
H5_4 H 0.9876 0.0489 0.8586
C8_4 C 0.8521(6) 0.0843(3) 0.8555(5)
C9_4 C 0.7533(6) 0.0688(3) 0.8595(5)
H6_4 H 0.7047 0.0979 0.8577
C10_4 C 0.7291(5) 0.0090(3) 0.8662(5)
C12_4 C 0.5474(6) 0.0289(4) 0.8582(7)
H7_4 H 0.5587 0.0680 0.8425
C13_3 C 0.4533(7) 0.0107(5) 0.8647(8)
H8_3 H 0.3993 0.0350 0.8466
C16_4 C 0.8818(6) 0.1482(3) 0.8496(5)
C17_4 C 0.9696(6) 0.1670(3) 0.8964(5)
C18_4 C 0.9997(5) 0.2259(3) 0.8928(5)
C19_4 C 0.9407(6) 0.2667(3) 0.8401(5)
H12_4 H 0.9608 0.3061 0.8367
C20_4 C 0.8528(5) 0.2479(3) 0.7936(5)
C21_4 C 0.8227(6) 0.1888(3) 0.7978(5)
H13_4 H 0.7636 0.1764 0.7663
C23_4 C 0.7935(6) 0.2918(3) 0.7326(5)
N1_4 N 0.9304(5) 0.8754(3) 0.8748(4)
N2_4 N 0.7965(4) 0.9650(2) 0.8694(4)
N3_4 N 0.6137(5) 0.9348(3) 0.9059(5)
C1_4 C 0.9943(7) 0.8294(3) 0.8734(6)
H1_4 H 0.9706 0.7910 0.8797
C5_4 C 0.9650(6) 0.9312(3) 0.8686(5)
C6_4 C 0.8936(5) 0.9800(3) 0.8658(5)
C11_4 C 0.6262(5) 0.9905(3) 0.8744(5)
C14_3 C 0.4407(6) 0.9541(5) 0.8997(7)
H9_3 H 0.3783 0.9409 0.9096
C15_4 C 0.5225(7) 0.9181(4) 0.9191(7)
H10_4 H 0.5138 0.8806 0.9424
O1_5 O 0.6456(4) 0.2934(2) 0.4893(4)
O5_5 O 0.7884(5) 0.3797(3) 0.4294(5)
O6_5 O 0.6601(4) 0.4263(2) 0.4615(4)
O7_5 O 0.7099(6) 0.4389(4) 0.3345(5)
N4_5 N 0.7180(6) 0.4163(3) 0.4080(5)
C1_5 C 0.4943(7) 0.6706(3) 0.3734(6)
H1_5 H 0.4706 0.7090 0.3797
C2_3 C 0.5911(8) 0.6635(5) 0.3635(7)
H2_3 H 0.6315 0.6965 0.3595
C3_3 C 0.6284(8) 0.6075(5) 0.3594(8)
H3_3 H 0.6954 0.6016 0.3558
C4_3 C 0.5649(6) 0.5595(4) 0.3606(7)
H4_3 H 0.5888 0.5210 0.3562
C5_5 C 0.4650(6) 0.5688(3) 0.3686(5)
C6_5 C 0.3936(5) 0.5200(3) 0.3658(5)
C7_5 C 0.4213(6) 0.4606(3) 0.3598(5)
H5_5 H 0.4876 0.4511 0.3586
C8_5 C 0.3521(6) 0.4157(3) 0.3555(5)
C9_5 C 0.2533(6) 0.4312(3) 0.3595(5)
H6_5 H 0.2047 0.4021 0.3577
C10_5 C 0.2291(5) 0.4910(3) 0.3662(5)
C11_5 C 0.1262(5) 0.5095(3) 0.3744(5)
C12_5 C 0.0474(6) 0.4711(4) 0.3582(7)
H7_5 H 0.0587 0.4320 0.3425
C15_5 C 0.0225(7) 0.5819(4) 0.4191(7)
H10_5 H 0.0138 0.6194 0.4424
C16_5 C 0.3818(6) 0.3518(3) 0.3496(5)
C17_5 C 0.4696(6) 0.3330(3) 0.3964(5)
H11_5 H 0.5088 0.3601 0.4306
C18_5 C 0.4997(5) 0.2741(3) 0.3928(5)
C19_5 C 0.4407(6) 0.2333(3) 0.3401(5)
H12_5 H 0.4608 0.1939 0.3367
C20_5 C 0.3528(5) 0.2521(3) 0.2936(5)
C21_5 C 0.3227(6) 0.3112(3) 0.2978(5)
H13_5 H 0.2636 0.3236 0.2663
C22_5 C 0.5971(5) 0.2554(3) 0.4440(5)
C23_5 C 0.2935(6) 0.2082(3) 0.2326(5)
O1_6 O 0.3544(4) 0.2934(2) 0.0107(4)
O5_6 O 0.2116(5) 0.3797(3) 0.0706(5)
O6_6 O 0.3399(4) 0.4263(2) 0.0385(4)
O7_6 O 0.2901(6) 0.4389(4) 0.1655(5)
N4_6 N 0.2820(6) 0.4163(3) 0.0920(5)
C1_6 C 0.5057(7) 0.6706(3) 0.1266(6)
H1_6 H 0.5294 0.7090 0.1203
C2_4 C 0.4089(8) 0.6635(5) 0.1365(7)
H2_4 H 0.3685 0.6965 0.1405
C3_4 C 0.3716(8) 0.6075(5) 0.1406(8)
H3_4 H 0.3046 0.6016 0.1442
C4_4 C 0.4351(6) 0.5595(4) 0.1394(7)
H4_4 H 0.4112 0.5210 0.1438
C5_6 C 0.5350(6) 0.5688(3) 0.1314(5)
C6_6 C 0.6064(5) 0.5200(3) 0.1342(5)
C7_6 C 0.5787(6) 0.4606(3) 0.1402(5)
H5_6 H 0.5124 0.4511 0.1414
C8_6 C 0.6479(6) 0.4157(3) 0.1445(5)
C9_6 C 0.7467(6) 0.4312(3) 0.1405(5)
H6_6 H 0.7953 0.4021 0.1423
C10_6 C 0.7709(5) 0.4910(3) 0.1338(5)
C11_6 C 0.8738(5) 0.5095(3) 0.1256(5)
C12_6 C 0.9526(6) 0.4711(4) 0.1418(7)
H7_6 H 0.9413 0.4320 0.1575
C15_6 C 0.9775(7) 0.5819(4) 0.0809(7)
H10_6 H 0.9862 0.6194 0.0576
C16_6 C 0.6182(6) 0.3518(3) 0.1504(5)
C17_6 C 0.5304(6) 0.3330(3) 0.1036(5)
H11_6 H 0.4912 0.3601 0.0694
C18_6 C 0.5003(5) 0.2741(3) 0.1072(5)
C19_6 C 0.5593(6) 0.2333(3) 0.1599(5)
H12_6 H 0.5392 0.1939 0.1633
C20_6 C 0.6472(5) 0.2521(3) 0.2064(5)
C21_6 C 0.6773(6) 0.3112(3) 0.2022(5)
H13_6 H 0.7364 0.3236 0.2337
C22_6 C 0.4029(5) 0.2554(3) 0.0560(5)
C23_6 C 0.7065(6) 0.2082(3) 0.2674(5)
O1_7 O 0.1456(4) 0.7934(2) 0.4893(4)
O5_7 O 0.2884(5) 0.8797(3) 0.4294(5)
O6_7 O 0.1601(4) 0.9263(2) 0.4615(4)
O7_7 O 0.2099(6) 0.9389(4) 0.3345(5)
N4_7 N 0.2180(6) 0.9163(3) 0.4080(5)
H11_7 H 0.0088 0.8601 0.4306
C22_7 C 0.0971(5) 0.7554(3) 0.4440(5)
C1_7 C 0.9943(7) 0.1706(3) 0.3734(6)
H1_7 H 0.9706 0.2090 0.3797
C5_7 C 0.9650(6) 0.0688(3) 0.3686(5)
C6_7 C 0.8936(5) 0.0200(3) 0.3658(5)
C11_7 C 0.6262(5) 0.0095(3) 0.3744(5)
C14_4 C 0.4407(6) 0.0459(5) 0.3997(7)
H9_4 H 0.3783 0.0591 0.4096
C15_7 C 0.5225(7) 0.0819(4) 0.4191(7)
H10_7 H 0.5138 0.1194 0.4424
C7_7 C 0.9213(6) 0.9606(3) 0.3598(5)
H5_7 H 0.9876 0.9511 0.3586
C8_7 C 0.8521(6) 0.9157(3) 0.3555(5)
C9_7 C 0.7533(6) 0.9312(3) 0.3595(5)
H6_7 H 0.7047 0.9021 0.3577
C10_7 C 0.7291(5) 0.9910(3) 0.3662(5)
C12_7 C 0.5474(6) 0.9711(4) 0.3582(7)
H7_7 H 0.5587 0.9320 0.3425
C13_4 C 0.4533(7) 0.9893(5) 0.3647(8)
H8_4 H 0.3993 0.9650 0.3466
C16_7 C 0.8818(6) 0.8518(3) 0.3496(5)
C17_7 C 0.9696(6) 0.8330(3) 0.3964(5)
C18_7 C 0.9997(5) 0.7741(3) 0.3928(5)
C19_7 C 0.9407(6) 0.7333(3) 0.3401(5)
H12_7 H 0.9608 0.6939 0.3367
C20_7 C 0.8528(5) 0.7521(3) 0.2936(5)
C21_7 C 0.8227(6) 0.8112(3) 0.2978(5)
H13_7 H 0.7636 0.8236 0.2663
C23_7 C 0.7935(6) 0.7082(3) 0.2326(5)
C1_8 C 0.0057(7) 0.1706(3) 0.1266(6)
H1_8 H 0.0294 0.2090 0.1203
C5_8 C 0.0350(6) 0.0688(3) 0.1314(5)
C6_8 C 0.1064(5) 0.0200(3) 0.1342(5)
C11_8 C 0.3738(5) 0.0095(3) 0.1256(5)
C14_5 C 0.5593(6) 0.0459(5) 0.1003(7)
H9_5 H 0.6217 0.0591 0.0904
C15_8 C 0.4775(7) 0.0819(4) 0.0809(7)
H10_8 H 0.4862 0.1194 0.0576
C7_8 C 0.0787(6) 0.9606(3) 0.1402(5)
H5_8 H 0.0124 0.9511 0.1414
C8_8 C 0.1479(6) 0.9157(3) 0.1445(5)
C9_8 C 0.2467(6) 0.9312(3) 0.1405(5)
H6_8 H 0.2953 0.9021 0.1423
C10_8 C 0.2709(5) 0.9910(3) 0.1338(5)
C12_8 C 0.4526(6) 0.9711(4) 0.1418(7)
H7_8 H 0.4413 0.9320 0.1575
C13_5 C 0.5467(7) 0.9893(5) 0.1353(8)
H8_5 H 0.6007 0.9650 0.1534
C16_8 C 0.1182(6) 0.8518(3) 0.1504(5)
C17_8 C 0.0304(6) 0.8330(3) 0.1036(5)
C18_8 C 0.0003(5) 0.7741(3) 0.1072(5)
C19_8 C 0.0593(6) 0.7333(3) 0.1599(5)
H12_8 H 0.0392 0.6939 0.1633
C20_8 C 0.1472(5) 0.7521(3) 0.2064(5)
C21_8 C 0.1773(6) 0.8112(3) 0.2022(5)
H13_8 H 0.2364 0.8236 0.2337
C23_8 C 0.2065(6) 0.7082(3) 0.2674(5)
O1_8 O 0.8544(4) 0.7934(2) 0.0107(4)
O5_8 O 0.7116(5) 0.8797(3) 0.0706(5)
O6_8 O 0.8399(4) 0.9263(2) 0.0385(4)
O7_8 O 0.7901(6) 0.9389(4) 0.1655(5)
N4_8 N 0.7820(6) 0.9163(3) 0.0920(5)
H11_8 H 0.9912 0.8601 0.0694
C22_8 C 0.9029(5) 0.7554(3) 0.0560(5)
C13_6 C 0.9533(7) 0.5107(5) 0.8647(8)
H8_6 H 0.8993 0.5350 0.8466
C14_6 C 0.9407(6) 0.4541(5) 0.8997(7)
H9_6 H 0.8783 0.4409 0.9096
C2_5 C 0.9089(8) 0.8365(5) 0.6365(7)
H2_5 H 0.8685 0.8035 0.6405
C3_5 C 0.8716(8) 0.8925(5) 0.6406(8)
H3_5 H 0.8046 0.8984 0.6442
C4_5 C 0.9351(6) 0.9405(4) 0.6394(7)
H4_5 H 0.9112 0.9790 0.6438
C2_6 C 0.0911(8) 0.8365(5) 0.8635(7)
H2_6 H 0.1315 0.8035 0.8595
C3_6 C 0.1284(8) 0.8925(5) 0.8594(8)
H3_6 H 0.1954 0.8984 0.8558
C4_6 C 0.0649(6) 0.9405(4) 0.8606(7)
H4_6 H 0.0888 0.9790 0.8562
C13_7 C 0.9533(7) 0.4893(5) 0.3647(8)
H8_7 H 0.8993 0.4650 0.3466
C14_7 C 0.9407(6) 0.5459(5) 0.3997(7)
H9_7 H 0.8783 0.5591 0.4096
C13_8 C 0.0467(7) 0.4893(5) 0.1353(8)
H8_8 H 0.1007 0.4650 0.1534
C14_8 C 0.0593(6) 0.5459(5) 0.1003(7)
H9_8 H 0.1217 0.5591 0.0904
C2_7 C 0.0911(8) 0.1635(5) 0.3635(7)
H2_7 H 0.1315 0.1965 0.3595
C3_7 C 0.1284(8) 0.1075(5) 0.3594(8)
H3_7 H 0.1954 0.1016 0.3558
C4_7 C 0.0649(6) 0.0595(4) 0.3606(7)
H4_7 H 0.0888 0.0210 0.3562
C2_8 C 0.9089(8) 0.1635(5) 0.1365(7)
H2_8 H 0.8685 0.1965 0.1405
C3_8 C 0.8716(8) 0.1075(5) 0.1406(8)
H3_8 H 0.8046 0.1016 0.1442
C4_8 C 0.9351(6) 0.0595(4) 0.1394(7)
H4_8 H 0.9112 0.0210 0.1438
loop_
_geom_bond_atom_site_label_1
_geom_bond_atom_site_label_2
_geom_bond_site_symmetry_1
_geom_bond_site_symmetry_2
H8 C13 1_555 1_555
C14 C13 1_555 1_555
H9 C14 1_555 1_555
Eu1 O1 1_555 1_555
O1 C22 1_555 1_555
O2 C22 1_555 1_555
O3 C23 1_555 1_555
O4 C23 1_555 1_555
O5 Eu1 1_555 1_555
O6 Eu1 1_555 1_555
O7 N4 1_555 1_555
N1 C1 1_555 1_555
N2 C6 1_555 1_555
N3 C11 1_555 1_555
N4 O5 1_555 1_555
C1 H1 1_555 1_555
C2 C1 1_555 1_555
H2 C2 1_555 1_555
C3 C2 1_555 1_555
H3 C3 1_555 1_555
C4 C3 1_555 1_555
H4 C4 1_555 1_555
C5 N1 1_555 1_555
C6 C5 1_555 1_555
C7 C6 1_555 1_555
H5 C7 1_555 1_555
C8 C7 1_555 1_555
C9 C8 1_555 1_555
H6 C9 1_555 1_555
C10 N2 1_555 1_555
C11 C10 1_555 1_555
C12 C11 1_555 1_555
H7 C12 1_555 1_555
C15 N3 1_555 1_555
H10 C15 1_555 1_555
C16 C8 1_555 1_555
C17 C16 1_555 1_555
H11 C17 1_555 1_555
C18 C17 1_555 1_555
C19 C18 1_555 1_555
H12 C19 1_555 1_555
C20 C19 1_555 1_555
C21 C16 1_555 1_555
H13 C21 1_555 1_555
C22 C18 1_555 1_555
C23 C20 1_555 1_555
Eu2 N1 1_555 1_555
Eu3 O2 1_555 1_555
Eu4 O3 1_555 1_555
O8 Eu1 1_555 1_555
O9 Eu1 1_555 1_555
O10 Eu1 1_555 1_555
N5 Eu1 1_555 1_555
N6 Eu1 1_555 1_555
N7 Eu1 1_555 1_555
O4 Eu4 1_555 1_555
O6 N4 1_555 1_555
N2 Eu2 1_555 1_555
N3 Eu2 1_555 1_555
C4 C5 1_555 1_555
C9 C10 1_555 1_555
C20 C21 1_555 1_555
O8_2 Eu1_2 1_555 1_555
O9_2 Eu1_2 1_555 1_555
O10_2 Eu1_2 1_555 1_555
N5_2 Eu1_2 1_555 1_555
N6_2 Eu1_2 1_555 1_555
N7_2 Eu1_2 1_555 1_555
O1_2 C22_2 1_555 1_555
O2_2 C22_2 1_555 1_555
O3_2 C23_2 1_555 1_555
O4_2 C23_2 1_555 1_555
O7_2 N4_2 1_555 1_555
N1_2 C1_2 1_555 1_555
N2_2 C6_2 1_555 1_555
N3_2 C11_2 1_555 1_555
N4_2 O5_2 1_555 1_555
C1_2 H1_2 1_555 1_555
C2_2 C1_2 1_555 1_555
H2_2 C2_2 1_555 1_555
C3_2 C2_2 1_555 1_555
H3_2 C3_2 1_555 1_555
C4_2 C3_2 1_555 1_555
H4_2 C4_2 1_555 1_555
C5_2 N1_2 1_555 1_555
C6_2 C5_2 1_555 1_555
C7_2 C6_2 1_555 1_555
H5_2 C7_2 1_555 1_555
C8_2 C7_2 1_555 1_555
C9_2 C8_2 1_555 1_555
H6_2 C9_2 1_555 1_555
C10_2 N2_2 1_555 1_555
C11_2 C10_2 1_555 1_555
C12_2 C11_2 1_555 1_555
H7_2 C12_2 1_555 1_555
C15_2 N3_2 1_555 1_555
H10_2 C15_2 1_555 1_555
C16_2 C8_2 1_555 1_555
C17_2 C16_2 1_555 1_555
H11_2 C17_2 1_555 1_555
C18_2 C17_2 1_555 1_555
C19_2 C18_2 1_555 1_555
H12_2 C19_2 1_555 1_555
C20_2 C19_2 1_555 1_555
C21_2 C16_2 1_555 1_555
H13_2 C21_2 1_555 1_555
C22_2 C18_2 1_555 1_555
C23_2 C20_2 1_555 1_555
Eu2_2 N1_2 1_555 1_555
Eu4 O2_2 1_555 1_555
Eu3 O3_2 1_555 1_555
O4_2 Eu3 1_555 1_555
O6_2 N4_2 1_555 1_555
N2_2 Eu2_2 1_555 1_555
N3_2 Eu2_2 1_555 1_555
C4_2 C5_2 1_555 1_555
C9_2 C10_2 1_555 1_555
C20_2 C21_2 1_555 1_555
O3_3 C23_3 1_555 1_555
O4_3 C23_3 1_555 1_555
H5_3 C7_3 1_555 1_555
C8_3 C7_3 1_555 1_555
C9_3 C8_3 1_555 1_555
H6_3 C9_3 1_555 1_555
H7_3 C12_3 1_555 1_555
C13_2 C12_3 1_555 1_555
H8_2 C13_2 1_555 1_555
C16_3 C8_3 1_555 1_555
C17_3 C16_3 1_555 1_555
C18_3 C17_3 1_555 1_555
C19_3 C18_3 1_555 1_555
H12_3 C19_3 1_555 1_555
C20_3 C19_3 1_555 1_555
C21_3 C16_3 1_555 1_555
H13_3 C21_3 1_555 1_555
C23_3 C20_3 1_555 1_555
Eu2_2 O3_3 1_555 1_555
O4_3 Eu2_2 1_555 1_555
C9_3 C10_3 1_555 1_555
C20_3 C21_3 1_555 1_555
N1_3 C1_3 1_555 1_555
N2_3 C6_3 1_555 1_555
N3_3 C11_3 1_555 1_555
C1_3 H1_3 1_555 1_555
C5_3 N1_3 1_555 1_555
C6_3 C5_3 1_555 1_555
H9_2 C14_2 1_555 1_555
C15_3 N3_3 1_555 1_555
H10_3 C15_3 1_555 1_555
Eu3 N1_3 1_555 1_555
N2_3 Eu3 1_555 1_555
N3_3 Eu3 1_555 1_555
C14_2 C15_3 1_555 1_555
Eu1_3 O1_3 1_555 1_555
O1_3 C22_3 1_555 1_555
O2_3 C22_3 1_555 1_555
O5_3 Eu1_3 1_555 1_555
O6_3 Eu1_3 1_555 1_555
O7_3 N4_3 1_555 1_555
N4_3 O5_3 1_555 1_555
Eu2 O2_3 1_555 1_555
O8_3 Eu1_3 1_555 1_555
O9_3 Eu1_3 1_555 1_555
O10_3 Eu1_3 1_555 1_555
N5_3 Eu1_3 1_555 1_555
N6_3 Eu1_3 1_555 1_555
N7_3 Eu1_3 1_555 1_555
O6_3 N4_3 1_555 1_555
O8_4 Eu1_4 1_555 1_555
O9_4 Eu1_4 1_555 1_555
O10_4 Eu1_4 1_555 1_555
N5_4 Eu1_4 1_555 1_555
N6_4 Eu1_4 1_555 1_555
N7_4 Eu1_4 1_555 1_555
O1_4 C22_4 1_555 1_555
O2_4 C22_4 1_555 1_555
O7_4 N4_4 1_555 1_555
N4_4 O5_4 1_555 1_555
Eu2_2 O2_4 1_555 1_555
O6_4 N4_4 1_555 1_555
O3_4 C23_4 1_555 1_555
O4_4 C23_4 1_555 1_555
H5_4 C7_4 1_555 1_555
C8_4 C7_4 1_555 1_555
C9_4 C8_4 1_555 1_555
H6_4 C9_4 1_555 1_555
H7_4 C12_4 1_555 1_555
C13_3 C12_4 1_555 1_555
H8_3 C13_3 1_555 1_555
C16_4 C8_4 1_555 1_555
C17_4 C16_4 1_555 1_555
C18_4 C17_4 1_555 1_555
C19_4 C18_4 1_555 1_555
H12_4 C19_4 1_555 1_555
C20_4 C19_4 1_555 1_555
C21_4 C16_4 1_555 1_555
H13_4 C21_4 1_555 1_555
C23_4 C20_4 1_555 1_555
Eu2 O3_4 1_555 1_555
O4_4 Eu2 1_555 1_555
C9_4 C10_4 1_555 1_555
C20_4 C21_4 1_555 1_555
N1_4 C1_4 1_555 1_555
N2_4 C6_4 1_555 1_555
N3_4 C11_4 1_555 1_555
C1_4 H1_4 1_555 1_555
C5_4 N1_4 1_555 1_555
C6_4 C5_4 1_555 1_555
H9_3 C14_3 1_555 1_555
C15_4 N3_4 1_555 1_555
H10_4 C15_4 1_555 1_555
Eu4 N1_4 1_555 1_555
N2_4 Eu4 1_555 1_555
N3_4 Eu4 1_555 1_555
C14_3 C15_4 1_555 1_555
Eu2 O1_5 1_555 1_555
O1_5 C22_5 1_555 1_555
O8_3 C22_5 1_555 1_555
O9_4 C23_5 1_555 1_555
O10_4 C23_5 1_555 1_555
O5_5 Eu2 1_555 1_555
O6_5 Eu2 1_555 1_555
O7_5 N4_5 1_555 1_555
N5 C1_5 1_555 1_555
N6 C6_5 1_555 1_555
N7 C11_5 1_555 1_555
N4_5 O5_5 1_555 1_555
C1_5 H1_5 1_555 1_555
C2_3 C1_5 1_555 1_555
H2_3 C2_3 1_555 1_555
C3_3 C2_3 1_555 1_555
H3_3 C3_3 1_555 1_555
C4_3 C3_3 1_555 1_555
H4_3 C4_3 1_555 1_555
C5_5 N5 1_555 1_555
C6_5 C5_5 1_555 1_555
C7_5 C6_5 1_555 1_555
H5_5 C7_5 1_555 1_555
C8_5 C7_5 1_555 1_555
C9_5 C8_5 1_555 1_555
H6_5 C9_5 1_555 1_555
C10_5 N6 1_555 1_555
C11_5 C10_5 1_555 1_555
C12_5 C11_5 1_555 1_555
H7_5 C12_5 1_555 1_555
C15_5 N7 1_555 1_555
H10_5 C15_5 1_555 1_555
C16_5 C8_5 1_555 1_555
C17_5 C16_5 1_555 1_555
H11_5 C17_5 1_555 1_555
C18_5 C17_5 1_555 1_555
C19_5 C18_5 1_555 1_555
H12_5 C19_5 1_555 1_555
C20_5 C19_5 1_555 1_555
C21_5 C16_5 1_555 1_555
H13_5 C21_5 1_555 1_555
C22_5 C18_5 1_555 1_555
C23_5 C20_5 1_555 1_555
O6_5 N4_5 1_555 1_555
C4_3 C5_5 1_555 1_555
C9_5 C10_5 1_555 1_555
C20_5 C21_5 1_555 1_555
O1_6 C22_6 1_555 1_555
O8_4 C22_6 1_555 1_555
O9_3 C23_6 1_555 1_555
O10_3 C23_6 1_555 1_555
O7_6 N4_6 1_555 1_555
N5_2 C1_6 1_555 1_555
N6_2 C6_6 1_555 1_555
N7_2 C11_6 1_555 1_555
N4_6 O5_6 1_555 1_555
C1_6 H1_6 1_555 1_555
C2_4 C1_6 1_555 1_555
H2_4 C2_4 1_555 1_555
C3_4 C2_4 1_555 1_555
H3_4 C3_4 1_555 1_555
C4_4 C3_4 1_555 1_555
H4_4 C4_4 1_555 1_555
C5_6 N5_2 1_555 1_555
C6_6 C5_6 1_555 1_555
C7_6 C6_6 1_555 1_555
H5_6 C7_6 1_555 1_555
C8_6 C7_6 1_555 1_555
C9_6 C8_6 1_555 1_555
H6_6 C9_6 1_555 1_555
C10_6 N6_2 1_555 1_555
C11_6 C10_6 1_555 1_555
C12_6 C11_6 1_555 1_555
H7_6 C12_6 1_555 1_555
C15_6 N7_2 1_555 1_555
H10_6 C15_6 1_555 1_555
C16_6 C8_6 1_555 1_555
C17_6 C16_6 1_555 1_555
H11_6 C17_6 1_555 1_555
C18_6 C17_6 1_555 1_555
C19_6 C18_6 1_555 1_555
H12_6 C19_6 1_555 1_555
C20_6 C19_6 1_555 1_555
C21_6 C16_6 1_555 1_555
H13_6 C21_6 1_555 1_555
C22_6 C18_6 1_555 1_555
C23_6 C20_6 1_555 1_555
O6_6 N4_6 1_555 1_555
C4_4 C5_6 1_555 1_555
C9_6 C10_6 1_555 1_555
C20_6 C21_6 1_555 1_555
Eu3 O1_7 1_555 1_555
O1_7 C22_7 1_555 1_555
O8 C22_7 1_555 1_555
O5_7 Eu3 1_555 1_555
O6_7 Eu3 1_555 1_555
O7_7 N4_7 1_555 1_555
N4_7 O5_7 1_555 1_555
O6_7 N4_7 1_555 1_555
N5_3 C1_7 1_555 1_555
N6_3 C6_7 1_555 1_555
N7_3 C11_7 1_555 1_555
C1_7 H1_7 1_555 1_555
C5_7 N5_3 1_555 1_555
C6_7 C5_7 1_555 1_555
H9_4 C14_4 1_555 1_555
C15_7 N7_3 1_555 1_555
H10_7 C15_7 1_555 1_555
C14_4 C15_7 1_555 1_555
O9_2 C23_7 1_555 1_555
O10_2 C23_7 1_555 1_555
H5_7 C7_7 1_555 1_555
C8_7 C7_7 1_555 1_555
C9_7 C8_7 1_555 1_555
H6_7 C9_7 1_555 1_555
H7_7 C12_7 1_555 1_555
C13_4 C12_7 1_555 1_555
H8_4 C13_4 1_555 1_555
C16_7 C8_7 1_555 1_555
C17_7 C16_7 1_555 1_555
C18_7 C17_7 1_555 1_555
C19_7 C18_7 1_555 1_555
H12_7 C19_7 1_555 1_555
C20_7 C19_7 1_555 1_555
C21_7 C16_7 1_555 1_555
H13_7 C21_7 1_555 1_555
C23_7 C20_7 1_555 1_555
C9_7 C10_7 1_555 1_555
C20_7 C21_7 1_555 1_555
N5_4 C1_8 1_555 1_555
N6_4 C6_8 1_555 1_555
N7_4 C11_8 1_555 1_555
C1_8 H1_8 1_555 1_555
C5_8 N5_4 1_555 1_555
C6_8 C5_8 1_555 1_555
H9_5 C14_5 1_555 1_555
C15_8 N7_4 1_555 1_555
H10_8 C15_8 1_555 1_555
C14_5 C15_8 1_555 1_555
O9 C23_8 1_555 1_555
O10 C23_8 1_555 1_555
H5_8 C7_8 1_555 1_555
C8_8 C7_8 1_555 1_555
C9_8 C8_8 1_555 1_555
H6_8 C9_8 1_555 1_555
H7_8 C12_8 1_555 1_555
C13_5 C12_8 1_555 1_555
H8_5 C13_5 1_555 1_555
C16_8 C8_8 1_555 1_555
C17_8 C16_8 1_555 1_555
C18_8 C17_8 1_555 1_555
C19_8 C18_8 1_555 1_555
H12_8 C19_8 1_555 1_555
C20_8 C19_8 1_555 1_555
C21_8 C16_8 1_555 1_555
H13_8 C21_8 1_555 1_555
C23_8 C20_8 1_555 1_555
C9_8 C10_8 1_555 1_555
C20_8 C21_8 1_555 1_555
O1_8 C22_8 1_555 1_555
O8_2 C22_8 1_555 1_555
O7_8 N4_8 1_555 1_555
N4_8 O5_8 1_555 1_555
O6_8 N4_8 1_555 1_555
H8_6 C13_6 1_555 1_555
C14_6 C13_6 1_555 1_555
H9_6 C14_6 1_555 1_555
H2_5 C2_5 1_555 1_555
C3_5 C2_5 1_555 1_555
H3_5 C3_5 1_555 1_555
C4_5 C3_5 1_555 1_555
H4_5 C4_5 1_555 1_555
H2_6 C2_6 1_555 1_555
C3_6 C2_6 1_555 1_555
H3_6 C3_6 1_555 1_555
C4_6 C3_6 1_555 1_555
H4_6 C4_6 1_555 1_555
H8_7 C13_7 1_555 1_555
C14_7 C13_7 1_555 1_555
H9_7 C14_7 1_555 1_555
H8_8 C13_8 1_555 1_555
C14_8 C13_8 1_555 1_555
H9_8 C14_8 1_555 1_555
H2_7 C2_7 1_555 1_555
C3_7 C2_7 1_555 1_555
H3_7 C3_7 1_555 1_555
C4_7 C3_7 1_555 1_555
H4_7 C4_7 1_555 1_555
H2_8 C2_8 1_555 1_555
C3_8 C2_8 1_555 1_555
H3_8 C3_8 1_555 1_555
C4_8 C3_8 1_555 1_555
H4_8 C4_8 1_555 1_555

#END
