
###############################################################################
#
# This file contains modified crystal structure data generated from the
# MOF subset of the Cambridge Structural Database (CSD) v543 
# hosted by the Cambridge Crystallographic Data Centre (CCDC).
#
# This work is licensed under the Creative Commons
# Attribution-NonCommercial-ShareAlike 4.0 International License.
# To view a copy of this license, visit
# http://creativecommons.org/licenses/by-nc-sa/4.0/
# or send a letter to
# Creative Commons, PO Box 1866, Mountain View, CA 94042, USA.
#
# CIF created using the CSD Python API on 29 September 2022
# The structure has been converted into the P1 space group
# The structure has a 3D framework
# The original CSD entry LEYCIE is in the monoclinic crystal system
# The framework has been calculated to contain at least 10.0% void space
# The void calculation uses a probe of radius 1.32A, grid spacing 0.4
#
###############################################################################

data_LEYCIE
_chemical_formula_moiety         '(C188 H104 Gd4 N32 O56)n'
_symmetry_cell_setting           triclinic
_symmetry_space_group_name_H-M   'P 1'
_symmetry_Int_Tables_number      1
_space_group_name_Hall           'P 1'
loop_
_symmetry_equiv_pos_site_id
_symmetry_equiv_pos_as_xyz
1 x,y,z
_cell_length_a                   13.6273(8)
_cell_length_b                   22.3061(11)
_cell_length_c                   15.4294(10)
_cell_angle_alpha                90
_cell_angle_beta                 97.172(6)
_cell_angle_gamma                90
_cell_volume                     4653.41
loop_
_atom_site_label
_atom_site_type_symbol
_atom_site_fract_x
_atom_site_fract_y
_atom_site_fract_z
C13 C 0.0479(5) 0.5092(4) 0.6345(6)
H8 H 0.1021 0.5339 0.6506
C14 C 0.0593(5) 0.4530(4) 0.6012(6)
H9 H 0.1216 0.4391 0.5924
Gd1 Gd 0.25745(2) 0.64219(2) 0.42020(2)
O1 O 0.3541(3) 0.7064(2) 0.5114(3)
O2 O 0.3769(3) 0.79768(19) 0.5642(3)
O3 O 0.6816(4) 0.84669(19) 0.7681(3)
O4 O 0.7772(3) 0.7736(2) 0.8197(3)
O5 O 0.2111(4) 0.6201(3) 0.5699(4)
O6 O 0.3398(3) 0.5738(2) 0.5396(3)
O7 O 0.2906(5) 0.5615(3) 0.6656(4)
N1 N 0.5710(4) 0.3750(2) 0.6236(3)
N2 N 0.7040(3) 0.4642(2) 0.6300(3)
N3 N 0.8863(4) 0.4343(2) 0.5941(4)
N4 N 0.2818(4) 0.5841(3) 0.5929(4)
C1 C 0.5077(5) 0.3288(3) 0.6274(5)
H1 H 0.5316 0.2901 0.6220
C2 C 0.4116(6) 0.3356(4) 0.6386(6)
H2 H 0.3714 0.3023 0.6431
C3 C 0.3748(6) 0.3918(4) 0.6431(7)
H3 H 0.3082 0.3976 0.6484
C4 C 0.4368(5) 0.4400(3) 0.6398(5)
H4 H 0.4126 0.4788 0.6432
C5 C 0.5361(4) 0.4305(3) 0.6313(4)
C6 C 0.6075(4) 0.4797(3) 0.6333(4)
C7 C 0.5788(5) 0.5390(3) 0.6391(4)
H5 H 0.5124 0.5483 0.6402
C8 C 0.6486(5) 0.5843(3) 0.6435(4)
C9 C 0.7474(5) 0.5683(3) 0.6391(4)
H6 H 0.7961 0.5976 0.6404
C10 C 0.7715(4) 0.5082(3) 0.6328(4)
C11 C 0.8748(4) 0.4894(3) 0.6240(4)
C12 C 0.9535(5) 0.5279(3) 0.6430(5)
H7 H 0.9428 0.5667 0.6616
C15 C 0.9776(5) 0.4179(4) 0.5814(6)
H10 H 0.9861 0.3802 0.5575
C16 C 0.6191(5) 0.6481(3) 0.6497(4)
C17 C 0.5308(4) 0.6676(3) 0.6027(4)
H11 H 0.4921 0.6407 0.5675
C18 C 0.5000(4) 0.7262(3) 0.6077(4)
C19 C 0.5584(5) 0.7669(3) 0.6602(4)
H12 H 0.5377 0.8064 0.6641
C20 C 0.6470(4) 0.7486(3) 0.7064(4)
C21 C 0.6767(5) 0.6893(3) 0.7018(4)
H13 H 0.7356 0.6769 0.7337
C22 C 0.4026(4) 0.7445(3) 0.5564(4)
C23 C 0.7077(5) 0.7924(3) 0.7665(4)
Gd2 Gd 0.74255(2) 0.35781(2) 0.57980(2)
Gd3 Gd 0.24255(2) 0.85781(2) 0.57980(2)
Gd4 Gd 0.75745(2) 0.85781(2) 0.92020(2)
O8 O 0.1231(3) 0.70232(19) 0.4358(3)
O9 O 0.1816(4) 0.65331(19) 0.2681(3)
O10 O 0.2772(3) 0.7264(2) 0.3197(3)
N5 N 0.4290(4) 0.6250(2) 0.3764(3)
N6 N 0.2960(3) 0.5358(2) 0.3700(3)
N7 N 0.1137(4) 0.5657(2) 0.4059(4)
Gd1_2 Gd 0.74255(2) 0.64219(2) 0.07980(2)
O8_2 O 0.8769(3) 0.70232(19) 0.0642(3)
O9_2 O 0.8184(4) 0.65331(19) 0.2319(3)
O10_2 O 0.7228(3) 0.7264(2) 0.1803(3)
N5_2 N 0.5710(4) 0.6250(2) 0.1236(3)
N6_2 N 0.7040(3) 0.5358(2) 0.1300(3)
N7_2 N 0.8863(4) 0.5657(2) 0.0941(4)
O1_2 O 0.6459(3) 0.7064(2) 0.9886(3)
O2_2 O 0.6231(3) 0.79768(19) 0.9358(3)
O3_2 O 0.3184(4) 0.84669(19) 0.7319(3)
O4_2 O 0.2228(3) 0.7736(2) 0.6803(3)
O5_2 O 0.7889(4) 0.6201(3) 0.9301(4)
O6_2 O 0.6602(3) 0.5738(2) 0.9604(3)
O7_2 O 0.7094(5) 0.5615(3) 0.8344(4)
N1_2 N 0.4290(4) 0.3750(2) 0.8764(3)
N2_2 N 0.2960(3) 0.4642(2) 0.8700(3)
N3_2 N 0.1137(4) 0.4343(2) 0.9059(4)
N4_2 N 0.7182(4) 0.5841(3) 0.9071(4)
C1_2 C 0.4923(5) 0.3288(3) 0.8726(5)
H1_2 H 0.4684 0.2901 0.8780
C2_2 C 0.5884(6) 0.3356(4) 0.8614(6)
H2_2 H 0.6286 0.3023 0.8569
C3_2 C 0.6252(6) 0.3918(4) 0.8569(7)
H3_2 H 0.6918 0.3976 0.8516
C4_2 C 0.5632(5) 0.4400(3) 0.8602(5)
H4_2 H 0.5874 0.4788 0.8568
C5_2 C 0.4639(4) 0.4305(3) 0.8687(4)
C6_2 C 0.3925(4) 0.4797(3) 0.8667(4)
C7_2 C 0.4212(5) 0.5390(3) 0.8609(4)
H5_2 H 0.4876 0.5483 0.8598
C8_2 C 0.3514(5) 0.5843(3) 0.8565(4)
C9_2 C 0.2526(5) 0.5683(3) 0.8609(4)
H6_2 H 0.2039 0.5976 0.8596
C10_2 C 0.2285(4) 0.5082(3) 0.8672(4)
C11_2 C 0.1252(4) 0.4894(3) 0.8760(4)
C12_2 C 0.0465(5) 0.5279(3) 0.8570(5)
H7_2 H 0.0572 0.5667 0.8384
C15_2 C 0.0224(5) 0.4179(4) 0.9186(6)
H10_2 H 0.0139 0.3802 0.9425
C16_2 C 0.3809(5) 0.6481(3) 0.8503(4)
C17_2 C 0.4692(4) 0.6676(3) 0.8973(4)
H11_2 H 0.5079 0.6407 0.9325
C18_2 C 0.5000(4) 0.7262(3) 0.8923(4)
C19_2 C 0.4416(5) 0.7669(3) 0.8398(4)
H12_2 H 0.4623 0.8064 0.8359
C20_2 C 0.3530(4) 0.7486(3) 0.7936(4)
C21_2 C 0.3233(5) 0.6893(3) 0.7982(4)
H13_2 H 0.2644 0.6769 0.7663
C22_2 C 0.5974(4) 0.7445(3) 0.9436(4)
C23_2 C 0.2923(5) 0.7924(3) 0.7335(4)
Gd2_2 Gd 0.25745(2) 0.35781(2) 0.92020(2)
O3_3 O 0.1816(4) 0.34669(19) 0.7681(3)
O4_3 O 0.2772(3) 0.2736(2) 0.8197(3)
C7_3 C 0.0788(5) 0.0390(3) 0.6391(4)
H5_3 H 0.0124 0.0483 0.6402
C8_3 C 0.1486(5) 0.0843(3) 0.6435(4)
C9_3 C 0.2474(5) 0.0683(3) 0.6391(4)
H6_3 H 0.2961 0.0976 0.6404
C10_3 C 0.2715(4) 0.0082(3) 0.6328(4)
C12_3 C 0.4535(5) 0.0279(3) 0.6430(5)
H7_3 H 0.4428 0.0667 0.6616
C13_2 C 0.5479(5) 0.0092(4) 0.6345(6)
H8_2 H 0.6021 0.0339 0.6506
C16_3 C 0.1191(5) 0.1481(3) 0.6497(4)
C17_3 C 0.0308(4) 0.1676(3) 0.6027(4)
C18_3 C 0.0000(4) 0.2262(3) 0.6077(4)
C19_3 C 0.0584(5) 0.2669(3) 0.6602(4)
H12_3 H 0.0377 0.3064 0.6641
C20_3 C 0.1470(4) 0.2486(3) 0.7064(4)
C21_3 C 0.1767(5) 0.1893(3) 0.7018(4)
H13_3 H 0.2356 0.1769 0.7337
C23_3 C 0.2077(5) 0.2924(3) 0.7665(4)
N1_3 N 0.0710(4) 0.8750(2) 0.6236(3)
N2_3 N 0.2040(3) 0.9642(2) 0.6300(3)
N3_3 N 0.3863(4) 0.9343(2) 0.5941(4)
C1_3 C 0.0077(5) 0.8288(3) 0.6274(5)
H1_3 H 0.0316 0.7901 0.6220
C5_3 C 0.0361(4) 0.9305(3) 0.6313(4)
C6_3 C 0.1075(4) 0.9797(3) 0.6333(4)
C11_3 C 0.3748(4) 0.9894(3) 0.6240(4)
C14_2 C 0.5593(5) 0.9530(4) 0.6012(6)
H9_2 H 0.6216 0.9391 0.5924
C15_3 C 0.4776(5) 0.9179(4) 0.5814(6)
H10_3 H 0.4861 0.8802 0.5575
Gd1_3 Gd 0.75745(2) 0.14219(2) 0.42020(2)
O1_3 O 0.8541(3) 0.2064(2) 0.5114(3)
O2_3 O 0.8769(3) 0.29768(19) 0.5642(3)
O5_3 O 0.7111(4) 0.1201(3) 0.5699(4)
O6_3 O 0.8398(3) 0.0738(2) 0.5396(3)
O7_3 O 0.7906(5) 0.0615(3) 0.6656(4)
N4_3 N 0.7818(4) 0.0841(3) 0.5929(4)
H11_3 H 0.9921 0.1407 0.5675
C18_4 C 1.0000(4) 0.2262(3) 0.6077(4)
C22_3 C 0.9026(4) 0.2445(3) 0.5564(4)
O8_3 O 0.6231(3) 0.20232(19) 0.4358(3)
O9_3 O 0.6816(4) 0.15331(19) 0.2681(3)
O10_3 O 0.7772(3) 0.2264(2) 0.3197(3)
N5_3 N 0.9290(4) 0.1250(2) 0.3764(3)
N6_3 N 0.7960(3) 0.0358(2) 0.3700(3)
N7_3 N 0.6137(4) 0.0657(2) 0.4059(4)
Gd1_4 Gd 0.24255(2) 0.14219(2) 0.07980(2)
O8_4 O 0.3769(3) 0.20232(19) 0.0642(3)
O9_4 O 0.3184(4) 0.15331(19) 0.2319(3)
O10_4 O 0.2228(3) 0.2264(2) 0.1803(3)
N5_4 N 0.0710(4) 0.1250(2) 0.1236(3)
N6_4 N 0.2040(3) 0.0358(2) 0.1300(3)
N7_4 N 0.3863(4) 0.0657(2) 0.0941(4)
O1_4 O 0.1459(3) 0.2064(2) 0.9886(3)
O2_4 O 0.1231(3) 0.29768(19) 0.9358(3)
O5_4 O 0.2889(4) 0.1201(3) 0.9301(4)
O6_4 O 0.1602(3) 0.0738(2) 0.9604(3)
O7_4 O 0.2094(5) 0.0615(3) 0.8344(4)
N4_4 N 0.2182(4) 0.0841(3) 0.9071(4)
H11_4 H 0.0079 0.1407 0.9325
C18_5 C 0.0000(4) 0.2262(3) 0.8923(4)
C22_4 C 0.0974(4) 0.2445(3) 0.9436(4)
O3_4 O 0.8184(4) 0.34669(19) 0.7319(3)
O4_4 O 0.7228(3) 0.2736(2) 0.6803(3)
C7_4 C 0.9212(5) 0.0390(3) 0.8609(4)
H5_4 H 0.9876 0.0483 0.8598
C8_4 C 0.8514(5) 0.0843(3) 0.8565(4)
C9_4 C 0.7526(5) 0.0683(3) 0.8609(4)
H6_4 H 0.7039 0.0976 0.8596
C10_4 C 0.7285(4) 0.0082(3) 0.8672(4)
C12_4 C 0.5465(5) 0.0279(3) 0.8570(5)
H7_4 H 0.5572 0.0667 0.8384
C13_3 C 0.4521(5) 0.0092(4) 0.8655(6)
H8_3 H 0.3979 0.0339 0.8494
C16_4 C 0.8809(5) 0.1481(3) 0.8503(4)
C17_4 C 0.9692(4) 0.1676(3) 0.8973(4)
C18_6 C 1.0000(4) 0.2262(3) 0.8923(4)
C19_4 C 0.9416(5) 0.2669(3) 0.8398(4)
H12_4 H 0.9623 0.3064 0.8359
C20_4 C 0.8530(4) 0.2486(3) 0.7936(4)
C21_4 C 0.8233(5) 0.1893(3) 0.7982(4)
H13_4 H 0.7644 0.1769 0.7663
C23_4 C 0.7923(5) 0.2924(3) 0.7335(4)
N1_4 N 0.9290(4) 0.8750(2) 0.8764(3)
N2_4 N 0.7960(3) 0.9642(2) 0.8700(3)
N3_4 N 0.6137(4) 0.9343(2) 0.9059(4)
C1_4 C 0.9923(5) 0.8288(3) 0.8726(5)
H1_4 H 0.9684 0.7901 0.8780
C5_4 C 0.9639(4) 0.9305(3) 0.8687(4)
C6_4 C 0.8925(4) 0.9797(3) 0.8667(4)
C11_4 C 0.6252(4) 0.9894(3) 0.8760(4)
C14_3 C 0.4407(5) 0.9530(4) 0.8988(6)
H9_3 H 0.3784 0.9391 0.9076
C15_4 C 0.5224(5) 0.9179(4) 0.9186(6)
H10_4 H 0.5139 0.8802 0.9425
O1_5 O 0.6459(3) 0.2936(2) 0.4886(3)
O5_5 O 0.7889(4) 0.3799(3) 0.4301(4)
O6_5 O 0.6602(3) 0.4262(2) 0.4604(3)
O7_5 O 0.7094(5) 0.4385(3) 0.3344(4)
N4_5 N 0.7182(4) 0.4159(3) 0.4071(4)
C1_5 C 0.4923(5) 0.6712(3) 0.3726(5)
H1_5 H 0.4684 0.7099 0.3780
C2_3 C 0.5884(6) 0.6644(4) 0.3614(6)
H2_3 H 0.6286 0.6977 0.3569
C3_3 C 0.6252(6) 0.6082(4) 0.3569(7)
H3_3 H 0.6918 0.6024 0.3516
C4_3 C 0.5632(5) 0.5600(3) 0.3602(5)
H4_3 H 0.5874 0.5212 0.3568
C5_5 C 0.4639(4) 0.5695(3) 0.3687(4)
C6_5 C 0.3925(4) 0.5203(3) 0.3667(4)
C7_5 C 0.4212(5) 0.4610(3) 0.3609(4)
H5_5 H 0.4876 0.4517 0.3598
C8_5 C 0.3514(5) 0.4157(3) 0.3565(4)
C9_5 C 0.2526(5) 0.4317(3) 0.3609(4)
H6_5 H 0.2039 0.4024 0.3596
C10_5 C 0.2285(4) 0.4918(3) 0.3672(4)
C11_5 C 0.1252(4) 0.5106(3) 0.3760(4)
C12_5 C 0.0465(5) 0.4721(3) 0.3570(5)
H7_5 H 0.0572 0.4333 0.3384
C15_5 C 0.0224(5) 0.5821(4) 0.4186(6)
H10_5 H 0.0139 0.6198 0.4425
C16_5 C 0.3809(5) 0.3519(3) 0.3503(4)
C17_5 C 0.4692(4) 0.3324(3) 0.3973(4)
H11_5 H 0.5079 0.3593 0.4325
C18_7 C 0.5000(4) 0.2738(3) 0.3923(4)
C19_5 C 0.4416(5) 0.2331(3) 0.3398(4)
H12_5 H 0.4623 0.1936 0.3359
C20_5 C 0.3530(4) 0.2514(3) 0.2936(4)
C21_5 C 0.3233(5) 0.3107(3) 0.2982(4)
H13_5 H 0.2644 0.3231 0.2663
C22_5 C 0.5974(4) 0.2555(3) 0.4436(4)
C23_5 C 0.2923(5) 0.2076(3) 0.2335(4)
O1_6 O 0.3541(3) 0.2936(2) 0.0114(3)
O5_6 O 0.2111(4) 0.3799(3) 0.0699(4)
O6_6 O 0.3398(3) 0.4262(2) 0.0396(3)
O7_6 O 0.2906(5) 0.4385(3) 0.1656(4)
N4_6 N 0.2818(4) 0.4159(3) 0.0929(4)
C1_6 C 0.5077(5) 0.6712(3) 0.1274(5)
H1_6 H 0.5316 0.7099 0.1220
C2_4 C 0.4116(6) 0.6644(4) 0.1386(6)
H2_4 H 0.3714 0.6977 0.1431
C3_4 C 0.3748(6) 0.6082(4) 0.1431(7)
H3_4 H 0.3082 0.6024 0.1484
C4_4 C 0.4368(5) 0.5600(3) 0.1398(5)
H4_4 H 0.4126 0.5212 0.1432
C5_6 C 0.5361(4) 0.5695(3) 0.1313(4)
C6_6 C 0.6075(4) 0.5203(3) 0.1333(4)
C7_6 C 0.5788(5) 0.4610(3) 0.1391(4)
H5_6 H 0.5124 0.4517 0.1402
C8_6 C 0.6486(5) 0.4157(3) 0.1435(4)
C9_6 C 0.7474(5) 0.4317(3) 0.1391(4)
H6_6 H 0.7961 0.4024 0.1404
C10_6 C 0.7715(4) 0.4918(3) 0.1328(4)
C11_6 C 0.8748(4) 0.5106(3) 0.1240(4)
C12_6 C 0.9535(5) 0.4721(3) 0.1430(5)
H7_6 H 0.9428 0.4333 0.1616
C15_6 C 0.9776(5) 0.5821(4) 0.0814(6)
H10_6 H 0.9861 0.6198 0.0575
C16_6 C 0.6191(5) 0.3519(3) 0.1497(4)
C17_6 C 0.5308(4) 0.3324(3) 0.1027(4)
H11_6 H 0.4921 0.3593 0.0675
C18_8 C 0.5000(4) 0.2738(3) 0.1077(4)
C19_6 C 0.5584(5) 0.2331(3) 0.1602(4)
H12_6 H 0.5377 0.1936 0.1641
C20_6 C 0.6470(4) 0.2514(3) 0.2064(4)
C21_6 C 0.6767(5) 0.3107(3) 0.2018(4)
H13_6 H 0.7356 0.3231 0.2337
C22_6 C 0.4026(4) 0.2555(3) 0.0564(4)
C23_6 C 0.7077(5) 0.2076(3) 0.2665(4)
O1_7 O 0.1459(3) 0.7936(2) 0.4886(3)
O5_7 O 0.2889(4) 0.8799(3) 0.4301(4)
O6_7 O 0.1602(3) 0.9262(2) 0.4604(3)
O7_7 O 0.2094(5) 0.9385(3) 0.3344(4)
N4_7 N 0.2182(4) 0.9159(3) 0.4071(4)
H11_7 H 0.0079 0.8593 0.4325
C18_9 C 0.0000(4) 0.7738(3) 0.3923(4)
C22_7 C 0.0974(4) 0.7555(3) 0.4436(4)
C1_7 C 0.9923(5) 0.1712(3) 0.3726(5)
H1_7 H 0.9684 0.2099 0.3780
C5_7 C 0.9639(4) 0.0695(3) 0.3687(4)
C6_7 C 0.8925(4) 0.0203(3) 0.3667(4)
C11_7 C 0.6252(4) 0.0106(3) 0.3760(4)
C14_4 C 0.4407(5) 0.0470(4) 0.3988(6)
H9_4 H 0.3784 0.0609 0.4076
C15_7 C 0.5224(5) 0.0821(4) 0.4186(6)
H10_7 H 0.5139 0.1198 0.4425
C7_7 C 0.9212(5) 0.9610(3) 0.3609(4)
H5_7 H 0.9876 0.9517 0.3598
C8_7 C 0.8514(5) 0.9157(3) 0.3565(4)
C9_7 C 0.7526(5) 0.9317(3) 0.3609(4)
H6_7 H 0.7039 0.9024 0.3596
C10_7 C 0.7285(4) 0.9918(3) 0.3672(4)
C12_7 C 0.5465(5) 0.9721(3) 0.3570(5)
H7_7 H 0.5572 0.9333 0.3384
C13_4 C 0.4521(5) 0.9908(4) 0.3655(6)
H8_4 H 0.3979 0.9661 0.3494
C16_7 C 0.8809(5) 0.8519(3) 0.3503(4)
C17_7 C 0.9692(4) 0.8324(3) 0.3973(4)
C18_10 C 1.0000(4) 0.7738(3) 0.3923(4)
C19_7 C 0.9416(5) 0.7331(3) 0.3398(4)
H12_7 H 0.9623 0.6936 0.3359
C20_7 C 0.8530(4) 0.7514(3) 0.2936(4)
C21_7 C 0.8233(5) 0.8107(3) 0.2982(4)
H13_7 H 0.7644 0.8231 0.2663
C23_7 C 0.7923(5) 0.7076(3) 0.2335(4)
C1_8 C 0.0077(5) 0.1712(3) 0.1274(5)
H1_8 H 0.0316 0.2099 0.1220
C5_8 C 0.0361(4) 0.0695(3) 0.1313(4)
C6_8 C 0.1075(4) 0.0203(3) 0.1333(4)
C11_8 C 0.3748(4) 0.0106(3) 0.1240(4)
C14_5 C 0.5593(5) 0.0470(4) 0.1012(6)
H9_5 H 0.6216 0.0609 0.0924
C15_8 C 0.4776(5) 0.0821(4) 0.0814(6)
H10_8 H 0.4861 0.1198 0.0575
C7_8 C 0.0788(5) 0.9610(3) 0.1391(4)
H5_8 H 0.0124 0.9517 0.1402
C8_8 C 0.1486(5) 0.9157(3) 0.1435(4)
C9_8 C 0.2474(5) 0.9317(3) 0.1391(4)
H6_8 H 0.2961 0.9024 0.1404
C10_8 C 0.2715(4) 0.9918(3) 0.1328(4)
C12_8 C 0.4535(5) 0.9721(3) 0.1430(5)
H7_8 H 0.4428 0.9333 0.1616
C13_5 C 0.5479(5) 0.9908(4) 0.1345(6)
H8_5 H 0.6021 0.9661 0.1506
C16_8 C 0.1191(5) 0.8519(3) 0.1497(4)
C17_8 C 0.0308(4) 0.8324(3) 0.1027(4)
C18_11 C 0.0000(4) 0.7738(3) 0.1077(4)
C19_8 C 0.0584(5) 0.7331(3) 0.1602(4)
H12_8 H 0.0377 0.6936 0.1641
C20_8 C 0.1470(4) 0.7514(3) 0.2064(4)
C21_8 C 0.1767(5) 0.8107(3) 0.2018(4)
H13_8 H 0.2356 0.8231 0.2337
C23_8 C 0.2077(5) 0.7076(3) 0.2665(4)
O1_8 O 0.8541(3) 0.7936(2) 0.0114(3)
O5_8 O 0.7111(4) 0.8799(3) 0.0699(4)
O6_8 O 0.8398(3) 0.9262(2) 0.0396(3)
O7_8 O 0.7906(5) 0.9385(3) 0.1656(4)
N4_8 N 0.7818(4) 0.9159(3) 0.0929(4)
H11_8 H 0.9921 0.8593 0.0675
C18_12 C 1.0000(4) 0.7738(3) 0.1077(4)
C22_8 C 0.9026(4) 0.7555(3) 0.0564(4)
C13_6 C 0.9521(5) 0.5092(4) 0.8655(6)
H8_6 H 0.8979 0.5339 0.8494
C14_6 C 0.9407(5) 0.4530(4) 0.8988(6)
H9_6 H 0.8784 0.4391 0.9076
C2_5 C 0.9116(6) 0.8356(4) 0.6386(6)
H2_5 H 0.8714 0.8023 0.6431
C3_5 C 0.8748(6) 0.8918(4) 0.6431(7)
H3_5 H 0.8082 0.8976 0.6484
C4_5 C 0.9368(5) 0.9400(3) 0.6398(5)
H4_5 H 0.9126 0.9788 0.6432
C2_6 C 0.0884(6) 0.8356(4) 0.8614(6)
H2_6 H 0.1286 0.8023 0.8569
C3_6 C 0.1252(6) 0.8918(4) 0.8569(7)
H3_6 H 0.1918 0.8976 0.8516
C4_6 C 0.0632(5) 0.9400(3) 0.8602(5)
H4_6 H 0.0874 0.9788 0.8568
C13_7 C 0.9521(5) 0.4908(4) 0.3655(6)
H8_7 H 0.8979 0.4661 0.3494
C14_7 C 0.9407(5) 0.5470(4) 0.3988(6)
H9_7 H 0.8784 0.5609 0.4076
C13_8 C 0.0479(5) 0.4908(4) 0.1345(6)
H8_8 H 0.1021 0.4661 0.1506
C14_8 C 0.0593(5) 0.5470(4) 0.1012(6)
H9_8 H 0.1216 0.5609 0.0924
C2_7 C 0.0884(6) 0.1644(4) 0.3614(6)
H2_7 H 0.1286 0.1977 0.3569
C3_7 C 0.1252(6) 0.1082(4) 0.3569(7)
H3_7 H 0.1918 0.1024 0.3516
C4_7 C 0.0632(5) 0.0600(3) 0.3602(5)
H4_7 H 0.0874 0.0212 0.3568
C2_8 C 0.9116(6) 0.1644(4) 0.1386(6)
H2_8 H 0.8714 0.1977 0.1431
C3_8 C 0.8748(6) 0.1082(4) 0.1431(7)
H3_8 H 0.8082 0.1024 0.1484
C4_8 C 0.9368(5) 0.0600(3) 0.1398(5)
H4_8 H 0.9126 0.0212 0.1432
loop_
_geom_bond_atom_site_label_1
_geom_bond_atom_site_label_2
_geom_bond_site_symmetry_1
_geom_bond_site_symmetry_2
H8 C13 1_555 1_555
C14 C13 1_555 1_555
H9 C14 1_555 1_555
Gd1 O1 1_555 1_555
O1 C22 1_555 1_555
O2 C22 1_555 1_555
O3 C23 1_555 1_555
O4 C23 1_555 1_555
O5 Gd1 1_555 1_555
O6 Gd1 1_555 1_555
O7 N4 1_555 1_555
N1 C1 1_555 1_555
N2 C6 1_555 1_555
N3 C11 1_555 1_555
N4 O5 1_555 1_555
C1 H1 1_555 1_555
C2 C1 1_555 1_555
H2 C2 1_555 1_555
C3 C2 1_555 1_555
H3 C3 1_555 1_555
C4 C3 1_555 1_555
H4 C4 1_555 1_555
C5 N1 1_555 1_555
C6 C5 1_555 1_555
C7 C6 1_555 1_555
H5 C7 1_555 1_555
C8 C7 1_555 1_555
C9 C8 1_555 1_555
H6 C9 1_555 1_555
C10 N2 1_555 1_555
C11 C10 1_555 1_555
C12 C11 1_555 1_555
H7 C12 1_555 1_555
C15 N3 1_555 1_555
H10 C15 1_555 1_555
C16 C8 1_555 1_555
C17 C16 1_555 1_555
H11 C17 1_555 1_555
C18 C17 1_555 1_555
C19 C18 1_555 1_555
H12 C19 1_555 1_555
C20 C19 1_555 1_555
C21 C16 1_555 1_555
H13 C21 1_555 1_555
C22 C18 1_555 1_555
C23 C20 1_555 1_555
Gd2 N1 1_555 1_555
Gd3 O2 1_555 1_555
Gd4 O3 1_555 1_555
O8 Gd1 1_555 1_555
O9 Gd1 1_555 1_555
O10 Gd1 1_555 1_555
N5 Gd1 1_555 1_555
N6 Gd1 1_555 1_555
N7 Gd1 1_555 1_555
O4 Gd4 1_555 1_555
O6 N4 1_555 1_555
N2 Gd2 1_555 1_555
N3 Gd2 1_555 1_555
C4 C5 1_555 1_555
C9 C10 1_555 1_555
C20 C21 1_555 1_555
O8_2 Gd1_2 1_555 1_555
O9_2 Gd1_2 1_555 1_555
O10_2 Gd1_2 1_555 1_555
N5_2 Gd1_2 1_555 1_555
N6_2 Gd1_2 1_555 1_555
N7_2 Gd1_2 1_555 1_555
O1_2 C22_2 1_555 1_555
O2_2 C22_2 1_555 1_555
O3_2 C23_2 1_555 1_555
O4_2 C23_2 1_555 1_555
O7_2 N4_2 1_555 1_555
N1_2 C1_2 1_555 1_555
N2_2 C6_2 1_555 1_555
N3_2 C11_2 1_555 1_555
N4_2 O5_2 1_555 1_555
C1_2 H1_2 1_555 1_555
C2_2 C1_2 1_555 1_555
H2_2 C2_2 1_555 1_555
C3_2 C2_2 1_555 1_555
H3_2 C3_2 1_555 1_555
C4_2 C3_2 1_555 1_555
H4_2 C4_2 1_555 1_555
C5_2 N1_2 1_555 1_555
C6_2 C5_2 1_555 1_555
C7_2 C6_2 1_555 1_555
H5_2 C7_2 1_555 1_555
C8_2 C7_2 1_555 1_555
C9_2 C8_2 1_555 1_555
H6_2 C9_2 1_555 1_555
C10_2 N2_2 1_555 1_555
C11_2 C10_2 1_555 1_555
C12_2 C11_2 1_555 1_555
H7_2 C12_2 1_555 1_555
C15_2 N3_2 1_555 1_555
H10_2 C15_2 1_555 1_555
C16_2 C8_2 1_555 1_555
C17_2 C16_2 1_555 1_555
H11_2 C17_2 1_555 1_555
C18_2 C17_2 1_555 1_555
C19_2 C18_2 1_555 1_555
H12_2 C19_2 1_555 1_555
C20_2 C19_2 1_555 1_555
C21_2 C16_2 1_555 1_555
H13_2 C21_2 1_555 1_555
C22_2 C18_2 1_555 1_555
C23_2 C20_2 1_555 1_555
Gd2_2 N1_2 1_555 1_555
Gd4 O2_2 1_555 1_555
Gd3 O3_2 1_555 1_555
O4_2 Gd3 1_555 1_555
O6_2 N4_2 1_555 1_555
N2_2 Gd2_2 1_555 1_555
N3_2 Gd2_2 1_555 1_555
C4_2 C5_2 1_555 1_555
C9_2 C10_2 1_555 1_555
C20_2 C21_2 1_555 1_555
O3_3 C23_3 1_555 1_555
O4_3 C23_3 1_555 1_555
H5_3 C7_3 1_555 1_555
C8_3 C7_3 1_555 1_555
C9_3 C8_3 1_555 1_555
H6_3 C9_3 1_555 1_555
H7_3 C12_3 1_555 1_555
C13_2 C12_3 1_555 1_555
H8_2 C13_2 1_555 1_555
C16_3 C8_3 1_555 1_555
C17_3 C16_3 1_555 1_555
C18_3 C17_3 1_555 1_555
C19_3 C18_3 1_555 1_555
H12_3 C19_3 1_555 1_555
C20_3 C19_3 1_555 1_555
C21_3 C16_3 1_555 1_555
H13_3 C21_3 1_555 1_555
C23_3 C20_3 1_555 1_555
Gd2_2 O3_3 1_555 1_555
O4_3 Gd2_2 1_555 1_555
C9_3 C10_3 1_555 1_555
C20_3 C21_3 1_555 1_555
N1_3 C1_3 1_555 1_555
N2_3 C6_3 1_555 1_555
N3_3 C11_3 1_555 1_555
C1_3 H1_3 1_555 1_555
C5_3 N1_3 1_555 1_555
C6_3 C5_3 1_555 1_555
H9_2 C14_2 1_555 1_555
C15_3 N3_3 1_555 1_555
H10_3 C15_3 1_555 1_555
Gd3 N1_3 1_555 1_555
N2_3 Gd3 1_555 1_555
N3_3 Gd3 1_555 1_555
C14_2 C15_3 1_555 1_555
Gd1_3 O1_3 1_555 1_555
O1_3 C22_3 1_555 1_555
O2_3 C22_3 1_555 1_555
O5_3 Gd1_3 1_555 1_555
O6_3 Gd1_3 1_555 1_555
O7_3 N4_3 1_555 1_555
N4_3 O5_3 1_555 1_555
C22_3 C18_4 1_555 1_555
Gd2 O2_3 1_555 1_555
O8_3 Gd1_3 1_555 1_555
O9_3 Gd1_3 1_555 1_555
O10_3 Gd1_3 1_555 1_555
N5_3 Gd1_3 1_555 1_555
N6_3 Gd1_3 1_555 1_555
N7_3 Gd1_3 1_555 1_555
O6_3 N4_3 1_555 1_555
O8_4 Gd1_4 1_555 1_555
O9_4 Gd1_4 1_555 1_555
O10_4 Gd1_4 1_555 1_555
N5_4 Gd1_4 1_555 1_555
N6_4 Gd1_4 1_555 1_555
N7_4 Gd1_4 1_555 1_555
O1_4 C22_4 1_555 1_555
O2_4 C22_4 1_555 1_555
O7_4 N4_4 1_555 1_555
N4_4 O5_4 1_555 1_555
C22_4 C18_5 1_555 1_555
Gd2_2 O2_4 1_555 1_555
O6_4 N4_4 1_555 1_555
O3_4 C23_4 1_555 1_555
O4_4 C23_4 1_555 1_555
H5_4 C7_4 1_555 1_555
C8_4 C7_4 1_555 1_555
C9_4 C8_4 1_555 1_555
H6_4 C9_4 1_555 1_555
H7_4 C12_4 1_555 1_555
C13_3 C12_4 1_555 1_555
H8_3 C13_3 1_555 1_555
C16_4 C8_4 1_555 1_555
C17_4 C16_4 1_555 1_555
C18_6 C17_4 1_555 1_555
C19_4 C18_6 1_555 1_555
H12_4 C19_4 1_555 1_555
C20_4 C19_4 1_555 1_555
C21_4 C16_4 1_555 1_555
H13_4 C21_4 1_555 1_555
C23_4 C20_4 1_555 1_555
Gd2 O3_4 1_555 1_555
O4_4 Gd2 1_555 1_555
C9_4 C10_4 1_555 1_555
C20_4 C21_4 1_555 1_555
N1_4 C1_4 1_555 1_555
N2_4 C6_4 1_555 1_555
N3_4 C11_4 1_555 1_555
C1_4 H1_4 1_555 1_555
C5_4 N1_4 1_555 1_555
C6_4 C5_4 1_555 1_555
H9_3 C14_3 1_555 1_555
C15_4 N3_4 1_555 1_555
H10_4 C15_4 1_555 1_555
Gd4 N1_4 1_555 1_555
N2_4 Gd4 1_555 1_555
N3_4 Gd4 1_555 1_555
C14_3 C15_4 1_555 1_555
Gd2 O1_5 1_555 1_555
O1_5 C22_5 1_555 1_555
O8_3 C22_5 1_555 1_555
O9_4 C23_5 1_555 1_555
O10_4 C23_5 1_555 1_555
O5_5 Gd2 1_555 1_555
O6_5 Gd2 1_555 1_555
O7_5 N4_5 1_555 1_555
N5 C1_5 1_555 1_555
N6 C6_5 1_555 1_555
N7 C11_5 1_555 1_555
N4_5 O5_5 1_555 1_555
C1_5 H1_5 1_555 1_555
C2_3 C1_5 1_555 1_555
H2_3 C2_3 1_555 1_555
C3_3 C2_3 1_555 1_555
H3_3 C3_3 1_555 1_555
C4_3 C3_3 1_555 1_555
H4_3 C4_3 1_555 1_555
C5_5 N5 1_555 1_555
C6_5 C5_5 1_555 1_555
C7_5 C6_5 1_555 1_555
H5_5 C7_5 1_555 1_555
C8_5 C7_5 1_555 1_555
C9_5 C8_5 1_555 1_555
H6_5 C9_5 1_555 1_555
C10_5 N6 1_555 1_555
C11_5 C10_5 1_555 1_555
C12_5 C11_5 1_555 1_555
H7_5 C12_5 1_555 1_555
C15_5 N7 1_555 1_555
H10_5 C15_5 1_555 1_555
C16_5 C8_5 1_555 1_555
C17_5 C16_5 1_555 1_555
H11_5 C17_5 1_555 1_555
C18_7 C17_5 1_555 1_555
C19_5 C18_7 1_555 1_555
H12_5 C19_5 1_555 1_555
C20_5 C19_5 1_555 1_555
C21_5 C16_5 1_555 1_555
H13_5 C21_5 1_555 1_555
C22_5 C18_7 1_555 1_555
C23_5 C20_5 1_555 1_555
O6_5 N4_5 1_555 1_555
C4_3 C5_5 1_555 1_555
C9_5 C10_5 1_555 1_555
C20_5 C21_5 1_555 1_555
O1_6 C22_6 1_555 1_555
O8_4 C22_6 1_555 1_555
O9_3 C23_6 1_555 1_555
O10_3 C23_6 1_555 1_555
O7_6 N4_6 1_555 1_555
N5_2 C1_6 1_555 1_555
N6_2 C6_6 1_555 1_555
N7_2 C11_6 1_555 1_555
N4_6 O5_6 1_555 1_555
C1_6 H1_6 1_555 1_555
C2_4 C1_6 1_555 1_555
H2_4 C2_4 1_555 1_555
C3_4 C2_4 1_555 1_555
H3_4 C3_4 1_555 1_555
C4_4 C3_4 1_555 1_555
H4_4 C4_4 1_555 1_555
C5_6 N5_2 1_555 1_555
C6_6 C5_6 1_555 1_555
C7_6 C6_6 1_555 1_555
H5_6 C7_6 1_555 1_555
C8_6 C7_6 1_555 1_555
C9_6 C8_6 1_555 1_555
H6_6 C9_6 1_555 1_555
C10_6 N6_2 1_555 1_555
C11_6 C10_6 1_555 1_555
C12_6 C11_6 1_555 1_555
H7_6 C12_6 1_555 1_555
C15_6 N7_2 1_555 1_555
H10_6 C15_6 1_555 1_555
C16_6 C8_6 1_555 1_555
C17_6 C16_6 1_555 1_555
H11_6 C17_6 1_555 1_555
C18_8 C17_6 1_555 1_555
C19_6 C18_8 1_555 1_555
H12_6 C19_6 1_555 1_555
C20_6 C19_6 1_555 1_555
C21_6 C16_6 1_555 1_555
H13_6 C21_6 1_555 1_555
C22_6 C18_8 1_555 1_555
C23_6 C20_6 1_555 1_555
O6_6 N4_6 1_555 1_555
C4_4 C5_6 1_555 1_555
C9_6 C10_6 1_555 1_555
C20_6 C21_6 1_555 1_555
Gd3 O1_7 1_555 1_555
O1_7 C22_7 1_555 1_555
O8 C22_7 1_555 1_555
O5_7 Gd3 1_555 1_555
O6_7 Gd3 1_555 1_555
O7_7 N4_7 1_555 1_555
N4_7 O5_7 1_555 1_555
C22_7 C18_9 1_555 1_555
O6_7 N4_7 1_555 1_555
N5_3 C1_7 1_555 1_555
N6_3 C6_7 1_555 1_555
N7_3 C11_7 1_555 1_555
C1_7 H1_7 1_555 1_555
C5_7 N5_3 1_555 1_555
C6_7 C5_7 1_555 1_555
H9_4 C14_4 1_555 1_555
C15_7 N7_3 1_555 1_555
H10_7 C15_7 1_555 1_555
C14_4 C15_7 1_555 1_555
O9_2 C23_7 1_555 1_555
O10_2 C23_7 1_555 1_555
H5_7 C7_7 1_555 1_555
C8_7 C7_7 1_555 1_555
C9_7 C8_7 1_555 1_555
H6_7 C9_7 1_555 1_555
H7_7 C12_7 1_555 1_555
C13_4 C12_7 1_555 1_555
H8_4 C13_4 1_555 1_555
C16_7 C8_7 1_555 1_555
C17_7 C16_7 1_555 1_555
C18_10 C17_7 1_555 1_555
C19_7 C18_10 1_555 1_555
H12_7 C19_7 1_555 1_555
C20_7 C19_7 1_555 1_555
C21_7 C16_7 1_555 1_555
H13_7 C21_7 1_555 1_555
C23_7 C20_7 1_555 1_555
C9_7 C10_7 1_555 1_555
C20_7 C21_7 1_555 1_555
N5_4 C1_8 1_555 1_555
N6_4 C6_8 1_555 1_555
N7_4 C11_8 1_555 1_555
C1_8 H1_8 1_555 1_555
C5_8 N5_4 1_555 1_555
C6_8 C5_8 1_555 1_555
H9_5 C14_5 1_555 1_555
C15_8 N7_4 1_555 1_555
H10_8 C15_8 1_555 1_555
C14_5 C15_8 1_555 1_555
O9 C23_8 1_555 1_555
O10 C23_8 1_555 1_555
H5_8 C7_8 1_555 1_555
C8_8 C7_8 1_555 1_555
C9_8 C8_8 1_555 1_555
H6_8 C9_8 1_555 1_555
H7_8 C12_8 1_555 1_555
C13_5 C12_8 1_555 1_555
H8_5 C13_5 1_555 1_555
C16_8 C8_8 1_555 1_555
C17_8 C16_8 1_555 1_555
C18_11 C17_8 1_555 1_555
C19_8 C18_11 1_555 1_555
H12_8 C19_8 1_555 1_555
C20_8 C19_8 1_555 1_555
C21_8 C16_8 1_555 1_555
H13_8 C21_8 1_555 1_555
C23_8 C20_8 1_555 1_555
C9_8 C10_8 1_555 1_555
C20_8 C21_8 1_555 1_555
O1_8 C22_8 1_555 1_555
O8_2 C22_8 1_555 1_555
O7_8 N4_8 1_555 1_555
N4_8 O5_8 1_555 1_555
C22_8 C18_12 1_555 1_555
O6_8 N4_8 1_555 1_555
H8_6 C13_6 1_555 1_555
C14_6 C13_6 1_555 1_555
H9_6 C14_6 1_555 1_555
H2_5 C2_5 1_555 1_555
C3_5 C2_5 1_555 1_555
H3_5 C3_5 1_555 1_555
C4_5 C3_5 1_555 1_555
H4_5 C4_5 1_555 1_555
H2_6 C2_6 1_555 1_555
C3_6 C2_6 1_555 1_555
H3_6 C3_6 1_555 1_555
C4_6 C3_6 1_555 1_555
H4_6 C4_6 1_555 1_555
H8_7 C13_7 1_555 1_555
C14_7 C13_7 1_555 1_555
H9_7 C14_7 1_555 1_555
H8_8 C13_8 1_555 1_555
C14_8 C13_8 1_555 1_555
H9_8 C14_8 1_555 1_555
H2_7 C2_7 1_555 1_555
C3_7 C2_7 1_555 1_555
H3_7 C3_7 1_555 1_555
C4_7 C3_7 1_555 1_555
H4_7 C4_7 1_555 1_555
H2_8 C2_8 1_555 1_555
C3_8 C2_8 1_555 1_555
H3_8 C3_8 1_555 1_555
C4_8 C3_8 1_555 1_555
H4_8 C4_8 1_555 1_555

#END
