
###############################################################################
#
# This file contains modified crystal structure data generated from the
# MOF subset of the Cambridge Structural Database (CSD) v543 
# hosted by the Cambridge Crystallographic Data Centre (CCDC).
#
# This work is licensed under the Creative Commons
# Attribution-NonCommercial-ShareAlike 4.0 International License.
# To view a copy of this license, visit
# http://creativecommons.org/licenses/by-nc-sa/4.0/
# or send a letter to
# Creative Commons, PO Box 1866, Mountain View, CA 94042, USA.
#
# CIF created using the CSD Python API on 29 September 2022
# The structure has been converted into the P1 space group
# The structure has a 3D framework
# The original CSD entry LEYCAW is in the monoclinic crystal system
# The framework has been calculated to contain at least 10.0% void space
# The void calculation uses a probe of radius 1.32A, grid spacing 0.4
#
###############################################################################

data_LEYCAW
_chemical_formula_moiety         '(C184 H104 N32 O56 Tb4)n'
_symmetry_cell_setting           triclinic
_symmetry_space_group_name_H-M   'P 1'
_symmetry_Int_Tables_number      1
_space_group_name_Hall           'P 1'
loop_
_symmetry_equiv_pos_site_id
_symmetry_equiv_pos_as_xyz
1 x,y,z
_cell_length_a                   13.5529(10)
_cell_length_b                   22.3125(12)
_cell_length_c                   15.5965(11)
_cell_angle_alpha                90
_cell_angle_beta                 97.507(7)
_cell_angle_gamma                90
_cell_volume                     4675.94
loop_
_atom_site_label
_atom_site_type_symbol
_atom_site_fract_x
_atom_site_fract_y
_atom_site_fract_z
C13 C 0.0496(6) 0.5091(4) 0.6330(6)
H8 H 0.1042 0.5340 0.6483
C14 C 0.0608(6) 0.4523(4) 0.5991(6)
H9 H 0.1232 0.4385 0.5897
Tb1 Tb 0.25748(2) 0.64222(2) 0.41990(2)
O1 O 0.3536(4) 0.7060(2) 0.5102(3)
O2 O 0.3753(3) 0.79754(18) 0.5639(3)
O3 O 0.6801(4) 0.84652(19) 0.7700(3)
O4 O 0.7763(4) 0.7734(2) 0.8212(3)
O5 O 0.2124(4) 0.6205(3) 0.5689(4)
O6 O 0.3405(4) 0.5735(2) 0.5377(3)
O7 O 0.2949(5) 0.5623(3) 0.6637(4)
N1 N 0.5712(4) 0.3743(2) 0.6238(4)
N2 N 0.7048(4) 0.4638(2) 0.6308(3)
N3 N 0.8870(4) 0.4337(2) 0.5939(4)
N4 N 0.2830(5) 0.5845(3) 0.5920(4)
C1 C 0.5081(6) 0.3278(3) 0.6277(5)
H1 H 0.5321 0.2893 0.6212
C2 C 0.4129(7) 0.3342(4) 0.6402(6)
H2 H 0.3731 0.3008 0.6456
C3 C 0.3749(7) 0.3912(4) 0.6451(7)
H3 H 0.3081 0.3969 0.6509
C4 C 0.4366(6) 0.4389(4) 0.6414(6)
H4 H 0.4122 0.4777 0.6451
C5 C 0.5356(5) 0.4297(3) 0.6321(4)
C6 C 0.6084(5) 0.4790(3) 0.6345(4)
C7 C 0.5791(5) 0.5387(3) 0.6404(4)
H5 H 0.5124 0.5482 0.6412
C8 C 0.6498(5) 0.5837(3) 0.6451(4)
C9 C 0.7484(5) 0.5680(3) 0.6412(4)
H6 H 0.7975 0.5972 0.6431
C10 C 0.7724(5) 0.5077(3) 0.6345(4)
C11 C 0.8758(5) 0.4892(3) 0.6248(4)
C12 C 0.9557(6) 0.5271(3) 0.6429(6)
H7 H 0.9455 0.5657 0.6623
C15 C 0.9789(6) 0.4173(3) 0.5801(6)
H10 H 0.9869 0.3797 0.5562
C16 C 0.6188(5) 0.6480(2) 0.6506(4)
C17 C 0.5309(5) 0.6667(3) 0.6039(4)
H11 H 0.4921 0.6394 0.5693
C18 C 0.4995(5) 0.7259(3) 0.6079(4)
C19 C 0.5581(5) 0.7665(3) 0.6608(4)
H12 H 0.5370 0.8060 0.6644
C20 C 0.6465(5) 0.7487(3) 0.7075(4)
C21 C 0.6778(5) 0.6889(3) 0.7036(4)
H13 H 0.7369 0.6765 0.7358
C22 C 0.4022(5) 0.7441(3) 0.5563(4)
C23 C 0.7069(5) 0.7923(3) 0.7684(4)
Tb2 Tb 0.74252(2) 0.35778(2) 0.58010(2)
Tb3 Tb 0.24252(2) 0.85778(2) 0.58010(2)
Tb4 Tb 0.75748(2) 0.85778(2) 0.91990(2)
O8 O 0.1247(3) 0.70246(18) 0.4361(3)
O9 O 0.1801(4) 0.65348(19) 0.2700(3)
O10 O 0.2763(4) 0.7266(2) 0.3212(3)
N5 N 0.4288(4) 0.6257(2) 0.3762(4)
N6 N 0.2952(4) 0.5362(2) 0.3692(3)
N7 N 0.1130(4) 0.5663(2) 0.4061(4)
Tb1_2 Tb 0.74252(2) 0.64222(2) 0.08010(2)
O8_2 O 0.8753(3) 0.70246(18) 0.0639(3)
O9_2 O 0.8199(4) 0.65348(19) 0.2300(3)
O10_2 O 0.7237(4) 0.7266(2) 0.1788(3)
N5_2 N 0.5712(4) 0.6257(2) 0.1238(4)
N6_2 N 0.7048(4) 0.5362(2) 0.1308(3)
N7_2 N 0.8870(4) 0.5663(2) 0.0939(4)
O1_2 O 0.6464(4) 0.7060(2) 0.9898(3)
O2_2 O 0.6247(3) 0.79754(18) 0.9361(3)
O3_2 O 0.3199(4) 0.84652(19) 0.7300(3)
O4_2 O 0.2237(4) 0.7734(2) 0.6788(3)
O5_2 O 0.7876(4) 0.6205(3) 0.9311(4)
O6_2 O 0.6595(4) 0.5735(2) 0.9623(3)
O7_2 O 0.7051(5) 0.5623(3) 0.8363(4)
N1_2 N 0.4288(4) 0.3743(2) 0.8762(4)
N2_2 N 0.2952(4) 0.4638(2) 0.8692(3)
N3_2 N 0.1130(4) 0.4337(2) 0.9061(4)
N4_2 N 0.7170(5) 0.5845(3) 0.9080(4)
C1_2 C 0.4919(6) 0.3278(3) 0.8723(5)
H1_2 H 0.4679 0.2893 0.8788
C2_2 C 0.5871(7) 0.3342(4) 0.8598(6)
H2_2 H 0.6269 0.3008 0.8544
C3_2 C 0.6251(7) 0.3912(4) 0.8549(7)
H3_2 H 0.6919 0.3969 0.8491
C4_2 C 0.5634(6) 0.4389(4) 0.8586(6)
H4_2 H 0.5878 0.4777 0.8549
C5_2 C 0.4644(5) 0.4297(3) 0.8679(4)
C6_2 C 0.3916(5) 0.4790(3) 0.8655(4)
C7_2 C 0.4209(5) 0.5387(3) 0.8596(4)
H5_2 H 0.4876 0.5482 0.8588
C8_2 C 0.3502(5) 0.5837(3) 0.8549(4)
C9_2 C 0.2516(5) 0.5680(3) 0.8588(4)
H6_2 H 0.2025 0.5972 0.8569
C10_2 C 0.2276(5) 0.5077(3) 0.8655(4)
C11_2 C 0.1242(5) 0.4892(3) 0.8752(4)
C12_2 C 0.0443(6) 0.5271(3) 0.8571(6)
H7_2 H 0.0545 0.5657 0.8377
C15_2 C 0.0211(6) 0.4173(3) 0.9199(6)
H10_2 H 0.0131 0.3797 0.9438
C16_2 C 0.3812(5) 0.6480(2) 0.8494(4)
C17_2 C 0.4691(5) 0.6667(3) 0.8961(4)
H11_2 H 0.5079 0.6394 0.9307
C18_2 C 0.5005(5) 0.7259(3) 0.8921(4)
C19_2 C 0.4419(5) 0.7665(3) 0.8392(4)
H12_2 H 0.4630 0.8060 0.8356
C20_2 C 0.3535(5) 0.7487(3) 0.7925(4)
C21_2 C 0.3222(5) 0.6889(3) 0.7964(4)
H13_2 H 0.2631 0.6765 0.7642
C22_2 C 0.5978(5) 0.7441(3) 0.9437(4)
C23_2 C 0.2931(5) 0.7923(3) 0.7316(4)
Tb2_2 Tb 0.25748(2) 0.35778(2) 0.91990(2)
O3_3 O 0.1801(4) 0.34652(19) 0.7700(3)
O4_3 O 0.2763(4) 0.2734(2) 0.8212(3)
C7_3 C 0.0791(5) 0.0387(3) 0.6404(4)
H5_3 H 0.0124 0.0482 0.6412
C8_3 C 0.1498(5) 0.0837(3) 0.6451(4)
C9_3 C 0.2484(5) 0.0680(3) 0.6412(4)
H6_3 H 0.2975 0.0972 0.6431
C10_3 C 0.2724(5) 0.0077(3) 0.6345(4)
C12_3 C 0.4557(6) 0.0271(3) 0.6429(6)
H7_3 H 0.4455 0.0657 0.6623
C13_2 C 0.5496(6) 0.0091(4) 0.6330(6)
H8_2 H 0.6042 0.0340 0.6483
C16_3 C 0.1188(5) 0.1480(2) 0.6506(4)
C17_3 C 0.0309(5) 0.1667(3) 0.6039(4)
C19_3 C 0.0581(5) 0.2665(3) 0.6608(4)
H12_3 H 0.0370 0.3060 0.6644
C20_3 C 0.1465(5) 0.2487(3) 0.7075(4)
C21_3 C 0.1778(5) 0.1889(3) 0.7036(4)
H13_3 H 0.2369 0.1765 0.7358
C23_3 C 0.2069(5) 0.2923(3) 0.7684(4)
N1_3 N 0.0712(4) 0.8743(2) 0.6238(4)
N2_3 N 0.2048(4) 0.9638(2) 0.6308(3)
N3_3 N 0.3870(4) 0.9337(2) 0.5939(4)
C1_3 C 0.0081(6) 0.8278(3) 0.6277(5)
H1_3 H 0.0321 0.7893 0.6212
C5_3 C 0.0356(5) 0.9297(3) 0.6321(4)
C6_3 C 0.1084(5) 0.9790(3) 0.6345(4)
C11_3 C 0.3758(5) 0.9892(3) 0.6248(4)
C14_2 C 0.5608(6) 0.9523(4) 0.5991(6)
H9_2 H 0.6232 0.9385 0.5897
C15_3 C 0.4789(6) 0.9173(3) 0.5801(6)
H10_3 H 0.4869 0.8797 0.5562
Tb1_3 Tb 0.75748(2) 0.14222(2) 0.41990(2)
O1_3 O 0.8536(4) 0.2060(2) 0.5102(3)
O2_3 O 0.8753(3) 0.29754(18) 0.5639(3)
O5_3 O 0.7124(4) 0.1205(3) 0.5689(4)
O6_3 O 0.8405(4) 0.0735(2) 0.5377(3)
O7_3 O 0.7949(5) 0.0623(3) 0.6637(4)
N4_3 N 0.7830(5) 0.0845(3) 0.5920(4)
H11_3 H 0.9921 0.1394 0.5693
C18_3 C 0.9995(5) 0.2259(3) 0.6079(4)
C22_3 C 0.9022(5) 0.2441(3) 0.5563(4)
O8_3 O 0.6247(3) 0.20246(18) 0.4361(3)
O9_3 O 0.6801(4) 0.15348(19) 0.2700(3)
O10_3 O 0.7763(4) 0.2266(2) 0.3212(3)
N5_3 N 0.9288(4) 0.1257(2) 0.3762(4)
N6_3 N 0.7952(4) 0.0362(2) 0.3692(3)
N7_3 N 0.6130(4) 0.0663(2) 0.4061(4)
Tb1_4 Tb 0.24252(2) 0.14222(2) 0.08010(2)
O8_4 O 0.3753(3) 0.20246(18) 0.0639(3)
O9_4 O 0.3199(4) 0.15348(19) 0.2300(3)
O10_4 O 0.2237(4) 0.2266(2) 0.1788(3)
N5_4 N 0.0712(4) 0.1257(2) 0.1238(4)
N6_4 N 0.2048(4) 0.0362(2) 0.1308(3)
N7_4 N 0.3870(4) 0.0663(2) 0.0939(4)
O1_4 O 0.1464(4) 0.2060(2) 0.9898(3)
O2_4 O 0.1247(3) 0.29754(18) 0.9361(3)
O5_4 O 0.2876(4) 0.1205(3) 0.9311(4)
O6_4 O 0.1595(4) 0.0735(2) 0.9623(3)
O7_4 O 0.2051(5) 0.0623(3) 0.8363(4)
N4_4 N 0.2170(5) 0.0845(3) 0.9080(4)
H11_4 H 0.0079 0.1394 0.9307
C18_4 C 0.0005(5) 0.2259(3) 0.8921(4)
C22_4 C 0.0978(5) 0.2441(3) 0.9437(4)
O3_4 O 0.8199(4) 0.34652(19) 0.7300(3)
O4_4 O 0.7237(4) 0.2734(2) 0.6788(3)
C7_4 C 0.9209(5) 0.0387(3) 0.8596(4)
H5_4 H 0.9876 0.0482 0.8588
C8_4 C 0.8502(5) 0.0837(3) 0.8549(4)
C9_4 C 0.7516(5) 0.0680(3) 0.8588(4)
H6_4 H 0.7025 0.0972 0.8569
C10_4 C 0.7276(5) 0.0077(3) 0.8655(4)
C12_4 C 0.5443(6) 0.0271(3) 0.8571(6)
H7_4 H 0.5545 0.0657 0.8377
C13_3 C 0.4504(6) 0.0091(4) 0.8670(6)
H8_3 H 0.3958 0.0340 0.8517
C16_4 C 0.8812(5) 0.1480(2) 0.8494(4)
C17_4 C 0.9691(5) 0.1667(3) 0.8961(4)
C19_4 C 0.9419(5) 0.2665(3) 0.8392(4)
H12_4 H 0.9630 0.3060 0.8356
C20_4 C 0.8535(5) 0.2487(3) 0.7925(4)
C21_4 C 0.8222(5) 0.1889(3) 0.7964(4)
H13_4 H 0.7631 0.1765 0.7642
C23_4 C 0.7931(5) 0.2923(3) 0.7316(4)
N1_4 N 0.9288(4) 0.8743(2) 0.8762(4)
N2_4 N 0.7952(4) 0.9638(2) 0.8692(3)
N3_4 N 0.6130(4) 0.9337(2) 0.9061(4)
C1_4 C 0.9919(6) 0.8278(3) 0.8723(5)
H1_4 H 0.9679 0.7893 0.8788
C5_4 C 0.9644(5) 0.9297(3) 0.8679(4)
C6_4 C 0.8916(5) 0.9790(3) 0.8655(4)
C11_4 C 0.6242(5) 0.9892(3) 0.8752(4)
C14_3 C 0.4392(6) 0.9523(4) 0.9009(6)
H9_3 H 0.3768 0.9385 0.9103
C15_4 C 0.5211(6) 0.9173(3) 0.9199(6)
H10_4 H 0.5131 0.8797 0.9438
O1_5 O 0.6464(4) 0.2940(2) 0.4898(3)
O5_5 O 0.7876(4) 0.3795(3) 0.4311(4)
O6_5 O 0.6595(4) 0.4265(2) 0.4623(3)
O7_5 O 0.7051(5) 0.4377(3) 0.3363(4)
N4_5 N 0.7170(5) 0.4155(3) 0.4080(4)
C1_5 C 0.4919(6) 0.6722(3) 0.3723(5)
H1_5 H 0.4679 0.7107 0.3788
C2_3 C 0.5871(7) 0.6658(4) 0.3598(6)
H2_3 H 0.6269 0.6992 0.3544
C3_3 C 0.6251(7) 0.6088(4) 0.3549(7)
H3_3 H 0.6919 0.6031 0.3491
C4_3 C 0.5634(6) 0.5611(4) 0.3586(6)
H4_3 H 0.5878 0.5223 0.3549
C5_5 C 0.4644(5) 0.5703(3) 0.3679(4)
C6_5 C 0.3916(5) 0.5210(3) 0.3655(4)
C7_5 C 0.4209(5) 0.4613(3) 0.3596(4)
H5_5 H 0.4876 0.4518 0.3588
C8_5 C 0.3502(5) 0.4163(3) 0.3549(4)
C9_5 C 0.2516(5) 0.4320(3) 0.3588(4)
H6_5 H 0.2025 0.4028 0.3569
C10_5 C 0.2276(5) 0.4923(3) 0.3655(4)
C11_5 C 0.1242(5) 0.5108(3) 0.3752(4)
C12_5 C 0.0443(6) 0.4729(3) 0.3571(6)
H7_5 H 0.0545 0.4343 0.3377
C15_5 C 0.0211(6) 0.5827(3) 0.4199(6)
H10_5 H 0.0131 0.6203 0.4438
C16_5 C 0.3812(5) 0.3520(2) 0.3494(4)
C17_5 C 0.4691(5) 0.3333(3) 0.3961(4)
H11_5 H 0.5079 0.3606 0.4307
C18_5 C 0.5005(5) 0.2741(3) 0.3921(4)
C19_5 C 0.4419(5) 0.2335(3) 0.3392(4)
H12_5 H 0.4630 0.1940 0.3356
C20_5 C 0.3535(5) 0.2513(3) 0.2925(4)
C21_5 C 0.3222(5) 0.3111(3) 0.2964(4)
H13_5 H 0.2631 0.3235 0.2642
C22_5 C 0.5978(5) 0.2559(3) 0.4437(4)
C23_5 C 0.2931(5) 0.2077(3) 0.2316(4)
O1_6 O 0.3536(4) 0.2940(2) 0.0102(3)
O5_6 O 0.2124(4) 0.3795(3) 0.0689(4)
O6_6 O 0.3405(4) 0.4265(2) 0.0377(3)
O7_6 O 0.2949(5) 0.4377(3) 0.1637(4)
N4_6 N 0.2830(5) 0.4155(3) 0.0920(4)
C1_6 C 0.5081(6) 0.6722(3) 0.1277(5)
H1_6 H 0.5321 0.7107 0.1212
C2_4 C 0.4129(7) 0.6658(4) 0.1402(6)
H2_4 H 0.3731 0.6992 0.1456
C3_4 C 0.3749(7) 0.6088(4) 0.1451(7)
H3_4 H 0.3081 0.6031 0.1509
C4_4 C 0.4366(6) 0.5611(4) 0.1414(6)
H4_4 H 0.4122 0.5223 0.1451
C5_6 C 0.5356(5) 0.5703(3) 0.1321(4)
C6_6 C 0.6084(5) 0.5210(3) 0.1345(4)
C7_6 C 0.5791(5) 0.4613(3) 0.1404(4)
H5_6 H 0.5124 0.4518 0.1412
C8_6 C 0.6498(5) 0.4163(3) 0.1451(4)
C9_6 C 0.7484(5) 0.4320(3) 0.1412(4)
H6_6 H 0.7975 0.4028 0.1431
C10_6 C 0.7724(5) 0.4923(3) 0.1345(4)
C11_6 C 0.8758(5) 0.5108(3) 0.1248(4)
C12_6 C 0.9557(6) 0.4729(3) 0.1429(6)
H7_6 H 0.9455 0.4343 0.1623
C15_6 C 0.9789(6) 0.5827(3) 0.0801(6)
H10_6 H 0.9869 0.6203 0.0562
C16_6 C 0.6188(5) 0.3520(2) 0.1506(4)
C17_6 C 0.5309(5) 0.3333(3) 0.1039(4)
H11_6 H 0.4921 0.3606 0.0693
C18_6 C 0.4995(5) 0.2741(3) 0.1079(4)
C19_6 C 0.5581(5) 0.2335(3) 0.1608(4)
H12_6 H 0.5370 0.1940 0.1644
C20_6 C 0.6465(5) 0.2513(3) 0.2075(4)
C21_6 C 0.6778(5) 0.3111(3) 0.2036(4)
H13_6 H 0.7369 0.3235 0.2358
C22_6 C 0.4022(5) 0.2559(3) 0.0563(4)
C23_6 C 0.7069(5) 0.2077(3) 0.2684(4)
O1_7 O 0.1464(4) 0.7940(2) 0.4898(3)
O5_7 O 0.2876(4) 0.8795(3) 0.4311(4)
O6_7 O 0.1595(4) 0.9265(2) 0.4623(3)
O7_7 O 0.2051(5) 0.9377(3) 0.3363(4)
N4_7 N 0.2170(5) 0.9155(3) 0.4080(4)
H11_7 H 0.0079 0.8606 0.4307
C18_7 C 0.0005(5) 0.7741(3) 0.3921(4)
C22_7 C 0.0978(5) 0.7559(3) 0.4437(4)
C1_7 C 0.9919(6) 0.1722(3) 0.3723(5)
H1_7 H 0.9679 0.2107 0.3788
C5_7 C 0.9644(5) 0.0703(3) 0.3679(4)
C6_7 C 0.8916(5) 0.0210(3) 0.3655(4)
C11_7 C 0.6242(5) 0.0108(3) 0.3752(4)
C14_4 C 0.4392(6) 0.0477(4) 0.4009(6)
H9_4 H 0.3768 0.0615 0.4103
C15_7 C 0.5211(6) 0.0827(3) 0.4199(6)
H10_7 H 0.5131 0.1203 0.4438
C7_7 C 0.9209(5) 0.9613(3) 0.3596(4)
H5_7 H 0.9876 0.9518 0.3588
C8_7 C 0.8502(5) 0.9163(3) 0.3549(4)
C9_7 C 0.7516(5) 0.9320(3) 0.3588(4)
H6_7 H 0.7025 0.9028 0.3569
C10_7 C 0.7276(5) 0.9923(3) 0.3655(4)
C12_7 C 0.5443(6) 0.9729(3) 0.3571(6)
H7_7 H 0.5545 0.9343 0.3377
C13_4 C 0.4504(6) 0.9909(4) 0.3670(6)
H8_4 H 0.3958 0.9660 0.3517
C16_7 C 0.8812(5) 0.8520(2) 0.3494(4)
C17_7 C 0.9691(5) 0.8333(3) 0.3961(4)
C19_7 C 0.9419(5) 0.7335(3) 0.3392(4)
H12_7 H 0.9630 0.6940 0.3356
C20_7 C 0.8535(5) 0.7513(3) 0.2925(4)
C21_7 C 0.8222(5) 0.8111(3) 0.2964(4)
H13_7 H 0.7631 0.8235 0.2642
C23_7 C 0.7931(5) 0.7077(3) 0.2316(4)
C1_8 C 0.0081(6) 0.1722(3) 0.1277(5)
H1_8 H 0.0321 0.2107 0.1212
C5_8 C 0.0356(5) 0.0703(3) 0.1321(4)
C6_8 C 0.1084(5) 0.0210(3) 0.1345(4)
C11_8 C 0.3758(5) 0.0108(3) 0.1248(4)
C14_5 C 0.5608(6) 0.0477(4) 0.0991(6)
H9_5 H 0.6232 0.0615 0.0897
C15_8 C 0.4789(6) 0.0827(3) 0.0801(6)
H10_8 H 0.4869 0.1203 0.0562
C7_8 C 0.0791(5) 0.9613(3) 0.1404(4)
H5_8 H 0.0124 0.9518 0.1412
C8_8 C 0.1498(5) 0.9163(3) 0.1451(4)
C9_8 C 0.2484(5) 0.9320(3) 0.1412(4)
H6_8 H 0.2975 0.9028 0.1431
C10_8 C 0.2724(5) 0.9923(3) 0.1345(4)
C12_8 C 0.4557(6) 0.9729(3) 0.1429(6)
H7_8 H 0.4455 0.9343 0.1623
C13_5 C 0.5496(6) 0.9909(4) 0.1330(6)
H8_5 H 0.6042 0.9660 0.1483
C16_8 C 0.1188(5) 0.8520(2) 0.1506(4)
C17_8 C 0.0309(5) 0.8333(3) 0.1039(4)
C19_8 C 0.0581(5) 0.7335(3) 0.1608(4)
H12_8 H 0.0370 0.6940 0.1644
C20_8 C 0.1465(5) 0.7513(3) 0.2075(4)
C21_8 C 0.1778(5) 0.8111(3) 0.2036(4)
H13_8 H 0.2369 0.8235 0.2358
C23_8 C 0.2069(5) 0.7077(3) 0.2684(4)
O1_8 O 0.8536(4) 0.7940(2) 0.0102(3)
O5_8 O 0.7124(4) 0.8795(3) 0.0689(4)
O6_8 O 0.8405(4) 0.9265(2) 0.0377(3)
O7_8 O 0.7949(5) 0.9377(3) 0.1637(4)
N4_8 N 0.7830(5) 0.9155(3) 0.0920(4)
H11_8 H 0.9921 0.8606 0.0693
C18_8 C 0.9995(5) 0.7741(3) 0.1079(4)
C22_8 C 0.9022(5) 0.7559(3) 0.0563(4)
C13_6 C 0.9504(6) 0.5091(4) 0.8670(6)
H8_6 H 0.8958 0.5340 0.8517
C14_6 C 0.9392(6) 0.4523(4) 0.9009(6)
H9_6 H 0.8768 0.4385 0.9103
C2_5 C 0.9129(7) 0.8342(4) 0.6402(6)
H2_5 H 0.8731 0.8008 0.6456
C3_5 C 0.8749(7) 0.8912(4) 0.6451(7)
H3_5 H 0.8081 0.8969 0.6509
C4_5 C 0.9366(6) 0.9389(4) 0.6414(6)
H4_5 H 0.9122 0.9777 0.6451
C2_6 C 0.0871(7) 0.8342(4) 0.8598(6)
H2_6 H 0.1269 0.8008 0.8544
C3_6 C 0.1251(7) 0.8912(4) 0.8549(7)
H3_6 H 0.1919 0.8969 0.8491
C4_6 C 0.0634(6) 0.9389(4) 0.8586(6)
H4_6 H 0.0878 0.9777 0.8549
C13_7 C 0.9504(6) 0.4909(4) 0.3670(6)
H8_7 H 0.8958 0.4660 0.3517
C14_7 C 0.9392(6) 0.5477(4) 0.4009(6)
H9_7 H 0.8768 0.5615 0.4103
C13_8 C 0.0496(6) 0.4909(4) 0.1330(6)
H8_8 H 0.1042 0.4660 0.1483
C14_8 C 0.0608(6) 0.5477(4) 0.0991(6)
H9_8 H 0.1232 0.5615 0.0897
C2_7 C 0.0871(7) 0.1658(4) 0.3598(6)
H2_7 H 0.1269 0.1992 0.3544
C3_7 C 0.1251(7) 0.1088(4) 0.3549(7)
H3_7 H 0.1919 0.1031 0.3491
C4_7 C 0.0634(6) 0.0611(4) 0.3586(6)
H4_7 H 0.0878 0.0223 0.3549
C2_8 C 0.9129(7) 0.1658(4) 0.1402(6)
H2_8 H 0.8731 0.1992 0.1456
C3_8 C 0.8749(7) 0.1088(4) 0.1451(7)
H3_8 H 0.8081 0.1031 0.1509
C4_8 C 0.9366(6) 0.0611(4) 0.1414(6)
H4_8 H 0.9122 0.0223 0.1451
loop_
_geom_bond_atom_site_label_1
_geom_bond_atom_site_label_2
_geom_bond_site_symmetry_1
_geom_bond_site_symmetry_2
H8 C13 1_555 1_555
C14 C13 1_555 1_555
H9 C14 1_555 1_555
Tb1 O1 1_555 1_555
O1 C22 1_555 1_555
O2 C22 1_555 1_555
O3 C23 1_555 1_555
O4 C23 1_555 1_555
O5 Tb1 1_555 1_555
O6 Tb1 1_555 1_555
O7 N4 1_555 1_555
N1 C1 1_555 1_555
N2 C6 1_555 1_555
N3 C11 1_555 1_555
N4 O5 1_555 1_555
C1 H1 1_555 1_555
C2 C1 1_555 1_555
H2 C2 1_555 1_555
C3 C2 1_555 1_555
H3 C3 1_555 1_555
C4 C3 1_555 1_555
H4 C4 1_555 1_555
C5 N1 1_555 1_555
C6 C5 1_555 1_555
C7 C6 1_555 1_555
H5 C7 1_555 1_555
C8 C7 1_555 1_555
C9 C8 1_555 1_555
H6 C9 1_555 1_555
C10 N2 1_555 1_555
C11 C10 1_555 1_555
C12 C11 1_555 1_555
H7 C12 1_555 1_555
C15 N3 1_555 1_555
H10 C15 1_555 1_555
C16 C8 1_555 1_555
C17 C16 1_555 1_555
H11 C17 1_555 1_555
C18 C17 1_555 1_555
C19 C18 1_555 1_555
H12 C19 1_555 1_555
C20 C19 1_555 1_555
C21 C16 1_555 1_555
H13 C21 1_555 1_555
C22 C18 1_555 1_555
C23 C20 1_555 1_555
Tb2 N1 1_555 1_555
Tb3 O2 1_555 1_555
Tb4 O3 1_555 1_555
O8 Tb1 1_555 1_555
O9 Tb1 1_555 1_555
O10 Tb1 1_555 1_555
N5 Tb1 1_555 1_555
N6 Tb1 1_555 1_555
N7 Tb1 1_555 1_555
O4 Tb4 1_555 1_555
O6 N4 1_555 1_555
N2 Tb2 1_555 1_555
N3 Tb2 1_555 1_555
C4 C5 1_555 1_555
C9 C10 1_555 1_555
C20 C21 1_555 1_555
O8_2 Tb1_2 1_555 1_555
O9_2 Tb1_2 1_555 1_555
O10_2 Tb1_2 1_555 1_555
N5_2 Tb1_2 1_555 1_555
N6_2 Tb1_2 1_555 1_555
N7_2 Tb1_2 1_555 1_555
O1_2 C22_2 1_555 1_555
O2_2 C22_2 1_555 1_555
O3_2 C23_2 1_555 1_555
O4_2 C23_2 1_555 1_555
O7_2 N4_2 1_555 1_555
N1_2 C1_2 1_555 1_555
N2_2 C6_2 1_555 1_555
N3_2 C11_2 1_555 1_555
N4_2 O5_2 1_555 1_555
C1_2 H1_2 1_555 1_555
C2_2 C1_2 1_555 1_555
H2_2 C2_2 1_555 1_555
C3_2 C2_2 1_555 1_555
H3_2 C3_2 1_555 1_555
C4_2 C3_2 1_555 1_555
H4_2 C4_2 1_555 1_555
C5_2 N1_2 1_555 1_555
C6_2 C5_2 1_555 1_555
C7_2 C6_2 1_555 1_555
H5_2 C7_2 1_555 1_555
C8_2 C7_2 1_555 1_555
C9_2 C8_2 1_555 1_555
H6_2 C9_2 1_555 1_555
C10_2 N2_2 1_555 1_555
C11_2 C10_2 1_555 1_555
C12_2 C11_2 1_555 1_555
H7_2 C12_2 1_555 1_555
C15_2 N3_2 1_555 1_555
H10_2 C15_2 1_555 1_555
C16_2 C8_2 1_555 1_555
C17_2 C16_2 1_555 1_555
H11_2 C17_2 1_555 1_555
C18_2 C17_2 1_555 1_555
C19_2 C18_2 1_555 1_555
H12_2 C19_2 1_555 1_555
C20_2 C19_2 1_555 1_555
C21_2 C16_2 1_555 1_555
H13_2 C21_2 1_555 1_555
C22_2 C18_2 1_555 1_555
C23_2 C20_2 1_555 1_555
Tb2_2 N1_2 1_555 1_555
Tb4 O2_2 1_555 1_555
Tb3 O3_2 1_555 1_555
O4_2 Tb3 1_555 1_555
O6_2 N4_2 1_555 1_555
N2_2 Tb2_2 1_555 1_555
N3_2 Tb2_2 1_555 1_555
C4_2 C5_2 1_555 1_555
C9_2 C10_2 1_555 1_555
C20_2 C21_2 1_555 1_555
O3_3 C23_3 1_555 1_555
O4_3 C23_3 1_555 1_555
H5_3 C7_3 1_555 1_555
C8_3 C7_3 1_555 1_555
C9_3 C8_3 1_555 1_555
H6_3 C9_3 1_555 1_555
H7_3 C12_3 1_555 1_555
C13_2 C12_3 1_555 1_555
H8_2 C13_2 1_555 1_555
C16_3 C8_3 1_555 1_555
C17_3 C16_3 1_555 1_555
H12_3 C19_3 1_555 1_555
C20_3 C19_3 1_555 1_555
C21_3 C16_3 1_555 1_555
H13_3 C21_3 1_555 1_555
C23_3 C20_3 1_555 1_555
Tb2_2 O3_3 1_555 1_555
O4_3 Tb2_2 1_555 1_555
C9_3 C10_3 1_555 1_555
C20_3 C21_3 1_555 1_555
N1_3 C1_3 1_555 1_555
N2_3 C6_3 1_555 1_555
N3_3 C11_3 1_555 1_555
C1_3 H1_3 1_555 1_555
C5_3 N1_3 1_555 1_555
C6_3 C5_3 1_555 1_555
H9_2 C14_2 1_555 1_555
C15_3 N3_3 1_555 1_555
H10_3 C15_3 1_555 1_555
Tb3 N1_3 1_555 1_555
N2_3 Tb3 1_555 1_555
N3_3 Tb3 1_555 1_555
C14_2 C15_3 1_555 1_555
Tb1_3 O1_3 1_555 1_555
O1_3 C22_3 1_555 1_555
O2_3 C22_3 1_555 1_555
O5_3 Tb1_3 1_555 1_555
O6_3 Tb1_3 1_555 1_555
O7_3 N4_3 1_555 1_555
N4_3 O5_3 1_555 1_555
C22_3 C18_3 1_555 1_555
Tb2 O2_3 1_555 1_555
O8_3 Tb1_3 1_555 1_555
O9_3 Tb1_3 1_555 1_555
O10_3 Tb1_3 1_555 1_555
N5_3 Tb1_3 1_555 1_555
N6_3 Tb1_3 1_555 1_555
N7_3 Tb1_3 1_555 1_555
O6_3 N4_3 1_555 1_555
O8_4 Tb1_4 1_555 1_555
O9_4 Tb1_4 1_555 1_555
O10_4 Tb1_4 1_555 1_555
N5_4 Tb1_4 1_555 1_555
N6_4 Tb1_4 1_555 1_555
N7_4 Tb1_4 1_555 1_555
O1_4 C22_4 1_555 1_555
O2_4 C22_4 1_555 1_555
O7_4 N4_4 1_555 1_555
N4_4 O5_4 1_555 1_555
C22_4 C18_4 1_555 1_555
Tb2_2 O2_4 1_555 1_555
O6_4 N4_4 1_555 1_555
O3_4 C23_4 1_555 1_555
O4_4 C23_4 1_555 1_555
H5_4 C7_4 1_555 1_555
C8_4 C7_4 1_555 1_555
C9_4 C8_4 1_555 1_555
H6_4 C9_4 1_555 1_555
H7_4 C12_4 1_555 1_555
C13_3 C12_4 1_555 1_555
H8_3 C13_3 1_555 1_555
C16_4 C8_4 1_555 1_555
C17_4 C16_4 1_555 1_555
H12_4 C19_4 1_555 1_555
C20_4 C19_4 1_555 1_555
C21_4 C16_4 1_555 1_555
H13_4 C21_4 1_555 1_555
C23_4 C20_4 1_555 1_555
Tb2 O3_4 1_555 1_555
O4_4 Tb2 1_555 1_555
C9_4 C10_4 1_555 1_555
C20_4 C21_4 1_555 1_555
N1_4 C1_4 1_555 1_555
N2_4 C6_4 1_555 1_555
N3_4 C11_4 1_555 1_555
C1_4 H1_4 1_555 1_555
C5_4 N1_4 1_555 1_555
C6_4 C5_4 1_555 1_555
H9_3 C14_3 1_555 1_555
C15_4 N3_4 1_555 1_555
H10_4 C15_4 1_555 1_555
Tb4 N1_4 1_555 1_555
N2_4 Tb4 1_555 1_555
N3_4 Tb4 1_555 1_555
C14_3 C15_4 1_555 1_555
Tb2 O1_5 1_555 1_555
O1_5 C22_5 1_555 1_555
O8_3 C22_5 1_555 1_555
O9_4 C23_5 1_555 1_555
O10_4 C23_5 1_555 1_555
O5_5 Tb2 1_555 1_555
O6_5 Tb2 1_555 1_555
O7_5 N4_5 1_555 1_555
N5 C1_5 1_555 1_555
N6 C6_5 1_555 1_555
N7 C11_5 1_555 1_555
N4_5 O5_5 1_555 1_555
C1_5 H1_5 1_555 1_555
C2_3 C1_5 1_555 1_555
H2_3 C2_3 1_555 1_555
C3_3 C2_3 1_555 1_555
H3_3 C3_3 1_555 1_555
C4_3 C3_3 1_555 1_555
H4_3 C4_3 1_555 1_555
C5_5 N5 1_555 1_555
C6_5 C5_5 1_555 1_555
C7_5 C6_5 1_555 1_555
H5_5 C7_5 1_555 1_555
C8_5 C7_5 1_555 1_555
C9_5 C8_5 1_555 1_555
H6_5 C9_5 1_555 1_555
C10_5 N6 1_555 1_555
C11_5 C10_5 1_555 1_555
C12_5 C11_5 1_555 1_555
H7_5 C12_5 1_555 1_555
C15_5 N7 1_555 1_555
H10_5 C15_5 1_555 1_555
C16_5 C8_5 1_555 1_555
C17_5 C16_5 1_555 1_555
H11_5 C17_5 1_555 1_555
C18_5 C17_5 1_555 1_555
C19_5 C18_5 1_555 1_555
H12_5 C19_5 1_555 1_555
C20_5 C19_5 1_555 1_555
C21_5 C16_5 1_555 1_555
H13_5 C21_5 1_555 1_555
C22_5 C18_5 1_555 1_555
C23_5 C20_5 1_555 1_555
O6_5 N4_5 1_555 1_555
C4_3 C5_5 1_555 1_555
C9_5 C10_5 1_555 1_555
C20_5 C21_5 1_555 1_555
O1_6 C22_6 1_555 1_555
O8_4 C22_6 1_555 1_555
O9_3 C23_6 1_555 1_555
O10_3 C23_6 1_555 1_555
O7_6 N4_6 1_555 1_555
N5_2 C1_6 1_555 1_555
N6_2 C6_6 1_555 1_555
N7_2 C11_6 1_555 1_555
N4_6 O5_6 1_555 1_555
C1_6 H1_6 1_555 1_555
C2_4 C1_6 1_555 1_555
H2_4 C2_4 1_555 1_555
C3_4 C2_4 1_555 1_555
H3_4 C3_4 1_555 1_555
C4_4 C3_4 1_555 1_555
H4_4 C4_4 1_555 1_555
C5_6 N5_2 1_555 1_555
C6_6 C5_6 1_555 1_555
C7_6 C6_6 1_555 1_555
H5_6 C7_6 1_555 1_555
C8_6 C7_6 1_555 1_555
C9_6 C8_6 1_555 1_555
H6_6 C9_6 1_555 1_555
C10_6 N6_2 1_555 1_555
C11_6 C10_6 1_555 1_555
C12_6 C11_6 1_555 1_555
H7_6 C12_6 1_555 1_555
C15_6 N7_2 1_555 1_555
H10_6 C15_6 1_555 1_555
C16_6 C8_6 1_555 1_555
C17_6 C16_6 1_555 1_555
H11_6 C17_6 1_555 1_555
C18_6 C17_6 1_555 1_555
C19_6 C18_6 1_555 1_555
H12_6 C19_6 1_555 1_555
C20_6 C19_6 1_555 1_555
C21_6 C16_6 1_555 1_555
H13_6 C21_6 1_555 1_555
C22_6 C18_6 1_555 1_555
C23_6 C20_6 1_555 1_555
O6_6 N4_6 1_555 1_555
C4_4 C5_6 1_555 1_555
C9_6 C10_6 1_555 1_555
C20_6 C21_6 1_555 1_555
Tb3 O1_7 1_555 1_555
O1_7 C22_7 1_555 1_555
O8 C22_7 1_555 1_555
O5_7 Tb3 1_555 1_555
O6_7 Tb3 1_555 1_555
O7_7 N4_7 1_555 1_555
N4_7 O5_7 1_555 1_555
C22_7 C18_7 1_555 1_555
O6_7 N4_7 1_555 1_555
N5_3 C1_7 1_555 1_555
N6_3 C6_7 1_555 1_555
N7_3 C11_7 1_555 1_555
C1_7 H1_7 1_555 1_555
C5_7 N5_3 1_555 1_555
C6_7 C5_7 1_555 1_555
H9_4 C14_4 1_555 1_555
C15_7 N7_3 1_555 1_555
H10_7 C15_7 1_555 1_555
C14_4 C15_7 1_555 1_555
O9_2 C23_7 1_555 1_555
O10_2 C23_7 1_555 1_555
H5_7 C7_7 1_555 1_555
C8_7 C7_7 1_555 1_555
C9_7 C8_7 1_555 1_555
H6_7 C9_7 1_555 1_555
H7_7 C12_7 1_555 1_555
C13_4 C12_7 1_555 1_555
H8_4 C13_4 1_555 1_555
C16_7 C8_7 1_555 1_555
C17_7 C16_7 1_555 1_555
H12_7 C19_7 1_555 1_555
C20_7 C19_7 1_555 1_555
C21_7 C16_7 1_555 1_555
H13_7 C21_7 1_555 1_555
C23_7 C20_7 1_555 1_555
C9_7 C10_7 1_555 1_555
C20_7 C21_7 1_555 1_555
N5_4 C1_8 1_555 1_555
N6_4 C6_8 1_555 1_555
N7_4 C11_8 1_555 1_555
C1_8 H1_8 1_555 1_555
C5_8 N5_4 1_555 1_555
C6_8 C5_8 1_555 1_555
H9_5 C14_5 1_555 1_555
C15_8 N7_4 1_555 1_555
H10_8 C15_8 1_555 1_555
C14_5 C15_8 1_555 1_555
O9 C23_8 1_555 1_555
O10 C23_8 1_555 1_555
H5_8 C7_8 1_555 1_555
C8_8 C7_8 1_555 1_555
C9_8 C8_8 1_555 1_555
H6_8 C9_8 1_555 1_555
H7_8 C12_8 1_555 1_555
C13_5 C12_8 1_555 1_555
H8_5 C13_5 1_555 1_555
C16_8 C8_8 1_555 1_555
C17_8 C16_8 1_555 1_555
H12_8 C19_8 1_555 1_555
C20_8 C19_8 1_555 1_555
C21_8 C16_8 1_555 1_555
H13_8 C21_8 1_555 1_555
C23_8 C20_8 1_555 1_555
C9_8 C10_8 1_555 1_555
C20_8 C21_8 1_555 1_555
O1_8 C22_8 1_555 1_555
O8_2 C22_8 1_555 1_555
O7_8 N4_8 1_555 1_555
N4_8 O5_8 1_555 1_555
C22_8 C18_8 1_555 1_555
O6_8 N4_8 1_555 1_555
H8_6 C13_6 1_555 1_555
C14_6 C13_6 1_555 1_555
H9_6 C14_6 1_555 1_555
H2_5 C2_5 1_555 1_555
C3_5 C2_5 1_555 1_555
H3_5 C3_5 1_555 1_555
C4_5 C3_5 1_555 1_555
H4_5 C4_5 1_555 1_555
H2_6 C2_6 1_555 1_555
C3_6 C2_6 1_555 1_555
H3_6 C3_6 1_555 1_555
C4_6 C3_6 1_555 1_555
H4_6 C4_6 1_555 1_555
H8_7 C13_7 1_555 1_555
C14_7 C13_7 1_555 1_555
H9_7 C14_7 1_555 1_555
H8_8 C13_8 1_555 1_555
C14_8 C13_8 1_555 1_555
H9_8 C14_8 1_555 1_555
H2_7 C2_7 1_555 1_555
C3_7 C2_7 1_555 1_555
H3_7 C3_7 1_555 1_555
C4_7 C3_7 1_555 1_555
H4_7 C4_7 1_555 1_555
H2_8 C2_8 1_555 1_555
C3_8 C2_8 1_555 1_555
H3_8 C3_8 1_555 1_555
C4_8 C3_8 1_555 1_555
H4_8 C4_8 1_555 1_555

#END
