
###############################################################################
#
# This file contains modified crystal structure data generated from the
# MOF subset of the Cambridge Structural Database (CSD) v543 
# hosted by the Cambridge Crystallographic Data Centre (CCDC).
#
# This work is licensed under the Creative Commons
# Attribution-NonCommercial-ShareAlike 4.0 International License.
# To view a copy of this license, visit
# http://creativecommons.org/licenses/by-nc-sa/4.0/
# or send a letter to
# Creative Commons, PO Box 1866, Mountain View, CA 94042, USA.
#
# CIF created using the CSD Python API on 29 September 2022
# The structure has been converted into the P1 space group
# The structure has a 3D framework
# The original CSD entry LEYFUS is in the rhombohedral crystal system
# The framework has been calculated to contain at least 10.0% void space
# The void calculation uses a probe of radius 1.32A, grid spacing 0.4
# The framework is charged, counterions have been retained in the structure
# H atom positions have been added when not included in the experimental data
#
###############################################################################

data_LEYFUS
_chemical_formula_moiety         '(C126 H310 N36 O408 Tm18 W72)n'
_symmetry_cell_setting           triclinic
_symmetry_space_group_name_H-M   'P 1'
_symmetry_Int_Tables_number      1
_space_group_name_Hall           'P 1'
loop_
_symmetry_equiv_pos_site_id
_symmetry_equiv_pos_as_xyz
1 x,y,z
_cell_length_a                   16.6502(4)
_cell_length_b                   16.6502(4)
_cell_length_c                   51.313(2)
_cell_angle_alpha                90
_cell_angle_beta                 90
_cell_angle_gamma                120
_cell_volume                     12319.6
loop_
_atom_site_label
_atom_site_type_symbol
_atom_site_fract_x
_atom_site_fract_y
_atom_site_fract_z
Tm2 Tm 0.78282(5) 0.10511(7) 0.168686(14)
O32 O 0.7446(9) 0.0662(15) 0.1256(3)
O35 O 0.8197(9) 0.2619(13) 0.1717(4)
O36 O 0.7125(8) 0.0871(12) 0.2079(2)
O37 O 0.9028(10) 0.1635(18) 0.2000(3)
O39 O 0.6476(9) 0.1111(13) 0.1614(3)
O43 O 0.8518(10) 0.0150(14) 0.1647(4)
C8 C 0.6364(11) 0.0157(16) 0.2470(3)
C9 C 0.5647(13) 0.0289(18) 0.2412(3)
H4 H 0.5671 0.0629 0.2258
C14 C 0.7198(14) 0.0527(19) 0.2295(4)
O45 O 0.7867(12) 0.0513(18) 0.2372(4)
O70 O 0.9121(7) 0.1937(11) 0.1452(2)
H18 H 0.606245 0.0857658 0.1768
H19 H 0.663684 0.176453 0.158529
H24 H 0.677681 0.0443352 0.123009
H25 H 0.782095 0.121422 0.114491
H26 H 0.805766 0.274469 0.18956
H27 H 0.886637 0.303212 0.167931
H28 H 0.937055 0.129015 0.198837
H29 H 0.946063 0.230357 0.196633
H43 H 0.919662 0.0557176 0.162254
W1 W 0.51816(4) 0.62430(4) 0.173199(13)
W2 W 0.30545(5) 0.44762(4) 0.169100(12)
W3 W 0.25835(5) 0.53290(5) 0.229643(14)
W4 W 0.39798(5) 0.58509(5) 0.118853(15)
Tm1 Tm 0.32229(5) 0.21718(5) 0.168686(14)
O1 O 0.2060(8) 0.4501(10) 0.2535(2)
O2 O 0.4399(7) 0.4949(8) 0.1784(2)
O3 O 0.4202(9) 0.5553(10) 0.0893(3)
O4 O 0.6206(8) 0.6267(9) 0.1767(3)
O5 O 0.2778(8) 0.3322(8) 0.1718(3)
O6 O 0.3778(7) 0.5941(7) 0.1615(2)
O7 O 0.5080(9) 0.6062(9) 0.1354(2)
O8 O 0.2985(8) 0.4795(8) 0.2057(2)
O9 O 0.3216(12) 0.2554(9) 0.1256(3)
O10 O 0.2454(7) 0.3850(8) 0.3119(2)
O11 O 0.4965(8) 0.6543(7) 0.2074(2)
O12 O 0.4422(10) 0.1803(9) 0.1717(4)
O13 O 0.3746(9) 0.2875(8) 0.2079(2)
O14 O 0.2607(15) 0.0972(10) 0.2000(3)
O15 O 0.3344(8) 0.4556(8) 0.1334(2)
O16 O 0.4635(10) 0.3524(9) 0.1614(3)
O17 O 0.1931(8) 0.4397(9) 0.1651(2)
O18 O 0.2260(8) 0.6220(8) 0.2452(2)
O19 O 0.3333 0.6667 0.2068(3)
O20 O 0.4367(9) 0.7100(8) 0.1158(3)
O21 O 0.1632(10) 0.1482(10) 0.1647(4)
O22 O 0.3716(10) 0.5018(11) 0.3272(3)
N1 N 0.5050(10) 0.5099(11) 0.2573(3)
C1 C 0.3793(12) 0.3636(11) 0.2470(3)
C2 C 0.4642(13) 0.4353(13) 0.2412(3)
H1 H 0.4958 0.4329 0.2258
C3 C 0.3793(10) 0.4408(11) 0.2863(3)
C4 C 0.4666(11) 0.5133(13) 0.2803(3)
H2 H 0.4990 0.5642 0.2921
C5 C 0.3361(11) 0.3659(12) 0.2700(4)
H3 H 0.2758 0.3152 0.2743
C6 C 0.3303(11) 0.4452(12) 0.3101(4)
C7 C 0.3329(13) 0.2802(14) 0.2295(4)
O23 O 0.2646(14) 0.2133(12) 0.2372(4)
W5 W 0.37570(4) 0.89386(6) 0.173199(13)
W6 W 0.55238(4) 0.85783(6) 0.169100(12)
W7 W 0.46710(5) 0.72545(7) 0.229643(14)
W8 W 0.41491(5) 0.81289(7) 0.118853(15)
O24 O 0.5499(10) 0.7559(13) 0.2535(2)
O25 O 0.5051(8) 0.9450(11) 0.1784(2)
O26 O 0.4447(10) 0.8649(13) 0.0893(3)
O27 O 0.3733(9) 0.9939(12) 0.1767(3)
O28 O 0.6678(8) 0.9456(11) 0.1718(3)
O29 O 0.4059(7) 0.7837(10) 0.1615(2)
O30 O 0.3938(9) 0.9018(13) 0.1354(2)
O31 O 0.5205(8) 0.8190(11) 0.2057(2)
O33 O 0.6150(8) 0.8604(11) 0.3119(2)
O34 O 0.3457(7) 0.8422(11) 0.2074(2)
O38 O 0.5444(8) 0.8788(11) 0.1334(2)
O40 O 0.5603(9) 0.7534(12) 0.1651(2)
O41 O 0.3780(8) 0.6040(11) 0.2452(2)
O42 O 0.2900(8) 0.7267(12) 0.1158(3)
O44 O 0.4982(11) 0.8698(15) 0.3272(3)
N2 N 0.4901(11) 0.9951(15) 0.2573(3)
C10 C 0.5592(11) 0.9385(15) 0.2863(3)
C11 C 0.4867(13) 0.9533(17) 0.2803(3)
H5 H 0.4358 0.9348 0.2921
C12 C 0.6341(12) 0.9702(16) 0.2700(4)
H6 H 0.6848 0.9606 0.2743
C13 C 0.5548(12) 0.8851(16) 0.3101(4)
W9 W 0.10614(6) 0.48184(4) 0.173199(13)
W10 W 0.14217(6) 0.69455(5) 0.169100(12)
W11 W 0.27455(7) 0.74165(5) 0.229643(14)
W12 W 0.18711(7) 0.60202(5) 0.118853(15)
O46 O 0.2441(13) 0.7940(8) 0.2535(2)
O47 O 0.0550(11) 0.5601(7) 0.1784(2)
O48 O 0.1351(13) 0.5798(9) 0.0893(3)
O49 O 0.0061(12) 0.3794(8) 0.1767(3)
O50 O 0.0544(11) 0.7222(8) 0.1718(3)
O51 O 0.2163(10) 0.6222(7) 0.1615(2)
O52 O 0.0982(13) 0.4920(9) 0.1354(2)
O53 O 0.1810(11) 0.7015(8) 0.2057(2)
O55 O 0.1396(11) 0.7546(7) 0.3119(2)
O56 O 0.1578(11) 0.5035(8) 0.2074(2)
O60 O 0.1212(11) 0.6656(8) 0.1334(2)
O62 O 0.2466(12) 0.8069(8) 0.1651(2)
O63 O 0.3960(11) 0.7740(8) 0.2452(2)
O64 O 0.2733(12) 0.5633(9) 0.1158(3)
O66 O 0.1302(15) 0.6284(10) 0.3272(3)
N3 N 0.0049(15) 0.4950(10) 0.2573(3)
C17 C 0.0615(15) 0.6207(10) 0.2863(3)
C18 C 0.0467(17) 0.5334(11) 0.2803(3)
H8 H 0.0652 0.5010 0.2921
C19 C 0.0298(16) 0.6639(11) 0.2700(4)
H9 H 0.0394 0.7242 0.2743
C20 C 0.1149(16) 0.6697(11) 0.3101(4)
Tm4 Tm 0.11615(5) 0.34438(5) 0.335353(14)
Tm5 Tm 0.22822(7) 0.88385(5) 0.335353(14)
Tm6 Tm 0.65562(5) 0.77178(7) 0.335353(14)
O68 O 0.2817(8) 0.0879(7) 0.1452(2)
H14 H 0.479521 0.393755 0.1768
H15 H 0.512769 0.336316 0.158529
H16 H 0.366654 0.322319 0.123009
H17 H 0.339327 0.217905 0.114491
H20 H 0.468704 0.194234 0.18956
H21 H 0.416575 0.113363 0.167931
H22 H 0.191959 0.0629448 0.198837
H23 H 0.284295 0.0539375 0.196633
H30 H 0.147957 0.174675 0.149412
H31 H 0.136056 0.0803383 0.162254
H32 H 0.0267187 0.852043 0.149412
H42 H 0.825325 0.973281 0.149412
Tm3 Tm 0.89489(7) 0.67771(5) 0.168686(14)
O54 O 0.9338(15) 0.6784(12) 0.1256(3)
O57 O 0.7381(13) 0.5578(10) 0.1717(4)
O58 O 0.9129(12) 0.6254(9) 0.2079(2)
O59 O 0.8365(18) 0.7393(15) 0.2000(3)
O61 O 0.8889(13) 0.5365(10) 0.1614(3)
O65 O 0.9850(14) 0.8368(10) 0.1647(4)
C15 C 0.9843(16) 0.6207(12) 0.2470(3)
C16 C 0.9711(18) 0.5358(13) 0.2412(3)
H7 H 0.9371 0.5042 0.2258
C21 C 0.9473(19) 0.6671(13) 0.2295(4)
O67 O 0.9487(18) 0.7354(14) 0.2372(4)
O69 O 0.8063(11) 0.7183(8) 0.1452(2)
H33 H 0.944282 0.863944 0.162254
H34 H 0.955665 0.633346 0.123009
H35 H 0.878578 0.660673 0.114491
H36 H 0.914234 0.520479 0.1768
H37 H 0.823547 0.487231 0.158529
H38 H 0.725531 0.531296 0.18956
H39 H 0.696788 0.583425 0.167931
H40 H 0.870985 0.808041 0.198837
H41 H 0.769643 0.715705 0.196633
Tm3_2 Tm 0.32229(5) 0.10511(7) 0.668686(14)
O54_2 O 0.3216(12) 0.0662(15) 0.6256(3)
O57_2 O 0.4422(10) 0.2619(13) 0.6717(4)
O58_2 O 0.3746(9) 0.0871(12) 0.7079(2)
O59_2 O 0.2607(15) 0.1635(18) 0.7000(3)
O61_2 O 0.4635(10) 0.1111(13) 0.6614(3)
O65_2 O 0.1632(10) 0.0150(14) 0.6647(4)
C15_2 C 0.3793(12) 0.0157(16) 0.7470(3)
C16_2 C 0.4642(13) 0.0289(18) 0.7412(3)
H7_2 H 0.4958 0.0629 0.7258
C21_2 C 0.3329(13) 0.0527(19) 0.7295(4)
O67_2 O 0.2646(14) 0.0513(18) 0.7372(4)
O69_2 O 0.2817(8) 0.1937(11) 0.6452(2)
H33_2 H 0.136056 0.0557176 0.662254
H34_2 H 0.366654 0.0443352 0.623009
H35_2 H 0.339327 0.121422 0.614491
H36_2 H 0.479521 0.0857658 0.6768
H37_2 H 0.512769 0.176453 0.658529
H38_2 H 0.468704 0.274469 0.68956
H39_2 H 0.416575 0.303212 0.667931
H40_2 H 0.191959 0.129015 0.698837
H41_2 H 0.284295 0.230357 0.696633
W1_2 W 0.37570(4) 0.48184(4) 0.673199(13)
W2_2 W 0.55238(4) 0.69455(5) 0.669100(12)
W3_2 W 0.46710(5) 0.74165(5) 0.729643(14)
W4_2 W 0.41491(5) 0.60202(5) 0.618853(15)
Tm1_2 Tm 0.78282(5) 0.67771(5) 0.668686(14)
O1_2 O 0.5499(10) 0.7940(8) 0.7535(2)
O2_2 O 0.5051(8) 0.5601(7) 0.6784(2)
O3_2 O 0.4447(10) 0.5798(9) 0.5893(3)
O4_2 O 0.3733(9) 0.3794(8) 0.6767(3)
O5_2 O 0.6678(8) 0.7222(8) 0.6718(3)
O6_2 O 0.4059(7) 0.6222(7) 0.6615(2)
O7_2 O 0.3938(9) 0.4920(9) 0.6354(2)
O8_2 O 0.5205(8) 0.7015(8) 0.7057(2)
O9_2 O 0.7446(9) 0.6784(12) 0.6256(3)
O10_2 O 0.6150(8) 0.7546(7) 0.8119(2)
O11_2 O 0.3457(7) 0.5035(8) 0.7074(2)
O12_2 O 0.8197(9) 0.5578(10) 0.6717(4)
O13_2 O 0.7125(8) 0.6254(9) 0.7079(2)
O14_2 O 0.9028(10) 0.7393(15) 0.7000(3)
O15_2 O 0.5444(8) 0.6656(8) 0.6334(2)
O16_2 O 0.6476(9) 0.5365(10) 0.6614(3)
O17_2 O 0.5603(9) 0.8069(8) 0.6651(2)
O18_2 O 0.3780(8) 0.7740(8) 0.7452(2)
O19_2 O 0.3333 0.6667 0.7068(3)
O20_2 O 0.2900(8) 0.5633(9) 0.6158(3)
O21_2 O 0.8518(10) 0.8368(10) 0.6647(4)
O22_2 O 0.4982(11) 0.6284(10) 0.8272(3)
N1_2 N 0.4901(11) 0.4950(10) 0.7573(3)
C1_2 C 0.6364(11) 0.6207(12) 0.7470(3)
C2_2 C 0.5647(13) 0.5358(13) 0.7412(3)
H1_2 H 0.5671 0.5042 0.7258
C3_2 C 0.5592(11) 0.6207(10) 0.7863(3)
C4_2 C 0.4867(13) 0.5334(11) 0.7803(3)
H2_2 H 0.4358 0.5010 0.7921
C5_2 C 0.6341(12) 0.6639(11) 0.7700(4)
H3_2 H 0.6848 0.7242 0.7743
C6_2 C 0.5548(12) 0.6697(11) 0.8101(4)
C7_2 C 0.7198(14) 0.6671(13) 0.7295(4)
O23_2 O 0.7867(12) 0.7354(14) 0.7372(4)
W5_2 W 0.10614(6) 0.62430(4) 0.673199(13)
W6_2 W 0.14217(6) 0.44762(4) 0.669100(12)
W7_2 W 0.27455(7) 0.53290(5) 0.729643(14)
W8_2 W 0.18711(7) 0.58509(5) 0.618853(15)
O24_2 O 0.2441(13) 0.4501(10) 0.7535(2)
O25_2 O 0.0550(11) 0.4949(8) 0.6784(2)
O26_2 O 0.1351(13) 0.5553(10) 0.5893(3)
O27_2 O 0.0061(12) 0.6267(9) 0.6767(3)
O28_2 O 0.0544(11) 0.3322(8) 0.6718(3)
O29_2 O 0.2163(10) 0.5941(7) 0.6615(2)
O30_2 O 0.0982(13) 0.6062(9) 0.6354(2)
O31_2 O 0.1810(11) 0.4795(8) 0.7057(2)
O33_2 O 0.1396(11) 0.3850(8) 0.8119(2)
O34_2 O 0.1578(11) 0.6543(7) 0.7074(2)
O38_2 O 0.1212(11) 0.4556(8) 0.6334(2)
O40_2 O 0.2466(12) 0.4397(9) 0.6651(2)
O41_2 O 0.3960(11) 0.6220(8) 0.7452(2)
O42_2 O 0.2733(12) 0.7100(8) 0.6158(3)
O44_2 O 0.1302(15) 0.5018(11) 0.8272(3)
N2_2 N 0.0049(15) 0.5099(11) 0.7573(3)
C10_2 C 0.0615(15) 0.4408(11) 0.7863(3)
C11_2 C 0.0467(17) 0.5133(13) 0.7803(3)
H5_2 H 0.0652 0.5642 0.7921
C12_2 C 0.0298(16) 0.3659(12) 0.7700(4)
H6_2 H 0.0394 0.3152 0.7743
C13_2 C 0.1149(16) 0.4452(12) 0.8101(4)
W9_2 W 0.51816(4) 0.89386(6) 0.673199(13)
W10_2 W 0.30545(5) 0.85783(6) 0.669100(12)
W11_2 W 0.25835(5) 0.72545(7) 0.729643(14)
W12_2 W 0.39798(5) 0.81289(7) 0.618853(15)
O46_2 O 0.2060(8) 0.7559(13) 0.7535(2)
O47_2 O 0.4399(7) 0.9450(11) 0.6784(2)
O48_2 O 0.4202(9) 0.8649(13) 0.5893(3)
O49_2 O 0.6206(8) 0.9939(12) 0.6767(3)
O50_2 O 0.2778(8) 0.9456(11) 0.6718(3)
O51_2 O 0.3778(7) 0.7837(10) 0.6615(2)
O52_2 O 0.5080(9) 0.9018(13) 0.6354(2)
O53_2 O 0.2985(8) 0.8190(11) 0.7057(2)
O55_2 O 0.2454(7) 0.8604(11) 0.8119(2)
O56_2 O 0.4965(8) 0.8422(11) 0.7074(2)
O60_2 O 0.3344(8) 0.8788(11) 0.6334(2)
O62_2 O 0.1931(8) 0.7534(12) 0.6651(2)
O63_2 O 0.2260(8) 0.6040(11) 0.7452(2)
O64_2 O 0.4367(9) 0.7267(12) 0.6158(3)
O66_2 O 0.3716(10) 0.8698(15) 0.8272(3)
N3_2 N 0.5050(10) 0.9951(15) 0.7573(3)
C17_2 C 0.3793(10) 0.9385(15) 0.7863(3)
C18_2 C 0.4666(11) 0.9533(17) 0.7803(3)
H8_2 H 0.4990 0.9348 0.7921
C19_2 C 0.3361(11) 0.9702(16) 0.7700(4)
H9_2 H 0.2758 0.9606 0.7743
C20_2 C 0.3303(11) 0.8851(16) 0.8101(4)
Tm4_2 Tm 0.65562(5) 0.88385(5) 0.835353(14)
Tm5_2 Tm 0.11615(5) 0.77178(7) 0.835353(14)
Tm6_2 Tm 0.22822(7) 0.34438(5) 0.835353(14)
O68_2 O 0.9121(7) 0.7183(8) 0.6452(2)
H14_2 H 0.606245 0.520479 0.6768
H15_2 H 0.663684 0.487231 0.658529
H16_2 H 0.677681 0.633346 0.623009
H17_2 H 0.782095 0.660673 0.614491
H20_2 H 0.805766 0.531296 0.68956
H21_2 H 0.886637 0.583425 0.667931
H22_2 H 0.937055 0.808041 0.698837
H23_2 H 0.946063 0.715705 0.696633
H30_2 H 0.825325 0.852043 0.649412
H31_2 H 0.919662 0.863944 0.662254
H32_2 H 0.147957 0.973281 0.649412
H42_2 H 0.0267187 0.174675 0.649412
Tm2_2 Tm 0.89489(7) 0.21718(5) 0.668686(14)
O32_2 O 0.9338(15) 0.2554(9) 0.6256(3)
O35_2 O 0.7381(13) 0.1803(9) 0.6717(4)
O36_2 O 0.9129(12) 0.2875(8) 0.7079(2)
O37_2 O 0.8365(18) 0.0972(10) 0.7000(3)
O39_2 O 0.8889(13) 0.3524(9) 0.6614(3)
O43_2 O 0.9850(14) 0.1482(10) 0.6647(4)
C8_2 C 0.9843(16) 0.3636(11) 0.7470(3)
C9_2 C 0.9711(18) 0.4353(13) 0.7412(3)
H4_2 H 0.9371 0.4329 0.7258
C14_2 C 0.9473(19) 0.2802(14) 0.7295(4)
O45_2 O 0.9487(18) 0.2133(12) 0.7372(4)
O70_2 O 0.8063(11) 0.0879(7) 0.6452(2)
H18_2 H 0.914234 0.393755 0.6768
H19_2 H 0.823547 0.336316 0.658529
H24_2 H 0.955665 0.322319 0.623009
H25_2 H 0.878578 0.217905 0.614491
H26_2 H 0.725531 0.194234 0.68956
H27_2 H 0.696788 0.113363 0.667931
H28_2 H 0.870985 0.0629448 0.698837
H29_2 H 0.769643 0.0539375 0.696633
H43_2 H 0.944282 0.0803383 0.662254
O19_3 O -0.0000 0.0000 0.5401(3)
O20_3 O 0.1034(9) 0.0433(8) 0.4491(3)
W5_3 W 0.04237(4) 0.22719(6) 0.506532(13)
W6_3 W 0.21905(4) 0.19116(6) 0.502433(12)
W7_3 W 0.13377(5) 0.05878(7) 0.562976(14)
W8_3 W 0.08158(5) 0.14622(7) 0.452186(15)
Tm2_3 Tm 0.44949(5) 0.43844(7) 0.502019(14)
O24_3 O 0.2166(10) 0.0892(13) 0.5868(2)
O25_3 O 0.1718(8) 0.2783(11) 0.5117(2)
O26_3 O 0.1114(10) 0.1982(13) 0.4226(3)
O27_3 O 0.0400(9) 0.3272(12) 0.5100(3)
O28_3 O 0.3345(8) 0.2789(11) 0.5051(3)
O29_3 O 0.0726(7) 0.1170(10) 0.4948(2)
O30_3 O 0.0605(9) 0.2351(13) 0.4687(2)
O31_3 O 0.1872(8) 0.1523(11) 0.5390(2)
O32_3 O 0.4113(9) 0.3995(15) 0.4589(3)
O34_3 O 0.0124(7) 0.1755(11) 0.5407(2)
O35_3 O 0.4864(9) 0.5952(13) 0.5050(4)
O36_3 O 0.3792(8) 0.4204(12) 0.5412(2)
O37_3 O 0.5695(10) 0.4968(18) 0.5333(3)
O38_3 O 0.2111(8) 0.2121(11) 0.4667(2)
O39_3 O 0.3143(9) 0.4444(13) 0.4947(3)
O40_3 O 0.2270(9) 0.0867(12) 0.4984(2)
O43_3 O 0.5185(10) 0.3483(14) 0.4980(4)
O44_3 O 0.1649(11) 0.2031(15) 0.6605(3)
N2_3 N 0.1568(11) 0.3284(15) 0.5906(3)
C8_3 C 0.3031(11) 0.3490(16) 0.5803(3)
C9_3 C 0.2314(13) 0.3622(18) 0.5745(3)
H4_3 H 0.2338 0.3962 0.5591
C10_3 C 0.2259(11) 0.2718(15) 0.6196(3)
C11_3 C 0.1534(13) 0.2866(17) 0.6136(3)
H5_3 H 0.1025 0.2681 0.6254
C12_3 C 0.3008(12) 0.3035(16) 0.6033(4)
H6_3 H 0.3515 0.2939 0.6076
C13_3 C 0.2215(12) 0.2184(16) 0.6434(4)
C14_3 C 0.3865(14) 0.3860(19) 0.5628(4)
O45_3 O 0.4534(12) 0.3846(18) 0.5705(4)
O63_3 O 0.0627(11) 0.1073(8) 0.5785(2)
O70_3 O 0.5787(7) 0.5271(11) 0.4786(2)
H18_3 H 0.272912 0.419099 0.510133
H19_3 H 0.33035 0.509786 0.491863
H24_3 H 0.344348 0.377669 0.456343
H25_3 H 0.448762 0.454755 0.447825
H26_3 H 0.472432 0.607803 0.522893
H27_3 H 0.553303 0.636545 0.501265
H28_3 H 0.603722 0.462348 0.532171
H29_3 H 0.612729 0.563691 0.529966
H42_3 H 0.491991 0.306615 0.482745
H43_3 H 0.586328 0.389051 0.495587
O19_4 O 1.0000 0.0000 0.5401(3)
O42_3 O 0.9567(8) 0.0600(12) 0.4491(3)
W10_3 W 0.80884(6) 0.02788(5) 0.502433(12)
W11_3 W 0.94122(7) 0.07498(5) 0.562976(14)
Tm3_3 Tm 0.56156(7) 0.01104(5) 0.502019(14)
O46_3 O 0.9108(13) 0.1273(8) 0.5868(2)
O50_3 O 0.7211(11) 0.0555(8) 0.5051(3)
O53_3 O 0.8477(11) 0.0348(8) 0.5390(2)
O54_3 O 0.6005(15) 0.0117(12) 0.4589(3)
O59_3 O 0.5032(18) 0.0726(15) 0.5333(3)
O62_3 O 0.9133(12) 0.1402(8) 0.4984(2)
O65_3 O 0.6517(14) 0.1701(10) 0.4980(4)
H9_3 H 0.7061 0.0575 0.6076
C20_3 C 0.7816(16) 0.0030(11) 0.6434(4)
C21_3 C 0.6140(19) 0.0004(13) 0.5628(4)
O67_3 O 0.6154(18) 0.0687(14) 0.5705(4)
O69_3 O 0.4729(11) 0.0517(8) 0.4786(2)
H32_3 H 0.693385 0.185377 0.482745
H33_3 H 0.610949 0.197278 0.495587
H40_3 H 0.537652 0.141374 0.532171
H41_3 H 0.436309 0.0490385 0.529966
W2_3 W 0.97212(5) 0.78095(4) 0.502433(12)
W3_3 W 0.92502(5) 0.86623(5) 0.562976(14)
Tm1_3 Tm 0.98896(5) 0.55051(5) 0.502019(14)
O1_3 O 0.8727(8) 0.7834(10) 0.5868(2)
O5_3 O 0.9445(8) 0.6655(8) 0.5051(3)
O8_3 O 0.9652(8) 0.8128(8) 0.5390(2)
O9_3 O 0.9883(12) 0.5887(9) 0.4589(3)
O14_3 O 0.9274(15) 0.4305(10) 0.5333(3)
O17_3 O 0.8598(8) 0.7730(9) 0.4984(2)
O18_3 O 0.8927(8) 0.9553(8) 0.5785(2)
O19_5 O 1.0000 1.0000 0.5401(3)
O21_3 O 0.8299(10) 0.4815(10) 0.4980(4)
H3_3 H 0.9425 0.6485 0.6076
C6_3 C 0.9970(11) 0.7785(12) 0.6434(4)
C7_3 C 0.9996(13) 0.6135(14) 0.5628(4)
O23_3 O 0.9313(14) 0.5466(12) 0.5705(4)
W9_3 W 0.77281(6) 0.81517(4) 0.506532(13)
W12_3 W 0.85378(7) 0.93535(5) 0.452186(15)
O47_3 O 0.7217(11) 0.8934(7) 0.5117(2)
O48_3 O 0.8018(13) 0.9131(9) 0.4226(3)
O49_3 O 0.6728(12) 0.7127(8) 0.5100(3)
O51_3 O 0.8830(10) 0.9555(7) 0.4948(2)
O52_3 O 0.7649(13) 0.8253(9) 0.4687(2)
O56_3 O 0.8245(11) 0.8368(8) 0.5407(2)
O57_3 O 0.4048(13) 0.8911(10) 0.5050(4)
O58_3 O 0.5796(12) 0.9587(9) 0.5412(2)
O60_3 O 0.7879(11) 0.9989(8) 0.4667(2)
O61_3 O 0.5556(13) 0.8698(10) 0.4947(3)
O64_3 O 0.9400(12) 0.8966(9) 0.4491(3)
O66_3 O 0.7969(15) 0.9617(10) 0.6605(3)
N3_3 N 0.6716(15) 0.8283(10) 0.5906(3)
C15_3 C 0.6510(16) 0.9540(12) 0.5803(3)
C16_3 C 0.6378(18) 0.8691(13) 0.5745(3)
H7_3 H 0.6038 0.8375 0.5591
C17_3 C 0.7282(15) 0.9540(10) 0.6196(3)
C18_3 C 0.7134(17) 0.8667(11) 0.6136(3)
H8_3 H 0.7319 0.8343 0.6254
C19_3 C 0.6965(16) 0.9972(11) 0.6033(4)
O68_3 O 0.9483(8) 0.4213(7) 0.4786(2)
H22_3 H 0.858626 0.396278 0.532171
H23_3 H 0.950962 0.387271 0.529966
H30_3 H 0.814623 0.508009 0.482745
H31_3 H 0.802722 0.413672 0.495587
H34_3 H 0.622331 0.966679 0.456343
H35_3 H 0.545245 0.994006 0.447825
H36_3 H 0.580901 0.853813 0.510133
H37_3 H 0.490214 0.820564 0.491863
H38_3 H 0.392197 0.864629 0.522893
H39_3 H 0.363455 0.916758 0.501265
W2_4 W 0.21905(4) 0.02788(5) 0.002433(12)
W3_4 W 0.13377(5) 0.07498(5) 0.062976(14)
Tm1_4 Tm 0.44949(5) 0.01104(5) 0.002019(14)
O1_4 O 0.2166(10) 0.1273(8) 0.0868(2)
O5_4 O 0.3345(8) 0.0555(8) 0.0051(3)
O8_4 O 0.1872(8) 0.0348(8) 0.0390(2)
O14_4 O 0.5695(10) 0.0726(15) 0.0333(3)
O18_4 O 0.0447(8) 0.1073(8) 0.0785(2)
O19_6 O -0.0000 0.0000 0.0401(3)
H3_4 H 0.3515 0.0575 0.1076
C6_4 C 0.2215(12) 0.0030(11) 0.1434(4)
C7_4 C 0.3865(14) 0.0004(13) 0.0628(4)
O23_4 O 0.4534(12) 0.0687(14) 0.0705(4)
W9_4 W 0.18483(4) 0.22719(6) 0.006532(13)
O47_4 O 0.1066(7) 0.2783(11) 0.0117(2)
O49_4 O 0.2873(8) 0.3272(12) 0.0100(3)
O56_4 O 0.1632(8) 0.1755(11) 0.0407(2)
O57_4 O 0.1089(10) 0.5952(13) 0.0050(4)
O58_4 O 0.0413(9) 0.4204(12) 0.0412(2)
O66_4 O 0.0383(10) 0.2031(15) 0.1605(3)
N3_4 N 0.1717(10) 0.3284(15) 0.0906(3)
C15_4 C 0.0460(12) 0.3490(16) 0.0803(3)
C16_4 C 0.1309(13) 0.3622(18) 0.0745(3)
H7_4 H 0.1625 0.3962 0.0591
C17_4 C 0.0460(10) 0.2718(15) 0.1196(3)
C18_4 C 0.1333(11) 0.2866(17) 0.1136(3)
H8_4 H 0.1657 0.2681 0.1254
C19_4 C 0.0028(11) 0.3035(16) 0.1033(4)
H22_4 H 0.603722 0.141374 0.0321707
H23_4 H 0.612729 0.0490385 0.0299664
H36_4 H 0.146187 0.419099 0.0101333
H38_4 H 0.135371 0.607803 0.0228932
H39_4 H 0.0832418 0.636545 0.0012645
O9_4 O 0.4113(9) 0.0117(12) 0.9589(3)
O17_4 O 0.2270(9) 0.1402(8) 0.9984(2)
O21_4 O 0.5185(10) 0.1701(10) 0.9980(4)
W12_4 W 0.06465(5) 0.14622(7) 0.952186(15)
O48_4 O 0.0869(9) 0.1982(13) 0.9226(3)
O51_4 O 0.0445(7) 0.1170(10) 0.9948(2)
O52_4 O 0.1747(9) 0.2351(13) 0.9687(2)
O60_4 O 0.0011(8) 0.2121(11) 0.9667(2)
O61_4 O 0.1302(10) 0.4444(13) 0.9947(3)
O64_4 O 0.1034(9) 0.0600(12) 0.9491(3)
O68_4 O 0.5787(7) 0.0517(8) 0.9786(2)
H30_4 H 0.491991 0.185377 0.982745
H31_4 H 0.586328 0.197278 0.995587
H34_4 H 0.0333209 0.377669 0.956343
H35_4 H 0.00599391 0.454755 0.947825
H37_4 H 0.179436 0.509786 0.991863
O19_7 O 1.0000 0.0000 0.0401(3)
W10_4 W 0.97212(5) 0.19116(6) 0.002433(12)
W11_4 W 0.92502(5) 0.05878(7) 0.062976(14)
Tm3_4 Tm 0.98896(5) 0.43844(7) 0.002019(14)
O46_4 O 0.8727(8) 0.0892(13) 0.0868(2)
O50_4 O 0.9445(8) 0.2789(11) 0.0051(3)
O53_4 O 0.9652(8) 0.1523(11) 0.0390(2)
O59_4 O 0.9274(15) 0.4968(18) 0.0333(3)
H9_4 H 0.9425 0.2939 0.1076
C20_4 C 0.9970(11) 0.2184(16) 0.1434(4)
C21_4 C 0.9996(13) 0.3860(19) 0.0628(4)
O67_4 O 0.9313(14) 0.3846(18) 0.0705(4)
H40_4 H 0.858626 0.462348 0.0321707
H41_4 H 0.950962 0.563691 0.0299664
O42_4 O 0.9400(12) 0.0433(8) 0.9491(3)
O54_4 O 0.9883(12) 0.3995(15) 0.9589(3)
O62_4 O 0.8598(8) 0.0867(12) 0.9984(2)
O65_4 O 0.8299(10) 0.3483(14) 0.9980(4)
O69_4 O 0.9483(8) 0.5271(11) 0.9786(2)
H32_4 H 0.814623 0.306615 0.982745
H33_4 H 0.802722 0.389051 0.995587
O19_8 O 1.0000 1.0000 0.0401(3)
W5_4 W 0.77281(6) 0.95763(4) 0.006532(13)
W6_4 W 0.80884(6) 0.78095(4) 0.002433(12)
W7_4 W 0.94122(7) 0.86623(5) 0.062976(14)
Tm2_4 Tm 0.56156(7) 0.55051(5) 0.002019(14)
O24_4 O 0.9108(13) 0.7834(10) 0.0868(2)
O25_4 O 0.7217(11) 0.8282(8) 0.0117(2)
O27_4 O 0.6728(12) 0.9600(9) 0.0100(3)
O28_4 O 0.7211(11) 0.6655(8) 0.0051(3)
O31_4 O 0.8477(11) 0.8128(8) 0.0390(2)
O34_4 O 0.8245(11) 0.9876(7) 0.0407(2)
O35_4 O 0.4048(13) 0.5136(9) 0.0050(4)
O36_4 O 0.5796(12) 0.6208(8) 0.0412(2)
O37_4 O 0.5032(18) 0.4305(10) 0.0333(3)
O44_4 O 0.7969(15) 0.8351(11) 0.1605(3)
N2_4 N 0.6716(15) 0.8432(11) 0.0906(3)
C8_4 C 0.6510(16) 0.6969(11) 0.0803(3)
C9_4 C 0.6378(18) 0.7686(13) 0.0745(3)
H4_4 H 0.6038 0.7662 0.0591
C10_4 C 0.7282(15) 0.7741(11) 0.1196(3)
C11_4 C 0.7134(17) 0.8466(13) 0.1136(3)
H5_4 H 0.7319 0.8975 0.1254
C12_4 C 0.6965(16) 0.6992(12) 0.1033(4)
H6_4 H 0.7061 0.6485 0.1076
C13_4 C 0.7816(16) 0.7785(12) 0.1434(4)
C14_4 C 0.6140(19) 0.6135(14) 0.0628(4)
O45_4 O 0.6154(18) 0.5466(12) 0.0705(4)
O63_4 O 0.8927(8) 0.9373(11) 0.0785(2)
H18_4 H 0.580901 0.727088 0.0101333
H26_4 H 0.392197 0.527568 0.0228932
H27_4 H 0.363455 0.446697 0.0012645
H28_4 H 0.537652 0.396278 0.0321707
H29_4 H 0.436309 0.387271 0.0299664
O20_4 O 0.9567(8) 0.8966(9) 0.9491(3)
W8_4 W 0.85378(7) 0.91842(5) 0.952186(15)
O26_4 O 0.8018(13) 0.8886(10) 0.9226(3)
O29_4 O 0.8830(10) 0.9274(7) 0.9948(2)
O30_4 O 0.7649(13) 0.9395(9) 0.9687(2)
O32_4 O 0.6005(15) 0.5887(9) 0.9589(3)
O38_4 O 0.7879(11) 0.7889(8) 0.9667(2)
O39_4 O 0.5556(13) 0.6857(9) 0.9947(3)
O40_4 O 0.9133(12) 0.7730(9) 0.9984(2)
O43_4 O 0.6517(14) 0.4815(10) 0.9980(4)
O70_4 O 0.4729(11) 0.4213(7) 0.9786(2)
H19_4 H 0.490214 0.66965 0.991863
H24_4 H 0.622331 0.655652 0.956343
H25_4 H 0.545245 0.551238 0.947825
H42_4 H 0.693385 0.508009 0.982745
H43_4 H 0.610949 0.413672 0.995587
O28_5 O 0.0011(8) 0.6123(11) 0.8385(3)
O32_5 O 0.0779(9) 0.7329(15) 0.7923(3)
O35_5 O 0.1530(9) 0.9286(13) 0.8384(4)
O36_5 O 0.0458(8) 0.7538(12) 0.8746(2)
O37_5 O 0.2361(10) 0.8302(18) 0.8667(3)
O43_5 O 0.1851(10) 0.6817(14) 0.8314(4)
H6_5 H 0.0181 0.6273 0.9410
C14_5 C 0.0531(14) 0.7194(19) 0.8962(4)
O45_5 O 0.1200(12) 0.7180(18) 0.9039(4)
H24_5 H 0.0110143 0.711002 0.789676
H25_5 H 0.115428 0.788089 0.781158
H26_5 H 0.139099 0.941136 0.856226
H27_5 H 0.21997 0.969878 0.834598
H28_5 H 0.270389 0.795681 0.865504
H29_5 H 0.279396 0.897024 0.8633
H42_5 H 0.158658 0.639948 0.816078
H43_5 H 0.252995 0.722384 0.828921
W1_3 W 0.85149(4) 0.29097(4) 0.839866(13)
W2_5 W 0.63878(5) 0.11429(4) 0.835767(12)
W3_5 W 0.59168(5) 0.19957(5) 0.896310(14)
W4_3 W 0.73131(5) 0.25176(5) 0.785520(15)
O1_5 O 0.5393(8) 0.1168(10) 0.9202(2)
O2_3 O 0.7732(7) 0.1616(8) 0.8451(2)
O3_3 O 0.7535(9) 0.2220(10) 0.7560(3)
O4_3 O 0.9539(8) 0.2934(9) 0.8434(3)
O6_3 O 0.7111(7) 0.2608(7) 0.8282(2)
O7_3 O 0.8413(9) 0.2729(9) 0.8021(2)
O8_5 O 0.6318(8) 0.1462(8) 0.8724(2)
O11_3 O 0.8298(8) 0.3210(7) 0.8741(2)
O15_3 O 0.6677(8) 0.1223(8) 0.8001(2)
O16_3 O 0.7968(10) 0.0191(9) 0.8281(3)
O17_5 O 0.5264(8) 0.1064(9) 0.8318(2)
O18_5 O 0.5593(8) 0.2887(8) 0.9119(2)
O19_9 O 0.6666 0.3334 0.8735(3)
O20_5 O 0.7700(9) 0.3767(8) 0.7825(3)
O22_3 O 0.7049(10) 0.1685(11) 0.9939(3)
N1_3 N 0.8383(10) 0.1766(11) 0.9240(3)
C1_3 C 0.7126(12) 0.0303(11) 0.9137(3)
C2_3 C 0.7975(13) 0.1020(13) 0.9079(3)
H1_3 H 0.8291 0.0996 0.8925
C3_3 C 0.7126(10) 0.1075(11) 0.9530(3)
C4_3 C 0.7999(11) 0.1800(13) 0.9470(3)
H2_3 H 0.8323 0.2309 0.9588
C5_3 C 0.6694(11) 0.0326(12) 0.9367(4)
C6_5 C 0.6636(11) 0.1119(12) 0.9768(4)
W5_5 W 0.70903(4) 0.56053(6) 0.839866(13)
W6_5 W 0.88571(4) 0.52450(6) 0.835767(12)
W7_5 W 0.80043(5) 0.39212(7) 0.896310(14)
W8_5 W 0.74824(5) 0.47956(7) 0.785520(15)
O24_5 O 0.8832(10) 0.4226(13) 0.9202(2)
O25_5 O 0.8384(8) 0.6117(11) 0.8451(2)
O26_5 O 0.7780(10) 0.5316(13) 0.7560(3)
O27_5 O 0.7066(9) 0.6606(12) 0.8434(3)
O29_5 O 0.7392(7) 0.4504(10) 0.8282(2)
O30_5 O 0.7271(9) 0.5685(13) 0.8021(2)
O31_5 O 0.8538(8) 0.4857(11) 0.8724(2)
O34_5 O 0.6790(7) 0.5089(11) 0.8741(2)
O38_5 O 0.8777(8) 0.5455(11) 0.8001(2)
O39_5 O 0.9809(9) 0.7778(13) 0.8281(3)
O40_5 O 0.8936(9) 0.4201(12) 0.8318(2)
O41_3 O 0.7113(8) 0.2707(11) 0.9119(2)
O42_5 O 0.6233(8) 0.3934(12) 0.7825(3)
O44_5 O 0.8315(11) 0.5365(15) 0.9939(3)
N2_5 N 0.8234(11) 0.6618(15) 0.9240(3)
C8_5 C 0.9697(11) 0.6824(16) 0.9137(3)
C9_5 C 0.8980(13) 0.6956(18) 0.9079(3)
H4_5 H 0.9004 0.7296 0.8925
C10_5 C 0.8925(11) 0.6052(15) 0.9530(3)
C11_5 C 0.8200(13) 0.6200(17) 0.9470(3)
H5_5 H 0.7691 0.6015 0.9588
C12_5 C 0.9674(12) 0.6369(16) 0.9367(4)
C13_5 C 0.8881(12) 0.5518(16) 0.9768(4)
W9_5 W 0.43947(6) 0.14851(4) 0.839866(13)
W10_5 W 0.47550(6) 0.36122(5) 0.835767(12)
W11_5 W 0.60788(7) 0.40832(5) 0.896310(14)
W12_5 W 0.52044(7) 0.26869(5) 0.785520(15)
O46_5 O 0.5774(13) 0.4607(8) 0.9202(2)
O47_5 O 0.3883(11) 0.2268(7) 0.8451(2)
O48_5 O 0.4684(13) 0.2465(9) 0.7560(3)
O49_5 O 0.3394(12) 0.0461(8) 0.8434(3)
O50_5 O 0.3877(11) 0.3889(8) 0.8385(3)
O51_5 O 0.5496(10) 0.2889(7) 0.8282(2)
O52_5 O 0.4315(13) 0.1587(9) 0.8021(2)
O53_5 O 0.5143(11) 0.3682(8) 0.8724(2)
O54_5 O 0.2671(15) 0.3451(12) 0.7923(3)
O56_5 O 0.4911(11) 0.1702(8) 0.8741(2)
O57_5 O 0.0714(13) 0.2245(10) 0.8384(4)
O58_5 O 0.2462(12) 0.2921(9) 0.8746(2)
O59_5 O 0.1698(18) 0.4060(15) 0.8667(3)
O60_5 O 0.4545(11) 0.3323(8) 0.8001(2)
O61_5 O 0.2222(13) 0.2032(10) 0.8281(3)
O62_5 O 0.5799(12) 0.4736(8) 0.8318(2)
O63_5 O 0.7293(11) 0.4407(8) 0.9119(2)
O64_5 O 0.6066(12) 0.2300(9) 0.7825(3)
O65_5 O 0.3183(14) 0.5035(10) 0.8314(4)
O66_5 O 0.4635(15) 0.2951(10) 0.9939(3)
N3_5 N 0.3382(15) 0.1617(10) 0.9240(3)
C15_5 C 0.3176(16) 0.2874(12) 0.9137(3)
C16_5 C 0.3044(18) 0.2025(13) 0.9079(3)
H7_5 H 0.2704 0.1709 0.8925
C17_5 C 0.3948(15) 0.2874(10) 0.9530(3)
C18_5 C 0.3800(17) 0.2001(11) 0.9470(3)
H8_5 H 0.3985 0.1677 0.9588
C19_5 C 0.3631(16) 0.3306(11) 0.9367(4)
H9_5 H 0.3727 0.3909 0.9410
C20_5 C 0.4482(16) 0.3364(11) 0.9768(4)
C21_5 C 0.2806(19) 0.3338(13) 0.8962(4)
O67_5 O 0.2820(18) 0.4021(14) 0.9039(4)
H14_3 H 0.812854 0.0604216 0.843467
H15_3 H 0.846102 0.00298304 0.825196
H18_5 H 0.939578 0.752432 0.843467
H19_5 H 0.997017 0.843119 0.825196
H32_5 H 0.360052 0.51871 0.816078
H33_5 H 0.277616 0.530611 0.828921
H34_5 H 0.288998 0.300012 0.789676
H35_5 H 0.211911 0.327339 0.781158
H36_5 H 0.247568 0.187146 0.843467
H37_5 H 0.156881 0.153898 0.825196
H38_5 H 0.0588639 0.197963 0.856226
H39_5 H 0.0301216 0.250091 0.834598
H40_5 H 0.204319 0.474707 0.865504
H41_5 H 0.102976 0.382372 0.8633
O5_5 O 0.6111(8) 0.9989(8) 0.8385(3)
O9_5 O 0.6549(12) 0.9221(9) 0.7923(3)
O12_3 O 0.7755(10) 0.8470(9) 0.8384(4)
O13_3 O 0.7079(9) 0.9542(8) 0.8746(2)
O14_5 O 0.5940(15) 0.7639(10) 0.8667(3)
O21_5 O 0.4965(10) 0.8149(10) 0.8314(4)
H3_5 H 0.6091 0.9819 0.9410
C7_5 C 0.6662(13) 0.9469(14) 0.8962(4)
O23_5 O 0.5979(14) 0.8800(12) 0.9039(4)
H16_3 H 0.699988 0.988986 0.789676
H17_3 H 0.672661 0.884572 0.781158
H20_3 H 0.802037 0.860901 0.856226
H21_3 H 0.749909 0.78003 0.834598
H22_5 H 0.525293 0.729611 0.865504
H23_5 H 0.617628 0.720604 0.8633
H30_5 H 0.48129 0.841342 0.816078
H31_5 H 0.469389 0.747005 0.828921
O5_6 O 0.0011(8) 0.3889(8) 0.3385(3)
O9_6 O 0.0779(9) 0.3451(12) 0.2923(3)
O12_4 O 0.1530(9) 0.2245(10) 0.3384(4)
O13_4 O 0.0458(8) 0.2921(9) 0.3746(2)
O14_6 O 0.2361(10) 0.4060(15) 0.3667(3)
O21_6 O 0.1851(10) 0.5035(10) 0.3314(4)
H3_6 H 0.0181 0.3909 0.4410
C7_6 C 0.0531(14) 0.3338(13) 0.3962(4)
O23_6 O 0.1200(12) 0.4021(14) 0.4039(4)
H16_4 H 0.0110143 0.300012 0.289676
H17_4 H 0.115428 0.327339 0.281158
H20_4 H 0.139099 0.197963 0.356226
H21_4 H 0.21997 0.250091 0.334598
H22_6 H 0.270389 0.474707 0.365504
H23_6 H 0.279396 0.382372 0.3633
H30_6 H 0.158658 0.51871 0.316078
H31_6 H 0.252995 0.530611 0.328921
W1_4 W 0.70903(4) 0.14851(4) 0.339866(13)
W2_6 W 0.88571(4) 0.36122(5) 0.335767(12)
W3_6 W 0.80043(5) 0.40832(5) 0.396310(14)
W4_4 W 0.74824(5) 0.26869(5) 0.285520(15)
O1_6 O 0.8832(10) 0.4607(8) 0.4202(2)
O2_4 O 0.8384(8) 0.2268(7) 0.3451(2)
O3_4 O 0.7780(10) 0.2465(9) 0.2560(3)
O4_4 O 0.7066(9) 0.0461(8) 0.3434(3)
O6_4 O 0.7392(7) 0.2889(7) 0.3282(2)
O7_4 O 0.7271(9) 0.1587(9) 0.3021(2)
O8_6 O 0.8538(8) 0.3682(8) 0.3724(2)
O11_4 O 0.6790(7) 0.1702(8) 0.3741(2)
O15_4 O 0.8777(8) 0.3323(8) 0.3001(2)
O16_4 O 0.9809(9) 0.2032(10) 0.3281(3)
O17_6 O 0.8936(9) 0.4736(8) 0.3318(2)
O18_6 O 0.7113(8) 0.4407(8) 0.4119(2)
O19_10 O 0.6666 0.3334 0.3735(3)
O20_6 O 0.6233(8) 0.2300(9) 0.2825(3)
O22_4 O 0.8315(11) 0.2951(10) 0.4939(3)
N1_4 N 0.8234(11) 0.1617(10) 0.4240(3)
C1_4 C 0.9697(11) 0.2874(12) 0.4137(3)
C2_4 C 0.8980(13) 0.2025(13) 0.4079(3)
H1_4 H 0.9004 0.1709 0.3925
C3_4 C 0.8925(11) 0.2874(10) 0.4530(3)
C4_4 C 0.8200(13) 0.2001(11) 0.4470(3)
H2_4 H 0.7691 0.1677 0.4588
C5_4 C 0.9674(12) 0.3306(11) 0.4367(4)
C6_6 C 0.8881(12) 0.3364(11) 0.4768(4)
W5_6 W 0.43947(6) 0.29097(4) 0.339866(13)
W6_6 W 0.47550(6) 0.11429(4) 0.335767(12)
W7_6 W 0.60788(7) 0.19957(5) 0.396310(14)
W8_6 W 0.52044(7) 0.25176(5) 0.285520(15)
O24_6 O 0.5774(13) 0.1168(10) 0.4202(2)
O25_6 O 0.3883(11) 0.1616(8) 0.3451(2)
O26_6 O 0.4684(13) 0.2220(10) 0.2560(3)
O27_6 O 0.3394(12) 0.2934(9) 0.3434(3)
O29_6 O 0.5496(10) 0.2608(7) 0.3282(2)
O30_6 O 0.4315(13) 0.2729(9) 0.3021(2)
O31_6 O 0.5143(11) 0.1462(8) 0.3724(2)
O34_6 O 0.4911(11) 0.3210(7) 0.3741(2)
O38_6 O 0.4545(11) 0.1223(8) 0.3001(2)
O39_6 O 0.2222(13) 0.0191(9) 0.3281(3)
O40_6 O 0.5799(12) 0.1064(9) 0.3318(2)
O41_4 O 0.7293(11) 0.2887(8) 0.4119(2)
O42_6 O 0.6066(12) 0.3767(8) 0.2825(3)
O44_6 O 0.4635(15) 0.1685(11) 0.4939(3)
N2_6 N 0.3382(15) 0.1766(11) 0.4240(3)
C8_6 C 0.3176(16) 0.0303(11) 0.4137(3)
C9_6 C 0.3044(18) 0.1020(13) 0.4079(3)
H4_6 H 0.2704 0.0996 0.3925
C10_6 C 0.3948(15) 0.1075(11) 0.4530(3)
C11_6 C 0.3800(17) 0.1800(13) 0.4470(3)
H5_6 H 0.3985 0.2309 0.4588
C12_6 C 0.3631(16) 0.0326(12) 0.4367(4)
C13_6 C 0.4482(16) 0.1119(12) 0.4768(4)
W9_6 W 0.85149(4) 0.56053(6) 0.339866(13)
W10_6 W 0.63878(5) 0.52450(6) 0.335767(12)
W11_6 W 0.59168(5) 0.39212(7) 0.396310(14)
W12_6 W 0.73131(5) 0.47956(7) 0.285520(15)
O46_6 O 0.5393(8) 0.4226(13) 0.4202(2)
O47_6 O 0.7732(7) 0.6117(11) 0.3451(2)
O48_6 O 0.7535(9) 0.5316(13) 0.2560(3)
O49_6 O 0.9539(8) 0.6606(12) 0.3434(3)
O50_6 O 0.6111(8) 0.6123(11) 0.3385(3)
O51_6 O 0.7111(7) 0.4504(10) 0.3282(2)
O52_6 O 0.8413(9) 0.5685(13) 0.3021(2)
O53_6 O 0.6318(8) 0.4857(11) 0.3724(2)
O54_6 O 0.6549(12) 0.7329(15) 0.2923(3)
O56_6 O 0.8298(8) 0.5089(11) 0.3741(2)
O57_6 O 0.7755(10) 0.9286(13) 0.3384(4)
O58_6 O 0.7079(9) 0.7538(12) 0.3746(2)
O59_6 O 0.5940(15) 0.8302(18) 0.3667(3)
O60_6 O 0.6677(8) 0.5455(11) 0.3001(2)
O61_6 O 0.7968(10) 0.7778(13) 0.3281(3)
O62_6 O 0.5264(8) 0.4201(12) 0.3318(2)
O63_6 O 0.5593(8) 0.2707(11) 0.4119(2)
O64_6 O 0.7700(9) 0.3934(12) 0.2825(3)
O65_6 O 0.4965(10) 0.6817(14) 0.3314(4)
O66_6 O 0.7049(10) 0.5365(15) 0.4939(3)
N3_6 N 0.8383(10) 0.6618(15) 0.4240(3)
C15_6 C 0.7126(12) 0.6824(16) 0.4137(3)
C16_6 C 0.7975(13) 0.6956(18) 0.4079(3)
H7_6 H 0.8291 0.7296 0.3925
C17_6 C 0.7126(10) 0.6052(15) 0.4530(3)
C18_6 C 0.7999(11) 0.6200(17) 0.4470(3)
H8_6 H 0.8323 0.6015 0.4588
C19_6 C 0.6694(11) 0.6369(16) 0.4367(4)
H9_6 H 0.6091 0.6273 0.4410
C20_6 C 0.6636(11) 0.5518(16) 0.4768(4)
C21_6 C 0.6662(13) 0.7194(19) 0.3962(4)
O67_6 O 0.5979(14) 0.7180(18) 0.4039(4)
H14_4 H 0.939578 0.187146 0.343467
H15_4 H 0.997017 0.153898 0.325196
H18_6 H 0.247568 0.0604216 0.343467
H19_6 H 0.156881 0.00298304 0.325196
H32_6 H 0.48129 0.639948 0.316078
H33_6 H 0.469389 0.722384 0.328921
H34_6 H 0.699988 0.711002 0.289676
H35_6 H 0.672661 0.788089 0.281158
H36_6 H 0.812854 0.752432 0.343467
H37_6 H 0.846102 0.843119 0.325196
H38_6 H 0.802037 0.941136 0.356226
H39_6 H 0.749909 0.969878 0.334598
H40_6 H 0.525293 0.795681 0.365504
H41_6 H 0.617628 0.897024 0.3633
O28_6 O 0.3877(11) 0.9989(8) 0.3385(3)
O32_6 O 0.2671(15) 0.9221(9) 0.2923(3)
O35_6 O 0.0714(13) 0.8470(9) 0.3384(4)
O36_6 O 0.2462(12) 0.9542(8) 0.3746(2)
O37_6 O 0.1698(18) 0.7639(10) 0.3667(3)
O43_6 O 0.3183(14) 0.8149(10) 0.3314(4)
H6_6 H 0.3727 0.9819 0.4410
C14_6 C 0.2806(19) 0.9469(14) 0.3962(4)
O45_6 O 0.2820(18) 0.8800(12) 0.4039(4)
H24_6 H 0.288998 0.988986 0.289676
H25_6 H 0.211911 0.884572 0.281158
H26_6 H 0.0588639 0.860901 0.356226
H27_6 H 0.0301216 0.78003 0.334598
H28_6 H 0.204319 0.729611 0.365504
H29_6 H 0.102976 0.720604 0.3633
H42_6 H 0.360052 0.841342 0.316078
H43_6 H 0.277616 0.747005 0.328921
W1_5 W 0.18483(4) 0.95763(4) 0.506532(13)
W4_5 W 0.06465(5) 0.91842(5) 0.452186(15)
O2_5 O 0.1066(7) 0.8282(8) 0.5117(2)
O3_5 O 0.0869(9) 0.8886(10) 0.4226(3)
O4_5 O 0.2873(8) 0.9600(9) 0.5100(3)
O6_5 O 0.0445(7) 0.9274(7) 0.4948(2)
O7_5 O 0.1747(9) 0.9395(9) 0.4687(2)
O11_5 O 0.1632(8) 0.9876(7) 0.5407(2)
O12_5 O 0.1089(10) 0.5136(9) 0.5050(4)
O13_5 O 0.0413(9) 0.6208(8) 0.5412(2)
O15_5 O 0.0011(8) 0.7889(8) 0.4667(2)
O16_5 O 0.1302(10) 0.6857(9) 0.4947(3)
O19_11 O -0.0000 1.0000 0.5401(3)
O22_5 O 0.0383(10) 0.8351(11) 0.6605(3)
N1_5 N 0.1717(10) 0.8432(11) 0.5906(3)
C1_5 C 0.0460(12) 0.6969(11) 0.5803(3)
C2_5 C 0.1309(13) 0.7686(13) 0.5745(3)
H1_5 H 0.1625 0.7662 0.5591
C3_5 C 0.0460(10) 0.7741(11) 0.6196(3)
C4_5 C 0.1333(11) 0.8466(13) 0.6136(3)
H2_5 H 0.1657 0.8975 0.6254
C5_5 C 0.0028(11) 0.6992(12) 0.6033(4)
O41_5 O 0.0447(8) 0.9373(11) 0.5785(2)
H14_5 H 0.146187 0.727088 0.510133
H15_5 H 0.179436 0.66965 0.491863
H16_5 H 0.0333209 0.655652 0.456343
H17_5 H 0.00599391 0.551238 0.447825
H20_5 H 0.135371 0.527568 0.522893
H21_5 H 0.0832418 0.446697 0.501265
W1_6 W 0.04237(4) 0.81517(4) 0.006532(13)
O2_6 O 0.1718(8) 0.8934(7) 0.0117(2)
O4_6 O 0.0400(9) 0.7127(8) 0.0100(3)
O11_6 O 0.0124(7) 0.8368(8) 0.0407(2)
O12_6 O 0.4864(9) 0.8911(10) 0.0050(4)
O13_6 O 0.3792(8) 0.9587(9) 0.0412(2)
O19_12 O -0.0000 1.0000 0.0401(3)
O22_6 O 0.1649(11) 0.9617(10) 0.1605(3)
N1_6 N 0.1568(11) 0.8283(10) 0.0906(3)
C1_6 C 0.3031(11) 0.9540(12) 0.0803(3)
C2_6 C 0.2314(13) 0.8691(13) 0.0745(3)
H1_6 H 0.2338 0.8375 0.0591
C3_6 C 0.2259(11) 0.9540(10) 0.1196(3)
C4_6 C 0.1534(13) 0.8667(11) 0.1136(3)
H2_6 H 0.1025 0.8343 0.1254
C5_6 C 0.3008(12) 0.9972(11) 0.1033(4)
O41_6 O 0.0627(11) 0.9553(8) 0.0785(2)
H14_6 H 0.272912 0.853813 0.0101333
H20_6 H 0.472432 0.864629 0.0228932
H21_6 H 0.553303 0.916758 0.0012645
W4_6 W 0.08158(5) 0.93535(5) 0.952186(15)
O3_6 O 0.1114(10) 0.9131(9) 0.9226(3)
O6_6 O 0.0726(7) 0.9555(7) 0.9948(2)
O7_6 O 0.0605(9) 0.8253(9) 0.9687(2)
O15_6 O 0.2111(8) 0.9989(8) 0.9667(2)
O16_6 O 0.3143(9) 0.8698(10) 0.9947(3)
H15_6 H 0.33035 0.820564 0.991863
H16_6 H 0.344348 0.966679 0.956343
H17_6 H 0.448762 0.994006 0.947825
N4 N 0.6730(12) 0.6485(12) 0.2419(3)
H10 H 0.6187 0.6187 0.2311
H11 H 0.6767 0.6028 0.2525
H12 H 0.7272 0.6794 0.2312
H13 H 0.6692 0.6930 0.2530
N4_2 N 0.3515(12) 0.0245(17) 0.2419(3)
H10_2 H 0.3813 0.0000 0.2311
H11_2 H 0.3972 0.0739 0.2525
H12_2 H 0.3206 0.0478 0.2312
H10_3 H 0.3813 1.0000 0.2311
H13_2 H 0.3070 0.9762 0.2530
H10_4 H -0.0000 0.3813 0.2311
H13_3 H 0.0238 0.3308 0.2530
N4_3 N 0.9755(17) 0.3270(12) 0.2419(3)
H10_5 H 1.0000 0.3813 0.2311
H11_3 H 0.9261 0.3233 0.2525
H12_3 H 0.9522 0.2728 0.2312
N4_4 N 0.3515(12) 0.3270(12) 0.7419(3)
H10_6 H 0.3813 0.3813 0.7311
H11_4 H 0.3972 0.3233 0.7525
H12_4 H 0.3206 0.2728 0.7312
H13_4 H 0.3070 0.3308 0.7530
H10_7 H -0.0000 0.6187 0.7311
H13_5 H 0.0238 0.6930 0.7530
N4_5 N 0.9755(17) 0.6485(12) 0.7419(3)
H10_8 H 1.0000 0.6187 0.7311
H11_5 H 0.9261 0.6028 0.7525
H12_5 H 0.9522 0.6794 0.7312
N4_6 N 0.6730(12) 0.0245(17) 0.7419(3)
H10_9 H 0.6187 0.0000 0.7311
H11_6 H 0.6767 0.0739 0.7525
H12_6 H 0.7272 0.0478 0.7312
H10_10 H 0.6187 1.0000 0.7311
H13_6 H 0.6692 0.9762 0.7530
H12_7 H 0.3939 0.0127 0.5645
H13_7 H 0.3359 0.0263 0.5863
N4_7 N 0.3397(12) 0.9818(12) 0.5752(3)
H10_11 H 0.2854 0.9520 0.5644
H11_7 H 0.3434 0.9361 0.5858
N4_8 N 0.0182(12) 0.3578(17) 0.5752(3)
H10_12 H 0.0480 0.3333 0.5644
H11_8 H 0.0639 0.4072 0.5858
H12_8 H 0.9873 0.3811 0.5645
H13_8 H 0.9737 0.3095 0.5863
N4_9 N 0.6422(17) 0.6603(12) 0.5752(3)
H10_13 H 0.6667 0.7146 0.5644
H11_9 H 0.5928 0.6566 0.5858
H12_9 H 0.6189 0.6061 0.5645
H13_9 H 0.6905 0.6641 0.5863
N4_10 N 0.0182(12) 0.6603(12) 0.0752(3)
H10_14 H 0.0480 0.7146 0.0644
H11_10 H 0.0639 0.6566 0.0858
H12_10 H 0.9873 0.6061 0.0645
H13_10 H 0.9737 0.6641 0.0863
H12_11 H 0.6189 0.0127 0.0645
H13_11 H 0.6905 0.0263 0.0863
N4_11 N 0.6422(17) 0.9818(12) 0.0752(3)
H10_15 H 0.6667 0.9520 0.0644
H11_11 H 0.5928 0.9361 0.0858
N4_12 N 0.3397(12) 0.3578(17) 0.0752(3)
H10_16 H 0.2854 0.3333 0.0644
H11_12 H 0.3434 0.4072 0.0858
H12_12 H 0.3939 0.3811 0.0645
H13_12 H 0.3359 0.3095 0.0863
N4_13 N 0.0063(12) 0.3152(12) 0.9086(3)
H11_13 H 0.0100 0.2695 0.9192
H12_13 H 0.0605 0.3461 0.8979
H13_13 H 0.0025 0.3597 0.9197
H10_17 H 0.9520 0.2854 0.8978
N4_14 N 0.6848(12) 0.6912(17) 0.9086(3)
H10_18 H 0.7146 0.6667 0.8978
H11_14 H 0.7305 0.7406 0.9192
H12_14 H 0.6539 0.7145 0.8979
H13_14 H 0.6403 0.6429 0.9197
H10_19 H 0.3333 0.0480 0.8978
N4_15 N 0.3088(17) 0.9937(12) 0.9086(3)
H11_15 H 0.2594 0.9900 0.9192
H12_15 H 0.2855 0.9395 0.8979
H13_15 H 0.3571 0.9975 0.9197
H10_20 H 0.7146 0.0480 0.3978
N4_16 N 0.6848(12) 0.9937(12) 0.4086(3)
H11_16 H 0.7305 0.9900 0.4192
H12_16 H 0.6539 0.9395 0.3979
H13_16 H 0.6403 0.9975 0.4197
N4_17 N 0.3088(17) 0.3152(12) 0.4086(3)
H10_21 H 0.3333 0.2854 0.3978
H11_17 H 0.2594 0.2695 0.4192
H12_17 H 0.2855 0.3461 0.3979
H13_17 H 0.3571 0.3597 0.4197
N4_18 N 0.0063(12) 0.6912(17) 0.4086(3)
H11_18 H 0.0100 0.7406 0.4192
H12_18 H 0.0605 0.7145 0.3979
H13_18 H 0.0025 0.6429 0.4197
H10_22 H 0.9520 0.6667 0.3978
loop_
_geom_bond_atom_site_label_1
_geom_bond_atom_site_label_2
_geom_bond_site_symmetry_1
_geom_bond_site_symmetry_2
O32 Tm2 1_555 1_555
O35 Tm2 1_555 1_555
O36 Tm2 1_555 1_555
O37 Tm2 1_555 1_555
O39 Tm2 1_555 1_555
O43 Tm2 1_555 1_555
C8 C9 1_555 1_555
C9 H4 1_555 1_555
C14 O36 1_555 1_555
O45 C14 1_555 1_555
O70 Tm2 1_555 1_555
C8 C14 1_555 1_555
O39 H18 1_555 1_555
O39 H19 1_555 1_555
O32 H24 1_555 1_555
O32 H25 1_555 1_555
O35 H26 1_555 1_555
O35 H27 1_555 1_555
O37 H28 1_555 1_555
O37 H29 1_555 1_555
O43 H43 1_555 1_555
W1 O2 1_555 1_555
W2 O2 1_555 1_555
W3 O1 1_555 1_555
W4 O3 1_555 1_555
Tm1 O5 1_555 1_555
O4 W1 1_555 1_555
O5 W2 1_555 1_555
O6 W1 1_555 1_555
O7 W1 1_555 1_555
O8 W2 1_555 1_555
O9 Tm1 1_555 1_555
O10 C6 1_555 1_555
O11 W1 1_555 1_555
O12 Tm1 1_555 1_555
O13 Tm1 1_555 1_555
O14 Tm1 1_555 1_555
O15 W2 1_555 1_555
O16 Tm1 1_555 1_555
O17 W2 1_555 1_555
O18 W3 1_555 1_555
O19 W3 1_555 1_555
O20 W4 1_555 1_555
O21 Tm1 1_555 1_555
O22 C6 1_555 1_555
N1 C2 1_555 1_555
C1 C2 1_555 1_555
C2 H1 1_555 1_555
C3 C4 1_555 1_555
C4 N1 1_555 1_555
H2 C4 1_555 1_555
C5 C1 1_555 1_555
H3 C5 1_555 1_555
C6 C3 1_555 1_555
C7 O13 1_555 1_555
O23 C7 1_555 1_555
W5 O25 1_555 1_555
W6 O25 1_555 1_555
W7 O11 1_555 1_555
W8 O20 1_555 1_555
O24 W7 1_555 1_555
O26 W8 1_555 1_555
O27 W5 1_555 1_555
O28 W6 1_555 1_555
O29 W5 1_555 1_555
O30 W5 1_555 1_555
O31 W6 1_555 1_555
O33 C13 1_555 1_555
O34 W5 1_555 1_555
O38 W6 1_555 1_555
O40 W1 1_555 1_555
O41 W3 1_555 1_555
O42 W8 1_555 1_555
O44 C13 1_555 1_555
C10 C11 1_555 1_555
C11 N2 1_555 1_555
H5 C11 1_555 1_555
H6 C12 1_555 1_555
C13 C10 1_555 1_555
W9 O17 1_555 1_555
W10 O47 1_555 1_555
W11 O18 1_555 1_555
W12 O42 1_555 1_555
O46 W11 1_555 1_555
O47 W9 1_555 1_555
O48 W12 1_555 1_555
O49 W9 1_555 1_555
O50 W10 1_555 1_555
O51 W9 1_555 1_555
O52 W9 1_555 1_555
O53 W10 1_555 1_555
O55 C20 1_555 1_555
O56 W3 1_555 1_555
O60 W10 1_555 1_555
O62 W5 1_555 1_555
O63 W7 1_555 1_555
O64 W4 1_555 1_555
O66 C20 1_555 1_555
C17 C18 1_555 1_555
C18 N3 1_555 1_555
H8 C18 1_555 1_555
H9 C19 1_555 1_555
C20 C17 1_555 1_555
Tm4 O10 1_555 1_555
Tm5 O55 1_555 1_555
Tm6 O33 1_555 1_555
O68 Tm1 1_555 1_555
W2 O6 1_555 1_555
W3 O8 1_555 1_555
W4 O6 1_555 1_555
W4 O7 1_555 1_555
W4 O15 1_555 1_555
O19 W7 1_555 1_555
O19 W11 1_555 1_555
C1 C7 1_555 1_555
C3 C5 1_555 1_555
W6 O29 1_555 1_555
W6 O40 1_555 1_555
W7 O31 1_555 1_555
W7 O41 1_555 1_555
W8 O29 1_555 1_555
W8 O30 1_555 1_555
W8 O38 1_555 1_555
O34 W11 1_555 1_555
C10 C12 1_555 1_555
W9 O56 1_555 1_555
W10 O51 1_555 1_555
W10 O62 1_555 1_555
W11 O53 1_555 1_555
W11 O63 1_555 1_555
W12 O51 1_555 1_555
W12 O52 1_555 1_555
W12 O60 1_555 1_555
W12 O64 1_555 1_555
C17 C19 1_555 1_555
O16 H14 1_555 1_555
O16 H15 1_555 1_555
O9 H16 1_555 1_555
O9 H17 1_555 1_555
O12 H20 1_555 1_555
O12 H21 1_555 1_555
O14 H22 1_555 1_555
O14 H23 1_555 1_555
O21 H30 1_555 1_555
O21 H31 1_555 1_555
O54 Tm3 1_555 1_555
O57 Tm3 1_555 1_555
O58 Tm3 1_555 1_555
O59 Tm3 1_555 1_555
O61 Tm3 1_555 1_555
O65 Tm3 1_555 1_555
C15 C16 1_555 1_555
C16 H7 1_555 1_555
C21 O58 1_555 1_555
O67 C21 1_555 1_555
O69 Tm3 1_555 1_555
C15 C21 1_555 1_555
O65 H33 1_555 1_555
O54 H34 1_555 1_555
O54 H35 1_555 1_555
O61 H36 1_555 1_555
O61 H37 1_555 1_555
O57 H38 1_555 1_555
O57 H39 1_555 1_555
O59 H40 1_555 1_555
O59 H41 1_555 1_555
O54_2 Tm3_2 1_555 1_555
O57_2 Tm3_2 1_555 1_555
O58_2 Tm3_2 1_555 1_555
O59_2 Tm3_2 1_555 1_555
O61_2 Tm3_2 1_555 1_555
O65_2 Tm3_2 1_555 1_555
C15_2 C16_2 1_555 1_555
C16_2 H7_2 1_555 1_555
C21_2 O58_2 1_555 1_555
O67_2 C21_2 1_555 1_555
O69_2 Tm3_2 1_555 1_555
C15_2 C21_2 1_555 1_555
O65_2 H33_2 1_555 1_555
O54_2 H34_2 1_555 1_555
O54_2 H35_2 1_555 1_555
O61_2 H36_2 1_555 1_555
O61_2 H37_2 1_555 1_555
O57_2 H38_2 1_555 1_555
O57_2 H39_2 1_555 1_555
O59_2 H40_2 1_555 1_555
O59_2 H41_2 1_555 1_555
W1_2 O2_2 1_555 1_555
W2_2 O2_2 1_555 1_555
W3_2 O1_2 1_555 1_555
W4_2 O3_2 1_555 1_555
Tm1_2 O5_2 1_555 1_555
O4_2 W1_2 1_555 1_555
O5_2 W2_2 1_555 1_555
O6_2 W1_2 1_555 1_555
O7_2 W1_2 1_555 1_555
O8_2 W2_2 1_555 1_555
O9_2 Tm1_2 1_555 1_555
O10_2 C6_2 1_555 1_555
O11_2 W1_2 1_555 1_555
O12_2 Tm1_2 1_555 1_555
O13_2 Tm1_2 1_555 1_555
O14_2 Tm1_2 1_555 1_555
O15_2 W2_2 1_555 1_555
O16_2 Tm1_2 1_555 1_555
O17_2 W2_2 1_555 1_555
O18_2 W3_2 1_555 1_555
O19_2 W3_2 1_555 1_555
O20_2 W4_2 1_555 1_555
O21_2 Tm1_2 1_555 1_555
O22_2 C6_2 1_555 1_555
N1_2 C2_2 1_555 1_555
C1_2 C2_2 1_555 1_555
C2_2 H1_2 1_555 1_555
C3_2 C4_2 1_555 1_555
C4_2 N1_2 1_555 1_555
H2_2 C4_2 1_555 1_555
C5_2 C1_2 1_555 1_555
H3_2 C5_2 1_555 1_555
C6_2 C3_2 1_555 1_555
C7_2 O13_2 1_555 1_555
O23_2 C7_2 1_555 1_555
W5_2 O25_2 1_555 1_555
W6_2 O25_2 1_555 1_555
W7_2 O11_2 1_555 1_555
W8_2 O20_2 1_555 1_555
O24_2 W7_2 1_555 1_555
O26_2 W8_2 1_555 1_555
O27_2 W5_2 1_555 1_555
O28_2 W6_2 1_555 1_555
O29_2 W5_2 1_555 1_555
O30_2 W5_2 1_555 1_555
O31_2 W6_2 1_555 1_555
O33_2 C13_2 1_555 1_555
O34_2 W5_2 1_555 1_555
O38_2 W6_2 1_555 1_555
O40_2 W1_2 1_555 1_555
O41_2 W3_2 1_555 1_555
O42_2 W8_2 1_555 1_555
O44_2 C13_2 1_555 1_555
C10_2 C11_2 1_555 1_555
C11_2 N2_2 1_555 1_555
H5_2 C11_2 1_555 1_555
H6_2 C12_2 1_555 1_555
C13_2 C10_2 1_555 1_555
W9_2 O17_2 1_555 1_555
W10_2 O47_2 1_555 1_555
W11_2 O18_2 1_555 1_555
W12_2 O42_2 1_555 1_555
O46_2 W11_2 1_555 1_555
O47_2 W9_2 1_555 1_555
O48_2 W12_2 1_555 1_555
O49_2 W9_2 1_555 1_555
O50_2 W10_2 1_555 1_555
O51_2 W9_2 1_555 1_555
O52_2 W9_2 1_555 1_555
O53_2 W10_2 1_555 1_555
O55_2 C20_2 1_555 1_555
O56_2 W3_2 1_555 1_555
O60_2 W10_2 1_555 1_555
O62_2 W5_2 1_555 1_555
O63_2 W7_2 1_555 1_555
O64_2 W4_2 1_555 1_555
O66_2 C20_2 1_555 1_555
C17_2 C18_2 1_555 1_555
C18_2 N3_2 1_555 1_555
H8_2 C18_2 1_555 1_555
H9_2 C19_2 1_555 1_555
C20_2 C17_2 1_555 1_555
Tm4_2 O10_2 1_555 1_555
Tm5_2 O55_2 1_555 1_555
Tm6_2 O33_2 1_555 1_555
O68_2 Tm1_2 1_555 1_555
W2_2 O6_2 1_555 1_555
W3_2 O8_2 1_555 1_555
W4_2 O6_2 1_555 1_555
W4_2 O7_2 1_555 1_555
W4_2 O15_2 1_555 1_555
O19_2 W7_2 1_555 1_555
O19_2 W11_2 1_555 1_555
C1_2 C7_2 1_555 1_555
C3_2 C5_2 1_555 1_555
W6_2 O29_2 1_555 1_555
W6_2 O40_2 1_555 1_555
W7_2 O31_2 1_555 1_555
W7_2 O41_2 1_555 1_555
W8_2 O29_2 1_555 1_555
W8_2 O30_2 1_555 1_555
W8_2 O38_2 1_555 1_555
O34_2 W11_2 1_555 1_555
C10_2 C12_2 1_555 1_555
W9_2 O56_2 1_555 1_555
W10_2 O51_2 1_555 1_555
W10_2 O62_2 1_555 1_555
W11_2 O53_2 1_555 1_555
W11_2 O63_2 1_555 1_555
W12_2 O51_2 1_555 1_555
W12_2 O52_2 1_555 1_555
W12_2 O60_2 1_555 1_555
W12_2 O64_2 1_555 1_555
C17_2 C19_2 1_555 1_555
O16_2 H14_2 1_555 1_555
O16_2 H15_2 1_555 1_555
O9_2 H16_2 1_555 1_555
O9_2 H17_2 1_555 1_555
O12_2 H20_2 1_555 1_555
O12_2 H21_2 1_555 1_555
O14_2 H22_2 1_555 1_555
O14_2 H23_2 1_555 1_555
O21_2 H30_2 1_555 1_555
O21_2 H31_2 1_555 1_555
O32_2 Tm2_2 1_555 1_555
O35_2 Tm2_2 1_555 1_555
O36_2 Tm2_2 1_555 1_555
O37_2 Tm2_2 1_555 1_555
O39_2 Tm2_2 1_555 1_555
O43_2 Tm2_2 1_555 1_555
C8_2 C9_2 1_555 1_555
C9_2 H4_2 1_555 1_555
C14_2 O36_2 1_555 1_555
O45_2 C14_2 1_555 1_555
O70_2 Tm2_2 1_555 1_555
C8_2 C14_2 1_555 1_555
O39_2 H18_2 1_555 1_555
O39_2 H19_2 1_555 1_555
O32_2 H24_2 1_555 1_555
O32_2 H25_2 1_555 1_555
O35_2 H26_2 1_555 1_555
O35_2 H27_2 1_555 1_555
O37_2 H28_2 1_555 1_555
O37_2 H29_2 1_555 1_555
O43_2 H43_2 1_555 1_555
W5_3 O25_3 1_555 1_555
W6_3 O25_3 1_555 1_555
W8_3 O20_3 1_555 1_555
Tm2_3 O28_3 1_555 1_555
O24_3 W7_3 1_555 1_555
O26_3 W8_3 1_555 1_555
O27_3 W5_3 1_555 1_555
O28_3 W6_3 1_555 1_555
O29_3 W5_3 1_555 1_555
O30_3 W5_3 1_555 1_555
O31_3 W6_3 1_555 1_555
O32_3 Tm2_3 1_555 1_555
O69_2 C13_3 1_555 1_555
O34_3 W5_3 1_555 1_555
O35_3 Tm2_3 1_555 1_555
O36_3 Tm2_3 1_555 1_555
O37_3 Tm2_3 1_555 1_555
O38_3 W6_3 1_555 1_555
O39_3 Tm2_3 1_555 1_555
O43_3 Tm2_3 1_555 1_555
O44_3 C13_3 1_555 1_555
N2_3 C9_3 1_555 1_555
C8_3 C9_3 1_555 1_555
C9_3 H4_3 1_555 1_555
C10_3 C11_3 1_555 1_555
C11_3 N2_3 1_555 1_555
H5_3 C11_3 1_555 1_555
C12_3 C8_3 1_555 1_555
H6_3 C12_3 1_555 1_555
C13_3 C10_3 1_555 1_555
C14_3 O36_3 1_555 1_555
O45_3 C14_3 1_555 1_555
O63_3 W7_3 1_555 1_555
O70_3 Tm2_3 1_555 1_555
O19_3 W7_3 1_555 1_555
W6_3 O29_3 1_555 1_555
W6_3 O40_3 1_555 1_555
W7_3 O31_3 1_555 1_555
W8_3 O29_3 1_555 1_555
W8_3 O30_3 1_555 1_555
W8_3 O38_3 1_555 1_555
C8_3 C14_3 1_555 1_555
C10_3 C12_3 1_555 1_555
O39_3 H18_3 1_555 1_555
O39_3 H19_3 1_555 1_555
O32_3 H24_3 1_555 1_555
O32_3 H25_3 1_555 1_555
O35_3 H26_3 1_555 1_555
O35_3 H27_3 1_555 1_555
O37_3 H28_3 1_555 1_555
O37_3 H29_3 1_555 1_555
O43_3 H42_3 1_555 1_555
O43_3 H43_3 1_555 1_555
Tm3_3 O50_3 1_555 1_555
O46_3 W11_3 1_555 1_555
O50_3 W10_3 1_555 1_555
O53_3 W10_3 1_555 1_555
O54_3 Tm3_3 1_555 1_555
O70_2 C20_3 1_555 1_555
O59_3 Tm3_3 1_555 1_555
O65_3 Tm3_3 1_555 1_555
O67_3 C21_3 1_555 1_555
O69_3 Tm3_3 1_555 1_555
O19_4 W11_3 1_555 1_555
W10_3 O62_3 1_555 1_555
W11_3 O53_3 1_555 1_555
O65_3 H32_3 1_555 1_555
O65_3 H33_3 1_555 1_555
O59_3 H40_3 1_555 1_555
O59_3 H41_3 1_555 1_555
W3_3 O1_3 1_555 1_555
Tm1_3 O5_3 1_555 1_555
O5_3 W2_3 1_555 1_555
O8_3 W2_3 1_555 1_555
O9_3 Tm1_3 1_555 1_555
O68_2 C6_3 1_555 1_555
O14_3 Tm1_3 1_555 1_555
O17_3 W2_3 1_555 1_555
O18_3 W3_3 1_555 1_555
O19_5 W3_3 1_555 1_555
O21_3 Tm1_3 1_555 1_555
O23_3 C7_3 1_555 1_555
W9_3 O17_3 1_555 1_555
O47_3 W9_3 1_555 1_555
O48_3 W12_3 1_555 1_555
O49_3 W9_3 1_555 1_555
O51_3 W9_3 1_555 1_555
O52_3 W9_3 1_555 1_555
O56_3 W3_3 1_555 1_555
N3_3 C16_3 1_555 1_555
C15_3 C16_3 1_555 1_555
C16_3 H7_3 1_555 1_555
C17_3 C18_3 1_555 1_555
C18_3 N3_3 1_555 1_555
H8_3 C18_3 1_555 1_555
C19_3 C15_3 1_555 1_555
O68_3 Tm1_3 1_555 1_555
W3_3 O8_3 1_555 1_555
W9_3 O56_3 1_555 1_555
W12_3 O51_3 1_555 1_555
W12_3 O52_3 1_555 1_555
W12_3 O60_3 1_555 1_555
W12_3 O64_3 1_555 1_555
C17_3 C19_3 1_555 1_555
O14_3 H22_3 1_555 1_555
O14_3 H23_3 1_555 1_555
O21_3 H30_3 1_555 1_555
O21_3 H31_3 1_555 1_555
O61_3 H36_3 1_555 1_555
O61_3 H37_3 1_555 1_555
O57_3 H38_3 1_555 1_555
O57_3 H39_3 1_555 1_555
W3_4 O1_4 1_555 1_555
Tm1_4 O5_4 1_555 1_555
O5_4 W2_4 1_555 1_555
O8_4 W2_4 1_555 1_555
O68 C6_4 1_555 1_555
O14_4 Tm1_4 1_555 1_555
O18_4 W3_4 1_555 1_555
O19_6 W3_4 1_555 1_555
O23_4 C7_4 1_555 1_555
O47_4 W9_4 1_555 1_555
O49_4 W9_4 1_555 1_555
O56_4 W3_4 1_555 1_555
N3_4 C16_4 1_555 1_555
C15_4 C16_4 1_555 1_555
C16_4 H7_4 1_555 1_555
C17_4 C18_4 1_555 1_555
C18_4 N3_4 1_555 1_555
H8_4 C18_4 1_555 1_555
C19_4 C15_4 1_555 1_555
W3_4 O8_4 1_555 1_555
W9_4 O56_4 1_555 1_555
C17_4 C19_4 1_555 1_555
O14_4 H22_4 1_555 1_555
O14_4 H23_4 1_555 1_555
O57_4 H38_4 1_555 1_555
O57_4 H39_4 1_555 1_555
O48_4 W12_4 1_555 1_555
W12_4 O51_4 1_555 1_555
W12_4 O52_4 1_555 1_555
W12_4 O60_4 1_555 1_555
W12_4 O64_4 1_555 1_555
O21_4 H30_4 1_555 1_555
O21_4 H31_4 1_555 1_555
O61_4 H37_4 1_555 1_555
Tm3_4 O50_4 1_555 1_555
O46_4 W11_4 1_555 1_555
O50_4 W10_4 1_555 1_555
O53_4 W10_4 1_555 1_555
O70 C20_4 1_555 1_555
O59_4 Tm3_4 1_555 1_555
O67_4 C21_4 1_555 1_555
O19_7 W11_4 1_555 1_555
W11_4 O53_4 1_555 1_555
O59_4 H40_4 1_555 1_555
O59_4 H41_4 1_555 1_555
O65_4 H32_4 1_555 1_555
O65_4 H33_4 1_555 1_555
W5_4 O25_4 1_555 1_555
W6_4 O25_4 1_555 1_555
Tm2_4 O28_4 1_555 1_555
O24_4 W7_4 1_555 1_555
O27_4 W5_4 1_555 1_555
O28_4 W6_4 1_555 1_555
O31_4 W6_4 1_555 1_555
O69 C13_4 1_555 1_555
O34_4 W5_4 1_555 1_555
O35_4 Tm2_4 1_555 1_555
O36_4 Tm2_4 1_555 1_555
O37_4 Tm2_4 1_555 1_555
O44_4 C13_4 1_555 1_555
N2_4 C9_4 1_555 1_555
C8_4 C9_4 1_555 1_555
C9_4 H4_4 1_555 1_555
C10_4 C11_4 1_555 1_555
C11_4 N2_4 1_555 1_555
H5_4 C11_4 1_555 1_555
C12_4 C8_4 1_555 1_555
H6_4 C12_4 1_555 1_555
C13_4 C10_4 1_555 1_555
C14_4 O36_4 1_555 1_555
O45_4 C14_4 1_555 1_555
O63_4 W7_4 1_555 1_555
O19_8 W7_4 1_555 1_555
W7_4 O31_4 1_555 1_555
C8_4 C14_4 1_555 1_555
C10_4 C12_4 1_555 1_555
O35_4 H26_4 1_555 1_555
O35_4 H27_4 1_555 1_555
O37_4 H28_4 1_555 1_555
O37_4 H29_4 1_555 1_555
W8_4 O20_4 1_555 1_555
O26_4 W8_4 1_555 1_555
W8_4 O29_4 1_555 1_555
W8_4 O30_4 1_555 1_555
W8_4 O38_4 1_555 1_555
O39_4 H19_4 1_555 1_555
O32_4 H24_4 1_555 1_555
O32_4 H25_4 1_555 1_555
O43_4 H42_4 1_555 1_555
O43_4 H43_4 1_555 1_555
Tm5_2 O28_5 1_555 1_555
O32_5 Tm5_2 1_555 1_555
O35_5 Tm5_2 1_555 1_555
O36_5 Tm5_2 1_555 1_555
O37_5 Tm5_2 1_555 1_555
O43_5 Tm5_2 1_555 1_555
C14_5 O36_5 1_555 1_555
O45_5 C14_5 1_555 1_555
O32_5 H24_5 1_555 1_555
O32_5 H25_5 1_555 1_555
O35_5 H26_5 1_555 1_555
O35_5 H27_5 1_555 1_555
O37_5 H28_5 1_555 1_555
O37_5 H29_5 1_555 1_555
O43_5 H42_5 1_555 1_555
O43_5 H43_5 1_555 1_555
W1_3 O2_3 1_555 1_555
W2_5 O2_3 1_555 1_555
W3_5 O1_5 1_555 1_555
W4_3 O3_3 1_555 1_555
O4_3 W1_3 1_555 1_555
O6_3 W1_3 1_555 1_555
O7_3 W1_3 1_555 1_555
O8_5 W2_5 1_555 1_555
O68_4 C6_5 1_555 1_555
O11_3 W1_3 1_555 1_555
O15_3 W2_5 1_555 1_555
O17_5 W2_5 1_555 1_555
O18_5 W3_5 1_555 1_555
O19_9 W3_5 1_555 1_555
O20_5 W4_3 1_555 1_555
O22_3 C6_5 1_555 1_555
N1_3 C2_3 1_555 1_555
C1_3 C2_3 1_555 1_555
C2_3 H1_3 1_555 1_555
C3_3 C4_3 1_555 1_555
C4_3 N1_3 1_555 1_555
H2_3 C4_3 1_555 1_555
C5_3 C1_3 1_555 1_555
C6_5 C3_3 1_555 1_555
W5_5 O25_5 1_555 1_555
W6_5 O25_5 1_555 1_555
W7_5 O11_3 1_555 1_555
W8_5 O20_5 1_555 1_555
O24_5 W7_5 1_555 1_555
O26_5 W8_5 1_555 1_555
O27_5 W5_5 1_555 1_555
O29_5 W5_5 1_555 1_555
O30_5 W5_5 1_555 1_555
O31_5 W6_5 1_555 1_555
O69_4 C13_5 1_555 1_555
O34_5 W5_5 1_555 1_555
O38_5 W6_5 1_555 1_555
O40_5 W1_3 1_555 1_555
O41_3 W3_5 1_555 1_555
O42_5 W8_5 1_555 1_555
O44_5 C13_5 1_555 1_555
N2_5 C9_5 1_555 1_555
C8_5 C9_5 1_555 1_555
C9_5 H4_5 1_555 1_555
C10_5 C11_5 1_555 1_555
C11_5 N2_5 1_555 1_555
H5_5 C11_5 1_555 1_555
C12_5 C8_5 1_555 1_555
C13_5 C10_5 1_555 1_555
W9_5 O17_5 1_555 1_555
W10_5 O47_5 1_555 1_555
W11_5 O18_5 1_555 1_555
W12_5 O42_5 1_555 1_555
Tm6_2 O50_5 1_555 1_555
O46_5 W11_5 1_555 1_555
O47_5 W9_5 1_555 1_555
O48_5 W12_5 1_555 1_555
O49_5 W9_5 1_555 1_555
O50_5 W10_5 1_555 1_555
O51_5 W9_5 1_555 1_555
O52_5 W9_5 1_555 1_555
O53_5 W10_5 1_555 1_555
O54_5 Tm6_2 1_555 1_555
O70_4 C20_5 1_555 1_555
O56_5 W3_5 1_555 1_555
O57_5 Tm6_2 1_555 1_555
O58_5 Tm6_2 1_555 1_555
O59_5 Tm6_2 1_555 1_555
O60_5 W10_5 1_555 1_555
O61_5 Tm6_2 1_555 1_555
O62_5 W5_5 1_555 1_555
O63_5 W7_5 1_555 1_555
O64_5 W4_3 1_555 1_555
O65_5 Tm6_2 1_555 1_555
O66_5 C20_5 1_555 1_555
N3_5 C16_5 1_555 1_555
C15_5 C16_5 1_555 1_555
C16_5 H7_5 1_555 1_555
C17_5 C18_5 1_555 1_555
C18_5 N3_5 1_555 1_555
H8_5 C18_5 1_555 1_555
C19_5 C15_5 1_555 1_555
H9_5 C19_5 1_555 1_555
C20_5 C17_5 1_555 1_555
C21_5 O58_5 1_555 1_555
O67_5 C21_5 1_555 1_555
W2_5 O6_3 1_555 1_555
W3_5 O8_5 1_555 1_555
W4_3 O6_3 1_555 1_555
W4_3 O7_3 1_555 1_555
W4_3 O15_3 1_555 1_555
O19_9 W7_5 1_555 1_555
O19_9 W11_5 1_555 1_555
C3_3 C5_3 1_555 1_555
W6_5 O29_5 1_555 1_555
W6_5 O40_5 1_555 1_555
W7_5 O31_5 1_555 1_555
W7_5 O41_3 1_555 1_555
W8_5 O29_5 1_555 1_555
W8_5 O30_5 1_555 1_555
W8_5 O38_5 1_555 1_555
O34_5 W11_5 1_555 1_555
C10_5 C12_5 1_555 1_555
W9_5 O56_5 1_555 1_555
W10_5 O51_5 1_555 1_555
W10_5 O62_5 1_555 1_555
W11_5 O53_5 1_555 1_555
W11_5 O63_5 1_555 1_555
W12_5 O51_5 1_555 1_555
W12_5 O52_5 1_555 1_555
W12_5 O60_5 1_555 1_555
W12_5 O64_5 1_555 1_555
C15_5 C21_5 1_555 1_555
C17_5 C19_5 1_555 1_555
O16_3 H14_3 1_555 1_555
O16_3 H15_3 1_555 1_555
O39_5 H18_5 1_555 1_555
O39_5 H19_5 1_555 1_555
O65_5 H32_5 1_555 1_555
O65_5 H33_5 1_555 1_555
O54_5 H34_5 1_555 1_555
O54_5 H35_5 1_555 1_555
O61_5 H36_5 1_555 1_555
O61_5 H37_5 1_555 1_555
O57_5 H38_5 1_555 1_555
O57_5 H39_5 1_555 1_555
O59_5 H40_5 1_555 1_555
O59_5 H41_5 1_555 1_555
Tm4_2 O5_5 1_555 1_555
O9_5 Tm4_2 1_555 1_555
O12_3 Tm4_2 1_555 1_555
O13_3 Tm4_2 1_555 1_555
O14_5 Tm4_2 1_555 1_555
O21_5 Tm4_2 1_555 1_555
C7_5 O13_3 1_555 1_555
O23_5 C7_5 1_555 1_555
O9_5 H16_3 1_555 1_555
O9_5 H17_3 1_555 1_555
O12_3 H20_3 1_555 1_555
O12_3 H21_3 1_555 1_555
O14_5 H22_5 1_555 1_555
O14_5 H23_5 1_555 1_555
O21_5 H30_5 1_555 1_555
O21_5 H31_5 1_555 1_555
Tm4 O5_6 1_555 1_555
O9_6 Tm4 1_555 1_555
O12_4 Tm4 1_555 1_555
O13_4 Tm4 1_555 1_555
O14_6 Tm4 1_555 1_555
O21_6 Tm4 1_555 1_555
C7_6 O13_4 1_555 1_555
O23_6 C7_6 1_555 1_555
O9_6 H16_4 1_555 1_555
O9_6 H17_4 1_555 1_555
O12_4 H20_4 1_555 1_555
O12_4 H21_4 1_555 1_555
O14_6 H22_6 1_555 1_555
O14_6 H23_6 1_555 1_555
O21_6 H30_6 1_555 1_555
O21_6 H31_6 1_555 1_555
W1_4 O2_4 1_555 1_555
W2_6 O2_4 1_555 1_555
W3_6 O1_6 1_555 1_555
W4_4 O3_4 1_555 1_555
O4_4 W1_4 1_555 1_555
O6_4 W1_4 1_555 1_555
O7_4 W1_4 1_555 1_555
O8_6 W2_6 1_555 1_555
O68_3 C6_6 1_555 1_555
O11_4 W1_4 1_555 1_555
O15_4 W2_6 1_555 1_555
O17_6 W2_6 1_555 1_555
O18_6 W3_6 1_555 1_555
O19_10 W3_6 1_555 1_555
O20_6 W4_4 1_555 1_555
O22_4 C6_6 1_555 1_555
N1_4 C2_4 1_555 1_555
C1_4 C2_4 1_555 1_555
C2_4 H1_4 1_555 1_555
C3_4 C4_4 1_555 1_555
C4_4 N1_4 1_555 1_555
H2_4 C4_4 1_555 1_555
C5_4 C1_4 1_555 1_555
C6_6 C3_4 1_555 1_555
W5_6 O25_6 1_555 1_555
W6_6 O25_6 1_555 1_555
W7_6 O11_4 1_555 1_555
W8_6 O20_6 1_555 1_555
O24_6 W7_6 1_555 1_555
O26_6 W8_6 1_555 1_555
O27_6 W5_6 1_555 1_555
O29_6 W5_6 1_555 1_555
O30_6 W5_6 1_555 1_555
O31_6 W6_6 1_555 1_555
O69_3 C13_6 1_555 1_555
O34_6 W5_6 1_555 1_555
O38_6 W6_6 1_555 1_555
O40_6 W1_4 1_555 1_555
O41_4 W3_6 1_555 1_555
O42_6 W8_6 1_555 1_555
O44_6 C13_6 1_555 1_555
N2_6 C9_6 1_555 1_555
C8_6 C9_6 1_555 1_555
C9_6 H4_6 1_555 1_555
C10_6 C11_6 1_555 1_555
C11_6 N2_6 1_555 1_555
H5_6 C11_6 1_555 1_555
C12_6 C8_6 1_555 1_555
C13_6 C10_6 1_555 1_555
W9_6 O17_6 1_555 1_555
W10_6 O47_6 1_555 1_555
W11_6 O18_6 1_555 1_555
W12_6 O42_6 1_555 1_555
Tm6 O50_6 1_555 1_555
O46_6 W11_6 1_555 1_555
O47_6 W9_6 1_555 1_555
O48_6 W12_6 1_555 1_555
O49_6 W9_6 1_555 1_555
O50_6 W10_6 1_555 1_555
O51_6 W9_6 1_555 1_555
O52_6 W9_6 1_555 1_555
O53_6 W10_6 1_555 1_555
O54_6 Tm6 1_555 1_555
O70_3 C20_6 1_555 1_555
O56_6 W3_6 1_555 1_555
O57_6 Tm6 1_555 1_555
O58_6 Tm6 1_555 1_555
O59_6 Tm6 1_555 1_555
O60_6 W10_6 1_555 1_555
O61_6 Tm6 1_555 1_555
O62_6 W5_6 1_555 1_555
O63_6 W7_6 1_555 1_555
O64_6 W4_4 1_555 1_555
O65_6 Tm6 1_555 1_555
O66_6 C20_6 1_555 1_555
N3_6 C16_6 1_555 1_555
C15_6 C16_6 1_555 1_555
C16_6 H7_6 1_555 1_555
C17_6 C18_6 1_555 1_555
C18_6 N3_6 1_555 1_555
H8_6 C18_6 1_555 1_555
C19_6 C15_6 1_555 1_555
H9_6 C19_6 1_555 1_555
C20_6 C17_6 1_555 1_555
C21_6 O58_6 1_555 1_555
O67_6 C21_6 1_555 1_555
W2_6 O6_4 1_555 1_555
W3_6 O8_6 1_555 1_555
W4_4 O6_4 1_555 1_555
W4_4 O7_4 1_555 1_555
W4_4 O15_4 1_555 1_555
O19_10 W7_6 1_555 1_555
O19_10 W11_6 1_555 1_555
C3_4 C5_4 1_555 1_555
W6_6 O29_6 1_555 1_555
W6_6 O40_6 1_555 1_555
W7_6 O31_6 1_555 1_555
W7_6 O41_4 1_555 1_555
W8_6 O29_6 1_555 1_555
W8_6 O30_6 1_555 1_555
W8_6 O38_6 1_555 1_555
O34_6 W11_6 1_555 1_555
C10_6 C12_6 1_555 1_555
W9_6 O56_6 1_555 1_555
W10_6 O51_6 1_555 1_555
W10_6 O62_6 1_555 1_555
W11_6 O53_6 1_555 1_555
W11_6 O63_6 1_555 1_555
W12_6 O51_6 1_555 1_555
W12_6 O52_6 1_555 1_555
W12_6 O60_6 1_555 1_555
W12_6 O64_6 1_555 1_555
C15_6 C21_6 1_555 1_555
C17_6 C19_6 1_555 1_555
O16_4 H14_4 1_555 1_555
O16_4 H15_4 1_555 1_555
O39_6 H18_6 1_555 1_555
O39_6 H19_6 1_555 1_555
O65_6 H32_6 1_555 1_555
O65_6 H33_6 1_555 1_555
O54_6 H34_6 1_555 1_555
O54_6 H35_6 1_555 1_555
O61_6 H36_6 1_555 1_555
O61_6 H37_6 1_555 1_555
O57_6 H38_6 1_555 1_555
O57_6 H39_6 1_555 1_555
O59_6 H40_6 1_555 1_555
O59_6 H41_6 1_555 1_555
Tm5 O28_6 1_555 1_555
O32_6 Tm5 1_555 1_555
O35_6 Tm5 1_555 1_555
O36_6 Tm5 1_555 1_555
O37_6 Tm5 1_555 1_555
O43_6 Tm5 1_555 1_555
C14_6 O36_6 1_555 1_555
O45_6 C14_6 1_555 1_555
O32_6 H24_6 1_555 1_555
O32_6 H25_6 1_555 1_555
O35_6 H26_6 1_555 1_555
O35_6 H27_6 1_555 1_555
O37_6 H28_6 1_555 1_555
O37_6 H29_6 1_555 1_555
O43_6 H42_6 1_555 1_555
O43_6 H43_6 1_555 1_555
W1_5 O2_5 1_555 1_555
W4_5 O3_5 1_555 1_555
O4_5 W1_5 1_555 1_555
O6_5 W1_5 1_555 1_555
O7_5 W1_5 1_555 1_555
O11_5 W1_5 1_555 1_555
N1_5 C2_5 1_555 1_555
C1_5 C2_5 1_555 1_555
C2_5 H1_5 1_555 1_555
C3_5 C4_5 1_555 1_555
C4_5 N1_5 1_555 1_555
H2_5 C4_5 1_555 1_555
C5_5 C1_5 1_555 1_555
W4_5 O6_5 1_555 1_555
W4_5 O7_5 1_555 1_555
W4_5 O15_5 1_555 1_555
C3_5 C5_5 1_555 1_555
O16_5 H14_5 1_555 1_555
O16_5 H15_5 1_555 1_555
O12_5 H20_5 1_555 1_555
O12_5 H21_5 1_555 1_555
W1_6 O2_6 1_555 1_555
O4_6 W1_6 1_555 1_555
O11_6 W1_6 1_555 1_555
N1_6 C2_6 1_555 1_555
C1_6 C2_6 1_555 1_555
C2_6 H1_6 1_555 1_555
C3_6 C4_6 1_555 1_555
C4_6 N1_6 1_555 1_555
H2_6 C4_6 1_555 1_555
C5_6 C1_6 1_555 1_555
C3_6 C5_6 1_555 1_555
O12_6 H20_6 1_555 1_555
O12_6 H21_6 1_555 1_555
W4_6 O3_6 1_555 1_555
W4_6 O6_6 1_555 1_555
W4_6 O7_6 1_555 1_555
W4_6 O15_6 1_555 1_555
O16_6 H15_6 1_555 1_555
N4 H10 1_555 1_555
H11 N4 1_555 1_555
H12 N4 1_555 1_555
H13 N4 1_555 1_555
N4_2 H10_2 1_555 1_555
H11_2 N4_2 1_555 1_555
H12_2 N4_2 1_555 1_555
N4_3 H10_5 1_555 1_555
H11_3 N4_3 1_555 1_555
H12_3 N4_3 1_555 1_555
N4_4 H10_6 1_555 1_555
H11_4 N4_4 1_555 1_555
H12_4 N4_4 1_555 1_555
H13_4 N4_4 1_555 1_555
N4_5 H10_8 1_555 1_555
H11_5 N4_5 1_555 1_555
H12_5 N4_5 1_555 1_555
N4_6 H10_9 1_555 1_555
H11_6 N4_6 1_555 1_555
H12_6 N4_6 1_555 1_555
N4_7 H10_11 1_555 1_555
H11_7 N4_7 1_555 1_555
N4_8 H10_12 1_555 1_555
H11_8 N4_8 1_555 1_555
N4_9 H10_13 1_555 1_555
H11_9 N4_9 1_555 1_555
H12_9 N4_9 1_555 1_555
H13_9 N4_9 1_555 1_555
N4_10 H10_14 1_555 1_555
H11_10 N4_10 1_555 1_555
N4_11 H10_15 1_555 1_555
H11_11 N4_11 1_555 1_555
N4_12 H10_16 1_555 1_555
H11_12 N4_12 1_555 1_555
H12_12 N4_12 1_555 1_555
H13_12 N4_12 1_555 1_555
H11_13 N4_13 1_555 1_555
H12_13 N4_13 1_555 1_555
H13_13 N4_13 1_555 1_555
N4_14 H10_18 1_555 1_555
H11_14 N4_14 1_555 1_555
H12_14 N4_14 1_555 1_555
H13_14 N4_14 1_555 1_555
H11_15 N4_15 1_555 1_555
H12_15 N4_15 1_555 1_555
H13_15 N4_15 1_555 1_555
H11_16 N4_16 1_555 1_555
H12_16 N4_16 1_555 1_555
H13_16 N4_16 1_555 1_555
N4_17 H10_21 1_555 1_555
H11_17 N4_17 1_555 1_555
H12_17 N4_17 1_555 1_555
H13_17 N4_17 1_555 1_555
H11_18 N4_18 1_555 1_555
H12_18 N4_18 1_555 1_555
H13_18 N4_18 1_555 1_555

#END
