
###############################################################################
#
# This file contains modified crystal structure data generated from the
# MOF subset of the Cambridge Structural Database (CSD) v543 
# hosted by the Cambridge Crystallographic Data Centre (CCDC).
#
# This work is licensed under the Creative Commons
# Attribution-NonCommercial-ShareAlike 4.0 International License.
# To view a copy of this license, visit
# http://creativecommons.org/licenses/by-nc-sa/4.0/
# or send a letter to
# Creative Commons, PO Box 1866, Mountain View, CA 94042, USA.
#
# CIF created using the CSD Python API on 29 September 2022
# The structure has been converted into the P1 space group
# The structure has a 3D framework
# The original CSD entry LEZGED is in the rhombohedral crystal system
# The framework has been calculated to contain at least 10.0% void space
# The void calculation uses a probe of radius 1.32A, grid spacing 0.4
#
###############################################################################

data_LEZGED
_chemical_formula_moiety         '(C108 H72 Mn12 N18 Na12 O54)n'
_symmetry_cell_setting           triclinic
_symmetry_space_group_name_H-M   'P 1'
_symmetry_Int_Tables_number      1
_space_group_name_Hall           'P 1'
loop_
_symmetry_equiv_pos_site_id
_symmetry_equiv_pos_as_xyz
1 x,y,z
_cell_length_a                   10.0996(2)
_cell_length_b                   10.0996(2)
_cell_length_c                   37.2991(12)
_cell_angle_alpha                90
_cell_angle_beta                 90
_cell_angle_gamma                120.00
_cell_volume                     3294.86
loop_
_atom_site_label
_atom_site_type_symbol
_atom_site_fract_x
_atom_site_fract_y
_atom_site_fract_z
Mn1 Mn 0.0000 0.0000 0.003402(17)
H3 H 0.4855 0.5828 0.0134
C6 C 0.2276(3) 0.3369(3) 0.02951(7)
O2 O 0.1121(2) 0.2051(2) 0.03325(5)
O3 O 0.2653(3) 0.4393(2) 0.05260(5)
Na2 Na 0.3333 0.6667 0.08162(4)
Na1 Na 0.0000 0.0000 0.91495(4)
C1 C 0.2860(3) 0.2710(3) 0.96714(7)
C2 C 0.5164(4) 0.4573(4) 0.93722(10)
H1 H 0.5795 0.4829 0.9172
C3 C 0.5554(4) 0.5547(4) 0.96473(11)
H2 H 0.6455 0.6486 0.9640
C4 C 0.4593(3) 0.5139(3) 0.99450(10)
C5 C 0.3277(3) 0.3756(3) 0.99673(7)
N1 N 0.3854(3) 0.3218(3) 0.93857(6)
H4 H 0.3622 0.2627 0.9202
O1 O 0.1714(2) 0.1403(2) 0.96453(5)
O10 O 0.2274(2) 0.0680(3) 0.88593(5)
Mn1_2 Mn -0.0000 1.0000 0.003402(17)
H10 H 0.0973 0.5145 0.0134
C18 C 0.1093(4) 0.7724(3) 0.02951(7)
O7 O 0.0930(3) 0.8879(2) 0.03325(5)
O9 O 0.1740(4) 0.7347(3) 0.05260(5)
Na1_2 Na -0.0000 1.0000 0.91495(4)
H8 H 0.0031 0.3545 0.9640
C14 C 0.0546(4) 0.5407(3) 0.99450(10)
C16 C 0.0479(4) 0.6723(3) 0.99673(7)
Na1_3 Na 1.0000 0.0000 0.91495(4)
C7 C 0.7290(3) 0.0150(4) 0.96714(7)
C9 C 0.5427(4) 0.0591(6) 0.93722(10)
H5 H 0.5171 0.0966 0.9172
C11 C 0.4453(4) 0.0007(6) 0.96473(11)
N2 N 0.6782(3) 0.0636(4) 0.93857(6)
H11 H 0.7373 0.0995 0.9202
O4 O 0.8597(2) 0.0311(3) 0.96453(5)
O12 O 0.9320(3) 0.1593(4) 0.88593(5)
Mn1_3 Mn 1.0000 1.0000 0.003402(17)
H9 H 0.4172 0.9027 0.0134
C17 C 0.6631(3) 0.8907(4) 0.02951(7)
O6 O 0.7949(2) 0.9070(3) 0.03325(5)
O8 O 0.5607(2) 0.8260(4) 0.05260(5)
Na1_4 Na 1.0000 1.0000 0.91495(4)
C8 C 0.9850(4) 0.7140(3) 0.96714(7)
C10 C 0.9409(6) 0.4836(4) 0.93722(10)
H6 H 0.9034 0.4205 0.9172
C12 C 0.9993(6) 0.4446(4) 0.96473(11)
H7 H 0.3514 0.9969 0.9640
C13 C 0.4861(3) 0.9454(4) 0.99450(10)
C15 C 0.6244(3) 0.9521(4) 0.99673(7)
N3 N 0.9364(4) 0.6146(3) 0.93857(6)
H12 H 0.9005 0.6378 0.9202
O5 O 0.9689(3) 0.8286(2) 0.96453(5)
O11 O 0.8407(4) 0.7726(2) 0.88593(5)
Mn1_4 Mn 0.0000 0.0000 0.503402(17)
Na1_5 Na 0.0000 0.0000 0.41495(4)
Na3 Na 0.3333 0.6667 0.58162(4)
C8_2 C 0.2860(3) 0.0150(4) 0.46714(7)
C10_2 C 0.5164(4) 0.0591(6) 0.43722(10)
H6_2 H 0.5795 0.0966 0.4172
C12_2 C 0.5554(4) 0.0007(6) 0.46473(11)
H7_2 H 0.0031 0.6486 0.4640
C13_2 C 0.0546(4) 0.5139(3) 0.49450(10)
H9_2 H 0.0973 0.5828 0.5134
C15_2 C 0.0479(4) 0.3756(3) 0.49673(7)
C17_2 C 0.1093(4) 0.3369(3) 0.52951(7)
N3_2 N 0.3854(3) 0.0636(4) 0.43857(6)
H12_2 H 0.3622 0.0995 0.4202
O5_2 O 0.1714(2) 0.0311(3) 0.46453(5)
O6_2 O 0.0930(3) 0.2051(2) 0.53325(5)
O8_2 O 0.1740(4) 0.4393(2) 0.55260(5)
O11_2 O 0.2274(2) 0.1593(4) 0.38593(5)
Mn1_5 Mn -0.0000 1.0000 0.503402(17)
Na1_6 Na 0.0000 1.0000 0.41495(4)
H8_2 H 0.6455 0.9969 0.4640
C14_2 C 0.4593(3) 0.9454(4) 0.49450(10)
H10_2 H 0.4855 0.9027 0.5134
C16_2 C 0.3277(3) 0.9521(4) 0.49673(7)
C18_2 C 0.2276(3) 0.8907(4) 0.52951(7)
O7_2 O 0.1121(2) 0.9070(3) 0.53325(5)
O9_2 O 0.2653(3) 0.8260(4) 0.55260(5)
Mn1_6 Mn 1.0000 0.0000 0.503402(17)
Na1_7 Na 1.0000 0.0000 0.41495(4)
C7_2 C 0.9850(4) 0.2710(3) 0.46714(7)
C9_2 C 0.9409(6) 0.4573(4) 0.43722(10)
H5_2 H 0.9034 0.4829 0.4172
C11_2 C 0.9993(6) 0.5547(4) 0.46473(11)
N2_2 N 0.9364(4) 0.3218(3) 0.43857(6)
H11_2 H 0.9005 0.2627 0.4202
O4_2 O 0.9689(3) 0.1403(2) 0.46453(5)
O12_2 O 0.8407(4) 0.0680(3) 0.38593(5)
Mn1_7 Mn 1.0000 1.0000 0.503402(17)
Na1_8 Na 1.0000 1.0000 0.41495(4)
C1_2 C 0.7290(3) 0.7140(3) 0.46714(7)
C2_2 C 0.5427(4) 0.4836(4) 0.43722(10)
H1_2 H 0.5171 0.4205 0.4172
C3_2 C 0.4453(4) 0.4446(4) 0.46473(11)
H2_2 H 0.3514 0.3545 0.4640
C4_2 C 0.4861(3) 0.5407(3) 0.49450(10)
H3_2 H 0.4172 0.5145 0.5134
C5_2 C 0.6244(3) 0.6723(3) 0.49673(7)
C6_2 C 0.6631(3) 0.7724(3) 0.52951(7)
N1_2 N 0.6782(3) 0.6146(3) 0.43857(6)
H4_2 H 0.7373 0.6378 0.4202
O1_2 O 0.8597(2) 0.8286(2) 0.46453(5)
O2_2 O 0.7949(2) 0.8879(2) 0.53325(5)
O3_2 O 0.5607(2) 0.7347(3) 0.55260(5)
O10_2 O 0.9320(3) 0.7726(2) 0.38593(5)
C2_3 C 0.1831(4) 0.7906(4) 0.27055(10)
H1_3 H 0.2462 0.8162 0.2505
C3_3 C 0.2221(4) 0.8880(4) 0.29806(11)
H2_3 H 0.3122 0.9819 0.2973
C4_3 C 0.1260(3) 0.8472(3) 0.32783(10)
H3_3 H 0.1522 0.9161 0.3467
N1_3 N 0.0521(3) 0.6551(3) 0.27190(6)
H4_3 H 0.0289 0.5960 0.2535
Mn1_8 Mn 0.6667 0.3333 0.336735(17)
Na1_9 Na 0.6667 0.3333 0.24828(4)
C1_3 C 0.9527(3) 0.6043(3) 0.30047(7)
C5_3 C 0.9944(3) 0.7089(3) 0.33006(7)
C6_3 C 0.8943(3) 0.6702(3) 0.36284(7)
O1_3 O 0.8381(2) 0.4736(2) 0.29786(5)
O2_3 O 0.7788(2) 0.5384(2) 0.36658(5)
C7_3 C 0.3957(3) 0.3483(4) 0.30047(7)
C8_3 C 0.6517(4) 0.0473(3) 0.30047(7)
C9_3 C 0.2094(4) 0.3924(6) 0.27055(10)
H5_3 H 0.1838 0.4299 0.2505
C11_3 C 0.1120(4) 0.3340(6) 0.29806(11)
H7_3 H 0.0181 0.3302 0.2973
C13_3 C 0.1528(3) 0.2787(4) 0.32783(10)
H9_3 H 0.0839 0.2360 0.3467
C15_3 C 0.2911(3) 0.2854(4) 0.33006(7)
C16_3 C 0.7146(4) 0.0056(3) 0.33006(7)
C17_3 C 0.3298(3) 0.2240(4) 0.36284(7)
C18_3 C 0.7760(4) 0.1057(3) 0.36284(7)
N2_3 N 0.3449(3) 0.3969(4) 0.27190(6)
H11_3 H 0.4040 0.4328 0.2535
O4_3 O 0.5264(2) 0.3644(3) 0.29786(5)
O5_3 O 0.6356(3) 0.1619(2) 0.29786(5)
O6_3 O 0.4616(2) 0.2403(3) 0.36658(5)
O7_3 O 0.7597(3) 0.2212(2) 0.36658(5)
O10_3 O 0.8940(2) 0.4014(3) 0.21927(5)
O11_3 O 0.5073(4) 0.1060(2) 0.21927(5)
O12_3 O 0.5986(3) 0.4927(4) 0.21927(5)
C10_3 C 0.6076(6) 0.8169(4) 0.27055(10)
H6_3 H 0.5701 0.7538 0.2505
C12_3 C 0.6660(6) 0.7779(4) 0.29806(11)
H8_3 H 0.6698 0.6878 0.2973
C14_3 C 0.7213(4) 0.8740(3) 0.32783(10)
H10_3 H 0.7640 0.8478 0.3467
N3_3 N 0.6031(4) 0.9479(3) 0.27190(6)
H12_3 H 0.5672 0.9711 0.2535
C10_4 C 0.1831(4) 0.3924(6) 0.77055(10)
H6_4 H 0.2462 0.4299 0.7505
C12_4 C 0.2221(4) 0.3340(6) 0.79806(11)
H8_4 H 0.3122 0.3302 0.7973
C14_4 C 0.1260(3) 0.2787(4) 0.82783(10)
H10_4 H 0.1522 0.2360 0.8467
N3_4 N 0.0521(3) 0.3969(4) 0.77190(6)
H12_4 H 0.0289 0.4328 0.7535
Mn1_9 Mn 0.6667 0.3333 0.836735(17)
Na1_10 Na 0.6667 0.3333 0.74828(4)
C1_4 C 0.3957(3) 0.0473(3) 0.80047(7)
C5_4 C 0.2911(3) 0.0056(3) 0.83006(7)
C6_4 C 0.3298(3) 0.1057(3) 0.86284(7)
O1_4 O 0.5264(2) 0.1619(2) 0.79786(5)
O2_4 O 0.4616(2) 0.2212(2) 0.86658(5)
C7_4 C 0.6517(4) 0.6043(3) 0.80047(7)
C8_4 C 0.9527(3) 0.3483(4) 0.80047(7)
C9_4 C 0.6076(6) 0.7906(4) 0.77055(10)
H5_4 H 0.5701 0.8162 0.7505
C11_4 C 0.6660(6) 0.8880(4) 0.79806(11)
H7_4 H 0.6698 0.9819 0.7973
C13_4 C 0.7213(4) 0.8472(3) 0.82783(10)
H9_4 H 0.7640 0.9161 0.8467
C15_4 C 0.7146(4) 0.7089(3) 0.83006(7)
C16_4 C 0.9944(3) 0.2854(4) 0.83006(7)
C17_4 C 0.7760(4) 0.6702(3) 0.86284(7)
C18_4 C 0.8943(3) 0.2240(4) 0.86284(7)
N2_4 N 0.6031(4) 0.6551(3) 0.77190(6)
H11_4 H 0.5672 0.5960 0.7535
O4_4 O 0.6356(3) 0.4736(2) 0.79786(5)
O5_4 O 0.8381(2) 0.3644(3) 0.79786(5)
O6_4 O 0.7597(3) 0.5384(2) 0.86658(5)
O7_4 O 0.7788(2) 0.2403(3) 0.86658(5)
O10_4 O 0.5986(3) 0.1060(2) 0.71927(5)
O11_4 O 0.8940(2) 0.4927(4) 0.71927(5)
O12_4 O 0.5073(4) 0.4014(3) 0.71927(5)
C2_4 C 0.2094(4) 0.8169(4) 0.77055(10)
H1_4 H 0.1838 0.7538 0.7505
C3_4 C 0.1120(4) 0.7779(4) 0.79806(11)
H2_4 H 0.0181 0.6878 0.7973
C4_4 C 0.1528(3) 0.8740(3) 0.82783(10)
H3_4 H 0.0839 0.8478 0.8467
N1_4 N 0.3449(3) 0.9479(3) 0.77190(6)
H4_4 H 0.4040 0.9711 0.7535
C2_5 C 0.8497(4) 0.1240(4) 0.60389(10)
H1_5 H 0.9128 0.1496 0.5839
C3_5 C 0.8887(4) 0.2214(4) 0.63140(11)
H2_5 H 0.9788 0.3153 0.6307
C4_5 C 0.7926(3) 0.1806(3) 0.66117(10)
H3_5 H 0.8188 0.2495 0.6801
C5_5 C 0.6610(3) 0.0423(3) 0.66340(7)
C6_5 C 0.5609(3) 0.0036(3) 0.69618(7)
Mn1_10 Mn 0.3333 0.6667 0.670069(17)
C1_5 C 0.6193(3) 0.9377(3) 0.63381(7)
N1_5 N 0.7187(3) 0.9885(3) 0.60524(6)
H4_5 H 0.6955 0.9294 0.5869
O1_5 O 0.5047(2) 0.8070(2) 0.63120(5)
O2_5 O 0.4454(2) 0.8718(2) 0.69992(5)
C7_5 C 0.0623(3) 0.6817(4) 0.63381(7)
C8_5 C 0.3183(4) 0.3807(3) 0.63381(7)
C10_5 C 0.2742(6) 0.1503(4) 0.60389(10)
H6_5 H 0.2367 0.0872 0.5839
C12_5 C 0.3326(6) 0.1113(4) 0.63140(11)
H8_5 H 0.3364 0.0212 0.6307
C14_5 C 0.3879(4) 0.2074(3) 0.66117(10)
H10_5 H 0.4306 0.1812 0.6801
C16_5 C 0.3812(4) 0.3390(3) 0.66340(7)
C18_5 C 0.4426(4) 0.4391(3) 0.69618(7)
N2_5 N 0.0115(3) 0.7303(4) 0.60524(6)
N3_5 N 0.2697(4) 0.2813(3) 0.60524(6)
H11_5 H 0.0706 0.7662 0.5869
H12_5 H 0.2338 0.3045 0.5869
O4_5 O 0.1930(2) 0.6978(3) 0.63120(5)
O5_5 O 0.3022(3) 0.4953(2) 0.63120(5)
O6_5 O 0.1282(2) 0.5737(3) 0.69992(5)
O7_5 O 0.4263(3) 0.5546(2) 0.69992(5)
C9_5 C 0.8760(4) 0.7258(6) 0.60389(10)
H5_5 H 0.8504 0.7633 0.5839
C11_5 C 0.7786(4) 0.6674(6) 0.63140(11)
H7_5 H 0.6847 0.6636 0.6307
C13_5 C 0.8194(3) 0.6121(4) 0.66117(10)
H9_5 H 0.7505 0.5694 0.6801
C15_5 C 0.9577(3) 0.6188(4) 0.66340(7)
C17_5 C 0.9964(3) 0.5574(4) 0.69618(7)
C9_6 C 0.2742(6) 0.1240(4) 0.10389(10)
H5_6 H 0.2367 0.1496 0.0839
C11_6 C 0.3326(6) 0.2214(4) 0.13140(11)
H7_6 H 0.3364 0.3153 0.1307
C13_6 C 0.3879(4) 0.1806(3) 0.16117(10)
H9_6 H 0.4306 0.2495 0.1801
C15_6 C 0.3812(4) 0.0423(3) 0.16340(7)
C17_6 C 0.4426(4) 0.0036(3) 0.19618(7)
Mn1_11 Mn 0.3333 0.6667 0.170069(17)
C1_6 C 0.0623(3) 0.3807(3) 0.13381(7)
N1_6 N 0.0115(3) 0.2813(3) 0.10524(6)
H4_6 H 0.0706 0.3045 0.0869
O1_6 O 0.1930(2) 0.4953(2) 0.13120(5)
O2_6 O 0.1282(2) 0.5546(2) 0.19992(5)
C7_6 C 0.3183(4) 0.9377(3) 0.13381(7)
C8_6 C 0.6193(3) 0.6817(4) 0.13381(7)
C10_6 C 0.8497(4) 0.7258(6) 0.10389(10)
H6_6 H 0.9128 0.7633 0.0839
C12_6 C 0.8887(4) 0.6674(6) 0.13140(11)
H8_6 H 0.9788 0.6636 0.1307
C14_6 C 0.7926(3) 0.6121(4) 0.16117(10)
H10_6 H 0.8188 0.5694 0.1801
C16_6 C 0.6610(3) 0.6188(4) 0.16340(7)
C18_6 C 0.5609(3) 0.5574(4) 0.19618(7)
N2_6 N 0.2697(4) 0.9885(3) 0.10524(6)
N3_6 N 0.7187(3) 0.7303(4) 0.10524(6)
H11_6 H 0.2338 0.9294 0.0869
H12_6 H 0.6955 0.7662 0.0869
O4_6 O 0.3022(3) 0.8070(2) 0.13120(5)
O5_6 O 0.5047(2) 0.6978(3) 0.13120(5)
O6_6 O 0.4263(3) 0.8718(2) 0.19992(5)
O7_6 O 0.4454(2) 0.5737(3) 0.19992(5)
C2_6 C 0.8760(4) 0.1503(4) 0.10389(10)
H1_6 H 0.8504 0.0872 0.0839
C3_6 C 0.7786(4) 0.1113(4) 0.13140(11)
H2_6 H 0.6847 0.0212 0.1307
C4_6 C 0.8194(3) 0.2074(3) 0.16117(10)
H3_6 H 0.7505 0.1812 0.1801
C5_6 C 0.9577(3) 0.3390(3) 0.16340(7)
C6_6 C 0.9964(3) 0.4391(3) 0.19618(7)
Mn1_12 Mn 1.0000 0.0000 0.003402(17)
loop_
_geom_bond_atom_site_label_1
_geom_bond_atom_site_label_2
_geom_bond_site_symmetry_1
_geom_bond_site_symmetry_2
O2 Mn1 1_555 1_555
O3 C6 1_555 1_555
Na2 O3 1_555 1_555
C6 O2 1_555 1_555
Na1 O1 1_555 1_555
C1 C5 1_555 1_555
C2 H1 1_555 1_555
C3 C2 1_555 1_555
H2 C3 1_555 1_555
C4 C3 1_555 1_555
C5 C4 1_555 1_555
N1 C1 1_555 1_555
H4 N1 1_555 1_555
O1 C1 1_555 1_555
O10 Na1 1_555 1_555
C2 N1 1_555 1_555
Na2 O9 1_555 1_555
O7 Mn1_2 1_555 1_555
O9 C18 1_555 1_555
C18 O7 1_555 1_555
C16 C14 1_555 1_555
C9 H5 1_555 1_555
C11 C9 1_555 1_555
N2 C7 1_555 1_555
H11 N2 1_555 1_555
O12 Na1_3 1_555 1_555
Na1_3 O4 1_555 1_555
C7 O4 1_555 1_555
C9 N2 1_555 1_555
Na2 O8 1_555 1_555
O6 Mn1_3 1_555 1_555
O8 C17 1_555 1_555
C17 O6 1_555 1_555
C10 H6 1_555 1_555
C12 C10 1_555 1_555
C15 C13 1_555 1_555
N3 C8 1_555 1_555
H12 N3 1_555 1_555
O11 Na1_4 1_555 1_555
Na1_4 O5 1_555 1_555
C8 O5 1_555 1_555
C10 N3 1_555 1_555
Na3 O8_2 1_555 1_555
C10_2 H6_2 1_555 1_555
C12_2 C10_2 1_555 1_555
H9_2 C13_2 1_555 1_555
C15_2 C13_2 1_555 1_555
C17_2 C15_2 1_555 1_555
N3_2 C8_2 1_555 1_555
H12_2 N3_2 1_555 1_555
O5_2 Mn1_4 1_555 1_555
O6_2 Mn1_4 1_555 1_555
O8_2 C17_2 1_555 1_555
O11_2 Na1_5 1_555 1_555
Na1_5 O5_2 1_555 1_555
C8_2 O5_2 1_555 1_555
C10_2 N3_2 1_555 1_555
C17_2 O6_2 1_555 1_555
Na3 O9_2 1_555 1_555
H10_2 C14_2 1_555 1_555
C16_2 C14_2 1_555 1_555
C18_2 C16_2 1_555 1_555
O7_2 Mn1_5 1_555 1_555
O9_2 C18_2 1_555 1_555
C18_2 O7_2 1_555 1_555
C9_2 H5_2 1_555 1_555
C11_2 C9_2 1_555 1_555
N2_2 C7_2 1_555 1_555
H11_2 N2_2 1_555 1_555
O4_2 Mn1_6 1_555 1_555
O12_2 Na1_7 1_555 1_555
Na1_7 O4_2 1_555 1_555
C7_2 O4_2 1_555 1_555
C9_2 N2_2 1_555 1_555
Mn1_7 O1_2 1_555 1_555
Na1_8 O1_2 1_555 1_555
C1_2 C5_2 1_555 1_555
C2_2 H1_2 1_555 1_555
C3_2 C2_2 1_555 1_555
H2_2 C3_2 1_555 1_555
C4_2 C3_2 1_555 1_555
H3_2 C4_2 1_555 1_555
C5_2 C4_2 1_555 1_555
C6_2 C5_2 1_555 1_555
N1_2 C1_2 1_555 1_555
H4_2 N1_2 1_555 1_555
O1_2 C1_2 1_555 1_555
O2_2 Mn1_7 1_555 1_555
O3_2 C6_2 1_555 1_555
Na3 O3_2 1_555 1_555
O10_2 Na1_8 1_555 1_555
C2_2 N1_2 1_555 1_555
C6_2 O2_2 1_555 1_555
C2_3 H1_3 1_555 1_555
C3_3 C2_3 1_555 1_555
H2_3 C3_3 1_555 1_555
C4_3 C3_3 1_555 1_555
H3_3 C4_3 1_555 1_555
H4_3 N1_3 1_555 1_555
C2_3 N1_3 1_555 1_555
Mn1_8 O1_3 1_555 1_555
Na1_9 O1_3 1_555 1_555
C1_3 C5_3 1_555 1_555
C6_3 C5_3 1_555 1_555
O1_3 C1_3 1_555 1_555
O2_3 Mn1_8 1_555 1_555
O10_2 C6_3 1_555 1_555
C7_3 C15_3 1_555 1_555
C8_3 C16_3 1_555 1_555
C9_3 H5_3 1_555 1_555
C11_3 C9_3 1_555 1_555
H7_3 C11_3 1_555 1_555
C13_3 C11_3 1_555 1_555
H9_3 C13_3 1_555 1_555
C15_3 C13_3 1_555 1_555
C17_3 C15_3 1_555 1_555
C18_3 C16_3 1_555 1_555
N2_3 C7_3 1_555 1_555
H11_3 N2_3 1_555 1_555
O4_3 Mn1_8 1_555 1_555
O5_3 Mn1_8 1_555 1_555
O6_3 Mn1_8 1_555 1_555
O7_3 Mn1_8 1_555 1_555
O11_2 C17_3 1_555 1_555
O12_2 C18_3 1_555 1_555
O10_3 Na1_9 1_555 1_555
O11_3 Na1_9 1_555 1_555
O12_3 Na1_9 1_555 1_555
Na1_9 O4_3 1_555 1_555
Na1_9 O5_3 1_555 1_555
C6_3 O2_3 1_555 1_555
C7_3 O4_3 1_555 1_555
C8_3 O5_3 1_555 1_555
C9_3 N2_3 1_555 1_555
C17_3 O6_3 1_555 1_555
C18_3 O7_3 1_555 1_555
C10_3 H6_3 1_555 1_555
C12_3 C10_3 1_555 1_555
H8_3 C12_3 1_555 1_555
C14_3 C12_3 1_555 1_555
H10_3 C14_3 1_555 1_555
H12_3 N3_3 1_555 1_555
C10_3 N3_3 1_555 1_555
C10_4 H6_4 1_555 1_555
C12_4 C10_4 1_555 1_555
H8_4 C12_4 1_555 1_555
C14_4 C12_4 1_555 1_555
H10_4 C14_4 1_555 1_555
H12_4 N3_4 1_555 1_555
C10_4 N3_4 1_555 1_555
Mn1_9 O1_4 1_555 1_555
Na1_10 O1_4 1_555 1_555
C1_4 C5_4 1_555 1_555
C6_4 C5_4 1_555 1_555
O1_4 C1_4 1_555 1_555
O2_4 Mn1_9 1_555 1_555
O10 C6_4 1_555 1_555
C7_4 C15_4 1_555 1_555
C8_4 C16_4 1_555 1_555
C9_4 H5_4 1_555 1_555
C11_4 C9_4 1_555 1_555
H7_4 C11_4 1_555 1_555
C13_4 C11_4 1_555 1_555
H9_4 C13_4 1_555 1_555
C15_4 C13_4 1_555 1_555
C17_4 C15_4 1_555 1_555
C18_4 C16_4 1_555 1_555
N2_4 C7_4 1_555 1_555
H11_4 N2_4 1_555 1_555
O4_4 Mn1_9 1_555 1_555
O5_4 Mn1_9 1_555 1_555
O6_4 Mn1_9 1_555 1_555
O7_4 Mn1_9 1_555 1_555
O11 C17_4 1_555 1_555
O12 C18_4 1_555 1_555
O10_4 Na1_10 1_555 1_555
O11_4 Na1_10 1_555 1_555
O12_4 Na1_10 1_555 1_555
Na1_10 O4_4 1_555 1_555
Na1_10 O5_4 1_555 1_555
C6_4 O2_4 1_555 1_555
C7_4 O4_4 1_555 1_555
C8_4 O5_4 1_555 1_555
C9_4 N2_4 1_555 1_555
C17_4 O6_4 1_555 1_555
C18_4 O7_4 1_555 1_555
C2_4 H1_4 1_555 1_555
C3_4 C2_4 1_555 1_555
H2_4 C3_4 1_555 1_555
C4_4 C3_4 1_555 1_555
H3_4 C4_4 1_555 1_555
H4_4 N1_4 1_555 1_555
C2_4 N1_4 1_555 1_555
C2_5 H1_5 1_555 1_555
C3_5 C2_5 1_555 1_555
H2_5 C3_5 1_555 1_555
C4_5 C3_5 1_555 1_555
H3_5 C4_5 1_555 1_555
C5_5 C4_5 1_555 1_555
C6_5 C5_5 1_555 1_555
O10_4 C6_5 1_555 1_555
Mn1_10 O1_5 1_555 1_555
Na3 O1_5 1_555 1_555
N1_5 C1_5 1_555 1_555
H4_5 N1_5 1_555 1_555
O1_5 C1_5 1_555 1_555
O2_5 Mn1_10 1_555 1_555
C8_5 C16_5 1_555 1_555
C10_5 H6_5 1_555 1_555
C12_5 C10_5 1_555 1_555
H8_5 C12_5 1_555 1_555
C14_5 C12_5 1_555 1_555
H10_5 C14_5 1_555 1_555
C16_5 C14_5 1_555 1_555
C18_5 C16_5 1_555 1_555
N2_5 C7_5 1_555 1_555
N3_5 C8_5 1_555 1_555
H11_5 N2_5 1_555 1_555
H12_5 N3_5 1_555 1_555
O4_5 Mn1_10 1_555 1_555
O5_5 Mn1_10 1_555 1_555
O6_5 Mn1_10 1_555 1_555
O7_5 Mn1_10 1_555 1_555
O12_4 C18_5 1_555 1_555
Na3 O4_5 1_555 1_555
Na3 O5_5 1_555 1_555
C7_5 O4_5 1_555 1_555
C8_5 O5_5 1_555 1_555
C10_5 N3_5 1_555 1_555
C18_5 O7_5 1_555 1_555
C9_5 H5_5 1_555 1_555
C11_5 C9_5 1_555 1_555
H7_5 C11_5 1_555 1_555
C13_5 C11_5 1_555 1_555
H9_5 C13_5 1_555 1_555
C15_5 C13_5 1_555 1_555
C17_5 C15_5 1_555 1_555
O11_4 C17_5 1_555 1_555
C9_6 H5_6 1_555 1_555
C11_6 C9_6 1_555 1_555
H7_6 C11_6 1_555 1_555
C13_6 C11_6 1_555 1_555
H9_6 C13_6 1_555 1_555
C15_6 C13_6 1_555 1_555
C17_6 C15_6 1_555 1_555
O11_3 C17_6 1_555 1_555
Mn1_11 O1_6 1_555 1_555
Na2 O1_6 1_555 1_555
N1_6 C1_6 1_555 1_555
H4_6 N1_6 1_555 1_555
O1_6 C1_6 1_555 1_555
O2_6 Mn1_11 1_555 1_555
C8_6 C16_6 1_555 1_555
C10_6 H6_6 1_555 1_555
C12_6 C10_6 1_555 1_555
H8_6 C12_6 1_555 1_555
C14_6 C12_6 1_555 1_555
H10_6 C14_6 1_555 1_555
C16_6 C14_6 1_555 1_555
C18_6 C16_6 1_555 1_555
N2_6 C7_6 1_555 1_555
N3_6 C8_6 1_555 1_555
H11_6 N2_6 1_555 1_555
H12_6 N3_6 1_555 1_555
O4_6 Mn1_11 1_555 1_555
O5_6 Mn1_11 1_555 1_555
O6_6 Mn1_11 1_555 1_555
O7_6 Mn1_11 1_555 1_555
O12_3 C18_6 1_555 1_555
Na2 O4_6 1_555 1_555
Na2 O5_6 1_555 1_555
C7_6 O4_6 1_555 1_555
C8_6 O5_6 1_555 1_555
C10_6 N3_6 1_555 1_555
C18_6 O7_6 1_555 1_555
C2_6 H1_6 1_555 1_555
C3_6 C2_6 1_555 1_555
H2_6 C3_6 1_555 1_555
C4_6 C3_6 1_555 1_555
H3_6 C4_6 1_555 1_555
C5_6 C4_6 1_555 1_555
C6_6 C5_6 1_555 1_555
O10_3 C6_6 1_555 1_555

#END
