
###############################################################################
#
# This file contains modified crystal structure data generated from the
# MOF subset of the Cambridge Structural Database (CSD) v543 
# hosted by the Cambridge Crystallographic Data Centre (CCDC).
#
# This work is licensed under the Creative Commons
# Attribution-NonCommercial-ShareAlike 4.0 International License.
# To view a copy of this license, visit
# http://creativecommons.org/licenses/by-nc-sa/4.0/
# or send a letter to
# Creative Commons, PO Box 1866, Mountain View, CA 94042, USA.
#
# CIF created using the CSD Python API on 29 September 2022
# The structure has been converted into the P1 space group
# The structure has a 3D framework
# The original CSD entry LEZNUB is in the rhombohedral crystal system
# The original CSD entry LEZNUB is in a Sohncke space group
# The framework has been calculated to contain at least 10.0% void space
# The void calculation uses a probe of radius 1.32A, grid spacing 0.4
#
###############################################################################

data_LEZNUB
_chemical_formula_moiety         '(C68 H52 Er11 N18 O70)n'
_symmetry_cell_setting           triclinic
_symmetry_space_group_name_H-M   'P 1'
_symmetry_Int_Tables_number      1
_space_group_name_Hall           'P 1'
loop_
_symmetry_equiv_pos_site_id
_symmetry_equiv_pos_as_xyz
1 x,y,z
_cell_length_a                   12.2943(8)
_cell_length_b                   12.2943(8)
_cell_length_c                   19.556(3)
_cell_angle_alpha                90
_cell_angle_beta                 90
_cell_angle_gamma                120
_cell_volume                     2559.87
loop_
_atom_site_label
_atom_site_type_symbol
_atom_site_fract_x
_atom_site_fract_y
_atom_site_fract_z
C4 C 0.0558(6) 0.6667 0.6667
N1 N 0.0276(3) 0.7204(3) 0.72090(16)
O3 O 0.1572(4) 0.6667 0.6667
Er2 Er 0.15665(2) 0.82335(2) 0.8333
Er4 Er -0.0000 0.50998(2) 0.5000
O9 O 0.8424(4) 0.0395(3) 0.83111(14)
C1 C 0.8900(5) 0.7766(4) 0.77955(17)
C2 C 0.9189(4) 0.7194(4) 0.7191(2)
C3 C 0.8331(6) 0.6667 0.6667
H1 H 0.7575 0.6667 0.6667
Er1 Er 0.6667 0.84335(2) 0.8333
O1 O 0.7972(3) 0.7911(4) 0.77455(15)
O2 O 0.9605(3) 0.8029(3) 0.83111(14)
O4 O 0.7920(3) 0.8223(3) 0.91523(14)
H2 H 0.8644 0.8363 0.9099
H3 H 0.7964 0.8556 0.9523
C5 C 0.7801(6) 0.5567(4) 0.55378(17)
C6 C 0.8662(6) 0.6139(4) 0.6142(2)
N2 N 0.9739(4) 0.6129(3) 0.61243(16)
O5 O 0.6728(5) 0.5422(4) 0.55878(15)
O6 O 0.8243(4) 0.5304(3) 0.50222(14)
O7 O 0.5413(3) 0.6970(4) 0.75144(14)
H4 H 0.4689 0.6386 0.7568
H5 H 0.5369 0.7259 0.7144
Er3 Er 0.49002(2) 0.48998(2) 0.5000
Er4_2 Er 1.0000 0.50998(2) 0.5000
N3 N 0.6928(4) 0.9724(3) 0.72090(16)
N4 N 0.6405(4) 0.9463(3) 0.94577(16)
O8 O 0.5361(3) 0.6606(5) 0.89212(15)
O10 O 0.4909(4) 0.8638(3) 0.83556(14)
C1_2 C 0.2234(4) 0.1134(6) 0.77955(17)
C2_2 C 0.2806(4) 0.1995(6) 0.7191(2)
C3_2 C 0.3333 0.1664(6) 0.6667
H1_2 H 0.3333 0.0908 0.6667
C4_2 C 0.3333 0.3891(6) 0.6667
N1_2 N 0.2796(3) 0.3072(4) 0.72090(16)
O1_2 O 0.2089(4) 0.0061(5) 0.77455(15)
O2_2 O 0.1971(3) 0.1576(4) 0.83111(14)
O3_2 O 0.3333 0.4905(4) 0.6667
H2_2 H 0.1637 0.0281 0.9099
C5_2 C 0.4433(4) 0.2233(7) 0.55378(17)
C6_2 C 0.3861(4) 0.2522(7) 0.6142(2)
N2_2 N 0.3871(3) 0.3609(5) 0.61243(16)
O5_2 O 0.4578(4) 0.1305(6) 0.55878(15)
O6_2 O 0.4696(3) 0.2938(5) 0.50222(14)
Er2_2 Er 0.17665(2) 0.33330(3) 0.8333
Er3_2 Er 0.51002(2) 0.00003(3) 0.5000
O4_2 O 0.1777(3) 0.9697(4) 0.91523(14)
H3_2 H 0.1444 0.9408 0.9523
O7_2 O 0.3030(4) 0.8444(5) 0.75144(14)
H4_2 H 0.3614 0.8304 0.7568
H5_2 H 0.2741 0.8111 0.7144
Er3_3 Er 0.51002(2) 1.00003(3) 0.5000
N4_2 N 0.0537(3) 0.6943(5) 0.94577(16)
O8_2 O 0.3394(5) 0.8756(6) 0.89212(15)
O10_2 O 0.1362(3) 0.6272(5) 0.83556(14)
O4_3 O 0.0303(4) 0.2080(3) 0.91523(14)
H3_3 H 0.0592 0.2036 0.9523
O7_3 O 0.1556(5) 0.4587(3) 0.75144(14)
H4_3 H 0.1696 0.5311 0.7568
H5_3 H 0.1889 0.4631 0.7144
N4_3 N 0.3057(5) 0.3595(4) 0.94577(16)
O8_3 O 0.1244(6) 0.4639(3) 0.89212(15)
O10_3 O 0.3728(5) 0.5091(4) 0.83556(14)
C1_3 C 0.8866(6) 0.1100(5) 0.77955(17)
C2_3 C 0.8005(6) 0.0811(4) 0.7191(2)
C3_3 C 0.8336(6) 0.1669(6) 0.6667
H1_3 H 0.9092 0.2425 0.6667
O1_3 O 0.9939(5) 0.2028(3) 0.77455(15)
H2_3 H 0.9719 0.1356 0.9099
C5_3 C 0.7767(7) 0.2199(6) 0.55378(17)
C6_3 C 0.7478(7) 0.1338(6) 0.6142(2)
N2_3 N 0.6391(5) 0.0261(4) 0.61243(16)
O5_3 O 0.8695(6) 0.3272(5) 0.55878(15)
O6_3 O 0.7062(5) 0.1757(4) 0.50222(14)
C4_3 C 0.6109(6) 0.9442(6) 0.6667
O3_3 O 0.5095(4) 0.8428(4) 0.6667
O9_2 O 0.0395(3) 0.8424(4) 0.16889(14)
C4_4 C 0.6667 0.0558(6) 0.3333
N1_3 N 0.7204(3) 0.0276(3) 0.27910(16)
O3_4 O 0.6667 0.1572(4) 0.3333
Er2_3 Er 0.82335(2) 0.15665(2) 0.1667
C1_4 C 0.7766(4) 0.8900(5) 0.22045(17)
C2_4 C 0.7194(4) 0.9189(4) 0.2809(2)
C3_4 C 0.6667 0.8331(6) 0.3333
H1_4 H 0.6667 0.7575 0.3333
Er1_2 Er 0.84335(2) 0.6667 0.1667
O1_4 O 0.7911(4) 0.7972(3) 0.22545(15)
O2_3 O 0.8029(3) 0.9605(3) 0.16889(14)
O4_4 O 0.8223(3) 0.7920(3) 0.08477(14)
H2_4 H 0.8363 0.8644 0.0901
H3_4 H 0.8556 0.7964 0.0477
C5_4 C 0.5567(4) 0.7801(6) 0.44622(17)
C6_4 C 0.6139(4) 0.8662(6) 0.3858(2)
N2_4 N 0.6129(3) 0.9739(4) 0.38757(16)
O5_4 O 0.5422(4) 0.6728(5) 0.44122(15)
O6_4 O 0.5304(3) 0.8243(4) 0.49778(14)
O7_4 O 0.6970(4) 0.5413(3) 0.24856(14)
H4_4 H 0.6386 0.4689 0.2432
H5_4 H 0.7259 0.5369 0.2856
N3_2 N 0.9724(3) 0.6928(4) 0.27910(16)
N4_4 N 0.9463(3) 0.6405(4) 0.05423(16)
O8_4 O 0.6606(5) 0.5361(3) 0.10788(15)
O10_4 O 0.8638(3) 0.4909(4) 0.16444(14)
C1_5 C 0.1134(6) 0.2234(4) 0.22045(17)
C2_5 C 0.1995(6) 0.2806(4) 0.2809(2)
C3_5 C 0.1664(6) 0.3333 0.3333
H1_5 H 0.0908 0.3333 0.3333
C4_5 C 0.3891(6) 0.3333 0.3333
N1_4 N 0.3072(4) 0.2796(3) 0.27910(16)
O1_5 O 0.0061(5) 0.2089(4) 0.22545(15)
O2_4 O 0.1576(4) 0.1971(3) 0.16889(14)
O3_5 O 0.4905(4) 0.3333 0.3333
H2_5 H 0.0281 0.1637 0.0901
C5_5 C 0.2233(7) 0.4433(4) 0.44622(17)
C6_5 C 0.2522(7) 0.3861(4) 0.3858(2)
N2_5 N 0.3609(5) 0.3871(3) 0.38757(16)
O5_5 O 0.1305(6) 0.4578(4) 0.44122(15)
O6_5 O 0.2938(5) 0.4696(3) 0.49778(14)
Er2_4 Er 0.33330(3) 0.17665(2) 0.1667
O4_5 O 0.9697(4) 0.1777(3) 0.08477(14)
H3_5 H 0.9408 0.1444 0.0477
O7_5 O 0.8444(5) 0.3030(4) 0.24856(14)
H4_5 H 0.8304 0.3614 0.2432
H5_5 H 0.8111 0.2741 0.2856
N4_5 N 0.6943(5) 0.0537(3) 0.05423(16)
O8_5 O 0.8756(6) 0.3394(5) 0.10788(15)
O10_5 O 0.6272(5) 0.1362(3) 0.16444(14)
O4_6 O 0.2080(3) 0.0303(4) 0.08477(14)
H3_6 H 0.2036 0.0592 0.0477
O7_6 O 0.4587(3) 0.1556(5) 0.24856(14)
H4_6 H 0.5311 0.1696 0.2432
H5_6 H 0.4631 0.1889 0.2856
N4_6 N 0.3595(4) 0.3057(5) 0.05423(16)
O8_6 O 0.4639(3) 0.1244(6) 0.10788(15)
O10_6 O 0.5091(4) 0.3728(5) 0.16444(14)
C1_6 C 0.1100(5) 0.8866(6) 0.22045(17)
C2_6 C 0.0811(4) 0.8005(6) 0.2809(2)
C3_6 C 0.1669(6) 0.8336(6) 0.3333
H1_6 H 0.2425 0.9092 0.3333
O1_6 O 0.2028(3) 0.9939(5) 0.22545(15)
H2_6 H 0.1356 0.9719 0.0901
C5_6 C 0.2199(6) 0.7767(7) 0.44622(17)
C6_6 C 0.1338(6) 0.7478(7) 0.3858(2)
N2_6 N 0.0261(4) 0.6391(5) 0.38757(16)
O5_6 O 0.3272(5) 0.8695(6) 0.44122(15)
O6_6 O 0.1757(4) 0.7062(5) 0.49778(14)
C4_6 C 0.9442(6) 0.6109(6) 0.3333
O3_6 O 0.8428(4) 0.5095(4) 0.3333
C1_7 C 0.5567(5) 0.1099(4) 0.11288(17)
C2_7 C 0.5856(4) 0.0527(4) 0.0524(2)
C3_7 C 0.4998(6) 0.0000 0.0000
H1_7 H 0.4242 0.0000 0.0000
C4_7 C 0.7225(6) 0.0000 0.0000
O3_7 O 0.8239(4) 0.0000 0.0000
C3_8 C 0.4998(6) 0.0000 1.0000
H1_8 H 0.4242 0.0000 1.0000
C4_8 C 0.7225(6) 0.0000 1.0000
O3_8 O 0.8239(4) 0.0000 1.0000
C3_9 C 0.4998(6) 1.0000 0.0000
H1_9 H 0.4242 1.0000 0.0000
C4_9 C 0.7225(6) 1.0000 0.0000
O3_9 O 0.8239(4) 1.0000 0.0000
C3_10 C 0.4998(6) 1.0000 1.0000
H1_10 H 0.4242 1.0000 1.0000
C4_10 C 0.7225(6) 1.0000 1.0000
O3_10 O 0.8239(4) 1.0000 1.0000
C5_7 C 0.4467(6) 0.8901(4) 0.88712(17)
C6_7 C 0.5328(6) 0.9473(4) 0.9476(2)
C3_11 C -0.0000 0.4997(6) 0.0000
H1_11 H -0.0000 0.4241 0.0000
C4_11 C -0.0000 0.7224(6) 0.0000
O3_11 O -0.0000 0.8238(4) 0.0000
C3_12 C -0.0000 0.4997(6) 1.0000
H1_12 H -0.0000 0.4241 1.0000
C4_12 C -0.0000 0.7224(6) 1.0000
O3_12 O -0.0000 0.8238(4) 1.0000
C5_8 C 0.1099(4) 0.5567(7) 0.88712(17)
C6_8 C 0.0527(4) 0.5856(7) 0.9476(2)
C1_8 C 0.8901(4) 0.4467(6) 0.11288(17)
C2_8 C 0.9473(4) 0.5328(6) 0.0524(2)
C3_13 C 1.0000 0.4997(6) 0.0000
H1_13 H 1.0000 0.4241 0.0000
C4_13 C 1.0000 0.7224(6) 0.0000
O3_13 O 1.0000 0.8238(4) 0.0000
C3_14 C 1.0000 0.4997(6) 1.0000
H1_14 H 1.0000 0.4241 1.0000
C4_14 C 1.0000 0.7224(6) 1.0000
O3_14 O 1.0000 0.8238(4) 1.0000
C1_9 C 0.5533(6) 0.4433(5) 0.11288(17)
C2_9 C 0.4672(6) 0.4144(4) 0.0524(2)
C3_15 C 0.5003(6) 0.5002(6) 0.0000
H1_15 H 0.5759 0.5758 0.0000
C4_15 C 0.2776(6) 0.2775(6) 0.0000
O3_15 O 0.1762(4) 0.1761(4) 0.0000
C3_16 C 0.5003(6) 0.5002(6) 1.0000
H1_16 H 0.5759 0.5758 1.0000
C4_16 C 0.2776(6) 0.2775(6) 1.0000
O3_16 O 0.1762(4) 0.1761(4) 1.0000
C5_9 C 0.4433(7) 0.5533(6) 0.88712(17)
C6_9 C 0.4144(7) 0.4672(6) 0.9476(2)
O4_7 O 0.4890(3) 0.1253(3) 0.41810(14)
H2_7 H 0.5030 0.1977 0.4234
H3_7 H 0.5223 0.1297 0.3810
O7_7 O 0.3636(4) 0.8747(3) 0.58190(14)
H4_7 H 0.3052 0.8023 0.5766
H5_7 H 0.3925 0.8703 0.6190
O4_8 O 0.6364(4) 0.5110(3) 0.41810(14)
H2_8 H 0.6948 0.4970 0.4234
H3_8 H 0.6075 0.4777 0.3810
O7_8 O 0.5110(5) 0.6364(4) 0.58190(14)
H4_8 H 0.4970 0.6948 0.5766
H5_8 H 0.4777 0.6075 0.6190
O7_9 O 0.1253(3) 0.4890(5) 0.58190(14)
H4_9 H 0.1977 0.5030 0.5766
H5_9 H 0.1297 0.5223 0.6190
O4_9 O 0.8747(3) 0.3636(4) 0.41810(14)
H2_9 H 0.8023 0.3052 0.4234
H3_9 H 0.8703 0.3925 0.3810
loop_
_geom_bond_atom_site_label_1
_geom_bond_atom_site_label_2
_geom_bond_site_symmetry_1
_geom_bond_site_symmetry_2
C4 N1 1_555 1_555
O3 C4 1_555 1_555
Er2 N1 1_555 1_555
C1 C2 1_555 1_555
C2 C3 1_555 1_555
C3 H1 1_555 1_555
Er1 O1 1_555 1_555
O1 C1 1_555 1_555
O2 C1 1_555 1_555
O4 Er1 1_555 1_555
H2 O4 1_555 1_555
H3 O4 1_555 1_555
C5 C6 1_555 1_555
C6 C3 1_555 1_555
O5 C5 1_555 1_555
O6 C5 1_555 1_555
O7 Er1 1_555 1_555
H4 O7 1_555 1_555
H5 O7 1_555 1_555
Er3 O5 1_555 1_555
Er4_2 N2 1_555 1_555
N3 Er1 1_555 1_555
N4 Er1 1_555 1_555
O8 Er1 1_555 1_555
O10 Er1 1_555 1_555
C6 N2 1_555 1_555
O6 Er4_2 1_555 1_555
C1_2 C2_2 1_555 1_555
C2_2 C3_2 1_555 1_555
C3_2 H1_2 1_555 1_555
C4_2 N1_2 1_555 1_555
N1_2 C2_2 1_555 1_555
O1_2 C1_2 1_555 1_555
O2_2 C1_2 1_555 1_555
O3_2 C4_2 1_555 1_555
C5_2 C6_2 1_555 1_555
C6_2 C3_2 1_555 1_555
N2_2 C4_2 1_555 1_555
O5_2 C5_2 1_555 1_555
O6_2 C5_2 1_555 1_555
Er2_2 N1_2 1_555 1_555
Er3_2 O5_2 1_555 1_555
Er3 N2_2 1_555 1_555
O2_2 Er2_2 1_555 1_555
C6_2 N2_2 1_555 1_555
O6_2 Er3 1_555 1_555
O4_2 Er2 1_555 1_555
H3_2 O4_2 1_555 1_555
O7_2 Er2 1_555 1_555
H4_2 O7_2 1_555 1_555
H5_2 O7_2 1_555 1_555
N4_2 Er2 1_555 1_555
O8_2 Er2 1_555 1_555
O10_2 Er2 1_555 1_555
O4_3 Er2_2 1_555 1_555
H3_3 O4_3 1_555 1_555
O7_3 Er2_2 1_555 1_555
H4_3 O7_3 1_555 1_555
H5_3 O7_3 1_555 1_555
N4_3 Er2_2 1_555 1_555
O8_3 Er2_2 1_555 1_555
O10_3 Er2_2 1_555 1_555
C1_3 C2_3 1_555 1_555
C2_3 C3_3 1_555 1_555
C3_3 H1_3 1_555 1_555
O1_3 C1_3 1_555 1_555
O9 C1_3 1_555 1_555
C5_3 C6_3 1_555 1_555
C6_3 C3_3 1_555 1_555
O5_3 C5_3 1_555 1_555
O6_3 C5_3 1_555 1_555
Er4_2 O5_3 1_555 1_555
Er3_2 N2_3 1_555 1_555
C6_3 N2_3 1_555 1_555
O6_3 Er3_2 1_555 1_555
C4_3 N3 1_555 1_555
O3_3 C4_3 1_555 1_555
C4_4 N1_3 1_555 1_555
O3_4 C4_4 1_555 1_555
Er2_3 N1_3 1_555 1_555
C1_4 C2_4 1_555 1_555
C2_4 C3_4 1_555 1_555
C3_4 H1_4 1_555 1_555
Er1_2 O1_4 1_555 1_555
O1_4 C1_4 1_555 1_555
O2_3 C1_4 1_555 1_555
O4_4 Er1_2 1_555 1_555
H2_4 O4_4 1_555 1_555
H3_4 O4_4 1_555 1_555
C5_4 C6_4 1_555 1_555
C6_4 C3_4 1_555 1_555
O5_4 C5_4 1_555 1_555
O6_4 C5_4 1_555 1_555
O7_4 Er1_2 1_555 1_555
H4_4 O7_4 1_555 1_555
H5_4 O7_4 1_555 1_555
Er3 O5_4 1_555 1_555
Er3_3 N2_4 1_555 1_555
N3_2 Er1_2 1_555 1_555
N4_4 Er1_2 1_555 1_555
O8_4 Er1_2 1_555 1_555
O10_4 Er1_2 1_555 1_555
C6_4 N2_4 1_555 1_555
O6_4 Er3_3 1_555 1_555
C1_5 C2_5 1_555 1_555
C2_5 C3_5 1_555 1_555
C3_5 H1_5 1_555 1_555
C4_5 N1_4 1_555 1_555
N1_4 C2_5 1_555 1_555
O1_5 C1_5 1_555 1_555
O2_4 C1_5 1_555 1_555
O3_5 C4_5 1_555 1_555
C5_5 C6_5 1_555 1_555
C6_5 C3_5 1_555 1_555
N2_5 C4_5 1_555 1_555
O5_5 C5_5 1_555 1_555
O6_5 C5_5 1_555 1_555
Er2_4 N1_4 1_555 1_555
Er4 O5_5 1_555 1_555
Er3 N2_5 1_555 1_555
O2_4 Er2_4 1_555 1_555
C6_5 N2_5 1_555 1_555
O6_5 Er3 1_555 1_555
O4_5 Er2_3 1_555 1_555
H3_5 O4_5 1_555 1_555
O7_5 Er2_3 1_555 1_555
H4_5 O7_5 1_555 1_555
H5_5 O7_5 1_555 1_555
N4_5 Er2_3 1_555 1_555
O8_5 Er2_3 1_555 1_555
O10_5 Er2_3 1_555 1_555
O4_6 Er2_4 1_555 1_555
H3_6 O4_6 1_555 1_555
O7_6 Er2_4 1_555 1_555
H4_6 O7_6 1_555 1_555
H5_6 O7_6 1_555 1_555
N4_6 Er2_4 1_555 1_555
O8_6 Er2_4 1_555 1_555
O10_6 Er2_4 1_555 1_555
C1_6 C2_6 1_555 1_555
C2_6 C3_6 1_555 1_555
C3_6 H1_6 1_555 1_555
O1_6 C1_6 1_555 1_555
O9_2 C1_6 1_555 1_555
C5_6 C6_6 1_555 1_555
C6_6 C3_6 1_555 1_555
O5_6 C5_6 1_555 1_555
O6_6 C5_6 1_555 1_555
Er3_3 O5_6 1_555 1_555
Er4 N2_6 1_555 1_555
C6_6 N2_6 1_555 1_555
O6_6 Er4 1_555 1_555
C4_6 N3_2 1_555 1_555
O3_6 C4_6 1_555 1_555
C1_7 C2_7 1_555 1_555
C2_7 C3_7 1_555 1_555
C3_7 H1_7 1_555 1_555
C4_7 N4_5 1_555 1_555
N4_5 C2_7 1_555 1_555
O8_6 C1_7 1_555 1_555
O10_5 C1_7 1_555 1_555
O3_7 C4_7 1_555 1_555
C3_8 H1_8 1_555 1_555
O3_8 C4_8 1_555 1_555
C3_9 H1_9 1_555 1_555
O3_9 C4_9 1_555 1_555
C3_10 H1_10 1_555 1_555
O3_10 C4_10 1_555 1_555
C5_7 C6_7 1_555 1_555
C6_7 C3_10 1_555 1_555
N4 C4_10 1_555 1_555
O8_2 C5_7 1_555 1_555
O10 C5_7 1_555 1_555
C6_7 N4 1_555 1_555
C3_11 H1_11 1_555 1_555
O3_11 C4_11 1_555 1_555
C3_12 H1_12 1_555 1_555
O3_12 C4_12 1_555 1_555
C5_8 C6_8 1_555 1_555
C6_8 C3_12 1_555 1_555
N4_2 C4_12 1_555 1_555
O8_3 C5_8 1_555 1_555
O10_2 C5_8 1_555 1_555
C6_8 N4_2 1_555 1_555
C1_8 C2_8 1_555 1_555
C2_8 C3_13 1_555 1_555
C3_13 H1_13 1_555 1_555
C4_13 N4_4 1_555 1_555
N4_4 C2_8 1_555 1_555
O8_5 C1_8 1_555 1_555
O10_4 C1_8 1_555 1_555
O3_13 C4_13 1_555 1_555
C3_14 H1_14 1_555 1_555
O3_14 C4_14 1_555 1_555
C1_9 C2_9 1_555 1_555
C2_9 C3_15 1_555 1_555
C3_15 H1_15 1_555 1_555
C4_15 N4_6 1_555 1_555
N4_6 C2_9 1_555 1_555
O8_4 C1_9 1_555 1_555
O10_6 C1_9 1_555 1_555
O3_15 C4_15 1_555 1_555
C3_16 H1_16 1_555 1_555
O3_16 C4_16 1_555 1_555
C5_9 C6_9 1_555 1_555
C6_9 C3_16 1_555 1_555
N4_3 C4_16 1_555 1_555
O8 C5_9 1_555 1_555
O10_3 C5_9 1_555 1_555
C6_9 N4_3 1_555 1_555
O4_7 Er3_2 1_555 1_555
H2_7 O4_7 1_555 1_555
H3_7 O4_7 1_555 1_555
O7_7 Er3_3 1_555 1_555
H4_7 O7_7 1_555 1_555
H5_7 O7_7 1_555 1_555
O4_8 Er3 1_555 1_555
H2_8 O4_8 1_555 1_555
H3_8 O4_8 1_555 1_555
O7_8 Er3 1_555 1_555
H4_8 O7_8 1_555 1_555
H5_8 O7_8 1_555 1_555
O7_9 Er4 1_555 1_555
H4_9 O7_9 1_555 1_555
H5_9 O7_9 1_555 1_555
O4_9 Er4_2 1_555 1_555
H2_9 O4_9 1_555 1_555
H3_9 O4_9 1_555 1_555

#END
