
###############################################################################
#
# This file contains modified crystal structure data generated from the
# MOF subset of the Cambridge Structural Database (CSD) v543 
# hosted by the Cambridge Crystallographic Data Centre (CCDC).
#
# This work is licensed under the Creative Commons
# Attribution-NonCommercial-ShareAlike 4.0 International License.
# To view a copy of this license, visit
# http://creativecommons.org/licenses/by-nc-sa/4.0/
# or send a letter to
# Creative Commons, PO Box 1866, Mountain View, CA 94042, USA.
#
# CIF created using the CSD Python API on 29 September 2022
# The structure has been converted into the P1 space group
# The structure has a 3D framework
# The original CSD entry LEZPAJ is in the rhombohedral crystal system
# The original CSD entry LEZPAJ is in a Sohncke space group
# The framework has been calculated to contain at least 10.0% void space
# The void calculation uses a probe of radius 1.32A, grid spacing 0.4
#
###############################################################################

data_LEZPAJ
_chemical_formula_moiety         '(C68 H52 Dy11 N18 O70)n'
_symmetry_cell_setting           triclinic
_symmetry_space_group_name_H-M   'P 1'
_symmetry_Int_Tables_number      1
_space_group_name_Hall           'P 1'
loop_
_symmetry_equiv_pos_site_id
_symmetry_equiv_pos_as_xyz
1 x,y,z
_cell_length_a                   12.359(2)
_cell_length_b                   12.359(2)
_cell_length_c                   19.602(3)
_cell_angle_alpha                90
_cell_angle_beta                 90
_cell_angle_gamma                120
_cell_volume                     2592.97
loop_
_atom_site_label
_atom_site_type_symbol
_atom_site_fract_x
_atom_site_fract_y
_atom_site_fract_z
C4 C 0.0546(4) 0.6667 0.6667
N1 N 0.0268(2) 0.7199(2) 0.72082(13)
O3 O 0.1556(3) 0.6667 0.6667
Dy2 Dy 0.156515(18) 0.823215(18) 0.8333
Dy4 Dy -0.0000 0.510118(18) 0.5000
O9 O 0.8432(3) 0.0406(2) 0.83075(12)
C1 C 0.8901(3) 0.7762(3) 0.77939(14)
C2 C 0.9186(3) 0.7192(3) 0.7193(2)
C3 C 0.8331(4) 0.6667 0.6667
H1 H 0.7578 0.6667 0.6667
Dy1 Dy 0.6667 0.843485(18) 0.8333
O1 O 0.7973(2) 0.7905(3) 0.77438(13)
O2 O 0.9594(2) 0.8026(2) 0.83075(12)
O4 O 0.79311(19) 0.8237(2) 0.91582(12)
H2 H 0.8655 0.8377 0.9105
H3 H 0.7975 0.8570 0.9529
C5 C 0.7806(4) 0.5571(3) 0.55394(14)
C6 C 0.8661(4) 0.6141(3) 0.6140(2)
N2 N 0.9736(3) 0.6134(2) 0.61251(13)
O5 O 0.6735(4) 0.5428(3) 0.55895(13)
O6 O 0.8235(3) 0.5307(2) 0.50258(12)
O7 O 0.54022(19) 0.69726(28) 0.75085(12)
H4 H 0.4678 0.6389 0.7562
H5 H 0.5358 0.7262 0.7138
Dy3 Dy 0.489882(18) 0.489848(18) 0.5000
Dy4_2 Dy 1.0000 0.510118(18) 0.5000
N3 N 0.6931(3) 0.9732(2) 0.72082(13)
N4 N 0.6402(3) 0.9468(2) 0.94585(13)
O8 O 0.5360(2) 0.6599(4) 0.89229(13)
O10 O 0.4901(3) 0.8641(2) 0.83592(12)
C1_2 C 0.2238(3) 0.1139(4) 0.77939(14)
C2_2 C 0.2808(3) 0.1994(4) 0.7193(2)
C3_2 C 0.3333 0.1664(4) 0.6667
H1_2 H 0.3333 0.0911 0.6667
C4_2 C 0.3333 0.3879(4) 0.6667
N1_2 N 0.2801(2) 0.3069(3) 0.72082(13)
O1_2 O 0.2095(3) 0.0068(4) 0.77438(13)
O2_2 O 0.1974(2) 0.1568(3) 0.83075(12)
O3_2 O 0.3333 0.4889(3) 0.6667
H2_2 H 0.1623 0.0278 0.9105
C5_2 C 0.4429(3) 0.2234(5) 0.55394(14)
C6_2 C 0.3859(3) 0.2519(5) 0.6140(2)
N2_2 N 0.3866(2) 0.3601(4) 0.61251(13)
O5_2 O 0.4572(3) 0.1306(5) 0.55895(13)
O6_2 O 0.4693(2) 0.2927(4) 0.50258(12)
Dy2_2 Dy 0.176785(18) 0.333300(25) 0.8333
Dy3_2 Dy 0.510152(18) 0.000033(25) 0.5000
O4_2 O 0.1763(2) 0.96941(28) 0.91582(12)
H3_2 H 0.1430 0.9405 0.9529
O7_2 O 0.30274(28) 0.84297(34) 0.75085(12)
H4_2 H 0.3611 0.8290 0.7562
H5_2 H 0.2738 0.8097 0.7138
Dy3_3 Dy 0.510152(18) 1.000033(25) 0.5000
N4_2 N 0.0532(2) 0.6935(4) 0.94585(13)
O8_2 O 0.3401(4) 0.8762(4) 0.89229(13)
O10_2 O 0.1359(2) 0.6261(4) 0.83592(12)
O4_3 O 0.03059(28) 0.20689(19) 0.91582(12)
H3_3 H 0.0595 0.2025 0.9529
O7_3 O 0.15703(34) 0.45978(19) 0.75085(12)
H4_3 H 0.1710 0.5322 0.7562
H5_3 H 0.1903 0.4642 0.7138
N4_3 N 0.3065(4) 0.3598(3) 0.94585(13)
O8_3 O 0.1238(4) 0.4640(2) 0.89229(13)
O10_3 O 0.3739(4) 0.5099(3) 0.83592(12)
C1_3 C 0.8861(4) 0.1099(3) 0.77939(14)
C2_3 C 0.8006(4) 0.0814(3) 0.7193(2)
C3_3 C 0.8336(4) 0.1669(4) 0.6667
H1_3 H 0.9089 0.2422 0.6667
O1_3 O 0.9932(4) 0.2027(2) 0.77438(13)
H2_3 H 0.9722 0.1345 0.9105
C5_3 C 0.7766(5) 0.2194(4) 0.55394(14)
C6_3 C 0.7481(5) 0.1339(4) 0.6140(2)
N2_3 N 0.6399(4) 0.0264(3) 0.61251(13)
O5_3 O 0.8694(5) 0.3265(4) 0.55895(13)
O6_3 O 0.7073(4) 0.1765(3) 0.50258(12)
C4_3 C 0.6121(4) 0.9454(4) 0.6667
O3_3 O 0.5111(3) 0.8444(3) 0.6667
O9_2 O 0.0406(2) 0.8432(3) 0.16925(12)
C4_4 C 0.6667 0.0546(4) 0.3333
N1_3 N 0.7199(2) 0.0268(2) 0.27918(13)
O3_4 O 0.6667 0.1556(3) 0.3333
Dy2_3 Dy 0.823215(18) 0.156515(18) 0.1667
C1_4 C 0.7762(3) 0.8901(3) 0.22061(14)
C2_4 C 0.7192(3) 0.9186(3) 0.2807(2)
C3_4 C 0.6667 0.8331(4) 0.3333
H1_4 H 0.6667 0.7578 0.3333
Dy1_2 Dy 0.843485(18) 0.6667 0.1667
O1_4 O 0.7905(3) 0.7973(2) 0.22562(13)
O2_3 O 0.8026(2) 0.9594(2) 0.16925(12)
O4_4 O 0.8237(2) 0.79311(19) 0.08418(12)
H2_4 H 0.8377 0.8655 0.0895
H3_4 H 0.8570 0.7975 0.0471
C5_4 C 0.5571(3) 0.7806(4) 0.44606(14)
C6_4 C 0.6141(3) 0.8661(4) 0.3860(2)
N2_4 N 0.6134(2) 0.9736(3) 0.38749(13)
O5_4 O 0.5428(3) 0.6735(4) 0.44105(13)
O6_4 O 0.5307(2) 0.8235(3) 0.49742(12)
O7_4 O 0.69726(28) 0.54022(19) 0.24915(12)
H4_4 H 0.6389 0.4678 0.2438
H5_4 H 0.7262 0.5358 0.2862
N3_2 N 0.9732(2) 0.6931(3) 0.27918(13)
N4_4 N 0.9468(2) 0.6402(3) 0.05415(13)
O8_4 O 0.6599(4) 0.5360(2) 0.10771(13)
O10_4 O 0.8641(2) 0.4901(3) 0.16408(12)
C1_5 C 0.1139(4) 0.2238(3) 0.22061(14)
C2_5 C 0.1994(4) 0.2808(3) 0.2807(2)
C3_5 C 0.1664(4) 0.3333 0.3333
H1_5 H 0.0911 0.3333 0.3333
C4_5 C 0.3879(4) 0.3333 0.3333
N1_4 N 0.3069(3) 0.2801(2) 0.27918(13)
O1_5 O 0.0068(4) 0.2095(3) 0.22562(13)
O2_4 O 0.1568(3) 0.1974(2) 0.16925(12)
O3_5 O 0.4889(3) 0.3333 0.3333
H2_5 H 0.0278 0.1623 0.0895
C5_5 C 0.2234(5) 0.4429(3) 0.44606(14)
C6_5 C 0.2519(5) 0.3859(3) 0.3860(2)
N2_5 N 0.3601(4) 0.3866(2) 0.38749(13)
O5_5 O 0.1306(5) 0.4572(3) 0.44105(13)
O6_5 O 0.2927(4) 0.4693(2) 0.49742(12)
Dy2_4 Dy 0.333300(25) 0.176785(18) 0.1667
O4_5 O 0.96941(28) 0.1763(2) 0.08418(12)
H3_5 H 0.9405 0.1430 0.0471
O7_5 O 0.84297(34) 0.30274(28) 0.24915(12)
H4_5 H 0.8290 0.3611 0.2438
H5_5 H 0.8097 0.2738 0.2862
N4_5 N 0.6935(4) 0.0532(2) 0.05415(13)
O8_5 O 0.8762(4) 0.3401(4) 0.10771(13)
O10_5 O 0.6261(4) 0.1359(2) 0.16408(12)
O4_6 O 0.20689(19) 0.03059(28) 0.08418(12)
H3_6 H 0.2025 0.0595 0.0471
O7_6 O 0.45978(19) 0.15703(34) 0.24915(12)
H4_6 H 0.5322 0.1710 0.2438
H5_6 H 0.4642 0.1903 0.2862
N4_6 N 0.3598(3) 0.3065(4) 0.05415(13)
O8_6 O 0.4640(2) 0.1238(4) 0.10771(13)
O10_6 O 0.5099(3) 0.3739(4) 0.16408(12)
C1_6 C 0.1099(3) 0.8861(4) 0.22061(14)
C2_6 C 0.0814(3) 0.8006(4) 0.2807(2)
C3_6 C 0.1669(4) 0.8336(4) 0.3333
H1_6 H 0.2422 0.9089 0.3333
O1_6 O 0.2027(2) 0.9932(4) 0.22562(13)
H2_6 H 0.1345 0.9722 0.0895
C5_6 C 0.2194(4) 0.7766(5) 0.44606(14)
C6_6 C 0.1339(4) 0.7481(5) 0.3860(2)
N2_6 N 0.0264(3) 0.6399(4) 0.38749(13)
O5_6 O 0.3265(4) 0.8694(5) 0.44105(13)
O6_6 O 0.1765(3) 0.7073(4) 0.49742(12)
C4_6 C 0.9454(4) 0.6121(4) 0.3333
O3_6 O 0.8444(3) 0.5111(3) 0.3333
C1_7 C 0.5568(3) 0.1095(3) 0.11272(14)
C2_7 C 0.5853(3) 0.0525(3) 0.0526(2)
C3_7 C 0.4998(4) 0.0000 0.0000
H1_7 H 0.4245 0.0000 0.0000
C4_7 C 0.7213(4) 0.0000 0.0000
O3_7 O 0.8223(3) 0.0000 0.0000
C3_8 C 0.4998(4) 0.0000 1.0000
H1_8 H 0.4245 0.0000 1.0000
C4_8 C 0.7213(4) 0.0000 1.0000
O3_8 O 0.8223(3) 0.0000 1.0000
C3_9 C 0.4998(4) 1.0000 0.0000
H1_9 H 0.4245 1.0000 0.0000
C4_9 C 0.7213(4) 1.0000 0.0000
O3_9 O 0.8223(3) 1.0000 0.0000
C3_10 C 0.4998(4) 1.0000 1.0000
H1_10 H 0.4245 1.0000 1.0000
C4_10 C 0.7213(4) 1.0000 1.0000
O3_10 O 0.8223(3) 1.0000 1.0000
C5_7 C 0.4472(4) 0.8905(3) 0.88728(14)
C6_7 C 0.5327(4) 0.9475(3) 0.9474(2)
C3_11 C -0.0000 0.4997(4) 0.0000
H1_11 H -0.0000 0.4244 0.0000
C4_11 C -0.0000 0.7212(4) 0.0000
O3_11 O -0.0000 0.8222(3) 0.0000
C3_12 C -0.0000 0.4997(4) 1.0000
H1_12 H -0.0000 0.4244 1.0000
C4_12 C -0.0000 0.7212(4) 1.0000
O3_12 O -0.0000 0.8222(3) 1.0000
C5_8 C 0.1095(3) 0.5568(5) 0.88728(14)
C6_8 C 0.0525(3) 0.5853(5) 0.9474(2)
C1_8 C 0.8905(3) 0.4472(4) 0.11272(14)
C2_8 C 0.9475(3) 0.5327(4) 0.0526(2)
C3_13 C 1.0000 0.4997(4) 0.0000
H1_13 H 1.0000 0.4244 0.0000
C4_13 C 1.0000 0.7212(4) 0.0000
O3_13 O 1.0000 0.8222(3) 0.0000
C3_14 C 1.0000 0.4997(4) 1.0000
H1_14 H 1.0000 0.4244 1.0000
C4_14 C 1.0000 0.7212(4) 1.0000
O3_14 O 1.0000 0.8222(3) 1.0000
C1_9 C 0.5528(4) 0.4432(3) 0.11272(14)
C2_9 C 0.4673(4) 0.4147(3) 0.0526(2)
C3_15 C 0.5003(4) 0.5002(4) 0.0000
H1_15 H 0.5756 0.5755 0.0000
C4_15 C 0.2788(4) 0.2787(4) 0.0000
O3_15 O 0.1778(3) 0.1777(3) 0.0000
C3_16 C 0.5003(4) 0.5002(4) 1.0000
H1_16 H 0.5756 0.5755 1.0000
C4_16 C 0.2788(4) 0.2787(4) 1.0000
O3_16 O 0.1778(3) 0.1777(3) 1.0000
C5_9 C 0.4432(5) 0.5528(4) 0.88728(14)
C6_9 C 0.4147(5) 0.4673(4) 0.9474(2)
O4_7 O 0.4904(2) 0.12644(19) 0.41751(12)
H2_7 H 0.5044 0.1988 0.4228
H3_7 H 0.5237 0.1308 0.3804
O7_7 O 0.36392(28) 0.87356(19) 0.58249(12)
H4_7 H 0.3055 0.8012 0.5772
H5_7 H 0.3928 0.8692 0.6196
O4_8 O 0.63608(28) 0.5096(2) 0.41751(12)
H2_8 H 0.6945 0.4956 0.4228
H3_8 H 0.6072 0.4763 0.3804
O7_8 O 0.50963(34) 0.63608(28) 0.58249(12)
H4_8 H 0.4956 0.6945 0.5772
H5_8 H 0.4763 0.6072 0.6196
O7_9 O 0.12644(19) 0.49037(34) 0.58249(12)
H4_9 H 0.1988 0.5044 0.5772
H5_9 H 0.1308 0.5237 0.6196
O4_9 O 0.87356(19) 0.36392(28) 0.41751(12)
H2_9 H 0.8012 0.3055 0.4228
H3_9 H 0.8692 0.3928 0.3804
loop_
_geom_bond_atom_site_label_1
_geom_bond_atom_site_label_2
_geom_bond_site_symmetry_1
_geom_bond_site_symmetry_2
C4 N1 1_555 1_555
O3 C4 1_555 1_555
Dy2 N1 1_555 1_555
C1 C2 1_555 1_555
C2 C3 1_555 1_555
C3 H1 1_555 1_555
Dy1 O1 1_555 1_555
O1 C1 1_555 1_555
O2 C1 1_555 1_555
O4 Dy1 1_555 1_555
H2 O4 1_555 1_555
H3 O4 1_555 1_555
C5 C6 1_555 1_555
C6 C3 1_555 1_555
O5 C5 1_555 1_555
O6 C5 1_555 1_555
O7 Dy1 1_555 1_555
H4 O7 1_555 1_555
H5 O7 1_555 1_555
Dy3 O5 1_555 1_555
Dy4_2 N2 1_555 1_555
N3 Dy1 1_555 1_555
N4 Dy1 1_555 1_555
O8 Dy1 1_555 1_555
O10 Dy1 1_555 1_555
C6 N2 1_555 1_555
O6 Dy4_2 1_555 1_555
C1_2 C2_2 1_555 1_555
C2_2 C3_2 1_555 1_555
C3_2 H1_2 1_555 1_555
C4_2 N1_2 1_555 1_555
N1_2 C2_2 1_555 1_555
O1_2 C1_2 1_555 1_555
O2_2 C1_2 1_555 1_555
O3_2 C4_2 1_555 1_555
C5_2 C6_2 1_555 1_555
C6_2 C3_2 1_555 1_555
N2_2 C4_2 1_555 1_555
O5_2 C5_2 1_555 1_555
O6_2 C5_2 1_555 1_555
Dy2_2 N1_2 1_555 1_555
Dy3_2 O5_2 1_555 1_555
Dy3 N2_2 1_555 1_555
O2_2 Dy2_2 1_555 1_555
C6_2 N2_2 1_555 1_555
O6_2 Dy3 1_555 1_555
O4_2 Dy2 1_555 1_555
H3_2 O4_2 1_555 1_555
O7_2 Dy2 1_555 1_555
H4_2 O7_2 1_555 1_555
H5_2 O7_2 1_555 1_555
N4_2 Dy2 1_555 1_555
O8_2 Dy2 1_555 1_555
O10_2 Dy2 1_555 1_555
O4_3 Dy2_2 1_555 1_555
H3_3 O4_3 1_555 1_555
O7_3 Dy2_2 1_555 1_555
H4_3 O7_3 1_555 1_555
H5_3 O7_3 1_555 1_555
N4_3 Dy2_2 1_555 1_555
O8_3 Dy2_2 1_555 1_555
O10_3 Dy2_2 1_555 1_555
C1_3 C2_3 1_555 1_555
C2_3 C3_3 1_555 1_555
C3_3 H1_3 1_555 1_555
O1_3 C1_3 1_555 1_555
O9 C1_3 1_555 1_555
C5_3 C6_3 1_555 1_555
C6_3 C3_3 1_555 1_555
O5_3 C5_3 1_555 1_555
O6_3 C5_3 1_555 1_555
Dy4_2 O5_3 1_555 1_555
Dy3_2 N2_3 1_555 1_555
C6_3 N2_3 1_555 1_555
O6_3 Dy3_2 1_555 1_555
C4_3 N3 1_555 1_555
O3_3 C4_3 1_555 1_555
C4_4 N1_3 1_555 1_555
O3_4 C4_4 1_555 1_555
Dy2_3 N1_3 1_555 1_555
C1_4 C2_4 1_555 1_555
C2_4 C3_4 1_555 1_555
C3_4 H1_4 1_555 1_555
Dy1_2 O1_4 1_555 1_555
O1_4 C1_4 1_555 1_555
O2_3 C1_4 1_555 1_555
O4_4 Dy1_2 1_555 1_555
H2_4 O4_4 1_555 1_555
H3_4 O4_4 1_555 1_555
C5_4 C6_4 1_555 1_555
C6_4 C3_4 1_555 1_555
O5_4 C5_4 1_555 1_555
O6_4 C5_4 1_555 1_555
O7_4 Dy1_2 1_555 1_555
H4_4 O7_4 1_555 1_555
H5_4 O7_4 1_555 1_555
Dy3 O5_4 1_555 1_555
Dy3_3 N2_4 1_555 1_555
N3_2 Dy1_2 1_555 1_555
N4_4 Dy1_2 1_555 1_555
O8_4 Dy1_2 1_555 1_555
O10_4 Dy1_2 1_555 1_555
C6_4 N2_4 1_555 1_555
O6_4 Dy3_3 1_555 1_555
C1_5 C2_5 1_555 1_555
C2_5 C3_5 1_555 1_555
C3_5 H1_5 1_555 1_555
C4_5 N1_4 1_555 1_555
N1_4 C2_5 1_555 1_555
O1_5 C1_5 1_555 1_555
O2_4 C1_5 1_555 1_555
O3_5 C4_5 1_555 1_555
C5_5 C6_5 1_555 1_555
C6_5 C3_5 1_555 1_555
N2_5 C4_5 1_555 1_555
O5_5 C5_5 1_555 1_555
O6_5 C5_5 1_555 1_555
Dy2_4 N1_4 1_555 1_555
Dy4 O5_5 1_555 1_555
Dy3 N2_5 1_555 1_555
O2_4 Dy2_4 1_555 1_555
C6_5 N2_5 1_555 1_555
O6_5 Dy3 1_555 1_555
O4_5 Dy2_3 1_555 1_555
H3_5 O4_5 1_555 1_555
O7_5 Dy2_3 1_555 1_555
H4_5 O7_5 1_555 1_555
H5_5 O7_5 1_555 1_555
N4_5 Dy2_3 1_555 1_555
O8_5 Dy2_3 1_555 1_555
O10_5 Dy2_3 1_555 1_555
O4_6 Dy2_4 1_555 1_555
H3_6 O4_6 1_555 1_555
O7_6 Dy2_4 1_555 1_555
H4_6 O7_6 1_555 1_555
H5_6 O7_6 1_555 1_555
N4_6 Dy2_4 1_555 1_555
O8_6 Dy2_4 1_555 1_555
O10_6 Dy2_4 1_555 1_555
C1_6 C2_6 1_555 1_555
C2_6 C3_6 1_555 1_555
C3_6 H1_6 1_555 1_555
O1_6 C1_6 1_555 1_555
O9_2 C1_6 1_555 1_555
C5_6 C6_6 1_555 1_555
C6_6 C3_6 1_555 1_555
O5_6 C5_6 1_555 1_555
O6_6 C5_6 1_555 1_555
Dy3_3 O5_6 1_555 1_555
Dy4 N2_6 1_555 1_555
C6_6 N2_6 1_555 1_555
O6_6 Dy4 1_555 1_555
C4_6 N3_2 1_555 1_555
O3_6 C4_6 1_555 1_555
C1_7 C2_7 1_555 1_555
C2_7 C3_7 1_555 1_555
C3_7 H1_7 1_555 1_555
C4_7 N4_5 1_555 1_555
N4_5 C2_7 1_555 1_555
O8_6 C1_7 1_555 1_555
O10_5 C1_7 1_555 1_555
O3_7 C4_7 1_555 1_555
C3_8 H1_8 1_555 1_555
O3_8 C4_8 1_555 1_555
C3_9 H1_9 1_555 1_555
O3_9 C4_9 1_555 1_555
C3_10 H1_10 1_555 1_555
O3_10 C4_10 1_555 1_555
C5_7 C6_7 1_555 1_555
C6_7 C3_10 1_555 1_555
N4 C4_10 1_555 1_555
O8_2 C5_7 1_555 1_555
O10 C5_7 1_555 1_555
C6_7 N4 1_555 1_555
C3_11 H1_11 1_555 1_555
O3_11 C4_11 1_555 1_555
C3_12 H1_12 1_555 1_555
O3_12 C4_12 1_555 1_555
C5_8 C6_8 1_555 1_555
C6_8 C3_12 1_555 1_555
N4_2 C4_12 1_555 1_555
O8_3 C5_8 1_555 1_555
O10_2 C5_8 1_555 1_555
C6_8 N4_2 1_555 1_555
C1_8 C2_8 1_555 1_555
C2_8 C3_13 1_555 1_555
C3_13 H1_13 1_555 1_555
C4_13 N4_4 1_555 1_555
N4_4 C2_8 1_555 1_555
O8_5 C1_8 1_555 1_555
O10_4 C1_8 1_555 1_555
O3_13 C4_13 1_555 1_555
C3_14 H1_14 1_555 1_555
O3_14 C4_14 1_555 1_555
C1_9 C2_9 1_555 1_555
C2_9 C3_15 1_555 1_555
C3_15 H1_15 1_555 1_555
C4_15 N4_6 1_555 1_555
N4_6 C2_9 1_555 1_555
O8_4 C1_9 1_555 1_555
O10_6 C1_9 1_555 1_555
O3_15 C4_15 1_555 1_555
C3_16 H1_16 1_555 1_555
O3_16 C4_16 1_555 1_555
C5_9 C6_9 1_555 1_555
C6_9 C3_16 1_555 1_555
N4_3 C4_16 1_555 1_555
O8 C5_9 1_555 1_555
O10_3 C5_9 1_555 1_555
C6_9 N4_3 1_555 1_555
O4_7 Dy3_2 1_555 1_555
H2_7 O4_7 1_555 1_555
H3_7 O4_7 1_555 1_555
O7_7 Dy3_3 1_555 1_555
H4_7 O7_7 1_555 1_555
H5_7 O7_7 1_555 1_555
O4_8 Dy3 1_555 1_555
H2_8 O4_8 1_555 1_555
H3_8 O4_8 1_555 1_555
O7_8 Dy3 1_555 1_555
H4_8 O7_8 1_555 1_555
H5_8 O7_8 1_555 1_555
O7_9 Dy4 1_555 1_555
H4_9 O7_9 1_555 1_555
H5_9 O7_9 1_555 1_555
O4_9 Dy4_2 1_555 1_555
H2_9 O4_9 1_555 1_555
H3_9 O4_9 1_555 1_555

#END
