
###############################################################################
#
# This file contains modified crystal structure data generated from the
# MOF subset of the Cambridge Structural Database (CSD) v543 
# hosted by the Cambridge Crystallographic Data Centre (CCDC).
#
# This work is licensed under the Creative Commons
# Attribution-NonCommercial-ShareAlike 4.0 International License.
# To view a copy of this license, visit
# http://creativecommons.org/licenses/by-nc-sa/4.0/
# or send a letter to
# Creative Commons, PO Box 1866, Mountain View, CA 94042, USA.
#
# CIF created using the CSD Python API on 29 September 2022
# The structure has been converted into the P1 space group
# The structure has a 3D framework
# The original CSD entry LEZWUK is in the rhombohedral crystal system
# The framework has been calculated to contain at least 10.0% void space
# The void calculation uses a probe of radius 1.32A, grid spacing 0.4
# The framework is charged, counterions have been retained in the structure
# H atom positions have been added when not included in the experimental data
#
###############################################################################

data_LEZWUK
_chemical_formula_moiety         '(C126 H306 Lu18 N36 O408 W72)n'
_symmetry_cell_setting           triclinic
_symmetry_space_group_name_H-M   'P 1'
_symmetry_Int_Tables_number      1
_space_group_name_Hall           'P 1'
loop_
_symmetry_equiv_pos_site_id
_symmetry_equiv_pos_as_xyz
1 x,y,z
_cell_length_a                   16.6308(8)
_cell_length_b                   16.6308(8)
_cell_length_c                   51.164(5)
_cell_angle_alpha                90
_cell_angle_beta                 90
_cell_angle_gamma                120
_cell_volume                     12255.2
loop_
_atom_site_label
_atom_site_type_symbol
_atom_site_fract_x
_atom_site_fract_y
_atom_site_fract_z
Lu2 Lu 0.34318(6) 0.11574(8) 0.172782(18)
O27 O 0.3889(11) 0.0021(17) 0.1689(4)
O33 O 0.2923(13) 0.0464(17) 0.1337(3)
O36 O 0.4048(18) 0.2354(24) 0.1409(4)
O37 O 0.3465(15) 0.0804(22) 0.2155(4)
O38 O 0.2227(12) 0.1490(17) 0.1701(5)
O41 O 0.5029(11) 0.1863(18) 0.1741(5)
C10 C 0.3348(18) 0.0538(27) 0.1115(5)
O44 O 0.4058(17) 0.1235(25) 0.1044(5)
H6 H 0.3875 0.0187 0.0677
O69 O 0.3854(19) 0.2469(15) 0.1962(3)
H20 H 0.367274 0.26671 0.140485
H21 H 0.470077 0.28135 0.145405
H22 H 0.340717 0.0181503 0.216826
H23 H 0.406136 0.12756 0.223442
H24 H 0.188617 0.133473 0.186964
H25 H 0.248765 0.21607 0.166316
H42 H 0.523758 0.152806 0.162337
H43 H 0.530562 0.251803 0.168275
W1 W 0.52541(6) 0.63951(7) 0.172419(17)
W2 W 0.29141(6) 0.43915(6) 0.168371(17)
W3 W 0.39246(6) 0.59167(6) 0.111610(19)
W4 W 0.48007(7) 0.73175(7) 0.22288(2)
Lu1 Lu 0.77256(6) 0.65682(6) 0.172782(18)
O1 O 0.7789(12) 0.7989(11) 0.1799(4)
C1 C 0.6835(14) 0.7144(16) 0.0943(4)
O2 O 0.4223(10) 0.5276(10) 0.1765(3)
O3 O 0.2937(12) 0.3364(11) 0.1641(4)
O4 O 0.6132(13) 0.6111(11) 0.1689(4)
O5 O 0.6123(12) 0.7735(9) 0.1634(3)
O6 O 0.4226(11) 0.5402(11) 0.0875(3)
C2 C 0.6042(13) 0.7125(13) 0.0543(4)
O7 O 0.2627(10) 0.5506(10) 0.1792(3)
O8 O 0.4876(10) 0.6336(10) 0.1348(3)
N1 N 0.6626(17) 0.8385(15) 0.0848(5)
O9 O 0.5281(11) 0.5802(15) 0.0295(3)
O10 O 0.7541(11) 0.7077(13) 0.1337(3)
O11 O 0.2750(11) 0.4297(12) 0.2060(3)
O12 O 0.3190(10) 0.4876(10) 0.1337(3)
O13 O 0.8306(16) 0.5952(18) 0.1409(4)
O14 O 0.7339(16) 0.6535(15) 0.2155(4)
O15 O 0.9263(12) 0.7773(12) 0.1701(5)
O16 O 0.3938(11) 0.7707(10) 0.2256(3)
O17 O 0.4400(10) 0.7101(11) 0.0955(4)
O18 O 0.6834(14) 0.4971(11) 0.1741(5)
O19 O 0.5334(17) 0.7039(22) 0.0145(4)
O20 O 0.5276(13) 0.7498(12) 0.2527(3)
C3 C 0.719(2) 0.6652(18) 0.1115(5)
O21 O 0.7177(19) 0.5942(17) 0.1044(5)
C4 C 0.5507(15) 0.6615(22) 0.0309(5)
O22 O 0.3333 0.6667 0.1337(5)
O23 O 0.5479(12) 0.6691(10) 0.2081(3)
C5 C 0.6178(15) 0.7994(14) 0.0623(4)
H1 H 0.5956 0.8316 0.0517
C6 C 0.6932(17) 0.7978(17) 0.0993(5)
H2 H 0.7233 0.8365 0.1141
C7 C 0.6390(16) 0.6705(16) 0.0718(5)
H3 H 0.6312 0.6125 0.0677
W5 W 0.36049(7) 0.88590(9) 0.172419(17)
W6 W 0.56085(6) 0.85226(8) 0.168371(17)
W7 W 0.40833(6) 0.80079(8) 0.111610(19)
W8 W 0.26825(7) 0.74832(10) 0.22288(2)
O24 O 0.2011(11) 0.9800(16) 0.1799(4)
C8 C 0.2856(16) 0.9691(21) 0.0943(4)
O25 O 0.4724(10) 0.8947(14) 0.1765(3)
O26 O 0.6636(11) 0.9573(16) 0.1641(4)
O28 O 0.2265(9) 0.8388(15) 0.1634(3)
O29 O 0.4598(11) 0.8824(16) 0.0875(3)
C9 C 0.2875(13) 0.8917(18) 0.0543(4)
O30 O 0.4494(10) 0.7121(14) 0.1792(3)
O31 O 0.3664(10) 0.8540(14) 0.1348(3)
N2 N 0.1615(15) 0.8241(23) 0.0848(5)
O32 O 0.4198(15) 0.9479(19) 0.0295(3)
O34 O 0.5703(12) 0.8453(16) 0.2060(3)
O35 O 0.5124(10) 0.8314(14) 0.1337(3)
O39 O 0.2293(10) 0.6231(15) 0.2256(3)
O40 O 0.2899(11) 0.7299(15) 0.0955(4)
O42 O 0.2961(22) 0.8295(28) 0.0145(4)
O43 O 0.2502(12) 0.7778(18) 0.2527(3)
C11 C 0.3385(22) 0.8892(27) 0.0309(5)
O45 O 0.3309(10) 0.8788(16) 0.2081(3)
C12 C 0.2006(14) 0.8184(21) 0.0623(4)
H4 H 0.1684 0.7640 0.0517
C13 C 0.2022(17) 0.8954(24) 0.0993(5)
H5 H 0.1635 0.8868 0.1141
C14 C 0.3295(16) 0.9685(23) 0.0718(5)
W9 W 0.11410(9) 0.47459(6) 0.172419(17)
W10 W 0.14774(8) 0.70859(6) 0.168371(17)
W11 W 0.19921(8) 0.60754(6) 0.111610(19)
W12 W 0.25168(10) 0.51993(7) 0.22288(2)
O46 O 0.0200(16) 0.2211(12) 0.1799(4)
C15 C 0.0309(21) 0.3165(14) 0.0943(4)
O47 O 0.1053(14) 0.5777(10) 0.1765(3)
O48 O 0.0427(16) 0.7063(12) 0.1641(4)
O50 O 0.1612(15) 0.3877(12) 0.1634(3)
O51 O 0.1176(16) 0.5774(11) 0.0875(3)
C16 C 0.1083(18) 0.3958(13) 0.0543(4)
O52 O 0.2879(14) 0.7373(10) 0.1792(3)
O53 O 0.1460(14) 0.5124(10) 0.1348(3)
N3 N 0.1759(23) 0.3374(17) 0.0848(5)
O54 O 0.0521(19) 0.4719(11) 0.0295(3)
O56 O 0.1547(16) 0.7250(11) 0.2060(3)
O57 O 0.1686(14) 0.6810(10) 0.1337(3)
O61 O 0.3769(15) 0.6062(11) 0.2256(3)
O62 O 0.2701(15) 0.5600(10) 0.0955(4)
O64 O 0.1705(28) 0.4666(17) 0.0145(4)
O65 O 0.2222(18) 0.4724(13) 0.2527(3)
C18 C 0.1108(27) 0.4493(15) 0.0309(5)
O67 O 0.1212(16) 0.4521(12) 0.2081(3)
C19 C 0.1816(21) 0.3822(15) 0.0623(4)
H7 H 0.2360 0.4044 0.0517
C20 C 0.1046(24) 0.3068(17) 0.0993(5)
H8 H 0.1132 0.2767 0.1141
C21 C 0.0315(23) 0.3610(16) 0.0718(5)
Lu4 Lu 0.00985(6) 0.56077(6) 0.006115(18)
Lu5 Lu 0.55093(8) 0.99015(6) 0.006115(18)
Lu6 Lu 0.43923(6) 0.44907(8) 0.006115(18)
O70 O 0.8614(11) 0.6146(19) 0.1962(3)
H14 H 0.944856 0.811383 0.186964
H15 H 0.967305 0.751235 0.166316
H16 H 0.899436 0.632726 0.140485
H17 H 0.811272 0.529923 0.145405
H18 H 0.206247 0.946953 0.195409
H19 H 0.151994 0.996259 0.182999
H26 H 0.629048 0.476242 0.162337
H27 H 0.721242 0.469438 0.168275
H28 H 0.677434 0.659283 0.216826
H29 H 0.721423 0.593864 0.223442
H30 H 0.740707 0.793753 0.195409
H31 H 0.844265 0.848006 0.182999
H34 H 0.0530465 0.259293 0.195409
H35 H 0.00374074 0.155735 0.182999
Lu3 Lu 0.88426(8) 0.22744(6) 0.172782(18)
O49 O 0.9979(17) 0.3868(13) 0.1689(4)
O55 O 0.9536(17) 0.2459(11) 0.1337(3)
O58 O 0.7646(24) 0.1694(16) 0.1409(4)
O59 O 0.9196(22) 0.2661(16) 0.2155(4)
O60 O 0.8510(17) 0.0737(12) 0.1701(5)
O63 O 0.8137(18) 0.3166(14) 0.1741(5)
C17 C 0.9462(27) 0.281(2) 0.1115(5)
O66 O 0.8765(25) 0.2823(19) 0.1044(5)
H9 H 0.9813 0.3688 0.0677
O68 O 0.7531(15) 0.1386(11) 0.1962(3)
H32 H 0.847194 0.370952 0.162337
H33 H 0.748197 0.278758 0.168275
H36 H 0.98185 0.322566 0.216826
H37 H 0.87244 0.278577 0.223442
H38 H 0.866527 0.0551441 0.186964
H39 H 0.78393 0.0326952 0.166316
H40 H 0.73329 0.100564 0.140485
H41 H 0.71865 0.188728 0.145405
Lu3_2 Lu 0.77256(6) 0.11574(8) 0.672782(18)
O49_2 O 0.6132(13) 0.0021(17) 0.6689(4)
O55_2 O 0.7541(11) 0.0464(17) 0.6337(3)
O58_2 O 0.8306(16) 0.2354(24) 0.6409(4)
O59_2 O 0.7339(16) 0.0804(22) 0.7155(4)
O60_2 O 0.9263(12) 0.1490(17) 0.6701(5)
O63_2 O 0.6834(14) 0.1863(18) 0.6741(5)
C17_2 C 0.719(2) 0.0538(27) 0.6115(5)
O66_2 O 0.7177(19) 0.1235(25) 0.6044(5)
H9_2 H 0.6312 0.0187 0.5677
O68_2 O 0.8614(11) 0.2469(15) 0.6962(3)
H32_2 H 0.629048 0.152806 0.662337
H33_2 H 0.721242 0.251803 0.668275
H36_2 H 0.677434 0.0181503 0.716826
H37_2 H 0.721423 0.12756 0.723442
H38_2 H 0.944856 0.133473 0.686964
H39_2 H 0.967305 0.21607 0.666316
H40_2 H 0.899436 0.26671 0.640485
H41_2 H 0.811272 0.28135 0.645405
W1_2 W 0.36049(7) 0.47459(6) 0.672419(17)
W2_2 W 0.56085(6) 0.70859(6) 0.668371(17)
W3_2 W 0.40833(6) 0.60754(6) 0.611610(19)
W4_2 W 0.26825(7) 0.51993(7) 0.72288(2)
Lu1_2 Lu 0.34318(6) 0.22744(6) 0.672782(18)
O1_2 O 0.2011(11) 0.2211(12) 0.6799(4)
C1_2 C 0.2856(16) 0.3165(14) 0.5943(4)
O2_2 O 0.4724(10) 0.5777(10) 0.6765(3)
O3_2 O 0.6636(11) 0.7063(12) 0.6641(4)
O4_2 O 0.3889(11) 0.3868(13) 0.6689(4)
O5_2 O 0.2265(9) 0.3877(12) 0.6634(3)
O6_2 O 0.4598(11) 0.5774(11) 0.5875(3)
C2_2 C 0.2875(13) 0.3958(13) 0.5543(4)
O7_2 O 0.4494(10) 0.7373(10) 0.6792(3)
O8_2 O 0.3664(10) 0.5124(10) 0.6348(3)
N1_2 N 0.1615(15) 0.3374(17) 0.5848(5)
O9_2 O 0.4198(15) 0.4719(11) 0.5295(3)
O10_2 O 0.2923(13) 0.2459(11) 0.6337(3)
O11_2 O 0.5703(12) 0.7250(11) 0.7060(3)
O12_2 O 0.5124(10) 0.6810(10) 0.6337(3)
O13_2 O 0.4048(18) 0.1694(16) 0.6409(4)
O14_2 O 0.3465(15) 0.2661(16) 0.7155(4)
O15_2 O 0.2227(12) 0.0737(12) 0.6701(5)
O16_2 O 0.2293(10) 0.6062(11) 0.7256(3)
O17_2 O 0.2899(11) 0.5600(10) 0.5955(4)
O18_2 O 0.5029(11) 0.3166(14) 0.6741(5)
O19_2 O 0.2961(22) 0.4666(17) 0.5145(4)
O20_2 O 0.2502(12) 0.4724(13) 0.7527(3)
C3_2 C 0.3348(18) 0.281(2) 0.6115(5)
O21_2 O 0.4058(17) 0.2823(19) 0.6044(5)
C4_2 C 0.3385(22) 0.4493(15) 0.5309(5)
O22_2 O 0.3333 0.6667 0.6337(5)
O23_2 O 0.3309(10) 0.4521(12) 0.7081(3)
C5_2 C 0.2006(14) 0.3822(15) 0.5623(4)
H1_2 H 0.1684 0.4044 0.5517
C6_2 C 0.2022(17) 0.3068(17) 0.5993(5)
H2_2 H 0.1635 0.2767 0.6141
C7_2 C 0.3295(16) 0.3610(16) 0.5718(5)
H3_2 H 0.3875 0.3688 0.5677
W5_2 W 0.11410(9) 0.63951(7) 0.672419(17)
W6_2 W 0.14774(8) 0.43915(6) 0.668371(17)
W7_2 W 0.19921(8) 0.59167(6) 0.611610(19)
W8_2 W 0.25168(10) 0.73175(7) 0.72288(2)
O24_2 O 0.0200(16) 0.7989(11) 0.6799(4)
C8_2 C 0.0309(21) 0.7144(16) 0.5943(4)
O25_2 O 0.1053(14) 0.5276(10) 0.6765(3)
O26_2 O 0.0427(16) 0.3364(11) 0.6641(4)
O28_2 O 0.1612(15) 0.7735(9) 0.6634(3)
O29_2 O 0.1176(16) 0.5402(11) 0.5875(3)
C9_2 C 0.1083(18) 0.7125(13) 0.5543(4)
O30_2 O 0.2879(14) 0.5506(10) 0.6792(3)
O31_2 O 0.1460(14) 0.6336(10) 0.6348(3)
N2_2 N 0.1759(23) 0.8385(15) 0.5848(5)
O32_2 O 0.0521(19) 0.5802(15) 0.5295(3)
O34_2 O 0.1547(16) 0.4297(12) 0.7060(3)
O35_2 O 0.1686(14) 0.4876(10) 0.6337(3)
O39_2 O 0.3769(15) 0.7707(10) 0.7256(3)
O40_2 O 0.2701(15) 0.7101(11) 0.5955(4)
O42_2 O 0.1705(28) 0.7039(22) 0.5145(4)
O43_2 O 0.2222(18) 0.7498(12) 0.7527(3)
C11_2 C 0.1108(27) 0.6615(22) 0.5309(5)
O45_2 O 0.1212(16) 0.6691(10) 0.7081(3)
C12_2 C 0.1816(21) 0.7994(14) 0.5623(4)
H4_2 H 0.2360 0.8316 0.5517
C13_2 C 0.1046(24) 0.7978(17) 0.5993(5)
H5_2 H 0.1132 0.8365 0.6141
C14_2 C 0.0315(23) 0.6705(16) 0.5718(5)
W9_2 W 0.52541(6) 0.88590(9) 0.672419(17)
W10_2 W 0.29141(6) 0.85226(8) 0.668371(17)
W11_2 W 0.39246(6) 0.80079(8) 0.611610(19)
W12_2 W 0.48007(7) 0.74832(10) 0.72288(2)
O46_2 O 0.7789(12) 0.9800(16) 0.6799(4)
C15_2 C 0.6835(14) 0.9691(21) 0.5943(4)
O47_2 O 0.4223(10) 0.8947(14) 0.6765(3)
O48_2 O 0.2937(12) 0.9573(16) 0.6641(4)
O50_2 O 0.6123(12) 0.8388(15) 0.6634(3)
O51_2 O 0.4226(11) 0.8824(16) 0.5875(3)
C16_2 C 0.6042(13) 0.8917(18) 0.5543(4)
O52_2 O 0.2627(10) 0.7121(14) 0.6792(3)
O53_2 O 0.4876(10) 0.8540(14) 0.6348(3)
N3_2 N 0.6626(17) 0.8241(23) 0.5848(5)
O54_2 O 0.5281(11) 0.9479(19) 0.5295(3)
O56_2 O 0.2750(11) 0.8453(16) 0.7060(3)
O57_2 O 0.3190(10) 0.8314(14) 0.6337(3)
O61_2 O 0.3938(11) 0.6231(15) 0.7256(3)
O62_2 O 0.4400(10) 0.7299(15) 0.5955(4)
O64_2 O 0.5334(17) 0.8295(28) 0.5145(4)
O65_2 O 0.5276(13) 0.7778(18) 0.7527(3)
C18_2 C 0.5507(15) 0.8892(27) 0.5309(5)
O67_2 O 0.5479(12) 0.8788(16) 0.7081(3)
C19_2 C 0.6178(15) 0.8184(21) 0.5623(4)
H7_2 H 0.5956 0.7640 0.5517
C20_2 C 0.6932(17) 0.8954(24) 0.5993(5)
H8_2 H 0.7233 0.8868 0.6141
C21_2 C 0.6390(16) 0.9685(23) 0.5718(5)
Lu4_2 Lu 0.43923(6) 0.99015(6) 0.506115(18)
Lu5_2 Lu 0.00985(6) 0.44907(8) 0.506115(18)
Lu6_2 Lu 0.55093(8) 0.56077(6) 0.506115(18)
O70_2 O 0.3854(19) 0.1386(11) 0.6962(3)
H14_2 H 0.188617 0.0551441 0.686964
H15_2 H 0.248765 0.0326952 0.666316
H16_2 H 0.367274 0.100564 0.640485
H17_2 H 0.470077 0.188728 0.645405
H18_2 H 0.0530465 0.793753 0.695409
H19_2 H 0.00374074 0.848006 0.682999
H26_2 H 0.523758 0.370952 0.662337
H27_2 H 0.530562 0.278758 0.668275
H28_2 H 0.340717 0.322566 0.716826
H29_2 H 0.406136 0.278577 0.723442
H30_2 H 0.206247 0.259293 0.695409
H31_2 H 0.151994 0.155735 0.682999
H34_2 H 0.740707 0.946953 0.695409
H35_2 H 0.844265 0.996259 0.682999
Lu2_2 Lu 0.88426(8) 0.65682(6) 0.672782(18)
O27_2 O 0.9979(17) 0.6111(11) 0.6689(4)
O33_2 O 0.9536(17) 0.7077(13) 0.6337(3)
O36_2 O 0.7646(24) 0.5952(18) 0.6409(4)
O37_2 O 0.9196(22) 0.6535(15) 0.7155(4)
O38_2 O 0.8510(17) 0.7773(12) 0.6701(5)
O41_2 O 0.8137(18) 0.4971(11) 0.6741(5)
C10_2 C 0.9462(27) 0.6652(18) 0.6115(5)
O44_2 O 0.8765(25) 0.5942(17) 0.6044(5)
H6_2 H 0.9813 0.6125 0.5677
O69_2 O 0.7531(15) 0.6146(19) 0.6962(3)
H20_2 H 0.73329 0.632726 0.640485
H21_2 H 0.71865 0.529923 0.645405
H22_2 H 0.98185 0.659283 0.716826
H23_2 H 0.87244 0.593864 0.723442
H24_2 H 0.866527 0.811383 0.686964
H25_2 H 0.78393 0.751235 0.666316
H42_2 H 0.847194 0.476242 0.662337
H43_2 H 0.748197 0.469438 0.668275
W4_3 W 0.14674(7) 0.06508(7) 0.55621(2)
O1_3 O 0.4456(12) 0.1322(11) 0.5132(4)
C1_3 C 0.3502(14) 0.0477(16) 0.4276(4)
O5_3 O 0.2790(12) 0.1068(9) 0.4967(3)
C2_3 C 0.2709(13) 0.0458(13) 0.3876(4)
N1_3 N 0.3293(17) 0.1718(15) 0.4181(5)
O10_3 O 0.4208(11) 0.0410(13) 0.4670(3)
O15_3 O 0.5930(12) 0.1106(12) 0.5034(5)
O16_3 O 0.0605(11) 0.1040(10) 0.5589(3)
O17_3 O 0.1067(10) 0.0434(11) 0.4288(4)
O19_3 O 0.2001(17) 0.0372(22) 0.3478(4)
O20_3 O 0.1943(13) 0.0831(12) 0.5860(3)
O22_3 O -0.0000 0.0000 0.4670(5)
O23_3 O 0.2146(12) 0.0024(10) 0.5414(3)
C5_3 C 0.2845(15) 0.1327(14) 0.3956(4)
H1_3 H 0.2623 0.1649 0.3850
C6_3 C 0.3599(17) 0.1311(17) 0.4326(5)
H2_3 H 0.3900 0.1698 0.4474
C7_3 C 0.3057(16) 0.0038(16) 0.4051(5)
W5_3 W 0.02716(7) 0.21923(9) 0.505752(17)
W6_3 W 0.22752(6) 0.18559(8) 0.501704(17)
W7_3 W 0.07500(6) 0.13412(8) 0.444943(19)
O25_3 O 0.1391(10) 0.2280(14) 0.5098(3)
O26_3 O 0.3303(11) 0.2906(16) 0.4974(4)
O27_3 O 0.0556(11) 0.3354(17) 0.5022(4)
O29_3 O 0.1265(11) 0.2157(16) 0.4208(3)
O30_3 O 0.1161(10) 0.0454(14) 0.5125(3)
O31_3 O 0.0331(10) 0.1873(14) 0.4681(3)
O32_3 O 0.0865(15) 0.2812(19) 0.3628(3)
O34_3 O 0.2370(12) 0.1786(16) 0.5393(3)
O35_3 O 0.1791(10) 0.1647(14) 0.4670(3)
O36_3 O 0.0715(18) 0.5687(24) 0.4742(4)
O37_3 O 0.0132(15) 0.4137(22) 0.5488(4)
O41_3 O 0.1696(11) 0.5196(18) 0.5074(5)
C10_3 C 0.0015(18) 0.3871(27) 0.4448(5)
O44_3 O 0.0725(17) 0.4568(25) 0.4377(5)
C11_3 C 0.0052(22) 0.2225(27) 0.3642(5)
H6_3 H 0.0542 0.3520 0.4010
Lu5_3 Lu 0.21759(8) 0.32349(6) 0.339449(18)
H14_3 H 0.611523 0.144717 0.520297
H15_3 H 0.633971 0.0845679 0.49965
H20_3 H 0.0339408 0.600044 0.473818
H21_3 H 0.136744 0.614683 0.478738
H22_3 H 0.00738341 0.351484 0.550159
H23_3 H 0.072803 0.460893 0.556775
H30_3 H 0.407373 0.127086 0.528742
H31_3 H 0.510932 0.181339 0.516333
H42_3 H 0.190425 0.486139 0.495671
H43_3 H 0.197228 0.585137 0.501608
W1_3 W 0.19208(6) 0.97284(7) 0.505752(17)
W3_3 W 0.05913(6) 0.92500(6) 0.444943(19)
O2_3 O 0.0890(10) 0.8609(10) 0.5098(3)
O4_3 O 0.2799(13) 0.9444(11) 0.5022(4)
O6_3 O 0.0893(11) 0.8735(11) 0.4208(3)
O8_3 O 0.1543(10) 0.9669(10) 0.4681(3)
O9_3 O 0.1948(11) 0.9135(15) 0.3628(3)
O13_3 O 0.4973(16) 0.9285(18) 0.4742(4)
O14_3 O 0.4006(16) 0.9868(15) 0.5488(4)
O18_3 O 0.3501(14) 0.8304(11) 0.5074(5)
C3_3 C 0.386(2) 0.9985(18) 0.4448(5)
O21_3 O 0.3844(19) 0.9275(17) 0.4377(5)
C4_3 C 0.2174(15) 0.9948(22) 0.3642(5)
O22_4 O -0.0000 1.0000 0.4670(5)
H3_3 H 0.2979 0.9458 0.4010
O61_3 O 0.0436(15) 0.9395(11) 0.5589(3)
Lu6_3 Lu 0.10589(6) 0.78241(8) 0.339449(18)
H16_3 H 0.566103 0.966059 0.473818
H17_3 H 0.477939 0.863256 0.478738
H26_3 H 0.295714 0.809575 0.495671
H27_3 H 0.387908 0.802772 0.501608
H28_3 H 0.3441 0.992617 0.550159
H29_3 H 0.38809 0.927197 0.556775
W2_3 W 0.95808(6) 0.77248(6) 0.501704(17)
O3_3 O 0.9604(12) 0.6697(11) 0.4974(4)
O7_3 O 0.9294(10) 0.8839(10) 0.5125(3)
O11_3 O 0.9417(11) 0.7630(12) 0.5393(3)
O12_3 O 0.9857(10) 0.8209(10) 0.4670(3)
O22_5 O 1.0000 1.0000 0.4670(5)
O39_3 O 0.8960(10) 0.9564(15) 0.5589(3)
W9_3 W 0.78077(9) 0.80792(6) 0.505752(17)
W11_3 W 0.86588(8) 0.94087(6) 0.444943(19)
W12_3 W 0.91835(10) 0.85326(7) 0.55621(2)
O46_3 O 0.6867(16) 0.5544(12) 0.5132(4)
C15_3 C 0.6976(21) 0.6498(14) 0.4276(4)
O47_3 O 0.7720(14) 0.9110(10) 0.5098(3)
O49_3 O 0.6646(17) 0.7201(13) 0.5022(4)
O50_3 O 0.8279(15) 0.7210(12) 0.4967(3)
O51_3 O 0.7843(16) 0.9107(11) 0.4208(3)
C16_3 C 0.7750(18) 0.7291(13) 0.3876(4)
O53_3 O 0.8127(14) 0.8457(10) 0.4681(3)
N3_3 N 0.8426(23) 0.6707(17) 0.4181(5)
O54_3 O 0.7188(19) 0.8052(11) 0.3628(3)
O55_3 O 0.6203(17) 0.5792(11) 0.4670(3)
O58_3 O 0.4313(24) 0.5027(16) 0.4742(4)
O59_3 O 0.5863(22) 0.5994(16) 0.5488(4)
O60_3 O 0.5177(17) 0.4070(12) 0.5034(5)
O62_3 O 0.9368(15) 0.8933(10) 0.4288(4)
O63_3 O 0.4804(18) 0.6499(14) 0.5074(5)
O64_3 O 0.8372(28) 0.7999(17) 0.3478(4)
O65_3 O 0.8889(18) 0.8057(13) 0.5860(3)
C17_3 C 0.6129(27) 0.614(2) 0.4448(5)
O66_3 O 0.5432(25) 0.6156(19) 0.4377(5)
C18_3 C 0.7775(27) 0.7826(15) 0.3642(5)
O67_3 O 0.7879(16) 0.7854(12) 0.5414(3)
C19_3 C 0.8483(21) 0.7155(15) 0.3956(4)
H7_3 H 0.9027 0.7377 0.3850
C20_3 C 0.7713(24) 0.6401(17) 0.4326(5)
H8_3 H 0.7799 0.6100 0.4474
C21_3 C 0.6982(23) 0.6943(16) 0.4051(5)
H9_3 H 0.6480 0.7021 0.4010
Lu4_3 Lu 0.67651(6) 0.89411(6) 0.339449(18)
H32_3 H 0.513861 0.704286 0.495671
H33_3 H 0.414863 0.612092 0.501608
H34_3 H 0.719713 0.592627 0.528742
H35_3 H 0.670407 0.489068 0.516333
H36_3 H 0.648516 0.6559 0.550159
H37_3 H 0.539107 0.61191 0.556775
H38_3 H 0.533194 0.388477 0.520297
H39_3 H 0.450596 0.366029 0.49965
H40_3 H 0.399956 0.433897 0.473818
H41_3 H 0.385317 0.522061 0.478738
W2_4 W 0.22752(6) 0.04192(6) 0.001704(17)
O7_4 O 0.1161(10) 0.0706(10) 0.0125(3)
O11_4 O 0.2370(12) 0.0583(11) 0.0393(3)
O39_4 O 0.0436(15) 0.1040(10) 0.0589(3)
W9_4 W 0.19208(6) 0.21923(9) 0.005752(17)
W12_4 W 0.14674(7) 0.08165(10) 0.05621(2)
O46_4 O 0.4456(12) 0.3133(16) 0.0132(4)
O47_4 O 0.0890(10) 0.2280(14) 0.0098(3)
O49_4 O 0.2799(13) 0.3354(17) 0.0022(4)
O59_4 O 0.4006(16) 0.4137(22) 0.0488(4)
O60_4 O 0.5930(12) 0.4823(17) 0.0034(5)
O63_4 O 0.3501(14) 0.5196(18) 0.0074(5)
O65_4 O 0.1943(13) 0.1111(18) 0.0860(3)
O67_4 O 0.2146(12) 0.2121(16) 0.0414(3)
H33_4 H 0.387908 0.585137 0.0016081
H34_4 H 0.407373 0.280287 0.0287421
H35_4 H 0.510932 0.329593 0.0163326
H36_4 H 0.3441 0.351484 0.0501592
H37_4 H 0.38809 0.460893 0.0567754
H38_4 H 0.611523 0.466806 0.0202969
W1_4 W 0.02716(7) 0.80792(6) 0.005752(17)
O2_4 O 0.1391(10) 0.9110(10) 0.0098(3)
O4_4 O 0.0556(11) 0.7201(13) 0.0022(4)
O14_4 O 0.0132(15) 0.5994(16) 0.0488(4)
O18_4 O 0.1696(11) 0.6499(14) 0.0074(5)
O61_4 O 0.0605(11) 0.9564(15) 0.0589(3)
H27_4 H 0.197228 0.612092 0.0016081
H28_4 H 0.00738341 0.6559 0.0501592
H29_4 H 0.072803 0.61191 0.0567754
W4_4 W 0.93492(7) 0.85326(7) 0.05621(2)
O1_4 O 0.8678(11) 0.5544(12) 0.0132(4)
O15_4 O 0.8894(12) 0.4070(12) 0.0034(5)
O16_4 O 0.8960(10) 0.9395(11) 0.0589(3)
O20_4 O 0.9169(12) 0.8057(13) 0.0860(3)
O23_4 O 0.9976(10) 0.7854(12) 0.0414(3)
W5_4 W 0.78077(9) 0.97284(7) 0.005752(17)
W6_4 W 0.81441(8) 0.77248(6) 0.001704(17)
O25_4 O 0.7720(14) 0.8609(10) 0.0098(3)
O27_4 O 0.6646(17) 0.9444(11) 0.0022(4)
O30_4 O 0.9546(14) 0.8839(10) 0.0125(3)
O34_4 O 0.8214(16) 0.7630(12) 0.0393(3)
O37_4 O 0.5863(22) 0.9868(15) 0.0488(4)
O41_4 O 0.4804(18) 0.8304(11) 0.0074(5)
H14_4 H 0.855283 0.388477 0.0202969
H22_4 H 0.648516 0.992617 0.0501592
H23_4 H 0.539107 0.927197 0.0567754
H30_4 H 0.872914 0.592627 0.0287421
H31_4 H 0.818661 0.489068 0.0163326
H43_4 H 0.414863 0.802772 0.0016081
C1_4 C 0.9523(16) 0.6498(14) 0.9276(4)
O5_4 O 0.8932(9) 0.7210(12) 0.9967(3)
C2_4 C 0.9542(13) 0.7291(13) 0.8876(4)
N1_4 N 0.8282(15) 0.6707(17) 0.9181(5)
O10_4 O 0.9590(13) 0.5792(11) 0.9670(3)
O17_4 O 0.9566(11) 0.8933(10) 0.9288(4)
O19_4 O 0.9628(22) 0.7999(17) 0.8478(4)
O22_6 O 1.0000 1.0000 0.9670(5)
C5_4 C 0.8673(14) 0.7155(15) 0.8956(4)
H1_4 H 0.8351 0.7377 0.8850
C6_4 C 0.8689(17) 0.6401(17) 0.9326(5)
H2_4 H 0.8302 0.6100 0.9474
C7_4 C 0.9962(16) 0.6943(16) 0.9051(5)
W7_4 W 0.86588(8) 0.92500(6) 0.944943(19)
O26_4 O 0.7094(16) 0.6697(11) 0.9974(4)
O29_4 O 0.7843(16) 0.8735(11) 0.9208(3)
O31_4 O 0.8127(14) 0.9669(10) 0.9681(3)
O32_4 O 0.7188(19) 0.9135(15) 0.8628(3)
O35_4 O 0.8353(14) 0.8209(10) 0.9670(3)
O36_4 O 0.4313(24) 0.9285(18) 0.9742(4)
C10_4 C 0.6129(27) 0.9985(18) 0.9448(5)
O44_4 O 0.5432(25) 0.9275(17) 0.9377(5)
C11_4 C 0.7775(27) 0.9948(22) 0.8642(5)
H6_4 H 0.6480 0.9458 0.9010
Lu5_4 Lu 0.67651(6) 0.78241(8) 0.839449(18)
H15_4 H 0.915432 0.366029 0.99965
H20_4 H 0.399956 0.966059 0.973818
H21_4 H 0.385317 0.863256 0.978738
H42_4 H 0.513861 0.809575 0.995671
W1_5 W 0.85874(6) 0.30618(7) 0.839086(17)
W2_5 W 0.62474(6) 0.10582(6) 0.835038(17)
W3_4 W 0.72579(6) 0.25834(6) 0.778277(19)
W4_5 W 0.81340(7) 0.39842(7) 0.88955(2)
O2_5 O 0.7556(10) 0.1943(10) 0.8432(3)
O3_4 O 0.6270(12) 0.0031(11) 0.8308(4)
O4_5 O 0.9465(13) 0.2778(11) 0.8356(4)
O5_5 O 0.9456(12) 0.4402(9) 0.8301(3)
O6_4 O 0.7559(11) 0.2069(11) 0.7542(3)
C2_5 C 0.9375(13) 0.3792(13) 0.7210(4)
O7_5 O 0.5960(10) 0.2173(10) 0.8459(3)
O8_4 O 0.8209(10) 0.3003(10) 0.8015(3)
N1_5 N 0.9959(17) 0.5052(15) 0.7515(5)
O11_5 O 0.6083(11) 0.0964(12) 0.8727(3)
O12_4 O 0.6523(10) 0.1543(10) 0.8004(3)
O16_5 O 0.7271(11) 0.4374(10) 0.8923(3)
O17_5 O 0.7733(10) 0.3768(11) 0.7622(4)
O19_5 O 0.8667(17) 0.3706(22) 0.6812(4)
O20_5 O 0.8609(13) 0.4165(12) 0.9194(3)
C4_4 C 0.8840(15) 0.3282(22) 0.6976(5)
O22_7 O 0.6666 0.3334 0.8004(5)
O23_5 O 0.8812(12) 0.3358(10) 0.8748(3)
C5_5 C 0.9511(15) 0.4661(14) 0.7290(4)
H1_5 H 0.9289 0.4983 0.7184
C7_5 C 0.9723(16) 0.3372(16) 0.7385(5)
H3_4 H 0.9645 0.2792 0.7344
W5_5 W 0.69382(7) 0.55257(9) 0.839086(17)
W6_5 W 0.89418(6) 0.51893(8) 0.835038(17)
W7_5 W 0.74166(6) 0.46746(8) 0.778277(19)
W8_3 W 0.60158(7) 0.41499(10) 0.88955(2)
O24_3 O 0.5344(11) 0.6467(16) 0.8466(4)
C8_3 C 0.6189(16) 0.6358(21) 0.7610(4)
O25_5 O 0.8057(10) 0.5614(14) 0.8432(3)
O26_5 O 0.9969(11) 0.6240(16) 0.8308(4)
O27_5 O 0.7222(11) 0.6688(17) 0.8356(4)
O28_3 O 0.5598(9) 0.5055(15) 0.8301(3)
O29_5 O 0.7931(11) 0.5491(16) 0.7542(3)
C9_3 C 0.6208(13) 0.5584(18) 0.7210(4)
O30_5 O 0.7827(10) 0.3788(14) 0.8459(3)
O31_5 O 0.6997(10) 0.5207(14) 0.8015(3)
N2_3 N 0.4948(15) 0.4908(23) 0.7515(5)
O33_3 O 0.6256(13) 0.7131(17) 0.8004(3)
O34_5 O 0.9036(12) 0.5120(16) 0.8727(3)
O35_5 O 0.8457(10) 0.4981(14) 0.8004(3)
O36_5 O 0.7381(18) 0.9021(24) 0.8076(4)
O37_5 O 0.6798(15) 0.7471(22) 0.8822(4)
O38_3 O 0.5560(12) 0.8157(17) 0.8368(5)
O39_5 O 0.5626(10) 0.2898(15) 0.8923(3)
O40_3 O 0.6232(11) 0.3966(15) 0.7622(4)
O41_5 O 0.8362(11) 0.8530(18) 0.8408(5)
O42_3 O 0.6294(22) 0.4962(28) 0.6812(4)
O43_3 O 0.5835(12) 0.4445(18) 0.9194(3)
C10_5 C 0.6681(18) 0.7205(27) 0.7782(5)
O44_5 O 0.7391(17) 0.7902(25) 0.7711(5)
C11_5 C 0.6718(22) 0.5559(27) 0.6976(5)
O45_3 O 0.6642(10) 0.5455(16) 0.8748(3)
C12_3 C 0.5339(14) 0.4851(21) 0.7290(4)
H4_3 H 0.5017 0.4307 0.7184
C13_3 C 0.5355(17) 0.5621(24) 0.7660(5)
H5_3 H 0.4968 0.5535 0.7808
C14_3 C 0.6628(16) 0.6352(23) 0.7385(5)
H6_5 H 0.7208 0.6854 0.7344
W9_5 W 0.44743(9) 0.14126(6) 0.839086(17)
W10_3 W 0.48107(8) 0.37526(6) 0.835038(17)
W11_4 W 0.53254(8) 0.27421(6) 0.778277(19)
W12_5 W 0.58501(10) 0.18660(7) 0.88955(2)
O47_5 O 0.4386(14) 0.2444(10) 0.8432(3)
O48_3 O 0.3760(16) 0.3730(12) 0.8308(4)
O49_5 O 0.3312(17) 0.0535(13) 0.8356(4)
O50_4 O 0.4945(15) 0.0544(12) 0.8301(3)
O51_4 O 0.4509(16) 0.2441(11) 0.7542(3)
C16_4 C 0.4416(18) 0.0625(13) 0.7210(4)
O52_3 O 0.6212(14) 0.4040(10) 0.8459(3)
O53_4 O 0.4793(14) 0.1791(10) 0.8015(3)
N3_4 N 0.5092(23) 0.0041(17) 0.7515(5)
O56_3 O 0.4880(16) 0.3917(11) 0.8727(3)
O57_3 O 0.5019(14) 0.3477(10) 0.8004(3)
O61_5 O 0.7102(15) 0.2729(11) 0.8923(3)
O62_4 O 0.6034(15) 0.2267(10) 0.7622(4)
O64_4 O 0.5038(28) 0.1333(17) 0.6812(4)
O65_5 O 0.5555(18) 0.1391(13) 0.9194(3)
C18_4 C 0.4441(27) 0.1160(15) 0.6976(5)
O67_5 O 0.4545(16) 0.1188(12) 0.8748(3)
C19_4 C 0.5149(21) 0.0489(15) 0.7290(4)
H7_4 H 0.5693 0.0711 0.7184
C21_4 C 0.3648(23) 0.0277(16) 0.7385(5)
H9_4 H 0.3146 0.0355 0.7344
H18_3 H 0.53958 0.61362 0.862075
H19_3 H 0.485327 0.662926 0.849666
H20_5 H 0.700607 0.933377 0.807151
H21_5 H 0.803411 0.948016 0.812072
H22_5 H 0.67405 0.684817 0.883493
H23_5 H 0.73947 0.794226 0.890109
H24_3 H 0.52195 0.800139 0.85363
H25_3 H 0.582099 0.882737 0.832983
H26_4 H 0.962381 0.142908 0.829004
H32_4 H 0.180527 0.0376191 0.829004
H42_5 H 0.857092 0.819473 0.829004
H43_5 H 0.863895 0.91847 0.834941
O46_5 O 0.1122(12) 0.6467(16) 0.3466(4)
C15_4 C 0.0168(14) 0.6358(21) 0.2610(4)
O55_4 O 0.0874(11) 0.7131(17) 0.3004(3)
O58_4 O 0.1639(16) 0.9021(24) 0.3076(4)
O59_5 O 0.0672(16) 0.7471(22) 0.3822(4)
O60_5 O 0.2596(12) 0.8157(17) 0.3368(5)
O63_5 O 0.0167(14) 0.8530(18) 0.3408(5)
C17_4 C 0.052(2) 0.7205(27) 0.2782(5)
O66_4 O 0.0510(19) 0.7902(25) 0.2711(5)
C20_4 C 0.0265(17) 0.5621(24) 0.2660(5)
H8_4 H 0.0566 0.5535 0.2808
H33_5 H 0.054575 0.91847 0.334941
H34_5 H 0.07404 0.61362 0.362075
H35_5 H 0.177599 0.662926 0.349666
H36_5 H 0.0107669 0.684817 0.383493
H37_5 H 0.0547568 0.794226 0.390109
H38_5 H 0.278189 0.800139 0.35363
H39_4 H 0.300638 0.882737 0.332983
H40_4 H 0.232769 0.933377 0.307151
H41_4 H 0.144606 0.948016 0.312072
W1_6 W 0.69382(7) 0.14126(6) 0.339086(17)
W2_6 W 0.89418(6) 0.37526(6) 0.335038(17)
W3_5 W 0.74166(6) 0.27421(6) 0.278277(19)
W4_6 W 0.60158(7) 0.18660(7) 0.38955(2)
O2_6 O 0.8057(10) 0.2444(10) 0.3432(3)
O3_5 O 0.9969(11) 0.3730(12) 0.3308(4)
O4_6 O 0.7222(11) 0.0535(13) 0.3356(4)
O5_6 O 0.5598(9) 0.0544(12) 0.3301(3)
O6_5 O 0.7931(11) 0.2441(11) 0.2542(3)
C2_6 C 0.6208(13) 0.0625(13) 0.2210(4)
O7_6 O 0.7827(10) 0.4040(10) 0.3459(3)
O8_5 O 0.6997(10) 0.1791(10) 0.3015(3)
N1_6 N 0.4948(15) 0.0041(17) 0.2515(5)
O11_6 O 0.9036(12) 0.3917(11) 0.3727(3)
O12_5 O 0.8457(10) 0.3477(10) 0.3004(3)
O16_6 O 0.5626(10) 0.2729(11) 0.3923(3)
O17_6 O 0.6232(11) 0.2267(10) 0.2622(4)
O19_6 O 0.6294(22) 0.1333(17) 0.1812(4)
O20_6 O 0.5835(12) 0.1391(13) 0.4194(3)
C4_5 C 0.6718(22) 0.1160(15) 0.1976(5)
O22_8 O 0.6666 0.3334 0.3004(5)
O23_6 O 0.6642(10) 0.1188(12) 0.3748(3)
C5_6 C 0.5339(14) 0.0489(15) 0.2290(4)
H1_6 H 0.5017 0.0711 0.2184
C7_6 C 0.6628(16) 0.0277(16) 0.2385(5)
H3_5 H 0.7208 0.0355 0.2344
W5_6 W 0.44743(9) 0.30618(7) 0.339086(17)
W6_6 W 0.48107(8) 0.10582(6) 0.335038(17)
W7_6 W 0.53254(8) 0.25834(6) 0.278277(19)
W8_4 W 0.58501(10) 0.39842(7) 0.38955(2)
O24_4 O 0.3533(16) 0.4656(11) 0.3466(4)
C8_4 C 0.3642(21) 0.3811(16) 0.2610(4)
O25_6 O 0.4386(14) 0.1943(10) 0.3432(3)
O26_6 O 0.3760(16) 0.0031(11) 0.3308(4)
O27_6 O 0.3312(17) 0.2778(11) 0.3356(4)
O28_4 O 0.4945(15) 0.4402(9) 0.3301(3)
O29_6 O 0.4509(16) 0.2069(11) 0.2542(3)
C9_4 C 0.4416(18) 0.3792(13) 0.2210(4)
O30_6 O 0.6212(14) 0.2173(10) 0.3459(3)
O31_6 O 0.4793(14) 0.3003(10) 0.3015(3)
N2_4 N 0.5092(23) 0.5052(15) 0.2515(5)
O33_4 O 0.2869(17) 0.3744(13) 0.3004(3)
O34_6 O 0.4880(16) 0.0964(12) 0.3727(3)
O35_6 O 0.5019(14) 0.1543(10) 0.3004(3)
O36_6 O 0.0979(24) 0.2619(18) 0.3076(4)
O37_6 O 0.2529(22) 0.3202(15) 0.3822(4)
O38_4 O 0.1843(17) 0.4440(12) 0.3368(5)
O39_6 O 0.7102(15) 0.4374(10) 0.3923(3)
O40_4 O 0.6034(15) 0.3768(11) 0.2622(4)
O41_6 O 0.1470(18) 0.1638(11) 0.3408(5)
O42_4 O 0.5038(28) 0.3706(22) 0.1812(4)
O43_4 O 0.5555(18) 0.4165(12) 0.4194(3)
C10_6 C 0.2795(27) 0.3319(18) 0.2782(5)
O44_6 O 0.2098(25) 0.2609(17) 0.2711(5)
C11_6 C 0.4441(27) 0.3282(22) 0.1976(5)
O45_4 O 0.4545(16) 0.3358(10) 0.3748(3)
C12_4 C 0.5149(21) 0.4661(14) 0.2290(4)
H4_4 H 0.5693 0.4983 0.2184
C13_4 C 0.4379(24) 0.4645(17) 0.2660(5)
H5_4 H 0.4465 0.5032 0.2808
C14_4 C 0.3648(23) 0.3372(16) 0.2385(5)
H6_6 H 0.3146 0.2792 0.2344
W9_6 W 0.85874(6) 0.55257(9) 0.339086(17)
W10_4 W 0.62474(6) 0.51893(8) 0.335038(17)
W11_5 W 0.72579(6) 0.46746(8) 0.278277(19)
W12_6 W 0.81340(7) 0.41499(10) 0.38955(2)
O47_6 O 0.7556(10) 0.5614(14) 0.3432(3)
O48_4 O 0.6270(12) 0.6240(16) 0.3308(4)
O49_6 O 0.9465(13) 0.6688(17) 0.3356(4)
O50_5 O 0.9456(12) 0.5055(15) 0.3301(3)
O51_5 O 0.7559(11) 0.5491(16) 0.2542(3)
C16_5 C 0.9375(13) 0.5584(18) 0.2210(4)
O52_4 O 0.5960(10) 0.3788(14) 0.3459(3)
O53_5 O 0.8209(10) 0.5207(14) 0.3015(3)
N3_5 N 0.9959(17) 0.4908(23) 0.2515(5)
O56_4 O 0.6083(11) 0.5120(16) 0.3727(3)
O57_4 O 0.6523(10) 0.4981(14) 0.3004(3)
O61_6 O 0.7271(11) 0.2898(15) 0.3923(3)
O62_5 O 0.7733(10) 0.3966(15) 0.2622(4)
O64_5 O 0.8667(17) 0.4962(28) 0.1812(4)
O65_6 O 0.8609(13) 0.4445(18) 0.4194(3)
C18_5 C 0.8840(15) 0.5559(27) 0.1976(5)
O67_6 O 0.8812(12) 0.5455(16) 0.3748(3)
C19_5 C 0.9511(15) 0.4851(21) 0.2290(4)
H7_5 H 0.9289 0.4307 0.2184
C21_5 C 0.9723(16) 0.6352(23) 0.2385(5)
H9_5 H 0.9645 0.6854 0.2344
H18_4 H 0.38638 0.46042 0.362075
H19_4 H 0.337074 0.514673 0.349666
H20_6 H 0.066623 0.299393 0.307151
H21_6 H 0.0519837 0.196589 0.312072
H22_6 H 0.315183 0.32595 0.383493
H23_6 H 0.205774 0.26053 0.390109
H24_4 H 0.199861 0.47805 0.35363
H25_4 H 0.117263 0.417901 0.332983
H26_5 H 0.857092 0.0376191 0.329004
H32_5 H 0.962381 0.819473 0.329004
H42_6 H 0.180527 0.142908 0.329004
H43_6 H 0.0815298 0.136105 0.334941
O1_5 O 0.5344(11) 0.8878(12) 0.3466(4)
C1_5 C 0.6189(16) 0.9832(14) 0.2610(4)
O10_5 O 0.6256(13) 0.9126(11) 0.3004(3)
O13_4 O 0.7381(18) 0.8361(16) 0.3076(4)
O14_5 O 0.6798(15) 0.9328(16) 0.3822(4)
O15_5 O 0.5560(12) 0.7404(12) 0.3368(5)
O18_5 O 0.8362(11) 0.9833(14) 0.3408(5)
C3_4 C 0.6681(18) 0.948(2) 0.2782(5)
O21_4 O 0.7391(17) 0.9490(19) 0.2711(5)
C6_5 C 0.5355(17) 0.9735(17) 0.2660(5)
H2_5 H 0.4968 0.9434 0.2808
H14_5 H 0.52195 0.721811 0.35363
H15_5 H 0.582099 0.699362 0.332983
H16_4 H 0.700607 0.767231 0.307151
H17_4 H 0.803411 0.855394 0.312072
H27_5 H 0.863895 0.945425 0.334941
H28_5 H 0.67405 0.989233 0.383493
H29_5 H 0.73947 0.945243 0.390109
H30_5 H 0.53958 0.92596 0.362075
H31_5 H 0.485327 0.822401 0.349666
O22_9 O 1.0000 0.0000 0.4670(5)
W8_5 W 0.93492(7) 0.08165(10) 0.55621(2)
O24_5 O 0.8678(11) 0.3133(16) 0.5132(4)
C8_5 C 0.9523(16) 0.3024(21) 0.4276(4)
O28_5 O 0.8932(9) 0.1721(15) 0.4967(3)
C9_5 C 0.9542(13) 0.2250(18) 0.3876(4)
N2_5 N 0.8282(15) 0.1574(23) 0.4181(5)
O33_5 O 0.9590(13) 0.3797(17) 0.4670(3)
O38_5 O 0.8894(12) 0.4823(17) 0.5034(5)
O40_5 O 0.9566(11) 0.0632(15) 0.4288(4)
O42_5 O 0.9628(22) 0.1628(28) 0.3478(4)
O43_5 O 0.9169(12) 0.1111(18) 0.5860(3)
O45_5 O 0.9976(10) 0.2121(16) 0.5414(3)
C12_5 C 0.8673(14) 0.1517(21) 0.3956(4)
H4_5 H 0.8351 0.0973 0.3850
C13_5 C 0.8689(17) 0.2287(24) 0.4326(5)
H5_5 H 0.8302 0.2201 0.4474
C14_5 C 0.9962(16) 0.3018(23) 0.4051(5)
W10_5 W 0.81441(8) 0.04192(6) 0.501704(17)
O48_5 O 0.7094(16) 0.0396(12) 0.4974(4)
O52_5 O 0.9546(14) 0.0706(10) 0.5125(3)
O56_5 O 0.8214(16) 0.0583(11) 0.5393(3)
O57_5 O 0.8353(14) 0.0143(10) 0.4670(3)
H18_5 H 0.872914 0.280287 0.528742
H19_5 H 0.818661 0.329593 0.516333
H24_5 H 0.855283 0.466806 0.520297
H25_5 H 0.915432 0.549404 0.49965
O3_6 O 0.3303(11) 0.0396(12) 0.9974(4)
O12_6 O 0.1791(10) 0.0143(10) 0.9670(3)
O22_10 O -0.0000 0.0000 0.9670(5)
W11_6 W 0.05913(6) 0.13412(8) 0.944943(19)
C15_5 C 0.3502(14) 0.3024(21) 0.9276(4)
O50_6 O 0.2790(12) 0.1721(15) 0.9967(3)
O51_6 O 0.0893(11) 0.2157(16) 0.9208(3)
C16_6 C 0.2709(13) 0.2250(18) 0.8876(4)
O53_6 O 0.1543(10) 0.1873(14) 0.9681(3)
N3_6 N 0.3293(17) 0.1574(23) 0.9181(5)
O54_4 O 0.1948(11) 0.2812(19) 0.8628(3)
O55_5 O 0.4208(11) 0.3797(17) 0.9670(3)
O58_5 O 0.4973(16) 0.5687(24) 0.9742(4)
O62_6 O 0.1067(10) 0.0632(15) 0.9288(4)
O64_6 O 0.2001(17) 0.1628(28) 0.8478(4)
C17_5 C 0.386(2) 0.3871(27) 0.9448(5)
O66_5 O 0.3844(19) 0.4568(25) 0.9377(5)
C18_6 C 0.2174(15) 0.2225(27) 0.8642(5)
C19_6 C 0.2845(15) 0.1517(21) 0.8956(4)
H7_6 H 0.2623 0.0973 0.8850
C20_5 C 0.3599(17) 0.2287(24) 0.9326(5)
H8_5 H 0.3900 0.2201 0.9474
C21_6 C 0.3057(16) 0.3018(23) 0.9051(5)
H9_6 H 0.2979 0.3520 0.9010
Lu4_4 Lu 0.10589(6) 0.32349(6) 0.839449(18)
H32_6 H 0.295714 0.486139 0.995671
H39_5 H 0.633971 0.549404 0.99965
H40_5 H 0.566103 0.600044 0.973818
H41_5 H 0.477939 0.614683 0.978738
O1_6 O 0.1122(12) 0.4656(11) 0.8466(4)
C1_6 C 0.0168(14) 0.3811(16) 0.7610(4)
O10_6 O 0.0874(11) 0.3744(13) 0.8004(3)
O13_5 O 0.1639(16) 0.2619(18) 0.8076(4)
O14_6 O 0.0672(16) 0.3202(15) 0.8822(4)
O15_6 O 0.2596(12) 0.4440(12) 0.8368(5)
O18_6 O 0.0167(14) 0.1638(11) 0.8408(5)
C3_5 C 0.052(2) 0.3319(18) 0.7782(5)
O21_5 O 0.0510(19) 0.2609(17) 0.7711(5)
C6_6 C 0.0265(17) 0.4645(17) 0.7660(5)
H2_6 H 0.0566 0.5032 0.7808
H14_6 H 0.278189 0.47805 0.85363
H15_6 H 0.300638 0.417901 0.832983
H16_5 H 0.232769 0.299393 0.807151
H17_5 H 0.144606 0.196589 0.812072
H27_6 H 0.054575 0.136105 0.834941
H28_6 H 0.0107669 0.32595 0.883493
H29_6 H 0.0547568 0.26053 0.890109
H30_6 H 0.07404 0.46042 0.862075
H31_6 H 0.177599 0.514673 0.849666
W3_6 W 0.07500(6) 0.94087(6) 0.944943(19)
O6_6 O 0.1265(11) 0.9107(11) 0.9208(3)
O8_6 O 0.0331(10) 0.8457(10) 0.9681(3)
O9_4 O 0.0865(15) 0.8052(11) 0.8628(3)
O13_6 O 0.0715(18) 0.5027(16) 0.9742(4)
C3_6 C 0.0015(18) 0.614(2) 0.9448(5)
O21_6 O 0.0725(17) 0.6156(19) 0.9377(5)
C4_6 C 0.0052(22) 0.7826(15) 0.8642(5)
O22_11 O -0.0000 1.0000 0.9670(5)
H3_6 H 0.0542 0.7021 0.9010
Lu6_4 Lu 0.21759(8) 0.89411(6) 0.839449(18)
H16_6 H 0.0339408 0.433897 0.973818
H17_6 H 0.136744 0.522061 0.978738
H26_6 H 0.190425 0.704286 0.995671
O46_6 O 0.3533(16) 0.8878(12) 0.8466(4)
C15_6 C 0.3642(21) 0.9832(14) 0.7610(4)
O55_6 O 0.2869(17) 0.9126(11) 0.8004(3)
O58_6 O 0.0979(24) 0.8361(16) 0.8076(4)
O59_6 O 0.2529(22) 0.9328(16) 0.8822(4)
O60_6 O 0.1843(17) 0.7404(12) 0.8368(5)
O63_6 O 0.1470(18) 0.9833(14) 0.8408(5)
C17_6 C 0.2795(27) 0.948(2) 0.7782(5)
O66_6 O 0.2098(25) 0.9490(19) 0.7711(5)
C20_6 C 0.4379(24) 0.9735(17) 0.7660(5)
H8_6 H 0.4465 0.9434 0.7808
H33_6 H 0.0815298 0.945425 0.834941
H34_6 H 0.38638 0.92596 0.862075
H35_6 H 0.337074 0.822401 0.849666
H36_6 H 0.315183 0.989233 0.883493
H37_6 H 0.205774 0.945243 0.890109
H38_6 H 0.199861 0.721811 0.85363
H39_6 H 0.117263 0.699362 0.832983
H40_6 H 0.066623 0.767231 0.807151
H41_6 H 0.0519837 0.855394 0.812072
W8_6 W 0.91835(10) 0.06508(7) 0.05621(2)
O24_6 O 0.6867(16) 0.1322(11) 0.0132(4)
O38_6 O 0.5177(17) 0.1106(12) 0.0034(5)
O43_6 O 0.8889(18) 0.0831(12) 0.0860(3)
O45_6 O 0.7879(16) 0.0024(10) 0.0414(3)
W10_6 W 0.95808(6) 0.18559(8) 0.001704(17)
O52_6 O 0.9294(10) 0.0454(14) 0.0125(3)
O56_6 O 0.9417(11) 0.1786(16) 0.0393(3)
H18_6 H 0.719713 0.127086 0.0287421
H19_6 H 0.670407 0.181339 0.0163326
H24_6 H 0.533194 0.144717 0.0202969
O22_12 O 1.0000 0.0000 0.9670(5)
C8_6 C 0.6976(21) 0.0477(16) 0.9276(4)
O28_6 O 0.8279(15) 0.1068(9) 0.9967(3)
C9_6 C 0.7750(18) 0.0458(13) 0.8876(4)
N2_6 N 0.8426(23) 0.1718(15) 0.9181(5)
O33_6 O 0.6203(17) 0.0410(13) 0.9670(3)
O40_6 O 0.9368(15) 0.0434(11) 0.9288(4)
O42_6 O 0.8372(28) 0.0372(22) 0.8478(4)
C12_6 C 0.8483(21) 0.1327(14) 0.8956(4)
H4_6 H 0.9027 0.1649 0.8850
C13_6 C 0.7713(24) 0.1311(17) 0.9326(5)
H5_6 H 0.7799 0.1698 0.9474
C14_6 C 0.6982(23) 0.0038(16) 0.9051(5)
O48_6 O 0.9604(12) 0.2906(16) 0.9974(4)
O57_6 O 0.9857(10) 0.1647(14) 0.9670(3)
H25_6 H 0.450596 0.0845679 0.99965
N4 N 0.3569(14) 0.0150(13) 0.9325(5)
H12 H 0.3450 0.0501 0.9198
H13 H 0.4171 0.0535 0.9401
H10 H 0.3104 0.9940 0.9459
H11 H 0.3552 0.9624 0.9242
H10_2 H 0.0060 0.3164 0.9459
H11_2 H 0.0376 0.3928 0.9242
N4_2 N 0.9850(13) 0.3419(19) 0.9325(5)
H12_2 H 0.9499 0.2949 0.9198
H13_2 H 0.9465 0.3636 0.9401
N4_3 N 0.6581(19) 0.6431(14) 0.9325(5)
H10_3 H 0.6836 0.6896 0.9459
H11_3 H 0.6072 0.6448 0.9242
H12_3 H 0.7051 0.6550 0.9198
H13_3 H 0.6364 0.5829 0.9401
H10_4 H 0.0060 0.6896 0.4459
H11_4 H 0.0376 0.6448 0.4242
N4_4 N 0.9850(13) 0.6431(14) 0.4325(5)
H12_4 H 0.9499 0.6550 0.4198
H13_4 H 0.9465 0.5829 0.4401
N4_5 N 0.6581(19) 0.0150(13) 0.4325(5)
H12_5 H 0.7051 0.0501 0.4198
H13_5 H 0.6364 0.0535 0.4401
H10_5 H 0.6836 0.9940 0.4459
H11_5 H 0.6072 0.9624 0.4242
N4_6 N 0.3569(14) 0.3419(19) 0.4325(5)
H10_6 H 0.3104 0.3164 0.4459
H11_6 H 0.3552 0.3928 0.4242
H12_6 H 0.3450 0.2949 0.4198
H13_6 H 0.4171 0.3636 0.4401
N4_7 N 0.0236(14) 0.3483(13) 0.2658(5)
H11_7 H 0.0219 0.2957 0.2575
H12_7 H 0.0117 0.3834 0.2531
H13_7 H 0.0838 0.3868 0.2734
H10_7 H 0.9771 0.3273 0.2792
N4_8 N 0.6517(13) 0.6752(19) 0.2658(5)
H10_8 H 0.6727 0.6497 0.2792
H11_8 H 0.7043 0.7261 0.2575
H12_8 H 0.6166 0.6282 0.2531
H13_8 H 0.6132 0.6969 0.2734
H10_9 H 0.3503 0.0229 0.2792
N4_9 N 0.3248(19) 0.9764(14) 0.2658(5)
H11_9 H 0.2739 0.9781 0.2575
H12_9 H 0.3718 0.9883 0.2531
H13_9 H 0.3031 0.9162 0.2734
H10_10 H 0.6727 0.0229 0.7792
N4_10 N 0.6517(13) 0.9764(14) 0.7658(5)
H11_10 H 0.7043 0.9781 0.7575
H12_10 H 0.6166 0.9883 0.7531
H13_10 H 0.6132 0.9162 0.7734
N4_11 N 0.3248(19) 0.3483(13) 0.7658(5)
H10_11 H 0.3503 0.3273 0.7792
H11_11 H 0.2739 0.2957 0.7575
H12_11 H 0.3718 0.3834 0.7531
H13_11 H 0.3031 0.3868 0.7734
N4_12 N 0.0236(14) 0.6752(19) 0.7658(5)
H11_12 H 0.0219 0.7261 0.7575
H12_12 H 0.0117 0.6282 0.7531
H13_12 H 0.0838 0.6969 0.7734
H10_12 H 0.9771 0.6497 0.7792
N4_13 N 0.6902(14) 0.6817(13) 0.5992(5)
H10_13 H 0.6437 0.6607 0.6126
H11_13 H 0.6885 0.6291 0.5909
H12_13 H 0.6783 0.7168 0.5865
H13_13 H 0.7504 0.7202 0.6068
N4_14 N 0.3183(13) 0.0086(19) 0.5992(5)
H11_14 H 0.3709 0.0595 0.5909
H13_14 H 0.2798 0.0303 0.6068
H10_14 H 0.3393 0.9831 0.6126
H12_14 H 0.2832 0.9616 0.5865
H10_15 H 0.0169 0.3563 0.6126
H12_15 H 0.0384 0.3217 0.5865
N4_15 N 0.9914(19) 0.3098(14) 0.5992(5)
H11_15 H 0.9405 0.3115 0.5909
H13_15 H 0.9697 0.2496 0.6068
N4_16 N 0.3183(13) 0.3098(14) 0.0992(5)
H10_16 H 0.3393 0.3563 0.1126
H11_16 H 0.3709 0.3115 0.0909
H12_16 H 0.2832 0.3217 0.0865
H13_16 H 0.2798 0.2496 0.1068
H10_17 H 0.0169 0.6607 0.1126
H12_17 H 0.0384 0.7168 0.0865
N4_17 N 0.9914(19) 0.6817(13) 0.0992(5)
H11_17 H 0.9405 0.6291 0.0909
H13_17 H 0.9697 0.7202 0.1068
N4_18 N 0.6902(14) 0.0086(19) 0.0992(5)
H11_18 H 0.6885 0.0595 0.0909
H13_18 H 0.7504 0.0303 0.1068
H10_18 H 0.6437 0.9831 0.1126
H12_18 H 0.6783 0.9616 0.0865
loop_
_geom_bond_atom_site_label_1
_geom_bond_atom_site_label_2
_geom_bond_site_symmetry_1
_geom_bond_site_symmetry_2
O33 Lu2 1_555 1_555
O36 Lu2 1_555 1_555
O37 Lu2 1_555 1_555
O38 Lu2 1_555 1_555
O41 Lu2 1_555 1_555
C10 O33 1_555 1_555
O44 C10 1_555 1_555
O69 Lu2 1_555 1_555
Lu2 O27 1_555 1_555
O36 H20 1_555 1_555
O36 H21 1_555 1_555
O37 H22 1_555 1_555
O37 H23 1_555 1_555
O38 H24 1_555 1_555
O38 H25 1_555 1_555
O41 H42 1_555 1_555
O41 H43 1_555 1_555
W1 O2 1_555 1_555
W2 O2 1_555 1_555
W3 O6 1_555 1_555
W4 O16 1_555 1_555
Lu1 O1 1_555 1_555
C1 C3 1_555 1_555
O3 W2 1_555 1_555
O4 W1 1_555 1_555
O5 W1 1_555 1_555
C2 C4 1_555 1_555
O7 W2 1_555 1_555
O8 W1 1_555 1_555
N1 C5 1_555 1_555
O9 C4 1_555 1_555
O10 Lu1 1_555 1_555
O11 W2 1_555 1_555
O12 W2 1_555 1_555
O13 Lu1 1_555 1_555
O14 Lu1 1_555 1_555
O15 Lu1 1_555 1_555
O16 W8 1_555 1_555
O17 W3 1_555 1_555
O18 Lu1 1_555 1_555
O19 C4 1_555 1_555
O20 W4 1_555 1_555
C3 O10 1_555 1_555
O21 C3 1_555 1_555
O22 W3 1_555 1_555
O23 W1 1_555 1_555
C5 C2 1_555 1_555
H1 C5 1_555 1_555
C6 C1 1_555 1_555
H2 C6 1_555 1_555
C7 C1 1_555 1_555
H3 C7 1_555 1_555
W5 O25 1_555 1_555
W6 O5 1_555 1_555
W7 O17 1_555 1_555
W8 O39 1_555 1_555
O25 W6 1_555 1_555
O26 W6 1_555 1_555
O28 W5 1_555 1_555
O29 W7 1_555 1_555
C9 C11 1_555 1_555
O30 W1 1_555 1_555
O31 W5 1_555 1_555
N2 C12 1_555 1_555
O32 C11 1_555 1_555
O34 W4 1_555 1_555
O35 W6 1_555 1_555
O39 W12 1_555 1_555
O40 W7 1_555 1_555
O42 C11 1_555 1_555
O43 W8 1_555 1_555
O45 W5 1_555 1_555
C12 C9 1_555 1_555
H4 C12 1_555 1_555
C13 C8 1_555 1_555
H5 C13 1_555 1_555
C14 C8 1_555 1_555
W9 O7 1_555 1_555
W10 O28 1_555 1_555
W11 O22 1_555 1_555
W12 O7 1_555 1_555
O47 W9 1_555 1_555
O48 W10 1_555 1_555
O50 W2 1_555 1_555
O51 W11 1_555 1_555
C16 C18 1_555 1_555
O52 W5 1_555 1_555
O53 W9 1_555 1_555
N3 C19 1_555 1_555
O54 C18 1_555 1_555
O56 W8 1_555 1_555
O57 W10 1_555 1_555
O61 W4 1_555 1_555
O62 W3 1_555 1_555
O64 C18 1_555 1_555
O65 W12 1_555 1_555
O67 W9 1_555 1_555
C19 C16 1_555 1_555
H7 C19 1_555 1_555
C20 C15 1_555 1_555
H8 C20 1_555 1_555
C21 C15 1_555 1_555
Lu4 O54 1_555 1_555
Lu5 O32 1_555 1_555
Lu6 O9 1_555 1_555
O70 Lu1 1_555 1_555
W3 O8 1_555 1_555
W3 O12 1_555 1_555
W4 O23 1_555 1_555
W4 O30 1_555 1_555
Lu1 O4 1_555 1_555
C2 C7 1_555 1_555
N1 C6 1_555 1_555
O11 W12 1_555 1_555
O22 W7 1_555 1_555
W6 O30 1_555 1_555
W6 O34 1_555 1_555
W7 O31 1_555 1_555
W7 O35 1_555 1_555
W8 O45 1_555 1_555
W8 O52 1_555 1_555
C9 C14 1_555 1_555
N2 C13 1_555 1_555
O40 W11 1_555 1_555
W9 O50 1_555 1_555
W10 O47 1_555 1_555
W10 O52 1_555 1_555
W10 O56 1_555 1_555
W11 O53 1_555 1_555
W11 O57 1_555 1_555
W11 O62 1_555 1_555
W12 O61 1_555 1_555
W12 O67 1_555 1_555
C16 C21 1_555 1_555
N3 C20 1_555 1_555
O15 H14 1_555 1_555
O15 H15 1_555 1_555
O13 H16 1_555 1_555
O13 H17 1_555 1_555
O24 H18 1_555 1_555
O24 H19 1_555 1_555
O18 H26 1_555 1_555
O18 H27 1_555 1_555
O14 H28 1_555 1_555
O14 H29 1_555 1_555
O1 H30 1_555 1_555
O1 H31 1_555 1_555
O46 H34 1_555 1_555
O46 H35 1_555 1_555
O55 Lu3 1_555 1_555
O58 Lu3 1_555 1_555
O59 Lu3 1_555 1_555
O60 Lu3 1_555 1_555
O63 Lu3 1_555 1_555
C17 O55 1_555 1_555
O66 C17 1_555 1_555
O68 Lu3 1_555 1_555
Lu3 O49 1_555 1_555
O63 H32 1_555 1_555
O63 H33 1_555 1_555
O59 H36 1_555 1_555
O59 H37 1_555 1_555
O60 H38 1_555 1_555
O60 H39 1_555 1_555
O58 H40 1_555 1_555
O58 H41 1_555 1_555
O55_2 Lu3_2 1_555 1_555
O58_2 Lu3_2 1_555 1_555
O59_2 Lu3_2 1_555 1_555
O60_2 Lu3_2 1_555 1_555
O63_2 Lu3_2 1_555 1_555
C17_2 O55_2 1_555 1_555
O66_2 C17_2 1_555 1_555
O68_2 Lu3_2 1_555 1_555
Lu3_2 O49_2 1_555 1_555
O63_2 H32_2 1_555 1_555
O63_2 H33_2 1_555 1_555
O59_2 H36_2 1_555 1_555
O59_2 H37_2 1_555 1_555
O60_2 H38_2 1_555 1_555
O60_2 H39_2 1_555 1_555
O58_2 H40_2 1_555 1_555
O58_2 H41_2 1_555 1_555
W1_2 O2_2 1_555 1_555
W2_2 O2_2 1_555 1_555
W3_2 O6_2 1_555 1_555
W4_2 O16_2 1_555 1_555
Lu1_2 O1_2 1_555 1_555
C1_2 C3_2 1_555 1_555
O3_2 W2_2 1_555 1_555
O4_2 W1_2 1_555 1_555
O5_2 W1_2 1_555 1_555
C2_2 C4_2 1_555 1_555
O7_2 W2_2 1_555 1_555
O8_2 W1_2 1_555 1_555
N1_2 C5_2 1_555 1_555
O9_2 C4_2 1_555 1_555
O10_2 Lu1_2 1_555 1_555
O11_2 W2_2 1_555 1_555
O12_2 W2_2 1_555 1_555
O13_2 Lu1_2 1_555 1_555
O14_2 Lu1_2 1_555 1_555
O15_2 Lu1_2 1_555 1_555
O16_2 W8_2 1_555 1_555
O17_2 W3_2 1_555 1_555
O18_2 Lu1_2 1_555 1_555
O19_2 C4_2 1_555 1_555
O20_2 W4_2 1_555 1_555
C3_2 O10_2 1_555 1_555
O21_2 C3_2 1_555 1_555
O22_2 W3_2 1_555 1_555
O23_2 W1_2 1_555 1_555
C5_2 C2_2 1_555 1_555
H1_2 C5_2 1_555 1_555
C6_2 C1_2 1_555 1_555
H2_2 C6_2 1_555 1_555
C7_2 C1_2 1_555 1_555
H3_2 C7_2 1_555 1_555
W5_2 O25_2 1_555 1_555
W6_2 O5_2 1_555 1_555
W7_2 O17_2 1_555 1_555
W8_2 O39_2 1_555 1_555
O25_2 W6_2 1_555 1_555
O26_2 W6_2 1_555 1_555
O28_2 W5_2 1_555 1_555
O29_2 W7_2 1_555 1_555
C9_2 C11_2 1_555 1_555
O30_2 W1_2 1_555 1_555
O31_2 W5_2 1_555 1_555
N2_2 C12_2 1_555 1_555
O32_2 C11_2 1_555 1_555
O34_2 W4_2 1_555 1_555
O35_2 W6_2 1_555 1_555
O39_2 W12_2 1_555 1_555
O40_2 W7_2 1_555 1_555
O42_2 C11_2 1_555 1_555
O43_2 W8_2 1_555 1_555
O45_2 W5_2 1_555 1_555
C12_2 C9_2 1_555 1_555
H4_2 C12_2 1_555 1_555
C13_2 C8_2 1_555 1_555
H5_2 C13_2 1_555 1_555
C14_2 C8_2 1_555 1_555
W9_2 O7_2 1_555 1_555
W10_2 O28_2 1_555 1_555
W11_2 O22_2 1_555 1_555
W12_2 O7_2 1_555 1_555
O47_2 W9_2 1_555 1_555
O48_2 W10_2 1_555 1_555
O50_2 W2_2 1_555 1_555
O51_2 W11_2 1_555 1_555
C16_2 C18_2 1_555 1_555
O52_2 W5_2 1_555 1_555
O53_2 W9_2 1_555 1_555
N3_2 C19_2 1_555 1_555
O54_2 C18_2 1_555 1_555
O56_2 W8_2 1_555 1_555
O57_2 W10_2 1_555 1_555
O61_2 W4_2 1_555 1_555
O62_2 W3_2 1_555 1_555
O64_2 C18_2 1_555 1_555
O65_2 W12_2 1_555 1_555
O67_2 W9_2 1_555 1_555
C19_2 C16_2 1_555 1_555
H7_2 C19_2 1_555 1_555
C20_2 C15_2 1_555 1_555
H8_2 C20_2 1_555 1_555
C21_2 C15_2 1_555 1_555
Lu4_2 O54_2 1_555 1_555
Lu5_2 O32_2 1_555 1_555
Lu6_2 O9_2 1_555 1_555
O70_2 Lu1_2 1_555 1_555
W3_2 O8_2 1_555 1_555
W3_2 O12_2 1_555 1_555
W4_2 O23_2 1_555 1_555
W4_2 O30_2 1_555 1_555
Lu1_2 O4_2 1_555 1_555
C2_2 C7_2 1_555 1_555
N1_2 C6_2 1_555 1_555
O11_2 W12_2 1_555 1_555
O22_2 W7_2 1_555 1_555
W6_2 O30_2 1_555 1_555
W6_2 O34_2 1_555 1_555
W7_2 O31_2 1_555 1_555
W7_2 O35_2 1_555 1_555
W8_2 O45_2 1_555 1_555
W8_2 O52_2 1_555 1_555
C9_2 C14_2 1_555 1_555
N2_2 C13_2 1_555 1_555
O40_2 W11_2 1_555 1_555
W9_2 O50_2 1_555 1_555
W10_2 O47_2 1_555 1_555
W10_2 O52_2 1_555 1_555
W10_2 O56_2 1_555 1_555
W11_2 O53_2 1_555 1_555
W11_2 O57_2 1_555 1_555
W11_2 O62_2 1_555 1_555
W12_2 O61_2 1_555 1_555
W12_2 O67_2 1_555 1_555
C16_2 C21_2 1_555 1_555
N3_2 C20_2 1_555 1_555
O15_2 H14_2 1_555 1_555
O15_2 H15_2 1_555 1_555
O13_2 H16_2 1_555 1_555
O13_2 H17_2 1_555 1_555
O24_2 H18_2 1_555 1_555
O24_2 H19_2 1_555 1_555
O18_2 H26_2 1_555 1_555
O18_2 H27_2 1_555 1_555
O14_2 H28_2 1_555 1_555
O14_2 H29_2 1_555 1_555
O1_2 H30_2 1_555 1_555
O1_2 H31_2 1_555 1_555
O46_2 H34_2 1_555 1_555
O46_2 H35_2 1_555 1_555
O33_2 Lu2_2 1_555 1_555
O36_2 Lu2_2 1_555 1_555
O37_2 Lu2_2 1_555 1_555
O38_2 Lu2_2 1_555 1_555
O41_2 Lu2_2 1_555 1_555
C10_2 O33_2 1_555 1_555
O44_2 C10_2 1_555 1_555
O69_2 Lu2_2 1_555 1_555
Lu2_2 O27_2 1_555 1_555
O36_2 H20_2 1_555 1_555
O36_2 H21_2 1_555 1_555
O37_2 H22_2 1_555 1_555
O37_2 H23_2 1_555 1_555
O38_2 H24_2 1_555 1_555
O38_2 H25_2 1_555 1_555
O41_2 H42_2 1_555 1_555
O41_2 H43_2 1_555 1_555
W4_3 O16_3 1_555 1_555
N1_3 C5_3 1_555 1_555
O20_3 W4_3 1_555 1_555
C5_3 C2_3 1_555 1_555
H1_3 C5_3 1_555 1_555
C6_3 C1_3 1_555 1_555
H2_3 C6_3 1_555 1_555
C7_3 C1_3 1_555 1_555
W5_3 O25_3 1_555 1_555
W6_3 O5_3 1_555 1_555
W7_3 O17_3 1_555 1_555
O25_3 W6_3 1_555 1_555
O26_3 W6_3 1_555 1_555
O27_3 W5_3 1_555 1_555
O29_3 W7_3 1_555 1_555
O31_3 W5_3 1_555 1_555
O32_3 C11_3 1_555 1_555
O34_3 W4_3 1_555 1_555
O35_3 W6_3 1_555 1_555
O36_3 Lu5_2 1_555 1_555
O37_3 Lu5_2 1_555 1_555
O41_3 Lu5_2 1_555 1_555
O44_3 C10_3 1_555 1_555
Lu5_3 O32_3 1_555 1_555
W4_3 O23_3 1_555 1_555
W4_3 O30_3 1_555 1_555
C2_3 C7_3 1_555 1_555
N1_3 C6_3 1_555 1_555
O22_3 W7_3 1_555 1_555
W6_3 O30_3 1_555 1_555
W6_3 O34_3 1_555 1_555
W7_3 O31_3 1_555 1_555
W7_3 O35_3 1_555 1_555
Lu5_2 O27_3 1_555 1_555
O15_3 H14_3 1_555 1_555
O15_3 H15_3 1_555 1_555
O36_3 H20_3 1_555 1_555
O36_3 H21_3 1_555 1_555
O37_3 H22_3 1_555 1_555
O37_3 H23_3 1_555 1_555
O1_3 H30_3 1_555 1_555
O1_3 H31_3 1_555 1_555
O41_3 H42_3 1_555 1_555
O41_3 H43_3 1_555 1_555
W1_3 O2_3 1_555 1_555
W3_3 O6_3 1_555 1_555
O4_3 W1_3 1_555 1_555
O8_3 W1_3 1_555 1_555
O9_3 C4_3 1_555 1_555
O13_3 Lu4_2 1_555 1_555
O14_3 Lu4_2 1_555 1_555
O18_3 Lu4_2 1_555 1_555
O21_3 C3_3 1_555 1_555
O22_4 W3_3 1_555 1_555
Lu6_3 O9_3 1_555 1_555
W3_3 O8_3 1_555 1_555
Lu4_2 O4_3 1_555 1_555
O13_3 H16_3 1_555 1_555
O13_3 H17_3 1_555 1_555
O18_3 H26_3 1_555 1_555
O18_3 H27_3 1_555 1_555
O14_3 H28_3 1_555 1_555
O14_3 H29_3 1_555 1_555
O3_3 W2_3 1_555 1_555
O7_3 W2_3 1_555 1_555
O11_3 W2_3 1_555 1_555
O12_3 W2_3 1_555 1_555
O39_3 W12_3 1_555 1_555
W9_3 O7_3 1_555 1_555
W11_3 O22_5 1_555 1_555
W12_3 O7_3 1_555 1_555
Lu6_2 O46_3 1_555 1_555
C15_3 C17_3 1_555 1_555
O47_3 W9_3 1_555 1_555
O49_3 W9_3 1_555 1_555
O50_3 W2_3 1_555 1_555
O51_3 W11_3 1_555 1_555
C16_3 C18_3 1_555 1_555
O53_3 W9_3 1_555 1_555
N3_3 C19_3 1_555 1_555
O54_3 C18_3 1_555 1_555
O55_3 Lu6_2 1_555 1_555
O58_3 Lu6_2 1_555 1_555
O59_3 Lu6_2 1_555 1_555
O60_3 Lu6_2 1_555 1_555
O63_3 Lu6_2 1_555 1_555
O64_3 C18_3 1_555 1_555
O65_3 W12_3 1_555 1_555
C17_3 O55_3 1_555 1_555
O66_3 C17_3 1_555 1_555
O67_3 W9_3 1_555 1_555
C19_3 C16_3 1_555 1_555
H7_3 C19_3 1_555 1_555
C20_3 C15_3 1_555 1_555
H8_3 C20_3 1_555 1_555
C21_3 C15_3 1_555 1_555
H9_3 C21_3 1_555 1_555
Lu4_3 O54_3 1_555 1_555
O11_3 W12_3 1_555 1_555
W9_3 O50_3 1_555 1_555
W11_3 O53_3 1_555 1_555
W11_3 O62_3 1_555 1_555
W12_3 O67_3 1_555 1_555
Lu6_2 O49_3 1_555 1_555
C16_3 C21_3 1_555 1_555
N3_3 C20_3 1_555 1_555
O63_3 H32_3 1_555 1_555
O63_3 H33_3 1_555 1_555
O46_3 H34_3 1_555 1_555
O46_3 H35_3 1_555 1_555
O59_3 H36_3 1_555 1_555
O59_3 H37_3 1_555 1_555
O60_3 H38_3 1_555 1_555
O60_3 H39_3 1_555 1_555
O58_3 H40_3 1_555 1_555
O58_3 H41_3 1_555 1_555
O7_4 W2_4 1_555 1_555
O11_4 W2_4 1_555 1_555
O39_4 W12_4 1_555 1_555
W9_4 O7_4 1_555 1_555
W12_4 O7_4 1_555 1_555
Lu6 O46_4 1_555 1_555
O47_4 W9_4 1_555 1_555
O49_4 W9_4 1_555 1_555
O59_4 Lu6 1_555 1_555
O60_4 Lu6 1_555 1_555
O63_4 Lu6 1_555 1_555
O65_4 W12_4 1_555 1_555
O67_4 W9_4 1_555 1_555
O11_4 W12_4 1_555 1_555
W12_4 O67_4 1_555 1_555
Lu6 O49_4 1_555 1_555
O63_4 H33_4 1_555 1_555
O46_4 H34_4 1_555 1_555
O46_4 H35_4 1_555 1_555
O59_4 H36_4 1_555 1_555
O59_4 H37_4 1_555 1_555
O60_4 H38_4 1_555 1_555
W1_4 O2_4 1_555 1_555
O4_4 W1_4 1_555 1_555
O14_4 Lu4 1_555 1_555
O18_4 Lu4 1_555 1_555
Lu4 O4_4 1_555 1_555
O18_4 H27_4 1_555 1_555
O14_4 H28_4 1_555 1_555
O14_4 H29_4 1_555 1_555
W4_4 O16_4 1_555 1_555
O20_4 W4_4 1_555 1_555
W5_4 O25_4 1_555 1_555
O25_4 W6_4 1_555 1_555
O27_4 W5_4 1_555 1_555
O34_4 W4_4 1_555 1_555
O37_4 Lu5 1_555 1_555
O41_4 Lu5 1_555 1_555
W4_4 O23_4 1_555 1_555
W4_4 O30_4 1_555 1_555
W6_4 O30_4 1_555 1_555
W6_4 O34_4 1_555 1_555
Lu5 O27_4 1_555 1_555
O15_4 H14_4 1_555 1_555
O37_4 H22_4 1_555 1_555
O37_4 H23_4 1_555 1_555
O1_4 H30_4 1_555 1_555
O1_4 H31_4 1_555 1_555
O41_4 H43_4 1_555 1_555
N1_4 C5_4 1_555 1_555
C5_4 C2_4 1_555 1_555
H1_4 C5_4 1_555 1_555
C6_4 C1_4 1_555 1_555
H2_4 C6_4 1_555 1_555
C7_4 C1_4 1_555 1_555
W7_4 O17_4 1_555 1_555
O29_4 W7_4 1_555 1_555
O32_4 C11_4 1_555 1_555
O44_4 C10_4 1_555 1_555
Lu5_4 O32_4 1_555 1_555
C2_4 C7_4 1_555 1_555
N1_4 C6_4 1_555 1_555
O22_6 W7_4 1_555 1_555
W7_4 O31_4 1_555 1_555
W7_4 O35_4 1_555 1_555
O36_4 H20_4 1_555 1_555
O36_4 H21_4 1_555 1_555
W1_5 O2_5 1_555 1_555
W2_5 O2_5 1_555 1_555
W3_4 O6_4 1_555 1_555
W4_5 O16_5 1_555 1_555
O3_4 W2_5 1_555 1_555
O4_5 W1_5 1_555 1_555
O5_5 W1_5 1_555 1_555
C2_5 C4_4 1_555 1_555
O7_5 W2_5 1_555 1_555
O8_4 W1_5 1_555 1_555
N1_5 C5_5 1_555 1_555
O68_2 C4_4 1_555 1_555
O11_5 W2_5 1_555 1_555
O12_4 W2_5 1_555 1_555
O16_5 W8_3 1_555 1_555
O17_5 W3_4 1_555 1_555
O19_5 C4_4 1_555 1_555
O20_5 W4_5 1_555 1_555
O22_7 W3_4 1_555 1_555
O23_5 W1_5 1_555 1_555
C5_5 C2_5 1_555 1_555
H1_5 C5_5 1_555 1_555
H3_4 C7_5 1_555 1_555
W5_5 O25_5 1_555 1_555
W6_5 O5_5 1_555 1_555
W7_5 O17_5 1_555 1_555
W8_3 O39_5 1_555 1_555
Lu5_4 O24_3 1_555 1_555
C8_3 C10_5 1_555 1_555
O25_5 W6_5 1_555 1_555
O26_5 W6_5 1_555 1_555
O27_5 W5_5 1_555 1_555
O28_3 W5_5 1_555 1_555
O29_5 W7_5 1_555 1_555
C9_3 C11_5 1_555 1_555
O30_5 W1_5 1_555 1_555
O31_5 W5_5 1_555 1_555
N2_3 C12_3 1_555 1_555
O69_2 C11_5 1_555 1_555
O33_3 Lu5_4 1_555 1_555
O34_5 W4_5 1_555 1_555
O35_5 W6_5 1_555 1_555
O36_5 Lu5_4 1_555 1_555
O37_5 Lu5_4 1_555 1_555
O38_3 Lu5_4 1_555 1_555
O39_5 W12_5 1_555 1_555
O40_3 W7_5 1_555 1_555
O41_5 Lu5_4 1_555 1_555
O42_3 C11_5 1_555 1_555
O43_3 W8_3 1_555 1_555
C10_5 O33_3 1_555 1_555
O44_5 C10_5 1_555 1_555
O45_3 W5_5 1_555 1_555
C12_3 C9_3 1_555 1_555
H4_3 C12_3 1_555 1_555
C13_3 C8_3 1_555 1_555
H5_3 C13_3 1_555 1_555
C14_3 C8_3 1_555 1_555
H6_5 C14_3 1_555 1_555
W9_5 O7_5 1_555 1_555
W10_3 O28_3 1_555 1_555
W11_4 O22_7 1_555 1_555
W12_5 O7_5 1_555 1_555
O47_5 W9_5 1_555 1_555
O48_3 W10_3 1_555 1_555
O49_5 W9_5 1_555 1_555
O50_4 W2_5 1_555 1_555
O51_4 W11_4 1_555 1_555
C16_4 C18_4 1_555 1_555
O52_3 W5_5 1_555 1_555
O53_4 W9_5 1_555 1_555
N3_4 C19_4 1_555 1_555
O70_2 C18_4 1_555 1_555
O56_3 W8_3 1_555 1_555
O57_3 W10_3 1_555 1_555
O61_5 W4_5 1_555 1_555
O62_4 W3_4 1_555 1_555
O64_4 C18_4 1_555 1_555
O65_5 W12_5 1_555 1_555
O67_5 W9_5 1_555 1_555
C19_4 C16_4 1_555 1_555
H7_4 C19_4 1_555 1_555
H9_4 C21_4 1_555 1_555
W3_4 O8_4 1_555 1_555
W3_4 O12_4 1_555 1_555
W4_5 O23_5 1_555 1_555
W4_5 O30_5 1_555 1_555
C2_5 C7_5 1_555 1_555
O11_5 W12_5 1_555 1_555
O22_7 W7_5 1_555 1_555
W6_5 O30_5 1_555 1_555
W6_5 O34_5 1_555 1_555
W7_5 O31_5 1_555 1_555
W7_5 O35_5 1_555 1_555
W8_3 O45_3 1_555 1_555
W8_3 O52_3 1_555 1_555
Lu5_4 O27_5 1_555 1_555
C9_3 C14_3 1_555 1_555
N2_3 C13_3 1_555 1_555
O40_3 W11_4 1_555 1_555
W9_5 O50_4 1_555 1_555
W10_3 O47_5 1_555 1_555
W10_3 O52_3 1_555 1_555
W10_3 O56_3 1_555 1_555
W11_4 O53_4 1_555 1_555
W11_4 O57_3 1_555 1_555
W11_4 O62_4 1_555 1_555
W12_5 O61_5 1_555 1_555
W12_5 O67_5 1_555 1_555
C16_4 C21_4 1_555 1_555
O24_3 H18_3 1_555 1_555
O24_3 H19_3 1_555 1_555
O36_5 H20_5 1_555 1_555
O36_5 H21_5 1_555 1_555
O37_5 H22_5 1_555 1_555
O37_5 H23_5 1_555 1_555
O38_3 H24_3 1_555 1_555
O38_3 H25_3 1_555 1_555
O41_5 H42_5 1_555 1_555
O41_5 H43_5 1_555 1_555
Lu6_3 O46_5 1_555 1_555
C15_4 C17_4 1_555 1_555
O55_4 Lu6_3 1_555 1_555
O58_4 Lu6_3 1_555 1_555
O59_5 Lu6_3 1_555 1_555
O60_5 Lu6_3 1_555 1_555
O63_5 Lu6_3 1_555 1_555
C17_4 O55_4 1_555 1_555
O66_4 C17_4 1_555 1_555
C20_4 C15_4 1_555 1_555
H8_4 C20_4 1_555 1_555
O63_5 H33_5 1_555 1_555
O46_5 H34_5 1_555 1_555
O46_5 H35_5 1_555 1_555
O59_5 H36_5 1_555 1_555
O59_5 H37_5 1_555 1_555
O60_5 H38_5 1_555 1_555
O60_5 H39_4 1_555 1_555
O58_4 H40_4 1_555 1_555
O58_4 H41_4 1_555 1_555
W1_6 O2_6 1_555 1_555
W2_6 O2_6 1_555 1_555
W3_5 O6_5 1_555 1_555
W4_6 O16_6 1_555 1_555
O3_5 W2_6 1_555 1_555
O4_6 W1_6 1_555 1_555
O5_6 W1_6 1_555 1_555
C2_6 C4_5 1_555 1_555
O7_6 W2_6 1_555 1_555
O8_5 W1_6 1_555 1_555
N1_6 C5_6 1_555 1_555
O68 C4_5 1_555 1_555
O11_6 W2_6 1_555 1_555
O12_5 W2_6 1_555 1_555
O16_6 W8_4 1_555 1_555
O17_6 W3_5 1_555 1_555
O19_6 C4_5 1_555 1_555
O20_6 W4_6 1_555 1_555
O22_8 W3_5 1_555 1_555
O23_6 W1_6 1_555 1_555
C5_6 C2_6 1_555 1_555
H1_6 C5_6 1_555 1_555
H3_5 C7_6 1_555 1_555
W5_6 O25_6 1_555 1_555
W6_6 O5_6 1_555 1_555
W7_6 O17_6 1_555 1_555
W8_4 O39_6 1_555 1_555
Lu5_3 O24_4 1_555 1_555
C8_4 C10_6 1_555 1_555
O25_6 W6_6 1_555 1_555
O26_6 W6_6 1_555 1_555
O27_6 W5_6 1_555 1_555
O28_4 W5_6 1_555 1_555
O29_6 W7_6 1_555 1_555
C9_4 C11_6 1_555 1_555
O30_6 W1_6 1_555 1_555
O31_6 W5_6 1_555 1_555
N2_4 C12_4 1_555 1_555
O69 C11_6 1_555 1_555
O33_4 Lu5_3 1_555 1_555
O34_6 W4_6 1_555 1_555
O35_6 W6_6 1_555 1_555
O36_6 Lu5_3 1_555 1_555
O37_6 Lu5_3 1_555 1_555
O38_4 Lu5_3 1_555 1_555
O39_6 W12_6 1_555 1_555
O40_4 W7_6 1_555 1_555
O41_6 Lu5_3 1_555 1_555
O42_4 C11_6 1_555 1_555
O43_4 W8_4 1_555 1_555
C10_6 O33_4 1_555 1_555
O44_6 C10_6 1_555 1_555
O45_4 W5_6 1_555 1_555
C12_4 C9_4 1_555 1_555
H4_4 C12_4 1_555 1_555
C13_4 C8_4 1_555 1_555
H5_4 C13_4 1_555 1_555
C14_4 C8_4 1_555 1_555
H6_6 C14_4 1_555 1_555
W9_6 O7_6 1_555 1_555
W10_4 O28_4 1_555 1_555
W11_5 O22_8 1_555 1_555
W12_6 O7_6 1_555 1_555
O47_6 W9_6 1_555 1_555
O48_4 W10_4 1_555 1_555
O49_6 W9_6 1_555 1_555
O50_5 W2_6 1_555 1_555
O51_5 W11_5 1_555 1_555
C16_5 C18_5 1_555 1_555
O52_4 W5_6 1_555 1_555
O53_5 W9_6 1_555 1_555
N3_5 C19_5 1_555 1_555
O70 C18_5 1_555 1_555
O56_4 W8_4 1_555 1_555
O57_4 W10_4 1_555 1_555
O61_6 W4_6 1_555 1_555
O62_5 W3_5 1_555 1_555
O64_5 C18_5 1_555 1_555
O65_6 W12_6 1_555 1_555
O67_6 W9_6 1_555 1_555
C19_5 C16_5 1_555 1_555
H7_5 C19_5 1_555 1_555
H9_5 C21_5 1_555 1_555
W3_5 O8_5 1_555 1_555
W3_5 O12_5 1_555 1_555
W4_6 O23_6 1_555 1_555
W4_6 O30_6 1_555 1_555
C2_6 C7_6 1_555 1_555
O11_6 W12_6 1_555 1_555
O22_8 W7_6 1_555 1_555
W6_6 O30_6 1_555 1_555
W6_6 O34_6 1_555 1_555
W7_6 O31_6 1_555 1_555
W7_6 O35_6 1_555 1_555
W8_4 O45_4 1_555 1_555
W8_4 O52_4 1_555 1_555
Lu5_3 O27_6 1_555 1_555
C9_4 C14_4 1_555 1_555
N2_4 C13_4 1_555 1_555
O40_4 W11_5 1_555 1_555
W9_6 O50_5 1_555 1_555
W10_4 O47_6 1_555 1_555
W10_4 O52_4 1_555 1_555
W10_4 O56_4 1_555 1_555
W11_5 O53_5 1_555 1_555
W11_5 O57_4 1_555 1_555
W11_5 O62_5 1_555 1_555
W12_6 O61_6 1_555 1_555
W12_6 O67_6 1_555 1_555
C16_5 C21_5 1_555 1_555
O24_4 H18_4 1_555 1_555
O24_4 H19_4 1_555 1_555
O36_6 H20_6 1_555 1_555
O36_6 H21_6 1_555 1_555
O37_6 H22_6 1_555 1_555
O37_6 H23_6 1_555 1_555
O38_4 H24_4 1_555 1_555
O38_4 H25_4 1_555 1_555
O41_6 H42_6 1_555 1_555
O41_6 H43_6 1_555 1_555
Lu4_3 O1_5 1_555 1_555
C1_5 C3_4 1_555 1_555
O10_5 Lu4_3 1_555 1_555
O13_4 Lu4_3 1_555 1_555
O14_5 Lu4_3 1_555 1_555
O15_5 Lu4_3 1_555 1_555
O18_5 Lu4_3 1_555 1_555
C3_4 O10_5 1_555 1_555
O21_4 C3_4 1_555 1_555
C6_5 C1_5 1_555 1_555
H2_5 C6_5 1_555 1_555
O15_5 H14_5 1_555 1_555
O15_5 H15_5 1_555 1_555
O13_4 H16_4 1_555 1_555
O13_4 H17_4 1_555 1_555
O18_5 H27_5 1_555 1_555
O14_5 H28_5 1_555 1_555
O14_5 H29_5 1_555 1_555
O1_5 H30_5 1_555 1_555
O1_5 H31_5 1_555 1_555
N2_5 C12_5 1_555 1_555
O43_5 W8_5 1_555 1_555
C12_5 C9_5 1_555 1_555
H4_5 C12_5 1_555 1_555
C13_5 C8_5 1_555 1_555
H5_5 C13_5 1_555 1_555
C14_5 C8_5 1_555 1_555
W10_5 O28_5 1_555 1_555
O48_5 W10_5 1_555 1_555
O56_5 W8_5 1_555 1_555
O57_5 W10_5 1_555 1_555
W8_5 O45_5 1_555 1_555
W8_5 O52_5 1_555 1_555
C9_5 C14_5 1_555 1_555
N2_5 C13_5 1_555 1_555
W10_5 O52_5 1_555 1_555
W10_5 O56_5 1_555 1_555
O24_5 H18_5 1_555 1_555
O24_5 H19_5 1_555 1_555
O38_5 H24_5 1_555 1_555
O38_5 H25_5 1_555 1_555
W11_6 O22_10 1_555 1_555
C15_5 C17_5 1_555 1_555
O51_6 W11_6 1_555 1_555
C16_6 C18_6 1_555 1_555
N3_6 C19_6 1_555 1_555
O54_4 C18_6 1_555 1_555
O64_6 C18_6 1_555 1_555
C17_5 O55_5 1_555 1_555
O66_5 C17_5 1_555 1_555
C19_6 C16_6 1_555 1_555
H7_6 C19_6 1_555 1_555
C20_5 C15_5 1_555 1_555
H8_5 C20_5 1_555 1_555
C21_6 C15_5 1_555 1_555
H9_6 C21_6 1_555 1_555
Lu4_4 O54_4 1_555 1_555
W11_6 O53_6 1_555 1_555
W11_6 O62_6 1_555 1_555
C16_6 C21_6 1_555 1_555
N3_6 C20_5 1_555 1_555
O58_5 H40_5 1_555 1_555
O58_5 H41_5 1_555 1_555
Lu4_4 O1_6 1_555 1_555
C1_6 C3_5 1_555 1_555
O10_6 Lu4_4 1_555 1_555
O13_5 Lu4_4 1_555 1_555
O14_6 Lu4_4 1_555 1_555
O15_6 Lu4_4 1_555 1_555
O18_6 Lu4_4 1_555 1_555
C3_5 O10_6 1_555 1_555
O21_5 C3_5 1_555 1_555
C6_6 C1_6 1_555 1_555
H2_6 C6_6 1_555 1_555
O15_6 H14_6 1_555 1_555
O15_6 H15_6 1_555 1_555
O13_5 H16_5 1_555 1_555
O13_5 H17_5 1_555 1_555
O18_6 H27_6 1_555 1_555
O14_6 H28_6 1_555 1_555
O14_6 H29_6 1_555 1_555
O1_6 H30_6 1_555 1_555
O1_6 H31_6 1_555 1_555
W3_6 O6_6 1_555 1_555
O9_4 C4_6 1_555 1_555
O21_6 C3_6 1_555 1_555
O22_11 W3_6 1_555 1_555
Lu6_4 O9_4 1_555 1_555
W3_6 O8_6 1_555 1_555
O13_6 H16_6 1_555 1_555
O13_6 H17_6 1_555 1_555
Lu6_4 O46_6 1_555 1_555
C15_6 C17_6 1_555 1_555
O55_6 Lu6_4 1_555 1_555
O58_6 Lu6_4 1_555 1_555
O59_6 Lu6_4 1_555 1_555
O60_6 Lu6_4 1_555 1_555
O63_6 Lu6_4 1_555 1_555
C17_6 O55_6 1_555 1_555
O66_6 C17_6 1_555 1_555
C20_6 C15_6 1_555 1_555
H8_6 C20_6 1_555 1_555
O63_6 H33_6 1_555 1_555
O46_6 H34_6 1_555 1_555
O46_6 H35_6 1_555 1_555
O59_6 H36_6 1_555 1_555
O59_6 H37_6 1_555 1_555
O60_6 H38_6 1_555 1_555
O60_6 H39_6 1_555 1_555
O58_6 H40_6 1_555 1_555
O58_6 H41_6 1_555 1_555
O43_6 W8_6 1_555 1_555
O56_6 W8_6 1_555 1_555
W8_6 O45_6 1_555 1_555
W8_6 O52_6 1_555 1_555
W10_6 O52_6 1_555 1_555
W10_6 O56_6 1_555 1_555
O24_6 H18_6 1_555 1_555
O24_6 H19_6 1_555 1_555
O38_6 H24_6 1_555 1_555
N2_6 C12_6 1_555 1_555
C12_6 C9_6 1_555 1_555
H4_6 C12_6 1_555 1_555
C13_6 C8_6 1_555 1_555
H5_6 C13_6 1_555 1_555
C14_6 C8_6 1_555 1_555
C9_6 C14_6 1_555 1_555
N2_6 C13_6 1_555 1_555
H12 N4 1_555 1_555
H13 N4 1_555 1_555
H12_2 N4_2 1_555 1_555
H13_2 N4_2 1_555 1_555
N4_3 H10_3 1_555 1_555
H11_3 N4_3 1_555 1_555
H12_3 N4_3 1_555 1_555
H13_3 N4_3 1_555 1_555
H12_4 N4_4 1_555 1_555
H13_4 N4_4 1_555 1_555
H12_5 N4_5 1_555 1_555
H13_5 N4_5 1_555 1_555
N4_6 H10_6 1_555 1_555
H11_6 N4_6 1_555 1_555
H12_6 N4_6 1_555 1_555
H13_6 N4_6 1_555 1_555
H11_7 N4_7 1_555 1_555
H12_7 N4_7 1_555 1_555
H13_7 N4_7 1_555 1_555
N4_8 H10_8 1_555 1_555
H11_8 N4_8 1_555 1_555
H12_8 N4_8 1_555 1_555
H13_8 N4_8 1_555 1_555
H11_9 N4_9 1_555 1_555
H12_9 N4_9 1_555 1_555
H13_9 N4_9 1_555 1_555
H11_10 N4_10 1_555 1_555
H12_10 N4_10 1_555 1_555
H13_10 N4_10 1_555 1_555
N4_11 H10_11 1_555 1_555
H11_11 N4_11 1_555 1_555
H12_11 N4_11 1_555 1_555
H13_11 N4_11 1_555 1_555
H11_12 N4_12 1_555 1_555
H12_12 N4_12 1_555 1_555
H13_12 N4_12 1_555 1_555
N4_13 H10_13 1_555 1_555
H11_13 N4_13 1_555 1_555
H12_13 N4_13 1_555 1_555
H13_13 N4_13 1_555 1_555
H11_14 N4_14 1_555 1_555
H13_14 N4_14 1_555 1_555
H11_15 N4_15 1_555 1_555
H13_15 N4_15 1_555 1_555
N4_16 H10_16 1_555 1_555
H11_16 N4_16 1_555 1_555
H12_16 N4_16 1_555 1_555
H13_16 N4_16 1_555 1_555
H11_17 N4_17 1_555 1_555
H13_17 N4_17 1_555 1_555
H11_18 N4_18 1_555 1_555
H13_18 N4_18 1_555 1_555

#END
