
###############################################################################
#
# This file contains modified crystal structure data generated from the
# MOF subset of the Cambridge Structural Database (CSD) v543 
# hosted by the Cambridge Crystallographic Data Centre (CCDC).
#
# This work is licensed under the Creative Commons
# Attribution-NonCommercial-ShareAlike 4.0 International License.
# To view a copy of this license, visit
# http://creativecommons.org/licenses/by-nc-sa/4.0/
# or send a letter to
# Creative Commons, PO Box 1866, Mountain View, CA 94042, USA.
#
# CIF created using the CSD Python API on 29 September 2022
# The structure has been converted into the P1 space group
# The structure has a 3D framework
# The original CSD entry LEZXAR is in the rhombohedral crystal system
# The framework has been calculated to contain at least 10.0% void space
# The void calculation uses a probe of radius 1.32A, grid spacing 0.4
# The framework is charged, counterions have been retained in the structure
# H atom positions have been added when not included in the experimental data
#
###############################################################################

data_LEZXAR
_chemical_formula_moiety         '(C126 H306 N36 O408 W72 Yb18)n'
_symmetry_cell_setting           triclinic
_symmetry_space_group_name_H-M   'P 1'
_symmetry_Int_Tables_number      1
_space_group_name_Hall           'P 1'
loop_
_symmetry_equiv_pos_site_id
_symmetry_equiv_pos_as_xyz
1 x,y,z
_cell_length_a                   16.6606(9)
_cell_length_b                   16.6606(9)
_cell_length_c                   51.316(4)
_cell_angle_alpha                90
_cell_angle_beta                 90
_cell_angle_gamma                120
_cell_volume                     12335.7
loop_
_atom_site_label
_atom_site_type_symbol
_atom_site_fract_x
_atom_site_fract_y
_atom_site_fract_z
O15 O 0.3743(16) 0.0891(11) 0.9519(3)
C2 C 0.3803(16) 0.0172(15) 0.9910(4)
C3 C 0.4636(15) 0.0297(17) 0.9870(5)
H1 H 0.4980 0.0693 0.9727
C6 C 0.330(3) 0.047(2) 0.9723(5)
O20 O 0.2603(24) 0.051(2) 0.9824(6)
Yb5 Yb 0.32196(8) 0.10492(5) 0.912876(16)
W1 W 0.52003(6) 0.25158(6) 0.529757(18)
O1 O 0.5276(9) 0.4200(9) 0.5766(3)
O2 O 0.6667 0.3333 0.6160(4)
O3 O 0.4522(11) 0.1221(12) 0.5437(3)
O4 O 0.5773(10) 0.1174(10) 0.6632(3)
O5 O 0.4893(9) 0.3196(9) 0.6180(3)
O6 O 0.3391(10) 0.2939(11) 0.5883(4)
O7 O 0.4303(12) 0.2723(11) 0.5460(3)
O10 O 0.2230(11) 0.0179(11) 0.5721(3)
O11 O 0.5577(9) 0.2686(9) 0.6558(3)
O12 O 0.3888(9) 0.1614(9) 0.5880(3)
O18 O 0.5492(10) 0.2606(10) 0.5725(3)
W2 W 0.43925(5) 0.29080(5) 0.583995(16)
W3 W 0.47510(5) 0.11446(5) 0.579941(15)
O21 O 0.6215(10) 0.2282(9) 0.5272(3)
O22 O 0.4741(14) 0.2226(13) 0.4986(4)
W4 W 0.60792(5) 0.19982(5) 0.640602(17)
O23 O 0.5158(10) 0.1457(12) 0.6168(3)
W5 W 0.73155(8) 0.47997(6) 0.529757(18)
Yb2 Yb 0.65529(8) 0.77159(5) 0.579543(16)
O24 O 0.8924(13) 0.4724(9) 0.5766(3)
C8 C 0.5627(19) 0.9402(14) 0.5297(4)
O25 O 0.6699(16) 0.5478(11) 0.5437(3)
O26 O 0.5401(14) 0.4227(10) 0.6632(3)
O27 O 0.8303(13) 0.5107(9) 0.6180(3)
O28 O 0.9548(15) 0.6609(10) 0.5883(4)
O29 O 0.8420(16) 0.5697(12) 0.5460(3)
O30 O 0.6520(16) 0.7318(12) 0.5350(3)
O31 O 0.5953(21) 0.8306(17) 0.6121(4)
O32 O 0.7949(16) 0.7770(11) 0.5721(3)
O33 O 0.7109(13) 0.4423(9) 0.6558(3)
O34 O 0.7726(13) 0.6112(9) 0.5880(3)
O35 O 0.6125(14) 0.8582(11) 0.5564(3)
O36 O 0.6118(14) 0.6141(10) 0.5824(3)
O38 O 0.4969(16) 0.6821(12) 0.5768(5)
N2 N 0.4913(21) 0.9951(16) 0.4975(4)
C11 C 0.6326(21) 0.9675(14) 0.5130(6)
H5 H 0.6800 0.9521 0.5164
C12 C 0.4889(22) 0.9553(14) 0.5222(4)
H6 H 0.4343 0.9327 0.5328
O39 O 0.4956(24) 0.867(2) 0.5718(4)
C14 C 0.5545(21) 0.8836(15) 0.5538(4)
O40 O 0.7114(14) 0.4508(10) 0.5725(3)
W6 W 0.85155(7) 0.56075(5) 0.583995(16)
W7 W 0.63936(7) 0.52490(5) 0.579941(15)
O41 O 0.7750(16) 0.9242(11) 0.5823(4)
O43 O 0.6067(13) 0.3785(10) 0.5272(3)
O44 O 0.7485(19) 0.5259(14) 0.4986(4)
W8 W 0.59190(7) 0.39208(5) 0.640602(17)
O45 O 0.6299(16) 0.4842(10) 0.6168(3)
W9 W 0.74842(6) 0.26845(8) 0.529757(18)
O46 O 0.5800(9) 0.1076(13) 0.5766(3)
O47 O 0.8779(12) 0.3301(16) 0.5437(3)
O48 O 0.8826(10) 0.4599(14) 0.6632(3)
O49 O 0.6804(9) 0.1697(13) 0.6180(3)
O50 O 0.7061(11) 0.0452(15) 0.5883(4)
O51 O 0.7277(11) 0.1580(16) 0.5460(3)
O54 O 0.9821(11) 0.2051(16) 0.5721(3)
O55 O 0.7314(9) 0.2891(13) 0.6558(3)
O56 O 0.8386(9) 0.2274(13) 0.5880(3)
O62 O 0.7394(10) 0.2886(14) 0.5725(3)
W10 W 0.70920(5) 0.14845(7) 0.583995(16)
W11 W 0.88554(5) 0.36064(7) 0.579941(15)
O65 O 0.7718(9) 0.3933(13) 0.5272(3)
O66 O 0.7774(13) 0.2515(19) 0.4986(4)
W12 W 0.80018(5) 0.40810(7) 0.640602(17)
O67 O 0.8543(12) 0.3701(16) 0.6168(3)
O68 O 0.7076(16) 0.7558(11) 0.6186(3)
H14 H 0.782956 0.715107 0.566309
H15 H 0.831787 0.794661 0.588434
H16 H 0.47349 0.708385 0.563421
H17 H 0.468948 0.681346 0.593954
H20 H 0.588256 0.682994 0.530205
H21 H 0.69554 0.70826 0.53214
H22 H 0.284893 0.0678493 0.566309
H23 H 0.205339 0.037126 0.588434
H28 H 0.609669 0.894097 0.607215
H29 H 0.624267 0.832565 0.629176
H32 H 0.833951 0.928018 0.576793
H33 H 0.780847 0.946165 0.600563
H40 H 0.932151 0.217044 0.566309
H41 H 0.962874 0.168213 0.588434
C8_2 C 0.2294(19) 0.2735(14) 0.8630(4)
O30_2 O 0.3187(16) 0.0651(12) 0.8683(3)
O31_2 O 0.2620(21) 0.1639(17) 0.9454(4)
O32_2 O 0.4616(16) 0.1103(11) 0.9054(3)
O35_2 O 0.2792(14) 0.1915(11) 0.8897(3)
O37 O 0.3815(19) 0.4224(11) 0.7852(3)
O38_2 O 0.1636(16) 0.0154(12) 0.9101(5)
C9 C 0.3036(22) 0.3505(15) 0.8243(4)
N2_2 N 0.1580(21) 0.3284(16) 0.8308(4)
C10 C 0.2328(23) 0.3630(17) 0.8203(5)
H4 H 0.2380 0.4026 0.8060
C11_2 C 0.2993(21) 0.3008(14) 0.8463(6)
H5_2 H 0.3467 0.2854 0.8497
C12_2 C 0.1556(22) 0.2886(14) 0.8555(4)
H6_2 H 0.1010 0.2660 0.8661
C13 C 0.384(4) 0.380(2) 0.8056(5)
O39_2 O 0.1623(24) 0.200(2) 0.9051(4)
C14_2 C 0.2212(21) 0.2169(15) 0.8871(4)
O41_2 O 0.4417(16) 0.2575(11) 0.9156(4)
O42 O 0.4574(31) 0.384(2) 0.8157(6)
Yb4 Yb 0.44963(6) 0.43826(5) 0.746210(16)
H14_2 H 0.449623 0.0484401 0.899642
H15_2 H 0.498454 0.127995 0.921768
H16_2 H 0.140156 0.0417185 0.896755
H17_2 H 0.135615 0.0146794 0.927287
H20_2 H 0.254923 0.0163275 0.863538
H21_2 H 0.362206 0.0415934 0.865473
H28_2 H 0.276336 0.227431 0.940548
H29_2 H 0.290933 0.165899 0.96251
H32_2 H 0.500617 0.261351 0.910127
H33_2 H 0.447514 0.279499 0.933896
W1_2 W 0.08175(6) 0.14664(6) 0.696424(18)
O2_2 O 0.0000 -0.0000 0.7827(4)
C1 C 0.7108(13) 0.6069(14) 0.6964(4)
O3_2 O 0.2112(12) 0.2145(11) 0.7104(3)
O4_2 O 0.2159(10) 0.0894(10) 0.8299(3)
O5_2 O 0.0137(9) 0.1774(9) 0.7847(3)
O6_2 O 0.0394(11) 0.3276(10) 0.7550(4)
O7_2 O 0.0610(11) 0.2364(12) 0.7127(3)
O8 O 0.4131(11) 0.3985(12) 0.7017(3)
O9 O 0.5686(13) 0.4973(17) 0.7788(4)
O10_2 O 0.3154(11) 0.4437(11) 0.7388(3)
O11_2 O 0.0647(9) 0.1090(9) 0.8225(3)
O12_2 O 0.1719(9) 0.2779(9) 0.7547(3)
O13 O 0.5790(9) 0.5249(11) 0.7231(3)
O14 O 0.3356(10) 0.2808(10) 0.7491(3)
O16 O 0.5185(11) 0.3488(12) 0.7435(5)
C2_2 C 0.7136(16) 0.6839(15) 0.6577(4)
N1 N 0.8371(13) 0.6618(16) 0.6642(4)
C3_2 C 0.7969(15) 0.6964(17) 0.6537(5)
H1_2 H 0.8313 0.7360 0.6394
C4 C 0.6682(15) 0.6342(14) 0.6797(6)
H2 H 0.6054 0.6188 0.6831
C5 C 0.7997(17) 0.6220(14) 0.6889(4)
H3 H 0.8317 0.5994 0.6995
C6_2 C 0.663(3) 0.714(2) 0.6390(5)
O17 O 0.7047(13) 0.534(2) 0.7385(4)
C7 C 0.6624(15) 0.5503(15) 0.7205(4)
O18_2 O 0.0727(10) 0.1175(10) 0.7392(3)
W2_2 W 0.04253(5) 0.22742(5) 0.750662(16)
W3_2 W 0.21887(5) 0.19157(5) 0.746608(15)
O19 O 0.4825(11) 0.5909(11) 0.7490(4)
O20_2 O 0.5936(24) 0.718(2) 0.6491(6)
O21_2 O 0.1051(9) 0.0452(10) 0.6939(3)
O22_2 O 0.1107(13) 0.1926(14) 0.6653(4)
W4_2 W 0.13351(5) 0.05875(5) 0.807269(17)
O23_2 O 0.1876(12) 0.1509(10) 0.7835(3)
O46_2 O 0.2257(13) 0.0867(9) 0.7433(3)
H18 H 0.428071 0.349661 0.696871
H19 H 0.346054 0.374927 0.698806
H22_2 H 0.265484 0.381773 0.732975
H23_2 H 0.296207 0.461328 0.755101
H24 H 0.568229 0.375052 0.730088
H25 H 0.545732 0.348013 0.76062
H26 H 0.427401 0.594685 0.74346
H27 H 0.498652 0.612832 0.767229
H30 H 0.617761 0.560764 0.773882
H31 H 0.541632 0.499232 0.795843
Yb1 Yb 0.11630(6) 0.77159(5) 0.079543(16)
C1_2 C 0.3775(13) 0.9402(14) 0.0297(4)
O8_2 O 0.0798(11) 0.7318(12) 0.0350(3)
O9_2 O 0.2353(13) 0.8306(17) 0.1121(4)
O13_2 O 0.2457(9) 0.8582(11) 0.0564(3)
O14_2 O 0.0023(10) 0.6141(10) 0.0824(3)
O16_2 O 0.1852(11) 0.6821(12) 0.0768(5)
C4_2 C 0.3349(15) 0.9675(14) 0.0130(6)
H2_2 H 0.2721 0.9521 0.0164
C5_2 C 0.4664(17) 0.9553(14) 0.0222(4)
H3_2 H 0.4984 0.9327 0.0328
O17_2 O 0.3714(13) 0.867(2) 0.0718(4)
C7_2 C 0.3291(15) 0.8836(15) 0.0538(4)
O19_2 O 0.1492(11) 0.9242(11) 0.0823(4)
O69 O 0.0481(19) 0.7558(11) 0.1186(3)
H18_2 H 0.0947378 0.682994 0.0302046
H19_2 H 0.0127205 0.70826 0.0321395
H24_2 H 0.234895 0.708385 0.0634212
H25_2 H 0.212398 0.681346 0.0939538
H26_2 H 0.0940673 0.928018 0.0767933
H27_2 H 0.165318 0.946165 0.100563
H30_2 H 0.284428 0.894097 0.107215
H31_2 H 0.208299 0.832565 0.129176
Yb3 Yb 0.11630(6) 0.34471(8) 0.579543(16)
C15 C 0.3775(13) 0.4373(19) 0.5297(4)
O52 O 0.0798(11) 0.3480(16) 0.5350(3)
O53 O 0.2353(13) 0.4047(21) 0.6121(4)
O57 O 0.2457(9) 0.3875(14) 0.5564(3)
O58 O 0.0023(10) 0.3882(14) 0.5824(3)
O59 O 0.3743(16) 0.2852(19) 0.4519(3)
O60 O 0.1852(11) 0.5031(16) 0.5768(5)
C16 C 0.3803(16) 0.3631(22) 0.4910(4)
N3 N 0.5038(13) 0.5087(21) 0.4975(4)
C17 C 0.4636(15) 0.4339(23) 0.4870(5)
H7 H 0.4980 0.4287 0.4727
C18 C 0.3349(15) 0.3674(21) 0.5130(6)
H8 H 0.2721 0.3200 0.5164
C19 C 0.4664(17) 0.5111(22) 0.5222(4)
H9 H 0.4984 0.5657 0.5328
C20 C 0.330(3) 0.283(4) 0.4723(5)
O61 O 0.3714(13) 0.5044(24) 0.5718(4)
C21 C 0.3291(15) 0.4455(21) 0.5538(4)
O63 O 0.1492(11) 0.2250(16) 0.5823(4)
O64 O 0.2603(24) 0.2093(31) 0.4824(6)
Yb6 Yb 0.32196(8) 0.21703(6) 0.412876(16)
O70 O 0.0481(19) 0.2924(16) 0.6186(3)
H34 H 0.0947378 0.411744 0.530205
H35 H 0.0127205 0.30446 0.53214
H36 H 0.234895 0.52651 0.563421
H37 H 0.212398 0.531052 0.593954
H38 H 0.0940673 0.166049 0.576793
H39 H 0.165318 0.219153 0.600563
H42 H 0.284428 0.390331 0.607215
H43 H 0.208299 0.375733 0.629176
C1_3 C 0.0442(13) 0.2735(14) 0.3630(4)
O15_2 O 0.0410(16) 0.4224(11) 0.2852(3)
C2_3 C 0.0470(16) 0.3505(15) 0.3243(4)
N1_2 N 0.1705(13) 0.3284(16) 0.3308(4)
C3_3 C 0.1303(15) 0.3630(17) 0.3203(5)
H1_3 H 0.1647 0.4026 0.3060
C4_3 C 0.0016(15) 0.3008(14) 0.3463(6)
C5_3 C 0.1331(17) 0.2886(14) 0.3555(4)
H3_3 H 0.1651 0.2660 0.3661
O17_3 O 0.0381(13) 0.200(2) 0.4051(4)
W1_3 W 0.41509(6) 0.81330(6) 0.363090(18)
O1_2 O 0.2467(9) 0.8057(9) 0.4099(3)
O2_3 O 0.3334 0.6666 0.4493(4)
O3_3 O 0.5446(12) 0.8811(11) 0.3770(3)
O4_3 O 0.5493(10) 0.7560(10) 0.4965(3)
O5_3 O 0.3471(9) 0.8440(9) 0.4513(3)
O6_3 O 0.3728(11) 0.9942(10) 0.4216(4)
O7_3 O 0.3944(11) 0.9030(12) 0.3793(3)
O11_3 O 0.3981(9) 0.7756(9) 0.4891(3)
O12_3 O 0.5053(9) 0.9445(9) 0.4213(3)
O14_3 O 0.6690(10) 0.9474(10) 0.4157(3)
O18_3 O 0.4061(10) 0.7841(10) 0.4058(3)
W2_3 W 0.37587(5) 0.89408(5) 0.417328(16)
W3_3 W 0.55221(5) 0.85823(5) 0.413274(15)
O21_3 O 0.4385(9) 0.7118(10) 0.3605(3)
O22_3 O 0.4441(13) 0.8592(14) 0.3319(4)
W4_3 W 0.46685(5) 0.72541(5) 0.473935(17)
O23_3 O 0.5210(12) 0.8175(10) 0.4501(3)
W5_2 W 0.18670(6) 0.60178(8) 0.363090(18)
O24_2 O 0.1943(9) 0.4409(13) 0.4099(3)
O25_2 O 0.1189(11) 0.6634(16) 0.3770(3)
O26_2 O 0.2440(10) 0.7932(14) 0.4965(3)
O27_2 O 0.1560(9) 0.5030(13) 0.4513(3)
O28_2 O 0.0058(10) 0.3785(15) 0.4216(4)
O29_2 O 0.0970(12) 0.4913(16) 0.3793(3)
O33_2 O 0.2244(9) 0.6224(13) 0.4891(3)
O34_2 O 0.0555(9) 0.5607(13) 0.4213(3)
O36_2 O 0.0526(10) 0.7215(14) 0.4157(3)
O40_2 O 0.2159(10) 0.6219(14) 0.4058(3)
W6_2 W 0.10592(5) 0.48178(7) 0.417328(16)
W7_2 W 0.14177(5) 0.69397(7) 0.413274(15)
O43_2 O 0.2882(10) 0.7266(13) 0.3605(3)
O44_2 O 0.1408(14) 0.5848(19) 0.3319(4)
W8_2 W 0.27459(5) 0.74143(7) 0.473935(17)
O45_2 O 0.1825(10) 0.7034(16) 0.4501(3)
W9_2 W 0.39822(8) 0.58491(6) 0.363090(18)
O46_3 O 0.5591(13) 0.7533(9) 0.4099(3)
O47_2 O 0.3366(16) 0.4554(12) 0.3770(3)
O48_2 O 0.2068(14) 0.4507(10) 0.4965(3)
O49_2 O 0.4970(13) 0.6529(9) 0.4513(3)
O50_2 O 0.6215(15) 0.6272(11) 0.4216(4)
O51_2 O 0.5087(16) 0.6056(11) 0.3793(3)
O52_2 O 0.3187(16) 0.2535(11) 0.3683(3)
O53_2 O 0.2620(21) 0.0980(13) 0.4454(4)
O54_2 O 0.4616(16) 0.3512(11) 0.4054(3)
O55_2 O 0.3776(13) 0.6019(9) 0.4891(3)
O56_2 O 0.4393(13) 0.4947(9) 0.4213(3)
O57_2 O 0.2792(14) 0.0876(9) 0.3897(3)
O58_2 O 0.2785(14) 0.3310(10) 0.4157(3)
O60_2 O 0.1636(16) 0.1481(11) 0.4101(5)
H8_2 H 0.3467 0.0612 0.3497
C20_2 C 0.384(4) 0.003(3) 0.3056(5)
C21_2 C 0.2212(21) 0.0042(15) 0.3871(4)
O62_2 O 0.3781(14) 0.5939(10) 0.4058(3)
W10_2 W 0.51822(7) 0.62413(5) 0.417328(16)
W11_2 W 0.30603(7) 0.44779(5) 0.413274(15)
O63_2 O 0.4417(16) 0.1841(11) 0.4156(4)
O64_2 O 0.4574(31) 0.0730(24) 0.3157(6)
O65_2 O 0.2734(13) 0.5615(9) 0.3605(3)
O66_2 O 0.4152(19) 0.5559(13) 0.3319(4)
W12_2 W 0.25857(7) 0.53315(5) 0.473935(17)
O67_2 O 0.2966(16) 0.4790(12) 0.4501(3)
Yb6_2 Yb 0.44963(6) 0.01138(8) 0.246210(16)
H34_2 H 0.254923 0.238596 0.363538
H35_2 H 0.362206 0.320613 0.365473
H36_2 H 0.140156 0.0984379 0.396755
H37_2 H 0.135615 0.120935 0.427287
H38_2 H 0.500617 0.239266 0.410127
H39_2 H 0.447514 0.168015 0.433896
H40_2 H 0.449623 0.401183 0.399642
H41_2 H 0.498454 0.370459 0.421768
H42_2 H 0.276336 0.0489053 0.440548
H43_2 H 0.290933 0.125035 0.46251
C15_2 C 0.0442(13) 0.7706(19) 0.8630(4)
O59_2 O 0.0410(16) 0.6185(19) 0.7852(3)
C16_2 C 0.0470(16) 0.6964(22) 0.8243(4)
N3_2 N 0.1705(13) 0.8420(21) 0.8308(4)
C17_2 C 0.1303(15) 0.7672(23) 0.8203(5)
H7_2 H 0.1647 0.7620 0.8060
C18_2 C 0.0016(15) 0.7007(21) 0.8463(6)
C19_2 C 0.1331(17) 0.8444(22) 0.8555(4)
H9_2 H 0.1651 0.8990 0.8661
O61_2 O 0.0381(13) 0.8377(24) 0.9051(4)
O2_4 O 0.0000 1.0000 0.7827(4)
W9_3 W 0.06488(8) 0.91825(6) 0.696424(18)
O47_3 O 0.0032(16) 0.7888(12) 0.7104(3)
O49_3 O 0.1636(13) 0.9863(9) 0.7847(3)
O50_3 O 0.2881(15) 0.9606(11) 0.7550(4)
O51_3 O 0.1753(16) 0.9390(11) 0.7127(3)
O54_3 O 0.1282(16) 0.6846(11) 0.7388(3)
O55_3 O 0.0442(13) 0.9353(9) 0.8225(3)
O56_3 O 0.1059(13) 0.8281(9) 0.7547(3)
H8_3 H 0.0133 0.3946 0.6831
C20_3 C 0.050(4) 0.337(3) 0.6390(5)
O62_3 O 0.0447(14) 0.9273(10) 0.7392(3)
W10_3 W 0.18488(7) 0.95747(5) 0.750662(16)
O63_3 O 0.1083(16) 0.5175(11) 0.7490(4)
O64_3 O 0.1240(31) 0.4064(24) 0.6491(6)
O66_3 O 0.0818(19) 0.8893(13) 0.6653(4)
H35_3 H 0.0288729 0.653946 0.698806
H38_3 H 0.167284 0.572599 0.74346
H39_3 H 0.11418 0.501348 0.767229
H40_3 H 0.116289 0.734516 0.732975
H41_3 H 0.165121 0.703793 0.755101
O2_5 O 0.0000 -0.0000 0.2827(4)
W5_3 W 0.06488(8) 0.14664(6) 0.196424(18)
O24_3 O 0.2257(13) 0.1391(9) 0.2433(3)
O25_3 O 0.0032(16) 0.2145(11) 0.2104(3)
O27_3 O 0.1636(13) 0.1774(9) 0.2847(3)
O28_3 O 0.2881(15) 0.3276(10) 0.2550(4)
O29_3 O 0.1753(16) 0.2364(12) 0.2127(3)
O32_3 O 0.1282(16) 0.4437(11) 0.2388(3)
O33_3 O 0.0442(13) 0.1090(9) 0.3225(3)
O34_3 O 0.1059(13) 0.2779(9) 0.2547(3)
H5_3 H 0.0133 0.6188 0.1831
C13_2 C 0.050(4) 0.714(2) 0.1390(5)
O40_3 O 0.0447(14) 0.1175(10) 0.2392(3)
W6_3 W 0.18488(7) 0.22742(5) 0.250662(16)
O41_3 O 0.1083(16) 0.5909(11) 0.2490(4)
O42_2 O 0.1240(31) 0.718(2) 0.1491(6)
O44_3 O 0.0818(19) 0.1926(14) 0.1653(4)
C15_3 C 0.7108(13) 0.1040(19) 0.1964(4)
O48_3 O 0.2159(10) 0.1266(14) 0.3299(3)
O52_3 O 0.4131(11) 0.0147(16) 0.2017(3)
O53_3 O 0.5686(13) 0.0714(21) 0.2788(4)
O57_3 O 0.5790(9) 0.0542(14) 0.2231(3)
O58_3 O 0.3356(10) 0.0549(14) 0.2491(3)
O60_3 O 0.5185(11) 0.1698(16) 0.2435(5)
C16_3 C 0.7136(16) 0.0298(22) 0.1577(4)
N3_3 N 0.8371(13) 0.1754(21) 0.1642(4)
C17_3 C 0.7969(15) 0.1006(23) 0.1537(5)
H7_3 H 0.8313 0.0954 0.1394
C18_3 C 0.6682(15) 0.0341(21) 0.1797(6)
C19_3 C 0.7997(17) 0.1778(22) 0.1889(4)
H9_3 H 0.8317 0.2324 0.1995
O61_3 O 0.7047(13) 0.1711(24) 0.2385(4)
C21_3 C 0.6624(15) 0.1122(21) 0.2205(4)
W11_3 W 0.21887(5) 0.02731(7) 0.246608(15)
O65_3 O 0.1051(9) 0.0600(13) 0.1939(3)
W12_3 W 0.13351(5) 0.07477(7) 0.307269(17)
O67_3 O 0.1876(12) 0.0368(16) 0.2835(3)
H14_3 H 0.116289 0.381773 0.232975
H15_3 H 0.165121 0.461328 0.255101
H21_3 H 0.0288729 0.374927 0.198806
H32_3 H 0.167284 0.594685 0.24346
H33_3 H 0.11418 0.612832 0.267229
H34_3 H 0.428071 0.0784103 0.196871
H36_3 H 0.568229 0.193177 0.230088
H37_3 H 0.545732 0.197719 0.26062
H42_3 H 0.617761 0.0569973 0.273882
H43_3 H 0.541632 0.0423998 0.295843
N1_3 N 0.5038(13) 0.9951(16) 0.9975(4)
W1_4 W 0.74842(6) 0.47997(6) 0.029757(18)
O1_3 O 0.5800(9) 0.4724(9) 0.0766(3)
O2_6 O 0.6667 0.3333 0.1160(4)
O3_4 O 0.8779(12) 0.5478(11) 0.0437(3)
O4_4 O 0.8826(10) 0.4227(10) 0.1632(3)
O5_4 O 0.6804(9) 0.5107(9) 0.1180(3)
O6_4 O 0.7061(11) 0.6609(10) 0.0883(4)
O7_4 O 0.7277(11) 0.5697(12) 0.0460(3)
O10_3 O 0.9821(11) 0.7770(11) 0.0721(3)
O11_4 O 0.7314(9) 0.4423(9) 0.1558(3)
O12_4 O 0.8386(9) 0.6112(9) 0.0880(3)
O18_4 O 0.7394(10) 0.4508(10) 0.0725(3)
W2_4 W 0.70920(5) 0.56075(5) 0.083995(16)
W3_4 W 0.88554(5) 0.52490(5) 0.079941(15)
O21_4 O 0.7718(9) 0.3785(10) 0.0272(3)
W4_4 W 0.80018(5) 0.39208(5) 0.140602(17)
O23_4 O 0.8543(12) 0.4842(10) 0.1168(3)
W5_4 W 0.52003(6) 0.26845(8) 0.029757(18)
Yb2_2 Yb 0.22841(5) 0.34471(8) 0.079543(16)
O24_4 O 0.5276(9) 0.1076(13) 0.0766(3)
C8_3 C 0.0598(14) 0.4373(19) 0.0297(4)
O25_4 O 0.4522(11) 0.3301(16) 0.0437(3)
O26_3 O 0.5773(10) 0.4599(14) 0.1632(3)
O27_4 O 0.4893(9) 0.1697(13) 0.1180(3)
O28_4 O 0.3391(10) 0.0452(15) 0.0883(4)
O29_4 O 0.4303(12) 0.1580(16) 0.0460(3)
O30_3 O 0.2682(12) 0.3480(16) 0.0350(3)
O31_3 O 0.1694(17) 0.4047(21) 0.1121(4)
O32_4 O 0.2230(11) 0.2051(16) 0.0721(3)
O33_4 O 0.5577(9) 0.2891(13) 0.1558(3)
O34_4 O 0.3888(9) 0.2274(13) 0.0880(3)
O35_3 O 0.1418(11) 0.3875(14) 0.0564(3)
O36_3 O 0.3859(10) 0.3882(14) 0.0824(3)
O38_3 O 0.3179(12) 0.5031(16) 0.0768(5)
C11_3 C 0.0325(14) 0.3674(21) 0.0130(6)
H5_4 H 0.0479 0.3200 0.0164
C12_3 C 0.0447(14) 0.5111(22) 0.0222(4)
H6_3 H 0.0673 0.5657 0.0328
O39_3 O 0.133(2) 0.5044(24) 0.0718(4)
C14_3 C 0.1164(15) 0.4455(21) 0.0538(4)
O40_4 O 0.5492(10) 0.2886(14) 0.0725(3)
W6_4 W 0.43925(5) 0.14845(7) 0.083995(16)
W7_3 W 0.47510(5) 0.36064(7) 0.079941(15)
O41_4 O 0.0758(11) 0.2250(16) 0.0823(4)
O43_3 O 0.6215(10) 0.3933(13) 0.0272(3)
W8_3 W 0.60792(5) 0.40810(7) 0.140602(17)
O45_3 O 0.5158(10) 0.3701(16) 0.1168(3)
W9_4 W 0.73155(8) 0.25158(6) 0.029757(18)
O46_4 O 0.8924(13) 0.4200(9) 0.0766(3)
O47_4 O 0.6699(16) 0.1221(12) 0.0437(3)
O48_4 O 0.5401(14) 0.1174(10) 0.1632(3)
O49_4 O 0.8303(13) 0.3196(9) 0.1180(3)
O50_4 O 0.9548(15) 0.2939(11) 0.0883(4)
O51_4 O 0.8420(16) 0.2723(11) 0.0460(3)
O54_4 O 0.7949(16) 0.0179(11) 0.0721(3)
O55_4 O 0.7109(13) 0.2686(9) 0.1558(3)
O56_4 O 0.7726(13) 0.1614(9) 0.0880(3)
O62_4 O 0.7114(14) 0.2606(10) 0.0725(3)
W10_4 W 0.85155(7) 0.29080(5) 0.083995(16)
W11_4 W 0.63936(7) 0.11446(5) 0.079941(15)
O65_4 O 0.6067(13) 0.2282(9) 0.0272(3)
W12_4 W 0.59190(7) 0.19982(5) 0.140602(17)
O67_4 O 0.6299(16) 0.1457(12) 0.1168(3)
O68_2 O 0.2442(11) 0.2924(16) 0.1186(3)
H14_4 H 0.284893 0.217044 0.0663087
H15_4 H 0.205339 0.168213 0.0884345
H16_3 H 0.291615 0.52651 0.0634212
H17_3 H 0.318654 0.531052 0.0939538
H20_3 H 0.317006 0.411744 0.0302046
H21_4 H 0.29174 0.30446 0.0321395
H22_3 H 0.932151 0.715107 0.0663087
H23_3 H 0.962874 0.794661 0.0884345
H28_3 H 0.105903 0.390331 0.107215
H29_3 H 0.167435 0.375733 0.129176
H32_4 H 0.071982 0.166049 0.0767933
H33_4 H 0.0538346 0.219153 0.100563
H40_4 H 0.782956 0.0678493 0.0663087
H41_4 H 0.831787 0.037126 0.0884345
O15_3 O 0.9109(11) 0.6257(16) 0.4519(3)
C2_4 C 0.9828(15) 0.6197(16) 0.4910(4)
C3_4 C 0.9703(17) 0.5364(15) 0.4870(5)
H1_4 H 0.9307 0.5020 0.4727
C6_3 C 0.953(2) 0.670(3) 0.4723(5)
O20_3 O 0.949(2) 0.7397(24) 0.4824(6)
Yb5_2 Yb 0.89508(5) 0.67804(8) 0.412876(16)
C8_4 C 0.7265(14) 0.7706(19) 0.3630(4)
O30_4 O 0.9349(12) 0.6813(16) 0.3683(3)
O31_4 O 0.8361(17) 0.7380(21) 0.4454(4)
O32_5 O 0.8897(11) 0.5384(16) 0.4054(3)
O35_4 O 0.8085(11) 0.7208(14) 0.3897(3)
O37_2 O 0.5776(11) 0.6185(19) 0.2852(3)
O38_4 O 0.9846(12) 0.8364(16) 0.4101(5)
C9_2 C 0.6495(15) 0.6964(22) 0.3243(4)
N2_3 N 0.6716(16) 0.8420(21) 0.3308(4)
C10_2 C 0.6370(17) 0.7672(23) 0.3203(5)
H4_2 H 0.5974 0.7620 0.3060
C11_4 C 0.6992(14) 0.7007(21) 0.3463(6)
H5_5 H 0.7146 0.6533 0.3497
C12_4 C 0.7114(14) 0.8444(22) 0.3555(4)
H6_4 H 0.7340 0.8990 0.3661
C13_3 C 0.620(2) 0.616(4) 0.3056(5)
O39_4 O 0.800(2) 0.8377(24) 0.4051(4)
C14_4 C 0.7831(15) 0.7788(21) 0.3871(4)
O41_5 O 0.7425(11) 0.5583(16) 0.4156(4)
O42_3 O 0.616(2) 0.5426(31) 0.3157(6)
Yb4_2 Yb 0.56174(5) 0.55037(6) 0.246210(16)
H14_5 H 0.95156 0.550377 0.399642
H15_5 H 0.872005 0.501546 0.421768
H16_4 H 0.958281 0.859844 0.396755
H17_4 H 0.985321 0.864385 0.427287
H20_4 H 0.983672 0.745077 0.363538
H21_5 H 0.958407 0.637794 0.365473
H28_4 H 0.772569 0.723664 0.440548
H29_4 H 0.834101 0.709067 0.46251
H32_5 H 0.738649 0.499383 0.410127
H33_5 H 0.720501 0.552486 0.433896
W1_5 W 0.85336(6) 0.91825(6) 0.196424(18)
O2_7 O 1.0000 1.0000 0.2827(4)
C1_4 C 0.3931(14) 0.2892(13) 0.1964(4)
O3_5 O 0.7855(11) 0.7888(12) 0.2104(3)
O4_5 O 0.9106(10) 0.7841(10) 0.3299(3)
O5_5 O 0.8226(9) 0.9863(9) 0.2847(3)
O6_5 O 0.6724(10) 0.9606(11) 0.2550(4)
O7_5 O 0.7636(12) 0.9390(11) 0.2127(3)
O8_3 O 0.6015(12) 0.5869(11) 0.2017(3)
O9_3 O 0.5027(17) 0.4314(13) 0.2788(4)
O10_4 O 0.5563(11) 0.6846(11) 0.2388(3)
O11_5 O 0.8910(9) 0.9353(9) 0.3225(3)
O12_5 O 0.7221(9) 0.8281(9) 0.2547(3)
O13_3 O 0.4751(11) 0.4210(9) 0.2231(3)
O14_4 O 0.7192(10) 0.6644(10) 0.2491(3)
O16_3 O 0.6512(12) 0.4815(11) 0.2435(5)
C2_5 C 0.3161(15) 0.2864(16) 0.1577(4)
N1_4 N 0.3382(16) 0.1629(13) 0.1642(4)
C3_5 C 0.3036(17) 0.2031(15) 0.1537(5)
H1_5 H 0.2640 0.1687 0.1394
C4_4 C 0.3658(14) 0.3318(15) 0.1797(6)
H2_3 H 0.3812 0.3946 0.1831
C5_4 C 0.3780(14) 0.2003(17) 0.1889(4)
H3_4 H 0.4006 0.1683 0.1995
C6_4 C 0.286(2) 0.337(3) 0.1390(5)
O17_4 O 0.466(2) 0.2953(13) 0.2385(4)
C7_3 C 0.4497(15) 0.3376(15) 0.2205(4)
O18_5 O 0.8825(10) 0.9273(10) 0.2392(3)
W2_5 W 0.77258(5) 0.95747(5) 0.250662(16)
W3_5 W 0.80843(5) 0.78113(5) 0.246608(15)
O19_3 O 0.4091(11) 0.5175(11) 0.2490(4)
O20_4 O 0.282(2) 0.4064(24) 0.1491(6)
O21_5 O 0.9548(10) 0.8949(9) 0.1939(3)
O22_4 O 0.8074(14) 0.8893(13) 0.1653(4)
W4_5 W 0.94125(5) 0.86649(5) 0.307269(17)
O23_5 O 0.8491(10) 0.8124(12) 0.2835(3)
O46_5 O 0.9133(9) 0.7743(13) 0.2433(3)
H18_3 H 0.650339 0.571929 0.196871
H19_3 H 0.625073 0.653946 0.198806
H22_4 H 0.618227 0.734516 0.232975
H23_4 H 0.538672 0.703793 0.255101
H24_3 H 0.624948 0.431771 0.230088
H25_3 H 0.651987 0.454268 0.26062
H26_3 H 0.405315 0.572599 0.24346
H27_3 H 0.387168 0.501348 0.267229
H30_3 H 0.439236 0.382239 0.273882
H31_3 H 0.500768 0.458368 0.295843
O22_5 O 0.7774(13) 0.5259(14) 0.9986(4)
N2_4 N 0.0049(16) 0.5087(21) 0.9975(4)
O44_4 O 0.4741(14) 0.2515(19) 0.9986(4)
O66_4 O 0.7485(19) 0.2226(13) 0.9986(4)
Yb3_2 Yb 0.65529(8) 0.88370(6) 0.079543(16)
C15_4 C 0.5627(19) 0.6225(13) 0.0297(4)
O52_4 O 0.6520(16) 0.9202(11) 0.0350(3)
O53_4 O 0.5953(21) 0.7647(13) 0.1121(4)
O57_4 O 0.6125(14) 0.7543(9) 0.0564(3)
O58_4 O 0.6118(14) 0.9977(10) 0.0824(3)
O60_4 O 0.4969(16) 0.8148(11) 0.0768(5)
C18_4 C 0.6326(21) 0.6651(15) 0.0130(6)
H8_4 H 0.6800 0.7279 0.0164
C19_4 C 0.4889(22) 0.5336(17) 0.0222(4)
H9_4 H 0.4343 0.5016 0.0328
O61_4 O 0.4956(24) 0.6286(13) 0.0718(4)
C21_4 C 0.5545(21) 0.6709(15) 0.0538(4)
O63_4 O 0.7750(16) 0.8508(11) 0.0823(4)
O70_2 O 0.7076(16) 0.9519(19) 0.1186(3)
H34_4 H 0.588256 0.905262 0.0302046
H35_4 H 0.69554 0.987279 0.0321395
H36_4 H 0.47349 0.765105 0.0634212
H37_4 H 0.468948 0.787602 0.0939538
H38_4 H 0.833951 0.905933 0.0767933
H39_4 H 0.780847 0.834682 0.100563
H42_4 H 0.609669 0.715572 0.107215
H43_4 H 0.624267 0.791701 0.129176
C15_5 C 0.2294(19) 0.9558(13) 0.3630(4)
O59_3 O 0.3815(19) 0.9590(16) 0.2852(3)
C16_4 C 0.3036(22) 0.9530(16) 0.3243(4)
N3_4 N 0.1580(21) 0.8295(13) 0.3308(4)
C17_4 C 0.2328(23) 0.8697(15) 0.3203(5)
H7_4 H 0.2380 0.8353 0.3060
C18_5 C 0.2993(21) 0.9984(15) 0.3463(6)
C19_5 C 0.1556(22) 0.8669(17) 0.3555(4)
H9_5 H 0.1010 0.8349 0.3661
O61_5 O 0.1623(24) 0.9619(13) 0.4051(4)
O2_8 O 0.0000 1.0000 0.2827(4)
W9_5 W 0.08175(6) 0.93512(8) 0.196424(18)
O47_5 O 0.2112(12) 0.9968(16) 0.2104(3)
O49_5 O 0.0137(9) 0.8364(13) 0.2847(3)
O50_5 O 0.0394(11) 0.7119(15) 0.2550(4)
O51_5 O 0.0610(11) 0.8247(16) 0.2127(3)
O54_5 O 0.3154(11) 0.8718(16) 0.2388(3)
O55_5 O 0.0647(9) 0.9558(13) 0.3225(3)
O56_5 O 0.1719(9) 0.8941(13) 0.2547(3)
H8_5 H 0.6054 0.9867 0.1831
C20_4 C 0.663(3) 0.950(4) 0.1390(5)
O62_5 O 0.0727(10) 0.9553(14) 0.2392(3)
W10_5 W 0.04253(5) 0.81512(7) 0.250662(16)
O63_5 O 0.4825(11) 0.8917(16) 0.2490(4)
O64_4 O 0.5936(24) 0.8760(31) 0.1491(6)
O66_5 O 0.1107(13) 0.9182(19) 0.1653(4)
H35_5 H 0.346054 0.971127 0.198806
H38_5 H 0.427401 0.832716 0.24346
H39_5 H 0.498652 0.88582 0.267229
H40_5 H 0.265484 0.883711 0.232975
H41_5 H 0.296207 0.834879 0.255101
O59_4 O 0.7148(19) 0.6257(16) 0.9519(3)
C16_5 C 0.6369(22) 0.6197(16) 0.9910(4)
N3_5 N 0.4913(21) 0.4962(13) 0.9975(4)
C17_5 C 0.5661(23) 0.5364(15) 0.9870(5)
H7_5 H 0.5713 0.5020 0.9727
C20_5 C 0.717(4) 0.670(3) 0.9723(5)
O64_5 O 0.7907(31) 0.7397(24) 0.9824(6)
Yb6_3 Yb 0.78297(6) 0.67804(8) 0.912876(16)
Yb1_2 Yb 0.22841(5) 0.88370(6) 0.579543(16)
C1_5 C 0.0598(14) 0.6225(13) 0.5297(4)
O8_4 O 0.2682(12) 0.9202(11) 0.5350(3)
O9_4 O 0.1694(17) 0.7647(13) 0.6121(4)
O13_4 O 0.1418(11) 0.7543(9) 0.5564(3)
O14_5 O 0.3859(10) 0.9977(10) 0.5824(3)
O16_4 O 0.3179(12) 0.8148(11) 0.5768(5)
N1_5 N 0.0049(16) 0.4962(13) 0.4975(4)
C4_5 C 0.0325(14) 0.6651(15) 0.5130(6)
H2_4 H 0.0479 0.7279 0.5164
C5_5 C 0.0447(14) 0.5336(17) 0.5222(4)
H3_5 H 0.0673 0.5016 0.5328
O17_5 O 0.133(2) 0.6286(13) 0.5718(4)
C7_4 C 0.1164(15) 0.6709(15) 0.5538(4)
O19_4 O 0.0758(11) 0.8508(11) 0.5823(4)
O69_2 O 0.2442(11) 0.9519(19) 0.6186(3)
H18_4 H 0.317006 0.905262 0.530205
H19_4 H 0.29174 0.987279 0.53214
H24_4 H 0.291615 0.765105 0.563421
H25_4 H 0.318654 0.787602 0.593954
H26_4 H 0.071982 0.905933 0.576793
H27_4 H 0.0538346 0.834682 0.600563
H30_4 H 0.105903 0.715572 0.607215
H31_4 H 0.167435 0.791701 0.629176
W1_6 W 0.18670(6) 0.58491(6) 0.863090(18)
O1_4 O 0.1943(9) 0.7533(9) 0.9099(3)
O2_9 O 0.3334 0.6666 0.9493(4)
O3_6 O 0.1189(11) 0.4554(12) 0.8770(3)
O4_6 O 0.2440(10) 0.4507(10) 0.9965(3)
O5_6 O 0.1560(9) 0.6529(9) 0.9513(3)
O6_6 O 0.0058(10) 0.6272(11) 0.9216(4)
O7_6 O 0.0970(12) 0.6056(11) 0.8793(3)
O11_6 O 0.2244(9) 0.6019(9) 0.9891(3)
O12_6 O 0.0555(9) 0.4947(9) 0.9213(3)
O14_6 O 0.0526(10) 0.3310(10) 0.9157(3)
O18_6 O 0.2159(10) 0.5939(10) 0.9058(3)
W2_6 W 0.10592(5) 0.62413(5) 0.917328(16)
W3_6 W 0.14177(5) 0.44779(5) 0.913274(15)
O21_6 O 0.2882(10) 0.5615(9) 0.8605(3)
O22_6 O 0.1408(14) 0.5559(13) 0.8319(4)
W4_6 W 0.27459(5) 0.53315(5) 0.973935(17)
O23_6 O 0.1825(10) 0.4790(12) 0.9501(3)
W5_5 W 0.39822(8) 0.81330(6) 0.863090(18)
O24_5 O 0.5591(13) 0.8057(9) 0.9099(3)
O25_5 O 0.3366(16) 0.8811(11) 0.8770(3)
O26_4 O 0.2068(14) 0.7560(10) 0.9965(3)
O27_5 O 0.4970(13) 0.8440(9) 0.9513(3)
O28_5 O 0.6215(15) 0.9942(10) 0.9216(4)
O29_5 O 0.5087(16) 0.9030(12) 0.8793(3)
O33_5 O 0.3776(13) 0.7756(9) 0.9891(3)
O34_5 O 0.4393(13) 0.9445(9) 0.9213(3)
O36_4 O 0.2785(14) 0.9474(10) 0.9157(3)
O40_5 O 0.3781(14) 0.7841(10) 0.9058(3)
W6_5 W 0.51822(7) 0.89408(5) 0.917328(16)
W7_4 W 0.30603(7) 0.85823(5) 0.913274(15)
O43_4 O 0.2734(13) 0.7118(10) 0.8605(3)
O44_5 O 0.4152(19) 0.8592(14) 0.8319(4)
W8_4 W 0.25857(7) 0.72541(5) 0.973935(17)
O45_4 O 0.2966(16) 0.8175(10) 0.9501(3)
W9_6 W 0.41509(6) 0.60178(8) 0.863090(18)
O46_6 O 0.2467(9) 0.4409(13) 0.9099(3)
O47_6 O 0.5446(12) 0.6634(16) 0.8770(3)
O48_5 O 0.5493(10) 0.7932(14) 0.9965(3)
O49_6 O 0.3471(9) 0.5030(13) 0.9513(3)
O50_6 O 0.3728(11) 0.3785(15) 0.9216(4)
O51_6 O 0.3944(11) 0.4913(16) 0.8793(3)
O52_5 O 0.7465(11) 0.6813(16) 0.8683(3)
O53_5 O 0.9020(13) 0.7380(21) 0.9454(4)
O54_6 O 0.6488(11) 0.5384(16) 0.9054(3)
O55_6 O 0.3981(9) 0.6224(13) 0.9891(3)
O56_6 O 0.5053(9) 0.5607(13) 0.9213(3)
O57_5 O 0.9124(9) 0.7208(14) 0.8897(3)
O58_5 O 0.6690(10) 0.7215(14) 0.9157(3)
O60_5 O 0.8519(11) 0.8364(16) 0.9101(5)
H8_6 H 0.9388 0.6533 0.8497
C20_6 C 0.997(3) 0.616(4) 0.8056(5)
C21_5 C 0.9958(15) 0.7788(21) 0.8871(4)
O62_6 O 0.4061(10) 0.6219(14) 0.9058(3)
W10_6 W 0.37587(5) 0.48178(7) 0.917328(16)
W11_5 W 0.55221(5) 0.69397(7) 0.913274(15)
O63_6 O 0.8159(11) 0.5583(16) 0.9156(4)
O64_6 O 0.9270(24) 0.5426(31) 0.8157(6)
O65_5 O 0.4385(9) 0.7266(13) 0.8605(3)
O66_6 O 0.4441(13) 0.5848(19) 0.8319(4)
W12_5 W 0.46685(5) 0.74143(7) 0.973935(17)
O67_5 O 0.5210(12) 0.7034(16) 0.9501(3)
Yb6_4 Yb 0.98862(8) 0.55037(6) 0.746210(16)
H34_5 H 0.761404 0.745077 0.863538
H35_6 H 0.679387 0.637794 0.865473
H36_5 H 0.901562 0.859844 0.896755
H37_5 H 0.879065 0.864385 0.927287
H38_6 H 0.760734 0.499383 0.910127
H39_6 H 0.831985 0.552486 0.933896
H40_6 H 0.598817 0.550377 0.899642
H41_6 H 0.629541 0.501546 0.921768
H42_5 H 0.951095 0.723664 0.940548
H43_5 H 0.874965 0.709067 0.96251
C1_6 C 0.7265(14) 0.9558(13) 0.8630(4)
O15_4 O 0.5776(11) 0.9590(16) 0.7852(3)
C2_6 C 0.6495(15) 0.9530(16) 0.8243(4)
N1_6 N 0.6716(16) 0.8295(13) 0.8308(4)
C3_6 C 0.6370(17) 0.8697(15) 0.8203(5)
H1_6 H 0.5974 0.8353 0.8060
C4_6 C 0.6992(14) 0.9984(15) 0.8463(6)
C5_6 C 0.7114(14) 0.8669(17) 0.8555(4)
H3_6 H 0.7340 0.8349 0.8661
O17_6 O 0.800(2) 0.9619(13) 0.9051(4)
O2_10 O 1.0000 1.0000 0.7827(4)
W5_6 W 0.85336(6) 0.93512(8) 0.696424(18)
O24_6 O 0.8609(9) 0.7743(13) 0.7433(3)
O25_6 O 0.7855(11) 0.9968(16) 0.7104(3)
O27_6 O 0.8226(9) 0.8364(13) 0.7847(3)
O28_6 O 0.6724(10) 0.7119(15) 0.7550(4)
O29_6 O 0.7636(12) 0.8247(16) 0.7127(3)
O32_6 O 0.5563(11) 0.8718(16) 0.7388(3)
O33_6 O 0.8910(9) 0.9558(13) 0.8225(3)
O34_6 O 0.7221(9) 0.8941(13) 0.7547(3)
H5_6 H 0.3812 0.9867 0.6831
C13_4 C 0.286(2) 0.950(4) 0.6390(5)
O40_6 O 0.8825(10) 0.9553(14) 0.7392(3)
W6_6 W 0.77258(5) 0.81512(7) 0.750662(16)
O41_6 O 0.4091(11) 0.8917(16) 0.7490(4)
O42_4 O 0.282(2) 0.8760(31) 0.6491(6)
O44_6 O 0.8074(14) 0.9182(19) 0.6653(4)
C15_6 C 0.8960(19) 0.2892(13) 0.6964(4)
O48_6 O 0.8734(14) 0.7841(10) 0.8299(3)
O52_6 O 0.9853(16) 0.5869(11) 0.7017(3)
O53_6 O 0.9286(21) 0.4314(13) 0.7788(4)
O57_6 O 0.9458(14) 0.4210(9) 0.7231(3)
O58_6 O 0.9451(14) 0.6644(10) 0.7491(3)
O60_6 O 0.8302(16) 0.4815(11) 0.7435(5)
C16_6 C 0.9702(22) 0.2864(16) 0.6577(4)
N3_6 N 0.8246(21) 0.1629(13) 0.6642(4)
C17_6 C 0.8994(23) 0.2031(15) 0.6537(5)
H7_6 H 0.9046 0.1687 0.6394
C18_6 C 0.9659(21) 0.3318(15) 0.6797(6)
C19_6 C 0.8222(22) 0.2003(17) 0.6889(4)
H9_6 H 0.7676 0.1683 0.6995
O61_6 O 0.8289(24) 0.2953(13) 0.7385(4)
C21_6 C 0.8878(21) 0.3376(15) 0.7205(4)
W11_6 W 0.97269(7) 0.78113(5) 0.746608(15)
O65_6 O 0.9400(13) 0.8949(9) 0.6939(3)
W12_6 W 0.92523(7) 0.86649(5) 0.807269(17)
O67_6 O 0.9632(16) 0.8124(12) 0.7835(3)
H14_6 H 0.618227 0.883711 0.732975
H15_6 H 0.538672 0.834879 0.755101
H21_6 H 0.625073 0.971127 0.698806
H32_6 H 0.405315 0.832716 0.74346
H33_6 H 0.387168 0.88582 0.767229
H34_6 H 0.92159 0.571929 0.696871
H36_6 H 0.806823 0.431771 0.730088
H37_6 H 0.802281 0.454268 0.76062
H42_6 H 0.943003 0.382239 0.773882
H43_6 H 0.9576 0.458368 0.795843
O37_3 O 0.9109(11) 0.2852(19) 0.9519(3)
C9_3 C 0.9828(15) 0.3631(22) 0.9910(4)
C10_3 C 0.9703(17) 0.4339(23) 0.9870(5)
H4_3 H 0.9307 0.4287 0.9727
C13_5 C 0.953(2) 0.283(4) 0.9723(5)
O42_5 O 0.949(2) 0.2093(31) 0.9824(6)
Yb4_3 Yb 0.89508(5) 0.21703(6) 0.912876(16)
O8_5 O 0.9349(12) 0.2535(11) 0.8683(3)
O9_5 O 0.8361(17) 0.0980(13) 0.9454(4)
O10_5 O 0.8897(11) 0.3512(11) 0.9054(3)
O13_5 O 0.8085(11) 0.0876(9) 0.8897(3)
O16_5 O 0.9846(12) 0.1481(11) 0.9101(5)
H2_5 H 0.7146 0.0612 0.8497
C6_5 C 0.620(2) 0.003(3) 0.8056(5)
C7_5 C 0.7831(15) 0.0042(15) 0.8871(4)
O19_5 O 0.7425(11) 0.1841(11) 0.9156(4)
O20_5 O 0.616(2) 0.0730(24) 0.8157(6)
Yb5_3 Yb 0.56174(5) 0.01138(8) 0.746210(16)
H18_5 H 0.983672 0.238596 0.863538
H19_5 H 0.958407 0.320613 0.865473
H22_5 H 0.95156 0.401183 0.899642
H23_5 H 0.872005 0.370459 0.921768
H24_5 H 0.958281 0.0984379 0.896755
H25_5 H 0.985321 0.120935 0.927287
H26_5 H 0.738649 0.239266 0.910127
H27_5 H 0.720501 0.168015 0.933896
H30_5 H 0.772569 0.0489053 0.940548
H31_5 H 0.834101 0.125035 0.96251
O1_5 O 0.9133(9) 0.1391(9) 0.7433(3)
O2_11 O 1.0000 -0.0000 0.7827(4)
C8_5 C 0.3931(14) 0.1040(19) 0.6964(4)
O26_5 O 0.9106(10) 0.1266(14) 0.8299(3)
O30_5 O 0.6015(12) 0.0147(16) 0.7017(3)
O31_5 O 0.5027(17) 0.0714(21) 0.7788(4)
O35_5 O 0.4751(11) 0.0542(14) 0.7231(3)
O36_5 O 0.7192(10) 0.0549(14) 0.7491(3)
O38_5 O 0.6512(12) 0.1698(16) 0.7435(5)
C9_4 C 0.3161(15) 0.0298(22) 0.6577(4)
N2_5 N 0.3382(16) 0.1754(21) 0.6642(4)
C10_4 C 0.3036(17) 0.1006(23) 0.6537(5)
H4_4 H 0.2640 0.0954 0.6394
C11_5 C 0.3658(14) 0.0341(21) 0.6797(6)
C12_5 C 0.3780(14) 0.1778(22) 0.6889(4)
H6_5 H 0.4006 0.2324 0.6995
O39_5 O 0.466(2) 0.1711(24) 0.7385(4)
C14_5 C 0.4497(15) 0.1122(21) 0.7205(4)
W7_5 W 0.80843(5) 0.02731(7) 0.746608(15)
O43_5 O 0.9548(10) 0.0600(13) 0.6939(3)
W8_5 W 0.94125(5) 0.07477(7) 0.807269(17)
O45_5 O 0.8491(10) 0.0368(16) 0.7835(3)
H16_5 H 0.624948 0.193177 0.730088
H17_5 H 0.651987 0.197719 0.76062
H20_5 H 0.650339 0.0784103 0.696871
H28_5 H 0.439236 0.0569973 0.773882
H29_5 H 0.500768 0.0423998 0.795843
O37_4 O 0.7148(19) 0.0891(11) 0.4519(3)
C9_5 C 0.6369(22) 0.0172(15) 0.4910(4)
C10_5 C 0.5661(23) 0.0297(17) 0.4870(5)
H4_5 H 0.5713 0.0693 0.4727
C13_6 C 0.717(4) 0.047(2) 0.4723(5)
O42_6 O 0.7907(31) 0.051(2) 0.4824(6)
Yb4_4 Yb 0.78297(6) 0.10492(5) 0.412876(16)
O8_6 O 0.7465(11) 0.0651(12) 0.3683(3)
O9_6 O 0.9020(13) 0.1639(17) 0.4454(4)
O10_6 O 0.6488(11) 0.1103(11) 0.4054(3)
O13_6 O 0.9124(9) 0.1915(11) 0.3897(3)
O16_6 O 0.8519(11) 0.0154(12) 0.4101(5)
H2_6 H 0.9388 0.2854 0.3497
C6_6 C 0.997(3) 0.380(2) 0.3056(5)
C7_6 C 0.9958(15) 0.2169(15) 0.3871(4)
O19_6 O 0.8159(11) 0.2575(11) 0.4156(4)
O20_6 O 0.9270(24) 0.384(2) 0.3157(6)
Yb5_4 Yb 0.98862(8) 0.43826(5) 0.246210(16)
H18_6 H 0.761404 0.0163275 0.363538
H19_6 H 0.679387 0.0415934 0.365473
H22_6 H 0.598817 0.0484401 0.399642
H23_6 H 0.629541 0.127995 0.421768
H24_6 H 0.901562 0.0417185 0.396755
H25_6 H 0.879065 0.0146794 0.427287
H26_6 H 0.760734 0.261351 0.410127
H27_6 H 0.831985 0.279499 0.433896
H30_6 H 0.951095 0.227431 0.440548
H31_6 H 0.874965 0.165899 0.46251
O1_6 O 0.8609(9) 0.0867(9) 0.2433(3)
O2_12 O 1.0000 -0.0000 0.2827(4)
C8_6 C 0.8960(19) 0.6069(14) 0.1964(4)
O26_6 O 0.8734(14) 0.0894(10) 0.3299(3)
O30_6 O 0.9853(16) 0.3985(12) 0.2017(3)
O31_6 O 0.9286(21) 0.4973(17) 0.2788(4)
O35_6 O 0.9458(14) 0.5249(11) 0.2231(3)
O36_6 O 0.9451(14) 0.2808(10) 0.2491(3)
O38_6 O 0.8302(16) 0.3488(12) 0.2435(5)
C9_6 C 0.9702(22) 0.6839(15) 0.1577(4)
N2_6 N 0.8246(21) 0.6618(16) 0.1642(4)
C10_6 C 0.8994(23) 0.6964(17) 0.1537(5)
H4_6 H 0.9046 0.7360 0.1394
C11_6 C 0.9659(21) 0.6342(14) 0.1797(6)
C12_6 C 0.8222(22) 0.6220(14) 0.1889(4)
H6_6 H 0.7676 0.5994 0.1995
O39_6 O 0.8289(24) 0.534(2) 0.2385(4)
C14_6 C 0.8878(21) 0.5503(15) 0.2205(4)
W7_6 W 0.97269(7) 0.19157(5) 0.246608(15)
O43_6 O 0.9400(13) 0.0452(10) 0.1939(3)
W8_6 W 0.92523(7) 0.05875(5) 0.307269(17)
O45_6 O 0.9632(16) 0.1509(10) 0.2835(3)
H16_6 H 0.806823 0.375052 0.230088
H17_6 H 0.802281 0.348013 0.26062
H20_6 H 0.92159 0.349661 0.196871
H28_6 H 0.943003 0.560764 0.273882
H29_6 H 0.9576 0.499232 0.295843
N4 N 0.3406(14) 0.3573(14) 0.3193(5)
H10 H 0.3152 0.3109 0.3059
H11 H 0.4066 0.3833 0.3200
H12 H 0.3265 0.4054 0.3155
H13 H 0.3141 0.3298 0.3358
H10_2 H 0.6891 0.0043 0.3059
H11_2 H 0.6167 0.0233 0.3200
N4_2 N 0.6427(14) 0.9833(20) 0.3193(5)
H12_2 H 0.5946 0.9211 0.3155
H13_2 H 0.6702 0.9843 0.3358
N4_3 N 0.0167(20) 0.6594(14) 0.3193(5)
H12_3 H 0.0789 0.6735 0.3155
H13_3 H 0.0157 0.6859 0.3358
H10_3 H 0.9957 0.6848 0.3059
H11_3 H 0.9767 0.5934 0.3200
N4_4 N 0.6427(14) 0.6594(14) 0.8193(5)
H10_4 H 0.6891 0.6848 0.8059
H11_4 H 0.6167 0.5934 0.8200
H12_4 H 0.5946 0.6735 0.8155
H13_4 H 0.6702 0.6859 0.8358
N4_5 N 0.0167(20) 0.3573(14) 0.8193(5)
H12_5 H 0.0789 0.4054 0.8155
H13_5 H 0.0157 0.3298 0.8358
H10_5 H 0.9957 0.3109 0.8059
H11_5 H 0.9767 0.3833 0.8200
H10_6 H 0.3152 0.0043 0.8059
H11_6 H 0.4066 0.0233 0.8200
N4_6 N 0.3406(14) 0.9833(20) 0.8193(5)
H12_6 H 0.3265 0.9211 0.8155
H13_6 H 0.3141 0.9843 0.8358
N4_7 N 0.0073(14) 0.6906(14) 0.6526(5)
H11_7 H 0.0733 0.7166 0.6533
H10_7 H 0.9819 0.6442 0.6392
H12_7 H 0.9932 0.7387 0.6488
H13_7 H 0.9808 0.6631 0.6691
N4_8 N 0.3094(14) 0.3166(20) 0.6526(5)
H10_8 H 0.3558 0.3376 0.6392
H11_8 H 0.2834 0.3566 0.6533
H12_8 H 0.2613 0.2544 0.6488
H13_8 H 0.3369 0.3176 0.6691
H10_9 H 0.6624 0.0181 0.6392
H12_9 H 0.7456 0.0068 0.6488
H13_9 H 0.6824 0.0192 0.6691
N4_9 N 0.6834(20) 0.9927(14) 0.6526(5)
H11_9 H 0.6434 0.9267 0.6533
H10_10 H 0.3558 0.0181 0.1392
H12_10 H 0.2613 0.0068 0.1488
H13_10 H 0.3369 0.0192 0.1691
N4_10 N 0.3094(14) 0.9927(14) 0.1526(5)
H11_10 H 0.2834 0.9267 0.1533
N4_11 N 0.6834(20) 0.6906(14) 0.1526(5)
H10_11 H 0.6624 0.6442 0.1392
H11_11 H 0.6434 0.7166 0.1533
H12_11 H 0.7456 0.7387 0.1488
H13_11 H 0.6824 0.6631 0.1691
N4_12 N 0.0073(14) 0.3166(20) 0.1526(5)
H11_12 H 0.0733 0.3566 0.1533
H10_12 H 0.9819 0.3376 0.1392
H12_12 H 0.9932 0.2544 0.1488
H13_12 H 0.9808 0.3176 0.1691
N4_13 N 0.6739(14) 0.0240(14) 0.9860(5)
H11_13 H 0.7399 0.0500 0.9867
H12_13 H 0.6598 0.0721 0.9822
H13_13 H 0.6474 0.9965 0.0025
H10_13 H 0.6485 0.9776 0.9726
H13_14 H 0.0035 0.6510 0.0025
H10_14 H 0.0224 0.6710 0.9726
N4_14 N 0.9760(14) 0.6500(20) 0.9860(5)
H11_14 H 0.9500 0.6900 0.9867
H12_14 H 0.9279 0.5878 0.9822
H13_15 H 0.3490 0.3526 0.0025
N4_15 N 0.3500(20) 0.3261(14) 0.9860(5)
H10_15 H 0.3290 0.3515 0.9726
H11_15 H 0.3100 0.2601 0.9867
H12_15 H 0.4122 0.3402 0.9822
H10_16 H 0.0224 0.3515 0.4726
H13_16 H 0.0035 0.3526 0.5025
N4_16 N 0.9760(14) 0.3261(14) 0.4860(5)
H11_16 H 0.9500 0.2601 0.4867
H12_16 H 0.9279 0.3402 0.4822
N4_17 N 0.3500(20) 0.0240(14) 0.4860(5)
H11_17 H 0.3100 0.0500 0.4867
H12_17 H 0.4122 0.0721 0.4822
H10_17 H 0.3290 0.9776 0.4726
H13_17 H 0.3490 0.9965 0.5025
N4_18 N 0.6739(14) 0.6500(20) 0.4860(5)
H10_18 H 0.6485 0.6710 0.4726
H11_18 H 0.7399 0.6900 0.4867
H12_18 H 0.6598 0.5878 0.4822
H13_18 H 0.6474 0.6510 0.5025
loop_
_geom_bond_atom_site_label_1
_geom_bond_atom_site_label_2
_geom_bond_site_symmetry_1
_geom_bond_site_symmetry_2
O15 C6 1_555 1_555
C2 C3 1_555 1_555
C3 H1 1_555 1_555
C6 C2 1_555 1_555
O20 C6 1_555 1_555
Yb5 O15 1_555 1_555
W1 O3 1_555 1_555
O1 W2 1_555 1_555
O2 W4 1_555 1_555
O3 W3 1_555 1_555
O4 W4 1_555 1_555
O5 W2 1_555 1_555
O6 W2 1_555 1_555
O7 W1 1_555 1_555
O11 W4 1_555 1_555
O12 W2 1_555 1_555
O18 W1 1_555 1_555
W2 O7 1_555 1_555
W3 O12 1_555 1_555
O21 W1 1_555 1_555
O22 W1 1_555 1_555
W4 O23 1_555 1_555
O23 W3 1_555 1_555
W5 O25 1_555 1_555
Yb2 O30 1_555 1_555
O24 W6 1_555 1_555
C8 C11 1_555 1_555
O25 W7 1_555 1_555
O26 W8 1_555 1_555
O27 W6 1_555 1_555
O28 W6 1_555 1_555
O29 W5 1_555 1_555
O31 Yb2 1_555 1_555
O32 Yb2 1_555 1_555
O33 W8 1_555 1_555
O34 W6 1_555 1_555
O35 Yb2 1_555 1_555
O36 Yb2 1_555 1_555
O38 Yb2 1_555 1_555
H5 C11 1_555 1_555
C12 C8 1_555 1_555
H6 C12 1_555 1_555
O39 C14 1_555 1_555
C14 C8 1_555 1_555
O40 W5 1_555 1_555
W6 O29 1_555 1_555
W7 O1 1_555 1_555
O41 Yb2 1_555 1_555
O43 W1 1_555 1_555
O44 W5 1_555 1_555
W8 O2 1_555 1_555
O45 W7 1_555 1_555
W9 O21 1_555 1_555
O46 W3 1_555 1_555
O47 W9 1_555 1_555
O48 W12 1_555 1_555
O49 W4 1_555 1_555
O50 W10 1_555 1_555
O51 W9 1_555 1_555
O55 W4 1_555 1_555
O56 W10 1_555 1_555
O62 W9 1_555 1_555
W10 O46 1_555 1_555
W11 O24 1_555 1_555
O65 W5 1_555 1_555
O66 W9 1_555 1_555
W12 O2 1_555 1_555
O67 W11 1_555 1_555
O68 Yb2 1_555 1_555
O5 W8 1_555 1_555
O11 W8 1_555 1_555
O18 W2 1_555 1_555
O18 W3 1_555 1_555
W5 O43 1_555 1_555
O27 W12 1_555 1_555
O33 W12 1_555 1_555
O34 W7 1_555 1_555
O35 C14 1_555 1_555
O36 W7 1_555 1_555
N2 C12 1_555 1_555
O40 W6 1_555 1_555
O40 W7 1_555 1_555
W8 O45 1_555 1_555
W9 O65 1_555 1_555
O47 W11 1_555 1_555
O49 W10 1_555 1_555
O51 W10 1_555 1_555
O55 W12 1_555 1_555
O56 W11 1_555 1_555
O62 W10 1_555 1_555
O62 W11 1_555 1_555
W12 O67 1_555 1_555
O32 H14 1_555 1_555
O32 H15 1_555 1_555
O38 H16 1_555 1_555
O38 H17 1_555 1_555
O30 H20 1_555 1_555
O30 H21 1_555 1_555
O10 H22 1_555 1_555
O10 H23 1_555 1_555
O31 H28 1_555 1_555
O31 H29 1_555 1_555
O41 H32 1_555 1_555
O41 H33 1_555 1_555
O54 H40 1_555 1_555
O54 H41 1_555 1_555
Yb5 O30_2 1_555 1_555
C8_2 C11_2 1_555 1_555
O31_2 Yb5 1_555 1_555
O32_2 Yb5 1_555 1_555
O35_2 Yb5 1_555 1_555
O37 C13 1_555 1_555
O38_2 Yb5 1_555 1_555
C9 C10 1_555 1_555
N2_2 C10 1_555 1_555
C10 H4 1_555 1_555
C11_2 C9 1_555 1_555
H5_2 C11_2 1_555 1_555
C12_2 C8_2 1_555 1_555
H6_2 C12_2 1_555 1_555
C13 C9 1_555 1_555
O39_2 C14_2 1_555 1_555
C14_2 C8_2 1_555 1_555
O41_2 Yb5 1_555 1_555
O42 C13 1_555 1_555
Yb4 O37 1_555 1_555
O35_2 C14_2 1_555 1_555
N2_2 C12_2 1_555 1_555
O32_2 H14_2 1_555 1_555
O32_2 H15_2 1_555 1_555
O38_2 H16_2 1_555 1_555
O38_2 H17_2 1_555 1_555
O30_2 H20_2 1_555 1_555
O30_2 H21_2 1_555 1_555
O31_2 H28_2 1_555 1_555
O31_2 H29_2 1_555 1_555
O41_2 H32_2 1_555 1_555
O41_2 H33_2 1_555 1_555
W1_2 O3_2 1_555 1_555
Yb4 O8 1_555 1_555
O2_2 W4_2 1_555 1_555
C1 C4 1_555 1_555
O3_2 W3_2 1_555 1_555
O4_2 W4_2 1_555 1_555
O5_2 W2_2 1_555 1_555
O6_2 W2_2 1_555 1_555
O7_2 W1_2 1_555 1_555
O9 Yb4 1_555 1_555
O10_2 Yb4 1_555 1_555
O11_2 W4_2 1_555 1_555
O12_2 W2_2 1_555 1_555
O13 Yb4 1_555 1_555
O14 Yb4 1_555 1_555
O68 C6_2 1_555 1_555
O16 Yb4 1_555 1_555
C2_2 C3_2 1_555 1_555
N1 C3_2 1_555 1_555
C3_2 H1_2 1_555 1_555
C4 C2_2 1_555 1_555
H2 C4 1_555 1_555
C5 C1 1_555 1_555
H3 C5 1_555 1_555
C6_2 C2_2 1_555 1_555
O17 C7 1_555 1_555
C7 C1 1_555 1_555
O18_2 W1_2 1_555 1_555
W2_2 O7_2 1_555 1_555
W3_2 O12_2 1_555 1_555
O19 Yb4 1_555 1_555
O20_2 C6_2 1_555 1_555
O21_2 W1_2 1_555 1_555
O22_2 W1_2 1_555 1_555
W4_2 O23_2 1_555 1_555
O23_2 W3_2 1_555 1_555
O46_2 W3_2 1_555 1_555
O13 C7 1_555 1_555
O14 W3_2 1_555 1_555
N1 C5 1_555 1_555
O18_2 W2_2 1_555 1_555
O18_2 W3_2 1_555 1_555
O8 H18 1_555 1_555
O8 H19 1_555 1_555
O10_2 H22_2 1_555 1_555
O10_2 H23_2 1_555 1_555
O16 H24 1_555 1_555
O16 H25 1_555 1_555
O19 H26 1_555 1_555
O19 H27 1_555 1_555
O9 H30 1_555 1_555
O9 H31 1_555 1_555
Yb1 O8_2 1_555 1_555
C1_2 C4_2 1_555 1_555
O9_2 Yb1 1_555 1_555
O13_2 Yb1 1_555 1_555
O14_2 Yb1 1_555 1_555
O16_2 Yb1 1_555 1_555
H2_2 C4_2 1_555 1_555
C5_2 C1_2 1_555 1_555
H3_2 C5_2 1_555 1_555
O17_2 C7_2 1_555 1_555
C7_2 C1_2 1_555 1_555
O19_2 Yb1 1_555 1_555
O69 Yb1 1_555 1_555
O13_2 C7_2 1_555 1_555
O8_2 H18_2 1_555 1_555
O8_2 H19_2 1_555 1_555
O16_2 H24_2 1_555 1_555
O16_2 H25_2 1_555 1_555
O19_2 H26_2 1_555 1_555
O19_2 H27_2 1_555 1_555
O9_2 H30_2 1_555 1_555
O9_2 H31_2 1_555 1_555
Yb3 O52 1_555 1_555
C15 C18 1_555 1_555
O53 Yb3 1_555 1_555
O57 Yb3 1_555 1_555
O58 Yb3 1_555 1_555
O59 C20 1_555 1_555
O60 Yb3 1_555 1_555
C16 C17 1_555 1_555
N3 C17 1_555 1_555
C17 H7 1_555 1_555
C18 C16 1_555 1_555
H8 C18 1_555 1_555
C19 C15 1_555 1_555
H9 C19 1_555 1_555
C20 C16 1_555 1_555
O61 C21 1_555 1_555
C21 C15 1_555 1_555
O63 Yb3 1_555 1_555
O64 C20 1_555 1_555
Yb6 O59 1_555 1_555
O70 Yb3 1_555 1_555
O57 C21 1_555 1_555
N3 C19 1_555 1_555
O52 H34 1_555 1_555
O52 H35 1_555 1_555
O60 H36 1_555 1_555
O60 H37 1_555 1_555
O63 H38 1_555 1_555
O63 H39 1_555 1_555
O53 H42 1_555 1_555
O53 H43 1_555 1_555
C1_3 C4_3 1_555 1_555
C2_3 C3_3 1_555 1_555
N1_2 C3_3 1_555 1_555
C3_3 H1_3 1_555 1_555
C4_3 C2_3 1_555 1_555
C5_3 C1_3 1_555 1_555
H3_3 C5_3 1_555 1_555
N1_2 C5_3 1_555 1_555
W1_3 O3_3 1_555 1_555
O1_2 W2_3 1_555 1_555
O2_3 W4_3 1_555 1_555
O3_3 W3_3 1_555 1_555
O4_3 W4_3 1_555 1_555
O5_3 W2_3 1_555 1_555
O6_3 W2_3 1_555 1_555
O7_3 W1_3 1_555 1_555
O11_3 W4_3 1_555 1_555
O12_3 W2_3 1_555 1_555
O18_3 W1_3 1_555 1_555
W2_3 O7_3 1_555 1_555
W3_3 O12_3 1_555 1_555
O21_3 W1_3 1_555 1_555
O22_3 W1_3 1_555 1_555
W4_3 O23_3 1_555 1_555
O23_3 W3_3 1_555 1_555
W5_2 O25_2 1_555 1_555
O24_2 W6_2 1_555 1_555
O25_2 W7_2 1_555 1_555
O26_2 W8_2 1_555 1_555
O27_2 W6_2 1_555 1_555
O28_2 W6_2 1_555 1_555
O29_2 W5_2 1_555 1_555
O33_2 W8_2 1_555 1_555
O34_2 W6_2 1_555 1_555
O40_2 W5_2 1_555 1_555
W6_2 O29_2 1_555 1_555
W7_2 O1_2 1_555 1_555
O43_2 W1_3 1_555 1_555
O44_2 W5_2 1_555 1_555
W8_2 O2_3 1_555 1_555
O45_2 W7_2 1_555 1_555
W9_2 O21_3 1_555 1_555
Yb6 O52_2 1_555 1_555
O46_3 W3_3 1_555 1_555
O47_2 W9_2 1_555 1_555
O48_2 W12_2 1_555 1_555
O49_2 W4_3 1_555 1_555
O50_2 W10_2 1_555 1_555
O51_2 W9_2 1_555 1_555
O53_2 Yb6 1_555 1_555
O54_2 Yb6 1_555 1_555
O55_2 W4_3 1_555 1_555
O56_2 W10_2 1_555 1_555
O57_2 Yb6 1_555 1_555
O58_2 Yb6 1_555 1_555
O60_2 Yb6 1_555 1_555
O62_2 W9_2 1_555 1_555
W10_2 O46_3 1_555 1_555
W11_2 O24_2 1_555 1_555
O63_2 Yb6 1_555 1_555
O64_2 C20_2 1_555 1_555
O65_2 W5_2 1_555 1_555
O66_2 W9_2 1_555 1_555
W12_2 O2_3 1_555 1_555
O67_2 W11_2 1_555 1_555
O5_3 W8_2 1_555 1_555
O11_3 W8_2 1_555 1_555
O14_3 W3_3 1_555 1_555
O18_3 W2_3 1_555 1_555
O18_3 W3_3 1_555 1_555
W5_2 O43_2 1_555 1_555
O27_2 W12_2 1_555 1_555
O33_2 W12_2 1_555 1_555
O34_2 W7_2 1_555 1_555
O36_2 W7_2 1_555 1_555
O40_2 W6_2 1_555 1_555
O40_2 W7_2 1_555 1_555
W8_2 O45_2 1_555 1_555
W9_2 O65_2 1_555 1_555
O47_2 W11_2 1_555 1_555
O49_2 W10_2 1_555 1_555
O51_2 W10_2 1_555 1_555
O55_2 W12_2 1_555 1_555
O56_2 W11_2 1_555 1_555
O57_2 C21_2 1_555 1_555
O58_2 W11_2 1_555 1_555
O62_2 W10_2 1_555 1_555
O62_2 W11_2 1_555 1_555
W12_2 O67_2 1_555 1_555
O52_2 H34_2 1_555 1_555
O52_2 H35_2 1_555 1_555
O60_2 H36_2 1_555 1_555
O60_2 H37_2 1_555 1_555
O63_2 H38_2 1_555 1_555
O63_2 H39_2 1_555 1_555
O54_2 H40_2 1_555 1_555
O54_2 H41_2 1_555 1_555
O53_2 H42_2 1_555 1_555
O53_2 H43_2 1_555 1_555
C15_2 C18_2 1_555 1_555
C16_2 C17_2 1_555 1_555
N3_2 C17_2 1_555 1_555
C17_2 H7_2 1_555 1_555
C18_2 C16_2 1_555 1_555
C19_2 C15_2 1_555 1_555
H9_2 C19_2 1_555 1_555
N3_2 C19_2 1_555 1_555
O47_3 W9_3 1_555 1_555
O50_3 W10_3 1_555 1_555
O51_3 W9_3 1_555 1_555
O56_3 W10_3 1_555 1_555
O70 C20_3 1_555 1_555
O62_3 W9_3 1_555 1_555
O64_3 C20_3 1_555 1_555
O66_3 W9_3 1_555 1_555
O49_3 W10_3 1_555 1_555
O51_3 W10_3 1_555 1_555
O62_3 W10_3 1_555 1_555
O63_3 H38_3 1_555 1_555
O63_3 H39_3 1_555 1_555
O54_3 H40_3 1_555 1_555
O54_3 H41_3 1_555 1_555
W5_3 O25_3 1_555 1_555
O24_3 W6_3 1_555 1_555
O27_3 W6_3 1_555 1_555
O28_3 W6_3 1_555 1_555
O29_3 W5_3 1_555 1_555
O34_3 W6_3 1_555 1_555
O69 C13_2 1_555 1_555
O40_3 W5_3 1_555 1_555
W6_3 O29_3 1_555 1_555
O42_2 C13_2 1_555 1_555
O44_3 W5_3 1_555 1_555
Yb6_2 O52_3 1_555 1_555
C15_3 C18_3 1_555 1_555
O48_3 W12_3 1_555 1_555
O53_3 Yb6_2 1_555 1_555
O57_3 Yb6_2 1_555 1_555
O58_3 Yb6_2 1_555 1_555
O60_3 Yb6_2 1_555 1_555
C16_3 C17_3 1_555 1_555
N3_3 C17_3 1_555 1_555
C17_3 H7_3 1_555 1_555
C18_3 C16_3 1_555 1_555
C19_3 C15_3 1_555 1_555
H9_3 C19_3 1_555 1_555
O61_3 C21_3 1_555 1_555
C21_3 C15_3 1_555 1_555
W11_3 O24_3 1_555 1_555
O65_3 W5_3 1_555 1_555
W12_3 O2_5 1_555 1_555
O67_3 W11_3 1_555 1_555
O27_3 W12_3 1_555 1_555
O33_3 W12_3 1_555 1_555
O40_3 W6_3 1_555 1_555
O57_3 C21_3 1_555 1_555
O58_3 W11_3 1_555 1_555
N3_3 C19_3 1_555 1_555
W12_3 O67_3 1_555 1_555
O32_3 H14_3 1_555 1_555
O32_3 H15_3 1_555 1_555
O41_3 H32_3 1_555 1_555
O41_3 H33_3 1_555 1_555
O52_3 H34_3 1_555 1_555
O60_3 H36_3 1_555 1_555
O60_3 H37_3 1_555 1_555
O53_3 H42_3 1_555 1_555
O53_3 H43_3 1_555 1_555
W1_4 O3_4 1_555 1_555
O1_3 W2_4 1_555 1_555
O2_6 W4_4 1_555 1_555
O3_4 W3_4 1_555 1_555
O4_4 W4_4 1_555 1_555
O5_4 W2_4 1_555 1_555
O6_4 W2_4 1_555 1_555
O7_4 W1_4 1_555 1_555
O11_4 W4_4 1_555 1_555
O12_4 W2_4 1_555 1_555
O18_4 W1_4 1_555 1_555
W2_4 O7_4 1_555 1_555
W3_4 O12_4 1_555 1_555
O21_4 W1_4 1_555 1_555
W4_4 O23_4 1_555 1_555
O23_4 W3_4 1_555 1_555
W5_4 O25_4 1_555 1_555
Yb2_2 O30_3 1_555 1_555
O24_4 W6_4 1_555 1_555
C8_3 C11_3 1_555 1_555
O25_4 W7_3 1_555 1_555
O26_3 W8_3 1_555 1_555
O27_4 W6_4 1_555 1_555
O28_4 W6_4 1_555 1_555
O29_4 W5_4 1_555 1_555
O31_3 Yb2_2 1_555 1_555
O32_4 Yb2_2 1_555 1_555
O33_4 W8_3 1_555 1_555
O34_4 W6_4 1_555 1_555
O35_3 Yb2_2 1_555 1_555
O36_3 Yb2_2 1_555 1_555
O38_3 Yb2_2 1_555 1_555
H5_4 C11_3 1_555 1_555
C12_3 C8_3 1_555 1_555
H6_3 C12_3 1_555 1_555
O39_3 C14_3 1_555 1_555
C14_3 C8_3 1_555 1_555
O40_4 W5_4 1_555 1_555
W6_4 O29_4 1_555 1_555
W7_3 O1_3 1_555 1_555
O41_4 Yb2_2 1_555 1_555
O43_3 W1_4 1_555 1_555
W8_3 O2_6 1_555 1_555
O45_3 W7_3 1_555 1_555
W9_4 O21_4 1_555 1_555
O46_4 W3_4 1_555 1_555
O47_4 W9_4 1_555 1_555
O48_4 W12_4 1_555 1_555
O49_4 W4_4 1_555 1_555
O50_4 W10_4 1_555 1_555
O51_4 W9_4 1_555 1_555
O55_4 W4_4 1_555 1_555
O56_4 W10_4 1_555 1_555
O62_4 W9_4 1_555 1_555
W10_4 O46_4 1_555 1_555
W11_4 O24_4 1_555 1_555
O65_4 W5_4 1_555 1_555
W12_4 O2_6 1_555 1_555
O67_4 W11_4 1_555 1_555
O68_2 Yb2_2 1_555 1_555
O5_4 W8_3 1_555 1_555
O11_4 W8_3 1_555 1_555
O18_4 W2_4 1_555 1_555
O18_4 W3_4 1_555 1_555
W5_4 O43_3 1_555 1_555
O27_4 W12_4 1_555 1_555
O33_4 W12_4 1_555 1_555
O34_4 W7_3 1_555 1_555
O35_3 C14_3 1_555 1_555
O36_3 W7_3 1_555 1_555
O40_4 W6_4 1_555 1_555
O40_4 W7_3 1_555 1_555
W8_3 O45_3 1_555 1_555
W9_4 O65_4 1_555 1_555
O47_4 W11_4 1_555 1_555
O49_4 W10_4 1_555 1_555
O51_4 W10_4 1_555 1_555
O55_4 W12_4 1_555 1_555
O56_4 W11_4 1_555 1_555
O62_4 W10_4 1_555 1_555
O62_4 W11_4 1_555 1_555
W12_4 O67_4 1_555 1_555
O32_4 H14_4 1_555 1_555
O32_4 H15_4 1_555 1_555
O38_3 H16_3 1_555 1_555
O38_3 H17_3 1_555 1_555
O30_3 H20_3 1_555 1_555
O30_3 H21_4 1_555 1_555
O10_3 H22_3 1_555 1_555
O10_3 H23_3 1_555 1_555
O31_3 H28_3 1_555 1_555
O31_3 H29_3 1_555 1_555
O41_4 H32_4 1_555 1_555
O41_4 H33_4 1_555 1_555
O54_4 H40_4 1_555 1_555
O54_4 H41_4 1_555 1_555
O15_3 C6_3 1_555 1_555
C2_4 C3_4 1_555 1_555
C3_4 H1_4 1_555 1_555
C6_3 C2_4 1_555 1_555
O20_3 C6_3 1_555 1_555
Yb5_2 O15_3 1_555 1_555
Yb5_2 O30_4 1_555 1_555
C8_4 C11_4 1_555 1_555
O31_4 Yb5_2 1_555 1_555
O32_5 Yb5_2 1_555 1_555
O35_4 Yb5_2 1_555 1_555
O37_2 C13_3 1_555 1_555
O38_4 Yb5_2 1_555 1_555
C9_2 C10_2 1_555 1_555
N2_3 C10_2 1_555 1_555
C10_2 H4_2 1_555 1_555
C11_4 C9_2 1_555 1_555
H5_5 C11_4 1_555 1_555
C12_4 C8_4 1_555 1_555
H6_4 C12_4 1_555 1_555
C13_3 C9_2 1_555 1_555
O39_4 C14_4 1_555 1_555
C14_4 C8_4 1_555 1_555
O41_5 Yb5_2 1_555 1_555
O42_3 C13_3 1_555 1_555
Yb4_2 O37_2 1_555 1_555
O35_4 C14_4 1_555 1_555
N2_3 C12_4 1_555 1_555
O32_5 H14_5 1_555 1_555
O32_5 H15_5 1_555 1_555
O38_4 H16_4 1_555 1_555
O38_4 H17_4 1_555 1_555
O30_4 H20_4 1_555 1_555
O30_4 H21_5 1_555 1_555
O31_4 H28_4 1_555 1_555
O31_4 H29_4 1_555 1_555
O41_5 H32_5 1_555 1_555
O41_5 H33_5 1_555 1_555
W1_5 O3_5 1_555 1_555
Yb4_2 O8_3 1_555 1_555
O2_7 W4_5 1_555 1_555
C1_4 C4_4 1_555 1_555
O3_5 W3_5 1_555 1_555
O4_5 W4_5 1_555 1_555
O5_5 W2_5 1_555 1_555
O6_5 W2_5 1_555 1_555
O7_5 W1_5 1_555 1_555
O9_3 Yb4_2 1_555 1_555
O10_4 Yb4_2 1_555 1_555
O11_5 W4_5 1_555 1_555
O12_5 W2_5 1_555 1_555
O13_3 Yb4_2 1_555 1_555
O14_4 Yb4_2 1_555 1_555
O68_2 C6_4 1_555 1_555
O16_3 Yb4_2 1_555 1_555
C2_5 C3_5 1_555 1_555
N1_4 C3_5 1_555 1_555
C3_5 H1_5 1_555 1_555
C4_4 C2_5 1_555 1_555
H2_3 C4_4 1_555 1_555
C5_4 C1_4 1_555 1_555
H3_4 C5_4 1_555 1_555
C6_4 C2_5 1_555 1_555
O17_4 C7_3 1_555 1_555
C7_3 C1_4 1_555 1_555
O18_5 W1_5 1_555 1_555
W2_5 O7_5 1_555 1_555
W3_5 O12_5 1_555 1_555
O19_3 Yb4_2 1_555 1_555
O20_4 C6_4 1_555 1_555
O21_5 W1_5 1_555 1_555
O22_4 W1_5 1_555 1_555
W4_5 O23_5 1_555 1_555
O23_5 W3_5 1_555 1_555
O46_5 W3_5 1_555 1_555
O13_3 C7_3 1_555 1_555
O14_4 W3_5 1_555 1_555
N1_4 C5_4 1_555 1_555
O18_5 W2_5 1_555 1_555
O18_5 W3_5 1_555 1_555
O8_3 H18_3 1_555 1_555
O8_3 H19_3 1_555 1_555
O10_4 H22_4 1_555 1_555
O10_4 H23_4 1_555 1_555
O16_3 H24_3 1_555 1_555
O16_3 H25_3 1_555 1_555
O19_3 H26_3 1_555 1_555
O19_3 H27_3 1_555 1_555
O9_3 H30_3 1_555 1_555
O9_3 H31_3 1_555 1_555
Yb3_2 O52_4 1_555 1_555
C15_4 C18_4 1_555 1_555
O53_4 Yb3_2 1_555 1_555
O57_4 Yb3_2 1_555 1_555
O58_4 Yb3_2 1_555 1_555
O60_4 Yb3_2 1_555 1_555
H8_4 C18_4 1_555 1_555
C19_4 C15_4 1_555 1_555
H9_4 C19_4 1_555 1_555
O61_4 C21_4 1_555 1_555
C21_4 C15_4 1_555 1_555
O63_4 Yb3_2 1_555 1_555
O70_2 Yb3_2 1_555 1_555
O57_4 C21_4 1_555 1_555
O52_4 H34_4 1_555 1_555
O52_4 H35_4 1_555 1_555
O60_4 H36_4 1_555 1_555
O60_4 H37_4 1_555 1_555
O63_4 H38_4 1_555 1_555
O63_4 H39_4 1_555 1_555
O53_4 H42_4 1_555 1_555
O53_4 H43_4 1_555 1_555
C15_5 C18_5 1_555 1_555
C16_4 C17_4 1_555 1_555
N3_4 C17_4 1_555 1_555
C17_4 H7_4 1_555 1_555
C18_5 C16_4 1_555 1_555
C19_5 C15_5 1_555 1_555
H9_5 C19_5 1_555 1_555
N3_4 C19_5 1_555 1_555
O47_5 W9_5 1_555 1_555
O50_5 W10_5 1_555 1_555
O51_5 W9_5 1_555 1_555
O56_5 W10_5 1_555 1_555
O70_2 C20_4 1_555 1_555
O62_5 W9_5 1_555 1_555
O64_4 C20_4 1_555 1_555
O66_5 W9_5 1_555 1_555
O49_5 W10_5 1_555 1_555
O51_5 W10_5 1_555 1_555
O62_5 W10_5 1_555 1_555
O63_5 H38_5 1_555 1_555
O63_5 H39_5 1_555 1_555
O54_5 H40_5 1_555 1_555
O54_5 H41_5 1_555 1_555
O59_4 C20_5 1_555 1_555
C16_5 C17_5 1_555 1_555
N3_5 C17_5 1_555 1_555
C17_5 H7_5 1_555 1_555
C20_5 C16_5 1_555 1_555
O64_5 C20_5 1_555 1_555
Yb6_3 O59_4 1_555 1_555
Yb1_2 O8_4 1_555 1_555
C1_5 C4_5 1_555 1_555
O9_4 Yb1_2 1_555 1_555
O13_4 Yb1_2 1_555 1_555
O14_5 Yb1_2 1_555 1_555
O16_4 Yb1_2 1_555 1_555
H2_4 C4_5 1_555 1_555
C5_5 C1_5 1_555 1_555
H3_5 C5_5 1_555 1_555
O17_5 C7_4 1_555 1_555
C7_4 C1_5 1_555 1_555
O19_4 Yb1_2 1_555 1_555
O69_2 Yb1_2 1_555 1_555
O13_4 C7_4 1_555 1_555
N1_5 C5_5 1_555 1_555
O8_4 H18_4 1_555 1_555
O8_4 H19_4 1_555 1_555
O16_4 H24_4 1_555 1_555
O16_4 H25_4 1_555 1_555
O19_4 H26_4 1_555 1_555
O19_4 H27_4 1_555 1_555
O9_4 H30_4 1_555 1_555
O9_4 H31_4 1_555 1_555
W1_6 O3_6 1_555 1_555
O1_4 W2_6 1_555 1_555
O2_9 W4_6 1_555 1_555
O3_6 W3_6 1_555 1_555
O4_6 W4_6 1_555 1_555
O5_6 W2_6 1_555 1_555
O6_6 W2_6 1_555 1_555
O7_6 W1_6 1_555 1_555
O11_6 W4_6 1_555 1_555
O12_6 W2_6 1_555 1_555
O18_6 W1_6 1_555 1_555
W2_6 O7_6 1_555 1_555
W3_6 O12_6 1_555 1_555
O21_6 W1_6 1_555 1_555
O22_6 W1_6 1_555 1_555
W4_6 O23_6 1_555 1_555
O23_6 W3_6 1_555 1_555
W5_5 O25_5 1_555 1_555
O24_5 W6_5 1_555 1_555
O25_5 W7_4 1_555 1_555
O26_4 W8_4 1_555 1_555
O27_5 W6_5 1_555 1_555
O28_5 W6_5 1_555 1_555
O29_5 W5_5 1_555 1_555
O33_5 W8_4 1_555 1_555
O34_5 W6_5 1_555 1_555
O40_5 W5_5 1_555 1_555
W6_5 O29_5 1_555 1_555
W7_4 O1_4 1_555 1_555
O43_4 W1_6 1_555 1_555
O44_5 W5_5 1_555 1_555
W8_4 O2_9 1_555 1_555
O45_4 W7_4 1_555 1_555
W9_6 O21_6 1_555 1_555
Yb6_3 O52_5 1_555 1_555
O46_6 W3_6 1_555 1_555
O47_6 W9_6 1_555 1_555
O48_5 W12_5 1_555 1_555
O49_6 W4_6 1_555 1_555
O50_6 W10_6 1_555 1_555
O51_6 W9_6 1_555 1_555
O53_5 Yb6_3 1_555 1_555
O54_6 Yb6_3 1_555 1_555
O55_6 W4_6 1_555 1_555
O56_6 W10_6 1_555 1_555
O57_5 Yb6_3 1_555 1_555
O58_5 Yb6_3 1_555 1_555
O60_5 Yb6_3 1_555 1_555
O62_6 W9_6 1_555 1_555
W10_6 O46_6 1_555 1_555
W11_5 O24_5 1_555 1_555
O63_6 Yb6_3 1_555 1_555
O64_6 C20_6 1_555 1_555
O65_5 W5_5 1_555 1_555
O66_6 W9_6 1_555 1_555
W12_5 O2_9 1_555 1_555
O67_5 W11_5 1_555 1_555
O5_6 W8_4 1_555 1_555
O11_6 W8_4 1_555 1_555
O14_6 W3_6 1_555 1_555
O18_6 W2_6 1_555 1_555
O18_6 W3_6 1_555 1_555
W5_5 O43_4 1_555 1_555
O27_5 W12_5 1_555 1_555
O33_5 W12_5 1_555 1_555
O34_5 W7_4 1_555 1_555
O36_4 W7_4 1_555 1_555
O40_5 W6_5 1_555 1_555
O40_5 W7_4 1_555 1_555
W8_4 O45_4 1_555 1_555
W9_6 O65_5 1_555 1_555
O47_6 W11_5 1_555 1_555
O49_6 W10_6 1_555 1_555
O51_6 W10_6 1_555 1_555
O55_6 W12_5 1_555 1_555
O56_6 W11_5 1_555 1_555
O57_5 C21_5 1_555 1_555
O58_5 W11_5 1_555 1_555
O62_6 W10_6 1_555 1_555
O62_6 W11_5 1_555 1_555
W12_5 O67_5 1_555 1_555
O52_5 H34_5 1_555 1_555
O52_5 H35_6 1_555 1_555
O60_5 H36_5 1_555 1_555
O60_5 H37_5 1_555 1_555
O63_6 H38_6 1_555 1_555
O63_6 H39_6 1_555 1_555
O54_6 H40_6 1_555 1_555
O54_6 H41_6 1_555 1_555
O53_5 H42_5 1_555 1_555
O53_5 H43_5 1_555 1_555
C1_6 C4_6 1_555 1_555
C2_6 C3_6 1_555 1_555
N1_6 C3_6 1_555 1_555
C3_6 H1_6 1_555 1_555
C4_6 C2_6 1_555 1_555
C5_6 C1_6 1_555 1_555
H3_6 C5_6 1_555 1_555
N1_6 C5_6 1_555 1_555
W5_6 O25_6 1_555 1_555
O24_6 W6_6 1_555 1_555
O27_6 W6_6 1_555 1_555
O28_6 W6_6 1_555 1_555
O29_6 W5_6 1_555 1_555
O34_6 W6_6 1_555 1_555
O69_2 C13_4 1_555 1_555
O40_6 W5_6 1_555 1_555
W6_6 O29_6 1_555 1_555
O42_4 C13_4 1_555 1_555
O44_6 W5_6 1_555 1_555
Yb6_4 O52_6 1_555 1_555
C15_6 C18_6 1_555 1_555
O48_6 W12_6 1_555 1_555
O53_6 Yb6_4 1_555 1_555
O57_6 Yb6_4 1_555 1_555
O58_6 Yb6_4 1_555 1_555
O60_6 Yb6_4 1_555 1_555
C16_6 C17_6 1_555 1_555
N3_6 C17_6 1_555 1_555
C17_6 H7_6 1_555 1_555
C18_6 C16_6 1_555 1_555
C19_6 C15_6 1_555 1_555
H9_6 C19_6 1_555 1_555
O61_6 C21_6 1_555 1_555
C21_6 C15_6 1_555 1_555
W11_6 O24_6 1_555 1_555
O65_6 W5_6 1_555 1_555
W12_6 O2_10 1_555 1_555
O67_6 W11_6 1_555 1_555
O27_6 W12_6 1_555 1_555
O33_6 W12_6 1_555 1_555
O40_6 W6_6 1_555 1_555
O57_6 C21_6 1_555 1_555
O58_6 W11_6 1_555 1_555
N3_6 C19_6 1_555 1_555
W12_6 O67_6 1_555 1_555
O32_6 H14_6 1_555 1_555
O32_6 H15_6 1_555 1_555
O41_6 H32_6 1_555 1_555
O41_6 H33_6 1_555 1_555
O52_6 H34_6 1_555 1_555
O60_6 H36_6 1_555 1_555
O60_6 H37_6 1_555 1_555
O53_6 H42_6 1_555 1_555
O53_6 H43_6 1_555 1_555
O37_3 C13_5 1_555 1_555
C9_3 C10_3 1_555 1_555
C10_3 H4_3 1_555 1_555
C13_5 C9_3 1_555 1_555
O42_5 C13_5 1_555 1_555
Yb4_3 O37_3 1_555 1_555
Yb4_3 O8_5 1_555 1_555
O9_5 Yb4_3 1_555 1_555
O10_5 Yb4_3 1_555 1_555
O13_5 Yb4_3 1_555 1_555
O16_5 Yb4_3 1_555 1_555
O19_5 Yb4_3 1_555 1_555
O20_5 C6_5 1_555 1_555
O13_5 C7_5 1_555 1_555
O8_5 H18_5 1_555 1_555
O8_5 H19_5 1_555 1_555
O10_5 H22_5 1_555 1_555
O10_5 H23_5 1_555 1_555
O16_5 H24_5 1_555 1_555
O16_5 H25_5 1_555 1_555
O19_5 H26_5 1_555 1_555
O19_5 H27_5 1_555 1_555
O9_5 H30_5 1_555 1_555
O9_5 H31_5 1_555 1_555
Yb5_3 O30_5 1_555 1_555
C8_5 C11_5 1_555 1_555
O26_5 W8_5 1_555 1_555
O31_5 Yb5_3 1_555 1_555
O35_5 Yb5_3 1_555 1_555
O36_5 Yb5_3 1_555 1_555
O38_5 Yb5_3 1_555 1_555
C9_4 C10_4 1_555 1_555
N2_5 C10_4 1_555 1_555
C10_4 H4_4 1_555 1_555
C11_5 C9_4 1_555 1_555
C12_5 C8_5 1_555 1_555
H6_5 C12_5 1_555 1_555
O39_5 C14_5 1_555 1_555
C14_5 C8_5 1_555 1_555
W7_5 O1_5 1_555 1_555
W8_5 O2_11 1_555 1_555
O45_5 W7_5 1_555 1_555
O35_5 C14_5 1_555 1_555
O36_5 W7_5 1_555 1_555
N2_5 C12_5 1_555 1_555
W8_5 O45_5 1_555 1_555
O38_5 H16_5 1_555 1_555
O38_5 H17_5 1_555 1_555
O30_5 H20_5 1_555 1_555
O31_5 H28_5 1_555 1_555
O31_5 H29_5 1_555 1_555
O37_4 C13_6 1_555 1_555
C9_5 C10_5 1_555 1_555
C10_5 H4_5 1_555 1_555
C13_6 C9_5 1_555 1_555
O42_6 C13_6 1_555 1_555
Yb4_4 O37_4 1_555 1_555
Yb4_4 O8_6 1_555 1_555
O9_6 Yb4_4 1_555 1_555
O10_6 Yb4_4 1_555 1_555
O13_6 Yb4_4 1_555 1_555
O16_6 Yb4_4 1_555 1_555
O19_6 Yb4_4 1_555 1_555
O20_6 C6_6 1_555 1_555
O13_6 C7_6 1_555 1_555
O8_6 H18_6 1_555 1_555
O8_6 H19_6 1_555 1_555
O10_6 H22_6 1_555 1_555
O10_6 H23_6 1_555 1_555
O16_6 H24_6 1_555 1_555
O16_6 H25_6 1_555 1_555
O19_6 H26_6 1_555 1_555
O19_6 H27_6 1_555 1_555
O9_6 H30_6 1_555 1_555
O9_6 H31_6 1_555 1_555
Yb5_4 O30_6 1_555 1_555
C8_6 C11_6 1_555 1_555
O26_6 W8_6 1_555 1_555
O31_6 Yb5_4 1_555 1_555
O35_6 Yb5_4 1_555 1_555
O36_6 Yb5_4 1_555 1_555
O38_6 Yb5_4 1_555 1_555
C9_6 C10_6 1_555 1_555
N2_6 C10_6 1_555 1_555
C10_6 H4_6 1_555 1_555
C11_6 C9_6 1_555 1_555
C12_6 C8_6 1_555 1_555
H6_6 C12_6 1_555 1_555
O39_6 C14_6 1_555 1_555
C14_6 C8_6 1_555 1_555
W7_6 O1_6 1_555 1_555
W8_6 O2_12 1_555 1_555
O45_6 W7_6 1_555 1_555
O35_6 C14_6 1_555 1_555
O36_6 W7_6 1_555 1_555
N2_6 C12_6 1_555 1_555
W8_6 O45_6 1_555 1_555
O38_6 H16_6 1_555 1_555
O38_6 H17_6 1_555 1_555
O30_6 H20_6 1_555 1_555
O31_6 H28_6 1_555 1_555
O31_6 H29_6 1_555 1_555
N4 H10 1_555 1_555
H11 N4 1_555 1_555
H12 N4 1_555 1_555
H13 N4 1_555 1_555
H12_2 N4_2 1_555 1_555
H13_2 N4_2 1_555 1_555
H12_3 N4_3 1_555 1_555
H13_3 N4_3 1_555 1_555
N4_4 H10_4 1_555 1_555
H11_4 N4_4 1_555 1_555
H12_4 N4_4 1_555 1_555
H13_4 N4_4 1_555 1_555
H12_5 N4_5 1_555 1_555
H13_5 N4_5 1_555 1_555
H12_6 N4_6 1_555 1_555
H13_6 N4_6 1_555 1_555
H11_7 N4_7 1_555 1_555
N4_8 H10_8 1_555 1_555
H11_8 N4_8 1_555 1_555
H12_8 N4_8 1_555 1_555
H13_8 N4_8 1_555 1_555
H11_9 N4_9 1_555 1_555
H11_10 N4_10 1_555 1_555
N4_11 H10_11 1_555 1_555
H11_11 N4_11 1_555 1_555
H12_11 N4_11 1_555 1_555
H13_11 N4_11 1_555 1_555
H11_12 N4_12 1_555 1_555
H11_13 N4_13 1_555 1_555
H12_13 N4_13 1_555 1_555
H11_14 N4_14 1_555 1_555
H12_14 N4_14 1_555 1_555
N4_15 H10_15 1_555 1_555
H11_15 N4_15 1_555 1_555
H12_15 N4_15 1_555 1_555
H11_16 N4_16 1_555 1_555
H12_16 N4_16 1_555 1_555
H11_17 N4_17 1_555 1_555
H12_17 N4_17 1_555 1_555
N4_18 H10_18 1_555 1_555
H11_18 N4_18 1_555 1_555
H12_18 N4_18 1_555 1_555
H13_18 N4_18 1_555 1_555

#END
