
###############################################################################
#
# This file contains modified crystal structure data generated from the
# MOF subset of the Cambridge Structural Database (CSD) v543 
# hosted by the Cambridge Crystallographic Data Centre (CCDC).
#
# This work is licensed under the Creative Commons
# Attribution-NonCommercial-ShareAlike 4.0 International License.
# To view a copy of this license, visit
# http://creativecommons.org/licenses/by-nc-sa/4.0/
# or send a letter to
# Creative Commons, PO Box 1866, Mountain View, CA 94042, USA.
#
# CIF created using the CSD Python API on 29 September 2022
# The structure has been converted into the P1 space group
# The structure has a 3D framework
# The original CSD entry LEZZEX is in the monoclinic crystal system
# The framework has been calculated to contain at least 10.0% void space
# The void calculation uses a probe of radius 1.32A, grid spacing 0.4
#
###############################################################################

data_LEZZEX
_chemical_formula_moiety         '(C56 H32 O22 S4 Sr2)n'
_symmetry_cell_setting           triclinic
_symmetry_space_group_name_H-M   'P 1'
_symmetry_Int_Tables_number      1
_space_group_name_Hall           'P 1'
loop_
_symmetry_equiv_pos_site_id
_symmetry_equiv_pos_as_xyz
1 x,y,z
_cell_length_a                   12.1704(5)
_cell_length_b                   5.7317(3)
_cell_length_c                   22.8977(9)
_cell_angle_alpha                90
_cell_angle_beta                 98.851(2)
_cell_angle_gamma                90
_cell_volume                     1578.26
loop_
_atom_site_label
_atom_site_type_symbol
_atom_site_fract_x
_atom_site_fract_y
_atom_site_fract_z
Sr3 Sr 0.13327(2) 0.24612(5) 0.724277(11)
O1 O 0.00419(19) 0.5196(4) 0.75873(10)
O2 O 0.0385(2) 0.8976(4) 0.75100(11)
C6 C 0.6958(3) 0.0607(6) 0.00536(12)
C7 C 0.7229(3) 0.0144(6) 0.06487(12)
H4 H 0.7589 0.1273 0.0901
Sr5 Sr 0.63327(2) 0.25388(5) 0.224277(11)
O6 O 0.5822(2) 0.2112(4) 0.88878(10)
H3 H 0.7145 0.2032 0.9901
H7 H 0.9431 0.1082 0.8281
C13 C 0.7978(3) 0.0508(6) 0.85803(13)
H8 H 0.7949 0.1925 0.8775
O7 O 0.49581(19) 0.0196(4) 0.74127(10)
O11 O 0.26197(18) 0.0724(4) 0.81336(8)
O3 O 0.73443(18) 0.5464(4) 0.17044(9)
O4 O 0.73803(18) 0.9276(4) 0.18664(8)
C1 C 0.7241(3) 0.7534(5) 0.15272(13)
C2 C 0.6972(2) 0.8024(5) 0.08718(12)
C3 C 0.6446(3) 0.6329(6) 0.04930(13)
H1 H 0.6283 0.4882 0.0642
Sr6 Sr 0.86673(2) 0.75388(5) 0.275723(11)
Sr1 Sr 0.36673(2) 0.74612(5) 0.775723(11)
S1 S 0.59910(6) 0.96269(13) 0.89302(3)
O5 O 0.50786(18) 0.8072(4) 0.87128(9)
C4 C 0.6165(3) 0.6780(6) 0.98969(13)
H2 H 0.5819 0.5647 0.9642
C5 C 0.6407(2) 0.8940(5) 0.96869(11)
C8 C 0.7132(2) 0.8884(5) 0.85772(12)
C9 C 0.7164(3) 0.6742(6) 0.82993(13)
H5 H 0.6594 0.5661 0.8302
C10 C 0.8059(3) 0.6257(5) 0.80191(13)
H6 H 0.8092 0.4825 0.7832
C11 C 0.8920(3) 0.7861(5) 0.80092(13)
C12 C 0.8868(3) 0.9992(6) 0.82884(14)
C14 C 0.9871(3) 0.7292(5) 0.76775(14)
O8 O 0.4615(2) 0.3976(4) 0.74900(11)
O9 O 0.26557(18) 0.4536(4) 0.82956(9)
O10 O 0.23443(18) 0.9536(4) 0.67044(9)
O12 O 0.23803(18) 0.5724(4) 0.68664(8)
O3_2 O 0.76557(18) 0.0464(4) 0.32956(9)
O4_2 O 0.76197(18) 0.4276(4) 0.31336(8)
S1_2 S 0.90090(6) 0.46269(13) 0.60698(3)
O5_2 O 0.99214(18) 0.3072(4) 0.62872(9)
O6_2 O 0.9178(2) 0.7112(4) 0.61122(10)
C1_2 C 0.7759(3) 0.2534(5) 0.34728(13)
C2_2 C 0.8028(2) 0.3024(5) 0.41282(12)
C3_2 C 0.8554(3) 0.1329(6) 0.45070(13)
C4_2 C 0.8835(3) 0.1780(6) 0.51031(13)
H2_2 H 0.9181 0.0647 0.5358
C5_2 C 0.8593(2) 0.3940(5) 0.53131(11)
C6_2 C 0.8042(3) 0.5607(6) 0.49464(12)
H3_2 H 0.7855 0.7032 0.5099
C7_2 C 0.7771(3) 0.5144(6) 0.43513(12)
H4_2 H 0.7411 0.6273 0.4099
C8_2 C 0.7868(2) 0.3884(5) 0.64228(12)
C9_2 C 0.7836(3) 0.1742(6) 0.67007(13)
H5_2 H 0.8406 0.0661 0.6698
C10_2 C 0.6941(3) 0.1257(5) 0.69809(13)
C11_2 C 0.6080(3) 0.2861(5) 0.69908(13)
C12_2 C 0.6132(3) 0.4992(6) 0.67116(14)
H7_2 H 0.5569 0.6082 0.6719
C13_2 C 0.7022(3) 0.5508(6) 0.64197(13)
H8_2 H 0.7051 0.6925 0.6225
C14_2 C 0.5129(3) 0.2292(5) 0.73225(14)
H1_2 H 0.8717 0.9882 0.4358
H6_2 H 0.6908 0.9825 0.7168
S1_3 S 0.40090(6) 0.03731(13) 0.10698(3)
O5_3 O 0.49214(18) 0.1928(4) 0.12872(9)
C4_3 C 0.3835(3) 0.3220(6) 0.01031(13)
H2_3 H 0.4181 0.4353 0.0358
C5_3 C 0.3593(2) 0.1060(5) 0.03131(11)
C8_3 C 0.2868(2) 0.1116(5) 0.14228(12)
C9_3 C 0.2836(3) 0.3258(6) 0.17007(13)
H5_3 H 0.3406 0.4339 0.1698
C10_3 C 0.1941(3) 0.3743(5) 0.19809(13)
H6_3 H 0.1908 0.5175 0.2168
C11_3 C 0.1080(3) 0.2139(5) 0.19908(13)
C12_3 C 0.1132(3) 0.0008(6) 0.17116(14)
C14_3 C 0.0129(3) 0.2708(5) 0.23225(14)
O8_2 O 0.5385(2) 0.6024(4) 0.25100(11)
C1_3 C 0.2759(3) 0.2466(5) 0.84728(13)
C2_3 C 0.3028(2) 0.1976(5) 0.91282(12)
C3_3 C 0.3554(3) 0.3671(6) 0.95070(13)
H1_3 H 0.3717 0.5118 0.9358
O6_3 O 0.4178(2) 0.7888(4) 0.11122(10)
H3_3 H 0.2855 0.7968 0.0099
H7_3 H 0.0569 0.8918 0.1719
C13_3 C 0.2022(3) 0.9492(6) 0.14197(13)
H8_3 H 0.2051 0.8075 0.1225
O7_2 O 0.50419(19) 0.9804(4) 0.25873(10)
C6_3 C 0.3042(3) 0.9393(6) 0.99464(12)
C7_3 C 0.2771(3) 0.9856(6) 0.93513(12)
H4_3 H 0.2411 0.8727 0.9099
O1_2 O 0.99581(19) 0.4804(4) 0.24127(10)
O2_2 O 0.9615(2) 0.1024(4) 0.24900(11)
H1_4 H 0.1283 0.0118 0.5642
H6_4 H 0.3092 0.0175 0.2832
S1_4 S 0.09910(6) 0.53731(13) 0.39302(3)
O5_4 O 0.00786(18) 0.6928(4) 0.37128(9)
O6_4 O 0.0822(2) 0.2888(4) 0.38878(10)
C1_4 C 0.2241(3) 0.7466(5) 0.65272(13)
C2_4 C 0.1972(2) 0.6976(5) 0.58718(12)
C3_4 C 0.1446(3) 0.8671(6) 0.54930(13)
C4_4 C 0.1165(3) 0.8220(6) 0.48969(13)
H2_4 H 0.0819 0.9353 0.4642
C5_4 C 0.1407(2) 0.6060(5) 0.46869(11)
C6_4 C 0.1958(3) 0.4393(6) 0.50536(12)
H3_4 H 0.2145 0.2968 0.4901
C7_4 C 0.2229(3) 0.4856(6) 0.56487(12)
H4_4 H 0.2589 0.3727 0.5901
C8_4 C 0.2132(2) 0.6116(5) 0.35772(12)
C9_4 C 0.2164(3) 0.8258(6) 0.32993(13)
H5_4 H 0.1594 0.9339 0.3302
C10_4 C 0.3059(3) 0.8743(5) 0.30191(13)
C11_4 C 0.3920(3) 0.7139(5) 0.30092(13)
C12_4 C 0.3868(3) 0.5008(6) 0.32884(14)
H7_4 H 0.4431 0.3918 0.3281
C13_4 C 0.2978(3) 0.4492(6) 0.35803(13)
H8_4 H 0.2949 0.3075 0.3775
C14_4 C 0.4871(3) 0.7708(5) 0.26775(14)
loop_
_geom_bond_atom_site_label_1
_geom_bond_atom_site_label_2
_geom_bond_site_symmetry_1
_geom_bond_site_symmetry_2
Sr3 O1 1_555 1_555
H4 C7 1_555 1_555
C6 C7 1_555 1_555
H8 C13 1_555 1_555
O3 C1 1_555 1_555
O4 C1 1_555 1_555
C1 C2 1_555 1_555
C2 C3 1_555 1_555
C3 H1 1_555 1_555
Sr5 O3 1_555 1_555
Sr6 O3 1_555 1_555
O4 Sr6 1_555 1_555
Sr1 O5 1_555 1_555
S1 O5 1_555 1_555
H2 C4 1_555 1_555
C5 S1 1_555 1_555
C8 S1 1_555 1_555
C9 C8 1_555 1_555
H5 C9 1_555 1_555
C10 C9 1_555 1_555
H6 C10 1_555 1_555
C11 C10 1_555 1_555
C12 C11 1_555 1_555
C14 C11 1_555 1_555
O8 Sr1 1_555 1_555
O9 Sr1 1_555 1_555
O10 Sr1 1_555 1_555
O12 Sr1 1_555 1_555
C4 C5 1_555 1_555
O9 Sr3 1_555 1_555
O12 Sr3 1_555 1_555
O11 Sr3 1_555 1_555
O7 C14_2 1_555 1_555
O8 C14_2 1_555 1_555
O3_2 C1_2 1_555 1_555
O4_2 C1_2 1_555 1_555
S1_2 O5_2 1_555 1_555
O6_2 S1_2 1_555 1_555
C1_2 C2_2 1_555 1_555
C2_2 C3_2 1_555 1_555
C4_2 C3_2 1_555 1_555
H2_2 C4_2 1_555 1_555
C5_2 S1_2 1_555 1_555
C6_2 C5_2 1_555 1_555
H3_2 C6_2 1_555 1_555
C7_2 C2_2 1_555 1_555
H4_2 C7_2 1_555 1_555
C8_2 S1_2 1_555 1_555
C9_2 C8_2 1_555 1_555
H5_2 C9_2 1_555 1_555
C10_2 C9_2 1_555 1_555
C11_2 C10_2 1_555 1_555
C12_2 C11_2 1_555 1_555
H7_2 C12_2 1_555 1_555
C13_2 C8_2 1_555 1_555
H8_2 C13_2 1_555 1_555
C14_2 C11_2 1_555 1_555
Sr6 O4_2 1_555 1_555
Sr5 O3_2 1_555 1_555
O4_2 Sr5 1_555 1_555
C4_2 C5_2 1_555 1_555
C6_2 C7_2 1_555 1_555
C12_2 C13_2 1_555 1_555
Sr5 O5_3 1_555 1_555
S1_3 O5_3 1_555 1_555
H2_3 C4_3 1_555 1_555
C5_3 S1_3 1_555 1_555
C8_3 S1_3 1_555 1_555
C9_3 C8_3 1_555 1_555
H5_3 C9_3 1_555 1_555
C10_3 C9_3 1_555 1_555
H6_3 C10_3 1_555 1_555
C11_3 C10_3 1_555 1_555
C12_3 C11_3 1_555 1_555
C14_3 C11_3 1_555 1_555
O8_2 Sr5 1_555 1_555
C4_3 C5_3 1_555 1_555
O9 C1_3 1_555 1_555
O11 C1_3 1_555 1_555
C1_3 C2_3 1_555 1_555
C2_3 C3_3 1_555 1_555
C3_3 H1_3 1_555 1_555
H8_3 C13_3 1_555 1_555
H4_3 C7_3 1_555 1_555
C6_3 C7_3 1_555 1_555
Sr6 O1_2 1_555 1_555
O7_2 C14_4 1_555 1_555
O8_2 C14_4 1_555 1_555
O10 C1_4 1_555 1_555
O12 C1_4 1_555 1_555
S1_4 O5_4 1_555 1_555
O6_4 S1_4 1_555 1_555
C1_4 C2_4 1_555 1_555
C2_4 C3_4 1_555 1_555
C4_4 C3_4 1_555 1_555
H2_4 C4_4 1_555 1_555
C5_4 S1_4 1_555 1_555
C6_4 C5_4 1_555 1_555
H3_4 C6_4 1_555 1_555
C7_4 C2_4 1_555 1_555
H4_4 C7_4 1_555 1_555
C8_4 S1_4 1_555 1_555
C9_4 C8_4 1_555 1_555
H5_4 C9_4 1_555 1_555
C10_4 C9_4 1_555 1_555
C11_4 C10_4 1_555 1_555
C12_4 C11_4 1_555 1_555
H7_4 C12_4 1_555 1_555
C13_4 C8_4 1_555 1_555
H8_4 C13_4 1_555 1_555
C14_4 C11_4 1_555 1_555
C4_4 C5_4 1_555 1_555
C6_4 C7_4 1_555 1_555
C12_4 C13_4 1_555 1_555

#END
