
###############################################################################
#
# This file contains modified crystal structure data generated from the
# MOF subset of the Cambridge Structural Database (CSD) v543 
# hosted by the Cambridge Crystallographic Data Centre (CCDC).
#
# This work is licensed under the Creative Commons
# Attribution-NonCommercial-ShareAlike 4.0 International License.
# To view a copy of this license, visit
# http://creativecommons.org/licenses/by-nc-sa/4.0/
# or send a letter to
# Creative Commons, PO Box 1866, Mountain View, CA 94042, USA.
#
# CIF created using the CSD Python API on 29 September 2022
# The structure has been converted into the P1 space group
# The structure has a 3D framework
# The original CSD entry LIBQIY is in the monoclinic crystal system
# The framework has been calculated to contain at least 10.0% void space
# The void calculation uses a probe of radius 1.32A, grid spacing 0.4
# The framework is charged, counterions have been retained in the structure
# H atom positions have been added when not included in the experimental data
#
###############################################################################

data_LIBQIY
_chemical_formula_moiety         '(C112 H176 N16 O128 Sm16 16+)n'
_symmetry_cell_setting           triclinic
_symmetry_space_group_name_H-M   'P 1'
_symmetry_Int_Tables_number      1
_space_group_name_Hall           'P 1'
loop_
_symmetry_equiv_pos_site_id
_symmetry_equiv_pos_as_xyz
1 x,y,z
_cell_length_a                   30.4265(19)
_cell_length_b                   15.6032(10)
_cell_length_c                   21.9006(13)
_cell_angle_alpha                90
_cell_angle_beta                 133.0160(10)
_cell_angle_gamma                90
_cell_volume                     7602.14
loop_
_atom_site_label
_atom_site_type_symbol
_atom_site_fract_x
_atom_site_fract_y
_atom_site_fract_z
O14 O 0.1726(3) 0.0947(4) 0.1241(4)
N2 N 0.1617(3) 0.0006(4) 0.2582(4)
C8 C 0.1848(4) 0.0539(5) 0.2383(6)
C9 C 0.2255(4) 0.1166(7) 0.2921(6)
H10 H 0.2438 0.1510 0.2787
C10 C 0.2393(5) 0.1283(6) 0.3663(6)
H11 H 0.2666 0.1718 0.4044
C11 C 0.2126(4) 0.0755(6) 0.3840(6)
H12 H 0.2204 0.0839 0.4336
C12 C 0.1749(4) 0.0112(6) 0.3297(5)
C13 C 0.1625(4) 0.0384(6) 0.1535(6)
Sm4 Sm 0.16852(2) 0.12747(3) 0.01430(3)
H20 H 0.0374789 0.00323521 0.172447
Sm2 Sm 0.11041(2) 0.86397(3) 0.17475(3)
O5 O 0.0282(3) 0.9768(5) 0.1235(5)
O6 O 0.0330(4) 0.8674(5) 0.0132(4)
O7 O 0.1323(3) 0.7196(4) 0.2343(5)
O8 O 0.1589(4) 0.7913(5) 0.1325(5)
H5 H 0.1412 0.7632 0.0877
H6 H 0.1810 0.8287 0.1363
O12 O 0.0211(3) 0.7868(4) 0.1157(4)
O13 O 0.1340(3) 0.9699(4) 0.1180(4)
O15 O 0.1216(3) 0.8829(4) 0.2951(4)
O16 O 0.1568(3) 0.9523(4) 0.4095(4)
C14 C 0.1483(4) 0.9442(6) 0.3457(6)
Sm3 Sm 0.16852(2) 0.87253(3) 0.51430(3)
O17 O 0.2224(3) 0.8466(4) 0.2951(4)
H21 H 0.0970664 0.681832 0.193776
H22 H 0.167853 0.69597 0.24636
O4 O 0.8664(3) 0.7658(4) 0.0996(4)
H3 H 0.9022 0.7469 0.1347
H4 H 0.8598 0.7923 0.1267
O11 O 0.9400(3) 0.8593(4) 0.0695(4)
C4 C 0.9471(4) 0.6482(6) 0.0060(6)
H9 H 0.9891 0.6392 0.0413
C5 C 0.9256(4) 0.7223(6) 0.0130(6)
C7 C 0.9656(4) 0.7939(6) 0.0716(6)
O19 O 0.8432(3) 0.9523(4) 0.0905(4)
H19 H 0.988355 0.948251 0.0877105
Sm1 Sm 0.83148(2) 0.87253(3) 0.98570(3)
O1 O 0.7487(3) 0.8382(4) 0.9812(5)
H1 H 0.7404 0.8876 0.9875
H2 H 0.7159 0.8148 0.9392
O2 O 0.7481(4) 0.9732(5) 0.8910(5)
O9 O 0.7524(3) 0.7720(4) 0.8713(4)
O10 O 0.7224(3) 0.6534(4) 0.7951(4)
N1 N 0.8658(3) 0.7370(5) 0.9639(4)
C1 C 0.8269(4) 0.6785(6) 0.9060(5)
C2 C 0.8453(5) 0.6024(6) 0.8957(6)
H7 H 0.8169 0.5616 0.8547
C3 C 0.9068(4) 0.5882(6) 0.9474(6)
H8 H 0.9208 0.5370 0.9420
C6 C 0.7620(4) 0.7024(6) 0.8535(6)
Sm5 Sm 0.61041(2) 0.63603(3) 0.67475(3)
O18 O 0.8274(3) 0.9053(4) 0.8759(4)
O1_2 O 0.2513(3) 0.8382(4) 0.5188(5)
H1_2 H 0.2596 0.8876 0.5125
H2_2 H 0.2841 0.8148 0.5608
O2_2 O 0.2519(4) 0.9732(5) 0.6090(5)
O4_2 O 0.1336(3) 0.7658(4) 0.4004(4)
H3_2 H 0.0978 0.7469 0.3653
H4_2 H 0.1402 0.7923 0.3733
O9_2 O 0.2476(3) 0.7720(4) 0.6287(4)
O10_2 O 0.2776(3) 0.6534(4) 0.7049(4)
O11_2 O 0.0600(3) 0.8593(4) 0.4305(4)
N1_2 N 0.1342(3) 0.7370(5) 0.5361(4)
C1_2 C 0.1731(4) 0.6785(6) 0.5940(5)
C2_2 C 0.1547(5) 0.6024(6) 0.6043(6)
H7_2 H 0.1831 0.5616 0.6453
C3_2 C 0.0932(4) 0.5882(6) 0.5526(6)
H8_2 H 0.0792 0.5370 0.5580
C4_2 C 0.0529(4) 0.6482(6) 0.4940(6)
H9_2 H 0.0109 0.6392 0.4587
C5_2 C 0.0744(4) 0.7223(6) 0.4870(6)
C6_2 C 0.2380(4) 0.7024(6) 0.6465(6)
C7_2 C 0.0344(4) 0.7939(6) 0.4284(6)
Sm5_2 Sm 0.38959(2) 0.63603(3) 0.82525(3)
O18_2 O 0.1726(3) 0.9053(4) 0.6241(4)
H19_2 H 0.0116451 0.948251 0.412289
O14_2 O 0.8274(3) 0.0947(4) 0.3759(4)
N2_2 N 0.8383(3) 0.0006(4) 0.2418(4)
C8_2 C 0.8152(4) 0.0539(5) 0.2617(6)
C9_2 C 0.7745(4) 0.1166(7) 0.2079(6)
H10_2 H 0.7562 0.1510 0.2213
C10_2 C 0.7607(5) 0.1283(6) 0.1337(6)
H11_2 H 0.7334 0.1718 0.0956
C11_2 C 0.7874(4) 0.0755(6) 0.1160(6)
H12_2 H 0.7796 0.0839 0.0664
C12_2 C 0.8251(4) 0.0112(6) 0.1703(5)
C13_2 C 0.8375(4) 0.0384(6) 0.3465(6)
Sm4_2 Sm 0.83148(2) 0.12747(3) 0.48570(3)
H20_2 H 0.962521 0.00323521 0.327553
Sm2_2 Sm 0.88959(2) 0.86397(3) 0.32525(3)
O5_2 O 0.9718(3) 0.9768(5) 0.3765(5)
O6_2 O 0.9670(4) 0.8674(5) 0.4868(4)
O7_2 O 0.8677(3) 0.7196(4) 0.2657(5)
O8_2 O 0.8411(4) 0.7913(5) 0.3675(5)
H5_2 H 0.8588 0.7632 0.4123
H6_2 H 0.8190 0.8287 0.3637
O12_2 O 0.9789(3) 0.7868(4) 0.3843(4)
O13_2 O 0.8660(3) 0.9699(4) 0.3820(4)
O15_2 O 0.8784(3) 0.8829(4) 0.2049(4)
C14_2 C 0.8517(4) 0.9442(6) 0.1543(6)
O17_2 O 0.7776(3) 0.8466(4) 0.2049(4)
H17 H 0.968296 0.925826 0.505955
H18 H 0.955037 0.825539 0.507379
H21_2 H 0.902934 0.681832 0.306224
H22_2 H 0.832147 0.69597 0.25364
Sm2_3 Sm 0.61041(2) 0.36397(3) 0.17475(3)
O3 O 0.3766(4) 0.5186(4) 0.0138(5)
O4_3 O 0.3664(3) 0.2658(4) 0.0996(4)
H3_3 H 0.4022 0.2469 0.1347
H4_3 H 0.3598 0.2923 0.1267
O5_3 O 0.5282(3) 0.4768(5) 0.1235(5)
O6_3 O 0.5330(4) 0.3674(5) 0.0132(4)
O7_3 O 0.6323(3) 0.2196(4) 0.2343(5)
O8_3 O 0.6589(4) 0.2913(5) 0.1325(5)
H5_3 H 0.6412 0.2632 0.0877
H6_3 H 0.6810 0.3287 0.1363
O11_3 O 0.4400(3) 0.3593(4) 0.0695(4)
O12_3 O 0.5211(3) 0.2868(4) 0.1157(4)
O13_3 O 0.6340(3) 0.4699(4) 0.1180(4)
O14_3 O 0.6726(3) 0.5947(4) 0.1241(4)
O15_3 O 0.6216(3) 0.3829(4) 0.2951(4)
O16_2 O 0.6568(3) 0.4523(4) 0.4095(4)
N2_3 N 0.6617(3) 0.5006(4) 0.2582(4)
C4_3 C 0.4471(4) 0.1482(6) 0.0060(6)
H9_3 H 0.4891 0.1392 0.0413
C5_3 C 0.4256(4) 0.2223(6) 0.0130(6)
C7_3 C 0.4656(4) 0.2939(6) 0.0716(6)
C8_3 C 0.6848(4) 0.5539(5) 0.2383(6)
C9_3 C 0.7255(4) 0.6166(7) 0.2921(6)
H10_3 H 0.7438 0.6510 0.2787
C10_3 C 0.7393(5) 0.6283(6) 0.3663(6)
H11_3 H 0.7666 0.6718 0.4044
C11_3 C 0.7126(4) 0.5755(6) 0.3840(6)
H12_3 H 0.7204 0.5839 0.4336
C12_3 C 0.6749(4) 0.5112(6) 0.3297(5)
C13_3 C 0.6625(4) 0.5384(6) 0.1535(6)
C14_3 C 0.6483(4) 0.4442(6) 0.3457(6)
Sm3_2 Sm 0.66852(2) 0.37253(3) 0.51430(3)
Sm4_3 Sm 0.66852(2) 0.62747(3) 0.01430(3)
O17_3 O 0.7224(3) 0.3466(4) 0.2951(4)
O19_2 O 0.3432(3) 0.4523(4) 0.0905(4)
H15 H 0.394351 0.538558 0.0697203
H16 H 0.40845 0.515703 0.012288
H19_3 H 0.488355 0.448251 0.0877105
H20_3 H 0.537479 0.503235 0.172447
H21_3 H 0.597066 0.181832 0.193776
H22_3 H 0.667853 0.19597 0.24636
Sm1_2 Sm 0.33148(2) 0.37253(3) 0.98570(3)
O1_3 O 0.2487(3) 0.3382(4) 0.9812(5)
H1_3 H 0.2404 0.3876 0.9875
H2_3 H 0.2159 0.3148 0.9392
O2_3 O 0.2481(4) 0.4732(5) 0.8910(5)
O9_3 O 0.2524(3) 0.2720(4) 0.8713(4)
O10_3 O 0.2224(3) 0.1534(4) 0.7951(4)
N1_3 N 0.3658(3) 0.2370(5) 0.9639(4)
C1_3 C 0.3269(4) 0.1785(6) 0.9060(5)
C2_3 C 0.3453(5) 0.1024(6) 0.8957(6)
H7_3 H 0.3169 0.0616 0.8547
C3_3 C 0.4068(4) 0.0882(6) 0.9474(6)
H8_3 H 0.4208 0.0370 0.9420
C6_3 C 0.2620(4) 0.2024(6) 0.8535(6)
Sm5_3 Sm 0.11041(2) 0.13603(3) 0.67475(3)
O18_3 O 0.3274(3) 0.4053(4) 0.8759(4)
H13 H 0.240807 0.505799 0.922318
H14 H 0.258507 0.513636 0.867485
H17_2 H 0.531704 0.425826 0.994045
H18_2 H 0.544963 0.325539 0.992621
Sm2_4 Sm 0.38959(2) 0.36397(3) 0.32525(3)
O1_4 O 0.7513(3) 0.3382(4) 0.5188(5)
H1_4 H 0.7596 0.3876 0.5125
H2_4 H 0.7841 0.3148 0.5608
O2_4 O 0.7519(4) 0.4732(5) 0.6090(5)
O3_2 O 0.6234(4) 0.5186(4) 0.4862(5)
O4_4 O 0.6336(3) 0.2658(4) 0.4004(4)
H3_4 H 0.5978 0.2469 0.3653
H4_4 H 0.6402 0.2923 0.3733
O5_4 O 0.4718(3) 0.4768(5) 0.3765(5)
O6_4 O 0.4670(4) 0.3674(5) 0.4868(4)
O7_4 O 0.3677(3) 0.2196(4) 0.2657(5)
O8_4 O 0.3411(4) 0.2913(5) 0.3675(5)
H5_4 H 0.3588 0.2632 0.4123
H6_4 H 0.3190 0.3287 0.3637
O9_4 O 0.7476(3) 0.2720(4) 0.6287(4)
O10_4 O 0.7776(3) 0.1534(4) 0.7049(4)
O11_4 O 0.5600(3) 0.3593(4) 0.4305(4)
O12_4 O 0.4789(3) 0.2868(4) 0.3843(4)
O13_4 O 0.3660(3) 0.4699(4) 0.3820(4)
O14_4 O 0.3274(3) 0.5947(4) 0.3759(4)
O15_4 O 0.3784(3) 0.3829(4) 0.2049(4)
N1_4 N 0.6342(3) 0.2370(5) 0.5361(4)
N2_4 N 0.3383(3) 0.5006(4) 0.2418(4)
C1_4 C 0.6731(4) 0.1785(6) 0.5940(5)
C2_4 C 0.6547(5) 0.1024(6) 0.6043(6)
H7_4 H 0.6831 0.0616 0.6453
C3_4 C 0.5932(4) 0.0882(6) 0.5526(6)
H8_4 H 0.5792 0.0370 0.5580
C4_4 C 0.5529(4) 0.1482(6) 0.4940(6)
H9_4 H 0.5109 0.1392 0.4587
C5_4 C 0.5744(4) 0.2223(6) 0.4870(6)
C6_4 C 0.7380(4) 0.2024(6) 0.6465(6)
C7_4 C 0.5344(4) 0.2939(6) 0.4284(6)
C8_4 C 0.3152(4) 0.5539(5) 0.2617(6)
C9_4 C 0.2745(4) 0.6166(7) 0.2079(6)
H10_4 H 0.2562 0.6510 0.2213
C10_4 C 0.2607(5) 0.6283(6) 0.1337(6)
H11_4 H 0.2334 0.6718 0.0956
C11_4 C 0.2874(4) 0.5755(6) 0.1160(6)
H12_4 H 0.2796 0.5839 0.0664
C12_4 C 0.3251(4) 0.5112(6) 0.1703(5)
C13_4 C 0.3375(4) 0.5384(6) 0.3465(6)
C14_4 C 0.3517(4) 0.4442(6) 0.1543(6)
Sm4_4 Sm 0.33148(2) 0.62747(3) 0.48570(3)
Sm5_4 Sm 0.88959(2) 0.13603(3) 0.82525(3)
O17_4 O 0.2776(3) 0.3466(4) 0.2049(4)
O18_4 O 0.6726(3) 0.4053(4) 0.6241(4)
H13_2 H 0.759193 0.505799 0.577682
H14_2 H 0.741493 0.513636 0.632515
H15_2 H 0.605649 0.538558 0.43028
H16_2 H 0.59155 0.515703 0.487712
H17_3 H 0.468296 0.425826 0.505955
H18_3 H 0.455037 0.325539 0.507379
H19_4 H 0.511645 0.448251 0.412289
H20_4 H 0.462521 0.503235 0.327553
H21_4 H 0.402934 0.181832 0.306224
H22_4 H 0.332147 0.19597 0.25364
O1_5 O 0.2513(3) 0.1618(4) 0.0188(5)
H1_5 H 0.2596 0.1124 0.0125
H2_5 H 0.2841 0.1852 0.0608
O2_5 O 0.2519(4) 0.0268(5) 0.1090(5)
O9_5 O 0.2476(3) 0.2280(4) 0.1287(4)
N1_5 N 0.1342(3) 0.2630(5) 0.0361(4)
C1_5 C 0.1731(4) 0.3215(6) 0.0940(5)
C2_5 C 0.1547(5) 0.3976(6) 0.1043(6)
H7_5 H 0.1831 0.4384 0.1453
C3_5 C 0.0932(4) 0.4118(6) 0.0526(6)
H8_5 H 0.0792 0.4630 0.0580
C6_5 C 0.2380(4) 0.2976(6) 0.1465(6)
O4_5 O 0.1336(3) 0.2342(4) 0.9004(4)
H3_5 H 0.0978 0.2531 0.8653
H4_5 H 0.1402 0.2077 0.8733
O11_5 O 0.0600(3) 0.1407(4) 0.9305(4)
C4_5 C 0.0529(4) 0.3518(6) 0.9940(6)
H9_5 H 0.0109 0.3608 0.9587
C5_5 C 0.0744(4) 0.2777(6) 0.9870(6)
C7_5 C 0.0344(4) 0.2061(6) 0.9284(6)
O19_3 O 0.1568(3) 0.0477(4) 0.9095(4)
H19_5 H 0.0116451 0.0517491 0.912289
O5_5 O 0.9718(3) 0.0232(5) 0.8765(5)
O6_5 O 0.9670(4) 0.1326(5) 0.9868(4)
O7_5 O 0.8677(3) 0.2804(4) 0.7657(5)
O8_5 O 0.8411(4) 0.2087(5) 0.8675(5)
H5_5 H 0.8588 0.2368 0.9123
H6_5 H 0.8190 0.1713 0.8637
O12_5 O 0.9789(3) 0.2132(4) 0.8843(4)
O13_5 O 0.8660(3) 0.0301(4) 0.8820(4)
O15_5 O 0.8784(3) 0.1171(4) 0.7049(4)
O16_3 O 0.8432(3) 0.0477(4) 0.5905(4)
C14_5 C 0.8517(4) 0.0558(6) 0.6543(6)
H21_5 H 0.902934 0.318168 0.806224
H22_5 H 0.832147 0.30403 0.75364
N2_5 N 0.8383(3) 0.9994(4) 0.7418(4)
C8_5 C 0.8152(4) 0.9461(5) 0.7617(6)
C9_5 C 0.7745(4) 0.8834(7) 0.7079(6)
H10_5 H 0.7562 0.8490 0.7213
C10_5 C 0.7607(5) 0.8717(6) 0.6337(6)
H11_5 H 0.7334 0.8282 0.5956
C11_5 C 0.7874(4) 0.9245(6) 0.6160(6)
H12_5 H 0.7796 0.9161 0.5664
C12_5 C 0.8251(4) 0.9888(6) 0.6703(5)
C13_5 C 0.8375(4) 0.9616(6) 0.8465(6)
H20_5 H 0.962521 0.996765 0.827553
O5_6 O 0.0282(3) 0.0232(5) 0.6235(5)
O6_6 O 0.0330(4) 0.1326(5) 0.5132(4)
O7_6 O 0.1323(3) 0.2804(4) 0.7343(5)
O8_6 O 0.1589(4) 0.2087(5) 0.6325(5)
H5_6 H 0.1412 0.2368 0.5877
H6_6 H 0.1810 0.1713 0.6363
O12_6 O 0.0211(3) 0.2132(4) 0.6157(4)
O13_6 O 0.1340(3) 0.0301(4) 0.6180(4)
O15_6 O 0.1216(3) 0.1171(4) 0.7951(4)
C14_6 C 0.1483(4) 0.0558(6) 0.8457(6)
H17_4 H 0.0317044 0.0741741 0.494045
H18_4 H 0.0449627 0.174461 0.492621
H21_6 H 0.0970664 0.318168 0.693776
H22_6 H 0.167853 0.30403 0.74636
N2_6 N 0.1617(3) 0.9994(4) 0.7582(4)
C8_6 C 0.1848(4) 0.9461(5) 0.7383(6)
C9_6 C 0.2255(4) 0.8834(7) 0.7921(6)
H10_6 H 0.2438 0.8490 0.7787
C10_6 C 0.2393(5) 0.8717(6) 0.8663(6)
H11_6 H 0.2666 0.8282 0.9044
C11_6 C 0.2126(4) 0.9245(6) 0.8840(6)
H12_6 H 0.2204 0.9161 0.9336
C12_6 C 0.1749(4) 0.9888(6) 0.8297(5)
C13_6 C 0.1625(4) 0.9616(6) 0.6535(6)
H20_6 H 0.0374789 0.996765 0.672447
O1_6 O 0.7487(3) 0.1618(4) 0.4812(5)
H1_6 H 0.7404 0.1124 0.4875
H2_6 H 0.7159 0.1852 0.4392
O2_6 O 0.7481(4) 0.0268(5) 0.3910(5)
O4_6 O 0.8664(3) 0.2342(4) 0.5996(4)
H3_6 H 0.9022 0.2531 0.6347
H4_6 H 0.8598 0.2077 0.6267
O9_6 O 0.7524(3) 0.2280(4) 0.3713(4)
O11_6 O 0.9400(3) 0.1407(4) 0.5695(4)
N1_6 N 0.8658(3) 0.2630(5) 0.4639(4)
C1_6 C 0.8269(4) 0.3215(6) 0.4060(5)
C2_6 C 0.8453(5) 0.3976(6) 0.3957(6)
H7_6 H 0.8169 0.4384 0.3547
C3_6 C 0.9068(4) 0.4118(6) 0.4474(6)
H8_6 H 0.9208 0.4630 0.4420
C4_6 C 0.9471(4) 0.3518(6) 0.5060(6)
H9_6 H 0.9891 0.3608 0.5413
C5_6 C 0.9256(4) 0.2777(6) 0.5130(6)
C6_6 C 0.7620(4) 0.2976(6) 0.3535(6)
C7_6 C 0.9656(4) 0.2061(6) 0.5716(6)
H19_6 H 0.988355 0.0517491 0.587711
O1_7 O 0.7513(3) 0.6618(4) 0.0188(5)
H1_7 H 0.7596 0.6124 0.0125
H2_7 H 0.7841 0.6852 0.0608
O2_7 O 0.7519(4) 0.5268(5) 0.1090(5)
O9_7 O 0.7476(3) 0.7280(4) 0.1287(4)
N1_7 N 0.6342(3) 0.7630(5) 0.0361(4)
C1_7 C 0.6731(4) 0.8215(6) 0.0940(5)
C2_7 C 0.6547(5) 0.8976(6) 0.1043(6)
H7_7 H 0.6831 0.9384 0.1453
C3_7 C 0.5932(4) 0.9118(6) 0.0526(6)
H8_7 H 0.5792 0.9630 0.0580
C6_7 C 0.7380(4) 0.7976(6) 0.1465(6)
H13_3 H 0.759193 0.494201 0.0776825
H14_3 H 0.741493 0.486364 0.132515
H17_5 H 0.468296 0.574174 0.0059551
H18_5 H 0.455037 0.674461 0.00737864
O3_3 O 0.6234(4) 0.4814(4) 0.9862(5)
O4_7 O 0.6336(3) 0.7342(4) 0.9004(4)
H3_7 H 0.5978 0.7531 0.8653
H4_7 H 0.6402 0.7077 0.8733
O5_7 O 0.4718(3) 0.5232(5) 0.8765(5)
O6_7 O 0.4670(4) 0.6326(5) 0.9868(4)
O7_7 O 0.3677(3) 0.7804(4) 0.7657(5)
O8_7 O 0.3411(4) 0.7087(5) 0.8675(5)
H5_7 H 0.3588 0.7368 0.9123
H6_7 H 0.3190 0.6713 0.8637
O11_7 O 0.5600(3) 0.6407(4) 0.9305(4)
O12_7 O 0.4789(3) 0.7132(4) 0.8843(4)
O13_7 O 0.3660(3) 0.5301(4) 0.8820(4)
O15_7 O 0.3784(3) 0.6171(4) 0.7049(4)
O16_4 O 0.3432(3) 0.5477(4) 0.5905(4)
N2_7 N 0.3383(3) 0.4994(4) 0.7418(4)
C4_7 C 0.5529(4) 0.8518(6) 0.9940(6)
H9_7 H 0.5109 0.8608 0.9587
C5_7 C 0.5744(4) 0.7777(6) 0.9870(6)
C7_7 C 0.5344(4) 0.7061(6) 0.9284(6)
C8_7 C 0.3152(4) 0.4461(5) 0.7617(6)
C9_7 C 0.2745(4) 0.3834(7) 0.7079(6)
H10_7 H 0.2562 0.3490 0.7213
C10_7 C 0.2607(5) 0.3717(6) 0.6337(6)
H11_7 H 0.2334 0.3282 0.5956
C11_7 C 0.2874(4) 0.4245(6) 0.6160(6)
H12_7 H 0.2796 0.4161 0.5664
C12_7 C 0.3251(4) 0.4888(6) 0.6703(5)
C13_7 C 0.3375(4) 0.4616(6) 0.8465(6)
C14_7 C 0.3517(4) 0.5558(6) 0.6543(6)
O19_4 O 0.6568(3) 0.5477(4) 0.9095(4)
H15_3 H 0.605649 0.461442 0.93028
H16_3 H 0.59155 0.484297 0.987712
H19_7 H 0.511645 0.551749 0.912289
H20_7 H 0.462521 0.496765 0.827553
H21_7 H 0.402934 0.818168 0.806224
H22_7 H 0.332147 0.80403 0.75364
O1_8 O 0.2487(3) 0.6618(4) 0.4812(5)
H1_8 H 0.2404 0.6124 0.4875
H2_8 H 0.2159 0.6852 0.4392
O2_8 O 0.2481(4) 0.5268(5) 0.3910(5)
O3_4 O 0.3766(4) 0.4814(4) 0.5138(5)
O4_8 O 0.3664(3) 0.7342(4) 0.5996(4)
H3_8 H 0.4022 0.7531 0.6347
H4_8 H 0.3598 0.7077 0.6267
O5_8 O 0.5282(3) 0.5232(5) 0.6235(5)
O6_8 O 0.5330(4) 0.6326(5) 0.5132(4)
O7_8 O 0.6323(3) 0.7804(4) 0.7343(5)
O8_8 O 0.6589(4) 0.7087(5) 0.6325(5)
H5_8 H 0.6412 0.7368 0.5877
H6_8 H 0.6810 0.6713 0.6363
O9_8 O 0.2524(3) 0.7280(4) 0.3713(4)
O11_8 O 0.4400(3) 0.6407(4) 0.5695(4)
O12_8 O 0.5211(3) 0.7132(4) 0.6157(4)
O13_8 O 0.6340(3) 0.5301(4) 0.6180(4)
O15_8 O 0.6216(3) 0.6171(4) 0.7951(4)
N1_8 N 0.3658(3) 0.7630(5) 0.4639(4)
N2_8 N 0.6617(3) 0.4994(4) 0.7582(4)
C1_8 C 0.3269(4) 0.8215(6) 0.4060(5)
C2_8 C 0.3453(5) 0.8976(6) 0.3957(6)
H7_8 H 0.3169 0.9384 0.3547
C3_8 C 0.4068(4) 0.9118(6) 0.4474(6)
H8_8 H 0.4208 0.9630 0.4420
C4_8 C 0.4471(4) 0.8518(6) 0.5060(6)
H9_8 H 0.4891 0.8608 0.5413
C5_8 C 0.4256(4) 0.7777(6) 0.5130(6)
C6_8 C 0.2620(4) 0.7976(6) 0.3535(6)
C7_8 C 0.4656(4) 0.7061(6) 0.5716(6)
C8_8 C 0.6848(4) 0.4461(5) 0.7383(6)
C9_8 C 0.7255(4) 0.3834(7) 0.7921(6)
H10_8 H 0.7438 0.3490 0.7787
C10_8 C 0.7393(5) 0.3717(6) 0.8663(6)
H11_8 H 0.7666 0.3282 0.9044
C11_8 C 0.7126(4) 0.4245(6) 0.8840(6)
H12_8 H 0.7204 0.4161 0.9336
C12_8 C 0.6749(4) 0.4888(6) 0.8297(5)
C13_8 C 0.6625(4) 0.4616(6) 0.6535(6)
C14_8 C 0.6483(4) 0.5558(6) 0.8457(6)
H13_4 H 0.240807 0.494201 0.422318
H14_4 H 0.258507 0.486364 0.367485
H15_4 H 0.394351 0.461442 0.56972
H16_4 H 0.40845 0.484297 0.512288
H17_6 H 0.531704 0.574174 0.494045
H18_6 H 0.544963 0.674461 0.492621
H19_8 H 0.488355 0.551749 0.587711
H20_8 H 0.537479 0.496765 0.672447
H21_8 H 0.597066 0.818168 0.693776
H22_8 H 0.667853 0.80403 0.74636
H17_7 H 0.0317044 0.925826 0.994045
H18_7 H 0.0449627 0.825539 0.992621
O3_5 O 0.8766(4) 0.0186(4) 0.0138(5)
H15_5 H 0.894351 0.0385577 0.0697203
H16_5 H 0.90845 0.0157027 0.012288
H13_5 H 0.740807 0.00579886 0.922318
H14_5 H 0.758507 0.0136362 0.867485
O3_6 O 0.1234(4) 0.0186(4) 0.4862(5)
H13_6 H 0.259193 0.00579886 0.577682
H14_6 H 0.241493 0.0136362 0.632515
H15_6 H 0.105649 0.0385577 0.43028
H16_6 H 0.09155 0.0157027 0.487712
H13_7 H 0.259193 0.994201 0.0776825
H14_7 H 0.241493 0.986364 0.132515
O3_7 O 0.1234(4) 0.9814(4) 0.9862(5)
H15_7 H 0.105649 0.961442 0.93028
H16_7 H 0.09155 0.984297 0.987712
H17_8 H 0.968296 0.0741741 0.0059551
H18_8 H 0.955037 0.174461 0.00737864
O3_8 O 0.8766(4) 0.9814(4) 0.5138(5)
H13_8 H 0.740807 0.994201 0.422318
H14_8 H 0.758507 0.986364 0.367485
H15_8 H 0.894351 0.961442 0.56972
H16_8 H 0.90845 0.984297 0.512288
loop_
_geom_bond_atom_site_label_1
_geom_bond_atom_site_label_2
_geom_bond_site_symmetry_1
_geom_bond_site_symmetry_2
O14 C13 1_555 1_555
C8 N2 1_555 1_555
C9 C8 1_555 1_555
H10 C9 1_555 1_555
C10 C9 1_555 1_555
H11 C10 1_555 1_555
C11 C10 1_555 1_555
H12 C11 1_555 1_555
C12 N2 1_555 1_555
Sm4 O14 1_555 1_555
C8 C13 1_555 1_555
C11 C12 1_555 1_555
Sm2 O5 1_555 1_555
O6 Sm2 1_555 1_555
O7 Sm2 1_555 1_555
O8 Sm2 1_555 1_555
H5 O8 1_555 1_555
H6 O8 1_555 1_555
O12 Sm2 1_555 1_555
O13 Sm2 1_555 1_555
O15 Sm2 1_555 1_555
O16 C14 1_555 1_555
C14 O15 1_555 1_555
Sm3 O16 1_555 1_555
O17 Sm2 1_555 1_555
O7 H21 1_555 1_555
O7 H22 1_555 1_555
H3 O4 1_555 1_555
H4 O4 1_555 1_555
H9 C4 1_555 1_555
C7 O11 1_555 1_555
C4 C5 1_555 1_555
C5 C7 1_555 1_555
Sm1 O1 1_555 1_555
O1 H1 1_555 1_555
H2 O1 1_555 1_555
O2 Sm1 1_555 1_555
O9 Sm1 1_555 1_555
O10 C6 1_555 1_555
N1 Sm1 1_555 1_555
C1 N1 1_555 1_555
C2 C1 1_555 1_555
H7 C2 1_555 1_555
C3 C2 1_555 1_555
H8 C3 1_555 1_555
C6 O9 1_555 1_555
Sm5 O10 1_555 1_555
O18 Sm1 1_555 1_555
C1 C6 1_555 1_555
Sm3 O1_2 1_555 1_555
O1_2 H1_2 1_555 1_555
H2_2 O1_2 1_555 1_555
O2_2 Sm3 1_555 1_555
O4_2 Sm3 1_555 1_555
H3_2 O4_2 1_555 1_555
H4_2 O4_2 1_555 1_555
O9_2 Sm3 1_555 1_555
O10_2 C6_2 1_555 1_555
O11_2 Sm3 1_555 1_555
N1_2 Sm3 1_555 1_555
C1_2 N1_2 1_555 1_555
C2_2 C1_2 1_555 1_555
H7_2 C2_2 1_555 1_555
C3_2 C2_2 1_555 1_555
H8_2 C3_2 1_555 1_555
C4_2 C3_2 1_555 1_555
H9_2 C4_2 1_555 1_555
C5_2 N1_2 1_555 1_555
C6_2 O9_2 1_555 1_555
C7_2 O11_2 1_555 1_555
Sm5_2 O10_2 1_555 1_555
O18_2 Sm3 1_555 1_555
C1_2 C6_2 1_555 1_555
C4_2 C5_2 1_555 1_555
C5_2 C7_2 1_555 1_555
O14_2 C13_2 1_555 1_555
C8_2 N2_2 1_555 1_555
C9_2 C8_2 1_555 1_555
H10_2 C9_2 1_555 1_555
C10_2 C9_2 1_555 1_555
H11_2 C10_2 1_555 1_555
C11_2 C10_2 1_555 1_555
H12_2 C11_2 1_555 1_555
C12_2 N2_2 1_555 1_555
Sm4_2 O14_2 1_555 1_555
C8_2 C13_2 1_555 1_555
C11_2 C12_2 1_555 1_555
Sm2_2 O5_2 1_555 1_555
O6_2 Sm2_2 1_555 1_555
O7_2 Sm2_2 1_555 1_555
O8_2 Sm2_2 1_555 1_555
H5_2 O8_2 1_555 1_555
H6_2 O8_2 1_555 1_555
O12_2 Sm2_2 1_555 1_555
O13_2 Sm2_2 1_555 1_555
O15_2 Sm2_2 1_555 1_555
O19 C14_2 1_555 1_555
C14_2 O15_2 1_555 1_555
O17_2 Sm2_2 1_555 1_555
O6_2 H17 1_555 1_555
O6_2 H18 1_555 1_555
O7_2 H21_2 1_555 1_555
O7_2 H22_2 1_555 1_555
Sm2_3 O5_3 1_555 1_555
H3_3 O4_3 1_555 1_555
H4_3 O4_3 1_555 1_555
O6_3 Sm2_3 1_555 1_555
O7_3 Sm2_3 1_555 1_555
O8_3 Sm2_3 1_555 1_555
H5_3 O8_3 1_555 1_555
H6_3 O8_3 1_555 1_555
O12_3 Sm2_3 1_555 1_555
O13_3 Sm2_3 1_555 1_555
O14_3 C13_3 1_555 1_555
O15_3 Sm2_3 1_555 1_555
O16_2 C14_3 1_555 1_555
N2_3 Sm2_3 1_555 1_555
H9_3 C4_3 1_555 1_555
C7_3 O11_3 1_555 1_555
C8_3 N2_3 1_555 1_555
C9_3 C8_3 1_555 1_555
H10_3 C9_3 1_555 1_555
C10_3 C9_3 1_555 1_555
H11_3 C10_3 1_555 1_555
C11_3 C10_3 1_555 1_555
H12_3 C11_3 1_555 1_555
C12_3 N2_3 1_555 1_555
C13_3 O13_3 1_555 1_555
C14_3 O15_3 1_555 1_555
Sm3_2 O16_2 1_555 1_555
Sm4_3 O14_3 1_555 1_555
O17_3 Sm2_3 1_555 1_555
O12_3 C7_3 1_555 1_555
C4_3 C5_3 1_555 1_555
C5_3 C7_3 1_555 1_555
C8_3 C13_3 1_555 1_555
C11_3 C12_3 1_555 1_555
C12_3 C14_3 1_555 1_555
O3 H15 1_555 1_555
O3 H16 1_555 1_555
O5_3 H19_3 1_555 1_555
O5_3 H20_3 1_555 1_555
O7_3 H21_3 1_555 1_555
O7_3 H22_3 1_555 1_555
Sm1_2 O1_3 1_555 1_555
O1_3 H1_3 1_555 1_555
H2_3 O1_3 1_555 1_555
O2_3 Sm1_2 1_555 1_555
O9_3 Sm1_2 1_555 1_555
O10_3 C6_3 1_555 1_555
N1_3 Sm1_2 1_555 1_555
C1_3 N1_3 1_555 1_555
C2_3 C1_3 1_555 1_555
H7_3 C2_3 1_555 1_555
C3_3 C2_3 1_555 1_555
H8_3 C3_3 1_555 1_555
C6_3 O9_3 1_555 1_555
Sm5_3 O10_3 1_555 1_555
O18_3 Sm1_2 1_555 1_555
C1_3 C6_3 1_555 1_555
O2_3 H13 1_555 1_555
O2_3 H14 1_555 1_555
Sm3_2 O1_4 1_555 1_555
Sm2_4 O5_4 1_555 1_555
O1_4 H1_4 1_555 1_555
H2_4 O1_4 1_555 1_555
O2_4 Sm3_2 1_555 1_555
O3_2 Sm3_2 1_555 1_555
O4_4 Sm3_2 1_555 1_555
H3_4 O4_4 1_555 1_555
H4_4 O4_4 1_555 1_555
O6_4 Sm2_4 1_555 1_555
O7_4 Sm2_4 1_555 1_555
O8_4 Sm2_4 1_555 1_555
H5_4 O8_4 1_555 1_555
H6_4 O8_4 1_555 1_555
O9_4 Sm3_2 1_555 1_555
O10_4 C6_4 1_555 1_555
O11_4 Sm3_2 1_555 1_555
O12_4 Sm2_4 1_555 1_555
O13_4 Sm2_4 1_555 1_555
O14_4 C13_4 1_555 1_555
O15_4 Sm2_4 1_555 1_555
O19_2 C14_4 1_555 1_555
N1_4 Sm3_2 1_555 1_555
N2_4 Sm2_4 1_555 1_555
C1_4 N1_4 1_555 1_555
C2_4 C1_4 1_555 1_555
H7_4 C2_4 1_555 1_555
C3_4 C2_4 1_555 1_555
H8_4 C3_4 1_555 1_555
C4_4 C3_4 1_555 1_555
H9_4 C4_4 1_555 1_555
C5_4 N1_4 1_555 1_555
C6_4 O9_4 1_555 1_555
C7_4 O11_4 1_555 1_555
C8_4 N2_4 1_555 1_555
C9_4 C8_4 1_555 1_555
H10_4 C9_4 1_555 1_555
C10_4 C9_4 1_555 1_555
H11_4 C10_4 1_555 1_555
C11_4 C10_4 1_555 1_555
H12_4 C11_4 1_555 1_555
C12_4 N2_4 1_555 1_555
C13_4 O13_4 1_555 1_555
C14_4 O15_4 1_555 1_555
Sm4_4 O14_4 1_555 1_555
Sm5_4 O10_4 1_555 1_555
O17_4 Sm2_4 1_555 1_555
O18_4 Sm3_2 1_555 1_555
O12_4 C7_4 1_555 1_555
C1_4 C6_4 1_555 1_555
C4_4 C5_4 1_555 1_555
C5_4 C7_4 1_555 1_555
C8_4 C13_4 1_555 1_555
C11_4 C12_4 1_555 1_555
C12_4 C14_4 1_555 1_555
O2_4 H13_2 1_555 1_555
O2_4 H14_2 1_555 1_555
O3_2 H15_2 1_555 1_555
O3_2 H16_2 1_555 1_555
O6_4 H17_3 1_555 1_555
O6_4 H18_3 1_555 1_555
O5_4 H19_4 1_555 1_555
O5_4 H20_4 1_555 1_555
O7_4 H21_4 1_555 1_555
O7_4 H22_4 1_555 1_555
Sm4 O1_5 1_555 1_555
O1_5 H1_5 1_555 1_555
H2_5 O1_5 1_555 1_555
O2_5 Sm4 1_555 1_555
O9_5 Sm4 1_555 1_555
O17_4 C6_5 1_555 1_555
N1_5 Sm4 1_555 1_555
C1_5 N1_5 1_555 1_555
C2_5 C1_5 1_555 1_555
H7_5 C2_5 1_555 1_555
C3_5 C2_5 1_555 1_555
H8_5 C3_5 1_555 1_555
C6_5 O9_5 1_555 1_555
C1_5 C6_5 1_555 1_555
H3_5 O4_5 1_555 1_555
H4_5 O4_5 1_555 1_555
H9_5 C4_5 1_555 1_555
C7_5 O11_5 1_555 1_555
C4_5 C5_5 1_555 1_555
C5_5 C7_5 1_555 1_555
Sm5_4 O5_5 1_555 1_555
O6_5 Sm5_4 1_555 1_555
O7_5 Sm5_4 1_555 1_555
O8_5 Sm5_4 1_555 1_555
H5_5 O8_5 1_555 1_555
H6_5 O8_5 1_555 1_555
O12_5 Sm5_4 1_555 1_555
O13_5 Sm5_4 1_555 1_555
O15_5 Sm5_4 1_555 1_555
O16_3 C14_5 1_555 1_555
C14_5 O15_5 1_555 1_555
Sm4_2 O16_3 1_555 1_555
O7_5 H21_5 1_555 1_555
O7_5 H22_5 1_555 1_555
O18 C13_5 1_555 1_555
C8_5 N2_5 1_555 1_555
C9_5 C8_5 1_555 1_555
H10_5 C9_5 1_555 1_555
C10_5 C9_5 1_555 1_555
H11_5 C10_5 1_555 1_555
C11_5 C10_5 1_555 1_555
H12_5 C11_5 1_555 1_555
C12_5 N2_5 1_555 1_555
C8_5 C13_5 1_555 1_555
C11_5 C12_5 1_555 1_555
Sm5_3 O5_6 1_555 1_555
O6_6 Sm5_3 1_555 1_555
O7_6 Sm5_3 1_555 1_555
O8_6 Sm5_3 1_555 1_555
H5_6 O8_6 1_555 1_555
H6_6 O8_6 1_555 1_555
O12_6 Sm5_3 1_555 1_555
O13_6 Sm5_3 1_555 1_555
O15_6 Sm5_3 1_555 1_555
O19_3 C14_6 1_555 1_555
C14_6 O15_6 1_555 1_555
O6_6 H17_4 1_555 1_555
O6_6 H18_4 1_555 1_555
O7_6 H21_6 1_555 1_555
O7_6 H22_6 1_555 1_555
O18_2 C13_6 1_555 1_555
C8_6 N2_6 1_555 1_555
C9_6 C8_6 1_555 1_555
H10_6 C9_6 1_555 1_555
C10_6 C9_6 1_555 1_555
H11_6 C10_6 1_555 1_555
C11_6 C10_6 1_555 1_555
H12_6 C11_6 1_555 1_555
C12_6 N2_6 1_555 1_555
C8_6 C13_6 1_555 1_555
C11_6 C12_6 1_555 1_555
Sm4_2 O1_6 1_555 1_555
O1_6 H1_6 1_555 1_555
H2_6 O1_6 1_555 1_555
O2_6 Sm4_2 1_555 1_555
O4_6 Sm4_2 1_555 1_555
H3_6 O4_6 1_555 1_555
H4_6 O4_6 1_555 1_555
O9_6 Sm4_2 1_555 1_555
O17_3 C6_6 1_555 1_555
O11_6 Sm4_2 1_555 1_555
N1_6 Sm4_2 1_555 1_555
C1_6 N1_6 1_555 1_555
C2_6 C1_6 1_555 1_555
H7_6 C2_6 1_555 1_555
C3_6 C2_6 1_555 1_555
H8_6 C3_6 1_555 1_555
C4_6 C3_6 1_555 1_555
H9_6 C4_6 1_555 1_555
C5_6 N1_6 1_555 1_555
C6_6 O9_6 1_555 1_555
C7_6 O11_6 1_555 1_555
C1_6 C6_6 1_555 1_555
C4_6 C5_6 1_555 1_555
C5_6 C7_6 1_555 1_555
Sm4_3 O1_7 1_555 1_555
O1_7 H1_7 1_555 1_555
H2_7 O1_7 1_555 1_555
O2_7 Sm4_3 1_555 1_555
O9_7 Sm4_3 1_555 1_555
O17_2 C6_7 1_555 1_555
N1_7 Sm4_3 1_555 1_555
C1_7 N1_7 1_555 1_555
C2_7 C1_7 1_555 1_555
H7_7 C2_7 1_555 1_555
C3_7 C2_7 1_555 1_555
H8_7 C3_7 1_555 1_555
C6_7 O9_7 1_555 1_555
C1_7 C6_7 1_555 1_555
O2_7 H13_3 1_555 1_555
O2_7 H14_3 1_555 1_555
Sm5_2 O5_7 1_555 1_555
H3_7 O4_7 1_555 1_555
H4_7 O4_7 1_555 1_555
O6_7 Sm5_2 1_555 1_555
O7_7 Sm5_2 1_555 1_555
O8_7 Sm5_2 1_555 1_555
H5_7 O8_7 1_555 1_555
H6_7 O8_7 1_555 1_555
O12_7 Sm5_2 1_555 1_555
O13_7 Sm5_2 1_555 1_555
O18_3 C13_7 1_555 1_555
O15_7 Sm5_2 1_555 1_555
O16_4 C14_7 1_555 1_555
N2_7 Sm5_2 1_555 1_555
H9_7 C4_7 1_555 1_555
C7_7 O11_7 1_555 1_555
C8_7 N2_7 1_555 1_555
C9_7 C8_7 1_555 1_555
H10_7 C9_7 1_555 1_555
C10_7 C9_7 1_555 1_555
H11_7 C10_7 1_555 1_555
C11_7 C10_7 1_555 1_555
H12_7 C11_7 1_555 1_555
C12_7 N2_7 1_555 1_555
C13_7 O13_7 1_555 1_555
C14_7 O15_7 1_555 1_555
Sm4_4 O16_4 1_555 1_555
O12_7 C7_7 1_555 1_555
C4_7 C5_7 1_555 1_555
C5_7 C7_7 1_555 1_555
C8_7 C13_7 1_555 1_555
C11_7 C12_7 1_555 1_555
C12_7 C14_7 1_555 1_555
O3_3 H15_3 1_555 1_555
O3_3 H16_3 1_555 1_555
O5_7 H19_7 1_555 1_555
O5_7 H20_7 1_555 1_555
O7_7 H21_7 1_555 1_555
O7_7 H22_7 1_555 1_555
Sm4_4 O1_8 1_555 1_555
Sm5 O5_8 1_555 1_555
O1_8 H1_8 1_555 1_555
H2_8 O1_8 1_555 1_555
O2_8 Sm4_4 1_555 1_555
O3_4 Sm4_4 1_555 1_555
O4_8 Sm4_4 1_555 1_555
H3_8 O4_8 1_555 1_555
H4_8 O4_8 1_555 1_555
O6_8 Sm5 1_555 1_555
O7_8 Sm5 1_555 1_555
O8_8 Sm5 1_555 1_555
H5_8 O8_8 1_555 1_555
H6_8 O8_8 1_555 1_555
O9_8 Sm4_4 1_555 1_555
O17 C6_8 1_555 1_555
O11_8 Sm4_4 1_555 1_555
O12_8 Sm5 1_555 1_555
O13_8 Sm5 1_555 1_555
O18_4 C13_8 1_555 1_555
O15_8 Sm5 1_555 1_555
O19_4 C14_8 1_555 1_555
N1_8 Sm4_4 1_555 1_555
N2_8 Sm5 1_555 1_555
C1_8 N1_8 1_555 1_555
C2_8 C1_8 1_555 1_555
H7_8 C2_8 1_555 1_555
C3_8 C2_8 1_555 1_555
H8_8 C3_8 1_555 1_555
C4_8 C3_8 1_555 1_555
H9_8 C4_8 1_555 1_555
C5_8 N1_8 1_555 1_555
C6_8 O9_8 1_555 1_555
C7_8 O11_8 1_555 1_555
C8_8 N2_8 1_555 1_555
C9_8 C8_8 1_555 1_555
H10_8 C9_8 1_555 1_555
C10_8 C9_8 1_555 1_555
H11_8 C10_8 1_555 1_555
C11_8 C10_8 1_555 1_555
H12_8 C11_8 1_555 1_555
C12_8 N2_8 1_555 1_555
C13_8 O13_8 1_555 1_555
C14_8 O15_8 1_555 1_555
O12_8 C7_8 1_555 1_555
C1_8 C6_8 1_555 1_555
C4_8 C5_8 1_555 1_555
C5_8 C7_8 1_555 1_555
C8_8 C13_8 1_555 1_555
C11_8 C12_8 1_555 1_555
C12_8 C14_8 1_555 1_555
O2_8 H13_4 1_555 1_555
O2_8 H14_4 1_555 1_555
O3_4 H15_4 1_555 1_555
O3_4 H16_4 1_555 1_555
O6_8 H17_6 1_555 1_555
O6_8 H18_6 1_555 1_555
O5_8 H19_8 1_555 1_555
O5_8 H20_8 1_555 1_555
O7_8 H21_8 1_555 1_555
O7_8 H22_8 1_555 1_555
O3_5 H15_5 1_555 1_555
O3_5 H16_5 1_555 1_555
O3_6 H15_6 1_555 1_555
O3_6 H16_6 1_555 1_555
O3_7 H15_7 1_555 1_555
O3_7 H16_7 1_555 1_555
O3_8 H15_8 1_555 1_555
O3_8 H16_8 1_555 1_555

#END
