
###############################################################################
#
# This file contains modified crystal structure data generated from the
# MOF subset of the Cambridge Structural Database (CSD) v543 
# hosted by the Cambridge Crystallographic Data Centre (CCDC).
#
# This work is licensed under the Creative Commons
# Attribution-NonCommercial-ShareAlike 4.0 International License.
# To view a copy of this license, visit
# http://creativecommons.org/licenses/by-nc-sa/4.0/
# or send a letter to
# Creative Commons, PO Box 1866, Mountain View, CA 94042, USA.
#
# CIF created using the CSD Python API on 29 September 2022
# The structure has been converted into the P1 space group
# The structure has a 3D framework
# The original CSD entry LIBZIG is in the monoclinic crystal system
# The framework has been calculated to contain at least 10.0% void space
# The void calculation uses a probe of radius 1.32A, grid spacing 0.4
#
###############################################################################

data_LIBZIG
_chemical_formula_moiety         '(C48 H56 O64 Tb8)n'
_symmetry_cell_setting           triclinic
_symmetry_space_group_name_H-M   'P 1'
_symmetry_Int_Tables_number      1
_space_group_name_Hall           'P 1'
loop_
_symmetry_equiv_pos_site_id
_symmetry_equiv_pos_as_xyz
1 x,y,z
_cell_length_a                   16.422(7)
_cell_length_b                   18.079(9)
_cell_length_c                   9.631(3)
_cell_angle_alpha                90
_cell_angle_beta                 96.71(2)
_cell_angle_gamma                90
_cell_volume                     2839.79
loop_
_atom_site_label
_atom_site_type_symbol
_atom_site_fract_x
_atom_site_fract_y
_atom_site_fract_z
Tb1 Tb 0.249656(9) 0.513399(10) 0.532361(16)
O1 O 0.1979(2) 0.39360(17) 0.6023(3)
O2 O 0.2915(2) 0.38392(18) 0.4586(3)
O3 O 0.17932(18) 0.48211(16) 0.3139(3)
O4 O 0.11733(17) 0.4629(2) 0.1016(3)
O5 O 0.37118(18) 0.5345(2) 0.4357(3)
O6 O 0.3464(2) 0.5227(2) 0.2084(4)
O7 O 0.2183(2) 0.62429(19) 0.3923(3)
H1 H 0.1824 0.6497 0.4280
H2 H 0.1998 0.6120 0.3094
O8 O 0.2793(2) 0.6243(2) 0.6683(3)
H3 H 0.2719 0.6161 0.7529
H4 H 0.2476 0.6588 0.6356
C1 C 0.2425(3) 0.3550(3) 0.5333(4)
C2 C 0.2349(3) 0.2732(3) 0.5425(5)
H5 H 0.2071 0.2538 0.6130
C3 C 0.1155(2) 0.4720(2) 0.2303(4)
C4 C 0.0356(2) 0.4703(2) 0.2891(4)
H6 H 0.0360 0.4692 0.3858
C5 C 0.3937(2) 0.5284(2) 0.3161(4)
C6 C 0.4842(2) 0.5294(3) 0.3090(4)
H7 H 0.5193 0.5301 0.3921
Tb3 Tb 0.249656(9) 0.486601(10) 0.032361(16)
Tb7 Tb 0.750344(9) 0.486601(10) 0.467639(16)
O9 O 0.3021(2) 0.10640(17) 0.3977(3)
O10 O 0.2085(2) 0.11608(18) 0.5414(3)
O12 O 0.32068(18) 0.01789(16) 0.6861(3)
O14 O 0.11733(17) 0.5371(2) 0.6016(3)
O16 O 0.62882(18) 0.5345(2) 0.0643(3)
O18 O 0.6536(2) 0.5227(2) 0.2916(4)
O19 O 0.3464(2) 0.4773(2) 0.7084(4)
O20 O 0.1536(2) 0.0227(2) 0.2916(4)
C7 C 0.2575(3) 0.1450(3) 0.4667(4)
C8 C 0.2651(3) 0.2268(3) 0.4575(5)
H12 H 0.2929 0.2462 0.3870
C11 C 0.6063(2) 0.5284(2) 0.1839(4)
C12 C 0.5158(2) 0.5294(3) 0.1910(4)
H14 H 0.4807 0.5301 0.1079
Tb6 Tb 0.750344(9) 0.513399(10) 0.967639(16)
Tb2 Tb 0.250344(9) 0.986601(10) 0.467639(16)
O15 O 0.38267(17) 0.9629(2) 0.3984(3)
O17 O 0.12882(18) 0.9655(2) 0.5643(3)
O21 O 0.2817(2) 0.87571(19) 0.6077(3)
H8 H 0.3176 0.8503 0.5720
H9 H 0.3002 0.8880 0.6906
O22 O 0.2207(2) 0.8757(2) 0.3317(3)
H10 H 0.2281 0.8839 0.2471
H11 H 0.2524 0.8412 0.3644
O11 O 0.82068(18) 0.48211(16) 0.1861(3)
O13 O 0.88267(17) 0.4629(2) 0.3984(3)
C9 C 0.8845(2) 0.4720(2) 0.2697(4)
C10 C 0.9644(2) 0.4703(2) 0.2109(4)
H13 H 0.9640 0.4692 0.1142
H7_2 H 0.0193 0.0301 0.3921
O16_2 O 0.12882(18) 0.0345(2) 0.0643(3)
C11_2 C 0.1063(2) 0.0284(2) 0.1839(4)
C12_2 C 0.0158(2) 0.0294(3) 0.1910(4)
Tb6_2 Tb 0.250344(9) 0.013399(10) 0.967639(16)
Tb1_2 Tb 0.749656(9) 0.013399(10) 0.532361(16)
O5_2 O 0.87118(18) 0.0345(2) 0.4357(3)
O6_2 O 0.8464(2) 0.0227(2) 0.2084(4)
O7_2 O 0.7183(2) 0.12429(19) 0.3923(3)
H1_2 H 0.6824 0.1497 0.4280
H2_2 H 0.6998 0.1120 0.3094
O8_2 O 0.7793(2) 0.1243(2) 0.6683(3)
H3_2 H 0.7719 0.1161 0.7529
H4_2 H 0.7476 0.1588 0.6356
C5_2 C 0.8937(2) 0.0284(2) 0.3161(4)
C6_2 C 0.9842(2) 0.0294(3) 0.3090(4)
O14_2 O 0.61733(17) 0.0371(2) 0.6016(3)
H14_2 H 0.9807 0.0301 0.1079
O1_2 O 0.6979(2) 0.89360(17) 0.6023(3)
O2_2 O 0.7915(2) 0.88392(18) 0.4586(3)
O3_2 O 0.67932(18) 0.98211(16) 0.3139(3)
O4_2 O 0.61733(17) 0.9629(2) 0.1016(3)
C1_2 C 0.7425(3) 0.8550(3) 0.5333(4)
C2_2 C 0.7349(3) 0.7732(3) 0.5425(5)
H5_2 H 0.7071 0.7538 0.6130
C3_2 C 0.6155(2) 0.9720(2) 0.2303(4)
C4_2 C 0.5356(2) 0.9703(2) 0.2891(4)
H6_2 H 0.5360 0.9692 0.3858
Tb3_2 Tb 0.749656(9) 0.986601(10) 0.032361(16)
O9_2 O 0.8021(2) 0.60640(17) 0.3977(3)
O10_2 O 0.7085(2) 0.61608(18) 0.5414(3)
O11_2 O 0.32068(18) 0.98211(16) 0.1861(3)
O12_2 O 0.82068(18) 0.51789(16) 0.6861(3)
O17_2 O 0.62882(18) 0.4655(2) 0.5643(3)
O19_2 O 0.8464(2) 0.9773(2) 0.7084(4)
O21_2 O 0.7817(2) 0.37571(19) 0.6077(3)
H8_2 H 0.8176 0.3503 0.5720
H9_2 H 0.8002 0.3880 0.6906
O22_2 O 0.7207(2) 0.3757(2) 0.3317(3)
H10_2 H 0.7281 0.3839 0.2471
H11_2 H 0.7524 0.3412 0.3644
C7_2 C 0.7575(3) 0.6450(3) 0.4667(4)
C8_2 C 0.7651(3) 0.7268(3) 0.4575(5)
H12_2 H 0.7929 0.7462 0.3870
C9_2 C 0.3845(2) 0.9720(2) 0.2697(4)
C10_2 C 0.4644(2) 0.9703(2) 0.2109(4)
H13_2 H 0.4640 0.9692 0.1142
O2_3 O 0.7085(2) 0.38392(18) 0.0414(3)
O7_3 O 0.7817(2) 0.62429(19) 0.1077(3)
H1_3 H 0.8176 0.6497 0.0720
H2_3 H 0.8002 0.6120 0.1906
O9_3 O 0.6979(2) 0.10640(17) 0.1023(3)
C7_3 C 0.7425(3) 0.1450(3) 0.0333(4)
C8_3 C 0.7349(3) 0.2268(3) 0.0425(5)
H12_3 H 0.7071 0.2462 0.1130
O1_3 O 0.8021(2) 0.39360(17) 0.8977(3)
O8_3 O 0.7207(2) 0.6243(2) 0.8317(3)
H3_3 H 0.7281 0.6161 0.7471
H4_3 H 0.7524 0.6588 0.8644
C1_3 C 0.7575(3) 0.3550(3) 0.9667(4)
C2_3 C 0.7651(3) 0.2732(3) 0.9575(5)
H5_3 H 0.7929 0.2538 0.8870
O10_3 O 0.7915(2) 0.11608(18) 0.9586(3)
O12_3 O 0.67932(18) 0.01789(16) 0.8139(3)
O14_3 O 0.88267(17) 0.5371(2) 0.8984(3)
O19_3 O 0.6536(2) 0.4773(2) 0.7916(4)
O22_3 O 0.7793(2) 0.8757(2) 0.1683(3)
H10_3 H 0.7719 0.8839 0.2529
H11_3 H 0.7476 0.8412 0.1356
O17_3 O 0.87118(18) 0.9655(2) 0.9357(3)
O21_3 O 0.7183(2) 0.87571(19) 0.8923(3)
H8_3 H 0.6824 0.8503 0.9280
H9_3 H 0.6998 0.8880 0.8094
O7_4 O 0.2817(2) 0.12429(19) 0.1077(3)
H1_4 H 0.3176 0.1497 0.0720
H2_4 H 0.3002 0.1120 0.1906
O8_4 O 0.2207(2) 0.1243(2) 0.8317(3)
H3_4 H 0.2281 0.1161 0.7471
H4_4 H 0.2524 0.1588 0.8644
O14_4 O 0.38267(17) 0.0371(2) 0.8984(3)
O2_4 O 0.2085(2) 0.88392(18) 0.0414(3)
O9_4 O 0.1979(2) 0.60640(17) 0.1023(3)
O22_4 O 0.2793(2) 0.3757(2) 0.1683(3)
H10_4 H 0.2719 0.3839 0.2529
H11_4 H 0.2476 0.3412 0.1356
C7_4 C 0.2425(3) 0.6450(3) 0.0333(4)
C8_4 C 0.2349(3) 0.7268(3) 0.0425(5)
H12_4 H 0.2071 0.7462 0.1130
O1_4 O 0.3021(2) 0.89360(17) 0.8977(3)
C1_4 C 0.2575(3) 0.8550(3) 0.9667(4)
C2_4 C 0.2651(3) 0.7732(3) 0.9575(5)
H5_4 H 0.2929 0.7538 0.8870
O10_4 O 0.2915(2) 0.61608(18) 0.9586(3)
O12_4 O 0.17932(18) 0.51789(16) 0.8139(3)
O17_4 O 0.37118(18) 0.4655(2) 0.9357(3)
O19_4 O 0.1536(2) 0.9773(2) 0.7916(4)
O21_4 O 0.2183(2) 0.37571(19) 0.8923(3)
H8_4 H 0.1824 0.3503 0.9280
H9_4 H 0.1998 0.3880 0.8094
C9_3 C 0.1155(2) 0.5280(2) 0.7303(4)
C10_3 C 0.0356(2) 0.5297(2) 0.7891(4)
H13_3 H 0.0360 0.5308 0.8858
C3_3 C 0.8845(2) 0.5280(2) 0.7697(4)
C4_3 C 0.9644(2) 0.5297(2) 0.7109(4)
H6_3 H 0.9640 0.5308 0.6142
C5_3 C 0.6063(2) 0.4716(2) 0.6839(4)
C6_3 C 0.5158(2) 0.4706(3) 0.6910(4)
H7_3 H 0.4807 0.4699 0.6079
C11_3 C 0.3937(2) 0.4716(2) 0.8161(4)
C12_3 C 0.4842(2) 0.4706(3) 0.8090(4)
H14_3 H 0.5193 0.4699 0.8921
C3_4 C 0.3845(2) 0.0280(2) 0.7697(4)
C4_4 C 0.4644(2) 0.0297(2) 0.7109(4)
H6_4 H 0.4640 0.0308 0.6142
C9_4 C 0.6155(2) 0.0280(2) 0.7303(4)
C10_4 C 0.5356(2) 0.0297(2) 0.7891(4)
H13_4 H 0.5360 0.0308 0.8858
C5_4 C 0.1063(2) 0.9716(2) 0.6839(4)
C6_4 C 0.0158(2) 0.9706(3) 0.6910(4)
H14_4 H 0.0193 0.9699 0.8921
H7_4 H 0.9807 0.9699 0.6079
C11_4 C 0.8937(2) 0.9716(2) 0.8161(4)
C12_4 C 0.9842(2) 0.9706(3) 0.8090(4)
loop_
_geom_bond_atom_site_label_1
_geom_bond_atom_site_label_2
_geom_bond_site_symmetry_1
_geom_bond_site_symmetry_2
Tb1 O1 1_555 1_555
O1 C1 1_555 1_555
O2 Tb1 1_555 1_555
O3 Tb1 1_555 1_555
O4 C3 1_555 1_555
O5 Tb1 1_555 1_555
O6 C5 1_555 1_555
O7 Tb1 1_555 1_555
H1 O7 1_555 1_555
H2 O7 1_555 1_555
O8 Tb1 1_555 1_555
H3 O8 1_555 1_555
H4 O8 1_555 1_555
C1 O2 1_555 1_555
C2 C1 1_555 1_555
H5 C2 1_555 1_555
C3 O3 1_555 1_555
C4 C3 1_555 1_555
H6 C4 1_555 1_555
C5 O5 1_555 1_555
C6 C5 1_555 1_555
H7 C6 1_555 1_555
Tb3 O4 1_555 1_555
Tb7 O18 1_555 1_555
O9 C7 1_555 1_555
O14 Tb1 1_555 1_555
O16 C11 1_555 1_555
O18 C11 1_555 1_555
O19 Tb1 1_555 1_555
C7 O10 1_555 1_555
C8 C2 1_555 1_555
H12 C8 1_555 1_555
C11 C12 1_555 1_555
C12 C6 1_555 1_555
H14 C12 1_555 1_555
O6 Tb3 1_555 1_555
C7 C8 1_555 1_555
O15 Tb2 1_555 1_555
O17 Tb2 1_555 1_555
O21 Tb2 1_555 1_555
H8 O21 1_555 1_555
H9 O21 1_555 1_555
O22 Tb2 1_555 1_555
H10 O22 1_555 1_555
H11 O22 1_555 1_555
Tb7 O13 1_555 1_555
O11 C9 1_555 1_555
O13 C9 1_555 1_555
C9 C10 1_555 1_555
H13 C10 1_555 1_555
O16_2 C11_2 1_555 1_555
O20 C11_2 1_555 1_555
C11_2 C12_2 1_555 1_555
O5_2 Tb1_2 1_555 1_555
O6_2 C5_2 1_555 1_555
O7_2 Tb1_2 1_555 1_555
H1_2 O7_2 1_555 1_555
H2_2 O7_2 1_555 1_555
O8_2 Tb1_2 1_555 1_555
H3_2 O8_2 1_555 1_555
H4_2 O8_2 1_555 1_555
C5_2 O5_2 1_555 1_555
C6_2 C5_2 1_555 1_555
O14_2 Tb1_2 1_555 1_555
O1_2 C1_2 1_555 1_555
O4_2 C3_2 1_555 1_555
C1_2 O2_2 1_555 1_555
C2_2 C1_2 1_555 1_555
H5_2 C2_2 1_555 1_555
C3_2 O3_2 1_555 1_555
C4_2 C3_2 1_555 1_555
H6_2 C4_2 1_555 1_555
Tb7 O9_2 1_555 1_555
Tb3_2 O4_2 1_555 1_555
O9_2 C7_2 1_555 1_555
O10_2 Tb7 1_555 1_555
O11_2 C9_2 1_555 1_555
O12_2 Tb7 1_555 1_555
O15 C9_2 1_555 1_555
O17_2 Tb7 1_555 1_555
O21_2 Tb7 1_555 1_555
H8_2 O21_2 1_555 1_555
H9_2 O21_2 1_555 1_555
O22_2 Tb7 1_555 1_555
H10_2 O22_2 1_555 1_555
H11_2 O22_2 1_555 1_555
C7_2 O10_2 1_555 1_555
C8_2 C2_2 1_555 1_555
H12_2 C8_2 1_555 1_555
C9_2 C10_2 1_555 1_555
C10_2 C4_2 1_555 1_555
H13_2 C10_2 1_555 1_555
C7_2 C8_2 1_555 1_555
H1_3 O7_3 1_555 1_555
H2_3 O7_3 1_555 1_555
O9_3 C7_3 1_555 1_555
H12_3 C8_3 1_555 1_555
C7_3 C8_3 1_555 1_555
Tb6 O1_3 1_555 1_555
O1_3 C1_3 1_555 1_555
O8_3 Tb6 1_555 1_555
H3_3 O8_3 1_555 1_555
H4_3 O8_3 1_555 1_555
C2_3 C1_3 1_555 1_555
H5_3 C2_3 1_555 1_555
O14_3 Tb6 1_555 1_555
O19_3 Tb6 1_555 1_555
O22_3 Tb3_2 1_555 1_555
H10_3 O22_3 1_555 1_555
H11_3 O22_3 1_555 1_555
H8_3 O21_3 1_555 1_555
H9_3 O21_3 1_555 1_555
H1_4 O7_4 1_555 1_555
H2_4 O7_4 1_555 1_555
O8_4 Tb6_2 1_555 1_555
H3_4 O8_4 1_555 1_555
H4_4 O8_4 1_555 1_555
O14_4 Tb6_2 1_555 1_555
Tb3 O9_4 1_555 1_555
O9_4 C7_4 1_555 1_555
O22_4 Tb3 1_555 1_555
H10_4 O22_4 1_555 1_555
H11_4 O22_4 1_555 1_555
H12_4 C8_4 1_555 1_555
C7_4 C8_4 1_555 1_555
O1_4 C1_4 1_555 1_555
C2_4 C1_4 1_555 1_555
H5_4 C2_4 1_555 1_555
H8_4 O21_4 1_555 1_555
H9_4 O21_4 1_555 1_555
O12_4 C9_3 1_555 1_555
O14 C9_3 1_555 1_555
C9_3 C10_3 1_555 1_555
H13_3 C10_3 1_555 1_555
O14_3 C3_3 1_555 1_555
O19_3 C5_3 1_555 1_555
C3_3 O12_2 1_555 1_555
C4_3 C3_3 1_555 1_555
H6_3 C4_3 1_555 1_555
C5_3 O17_2 1_555 1_555
C6_3 C5_3 1_555 1_555
H7_3 C6_3 1_555 1_555
O17_4 C11_3 1_555 1_555
O19 C11_3 1_555 1_555
C11_3 C12_3 1_555 1_555
C12_3 C6_3 1_555 1_555
H14_3 C12_3 1_555 1_555
O14_4 C3_4 1_555 1_555
C3_4 O12 1_555 1_555
C4_4 C3_4 1_555 1_555
H6_4 C4_4 1_555 1_555
O12_3 C9_4 1_555 1_555
O14_2 C9_4 1_555 1_555
C9_4 C10_4 1_555 1_555
C10_4 C4_4 1_555 1_555
H13_4 C10_4 1_555 1_555
O19_4 C5_4 1_555 1_555
C5_4 O17 1_555 1_555
C6_4 C5_4 1_555 1_555
O17_3 C11_4 1_555 1_555
O19_2 C11_4 1_555 1_555
C11_4 C12_4 1_555 1_555

#END
