
###############################################################################
#
# This file contains modified crystal structure data generated from the
# MOF subset of the Cambridge Structural Database (CSD) v543 
# hosted by the Cambridge Crystallographic Data Centre (CCDC).
#
# This work is licensed under the Creative Commons
# Attribution-NonCommercial-ShareAlike 4.0 International License.
# To view a copy of this license, visit
# http://creativecommons.org/licenses/by-nc-sa/4.0/
# or send a letter to
# Creative Commons, PO Box 1866, Mountain View, CA 94042, USA.
#
# CIF created using the CSD Python API on 29 September 2022
# The structure has been converted into the P1 space group
# The structure has a 3D framework
# The original CSD entry LICKAL is in the monoclinic crystal system
# The framework has been calculated to contain at least 10.0% void space
# The void calculation uses a probe of radius 1.32A, grid spacing 0.4
# The framework is charged, counterions have been retained in the structure
#
###############################################################################

data_LICKAL
_chemical_formula_moiety         '(C56 H60 N8 O52 P16 Zn12 2-)n'
_symmetry_cell_setting           triclinic
_symmetry_space_group_name_H-M   'P 1'
_symmetry_Int_Tables_number      1
_space_group_name_Hall           'P 1'
loop_
_symmetry_equiv_pos_site_id
_symmetry_equiv_pos_as_xyz
1 x,y,z
_cell_length_a                   9.655(3)
_cell_length_b                   9.344(3)
_cell_length_c                   30.965(9)
_cell_angle_alpha                90
_cell_angle_beta                 93.859(5)
_cell_angle_gamma                90
_cell_volume                     2787.21
loop_
_atom_site_label
_atom_site_type_symbol
_atom_site_fract_x
_atom_site_fract_y
_atom_site_fract_z
C5 C 0.0704(6) 0.1339(6) 0.3088(2)
H7 H 0.1281 0.2104 0.3169
N1 N 0.0367(4) 0.8882(5) 0.29854(15)
H3 H 0.0695 0.8027 0.2996
C6 C 0.1207(6) 0.9974(7) 0.3093(2)
H8 H 0.2140 0.9805 0.3171
Zn1 Zn 0.53047(6) 0.28510(6) 0.140955(18)
Zn2 Zn 0.70144(6) 0.54825(6) 0.038172(18)
Zn3 Zn 0.44079(6) 0.31141(6) 0.307644(17)
P1 P 0.46114(12) 0.12142(12) 0.22151(4)
P2 P 0.74526(12) 0.07250(12) 0.18290(4)
P3 P 0.41330(12) 0.37673(12) 0.05168(4)
P4 P 0.51896(12) 0.61306(12) 0.11199(4)
O1 O 0.4084(4) 0.2157(4) 0.18378(11)
O2 O 0.4015(3) 0.1691(4) 0.26313(11)
O4 O 0.6757(4) 0.1436(4) 0.14249(11)
O6 O 0.8957(3) 0.1149(4) 0.19106(12)
O7 O 0.6904(4) 0.2878(4) 0.22954(12)
H1 H 0.6485 0.3304 0.2478
O8 O 0.4133(4) 0.2623(4) 0.08650(11)
O9 O 0.5565(4) 0.3957(4) 0.03404(11)
O10 O 0.3021(4) 0.3473(4) 0.01562(11)
O11 O 0.4672(4) 0.7357(4) 0.13919(10)
O12 O 0.5719(4) 0.4878(4) 0.13949(12)
O13 O 0.6258(4) 0.6688(4) 0.08224(11)
O14 O 0.3258(4) 0.6540(4) 0.04550(11)
H2 H 0.3618 0.6361 0.0229
C1 C 0.6518(5) 0.1395(5) 0.22925(14)
C2 C 0.6936(5) 0.0618(6) 0.27236(15)
H4 H 0.6537 0.1142 0.2955
C3 C 0.8455(5) 0.0428(5) 0.28431(15)
C4 C 0.9325(6) 0.1565(6) 0.29615(18)
H6 H 0.8973 0.2492 0.2956
C8 C 0.3676(5) 0.5474(5) 0.07770(15)
C9 C 0.2450(5) 0.5319(6) 0.10713(15)
H10 H 0.2808 0.4859 0.1337
H11 H 0.2168 0.6276 0.1148
C10 C 0.1149(5) 0.4516(5) 0.09123(15)
C11 C 0.0962(6) 0.3095(6) 0.10302(19)
H12 H 0.1677 0.2609 0.1184
C14 C 0.0035(5) 0.5184(6) 0.06961(17)
H15 H 0.0132 0.6136 0.0616
Zn7 Zn 0.55921(6) 0.81141(6) 0.192356(17)
O15 O 0.5683(3) 0.4616(3) 0.28705(11)
O16 O 0.2718(4) 0.4101(4) 0.31846(12)
O18 O 0.5328(4) 0.2357(4) 0.36081(10)
N3 N 0.8806(4) 0.4527(5) 0.05946(14)
Zn5 Zn 0.29856(6) 0.45175(6) 0.961828(18)
O17 O 0.6979(4) 0.6527(4) 0.98438(11)
O3 O 0.4317(3) 0.9616(3) 0.21295(11)
O5 O 0.7282(4) 0.9101(4) 0.18154(12)
H5 H 0.6509 0.9678 0.2712
C7 C 0.9031(5) 0.9079(5) 0.28619(16)
H9 H 0.8478 0.8290 0.2787
C12 C 0.9727(6) 0.2399(6) 0.0922(2)
H13 H 0.9610 0.1442 0.0993
C13 C 0.8669(6) 0.3157(6) 0.0705(2)
H14 H 0.7830 0.2697 0.0634
Zn4 Zn 0.29856(6) 0.04825(6) 0.461828(18)
N2 N 0.1194(4) 0.9527(5) 0.44054(14)
C12_2 C 0.0273(6) 0.7399(6) 0.4078(2)
H13_2 H 0.0390 0.6442 0.4007
C13_2 C 0.1331(6) 0.8157(6) 0.4295(2)
H14_2 H 0.2170 0.7697 0.4366
P4_2 P 0.48104(12) 0.11306(12) 0.38801(4)
O13_2 O 0.3742(4) 0.1688(4) 0.41776(11)
O14_2 O 0.6742(4) 0.1540(4) 0.45450(11)
H2_2 H 0.6382 0.1361 0.4771
C8_2 C 0.6324(5) 0.0474(5) 0.42230(15)
C9_2 C 0.7550(5) 0.0319(6) 0.39287(15)
H11_2 H 0.7832 0.1276 0.3852
C14_2 C 0.9965(5) 0.0184(6) 0.43039(17)
H15_2 H 0.9868 0.1136 0.4384
O17_2 O 0.3021(4) 0.1527(4) 0.51562(11)
Zn1_2 Zn 0.46953(6) 0.78510(6) 0.359045(18)
P1_2 P 0.53886(12) 0.62142(12) 0.27849(4)
P2_2 P 0.25474(12) 0.57250(12) 0.31710(4)
P3_2 P 0.58670(12) 0.87673(12) 0.44832(4)
O1_2 O 0.5916(4) 0.7157(4) 0.31622(11)
O2_2 O 0.5985(3) 0.6691(4) 0.23687(11)
O4_2 O 0.3243(4) 0.6436(4) 0.35751(11)
O6_2 O 0.1043(3) 0.6149(4) 0.30894(12)
O7_2 O 0.3096(4) 0.7878(4) 0.27046(12)
H1_2 H 0.3515 0.8304 0.2522
O8_2 O 0.5867(4) 0.7623(4) 0.41350(11)
O9_2 O 0.4435(4) 0.8957(4) 0.46596(11)
O10_2 O 0.6979(4) 0.8473(4) 0.48438(11)
O12_2 O 0.4281(4) 0.9878(4) 0.36051(12)
C1_2 C 0.3482(5) 0.6395(5) 0.27075(14)
C2_2 C 0.3064(5) 0.5618(6) 0.22764(15)
H4_2 H 0.3463 0.6142 0.2045
H5_2 H 0.3491 0.4678 0.2288
C3_2 C 0.1545(5) 0.5428(5) 0.21569(15)
C4_2 C 0.0675(6) 0.6565(6) 0.20385(18)
H6_2 H 0.1027 0.7492 0.2044
C7_2 C 0.0969(5) 0.4079(5) 0.21381(16)
H9_2 H 0.1522 0.3290 0.2213
H10_2 H 0.7192 0.9859 0.3663
C10_2 C 0.8851(5) 0.9516(5) 0.40877(15)
C11_2 C 0.9038(6) 0.8095(6) 0.39698(19)
H12_2 H 0.8323 0.7609 0.3816
Zn5_2 Zn 0.70144(6) 0.95175(6) 0.538172(18)
N2_2 N 0.1194(4) 0.5473(5) 0.94054(14)
C12_3 C 0.0273(6) 0.7601(6) 0.9078(2)
H13_3 H 0.0390 0.8558 0.9007
C13_3 C 0.1331(6) 0.6843(6) 0.9295(2)
H14_3 H 0.2170 0.7303 0.9366
O3_2 O 0.5683(3) 0.0384(3) 0.78705(11)
O5_2 O 0.2718(4) 0.0899(4) 0.81846(12)
H5_3 H 0.3491 0.0322 0.7288
C7_3 C 0.0969(5) 0.0921(5) 0.71381(16)
H9_3 H 0.1522 0.1710 0.7213
Zn6 Zn 0.44079(6) 0.18859(6) 0.807644(17)
Zn1_3 Zn 0.46953(6) 0.71490(6) 0.859045(18)
Zn3_2 Zn 0.55921(6) 0.68859(6) 0.692356(17)
P1_3 P 0.53886(12) 0.87858(12) 0.77849(4)
P2_3 P 0.25474(12) 0.92750(12) 0.81710(4)
P3_3 P 0.58670(12) 0.62327(12) 0.94832(4)
P4_3 P 0.48104(12) 0.38694(12) 0.88801(4)
O1_3 O 0.5916(4) 0.7843(4) 0.81622(11)
O2_3 O 0.5985(3) 0.8309(4) 0.73687(11)
O4_3 O 0.3243(4) 0.8564(4) 0.85751(11)
O6_3 O 0.1043(3) 0.8851(4) 0.80894(12)
O7_3 O 0.3096(4) 0.7122(4) 0.77046(12)
H1_3 H 0.3515 0.6696 0.7522
O8_3 O 0.5867(4) 0.7377(4) 0.91350(11)
O9_3 O 0.4435(4) 0.6043(4) 0.96596(11)
O11_2 O 0.5328(4) 0.2643(4) 0.86081(10)
O12_3 O 0.4281(4) 0.5122(4) 0.86051(12)
O13_3 O 0.3742(4) 0.3312(4) 0.91776(11)
O14_3 O 0.6742(4) 0.3460(4) 0.95450(11)
H2_3 H 0.6382 0.3639 0.9771
C1_3 C 0.3482(5) 0.8605(5) 0.77075(14)
C2_3 C 0.3064(5) 0.9382(6) 0.72764(15)
H4_3 H 0.3463 0.8858 0.7045
C3_3 C 0.1545(5) 0.9572(5) 0.71569(15)
C4_3 C 0.0675(6) 0.8435(6) 0.70385(18)
H6_3 H 0.1027 0.7508 0.7044
C8_3 C 0.6324(5) 0.4526(5) 0.92230(15)
C9_3 C 0.7550(5) 0.4681(6) 0.89287(15)
H10_3 H 0.7192 0.5141 0.8663
H11_3 H 0.7832 0.3724 0.8852
C10_3 C 0.8851(5) 0.5484(5) 0.90877(15)
C11_3 C 0.9038(6) 0.6905(6) 0.89698(19)
H12_3 H 0.8323 0.7391 0.8816
C14_3 C 0.9965(5) 0.4816(6) 0.93039(17)
H15_3 H 0.9868 0.3864 0.9384
O15_2 O 0.4317(3) 0.5384(3) 0.71295(11)
O16_2 O 0.7282(4) 0.5899(4) 0.68154(12)
O18_2 O 0.4672(4) 0.7643(4) 0.63919(10)
Zn1_4 Zn 0.53047(6) 0.21490(6) 0.640955(18)
P1_4 P 0.46114(12) 0.37858(12) 0.72151(4)
P2_4 P 0.74526(12) 0.42750(12) 0.68290(4)
P3_4 P 0.41330(12) 0.12327(12) 0.55168(4)
O1_4 O 0.4084(4) 0.2843(4) 0.68378(11)
O2_4 O 0.4015(3) 0.3309(4) 0.76313(11)
O4_4 O 0.6757(4) 0.3564(4) 0.64249(11)
O6_4 O 0.8957(3) 0.3851(4) 0.69106(12)
O7_4 O 0.6904(4) 0.2122(4) 0.72954(12)
H1_4 H 0.6485 0.1696 0.7478
O8_4 O 0.4133(4) 0.2377(4) 0.58650(11)
O9_4 O 0.5565(4) 0.1043(4) 0.53404(11)
O12_4 O 0.5719(4) 0.0122(4) 0.63949(12)
C1_4 C 0.6518(5) 0.3605(5) 0.72925(14)
C2_4 C 0.6936(5) 0.4382(6) 0.77236(15)
H4_4 H 0.6537 0.3858 0.7955
H5_4 H 0.6509 0.5322 0.7712
C3_4 C 0.8455(5) 0.4572(5) 0.78431(15)
C4_4 C 0.9325(6) 0.3435(6) 0.79615(18)
H6_4 H 0.8973 0.2508 0.7956
C7_4 C 0.9031(5) 0.5921(5) 0.78619(16)
H9_4 H 0.8478 0.6710 0.7787
H10_4 H 0.2808 0.0141 0.6337
C10_4 C 0.1149(5) 0.0484(5) 0.59123(15)
C11_4 C 0.0962(6) 0.1905(6) 0.60302(19)
H12_4 H 0.1677 0.2391 0.6184
N3_2 N 0.8806(4) 0.0473(5) 0.55946(14)
P4_4 P 0.51896(12) 0.88694(12) 0.61199(4)
O13_4 O 0.6258(4) 0.8312(4) 0.58224(11)
O14_4 O 0.3258(4) 0.8460(4) 0.54550(11)
H2_4 H 0.3618 0.8639 0.5229
C8_4 C 0.3676(5) 0.9526(5) 0.57770(15)
C9_4 C 0.2450(5) 0.9681(6) 0.60713(15)
H11_4 H 0.2168 0.8724 0.6148
C14_4 C 0.0035(5) 0.9816(6) 0.56961(17)
H15_4 H 0.0132 0.8864 0.5616
C12_4 C 0.9727(6) 0.2601(6) 0.5922(2)
H13_4 H 0.9610 0.3558 0.5993
C13_4 C 0.8669(6) 0.1843(6) 0.5705(2)
H14_4 H 0.7830 0.2303 0.5634
N1_2 N 0.9633(4) 0.3882(5) 0.20146(15)
H3_2 H 0.9305 0.3027 0.2004
C5_2 C 0.9296(6) 0.6339(6) 0.1912(2)
H7_2 H 0.8719 0.7104 0.1831
C6_2 C 0.8793(6) 0.4974(7) 0.1907(2)
H8_2 H 0.7860 0.4805 0.1829
N1_3 N 0.9633(4) 0.1118(5) 0.70146(15)
H3_3 H 0.9305 0.1973 0.7004
C6_3 C 0.8793(6) 0.0026(7) 0.6907(2)
H8_3 H 0.7860 0.0195 0.6829
C5_3 C 0.9296(6) 0.8661(6) 0.6912(2)
H7_3 H 0.8719 0.7896 0.6831
N1_4 N 0.0367(4) 0.6118(5) 0.79854(15)
H3_4 H 0.0695 0.6973 0.7996
C5_4 C 0.0704(6) 0.3661(6) 0.8088(2)
H7_4 H 0.1281 0.2896 0.8169
C6_4 C 0.1207(6) 0.5026(7) 0.8093(2)
H8_4 H 0.2140 0.5195 0.8171
loop_
_geom_bond_atom_site_label_1
_geom_bond_atom_site_label_2
_geom_bond_site_symmetry_1
_geom_bond_site_symmetry_2
H7 C5 1_555 1_555
N1 H3 1_555 1_555
C6 N1 1_555 1_555
H8 C6 1_555 1_555
Zn1 O1 1_555 1_555
Zn2 O9 1_555 1_555
Zn3 O2 1_555 1_555
P1 O1 1_555 1_555
P2 O4 1_555 1_555
P3 O8 1_555 1_555
P4 O11 1_555 1_555
O2 P1 1_555 1_555
O4 Zn1 1_555 1_555
O6 P2 1_555 1_555
O7 H1 1_555 1_555
O8 Zn1 1_555 1_555
O9 P3 1_555 1_555
O10 P3 1_555 1_555
O11 Zn7 1_555 1_555
O12 Zn1 1_555 1_555
O13 Zn2 1_555 1_555
O14 H2 1_555 1_555
C1 P1 1_555 1_555
C2 C1 1_555 1_555
H4 C2 1_555 1_555
C3 C2 1_555 1_555
C4 C3 1_555 1_555
H6 C4 1_555 1_555
C8 P3 1_555 1_555
C9 C8 1_555 1_555
H10 C9 1_555 1_555
H11 C9 1_555 1_555
C10 C9 1_555 1_555
C11 C10 1_555 1_555
H12 C11 1_555 1_555
H15 C14 1_555 1_555
O15 Zn3 1_555 1_555
O16 Zn3 1_555 1_555
O18 Zn3 1_555 1_555
N3 Zn2 1_555 1_555
P2 C1 1_555 1_555
P4 O12 1_555 1_555
P4 O13 1_555 1_555
P4 C8 1_555 1_555
O7 C1 1_555 1_555
O14 C8 1_555 1_555
C10 C14 1_555 1_555
H9 C7 1_555 1_555
Zn7 O3 1_555 1_555
O5 Zn7 1_555 1_555
N3 C13 1_555 1_555
H13 C12 1_555 1_555
C13 C12 1_555 1_555
H14 C13 1_555 1_555
N2 C13_2 1_555 1_555
H13_2 C12_2 1_555 1_555
C13_2 C12_2 1_555 1_555
H14_2 C13_2 1_555 1_555
P4_2 O18 1_555 1_555
O13_2 Zn4 1_555 1_555
O14_2 H2_2 1_555 1_555
C9_2 C8_2 1_555 1_555
H11_2 C9_2 1_555 1_555
H15_2 C14_2 1_555 1_555
O17_2 Zn4 1_555 1_555
P4_2 O13_2 1_555 1_555
P4_2 C8_2 1_555 1_555
O14_2 C8_2 1_555 1_555
Zn1_2 O1_2 1_555 1_555
Zn7 O2_2 1_555 1_555
P1_2 O1_2 1_555 1_555
P2_2 O4_2 1_555 1_555
P3_2 O8_2 1_555 1_555
O2_2 P1_2 1_555 1_555
O15 P1_2 1_555 1_555
O4_2 Zn1_2 1_555 1_555
O16 P2_2 1_555 1_555
O6_2 P2_2 1_555 1_555
O7_2 H1_2 1_555 1_555
O8_2 Zn1_2 1_555 1_555
O9_2 P3_2 1_555 1_555
O10_2 P3_2 1_555 1_555
O12_2 Zn1_2 1_555 1_555
C1_2 P1_2 1_555 1_555
C2_2 C1_2 1_555 1_555
H4_2 C2_2 1_555 1_555
H5_2 C2_2 1_555 1_555
C3_2 C2_2 1_555 1_555
C4_2 C3_2 1_555 1_555
H6_2 C4_2 1_555 1_555
H9_2 C7_2 1_555 1_555
C11_2 C10_2 1_555 1_555
H12_2 C11_2 1_555 1_555
Zn5_2 O10_2 1_555 1_555
P2_2 C1_2 1_555 1_555
O7_2 C1_2 1_555 1_555
C3_2 C7_2 1_555 1_555
N2_2 C13_3 1_555 1_555
H13_3 C12_3 1_555 1_555
C13_3 C12_3 1_555 1_555
H14_3 C13_3 1_555 1_555
Zn5 N2_2 1_555 1_555
H9_3 C7_3 1_555 1_555
Zn6 O3_2 1_555 1_555
O5_2 Zn6 1_555 1_555
Zn1_3 O1_3 1_555 1_555
Zn5 O9_3 1_555 1_555
Zn3_2 O2_3 1_555 1_555
P1_3 O1_3 1_555 1_555
P2_3 O4_3 1_555 1_555
P3_3 O8_3 1_555 1_555
P4_3 O11_2 1_555 1_555
O2_3 P1_3 1_555 1_555
O4_3 Zn1_3 1_555 1_555
O6_3 P2_3 1_555 1_555
O7_3 H1_3 1_555 1_555
O8_3 Zn1_3 1_555 1_555
O9_3 P3_3 1_555 1_555
O17 P3_3 1_555 1_555
O11_2 Zn6 1_555 1_555
O12_3 Zn1_3 1_555 1_555
O13_3 Zn5 1_555 1_555
O14_3 H2_3 1_555 1_555
C1_3 P1_3 1_555 1_555
C2_3 C1_3 1_555 1_555
H4_3 C2_3 1_555 1_555
C3_3 C2_3 1_555 1_555
C4_3 C3_3 1_555 1_555
H6_3 C4_3 1_555 1_555
C8_3 P3_3 1_555 1_555
C9_3 C8_3 1_555 1_555
H10_3 C9_3 1_555 1_555
H11_3 C9_3 1_555 1_555
C10_3 C9_3 1_555 1_555
C11_3 C10_3 1_555 1_555
H12_3 C11_3 1_555 1_555
H15_3 C14_3 1_555 1_555
O15_2 Zn3_2 1_555 1_555
O16_2 Zn3_2 1_555 1_555
O18_2 Zn3_2 1_555 1_555
P2_3 C1_3 1_555 1_555
P4_3 O12_3 1_555 1_555
P4_3 O13_3 1_555 1_555
P4_3 C8_3 1_555 1_555
O7_3 C1_3 1_555 1_555
O14_3 C8_3 1_555 1_555
C10_3 C14_3 1_555 1_555
Zn1_4 O1_4 1_555 1_555
Zn6 O2_4 1_555 1_555
P1_4 O1_4 1_555 1_555
P2_4 O4_4 1_555 1_555
P3_4 O8_4 1_555 1_555
O2_4 P1_4 1_555 1_555
O15_2 P1_4 1_555 1_555
O4_4 Zn1_4 1_555 1_555
O16_2 P2_4 1_555 1_555
O6_4 P2_4 1_555 1_555
O7_4 H1_4 1_555 1_555
O8_4 Zn1_4 1_555 1_555
O9_4 P3_4 1_555 1_555
O17_2 P3_4 1_555 1_555
O12_4 Zn1_4 1_555 1_555
C1_4 P1_4 1_555 1_555
C2_4 C1_4 1_555 1_555
H4_4 C2_4 1_555 1_555
H5_4 C2_4 1_555 1_555
C3_4 C2_4 1_555 1_555
C4_4 C3_4 1_555 1_555
H6_4 C4_4 1_555 1_555
H9_4 C7_4 1_555 1_555
C11_4 C10_4 1_555 1_555
H12_4 C11_4 1_555 1_555
P2_4 C1_4 1_555 1_555
O7_4 C1_4 1_555 1_555
C3_4 C7_4 1_555 1_555
P4_4 O18_2 1_555 1_555
O13_4 Zn5_2 1_555 1_555
O14_4 H2_4 1_555 1_555
C9_4 C8_4 1_555 1_555
H11_4 C9_4 1_555 1_555
H15_4 C14_4 1_555 1_555
P4_4 O13_4 1_555 1_555
P4_4 C8_4 1_555 1_555
O14_4 C8_4 1_555 1_555
N3_2 C13_4 1_555 1_555
H13_4 C12_4 1_555 1_555
C13_4 C12_4 1_555 1_555
H14_4 C13_4 1_555 1_555
N1_2 H3_2 1_555 1_555
H7_2 C5_2 1_555 1_555
C6_2 N1_2 1_555 1_555
H8_2 C6_2 1_555 1_555
C5_2 C6_2 1_555 1_555
N1_3 H3_3 1_555 1_555
C6_3 N1_3 1_555 1_555
H8_3 C6_3 1_555 1_555
H7_3 C5_3 1_555 1_555
N1_4 H3_4 1_555 1_555
H7_4 C5_4 1_555 1_555
C6_4 N1_4 1_555 1_555
H8_4 C6_4 1_555 1_555
C5_4 C6_4 1_555 1_555

#END
