
###############################################################################
#
# This file contains modified crystal structure data generated from the
# MOF subset of the Cambridge Structural Database (CSD) v543 
# hosted by the Cambridge Crystallographic Data Centre (CCDC).
#
# This work is licensed under the Creative Commons
# Attribution-NonCommercial-ShareAlike 4.0 International License.
# To view a copy of this license, visit
# http://creativecommons.org/licenses/by-nc-sa/4.0/
# or send a letter to
# Creative Commons, PO Box 1866, Mountain View, CA 94042, USA.
#
# CIF created using the CSD Python API on 29 September 2022
# The structure has been converted into the P1 space group
# The structure has a 3D framework
# The original CSD entry LICROF is in the monoclinic crystal system
# The original CSD entry LICROF is in a Sohncke space group
# The framework has been calculated to contain at least 10.0% void space
# The void calculation uses a probe of radius 1.32A, grid spacing 0.4
#
###############################################################################

data_LICROF
_chemical_formula_moiety         '(C96 H68 N16 Ni8 O34)n'
_symmetry_cell_setting           triclinic
_symmetry_space_group_name_H-M   'P 1'
_symmetry_Int_Tables_number      1
_space_group_name_Hall           'P 1'
loop_
_symmetry_equiv_pos_site_id
_symmetry_equiv_pos_as_xyz
1 x,y,z
_cell_length_a                   10.7155(14)
_cell_length_b                   19.163(3)
_cell_length_c                   13.8595(19)
_cell_angle_alpha                90
_cell_angle_beta                 103.952(2)
_cell_angle_gamma                90
_cell_volume                     2761.97
loop_
_atom_site_label
_atom_site_type_symbol
_atom_site_fract_x
_atom_site_fract_y
_atom_site_fract_z
H27 H 0.3732 0.3942 0.0007
H28 H 0.3973 0.2746 0.0189
Ni1 Ni 0.42198(3) 0.407756(17) 0.38889(2)
Ni3 Ni 0.26397(3) 0.503556(18) 0.54442(2)
Ni4 Ni 0.61531(3) 0.643660(17) 0.10731(2)
N1 N 0.0644(2) 0.51943(13) 0.49208(18)
N3 N 0.3871(2) 0.29991(13) 0.37439(18)
N5 N 0.5804(2) 0.40063(13) 0.32783(18)
N6 N 0.3540(2) 0.25074(13) 0.87777(18)
N7 N 0.7654(2) 0.46702(13) 0.84700(18)
N8 N 0.4610(2) 0.65246(13) 0.17253(17)
O3 O 0.31075(19) 0.43215(11) 0.24907(15)
O4 O 0.1091(2) 0.42393(13) 0.26454(16)
O5 O 0.2070(2) 0.11197(12) 0.16303(16)
O6 O 0.2120(2) 0.21860(12) 0.09873(16)
O9 O 0.58174(19) 0.53582(11) 0.10097(15)
O10 O 0.74415(19) 0.47960(11) 0.05760(15)
O11 O 0.2343(2) 0.44107(11) 0.65628(16)
O12 O 0.2548(3) 0.33512(13) 0.59402(18)
O13 O 0.53700(19) 0.39367(11) 0.52550(14)
O14 O 0.4597(2) 0.47992(12) 0.60533(16)
O15 O 0.4563(2) 0.51544(11) 0.39657(16)
O16 O 0.29137(19) 0.57019(11) 0.43838(15)
O18 O 0.25784(19) 0.41760(12) 0.44792(14)
H3 H 0.196(2) 0.4187(18) 0.3982(18)
H4 H 0.248(3) 0.3795(13) 0.482(2)
C1 C 0.0169(3) 0.55066(16) 0.4046(2)
H5 H 0.0724 0.5601 0.3640
H8 H 0.0121 0.4812 0.6081
C7 C 0.0197(3) 0.49869(16) 0.0883(2)
C8 C 0.1504(3) 0.48635(15) 0.1262(2)
C9 C 0.2352(3) 0.51459(16) 0.0762(2)
H10 H 0.3233 0.5077 0.0995
C12 C 0.1928(3) 0.44424(15) 0.2210(2)
C13 C 0.3281(3) 0.27225(15) 0.2854(2)
H13 H 0.3069 0.3019 0.2308
C14 C 0.2979(3) 0.20294(16) 0.2714(2)
C15 C 0.3345(4) 0.15776(19) 0.3520(3)
H14 H 0.3182 0.1101 0.3449
C16 C 0.3961(5) 0.1859(2) 0.4432(3)
H15 H 0.4217 0.1572 0.4984
C17 C 0.4191(4) 0.25614(19) 0.4517(3)
H16 H 0.4586 0.2742 0.5139
C18 C 0.2332(3) 0.17571(16) 0.1689(2)
C25 C 0.6799(3) 0.44229(16) 0.2004(2)
C26 C 0.5775(3) 0.43741(15) 0.2452(2)
H21 H 0.5022 0.4612 0.2161
C27 C 0.7931(3) 0.40685(19) 0.2449(2)
H22 H 0.8635 0.4078 0.2167
C28 C 0.7984(3) 0.37036(19) 0.3320(3)
H23 H 0.8737 0.3479 0.3645
C29 C 0.6904(3) 0.36768(17) 0.3700(2)
H24 H 0.6943 0.3418 0.4274
C30 C 0.6667(3) 0.48953(14) 0.1113(2)
C31 C 0.3171(3) 0.27839(16) 0.7865(2)
H25 H 0.3055 0.2487 0.7321
C32 C 0.2955(3) 0.34890(16) 0.7694(2)
C33 C 0.3144(5) 0.39296(19) 0.8507(3)
H26 H 0.2992 0.4406 0.8419
C34 C 0.3563(6) 0.3653(2) 0.9451(3)
C35 C 0.3725(4) 0.29347(19) 0.9553(3)
C36 C 0.2578(3) 0.37633(16) 0.6643(2)
C37 C 0.6676(3) 0.47067(16) 0.7657(2)
H29 H 0.6053 0.5048 0.7636
C38 C 0.6545(3) 0.42640(15) 0.6848(2)
C39 C 0.7485(3) 0.37602(19) 0.6876(3)
H30 H 0.7435 0.3454 0.6347
C40 C 0.8502(4) 0.3724(2) 0.7712(3)
H31 H 0.9152 0.3397 0.7746
C41 C 0.8538(3) 0.41772(18) 0.8492(2)
H32 H 0.9209 0.4137 0.9058
C42 C 0.5398(3) 0.43431(15) 0.5975(2)
C43 C 0.4609(3) 0.61172(15) 0.2517(2)
H33 H 0.5296 0.5814 0.2739
C44 C 0.3636(3) 0.61276(15) 0.3016(2)
C45 C 0.2603(3) 0.65667(19) 0.2680(3)
H34 H 0.1932 0.6585 0.2998
C46 C 0.2587(4) 0.6984(2) 0.1850(3)
H35 H 0.1898 0.7282 0.1605
C47 C 0.3597(3) 0.69514(18) 0.1394(3)
H36 H 0.3578 0.7232 0.0843
C48 C 0.3724(3) 0.56205(16) 0.3863(2)
Ni5 Ni 0.77158(3) 0.547362(18) 0.95112(2)
Ni6 Ni 0.22842(3) 0.047362(18) 0.04888(2)
Ni9 Ni 0.38469(3) 0.143660(17) 0.89269(2)
N9 N 0.2764(2) 0.58468(13) 0.64799(18)
N10 N 0.6460(2) 0.75074(13) 0.12223(18)
O19 O 0.72816(19) 0.62253(11) 0.24665(15)
O23 O 0.77886(19) 0.63273(11) 0.04780(14)
H37 H 0.833(3) 0.6336(19) 0.1026(16)
H38 H 0.796(3) 0.6605(15) 0.0071(19)
C10 C 0.1884(3) 0.55298(18) 0.9917(2)
H11 H 0.2444 0.5725 0.9573
C11 C 0.0561(3) 0.56239(18) 0.9578(2)
H12 H 0.0251 0.5883 0.9003
O21 O 0.49964(19) 0.65648(11) 0.97113(14)
N2 N 0.9721(2) 0.53559(13) 0.00496(18)
O2 O 0.9267(2) 0.61607(15) 0.22257(16)
C2 C 0.8889(3) 0.56969(16) 0.3715(2)
C3 C 0.8048(3) 0.55322(19) 0.4295(2)
H6 H 0.7181 0.5646 0.4089
C4 C 0.8529(3) 0.5191(2) 0.5193(2)
H7 H 0.7984 0.5070 0.5596
C5 C 0.9810(3) 0.50369(19) 0.5476(2)
C6 C 0.8452(3) 0.60607(16) 0.2719(2)
H9 H 0.9623 0.4805 0.1224
O8 O 0.57617(19) 0.56921(11) 0.89303(15)
C19 C 0.3668(3) 0.57858(16) 0.7326(2)
H17 H 0.4203 0.5397 0.7403
C20 C 0.3862(3) 0.62655(15) 0.8102(2)
C21 C 0.3014(4) 0.68138(18) 0.8018(3)
H18 H 0.3081 0.7133 0.8533
C22 C 0.2062(5) 0.6879(2) 0.7153(3)
H19 H 0.1485 0.7249 0.7076
C23 C 0.1968(4) 0.6390(2) 0.6396(3)
H20 H 0.1329 0.6444 0.5813
C24 C 0.4973(3) 0.61591(15) 0.8995(2)
O20 O 0.7930(2) 0.61197(12) 0.83697(16)
N4 N 0.7236(2) 0.08468(13) 0.35201(18)
O7 O 0.50036(19) 0.15648(11) 0.02887(14)
O8_2 O 0.42383(19) 0.06921(11) 0.10697(15)
C19_2 C 0.6332(3) 0.07858(16) 0.2674(2)
H17_2 H 0.5797 0.0397 0.2597
C20_2 C 0.6138(3) 0.12655(15) 0.1898(2)
C21_2 C 0.6986(4) 0.18138(18) 0.1982(3)
H18_2 H 0.6919 0.2133 0.1467
C22_2 C 0.7938(5) 0.1879(2) 0.2847(3)
H19_2 H 0.8515 0.2249 0.2924
C23_2 C 0.8032(4) 0.1390(2) 0.3604(3)
H20_2 H 0.8671 0.1444 0.4187
C24_2 C 0.5027(3) 0.11591(15) 0.1005(2)
Ni8 Ni 0.73603(3) 0.003556(18) 0.45558(2)
N2_2 N 0.0279(2) 0.03559(13) 0.99504(18)
O1 O 0.27184(19) 0.12253(11) 0.75335(15)
O2_2 O 0.0733(2) 0.11607(15) 0.77743(16)
O17 O 0.22114(19) 0.13273(11) 0.95220(14)
H1 H 0.167(3) 0.1336(19) 0.8974(16)
H2 H 0.204(3) 0.1605(15) 0.9929(19)
C2_2 C 0.1111(3) 0.06969(16) 0.6285(2)
C3_2 C 0.1952(3) 0.05322(19) 0.5705(2)
H6_2 H 0.2819 0.0646 0.5911
C4_2 C 0.1471(3) 0.0191(2) 0.4807(2)
H7_2 H 0.2016 0.0070 0.4404
C5_2 C 0.0190(3) 0.00369(19) 0.4524(2)
C6_2 C 0.1548(3) 0.10607(16) 0.7281(2)
N11 N 0.2346(2) 0.96702(13) 0.15300(18)
H9_2 H 0.0377 0.9805 0.8776
O22 O 0.25585(19) 0.97960(11) 0.94240(15)
C10_2 C 0.8116(3) 0.05298(18) 0.0083(2)
H11_2 H 0.7556 0.0725 0.0427
C11_2 C 0.9439(3) 0.06239(18) 0.0422(2)
H12_2 H 0.9749 0.0883 0.0997
N1_2 N 0.9356(2) 0.01943(13) 0.50792(18)
N8_2 N 0.5390(2) 0.15246(13) 0.82747(17)
O9_2 O 0.41826(19) 0.03582(11) 0.89903(15)
O15_2 O 0.5437(2) 0.01544(11) 0.60343(16)
O16_2 O 0.70863(19) 0.07019(11) 0.56162(15)
C1_2 C 0.9831(3) 0.05066(16) 0.5954(2)
H5_2 H 0.9276 0.0601 0.6360
C9_2 C 0.7648(3) 0.01459(16) 0.9238(2)
H10_2 H 0.6767 0.0077 0.9005
H29_2 H 0.3947 0.0048 0.2364
C43_2 C 0.5391(3) 0.11172(15) 0.7483(2)
H33_2 H 0.4704 0.0814 0.7261
C44_2 C 0.6364(3) 0.11276(15) 0.6984(2)
C45_2 C 0.7397(3) 0.15667(19) 0.7320(3)
H34_2 H 0.8068 0.1585 0.7002
C46_2 C 0.7413(4) 0.1984(2) 0.8150(3)
H35_2 H 0.8102 0.2282 0.8395
C47_2 C 0.6403(3) 0.19514(18) 0.8606(3)
H36_2 H 0.6422 0.2232 0.9157
C48_2 C 0.6276(3) 0.06205(16) 0.6137(2)
Ni1_2 Ni 0.57802(3) 0.907756(17) 0.61111(2)
N3_2 N 0.6129(2) 0.79991(13) 0.62561(18)
N5_2 N 0.4196(2) 0.90063(13) 0.67217(18)
O3_2 O 0.68925(19) 0.93215(11) 0.75093(15)
O4_2 O 0.8909(2) 0.92393(13) 0.73546(16)
O6_2 O 0.7880(2) 0.71860(12) 0.90127(16)
O11_2 O 0.7657(2) 0.94107(11) 0.34372(16)
O12_2 O 0.7452(3) 0.83512(13) 0.40598(18)
O13_2 O 0.46300(19) 0.89367(11) 0.47450(14)
O14_2 O 0.5403(2) 0.97992(12) 0.39467(16)
O18_2 O 0.74216(19) 0.91760(12) 0.55208(14)
H3_2 H 0.804(2) 0.9187(18) 0.6018(18)
H4_2 H 0.752(3) 0.8795(13) 0.518(2)
H8_2 H 0.9879 0.9812 0.3919
C7_2 C 0.9803(3) 0.99869(16) 0.9117(2)
C8_2 C 0.8496(3) 0.98635(15) 0.8738(2)
C12_2 C 0.8072(3) 0.94424(15) 0.7790(2)
C13_2 C 0.6719(3) 0.77225(15) 0.7146(2)
H13_2 H 0.6931 0.8019 0.7692
C14_2 C 0.7021(3) 0.70294(16) 0.7286(2)
C15_2 C 0.6655(4) 0.65776(19) 0.6480(3)
H14_2 H 0.6818 0.6101 0.6551
C16_2 C 0.6039(5) 0.6859(2) 0.5568(3)
H15_2 H 0.5783 0.6572 0.5016
C17_2 C 0.5809(4) 0.75614(19) 0.5483(3)
H16_2 H 0.5414 0.7742 0.4861
C18_2 C 0.7668(3) 0.67571(16) 0.8311(2)
C25_2 C 0.3201(3) 0.94229(16) 0.7996(2)
C26_2 C 0.4225(3) 0.93741(15) 0.7548(2)
H21_2 H 0.4978 0.9612 0.7839
C27_2 C 0.2069(3) 0.90685(19) 0.7551(2)
H22_2 H 0.1365 0.9078 0.7833
C28_2 C 0.2016(3) 0.87036(19) 0.6680(3)
H23_2 H 0.1263 0.8479 0.6355
C29_2 C 0.3096(3) 0.86768(17) 0.6300(2)
H24_2 H 0.3057 0.8418 0.5726
C30_2 C 0.3333(3) 0.98953(14) 0.8887(2)
C31_2 C 0.6829(3) 0.77839(16) 0.2135(2)
H25_2 H 0.6945 0.7487 0.2679
C32_2 C 0.7045(3) 0.84890(16) 0.2306(2)
C33_2 C 0.6856(5) 0.89296(19) 0.1493(3)
H26_2 H 0.7008 0.9406 0.1581
C34_2 C 0.6437(6) 0.8653(2) 0.0549(3)
C35_2 C 0.6275(4) 0.79347(19) 0.0447(3)
C36_2 C 0.7422(3) 0.87633(16) 0.3357(2)
C37_2 C 0.3324(3) 0.97067(16) 0.2343(2)
C38_2 C 0.3455(3) 0.92640(15) 0.3152(2)
C39_2 C 0.2515(3) 0.87602(19) 0.3124(3)
H30_2 H 0.2565 0.8454 0.3653
C40_2 C 0.1498(4) 0.8724(2) 0.2288(3)
H31_2 H 0.0848 0.8397 0.2254
C41_2 C 0.1462(3) 0.91772(18) 0.1508(2)
H32_2 H 0.0791 0.9137 0.0942
C42_2 C 0.4602(3) 0.93431(15) 0.4025(2)
H27_2 H 0.6268 0.8942 0.9993
H28_2 H 0.6027 0.7746 0.9811
loop_
_geom_bond_atom_site_label_1
_geom_bond_atom_site_label_2
_geom_bond_site_symmetry_1
_geom_bond_site_symmetry_2
Ni1 N3 1_555 1_555
Ni3 N1 1_555 1_555
Ni4 N8 1_555 1_555
N1 C1 1_555 1_555
N3 C13 1_555 1_555
N5 Ni1 1_555 1_555
N6 C31 1_555 1_555
N7 C37 1_555 1_555
N8 C43 1_555 1_555
O3 Ni1 1_555 1_555
O4 C12 1_555 1_555
O5 C18 1_555 1_555
O6 C18 1_555 1_555
O9 Ni4 1_555 1_555
O10 C30 1_555 1_555
O11 Ni3 1_555 1_555
O12 C36 1_555 1_555
O13 Ni1 1_555 1_555
O14 Ni3 1_555 1_555
O15 Ni1 1_555 1_555
O16 Ni3 1_555 1_555
O18 Ni1 1_555 1_555
H3 O18 1_555 1_555
H4 O18 1_555 1_555
C1 H5 1_555 1_555
C8 C7 1_555 1_555
C9 C8 1_555 1_555
H10 C9 1_555 1_555
C12 O3 1_555 1_555
C13 H13 1_555 1_555
C14 C13 1_555 1_555
C15 C14 1_555 1_555
H14 C15 1_555 1_555
C16 C15 1_555 1_555
H15 C16 1_555 1_555
C17 N3 1_555 1_555
H16 C17 1_555 1_555
C18 C14 1_555 1_555
C25 C26 1_555 1_555
C26 N5 1_555 1_555
H21 C26 1_555 1_555
C27 C25 1_555 1_555
H22 C27 1_555 1_555
C28 C27 1_555 1_555
H23 C28 1_555 1_555
C29 N5 1_555 1_555
H24 C29 1_555 1_555
C30 O9 1_555 1_555
C31 H25 1_555 1_555
C32 C31 1_555 1_555
C33 C32 1_555 1_555
H26 C33 1_555 1_555
C34 C33 1_555 1_555
C35 N6 1_555 1_555
C36 O11 1_555 1_555
C37 H29 1_555 1_555
C38 C37 1_555 1_555
C39 C38 1_555 1_555
H30 C39 1_555 1_555
C40 C39 1_555 1_555
H31 C40 1_555 1_555
C41 N7 1_555 1_555
H32 C41 1_555 1_555
C42 O13 1_555 1_555
C43 H33 1_555 1_555
C44 C43 1_555 1_555
C45 C44 1_555 1_555
H34 C45 1_555 1_555
C46 C45 1_555 1_555
H35 C46 1_555 1_555
C47 N8 1_555 1_555
H36 C47 1_555 1_555
C48 O15 1_555 1_555
Ni5 N7 1_555 1_555
Ni6 O5 1_555 1_555
Ni9 N6 1_555 1_555
N9 Ni3 1_555 1_555
N10 Ni4 1_555 1_555
O19 Ni4 1_555 1_555
O23 Ni4 1_555 1_555
H37 O23 1_555 1_555
H38 O23 1_555 1_555
Ni3 O18 1_555 1_555
O14 C42 1_555 1_555
O16 C48 1_555 1_555
C8 C12 1_555 1_555
C16 C17 1_555 1_555
C25 C30 1_555 1_555
C28 C29 1_555 1_555
C32 C36 1_555 1_555
C34 C35 1_555 1_555
C38 C42 1_555 1_555
C40 C41 1_555 1_555
C44 C48 1_555 1_555
C46 C47 1_555 1_555
H11 C10 1_555 1_555
H12 C11 1_555 1_555
C10 C11 1_555 1_555
O19 C6 1_555 1_555
O2 C6 1_555 1_555
C3 C2 1_555 1_555
H6 C3 1_555 1_555
C4 C3 1_555 1_555
H7 C4 1_555 1_555
C6 C2 1_555 1_555
C4 C5 1_555 1_555
N9 C19 1_555 1_555
O21 C24 1_555 1_555
O8 Ni5 1_555 1_555
C19 H17 1_555 1_555
C20 C19 1_555 1_555
C21 C20 1_555 1_555
H18 C21 1_555 1_555
C22 C21 1_555 1_555
H19 C22 1_555 1_555
C23 N9 1_555 1_555
H20 C23 1_555 1_555
C24 O8 1_555 1_555
O20 Ni5 1_555 1_555
C20 C24 1_555 1_555
C22 C23 1_555 1_555
N4 C19_2 1_555 1_555
O7 C24_2 1_555 1_555
O8_2 Ni6 1_555 1_555
C19_2 H17_2 1_555 1_555
C20_2 C19_2 1_555 1_555
C21_2 C20_2 1_555 1_555
H18_2 C21_2 1_555 1_555
C22_2 C21_2 1_555 1_555
H19_2 C22_2 1_555 1_555
C23_2 N4 1_555 1_555
H20_2 C23_2 1_555 1_555
C24_2 O8_2 1_555 1_555
Ni8 N4 1_555 1_555
C20_2 C24_2 1_555 1_555
C22_2 C23_2 1_555 1_555
O1 C6_2 1_555 1_555
O2_2 C6_2 1_555 1_555
H1 O17 1_555 1_555
H2 O17 1_555 1_555
C3_2 C2_2 1_555 1_555
H6_2 C3_2 1_555 1_555
C4_2 C3_2 1_555 1_555
H7_2 C4_2 1_555 1_555
C6_2 C2_2 1_555 1_555
Ni9 O1 1_555 1_555
O17 Ni9 1_555 1_555
C4_2 C5_2 1_555 1_555
H11_2 C10_2 1_555 1_555
H12_2 C11_2 1_555 1_555
C10_2 C11_2 1_555 1_555
Ni8 N1_2 1_555 1_555
Ni9 N8_2 1_555 1_555
N1_2 C1_2 1_555 1_555
N8_2 C43_2 1_555 1_555
O9_2 Ni9 1_555 1_555
O16_2 Ni8 1_555 1_555
C1_2 H5_2 1_555 1_555
H10_2 C9_2 1_555 1_555
C43_2 H33_2 1_555 1_555
C44_2 C43_2 1_555 1_555
C45_2 C44_2 1_555 1_555
H34_2 C45_2 1_555 1_555
C46_2 C45_2 1_555 1_555
H35_2 C46_2 1_555 1_555
C47_2 N8_2 1_555 1_555
H36_2 C47_2 1_555 1_555
C48_2 O15_2 1_555 1_555
O16_2 C48_2 1_555 1_555
C44_2 C48_2 1_555 1_555
C46_2 C47_2 1_555 1_555
Ni1_2 N3_2 1_555 1_555
N3_2 C13_2 1_555 1_555
N5_2 Ni1_2 1_555 1_555
N10 C31_2 1_555 1_555
N11 C37_2 1_555 1_555
O3_2 Ni1_2 1_555 1_555
O4_2 C12_2 1_555 1_555
O20 C18_2 1_555 1_555
O6_2 C18_2 1_555 1_555
O22 C30_2 1_555 1_555
O12_2 C36_2 1_555 1_555
O13_2 Ni1_2 1_555 1_555
O18_2 Ni1_2 1_555 1_555
H3_2 O18_2 1_555 1_555
H4_2 O18_2 1_555 1_555
C8_2 C7_2 1_555 1_555
C12_2 O3_2 1_555 1_555
C13_2 H13_2 1_555 1_555
C14_2 C13_2 1_555 1_555
C15_2 C14_2 1_555 1_555
H14_2 C15_2 1_555 1_555
C16_2 C15_2 1_555 1_555
H15_2 C16_2 1_555 1_555
C17_2 N3_2 1_555 1_555
H16_2 C17_2 1_555 1_555
C18_2 C14_2 1_555 1_555
C25_2 C26_2 1_555 1_555
C26_2 N5_2 1_555 1_555
H21_2 C26_2 1_555 1_555
C27_2 C25_2 1_555 1_555
H22_2 C27_2 1_555 1_555
C28_2 C27_2 1_555 1_555
H23_2 C28_2 1_555 1_555
C29_2 N5_2 1_555 1_555
H24_2 C29_2 1_555 1_555
C31_2 H25_2 1_555 1_555
C32_2 C31_2 1_555 1_555
C33_2 C32_2 1_555 1_555
H26_2 C33_2 1_555 1_555
C34_2 C33_2 1_555 1_555
C35_2 N10 1_555 1_555
C36_2 O11_2 1_555 1_555
C38_2 C37_2 1_555 1_555
C39_2 C38_2 1_555 1_555
H30_2 C39_2 1_555 1_555
C40_2 C39_2 1_555 1_555
H31_2 C40_2 1_555 1_555
C41_2 N11 1_555 1_555
H32_2 C41_2 1_555 1_555
C42_2 O13_2 1_555 1_555
O14_2 C42_2 1_555 1_555
C8_2 C12_2 1_555 1_555
C16_2 C17_2 1_555 1_555
C25_2 C30_2 1_555 1_555
C28_2 C29_2 1_555 1_555
C32_2 C36_2 1_555 1_555
C34_2 C35_2 1_555 1_555
C38_2 C42_2 1_555 1_555
C40_2 C41_2 1_555 1_555

#END
