
###############################################################################
#
# This file contains modified crystal structure data generated from the
# MOF subset of the Cambridge Structural Database (CSD) v543 
# hosted by the Cambridge Crystallographic Data Centre (CCDC).
#
# This work is licensed under the Creative Commons
# Attribution-NonCommercial-ShareAlike 4.0 International License.
# To view a copy of this license, visit
# http://creativecommons.org/licenses/by-nc-sa/4.0/
# or send a letter to
# Creative Commons, PO Box 1866, Mountain View, CA 94042, USA.
#
# CIF created using the CSD Python API on 29 September 2022
# The structure has been converted into the P1 space group
# The structure has a 3D framework
# The original CSD entry LIFQAU is in the rhombohedral crystal system
# The original CSD entry LIFQAU is in a Sohncke space group
# The framework has been calculated to contain at least 10.0% void space
# The void calculation uses a probe of radius 1.32A, grid spacing 0.4
#
###############################################################################

data_LIFQAU
_chemical_formula_moiety         '(C68 H52 N18 O70 Tb11)n'
_symmetry_cell_setting           triclinic
_symmetry_space_group_name_H-M   'P 1'
_symmetry_Int_Tables_number      1
_space_group_name_Hall           'P 1'
loop_
_symmetry_equiv_pos_site_id
_symmetry_equiv_pos_as_xyz
1 x,y,z
_cell_length_a                   12.4040(10)
_cell_length_b                   12.4040(10)
_cell_length_c                   19.6075(16)
_cell_angle_alpha                90
_cell_angle_beta                 90
_cell_angle_gamma                120
_cell_volume                     2612.62
loop_
_atom_site_label
_atom_site_type_symbol
_atom_site_fract_x
_atom_site_fract_y
_atom_site_fract_z
C1 C 0.1103(3) 0.2235(3) 0.22083(12)
C2 C 0.0817(3) 0.2812(3) 0.28095(18)
C3 C 0.1670(4) 0.3333 0.3333
H1 H 0.2420 0.3333 0.3333
O1 O 0.2030(2) 0.2105(3) 0.22569(11)
O2 O 0.0402(2) 0.1961(2) 0.16979(11)
O4 O 0.20622(19) 0.1759(2) 0.08388(11)
H2 H 0.1339 0.1619 0.0892
H3 H 0.2019 0.1426 0.0468
Tb1 Tb 0.3333 0.156561(19) 0.1667
C5 C 0.2201(4) 0.4432(3) 0.44584(12)
C6 C 0.1338(4) 0.3855(3) 0.38572(18)
N2 N 0.0269(3) 0.3867(2) 0.38716(12)
O5 O 0.3258(4) 0.4562(3) 0.44098(11)
O6 O 0.1774(3) 0.4706(2) 0.49688(11)
O7 O 0.46045(19) 0.30301(28) 0.24945(11)
H4 H 0.5328 0.3613 0.2441
H5 H 0.4648 0.2740 0.2865
N3 N 0.3064(3) 0.0264(2) 0.27951(12)
N4 N 0.3603(3) 0.0533(2) 0.05382(12)
O8 O 0.4637(2) 0.3408(4) 0.10764(11)
O10 O 0.5108(3) 0.1372(2) 0.16354(11)
Tb3 Tb -0.0000 0.489894(19) 0.5000
Tb4 Tb 0.510106(19) 0.510072(19) 0.5000
O9 O 0.1559(3) 0.9598(2) 0.16979(11)
C4 C 0.9461(4) 0.3333 0.3333
N1 N 0.9736(2) 0.2800(2) 0.27951(12)
O3 O 0.8453(3) 0.3333 0.3333
Tb2 Tb 0.843439(19) 0.176739(19) 0.1667
Tb3_2 Tb 1.0000 0.489894(19) 0.5000
O4_2 O 0.8241(2) 0.03032(28) 0.08388(11)
H3_2 H 0.8574 0.0593 0.0468
O7_2 O 0.69699(28) 0.15743(34) 0.24945(11)
H4_2 H 0.6387 0.1714 0.2441
H5_2 H 0.7260 0.1907 0.2865
N4_2 N 0.9467(2) 0.3069(4) 0.05382(12)
O8_2 O 0.6592(4) 0.1228(4) 0.10764(11)
O10_2 O 0.8628(2) 0.3735(4) 0.16354(11)
Tb4_2 Tb 0.489928(19) 0.000033(27) 0.5000
C1_2 C 0.7765(3) 0.8868(4) 0.22083(12)
C2_2 C 0.7188(3) 0.8005(4) 0.28095(18)
C3_2 C 0.6667 0.8337(4) 0.3333
H1_2 H 0.6667 0.9087 0.3333
C4_2 C 0.6667 0.6128(4) 0.3333
N1_2 N 0.7200(2) 0.6936(3) 0.27951(12)
O1_2 O 0.7895(3) 0.9925(4) 0.22569(11)
O2_2 O 0.8039(2) 0.8441(3) 0.16979(11)
O3_2 O 0.6667 0.5120(3) 0.3333
H2_2 H 0.8381 0.9720 0.0892
C5_2 C 0.5568(3) 0.7770(5) 0.44584(12)
C6_2 C 0.6145(3) 0.7484(5) 0.38572(18)
N2_2 N 0.6133(2) 0.6403(4) 0.38716(12)
O5_2 O 0.5438(3) 0.8697(5) 0.44098(11)
O6_2 O 0.5294(2) 0.7069(4) 0.49688(11)
Tb2_2 Tb 0.823261(19) 0.666700(27) 0.1667
Tb4_3 Tb 0.489928(19) 1.000033(27) 0.5000
C4_3 C 0.3872(4) 0.0539(4) 0.3333
O3_3 O 0.4880(3) 0.1547(3) 0.3333
C1_3 C 0.1132(4) 0.8897(3) 0.22083(12)
C2_3 C 0.1995(4) 0.9183(3) 0.28095(18)
C3_3 C 0.1663(4) 0.8330(4) 0.3333
H1_3 H 0.0913 0.7580 0.3333
O1_3 O 0.0075(4) 0.7970(2) 0.22569(11)
H2_3 H 0.0280 0.8661 0.0892
C5_3 C 0.2230(5) 0.7799(4) 0.44584(12)
C6_3 C 0.2516(5) 0.8662(4) 0.38572(18)
N2_3 N 0.3597(4) 0.9731(3) 0.38716(12)
O5_3 O 0.1303(5) 0.6742(4) 0.44098(11)
O6_3 O 0.2931(4) 0.8226(3) 0.49688(11)
O4_3 O 0.96968(28) 0.79378(19) 0.08388(11)
H3_3 H 0.9407 0.7981 0.0468
O7_3 O 0.84257(34) 0.53955(19) 0.24945(11)
H4_3 H 0.8286 0.4672 0.2441
H5_3 H 0.8093 0.5352 0.2865
N4_3 N 0.6931(4) 0.6397(3) 0.05382(12)
O8_3 O 0.8772(4) 0.5363(2) 0.10764(11)
O10_3 O 0.6265(4) 0.4892(3) 0.16354(11)
C1_4 C 0.2235(3) 0.1103(3) 0.77917(12)
C2_4 C 0.2812(3) 0.0817(3) 0.71905(18)
C3_4 C 0.3333 0.1670(4) 0.6667
H1_4 H 0.3333 0.2420 0.6667
O1_4 O 0.2105(3) 0.2030(2) 0.77431(11)
O2_3 O 0.1961(2) 0.0402(2) 0.83021(11)
O4_4 O 0.1759(2) 0.20622(19) 0.91612(11)
H2_4 H 0.1619 0.1339 0.9108
H3_4 H 0.1426 0.2019 0.9532
Tb1_2 Tb 0.156561(19) 0.3333 0.8333
C5_4 C 0.4432(3) 0.2201(4) 0.55416(12)
C6_4 C 0.3855(3) 0.1338(4) 0.61428(18)
N2_4 N 0.3867(2) 0.0269(3) 0.61284(12)
O5_4 O 0.4562(3) 0.3258(4) 0.55902(11)
O6_4 O 0.4706(2) 0.1774(3) 0.50312(11)
O7_4 O 0.30301(28) 0.46045(19) 0.75055(11)
H4_4 H 0.3613 0.5328 0.7559
H5_4 H 0.2740 0.4648 0.7135
N3_2 N 0.0264(2) 0.3064(3) 0.72049(12)
N4_4 N 0.0533(2) 0.3603(3) 0.94618(12)
O8_4 O 0.3408(4) 0.4637(2) 0.89236(11)
O10_4 O 0.1372(2) 0.5108(3) 0.83646(11)
C4_4 C 0.3333 0.9461(4) 0.6667
N1_3 N 0.2800(2) 0.9736(2) 0.72049(12)
O3_4 O 0.3333 0.8453(3) 0.6667
Tb2_3 Tb 0.176739(19) 0.843439(19) 0.8333
O9_2 O 0.9598(2) 0.1559(3) 0.83021(11)
O4_5 O 0.03032(28) 0.8241(2) 0.91612(11)
H3_5 H 0.0593 0.8574 0.9532
O7_5 O 0.15743(34) 0.69699(28) 0.75055(11)
H4_5 H 0.1714 0.6387 0.7559
H5_5 H 0.1907 0.7260 0.7135
N4_5 N 0.3069(4) 0.9467(2) 0.94618(12)
O8_5 O 0.1228(4) 0.6592(4) 0.89236(11)
O10_5 O 0.3735(4) 0.8628(2) 0.83646(11)
C1_5 C 0.8868(4) 0.7765(3) 0.77917(12)
C2_5 C 0.8005(4) 0.7188(3) 0.71905(18)
C3_5 C 0.8337(4) 0.6667 0.6667
H1_5 H 0.9087 0.6667 0.6667
C4_5 C 0.6128(4) 0.6667 0.6667
N1_4 N 0.6936(3) 0.7200(2) 0.72049(12)
O1_5 O 0.9925(4) 0.7895(3) 0.77431(11)
O2_4 O 0.8441(3) 0.8039(2) 0.83021(11)
O3_5 O 0.5120(3) 0.6667 0.6667
H2_5 H 0.9720 0.8381 0.9108
C5_5 C 0.7770(5) 0.5568(3) 0.55416(12)
C6_5 C 0.7484(5) 0.6145(3) 0.61428(18)
N2_5 N 0.6403(4) 0.6133(2) 0.61284(12)
O5_5 O 0.8697(5) 0.5438(3) 0.55902(11)
O6_5 O 0.7069(4) 0.5294(2) 0.50312(11)
Tb2_4 Tb 0.666700(27) 0.823261(19) 0.8333
C4_6 C 0.0539(4) 0.3872(4) 0.6667
O3_6 O 0.1547(3) 0.4880(3) 0.6667
C1_6 C 0.8897(3) 0.1132(4) 0.77917(12)
C2_6 C 0.9183(3) 0.1995(4) 0.71905(18)
C3_6 C 0.8330(4) 0.1663(4) 0.6667
H1_6 H 0.7580 0.0913 0.6667
O1_6 O 0.7970(2) 0.0075(4) 0.77431(11)
H2_6 H 0.8661 0.0280 0.9108
C5_6 C 0.7799(4) 0.2230(5) 0.55416(12)
C6_6 C 0.8662(4) 0.2516(5) 0.61428(18)
N2_6 N 0.9731(3) 0.3597(4) 0.61284(12)
O5_6 O 0.6742(4) 0.1303(5) 0.55902(11)
O6_6 O 0.8226(3) 0.2931(4) 0.50312(11)
O4_6 O 0.79378(19) 0.96968(28) 0.91612(11)
H3_6 H 0.7981 0.9407 0.9532
O7_6 O 0.53955(19) 0.84257(34) 0.75055(11)
H4_6 H 0.4672 0.8286 0.7559
H5_6 H 0.5352 0.8093 0.7135
N4_6 N 0.6397(3) 0.6931(4) 0.94618(12)
O8_6 O 0.5363(2) 0.8772(4) 0.89236(11)
O10_6 O 0.4892(3) 0.6265(4) 0.83646(11)
O7_7 O 0.12711(19) 0.63635(28) 0.58279(11)
H4_7 H 0.1994 0.6947 0.5775
H5_7 H 0.1314 0.6074 0.6199
O4_7 O 0.87289(19) 0.5092(2) 0.41721(11)
H2_7 H 0.8006 0.4952 0.4225
H3_7 H 0.8686 0.4759 0.3801
O4_8 O 0.4908(2) 0.36365(28) 0.41721(11)
H2_8 H 0.5048 0.3053 0.4225
H3_8 H 0.5241 0.3926 0.3801
O7_8 O 0.36365(28) 0.49077(34) 0.58279(11)
H4_8 H 0.3053 0.5048 0.5775
H5_8 H 0.3926 0.5241 0.6199
O4_9 O 0.63635(28) 0.12711(19) 0.41721(11)
H2_9 H 0.6947 0.1994 0.4225
H3_9 H 0.6074 0.1314 0.3801
O7_9 O 0.50923(34) 0.87289(19) 0.58279(11)
H4_9 H 0.4952 0.8006 0.5775
H5_9 H 0.4759 0.8686 0.6199
C3_7 C -0.0000 0.5003(4) 0.0000
H1_7 H -0.0000 0.5753 0.0000
C4_7 C -0.0000 0.2794(4) 0.0000
O3_7 O -0.0000 0.1786(3) 0.0000
C3_8 C -0.0000 0.5003(4) 1.0000
H1_8 H -0.0000 0.5753 1.0000
C4_8 C -0.0000 0.2794(4) 1.0000
O3_8 O -0.0000 0.1786(3) 1.0000
C5_7 C 0.1098(3) 0.5535(4) 0.88750(12)
C6_7 C 0.0521(3) 0.4672(4) 0.94762(18)
C1_7 C 0.8902(3) 0.4436(3) 0.11250(12)
C2_7 C 0.9479(3) 0.4150(3) 0.05238(18)
C3_9 C 1.0000 0.5003(4) 0.0000
H1_9 H 1.0000 0.5753 0.0000
C4_9 C 1.0000 0.2794(4) 0.0000
O3_9 O 1.0000 0.1786(3) 0.0000
C3_10 C 1.0000 0.5003(4) 1.0000
H1_10 H 1.0000 0.5753 1.0000
C4_10 C 1.0000 0.2794(4) 1.0000
O3_10 O 1.0000 0.1786(3) 1.0000
C1_8 C 0.5535(4) 0.1098(3) 0.11250(12)
C2_8 C 0.4672(4) 0.0521(3) 0.05238(18)
C3_11 C 0.5004(4) 0.0000 0.0000
H1_11 H 0.5754 0.0000 0.0000
C4_11 C 0.2795(4) 0.0000 0.0000
O3_11 O 0.1787(3) 0.0000 0.0000
C3_12 C 0.5004(4) 0.0000 1.0000
H1_12 H 0.5754 0.0000 1.0000
C4_12 C 0.2795(4) 0.0000 1.0000
O3_12 O 0.1787(3) 0.0000 1.0000
C3_13 C 0.5004(4) 1.0000 0.0000
H1_13 H 0.5754 1.0000 0.0000
C4_13 C 0.2795(4) 1.0000 0.0000
O3_13 O 0.1787(3) 1.0000 0.0000
C3_14 C 0.5004(4) 1.0000 1.0000
H1_14 H 0.5754 1.0000 1.0000
C4_14 C 0.2795(4) 1.0000 1.0000
O3_14 O 0.1787(3) 1.0000 1.0000
C5_8 C 0.4436(5) 0.8902(3) 0.88750(12)
C6_8 C 0.4150(5) 0.9479(3) 0.94762(18)
C1_9 C 0.5564(3) 0.4465(4) 0.11250(12)
C2_9 C 0.5850(3) 0.5328(4) 0.05238(18)
C3_15 C 0.4997(4) 0.4996(4) 0.0000
H1_15 H 0.4247 0.4246 0.0000
C4_15 C 0.7206(4) 0.7205(4) 0.0000
O3_15 O 0.8214(3) 0.8213(3) 0.0000
C3_16 C 0.4997(4) 0.4996(4) 1.0000
H1_16 H 0.4247 0.4246 1.0000
C4_16 C 0.7206(4) 0.7205(4) 1.0000
O3_16 O 0.8214(3) 0.8213(3) 1.0000
C5_9 C 0.4465(4) 0.5564(5) 0.88750(12)
C6_9 C 0.5328(4) 0.5850(5) 0.94762(18)
loop_
_geom_bond_atom_site_label_1
_geom_bond_atom_site_label_2
_geom_bond_site_symmetry_1
_geom_bond_site_symmetry_2
C1 C2 1_555 1_555
C2 C3 1_555 1_555
C3 H1 1_555 1_555
O1 C1 1_555 1_555
O2 C1 1_555 1_555
O4 H2 1_555 1_555
H3 O4 1_555 1_555
Tb1 O1 1_555 1_555
C5 C6 1_555 1_555
C6 C3 1_555 1_555
O5 C5 1_555 1_555
O6 C5 1_555 1_555
O7 Tb1 1_555 1_555
H4 O7 1_555 1_555
H5 O7 1_555 1_555
N3 Tb1 1_555 1_555
N4 Tb1 1_555 1_555
O8 Tb1 1_555 1_555
O10 Tb1 1_555 1_555
Tb3 N2 1_555 1_555
Tb4 O5 1_555 1_555
O4 Tb1 1_555 1_555
C6 N2 1_555 1_555
O6 Tb3 1_555 1_555
C4 N1 1_555 1_555
O3 C4 1_555 1_555
Tb2 N1 1_555 1_555
H3_2 O4_2 1_555 1_555
O7_2 Tb2 1_555 1_555
H4_2 O7_2 1_555 1_555
H5_2 O7_2 1_555 1_555
N4_2 Tb2 1_555 1_555
O8_2 Tb2 1_555 1_555
O10_2 Tb2 1_555 1_555
O4_2 Tb2 1_555 1_555
C1_2 C2_2 1_555 1_555
C2_2 C3_2 1_555 1_555
C3_2 H1_2 1_555 1_555
C4_2 N1_2 1_555 1_555
N1_2 C2_2 1_555 1_555
O1_2 C1_2 1_555 1_555
O2_2 C1_2 1_555 1_555
O3_2 C4_2 1_555 1_555
C5_2 C6_2 1_555 1_555
C6_2 C3_2 1_555 1_555
N2_2 C4_2 1_555 1_555
O5_2 C5_2 1_555 1_555
O6_2 C5_2 1_555 1_555
Tb2_2 N1_2 1_555 1_555
Tb4 N2_2 1_555 1_555
Tb4_3 O5_2 1_555 1_555
O2_2 Tb2_2 1_555 1_555
C6_2 N2_2 1_555 1_555
O6_2 Tb4 1_555 1_555
C4_3 N3 1_555 1_555
O3_3 C4_3 1_555 1_555
C1_3 C2_3 1_555 1_555
C2_3 C3_3 1_555 1_555
C3_3 H1_3 1_555 1_555
O1_3 C1_3 1_555 1_555
O9 C1_3 1_555 1_555
C5_3 C6_3 1_555 1_555
C6_3 C3_3 1_555 1_555
O5_3 C5_3 1_555 1_555
O6_3 C5_3 1_555 1_555
Tb4_3 N2_3 1_555 1_555
Tb3 O5_3 1_555 1_555
C6_3 N2_3 1_555 1_555
O6_3 Tb4_3 1_555 1_555
H3_3 O4_3 1_555 1_555
O7_3 Tb2_2 1_555 1_555
H4_3 O7_3 1_555 1_555
H5_3 O7_3 1_555 1_555
N4_3 Tb2_2 1_555 1_555
O8_3 Tb2_2 1_555 1_555
O10_3 Tb2_2 1_555 1_555
O4_3 Tb2_2 1_555 1_555
C1_4 C2_4 1_555 1_555
C2_4 C3_4 1_555 1_555
C3_4 H1_4 1_555 1_555
O1_4 C1_4 1_555 1_555
O2_3 C1_4 1_555 1_555
O4_4 H2_4 1_555 1_555
H3_4 O4_4 1_555 1_555
Tb1_2 O1_4 1_555 1_555
C5_4 C6_4 1_555 1_555
C6_4 C3_4 1_555 1_555
O5_4 C5_4 1_555 1_555
O6_4 C5_4 1_555 1_555
O7_4 Tb1_2 1_555 1_555
H4_4 O7_4 1_555 1_555
H5_4 O7_4 1_555 1_555
N3_2 Tb1_2 1_555 1_555
N4_4 Tb1_2 1_555 1_555
O8_4 Tb1_2 1_555 1_555
O10_4 Tb1_2 1_555 1_555
Tb4_2 N2_4 1_555 1_555
Tb4 O5_4 1_555 1_555
O4_4 Tb1_2 1_555 1_555
C6_4 N2_4 1_555 1_555
O6_4 Tb4_2 1_555 1_555
C4_4 N1_3 1_555 1_555
O3_4 C4_4 1_555 1_555
Tb2_3 N1_3 1_555 1_555
H3_5 O4_5 1_555 1_555
O7_5 Tb2_3 1_555 1_555
H4_5 O7_5 1_555 1_555
H5_5 O7_5 1_555 1_555
N4_5 Tb2_3 1_555 1_555
O8_5 Tb2_3 1_555 1_555
O10_5 Tb2_3 1_555 1_555
O4_5 Tb2_3 1_555 1_555
C1_5 C2_5 1_555 1_555
C2_5 C3_5 1_555 1_555
C3_5 H1_5 1_555 1_555
C4_5 N1_4 1_555 1_555
N1_4 C2_5 1_555 1_555
O1_5 C1_5 1_555 1_555
O2_4 C1_5 1_555 1_555
O3_5 C4_5 1_555 1_555
C5_5 C6_5 1_555 1_555
C6_5 C3_5 1_555 1_555
N2_5 C4_5 1_555 1_555
O5_5 C5_5 1_555 1_555
O6_5 C5_5 1_555 1_555
Tb2_4 N1_4 1_555 1_555
Tb4 N2_5 1_555 1_555
Tb3_2 O5_5 1_555 1_555
O2_4 Tb2_4 1_555 1_555
C6_5 N2_5 1_555 1_555
O6_5 Tb4 1_555 1_555
C4_6 N3_2 1_555 1_555
O3_6 C4_6 1_555 1_555
C1_6 C2_6 1_555 1_555
C2_6 C3_6 1_555 1_555
C3_6 H1_6 1_555 1_555
O1_6 C1_6 1_555 1_555
O9_2 C1_6 1_555 1_555
C5_6 C6_6 1_555 1_555
C6_6 C3_6 1_555 1_555
O5_6 C5_6 1_555 1_555
O6_6 C5_6 1_555 1_555
Tb3_2 N2_6 1_555 1_555
Tb4_2 O5_6 1_555 1_555
C6_6 N2_6 1_555 1_555
O6_6 Tb3_2 1_555 1_555
H3_6 O4_6 1_555 1_555
O7_6 Tb2_4 1_555 1_555
H4_6 O7_6 1_555 1_555
H5_6 O7_6 1_555 1_555
N4_6 Tb2_4 1_555 1_555
O8_6 Tb2_4 1_555 1_555
O10_6 Tb2_4 1_555 1_555
O4_6 Tb2_4 1_555 1_555
O7_7 Tb3 1_555 1_555
H4_7 O7_7 1_555 1_555
H5_7 O7_7 1_555 1_555
O4_7 H2_7 1_555 1_555
H3_7 O4_7 1_555 1_555
O4_7 Tb3_2 1_555 1_555
O4_8 H2_8 1_555 1_555
H3_8 O4_8 1_555 1_555
O7_8 Tb4 1_555 1_555
H4_8 O7_8 1_555 1_555
H5_8 O7_8 1_555 1_555
O4_8 Tb4 1_555 1_555
O4_9 H2_9 1_555 1_555
H3_9 O4_9 1_555 1_555
O4_9 Tb4_2 1_555 1_555
O7_9 Tb4_3 1_555 1_555
H4_9 O7_9 1_555 1_555
H5_9 O7_9 1_555 1_555
C3_7 H1_7 1_555 1_555
O3_7 C4_7 1_555 1_555
C3_8 H1_8 1_555 1_555
O3_8 C4_8 1_555 1_555
C5_7 C6_7 1_555 1_555
C6_7 C3_8 1_555 1_555
N4_4 C4_8 1_555 1_555
O8_5 C5_7 1_555 1_555
O10_4 C5_7 1_555 1_555
C6_7 N4_4 1_555 1_555
C1_7 C2_7 1_555 1_555
C2_7 C3_9 1_555 1_555
C3_9 H1_9 1_555 1_555
C4_9 N4_2 1_555 1_555
N4_2 C2_7 1_555 1_555
O8_3 C1_7 1_555 1_555
O10_2 C1_7 1_555 1_555
O3_9 C4_9 1_555 1_555
C3_10 H1_10 1_555 1_555
O3_10 C4_10 1_555 1_555
C1_8 C2_8 1_555 1_555
C2_8 C3_11 1_555 1_555
C3_11 H1_11 1_555 1_555
C4_11 N4 1_555 1_555
N4 C2_8 1_555 1_555
O8_2 C1_8 1_555 1_555
O10 C1_8 1_555 1_555
O3_11 C4_11 1_555 1_555
C3_12 H1_12 1_555 1_555
O3_12 C4_12 1_555 1_555
C3_13 H1_13 1_555 1_555
O3_13 C4_13 1_555 1_555
C3_14 H1_14 1_555 1_555
O3_14 C4_14 1_555 1_555
C5_8 C6_8 1_555 1_555
C6_8 C3_14 1_555 1_555
N4_5 C4_14 1_555 1_555
O8_6 C5_8 1_555 1_555
O10_5 C5_8 1_555 1_555
C6_8 N4_5 1_555 1_555
C1_9 C2_9 1_555 1_555
C2_9 C3_15 1_555 1_555
C3_15 H1_15 1_555 1_555
C4_15 N4_3 1_555 1_555
N4_3 C2_9 1_555 1_555
O8 C1_9 1_555 1_555
O10_3 C1_9 1_555 1_555
O3_15 C4_15 1_555 1_555
C3_16 H1_16 1_555 1_555
O3_16 C4_16 1_555 1_555
C5_9 C6_9 1_555 1_555
C6_9 C3_16 1_555 1_555
N4_6 C4_16 1_555 1_555
O8_4 C5_9 1_555 1_555
O10_6 C5_9 1_555 1_555
C6_9 N4_6 1_555 1_555

#END
