
###############################################################################
#
# This file contains modified crystal structure data generated from the
# MOF subset of the Cambridge Structural Database (CSD) v543 
# hosted by the Cambridge Crystallographic Data Centre (CCDC).
#
# This work is licensed under the Creative Commons
# Attribution-NonCommercial-ShareAlike 4.0 International License.
# To view a copy of this license, visit
# http://creativecommons.org/licenses/by-nc-sa/4.0/
# or send a letter to
# Creative Commons, PO Box 1866, Mountain View, CA 94042, USA.
#
# CIF created using the CSD Python API on 29 September 2022
# The structure has been converted into the P1 space group
# The structure has a 3D framework
# The original CSD entry LIFQIC is in the rhombohedral crystal system
# The original CSD entry LIFQIC is in a Sohncke space group
# The framework has been calculated to contain at least 10.0% void space
# The void calculation uses a probe of radius 1.32A, grid spacing 0.4
#
###############################################################################

data_LIFQIC
_chemical_formula_moiety         '(C68 H52 Eu11 N18 O70)n'
_symmetry_cell_setting           triclinic
_symmetry_space_group_name_H-M   'P 1'
_symmetry_Int_Tables_number      1
_space_group_name_Hall           'P 1'
loop_
_symmetry_equiv_pos_site_id
_symmetry_equiv_pos_as_xyz
1 x,y,z
_cell_length_a                   12.472(2)
_cell_length_b                   12.472(2)
_cell_length_c                   19.703(3)
_cell_angle_alpha                90
_cell_angle_beta                 90
_cell_angle_gamma                120
_cell_volume                     2654.21
loop_
_atom_site_label
_atom_site_type_symbol
_atom_site_fract_x
_atom_site_fract_y
_atom_site_fract_z
C1 C 0.1120(4) 0.2251(3) 0.22135(13)
C2 C 0.0825(3) 0.2813(3) 0.28109(18)
C3 C 0.1672(4) 0.3333 0.3333
H1 H 0.2417 0.3333 0.3333
Eu1 Eu 0.3333 0.155012(18) 0.1667
O1 O 0.2038(3) 0.2115(3) 0.22614(12)
O2 O 0.0425(2) 0.1979(3) 0.17038(11)
O4 O 0.2048(2) 0.1739(2) 0.08361(11)
H2 H 0.1324 0.1599 0.0889
H3 H 0.2004 0.1406 0.0465
C5 C 0.2202(5) 0.4416(3) 0.44532(13)
C6 C 0.1345(4) 0.3854(3) 0.38558(18)
N2 N 0.0287(4) 0.3865(3) 0.38715(12)
O5 O 0.3256(4) 0.4552(3) 0.44053(12)
O6 O 0.1779(4) 0.4688(3) 0.49629(11)
O7 O 0.4619(2) 0.3024(3) 0.24972(11)
H4 H 0.5343 0.3608 0.2444
H5 H 0.4663 0.2735 0.2868
Eu3 Eu -0.0000 0.488345(18) 0.5000
Eu4 Eu 0.511655(18) 0.511621(18) 0.5000
N3 N 0.3046(4) 0.0244(2) 0.27952(12)
N4 N 0.3621(4) 0.0531(3) 0.05381(12)
O8 O 0.4629(3) 0.3410(4) 0.10719(12)
O10 O 0.5113(4) 0.1354(3) 0.16295(11)
O9 O 0.1554(4) 0.9575(2) 0.17038(11)
C4 C 0.9483(4) 0.3333 0.3333
N1 N 0.9756(2) 0.2802(3) 0.27952(12)
O3 O 0.8477(3) 0.3333 0.3333
Eu2 Eu 0.844988(18) 0.178288(18) 0.1667
Eu3_2 Eu 1.0000 0.488345(18) 0.5000
O4_2 O 0.8261(2) 0.0309(3) 0.08361(11)
H3_2 H 0.8594 0.0598 0.0465
O7_2 O 0.6976(3) 0.1594(4) 0.24972(11)
H4_2 H 0.6392 0.1734 0.2444
H5_2 H 0.7265 0.1927 0.2868
Eu4_2 Eu 0.488379(18) 0.000033(25) 0.5000
N4_2 N 0.9469(3) 0.3089(5) 0.05381(12)
O8_2 O 0.6590(4) 0.1218(5) 0.10719(12)
O10_2 O 0.8646(3) 0.3758(5) 0.16295(11)
C1_2 C 0.7749(3) 0.8869(5) 0.22135(13)
C2_2 C 0.7187(3) 0.8012(4) 0.28109(18)
C3_2 C 0.6667 0.8339(4) 0.3333
H1_2 H 0.6667 0.9084 0.3333
C4_2 C 0.6667 0.6150(4) 0.3333
N1_2 N 0.7198(3) 0.6954(4) 0.27952(12)
O1_2 O 0.7885(3) 0.9923(4) 0.22614(12)
O2_2 O 0.8021(3) 0.8446(4) 0.17038(11)
O3_2 O 0.6667 0.5144(3) 0.3333
H2_2 H 0.8401 0.9725 0.0889
C5_2 C 0.5584(3) 0.7787(6) 0.44532(13)
C6_2 C 0.6146(3) 0.7492(5) 0.38558(18)
N2_2 N 0.6135(3) 0.6423(5) 0.38715(12)
O5_2 O 0.5448(3) 0.8705(5) 0.44053(12)
O6_2 O 0.5312(3) 0.7092(5) 0.49629(11)
Eu2_2 Eu 0.821712(18) 0.666700(25) 0.1667
Eu4_3 Eu 0.488379(18) 1.000033(25) 0.5000
C4_3 C 0.3850(4) 0.0517(4) 0.3333
O3_3 O 0.4856(3) 0.1523(3) 0.3333
C1_3 C 0.1131(5) 0.8880(4) 0.22135(13)
C2_3 C 0.1988(4) 0.9175(3) 0.28109(18)
C3_3 C 0.1661(4) 0.8328(4) 0.3333
H1_3 H 0.0916 0.7583 0.3333
O1_3 O 0.0077(4) 0.7962(3) 0.22614(12)
H2_3 H 0.0275 0.8676 0.0889
C5_3 C 0.2213(6) 0.7798(5) 0.44532(13)
C6_3 C 0.2508(5) 0.8655(4) 0.38558(18)
N2_3 N 0.3577(5) 0.9713(4) 0.38715(12)
O5_3 O 0.1295(5) 0.6744(4) 0.44053(12)
O6_3 O 0.2908(5) 0.8221(4) 0.49629(11)
O4_3 O 0.9691(3) 0.7952(2) 0.08361(11)
H3_3 H 0.9402 0.7996 0.0465
O7_3 O 0.8406(4) 0.5381(2) 0.24972(11)
H4_3 H 0.8266 0.4657 0.2444
H5_3 H 0.8073 0.5337 0.2868
N4_3 N 0.6911(5) 0.6379(4) 0.05381(12)
O8_3 O 0.8782(5) 0.5371(3) 0.10719(12)
O10_3 O 0.6242(5) 0.4887(4) 0.16295(11)
C1_4 C 0.2251(3) 0.1120(4) 0.77865(13)
C2_4 C 0.2813(3) 0.0825(3) 0.71891(18)
C3_4 C 0.3333 0.1672(4) 0.6667
H1_4 H 0.3333 0.2417 0.6667
Eu1_2 Eu 0.155012(18) 0.3333 0.8333
O1_4 O 0.2115(3) 0.2038(3) 0.77386(12)
O2_3 O 0.1979(3) 0.0425(2) 0.82962(11)
O4_4 O 0.1739(2) 0.2048(2) 0.91639(11)
H2_4 H 0.1599 0.1324 0.9111
H3_4 H 0.1406 0.2004 0.9535
C5_4 C 0.4416(3) 0.2202(5) 0.55468(13)
C6_4 C 0.3854(3) 0.1345(4) 0.61442(18)
N2_4 N 0.3865(3) 0.0287(4) 0.61285(12)
O5_4 O 0.4552(3) 0.3256(4) 0.55947(12)
O6_4 O 0.4688(3) 0.1779(4) 0.50371(11)
O7_4 O 0.3024(3) 0.4619(2) 0.75028(11)
H4_4 H 0.3608 0.5343 0.7556
H5_4 H 0.2735 0.4663 0.7132
N3_2 N 0.0244(2) 0.3046(4) 0.72048(12)
N4_4 N 0.0531(3) 0.3621(4) 0.94619(12)
O8_4 O 0.3410(4) 0.4629(3) 0.89281(12)
O10_4 O 0.1354(3) 0.5113(4) 0.83705(11)
C4_4 C 0.3333 0.9483(4) 0.6667
N1_3 N 0.2802(3) 0.9756(2) 0.72048(12)
O3_4 O 0.3333 0.8477(3) 0.6667
Eu2_3 Eu 0.178288(18) 0.844988(18) 0.8333
O9_2 O 0.9575(2) 0.1554(4) 0.82962(11)
O4_5 O 0.0309(3) 0.8261(2) 0.91639(11)
H3_5 H 0.0598 0.8594 0.9535
O7_5 O 0.1594(4) 0.6976(3) 0.75028(11)
H4_5 H 0.1734 0.6392 0.7556
H5_5 H 0.1927 0.7265 0.7132
N4_5 N 0.3089(5) 0.9469(3) 0.94619(12)
O8_5 O 0.1218(5) 0.6590(4) 0.89281(12)
O10_5 O 0.3758(5) 0.8646(3) 0.83705(11)
C1_5 C 0.8869(5) 0.7749(3) 0.77865(13)
C2_5 C 0.8012(4) 0.7187(3) 0.71891(18)
C3_5 C 0.8339(4) 0.6667 0.6667
H1_5 H 0.9084 0.6667 0.6667
C4_5 C 0.6150(4) 0.6667 0.6667
N1_4 N 0.6954(4) 0.7198(3) 0.72048(12)
O1_5 O 0.9923(4) 0.7885(3) 0.77386(12)
O2_4 O 0.8446(4) 0.8021(3) 0.82962(11)
O3_5 O 0.5144(3) 0.6667 0.6667
H2_5 H 0.9725 0.8401 0.9111
C5_5 C 0.7787(6) 0.5584(3) 0.55468(13)
C6_5 C 0.7492(5) 0.6146(3) 0.61442(18)
N2_5 N 0.6423(5) 0.6135(3) 0.61285(12)
O5_5 O 0.8705(5) 0.5448(3) 0.55947(12)
O6_5 O 0.7092(5) 0.5312(3) 0.50371(11)
Eu2_4 Eu 0.666700(25) 0.821712(18) 0.8333
C4_6 C 0.0517(4) 0.3850(4) 0.6667
O3_6 O 0.1523(3) 0.4856(3) 0.6667
C1_6 C 0.8880(4) 0.1131(5) 0.77865(13)
C2_6 C 0.9175(3) 0.1988(4) 0.71891(18)
C3_6 C 0.8328(4) 0.1661(4) 0.6667
H1_6 H 0.7583 0.0916 0.6667
O1_6 O 0.7962(3) 0.0077(4) 0.77386(12)
H2_6 H 0.8676 0.0275 0.9111
C5_6 C 0.7798(5) 0.2213(6) 0.55468(13)
C6_6 C 0.8655(4) 0.2508(5) 0.61442(18)
N2_6 N 0.9713(4) 0.3577(5) 0.61285(12)
O5_6 O 0.6744(4) 0.1295(5) 0.55947(12)
O6_6 O 0.8221(4) 0.2908(5) 0.50371(11)
O4_6 O 0.7952(2) 0.9691(3) 0.91639(11)
H3_6 H 0.7996 0.9402 0.9535
O7_6 O 0.5381(2) 0.8406(4) 0.75028(11)
H4_6 H 0.4657 0.8266 0.7556
H5_6 H 0.5337 0.8073 0.7132
N4_6 N 0.6379(4) 0.6911(5) 0.94619(12)
O8_6 O 0.5371(3) 0.8782(5) 0.89281(12)
O10_6 O 0.4887(4) 0.6242(5) 0.83705(11)
O7_7 O 0.1285(2) 0.6358(3) 0.58306(11)
H4_7 H 0.2009 0.6942 0.5778
H5_7 H 0.1329 0.6069 0.6202
O4_7 O 0.8715(2) 0.5072(2) 0.41694(11)
H2_7 H 0.7991 0.4932 0.4222
H3_7 H 0.8671 0.4739 0.3798
O4_8 O 0.4928(2) 0.3642(3) 0.41694(11)
H2_8 H 0.5068 0.3058 0.4222
H3_8 H 0.5261 0.3931 0.3798
O7_8 O 0.3642(3) 0.4928(4) 0.58306(11)
H4_8 H 0.3058 0.5068 0.5778
H5_8 H 0.3931 0.5261 0.6202
O4_9 O 0.6358(3) 0.1285(2) 0.41694(11)
H2_9 H 0.6942 0.2009 0.4222
H3_9 H 0.6069 0.1329 0.3798
O7_9 O 0.5072(4) 0.8715(2) 0.58306(11)
H4_9 H 0.4932 0.7991 0.5778
H5_9 H 0.4739 0.8671 0.6202
C3_7 C -0.0000 0.5005(4) 0.0000
H1_7 H -0.0000 0.5750 0.0000
C4_7 C -0.0000 0.2816(4) 0.0000
O3_7 O -0.0000 0.1810(3) 0.0000
C3_8 C -0.0000 0.5005(4) 1.0000
H1_8 H -0.0000 0.5750 1.0000
C4_8 C -0.0000 0.2816(4) 1.0000
O3_8 O -0.0000 0.1810(3) 1.0000
C5_7 C 0.1082(3) 0.5536(5) 0.88802(13)
C6_7 C 0.0520(3) 0.4679(4) 0.94776(18)
C1_7 C 0.8918(3) 0.4453(4) 0.11198(13)
C2_7 C 0.9480(3) 0.4158(3) 0.05224(18)
C3_9 C 1.0000 0.5005(4) 0.0000
H1_9 H 1.0000 0.5750 0.0000
C4_9 C 1.0000 0.2816(4) 0.0000
O3_9 O 1.0000 0.1810(3) 0.0000
C3_10 C 1.0000 0.5005(4) 1.0000
H1_10 H 1.0000 0.5750 1.0000
C4_10 C 1.0000 0.2816(4) 1.0000
O3_10 O 1.0000 0.1810(3) 1.0000
C1_8 C 0.5536(5) 0.1082(3) 0.11198(13)
C2_8 C 0.4679(4) 0.0520(3) 0.05224(18)
C3_11 C 0.5006(4) 0.0000 0.0000
H1_11 H 0.5751 0.0000 0.0000
C4_11 C 0.2817(4) 0.0000 0.0000
O3_11 O 0.1811(3) 0.0000 0.0000
C3_12 C 0.5006(4) 0.0000 1.0000
H1_12 H 0.5751 0.0000 1.0000
C4_12 C 0.2817(4) 0.0000 1.0000
O3_12 O 0.1811(3) 0.0000 1.0000
C3_13 C 0.5006(4) 1.0000 0.0000
H1_13 H 0.5751 1.0000 0.0000
C4_13 C 0.2817(4) 1.0000 0.0000
O3_13 O 0.1811(3) 1.0000 0.0000
C3_14 C 0.5006(4) 1.0000 1.0000
H1_14 H 0.5751 1.0000 1.0000
C4_14 C 0.2817(4) 1.0000 1.0000
O3_14 O 0.1811(3) 1.0000 1.0000
C5_8 C 0.4453(6) 0.8918(3) 0.88802(13)
C6_8 C 0.4158(5) 0.9480(3) 0.94776(18)
C1_9 C 0.5547(4) 0.4464(5) 0.11198(13)
C2_9 C 0.5842(3) 0.5321(4) 0.05224(18)
C3_15 C 0.4995(4) 0.4994(4) 0.0000
H1_15 H 0.4250 0.4249 0.0000
C4_15 C 0.7184(4) 0.7183(4) 0.0000
O3_15 O 0.8190(3) 0.8189(3) 0.0000
C3_16 C 0.4995(4) 0.4994(4) 1.0000
H1_16 H 0.4250 0.4249 1.0000
C4_16 C 0.7184(4) 0.7183(4) 1.0000
O3_16 O 0.8190(3) 0.8189(3) 1.0000
C5_9 C 0.4464(5) 0.5547(6) 0.88802(13)
C6_9 C 0.5321(4) 0.5842(5) 0.94776(18)
loop_
_geom_bond_atom_site_label_1
_geom_bond_atom_site_label_2
_geom_bond_site_symmetry_1
_geom_bond_site_symmetry_2
C1 C2 1_555 1_555
C2 C3 1_555 1_555
C3 H1 1_555 1_555
Eu1 O1 1_555 1_555
O1 C1 1_555 1_555
O2 C1 1_555 1_555
O4 Eu1 1_555 1_555
H2 O4 1_555 1_555
H3 O4 1_555 1_555
C5 C6 1_555 1_555
C6 C3 1_555 1_555
O5 C5 1_555 1_555
O6 C5 1_555 1_555
O7 Eu1 1_555 1_555
H4 O7 1_555 1_555
H5 O7 1_555 1_555
Eu3 N2 1_555 1_555
Eu4 O5 1_555 1_555
N3 Eu1 1_555 1_555
N4 Eu1 1_555 1_555
O8 Eu1 1_555 1_555
O10 Eu1 1_555 1_555
C6 N2 1_555 1_555
O6 Eu3 1_555 1_555
C4 N1 1_555 1_555
O3 C4 1_555 1_555
Eu2 N1 1_555 1_555
O4_2 Eu2 1_555 1_555
H3_2 O4_2 1_555 1_555
O7_2 Eu2 1_555 1_555
H4_2 O7_2 1_555 1_555
H5_2 O7_2 1_555 1_555
N4_2 Eu2 1_555 1_555
O8_2 Eu2 1_555 1_555
O10_2 Eu2 1_555 1_555
C1_2 C2_2 1_555 1_555
C2_2 C3_2 1_555 1_555
C3_2 H1_2 1_555 1_555
C4_2 N1_2 1_555 1_555
N1_2 C2_2 1_555 1_555
O1_2 C1_2 1_555 1_555
O2_2 C1_2 1_555 1_555
O3_2 C4_2 1_555 1_555
C5_2 C6_2 1_555 1_555
C6_2 C3_2 1_555 1_555
N2_2 C4_2 1_555 1_555
O5_2 C5_2 1_555 1_555
O6_2 C5_2 1_555 1_555
Eu2_2 N1_2 1_555 1_555
Eu4 N2_2 1_555 1_555
Eu4_3 O5_2 1_555 1_555
O2_2 Eu2_2 1_555 1_555
C6_2 N2_2 1_555 1_555
O6_2 Eu4 1_555 1_555
C4_3 N3 1_555 1_555
O3_3 C4_3 1_555 1_555
C1_3 C2_3 1_555 1_555
C2_3 C3_3 1_555 1_555
C3_3 H1_3 1_555 1_555
O1_3 C1_3 1_555 1_555
O9 C1_3 1_555 1_555
C5_3 C6_3 1_555 1_555
C6_3 C3_3 1_555 1_555
O5_3 C5_3 1_555 1_555
O6_3 C5_3 1_555 1_555
Eu4_3 N2_3 1_555 1_555
Eu3 O5_3 1_555 1_555
C6_3 N2_3 1_555 1_555
O6_3 Eu4_3 1_555 1_555
O4_3 Eu2_2 1_555 1_555
H3_3 O4_3 1_555 1_555
O7_3 Eu2_2 1_555 1_555
H4_3 O7_3 1_555 1_555
H5_3 O7_3 1_555 1_555
N4_3 Eu2_2 1_555 1_555
O8_3 Eu2_2 1_555 1_555
O10_3 Eu2_2 1_555 1_555
C1_4 C2_4 1_555 1_555
C2_4 C3_4 1_555 1_555
C3_4 H1_4 1_555 1_555
Eu1_2 O1_4 1_555 1_555
O1_4 C1_4 1_555 1_555
O2_3 C1_4 1_555 1_555
O4_4 Eu1_2 1_555 1_555
H2_4 O4_4 1_555 1_555
H3_4 O4_4 1_555 1_555
C5_4 C6_4 1_555 1_555
C6_4 C3_4 1_555 1_555
O5_4 C5_4 1_555 1_555
O6_4 C5_4 1_555 1_555
O7_4 Eu1_2 1_555 1_555
H4_4 O7_4 1_555 1_555
H5_4 O7_4 1_555 1_555
Eu4_2 N2_4 1_555 1_555
Eu4 O5_4 1_555 1_555
N3_2 Eu1_2 1_555 1_555
N4_4 Eu1_2 1_555 1_555
O8_4 Eu1_2 1_555 1_555
O10_4 Eu1_2 1_555 1_555
C6_4 N2_4 1_555 1_555
O6_4 Eu4_2 1_555 1_555
C4_4 N1_3 1_555 1_555
O3_4 C4_4 1_555 1_555
Eu2_3 N1_3 1_555 1_555
O4_5 Eu2_3 1_555 1_555
H3_5 O4_5 1_555 1_555
O7_5 Eu2_3 1_555 1_555
H4_5 O7_5 1_555 1_555
H5_5 O7_5 1_555 1_555
N4_5 Eu2_3 1_555 1_555
O8_5 Eu2_3 1_555 1_555
O10_5 Eu2_3 1_555 1_555
C1_5 C2_5 1_555 1_555
C2_5 C3_5 1_555 1_555
C3_5 H1_5 1_555 1_555
C4_5 N1_4 1_555 1_555
N1_4 C2_5 1_555 1_555
O1_5 C1_5 1_555 1_555
O2_4 C1_5 1_555 1_555
O3_5 C4_5 1_555 1_555
C5_5 C6_5 1_555 1_555
C6_5 C3_5 1_555 1_555
N2_5 C4_5 1_555 1_555
O5_5 C5_5 1_555 1_555
O6_5 C5_5 1_555 1_555
Eu2_4 N1_4 1_555 1_555
Eu4 N2_5 1_555 1_555
Eu3_2 O5_5 1_555 1_555
O2_4 Eu2_4 1_555 1_555
C6_5 N2_5 1_555 1_555
O6_5 Eu4 1_555 1_555
C4_6 N3_2 1_555 1_555
O3_6 C4_6 1_555 1_555
C1_6 C2_6 1_555 1_555
C2_6 C3_6 1_555 1_555
C3_6 H1_6 1_555 1_555
O1_6 C1_6 1_555 1_555
O9_2 C1_6 1_555 1_555
C5_6 C6_6 1_555 1_555
C6_6 C3_6 1_555 1_555
O5_6 C5_6 1_555 1_555
O6_6 C5_6 1_555 1_555
Eu3_2 N2_6 1_555 1_555
Eu4_2 O5_6 1_555 1_555
C6_6 N2_6 1_555 1_555
O6_6 Eu3_2 1_555 1_555
O4_6 Eu2_4 1_555 1_555
H3_6 O4_6 1_555 1_555
O7_6 Eu2_4 1_555 1_555
H4_6 O7_6 1_555 1_555
H5_6 O7_6 1_555 1_555
N4_6 Eu2_4 1_555 1_555
O8_6 Eu2_4 1_555 1_555
O10_6 Eu2_4 1_555 1_555
O7_7 Eu3 1_555 1_555
H4_7 O7_7 1_555 1_555
H5_7 O7_7 1_555 1_555
O4_7 Eu3_2 1_555 1_555
H2_7 O4_7 1_555 1_555
H3_7 O4_7 1_555 1_555
O4_8 Eu4 1_555 1_555
H2_8 O4_8 1_555 1_555
H3_8 O4_8 1_555 1_555
O7_8 Eu4 1_555 1_555
H4_8 O7_8 1_555 1_555
H5_8 O7_8 1_555 1_555
O4_9 Eu4_2 1_555 1_555
H2_9 O4_9 1_555 1_555
H3_9 O4_9 1_555 1_555
O7_9 Eu4_3 1_555 1_555
H4_9 O7_9 1_555 1_555
H5_9 O7_9 1_555 1_555
C3_7 H1_7 1_555 1_555
O3_7 C4_7 1_555 1_555
C3_8 H1_8 1_555 1_555
O3_8 C4_8 1_555 1_555
C5_7 C6_7 1_555 1_555
C6_7 C3_8 1_555 1_555
N4_4 C4_8 1_555 1_555
O8_5 C5_7 1_555 1_555
O10_4 C5_7 1_555 1_555
C6_7 N4_4 1_555 1_555
C1_7 C2_7 1_555 1_555
C2_7 C3_9 1_555 1_555
C3_9 H1_9 1_555 1_555
C4_9 N4_2 1_555 1_555
N4_2 C2_7 1_555 1_555
O8_3 C1_7 1_555 1_555
O10_2 C1_7 1_555 1_555
O3_9 C4_9 1_555 1_555
C3_10 H1_10 1_555 1_555
O3_10 C4_10 1_555 1_555
C1_8 C2_8 1_555 1_555
C2_8 C3_11 1_555 1_555
C3_11 H1_11 1_555 1_555
C4_11 N4 1_555 1_555
N4 C2_8 1_555 1_555
O8_2 C1_8 1_555 1_555
O10 C1_8 1_555 1_555
O3_11 C4_11 1_555 1_555
C3_12 H1_12 1_555 1_555
O3_12 C4_12 1_555 1_555
C3_13 H1_13 1_555 1_555
O3_13 C4_13 1_555 1_555
C3_14 H1_14 1_555 1_555
O3_14 C4_14 1_555 1_555
C5_8 C6_8 1_555 1_555
C6_8 C3_14 1_555 1_555
N4_5 C4_14 1_555 1_555
O8_6 C5_8 1_555 1_555
O10_5 C5_8 1_555 1_555
C6_8 N4_5 1_555 1_555
C1_9 C2_9 1_555 1_555
C2_9 C3_15 1_555 1_555
C3_15 H1_15 1_555 1_555
C4_15 N4_3 1_555 1_555
N4_3 C2_9 1_555 1_555
O8 C1_9 1_555 1_555
O10_3 C1_9 1_555 1_555
O3_15 C4_15 1_555 1_555
C3_16 H1_16 1_555 1_555
O3_16 C4_16 1_555 1_555
C5_9 C6_9 1_555 1_555
C6_9 C3_16 1_555 1_555
N4_6 C4_16 1_555 1_555
O8_4 C5_9 1_555 1_555
O10_6 C5_9 1_555 1_555
C6_9 N4_6 1_555 1_555

#END
