
###############################################################################
#
# This file contains modified crystal structure data generated from the
# MOF subset of the Cambridge Structural Database (CSD) v543 
# hosted by the Cambridge Crystallographic Data Centre (CCDC).
#
# This work is licensed under the Creative Commons
# Attribution-NonCommercial-ShareAlike 4.0 International License.
# To view a copy of this license, visit
# http://creativecommons.org/licenses/by-nc-sa/4.0/
# or send a letter to
# Creative Commons, PO Box 1866, Mountain View, CA 94042, USA.
#
# CIF created using the CSD Python API on 29 September 2022
# The structure has been converted into the P1 space group
# The structure has a 3D framework
# The original CSD entry LIFQEY is in the rhombohedral crystal system
# The original CSD entry LIFQEY is in a Sohncke space group
# The framework has been calculated to contain at least 10.0% void space
# The void calculation uses a probe of radius 1.32A, grid spacing 0.4
#
###############################################################################

data_LIFQEY
_chemical_formula_moiety         '(C68 H52 Gd11 N18 O70)n'
_symmetry_cell_setting           triclinic
_symmetry_space_group_name_H-M   'P 1'
_symmetry_Int_Tables_number      1
_space_group_name_Hall           'P 1'
loop_
_symmetry_equiv_pos_site_id
_symmetry_equiv_pos_as_xyz
1 x,y,z
_cell_length_a                   12.4390(9)
_cell_length_b                   12.4390(9)
_cell_length_c                   19.6700(15)
_cell_angle_alpha                90
_cell_angle_beta                 90
_cell_angle_gamma                120
_cell_volume                     2635.76
loop_
_atom_site_label
_atom_site_type_symbol
_atom_site_fract_x
_atom_site_fract_y
_atom_site_fract_z
C1 C 0.1111(4) 0.2241(3) 0.22108(15)
C2 C 0.0826(3) 0.2813(3) 0.2807(2)
C3 C 0.1679(5) 0.3333 0.3333
H1 H 0.2426 0.3333 0.3333
Gd1 Gd 0.3333 0.15533(2) 0.1667
O1 O 0.2027(3) 0.2098(3) 0.22605(14)
O2 O 0.0424(3) 0.1986(3) 0.16980(13)
O4 O 0.2058(2) 0.1747(2) 0.08410(13)
H2 H 0.1334 0.1607 0.0894
H3 H 0.2014 0.1415 0.0470
C5 C 0.2203(5) 0.4426(3) 0.44559(15)
C6 C 0.1346(4) 0.3854(3) 0.3860(2)
N2 N 0.0282(4) 0.3866(3) 0.38732(14)
O5 O 0.3262(4) 0.4569(3) 0.44062(14)
O6 O 0.1771(4) 0.4681(3) 0.49687(13)
O7 O 0.4609(2) 0.3022(3) 0.24923(13)
H4 H 0.5333 0.3606 0.2439
H5 H 0.4653 0.2734 0.2863
Gd3 Gd -0.0000 0.48866(2) 0.5000
Gd4 Gd 0.51134(2) 0.51130(2) 0.5000
N3 N 0.3051(4) 0.0250(3) 0.27935(14)
N4 N 0.3616(4) 0.0532(3) 0.05398(14)
O8 O 0.4640(3) 0.3404(4) 0.10728(14)
O10 O 0.5105(4) 0.1347(3) 0.16353(13)
O9 O 0.1562(4) 0.9576(3) 0.16980(13)
C4 C 0.9478(5) 0.3333 0.3333
N1 N 0.9750(3) 0.2801(3) 0.27935(14)
O3 O 0.8468(3) 0.3333 0.3333
Gd2 Gd 0.84467(2) 0.17797(2) 0.1667
Gd3_2 Gd 1.0000 0.48866(2) 0.5000
O4_2 O 0.8253(2) 0.0311(3) 0.08410(13)
H3_2 H 0.8585 0.0599 0.0470
O7_2 O 0.6978(3) 0.1586(4) 0.24923(13)
H4_2 H 0.6394 0.1726 0.2439
H5_2 H 0.7266 0.1918 0.2863
Gd4_2 Gd 0.48870(2) 0.00003(3) 0.5000
N4_2 N 0.9468(3) 0.3083(5) 0.05398(14)
O8_2 O 0.6596(4) 0.1235(5) 0.10728(14)
O10_2 O 0.8653(3) 0.3757(5) 0.16353(13)
C1_2 C 0.7759(3) 0.8870(5) 0.22108(15)
C2_2 C 0.7187(3) 0.8013(4) 0.2807(2)
C3_2 C 0.6667 0.8346(5) 0.3333
H1_2 H 0.6667 0.9093 0.3333
C4_2 C 0.6667 0.6145(5) 0.3333
N1_2 N 0.7199(3) 0.6949(4) 0.27935(14)
O1_2 O 0.7902(3) 0.9929(4) 0.22605(14)
O2_2 O 0.8014(3) 0.8438(4) 0.16980(13)
O3_2 O 0.6667 0.5135(3) 0.3333
H2_2 H 0.8393 0.9727 0.0894
C5_2 C 0.5574(3) 0.7778(6) 0.44559(15)
C6_2 C 0.6146(3) 0.7493(5) 0.3860(2)
N2_2 N 0.6134(3) 0.6417(5) 0.38732(14)
O5_2 O 0.5431(3) 0.8694(5) 0.44062(14)
O6_2 O 0.5319(3) 0.7091(5) 0.49687(13)
Gd2_2 Gd 0.82203(2) 0.66670(3) 0.1667
Gd4_3 Gd 0.48870(2) 1.00003(3) 0.5000
C4_3 C 0.3855(5) 0.0522(5) 0.3333
O3_3 O 0.4865(3) 0.1532(3) 0.3333
C1_3 C 0.1130(5) 0.8889(4) 0.22108(15)
C2_3 C 0.1987(4) 0.9174(3) 0.2807(2)
C3_3 C 0.1654(5) 0.8321(5) 0.3333
H1_3 H 0.0907 0.7574 0.3333
O1_3 O 0.0071(4) 0.7973(3) 0.22605(14)
H2_3 H 0.0273 0.8666 0.0894
C5_3 C 0.2222(6) 0.7797(5) 0.44559(15)
C6_3 C 0.2507(5) 0.8654(4) 0.3860(2)
N2_3 N 0.3583(5) 0.9718(4) 0.38732(14)
O5_3 O 0.1306(5) 0.6738(4) 0.44062(14)
O6_3 O 0.2909(5) 0.8229(4) 0.49687(13)
O4_3 O 0.9689(3) 0.7942(2) 0.08410(13)
H3_3 H 0.9401 0.7986 0.0470
O7_3 O 0.8414(4) 0.5391(2) 0.24923(13)
H4_3 H 0.8274 0.4667 0.2439
H5_3 H 0.8082 0.5347 0.2863
N4_3 N 0.6917(5) 0.6384(4) 0.05398(14)
O8_3 O 0.8765(5) 0.5360(3) 0.10728(14)
O10_3 O 0.6243(5) 0.4895(4) 0.16353(13)
C1_4 C 0.2241(3) 0.1111(4) 0.77892(15)
C2_4 C 0.2813(3) 0.0826(3) 0.7193(2)
C3_4 C 0.3333 0.1679(5) 0.6667
H1_4 H 0.3333 0.2426 0.6667
Gd1_2 Gd 0.15533(2) 0.3333 0.8333
O1_4 O 0.2098(3) 0.2027(3) 0.77395(14)
O2_3 O 0.1986(3) 0.0424(3) 0.83020(13)
O4_4 O 0.1747(2) 0.2058(2) 0.91590(13)
H2_4 H 0.1607 0.1334 0.9106
H3_4 H 0.1415 0.2014 0.9530
C5_4 C 0.4426(3) 0.2203(5) 0.55441(15)
C6_4 C 0.3854(3) 0.1346(4) 0.6140(2)
N2_4 N 0.3866(3) 0.0282(4) 0.61268(14)
O5_4 O 0.4569(3) 0.3262(4) 0.55938(14)
O6_4 O 0.4681(3) 0.1771(4) 0.50313(13)
O7_4 O 0.3022(3) 0.4609(2) 0.75077(13)
H4_4 H 0.3606 0.5333 0.7561
H5_4 H 0.2734 0.4653 0.7137
N3_2 N 0.0250(3) 0.3051(4) 0.72065(14)
N4_4 N 0.0532(3) 0.3616(4) 0.94602(14)
O8_4 O 0.3404(4) 0.4640(3) 0.89272(14)
O10_4 O 0.1347(3) 0.5105(4) 0.83647(13)
C4_4 C 0.3333 0.9478(5) 0.6667
N1_3 N 0.2801(3) 0.9750(3) 0.72065(14)
O3_4 O 0.3333 0.8468(3) 0.6667
Gd2_3 Gd 0.17797(2) 0.84467(2) 0.8333
O9_2 O 0.9576(3) 0.1562(4) 0.83020(13)
O4_5 O 0.0311(3) 0.8253(2) 0.91590(13)
H3_5 H 0.0599 0.8585 0.9530
O7_5 O 0.1586(4) 0.6978(3) 0.75077(13)
H4_5 H 0.1726 0.6394 0.7561
H5_5 H 0.1918 0.7266 0.7137
N4_5 N 0.3083(5) 0.9468(3) 0.94602(14)
O8_5 O 0.1235(5) 0.6596(4) 0.89272(14)
O10_5 O 0.3757(5) 0.8653(3) 0.83647(13)
C1_5 C 0.8870(5) 0.7759(3) 0.77892(15)
C2_5 C 0.8013(4) 0.7187(3) 0.7193(2)
C3_5 C 0.8346(5) 0.6667 0.6667
H1_5 H 0.9093 0.6667 0.6667
C4_5 C 0.6145(5) 0.6667 0.6667
N1_4 N 0.6949(4) 0.7199(3) 0.72065(14)
O1_5 O 0.9929(4) 0.7902(3) 0.77395(14)
O2_4 O 0.8438(4) 0.8014(3) 0.83020(13)
O3_5 O 0.5135(3) 0.6667 0.6667
H2_5 H 0.9727 0.8393 0.9106
C5_5 C 0.7778(6) 0.5574(3) 0.55441(15)
C6_5 C 0.7493(5) 0.6146(3) 0.6140(2)
N2_5 N 0.6417(5) 0.6134(3) 0.61268(14)
O5_5 O 0.8694(5) 0.5431(3) 0.55938(14)
O6_5 O 0.7091(5) 0.5319(3) 0.50313(13)
Gd2_4 Gd 0.66670(3) 0.82203(2) 0.8333
C4_6 C 0.0522(5) 0.3855(5) 0.6667
O3_6 O 0.1532(3) 0.4865(3) 0.6667
C1_6 C 0.8889(4) 0.1130(5) 0.77892(15)
C2_6 C 0.9174(3) 0.1987(4) 0.7193(2)
C3_6 C 0.8321(5) 0.1654(5) 0.6667
H1_6 H 0.7574 0.0907 0.6667
O1_6 O 0.7973(3) 0.0071(4) 0.77395(14)
H2_6 H 0.8666 0.0273 0.9106
C5_6 C 0.7797(5) 0.2222(6) 0.55441(15)
C6_6 C 0.8654(4) 0.2507(5) 0.6140(2)
N2_6 N 0.9718(4) 0.3583(5) 0.61268(14)
O5_6 O 0.6738(4) 0.1306(5) 0.55938(14)
O6_6 O 0.8229(4) 0.2909(5) 0.50313(13)
O4_6 O 0.7942(2) 0.9689(3) 0.91590(13)
H3_6 H 0.7986 0.9401 0.9530
O7_6 O 0.5391(2) 0.8414(4) 0.75077(13)
H4_6 H 0.4667 0.8274 0.7561
H5_6 H 0.5347 0.8082 0.7137
N4_6 N 0.6384(4) 0.6917(5) 0.94602(14)
O8_6 O 0.5360(3) 0.8765(5) 0.89272(14)
O10_6 O 0.4895(4) 0.6243(5) 0.83647(13)
O7_7 O 0.1275(2) 0.6356(3) 0.58257(13)
H4_7 H 0.1999 0.6940 0.5773
H5_7 H 0.1319 0.6068 0.6197
O4_7 O 0.8725(2) 0.5080(2) 0.41743(13)
H2_7 H 0.8001 0.4940 0.4227
H3_7 H 0.8681 0.4748 0.3803
O4_8 O 0.4920(2) 0.3644(3) 0.41743(13)
H2_8 H 0.5060 0.3060 0.4227
H3_8 H 0.5252 0.3932 0.3803
O7_8 O 0.3644(3) 0.4920(4) 0.58257(13)
H4_8 H 0.3060 0.5060 0.5773
H5_8 H 0.3932 0.5252 0.6197
O4_9 O 0.6356(3) 0.1275(2) 0.41743(13)
H2_9 H 0.6940 0.1999 0.4227
H3_9 H 0.6068 0.1319 0.3803
O7_9 O 0.5080(4) 0.8725(2) 0.58257(13)
H4_9 H 0.4940 0.8001 0.5773
H5_9 H 0.4748 0.8681 0.6197
C3_7 C -0.0000 0.5012(5) 0.0000
H1_7 H -0.0000 0.5759 0.0000
C4_7 C -0.0000 0.2811(5) 0.0000
O3_7 O -0.0000 0.1801(3) 0.0000
C3_8 C -0.0000 0.5012(5) 1.0000
H1_8 H -0.0000 0.5759 1.0000
C4_8 C -0.0000 0.2811(5) 1.0000
O3_8 O -0.0000 0.1801(3) 1.0000
C5_7 C 0.1092(3) 0.5537(5) 0.88775(15)
C6_7 C 0.0520(3) 0.4680(4) 0.9474(2)
C1_7 C 0.8908(3) 0.4444(4) 0.11225(15)
C2_7 C 0.9480(3) 0.4159(3) 0.0526(2)
C3_9 C 1.0000 0.5012(5) 0.0000
H1_9 H 1.0000 0.5759 0.0000
C4_9 C 1.0000 0.2811(5) 0.0000
O3_9 O 1.0000 0.1801(3) 0.0000
C3_10 C 1.0000 0.5012(5) 1.0000
H1_10 H 1.0000 0.5759 1.0000
C4_10 C 1.0000 0.2811(5) 1.0000
O3_10 O 1.0000 0.1801(3) 1.0000
C1_8 C 0.5537(5) 0.1092(3) 0.11225(15)
C2_8 C 0.4680(4) 0.0520(3) 0.0526(2)
C3_11 C 0.5013(5) 0.0000 0.0000
H1_11 H 0.5760 0.0000 0.0000
C4_11 C 0.2812(5) 0.0000 0.0000
O3_11 O 0.1802(3) 0.0000 0.0000
C3_12 C 0.5013(5) 0.0000 1.0000
H1_12 H 0.5760 0.0000 1.0000
C4_12 C 0.2812(5) 0.0000 1.0000
O3_12 O 0.1802(3) 0.0000 1.0000
C3_13 C 0.5013(5) 1.0000 0.0000
H1_13 H 0.5760 1.0000 0.0000
C4_13 C 0.2812(5) 1.0000 0.0000
O3_13 O 0.1802(3) 1.0000 0.0000
C3_14 C 0.5013(5) 1.0000 1.0000
H1_14 H 0.5760 1.0000 1.0000
C4_14 C 0.2812(5) 1.0000 1.0000
O3_14 O 0.1802(3) 1.0000 1.0000
C5_8 C 0.4444(6) 0.8908(3) 0.88775(15)
C6_8 C 0.4159(5) 0.9480(3) 0.9474(2)
C1_9 C 0.5556(4) 0.4463(5) 0.11225(15)
C2_9 C 0.5841(3) 0.5320(4) 0.0526(2)
C3_15 C 0.4988(5) 0.4987(5) 0.0000
H1_15 H 0.4241 0.4240 0.0000
C4_15 C 0.7189(5) 0.7188(5) 0.0000
O3_15 O 0.8199(3) 0.8198(3) 0.0000
C3_16 C 0.4988(5) 0.4987(5) 1.0000
H1_16 H 0.4241 0.4240 1.0000
C4_16 C 0.7189(5) 0.7188(5) 1.0000
O3_16 O 0.8199(3) 0.8198(3) 1.0000
C5_9 C 0.4463(5) 0.5556(6) 0.88775(15)
C6_9 C 0.5320(4) 0.5841(5) 0.9474(2)
loop_
_geom_bond_atom_site_label_1
_geom_bond_atom_site_label_2
_geom_bond_site_symmetry_1
_geom_bond_site_symmetry_2
C1 C2 1_555 1_555
C2 C3 1_555 1_555
C3 H1 1_555 1_555
Gd1 O1 1_555 1_555
O1 C1 1_555 1_555
O2 C1 1_555 1_555
O4 Gd1 1_555 1_555
H2 O4 1_555 1_555
H3 O4 1_555 1_555
C5 C6 1_555 1_555
C6 C3 1_555 1_555
O5 C5 1_555 1_555
O6 C5 1_555 1_555
O7 Gd1 1_555 1_555
H4 O7 1_555 1_555
H5 O7 1_555 1_555
Gd3 N2 1_555 1_555
Gd4 O5 1_555 1_555
N3 Gd1 1_555 1_555
N4 Gd1 1_555 1_555
O8 Gd1 1_555 1_555
O10 Gd1 1_555 1_555
C6 N2 1_555 1_555
O6 Gd3 1_555 1_555
C4 N1 1_555 1_555
O3 C4 1_555 1_555
Gd2 N1 1_555 1_555
O4_2 Gd2 1_555 1_555
H3_2 O4_2 1_555 1_555
O7_2 Gd2 1_555 1_555
H4_2 O7_2 1_555 1_555
H5_2 O7_2 1_555 1_555
N4_2 Gd2 1_555 1_555
O8_2 Gd2 1_555 1_555
O10_2 Gd2 1_555 1_555
C1_2 C2_2 1_555 1_555
C2_2 C3_2 1_555 1_555
C3_2 H1_2 1_555 1_555
C4_2 N1_2 1_555 1_555
N1_2 C2_2 1_555 1_555
O1_2 C1_2 1_555 1_555
O2_2 C1_2 1_555 1_555
O3_2 C4_2 1_555 1_555
C5_2 C6_2 1_555 1_555
C6_2 C3_2 1_555 1_555
N2_2 C4_2 1_555 1_555
O5_2 C5_2 1_555 1_555
O6_2 C5_2 1_555 1_555
Gd2_2 N1_2 1_555 1_555
Gd4 N2_2 1_555 1_555
Gd4_3 O5_2 1_555 1_555
O2_2 Gd2_2 1_555 1_555
C6_2 N2_2 1_555 1_555
O6_2 Gd4 1_555 1_555
C4_3 N3 1_555 1_555
O3_3 C4_3 1_555 1_555
C1_3 C2_3 1_555 1_555
C2_3 C3_3 1_555 1_555
C3_3 H1_3 1_555 1_555
O1_3 C1_3 1_555 1_555
O9 C1_3 1_555 1_555
C5_3 C6_3 1_555 1_555
C6_3 C3_3 1_555 1_555
O5_3 C5_3 1_555 1_555
O6_3 C5_3 1_555 1_555
Gd4_3 N2_3 1_555 1_555
Gd3 O5_3 1_555 1_555
C6_3 N2_3 1_555 1_555
O6_3 Gd4_3 1_555 1_555
O4_3 Gd2_2 1_555 1_555
H3_3 O4_3 1_555 1_555
O7_3 Gd2_2 1_555 1_555
H4_3 O7_3 1_555 1_555
H5_3 O7_3 1_555 1_555
N4_3 Gd2_2 1_555 1_555
O8_3 Gd2_2 1_555 1_555
O10_3 Gd2_2 1_555 1_555
C1_4 C2_4 1_555 1_555
C2_4 C3_4 1_555 1_555
C3_4 H1_4 1_555 1_555
Gd1_2 O1_4 1_555 1_555
O1_4 C1_4 1_555 1_555
O2_3 C1_4 1_555 1_555
O4_4 Gd1_2 1_555 1_555
H2_4 O4_4 1_555 1_555
H3_4 O4_4 1_555 1_555
C5_4 C6_4 1_555 1_555
C6_4 C3_4 1_555 1_555
O5_4 C5_4 1_555 1_555
O6_4 C5_4 1_555 1_555
O7_4 Gd1_2 1_555 1_555
H4_4 O7_4 1_555 1_555
H5_4 O7_4 1_555 1_555
Gd4_2 N2_4 1_555 1_555
Gd4 O5_4 1_555 1_555
N3_2 Gd1_2 1_555 1_555
N4_4 Gd1_2 1_555 1_555
O8_4 Gd1_2 1_555 1_555
O10_4 Gd1_2 1_555 1_555
C6_4 N2_4 1_555 1_555
O6_4 Gd4_2 1_555 1_555
C4_4 N1_3 1_555 1_555
O3_4 C4_4 1_555 1_555
Gd2_3 N1_3 1_555 1_555
O4_5 Gd2_3 1_555 1_555
H3_5 O4_5 1_555 1_555
O7_5 Gd2_3 1_555 1_555
H4_5 O7_5 1_555 1_555
H5_5 O7_5 1_555 1_555
N4_5 Gd2_3 1_555 1_555
O8_5 Gd2_3 1_555 1_555
O10_5 Gd2_3 1_555 1_555
C1_5 C2_5 1_555 1_555
C2_5 C3_5 1_555 1_555
C3_5 H1_5 1_555 1_555
C4_5 N1_4 1_555 1_555
N1_4 C2_5 1_555 1_555
O1_5 C1_5 1_555 1_555
O2_4 C1_5 1_555 1_555
O3_5 C4_5 1_555 1_555
C5_5 C6_5 1_555 1_555
C6_5 C3_5 1_555 1_555
N2_5 C4_5 1_555 1_555
O5_5 C5_5 1_555 1_555
O6_5 C5_5 1_555 1_555
Gd2_4 N1_4 1_555 1_555
Gd4 N2_5 1_555 1_555
Gd3_2 O5_5 1_555 1_555
O2_4 Gd2_4 1_555 1_555
C6_5 N2_5 1_555 1_555
O6_5 Gd4 1_555 1_555
C4_6 N3_2 1_555 1_555
O3_6 C4_6 1_555 1_555
C1_6 C2_6 1_555 1_555
C2_6 C3_6 1_555 1_555
C3_6 H1_6 1_555 1_555
O1_6 C1_6 1_555 1_555
O9_2 C1_6 1_555 1_555
C5_6 C6_6 1_555 1_555
C6_6 C3_6 1_555 1_555
O5_6 C5_6 1_555 1_555
O6_6 C5_6 1_555 1_555
Gd3_2 N2_6 1_555 1_555
Gd4_2 O5_6 1_555 1_555
C6_6 N2_6 1_555 1_555
O6_6 Gd3_2 1_555 1_555
O4_6 Gd2_4 1_555 1_555
H3_6 O4_6 1_555 1_555
O7_6 Gd2_4 1_555 1_555
H4_6 O7_6 1_555 1_555
H5_6 O7_6 1_555 1_555
N4_6 Gd2_4 1_555 1_555
O8_6 Gd2_4 1_555 1_555
O10_6 Gd2_4 1_555 1_555
O7_7 Gd3 1_555 1_555
H4_7 O7_7 1_555 1_555
H5_7 O7_7 1_555 1_555
O4_7 Gd3_2 1_555 1_555
H2_7 O4_7 1_555 1_555
H3_7 O4_7 1_555 1_555
O4_8 Gd4 1_555 1_555
H2_8 O4_8 1_555 1_555
H3_8 O4_8 1_555 1_555
O7_8 Gd4 1_555 1_555
H4_8 O7_8 1_555 1_555
H5_8 O7_8 1_555 1_555
O4_9 Gd4_2 1_555 1_555
H2_9 O4_9 1_555 1_555
H3_9 O4_9 1_555 1_555
O7_9 Gd4_3 1_555 1_555
H4_9 O7_9 1_555 1_555
H5_9 O7_9 1_555 1_555
C3_7 H1_7 1_555 1_555
O3_7 C4_7 1_555 1_555
C3_8 H1_8 1_555 1_555
O3_8 C4_8 1_555 1_555
C5_7 C6_7 1_555 1_555
C6_7 C3_8 1_555 1_555
N4_4 C4_8 1_555 1_555
O8_5 C5_7 1_555 1_555
O10_4 C5_7 1_555 1_555
C6_7 N4_4 1_555 1_555
C1_7 C2_7 1_555 1_555
C2_7 C3_9 1_555 1_555
C3_9 H1_9 1_555 1_555
C4_9 N4_2 1_555 1_555
N4_2 C2_7 1_555 1_555
O8_3 C1_7 1_555 1_555
O10_2 C1_7 1_555 1_555
O3_9 C4_9 1_555 1_555
C3_10 H1_10 1_555 1_555
O3_10 C4_10 1_555 1_555
C1_8 C2_8 1_555 1_555
C2_8 C3_11 1_555 1_555
C3_11 H1_11 1_555 1_555
C4_11 N4 1_555 1_555
N4 C2_8 1_555 1_555
O8_2 C1_8 1_555 1_555
O10 C1_8 1_555 1_555
O3_11 C4_11 1_555 1_555
C3_12 H1_12 1_555 1_555
O3_12 C4_12 1_555 1_555
C3_13 H1_13 1_555 1_555
O3_13 C4_13 1_555 1_555
C3_14 H1_14 1_555 1_555
O3_14 C4_14 1_555 1_555
C5_8 C6_8 1_555 1_555
C6_8 C3_14 1_555 1_555
N4_5 C4_14 1_555 1_555
O8_6 C5_8 1_555 1_555
O10_5 C5_8 1_555 1_555
C6_8 N4_5 1_555 1_555
C1_9 C2_9 1_555 1_555
C2_9 C3_15 1_555 1_555
C3_15 H1_15 1_555 1_555
C4_15 N4_3 1_555 1_555
N4_3 C2_9 1_555 1_555
O8 C1_9 1_555 1_555
O10_3 C1_9 1_555 1_555
O3_15 C4_15 1_555 1_555
C3_16 H1_16 1_555 1_555
O3_16 C4_16 1_555 1_555
C5_9 C6_9 1_555 1_555
C6_9 C3_16 1_555 1_555
N4_6 C4_16 1_555 1_555
O8_4 C5_9 1_555 1_555
O10_6 C5_9 1_555 1_555
C6_9 N4_6 1_555 1_555

#END
