
###############################################################################
#
# This file contains modified crystal structure data generated from the
# MOF subset of the Cambridge Structural Database (CSD) v543 
# hosted by the Cambridge Crystallographic Data Centre (CCDC).
#
# This work is licensed under the Creative Commons
# Attribution-NonCommercial-ShareAlike 4.0 International License.
# To view a copy of this license, visit
# http://creativecommons.org/licenses/by-nc-sa/4.0/
# or send a letter to
# Creative Commons, PO Box 1866, Mountain View, CA 94042, USA.
#
# CIF created using the CSD Python API on 29 September 2022
# The structure has been converted into the P1 space group
# The structure has a 3D framework
# The original CSD entry LIFSEA is in the monoclinic crystal system
# The framework has been calculated to contain at least 10.0% void space
# The void calculation uses a probe of radius 1.32A, grid spacing 0.4
# The framework is charged, counterions have been retained in the structure
#
###############################################################################

data_LIFSEA
_chemical_formula_moiety         '(C204 H168 B8 Cd14 F38 N38 O24 1-)n'
_symmetry_cell_setting           triclinic
_symmetry_space_group_name_H-M   'P 1'
_symmetry_Int_Tables_number      1
_space_group_name_Hall           'P 1'
loop_
_symmetry_equiv_pos_site_id
_symmetry_equiv_pos_as_xyz
1 x,y,z
_cell_length_a                   22.028(6)
_cell_length_b                   12.607(3)
_cell_length_c                   23.179(6)
_cell_angle_alpha                90
_cell_angle_beta                 103.760(5)
_cell_angle_gamma                90
_cell_volume                     6252.23
loop_
_atom_site_label
_atom_site_type_symbol
_atom_site_fract_x
_atom_site_fract_y
_atom_site_fract_z
N1 N 0.5000 0.2110(2) 0.2500
C9 C 0.55313(12) 0.0464(2) 0.27673(14)
H5 H 0.5896 0.0111 0.2953
C10 C 0.55113(13) 0.1554(2) 0.27542(14)
H6 H 0.5873 0.1925 0.2932
C27 C 0.44687(12) 0.0464(2) 0.22327(14)
H22 H 0.4104 0.0111 0.2047
C28 C 0.44887(13) 0.1554(2) 0.22458(14)
H23 H 0.4127 0.1925 0.2068
Cd4 Cd 0.5000 0.400808(18) 0.2500
F1 F 0.5000 0.58244(15) 0.2500
O1 O 0.59944(8) 0.38252(16) 0.24409(10)
Cd2 Cd 0.597525(8) 0.667749(13) 0.270600(8)
C1 C 0.64994(11) 0.4311(2) 0.25909(11)
O2 O 0.65759(9) 0.52158(15) 0.28069(10)
O3 O 0.55083(9) 0.82607(14) 0.27125(10)
N2 N 0.81147(10) 0.26637(18) 0.23330(10)
C2 C 0.70679(11) 0.3728(2) 0.25005(11)
C3 C 0.5000 0.8706(3) 0.2500
C4 C 0.70129(12) 0.2764(2) 0.22155(13)
C5 C 0.76581(13) 0.4153(2) 0.27009(16)
C6 C 0.5000 0.9901(3) 0.2500
H1 H 0.6623 0.2452 0.2078
C7 C 0.75467(12) 0.2266(2) 0.21371(13)
C8 C 0.81626(13) 0.3597(3) 0.26114(17)
H2 H 0.7712 0.4805 0.2893
H3 H 0.7505 0.1620 0.1937
H4 H 0.8559 0.3886 0.2752
N3 N 0.52603(12) 0.38746(19) 0.35514(10)
C11 C 0.58195(15) 0.3553(3) 0.38701(13)
C12 C 0.48211(15) 0.4032(3) 0.38527(13)
H7 H 0.6131 0.3425 0.3670
C13 C 0.59608(15) 0.3400(3) 0.44738(14)
C14 C 0.49217(15) 0.3892(3) 0.44546(14)
H8 H 0.4426 0.4248 0.3643
H9 H 0.6359 0.3181 0.4672
C15 C 0.55048(14) 0.3574(2) 0.47841(13)
H10 H 0.4599 0.4009 0.4642
C16 C 0.56288(14) 0.3453(3) 0.54345(13)
C17 C 0.62066(14) 0.3718(3) 0.58020(13)
C18 C 0.51749(15) 0.3102(3) 0.57101(14)
H11 H 0.6534 0.3932 0.5639
C19 C 0.62876(14) 0.3658(3) 0.64071(14)
C20 C 0.52975(14) 0.3056(3) 0.63172(14)
H12 H 0.4785 0.2897 0.5483
N4 N 0.58441(11) 0.3347(2) 0.66716(11)
H13 H 0.6675 0.3845 0.6646
H14 H 0.4985 0.2810 0.6492
N5 N 0.62946(11) 0.68454(19) 0.37386(11)
C21 C 0.65240(17) 0.6033(3) 0.40887(14)
C22 C 0.62897(15) 0.7790(3) 0.40022(14)
H15 H 0.6554 0.5377 0.3914
C23 C 0.6719(2) 0.6114(3) 0.46968(16)
C24 C 0.64847(18) 0.7926(3) 0.46079(16)
H16 H 0.6149 0.8378 0.3766
H17 H 0.6867 0.5516 0.4921
C25 C 0.66978(17) 0.7070(3) 0.49751(15)
H18 H 0.6473 0.8597 0.4771
C26 C 0.6899(2) 0.7178(5) 0.56396(17)
H19 H 0.7017 0.7900 0.5741
H20 H 0.7250 0.6720 0.5790
H21 H 0.6560 0.6983 0.5812
O4 O 0.44917(9) 0.82607(14) 0.22875(10)
O5 O 0.40056(8) 0.38252(16) 0.25591(10)
Cd3 Cd 0.402475(8) 0.667749(13) 0.229400(8)
C29 C 0.35006(11) 0.4311(2) 0.24091(11)
O6 O 0.34241(9) 0.52158(15) 0.21931(10)
N6 N 0.18853(10) 0.26637(18) 0.26670(10)
C30 C 0.29321(11) 0.3728(2) 0.24995(11)
C31 C 0.29871(12) 0.2764(2) 0.27845(13)
C32 C 0.23419(13) 0.4153(2) 0.22991(16)
H24 H 0.3377 0.2452 0.2922
C33 C 0.24533(12) 0.2266(2) 0.28629(13)
C34 C 0.18374(13) 0.3597(3) 0.23886(17)
H25 H 0.2288 0.4805 0.2107
H26 H 0.2495 0.1620 0.3063
H27 H 0.1441 0.3886 0.2248
N7 N 0.47397(12) 0.38746(19) 0.14486(10)
C35 C 0.41805(15) 0.3553(3) 0.11299(13)
C36 C 0.51789(15) 0.4032(3) 0.11473(13)
H28 H 0.3869 0.3425 0.1330
C37 C 0.40392(15) 0.3400(3) 0.05262(14)
C38 C 0.50783(15) 0.3892(3) 0.05454(14)
H29 H 0.5574 0.4248 0.1357
H30 H 0.3641 0.3181 0.0328
C39 C 0.44952(14) 0.3574(2) 0.02159(13)
H31 H 0.5401 0.4009 0.0358
N9 N 0.37054(11) 0.68454(19) 0.12614(11)
C45 C 0.34760(17) 0.6033(3) 0.09113(14)
C46 C 0.37103(15) 0.7790(3) 0.09978(14)
H36 H 0.3446 0.5377 0.1086
C47 C 0.3281(2) 0.6114(3) 0.03032(16)
C48 C 0.35153(18) 0.7926(3) 0.03921(16)
H37 H 0.3851 0.8378 0.1234
H38 H 0.3133 0.5516 0.0079
C49 C 0.33022(17) 0.7070(3) 0.00249(15)
H39 H 0.3527 0.8597 0.0229
Cd5 Cd 0.097525(8) 0.167749(13) 0.270600(8)
Cd6 Cd 0.902475(8) 0.167749(13) 0.229400(8)
Cd8 Cd 0.597525(8) 0.332251(13) 0.770600(8)
N11 N 0.31147(10) 0.76637(18) 0.23330(10)
N12 N 0.68853(10) 0.76637(18) 0.26670(10)
N13 N 0.41559(11) 0.6653(2) 0.33284(11)
N14 N 0.58441(11) 0.6653(2) 0.16716(11)
C40 C 0.43712(14) 0.3453(3) 0.95655(13)
C41 C 0.37934(14) 0.3718(3) 0.91980(13)
C42 C 0.48251(15) 0.3102(3) 0.92899(14)
H32 H 0.3466 0.3932 0.9361
C43 C 0.37124(14) 0.3658(3) 0.85929(14)
C44 C 0.47025(14) 0.3056(3) 0.86828(14)
H33 H 0.5215 0.2897 0.9517
N8 N 0.41559(11) 0.3347(2) 0.83284(11)
H34 H 0.3325 0.3845 0.8354
H35 H 0.5015 0.2810 0.8508
C50 C 0.3101(2) 0.7178(5) 0.93604(17)
H40 H 0.2983 0.7900 0.9259
H41 H 0.2750 0.6720 0.9210
H42 H 0.3440 0.6983 0.9188
Cd7 Cd 0.402475(8) 0.332251(13) 0.729400(8)
F1_2 F -0.0000 0.08244(15) 0.2500
N1_2 N -0.0000 0.7110(2) 0.2500
O2_2 O 0.15759(9) 0.02158(15) 0.28069(10)
O3_2 O 0.05083(9) 0.32607(14) 0.27125(10)
C3_2 C -0.0000 0.3706(3) 0.2500
C6_2 C -0.0000 0.4901(3) 0.2500
C9_2 C 0.05313(12) 0.5464(2) 0.27673(14)
H5_2 H 0.0896 0.5111 0.2953
C10_2 C 0.05113(13) 0.6554(2) 0.27542(14)
H6_2 H 0.0873 0.6925 0.2932
N5_2 N 0.12946(11) 0.18454(19) 0.37386(11)
C21_2 C 0.15240(17) 0.1033(3) 0.40887(14)
C22_2 C 0.12897(15) 0.2790(3) 0.40022(14)
H15_2 H 0.1554 0.0377 0.3914
C23_2 C 0.1719(2) 0.1114(3) 0.46968(16)
C24_2 C 0.14847(18) 0.2926(3) 0.46079(16)
H16_2 H 0.1149 0.3378 0.3766
H17_2 H 0.1867 0.0516 0.4921
C25_2 C 0.16978(17) 0.2070(3) 0.49751(15)
H18_2 H 0.1473 0.3597 0.4771
C26_2 C 0.1899(2) 0.2178(5) 0.56396(17)
H19_2 H 0.2017 0.2900 0.5741
H20_2 H 0.2250 0.1720 0.5790
H21_2 H 0.1560 0.1983 0.5812
Cd4_2 Cd -0.0000 0.900808(18) 0.2500
N14_2 N 0.08441(11) 0.1653(2) 0.16716(11)
O1_2 O 0.09944(8) 0.88252(16) 0.24409(10)
C1_2 C 0.14994(11) 0.9311(2) 0.25909(11)
C2_2 C 0.20679(11) 0.8728(2) 0.25005(11)
C4_2 C 0.20129(12) 0.7764(2) 0.22155(13)
C5_2 C 0.26581(13) 0.9153(2) 0.27009(16)
H1_2 H 0.1623 0.7452 0.2078
C7_2 C 0.25467(12) 0.7266(2) 0.21371(13)
C8_2 C 0.31626(13) 0.8597(3) 0.26114(17)
H2_2 H 0.2712 0.9805 0.2893
H3_2 H 0.2505 0.6620 0.1937
H4_2 H 0.3559 0.8886 0.2752
N3_2 N 0.02603(12) 0.88746(19) 0.35514(10)
C11_2 C 0.08195(15) 0.8553(3) 0.38701(13)
H7_2 H 0.1131 0.8425 0.3670
C13_2 C 0.09608(15) 0.8400(3) 0.44738(14)
H9_2 H 0.1359 0.8181 0.4672
C15_2 C 0.05048(14) 0.8574(2) 0.47841(13)
C16_2 C 0.06288(14) 0.8453(3) 0.54345(13)
C17_2 C 0.12066(14) 0.8718(3) 0.58020(13)
C18_2 C 0.01749(15) 0.8102(3) 0.57101(14)
H11_2 H 0.1534 0.8932 0.5639
C19_2 C 0.12876(14) 0.8658(3) 0.64071(14)
C20_2 C 0.02975(14) 0.8056(3) 0.63172(14)
N4_2 N 0.08441(11) 0.8347(2) 0.66716(11)
H13_2 H 0.1675 0.8845 0.6646
C36_2 C 0.01789(15) 0.9032(3) 0.11473(13)
C38_2 C 0.00783(15) 0.8892(3) 0.05454(14)
H29_2 H 0.0574 0.9248 0.1357
H31_2 H 0.0401 0.9009 0.0358
Cd8_2 Cd 0.097525(8) 0.832251(13) 0.770600(8)
F1_3 F 1.0000 0.08244(15) 0.2500
N1_3 N 1.0000 0.7110(2) 0.2500
C3_3 C 1.0000 0.3706(3) 0.2500
C6_3 C 1.0000 0.4901(3) 0.2500
O4_2 O 0.94917(9) 0.32607(14) 0.22875(10)
C27_2 C 0.94687(12) 0.5464(2) 0.22327(14)
H22_2 H 0.9104 0.5111 0.2047
C28_2 C 0.94887(13) 0.6554(2) 0.22458(14)
H23_2 H 0.9127 0.6925 0.2068
O6_2 O 0.84241(9) 0.02158(15) 0.21931(10)
N9_2 N 0.87054(11) 0.18454(19) 0.12614(11)
C45_2 C 0.84760(17) 0.1033(3) 0.09113(14)
C46_2 C 0.87103(15) 0.2790(3) 0.09978(14)
H36_2 H 0.8446 0.0377 0.1086
C47_2 C 0.8281(2) 0.1114(3) 0.03032(16)
C48_2 C 0.85153(18) 0.2926(3) 0.03921(16)
H37_2 H 0.8851 0.3378 0.1234
H38_2 H 0.8133 0.0516 0.0079
C49_2 C 0.83022(17) 0.2070(3) 0.00249(15)
H39_2 H 0.8527 0.3597 0.0229
Cd4_3 Cd 1.0000 0.900808(18) 0.2500
N13_2 N 0.91559(11) 0.1653(2) 0.33284(11)
C12_2 C 0.98211(15) 0.9032(3) 0.38527(13)
C14_2 C 0.99217(15) 0.8892(3) 0.44546(14)
H8_2 H 0.9426 0.9248 0.3643
H10_2 H 0.9599 0.9009 0.4642
H12_2 H 0.9785 0.7897 0.5483
H14_2 H 0.9985 0.7810 0.6492
O5_2 O 0.90056(8) 0.88252(16) 0.25591(10)
C29_2 C 0.85006(11) 0.9311(2) 0.24091(11)
C30_2 C 0.79321(11) 0.8728(2) 0.24995(11)
C31_2 C 0.79871(12) 0.7764(2) 0.27845(13)
C32_2 C 0.73419(13) 0.9153(2) 0.22991(16)
H24_2 H 0.8377 0.7452 0.2922
C33_2 C 0.74533(12) 0.7266(2) 0.28629(13)
C34_2 C 0.68374(13) 0.8597(3) 0.23886(17)
H25_2 H 0.7288 0.9805 0.2107
H26_2 H 0.7495 0.6620 0.3063
H27_2 H 0.6441 0.8886 0.2248
N7_2 N 0.97397(12) 0.88746(19) 0.14486(10)
C35_2 C 0.91805(15) 0.8553(3) 0.11299(13)
H28_2 H 0.8869 0.8425 0.1330
C37_2 C 0.90392(15) 0.8400(3) 0.05262(14)
H30_2 H 0.8641 0.8181 0.0328
C39_2 C 0.94952(14) 0.8574(2) 0.02159(13)
C40_2 C 0.93712(14) 0.8453(3) 0.95655(13)
C41_2 C 0.87934(14) 0.8718(3) 0.91980(13)
C42_2 C 0.98251(15) 0.8102(3) 0.92899(14)
H32_2 H 0.8466 0.8932 0.9361
C43_2 C 0.87124(14) 0.8658(3) 0.85929(14)
C44_2 C 0.97025(14) 0.8056(3) 0.86828(14)
N8_2 N 0.91559(11) 0.8347(2) 0.83284(11)
H34_2 H 0.8325 0.8845 0.8354
Cd7_2 Cd 0.902475(8) 0.832251(13) 0.729400(8)
C40_3 C 0.56288(14) 0.6547(3) 0.04345(13)
C41_3 C 0.62066(14) 0.6282(3) 0.08020(13)
C42_3 C 0.51749(15) 0.6898(3) 0.07101(14)
H32_3 H 0.6534 0.6068 0.0639
C43_3 C 0.62876(14) 0.6342(3) 0.14071(14)
C44_3 C 0.52975(14) 0.6944(3) 0.13172(14)
H33_2 H 0.4785 0.7103 0.0483
H34_3 H 0.6675 0.6155 0.1646
H35_2 H 0.4985 0.7190 0.1492
C50_2 C 0.6899(2) 0.2822(5) 0.06396(17)
H40_2 H 0.7017 0.2100 0.0741
H41_2 H 0.7250 0.3280 0.0790
H42_2 H 0.6560 0.3017 0.0812
Cd1 Cd 0.5000 0.599192(18) 0.7500
F1_4 F 0.5000 0.41756(15) 0.7500
O1_3 O 0.40056(8) 0.61748(16) 0.75591(10)
C1_3 C 0.35006(11) 0.5689(2) 0.74091(11)
O2_3 O 0.34241(9) 0.47842(15) 0.71931(10)
O3_3 O 0.44917(9) 0.17393(14) 0.72875(10)
N2_2 N 0.18853(10) 0.73363(18) 0.76670(10)
C2_3 C 0.29321(11) 0.6272(2) 0.74995(11)
C3_4 C 0.5000 0.1294(3) 0.7500
C4_3 C 0.29871(12) 0.7236(2) 0.77845(13)
C5_3 C 0.23419(13) 0.5847(2) 0.72991(16)
C6_4 C 0.5000 0.0099(3) 0.7500
H1_3 H 0.3377 0.7548 0.7922
C7_3 C 0.24533(12) 0.7734(2) 0.78629(13)
C8_3 C 0.18374(13) 0.6403(3) 0.73886(17)
H2_3 H 0.2288 0.5195 0.7107
H3_3 H 0.2495 0.8380 0.8063
H4_3 H 0.1441 0.6114 0.7248
N3_3 N 0.47397(12) 0.61254(19) 0.64486(10)
C11_3 C 0.41805(15) 0.6447(3) 0.61299(13)
C12_3 C 0.51789(15) 0.5968(3) 0.61473(13)
H7_3 H 0.3869 0.6575 0.6330
C13_3 C 0.40392(15) 0.6600(3) 0.55262(14)
C14_3 C 0.50783(15) 0.6108(3) 0.55454(14)
H8_3 H 0.5574 0.5752 0.6357
H9_3 H 0.3641 0.6819 0.5328
C15_3 C 0.44952(14) 0.6426(2) 0.52159(13)
H10_3 H 0.5401 0.5991 0.5358
C16_3 C 0.43712(14) 0.6547(3) 0.45655(13)
C17_3 C 0.37934(14) 0.6282(3) 0.41980(13)
C18_3 C 0.48251(15) 0.6898(3) 0.42899(14)
H11_3 H 0.3466 0.6068 0.4361
C19_3 C 0.37124(14) 0.6342(3) 0.35929(14)
C20_3 C 0.47025(14) 0.6944(3) 0.36828(14)
H12_3 H 0.5215 0.7103 0.4517
H13_3 H 0.3325 0.6155 0.3354
H14_3 H 0.5015 0.7190 0.3508
N5_3 N 0.37054(11) 0.31546(19) 0.62614(11)
C21_3 C 0.34760(17) 0.3967(3) 0.59113(14)
C22_3 C 0.37103(15) 0.2210(3) 0.59978(14)
H15_3 H 0.3446 0.4623 0.6086
C23_3 C 0.3281(2) 0.3886(3) 0.53032(16)
C24_3 C 0.35153(18) 0.2074(3) 0.53921(16)
H16_3 H 0.3851 0.1622 0.6234
H17_3 H 0.3133 0.4484 0.5079
C25_3 C 0.33022(17) 0.2930(3) 0.50249(15)
H18_3 H 0.3527 0.1403 0.5229
C26_3 C 0.3101(2) 0.2822(5) 0.43604(17)
H19_3 H 0.2983 0.2100 0.4259
H20_3 H 0.2750 0.3280 0.4210
H21_3 H 0.3440 0.3017 0.4188
O4_3 O 0.55083(9) 0.17393(14) 0.77125(10)
O5_3 O 0.59944(8) 0.61748(16) 0.74409(10)
C29_3 C 0.64994(11) 0.5689(2) 0.75909(11)
O6_3 O 0.65759(9) 0.47842(15) 0.78069(10)
N6_2 N 0.81147(10) 0.73363(18) 0.73330(10)
C30_3 C 0.70679(11) 0.6272(2) 0.75005(11)
C31_3 C 0.70129(12) 0.7236(2) 0.72155(13)
C32_3 C 0.76581(13) 0.5847(2) 0.77009(16)
H24_3 H 0.6623 0.7548 0.7078
C33_3 C 0.75467(12) 0.7734(2) 0.71371(13)
C34_3 C 0.81626(13) 0.6403(3) 0.76114(17)
H25_3 H 0.7712 0.5195 0.7893
H26_3 H 0.7505 0.8380 0.6937
H27_3 H 0.8559 0.6114 0.7752
N7_3 N 0.52603(12) 0.61254(19) 0.85514(10)
C35_3 C 0.58195(15) 0.6447(3) 0.88701(13)
C36_3 C 0.48211(15) 0.5968(3) 0.88527(13)
H28_3 H 0.6131 0.6575 0.8670
C37_3 C 0.59608(15) 0.6600(3) 0.94738(14)
C38_3 C 0.49217(15) 0.6108(3) 0.94546(14)
H29_3 H 0.4426 0.5752 0.8643
H30_3 H 0.6359 0.6819 0.9672
C39_3 C 0.55048(14) 0.6426(2) 0.97841(13)
H31_3 H 0.4599 0.5991 0.9642
N9_3 N 0.62946(11) 0.31546(19) 0.87386(11)
C45_3 C 0.65240(17) 0.3967(3) 0.90887(14)
C46_3 C 0.62897(15) 0.2210(3) 0.90022(14)
H36_3 H 0.6554 0.4623 0.8914
C47_3 C 0.6719(2) 0.3886(3) 0.96968(16)
C48_3 C 0.64847(18) 0.2074(3) 0.96079(16)
H37_3 H 0.6149 0.1622 0.8766
H38_3 H 0.6867 0.4484 0.9921
C49_3 C 0.66978(17) 0.2930(3) 0.99751(15)
H39_3 H 0.6473 0.1403 0.9771
N10 N 0.5000 0.7890(2) 0.7500
N11_2 N 0.68853(10) 0.23363(18) 0.76670(10)
N12_2 N 0.31147(10) 0.23363(18) 0.73330(10)
C9_3 C 0.44687(12) 0.9536(2) 0.72327(14)
H5_3 H 0.4104 0.9889 0.7047
C10_3 C 0.44887(13) 0.8446(2) 0.72458(14)
H6_3 H 0.4127 0.8075 0.7068
C27_3 C 0.55313(12) 0.9536(2) 0.77673(14)
H22_3 H 0.5896 0.9889 0.7953
C28_3 C 0.55113(13) 0.8446(2) 0.77542(14)
H23_3 H 0.5873 0.8075 0.7932
C40_4 C 0.06288(14) 0.1547(3) 0.04345(13)
C41_4 C 0.12066(14) 0.1282(3) 0.08020(13)
C42_4 C 0.01749(15) 0.1898(3) 0.07101(14)
H32_4 H 0.1534 0.1068 0.0639
C43_4 C 0.12876(14) 0.1342(3) 0.14071(14)
C44_4 C 0.02975(14) 0.1944(3) 0.13172(14)
H34_4 H 0.1675 0.1155 0.1646
Cd1_2 Cd 0.0000 0.099192(18) 0.7500
C12_4 C 0.01789(15) 0.0968(3) 0.61473(13)
C14_4 C 0.00783(15) 0.1108(3) 0.55454(14)
H8_4 H 0.0574 0.0752 0.6357
H10_4 H 0.0401 0.0991 0.5358
H12_4 H 0.0215 0.2103 0.4517
H14_4 H 0.0015 0.2190 0.3508
O5_4 O 0.09944(8) 0.11748(16) 0.74409(10)
C29_4 C 0.14994(11) 0.0689(2) 0.75909(11)
C30_4 C 0.20679(11) 0.1272(2) 0.75005(11)
C31_4 C 0.20129(12) 0.2236(2) 0.72155(13)
C32_4 C 0.26581(13) 0.0847(2) 0.77009(16)
H24_4 H 0.1623 0.2548 0.7078
C33_4 C 0.25467(12) 0.2734(2) 0.71371(13)
C34_4 C 0.31626(13) 0.1403(3) 0.76114(17)
H25_4 H 0.2712 0.0195 0.7893
H26_4 H 0.2505 0.3380 0.6937
H27_4 H 0.3559 0.1114 0.7752
N7_4 N 0.02603(12) 0.11254(19) 0.85514(10)
C35_4 C 0.08195(15) 0.1447(3) 0.88701(13)
H28_4 H 0.1131 0.1575 0.8670
C37_4 C 0.09608(15) 0.1600(3) 0.94738(14)
H30_4 H 0.1359 0.1819 0.9672
C39_4 C 0.05048(14) 0.1426(2) 0.97841(13)
N10_2 N 0.0000 0.2890(2) 0.7500
F1_5 F 0.0000 0.91756(15) 0.7500
C3_5 C 0.0000 0.6294(3) 0.7500
C6_5 C 0.0000 0.5099(3) 0.7500
O4_4 O 0.05083(9) 0.67393(14) 0.77125(10)
C27_4 C 0.05313(12) 0.4536(2) 0.77673(14)
H22_4 H 0.0896 0.4889 0.7953
C28_4 C 0.05113(13) 0.3446(2) 0.77542(14)
H23_4 H 0.0873 0.3075 0.7932
O6_4 O 0.15759(9) 0.97842(15) 0.78069(10)
N9_4 N 0.12946(11) 0.81546(19) 0.87386(11)
C45_4 C 0.15240(17) 0.8967(3) 0.90887(14)
C46_4 C 0.12897(15) 0.7210(3) 0.90022(14)
H36_4 H 0.1554 0.9623 0.8914
C47_4 C 0.1719(2) 0.8886(3) 0.96968(16)
C48_4 C 0.14847(18) 0.7074(3) 0.96079(16)
H37_4 H 0.1149 0.6622 0.8766
H38_4 H 0.1867 0.9484 0.9921
C49_4 C 0.16978(17) 0.7930(3) 0.99751(15)
H39_4 H 0.1473 0.6403 0.9771
Cd1_3 Cd 1.0000 0.099192(18) 0.7500
O1_4 O 0.90056(8) 0.11748(16) 0.75591(10)
C1_4 C 0.85006(11) 0.0689(2) 0.74091(11)
C2_4 C 0.79321(11) 0.1272(2) 0.74995(11)
C4_4 C 0.79871(12) 0.2236(2) 0.77845(13)
C5_4 C 0.73419(13) 0.0847(2) 0.72991(16)
H1_4 H 0.8377 0.2548 0.7922
C7_4 C 0.74533(12) 0.2734(2) 0.78629(13)
C8_4 C 0.68374(13) 0.1403(3) 0.73886(17)
H2_4 H 0.7288 0.0195 0.7107
H3_4 H 0.7495 0.3380 0.8063
H4_4 H 0.6441 0.1114 0.7248
N3_4 N 0.97397(12) 0.11254(19) 0.64486(10)
C11_4 C 0.91805(15) 0.1447(3) 0.61299(13)
H7_4 H 0.8869 0.1575 0.6330
C13_4 C 0.90392(15) 0.1600(3) 0.55262(14)
H9_4 H 0.8641 0.1819 0.5328
C15_4 C 0.94952(14) 0.1426(2) 0.52159(13)
C16_4 C 0.93712(14) 0.1547(3) 0.45655(13)
C17_4 C 0.87934(14) 0.1282(3) 0.41980(13)
C18_4 C 0.98251(15) 0.1898(3) 0.42899(14)
H11_4 H 0.8466 0.1068 0.4361
C19_4 C 0.87124(14) 0.1342(3) 0.35929(14)
C20_4 C 0.97025(14) 0.1944(3) 0.36828(14)
H13_4 H 0.8325 0.1155 0.3354
C36_4 C 0.98211(15) 0.0968(3) 0.88527(13)
C38_4 C 0.99217(15) 0.1108(3) 0.94546(14)
H29_4 H 0.9426 0.0752 0.8643
H31_4 H 0.9599 0.0991 0.9642
N10_3 N 1.0000 0.2890(2) 0.7500
F1_6 F 1.0000 0.91756(15) 0.7500
O2_4 O 0.84241(9) 0.97842(15) 0.71931(10)
O3_4 O 0.94917(9) 0.67393(14) 0.72875(10)
C3_6 C 1.0000 0.6294(3) 0.7500
C6_6 C 1.0000 0.5099(3) 0.7500
C9_4 C 0.94687(12) 0.4536(2) 0.72327(14)
H5_4 H 0.9104 0.4889 0.7047
C10_4 C 0.94887(13) 0.3446(2) 0.72458(14)
H6_4 H 0.9127 0.3075 0.7068
N5_4 N 0.87054(11) 0.81546(19) 0.62614(11)
C21_4 C 0.84760(17) 0.8967(3) 0.59113(14)
C22_4 C 0.87103(15) 0.7210(3) 0.59978(14)
H15_4 H 0.8446 0.9623 0.6086
C23_4 C 0.8281(2) 0.8886(3) 0.53032(16)
C24_4 C 0.85153(18) 0.7074(3) 0.53921(16)
H16_4 H 0.8851 0.6622 0.6234
H17_4 H 0.8133 0.9484 0.5079
C25_4 C 0.83022(17) 0.7930(3) 0.50249(15)
H18_4 H 0.8527 0.6403 0.5229
C26_4 C 0.8101(2) 0.7822(5) 0.43604(17)
H19_4 H 0.7983 0.7100 0.4259
H20_4 H 0.7750 0.8280 0.4210
H21_4 H 0.8440 0.8017 0.4188
H33_3 H 0.0215 0.7897 0.9517
H35_3 H 0.0015 0.7810 0.8508
C50_3 C 0.8101(2) 0.2178(5) 0.93604(17)
H40_3 H 0.7983 0.2900 0.9259
H41_3 H 0.7750 0.1720 0.9210
H42_3 H 0.8440 0.1983 0.9188
C50_4 C 0.1899(2) 0.7822(5) 0.06396(17)
H40_4 H 0.2017 0.7100 0.0741
H41_4 H 0.2250 0.8280 0.0790
H42_4 H 0.1560 0.8017 0.0812
H33_4 H 0.9785 0.2103 0.0483
H35_4 H 0.9985 0.2190 0.1492
B1 B 0.70074(19) 0.0916(4) 0.4059(2)
F2 F 0.6467(3) 0.0469(11) 0.4085(5)
F3 F 0.6890(6) 0.1723(8) 0.3677(5)
F4 F 0.7300(7) 0.1305(12) 0.4593(4)
F5 F 0.7382(6) 0.0210(9) 0.3897(6)
B1_2 B 0.29926(19) 0.0916(4) 0.0941(2)
F2_2 F 0.3533(3) 0.0469(11) 0.0915(5)
F3_2 F 0.3110(6) 0.1723(8) 0.1323(5)
F4_2 F 0.2700(7) 0.1305(12) 0.0407(4)
F5_2 F 0.2618(6) 0.0210(9) 0.1103(6)
B1_3 B 0.20074(19) 0.5916(4) 0.4059(2)
F2_3 F 0.1467(3) 0.5469(11) 0.4085(5)
F3_3 F 0.1890(6) 0.6723(8) 0.3677(5)
F4_3 F 0.2300(7) 0.6305(12) 0.4593(4)
F5_3 F 0.2382(6) 0.5210(9) 0.3897(6)
B1_4 B 0.79926(19) 0.5916(4) 0.0941(2)
F2_4 F 0.8533(3) 0.5469(11) 0.0915(5)
F3_4 F 0.8110(6) 0.6723(8) 0.1323(5)
F4_4 F 0.7700(7) 0.6305(12) 0.0407(4)
F5_4 F 0.7618(6) 0.5210(9) 0.1103(6)
B1_5 B 0.29926(19) 0.9084(4) 0.5941(2)
F2_5 F 0.3533(3) 0.9531(11) 0.5915(5)
F3_5 F 0.3110(6) 0.8277(8) 0.6323(5)
F4_5 F 0.2700(7) 0.8695(12) 0.5407(4)
F5_5 F 0.2618(6) 0.9790(9) 0.6103(6)
B1_6 B 0.70074(19) 0.9084(4) 0.9059(2)
F2_6 F 0.6467(3) 0.9531(11) 0.9085(5)
F3_6 F 0.6890(6) 0.8277(8) 0.8677(5)
F4_6 F 0.7300(7) 0.8695(12) 0.9593(4)
F5_6 F 0.7382(6) 0.9790(9) 0.8897(6)
B1_7 B 0.79926(19) 0.4084(4) 0.5941(2)
F2_7 F 0.8533(3) 0.4531(11) 0.5915(5)
F3_7 F 0.8110(6) 0.3277(8) 0.6323(5)
F4_7 F 0.7700(7) 0.3695(12) 0.5407(4)
F5_7 F 0.7618(6) 0.4790(9) 0.6103(6)
B1_8 B 0.20074(19) 0.4084(4) 0.9059(2)
F2_8 F 0.1467(3) 0.4531(11) 0.9085(5)
F3_8 F 0.1890(6) 0.3277(8) 0.8677(5)
F4_8 F 0.2300(7) 0.3695(12) 0.9593(4)
F5_8 F 0.2382(6) 0.4790(9) 0.8897(6)
loop_
_geom_bond_atom_site_label_1
_geom_bond_atom_site_label_2
_geom_bond_site_symmetry_1
_geom_bond_site_symmetry_2
N1 C10 1_555 1_555
H5 C9 1_555 1_555
C10 C9 1_555 1_555
H6 C10 1_555 1_555
H22 C27 1_555 1_555
C28 N1 1_555 1_555
H23 C28 1_555 1_555
Cd4 N1 1_555 1_555
C27 C28 1_555 1_555
Cd4 F1 1_555 1_555
F1 Cd2 1_555 1_555
O1 Cd4 1_555 1_555
Cd2 O2 1_555 1_555
C1 O1 1_555 1_555
O2 C1 1_555 1_555
O3 Cd2 1_555 1_555
N2 C7 1_555 1_555
C2 C1 1_555 1_555
C3 O3 1_555 1_555
C4 C2 1_555 1_555
C5 C2 1_555 1_555
C6 C3 1_555 1_555
H1 C4 1_555 1_555
C7 C4 1_555 1_555
C8 N2 1_555 1_555
H2 C5 1_555 1_555
H3 C7 1_555 1_555
H4 C8 1_555 1_555
N3 Cd4 1_555 1_555
C11 N3 1_555 1_555
C12 N3 1_555 1_555
H7 C11 1_555 1_555
C13 C11 1_555 1_555
C14 C12 1_555 1_555
H8 C12 1_555 1_555
H9 C13 1_555 1_555
C15 C13 1_555 1_555
H10 C14 1_555 1_555
C16 C15 1_555 1_555
C17 C16 1_555 1_555
C18 C16 1_555 1_555
H11 C17 1_555 1_555
C19 C17 1_555 1_555
C20 C18 1_555 1_555
H12 C18 1_555 1_555
N4 C19 1_555 1_555
H13 C19 1_555 1_555
H14 C20 1_555 1_555
N5 Cd2 1_555 1_555
C21 N5 1_555 1_555
C22 N5 1_555 1_555
H15 C21 1_555 1_555
C23 C21 1_555 1_555
C24 C22 1_555 1_555
H16 C22 1_555 1_555
H17 C23 1_555 1_555
C25 C23 1_555 1_555
H18 C24 1_555 1_555
C26 C25 1_555 1_555
H19 C26 1_555 1_555
H20 C26 1_555 1_555
H21 C26 1_555 1_555
O4 C3 1_555 1_555
O5 Cd4 1_555 1_555
Cd3 F1 1_555 1_555
C29 O5 1_555 1_555
O6 Cd3 1_555 1_555
N6 C33 1_555 1_555
C30 C29 1_555 1_555
C31 C30 1_555 1_555
C32 C30 1_555 1_555
H24 C31 1_555 1_555
C33 C31 1_555 1_555
C34 N6 1_555 1_555
H25 C32 1_555 1_555
H26 C33 1_555 1_555
H27 C34 1_555 1_555
N7 Cd4 1_555 1_555
C35 N7 1_555 1_555
C36 N7 1_555 1_555
H28 C35 1_555 1_555
C37 C35 1_555 1_555
C38 C36 1_555 1_555
H29 C36 1_555 1_555
H30 C37 1_555 1_555
C39 C37 1_555 1_555
H31 C38 1_555 1_555
N9 Cd3 1_555 1_555
C45 N9 1_555 1_555
C46 N9 1_555 1_555
H36 C45 1_555 1_555
C47 C45 1_555 1_555
C48 C46 1_555 1_555
H37 C46 1_555 1_555
H38 C47 1_555 1_555
C49 C47 1_555 1_555
H39 C48 1_555 1_555
Cd5 N6 1_555 1_555
Cd6 N2 1_555 1_555
Cd8 N4 1_555 1_555
N11 Cd3 1_555 1_555
N12 Cd2 1_555 1_555
N13 Cd3 1_555 1_555
N14 Cd2 1_555 1_555
C5 C8 1_555 1_555
C14 C15 1_555 1_555
C20 N4 1_555 1_555
C24 C25 1_555 1_555
O4 Cd3 1_555 1_555
C29 O6 1_555 1_555
C32 C34 1_555 1_555
C38 C39 1_555 1_555
C48 C49 1_555 1_555
C41 C40 1_555 1_555
C42 C40 1_555 1_555
H32 C41 1_555 1_555
C43 C41 1_555 1_555
C44 C42 1_555 1_555
H33 C42 1_555 1_555
N8 C43 1_555 1_555
H34 C43 1_555 1_555
H35 C44 1_555 1_555
H40 C50 1_555 1_555
H41 C50 1_555 1_555
H42 C50 1_555 1_555
Cd7 N8 1_555 1_555
C44 N8 1_555 1_555
F1_2 Cd5 1_555 1_555
N1_2 C10_2 1_555 1_555
Cd5 O2_2 1_555 1_555
O3_2 Cd5 1_555 1_555
C3_2 O3_2 1_555 1_555
C6_2 C3_2 1_555 1_555
C9_2 C6_2 1_555 1_555
H5_2 C9_2 1_555 1_555
C10_2 C9_2 1_555 1_555
H6_2 C10_2 1_555 1_555
N5_2 Cd5 1_555 1_555
C21_2 N5_2 1_555 1_555
C22_2 N5_2 1_555 1_555
H15_2 C21_2 1_555 1_555
C23_2 C21_2 1_555 1_555
C24_2 C22_2 1_555 1_555
H16_2 C22_2 1_555 1_555
H17_2 C23_2 1_555 1_555
C25_2 C23_2 1_555 1_555
H18_2 C24_2 1_555 1_555
C26_2 C25_2 1_555 1_555
H19_2 C26_2 1_555 1_555
H20_2 C26_2 1_555 1_555
H21_2 C26_2 1_555 1_555
Cd4_2 N1_2 1_555 1_555
N14_2 Cd5 1_555 1_555
C24_2 C25_2 1_555 1_555
O1_2 Cd4_2 1_555 1_555
C1_2 O1_2 1_555 1_555
N11 C7_2 1_555 1_555
C2_2 C1_2 1_555 1_555
C4_2 C2_2 1_555 1_555
C5_2 C2_2 1_555 1_555
H1_2 C4_2 1_555 1_555
C7_2 C4_2 1_555 1_555
C8_2 N11 1_555 1_555
H2_2 C5_2 1_555 1_555
H3_2 C7_2 1_555 1_555
H4_2 C8_2 1_555 1_555
N3_2 Cd4_2 1_555 1_555
C11_2 N3_2 1_555 1_555
H7_2 C11_2 1_555 1_555
C13_2 C11_2 1_555 1_555
H9_2 C13_2 1_555 1_555
C15_2 C13_2 1_555 1_555
C16_2 C15_2 1_555 1_555
C17_2 C16_2 1_555 1_555
C18_2 C16_2 1_555 1_555
H11_2 C17_2 1_555 1_555
C19_2 C17_2 1_555 1_555
C20_2 C18_2 1_555 1_555
N4_2 C19_2 1_555 1_555
H13_2 C19_2 1_555 1_555
C38_2 C36_2 1_555 1_555
H29_2 C36_2 1_555 1_555
H31_2 C38_2 1_555 1_555
Cd8_2 N4_2 1_555 1_555
C5_2 C8_2 1_555 1_555
C20_2 N4_2 1_555 1_555
C6_3 C3_3 1_555 1_555
O4_2 C3_3 1_555 1_555
C27_2 C6_3 1_555 1_555
H22_2 C27_2 1_555 1_555
C28_2 N1_3 1_555 1_555
H23_2 C28_2 1_555 1_555
Cd6 F1_3 1_555 1_555
O6_2 Cd6 1_555 1_555
N9_2 Cd6 1_555 1_555
C45_2 N9_2 1_555 1_555
C46_2 N9_2 1_555 1_555
H36_2 C45_2 1_555 1_555
C47_2 C45_2 1_555 1_555
C48_2 C46_2 1_555 1_555
H37_2 C46_2 1_555 1_555
H38_2 C47_2 1_555 1_555
C49_2 C47_2 1_555 1_555
H39_2 C48_2 1_555 1_555
Cd4_3 N1_3 1_555 1_555
N13_2 Cd6 1_555 1_555
O4_2 Cd6 1_555 1_555
C27_2 C28_2 1_555 1_555
C48_2 C49_2 1_555 1_555
C14_2 C12_2 1_555 1_555
H8_2 C12_2 1_555 1_555
H10_2 C14_2 1_555 1_555
O5_2 Cd4_3 1_555 1_555
C29_2 O5_2 1_555 1_555
N12 C33_2 1_555 1_555
C30_2 C29_2 1_555 1_555
C31_2 C30_2 1_555 1_555
C32_2 C30_2 1_555 1_555
H24_2 C31_2 1_555 1_555
C33_2 C31_2 1_555 1_555
C34_2 N12 1_555 1_555
H25_2 C32_2 1_555 1_555
H26_2 C33_2 1_555 1_555
H27_2 C34_2 1_555 1_555
N7_2 Cd4_3 1_555 1_555
C35_2 N7_2 1_555 1_555
H28_2 C35_2 1_555 1_555
C37_2 C35_2 1_555 1_555
H30_2 C37_2 1_555 1_555
C39_2 C37_2 1_555 1_555
C32_2 C34_2 1_555 1_555
C41_2 C40_2 1_555 1_555
C42_2 C40_2 1_555 1_555
H32_2 C41_2 1_555 1_555
C43_2 C41_2 1_555 1_555
C44_2 C42_2 1_555 1_555
N8_2 C43_2 1_555 1_555
H34_2 C43_2 1_555 1_555
Cd7_2 N8_2 1_555 1_555
C44_2 N8_2 1_555 1_555
C41_3 C40_3 1_555 1_555
C42_3 C40_3 1_555 1_555
H32_3 C41_3 1_555 1_555
C43_3 C41_3 1_555 1_555
C44_3 C42_3 1_555 1_555
H33_2 C42_3 1_555 1_555
N14 C43_3 1_555 1_555
H34_3 C43_3 1_555 1_555
H35_2 C44_3 1_555 1_555
H40_2 C50_2 1_555 1_555
H41_2 C50_2 1_555 1_555
H42_2 C50_2 1_555 1_555
C44_3 N14 1_555 1_555
Cd1 F1_4 1_555 1_555
F1_4 Cd7 1_555 1_555
O1_3 Cd1 1_555 1_555
Cd7 O2_3 1_555 1_555
C1_3 O1_3 1_555 1_555
O2_3 C1_3 1_555 1_555
O3_3 Cd7 1_555 1_555
N2_2 C7_3 1_555 1_555
C2_3 C1_3 1_555 1_555
C3_4 O3_3 1_555 1_555
C4_3 C2_3 1_555 1_555
C5_3 C2_3 1_555 1_555
C6_4 C3_4 1_555 1_555
H1_3 C4_3 1_555 1_555
C7_3 C4_3 1_555 1_555
C8_3 N2_2 1_555 1_555
H2_3 C5_3 1_555 1_555
H3_3 C7_3 1_555 1_555
H4_3 C8_3 1_555 1_555
N3_3 Cd1 1_555 1_555
C11_3 N3_3 1_555 1_555
C12_3 N3_3 1_555 1_555
H7_3 C11_3 1_555 1_555
C13_3 C11_3 1_555 1_555
C14_3 C12_3 1_555 1_555
H8_3 C12_3 1_555 1_555
H9_3 C13_3 1_555 1_555
C15_3 C13_3 1_555 1_555
H10_3 C14_3 1_555 1_555
C16_3 C15_3 1_555 1_555
C17_3 C16_3 1_555 1_555
C18_3 C16_3 1_555 1_555
H11_3 C17_3 1_555 1_555
C19_3 C17_3 1_555 1_555
C20_3 C18_3 1_555 1_555
H12_3 C18_3 1_555 1_555
N13 C19_3 1_555 1_555
H13_3 C19_3 1_555 1_555
H14_3 C20_3 1_555 1_555
N5_3 Cd7 1_555 1_555
C21_3 N5_3 1_555 1_555
C22_3 N5_3 1_555 1_555
H15_3 C21_3 1_555 1_555
C23_3 C21_3 1_555 1_555
C24_3 C22_3 1_555 1_555
H16_3 C22_3 1_555 1_555
H17_3 C23_3 1_555 1_555
C25_3 C23_3 1_555 1_555
H18_3 C24_3 1_555 1_555
C26_3 C25_3 1_555 1_555
H19_3 C26_3 1_555 1_555
H20_3 C26_3 1_555 1_555
H21_3 C26_3 1_555 1_555
O4_3 C3_4 1_555 1_555
O5_3 Cd1 1_555 1_555
Cd8 F1_4 1_555 1_555
C29_3 O5_3 1_555 1_555
O6_3 Cd8 1_555 1_555
N6_2 C33_3 1_555 1_555
C30_3 C29_3 1_555 1_555
C31_3 C30_3 1_555 1_555
C32_3 C30_3 1_555 1_555
H24_3 C31_3 1_555 1_555
C33_3 C31_3 1_555 1_555
C34_3 N6_2 1_555 1_555
H25_3 C32_3 1_555 1_555
H26_3 C33_3 1_555 1_555
H27_3 C34_3 1_555 1_555
N7_3 Cd1 1_555 1_555
C35_3 N7_3 1_555 1_555
C36_3 N7_3 1_555 1_555
H28_3 C35_3 1_555 1_555
C37_3 C35_3 1_555 1_555
C38_3 C36_3 1_555 1_555
H29_3 C36_3 1_555 1_555
H30_3 C37_3 1_555 1_555
C39_3 C37_3 1_555 1_555
H31_3 C38_3 1_555 1_555
N9_3 Cd8 1_555 1_555
C45_3 N9_3 1_555 1_555
C46_3 N9_3 1_555 1_555
H36_3 C45_3 1_555 1_555
C47_3 C45_3 1_555 1_555
C48_3 C46_3 1_555 1_555
H37_3 C46_3 1_555 1_555
H38_3 C47_3 1_555 1_555
C49_3 C47_3 1_555 1_555
H39_3 C48_3 1_555 1_555
N10 Cd1 1_555 1_555
Cd7_2 N6_2 1_555 1_555
Cd8_2 N2_2 1_555 1_555
N11_2 Cd8 1_555 1_555
N12_2 Cd7 1_555 1_555
C5_3 C8_3 1_555 1_555
C14_3 C15_3 1_555 1_555
C20_3 N13 1_555 1_555
C24_3 C25_3 1_555 1_555
O4_3 Cd8 1_555 1_555
C29_3 O6_3 1_555 1_555
C32_3 C34_3 1_555 1_555
C38_3 C39_3 1_555 1_555
C48_3 C49_3 1_555 1_555
N10 C10_3 1_555 1_555
H5_3 C9_3 1_555 1_555
C10_3 C9_3 1_555 1_555
H6_3 C10_3 1_555 1_555
H22_3 C27_3 1_555 1_555
C28_3 N10 1_555 1_555
H23_3 C28_3 1_555 1_555
C27_3 C28_3 1_555 1_555
C41_4 C40_4 1_555 1_555
C42_4 C40_4 1_555 1_555
H32_4 C41_4 1_555 1_555
C43_4 C41_4 1_555 1_555
C44_4 C42_4 1_555 1_555
N14_2 C43_4 1_555 1_555
H34_4 C43_4 1_555 1_555
C44_4 N14_2 1_555 1_555
C14_4 C12_4 1_555 1_555
H8_4 C12_4 1_555 1_555
H10_4 C14_4 1_555 1_555
O5_4 Cd1_2 1_555 1_555
C29_4 O5_4 1_555 1_555
N12_2 C33_4 1_555 1_555
C30_4 C29_4 1_555 1_555
C31_4 C30_4 1_555 1_555
C32_4 C30_4 1_555 1_555
H24_4 C31_4 1_555 1_555
C33_4 C31_4 1_555 1_555
C34_4 N12_2 1_555 1_555
H25_4 C32_4 1_555 1_555
H26_4 C33_4 1_555 1_555
H27_4 C34_4 1_555 1_555
N7_4 Cd1_2 1_555 1_555
C35_4 N7_4 1_555 1_555
H28_4 C35_4 1_555 1_555
C37_4 C35_4 1_555 1_555
H30_4 C37_4 1_555 1_555
C39_4 C37_4 1_555 1_555
N10_2 Cd1_2 1_555 1_555
C32_4 C34_4 1_555 1_555
C6_5 C3_5 1_555 1_555
O4_4 C3_5 1_555 1_555
C27_4 C6_5 1_555 1_555
H22_4 C27_4 1_555 1_555
C28_4 N10_2 1_555 1_555
H23_4 C28_4 1_555 1_555
Cd8_2 F1_5 1_555 1_555
O6_4 Cd8_2 1_555 1_555
N9_4 Cd8_2 1_555 1_555
C45_4 N9_4 1_555 1_555
C46_4 N9_4 1_555 1_555
H36_4 C45_4 1_555 1_555
C47_4 C45_4 1_555 1_555
C48_4 C46_4 1_555 1_555
H37_4 C46_4 1_555 1_555
H38_4 C47_4 1_555 1_555
C49_4 C47_4 1_555 1_555
H39_4 C48_4 1_555 1_555
O4_4 Cd8_2 1_555 1_555
C27_4 C28_4 1_555 1_555
C48_4 C49_4 1_555 1_555
O1_4 Cd1_3 1_555 1_555
C1_4 O1_4 1_555 1_555
N11_2 C7_4 1_555 1_555
C2_4 C1_4 1_555 1_555
C4_4 C2_4 1_555 1_555
C5_4 C2_4 1_555 1_555
H1_4 C4_4 1_555 1_555
C7_4 C4_4 1_555 1_555
C8_4 N11_2 1_555 1_555
H2_4 C5_4 1_555 1_555
H3_4 C7_4 1_555 1_555
H4_4 C8_4 1_555 1_555
N3_4 Cd1_3 1_555 1_555
C11_4 N3_4 1_555 1_555
H7_4 C11_4 1_555 1_555
C13_4 C11_4 1_555 1_555
H9_4 C13_4 1_555 1_555
C15_4 C13_4 1_555 1_555
C16_4 C15_4 1_555 1_555
C17_4 C16_4 1_555 1_555
C18_4 C16_4 1_555 1_555
H11_4 C17_4 1_555 1_555
C19_4 C17_4 1_555 1_555
C20_4 C18_4 1_555 1_555
N13_2 C19_4 1_555 1_555
H13_4 C19_4 1_555 1_555
C38_4 C36_4 1_555 1_555
H29_4 C36_4 1_555 1_555
H31_4 C38_4 1_555 1_555
N10_3 Cd1_3 1_555 1_555
C5_4 C8_4 1_555 1_555
C20_4 N13_2 1_555 1_555
F1_6 Cd7_2 1_555 1_555
N10_3 C10_4 1_555 1_555
Cd7_2 O2_4 1_555 1_555
O3_4 Cd7_2 1_555 1_555
C3_6 O3_4 1_555 1_555
C6_6 C3_6 1_555 1_555
C9_4 C6_6 1_555 1_555
H5_4 C9_4 1_555 1_555
C10_4 C9_4 1_555 1_555
H6_4 C10_4 1_555 1_555
N5_4 Cd7_2 1_555 1_555
C21_4 N5_4 1_555 1_555
C22_4 N5_4 1_555 1_555
H15_4 C21_4 1_555 1_555
C23_4 C21_4 1_555 1_555
C24_4 C22_4 1_555 1_555
H16_4 C22_4 1_555 1_555
H17_4 C23_4 1_555 1_555
C25_4 C23_4 1_555 1_555
H18_4 C24_4 1_555 1_555
C26_4 C25_4 1_555 1_555
H19_4 C26_4 1_555 1_555
H20_4 C26_4 1_555 1_555
H21_4 C26_4 1_555 1_555
C24_4 C25_4 1_555 1_555
H40_3 C50_3 1_555 1_555
H41_3 C50_3 1_555 1_555
H42_3 C50_3 1_555 1_555
H40_4 C50_4 1_555 1_555
H41_4 C50_4 1_555 1_555
H42_4 C50_4 1_555 1_555
B1 F2 1_555 1_555
F3 B1 1_555 1_555
F4 B1 1_555 1_555
F5 B1 1_555 1_555
B1_2 F2_2 1_555 1_555
F3_2 B1_2 1_555 1_555
F4_2 B1_2 1_555 1_555
F5_2 B1_2 1_555 1_555
B1_3 F2_3 1_555 1_555
F3_3 B1_3 1_555 1_555
F4_3 B1_3 1_555 1_555
F5_3 B1_3 1_555 1_555
B1_4 F2_4 1_555 1_555
F3_4 B1_4 1_555 1_555
F4_4 B1_4 1_555 1_555
F5_4 B1_4 1_555 1_555
B1_5 F2_5 1_555 1_555
F3_5 B1_5 1_555 1_555
F4_5 B1_5 1_555 1_555
F5_5 B1_5 1_555 1_555
B1_6 F2_6 1_555 1_555
F3_6 B1_6 1_555 1_555
F4_6 B1_6 1_555 1_555
F5_6 B1_6 1_555 1_555
B1_7 F2_7 1_555 1_555
F3_7 B1_7 1_555 1_555
F4_7 B1_7 1_555 1_555
F5_7 B1_7 1_555 1_555
B1_8 F2_8 1_555 1_555
F3_8 B1_8 1_555 1_555
F4_8 B1_8 1_555 1_555
F5_8 B1_8 1_555 1_555

#END
