
###############################################################################
#
# This file contains modified crystal structure data generated from the
# MOF subset of the Cambridge Structural Database (CSD) v543 
# hosted by the Cambridge Crystallographic Data Centre (CCDC).
#
# This work is licensed under the Creative Commons
# Attribution-NonCommercial-ShareAlike 4.0 International License.
# To view a copy of this license, visit
# http://creativecommons.org/licenses/by-nc-sa/4.0/
# or send a letter to
# Creative Commons, PO Box 1866, Mountain View, CA 94042, USA.
#
# CIF created using the CSD Python API on 29 September 2022
# The structure has been converted into the P1 space group
# The structure has a 3D framework
# The original CSD entry LIFWEE is in the tetragonal crystal system
# The framework has been calculated to contain at least 10.0% void space
# The void calculation uses a probe of radius 1.32A, grid spacing 0.4
#
###############################################################################

data_LIFWEE
_chemical_formula_moiety         '(C48 H56 Cu12 N24 O28)n'
_symmetry_cell_setting           triclinic
_symmetry_space_group_name_H-M   'P 1'
_symmetry_Int_Tables_number      1
_space_group_name_Hall           'P 1'
loop_
_symmetry_equiv_pos_site_id
_symmetry_equiv_pos_as_xyz
1 x,y,z
_cell_length_a                   14.04550(10)
_cell_length_b                   14.04550(10)
_cell_length_c                   14.6075(2)
_cell_angle_alpha                90
_cell_angle_beta                 90
_cell_angle_gamma                90
_cell_volume                     2881.71
loop_
_atom_site_label
_atom_site_type_symbol
_atom_site_fract_x
_atom_site_fract_y
_atom_site_fract_z
Cu1 Cu 0.5000 0.5000 -0.0000
Cu4 Cu 0.0000 0.0000 -0.0000
O10 O 0.5239(2) 0.3862(2) 0.10006(19)
O13 O 0.3862(2) 0.5239(2) 0.10006(19)
N7 N 0.5867(2) 0.5867(2) 0.0717(3)
Cu1_2 Cu 0.5000 0.5000 1.0000
Cu2 Cu 0.16622(4) 0.33378(4) 0.79139(5)
O1 O 0.1138(2) 0.5239(2) 0.60006(19)
N1 N 0.4133(2) 0.4133(2) 0.9283(3)
N2 N 0.2872(2) 0.3568(2) 0.8565(2)
C1 C 0.3231(3) 0.4304(3) 0.8992(2)
C2 C 0.2699(4) 0.5212(3) 0.9150(3)
H1 H 0.2243 0.5302 0.8668
H2 H 0.3138 0.5736 0.9154
H3 H 0.2375 0.5181 0.9728
O2 O 0.1791(2) 0.4532(2) 0.72119(19)
C3 C 0.1159(4) 0.4615(4) 0.6598(3)
O3 O 0.2500 0.2500 0.6742(5)
H4 H 0.224(3) 0.224(3) 0.627(3)
N3 N 0.3568(2) 0.2872(2) 0.8565(2)
C4 C 0.4304(3) 0.3231(3) 0.8992(2)
C5 C 0.5212(3) 0.2699(4) 0.9150(3)
H5 H 0.5302 0.2243 0.8668
H6 H 0.5736 0.3138 0.9154
H7 H 0.5181 0.2375 0.9728
O4 O 0.0468(2) 0.3209(2) 0.72119(19)
C6 C 0.0385(4) 0.3841(4) 0.6598(3)
H8 H 0.276(3) 0.276(3) 0.627(3)
Cu3 Cu 0.33378(4) 0.16622(4) 0.79139(5)
N4 N 0.0867(2) 0.0867(2) 0.9283(3)
N5 N 0.2128(2) 0.1432(2) 0.8565(2)
C7 C 0.1769(3) 0.0696(3) 0.8992(2)
O7 O 0.3209(2) 0.0468(2) 0.72119(19)
C9 C 0.3841(4) 0.0385(4) 0.6598(3)
N6 N 0.1432(2) 0.2128(2) 0.8565(2)
C10 C 0.0696(3) 0.1769(3) 0.8992(2)
O8 O 0.4532(2) 0.1791(2) 0.72119(19)
C12 C 0.4615(4) 0.1159(4) 0.6598(3)
O9 O 0.5239(2) 0.1138(2) 0.60006(19)
Cu4_2 Cu -0.0000 -0.0000 1.0000
Cu5 Cu -0.0000 0.5000 0.5000
Cu6 Cu 0.5000 -0.0000 0.5000
O11 O 0.6138(2) 0.4761(2) 0.89994(19)
O12 O 0.4761(2) 0.6138(2) 0.89994(19)
Cu4_3 Cu -0.0000 1.0000 -0.0000
O6 O 0.3862(2) 0.9761(2) 0.60006(19)
C8 C 0.2301(4) 0.9788(3) 0.9150(3)
H9 H 0.2757 0.9698 0.8668
H10 H 0.1862 0.9264 0.9154
H11 H 0.2625 0.9819 0.9728
Cu4_4 Cu -0.0000 1.0000 1.0000
Cu6_2 Cu 0.5000 1.0000 0.5000
Cu4_5 Cu 1.0000 0.0000 -0.0000
O5 O 0.9761(2) 0.3862(2) 0.60006(19)
C11 C 0.9788(3) 0.2301(4) 0.9150(3)
H12 H 0.9698 0.2757 0.8668
H13 H 0.9264 0.1862 0.9154
H14 H 0.9819 0.2625 0.9728
Cu4_6 Cu 1.0000 -0.0000 1.0000
Cu5_2 Cu 1.0000 0.5000 0.5000
Cu4_7 Cu 1.0000 1.0000 -0.0000
Cu4_8 Cu 1.0000 1.0000 1.0000
O13_2 O 0.1138(2) 0.9761(2) 0.10006(19)
O12_2 O 0.0239(2) 0.8862(2) 0.89994(19)
O10_2 O 0.9761(2) 0.1138(2) 0.10006(19)
O11_2 O 0.8862(2) 0.0239(2) 0.89994(19)
N7_2 N 0.9133(2) 0.9133(2) 0.0717(3)
Cu2_2 Cu 0.16622(4) 0.16622(4) 0.29139(5)
N1_2 N 0.0867(2) 0.4133(2) 0.4283(3)
N2_2 N 0.1432(2) 0.2872(2) 0.3565(2)
C1_2 C 0.0696(3) 0.3231(3) 0.3992(2)
O2_2 O 0.0468(2) 0.1791(2) 0.22119(19)
C3_2 C 0.0385(4) 0.1159(4) 0.1598(3)
O3_2 O 0.2500 0.2500 0.1742(5)
H4_2 H 0.276(3) 0.224(3) 0.127(3)
N3_2 N 0.2128(2) 0.3568(2) 0.3565(2)
C4_2 C 0.1769(3) 0.4304(3) 0.3992(2)
C5_2 C 0.2301(4) 0.5212(3) 0.4150(3)
H5_2 H 0.2757 0.5302 0.3668
H6_2 H 0.1862 0.5736 0.4154
H7_2 H 0.2625 0.5181 0.4728
O4_2 O 0.1791(2) 0.0468(2) 0.22119(19)
C6_2 C 0.1159(4) 0.0385(4) 0.1598(3)
H8_2 H 0.224(3) 0.276(3) 0.127(3)
Cu3_2 Cu 0.33378(4) 0.33378(4) 0.29139(5)
N4_2 N 0.4133(2) 0.0867(2) 0.4283(3)
N5_2 N 0.3568(2) 0.2128(2) 0.3565(2)
C7_2 C 0.4304(3) 0.1769(3) 0.3992(2)
C8_2 C 0.5212(3) 0.2301(4) 0.4150(3)
H9_2 H 0.5302 0.2757 0.3668
H10_2 H 0.5736 0.1862 0.4154
H11_2 H 0.5181 0.2625 0.4728
O7_2 O 0.4532(2) 0.3209(2) 0.22119(19)
C9_2 C 0.4615(4) 0.3841(4) 0.1598(3)
N6_2 N 0.2872(2) 0.1432(2) 0.3565(2)
C10_2 C 0.3231(3) 0.0696(3) 0.3992(2)
O8_2 O 0.3209(2) 0.4532(2) 0.22119(19)
C12_2 C 0.3841(4) 0.4615(4) 0.1598(3)
O11_3 O 0.0239(2) 0.6138(2) 0.39994(19)
C11_2 C 0.2699(4) 0.9788(3) 0.4150(3)
H12_2 H 0.2243 0.9698 0.3668
H13_2 H 0.3138 0.9264 0.4154
H14_2 H 0.2375 0.9819 0.4728
C2_2 C 0.9788(3) 0.2699(4) 0.4150(3)
H1_2 H 0.9698 0.2243 0.3668
H2_2 H 0.9264 0.3138 0.4154
H3_2 H 0.9819 0.2375 0.4728
O12_3 O 0.8862(2) 0.4761(2) 0.39994(19)
N7_3 N 0.9133(2) 0.5867(2) 0.5717(3)
O12_4 O 0.6138(2) 0.0239(2) 0.39994(19)
O11_4 O 0.4761(2) 0.8862(2) 0.39994(19)
N7_4 N 0.5867(2) 0.9133(2) 0.5717(3)
C11_3 C 0.0212(3) 0.7301(4) 0.5850(3)
H12_3 H 0.0302 0.7757 0.6332
H13_3 H 0.0736 0.6862 0.5846
H14_3 H 0.0181 0.7625 0.5272
C2_3 C 0.7301(4) 0.0212(3) 0.5850(3)
H1_3 H 0.7757 0.0302 0.6332
H2_3 H 0.6862 0.0736 0.5846
H3_3 H 0.7625 0.0181 0.5272
Cu2_3 Cu 0.83378(4) 0.83378(4) 0.70861(5)
N2_3 N 0.7128(2) 0.8568(2) 0.6435(2)
C1_3 C 0.6769(3) 0.9304(3) 0.6008(2)
O2_3 O 0.8209(2) 0.9532(2) 0.77881(19)
C3_3 C 0.8841(4) 0.9615(4) 0.8402(3)
O3_3 O 0.7500 0.7500 0.8258(5)
H4_3 H 0.776(3) 0.724(3) 0.873(3)
N3_3 N 0.6432(2) 0.7872(2) 0.6435(2)
C4_3 C 0.5696(3) 0.8231(3) 0.6008(2)
C5_3 C 0.4788(3) 0.7699(4) 0.5850(3)
H5_3 H 0.4698 0.7243 0.6332
H6_3 H 0.4264 0.8138 0.5846
H7_3 H 0.4819 0.7375 0.5272
O4_3 O 0.9532(2) 0.8209(2) 0.77881(19)
C6_3 C 0.9615(4) 0.8841(4) 0.8402(3)
H8_3 H 0.724(3) 0.776(3) 0.873(3)
Cu3_3 Cu 0.66622(4) 0.66622(4) 0.70861(5)
N5_3 N 0.7872(2) 0.6432(2) 0.6435(2)
C7_3 C 0.8231(3) 0.5696(3) 0.6008(2)
C8_3 C 0.7699(4) 0.4788(3) 0.5850(3)
H9_3 H 0.7243 0.4698 0.6332
H10_3 H 0.8138 0.4264 0.5846
H11_3 H 0.7375 0.4819 0.5272
O7_3 O 0.6791(2) 0.5468(2) 0.77881(19)
C9_3 C 0.6159(4) 0.5385(4) 0.8402(3)
N6_3 N 0.8568(2) 0.7128(2) 0.6435(2)
C10_3 C 0.9304(3) 0.6769(3) 0.6008(2)
O8_3 O 0.5468(2) 0.6791(2) 0.77881(19)
C12_3 C 0.5385(4) 0.6159(4) 0.8402(3)
C2_4 C 0.0212(3) 0.7699(4) 0.0850(3)
H1_4 H 0.0302 0.7243 0.1332
H2_4 H 0.0736 0.8138 0.0846
H3_4 H 0.0181 0.7375 0.0272
C5_4 C 0.7699(4) 0.0212(3) 0.0850(3)
H5_4 H 0.7243 0.0302 0.1332
H6_4 H 0.8138 0.0736 0.0846
H7_4 H 0.7375 0.0181 0.0272
Cu2_4 Cu 0.83378(4) 0.66622(4) 0.20861(5)
N2_4 N 0.8568(2) 0.7872(2) 0.1435(2)
C1_4 C 0.9304(3) 0.8231(3) 0.1008(2)
O2_4 O 0.9532(2) 0.6791(2) 0.27881(19)
C3_4 C 0.9615(4) 0.6159(4) 0.3402(3)
O3_4 O 0.7500 0.7500 0.3258(5)
H4_4 H 0.724(3) 0.724(3) 0.373(3)
N3_4 N 0.7872(2) 0.8568(2) 0.1435(2)
C4_4 C 0.8231(3) 0.9304(3) 0.1008(2)
O4_4 O 0.8209(2) 0.5468(2) 0.27881(19)
C6_4 C 0.8841(4) 0.5385(4) 0.3402(3)
H8_4 H 0.776(3) 0.776(3) 0.373(3)
Cu3_4 Cu 0.66622(4) 0.83378(4) 0.20861(5)
N5_4 N 0.6432(2) 0.7128(2) 0.1435(2)
C7_4 C 0.5696(3) 0.6769(3) 0.1008(2)
C8_4 C 0.4788(3) 0.7301(4) 0.0850(3)
H9_4 H 0.4698 0.7757 0.1332
H10_4 H 0.4264 0.6862 0.0846
H11_4 H 0.4819 0.7625 0.0272
O7_4 O 0.5468(2) 0.8209(2) 0.27881(19)
C9_4 C 0.5385(4) 0.8841(4) 0.3402(3)
N6_4 N 0.7128(2) 0.6432(2) 0.1435(2)
C10_4 C 0.6769(3) 0.5696(3) 0.1008(2)
C11_4 C 0.7301(4) 0.4788(3) 0.0850(3)
H12_4 H 0.7757 0.4698 0.1332
H13_4 H 0.6862 0.4264 0.0846
H14_4 H 0.7625 0.4819 0.0272
O8_4 O 0.6791(2) 0.9532(2) 0.27881(19)
C12_4 C 0.6159(4) 0.9615(4) 0.3402(3)
loop_
_geom_bond_atom_site_label_1
_geom_bond_atom_site_label_2
_geom_bond_site_symmetry_1
_geom_bond_site_symmetry_2
O10 Cu1 1_555 1_555
O13 Cu1 1_555 1_555
N7 Cu1 1_555 1_555
Cu1_2 N1 1_555 1_555
Cu2 N2 1_555 1_555
O1 C3 1_555 1_555
N1 C1 1_555 1_555
N2 C1 1_555 1_555
C1 C2 1_555 1_555
C2 H1 1_555 1_555
H2 C2 1_555 1_555
H3 C2 1_555 1_555
O2 Cu2 1_555 1_555
C3 O2 1_555 1_555
O3 Cu2 1_555 1_555
H4 O3 1_555 1_555
N3 N2 1_555 1_555
C4 N1 1_555 1_555
C5 C4 1_555 1_555
H5 C5 1_555 1_555
H6 C5 1_555 1_555
H7 C5 1_555 1_555
O4 Cu2 1_555 1_555
C6 C3 1_555 1_555
H8 O3 1_555 1_555
Cu3 O3 1_555 1_555
N4 C7 1_555 1_555
N5 Cu3 1_555 1_555
C7 N5 1_555 1_555
O7 Cu3 1_555 1_555
C9 O7 1_555 1_555
N6 Cu2 1_555 1_555
C10 N4 1_555 1_555
O8 Cu3 1_555 1_555
C12 C9 1_555 1_555
O9 C12 1_555 1_555
Cu4_2 N4 1_555 1_555
Cu5 O1 1_555 1_555
O11 Cu1_2 1_555 1_555
O12 Cu1_2 1_555 1_555
N3 C4 1_555 1_555
N3 Cu3 1_555 1_555
O4 C6 1_555 1_555
N5 N6 1_555 1_555
N6 C10 1_555 1_555
O8 C12 1_555 1_555
O9 Cu6 1_555 1_555
H9 C8 1_555 1_555
H10 C8 1_555 1_555
H11 C8 1_555 1_555
Cu6_2 O6 1_555 1_555
H12 C11 1_555 1_555
H13 C11 1_555 1_555
H14 C11 1_555 1_555
O5 Cu5_2 1_555 1_555
O13_2 Cu4_3 1_555 1_555
O12_2 Cu4_4 1_555 1_555
O10_2 Cu4_5 1_555 1_555
O11_2 Cu4_6 1_555 1_555
N7_2 Cu4_7 1_555 1_555
Cu5 N1_2 1_555 1_555
Cu2_2 N2_2 1_555 1_555
N1_2 C1_2 1_555 1_555
N2_2 C1_2 1_555 1_555
O2_2 Cu2_2 1_555 1_555
C3_2 O2_2 1_555 1_555
O3_2 Cu2_2 1_555 1_555
H4_2 O3_2 1_555 1_555
N3_2 N2_2 1_555 1_555
C4_2 N1_2 1_555 1_555
C5_2 C4_2 1_555 1_555
H5_2 C5_2 1_555 1_555
H6_2 C5_2 1_555 1_555
H7_2 C5_2 1_555 1_555
O4_2 Cu2_2 1_555 1_555
C6_2 C3_2 1_555 1_555
H8_2 O3_2 1_555 1_555
Cu3_2 O3_2 1_555 1_555
O10 C9_2 1_555 1_555
N4_2 C7_2 1_555 1_555
N5_2 Cu3_2 1_555 1_555
C7_2 N5_2 1_555 1_555
C8_2 C7_2 1_555 1_555
H9_2 C8_2 1_555 1_555
H10_2 C8_2 1_555 1_555
H11_2 C8_2 1_555 1_555
O7_2 Cu3_2 1_555 1_555
C9_2 O7_2 1_555 1_555
N6_2 Cu2_2 1_555 1_555
C10_2 N4_2 1_555 1_555
O8_2 Cu3_2 1_555 1_555
C12_2 C9_2 1_555 1_555
O13 C12_2 1_555 1_555
Cu6 N4_2 1_555 1_555
O11_3 Cu5 1_555 1_555
N3_2 C4_2 1_555 1_555
N3_2 Cu3_2 1_555 1_555
O4_2 C6_2 1_555 1_555
N5_2 N6_2 1_555 1_555
N6_2 C10_2 1_555 1_555
O8_2 C12_2 1_555 1_555
H12_2 C11_2 1_555 1_555
H13_2 C11_2 1_555 1_555
H14_2 C11_2 1_555 1_555
C2_2 H1_2 1_555 1_555
H2_2 C2_2 1_555 1_555
H3_2 C2_2 1_555 1_555
O12_3 Cu5_2 1_555 1_555
N7_3 Cu5_2 1_555 1_555
O12_4 Cu6 1_555 1_555
O11_4 Cu6_2 1_555 1_555
N7_4 Cu6_2 1_555 1_555
H12_3 C11_3 1_555 1_555
H13_3 C11_3 1_555 1_555
H14_3 C11_3 1_555 1_555
C2_3 H1_3 1_555 1_555
H2_3 C2_3 1_555 1_555
H3_3 C2_3 1_555 1_555
Cu2_3 N2_3 1_555 1_555
N7_4 C1_3 1_555 1_555
N2_3 C1_3 1_555 1_555
O2_3 Cu2_3 1_555 1_555
C3_3 O2_3 1_555 1_555
O3_3 Cu2_3 1_555 1_555
H4_3 O3_3 1_555 1_555
N3_3 N2_3 1_555 1_555
C4_3 N7_4 1_555 1_555
C5_3 C4_3 1_555 1_555
H5_3 C5_3 1_555 1_555
H6_3 C5_3 1_555 1_555
H7_3 C5_3 1_555 1_555
O4_3 Cu2_3 1_555 1_555
C6_3 C3_3 1_555 1_555
H8_3 O3_3 1_555 1_555
Cu3_3 O3_3 1_555 1_555
O11 C9_3 1_555 1_555
N7_3 C7_3 1_555 1_555
N5_3 Cu3_3 1_555 1_555
C7_3 N5_3 1_555 1_555
C8_3 C7_3 1_555 1_555
H9_3 C8_3 1_555 1_555
H10_3 C8_3 1_555 1_555
H11_3 C8_3 1_555 1_555
O7_3 Cu3_3 1_555 1_555
C9_3 O7_3 1_555 1_555
N6_3 Cu2_3 1_555 1_555
C10_3 N7_3 1_555 1_555
O8_3 Cu3_3 1_555 1_555
C12_3 C9_3 1_555 1_555
O12 C12_3 1_555 1_555
N3_3 C4_3 1_555 1_555
N3_3 Cu3_3 1_555 1_555
O4_3 C6_3 1_555 1_555
N5_3 N6_3 1_555 1_555
N6_3 C10_3 1_555 1_555
O8_3 C12_3 1_555 1_555
C2_4 H1_4 1_555 1_555
H2_4 C2_4 1_555 1_555
H3_4 C2_4 1_555 1_555
H5_4 C5_4 1_555 1_555
H6_4 C5_4 1_555 1_555
H7_4 C5_4 1_555 1_555
Cu2_4 N2_4 1_555 1_555
N7_2 C1_4 1_555 1_555
N2_4 C1_4 1_555 1_555
O2_4 Cu2_4 1_555 1_555
C3_4 O2_4 1_555 1_555
O3_4 Cu2_4 1_555 1_555
H4_4 O3_4 1_555 1_555
N3_4 N2_4 1_555 1_555
C4_4 N7_2 1_555 1_555
O4_4 Cu2_4 1_555 1_555
C6_4 C3_4 1_555 1_555
O12_3 C6_4 1_555 1_555
H8_4 O3_4 1_555 1_555
Cu3_4 O3_4 1_555 1_555
O11_4 C9_4 1_555 1_555
N7 C7_4 1_555 1_555
N5_4 Cu3_4 1_555 1_555
C7_4 N5_4 1_555 1_555
C8_4 C7_4 1_555 1_555
H9_4 C8_4 1_555 1_555
H10_4 C8_4 1_555 1_555
H11_4 C8_4 1_555 1_555
O7_4 Cu3_4 1_555 1_555
C9_4 O7_4 1_555 1_555
N6_4 Cu2_4 1_555 1_555
C10_4 N7 1_555 1_555
C11_4 C10_4 1_555 1_555
H12_4 C11_4 1_555 1_555
H13_4 C11_4 1_555 1_555
H14_4 C11_4 1_555 1_555
O8_4 Cu3_4 1_555 1_555
C12_4 C9_4 1_555 1_555
N3_4 C4_4 1_555 1_555
N3_4 Cu3_4 1_555 1_555
O4_4 C6_4 1_555 1_555
N5_4 N6_4 1_555 1_555
N6_4 C10_4 1_555 1_555
O8_4 C12_4 1_555 1_555

#END
