
###############################################################################
#
# This file contains modified crystal structure data generated from the
# MOF subset of the Cambridge Structural Database (CSD) v543 
# hosted by the Cambridge Crystallographic Data Centre (CCDC).
#
# This work is licensed under the Creative Commons
# Attribution-NonCommercial-ShareAlike 4.0 International License.
# To view a copy of this license, visit
# http://creativecommons.org/licenses/by-nc-sa/4.0/
# or send a letter to
# Creative Commons, PO Box 1866, Mountain View, CA 94042, USA.
#
# CIF created using the CSD Python API on 29 September 2022
# The structure has been converted into the P1 space group
# The structure has a 3D framework
# The original CSD entry LIFWII is in the tetragonal crystal system
# The framework has been calculated to contain at least 10.0% void space
# The void calculation uses a probe of radius 1.32A, grid spacing 0.4
#
###############################################################################

data_LIFWII
_chemical_formula_moiety         '(C176 H128 F24 N16 Si4 Zn4)n'
_symmetry_cell_setting           triclinic
_symmetry_space_group_name_H-M   'P 1'
_symmetry_Int_Tables_number      1
_space_group_name_Hall           'P 1'
loop_
_symmetry_equiv_pos_site_id
_symmetry_equiv_pos_as_xyz
1 x,y,z
_cell_length_a                   19.9188(3)
_cell_length_b                   19.9188(3)
_cell_length_c                   15.2892(6)
_cell_angle_alpha                90
_cell_angle_beta                 90
_cell_angle_gamma                90
_cell_volume                     6066.12
loop_
_atom_site_label
_atom_site_type_symbol
_atom_site_fract_x
_atom_site_fract_y
_atom_site_fract_z
N2 N 0.14313(15) 0.25192(15) 0.60118(19)
C12 C 0.10964(18) 0.28148(19) 0.6671(2)
H9 H 0.1346 0.3017 0.7130
C13 C 0.04034(19) 0.2836(2) 0.6707(3)
H10 H 0.0185 0.3061 0.7176
C14 C 0.00260(18) 0.2527(2) 0.6054(2)
C15 C 0.03798(18) 0.2221(2) 0.5371(2)
H11 H 0.0144 0.2007 0.4908
C16 C 0.10741(18) 0.22312(19) 0.5371(2)
H12 H 0.1307 0.2026 0.4899
Zn3 Zn 0.2500 0.2500 0.60058(5)
Si1 Si 0.2500 0.2500 0.35143(12)
F1 F 0.2500 0.2500 0.4634(2)
F2 F 0.31694(11) 0.19908(12) 0.35142(14)
F3 F 0.2500 0.2500 0.2400(2)
N1 N 0.35687(15) 0.24808(15) 0.60118(19)
C1 C 0.39036(18) 0.21852(19) 0.6671(2)
H1 H 0.3654 0.1983 0.7130
C2 C 0.45966(19) 0.2164(2) 0.6707(3)
H2 H 0.4815 0.1939 0.7176
C3 C 0.49740(18) 0.2473(2) 0.6054(2)
C4 C 0.46202(18) 0.2779(2) 0.5371(2)
H3 H 0.4856 0.2993 0.4908
C5 C 0.39259(18) 0.27688(19) 0.5371(2)
H4 H 0.3693 0.2974 0.4899
C6 C 0.57118(19) 0.2479(2) 0.6085(2)
C7 C 0.60719(19) 0.1921(2) 0.6376(3)
H5 H 0.5837 0.1530 0.6559
C8 C 0.6770(2) 0.1928(2) 0.6402(3)
H6 H 0.7006 0.1540 0.6595
C9 C 0.71271(19) 0.2498(2) 0.6148(2)
C10 C 0.67651(19) 0.3058(2) 0.5867(3)
H7 H 0.6999 0.3454 0.5704
C11 C 0.60719(19) 0.3045(2) 0.5822(3)
H8 H 0.5838 0.3427 0.5608
F4 F 0.18306(11) 0.30092(12) 0.35142(14)
F5 F 0.30092(12) 0.31694(11) 0.35142(14)
F6 F 0.19908(12) 0.18306(11) 0.35142(14)
C17 C 0.92882(19) 0.2521(2) 0.6085(2)
C18 C 0.89281(19) 0.3079(2) 0.6376(3)
H13 H 0.9163 0.3470 0.6559
C19 C 0.8230(2) 0.3072(2) 0.6402(3)
H14 H 0.7994 0.3460 0.6595
C20 C 0.78729(19) 0.2502(2) 0.6148(2)
C21 C 0.82349(19) 0.1942(2) 0.5867(3)
H15 H 0.8001 0.1546 0.5704
C22 C 0.89281(19) 0.1955(2) 0.5822(3)
H16 H 0.9162 0.1573 0.5608
N4 N 0.24808(15) 0.14313(15) 0.60118(19)
C34 C 0.21852(19) 0.10964(18) 0.6671(2)
H25 H 0.1983 0.1346 0.7130
C35 C 0.2164(2) 0.04034(19) 0.6707(3)
H26 H 0.1939 0.0185 0.7176
C36 C 0.2473(2) 0.00260(18) 0.6054(2)
C37 C 0.2779(2) 0.03798(18) 0.5371(2)
H27 H 0.2993 0.0144 0.4908
C38 C 0.27688(19) 0.10741(18) 0.5371(2)
H28 H 0.2974 0.1307 0.4899
Zn4 Zn 0.2500 0.2500 0.10058(5)
F7 F 0.2500 0.2500 0.7400(2)
N6 N 0.25192(15) 0.35687(15) 0.60118(19)
C23 C 0.28148(19) 0.39036(18) 0.6671(2)
H17 H 0.3017 0.3654 0.7130
C24 C 0.2836(2) 0.45966(19) 0.6707(3)
H18 H 0.3061 0.4815 0.7176
C25 C 0.2527(2) 0.49740(18) 0.6054(2)
C26 C 0.2221(2) 0.46202(18) 0.5371(2)
H19 H 0.2007 0.4856 0.4908
C27 C 0.22312(19) 0.39259(18) 0.5371(2)
H20 H 0.2026 0.3693 0.4899
C28 C 0.2521(2) 0.57118(19) 0.6085(2)
C29 C 0.3079(2) 0.60719(19) 0.6376(3)
H21 H 0.3470 0.5837 0.6559
C30 C 0.3072(2) 0.6770(2) 0.6402(3)
H22 H 0.3460 0.7006 0.6595
C31 C 0.2502(2) 0.71271(19) 0.6148(2)
C32 C 0.1942(2) 0.67651(19) 0.5867(3)
H23 H 0.1546 0.6999 0.5704
C33 C 0.1955(2) 0.60719(19) 0.5822(3)
H24 H 0.1573 0.5838 0.5608
C39 C 0.2479(2) 0.92882(19) 0.6085(2)
C40 C 0.1921(2) 0.89281(19) 0.6376(3)
H29 H 0.1530 0.9163 0.6559
C41 C 0.1928(2) 0.8230(2) 0.6402(3)
H30 H 0.1540 0.7994 0.6595
C42 C 0.2498(2) 0.78729(19) 0.6148(2)
C43 C 0.3058(2) 0.82349(19) 0.5867(3)
H31 H 0.3454 0.8001 0.5704
C44 C 0.3045(2) 0.89281(19) 0.5822(3)
H32 H 0.3427 0.9162 0.5608
N2_2 N 0.14313(15) 0.24808(15) 0.10118(19)
C12_2 C 0.10964(18) 0.21852(19) 0.1671(2)
H9_2 H 0.1346 0.1983 0.2130
C13_2 C 0.04034(19) 0.2164(2) 0.1707(3)
H10_2 H 0.0185 0.1939 0.2176
C14_2 C 0.00260(18) 0.2473(2) 0.1054(2)
C15_2 C 0.03798(18) 0.2779(2) 0.0371(2)
C16_2 C 0.10741(18) 0.27688(19) 0.0371(2)
H11_2 H 0.0144 0.2993 0.9908
H12_2 H 0.1307 0.2974 0.9899
N3 N 0.25192(15) 0.14313(15) 0.10118(19)
C23_2 C 0.28148(19) 0.10964(18) 0.1671(2)
H17_2 H 0.3017 0.1346 0.2130
C24_2 C 0.2836(2) 0.04034(19) 0.1707(3)
H18_2 H 0.3061 0.0185 0.2176
C25_2 C 0.2527(2) 0.00260(18) 0.1054(2)
C26_2 C 0.2221(2) 0.03798(18) 0.0371(2)
C27_2 C 0.22312(19) 0.10741(18) 0.0371(2)
H19_2 H 0.2007 0.0144 0.9908
H20_2 H 0.2026 0.1307 0.9899
N1_2 N 0.35687(15) 0.25192(15) 0.10118(19)
C1_2 C 0.39036(18) 0.28148(19) 0.1671(2)
H1_2 H 0.3654 0.3017 0.2130
C2_2 C 0.45966(19) 0.2836(2) 0.1707(3)
H2_2 H 0.4815 0.3061 0.2176
C3_2 C 0.49740(18) 0.2527(2) 0.1054(2)
C4_2 C 0.46202(18) 0.2221(2) 0.0371(2)
C5_2 C 0.39259(18) 0.22312(19) 0.0371(2)
C6_2 C 0.57118(19) 0.2521(2) 0.1085(2)
C7_2 C 0.60719(19) 0.3079(2) 0.1376(3)
H5_2 H 0.5837 0.3470 0.1559
C8_2 C 0.6770(2) 0.3072(2) 0.1402(3)
H6_2 H 0.7006 0.3460 0.1595
C9_2 C 0.71271(19) 0.2502(2) 0.1148(2)
C10_2 C 0.67651(19) 0.1942(2) 0.0867(3)
H7_2 H 0.6999 0.1546 0.0704
C11_2 C 0.60719(19) 0.1955(2) 0.0822(3)
H8_2 H 0.5838 0.1573 0.0608
C17_2 C 0.92882(19) 0.2479(2) 0.1085(2)
C18_2 C 0.89281(19) 0.1921(2) 0.1376(3)
H13_2 H 0.9163 0.1530 0.1559
C19_2 C 0.8230(2) 0.1928(2) 0.1402(3)
H14_2 H 0.7994 0.1540 0.1595
C20_2 C 0.78729(19) 0.2498(2) 0.1148(2)
C21_2 C 0.82349(19) 0.3058(2) 0.0867(3)
H15_2 H 0.8001 0.3454 0.0704
C22_2 C 0.89281(19) 0.3045(2) 0.0822(3)
H16_2 H 0.9162 0.3427 0.0608
C28_2 C 0.2521(2) 0.92882(19) 0.1085(2)
C29_2 C 0.3079(2) 0.89281(19) 0.1376(3)
H21_2 H 0.3470 0.9163 0.1559
C30_2 C 0.3072(2) 0.8230(2) 0.1402(3)
H22_2 H 0.3460 0.7994 0.1595
C31_2 C 0.2502(2) 0.78729(19) 0.1148(2)
C32_2 C 0.1942(2) 0.82349(19) 0.0867(3)
H23_2 H 0.1546 0.8001 0.0704
C33_2 C 0.1955(2) 0.89281(19) 0.0822(3)
H24_2 H 0.1573 0.9162 0.0608
N4_2 N 0.24808(15) 0.35687(15) 0.10118(19)
C34_2 C 0.21852(19) 0.39036(18) 0.1671(2)
H25_2 H 0.1983 0.3654 0.2130
C35_2 C 0.2164(2) 0.45966(19) 0.1707(3)
H26_2 H 0.1939 0.4815 0.2176
C36_2 C 0.2473(2) 0.49740(18) 0.1054(2)
C37_2 C 0.2779(2) 0.46202(18) 0.0371(2)
C38_2 C 0.27688(19) 0.39259(18) 0.0371(2)
C39_2 C 0.2479(2) 0.57118(19) 0.1085(2)
C40_2 C 0.1921(2) 0.60719(19) 0.1376(3)
H29_2 H 0.1530 0.5837 0.1559
C41_2 C 0.1928(2) 0.6770(2) 0.1402(3)
H30_2 H 0.1540 0.7006 0.1595
C42_2 C 0.2498(2) 0.71271(19) 0.1148(2)
C43_2 C 0.3058(2) 0.67651(19) 0.0867(3)
H31_2 H 0.3454 0.6999 0.0704
C44_2 C 0.3045(2) 0.60719(19) 0.0822(3)
H32_2 H 0.3427 0.5838 0.0608
Si1_2 Si 0.2500 0.2500 0.85143(12)
F1_2 F 0.2500 0.2500 0.9634(2)
F2_2 F 0.31694(11) 0.30092(12) 0.85142(14)
H3_2 H 0.4856 0.2007 0.9908
H4_2 H 0.3693 0.2026 0.9899
F4_2 F 0.18306(11) 0.19908(12) 0.85142(14)
F5_2 F 0.30092(12) 0.18306(11) 0.85142(14)
F6_2 F 0.19908(12) 0.31694(11) 0.85142(14)
H27_2 H 0.2993 0.4856 0.9908
H28_2 H 0.2974 0.3693 0.9899
Si1_3 Si 0.7500 0.7500 0.14857(12)
F1_3 F 0.7500 0.7500 0.0366(2)
F2_3 F 0.68306(11) 0.69908(12) 0.14858(14)
F3_2 F 0.7500 0.7500 0.2600(2)
H3_3 H 0.5144 0.7993 0.0092
H4_3 H 0.6307 0.7974 0.0101
F4_3 F 0.81694(11) 0.80092(12) 0.14858(14)
F5_3 F 0.69908(12) 0.81694(11) 0.14858(14)
F6_3 F 0.80092(12) 0.68306(11) 0.14858(14)
H27_3 H 0.7007 0.5144 0.0092
H28_3 H 0.7026 0.6307 0.0101
Zn4_2 Zn 0.7500 0.7500 0.39942(5)
Zn1 Zn 0.7500 0.7500 0.89942(5)
N1_3 N 0.64313(15) 0.74808(15) 0.89882(19)
C1_3 C 0.60964(18) 0.71852(19) 0.8329(2)
H1_3 H 0.6346 0.6983 0.7870
C2_3 C 0.54034(19) 0.7164(2) 0.8293(3)
H2_3 H 0.5185 0.6939 0.7824
C3_3 C 0.50260(18) 0.7473(2) 0.8946(2)
C4_3 C 0.53798(18) 0.7779(2) 0.9629(2)
C5_3 C 0.60741(18) 0.77688(19) 0.9629(2)
C6_3 C 0.42882(19) 0.7479(2) 0.8915(2)
C7_3 C 0.39281(19) 0.6921(2) 0.8624(3)
H5_3 H 0.4163 0.6530 0.8441
C8_3 C 0.3230(2) 0.6928(2) 0.8598(3)
H6_3 H 0.2994 0.6540 0.8405
C9_3 C 0.28729(19) 0.7498(2) 0.8852(2)
C10_3 C 0.32349(19) 0.8058(2) 0.9133(3)
H7_3 H 0.3001 0.8454 0.9296
C11_3 C 0.39281(19) 0.8045(2) 0.9178(3)
H8_3 H 0.4162 0.8427 0.9392
C17_3 C 0.07118(19) 0.7521(2) 0.8915(2)
C18_3 C 0.10719(19) 0.8079(2) 0.8624(3)
H13_3 H 0.0837 0.8470 0.8441
C19_3 C 0.1770(2) 0.8072(2) 0.8598(3)
H14_3 H 0.2006 0.8460 0.8405
C20_3 C 0.21271(19) 0.7502(2) 0.8852(2)
C21_3 C 0.17651(19) 0.6942(2) 0.9133(3)
H15_3 H 0.1999 0.6546 0.9296
C22_3 C 0.10719(19) 0.6955(2) 0.9178(3)
H16_3 H 0.0838 0.6573 0.9392
C28_3 C 0.7479(2) 0.07118(19) 0.8915(2)
C29_3 C 0.6921(2) 0.10719(19) 0.8624(3)
H21_3 H 0.6530 0.0837 0.8441
C30_3 C 0.6928(2) 0.1770(2) 0.8598(3)
H22_3 H 0.6540 0.2006 0.8405
C31_3 C 0.7498(2) 0.21271(19) 0.8852(2)
C32_3 C 0.8058(2) 0.17651(19) 0.9133(3)
H23_3 H 0.8454 0.1999 0.9296
C33_3 C 0.8045(2) 0.10719(19) 0.9178(3)
H24_3 H 0.8427 0.0838 0.9392
N4_3 N 0.75192(15) 0.64313(15) 0.89882(19)
C34_3 C 0.78148(19) 0.60964(18) 0.8329(2)
H25_3 H 0.8017 0.6346 0.7870
C35_3 C 0.7836(2) 0.54034(19) 0.8293(3)
H26_3 H 0.8061 0.5185 0.7824
C36_3 C 0.7527(2) 0.50260(18) 0.8946(2)
C37_3 C 0.7221(2) 0.53798(18) 0.9629(2)
C38_3 C 0.72312(19) 0.60741(18) 0.9629(2)
C39_3 C 0.7521(2) 0.42882(19) 0.8915(2)
C40_3 C 0.8079(2) 0.39281(19) 0.8624(3)
H29_3 H 0.8470 0.4163 0.8441
C41_3 C 0.8072(2) 0.3230(2) 0.8598(3)
H30_3 H 0.8460 0.2994 0.8405
C42_3 C 0.7502(2) 0.28729(19) 0.8852(2)
C43_3 C 0.6942(2) 0.32349(19) 0.9133(3)
H31_3 H 0.6546 0.3001 0.9296
C44_3 C 0.6955(2) 0.39281(19) 0.9178(3)
H32_3 H 0.6573 0.4162 0.9392
F7_2 F 0.7500 0.7500 0.7600(2)
N5 N 0.85687(15) 0.75192(15) 0.89882(19)
N6_2 N 0.74808(15) 0.85687(15) 0.89882(19)
H19_3 H 0.7993 0.9856 0.0092
H20_3 H 0.7974 0.8693 0.0101
C23_3 C 0.71852(19) 0.89036(18) 0.8329(2)
H17_3 H 0.6983 0.8654 0.7870
C24_3 C 0.7164(2) 0.95966(19) 0.8293(3)
H18_3 H 0.6939 0.9815 0.7824
C25_3 C 0.7473(2) 0.99740(18) 0.8946(2)
C26_3 C 0.7779(2) 0.96202(18) 0.9629(2)
C27_3 C 0.77688(19) 0.89259(18) 0.9629(2)
H11_3 H 0.9856 0.7007 0.0092
H12_3 H 0.8693 0.7026 0.0101
C12_3 C 0.89036(18) 0.78148(19) 0.8329(2)
H9_3 H 0.8654 0.8017 0.7870
C13_3 C 0.95966(19) 0.7836(2) 0.8293(3)
H10_3 H 0.9815 0.8061 0.7824
C14_3 C 0.99740(18) 0.7527(2) 0.8946(2)
C15_3 C 0.96202(18) 0.7221(2) 0.9629(2)
C16_3 C 0.89259(18) 0.72312(19) 0.9629(2)
N3_2 N 0.74808(15) 0.64313(15) 0.39882(19)
C23_4 C 0.71852(19) 0.60964(18) 0.3329(2)
H17_4 H 0.6983 0.6346 0.2870
C24_4 C 0.7164(2) 0.54034(19) 0.3293(3)
H18_4 H 0.6939 0.5185 0.2824
C25_4 C 0.7473(2) 0.50260(18) 0.3946(2)
C26_4 C 0.7779(2) 0.53798(18) 0.4629(2)
H19_4 H 0.7993 0.5144 0.5092
C27_4 C 0.77688(19) 0.60741(18) 0.4629(2)
H20_4 H 0.7974 0.6307 0.5101
C28_4 C 0.7479(2) 0.42882(19) 0.3915(2)
C29_4 C 0.6921(2) 0.39281(19) 0.3624(3)
H21_4 H 0.6530 0.4163 0.3441
C30_4 C 0.6928(2) 0.3230(2) 0.3598(3)
H22_4 H 0.6540 0.2994 0.3405
C31_4 C 0.7498(2) 0.28729(19) 0.3852(2)
C32_4 C 0.8058(2) 0.32349(19) 0.4133(3)
H23_4 H 0.8454 0.3001 0.4296
C33_4 C 0.8045(2) 0.39281(19) 0.4178(3)
H24_4 H 0.8427 0.4162 0.4392
C39_4 C 0.7521(2) 0.07118(19) 0.3915(2)
C40_4 C 0.8079(2) 0.10719(19) 0.3624(3)
H29_4 H 0.8470 0.0837 0.3441
C41_4 C 0.8072(2) 0.1770(2) 0.3598(3)
H30_4 H 0.8460 0.2006 0.3405
C42_4 C 0.7502(2) 0.21271(19) 0.3852(2)
C43_4 C 0.6942(2) 0.17651(19) 0.4133(3)
H31_4 H 0.6546 0.1999 0.4296
C44_4 C 0.6955(2) 0.10719(19) 0.4178(3)
H32_4 H 0.6573 0.0838 0.4392
Si1_4 Si 0.7500 0.7500 0.64857(12)
F1_4 F 0.7500 0.7500 0.5366(2)
F2_4 F 0.68306(11) 0.80092(12) 0.64858(14)
N1_4 N 0.64313(15) 0.75192(15) 0.39882(19)
C1_4 C 0.60964(18) 0.78148(19) 0.3329(2)
H1_4 H 0.6346 0.8017 0.2870
C2_4 C 0.54034(19) 0.7836(2) 0.3293(3)
H2_4 H 0.5185 0.8061 0.2824
C3_4 C 0.50260(18) 0.7527(2) 0.3946(2)
C4_4 C 0.53798(18) 0.7221(2) 0.4629(2)
H3_4 H 0.5144 0.7007 0.5092
C5_4 C 0.60741(18) 0.72312(19) 0.4629(2)
H4_4 H 0.6307 0.7026 0.5101
C6_4 C 0.42882(19) 0.7521(2) 0.3915(2)
C7_4 C 0.39281(19) 0.8079(2) 0.3624(3)
H5_4 H 0.4163 0.8470 0.3441
C8_4 C 0.3230(2) 0.8072(2) 0.3598(3)
H6_4 H 0.2994 0.8460 0.3405
C9_4 C 0.28729(19) 0.7502(2) 0.3852(2)
C10_4 C 0.32349(19) 0.6942(2) 0.4133(3)
H7_4 H 0.3001 0.6546 0.4296
C11_4 C 0.39281(19) 0.6955(2) 0.4178(3)
H8_4 H 0.4162 0.6573 0.4392
F4_4 F 0.81694(11) 0.69908(12) 0.64858(14)
F5_4 F 0.69908(12) 0.68306(11) 0.64858(14)
F6_4 F 0.80092(12) 0.81694(11) 0.64858(14)
C17_4 C 0.07118(19) 0.7479(2) 0.3915(2)
C18_4 C 0.10719(19) 0.6921(2) 0.3624(3)
H13_4 H 0.0837 0.6530 0.3441
C19_4 C 0.1770(2) 0.6928(2) 0.3598(3)
H14_4 H 0.2006 0.6540 0.3405
C20_4 C 0.21271(19) 0.7498(2) 0.3852(2)
C21_4 C 0.17651(19) 0.8058(2) 0.4133(3)
H15_4 H 0.1999 0.8454 0.4296
C22_4 C 0.10719(19) 0.8045(2) 0.4178(3)
H16_4 H 0.0838 0.8427 0.4392
N4_4 N 0.75192(15) 0.85687(15) 0.39882(19)
C34_4 C 0.78148(19) 0.89036(18) 0.3329(2)
H25_4 H 0.8017 0.8654 0.2870
C35_4 C 0.7836(2) 0.95966(19) 0.3293(3)
H26_4 H 0.8061 0.9815 0.2824
C36_4 C 0.7527(2) 0.99740(18) 0.3946(2)
C37_4 C 0.7221(2) 0.96202(18) 0.4629(2)
H27_4 H 0.7007 0.9856 0.5092
C38_4 C 0.72312(19) 0.89259(18) 0.4629(2)
H28_4 H 0.7026 0.8693 0.5101
N5_2 N 0.85687(15) 0.74808(15) 0.39882(19)
C12_4 C 0.89036(18) 0.71852(19) 0.3329(2)
H9_4 H 0.8654 0.6983 0.2870
C13_4 C 0.95966(19) 0.7164(2) 0.3293(3)
H10_4 H 0.9815 0.6939 0.2824
C14_4 C 0.99740(18) 0.7473(2) 0.3946(2)
C15_4 C 0.96202(18) 0.7779(2) 0.4629(2)
H11_4 H 0.9856 0.7993 0.5092
C16_4 C 0.89259(18) 0.77688(19) 0.4629(2)
H12_4 H 0.8693 0.7974 0.5101
loop_
_geom_bond_atom_site_label_1
_geom_bond_atom_site_label_2
_geom_bond_site_symmetry_1
_geom_bond_site_symmetry_2
N2 C12 1_555 1_555
C12 H9 1_555 1_555
C13 C12 1_555 1_555
H10 C13 1_555 1_555
C14 C13 1_555 1_555
C15 C14 1_555 1_555
H11 C15 1_555 1_555
C16 N2 1_555 1_555
H12 C16 1_555 1_555
Zn3 N2 1_555 1_555
C15 C16 1_555 1_555
Zn3 F1 1_555 1_555
Si1 F1 1_555 1_555
F2 Si1 1_555 1_555
F3 Si1 1_555 1_555
N1 Zn3 1_555 1_555
C1 N1 1_555 1_555
H1 C1 1_555 1_555
C2 C1 1_555 1_555
H2 C2 1_555 1_555
C3 C2 1_555 1_555
C4 C3 1_555 1_555
H3 C4 1_555 1_555
C5 N1 1_555 1_555
H4 C5 1_555 1_555
C6 C3 1_555 1_555
C7 C6 1_555 1_555
H5 C7 1_555 1_555
C8 C7 1_555 1_555
H6 C8 1_555 1_555
C9 C8 1_555 1_555
C10 C9 1_555 1_555
H7 C10 1_555 1_555
C11 C6 1_555 1_555
H8 C11 1_555 1_555
F4 Si1 1_555 1_555
F5 Si1 1_555 1_555
F6 Si1 1_555 1_555
C18 C17 1_555 1_555
H13 C18 1_555 1_555
C19 C18 1_555 1_555
H14 C19 1_555 1_555
C20 C9 1_555 1_555
C21 C20 1_555 1_555
H15 C21 1_555 1_555
C22 C17 1_555 1_555
H16 C22 1_555 1_555
N4 Zn3 1_555 1_555
C34 N4 1_555 1_555
H25 C34 1_555 1_555
C35 C34 1_555 1_555
H26 C35 1_555 1_555
C36 C35 1_555 1_555
C37 C36 1_555 1_555
H27 C37 1_555 1_555
C38 N4 1_555 1_555
H28 C38 1_555 1_555
Zn4 F3 1_555 1_555
F7 Zn3 1_555 1_555
N6 Zn3 1_555 1_555
C4 C5 1_555 1_555
C10 C11 1_555 1_555
C19 C20 1_555 1_555
C21 C22 1_555 1_555
C37 C38 1_555 1_555
N6 C23 1_555 1_555
C23 H17 1_555 1_555
C24 C23 1_555 1_555
H18 C24 1_555 1_555
C25 C24 1_555 1_555
C26 C25 1_555 1_555
H19 C26 1_555 1_555
C27 N6 1_555 1_555
H20 C27 1_555 1_555
C28 C25 1_555 1_555
C29 C28 1_555 1_555
H21 C29 1_555 1_555
C30 C29 1_555 1_555
H22 C30 1_555 1_555
C31 C30 1_555 1_555
C32 C31 1_555 1_555
H23 C32 1_555 1_555
C33 C28 1_555 1_555
H24 C33 1_555 1_555
C40 C39 1_555 1_555
H29 C40 1_555 1_555
C41 C40 1_555 1_555
H30 C41 1_555 1_555
C42 C31 1_555 1_555
C43 C42 1_555 1_555
H31 C43 1_555 1_555
C44 C39 1_555 1_555
H32 C44 1_555 1_555
C26 C27 1_555 1_555
C32 C33 1_555 1_555
C41 C42 1_555 1_555
C43 C44 1_555 1_555
N2_2 C12_2 1_555 1_555
C12_2 H9_2 1_555 1_555
C13_2 C12_2 1_555 1_555
H10_2 C13_2 1_555 1_555
C14_2 C13_2 1_555 1_555
C15_2 C14_2 1_555 1_555
C16_2 N2_2 1_555 1_555
Zn4 N2_2 1_555 1_555
C15_2 C16_2 1_555 1_555
N3 C23_2 1_555 1_555
C23_2 H17_2 1_555 1_555
C24_2 C23_2 1_555 1_555
H18_2 C24_2 1_555 1_555
C25_2 C24_2 1_555 1_555
C26_2 C25_2 1_555 1_555
C27_2 N3 1_555 1_555
Zn4 N3 1_555 1_555
C26_2 C27_2 1_555 1_555
N1_2 Zn4 1_555 1_555
C1_2 N1_2 1_555 1_555
H1_2 C1_2 1_555 1_555
C2_2 C1_2 1_555 1_555
H2_2 C2_2 1_555 1_555
C3_2 C2_2 1_555 1_555
C4_2 C3_2 1_555 1_555
C5_2 N1_2 1_555 1_555
C6_2 C3_2 1_555 1_555
C7_2 C6_2 1_555 1_555
H5_2 C7_2 1_555 1_555
C8_2 C7_2 1_555 1_555
H6_2 C8_2 1_555 1_555
C9_2 C8_2 1_555 1_555
C10_2 C9_2 1_555 1_555
H7_2 C10_2 1_555 1_555
C11_2 C6_2 1_555 1_555
H8_2 C11_2 1_555 1_555
C18_2 C17_2 1_555 1_555
H13_2 C18_2 1_555 1_555
C19_2 C18_2 1_555 1_555
H14_2 C19_2 1_555 1_555
C20_2 C9_2 1_555 1_555
C21_2 C20_2 1_555 1_555
H15_2 C21_2 1_555 1_555
C22_2 C17_2 1_555 1_555
H16_2 C22_2 1_555 1_555
C29_2 C28_2 1_555 1_555
H21_2 C29_2 1_555 1_555
C30_2 C29_2 1_555 1_555
H22_2 C30_2 1_555 1_555
C31_2 C30_2 1_555 1_555
C32_2 C31_2 1_555 1_555
H23_2 C32_2 1_555 1_555
C33_2 C28_2 1_555 1_555
H24_2 C33_2 1_555 1_555
N4_2 Zn4 1_555 1_555
C34_2 N4_2 1_555 1_555
H25_2 C34_2 1_555 1_555
C35_2 C34_2 1_555 1_555
H26_2 C35_2 1_555 1_555
C36_2 C35_2 1_555 1_555
C37_2 C36_2 1_555 1_555
C38_2 N4_2 1_555 1_555
C39_2 C36_2 1_555 1_555
C40_2 C39_2 1_555 1_555
H29_2 C40_2 1_555 1_555
C41_2 C40_2 1_555 1_555
H30_2 C41_2 1_555 1_555
C42_2 C31_2 1_555 1_555
C43_2 C42_2 1_555 1_555
H31_2 C43_2 1_555 1_555
C44_2 C39_2 1_555 1_555
H32_2 C44_2 1_555 1_555
C4_2 C5_2 1_555 1_555
C10_2 C11_2 1_555 1_555
C19_2 C20_2 1_555 1_555
C21_2 C22_2 1_555 1_555
C32_2 C33_2 1_555 1_555
C37_2 C38_2 1_555 1_555
C41_2 C42_2 1_555 1_555
C43_2 C44_2 1_555 1_555
Si1_2 F1_2 1_555 1_555
F2_2 Si1_2 1_555 1_555
F7 Si1_2 1_555 1_555
F4_2 Si1_2 1_555 1_555
F5_2 Si1_2 1_555 1_555
F6_2 Si1_2 1_555 1_555
Si1_3 F1_3 1_555 1_555
F2_3 Si1_3 1_555 1_555
F3_2 Si1_3 1_555 1_555
F4_3 Si1_3 1_555 1_555
F5_3 Si1_3 1_555 1_555
F6_3 Si1_3 1_555 1_555
Zn4_2 F3_2 1_555 1_555
N1_3 Zn1 1_555 1_555
C1_3 N1_3 1_555 1_555
H1_3 C1_3 1_555 1_555
C2_3 C1_3 1_555 1_555
H2_3 C2_3 1_555 1_555
C3_3 C2_3 1_555 1_555
C4_3 C3_3 1_555 1_555
C5_3 N1_3 1_555 1_555
C6_3 C3_3 1_555 1_555
C7_3 C6_3 1_555 1_555
H5_3 C7_3 1_555 1_555
C8_3 C7_3 1_555 1_555
H6_3 C8_3 1_555 1_555
C9_3 C8_3 1_555 1_555
C10_3 C9_3 1_555 1_555
H7_3 C10_3 1_555 1_555
C11_3 C6_3 1_555 1_555
H8_3 C11_3 1_555 1_555
C18_3 C17_3 1_555 1_555
H13_3 C18_3 1_555 1_555
C19_3 C18_3 1_555 1_555
H14_3 C19_3 1_555 1_555
C20_3 C9_3 1_555 1_555
C21_3 C20_3 1_555 1_555
H15_3 C21_3 1_555 1_555
C22_3 C17_3 1_555 1_555
H16_3 C22_3 1_555 1_555
C29_3 C28_3 1_555 1_555
H21_3 C29_3 1_555 1_555
C30_3 C29_3 1_555 1_555
H22_3 C30_3 1_555 1_555
C31_3 C30_3 1_555 1_555
C32_3 C31_3 1_555 1_555
H23_3 C32_3 1_555 1_555
C33_3 C28_3 1_555 1_555
H24_3 C33_3 1_555 1_555
N4_3 Zn1 1_555 1_555
C34_3 N4_3 1_555 1_555
H25_3 C34_3 1_555 1_555
C35_3 C34_3 1_555 1_555
H26_3 C35_3 1_555 1_555
C36_3 C35_3 1_555 1_555
C37_3 C36_3 1_555 1_555
C38_3 N4_3 1_555 1_555
C39_3 C36_3 1_555 1_555
C40_3 C39_3 1_555 1_555
H29_3 C40_3 1_555 1_555
C41_3 C40_3 1_555 1_555
H30_3 C41_3 1_555 1_555
C42_3 C31_3 1_555 1_555
C43_3 C42_3 1_555 1_555
H31_3 C43_3 1_555 1_555
C44_3 C39_3 1_555 1_555
H32_3 C44_3 1_555 1_555
F7_2 Zn1 1_555 1_555
N5 Zn1 1_555 1_555
N6_2 Zn1 1_555 1_555
C4_3 C5_3 1_555 1_555
C10_3 C11_3 1_555 1_555
C19_3 C20_3 1_555 1_555
C21_3 C22_3 1_555 1_555
C32_3 C33_3 1_555 1_555
C37_3 C38_3 1_555 1_555
C41_3 C42_3 1_555 1_555
C43_3 C44_3 1_555 1_555
N6_2 C23_3 1_555 1_555
C23_3 H17_3 1_555 1_555
C24_3 C23_3 1_555 1_555
H18_3 C24_3 1_555 1_555
C25_3 C24_3 1_555 1_555
C26_3 C25_3 1_555 1_555
C27_3 N6_2 1_555 1_555
C26_3 C27_3 1_555 1_555
N5 C12_3 1_555 1_555
C12_3 H9_3 1_555 1_555
C13_3 C12_3 1_555 1_555
H10_3 C13_3 1_555 1_555
C14_3 C13_3 1_555 1_555
C15_3 C14_3 1_555 1_555
C16_3 N5 1_555 1_555
C15_3 C16_3 1_555 1_555
N3_2 C23_4 1_555 1_555
C23_4 H17_4 1_555 1_555
C24_4 C23_4 1_555 1_555
H18_4 C24_4 1_555 1_555
C25_4 C24_4 1_555 1_555
C26_4 C25_4 1_555 1_555
H19_4 C26_4 1_555 1_555
C27_4 N3_2 1_555 1_555
H20_4 C27_4 1_555 1_555
C28_4 C25_4 1_555 1_555
C29_4 C28_4 1_555 1_555
H21_4 C29_4 1_555 1_555
C30_4 C29_4 1_555 1_555
H22_4 C30_4 1_555 1_555
C31_4 C30_4 1_555 1_555
C32_4 C31_4 1_555 1_555
H23_4 C32_4 1_555 1_555
C33_4 C28_4 1_555 1_555
H24_4 C33_4 1_555 1_555
C40_4 C39_4 1_555 1_555
H29_4 C40_4 1_555 1_555
C41_4 C40_4 1_555 1_555
H30_4 C41_4 1_555 1_555
C42_4 C31_4 1_555 1_555
C43_4 C42_4 1_555 1_555
H31_4 C43_4 1_555 1_555
C44_4 C39_4 1_555 1_555
H32_4 C44_4 1_555 1_555
Zn4_2 N3_2 1_555 1_555
C26_4 C27_4 1_555 1_555
C32_4 C33_4 1_555 1_555
C41_4 C42_4 1_555 1_555
C43_4 C44_4 1_555 1_555
Zn4_2 F1_4 1_555 1_555
Si1_4 F1_4 1_555 1_555
F2_4 Si1_4 1_555 1_555
F7_2 Si1_4 1_555 1_555
N1_4 Zn4_2 1_555 1_555
C1_4 N1_4 1_555 1_555
H1_4 C1_4 1_555 1_555
C2_4 C1_4 1_555 1_555
H2_4 C2_4 1_555 1_555
C3_4 C2_4 1_555 1_555
C4_4 C3_4 1_555 1_555
H3_4 C4_4 1_555 1_555
C5_4 N1_4 1_555 1_555
H4_4 C5_4 1_555 1_555
C6_4 C3_4 1_555 1_555
C7_4 C6_4 1_555 1_555
H5_4 C7_4 1_555 1_555
C8_4 C7_4 1_555 1_555
H6_4 C8_4 1_555 1_555
C9_4 C8_4 1_555 1_555
C10_4 C9_4 1_555 1_555
H7_4 C10_4 1_555 1_555
C11_4 C6_4 1_555 1_555
H8_4 C11_4 1_555 1_555
F4_4 Si1_4 1_555 1_555
F5_4 Si1_4 1_555 1_555
F6_4 Si1_4 1_555 1_555
C18_4 C17_4 1_555 1_555
H13_4 C18_4 1_555 1_555
C19_4 C18_4 1_555 1_555
H14_4 C19_4 1_555 1_555
C20_4 C9_4 1_555 1_555
C21_4 C20_4 1_555 1_555
H15_4 C21_4 1_555 1_555
C22_4 C17_4 1_555 1_555
H16_4 C22_4 1_555 1_555
N4_4 Zn4_2 1_555 1_555
C34_4 N4_4 1_555 1_555
H25_4 C34_4 1_555 1_555
C35_4 C34_4 1_555 1_555
H26_4 C35_4 1_555 1_555
C36_4 C35_4 1_555 1_555
C37_4 C36_4 1_555 1_555
H27_4 C37_4 1_555 1_555
C38_4 N4_4 1_555 1_555
H28_4 C38_4 1_555 1_555
N5_2 Zn4_2 1_555 1_555
C4_4 C5_4 1_555 1_555
C10_4 C11_4 1_555 1_555
C19_4 C20_4 1_555 1_555
C21_4 C22_4 1_555 1_555
C37_4 C38_4 1_555 1_555
N5_2 C12_4 1_555 1_555
C12_4 H9_4 1_555 1_555
C13_4 C12_4 1_555 1_555
H10_4 C13_4 1_555 1_555
C14_4 C13_4 1_555 1_555
C15_4 C14_4 1_555 1_555
H11_4 C15_4 1_555 1_555
C16_4 N5_2 1_555 1_555
H12_4 C16_4 1_555 1_555
C15_4 C16_4 1_555 1_555

#END
