
###############################################################################
#
# This file contains modified crystal structure data generated from the
# MOF subset of the Cambridge Structural Database (CSD) v543 
# hosted by the Cambridge Crystallographic Data Centre (CCDC).
#
# This work is licensed under the Creative Commons
# Attribution-NonCommercial-ShareAlike 4.0 International License.
# To view a copy of this license, visit
# http://creativecommons.org/licenses/by-nc-sa/4.0/
# or send a letter to
# Creative Commons, PO Box 1866, Mountain View, CA 94042, USA.
#
# CIF created using the CSD Python API on 29 September 2022
# The structure has been converted into the P1 space group
# The structure has a 3D framework
# The original CSD entry LIGHAM is in the monoclinic crystal system
# The framework has been calculated to contain at least 10.0% void space
# The void calculation uses a probe of radius 1.32A, grid spacing 0.4
#
###############################################################################

data_LIGHAM
_chemical_formula_moiety         '(C176 H184 Mn16 N8 O37)n'
_symmetry_cell_setting           triclinic
_symmetry_space_group_name_H-M   'P 1'
_symmetry_Int_Tables_number      1
_space_group_name_Hall           'P 1'
loop_
_symmetry_equiv_pos_site_id
_symmetry_equiv_pos_as_xyz
1 x,y,z
_cell_length_a                   20.1758(19)
_cell_length_b                   22.276(2)
_cell_length_c                   13.8669(13)
_cell_angle_alpha                90
_cell_angle_beta                 132.4330(10)
_cell_angle_gamma                90
_cell_volume                     4599.84
loop_
_atom_site_label
_atom_site_type_symbol
_atom_site_fract_x
_atom_site_fract_y
_atom_site_fract_z
Mn2 Mn 0.0000 -0.0000 -0.0000
H40 H 0.2064 0.0087 0.2265
H46 H 0.3849 0.0070 0.3547
Mn6 Mn 0.5000 0.5000 -0.0000
O14 O 0.05019(16) 0.03784(10) 0.1814(2)
Mn1 Mn 0.0000 0.03716(3) 0.7500
Mn2_2 Mn 0.0000 -0.0000 1.0000
O2 O 0.00830(14) 0.08138(9) 0.9232(2)
O6 O 0.08765(17) 0.10826(11) 0.7829(2)
O8 O 0.44981(16) 0.46216(10) 0.8186(2)
O9 O 0.37593(17) 0.47787(11) 0.6126(2)
C23 C 0.0555(2) 0.11498(13) 0.6696(3)
C24 C 0.0921(2) 0.16318(13) 0.6412(3)
C25 C 0.1541(2) 0.20370(15) 0.7411(3)
H24 H 0.1711 0.2009 0.8237
C26 C 0.1901(2) 0.24766(15) 0.7182(3)
C27 C 0.0667(2) 0.16753(15) 0.5202(3)
H25 H 0.0244 0.1399 0.4529
C28 C 0.1027(2) 0.21204(15) 0.4967(3)
H26 H 0.0854 0.2150 0.4140
C29 C 0.1640(2) 0.25191(15) 0.5955(3)
C30 C 0.2143(2) 0.30196(15) 0.6006(3)
C31 C 0.2148(3) 0.32454(17) 0.5077(4)
H27 H 0.1782 0.3071 0.4232
C32 C 0.2697(3) 0.37301(16) 0.5406(4)
H28 H 0.2692 0.3894 0.4769
C33 C 0.3861(2) 0.44897(13) 0.6993(3)
C34 C 0.3250(2) 0.39788(14) 0.6637(3)
C35 C 0.3253(2) 0.37505(15) 0.7581(3)
H29 H 0.3633 0.3920 0.8432
C36 C 0.2695(2) 0.32745(15) 0.7256(3)
C37 C 0.2600(3) 0.29532(18) 0.8123(4)
C38 C 0.3488(4) 0.2664(3) 0.9315(5)
H30 H 0.3928 0.2988 0.9876
H31 H 0.3385 0.2448 0.9827
C39 C 0.3892(4) 0.2237(3) 0.9006(8)
H32 H 0.3464 0.1914 0.8449
H33 H 0.4443 0.2066 0.9818
H34 H 0.4034 0.2451 0.8547
C40 C 0.2262(5) 0.3375(3) 0.8591(6)
H35 H 0.2195 0.3141 0.9129
H36 H 0.2722 0.3688 0.9158
C41 C 0.1394(6) 0.3673(3) 0.7522(9)
H37 H 0.1428 0.3865 0.6920
H38 H 0.1270 0.3978 0.7892
H39 H 0.0912 0.3374 0.7048
Mn4 Mn 0.5000 0.53716(3) 0.7500
Mn5 Mn 0.0000 -0.0000 0.5000
Mn6_2 Mn 0.5000 0.5000 1.0000
Mn2_3 Mn -0.0000 1.0000 -0.0000
O10 O 0.13573(17) 0.97965(15) 0.0903(3)
N2 N 0.2931(7) 0.9556(11) 0.3358(10)
C42 C 0.2094(8) 0.9699(8) 0.1996(11)
C43 C 0.3244(15) 0.9454(11) 0.4675(19)
H41 H 0.2725 0.9373 0.4581
H42 H 0.3653 0.9110 0.5093
H43 H 0.3558 0.9812 0.5217
C44 C 0.3788(16) 0.9646(15) 0.366(3)
H44 H 0.4294 0.9527 0.4569
H45 H 0.3784 0.9399 0.3073
Mn2_4 Mn 0.0000 1.0000 1.0000
Mn5_2 Mn 0.0000 1.0000 0.5000
O12 O 0.05019(16) 0.96216(10) 0.6814(2)
O15 O 0.12407(17) 0.97787(11) 0.8874(2)
Mn2_5 Mn 1.0000 -0.0000 -0.0000
H2 H 0.9756 0.1399 0.0471
C6 C 0.8973(2) 0.21204(15) 0.0033(3)
H3 H 0.9146 0.2150 0.0860
H4 H 0.8218 0.3071 0.0768
H5 H 0.7308 0.3894 0.0231
Mn1_2 Mn 1.0000 0.03716(3) 0.7500
Mn2_6 Mn 1.0000 -0.0000 1.0000
O1 O 0.91235(17) 0.10826(11) 0.7171(2)
O3 O 0.55019(16) 0.46216(10) 0.6814(2)
O4 O 0.62407(17) 0.47787(11) 0.8874(2)
C1 C 0.9445(2) 0.11498(13) 0.8304(3)
C2 C 0.9079(2) 0.16318(13) 0.8588(3)
C3 C 0.8459(2) 0.20370(15) 0.7589(3)
H1 H 0.8289 0.2009 0.6763
C4 C 0.8099(2) 0.24766(15) 0.7818(3)
C5 C 0.9333(2) 0.16753(15) 0.9798(3)
C7 C 0.8360(2) 0.25191(15) 0.9045(3)
C8 C 0.7857(2) 0.30196(15) 0.8994(3)
C9 C 0.7852(3) 0.32454(17) 0.9923(4)
C10 C 0.7303(3) 0.37301(16) 0.9594(4)
C11 C 0.6139(2) 0.44897(13) 0.8007(3)
C12 C 0.6750(2) 0.39788(14) 0.8363(3)
C13 C 0.6747(2) 0.37505(15) 0.7419(3)
H6 H 0.6367 0.3920 0.6568
C14 C 0.7305(2) 0.32745(15) 0.7744(3)
C15 C 0.7400(3) 0.29532(18) 0.6877(4)
C16 C 0.6512(4) 0.2664(3) 0.5685(5)
H7 H 0.6072 0.2988 0.5124
H8 H 0.6615 0.2448 0.5173
C17 C 0.6108(4) 0.2237(3) 0.5994(8)
H9 H 0.6536 0.1914 0.6551
H10 H 0.5557 0.2066 0.5182
H11 H 0.5966 0.2451 0.6453
C18 C 0.7738(5) 0.3375(3) 0.6409(6)
H12 H 0.7805 0.3141 0.5871
H13 H 0.7278 0.3688 0.5842
C19 C 0.8606(6) 0.3673(3) 0.7478(9)
H14 H 0.8572 0.3865 0.8080
H15 H 0.8730 0.3978 0.7108
H16 H 0.9088 0.3374 0.7952
O5 O 0.86427(17) 0.02035(15) 0.9097(3)
N1 N 0.7069(7) 0.0444(11) 0.6642(10)
C20 C 0.7906(8) 0.0301(8) 0.8004(11)
C21 C 0.6756(15) 0.0546(11) 0.5325(19)
H18 H 0.7275 0.0627 0.5419
H19 H 0.6347 0.0890 0.4907
H20 H 0.6442 0.0188 0.4783
C22 C 0.6212(16) 0.0354(15) 0.634(3)
H21 H 0.5706 0.0473 0.5431
H22 H 0.6216 0.0601 0.6927
O7 O 0.99170(14) 0.08138(9) 0.5768(2)
Mn5_3 Mn 1.0000 -0.0000 0.5000
Mn7 Mn 0.5000 0.5000 0.5000
Mn2_7 Mn 1.0000 1.0000 -0.0000
O11 O 0.99170(14) 0.91862(9) 0.0768(2)
Mn2_8 Mn 1.0000 1.0000 1.0000
H17 H 0.7936 0.9913 0.7735
H23 H 0.6151 0.9930 0.6453
Mn5_4 Mn 1.0000 1.0000 0.5000
O13 O 0.94981(16) 0.96216(10) 0.8186(2)
O16 O 0.87593(17) 0.97787(11) 0.6126(2)
H19_2 H 0.3653 0.0890 0.0093
H20_2 H 0.3558 0.0188 0.0217
O5_2 O 0.13573(17) 0.02035(15) 0.5903(3)
N1_2 N 0.2931(7) 0.0444(11) 0.8358(10)
C20_2 C 0.2094(8) 0.0301(8) 0.6996(11)
C21_2 C 0.3244(15) 0.0546(11) 0.9675(19)
H18_2 H 0.2725 0.0627 0.9581
C22_2 C 0.3788(16) 0.0354(15) 0.866(3)
H21_2 H 0.4294 0.0473 0.9569
H22_2 H 0.3784 0.0601 0.8073
H17_2 H 0.2064 0.9913 0.7265
H23_2 H 0.3849 0.9930 0.8547
O11_2 O 0.00830(14) 0.91862(9) 0.4232(2)
H40_2 H 0.7936 0.0087 0.2735
H46_2 H 0.6151 0.0070 0.1453
O14_2 O 0.94981(16) 0.03784(10) 0.3186(2)
O10_2 O 0.86427(17) 0.97965(15) 0.4097(3)
N2_2 N 0.7069(7) 0.9556(11) 0.1642(10)
C42_2 C 0.7906(8) 0.9699(8) 0.3004(11)
C43_2 C 0.6756(15) 0.9454(11) 0.0325(19)
H41_2 H 0.7275 0.9373 0.0419
C44_2 C 0.6212(16) 0.9646(15) 0.134(3)
H44_2 H 0.5706 0.9527 0.0431
H45_2 H 0.6216 0.9399 0.1927
H42_2 H 0.6347 0.9110 0.9907
H43_2 H 0.6442 0.9812 0.9783
H2_2 H 0.4756 0.6399 0.0471
C6_2 C 0.3973(2) 0.71204(15) 0.0033(3)
H3_2 H 0.4146 0.7150 0.0860
H4_2 H 0.3218 0.8071 0.0768
H5_2 H 0.2308 0.8894 0.0231
O10_3 O 0.63573(17) 0.47965(15) 0.0903(3)
N2_3 N 0.7931(7) 0.4556(11) 0.3358(10)
C42_3 C 0.7094(8) 0.4699(8) 0.1996(11)
H40_3 H 0.7064 0.5087 0.2265
C43_3 C 0.8244(15) 0.4454(11) 0.4675(19)
H41_3 H 0.7725 0.4373 0.4581
H42_3 H 0.8653 0.4110 0.5093
H43_3 H 0.8558 0.4812 0.5217
C44_3 C 0.8788(16) 0.4646(15) 0.366(3)
H44_3 H 0.9294 0.4527 0.4569
H45_3 H 0.8784 0.4399 0.3073
H46_3 H 0.8849 0.5070 0.3547
O11_3 O 0.49170(14) 0.41862(9) 0.0768(2)
O14_3 O 0.55019(16) 0.53784(10) 0.1814(2)
O1_2 O 0.41235(17) 0.60826(11) 0.7171(2)
O2_2 O 0.50830(14) 0.58138(9) 0.9232(2)
C1_2 C 0.4445(2) 0.61498(13) 0.8304(3)
C2_2 C 0.4079(2) 0.66318(13) 0.8588(3)
C3_2 C 0.3459(2) 0.70370(15) 0.7589(3)
H1_2 H 0.3289 0.7009 0.6763
C4_2 C 0.3099(2) 0.74766(15) 0.7818(3)
C5_2 C 0.4333(2) 0.66753(15) 0.9798(3)
C7_2 C 0.3360(2) 0.75191(15) 0.9045(3)
C8_2 C 0.2857(2) 0.80196(15) 0.8994(3)
C9_2 C 0.2852(3) 0.82454(17) 0.9923(4)
C10_2 C 0.2303(3) 0.87301(16) 0.9594(4)
C11_2 C 0.1139(2) 0.94897(13) 0.8007(3)
C12_2 C 0.1750(2) 0.89788(14) 0.8363(3)
C13_2 C 0.1747(2) 0.87505(15) 0.7419(3)
H6_2 H 0.1367 0.8920 0.6568
C14_2 C 0.2305(2) 0.82745(15) 0.7744(3)
C15_2 C 0.2400(3) 0.79532(18) 0.6877(4)
C16_2 C 0.1512(4) 0.7664(3) 0.5685(5)
H7_2 H 0.1072 0.7988 0.5124
H8_2 H 0.1615 0.7448 0.5173
C17_2 C 0.1108(4) 0.7237(3) 0.5994(8)
H9_2 H 0.1536 0.6914 0.6551
H10_2 H 0.0557 0.7066 0.5182
H11_2 H 0.0966 0.7451 0.6453
C18_2 C 0.2738(5) 0.8375(3) 0.6409(6)
H12_2 H 0.2805 0.8141 0.5871
H13_2 H 0.2278 0.8688 0.5842
C19_2 C 0.3606(6) 0.8673(3) 0.7478(9)
H14_2 H 0.3572 0.8865 0.8080
H15_2 H 0.3730 0.8978 0.7108
H16_2 H 0.4088 0.8374 0.7952
O5_3 O 0.36427(17) 0.52035(15) 0.9097(3)
N1_3 N 0.2069(7) 0.5444(11) 0.6642(10)
C20_3 C 0.2906(8) 0.5301(8) 0.8004(11)
H17_3 H 0.2936 0.4913 0.7735
C21_3 C 0.1756(15) 0.5546(11) 0.5325(19)
H18_3 H 0.2275 0.5627 0.5419
H19_3 H 0.1347 0.5890 0.4907
H20_3 H 0.1442 0.5188 0.4783
C22_3 C 0.1212(16) 0.5354(15) 0.634(3)
H21_3 H 0.0706 0.5473 0.5431
H22_3 H 0.1216 0.5601 0.6927
H23_3 H 0.1151 0.4930 0.6453
O6_2 O 0.58765(17) 0.60826(11) 0.7829(2)
O7_2 O 0.49170(14) 0.58138(9) 0.5768(2)
C23_2 C 0.5555(2) 0.61498(13) 0.6696(3)
C24_2 C 0.5921(2) 0.66318(13) 0.6412(3)
C25_2 C 0.6541(2) 0.70370(15) 0.7411(3)
H24_2 H 0.6711 0.7009 0.8237
C26_2 C 0.6901(2) 0.74766(15) 0.7182(3)
C27_2 C 0.5667(2) 0.66753(15) 0.5202(3)
H25_2 H 0.5244 0.6399 0.4529
C28_2 C 0.6027(2) 0.71204(15) 0.4967(3)
H26_2 H 0.5854 0.7150 0.4140
C29_2 C 0.6640(2) 0.75191(15) 0.5955(3)
C30_2 C 0.7143(2) 0.80196(15) 0.6006(3)
C31_2 C 0.7148(3) 0.82454(17) 0.5077(4)
H27_2 H 0.6782 0.8071 0.4232
C32_2 C 0.7697(3) 0.87301(16) 0.5406(4)
H28_2 H 0.7692 0.8894 0.4769
C33_2 C 0.8861(2) 0.94897(13) 0.6993(3)
C34_2 C 0.8250(2) 0.89788(14) 0.6637(3)
C35_2 C 0.8253(2) 0.87505(15) 0.7581(3)
H29_2 H 0.8633 0.8920 0.8432
C36_2 C 0.7695(2) 0.82745(15) 0.7256(3)
C37_2 C 0.7600(3) 0.79532(18) 0.8123(4)
C38_2 C 0.8488(4) 0.7664(3) 0.9315(5)
H30_2 H 0.8928 0.7988 0.9876
H31_2 H 0.8385 0.7448 0.9827
C39_2 C 0.8892(4) 0.7237(3) 0.9006(8)
H32_2 H 0.8464 0.6914 0.8449
H33_2 H 0.9443 0.7066 0.9818
H34_2 H 0.9034 0.7451 0.8547
C40_2 C 0.7262(5) 0.8375(3) 0.8591(6)
H35_2 H 0.7195 0.8141 0.9129
H36_2 H 0.7722 0.8688 0.9158
C41_2 C 0.6394(6) 0.8673(3) 0.7522(9)
H37_2 H 0.6428 0.8865 0.6920
H38_2 H 0.6270 0.8978 0.7892
H39_2 H 0.5912 0.8374 0.7048
H19_4 H 0.8653 0.5890 0.0093
H20_4 H 0.8558 0.5188 0.0217
O5_4 O 0.63573(17) 0.52035(15) 0.5903(3)
N1_4 N 0.7931(7) 0.5444(11) 0.8358(10)
C20_4 C 0.7094(8) 0.5301(8) 0.6996(11)
H17_4 H 0.7064 0.4913 0.7265
C21_4 C 0.8244(15) 0.5546(11) 0.9675(19)
H18_4 H 0.7725 0.5627 0.9581
C22_4 C 0.8788(16) 0.5354(15) 0.866(3)
H21_4 H 0.9294 0.5473 0.9569
H22_4 H 0.8784 0.5601 0.8073
H23_4 H 0.8849 0.4930 0.8547
O10_4 O 0.36427(17) 0.47965(15) 0.4097(3)
N2_4 N 0.2069(7) 0.4556(11) 0.1642(10)
C42_4 C 0.2906(8) 0.4699(8) 0.3004(11)
H40_4 H 0.2936 0.5087 0.2735
C43_4 C 0.1756(15) 0.4454(11) 0.0325(19)
H41_4 H 0.2275 0.4373 0.0419
C44_4 C 0.1212(16) 0.4646(15) 0.134(3)
H44_4 H 0.0706 0.4527 0.0431
H45_4 H 0.1216 0.4399 0.1927
H46_4 H 0.1151 0.5070 0.1453
O11_4 O 0.50830(14) 0.41862(9) 0.4232(2)
O14_4 O 0.44981(16) 0.53784(10) 0.3186(2)
H42_4 H 0.1347 0.4110 0.9907
H43_4 H 0.1442 0.4812 0.9783
O16_2 O 0.12407(17) 0.02213(11) 0.3874(2)
Mn1_3 Mn 0.0000 0.96284(3) 0.2500
O1_3 O 0.08765(17) 0.89174(11) 0.2829(2)
O4_2 O 0.37593(17) 0.52213(11) 0.1126(2)
C1_3 C 0.0555(2) 0.88502(13) 0.1696(3)
C2_3 C 0.0921(2) 0.83682(13) 0.1412(3)
C3_3 C 0.1541(2) 0.79630(15) 0.2411(3)
H1_3 H 0.1711 0.7991 0.3237
C4_3 C 0.1901(2) 0.75234(15) 0.2182(3)
C5_3 C 0.0667(2) 0.83247(15) 0.0202(3)
C7_3 C 0.1640(2) 0.74809(15) 0.0955(3)
C8_3 C 0.2143(2) 0.69804(15) 0.1006(3)
C9_3 C 0.2148(3) 0.67546(17) 0.0077(4)
C10_3 C 0.2697(3) 0.62699(16) 0.0406(4)
C11_3 C 0.3861(2) 0.55103(13) 0.1993(3)
C12_3 C 0.3250(2) 0.60212(14) 0.1637(3)
C13_3 C 0.3253(2) 0.62495(15) 0.2581(3)
H6_3 H 0.3633 0.6080 0.3432
C14_3 C 0.2695(2) 0.67255(15) 0.2256(3)
C15_3 C 0.2600(3) 0.70468(18) 0.3123(4)
C16_3 C 0.3488(4) 0.7336(3) 0.4315(5)
H7_3 H 0.3928 0.7012 0.4876
H8_3 H 0.3385 0.7552 0.4827
C17_3 C 0.3892(4) 0.7763(3) 0.4006(8)
H9_3 H 0.3464 0.8086 0.3449
H10_3 H 0.4443 0.7934 0.4818
H11_3 H 0.4034 0.7549 0.3547
C18_3 C 0.2262(5) 0.6625(3) 0.3591(6)
H12_3 H 0.2195 0.6859 0.4129
H13_3 H 0.2722 0.6312 0.4158
C19_3 C 0.1394(6) 0.6327(3) 0.2522(9)
H14_3 H 0.1428 0.6135 0.1920
H15_3 H 0.1270 0.6022 0.2892
H16_3 H 0.0912 0.6626 0.2048
Mn3 Mn 0.5000 0.46284(3) 0.2500
H2_3 H 0.0244 0.8601 0.9529
C6_3 C 0.1027(2) 0.78796(15) 0.9967(3)
H3_3 H 0.0854 0.7850 0.9140
H4_3 H 0.1782 0.6929 0.9232
H5_3 H 0.2692 0.6106 0.9769
O15_2 O 0.87593(17) 0.02213(11) 0.1126(2)
Mn1_4 Mn 1.0000 0.96284(3) 0.2500
O6_3 O 0.91235(17) 0.89174(11) 0.2171(2)
O9_2 O 0.62407(17) 0.52213(11) 0.3874(2)
C23_3 C 0.9445(2) 0.88502(13) 0.3304(3)
C24_3 C 0.9079(2) 0.83682(13) 0.3588(3)
C25_3 C 0.8459(2) 0.79630(15) 0.2589(3)
H24_3 H 0.8289 0.7991 0.1763
C26_3 C 0.8099(2) 0.75234(15) 0.2818(3)
C27_3 C 0.9333(2) 0.83247(15) 0.4798(3)
H25_3 H 0.9756 0.8601 0.5471
C28_3 C 0.8973(2) 0.78796(15) 0.5033(3)
H26_3 H 0.9146 0.7850 0.5860
C29_3 C 0.8360(2) 0.74809(15) 0.4045(3)
C30_3 C 0.7857(2) 0.69804(15) 0.3994(3)
C31_3 C 0.7852(3) 0.67546(17) 0.4923(4)
H27_3 H 0.8218 0.6929 0.5768
C32_3 C 0.7303(3) 0.62699(16) 0.4594(4)
H28_3 H 0.7308 0.6106 0.5231
C33_3 C 0.6139(2) 0.55103(13) 0.3007(3)
C34_3 C 0.6750(2) 0.60212(14) 0.3363(3)
C35_3 C 0.6747(2) 0.62495(15) 0.2419(3)
H29_3 H 0.6367 0.6080 0.1568
C36_3 C 0.7305(2) 0.67255(15) 0.2744(3)
C37_3 C 0.7400(3) 0.70468(18) 0.1877(4)
C38_3 C 0.6512(4) 0.7336(3) 0.0685(5)
H30_3 H 0.6072 0.7012 0.0124
H31_3 H 0.6615 0.7552 0.0173
C39_3 C 0.6108(4) 0.7763(3) 0.0994(8)
H32_3 H 0.6536 0.8086 0.1551
H33_3 H 0.5557 0.7934 0.0182
H34_3 H 0.5966 0.7549 0.1453
C40_3 C 0.7738(5) 0.6625(3) 0.1409(6)
H35_3 H 0.7805 0.6859 0.0871
H36_3 H 0.7278 0.6312 0.0842
C41_3 C 0.8606(6) 0.6327(3) 0.2478(9)
H37_3 H 0.8572 0.6135 0.3080
H38_3 H 0.8730 0.6022 0.2108
H39_3 H 0.9088 0.6626 0.2952
O1_4 O 0.58765(17) 0.39174(11) 0.2829(2)
C1_4 C 0.5555(2) 0.38502(13) 0.1696(3)
C2_4 C 0.5921(2) 0.33682(13) 0.1412(3)
C3_4 C 0.6541(2) 0.29630(15) 0.2411(3)
H1_4 H 0.6711 0.2991 0.3237
C4_4 C 0.6901(2) 0.25234(15) 0.2182(3)
C5_4 C 0.5667(2) 0.33247(15) 0.0202(3)
C7_4 C 0.6640(2) 0.24809(15) 0.0955(3)
C8_4 C 0.7143(2) 0.19804(15) 0.1006(3)
C9_4 C 0.7148(3) 0.17546(17) 0.0077(4)
C10_4 C 0.7697(3) 0.12699(16) 0.0406(4)
C11_4 C 0.8861(2) 0.05103(13) 0.1993(3)
C12_4 C 0.8250(2) 0.10212(14) 0.1637(3)
C13_4 C 0.8253(2) 0.12495(15) 0.2581(3)
H6_4 H 0.8633 0.1080 0.3432
C14_4 C 0.7695(2) 0.17255(15) 0.2256(3)
C15_4 C 0.7600(3) 0.20468(18) 0.3123(4)
C16_4 C 0.8488(4) 0.2336(3) 0.4315(5)
H7_4 H 0.8928 0.2012 0.4876
H8_4 H 0.8385 0.2552 0.4827
C17_4 C 0.8892(4) 0.2763(3) 0.4006(8)
H9_4 H 0.8464 0.3086 0.3449
H10_4 H 0.9443 0.2934 0.4818
H11_4 H 0.9034 0.2549 0.3547
C18_4 C 0.7262(5) 0.1625(3) 0.3591(6)
H12_4 H 0.7195 0.1859 0.4129
H13_4 H 0.7722 0.1312 0.4158
C19_4 C 0.6394(6) 0.1327(3) 0.2522(9)
H14_4 H 0.6428 0.1135 0.1920
H15_4 H 0.6270 0.1022 0.2892
H16_4 H 0.5912 0.1626 0.2048
O6_4 O 0.41235(17) 0.39174(11) 0.2171(2)
C23_4 C 0.4445(2) 0.38502(13) 0.3304(3)
C24_4 C 0.4079(2) 0.33682(13) 0.3588(3)
C25_4 C 0.3459(2) 0.29630(15) 0.2589(3)
H24_4 H 0.3289 0.2991 0.1763
C26_4 C 0.3099(2) 0.25234(15) 0.2818(3)
C27_4 C 0.4333(2) 0.33247(15) 0.4798(3)
H25_4 H 0.4756 0.3601 0.5471
C28_4 C 0.3973(2) 0.28796(15) 0.5033(3)
H26_4 H 0.4146 0.2850 0.5860
C29_4 C 0.3360(2) 0.24809(15) 0.4045(3)
C30_4 C 0.2857(2) 0.19804(15) 0.3994(3)
C31_4 C 0.2852(3) 0.17546(17) 0.4923(4)
H27_4 H 0.3218 0.1929 0.5768
C32_4 C 0.2303(3) 0.12699(16) 0.4594(4)
H28_4 H 0.2308 0.1106 0.5231
C33_4 C 0.1139(2) 0.05103(13) 0.3007(3)
C34_4 C 0.1750(2) 0.10212(14) 0.3363(3)
C35_4 C 0.1747(2) 0.12495(15) 0.2419(3)
H29_4 H 0.1367 0.1080 0.1568
C36_4 C 0.2305(2) 0.17255(15) 0.2744(3)
C37_4 C 0.2400(3) 0.20468(18) 0.1877(4)
C38_4 C 0.1512(4) 0.2336(3) 0.0685(5)
H30_4 H 0.1072 0.2012 0.0124
H31_4 H 0.1615 0.2552 0.0173
C39_4 C 0.1108(4) 0.2763(3) 0.0994(8)
H32_4 H 0.1536 0.3086 0.1551
H33_4 H 0.0557 0.2934 0.0182
H34_4 H 0.0966 0.2549 0.1453
C40_4 C 0.2738(5) 0.1625(3) 0.1409(6)
H35_4 H 0.2805 0.1859 0.0871
H36_4 H 0.2278 0.1312 0.0842
C41_4 C 0.3606(6) 0.1327(3) 0.2478(9)
H37_4 H 0.3572 0.1135 0.3080
H38_4 H 0.3730 0.1022 0.2108
H39_4 H 0.4088 0.1626 0.2952
H2_4 H 0.5244 0.3601 0.9529
C6_4 C 0.6027(2) 0.28796(15) 0.9967(3)
H3_4 H 0.5854 0.2850 0.9140
H4_4 H 0.6782 0.1929 0.9232
H5_4 H 0.7692 0.1106 0.9769
loop_
_geom_bond_atom_site_label_1
_geom_bond_atom_site_label_2
_geom_bond_site_symmetry_1
_geom_bond_site_symmetry_2
O14 Mn2 1_555 1_555
Mn2_2 O2 1_555 1_555
O6 Mn1 1_555 1_555
O8 C33 1_555 1_555
O9 C33 1_555 1_555
C23 O6 1_555 1_555
C24 C23 1_555 1_555
C25 C24 1_555 1_555
H24 C25 1_555 1_555
C26 C25 1_555 1_555
C27 C24 1_555 1_555
H25 C27 1_555 1_555
C28 C27 1_555 1_555
H26 C28 1_555 1_555
C29 C26 1_555 1_555
C30 C29 1_555 1_555
C31 C30 1_555 1_555
H27 C31 1_555 1_555
C32 C31 1_555 1_555
H28 C32 1_555 1_555
C33 C34 1_555 1_555
C34 C32 1_555 1_555
C35 C34 1_555 1_555
H29 C35 1_555 1_555
C36 C30 1_555 1_555
C37 C26 1_555 1_555
C38 C37 1_555 1_555
H30 C38 1_555 1_555
H31 C38 1_555 1_555
C39 C38 1_555 1_555
H32 C39 1_555 1_555
H33 C39 1_555 1_555
H34 C39 1_555 1_555
C40 C37 1_555 1_555
H35 C40 1_555 1_555
H36 C40 1_555 1_555
C41 C40 1_555 1_555
H37 C41 1_555 1_555
H38 C41 1_555 1_555
H39 C41 1_555 1_555
Mn4 O8 1_555 1_555
Mn6_2 O8 1_555 1_555
O9 Mn4 1_555 1_555
C28 C29 1_555 1_555
C35 C36 1_555 1_555
C36 C37 1_555 1_555
O10 Mn2_3 1_555 1_555
N2 C42 1_555 1_555
C42 O10 1_555 1_555
C43 N2 1_555 1_555
H41 C43 1_555 1_555
H42 C43 1_555 1_555
H43 C43 1_555 1_555
C44 N2 1_555 1_555
H44 C44 1_555 1_555
H45 C44 1_555 1_555
Mn5_2 O12 1_555 1_555
H3 C6 1_555 1_555
Mn1_2 O1 1_555 1_555
O1 C1 1_555 1_555
O3 C11 1_555 1_555
O4 C11 1_555 1_555
C1 C2 1_555 1_555
C2 C3 1_555 1_555
C3 H1 1_555 1_555
C4 C3 1_555 1_555
C5 C2 1_555 1_555
C7 C4 1_555 1_555
C8 C7 1_555 1_555
C9 C8 1_555 1_555
C10 C9 1_555 1_555
C11 C12 1_555 1_555
C12 C10 1_555 1_555
C13 C12 1_555 1_555
H6 C13 1_555 1_555
C14 C8 1_555 1_555
C15 C4 1_555 1_555
C16 C15 1_555 1_555
H7 C16 1_555 1_555
H8 C16 1_555 1_555
C17 C16 1_555 1_555
H9 C17 1_555 1_555
H10 C17 1_555 1_555
H11 C17 1_555 1_555
C18 C15 1_555 1_555
H12 C18 1_555 1_555
H13 C18 1_555 1_555
C19 C18 1_555 1_555
H14 C19 1_555 1_555
H15 C19 1_555 1_555
H16 C19 1_555 1_555
O5 Mn2_6 1_555 1_555
N1 C20 1_555 1_555
C20 O5 1_555 1_555
C21 N1 1_555 1_555
H18 C21 1_555 1_555
H19 C21 1_555 1_555
H20 C21 1_555 1_555
C22 N1 1_555 1_555
H21 C22 1_555 1_555
H22 C22 1_555 1_555
Mn4 O3 1_555 1_555
Mn5_3 O7 1_555 1_555
Mn7 O3 1_555 1_555
O4 Mn4 1_555 1_555
C13 C14 1_555 1_555
C14 C15 1_555 1_555
O11 Mn2_7 1_555 1_555
Mn2_8 O13 1_555 1_555
O5_2 Mn5 1_555 1_555
N1_2 C20_2 1_555 1_555
C20_2 O5_2 1_555 1_555
C21_2 N1_2 1_555 1_555
H18_2 C21_2 1_555 1_555
C22_2 N1_2 1_555 1_555
H21_2 C22_2 1_555 1_555
H22_2 C22_2 1_555 1_555
O11_2 Mn5_2 1_555 1_555
O14_2 Mn5_3 1_555 1_555
O10_2 Mn5_4 1_555 1_555
N2_2 C42_2 1_555 1_555
C42_2 O10_2 1_555 1_555
C43_2 N2_2 1_555 1_555
H41_2 C43_2 1_555 1_555
C44_2 N2_2 1_555 1_555
H44_2 C44_2 1_555 1_555
H45_2 C44_2 1_555 1_555
H3_2 C6_2 1_555 1_555
O10_3 Mn6 1_555 1_555
N2_3 C42_3 1_555 1_555
C42_3 O10_3 1_555 1_555
H40_3 C42_3 1_555 1_555
C43_3 N2_3 1_555 1_555
H41_3 C43_3 1_555 1_555
H42_3 C43_3 1_555 1_555
H43_3 C43_3 1_555 1_555
C44_3 N2_3 1_555 1_555
H44_3 C44_3 1_555 1_555
H45_3 C44_3 1_555 1_555
H46_3 C44_3 1_555 1_555
O11_3 Mn6 1_555 1_555
O14_3 Mn6 1_555 1_555
Mn4 O1_2 1_555 1_555
Mn6_2 O2_2 1_555 1_555
O1_2 C1_2 1_555 1_555
O2_2 C1_2 1_555 1_555
O12 C11_2 1_555 1_555
O15 C11_2 1_555 1_555
C1_2 C2_2 1_555 1_555
C2_2 C3_2 1_555 1_555
C3_2 H1_2 1_555 1_555
C4_2 C3_2 1_555 1_555
C5_2 C2_2 1_555 1_555
C7_2 C4_2 1_555 1_555
C8_2 C7_2 1_555 1_555
C9_2 C8_2 1_555 1_555
C10_2 C9_2 1_555 1_555
C11_2 C12_2 1_555 1_555
C12_2 C10_2 1_555 1_555
C13_2 C12_2 1_555 1_555
H6_2 C13_2 1_555 1_555
C14_2 C8_2 1_555 1_555
C15_2 C4_2 1_555 1_555
C16_2 C15_2 1_555 1_555
H7_2 C16_2 1_555 1_555
H8_2 C16_2 1_555 1_555
C17_2 C16_2 1_555 1_555
H9_2 C17_2 1_555 1_555
H10_2 C17_2 1_555 1_555
H11_2 C17_2 1_555 1_555
C18_2 C15_2 1_555 1_555
H12_2 C18_2 1_555 1_555
H13_2 C18_2 1_555 1_555
C19_2 C18_2 1_555 1_555
H14_2 C19_2 1_555 1_555
H15_2 C19_2 1_555 1_555
H16_2 C19_2 1_555 1_555
O5_3 Mn6_2 1_555 1_555
N1_3 C20_3 1_555 1_555
C20_3 O5_3 1_555 1_555
H17_3 C20_3 1_555 1_555
C21_3 N1_3 1_555 1_555
H18_3 C21_3 1_555 1_555
H19_3 C21_3 1_555 1_555
H20_3 C21_3 1_555 1_555
C22_3 N1_3 1_555 1_555
H21_3 C22_3 1_555 1_555
H22_3 C22_3 1_555 1_555
H23_3 C22_3 1_555 1_555
O6_2 Mn4 1_555 1_555
O7_2 C23_2 1_555 1_555
O13 C33_2 1_555 1_555
O16 C33_2 1_555 1_555
C23_2 O6_2 1_555 1_555
C24_2 C23_2 1_555 1_555
C25_2 C24_2 1_555 1_555
H24_2 C25_2 1_555 1_555
C26_2 C25_2 1_555 1_555
C27_2 C24_2 1_555 1_555
H25_2 C27_2 1_555 1_555
C28_2 C27_2 1_555 1_555
H26_2 C28_2 1_555 1_555
C29_2 C26_2 1_555 1_555
C30_2 C29_2 1_555 1_555
C31_2 C30_2 1_555 1_555
H27_2 C31_2 1_555 1_555
C32_2 C31_2 1_555 1_555
H28_2 C32_2 1_555 1_555
C33_2 C34_2 1_555 1_555
C34_2 C32_2 1_555 1_555
C35_2 C34_2 1_555 1_555
H29_2 C35_2 1_555 1_555
C36_2 C30_2 1_555 1_555
C37_2 C26_2 1_555 1_555
C38_2 C37_2 1_555 1_555
H30_2 C38_2 1_555 1_555
H31_2 C38_2 1_555 1_555
C39_2 C38_2 1_555 1_555
H32_2 C39_2 1_555 1_555
H33_2 C39_2 1_555 1_555
H34_2 C39_2 1_555 1_555
C40_2 C37_2 1_555 1_555
H35_2 C40_2 1_555 1_555
H36_2 C40_2 1_555 1_555
C41_2 C40_2 1_555 1_555
H37_2 C41_2 1_555 1_555
H38_2 C41_2 1_555 1_555
H39_2 C41_2 1_555 1_555
Mn7 O7_2 1_555 1_555
C13_2 C14_2 1_555 1_555
C14_2 C15_2 1_555 1_555
C28_2 C29_2 1_555 1_555
C35_2 C36_2 1_555 1_555
C36_2 C37_2 1_555 1_555
O5_4 Mn7 1_555 1_555
N1_4 C20_4 1_555 1_555
C20_4 O5_4 1_555 1_555
H17_4 C20_4 1_555 1_555
C21_4 N1_4 1_555 1_555
H18_4 C21_4 1_555 1_555
C22_4 N1_4 1_555 1_555
H21_4 C22_4 1_555 1_555
H22_4 C22_4 1_555 1_555
H23_4 C22_4 1_555 1_555
O10_4 Mn7 1_555 1_555
N2_4 C42_4 1_555 1_555
C42_4 O10_4 1_555 1_555
H40_4 C42_4 1_555 1_555
C43_4 N2_4 1_555 1_555
H41_4 C43_4 1_555 1_555
C44_4 N2_4 1_555 1_555
H44_4 C44_4 1_555 1_555
H45_4 C44_4 1_555 1_555
H46_4 C44_4 1_555 1_555
O11_4 Mn7 1_555 1_555
O14_4 Mn7 1_555 1_555
Mn1_3 O1_3 1_555 1_555
O1_3 C1_3 1_555 1_555
O14_4 C11_3 1_555 1_555
O4_2 C11_3 1_555 1_555
C1_3 C2_3 1_555 1_555
C2_3 C3_3 1_555 1_555
C3_3 H1_3 1_555 1_555
C4_3 C3_3 1_555 1_555
C5_3 C2_3 1_555 1_555
C7_3 C4_3 1_555 1_555
C8_3 C7_3 1_555 1_555
C9_3 C8_3 1_555 1_555
C10_3 C9_3 1_555 1_555
C11_3 C12_3 1_555 1_555
C12_3 C10_3 1_555 1_555
C13_3 C12_3 1_555 1_555
H6_3 C13_3 1_555 1_555
C14_3 C8_3 1_555 1_555
C15_3 C4_3 1_555 1_555
C16_3 C15_3 1_555 1_555
H7_3 C16_3 1_555 1_555
H8_3 C16_3 1_555 1_555
C17_3 C16_3 1_555 1_555
H9_3 C17_3 1_555 1_555
H10_3 C17_3 1_555 1_555
H11_3 C17_3 1_555 1_555
C18_3 C15_3 1_555 1_555
H12_3 C18_3 1_555 1_555
H13_3 C18_3 1_555 1_555
C19_3 C18_3 1_555 1_555
H14_3 C19_3 1_555 1_555
H15_3 C19_3 1_555 1_555
H16_3 C19_3 1_555 1_555
Mn3 O14_4 1_555 1_555
O4_2 Mn3 1_555 1_555
C13_3 C14_3 1_555 1_555
C14_3 C15_3 1_555 1_555
H3_3 C6_3 1_555 1_555
O6_3 Mn1_4 1_555 1_555
O14_3 C33_3 1_555 1_555
O9_2 C33_3 1_555 1_555
C23_3 O6_3 1_555 1_555
C24_3 C23_3 1_555 1_555
C25_3 C24_3 1_555 1_555
H24_3 C25_3 1_555 1_555
C26_3 C25_3 1_555 1_555
C27_3 C24_3 1_555 1_555
H25_3 C27_3 1_555 1_555
C28_3 C27_3 1_555 1_555
H26_3 C28_3 1_555 1_555
C29_3 C26_3 1_555 1_555
C30_3 C29_3 1_555 1_555
C31_3 C30_3 1_555 1_555
H27_3 C31_3 1_555 1_555
C32_3 C31_3 1_555 1_555
H28_3 C32_3 1_555 1_555
C33_3 C34_3 1_555 1_555
C34_3 C32_3 1_555 1_555
C35_3 C34_3 1_555 1_555
H29_3 C35_3 1_555 1_555
C36_3 C30_3 1_555 1_555
C37_3 C26_3 1_555 1_555
C38_3 C37_3 1_555 1_555
H30_3 C38_3 1_555 1_555
H31_3 C38_3 1_555 1_555
C39_3 C38_3 1_555 1_555
H32_3 C39_3 1_555 1_555
H33_3 C39_3 1_555 1_555
H34_3 C39_3 1_555 1_555
C40_3 C37_3 1_555 1_555
H35_3 C40_3 1_555 1_555
H36_3 C40_3 1_555 1_555
C41_3 C40_3 1_555 1_555
H37_3 C41_3 1_555 1_555
H38_3 C41_3 1_555 1_555
H39_3 C41_3 1_555 1_555
Mn3 O14_3 1_555 1_555
O9_2 Mn3 1_555 1_555
C28_3 C29_3 1_555 1_555
C35_3 C36_3 1_555 1_555
C36_3 C37_3 1_555 1_555
Mn3 O1_4 1_555 1_555
O1_4 C1_4 1_555 1_555
O11_3 C1_4 1_555 1_555
O14_2 C11_4 1_555 1_555
O15_2 C11_4 1_555 1_555
C1_4 C2_4 1_555 1_555
C2_4 C3_4 1_555 1_555
C3_4 H1_4 1_555 1_555
C4_4 C3_4 1_555 1_555
C5_4 C2_4 1_555 1_555
C7_4 C4_4 1_555 1_555
C8_4 C7_4 1_555 1_555
C9_4 C8_4 1_555 1_555
C10_4 C9_4 1_555 1_555
C11_4 C12_4 1_555 1_555
C12_4 C10_4 1_555 1_555
C13_4 C12_4 1_555 1_555
H6_4 C13_4 1_555 1_555
C14_4 C8_4 1_555 1_555
C15_4 C4_4 1_555 1_555
C16_4 C15_4 1_555 1_555
H7_4 C16_4 1_555 1_555
H8_4 C16_4 1_555 1_555
C17_4 C16_4 1_555 1_555
H9_4 C17_4 1_555 1_555
H10_4 C17_4 1_555 1_555
H11_4 C17_4 1_555 1_555
C18_4 C15_4 1_555 1_555
H12_4 C18_4 1_555 1_555
H13_4 C18_4 1_555 1_555
C19_4 C18_4 1_555 1_555
H14_4 C19_4 1_555 1_555
H15_4 C19_4 1_555 1_555
H16_4 C19_4 1_555 1_555
O6_4 Mn3 1_555 1_555
O11_4 C23_4 1_555 1_555
O14 C33_4 1_555 1_555
O16_2 C33_4 1_555 1_555
C23_4 O6_4 1_555 1_555
C24_4 C23_4 1_555 1_555
C25_4 C24_4 1_555 1_555
H24_4 C25_4 1_555 1_555
C26_4 C25_4 1_555 1_555
C27_4 C24_4 1_555 1_555
H25_4 C27_4 1_555 1_555
C28_4 C27_4 1_555 1_555
H26_4 C28_4 1_555 1_555
C29_4 C26_4 1_555 1_555
C30_4 C29_4 1_555 1_555
C31_4 C30_4 1_555 1_555
H27_4 C31_4 1_555 1_555
C32_4 C31_4 1_555 1_555
H28_4 C32_4 1_555 1_555
C33_4 C34_4 1_555 1_555
C34_4 C32_4 1_555 1_555
C35_4 C34_4 1_555 1_555
H29_4 C35_4 1_555 1_555
C36_4 C30_4 1_555 1_555
C37_4 C26_4 1_555 1_555
C38_4 C37_4 1_555 1_555
H30_4 C38_4 1_555 1_555
H31_4 C38_4 1_555 1_555
C39_4 C38_4 1_555 1_555
H32_4 C39_4 1_555 1_555
H33_4 C39_4 1_555 1_555
H34_4 C39_4 1_555 1_555
C40_4 C37_4 1_555 1_555
H35_4 C40_4 1_555 1_555
H36_4 C40_4 1_555 1_555
C41_4 C40_4 1_555 1_555
H37_4 C41_4 1_555 1_555
H38_4 C41_4 1_555 1_555
H39_4 C41_4 1_555 1_555
C13_4 C14_4 1_555 1_555
C14_4 C15_4 1_555 1_555
C28_4 C29_4 1_555 1_555
C35_4 C36_4 1_555 1_555
C36_4 C37_4 1_555 1_555
H3_4 C6_4 1_555 1_555

#END
