
###############################################################################
#
# This file contains modified crystal structure data generated from the
# MOF subset of the Cambridge Structural Database (CSD) v543 
# hosted by the Cambridge Crystallographic Data Centre (CCDC).
#
# This work is licensed under the Creative Commons
# Attribution-NonCommercial-ShareAlike 4.0 International License.
# To view a copy of this license, visit
# http://creativecommons.org/licenses/by-nc-sa/4.0/
# or send a letter to
# Creative Commons, PO Box 1866, Mountain View, CA 94042, USA.
#
# CIF created using the CSD Python API on 29 September 2022
# The structure has been converted into the P1 space group
# The structure has a 3D framework
# The original CSD entry LIGQEA is in the rhombohedral crystal system
# The framework has been calculated to contain at least 10.0% void space
# The void calculation uses a probe of radius 1.32A, grid spacing 0.4
# H atom positions have been added when not included in the experimental data
# Generated hydrogen atom positions removed from atoms on special positions
#
###############################################################################

data_LIGQEA
_chemical_formula_moiety         '(C720 H576 Cu36 O188)n'
_symmetry_cell_setting           triclinic
_symmetry_space_group_name_H-M   'P 1'
_symmetry_Int_Tables_number      1
_space_group_name_Hall           'P 1'
loop_
_symmetry_equiv_pos_site_id
_symmetry_equiv_pos_as_xyz
1 x,y,z
_cell_length_a                   38.2974(17)
_cell_length_b                   38.2974(17)
_cell_length_c                   22.9596(11)
_cell_angle_alpha                90
_cell_angle_beta                 90
_cell_angle_gamma                120
_cell_volume                     29163.1
loop_
_atom_site_label
_atom_site_type_symbol
_atom_site_fract_x
_atom_site_fract_y
_atom_site_fract_z
O32 O 0.26222(20) 0.03202(14) 0.1361(2)
H81 H 0.2421 0.0090 0.2402
Cu10 Cu 0.28531(2) 0.07490(2) 0.07559(3)
Cu16 Cu 0.25339(2) 0.01253(2) 0.00747(3)
H64 H 0.0024 0.6062 0.3955
H65 H 0.0098 0.6079 0.4645
O30 O 0.22624(19) 0.86300(14) 0.67022(19)
O31 O 0.28103(26) 0.88946(19) 0.6132(2)
O33 O 0.23592(23) 0.97910(15) 0.0756(2)
C96 C 0.0002(3) 0.7435(2) 0.2821(3)
C97 C 0.0339(3) 0.7803(2) 0.2949(3)
H71 H 0.0377 0.8041 0.2761
C98 C 0.0623(3) 0.7828(2) 0.3347(3)
C99 C 0.0569(4) 0.7478(3) 0.3612(4)
H72 H 0.0764 0.7492 0.3883
C100 C 0.0232(4) 0.7108(2) 0.3482(4)
H73 H 0.0196 0.6871 0.3670
C101 C 0.0997(3) 0.8220(2) 0.3476(3)
C102 C 0.1174(3) 0.8514(2) 0.3044(3)
H74 H 0.1040 0.8478 0.2682
C103 C 0.1546(3) 0.8859(2) 0.3141(3)
C104 C 0.1728(4) 0.8924(2) 0.3678(3)
H75 H 0.1974 0.9168 0.3751
C105 C 0.1549(4) 0.8627(2) 0.4127(3)
C106 C 0.1183(4) 0.8287(2) 0.4024(3)
H76 H 0.1056 0.8096 0.4326
C107 C 0.2439(3) 0.8740(2) 0.6217(3)
C108 C 0.2194(3) 0.8703(2) 0.5684(3)
C109 C 0.1778(3) 0.8525(2) 0.5699(3)
H77 H 0.1637 0.8417 0.6054
C110 C 0.1567(3) 0.8504(2) 0.5203(3)
H78 H 0.1281 0.8371 0.5215
C111 C 0.1768(4) 0.8676(2) 0.4681(3)
C112 C 0.2186(4) 0.8860(2) 0.4673(3)
H79 H 0.2326 0.8976 0.4320
C113 C 0.2402(4) 0.8878(2) 0.5164(3)
H80 H 0.2688 0.9007 0.5151
C114 C 0.2407(3) 0.9951(2) 0.1248(3)
C115 C 0.2190(3) 0.9675(2) 0.1747(3)
C116 C 0.2239(3) 0.9813(2) 0.2319(3)
C117 C 0.2026(4) 0.9550(2) 0.2771(3)
H82 H 0.2062 0.9647 0.3159
C118 C 0.1762(3) 0.9146(2) 0.2654(3)
C119 C 0.1712(4) 0.9012(2) 0.2088(3)
H83 H 0.1528 0.8737 0.2004
C120 C 0.1926(4) 0.9271(2) 0.1639(3)
H84 H 0.1893 0.9171 0.1253
Cu8 Cu 0.25843(2) 0.87707(3) 0.74226(3)
Cu14 Cu 0.32080(2) 0.90752(3) 0.67414(3)
Cu1 Cu 0.38136(2) 0.25843(2) 0.25774(3)
Cu2 Cu 0.41328(2) 0.32080(2) 0.32586(3)
O1 O 0.35828(18) 0.20831(15) 0.1979(2)
O2 O 0.44110(18) 0.36687(17) 0.3943(3)
O3 O 0.4460(2) 0.4381(2) 0.4294(4)
C1 C 0.4176(3) 0.3689(3) 0.4424(4)
H1 H 0.3921 0.3429 0.4461
H2 H 0.4329 0.3739 0.4792
C2 C 0.4089(3) 0.4010(3) 0.4324(5)
H3 H 0.3938 0.3962 0.3955
H4 H 0.3921 0.4019 0.4645
C3 C 0.4703(4) 0.4376(3) 0.3809(5)
H5 H 0.4959 0.4637 0.3790
H6 H 0.4556 0.4338 0.3439
C4 C 0.4789(3) 0.4040(2) 0.3893(4)
H7 H 0.4944 0.4026 0.3558
H8 H 0.4952 0.4086 0.4250
O4 O 0.43487(13) 0.26216(14) 0.2617(2)
O5 O 0.46081(15) 0.31573(17) 0.3200(3)
C5 C 0.46382(19) 0.2909(2) 0.2875(3)
C6 C 0.50557(19) 0.2991(2) 0.2769(3)
C7 C 0.5128(2) 0.2721(2) 0.2457(3)
H9 H 0.4908 0.2477 0.2313
C8 C 0.5518(2) 0.2808(2) 0.2360(3)
H10 H 0.5564 0.2625 0.2140
C9 C 0.5847(2) 0.3161(2) 0.2576(3)
C10 C 0.5768(2) 0.3434(2) 0.2886(4)
H11 H 0.5985 0.3682 0.3024
C11 C 0.5379(2) 0.3341(2) 0.2987(4)
H12 H 0.5329 0.3520 0.3211
C12 C 0.62656(19) 0.3249(2) 0.2508(3)
C13 C 0.6355(2) 0.2938(2) 0.2502(4)
H13 H 0.6141 0.2666 0.2494
O6 O 0.33282(14) 0.26403(14) 0.2639(2)
O7 O 0.36125(16) 0.31798(17) 0.3222(3)
O8 O 0.13700(14) 0.36324(13) 0.67022(19)
O9 O 0.11054(19) 0.39157(18) 0.6132(2)
O11 O 0.02090(15) 0.25682(18) 0.0756(2)
C14 C 0.3316(2) 0.2894(2) 0.2962(3)
C15 C 0.2922(2) 0.2870(2) 0.3083(3)
C16 C 0.2565(2) 0.2567(2) 0.2821(3)
H14 H 0.2577 0.2383 0.2556
C17 C 0.2197(2) 0.2536(2) 0.2949(3)
H15 H 0.1959 0.2336 0.2761
C18 C 0.2172(2) 0.2795(2) 0.3347(3)
C19 C 0.2522(3) 0.3091(3) 0.3612(4)
H16 H 0.2508 0.3272 0.3883
C20 C 0.2892(2) 0.3124(3) 0.3482(4)
H17 H 0.3129 0.3325 0.3670
C21 C 0.1780(2) 0.2777(2) 0.3476(3)
C22 C 0.1486(2) 0.2660(2) 0.3044(3)
H18 H 0.1522 0.2562 0.2682
C23 C 0.1141(2) 0.2687(2) 0.3141(3)
C24 C 0.1076(2) 0.2804(3) 0.3678(3)
H19 H 0.0832 0.2806 0.3751
C25 C 0.1373(2) 0.2922(3) 0.4127(3)
C26 C 0.1713(2) 0.2896(3) 0.4024(3)
H20 H 0.1904 0.2960 0.4326
C27 C 0.1260(2) 0.3699(2) 0.6217(3)
C28 C 0.1297(2) 0.3491(2) 0.5684(3)
C29 C 0.1475(2) 0.3253(2) 0.5699(3)
H21 H 0.1583 0.3220 0.6054
C30 C 0.1496(2) 0.3063(2) 0.5203(3)
H22 H 0.1629 0.2910 0.5215
C31 C 0.1324(2) 0.3092(3) 0.4681(3)
C32 C 0.1140(2) 0.3326(3) 0.4673(3)
H23 H 0.1024 0.3350 0.4320
C33 C 0.1122(2) 0.3524(3) 0.5164(3)
H24 H 0.0993 0.3681 0.5151
C34 C 0.0049(2) 0.2456(2) 0.1248(3)
C35 C 0.0325(2) 0.2515(2) 0.1747(3)
C36 C 0.0187(2) 0.2426(2) 0.2319(3)
C37 C 0.0450(2) 0.2476(3) 0.2771(3)
H26 H 0.0353 0.2415 0.3159
C38 C 0.0854(2) 0.2616(2) 0.2654(3)
C39 C 0.0988(2) 0.2700(3) 0.2088(3)
H27 H 0.1263 0.2791 0.2004
C40 C 0.0729(2) 0.2655(3) 0.1639(3)
H28 H 0.0829 0.2722 0.1253
O12 O 0.73784(14) 0.17271(19) 0.2617(2)
O13 O 0.68427(17) 0.14508(23) 0.3200(3)
C41 C 0.7091(2) 0.17292(28) 0.2875(3)
C42 C 0.7009(2) 0.20647(28) 0.2769(3)
C43 C 0.7279(2) 0.2407(3) 0.2457(3)
H29 H 0.7523 0.2431 0.2313
C44 C 0.7192(2) 0.2710(3) 0.2360(3)
H30 H 0.7375 0.2939 0.2140
C45 C 0.6839(2) 0.2686(3) 0.2576(3)
C46 C 0.6566(2) 0.2334(3) 0.2886(4)
H31 H 0.6318 0.2303 0.3024
C47 C 0.6659(2) 0.2038(3) 0.2987(4)
H32 H 0.6480 0.1809 0.3211
C48 C 0.6751(2) 0.30166(28) 0.2508(3)
C49 C 0.7062(2) 0.3417(3) 0.2502(4)
H33 H 0.7334 0.3475 0.2494
O14 O 0.82729(19) 0.56513(13) 0.2617(2)
O15 O 0.85492(23) 0.53919(15) 0.3200(3)
C50 C 0.82708(28) 0.53618(19) 0.2875(3)
C51 C 0.79353(28) 0.49443(19) 0.2769(3)
C52 C 0.7593(3) 0.4872(2) 0.2457(3)
H34 H 0.7569 0.5092 0.2313
C53 C 0.7290(3) 0.4482(2) 0.2360(3)
H35 H 0.7061 0.4436 0.2140
C54 C 0.7314(3) 0.4153(2) 0.2576(3)
C55 C 0.7666(3) 0.4232(2) 0.2886(4)
H36 H 0.7697 0.4015 0.3024
C56 C 0.7962(3) 0.4621(2) 0.2987(4)
H37 H 0.8191 0.4671 0.3211
C57 C 0.69834(28) 0.37344(19) 0.2508(3)
C58 C 0.6583(3) 0.3645(2) 0.2502(4)
H38 H 0.6525 0.3859 0.2494
Cu3 Cu 0.74157(2) 0.12293(3) 0.25774(3)
Cu4 Cu 0.67920(2) 0.09248(3) 0.32586(3)
O16 O 0.79169(15) 0.14997(23) 0.1979(2)
O17 O 0.63313(17) 0.07423(25) 0.3943(3)
O18 O 0.5619(2) 0.0079(3) 0.4294(4)
C59 C 0.6311(3) 0.0487(4) 0.4424(4)
H39 H 0.6571 0.0492 0.4461
H40 H 0.6261 0.0590 0.4792
C60 C 0.5990(3) 0.0079(4) 0.4324(5)
C61 C 0.5624(3) 0.0327(5) 0.3809(5)
H43 H 0.5363 0.0322 0.3790
H44 H 0.5662 0.0218 0.3439
C62 C 0.5960(2) 0.0749(4) 0.3893(4)
H45 H 0.5974 0.0918 0.3558
H46 H 0.5914 0.0866 0.4250
O19 O 0.73597(14) 0.06879(20) 0.2639(2)
O20 O 0.68202(17) 0.04327(23) 0.3222(3)
C63 C 0.7106(2) 0.0422(3) 0.2962(3)
C64 C 0.7130(2) 0.0052(3) 0.3083(3)
H47 H 0.7617 0.0194 0.2556
Cu5 Cu 0.87707(3) 0.61864(2) 0.25774(3)
Cu6 Cu 0.90752(3) 0.58672(2) 0.32586(3)
O25 O 0.85003(23) 0.64172(18) 0.1979(2)
O26 O 0.92577(25) 0.55890(18) 0.3943(3)
O27 O 0.9921(3) 0.5540(2) 0.4294(4)
C90 C 0.9513(4) 0.5824(3) 0.4424(4)
H62 H 0.9508 0.6079 0.4461
H63 H 0.9410 0.5671 0.4792
C91 C 0.9921(4) 0.5911(3) 0.4324(5)
C92 C 0.9673(5) 0.5297(4) 0.3809(5)
H66 H 0.9678 0.5041 0.3790
H67 H 0.9782 0.5444 0.3439
C93 C 0.9251(4) 0.5211(3) 0.3893(4)
H68 H 0.9082 0.5056 0.3558
H69 H 0.9134 0.5048 0.4250
O28 O 0.93121(20) 0.66718(14) 0.2639(2)
O29 O 0.95673(23) 0.63875(16) 0.3222(3)
C94 C 0.9578(3) 0.6684(2) 0.2962(3)
C95 C 0.9948(3) 0.7078(2) 0.3083(3)
H70 H 0.9806 0.7423 0.2556
Cu9 Cu 0.12293(3) 0.38136(2) 0.74226(3)
Cu15 Cu 0.09248(3) 0.41328(2) 0.67414(3)
O34 O 0.86300(14) 0.63676(13) 0.32978(19)
O35 O 0.36324(13) 0.22624(19) 0.32978(19)
O36 O 0.77376(19) 0.13700(14) 0.32978(19)
O37 O 0.88946(19) 0.60843(18) 0.3868(2)
O38 O 0.39157(18) 0.28103(26) 0.3868(2)
O39 O 0.71897(26) 0.11054(19) 0.3868(2)
O40 O 0.69869(14) 0.10313(14) 0.1972(2)
O41 O 0.89687(14) 0.59555(20) 0.1972(2)
O42 O 0.40445(20) 0.30131(14) 0.1972(2)
O43 O 0.64577(15) 0.07651(18) 0.2577(2)
O44 O 0.92349(18) 0.56925(23) 0.2577(2)
O45 O 0.43075(23) 0.35423(15) 0.2577(2)
H41 H 0.6038 0.9976 0.3955
H42 H 0.5981 0.9902 0.4645
O21 O 0.63676(13) 0.77376(19) 0.67022(19)
O22 O 0.60843(18) 0.71897(26) 0.6132(2)
O23 O 0.76980(14) 0.73778(20) 0.1361(2)
O24 O 0.74318(18) 0.76408(23) 0.0756(2)
C65 C 0.7433(2) 0.9998(3) 0.2821(3)
C66 C 0.7464(2) 0.9661(3) 0.2949(3)
H48 H 0.7664 0.9623 0.2761
C67 C 0.7205(2) 0.9377(3) 0.3347(3)
C68 C 0.6909(3) 0.9431(4) 0.3612(4)
H49 H 0.6728 0.9236 0.3883
C69 C 0.6876(3) 0.9768(4) 0.3482(4)
H50 H 0.6675 0.9804 0.3670
C70 C 0.7223(2) 0.9003(3) 0.3476(3)
C71 C 0.7340(2) 0.8826(3) 0.3044(3)
H51 H 0.7438 0.8960 0.2682
C72 C 0.7313(2) 0.8454(3) 0.3141(3)
C73 C 0.7196(3) 0.8272(4) 0.3678(3)
H52 H 0.7194 0.8026 0.3751
C74 C 0.7078(3) 0.8451(4) 0.4127(3)
C75 C 0.7104(3) 0.8817(4) 0.4024(3)
H53 H 0.7040 0.8944 0.4326
C76 C 0.6301(2) 0.7561(3) 0.6217(3)
C77 C 0.6509(2) 0.7806(3) 0.5684(3)
C78 C 0.6747(2) 0.8222(3) 0.5699(3)
H54 H 0.6780 0.8363 0.6054
C79 C 0.6937(2) 0.8433(3) 0.5203(3)
H55 H 0.7090 0.8719 0.5215
C80 C 0.6908(3) 0.8232(4) 0.4681(3)
C81 C 0.6674(3) 0.7814(4) 0.4673(3)
H56 H 0.6650 0.7674 0.4320
C82 C 0.6476(3) 0.7598(4) 0.5164(3)
H57 H 0.6319 0.7312 0.5151
C83 C 0.7544(2) 0.7593(3) 0.1248(3)
C84 C 0.7485(2) 0.7810(3) 0.1747(3)
C85 C 0.7574(2) 0.7761(3) 0.2319(3)
H58 H 0.7669 0.7579 0.2402
C86 C 0.7524(3) 0.7974(4) 0.2771(3)
H59 H 0.7585 0.7938 0.3159
C87 C 0.7384(2) 0.8238(3) 0.2654(3)
C88 C 0.7300(3) 0.8288(4) 0.2088(3)
H60 H 0.7209 0.8472 0.2004
C89 C 0.7345(3) 0.8074(4) 0.1639(3)
H61 H 0.7278 0.8107 0.1253
Cu7 Cu 0.61864(2) 0.74157(2) 0.74226(3)
Cu12 Cu 0.78960(3) 0.71469(2) 0.07559(3)
Cu13 Cu 0.58672(2) 0.67920(2) 0.67414(3)
Cu18 Cu 0.75915(3) 0.74661(2) 0.00747(3)
O10 O 0.96798(14) 0.23020(14) 0.1361(2)
H25 H 0.9910 0.2331 0.2402
Cu11 Cu 0.92510(2) 0.21040(3) 0.07559(3)
Cu17 Cu 0.98747(2) 0.24085(3) 0.00747(3)
O30_2 O 0.89291(19) 0.19633(14) 0.00355(19)
O21_2 O 0.30343(13) 0.10709(19) 0.00355(19)
O8_2 O 0.80367(14) 0.69657(13) 0.00355(19)
C49_2 C 0.0395(2) 0.0084(3) 0.9169(4)
H33_2 H 0.0667 0.0142 0.9161
O14_2 O 0.16062(19) 0.23180(13) 0.9284(2)
O15_2 O 0.18825(23) 0.20586(15) 0.9867(3)
C50_2 C 0.16041(28) 0.20285(19) 0.9542(3)
C51_2 C 0.12686(28) 0.16110(19) 0.9436(3)
C52_2 C 0.0926(3) 0.1539(2) 0.9124(3)
H34_2 H 0.0902 0.1759 0.8980
C53_2 C 0.0623(3) 0.1149(2) 0.9027(3)
H35_2 H 0.0394 0.1103 0.8807
C54_2 C 0.0647(3) 0.0820(2) 0.9243(3)
C55_2 C 0.0999(3) 0.0899(2) 0.9553(4)
H36_2 H 0.1030 0.0682 0.9691
C56_2 C 0.1295(3) 0.1288(2) 0.9654(4)
H37_2 H 0.1524 0.1338 0.9878
C57_2 C 0.03167(28) 0.04011(19) 0.9175(3)
Cu5_2 Cu 0.21040(3) 0.28531(2) 0.92441(3)
Cu6_2 Cu 0.24085(3) 0.25339(2) 0.99253(3)
O25_2 O 0.18336(23) 0.30839(18) 0.8646(2)
O28_2 O 0.26454(20) 0.33385(14) 0.9306(2)
O29_2 O 0.29006(23) 0.30542(16) 0.9889(3)
O32_2 O 0.59555(20) 0.69869(14) 0.8028(2)
O33_2 O 0.56925(23) 0.64577(15) 0.7423(2)
C94_2 C 0.2911(3) 0.3351(2) 0.9629(3)
C95_2 C 0.3281(3) 0.3745(2) 0.9750(3)
C96_2 C 0.3335(3) 0.4102(2) 0.9488(3)
H70_2 H 0.3139 0.4090 0.9223
C97_2 C 0.3672(3) 0.4470(2) 0.9616(3)
H71_2 H 0.3710 0.4708 0.9428
C102_2 C 0.4507(3) 0.5181(2) 0.9711(3)
H74_2 H 0.4373 0.5145 0.9349
C103_2 C 0.4879(3) 0.5526(2) 0.9808(3)
C114_2 C 0.5740(3) 0.6618(2) 0.7915(3)
C115_2 C 0.5523(3) 0.6342(2) 0.8414(3)
C116_2 C 0.5572(3) 0.6480(2) 0.8986(3)
H81_2 H 0.5754 0.6757 0.9069
C117_2 C 0.5359(4) 0.6217(2) 0.9438(3)
H82_2 H 0.5395 0.6314 0.9826
C118_2 C 0.5095(3) 0.5813(2) 0.9321(3)
C119_2 C 0.5045(4) 0.5679(2) 0.8755(3)
H83_2 H 0.4861 0.5404 0.8671
C120_2 C 0.5259(4) 0.5938(2) 0.8306(3)
H84_2 H 0.5226 0.5838 0.7920
O34_2 O 0.19633(14) 0.30343(13) 0.99645(19)
O41_2 O 0.23020(14) 0.26222(20) 0.8639(2)
O44_2 O 0.25682(18) 0.23592(23) 0.9244(2)
O12_2 O 0.07117(14) 0.83938(19) 0.9284(2)
O13_2 O 0.01760(17) 0.81175(23) 0.9867(3)
C41_2 C 0.0424(2) 0.83959(28) 0.9542(3)
C42_2 C 0.0342(2) 0.87314(28) 0.9436(3)
C43_2 C 0.0612(2) 0.9074(3) 0.9124(3)
H29_2 H 0.0856 0.9098 0.8980
C44_2 C 0.0525(2) 0.9377(3) 0.9027(3)
H30_2 H 0.0708 0.9606 0.8807
C45_2 C 0.0172(2) 0.9353(3) 0.9243(3)
C48_2 C 0.0084(2) 0.96833(28) 0.9175(3)
Cu3_2 Cu 0.07490(2) 0.78960(3) 0.92441(3)
Cu4_2 Cu 0.01253(2) 0.75915(3) 0.99253(3)
O16_2 O 0.12502(15) 0.81664(23) 0.8646(2)
O19_2 O 0.06930(14) 0.73546(20) 0.9306(2)
O20_2 O 0.01535(17) 0.70994(23) 0.9889(3)
O23_2 O 0.10313(14) 0.40445(20) 0.8028(2)
O24_2 O 0.07651(18) 0.43075(23) 0.7423(2)
C63_2 C 0.0439(2) 0.7089(3) 0.9629(3)
C64_2 C 0.0463(2) 0.6719(3) 0.9750(3)
C65_2 C 0.0766(2) 0.6665(3) 0.9488(3)
H47_2 H 0.0950 0.6861 0.9223
C66_2 C 0.0797(2) 0.6328(3) 0.9616(3)
H48_2 H 0.0997 0.6290 0.9428
C71_2 C 0.0673(2) 0.5493(3) 0.9711(3)
H51_2 H 0.0771 0.5627 0.9349
C72_2 C 0.0646(2) 0.5121(3) 0.9808(3)
C83_2 C 0.0877(2) 0.4260(3) 0.7915(3)
C84_2 C 0.0818(2) 0.4477(3) 0.8414(3)
C85_2 C 0.0907(2) 0.4428(3) 0.8986(3)
H58_2 H 0.1002 0.4246 0.9069
C86_2 C 0.0857(3) 0.4641(4) 0.9438(3)
H59_2 H 0.0918 0.4605 0.9826
C87_2 C 0.0717(2) 0.4905(3) 0.9321(3)
C88_2 C 0.0633(3) 0.4955(4) 0.8755(3)
H60_2 H 0.0542 0.5139 0.8671
C89_2 C 0.0678(3) 0.4741(4) 0.8306(3)
H61_2 H 0.0611 0.4774 0.7920
O36_2 O 0.10709(19) 0.80367(14) 0.99645(19)
O40_2 O 0.03202(14) 0.76980(14) 0.8639(2)
C10_2 C 0.9101(2) 0.0101(2) 0.9553(4)
H11_2 H 0.9318 0.0349 0.9691
C11_2 C 0.8712(2) 0.0008(2) 0.9654(4)
H12_2 H 0.8662 0.0187 0.9878
C58_2 C 0.9916(3) 0.0312(2) 0.9169(4)
H38_2 H 0.9858 0.0526 0.9161
O45_2 O 0.76408(23) 0.02090(15) 0.9244(2)
Cu1_2 Cu 0.71469(2) 0.92510(2) 0.92441(3)
Cu2_2 Cu 0.74661(2) 0.98747(2) 0.99253(3)
O1_2 O 0.69161(18) 0.87498(15) 0.8646(2)
O4_2 O 0.76820(13) 0.92883(14) 0.9284(2)
O5_2 O 0.79414(15) 0.98240(17) 0.9867(3)
C5_2 C 0.79715(19) 0.9576(2) 0.9542(3)
C6_2 C 0.83890(19) 0.9658(2) 0.9436(3)
C7_2 C 0.8461(2) 0.9388(2) 0.9124(3)
H9_2 H 0.8241 0.9144 0.8980
C8_2 C 0.8851(2) 0.9475(2) 0.9027(3)
H10_2 H 0.8897 0.9292 0.8807
C9_2 C 0.9180(2) 0.9828(2) 0.9243(3)
C12_2 C 0.95989(19) 0.9916(2) 0.9175(3)
C13_2 C 0.9688(2) 0.9605(2) 0.9169(4)
H13_2 H 0.9474 0.9333 0.9161
O6_2 O 0.66615(14) 0.93070(14) 0.9306(2)
O7_2 O 0.69458(16) 0.98465(17) 0.9889(3)
O10_2 O 0.30131(14) 0.89687(14) 0.8028(2)
O11_2 O 0.35423(15) 0.92349(18) 0.7423(2)
C14_2 C 0.6649(2) 0.9561(2) 0.9629(3)
C15_2 C 0.6255(2) 0.9537(2) 0.9750(3)
C16_2 C 0.5898(2) 0.9234(2) 0.9488(3)
H14_2 H 0.5910 0.9050 0.9223
C17_2 C 0.5530(2) 0.9203(2) 0.9616(3)
H15_2 H 0.5292 0.9003 0.9428
C22_2 C 0.4819(2) 0.9327(2) 0.9711(3)
H18_2 H 0.4855 0.9229 0.9349
C23_2 C 0.4474(2) 0.9354(2) 0.9808(3)
C34_2 C 0.3382(2) 0.9123(2) 0.7915(3)
C35_2 C 0.3658(2) 0.9182(2) 0.8414(3)
C36_2 C 0.3520(2) 0.9093(2) 0.8986(3)
H25_2 H 0.3243 0.8998 0.9069
C37_2 C 0.3783(2) 0.9143(3) 0.9438(3)
H26_2 H 0.3686 0.9082 0.9826
C38_2 C 0.4187(2) 0.9283(2) 0.9321(3)
C39_2 C 0.4321(2) 0.9367(3) 0.8755(3)
H27_2 H 0.4596 0.9458 0.8671
C40_2 C 0.4062(2) 0.9322(3) 0.8306(3)
H28_2 H 0.4162 0.9389 0.7920
C46_2 C 0.9899(2) 0.9001(3) 0.9553(4)
H31_2 H 0.9651 0.8970 0.9691
C47_2 C 0.9992(2) 0.8705(3) 0.9654(4)
H32_2 H 0.9813 0.8476 0.9878
O35_2 O 0.69657(13) 0.89291(19) 0.99645(19)
O42_2 O 0.73778(20) 0.96798(14) 0.8639(2)
O43_2 O 0.97910(15) 0.74318(18) 0.9244(2)
H25_3 H 0.0090 0.7669 0.7598
H41_2 H 0.3962 0.0024 0.6045
H42_2 H 0.4019 0.0098 0.5355
C65_3 C 0.2567(2) 0.0002(3) 0.7179(3)
C66_3 C 0.2536(2) 0.0339(3) 0.7051(3)
H48_3 H 0.2336 0.0377 0.7239
C67_2 C 0.2795(2) 0.0623(3) 0.6653(3)
C68_2 C 0.3091(3) 0.0569(4) 0.6388(4)
H49_2 H 0.3272 0.0764 0.6117
C69_2 C 0.3124(3) 0.0232(4) 0.6518(4)
H50_2 H 0.3325 0.0196 0.6330
C70_2 C 0.2777(2) 0.0997(3) 0.6524(3)
C71_3 C 0.2660(2) 0.1174(3) 0.6956(3)
H51_3 H 0.2562 0.1040 0.7318
C72_3 C 0.2687(2) 0.1546(3) 0.6859(3)
C73_2 C 0.2804(3) 0.1728(4) 0.6322(3)
H52_2 H 0.2806 0.1974 0.6249
C74_2 C 0.2922(3) 0.1549(4) 0.5873(3)
C75_2 C 0.2896(3) 0.1183(4) 0.5976(3)
H53_2 H 0.2960 0.1056 0.5674
C76_2 C 0.3699(2) 0.2439(3) 0.3783(3)
C77_2 C 0.3491(2) 0.2194(3) 0.4316(3)
C78_2 C 0.3253(2) 0.1778(3) 0.4301(3)
H54_2 H 0.3220 0.1637 0.3946
C79_2 C 0.3063(2) 0.1567(3) 0.4797(3)
H55_2 H 0.2910 0.1281 0.4785
C80_2 C 0.3092(3) 0.1768(4) 0.5319(3)
C81_2 C 0.3326(3) 0.2186(4) 0.5327(3)
H56_2 H 0.3350 0.2326 0.5680
C82_2 C 0.3524(3) 0.2402(4) 0.4836(3)
H57_2 H 0.3681 0.2688 0.4849
C83_3 C 0.2456(2) 0.2407(3) 0.8752(3)
C84_3 C 0.2515(2) 0.2190(3) 0.8253(3)
C85_3 C 0.2426(2) 0.2239(3) 0.7681(3)
H58_3 H 0.2331 0.2421 0.7598
C86_3 C 0.2476(3) 0.2026(4) 0.7229(3)
H59_3 H 0.2415 0.2062 0.6841
C87_3 C 0.2616(2) 0.1762(3) 0.7346(3)
C88_3 C 0.2700(3) 0.1712(4) 0.7912(3)
H60_3 H 0.2791 0.1528 0.7996
C89_3 C 0.2655(3) 0.1926(4) 0.8361(3)
H61_3 H 0.2722 0.1893 0.8747
O1_3 O 0.64172(18) 0.79169(15) 0.8021(2)
O2_2 O 0.55890(18) 0.63313(17) 0.6057(3)
O3_2 O 0.5540(2) 0.5619(2) 0.5706(4)
C1_2 C 0.5824(3) 0.6311(3) 0.5576(4)
H1_2 H 0.6079 0.6571 0.5539
H2_2 H 0.5671 0.6261 0.5208
C2_2 C 0.5911(3) 0.5990(3) 0.5676(5)
H3_2 H 0.6062 0.6038 0.6045
H4_2 H 0.6079 0.5981 0.5355
C3_2 C 0.5297(4) 0.5624(3) 0.6191(5)
H5_2 H 0.5041 0.5363 0.6210
H6_2 H 0.5444 0.5662 0.6561
C4_2 C 0.5211(3) 0.5960(2) 0.6107(4)
H7_2 H 0.5056 0.5974 0.6442
H8_2 H 0.5048 0.5914 0.5750
O4_3 O 0.56513(13) 0.73784(14) 0.7383(2)
O5_3 O 0.53919(15) 0.68427(17) 0.6800(3)
C5_3 C 0.53618(19) 0.7091(2) 0.7125(3)
C6_3 C 0.49443(19) 0.7009(2) 0.7231(3)
C7_3 C 0.4872(2) 0.7279(2) 0.7543(3)
H9_3 H 0.5092 0.7523 0.7687
C8_3 C 0.4482(2) 0.7192(2) 0.7640(3)
H10_3 H 0.4436 0.7375 0.7860
C9_3 C 0.4153(2) 0.6839(2) 0.7424(3)
C10_3 C 0.4232(2) 0.6566(2) 0.7114(4)
H11_3 H 0.4015 0.6318 0.6976
C11_3 C 0.4621(2) 0.6659(2) 0.7013(4)
H12_3 H 0.4671 0.6480 0.6789
C12_3 C 0.37344(19) 0.6751(2) 0.7492(3)
C13_3 C 0.3645(2) 0.7062(2) 0.7498(4)
H13_3 H 0.3859 0.7334 0.7506
O6_3 O 0.66718(14) 0.73597(14) 0.7361(2)
O7_3 O 0.63875(16) 0.68202(17) 0.6778(3)
C14_3 C 0.6684(2) 0.7106(2) 0.7038(3)
C15_3 C 0.7078(2) 0.7130(2) 0.6917(3)
C16_3 C 0.7435(2) 0.7433(2) 0.7179(3)
H14_3 H 0.7423 0.7617 0.7444
C17_3 C 0.7803(2) 0.7464(2) 0.7051(3)
H15_3 H 0.8041 0.7664 0.7239
C18_2 C 0.7828(2) 0.7205(2) 0.6653(3)
C19_2 C 0.7478(3) 0.6909(3) 0.6388(4)
H16_2 H 0.7492 0.6728 0.6117
C20_2 C 0.7108(2) 0.6876(3) 0.6518(4)
H17_2 H 0.6871 0.6675 0.6330
C21_2 C 0.8220(2) 0.7223(2) 0.6524(3)
C22_3 C 0.8514(2) 0.7340(2) 0.6956(3)
H18_3 H 0.8478 0.7438 0.7318
C23_3 C 0.8859(2) 0.7313(2) 0.6859(3)
C24_2 C 0.8924(2) 0.7196(3) 0.6322(3)
H19_2 H 0.9168 0.7194 0.6249
C25_2 C 0.8627(2) 0.7078(3) 0.5873(3)
C26_2 C 0.8287(2) 0.7104(3) 0.5976(3)
H20_2 H 0.8096 0.7040 0.5674
C27_2 C 0.8740(2) 0.6301(2) 0.3783(3)
C28_2 C 0.8703(2) 0.6509(2) 0.4316(3)
C29_2 C 0.8525(2) 0.6747(2) 0.4301(3)
H21_2 H 0.8417 0.6780 0.3946
C30_2 C 0.8504(2) 0.6937(2) 0.4797(3)
H22_2 H 0.8371 0.7090 0.4785
C31_2 C 0.8676(2) 0.6908(3) 0.5319(3)
C32_2 C 0.8860(2) 0.6674(3) 0.5327(3)
H23_2 H 0.8976 0.6650 0.5680
C33_2 C 0.8878(2) 0.6476(3) 0.4836(3)
H24_2 H 0.9007 0.6319 0.4849
C34_3 C 0.9951(2) 0.7544(2) 0.8752(3)
C35_3 C 0.9675(2) 0.7485(2) 0.8253(3)
C36_3 C 0.9813(2) 0.7574(2) 0.7681(3)
C37_3 C 0.9550(2) 0.7524(3) 0.7229(3)
H26_3 H 0.9647 0.7585 0.6841
C38_3 C 0.9146(2) 0.7384(2) 0.7346(3)
C39_3 C 0.9012(2) 0.7300(3) 0.7912(3)
H27_3 H 0.8737 0.7209 0.7996
C40_3 C 0.9271(2) 0.7345(3) 0.8361(3)
H28_3 H 0.9171 0.7278 0.8747
O12_3 O 0.26216(14) 0.82729(19) 0.7383(2)
O13_3 O 0.31573(17) 0.85492(23) 0.6800(3)
C41_3 C 0.2909(2) 0.82708(28) 0.7125(3)
C42_3 C 0.2991(2) 0.79353(28) 0.7231(3)
C43_3 C 0.2721(2) 0.7593(3) 0.7543(3)
H29_3 H 0.2477 0.7569 0.7687
C44_3 C 0.2808(2) 0.7290(3) 0.7640(3)
H30_3 H 0.2625 0.7061 0.7860
C45_3 C 0.3161(2) 0.7314(3) 0.7424(3)
C46_3 C 0.3434(2) 0.7666(3) 0.7114(4)
H31_3 H 0.3682 0.7697 0.6976
C47_3 C 0.3341(2) 0.7962(3) 0.7013(4)
H32_3 H 0.3520 0.8191 0.6789
C48_3 C 0.3249(2) 0.69834(28) 0.7492(3)
C49_3 C 0.2938(2) 0.6583(3) 0.7498(4)
H33_3 H 0.2666 0.6525 0.7506
O14_3 O 0.17271(19) 0.43487(13) 0.7383(2)
O15_3 O 0.14508(23) 0.46081(15) 0.6800(3)
C50_3 C 0.17292(28) 0.46382(19) 0.7125(3)
C51_3 C 0.20647(28) 0.50557(19) 0.7231(3)
C52_3 C 0.2407(3) 0.5128(2) 0.7543(3)
H34_3 H 0.2431 0.4908 0.7687
C53_3 C 0.2710(3) 0.5518(2) 0.7640(3)
H35_3 H 0.2939 0.5564 0.7860
C54_3 C 0.2686(3) 0.5847(2) 0.7424(3)
C55_3 C 0.2334(3) 0.5768(2) 0.7114(4)
H36_3 H 0.2303 0.5985 0.6976
C56_3 C 0.2038(3) 0.5379(2) 0.7013(4)
H37_3 H 0.1809 0.5329 0.6789
C57_3 C 0.30166(28) 0.62656(19) 0.7492(3)
C58_3 C 0.3417(3) 0.6355(2) 0.7498(4)
H38_3 H 0.3475 0.6141 0.7506
O16_3 O 0.20831(15) 0.85003(23) 0.8021(2)
O17_2 O 0.36687(17) 0.92577(25) 0.6057(3)
O18_2 O 0.4381(2) 0.9921(3) 0.5706(4)
C59_2 C 0.3689(3) 0.9513(4) 0.5576(4)
H39_2 H 0.3429 0.9508 0.5539
H40_2 H 0.3739 0.9410 0.5208
C60_2 C 0.4010(3) 0.9921(4) 0.5676(5)
C61_2 C 0.4376(3) 0.9673(5) 0.6191(5)
H43_2 H 0.4637 0.9678 0.6210
H44_2 H 0.4338 0.9782 0.6561
C62_2 C 0.4040(2) 0.9251(4) 0.6107(4)
H45_2 H 0.4026 0.9082 0.6442
H46_2 H 0.4086 0.9134 0.5750
O19_3 O 0.26403(14) 0.93121(20) 0.7361(2)
O20_3 O 0.31798(17) 0.95673(23) 0.6778(3)
C63_3 C 0.2894(2) 0.9578(3) 0.7038(3)
C64_3 C 0.2870(2) 0.9948(3) 0.6917(3)
H47_3 H 0.2383 0.9806 0.7444
O25_3 O 0.14997(23) 0.35828(18) 0.8021(2)
O26_2 O 0.07423(25) 0.44110(18) 0.6057(3)
O27_2 O 0.0079(3) 0.4460(2) 0.5706(4)
C90_2 C 0.0487(4) 0.4176(3) 0.5576(4)
H62_2 H 0.0492 0.3921 0.5539
H63_2 H 0.0590 0.4329 0.5208
C91_2 C 0.0079(4) 0.4089(3) 0.5676(5)
C92_2 C 0.0327(5) 0.4703(4) 0.6191(5)
H66_2 H 0.0322 0.4959 0.6210
H67_2 H 0.0218 0.4556 0.6561
C93_2 C 0.0749(4) 0.4789(3) 0.6107(4)
H68_2 H 0.0918 0.4944 0.6442
H69_2 H 0.0866 0.4952 0.5750
O28_3 O 0.06879(20) 0.33282(14) 0.7361(2)
O29_3 O 0.04327(23) 0.36125(16) 0.6778(3)
C94_3 C 0.0422(3) 0.3316(2) 0.7038(3)
C95_3 C 0.0052(3) 0.2922(2) 0.6917(3)
H70_3 H 0.0194 0.2577 0.7444
H64_2 H 0.9976 0.3938 0.6045
H65_2 H 0.9902 0.3921 0.5355
C96_3 C 0.9998(3) 0.2565(2) 0.7179(3)
C97_3 C 0.9661(3) 0.2197(2) 0.7051(3)
H71_3 H 0.9623 0.1959 0.7239
C98_2 C 0.9377(3) 0.2172(2) 0.6653(3)
C99_2 C 0.9431(4) 0.2522(3) 0.6388(4)
H72_2 H 0.9236 0.2508 0.6117
C100_2 C 0.9768(4) 0.2892(2) 0.6518(4)
H73_2 H 0.9804 0.3129 0.6330
C101_2 C 0.9003(3) 0.1780(2) 0.6524(3)
C102_3 C 0.8826(3) 0.1486(2) 0.6956(3)
H74_3 H 0.8960 0.1522 0.7318
C103_3 C 0.8454(3) 0.1141(2) 0.6859(3)
C104_2 C 0.8272(4) 0.1076(2) 0.6322(3)
H75_2 H 0.8026 0.0832 0.6249
C105_2 C 0.8451(4) 0.1373(2) 0.5873(3)
C106_2 C 0.8817(4) 0.1713(2) 0.5976(3)
H76_2 H 0.8944 0.1904 0.5674
C107_2 C 0.7561(3) 0.1260(2) 0.3783(3)
C108_2 C 0.7806(3) 0.1297(2) 0.4316(3)
C109_2 C 0.8222(3) 0.1475(2) 0.4301(3)
H77_2 H 0.8363 0.1583 0.3946
C110_2 C 0.8433(3) 0.1496(2) 0.4797(3)
H78_2 H 0.8719 0.1629 0.4785
C111_2 C 0.8232(4) 0.1324(2) 0.5319(3)
C112_2 C 0.7814(4) 0.1140(2) 0.5327(3)
H79_2 H 0.7674 0.1024 0.5680
C113_2 C 0.7598(4) 0.1122(2) 0.4836(3)
H80_2 H 0.7312 0.0993 0.4849
C114_3 C 0.7593(3) 0.0049(2) 0.8752(3)
C115_3 C 0.7810(3) 0.0325(2) 0.8253(3)
C116_3 C 0.7761(3) 0.0187(2) 0.7681(3)
C117_3 C 0.7974(4) 0.0450(2) 0.7229(3)
H82_3 H 0.7938 0.0353 0.6841
C118_3 C 0.8238(3) 0.0854(2) 0.7346(3)
C119_3 C 0.8288(4) 0.0988(2) 0.7912(3)
H83_3 H 0.8472 0.1263 0.7996
C120_3 C 0.8074(4) 0.0729(2) 0.8361(3)
H84_3 H 0.8107 0.0829 0.8747
H81_3 H 0.7579 0.9910 0.7598
O1_4 O 0.30839(18) 0.12502(15) 0.1354(2)
O4_4 O 0.23180(13) 0.07117(14) 0.0716(2)
O5_4 O 0.20586(15) 0.01760(17) 0.0133(3)
C5_4 C 0.20285(19) 0.0424(2) 0.0458(3)
C6_4 C 0.16110(19) 0.0342(2) 0.0564(3)
C7_4 C 0.1539(2) 0.0612(2) 0.0876(3)
H9_4 H 0.1759 0.0856 0.1020
C8_4 C 0.1149(2) 0.0525(2) 0.0973(3)
H10_4 H 0.1103 0.0708 0.1193
C9_4 C 0.0820(2) 0.0172(2) 0.0757(3)
C12_4 C 0.04011(19) 0.0084(2) 0.0825(3)
C13_4 C 0.0312(2) 0.0395(2) 0.0831(4)
H13_4 H 0.0526 0.0667 0.0839
O6_4 O 0.33385(14) 0.06930(14) 0.0694(2)
O7_4 O 0.30542(16) 0.01535(17) 0.0111(3)
C14_4 C 0.3351(2) 0.0439(2) 0.0371(3)
C15_4 C 0.3745(2) 0.0463(2) 0.0250(3)
C16_4 C 0.4102(2) 0.0766(2) 0.0512(3)
H14_4 H 0.4090 0.0950 0.0777
C17_4 C 0.4470(2) 0.0797(2) 0.0384(3)
H15_4 H 0.4708 0.0997 0.0572
C22_4 C 0.5181(2) 0.0673(2) 0.0289(3)
H18_4 H 0.5145 0.0771 0.0651
C23_4 C 0.5526(2) 0.0646(2) 0.0192(3)
C34_4 C 0.6618(2) 0.0877(2) 0.2085(3)
C35_4 C 0.6342(2) 0.0818(2) 0.1586(3)
C36_4 C 0.6480(2) 0.0907(2) 0.1014(3)
H25_4 H 0.6757 0.1002 0.0931
C37_4 C 0.6217(2) 0.0857(3) 0.0562(3)
H26_4 H 0.6314 0.0918 0.0174
C38_4 C 0.5813(2) 0.0717(2) 0.0679(3)
C39_4 C 0.5679(2) 0.0633(3) 0.1245(3)
H27_4 H 0.5404 0.0542 0.1329
C40_4 C 0.5938(2) 0.0678(3) 0.1694(3)
H28_4 H 0.5838 0.0611 0.2080
C46_4 C 0.0101(2) 0.0999(3) 0.0447(4)
H31_4 H 0.0349 0.1030 0.0309
C47_4 C 0.0008(2) 0.1295(3) 0.0346(4)
H32_4 H 0.0187 0.1524 0.0122
C10_4 C 0.0899(2) 0.9899(2) 0.0447(4)
H11_4 H 0.0682 0.9651 0.0309
C11_4 C 0.1288(2) 0.9992(2) 0.0346(4)
H12_4 H 0.1338 0.9813 0.0122
C58_4 C 0.0084(3) 0.9688(2) 0.0831(4)
H38_4 H 0.0142 0.9474 0.0839
O12_4 O 0.92883(14) 0.16062(19) 0.0716(2)
O13_4 O 0.98240(17) 0.18825(23) 0.0133(3)
C41_4 C 0.9576(2) 0.16041(28) 0.0458(3)
C42_4 C 0.9658(2) 0.12686(28) 0.0564(3)
C43_4 C 0.9388(2) 0.0926(3) 0.0876(3)
H29_4 H 0.9144 0.0902 0.1020
C44_4 C 0.9475(2) 0.0623(3) 0.0973(3)
H30_4 H 0.9292 0.0394 0.1193
C45_4 C 0.9828(2) 0.0647(3) 0.0757(3)
C48_4 C 0.9916(2) 0.03167(28) 0.0825(3)
O16_4 O 0.87498(15) 0.18336(23) 0.1354(2)
O19_4 O 0.93070(14) 0.26454(20) 0.0694(2)
O20_4 O 0.98465(17) 0.29006(23) 0.0111(3)
C63_4 C 0.9561(2) 0.2911(3) 0.0371(3)
C64_4 C 0.9537(2) 0.3281(3) 0.0250(3)
C65_4 C 0.9234(2) 0.3335(3) 0.0512(3)
H47_4 H 0.9050 0.3139 0.0777
C66_4 C 0.9203(2) 0.3672(3) 0.0384(3)
H48_4 H 0.9003 0.3710 0.0572
C71_4 C 0.9327(2) 0.4507(3) 0.0289(3)
H51_4 H 0.9229 0.4373 0.0651
C72_4 C 0.9354(2) 0.4879(3) 0.0192(3)
C83_4 C 0.9123(2) 0.5740(3) 0.2085(3)
C84_4 C 0.9182(2) 0.5523(3) 0.1586(3)
C85_4 C 0.9093(2) 0.5572(3) 0.1014(3)
H58_4 H 0.8998 0.5754 0.0931
C86_4 C 0.9143(3) 0.5359(4) 0.0562(3)
H59_4 H 0.9082 0.5395 0.0174
C87_4 C 0.9283(2) 0.5095(3) 0.0679(3)
C88_4 C 0.9367(3) 0.5045(4) 0.1245(3)
H60_4 H 0.9458 0.4861 0.1329
C89_4 C 0.9322(3) 0.5259(4) 0.1694(3)
H61_4 H 0.9389 0.5226 0.2080
C49_4 C 0.9605(2) 0.9916(3) 0.0831(4)
H33_4 H 0.9333 0.9858 0.0839
O14_4 O 0.83938(19) 0.76820(13) 0.0716(2)
O15_4 O 0.81175(23) 0.79414(15) 0.0133(3)
C50_4 C 0.83959(28) 0.79715(19) 0.0458(3)
C51_4 C 0.87314(28) 0.83890(19) 0.0564(3)
C52_4 C 0.9074(3) 0.8461(2) 0.0876(3)
H34_4 H 0.9098 0.8241 0.1020
C53_4 C 0.9377(3) 0.8851(2) 0.0973(3)
H35_4 H 0.9606 0.8897 0.1193
C54_4 C 0.9353(3) 0.9180(2) 0.0757(3)
C55_4 C 0.9001(3) 0.9101(2) 0.0447(4)
H36_4 H 0.8970 0.9318 0.0309
C56_4 C 0.8705(3) 0.8712(2) 0.0346(4)
H37_4 H 0.8476 0.8662 0.0122
C57_4 C 0.96833(28) 0.95989(19) 0.0825(3)
O25_4 O 0.81664(23) 0.69161(18) 0.1354(2)
O28_4 O 0.73546(20) 0.66615(14) 0.0694(2)
O29_4 O 0.70994(23) 0.69458(16) 0.0111(3)
C94_4 C 0.7089(3) 0.6649(2) 0.0371(3)
C95_4 C 0.6719(3) 0.6255(2) 0.0250(3)
C96_4 C 0.6665(3) 0.5898(2) 0.0512(3)
H70_4 H 0.6861 0.5910 0.0777
C97_4 C 0.6328(3) 0.5530(2) 0.0384(3)
H71_4 H 0.6290 0.5292 0.0572
C102_4 C 0.5493(3) 0.4819(2) 0.0289(3)
H74_4 H 0.5627 0.4855 0.0651
C103_4 C 0.5121(3) 0.4474(2) 0.0192(3)
C114_4 C 0.4260(3) 0.3382(2) 0.2085(3)
C115_4 C 0.4477(3) 0.3658(2) 0.1586(3)
C116_4 C 0.4428(3) 0.3520(2) 0.1014(3)
H81_4 H 0.4246 0.3243 0.0931
C117_4 C 0.4641(4) 0.3783(2) 0.0562(3)
H82_4 H 0.4605 0.3686 0.0174
C118_4 C 0.4905(3) 0.4187(2) 0.0679(3)
C119_4 C 0.4955(4) 0.4321(2) 0.1245(3)
H83_4 H 0.5139 0.4596 0.1329
C120_4 C 0.4741(4) 0.4062(2) 0.1694(3)
H84_4 H 0.4774 0.4162 0.2080
O28_5 O 0.59788(20) 0.00051(14) 0.5972(2)
O31_2 O 0.94770(26) 0.22279(19) 0.9465(2)
O32_3 O 0.92889(20) 0.36535(14) 0.4694(2)
O33_3 O 0.90259(23) 0.31243(15) 0.4089(2)
C94_5 C 0.6245(3) 0.0017(2) 0.6295(3)
C95_5 C 0.6615(3) 0.0411(2) 0.6416(3)
C96_5 C 0.6669(3) 0.0768(2) 0.6154(3)
H70_5 H 0.6473 0.0756 0.5889
C97_5 C 0.7006(3) 0.1136(2) 0.6282(3)
H71_5 H 0.7044 0.1374 0.6094
C98_3 C 0.7290(3) 0.1161(2) 0.6680(3)
C99_3 C 0.7236(4) 0.0811(3) 0.6945(4)
H72_3 H 0.7431 0.0825 0.7216
C100_3 C 0.6899(4) 0.0441(2) 0.6815(4)
H73_3 H 0.6863 0.0204 0.7003
C101_3 C 0.7664(3) 0.1553(2) 0.6809(3)
C102_5 C 0.7841(3) 0.1847(2) 0.6377(3)
H74_5 H 0.7707 0.1811 0.6015
C103_5 C 0.8213(3) 0.2192(2) 0.6474(3)
C104_3 C 0.8395(4) 0.2257(2) 0.7011(3)
H75_3 H 0.8641 0.2501 0.7084
C105_3 C 0.8216(4) 0.1960(2) 0.7460(3)
C106_3 C 0.7850(4) 0.1620(2) 0.7357(3)
H76_3 H 0.7723 0.1429 0.7659
C107_3 C 0.9106(3) 0.2073(2) 0.9550(3)
C108_3 C 0.8861(3) 0.2036(2) 0.9017(3)
C109_3 C 0.8445(3) 0.1858(2) 0.9032(3)
H77_3 H 0.8304 0.1750 0.9387
C110_3 C 0.8234(3) 0.1837(2) 0.8536(3)
H78_3 H 0.7948 0.1704 0.8548
C111_3 C 0.8435(4) 0.2009(2) 0.8014(3)
C112_3 C 0.8853(4) 0.2193(2) 0.8006(3)
H79_3 H 0.8993 0.2309 0.7653
C113_3 C 0.9069(4) 0.2211(2) 0.8497(3)
H80_3 H 0.9355 0.2340 0.8484
C114_5 C 0.9074(3) 0.3284(2) 0.4581(3)
C115_5 C 0.8857(3) 0.3008(2) 0.5080(3)
C116_5 C 0.8906(3) 0.3146(2) 0.5652(3)
H81_5 H 0.9088 0.3423 0.5735
C117_5 C 0.8693(4) 0.2883(2) 0.6104(3)
H82_5 H 0.8729 0.2980 0.6492
C118_5 C 0.8429(3) 0.2479(2) 0.5987(3)
C119_5 C 0.8379(4) 0.2345(2) 0.5421(3)
H83_5 H 0.8195 0.2070 0.5337
C120_5 C 0.8593(4) 0.2604(2) 0.4972(3)
H84_5 H 0.8560 0.2504 0.4586
Cu10_2 Cu 0.95197(2) 0.40824(2) 0.40893(3)
Cu16_2 Cu 0.92005(2) 0.34587(2) 0.34081(3)
H86 H 0.536558 0.00344586 0.52128
Cu1_3 Cu 0.04803(2) 0.59176(2) 0.59107(3)
Cu2_3 Cu 0.07995(2) 0.65413(2) 0.65919(3)
O1_5 O 0.02495(18) 0.54164(15) 0.5312(2)
O2_3 O 0.10777(18) 0.70020(17) 0.7276(3)
O3_3 O 0.1127(2) 0.7714(2) 0.7627(4)
C1_3 C 0.0843(3) 0.7022(3) 0.7757(4)
H1_3 H 0.0588 0.6762 0.7794
H2_3 H 0.0996 0.7072 0.8125
C2_3 C 0.0756(3) 0.7343(3) 0.7657(5)
H3_3 H 0.0605 0.7295 0.7288
H4_3 H 0.0588 0.7352 0.7978
C3_3 C 0.1370(4) 0.7709(3) 0.7142(5)
H5_3 H 0.1626 0.7970 0.7123
H6_3 H 0.1223 0.7671 0.6772
C4_3 C 0.1456(3) 0.7373(2) 0.7226(4)
H7_3 H 0.1611 0.7359 0.6891
H8_3 H 0.1619 0.7419 0.7583
O4_5 O 0.10154(13) 0.59549(14) 0.5950(2)
O5_5 O 0.12748(15) 0.64906(17) 0.6533(3)
C5_5 C 0.13049(19) 0.6242(2) 0.6208(3)
C6_5 C 0.17224(19) 0.6324(2) 0.6102(3)
C7_5 C 0.1795(2) 0.6054(2) 0.5790(3)
H9_5 H 0.1575 0.5810 0.5646
C8_5 C 0.2185(2) 0.6141(2) 0.5693(3)
H10_5 H 0.2231 0.5958 0.5473
C9_5 C 0.2514(2) 0.6494(2) 0.5909(3)
C10_5 C 0.2435(2) 0.6767(2) 0.6219(4)
H11_5 H 0.2652 0.7015 0.6357
C11_5 C 0.2046(2) 0.6674(2) 0.6320(4)
H12_5 H 0.1996 0.6853 0.6544
C12_5 C 0.29323(19) 0.6582(2) 0.5841(3)
C13_5 C 0.3022(2) 0.6271(2) 0.5835(4)
H13_5 H 0.2808 0.5999 0.5827
O7_5 O 0.02792(16) 0.65131(17) 0.6555(3)
O12_5 O 0.40451(14) 0.50604(19) 0.5950(2)
O13_5 O 0.35094(17) 0.47841(23) 0.6533(3)
C41_5 C 0.3758(2) 0.50625(28) 0.6208(3)
C42_5 C 0.3676(2) 0.53980(28) 0.6102(3)
C43_5 C 0.3946(2) 0.5740(3) 0.5790(3)
H29_5 H 0.4190 0.5764 0.5646
C44_5 C 0.3859(2) 0.6043(3) 0.5693(3)
H30_5 H 0.4042 0.6272 0.5473
C45_5 C 0.3506(2) 0.6019(3) 0.5909(3)
C46_5 C 0.3233(2) 0.5667(3) 0.6219(4)
H31_5 H 0.2985 0.5636 0.6357
C47_5 C 0.3326(2) 0.5371(3) 0.6320(4)
H32_5 H 0.3147 0.5142 0.6544
C48_5 C 0.3418(2) 0.63499(28) 0.5841(3)
C49_5 C 0.3729(2) 0.6750(3) 0.5835(4)
H33_5 H 0.4001 0.6808 0.5827
O14_5 O 0.49396(19) 0.89846(13) 0.5950(2)
O15_5 O 0.52159(23) 0.87252(15) 0.6533(3)
C50_5 C 0.49375(28) 0.86951(19) 0.6208(3)
C51_5 C 0.46020(28) 0.82776(19) 0.6102(3)
C52_5 C 0.4260(3) 0.8205(2) 0.5790(3)
H34_5 H 0.4236 0.8425 0.5646
C53_5 C 0.3957(3) 0.7815(2) 0.5693(3)
H35_5 H 0.3728 0.7769 0.5473
C54_5 C 0.3981(3) 0.7486(2) 0.5909(3)
C55_5 C 0.4333(3) 0.7565(2) 0.6219(4)
H36_5 H 0.4364 0.7348 0.6357
C56_5 C 0.4629(3) 0.7954(2) 0.6320(4)
H37_5 H 0.4858 0.8004 0.6544
C57_5 C 0.36501(28) 0.70677(19) 0.5841(3)
C58_5 C 0.3250(3) 0.6978(2) 0.5835(4)
H38_5 H 0.3192 0.7192 0.5827
Cu3_3 Cu 0.40824(2) 0.45626(3) 0.59107(3)
Cu4_3 Cu 0.34587(2) 0.42581(3) 0.65919(3)
O16_5 O 0.45836(15) 0.48330(23) 0.5312(2)
O17_3 O 0.29980(17) 0.40756(25) 0.7276(3)
O18_3 O 0.2286(2) 0.3412(3) 0.7627(4)
C59_3 C 0.2978(3) 0.3820(4) 0.7757(4)
H39_3 H 0.3238 0.3825 0.7794
H40_3 H 0.2928 0.3923 0.8125
C60_3 C 0.2657(3) 0.3412(4) 0.7657(5)
H41_3 H 0.2705 0.3309 0.7288
H42_3 H 0.2648 0.3235 0.7978
C61_3 C 0.2291(3) 0.3660(5) 0.7142(5)
H43_3 H 0.2030 0.3655 0.7123
H44_3 H 0.2329 0.3551 0.6772
C62_3 C 0.2627(2) 0.4082(4) 0.7226(4)
H45_3 H 0.2641 0.4251 0.6891
H46_3 H 0.2581 0.4199 0.7583
O19_5 O 0.40264(14) 0.40212(20) 0.5972(2)
O20_5 O 0.34869(17) 0.37660(23) 0.6555(3)
O22_2 O 0.27510(18) 0.05230(26) 0.9465(2)
O23_3 O 0.43647(14) 0.07111(20) 0.4694(2)
O24_3 O 0.40985(18) 0.09741(23) 0.4089(2)
C63_5 C 0.3773(2) 0.3755(3) 0.6295(3)
C64_5 C 0.3797(2) 0.3385(3) 0.6416(3)
C65_5 C 0.4100(2) 0.3331(3) 0.6154(3)
H47_5 H 0.4284 0.3527 0.5889
C66_5 C 0.4131(2) 0.2994(3) 0.6282(3)
H48_5 H 0.4331 0.2956 0.6094
C67_3 C 0.3872(2) 0.2710(3) 0.6680(3)
C68_3 C 0.3576(3) 0.2764(4) 0.6945(4)
H49_3 H 0.3395 0.2569 0.7216
C69_3 C 0.3543(3) 0.3101(4) 0.6815(4)
H50_3 H 0.3342 0.3137 0.7003
C70_3 C 0.3890(2) 0.2336(3) 0.6809(3)
C71_5 C 0.4007(2) 0.2159(3) 0.6377(3)
H51_5 H 0.4105 0.2293 0.6015
C72_5 C 0.3980(2) 0.1787(3) 0.6474(3)
C73_3 C 0.3863(3) 0.1605(4) 0.7011(3)
H52_3 H 0.3861 0.1359 0.7084
C74_3 C 0.3745(3) 0.1784(4) 0.7460(3)
C75_3 C 0.3771(3) 0.2150(4) 0.7357(3)
H53_3 H 0.3707 0.2277 0.7659
C76_3 C 0.2968(2) 0.0894(3) 0.9550(3)
C77_3 C 0.3176(2) 0.1139(3) 0.9017(3)
C78_3 C 0.3414(2) 0.1555(3) 0.9032(3)
H54_3 H 0.3447 0.1696 0.9387
C79_3 C 0.3604(2) 0.1766(3) 0.8536(3)
H55_3 H 0.3757 0.2052 0.8548
C80_3 C 0.3575(3) 0.1565(4) 0.8014(3)
C81_3 C 0.3341(3) 0.1147(4) 0.8006(3)
H56_3 H 0.3317 0.1007 0.7653
C82_3 C 0.3143(3) 0.0931(4) 0.8497(3)
H57_3 H 0.2986 0.0645 0.8484
C83_5 C 0.4211(2) 0.0926(3) 0.4581(3)
C84_5 C 0.4152(2) 0.1143(3) 0.5080(3)
C85_5 C 0.4241(2) 0.1094(3) 0.5652(3)
H58_5 H 0.4336 0.0912 0.5735
C86_5 C 0.4191(3) 0.1307(4) 0.6104(3)
H59_5 H 0.4252 0.1271 0.6492
C87_5 C 0.4051(2) 0.1571(3) 0.5987(3)
C88_5 C 0.3967(3) 0.1621(4) 0.5421(3)
H60_5 H 0.3876 0.1805 0.5337
C89_5 C 0.4012(3) 0.1407(4) 0.4972(3)
H61_5 H 0.3945 0.1440 0.4586
Cu5_3 Cu 0.54374(3) 0.95197(2) 0.59107(3)
Cu6_3 Cu 0.57419(3) 0.92005(2) 0.65919(3)
O25_5 O 0.51670(23) 0.97505(18) 0.5312(2)
O26_3 O 0.59244(25) 0.89223(18) 0.7276(3)
O27_3 O 0.6588(3) 0.8873(2) 0.7627(4)
C90_3 C 0.6180(4) 0.9157(3) 0.7757(4)
H62_3 H 0.6175 0.9412 0.7794
H63_3 H 0.6077 0.9004 0.8125
C91_3 C 0.6588(4) 0.9244(3) 0.7657(5)
H64_3 H 0.6691 0.9395 0.7288
H65_3 H 0.6765 0.9412 0.7978
C92_3 C 0.6340(5) 0.8630(4) 0.7142(5)
H66_3 H 0.6345 0.8374 0.7123
H67_3 H 0.6449 0.8777 0.6772
C93_3 C 0.5918(4) 0.8544(3) 0.7226(4)
H68_3 H 0.5749 0.8389 0.6891
H69_3 H 0.5801 0.8381 0.7583
O29_5 O 0.62340(23) 0.97208(16) 0.6555(3)
Cu12_2 Cu 0.45626(3) 0.04803(2) 0.40893(3)
Cu18_2 Cu 0.42581(3) 0.07995(2) 0.34081(3)
O34_3 O 0.52967(14) 0.97009(13) 0.66311(19)
O35_3 O 0.02991(13) 0.55957(19) 0.66311(19)
O36_3 O 0.44043(19) 0.47033(14) 0.66311(19)
O37_2 O 0.55613(19) 0.94176(18) 0.7201(2)
O38_2 O 0.05824(18) 0.61436(26) 0.7201(2)
O39_2 O 0.38564(26) 0.44387(19) 0.7201(2)
O40_3 O 0.36535(14) 0.43647(14) 0.5306(2)
O41_3 O 0.56353(14) 0.92889(20) 0.5306(2)
O42_3 O 0.07111(20) 0.63465(14) 0.5306(2)
O43_3 O 0.31243(15) 0.40985(18) 0.5911(2)
O44_3 O 0.59015(18) 0.90259(23) 0.5911(2)
O45_3 O 0.09741(23) 0.68757(15) 0.5911(2)
H85 H 0.492666 0.97386 0.549665
H87 H 0.042589 0.52952 0.531961
O6_5 O 0.99949(14) 0.59736(14) 0.5972(2)
O9_2 O 0.77721(19) 0.72490(18) 0.9465(2)
O10_3 O 0.63465(14) 0.56353(14) 0.4694(2)
O11_3 O 0.68757(15) 0.59015(18) 0.4089(2)
C14_5 C 0.9983(2) 0.6227(2) 0.6295(3)
C15_5 C 0.9589(2) 0.6203(2) 0.6416(3)
C16_5 C 0.9232(2) 0.5900(2) 0.6154(3)
H14_5 H 0.9244 0.5716 0.5889
C17_5 C 0.8864(2) 0.5869(2) 0.6282(3)
H15_5 H 0.8626 0.5669 0.6094
C18_3 C 0.8839(2) 0.6128(2) 0.6680(3)
C19_3 C 0.9189(3) 0.6424(3) 0.6945(4)
H16_3 H 0.9175 0.6605 0.7216
C20_3 C 0.9559(2) 0.6457(3) 0.6815(4)
H17_3 H 0.9796 0.6658 0.7003
C21_3 C 0.8447(2) 0.6110(2) 0.6809(3)
C22_5 C 0.8153(2) 0.5993(2) 0.6377(3)
H18_5 H 0.8189 0.5895 0.6015
C23_5 C 0.7808(2) 0.6020(2) 0.6474(3)
C24_3 C 0.7743(2) 0.6137(3) 0.7011(3)
H19_3 H 0.7499 0.6139 0.7084
C25_3 C 0.8040(2) 0.6255(3) 0.7460(3)
C26_3 C 0.8380(2) 0.6229(3) 0.7357(3)
H20_3 H 0.8571 0.6293 0.7659
C27_3 C 0.7927(2) 0.7032(2) 0.9550(3)
C28_3 C 0.7964(2) 0.6824(2) 0.9017(3)
C29_3 C 0.8142(2) 0.6586(2) 0.9032(3)
H21_3 H 0.8250 0.6553 0.9387
C30_3 C 0.8163(2) 0.6396(2) 0.8536(3)
H22_3 H 0.8296 0.6243 0.8548
C31_3 C 0.7991(2) 0.6425(3) 0.8014(3)
C32_3 C 0.7807(2) 0.6659(3) 0.8006(3)
H23_3 H 0.7691 0.6683 0.7653
C33_3 C 0.7789(2) 0.6857(3) 0.8497(3)
H24_3 H 0.7660 0.7014 0.8484
C34_5 C 0.6716(2) 0.5789(2) 0.4581(3)
C35_5 C 0.6992(2) 0.5848(2) 0.5080(3)
C36_5 C 0.6854(2) 0.5759(2) 0.5652(3)
H25_5 H 0.6577 0.5664 0.5735
C37_5 C 0.7117(2) 0.5809(3) 0.6104(3)
H26_5 H 0.7020 0.5748 0.6492
C38_5 C 0.7521(2) 0.5949(2) 0.5987(3)
C39_5 C 0.7655(2) 0.6033(3) 0.5421(3)
H27_5 H 0.7930 0.6124 0.5337
C40_5 C 0.7396(2) 0.5988(3) 0.4972(3)
H28_5 H 0.7496 0.6055 0.4586
Cu11_2 Cu 0.59176(2) 0.54374(3) 0.40893(3)
Cu17_2 Cu 0.65413(2) 0.57419(3) 0.34081(3)
H88 H 0.997182 0.521066 0.542946
H85_2 H 0.0261405 0.518807 0.549665
H86_2 H 0.996554 0.533112 0.52128
H88_2 H 0.523884 0.00281834 0.542946
H87_2 H 0.486931 0.957411 0.531961
O26_4 O 0.25910(25) 0.22557(18) 0.0610(3)
O27_4 O 0.3254(3) 0.2207(2) 0.0961(4)
C90_4 C 0.2846(4) 0.2491(3) 0.1091(4)
H62_4 H 0.2841 0.2746 0.1128
H63_4 H 0.2743 0.2338 0.1459
C91_4 C 0.3254(4) 0.2578(3) 0.0991(5)
H64_4 H 0.3357 0.2729 0.0622
H65_4 H 0.3431 0.2746 0.1312
C92_4 C 0.3006(5) 0.1964(4) 0.0476(5)
H66_4 H 0.3011 0.1708 0.0457
H67_4 H 0.3115 0.2111 0.0106
C93_4 C 0.2584(4) 0.1878(3) 0.0560(4)
H68_4 H 0.2415 0.1723 0.0225
H69_4 H 0.2467 0.1715 0.0917
O30_3 O 0.55957(19) 0.52967(14) 0.33689(19)
O31_3 O 0.61436(26) 0.55613(19) 0.2799(2)
C98_4 C 0.3956(3) 0.4495(2) 0.0014(3)
C99_4 C 0.3902(4) 0.4145(3) 0.0279(4)
H72_4 H 0.4097 0.4159 0.0550
C100_4 C 0.3565(4) 0.3775(2) 0.0149(4)
H73_4 H 0.3529 0.3538 0.0337
C101_4 C 0.4330(3) 0.4887(2) 0.0143(3)
C104_4 C 0.5061(4) 0.5591(2) 0.0345(3)
H75_4 H 0.5307 0.5835 0.0418
C105_4 C 0.4882(4) 0.5294(2) 0.0794(3)
C106_4 C 0.4516(4) 0.4954(2) 0.0691(3)
H76_4 H 0.4389 0.4763 0.0993
C107_4 C 0.5772(3) 0.5407(2) 0.2884(3)
C108_4 C 0.5527(3) 0.5370(2) 0.2351(3)
C109_4 C 0.5111(3) 0.5192(2) 0.2366(3)
H77_4 H 0.4970 0.5084 0.2721
C110_4 C 0.4900(3) 0.5171(2) 0.1870(3)
H78_4 H 0.4614 0.5038 0.1882
C111_4 C 0.5101(4) 0.5343(2) 0.1348(3)
C112_4 C 0.5519(4) 0.5527(2) 0.1340(3)
H79_4 H 0.5659 0.5643 0.0987
C113_4 C 0.5735(4) 0.5545(2) 0.1831(3)
H80_4 H 0.6021 0.5674 0.1818
O37_3 O 0.22279(19) 0.27510(18) 0.0535(2)
C67_4 C 0.0538(2) 0.6044(3) 0.0014(3)
C68_4 C 0.0242(3) 0.6098(4) 0.0279(4)
H49_4 H 0.0061 0.5903 0.0550
C69_4 C 0.0209(3) 0.6435(4) 0.0149(4)
H50_4 H 0.0008 0.6471 0.0337
C70_4 C 0.0556(2) 0.5670(3) 0.0143(3)
C73_4 C 0.0529(3) 0.4939(4) 0.0345(3)
H52_4 H 0.0527 0.4693 0.0418
C74_4 C 0.0411(3) 0.5118(4) 0.0794(3)
C75_4 C 0.0437(3) 0.5484(4) 0.0691(3)
H53_4 H 0.0373 0.5611 0.0993
C78_4 C 0.0080(2) 0.4889(3) 0.2366(3)
H54_4 H 0.0113 0.5030 0.2721
C79_4 C 0.0270(2) 0.5100(3) 0.1870(3)
H55_4 H 0.0423 0.5386 0.1882
C80_4 C 0.0241(3) 0.4899(4) 0.1348(3)
C81_4 C 0.0007(3) 0.4481(4) 0.1340(3)
O39_3 O 0.05230(26) 0.77721(19) 0.0535(2)
O2_4 O 0.77443(18) 0.03354(17) 0.0610(3)
O3_4 O 0.7793(2) 0.1048(2) 0.0961(4)
C1_4 C 0.7509(3) 0.0356(3) 0.1091(4)
H1_4 H 0.7254 0.0096 0.1128
H2_4 H 0.7662 0.0406 0.1459
C2_4 C 0.7422(3) 0.0677(3) 0.0991(5)
H3_4 H 0.7271 0.0629 0.0622
H4_4 H 0.7254 0.0686 0.1312
C3_4 C 0.8036(4) 0.1043(3) 0.0476(5)
H5_4 H 0.8292 0.1304 0.0457
H6_4 H 0.7889 0.1005 0.0106
C4_4 C 0.8122(3) 0.0707(2) 0.0560(4)
H7_4 H 0.8277 0.0693 0.0225
H8_4 H 0.8285 0.0753 0.0917
O8_3 O 0.47033(14) 0.02991(13) 0.33689(19)
O9_3 O 0.44387(19) 0.05824(18) 0.2799(2)
C27_4 C 0.4593(2) 0.0366(2) 0.2884(3)
C28_4 C 0.4630(2) 0.0158(2) 0.2351(3)
H23_4 H 0.4357 0.0017 0.0987
C33_4 C 0.4455(2) 0.0191(3) 0.1831(3)
H24_4 H 0.4326 0.0348 0.1818
C18_4 C 0.5505(2) 0.9462(2) 0.0014(3)
C19_4 C 0.5855(3) 0.9758(3) 0.0279(4)
H16_4 H 0.5841 0.9939 0.0550
C20_4 C 0.6225(2) 0.9791(3) 0.0149(4)
H17_4 H 0.6462 0.9992 0.0337
C21_4 C 0.5113(2) 0.9444(2) 0.0143(3)
C24_4 C 0.4409(2) 0.9471(3) 0.0345(3)
H19_4 H 0.4165 0.9473 0.0418
C25_4 C 0.4706(2) 0.9589(3) 0.0794(3)
C26_4 C 0.5046(2) 0.9563(3) 0.0691(3)
H20_4 H 0.5237 0.9627 0.0993
C29_4 C 0.4808(2) 0.9920(2) 0.2366(3)
H21_4 H 0.4916 0.9887 0.2721
C30_4 C 0.4829(2) 0.9730(2) 0.1870(3)
H22_4 H 0.4962 0.9577 0.1882
C31_4 C 0.4657(2) 0.9759(3) 0.1348(3)
C32_4 C 0.4473(2) 0.9993(3) 0.1340(3)
O17_4 O 0.96646(17) 0.74090(25) 0.0610(3)
O18_4 O 0.8952(2) 0.6746(3) 0.0961(4)
C59_4 C 0.9644(3) 0.7154(4) 0.1091(4)
H39_4 H 0.9904 0.7159 0.1128
H40_4 H 0.9594 0.7257 0.1459
C60_4 C 0.9323(3) 0.6746(4) 0.0991(5)
H41_4 H 0.9371 0.6643 0.0622
H42_4 H 0.9314 0.6569 0.1312
C61_4 C 0.8957(3) 0.6994(5) 0.0476(5)
H43_4 H 0.8696 0.6989 0.0457
H44_4 H 0.8995 0.6885 0.0106
C62_4 C 0.9293(2) 0.7416(4) 0.0560(4)
H45_4 H 0.9307 0.7585 0.0225
H46_4 H 0.9247 0.7533 0.0917
O21_3 O 0.97009(13) 0.44043(19) 0.33689(19)
O22_3 O 0.94176(18) 0.38564(26) 0.2799(2)
C76_4 C 0.9634(2) 0.4228(3) 0.2884(3)
C77_4 C 0.9842(2) 0.4473(3) 0.2351(3)
H56_4 H 0.9983 0.4341 0.0987
C82_4 C 0.9809(3) 0.4265(4) 0.1831(3)
H57_4 H 0.9652 0.3979 0.1818
O38_3 O 0.72490(18) 0.94770(26) 0.0535(2)
O6_6 O 0.00051(14) 0.40264(14) 0.4028(2)
C14_6 C 0.0017(2) 0.3773(2) 0.3705(3)
C15_6 C 0.0411(2) 0.3797(2) 0.3584(3)
C16_6 C 0.0768(2) 0.4100(2) 0.3846(3)
H14_6 H 0.0756 0.4284 0.4111
C17_6 C 0.1136(2) 0.4131(2) 0.3718(3)
H15_6 H 0.1374 0.4331 0.3906
C18_5 C 0.1161(2) 0.3872(2) 0.3320(3)
C19_5 C 0.0811(3) 0.3576(3) 0.3055(4)
H16_5 H 0.0825 0.3395 0.2784
C20_5 C 0.0441(2) 0.3543(3) 0.3185(4)
H17_5 H 0.0204 0.3342 0.2997
C21_5 C 0.1553(2) 0.3890(2) 0.3191(3)
C22_6 C 0.1847(2) 0.4007(2) 0.3623(3)
H18_6 H 0.1811 0.4105 0.3985
C23_6 C 0.2192(2) 0.3980(2) 0.3526(3)
C24_5 C 0.2257(2) 0.3863(3) 0.2989(3)
H19_5 H 0.2501 0.3861 0.2916
C25_5 C 0.1960(2) 0.3745(3) 0.2540(3)
C26_5 C 0.1620(2) 0.3771(3) 0.2643(3)
H20_5 H 0.1429 0.3707 0.2341
C27_5 C 0.2073(2) 0.2968(2) 0.0450(3)
C28_5 C 0.2036(2) 0.3176(2) 0.0983(3)
C29_5 C 0.1858(2) 0.3414(2) 0.0968(3)
H21_5 H 0.1750 0.3447 0.0613
C30_5 C 0.1837(2) 0.3604(2) 0.1464(3)
H22_5 H 0.1704 0.3757 0.1452
C31_5 C 0.2009(2) 0.3575(3) 0.1986(3)
C32_5 C 0.2193(2) 0.3341(3) 0.1994(3)
H23_5 H 0.2309 0.3317 0.2347
C33_5 C 0.2211(2) 0.3143(3) 0.1503(3)
H24_5 H 0.2340 0.2986 0.1516
C34_6 C 0.3284(2) 0.4211(2) 0.5419(3)
C35_6 C 0.3008(2) 0.4152(2) 0.4920(3)
C36_6 C 0.3146(2) 0.4241(2) 0.4348(3)
H25_6 H 0.3423 0.4336 0.4265
C37_6 C 0.2883(2) 0.4191(3) 0.3896(3)
H26_6 H 0.2980 0.4252 0.3508
C38_6 C 0.2479(2) 0.4051(2) 0.4013(3)
C39_6 C 0.2345(2) 0.3967(3) 0.4579(3)
H27_6 H 0.2070 0.3876 0.4663
C40_6 C 0.2604(2) 0.4012(3) 0.5028(3)
H28_6 H 0.2504 0.3945 0.5414
H88_3 H 0.00281834 0.478934 0.457054
O1_6 O 0.97505(18) 0.45836(15) 0.4688(2)
O2_5 O 0.89223(18) 0.29980(17) 0.2724(3)
O3_5 O 0.8873(2) 0.2286(2) 0.2373(4)
C1_5 C 0.9157(3) 0.2978(3) 0.2243(4)
H1_5 H 0.9412 0.3238 0.2206
H2_5 H 0.9004 0.2928 0.1875
C2_5 C 0.9244(3) 0.2657(3) 0.2343(5)
H3_5 H 0.9395 0.2705 0.2712
H4_5 H 0.9412 0.2648 0.2022
C3_5 C 0.8630(4) 0.2291(3) 0.2858(5)
H5_5 H 0.8374 0.2030 0.2877
H6_5 H 0.8777 0.2329 0.3228
C4_5 C 0.8544(3) 0.2627(2) 0.2774(4)
H7_5 H 0.8389 0.2641 0.3109
H8_5 H 0.8381 0.2581 0.2417
O4_6 O 0.89846(13) 0.40451(14) 0.4050(2)
O5_6 O 0.87252(15) 0.35094(17) 0.3467(3)
C5_6 C 0.86951(19) 0.3758(2) 0.3792(3)
C6_6 C 0.82776(19) 0.3676(2) 0.3898(3)
C7_6 C 0.8205(2) 0.3946(2) 0.4210(3)
H9_6 H 0.8425 0.4190 0.4354
C8_6 C 0.7815(2) 0.3859(2) 0.4307(3)
H10_6 H 0.7769 0.4042 0.4527
C9_6 C 0.7486(2) 0.3506(2) 0.4091(3)
C10_6 C 0.7565(2) 0.3233(2) 0.3781(4)
H11_6 H 0.7348 0.2985 0.3643
C11_6 C 0.7954(2) 0.3326(2) 0.3680(4)
H12_6 H 0.8004 0.3147 0.3456
C12_6 C 0.70677(19) 0.3418(2) 0.4159(3)
C13_6 C 0.6978(2) 0.3729(2) 0.4165(4)
H13_6 H 0.7192 0.4001 0.4173
O7_6 O 0.97208(16) 0.34869(17) 0.3445(3)
O12_6 O 0.59549(14) 0.49396(19) 0.4050(2)
O13_6 O 0.64906(17) 0.52159(23) 0.3467(3)
C41_6 C 0.6242(2) 0.49375(28) 0.3792(3)
C42_6 C 0.6324(2) 0.46020(28) 0.3898(3)
C43_6 C 0.6054(2) 0.4260(3) 0.4210(3)
H29_6 H 0.5810 0.4236 0.4354
C44_6 C 0.6141(2) 0.3957(3) 0.4307(3)
H30_6 H 0.5958 0.3728 0.4527
C45_6 C 0.6494(2) 0.3981(3) 0.4091(3)
C46_6 C 0.6767(2) 0.4333(3) 0.3781(4)
H31_6 H 0.7015 0.4364 0.3643
C47_6 C 0.6674(2) 0.4629(3) 0.3680(4)
H32_6 H 0.6853 0.4858 0.3456
C48_6 C 0.6582(2) 0.36501(28) 0.4159(3)
C49_6 C 0.6271(2) 0.3250(3) 0.4165(4)
H33_6 H 0.5999 0.3192 0.4173
O14_6 O 0.50604(19) 0.10154(13) 0.4050(2)
O15_6 O 0.47841(23) 0.12748(15) 0.3467(3)
C50_6 C 0.50625(28) 0.13049(19) 0.3792(3)
C51_6 C 0.53980(28) 0.17224(19) 0.3898(3)
C52_6 C 0.5740(3) 0.1795(2) 0.4210(3)
H34_6 H 0.5764 0.1575 0.4354
C53_6 C 0.6043(3) 0.2185(2) 0.4307(3)
H35_6 H 0.6272 0.2231 0.4527
C54_6 C 0.6019(3) 0.2514(2) 0.4091(3)
C55_6 C 0.5667(3) 0.2435(2) 0.3781(4)
H36_6 H 0.5636 0.2652 0.3643
C56_6 C 0.5371(3) 0.2046(2) 0.3680(4)
H37_6 H 0.5142 0.1996 0.3456
C57_6 C 0.63499(28) 0.29323(19) 0.4159(3)
C58_6 C 0.6750(3) 0.3022(2) 0.4165(4)
H38_6 H 0.6808 0.2808 0.4173
O16_6 O 0.54164(15) 0.51670(23) 0.4688(2)
O17_5 O 0.70020(17) 0.59244(25) 0.2724(3)
O18_5 O 0.7714(2) 0.6588(3) 0.2373(4)
C59_5 C 0.7022(3) 0.6180(4) 0.2243(4)
H39_5 H 0.6762 0.6175 0.2206
H40_5 H 0.7072 0.6077 0.1875
C60_5 C 0.7343(3) 0.6588(4) 0.2343(5)
H41_5 H 0.7295 0.6691 0.2712
H42_5 H 0.7352 0.6765 0.2022
C61_5 C 0.7709(3) 0.6340(5) 0.2858(5)
H43_5 H 0.7970 0.6345 0.2877
H44_5 H 0.7671 0.6449 0.3228
C62_5 C 0.7373(2) 0.5918(4) 0.2774(4)
H45_5 H 0.7359 0.5749 0.3109
H46_5 H 0.7419 0.5801 0.2417
O19_6 O 0.59736(14) 0.59788(20) 0.4028(2)
O20_6 O 0.65131(17) 0.62340(23) 0.3445(3)
C63_6 C 0.6227(2) 0.6245(3) 0.3705(3)
C64_6 C 0.6203(2) 0.6615(3) 0.3584(3)
C65_6 C 0.5900(2) 0.6669(3) 0.3846(3)
H47_6 H 0.5716 0.6473 0.4111
C66_6 C 0.5869(2) 0.7006(3) 0.3718(3)
H48_6 H 0.5669 0.7044 0.3906
C67_5 C 0.6128(2) 0.7290(3) 0.3320(3)
C68_5 C 0.6424(3) 0.7236(4) 0.3055(4)
H49_5 H 0.6605 0.7431 0.2784
C69_5 C 0.6457(3) 0.6899(4) 0.3185(4)
H50_5 H 0.6658 0.6863 0.2997
C70_5 C 0.6110(2) 0.7664(3) 0.3191(3)
C71_6 C 0.5993(2) 0.7841(3) 0.3623(3)
H51_6 H 0.5895 0.7707 0.3985
C72_6 C 0.6020(2) 0.8213(3) 0.3526(3)
C73_5 C 0.6137(3) 0.8395(4) 0.2989(3)
H52_5 H 0.6139 0.8641 0.2916
C74_5 C 0.6255(3) 0.8216(4) 0.2540(3)
C75_5 C 0.6229(3) 0.7850(4) 0.2643(3)
H53_5 H 0.6293 0.7723 0.2341
C76_5 C 0.7032(2) 0.9106(3) 0.0450(3)
C77_5 C 0.6824(2) 0.8861(3) 0.0983(3)
C78_5 C 0.6586(2) 0.8445(3) 0.0968(3)
H54_5 H 0.6553 0.8304 0.0613
C79_5 C 0.6396(2) 0.8234(3) 0.1464(3)
H55_5 H 0.6243 0.7948 0.1452
C80_5 C 0.6425(3) 0.8435(4) 0.1986(3)
C81_5 C 0.6659(3) 0.8853(4) 0.1994(3)
H56_5 H 0.6683 0.8993 0.2347
C82_5 C 0.6857(3) 0.9069(4) 0.1503(3)
H57_5 H 0.7014 0.9355 0.1516
C83_6 C 0.5789(2) 0.9074(3) 0.5419(3)
C84_6 C 0.5848(2) 0.8857(3) 0.4920(3)
C85_6 C 0.5759(2) 0.8906(3) 0.4348(3)
H58_6 H 0.5664 0.9088 0.4265
C86_6 C 0.5809(3) 0.8693(4) 0.3896(3)
H59_6 H 0.5748 0.8729 0.3508
C87_6 C 0.5949(2) 0.8429(3) 0.4013(3)
C88_6 C 0.6033(3) 0.8379(4) 0.4579(3)
H60_6 H 0.6124 0.8195 0.4663
C89_6 C 0.5988(3) 0.8593(4) 0.5028(3)
H61_6 H 0.6055 0.8560 0.5414
O25_6 O 0.48330(23) 0.02495(18) 0.4688(2)
O26_5 O 0.40756(25) 0.10777(18) 0.2724(3)
O27_5 O 0.3412(3) 0.1127(2) 0.2373(4)
C90_5 C 0.3820(4) 0.0843(3) 0.2243(4)
H62_5 H 0.3825 0.0588 0.2206
H63_5 H 0.3923 0.0996 0.1875
C91_5 C 0.3412(4) 0.0756(3) 0.2343(5)
H64_5 H 0.3309 0.0605 0.2712
H65_5 H 0.3235 0.0588 0.2022
C92_5 C 0.3660(5) 0.1370(4) 0.2858(5)
H66_5 H 0.3655 0.1626 0.2877
H67_5 H 0.3551 0.1223 0.3228
C93_5 C 0.4082(4) 0.1456(3) 0.2774(4)
H68_5 H 0.4251 0.1611 0.3109
H69_5 H 0.4199 0.1619 0.2417
O29_6 O 0.37660(23) 0.02792(16) 0.3445(3)
H85_3 H 0.507334 0.0261405 0.450335
H87_3 H 0.957411 0.47048 0.468039
O28_6 O 0.40212(20) 0.99949(14) 0.4028(2)
C94_6 C 0.3755(3) 0.9983(2) 0.3705(3)
C95_6 C 0.3385(3) 0.9589(2) 0.3584(3)
C96_6 C 0.3331(3) 0.9232(2) 0.3846(3)
H70_6 H 0.3527 0.9244 0.4111
C97_6 C 0.2994(3) 0.8864(2) 0.3718(3)
H71_6 H 0.2956 0.8626 0.3906
C98_5 C 0.2710(3) 0.8839(2) 0.3320(3)
C99_5 C 0.2764(4) 0.9189(3) 0.3055(4)
H72_5 H 0.2569 0.9175 0.2784
C100_5 C 0.3101(4) 0.9559(2) 0.3185(4)
H73_5 H 0.3137 0.9796 0.2997
C101_5 C 0.2336(3) 0.8447(2) 0.3191(3)
C102_6 C 0.2159(3) 0.8153(2) 0.3623(3)
H74_6 H 0.2293 0.8189 0.3985
C103_6 C 0.1787(3) 0.7808(2) 0.3526(3)
C104_5 C 0.1605(4) 0.7743(2) 0.2989(3)
H75_5 H 0.1359 0.7499 0.2916
C105_5 C 0.1784(4) 0.8040(2) 0.2540(3)
C106_5 C 0.2150(4) 0.8380(2) 0.2643(3)
H76_5 H 0.2277 0.8571 0.2341
C107_5 C 0.0894(3) 0.7927(2) 0.0450(3)
C108_5 C 0.1139(3) 0.7964(2) 0.0983(3)
C109_5 C 0.1555(3) 0.8142(2) 0.0968(3)
H77_5 H 0.1696 0.8250 0.0613
C110_5 C 0.1766(3) 0.8163(2) 0.1464(3)
H78_5 H 0.2052 0.8296 0.1452
C111_5 C 0.1565(4) 0.7991(2) 0.1986(3)
C112_5 C 0.1147(4) 0.7807(2) 0.1994(3)
H79_5 H 0.1007 0.7691 0.2347
C113_5 C 0.0931(4) 0.7789(2) 0.1503(3)
H80_5 H 0.0645 0.7660 0.1516
C114_6 C 0.0926(3) 0.6716(2) 0.5419(3)
C115_6 C 0.1143(3) 0.6992(2) 0.4920(3)
C116_6 C 0.1094(3) 0.6854(2) 0.4348(3)
H81_6 H 0.0912 0.6577 0.4265
C117_6 C 0.1307(4) 0.7117(2) 0.3896(3)
H82_6 H 0.1271 0.7020 0.3508
C118_6 C 0.1571(3) 0.7521(2) 0.4013(3)
C119_6 C 0.1621(4) 0.7655(2) 0.4579(3)
H83_6 H 0.1805 0.7930 0.4663
C120_6 C 0.1407(4) 0.7396(2) 0.5028(3)
H84_6 H 0.1440 0.7496 0.5414
H86_3 H 0.463442 0.996554 0.47872
H86_4 H 0.00344586 0.466888 0.47872
H85_4 H 0.97386 0.481193 0.450335
H87_4 H 0.513069 0.042589 0.468039
H88_4 H 0.476116 0.997182 0.457054
C18_6 C 0.4495(2) 0.0538(2) 0.9986(3)
C19_6 C 0.4145(3) 0.0242(3) 0.9721(4)
H16_6 H 0.4159 0.0061 0.9450
C20_6 C 0.3775(2) 0.0209(3) 0.9851(4)
H17_6 H 0.3538 0.0008 0.9663
C21_6 C 0.4887(2) 0.0556(2) 0.9857(3)
C24_6 C 0.5591(2) 0.0529(3) 0.9655(3)
H19_6 H 0.5835 0.0527 0.9582
C25_6 C 0.5294(2) 0.0411(3) 0.9206(3)
C26_6 C 0.4954(2) 0.0437(3) 0.9309(3)
H20_6 H 0.4763 0.0373 0.9007
C29_6 C 0.5192(2) 0.0080(2) 0.7634(3)
H21_6 H 0.5084 0.0113 0.7279
C30_6 C 0.5171(2) 0.0270(2) 0.8130(3)
H22_6 H 0.5038 0.0423 0.8118
C31_6 C 0.5343(2) 0.0241(3) 0.8652(3)
C32_6 C 0.5527(2) 0.0007(3) 0.8660(3)
O17_6 O 0.03354(17) 0.25910(25) 0.9390(3)
O18_6 O 0.1048(2) 0.3254(3) 0.9039(4)
C59_6 C 0.0356(3) 0.2846(4) 0.8909(4)
H39_6 H 0.0096 0.2841 0.8872
H40_6 H 0.0406 0.2743 0.8541
C60_6 C 0.0677(3) 0.3254(4) 0.9009(5)
H41_6 H 0.0629 0.3357 0.9378
H42_6 H 0.0686 0.3431 0.8688
C61_6 C 0.1043(3) 0.3006(5) 0.9524(5)
H43_6 H 0.1304 0.3011 0.9543
H44_6 H 0.1005 0.3115 0.9894
C62_6 C 0.0707(2) 0.2584(4) 0.9440(4)
H45_6 H 0.0693 0.2415 0.9775
H46_6 H 0.0753 0.2467 0.9083
C76_6 C 0.0366(2) 0.5772(3) 0.7116(3)
C77_6 C 0.0158(2) 0.5527(3) 0.7649(3)
H56_6 H 0.0017 0.5659 0.9013
C82_6 C 0.0191(3) 0.5735(4) 0.8169(3)
H57_6 H 0.0348 0.6021 0.8182
O2_6 O 0.22557(18) 0.96646(17) 0.9390(3)
O3_6 O 0.2207(2) 0.8952(2) 0.9039(4)
C1_6 C 0.2491(3) 0.9644(3) 0.8909(4)
H1_6 H 0.2746 0.9904 0.8872
H2_6 H 0.2338 0.9594 0.8541
C2_6 C 0.2578(3) 0.9323(3) 0.9009(5)
H3_6 H 0.2729 0.9371 0.9378
H4_6 H 0.2746 0.9314 0.8688
C3_6 C 0.1964(4) 0.8957(3) 0.9524(5)
H5_6 H 0.1708 0.8696 0.9543
H6_6 H 0.2111 0.8995 0.9894
C4_6 C 0.1878(3) 0.9293(2) 0.9440(4)
H7_6 H 0.1723 0.9307 0.9775
H8_6 H 0.1715 0.9247 0.9083
C27_6 C 0.5407(2) 0.9634(2) 0.7116(3)
C28_6 C 0.5370(2) 0.9842(2) 0.7649(3)
H23_6 H 0.5643 0.9983 0.9013
C33_6 C 0.5545(2) 0.9809(3) 0.8169(3)
H24_6 H 0.5674 0.9652 0.8182
C67_6 C 0.9462(2) 0.3956(3) 0.9986(3)
C68_6 C 0.9758(3) 0.3902(4) 0.9721(4)
H49_6 H 0.9939 0.4097 0.9450
C69_6 C 0.9791(3) 0.3565(4) 0.9851(4)
H50_6 H 0.9992 0.3529 0.9663
C70_6 C 0.9444(2) 0.4330(3) 0.9857(3)
C73_6 C 0.9471(3) 0.5061(4) 0.9655(3)
H52_6 H 0.9473 0.5307 0.9582
C74_6 C 0.9589(3) 0.4882(4) 0.9206(3)
C75_6 C 0.9563(3) 0.4516(4) 0.9309(3)
H53_6 H 0.9627 0.4389 0.9007
C78_6 C 0.9920(2) 0.5111(3) 0.7634(3)
H54_6 H 0.9887 0.4970 0.7279
C79_6 C 0.9730(2) 0.4900(3) 0.8130(3)
H55_6 H 0.9577 0.4614 0.8118
C80_6 C 0.9759(3) 0.5101(4) 0.8652(3)
C81_6 C 0.9993(3) 0.5519(4) 0.8660(3)
O26_6 O 0.74090(25) 0.77443(18) 0.9390(3)
O27_6 O 0.6746(3) 0.7793(2) 0.9039(4)
C90_6 C 0.7154(4) 0.7509(3) 0.8909(4)
H62_6 H 0.7159 0.7254 0.8872
H63_6 H 0.7257 0.7662 0.8541
C91_6 C 0.6746(4) 0.7422(3) 0.9009(5)
H64_6 H 0.6643 0.7271 0.9378
H65_6 H 0.6569 0.7254 0.8688
C92_6 C 0.6994(5) 0.8036(4) 0.9524(5)
H66_6 H 0.6989 0.8292 0.9543
H67_6 H 0.6885 0.7889 0.9894
C93_6 C 0.7416(4) 0.8122(3) 0.9440(4)
H68_6 H 0.7585 0.8277 0.9775
H69_6 H 0.7533 0.8285 0.9083
C98_6 C 0.6044(3) 0.5505(2) 0.9986(3)
C99_6 C 0.6098(4) 0.5855(3) 0.9721(4)
H72_6 H 0.5903 0.5841 0.9450
C100_6 C 0.6435(4) 0.6225(2) 0.9851(4)
H73_6 H 0.6471 0.6462 0.9663
C101_6 C 0.5670(3) 0.5113(2) 0.9857(3)
C104_6 C 0.4939(4) 0.4409(2) 0.9655(3)
H75_6 H 0.4693 0.4165 0.9582
C105_6 C 0.5118(4) 0.4706(2) 0.9206(3)
C106_6 C 0.5484(4) 0.5046(2) 0.9309(3)
H76_6 H 0.5611 0.5237 0.9007
C107_6 C 0.4228(3) 0.4593(2) 0.7116(3)
C108_6 C 0.4473(3) 0.4630(2) 0.7649(3)
C109_6 C 0.4889(3) 0.4808(2) 0.7634(3)
H77_6 H 0.5030 0.4916 0.7279
C110_6 C 0.5100(3) 0.4829(2) 0.8130(3)
H78_6 H 0.5386 0.4962 0.8118
C111_6 C 0.4899(4) 0.4657(2) 0.8652(3)
C112_6 C 0.4481(4) 0.4473(2) 0.8660(3)
H79_6 H 0.4341 0.4357 0.9013
C113_6 C 0.4265(4) 0.4455(2) 0.8169(3)
H80_6 H 0.3979 0.4326 0.8182
loop_
_geom_bond_atom_site_label_1
_geom_bond_atom_site_label_2
_geom_bond_site_symmetry_1
_geom_bond_site_symmetry_2
Cu10 O32 1_555 1_555
Cu10 Cu16 1_555 1_555
O30 C107 1_555 1_555
O31 C107 1_555 1_555
O33 C114 1_555 1_555
C97 C96 1_555 1_555
H71 C97 1_555 1_555
C98 C97 1_555 1_555
C99 C98 1_555 1_555
H72 C99 1_555 1_555
H73 C100 1_555 1_555
C101 C98 1_555 1_555
C102 C101 1_555 1_555
H74 C102 1_555 1_555
C103 C102 1_555 1_555
C104 C103 1_555 1_555
H75 C104 1_555 1_555
C105 C104 1_555 1_555
C106 C101 1_555 1_555
H76 C106 1_555 1_555
C107 C108 1_555 1_555
C108 C109 1_555 1_555
C109 H77 1_555 1_555
C110 C109 1_555 1_555
H78 C110 1_555 1_555
C111 C105 1_555 1_555
C112 C111 1_555 1_555
H79 C112 1_555 1_555
C113 C108 1_555 1_555
H80 C113 1_555 1_555
C114 C115 1_555 1_555
C115 C116 1_555 1_555
C117 C116 1_555 1_555
H82 C117 1_555 1_555
C118 C103 1_555 1_555
C119 C118 1_555 1_555
H83 C119 1_555 1_555
C120 C115 1_555 1_555
H84 C120 1_555 1_555
Cu8 O30 1_555 1_555
Cu14 O31 1_555 1_555
C99 C100 1_555 1_555
C105 C106 1_555 1_555
C110 C111 1_555 1_555
C112 C113 1_555 1_555
C117 C118 1_555 1_555
C119 C120 1_555 1_555
Cu8 Cu14 1_555 1_555
Cu1 Cu2 1_555 1_555
Cu2 O2 1_555 1_555
O1 Cu1 1_555 1_555
O2 C1 1_555 1_555
O3 C2 1_555 1_555
C1 H1 1_555 1_555
H2 C1 1_555 1_555
C2 C1 1_555 1_555
H3 C2 1_555 1_555
H4 C2 1_555 1_555
C3 O3 1_555 1_555
H5 C3 1_555 1_555
H6 C3 1_555 1_555
C4 O2 1_555 1_555
H7 C4 1_555 1_555
H8 C4 1_555 1_555
O4 Cu1 1_555 1_555
O5 Cu2 1_555 1_555
C5 O4 1_555 1_555
C6 C5 1_555 1_555
C7 C6 1_555 1_555
H9 C7 1_555 1_555
C8 C7 1_555 1_555
H10 C8 1_555 1_555
C9 C8 1_555 1_555
C10 C9 1_555 1_555
H11 C10 1_555 1_555
C11 C6 1_555 1_555
H12 C11 1_555 1_555
C12 C9 1_555 1_555
C13 C12 1_555 1_555
H13 C13 1_555 1_555
O6 Cu1 1_555 1_555
O7 Cu2 1_555 1_555
O8 C27 1_555 1_555
O9 C27 1_555 1_555
O11 C34 1_555 1_555
C14 O6 1_555 1_555
C15 C14 1_555 1_555
C16 C15 1_555 1_555
H14 C16 1_555 1_555
C17 C16 1_555 1_555
H15 C17 1_555 1_555
C18 C17 1_555 1_555
C19 C18 1_555 1_555
H16 C19 1_555 1_555
C20 C15 1_555 1_555
H17 C20 1_555 1_555
C21 C18 1_555 1_555
C22 C21 1_555 1_555
H18 C22 1_555 1_555
C23 C22 1_555 1_555
C24 C23 1_555 1_555
H19 C24 1_555 1_555
C25 C24 1_555 1_555
C26 C21 1_555 1_555
H20 C26 1_555 1_555
C27 C28 1_555 1_555
C28 C29 1_555 1_555
C29 H21 1_555 1_555
C30 C29 1_555 1_555
H22 C30 1_555 1_555
C31 C25 1_555 1_555
C32 C31 1_555 1_555
H23 C32 1_555 1_555
C33 C28 1_555 1_555
H24 C33 1_555 1_555
C34 C35 1_555 1_555
C35 C36 1_555 1_555
C37 C36 1_555 1_555
H26 C37 1_555 1_555
C38 C23 1_555 1_555
C39 C38 1_555 1_555
H27 C39 1_555 1_555
C40 C35 1_555 1_555
H28 C40 1_555 1_555
O12 C41 1_555 1_555
O13 C41 1_555 1_555
C41 C42 1_555 1_555
C42 C43 1_555 1_555
C43 H29 1_555 1_555
C44 C43 1_555 1_555
H30 C44 1_555 1_555
C45 C44 1_555 1_555
C46 C45 1_555 1_555
H31 C46 1_555 1_555
C47 C42 1_555 1_555
H32 C47 1_555 1_555
C48 C13 1_555 1_555
C49 C48 1_555 1_555
H33 C49 1_555 1_555
O14 C50 1_555 1_555
O15 C50 1_555 1_555
C50 C51 1_555 1_555
C51 C52 1_555 1_555
C52 H34 1_555 1_555
C53 C52 1_555 1_555
H35 C53 1_555 1_555
C54 C53 1_555 1_555
C55 C54 1_555 1_555
H36 C55 1_555 1_555
C56 C51 1_555 1_555
H37 C56 1_555 1_555
C57 C49 1_555 1_555
C58 C12 1_555 1_555
H38 C58 1_555 1_555
Cu3 O12 1_555 1_555
Cu4 O13 1_555 1_555
O16 Cu3 1_555 1_555
O17 Cu4 1_555 1_555
O18 C60 1_555 1_555
C59 O17 1_555 1_555
H39 C59 1_555 1_555
H40 C59 1_555 1_555
C60 C59 1_555 1_555
C61 O18 1_555 1_555
H43 C61 1_555 1_555
H44 C61 1_555 1_555
C62 O17 1_555 1_555
H45 C62 1_555 1_555
H46 C62 1_555 1_555
O19 Cu3 1_555 1_555
O20 Cu4 1_555 1_555
C63 O19 1_555 1_555
C64 C63 1_555 1_555
Cu5 O14 1_555 1_555
Cu6 O15 1_555 1_555
O25 Cu5 1_555 1_555
O26 Cu6 1_555 1_555
O27 C91 1_555 1_555
C90 O26 1_555 1_555
H62 C90 1_555 1_555
H63 C90 1_555 1_555
C91 C90 1_555 1_555
C92 O27 1_555 1_555
H66 C92 1_555 1_555
H67 C92 1_555 1_555
C93 O26 1_555 1_555
H68 C93 1_555 1_555
H69 C93 1_555 1_555
O28 Cu5 1_555 1_555
O29 Cu6 1_555 1_555
C94 O28 1_555 1_555
C95 C94 1_555 1_555
Cu9 O8 1_555 1_555
Cu15 O9 1_555 1_555
O34 Cu5 1_555 1_555
O35 Cu1 1_555 1_555
O36 Cu3 1_555 1_555
O37 Cu6 1_555 1_555
O38 Cu2 1_555 1_555
O39 Cu4 1_555 1_555
O40 Cu3 1_555 1_555
O41 Cu5 1_555 1_555
O42 Cu1 1_555 1_555
O43 Cu4 1_555 1_555
O44 Cu6 1_555 1_555
O45 Cu2 1_555 1_555
C3 C4 1_555 1_555
O5 C5 1_555 1_555
C10 C11 1_555 1_555
O7 C14 1_555 1_555
C19 C20 1_555 1_555
C25 C26 1_555 1_555
C30 C31 1_555 1_555
C32 C33 1_555 1_555
C37 C38 1_555 1_555
C39 C40 1_555 1_555
C45 C48 1_555 1_555
C46 C47 1_555 1_555
C54 C57 1_555 1_555
C55 C56 1_555 1_555
C57 C58 1_555 1_555
Cu3 Cu4 1_555 1_555
C61 C62 1_555 1_555
O20 C63 1_555 1_555
Cu5 Cu6 1_555 1_555
C92 C93 1_555 1_555
O29 C94 1_555 1_555
Cu9 Cu15 1_555 1_555
O21 C76 1_555 1_555
O22 C76 1_555 1_555
O23 C83 1_555 1_555
O24 C83 1_555 1_555
C66 C65 1_555 1_555
H48 C66 1_555 1_555
C67 C66 1_555 1_555
C68 C67 1_555 1_555
H49 C68 1_555 1_555
H50 C69 1_555 1_555
C70 C67 1_555 1_555
C71 C70 1_555 1_555
H51 C71 1_555 1_555
C72 C71 1_555 1_555
C73 C72 1_555 1_555
H52 C73 1_555 1_555
C74 C73 1_555 1_555
C75 C70 1_555 1_555
H53 C75 1_555 1_555
C76 C77 1_555 1_555
C77 C78 1_555 1_555
C78 H54 1_555 1_555
C79 C78 1_555 1_555
H55 C79 1_555 1_555
C80 C74 1_555 1_555
C81 C80 1_555 1_555
H56 C81 1_555 1_555
C82 C77 1_555 1_555
H57 C82 1_555 1_555
C83 C84 1_555 1_555
C84 C85 1_555 1_555
C85 H58 1_555 1_555
C86 C85 1_555 1_555
H59 C86 1_555 1_555
C87 C72 1_555 1_555
C88 C87 1_555 1_555
H60 C88 1_555 1_555
C89 C84 1_555 1_555
H61 C89 1_555 1_555
Cu7 O21 1_555 1_555
Cu12 O23 1_555 1_555
Cu13 O22 1_555 1_555
Cu18 O24 1_555 1_555
C68 C69 1_555 1_555
C74 C75 1_555 1_555
C79 C80 1_555 1_555
C81 C82 1_555 1_555
C86 C87 1_555 1_555
C88 C89 1_555 1_555
Cu7 Cu13 1_555 1_555
Cu12 Cu18 1_555 1_555
Cu11 O10 1_555 1_555
Cu11 Cu17 1_555 1_555
Cu11 O30_2 1_555 1_555
Cu10 O21_2 1_555 1_555
Cu12 O8_2 1_555 1_555
H33_2 C49_2 1_555 1_555
O14_2 C50_2 1_555 1_555
O15_2 C50_2 1_555 1_555
C50_2 C51_2 1_555 1_555
C51_2 C52_2 1_555 1_555
C52_2 H34_2 1_555 1_555
C53_2 C52_2 1_555 1_555
H35_2 C53_2 1_555 1_555
C54_2 C53_2 1_555 1_555
C55_2 C54_2 1_555 1_555
H36_2 C55_2 1_555 1_555
C56_2 C51_2 1_555 1_555
H37_2 C56_2 1_555 1_555
C57_2 C49_2 1_555 1_555
Cu5_2 O14_2 1_555 1_555
Cu6_2 O15_2 1_555 1_555
O25_2 Cu5_2 1_555 1_555
O28_2 Cu5_2 1_555 1_555
O29_2 Cu6_2 1_555 1_555
O32_2 C114_2 1_555 1_555
O33_2 C114_2 1_555 1_555
C94_2 O28_2 1_555 1_555
C95_2 C94_2 1_555 1_555
C96_2 C95_2 1_555 1_555
H70_2 C96_2 1_555 1_555
C97_2 C96_2 1_555 1_555
H71_2 C97_2 1_555 1_555
H74_2 C102_2 1_555 1_555
C103_2 C102_2 1_555 1_555
C114_2 C115_2 1_555 1_555
C115_2 C116_2 1_555 1_555
C116_2 H81_2 1_555 1_555
C117_2 C116_2 1_555 1_555
H82_2 C117_2 1_555 1_555
C118_2 C103_2 1_555 1_555
C119_2 C118_2 1_555 1_555
H83_2 C119_2 1_555 1_555
C120_2 C115_2 1_555 1_555
H84_2 C120_2 1_555 1_555
Cu7 O32_2 1_555 1_555
Cu13 O33_2 1_555 1_555
O34_2 Cu5_2 1_555 1_555
O41_2 Cu5_2 1_555 1_555
O44_2 Cu6_2 1_555 1_555
C54_2 C57_2 1_555 1_555
C55_2 C56_2 1_555 1_555
Cu5_2 Cu6_2 1_555 1_555
O29_2 C94_2 1_555 1_555
C117_2 C118_2 1_555 1_555
C119_2 C120_2 1_555 1_555
O12_2 C41_2 1_555 1_555
O13_2 C41_2 1_555 1_555
C41_2 C42_2 1_555 1_555
C42_2 C43_2 1_555 1_555
C43_2 H29_2 1_555 1_555
C44_2 C43_2 1_555 1_555
H30_2 C44_2 1_555 1_555
C45_2 C44_2 1_555 1_555
Cu3_2 O12_2 1_555 1_555
Cu4_2 O13_2 1_555 1_555
O16_2 Cu3_2 1_555 1_555
O19_2 Cu3_2 1_555 1_555
O20_2 Cu4_2 1_555 1_555
O23_2 C83_2 1_555 1_555
O24_2 C83_2 1_555 1_555
C63_2 O19_2 1_555 1_555
C64_2 C63_2 1_555 1_555
C65_2 C64_2 1_555 1_555
H47_2 C65_2 1_555 1_555
C66_2 C65_2 1_555 1_555
H48_2 C66_2 1_555 1_555
H51_2 C71_2 1_555 1_555
C72_2 C71_2 1_555 1_555
C83_2 C84_2 1_555 1_555
C84_2 C85_2 1_555 1_555
C85_2 H58_2 1_555 1_555
C86_2 C85_2 1_555 1_555
H59_2 C86_2 1_555 1_555
C87_2 C72_2 1_555 1_555
C88_2 C87_2 1_555 1_555
H60_2 C88_2 1_555 1_555
C89_2 C84_2 1_555 1_555
H61_2 C89_2 1_555 1_555
Cu9 O23_2 1_555 1_555
Cu15 O24_2 1_555 1_555
O36_2 Cu3_2 1_555 1_555
O40_2 Cu3_2 1_555 1_555
C45_2 C48_2 1_555 1_555
Cu3_2 Cu4_2 1_555 1_555
O20_2 C63_2 1_555 1_555
C86_2 C87_2 1_555 1_555
C88_2 C89_2 1_555 1_555
H11_2 C10_2 1_555 1_555
H12_2 C11_2 1_555 1_555
H38_2 C58_2 1_555 1_555
C10_2 C11_2 1_555 1_555
Cu1_2 Cu2_2 1_555 1_555
O1_2 Cu1_2 1_555 1_555
O4_2 Cu1_2 1_555 1_555
O5_2 Cu2_2 1_555 1_555
C5_2 O4_2 1_555 1_555
C6_2 C5_2 1_555 1_555
C7_2 C6_2 1_555 1_555
H9_2 C7_2 1_555 1_555
C8_2 C7_2 1_555 1_555
H10_2 C8_2 1_555 1_555
C9_2 C8_2 1_555 1_555
C12_2 C9_2 1_555 1_555
C13_2 C12_2 1_555 1_555
H13_2 C13_2 1_555 1_555
O6_2 Cu1_2 1_555 1_555
O7_2 Cu2_2 1_555 1_555
O10_2 C34_2 1_555 1_555
O11_2 C34_2 1_555 1_555
C14_2 O6_2 1_555 1_555
C15_2 C14_2 1_555 1_555
C16_2 C15_2 1_555 1_555
H14_2 C16_2 1_555 1_555
C17_2 C16_2 1_555 1_555
H15_2 C17_2 1_555 1_555
H18_2 C22_2 1_555 1_555
C23_2 C22_2 1_555 1_555
C34_2 C35_2 1_555 1_555
C35_2 C36_2 1_555 1_555
C36_2 H25_2 1_555 1_555
C37_2 C36_2 1_555 1_555
H26_2 C37_2 1_555 1_555
C38_2 C23_2 1_555 1_555
C39_2 C38_2 1_555 1_555
H27_2 C39_2 1_555 1_555
C40_2 C35_2 1_555 1_555
H28_2 C40_2 1_555 1_555
H31_2 C46_2 1_555 1_555
H32_2 C47_2 1_555 1_555
Cu8 O10_2 1_555 1_555
Cu14 O11_2 1_555 1_555
O35_2 Cu1_2 1_555 1_555
O42_2 Cu1_2 1_555 1_555
O5_2 C5_2 1_555 1_555
O7_2 C14_2 1_555 1_555
C37_2 C38_2 1_555 1_555
C39_2 C40_2 1_555 1_555
C46_2 C47_2 1_555 1_555
O35 C76_2 1_555 1_555
O38 C76_2 1_555 1_555
O41_2 C83_3 1_555 1_555
O44_2 C83_3 1_555 1_555
C66_3 C65_3 1_555 1_555
H48_3 C66_3 1_555 1_555
C67_2 C66_3 1_555 1_555
C68_2 C67_2 1_555 1_555
H49_2 C68_2 1_555 1_555
H50_2 C69_2 1_555 1_555
C70_2 C67_2 1_555 1_555
C71_3 C70_2 1_555 1_555
H51_3 C71_3 1_555 1_555
C72_3 C71_3 1_555 1_555
C73_2 C72_3 1_555 1_555
H52_2 C73_2 1_555 1_555
C74_2 C73_2 1_555 1_555
C75_2 C70_2 1_555 1_555
H53_2 C75_2 1_555 1_555
C76_2 C77_2 1_555 1_555
C77_2 C78_2 1_555 1_555
C78_2 H54_2 1_555 1_555
C79_2 C78_2 1_555 1_555
H55_2 C79_2 1_555 1_555
C80_2 C74_2 1_555 1_555
C81_2 C80_2 1_555 1_555
H56_2 C81_2 1_555 1_555
C82_2 C77_2 1_555 1_555
H57_2 C82_2 1_555 1_555
C83_3 C84_3 1_555 1_555
C84_3 C85_3 1_555 1_555
C85_3 H58_3 1_555 1_555
C86_3 C85_3 1_555 1_555
H59_3 C86_3 1_555 1_555
C87_3 C72_3 1_555 1_555
C88_3 C87_3 1_555 1_555
H60_3 C88_3 1_555 1_555
C89_3 C84_3 1_555 1_555
H61_3 C89_3 1_555 1_555
C68_2 C69_2 1_555 1_555
C74_2 C75_2 1_555 1_555
C79_2 C80_2 1_555 1_555
C81_2 C82_2 1_555 1_555
C86_3 C87_3 1_555 1_555
C88_3 C89_3 1_555 1_555
Cu13 O2_2 1_555 1_555
O1_3 Cu7 1_555 1_555
O2_2 C1_2 1_555 1_555
O3_2 C2_2 1_555 1_555
C1_2 H1_2 1_555 1_555
H2_2 C1_2 1_555 1_555
C2_2 C1_2 1_555 1_555
H3_2 C2_2 1_555 1_555
H4_2 C2_2 1_555 1_555
C3_2 O3_2 1_555 1_555
H5_2 C3_2 1_555 1_555
H6_2 C3_2 1_555 1_555
C4_2 O2_2 1_555 1_555
H7_2 C4_2 1_555 1_555
H8_2 C4_2 1_555 1_555
O4_3 Cu7 1_555 1_555
O5_3 Cu13 1_555 1_555
C5_3 O4_3 1_555 1_555
C6_3 C5_3 1_555 1_555
C7_3 C6_3 1_555 1_555
H9_3 C7_3 1_555 1_555
C8_3 C7_3 1_555 1_555
H10_3 C8_3 1_555 1_555
C9_3 C8_3 1_555 1_555
C10_3 C9_3 1_555 1_555
H11_3 C10_3 1_555 1_555
C11_3 C6_3 1_555 1_555
H12_3 C11_3 1_555 1_555
C12_3 C9_3 1_555 1_555
C13_3 C12_3 1_555 1_555
H13_3 C13_3 1_555 1_555
O6_3 Cu7 1_555 1_555
O7_3 Cu13 1_555 1_555
O34 C27_2 1_555 1_555
O37 C27_2 1_555 1_555
O43_2 C34_3 1_555 1_555
C14_3 O6_3 1_555 1_555
C15_3 C14_3 1_555 1_555
C16_3 C15_3 1_555 1_555
H14_3 C16_3 1_555 1_555
C17_3 C16_3 1_555 1_555
H15_3 C17_3 1_555 1_555
C18_2 C17_3 1_555 1_555
C19_2 C18_2 1_555 1_555
H16_2 C19_2 1_555 1_555
C20_2 C15_3 1_555 1_555
H17_2 C20_2 1_555 1_555
C21_2 C18_2 1_555 1_555
C22_3 C21_2 1_555 1_555
H18_3 C22_3 1_555 1_555
C23_3 C22_3 1_555 1_555
C24_2 C23_3 1_555 1_555
H19_2 C24_2 1_555 1_555
C25_2 C24_2 1_555 1_555
C26_2 C21_2 1_555 1_555
H20_2 C26_2 1_555 1_555
C27_2 C28_2 1_555 1_555
C28_2 C29_2 1_555 1_555
C29_2 H21_2 1_555 1_555
C30_2 C29_2 1_555 1_555
H22_2 C30_2 1_555 1_555
C31_2 C25_2 1_555 1_555
C32_2 C31_2 1_555 1_555
H23_2 C32_2 1_555 1_555
C33_2 C28_2 1_555 1_555
H24_2 C33_2 1_555 1_555
C34_3 C35_3 1_555 1_555
C35_3 C36_3 1_555 1_555
C37_3 C36_3 1_555 1_555
H26_3 C37_3 1_555 1_555
C38_3 C23_3 1_555 1_555
C39_3 C38_3 1_555 1_555
H27_3 C39_3 1_555 1_555
C40_3 C35_3 1_555 1_555
H28_3 C40_3 1_555 1_555
O12_3 C41_3 1_555 1_555
O13_3 C41_3 1_555 1_555
C41_3 C42_3 1_555 1_555
C42_3 C43_3 1_555 1_555
C43_3 H29_3 1_555 1_555
C44_3 C43_3 1_555 1_555
H30_3 C44_3 1_555 1_555
C45_3 C44_3 1_555 1_555
C46_3 C45_3 1_555 1_555
H31_3 C46_3 1_555 1_555
C47_3 C42_3 1_555 1_555
H32_3 C47_3 1_555 1_555
C48_3 C13_3 1_555 1_555
C49_3 C48_3 1_555 1_555
H33_3 C49_3 1_555 1_555
O14_3 C50_3 1_555 1_555
O15_3 C50_3 1_555 1_555
C50_3 C51_3 1_555 1_555
C51_3 C52_3 1_555 1_555
C52_3 H34_3 1_555 1_555
C53_3 C52_3 1_555 1_555
H35_3 C53_3 1_555 1_555
C54_3 C53_3 1_555 1_555
C55_3 C54_3 1_555 1_555
H36_3 C55_3 1_555 1_555
C56_3 C51_3 1_555 1_555
H37_3 C56_3 1_555 1_555
C57_3 C49_3 1_555 1_555
C58_3 C12_3 1_555 1_555
H38_3 C58_3 1_555 1_555
Cu8 O12_3 1_555 1_555
Cu14 O13_3 1_555 1_555
O16_3 Cu8 1_555 1_555
O17_2 Cu14 1_555 1_555
O18_2 C60_2 1_555 1_555
C59_2 O17_2 1_555 1_555
H39_2 C59_2 1_555 1_555
H40_2 C59_2 1_555 1_555
C60_2 C59_2 1_555 1_555
C61_2 O18_2 1_555 1_555
H43_2 C61_2 1_555 1_555
H44_2 C61_2 1_555 1_555
C62_2 O17_2 1_555 1_555
H45_2 C62_2 1_555 1_555
H46_2 C62_2 1_555 1_555
O19_3 Cu8 1_555 1_555
O20_3 Cu14 1_555 1_555
C63_3 O19_3 1_555 1_555
C64_3 C63_3 1_555 1_555
Cu9 O14_3 1_555 1_555
Cu15 O15_3 1_555 1_555
O25_3 Cu9 1_555 1_555
O26_2 Cu15 1_555 1_555
O27_2 C91_2 1_555 1_555
C90_2 O26_2 1_555 1_555
H62_2 C90_2 1_555 1_555
H63_2 C90_2 1_555 1_555
C91_2 C90_2 1_555 1_555
C92_2 O27_2 1_555 1_555
H66_2 C92_2 1_555 1_555
H67_2 C92_2 1_555 1_555
C93_2 O26_2 1_555 1_555
H68_2 C93_2 1_555 1_555
H69_2 C93_2 1_555 1_555
O28_3 Cu9 1_555 1_555
O29_3 Cu15 1_555 1_555
C94_3 O28_3 1_555 1_555
C95_3 C94_3 1_555 1_555
C3_2 C4_2 1_555 1_555
O5_3 C5_3 1_555 1_555
C10_3 C11_3 1_555 1_555
O7_3 C14_3 1_555 1_555
C19_2 C20_2 1_555 1_555
C25_2 C26_2 1_555 1_555
C30_2 C31_2 1_555 1_555
C32_2 C33_2 1_555 1_555
C37_3 C38_3 1_555 1_555
C39_3 C40_3 1_555 1_555
C45_3 C48_3 1_555 1_555
C46_3 C47_3 1_555 1_555
C54_3 C57_3 1_555 1_555
C55_3 C56_3 1_555 1_555
C57_3 C58_3 1_555 1_555
C61_2 C62_2 1_555 1_555
O20_3 C63_3 1_555 1_555
C92_2 C93_2 1_555 1_555
O29_3 C94_3 1_555 1_555
O36 C107_2 1_555 1_555
O39 C107_2 1_555 1_555
O45_2 C114_3 1_555 1_555
C97_3 C96_3 1_555 1_555
H71_3 C97_3 1_555 1_555
C98_2 C97_3 1_555 1_555
C99_2 C98_2 1_555 1_555
H72_2 C99_2 1_555 1_555
H73_2 C100_2 1_555 1_555
C101_2 C98_2 1_555 1_555
C102_3 C101_2 1_555 1_555
H74_3 C102_3 1_555 1_555
C103_3 C102_3 1_555 1_555
C104_2 C103_3 1_555 1_555
H75_2 C104_2 1_555 1_555
C105_2 C104_2 1_555 1_555
C106_2 C101_2 1_555 1_555
H76_2 C106_2 1_555 1_555
C107_2 C108_2 1_555 1_555
C108_2 C109_2 1_555 1_555
C109_2 H77_2 1_555 1_555
C110_2 C109_2 1_555 1_555
H78_2 C110_2 1_555 1_555
C111_2 C105_2 1_555 1_555
C112_2 C111_2 1_555 1_555
H79_2 C112_2 1_555 1_555
C113_2 C108_2 1_555 1_555
H80_2 C113_2 1_555 1_555
C114_3 C115_3 1_555 1_555
C115_3 C116_3 1_555 1_555
C117_3 C116_3 1_555 1_555
H82_3 C117_3 1_555 1_555
C118_3 C103_3 1_555 1_555
C119_3 C118_3 1_555 1_555
H83_3 C119_3 1_555 1_555
C120_3 C115_3 1_555 1_555
H84_3 C120_3 1_555 1_555
C99_2 C100_2 1_555 1_555
C105_2 C106_2 1_555 1_555
C110_2 C111_2 1_555 1_555
C112_2 C113_2 1_555 1_555
C117_3 C118_3 1_555 1_555
C119_3 C120_3 1_555 1_555
O1_4 Cu10 1_555 1_555
O4_4 Cu10 1_555 1_555
O5_4 Cu16 1_555 1_555
C5_4 O4_4 1_555 1_555
C6_4 C5_4 1_555 1_555
C7_4 C6_4 1_555 1_555
H9_4 C7_4 1_555 1_555
C8_4 C7_4 1_555 1_555
H10_4 C8_4 1_555 1_555
C9_4 C8_4 1_555 1_555
C12_4 C9_4 1_555 1_555
C13_4 C12_4 1_555 1_555
H13_4 C13_4 1_555 1_555
O6_4 Cu10 1_555 1_555
O7_4 Cu16 1_555 1_555
O40 C34_4 1_555 1_555
O43 C34_4 1_555 1_555
C14_4 O6_4 1_555 1_555
C15_4 C14_4 1_555 1_555
C16_4 C15_4 1_555 1_555
H14_4 C16_4 1_555 1_555
C17_4 C16_4 1_555 1_555
H15_4 C17_4 1_555 1_555
H18_4 C22_4 1_555 1_555
C23_4 C22_4 1_555 1_555
C34_4 C35_4 1_555 1_555
C35_4 C36_4 1_555 1_555
C36_4 H25_4 1_555 1_555
C37_4 C36_4 1_555 1_555
H26_4 C37_4 1_555 1_555
C38_4 C23_4 1_555 1_555
C39_4 C38_4 1_555 1_555
H27_4 C39_4 1_555 1_555
C40_4 C35_4 1_555 1_555
H28_4 C40_4 1_555 1_555
H31_4 C46_4 1_555 1_555
H32_4 C47_4 1_555 1_555
O5_4 C5_4 1_555 1_555
O7_4 C14_4 1_555 1_555
C37_4 C38_4 1_555 1_555
C39_4 C40_4 1_555 1_555
C46_4 C47_4 1_555 1_555
H11_4 C10_4 1_555 1_555
H12_4 C11_4 1_555 1_555
H38_4 C58_4 1_555 1_555
C10_4 C11_4 1_555 1_555
O12_4 C41_4 1_555 1_555
O13_4 C41_4 1_555 1_555
C41_4 C42_4 1_555 1_555
C42_4 C43_4 1_555 1_555
C43_4 H29_4 1_555 1_555
C44_4 C43_4 1_555 1_555
H30_4 C44_4 1_555 1_555
C45_4 C44_4 1_555 1_555
Cu11 O12_4 1_555 1_555
Cu17 O13_4 1_555 1_555
O16_4 Cu11 1_555 1_555
O19_4 Cu11 1_555 1_555
O20_4 Cu17 1_555 1_555
O41 C83_4 1_555 1_555
O44 C83_4 1_555 1_555
C63_4 O19_4 1_555 1_555
C64_4 C63_4 1_555 1_555
C65_4 C64_4 1_555 1_555
H47_4 C65_4 1_555 1_555
C66_4 C65_4 1_555 1_555
H48_4 C66_4 1_555 1_555
H51_4 C71_4 1_555 1_555
C72_4 C71_4 1_555 1_555
C83_4 C84_4 1_555 1_555
C84_4 C85_4 1_555 1_555
C85_4 H58_4 1_555 1_555
C86_4 C85_4 1_555 1_555
H59_4 C86_4 1_555 1_555
C87_4 C72_4 1_555 1_555
C88_4 C87_4 1_555 1_555
H60_4 C88_4 1_555 1_555
C89_4 C84_4 1_555 1_555
H61_4 C89_4 1_555 1_555
C45_4 C48_4 1_555 1_555
O20_4 C63_4 1_555 1_555
C86_4 C87_4 1_555 1_555
C88_4 C89_4 1_555 1_555
H33_4 C49_4 1_555 1_555
O14_4 C50_4 1_555 1_555
O15_4 C50_4 1_555 1_555
C50_4 C51_4 1_555 1_555
C51_4 C52_4 1_555 1_555
C52_4 H34_4 1_555 1_555
C53_4 C52_4 1_555 1_555
H35_4 C53_4 1_555 1_555
C54_4 C53_4 1_555 1_555
C55_4 C54_4 1_555 1_555
H36_4 C55_4 1_555 1_555
C56_4 C51_4 1_555 1_555
H37_4 C56_4 1_555 1_555
C57_4 C49_4 1_555 1_555
Cu12 O14_4 1_555 1_555
Cu18 O15_4 1_555 1_555
O25_4 Cu12 1_555 1_555
O28_4 Cu12 1_555 1_555
O29_4 Cu18 1_555 1_555
O42 C114_4 1_555 1_555
O45 C114_4 1_555 1_555
C94_4 O28_4 1_555 1_555
C95_4 C94_4 1_555 1_555
C96_4 C95_4 1_555 1_555
H70_4 C96_4 1_555 1_555
C97_4 C96_4 1_555 1_555
H71_4 C97_4 1_555 1_555
H74_4 C102_4 1_555 1_555
C103_4 C102_4 1_555 1_555
C114_4 C115_4 1_555 1_555
C115_4 C116_4 1_555 1_555
C116_4 H81_4 1_555 1_555
C117_4 C116_4 1_555 1_555
H82_4 C117_4 1_555 1_555
C118_4 C103_4 1_555 1_555
C119_4 C118_4 1_555 1_555
H83_4 C119_4 1_555 1_555
C120_4 C115_4 1_555 1_555
H84_4 C120_4 1_555 1_555
C54_4 C57_4 1_555 1_555
C55_4 C56_4 1_555 1_555
O29_4 C94_4 1_555 1_555
C117_4 C118_4 1_555 1_555
C119_4 C120_4 1_555 1_555
O31_2 C107_3 1_555 1_555
O32_3 C114_5 1_555 1_555
O33_3 C114_5 1_555 1_555
C94_5 O28_5 1_555 1_555
C95_5 C94_5 1_555 1_555
C96_5 C95_5 1_555 1_555
H70_5 C96_5 1_555 1_555
C97_5 C96_5 1_555 1_555
H71_5 C97_5 1_555 1_555
C98_3 C97_5 1_555 1_555
C99_3 C98_3 1_555 1_555
H72_3 C99_3 1_555 1_555
C100_3 C95_5 1_555 1_555
H73_3 C100_3 1_555 1_555
C101_3 C98_3 1_555 1_555
C102_5 C101_3 1_555 1_555
H74_5 C102_5 1_555 1_555
C103_5 C102_5 1_555 1_555
C104_3 C103_5 1_555 1_555
H75_3 C104_3 1_555 1_555
C105_3 C104_3 1_555 1_555
C106_3 C101_3 1_555 1_555
H76_3 C106_3 1_555 1_555
C107_3 C108_3 1_555 1_555
C108_3 C109_3 1_555 1_555
C109_3 H77_3 1_555 1_555
C110_3 C109_3 1_555 1_555
H78_3 C110_3 1_555 1_555
C111_3 C105_3 1_555 1_555
C112_3 C111_3 1_555 1_555
H79_3 C112_3 1_555 1_555
C113_3 C108_3 1_555 1_555
H80_3 C113_3 1_555 1_555
C114_5 C115_5 1_555 1_555
C115_5 C116_5 1_555 1_555
C116_5 H81_5 1_555 1_555
C117_5 C116_5 1_555 1_555
H82_5 C117_5 1_555 1_555
C118_5 C103_5 1_555 1_555
C119_5 C118_5 1_555 1_555
H83_5 C119_5 1_555 1_555
C120_5 C115_5 1_555 1_555
H84_5 C120_5 1_555 1_555
Cu10_2 O32_3 1_555 1_555
Cu16_2 O33_3 1_555 1_555
C99_3 C100_3 1_555 1_555
C105_3 C106_3 1_555 1_555
C110_3 C111_3 1_555 1_555
C112_3 C113_3 1_555 1_555
C117_5 C118_5 1_555 1_555
C119_5 C120_5 1_555 1_555
Cu10_2 Cu16_2 1_555 1_555
Cu1_3 Cu2_3 1_555 1_555
Cu2_3 O2_3 1_555 1_555
O1_5 Cu1_3 1_555 1_555
O2_3 C1_3 1_555 1_555
O3_3 C2_3 1_555 1_555
C1_3 H1_3 1_555 1_555
H2_3 C1_3 1_555 1_555
C2_3 C1_3 1_555 1_555
H3_3 C2_3 1_555 1_555
H4_3 C2_3 1_555 1_555
C3_3 O3_3 1_555 1_555
H5_3 C3_3 1_555 1_555
H6_3 C3_3 1_555 1_555
C4_3 O2_3 1_555 1_555
H7_3 C4_3 1_555 1_555
H8_3 C4_3 1_555 1_555
O4_5 Cu1_3 1_555 1_555
O5_5 Cu2_3 1_555 1_555
C5_5 O4_5 1_555 1_555
C6_5 C5_5 1_555 1_555
C7_5 C6_5 1_555 1_555
H9_5 C7_5 1_555 1_555
C8_5 C7_5 1_555 1_555
H10_5 C8_5 1_555 1_555
C9_5 C8_5 1_555 1_555
C10_5 C9_5 1_555 1_555
H11_5 C10_5 1_555 1_555
C11_5 C6_5 1_555 1_555
H12_5 C11_5 1_555 1_555
C12_5 C9_5 1_555 1_555
C13_5 C12_5 1_555 1_555
H13_5 C13_5 1_555 1_555
O7_5 Cu2_3 1_555 1_555
O12_5 C41_5 1_555 1_555
O13_5 C41_5 1_555 1_555
C41_5 C42_5 1_555 1_555
C42_5 C43_5 1_555 1_555
C43_5 H29_5 1_555 1_555
C44_5 C43_5 1_555 1_555
H30_5 C44_5 1_555 1_555
C45_5 C44_5 1_555 1_555
C46_5 C45_5 1_555 1_555
H31_5 C46_5 1_555 1_555
C47_5 C42_5 1_555 1_555
H32_5 C47_5 1_555 1_555
C48_5 C13_5 1_555 1_555
C49_5 C48_5 1_555 1_555
H33_5 C49_5 1_555 1_555
O14_5 C50_5 1_555 1_555
O15_5 C50_5 1_555 1_555
C50_5 C51_5 1_555 1_555
C51_5 C52_5 1_555 1_555
C52_5 H34_5 1_555 1_555
C53_5 C52_5 1_555 1_555
H35_5 C53_5 1_555 1_555
C54_5 C53_5 1_555 1_555
C55_5 C54_5 1_555 1_555
H36_5 C55_5 1_555 1_555
C56_5 C51_5 1_555 1_555
H37_5 C56_5 1_555 1_555
C57_5 C49_5 1_555 1_555
C58_5 C12_5 1_555 1_555
H38_5 C58_5 1_555 1_555
Cu3_3 O12_5 1_555 1_555
Cu4_3 O13_5 1_555 1_555
O16_5 Cu3_3 1_555 1_555
O17_3 Cu4_3 1_555 1_555
O18_3 C60_3 1_555 1_555
C59_3 O17_3 1_555 1_555
H39_3 C59_3 1_555 1_555
H40_3 C59_3 1_555 1_555
C60_3 C59_3 1_555 1_555
H41_3 C60_3 1_555 1_555
H42_3 C60_3 1_555 1_555
C61_3 O18_3 1_555 1_555
H43_3 C61_3 1_555 1_555
H44_3 C61_3 1_555 1_555
C62_3 O17_3 1_555 1_555
H45_3 C62_3 1_555 1_555
H46_3 C62_3 1_555 1_555
O19_5 Cu3_3 1_555 1_555
O20_5 Cu4_3 1_555 1_555
O22_2 C76_3 1_555 1_555
O23_3 C83_5 1_555 1_555
O24_3 C83_5 1_555 1_555
C63_5 O19_5 1_555 1_555
C64_5 C63_5 1_555 1_555
C65_5 C64_5 1_555 1_555
H47_5 C65_5 1_555 1_555
C66_5 C65_5 1_555 1_555
H48_5 C66_5 1_555 1_555
C67_3 C66_5 1_555 1_555
C68_3 C67_3 1_555 1_555
H49_3 C68_3 1_555 1_555
C69_3 C64_5 1_555 1_555
H50_3 C69_3 1_555 1_555
C70_3 C67_3 1_555 1_555
C71_5 C70_3 1_555 1_555
H51_5 C71_5 1_555 1_555
C72_5 C71_5 1_555 1_555
C73_3 C72_5 1_555 1_555
H52_3 C73_3 1_555 1_555
C74_3 C73_3 1_555 1_555
C75_3 C70_3 1_555 1_555
H53_3 C75_3 1_555 1_555
C76_3 C77_3 1_555 1_555
C77_3 C78_3 1_555 1_555
C78_3 H54_3 1_555 1_555
C79_3 C78_3 1_555 1_555
H55_3 C79_3 1_555 1_555
C80_3 C74_3 1_555 1_555
C81_3 C80_3 1_555 1_555
H56_3 C81_3 1_555 1_555
C82_3 C77_3 1_555 1_555
H57_3 C82_3 1_555 1_555
C83_5 C84_5 1_555 1_555
C84_5 C85_5 1_555 1_555
C85_5 H58_5 1_555 1_555
C86_5 C85_5 1_555 1_555
H59_5 C86_5 1_555 1_555
C87_5 C72_5 1_555 1_555
C88_5 C87_5 1_555 1_555
H60_5 C88_5 1_555 1_555
C89_5 C84_5 1_555 1_555
H61_5 C89_5 1_555 1_555
Cu5_3 O14_5 1_555 1_555
Cu6_3 O15_5 1_555 1_555
O25_5 Cu5_3 1_555 1_555
O26_3 Cu6_3 1_555 1_555
O27_3 C91_3 1_555 1_555
C90_3 O26_3 1_555 1_555
H62_3 C90_3 1_555 1_555
H63_3 C90_3 1_555 1_555
C91_3 C90_3 1_555 1_555
H64_3 C91_3 1_555 1_555
H65_3 C91_3 1_555 1_555
C92_3 O27_3 1_555 1_555
H66_3 C92_3 1_555 1_555
H67_3 C92_3 1_555 1_555
C93_3 O26_3 1_555 1_555
H68_3 C93_3 1_555 1_555
H69_3 C93_3 1_555 1_555
O29_5 Cu6_3 1_555 1_555
Cu12_2 O23_3 1_555 1_555
Cu18_2 O24_3 1_555 1_555
O34_3 Cu5_3 1_555 1_555
O35_3 Cu1_3 1_555 1_555
O36_3 Cu3_3 1_555 1_555
O37_2 Cu6_3 1_555 1_555
O38_2 Cu2_3 1_555 1_555
O39_2 Cu4_3 1_555 1_555
O40_3 Cu3_3 1_555 1_555
O41_3 Cu5_3 1_555 1_555
O42_3 Cu1_3 1_555 1_555
O43_3 Cu4_3 1_555 1_555
O44_3 Cu6_3 1_555 1_555
O45_3 Cu2_3 1_555 1_555
C3_3 C4_3 1_555 1_555
O5_5 C5_5 1_555 1_555
C10_5 C11_5 1_555 1_555
C45_5 C48_5 1_555 1_555
C46_5 C47_5 1_555 1_555
C54_5 C57_5 1_555 1_555
C55_5 C56_5 1_555 1_555
C57_5 C58_5 1_555 1_555
Cu3_3 Cu4_3 1_555 1_555
C61_3 C62_3 1_555 1_555
O20_5 C63_5 1_555 1_555
C68_3 C69_3 1_555 1_555
C74_3 C75_3 1_555 1_555
C79_3 C80_3 1_555 1_555
C81_3 C82_3 1_555 1_555
C86_5 C87_5 1_555 1_555
C88_5 C89_5 1_555 1_555
Cu5_3 Cu6_3 1_555 1_555
C92_3 C93_3 1_555 1_555
Cu12_2 Cu18_2 1_555 1_555
O25_5 H85 1_555 1_555
O1_5 H87 1_555 1_555
O9_2 C27_3 1_555 1_555
O10_3 C34_5 1_555 1_555
O11_3 C34_5 1_555 1_555
C14_5 O6_5 1_555 1_555
C15_5 C14_5 1_555 1_555
C16_5 C15_5 1_555 1_555
H14_5 C16_5 1_555 1_555
C17_5 C16_5 1_555 1_555
H15_5 C17_5 1_555 1_555
C18_3 C17_5 1_555 1_555
C19_3 C18_3 1_555 1_555
H16_3 C19_3 1_555 1_555
C20_3 C15_5 1_555 1_555
H17_3 C20_3 1_555 1_555
C21_3 C18_3 1_555 1_555
C22_5 C21_3 1_555 1_555
H18_5 C22_5 1_555 1_555
C23_5 C22_5 1_555 1_555
C24_3 C23_5 1_555 1_555
H19_3 C24_3 1_555 1_555
C25_3 C24_3 1_555 1_555
C26_3 C21_3 1_555 1_555
H20_3 C26_3 1_555 1_555
C27_3 C28_3 1_555 1_555
C28_3 C29_3 1_555 1_555
C29_3 H21_3 1_555 1_555
C30_3 C29_3 1_555 1_555
H22_3 C30_3 1_555 1_555
C31_3 C25_3 1_555 1_555
C32_3 C31_3 1_555 1_555
H23_3 C32_3 1_555 1_555
C33_3 C28_3 1_555 1_555
H24_3 C33_3 1_555 1_555
C34_5 C35_5 1_555 1_555
C35_5 C36_5 1_555 1_555
C36_5 H25_5 1_555 1_555
C37_5 C36_5 1_555 1_555
H26_5 C37_5 1_555 1_555
C38_5 C23_5 1_555 1_555
C39_5 C38_5 1_555 1_555
H27_5 C39_5 1_555 1_555
C40_5 C35_5 1_555 1_555
H28_5 C40_5 1_555 1_555
Cu11_2 O10_3 1_555 1_555
Cu17_2 O11_3 1_555 1_555
C19_3 C20_3 1_555 1_555
C25_3 C26_3 1_555 1_555
C30_3 C31_3 1_555 1_555
C32_3 C33_3 1_555 1_555
C37_5 C38_5 1_555 1_555
C39_5 C40_5 1_555 1_555
Cu11_2 Cu17_2 1_555 1_555
O1_5 H85_2 1_555 1_555
O25_5 H87_2 1_555 1_555
O27_4 C91_4 1_555 1_555
C90_4 O26_4 1_555 1_555
H62_4 C90_4 1_555 1_555
H63_4 C90_4 1_555 1_555
C91_4 C90_4 1_555 1_555
H64_4 C91_4 1_555 1_555
H65_4 C91_4 1_555 1_555
C92_4 O27_4 1_555 1_555
H66_4 C92_4 1_555 1_555
H67_4 C92_4 1_555 1_555
C93_4 O26_4 1_555 1_555
H68_4 C93_4 1_555 1_555
H69_4 C93_4 1_555 1_555
O30_3 C107_4 1_555 1_555
O31_3 C107_4 1_555 1_555
C99_4 C98_4 1_555 1_555
H72_4 C99_4 1_555 1_555
H73_4 C100_4 1_555 1_555
C101_4 C98_4 1_555 1_555
H75_4 C104_4 1_555 1_555
C105_4 C104_4 1_555 1_555
C106_4 C101_4 1_555 1_555
H76_4 C106_4 1_555 1_555
C107_4 C108_4 1_555 1_555
C108_4 C109_4 1_555 1_555
C109_4 H77_4 1_555 1_555
C110_4 C109_4 1_555 1_555
H78_4 C110_4 1_555 1_555
C111_4 C105_4 1_555 1_555
C112_4 C111_4 1_555 1_555
H79_4 C112_4 1_555 1_555
C113_4 C108_4 1_555 1_555
H80_4 C113_4 1_555 1_555
Cu11_2 O30_3 1_555 1_555
Cu17_2 O31_3 1_555 1_555
C92_4 C93_4 1_555 1_555
C99_4 C100_4 1_555 1_555
C105_4 C106_4 1_555 1_555
C110_4 C111_4 1_555 1_555
C112_4 C113_4 1_555 1_555
C68_4 C67_4 1_555 1_555
H49_4 C68_4 1_555 1_555
H50_4 C69_4 1_555 1_555
C70_4 C67_4 1_555 1_555
H52_4 C73_4 1_555 1_555
C74_4 C73_4 1_555 1_555
C75_4 C70_4 1_555 1_555
H53_4 C75_4 1_555 1_555
C78_4 H54_4 1_555 1_555
C79_4 C78_4 1_555 1_555
H55_4 C79_4 1_555 1_555
C80_4 C74_4 1_555 1_555
C81_4 C80_4 1_555 1_555
C68_4 C69_4 1_555 1_555
C74_4 C75_4 1_555 1_555
C79_4 C80_4 1_555 1_555
O2_4 C1_4 1_555 1_555
O3_4 C2_4 1_555 1_555
C1_4 H1_4 1_555 1_555
H2_4 C1_4 1_555 1_555
C2_4 C1_4 1_555 1_555
H3_4 C2_4 1_555 1_555
H4_4 C2_4 1_555 1_555
C3_4 O3_4 1_555 1_555
H5_4 C3_4 1_555 1_555
H6_4 C3_4 1_555 1_555
C4_4 O2_4 1_555 1_555
H7_4 C4_4 1_555 1_555
H8_4 C4_4 1_555 1_555
O8_3 C27_4 1_555 1_555
O9_3 C27_4 1_555 1_555
C27_4 C28_4 1_555 1_555
C33_4 C28_4 1_555 1_555
H24_4 C33_4 1_555 1_555
Cu12_2 O8_3 1_555 1_555
Cu18_2 O9_3 1_555 1_555
C3_4 C4_4 1_555 1_555
C19_4 C18_4 1_555 1_555
H16_4 C19_4 1_555 1_555
H17_4 C20_4 1_555 1_555
C21_4 C18_4 1_555 1_555
H19_4 C24_4 1_555 1_555
C25_4 C24_4 1_555 1_555
C26_4 C21_4 1_555 1_555
H20_4 C26_4 1_555 1_555
C29_4 H21_4 1_555 1_555
C30_4 C29_4 1_555 1_555
H22_4 C30_4 1_555 1_555
C31_4 C25_4 1_555 1_555
C32_4 C31_4 1_555 1_555
O18_4 C60_4 1_555 1_555
C59_4 O17_4 1_555 1_555
H39_4 C59_4 1_555 1_555
H40_4 C59_4 1_555 1_555
C60_4 C59_4 1_555 1_555
H41_4 C60_4 1_555 1_555
H42_4 C60_4 1_555 1_555
C61_4 O18_4 1_555 1_555
H43_4 C61_4 1_555 1_555
H44_4 C61_4 1_555 1_555
C62_4 O17_4 1_555 1_555
H45_4 C62_4 1_555 1_555
H46_4 C62_4 1_555 1_555
O21_3 C76_4 1_555 1_555
O22_3 C76_4 1_555 1_555
C76_4 C77_4 1_555 1_555
C82_4 C77_4 1_555 1_555
H57_4 C82_4 1_555 1_555
Cu10_2 O21_3 1_555 1_555
Cu16_2 O22_3 1_555 1_555
C19_4 C20_4 1_555 1_555
C25_4 C26_4 1_555 1_555
C30_4 C31_4 1_555 1_555
C61_4 C62_4 1_555 1_555
O37_3 C27_5 1_555 1_555
O40_3 C34_6 1_555 1_555
O43_3 C34_6 1_555 1_555
C14_6 O6_6 1_555 1_555
C15_6 C14_6 1_555 1_555
C16_6 C15_6 1_555 1_555
H14_6 C16_6 1_555 1_555
C17_6 C16_6 1_555 1_555
H15_6 C17_6 1_555 1_555
C18_5 C17_6 1_555 1_555
C19_5 C18_5 1_555 1_555
H16_5 C19_5 1_555 1_555
C20_5 C15_6 1_555 1_555
H17_5 C20_5 1_555 1_555
C21_5 C18_5 1_555 1_555
C22_6 C21_5 1_555 1_555
H18_6 C22_6 1_555 1_555
C23_6 C22_6 1_555 1_555
C24_5 C23_6 1_555 1_555
H19_5 C24_5 1_555 1_555
C25_5 C24_5 1_555 1_555
C26_5 C21_5 1_555 1_555
H20_5 C26_5 1_555 1_555
C27_5 C28_5 1_555 1_555
C28_5 C29_5 1_555 1_555
C29_5 H21_5 1_555 1_555
C30_5 C29_5 1_555 1_555
H22_5 C30_5 1_555 1_555
C31_5 C25_5 1_555 1_555
C32_5 C31_5 1_555 1_555
H23_5 C32_5 1_555 1_555
C33_5 C28_5 1_555 1_555
H24_5 C33_5 1_555 1_555
C34_6 C35_6 1_555 1_555
C35_6 C36_6 1_555 1_555
C36_6 H25_6 1_555 1_555
C37_6 C36_6 1_555 1_555
H26_6 C37_6 1_555 1_555
C38_6 C23_6 1_555 1_555
C39_6 C38_6 1_555 1_555
H27_6 C39_6 1_555 1_555
C40_6 C35_6 1_555 1_555
H28_6 C40_6 1_555 1_555
C19_5 C20_5 1_555 1_555
C25_5 C26_5 1_555 1_555
C30_5 C31_5 1_555 1_555
C32_5 C33_5 1_555 1_555
C37_6 C38_6 1_555 1_555
C39_6 C40_6 1_555 1_555
Cu16_2 O2_5 1_555 1_555
O1_6 Cu10_2 1_555 1_555
O2_5 C1_5 1_555 1_555
O3_5 C2_5 1_555 1_555
C1_5 H1_5 1_555 1_555
H2_5 C1_5 1_555 1_555
C2_5 C1_5 1_555 1_555
H3_5 C2_5 1_555 1_555
H4_5 C2_5 1_555 1_555
C3_5 O3_5 1_555 1_555
H5_5 C3_5 1_555 1_555
H6_5 C3_5 1_555 1_555
C4_5 O2_5 1_555 1_555
H7_5 C4_5 1_555 1_555
H8_5 C4_5 1_555 1_555
O4_6 Cu10_2 1_555 1_555
O5_6 Cu16_2 1_555 1_555
C5_6 O4_6 1_555 1_555
C6_6 C5_6 1_555 1_555
C7_6 C6_6 1_555 1_555
H9_6 C7_6 1_555 1_555
C8_6 C7_6 1_555 1_555
H10_6 C8_6 1_555 1_555
C9_6 C8_6 1_555 1_555
C10_6 C9_6 1_555 1_555
H11_6 C10_6 1_555 1_555
C11_6 C6_6 1_555 1_555
H12_6 C11_6 1_555 1_555
C12_6 C9_6 1_555 1_555
C13_6 C12_6 1_555 1_555
H13_6 C13_6 1_555 1_555
O7_6 Cu16_2 1_555 1_555
O12_6 C41_6 1_555 1_555
O13_6 C41_6 1_555 1_555
C41_6 C42_6 1_555 1_555
C42_6 C43_6 1_555 1_555
C43_6 H29_6 1_555 1_555
C44_6 C43_6 1_555 1_555
H30_6 C44_6 1_555 1_555
C45_6 C44_6 1_555 1_555
C46_6 C45_6 1_555 1_555
H31_6 C46_6 1_555 1_555
C47_6 C42_6 1_555 1_555
H32_6 C47_6 1_555 1_555
C48_6 C13_6 1_555 1_555
C49_6 C48_6 1_555 1_555
H33_6 C49_6 1_555 1_555
O14_6 C50_6 1_555 1_555
O15_6 C50_6 1_555 1_555
C50_6 C51_6 1_555 1_555
C51_6 C52_6 1_555 1_555
C52_6 H34_6 1_555 1_555
C53_6 C52_6 1_555 1_555
H35_6 C53_6 1_555 1_555
C54_6 C53_6 1_555 1_555
C55_6 C54_6 1_555 1_555
H36_6 C55_6 1_555 1_555
C56_6 C51_6 1_555 1_555
H37_6 C56_6 1_555 1_555
C57_6 C49_6 1_555 1_555
C58_6 C12_6 1_555 1_555
H38_6 C58_6 1_555 1_555
Cu11_2 O12_6 1_555 1_555
Cu17_2 O13_6 1_555 1_555
O16_6 Cu11_2 1_555 1_555
O17_5 Cu17_2 1_555 1_555
O18_5 C60_5 1_555 1_555
C59_5 O17_5 1_555 1_555
H39_5 C59_5 1_555 1_555
H40_5 C59_5 1_555 1_555
C60_5 C59_5 1_555 1_555
H41_5 C60_5 1_555 1_555
H42_5 C60_5 1_555 1_555
C61_5 O18_5 1_555 1_555
H43_5 C61_5 1_555 1_555
H44_5 C61_5 1_555 1_555
C62_5 O17_5 1_555 1_555
H45_5 C62_5 1_555 1_555
H46_5 C62_5 1_555 1_555
O19_6 Cu11_2 1_555 1_555
O20_6 Cu17_2 1_555 1_555
O38_3 C76_5 1_555 1_555
O41_3 C83_6 1_555 1_555
O44_3 C83_6 1_555 1_555
C63_6 O19_6 1_555 1_555
C64_6 C63_6 1_555 1_555
C65_6 C64_6 1_555 1_555
H47_6 C65_6 1_555 1_555
C66_6 C65_6 1_555 1_555
H48_6 C66_6 1_555 1_555
C67_5 C66_6 1_555 1_555
C68_5 C67_5 1_555 1_555
H49_5 C68_5 1_555 1_555
C69_5 C64_6 1_555 1_555
H50_5 C69_5 1_555 1_555
C70_5 C67_5 1_555 1_555
C71_6 C70_5 1_555 1_555
H51_6 C71_6 1_555 1_555
C72_6 C71_6 1_555 1_555
C73_5 C72_6 1_555 1_555
H52_5 C73_5 1_555 1_555
C74_5 C73_5 1_555 1_555
C75_5 C70_5 1_555 1_555
H53_5 C75_5 1_555 1_555
C76_5 C77_5 1_555 1_555
C77_5 C78_5 1_555 1_555
C78_5 H54_5 1_555 1_555
C79_5 C78_5 1_555 1_555
H55_5 C79_5 1_555 1_555
C80_5 C74_5 1_555 1_555
C81_5 C80_5 1_555 1_555
H56_5 C81_5 1_555 1_555
C82_5 C77_5 1_555 1_555
H57_5 C82_5 1_555 1_555
C83_6 C84_6 1_555 1_555
C84_6 C85_6 1_555 1_555
C85_6 H58_6 1_555 1_555
C86_6 C85_6 1_555 1_555
H59_6 C86_6 1_555 1_555
C87_6 C72_6 1_555 1_555
C88_6 C87_6 1_555 1_555
H60_6 C88_6 1_555 1_555
C89_6 C84_6 1_555 1_555
H61_6 C89_6 1_555 1_555
Cu12_2 O14_6 1_555 1_555
Cu18_2 O15_6 1_555 1_555
O25_6 Cu12_2 1_555 1_555
O26_5 Cu18_2 1_555 1_555
O27_5 C91_5 1_555 1_555
C90_5 O26_5 1_555 1_555
H62_5 C90_5 1_555 1_555
H63_5 C90_5 1_555 1_555
C91_5 C90_5 1_555 1_555
H64_5 C91_5 1_555 1_555
H65_5 C91_5 1_555 1_555
C92_5 O27_5 1_555 1_555
H66_5 C92_5 1_555 1_555
H67_5 C92_5 1_555 1_555
C93_5 O26_5 1_555 1_555
H68_5 C93_5 1_555 1_555
H69_5 C93_5 1_555 1_555
O29_6 Cu18_2 1_555 1_555
C3_5 C4_5 1_555 1_555
O5_6 C5_6 1_555 1_555
C10_6 C11_6 1_555 1_555
C45_6 C48_6 1_555 1_555
C46_6 C47_6 1_555 1_555
C54_6 C57_6 1_555 1_555
C55_6 C56_6 1_555 1_555
C57_6 C58_6 1_555 1_555
C61_5 C62_5 1_555 1_555
O20_6 C63_6 1_555 1_555
C68_5 C69_5 1_555 1_555
C74_5 C75_5 1_555 1_555
C79_5 C80_5 1_555 1_555
C81_5 C82_5 1_555 1_555
C86_6 C87_6 1_555 1_555
C88_6 C89_6 1_555 1_555
C92_5 C93_5 1_555 1_555
O25_6 H85_3 1_555 1_555
O1_6 H87_3 1_555 1_555
O39_3 C107_5 1_555 1_555
O42_3 C114_6 1_555 1_555
O45_3 C114_6 1_555 1_555
C94_6 O28_6 1_555 1_555
C95_6 C94_6 1_555 1_555
C96_6 C95_6 1_555 1_555
H70_6 C96_6 1_555 1_555
C97_6 C96_6 1_555 1_555
H71_6 C97_6 1_555 1_555
C98_5 C97_6 1_555 1_555
C99_5 C98_5 1_555 1_555
H72_5 C99_5 1_555 1_555
C100_5 C95_6 1_555 1_555
H73_5 C100_5 1_555 1_555
C101_5 C98_5 1_555 1_555
C102_6 C101_5 1_555 1_555
H74_6 C102_6 1_555 1_555
C103_6 C102_6 1_555 1_555
C104_5 C103_6 1_555 1_555
H75_5 C104_5 1_555 1_555
C105_5 C104_5 1_555 1_555
C106_5 C101_5 1_555 1_555
H76_5 C106_5 1_555 1_555
C107_5 C108_5 1_555 1_555
C108_5 C109_5 1_555 1_555
C109_5 H77_5 1_555 1_555
C110_5 C109_5 1_555 1_555
H78_5 C110_5 1_555 1_555
C111_5 C105_5 1_555 1_555
C112_5 C111_5 1_555 1_555
H79_5 C112_5 1_555 1_555
C113_5 C108_5 1_555 1_555
H80_5 C113_5 1_555 1_555
C114_6 C115_6 1_555 1_555
C115_6 C116_6 1_555 1_555
C116_6 H81_6 1_555 1_555
C117_6 C116_6 1_555 1_555
H82_6 C117_6 1_555 1_555
C118_6 C103_6 1_555 1_555
C119_6 C118_6 1_555 1_555
H83_6 C119_6 1_555 1_555
C120_6 C115_6 1_555 1_555
H84_6 C120_6 1_555 1_555
C99_5 C100_5 1_555 1_555
C105_5 C106_5 1_555 1_555
C110_5 C111_5 1_555 1_555
C112_5 C113_5 1_555 1_555
C117_6 C118_6 1_555 1_555
C119_6 C120_6 1_555 1_555
O1_6 H85_4 1_555 1_555
O25_6 H87_4 1_555 1_555
C19_6 C18_6 1_555 1_555
H16_6 C19_6 1_555 1_555
H17_6 C20_6 1_555 1_555
C21_6 C18_6 1_555 1_555
H19_6 C24_6 1_555 1_555
C25_6 C24_6 1_555 1_555
C26_6 C21_6 1_555 1_555
H20_6 C26_6 1_555 1_555
C29_6 H21_6 1_555 1_555
C30_6 C29_6 1_555 1_555
H22_6 C30_6 1_555 1_555
C31_6 C25_6 1_555 1_555
C32_6 C31_6 1_555 1_555
O18_6 C60_6 1_555 1_555
C59_6 O17_6 1_555 1_555
H39_6 C59_6 1_555 1_555
H40_6 C59_6 1_555 1_555
C60_6 C59_6 1_555 1_555
H41_6 C60_6 1_555 1_555
H42_6 C60_6 1_555 1_555
C61_6 O18_6 1_555 1_555
H43_6 C61_6 1_555 1_555
H44_6 C61_6 1_555 1_555
C62_6 O17_6 1_555 1_555
H45_6 C62_6 1_555 1_555
H46_6 C62_6 1_555 1_555
O35_3 C76_6 1_555 1_555
O38_2 C76_6 1_555 1_555
C76_6 C77_6 1_555 1_555
C82_6 C77_6 1_555 1_555
H57_6 C82_6 1_555 1_555
C19_6 C20_6 1_555 1_555
C25_6 C26_6 1_555 1_555
C30_6 C31_6 1_555 1_555
C61_6 C62_6 1_555 1_555
O2_6 C1_6 1_555 1_555
O3_6 C2_6 1_555 1_555
C1_6 H1_6 1_555 1_555
H2_6 C1_6 1_555 1_555
C2_6 C1_6 1_555 1_555
H3_6 C2_6 1_555 1_555
H4_6 C2_6 1_555 1_555
C3_6 O3_6 1_555 1_555
H5_6 C3_6 1_555 1_555
H6_6 C3_6 1_555 1_555
C4_6 O2_6 1_555 1_555
H7_6 C4_6 1_555 1_555
H8_6 C4_6 1_555 1_555
O34_3 C27_6 1_555 1_555
O37_2 C27_6 1_555 1_555
C27_6 C28_6 1_555 1_555
C33_6 C28_6 1_555 1_555
H24_6 C33_6 1_555 1_555
C3_6 C4_6 1_555 1_555
C68_6 C67_6 1_555 1_555
H49_6 C68_6 1_555 1_555
H50_6 C69_6 1_555 1_555
C70_6 C67_6 1_555 1_555
H52_6 C73_6 1_555 1_555
C74_6 C73_6 1_555 1_555
C75_6 C70_6 1_555 1_555
H53_6 C75_6 1_555 1_555
C78_6 H54_6 1_555 1_555
C79_6 C78_6 1_555 1_555
H55_6 C79_6 1_555 1_555
C80_6 C74_6 1_555 1_555
C81_6 C80_6 1_555 1_555
C68_6 C69_6 1_555 1_555
C74_6 C75_6 1_555 1_555
C79_6 C80_6 1_555 1_555
O27_6 C91_6 1_555 1_555
C90_6 O26_6 1_555 1_555
H62_6 C90_6 1_555 1_555
H63_6 C90_6 1_555 1_555
C91_6 C90_6 1_555 1_555
H64_6 C91_6 1_555 1_555
H65_6 C91_6 1_555 1_555
C92_6 O27_6 1_555 1_555
H66_6 C92_6 1_555 1_555
H67_6 C92_6 1_555 1_555
C93_6 O26_6 1_555 1_555
H68_6 C93_6 1_555 1_555
H69_6 C93_6 1_555 1_555
O36_3 C107_6 1_555 1_555
O39_2 C107_6 1_555 1_555
C99_6 C98_6 1_555 1_555
H72_6 C99_6 1_555 1_555
H73_6 C100_6 1_555 1_555
C101_6 C98_6 1_555 1_555
H75_6 C104_6 1_555 1_555
C105_6 C104_6 1_555 1_555
C106_6 C101_6 1_555 1_555
H76_6 C106_6 1_555 1_555
C107_6 C108_6 1_555 1_555
C108_6 C109_6 1_555 1_555
C109_6 H77_6 1_555 1_555
C110_6 C109_6 1_555 1_555
H78_6 C110_6 1_555 1_555
C111_6 C105_6 1_555 1_555
C112_6 C111_6 1_555 1_555
H79_6 C112_6 1_555 1_555
C113_6 C108_6 1_555 1_555
H80_6 C113_6 1_555 1_555
C92_6 C93_6 1_555 1_555
C99_6 C100_6 1_555 1_555
C105_6 C106_6 1_555 1_555
C110_6 C111_6 1_555 1_555
C112_6 C113_6 1_555 1_555

#END
