
###############################################################################
#
# This file contains modified crystal structure data generated from the
# MOF subset of the Cambridge Structural Database (CSD) v543 
# hosted by the Cambridge Crystallographic Data Centre (CCDC).
#
# This work is licensed under the Creative Commons
# Attribution-NonCommercial-ShareAlike 4.0 International License.
# To view a copy of this license, visit
# http://creativecommons.org/licenses/by-nc-sa/4.0/
# or send a letter to
# Creative Commons, PO Box 1866, Mountain View, CA 94042, USA.
#
# CIF created using the CSD Python API on 29 September 2022
# The structure has been converted into the P1 space group
# The structure has a 3D framework
# The original CSD entry LIHFAK is in the orthorhombic crystal system
# The framework has been calculated to contain at least 10.0% void space
# The void calculation uses a probe of radius 1.32A, grid spacing 0.4
#
###############################################################################

data_LIHFAK
_chemical_formula_moiety         '(C224 H140 O58 Zn20)n'
_symmetry_cell_setting           triclinic
_symmetry_space_group_name_H-M   'P 1'
_symmetry_Int_Tables_number      1
_space_group_name_Hall           'P 1'
loop_
_symmetry_equiv_pos_site_id
_symmetry_equiv_pos_as_xyz
1 x,y,z
_cell_length_a                   30.317(12)
_cell_length_b                   19.411(8)
_cell_length_c                   24.161(9)
_cell_angle_alpha                90
_cell_angle_beta                 90
_cell_angle_gamma                90
_cell_volume                     14218.3
loop_
_atom_site_label
_atom_site_type_symbol
_atom_site_fract_x
_atom_site_fract_y
_atom_site_fract_z
Zn1 Zn 0.1076(9) 0.3038(12) 0.0659(12)
Zn2 Zn 0.0574(12) 0.1865(18) 0.0000
Zn3 Zn 0.1603(12) 0.1882(19) 0.0000
O1 O 0.108(7) 0.248(9) 0.0000
O2 O 0.056(4) 0.286(8) 0.111(6)
O3 O 0.022(5) 0.204(7) 0.063(6)
O4 O 0.071(7) 0.090(8) 0.0000
O5 O 0.147(7) 0.093(8) 0.0000
C1 C 0.023(5) 0.245(12) 0.106(8)
H1 H 0.0063 0.3346 0.1837
C9 C 0.110(11) 0.057(6) 0.0000
O13 O 0.195(5) 0.207(8) 0.062(6)
O15 O 0.159(4) 0.291(8) 0.110(7)
O18 O 0.107(8) 0.397(6) 0.043(3)
Zn2_2 Zn 0.0574(12) 0.1865(18) 1.0000
Zn3_2 Zn 0.1603(12) 0.1882(19) 1.0000
O1_2 O 0.108(7) 0.248(9) 1.0000
O4_2 O 0.071(7) 0.090(8) 1.0000
O5_2 O 0.147(7) 0.093(8) 1.0000
C9_2 C 0.110(11) 0.057(6) 1.0000
Zn4 Zn 0.1076(9) 0.3038(12) 0.9341(12)
O9 O 0.056(4) 0.286(8) 0.889(6)
O10 O 0.022(5) 0.204(7) 0.937(6)
O12 O 0.195(5) 0.207(8) 0.938(6)
O16 O 0.159(4) 0.291(8) 0.890(7)
O19 O 0.107(8) 0.397(6) 0.957(3)
C33 C 0.023(5) 0.245(12) 0.894(8)
H21 H 0.0063 0.3346 0.8163
C10 C 0.110(7) 0.984(6) 0.0000
C11 C 0.070(6) 0.947(8) 0.0000
H6 H 0.0431 0.9708 0.0000
C12 C 0.071(6) 0.874(8) 0.0000
H7 H 0.0444 0.8490 0.0000
C13 C 0.112(6) 0.839(6) 0.0000
C14 C 0.152(5) 0.876(8) 0.0000
H8 H 0.1790 0.8523 0.0000
C15 C 0.151(6) 0.949(8) 0.0000
H9 H 0.1778 0.9741 0.0000
C16 C 0.113(9) 0.766(6) 0.0000
H10 H 0.1409 0.7446 0.0000
C25 C 0.105(12) 0.435(7) 0.0000
C26 C 0.099(9) 0.506(6) 0.0000
C27 C 0.135(7) 0.552(9) 0.0000
H16 H 0.1641 0.5339 0.0000
C28 C 0.129(6) 0.624(9) 0.0000
H17 H 0.1532 0.6540 0.0000
C29 C 0.085(6) 0.650(6) 0.0000
C30 C 0.049(6) 0.606(8) 0.0000
H18 H 0.0201 0.6245 0.0000
C31 C 0.055(8) 0.534(8) 0.0000
H19 H 0.0301 0.5038 0.0000
C32 C 0.079(8) 0.723(6) 0.0000
H20 H 0.0497 0.7416 0.0000
C10_2 C 0.110(7) 0.984(6) 1.0000
C11_2 C 0.070(6) 0.947(8) 1.0000
H6_2 H 0.0431 0.9708 1.0000
C12_2 C 0.071(6) 0.874(8) 1.0000
H7_2 H 0.0444 0.8490 1.0000
C13_2 C 0.112(6) 0.839(6) 1.0000
C14_2 C 0.152(5) 0.876(8) 1.0000
H8_2 H 0.1790 0.8523 1.0000
C15_2 C 0.151(6) 0.949(8) 1.0000
H9_2 H 0.1778 0.9741 1.0000
C16_2 C 0.113(9) 0.766(6) 1.0000
H10_2 H 0.1409 0.7446 1.0000
C25_2 C 0.105(12) 0.435(7) 1.0000
C26_2 C 0.099(9) 0.506(6) 1.0000
C27_2 C 0.135(7) 0.552(9) 1.0000
H16_2 H 0.1641 0.5339 1.0000
C28_2 C 0.129(6) 0.624(9) 1.0000
H17_2 H 0.1532 0.6540 1.0000
C29_2 C 0.085(6) 0.650(6) 1.0000
C30_2 C 0.049(6) 0.606(8) 1.0000
H18_2 H 0.0201 0.6245 1.0000
C31_2 C 0.055(8) 0.534(8) 1.0000
H19_2 H 0.0301 0.5038 1.0000
C32_2 C 0.079(8) 0.723(6) 1.0000
H20_2 H 0.0497 0.7416 1.0000
O6 O 0.695(5) 0.293(8) 0.438(6)
O7 O 0.659(4) 0.209(8) 0.390(7)
C2 C 0.985(4) 0.250(8) 0.142(6)
C3 C 0.983(4) 0.302(8) 0.181(7)
C4 C 0.946(4) 0.308(7) 0.215(7)
H2 H 0.9450 0.3434 0.2422
C5 C 0.912(3) 0.260(7) 0.211(6)
C6 C 0.914(4) 0.208(8) 0.172(7)
H3 H 0.8908 0.1757 0.1690
C7 C 0.951(5) 0.203(8) 0.137(7)
H4 H 0.9520 0.1669 0.1105
C8 C 0.874(5) 0.266(10) 0.247(8)
H5 H 0.8756 0.3026 0.2731
C17 C 0.693(5) 0.251(11) 0.395(8)
C18 C 0.730(4) 0.245(8) 0.358(6)
C19 C 0.765(5) 0.290(8) 0.364(6)
H11 H 0.7651 0.3247 0.3914
C20 C 0.801(4) 0.284(7) 0.328(7)
H12 H 0.8254 0.3152 0.3313
C21 C 0.801(3) 0.234(7) 0.287(6)
C22 C 0.766(4) 0.189(7) 0.282(7)
H13 H 0.7661 0.1545 0.2542
C23 C 0.730(4) 0.195(8) 0.318(7)
H14 H 0.7059 0.1640 0.3143
C24 C 0.839(5) 0.228(10) 0.250(8)
H15 H 0.8368 0.1916 0.2239
Zn5 Zn 0.6076(9) 0.1962(12) 0.4341(12)
Zn9 Zn 0.6603(12) 0.3118(19) 0.5000
Zn8 Zn 0.6076(9) 0.1962(12) 0.5659(12)
O11 O 0.695(5) 0.293(8) 0.562(6)
O14 O 0.659(4) 0.209(8) 0.610(7)
C34 C 0.985(4) 0.250(8) 0.858(6)
C35 C 0.983(4) 0.302(8) 0.819(7)
C36 C 0.946(4) 0.308(7) 0.785(7)
H22 H 0.9450 0.3434 0.7578
C37 C 0.912(3) 0.260(7) 0.789(6)
C38 C 0.914(4) 0.208(8) 0.828(7)
H23 H 0.8908 0.1757 0.8310
C39 C 0.951(5) 0.203(8) 0.863(7)
H24 H 0.9520 0.1669 0.8895
C40 C 0.874(5) 0.266(10) 0.753(8)
H25 H 0.8756 0.3026 0.7269
C41 C 0.693(5) 0.251(11) 0.605(8)
C42 C 0.730(4) 0.245(8) 0.642(6)
C43 C 0.765(5) 0.290(8) 0.636(6)
H26 H 0.7651 0.3247 0.6086
C44 C 0.801(4) 0.284(7) 0.672(7)
H27 H 0.8254 0.3152 0.6687
C45 C 0.801(3) 0.234(7) 0.713(6)
C46 C 0.766(4) 0.189(7) 0.718(7)
H28 H 0.7661 0.1545 0.7458
C47 C 0.730(4) 0.195(8) 0.682(7)
H29 H 0.7059 0.1640 0.6857
C48 C 0.839(5) 0.228(10) 0.750(8)
H30 H 0.8368 0.1916 0.7761
O8 O 0.607(8) 0.103(6) 0.457(3)
C25_3 C 0.605(12) 0.065(7) 0.5000
O17 O 0.607(8) 0.103(6) 0.543(3)
Zn2_3 Zn 0.5574(12) 0.3135(18) 0.5000
O1_3 O 0.608(7) 0.252(9) 0.5000
O2_2 O 0.556(4) 0.214(8) 0.389(6)
O3_2 O 0.522(5) 0.296(7) 0.437(6)
O4_3 O 0.571(7) 0.410(8) 0.5000
O5_3 O 0.647(7) 0.407(8) 0.5000
C1_2 C 0.523(5) 0.255(12) 0.394(8)
C2_2 C 0.485(4) 0.250(8) 0.358(6)
C3_2 C 0.483(4) 0.198(8) 0.319(7)
H1_2 H 0.5063 0.1654 0.3163
C4_2 C 0.446(4) 0.192(7) 0.285(7)
H2_2 H 0.4450 0.1566 0.2578
C5_2 C 0.412(3) 0.240(7) 0.289(6)
C6_2 C 0.414(4) 0.292(8) 0.328(7)
H3_2 H 0.3908 0.3243 0.3310
C7_2 C 0.451(5) 0.297(8) 0.363(7)
H4_2 H 0.4520 0.3331 0.3895
C8_2 C 0.374(5) 0.234(10) 0.253(8)
H5_2 H 0.3756 0.1974 0.2269
C9_3 C 0.610(11) 0.443(6) 0.5000
C10_3 C 0.610(7) 0.516(6) 0.5000
C11_3 C 0.570(6) 0.553(8) 0.5000
H6_3 H 0.5431 0.5292 0.5000
C12_3 C 0.571(6) 0.626(8) 0.5000
H7_3 H 0.5444 0.6510 0.5000
C13_3 C 0.612(6) 0.661(6) 0.5000
C14_3 C 0.652(5) 0.624(8) 0.5000
H8_3 H 0.6790 0.6477 0.5000
C15_3 C 0.651(6) 0.551(8) 0.5000
H9_3 H 0.6778 0.5259 0.5000
C16_3 C 0.613(9) 0.734(6) 0.5000
H10_3 H 0.6409 0.7554 0.5000
C17_2 C 0.193(5) 0.249(11) 0.105(8)
C18_2 C 0.230(4) 0.255(8) 0.142(6)
C19_2 C 0.265(5) 0.210(8) 0.136(6)
H11_2 H 0.2651 0.1753 0.1086
C20_2 C 0.301(4) 0.216(7) 0.172(7)
H12_2 H 0.3254 0.1848 0.1687
C21_2 C 0.301(3) 0.266(7) 0.213(6)
C22_2 C 0.266(4) 0.311(7) 0.218(7)
H13_2 H 0.2661 0.3455 0.2458
C23_2 C 0.230(4) 0.305(8) 0.182(7)
H14_2 H 0.2059 0.3360 0.1857
C24_2 C 0.339(5) 0.272(10) 0.250(8)
H15_2 H 0.3368 0.3084 0.2761
C26_3 C 0.599(9) 0.994(6) 0.5000
C27_3 C 0.635(7) 0.948(9) 0.5000
H16_3 H 0.6641 0.9661 0.5000
C28_3 C 0.629(6) 0.876(9) 0.5000
H17_3 H 0.6532 0.8460 0.5000
C29_3 C 0.585(6) 0.850(6) 0.5000
C30_3 C 0.549(6) 0.894(8) 0.5000
H18_3 H 0.5201 0.8755 0.5000
C31_3 C 0.555(8) 0.966(8) 0.5000
H19_3 H 0.5301 0.9962 0.5000
C32_3 C 0.579(8) 0.777(6) 0.5000
H20_3 H 0.5497 0.7584 0.5000
O9_2 O 0.556(4) 0.214(8) 0.611(6)
O10_2 O 0.522(5) 0.296(7) 0.563(6)
C33_2 C 0.523(5) 0.255(12) 0.606(8)
C34_2 C 0.485(4) 0.250(8) 0.642(6)
C35_2 C 0.483(4) 0.198(8) 0.681(7)
H21_2 H 0.5063 0.1654 0.6837
C36_2 C 0.446(4) 0.192(7) 0.715(7)
H22_2 H 0.4450 0.1566 0.7422
C37_2 C 0.412(3) 0.240(7) 0.711(6)
C38_2 C 0.414(4) 0.292(8) 0.672(7)
H23_2 H 0.3908 0.3243 0.6690
C39_2 C 0.451(5) 0.297(8) 0.637(7)
H24_2 H 0.4520 0.3331 0.6105
C40_2 C 0.374(5) 0.234(10) 0.747(8)
H25_2 H 0.3756 0.1974 0.7731
C41_2 C 0.193(5) 0.249(11) 0.895(8)
C42_2 C 0.230(4) 0.255(8) 0.858(6)
C43_2 C 0.265(5) 0.210(8) 0.864(6)
H26_2 H 0.2651 0.1753 0.8914
C44_2 C 0.301(4) 0.216(7) 0.828(7)
H27_2 H 0.3254 0.1848 0.8313
C45_2 C 0.301(3) 0.266(7) 0.787(6)
C46_2 C 0.266(4) 0.311(7) 0.782(7)
H28_2 H 0.2661 0.3455 0.7542
C47_2 C 0.230(4) 0.305(8) 0.818(7)
H29_2 H 0.2059 0.3360 0.8143
C48_2 C 0.339(5) 0.272(10) 0.750(8)
H30_2 H 0.3368 0.3084 0.7239
O6_2 O 0.305(5) 0.707(8) 0.438(6)
O7_2 O 0.341(4) 0.791(8) 0.390(7)
C2_3 C 0.015(4) 0.750(8) 0.142(6)
C3_3 C 0.017(4) 0.698(8) 0.181(7)
C4_3 C 0.054(4) 0.692(7) 0.215(7)
H2_3 H 0.0550 0.6566 0.2422
C5_3 C 0.088(3) 0.740(7) 0.211(6)
C6_3 C 0.086(4) 0.792(8) 0.172(7)
H3_3 H 0.1092 0.8243 0.1690
C7_3 C 0.049(5) 0.797(8) 0.137(7)
H4_3 H 0.0480 0.8331 0.1105
C8_3 C 0.126(5) 0.734(10) 0.247(8)
H5_3 H 0.1244 0.6974 0.2731
C17_3 C 0.307(5) 0.749(11) 0.395(8)
C18_3 C 0.270(4) 0.755(8) 0.358(6)
C19_3 C 0.235(5) 0.710(8) 0.364(6)
H11_3 H 0.2349 0.6753 0.3914
C20_3 C 0.199(4) 0.716(7) 0.328(7)
H12_3 H 0.1746 0.6848 0.3313
C21_3 C 0.199(3) 0.766(7) 0.287(6)
C22_3 C 0.234(4) 0.811(7) 0.282(7)
H13_3 H 0.2339 0.8455 0.2542
C23_3 C 0.270(4) 0.805(8) 0.318(7)
H14_3 H 0.2941 0.8360 0.3143
C24_3 C 0.161(5) 0.772(10) 0.250(8)
H15_3 H 0.1632 0.8084 0.2239
Zn5_2 Zn 0.3924(9) 0.8038(12) 0.4341(12)
Zn9_2 Zn 0.3397(12) 0.6882(19) 0.5000
Zn8_2 Zn 0.3924(9) 0.8038(12) 0.5659(12)
O11_2 O 0.305(5) 0.707(8) 0.562(6)
O14_2 O 0.341(4) 0.791(8) 0.610(7)
C34_3 C 0.015(4) 0.750(8) 0.858(6)
C35_3 C 0.017(4) 0.698(8) 0.819(7)
C36_3 C 0.054(4) 0.692(7) 0.785(7)
H22_3 H 0.0550 0.6566 0.7578
C37_3 C 0.088(3) 0.740(7) 0.789(6)
C38_3 C 0.086(4) 0.792(8) 0.828(7)
H23_3 H 0.1092 0.8243 0.8310
C39_3 C 0.049(5) 0.797(8) 0.863(7)
H24_3 H 0.0480 0.8331 0.8895
C40_3 C 0.126(5) 0.734(10) 0.753(8)
H25_3 H 0.1244 0.6974 0.7269
C41_3 C 0.307(5) 0.749(11) 0.605(8)
C42_3 C 0.270(4) 0.755(8) 0.642(6)
C43_3 C 0.235(5) 0.710(8) 0.636(6)
H26_3 H 0.2349 0.6753 0.6086
C44_3 C 0.199(4) 0.716(7) 0.672(7)
H27_3 H 0.1746 0.6848 0.6687
C45_3 C 0.199(3) 0.766(7) 0.713(6)
C46_3 C 0.234(4) 0.811(7) 0.718(7)
H28_3 H 0.2339 0.8455 0.7458
C47_3 C 0.270(4) 0.805(8) 0.682(7)
H29_3 H 0.2941 0.8360 0.6857
C48_3 C 0.161(5) 0.772(10) 0.750(8)
H30_3 H 0.1632 0.8084 0.7761
O8_2 O 0.893(8) 0.603(6) 0.043(3)
C10_4 C 0.890(7) 0.016(6) 0.0000
C11_4 C 0.930(6) 0.053(8) 0.0000
H6_4 H 0.9569 0.0292 0.0000
C12_4 C 0.929(6) 0.126(8) 0.0000
H7_4 H 0.9556 0.1510 0.0000
C13_4 C 0.888(6) 0.161(6) 0.0000
C14_4 C 0.848(5) 0.124(8) 0.0000
H8_4 H 0.8210 0.1477 0.0000
C15_4 C 0.849(6) 0.051(8) 0.0000
H9_4 H 0.8222 0.0259 0.0000
C16_4 C 0.887(9) 0.234(6) 0.0000
H10_4 H 0.8591 0.2554 0.0000
C25_4 C 0.895(12) 0.565(7) 0.0000
C26_4 C 0.901(9) 0.494(6) 0.0000
C27_4 C 0.865(7) 0.448(9) 0.0000
H16_4 H 0.8359 0.4661 0.0000
C28_4 C 0.871(6) 0.376(9) 0.0000
H17_4 H 0.8468 0.3460 0.0000
C29_4 C 0.915(6) 0.350(6) 0.0000
C30_4 C 0.951(6) 0.394(8) 0.0000
H18_4 H 0.9799 0.3755 0.0000
C31_4 C 0.945(8) 0.466(8) 0.0000
H19_4 H 0.9699 0.4962 0.0000
C32_4 C 0.921(8) 0.277(6) 0.0000
H20_4 H 0.9503 0.2584 0.0000
Zn6 Zn 0.8924(9) 0.6962(12) 0.0659(12)
C10_5 C 0.890(7) 0.016(6) 1.0000
C11_5 C 0.930(6) 0.053(8) 1.0000
H6_5 H 0.9569 0.0292 1.0000
C12_5 C 0.929(6) 0.126(8) 1.0000
H7_5 H 0.9556 0.1510 1.0000
C13_5 C 0.888(6) 0.161(6) 1.0000
C14_5 C 0.848(5) 0.124(8) 1.0000
H8_5 H 0.8210 0.1477 1.0000
C15_5 C 0.849(6) 0.051(8) 1.0000
H9_5 H 0.8222 0.0259 1.0000
C16_5 C 0.887(9) 0.234(6) 1.0000
H10_5 H 0.8591 0.2554 1.0000
C25_5 C 0.895(12) 0.565(7) 1.0000
C26_5 C 0.901(9) 0.494(6) 1.0000
C27_5 C 0.865(7) 0.448(9) 1.0000
H16_5 H 0.8359 0.4661 1.0000
C28_5 C 0.871(6) 0.376(9) 1.0000
H17_5 H 0.8468 0.3460 1.0000
C29_5 C 0.915(6) 0.350(6) 1.0000
C30_5 C 0.951(6) 0.394(8) 1.0000
H18_5 H 0.9799 0.3755 1.0000
C31_5 C 0.945(8) 0.466(8) 1.0000
H19_5 H 0.9699 0.4962 1.0000
C32_5 C 0.921(8) 0.277(6) 1.0000
H20_5 H 0.9503 0.2584 1.0000
Zn7 Zn 0.8924(9) 0.6962(12) 0.9341(12)
O17_2 O 0.893(8) 0.603(6) 0.957(3)
Zn2_4 Zn 0.9426(12) 0.8135(18) 0.0000
Zn3_3 Zn 0.8397(12) 0.8118(19) 0.0000
O1_4 O 0.892(7) 0.752(9) 0.0000
O2_3 O 0.944(4) 0.714(8) 0.111(6)
O3_3 O 0.978(5) 0.796(7) 0.063(6)
O4_4 O 0.929(7) 0.910(8) 0.0000
O5_4 O 0.853(7) 0.907(8) 0.0000
C1_3 C 0.977(5) 0.755(12) 0.106(8)
H1_3 H 0.9937 0.6654 0.1837
C9_4 C 0.890(11) 0.943(6) 0.0000
O13_2 O 0.805(5) 0.793(8) 0.062(6)
O15_2 O 0.841(4) 0.709(8) 0.110(7)
Zn2_5 Zn 0.9426(12) 0.8135(18) 1.0000
Zn3_4 Zn 0.8397(12) 0.8118(19) 1.0000
O1_5 O 0.892(7) 0.752(9) 1.0000
O4_5 O 0.929(7) 0.910(8) 1.0000
O5_5 O 0.853(7) 0.907(8) 1.0000
C9_5 C 0.890(11) 0.943(6) 1.0000
O9_3 O 0.944(4) 0.714(8) 0.889(6)
O10_3 O 0.978(5) 0.796(7) 0.937(6)
O12_2 O 0.805(5) 0.793(8) 0.938(6)
O16_2 O 0.841(4) 0.709(8) 0.890(7)
C33_3 C 0.977(5) 0.755(12) 0.894(8)
H21_3 H 0.9937 0.6654 0.8163
Zn2_6 Zn 0.4426(12) 0.6865(18) 0.5000
O1_6 O 0.392(7) 0.748(9) 0.5000
O2_4 O 0.444(4) 0.786(8) 0.389(6)
O3_4 O 0.478(5) 0.704(7) 0.437(6)
O4_6 O 0.429(7) 0.590(8) 0.5000
O5_6 O 0.353(7) 0.593(8) 0.5000
C1_4 C 0.477(5) 0.745(12) 0.394(8)
C2_4 C 0.515(4) 0.750(8) 0.358(6)
C3_4 C 0.517(4) 0.802(8) 0.319(7)
H1_4 H 0.4937 0.8346 0.3163
C4_4 C 0.554(4) 0.808(7) 0.285(7)
H2_4 H 0.5550 0.8434 0.2578
C5_4 C 0.588(3) 0.760(7) 0.289(6)
C6_4 C 0.586(4) 0.708(8) 0.328(7)
H3_4 H 0.6092 0.6757 0.3310
C7_4 C 0.549(5) 0.703(8) 0.363(7)
H4_4 H 0.5480 0.6669 0.3895
C8_4 C 0.626(5) 0.766(10) 0.253(8)
H5_4 H 0.6244 0.8026 0.2269
C9_6 C 0.390(11) 0.557(6) 0.5000
C10_6 C 0.390(7) 0.484(6) 0.5000
C11_6 C 0.430(6) 0.447(8) 0.5000
H6_6 H 0.4569 0.4708 0.5000
C12_6 C 0.429(6) 0.374(8) 0.5000
H7_6 H 0.4556 0.3490 0.5000
C13_6 C 0.388(6) 0.339(6) 0.5000
C14_6 C 0.348(5) 0.376(8) 0.5000
H8_6 H 0.3210 0.3523 0.5000
C15_6 C 0.349(6) 0.449(8) 0.5000
H9_6 H 0.3222 0.4741 0.5000
C16_6 C 0.387(9) 0.266(6) 0.5000
H10_6 H 0.3591 0.2446 0.5000
C17_4 C 0.807(5) 0.751(11) 0.105(8)
C18_4 C 0.770(4) 0.745(8) 0.142(6)
C19_4 C 0.735(5) 0.790(8) 0.136(6)
H11_4 H 0.7349 0.8247 0.1086
C20_4 C 0.699(4) 0.784(7) 0.172(7)
H12_4 H 0.6746 0.8152 0.1687
C21_4 C 0.699(3) 0.734(7) 0.213(6)
C22_4 C 0.734(4) 0.689(7) 0.218(7)
H13_4 H 0.7339 0.6545 0.2458
C23_4 C 0.770(4) 0.695(8) 0.182(7)
H14_4 H 0.7941 0.6640 0.1857
C24_4 C 0.661(5) 0.728(10) 0.250(8)
H15_4 H 0.6632 0.6916 0.2761
C26_6 C 0.401(9) 0.006(6) 0.5000
C27_6 C 0.365(7) 0.052(9) 0.5000
H16_6 H 0.3359 0.0339 0.5000
C28_6 C 0.371(6) 0.124(9) 0.5000
H17_6 H 0.3468 0.1540 0.5000
C29_6 C 0.415(6) 0.150(6) 0.5000
C30_6 C 0.451(6) 0.106(8) 0.5000
H18_6 H 0.4799 0.1245 0.5000
C31_6 C 0.445(8) 0.034(8) 0.5000
H19_6 H 0.4699 0.0038 0.5000
C32_6 C 0.421(8) 0.223(6) 0.5000
H20_6 H 0.4503 0.2416 0.5000
O9_4 O 0.444(4) 0.786(8) 0.611(6)
O10_4 O 0.478(5) 0.704(7) 0.563(6)
O18_2 O 0.393(8) 0.897(6) 0.457(3)
O19_2 O 0.393(8) 0.897(6) 0.543(3)
C33_4 C 0.477(5) 0.745(12) 0.606(8)
C34_4 C 0.515(4) 0.750(8) 0.642(6)
C35_4 C 0.517(4) 0.802(8) 0.681(7)
H21_4 H 0.4937 0.8346 0.6837
C36_4 C 0.554(4) 0.808(7) 0.715(7)
H22_4 H 0.5550 0.8434 0.7422
C37_4 C 0.588(3) 0.760(7) 0.711(6)
C38_4 C 0.586(4) 0.708(8) 0.672(7)
H23_4 H 0.6092 0.6757 0.6690
C39_4 C 0.549(5) 0.703(8) 0.637(7)
H24_4 H 0.5480 0.6669 0.6105
C40_4 C 0.626(5) 0.766(10) 0.747(8)
H25_4 H 0.6244 0.8026 0.7731
C41_4 C 0.807(5) 0.751(11) 0.895(8)
C42_4 C 0.770(4) 0.745(8) 0.858(6)
C43_4 C 0.735(5) 0.790(8) 0.864(6)
H26_4 H 0.7349 0.8247 0.8914
C44_4 C 0.699(4) 0.784(7) 0.828(7)
H27_4 H 0.6746 0.8152 0.8313
C45_4 C 0.699(3) 0.734(7) 0.787(6)
C46_4 C 0.734(4) 0.689(7) 0.782(7)
H28_4 H 0.7339 0.6545 0.7542
C47_4 C 0.770(4) 0.695(8) 0.818(7)
H29_4 H 0.7941 0.6640 0.8143
C48_4 C 0.661(5) 0.728(10) 0.750(8)
H30_4 H 0.6632 0.6916 0.7239
C25_6 C 0.395(12) 0.935(7) 0.5000
loop_
_geom_bond_atom_site_label_1
_geom_bond_atom_site_label_2
_geom_bond_site_symmetry_1
_geom_bond_site_symmetry_2
Zn1 O1 1_555 1_555
Zn2 O1 1_555 1_555
Zn3 O1 1_555 1_555
O2 Zn1 1_555 1_555
O3 Zn2 1_555 1_555
O4 Zn2 1_555 1_555
O5 Zn3 1_555 1_555
C1 O2 1_555 1_555
C9 O4 1_555 1_555
O13 Zn3 1_555 1_555
O15 Zn1 1_555 1_555
O18 Zn1 1_555 1_555
O3 C1 1_555 1_555
O5 C9 1_555 1_555
Zn2_2 O1_2 1_555 1_555
Zn3_2 O1_2 1_555 1_555
O1_2 Zn4 1_555 1_555
O4_2 Zn2_2 1_555 1_555
O5_2 Zn3_2 1_555 1_555
C9_2 O4_2 1_555 1_555
Zn4 O9 1_555 1_555
O9 C33 1_555 1_555
O10 Zn2_2 1_555 1_555
O12 Zn3_2 1_555 1_555
O16 Zn4 1_555 1_555
O19 Zn4 1_555 1_555
C33 O10 1_555 1_555
O5_2 C9_2 1_555 1_555
O18 C25 1_555 1_555
C11 C10 1_555 1_555
H6 C11 1_555 1_555
C12 C11 1_555 1_555
H7 C12 1_555 1_555
C13 C12 1_555 1_555
C14 C13 1_555 1_555
H8 C14 1_555 1_555
C15 C10 1_555 1_555
H9 C15 1_555 1_555
C16 C13 1_555 1_555
H10 C16 1_555 1_555
C25 C26 1_555 1_555
C26 C27 1_555 1_555
C27 H16 1_555 1_555
C28 C27 1_555 1_555
H17 C28 1_555 1_555
C29 C28 1_555 1_555
C30 C29 1_555 1_555
H18 C30 1_555 1_555
C31 C26 1_555 1_555
H19 C31 1_555 1_555
C32 C16 1_555 1_555
H20 C32 1_555 1_555
C14 C15 1_555 1_555
C29 C32 1_555 1_555
C30 C31 1_555 1_555
C11_2 C10_2 1_555 1_555
H6_2 C11_2 1_555 1_555
C12_2 C11_2 1_555 1_555
H7_2 C12_2 1_555 1_555
C13_2 C12_2 1_555 1_555
C14_2 C13_2 1_555 1_555
H8_2 C14_2 1_555 1_555
C15_2 C10_2 1_555 1_555
H9_2 C15_2 1_555 1_555
C16_2 C13_2 1_555 1_555
H10_2 C16_2 1_555 1_555
C25_2 C26_2 1_555 1_555
C26_2 C27_2 1_555 1_555
C27_2 H16_2 1_555 1_555
C28_2 C27_2 1_555 1_555
H17_2 C28_2 1_555 1_555
C29_2 C28_2 1_555 1_555
C30_2 C29_2 1_555 1_555
H18_2 C30_2 1_555 1_555
C31_2 C26_2 1_555 1_555
H19_2 C31_2 1_555 1_555
C32_2 C16_2 1_555 1_555
H20_2 C32_2 1_555 1_555
O19 C25_2 1_555 1_555
C14_2 C15_2 1_555 1_555
C29_2 C32_2 1_555 1_555
C30_2 C31_2 1_555 1_555
O6 C17 1_555 1_555
O7 C17 1_555 1_555
C3 C2 1_555 1_555
C4 C3 1_555 1_555
H2 C4 1_555 1_555
C5 C4 1_555 1_555
C6 C5 1_555 1_555
H3 C6 1_555 1_555
C7 C2 1_555 1_555
H4 C7 1_555 1_555
C8 C5 1_555 1_555
H5 C8 1_555 1_555
C17 C18 1_555 1_555
C18 C19 1_555 1_555
C19 H11 1_555 1_555
C20 C19 1_555 1_555
H12 C20 1_555 1_555
C21 C20 1_555 1_555
C22 C21 1_555 1_555
H13 C22 1_555 1_555
C23 C18 1_555 1_555
H14 C23 1_555 1_555
C24 C8 1_555 1_555
H15 C24 1_555 1_555
Zn5 O7 1_555 1_555
Zn9 O6 1_555 1_555
C6 C7 1_555 1_555
C21 C24 1_555 1_555
C22 C23 1_555 1_555
Zn8 O14 1_555 1_555
Zn9 O11 1_555 1_555
O11 C41 1_555 1_555
O14 C41 1_555 1_555
C35 C34 1_555 1_555
C36 C35 1_555 1_555
H22 C36 1_555 1_555
C37 C36 1_555 1_555
C38 C37 1_555 1_555
H23 C38 1_555 1_555
C39 C34 1_555 1_555
H24 C39 1_555 1_555
C40 C37 1_555 1_555
H25 C40 1_555 1_555
C41 C42 1_555 1_555
C42 C43 1_555 1_555
C43 H26 1_555 1_555
C44 C43 1_555 1_555
H27 C44 1_555 1_555
C45 C44 1_555 1_555
C46 C45 1_555 1_555
H28 C46 1_555 1_555
C47 C42 1_555 1_555
H29 C47 1_555 1_555
C48 C40 1_555 1_555
H30 C48 1_555 1_555
C38 C39 1_555 1_555
C45 C48 1_555 1_555
C46 C47 1_555 1_555
O8 C25_3 1_555 1_555
Zn5 O8 1_555 1_555
Zn8 O17 1_555 1_555
O17 C25_3 1_555 1_555
Zn5 O1_3 1_555 1_555
Zn2_3 O1_3 1_555 1_555
Zn9 O1_3 1_555 1_555
O1_3 Zn8 1_555 1_555
O2_2 Zn5 1_555 1_555
O3_2 Zn2_3 1_555 1_555
O4_3 Zn2_3 1_555 1_555
O5_3 Zn9 1_555 1_555
O13 C17_2 1_555 1_555
O15 C17_2 1_555 1_555
C1_2 O2_2 1_555 1_555
C2_2 C1_2 1_555 1_555
C3_2 C2_2 1_555 1_555
H1_2 C3_2 1_555 1_555
C4_2 C3_2 1_555 1_555
H2_2 C4_2 1_555 1_555
C5_2 C4_2 1_555 1_555
C6_2 C5_2 1_555 1_555
H3_2 C6_2 1_555 1_555
C7_2 C2_2 1_555 1_555
H4_2 C7_2 1_555 1_555
C8_2 C5_2 1_555 1_555
H5_2 C8_2 1_555 1_555
C9_3 O4_3 1_555 1_555
C10_3 C9_3 1_555 1_555
C11_3 C10_3 1_555 1_555
H6_3 C11_3 1_555 1_555
C12_3 C11_3 1_555 1_555
H7_3 C12_3 1_555 1_555
C13_3 C12_3 1_555 1_555
C14_3 C13_3 1_555 1_555
H8_3 C14_3 1_555 1_555
C15_3 C10_3 1_555 1_555
H9_3 C15_3 1_555 1_555
C16_3 C13_3 1_555 1_555
H10_3 C16_3 1_555 1_555
C17_2 C18_2 1_555 1_555
C18_2 C19_2 1_555 1_555
C19_2 H11_2 1_555 1_555
C20_2 C19_2 1_555 1_555
H12_2 C20_2 1_555 1_555
C21_2 C20_2 1_555 1_555
C22_2 C21_2 1_555 1_555
H13_2 C22_2 1_555 1_555
C23_2 C18_2 1_555 1_555
H14_2 C23_2 1_555 1_555
C24_2 C8_2 1_555 1_555
H15_2 C24_2 1_555 1_555
C26_3 C27_3 1_555 1_555
C27_3 H16_3 1_555 1_555
C28_3 C27_3 1_555 1_555
H17_3 C28_3 1_555 1_555
C29_3 C28_3 1_555 1_555
C30_3 C29_3 1_555 1_555
H18_3 C30_3 1_555 1_555
C31_3 C26_3 1_555 1_555
H19_3 C31_3 1_555 1_555
C32_3 C16_3 1_555 1_555
H20_3 C32_3 1_555 1_555
Zn8 O9_2 1_555 1_555
O9_2 C33_2 1_555 1_555
O10_2 Zn2_3 1_555 1_555
O12 C41_2 1_555 1_555
O16 C41_2 1_555 1_555
C33_2 O10_2 1_555 1_555
C34_2 C33_2 1_555 1_555
C35_2 C34_2 1_555 1_555
H21_2 C35_2 1_555 1_555
C36_2 C35_2 1_555 1_555
H22_2 C36_2 1_555 1_555
C37_2 C36_2 1_555 1_555
C38_2 C37_2 1_555 1_555
H23_2 C38_2 1_555 1_555
C39_2 C34_2 1_555 1_555
H24_2 C39_2 1_555 1_555
C40_2 C37_2 1_555 1_555
H25_2 C40_2 1_555 1_555
C41_2 C42_2 1_555 1_555
C42_2 C43_2 1_555 1_555
C43_2 H26_2 1_555 1_555
C44_2 C43_2 1_555 1_555
H27_2 C44_2 1_555 1_555
C45_2 C44_2 1_555 1_555
C46_2 C45_2 1_555 1_555
H28_2 C46_2 1_555 1_555
C47_2 C42_2 1_555 1_555
H29_2 C47_2 1_555 1_555
C48_2 C40_2 1_555 1_555
H30_2 C48_2 1_555 1_555
O3_2 C1_2 1_555 1_555
O5_3 C9_3 1_555 1_555
C6_2 C7_2 1_555 1_555
C14_3 C15_3 1_555 1_555
C21_2 C24_2 1_555 1_555
C22_2 C23_2 1_555 1_555
C29_3 C32_3 1_555 1_555
C30_3 C31_3 1_555 1_555
C38_2 C39_2 1_555 1_555
C45_2 C48_2 1_555 1_555
C46_2 C47_2 1_555 1_555
O6_2 C17_3 1_555 1_555
O7_2 C17_3 1_555 1_555
C3_3 C2_3 1_555 1_555
C4_3 C3_3 1_555 1_555
H2_3 C4_3 1_555 1_555
C5_3 C4_3 1_555 1_555
C6_3 C5_3 1_555 1_555
H3_3 C6_3 1_555 1_555
C7_3 C2_3 1_555 1_555
H4_3 C7_3 1_555 1_555
C8_3 C5_3 1_555 1_555
H5_3 C8_3 1_555 1_555
C17_3 C18_3 1_555 1_555
C18_3 C19_3 1_555 1_555
C19_3 H11_3 1_555 1_555
C20_3 C19_3 1_555 1_555
H12_3 C20_3 1_555 1_555
C21_3 C20_3 1_555 1_555
C22_3 C21_3 1_555 1_555
H13_3 C22_3 1_555 1_555
C23_3 C18_3 1_555 1_555
H14_3 C23_3 1_555 1_555
C24_3 C8_3 1_555 1_555
H15_3 C24_3 1_555 1_555
Zn5_2 O7_2 1_555 1_555
Zn9_2 O6_2 1_555 1_555
C6_3 C7_3 1_555 1_555
C21_3 C24_3 1_555 1_555
C22_3 C23_3 1_555 1_555
Zn8_2 O14_2 1_555 1_555
Zn9_2 O11_2 1_555 1_555
O11_2 C41_3 1_555 1_555
O14_2 C41_3 1_555 1_555
C35_3 C34_3 1_555 1_555
C36_3 C35_3 1_555 1_555
H22_3 C36_3 1_555 1_555
C37_3 C36_3 1_555 1_555
C38_3 C37_3 1_555 1_555
H23_3 C38_3 1_555 1_555
C39_3 C34_3 1_555 1_555
H24_3 C39_3 1_555 1_555
C40_3 C37_3 1_555 1_555
H25_3 C40_3 1_555 1_555
C41_3 C42_3 1_555 1_555
C42_3 C43_3 1_555 1_555
C43_3 H26_3 1_555 1_555
C44_3 C43_3 1_555 1_555
H27_3 C44_3 1_555 1_555
C45_3 C44_3 1_555 1_555
C46_3 C45_3 1_555 1_555
H28_3 C46_3 1_555 1_555
C47_3 C42_3 1_555 1_555
H29_3 C47_3 1_555 1_555
C48_3 C40_3 1_555 1_555
H30_3 C48_3 1_555 1_555
C38_3 C39_3 1_555 1_555
C45_3 C48_3 1_555 1_555
C46_3 C47_3 1_555 1_555
O8_2 C25_4 1_555 1_555
C11_4 C10_4 1_555 1_555
H6_4 C11_4 1_555 1_555
C12_4 C11_4 1_555 1_555
H7_4 C12_4 1_555 1_555
C13_4 C12_4 1_555 1_555
C14_4 C13_4 1_555 1_555
H8_4 C14_4 1_555 1_555
C15_4 C10_4 1_555 1_555
H9_4 C15_4 1_555 1_555
C16_4 C13_4 1_555 1_555
H10_4 C16_4 1_555 1_555
C25_4 C26_4 1_555 1_555
C26_4 C27_4 1_555 1_555
C27_4 H16_4 1_555 1_555
C28_4 C27_4 1_555 1_555
H17_4 C28_4 1_555 1_555
C29_4 C28_4 1_555 1_555
C30_4 C29_4 1_555 1_555
H18_4 C30_4 1_555 1_555
C31_4 C26_4 1_555 1_555
H19_4 C31_4 1_555 1_555
C32_4 C16_4 1_555 1_555
H20_4 C32_4 1_555 1_555
Zn6 O8_2 1_555 1_555
C14_4 C15_4 1_555 1_555
C29_4 C32_4 1_555 1_555
C30_4 C31_4 1_555 1_555
C11_5 C10_5 1_555 1_555
H6_5 C11_5 1_555 1_555
C12_5 C11_5 1_555 1_555
H7_5 C12_5 1_555 1_555
C13_5 C12_5 1_555 1_555
C14_5 C13_5 1_555 1_555
H8_5 C14_5 1_555 1_555
C15_5 C10_5 1_555 1_555
H9_5 C15_5 1_555 1_555
C16_5 C13_5 1_555 1_555
H10_5 C16_5 1_555 1_555
C25_5 C26_5 1_555 1_555
C26_5 C27_5 1_555 1_555
C27_5 H16_5 1_555 1_555
C28_5 C27_5 1_555 1_555
H17_5 C28_5 1_555 1_555
C29_5 C28_5 1_555 1_555
C30_5 C29_5 1_555 1_555
H18_5 C30_5 1_555 1_555
C31_5 C26_5 1_555 1_555
H19_5 C31_5 1_555 1_555
C32_5 C16_5 1_555 1_555
H20_5 C32_5 1_555 1_555
Zn7 O17_2 1_555 1_555
O17_2 C25_5 1_555 1_555
C14_5 C15_5 1_555 1_555
C29_5 C32_5 1_555 1_555
C30_5 C31_5 1_555 1_555
Zn6 O1_4 1_555 1_555
Zn2_4 O1_4 1_555 1_555
Zn3_3 O1_4 1_555 1_555
O2_3 Zn6 1_555 1_555
O3_3 Zn2_4 1_555 1_555
O4_4 Zn2_4 1_555 1_555
O5_4 Zn3_3 1_555 1_555
C1_3 O2_3 1_555 1_555
C9_4 O4_4 1_555 1_555
O13_2 Zn3_3 1_555 1_555
O15_2 Zn6 1_555 1_555
O3_3 C1_3 1_555 1_555
O5_4 C9_4 1_555 1_555
Zn2_5 O1_5 1_555 1_555
Zn3_4 O1_5 1_555 1_555
O1_5 Zn7 1_555 1_555
O4_5 Zn2_5 1_555 1_555
O5_5 Zn3_4 1_555 1_555
C9_5 O4_5 1_555 1_555
Zn7 O9_3 1_555 1_555
O9_3 C33_3 1_555 1_555
O10_3 Zn2_5 1_555 1_555
O12_2 Zn3_4 1_555 1_555
O16_2 Zn7 1_555 1_555
C33_3 O10_3 1_555 1_555
O5_5 C9_5 1_555 1_555
Zn5_2 O1_6 1_555 1_555
Zn2_6 O1_6 1_555 1_555
Zn9_2 O1_6 1_555 1_555
O1_6 Zn8_2 1_555 1_555
O2_4 Zn5_2 1_555 1_555
O3_4 Zn2_6 1_555 1_555
O4_6 Zn2_6 1_555 1_555
O5_6 Zn9_2 1_555 1_555
O13_2 C17_4 1_555 1_555
O15_2 C17_4 1_555 1_555
C1_4 O2_4 1_555 1_555
C2_4 C1_4 1_555 1_555
C3_4 C2_4 1_555 1_555
H1_4 C3_4 1_555 1_555
C4_4 C3_4 1_555 1_555
H2_4 C4_4 1_555 1_555
C5_4 C4_4 1_555 1_555
C6_4 C5_4 1_555 1_555
H3_4 C6_4 1_555 1_555
C7_4 C2_4 1_555 1_555
H4_4 C7_4 1_555 1_555
C8_4 C5_4 1_555 1_555
H5_4 C8_4 1_555 1_555
C9_6 O4_6 1_555 1_555
C10_6 C9_6 1_555 1_555
C11_6 C10_6 1_555 1_555
H6_6 C11_6 1_555 1_555
C12_6 C11_6 1_555 1_555
H7_6 C12_6 1_555 1_555
C13_6 C12_6 1_555 1_555
C14_6 C13_6 1_555 1_555
H8_6 C14_6 1_555 1_555
C15_6 C10_6 1_555 1_555
H9_6 C15_6 1_555 1_555
C16_6 C13_6 1_555 1_555
H10_6 C16_6 1_555 1_555
C17_4 C18_4 1_555 1_555
C18_4 C19_4 1_555 1_555
C19_4 H11_4 1_555 1_555
C20_4 C19_4 1_555 1_555
H12_4 C20_4 1_555 1_555
C21_4 C20_4 1_555 1_555
C22_4 C21_4 1_555 1_555
H13_4 C22_4 1_555 1_555
C23_4 C18_4 1_555 1_555
H14_4 C23_4 1_555 1_555
C24_4 C8_4 1_555 1_555
H15_4 C24_4 1_555 1_555
C26_6 C27_6 1_555 1_555
C27_6 H16_6 1_555 1_555
C28_6 C27_6 1_555 1_555
H17_6 C28_6 1_555 1_555
C29_6 C28_6 1_555 1_555
C30_6 C29_6 1_555 1_555
H18_6 C30_6 1_555 1_555
C31_6 C26_6 1_555 1_555
H19_6 C31_6 1_555 1_555
C32_6 C16_6 1_555 1_555
H20_6 C32_6 1_555 1_555
Zn8_2 O9_4 1_555 1_555
O9_4 C33_4 1_555 1_555
O10_4 Zn2_6 1_555 1_555
O12_2 C41_4 1_555 1_555
O16_2 C41_4 1_555 1_555
O18_2 Zn5_2 1_555 1_555
O19_2 Zn8_2 1_555 1_555
C33_4 O10_4 1_555 1_555
C34_4 C33_4 1_555 1_555
C35_4 C34_4 1_555 1_555
H21_4 C35_4 1_555 1_555
C36_4 C35_4 1_555 1_555
H22_4 C36_4 1_555 1_555
C37_4 C36_4 1_555 1_555
C38_4 C37_4 1_555 1_555
H23_4 C38_4 1_555 1_555
C39_4 C34_4 1_555 1_555
H24_4 C39_4 1_555 1_555
C40_4 C37_4 1_555 1_555
H25_4 C40_4 1_555 1_555
C41_4 C42_4 1_555 1_555
C42_4 C43_4 1_555 1_555
C43_4 H26_4 1_555 1_555
C44_4 C43_4 1_555 1_555
H27_4 C44_4 1_555 1_555
C45_4 C44_4 1_555 1_555
C46_4 C45_4 1_555 1_555
H28_4 C46_4 1_555 1_555
C47_4 C42_4 1_555 1_555
H29_4 C47_4 1_555 1_555
C48_4 C40_4 1_555 1_555
H30_4 C48_4 1_555 1_555
O3_4 C1_4 1_555 1_555
O5_6 C9_6 1_555 1_555
C6_4 C7_4 1_555 1_555
C14_6 C15_6 1_555 1_555
C21_4 C24_4 1_555 1_555
C22_4 C23_4 1_555 1_555
C29_6 C32_6 1_555 1_555
C30_6 C31_6 1_555 1_555
C38_4 C39_4 1_555 1_555
C45_4 C48_4 1_555 1_555
C46_4 C47_4 1_555 1_555
O18_2 C25_6 1_555 1_555
O19_2 C25_6 1_555 1_555

#END
