
###############################################################################
#
# This file contains modified crystal structure data generated from the
# MOF subset of the Cambridge Structural Database (CSD) v543 
# hosted by the Cambridge Crystallographic Data Centre (CCDC).
#
# This work is licensed under the Creative Commons
# Attribution-NonCommercial-ShareAlike 4.0 International License.
# To view a copy of this license, visit
# http://creativecommons.org/licenses/by-nc-sa/4.0/
# or send a letter to
# Creative Commons, PO Box 1866, Mountain View, CA 94042, USA.
#
# CIF created using the CSD Python API on 29 September 2022
# The structure has been converted into the P1 space group
# The structure has a 3D framework
# The original CSD entry LIJFUH is in the monoclinic crystal system
# The framework has been calculated to contain at least 10.0% void space
# The void calculation uses a probe of radius 1.32A, grid spacing 0.4
#
###############################################################################

data_LIJFUH
_chemical_formula_moiety         '(C108 H76 N4 O68 Ti4 Zn10)n'
_symmetry_cell_setting           triclinic
_symmetry_space_group_name_H-M   'P 1'
_symmetry_Int_Tables_number      1
_space_group_name_Hall           'P 1'
loop_
_symmetry_equiv_pos_site_id
_symmetry_equiv_pos_as_xyz
1 x,y,z
_cell_length_a                   16.472(3)
_cell_length_b                   14.628(3)
_cell_length_c                   21.029(4)
_cell_angle_alpha                90
_cell_angle_beta                 97.01(3)
_cell_angle_gamma                90
_cell_volume                     5029.11
loop_
_atom_site_label
_atom_site_type_symbol
_atom_site_fract_x
_atom_site_fract_y
_atom_site_fract_z
Zn2 Zn 0.252683(17) 0.04670(2) 0.115100(14)
Zn3 Zn 0.055800(16) 0.00738(2) 0.072696(13)
O1 O 0.28345(13) 0.14089(14) 0.03798(10)
H1 H 0.1709 0.0134 0.0145
H2 H 0.4281 0.1875 0.0299
H3 H 0.5600 0.1703 0.0049
O21 O 0.07395(13) 0.11065(16) 0.13577(10)
O22 O 0.20650(13) 0.14846(14) 0.15873(10)
O23 O 0.36679(13) 0.00513(16) 0.11670(12)
O2 O 0.22826(10) 0.07399(12) 0.94886(8)
O4 O 0.20657(11) 0.09537(14) 0.81132(9)
O5 O 0.09345(11) 0.01973(13) 0.87361(9)
O12 O 0.07395(13) 0.38935(16) 0.63577(10)
O13 O 0.20650(13) 0.35154(14) 0.65873(10)
O15 O 0.67333(13) 0.1045(2) 0.95314(12)
C1 C 0.29069(16) 0.10692(17) 0.98497(12)
C2 C 0.37341(16) 0.10045(19) 0.96250(13)
C3 C 0.43826(19) 0.1474(2) 0.99621(16)
C4 C 0.51648(19) 0.1369(2) 0.98188(16)
C5 C 0.53244(16) 0.0762(2) 0.93273(14)
C6 C 0.46894(16) 0.0301(2) 0.89822(13)
C7 C 0.38806(16) 0.04183(18) 0.91218(12)
C8 C 0.62060(17) 0.0571(2) 0.92118(14)
C9 C 0.14713(14) 0.15014(17) 0.78480(11)
C10 C 0.16702(15) 0.21542(18) 0.74025(12)
H5 H 0.2215 0.2194 0.7299
C11 C 0.10807(16) 0.27355(19) 0.71150(13)
C12 C 0.02778(18) 0.2692(2) 0.72622(16)
C13 C 0.00828(17) 0.2060(2) 0.77112(16)
C14 C 0.06700(15) 0.14547(18) 0.80094(12)
C15 C 0.04234(14) 0.07953(18) 0.84828(11)
C25 C 0.13142(18) 0.34404(19) 0.66486(12)
Zn4 Zn 0.794143(19) 0.14160(2) 0.954825(13)
Zn8 Zn 0.252683(17) 0.45330(2) 0.615100(14)
Zn10 Zn 0.055800(16) 0.49262(2) 0.572696(13)
Zn1 Zn 0.205857(19) 0.85840(2) 0.045175(13)
O9 O 0.08630(15) 0.79676(15) 0.02418(11)
O17 O 0.16792(10) 0.98828(12) 0.05057(8)
O19 O 0.21550(14) 0.81776(14) 0.13507(9)
O20 O 0.22781(12) 0.95480(14) 0.18400(9)
O24 O 0.32667(13) 0.8955(2) 0.04686(12)
O25 O 0.02919(11) 0.91682(14) 0.13712(9)
Ti1 Ti 0.21343(3) 0.99765(3) 0.86889(2)
O3 O 0.32865(11) 0.99363(13) 0.87788(9)
O6 O 0.20235(13) 0.90585(13) 0.80655(8)
O7 O 0.20023(11) 0.89311(12) 0.93065(8)
O8 O 0.22865(17) 0.76192(15) 0.97806(9)
O10 O 0.21550(14) 0.68224(14) 0.63507(9)
O11 O 0.22781(12) 0.54520(14) 0.68400(9)
O14 O 0.63321(13) 0.99487(16) 0.88330(12)
O18 O 0.00673(12) 0.91521(15) 0.99524(9)
H4 H 0.4797 0.9901 0.8647
C16 C 0.21042(16) 0.81565(18) 0.80771(11)
C17 C 0.21206(15) 0.77023(19) 0.74927(11)
H8 H 0.2075 0.8046 0.7107
C18 C 0.22011(18) 0.6772(2) 0.74673(12)
C19 C 0.2277(3) 0.6258(2) 0.80294(14)
H9 H 0.2339 0.5613 0.8013
C20 C 0.2259(3) 0.6695(2) 0.86108(14)
H10 H 0.2295 0.6343 0.8993
C21 C 0.2192(2) 0.76389(19) 0.86454(12)
C22 C 0.21698(19) 0.80751(18) 0.92736(12)
C23 C 0.0254(2) 0.8307(2) 0.99406(16)
C24 C 0.22078(16) 0.6304(2) 0.68327(12)
Zn5 Zn 0.205857(19) 0.64160(2) 0.545175(13)
Zn6 Zn 0.747317(17) 0.95330(2) 0.884900(14)
O26 O 0.99327(12) 0.08479(15) 0.00476(9)
O16 O 0.97081(11) 0.08318(14) 0.86288(9)
H6 H 0.9871 0.3090 0.7058
H7 H 0.9540 0.2038 0.7819
H11 H 0.9896 0.7913 0.9680
Zn9 Zn 0.944200(16) 0.99262(2) 0.927304(13)
O16_2 O 0.02919(11) 0.58318(14) 0.63712(9)
H6_2 H 0.0129 0.8090 0.7942
H7_2 H 0.0460 0.7038 0.7181
H11_2 H 0.0104 0.2913 0.5320
O26_2 O 0.00673(12) 0.58479(15) 0.49524(9)
Zn1_2 Zn 0.794143(19) 0.35840(2) 0.454825(13)
Zn2_2 Zn 0.747317(17) 0.54670(2) 0.384900(14)
Zn3_2 Zn 0.944200(16) 0.50738(2) 0.427304(13)
Ti1_2 Ti 0.78657(3) 0.49765(3) 0.63111(2)
O1_2 O 0.71655(13) 0.64089(14) 0.46202(10)
O2_2 O 0.77174(10) 0.57399(12) 0.55114(8)
O3_2 O 0.67135(11) 0.49363(13) 0.62212(9)
O4_2 O 0.79343(11) 0.59537(14) 0.68868(9)
O5_2 O 0.90655(11) 0.51973(13) 0.62639(9)
O6_2 O 0.79765(13) 0.40585(13) 0.69345(8)
O7_2 O 0.79977(11) 0.39311(12) 0.56935(8)
O8_2 O 0.77135(17) 0.26192(15) 0.52194(9)
O9_2 O 0.91370(15) 0.29676(15) 0.47582(11)
O10_2 O 0.78450(14) 0.18224(14) 0.86493(9)
O11_2 O 0.77219(12) 0.04520(14) 0.81600(9)
O12_2 O 0.92605(13) 0.88935(16) 0.86423(10)
O13_2 O 0.79350(13) 0.85154(14) 0.84127(10)
O14_2 O 0.36679(13) 0.49487(16) 0.61670(12)
O15_2 O 0.32667(13) 0.6045(2) 0.54686(12)
O17_2 O 0.83208(10) 0.48828(12) 0.44943(8)
H1_2 H 0.8291 0.5134 0.4855
O18_2 O 0.99327(12) 0.41521(15) 0.50476(9)
C1_2 C 0.70931(16) 0.60692(17) 0.51503(12)
C2_2 C 0.62659(16) 0.60045(19) 0.53750(13)
C3_2 C 0.56174(19) 0.6474(2) 0.50379(16)
H2_2 H 0.5719 0.6875 0.4701
C4_2 C 0.48352(19) 0.6369(2) 0.51812(16)
H3_2 H 0.4400 0.6703 0.4951
C5_2 C 0.46756(16) 0.5762(2) 0.56727(14)
C6_2 C 0.53106(16) 0.5301(2) 0.60178(13)
H4_2 H 0.5203 0.4901 0.6353
C7_2 C 0.61194(16) 0.54183(18) 0.58782(12)
C8_2 C 0.37940(17) 0.5571(2) 0.57882(14)
C9_2 C 0.85287(14) 0.65014(17) 0.71520(11)
C10_2 C 0.83298(15) 0.71542(18) 0.75975(12)
H5_2 H 0.7785 0.7194 0.7701
C11_2 C 0.89193(16) 0.77355(19) 0.78850(13)
C12_2 C 0.97222(18) 0.7692(2) 0.77378(16)
C13_2 C 0.99172(17) 0.7060(2) 0.72888(16)
C14_2 C 0.93300(15) 0.64547(18) 0.69906(12)
C15_2 C 0.95766(14) 0.57953(18) 0.65172(11)
C16_2 C 0.78958(16) 0.31565(18) 0.69229(11)
C17_2 C 0.78794(15) 0.27023(19) 0.75073(11)
H8_2 H 0.7925 0.3046 0.7893
C18_2 C 0.77989(18) 0.1772(2) 0.75327(12)
C19_2 C 0.7723(3) 0.1258(2) 0.69706(14)
H9_2 H 0.7661 0.0613 0.6987
C20_2 C 0.7741(3) 0.1695(2) 0.63892(14)
H10_2 H 0.7705 0.1343 0.6007
C21_2 C 0.7808(2) 0.26389(19) 0.63546(12)
C22_2 C 0.78302(19) 0.30751(18) 0.57264(12)
C23_2 C 0.9746(2) 0.3307(2) 0.50594(16)
C24_2 C 0.77922(16) 0.1304(2) 0.81673(12)
C25_2 C 0.86858(18) 0.84404(19) 0.83514(12)
O19_2 O 0.78450(14) 0.31776(14) 0.36493(9)
O20_2 O 0.77219(12) 0.45480(14) 0.31600(9)
O21_2 O 0.92605(13) 0.61065(16) 0.36423(10)
O22_2 O 0.79350(13) 0.64846(14) 0.34127(10)
O23_2 O 0.63321(13) 0.50513(16) 0.38330(12)
O24_2 O 0.67333(13) 0.3955(2) 0.45314(12)
O25_2 O 0.97081(11) 0.41682(14) 0.36288(9)
H11_3 H 0.0104 0.2087 0.0320
H6_3 H 0.0129 0.6910 0.2942
H7_3 H 0.0460 0.7962 0.2181
Ti1_3 Ti 0.78657(3) 0.00235(3) 0.13111(2)
O3_3 O 0.67135(11) 0.00637(13) 0.12212(9)
O6_3 O 0.79765(13) 0.09415(13) 0.19345(8)
O7_3 O 0.79977(11) 0.10689(12) 0.06935(8)
O8_3 O 0.77135(17) 0.23808(15) 0.02194(9)
H4_3 H 0.5203 0.0099 0.1353
C16_3 C 0.78958(16) 0.18435(18) 0.19229(11)
C17_3 C 0.78794(15) 0.22977(19) 0.25073(11)
H8_3 H 0.7925 0.1954 0.2893
C18_3 C 0.77989(18) 0.3228(2) 0.25327(12)
C19_3 C 0.7723(3) 0.3742(2) 0.19706(14)
H9_3 H 0.7661 0.4387 0.1987
C20_3 C 0.7741(3) 0.3305(2) 0.13892(14)
H10_3 H 0.7705 0.3657 0.1007
C21_3 C 0.7808(2) 0.23611(19) 0.13546(12)
C22_3 C 0.78302(19) 0.19249(18) 0.07264(12)
C23_3 C 0.9746(2) 0.1693(2) 0.00594(16)
C24_3 C 0.77922(16) 0.3696(2) 0.31673(12)
O9_3 O 0.91370(15) 0.20324(15) 0.97582(11)
O17_3 O 0.83208(10) 0.01172(12) 0.94943(8)
O2_3 O 0.77174(10) 0.92601(12) 0.05114(8)
O4_3 O 0.79343(11) 0.90463(14) 0.18868(9)
O5_3 O 0.90655(11) 0.98027(13) 0.12639(9)
C1_3 C 0.70931(16) 0.89308(17) 0.01503(12)
C2_3 C 0.62659(16) 0.89955(19) 0.03750(13)
C3_3 C 0.56174(19) 0.8526(2) 0.00379(16)
C4_3 C 0.48352(19) 0.8631(2) 0.01812(16)
C5_3 C 0.46756(16) 0.9238(2) 0.06727(14)
C6_3 C 0.53106(16) 0.9699(2) 0.10178(13)
C7_3 C 0.61194(16) 0.95817(18) 0.08782(12)
C8_3 C 0.37940(17) 0.9429(2) 0.07882(14)
C9_3 C 0.85287(14) 0.84986(17) 0.21520(11)
C10_3 C 0.83298(15) 0.78458(18) 0.25975(12)
H5_3 H 0.7785 0.7806 0.2701
C11_3 C 0.89193(16) 0.72645(19) 0.28850(13)
C12_3 C 0.97222(18) 0.7308(2) 0.27378(16)
C13_3 C 0.99172(17) 0.7940(2) 0.22888(16)
C14_3 C 0.93300(15) 0.85453(18) 0.19906(12)
C15_3 C 0.95766(14) 0.92047(18) 0.15172(11)
C25_3 C 0.86858(18) 0.65596(19) 0.33514(12)
O1_3 O 0.71655(13) 0.85911(14) 0.96202(10)
H1_3 H 0.8291 0.9866 0.9855
H2_3 H 0.5719 0.8125 0.9701
H3_3 H 0.4400 0.8297 0.9951
Ti1_4 Ti 0.21343(3) 0.50235(3) 0.36889(2)
O1_4 O 0.28345(13) 0.35911(14) 0.53798(10)
O2_4 O 0.22826(10) 0.42601(12) 0.44886(8)
O3_4 O 0.32865(11) 0.50637(13) 0.37788(9)
O4_4 O 0.20657(11) 0.40463(14) 0.31132(9)
O5_4 O 0.09345(11) 0.48027(13) 0.37361(9)
O6_4 O 0.20235(13) 0.59415(13) 0.30655(8)
O7_4 O 0.20023(11) 0.60689(12) 0.43065(8)
O8_4 O 0.22865(17) 0.73808(15) 0.47806(9)
O9_4 O 0.08630(15) 0.70324(15) 0.52418(11)
O17_4 O 0.16792(10) 0.51172(12) 0.55057(8)
H1_4 H 0.1709 0.4866 0.5145
C1_4 C 0.29069(16) 0.39308(17) 0.48497(12)
C2_4 C 0.37341(16) 0.39955(19) 0.46250(13)
C3_4 C 0.43826(19) 0.3526(2) 0.49621(16)
H2_4 H 0.4281 0.3125 0.5299
C4_4 C 0.51648(19) 0.3631(2) 0.48188(16)
H3_4 H 0.5600 0.3297 0.5049
C5_4 C 0.53244(16) 0.4238(2) 0.43273(14)
C6_4 C 0.46894(16) 0.4699(2) 0.39822(13)
H4_4 H 0.4797 0.5099 0.3647
C7_4 C 0.38806(16) 0.45817(18) 0.41218(12)
C8_4 C 0.62060(17) 0.4429(2) 0.42118(14)
C9_4 C 0.14713(14) 0.34986(17) 0.28480(11)
C10_4 C 0.16702(15) 0.28458(18) 0.24025(12)
H5_4 H 0.2215 0.2806 0.2299
C11_4 C 0.10807(16) 0.22645(19) 0.21150(13)
C12_4 C 0.02778(18) 0.2308(2) 0.22622(16)
C13_4 C 0.00828(17) 0.2940(2) 0.27112(16)
C14_4 C 0.06700(15) 0.35453(18) 0.30094(12)
C15_4 C 0.04234(14) 0.42047(18) 0.34828(11)
C16_4 C 0.21042(16) 0.68435(18) 0.30771(11)
C17_4 C 0.21206(15) 0.72977(19) 0.24927(11)
H8_4 H 0.2075 0.6954 0.2107
C18_4 C 0.22011(18) 0.8228(2) 0.24673(12)
C19_4 C 0.2277(3) 0.8742(2) 0.30294(14)
H9_4 H 0.2339 0.9387 0.3013
C20_4 C 0.2259(3) 0.8305(2) 0.36108(14)
H10_4 H 0.2295 0.8657 0.3993
C21_4 C 0.2192(2) 0.73611(19) 0.36454(12)
C22_4 C 0.21698(19) 0.69249(18) 0.42736(12)
C23_4 C 0.0254(2) 0.6693(2) 0.49406(16)
C24_4 C 0.22078(16) 0.8696(2) 0.18327(12)
C25_4 C 0.13142(18) 0.15596(19) 0.16486(12)
H6_4 H 0.9871 0.1910 0.2058
H7_4 H 0.9540 0.2962 0.2819
H11_4 H 0.9896 0.7087 0.4680
N1 N 0.3833(6) 0.2058(9) 0.2557(5)
H12 H 0.4336 0.2140 0.2418
H13 H 0.3426 0.2248 0.2247
C26 C 0.3777(6) 0.2522(8) 0.3208(5)
H14 H 0.3847 0.3184 0.3165
H15 H 0.4208 0.2282 0.3527
H16 H 0.3241 0.2396 0.3346
C27 C 0.3694(6) 0.0990(9) 0.2792(6)
H17 H 0.3713 0.0574 0.2429
H18 H 0.3161 0.0939 0.2951
H19 H 0.4127 0.0826 0.3135
N1_2 N 0.6167(6) 0.7058(9) 0.2443(5)
H12_2 H 0.5664 0.7140 0.2582
H13_2 H 0.6574 0.7248 0.2753
C26_2 C 0.6223(6) 0.7522(8) 0.1792(5)
H14_2 H 0.6153 0.8184 0.1835
H15_2 H 0.5792 0.7282 0.1473
H16_2 H 0.6759 0.7396 0.1654
C27_2 C 0.6306(6) 0.5990(9) 0.2208(6)
H17_2 H 0.6287 0.5574 0.2571
H18_2 H 0.6839 0.5939 0.2049
H19_2 H 0.5873 0.5826 0.1865
N1_3 N 0.6167(6) 0.7942(9) 0.7443(5)
H12_3 H 0.5664 0.7860 0.7582
H13_3 H 0.6574 0.7752 0.7753
C26_3 C 0.6223(6) 0.7478(8) 0.6792(5)
H14_3 H 0.6153 0.6816 0.6835
H15_3 H 0.5792 0.7718 0.6473
H16_3 H 0.6759 0.7604 0.6654
C27_3 C 0.6306(6) 0.9010(9) 0.7208(6)
H17_3 H 0.6287 0.9426 0.7571
H18_3 H 0.6839 0.9061 0.7049
H19_3 H 0.5873 0.9174 0.6865
N1_4 N 0.3833(6) 0.2942(9) 0.7557(5)
H12_4 H 0.4336 0.2860 0.7418
H13_4 H 0.3426 0.2752 0.7247
C26_4 C 0.3777(6) 0.2478(8) 0.8208(5)
H14_4 H 0.3847 0.1816 0.8165
H15_4 H 0.4208 0.2718 0.8527
H16_4 H 0.3241 0.2604 0.8346
C27_4 C 0.3694(6) 0.4010(9) 0.7792(6)
H17_4 H 0.3713 0.4426 0.7429
H18_4 H 0.3161 0.4061 0.7951
H19_4 H 0.4127 0.4174 0.8135
loop_
_geom_bond_atom_site_label_1
_geom_bond_atom_site_label_2
_geom_bond_site_symmetry_1
_geom_bond_site_symmetry_2
Zn2 O1 1_555 1_555
O21 Zn3 1_555 1_555
O22 Zn2 1_555 1_555
O23 Zn2 1_555 1_555
O2 C1 1_555 1_555
O12 C25 1_555 1_555
O13 C25 1_555 1_555
O15 C8 1_555 1_555
C1 C2 1_555 1_555
C2 C3 1_555 1_555
C4 C3 1_555 1_555
C5 C4 1_555 1_555
C6 C5 1_555 1_555
C8 C5 1_555 1_555
C9 O4 1_555 1_555
C10 C9 1_555 1_555
H5 C10 1_555 1_555
C11 C10 1_555 1_555
C12 C11 1_555 1_555
C13 C12 1_555 1_555
C14 C9 1_555 1_555
C15 O5 1_555 1_555
C25 C11 1_555 1_555
Zn4 O15 1_555 1_555
Zn8 O13 1_555 1_555
Zn10 O12 1_555 1_555
C2 C7 1_555 1_555
C6 C7 1_555 1_555
C13 C14 1_555 1_555
C14 C15 1_555 1_555
O9 Zn1 1_555 1_555
O17 Zn1 1_555 1_555
O19 Zn1 1_555 1_555
O24 Zn1 1_555 1_555
O3 Ti1 1_555 1_555
O6 Ti1 1_555 1_555
O7 Ti1 1_555 1_555
O10 C24 1_555 1_555
O11 C24 1_555 1_555
C16 O6 1_555 1_555
C17 C16 1_555 1_555
H8 C17 1_555 1_555
C18 C17 1_555 1_555
C19 C18 1_555 1_555
H9 C19 1_555 1_555
C20 C19 1_555 1_555
H10 C20 1_555 1_555
C21 C16 1_555 1_555
C22 O7 1_555 1_555
C24 C18 1_555 1_555
Zn5 O10 1_555 1_555
Zn6 O14 1_555 1_555
Zn8 O11 1_555 1_555
O8 C22 1_555 1_555
O18 C23 1_555 1_555
C20 C21 1_555 1_555
C21 C22 1_555 1_555
Zn10 O16_2 1_555 1_555
Zn10 O26_2 1_555 1_555
Zn1_2 O7_2 1_555 1_555
Zn2_2 O1_2 1_555 1_555
Zn3_2 O17_2 1_555 1_555
Ti1_2 O2_2 1_555 1_555
O1_2 C1_2 1_555 1_555
O2_2 C1_2 1_555 1_555
O3_2 Ti1_2 1_555 1_555
O4_2 Ti1_2 1_555 1_555
O5_2 Ti1_2 1_555 1_555
O6_2 Ti1_2 1_555 1_555
O7_2 Ti1_2 1_555 1_555
O8_2 Zn1_2 1_555 1_555
O9_2 Zn1_2 1_555 1_555
O10_2 C24_2 1_555 1_555
O11_2 C24_2 1_555 1_555
O12_2 C25_2 1_555 1_555
O13_2 C25_2 1_555 1_555
O14_2 C8_2 1_555 1_555
O15_2 C8_2 1_555 1_555
O17_2 Zn1_2 1_555 1_555
H1_2 O17_2 1_555 1_555
O18_2 Zn3_2 1_555 1_555
C1_2 C2_2 1_555 1_555
C2_2 C3_2 1_555 1_555
C3_2 H2_2 1_555 1_555
C4_2 C3_2 1_555 1_555
H3_2 C4_2 1_555 1_555
C5_2 C4_2 1_555 1_555
C6_2 C5_2 1_555 1_555
H4_2 C6_2 1_555 1_555
C7_2 O3_2 1_555 1_555
C8_2 C5_2 1_555 1_555
C9_2 O4_2 1_555 1_555
C10_2 C9_2 1_555 1_555
H5_2 C10_2 1_555 1_555
C11_2 C10_2 1_555 1_555
C12_2 C11_2 1_555 1_555
C13_2 C12_2 1_555 1_555
C14_2 C9_2 1_555 1_555
C15_2 O5_2 1_555 1_555
C16_2 O6_2 1_555 1_555
C17_2 C16_2 1_555 1_555
H8_2 C17_2 1_555 1_555
C18_2 C17_2 1_555 1_555
C19_2 C18_2 1_555 1_555
H9_2 C19_2 1_555 1_555
C20_2 C19_2 1_555 1_555
H10_2 C20_2 1_555 1_555
C21_2 C16_2 1_555 1_555
C22_2 O7_2 1_555 1_555
C23_2 O9_2 1_555 1_555
C24_2 C18_2 1_555 1_555
C25_2 C11_2 1_555 1_555
Zn5 O15_2 1_555 1_555
Zn4 O10_2 1_555 1_555
Zn8 O14_2 1_555 1_555
Zn6 O13_2 1_555 1_555
Zn9 O12_2 1_555 1_555
O19_2 Zn1_2 1_555 1_555
O20_2 Zn2_2 1_555 1_555
O21_2 Zn3_2 1_555 1_555
O22_2 Zn2_2 1_555 1_555
O23_2 Zn2_2 1_555 1_555
O24_2 Zn1_2 1_555 1_555
O25_2 Zn3_2 1_555 1_555
Zn2_2 O17_2 1_555 1_555
O8_2 C22_2 1_555 1_555
O18_2 C23_2 1_555 1_555
C2_2 C7_2 1_555 1_555
C6_2 C7_2 1_555 1_555
C13_2 C14_2 1_555 1_555
C14_2 C15_2 1_555 1_555
C20_2 C21_2 1_555 1_555
C21_2 C22_2 1_555 1_555
O3_3 Ti1_3 1_555 1_555
O6_3 Ti1_3 1_555 1_555
O7_3 Ti1_3 1_555 1_555
O19_2 C24_3 1_555 1_555
O20_2 C24_3 1_555 1_555
C16_3 O6_3 1_555 1_555
C17_3 C16_3 1_555 1_555
H8_3 C17_3 1_555 1_555
C18_3 C17_3 1_555 1_555
C19_3 C18_3 1_555 1_555
H9_3 C19_3 1_555 1_555
C20_3 C19_3 1_555 1_555
H10_3 C20_3 1_555 1_555
C21_3 C16_3 1_555 1_555
C22_3 O7_3 1_555 1_555
C24_3 C18_3 1_555 1_555
O8_3 C22_3 1_555 1_555
O26 C23_3 1_555 1_555
C20_3 C21_3 1_555 1_555
C21_3 C22_3 1_555 1_555
O9_3 Zn4 1_555 1_555
O17_3 Zn4 1_555 1_555
O2_3 C1_3 1_555 1_555
O21_2 C25_3 1_555 1_555
O22_2 C25_3 1_555 1_555
O24 C8_3 1_555 1_555
C1_3 C2_3 1_555 1_555
C2_3 C3_3 1_555 1_555
C4_3 C3_3 1_555 1_555
C5_3 C4_3 1_555 1_555
C6_3 C5_3 1_555 1_555
C8_3 C5_3 1_555 1_555
C9_3 O4_3 1_555 1_555
C10_3 C9_3 1_555 1_555
H5_3 C10_3 1_555 1_555
C11_3 C10_3 1_555 1_555
C12_3 C11_3 1_555 1_555
C13_3 C12_3 1_555 1_555
C14_3 C9_3 1_555 1_555
C15_3 O5_3 1_555 1_555
C25_3 C11_3 1_555 1_555
C2_3 C7_3 1_555 1_555
C6_3 C7_3 1_555 1_555
C13_3 C14_3 1_555 1_555
C14_3 C15_3 1_555 1_555
Zn6 O1_3 1_555 1_555
Zn5 O7_4 1_555 1_555
Zn8 O1_4 1_555 1_555
Zn10 O17_4 1_555 1_555
Ti1_4 O2_4 1_555 1_555
O1_4 C1_4 1_555 1_555
O2_4 C1_4 1_555 1_555
O3_4 Ti1_4 1_555 1_555
O4_4 Ti1_4 1_555 1_555
O5_4 Ti1_4 1_555 1_555
O6_4 Ti1_4 1_555 1_555
O7_4 Ti1_4 1_555 1_555
O8_4 Zn5 1_555 1_555
O9_4 Zn5 1_555 1_555
O19 C24_4 1_555 1_555
O20 C24_4 1_555 1_555
O21 C25_4 1_555 1_555
O22 C25_4 1_555 1_555
O23_2 C8_4 1_555 1_555
O24_2 C8_4 1_555 1_555
O17_4 Zn5 1_555 1_555
H1_4 O17_4 1_555 1_555
C1_4 C2_4 1_555 1_555
C2_4 C3_4 1_555 1_555
C3_4 H2_4 1_555 1_555
C4_4 C3_4 1_555 1_555
H3_4 C4_4 1_555 1_555
C5_4 C4_4 1_555 1_555
C6_4 C5_4 1_555 1_555
H4_4 C6_4 1_555 1_555
C7_4 O3_4 1_555 1_555
C8_4 C5_4 1_555 1_555
C9_4 O4_4 1_555 1_555
C10_4 C9_4 1_555 1_555
H5_4 C10_4 1_555 1_555
C11_4 C10_4 1_555 1_555
C12_4 C11_4 1_555 1_555
C13_4 C12_4 1_555 1_555
C14_4 C9_4 1_555 1_555
C15_4 O5_4 1_555 1_555
C16_4 O6_4 1_555 1_555
C17_4 C16_4 1_555 1_555
H8_4 C17_4 1_555 1_555
C18_4 C17_4 1_555 1_555
C19_4 C18_4 1_555 1_555
H9_4 C19_4 1_555 1_555
C20_4 C19_4 1_555 1_555
H10_4 C20_4 1_555 1_555
C21_4 C16_4 1_555 1_555
C22_4 O7_4 1_555 1_555
C23_4 O9_4 1_555 1_555
C24_4 C18_4 1_555 1_555
C25_4 C11_4 1_555 1_555
Zn8 O17_4 1_555 1_555
O8_4 C22_4 1_555 1_555
O26_2 C23_4 1_555 1_555
C2_4 C7_4 1_555 1_555
C6_4 C7_4 1_555 1_555
C13_4 C14_4 1_555 1_555
C14_4 C15_4 1_555 1_555
C20_4 C21_4 1_555 1_555
C21_4 C22_4 1_555 1_555
N1 H12 1_555 1_555
H13 N1 1_555 1_555
C26 N1 1_555 1_555
H14 C26 1_555 1_555
H15 C26 1_555 1_555
H16 C26 1_555 1_555
C27 N1 1_555 1_555
H17 C27 1_555 1_555
H18 C27 1_555 1_555
H19 C27 1_555 1_555
N1_2 H12_2 1_555 1_555
H13_2 N1_2 1_555 1_555
C26_2 N1_2 1_555 1_555
H14_2 C26_2 1_555 1_555
H15_2 C26_2 1_555 1_555
H16_2 C26_2 1_555 1_555
C27_2 N1_2 1_555 1_555
H17_2 C27_2 1_555 1_555
H18_2 C27_2 1_555 1_555
H19_2 C27_2 1_555 1_555
N1_3 H12_3 1_555 1_555
H13_3 N1_3 1_555 1_555
C26_3 N1_3 1_555 1_555
H14_3 C26_3 1_555 1_555
H15_3 C26_3 1_555 1_555
H16_3 C26_3 1_555 1_555
C27_3 N1_3 1_555 1_555
H17_3 C27_3 1_555 1_555
H18_3 C27_3 1_555 1_555
H19_3 C27_3 1_555 1_555
N1_4 H12_4 1_555 1_555
H13_4 N1_4 1_555 1_555
C26_4 N1_4 1_555 1_555
H14_4 C26_4 1_555 1_555
H15_4 C26_4 1_555 1_555
H16_4 C26_4 1_555 1_555
C27_4 N1_4 1_555 1_555
H17_4 C27_4 1_555 1_555
H18_4 C27_4 1_555 1_555
H19_4 C27_4 1_555 1_555

#END
