
###############################################################################
#
# This file contains modified crystal structure data generated from the
# MOF subset of the Cambridge Structural Database (CSD) v543 
# hosted by the Cambridge Crystallographic Data Centre (CCDC).
#
# This work is licensed under the Creative Commons
# Attribution-NonCommercial-ShareAlike 4.0 International License.
# To view a copy of this license, visit
# http://creativecommons.org/licenses/by-nc-sa/4.0/
# or send a letter to
# Creative Commons, PO Box 1866, Mountain View, CA 94042, USA.
#
# CIF created using the CSD Python API on 29 September 2022
# The structure has been converted into the P1 space group
# The structure has a 3D framework
# The original CSD entry LIJGUJ is in the orthorhombic crystal system
# The framework has been calculated to contain at least 10.0% void space
# The void calculation uses a probe of radius 1.32A, grid spacing 0.4
# H atom positions have been added when not included in the experimental data
#
###############################################################################

data_LIJGUJ
_chemical_formula_moiety         '(C352 H192 N64 O64 S32 Zn16)n'
_symmetry_cell_setting           triclinic
_symmetry_space_group_name_H-M   'P 1'
_symmetry_Int_Tables_number      1
_space_group_name_Hall           'P 1'
loop_
_symmetry_equiv_pos_site_id
_symmetry_equiv_pos_as_xyz
1 x,y,z
_cell_length_a                   35.1820(6)
_cell_length_b                   17.2173(3)
_cell_length_c                   17.1182(3)
_cell_angle_alpha                90
_cell_angle_beta                 90
_cell_angle_gamma                90
_cell_volume                     10369.2
loop_
_atom_site_label
_atom_site_type_symbol
_atom_site_fract_x
_atom_site_fract_y
_atom_site_fract_z
C32 C 0.34013(9) 0.0263(2) 0.5394(2)
C35 C 0.31280(11) 0.0692(2) 0.4996(2)
C36 C 0.36761(10) 0.0653(2) 0.5823(2)
C37 C 0.31452(11) 0.1493(2) 0.5046(2)
C38 C 0.36694(10) 0.1456(2) 0.5841(2)
C39 C 0.40703(10) 0.00887(19) 0.3718(2)
C40 C 0.40738(9) 0.0943(2) 0.3715(2)
C41 C 0.38452(11) 0.1351(2) 0.3193(2)
C42 C 0.42959(11) 0.1370(2) 0.4224(2)
C43 C 0.38463(10) 0.2150(2) 0.3214(2)
C44 C 0.42824(10) 0.2175(2) 0.4192(2)
N9 N 0.34082(8) 0.18819(16) 0.5464(2)
Zn5 Zn 0.33750(2) 0.31496(2) 0.55317(2)
N10 N 0.40579(7) 0.25708(15) 0.37119(19)
Zn6 Zn 0.40278(2) 0.38385(2) 0.37683(2)
H16 H 0.447912 0.107858 0.464471
H17 H 0.389356 0.0332052 0.614043
H19 H 0.366801 0.104213 0.277397
H20 H 0.38868 0.175709 0.617769
H21 H 0.29072 0.0405964 0.465539
H22 H 0.366501 0.245946 0.28029
H23 H 0.446677 0.250132 0.458367
H24 H 0.293352 0.182968 0.472855
O1 O 0.39325(6) 0.31417(13) 0.57955(13)
O2 O 0.32072(7) 0.31170(14) 0.44031(14)
N1 N 0.33584(7) 0.43960(15) 0.55458(19)
O3 O 0.32352(7) 0.30678(15) 0.68475(15)
O4 O 0.28121(7) 0.29652(15) 0.59090(14)
C1 C 0.42060(8) 0.35400(17) 0.55353(19)
C2 C 0.32179(8) 0.33602(18) 0.3723(2)
C3 C 0.31419(9) 0.48083(19) 0.50547(19)
C4 C 0.35871(9) 0.47930(19) 0.6030(2)
O5 O 0.42208(6) 0.38680(13) 0.48830(13)
C5 C 0.45446(9) 0.36251(19) 0.60646(18)
O6 O 0.34734(6) 0.37920(13) 0.34363(14)
C6 C 0.29089(9) 0.30905(19) 0.31878(19)
C7 C 0.31502(9) 0.5604(2) 0.5003(2)
C8 C 0.36162(9) 0.5593(2) 0.6026(2)
C9 C 0.45105(10) 0.3439(3) 0.6850(2)
C10 C 0.48875(9) 0.3904(2) 0.5784(2)
C11 C 0.29525(10) 0.3165(2) 0.2379(2)
C12 C 0.25916(9) 0.2709(2) 0.3481(2)
C13 C 0.33948(9) 0.60125(19) 0.5486(2)
N3 N 0.39868(7) 0.50797(15) 0.37943(19)
O7 O 0.45783(7) 0.38574(15) 0.33475(15)
O8 O 0.41781(7) 0.38641(17) 0.23650(17)
C14 C 0.48115(10) 0.3535(3) 0.7349(2)
C15 C 0.51959(10) 0.3971(2) 0.6286(2)
C16 C 0.26890(10) 0.2836(2) 0.18743(19)
C17 C 0.23229(9) 0.2397(2) 0.2982(2)
C18 C 0.34134(9) 0.6863(2) 0.5455(2)
C19 C 0.37657(9) 0.5464(2) 0.3297(2)
C20 C 0.42006(11) 0.5500(2) 0.4287(2)
C21 C 0.51607(9) 0.3790(2) 0.7071(2)
C22 C 0.23756(9) 0.2449(2) 0.2173(2)
S1 S 0.37434(3) 0.73752(5) 0.60283(6)
N5 N 0.31848(9) 0.72851(17) 0.50129(18)
C23 C 0.37511(10) 0.6268(2) 0.3246(2)
C24 C 0.42103(11) 0.6306(2) 0.4270(2)
C25 C 0.54924(10) 0.3845(2) 0.7617(2)
C26 C 0.20912(9) 0.2105(2) 0.1616(2)
C27 C 0.35515(10) 0.82226(19) 0.5664(2)
C28 C 0.32655(10) 0.8044(2) 0.5143(2)
C29 C 0.39847(9) 0.66974(19) 0.3741(2)
N6 N 0.36302(9) 0.89860(18) 0.5802(2)
S2 S 0.30740(3) 0.88981(5) 0.47907(6)
C30 C 0.39958(9) 0.75539(19) 0.3710(2)
C31 C 0.33985(10) 0.9406(2) 0.5380(2)
S3 S 0.37174(3) 0.80735(5) 0.30421(6)
N7 N 0.42162(10) 0.79605(17) 0.41676(18)
C33 C 0.39117(11) 0.8915(2) 0.3421(2)
C34 C 0.41635(12) 0.8730(2) 0.3999(2)
N8 N 0.38560(9) 0.96784(18) 0.32504(19)
S4 S 0.43517(3) 0.95710(5) 0.43857(6)
O9 O 0.54217(7) 0.38574(15) 0.83475(15)
O10 O 0.58219(7) 0.38641(17) 0.73650(17)
O11 O 0.17648(7) 0.19322(15) 0.18475(15)
O12 O 0.21879(7) 0.20348(15) 0.09090(14)
Zn3 Zn 0.59722(2) 0.38385(2) 0.87683(2)
Zn4 Zn 0.16250(2) 0.18504(2) 0.05317(2)
H1 H 0.491527 0.407 0.517279
H2 H 0.29476 0.449411 0.467342
H3 H 0.477655 0.34103 0.796853
H4 H 0.296787 0.590826 0.458993
H5 H 0.255409 0.26551 0.411015
H6 H 0.546862 0.416819 0.605969
H7 H 0.272842 0.288184 0.1245
H8 H 0.358521 0.512776 0.290619
H9 H 0.437348 0.519665 0.471756
H10 H 0.319448 0.348283 0.214406
H11 H 0.375835 0.446793 0.644705
H12 H 0.424205 0.321453 0.707211
H13 H 0.207137 0.211206 0.321723
H14 H 0.356271 0.655442 0.283151
H15 H 0.380546 0.58916 0.642999
H18 H 0.439371 0.662539 0.466927
C15_2 C 0.01959(10) 0.1029(2) 0.6286(2)
C21_2 C 0.01607(9) 0.1210(2) 0.7071(2)
C25_2 C 0.04924(10) 0.1155(2) 0.7617(2)
O9_2 O 0.04217(7) 0.11426(15) 0.83475(15)
O10_2 O 0.08219(7) 0.11359(17) 0.73650(17)
Zn3_2 Zn 0.09722(2) 0.11615(2) 0.87683(2)
H6_2 H 0.0468616 0.0831814 0.605969
Zn1 Zn 0.83750(2) 0.18504(2) 0.55317(2)
O1_2 O 0.89325(6) 0.18583(13) 0.57955(13)
O2_2 O 0.82072(7) 0.18830(14) 0.44031(14)
N1_2 N 0.83584(7) 0.06040(15) 0.55458(19)
O3_2 O 0.82352(7) 0.19322(15) 0.68475(15)
O4_2 O 0.78121(7) 0.20348(15) 0.59090(14)
N2 N 0.84082(8) 0.31181(16) 0.5464(2)
C1_2 C 0.92060(8) 0.14600(17) 0.55353(19)
C2_2 C 0.82179(8) 0.16398(18) 0.3723(2)
C3_2 C 0.81419(9) 0.01917(19) 0.50547(19)
C4_2 C 0.85871(9) 0.02070(19) 0.6030(2)
O5_2 O 0.92208(6) 0.11320(13) 0.48830(13)
C5_2 C 0.95446(9) 0.13749(19) 0.60646(18)
O6_2 O 0.84734(6) 0.12080(13) 0.34363(14)
C6_2 C 0.79089(9) 0.19095(19) 0.31878(19)
Zn2 Zn 0.90278(2) 0.11615(2) 0.37683(2)
C9_2 C 0.95105(10) 0.1561(3) 0.6850(2)
C10_2 C 0.98875(9) 0.1096(2) 0.5784(2)
C11_2 C 0.79525(10) 0.1835(2) 0.2379(2)
C12_2 C 0.75916(9) 0.2291(2) 0.3481(2)
O7_2 O 0.95783(7) 0.11426(15) 0.33475(15)
O8_2 O 0.91781(7) 0.11359(17) 0.23650(17)
N4 N 0.90579(7) 0.24292(15) 0.37119(19)
C14_2 C 0.98115(10) 0.1465(3) 0.7349(2)
C16_2 C 0.76890(10) 0.2164(2) 0.18743(19)
C17_2 C 0.73229(9) 0.2603(2) 0.2982(2)
C22_2 C 0.73756(9) 0.2551(2) 0.2173(2)
C26_2 C 0.70912(9) 0.2895(2) 0.1616(2)
O11_2 O 0.67648(7) 0.30678(15) 0.18475(15)
O12_2 O 0.71879(7) 0.29652(15) 0.09090(14)
Zn4_2 Zn 0.66250(2) 0.31496(2) 0.05317(2)
H1_2 H 0.991527 0.0929999 0.517279
H2_2 H 0.79476 0.0505885 0.467342
H3_2 H 0.977655 0.15897 0.796853
H5_2 H 0.755409 0.23449 0.411015
H7_2 H 0.772842 0.211816 0.1245
H10_2 H 0.819448 0.151717 0.214406
H11_2 H 0.875835 0.0532068 0.644705
H12_2 H 0.924205 0.178547 0.707211
H13_2 H 0.707137 0.288794 0.321723
C7_2 C 0.81502(9) 0.9396(2) 0.5003(2)
C8_2 C 0.86162(9) 0.9407(2) 0.6026(2)
C13_2 C 0.83948(9) 0.89875(19) 0.5486(2)
N3_2 N 0.89868(7) 0.99203(15) 0.37943(19)
C18_2 C 0.84134(9) 0.8137(2) 0.5455(2)
C19_2 C 0.87657(9) 0.9536(2) 0.3297(2)
C20_2 C 0.92006(11) 0.9500(2) 0.4287(2)
S1_2 S 0.87434(3) 0.76248(5) 0.60283(6)
N5_2 N 0.81848(9) 0.77149(17) 0.50129(18)
C23_2 C 0.87511(10) 0.8732(2) 0.3246(2)
C24_2 C 0.92103(11) 0.8694(2) 0.4270(2)
C27_2 C 0.85515(10) 0.67774(19) 0.5664(2)
C28_2 C 0.82655(10) 0.6956(2) 0.5143(2)
C29_2 C 0.89847(9) 0.83026(19) 0.3741(2)
N6_2 N 0.86302(9) 0.60140(18) 0.5802(2)
S2_2 S 0.80740(3) 0.61019(5) 0.47907(6)
C30_2 C 0.89958(9) 0.74461(19) 0.3710(2)
C31_2 C 0.83985(10) 0.5594(2) 0.5380(2)
S3_2 S 0.87174(3) 0.69265(5) 0.30421(6)
N7_2 N 0.92162(10) 0.70395(17) 0.41676(18)
C32_2 C 0.84013(9) 0.4737(2) 0.5394(2)
C33_2 C 0.89117(11) 0.6085(2) 0.3421(2)
C34_2 C 0.91635(12) 0.6270(2) 0.3999(2)
C35_2 C 0.81280(11) 0.4308(2) 0.4996(2)
C36_2 C 0.86761(10) 0.4347(2) 0.5823(2)
N8_2 N 0.88560(9) 0.53216(18) 0.32504(19)
S4_2 S 0.93517(3) 0.54290(5) 0.43857(6)
C37_2 C 0.81452(11) 0.3507(2) 0.5046(2)
C38_2 C 0.86694(10) 0.3544(2) 0.5841(2)
C39_2 C 0.90703(10) 0.49113(19) 0.3718(2)
C40_2 C 0.90738(9) 0.4057(2) 0.3715(2)
C41_2 C 0.88452(11) 0.3649(2) 0.3193(2)
C42_2 C 0.92959(11) 0.3630(2) 0.4224(2)
C43_2 C 0.88463(10) 0.2850(2) 0.3214(2)
C44_2 C 0.92824(10) 0.2825(2) 0.4192(2)
H4_2 H 0.796787 0.909174 0.458993
H8_2 H 0.858521 0.987224 0.290619
H9_2 H 0.937348 0.980335 0.471756
H14_2 H 0.856271 0.844558 0.283151
H15_2 H 0.880546 0.91084 0.642999
H16_2 H 0.947912 0.392142 0.464471
H17_2 H 0.889356 0.466795 0.614043
H18_2 H 0.939371 0.837461 0.466927
H19_2 H 0.866801 0.395787 0.277397
H20_2 H 0.88868 0.324291 0.617769
H21_2 H 0.79072 0.459404 0.465539
H22_2 H 0.866501 0.254054 0.28029
H23_2 H 0.946677 0.249868 0.458367
H24_2 H 0.793352 0.317032 0.472855
O1_3 O 0.10675(6) 0.18583(13) 0.07955(13)
N1_3 N 0.16416(7) 0.06040(15) 0.05458(19)
N2_2 N 0.15918(8) 0.31181(16) 0.0464(2)
C1_3 C 0.07940(8) 0.14600(17) 0.05353(19)
C3_3 C 0.18581(9) 0.01917(19) 0.00547(19)
C4_3 C 0.14129(9) 0.02070(19) 0.1030(2)
C5_3 C 0.04554(9) 0.13749(19) 0.10646(18)
C9_3 C 0.04895(10) 0.1561(3) 0.1850(2)
C10_3 C 0.01125(9) 0.1096(2) 0.0784(2)
C14_3 C 0.01885(10) 0.1465(3) 0.2349(2)
H1_3 H 0.00847278 0.0929999 0.0172795
H3_3 H 0.022345 0.15897 0.296853
H11_3 H 0.124165 0.0532068 0.144705
H12_3 H 0.075795 0.178547 0.207211
O2_3 O 0.17928(7) 0.18830(14) 0.94031(14)
C2_3 C 0.17821(8) 0.16398(18) 0.8723(2)
O5_3 O 0.07792(6) 0.11320(13) 0.98830(13)
O6_3 O 0.15266(6) 0.12080(13) 0.84363(14)
C6_3 C 0.20911(9) 0.19095(19) 0.81878(19)
C11_3 C 0.20475(10) 0.1835(2) 0.7379(2)
C12_3 C 0.24084(9) 0.2291(2) 0.8481(2)
N4_2 N 0.09421(7) 0.24292(15) 0.87119(19)
C16_3 C 0.23110(10) 0.2164(2) 0.68743(19)
C17_3 C 0.26771(9) 0.2603(2) 0.7982(2)
C22_3 C 0.26244(9) 0.2551(2) 0.7173(2)
C26_3 C 0.29088(9) 0.2895(2) 0.6616(2)
H2_3 H 0.20524 0.0505885 0.967342
H5_3 H 0.244591 0.23449 0.911015
H7_3 H 0.227158 0.211816 0.6245
H10_3 H 0.180552 0.151717 0.714406
H13_3 H 0.292863 0.288794 0.821723
C7_3 C 0.18498(9) 0.9396(2) 0.0003(2)
C8_3 C 0.13838(9) 0.9407(2) 0.1026(2)
C13_3 C 0.16052(9) 0.89875(19) 0.0486(2)
C18_3 C 0.15866(9) 0.8137(2) 0.0455(2)
S1_3 S 0.12566(3) 0.76248(5) 0.10283(6)
N5_3 N 0.18152(9) 0.77149(17) 0.00129(18)
C27_3 C 0.14485(10) 0.67774(19) 0.0664(2)
C28_3 C 0.17345(10) 0.6956(2) 0.0143(2)
N6_3 N 0.13698(9) 0.60140(18) 0.0802(2)
C31_3 C 0.16015(10) 0.5594(2) 0.0380(2)
C32_3 C 0.15987(9) 0.4737(2) 0.0394(2)
C36_3 C 0.13239(10) 0.4347(2) 0.0823(2)
C37_3 C 0.18548(11) 0.3507(2) 0.0046(2)
C38_3 C 0.13306(10) 0.3544(2) 0.0841(2)
H15_3 H 0.119454 0.91084 0.142999
H17_3 H 0.110644 0.466795 0.114043
H20_3 H 0.11132 0.324291 0.117769
N3_3 N 0.10132(7) 0.99203(15) 0.87943(19)
C19_3 C 0.12343(9) 0.9536(2) 0.8297(2)
C20_3 C 0.07994(11) 0.9500(2) 0.9287(2)
C23_3 C 0.12489(10) 0.8732(2) 0.8246(2)
C24_3 C 0.07897(11) 0.8694(2) 0.9270(2)
C29_3 C 0.10153(9) 0.83026(19) 0.8741(2)
S2_3 S 0.19260(3) 0.61019(5) 0.97907(6)
C30_3 C 0.10042(9) 0.74461(19) 0.8710(2)
S3_3 S 0.12826(3) 0.69265(5) 0.80421(6)
N7_3 N 0.07838(10) 0.70395(17) 0.91676(18)
C33_3 C 0.10883(11) 0.6085(2) 0.8421(2)
C34_3 C 0.08365(12) 0.6270(2) 0.8999(2)
C35_3 C 0.18720(11) 0.4308(2) 0.9996(2)
N8_3 N 0.11440(9) 0.53216(18) 0.82504(19)
S4_3 S 0.06483(3) 0.54290(5) 0.93857(6)
C39_3 C 0.09297(10) 0.49113(19) 0.8718(2)
C40_3 C 0.09262(9) 0.4057(2) 0.8715(2)
C41_3 C 0.11548(11) 0.3649(2) 0.8193(2)
C42_3 C 0.07041(11) 0.3630(2) 0.9224(2)
C43_3 C 0.11537(10) 0.2850(2) 0.8214(2)
C44_3 C 0.07176(10) 0.2825(2) 0.9192(2)
H4_3 H 0.203213 0.909174 0.958993
H8_3 H 0.141479 0.987224 0.790619
H9_3 H 0.0626524 0.980335 0.971756
H14_3 H 0.143729 0.844558 0.783151
H16_3 H 0.0520883 0.392142 0.964471
H18_3 H 0.0606289 0.837461 0.966927
H19_3 H 0.133199 0.395787 0.777397
H21_3 H 0.20928 0.459404 0.965539
H22_3 H 0.133499 0.254054 0.78029
H23_3 H 0.0533231 0.249868 0.958367
H24_3 H 0.206648 0.317032 0.972855
C15_3 C 0.98041(10) 0.1029(2) 0.1286(2)
C21_3 C 0.98393(9) 0.1210(2) 0.2071(2)
C25_3 C 0.95076(10) 0.1155(2) 0.2617(2)
H6_3 H 0.953138 0.0831814 0.105969
C32_4 C 0.65987(9) 0.0263(2) 0.0394(2)
C36_4 C 0.63239(10) 0.0653(2) 0.0823(2)
C37_4 C 0.68548(11) 0.1493(2) 0.0046(2)
C38_4 C 0.63306(10) 0.1456(2) 0.0841(2)
N9_2 N 0.65918(8) 0.18819(16) 0.0464(2)
H17_4 H 0.610644 0.0332052 0.114043
H20_4 H 0.61132 0.175709 0.117769
C35_4 C 0.68720(11) 0.0692(2) 0.9996(2)
C39_4 C 0.59297(10) 0.00887(19) 0.8718(2)
C40_4 C 0.59262(9) 0.0943(2) 0.8715(2)
C41_4 C 0.61548(11) 0.1351(2) 0.8193(2)
C42_4 C 0.57041(11) 0.1370(2) 0.9224(2)
C43_4 C 0.61537(10) 0.2150(2) 0.8214(2)
C44_4 C 0.57176(10) 0.2175(2) 0.9192(2)
N10_2 N 0.59421(7) 0.25708(15) 0.87119(19)
H16_4 H 0.552088 0.107858 0.964471
H19_4 H 0.633199 0.104213 0.777397
H21_4 H 0.70928 0.0405964 0.965539
H22_4 H 0.633499 0.245946 0.78029
H23_4 H 0.553323 0.250132 0.958367
H24_4 H 0.706648 0.182968 0.972855
O1_4 O 0.60675(6) 0.31417(13) 0.07955(13)
N1_4 N 0.66416(7) 0.43960(15) 0.05458(19)
C1_4 C 0.57940(8) 0.35400(17) 0.05353(19)
C3_4 C 0.68581(9) 0.48083(19) 0.00547(19)
C4_4 C 0.64129(9) 0.47930(19) 0.1030(2)
C5_4 C 0.54554(9) 0.36251(19) 0.10646(18)
C7_4 C 0.68498(9) 0.5604(2) 0.0003(2)
C8_4 C 0.63838(9) 0.5593(2) 0.1026(2)
C9_4 C 0.54895(10) 0.3439(3) 0.1850(2)
C10_4 C 0.51125(9) 0.3904(2) 0.0784(2)
C13_4 C 0.66052(9) 0.60125(19) 0.0486(2)
C14_4 C 0.51885(10) 0.3535(3) 0.2349(2)
C15_4 C 0.48041(10) 0.3971(2) 0.1286(2)
C18_4 C 0.65866(9) 0.6863(2) 0.0455(2)
C21_4 C 0.48393(9) 0.3790(2) 0.2071(2)
S1_4 S 0.62566(3) 0.73752(5) 0.10283(6)
N5_4 N 0.68152(9) 0.72851(17) 0.00129(18)
C25_4 C 0.45076(10) 0.3845(2) 0.2617(2)
C27_4 C 0.64485(10) 0.82226(19) 0.0664(2)
C28_4 C 0.67345(10) 0.8044(2) 0.0143(2)
N6_4 N 0.63698(9) 0.89860(18) 0.0802(2)
C31_4 C 0.66015(10) 0.9406(2) 0.0380(2)
H1_4 H 0.508473 0.407 0.0172795
H3_4 H 0.522345 0.34103 0.296853
H6_4 H 0.453138 0.416819 0.105969
H11_4 H 0.624165 0.446793 0.144705
H12_4 H 0.575795 0.321453 0.207211
H15_4 H 0.619454 0.58916 0.142999
O2_4 O 0.67928(7) 0.31170(14) 0.94031(14)
C2_4 C 0.67821(8) 0.33602(18) 0.8723(2)
O5_4 O 0.57792(6) 0.38680(13) 0.98830(13)
O6_4 O 0.65266(6) 0.37920(13) 0.84363(14)
C6_4 C 0.70911(9) 0.30905(19) 0.81878(19)
C11_4 C 0.70475(10) 0.3165(2) 0.7379(2)
C12_4 C 0.74084(9) 0.2709(2) 0.8481(2)
N3_4 N 0.60132(7) 0.50797(15) 0.87943(19)
C16_4 C 0.73110(10) 0.2836(2) 0.68743(19)
C17_4 C 0.76771(9) 0.2397(2) 0.7982(2)
C19_4 C 0.62343(9) 0.5464(2) 0.8297(2)
C20_4 C 0.57994(11) 0.5500(2) 0.9287(2)
C22_4 C 0.76244(9) 0.2449(2) 0.7173(2)
C23_4 C 0.62489(10) 0.6268(2) 0.8246(2)
C24_4 C 0.57897(11) 0.6306(2) 0.9270(2)
C26_4 C 0.79088(9) 0.2105(2) 0.6616(2)
C29_4 C 0.60153(9) 0.66974(19) 0.8741(2)
S2_4 S 0.69260(3) 0.88981(5) 0.97907(6)
C30_4 C 0.60042(9) 0.75539(19) 0.8710(2)
S3_4 S 0.62826(3) 0.80735(5) 0.80421(6)
N7_4 N 0.57838(10) 0.79605(17) 0.91676(18)
C33_4 C 0.60883(11) 0.8915(2) 0.8421(2)
C34_4 C 0.58365(12) 0.8730(2) 0.8999(2)
N8_4 N 0.61440(9) 0.96784(18) 0.82504(19)
S4_4 S 0.56483(3) 0.95710(5) 0.93857(6)
H2_4 H 0.70524 0.449411 0.967342
H4_4 H 0.703213 0.590826 0.958993
H5_4 H 0.744591 0.26551 0.911015
H7_4 H 0.727158 0.288184 0.6245
H8_4 H 0.641479 0.512776 0.790619
H9_4 H 0.562652 0.519665 0.971756
H10_4 H 0.680552 0.348283 0.714406
H13_4 H 0.792863 0.211206 0.821723
H14_4 H 0.643729 0.655442 0.783151
H18_4 H 0.560629 0.662539 0.966927
Zn1_2 Zn 0.66250(2) 0.68504(2) 0.55317(2)
O1_5 O 0.60675(6) 0.68583(13) 0.57955(13)
O2_5 O 0.67928(7) 0.68830(14) 0.44031(14)
N1_5 N 0.66416(7) 0.56040(15) 0.55458(19)
O3_3 O 0.67648(7) 0.69322(15) 0.68475(15)
O4_3 O 0.71879(7) 0.70348(15) 0.59090(14)
N2_3 N 0.65918(8) 0.81181(16) 0.5464(2)
C1_5 C 0.57940(8) 0.64600(17) 0.55353(19)
C2_5 C 0.67821(8) 0.66398(18) 0.3723(2)
C3_5 C 0.68581(9) 0.51917(19) 0.50547(19)
C4_5 C 0.64129(9) 0.52070(19) 0.6030(2)
O5_5 O 0.57792(6) 0.61320(13) 0.48830(13)
C5_5 C 0.54554(9) 0.63749(19) 0.60646(18)
O6_5 O 0.65266(6) 0.62080(13) 0.34363(14)
C6_5 C 0.70911(9) 0.69095(19) 0.31878(19)
C7_5 C 0.68498(9) 0.4396(2) 0.5003(2)
C8_5 C 0.63838(9) 0.4407(2) 0.6026(2)
Zn2_2 Zn 0.59722(2) 0.61615(2) 0.37683(2)
C9_5 C 0.54895(10) 0.6561(3) 0.6850(2)
C10_5 C 0.51125(9) 0.6096(2) 0.5784(2)
C11_5 C 0.70475(10) 0.6835(2) 0.2379(2)
C12_5 C 0.74084(9) 0.7291(2) 0.3481(2)
C13_5 C 0.66052(9) 0.39875(19) 0.5486(2)
N3_5 N 0.60132(7) 0.49203(15) 0.37943(19)
O7_3 O 0.54217(7) 0.61426(15) 0.33475(15)
O8_3 O 0.58219(7) 0.61359(17) 0.23650(17)
N4_3 N 0.59421(7) 0.74292(15) 0.37119(19)
C14_5 C 0.51885(10) 0.6465(3) 0.7349(2)
C15_5 C 0.48041(10) 0.6029(2) 0.6286(2)
C16_5 C 0.73110(10) 0.7164(2) 0.18743(19)
C17_5 C 0.76771(9) 0.7603(2) 0.2982(2)
C18_5 C 0.65866(9) 0.3137(2) 0.5455(2)
C19_5 C 0.62343(9) 0.4536(2) 0.3297(2)
C20_5 C 0.57994(11) 0.4500(2) 0.4287(2)
C21_5 C 0.48393(9) 0.6210(2) 0.7071(2)
C22_5 C 0.76244(9) 0.7551(2) 0.2173(2)
S1_5 S 0.62566(3) 0.26248(5) 0.60283(6)
N5_5 N 0.68152(9) 0.27149(17) 0.50129(18)
C23_5 C 0.62489(10) 0.3732(2) 0.3246(2)
C24_5 C 0.57897(11) 0.3694(2) 0.4270(2)
C25_5 C 0.45076(10) 0.6155(2) 0.7617(2)
C26_5 C 0.79088(9) 0.7895(2) 0.1616(2)
C27_5 C 0.64485(10) 0.17774(19) 0.5664(2)
C28_5 C 0.67345(10) 0.1956(2) 0.5143(2)
C29_5 C 0.60153(9) 0.33026(19) 0.3741(2)
N6_5 N 0.63698(9) 0.10140(18) 0.5802(2)
S2_5 S 0.69260(3) 0.11019(5) 0.47907(6)
C30_5 C 0.60042(9) 0.24461(19) 0.3710(2)
C31_5 C 0.66015(10) 0.0594(2) 0.5380(2)
S3_5 S 0.62826(3) 0.19265(5) 0.30421(6)
N7_5 N 0.57838(10) 0.20395(17) 0.41676(18)
C33_5 C 0.60883(11) 0.1085(2) 0.3421(2)
C34_5 C 0.58365(12) 0.1270(2) 0.3999(2)
N8_5 N 0.61440(9) 0.03216(18) 0.32504(19)
S4_5 S 0.56483(3) 0.04290(5) 0.43857(6)
O9_3 O 0.45783(7) 0.61426(15) 0.83475(15)
O10_3 O 0.41781(7) 0.61359(17) 0.73650(17)
O11_3 O 0.82352(7) 0.80678(15) 0.18475(15)
O12_3 O 0.78121(7) 0.79652(15) 0.09090(14)
Zn3_3 Zn 0.40278(2) 0.61615(2) 0.87683(2)
Zn4_3 Zn 0.83750(2) 0.81496(2) 0.05317(2)
H1_5 H 0.508473 0.593 0.517279
H2_5 H 0.70524 0.550589 0.467342
H3_5 H 0.522345 0.65897 0.796853
H4_5 H 0.703213 0.409174 0.458993
H5_5 H 0.744591 0.73449 0.411015
H6_5 H 0.453138 0.583181 0.605969
H7_5 H 0.727158 0.711816 0.1245
H8_5 H 0.641479 0.487224 0.290619
H9_5 H 0.562652 0.480335 0.471756
H10_5 H 0.680552 0.651717 0.214406
H11_5 H 0.624165 0.553207 0.644705
H12_5 H 0.575795 0.678547 0.707211
H13_5 H 0.792863 0.788794 0.321723
H14_5 H 0.643729 0.344558 0.283151
H15_5 H 0.619454 0.41084 0.642999
H18_5 H 0.560629 0.337461 0.466927
C32_5 C 0.65987(9) 0.9737(2) 0.5394(2)
C35_5 C 0.68720(11) 0.9308(2) 0.4996(2)
C36_5 C 0.63239(10) 0.9347(2) 0.5823(2)
C37_5 C 0.68548(11) 0.8507(2) 0.5046(2)
C38_5 C 0.63306(10) 0.8544(2) 0.5841(2)
C39_5 C 0.59297(10) 0.99113(19) 0.3718(2)
C40_5 C 0.59262(9) 0.9057(2) 0.3715(2)
C41_5 C 0.61548(11) 0.8649(2) 0.3193(2)
C42_5 C 0.57041(11) 0.8630(2) 0.4224(2)
C43_5 C 0.61537(10) 0.7850(2) 0.3214(2)
C44_5 C 0.57176(10) 0.7825(2) 0.4192(2)
H16_5 H 0.552088 0.892142 0.464471
H17_5 H 0.610644 0.966795 0.614043
H19_5 H 0.633199 0.895787 0.277397
H20_5 H 0.61132 0.824291 0.617769
H21_5 H 0.70928 0.959404 0.465539
H22_5 H 0.633499 0.754054 0.28029
H23_5 H 0.553323 0.749868 0.458367
H24_5 H 0.706648 0.817032 0.472855
C7_6 C 0.18498(9) 0.0604(2) 0.5003(2)
C8_6 C 0.13838(9) 0.0593(2) 0.6026(2)
C13_6 C 0.16052(9) 0.10125(19) 0.5486(2)
N3_6 N 0.10132(7) 0.00797(15) 0.37943(19)
C18_6 C 0.15866(9) 0.1863(2) 0.5455(2)
C19_6 C 0.12343(9) 0.0464(2) 0.3297(2)
C20_6 C 0.07994(11) 0.0500(2) 0.4287(2)
S1_6 S 0.12566(3) 0.23752(5) 0.60283(6)
N5_6 N 0.18152(9) 0.22851(17) 0.50129(18)
C23_6 C 0.12489(10) 0.1268(2) 0.3246(2)
C24_6 C 0.07897(11) 0.1306(2) 0.4270(2)
C27_6 C 0.14485(10) 0.32226(19) 0.5664(2)
C28_6 C 0.17345(10) 0.3044(2) 0.5143(2)
C29_6 C 0.10153(9) 0.16974(19) 0.3741(2)
N6_6 N 0.13698(9) 0.39860(18) 0.5802(2)
S2_6 S 0.19260(3) 0.38981(5) 0.47907(6)
C30_6 C 0.10042(9) 0.25539(19) 0.3710(2)
C31_6 C 0.16015(10) 0.4406(2) 0.5380(2)
S3_6 S 0.12826(3) 0.30735(5) 0.30421(6)
N7_6 N 0.07838(10) 0.29605(17) 0.41676(18)
C32_6 C 0.15987(9) 0.5263(2) 0.5394(2)
C33_6 C 0.10883(11) 0.3915(2) 0.3421(2)
C34_6 C 0.08365(12) 0.3730(2) 0.3999(2)
C35_6 C 0.18720(11) 0.5692(2) 0.4996(2)
C36_6 C 0.13239(10) 0.5653(2) 0.5823(2)
N8_6 N 0.11440(9) 0.46784(18) 0.32504(19)
S4_6 S 0.06483(3) 0.45710(5) 0.43857(6)
C37_6 C 0.18548(11) 0.6493(2) 0.5046(2)
C38_6 C 0.13306(10) 0.6456(2) 0.5841(2)
C39_6 C 0.09297(10) 0.50887(19) 0.3718(2)
C40_6 C 0.09262(9) 0.5943(2) 0.3715(2)
C41_6 C 0.11548(11) 0.6351(2) 0.3193(2)
C42_6 C 0.07041(11) 0.6370(2) 0.4224(2)
C43_6 C 0.11537(10) 0.7150(2) 0.3214(2)
C44_6 C 0.07176(10) 0.7175(2) 0.4192(2)
N9_3 N 0.15918(8) 0.68819(16) 0.5464(2)
Zn5_2 Zn 0.16250(2) 0.81496(2) 0.55317(2)
N10_3 N 0.09421(7) 0.75708(15) 0.37119(19)
Zn6_2 Zn 0.09722(2) 0.88385(2) 0.37683(2)
H4_6 H 0.203213 0.0908264 0.458993
H8_6 H 0.141479 0.0127763 0.290619
H9_6 H 0.0626524 0.0196653 0.471756
H14_6 H 0.143729 0.155442 0.283151
H15_6 H 0.119454 0.0891596 0.642999
H16_6 H 0.0520883 0.607858 0.464471
H17_6 H 0.110644 0.533205 0.614043
H18_6 H 0.0606289 0.162539 0.466927
H19_6 H 0.133199 0.604213 0.277397
H20_6 H 0.11132 0.675709 0.617769
H21_6 H 0.20928 0.540596 0.465539
H22_6 H 0.133499 0.745946 0.28029
H23_6 H 0.0533231 0.750132 0.458367
H24_6 H 0.206648 0.682968 0.472855
O1_6 O 0.10675(6) 0.81417(13) 0.57955(13)
O2_6 O 0.17928(7) 0.81170(14) 0.44031(14)
N1_6 N 0.16416(7) 0.93960(15) 0.55458(19)
O3_4 O 0.17648(7) 0.80678(15) 0.68475(15)
O4_4 O 0.21879(7) 0.79652(15) 0.59090(14)
C1_6 C 0.07940(8) 0.85400(17) 0.55353(19)
C2_6 C 0.17821(8) 0.83602(18) 0.3723(2)
C3_6 C 0.18581(9) 0.98083(19) 0.50547(19)
C4_6 C 0.14129(9) 0.97930(19) 0.6030(2)
O5_6 O 0.07792(6) 0.88680(13) 0.48830(13)
C5_6 C 0.04554(9) 0.86251(19) 0.60646(18)
O6_6 O 0.15266(6) 0.87920(13) 0.34363(14)
C6_6 C 0.20911(9) 0.80905(19) 0.31878(19)
C9_6 C 0.04895(10) 0.8439(3) 0.6850(2)
C10_6 C 0.01125(9) 0.8904(2) 0.5784(2)
C11_6 C 0.20475(10) 0.8165(2) 0.2379(2)
C12_6 C 0.24084(9) 0.7709(2) 0.3481(2)
O7_4 O 0.04217(7) 0.88574(15) 0.33475(15)
O8_4 O 0.08219(7) 0.88641(17) 0.23650(17)
C14_6 C 0.01885(10) 0.8535(3) 0.7349(2)
C16_6 C 0.23110(10) 0.7836(2) 0.18743(19)
C17_6 C 0.26771(9) 0.7397(2) 0.2982(2)
C22_6 C 0.26244(9) 0.7449(2) 0.2173(2)
C26_6 C 0.29088(9) 0.7105(2) 0.1616(2)
O11_4 O 0.32352(7) 0.69322(15) 0.18475(15)
O12_4 O 0.28121(7) 0.70348(15) 0.09090(14)
Zn4_4 Zn 0.33750(2) 0.68504(2) 0.05317(2)
H1_6 H 0.00847278 0.907 0.517279
H2_6 H 0.20524 0.949411 0.467342
H3_6 H 0.022345 0.84103 0.796853
H5_6 H 0.244591 0.76551 0.411015
H7_6 H 0.227158 0.788184 0.1245
H10_6 H 0.180552 0.848283 0.214406
H11_6 H 0.124165 0.946793 0.644705
H12_6 H 0.075795 0.821453 0.707211
H13_6 H 0.292863 0.711206 0.321723
C15_6 C 0.98041(10) 0.8971(2) 0.6286(2)
C21_6 C 0.98393(9) 0.8790(2) 0.7071(2)
C25_6 C 0.95076(10) 0.8845(2) 0.7617(2)
O9_4 O 0.95783(7) 0.88574(15) 0.83475(15)
O10_4 O 0.91781(7) 0.88641(17) 0.73650(17)
Zn3_4 Zn 0.90278(2) 0.88385(2) 0.87683(2)
H6_6 H 0.953138 0.916819 0.605969
C15_7 C 0.01959(10) 0.8971(2) 0.1286(2)
C21_7 C 0.01607(9) 0.8790(2) 0.2071(2)
C25_7 C 0.04924(10) 0.8845(2) 0.2617(2)
H6_7 H 0.0468616 0.916819 0.105969
C7_7 C 0.81502(9) 0.0604(2) 0.0003(2)
C8_7 C 0.86162(9) 0.0593(2) 0.1026(2)
C13_7 C 0.83948(9) 0.10125(19) 0.0486(2)
C18_7 C 0.84134(9) 0.1863(2) 0.0455(2)
S1_7 S 0.87434(3) 0.23752(5) 0.10283(6)
N5_7 N 0.81848(9) 0.22851(17) 0.00129(18)
C27_7 C 0.85515(10) 0.32226(19) 0.0664(2)
C28_7 C 0.82655(10) 0.3044(2) 0.0143(2)
N6_7 N 0.86302(9) 0.39860(18) 0.0802(2)
C31_7 C 0.83985(10) 0.4406(2) 0.0380(2)
C32_7 C 0.84013(9) 0.5263(2) 0.0394(2)
C36_7 C 0.86761(10) 0.5653(2) 0.0823(2)
C37_7 C 0.81452(11) 0.6493(2) 0.0046(2)
C38_7 C 0.86694(10) 0.6456(2) 0.0841(2)
N9_4 N 0.84082(8) 0.68819(16) 0.0464(2)
H15_7 H 0.880546 0.0891596 0.142999
H17_7 H 0.889356 0.533205 0.114043
H20_7 H 0.88868 0.675709 0.117769
N3_7 N 0.89868(7) 0.00797(15) 0.87943(19)
C19_7 C 0.87657(9) 0.0464(2) 0.8297(2)
C20_7 C 0.92006(11) 0.0500(2) 0.9287(2)
C23_7 C 0.87511(10) 0.1268(2) 0.8246(2)
C24_7 C 0.92103(11) 0.1306(2) 0.9270(2)
C29_7 C 0.89847(9) 0.16974(19) 0.8741(2)
S2_7 S 0.80740(3) 0.38981(5) 0.97907(6)
C30_7 C 0.89958(9) 0.25539(19) 0.8710(2)
S3_7 S 0.87174(3) 0.30735(5) 0.80421(6)
N7_7 N 0.92162(10) 0.29605(17) 0.91676(18)
C33_7 C 0.89117(11) 0.3915(2) 0.8421(2)
C34_7 C 0.91635(12) 0.3730(2) 0.8999(2)
C35_7 C 0.81280(11) 0.5692(2) 0.9996(2)
N8_7 N 0.88560(9) 0.46784(18) 0.82504(19)
S4_7 S 0.93517(3) 0.45710(5) 0.93857(6)
C39_7 C 0.90703(10) 0.50887(19) 0.8718(2)
C40_7 C 0.90738(9) 0.5943(2) 0.8715(2)
C41_7 C 0.88452(11) 0.6351(2) 0.8193(2)
C42_7 C 0.92959(11) 0.6370(2) 0.9224(2)
C43_7 C 0.88463(10) 0.7150(2) 0.8214(2)
C44_7 C 0.92824(10) 0.7175(2) 0.9192(2)
N10_4 N 0.90579(7) 0.75708(15) 0.87119(19)
H4_7 H 0.796787 0.0908264 0.958993
H8_7 H 0.858521 0.0127763 0.790619
H9_7 H 0.937348 0.0196653 0.971756
H14_7 H 0.856271 0.155442 0.783151
H16_7 H 0.947912 0.607858 0.964471
H18_7 H 0.939371 0.162539 0.966927
H19_7 H 0.866801 0.604213 0.777397
H21_7 H 0.79072 0.540596 0.965539
H22_7 H 0.866501 0.745946 0.78029
H23_7 H 0.946677 0.750132 0.958367
H24_7 H 0.793352 0.682968 0.972855
O1_7 O 0.89325(6) 0.81417(13) 0.07955(13)
N1_7 N 0.83584(7) 0.93960(15) 0.05458(19)
C1_7 C 0.92060(8) 0.85400(17) 0.05353(19)
C3_7 C 0.81419(9) 0.98083(19) 0.00547(19)
C4_7 C 0.85871(9) 0.97930(19) 0.1030(2)
C5_7 C 0.95446(9) 0.86251(19) 0.10646(18)
C9_7 C 0.95105(10) 0.8439(3) 0.1850(2)
C10_7 C 0.98875(9) 0.8904(2) 0.0784(2)
C14_7 C 0.98115(10) 0.8535(3) 0.2349(2)
H1_7 H 0.991527 0.907 0.0172795
H3_7 H 0.977655 0.84103 0.296853
H11_7 H 0.875835 0.946793 0.144705
H12_7 H 0.924205 0.821453 0.207211
O2_7 O 0.82072(7) 0.81170(14) 0.94031(14)
C2_7 C 0.82179(8) 0.83602(18) 0.8723(2)
O5_7 O 0.92208(6) 0.88680(13) 0.98830(13)
O6_7 O 0.84734(6) 0.87920(13) 0.84363(14)
C6_7 C 0.79089(9) 0.80905(19) 0.81878(19)
C11_7 C 0.79525(10) 0.8165(2) 0.7379(2)
C12_7 C 0.75916(9) 0.7709(2) 0.8481(2)
C16_7 C 0.76890(10) 0.7836(2) 0.68743(19)
C17_7 C 0.73229(9) 0.7397(2) 0.7982(2)
C22_7 C 0.73756(9) 0.7449(2) 0.7173(2)
C26_7 C 0.70912(9) 0.7105(2) 0.6616(2)
H2_7 H 0.79476 0.949411 0.967342
H5_7 H 0.755409 0.76551 0.911015
H7_7 H 0.772842 0.788184 0.6245
H10_7 H 0.819448 0.848283 0.714406
H13_7 H 0.707137 0.711206 0.821723
O1_8 O 0.39325(6) 0.68583(13) 0.07955(13)
N1_8 N 0.33584(7) 0.56040(15) 0.05458(19)
N2_4 N 0.34082(8) 0.81181(16) 0.0464(2)
C1_8 C 0.42060(8) 0.64600(17) 0.05353(19)
C3_8 C 0.31419(9) 0.51917(19) 0.00547(19)
C4_8 C 0.35871(9) 0.52070(19) 0.1030(2)
C5_8 C 0.45446(9) 0.63749(19) 0.10646(18)
C7_8 C 0.31502(9) 0.4396(2) 0.0003(2)
C8_8 C 0.36162(9) 0.4407(2) 0.1026(2)
C9_8 C 0.45105(10) 0.6561(3) 0.1850(2)
C10_8 C 0.48875(9) 0.6096(2) 0.0784(2)
C13_8 C 0.33948(9) 0.39875(19) 0.0486(2)
C14_8 C 0.48115(10) 0.6465(3) 0.2349(2)
C15_8 C 0.51959(10) 0.6029(2) 0.1286(2)
C18_8 C 0.34134(9) 0.3137(2) 0.0455(2)
C21_8 C 0.51607(9) 0.6210(2) 0.2071(2)
S1_8 S 0.37434(3) 0.26248(5) 0.10283(6)
N5_8 N 0.31848(9) 0.27149(17) 0.00129(18)
C25_8 C 0.54924(10) 0.6155(2) 0.2617(2)
C27_8 C 0.35515(10) 0.17774(19) 0.0664(2)
C28_8 C 0.32655(10) 0.1956(2) 0.0143(2)
N6_8 N 0.36302(9) 0.10140(18) 0.0802(2)
C31_8 C 0.33985(10) 0.0594(2) 0.0380(2)
H1_8 H 0.491527 0.593 0.0172795
H3_8 H 0.477655 0.65897 0.296853
H6_8 H 0.546862 0.583181 0.105969
H11_8 H 0.375835 0.553207 0.144705
H12_8 H 0.424205 0.678547 0.207211
H15_8 H 0.380546 0.41084 0.142999
O2_8 O 0.32072(7) 0.68830(14) 0.94031(14)
C2_8 C 0.32179(8) 0.66398(18) 0.8723(2)
O5_8 O 0.42208(6) 0.61320(13) 0.98830(13)
O6_8 O 0.34734(6) 0.62080(13) 0.84363(14)
C6_8 C 0.29089(9) 0.69095(19) 0.81878(19)
C11_8 C 0.29525(10) 0.6835(2) 0.7379(2)
C12_8 C 0.25916(9) 0.7291(2) 0.8481(2)
N3_8 N 0.39868(7) 0.49203(15) 0.87943(19)
N4_4 N 0.40579(7) 0.74292(15) 0.87119(19)
C16_8 C 0.26890(10) 0.7164(2) 0.68743(19)
C17_8 C 0.23229(9) 0.7603(2) 0.7982(2)
C19_8 C 0.37657(9) 0.4536(2) 0.8297(2)
C20_8 C 0.42006(11) 0.4500(2) 0.9287(2)
C22_8 C 0.23756(9) 0.7551(2) 0.7173(2)
C23_8 C 0.37511(10) 0.3732(2) 0.8246(2)
C24_8 C 0.42103(11) 0.3694(2) 0.9270(2)
C26_8 C 0.20912(9) 0.7895(2) 0.6616(2)
C29_8 C 0.39847(9) 0.33026(19) 0.8741(2)
S2_8 S 0.30740(3) 0.11019(5) 0.97907(6)
C30_8 C 0.39958(9) 0.24461(19) 0.8710(2)
S3_8 S 0.37174(3) 0.19265(5) 0.80421(6)
N7_8 N 0.42162(10) 0.20395(17) 0.91676(18)
C33_8 C 0.39117(11) 0.1085(2) 0.8421(2)
C34_8 C 0.41635(12) 0.1270(2) 0.8999(2)
N8_8 N 0.38560(9) 0.03216(18) 0.82504(19)
S4_8 S 0.43517(3) 0.04290(5) 0.93857(6)
H2_8 H 0.29476 0.550589 0.967342
H4_8 H 0.296787 0.409174 0.958993
H5_8 H 0.255409 0.73449 0.911015
H7_8 H 0.272842 0.711816 0.6245
H8_8 H 0.358521 0.487224 0.790619
H9_8 H 0.437348 0.480335 0.971756
H10_8 H 0.319448 0.651717 0.714406
H13_8 H 0.207137 0.788794 0.821723
H14_8 H 0.356271 0.344558 0.783151
H18_8 H 0.439371 0.337461 0.966927
C32_8 C 0.34013(9) 0.9737(2) 0.0394(2)
C36_8 C 0.36761(10) 0.9347(2) 0.0823(2)
C37_8 C 0.31452(11) 0.8507(2) 0.0046(2)
C38_8 C 0.36694(10) 0.8544(2) 0.0841(2)
H17_8 H 0.389356 0.966795 0.114043
H20_8 H 0.38868 0.824291 0.117769
C35_8 C 0.31280(11) 0.9308(2) 0.9996(2)
C39_8 C 0.40703(10) 0.99113(19) 0.8718(2)
C40_8 C 0.40738(9) 0.9057(2) 0.8715(2)
C41_8 C 0.38452(11) 0.8649(2) 0.8193(2)
C42_8 C 0.42959(11) 0.8630(2) 0.9224(2)
C43_8 C 0.38463(10) 0.7850(2) 0.8214(2)
C44_8 C 0.42824(10) 0.7825(2) 0.9192(2)
H16_8 H 0.447912 0.892142 0.964471
H19_8 H 0.366801 0.895787 0.777397
H21_8 H 0.29072 0.959404 0.965539
H22_8 H 0.366501 0.754054 0.78029
H23_8 H 0.446677 0.749868 0.958367
H24_8 H 0.293352 0.817032 0.972855
loop_
_geom_bond_atom_site_label_1
_geom_bond_atom_site_label_2
_geom_bond_site_symmetry_1
_geom_bond_site_symmetry_2
C35 C32 1_555 1_555
C36 C32 1_555 1_555
C37 C35 1_555 1_555
C38 C36 1_555 1_555
C40 C39 1_555 1_555
C41 C40 1_555 1_555
C42 C40 1_555 1_555
C43 C41 1_555 1_555
C44 C42 1_555 1_555
N9 C37 1_555 1_555
Zn5 N9 1_555 1_555
N10 C43 1_555 1_555
Zn6 N10 1_555 1_555
C38 N9 1_555 1_555
C44 N10 1_555 1_555
C42 H16 1_555 1_555
C36 H17 1_555 1_555
C41 H19 1_555 1_555
C38 H20 1_555 1_555
C35 H21 1_555 1_555
C43 H22 1_555 1_555
C44 H23 1_555 1_555
C37 H24 1_555 1_555
Zn5 O1 1_555 1_555
O1 C1 1_555 1_555
O2 Zn5 1_555 1_555
N1 Zn5 1_555 1_555
O3 Zn5 1_555 1_555
O4 Zn5 1_555 1_555
C1 O5 1_555 1_555
C2 O2 1_555 1_555
C3 N1 1_555 1_555
C4 N1 1_555 1_555
O5 Zn6 1_555 1_555
C5 C1 1_555 1_555
O6 C2 1_555 1_555
C6 C2 1_555 1_555
C7 C3 1_555 1_555
C8 C4 1_555 1_555
Zn6 O6 1_555 1_555
C9 C5 1_555 1_555
C10 C5 1_555 1_555
C11 C6 1_555 1_555
C12 C6 1_555 1_555
C13 C7 1_555 1_555
N3 Zn6 1_555 1_555
O7 Zn6 1_555 1_555
O8 Zn6 1_555 1_555
C14 C9 1_555 1_555
C15 C10 1_555 1_555
C16 C11 1_555 1_555
C17 C12 1_555 1_555
C18 C13 1_555 1_555
C19 N3 1_555 1_555
C20 N3 1_555 1_555
C21 C14 1_555 1_555
C22 C16 1_555 1_555
S1 C18 1_555 1_555
N5 C18 1_555 1_555
C23 C19 1_555 1_555
C24 C20 1_555 1_555
C25 C21 1_555 1_555
C26 C22 1_555 1_555
C27 S1 1_555 1_555
C28 N5 1_555 1_555
C29 C23 1_555 1_555
N6 C27 1_555 1_555
S2 C28 1_555 1_555
C30 C29 1_555 1_555
C31 N6 1_555 1_555
S3 C30 1_555 1_555
N7 C30 1_555 1_555
C33 S3 1_555 1_555
C34 N7 1_555 1_555
N8 C33 1_555 1_555
S4 C34 1_555 1_555
O9 C25 1_555 1_555
O10 C25 1_555 1_555
O11 C26 1_555 1_555
O12 C26 1_555 1_555
Zn3 O9 1_555 1_555
Zn4 O11 1_555 1_555
C8 C13 1_555 1_555
C15 C21 1_555 1_555
C17 C22 1_555 1_555
C24 C29 1_555 1_555
C27 C28 1_555 1_555
S2 C31 1_555 1_555
C33 C34 1_555 1_555
O10 Zn3 1_555 1_555
O12 Zn4 1_555 1_555
C10 H1 1_555 1_555
C3 H2 1_555 1_555
C14 H3 1_555 1_555
C7 H4 1_555 1_555
C12 H5 1_555 1_555
C15 H6 1_555 1_555
C16 H7 1_555 1_555
C19 H8 1_555 1_555
C20 H9 1_555 1_555
C11 H10 1_555 1_555
C4 H11 1_555 1_555
C9 H12 1_555 1_555
C17 H13 1_555 1_555
C23 H14 1_555 1_555
C8 H15 1_555 1_555
C24 H18 1_555 1_555
C25_2 C21_2 1_555 1_555
O9_2 C25_2 1_555 1_555
O10_2 C25_2 1_555 1_555
Zn3_2 O9_2 1_555 1_555
C15_2 C21_2 1_555 1_555
O10_2 Zn3_2 1_555 1_555
C15_2 H6_2 1_555 1_555
Zn1 O1_2 1_555 1_555
O1_2 C1_2 1_555 1_555
O2_2 Zn1 1_555 1_555
N1_2 Zn1 1_555 1_555
O3_2 Zn1 1_555 1_555
O4_2 Zn1 1_555 1_555
N2 Zn1 1_555 1_555
C1_2 O5_2 1_555 1_555
C2_2 O2_2 1_555 1_555
C3_2 N1_2 1_555 1_555
C4_2 N1_2 1_555 1_555
O5_2 Zn2 1_555 1_555
C5_2 C1_2 1_555 1_555
O6_2 C2_2 1_555 1_555
C6_2 C2_2 1_555 1_555
Zn2 O6_2 1_555 1_555
C9_2 C5_2 1_555 1_555
C10_2 C5_2 1_555 1_555
C11_2 C6_2 1_555 1_555
C12_2 C6_2 1_555 1_555
O7_2 Zn2 1_555 1_555
O8_2 Zn2 1_555 1_555
N4 Zn2 1_555 1_555
C14_2 C9_2 1_555 1_555
C16_2 C11_2 1_555 1_555
C17_2 C12_2 1_555 1_555
C22_2 C16_2 1_555 1_555
C26_2 C22_2 1_555 1_555
O11_2 C26_2 1_555 1_555
O12_2 C26_2 1_555 1_555
Zn4_2 O11_2 1_555 1_555
C17_2 C22_2 1_555 1_555
O12_2 Zn4_2 1_555 1_555
C10_2 H1_2 1_555 1_555
C3_2 H2_2 1_555 1_555
C14_2 H3_2 1_555 1_555
C12_2 H5_2 1_555 1_555
C16_2 H7_2 1_555 1_555
C11_2 H10_2 1_555 1_555
C4_2 H11_2 1_555 1_555
C9_2 H12_2 1_555 1_555
C17_2 H13_2 1_555 1_555
C13_2 C7_2 1_555 1_555
C18_2 C13_2 1_555 1_555
C19_2 N3_2 1_555 1_555
C20_2 N3_2 1_555 1_555
S1_2 C18_2 1_555 1_555
N5_2 C18_2 1_555 1_555
C23_2 C19_2 1_555 1_555
C24_2 C20_2 1_555 1_555
C27_2 S1_2 1_555 1_555
C28_2 N5_2 1_555 1_555
C29_2 C23_2 1_555 1_555
N6_2 C27_2 1_555 1_555
S2_2 C28_2 1_555 1_555
C30_2 C29_2 1_555 1_555
C31_2 N6_2 1_555 1_555
S3_2 C30_2 1_555 1_555
N7_2 C30_2 1_555 1_555
C32_2 C31_2 1_555 1_555
C33_2 S3_2 1_555 1_555
C34_2 N7_2 1_555 1_555
C35_2 C32_2 1_555 1_555
C36_2 C32_2 1_555 1_555
N8_2 C33_2 1_555 1_555
S4_2 C34_2 1_555 1_555
C37_2 C35_2 1_555 1_555
C38_2 C36_2 1_555 1_555
C39_2 N8_2 1_555 1_555
C40_2 C39_2 1_555 1_555
C41_2 C40_2 1_555 1_555
C42_2 C40_2 1_555 1_555
C43_2 C41_2 1_555 1_555
C44_2 C42_2 1_555 1_555
N2 C37_2 1_555 1_555
N4 C43_2 1_555 1_555
C8_2 C13_2 1_555 1_555
C24_2 C29_2 1_555 1_555
C27_2 C28_2 1_555 1_555
S2_2 C31_2 1_555 1_555
C33_2 C34_2 1_555 1_555
S4_2 C39_2 1_555 1_555
C38_2 N2 1_555 1_555
C44_2 N4 1_555 1_555
C7_2 H4_2 1_555 1_555
C19_2 H8_2 1_555 1_555
C20_2 H9_2 1_555 1_555
C23_2 H14_2 1_555 1_555
C8_2 H15_2 1_555 1_555
C42_2 H16_2 1_555 1_555
C36_2 H17_2 1_555 1_555
C24_2 H18_2 1_555 1_555
C41_2 H19_2 1_555 1_555
C38_2 H20_2 1_555 1_555
C35_2 H21_2 1_555 1_555
C43_2 H22_2 1_555 1_555
C44_2 H23_2 1_555 1_555
C37_2 H24_2 1_555 1_555
Zn4 O1_3 1_555 1_555
O1_3 C1_3 1_555 1_555
N1_3 Zn4 1_555 1_555
N2_2 Zn4 1_555 1_555
C3_3 N1_3 1_555 1_555
C4_3 N1_3 1_555 1_555
C5_3 C1_3 1_555 1_555
C9_3 C5_3 1_555 1_555
C10_3 C5_3 1_555 1_555
C14_3 C9_3 1_555 1_555
C10_3 H1_3 1_555 1_555
C14_3 H3_3 1_555 1_555
C4_3 H11_3 1_555 1_555
C9_3 H12_3 1_555 1_555
C2_3 O2_3 1_555 1_555
O5_3 Zn3_2 1_555 1_555
O6_3 C2_3 1_555 1_555
C6_3 C2_3 1_555 1_555
Zn3_2 O6_3 1_555 1_555
C11_3 C6_3 1_555 1_555
C12_3 C6_3 1_555 1_555
N4_2 Zn3_2 1_555 1_555
C16_3 C11_3 1_555 1_555
C17_3 C12_3 1_555 1_555
C22_3 C16_3 1_555 1_555
C26_3 C22_3 1_555 1_555
O3 C26_3 1_555 1_555
O4 C26_3 1_555 1_555
C17_3 C22_3 1_555 1_555
C12_3 H5_3 1_555 1_555
C16_3 H7_3 1_555 1_555
C11_3 H10_3 1_555 1_555
C17_3 H13_3 1_555 1_555
C13_3 C7_3 1_555 1_555
C18_3 C13_3 1_555 1_555
S1_3 C18_3 1_555 1_555
N5_3 C18_3 1_555 1_555
C27_3 S1_3 1_555 1_555
C28_3 N5_3 1_555 1_555
N6_3 C27_3 1_555 1_555
C31_3 N6_3 1_555 1_555
C32_3 C31_3 1_555 1_555
C36_3 C32_3 1_555 1_555
C38_3 C36_3 1_555 1_555
N2_2 C37_3 1_555 1_555
C8_3 C13_3 1_555 1_555
C27_3 C28_3 1_555 1_555
C38_3 N2_2 1_555 1_555
C8_3 H15_3 1_555 1_555
C36_3 H17_3 1_555 1_555
C38_3 H20_3 1_555 1_555
C19_3 N3_3 1_555 1_555
C20_3 N3_3 1_555 1_555
C23_3 C19_3 1_555 1_555
C24_3 C20_3 1_555 1_555
C29_3 C23_3 1_555 1_555
C30_3 C29_3 1_555 1_555
S3_3 C30_3 1_555 1_555
N7_3 C30_3 1_555 1_555
C33_3 S3_3 1_555 1_555
C34_3 N7_3 1_555 1_555
N8_3 C33_3 1_555 1_555
S4_3 C34_3 1_555 1_555
C39_3 N8_3 1_555 1_555
C40_3 C39_3 1_555 1_555
C41_3 C40_3 1_555 1_555
C42_3 C40_3 1_555 1_555
C43_3 C41_3 1_555 1_555
C44_3 C42_3 1_555 1_555
N4_2 C43_3 1_555 1_555
C24_3 C29_3 1_555 1_555
C33_3 C34_3 1_555 1_555
S4_3 C39_3 1_555 1_555
C44_3 N4_2 1_555 1_555
C19_3 H8_3 1_555 1_555
C20_3 H9_3 1_555 1_555
C23_3 H14_3 1_555 1_555
C42_3 H16_3 1_555 1_555
C24_3 H18_3 1_555 1_555
C41_3 H19_3 1_555 1_555
C35_3 H21_3 1_555 1_555
C43_3 H22_3 1_555 1_555
C44_3 H23_3 1_555 1_555
C25_3 C21_3 1_555 1_555
O7_2 C25_3 1_555 1_555
O8_2 C25_3 1_555 1_555
C15_3 C21_3 1_555 1_555
C15_3 H6_3 1_555 1_555
C36_4 C32_4 1_555 1_555
C38_4 C36_4 1_555 1_555
N9_2 C37_4 1_555 1_555
Zn4_2 N9_2 1_555 1_555
C38_4 N9_2 1_555 1_555
C36_4 H17_4 1_555 1_555
C38_4 H20_4 1_555 1_555
C40_4 C39_4 1_555 1_555
C41_4 C40_4 1_555 1_555
C42_4 C40_4 1_555 1_555
C43_4 C41_4 1_555 1_555
C44_4 C42_4 1_555 1_555
N10_2 C43_4 1_555 1_555
Zn3 N10_2 1_555 1_555
C44_4 N10_2 1_555 1_555
C42_4 H16_4 1_555 1_555
C41_4 H19_4 1_555 1_555
C35_4 H21_4 1_555 1_555
C43_4 H22_4 1_555 1_555
C44_4 H23_4 1_555 1_555
Zn4_2 O1_4 1_555 1_555
O1_4 C1_4 1_555 1_555
N1_4 Zn4_2 1_555 1_555
C3_4 N1_4 1_555 1_555
C4_4 N1_4 1_555 1_555
C5_4 C1_4 1_555 1_555
C7_4 C3_4 1_555 1_555
C8_4 C4_4 1_555 1_555
C9_4 C5_4 1_555 1_555
C10_4 C5_4 1_555 1_555
C13_4 C7_4 1_555 1_555
C14_4 C9_4 1_555 1_555
C15_4 C10_4 1_555 1_555
C18_4 C13_4 1_555 1_555
C21_4 C14_4 1_555 1_555
S1_4 C18_4 1_555 1_555
N5_4 C18_4 1_555 1_555
C25_4 C21_4 1_555 1_555
C27_4 S1_4 1_555 1_555
C28_4 N5_4 1_555 1_555
N6_4 C27_4 1_555 1_555
C31_4 N6_4 1_555 1_555
O7 C25_4 1_555 1_555
O8 C25_4 1_555 1_555
C8_4 C13_4 1_555 1_555
C15_4 C21_4 1_555 1_555
C27_4 C28_4 1_555 1_555
C10_4 H1_4 1_555 1_555
C14_4 H3_4 1_555 1_555
C15_4 H6_4 1_555 1_555
C4_4 H11_4 1_555 1_555
C9_4 H12_4 1_555 1_555
C8_4 H15_4 1_555 1_555
C2_4 O2_4 1_555 1_555
O5_4 Zn3 1_555 1_555
O6_4 C2_4 1_555 1_555
C6_4 C2_4 1_555 1_555
Zn3 O6_4 1_555 1_555
C11_4 C6_4 1_555 1_555
C12_4 C6_4 1_555 1_555
N3_4 Zn3 1_555 1_555
C16_4 C11_4 1_555 1_555
C17_4 C12_4 1_555 1_555
C19_4 N3_4 1_555 1_555
C20_4 N3_4 1_555 1_555
C22_4 C16_4 1_555 1_555
C23_4 C19_4 1_555 1_555
C24_4 C20_4 1_555 1_555
C26_4 C22_4 1_555 1_555
C29_4 C23_4 1_555 1_555
C30_4 C29_4 1_555 1_555
S3_4 C30_4 1_555 1_555
N7_4 C30_4 1_555 1_555
C33_4 S3_4 1_555 1_555
C34_4 N7_4 1_555 1_555
N8_4 C33_4 1_555 1_555
S4_4 C34_4 1_555 1_555
O3_2 C26_4 1_555 1_555
O4_2 C26_4 1_555 1_555
C17_4 C22_4 1_555 1_555
C24_4 C29_4 1_555 1_555
C33_4 C34_4 1_555 1_555
C12_4 H5_4 1_555 1_555
C16_4 H7_4 1_555 1_555
C19_4 H8_4 1_555 1_555
C20_4 H9_4 1_555 1_555
C11_4 H10_4 1_555 1_555
C17_4 H13_4 1_555 1_555
C23_4 H14_4 1_555 1_555
C24_4 H18_4 1_555 1_555
Zn1_2 O1_5 1_555 1_555
O1_5 C1_5 1_555 1_555
O2_5 Zn1_2 1_555 1_555
N1_5 Zn1_2 1_555 1_555
O3_3 Zn1_2 1_555 1_555
O4_3 Zn1_2 1_555 1_555
N2_3 Zn1_2 1_555 1_555
C1_5 O5_5 1_555 1_555
C2_5 O2_5 1_555 1_555
C3_5 N1_5 1_555 1_555
C4_5 N1_5 1_555 1_555
O5_5 Zn2_2 1_555 1_555
C5_5 C1_5 1_555 1_555
O6_5 C2_5 1_555 1_555
C6_5 C2_5 1_555 1_555
C7_5 C3_5 1_555 1_555
C8_5 C4_5 1_555 1_555
Zn2_2 O6_5 1_555 1_555
C9_5 C5_5 1_555 1_555
C10_5 C5_5 1_555 1_555
C11_5 C6_5 1_555 1_555
C12_5 C6_5 1_555 1_555
C13_5 C7_5 1_555 1_555
N3_5 Zn2_2 1_555 1_555
O7_3 Zn2_2 1_555 1_555
O8_3 Zn2_2 1_555 1_555
N4_3 Zn2_2 1_555 1_555
C14_5 C9_5 1_555 1_555
C15_5 C10_5 1_555 1_555
C16_5 C11_5 1_555 1_555
C17_5 C12_5 1_555 1_555
C18_5 C13_5 1_555 1_555
C19_5 N3_5 1_555 1_555
C20_5 N3_5 1_555 1_555
C21_5 C14_5 1_555 1_555
C22_5 C16_5 1_555 1_555
S1_5 C18_5 1_555 1_555
N5_5 C18_5 1_555 1_555
C23_5 C19_5 1_555 1_555
C24_5 C20_5 1_555 1_555
C25_5 C21_5 1_555 1_555
C26_5 C22_5 1_555 1_555
C27_5 S1_5 1_555 1_555
C28_5 N5_5 1_555 1_555
C29_5 C23_5 1_555 1_555
N6_5 C27_5 1_555 1_555
S2_5 C28_5 1_555 1_555
C30_5 C29_5 1_555 1_555
C31_5 N6_5 1_555 1_555
S3_5 C30_5 1_555 1_555
N7_5 C30_5 1_555 1_555
C33_5 S3_5 1_555 1_555
C34_5 N7_5 1_555 1_555
N8_5 C33_5 1_555 1_555
S4_5 C34_5 1_555 1_555
O9_3 C25_5 1_555 1_555
O10_3 C25_5 1_555 1_555
O11_3 C26_5 1_555 1_555
O12_3 C26_5 1_555 1_555
Zn3_3 O9_3 1_555 1_555
Zn4_3 O11_3 1_555 1_555
C8_5 C13_5 1_555 1_555
C15_5 C21_5 1_555 1_555
C17_5 C22_5 1_555 1_555
C24_5 C29_5 1_555 1_555
C27_5 C28_5 1_555 1_555
S2_5 C31_5 1_555 1_555
C33_5 C34_5 1_555 1_555
O10_3 Zn3_3 1_555 1_555
O12_3 Zn4_3 1_555 1_555
C10_5 H1_5 1_555 1_555
C3_5 H2_5 1_555 1_555
C14_5 H3_5 1_555 1_555
C7_5 H4_5 1_555 1_555
C12_5 H5_5 1_555 1_555
C15_5 H6_5 1_555 1_555
C16_5 H7_5 1_555 1_555
C19_5 H8_5 1_555 1_555
C20_5 H9_5 1_555 1_555
C11_5 H10_5 1_555 1_555
C4_5 H11_5 1_555 1_555
C9_5 H12_5 1_555 1_555
C17_5 H13_5 1_555 1_555
C23_5 H14_5 1_555 1_555
C8_5 H15_5 1_555 1_555
C24_5 H18_5 1_555 1_555
C35_5 C32_5 1_555 1_555
C36_5 C32_5 1_555 1_555
C37_5 C35_5 1_555 1_555
C38_5 C36_5 1_555 1_555
C40_5 C39_5 1_555 1_555
C41_5 C40_5 1_555 1_555
C42_5 C40_5 1_555 1_555
C43_5 C41_5 1_555 1_555
C44_5 C42_5 1_555 1_555
N2_3 C37_5 1_555 1_555
N4_3 C43_5 1_555 1_555
C38_5 N2_3 1_555 1_555
C44_5 N4_3 1_555 1_555
C42_5 H16_5 1_555 1_555
C36_5 H17_5 1_555 1_555
C41_5 H19_5 1_555 1_555
C38_5 H20_5 1_555 1_555
C35_5 H21_5 1_555 1_555
C43_5 H22_5 1_555 1_555
C44_5 H23_5 1_555 1_555
C37_5 H24_5 1_555 1_555
C13_6 C7_6 1_555 1_555
C18_6 C13_6 1_555 1_555
C19_6 N3_6 1_555 1_555
C20_6 N3_6 1_555 1_555
S1_6 C18_6 1_555 1_555
N5_6 C18_6 1_555 1_555
C23_6 C19_6 1_555 1_555
C24_6 C20_6 1_555 1_555
C27_6 S1_6 1_555 1_555
C28_6 N5_6 1_555 1_555
C29_6 C23_6 1_555 1_555
N6_6 C27_6 1_555 1_555
S2_6 C28_6 1_555 1_555
C30_6 C29_6 1_555 1_555
C31_6 N6_6 1_555 1_555
S3_6 C30_6 1_555 1_555
N7_6 C30_6 1_555 1_555
C32_6 C31_6 1_555 1_555
C33_6 S3_6 1_555 1_555
C34_6 N7_6 1_555 1_555
C35_6 C32_6 1_555 1_555
C36_6 C32_6 1_555 1_555
N8_6 C33_6 1_555 1_555
S4_6 C34_6 1_555 1_555
C37_6 C35_6 1_555 1_555
C38_6 C36_6 1_555 1_555
C39_6 N8_6 1_555 1_555
C40_6 C39_6 1_555 1_555
C41_6 C40_6 1_555 1_555
C42_6 C40_6 1_555 1_555
C43_6 C41_6 1_555 1_555
C44_6 C42_6 1_555 1_555
N9_3 C37_6 1_555 1_555
Zn5_2 N9_3 1_555 1_555
N10_3 C43_6 1_555 1_555
Zn6_2 N10_3 1_555 1_555
C8_6 C13_6 1_555 1_555
C24_6 C29_6 1_555 1_555
C27_6 C28_6 1_555 1_555
S2_6 C31_6 1_555 1_555
C33_6 C34_6 1_555 1_555
S4_6 C39_6 1_555 1_555
C38_6 N9_3 1_555 1_555
C44_6 N10_3 1_555 1_555
C7_6 H4_6 1_555 1_555
C19_6 H8_6 1_555 1_555
C20_6 H9_6 1_555 1_555
C23_6 H14_6 1_555 1_555
C8_6 H15_6 1_555 1_555
C42_6 H16_6 1_555 1_555
C36_6 H17_6 1_555 1_555
C24_6 H18_6 1_555 1_555
C41_6 H19_6 1_555 1_555
C38_6 H20_6 1_555 1_555
C35_6 H21_6 1_555 1_555
C43_6 H22_6 1_555 1_555
C44_6 H23_6 1_555 1_555
C37_6 H24_6 1_555 1_555
Zn5_2 O1_6 1_555 1_555
O1_6 C1_6 1_555 1_555
O2_6 Zn5_2 1_555 1_555
N1_6 Zn5_2 1_555 1_555
O3_4 Zn5_2 1_555 1_555
O4_4 Zn5_2 1_555 1_555
C1_6 O5_6 1_555 1_555
C2_6 O2_6 1_555 1_555
C3_6 N1_6 1_555 1_555
C4_6 N1_6 1_555 1_555
O5_6 Zn6_2 1_555 1_555
C5_6 C1_6 1_555 1_555
O6_6 C2_6 1_555 1_555
C6_6 C2_6 1_555 1_555
Zn6_2 O6_6 1_555 1_555
C9_6 C5_6 1_555 1_555
C10_6 C5_6 1_555 1_555
C11_6 C6_6 1_555 1_555
C12_6 C6_6 1_555 1_555
O7_4 Zn6_2 1_555 1_555
O8_4 Zn6_2 1_555 1_555
C14_6 C9_6 1_555 1_555
C16_6 C11_6 1_555 1_555
C17_6 C12_6 1_555 1_555
C22_6 C16_6 1_555 1_555
C26_6 C22_6 1_555 1_555
O11_4 C26_6 1_555 1_555
O12_4 C26_6 1_555 1_555
Zn4_4 O11_4 1_555 1_555
C17_6 C22_6 1_555 1_555
O12_4 Zn4_4 1_555 1_555
C10_6 H1_6 1_555 1_555
C3_6 H2_6 1_555 1_555
C14_6 H3_6 1_555 1_555
C12_6 H5_6 1_555 1_555
C16_6 H7_6 1_555 1_555
C11_6 H10_6 1_555 1_555
C4_6 H11_6 1_555 1_555
C9_6 H12_6 1_555 1_555
C17_6 H13_6 1_555 1_555
C25_6 C21_6 1_555 1_555
O9_4 C25_6 1_555 1_555
O10_4 C25_6 1_555 1_555
Zn3_4 O9_4 1_555 1_555
C15_6 C21_6 1_555 1_555
O10_4 Zn3_4 1_555 1_555
C15_6 H6_6 1_555 1_555
C25_7 C21_7 1_555 1_555
O7_4 C25_7 1_555 1_555
O8_4 C25_7 1_555 1_555
C15_7 C21_7 1_555 1_555
C15_7 H6_7 1_555 1_555
C13_7 C7_7 1_555 1_555
C18_7 C13_7 1_555 1_555
S1_7 C18_7 1_555 1_555
N5_7 C18_7 1_555 1_555
C27_7 S1_7 1_555 1_555
C28_7 N5_7 1_555 1_555
N6_7 C27_7 1_555 1_555
C31_7 N6_7 1_555 1_555
C32_7 C31_7 1_555 1_555
C36_7 C32_7 1_555 1_555
C38_7 C36_7 1_555 1_555
N9_4 C37_7 1_555 1_555
Zn4_3 N9_4 1_555 1_555
C8_7 C13_7 1_555 1_555
C27_7 C28_7 1_555 1_555
C38_7 N9_4 1_555 1_555
C8_7 H15_7 1_555 1_555
C36_7 H17_7 1_555 1_555
C38_7 H20_7 1_555 1_555
C19_7 N3_7 1_555 1_555
C20_7 N3_7 1_555 1_555
C23_7 C19_7 1_555 1_555
C24_7 C20_7 1_555 1_555
C29_7 C23_7 1_555 1_555
C30_7 C29_7 1_555 1_555
S3_7 C30_7 1_555 1_555
N7_7 C30_7 1_555 1_555
C33_7 S3_7 1_555 1_555
C34_7 N7_7 1_555 1_555
N8_7 C33_7 1_555 1_555
S4_7 C34_7 1_555 1_555
C39_7 N8_7 1_555 1_555
C40_7 C39_7 1_555 1_555
C41_7 C40_7 1_555 1_555
C42_7 C40_7 1_555 1_555
C43_7 C41_7 1_555 1_555
C44_7 C42_7 1_555 1_555
N10_4 C43_7 1_555 1_555
Zn3_4 N10_4 1_555 1_555
C24_7 C29_7 1_555 1_555
C33_7 C34_7 1_555 1_555
S4_7 C39_7 1_555 1_555
C44_7 N10_4 1_555 1_555
C19_7 H8_7 1_555 1_555
C20_7 H9_7 1_555 1_555
C23_7 H14_7 1_555 1_555
C42_7 H16_7 1_555 1_555
C24_7 H18_7 1_555 1_555
C41_7 H19_7 1_555 1_555
C35_7 H21_7 1_555 1_555
C43_7 H22_7 1_555 1_555
C44_7 H23_7 1_555 1_555
Zn4_3 O1_7 1_555 1_555
O1_7 C1_7 1_555 1_555
N1_7 Zn4_3 1_555 1_555
C3_7 N1_7 1_555 1_555
C4_7 N1_7 1_555 1_555
C5_7 C1_7 1_555 1_555
C9_7 C5_7 1_555 1_555
C10_7 C5_7 1_555 1_555
C14_7 C9_7 1_555 1_555
C10_7 H1_7 1_555 1_555
C14_7 H3_7 1_555 1_555
C4_7 H11_7 1_555 1_555
C9_7 H12_7 1_555 1_555
C2_7 O2_7 1_555 1_555
O5_7 Zn3_4 1_555 1_555
O6_7 C2_7 1_555 1_555
C6_7 C2_7 1_555 1_555
Zn3_4 O6_7 1_555 1_555
C11_7 C6_7 1_555 1_555
C12_7 C6_7 1_555 1_555
C16_7 C11_7 1_555 1_555
C17_7 C12_7 1_555 1_555
C22_7 C16_7 1_555 1_555
C26_7 C22_7 1_555 1_555
O3_3 C26_7 1_555 1_555
O4_3 C26_7 1_555 1_555
C17_7 C22_7 1_555 1_555
C12_7 H5_7 1_555 1_555
C16_7 H7_7 1_555 1_555
C11_7 H10_7 1_555 1_555
C17_7 H13_7 1_555 1_555
Zn4_4 O1_8 1_555 1_555
O1_8 C1_8 1_555 1_555
N1_8 Zn4_4 1_555 1_555
N2_4 Zn4_4 1_555 1_555
C3_8 N1_8 1_555 1_555
C4_8 N1_8 1_555 1_555
C5_8 C1_8 1_555 1_555
C7_8 C3_8 1_555 1_555
C8_8 C4_8 1_555 1_555
C9_8 C5_8 1_555 1_555
C10_8 C5_8 1_555 1_555
C13_8 C7_8 1_555 1_555
C14_8 C9_8 1_555 1_555
C15_8 C10_8 1_555 1_555
C18_8 C13_8 1_555 1_555
C21_8 C14_8 1_555 1_555
S1_8 C18_8 1_555 1_555
N5_8 C18_8 1_555 1_555
C25_8 C21_8 1_555 1_555
C27_8 S1_8 1_555 1_555
C28_8 N5_8 1_555 1_555
N6_8 C27_8 1_555 1_555
C31_8 N6_8 1_555 1_555
O7_3 C25_8 1_555 1_555
O8_3 C25_8 1_555 1_555
C8_8 C13_8 1_555 1_555
C15_8 C21_8 1_555 1_555
C27_8 C28_8 1_555 1_555
C10_8 H1_8 1_555 1_555
C14_8 H3_8 1_555 1_555
C15_8 H6_8 1_555 1_555
C4_8 H11_8 1_555 1_555
C9_8 H12_8 1_555 1_555
C8_8 H15_8 1_555 1_555
C2_8 O2_8 1_555 1_555
O5_8 Zn3_3 1_555 1_555
O6_8 C2_8 1_555 1_555
C6_8 C2_8 1_555 1_555
Zn3_3 O6_8 1_555 1_555
C11_8 C6_8 1_555 1_555
C12_8 C6_8 1_555 1_555
N3_8 Zn3_3 1_555 1_555
N4_4 Zn3_3 1_555 1_555
C16_8 C11_8 1_555 1_555
C17_8 C12_8 1_555 1_555
C19_8 N3_8 1_555 1_555
C20_8 N3_8 1_555 1_555
C22_8 C16_8 1_555 1_555
C23_8 C19_8 1_555 1_555
C24_8 C20_8 1_555 1_555
C26_8 C22_8 1_555 1_555
C29_8 C23_8 1_555 1_555
C30_8 C29_8 1_555 1_555
S3_8 C30_8 1_555 1_555
N7_8 C30_8 1_555 1_555
C33_8 S3_8 1_555 1_555
C34_8 N7_8 1_555 1_555
N8_8 C33_8 1_555 1_555
S4_8 C34_8 1_555 1_555
O3_4 C26_8 1_555 1_555
O4_4 C26_8 1_555 1_555
C17_8 C22_8 1_555 1_555
C24_8 C29_8 1_555 1_555
C33_8 C34_8 1_555 1_555
C12_8 H5_8 1_555 1_555
C16_8 H7_8 1_555 1_555
C19_8 H8_8 1_555 1_555
C20_8 H9_8 1_555 1_555
C11_8 H10_8 1_555 1_555
C17_8 H13_8 1_555 1_555
C23_8 H14_8 1_555 1_555
C24_8 H18_8 1_555 1_555
C36_8 C32_8 1_555 1_555
C38_8 C36_8 1_555 1_555
N2_4 C37_8 1_555 1_555
C38_8 N2_4 1_555 1_555
C36_8 H17_8 1_555 1_555
C38_8 H20_8 1_555 1_555
C40_8 C39_8 1_555 1_555
C41_8 C40_8 1_555 1_555
C42_8 C40_8 1_555 1_555
C43_8 C41_8 1_555 1_555
C44_8 C42_8 1_555 1_555
N4_4 C43_8 1_555 1_555
C44_8 N4_4 1_555 1_555
C42_8 H16_8 1_555 1_555
C41_8 H19_8 1_555 1_555
C35_8 H21_8 1_555 1_555
C43_8 H22_8 1_555 1_555
C44_8 H23_8 1_555 1_555

#END
