
###############################################################################
#
# This file contains modified crystal structure data generated from the
# MOF subset of the Cambridge Structural Database (CSD) v543 
# hosted by the Cambridge Crystallographic Data Centre (CCDC).
#
# This work is licensed under the Creative Commons
# Attribution-NonCommercial-ShareAlike 4.0 International License.
# To view a copy of this license, visit
# http://creativecommons.org/licenses/by-nc-sa/4.0/
# or send a letter to
# Creative Commons, PO Box 1866, Mountain View, CA 94042, USA.
#
# CIF created using the CSD Python API on 29 September 2022
# The structure has been converted into the P1 space group
# The structure has a 3D framework
# The original CSD entry LIJHEU is in the orthorhombic crystal system
# The framework has been calculated to contain at least 10.0% void space
# The void calculation uses a probe of radius 1.32A, grid spacing 0.4
#
###############################################################################

data_LIJHEU
_chemical_formula_moiety         '(C352 H192 Co16 N64 O64 S32)n'
_symmetry_cell_setting           triclinic
_symmetry_space_group_name_H-M   'P 1'
_symmetry_Int_Tables_number      1
_space_group_name_Hall           'P 1'
loop_
_symmetry_equiv_pos_site_id
_symmetry_equiv_pos_as_xyz
1 x,y,z
_cell_length_a                   34.7269(11)
_cell_length_b                   17.1760(3)
_cell_length_c                   17.0489(5)
_cell_angle_alpha                90
_cell_angle_beta                 90
_cell_angle_gamma                90
_cell_volume                     10169.1
loop_
_atom_site_label
_atom_site_type_symbol
_atom_site_fract_x
_atom_site_fract_y
_atom_site_fract_z
Co1 Co 0.66312(2) 0.68803(3) 0.41271(4)
Co2 Co 0.59607(2) 0.61640(3) 0.59254(4)
S1 S 0.62387(4) 0.26475(7) 0.36131(9)
S2 S 0.69270(4) 0.11315(7) 0.48463(8)
S3 S 0.62820(4) 0.19253(7) 0.65927(9)
S4 S 0.56281(5) 0.04254(7) 0.52708(9)
O1 O 0.60641(10) 0.68943(16) 0.3929(2)
O2 O 0.57809(10) 0.61121(17) 0.4792(2)
O3 O 0.41900(10) 0.61107(18) 0.2197(2)
O4 O 0.46219(10) 0.61764(19) 0.1258(2)
O5 O 0.67991(11) 0.69089(17) 0.5241(2)
O6 O 0.65280(10) 0.61932(17) 0.6185(2)
O7 O 0.82367(10) 0.80387(18) 0.7856(2)
O8 O 0.77884(10) 0.79756(18) 0.8765(2)
N1 N 0.66416(11) 0.56379(19) 0.4087(3)
N3 N 0.68072(13) 0.2744(2) 0.4623(3)
N4 N 0.63579(14) 0.1031(2) 0.3837(3)
N5 N 0.59890(11) 0.4923(2) 0.5888(3)
N7 N 0.57613(14) 0.2037(2) 0.5491(3)
N8 N 0.61484(14) 0.0316(2) 0.6375(3)
C1 C 0.57919(13) 0.6470(2) 0.4158(3)
C2 C 0.54567(14) 0.6398(2) 0.3618(3)
C3 C 0.54997(16) 0.6619(3) 0.2845(3)
H1 H 0.5733 0.6830 0.2681
C4 C 0.52022(17) 0.6532(4) 0.2304(3)
H2 H 0.5236 0.6672 0.1781
C5 C 0.48502(14) 0.6228(2) 0.2568(3)
C6 C 0.48099(16) 0.6031(3) 0.3345(3)
H3 H 0.4573 0.5851 0.3524
C7 C 0.51118(14) 0.6094(3) 0.3864(3)
H4 H 0.5082 0.5931 0.4381
C8 C 0.45382(15) 0.6157(2) 0.1979(3)
C9 C 0.67854(14) 0.6630(2) 0.5920(3)
C10 C 0.70937(15) 0.6901(2) 0.6451(3)
C11 C 0.74130(15) 0.7300(3) 0.6174(3)
H5 H 0.7447 0.7366 0.5637
C12 C 0.76821(16) 0.7601(3) 0.6692(3)
H6 H 0.7903 0.7841 0.6503
C13 C 0.76213(15) 0.7543(3) 0.7491(3)
C14 C 0.73071(16) 0.7150(3) 0.7776(3)
H7 H 0.7273 0.7096 0.8314
C15 C 0.70403(16) 0.6832(3) 0.7261(3)
H8 H 0.6825 0.6573 0.7455
C16 C 0.78946(15) 0.7886(3) 0.8054(3)
C17 C 0.64064(13) 0.5249(2) 0.3613(3)
H9 H 0.6257 0.5533 0.3263
C18 C 0.63708(14) 0.4438(3) 0.3608(3)
H10 H 0.6205 0.4189 0.3262
C19 C 0.65938(14) 0.4014(2) 0.4143(3)
C20 C 0.68449(15) 0.4420(3) 0.4638(3)
H11 H 0.7000 0.4154 0.4993
C21 C 0.68581(14) 0.5213(3) 0.4589(3)
H12 H 0.7026 0.5477 0.4920
C22 C 0.65740(14) 0.3161(2) 0.4177(3)
C23 C 0.64368(15) 0.1796(2) 0.3968(3)
C24 C 0.67275(16) 0.1980(3) 0.4502(3)
C25 C 0.65977(14) 0.0615(3) 0.4254(3)
C31 C 0.57583(17) 0.4514(3) 0.5434(3)
H17 H 0.5591 0.4780 0.5102
C32 C 0.57517(17) 0.3703(3) 0.5427(3)
H18 H 0.5583 0.3436 0.5099
C33 C 0.59996(14) 0.3301(2) 0.5915(3)
C34 C 0.62440(15) 0.3730(3) 0.6406(3)
H19 H 0.6414 0.3480 0.6742
C35 C 0.62268(14) 0.4537(3) 0.6380(3)
H20 H 0.6385 0.4823 0.6713
C36 C 0.59900(15) 0.2438(2) 0.5933(4)
C37 C 0.58219(17) 0.1267(2) 0.5657(3)
C38 C 0.60826(15) 0.1082(3) 0.6215(3)
Co4 Co 0.83688(2) 0.81197(3) 0.91271(4)
Co6 Co 0.40393(2) 0.61640(3) 0.09254(4)
O9 O 0.58100(10) 0.61107(18) 0.7197(2)
O10 O 0.53781(10) 0.61764(19) 0.6258(2)
O11 O 0.67633(10) 0.69613(18) 0.2856(2)
O12 O 0.72116(10) 0.70244(18) 0.3765(2)
N9 N 0.66034(12) 0.8133(2) 0.4175(3)
N10 N 0.59317(11) 0.74197(19) 0.5955(3)
C26 C 0.66001(15) 0.9759(2) 0.4237(3)
C27 C 0.63260(15) 0.9362(3) 0.3806(3)
H13 H 0.6137 0.9628 0.3529
C28 C 0.63405(15) 0.8552(3) 0.3799(3)
H14 H 0.6154 0.8287 0.3511
C29 C 0.68657(16) 0.8532(3) 0.4599(3)
H15 H 0.7051 0.8249 0.4871
C30 C 0.68771(16) 0.9339(3) 0.4655(3)
H16 H 0.7062 0.9589 0.4958
C39 C 0.59224(15) 0.9897(3) 0.5912(4)
C40 C 0.59202(14) 0.9048(3) 0.5934(4)
C41 C 0.56759(17) 0.8608(3) 0.5462(3)
H21 H 0.5504 0.8857 0.5127
C42 C 0.56875(15) 0.7810(3) 0.5490(3)
H22 H 0.5519 0.7529 0.5174
C43 C 0.61556(16) 0.7852(3) 0.6432(3)
H23 H 0.6318 0.7592 0.6778
C44 C 0.61603(17) 0.8651(3) 0.6441(4)
H24 H 0.6322 0.8919 0.6782
S1_2 S 0.12387(4) 0.23525(7) 0.36131(9)
S2_2 S 0.19270(4) 0.38685(7) 0.48463(8)
S3_2 S 0.12820(4) 0.30747(7) 0.65927(9)
S4_2 S 0.06281(5) 0.45746(7) 0.52708(9)
N2 N 0.16034(12) 0.6867(2) 0.4175(3)
N3_2 N 0.18072(13) 0.2256(2) 0.4623(3)
N4_2 N 0.13579(14) 0.3969(2) 0.3837(3)
N5_2 N 0.09890(11) 0.0077(2) 0.5888(3)
N6 N 0.09317(11) 0.75803(19) 0.5955(3)
N7_2 N 0.07613(14) 0.2963(2) 0.5491(3)
N8_2 N 0.11484(14) 0.4684(2) 0.6375(3)
C18_2 C 0.13708(14) 0.0562(3) 0.3608(3)
H10_2 H 0.1205 0.0811 0.3262
C19_2 C 0.15938(14) 0.0986(2) 0.4143(3)
C20_2 C 0.18449(15) 0.0580(3) 0.4638(3)
H11_2 H 0.2000 0.0846 0.4993
C22_2 C 0.15740(14) 0.1839(2) 0.4177(3)
C23_2 C 0.14368(15) 0.3204(2) 0.3968(3)
C24_2 C 0.17275(16) 0.3020(3) 0.4502(3)
C25_2 C 0.15977(14) 0.4385(3) 0.4254(3)
C26_2 C 0.16001(15) 0.5241(2) 0.4237(3)
C27_2 C 0.13260(15) 0.5638(3) 0.3806(3)
H13_2 H 0.1137 0.5372 0.3529
C28_2 C 0.13405(15) 0.6448(3) 0.3799(3)
H14_2 H 0.1154 0.6713 0.3511
C29_2 C 0.18657(16) 0.6468(3) 0.4599(3)
H15_2 H 0.2051 0.6751 0.4871
C30_2 C 0.18771(16) 0.5661(3) 0.4655(3)
H16_2 H 0.2062 0.5411 0.4958
C31_2 C 0.07583(17) 0.0486(3) 0.5434(3)
H17_2 H 0.0591 0.0220 0.5102
C32_2 C 0.07517(17) 0.1297(3) 0.5427(3)
H18_2 H 0.0583 0.1564 0.5099
C33_2 C 0.09996(14) 0.1699(2) 0.5915(3)
C34_2 C 0.12440(15) 0.1270(3) 0.6406(3)
H19_2 H 0.1414 0.1520 0.6742
C35_2 C 0.12268(14) 0.0463(3) 0.6380(3)
H20_2 H 0.1385 0.0177 0.6713
C36_2 C 0.09900(15) 0.2562(2) 0.5933(4)
C37_2 C 0.08219(17) 0.3733(2) 0.5657(3)
C38_2 C 0.10826(15) 0.3918(3) 0.6215(3)
C39_2 C 0.09224(15) 0.5103(3) 0.5912(4)
C40_2 C 0.09202(14) 0.5952(3) 0.5934(4)
C41_2 C 0.06759(17) 0.6392(3) 0.5462(3)
H21_2 H 0.0504 0.6143 0.5127
C42_2 C 0.06875(15) 0.7190(3) 0.5490(3)
H22_2 H 0.0519 0.7471 0.5174
C43_2 C 0.11556(16) 0.7148(3) 0.6432(3)
H23_2 H 0.1318 0.7408 0.6778
C44_2 C 0.11603(17) 0.6349(3) 0.6441(4)
H24_2 H 0.1322 0.6081 0.6782
Co3 Co 0.16312(2) 0.81197(3) 0.41271(4)
Co5 Co 0.09607(2) 0.88360(3) 0.59254(4)
O1_2 O 0.10641(10) 0.81057(16) 0.3929(2)
O2_2 O 0.07809(10) 0.88879(17) 0.4792(2)
O5_2 O 0.17991(11) 0.80911(17) 0.5241(2)
O6_2 O 0.15280(10) 0.88068(17) 0.6185(2)
O7_2 O 0.32367(10) 0.69613(18) 0.7856(2)
O8_2 O 0.27884(10) 0.70244(18) 0.8765(2)
N1_2 N 0.16416(11) 0.93621(19) 0.4087(3)
C1_2 C 0.07919(13) 0.8530(2) 0.4158(3)
C2_2 C 0.04567(14) 0.8602(2) 0.3618(3)
C3_2 C 0.04997(16) 0.8381(3) 0.2845(3)
H1_2 H 0.0733 0.8170 0.2681
C4_2 C 0.02022(17) 0.8468(4) 0.2304(3)
H2_2 H 0.0236 0.8328 0.1781
C7_2 C 0.01118(14) 0.8906(3) 0.3864(3)
H4_2 H 0.0082 0.9069 0.4381
C9_2 C 0.17854(14) 0.8370(2) 0.5920(3)
C10_2 C 0.20937(15) 0.8099(2) 0.6451(3)
C11_2 C 0.24130(15) 0.7700(3) 0.6174(3)
H5_2 H 0.2447 0.7634 0.5637
C12_2 C 0.26821(16) 0.7399(3) 0.6692(3)
H6_2 H 0.2903 0.7159 0.6503
C13_2 C 0.26213(15) 0.7457(3) 0.7491(3)
C14_2 C 0.23071(16) 0.7850(3) 0.7776(3)
H7_2 H 0.2273 0.7904 0.8314
C15_2 C 0.20403(16) 0.8168(3) 0.7261(3)
H8_2 H 0.1825 0.8427 0.7455
C16_2 C 0.28946(15) 0.7114(3) 0.8054(3)
C17_2 C 0.14064(13) 0.9751(2) 0.3613(3)
H9_2 H 0.1257 0.9467 0.3263
C21_2 C 0.18581(14) 0.9787(3) 0.4589(3)
H12_2 H 0.2026 0.9523 0.4920
Co4_2 Co 0.33688(2) 0.68803(3) 0.91271(4)
O9_2 O 0.08100(10) 0.88893(18) 0.7197(2)
O10_2 O 0.03781(10) 0.88236(19) 0.6258(2)
O11_2 O 0.17633(10) 0.80387(18) 0.2856(2)
O12_2 O 0.22116(10) 0.79756(18) 0.3765(2)
O3_2 O 0.91900(10) 0.88893(18) 0.2197(2)
O4_2 O 0.96219(10) 0.88236(19) 0.1258(2)
C5_2 C 0.98502(14) 0.8772(2) 0.2568(3)
C6_2 C 0.98099(16) 0.8969(3) 0.3345(3)
H3_2 H 0.9573 0.9149 0.3524
C8_2 C 0.95382(15) 0.8843(2) 0.1979(3)
Co6_2 Co 0.90393(2) 0.88360(3) 0.09254(4)
C5_3 C 0.01498(14) 0.8772(2) 0.7568(3)
C6_3 C 0.01901(16) 0.8969(3) 0.8345(3)
H3_3 H 0.0427 0.9149 0.8524
C8_3 C 0.04618(15) 0.8843(2) 0.6979(3)
S3_3 S 0.87180(4) 0.30747(7) 0.15927(9)
S4_3 S 0.93719(5) 0.45746(7) 0.02708(9)
N5_3 N 0.90110(11) 0.0077(2) 0.0888(3)
N6_2 N 0.90683(11) 0.75803(19) 0.0955(3)
N7_3 N 0.92387(14) 0.2963(2) 0.0491(3)
N8_3 N 0.88516(14) 0.4684(2) 0.1375(3)
C31_3 C 0.92417(17) 0.0486(3) 0.0434(3)
H17_3 H 0.9409 0.0220 0.0102
C32_3 C 0.92483(17) 0.1297(3) 0.0427(3)
H18_3 H 0.9417 0.1564 0.0099
C33_3 C 0.90004(14) 0.1699(2) 0.0915(3)
C34_3 C 0.87560(15) 0.1270(3) 0.1406(3)
H19_3 H 0.8586 0.1520 0.1742
C35_3 C 0.87732(14) 0.0463(3) 0.1380(3)
H20_3 H 0.8615 0.0177 0.1713
C36_3 C 0.90100(15) 0.2562(2) 0.0933(4)
C37_3 C 0.91781(17) 0.3733(2) 0.0657(3)
C38_3 C 0.89174(15) 0.3918(3) 0.1215(3)
C39_3 C 0.90776(15) 0.5103(3) 0.0912(4)
C40_3 C 0.90798(14) 0.5952(3) 0.0934(4)
C41_3 C 0.93241(17) 0.6392(3) 0.0462(3)
H21_3 H 0.9496 0.6143 0.0127
C42_3 C 0.93125(15) 0.7190(3) 0.0490(3)
H22_3 H 0.9481 0.7471 0.0174
C43_3 C 0.88444(16) 0.7148(3) 0.1432(3)
H23_3 H 0.8682 0.7408 0.1778
C44_3 C 0.88397(17) 0.6349(3) 0.1441(4)
H24_3 H 0.8678 0.6081 0.1782
S1_3 S 0.87613(4) 0.23525(7) 0.86131(9)
S2_3 S 0.80730(4) 0.38685(7) 0.98463(8)
N2_2 N 0.83966(12) 0.6867(2) 0.9175(3)
N3_3 N 0.81928(13) 0.2256(2) 0.9623(3)
N4_3 N 0.86421(14) 0.3969(2) 0.8837(3)
C18_3 C 0.86292(14) 0.0562(3) 0.8608(3)
H10_3 H 0.8795 0.0811 0.8262
C19_3 C 0.84062(14) 0.0986(2) 0.9143(3)
C20_3 C 0.81551(15) 0.0580(3) 0.9638(3)
H11_3 H 0.8000 0.0846 0.9993
C22_3 C 0.84260(14) 0.1839(2) 0.9177(3)
C23_3 C 0.85632(15) 0.3204(2) 0.8968(3)
C24_3 C 0.82725(16) 0.3020(3) 0.9502(3)
C25_3 C 0.84023(14) 0.4385(3) 0.9254(3)
C26_3 C 0.83999(15) 0.5241(2) 0.9237(3)
C27_3 C 0.86740(15) 0.5638(3) 0.8806(3)
H13_3 H 0.8863 0.5372 0.8529
C28_3 C 0.86595(15) 0.6448(3) 0.8799(3)
H14_3 H 0.8846 0.6713 0.8511
C29_3 C 0.81343(16) 0.6468(3) 0.9599(3)
H15_3 H 0.7949 0.6751 0.9871
C30_3 C 0.81229(16) 0.5661(3) 0.9655(3)
H16_3 H 0.7938 0.5411 0.9958
O5_3 O 0.82009(11) 0.80911(17) 0.0241(2)
O6_3 O 0.84720(10) 0.88068(17) 0.1185(2)
C9_3 C 0.82146(14) 0.8370(2) 0.0920(3)
C10_3 C 0.79063(15) 0.8099(2) 0.1451(3)
C11_3 C 0.75870(15) 0.7700(3) 0.1174(3)
H5_3 H 0.7553 0.7634 0.0637
C12_3 C 0.73179(16) 0.7399(3) 0.1692(3)
H6_3 H 0.7097 0.7159 0.1503
C13_3 C 0.73787(15) 0.7457(3) 0.2491(3)
C14_3 C 0.76929(16) 0.7850(3) 0.2776(3)
H7_3 H 0.7727 0.7904 0.3314
C15_3 C 0.79597(16) 0.8168(3) 0.2261(3)
H8_3 H 0.8175 0.8427 0.2455
C16_3 C 0.71054(15) 0.7114(3) 0.3054(3)
O1_3 O 0.89359(10) 0.81057(16) 0.8929(2)
O2_3 O 0.92191(10) 0.88879(17) 0.9792(2)
N1_3 N 0.83584(11) 0.93621(19) 0.9087(3)
C1_3 C 0.92081(13) 0.8530(2) 0.9158(3)
C2_3 C 0.95433(14) 0.8602(2) 0.8618(3)
C3_3 C 0.95003(16) 0.8381(3) 0.7845(3)
H1_3 H 0.9267 0.8170 0.7681
C4_3 C 0.97978(17) 0.8468(4) 0.7304(3)
H2_3 H 0.9764 0.8328 0.6781
C7_3 C 0.98882(14) 0.8906(3) 0.8864(3)
H4_3 H 0.9918 0.9069 0.9381
C17_3 C 0.85936(13) 0.9751(2) 0.8613(3)
H9_3 H 0.8743 0.9467 0.8263
C21_3 C 0.81419(14) 0.9787(3) 0.9589(3)
H12_3 H 0.7974 0.9523 0.9920
S3_4 S 0.37180(4) 0.19253(7) 0.15927(9)
S4_4 S 0.43719(5) 0.04254(7) 0.02708(9)
O5_4 O 0.32009(11) 0.69089(17) 0.0241(2)
O6_4 O 0.34720(10) 0.61932(17) 0.1185(2)
N5_4 N 0.40110(11) 0.4923(2) 0.0888(3)
N7_4 N 0.42387(14) 0.2037(2) 0.0491(3)
N8_4 N 0.38516(14) 0.0316(2) 0.1375(3)
C9_4 C 0.32146(14) 0.6630(2) 0.0920(3)
C10_4 C 0.29063(15) 0.6901(2) 0.1451(3)
C11_4 C 0.25870(15) 0.7300(3) 0.1174(3)
H5_4 H 0.2553 0.7366 0.0637
C12_4 C 0.23179(16) 0.7601(3) 0.1692(3)
H6_4 H 0.2097 0.7841 0.1503
C13_4 C 0.23787(15) 0.7543(3) 0.2491(3)
C14_4 C 0.26929(16) 0.7150(3) 0.2776(3)
H7_4 H 0.2727 0.7096 0.3314
C15_4 C 0.29597(16) 0.6832(3) 0.2261(3)
H8_4 H 0.3175 0.6573 0.2455
C16_4 C 0.21054(15) 0.7886(3) 0.3054(3)
C31_4 C 0.42417(17) 0.4514(3) 0.0434(3)
H17_4 H 0.4409 0.4780 0.0102
C32_4 C 0.42483(17) 0.3703(3) 0.0427(3)
H18_4 H 0.4417 0.3436 0.0099
C33_4 C 0.40004(14) 0.3301(2) 0.0915(3)
C34_4 C 0.37560(15) 0.3730(3) 0.1406(3)
H19_4 H 0.3586 0.3480 0.1742
C35_4 C 0.37732(14) 0.4537(3) 0.1380(3)
H20_4 H 0.3615 0.4823 0.1713
C36_4 C 0.40100(15) 0.2438(2) 0.0933(4)
C37_4 C 0.41781(17) 0.1267(2) 0.0657(3)
C38_4 C 0.39174(15) 0.1082(3) 0.1215(3)
N10_2 N 0.40683(11) 0.74197(19) 0.0955(3)
S1_4 S 0.37613(4) 0.26475(7) 0.86131(9)
S2_4 S 0.30730(4) 0.11315(7) 0.98463(8)
O1_4 O 0.39359(10) 0.68943(16) 0.8929(2)
O2_4 O 0.42191(10) 0.61121(17) 0.9792(2)
N1_4 N 0.33584(11) 0.56379(19) 0.9087(3)
N3_4 N 0.31928(13) 0.2744(2) 0.9623(3)
N4_4 N 0.36421(14) 0.1031(2) 0.8837(3)
C1_4 C 0.42081(13) 0.6470(2) 0.9158(3)
C2_4 C 0.45433(14) 0.6398(2) 0.8618(3)
C3_4 C 0.45003(16) 0.6619(3) 0.7845(3)
H1_4 H 0.4267 0.6830 0.7681
C4_4 C 0.47978(17) 0.6532(4) 0.7304(3)
H2_4 H 0.4764 0.6672 0.6781
C5_4 C 0.51498(14) 0.6228(2) 0.7568(3)
C6_4 C 0.51901(16) 0.6031(3) 0.8345(3)
H3_4 H 0.5427 0.5851 0.8524
C7_4 C 0.48882(14) 0.6094(3) 0.8864(3)
H4_4 H 0.4918 0.5931 0.9381
C8_4 C 0.54618(15) 0.6157(2) 0.6979(3)
C17_4 C 0.35936(13) 0.5249(2) 0.8613(3)
H9_4 H 0.3743 0.5533 0.8263
C18_4 C 0.36292(14) 0.4438(3) 0.8608(3)
H10_4 H 0.3795 0.4189 0.8262
C19_4 C 0.34062(14) 0.4014(2) 0.9143(3)
C20_4 C 0.31551(15) 0.4420(3) 0.9638(3)
H11_4 H 0.3000 0.4154 0.9993
C21_4 C 0.31419(14) 0.5213(3) 0.9589(3)
H12_4 H 0.2974 0.5477 0.9920
C22_4 C 0.34260(14) 0.3161(2) 0.9177(3)
C23_4 C 0.35632(15) 0.1796(2) 0.8968(3)
C24_4 C 0.32725(16) 0.1980(3) 0.9502(3)
C25_4 C 0.34023(14) 0.0615(3) 0.9254(3)
N9_2 N 0.33966(12) 0.8133(2) 0.9175(3)
C39_4 C 0.40776(15) 0.9897(3) 0.0912(4)
C40_4 C 0.40798(14) 0.9048(3) 0.0934(4)
C41_4 C 0.43241(17) 0.8608(3) 0.0462(3)
H21_4 H 0.4496 0.8857 0.0127
C42_4 C 0.43125(15) 0.7810(3) 0.0490(3)
H22_4 H 0.4481 0.7529 0.0174
C43_4 C 0.38444(16) 0.7852(3) 0.1432(3)
H23_4 H 0.3682 0.7592 0.1778
C44_4 C 0.38397(17) 0.8651(3) 0.1441(4)
H24_4 H 0.3678 0.8919 0.1782
C26_4 C 0.33999(15) 0.9759(2) 0.9237(3)
C27_4 C 0.36740(15) 0.9362(3) 0.8806(3)
H13_4 H 0.3863 0.9628 0.8529
C28_4 C 0.36595(15) 0.8552(3) 0.8799(3)
H14_4 H 0.3846 0.8287 0.8511
C29_4 C 0.31343(16) 0.8532(3) 0.9599(3)
H15_4 H 0.2949 0.8249 0.9871
C30_4 C 0.31229(16) 0.9339(3) 0.9655(3)
H16_4 H 0.2938 0.9589 0.9958
N2_3 N 0.33966(12) 0.1867(2) 0.4175(3)
N6_3 N 0.40683(11) 0.25803(19) 0.5955(3)
C26_5 C 0.33999(15) 0.0241(2) 0.4237(3)
C27_5 C 0.36740(15) 0.0638(3) 0.3806(3)
H13_5 H 0.3863 0.0372 0.3529
C28_5 C 0.36595(15) 0.1448(3) 0.3799(3)
H14_5 H 0.3846 0.1713 0.3511
C29_5 C 0.31343(16) 0.1468(3) 0.4599(3)
H15_5 H 0.2949 0.1751 0.4871
C30_5 C 0.31229(16) 0.0661(3) 0.4655(3)
H16_5 H 0.2938 0.0411 0.4958
C39_5 C 0.40776(15) 0.0103(3) 0.5912(4)
C40_5 C 0.40798(14) 0.0952(3) 0.5934(4)
C41_5 C 0.43241(17) 0.1392(3) 0.5462(3)
H21_5 H 0.4496 0.1143 0.5127
C42_5 C 0.43125(15) 0.2190(3) 0.5490(3)
H22_5 H 0.4481 0.2471 0.5174
C43_5 C 0.38444(16) 0.2148(3) 0.6432(3)
H23_5 H 0.3682 0.2408 0.6778
C44_5 C 0.38397(17) 0.1349(3) 0.6441(4)
H24_5 H 0.3678 0.1081 0.6782
Co3_2 Co 0.33688(2) 0.31197(3) 0.41271(4)
Co5_2 Co 0.40393(2) 0.38360(3) 0.59254(4)
S1_5 S 0.37613(4) 0.73525(7) 0.36131(9)
S2_5 S 0.30730(4) 0.88685(7) 0.48463(8)
S3_5 S 0.37180(4) 0.80747(7) 0.65927(9)
S4_5 S 0.43719(5) 0.95746(7) 0.52708(9)
O1_5 O 0.39359(10) 0.31057(16) 0.3929(2)
O2_5 O 0.42191(10) 0.38879(17) 0.4792(2)
O3_3 O 0.58100(10) 0.38893(18) 0.2197(2)
O4_3 O 0.53781(10) 0.38236(19) 0.1258(2)
O5_5 O 0.32009(11) 0.30911(17) 0.5241(2)
O6_5 O 0.34720(10) 0.38068(17) 0.6185(2)
O7_3 O 0.17633(10) 0.19613(18) 0.7856(2)
O8_3 O 0.22116(10) 0.20244(18) 0.8765(2)
N1_5 N 0.33584(11) 0.43621(19) 0.4087(3)
N3_5 N 0.31928(13) 0.7256(2) 0.4623(3)
N4_5 N 0.36421(14) 0.8969(2) 0.3837(3)
N5_5 N 0.40110(11) 0.5077(2) 0.5888(3)
N7_5 N 0.42387(14) 0.7963(2) 0.5491(3)
N8_5 N 0.38516(14) 0.9684(2) 0.6375(3)
C1_5 C 0.42081(13) 0.3530(2) 0.4158(3)
C2_5 C 0.45433(14) 0.3602(2) 0.3618(3)
C3_5 C 0.45003(16) 0.3381(3) 0.2845(3)
H1_5 H 0.4267 0.3170 0.2681
C4_5 C 0.47978(17) 0.3468(4) 0.2304(3)
H2_5 H 0.4764 0.3328 0.1781
C5_5 C 0.51498(14) 0.3772(2) 0.2568(3)
C6_5 C 0.51901(16) 0.3969(3) 0.3345(3)
H3_5 H 0.5427 0.4149 0.3524
C7_5 C 0.48882(14) 0.3906(3) 0.3864(3)
H4_5 H 0.4918 0.4069 0.4381
C8_5 C 0.54618(15) 0.3843(2) 0.1979(3)
C9_5 C 0.32146(14) 0.3370(2) 0.5920(3)
C10_5 C 0.29063(15) 0.3099(2) 0.6451(3)
C11_5 C 0.25870(15) 0.2700(3) 0.6174(3)
H5_5 H 0.2553 0.2634 0.5637
C12_5 C 0.23179(16) 0.2399(3) 0.6692(3)
H6_5 H 0.2097 0.2159 0.6503
C13_5 C 0.23787(15) 0.2457(3) 0.7491(3)
C14_5 C 0.26929(16) 0.2850(3) 0.7776(3)
H7_5 H 0.2727 0.2904 0.8314
C15_5 C 0.29597(16) 0.3168(3) 0.7261(3)
H8_5 H 0.3175 0.3427 0.7455
C16_5 C 0.21054(15) 0.2114(3) 0.8054(3)
C17_5 C 0.35936(13) 0.4751(2) 0.3613(3)
H9_5 H 0.3743 0.4467 0.3263
C18_5 C 0.36292(14) 0.5562(3) 0.3608(3)
H10_5 H 0.3795 0.5811 0.3262
C19_5 C 0.34062(14) 0.5986(2) 0.4143(3)
C20_5 C 0.31551(15) 0.5580(3) 0.4638(3)
H11_5 H 0.3000 0.5846 0.4993
C21_5 C 0.31419(14) 0.4787(3) 0.4589(3)
H12_5 H 0.2974 0.4523 0.4920
C22_5 C 0.34260(14) 0.6839(2) 0.4177(3)
C23_5 C 0.35632(15) 0.8204(2) 0.3968(3)
C24_5 C 0.32725(16) 0.8020(3) 0.4502(3)
C25_5 C 0.34023(14) 0.9385(3) 0.4254(3)
C31_5 C 0.42417(17) 0.5486(3) 0.5434(3)
H17_5 H 0.4409 0.5220 0.5102
C32_5 C 0.42483(17) 0.6297(3) 0.5427(3)
H18_5 H 0.4417 0.6564 0.5099
C33_5 C 0.40004(14) 0.6699(2) 0.5915(3)
C34_5 C 0.37560(15) 0.6270(3) 0.6406(3)
H19_5 H 0.3586 0.6520 0.6742
C35_5 C 0.37732(14) 0.5463(3) 0.6380(3)
H20_5 H 0.3615 0.5177 0.6713
C36_5 C 0.40100(15) 0.7562(2) 0.5933(4)
C37_5 C 0.41781(17) 0.8733(2) 0.5657(3)
C38_5 C 0.39174(15) 0.8918(3) 0.6215(3)
Co4_3 Co 0.16312(2) 0.18803(3) 0.91271(4)
Co6_3 Co 0.59607(2) 0.38360(3) 0.09254(4)
O9_3 O 0.41900(10) 0.38893(18) 0.7197(2)
O10_3 O 0.46219(10) 0.38236(19) 0.6258(2)
O11_3 O 0.32367(10) 0.30387(18) 0.2856(2)
O12_3 O 0.27884(10) 0.29756(18) 0.3765(2)
O3_4 O 0.08100(10) 0.11107(18) 0.2197(2)
O4_4 O 0.03781(10) 0.11764(19) 0.1258(2)
C5_6 C 0.01498(14) 0.1228(2) 0.2568(3)
C6_6 C 0.01901(16) 0.1031(3) 0.3345(3)
H3_6 H 0.0427 0.0851 0.3524
C8_6 C 0.04618(15) 0.1157(2) 0.1979(3)
Co6_4 Co 0.09607(2) 0.11640(3) 0.09254(4)
Co1_2 Co 0.83688(2) 0.18803(3) 0.41271(4)
Co2_2 Co 0.90393(2) 0.11640(3) 0.59254(4)
O1_6 O 0.89359(10) 0.18943(16) 0.3929(2)
O2_6 O 0.92191(10) 0.11121(17) 0.4792(2)
O5_6 O 0.82009(11) 0.19089(17) 0.5241(2)
O6_6 O 0.84720(10) 0.11932(17) 0.6185(2)
O7_4 O 0.67633(10) 0.30387(18) 0.7856(2)
O8_4 O 0.72116(10) 0.29756(18) 0.8765(2)
N1_6 N 0.83584(11) 0.06379(19) 0.4087(3)
C1_6 C 0.92081(13) 0.1470(2) 0.4158(3)
C2_6 C 0.95433(14) 0.1398(2) 0.3618(3)
C3_6 C 0.95003(16) 0.1619(3) 0.2845(3)
H1_6 H 0.9267 0.1830 0.2681
C4_6 C 0.97978(17) 0.1532(4) 0.2304(3)
H2_6 H 0.9764 0.1672 0.1781
C7_6 C 0.98882(14) 0.1094(3) 0.3864(3)
H4_6 H 0.9918 0.0931 0.4381
C9_6 C 0.82146(14) 0.1630(2) 0.5920(3)
C10_6 C 0.79063(15) 0.1901(2) 0.6451(3)
C11_6 C 0.75870(15) 0.2300(3) 0.6174(3)
H5_6 H 0.7553 0.2366 0.5637
C12_6 C 0.73179(16) 0.2601(3) 0.6692(3)
H6_6 H 0.7097 0.2841 0.6503
C13_6 C 0.73787(15) 0.2543(3) 0.7491(3)
C14_6 C 0.76929(16) 0.2150(3) 0.7776(3)
H7_6 H 0.7727 0.2096 0.8314
C15_6 C 0.79597(16) 0.1832(3) 0.7261(3)
H8_6 H 0.8175 0.1573 0.7455
C16_6 C 0.71054(15) 0.2886(3) 0.8054(3)
C17_6 C 0.85936(13) 0.0249(2) 0.3613(3)
H9_6 H 0.8743 0.0533 0.3263
C21_6 C 0.81419(14) 0.0213(3) 0.4589(3)
H12_6 H 0.7974 0.0477 0.4920
Co4_4 Co 0.66312(2) 0.31197(3) 0.91271(4)
O9_4 O 0.91900(10) 0.11107(18) 0.7197(2)
O10_4 O 0.96219(10) 0.11764(19) 0.6258(2)
O11_4 O 0.82367(10) 0.19613(18) 0.2856(2)
O12_4 O 0.77884(10) 0.20244(18) 0.3765(2)
N9_3 N 0.83966(12) 0.3133(2) 0.4175(3)
N10_3 N 0.90683(11) 0.24197(19) 0.5955(3)
S1_6 S 0.87613(4) 0.76475(7) 0.36131(9)
S2_6 S 0.80730(4) 0.61315(7) 0.48463(8)
S3_6 S 0.87180(4) 0.69253(7) 0.65927(9)
S4_6 S 0.93719(5) 0.54254(7) 0.52708(9)
N3_6 N 0.81928(13) 0.7744(2) 0.4623(3)
N4_6 N 0.86421(14) 0.6031(2) 0.3837(3)
N5_6 N 0.90110(11) 0.9923(2) 0.5888(3)
N7_6 N 0.92387(14) 0.7037(2) 0.5491(3)
N8_6 N 0.88516(14) 0.5316(2) 0.6375(3)
C18_6 C 0.86292(14) 0.9438(3) 0.3608(3)
H10_6 H 0.8795 0.9189 0.3262
C19_6 C 0.84062(14) 0.9014(2) 0.4143(3)
C20_6 C 0.81551(15) 0.9420(3) 0.4638(3)
H11_6 H 0.8000 0.9154 0.4993
C22_6 C 0.84260(14) 0.8161(2) 0.4177(3)
C23_6 C 0.85632(15) 0.6796(2) 0.3968(3)
C24_6 C 0.82725(16) 0.6980(3) 0.4502(3)
C25_6 C 0.84023(14) 0.5615(3) 0.4254(3)
C26_6 C 0.83999(15) 0.4759(2) 0.4237(3)
C27_6 C 0.86740(15) 0.4362(3) 0.3806(3)
H13_6 H 0.8863 0.4628 0.3529
C28_6 C 0.86595(15) 0.3552(3) 0.3799(3)
H14_6 H 0.8846 0.3287 0.3511
C29_6 C 0.81343(16) 0.3532(3) 0.4599(3)
H15_6 H 0.7949 0.3249 0.4871
C30_6 C 0.81229(16) 0.4339(3) 0.4655(3)
H16_6 H 0.7938 0.4589 0.4958
C31_6 C 0.92417(17) 0.9514(3) 0.5434(3)
H17_6 H 0.9409 0.9780 0.5102
C32_6 C 0.92483(17) 0.8703(3) 0.5427(3)
H18_6 H 0.9417 0.8436 0.5099
C33_6 C 0.90004(14) 0.8301(2) 0.5915(3)
C34_6 C 0.87560(15) 0.8730(3) 0.6406(3)
H19_6 H 0.8586 0.8480 0.6742
C35_6 C 0.87732(14) 0.9537(3) 0.6380(3)
H20_6 H 0.8615 0.9823 0.6713
C36_6 C 0.90100(15) 0.7438(2) 0.5933(4)
C37_6 C 0.91781(17) 0.6267(2) 0.5657(3)
C38_6 C 0.89174(15) 0.6082(3) 0.6215(3)
C39_6 C 0.90776(15) 0.4897(3) 0.5912(4)
C40_6 C 0.90798(14) 0.4048(3) 0.5934(4)
C41_6 C 0.93241(17) 0.3608(3) 0.5462(3)
H21_6 H 0.9496 0.3857 0.5127
C42_6 C 0.93125(15) 0.2810(3) 0.5490(3)
H22_6 H 0.9481 0.2529 0.5174
C43_6 C 0.88444(16) 0.2852(3) 0.6432(3)
H23_6 H 0.8682 0.2592 0.6778
C44_6 C 0.88397(17) 0.3651(3) 0.6441(4)
H24_6 H 0.8678 0.3919 0.6782
O5_7 O 0.17991(11) 0.19089(17) 0.0241(2)
O6_7 O 0.15280(10) 0.11932(17) 0.1185(2)
C9_7 C 0.17854(14) 0.1630(2) 0.0920(3)
C10_7 C 0.20937(15) 0.1901(2) 0.1451(3)
C11_7 C 0.24130(15) 0.2300(3) 0.1174(3)
H5_7 H 0.2447 0.2366 0.0637
C12_7 C 0.26821(16) 0.2601(3) 0.1692(3)
H6_7 H 0.2903 0.2841 0.1503
C13_7 C 0.26213(15) 0.2543(3) 0.2491(3)
C14_7 C 0.23071(16) 0.2150(3) 0.2776(3)
H7_7 H 0.2273 0.2096 0.3314
C15_7 C 0.20403(16) 0.1832(3) 0.2261(3)
H8_7 H 0.1825 0.1573 0.2455
C16_7 C 0.28946(15) 0.2886(3) 0.3054(3)
N10_4 N 0.09317(11) 0.24197(19) 0.0955(3)
O1_7 O 0.10641(10) 0.18943(16) 0.8929(2)
O2_7 O 0.07809(10) 0.11121(17) 0.9792(2)
N1_7 N 0.16416(11) 0.06379(19) 0.9087(3)
C1_7 C 0.07919(13) 0.1470(2) 0.9158(3)
C2_7 C 0.04567(14) 0.1398(2) 0.8618(3)
C3_7 C 0.04997(16) 0.1619(3) 0.7845(3)
H1_7 H 0.0733 0.1830 0.7681
C4_7 C 0.02022(17) 0.1532(4) 0.7304(3)
H2_7 H 0.0236 0.1672 0.6781
C7_7 C 0.01118(14) 0.1094(3) 0.8864(3)
H4_7 H 0.0082 0.0931 0.9381
C17_7 C 0.14064(13) 0.0249(2) 0.8613(3)
H9_7 H 0.1257 0.0533 0.8263
C21_7 C 0.18581(14) 0.0213(3) 0.9589(3)
H12_7 H 0.2026 0.0477 0.9920
N9_4 N 0.16034(12) 0.3133(2) 0.9175(3)
S3_7 S 0.12820(4) 0.69253(7) 0.15927(9)
S4_7 S 0.06281(5) 0.54254(7) 0.02708(9)
N5_7 N 0.09890(11) 0.9923(2) 0.0888(3)
N7_7 N 0.07613(14) 0.7037(2) 0.0491(3)
N8_7 N 0.11484(14) 0.5316(2) 0.1375(3)
C31_7 C 0.07583(17) 0.9514(3) 0.0434(3)
H17_7 H 0.0591 0.9780 0.0102
C32_7 C 0.07517(17) 0.8703(3) 0.0427(3)
H18_7 H 0.0583 0.8436 0.0099
C33_7 C 0.09996(14) 0.8301(2) 0.0915(3)
C34_7 C 0.12440(15) 0.8730(3) 0.1406(3)
H19_7 H 0.1414 0.8480 0.1742
C35_7 C 0.12268(14) 0.9537(3) 0.1380(3)
H20_7 H 0.1385 0.9823 0.1713
C36_7 C 0.09900(15) 0.7438(2) 0.0933(4)
C37_7 C 0.08219(17) 0.6267(2) 0.0657(3)
C38_7 C 0.10826(15) 0.6082(3) 0.1215(3)
C39_7 C 0.09224(15) 0.4897(3) 0.0912(4)
C40_7 C 0.09202(14) 0.4048(3) 0.0934(4)
C41_7 C 0.06759(17) 0.3608(3) 0.0462(3)
H21_7 H 0.0504 0.3857 0.0127
C42_7 C 0.06875(15) 0.2810(3) 0.0490(3)
H22_7 H 0.0519 0.2529 0.0174
C43_7 C 0.11556(16) 0.2852(3) 0.1432(3)
H23_7 H 0.1318 0.2592 0.1778
C44_7 C 0.11603(17) 0.3651(3) 0.1441(4)
H24_7 H 0.1322 0.3919 0.1782
S1_7 S 0.12387(4) 0.76475(7) 0.86131(9)
S2_7 S 0.19270(4) 0.61315(7) 0.98463(8)
N3_7 N 0.18072(13) 0.7744(2) 0.9623(3)
N4_7 N 0.13579(14) 0.6031(2) 0.8837(3)
C18_7 C 0.13708(14) 0.9438(3) 0.8608(3)
H10_7 H 0.1205 0.9189 0.8262
C19_7 C 0.15938(14) 0.9014(2) 0.9143(3)
C20_7 C 0.18449(15) 0.9420(3) 0.9638(3)
H11_7 H 0.2000 0.9154 0.9993
C22_7 C 0.15740(14) 0.8161(2) 0.9177(3)
C23_7 C 0.14368(15) 0.6796(2) 0.8968(3)
C24_7 C 0.17275(16) 0.6980(3) 0.9502(3)
C25_7 C 0.15977(14) 0.5615(3) 0.9254(3)
C26_7 C 0.16001(15) 0.4759(2) 0.9237(3)
C27_7 C 0.13260(15) 0.4362(3) 0.8806(3)
H13_7 H 0.1137 0.4628 0.8529
C28_7 C 0.13405(15) 0.3552(3) 0.8799(3)
H14_7 H 0.1154 0.3287 0.8511
C29_7 C 0.18657(16) 0.3532(3) 0.9599(3)
H15_7 H 0.2051 0.3249 0.9871
C30_7 C 0.18771(16) 0.4339(3) 0.9655(3)
H16_7 H 0.2062 0.4589 0.9958
C5_7 C 0.98502(14) 0.1228(2) 0.7568(3)
C6_7 C 0.98099(16) 0.1031(3) 0.8345(3)
H3_7 H 0.9573 0.0851 0.8524
C8_7 C 0.95382(15) 0.1157(2) 0.6979(3)
N6_4 N 0.59317(11) 0.25803(19) 0.0955(3)
C39_8 C 0.59224(15) 0.0103(3) 0.0912(4)
C40_8 C 0.59202(14) 0.0952(3) 0.0934(4)
C41_8 C 0.56759(17) 0.1392(3) 0.0462(3)
H21_8 H 0.5504 0.1143 0.0127
C42_8 C 0.56875(15) 0.2190(3) 0.0490(3)
H22_8 H 0.5519 0.2471 0.0174
C43_8 C 0.61556(16) 0.2148(3) 0.1432(3)
H23_8 H 0.6318 0.2408 0.1778
C44_8 C 0.61603(17) 0.1349(3) 0.1441(4)
H24_8 H 0.6322 0.1081 0.1782
N2_4 N 0.66034(12) 0.1867(2) 0.9175(3)
C26_8 C 0.66001(15) 0.0241(2) 0.9237(3)
C27_8 C 0.63260(15) 0.0638(3) 0.8806(3)
H13_8 H 0.6137 0.0372 0.8529
C28_8 C 0.63405(15) 0.1448(3) 0.8799(3)
H14_8 H 0.6154 0.1713 0.8511
C29_8 C 0.68657(16) 0.1468(3) 0.9599(3)
H15_8 H 0.7051 0.1751 0.9871
C30_8 C 0.68771(16) 0.0661(3) 0.9655(3)
H16_8 H 0.7062 0.0411 0.9958
S3_8 S 0.62820(4) 0.80747(7) 0.15927(9)
S4_8 S 0.56281(5) 0.95746(7) 0.02708(9)
O5_8 O 0.67991(11) 0.30911(17) 0.0241(2)
O6_8 O 0.65280(10) 0.38068(17) 0.1185(2)
N5_8 N 0.59890(11) 0.5077(2) 0.0888(3)
N7_8 N 0.57613(14) 0.7963(2) 0.0491(3)
N8_8 N 0.61484(14) 0.9684(2) 0.1375(3)
C9_8 C 0.67854(14) 0.3370(2) 0.0920(3)
C10_8 C 0.70937(15) 0.3099(2) 0.1451(3)
C11_8 C 0.74130(15) 0.2700(3) 0.1174(3)
H5_8 H 0.7447 0.2634 0.0637
C12_8 C 0.76821(16) 0.2399(3) 0.1692(3)
H6_8 H 0.7903 0.2159 0.1503
C13_8 C 0.76213(15) 0.2457(3) 0.2491(3)
C14_8 C 0.73071(16) 0.2850(3) 0.2776(3)
H7_8 H 0.7273 0.2904 0.3314
C15_8 C 0.70403(16) 0.3168(3) 0.2261(3)
H8_8 H 0.6825 0.3427 0.2455
C16_8 C 0.78946(15) 0.2114(3) 0.3054(3)
C31_8 C 0.57583(17) 0.5486(3) 0.0434(3)
H17_8 H 0.5591 0.5220 0.0102
C32_8 C 0.57517(17) 0.6297(3) 0.0427(3)
H18_8 H 0.5583 0.6564 0.0099
C33_8 C 0.59996(14) 0.6699(2) 0.0915(3)
C34_8 C 0.62440(15) 0.6270(3) 0.1406(3)
H19_8 H 0.6414 0.6520 0.1742
C35_8 C 0.62268(14) 0.5463(3) 0.1380(3)
H20_8 H 0.6385 0.5177 0.1713
C36_8 C 0.59900(15) 0.7562(2) 0.0933(4)
C37_8 C 0.58219(17) 0.8733(2) 0.0657(3)
C38_8 C 0.60826(15) 0.8918(3) 0.1215(3)
S1_8 S 0.62387(4) 0.73525(7) 0.86131(9)
S2_8 S 0.69270(4) 0.88685(7) 0.98463(8)
O1_8 O 0.60641(10) 0.31057(16) 0.8929(2)
O2_8 O 0.57809(10) 0.38879(17) 0.9792(2)
N1_8 N 0.66416(11) 0.43621(19) 0.9087(3)
N3_8 N 0.68072(13) 0.7256(2) 0.9623(3)
N4_8 N 0.63579(14) 0.8969(2) 0.8837(3)
C1_8 C 0.57919(13) 0.3530(2) 0.9158(3)
C2_8 C 0.54567(14) 0.3602(2) 0.8618(3)
C3_8 C 0.54997(16) 0.3381(3) 0.7845(3)
H1_8 H 0.5733 0.3170 0.7681
C4_8 C 0.52022(17) 0.3468(4) 0.7304(3)
H2_8 H 0.5236 0.3328 0.6781
C5_8 C 0.48502(14) 0.3772(2) 0.7568(3)
C6_8 C 0.48099(16) 0.3969(3) 0.8345(3)
H3_8 H 0.4573 0.4149 0.8524
C7_8 C 0.51118(14) 0.3906(3) 0.8864(3)
H4_8 H 0.5082 0.4069 0.9381
C8_8 C 0.45382(15) 0.3843(2) 0.6979(3)
C17_8 C 0.64064(13) 0.4751(2) 0.8613(3)
H9_8 H 0.6257 0.4467 0.8263
C18_8 C 0.63708(14) 0.5562(3) 0.8608(3)
H10_8 H 0.6205 0.5811 0.8262
C19_8 C 0.65938(14) 0.5986(2) 0.9143(3)
C20_8 C 0.68449(15) 0.5580(3) 0.9638(3)
H11_8 H 0.7000 0.5846 0.9993
C21_8 C 0.68581(14) 0.4787(3) 0.9589(3)
H12_8 H 0.7026 0.4523 0.9920
C22_8 C 0.65740(14) 0.6839(2) 0.9177(3)
C23_8 C 0.64368(15) 0.8204(2) 0.8968(3)
C24_8 C 0.67275(16) 0.8020(3) 0.9502(3)
C25_8 C 0.65977(14) 0.9385(3) 0.9254(3)
loop_
_geom_bond_atom_site_label_1
_geom_bond_atom_site_label_2
_geom_bond_site_symmetry_1
_geom_bond_site_symmetry_2
Co1 O1 1_555 1_555
Co2 O2 1_555 1_555
S1 C22 1_555 1_555
S2 C24 1_555 1_555
S3 C36 1_555 1_555
S4 C37 1_555 1_555
O1 C1 1_555 1_555
O2 C1 1_555 1_555
O3 C8 1_555 1_555
O4 C8 1_555 1_555
O5 Co1 1_555 1_555
O6 Co2 1_555 1_555
O7 C16 1_555 1_555
O8 C16 1_555 1_555
N1 Co1 1_555 1_555
N3 C22 1_555 1_555
N4 C23 1_555 1_555
N5 Co2 1_555 1_555
N7 C36 1_555 1_555
N8 C38 1_555 1_555
C1 C2 1_555 1_555
C2 C3 1_555 1_555
C3 H1 1_555 1_555
C4 C3 1_555 1_555
H2 C4 1_555 1_555
C5 C4 1_555 1_555
C6 C5 1_555 1_555
H3 C6 1_555 1_555
C7 C2 1_555 1_555
H4 C7 1_555 1_555
C8 C5 1_555 1_555
C9 O5 1_555 1_555
C10 C9 1_555 1_555
C11 C10 1_555 1_555
H5 C11 1_555 1_555
C12 C11 1_555 1_555
H6 C12 1_555 1_555
C13 C12 1_555 1_555
C14 C13 1_555 1_555
H7 C14 1_555 1_555
C15 C10 1_555 1_555
H8 C15 1_555 1_555
C16 C13 1_555 1_555
C17 N1 1_555 1_555
H9 C17 1_555 1_555
C18 C17 1_555 1_555
H10 C18 1_555 1_555
C19 C18 1_555 1_555
C20 C19 1_555 1_555
H11 C20 1_555 1_555
C21 N1 1_555 1_555
H12 C21 1_555 1_555
C22 C19 1_555 1_555
C23 S1 1_555 1_555
C24 N3 1_555 1_555
C25 S2 1_555 1_555
C31 N5 1_555 1_555
H17 C31 1_555 1_555
C32 C31 1_555 1_555
H18 C32 1_555 1_555
C33 C32 1_555 1_555
C34 C33 1_555 1_555
H19 C34 1_555 1_555
C35 N5 1_555 1_555
H20 C35 1_555 1_555
C36 C33 1_555 1_555
C37 N7 1_555 1_555
C38 S3 1_555 1_555
Co4 O7 1_555 1_555
Co6 O3 1_555 1_555
O9 Co2 1_555 1_555
O10 Co2 1_555 1_555
O11 Co1 1_555 1_555
O12 Co1 1_555 1_555
N9 Co1 1_555 1_555
N10 Co2 1_555 1_555
O4 Co6 1_555 1_555
O6 C9 1_555 1_555
O8 Co4 1_555 1_555
N4 C25 1_555 1_555
C6 C7 1_555 1_555
C14 C15 1_555 1_555
C20 C21 1_555 1_555
C23 C24 1_555 1_555
C34 C35 1_555 1_555
C37 C38 1_555 1_555
N9 C28 1_555 1_555
N10 C42 1_555 1_555
C27 C26 1_555 1_555
H13 C27 1_555 1_555
C28 C27 1_555 1_555
H14 C28 1_555 1_555
C29 N9 1_555 1_555
H15 C29 1_555 1_555
C30 C26 1_555 1_555
H16 C30 1_555 1_555
C40 C39 1_555 1_555
C41 C40 1_555 1_555
H21 C41 1_555 1_555
C42 C41 1_555 1_555
H22 C42 1_555 1_555
C43 N10 1_555 1_555
H23 C43 1_555 1_555
C44 C40 1_555 1_555
H24 C44 1_555 1_555
C29 C30 1_555 1_555
C43 C44 1_555 1_555
S1_2 C22_2 1_555 1_555
S2_2 C24_2 1_555 1_555
S3_2 C36_2 1_555 1_555
S4_2 C37_2 1_555 1_555
N2 C28_2 1_555 1_555
N3_2 C22_2 1_555 1_555
N4_2 C23_2 1_555 1_555
N6 C42_2 1_555 1_555
N7_2 C36_2 1_555 1_555
N8_2 C38_2 1_555 1_555
H10_2 C18_2 1_555 1_555
C19_2 C18_2 1_555 1_555
C20_2 C19_2 1_555 1_555
H11_2 C20_2 1_555 1_555
C22_2 C19_2 1_555 1_555
C23_2 S1_2 1_555 1_555
C24_2 N3_2 1_555 1_555
C25_2 S2_2 1_555 1_555
C26_2 C25_2 1_555 1_555
C27_2 C26_2 1_555 1_555
H13_2 C27_2 1_555 1_555
C28_2 C27_2 1_555 1_555
H14_2 C28_2 1_555 1_555
C29_2 N2 1_555 1_555
H15_2 C29_2 1_555 1_555
C30_2 C26_2 1_555 1_555
H16_2 C30_2 1_555 1_555
C31_2 N5_2 1_555 1_555
H17_2 C31_2 1_555 1_555
C32_2 C31_2 1_555 1_555
H18_2 C32_2 1_555 1_555
C33_2 C32_2 1_555 1_555
C34_2 C33_2 1_555 1_555
H19_2 C34_2 1_555 1_555
C35_2 N5_2 1_555 1_555
H20_2 C35_2 1_555 1_555
C36_2 C33_2 1_555 1_555
C37_2 N7_2 1_555 1_555
C38_2 S3_2 1_555 1_555
C39_2 S4_2 1_555 1_555
C40_2 C39_2 1_555 1_555
C41_2 C40_2 1_555 1_555
H21_2 C41_2 1_555 1_555
C42_2 C41_2 1_555 1_555
H22_2 C42_2 1_555 1_555
C43_2 N6 1_555 1_555
H23_2 C43_2 1_555 1_555
C44_2 C40_2 1_555 1_555
H24_2 C44_2 1_555 1_555
Co3 N2 1_555 1_555
Co5 N6 1_555 1_555
N4_2 C25_2 1_555 1_555
N8_2 C39_2 1_555 1_555
C23_2 C24_2 1_555 1_555
C29_2 C30_2 1_555 1_555
C34_2 C35_2 1_555 1_555
C37_2 C38_2 1_555 1_555
C43_2 C44_2 1_555 1_555
Co3 O1_2 1_555 1_555
Co5 O2_2 1_555 1_555
O1_2 C1_2 1_555 1_555
O2_2 C1_2 1_555 1_555
O5_2 Co3 1_555 1_555
O6_2 Co5 1_555 1_555
O7_2 C16_2 1_555 1_555
O8_2 C16_2 1_555 1_555
N1_2 Co3 1_555 1_555
C1_2 C2_2 1_555 1_555
C2_2 C3_2 1_555 1_555
C3_2 H1_2 1_555 1_555
C4_2 C3_2 1_555 1_555
H2_2 C4_2 1_555 1_555
C7_2 C2_2 1_555 1_555
H4_2 C7_2 1_555 1_555
C9_2 O5_2 1_555 1_555
C10_2 C9_2 1_555 1_555
C11_2 C10_2 1_555 1_555
H5_2 C11_2 1_555 1_555
C12_2 C11_2 1_555 1_555
H6_2 C12_2 1_555 1_555
C13_2 C12_2 1_555 1_555
C14_2 C13_2 1_555 1_555
H7_2 C14_2 1_555 1_555
C15_2 C10_2 1_555 1_555
H8_2 C15_2 1_555 1_555
C16_2 C13_2 1_555 1_555
C17_2 N1_2 1_555 1_555
H9_2 C17_2 1_555 1_555
C21_2 N1_2 1_555 1_555
H12_2 C21_2 1_555 1_555
Co4_2 O7_2 1_555 1_555
O9_2 Co5 1_555 1_555
O10_2 Co5 1_555 1_555
O11_2 Co3 1_555 1_555
O12_2 Co3 1_555 1_555
O6_2 C9_2 1_555 1_555
O8_2 Co4_2 1_555 1_555
C14_2 C15_2 1_555 1_555
O3_2 C8_2 1_555 1_555
O4_2 C8_2 1_555 1_555
C6_2 C5_2 1_555 1_555
H3_2 C6_2 1_555 1_555
C8_2 C5_2 1_555 1_555
Co6_2 O3_2 1_555 1_555
O4_2 Co6_2 1_555 1_555
O9_2 C8_3 1_555 1_555
O10_2 C8_3 1_555 1_555
C6_3 C5_3 1_555 1_555
H3_3 C6_3 1_555 1_555
C8_3 C5_3 1_555 1_555
S3_3 C36_3 1_555 1_555
S4_3 C37_3 1_555 1_555
N6_2 C42_3 1_555 1_555
N7_3 C36_3 1_555 1_555
N8_3 C38_3 1_555 1_555
C31_3 N5_3 1_555 1_555
H17_3 C31_3 1_555 1_555
C32_3 C31_3 1_555 1_555
H18_3 C32_3 1_555 1_555
C33_3 C32_3 1_555 1_555
C34_3 C33_3 1_555 1_555
H19_3 C34_3 1_555 1_555
C35_3 N5_3 1_555 1_555
H20_3 C35_3 1_555 1_555
C36_3 C33_3 1_555 1_555
C37_3 N7_3 1_555 1_555
C38_3 S3_3 1_555 1_555
C39_3 S4_3 1_555 1_555
C40_3 C39_3 1_555 1_555
C41_3 C40_3 1_555 1_555
H21_3 C41_3 1_555 1_555
C42_3 C41_3 1_555 1_555
H22_3 C42_3 1_555 1_555
C43_3 N6_2 1_555 1_555
H23_3 C43_3 1_555 1_555
C44_3 C40_3 1_555 1_555
H24_3 C44_3 1_555 1_555
Co6_2 N6_2 1_555 1_555
N8_3 C39_3 1_555 1_555
C34_3 C35_3 1_555 1_555
C37_3 C38_3 1_555 1_555
C43_3 C44_3 1_555 1_555
S1_3 C22_3 1_555 1_555
S2_3 C24_3 1_555 1_555
N2_2 C28_3 1_555 1_555
N3_3 C22_3 1_555 1_555
N4_3 C23_3 1_555 1_555
H10_3 C18_3 1_555 1_555
C19_3 C18_3 1_555 1_555
C20_3 C19_3 1_555 1_555
H11_3 C20_3 1_555 1_555
C22_3 C19_3 1_555 1_555
C23_3 S1_3 1_555 1_555
C24_3 N3_3 1_555 1_555
C25_3 S2_3 1_555 1_555
C26_3 C25_3 1_555 1_555
C27_3 C26_3 1_555 1_555
H13_3 C27_3 1_555 1_555
C28_3 C27_3 1_555 1_555
H14_3 C28_3 1_555 1_555
C29_3 N2_2 1_555 1_555
H15_3 C29_3 1_555 1_555
C30_3 C26_3 1_555 1_555
H16_3 C30_3 1_555 1_555
Co4 N2_2 1_555 1_555
N4_3 C25_3 1_555 1_555
C23_3 C24_3 1_555 1_555
C29_3 C30_3 1_555 1_555
O6_3 Co6_2 1_555 1_555
O11 C16_3 1_555 1_555
O12 C16_3 1_555 1_555
C9_3 O5_3 1_555 1_555
C10_3 C9_3 1_555 1_555
C11_3 C10_3 1_555 1_555
H5_3 C11_3 1_555 1_555
C12_3 C11_3 1_555 1_555
H6_3 C12_3 1_555 1_555
C13_3 C12_3 1_555 1_555
C14_3 C13_3 1_555 1_555
H7_3 C14_3 1_555 1_555
C15_3 C10_3 1_555 1_555
H8_3 C15_3 1_555 1_555
C16_3 C13_3 1_555 1_555
O6_3 C9_3 1_555 1_555
C14_3 C15_3 1_555 1_555
Co4 O1_3 1_555 1_555
O1_3 C1_3 1_555 1_555
O2_3 C1_3 1_555 1_555
N1_3 Co4 1_555 1_555
C1_3 C2_3 1_555 1_555
C2_3 C3_3 1_555 1_555
C3_3 H1_3 1_555 1_555
C4_3 C3_3 1_555 1_555
H2_3 C4_3 1_555 1_555
C7_3 C2_3 1_555 1_555
H4_3 C7_3 1_555 1_555
C17_3 N1_3 1_555 1_555
H9_3 C17_3 1_555 1_555
C21_3 N1_3 1_555 1_555
H12_3 C21_3 1_555 1_555
S3_4 C36_4 1_555 1_555
S4_4 C37_4 1_555 1_555
O6_4 Co6 1_555 1_555
O11_2 C16_4 1_555 1_555
O12_2 C16_4 1_555 1_555
N5_4 Co6 1_555 1_555
N7_4 C36_4 1_555 1_555
N8_4 C38_4 1_555 1_555
C9_4 O5_4 1_555 1_555
C10_4 C9_4 1_555 1_555
C11_4 C10_4 1_555 1_555
H5_4 C11_4 1_555 1_555
C12_4 C11_4 1_555 1_555
H6_4 C12_4 1_555 1_555
C13_4 C12_4 1_555 1_555
C14_4 C13_4 1_555 1_555
H7_4 C14_4 1_555 1_555
C15_4 C10_4 1_555 1_555
H8_4 C15_4 1_555 1_555
C16_4 C13_4 1_555 1_555
C31_4 N5_4 1_555 1_555
H17_4 C31_4 1_555 1_555
C32_4 C31_4 1_555 1_555
H18_4 C32_4 1_555 1_555
C33_4 C32_4 1_555 1_555
C34_4 C33_4 1_555 1_555
H19_4 C34_4 1_555 1_555
C35_4 N5_4 1_555 1_555
H20_4 C35_4 1_555 1_555
C36_4 C33_4 1_555 1_555
C37_4 N7_4 1_555 1_555
C38_4 S3_4 1_555 1_555
N10_2 Co6 1_555 1_555
O6_4 C9_4 1_555 1_555
C14_4 C15_4 1_555 1_555
C34_4 C35_4 1_555 1_555
C37_4 C38_4 1_555 1_555
Co4_2 O1_4 1_555 1_555
S1_4 C22_4 1_555 1_555
S2_4 C24_4 1_555 1_555
O1_4 C1_4 1_555 1_555
O2_4 C1_4 1_555 1_555
O9 C8_4 1_555 1_555
O10 C8_4 1_555 1_555
N1_4 Co4_2 1_555 1_555
N3_4 C22_4 1_555 1_555
N4_4 C23_4 1_555 1_555
C1_4 C2_4 1_555 1_555
C2_4 C3_4 1_555 1_555
C3_4 H1_4 1_555 1_555
C4_4 C3_4 1_555 1_555
H2_4 C4_4 1_555 1_555
C5_4 C4_4 1_555 1_555
C6_4 C5_4 1_555 1_555
H3_4 C6_4 1_555 1_555
C7_4 C2_4 1_555 1_555
H4_4 C7_4 1_555 1_555
C8_4 C5_4 1_555 1_555
C17_4 N1_4 1_555 1_555
H9_4 C17_4 1_555 1_555
C18_4 C17_4 1_555 1_555
H10_4 C18_4 1_555 1_555
C19_4 C18_4 1_555 1_555
C20_4 C19_4 1_555 1_555
H11_4 C20_4 1_555 1_555
C21_4 N1_4 1_555 1_555
H12_4 C21_4 1_555 1_555
C22_4 C19_4 1_555 1_555
C23_4 S1_4 1_555 1_555
C24_4 N3_4 1_555 1_555
C25_4 S2_4 1_555 1_555
N9_2 Co4_2 1_555 1_555
N4_4 C25_4 1_555 1_555
C6_4 C7_4 1_555 1_555
C20_4 C21_4 1_555 1_555
C23_4 C24_4 1_555 1_555
N10_2 C42_4 1_555 1_555
C40_4 C39_4 1_555 1_555
C41_4 C40_4 1_555 1_555
H21_4 C41_4 1_555 1_555
C42_4 C41_4 1_555 1_555
H22_4 C42_4 1_555 1_555
C43_4 N10_2 1_555 1_555
H23_4 C43_4 1_555 1_555
C44_4 C40_4 1_555 1_555
H24_4 C44_4 1_555 1_555
C43_4 C44_4 1_555 1_555
N9_2 C28_4 1_555 1_555
C27_4 C26_4 1_555 1_555
H13_4 C27_4 1_555 1_555
C28_4 C27_4 1_555 1_555
H14_4 C28_4 1_555 1_555
C29_4 N9_2 1_555 1_555
H15_4 C29_4 1_555 1_555
C30_4 C26_4 1_555 1_555
H16_4 C30_4 1_555 1_555
C29_4 C30_4 1_555 1_555
N2_3 C28_5 1_555 1_555
N6_3 C42_5 1_555 1_555
C27_5 C26_5 1_555 1_555
H13_5 C27_5 1_555 1_555
C28_5 C27_5 1_555 1_555
H14_5 C28_5 1_555 1_555
C29_5 N2_3 1_555 1_555
H15_5 C29_5 1_555 1_555
C30_5 C26_5 1_555 1_555
H16_5 C30_5 1_555 1_555
C40_5 C39_5 1_555 1_555
C41_5 C40_5 1_555 1_555
H21_5 C41_5 1_555 1_555
C42_5 C41_5 1_555 1_555
H22_5 C42_5 1_555 1_555
C43_5 N6_3 1_555 1_555
H23_5 C43_5 1_555 1_555
C44_5 C40_5 1_555 1_555
H24_5 C44_5 1_555 1_555
Co3_2 N2_3 1_555 1_555
Co5_2 N6_3 1_555 1_555
C29_5 C30_5 1_555 1_555
C43_5 C44_5 1_555 1_555
Co3_2 O1_5 1_555 1_555
Co5_2 O2_5 1_555 1_555
S1_5 C22_5 1_555 1_555
S2_5 C24_5 1_555 1_555
S3_5 C36_5 1_555 1_555
S4_5 C37_5 1_555 1_555
O1_5 C1_5 1_555 1_555
O2_5 C1_5 1_555 1_555
O3_3 C8_5 1_555 1_555
O4_3 C8_5 1_555 1_555
O5_5 Co3_2 1_555 1_555
O6_5 Co5_2 1_555 1_555
O7_3 C16_5 1_555 1_555
O8_3 C16_5 1_555 1_555
N1_5 Co3_2 1_555 1_555
N3_5 C22_5 1_555 1_555
N4_5 C23_5 1_555 1_555
N5_5 Co5_2 1_555 1_555
N7_5 C36_5 1_555 1_555
N8_5 C38_5 1_555 1_555
C1_5 C2_5 1_555 1_555
C2_5 C3_5 1_555 1_555
C3_5 H1_5 1_555 1_555
C4_5 C3_5 1_555 1_555
H2_5 C4_5 1_555 1_555
C5_5 C4_5 1_555 1_555
C6_5 C5_5 1_555 1_555
H3_5 C6_5 1_555 1_555
C7_5 C2_5 1_555 1_555
H4_5 C7_5 1_555 1_555
C8_5 C5_5 1_555 1_555
C9_5 O5_5 1_555 1_555
C10_5 C9_5 1_555 1_555
C11_5 C10_5 1_555 1_555
H5_5 C11_5 1_555 1_555
C12_5 C11_5 1_555 1_555
H6_5 C12_5 1_555 1_555
C13_5 C12_5 1_555 1_555
C14_5 C13_5 1_555 1_555
H7_5 C14_5 1_555 1_555
C15_5 C10_5 1_555 1_555
H8_5 C15_5 1_555 1_555
C16_5 C13_5 1_555 1_555
C17_5 N1_5 1_555 1_555
H9_5 C17_5 1_555 1_555
C18_5 C17_5 1_555 1_555
H10_5 C18_5 1_555 1_555
C19_5 C18_5 1_555 1_555
C20_5 C19_5 1_555 1_555
H11_5 C20_5 1_555 1_555
C21_5 N1_5 1_555 1_555
H12_5 C21_5 1_555 1_555
C22_5 C19_5 1_555 1_555
C23_5 S1_5 1_555 1_555
C24_5 N3_5 1_555 1_555
C25_5 S2_5 1_555 1_555
C31_5 N5_5 1_555 1_555
H17_5 C31_5 1_555 1_555
C32_5 C31_5 1_555 1_555
H18_5 C32_5 1_555 1_555
C33_5 C32_5 1_555 1_555
C34_5 C33_5 1_555 1_555
H19_5 C34_5 1_555 1_555
C35_5 N5_5 1_555 1_555
H20_5 C35_5 1_555 1_555
C36_5 C33_5 1_555 1_555
C37_5 N7_5 1_555 1_555
C38_5 S3_5 1_555 1_555
Co4_3 O7_3 1_555 1_555
Co6_3 O3_3 1_555 1_555
O9_3 Co5_2 1_555 1_555
O10_3 Co5_2 1_555 1_555
O11_3 Co3_2 1_555 1_555
O12_3 Co3_2 1_555 1_555
O4_3 Co6_3 1_555 1_555
O6_5 C9_5 1_555 1_555
O8_3 Co4_3 1_555 1_555
N4_5 C25_5 1_555 1_555
C6_5 C7_5 1_555 1_555
C14_5 C15_5 1_555 1_555
C20_5 C21_5 1_555 1_555
C23_5 C24_5 1_555 1_555
C34_5 C35_5 1_555 1_555
C37_5 C38_5 1_555 1_555
O3_4 C8_6 1_555 1_555
O4_4 C8_6 1_555 1_555
C6_6 C5_6 1_555 1_555
H3_6 C6_6 1_555 1_555
C8_6 C5_6 1_555 1_555
Co6_4 O3_4 1_555 1_555
O4_4 Co6_4 1_555 1_555
Co1_2 O1_6 1_555 1_555
Co2_2 O2_6 1_555 1_555
O1_6 C1_6 1_555 1_555
O2_6 C1_6 1_555 1_555
O5_6 Co1_2 1_555 1_555
O6_6 Co2_2 1_555 1_555
O7_4 C16_6 1_555 1_555
O8_4 C16_6 1_555 1_555
N1_6 Co1_2 1_555 1_555
C1_6 C2_6 1_555 1_555
C2_6 C3_6 1_555 1_555
C3_6 H1_6 1_555 1_555
C4_6 C3_6 1_555 1_555
H2_6 C4_6 1_555 1_555
C7_6 C2_6 1_555 1_555
H4_6 C7_6 1_555 1_555
C9_6 O5_6 1_555 1_555
C10_6 C9_6 1_555 1_555
C11_6 C10_6 1_555 1_555
H5_6 C11_6 1_555 1_555
C12_6 C11_6 1_555 1_555
H6_6 C12_6 1_555 1_555
C13_6 C12_6 1_555 1_555
C14_6 C13_6 1_555 1_555
H7_6 C14_6 1_555 1_555
C15_6 C10_6 1_555 1_555
H8_6 C15_6 1_555 1_555
C16_6 C13_6 1_555 1_555
C17_6 N1_6 1_555 1_555
H9_6 C17_6 1_555 1_555
C21_6 N1_6 1_555 1_555
H12_6 C21_6 1_555 1_555
Co4_4 O7_4 1_555 1_555
O9_4 Co2_2 1_555 1_555
O10_4 Co2_2 1_555 1_555
O11_4 Co1_2 1_555 1_555
O12_4 Co1_2 1_555 1_555
N9_3 Co1_2 1_555 1_555
N10_3 Co2_2 1_555 1_555
O6_6 C9_6 1_555 1_555
O8_4 Co4_4 1_555 1_555
C14_6 C15_6 1_555 1_555
S1_6 C22_6 1_555 1_555
S2_6 C24_6 1_555 1_555
S3_6 C36_6 1_555 1_555
S4_6 C37_6 1_555 1_555
N9_3 C28_6 1_555 1_555
N3_6 C22_6 1_555 1_555
N4_6 C23_6 1_555 1_555
N10_3 C42_6 1_555 1_555
N7_6 C36_6 1_555 1_555
N8_6 C38_6 1_555 1_555
H10_6 C18_6 1_555 1_555
C19_6 C18_6 1_555 1_555
C20_6 C19_6 1_555 1_555
H11_6 C20_6 1_555 1_555
C22_6 C19_6 1_555 1_555
C23_6 S1_6 1_555 1_555
C24_6 N3_6 1_555 1_555
C25_6 S2_6 1_555 1_555
C26_6 C25_6 1_555 1_555
C27_6 C26_6 1_555 1_555
H13_6 C27_6 1_555 1_555
C28_6 C27_6 1_555 1_555
H14_6 C28_6 1_555 1_555
C29_6 N9_3 1_555 1_555
H15_6 C29_6 1_555 1_555
C30_6 C26_6 1_555 1_555
H16_6 C30_6 1_555 1_555
C31_6 N5_6 1_555 1_555
H17_6 C31_6 1_555 1_555
C32_6 C31_6 1_555 1_555
H18_6 C32_6 1_555 1_555
C33_6 C32_6 1_555 1_555
C34_6 C33_6 1_555 1_555
H19_6 C34_6 1_555 1_555
C35_6 N5_6 1_555 1_555
H20_6 C35_6 1_555 1_555
C36_6 C33_6 1_555 1_555
C37_6 N7_6 1_555 1_555
C38_6 S3_6 1_555 1_555
C39_6 S4_6 1_555 1_555
C40_6 C39_6 1_555 1_555
C41_6 C40_6 1_555 1_555
H21_6 C41_6 1_555 1_555
C42_6 C41_6 1_555 1_555
H22_6 C42_6 1_555 1_555
C43_6 N10_3 1_555 1_555
H23_6 C43_6 1_555 1_555
C44_6 C40_6 1_555 1_555
H24_6 C44_6 1_555 1_555
N4_6 C25_6 1_555 1_555
N8_6 C39_6 1_555 1_555
C23_6 C24_6 1_555 1_555
C29_6 C30_6 1_555 1_555
C34_6 C35_6 1_555 1_555
C37_6 C38_6 1_555 1_555
C43_6 C44_6 1_555 1_555
O6_7 Co6_4 1_555 1_555
O11_3 C16_7 1_555 1_555
O12_3 C16_7 1_555 1_555
C9_7 O5_7 1_555 1_555
C10_7 C9_7 1_555 1_555
C11_7 C10_7 1_555 1_555
H5_7 C11_7 1_555 1_555
C12_7 C11_7 1_555 1_555
H6_7 C12_7 1_555 1_555
C13_7 C12_7 1_555 1_555
C14_7 C13_7 1_555 1_555
H7_7 C14_7 1_555 1_555
C15_7 C10_7 1_555 1_555
H8_7 C15_7 1_555 1_555
C16_7 C13_7 1_555 1_555
N10_4 Co6_4 1_555 1_555
O6_7 C9_7 1_555 1_555
C14_7 C15_7 1_555 1_555
Co4_3 O1_7 1_555 1_555
O1_7 C1_7 1_555 1_555
O2_7 C1_7 1_555 1_555
N1_7 Co4_3 1_555 1_555
C1_7 C2_7 1_555 1_555
C2_7 C3_7 1_555 1_555
C3_7 H1_7 1_555 1_555
C4_7 C3_7 1_555 1_555
H2_7 C4_7 1_555 1_555
C7_7 C2_7 1_555 1_555
H4_7 C7_7 1_555 1_555
C17_7 N1_7 1_555 1_555
H9_7 C17_7 1_555 1_555
C21_7 N1_7 1_555 1_555
H12_7 C21_7 1_555 1_555
N9_4 Co4_3 1_555 1_555
S3_7 C36_7 1_555 1_555
S4_7 C37_7 1_555 1_555
N10_4 C42_7 1_555 1_555
N7_7 C36_7 1_555 1_555
N8_7 C38_7 1_555 1_555
C31_7 N5_7 1_555 1_555
H17_7 C31_7 1_555 1_555
C32_7 C31_7 1_555 1_555
H18_7 C32_7 1_555 1_555
C33_7 C32_7 1_555 1_555
C34_7 C33_7 1_555 1_555
H19_7 C34_7 1_555 1_555
C35_7 N5_7 1_555 1_555
H20_7 C35_7 1_555 1_555
C36_7 C33_7 1_555 1_555
C37_7 N7_7 1_555 1_555
C38_7 S3_7 1_555 1_555
C39_7 S4_7 1_555 1_555
C40_7 C39_7 1_555 1_555
C41_7 C40_7 1_555 1_555
H21_7 C41_7 1_555 1_555
C42_7 C41_7 1_555 1_555
H22_7 C42_7 1_555 1_555
C43_7 N10_4 1_555 1_555
H23_7 C43_7 1_555 1_555
C44_7 C40_7 1_555 1_555
H24_7 C44_7 1_555 1_555
N8_7 C39_7 1_555 1_555
C34_7 C35_7 1_555 1_555
C37_7 C38_7 1_555 1_555
C43_7 C44_7 1_555 1_555
S1_7 C22_7 1_555 1_555
S2_7 C24_7 1_555 1_555
N9_4 C28_7 1_555 1_555
N3_7 C22_7 1_555 1_555
N4_7 C23_7 1_555 1_555
H10_7 C18_7 1_555 1_555
C19_7 C18_7 1_555 1_555
C20_7 C19_7 1_555 1_555
H11_7 C20_7 1_555 1_555
C22_7 C19_7 1_555 1_555
C23_7 S1_7 1_555 1_555
C24_7 N3_7 1_555 1_555
C25_7 S2_7 1_555 1_555
C26_7 C25_7 1_555 1_555
C27_7 C26_7 1_555 1_555
H13_7 C27_7 1_555 1_555
C28_7 C27_7 1_555 1_555
H14_7 C28_7 1_555 1_555
C29_7 N9_4 1_555 1_555
H15_7 C29_7 1_555 1_555
C30_7 C26_7 1_555 1_555
H16_7 C30_7 1_555 1_555
N4_7 C25_7 1_555 1_555
C23_7 C24_7 1_555 1_555
C29_7 C30_7 1_555 1_555
O9_4 C8_7 1_555 1_555
O10_4 C8_7 1_555 1_555
C6_7 C5_7 1_555 1_555
H3_7 C6_7 1_555 1_555
C8_7 C5_7 1_555 1_555
N6_4 C42_8 1_555 1_555
C40_8 C39_8 1_555 1_555
C41_8 C40_8 1_555 1_555
H21_8 C41_8 1_555 1_555
C42_8 C41_8 1_555 1_555
H22_8 C42_8 1_555 1_555
C43_8 N6_4 1_555 1_555
H23_8 C43_8 1_555 1_555
C44_8 C40_8 1_555 1_555
H24_8 C44_8 1_555 1_555
Co6_3 N6_4 1_555 1_555
C43_8 C44_8 1_555 1_555
N2_4 C28_8 1_555 1_555
C27_8 C26_8 1_555 1_555
H13_8 C27_8 1_555 1_555
C28_8 C27_8 1_555 1_555
H14_8 C28_8 1_555 1_555
C29_8 N2_4 1_555 1_555
H15_8 C29_8 1_555 1_555
C30_8 C26_8 1_555 1_555
H16_8 C30_8 1_555 1_555
Co4_4 N2_4 1_555 1_555
C29_8 C30_8 1_555 1_555
S3_8 C36_8 1_555 1_555
S4_8 C37_8 1_555 1_555
O6_8 Co6_3 1_555 1_555
O11_4 C16_8 1_555 1_555
O12_4 C16_8 1_555 1_555
N5_8 Co6_3 1_555 1_555
N7_8 C36_8 1_555 1_555
N8_8 C38_8 1_555 1_555
C9_8 O5_8 1_555 1_555
C10_8 C9_8 1_555 1_555
C11_8 C10_8 1_555 1_555
H5_8 C11_8 1_555 1_555
C12_8 C11_8 1_555 1_555
H6_8 C12_8 1_555 1_555
C13_8 C12_8 1_555 1_555
C14_8 C13_8 1_555 1_555
H7_8 C14_8 1_555 1_555
C15_8 C10_8 1_555 1_555
H8_8 C15_8 1_555 1_555
C16_8 C13_8 1_555 1_555
C31_8 N5_8 1_555 1_555
H17_8 C31_8 1_555 1_555
C32_8 C31_8 1_555 1_555
H18_8 C32_8 1_555 1_555
C33_8 C32_8 1_555 1_555
C34_8 C33_8 1_555 1_555
H19_8 C34_8 1_555 1_555
C35_8 N5_8 1_555 1_555
H20_8 C35_8 1_555 1_555
C36_8 C33_8 1_555 1_555
C37_8 N7_8 1_555 1_555
C38_8 S3_8 1_555 1_555
O6_8 C9_8 1_555 1_555
C14_8 C15_8 1_555 1_555
C34_8 C35_8 1_555 1_555
C37_8 C38_8 1_555 1_555
Co4_4 O1_8 1_555 1_555
S1_8 C22_8 1_555 1_555
S2_8 C24_8 1_555 1_555
O1_8 C1_8 1_555 1_555
O2_8 C1_8 1_555 1_555
O9_3 C8_8 1_555 1_555
O10_3 C8_8 1_555 1_555
N1_8 Co4_4 1_555 1_555
N3_8 C22_8 1_555 1_555
N4_8 C23_8 1_555 1_555
C1_8 C2_8 1_555 1_555
C2_8 C3_8 1_555 1_555
C3_8 H1_8 1_555 1_555
C4_8 C3_8 1_555 1_555
H2_8 C4_8 1_555 1_555
C5_8 C4_8 1_555 1_555
C6_8 C5_8 1_555 1_555
H3_8 C6_8 1_555 1_555
C7_8 C2_8 1_555 1_555
H4_8 C7_8 1_555 1_555
C8_8 C5_8 1_555 1_555
C17_8 N1_8 1_555 1_555
H9_8 C17_8 1_555 1_555
C18_8 C17_8 1_555 1_555
H10_8 C18_8 1_555 1_555
C19_8 C18_8 1_555 1_555
C20_8 C19_8 1_555 1_555
H11_8 C20_8 1_555 1_555
C21_8 N1_8 1_555 1_555
H12_8 C21_8 1_555 1_555
C22_8 C19_8 1_555 1_555
C23_8 S1_8 1_555 1_555
C24_8 N3_8 1_555 1_555
C25_8 S2_8 1_555 1_555
N4_8 C25_8 1_555 1_555
C6_8 C7_8 1_555 1_555
C20_8 C21_8 1_555 1_555
C23_8 C24_8 1_555 1_555

#END
