
###############################################################################
#
# This file contains modified crystal structure data generated from the
# MOF subset of the Cambridge Structural Database (CSD) v543 
# hosted by the Cambridge Crystallographic Data Centre (CCDC).
#
# This work is licensed under the Creative Commons
# Attribution-NonCommercial-ShareAlike 4.0 International License.
# To view a copy of this license, visit
# http://creativecommons.org/licenses/by-nc-sa/4.0/
# or send a letter to
# Creative Commons, PO Box 1866, Mountain View, CA 94042, USA.
#
# CIF created using the CSD Python API on 29 September 2022
# The structure has been converted into the P1 space group
# The structure has a 3D framework
# The original CSD entry LIJHAQ is in the monoclinic crystal system
# The framework has been calculated to contain at least 10.0% void space
# The void calculation uses a probe of radius 1.32A, grid spacing 0.4
#
###############################################################################

data_LIJHAQ
_chemical_formula_moiety         '(C176 H96 Cd8 N32 O30 S16)n'
_symmetry_cell_setting           triclinic
_symmetry_space_group_name_H-M   'P 1'
_symmetry_Int_Tables_number      1
_space_group_name_Hall           'P 1'
loop_
_symmetry_equiv_pos_site_id
_symmetry_equiv_pos_as_xyz
1 x,y,z
_cell_length_a                   17.4695(3)
_cell_length_b                   14.1461(3)
_cell_length_c                   21.1135(3)
_cell_angle_alpha                90
_cell_angle_beta                 99.885(2)
_cell_angle_gamma                90
_cell_volume                     5140.22
loop_
_atom_site_label
_atom_site_type_symbol
_atom_site_fract_x
_atom_site_fract_y
_atom_site_fract_z
S2 S 0.10802(9) 0.49243(12) 0.63541(7)
N2 N 0.3878(3) 0.4211(4) 0.5689(2)
N4 N 0.0936(3) 0.3874(4) 0.5309(2)
C15 C 0.0170(4) 0.4558(4) 0.6001(3)
C16 C 0.0222(3) 0.4017(4) 0.5470(3)
C17 C 0.1441(4) 0.4309(4) 0.5742(3)
C18 C 0.2286(3) 0.4316(4) 0.5727(3)
C19 C 0.2825(4) 0.4753(5) 0.6188(3)
H9 H 0.2663 0.5092 0.6518
C20 C 0.3610(4) 0.4685(5) 0.6157(3)
H10 H 0.3966 0.4979 0.6474
C21 C 0.3348(4) 0.3824(5) 0.5231(3)
H11 H 0.3524 0.3521 0.4892
C22 C 0.2561(4) 0.3844(5) 0.5227(3)
H12 H 0.2218 0.3551 0.4900
Cd2 Cd 0.51885(2) 0.39963(3) 0.57295(2)
Cd4 Cd 0.51885(2) 0.10037(3) 0.07295(2)
S1 S 0.93143(9) 0.36150(11) 0.51327(7)
O1 O 0.5171(3) 0.2685(3) 0.6406(2)
O2 O 0.5387(3) 0.4067(3) 0.68871(19)
O3 O 0.4705(3) 0.0605(3) 0.9334(2)
O4 O 0.5191(2) 0.1891(3) 0.98374(19)
N1 N 0.6528(3) 0.4083(4) 0.5778(3)
N3 N 0.9458(3) 0.4685(4) 0.6160(2)
C1 C 0.5272(4) 0.3194(5) 0.6904(3)
C2 C 0.5222(4) 0.2732(5) 0.7541(3)
C3 C 0.5407(4) 0.3234(4) 0.8114(3)
H1 H 0.5574 0.3857 0.8108
C4 C 0.5345(4) 0.2806(4) 0.8696(3)
H2 H 0.5479 0.3141 0.9078
C5 C 0.5083(3) 0.1880(5) 0.8709(3)
C6 C 0.4883(4) 0.1382(5) 0.8131(3)
H3 H 0.4696 0.0766 0.8135
C7 C 0.4961(4) 0.1803(5) 0.7558(3)
H4 H 0.4839 0.1463 0.7177
C8 C 0.4982(3) 0.1419(4) 0.9330(3)
C9 C 0.6969(4) 0.4756(5) 0.6099(3)
H5 H 0.6734 0.5195 0.6332
C10 C 0.7759(4) 0.4833(5) 0.6102(3)
H6 H 0.8045 0.5320 0.6325
C11 C 0.8119(3) 0.4165(4) 0.5764(3)
C12 C 0.7653(4) 0.3458(6) 0.5446(4)
H7 H 0.7874 0.2991 0.5226
C13 C 0.6868(4) 0.3441(5) 0.5455(4)
H8 H 0.6565 0.2969 0.5230
C14 C 0.8950(4) 0.4220(4) 0.5734(3)
O5 O 0.5295(3) 0.5605(3) 0.5666(2)
O6 O 0.5191(2) 0.3109(3) 0.48374(19)
Cd3 Cd 0.48115(2) 0.89963(3) 0.92705(2)
H5_2 H 0.3266 0.0195 0.8668
H6_2 H 0.1955 0.0320 0.8675
O6_2 O 0.4809(2) 0.8109(3) 0.01626(19)
S1_2 S 0.06857(9) 0.86150(11) 0.98673(7)
O1_2 O 0.4829(3) 0.7685(3) 0.8594(2)
O2_2 O 0.4613(3) 0.9067(3) 0.81129(19)
O4_2 O 0.4809(2) 0.6891(3) 0.51626(19)
N1_2 N 0.3472(3) 0.9083(4) 0.9222(3)
N3_2 N 0.0542(3) 0.9685(4) 0.8840(2)
C1_2 C 0.4728(4) 0.8194(5) 0.8096(3)
C2_2 C 0.4778(4) 0.7732(5) 0.7459(3)
C3_2 C 0.4593(4) 0.8234(4) 0.6886(3)
H1_2 H 0.4426 0.8857 0.6892
C4_2 C 0.4655(4) 0.7806(4) 0.6304(3)
H2_2 H 0.4521 0.8141 0.5922
C5_2 C 0.4917(3) 0.6880(5) 0.6291(3)
C6_2 C 0.5117(4) 0.6382(5) 0.6869(3)
H3_2 H 0.5304 0.5766 0.6865
C7_2 C 0.5039(4) 0.6803(5) 0.7442(3)
H4_2 H 0.5161 0.6463 0.7823
C8_2 C 0.5018(3) 0.6419(4) 0.5670(3)
C9_2 C 0.3031(4) 0.9756(5) 0.8901(3)
C10_2 C 0.2241(4) 0.9833(5) 0.8898(3)
C11_2 C 0.1881(3) 0.9165(4) 0.9236(3)
C12_2 C 0.2347(4) 0.8458(6) 0.9554(4)
H7_2 H 0.2126 0.7991 0.9774
C13_2 C 0.3132(4) 0.8441(5) 0.9545(4)
H8_2 H 0.3435 0.7969 0.9770
C14_2 C 0.1050(4) 0.9220(4) 0.9266(3)
Cd4_2 Cd 0.48115(2) 0.60037(3) 0.42705(2)
N5 N 0.6122(3) 0.9211(4) 0.9311(2)
S2_2 S 0.89198(9) 0.99243(12) 0.86459(7)
N4_2 N 0.9064(3) 0.8874(4) 0.9691(2)
C15_2 C 0.9830(4) 0.9558(4) 0.8999(3)
C16_2 C 0.9778(3) 0.9017(4) 0.9530(3)
C17_2 C 0.8559(4) 0.9309(4) 0.9258(3)
C18_2 C 0.7714(3) 0.9316(4) 0.9273(3)
C19_2 C 0.7175(4) 0.9753(5) 0.8812(3)
C20_2 C 0.6390(4) 0.9685(5) 0.8843(3)
H10_2 H 0.6034 0.9979 0.8526
C21_2 C 0.6652(4) 0.8824(5) 0.9769(3)
C22_2 C 0.7439(4) 0.8844(5) 0.9773(3)
S1_3 S 0.06857(9) 0.63850(11) 0.48673(7)
O1_3 O 0.4829(3) 0.7315(3) 0.3594(2)
O2_3 O 0.4613(3) 0.5933(3) 0.31129(19)
O3_2 O 0.5295(3) 0.9395(3) 0.0666(2)
N1_3 N 0.3472(3) 0.5917(4) 0.4222(3)
N3_3 N 0.0542(3) 0.5315(4) 0.3840(2)
C1_3 C 0.4728(4) 0.6806(5) 0.3096(3)
C2_3 C 0.4778(4) 0.7268(5) 0.2459(3)
C3_3 C 0.4593(4) 0.6766(4) 0.1886(3)
H1_3 H 0.4426 0.6143 0.1892
C4_3 C 0.4655(4) 0.7194(4) 0.1304(3)
H2_3 H 0.4521 0.6859 0.0922
C5_3 C 0.4917(3) 0.8120(5) 0.1291(3)
C6_3 C 0.5117(4) 0.8618(5) 0.1869(3)
H3_3 H 0.5304 0.9234 0.1865
C7_3 C 0.5039(4) 0.8197(5) 0.2442(3)
H4_3 H 0.5161 0.8537 0.2823
C8_3 C 0.5018(3) 0.8581(4) 0.0670(3)
C9_3 C 0.3031(4) 0.5244(5) 0.3901(3)
H5_3 H 0.3266 0.4805 0.3668
C10_3 C 0.2241(4) 0.5167(5) 0.3898(3)
H6_3 H 0.1955 0.4680 0.3675
C11_3 C 0.1881(3) 0.5835(4) 0.4236(3)
C12_3 C 0.2347(4) 0.6542(6) 0.4554(4)
H7_3 H 0.2126 0.7009 0.4774
C13_3 C 0.3132(4) 0.6559(5) 0.4545(4)
H8_3 H 0.3435 0.7031 0.4770
C14_3 C 0.1050(4) 0.5780(4) 0.4266(3)
O5_2 O 0.4705(3) 0.4395(3) 0.4334(2)
N5_2 N 0.6122(3) 0.5789(4) 0.4311(2)
S2_3 S 0.89198(9) 0.50757(12) 0.36459(7)
N4_3 N 0.9064(3) 0.6126(4) 0.4691(2)
C15_3 C 0.9830(4) 0.5442(4) 0.3999(3)
C16_3 C 0.9778(3) 0.5983(4) 0.4530(3)
C17_3 C 0.8559(4) 0.5691(4) 0.4258(3)
C18_3 C 0.7714(3) 0.5684(4) 0.4273(3)
C19_3 C 0.7175(4) 0.5247(5) 0.3812(3)
H9_2 H 0.7337 0.4908 0.3482
C20_3 C 0.6390(4) 0.5315(5) 0.3843(3)
H10_3 H 0.6034 0.5021 0.3526
C21_3 C 0.6652(4) 0.6176(5) 0.4769(3)
H11_2 H 0.6476 0.6479 0.5108
C22_3 C 0.7439(4) 0.6156(5) 0.4773(3)
H12_2 H 0.7782 0.6449 0.5100
S2_4 S 0.10802(9) 0.00757(12) 0.13541(7)
N2_2 N 0.3878(3) 0.0789(4) 0.0689(2)
N4_4 N 0.0936(3) 0.1126(4) 0.0309(2)
C15_4 C 0.0170(4) 0.0442(4) 0.1001(3)
C16_4 C 0.0222(3) 0.0983(4) 0.0470(3)
C17_4 C 0.1441(4) 0.0691(4) 0.0742(3)
C18_4 C 0.2286(3) 0.0684(4) 0.0727(3)
C19_4 C 0.2825(4) 0.0247(5) 0.1188(3)
C20_4 C 0.3610(4) 0.0315(5) 0.1157(3)
H10_4 H 0.3966 0.0021 0.1474
C21_4 C 0.3348(4) 0.1176(5) 0.0231(3)
C22_4 C 0.2561(4) 0.1156(5) 0.0227(3)
S1_4 S 0.93143(9) 0.13850(11) 0.01327(7)
O1_4 O 0.5171(3) 0.2315(3) 0.1406(2)
O2_4 O 0.5387(3) 0.0933(3) 0.18871(19)
N1_4 N 0.6528(3) 0.0917(4) 0.0778(3)
N3_4 N 0.9458(3) 0.0315(4) 0.1160(2)
C1_4 C 0.5272(4) 0.1806(5) 0.1904(3)
C2_4 C 0.5222(4) 0.2268(5) 0.2541(3)
C3_4 C 0.5407(4) 0.1766(4) 0.3114(3)
H1_4 H 0.5574 0.1143 0.3108
C4_4 C 0.5345(4) 0.2194(4) 0.3696(3)
H2_4 H 0.5479 0.1859 0.4078
C5_4 C 0.5083(3) 0.3120(5) 0.3709(3)
C6_4 C 0.4883(4) 0.3618(5) 0.3131(3)
H3_4 H 0.4696 0.4234 0.3135
C7_4 C 0.4961(4) 0.3197(5) 0.2558(3)
H4_4 H 0.4839 0.3537 0.2177
C8_4 C 0.4982(3) 0.3581(4) 0.4330(3)
C9_4 C 0.6969(4) 0.0244(5) 0.1099(3)
C10_4 C 0.7759(4) 0.0167(5) 0.1102(3)
C11_4 C 0.8119(3) 0.0835(4) 0.0764(3)
C12_4 C 0.7653(4) 0.1542(6) 0.0446(4)
H7_4 H 0.7874 0.2009 0.0226
C13_4 C 0.6868(4) 0.1559(5) 0.0455(4)
H8_4 H 0.6565 0.2031 0.0230
C14_4 C 0.8950(4) 0.0780(4) 0.0734(3)
H5_4 H 0.6734 0.9805 0.1332
H6_4 H 0.8045 0.9680 0.1325
H9_3 H 0.7337 0.0092 0.8482
H11_3 H 0.6476 0.8521 0.0108
H12_3 H 0.7782 0.8551 0.0100
H11_4 H 0.3524 0.1479 0.9892
H12_4 H 0.2218 0.1449 0.9900
H9_4 H 0.2663 0.9908 0.1518
Cd6 Cd 0.01264(2) 0.10269(3) 0.57303(2)
Cd8 Cd 0.01264(2) 0.39731(3) 0.07303(2)
S3 S 0.42802(8) 0.14220(11) 0.51170(7)
S4 S 0.59982(9) 0.01115(12) 0.63852(7)
O8 O 0.0305(3) 0.0992(3) 0.68735(19)
O10 O 0.0050(3) 0.3160(3) 0.98090(19)
N6 N 0.1472(3) 0.1147(4) 0.5794(2)
N7 N 0.8808(3) 0.0646(4) 0.5675(2)
N8 N 0.4375(3) 0.0421(4) 0.6176(2)
N9 N 0.5892(3) 0.1078(4) 0.5311(2)
C23 C 0.0067(4) 0.1831(4) 0.6874(3)
C25 C 0.0191(4) 0.1787(5) 0.8081(3)
H13 H 0.0352 0.1161 0.8074
C26 C 0.0148(4) 0.2224(5) 0.8661(3)
H14 H 0.0288 0.1890 0.9043
C31 C 0.1953(4) 0.0706(6) 0.6265(3)
H17 H 0.1747 0.0454 0.6607
C32 C 0.2737(4) 0.0609(6) 0.6267(3)
H18 H 0.3051 0.0296 0.6602
C33 C 0.3056(4) 0.0987(4) 0.5759(3)
C34 C 0.2559(4) 0.1453(4) 0.5281(3)
H19 H 0.2749 0.1719 0.4936
C35 C 0.1786(4) 0.1524(5) 0.5315(3)
H20 H 0.1463 0.1849 0.4992
C36 C 0.3900(4) 0.0892(4) 0.5737(3)
C37 C 0.5097(4) 0.0496(4) 0.6012(3)
C38 C 0.5170(3) 0.0991(4) 0.5466(3)
C39 C 0.6390(4) 0.0634(4) 0.5760(3)
C40 C 0.7218(3) 0.0603(4) 0.5735(3)
C41 C 0.7772(4) 0.0268(5) 0.6236(3)
H21 H 0.7616 0.0015 0.6600
C42 C 0.8544(4) 0.0309(5) 0.6197(3)
H22 H 0.8903 0.0097 0.6544
C43 C 0.8274(4) 0.0946(5) 0.5186(3)
H23 H 0.8444 0.1174 0.4820
C44 C 0.7488(4) 0.0938(5) 0.5193(3)
H24 H 0.7140 0.1154 0.4839
O12 O 0.0050(3) 0.1840(3) 0.48090(19)
O11 O 0.0416(3) 0.9462(3) 0.5698(2)
O7 O 0.9888(3) 0.2311(3) 0.6369(2)
O9 O 0.9584(3) 0.4462(3) 0.9302(2)
C24 C 0.9993(4) 0.2287(4) 0.7506(3)
C27 C 0.9897(4) 0.3161(4) 0.8679(3)
C28 C 0.9695(4) 0.3656(5) 0.8102(3)
H15 H 0.9527 0.4279 0.8107
C29 C 0.9744(4) 0.3222(5) 0.7523(3)
H16 H 0.9610 0.3557 0.7141
C30 C 0.9837(3) 0.3638(4) 0.9300(3)
Cd7 Cd 0.98736(2) 0.60269(3) 0.92697(2)
O7_2 O 0.0112(3) 0.7311(3) 0.8631(2)
C24_2 C 0.0007(4) 0.7287(4) 0.7494(3)
C27_2 C 0.0103(4) 0.8161(4) 0.6321(3)
C28_2 C 0.0305(4) 0.8656(5) 0.6898(3)
H15_2 H 0.0473 0.9279 0.6893
C29_2 C 0.0256(4) 0.8222(5) 0.7477(3)
H16_2 H 0.0390 0.8557 0.7859
C30_2 C 0.0163(3) 0.8638(4) 0.5700(3)
N10 N 0.1192(3) 0.5646(4) 0.9325(2)
H19_2 H 0.7251 0.6719 0.0064
H20_2 H 0.8537 0.6849 0.0008
H23_2 H 0.1556 0.6174 0.0180
H24_2 H 0.2860 0.6154 0.0161
O12_2 O 0.9950(3) 0.6840(3) 0.01910(19)
S3_2 S 0.57198(8) 0.64220(11) 0.98830(7)
S4_2 S 0.40018(9) 0.51115(12) 0.86148(7)
O8_2 O 0.9695(3) 0.5992(3) 0.81265(19)
O10_2 O 0.9950(3) 0.8160(3) 0.51910(19)
N6_2 N 0.8528(3) 0.6147(4) 0.9206(2)
N8_2 N 0.5625(3) 0.5421(4) 0.8824(2)
N9_2 N 0.4108(3) 0.6078(4) 0.9689(2)
C23_2 C 0.9933(4) 0.6831(4) 0.8126(3)
C25_2 C 0.9809(4) 0.6787(5) 0.6919(3)
H13_2 H 0.9648 0.6161 0.6926
C26_2 C 0.9852(4) 0.7224(5) 0.6339(3)
H14_2 H 0.9712 0.6890 0.5957
C31_2 C 0.8047(4) 0.5706(6) 0.8735(3)
H17_2 H 0.8253 0.5454 0.8393
C32_2 C 0.7263(4) 0.5609(6) 0.8733(3)
H18_2 H 0.6949 0.5296 0.8398
C33_2 C 0.6944(4) 0.5987(4) 0.9241(3)
C34_2 C 0.7441(4) 0.6453(4) 0.9719(3)
C35_2 C 0.8214(4) 0.6524(5) 0.9685(3)
C36_2 C 0.6100(4) 0.5892(4) 0.9263(3)
C37_2 C 0.4903(4) 0.5496(4) 0.8988(3)
C38_2 C 0.4830(3) 0.5991(4) 0.9534(3)
C39_2 C 0.3610(4) 0.5634(4) 0.9240(3)
C40_2 C 0.2782(3) 0.5603(4) 0.9265(3)
C41_2 C 0.2228(4) 0.5268(5) 0.8764(3)
H21_2 H 0.2384 0.5015 0.8400
C42_2 C 0.1456(4) 0.5309(5) 0.8803(3)
H22_2 H 0.1097 0.5097 0.8456
C43_2 C 0.1726(4) 0.5946(5) 0.9814(3)
C44_2 C 0.2512(4) 0.5938(5) 0.9807(3)
Cd8_2 Cd 0.98736(2) 0.89731(3) 0.42697(2)
O7_3 O 0.0112(3) 0.7689(3) 0.3631(2)
O9_2 O 0.0416(3) 0.5538(3) 0.0698(2)
C24_3 C 0.0007(4) 0.7713(4) 0.2494(3)
C27_3 C 0.0103(4) 0.6839(4) 0.1321(3)
C28_3 C 0.0305(4) 0.6344(5) 0.1898(3)
H15_3 H 0.0473 0.5721 0.1893
C29_3 C 0.0256(4) 0.6778(5) 0.2477(3)
H16_3 H 0.0390 0.6443 0.2859
C30_3 C 0.0163(3) 0.6362(4) 0.0700(3)
N10_2 N 0.1192(3) 0.9354(4) 0.4325(2)
O11_2 O 0.9584(3) 0.0538(3) 0.4302(2)
S3_3 S 0.57198(8) 0.85780(11) 0.48830(7)
S4_3 S 0.40018(9) 0.98885(12) 0.36148(7)
O8_3 O 0.9695(3) 0.9008(3) 0.31265(19)
N6_3 N 0.8528(3) 0.8853(4) 0.4206(2)
N8_3 N 0.5625(3) 0.9579(4) 0.3824(2)
N9_3 N 0.4108(3) 0.8922(4) 0.4689(2)
C23_3 C 0.9933(4) 0.8169(4) 0.3126(3)
C25_3 C 0.9809(4) 0.8213(5) 0.1919(3)
H13_3 H 0.9648 0.8839 0.1926
C26_3 C 0.9852(4) 0.7776(5) 0.1339(3)
H14_3 H 0.9712 0.8110 0.0957
C31_3 C 0.8047(4) 0.9294(6) 0.3735(3)
H17_3 H 0.8253 0.9546 0.3393
C32_3 C 0.7263(4) 0.9391(6) 0.3733(3)
H18_3 H 0.6949 0.9704 0.3398
C33_3 C 0.6944(4) 0.9013(4) 0.4241(3)
C34_3 C 0.7441(4) 0.8547(4) 0.4719(3)
H19_3 H 0.7251 0.8281 0.5064
C35_3 C 0.8214(4) 0.8476(5) 0.4685(3)
H20_3 H 0.8537 0.8151 0.5008
C36_3 C 0.6100(4) 0.9108(4) 0.4263(3)
C37_3 C 0.4903(4) 0.9504(4) 0.3988(3)
C38_3 C 0.4830(3) 0.9009(4) 0.4534(3)
C39_3 C 0.3610(4) 0.9366(4) 0.4240(3)
C40_3 C 0.2782(3) 0.9397(4) 0.4265(3)
C41_3 C 0.2228(4) 0.9732(5) 0.3764(3)
H21_3 H 0.2384 0.9985 0.3400
C42_3 C 0.1456(4) 0.9691(5) 0.3803(3)
H22_3 H 0.1097 0.9903 0.3456
C43_3 C 0.1726(4) 0.9054(5) 0.4814(3)
H23_3 H 0.1556 0.8826 0.5180
C44_3 C 0.2512(4) 0.9062(5) 0.4807(3)
H24_3 H 0.2860 0.8846 0.5161
S3_4 S 0.42802(8) 0.35780(11) 0.01170(7)
S4_4 S 0.59982(9) 0.48885(12) 0.13852(7)
O8_4 O 0.0305(3) 0.4008(3) 0.18735(19)
N6_4 N 0.1472(3) 0.3853(4) 0.0794(2)
N7_2 N 0.8808(3) 0.4354(4) 0.0675(2)
N8_4 N 0.4375(3) 0.4579(4) 0.1176(2)
N9_4 N 0.5892(3) 0.3922(4) 0.0311(2)
C23_4 C 0.0067(4) 0.3169(4) 0.1874(3)
C25_4 C 0.0191(4) 0.3213(5) 0.3081(3)
H13_4 H 0.0352 0.3839 0.3074
C26_4 C 0.0148(4) 0.2776(5) 0.3661(3)
H14_4 H 0.0288 0.3110 0.4043
C31_4 C 0.1953(4) 0.4294(6) 0.1265(3)
H17_4 H 0.1747 0.4546 0.1607
C32_4 C 0.2737(4) 0.4391(6) 0.1267(3)
H18_4 H 0.3051 0.4704 0.1602
C33_4 C 0.3056(4) 0.4013(4) 0.0759(3)
C34_4 C 0.2559(4) 0.3547(4) 0.0281(3)
C35_4 C 0.1786(4) 0.3476(5) 0.0315(3)
C36_4 C 0.3900(4) 0.4108(4) 0.0737(3)
C37_4 C 0.5097(4) 0.4504(4) 0.1012(3)
C38_4 C 0.5170(3) 0.4009(4) 0.0466(3)
C39_4 C 0.6390(4) 0.4366(4) 0.0760(3)
C40_4 C 0.7218(3) 0.4397(4) 0.0735(3)
C41_4 C 0.7772(4) 0.4732(5) 0.1236(3)
H21_4 H 0.7616 0.4985 0.1600
C42_4 C 0.8544(4) 0.4691(5) 0.1197(3)
H22_4 H 0.8903 0.4903 0.1544
C43_4 C 0.8274(4) 0.4054(5) 0.0186(3)
C44_4 C 0.7488(4) 0.4062(5) 0.0193(3)
H19_4 H 0.2749 0.3281 0.9936
H20_4 H 0.1463 0.3151 0.9992
H23_4 H 0.8444 0.3826 0.9820
H24_4 H 0.7140 0.3846 0.9839
O7_4 O 0.9888(3) 0.2689(3) 0.1369(2)
C24_4 C 0.9993(4) 0.2713(4) 0.2506(3)
C27_4 C 0.9897(4) 0.1839(4) 0.3679(3)
C28_4 C 0.9695(4) 0.1344(5) 0.3102(3)
H15_4 H 0.9527 0.0721 0.3107
C29_4 C 0.9744(4) 0.1778(5) 0.2523(3)
H16_4 H 0.9610 0.1443 0.2141
C30_4 C 0.9837(3) 0.1362(4) 0.4300(3)
loop_
_geom_bond_atom_site_label_1
_geom_bond_atom_site_label_2
_geom_bond_site_symmetry_1
_geom_bond_site_symmetry_2
S2 C15 1_555 1_555
N2 C20 1_555 1_555
N4 C16 1_555 1_555
C17 S2 1_555 1_555
C18 C17 1_555 1_555
C19 C18 1_555 1_555
H9 C19 1_555 1_555
C20 C19 1_555 1_555
H10 C20 1_555 1_555
C21 N2 1_555 1_555
H11 C21 1_555 1_555
C22 C18 1_555 1_555
H12 C22 1_555 1_555
Cd2 N2 1_555 1_555
N4 C17 1_555 1_555
C15 C16 1_555 1_555
C21 C22 1_555 1_555
Cd2 O1 1_555 1_555
S1 C14 1_555 1_555
O1 C1 1_555 1_555
O2 Cd2 1_555 1_555
O3 C8 1_555 1_555
O4 C8 1_555 1_555
N1 Cd2 1_555 1_555
N3 C14 1_555 1_555
C1 O2 1_555 1_555
C2 C1 1_555 1_555
C3 C2 1_555 1_555
H1 C3 1_555 1_555
C4 C3 1_555 1_555
H2 C4 1_555 1_555
C5 C4 1_555 1_555
C6 C5 1_555 1_555
H3 C6 1_555 1_555
C7 C2 1_555 1_555
H4 C7 1_555 1_555
C8 C5 1_555 1_555
C9 N1 1_555 1_555
H5 C9 1_555 1_555
C10 C9 1_555 1_555
H6 C10 1_555 1_555
C11 C10 1_555 1_555
C12 C11 1_555 1_555
H7 C12 1_555 1_555
C13 N1 1_555 1_555
H8 C13 1_555 1_555
C14 C11 1_555 1_555
O5 Cd2 1_555 1_555
O6 Cd2 1_555 1_555
C6 C7 1_555 1_555
C12 C13 1_555 1_555
Cd3 O1_2 1_555 1_555
S1_2 C14_2 1_555 1_555
O1_2 C1_2 1_555 1_555
O2_2 Cd3 1_555 1_555
O5 C8_2 1_555 1_555
O4_2 C8_2 1_555 1_555
N1_2 Cd3 1_555 1_555
N3_2 C14_2 1_555 1_555
C1_2 O2_2 1_555 1_555
C2_2 C1_2 1_555 1_555
C3_2 C2_2 1_555 1_555
H1_2 C3_2 1_555 1_555
C4_2 C3_2 1_555 1_555
H2_2 C4_2 1_555 1_555
C5_2 C4_2 1_555 1_555
C6_2 C5_2 1_555 1_555
H3_2 C6_2 1_555 1_555
C7_2 C2_2 1_555 1_555
H4_2 C7_2 1_555 1_555
C8_2 C5_2 1_555 1_555
C9_2 N1_2 1_555 1_555
C10_2 C9_2 1_555 1_555
C11_2 C10_2 1_555 1_555
C12_2 C11_2 1_555 1_555
H7_2 C12_2 1_555 1_555
C13_2 N1_2 1_555 1_555
H8_2 C13_2 1_555 1_555
C14_2 C11_2 1_555 1_555
Cd4_2 O4_2 1_555 1_555
N5 Cd3 1_555 1_555
C6_2 C7_2 1_555 1_555
C12_2 C13_2 1_555 1_555
S2_2 C15_2 1_555 1_555
N5 C20_2 1_555 1_555
N4_2 C16_2 1_555 1_555
C17_2 S2_2 1_555 1_555
C18_2 C17_2 1_555 1_555
C19_2 C18_2 1_555 1_555
C20_2 C19_2 1_555 1_555
H10_2 C20_2 1_555 1_555
C21_2 N5 1_555 1_555
C22_2 C18_2 1_555 1_555
N4_2 C17_2 1_555 1_555
C15_2 C16_2 1_555 1_555
C21_2 C22_2 1_555 1_555
Cd4_2 O1_3 1_555 1_555
S1_3 C14_3 1_555 1_555
O1_3 C1_3 1_555 1_555
O2_3 Cd4_2 1_555 1_555
O3_2 C8_3 1_555 1_555
O6_2 C8_3 1_555 1_555
N1_3 Cd4_2 1_555 1_555
N3_3 C14_3 1_555 1_555
C1_3 O2_3 1_555 1_555
C2_3 C1_3 1_555 1_555
C3_3 C2_3 1_555 1_555
H1_3 C3_3 1_555 1_555
C4_3 C3_3 1_555 1_555
H2_3 C4_3 1_555 1_555
C5_3 C4_3 1_555 1_555
C6_3 C5_3 1_555 1_555
H3_3 C6_3 1_555 1_555
C7_3 C2_3 1_555 1_555
H4_3 C7_3 1_555 1_555
C8_3 C5_3 1_555 1_555
C9_3 N1_3 1_555 1_555
H5_3 C9_3 1_555 1_555
C10_3 C9_3 1_555 1_555
H6_3 C10_3 1_555 1_555
C11_3 C10_3 1_555 1_555
C12_3 C11_3 1_555 1_555
H7_3 C12_3 1_555 1_555
C13_3 N1_3 1_555 1_555
H8_3 C13_3 1_555 1_555
C14_3 C11_3 1_555 1_555
O5_2 Cd4_2 1_555 1_555
N5_2 Cd4_2 1_555 1_555
C6_3 C7_3 1_555 1_555
C12_3 C13_3 1_555 1_555
S2_3 C15_3 1_555 1_555
N5_2 C20_3 1_555 1_555
N4_3 C16_3 1_555 1_555
C17_3 S2_3 1_555 1_555
C18_3 C17_3 1_555 1_555
C19_3 C18_3 1_555 1_555
H9_2 C19_3 1_555 1_555
C20_3 C19_3 1_555 1_555
H10_3 C20_3 1_555 1_555
C21_3 N5_2 1_555 1_555
H11_2 C21_3 1_555 1_555
C22_3 C18_3 1_555 1_555
H12_2 C22_3 1_555 1_555
N4_3 C17_3 1_555 1_555
C15_3 C16_3 1_555 1_555
C21_3 C22_3 1_555 1_555
S2_4 C15_4 1_555 1_555
N2_2 C20_4 1_555 1_555
N4_4 C16_4 1_555 1_555
C17_4 S2_4 1_555 1_555
C18_4 C17_4 1_555 1_555
C19_4 C18_4 1_555 1_555
C20_4 C19_4 1_555 1_555
H10_4 C20_4 1_555 1_555
C21_4 N2_2 1_555 1_555
C22_4 C18_4 1_555 1_555
Cd4 N2_2 1_555 1_555
N4_4 C17_4 1_555 1_555
C15_4 C16_4 1_555 1_555
C21_4 C22_4 1_555 1_555
Cd4 O1_4 1_555 1_555
S1_4 C14_4 1_555 1_555
O1_4 C1_4 1_555 1_555
O2_4 Cd4 1_555 1_555
O5_2 C8_4 1_555 1_555
O6 C8_4 1_555 1_555
N1_4 Cd4 1_555 1_555
N3_4 C14_4 1_555 1_555
C1_4 O2_4 1_555 1_555
C2_4 C1_4 1_555 1_555
C3_4 C2_4 1_555 1_555
H1_4 C3_4 1_555 1_555
C4_4 C3_4 1_555 1_555
H2_4 C4_4 1_555 1_555
C5_4 C4_4 1_555 1_555
C6_4 C5_4 1_555 1_555
H3_4 C6_4 1_555 1_555
C7_4 C2_4 1_555 1_555
H4_4 C7_4 1_555 1_555
C8_4 C5_4 1_555 1_555
C9_4 N1_4 1_555 1_555
C10_4 C9_4 1_555 1_555
C11_4 C10_4 1_555 1_555
C12_4 C11_4 1_555 1_555
H7_4 C12_4 1_555 1_555
C13_4 N1_4 1_555 1_555
H8_4 C13_4 1_555 1_555
C14_4 C11_4 1_555 1_555
C6_4 C7_4 1_555 1_555
C12_4 C13_4 1_555 1_555
S3 C36 1_555 1_555
S4 C37 1_555 1_555
O8 Cd6 1_555 1_555
N6 Cd6 1_555 1_555
N7 C42 1_555 1_555
N8 C36 1_555 1_555
N9 C38 1_555 1_555
C23 O8 1_555 1_555
H13 C25 1_555 1_555
C26 C25 1_555 1_555
H14 C26 1_555 1_555
C31 N6 1_555 1_555
H17 C31 1_555 1_555
C32 C31 1_555 1_555
H18 C32 1_555 1_555
C33 C32 1_555 1_555
C34 C33 1_555 1_555
H19 C34 1_555 1_555
C35 N6 1_555 1_555
H20 C35 1_555 1_555
C36 C33 1_555 1_555
C37 N8 1_555 1_555
C38 S3 1_555 1_555
C39 S4 1_555 1_555
C40 C39 1_555 1_555
C41 C40 1_555 1_555
H21 C41 1_555 1_555
C42 C41 1_555 1_555
H22 C42 1_555 1_555
C43 N7 1_555 1_555
H23 C43 1_555 1_555
C44 C40 1_555 1_555
H24 C44 1_555 1_555
O12 Cd6 1_555 1_555
N9 C39 1_555 1_555
C34 C35 1_555 1_555
C37 C38 1_555 1_555
C43 C44 1_555 1_555
O9 C30 1_555 1_555
C28 C27 1_555 1_555
H15 C28 1_555 1_555
C29 C24 1_555 1_555
H16 C29 1_555 1_555
C30 C27 1_555 1_555
Cd7 O9 1_555 1_555
C28 C29 1_555 1_555
O11 C30_2 1_555 1_555
C28_2 C27_2 1_555 1_555
H15_2 C28_2 1_555 1_555
C29_2 C24_2 1_555 1_555
H16_2 C29_2 1_555 1_555
C30_2 C27_2 1_555 1_555
C28_2 C29_2 1_555 1_555
S3_2 C36_2 1_555 1_555
S4_2 C37_2 1_555 1_555
O8_2 Cd7 1_555 1_555
N6_2 Cd7 1_555 1_555
N10 C42_2 1_555 1_555
N8_2 C36_2 1_555 1_555
N9_2 C38_2 1_555 1_555
C23_2 O8_2 1_555 1_555
H13_2 C25_2 1_555 1_555
C26_2 C25_2 1_555 1_555
H14_2 C26_2 1_555 1_555
C31_2 N6_2 1_555 1_555
H17_2 C31_2 1_555 1_555
C32_2 C31_2 1_555 1_555
H18_2 C32_2 1_555 1_555
C33_2 C32_2 1_555 1_555
C34_2 C33_2 1_555 1_555
C35_2 N6_2 1_555 1_555
C36_2 C33_2 1_555 1_555
C37_2 N8_2 1_555 1_555
C38_2 S3_2 1_555 1_555
C39_2 S4_2 1_555 1_555
C40_2 C39_2 1_555 1_555
C41_2 C40_2 1_555 1_555
H21_2 C41_2 1_555 1_555
C42_2 C41_2 1_555 1_555
H22_2 C42_2 1_555 1_555
C43_2 N10 1_555 1_555
C44_2 C40_2 1_555 1_555
Cd8_2 O10_2 1_555 1_555
N9_2 C39_2 1_555 1_555
C34_2 C35_2 1_555 1_555
C37_2 C38_2 1_555 1_555
C43_2 C44_2 1_555 1_555
O9_2 C30_3 1_555 1_555
C28_3 C27_3 1_555 1_555
H15_3 C28_3 1_555 1_555
C29_3 C24_3 1_555 1_555
H16_3 C29_3 1_555 1_555
C30_3 C27_3 1_555 1_555
Cd8 O9_2 1_555 1_555
C28_3 C29_3 1_555 1_555
S3_3 C36_3 1_555 1_555
S4_3 C37_3 1_555 1_555
O8_3 Cd8_2 1_555 1_555
N6_3 Cd8_2 1_555 1_555
N10_2 C42_3 1_555 1_555
N8_3 C36_3 1_555 1_555
N9_3 C38_3 1_555 1_555
C23_3 O8_3 1_555 1_555
H13_3 C25_3 1_555 1_555
C26_3 C25_3 1_555 1_555
H14_3 C26_3 1_555 1_555
C31_3 N6_3 1_555 1_555
H17_3 C31_3 1_555 1_555
C32_3 C31_3 1_555 1_555
H18_3 C32_3 1_555 1_555
C33_3 C32_3 1_555 1_555
C34_3 C33_3 1_555 1_555
H19_3 C34_3 1_555 1_555
C35_3 N6_3 1_555 1_555
H20_3 C35_3 1_555 1_555
C36_3 C33_3 1_555 1_555
C37_3 N8_3 1_555 1_555
C38_3 S3_3 1_555 1_555
C39_3 S4_3 1_555 1_555
C40_3 C39_3 1_555 1_555
C41_3 C40_3 1_555 1_555
H21_3 C41_3 1_555 1_555
C42_3 C41_3 1_555 1_555
H22_3 C42_3 1_555 1_555
C43_3 N10_2 1_555 1_555
H23_3 C43_3 1_555 1_555
C44_3 C40_3 1_555 1_555
H24_3 C44_3 1_555 1_555
N9_3 C39_3 1_555 1_555
C34_3 C35_3 1_555 1_555
C37_3 C38_3 1_555 1_555
C43_3 C44_3 1_555 1_555
S3_4 C36_4 1_555 1_555
S4_4 C37_4 1_555 1_555
O8_4 Cd8 1_555 1_555
N6_4 Cd8 1_555 1_555
N7_2 C42_4 1_555 1_555
N8_4 C36_4 1_555 1_555
N9_4 C38_4 1_555 1_555
C23_4 O8_4 1_555 1_555
H13_4 C25_4 1_555 1_555
C26_4 C25_4 1_555 1_555
H14_4 C26_4 1_555 1_555
C31_4 N6_4 1_555 1_555
H17_4 C31_4 1_555 1_555
C32_4 C31_4 1_555 1_555
H18_4 C32_4 1_555 1_555
C33_4 C32_4 1_555 1_555
C34_4 C33_4 1_555 1_555
C35_4 N6_4 1_555 1_555
C36_4 C33_4 1_555 1_555
C37_4 N8_4 1_555 1_555
C38_4 S3_4 1_555 1_555
C39_4 S4_4 1_555 1_555
C40_4 C39_4 1_555 1_555
C41_4 C40_4 1_555 1_555
H21_4 C41_4 1_555 1_555
C42_4 C41_4 1_555 1_555
H22_4 C42_4 1_555 1_555
C43_4 N7_2 1_555 1_555
C44_4 C40_4 1_555 1_555
N9_4 C39_4 1_555 1_555
C34_4 C35_4 1_555 1_555
C37_4 C38_4 1_555 1_555
C43_4 C44_4 1_555 1_555
O11_2 C30_4 1_555 1_555
C28_4 C27_4 1_555 1_555
H15_4 C28_4 1_555 1_555
C29_4 C24_4 1_555 1_555
H16_4 C29_4 1_555 1_555
C30_4 C27_4 1_555 1_555
C28_4 C29_4 1_555 1_555

#END
