
###############################################################################
#
# This file contains modified crystal structure data generated from the
# MOF subset of the Cambridge Structural Database (CSD) v543 
# hosted by the Cambridge Crystallographic Data Centre (CCDC).
#
# This work is licensed under the Creative Commons
# Attribution-NonCommercial-ShareAlike 4.0 International License.
# To view a copy of this license, visit
# http://creativecommons.org/licenses/by-nc-sa/4.0/
# or send a letter to
# Creative Commons, PO Box 1866, Mountain View, CA 94042, USA.
#
# CIF created using the CSD Python API on 29 September 2022
# The structure has been converted into the P1 space group
# The structure has a 3D framework
# The original CSD entry LIJNIE is in the monoclinic crystal system
# The framework has been calculated to contain at least 10.0% void space
# The void calculation uses a probe of radius 1.32A, grid spacing 0.4
#
###############################################################################

data_LIJNIE
_chemical_formula_moiety         '(C344 H232 Cd8 N56 O24)n'
_symmetry_cell_setting           triclinic
_symmetry_space_group_name_H-M   'P 1'
_symmetry_Int_Tables_number      1
_space_group_name_Hall           'P 1'
loop_
_symmetry_equiv_pos_site_id
_symmetry_equiv_pos_as_xyz
1 x,y,z
_cell_length_a                   27.035(3)
_cell_length_b                   9.9051(12)
_cell_length_c                   33.239(4)
_cell_angle_alpha                90
_cell_angle_beta                 110.284(3)
_cell_angle_gamma                90
_cell_volume                     8348.9
loop_
_atom_site_label
_atom_site_type_symbol
_atom_site_fract_x
_atom_site_fract_y
_atom_site_fract_z
N1 N 0.9189(2) 0.0006(5) 0.20598(16)
N3 N 0.9148(2) 0.1219(6) 0.14865(17)
C3 C 0.9053(2) 0.1193(7) 0.1846(2)
H1 H 0.8906 0.1922 0.1946
C17 C 0.9150(3) 0.0372(7) 0.3154(2)
H7 H 0.9242 0.1018 0.3375
C18 C 0.9253(3) 0.0635(7) 0.2781(2)
H8 H 0.9420 0.1443 0.2752
C19 C 0.8603(4) 0.0013(8) 0.3791(2)
H9 H 0.8546 0.0862 0.3657
H11 H 0.8362 0.0542 0.4287
H28 H 0.7016 0.0488 0.4758
Cd3 Cd 0.90917(2) 0.31238(5) 0.10894(2)
Cd1 Cd 0.90917(2) 0.68762(5) 0.60894(2)
O1 O 0.8752(2) 0.4661(5) 0.60108(16)
N2 N 0.8497(2) 0.8407(6) 0.47664(17)
N4 N 0.8665(2) 0.7732(6) 0.54325(17)
O2 O 0.8552(3) 0.6029(6) 0.6444(2)
C1 C 0.9110(3) 0.9704(6) 0.24561(19)
C2 C 0.9396(2) 0.9197(7) 0.1816(2)
C4 C 0.9362(2) 0.9964(7) 0.1458(2)
C5 C 0.8762(3) 0.7500(7) 0.4186(2)
H2 H 0.8808 0.6644 0.4315
C6 C 0.8888(3) 0.8474(6) 0.25028(19)
H3 H 0.8805 0.7825 0.2283
O3 O 0.4925(2) 0.1242(8) 0.6548(3)
C7 C 0.8868(3) 0.7707(7) 0.3809(2)
H4 H 0.8993 0.6985 0.3687
C8 C 0.8082(3) 0.8905(8) 0.4884(2)
C9 C 0.8537(3) 0.4906(7) 0.6284(2)
C10 C 0.8820(3) 0.7715(7) 0.5105(2)
H5 H 0.9126 0.7268 0.5103
C11 C 0.8914(3) 0.9177(6) 0.3207(2)
O4 O 0.4868(3) 0.1694(8) 0.5894(3)
C12 C 0.8795(3) 0.8954(7) 0.3612(2)
C13 C 0.8229(3) 0.3804(8) 0.6413(2)
C14 C 0.8790(3) 0.8219(6) 0.2882(2)
H6 H 0.8638 0.7393 0.2917
C15 C 0.8585(3) 0.8585(8) 0.4366(2)
C16 C 0.8201(3) 0.8476(9) 0.5307(2)
C20 C 0.9541(3) 0.9441(9) 0.1143(3)
H10 H 0.9522 0.9957 0.0901
C21 C 0.5133(3) 0.1384(8) 0.6267(4)
C22 C 0.8495(4) 0.9826(8) 0.4169(2)
C23 C 0.7688(3) 0.1912(9) 0.6710(3)
C24 C 0.9601(3) 0.7886(8) 0.1874(3)
H12 H 0.9623 0.7366 0.2116
C25 C 0.8211(3) 0.2517(9) 0.6252(3)
H13 H 0.8381 0.2288 0.6058
C26 C 0.7909(4) 0.1512(9) 0.6404(3)
H14 H 0.7867 0.0624 0.6297
C27 C 0.9743(4) 0.8171(9) 0.1195(3)
H15 H 0.9866 0.7801 0.0986
C28 C 0.68098(15) 0.0897(6) 0.6707(2)
C29 C 0.6536(2) 0.1160(7) 0.6276(2)
H16 H 0.6720 0.1254 0.6084
C30 C 0.5990(2) 0.1284(6) 0.61293(18)
H17 H 0.5805 0.1463 0.5838
C31 C 0.57180(15) 0.1145(5) 0.6413(2)
C32 C 0.5992(2) 0.0881(6) 0.6844(2)
H18 H 0.5808 0.0787 0.7036
C33 C 0.6538(2) 0.0757(6) 0.69909(18)
H19 H 0.6723 0.0579 0.7282
C34 C 0.9769(3) 0.7408(9) 0.1558(3)
H20 H 0.9908 0.6530 0.1584
C35 C 0.7983(3) 0.4078(9) 0.6700(3)
H21 H 0.7993 0.4974 0.6796
C36 C 0.7861(3) 0.8764(11) 0.5527(3)
H22 H 0.7927 0.8456 0.5808
C38 C 0.7636(4) 0.9657(11) 0.4677(3)
H24 H 0.7558 0.9943 0.4392
C39 C 0.7420(3) 0.0859(9) 0.6906(3)
H25 H 0.7517 0.1074 0.7215
C40 C 0.7725(4) 0.3158(9) 0.6859(4)
H26 H 0.7578 0.3400 0.7067
C42 C 0.7318(4) 0.9964(13) 0.4893(3)
C43 C 0.7417(4) 0.9536(13) 0.5309(3)
H29 H 0.7180 0.9769 0.5448
Cd2 Cd 0.40917(2) 0.18762(5) 0.60894(2)
N8 N 0.9148(2) 0.8781(6) 0.64865(17)
O5 O 0.9925(2) 0.6242(8) 0.6548(3)
O6 O 0.9868(3) 0.6694(8) 0.5894(3)
N1_2 N 0.4189(2) 0.5006(5) 0.20598(16)
N2_2 N 0.3497(2) 0.3407(6) 0.47664(17)
N3_2 N 0.4148(2) 0.6219(6) 0.14865(17)
N4_2 N 0.3665(2) 0.2732(6) 0.54325(17)
O2_2 O 0.3552(3) 0.1029(6) 0.6444(2)
C1_2 C 0.4110(3) 0.4704(6) 0.24561(19)
C2_2 C 0.4396(2) 0.4197(7) 0.1816(2)
C3_2 C 0.4053(2) 0.6193(7) 0.1846(2)
H1_2 H 0.3906 0.6922 0.1946
C4_2 C 0.4362(2) 0.4964(7) 0.1458(2)
C5_2 C 0.3762(3) 0.2500(7) 0.4186(2)
H2_2 H 0.3808 0.1644 0.4315
C6_2 C 0.3888(3) 0.3474(6) 0.25028(19)
H3_2 H 0.3805 0.2825 0.2283
C7_2 C 0.3868(3) 0.2707(7) 0.3809(2)
H4_2 H 0.3993 0.1985 0.3687
C8_2 C 0.3082(3) 0.3905(8) 0.4884(2)
C10_2 C 0.3820(3) 0.2715(7) 0.5105(2)
H5_2 H 0.4126 0.2268 0.5103
C11_2 C 0.3914(3) 0.4177(6) 0.3207(2)
C12_2 C 0.3795(3) 0.3954(7) 0.3612(2)
C14_2 C 0.3790(3) 0.3219(6) 0.2882(2)
H6_2 H 0.3638 0.2393 0.2917
C15_2 C 0.3585(3) 0.3585(8) 0.4366(2)
C16_2 C 0.3201(3) 0.3476(9) 0.5307(2)
C17_2 C 0.4150(3) 0.5372(7) 0.3154(2)
H7_2 H 0.4242 0.6018 0.3375
C18_2 C 0.4253(3) 0.5635(7) 0.2781(2)
H8_2 H 0.4420 0.6443 0.2752
C19_2 C 0.3603(4) 0.5013(8) 0.3791(2)
H9_2 H 0.3546 0.5862 0.3657
C20_2 C 0.4541(3) 0.4441(9) 0.1143(3)
H10_2 H 0.4522 0.4957 0.0901
C22_2 C 0.3495(4) 0.4826(8) 0.4169(2)
H11_2 H 0.3362 0.5542 0.4287
C24_2 C 0.4601(3) 0.2886(8) 0.1874(3)
H12_2 H 0.4623 0.2366 0.2116
C27_2 C 0.4743(4) 0.3171(9) 0.1195(3)
H15_2 H 0.4866 0.2801 0.0986
C34_2 C 0.4769(3) 0.2408(9) 0.1558(3)
H20_2 H 0.4908 0.1530 0.1584
C36_2 C 0.2861(3) 0.3764(11) 0.5527(3)
H22_2 H 0.2927 0.3456 0.5808
C38_2 C 0.2636(4) 0.4657(11) 0.4677(3)
H24_2 H 0.2558 0.4943 0.4392
C42_2 C 0.2318(4) 0.4964(13) 0.4893(3)
H28_2 H 0.2016 0.5488 0.4758
C43_2 C 0.2417(4) 0.4536(13) 0.5309(3)
H29_2 H 0.2180 0.4769 0.5448
Cd3_2 Cd 0.40917(2) 0.81238(5) 0.10894(2)
N8_2 N 0.4148(2) 0.3781(6) 0.64865(17)
O1_2 O 0.8752(2) 0.5339(5) 0.10108(16)
N4_3 N 0.8665(2) 0.2268(6) 0.04325(17)
O2_3 O 0.8552(3) 0.3971(6) 0.1444(2)
O3_2 O 0.4925(2) 0.8758(8) 0.1548(3)
C9_2 C 0.8537(3) 0.5094(7) 0.1284(2)
C10_3 C 0.8820(3) 0.2285(7) 0.0105(2)
H5_3 H 0.9126 0.2732 0.0103
O4_2 O 0.4868(3) 0.8306(8) 0.0894(3)
C13_2 C 0.8229(3) 0.6196(8) 0.1413(2)
C16_3 C 0.8201(3) 0.1524(9) 0.0307(2)
C21_2 C 0.5133(3) 0.8616(8) 0.1267(4)
C23_2 C 0.7688(3) 0.8088(9) 0.1710(3)
C25_2 C 0.8211(3) 0.7483(9) 0.1252(3)
H13_2 H 0.8381 0.7712 0.1058
C26_2 C 0.7909(4) 0.8488(9) 0.1404(3)
H14_2 H 0.7867 0.9376 0.1297
C28_2 C 0.68098(15) 0.9103(6) 0.1707(2)
C29_2 C 0.6536(2) 0.8840(7) 0.1276(2)
H16_2 H 0.6720 0.8746 0.1084
C30_2 C 0.5990(2) 0.8716(6) 0.11293(18)
H17_2 H 0.5805 0.8537 0.0838
C31_2 C 0.57180(15) 0.8855(5) 0.1413(2)
C32_2 C 0.5992(2) 0.9119(6) 0.1844(2)
H18_2 H 0.5808 0.9213 0.2036
C33_2 C 0.6538(2) 0.9243(6) 0.19909(18)
H19_2 H 0.6723 0.9421 0.2282
C35_2 C 0.7983(3) 0.5922(9) 0.1700(3)
H21_2 H 0.7993 0.5026 0.1796
C36_3 C 0.7861(3) 0.1236(11) 0.0527(3)
H22_3 H 0.7927 0.1544 0.0808
C39_2 C 0.7420(3) 0.9141(9) 0.1906(3)
H25_2 H 0.7517 0.8926 0.2215
C40_2 C 0.7725(4) 0.6842(9) 0.1859(4)
H26_2 H 0.7578 0.6600 0.2067
C43_3 C 0.7417(4) 0.0464(13) 0.0309(3)
H29_3 H 0.7180 0.0231 0.0448
O5_2 O 0.9925(2) 0.3758(8) 0.1548(3)
O6_2 O 0.9868(3) 0.3306(8) 0.0894(3)
N1_3 N 0.9189(2) 0.9994(5) 0.70598(16)
C3_3 C 0.9053(2) 0.8807(7) 0.6846(2)
H1_3 H 0.8906 0.8078 0.6946
C17_3 C 0.9150(3) 0.9628(7) 0.8154(2)
H7_3 H 0.9242 0.8982 0.8375
C18_3 C 0.9253(3) 0.9365(7) 0.7781(2)
H8_3 H 0.9420 0.8557 0.7752
C19_3 C 0.8603(4) 0.9987(8) 0.8791(2)
H9_3 H 0.8546 0.9138 0.8657
H11_3 H 0.8362 0.9458 0.9287
H28_3 H 0.7016 0.9512 0.9758
N4_4 N 0.3665(2) 0.7268(6) 0.04325(17)
O2_4 O 0.3552(3) 0.8971(6) 0.1444(2)
C10_4 C 0.3820(3) 0.7285(7) 0.0105(2)
H5_4 H 0.4126 0.7732 0.0103
C16_4 C 0.3201(3) 0.6524(9) 0.0307(2)
C36_4 C 0.2861(3) 0.6236(11) 0.0527(3)
H22_4 H 0.2927 0.6544 0.0808
C43_4 C 0.2417(4) 0.5464(13) 0.0309(3)
H29_4 H 0.2180 0.5231 0.0448
N1_4 N 0.4189(2) 0.4994(5) 0.70598(16)
N2_3 N 0.3497(2) 0.6593(6) 0.97664(17)
C1_3 C 0.4110(3) 0.5296(6) 0.74561(19)
C2_3 C 0.4396(2) 0.5803(7) 0.6816(2)
C3_4 C 0.4053(2) 0.3807(7) 0.6846(2)
H1_4 H 0.3906 0.3078 0.6946
C4_3 C 0.4362(2) 0.5036(7) 0.6458(2)
C5_3 C 0.3762(3) 0.7500(7) 0.9186(2)
H2_3 H 0.3808 0.8356 0.9315
C6_3 C 0.3888(3) 0.6526(6) 0.75028(19)
H3_3 H 0.3805 0.7175 0.7283
C7_3 C 0.3868(3) 0.7293(7) 0.8809(2)
H4_3 H 0.3993 0.8015 0.8687
C8_3 C 0.3082(3) 0.6095(8) 0.9884(2)
C11_3 C 0.3914(3) 0.5823(6) 0.8207(2)
C12_3 C 0.3795(3) 0.6046(7) 0.8612(2)
C14_3 C 0.3790(3) 0.6781(6) 0.7882(2)
H6_3 H 0.3638 0.7607 0.7917
C15_3 C 0.3585(3) 0.6415(8) 0.9366(2)
C17_4 C 0.4150(3) 0.4628(7) 0.8154(2)
H7_4 H 0.4242 0.3982 0.8375
C18_4 C 0.4253(3) 0.4365(7) 0.7781(2)
H8_4 H 0.4420 0.3557 0.7752
C19_4 C 0.3603(4) 0.4987(8) 0.8791(2)
H9_4 H 0.3546 0.4138 0.8657
C20_3 C 0.4541(3) 0.5559(9) 0.6143(3)
H10_3 H 0.4522 0.5043 0.5901
C22_3 C 0.3495(4) 0.5174(8) 0.9169(2)
H11_4 H 0.3362 0.4458 0.9287
C24_3 C 0.4601(3) 0.7114(8) 0.6874(3)
H12_3 H 0.4623 0.7634 0.7116
C27_3 C 0.4743(4) 0.6829(9) 0.6195(3)
H15_3 H 0.4866 0.7199 0.5986
C34_3 C 0.4769(3) 0.7592(9) 0.6558(3)
H20_3 H 0.4908 0.8470 0.6584
C38_3 C 0.2636(4) 0.5343(11) 0.9677(3)
H24_3 H 0.2558 0.5057 0.9392
C42_3 C 0.2318(4) 0.5036(13) 0.9893(3)
H28_4 H 0.2016 0.4512 0.9758
N5 N 0.7583(2) 0.9463(6) 0.6875(2)
N6 N 0.7861(3) 0.7417(8) 0.7058(3)
N7 N 0.7417(3) 0.8773(9) 0.6506(3)
C37 C 0.7867(3) 0.8630(10) 0.7217(3)
H23 H 0.8030 0.8890 0.7505
C41 C 0.7599(4) 0.7601(10) 0.6634(4)
H27 H 0.7553 0.6884 0.6439
N1_5 N 0.0811(2) 0.0006(5) 0.29402(16)
N3_3 N 0.0852(2) 0.1219(6) 0.35135(17)
C3_5 C 0.0947(2) 0.1193(7) 0.3154(2)
H1_5 H 0.1094 0.1922 0.3054
C17_5 C 0.0850(3) 0.0372(7) 0.1846(2)
H7_5 H 0.0758 0.1018 0.1625
C18_5 C 0.0747(3) 0.0635(7) 0.2219(2)
H8_5 H 0.0580 0.1443 0.2248
C19_5 C 0.1397(4) 0.0013(8) 0.1209(2)
H9_5 H 0.1454 0.0862 0.1343
H11_5 H 0.1638 0.0542 0.0713
H28_5 H 0.2984 0.0488 0.0242
Cd3_3 Cd 0.09083(2) 0.31238(5) 0.39106(2)
Cd1_2 Cd 0.09083(2) 0.68762(5) 0.89106(2)
O1_3 O 0.1248(2) 0.4661(5) 0.89892(16)
N4_5 N 0.1335(2) 0.7732(6) 0.95675(17)
O2_5 O 0.1448(3) 0.6029(6) 0.8556(2)
O3_3 O 0.5075(2) 0.1242(8) 0.8452(3)
C9_3 C 0.1463(3) 0.4906(7) 0.8716(2)
C10_5 C 0.1180(3) 0.7715(7) 0.9895(2)
H5_5 H 0.0874 0.7268 0.9897
O4_3 O 0.5132(3) 0.1694(8) 0.9106(3)
C13_3 C 0.1771(3) 0.3804(8) 0.8587(2)
C16_5 C 0.1799(3) 0.8476(9) 0.9693(2)
C21_3 C 0.4867(3) 0.1384(8) 0.8733(4)
C23_3 C 0.2312(3) 0.1912(9) 0.8290(3)
C25_3 C 0.1789(3) 0.2517(9) 0.8748(3)
H13_3 H 0.1619 0.2288 0.8942
C26_3 C 0.2091(4) 0.1512(9) 0.8596(3)
H14_3 H 0.2133 0.0624 0.8703
C28_3 C 0.31902(15) 0.0897(6) 0.8293(2)
C29_3 C 0.3464(2) 0.1160(7) 0.8724(2)
H16_3 H 0.3280 0.1254 0.8916
C30_3 C 0.4010(2) 0.1284(6) 0.88707(18)
H17_3 H 0.4195 0.1463 0.9162
C31_3 C 0.42820(15) 0.1145(5) 0.8587(2)
C32_3 C 0.4008(2) 0.0881(6) 0.8156(2)
H18_3 H 0.4192 0.0787 0.7964
C33_3 C 0.3462(2) 0.0757(6) 0.80091(18)
H19_3 H 0.3277 0.0579 0.7718
C35_3 C 0.2017(3) 0.4078(9) 0.8300(3)
H21_3 H 0.2007 0.4974 0.8204
C36_5 C 0.2139(3) 0.8764(11) 0.9473(3)
H22_5 H 0.2073 0.8456 0.9192
C39_3 C 0.2580(3) 0.0859(9) 0.8094(3)
H25_3 H 0.2483 0.1074 0.7785
C40_3 C 0.2275(4) 0.3158(9) 0.8141(4)
H26_3 H 0.2422 0.3400 0.7933
C43_5 C 0.2583(4) 0.9536(13) 0.9691(3)
H29_5 H 0.2820 0.9769 0.9552
Cd2_2 Cd 0.59083(2) 0.18762(5) 0.89106(2)
N8_3 N 0.0852(2) 0.8781(6) 0.85135(17)
O5_3 O 0.0075(2) 0.6242(8) 0.8452(3)
O6_3 O 0.0132(3) 0.6694(8) 0.9106(3)
N1_6 N 0.5811(2) 0.5006(5) 0.29402(16)
N2_4 N 0.6503(2) 0.3407(6) 0.02336(17)
N3_4 N 0.5852(2) 0.6219(6) 0.35135(17)
C1_4 C 0.5890(3) 0.4704(6) 0.25439(19)
C2_4 C 0.5604(2) 0.4197(7) 0.3184(2)
C3_6 C 0.5947(2) 0.6193(7) 0.3154(2)
H1_6 H 0.6094 0.6922 0.3054
C4_4 C 0.5638(2) 0.4964(7) 0.3542(2)
C5_4 C 0.6238(3) 0.2500(7) 0.0814(2)
H2_4 H 0.6192 0.1644 0.0685
C6_4 C 0.6112(3) 0.3474(6) 0.24972(19)
H3_4 H 0.6195 0.2825 0.2717
C7_4 C 0.6132(3) 0.2707(7) 0.1191(2)
H4_4 H 0.6007 0.1985 0.1313
C8_4 C 0.6918(3) 0.3905(8) 0.0116(2)
C11_4 C 0.6086(3) 0.4177(6) 0.1793(2)
C12_4 C 0.6205(3) 0.3954(7) 0.1388(2)
C14_4 C 0.6210(3) 0.3219(6) 0.2118(2)
H6_4 H 0.6362 0.2393 0.2083
C15_4 C 0.6415(3) 0.3585(8) 0.0634(2)
C17_6 C 0.5850(3) 0.5372(7) 0.1846(2)
H7_6 H 0.5758 0.6018 0.1625
C18_6 C 0.5747(3) 0.5635(7) 0.2219(2)
H8_6 H 0.5580 0.6443 0.2248
C19_6 C 0.6397(4) 0.5013(8) 0.1209(2)
H9_6 H 0.6454 0.5862 0.1343
C20_4 C 0.5459(3) 0.4441(9) 0.3857(3)
H10_4 H 0.5478 0.4957 0.4099
C22_4 C 0.6505(4) 0.4826(8) 0.0831(2)
H11_6 H 0.6638 0.5542 0.0713
C24_4 C 0.5399(3) 0.2886(8) 0.3126(3)
H12_4 H 0.5377 0.2366 0.2884
C27_4 C 0.5257(4) 0.3171(9) 0.3805(3)
H15_4 H 0.5134 0.2801 0.4014
C34_4 C 0.5231(3) 0.2408(9) 0.3442(3)
H20_4 H 0.5092 0.1530 0.3416
C38_4 C 0.7364(4) 0.4657(11) 0.0323(3)
H24_4 H 0.7442 0.4943 0.0608
C42_4 C 0.7682(4) 0.4964(13) 0.0107(3)
H28_6 H 0.7984 0.5488 0.0242
Cd3_4 Cd 0.59083(2) 0.81238(5) 0.39106(2)
N4_6 N 0.6335(2) 0.2732(6) 0.95675(17)
O2_6 O 0.6448(3) 0.1029(6) 0.8556(2)
C10_6 C 0.6180(3) 0.2715(7) 0.9895(2)
H5_6 H 0.5874 0.2268 0.9897
C16_6 C 0.6799(3) 0.3476(9) 0.9693(2)
C36_6 C 0.7139(3) 0.3764(11) 0.9473(3)
H22_6 H 0.7073 0.3456 0.9192
C43_6 C 0.7583(4) 0.4536(13) 0.9691(3)
H29_6 H 0.7820 0.4769 0.9552
N8_4 N 0.5852(2) 0.3781(6) 0.85135(17)
O1_4 O 0.1248(2) 0.5339(5) 0.39892(16)
N2_5 N 0.1503(2) 0.1593(6) 0.52336(17)
N4_7 N 0.1335(2) 0.2268(6) 0.45675(17)
O2_7 O 0.1448(3) 0.3971(6) 0.3556(2)
C1_5 C 0.0890(3) 0.0296(6) 0.75439(19)
C2_5 C 0.0604(2) 0.0803(7) 0.8184(2)
C4_5 C 0.0638(2) 0.0036(7) 0.8542(2)
C5_5 C 0.1238(3) 0.2500(7) 0.5814(2)
H2_5 H 0.1192 0.3356 0.5685
C6_5 C 0.1112(3) 0.1526(6) 0.74972(19)
H3_5 H 0.1195 0.2175 0.7717
O3_4 O 0.5075(2) 0.8758(8) 0.3452(3)
C7_5 C 0.1132(3) 0.2293(7) 0.6191(2)
H4_5 H 0.1007 0.3015 0.6313
C8_5 C 0.1918(3) 0.1095(8) 0.5116(2)
C9_4 C 0.1463(3) 0.5094(7) 0.3716(2)
C10_7 C 0.1180(3) 0.2285(7) 0.4895(2)
H5_7 H 0.0874 0.2732 0.4897
C11_5 C 0.1086(3) 0.0823(6) 0.6793(2)
O4_4 O 0.5132(3) 0.8306(8) 0.4106(3)
C12_5 C 0.1205(3) 0.1046(7) 0.6388(2)
C13_4 C 0.1771(3) 0.6196(8) 0.3587(2)
C14_5 C 0.1210(3) 0.1781(6) 0.7118(2)
H6_5 H 0.1362 0.2607 0.7083
C15_5 C 0.1415(3) 0.1415(8) 0.5634(2)
C16_7 C 0.1799(3) 0.1524(9) 0.4693(2)
C20_5 C 0.0459(3) 0.0559(9) 0.8857(3)
H10_5 H 0.0478 0.0043 0.9099
C21_4 C 0.4867(3) 0.8616(8) 0.3733(4)
C22_5 C 0.1505(4) 0.0174(8) 0.5831(2)
C23_4 C 0.2312(3) 0.8088(9) 0.3290(3)
C24_5 C 0.0399(3) 0.2114(8) 0.8126(3)
H12_5 H 0.0377 0.2634 0.7884
C25_4 C 0.1789(3) 0.7483(9) 0.3748(3)
H13_4 H 0.1619 0.7712 0.3942
C26_4 C 0.2091(4) 0.8488(9) 0.3596(3)
H14_4 H 0.2133 0.9376 0.3703
C27_5 C 0.0257(4) 0.1829(9) 0.8805(3)
H15_5 H 0.0134 0.2199 0.9014
C28_4 C 0.31902(15) 0.9103(6) 0.3293(2)
C29_4 C 0.3464(2) 0.8840(7) 0.3724(2)
H16_4 H 0.3280 0.8746 0.3916
C30_4 C 0.4010(2) 0.8716(6) 0.38707(18)
H17_4 H 0.4195 0.8537 0.4162
C31_4 C 0.42820(15) 0.8855(5) 0.3587(2)
C32_4 C 0.4008(2) 0.9119(6) 0.3156(2)
H18_4 H 0.4192 0.9213 0.2964
C33_4 C 0.3462(2) 0.9243(6) 0.30091(18)
H19_4 H 0.3277 0.9421 0.2718
C34_5 C 0.0231(3) 0.2592(9) 0.8442(3)
H20_5 H 0.0092 0.3470 0.8416
C35_4 C 0.2017(3) 0.5922(9) 0.3300(3)
H21_4 H 0.2007 0.5026 0.3204
C36_7 C 0.2139(3) 0.1236(11) 0.4473(3)
H22_7 H 0.2073 0.1544 0.4192
C38_5 C 0.2364(4) 0.0343(11) 0.5323(3)
H24_5 H 0.2442 0.0057 0.5608
C39_4 C 0.2580(3) 0.9141(9) 0.3094(3)
H25_4 H 0.2483 0.8926 0.2785
C40_4 C 0.2275(4) 0.6842(9) 0.3141(4)
H26_4 H 0.2422 0.6600 0.2933
C42_5 C 0.2682(4) 0.0036(13) 0.5107(3)
C43_7 C 0.2583(4) 0.0464(13) 0.4691(3)
H29_7 H 0.2820 0.0231 0.4552
O5_4 O 0.0075(2) 0.3758(8) 0.3452(3)
O6_4 O 0.0132(3) 0.3306(8) 0.4106(3)
N1_7 N 0.0811(2) 0.9994(5) 0.79402(16)
C3_7 C 0.0947(2) 0.8807(7) 0.8154(2)
H1_7 H 0.1094 0.8078 0.8054
C17_7 C 0.0850(3) 0.9628(7) 0.6846(2)
H7_7 H 0.0758 0.8982 0.6625
C18_7 C 0.0747(3) 0.9365(7) 0.7219(2)
H8_7 H 0.0580 0.8557 0.7248
C19_7 C 0.1397(4) 0.9987(8) 0.6209(2)
H9_7 H 0.1454 0.9138 0.6343
H11_7 H 0.1638 0.9458 0.5713
H28_7 H 0.2984 0.9512 0.5242
N1_8 N 0.5811(2) 0.4994(5) 0.79402(16)
N2_6 N 0.6503(2) 0.6593(6) 0.52336(17)
N4_8 N 0.6335(2) 0.7268(6) 0.45675(17)
O2_8 O 0.6448(3) 0.8971(6) 0.3556(2)
C1_6 C 0.5890(3) 0.5296(6) 0.75439(19)
C2_6 C 0.5604(2) 0.5803(7) 0.8184(2)
C3_8 C 0.5947(2) 0.3807(7) 0.8154(2)
H1_8 H 0.6094 0.3078 0.8054
C4_6 C 0.5638(2) 0.5036(7) 0.8542(2)
C5_6 C 0.6238(3) 0.7500(7) 0.5814(2)
H2_6 H 0.6192 0.8356 0.5685
C6_6 C 0.6112(3) 0.6526(6) 0.74972(19)
H3_6 H 0.6195 0.7175 0.7717
C7_6 C 0.6132(3) 0.7293(7) 0.6191(2)
H4_6 H 0.6007 0.8015 0.6313
C8_6 C 0.6918(3) 0.6095(8) 0.5116(2)
C10_8 C 0.6180(3) 0.7285(7) 0.4895(2)
H5_8 H 0.5874 0.7732 0.4897
C11_6 C 0.6086(3) 0.5823(6) 0.6793(2)
C12_6 C 0.6205(3) 0.6046(7) 0.6388(2)
C14_6 C 0.6210(3) 0.6781(6) 0.7118(2)
H6_6 H 0.6362 0.7607 0.7083
C15_6 C 0.6415(3) 0.6415(8) 0.5634(2)
C16_8 C 0.6799(3) 0.6524(9) 0.4693(2)
C17_8 C 0.5850(3) 0.4628(7) 0.6846(2)
H7_8 H 0.5758 0.3982 0.6625
C18_8 C 0.5747(3) 0.4365(7) 0.7219(2)
H8_8 H 0.5580 0.3557 0.7248
C19_8 C 0.6397(4) 0.4987(8) 0.6209(2)
H9_8 H 0.6454 0.4138 0.6343
C20_6 C 0.5459(3) 0.5559(9) 0.8857(3)
H10_6 H 0.5478 0.5043 0.9099
C22_6 C 0.6505(4) 0.5174(8) 0.5831(2)
H11_8 H 0.6638 0.4458 0.5713
C24_6 C 0.5399(3) 0.7114(8) 0.8126(3)
H12_6 H 0.5377 0.7634 0.7884
C27_6 C 0.5257(4) 0.6829(9) 0.8805(3)
H15_6 H 0.5134 0.7199 0.9014
C34_6 C 0.5231(3) 0.7592(9) 0.8442(3)
H20_6 H 0.5092 0.8470 0.8416
C36_8 C 0.7139(3) 0.6236(11) 0.4473(3)
H22_8 H 0.7073 0.6544 0.4192
C38_6 C 0.7364(4) 0.5343(11) 0.5323(3)
H24_6 H 0.7442 0.5057 0.5608
C42_6 C 0.7682(4) 0.5036(13) 0.5107(3)
H28_8 H 0.7984 0.4512 0.5242
C43_8 C 0.7583(4) 0.5464(13) 0.4691(3)
H29_8 H 0.7820 0.5231 0.4552
N2_7 N 0.1503(2) 0.8407(6) 0.02336(17)
C1_7 C 0.0890(3) 0.9704(6) 0.25439(19)
C2_7 C 0.0604(2) 0.9197(7) 0.3184(2)
C4_7 C 0.0638(2) 0.9964(7) 0.3542(2)
C5_7 C 0.1238(3) 0.7500(7) 0.0814(2)
H2_7 H 0.1192 0.6644 0.0685
C6_7 C 0.1112(3) 0.8474(6) 0.24972(19)
H3_7 H 0.1195 0.7825 0.2717
C7_7 C 0.1132(3) 0.7707(7) 0.1191(2)
H4_7 H 0.1007 0.6985 0.1313
C8_7 C 0.1918(3) 0.8905(8) 0.0116(2)
C11_7 C 0.1086(3) 0.9177(6) 0.1793(2)
C12_7 C 0.1205(3) 0.8954(7) 0.1388(2)
C14_7 C 0.1210(3) 0.8219(6) 0.2118(2)
H6_7 H 0.1362 0.7393 0.2083
C15_7 C 0.1415(3) 0.8585(8) 0.0634(2)
C20_7 C 0.0459(3) 0.9441(9) 0.3857(3)
H10_7 H 0.0478 0.9957 0.4099
C22_7 C 0.1505(4) 0.9826(8) 0.0831(2)
C24_7 C 0.0399(3) 0.7886(8) 0.3126(3)
H12_7 H 0.0377 0.7366 0.2884
C27_7 C 0.0257(4) 0.8171(9) 0.3805(3)
H15_7 H 0.0134 0.7801 0.4014
C34_7 C 0.0231(3) 0.7408(9) 0.3442(3)
H20_7 H 0.0092 0.6530 0.3416
C38_7 C 0.2364(4) 0.9657(11) 0.0323(3)
H24_7 H 0.2442 0.9943 0.0608
C42_7 C 0.2682(4) 0.9964(13) 0.0107(3)
N5_2 N 0.2417(2) 0.9463(6) 0.8125(2)
N6_2 N 0.2139(3) 0.7417(8) 0.7942(3)
N7_2 N 0.2583(3) 0.8773(9) 0.8494(3)
C37_2 C 0.2133(3) 0.8630(10) 0.7783(3)
H23_2 H 0.1970 0.8890 0.7495
C41_2 C 0.2401(4) 0.7601(10) 0.8366(4)
H27_2 H 0.2447 0.6884 0.8561
O1_5 O 0.3752(2) 0.9661(5) 0.60108(16)
N5_3 N 0.2583(2) 0.4463(6) 0.6875(2)
C9_5 C 0.3537(3) 0.9906(7) 0.6284(2)
C13_5 C 0.3229(3) 0.8804(8) 0.6413(2)
N6_3 N 0.2861(3) 0.2417(8) 0.7058(3)
C21_5 C 0.0133(3) 0.6384(8) 0.6267(4)
C23_5 C 0.2688(3) 0.6912(9) 0.6710(3)
N7_3 N 0.2417(3) 0.3773(9) 0.6506(3)
C25_5 C 0.3211(3) 0.7517(9) 0.6252(3)
H13_5 H 0.3381 0.7288 0.6058
C26_5 C 0.2909(4) 0.6512(9) 0.6404(3)
H14_5 H 0.2867 0.5624 0.6297
C28_5 C 0.18098(15) 0.5897(6) 0.6707(2)
C29_5 C 0.1536(2) 0.6160(7) 0.6276(2)
H16_5 H 0.1720 0.6254 0.6084
C30_5 C 0.0990(2) 0.6284(6) 0.61293(18)
H17_5 H 0.0805 0.6463 0.5838
C31_5 C 0.07180(15) 0.6145(5) 0.6413(2)
C32_5 C 0.0992(2) 0.5881(6) 0.6844(2)
H18_5 H 0.0808 0.5787 0.7036
C33_5 C 0.1538(2) 0.5757(6) 0.69909(18)
H19_5 H 0.1723 0.5579 0.7282
C35_5 C 0.2983(3) 0.9078(9) 0.6700(3)
H21_5 H 0.2993 0.9974 0.6796
C37_3 C 0.2867(3) 0.3630(10) 0.7217(3)
H23_3 H 0.3030 0.3890 0.7505
C39_5 C 0.2420(3) 0.5859(9) 0.6906(3)
H25_5 H 0.2517 0.6074 0.7215
C40_5 C 0.2725(4) 0.8158(9) 0.6859(4)
H26_5 H 0.2578 0.8400 0.7067
C41_3 C 0.2599(4) 0.2601(10) 0.6634(4)
H27_3 H 0.2553 0.1884 0.6439
O1_6 O 0.6248(2) 0.9661(5) 0.89892(16)
N5_4 N 0.7417(2) 0.4463(6) 0.8125(2)
C9_6 C 0.6463(3) 0.9906(7) 0.8716(2)
C13_6 C 0.6771(3) 0.8804(8) 0.8587(2)
N6_4 N 0.7139(3) 0.2417(8) 0.7942(3)
C21_6 C 0.9867(3) 0.6384(8) 0.8733(4)
C23_6 C 0.7312(3) 0.6912(9) 0.8290(3)
N7_4 N 0.7583(3) 0.3773(9) 0.8494(3)
C25_6 C 0.6789(3) 0.7517(9) 0.8748(3)
H13_6 H 0.6619 0.7288 0.8942
C26_6 C 0.7091(4) 0.6512(9) 0.8596(3)
H14_6 H 0.7133 0.5624 0.8703
C28_6 C 0.81902(15) 0.5897(6) 0.8293(2)
C29_6 C 0.8464(2) 0.6160(7) 0.8724(2)
H16_6 H 0.8280 0.6254 0.8916
C30_6 C 0.9010(2) 0.6284(6) 0.88707(18)
H17_6 H 0.9195 0.6463 0.9162
C31_6 C 0.92820(15) 0.6145(5) 0.8587(2)
C32_6 C 0.9008(2) 0.5881(6) 0.8156(2)
H18_6 H 0.9192 0.5787 0.7964
C33_6 C 0.8462(2) 0.5757(6) 0.80091(18)
H19_6 H 0.8277 0.5579 0.7718
C35_6 C 0.7017(3) 0.9078(9) 0.8300(3)
H21_6 H 0.7007 0.9974 0.8204
C37_4 C 0.7133(3) 0.3630(10) 0.7783(3)
H23_4 H 0.6970 0.3890 0.7495
C39_6 C 0.7580(3) 0.5859(9) 0.8094(3)
H25_6 H 0.7483 0.6074 0.7785
C40_6 C 0.7275(4) 0.8158(9) 0.8141(4)
H26_6 H 0.7422 0.8400 0.7933
C41_4 C 0.7401(4) 0.2601(10) 0.8366(4)
H27_4 H 0.7447 0.1884 0.8561
N5_5 N 0.2417(2) 0.0537(6) 0.3125(2)
N6_5 N 0.2139(3) 0.2583(8) 0.2942(3)
N7_5 N 0.2583(3) 0.1227(9) 0.3494(3)
C37_5 C 0.2133(3) 0.1370(10) 0.2783(3)
H23_5 H 0.1970 0.1110 0.2495
C41_5 C 0.2401(4) 0.2399(10) 0.3366(4)
H27_5 H 0.2447 0.3116 0.3561
N5_6 N 0.7583(2) 0.0537(6) 0.1875(2)
N6_6 N 0.7861(3) 0.2583(8) 0.2058(3)
N7_6 N 0.7417(3) 0.1227(9) 0.1506(3)
C37_6 C 0.7867(3) 0.1370(10) 0.2217(3)
H23_6 H 0.8030 0.1110 0.2505
C41_6 C 0.7599(4) 0.2399(10) 0.1634(4)
H27_6 H 0.7553 0.3116 0.1439
N2_8 N 0.8497(2) 0.1593(6) 0.97664(17)
C1_8 C 0.9110(3) 0.0296(6) 0.74561(19)
C2_8 C 0.9396(2) 0.0803(7) 0.6816(2)
C4_8 C 0.9362(2) 0.0036(7) 0.6458(2)
C5_8 C 0.8762(3) 0.2500(7) 0.9186(2)
H2_8 H 0.8808 0.3356 0.9315
C6_8 C 0.8888(3) 0.1526(6) 0.75028(19)
H3_8 H 0.8805 0.2175 0.7283
C7_8 C 0.8868(3) 0.2293(7) 0.8809(2)
H4_8 H 0.8993 0.3015 0.8687
C8_8 C 0.8082(3) 0.1095(8) 0.9884(2)
C11_8 C 0.8914(3) 0.0823(6) 0.8207(2)
C12_8 C 0.8795(3) 0.1046(7) 0.8612(2)
C14_8 C 0.8790(3) 0.1781(6) 0.7882(2)
H6_8 H 0.8638 0.2607 0.7917
C15_8 C 0.8585(3) 0.1415(8) 0.9366(2)
C20_8 C 0.9541(3) 0.0559(9) 0.6143(3)
H10_8 H 0.9522 0.0043 0.5901
C22_8 C 0.8495(4) 0.0174(8) 0.9169(2)
C24_8 C 0.9601(3) 0.2114(8) 0.6874(3)
H12_8 H 0.9623 0.2634 0.7116
C27_8 C 0.9743(4) 0.1829(9) 0.6195(3)
H15_8 H 0.9866 0.2199 0.5986
C34_8 C 0.9769(3) 0.2592(9) 0.6558(3)
H20_8 H 0.9908 0.3470 0.6584
C38_8 C 0.7636(4) 0.0343(11) 0.9677(3)
H24_8 H 0.7558 0.0057 0.9392
C42_8 C 0.7318(4) 0.0036(13) 0.9893(3)
O1_7 O 0.6248(2) 0.0339(5) 0.39892(16)
N5_7 N 0.7417(2) 0.5537(6) 0.3125(2)
C9_7 C 0.6463(3) 0.0094(7) 0.3716(2)
C13_7 C 0.6771(3) 0.1196(8) 0.3587(2)
N6_7 N 0.7139(3) 0.7583(8) 0.2942(3)
C21_7 C 0.9867(3) 0.3616(8) 0.3733(4)
C23_7 C 0.7312(3) 0.3088(9) 0.3290(3)
N7_7 N 0.7583(3) 0.6227(9) 0.3494(3)
C25_7 C 0.6789(3) 0.2483(9) 0.3748(3)
H13_7 H 0.6619 0.2712 0.3942
C26_7 C 0.7091(4) 0.3488(9) 0.3596(3)
H14_7 H 0.7133 0.4376 0.3703
C28_7 C 0.81902(15) 0.4103(6) 0.3293(2)
C29_7 C 0.8464(2) 0.3840(7) 0.3724(2)
H16_7 H 0.8280 0.3746 0.3916
C30_7 C 0.9010(2) 0.3716(6) 0.38707(18)
H17_7 H 0.9195 0.3537 0.4162
C31_7 C 0.92820(15) 0.3855(5) 0.3587(2)
C32_7 C 0.9008(2) 0.4119(6) 0.3156(2)
H18_7 H 0.9192 0.4213 0.2964
C33_7 C 0.8462(2) 0.4243(6) 0.30091(18)
H19_7 H 0.8277 0.4421 0.2718
C35_7 C 0.7017(3) 0.0922(9) 0.3300(3)
H21_7 H 0.7007 0.0026 0.3204
C37_7 C 0.7133(3) 0.6370(10) 0.2783(3)
H23_7 H 0.6970 0.6110 0.2495
C39_7 C 0.7580(3) 0.4141(9) 0.3094(3)
H25_7 H 0.7483 0.3926 0.2785
C40_7 C 0.7275(4) 0.1842(9) 0.3141(4)
H26_7 H 0.7422 0.1600 0.2933
C41_7 C 0.7401(4) 0.7399(10) 0.3366(4)
H27_7 H 0.7447 0.8116 0.3561
O1_8 O 0.3752(2) 0.0339(5) 0.10108(16)
N5_8 N 0.2583(2) 0.5537(6) 0.1875(2)
C9_8 C 0.3537(3) 0.0094(7) 0.1284(2)
C13_8 C 0.3229(3) 0.1196(8) 0.1413(2)
N6_8 N 0.2861(3) 0.7583(8) 0.2058(3)
C21_8 C 0.0133(3) 0.3616(8) 0.1267(4)
C23_8 C 0.2688(3) 0.3088(9) 0.1710(3)
N7_8 N 0.2417(3) 0.6227(9) 0.1506(3)
C25_8 C 0.3211(3) 0.2483(9) 0.1252(3)
H13_8 H 0.3381 0.2712 0.1058
C26_8 C 0.2909(4) 0.3488(9) 0.1404(3)
H14_8 H 0.2867 0.4376 0.1297
C28_8 C 0.18098(15) 0.4103(6) 0.1707(2)
C29_8 C 0.1536(2) 0.3840(7) 0.1276(2)
H16_8 H 0.1720 0.3746 0.1084
C30_8 C 0.0990(2) 0.3716(6) 0.11293(18)
H17_8 H 0.0805 0.3537 0.0838
C31_8 C 0.07180(15) 0.3855(5) 0.1413(2)
C32_8 C 0.0992(2) 0.4119(6) 0.1844(2)
H18_8 H 0.0808 0.4213 0.2036
C33_8 C 0.1538(2) 0.4243(6) 0.19909(18)
H19_8 H 0.1723 0.4421 0.2282
C35_8 C 0.2983(3) 0.0922(9) 0.1700(3)
H21_8 H 0.2993 0.0026 0.1796
C37_8 C 0.2867(3) 0.6370(10) 0.2217(3)
H23_8 H 0.3030 0.6110 0.2505
C39_8 C 0.2420(3) 0.4141(9) 0.1906(3)
H25_8 H 0.2517 0.3926 0.2215
C40_8 C 0.2725(4) 0.1842(9) 0.1859(4)
H26_8 H 0.2578 0.1600 0.2067
C41_8 C 0.2599(4) 0.7399(10) 0.1634(4)
H27_8 H 0.2553 0.8116 0.1439
loop_
_geom_bond_atom_site_label_1
_geom_bond_atom_site_label_2
_geom_bond_site_symmetry_1
_geom_bond_site_symmetry_2
N3 C3 1_555 1_555
C3 N1 1_555 1_555
H1 C3 1_555 1_555
H7 C17 1_555 1_555
H8 C18 1_555 1_555
H9 C19 1_555 1_555
Cd3 N3 1_555 1_555
C17 C18 1_555 1_555
Cd1 O1 1_555 1_555
O1 C9 1_555 1_555
N2 C8 1_555 1_555
N4 Cd1 1_555 1_555
O2 Cd1 1_555 1_555
C1 C6 1_555 1_555
C5 H2 1_555 1_555
C6 H3 1_555 1_555
O3 C21 1_555 1_555
C7 C5 1_555 1_555
H4 C7 1_555 1_555
C8 C16 1_555 1_555
C9 O2 1_555 1_555
C10 N2 1_555 1_555
H5 C10 1_555 1_555
C11 C12 1_555 1_555
O4 C21 1_555 1_555
C12 C7 1_555 1_555
C13 C9 1_555 1_555
C14 C6 1_555 1_555
H6 C14 1_555 1_555
C15 N2 1_555 1_555
C16 N4 1_555 1_555
C20 C4 1_555 1_555
H10 C20 1_555 1_555
C21 C31 1_555 1_555
C22 C15 1_555 1_555
C23 C26 1_555 1_555
C24 C2 1_555 1_555
H12 C24 1_555 1_555
C25 C13 1_555 1_555
H13 C25 1_555 1_555
C26 C25 1_555 1_555
H14 C26 1_555 1_555
C27 C20 1_555 1_555
H15 C27 1_555 1_555
C28 C29 1_555 1_555
C29 H16 1_555 1_555
C30 C29 1_555 1_555
H17 C30 1_555 1_555
C31 C30 1_555 1_555
C32 C31 1_555 1_555
H18 C32 1_555 1_555
C33 C28 1_555 1_555
H19 C33 1_555 1_555
C34 C24 1_555 1_555
H20 C34 1_555 1_555
C35 C13 1_555 1_555
H21 C35 1_555 1_555
C36 C16 1_555 1_555
H22 C36 1_555 1_555
C38 C8 1_555 1_555
H24 C38 1_555 1_555
H25 C39 1_555 1_555
C40 C23 1_555 1_555
H26 C40 1_555 1_555
C42 C38 1_555 1_555
C43 C36 1_555 1_555
H29 C43 1_555 1_555
Cd2 O3 1_555 1_555
N8 Cd1 1_555 1_555
O5 Cd1 1_555 1_555
O6 Cd1 1_555 1_555
N4 C10 1_555 1_555
C2 C4 1_555 1_555
C5 C15 1_555 1_555
C11 C14 1_555 1_555
O4 Cd2 1_555 1_555
C23 C39 1_555 1_555
C27 C34 1_555 1_555
C28 C39 1_555 1_555
C32 C33 1_555 1_555
C35 C40 1_555 1_555
C42 C43 1_555 1_555
N1_2 C1_2 1_555 1_555
N2_2 C8_2 1_555 1_555
N3_2 C3_2 1_555 1_555
N4_2 Cd2 1_555 1_555
O2_2 Cd2 1_555 1_555
C1_2 C6_2 1_555 1_555
C2_2 N1_2 1_555 1_555
C3_2 N1_2 1_555 1_555
H1_2 C3_2 1_555 1_555
C4_2 N3_2 1_555 1_555
C5_2 H2_2 1_555 1_555
C6_2 H3_2 1_555 1_555
C7_2 C5_2 1_555 1_555
H4_2 C7_2 1_555 1_555
C8_2 C16_2 1_555 1_555
C10_2 N2_2 1_555 1_555
H5_2 C10_2 1_555 1_555
C11_2 C12_2 1_555 1_555
C12_2 C7_2 1_555 1_555
C14_2 C6_2 1_555 1_555
H6_2 C14_2 1_555 1_555
C15_2 N2_2 1_555 1_555
C16_2 N4_2 1_555 1_555
C17_2 C11_2 1_555 1_555
H7_2 C17_2 1_555 1_555
C18_2 C1_2 1_555 1_555
H8_2 C18_2 1_555 1_555
C19_2 C12_2 1_555 1_555
H9_2 C19_2 1_555 1_555
C20_2 C4_2 1_555 1_555
H10_2 C20_2 1_555 1_555
C22_2 C15_2 1_555 1_555
H11_2 C22_2 1_555 1_555
C24_2 C2_2 1_555 1_555
H12_2 C24_2 1_555 1_555
C27_2 C20_2 1_555 1_555
H15_2 C27_2 1_555 1_555
C34_2 C24_2 1_555 1_555
H20_2 C34_2 1_555 1_555
C36_2 C16_2 1_555 1_555
H22_2 C36_2 1_555 1_555
C38_2 C8_2 1_555 1_555
H24_2 C38_2 1_555 1_555
C42_2 C38_2 1_555 1_555
H28_2 C42_2 1_555 1_555
C43_2 C36_2 1_555 1_555
H29_2 C43_2 1_555 1_555
Cd3_2 N3_2 1_555 1_555
N8_2 Cd2 1_555 1_555
N4_2 C10_2 1_555 1_555
C2_2 C4_2 1_555 1_555
C5_2 C15_2 1_555 1_555
C11_2 C14_2 1_555 1_555
C17_2 C18_2 1_555 1_555
C19_2 C22_2 1_555 1_555
C27_2 C34_2 1_555 1_555
C42_2 C43_2 1_555 1_555
Cd3 O1_2 1_555 1_555
O1_2 C9_2 1_555 1_555
N4_3 Cd3 1_555 1_555
O2_3 Cd3 1_555 1_555
O3_2 C21_2 1_555 1_555
C9_2 O2_3 1_555 1_555
H5_3 C10_3 1_555 1_555
O4_2 C21_2 1_555 1_555
C13_2 C9_2 1_555 1_555
C16_3 N4_3 1_555 1_555
C21_2 C31_2 1_555 1_555
C23_2 C26_2 1_555 1_555
C25_2 C13_2 1_555 1_555
H13_2 C25_2 1_555 1_555
C26_2 C25_2 1_555 1_555
H14_2 C26_2 1_555 1_555
C28_2 C29_2 1_555 1_555
C29_2 H16_2 1_555 1_555
C30_2 C29_2 1_555 1_555
H17_2 C30_2 1_555 1_555
C31_2 C30_2 1_555 1_555
C32_2 C31_2 1_555 1_555
H18_2 C32_2 1_555 1_555
C33_2 C28_2 1_555 1_555
H19_2 C33_2 1_555 1_555
C35_2 C13_2 1_555 1_555
H21_2 C35_2 1_555 1_555
C36_3 C16_3 1_555 1_555
H22_3 C36_3 1_555 1_555
H25_2 C39_2 1_555 1_555
C40_2 C23_2 1_555 1_555
H26_2 C40_2 1_555 1_555
C43_3 C36_3 1_555 1_555
H29_3 C43_3 1_555 1_555
Cd3_2 O3_2 1_555 1_555
O5_2 Cd3 1_555 1_555
O6_2 Cd3 1_555 1_555
N4_3 C10_3 1_555 1_555
O4_2 Cd3_2 1_555 1_555
C23_2 C39_2 1_555 1_555
C28_2 C39_2 1_555 1_555
C32_2 C33_2 1_555 1_555
C35_2 C40_2 1_555 1_555
N8 C3_3 1_555 1_555
C3_3 N1_3 1_555 1_555
H1_3 C3_3 1_555 1_555
H7_3 C17_3 1_555 1_555
H8_3 C18_3 1_555 1_555
H9_3 C19_3 1_555 1_555
C17_3 C18_3 1_555 1_555
N4_4 Cd3_2 1_555 1_555
O2_4 Cd3_2 1_555 1_555
H5_4 C10_4 1_555 1_555
C16_4 N4_4 1_555 1_555
C36_4 C16_4 1_555 1_555
H22_4 C36_4 1_555 1_555
C43_4 C36_4 1_555 1_555
H29_4 C43_4 1_555 1_555
N4_4 C10_4 1_555 1_555
N1_4 C1_3 1_555 1_555
N2_3 C8_3 1_555 1_555
N8_2 C3_4 1_555 1_555
C1_3 C6_3 1_555 1_555
C2_3 N1_4 1_555 1_555
C3_4 N1_4 1_555 1_555
H1_4 C3_4 1_555 1_555
C4_3 N8_2 1_555 1_555
C5_3 H2_3 1_555 1_555
C6_3 H3_3 1_555 1_555
C7_3 C5_3 1_555 1_555
H4_3 C7_3 1_555 1_555
C11_3 C12_3 1_555 1_555
C12_3 C7_3 1_555 1_555
C14_3 C6_3 1_555 1_555
H6_3 C14_3 1_555 1_555
C15_3 N2_3 1_555 1_555
C17_4 C11_3 1_555 1_555
H7_4 C17_4 1_555 1_555
C18_4 C1_3 1_555 1_555
H8_4 C18_4 1_555 1_555
C19_4 C12_3 1_555 1_555
H9_4 C19_4 1_555 1_555
C20_3 C4_3 1_555 1_555
H10_3 C20_3 1_555 1_555
C22_3 C15_3 1_555 1_555
H11_4 C22_3 1_555 1_555
C24_3 C2_3 1_555 1_555
H12_3 C24_3 1_555 1_555
C27_3 C20_3 1_555 1_555
H15_3 C27_3 1_555 1_555
C34_3 C24_3 1_555 1_555
H20_3 C34_3 1_555 1_555
C38_3 C8_3 1_555 1_555
H24_3 C38_3 1_555 1_555
C42_3 C38_3 1_555 1_555
H28_4 C42_3 1_555 1_555
C2_3 C4_3 1_555 1_555
C5_3 C15_3 1_555 1_555
C11_3 C14_3 1_555 1_555
C17_4 C18_4 1_555 1_555
C19_4 C22_3 1_555 1_555
C27_3 C34_3 1_555 1_555
N5 N7 1_555 1_555
N6 C37 1_555 1_555
N7 C41 1_555 1_555
C37 N5 1_555 1_555
H23 C37 1_555 1_555
C41 N6 1_555 1_555
H27 C41 1_555 1_555
N3_3 C3_5 1_555 1_555
C3_5 N1_5 1_555 1_555
H1_5 C3_5 1_555 1_555
H7_5 C17_5 1_555 1_555
H8_5 C18_5 1_555 1_555
H9_5 C19_5 1_555 1_555
Cd3_3 N3_3 1_555 1_555
C17_5 C18_5 1_555 1_555
Cd1_2 O1_3 1_555 1_555
O1_3 C9_3 1_555 1_555
N4_5 Cd1_2 1_555 1_555
O2_5 Cd1_2 1_555 1_555
O3_3 C21_3 1_555 1_555
C9_3 O2_5 1_555 1_555
H5_5 C10_5 1_555 1_555
O4_3 C21_3 1_555 1_555
C13_3 C9_3 1_555 1_555
C16_5 N4_5 1_555 1_555
C21_3 C31_3 1_555 1_555
C23_3 C26_3 1_555 1_555
C25_3 C13_3 1_555 1_555
H13_3 C25_3 1_555 1_555
C26_3 C25_3 1_555 1_555
H14_3 C26_3 1_555 1_555
C28_3 C29_3 1_555 1_555
C29_3 H16_3 1_555 1_555
C30_3 C29_3 1_555 1_555
H17_3 C30_3 1_555 1_555
C31_3 C30_3 1_555 1_555
C32_3 C31_3 1_555 1_555
H18_3 C32_3 1_555 1_555
C33_3 C28_3 1_555 1_555
H19_3 C33_3 1_555 1_555
C35_3 C13_3 1_555 1_555
H21_3 C35_3 1_555 1_555
C36_5 C16_5 1_555 1_555
H22_5 C36_5 1_555 1_555
H25_3 C39_3 1_555 1_555
C40_3 C23_3 1_555 1_555
H26_3 C40_3 1_555 1_555
C43_5 C36_5 1_555 1_555
H29_5 C43_5 1_555 1_555
Cd2_2 O3_3 1_555 1_555
N8_3 Cd1_2 1_555 1_555
O5_3 Cd1_2 1_555 1_555
O6_3 Cd1_2 1_555 1_555
N4_5 C10_5 1_555 1_555
O4_3 Cd2_2 1_555 1_555
C23_3 C39_3 1_555 1_555
C28_3 C39_3 1_555 1_555
C32_3 C33_3 1_555 1_555
C35_3 C40_3 1_555 1_555
N1_6 C1_4 1_555 1_555
N2_4 C8_4 1_555 1_555
N3_4 C3_6 1_555 1_555
C1_4 C6_4 1_555 1_555
C2_4 N1_6 1_555 1_555
C3_6 N1_6 1_555 1_555
H1_6 C3_6 1_555 1_555
C4_4 N3_4 1_555 1_555
C5_4 H2_4 1_555 1_555
C6_4 H3_4 1_555 1_555
C7_4 C5_4 1_555 1_555
H4_4 C7_4 1_555 1_555
C11_4 C12_4 1_555 1_555
C12_4 C7_4 1_555 1_555
C14_4 C6_4 1_555 1_555
H6_4 C14_4 1_555 1_555
C15_4 N2_4 1_555 1_555
C17_6 C11_4 1_555 1_555
H7_6 C17_6 1_555 1_555
C18_6 C1_4 1_555 1_555
H8_6 C18_6 1_555 1_555
C19_6 C12_4 1_555 1_555
H9_6 C19_6 1_555 1_555
C20_4 C4_4 1_555 1_555
H10_4 C20_4 1_555 1_555
C22_4 C15_4 1_555 1_555
H11_6 C22_4 1_555 1_555
C24_4 C2_4 1_555 1_555
H12_4 C24_4 1_555 1_555
C27_4 C20_4 1_555 1_555
H15_4 C27_4 1_555 1_555
C34_4 C24_4 1_555 1_555
H20_4 C34_4 1_555 1_555
C38_4 C8_4 1_555 1_555
H24_4 C38_4 1_555 1_555
C42_4 C38_4 1_555 1_555
H28_6 C42_4 1_555 1_555
Cd3_4 N3_4 1_555 1_555
C2_4 C4_4 1_555 1_555
C5_4 C15_4 1_555 1_555
C11_4 C14_4 1_555 1_555
C17_6 C18_6 1_555 1_555
C19_6 C22_4 1_555 1_555
C27_4 C34_4 1_555 1_555
N4_6 Cd2_2 1_555 1_555
O2_6 Cd2_2 1_555 1_555
H5_6 C10_6 1_555 1_555
C16_6 N4_6 1_555 1_555
C36_6 C16_6 1_555 1_555
H22_6 C36_6 1_555 1_555
C43_6 C36_6 1_555 1_555
H29_6 C43_6 1_555 1_555
N8_4 Cd2_2 1_555 1_555
N4_6 C10_6 1_555 1_555
Cd3_3 O1_4 1_555 1_555
O1_4 C9_4 1_555 1_555
N2_5 C8_5 1_555 1_555
N4_7 Cd3_3 1_555 1_555
O2_7 Cd3_3 1_555 1_555
C1_5 C6_5 1_555 1_555
C5_5 H2_5 1_555 1_555
C6_5 H3_5 1_555 1_555
O3_4 C21_4 1_555 1_555
C7_5 C5_5 1_555 1_555
H4_5 C7_5 1_555 1_555
C8_5 C16_7 1_555 1_555
C9_4 O2_7 1_555 1_555
C10_7 N2_5 1_555 1_555
H5_7 C10_7 1_555 1_555
C11_5 C12_5 1_555 1_555
O4_4 C21_4 1_555 1_555
C12_5 C7_5 1_555 1_555
C13_4 C9_4 1_555 1_555
C14_5 C6_5 1_555 1_555
H6_5 C14_5 1_555 1_555
C15_5 N2_5 1_555 1_555
C16_7 N4_7 1_555 1_555
C20_5 C4_5 1_555 1_555
H10_5 C20_5 1_555 1_555
C21_4 C31_4 1_555 1_555
C22_5 C15_5 1_555 1_555
C23_4 C26_4 1_555 1_555
C24_5 C2_5 1_555 1_555
H12_5 C24_5 1_555 1_555
C25_4 C13_4 1_555 1_555
H13_4 C25_4 1_555 1_555
C26_4 C25_4 1_555 1_555
H14_4 C26_4 1_555 1_555
C27_5 C20_5 1_555 1_555
H15_5 C27_5 1_555 1_555
C28_4 C29_4 1_555 1_555
C29_4 H16_4 1_555 1_555
C30_4 C29_4 1_555 1_555
H17_4 C30_4 1_555 1_555
C31_4 C30_4 1_555 1_555
C32_4 C31_4 1_555 1_555
H18_4 C32_4 1_555 1_555
C33_4 C28_4 1_555 1_555
H19_4 C33_4 1_555 1_555
C34_5 C24_5 1_555 1_555
H20_5 C34_5 1_555 1_555
C35_4 C13_4 1_555 1_555
H21_4 C35_4 1_555 1_555
C36_7 C16_7 1_555 1_555
H22_7 C36_7 1_555 1_555
C38_5 C8_5 1_555 1_555
H24_5 C38_5 1_555 1_555
H25_4 C39_4 1_555 1_555
C40_4 C23_4 1_555 1_555
H26_4 C40_4 1_555 1_555
C42_5 C38_5 1_555 1_555
C43_7 C36_7 1_555 1_555
H29_7 C43_7 1_555 1_555
Cd3_4 O3_4 1_555 1_555
O5_4 Cd3_3 1_555 1_555
O6_4 Cd3_3 1_555 1_555
N4_7 C10_7 1_555 1_555
C2_5 C4_5 1_555 1_555
C5_5 C15_5 1_555 1_555
C11_5 C14_5 1_555 1_555
O4_4 Cd3_4 1_555 1_555
C23_4 C39_4 1_555 1_555
C27_5 C34_5 1_555 1_555
C28_4 C39_4 1_555 1_555
C32_4 C33_4 1_555 1_555
C35_4 C40_4 1_555 1_555
C42_5 C43_7 1_555 1_555
N8_3 C3_7 1_555 1_555
C3_7 N1_7 1_555 1_555
H1_7 C3_7 1_555 1_555
H7_7 C17_7 1_555 1_555
H8_7 C18_7 1_555 1_555
H9_7 C19_7 1_555 1_555
C17_7 C18_7 1_555 1_555
N1_8 C1_6 1_555 1_555
N2_6 C8_6 1_555 1_555
N8_4 C3_8 1_555 1_555
N4_8 Cd3_4 1_555 1_555
O2_8 Cd3_4 1_555 1_555
C1_6 C6_6 1_555 1_555
C2_6 N1_8 1_555 1_555
C3_8 N1_8 1_555 1_555
H1_8 C3_8 1_555 1_555
C4_6 N8_4 1_555 1_555
C5_6 H2_6 1_555 1_555
C6_6 H3_6 1_555 1_555
C7_6 C5_6 1_555 1_555
H4_6 C7_6 1_555 1_555
C8_6 C16_8 1_555 1_555
C10_8 N2_6 1_555 1_555
H5_8 C10_8 1_555 1_555
C11_6 C12_6 1_555 1_555
C12_6 C7_6 1_555 1_555
C14_6 C6_6 1_555 1_555
H6_6 C14_6 1_555 1_555
C15_6 N2_6 1_555 1_555
C16_8 N4_8 1_555 1_555
C17_8 C11_6 1_555 1_555
H7_8 C17_8 1_555 1_555
C18_8 C1_6 1_555 1_555
H8_8 C18_8 1_555 1_555
C19_8 C12_6 1_555 1_555
H9_8 C19_8 1_555 1_555
C20_6 C4_6 1_555 1_555
H10_6 C20_6 1_555 1_555
C22_6 C15_6 1_555 1_555
H11_8 C22_6 1_555 1_555
C24_6 C2_6 1_555 1_555
H12_6 C24_6 1_555 1_555
C27_6 C20_6 1_555 1_555
H15_6 C27_6 1_555 1_555
C34_6 C24_6 1_555 1_555
H20_6 C34_6 1_555 1_555
C36_8 C16_8 1_555 1_555
H22_8 C36_8 1_555 1_555
C38_6 C8_6 1_555 1_555
H24_6 C38_6 1_555 1_555
C42_6 C38_6 1_555 1_555
H28_8 C42_6 1_555 1_555
C43_8 C36_8 1_555 1_555
H29_8 C43_8 1_555 1_555
N4_8 C10_8 1_555 1_555
C2_6 C4_6 1_555 1_555
C5_6 C15_6 1_555 1_555
C11_6 C14_6 1_555 1_555
C17_8 C18_8 1_555 1_555
C19_8 C22_6 1_555 1_555
C27_6 C34_6 1_555 1_555
C42_6 C43_8 1_555 1_555
N2_7 C8_7 1_555 1_555
C1_7 C6_7 1_555 1_555
C5_7 H2_7 1_555 1_555
C6_7 H3_7 1_555 1_555
C7_7 C5_7 1_555 1_555
H4_7 C7_7 1_555 1_555
C11_7 C12_7 1_555 1_555
C12_7 C7_7 1_555 1_555
C14_7 C6_7 1_555 1_555
H6_7 C14_7 1_555 1_555
C15_7 N2_7 1_555 1_555
C20_7 C4_7 1_555 1_555
H10_7 C20_7 1_555 1_555
C22_7 C15_7 1_555 1_555
C24_7 C2_7 1_555 1_555
H12_7 C24_7 1_555 1_555
C27_7 C20_7 1_555 1_555
H15_7 C27_7 1_555 1_555
C34_7 C24_7 1_555 1_555
H20_7 C34_7 1_555 1_555
C38_7 C8_7 1_555 1_555
H24_7 C38_7 1_555 1_555
C42_7 C38_7 1_555 1_555
C2_7 C4_7 1_555 1_555
C5_7 C15_7 1_555 1_555
C11_7 C14_7 1_555 1_555
C27_7 C34_7 1_555 1_555
N5_2 N7_2 1_555 1_555
N6_2 C37_2 1_555 1_555
N7_2 C41_2 1_555 1_555
C37_2 N5_2 1_555 1_555
H23_2 C37_2 1_555 1_555
C41_2 N6_2 1_555 1_555
H27_2 C41_2 1_555 1_555
O1_5 C9_5 1_555 1_555
N5_3 N7_3 1_555 1_555
C13_5 C9_5 1_555 1_555
N6_3 C37_3 1_555 1_555
C21_5 C31_5 1_555 1_555
C23_5 C26_5 1_555 1_555
N7_3 C41_3 1_555 1_555
C25_5 C13_5 1_555 1_555
H13_5 C25_5 1_555 1_555
C26_5 C25_5 1_555 1_555
H14_5 C26_5 1_555 1_555
C28_5 C29_5 1_555 1_555
C29_5 H16_5 1_555 1_555
C30_5 C29_5 1_555 1_555
H17_5 C30_5 1_555 1_555
C31_5 C30_5 1_555 1_555
C32_5 C31_5 1_555 1_555
H18_5 C32_5 1_555 1_555
C33_5 C28_5 1_555 1_555
H19_5 C33_5 1_555 1_555
C35_5 C13_5 1_555 1_555
H21_5 C35_5 1_555 1_555
C37_3 N5_3 1_555 1_555
H23_3 C37_3 1_555 1_555
C39_5 N5_3 1_555 1_555
H25_5 C39_5 1_555 1_555
C40_5 C23_5 1_555 1_555
H26_5 C40_5 1_555 1_555
C41_3 N6_3 1_555 1_555
H27_3 C41_3 1_555 1_555
C23_5 C39_5 1_555 1_555
C28_5 C39_5 1_555 1_555
C32_5 C33_5 1_555 1_555
C35_5 C40_5 1_555 1_555
O1_6 C9_6 1_555 1_555
N5_4 N7_4 1_555 1_555
C13_6 C9_6 1_555 1_555
N6_4 C37_4 1_555 1_555
C21_6 C31_6 1_555 1_555
C23_6 C26_6 1_555 1_555
N7_4 C41_4 1_555 1_555
C25_6 C13_6 1_555 1_555
H13_6 C25_6 1_555 1_555
C26_6 C25_6 1_555 1_555
H14_6 C26_6 1_555 1_555
C28_6 C29_6 1_555 1_555
C29_6 H16_6 1_555 1_555
C30_6 C29_6 1_555 1_555
H17_6 C30_6 1_555 1_555
C31_6 C30_6 1_555 1_555
C32_6 C31_6 1_555 1_555
H18_6 C32_6 1_555 1_555
C33_6 C28_6 1_555 1_555
H19_6 C33_6 1_555 1_555
C35_6 C13_6 1_555 1_555
H21_6 C35_6 1_555 1_555
C37_4 N5_4 1_555 1_555
H23_4 C37_4 1_555 1_555
C39_6 N5_4 1_555 1_555
H25_6 C39_6 1_555 1_555
C40_6 C23_6 1_555 1_555
H26_6 C40_6 1_555 1_555
C41_4 N6_4 1_555 1_555
H27_4 C41_4 1_555 1_555
C23_6 C39_6 1_555 1_555
C28_6 C39_6 1_555 1_555
C32_6 C33_6 1_555 1_555
C35_6 C40_6 1_555 1_555
N5_5 N7_5 1_555 1_555
N6_5 C37_5 1_555 1_555
N7_5 C41_5 1_555 1_555
C37_5 N5_5 1_555 1_555
H23_5 C37_5 1_555 1_555
C41_5 N6_5 1_555 1_555
H27_5 C41_5 1_555 1_555
N5_6 N7_6 1_555 1_555
N6_6 C37_6 1_555 1_555
N7_6 C41_6 1_555 1_555
C37_6 N5_6 1_555 1_555
H23_6 C37_6 1_555 1_555
C41_6 N6_6 1_555 1_555
H27_6 C41_6 1_555 1_555
N2_8 C8_8 1_555 1_555
C1_8 C6_8 1_555 1_555
C5_8 H2_8 1_555 1_555
C6_8 H3_8 1_555 1_555
C7_8 C5_8 1_555 1_555
H4_8 C7_8 1_555 1_555
C11_8 C12_8 1_555 1_555
C12_8 C7_8 1_555 1_555
C14_8 C6_8 1_555 1_555
H6_8 C14_8 1_555 1_555
C15_8 N2_8 1_555 1_555
C20_8 C4_8 1_555 1_555
H10_8 C20_8 1_555 1_555
C22_8 C15_8 1_555 1_555
C24_8 C2_8 1_555 1_555
H12_8 C24_8 1_555 1_555
C27_8 C20_8 1_555 1_555
H15_8 C27_8 1_555 1_555
C34_8 C24_8 1_555 1_555
H20_8 C34_8 1_555 1_555
C38_8 C8_8 1_555 1_555
H24_8 C38_8 1_555 1_555
C42_8 C38_8 1_555 1_555
C2_8 C4_8 1_555 1_555
C5_8 C15_8 1_555 1_555
C11_8 C14_8 1_555 1_555
C27_8 C34_8 1_555 1_555
O1_7 C9_7 1_555 1_555
N5_7 N7_7 1_555 1_555
C13_7 C9_7 1_555 1_555
N6_7 C37_7 1_555 1_555
C21_7 C31_7 1_555 1_555
C23_7 C26_7 1_555 1_555
N7_7 C41_7 1_555 1_555
C25_7 C13_7 1_555 1_555
H13_7 C25_7 1_555 1_555
C26_7 C25_7 1_555 1_555
H14_7 C26_7 1_555 1_555
C28_7 C29_7 1_555 1_555
C29_7 H16_7 1_555 1_555
C30_7 C29_7 1_555 1_555
H17_7 C30_7 1_555 1_555
C31_7 C30_7 1_555 1_555
C32_7 C31_7 1_555 1_555
H18_7 C32_7 1_555 1_555
C33_7 C28_7 1_555 1_555
H19_7 C33_7 1_555 1_555
C35_7 C13_7 1_555 1_555
H21_7 C35_7 1_555 1_555
C37_7 N5_7 1_555 1_555
H23_7 C37_7 1_555 1_555
C39_7 N5_7 1_555 1_555
H25_7 C39_7 1_555 1_555
C40_7 C23_7 1_555 1_555
H26_7 C40_7 1_555 1_555
C41_7 N6_7 1_555 1_555
H27_7 C41_7 1_555 1_555
C23_7 C39_7 1_555 1_555
C28_7 C39_7 1_555 1_555
C32_7 C33_7 1_555 1_555
C35_7 C40_7 1_555 1_555
O1_8 C9_8 1_555 1_555
N5_8 N7_8 1_555 1_555
C13_8 C9_8 1_555 1_555
N6_8 C37_8 1_555 1_555
C21_8 C31_8 1_555 1_555
C23_8 C26_8 1_555 1_555
N7_8 C41_8 1_555 1_555
C25_8 C13_8 1_555 1_555
H13_8 C25_8 1_555 1_555
C26_8 C25_8 1_555 1_555
H14_8 C26_8 1_555 1_555
C28_8 C29_8 1_555 1_555
C29_8 H16_8 1_555 1_555
C30_8 C29_8 1_555 1_555
H17_8 C30_8 1_555 1_555
C31_8 C30_8 1_555 1_555
C32_8 C31_8 1_555 1_555
H18_8 C32_8 1_555 1_555
C33_8 C28_8 1_555 1_555
H19_8 C33_8 1_555 1_555
C35_8 C13_8 1_555 1_555
H21_8 C35_8 1_555 1_555
C37_8 N5_8 1_555 1_555
H23_8 C37_8 1_555 1_555
C39_8 N5_8 1_555 1_555
H25_8 C39_8 1_555 1_555
C40_8 C23_8 1_555 1_555
H26_8 C40_8 1_555 1_555
C41_8 N6_8 1_555 1_555
H27_8 C41_8 1_555 1_555
C23_8 C39_8 1_555 1_555
C28_8 C39_8 1_555 1_555
C32_8 C33_8 1_555 1_555
C35_8 C40_8 1_555 1_555

#END
