
###############################################################################
#
# This file contains modified crystal structure data generated from the
# MOF subset of the Cambridge Structural Database (CSD) v543 
# hosted by the Cambridge Crystallographic Data Centre (CCDC).
#
# This work is licensed under the Creative Commons
# Attribution-NonCommercial-ShareAlike 4.0 International License.
# To view a copy of this license, visit
# http://creativecommons.org/licenses/by-nc-sa/4.0/
# or send a letter to
# Creative Commons, PO Box 1866, Mountain View, CA 94042, USA.
#
# CIF created using the CSD Python API on 29 September 2022
# The structure has been converted into the P1 space group
# The structure has a 3D framework
# The original CSD entry LIJQON is in the trigonal crystal system
# The framework has been calculated to contain at least 10.0% void space
# The void calculation uses a probe of radius 1.32A, grid spacing 0.4
# H atom positions have been added when not included in the experimental data
# Generated hydrogen atom positions removed from atoms on special positions
#
###############################################################################

data_LIJQON
_chemical_formula_moiety         '(C360 H288 Cd22 N72 O88)n'
_symmetry_cell_setting           triclinic
_symmetry_space_group_name_H-M   'P 1'
_symmetry_Int_Tables_number      1
_space_group_name_Hall           'P 1'
loop_
_symmetry_equiv_pos_site_id
_symmetry_equiv_pos_as_xyz
1 x,y,z
_cell_length_a                   26.578(4)
_cell_length_b                   26.578(4)
_cell_length_c                   21.314(4)
_cell_angle_alpha                90
_cell_angle_beta                 90
_cell_angle_gamma                120
_cell_volume                     13038.9
loop_
_atom_site_label
_atom_site_type_symbol
_atom_site_fract_x
_atom_site_fract_y
_atom_site_fract_z
Cd3 Cd -0.00000(4) 0.57154(3) 0.2500
C37 C 0.0127(7) 0.4767(5) 0.0497(4)
H21 H 0.0206 0.4595 0.0834
O13 O 0.0000(4) 0.6569(3) 0.2500
N14 N 0.1003(4) 0.6068(3) 0.2455(3)
O18 O 0.0028(4) 0.5080(3) 0.3293(2)
O21 O 0.0023(4) 0.5852(3) 0.3623(2)
H78 H 0.0406392 0.689674 0.248177
C39 C 0.0025(6) 0.4633(4) 0.8728(4)
C40 C 0.0007(4) 0.4825(3) 0.9391(3)
C42 C 0.0155(7) 0.4581(5) 0.9879(4)
H24 H 0.0268 0.4306 0.9806
O14 O 0.0028(4) 0.4948(3) 0.8293(2)
O15 O 0.0023(4) 0.4171(3) 0.8623(2)
Cd8 Cd -0.00000(4) 0.42846(3) 0.7500
Cd4 Cd 0.57154(3) 0.00000(4) 0.2500
Cd1 Cd 0.42846(3) 0.42846(3) 0.2500
C1 C 0.5519(3) 0.4332(4) 0.2574(4)
H1 H 0.5631 0.4724 0.2572
C2 C 0.5939(4) 0.4188(4) 0.2606(4)
H2 H 0.6324 0.4473 0.2669
C3 C 0.5793(3) 0.3626(3) 0.2544(4)
C4 C 0.5217(4) 0.3204(4) 0.2514(5)
H3 H 0.5105 0.2813 0.2485
C5 C 0.4810(4) 0.3381(4) 0.2528(4)
H4 H 0.4420 0.3094 0.2525
C6 C 0.6286(4) 0.3503(4) 0.2562(4)
C7 C 0.4633(4) 0.4608(4) 0.1272(4)
C8 C 0.4825(3) 0.4818(3) 0.0609(3)
C9 C 0.5233(5) 0.5360(5) 0.0497(4)
H5 H 0.5405 0.5611 0.0834
C10 C 0.4581(5) 0.4426(5) 0.0121(4)
H6 H 0.4306 0.4038 0.0194
N1 N 0.4935(3) 0.3932(3) 0.2545(3)
N2 N 0.6837(3) 0.3920(3) 0.2558(4)
O1 O 0.4948(3) 0.4920(3) 0.1707(2)
O2 O 0.4171(3) 0.4148(3) 0.1377(2)
O3 O 0.3431(3) 0.3431(3) 0.2500
C11 C 0.5668(4) 0.1187(5) 0.2574(4)
H7 H 0.5276 0.0907 0.2572
C12 C 0.5812(4) 0.1751(6) 0.2606(4)
H8 H 0.5527 0.1851 0.2669
C13 C 0.6374(3) 0.2167(4) 0.2544(4)
C14 C 0.6796(4) 0.2013(6) 0.2514(5)
H9 H 0.7187 0.2292 0.2485
C15 C 0.6619(4) 0.1429(6) 0.2528(4)
H10 H 0.6906 0.1326 0.2525
C16 C 0.6497(4) 0.2783(6) 0.2562(4)
N3 N 0.6068(3) 0.1003(4) 0.2545(3)
N4 N 0.6080(3) 0.2917(4) 0.2558(4)
C17 C 0.8813(5) 0.4481(3) 0.2574(4)
H11 H 0.9093 0.4369 0.2572
C18 C 0.8249(6) 0.4061(4) 0.2606(4)
H12 H 0.8149 0.3676 0.2669
C19 C 0.7833(4) 0.4207(3) 0.2544(4)
C20 C 0.7987(6) 0.4783(4) 0.2514(5)
H13 H 0.7708 0.4895 0.2485
C21 C 0.8571(6) 0.5190(4) 0.2528(4)
H14 H 0.8674 0.5580 0.2525
C22 C 0.7217(6) 0.3714(4) 0.2562(4)
N5 N 0.8997(4) 0.5065(3) 0.2545(3)
N6 N 0.7083(4) 0.3163(3) 0.2558(4)
C27 C 0.5392(4) 0.0025(6) 0.1272(4)
C28 C 0.5182(3) 0.0007(4) 0.0609(3)
C30 C 0.5574(5) 0.0155(7) 0.0121(4)
H18 H 0.5962 0.0268 0.0194
O6 O 0.5080(3) 0.0028(4) 0.1707(2)
O7 O 0.5852(3) 0.0023(4) 0.1377(2)
O8 O 0.6569(3) 0.0000(4) 0.2500
Cd3_2 Cd 1.00000(4) 0.57154(3) 0.2500
C35 C 0.9975(6) 0.5367(4) 0.1272(4)
C36 C 0.9993(4) 0.5175(3) 0.0609(3)
C38 C 0.9845(7) 0.5419(5) 0.0121(4)
H22 H 0.9732 0.5694 0.0194
O11 O 0.9972(4) 0.5052(3) 0.1707(2)
O12 O 0.9977(4) 0.5829(3) 0.1377(2)
O13_2 O 1.0000(4) 0.6569(3) 0.2500
C43 C 0.4332(4) 0.5519(3) 0.2426(4)
H25 H 0.4724 0.5631 0.2428
C44 C 0.4188(4) 0.5939(4) 0.2394(4)
H26 H 0.4473 0.6324 0.2331
C45 C 0.3626(3) 0.5793(3) 0.2456(4)
C46 C 0.3204(4) 0.5217(4) 0.2486(5)
H27 H 0.2813 0.5105 0.2515
C47 C 0.3381(4) 0.4810(4) 0.2472(4)
H28 H 0.3094 0.4420 0.2475
C48 C 0.3503(4) 0.6286(4) 0.2438(4)
N7 N 0.3932(3) 0.4935(3) 0.2455(3)
N8 N 0.3920(3) 0.6837(3) 0.2442(4)
C49 C 0.1187(5) 0.5668(4) 0.2426(4)
H29 H 0.0907 0.5276 0.2428
C50 C 0.1751(6) 0.5812(4) 0.2394(4)
H30 H 0.1851 0.5527 0.2331
C51 C 0.2167(4) 0.6374(3) 0.2456(4)
C52 C 0.2013(6) 0.6796(4) 0.2486(5)
H31 H 0.2292 0.7187 0.2515
C53 C 0.1429(6) 0.6619(4) 0.2472(4)
H32 H 0.1326 0.6906 0.2475
C54 C 0.2783(6) 0.6497(4) 0.2438(4)
N10 N 0.2917(4) 0.6080(3) 0.2442(4)
C55 C 0.4481(3) 0.8813(5) 0.2426(4)
H33 H 0.4369 0.9093 0.2428
C56 C 0.4061(4) 0.8249(6) 0.2394(4)
H34 H 0.3676 0.8149 0.2331
C57 C 0.4207(3) 0.7833(4) 0.2456(4)
C58 C 0.4783(4) 0.7987(6) 0.2486(5)
H35 H 0.4895 0.7708 0.2515
C59 C 0.5190(4) 0.8571(6) 0.2472(4)
H36 H 0.5580 0.8674 0.2475
C60 C 0.3714(4) 0.7217(6) 0.2438(4)
N11 N 0.5065(3) 0.8997(4) 0.2455(3)
N12 N 0.3163(3) 0.7083(4) 0.2442(4)
Cd4_2 Cd 0.57154(3) 1.00000(4) 0.2500
O16 O 0.4920(3) 0.4948(3) 0.3293(2)
O19 O 0.4148(3) 0.4171(3) 0.3623(2)
H75 H 0.678783 0.0188574 0.288919
H77 H 0.981143 0.659925 0.288919
C23 C 0.5367(4) 0.5392(4) 0.8728(4)
C24 C 0.5175(3) 0.5182(3) 0.9391(3)
C25 C 0.4767(5) 0.4640(5) 0.9503(4)
H15 H 0.4595 0.4389 0.9166
C26 C 0.5419(5) 0.5574(5) 0.9879(4)
H16 H 0.5694 0.5962 0.9806
O4 O 0.5052(3) 0.5080(3) 0.8293(2)
O5 O 0.5829(3) 0.5852(3) 0.8623(2)
C33 C 0.5360(5) 0.0127(7) 0.9503(4)
H19 H 0.5611 0.0206 0.9166
C41 C 0.9873(7) 0.5233(5) 0.9503(4)
H23 H 0.9794 0.5405 0.9166
Cd6 Cd 0.57154(3) 0.57154(3) 0.7500
Cd7 Cd 0.42846(3) 0.00000(4) 0.7500
Cd8_2 Cd 1.00000(4) 0.42846(3) 0.7500
C29 C 0.4640(5) 0.9873(7) 0.0497(4)
H17 H 0.4389 0.9794 0.0834
O8_2 O 0.6569(3) 1.0000(4) 0.2500
O17 O 0.5052(3) 0.9972(4) 0.3293(2)
O20 O 0.5829(3) 0.9977(4) 0.3623(2)
H76 H 0.649034 0.959361 0.248177
C31 C 0.4608(4) 0.9975(6) 0.8728(4)
C32 C 0.4818(3) 0.9993(4) 0.9391(3)
C34 C 0.4426(5) 0.9845(7) 0.9879(4)
H20 H 0.4038 0.9732 0.9806
O9 O 0.4920(3) 0.9972(4) 0.8293(2)
O10 O 0.4148(3) 0.9977(4) 0.8623(2)
Cd7_2 Cd 0.42846(3) 1.00000(4) 0.7500
C37_2 C 0.4767(5) 0.0127(7) 0.4503(4)
H21_2 H 0.4595 0.0206 0.4166
C39_2 C 0.4633(4) 0.0025(6) 0.6272(4)
C40_2 C 0.4825(3) 0.0007(4) 0.5609(3)
C42_2 C 0.4581(5) 0.0155(7) 0.5121(4)
H24_2 H 0.4306 0.0268 0.5194
O14_2 O 0.4948(3) 0.0028(4) 0.6707(2)
O15_2 O 0.4171(3) 0.0023(4) 0.6377(2)
H78_2 H 0.689674 0.0406392 0.251823
C7_2 C 0.4608(4) 0.4633(4) 0.3728(4)
C8_2 C 0.4818(3) 0.4825(3) 0.4391(3)
C9_2 C 0.5360(5) 0.5233(5) 0.4503(4)
H5_2 H 0.5611 0.5405 0.4166
C10_2 C 0.4426(5) 0.4581(5) 0.4879(4)
H6_2 H 0.4038 0.4306 0.4806
C23_2 C 0.5392(4) 0.5367(4) 0.6272(4)
C24_2 C 0.5182(3) 0.5175(3) 0.5609(3)
C25_2 C 0.4640(5) 0.4767(5) 0.5497(4)
H15_2 H 0.4389 0.4595 0.5834
C26_2 C 0.5574(5) 0.5419(5) 0.5121(4)
H16_2 H 0.5962 0.5694 0.5194
O4_2 O 0.5080(3) 0.5052(3) 0.6707(2)
O5_2 O 0.5852(3) 0.5829(3) 0.6377(2)
C27_2 C 0.0025(6) 0.5392(4) 0.3728(4)
C28_2 C 0.0007(4) 0.5182(3) 0.4391(3)
C30_2 C 0.0155(7) 0.5574(5) 0.4879(4)
H18_2 H 0.0268 0.5962 0.4806
C33_2 C 0.0127(7) 0.5360(5) 0.5497(4)
H19_2 H 0.0206 0.5611 0.5834
C35_2 C 0.5367(4) 0.9975(6) 0.3728(4)
C36_2 C 0.5175(3) 0.9993(4) 0.4391(3)
C38_2 C 0.5419(5) 0.9845(7) 0.4879(4)
H22_2 H 0.5694 0.9732 0.4806
C41_2 C 0.5233(5) 0.9873(7) 0.5497(4)
H23_2 H 0.5405 0.9794 0.5834
H75_2 H 0.0188574 0.678783 0.211081
H77_2 H 0.659925 0.981143 0.211081
C29_2 C 0.9873(7) 0.4640(5) 0.4503(4)
H17_2 H 0.9794 0.4389 0.4166
C31_2 C 0.9975(6) 0.4608(4) 0.6272(4)
C32_2 C 0.9993(4) 0.4818(3) 0.5609(3)
C34_2 C 0.9845(7) 0.4426(5) 0.5121(4)
H20_2 H 0.9732 0.4038 0.5194
O9_2 O 0.9972(4) 0.4920(3) 0.6707(2)
O10_2 O 0.9977(4) 0.4148(3) 0.6377(2)
H76_2 H 0.959361 0.649034 0.251823
O8_3 O 0.3431(3) 0.0000(4) 0.7500
N13 N 0.4935(3) 0.1003(4) 0.7545(3)
H76_3 H 0.350966 0.0406392 0.751823
C1_2 C 0.4481(3) 0.5668(4) 0.7426(4)
H1_2 H 0.4369 0.5276 0.7428
C2_2 C 0.4061(4) 0.5812(4) 0.7394(4)
H2_2 H 0.3676 0.5527 0.7331
C3_2 C 0.4207(3) 0.6374(3) 0.7456(4)
C4_2 C 0.4783(4) 0.6796(4) 0.7486(5)
H3_2 H 0.4895 0.7187 0.7515
C5_2 C 0.5190(4) 0.6619(4) 0.7472(4)
H4_2 H 0.5580 0.6906 0.7475
C6_2 C 0.3714(4) 0.6497(4) 0.7438(4)
N1_2 N 0.5065(3) 0.6068(3) 0.7455(3)
N2_2 N 0.3163(3) 0.6080(3) 0.7442(4)
O3_2 O 0.6569(3) 0.6569(3) 0.7500
C11_2 C 0.4332(4) 0.8813(5) 0.7426(4)
H7_2 H 0.4724 0.9093 0.7428
C12_2 C 0.4188(4) 0.8249(6) 0.7394(4)
H8_2 H 0.4473 0.8149 0.7331
C13_2 C 0.3626(3) 0.7833(4) 0.7456(4)
C14_2 C 0.3204(4) 0.7987(6) 0.7486(5)
H9_2 H 0.2813 0.7708 0.7515
C15_2 C 0.3381(4) 0.8571(6) 0.7472(4)
H10_2 H 0.3094 0.8674 0.7475
C16_2 C 0.3503(4) 0.7217(6) 0.7438(4)
N3_2 N 0.3932(3) 0.8997(4) 0.7455(3)
N4_2 N 0.3920(3) 0.7083(4) 0.7442(4)
C17_2 C 0.1187(5) 0.5519(3) 0.7426(4)
H11_2 H 0.0907 0.5631 0.7428
C18_2 C 0.1751(6) 0.5939(4) 0.7394(4)
H12_2 H 0.1851 0.6324 0.7331
C19_2 C 0.2167(4) 0.5793(3) 0.7456(4)
C20_2 C 0.2013(6) 0.5217(4) 0.7486(5)
H13_2 H 0.2292 0.5105 0.7515
C21_2 C 0.1429(6) 0.4810(4) 0.7472(4)
H14_2 H 0.1326 0.4420 0.7475
C22_2 C 0.2783(6) 0.6286(4) 0.7438(4)
N5_2 N 0.1003(4) 0.4935(3) 0.7455(3)
N6_2 N 0.2917(4) 0.6837(3) 0.7442(4)
O8_4 O 0.3431(3) 1.0000(4) 0.7500
O13_3 O -0.0000(4) 0.3431(3) 0.7500
C43_2 C 0.5668(4) 0.4481(3) 0.7574(4)
H25_2 H 0.5276 0.4369 0.7572
C44_2 C 0.5812(4) 0.4061(4) 0.7606(4)
H26_2 H 0.5527 0.3676 0.7669
C45_2 C 0.6374(3) 0.4207(3) 0.7544(4)
C46_2 C 0.6796(4) 0.4783(4) 0.7514(5)
H27_2 H 0.7187 0.4895 0.7485
C47_2 C 0.6619(4) 0.5190(4) 0.7528(4)
H28_2 H 0.6906 0.5580 0.7525
C48_2 C 0.6497(4) 0.3714(4) 0.7562(4)
N7_2 N 0.6068(3) 0.5065(3) 0.7545(3)
N8_2 N 0.6080(3) 0.3163(3) 0.7558(4)
C49_2 C 0.8813(5) 0.4332(4) 0.7574(4)
H29_2 H 0.9093 0.4724 0.7572
C50_2 C 0.8249(6) 0.4188(4) 0.7606(4)
H30_2 H 0.8149 0.4473 0.7669
C51_2 C 0.7833(4) 0.3626(3) 0.7544(4)
C52_2 C 0.7987(6) 0.3204(4) 0.7514(5)
H31_2 H 0.7708 0.2813 0.7485
C53_2 C 0.8571(6) 0.3381(4) 0.7528(4)
H32_2 H 0.8674 0.3094 0.7525
C54_2 C 0.7217(6) 0.3503(4) 0.7562(4)
N9 N 0.8997(4) 0.3932(3) 0.7545(3)
N10_2 N 0.7083(4) 0.3920(3) 0.7558(4)
C55_2 C 0.5519(3) 0.1187(5) 0.7574(4)
H33_2 H 0.5631 0.0907 0.7572
C56_2 C 0.5939(4) 0.1751(6) 0.7606(4)
H34_2 H 0.6324 0.1851 0.7669
C57_2 C 0.5793(3) 0.2167(4) 0.7544(4)
C58_2 C 0.5217(4) 0.2013(6) 0.7514(5)
H35_2 H 0.5105 0.2292 0.7485
C59_2 C 0.4810(4) 0.1429(6) 0.7528(4)
H36_2 H 0.4420 0.1326 0.7525
C60_2 C 0.6286(4) 0.2783(6) 0.7562(4)
N12_2 N 0.6837(3) 0.2917(4) 0.7558(4)
H75_3 H 0.321217 0.981143 0.711081
H77_3 H 0.0188574 0.340075 0.711081
O13_4 O 1.0000(4) 0.3431(3) 0.7500
H78_3 H 0.959361 0.310326 0.751823
H76_4 H 0.0406392 0.350966 0.748177
H75_4 H 0.981143 0.321217 0.788919
H77_4 H 0.340075 0.0188574 0.788919
H78_4 H 0.310326 0.959361 0.748177
Cd9 Cd 0.23691(2) 0.33333(3) 0.08159(2)
C61 C 0.3286(3) 0.4751(3) 0.0783(4)
H37 H 0.3568 0.4643 0.0743
C62 C 0.3451(4) 0.5334(4) 0.0780(5)
H38 H 0.3843 0.5613 0.0753
C63 C 0.3036(4) 0.5510(4) 0.0816(4)
C64 C 0.2460(3) 0.5054(4) 0.0867(5)
H39 H 0.2159 0.5136 0.0890
C65 C 0.2339(5) 0.4487(4) 0.0884(6)
H40 H 0.1954 0.4194 0.0928
C66 C 0.3228(3) 0.6133(3) 0.0803(4)
C67 C 0.1856(4) 0.1912(4) 0.0773(5)
H41 H 0.2245 0.2017 0.0744
C68 C 0.1447(4) 0.1336(4) 0.0777(5)
H42 H 0.1562 0.1059 0.0771
C69 C 0.0856(4) 0.1159(4) 0.0789(4)
C70 C 0.0707(4) 0.1598(5) 0.0843(5)
H43 H 0.0324 0.1513 0.0883
C71 C 0.1174(4) 0.2169(4) 0.0832(6)
H44 H 0.1083 0.2465 0.0844
C72 C 0.0396(4) 0.0537(4) 0.0801(5)
C73 C 0.2016(4) 0.3317(3) 0.2030(3)
C74 C 0.1850(4) 0.3303(5) 0.2698(4)
C75 C 0.2180(4) 0.3323(4) 0.3196(3)
H45 H 0.2529 0.3333 0.3114
C76 C 0.2033(4) 0.3327(4) 0.3798(3)
H46 H 0.2283 0.3341 0.4113
C77 C 0.1539(5) 0.3313(5) 0.3961(5)
C78 C 0.1165(7) 0.3244(6) 0.3489(7)
H47 H 0.0801 0.3192 0.3591
C79 C 0.1312(7) 0.3249(7) 0.2839(8)
H48 H 0.1057 0.3218 0.2522
C80 C 0.1364(5) 0.3332(5) 0.4622(4)
N15 N 0.2730(3) 0.4340(3) 0.0842(3)
N16 N 0.3781(3) 0.6560(3) 0.0807(3)
N17 N 0.1720(3) 0.2326(3) 0.0808(4)
O22 O 0.2488(2) 0.3337(3) 0.1911(2)
O23 O 0.1680(2) 0.3296(3) 0.1606(2)
O24 O 0.1674(3) 0.3330(3) 0.5051(3)
O25 O 0.0894(4) 0.3321(5) 0.4725(3)
O26 O 0.3202(2) 0.3274(3) 0.0799(3)
C81 C 0.5249(3) 0.8535(4) 0.0783(4)
H49 H 0.5357 0.8925 0.0743
C82 C 0.4666(4) 0.8117(6) 0.0780(5)
H50 H 0.4387 0.8230 0.0753
C83 C 0.4490(4) 0.7526(6) 0.0816(4)
C84 C 0.4946(4) 0.7406(5) 0.0867(5)
H51 H 0.4864 0.7023 0.0890
C85 C 0.5513(4) 0.7852(6) 0.0884(6)
H52 H 0.5806 0.7760 0.0928
C86 C 0.3867(3) 0.7095(4) 0.0803(4)
N19 N 0.5660(3) 0.8390(4) 0.0842(3)
N20 N 0.3440(3) 0.7221(4) 0.0807(3)
C87 C 0.1465(4) 0.6714(3) 0.0783(4)
H53 H 0.1075 0.6432 0.0743
C88 C 0.1883(6) 0.6549(4) 0.0780(5)
H54 H 0.1770 0.6157 0.0753
C89 C 0.2474(6) 0.6964(4) 0.0816(4)
C90 C 0.2594(5) 0.7540(3) 0.0867(5)
H55 H 0.2977 0.7841 0.0890
C91 C 0.2148(6) 0.7661(5) 0.0884(6)
H56 H 0.2240 0.8046 0.0928
C92 C 0.2905(4) 0.6772(3) 0.0803(4)
N21 N 0.1610(4) 0.7270(3) 0.0842(3)
N22 N 0.2779(4) 0.6219(3) 0.0807(3)
N26 N 0.0564(4) 0.0153(3) 0.0808(3)
Cd12 Cd 0.66667(3) 0.90358(4) 0.08159(2)
Cd13 Cd 0.09642(4) 0.76309(2) 0.08159(2)
Cd16 Cd 0.09642(4) 0.33333(3) 0.58159(2)
O39 O 0.1656(4) 0.3330(3) 0.0051(3)
O42 O 0.2427(6) 0.3321(5) 0.9725(3)
C99 C 0.0056(6) 0.8144(4) 0.0773(5)
C101 C 0.0303(6) 0.9144(4) 0.0789(4)
C102 C 0.0891(6) 0.9293(4) 0.0843(5)
H63 H 0.1189 0.9676 0.0883
C103 C 0.0995(6) 0.8826(4) 0.0832(6)
H64 H 0.1382 0.8917 0.0844
C104 C 0.0141(6) 0.9604(4) 0.0801(5)
N25 N 0.0606(4) 0.8280(3) 0.0808(4)
C113 C 0.1301(5) 0.7984(4) 0.2030(3)
C114 C 0.1453(6) 0.8150(4) 0.2698(4)
C115 C 0.1143(6) 0.7820(4) 0.3196(3)
H69 H 0.0804 0.7471 0.3114
C116 C 0.1294(6) 0.7967(4) 0.3798(3)
H70 H 0.1058 0.7717 0.4113
C117 C 0.1774(7) 0.8461(5) 0.3961(5)
C118 C 0.2079(9) 0.8835(7) 0.3489(7)
H71 H 0.2391 0.9199 0.3591
C119 C 0.1937(10) 0.8688(7) 0.2839(8)
H72 H 0.2161 0.8943 0.2522
C120 C 0.1968(7) 0.8636(5) 0.4622(4)
O32 O 0.0849(4) 0.7512(2) 0.1911(2)
O33 O 0.1616(4) 0.8320(2) 0.1606(2)
O34 O 0.1656(4) 0.8326(3) 0.5051(3)
O35 O 0.2427(6) 0.9106(4) 0.4725(3)
O36 O 0.0072(4) 0.6798(2) 0.0799(3)
Cd15 Cd 0.23691(2) 0.90358(4) 0.58159(2)
O38 O 0.1674(3) 0.8344(4) 0.0051(3)
H84 H 0.0125442 0.645398 0.0800459
O41 O 0.0894(4) 0.7573(6) 0.9725(3)
C93 C 0.8088(4) 0.9944(6) 0.0773(5)
C95 C 0.8841(4) 0.9697(6) 0.0789(4)
C96 C 0.8402(5) 0.9109(6) 0.0843(5)
H59 H 0.8487 0.8811 0.0883
C97 C 0.7831(4) 0.9005(6) 0.0832(6)
H60 H 0.7535 0.8618 0.0844
C98 C 0.9463(4) 0.9859(6) 0.0801(5)
N23 N 0.7674(3) 0.9394(4) 0.0808(4)
N24 N 0.9589(3) 0.9436(4) 0.0808(3)
H61 H 0.9772 0.7755 0.0744
C100 C 0.9889(6) 0.8553(4) 0.0777(5)
H62 H 0.9497 0.8438 0.0771
C105 C 0.6683(3) 0.8699(5) 0.2030(3)
C106 C 0.6697(5) 0.8547(6) 0.2698(4)
C107 C 0.6677(4) 0.8857(6) 0.3196(3)
H65 H 0.6667 0.9196 0.3114
C108 C 0.6673(4) 0.8706(6) 0.3798(3)
H66 H 0.6659 0.8942 0.4113
C109 C 0.6687(5) 0.8226(7) 0.3961(5)
C110 C 0.6756(6) 0.7921(9) 0.3489(7)
H67 H 0.6808 0.7609 0.3591
C111 C 0.6751(7) 0.8063(10) 0.2839(8)
H68 H 0.6782 0.7839 0.2522
C112 C 0.6668(5) 0.8032(7) 0.4622(4)
O27 O 0.6663(3) 0.9151(4) 0.1911(2)
O28 O 0.6704(3) 0.8384(4) 0.1606(2)
O29 O 0.6670(3) 0.8344(4) 0.5051(3)
O30 O 0.6679(5) 0.7573(6) 0.4725(3)
O31 O 0.6726(3) 0.9928(4) 0.0799(3)
Cd14 Cd 0.66667(3) 0.76309(2) 0.58159(2)
O37 O 0.6670(3) 0.8326(3) 0.0051(3)
H82 H 0.632854 0.987456 0.0800459
H83 H 0.985875 0.679285 0.0414281
O40 O 0.6679(5) 0.9106(4) 0.9725(3)
H79 H 0.653921 0.997383 0.118139
H79_2 H 0.00261724 0.656538 0.118139
H80 H 0.97615 0.690198 0.0787452
C93_2 C 0.0056(6) 0.1912(4) 0.5773(5)
C95_2 C 0.0303(6) 0.1159(4) 0.5789(4)
C96_2 C 0.0891(6) 0.1598(5) 0.5843(5)
H59_2 H 0.1189 0.1513 0.5883
C97_2 C 0.0995(6) 0.2169(4) 0.5832(6)
H60_2 H 0.1382 0.2465 0.5844
C98_2 C 0.0141(6) 0.0537(4) 0.5801(5)
N23_2 N 0.0606(4) 0.2326(3) 0.5808(4)
N24_2 N 0.0564(4) 0.0411(3) 0.5808(3)
H61_2 H 0.2245 0.0228 0.5744
C100_2 C 0.1447(4) 0.0111(6) 0.5777(5)
H62_2 H 0.1562 0.0503 0.5771
C105_2 C 0.1301(5) 0.3317(3) 0.7030(3)
C106_2 C 0.1453(6) 0.3303(5) 0.7698(4)
C107_2 C 0.1143(6) 0.3323(4) 0.8196(3)
H65_2 H 0.0804 0.3333 0.8114
C108_2 C 0.1294(6) 0.3327(4) 0.8798(3)
H66_2 H 0.1058 0.3341 0.9113
C109_2 C 0.1774(7) 0.3313(5) 0.8961(5)
C110_2 C 0.2079(9) 0.3244(6) 0.8489(7)
H67_2 H 0.2391 0.3192 0.8591
C111_2 C 0.1937(10) 0.3249(7) 0.7839(8)
H68_2 H 0.2161 0.3218 0.7522
C112_2 C 0.1968(7) 0.3332(5) 0.9622(4)
O27_2 O 0.0849(4) 0.3337(3) 0.6911(2)
O28_2 O 0.1616(4) 0.3296(3) 0.6606(2)
O31_2 O 0.0072(4) 0.3274(3) 0.5799(3)
N27 N 0.1610(4) 0.4340(3) 0.5842(3)
H82_2 H 0.0125442 0.367146 0.580046
H83_2 H 0.320715 0.0141248 0.541428
C99_2 C 0.1856(4) 0.9944(6) 0.5773(5)
C101_2 C 0.0856(4) 0.9697(6) 0.5789(4)
C102_2 C 0.0707(4) 0.9109(6) 0.5843(5)
H63_2 H 0.0324 0.8811 0.5883
C103_2 C 0.1174(4) 0.9005(6) 0.5832(6)
H64_2 H 0.1083 0.8618 0.5844
C104_2 C 0.0396(4) 0.9859(6) 0.5801(5)
N25_2 N 0.1720(3) 0.9394(4) 0.5808(4)
C113_2 C 0.2016(4) 0.8699(5) 0.7030(3)
C114_2 C 0.1850(4) 0.8547(6) 0.7698(4)
C115_2 C 0.2180(4) 0.8857(6) 0.8196(3)
H69_2 H 0.2529 0.9196 0.8114
C116_2 C 0.2033(4) 0.8706(6) 0.8798(3)
H70_2 H 0.2283 0.8942 0.9113
C117_2 C 0.1539(5) 0.8226(7) 0.8961(5)
C118_2 C 0.1165(7) 0.7921(9) 0.8489(7)
H71_2 H 0.0801 0.7609 0.8591
C119_2 C 0.1312(7) 0.8063(10) 0.7839(8)
H72_2 H 0.1057 0.7839 0.7522
C120_2 C 0.1364(5) 0.8032(7) 0.9622(4)
O32_2 O 0.2488(2) 0.9151(4) 0.6911(2)
O33_2 O 0.1680(2) 0.8384(4) 0.6606(2)
O36_2 O 0.3202(2) 0.9928(4) 0.5799(3)
N28 N 0.2730(3) 0.8390(4) 0.5842(3)
H84_2 H 0.354602 0.987456 0.580046
C61_2 C 0.5249(3) 0.6714(3) 0.5783(4)
H37_2 H 0.5357 0.6432 0.5743
C62_2 C 0.4666(4) 0.6549(4) 0.5780(5)
H38_2 H 0.4387 0.6157 0.5753
C63_2 C 0.4490(4) 0.6964(4) 0.5816(4)
C64_2 C 0.4946(4) 0.7540(3) 0.5867(5)
H39_2 H 0.4864 0.7841 0.5890
C65_2 C 0.5513(4) 0.7661(5) 0.5884(6)
H40_2 H 0.5806 0.8046 0.5928
C66_2 C 0.3867(3) 0.6772(3) 0.5803(4)
C67_2 C 0.8088(4) 0.8144(4) 0.5773(5)
H41_2 H 0.7983 0.7755 0.5744
C68_2 C 0.8664(4) 0.8553(4) 0.5777(5)
H42_2 H 0.8941 0.8438 0.5771
C69_2 C 0.8841(4) 0.9144(4) 0.5789(4)
C70_2 C 0.8402(5) 0.9293(4) 0.5843(5)
H43_2 H 0.8487 0.9676 0.5883
C71_2 C 0.7831(4) 0.8826(4) 0.5832(6)
H44_2 H 0.7535 0.8917 0.5844
C72_2 C 0.9463(4) 0.9604(4) 0.5801(5)
C73_2 C 0.6683(3) 0.7984(4) 0.7030(3)
C74_2 C 0.6697(5) 0.8150(4) 0.7698(4)
C75_2 C 0.6677(4) 0.7820(4) 0.8196(3)
H45_2 H 0.6667 0.7471 0.8114
C76_2 C 0.6673(4) 0.7967(4) 0.8798(3)
H46_2 H 0.6659 0.7717 0.9113
C77_2 C 0.6687(5) 0.8461(5) 0.8961(5)
C78_2 C 0.6756(6) 0.8835(7) 0.8489(7)
H47_2 H 0.6808 0.9199 0.8591
C79_2 C 0.6751(7) 0.8688(7) 0.7839(8)
H48_2 H 0.6782 0.8943 0.7522
C80_2 C 0.6668(5) 0.8636(5) 0.9622(4)
N15_2 N 0.5660(3) 0.7270(3) 0.5842(3)
N16_2 N 0.3440(3) 0.6219(3) 0.5807(3)
N17_2 N 0.7674(3) 0.8280(3) 0.5808(4)
O22_2 O 0.6663(3) 0.7512(2) 0.6911(2)
O23_2 O 0.6704(3) 0.8320(2) 0.6606(2)
O26_2 O 0.6726(3) 0.6798(2) 0.5799(3)
C81_2 C 0.1465(4) 0.4751(3) 0.5783(4)
H49_2 H 0.1075 0.4643 0.5743
C82_2 C 0.1883(6) 0.5334(4) 0.5780(5)
H50_2 H 0.1770 0.5613 0.5753
C83_2 C 0.2474(6) 0.5510(4) 0.5816(4)
C84_2 C 0.2594(5) 0.5054(4) 0.5867(5)
H51_2 H 0.2977 0.5136 0.5890
C85_2 C 0.2148(6) 0.4487(4) 0.5884(6)
H52_2 H 0.2240 0.4194 0.5928
C86_2 C 0.2905(4) 0.6133(3) 0.5803(4)
N20_2 N 0.2779(4) 0.6560(3) 0.5807(3)
C87_2 C 0.3286(3) 0.8535(4) 0.5783(4)
H53_2 H 0.3568 0.8925 0.5743
C88_2 C 0.3451(4) 0.8117(6) 0.5780(5)
H54_2 H 0.3843 0.8230 0.5753
C89_2 C 0.3036(4) 0.7526(6) 0.5816(4)
C90_2 C 0.2460(3) 0.7406(5) 0.5867(5)
H55_2 H 0.2159 0.7023 0.5890
C91_2 C 0.2339(5) 0.7852(6) 0.5884(6)
H56_2 H 0.1954 0.7760 0.5928
C92_2 C 0.3228(3) 0.7095(4) 0.5803(4)
N22_2 N 0.3781(3) 0.7221(4) 0.5807(3)
N26_2 N 0.9847(3) 0.9436(4) 0.5808(3)
H80_2 H 0.309802 0.0238495 0.578745
H79_3 H 0.343462 0.997383 0.618139
H79_4 H 0.00261724 0.346079 0.618139
N18 N 0.9847(3) 0.0411(3) 0.0808(3)
H57 H 0.7983 0.0228 0.0744
C94 C 0.8664(4) 0.0111(6) 0.0777(5)
H58 H 0.8941 0.0503 0.0771
H81 H 0.69341 0.0141248 0.0414281
H80_3 H 0.714047 0.0238495 0.0787452
Cd9_2 Cd 0.33333(3) 0.23691(2) 0.41841(2)
C61_3 C 0.4751(3) 0.3286(3) 0.4217(4)
H37_3 H 0.4643 0.3568 0.4257
C62_3 C 0.5334(4) 0.3451(4) 0.4220(5)
H38_3 H 0.5613 0.3843 0.4247
C63_3 C 0.5510(4) 0.3036(4) 0.4184(4)
C64_3 C 0.5054(4) 0.2460(3) 0.4133(5)
H39_3 H 0.5136 0.2159 0.4110
C65_3 C 0.4487(4) 0.2339(5) 0.4116(6)
H40_3 H 0.4194 0.1954 0.4072
C66_3 C 0.6133(3) 0.3228(3) 0.4197(4)
C67_3 C 0.1912(4) 0.1856(4) 0.4227(5)
H41_3 H 0.2017 0.2245 0.4256
C68_3 C 0.1336(4) 0.1447(4) 0.4223(5)
H42_3 H 0.1059 0.1562 0.4229
C69_3 C 0.1159(4) 0.0856(4) 0.4211(4)
C70_3 C 0.1598(5) 0.0707(4) 0.4157(5)
H43_3 H 0.1513 0.0324 0.4117
C71_3 C 0.2169(4) 0.1174(4) 0.4168(6)
H44_3 H 0.2465 0.1083 0.4156
C72_3 C 0.0537(4) 0.0396(4) 0.4199(5)
C73_3 C 0.3317(3) 0.2016(4) 0.2970(3)
C74_3 C 0.3303(5) 0.1850(4) 0.2302(4)
C75_3 C 0.3323(4) 0.2180(4) 0.1804(3)
H45_3 H 0.3333 0.2529 0.1886
C76_3 C 0.3327(4) 0.2033(4) 0.1202(3)
H46_3 H 0.3341 0.2283 0.0887
C77_3 C 0.3313(5) 0.1539(5) 0.1039(5)
C78_3 C 0.3244(6) 0.1165(7) 0.1511(7)
H47_3 H 0.3192 0.0801 0.1409
C79_3 C 0.3249(7) 0.1312(7) 0.2161(8)
H48_3 H 0.3218 0.1057 0.2478
C80_3 C 0.3332(5) 0.1364(5) 0.0378(4)
N15_3 N 0.4340(3) 0.2730(3) 0.4158(3)
N16_3 N 0.6560(3) 0.3781(3) 0.4193(3)
N17_3 N 0.2326(3) 0.1720(3) 0.4192(4)
O22_3 O 0.3337(3) 0.2488(2) 0.3089(2)
O23_3 O 0.3296(3) 0.1680(2) 0.3394(2)
O25_2 O 0.3321(5) 0.0894(4) 0.0275(3)
O26_3 O 0.3274(3) 0.3202(2) 0.4201(3)
C81_3 C 0.8535(4) 0.5249(3) 0.4217(4)
H49_3 H 0.8925 0.5357 0.4257
C82_3 C 0.8117(6) 0.4666(4) 0.4220(5)
H50_3 H 0.8230 0.4387 0.4247
C83_3 C 0.7526(6) 0.4490(4) 0.4184(4)
C84_3 C 0.7406(5) 0.4946(4) 0.4133(5)
H51_3 H 0.7023 0.4864 0.4110
C85_3 C 0.7852(6) 0.5513(4) 0.4116(6)
H52_3 H 0.7760 0.5806 0.4072
C86_3 C 0.7095(4) 0.3867(3) 0.4197(4)
N19_2 N 0.8390(4) 0.5660(3) 0.4158(3)
N20_3 N 0.7221(4) 0.3440(3) 0.4193(3)
C87_3 C 0.6714(3) 0.1465(4) 0.4217(4)
H53_3 H 0.6432 0.1075 0.4257
C88_3 C 0.6549(4) 0.1883(6) 0.4220(5)
H54_3 H 0.6157 0.1770 0.4247
C89_3 C 0.6964(4) 0.2474(6) 0.4184(4)
C90_3 C 0.7540(3) 0.2594(5) 0.4133(5)
H55_3 H 0.7841 0.2977 0.4110
C91_3 C 0.7661(5) 0.2148(6) 0.4116(6)
H56_3 H 0.8046 0.2240 0.4072
C92_3 C 0.6772(3) 0.2905(4) 0.4197(4)
N21_2 N 0.7270(3) 0.1610(4) 0.4158(3)
N22_3 N 0.6219(3) 0.2779(4) 0.4193(3)
N26_3 N 0.0153(3) 0.0564(4) 0.4192(3)
Cd12_2 Cd 0.90358(4) 0.66667(3) 0.41841(2)
Cd13_2 Cd 0.76309(2) 0.09642(4) 0.41841(2)
O39_2 O 0.3330(3) 0.1656(4) 0.4949(3)
O42_2 O 0.3321(5) 0.2427(6) 0.5275(3)
O24_2 O 0.3330(3) 0.1674(3) 0.9949(3)
Cd16_2 Cd 0.33333(3) 0.09642(4) 0.91841(2)
C99_3 C 0.8144(4) 0.0056(6) 0.4227(5)
C101_3 C 0.9144(4) 0.0303(6) 0.4211(4)
C102_3 C 0.9293(4) 0.0891(6) 0.4157(5)
H63_3 H 0.9676 0.1189 0.4117
C103_3 C 0.8826(4) 0.0995(6) 0.4168(6)
H64_3 H 0.8917 0.1382 0.4156
C104_3 C 0.9604(4) 0.0141(6) 0.4199(5)
N25_3 N 0.8280(3) 0.0606(4) 0.4192(4)
C113_3 C 0.7984(4) 0.1301(5) 0.2970(3)
C114_3 C 0.8150(4) 0.1453(6) 0.2302(4)
C115_3 C 0.7820(4) 0.1143(6) 0.1804(3)
H69_3 H 0.7471 0.0804 0.1886
C116_3 C 0.7967(4) 0.1294(6) 0.1202(3)
H70_3 H 0.7717 0.1058 0.0887
C117_3 C 0.8461(5) 0.1774(7) 0.1039(5)
C118_3 C 0.8835(7) 0.2079(9) 0.1511(7)
H71_3 H 0.9199 0.2391 0.1409
C119_3 C 0.8688(7) 0.1937(10) 0.2161(8)
H72_3 H 0.8943 0.2161 0.2478
C120_3 C 0.8636(5) 0.1968(7) 0.0378(4)
O32_3 O 0.7512(2) 0.0849(4) 0.3089(2)
O33_3 O 0.8320(2) 0.1616(4) 0.3394(2)
O35_2 O 0.9106(4) 0.2427(6) 0.0275(3)
O36_3 O 0.6798(2) 0.0072(4) 0.4201(3)
O38_2 O 0.8344(4) 0.1674(3) 0.4949(3)
O41_2 O 0.7573(6) 0.0894(4) 0.5275(3)
H84_3 H 0.645398 0.0125442 0.419954
O34_2 O 0.8326(3) 0.1656(4) 0.9949(3)
Cd15_2 Cd 0.90358(4) 0.23691(2) 0.91841(2)
C93_3 C 0.9944(6) 0.8088(4) 0.4227(5)
C95_3 C 0.9697(6) 0.8841(4) 0.4211(4)
C96_3 C 0.9109(6) 0.8402(5) 0.4157(5)
H59_3 H 0.8811 0.8487 0.4117
C97_3 C 0.9005(6) 0.7831(4) 0.4168(6)
H60_3 H 0.8618 0.7535 0.4156
C98_3 C 0.9859(6) 0.9463(4) 0.4199(5)
N23_3 N 0.9394(4) 0.7674(3) 0.4192(4)
N24_3 N 0.9436(4) 0.9589(3) 0.4192(3)
H61_3 H 0.7755 0.9772 0.4256
C100_3 C 0.8553(4) 0.9889(6) 0.4223(5)
H62_3 H 0.8438 0.9497 0.4229
C105_3 C 0.8699(5) 0.6683(3) 0.2970(3)
C106_3 C 0.8547(6) 0.6697(5) 0.2302(4)
C107_3 C 0.8857(6) 0.6677(4) 0.1804(3)
H65_3 H 0.9196 0.6667 0.1886
C108_3 C 0.8706(6) 0.6673(4) 0.1202(3)
H66_3 H 0.8942 0.6659 0.0887
C109_3 C 0.8226(7) 0.6687(5) 0.1039(5)
C110_3 C 0.7921(9) 0.6756(6) 0.1511(7)
H67_3 H 0.7609 0.6808 0.1409
C111_3 C 0.8063(10) 0.6751(7) 0.2161(8)
H68_3 H 0.7839 0.6782 0.2478
C112_3 C 0.8032(7) 0.6668(5) 0.0378(4)
O27_3 O 0.9151(4) 0.6663(3) 0.3089(2)
O28_3 O 0.8384(4) 0.6704(3) 0.3394(2)
O30_2 O 0.7573(6) 0.6679(5) 0.0275(3)
O31_3 O 0.9928(4) 0.6726(3) 0.4201(3)
O37_2 O 0.8326(3) 0.6670(3) 0.4949(3)
O40_2 O 0.9106(4) 0.6679(5) 0.5275(3)
H82_3 H 0.987456 0.632854 0.419954
H83_3 H 0.679285 0.985875 0.458572
O29_2 O 0.8344(4) 0.6670(3) 0.9949(3)
Cd14_2 Cd 0.76309(2) 0.66667(3) 0.91841(2)
H79_5 H 0.656538 0.00261724 0.381861
H80_4 H 0.690198 0.97615 0.421255
H79_6 H 0.997383 0.653921 0.381861
C93_4 C 0.1912(4) 0.0056(6) 0.9227(5)
C95_4 C 0.1159(4) 0.0303(6) 0.9211(4)
C96_4 C 0.1598(5) 0.0891(6) 0.9157(5)
H59_4 H 0.1513 0.1189 0.9117
C97_4 C 0.2169(4) 0.0995(6) 0.9168(6)
H60_4 H 0.2465 0.1382 0.9156
C98_4 C 0.0537(4) 0.0141(6) 0.9199(5)
N23_4 N 0.2326(3) 0.0606(4) 0.9192(4)
N24_4 N 0.0411(3) 0.0564(4) 0.9192(3)
H61_4 H 0.0228 0.2245 0.9256
C100_4 C 0.0111(6) 0.1447(4) 0.9223(5)
H62_4 H 0.0503 0.1562 0.9229
C105_4 C 0.3317(3) 0.1301(5) 0.7970(3)
C106_4 C 0.3303(5) 0.1453(6) 0.7302(4)
C107_4 C 0.3323(4) 0.1143(6) 0.6804(3)
H65_4 H 0.3333 0.0804 0.6886
C108_4 C 0.3327(4) 0.1294(6) 0.6202(3)
H66_4 H 0.3341 0.1058 0.5887
C109_4 C 0.3313(5) 0.1774(7) 0.6039(5)
C110_4 C 0.3244(6) 0.2079(9) 0.6511(7)
H67_4 H 0.3192 0.2391 0.6409
C111_4 C 0.3249(7) 0.1937(10) 0.7161(8)
H68_4 H 0.3218 0.2161 0.7478
C112_4 C 0.3332(5) 0.1968(7) 0.5378(4)
O27_4 O 0.3337(3) 0.0849(4) 0.8089(2)
O28_4 O 0.3296(3) 0.1616(4) 0.8394(2)
O31_4 O 0.3274(3) 0.0072(4) 0.9201(3)
N27_2 N 0.4340(3) 0.1610(4) 0.9158(3)
H82_4 H 0.367146 0.0125442 0.919954
H83_4 H 0.0141248 0.320715 0.958572
C99_4 C 0.9944(6) 0.1856(4) 0.9227(5)
C101_4 C 0.9697(6) 0.0856(4) 0.9211(4)
C102_4 C 0.9109(6) 0.0707(4) 0.9157(5)
H63_4 H 0.8811 0.0324 0.9117
C103_4 C 0.9005(6) 0.1174(4) 0.9168(6)
H64_4 H 0.8618 0.1083 0.9156
C104_4 C 0.9859(6) 0.0396(4) 0.9199(5)
N25_4 N 0.9394(4) 0.1720(3) 0.9192(4)
C113_4 C 0.8699(5) 0.2016(4) 0.7970(3)
C114_4 C 0.8547(6) 0.1850(4) 0.7302(4)
C115_4 C 0.8857(6) 0.2180(4) 0.6804(3)
H69_4 H 0.9196 0.2529 0.6886
C116_4 C 0.8706(6) 0.2033(4) 0.6202(3)
H70_4 H 0.8942 0.2283 0.5887
C117_4 C 0.8226(7) 0.1539(5) 0.6039(5)
C118_4 C 0.7921(9) 0.1165(7) 0.6511(7)
H71_4 H 0.7609 0.0801 0.6409
C119_4 C 0.8063(10) 0.1312(7) 0.7161(8)
H72_4 H 0.7839 0.1057 0.7478
C120_4 C 0.8032(7) 0.1364(5) 0.5378(4)
O32_4 O 0.9151(4) 0.2488(2) 0.8089(2)
O33_4 O 0.8384(4) 0.1680(2) 0.8394(2)
O36_4 O 0.9928(4) 0.3202(2) 0.9201(3)
N28_2 N 0.8390(4) 0.2730(3) 0.9158(3)
H84_4 H 0.987456 0.354602 0.919954
C61_4 C 0.6714(3) 0.5249(3) 0.9217(4)
H37_4 H 0.6432 0.5357 0.9257
C62_4 C 0.6549(4) 0.4666(4) 0.9220(5)
H38_4 H 0.6157 0.4387 0.9247
C63_4 C 0.6964(4) 0.4490(4) 0.9184(4)
C64_4 C 0.7540(3) 0.4946(4) 0.9133(5)
H39_4 H 0.7841 0.4864 0.9110
C65_4 C 0.7661(5) 0.5513(4) 0.9116(6)
H40_4 H 0.8046 0.5806 0.9072
C66_4 C 0.6772(3) 0.3867(3) 0.9197(4)
C67_4 C 0.8144(4) 0.8088(4) 0.9227(5)
H41_4 H 0.7755 0.7983 0.9256
C68_4 C 0.8553(4) 0.8664(4) 0.9223(5)
H42_4 H 0.8438 0.8941 0.9229
C69_4 C 0.9144(4) 0.8841(4) 0.9211(4)
C70_4 C 0.9293(4) 0.8402(5) 0.9157(5)
H43_4 H 0.9676 0.8487 0.9117
C71_4 C 0.8826(4) 0.7831(4) 0.9168(6)
H44_4 H 0.8917 0.7535 0.9156
C72_4 C 0.9604(4) 0.9463(4) 0.9199(5)
C73_4 C 0.7984(4) 0.6683(3) 0.7970(3)
C74_4 C 0.8150(4) 0.6697(5) 0.7302(4)
C75_4 C 0.7820(4) 0.6677(4) 0.6804(3)
H45_4 H 0.7471 0.6667 0.6886
C76_4 C 0.7967(4) 0.6673(4) 0.6202(3)
H46_4 H 0.7717 0.6659 0.5887
C77_4 C 0.8461(5) 0.6687(5) 0.6039(5)
C78_4 C 0.8835(7) 0.6756(6) 0.6511(7)
H47_4 H 0.9199 0.6808 0.6409
C79_4 C 0.8688(7) 0.6751(7) 0.7161(8)
H48_4 H 0.8943 0.6782 0.7478
C80_4 C 0.8636(5) 0.6668(5) 0.5378(4)
N15_4 N 0.7270(3) 0.5660(3) 0.9158(3)
N16_4 N 0.6219(3) 0.3440(3) 0.9193(3)
N17_4 N 0.8280(3) 0.7674(3) 0.9192(4)
O22_4 O 0.7512(2) 0.6663(3) 0.8089(2)
O23_4 O 0.8320(2) 0.6704(3) 0.8394(2)
O26_4 O 0.6798(2) 0.6726(3) 0.9201(3)
C81_4 C 0.4751(3) 0.1465(4) 0.9217(4)
H49_4 H 0.4643 0.1075 0.9257
C82_4 C 0.5334(4) 0.1883(6) 0.9220(5)
H50_4 H 0.5613 0.1770 0.9247
C83_4 C 0.5510(4) 0.2474(6) 0.9184(4)
C84_4 C 0.5054(4) 0.2594(5) 0.9133(5)
H51_4 H 0.5136 0.2977 0.9110
C85_4 C 0.4487(4) 0.2148(6) 0.9116(6)
H52_4 H 0.4194 0.2240 0.9072
C86_4 C 0.6133(3) 0.2905(4) 0.9197(4)
N20_4 N 0.6560(3) 0.2779(4) 0.9193(3)
C87_4 C 0.8535(4) 0.3286(3) 0.9217(4)
H53_4 H 0.8925 0.3568 0.9257
C88_4 C 0.8117(6) 0.3451(4) 0.9220(5)
H54_4 H 0.8230 0.3843 0.9247
C89_4 C 0.7526(6) 0.3036(4) 0.9184(4)
C90_4 C 0.7406(5) 0.2460(3) 0.9133(5)
H55_4 H 0.7023 0.2159 0.9110
C91_4 C 0.7852(6) 0.2339(5) 0.9116(6)
H56_4 H 0.7760 0.1954 0.9072
C92_4 C 0.7095(4) 0.3228(3) 0.9197(4)
N22_4 N 0.7221(4) 0.3781(3) 0.9193(3)
N26_4 N 0.9436(4) 0.9847(3) 0.9192(3)
H79_7 H 0.346079 0.00261724 0.881861
H80_5 H 0.0238495 0.309802 0.921255
H79_8 H 0.997383 0.343462 0.881861
N18_2 N 0.0411(3) 0.9847(3) 0.4192(3)
H57_2 H 0.0228 0.7983 0.4256
C94_2 C 0.0111(6) 0.8664(4) 0.4223(5)
H58_2 H 0.0503 0.8941 0.4229
H81_2 H 0.0141248 0.69341 0.458572
H80_6 H 0.0238495 0.714047 0.421255
N18_3 N 0.0153(3) 0.9589(3) 0.9192(3)
H57_3 H 0.2017 0.9772 0.9256
C94_3 C 0.1336(4) 0.9889(6) 0.9223(5)
H58_3 H 0.1059 0.9497 0.9229
H81_3 H 0.30659 0.985875 0.958572
H80_7 H 0.285953 0.97615 0.921255
N18_4 N 0.9589(3) 0.0153(3) 0.5808(3)
H57_4 H 0.9772 0.2017 0.5744
C94_4 C 0.9889(6) 0.1336(4) 0.5777(5)
H58_4 H 0.9497 0.1059 0.5771
H81_4 H 0.985875 0.30659 0.541428
H80_8 H 0.97615 0.285953 0.578745
loop_
_geom_bond_atom_site_label_1
_geom_bond_atom_site_label_2
_geom_bond_site_symmetry_1
_geom_bond_site_symmetry_2
C37 H21 1_555 1_555
O13 Cd3 1_555 1_555
N14 Cd3 1_555 1_555
O18 Cd3 1_555 1_555
O21 Cd3 1_555 1_555
O13 H78 1_555 1_555
C39 C40 1_555 1_555
H24 C42 1_555 1_555
O14 C39 1_555 1_555
O15 C39 1_555 1_555
Cd8 O14 1_555 1_555
C40 C42 1_555 1_555
O15 Cd8 1_555 1_555
Cd1 N1 1_555 1_555
C1 H1 1_555 1_555
C2 C1 1_555 1_555
H2 C2 1_555 1_555
C3 C2 1_555 1_555
C4 C3 1_555 1_555
H3 C4 1_555 1_555
C5 C4 1_555 1_555
H4 C5 1_555 1_555
C6 C3 1_555 1_555
C7 C8 1_555 1_555
C8 C9 1_555 1_555
C9 H5 1_555 1_555
C10 C8 1_555 1_555
H6 C10 1_555 1_555
N1 C1 1_555 1_555
N2 C6 1_555 1_555
O1 Cd1 1_555 1_555
O2 Cd1 1_555 1_555
O3 Cd1 1_555 1_555
C11 H7 1_555 1_555
C12 C11 1_555 1_555
H8 C12 1_555 1_555
C13 C12 1_555 1_555
C14 C13 1_555 1_555
H9 C14 1_555 1_555
C15 C14 1_555 1_555
H10 C15 1_555 1_555
C16 C13 1_555 1_555
N3 C11 1_555 1_555
N4 C6 1_555 1_555
C17 H11 1_555 1_555
C18 C17 1_555 1_555
H12 C18 1_555 1_555
C19 C18 1_555 1_555
C20 C19 1_555 1_555
H13 C20 1_555 1_555
C21 C20 1_555 1_555
H14 C21 1_555 1_555
C22 N2 1_555 1_555
N5 C17 1_555 1_555
N6 C16 1_555 1_555
Cd4 N3 1_555 1_555
C27 C28 1_555 1_555
C30 C28 1_555 1_555
H18 C30 1_555 1_555
O6 Cd4 1_555 1_555
O7 Cd4 1_555 1_555
O8 Cd4 1_555 1_555
Cd3_2 N5 1_555 1_555
C35 C36 1_555 1_555
C38 C36 1_555 1_555
H22 C38 1_555 1_555
O11 Cd3_2 1_555 1_555
O12 Cd3_2 1_555 1_555
O13_2 Cd3_2 1_555 1_555
C43 H25 1_555 1_555
C44 C43 1_555 1_555
H26 C44 1_555 1_555
C45 C44 1_555 1_555
C46 C45 1_555 1_555
H27 C46 1_555 1_555
C47 C46 1_555 1_555
H28 C47 1_555 1_555
C48 C45 1_555 1_555
N7 Cd1 1_555 1_555
N8 C48 1_555 1_555
C49 H29 1_555 1_555
C50 C49 1_555 1_555
H30 C50 1_555 1_555
C51 C50 1_555 1_555
C52 C51 1_555 1_555
H31 C52 1_555 1_555
C53 C52 1_555 1_555
H32 C53 1_555 1_555
C54 C51 1_555 1_555
N14 C49 1_555 1_555
N10 C48 1_555 1_555
C55 H33 1_555 1_555
C56 C55 1_555 1_555
H34 C56 1_555 1_555
C57 C56 1_555 1_555
C58 C57 1_555 1_555
H35 C58 1_555 1_555
C59 C58 1_555 1_555
H36 C59 1_555 1_555
C60 N8 1_555 1_555
N11 C55 1_555 1_555
N12 C54 1_555 1_555
Cd4_2 N11 1_555 1_555
O16 Cd1 1_555 1_555
O19 Cd1 1_555 1_555
C5 N1 1_555 1_555
C7 O1 1_555 1_555
C7 O2 1_555 1_555
C15 N3 1_555 1_555
C16 N4 1_555 1_555
C19 C22 1_555 1_555
C21 N5 1_555 1_555
C22 N6 1_555 1_555
C27 O6 1_555 1_555
C27 O7 1_555 1_555
C35 O11 1_555 1_555
C35 O12 1_555 1_555
C43 N7 1_555 1_555
C47 N7 1_555 1_555
C53 N14 1_555 1_555
C54 N10 1_555 1_555
C57 C60 1_555 1_555
C59 N11 1_555 1_555
C60 N12 1_555 1_555
O8 H75 1_555 1_555
O13_2 H77 1_555 1_555
C23 C24 1_555 1_555
C24 C25 1_555 1_555
H15 C25 1_555 1_555
H16 C26 1_555 1_555
O4 C23 1_555 1_555
O5 C23 1_555 1_555
H19 C33 1_555 1_555
H23 C41 1_555 1_555
Cd6 O4 1_555 1_555
C24 C26 1_555 1_555
O5 Cd6 1_555 1_555
C29 H17 1_555 1_555
O8_2 Cd4_2 1_555 1_555
O17 Cd4_2 1_555 1_555
O20 Cd4_2 1_555 1_555
O8_2 H76 1_555 1_555
C31 C32 1_555 1_555
H20 C34 1_555 1_555
O9 C31 1_555 1_555
O10 C31 1_555 1_555
Cd7_2 O9 1_555 1_555
C32 C34 1_555 1_555
O10 Cd7_2 1_555 1_555
C37_2 H21_2 1_555 1_555
C39_2 C40_2 1_555 1_555
C42_2 C37_2 1_555 1_555
H24_2 C42_2 1_555 1_555
O14_2 C39_2 1_555 1_555
O15_2 C39_2 1_555 1_555
Cd7 O14_2 1_555 1_555
C40_2 C42_2 1_555 1_555
O15_2 Cd7 1_555 1_555
O8 H78_2 1_555 1_555
C7_2 C8_2 1_555 1_555
C8_2 C9_2 1_555 1_555
C9_2 H5_2 1_555 1_555
C10_2 C8_2 1_555 1_555
H6_2 C10_2 1_555 1_555
C23_2 C24_2 1_555 1_555
C24_2 C25_2 1_555 1_555
C25_2 C10_2 1_555 1_555
H15_2 C25_2 1_555 1_555
C26_2 C9_2 1_555 1_555
H16_2 C26_2 1_555 1_555
O4_2 C23_2 1_555 1_555
O5_2 C23_2 1_555 1_555
C27_2 C28_2 1_555 1_555
C30_2 C28_2 1_555 1_555
H18_2 C30_2 1_555 1_555
C33_2 C30_2 1_555 1_555
H19_2 C33_2 1_555 1_555
C35_2 C36_2 1_555 1_555
C38_2 C36_2 1_555 1_555
H22_2 C38_2 1_555 1_555
C41_2 C38_2 1_555 1_555
H23_2 C41_2 1_555 1_555
Cd6 O4_2 1_555 1_555
C7_2 O16 1_555 1_555
C7_2 O19 1_555 1_555
C24_2 C26_2 1_555 1_555
O5_2 Cd6 1_555 1_555
C27_2 O18 1_555 1_555
C27_2 O21 1_555 1_555
C35_2 O17 1_555 1_555
C35_2 O20 1_555 1_555
O13 H75_2 1_555 1_555
O8_2 H77_2 1_555 1_555
C29_2 H17_2 1_555 1_555
C31_2 C32_2 1_555 1_555
C34_2 C29_2 1_555 1_555
H20_2 C34_2 1_555 1_555
O9_2 C31_2 1_555 1_555
O10_2 C31_2 1_555 1_555
Cd8_2 O9_2 1_555 1_555
C32_2 C34_2 1_555 1_555
O10_2 Cd8_2 1_555 1_555
O13_2 H76_2 1_555 1_555
O8_3 Cd7 1_555 1_555
N13 Cd7 1_555 1_555
O8_3 H76_3 1_555 1_555
Cd6 N1_2 1_555 1_555
C1_2 H1_2 1_555 1_555
C2_2 C1_2 1_555 1_555
H2_2 C2_2 1_555 1_555
C3_2 C2_2 1_555 1_555
C4_2 C3_2 1_555 1_555
H3_2 C4_2 1_555 1_555
C5_2 C4_2 1_555 1_555
H4_2 C5_2 1_555 1_555
C6_2 C3_2 1_555 1_555
N1_2 C1_2 1_555 1_555
N2_2 C6_2 1_555 1_555
O3_2 Cd6 1_555 1_555
C11_2 H7_2 1_555 1_555
C12_2 C11_2 1_555 1_555
H8_2 C12_2 1_555 1_555
C13_2 C12_2 1_555 1_555
C14_2 C13_2 1_555 1_555
H9_2 C14_2 1_555 1_555
C15_2 C14_2 1_555 1_555
H10_2 C15_2 1_555 1_555
C16_2 C13_2 1_555 1_555
N3_2 C11_2 1_555 1_555
N4_2 C6_2 1_555 1_555
C17_2 H11_2 1_555 1_555
C18_2 C17_2 1_555 1_555
H12_2 C18_2 1_555 1_555
C19_2 C18_2 1_555 1_555
C20_2 C19_2 1_555 1_555
H13_2 C20_2 1_555 1_555
C21_2 C20_2 1_555 1_555
H14_2 C21_2 1_555 1_555
C22_2 N2_2 1_555 1_555
N5_2 C17_2 1_555 1_555
N6_2 C16_2 1_555 1_555
Cd7_2 N3_2 1_555 1_555
O8_4 Cd7_2 1_555 1_555
Cd8 N5_2 1_555 1_555
O13_3 Cd8 1_555 1_555
C43_2 H25_2 1_555 1_555
C44_2 C43_2 1_555 1_555
H26_2 C44_2 1_555 1_555
C45_2 C44_2 1_555 1_555
C46_2 C45_2 1_555 1_555
H27_2 C46_2 1_555 1_555
C47_2 C46_2 1_555 1_555
H28_2 C47_2 1_555 1_555
C48_2 C45_2 1_555 1_555
N7_2 Cd6 1_555 1_555
N8_2 C48_2 1_555 1_555
C49_2 H29_2 1_555 1_555
C50_2 C49_2 1_555 1_555
H30_2 C50_2 1_555 1_555
C51_2 C50_2 1_555 1_555
C52_2 C51_2 1_555 1_555
H31_2 C52_2 1_555 1_555
C53_2 C52_2 1_555 1_555
H32_2 C53_2 1_555 1_555
C54_2 C51_2 1_555 1_555
N9 C49_2 1_555 1_555
N10_2 C48_2 1_555 1_555
C55_2 H33_2 1_555 1_555
C56_2 C55_2 1_555 1_555
H34_2 C56_2 1_555 1_555
C57_2 C56_2 1_555 1_555
C58_2 C57_2 1_555 1_555
H35_2 C58_2 1_555 1_555
C59_2 C58_2 1_555 1_555
H36_2 C59_2 1_555 1_555
C60_2 N8_2 1_555 1_555
N13 C55_2 1_555 1_555
N12_2 C54_2 1_555 1_555
Cd8_2 N9 1_555 1_555
C5_2 N1_2 1_555 1_555
C15_2 N3_2 1_555 1_555
C16_2 N4_2 1_555 1_555
C19_2 C22_2 1_555 1_555
C21_2 N5_2 1_555 1_555
C22_2 N6_2 1_555 1_555
C43_2 N7_2 1_555 1_555
C47_2 N7_2 1_555 1_555
C53_2 N9 1_555 1_555
C54_2 N10_2 1_555 1_555
C57_2 C60_2 1_555 1_555
C59_2 N13 1_555 1_555
C60_2 N12_2 1_555 1_555
O8_4 H75_3 1_555 1_555
O13_3 H77_3 1_555 1_555
O13_4 Cd8_2 1_555 1_555
O13_4 H78_3 1_555 1_555
O13_3 H76_4 1_555 1_555
O13_4 H75_4 1_555 1_555
O8_3 H77_4 1_555 1_555
O8_4 H78_4 1_555 1_555
Cd9 N15 1_555 1_555
C61 H37 1_555 1_555
C62 C61 1_555 1_555
H38 C62 1_555 1_555
C63 C62 1_555 1_555
C64 C63 1_555 1_555
H39 C64 1_555 1_555
C65 C64 1_555 1_555
H40 C65 1_555 1_555
C66 C63 1_555 1_555
C67 H41 1_555 1_555
C68 C67 1_555 1_555
H42 C68 1_555 1_555
C69 C68 1_555 1_555
C70 C69 1_555 1_555
H43 C70 1_555 1_555
C71 C70 1_555 1_555
H44 C71 1_555 1_555
C72 C69 1_555 1_555
C73 C74 1_555 1_555
C74 C75 1_555 1_555
C75 H45 1_555 1_555
C76 C75 1_555 1_555
H46 C76 1_555 1_555
C77 C76 1_555 1_555
C78 C77 1_555 1_555
H47 C78 1_555 1_555
C79 C74 1_555 1_555
H48 C79 1_555 1_555
C80 C77 1_555 1_555
N15 C61 1_555 1_555
N16 C66 1_555 1_555
N17 Cd9 1_555 1_555
O22 Cd9 1_555 1_555
O23 Cd9 1_555 1_555
O24 C80 1_555 1_555
O25 C80 1_555 1_555
O26 Cd9 1_555 1_555
C81 H49 1_555 1_555
C82 C81 1_555 1_555
H50 C82 1_555 1_555
C83 C82 1_555 1_555
C84 C83 1_555 1_555
H51 C84 1_555 1_555
C85 C84 1_555 1_555
H52 C85 1_555 1_555
C86 N16 1_555 1_555
N19 C81 1_555 1_555
N20 C86 1_555 1_555
C87 H53 1_555 1_555
C88 C87 1_555 1_555
H54 C88 1_555 1_555
C89 C88 1_555 1_555
C90 C89 1_555 1_555
H55 C90 1_555 1_555
C91 C90 1_555 1_555
H56 C91 1_555 1_555
C92 N20 1_555 1_555
N21 C87 1_555 1_555
N22 C66 1_555 1_555
N26 C72 1_555 1_555
Cd12 N19 1_555 1_555
Cd13 N21 1_555 1_555
Cd16 O24 1_555 1_555
O39 Cd9 1_555 1_555
C65 N15 1_555 1_555
C67 N17 1_555 1_555
C71 N17 1_555 1_555
C73 O22 1_555 1_555
C73 O23 1_555 1_555
C78 C79 1_555 1_555
O25 Cd16 1_555 1_555
C83 C86 1_555 1_555
C85 N19 1_555 1_555
C89 C92 1_555 1_555
C91 N21 1_555 1_555
C92 N22 1_555 1_555
C102 C101 1_555 1_555
H63 C102 1_555 1_555
C103 C102 1_555 1_555
H64 C103 1_555 1_555
N25 C99 1_555 1_555
Cd13 N25 1_555 1_555
C113 C114 1_555 1_555
C114 C115 1_555 1_555
C115 H69 1_555 1_555
C116 C115 1_555 1_555
H70 C116 1_555 1_555
C117 C116 1_555 1_555
C118 C117 1_555 1_555
H71 C118 1_555 1_555
C119 C114 1_555 1_555
H72 C119 1_555 1_555
C120 C117 1_555 1_555
O32 Cd13 1_555 1_555
O33 Cd13 1_555 1_555
O34 C120 1_555 1_555
O35 C120 1_555 1_555
O36 Cd13 1_555 1_555
Cd15 O34 1_555 1_555
O38 Cd13 1_555 1_555
C101 C104 1_555 1_555
C103 N25 1_555 1_555
C113 O32 1_555 1_555
C113 O33 1_555 1_555
C118 C119 1_555 1_555
O35 Cd15 1_555 1_555
O36 H84 1_555 1_555
C96 C95 1_555 1_555
H59 C96 1_555 1_555
C97 C96 1_555 1_555
H60 C97 1_555 1_555
N23 C93 1_555 1_555
N24 C98 1_555 1_555
H62 C100 1_555 1_555
Cd12 N23 1_555 1_555
C105 C106 1_555 1_555
C106 C107 1_555 1_555
C107 H65 1_555 1_555
C108 C107 1_555 1_555
H66 C108 1_555 1_555
C109 C108 1_555 1_555
C110 C109 1_555 1_555
H67 C110 1_555 1_555
C111 C106 1_555 1_555
H68 C111 1_555 1_555
C112 C109 1_555 1_555
O27 Cd12 1_555 1_555
O28 Cd12 1_555 1_555
O29 C112 1_555 1_555
O30 C112 1_555 1_555
O31 Cd12 1_555 1_555
Cd14 O29 1_555 1_555
O37 Cd12 1_555 1_555
C95 C98 1_555 1_555
C97 N23 1_555 1_555
C105 O27 1_555 1_555
C105 O28 1_555 1_555
C110 C111 1_555 1_555
O30 Cd14 1_555 1_555
O31 H82 1_555 1_555
O31 H79 1_555 1_555
O36 H79_2 1_555 1_555
C96_2 C95_2 1_555 1_555
H59_2 C96_2 1_555 1_555
C97_2 C96_2 1_555 1_555
H60_2 C97_2 1_555 1_555
N23_2 C93_2 1_555 1_555
N24_2 C98_2 1_555 1_555
H62_2 C100_2 1_555 1_555
Cd16 N23_2 1_555 1_555
C105_2 C106_2 1_555 1_555
C106_2 C107_2 1_555 1_555
C107_2 H65_2 1_555 1_555
C108_2 C107_2 1_555 1_555
H66_2 C108_2 1_555 1_555
C109_2 C108_2 1_555 1_555
C110_2 C109_2 1_555 1_555
H67_2 C110_2 1_555 1_555
C111_2 C106_2 1_555 1_555
H68_2 C111_2 1_555 1_555
C112_2 C109_2 1_555 1_555
O27_2 Cd16 1_555 1_555
O28_2 Cd16 1_555 1_555
O42 C112_2 1_555 1_555
O31_2 Cd16 1_555 1_555
N27 Cd16 1_555 1_555
C95_2 C98_2 1_555 1_555
C97_2 N23_2 1_555 1_555
C105_2 O27_2 1_555 1_555
C105_2 O28_2 1_555 1_555
C110_2 C111_2 1_555 1_555
O31_2 H82_2 1_555 1_555
C102_2 C101_2 1_555 1_555
H63_2 C102_2 1_555 1_555
C103_2 C102_2 1_555 1_555
H64_2 C103_2 1_555 1_555
N25_2 C99_2 1_555 1_555
Cd15 N25_2 1_555 1_555
C113_2 C114_2 1_555 1_555
C114_2 C115_2 1_555 1_555
C115_2 H69_2 1_555 1_555
C116_2 C115_2 1_555 1_555
H70_2 C116_2 1_555 1_555
C117_2 C116_2 1_555 1_555
C118_2 C117_2 1_555 1_555
H71_2 C118_2 1_555 1_555
C119_2 C114_2 1_555 1_555
H72_2 C119_2 1_555 1_555
C120_2 C117_2 1_555 1_555
O32_2 Cd15 1_555 1_555
O33_2 Cd15 1_555 1_555
O41 C120_2 1_555 1_555
O36_2 Cd15 1_555 1_555
N28 Cd15 1_555 1_555
C101_2 C104_2 1_555 1_555
C103_2 N25_2 1_555 1_555
C113_2 O32_2 1_555 1_555
C113_2 O33_2 1_555 1_555
C118_2 C119_2 1_555 1_555
O36_2 H84_2 1_555 1_555
Cd14 N15_2 1_555 1_555
C61_2 H37_2 1_555 1_555
C62_2 C61_2 1_555 1_555
H38_2 C62_2 1_555 1_555
C63_2 C62_2 1_555 1_555
C64_2 C63_2 1_555 1_555
H39_2 C64_2 1_555 1_555
C65_2 C64_2 1_555 1_555
H40_2 C65_2 1_555 1_555
C66_2 C63_2 1_555 1_555
C67_2 H41_2 1_555 1_555
C68_2 C67_2 1_555 1_555
H42_2 C68_2 1_555 1_555
C69_2 C68_2 1_555 1_555
C70_2 C69_2 1_555 1_555
H43_2 C70_2 1_555 1_555
C71_2 C70_2 1_555 1_555
H44_2 C71_2 1_555 1_555
C72_2 C69_2 1_555 1_555
C73_2 C74_2 1_555 1_555
C74_2 C75_2 1_555 1_555
C75_2 H45_2 1_555 1_555
C76_2 C75_2 1_555 1_555
H46_2 C76_2 1_555 1_555
C77_2 C76_2 1_555 1_555
C78_2 C77_2 1_555 1_555
H47_2 C78_2 1_555 1_555
C79_2 C74_2 1_555 1_555
H48_2 C79_2 1_555 1_555
C80_2 C77_2 1_555 1_555
N15_2 C61_2 1_555 1_555
N16_2 C66_2 1_555 1_555
N17_2 Cd14 1_555 1_555
O22_2 Cd14 1_555 1_555
O23_2 Cd14 1_555 1_555
O40 C80_2 1_555 1_555
O26_2 Cd14 1_555 1_555
C81_2 H49_2 1_555 1_555
C82_2 C81_2 1_555 1_555
H50_2 C82_2 1_555 1_555
C83_2 C82_2 1_555 1_555
C84_2 C83_2 1_555 1_555
H51_2 C84_2 1_555 1_555
C85_2 C84_2 1_555 1_555
H52_2 C85_2 1_555 1_555
C86_2 N16_2 1_555 1_555
N27 C81_2 1_555 1_555
N20_2 C86_2 1_555 1_555
C87_2 H53_2 1_555 1_555
C88_2 C87_2 1_555 1_555
H54_2 C88_2 1_555 1_555
C89_2 C88_2 1_555 1_555
C90_2 C89_2 1_555 1_555
H55_2 C90_2 1_555 1_555
C91_2 C90_2 1_555 1_555
H56_2 C91_2 1_555 1_555
C92_2 N20_2 1_555 1_555
N28 C87_2 1_555 1_555
N22_2 C66_2 1_555 1_555
N26_2 C72_2 1_555 1_555
C65_2 N15_2 1_555 1_555
C67_2 N17_2 1_555 1_555
C71_2 N17_2 1_555 1_555
C73_2 O22_2 1_555 1_555
C73_2 O23_2 1_555 1_555
C78_2 C79_2 1_555 1_555
C83_2 C86_2 1_555 1_555
C85_2 N27 1_555 1_555
C89_2 C92_2 1_555 1_555
C91_2 N28 1_555 1_555
C92_2 N22_2 1_555 1_555
O36_2 H79_3 1_555 1_555
O31_2 H79_4 1_555 1_555
H58 C94 1_555 1_555
Cd9_2 N15_3 1_555 1_555
C61_3 H37_3 1_555 1_555
C62_3 C61_3 1_555 1_555
H38_3 C62_3 1_555 1_555
C63_3 C62_3 1_555 1_555
C64_3 C63_3 1_555 1_555
H39_3 C64_3 1_555 1_555
C65_3 C64_3 1_555 1_555
H40_3 C65_3 1_555 1_555
C66_3 C63_3 1_555 1_555
C67_3 H41_3 1_555 1_555
C68_3 C67_3 1_555 1_555
H42_3 C68_3 1_555 1_555
C69_3 C68_3 1_555 1_555
C70_3 C69_3 1_555 1_555
H43_3 C70_3 1_555 1_555
C71_3 C70_3 1_555 1_555
H44_3 C71_3 1_555 1_555
C72_3 C69_3 1_555 1_555
C73_3 C74_3 1_555 1_555
C74_3 C75_3 1_555 1_555
C75_3 H45_3 1_555 1_555
C76_3 C75_3 1_555 1_555
H46_3 C76_3 1_555 1_555
C77_3 C76_3 1_555 1_555
C78_3 C77_3 1_555 1_555
H47_3 C78_3 1_555 1_555
C79_3 C74_3 1_555 1_555
H48_3 C79_3 1_555 1_555
C80_3 C77_3 1_555 1_555
N15_3 C61_3 1_555 1_555
N16_3 C66_3 1_555 1_555
N17_3 Cd9_2 1_555 1_555
O22_3 Cd9_2 1_555 1_555
O23_3 Cd9_2 1_555 1_555
O25_2 C80_3 1_555 1_555
O26_3 Cd9_2 1_555 1_555
C81_3 H49_3 1_555 1_555
C82_3 C81_3 1_555 1_555
H50_3 C82_3 1_555 1_555
C83_3 C82_3 1_555 1_555
C84_3 C83_3 1_555 1_555
H51_3 C84_3 1_555 1_555
C85_3 C84_3 1_555 1_555
H52_3 C85_3 1_555 1_555
C86_3 N16_3 1_555 1_555
N19_2 C81_3 1_555 1_555
N20_3 C86_3 1_555 1_555
C87_3 H53_3 1_555 1_555
C88_3 C87_3 1_555 1_555
H54_3 C88_3 1_555 1_555
C89_3 C88_3 1_555 1_555
C90_3 C89_3 1_555 1_555
H55_3 C90_3 1_555 1_555
C91_3 C90_3 1_555 1_555
H56_3 C91_3 1_555 1_555
C92_3 N20_3 1_555 1_555
N21_2 C87_3 1_555 1_555
N22_3 C66_3 1_555 1_555
N26_3 C72_3 1_555 1_555
Cd12_2 N19_2 1_555 1_555
Cd13_2 N21_2 1_555 1_555
O39_2 Cd9_2 1_555 1_555
O42_2 Cd9_2 1_555 1_555
C65_3 N15_3 1_555 1_555
C67_3 N17_3 1_555 1_555
C71_3 N17_3 1_555 1_555
C73_3 O22_3 1_555 1_555
C73_3 O23_3 1_555 1_555
C78_3 C79_3 1_555 1_555
C83_3 C86_3 1_555 1_555
C85_3 N19_2 1_555 1_555
C89_3 C92_3 1_555 1_555
C91_3 N21_2 1_555 1_555
C92_3 N22_3 1_555 1_555
Cd16_2 O24_2 1_555 1_555
C102_3 C101_3 1_555 1_555
H63_3 C102_3 1_555 1_555
C103_3 C102_3 1_555 1_555
H64_3 C103_3 1_555 1_555
N25_3 C99_3 1_555 1_555
Cd13_2 N25_3 1_555 1_555
C113_3 C114_3 1_555 1_555
C114_3 C115_3 1_555 1_555
C115_3 H69_3 1_555 1_555
C116_3 C115_3 1_555 1_555
H70_3 C116_3 1_555 1_555
C117_3 C116_3 1_555 1_555
C118_3 C117_3 1_555 1_555
H71_3 C118_3 1_555 1_555
C119_3 C114_3 1_555 1_555
H72_3 C119_3 1_555 1_555
C120_3 C117_3 1_555 1_555
O32_3 Cd13_2 1_555 1_555
O33_3 Cd13_2 1_555 1_555
O35_2 C120_3 1_555 1_555
O36_3 Cd13_2 1_555 1_555
O38_2 Cd13_2 1_555 1_555
O41_2 Cd13_2 1_555 1_555
C101_3 C104_3 1_555 1_555
C103_3 N25_3 1_555 1_555
C113_3 O32_3 1_555 1_555
C113_3 O33_3 1_555 1_555
C118_3 C119_3 1_555 1_555
O36_3 H84_3 1_555 1_555
Cd15_2 O34_2 1_555 1_555
C96_3 C95_3 1_555 1_555
H59_3 C96_3 1_555 1_555
C97_3 C96_3 1_555 1_555
H60_3 C97_3 1_555 1_555
N23_3 C93_3 1_555 1_555
N24_3 C98_3 1_555 1_555
H62_3 C100_3 1_555 1_555
Cd12_2 N23_3 1_555 1_555
C105_3 C106_3 1_555 1_555
C106_3 C107_3 1_555 1_555
C107_3 H65_3 1_555 1_555
C108_3 C107_3 1_555 1_555
H66_3 C108_3 1_555 1_555
C109_3 C108_3 1_555 1_555
C110_3 C109_3 1_555 1_555
H67_3 C110_3 1_555 1_555
C111_3 C106_3 1_555 1_555
H68_3 C111_3 1_555 1_555
C112_3 C109_3 1_555 1_555
O27_3 Cd12_2 1_555 1_555
O28_3 Cd12_2 1_555 1_555
O30_2 C112_3 1_555 1_555
O31_3 Cd12_2 1_555 1_555
O37_2 Cd12_2 1_555 1_555
O40_2 Cd12_2 1_555 1_555
C95_3 C98_3 1_555 1_555
C97_3 N23_3 1_555 1_555
C105_3 O27_3 1_555 1_555
C105_3 O28_3 1_555 1_555
C110_3 C111_3 1_555 1_555
O31_3 H82_3 1_555 1_555
Cd14_2 O29_2 1_555 1_555
O36_3 H79_5 1_555 1_555
O31_3 H79_6 1_555 1_555
C96_4 C95_4 1_555 1_555
H59_4 C96_4 1_555 1_555
C97_4 C96_4 1_555 1_555
H60_4 C97_4 1_555 1_555
N23_4 C93_4 1_555 1_555
N24_4 C98_4 1_555 1_555
H62_4 C100_4 1_555 1_555
Cd16_2 N23_4 1_555 1_555
C105_4 C106_4 1_555 1_555
C106_4 C107_4 1_555 1_555
C107_4 H65_4 1_555 1_555
C108_4 C107_4 1_555 1_555
H66_4 C108_4 1_555 1_555
C109_4 C108_4 1_555 1_555
C110_4 C109_4 1_555 1_555
H67_4 C110_4 1_555 1_555
C111_4 C106_4 1_555 1_555
H68_4 C111_4 1_555 1_555
C112_4 C109_4 1_555 1_555
O27_4 Cd16_2 1_555 1_555
O28_4 Cd16_2 1_555 1_555
O39_2 C112_4 1_555 1_555
O42_2 C112_4 1_555 1_555
O31_4 Cd16_2 1_555 1_555
N27_2 Cd16_2 1_555 1_555
C95_4 C98_4 1_555 1_555
C97_4 N23_4 1_555 1_555
C105_4 O27_4 1_555 1_555
C105_4 O28_4 1_555 1_555
C110_4 C111_4 1_555 1_555
O31_4 H82_4 1_555 1_555
C102_4 C101_4 1_555 1_555
H63_4 C102_4 1_555 1_555
C103_4 C102_4 1_555 1_555
H64_4 C103_4 1_555 1_555
N25_4 C99_4 1_555 1_555
Cd15_2 N25_4 1_555 1_555
C113_4 C114_4 1_555 1_555
C114_4 C115_4 1_555 1_555
C115_4 H69_4 1_555 1_555
C116_4 C115_4 1_555 1_555
H70_4 C116_4 1_555 1_555
C117_4 C116_4 1_555 1_555
C118_4 C117_4 1_555 1_555
H71_4 C118_4 1_555 1_555
C119_4 C114_4 1_555 1_555
H72_4 C119_4 1_555 1_555
C120_4 C117_4 1_555 1_555
O32_4 Cd15_2 1_555 1_555
O33_4 Cd15_2 1_555 1_555
O38_2 C120_4 1_555 1_555
O41_2 C120_4 1_555 1_555
O36_4 Cd15_2 1_555 1_555
N28_2 Cd15_2 1_555 1_555
C101_4 C104_4 1_555 1_555
C103_4 N25_4 1_555 1_555
C113_4 O32_4 1_555 1_555
C113_4 O33_4 1_555 1_555
C118_4 C119_4 1_555 1_555
O36_4 H84_4 1_555 1_555
Cd14_2 N15_4 1_555 1_555
C61_4 H37_4 1_555 1_555
C62_4 C61_4 1_555 1_555
H38_4 C62_4 1_555 1_555
C63_4 C62_4 1_555 1_555
C64_4 C63_4 1_555 1_555
H39_4 C64_4 1_555 1_555
C65_4 C64_4 1_555 1_555
H40_4 C65_4 1_555 1_555
C66_4 C63_4 1_555 1_555
C67_4 H41_4 1_555 1_555
C68_4 C67_4 1_555 1_555
H42_4 C68_4 1_555 1_555
C69_4 C68_4 1_555 1_555
C70_4 C69_4 1_555 1_555
H43_4 C70_4 1_555 1_555
C71_4 C70_4 1_555 1_555
H44_4 C71_4 1_555 1_555
C72_4 C69_4 1_555 1_555
C73_4 C74_4 1_555 1_555
C74_4 C75_4 1_555 1_555
C75_4 H45_4 1_555 1_555
C76_4 C75_4 1_555 1_555
H46_4 C76_4 1_555 1_555
C77_4 C76_4 1_555 1_555
C78_4 C77_4 1_555 1_555
H47_4 C78_4 1_555 1_555
C79_4 C74_4 1_555 1_555
H48_4 C79_4 1_555 1_555
C80_4 C77_4 1_555 1_555
N15_4 C61_4 1_555 1_555
N16_4 C66_4 1_555 1_555
N17_4 Cd14_2 1_555 1_555
O22_4 Cd14_2 1_555 1_555
O23_4 Cd14_2 1_555 1_555
O37_2 C80_4 1_555 1_555
O40_2 C80_4 1_555 1_555
O26_4 Cd14_2 1_555 1_555
C81_4 H49_4 1_555 1_555
C82_4 C81_4 1_555 1_555
H50_4 C82_4 1_555 1_555
C83_4 C82_4 1_555 1_555
C84_4 C83_4 1_555 1_555
H51_4 C84_4 1_555 1_555
C85_4 C84_4 1_555 1_555
H52_4 C85_4 1_555 1_555
C86_4 N16_4 1_555 1_555
N27_2 C81_4 1_555 1_555
N20_4 C86_4 1_555 1_555
C87_4 H53_4 1_555 1_555
C88_4 C87_4 1_555 1_555
H54_4 C88_4 1_555 1_555
C89_4 C88_4 1_555 1_555
C90_4 C89_4 1_555 1_555
H55_4 C90_4 1_555 1_555
C91_4 C90_4 1_555 1_555
H56_4 C91_4 1_555 1_555
C92_4 N20_4 1_555 1_555
N28_2 C87_4 1_555 1_555
N22_4 C66_4 1_555 1_555
N26_4 C72_4 1_555 1_555
C65_4 N15_4 1_555 1_555
C67_4 N17_4 1_555 1_555
C71_4 N17_4 1_555 1_555
C73_4 O22_4 1_555 1_555
C73_4 O23_4 1_555 1_555
C78_4 C79_4 1_555 1_555
C83_4 C86_4 1_555 1_555
C85_4 N27_2 1_555 1_555
C89_4 C92_4 1_555 1_555
C91_4 N28_2 1_555 1_555
C92_4 N22_4 1_555 1_555
O31_4 H79_7 1_555 1_555
O36_4 H79_8 1_555 1_555
H58_2 C94_2 1_555 1_555
H58_3 C94_3 1_555 1_555
H58_4 C94_4 1_555 1_555

#END
