
###############################################################################
#
# This file contains modified crystal structure data generated from the
# MOF subset of the Cambridge Structural Database (CSD) v543 
# hosted by the Cambridge Crystallographic Data Centre (CCDC).
#
# This work is licensed under the Creative Commons
# Attribution-NonCommercial-ShareAlike 4.0 International License.
# To view a copy of this license, visit
# http://creativecommons.org/licenses/by-nc-sa/4.0/
# or send a letter to
# Creative Commons, PO Box 1866, Mountain View, CA 94042, USA.
#
# CIF created using the CSD Python API on 29 September 2022
# The structure has been converted into the P1 space group
# The structure has a 3D framework
# The original CSD entry LIJXEI is in the monoclinic crystal system
# The framework has been calculated to contain at least 10.0% void space
# The void calculation uses a probe of radius 1.32A, grid spacing 0.4
# H atom positions have been added when not included in the experimental data
# Generated hydrogen atom positions removed from atoms on special positions
#
###############################################################################

data_LIJXEI
_chemical_formula_moiety         '(C148 H124 Cd16 N8 O42)n'
_symmetry_cell_setting           triclinic
_symmetry_space_group_name_H-M   'P 1'
_symmetry_Int_Tables_number      1
_space_group_name_Hall           'P 1'
loop_
_symmetry_equiv_pos_site_id
_symmetry_equiv_pos_as_xyz
1 x,y,z
_cell_length_a                   9.949(12)
_cell_length_b                   16.15(2)
_cell_length_c                   24.55(3)
_cell_angle_alpha                90
_cell_angle_beta                 95.83(2)
_cell_angle_gamma                90
_cell_volume                     3924.2
loop_
_atom_site_label
_atom_site_type_symbol
_atom_site_fract_x
_atom_site_fract_y
_atom_site_fract_z
Cd2 Cd 0.0000 0.0000 0.0000
C35 C 0.0300(2) 0.28713(14) 0.00110(10)
H23 H 0.1096 0.3190 0.0121
H39 H 0.1046 0.0039 0.1903
H40 H 0.0796 0.0476 0.2864
H41 H 0.1032 0.0163 0.3777
H44 H 0.0147 0.3709 0.3625
H45 H 0.0047 0.3270 0.2735
Cd2_2 Cd 0.0000 0.0000 1.0000
O2 O 0.02406(14) 0.47654(9) 0.56184(5)
O7 O 0.16227(12) 0.18143(8) 0.96483(5)
O9 O 0.02417(11) 0.32563(8) 0.48179(4)
O10 O 0.16985(12) 0.22306(8) 0.48060(5)
C3 C 0.06968(18) 0.43391(12) 0.67307(7)
H3 H 0.1375 0.4611 0.6567
C4 C 0.09318(19) 0.41191(12) 0.72840(7)
C5 C 0.2195(2) 0.43253(14) 0.76040(8)
H4 H 0.2868 0.4603 0.7441
C6 C 0.2394(2) 0.41140(15) 0.81388(8)
H5 H 0.3213 0.4229 0.8343
C7 C 0.1338(2) 0.37132(15) 0.83857(8)
H6 H 0.1469 0.3590 0.8757
C8 C 0.0146(2) 0.35034(13) 0.81004(7)
C34 C 0.06840(19) 0.19954(12) 0.99243(7)
C36 C 0.05287(19) 0.25046(13) 0.46981(7)
Cd5 Cd 0.160540(14) 0.586570(9) 0.536580(5)
Cd6 Cd 0.339460(14) 0.086570(9) 0.963420(5)
Cd13 Cd 0.251400(14) 0.355480(10) 0.515780(5)
Cd2_3 Cd -0.0000 1.0000 0.0000
N4 N 0.17874(13) 0.62645(9) 0.62898(5)
O12 O 0.17462(12) 0.58724(8) 0.44589(4)
O16 O 0.27612(11) 0.64200(8) 0.36168(4)
H30 H 0.2733 0.6287 0.3938
O17 O 0.08392(12) 0.97705(8) 0.08909(4)
O18 O 0.22859(12) 0.87280(9) 0.07565(4)
O19 O 0.24798(12) 0.75631(8) 0.14772(4)
H31 H 0.2624 0.7792 0.1191
O22 O 0.33773(12) 0.68143(8) 0.53517(5)
O26 O 0.47583(11) 0.82563(8) 0.01821(4)
O28 O 0.33015(12) 0.72306(8) 0.01940(5)
O31 O 0.31093(11) 0.48288(7) 0.54331(4)
C38 C 0.06810(19) 0.56161(12) 0.41813(7)
C39 C 0.05048(17) 0.58335(11) 0.35806(6)
H36 H 0.0508 0.6770 0.1723
C46 C 0.01150(18) 0.62998(12) 0.24722(7)
C47 C 0.13505(17) 0.65218(12) 0.27834(7)
C48 C 0.15435(17) 0.62593(12) 0.33284(7)
C49 C 0.24715(17) 0.70291(11) 0.25493(7)
H37 H 0.3247 0.7048 0.2823
H38 H 0.2747 0.6737 0.2234
C50 C 0.21073(17) 0.79029(11) 0.23796(6)
C51 C 0.21060(18) 0.81406(13) 0.18401(6)
C52 C 0.16867(17) 0.89366(12) 0.16534(6)
C53 C 0.13392(18) 0.95186(12) 0.20258(7)
C54 C 0.14221(18) 0.93349(12) 0.25908(7)
C55 C 0.1094(2) 0.99539(13) 0.29825(7)
C56 C 0.1226(2) 0.97654(14) 0.35228(7)
C57 C 0.1663(2) 0.89562(14) 0.37046(7)
H42 H 0.1745 0.8833 0.4077
C58 C 0.19519(18) 0.83839(13) 0.33506(7)
H43 H 0.2251 0.7870 0.3485
C59 C 0.18275(17) 0.85135(12) 0.27734(7)
C60 C 0.15757(17) 0.91750(12) 0.10548(7)
H54 H 0.0140 0.6907 0.0324
Cd2_4 Cd -0.0000 1.0000 1.0000
O11 O 0.18907(11) 0.98288(7) 0.95669(4)
Cd11 Cd 0.248600(14) 0.855480(10) 0.984220(5)
N6 N 0.23398(14) 0.79149(10) 0.89850(5)
O23 O 0.00247(12) 0.85416(8) 0.98453(4)
H53 H 0.0304 0.7103 0.9709
Cd2_5 Cd 1.0000 0.0000 0.0000
Cd3 Cd 0.751400(14) 0.144520(10) 0.015780(5)
O8 O 0.99753(12) 0.14584(8) 0.01547(4)
H24 H 0.9696 0.2897 0.0291
Cd9 Cd 0.839460(14) 0.413430(9) 0.463420(5)
N3 N 0.82126(13) 0.37355(9) 0.37102(5)
N5 N 0.76602(14) 0.20851(10) 0.10150(5)
O29 O 0.81093(11) 0.01712(7) 0.04331(4)
C61 C 0.93017(18) 0.36086(13) 0.34386(7)
C62 C 0.92563(18) 0.33391(13) 0.29021(7)
C63 C 0.79945(17) 0.31716(13) 0.26161(7)
C64 C 0.68524(18) 0.33156(13) 0.29007(7)
H46 H 0.5991 0.3230 0.2725
C65 C 0.70033(18) 0.35819(12) 0.34381(7)
H47 H 0.6234 0.3657 0.3618
C66 C 0.78798(18) 0.28039(13) 0.20553(7)
C67 C 0.8882(2) 0.23200(15) 0.18798(7)
H48 H 0.9669 0.2229 0.2111
C68 C 0.87410(19) 0.19650(14) 0.13637(7)
H49 H 0.9432 0.1631 0.1259
C69 C 0.66795(19) 0.25567(13) 0.11819(7)
H50 H 0.5910 0.2642 0.0940
C70 C 0.67333(19) 0.29250(13) 0.16882(7)
H51 H 0.6020 0.3248 0.1784
Cd2_6 Cd 1.0000 0.0000 1.0000
O1 O 0.82538(12) 0.41276(8) 0.55411(4)
O3 O 0.72388(11) 0.35800(8) 0.63832(4)
H1 H 0.7267 0.3713 0.6062
O4 O 0.91608(12) 0.02295(8) 0.91091(4)
O5 O 0.77141(12) 0.12720(9) 0.92435(4)
O6 O 0.75202(12) 0.24369(8) 0.85228(4)
H2 H 0.7376 0.2208 0.8809
C1 C 0.93190(19) 0.43839(12) 0.58187(7)
C2 C 0.94952(17) 0.41665(11) 0.64194(6)
H7 H 0.9492 0.3230 0.8277
C9 C 0.98850(18) 0.37002(12) 0.75278(7)
C10 C 0.86495(17) 0.34782(12) 0.72166(7)
C11 C 0.84565(17) 0.37407(12) 0.66716(7)
C12 C 0.75285(17) 0.29709(11) 0.74507(7)
H8 H 0.6753 0.2952 0.7177
H9 H 0.7253 0.3263 0.7766
C13 C 0.78927(17) 0.20971(11) 0.76204(6)
C14 C 0.78940(18) 0.18594(13) 0.81599(6)
C15 C 0.83133(17) 0.10634(12) 0.83466(6)
C16 C 0.86608(18) 0.04814(12) 0.79742(7)
C17 C 0.85779(18) 0.06651(12) 0.74092(7)
C18 C 0.8906(2) 0.00461(13) 0.70175(7)
C19 C 0.8774(2) 0.02346(14) 0.64772(7)
C20 C 0.8337(2) 0.10438(14) 0.62954(7)
H13 H 0.8255 0.1167 0.5923
C21 C 0.80481(18) 0.16161(13) 0.66494(7)
H14 H 0.7749 0.2130 0.6515
C22 C 0.81725(17) 0.14865(12) 0.72266(7)
C23 C 0.84243(17) 0.08250(12) 0.89452(7)
H25 H 0.9860 0.3093 0.9676
C37 C 0.9424(2) 0.19538(13) 0.44355(9)
H26 H 0.9363 0.1464 0.4653
H27 H 0.8579 0.2245 0.4411
H28 H 0.9627 0.1802 0.4075
O14 O 0.97594(14) 0.52346(9) 0.43816(5)
O21 O 0.66227(12) 0.31857(8) 0.46483(5)
O24 O 0.52417(11) 0.17437(8) 0.98179(4)
O27 O 0.66985(12) 0.27694(8) 0.98060(5)
O30 O 0.68907(11) 0.51712(7) 0.45669(4)
C73 C 0.55287(19) 0.24954(13) 0.96981(7)
C74 C 0.4424(2) 0.30462(13) 0.94355(9)
H55 H 0.4363 0.3536 0.9653
H56 H 0.3579 0.2755 0.9411
H57 H 0.4627 0.3198 0.9075
Cd2_7 Cd 1.0000 1.0000 0.0000
Cd8 Cd 0.660540(14) 0.913430(9) 0.036580(5)
O20 O 0.83773(12) 0.81857(8) 0.03517(5)
O25 O 0.97583(11) 0.67437(8) 0.51821(4)
C40 C 0.93032(18) 0.56609(12) 0.32693(7)
H32 H 0.8625 0.5389 0.3433
C41 C 0.90682(19) 0.58809(12) 0.27160(7)
C42 C 0.7805(2) 0.56747(14) 0.23960(8)
H33 H 0.7132 0.5397 0.2559
C43 C 0.7606(2) 0.58860(15) 0.18612(8)
H34 H 0.6787 0.5771 0.1657
C44 C 0.8662(2) 0.62868(15) 0.16143(8)
H35 H 0.8531 0.6410 0.1243
C45 C 0.9854(2) 0.64966(13) 0.18996(7)
C71 C 0.93160(19) 0.80046(12) 0.00757(7)
Cd2_8 Cd 1.0000 1.0000 1.0000
H10 H 0.8954 0.9961 0.8097
H11 H 0.9204 0.9524 0.7136
H12 H 0.8968 0.9837 0.6223
C72 C 0.9700(2) 0.71287(14) 0.99890(10)
H52 H 0.8904 0.6810 0.9879
C74_2 C 0.0576(2) 0.80462(13) 0.55645(9)
H55_2 H 0.0637 0.8536 0.5347
H56_2 H 0.1421 0.7755 0.5589
H57_2 H 0.0373 0.8198 0.5925
O14_2 O 0.52406(14) 0.02346(9) 0.06184(5)
N1 N 0.67874(13) 0.87355(9) 0.12898(5)
N2 N 0.73398(14) 0.70851(10) 0.39850(5)
C24 C 0.56983(18) 0.86086(13) 0.15614(7)
H15 H 0.4853 0.8709 0.1375
C25 C 0.57437(18) 0.83391(13) 0.20979(7)
H16 H 0.4953 0.8270 0.2265
C26 C 0.70055(17) 0.81716(13) 0.23839(7)
C27 C 0.81476(18) 0.83156(13) 0.20993(7)
H17 H 0.9009 0.8230 0.2275
C28 C 0.79967(18) 0.85819(12) 0.15619(7)
H18 H 0.8766 0.8657 0.1382
C29 C 0.71202(18) 0.78039(13) 0.29447(7)
C30 C 0.6118(2) 0.73200(15) 0.31202(7)
H19 H 0.5331 0.7229 0.2889
C31 C 0.62590(19) 0.69650(14) 0.36363(7)
H20 H 0.5568 0.6631 0.3741
C32 C 0.83205(19) 0.75567(13) 0.38181(7)
H21 H 0.9090 0.7642 0.4060
C33 C 0.82667(19) 0.79250(13) 0.33118(7)
H22 H 0.8980 0.8248 0.3216
C36_2 C 0.44713(19) 0.75046(13) 0.03019(7)
C37_2 C 0.5576(2) 0.69538(13) 0.05645(9)
H26_2 H 0.5637 0.6464 0.0347
H27_2 H 0.6421 0.7245 0.0589
H28_2 H 0.5373 0.6802 0.0925
Cd12 Cd 0.748600(14) 0.644520(10) 0.484220(5)
Cd2_9 Cd 0.5000 0.5000 0.5000
O1_2 O 0.67462(12) 0.91276(8) 0.94589(4)
O2_2 O 0.47594(14) 0.97654(9) 0.93816(5)
O3_2 O 0.77612(11) 0.85800(8) 0.86168(4)
H1_2 H 0.7733 0.8713 0.8938
O4_2 O 0.58392(12) 0.52295(8) 0.58909(4)
O5_2 O 0.72859(12) 0.62720(9) 0.57565(4)
O6_2 O 0.74798(12) 0.74369(8) 0.64772(4)
H2_2 H 0.7624 0.7208 0.6191
O8_2 O 0.50247(12) 0.64584(8) 0.48453(4)
C1_2 C 0.56810(19) 0.93839(12) 0.91813(7)
C2_2 C 0.55048(17) 0.91665(11) 0.85806(6)
C3_2 C 0.43032(18) 0.93391(12) 0.82693(7)
H3_2 H 0.3625 0.9611 0.8433
C4_2 C 0.40682(19) 0.91191(12) 0.77160(7)
C5_2 C 0.2805(2) 0.93253(14) 0.73960(8)
H4_2 H 0.2132 0.9603 0.7559
C6_2 C 0.2606(2) 0.91140(15) 0.68612(8)
H5_2 H 0.1787 0.9229 0.6657
C7_2 C 0.3662(2) 0.87132(15) 0.66143(8)
H6_2 H 0.3531 0.8590 0.6243
C8_2 C 0.4854(2) 0.85034(13) 0.68996(7)
H7_2 H 0.5508 0.8230 0.6723
C9_2 C 0.51150(18) 0.87002(12) 0.74722(7)
C10_2 C 0.63505(17) 0.84782(12) 0.77834(7)
C11_2 C 0.65435(17) 0.87407(12) 0.83284(7)
C12_2 C 0.74715(17) 0.79709(11) 0.75493(7)
H8_2 H 0.8247 0.7952 0.7823
H9_2 H 0.7747 0.8263 0.7234
C13_2 C 0.71073(17) 0.70971(11) 0.73796(6)
C14_2 C 0.71060(18) 0.68594(13) 0.68401(6)
C15_2 C 0.66867(17) 0.60634(12) 0.66534(6)
C16_2 C 0.63392(18) 0.54814(12) 0.70258(7)
H10_2 H 0.6046 0.4961 0.6903
C17_2 C 0.64221(18) 0.56651(12) 0.75908(7)
C18_2 C 0.6094(2) 0.50461(13) 0.79825(7)
H11_2 H 0.5796 0.4524 0.7864
C19_2 C 0.6226(2) 0.52346(14) 0.85228(7)
H12_2 H 0.6032 0.4837 0.8777
C20_2 C 0.6663(2) 0.60438(14) 0.87046(7)
H13_2 H 0.6745 0.6167 0.9077
C21_2 C 0.69519(18) 0.66161(13) 0.83506(7)
H14_2 H 0.7251 0.7130 0.8485
C22_2 C 0.68275(17) 0.64865(12) 0.77734(7)
C23_2 C 0.65757(17) 0.58250(12) 0.60548(7)
C34_2 C 0.43160(19) 0.69954(12) 0.50757(7)
C35_2 C 0.4700(2) 0.78713(14) 0.49890(10)
H23_2 H 0.3904 0.8190 0.4879
H24_2 H 0.5304 0.7897 0.4709
H25_2 H 0.5140 0.8093 0.5324
N6_2 N 0.26602(14) 0.29149(10) 0.60150(5)
O12_2 O 0.32538(12) 0.08724(8) 0.05411(4)
O16_2 O 0.22388(11) 0.14200(8) 0.13832(4)
H30_2 H 0.2267 0.1287 0.1062
O17_2 O 0.41608(12) 0.47705(8) 0.41091(4)
O18_2 O 0.27141(12) 0.37280(9) 0.42435(4)
O19_2 O 0.25202(12) 0.25631(8) 0.35228(4)
H31_2 H 0.2376 0.2792 0.3809
O23_2 O 0.49753(12) 0.35416(8) 0.51547(4)
O27_2 O 0.83015(12) 0.77694(8) 0.51940(5)
C38_2 C 0.43190(19) 0.06161(12) 0.08187(7)
C39_2 C 0.44952(17) 0.08335(11) 0.14194(6)
C40_2 C 0.56968(18) 0.06609(12) 0.17307(7)
H32_2 H 0.6375 0.0389 0.1567
C41_2 C 0.59318(19) 0.08809(12) 0.22840(7)
C42_2 C 0.7195(2) 0.06747(14) 0.26040(8)
H33_2 H 0.7868 0.0397 0.2441
C43_2 C 0.7394(2) 0.08860(15) 0.31388(8)
H34_2 H 0.8213 0.0771 0.3343
C44_2 C 0.6338(2) 0.12868(15) 0.33857(8)
H35_2 H 0.6469 0.1410 0.3757
C45_2 C 0.5146(2) 0.14966(13) 0.31004(7)
H36_2 H 0.4492 0.1770 0.3277
C46_2 C 0.48850(18) 0.12998(12) 0.25278(7)
C47_2 C 0.36495(17) 0.15218(12) 0.22166(7)
C48_2 C 0.34565(17) 0.12593(12) 0.16716(7)
C49_2 C 0.25285(17) 0.20291(11) 0.24507(7)
H37_2 H 0.1753 0.2048 0.2177
H38_2 H 0.2253 0.1737 0.2766
C50_2 C 0.28927(17) 0.29029(11) 0.26204(6)
C51_2 C 0.28940(18) 0.31406(13) 0.31599(6)
C52_2 C 0.33133(17) 0.39366(12) 0.33466(6)
C53_2 C 0.36608(18) 0.45186(12) 0.29742(7)
H39_2 H 0.3954 0.5039 0.3097
C54_2 C 0.35779(18) 0.43349(12) 0.24092(7)
C55_2 C 0.3906(2) 0.49539(13) 0.20175(7)
H40_2 H 0.4204 0.5476 0.2136
C56_2 C 0.3774(2) 0.47654(14) 0.14772(7)
H41_2 H 0.3968 0.5163 0.1223
C57_2 C 0.3337(2) 0.39562(14) 0.12954(7)
H42_2 H 0.3255 0.3833 0.0923
C58_2 C 0.30481(18) 0.33839(13) 0.16494(7)
H43_2 H 0.2749 0.2870 0.1515
C59_2 C 0.31725(17) 0.35135(12) 0.22266(7)
C60_2 C 0.34243(17) 0.41750(12) 0.39452(7)
C71_2 C 0.56840(19) 0.30046(12) 0.49243(7)
C72_2 C 0.5300(2) 0.21287(14) 0.50110(10)
H52_2 H 0.6096 0.1810 0.5121
H53_2 H 0.4696 0.2103 0.5291
H54_2 H 0.4860 0.1907 0.4676
C73_2 C 0.94713(19) 0.74954(13) 0.53019(7)
N4_2 N 0.32126(13) 0.12645(9) 0.87102(5)
C24_2 C 0.06983(18) 0.63914(13) 0.65614(7)
C25_2 C 0.07437(18) 0.66609(13) 0.70979(7)
C26_2 C 0.20055(17) 0.68284(13) 0.73839(7)
C27_2 C 0.31476(18) 0.66844(13) 0.70993(7)
H17_2 H 0.4009 0.6770 0.7275
C28_2 C 0.29967(18) 0.64181(12) 0.65619(7)
H18_2 H 0.3766 0.6343 0.6382
C29_2 C 0.21202(18) 0.71961(13) 0.79447(7)
C30_2 C 0.1118(2) 0.76800(15) 0.81202(7)
H19_2 H 0.0331 0.7771 0.7889
C31_2 C 0.12590(19) 0.80350(14) 0.86363(7)
H20_2 H 0.0568 0.8369 0.8741
C32_2 C 0.33205(19) 0.74433(13) 0.88181(7)
H21_2 H 0.4090 0.7358 0.9060
C33_2 C 0.32667(19) 0.70750(13) 0.83118(7)
H22_2 H 0.3980 0.6752 0.8216
H15_2 H 0.9853 0.6291 0.6375
H16_2 H 0.9953 0.6730 0.7265
C61_2 C 0.43017(18) 0.13914(13) 0.84386(7)
H44_2 H 0.5147 0.1291 0.8625
C62_2 C 0.42563(18) 0.16609(13) 0.79021(7)
H45_2 H 0.5047 0.1730 0.7735
C63_2 C 0.29945(17) 0.18284(13) 0.76161(7)
C64_2 C 0.18524(18) 0.16844(13) 0.79007(7)
H46_2 H 0.0991 0.1770 0.7725
C65_2 C 0.20033(18) 0.14181(12) 0.84381(7)
H47_2 H 0.1234 0.1343 0.8618
C66_2 C 0.28798(18) 0.21961(13) 0.70553(7)
C67_2 C 0.3882(2) 0.26800(15) 0.68798(7)
H48_2 H 0.4669 0.2771 0.7111
C68_2 C 0.37410(19) 0.30350(14) 0.63637(7)
H49_2 H 0.4432 0.3369 0.6259
C69_2 C 0.16795(19) 0.24433(13) 0.61819(7)
H50_2 H 0.0910 0.2358 0.5940
C70_2 C 0.17333(19) 0.20750(13) 0.66882(7)
H51_2 H 0.1020 0.1752 0.6784
loop_
_geom_bond_atom_site_label_1
_geom_bond_atom_site_label_2
_geom_bond_site_symmetry_1
_geom_bond_site_symmetry_2
H23 C35 1_555 1_555
O7 C34 1_555 1_555
O10 C36 1_555 1_555
H3 C3 1_555 1_555
C4 C3 1_555 1_555
C5 C4 1_555 1_555
H4 C5 1_555 1_555
C6 C5 1_555 1_555
H5 C6 1_555 1_555
C7 C6 1_555 1_555
H6 C7 1_555 1_555
C8 C7 1_555 1_555
C36 O9 1_555 1_555
Cd5 O2 1_555 1_555
Cd6 O7 1_555 1_555
Cd13 O9 1_555 1_555
O10 Cd13 1_555 1_555
Cd5 N4 1_555 1_555
O12 Cd5 1_555 1_555
O16 H30 1_555 1_555
O17 Cd2_3 1_555 1_555
O19 H31 1_555 1_555
O22 Cd5 1_555 1_555
O31 Cd5 1_555 1_555
C38 O12 1_555 1_555
C39 C38 1_555 1_555
C47 C46 1_555 1_555
C48 O16 1_555 1_555
C49 C47 1_555 1_555
H37 C49 1_555 1_555
H38 C49 1_555 1_555
C50 C49 1_555 1_555
C51 O19 1_555 1_555
C52 C51 1_555 1_555
C53 C52 1_555 1_555
C54 C53 1_555 1_555
C55 C54 1_555 1_555
C56 C55 1_555 1_555
C57 C56 1_555 1_555
H42 C57 1_555 1_555
C58 C57 1_555 1_555
H43 C58 1_555 1_555
C59 C50 1_555 1_555
C60 O17 1_555 1_555
O18 C60 1_555 1_555
C39 C48 1_555 1_555
C47 C48 1_555 1_555
C50 C51 1_555 1_555
C52 C60 1_555 1_555
C54 C59 1_555 1_555
C58 C59 1_555 1_555
O11 Cd2_4 1_555 1_555
Cd11 O11 1_555 1_555
N6 Cd11 1_555 1_555
O23 Cd2_4 1_555 1_555
Cd11 O23 1_555 1_555
O8 Cd2_5 1_555 1_555
Cd9 N3 1_555 1_555
N3 C61 1_555 1_555
N5 Cd3 1_555 1_555
O29 Cd2_5 1_555 1_555
C62 C61 1_555 1_555
C63 C62 1_555 1_555
C64 C63 1_555 1_555
H46 C64 1_555 1_555
C65 N3 1_555 1_555
H47 C65 1_555 1_555
C66 C63 1_555 1_555
C67 C66 1_555 1_555
H48 C67 1_555 1_555
C68 N5 1_555 1_555
H49 C68 1_555 1_555
C69 N5 1_555 1_555
H50 C69 1_555 1_555
C70 C66 1_555 1_555
H51 C70 1_555 1_555
Cd3 O8 1_555 1_555
Cd3 O29 1_555 1_555
C64 C65 1_555 1_555
C67 C68 1_555 1_555
C69 C70 1_555 1_555
Cd2_6 O4 1_555 1_555
O1 Cd9 1_555 1_555
O3 H1 1_555 1_555
O4 C23 1_555 1_555
O5 C23 1_555 1_555
O6 H2 1_555 1_555
C1 O1 1_555 1_555
C2 C1 1_555 1_555
C10 C9 1_555 1_555
C11 O3 1_555 1_555
C12 C10 1_555 1_555
H8 C12 1_555 1_555
H9 C12 1_555 1_555
C13 C12 1_555 1_555
C14 O6 1_555 1_555
C15 C14 1_555 1_555
C16 C15 1_555 1_555
C17 C16 1_555 1_555
C18 C17 1_555 1_555
C19 C18 1_555 1_555
C20 C19 1_555 1_555
H13 C20 1_555 1_555
C21 C20 1_555 1_555
H14 C21 1_555 1_555
C22 C13 1_555 1_555
C23 C15 1_555 1_555
H26 C37 1_555 1_555
H27 C37 1_555 1_555
H28 C37 1_555 1_555
Cd6 O24 1_555 1_555
O14 Cd9 1_555 1_555
O21 Cd9 1_555 1_555
O30 Cd9 1_555 1_555
C73 O24 1_555 1_555
C74 C73 1_555 1_555
H55 C74 1_555 1_555
H56 C74 1_555 1_555
H57 C74 1_555 1_555
C2 C11 1_555 1_555
C10 C11 1_555 1_555
C13 C14 1_555 1_555
C17 C22 1_555 1_555
C21 C22 1_555 1_555
O27 C73 1_555 1_555
Cd8 O20 1_555 1_555
O20 C71 1_555 1_555
H32 C40 1_555 1_555
C41 C40 1_555 1_555
C42 C41 1_555 1_555
H33 C42 1_555 1_555
C43 C42 1_555 1_555
H34 C43 1_555 1_555
C44 C43 1_555 1_555
H35 C44 1_555 1_555
C45 C44 1_555 1_555
H52 C72 1_555 1_555
H55_2 C74_2 1_555 1_555
H56_2 C74_2 1_555 1_555
H57_2 C74_2 1_555 1_555
Cd8 N1 1_555 1_555
N1 C24 1_555 1_555
N2 C31 1_555 1_555
O26 Cd8 1_555 1_555
O28 C36_2 1_555 1_555
C24 H15 1_555 1_555
C25 C24 1_555 1_555
H16 C25 1_555 1_555
C26 C25 1_555 1_555
C27 C26 1_555 1_555
H17 C27 1_555 1_555
C28 N1 1_555 1_555
H18 C28 1_555 1_555
C29 C26 1_555 1_555
C30 C29 1_555 1_555
H19 C30 1_555 1_555
C31 C30 1_555 1_555
H20 C31 1_555 1_555
C32 N2 1_555 1_555
H21 C32 1_555 1_555
C33 C29 1_555 1_555
H22 C33 1_555 1_555
C36_2 O26 1_555 1_555
C37_2 C36_2 1_555 1_555
H26_2 C37_2 1_555 1_555
H27_2 C37_2 1_555 1_555
H28_2 C37_2 1_555 1_555
Cd12 N2 1_555 1_555
C27 C28 1_555 1_555
C32 C33 1_555 1_555
Cd2_9 O4_2 1_555 1_555
Cd12 O5_2 1_555 1_555
O2_2 C1_2 1_555 1_555
O3_2 H1_2 1_555 1_555
O4_2 C23_2 1_555 1_555
O5_2 C23_2 1_555 1_555
O6_2 H2_2 1_555 1_555
O22 C34_2 1_555 1_555
O8_2 Cd2_9 1_555 1_555
O31 Cd2_9 1_555 1_555
C1_2 O1_2 1_555 1_555
C2_2 C1_2 1_555 1_555
C3_2 C2_2 1_555 1_555
H3_2 C3_2 1_555 1_555
C4_2 C3_2 1_555 1_555
C5_2 C4_2 1_555 1_555
H4_2 C5_2 1_555 1_555
C6_2 C5_2 1_555 1_555
H5_2 C6_2 1_555 1_555
C7_2 C6_2 1_555 1_555
H6_2 C7_2 1_555 1_555
C8_2 C7_2 1_555 1_555
H7_2 C8_2 1_555 1_555
C9_2 C4_2 1_555 1_555
C10_2 C9_2 1_555 1_555
C11_2 O3_2 1_555 1_555
C12_2 C10_2 1_555 1_555
H8_2 C12_2 1_555 1_555
H9_2 C12_2 1_555 1_555
C13_2 C12_2 1_555 1_555
C14_2 O6_2 1_555 1_555
C15_2 C14_2 1_555 1_555
C16_2 C15_2 1_555 1_555
H10_2 C16_2 1_555 1_555
C17_2 C16_2 1_555 1_555
C18_2 C17_2 1_555 1_555
H11_2 C18_2 1_555 1_555
C19_2 C18_2 1_555 1_555
H12_2 C19_2 1_555 1_555
C20_2 C19_2 1_555 1_555
H13_2 C20_2 1_555 1_555
C21_2 C20_2 1_555 1_555
H14_2 C21_2 1_555 1_555
C22_2 C13_2 1_555 1_555
C23_2 C15_2 1_555 1_555
C34_2 O8_2 1_555 1_555
C35_2 C34_2 1_555 1_555
H23_2 C35_2 1_555 1_555
H24_2 C35_2 1_555 1_555
H25_2 C35_2 1_555 1_555
Cd13 O31 1_555 1_555
N6_2 Cd13 1_555 1_555
O14_2 C38_2 1_555 1_555
O16_2 H30_2 1_555 1_555
O17_2 Cd2_9 1_555 1_555
O18_2 Cd13 1_555 1_555
O19_2 H31_2 1_555 1_555
O21 C71_2 1_555 1_555
O23_2 Cd2_9 1_555 1_555
O25 Cd12 1_555 1_555
O27_2 Cd12 1_555 1_555
O30 Cd2_9 1_555 1_555
C38_2 O12_2 1_555 1_555
C39_2 C38_2 1_555 1_555
C40_2 C39_2 1_555 1_555
H32_2 C40_2 1_555 1_555
C41_2 C40_2 1_555 1_555
C42_2 C41_2 1_555 1_555
H33_2 C42_2 1_555 1_555
C43_2 C42_2 1_555 1_555
H34_2 C43_2 1_555 1_555
C44_2 C43_2 1_555 1_555
H35_2 C44_2 1_555 1_555
C45_2 C44_2 1_555 1_555
H36_2 C45_2 1_555 1_555
C46_2 C41_2 1_555 1_555
C47_2 C46_2 1_555 1_555
C48_2 O16_2 1_555 1_555
C49_2 C47_2 1_555 1_555
H37_2 C49_2 1_555 1_555
H38_2 C49_2 1_555 1_555
C50_2 C49_2 1_555 1_555
C51_2 O19_2 1_555 1_555
C52_2 C51_2 1_555 1_555
C53_2 C52_2 1_555 1_555
H39_2 C53_2 1_555 1_555
C54_2 C53_2 1_555 1_555
C55_2 C54_2 1_555 1_555
H40_2 C55_2 1_555 1_555
C56_2 C55_2 1_555 1_555
H41_2 C56_2 1_555 1_555
C57_2 C56_2 1_555 1_555
H42_2 C57_2 1_555 1_555
C58_2 C57_2 1_555 1_555
H43_2 C58_2 1_555 1_555
C59_2 C50_2 1_555 1_555
C60_2 O17_2 1_555 1_555
C71_2 O23_2 1_555 1_555
C72_2 C71_2 1_555 1_555
H52_2 C72_2 1_555 1_555
H53_2 C72_2 1_555 1_555
H54_2 C72_2 1_555 1_555
C73_2 O25 1_555 1_555
Cd12 O8_2 1_555 1_555
Cd12 O30 1_555 1_555
C2_2 C11_2 1_555 1_555
C8_2 C9_2 1_555 1_555
C10_2 C11_2 1_555 1_555
C13_2 C14_2 1_555 1_555
C17_2 C22_2 1_555 1_555
C21_2 C22_2 1_555 1_555
Cd13 O23_2 1_555 1_555
O18_2 C60_2 1_555 1_555
O27_2 C73_2 1_555 1_555
C39_2 C48_2 1_555 1_555
C45_2 C46_2 1_555 1_555
C47_2 C48_2 1_555 1_555
C50_2 C51_2 1_555 1_555
C52_2 C60_2 1_555 1_555
C54_2 C59_2 1_555 1_555
C58_2 C59_2 1_555 1_555
Cd6 N4_2 1_555 1_555
N4 C24_2 1_555 1_555
N6 C31_2 1_555 1_555
C25_2 C24_2 1_555 1_555
C26_2 C25_2 1_555 1_555
C27_2 C26_2 1_555 1_555
H17_2 C27_2 1_555 1_555
C28_2 N4 1_555 1_555
H18_2 C28_2 1_555 1_555
C29_2 C26_2 1_555 1_555
C30_2 C29_2 1_555 1_555
H19_2 C30_2 1_555 1_555
C31_2 C30_2 1_555 1_555
H20_2 C31_2 1_555 1_555
C32_2 N6 1_555 1_555
H21_2 C32_2 1_555 1_555
C33_2 C29_2 1_555 1_555
H22_2 C33_2 1_555 1_555
C27_2 C28_2 1_555 1_555
C32_2 C33_2 1_555 1_555
N4_2 C61_2 1_555 1_555
C61_2 H44_2 1_555 1_555
C62_2 C61_2 1_555 1_555
H45_2 C62_2 1_555 1_555
C63_2 C62_2 1_555 1_555
C64_2 C63_2 1_555 1_555
H46_2 C64_2 1_555 1_555
C65_2 N4_2 1_555 1_555
H47_2 C65_2 1_555 1_555
C66_2 C63_2 1_555 1_555
C67_2 C66_2 1_555 1_555
H48_2 C67_2 1_555 1_555
C68_2 N6_2 1_555 1_555
H49_2 C68_2 1_555 1_555
C69_2 N6_2 1_555 1_555
H50_2 C69_2 1_555 1_555
C70_2 C66_2 1_555 1_555
H51_2 C70_2 1_555 1_555
C64_2 C65_2 1_555 1_555
C67_2 C68_2 1_555 1_555
C69_2 C70_2 1_555 1_555

#END
