
###############################################################################
#
# This file contains modified crystal structure data generated from the
# MOF subset of the Cambridge Structural Database (CSD) v543 
# hosted by the Cambridge Crystallographic Data Centre (CCDC).
#
# This work is licensed under the Creative Commons
# Attribution-NonCommercial-ShareAlike 4.0 International License.
# To view a copy of this license, visit
# http://creativecommons.org/licenses/by-nc-sa/4.0/
# or send a letter to
# Creative Commons, PO Box 1866, Mountain View, CA 94042, USA.
#
# CIF created using the CSD Python API on 29 September 2022
# The structure has been converted into the P1 space group
# The structure has a 3D framework
# The original CSD entry LIKBAJ is in the orthorhombic crystal system
# The framework has been calculated to contain at least 10.0% void space
# The void calculation uses a probe of radius 1.32A, grid spacing 0.4
# H atom positions have been added when not included in the experimental data
#
###############################################################################

data_LIKBAJ
_chemical_formula_moiety         '(C136 H152 Cu8 N16 O37)n'
_symmetry_cell_setting           triclinic
_symmetry_space_group_name_H-M   'P 1'
_symmetry_Int_Tables_number      1
_space_group_name_Hall           'P 1'
loop_
_symmetry_equiv_pos_site_id
_symmetry_equiv_pos_as_xyz
1 x,y,z
_cell_length_a                   21.141(3)
_cell_length_b                   10.4028(16)
_cell_length_c                   19.250(3)
_cell_angle_alpha                90
_cell_angle_beta                 90
_cell_angle_gamma                90
_cell_volume                     4233.57
loop_
_atom_site_label
_atom_site_type_symbol
_atom_site_fract_x
_atom_site_fract_y
_atom_site_fract_z
Cu5 Cu 0.030660(19) 0.27508(4) 0.80867(2)
O6 O 0.07706(13) 0.0659(2) 0.82536(14)
H18 H 0.005(3) 0.1257(15) 0.721(3)
O8 O 0.05122(13) 0.7220(2) 0.65520(14)
O10 O 0.02499(11) 0.9668(2) 0.74073(13)
O12 O 0.00507(12) 0.7025(2) 0.78087(13)
O14 O 0.15187(14) 0.7252(3) 0.69004(17)
C31 C 0.07230(16) 0.7209(3) 0.7769(2)
H33 H 0.0927 0.6472 0.7993
C32 C 0.09429(16) 0.7251(3) 0.7016(2)
C33 C 0.06182(16) 0.9675(3) 0.79305(18)
C34 C 0.08933(18) 0.8412(3) 0.8183(2)
H34 H 0.0758 0.8282 0.8659
H35 H 0.1350 0.8492 0.8187
H1 H 0.5456 0.0263 0.1167
C10 C 0.5817(2) 0.0130(4) 0.0217(2)
H10 H 0.5858 0.1011 0.0149
H7 H 0.7209 0.0769 0.8253
H12 H 0.6240 0.0685 0.9008
H19 H 0.9544 0.0263 0.6167
H25 H 0.7791 0.0769 0.3253
C27 C 0.9183(2) 0.0130(4) 0.5217(2)
H28 H 0.9142 0.1011 0.5149
H30 H 0.8760 0.0685 0.4008
N2 N 0.55328(15) 0.8426(3) 0.09717(15)
C1 C 0.5584(2) 0.9675(4) 0.0832(2)
C11 C 0.5677(3) 0.7620(4) 0.0461(2)
H11 H 0.5626 0.6743 0.0535
Cu3 Cu 0.530660(19) 0.77508(4) 0.19133(2)
Cu1 Cu 0.969340(19) 0.77508(4) 0.69133(2)
N1 N 0.88953(13) 0.8393(3) 0.73468(16)
C2 C 0.88702(18) 0.8770(4) 0.80076(19)
H2 H 0.9234 0.8719 0.8277
C3 C 0.69238(19) 0.9313(4) 0.8870(2)
H3 H 0.7198 0.9591 0.9244
H4 H 0.6936 0.8382 0.8851
C4 C 0.59914(17) 0.9299(4) 0.9698(2)
C5 C 0.8322(2) 0.9233(4) 0.8305(2)
H5 H 0.8321 0.9483 0.8769
C6 C 0.83597(19) 0.8481(5) 0.6977(2)
H6 H 0.8364 0.8199 0.6519
C7 C 0.7162(3) 0.9848(6) 0.8198(3)
H8 H 0.6838 0.9710 0.7849
C8 C 0.77731(19) 0.9326(4) 0.7919(2)
C9 C 0.7809(2) 0.8960(5) 0.7238(3)
H9 H 0.7457 0.9038 0.6952
C12 C 0.6251(2) 0.9753(5) 0.9016(2)
H13 H 0.5978 0.9445 0.8647
C13 C 0.5898(3) 0.8023(4) 0.9833(2)
H14 H 0.5987 0.7420 0.9490
O1 O 0.92294(13) 0.5659(2) 0.67464(14)
O2 O 0.94878(13) 0.2220(2) 0.84480(14)
O3 O 0.97501(11) 0.4668(2) 0.75927(13)
O4 O 0.99493(12) 0.2025(2) 0.71913(13)
O5 O 0.84813(14) 0.2252(3) 0.80996(17)
C14 C 0.92770(16) 0.2209(3) 0.7231(2)
H15 H 0.9073 0.1472 0.7007
C15 C 0.90571(16) 0.2251(3) 0.7984(2)
C16 C 0.93818(16) 0.4675(3) 0.70695(18)
C17 C 0.91067(18) 0.3412(3) 0.6817(2)
H16 H 0.9242 0.3282 0.6341
H17 H 0.8650 0.3492 0.6813
N3 N 0.61047(13) 0.8393(3) 0.23468(16)
N4 N 0.94672(15) 0.8426(3) 0.59717(15)
C18 C 0.9416(2) 0.9675(4) 0.5832(2)
C19 C 0.61298(18) 0.8770(4) 0.30076(19)
H20 H 0.5766 0.8719 0.3277
C20 C 0.80762(19) 0.9313(4) 0.3870(2)
H21 H 0.7802 0.9591 0.4244
H22 H 0.8064 0.8382 0.3851
C21 C 0.90086(17) 0.9299(4) 0.4698(2)
C22 C 0.6678(2) 0.9233(4) 0.3305(2)
H23 H 0.6679 0.9483 0.3769
C23 C 0.66403(19) 0.8481(5) 0.1977(2)
H24 H 0.6636 0.8199 0.1519
C24 C 0.7838(3) 0.9848(6) 0.3198(3)
H26 H 0.8162 0.9710 0.2849
C25 C 0.72269(19) 0.9326(4) 0.2919(2)
C26 C 0.7191(2) 0.8960(5) 0.2238(3)
H27 H 0.7543 0.9038 0.1952
C28 C 0.9323(3) 0.7620(4) 0.5461(2)
H29 H 0.9374 0.6743 0.5535
C29 C 0.8749(2) 0.9753(5) 0.4016(2)
H31 H 0.9022 0.9445 0.3647
C30 C 0.9102(3) 0.8023(4) 0.4833(2)
H32 H 0.9013 0.7420 0.4490
O7 O 0.57706(13) 0.5659(2) 0.17464(14)
O9 O 0.44878(13) 0.7220(2) 0.15520(14)
O11 O 0.47501(11) 0.9668(2) 0.24073(13)
O13 O 0.49493(12) 0.7025(2) 0.28087(13)
H36 H 0.995(3) 0.6257(15) 0.779(3)
H37 H 0.505(3) 0.6257(15) 0.279(3)
H38 H 0.448248 0.712577 0.282574
Cu2 Cu 0.469340(19) 0.27508(4) 0.30867(2)
N3_2 N 0.38953(13) 0.3393(3) 0.26532(16)
N5 N 0.44672(15) 0.3426(3) 0.40283(15)
C19_2 C 0.38702(18) 0.3770(4) 0.19924(19)
H20_2 H 0.4234 0.3719 0.1723
C20_2 C 0.19238(19) 0.4313(4) 0.1130(2)
H21_2 H 0.2198 0.4591 0.0756
H22_2 H 0.1936 0.3382 0.1149
C21_2 C 0.09914(17) 0.4299(4) 0.0302(2)
C22_2 C 0.3322(2) 0.4233(4) 0.1695(2)
H23_2 H 0.3321 0.4483 0.1231
C23_2 C 0.33597(19) 0.3481(5) 0.3023(2)
H24_2 H 0.3364 0.3199 0.3481
C24_2 C 0.2162(3) 0.4848(6) 0.1802(3)
H25_2 H 0.2209 0.5769 0.1747
H26_2 H 0.1838 0.4710 0.2151
C25_2 C 0.27731(19) 0.4326(4) 0.2081(2)
C26_2 C 0.2809(2) 0.3960(5) 0.2762(3)
H27_2 H 0.2457 0.4038 0.3048
C29_2 C 0.1251(2) 0.4753(5) 0.0984(2)
H30_2 H 0.1240 0.5685 0.0992
H31_2 H 0.0978 0.4445 0.1353
C30_2 C 0.0898(3) 0.3023(4) 0.0167(2)
H32_2 H 0.0987 0.2420 0.0510
O7_2 O 0.42294(13) 0.0659(2) 0.32536(14)
O9_2 O 0.55122(13) 0.2220(2) 0.34480(14)
O11_2 O 0.52499(11) 0.4668(2) 0.25927(13)
O13_2 O 0.50507(12) 0.2025(2) 0.21913(13)
H37_2 H 0.495(3) 0.1257(15) 0.221(3)
H38_2 H 0.551752 0.212577 0.217426
N1_2 N 0.11047(13) 0.3393(3) 0.76532(16)
C1_2 C 0.4416(2) 0.4675(4) 0.4168(2)
H1_2 H 0.4544 0.5263 0.3833
C2_2 C 0.11298(18) 0.3770(4) 0.69924(19)
H2_2 H 0.0766 0.3719 0.6723
C3_2 C 0.30762(19) 0.4313(4) 0.6130(2)
H3_2 H 0.2802 0.4591 0.5756
H4_2 H 0.3064 0.3382 0.6149
C4_2 C 0.40086(17) 0.4299(4) 0.5302(2)
C5_2 C 0.1678(2) 0.4233(4) 0.6695(2)
H5_2 H 0.1679 0.4483 0.6231
C6_2 C 0.16403(19) 0.3481(5) 0.8023(2)
H6_2 H 0.1636 0.3199 0.8481
C7_2 C 0.2838(3) 0.4848(6) 0.6802(3)
H7_2 H 0.2791 0.5769 0.6747
H8_2 H 0.3162 0.4710 0.7151
C8_2 C 0.22269(19) 0.4326(4) 0.7081(2)
C9_2 C 0.2191(2) 0.3960(5) 0.7762(3)
H9_2 H 0.2543 0.4038 0.8048
C10_2 C 0.4183(2) 0.5130(4) 0.4783(2)
H10_2 H 0.4142 0.6011 0.4851
C11_2 C 0.4323(3) 0.2620(4) 0.4539(2)
H11_2 H 0.4374 0.1743 0.4465
C12_2 C 0.3749(2) 0.4753(5) 0.5984(2)
H12_2 H 0.3760 0.5685 0.5992
H13_2 H 0.4022 0.4445 0.6353
C13_2 C 0.4102(3) 0.3023(4) 0.5167(2)
H14_2 H 0.4013 0.2420 0.5510
N4_2 N 0.05328(15) 0.3426(3) 0.90283(15)
C18_2 C 0.0584(2) 0.4675(4) 0.9168(2)
H19_2 H 0.0456 0.5263 0.8833
C27_2 C 0.0817(2) 0.5130(4) 0.9783(2)
H28_2 H 0.0858 0.6011 0.9851
C28_2 C 0.0677(3) 0.2620(4) 0.9539(2)
H29_2 H 0.0626 0.1743 0.9465
O14_2 O 0.65187(14) 0.2252(3) 0.30996(17)
C31_2 C 0.57230(16) 0.2209(3) 0.2231(2)
H33_2 H 0.5927 0.1472 0.2007
C32_2 C 0.59429(16) 0.2251(3) 0.2984(2)
C33_2 C 0.56182(16) 0.4675(3) 0.20695(18)
C34_2 C 0.58933(18) 0.3412(3) 0.1817(2)
H34_2 H 0.5758 0.3282 0.1341
H35_2 H 0.6350 0.3492 0.1813
O5_2 O 0.34813(14) 0.7252(3) 0.19004(17)
C14_2 C 0.42770(16) 0.7209(3) 0.2769(2)
H15_2 H 0.4073 0.6472 0.2993
C15_2 C 0.40571(16) 0.7251(3) 0.2016(2)
C16_2 C 0.43818(16) 0.9675(3) 0.29305(18)
C17_2 C 0.41067(18) 0.8412(3) 0.3183(2)
H16_2 H 0.4242 0.8282 0.3659
H17_2 H 0.3650 0.8492 0.3187
H38_3 H 0.948248 0.212577 0.717426
H38_4 H 0.0517521 0.712577 0.782574
O9_3 O 0.05122(13) 0.7780(2) 0.15520(14)
O11_3 O 0.02499(11) 0.5332(2) 0.24073(13)
O13_3 O 0.00507(12) 0.7975(2) 0.28087(13)
H38_5 H 0.0517521 0.787423 0.282574
O2_2 O 0.55122(13) 0.2780(2) 0.84480(14)
O3_2 O 0.52499(11) 0.0332(2) 0.75927(13)
O4_2 O 0.50507(12) 0.2975(2) 0.71913(13)
O5_3 O 0.65187(14) 0.2748(3) 0.80996(17)
C14_3 C 0.57230(16) 0.2791(3) 0.7231(2)
H15_3 H 0.5927 0.3528 0.7007
C15_3 C 0.59429(16) 0.2749(3) 0.7984(2)
C16_3 C 0.56182(16) 0.0325(3) 0.70695(18)
C17_3 C 0.58933(18) 0.1588(3) 0.6817(2)
H16_3 H 0.5758 0.1718 0.6341
H17_3 H 0.6350 0.1508 0.6813
H18_2 H 0.495(3) 0.3743(15) 0.721(3)
Cu4 Cu 0.469340(19) 0.22492(4) 0.80867(2)
N2_2 N 0.94672(15) 0.6574(3) 0.09717(15)
C1_3 C 0.9416(2) 0.5325(4) 0.0832(2)
H1_3 H 0.9544 0.4737 0.1167
C10_3 C 0.9183(2) 0.4870(4) 0.0217(2)
H10_3 H 0.9142 0.3989 0.0149
C11_3 C 0.9323(3) 0.7380(4) 0.0461(2)
H11_3 H 0.9374 0.8257 0.0535
Cu3_2 Cu 0.969340(19) 0.72492(4) 0.19133(2)
Cu1_2 Cu 0.530660(19) 0.72492(4) 0.69133(2)
N1_3 N 0.61047(13) 0.6607(3) 0.73468(16)
C2_3 C 0.61298(18) 0.6230(4) 0.80076(19)
H2_3 H 0.5766 0.6281 0.8277
C3_3 C 0.80762(19) 0.5687(4) 0.8870(2)
H3_3 H 0.7802 0.5409 0.9244
H4_3 H 0.8064 0.6618 0.8851
C4_3 C 0.90086(17) 0.5701(4) 0.9698(2)
C5_3 C 0.6678(2) 0.5767(4) 0.8305(2)
H5_3 H 0.6679 0.5517 0.8769
C6_3 C 0.66403(19) 0.6519(5) 0.6977(2)
H6_3 H 0.6636 0.6801 0.6519
C7_3 C 0.7838(3) 0.5152(6) 0.8198(3)
H7_3 H 0.7791 0.4231 0.8253
H8_3 H 0.8162 0.5290 0.7849
C8_3 C 0.72269(19) 0.5674(4) 0.7919(2)
C9_3 C 0.7191(2) 0.6040(5) 0.7238(3)
H9_3 H 0.7543 0.5962 0.6952
C12_3 C 0.8749(2) 0.5247(5) 0.9016(2)
H12_3 H 0.8760 0.4315 0.9008
H13_3 H 0.9022 0.5555 0.8647
C13_3 C 0.9102(3) 0.6977(4) 0.9833(2)
H14_3 H 0.9013 0.7580 0.9490
O1_2 O 0.57706(13) 0.9341(2) 0.67464(14)
N3_3 N 0.88953(13) 0.6607(3) 0.23468(16)
N4_3 N 0.55328(15) 0.6574(3) 0.59717(15)
C18_3 C 0.5584(2) 0.5325(4) 0.5832(2)
H19_3 H 0.5456 0.4737 0.6167
C19_3 C 0.88702(18) 0.6230(4) 0.30076(19)
H20_3 H 0.9234 0.6281 0.3277
C20_3 C 0.69238(19) 0.5687(4) 0.3870(2)
H21_3 H 0.7198 0.5409 0.4244
H22_3 H 0.6936 0.6618 0.3851
C21_3 C 0.59914(17) 0.5701(4) 0.4698(2)
C22_3 C 0.8322(2) 0.5767(4) 0.3305(2)
H23_3 H 0.8321 0.5517 0.3769
C23_3 C 0.83597(19) 0.6519(5) 0.1977(2)
H24_3 H 0.8364 0.6801 0.1519
C24_3 C 0.7162(3) 0.5152(6) 0.3198(3)
H25_3 H 0.7209 0.4231 0.3253
H26_3 H 0.6838 0.5290 0.2849
C25_3 C 0.77731(19) 0.5674(4) 0.2919(2)
C26_3 C 0.7809(2) 0.6040(5) 0.2238(3)
H27_3 H 0.7457 0.5962 0.1952
C27_3 C 0.5817(2) 0.4870(4) 0.5217(2)
H28_3 H 0.5858 0.3989 0.5149
C28_3 C 0.5677(3) 0.7380(4) 0.5461(2)
H29_3 H 0.5626 0.8257 0.5535
C29_3 C 0.6251(2) 0.5247(5) 0.4016(2)
H30_3 H 0.6240 0.4315 0.4008
H31_3 H 0.5978 0.5555 0.3647
C30_3 C 0.5898(3) 0.6977(4) 0.4833(2)
H32_3 H 0.5987 0.7580 0.4490
O6_2 O 0.42294(13) 0.4341(2) 0.82536(14)
O7_3 O 0.92294(13) 0.9341(2) 0.17464(14)
O8_2 O 0.44878(13) 0.7780(2) 0.65520(14)
O10_2 O 0.47501(11) 0.5332(2) 0.74073(13)
O12_2 O 0.49493(12) 0.7975(2) 0.78087(13)
O14_3 O 0.34813(14) 0.7748(3) 0.69004(17)
C31_3 C 0.42770(16) 0.7791(3) 0.7769(2)
H33_3 H 0.4073 0.8528 0.7993
C32_3 C 0.40571(16) 0.7749(3) 0.7016(2)
C33_3 C 0.43818(16) 0.5325(3) 0.79305(18)
C34_3 C 0.41067(18) 0.6588(3) 0.8183(2)
H34_3 H 0.4242 0.6718 0.8659
H35_3 H 0.3650 0.6508 0.8187
H36_2 H 0.505(3) 0.8743(15) 0.779(3)
H37_3 H 0.995(3) 0.8743(15) 0.279(3)
Cu2_2 Cu 0.030660(19) 0.22492(4) 0.30867(2)
N3_4 N 0.11047(13) 0.1607(3) 0.26532(16)
N5_2 N 0.05328(15) 0.1574(3) 0.40283(15)
C19_4 C 0.11298(18) 0.1230(4) 0.19924(19)
H20_4 H 0.0766 0.1281 0.1723
C20_4 C 0.30762(19) 0.0687(4) 0.1130(2)
H21_4 H 0.2802 0.0409 0.0756
H22_4 H 0.3064 0.1618 0.1149
C21_4 C 0.40086(17) 0.0701(4) 0.0302(2)
C22_4 C 0.1678(2) 0.0767(4) 0.1695(2)
H23_4 H 0.1679 0.0517 0.1231
C23_4 C 0.16403(19) 0.1519(5) 0.3023(2)
H24_4 H 0.1636 0.1801 0.3481
C24_4 C 0.2838(3) 0.0152(6) 0.1802(3)
H26_4 H 0.3162 0.0290 0.2151
C25_4 C 0.22269(19) 0.0674(4) 0.2081(2)
C26_4 C 0.2191(2) 0.1040(5) 0.2762(3)
H27_4 H 0.2543 0.0962 0.3048
C29_4 C 0.3749(2) 0.0247(5) 0.0984(2)
H31_4 H 0.4022 0.0555 0.1353
C30_4 C 0.4102(3) 0.1977(4) 0.0167(2)
H32_4 H 0.4013 0.2580 0.0510
O7_4 O 0.07706(13) 0.4341(2) 0.32536(14)
H37_4 H 0.005(3) 0.3743(15) 0.221(3)
N1_4 N 0.38953(13) 0.1607(3) 0.76532(16)
C1_4 C 0.0584(2) 0.0325(4) 0.4168(2)
C2_4 C 0.38702(18) 0.1230(4) 0.69924(19)
H2_4 H 0.4234 0.1281 0.6723
C3_4 C 0.19238(19) 0.0687(4) 0.6130(2)
H3_4 H 0.2198 0.0409 0.5756
H4_4 H 0.1936 0.1618 0.6149
C4_4 C 0.09914(17) 0.0701(4) 0.5302(2)
C5_4 C 0.3322(2) 0.0767(4) 0.6695(2)
H5_4 H 0.3321 0.0517 0.6231
C6_4 C 0.33597(19) 0.1519(5) 0.8023(2)
H6_4 H 0.3364 0.1801 0.8481
C7_4 C 0.2162(3) 0.0152(6) 0.6802(3)
H8_4 H 0.1838 0.0290 0.7151
C8_4 C 0.27731(19) 0.0674(4) 0.7081(2)
C9_4 C 0.2809(2) 0.1040(5) 0.7762(3)
H9_4 H 0.2457 0.0962 0.8048
C11_4 C 0.0677(3) 0.2380(4) 0.4539(2)
H11_4 H 0.0626 0.3257 0.4465
C12_4 C 0.1251(2) 0.0247(5) 0.5984(2)
H13_4 H 0.0978 0.0555 0.6353
C13_4 C 0.0898(3) 0.1977(4) 0.5167(2)
H14_4 H 0.0987 0.2580 0.5510
N4_4 N 0.44672(15) 0.1574(3) 0.90283(15)
C18_4 C 0.4416(2) 0.0325(4) 0.9168(2)
C28_4 C 0.4323(3) 0.2380(4) 0.9539(2)
H29_4 H 0.4374 0.3257 0.9465
H25_4 H 0.2791 0.9231 0.1747
H30_4 H 0.3760 0.9315 0.0992
H1_4 H 0.0456 0.9737 0.3833
H7_4 H 0.2209 0.9231 0.6747
C10_4 C 0.0817(2) 0.9870(4) 0.4783(2)
H10_4 H 0.0858 0.8989 0.4851
H12_4 H 0.1240 0.9315 0.5992
H19_4 H 0.4544 0.9737 0.8833
C27_4 C 0.4183(2) 0.9870(4) 0.9783(2)
H28_4 H 0.4142 0.8989 0.9851
O9_4 O 0.94878(13) 0.2780(2) 0.34480(14)
O11_4 O 0.97501(11) 0.0332(2) 0.25927(13)
O13_4 O 0.99493(12) 0.2975(2) 0.21913(13)
H38_6 H 0.948248 0.287423 0.217426
O5_4 O 0.15187(14) 0.7748(3) 0.19004(17)
C14_4 C 0.07230(16) 0.7791(3) 0.2769(2)
H15_4 H 0.0927 0.8528 0.2993
C15_4 C 0.09429(16) 0.7749(3) 0.2016(2)
C16_4 C 0.06182(16) 0.5325(3) 0.29305(18)
C17_4 C 0.08933(18) 0.6588(3) 0.3183(2)
H16_4 H 0.0758 0.6718 0.3659
H17_4 H 0.1350 0.6508 0.3187
H38_7 H 0.551752 0.287423 0.717426
O14_4 O 0.84813(14) 0.2748(3) 0.30996(17)
C31_4 C 0.92770(16) 0.2791(3) 0.2231(2)
H33_4 H 0.9073 0.3528 0.2007
C32_4 C 0.90571(16) 0.2749(3) 0.2984(2)
C33_4 C 0.93818(16) 0.0325(3) 0.20695(18)
C34_4 C 0.91067(18) 0.1588(3) 0.1817(2)
H34_4 H 0.9242 0.1718 0.1341
H35_4 H 0.8650 0.1508 0.1813
H38_8 H 0.448248 0.787423 0.782574
loop_
_geom_bond_atom_site_label_1
_geom_bond_atom_site_label_2
_geom_bond_site_symmetry_1
_geom_bond_site_symmetry_2
Cu5 O6 1_555 1_555
O14 C32 1_555 1_555
C31 O12 1_555 1_555
H33 C31 1_555 1_555
C32 O8 1_555 1_555
C33 O10 1_555 1_555
C34 C31 1_555 1_555
H34 C34 1_555 1_555
H35 C34 1_555 1_555
C31 C32 1_555 1_555
C33 C34 1_555 1_555
H10 C10 1_555 1_555
H28 C27 1_555 1_555
N2 C1 1_555 1_555
C11 N2 1_555 1_555
H11 C11 1_555 1_555
Cu3 N2 1_555 1_555
Cu1 N1 1_555 1_555
N1 C2 1_555 1_555
C2 H2 1_555 1_555
C3 H3 1_555 1_555
H4 C3 1_555 1_555
C5 C2 1_555 1_555
H5 C5 1_555 1_555
C6 N1 1_555 1_555
H6 C6 1_555 1_555
C7 C3 1_555 1_555
H8 C7 1_555 1_555
C8 C5 1_555 1_555
C9 C6 1_555 1_555
H9 C9 1_555 1_555
C12 C3 1_555 1_555
H13 C12 1_555 1_555
C13 C4 1_555 1_555
H14 C13 1_555 1_555
O1 Cu1 1_555 1_555
O2 C15 1_555 1_555
O3 C16 1_555 1_555
O4 C14 1_555 1_555
O5 C15 1_555 1_555
C14 H15 1_555 1_555
C15 C14 1_555 1_555
C16 O1 1_555 1_555
C17 C14 1_555 1_555
H16 C17 1_555 1_555
H17 C17 1_555 1_555
Cu3 N3 1_555 1_555
N3 C19 1_555 1_555
N4 Cu1 1_555 1_555
C18 N4 1_555 1_555
C19 H20 1_555 1_555
C20 H21 1_555 1_555
H22 C20 1_555 1_555
C22 C19 1_555 1_555
H23 C22 1_555 1_555
C23 N3 1_555 1_555
H24 C23 1_555 1_555
C24 C20 1_555 1_555
H26 C24 1_555 1_555
C25 C22 1_555 1_555
C26 C23 1_555 1_555
H27 C26 1_555 1_555
C28 N4 1_555 1_555
H29 C28 1_555 1_555
C29 C20 1_555 1_555
H31 C29 1_555 1_555
C30 C21 1_555 1_555
H32 C30 1_555 1_555
O7 Cu3 1_555 1_555
O9 Cu3 1_555 1_555
O11 Cu3 1_555 1_555
O13 Cu3 1_555 1_555
H37 O13 1_555 1_555
C4 C12 1_555 1_555
C7 C8 1_555 1_555
C8 C9 1_555 1_555
C16 C17 1_555 1_555
C21 C29 1_555 1_555
C24 C25 1_555 1_555
C25 C26 1_555 1_555
C28 C30 1_555 1_555
O13 H38 1_555 1_555
Cu2 N3_2 1_555 1_555
N3_2 C19_2 1_555 1_555
N5 Cu2 1_555 1_555
C19_2 H20_2 1_555 1_555
C20_2 H21_2 1_555 1_555
H22_2 C20_2 1_555 1_555
C22_2 C19_2 1_555 1_555
H23_2 C22_2 1_555 1_555
C23_2 N3_2 1_555 1_555
H24_2 C23_2 1_555 1_555
C24_2 C20_2 1_555 1_555
H25_2 C24_2 1_555 1_555
H26_2 C24_2 1_555 1_555
C25_2 C22_2 1_555 1_555
C26_2 C23_2 1_555 1_555
H27_2 C26_2 1_555 1_555
C29_2 C20_2 1_555 1_555
H30_2 C29_2 1_555 1_555
H31_2 C29_2 1_555 1_555
C30_2 C21_2 1_555 1_555
H32_2 C30_2 1_555 1_555
O7_2 Cu2 1_555 1_555
O9_2 Cu2 1_555 1_555
O11_2 Cu2 1_555 1_555
O13_2 Cu2 1_555 1_555
H37_2 O13_2 1_555 1_555
C21_2 C29_2 1_555 1_555
C24_2 C25_2 1_555 1_555
C25_2 C26_2 1_555 1_555
O13_2 H38_2 1_555 1_555
Cu5 N1_2 1_555 1_555
N1_2 C2_2 1_555 1_555
N5 C1_2 1_555 1_555
C1_2 H1_2 1_555 1_555
C2_2 H2_2 1_555 1_555
C3_2 H3_2 1_555 1_555
H4_2 C3_2 1_555 1_555
C4_2 C10_2 1_555 1_555
C5_2 C2_2 1_555 1_555
H5_2 C5_2 1_555 1_555
C6_2 N1_2 1_555 1_555
H6_2 C6_2 1_555 1_555
C7_2 C3_2 1_555 1_555
H7_2 C7_2 1_555 1_555
H8_2 C7_2 1_555 1_555
C8_2 C5_2 1_555 1_555
C9_2 C6_2 1_555 1_555
H9_2 C9_2 1_555 1_555
C10_2 C1_2 1_555 1_555
H10_2 C10_2 1_555 1_555
C11_2 N5 1_555 1_555
H11_2 C11_2 1_555 1_555
C12_2 C3_2 1_555 1_555
H12_2 C12_2 1_555 1_555
H13_2 C12_2 1_555 1_555
C13_2 C4_2 1_555 1_555
H14_2 C13_2 1_555 1_555
N4_2 Cu5 1_555 1_555
C18_2 N4_2 1_555 1_555
H19_2 C18_2 1_555 1_555
C27_2 C18_2 1_555 1_555
H28_2 C27_2 1_555 1_555
C28_2 N4_2 1_555 1_555
H29_2 C28_2 1_555 1_555
C4_2 C12_2 1_555 1_555
C7_2 C8_2 1_555 1_555
C8_2 C9_2 1_555 1_555
C11_2 C13_2 1_555 1_555
O7 C33_2 1_555 1_555
O14_2 C32_2 1_555 1_555
C31_2 O13_2 1_555 1_555
H33_2 C31_2 1_555 1_555
C32_2 O9_2 1_555 1_555
C33_2 O11_2 1_555 1_555
C34_2 C31_2 1_555 1_555
H34_2 C34_2 1_555 1_555
H35_2 C34_2 1_555 1_555
C31_2 C32_2 1_555 1_555
C33_2 C34_2 1_555 1_555
O9 C15_2 1_555 1_555
O11 C16_2 1_555 1_555
O13 C14_2 1_555 1_555
O5_2 C15_2 1_555 1_555
C14_2 H15_2 1_555 1_555
C15_2 C14_2 1_555 1_555
C17_2 C14_2 1_555 1_555
H16_2 C17_2 1_555 1_555
H17_2 C17_2 1_555 1_555
C16_2 C17_2 1_555 1_555
O4 H38_3 1_555 1_555
O12 H38_4 1_555 1_555
O13_3 H38_5 1_555 1_555
O2_2 C15_3 1_555 1_555
O3_2 C16_3 1_555 1_555
O4_2 C14_3 1_555 1_555
O5_3 C15_3 1_555 1_555
C14_3 H15_3 1_555 1_555
C15_3 C14_3 1_555 1_555
C17_3 C14_3 1_555 1_555
H16_3 C17_3 1_555 1_555
H17_3 C17_3 1_555 1_555
H18_2 O4_2 1_555 1_555
Cu4 O2_2 1_555 1_555
O3_2 Cu4 1_555 1_555
O4_2 Cu4 1_555 1_555
C16_3 C17_3 1_555 1_555
N2_2 C1_3 1_555 1_555
C1_3 H1_3 1_555 1_555
C10_3 C1_3 1_555 1_555
H10_3 C10_3 1_555 1_555
C11_3 N2_2 1_555 1_555
H11_3 C11_3 1_555 1_555
Cu3_2 N2_2 1_555 1_555
Cu1_2 N1_3 1_555 1_555
N1_3 C2_3 1_555 1_555
C2_3 H2_3 1_555 1_555
C3_3 H3_3 1_555 1_555
H4_3 C3_3 1_555 1_555
C5_3 C2_3 1_555 1_555
H5_3 C5_3 1_555 1_555
C6_3 N1_3 1_555 1_555
H6_3 C6_3 1_555 1_555
C7_3 C3_3 1_555 1_555
H7_3 C7_3 1_555 1_555
H8_3 C7_3 1_555 1_555
C8_3 C5_3 1_555 1_555
C9_3 C6_3 1_555 1_555
H9_3 C9_3 1_555 1_555
C12_3 C3_3 1_555 1_555
H12_3 C12_3 1_555 1_555
H13_3 C12_3 1_555 1_555
C13_3 C4_3 1_555 1_555
H14_3 C13_3 1_555 1_555
O1_2 Cu1_2 1_555 1_555
Cu3_2 N3_3 1_555 1_555
Cu4 O6_2 1_555 1_555
N3_3 C19_3 1_555 1_555
N4_3 Cu1_2 1_555 1_555
C18_3 N4_3 1_555 1_555
H19_3 C18_3 1_555 1_555
C19_3 H20_3 1_555 1_555
C20_3 H21_3 1_555 1_555
H22_3 C20_3 1_555 1_555
C21_3 C27_3 1_555 1_555
C22_3 C19_3 1_555 1_555
H23_3 C22_3 1_555 1_555
C23_3 N3_3 1_555 1_555
H24_3 C23_3 1_555 1_555
C24_3 C20_3 1_555 1_555
H25_3 C24_3 1_555 1_555
H26_3 C24_3 1_555 1_555
C25_3 C22_3 1_555 1_555
C26_3 C23_3 1_555 1_555
H27_3 C26_3 1_555 1_555
C27_3 C18_3 1_555 1_555
H28_3 C27_3 1_555 1_555
C28_3 N4_3 1_555 1_555
H29_3 C28_3 1_555 1_555
C29_3 C20_3 1_555 1_555
H30_3 C29_3 1_555 1_555
H31_3 C29_3 1_555 1_555
C30_3 C21_3 1_555 1_555
H32_3 C30_3 1_555 1_555
O6_2 C33_3 1_555 1_555
O7_3 Cu3_2 1_555 1_555
O8_2 Cu1_2 1_555 1_555
O10_2 Cu1_2 1_555 1_555
O12_2 Cu1_2 1_555 1_555
O14_3 C32_3 1_555 1_555
C31_3 O12_2 1_555 1_555
H33_3 C31_3 1_555 1_555
C32_3 O8_2 1_555 1_555
C33_3 O10_2 1_555 1_555
C34_3 C31_3 1_555 1_555
H34_3 C34_3 1_555 1_555
H35_3 C34_3 1_555 1_555
H36_2 O12_2 1_555 1_555
C4_3 C12_3 1_555 1_555
C7_3 C8_3 1_555 1_555
C8_3 C9_3 1_555 1_555
C21_3 C29_3 1_555 1_555
C24_3 C25_3 1_555 1_555
C25_3 C26_3 1_555 1_555
C28_3 C30_3 1_555 1_555
C31_3 C32_3 1_555 1_555
C33_3 C34_3 1_555 1_555
Cu2_2 N3_4 1_555 1_555
N3_4 C19_4 1_555 1_555
N5_2 Cu2_2 1_555 1_555
C19_4 H20_4 1_555 1_555
C20_4 H21_4 1_555 1_555
H22_4 C20_4 1_555 1_555
C22_4 C19_4 1_555 1_555
H23_4 C22_4 1_555 1_555
C23_4 N3_4 1_555 1_555
H24_4 C23_4 1_555 1_555
C24_4 C20_4 1_555 1_555
H26_4 C24_4 1_555 1_555
C25_4 C22_4 1_555 1_555
C26_4 C23_4 1_555 1_555
H27_4 C26_4 1_555 1_555
C29_4 C20_4 1_555 1_555
H31_4 C29_4 1_555 1_555
C30_4 C21_4 1_555 1_555
H32_4 C30_4 1_555 1_555
O7_4 Cu2_2 1_555 1_555
C21_4 C29_4 1_555 1_555
C24_4 C25_4 1_555 1_555
C25_4 C26_4 1_555 1_555
Cu4 N1_4 1_555 1_555
N1_4 C2_4 1_555 1_555
N5_2 C1_4 1_555 1_555
C2_4 H2_4 1_555 1_555
C3_4 H3_4 1_555 1_555
H4_4 C3_4 1_555 1_555
C5_4 C2_4 1_555 1_555
H5_4 C5_4 1_555 1_555
C6_4 N1_4 1_555 1_555
H6_4 C6_4 1_555 1_555
C7_4 C3_4 1_555 1_555
H8_4 C7_4 1_555 1_555
C8_4 C5_4 1_555 1_555
C9_4 C6_4 1_555 1_555
H9_4 C9_4 1_555 1_555
C11_4 N5_2 1_555 1_555
H11_4 C11_4 1_555 1_555
C12_4 C3_4 1_555 1_555
H13_4 C12_4 1_555 1_555
C13_4 C4_4 1_555 1_555
H14_4 C13_4 1_555 1_555
N4_4 Cu4 1_555 1_555
C18_4 N4_4 1_555 1_555
C28_4 N4_4 1_555 1_555
H29_4 C28_4 1_555 1_555
C4_4 C12_4 1_555 1_555
C7_4 C8_4 1_555 1_555
C8_4 C9_4 1_555 1_555
C11_4 C13_4 1_555 1_555
H10_4 C10_4 1_555 1_555
H28_4 C27_4 1_555 1_555
O13_4 H38_6 1_555 1_555
O9_3 C15_4 1_555 1_555
O11_3 C16_4 1_555 1_555
O13_3 C14_4 1_555 1_555
O5_4 C15_4 1_555 1_555
C14_4 H15_4 1_555 1_555
C15_4 C14_4 1_555 1_555
C16_4 O7_4 1_555 1_555
C17_4 C14_4 1_555 1_555
H16_4 C17_4 1_555 1_555
H17_4 C17_4 1_555 1_555
C16_4 C17_4 1_555 1_555
O4_2 H38_7 1_555 1_555
O14_4 C32_4 1_555 1_555
C31_4 O13_4 1_555 1_555
H33_4 C31_4 1_555 1_555
C32_4 O9_4 1_555 1_555
C33_4 O11_4 1_555 1_555
C34_4 C31_4 1_555 1_555
H34_4 C34_4 1_555 1_555
H35_4 C34_4 1_555 1_555
C31_4 C32_4 1_555 1_555
C33_4 C34_4 1_555 1_555
O12_2 H38_8 1_555 1_555

#END
