
###############################################################################
#
# This file contains modified crystal structure data generated from the
# MOF subset of the Cambridge Structural Database (CSD) v543 
# hosted by the Cambridge Crystallographic Data Centre (CCDC).
#
# This work is licensed under the Creative Commons
# Attribution-NonCommercial-ShareAlike 4.0 International License.
# To view a copy of this license, visit
# http://creativecommons.org/licenses/by-nc-sa/4.0/
# or send a letter to
# Creative Commons, PO Box 1866, Mountain View, CA 94042, USA.
#
# CIF created using the CSD Python API on 29 September 2022
# The structure has been converted into the P1 space group
# The structure has a 3D framework
# The original CSD entry LIKCOY is in the monoclinic crystal system
# The framework has been calculated to contain at least 10.0% void space
# The void calculation uses a probe of radius 1.32A, grid spacing 0.4
#
###############################################################################

data_LIKCOY
_chemical_formula_moiety         '(C160 H144 Cu19 I10 N38 O8 S8 W8 4+)n'
_symmetry_cell_setting           triclinic
_symmetry_space_group_name_H-M   'P 1'
_symmetry_Int_Tables_number      1
_space_group_name_Hall           'P 1'
loop_
_symmetry_equiv_pos_site_id
_symmetry_equiv_pos_as_xyz
1 x,y,z
_cell_length_a                   17.927(4)
_cell_length_b                   24.839(5)
_cell_length_c                   16.881(3)
_cell_angle_alpha                90.00
_cell_angle_beta                 103.615(3)
_cell_angle_gamma                90.00
_cell_volume                     7305.69
loop_
_atom_site_label
_atom_site_type_symbol
_atom_site_fract_x
_atom_site_fract_y
_atom_site_fract_z
C1 C 0.0497(5) 0.7660(4) 0.3562(6)
H1 H 0.0221 0.7926 0.3231
C2 C 0.1226(5) 0.7623(4) 0.3602(5)
H2 H 0.1467 0.7886 0.3360
C3 C 0.1651(4) 0.7193(3) 0.4002(5)
C4 C 0.1246(5) 0.6874(4) 0.4416(5)
H3 H 0.1490 0.6611 0.4776
C5 C 0.0475(5) 0.6954(4) 0.4286(5)
H4 H 0.0188 0.6688 0.4463
C11 C 0.3690(5) 0.6658(4) 0.4487(5)
H9 H 0.3947 0.6365 0.4766
C12 C 0.2930(5) 0.6747(3) 0.4497(6)
H10 H 0.2713 0.6536 0.4840
C13 C 0.2495(4) 0.7116(3) 0.4043(4)
C14 C 0.2880(4) 0.7497(3) 0.3690(5)
H11 H 0.2629 0.7805 0.3448
C15 C 0.3629(5) 0.7413(3) 0.3704(5)
H12 H 0.3880 0.7657 0.3439
Cu3 Cu 0.51671(5) 0.68255(4) 0.40853(6)
I2 I 0.5000 0.69209(3) 0.2500
N1 N 0.0132(4) 0.7350(3) 0.3952(4)
N2 N 0.4045(4) 0.6972(3) 0.4104(4)
C21 C 0.4503(5) 0.7340(4) 0.6438(6)
H17 H 0.4779 0.7074 0.6769
C22 C 0.3774(5) 0.7377(4) 0.6398(5)
H18 H 0.3533 0.7114 0.6640
C23 C 0.3349(4) 0.7807(3) 0.5998(5)
C24 C 0.3754(5) 0.8126(4) 0.5584(5)
H19 H 0.3510 0.8389 0.5224
C25 C 0.4525(5) 0.8046(4) 0.5714(5)
H20 H 0.4812 0.8312 0.5537
C31 C 0.1310(5) 0.8342(4) 0.5513(5)
H25 H 0.1053 0.8635 0.5234
C32 C 0.2070(5) 0.8253(3) 0.5503(6)
H26 H 0.2287 0.8464 0.5160
C33 C 0.2505(4) 0.7884(3) 0.5957(4)
C34 C 0.2120(4) 0.7503(3) 0.6310(5)
H27 H 0.2371 0.7195 0.6552
C35 C 0.1371(5) 0.7587(3) 0.6296(5)
H28 H 0.1120 0.7343 0.6561
Cu4 Cu 0.59983(5) 0.74564(4) 0.60015(6)
Cu8 Cu 0.55252(6) 0.59354(4) 0.59588(6)
Cu10 Cu 0.48329(5) 0.68255(4) 0.09147(6)
I3 I 0.07468(3) 0.91939(2) 0.36294(3)
I4 I -0.0000 0.80791(3) 0.7500
N5 N 0.4868(4) 0.7650(3) 0.6048(4)
N6 N 0.0955(4) 0.8028(3) 0.5896(4)
N9 N 0.6607(4) 0.8085(3) 0.6565(4)
S4 S 0.55502(13) 0.59901(8) 0.46033(12)
S7 S 0.63098(12) 0.66276(8) 0.65729(12)
S8 S 0.61284(12) 0.73985(8) 0.46995(12)
W3 W 0.641090(17) 0.658370(12) 0.527440(18)
S1 S 0.05502(13) 0.90099(8) 0.96033(12)
Cu11 Cu 0.01671(5) 0.81745(4) 0.90853(6)
S9 S 0.11284(12) 0.76015(8) 0.96995(12)
I1 I 0.92532(3) 0.91939(2) 0.13706(3)
C1_2 C 0.9503(5) 0.7660(4) 0.1438(6)
H1_2 H 0.9779 0.7926 0.1769
C2_2 C 0.8774(5) 0.7623(4) 0.1398(5)
H2_2 H 0.8533 0.7886 0.1640
C3_2 C 0.8349(4) 0.7193(3) 0.0998(5)
C4_2 C 0.8754(5) 0.6874(4) 0.0584(5)
H3_2 H 0.8510 0.6611 0.0224
C5_2 C 0.9525(5) 0.6954(4) 0.0714(5)
H4_2 H 0.9812 0.6688 0.0537
C11_2 C 0.6310(5) 0.6658(4) 0.0513(5)
H9_2 H 0.6053 0.6365 0.0234
C12_2 C 0.7070(5) 0.6747(3) 0.0503(6)
H10_2 H 0.7287 0.6536 0.0160
C13_2 C 0.7505(4) 0.7116(3) 0.0957(4)
C14_2 C 0.7120(4) 0.7497(3) 0.1310(5)
H11_2 H 0.7371 0.7805 0.1552
C15_2 C 0.6371(5) 0.7413(3) 0.1296(5)
H12_2 H 0.6120 0.7657 0.1561
N1_2 N 0.9868(4) 0.7350(3) 0.1048(4)
N2_2 N 0.5955(4) 0.6972(3) 0.0896(4)
S4_2 S 0.44498(13) 0.59901(8) 0.03967(12)
S8_2 S 0.38716(12) 0.73985(8) 0.03005(12)
Cu4_2 Cu 0.90017(5) 0.24564(4) 0.89985(6)
Cu8_2 Cu 0.94748(6) 0.09354(4) 0.90412(6)
N9_2 N 0.8393(4) 0.3085(3) 0.8435(4)
S7_2 S 0.86902(12) 0.16276(8) 0.84271(12)
W3_2 W 0.858910(17) 0.158370(12) 0.972560(18)
C20 C 0.8091(5) 0.0264(3) 0.8499(5)
H16 H 0.7862 0.0542 0.8724
N3 N 0.8877(4) 0.0254(3) 0.8558(5)
O2 O 0.7668(3) 0.1399(2) 0.9736(3)
C6 C 0.6357(5) 0.8423(3) 0.7045(5)
H5 H 0.5858 0.8383 0.7105
C7 C 0.6800(5) 0.8837(3) 0.7467(5)
H6 H 0.6602 0.9056 0.7815
C8 C 0.7515(5) 0.8921(3) 0.7374(5)
C9 C 0.7761(5) 0.8561(3) 0.6883(5)
H7 H 0.8260 0.8591 0.6816
C10 C 0.7332(5) 0.8178(3) 0.6506(5)
H8 H 0.7537 0.7952 0.6173
C16 C 0.9139(5) 0.9851(3) 0.8214(5)
H13 H 0.9660 0.9858 0.8226
C17 C 0.8738(5) 0.9420(4) 0.7836(6)
H14 H 0.8991 0.9152 0.7619
C18 C 0.7990(6) 0.9380(3) 0.7774(5)
C19 C 0.7647(5) 0.9826(4) 0.8074(5)
H15 H 0.7116 0.9836 0.7992
O1 O 0.7332(3) 0.6399(2) 0.5264(3)
C26 C 0.8643(5) 0.3423(3) 0.7955(5)
H21 H 0.9142 0.3383 0.7895
C27 C 0.8200(5) 0.3837(3) 0.7533(5)
H22 H 0.8398 0.4056 0.7185
C28 C 0.7485(5) 0.3921(3) 0.7626(5)
C29 C 0.7239(5) 0.3561(3) 0.8117(5)
H23 H 0.6740 0.3591 0.8184
C30 C 0.7668(5) 0.3178(3) 0.8494(5)
H24 H 0.7463 0.2952 0.8827
C36 C 0.5861(5) 0.4851(3) 0.6786(5)
H29 H 0.5340 0.4858 0.6774
C37 C 0.6262(5) 0.4420(4) 0.7164(6)
H30 H 0.6009 0.4152 0.7381
C38 C 0.7010(6) 0.4380(3) 0.7226(5)
C39 C 0.7353(5) 0.4826(4) 0.6926(5)
H31 H 0.7884 0.4836 0.7008
C40 C 0.6909(5) 0.5264(3) 0.6501(5)
H32 H 0.7138 0.5542 0.6276
I3_2 I 0.42532(3) 0.58061(2) 0.63706(3)
N7 N 0.6123(4) 0.5254(3) 0.6442(5)
C26_2 C 0.6357(5) 0.1577(3) 0.2045(5)
H21_2 H 0.5858 0.1617 0.2105
C27_2 C 0.6800(5) 0.1163(3) 0.2467(5)
H22_2 H 0.6602 0.0944 0.2815
C28_2 C 0.7515(5) 0.1079(3) 0.2374(5)
C29_2 C 0.7761(5) 0.1439(3) 0.1883(5)
H23_2 H 0.8260 0.1409 0.1816
C30_2 C 0.7332(5) 0.1822(3) 0.1506(5)
H24_2 H 0.7537 0.2048 0.1173
C36_2 C 0.9139(5) 0.0149(3) 0.3214(5)
H29_2 H 0.9660 0.0142 0.3226
C37_2 C 0.8738(5) 0.0580(4) 0.2836(6)
H30_2 H 0.8991 0.0848 0.2619
C38_2 C 0.7990(6) 0.0620(3) 0.2774(5)
C39_2 C 0.7647(5) 0.0174(4) 0.3074(5)
H31_2 H 0.7116 0.0164 0.2992
Cu6 Cu 0.59983(5) 0.25436(4) 0.10015(6)
N8 N 0.6607(4) 0.1915(3) 0.1565(4)
C6_2 C 0.8643(5) 0.6577(3) 0.2955(5)
H5_2 H 0.9142 0.6617 0.2895
C7_2 C 0.8200(5) 0.6163(3) 0.2533(5)
H6_2 H 0.8398 0.5944 0.2185
C8_2 C 0.7485(5) 0.6079(3) 0.2626(5)
C9_2 C 0.7239(5) 0.6439(3) 0.3117(5)
H7_2 H 0.6740 0.6409 0.3184
C10_2 C 0.7668(5) 0.6822(3) 0.3494(5)
H8_2 H 0.7463 0.7048 0.3827
C16_2 C 0.5861(5) 0.5149(3) 0.1786(5)
H13_2 H 0.5340 0.5142 0.1774
C17_2 C 0.6262(5) 0.5580(4) 0.2164(6)
H14_2 H 0.6009 0.5848 0.2381
C18_2 C 0.7010(6) 0.5620(3) 0.2226(5)
C19_2 C 0.7353(5) 0.5174(4) 0.1926(5)
H15_2 H 0.7884 0.5164 0.2008
C20_2 C 0.6909(5) 0.4736(3) 0.1501(5)
H16_2 H 0.7138 0.4458 0.1276
Cu1 Cu 0.90017(5) 0.75436(4) 0.39985(6)
Cu2 Cu 0.55252(6) 0.40646(4) 0.09588(6)
I1_2 I 0.42532(3) 0.41939(2) 0.13706(3)
N3_2 N 0.6123(4) 0.4746(3) 0.1442(5)
N4 N 0.8393(4) 0.6915(3) 0.3435(4)
O1_2 O 0.7668(3) 0.8601(2) 0.4736(3)
S2 S 0.86902(12) 0.83724(8) 0.34271(12)
S3 S 0.88716(12) 0.76015(8) 0.53005(12)
W1 W 0.858910(17) 0.841630(12) 0.472560(18)
C40_2 C 0.8091(5) 0.9736(3) 0.3499(5)
H32_2 H 0.7862 0.9458 0.3724
Cu7 Cu 0.94748(6) 0.90646(4) 0.40412(6)
Cu9 Cu 0.98329(5) 0.81745(4) 0.59147(6)
I4_2 I 1.0000 0.80791(3) 0.7500
N7_2 N 0.8877(4) 0.9746(3) 0.3558(5)
O2_2 O 0.7332(3) 0.3601(2) 0.0264(3)
S5 S 0.94498(13) 0.90099(8) 0.53967(12)
S6 S 0.63098(12) 0.33724(8) 0.15729(12)
W2 W 0.641090(17) 0.341630(12) 0.027440(18)
Cu3_2 Cu 0.01671(5) 0.18255(4) 0.40853(6)
I2_2 I 0.0000 0.19209(3) 0.2500
Cu4_3 Cu 0.09983(5) 0.24564(4) 0.60015(6)
Cu8_3 Cu 0.05252(6) 0.09354(4) 0.59588(6)
N9_3 N 0.1607(4) 0.3085(3) 0.6565(4)
S4_3 S 0.05502(13) 0.09901(8) 0.46033(12)
S7_3 S 0.13098(12) 0.16276(8) 0.65729(12)
S8_3 S 0.11284(12) 0.23985(8) 0.46995(12)
W3_3 W 0.141090(17) 0.158370(12) 0.527440(18)
C21_2 C 0.5497(5) 0.7340(4) 0.8562(6)
H17_2 H 0.5221 0.7074 0.8231
C22_2 C 0.6226(5) 0.7377(4) 0.8602(5)
H18_2 H 0.6467 0.7114 0.8360
C23_2 C 0.6651(4) 0.7807(3) 0.9002(5)
C24_2 C 0.6246(5) 0.8126(4) 0.9416(5)
H19_2 H 0.6490 0.8389 0.9776
C25_2 C 0.5475(5) 0.8046(4) 0.9286(5)
H20_2 H 0.5188 0.8312 0.9463
C31_2 C 0.8690(5) 0.8342(4) 0.9487(5)
H25_2 H 0.8947 0.8635 0.9766
C32_2 C 0.7930(5) 0.8253(3) 0.9497(6)
H26_2 H 0.7713 0.8464 0.9840
C33_2 C 0.7495(4) 0.7884(3) 0.9043(4)
C34_2 C 0.7880(4) 0.7503(3) 0.8690(5)
H27_2 H 0.7629 0.7195 0.8448
C35_2 C 0.8629(5) 0.7587(3) 0.8704(5)
H28_2 H 0.8880 0.7343 0.8439
Cu4_4 Cu 0.40017(5) 0.74564(4) 0.89985(6)
Cu8_4 Cu 0.44748(6) 0.59354(4) 0.90412(6)
N5_2 N 0.5132(4) 0.7650(3) 0.8952(4)
N6_2 N 0.9045(4) 0.8028(3) 0.9104(4)
N9_4 N 0.3393(4) 0.8085(3) 0.8435(4)
S7_4 S 0.36902(12) 0.66276(8) 0.84271(12)
W3_4 W 0.358910(17) 0.658370(12) 0.972560(18)
C1_3 C 0.4503(5) 0.2660(4) 0.1438(6)
H1_3 H 0.4779 0.2926 0.1769
C2_3 C 0.3774(5) 0.2623(4) 0.1398(5)
H2_3 H 0.3533 0.2886 0.1640
C3_3 C 0.3349(4) 0.2193(3) 0.0998(5)
C4_3 C 0.3754(5) 0.1874(4) 0.0584(5)
H3_3 H 0.3510 0.1611 0.0224
C5_3 C 0.4525(5) 0.1954(4) 0.0714(5)
H4_3 H 0.4812 0.1688 0.0537
C11_3 C 0.1310(5) 0.1658(4) 0.0513(5)
H9_3 H 0.1053 0.1365 0.0234
C12_3 C 0.2070(5) 0.1747(3) 0.0503(6)
H10_3 H 0.2287 0.1536 0.0160
C13_3 C 0.2505(4) 0.2116(3) 0.0957(4)
C14_3 C 0.2120(4) 0.2497(3) 0.1310(5)
H11_3 H 0.2371 0.2805 0.1552
C15_3 C 0.1371(5) 0.2413(3) 0.1296(5)
H12_3 H 0.1120 0.2657 0.1561
N1_3 N 0.4868(4) 0.2350(3) 0.1048(4)
N2_3 N 0.0955(4) 0.1972(3) 0.0896(4)
C6_3 C 0.1357(5) 0.3423(3) 0.7045(5)
H5_3 H 0.0858 0.3383 0.7105
C7_3 C 0.1800(5) 0.3837(3) 0.7467(5)
H6_3 H 0.1602 0.4056 0.7815
C8_3 C 0.2515(5) 0.3921(3) 0.7374(5)
C9_3 C 0.2761(5) 0.3561(3) 0.6883(5)
H7_3 H 0.3260 0.3591 0.6816
C10_3 C 0.2332(5) 0.3178(3) 0.6506(5)
H8_3 H 0.2537 0.2952 0.6173
C16_3 C 0.4139(5) 0.4851(3) 0.8214(5)
H13_3 H 0.4660 0.4858 0.8226
C17_3 C 0.3738(5) 0.4420(4) 0.7836(6)
H14_3 H 0.3991 0.4152 0.7619
C18_3 C 0.2990(6) 0.4380(3) 0.7774(5)
C19_3 C 0.2647(5) 0.4826(4) 0.8074(5)
H15_3 H 0.2116 0.4836 0.7992
C20_3 C 0.3091(5) 0.5264(3) 0.8499(5)
H16_3 H 0.2862 0.5542 0.8724
I1_3 I 0.57468(3) 0.58061(2) 0.86294(3)
N3_3 N 0.3877(4) 0.5254(3) 0.8558(5)
O1_3 O 0.2332(3) 0.1399(2) 0.5264(3)
C40_3 C 0.1909(5) 0.0264(3) 0.6501(5)
H32_3 H 0.2138 0.0542 0.6276
N7_3 N 0.1123(4) 0.0254(3) 0.6442(5)
O2_3 O 0.2668(3) 0.6399(2) 0.9736(3)
C26_3 C 0.3643(5) 0.8423(3) 0.7955(5)
H21_3 H 0.4142 0.8383 0.7895
C27_3 C 0.3200(5) 0.8837(3) 0.7533(5)
H22_3 H 0.3398 0.9056 0.7185
C28_3 C 0.2485(5) 0.8921(3) 0.7626(5)
C29_3 C 0.2239(5) 0.8561(3) 0.8117(5)
H23_3 H 0.1740 0.8591 0.8184
C30_3 C 0.2668(5) 0.8178(3) 0.8494(5)
H24_3 H 0.2463 0.7952 0.8827
C36_3 C 0.0861(5) 0.9851(3) 0.6786(5)
H29_3 H 0.0340 0.9858 0.6774
C37_3 C 0.1262(5) 0.9420(4) 0.7164(6)
H30_3 H 0.1009 0.9152 0.7381
C38_3 C 0.2010(6) 0.9380(3) 0.7226(5)
C39_3 C 0.2353(5) 0.9826(4) 0.6926(5)
H31_3 H 0.2884 0.9836 0.7008
S1_2 S 0.55502(13) 0.40099(8) 0.96033(12)
Cu11_2 Cu 0.51671(5) 0.31745(4) 0.90853(6)
S9_2 S 0.61284(12) 0.26015(8) 0.96995(12)
C1_4 C 0.5497(5) 0.2660(4) 0.3562(6)
H1_4 H 0.5221 0.2926 0.3231
C2_4 C 0.6226(5) 0.2623(4) 0.3602(5)
H2_4 H 0.6467 0.2886 0.3360
C3_4 C 0.6651(4) 0.2193(3) 0.4002(5)
C4_4 C 0.6246(5) 0.1874(4) 0.4416(5)
H3_4 H 0.6490 0.1611 0.4776
C5_4 C 0.5475(5) 0.1954(4) 0.4286(5)
H4_4 H 0.5188 0.1688 0.4463
C6_4 C 0.3643(5) 0.1577(3) 0.2955(5)
H5_4 H 0.4142 0.1617 0.2895
C7_4 C 0.3200(5) 0.1163(3) 0.2533(5)
H6_4 H 0.3398 0.0944 0.2185
C8_4 C 0.2485(5) 0.1079(3) 0.2626(5)
C9_4 C 0.2239(5) 0.1439(3) 0.3117(5)
H7_4 H 0.1740 0.1409 0.3184
C10_4 C 0.2668(5) 0.1822(3) 0.3494(5)
H8_4 H 0.2463 0.2048 0.3827
C11_4 C 0.8690(5) 0.1658(4) 0.4487(5)
H9_4 H 0.8947 0.1365 0.4766
C12_4 C 0.7930(5) 0.1747(3) 0.4497(6)
H10_4 H 0.7713 0.1536 0.4840
C13_4 C 0.7495(4) 0.2116(3) 0.4043(4)
C14_4 C 0.7880(4) 0.2497(3) 0.3690(5)
H11_4 H 0.7629 0.2805 0.3448
C15_4 C 0.8629(5) 0.2413(3) 0.3704(5)
H12_4 H 0.8880 0.2657 0.3439
C16_4 C 0.0861(5) 0.0149(3) 0.1786(5)
H13_4 H 0.0340 0.0142 0.1774
C17_4 C 0.1262(5) 0.0580(4) 0.2164(6)
H14_4 H 0.1009 0.0848 0.2381
C18_4 C 0.2010(6) 0.0620(3) 0.2226(5)
C19_4 C 0.2353(5) 0.0174(4) 0.1926(5)
H15_4 H 0.2884 0.0164 0.2008
Cu1_2 Cu 0.40017(5) 0.25436(4) 0.39985(6)
I2_3 I 1.0000 0.19209(3) 0.2500
N1_4 N 0.5132(4) 0.2350(3) 0.3952(4)
N2_4 N 0.9045(4) 0.1972(3) 0.4104(4)
N4_2 N 0.3393(4) 0.1915(3) 0.3435(4)
O1_4 O 0.2668(3) 0.3601(2) 0.4736(3)
S2_2 S 0.36902(12) 0.33724(8) 0.34271(12)
S3_2 S 0.38716(12) 0.26015(8) 0.53005(12)
W1_2 W 0.358910(17) 0.341630(12) 0.472560(18)
C21_3 C 0.9503(5) 0.2340(4) 0.6438(6)
H17_3 H 0.9779 0.2074 0.6769
C22_3 C 0.8774(5) 0.2377(4) 0.6398(5)
H18_3 H 0.8533 0.2114 0.6640
C23_3 C 0.8349(4) 0.2807(3) 0.5998(5)
C24_3 C 0.8754(5) 0.3126(4) 0.5584(5)
H19_3 H 0.8510 0.3389 0.5224
C25_3 C 0.9525(5) 0.3046(4) 0.5714(5)
H20_3 H 0.9812 0.3312 0.5537
C26_4 C 0.1357(5) 0.6577(3) 0.2045(5)
H21_4 H 0.0858 0.6617 0.2105
C27_4 C 0.1800(5) 0.6163(3) 0.2467(5)
H22_4 H 0.1602 0.5944 0.2815
C28_4 C 0.2515(5) 0.6079(3) 0.2374(5)
C29_4 C 0.2761(5) 0.6439(3) 0.1883(5)
H23_4 H 0.3260 0.6409 0.1816
C30_4 C 0.2332(5) 0.6822(3) 0.1506(5)
H24_4 H 0.2537 0.7048 0.1173
C31_3 C 0.6310(5) 0.3342(4) 0.5513(5)
H25_3 H 0.6053 0.3635 0.5234
C32_3 C 0.7070(5) 0.3253(3) 0.5503(6)
H26_3 H 0.7287 0.3464 0.5160
C33_3 C 0.7505(4) 0.2884(3) 0.5957(4)
C34_3 C 0.7120(4) 0.2503(3) 0.6310(5)
H27_3 H 0.7371 0.2195 0.6552
C35_3 C 0.6371(5) 0.2587(3) 0.6296(5)
H28_3 H 0.6120 0.2343 0.6561
C36_4 C 0.4139(5) 0.5149(3) 0.3214(5)
H29_4 H 0.4660 0.5142 0.3226
C37_4 C 0.3738(5) 0.5580(4) 0.2836(6)
H30_4 H 0.3991 0.5848 0.2619
C38_4 C 0.2990(6) 0.5620(3) 0.2774(5)
C39_4 C 0.2647(5) 0.5174(4) 0.3074(5)
H31_4 H 0.2116 0.5164 0.2992
C40_4 C 0.3091(5) 0.4736(3) 0.3499(5)
H32_4 H 0.2862 0.4458 0.3724
Cu6_2 Cu 0.09983(5) 0.75436(4) 0.10015(6)
Cu7_2 Cu 0.44748(6) 0.40646(4) 0.40412(6)
Cu9_2 Cu 0.48329(5) 0.31745(4) 0.59147(6)
Cu10_2 Cu 0.98329(5) 0.18255(4) 0.09147(6)
I3_3 I 0.57468(3) 0.41939(2) 0.36294(3)
I4_3 I 0.5000 0.30791(3) 0.7500
N5_3 N 0.9868(4) 0.2650(3) 0.6048(4)
N6_3 N 0.5955(4) 0.3028(3) 0.5896(4)
N7_4 N 0.3877(4) 0.4746(3) 0.3558(5)
N8_2 N 0.1607(4) 0.6915(3) 0.1565(4)
S5_2 S 0.44498(13) 0.40099(8) 0.53967(12)
C20_4 C 0.1909(5) 0.9736(3) 0.1501(5)
H16_4 H 0.2138 0.9458 0.1276
Cu2_2 Cu 0.05252(6) 0.90646(4) 0.09588(6)
N3_4 N 0.1123(4) 0.9746(3) 0.1442(5)
O2_4 O 0.2332(3) 0.8601(2) 0.0264(3)
S6_2 S 0.13098(12) 0.83724(8) 0.15729(12)
W2_2 W 0.141090(17) 0.841630(12) 0.027440(18)
C21_4 C 0.0497(5) 0.2340(4) 0.8562(6)
H17_4 H 0.0221 0.2074 0.8231
C22_4 C 0.1226(5) 0.2377(4) 0.8602(5)
H18_4 H 0.1467 0.2114 0.8360
C23_4 C 0.1651(4) 0.2807(3) 0.9002(5)
C24_4 C 0.1246(5) 0.3126(4) 0.9416(5)
H19_4 H 0.1490 0.3389 0.9776
C25_4 C 0.0475(5) 0.3046(4) 0.9286(5)
H20_4 H 0.0188 0.3312 0.9463
C31_4 C 0.3690(5) 0.3342(4) 0.9487(5)
H25_4 H 0.3947 0.3635 0.9766
C32_4 C 0.2930(5) 0.3253(3) 0.9497(6)
H26_4 H 0.2713 0.3464 0.9840
C33_4 C 0.2495(4) 0.2884(3) 0.9043(4)
C34_4 C 0.2880(4) 0.2503(3) 0.8690(5)
H27_4 H 0.2629 0.2195 0.8448
C35_4 C 0.3629(5) 0.2587(3) 0.8704(5)
H28_4 H 0.3880 0.2343 0.8439
N5_4 N 0.0132(4) 0.2650(3) 0.8952(4)
N6_4 N 0.4045(4) 0.3028(3) 0.9104(4)
S4_4 S 0.94498(13) 0.09901(8) 0.03967(12)
S8_4 S 0.88716(12) 0.23985(8) 0.03005(12)
I3_4 I 0.92532(3) 0.08061(2) 0.63706(3)
I1_4 I 0.07468(3) 0.08061(2) 0.86294(3)
N10 N 0.5000 0.8500(3) 0.2500
H33 H 0.5479 0.8474 0.2815
H34 H 0.4839 0.8174 0.2300
H35 H 0.4521 0.8474 0.2185
H36 H 0.5161 0.8174 0.2700
N10_2 N -0.0000 0.3500(3) 0.2500
H33_2 H 0.0479 0.3474 0.2815
H36_2 H 0.0161 0.3174 0.2700
N10_3 N 1.0000 0.3500(3) 0.2500
H34_2 H 0.9839 0.3174 0.2300
H35_2 H 0.9521 0.3474 0.2185
N10_4 N 0.5000 0.1500(3) 0.7500
H33_3 H 0.4521 0.1526 0.7185
H34_3 H 0.5161 0.1826 0.7700
H35_3 H 0.5479 0.1526 0.7815
H36_3 H 0.4839 0.1826 0.7300
N10_5 N -0.0000 0.6500(3) 0.7500
H34_4 H 0.0161 0.6826 0.7700
H35_4 H 0.0479 0.6526 0.7815
N10_6 N 1.0000 0.6500(3) 0.7500
H33_4 H 0.9521 0.6526 0.7185
H36_4 H 0.9839 0.6826 0.7300
loop_
_geom_bond_atom_site_label_1
_geom_bond_atom_site_label_2
_geom_bond_site_symmetry_1
_geom_bond_site_symmetry_2
C1 H1 1_555 1_555
C2 C1 1_555 1_555
H2 C2 1_555 1_555
C3 C2 1_555 1_555
C4 C3 1_555 1_555
H3 C4 1_555 1_555
C5 C4 1_555 1_555
H4 C5 1_555 1_555
C11 H9 1_555 1_555
C12 C11 1_555 1_555
H10 C12 1_555 1_555
C13 C3 1_555 1_555
C14 C13 1_555 1_555
H11 C14 1_555 1_555
C15 C14 1_555 1_555
H12 C15 1_555 1_555
Cu3 I2 1_555 1_555
I2 Cu10 1_555 1_555
N1 C1 1_555 1_555
N2 C11 1_555 1_555
C21 H17 1_555 1_555
C22 C21 1_555 1_555
H18 C22 1_555 1_555
C23 C22 1_555 1_555
C24 C23 1_555 1_555
H19 C24 1_555 1_555
C25 C24 1_555 1_555
H20 C25 1_555 1_555
C31 H25 1_555 1_555
C32 C31 1_555 1_555
H26 C32 1_555 1_555
C33 C23 1_555 1_555
C34 C33 1_555 1_555
H27 C34 1_555 1_555
C35 C34 1_555 1_555
H28 C35 1_555 1_555
Cu4 N5 1_555 1_555
Cu8 S4 1_555 1_555
N5 C21 1_555 1_555
N6 C31 1_555 1_555
N9 Cu4 1_555 1_555
S4 Cu3 1_555 1_555
S7 Cu4 1_555 1_555
S8 Cu3 1_555 1_555
W3 Cu3 1_555 1_555
C5 N1 1_555 1_555
C12 C13 1_555 1_555
C15 N2 1_555 1_555
Cu3 N2 1_555 1_555
C25 N5 1_555 1_555
C32 C33 1_555 1_555
C35 N6 1_555 1_555
Cu4 S8 1_555 1_555
Cu4 W3 1_555 1_555
Cu8 S7 1_555 1_555
Cu8 W3 1_555 1_555
S4 W3 1_555 1_555
S7 W3 1_555 1_555
S8 W3 1_555 1_555
Cu11 S1 1_555 1_555
Cu11 S9 1_555 1_555
I4 Cu11 1_555 1_555
C1_2 H1_2 1_555 1_555
C2_2 C1_2 1_555 1_555
H2_2 C2_2 1_555 1_555
C3_2 C2_2 1_555 1_555
C4_2 C3_2 1_555 1_555
H3_2 C4_2 1_555 1_555
C5_2 C4_2 1_555 1_555
H4_2 C5_2 1_555 1_555
C11_2 H9_2 1_555 1_555
C12_2 C11_2 1_555 1_555
H10_2 C12_2 1_555 1_555
C13_2 C3_2 1_555 1_555
C14_2 C13_2 1_555 1_555
H11_2 C14_2 1_555 1_555
C15_2 C14_2 1_555 1_555
H12_2 C15_2 1_555 1_555
N1_2 C1_2 1_555 1_555
N2_2 C11_2 1_555 1_555
S4_2 Cu10 1_555 1_555
S8_2 Cu10 1_555 1_555
C5_2 N1_2 1_555 1_555
C12_2 C13_2 1_555 1_555
C15_2 N2_2 1_555 1_555
Cu10 N2_2 1_555 1_555
N9_2 Cu4_2 1_555 1_555
S7_2 Cu4_2 1_555 1_555
Cu4_2 W3_2 1_555 1_555
Cu8_2 S7_2 1_555 1_555
Cu8_2 W3_2 1_555 1_555
S7_2 W3_2 1_555 1_555
H16 C20 1_555 1_555
O2 W3_2 1_555 1_555
C20 N3 1_555 1_555
Cu8_2 N3 1_555 1_555
C6 H5 1_555 1_555
C7 C6 1_555 1_555
H6 C7 1_555 1_555
C8 C7 1_555 1_555
C9 C8 1_555 1_555
H7 C9 1_555 1_555
C10 C9 1_555 1_555
H8 C10 1_555 1_555
C16 H13 1_555 1_555
C17 C16 1_555 1_555
H14 C17 1_555 1_555
C18 C8 1_555 1_555
C19 C18 1_555 1_555
H15 C19 1_555 1_555
N9 C6 1_555 1_555
O1 W3 1_555 1_555
C26 H21 1_555 1_555
C27 C26 1_555 1_555
H22 C27 1_555 1_555
C28 C27 1_555 1_555
C29 C28 1_555 1_555
H23 C29 1_555 1_555
C30 C29 1_555 1_555
H24 C30 1_555 1_555
C36 H29 1_555 1_555
C37 C36 1_555 1_555
H30 C37 1_555 1_555
C38 C28 1_555 1_555
C39 C38 1_555 1_555
H31 C39 1_555 1_555
C40 C39 1_555 1_555
H32 C40 1_555 1_555
I3_2 Cu8 1_555 1_555
N7 C36 1_555 1_555
N9_2 C26 1_555 1_555
C10 N9 1_555 1_555
C17 C18 1_555 1_555
C30 N9_2 1_555 1_555
C37 C38 1_555 1_555
C40 N7 1_555 1_555
Cu8 N7 1_555 1_555
C26_2 H21_2 1_555 1_555
C27_2 C26_2 1_555 1_555
H22_2 C27_2 1_555 1_555
C28_2 C27_2 1_555 1_555
C29_2 C28_2 1_555 1_555
H23_2 C29_2 1_555 1_555
C30_2 C29_2 1_555 1_555
H24_2 C30_2 1_555 1_555
C36_2 H29_2 1_555 1_555
C37_2 C36_2 1_555 1_555
H30_2 C37_2 1_555 1_555
C38_2 C28_2 1_555 1_555
C39_2 C38_2 1_555 1_555
H31_2 C39_2 1_555 1_555
Cu6 N8 1_555 1_555
N8 C26_2 1_555 1_555
C30_2 N8 1_555 1_555
C37_2 C38_2 1_555 1_555
C6_2 H5_2 1_555 1_555
C7_2 C6_2 1_555 1_555
H6_2 C7_2 1_555 1_555
C8_2 C7_2 1_555 1_555
C9_2 C8_2 1_555 1_555
H7_2 C9_2 1_555 1_555
C10_2 C9_2 1_555 1_555
H8_2 C10_2 1_555 1_555
C16_2 H13_2 1_555 1_555
C17_2 C16_2 1_555 1_555
H14_2 C17_2 1_555 1_555
C18_2 C8_2 1_555 1_555
C19_2 C18_2 1_555 1_555
H15_2 C19_2 1_555 1_555
C20_2 C19_2 1_555 1_555
H16_2 C20_2 1_555 1_555
Cu2 I1_2 1_555 1_555
N3_2 C16_2 1_555 1_555
N4 C6_2 1_555 1_555
O1_2 W1 1_555 1_555
S2 Cu1 1_555 1_555
S3 Cu1 1_555 1_555
W1 Cu1 1_555 1_555
H32_2 C40_2 1_555 1_555
Cu6 S6 1_555 1_555
Cu7 S2 1_555 1_555
Cu9 S3 1_555 1_555
I4_2 Cu9 1_555 1_555
O2_2 W2 1_555 1_555
S5 W1 1_555 1_555
S6 Cu2 1_555 1_555
W2 Cu2 1_555 1_555
C10_2 N4 1_555 1_555
C17_2 C18_2 1_555 1_555
C20_2 N3_2 1_555 1_555
Cu1 N4 1_555 1_555
Cu2 N3_2 1_555 1_555
S2 W1 1_555 1_555
S3 W1 1_555 1_555
W1 Cu7 1_555 1_555
W1 Cu9 1_555 1_555
C40_2 N7_2 1_555 1_555
Cu6 W2 1_555 1_555
Cu7 N7_2 1_555 1_555
Cu7 S5 1_555 1_555
Cu9 S5 1_555 1_555
S6 W2 1_555 1_555
Cu3_2 I2_2 1_555 1_555
Cu8_3 S4_3 1_555 1_555
N9_3 Cu4_3 1_555 1_555
S4_3 Cu3_2 1_555 1_555
S7_3 Cu4_3 1_555 1_555
S8_3 Cu3_2 1_555 1_555
W3_3 Cu3_2 1_555 1_555
Cu4_3 S8_3 1_555 1_555
Cu4_3 W3_3 1_555 1_555
Cu8_3 S7_3 1_555 1_555
Cu8_3 W3_3 1_555 1_555
S4_3 W3_3 1_555 1_555
S7_3 W3_3 1_555 1_555
S8_3 W3_3 1_555 1_555
C21_2 H17_2 1_555 1_555
C22_2 C21_2 1_555 1_555
H18_2 C22_2 1_555 1_555
C23_2 C22_2 1_555 1_555
C24_2 C23_2 1_555 1_555
H19_2 C24_2 1_555 1_555
C25_2 C24_2 1_555 1_555
H20_2 C25_2 1_555 1_555
C31_2 H25_2 1_555 1_555
C32_2 C31_2 1_555 1_555
H26_2 C32_2 1_555 1_555
C33_2 C23_2 1_555 1_555
C34_2 C33_2 1_555 1_555
H27_2 C34_2 1_555 1_555
C35_2 C34_2 1_555 1_555
H28_2 C35_2 1_555 1_555
Cu4_4 N5_2 1_555 1_555
N5_2 C21_2 1_555 1_555
N6_2 C31_2 1_555 1_555
N9_4 Cu4_4 1_555 1_555
S7_4 Cu4_4 1_555 1_555
C25_2 N5_2 1_555 1_555
C32_2 C33_2 1_555 1_555
C35_2 N6_2 1_555 1_555
Cu4_4 W3_4 1_555 1_555
Cu8_4 S7_4 1_555 1_555
Cu8_4 W3_4 1_555 1_555
S7_4 W3_4 1_555 1_555
C1_3 H1_3 1_555 1_555
C2_3 C1_3 1_555 1_555
H2_3 C2_3 1_555 1_555
C3_3 C2_3 1_555 1_555
C4_3 C3_3 1_555 1_555
H3_3 C4_3 1_555 1_555
C5_3 C4_3 1_555 1_555
H4_3 C5_3 1_555 1_555
C11_3 H9_3 1_555 1_555
C12_3 C11_3 1_555 1_555
H10_3 C12_3 1_555 1_555
C13_3 C3_3 1_555 1_555
C14_3 C13_3 1_555 1_555
H11_3 C14_3 1_555 1_555
C15_3 C14_3 1_555 1_555
H12_3 C15_3 1_555 1_555
Cu6 N1_3 1_555 1_555
N1_3 C1_3 1_555 1_555
N2_3 C11_3 1_555 1_555
C5_3 N1_3 1_555 1_555
C12_3 C13_3 1_555 1_555
C15_3 N2_3 1_555 1_555
C6_3 H5_3 1_555 1_555
C7_3 C6_3 1_555 1_555
H6_3 C7_3 1_555 1_555
C8_3 C7_3 1_555 1_555
C9_3 C8_3 1_555 1_555
H7_3 C9_3 1_555 1_555
C10_3 C9_3 1_555 1_555
H8_3 C10_3 1_555 1_555
C16_3 H13_3 1_555 1_555
C17_3 C16_3 1_555 1_555
H14_3 C17_3 1_555 1_555
C18_3 C8_3 1_555 1_555
C19_3 C18_3 1_555 1_555
H15_3 C19_3 1_555 1_555
C20_3 C19_3 1_555 1_555
H16_3 C20_3 1_555 1_555
Cu8_4 I1_3 1_555 1_555
N3_3 C16_3 1_555 1_555
N9_3 C6_3 1_555 1_555
O1_3 W3_3 1_555 1_555
H32_3 C40_3 1_555 1_555
O2_3 W3_4 1_555 1_555
C10_3 N9_3 1_555 1_555
C17_3 C18_3 1_555 1_555
C20_3 N3_3 1_555 1_555
Cu8_4 N3_3 1_555 1_555
C40_3 N7_3 1_555 1_555
Cu8_3 N7_3 1_555 1_555
C26_3 H21_3 1_555 1_555
C27_3 C26_3 1_555 1_555
H22_3 C27_3 1_555 1_555
C28_3 C27_3 1_555 1_555
C29_3 C28_3 1_555 1_555
H23_3 C29_3 1_555 1_555
C30_3 C29_3 1_555 1_555
H24_3 C30_3 1_555 1_555
C36_3 H29_3 1_555 1_555
C37_3 C36_3 1_555 1_555
H30_3 C37_3 1_555 1_555
C38_3 C28_3 1_555 1_555
C39_3 C38_3 1_555 1_555
H31_3 C39_3 1_555 1_555
N9_4 C26_3 1_555 1_555
C30_3 N9_4 1_555 1_555
C37_3 C38_3 1_555 1_555
Cu11_2 S1_2 1_555 1_555
Cu11_2 S9_2 1_555 1_555
C1_4 H1_4 1_555 1_555
C2_4 C1_4 1_555 1_555
H2_4 C2_4 1_555 1_555
C3_4 C2_4 1_555 1_555
C4_4 C3_4 1_555 1_555
H3_4 C4_4 1_555 1_555
C5_4 C4_4 1_555 1_555
H4_4 C5_4 1_555 1_555
C6_4 H5_4 1_555 1_555
C7_4 C6_4 1_555 1_555
H6_4 C7_4 1_555 1_555
C8_4 C7_4 1_555 1_555
C9_4 C8_4 1_555 1_555
H7_4 C9_4 1_555 1_555
C10_4 C9_4 1_555 1_555
H8_4 C10_4 1_555 1_555
C11_4 H9_4 1_555 1_555
C12_4 C11_4 1_555 1_555
H10_4 C12_4 1_555 1_555
C13_4 C3_4 1_555 1_555
C14_4 C13_4 1_555 1_555
H11_4 C14_4 1_555 1_555
C15_4 C14_4 1_555 1_555
H12_4 C15_4 1_555 1_555
C16_4 H13_4 1_555 1_555
C17_4 C16_4 1_555 1_555
H14_4 C17_4 1_555 1_555
C18_4 C8_4 1_555 1_555
C19_4 C18_4 1_555 1_555
H15_4 C19_4 1_555 1_555
Cu1_2 N1_4 1_555 1_555
I2_3 Cu10_2 1_555 1_555
N1_4 C1_4 1_555 1_555
N2_4 C11_4 1_555 1_555
N4_2 C6_4 1_555 1_555
O1_4 W1_2 1_555 1_555
S2_2 Cu1_2 1_555 1_555
S3_2 Cu1_2 1_555 1_555
W1_2 Cu1_2 1_555 1_555
C21_3 H17_3 1_555 1_555
C22_3 C21_3 1_555 1_555
H18_3 C22_3 1_555 1_555
C23_3 C22_3 1_555 1_555
C24_3 C23_3 1_555 1_555
H19_3 C24_3 1_555 1_555
C25_3 C24_3 1_555 1_555
H20_3 C25_3 1_555 1_555
C26_4 H21_4 1_555 1_555
C27_4 C26_4 1_555 1_555
H22_4 C27_4 1_555 1_555
C28_4 C27_4 1_555 1_555
C29_4 C28_4 1_555 1_555
H23_4 C29_4 1_555 1_555
C30_4 C29_4 1_555 1_555
H24_4 C30_4 1_555 1_555
C31_3 H25_3 1_555 1_555
C32_3 C31_3 1_555 1_555
H26_3 C32_3 1_555 1_555
C33_3 C23_3 1_555 1_555
C34_3 C33_3 1_555 1_555
H27_3 C34_3 1_555 1_555
C35_3 C34_3 1_555 1_555
H28_3 C35_3 1_555 1_555
C36_4 H29_4 1_555 1_555
C37_4 C36_4 1_555 1_555
H30_4 C37_4 1_555 1_555
C38_4 C28_4 1_555 1_555
C39_4 C38_4 1_555 1_555
H31_4 C39_4 1_555 1_555
C40_4 C39_4 1_555 1_555
H32_4 C40_4 1_555 1_555
Cu6_2 N8_2 1_555 1_555
Cu7_2 S2_2 1_555 1_555
Cu9_2 S3_2 1_555 1_555
I3_3 Cu7_2 1_555 1_555
I4_3 Cu9_2 1_555 1_555
N5_3 C21_3 1_555 1_555
N6_3 C31_3 1_555 1_555
N7_4 C36_4 1_555 1_555
N8_2 C26_4 1_555 1_555
S5_2 W1_2 1_555 1_555
C5_4 N1_4 1_555 1_555
C10_4 N4_2 1_555 1_555
C12_4 C13_4 1_555 1_555
C15_4 N2_4 1_555 1_555
C17_4 C18_4 1_555 1_555
Cu1_2 N4_2 1_555 1_555
S2_2 W1_2 1_555 1_555
S3_2 W1_2 1_555 1_555
W1_2 Cu7_2 1_555 1_555
W1_2 Cu9_2 1_555 1_555
C25_3 N5_3 1_555 1_555
C30_4 N8_2 1_555 1_555
C32_3 C33_3 1_555 1_555
C35_3 N6_3 1_555 1_555
C37_4 C38_4 1_555 1_555
C40_4 N7_4 1_555 1_555
Cu7_2 N7_4 1_555 1_555
Cu7_2 S5_2 1_555 1_555
Cu9_2 N6_3 1_555 1_555
Cu9_2 S5_2 1_555 1_555
H16_4 C20_4 1_555 1_555
Cu6_2 S6_2 1_555 1_555
O2_4 W2_2 1_555 1_555
S6_2 Cu2_2 1_555 1_555
W2_2 Cu2_2 1_555 1_555
C20_4 N3_4 1_555 1_555
Cu2_2 N3_4 1_555 1_555
Cu6_2 W2_2 1_555 1_555
S6_2 W2_2 1_555 1_555
C21_4 H17_4 1_555 1_555
C22_4 C21_4 1_555 1_555
H18_4 C22_4 1_555 1_555
C23_4 C22_4 1_555 1_555
C24_4 C23_4 1_555 1_555
H19_4 C24_4 1_555 1_555
C25_4 C24_4 1_555 1_555
H20_4 C25_4 1_555 1_555
C31_4 H25_4 1_555 1_555
C32_4 C31_4 1_555 1_555
H26_4 C32_4 1_555 1_555
C33_4 C23_4 1_555 1_555
C34_4 C33_4 1_555 1_555
H27_4 C34_4 1_555 1_555
C35_4 C34_4 1_555 1_555
H28_4 C35_4 1_555 1_555
I4_3 Cu11_2 1_555 1_555
N5_4 C21_4 1_555 1_555
N6_4 C31_4 1_555 1_555
C25_4 N5_4 1_555 1_555
C32_4 C33_4 1_555 1_555
C35_4 N6_4 1_555 1_555
Cu11_2 N6_4 1_555 1_555
S4_4 Cu10_2 1_555 1_555
S8_4 Cu10_2 1_555 1_555
N10 H33 1_555 1_555
H34 N10 1_555 1_555
H35 N10 1_555 1_555
H36 N10 1_555 1_555
N10_2 H33_2 1_555 1_555
H36_2 N10_2 1_555 1_555
H34_2 N10_3 1_555 1_555
H35_2 N10_3 1_555 1_555
N10_4 H33_3 1_555 1_555
H34_3 N10_4 1_555 1_555
H35_3 N10_4 1_555 1_555
H36_3 N10_4 1_555 1_555
H34_4 N10_5 1_555 1_555
H35_4 N10_5 1_555 1_555
N10_6 H33_4 1_555 1_555
H36_4 N10_6 1_555 1_555

#END
