
###############################################################################
#
# This file contains modified crystal structure data generated from the
# MOF subset of the Cambridge Structural Database (CSD) v543 
# hosted by the Cambridge Crystallographic Data Centre (CCDC).
#
# This work is licensed under the Creative Commons
# Attribution-NonCommercial-ShareAlike 4.0 International License.
# To view a copy of this license, visit
# http://creativecommons.org/licenses/by-nc-sa/4.0/
# or send a letter to
# Creative Commons, PO Box 1866, Mountain View, CA 94042, USA.
#
# CIF created using the CSD Python API on 29 September 2022
# The structure has been converted into the P1 space group
# The structure has a 3D framework
# The original CSD entry LIKFOB is in the triclinic crystal system
# The framework has been calculated to contain at least 10.0% void space
# The void calculation uses a probe of radius 1.32A, grid spacing 0.4
#
###############################################################################

data_LIKFOB
_chemical_formula_moiety         '(C10 H10 O12 Zn4)n'
_symmetry_cell_setting           triclinic
_symmetry_space_group_name_H-M   'P 1'
_symmetry_Int_Tables_number      1
_space_group_name_Hall           'P 1'
loop_
_symmetry_equiv_pos_site_id
_symmetry_equiv_pos_as_xyz
1 x,y,z
_cell_length_a                   6.9235(13)
_cell_length_b                   7.4268(14)
_cell_length_c                   8.2517(15)
_cell_angle_alpha                90.118(2)
_cell_angle_beta                 109.774(2)
_cell_angle_gamma                93.329(2)
_cell_volume                     398.499
loop_
_atom_site_label
_atom_site_type_symbol
_atom_site_fract_x
_atom_site_fract_y
_atom_site_fract_z
Zn6 Zn -0.0000 0.5000 0.5000
Zn5 Zn 0.5000 0.0000 0.5000
O6 O 0.18418(18) 0.01311(17) 0.39415(16)
H4 H 0.1483 0.1146 0.4030
O8 O 0.51052(18) 0.14152(17) 0.28891(15)
O12 O 0.55238(17) 0.23399(16) 0.64993(15)
H10 H 0.8579 0.0544 0.5379
C1 C 0.4579(2) 0.6770(2) 0.0218(2)
H1 H 0.4294 0.7955 0.0370
Zn5_2 Zn 0.5000 1.0000 0.5000
Zn6_2 Zn 1.0000 0.5000 0.5000
O9 O 0.82763(18) 0.27024(16) 0.39431(16)
O11 O 0.44762(17) 0.76601(16) 0.35007(15)
O14 O 0.74538(18) 0.63864(17) 0.46217(15)
C7 C 0.5813(2) 0.3918(2) 0.1438(2)
C8 C 0.5403(2) 0.5699(2) 0.1674(2)
C9 C 0.5809(2) 0.6620(2) 0.3397(2)
C10 C 0.6474(2) 0.2603(2) 0.2881(2)
O1 O 0.48948(18) 0.85848(17) 0.71109(15)
O2 O 0.17237(18) 0.72976(16) 0.60569(16)
O4 O 0.25462(18) 0.36136(17) 0.53783(15)
C2 C 0.4187(2) 0.6082(2) 0.8562(2)
C3 C 0.4597(2) 0.4301(2) 0.8326(2)
C4 C 0.4191(2) 0.3380(2) 0.6603(2)
C5 C 0.3526(2) 0.7397(2) 0.7119(2)
O5 O 0.04217(19) 0.5816(2) 0.26867(16)
H2 H 0.1486 0.6435 0.2841
H3 H 0.0181 0.5126 0.1855
H5 H 0.1421 0.9456 0.4621
C6 C 0.5421(2) 0.3230(2) 0.9782(2)
H6 H 0.5706 0.2045 0.9630
O17 O 0.81582(18) 0.98689(17) 0.60585(16)
H9 H 0.8517 0.8854 0.5970
O16 O 0.95783(19) 0.4184(2) 0.73133(16)
H7 H 0.8514 0.3565 0.7159
H8 H 0.9819 0.4874 0.8145
loop_
_geom_bond_atom_site_label_1
_geom_bond_atom_site_label_2
_geom_bond_site_symmetry_1
_geom_bond_site_symmetry_2
O6 Zn5 1_555 1_555
H4 O6 1_555 1_555
O8 Zn5 1_555 1_555
O12 Zn5 1_555 1_555
C1 H1 1_555 1_555
Zn5_2 O11 1_555 1_555
Zn6_2 O9 1_555 1_555
O8 C10 1_555 1_555
O9 C10 1_555 1_555
O11 C9 1_555 1_555
O14 Zn6_2 1_555 1_555
C8 C1 1_555 1_555
C9 O14 1_555 1_555
C10 C7 1_555 1_555
C7 C8 1_555 1_555
C8 C9 1_555 1_555
Zn5_2 O1 1_555 1_555
Zn6 O2 1_555 1_555
O1 C5 1_555 1_555
O2 C5 1_555 1_555
O12 C4 1_555 1_555
O4 Zn6 1_555 1_555
C3 C2 1_555 1_555
C4 O4 1_555 1_555
C5 C2 1_555 1_555
O5 Zn6 1_555 1_555
H2 O5 1_555 1_555
H3 O5 1_555 1_555
C6 C3 1_555 1_555
H6 C6 1_555 1_555
O17 Zn5_2 1_555 1_555
H9 O17 1_555 1_555
C3 C4 1_555 1_555
O16 Zn6_2 1_555 1_555
H7 O16 1_555 1_555
H8 O16 1_555 1_555

#END
