
###############################################################################
#
# This file contains modified crystal structure data generated from the
# MOF subset of the Cambridge Structural Database (CSD) v543 
# hosted by the Cambridge Crystallographic Data Centre (CCDC).
#
# This work is licensed under the Creative Commons
# Attribution-NonCommercial-ShareAlike 4.0 International License.
# To view a copy of this license, visit
# http://creativecommons.org/licenses/by-nc-sa/4.0/
# or send a letter to
# Creative Commons, PO Box 1866, Mountain View, CA 94042, USA.
#
# CIF created using the CSD Python API on 29 September 2022
# The structure has been converted into the P1 space group
# The structure has a 3D framework
# The original CSD entry LIKVIN is in the monoclinic crystal system
# The framework has been calculated to contain at least 10.0% void space
# The void calculation uses a probe of radius 1.32A, grid spacing 0.4
# The framework is charged, counterions have been retained in the structure
#
###############################################################################

data_LIKVIN
_chemical_formula_moiety         '(C80 H24 Cd3 O25 6-)n'
_symmetry_cell_setting           triclinic
_symmetry_space_group_name_H-M   'P 1'
_symmetry_Int_Tables_number      1
_space_group_name_Hall           'P 1'
loop_
_symmetry_equiv_pos_site_id
_symmetry_equiv_pos_as_xyz
1 x,y,z
_cell_length_a                   8.6602(14)
_cell_length_b                   16.035(3)
_cell_length_c                   21.649(4)
_cell_angle_alpha                90
_cell_angle_beta                 100.773(2)
_cell_angle_gamma                90
_cell_volume                     2953.33
loop_
_atom_site_label
_atom_site_type_symbol
_atom_site_fract_x
_atom_site_fract_y
_atom_site_fract_z
Cd3 Cd 0.5000 0.04756(2) 0.7500
O11 O 0.6702(3) 0.04357(12) 0.30427(12)
O12 O 0.3298(3) 0.04357(12) 0.19573(12)
O13 O 0.4654(4) 0.05406(16) 0.34824(15)
O14 O 0.5346(4) 0.05406(16) 0.15176(15)
Cd1 Cd 0.5000 0.95244(2) 0.2500
C1 C 0.3725(4) 0.84410(15) 0.32416(12)
C2 C 0.3040(3) 0.78464(16) 0.36610(11)
C3 C 0.2325(3) 0.71219(16) 0.33965(12)
H1 H 0.2265 0.7027 0.2969
C4 C 0.1701(3) 0.65379(15) 0.37494(12)
C5 C 0.1754(3) 0.66731(15) 0.43958(11)
C6 C 0.1144(4) 0.60972(16) 0.47941(13)
H2 H 0.0687 0.5605 0.4621
C7 C 0.3793(3) 0.87582(16) 0.45934(12)
H3 H 0.4193 0.9155 0.4352
C8 C 0.3123(3) 0.80064(15) 0.43002(11)
C9 C 0.2473(3) 0.74205(14) 0.46754(11)
C10 C 0.0948(4) 0.57765(18) 0.34048(13)
O1 O 0.2852(3) 0.87867(15) 0.28142(11)
O2 O 0.5152(3) 0.85565(16) 0.33407(12)
O3 O 0.1702(3) 0.54357(12) 0.30427(12)
C11 C 0.1275(4) 0.65590(15) 0.67584(12)
C12 C 0.1960(3) 0.71536(16) 0.63390(11)
C13 C 0.2675(3) 0.78781(16) 0.66035(12)
H4 H 0.2735 0.7973 0.7031
C14 C 0.3299(3) 0.84621(15) 0.62506(12)
C15 C 0.3246(3) 0.83269(15) 0.56042(11)
C16 C 0.3856(4) 0.89028(16) 0.52059(13)
H5 H 0.4313 0.9395 0.5379
C17 C 0.1207(3) 0.62418(16) 0.54066(12)
H6 H 0.0807 0.5845 0.5648
C18 C 0.1877(3) 0.69936(15) 0.56998(11)
C19 C 0.2527(3) 0.75795(14) 0.53246(11)
C20 C 0.4052(4) 0.92235(18) 0.65952(13)
O5 O 0.2148(3) 0.62133(15) 0.71858(11)
O7 O 0.3298(3) 0.95643(12) 0.69573(12)
O8 O 0.5346(4) 0.94594(16) 0.65176(15)
Cd2 Cd 0.0000 0.45244(2) 0.2500
Cd4 Cd 0.0000 0.54756(2) 0.7500
O9 O 0.7148(3) 0.87867(15) 0.21858(11)
O10 O 0.4848(3) 0.85565(16) 0.16593(12)
O4 O 0.9654(4) 0.55406(16) 0.34824(15)
O6 O 0.9848(3) 0.64435(16) 0.66593(12)
Cd2_2 Cd 1.0000 0.45244(2) 0.2500
Cd4_2 Cd 1.0000 0.54756(2) 0.7500
O4_2 O 0.0346(4) 0.55406(16) 0.15176(15)
O6_2 O 0.0152(3) 0.64435(16) 0.83407(12)
C1_2 C 0.6275(4) 0.84410(15) 0.17584(12)
C2_2 C 0.6960(3) 0.78464(16) 0.13390(11)
C3_2 C 0.7675(3) 0.71219(16) 0.16035(12)
H1_2 H 0.7735 0.7027 0.2031
C4_2 C 0.8299(3) 0.65379(15) 0.12506(12)
C5_2 C 0.8246(3) 0.66731(15) 0.06042(11)
C6_2 C 0.8856(4) 0.60972(16) 0.02059(13)
H2_2 H 0.9313 0.5605 0.0379
C7_2 C 0.6207(3) 0.87582(16) 0.04066(12)
H3_2 H 0.5807 0.9155 0.0648
C8_2 C 0.6877(3) 0.80064(15) 0.06998(11)
C9_2 C 0.7527(3) 0.74205(14) 0.03246(11)
C10_2 C 0.9052(4) 0.57765(18) 0.15952(13)
O3_2 O 0.8298(3) 0.54357(12) 0.19573(12)
C11_2 C 0.8725(4) 0.65590(15) 0.82416(12)
C12_2 C 0.8040(3) 0.71536(16) 0.86610(11)
C13_2 C 0.7325(3) 0.78781(16) 0.83965(12)
H4_2 H 0.7265 0.7973 0.7969
C14_2 C 0.6701(3) 0.84621(15) 0.87494(12)
C15_2 C 0.6754(3) 0.83269(15) 0.93958(11)
C16_2 C 0.6144(4) 0.89028(16) 0.97941(13)
H5_2 H 0.5687 0.9395 0.9621
C17_2 C 0.8793(3) 0.62418(16) 0.95934(12)
H6_2 H 0.9193 0.5845 0.9352
C18_2 C 0.8123(3) 0.69936(15) 0.93002(11)
C19_2 C 0.7473(3) 0.75795(14) 0.96754(11)
C20_2 C 0.5948(4) 0.92235(18) 0.84048(13)
O5_2 O 0.7852(3) 0.62133(15) 0.78142(11)
O7_2 O 0.6702(3) 0.95643(12) 0.80427(12)
O8_2 O 0.4654(4) 0.94594(16) 0.84824(15)
O2_2 O 0.0152(3) 0.35565(16) 0.33407(12)
O8_3 O 0.0346(4) 0.44594(16) 0.65176(15)
O9_2 O 0.2148(3) 0.37867(15) 0.21858(11)
C1_3 C 0.8725(4) 0.34410(15) 0.32416(12)
C2_3 C 0.8040(3) 0.28464(16) 0.36610(11)
C3_3 C 0.7325(3) 0.21219(16) 0.33965(12)
H1_3 H 0.7265 0.2027 0.2969
C4_3 C 0.6701(3) 0.15379(15) 0.37494(12)
C5_3 C 0.6754(3) 0.16731(15) 0.43958(11)
C6_3 C 0.6144(4) 0.10972(16) 0.47941(13)
H2_3 H 0.5687 0.0605 0.4621
C7_3 C 0.8793(3) 0.37582(16) 0.45934(12)
H3_3 H 0.9193 0.4155 0.4352
C8_3 C 0.8123(3) 0.30064(15) 0.43002(11)
C9_3 C 0.7473(3) 0.24205(14) 0.46754(11)
C10_3 C 0.5948(4) 0.07765(18) 0.34048(13)
O1_2 O 0.7852(3) 0.37867(15) 0.28142(11)
C11_3 C 0.6275(4) 0.15590(15) 0.67584(12)
C12_3 C 0.6960(3) 0.21536(16) 0.63390(11)
C13_3 C 0.7675(3) 0.28781(16) 0.66035(12)
H4_3 H 0.7735 0.2973 0.7031
C14_3 C 0.8299(3) 0.34621(15) 0.62506(12)
C15_3 C 0.8246(3) 0.33269(15) 0.56042(11)
C16_3 C 0.8856(4) 0.39028(16) 0.52059(13)
H5_3 H 0.9313 0.4395 0.5379
C17_3 C 0.6207(3) 0.12418(16) 0.54066(12)
H6_3 H 0.5807 0.0845 0.5648
C18_3 C 0.6877(3) 0.19936(15) 0.56998(11)
C19_3 C 0.7527(3) 0.25795(14) 0.53246(11)
C20_3 C 0.9052(4) 0.42235(18) 0.65952(13)
O5_3 O 0.7148(3) 0.12133(15) 0.71858(11)
O6_3 O 0.4848(3) 0.14435(16) 0.66593(12)
O7_3 O 0.8298(3) 0.45643(12) 0.69573(12)
O10_2 O 0.9848(3) 0.35565(16) 0.16593(12)
C1_4 C 0.1275(4) 0.34410(15) 0.17584(12)
C2_4 C 0.1960(3) 0.28464(16) 0.13390(11)
C3_4 C 0.2675(3) 0.21219(16) 0.16035(12)
H1_4 H 0.2735 0.2027 0.2031
C4_4 C 0.3299(3) 0.15379(15) 0.12506(12)
C5_4 C 0.3246(3) 0.16731(15) 0.06042(11)
C6_4 C 0.3856(4) 0.10972(16) 0.02059(13)
H2_4 H 0.4313 0.0605 0.0379
C7_4 C 0.1207(3) 0.37582(16) 0.04066(12)
H3_4 H 0.0807 0.4155 0.0648
C8_4 C 0.1877(3) 0.30064(15) 0.06998(11)
C9_4 C 0.2527(3) 0.24205(14) 0.03246(11)
C10_4 C 0.4052(4) 0.07765(18) 0.15952(13)
C11_4 C 0.3725(4) 0.15590(15) 0.82416(12)
C12_4 C 0.3040(3) 0.21536(16) 0.86610(11)
C13_4 C 0.2325(3) 0.28781(16) 0.83965(12)
H4_4 H 0.2265 0.2973 0.7969
C14_4 C 0.1701(3) 0.34621(15) 0.87494(12)
C15_4 C 0.1754(3) 0.33269(15) 0.93958(11)
C16_4 C 0.1144(4) 0.39028(16) 0.97941(13)
H5_4 H 0.0687 0.4395 0.9621
C17_4 C 0.3793(3) 0.12418(16) 0.95934(12)
H6_4 H 0.4193 0.0845 0.9352
C18_4 C 0.3123(3) 0.19936(15) 0.93002(11)
C19_4 C 0.2473(3) 0.25795(14) 0.96754(11)
C20_4 C 0.0948(4) 0.42235(18) 0.84048(13)
O5_4 O 0.2852(3) 0.12133(15) 0.78142(11)
O6_4 O 0.5152(3) 0.14435(16) 0.83407(12)
O7_4 O 0.1702(3) 0.45643(12) 0.80427(12)
O8_4 O 0.9654(4) 0.44594(16) 0.84824(15)
loop_
_geom_bond_atom_site_label_1
_geom_bond_atom_site_label_2
_geom_bond_site_symmetry_1
_geom_bond_site_symmetry_2
Cd1 O1 1_555 1_555
C1 C2 1_555 1_555
C2 C3 1_555 1_555
C3 H1 1_555 1_555
C4 C3 1_555 1_555
C5 C4 1_555 1_555
C6 C5 1_555 1_555
H2 C6 1_555 1_555
C7 H3 1_555 1_555
C8 C2 1_555 1_555
C9 C5 1_555 1_555
C10 C4 1_555 1_555
O1 C1 1_555 1_555
O2 Cd1 1_555 1_555
O3 C10 1_555 1_555
C11 C12 1_555 1_555
C12 C13 1_555 1_555
C13 H4 1_555 1_555
C14 C13 1_555 1_555
C15 C14 1_555 1_555
C16 C7 1_555 1_555
H5 C16 1_555 1_555
C17 C6 1_555 1_555
H6 C17 1_555 1_555
C18 C12 1_555 1_555
C19 C9 1_555 1_555
C20 C14 1_555 1_555
O5 C11 1_555 1_555
O7 C20 1_555 1_555
O8 C20 1_555 1_555
Cd2 O3 1_555 1_555
Cd4 O5 1_555 1_555
O9 Cd1 1_555 1_555
O10 Cd1 1_555 1_555
C1 O2 1_555 1_555
C7 C8 1_555 1_555
C8 C9 1_555 1_555
C15 C16 1_555 1_555
C15 C19 1_555 1_555
C17 C18 1_555 1_555
C18 C19 1_555 1_555
O4 Cd2_2 1_555 1_555
O6 Cd4_2 1_555 1_555
O4_2 Cd2 1_555 1_555
O6_2 Cd4 1_555 1_555
C1_2 C2_2 1_555 1_555
C2_2 C3_2 1_555 1_555
C3_2 H1_2 1_555 1_555
C4_2 C3_2 1_555 1_555
C5_2 C4_2 1_555 1_555
C6_2 C5_2 1_555 1_555
H2_2 C6_2 1_555 1_555
C7_2 H3_2 1_555 1_555
C8_2 C2_2 1_555 1_555
C9_2 C5_2 1_555 1_555
C10_2 C4_2 1_555 1_555
O9 C1_2 1_555 1_555
O3_2 C10_2 1_555 1_555
Cd2_2 O3_2 1_555 1_555
C1_2 O10 1_555 1_555
C7_2 C8_2 1_555 1_555
C8_2 C9_2 1_555 1_555
C11_2 C12_2 1_555 1_555
C12_2 C13_2 1_555 1_555
C13_2 H4_2 1_555 1_555
C14_2 C13_2 1_555 1_555
C15_2 C14_2 1_555 1_555
H5_2 C16_2 1_555 1_555
H6_2 C17_2 1_555 1_555
C18_2 C12_2 1_555 1_555
C20_2 C14_2 1_555 1_555
O5_2 C11_2 1_555 1_555
O7_2 C20_2 1_555 1_555
O8_2 C20_2 1_555 1_555
Cd4_2 O5_2 1_555 1_555
C15_2 C16_2 1_555 1_555
C15_2 C19_2 1_555 1_555
C17_2 C18_2 1_555 1_555
C18_2 C19_2 1_555 1_555
O2_2 Cd2 1_555 1_555
O9_2 Cd2 1_555 1_555
O8_3 Cd4 1_555 1_555
Cd2_2 O1_2 1_555 1_555
C1_3 C2_3 1_555 1_555
C2_3 C3_3 1_555 1_555
C3_3 H1_3 1_555 1_555
C4_3 C3_3 1_555 1_555
C5_3 C4_3 1_555 1_555
C6_3 C5_3 1_555 1_555
H2_3 C6_3 1_555 1_555
C7_3 H3_3 1_555 1_555
C8_3 C2_3 1_555 1_555
C9_3 C5_3 1_555 1_555
C10_3 C4_3 1_555 1_555
O1_2 C1_3 1_555 1_555
O11 C10_3 1_555 1_555
O13 C10_3 1_555 1_555
C11_3 C12_3 1_555 1_555
C12_3 C13_3 1_555 1_555
C13_3 H4_3 1_555 1_555
C14_3 C13_3 1_555 1_555
C15_3 C14_3 1_555 1_555
C16_3 C7_3 1_555 1_555
H5_3 C16_3 1_555 1_555
C17_3 C6_3 1_555 1_555
H6_3 C17_3 1_555 1_555
C18_3 C12_3 1_555 1_555
C19_3 C9_3 1_555 1_555
C20_3 C14_3 1_555 1_555
O5_3 C11_3 1_555 1_555
O6_3 C11_3 1_555 1_555
O7_3 C20_3 1_555 1_555
Cd4_2 O7_3 1_555 1_555
Cd3 O5_3 1_555 1_555
O10_2 Cd2_2 1_555 1_555
C7_3 C8_3 1_555 1_555
C8_3 C9_3 1_555 1_555
C15_3 C16_3 1_555 1_555
C15_3 C19_3 1_555 1_555
C17_3 C18_3 1_555 1_555
C18_3 C19_3 1_555 1_555
O6_3 Cd3 1_555 1_555
C1_4 C2_4 1_555 1_555
C2_4 C3_4 1_555 1_555
C3_4 H1_4 1_555 1_555
C4_4 C3_4 1_555 1_555
C5_4 C4_4 1_555 1_555
C6_4 C5_4 1_555 1_555
H2_4 C6_4 1_555 1_555
C7_4 H3_4 1_555 1_555
C8_4 C2_4 1_555 1_555
C9_4 C5_4 1_555 1_555
C10_4 C4_4 1_555 1_555
O9_2 C1_4 1_555 1_555
O12 C10_4 1_555 1_555
O14 C10_4 1_555 1_555
C7_4 C8_4 1_555 1_555
C8_4 C9_4 1_555 1_555
C11_4 C12_4 1_555 1_555
C12_4 C13_4 1_555 1_555
C13_4 H4_4 1_555 1_555
C14_4 C13_4 1_555 1_555
C15_4 C14_4 1_555 1_555
H5_4 C16_4 1_555 1_555
H6_4 C17_4 1_555 1_555
C18_4 C12_4 1_555 1_555
C20_4 C14_4 1_555 1_555
O5_4 C11_4 1_555 1_555
O6_4 C11_4 1_555 1_555
O7_4 C20_4 1_555 1_555
Cd4 O7_4 1_555 1_555
Cd3 O5_4 1_555 1_555
C15_4 C16_4 1_555 1_555
C15_4 C19_4 1_555 1_555
C17_4 C18_4 1_555 1_555
C18_4 C19_4 1_555 1_555
O6_4 Cd3 1_555 1_555
O8_4 Cd4_2 1_555 1_555

#END
