
###############################################################################
#
# This file contains modified crystal structure data generated from the
# MOF subset of the Cambridge Structural Database (CSD) v543 
# hosted by the Cambridge Crystallographic Data Centre (CCDC).
#
# This work is licensed under the Creative Commons
# Attribution-NonCommercial-ShareAlike 4.0 International License.
# To view a copy of this license, visit
# http://creativecommons.org/licenses/by-nc-sa/4.0/
# or send a letter to
# Creative Commons, PO Box 1866, Mountain View, CA 94042, USA.
#
# CIF created using the CSD Python API on 29 September 2022
# The structure has been converted into the P1 space group
# The structure has a 3D framework
# The original CSD entry LINRUY is in the triclinic crystal system
# The framework has been calculated to contain at least 10.0% void space
# The void calculation uses a probe of radius 1.32A, grid spacing 0.4
#
###############################################################################

data_LINRUY
_chemical_formula_moiety         '(C12 H14 O16 Sm2)n'
_symmetry_cell_setting           triclinic
_symmetry_space_group_name_H-M   'P 1'
_symmetry_Int_Tables_number      1
_space_group_name_Hall           'P 1'
loop_
_symmetry_equiv_pos_site_id
_symmetry_equiv_pos_as_xyz
1 x,y,z
_cell_length_a                   9.0814(7)
_cell_length_b                   9.3267(7)
_cell_length_c                   9.8315(7)
_cell_angle_alpha                83.997(3)
_cell_angle_beta                 65.410(2)
_cell_angle_gamma                63.057(2)
_cell_volume                     671.383
loop_
_atom_site_label
_atom_site_type_symbol
_atom_site_fract_x
_atom_site_fract_y
_atom_site_fract_z
_atom_site_U_iso_or_equiv
_atom_site_thermal_displace_type
O5 O 0.0217(2) 0.21461(19) 0.38833(19) 0.0185 Uani
O6 O 0.1423(2) 0.34928(18) 0.43908(19) 0.0205 Uani
C5 C 0.3045(3) 0.0636(3) 0.4078(3) 0.0147 Uani
H7 H 0.412162 0.065198 0.391646 0.0180 Uiso
C6 C 0.1474(3) 0.2180(3) 0.4113(2) 0.0141 Uani
H9 H 0.054(3) 0.566(3) 0.260(3) 0.0360 Uiso
Sm4 Sm 0.23509(2) 0.50942(2) 0.53887(2) 0.0113 Uani
O1 O 0.4624(2) 0.41883(19) 0.26436(18) 0.0178 Uani
O2 O 0.2071(2) 0.63720(19) 0.30437(17) 0.0173 Uani
O3 O 0.4208(2) 0.65085(18) 0.47193(19) 0.0205 Uani
O4 O 0.6001(2) 0.7658(2) 0.4034(2) 0.0252 Uani
O7 O 0.0141(2) 0.4566(2) 0.7596(2) 0.0212 Uani
H2 H 0.053(4) 0.392(3) 0.817(3) 0.0360 Uiso
O8 O 0.2156(2) 0.5976(3) 0.7725(2) 0.0300 Uani
H3 H 0.299(3) 0.611(4) 0.774(4) 0.0420 Uiso
H4 H 0.125(3) 0.641(4) 0.853(2) 0.0590 Uiso
C1 C 0.3629(3) 0.5337(3) 0.2153(2) 0.0145 Uani
C2 C 0.4209(3) 0.5506(3) 0.0515(3) 0.0187 Uani
H5 H 0.341803 0.636564 0.020099 0.0220 Uiso
C3 C 0.4487(3) 0.7731(3) 0.4335(3) 0.0148 Uani
C4 C 0.2966(3) 0.9250(3) 0.4267(3) 0.0158 Uani
H6 H 0.191734 0.922178 0.436278 0.0190 Uiso
Sm7 Sm 0.76491(2) 0.49058(2) 0.46113(2) 0.0113 Uani
O20 O 0.5792(2) 0.34915(18) 0.52807(19) 0.0205 Uani
O22 O 0.3999(2) 0.2342(2) 0.5966(2) 0.0252 Uani
O9 O 0.5376(2) 0.58117(19) 0.73564(18) 0.0178 Uani
O10 O 0.7929(2) 0.36280(19) 0.69563(17) 0.0173 Uani
C7 C 0.6371(3) 0.4663(3) 0.7847(2) 0.0145 Uani
C8 C 0.5791(3) 0.4494(3) 0.9485(3) 0.0187 Uani
H8 H 0.658197 0.363436 0.979901 0.0220 Uiso
O15 O 0.9859(2) 0.5434(2) 0.2404(2) 0.0212 Uani
H10 H 0.947(4) 0.608(3) 0.183(3) 0.0360 Uiso
O16 O 0.7844(2) 0.4024(3) 0.2275(2) 0.0300 Uani
H11 H 0.701(3) 0.389(4) 0.226(4) 0.0420 Uiso
H12 H 0.875(3) 0.359(4) 0.147(2) 0.0590 Uiso
C9 C 0.5513(3) 0.2269(3) 0.5665(3) 0.0148 Uani
C10 C 0.7034(3) 0.0750(3) 0.5733(3) 0.0158 Uani
H13 H 0.808266 0.077822 0.563722 0.0190 Uiso
O24 O 0.8577(2) 0.65072(18) 0.56092(19) 0.0205 Uani
H1 H 0.946(3) 0.434(3) 0.740(3) 0.0360 Uiso
O13 O 0.9783(2) 0.78539(19) 0.61167(19) 0.0185 Uani
C11 C 0.6955(3) 0.9364(3) 0.5922(3) 0.0147 Uani
H14 H 0.587838 0.934802 0.608354 0.0180 Uiso
C12 C 0.8526(3) 0.7820(3) 0.5887(2) 0.0141 Uani
loop_
_atom_site_aniso_label
_atom_site_aniso_U_11
_atom_site_aniso_U_22
_atom_site_aniso_U_33
_atom_site_aniso_U_23
_atom_site_aniso_U_13
_atom_site_aniso_U_12
O5 0.0136 0.0143 0.0251 0.0011 -0.0105 -0.002
O6 0.0289 0.0082 0.0251 0.0008 -0.0133 -0.0068
C5 0.0115 0.0107 0.0213 0.0011 -0.0082 -0.0032
C6 0.0131 0.0112 0.0117 0.0014 -0.0028 -0.0026
Sm4 0.01319 0.00758 0.01178 0.00131 -0.00522 -0.00358
O1 0.0165 0.0183 0.0159 0 -0.007 -0.0051
O2 0.0158 0.0196 0.012 0.0012 -0.0034 -0.0065
O3 0.027 0.01 0.0289 0.0079 -0.0156 -0.0095
O4 0.0167 0.0142 0.0461 0.0073 -0.0186 -0.0039
O7 0.0206 0.0269 0.0225 0.0097 -0.0133 -0.0134
O8 0.0165 0.0521 0.0202 -0.0105 -0.004 -0.0148
C1 0.0153 0.0176 0.0139 0.0001 -0.0058 -0.0099
C2 0.0208 0.0217 0.0136 0.004 -0.0078 -0.0095
C3 0.0177 0.0092 0.0174 0.0003 -0.0095 -0.0037
C4 0.0118 0.012 0.0248 0.0039 -0.0109 -0.0038
Sm7 0.01319 0.00758 0.01178 0.00131 -0.00522 -0.00358
O20 0.027 0.01 0.0289 0.0079 -0.0156 -0.0095
O22 0.0167 0.0142 0.0461 0.0073 -0.0186 -0.0039
O9 0.0165 0.0183 0.0159 0 -0.007 -0.0051
O10 0.0158 0.0196 0.012 0.0012 -0.0034 -0.0065
C7 0.0153 0.0176 0.0139 0.0001 -0.0058 -0.0099
C8 0.0208 0.0217 0.0136 0.004 -0.0078 -0.0095
O15 0.0206 0.0269 0.0225 0.0097 -0.0133 -0.0134
O16 0.0165 0.0521 0.0202 -0.0105 -0.004 -0.0148
C9 0.0177 0.0092 0.0174 0.0003 -0.0095 -0.0037
C10 0.0118 0.012 0.0248 0.0039 -0.0109 -0.0038
O24 0.0289 0.0082 0.0251 0.0008 -0.0133 -0.0068
O13 0.0136 0.0143 0.0251 0.0011 -0.0105 -0.002
C11 0.0115 0.0107 0.0213 0.0011 -0.0082 -0.0032
C12 0.0131 0.0112 0.0117 0.0014 -0.0028 -0.0026
loop_
_geom_bond_atom_site_label_1
_geom_bond_atom_site_label_2
_geom_bond_site_symmetry_1
_geom_bond_site_symmetry_2
O5 C6 1_555 1_555
O6 C6 1_555 1_555
H7 C5 1_555 1_555
C6 C5 1_555 1_555
Sm4 O6 1_555 1_555
Sm4 O1 1_555 1_555
O1 C1 1_555 1_555
O2 Sm4 1_555 1_555
O3 Sm4 1_555 1_555
O4 C3 1_555 1_555
O7 Sm4 1_555 1_555
H2 O7 1_555 1_555
O8 Sm4 1_555 1_555
H3 O8 1_555 1_555
H4 O8 1_555 1_555
C1 O2 1_555 1_555
C2 C1 1_555 1_555
H5 C2 1_555 1_555
C3 O3 1_555 1_555
C4 C3 1_555 1_555
H6 C4 1_555 1_555
Sm7 O3 1_555 1_555
O20 Sm4 1_555 1_555
O22 Sm4 1_555 1_555
O4 Sm7 1_555 1_555
Sm7 O20 1_555 1_555
O9 C7 1_555 1_555
O10 C7 1_555 1_555
C7 C8 1_555 1_555
H8 C8 1_555 1_555
Sm7 O9 1_555 1_555
O10 Sm7 1_555 1_555
O22 C9 1_555 1_555
O15 Sm7 1_555 1_555
H10 O15 1_555 1_555
O16 Sm7 1_555 1_555
H11 O16 1_555 1_555
H12 O16 1_555 1_555
C9 O20 1_555 1_555
C10 C9 1_555 1_555
H13 C10 1_555 1_555
O24 Sm7 1_555 1_555
H14 C11 1_555 1_555
C12 O13 1_555 1_555
O24 C12 1_555 1_555
C11 C12 1_555 1_555

#END
