
###############################################################################
#
# This file contains modified crystal structure data generated from the
# MOF subset of the Cambridge Structural Database (CSD) v543 
# hosted by the Cambridge Crystallographic Data Centre (CCDC).
#
# This work is licensed under the Creative Commons
# Attribution-NonCommercial-ShareAlike 4.0 International License.
# To view a copy of this license, visit
# http://creativecommons.org/licenses/by-nc-sa/4.0/
# or send a letter to
# Creative Commons, PO Box 1866, Mountain View, CA 94042, USA.
#
# CIF created using the CSD Python API on 29 September 2022
# The structure has been converted into the P1 space group
# The structure has a 3D framework
# The original CSD entry LINSAF is in the triclinic crystal system
# The framework has been calculated to contain at least 10.0% void space
# The void calculation uses a probe of radius 1.32A, grid spacing 0.4
#
###############################################################################

data_LINSAF
_chemical_formula_moiety         '(C12 H14 O16 Tb2)n'
_symmetry_cell_setting           triclinic
_symmetry_space_group_name_H-M   'P 1'
_symmetry_Int_Tables_number      1
_space_group_name_Hall           'P 1'
loop_
_symmetry_equiv_pos_site_id
_symmetry_equiv_pos_as_xyz
1 x,y,z
_cell_length_a                   9.1538(4)
_cell_length_b                   9.3150(4)
_cell_length_c                   9.7631(5)
_cell_angle_alpha                84.2320(17)
_cell_angle_beta                 65.5330(15)
_cell_angle_gamma                62.7110(16)
_cell_volume                     669.266
loop_
_atom_site_label
_atom_site_type_symbol
_atom_site_fract_x
_atom_site_fract_y
_atom_site_fract_z
_atom_site_U_iso_or_equiv
_atom_site_thermal_displace_type
O5 O 0.0257(5) 0.2215(4) 0.3869(4) 0.0200 Uani
O6 O 0.1520(5) 0.3511(4) 0.4364(4) 0.0231 Uani
C5 C 0.3054(7) 0.0635(6) 0.4095(6) 0.0152 Uani
H7 H 0.412842 0.062212 0.395579 0.0180 Uiso
C6 C 0.1514(7) 0.2214(6) 0.4098(6) 0.0144 Uani
H9 H 0.032(8) 0.579(7) 0.277(6) 0.0500 Uiso
Tb4 Tb 0.23298(4) 0.51053(3) 0.53819(3) 0.0149 Uani
O1 O 0.4610(5) 0.4217(4) 0.2670(4) 0.0209 Uani
O2 O 0.2024(5) 0.6366(4) 0.3056(4) 0.0185 Uani
O3 O 0.4018(6) 0.6536(5) 0.4789(5) 0.0282 Uani
O4 O 0.5904(5) 0.7565(5) 0.4124(5) 0.0275 Uani
O7 O 0.0206(5) 0.4550(5) 0.7542(5) 0.0249 Uani
H2 H 0.063(9) 0.398(7) 0.813(7) 0.0800 Uiso
O8 O 0.2180(6) 0.5921(6) 0.7707(5) 0.0303 Uani
H3 H 0.304(6) 0.605(8) 0.768(7) 0.0400 Uiso
H4 H 0.131(6) 0.642(7) 0.853(4) 0.0500 Uiso
C1 C 0.3611(7) 0.5336(6) 0.2168(6) 0.0147 Uani
C2 C 0.4211(7) 0.5492(7) 0.0521(6) 0.0202 Uani
H5 H 0.341258 0.634585 0.020657 0.0240 Uiso
C3 C 0.4378(7) 0.7705(6) 0.4400(6) 0.0180 Uani
C4 C 0.2936(7) 0.9266(6) 0.4284(6) 0.0161 Uani
H6 H 0.188774 0.927848 0.434798 0.0200 Uiso
Tb7 Tb 0.76702(4) 0.48947(3) 0.46181(3) 0.0149 Uani
O20 O 0.4096(5) 0.2435(5) 0.5876(5) 0.0275 Uani
O9 O 0.5390(5) 0.5783(4) 0.7330(4) 0.0209 Uani
O10 O 0.7976(5) 0.3634(4) 0.6944(4) 0.0185 Uani
C7 C 0.6389(7) 0.4664(6) 0.7832(6) 0.0147 Uani
C8 C 0.5789(7) 0.4508(7) 0.9479(6) 0.0202 Uani
H8 H 0.658742 0.365415 0.979343 0.0240 Uiso
O11 O 0.5982(6) 0.3464(5) 0.5211(5) 0.0282 Uani
O15 O 0.9794(5) 0.5450(5) 0.2458(5) 0.0249 Uani
H10 H 0.937(9) 0.602(7) 0.187(7) 0.0800 Uiso
O16 O 0.7820(6) 0.4079(6) 0.2293(5) 0.0303 Uani
H11 H 0.696(6) 0.395(8) 0.232(7) 0.0400 Uiso
H12 H 0.869(6) 0.358(7) 0.147(4) 0.0500 Uiso
C9 C 0.5622(7) 0.2295(6) 0.5600(6) 0.0180 Uani
C10 C 0.7064(7) 0.0734(6) 0.5716(6) 0.0161 Uani
H13 H 0.811226 0.072152 0.565202 0.0200 Uiso
O22 O 0.8480(5) 0.6489(4) 0.5636(4) 0.0231 Uani
H1 H 0.968(8) 0.421(7) 0.723(6) 0.0500 Uiso
O13 O 0.9743(5) 0.7785(4) 0.6131(4) 0.0200 Uani
C11 C 0.6946(7) 0.9365(6) 0.5905(6) 0.0152 Uani
H14 H 0.587158 0.937788 0.604421 0.0180 Uiso
C12 C 0.8486(7) 0.7786(6) 0.5902(6) 0.0144 Uani
loop_
_atom_site_aniso_label
_atom_site_aniso_U_11
_atom_site_aniso_U_22
_atom_site_aniso_U_33
_atom_site_aniso_U_23
_atom_site_aniso_U_13
_atom_site_aniso_U_12
O5 0.013 0.016 0.028 0.0049 -0.0112 -0.0024
O6 0.031 0.011 0.027 0.001 -0.0147 -0.0069
C5 0.016 0.009 0.02 0.002 -0.009 -0.004
C6 0.014 0.01 0.013 -0.001 -0.006 0
Tb4 0.01846 0.00787 0.01499 0.00085 -0.00606 -0.00413
O1 0.02 0.022 0.02 0.0003 -0.0099 -0.0073
O2 0.016 0.018 0.016 0.0026 -0.0031 -0.0068
O3 0.042 0.015 0.035 0.01 -0.021 -0.016
O4 0.02 0.015 0.045 0.0032 -0.021 0.0004
O7 0.02 0.032 0.028 0.01 -0.015 -0.013
O8 0.02 0.049 0.02 -0.009 -0.006 -0.014
C1 0.015 0.016 0.015 -0.001 -0.004 -0.01
C2 0.026 0.022 0.017 0.005 -0.01 -0.014
C3 0.023 0.011 0.019 0 -0.013 -0.003
C4 0.012 0.014 0.027 0.006 -0.013 -0.006
Tb7 0.01846 0.00787 0.01499 0.00085 -0.00606 -0.00413
O20 0.02 0.015 0.045 0.0032 -0.021 0.0004
O9 0.02 0.022 0.02 0.0003 -0.0099 -0.0073
O10 0.016 0.018 0.016 0.0026 -0.0031 -0.0068
C7 0.015 0.016 0.015 -0.001 -0.004 -0.01
C8 0.026 0.022 0.017 0.005 -0.01 -0.014
O11 0.042 0.015 0.035 0.01 -0.021 -0.016
O15 0.02 0.032 0.028 0.01 -0.015 -0.013
O16 0.02 0.049 0.02 -0.009 -0.006 -0.014
C9 0.023 0.011 0.019 0 -0.013 -0.003
C10 0.012 0.014 0.027 0.006 -0.013 -0.006
O22 0.031 0.011 0.027 0.001 -0.0147 -0.0069
O13 0.013 0.016 0.028 0.0049 -0.0112 -0.0024
C11 0.016 0.009 0.02 0.002 -0.009 -0.004
C12 0.014 0.01 0.013 -0.001 -0.006 0
loop_
_geom_bond_atom_site_label_1
_geom_bond_atom_site_label_2
_geom_bond_site_symmetry_1
_geom_bond_site_symmetry_2
O5 C6 1_555 1_555
O6 C6 1_555 1_555
H7 C5 1_555 1_555
C6 C5 1_555 1_555
Tb4 O6 1_555 1_555
Tb4 O1 1_555 1_555
O1 C1 1_555 1_555
O2 Tb4 1_555 1_555
O3 Tb4 1_555 1_555
O4 C3 1_555 1_555
O7 Tb4 1_555 1_555
H2 O7 1_555 1_555
O8 Tb4 1_555 1_555
H3 O8 1_555 1_555
H4 O8 1_555 1_555
C1 O2 1_555 1_555
C2 C1 1_555 1_555
H5 C2 1_555 1_555
C3 O3 1_555 1_555
C4 C3 1_555 1_555
H6 C4 1_555 1_555
Tb7 O4 1_555 1_555
O20 Tb4 1_555 1_555
O9 C7 1_555 1_555
O10 C7 1_555 1_555
C7 C8 1_555 1_555
H8 C8 1_555 1_555
Tb7 O9 1_555 1_555
O10 Tb7 1_555 1_555
O11 Tb7 1_555 1_555
O20 C9 1_555 1_555
O15 Tb7 1_555 1_555
H10 O15 1_555 1_555
O16 Tb7 1_555 1_555
H11 O16 1_555 1_555
H12 O16 1_555 1_555
C9 O11 1_555 1_555
C10 C9 1_555 1_555
H13 C10 1_555 1_555
O22 Tb7 1_555 1_555
O22 C12 1_555 1_555
H14 C11 1_555 1_555
C12 O13 1_555 1_555
C11 C12 1_555 1_555

#END
