
###############################################################################
#
# This file contains modified crystal structure data generated from the
# MOF subset of the Cambridge Structural Database (CSD) v543 
# hosted by the Cambridge Crystallographic Data Centre (CCDC).
#
# This work is licensed under the Creative Commons
# Attribution-NonCommercial-ShareAlike 4.0 International License.
# To view a copy of this license, visit
# http://creativecommons.org/licenses/by-nc-sa/4.0/
# or send a letter to
# Creative Commons, PO Box 1866, Mountain View, CA 94042, USA.
#
# CIF created using the CSD Python API on 29 September 2022
# The structure has been converted into the P1 space group
# The structure has a 3D framework
# The original CSD entry LIPQIL is in the cubic crystal system
# The framework has been calculated to contain at least 10.0% void space
# The void calculation uses a probe of radius 1.32A, grid spacing 0.4
# The framework is charged, counterions have been retained in the structure
# H atom positions have been added when not included in the experimental data
# Generated hydrogen atom positions removed from atoms on special positions
#
###############################################################################

data_LIPQIL
_chemical_formula_moiety         '(C168 H216 Cl32 Cu24 N96 O112 8+)n'
_symmetry_cell_setting           triclinic
_symmetry_space_group_name_H-M   'P 1'
_symmetry_Int_Tables_number      1
_space_group_name_Hall           'P 1'
loop_
_symmetry_equiv_pos_site_id
_symmetry_equiv_pos_as_xyz
1 x,y,z
_cell_length_a                   21.146(2)
_cell_length_b                   21.146(2)
_cell_length_c                   21.146(2)
_cell_angle_alpha                90
_cell_angle_beta                 90
_cell_angle_gamma                90
_cell_volume                     9455.5
loop_
_atom_site_label
_atom_site_type_symbol
_atom_site_fract_x
_atom_site_fract_y
_atom_site_fract_z
Cl1 Cl 0.7099(3) 0.7099(3) 0.2901(3)
O1 O 0.7479(3) 0.6717(5) 0.2521(3)
O2 O 0.6720(4) 0.6720(4) 0.3280(4)
O3 O 0.7479(3) 0.7479(3) 0.3283(5)
O4 O 0.6717(5) 0.7479(3) 0.2521(3)
Cl1_2 Cl 0.2901(3) 0.2901(3) 0.2901(3)
O1_2 O 0.2521(3) 0.3283(5) 0.2521(3)
O2_2 O 0.3280(4) 0.3280(4) 0.3280(4)
O3_2 O 0.2521(3) 0.2521(3) 0.3283(5)
O4_2 O 0.3283(5) 0.2521(3) 0.2521(3)
Cl1_3 Cl 0.2901(3) 0.7099(3) 0.7099(3)
O1_3 O 0.2521(3) 0.6717(5) 0.7479(3)
O2_3 O 0.3280(4) 0.6720(4) 0.6720(4)
O3_3 O 0.2521(3) 0.7479(3) 0.6717(5)
O4_3 O 0.3283(5) 0.7479(3) 0.7479(3)
Cl1_4 Cl 0.7099(3) 0.2901(3) 0.7099(3)
O1_4 O 0.7479(3) 0.3283(5) 0.7479(3)
O2_4 O 0.6720(4) 0.3280(4) 0.6720(4)
O3_4 O 0.7479(3) 0.2521(3) 0.6717(5)
O4_4 O 0.6717(5) 0.2521(3) 0.7479(3)
Cl1_5 Cl 0.2099(3) 0.2099(3) 0.7901(3)
O1_5 O 0.2479(3) 0.1717(5) 0.7521(3)
O2_5 O 0.1720(4) 0.1720(4) 0.8280(4)
O3_5 O 0.2479(3) 0.2479(3) 0.8283(5)
O4_5 O 0.1717(5) 0.2479(3) 0.7521(3)
Cl1_6 Cl 0.7901(3) 0.7901(3) 0.7901(3)
O1_6 O 0.7521(3) 0.8283(5) 0.7521(3)
O2_6 O 0.8280(4) 0.8280(4) 0.8280(4)
O3_6 O 0.7521(3) 0.7521(3) 0.8283(5)
O4_6 O 0.8283(5) 0.7521(3) 0.7521(3)
Cl1_7 Cl 0.7901(3) 0.2099(3) 0.2099(3)
O1_7 O 0.7521(3) 0.1717(5) 0.2479(3)
O2_7 O 0.8280(4) 0.1720(4) 0.1720(4)
O3_7 O 0.7521(3) 0.2479(3) 0.1717(5)
O4_7 O 0.8283(5) 0.2479(3) 0.2479(3)
Cl1_8 Cl 0.2099(3) 0.7901(3) 0.2099(3)
O1_8 O 0.2479(3) 0.8283(5) 0.2479(3)
O2_8 O 0.1720(4) 0.8280(4) 0.1720(4)
O3_8 O 0.2479(3) 0.7521(3) 0.1717(5)
O4_8 O 0.1717(5) 0.7521(3) 0.2479(3)
Cl2 Cl 0.7500 0.0000 0.5000
O6 O 0.7891(3) 0.0166(3) 0.4468(3)
O7 O 0.7109(3) 0.0532(3) 0.5166(3)
Cl2_2 Cl 0.7500 1.0000 0.5000
O5 O 0.7891(3) 0.9834(3) 0.5532(3)
O8 O 0.7109(3) 0.9468(3) 0.4834(3)
Cl2_3 Cl 0.2500 -0.0000 0.5000
O5_2 O 0.2109(3) 0.0166(3) 0.5532(3)
O8_2 O 0.2891(3) 0.0532(3) 0.4834(3)
Cl2_4 Cl 0.2500 1.0000 0.5000
O6_2 O 0.2109(3) 0.9834(3) 0.4468(3)
O7_2 O 0.2891(3) 0.9468(3) 0.5166(3)
Cl2_5 Cl 0.5000 0.7500 0.0000
O6_3 O 0.4468(3) 0.7891(3) 0.0166(3)
O7_3 O 0.5166(3) 0.7109(3) 0.0532(3)
Cl2_6 Cl 0.5000 0.7500 1.0000
O5_3 O 0.5532(3) 0.7891(3) 0.9834(3)
O8_3 O 0.4834(3) 0.7109(3) 0.9468(3)
Cl2_7 Cl 0.5000 0.2500 -0.0000
O5_4 O 0.5532(3) 0.2109(3) 0.0166(3)
O8_4 O 0.4834(3) 0.2891(3) 0.0532(3)
Cl2_8 Cl 0.5000 0.2500 1.0000
O6_4 O 0.4468(3) 0.2109(3) 0.9834(3)
O7_4 O 0.5166(3) 0.2891(3) 0.9468(3)
Cl2_9 Cl -0.0000 0.5000 0.7500
O6_5 O 0.0166(3) 0.4468(3) 0.7891(3)
O7_5 O 0.0532(3) 0.5166(3) 0.7109(3)
Cl2_10 Cl 1.0000 0.5000 0.7500
O5_5 O 0.9834(3) 0.5532(3) 0.7891(3)
O8_5 O 0.9468(3) 0.4834(3) 0.7109(3)
Cl2_11 Cl -0.0000 0.5000 0.2500
O5_6 O 0.0166(3) 0.5532(3) 0.2109(3)
O8_6 O 0.0532(3) 0.4834(3) 0.2891(3)
Cl2_12 Cl 1.0000 0.5000 0.2500
O6_6 O 0.9834(3) 0.4468(3) 0.2109(3)
O7_6 O 0.9468(3) 0.5166(3) 0.2891(3)
Cl2_13 Cl -0.0000 0.7500 0.5000
O6_7 O 0.0166(3) 0.7891(3) 0.4468(3)
O7_7 O 0.0532(3) 0.7109(3) 0.5166(3)
Cl2_14 Cl 1.0000 0.7500 0.5000
O5_7 O 0.9834(3) 0.7891(3) 0.5532(3)
O8_7 O 0.9468(3) 0.7109(3) 0.4834(3)
Cl2_15 Cl -0.0000 0.2500 0.5000
O5_8 O 0.0166(3) 0.2109(3) 0.5532(3)
O8_8 O 0.0532(3) 0.2891(3) 0.4834(3)
Cl2_16 Cl 1.0000 0.2500 0.5000
O6_8 O 0.9834(3) 0.2109(3) 0.4468(3)
O7_8 O 0.9468(3) 0.2891(3) 0.5166(3)
Cl2_17 Cl 0.7500 0.5000 0.0000
O6_9 O 0.7891(3) 0.4468(3) 0.0166(3)
O7_9 O 0.7109(3) 0.5166(3) 0.0532(3)
Cl2_18 Cl 0.7500 0.5000 1.0000
O5_9 O 0.7891(3) 0.5532(3) 0.9834(3)
O8_9 O 0.7109(3) 0.4834(3) 0.9468(3)
Cl2_19 Cl 0.2500 0.5000 -0.0000
O5_10 O 0.2109(3) 0.5532(3) 0.0166(3)
O8_10 O 0.2891(3) 0.4834(3) 0.0532(3)
Cl2_20 Cl 0.2500 0.5000 1.0000
O6_10 O 0.2109(3) 0.4468(3) 0.9834(3)
O7_10 O 0.2891(3) 0.5166(3) 0.9468(3)
Cl2_21 Cl 0.5000 -0.0000 0.7500
O6_11 O 0.4468(3) 0.0166(3) 0.7891(3)
O7_11 O 0.5166(3) 0.0532(3) 0.7109(3)
Cl2_22 Cl 0.5000 1.0000 0.7500
O5_11 O 0.5532(3) 0.9834(3) 0.7891(3)
O8_11 O 0.4834(3) 0.9468(3) 0.7109(3)
Cl2_23 Cl 0.5000 -0.0000 0.2500
O5_12 O 0.5532(3) 0.0166(3) 0.2109(3)
O8_12 O 0.4834(3) 0.0532(3) 0.2891(3)
Cl2_24 Cl 0.5000 1.0000 0.2500
O6_12 O 0.4468(3) 0.9834(3) 0.2109(3)
O7_12 O 0.5166(3) 0.9468(3) 0.2891(3)
Cu1 Cu 0.67417(4) 0.67417(5) 0.78738(4)
O9 O 0.7002(3) 0.7002(3) 0.7002(3)
O10 O 0.6063(4) 0.6063(6) 0.7303(4)
N1 N 0.8525(3) 0.3744(3) 0.8525(3)
N2 N 0.8109(3) 0.5374(4) 0.8109(3)
N3 N 0.7427(3) 0.6095(3) 0.7886(3)
C1 C 0.8255(3) 0.4248(4) 0.8255(3)
H1 H 0.7946 0.4190 0.7946
C2 C 0.8967(4) 0.3848(5) 0.8967(4)
H2 H 0.9158 0.3502 0.9158
C3 C 0.9146(4) 0.4426(5) 0.9146(4)
H3 H 0.9455 0.4477 0.9455
C4 C 0.8862(3) 0.4958(5) 0.8862(3)
H4 H 0.8976 0.5367 0.8976
C5 C 0.8425(3) 0.4849(4) 0.8425(3)
C6 C 0.7566(4) 0.5661(3) 0.8285(3)
H5 H 0.7330 0.5558 0.8641
Cu2 Cu 0.82583(5) 0.28738(4) 0.82583(4)
Cu3 Cu 0.78738(4) 0.67417(4) 0.67417(5)
Cu4 Cu 0.67417(5) 0.78738(4) 0.67417(4)
Cu5 Cu 0.82583(4) 0.82583(5) 0.28738(4)
Cu6 Cu 0.28738(4) 0.82583(4) 0.82583(5)
O11 O 0.7303(4) 0.6063(4) 0.6063(6)
O12 O 0.6063(6) 0.7303(4) 0.6063(4)
N4 N 0.6475(3) 0.6475(3) 0.8744(3)
N5 N 0.8744(3) 0.6475(3) 0.6475(3)
N6 N 0.6475(3) 0.8744(3) 0.6475(3)
N7 N 0.8525(3) 0.8525(3) 0.3744(3)
N8 N 0.3744(3) 0.8525(3) 0.8525(3)
N9 N 0.8109(3) 0.8109(3) 0.5374(4)
N10 N 0.5374(4) 0.8109(3) 0.8109(3)
N11 N 0.6095(3) 0.7427(3) 0.7886(3)
N12 N 0.7886(3) 0.6095(3) 0.7427(3)
N13 N 0.7886(3) 0.7427(3) 0.6095(3)
N14 N 0.7427(3) 0.7886(3) 0.6095(3)
N15 N 0.6095(3) 0.7886(3) 0.7427(3)
C7 C 0.8255(3) 0.8255(3) 0.4248(4)
C8 C 0.4248(4) 0.8255(3) 0.8255(3)
H6 H 0.7946 0.7946 0.4190
H7 H 0.4190 0.7946 0.7946
C9 C 0.8967(4) 0.8967(4) 0.3848(5)
C10 C 0.3848(5) 0.8967(4) 0.8967(4)
H8 H 0.9158 0.9158 0.3502
H9 H 0.3502 0.9158 0.9158
C11 C 0.9146(4) 0.9146(4) 0.4426(5)
C12 C 0.4426(5) 0.9146(4) 0.9146(4)
H10 H 0.9455 0.9455 0.4477
H11 H 0.4477 0.9455 0.9455
C13 C 0.8862(3) 0.8862(3) 0.4958(5)
C14 C 0.4958(5) 0.8862(3) 0.8862(3)
H12 H 0.8976 0.8976 0.5367
H13 H 0.5367 0.8976 0.8976
C15 C 0.8425(3) 0.8425(3) 0.4849(4)
C16 C 0.4849(4) 0.8425(3) 0.8425(3)
C17 C 0.8285(3) 0.5661(3) 0.7566(4)
C18 C 0.8285(3) 0.7566(4) 0.5661(3)
C19 C 0.7566(4) 0.8285(3) 0.5661(3)
C20 C 0.5661(3) 0.8285(3) 0.7566(4)
C21 C 0.5661(3) 0.7566(4) 0.8285(3)
H14 H 0.8641 0.7330 0.5558
H15 H 0.8641 0.5558 0.7330
H16 H 0.7330 0.8641 0.5558
H17 H 0.5558 0.8641 0.7330
H18 H 0.5558 0.7330 0.8641
Cu1_2 Cu 0.32583(4) 0.32583(5) 0.78738(4)
O9_2 O 0.2998(3) 0.2998(3) 0.7002(3)
O10_2 O 0.3937(4) 0.3937(6) 0.7303(4)
N1_2 N 0.1475(3) 0.6256(3) 0.8525(3)
N2_2 N 0.1891(3) 0.4626(4) 0.8109(3)
N3_2 N 0.2573(3) 0.3905(3) 0.7886(3)
C1_2 C 0.1745(3) 0.5752(4) 0.8255(3)
H1_2 H 0.2054 0.5810 0.7946
C2_2 C 0.1033(4) 0.6152(5) 0.8967(4)
H2_2 H 0.0842 0.6498 0.9158
C3_2 C 0.0854(4) 0.5574(5) 0.9146(4)
H3_2 H 0.0545 0.5523 0.9455
C4_2 C 0.1138(3) 0.5042(5) 0.8862(3)
H4_2 H 0.1024 0.4633 0.8976
C5_2 C 0.1575(3) 0.5151(4) 0.8425(3)
C6_2 C 0.2434(4) 0.4339(3) 0.8285(3)
H5_2 H 0.2670 0.4442 0.8641
Cu2_2 Cu 0.17417(5) 0.71262(4) 0.82583(4)
Cu3_2 Cu 0.21262(4) 0.32583(4) 0.67417(5)
Cu4_2 Cu 0.32583(5) 0.21262(4) 0.67417(4)
Cu5_2 Cu 0.17417(4) 0.17417(5) 0.28738(4)
Cu6_2 Cu 0.71262(4) 0.17417(4) 0.82583(5)
O11_2 O 0.2697(4) 0.3937(4) 0.6063(6)
O12_2 O 0.3937(6) 0.2697(4) 0.6063(4)
N4_2 N 0.3525(3) 0.3525(3) 0.8744(3)
N5_2 N 0.1256(3) 0.3525(3) 0.6475(3)
N6_2 N 0.3525(3) 0.1256(3) 0.6475(3)
N7_2 N 0.1475(3) 0.1475(3) 0.3744(3)
N8_2 N 0.6256(3) 0.1475(3) 0.8525(3)
N9_2 N 0.1891(3) 0.1891(3) 0.5374(4)
N10_2 N 0.4626(4) 0.1891(3) 0.8109(3)
N11_2 N 0.3905(3) 0.2573(3) 0.7886(3)
N12_2 N 0.2114(3) 0.3905(3) 0.7427(3)
N13_2 N 0.2114(3) 0.2573(3) 0.6095(3)
N14_2 N 0.2573(3) 0.2114(3) 0.6095(3)
N15_2 N 0.3905(3) 0.2114(3) 0.7427(3)
C7_2 C 0.1745(3) 0.1745(3) 0.4248(4)
C8_2 C 0.5752(4) 0.1745(3) 0.8255(3)
H6_2 H 0.2054 0.2054 0.4190
H7_2 H 0.5810 0.2054 0.7946
C9_2 C 0.1033(4) 0.1033(4) 0.3848(5)
C10_2 C 0.6152(5) 0.1033(4) 0.8967(4)
H8_2 H 0.0842 0.0842 0.3502
H9_2 H 0.6498 0.0842 0.9158
C11_2 C 0.0854(4) 0.0854(4) 0.4426(5)
C12_2 C 0.5574(5) 0.0854(4) 0.9146(4)
H10_2 H 0.0545 0.0545 0.4477
H11_2 H 0.5523 0.0545 0.9455
C13_2 C 0.1138(3) 0.1138(3) 0.4958(5)
C14_2 C 0.5042(5) 0.1138(3) 0.8862(3)
H12_2 H 0.1024 0.1024 0.5367
H13_2 H 0.4633 0.1024 0.8976
C15_2 C 0.1575(3) 0.1575(3) 0.4849(4)
C16_2 C 0.5151(4) 0.1575(3) 0.8425(3)
C17_2 C 0.1715(3) 0.4339(3) 0.7566(4)
C18_2 C 0.1715(3) 0.2434(4) 0.5661(3)
C19_2 C 0.2434(4) 0.1715(3) 0.5661(3)
C20_2 C 0.4339(3) 0.1715(3) 0.7566(4)
C21_2 C 0.4339(3) 0.2434(4) 0.8285(3)
H14_2 H 0.1359 0.2670 0.5558
H15_2 H 0.1359 0.4442 0.7330
H16_2 H 0.2670 0.1359 0.5558
H17_2 H 0.4442 0.1359 0.7330
H18_2 H 0.4442 0.2670 0.8641
Cu1_3 Cu 0.32583(4) 0.67417(5) 0.21262(4)
O9_3 O 0.2998(3) 0.7002(3) 0.2998(3)
O10_3 O 0.3937(4) 0.6063(6) 0.2697(4)
N1_3 N 0.1475(3) 0.3744(3) 0.1475(3)
N2_3 N 0.1891(3) 0.5374(4) 0.1891(3)
N3_3 N 0.2573(3) 0.6095(3) 0.2114(3)
C1_3 C 0.1745(3) 0.4248(4) 0.1745(3)
H1_3 H 0.2054 0.4190 0.2054
C2_3 C 0.1033(4) 0.3848(5) 0.1033(4)
H2_3 H 0.0842 0.3502 0.0842
C3_3 C 0.0854(4) 0.4426(5) 0.0854(4)
H3_3 H 0.0545 0.4477 0.0545
C4_3 C 0.1138(3) 0.4958(5) 0.1138(3)
H4_3 H 0.1024 0.5367 0.1024
C5_3 C 0.1575(3) 0.4849(4) 0.1575(3)
C6_3 C 0.2434(4) 0.5661(3) 0.1715(3)
H5_3 H 0.2670 0.5558 0.1359
Cu2_3 Cu 0.17417(5) 0.28738(4) 0.17417(4)
Cu3_3 Cu 0.21262(4) 0.67417(4) 0.32583(5)
Cu4_3 Cu 0.32583(5) 0.78738(4) 0.32583(4)
Cu5_3 Cu 0.17417(4) 0.82583(5) 0.71262(4)
Cu6_3 Cu 0.71262(4) 0.82583(4) 0.17417(5)
O11_3 O 0.2697(4) 0.6063(4) 0.3937(6)
O12_3 O 0.3937(6) 0.7303(4) 0.3937(4)
N4_3 N 0.3525(3) 0.6475(3) 0.1256(3)
N5_3 N 0.1256(3) 0.6475(3) 0.3525(3)
N6_3 N 0.3525(3) 0.8744(3) 0.3525(3)
N7_3 N 0.1475(3) 0.8525(3) 0.6256(3)
N8_3 N 0.6256(3) 0.8525(3) 0.1475(3)
N9_3 N 0.1891(3) 0.8109(3) 0.4626(4)
N10_3 N 0.4626(4) 0.8109(3) 0.1891(3)
N11_3 N 0.3905(3) 0.7427(3) 0.2114(3)
N12_3 N 0.2114(3) 0.6095(3) 0.2573(3)
N13_3 N 0.2114(3) 0.7427(3) 0.3905(3)
N14_3 N 0.2573(3) 0.7886(3) 0.3905(3)
N15_3 N 0.3905(3) 0.7886(3) 0.2573(3)
C7_3 C 0.1745(3) 0.8255(3) 0.5752(4)
C8_3 C 0.5752(4) 0.8255(3) 0.1745(3)
H6_3 H 0.2054 0.7946 0.5810
H7_3 H 0.5810 0.7946 0.2054
C9_3 C 0.1033(4) 0.8967(4) 0.6152(5)
C10_3 C 0.6152(5) 0.8967(4) 0.1033(4)
H8_3 H 0.0842 0.9158 0.6498
H9_3 H 0.6498 0.9158 0.0842
C11_3 C 0.0854(4) 0.9146(4) 0.5574(5)
C12_3 C 0.5574(5) 0.9146(4) 0.0854(4)
H10_3 H 0.0545 0.9455 0.5523
H11_3 H 0.5523 0.9455 0.0545
C13_3 C 0.1138(3) 0.8862(3) 0.5042(5)
C14_3 C 0.5042(5) 0.8862(3) 0.1138(3)
H12_3 H 0.1024 0.8976 0.4633
H13_3 H 0.4633 0.8976 0.1024
C15_3 C 0.1575(3) 0.8425(3) 0.5151(4)
C16_3 C 0.5151(4) 0.8425(3) 0.1575(3)
C17_3 C 0.1715(3) 0.5661(3) 0.2434(4)
C18_3 C 0.1715(3) 0.7566(4) 0.4339(3)
C19_3 C 0.2434(4) 0.8285(3) 0.4339(3)
C20_3 C 0.4339(3) 0.8285(3) 0.2434(4)
C21_3 C 0.4339(3) 0.7566(4) 0.1715(3)
H14_3 H 0.1359 0.7330 0.4442
H15_3 H 0.1359 0.5558 0.2670
H16_3 H 0.2670 0.8641 0.4442
H17_3 H 0.4442 0.8641 0.2670
H18_3 H 0.4442 0.7330 0.1359
Cu1_4 Cu 0.67417(4) 0.32583(5) 0.21262(4)
O9_4 O 0.7002(3) 0.2998(3) 0.2998(3)
O10_4 O 0.6063(4) 0.3937(6) 0.2697(4)
N1_4 N 0.8525(3) 0.6256(3) 0.1475(3)
N2_4 N 0.8109(3) 0.4626(4) 0.1891(3)
N3_4 N 0.7427(3) 0.3905(3) 0.2114(3)
C1_4 C 0.8255(3) 0.5752(4) 0.1745(3)
H1_4 H 0.7946 0.5810 0.2054
C2_4 C 0.8967(4) 0.6152(5) 0.1033(4)
H2_4 H 0.9158 0.6498 0.0842
C3_4 C 0.9146(4) 0.5574(5) 0.0854(4)
H3_4 H 0.9455 0.5523 0.0545
C4_4 C 0.8862(3) 0.5042(5) 0.1138(3)
H4_4 H 0.8976 0.4633 0.1024
C5_4 C 0.8425(3) 0.5151(4) 0.1575(3)
C6_4 C 0.7566(4) 0.4339(3) 0.1715(3)
H5_4 H 0.7330 0.4442 0.1359
Cu2_4 Cu 0.82583(5) 0.71262(4) 0.17417(4)
Cu3_4 Cu 0.78738(4) 0.32583(4) 0.32583(5)
Cu4_4 Cu 0.67417(5) 0.21262(4) 0.32583(4)
Cu5_4 Cu 0.82583(4) 0.17417(5) 0.71262(4)
Cu6_4 Cu 0.28738(4) 0.17417(4) 0.17417(5)
O11_4 O 0.7303(4) 0.3937(4) 0.3937(6)
O12_4 O 0.6063(6) 0.2697(4) 0.3937(4)
N4_4 N 0.6475(3) 0.3525(3) 0.1256(3)
N5_4 N 0.8744(3) 0.3525(3) 0.3525(3)
N6_4 N 0.6475(3) 0.1256(3) 0.3525(3)
N7_4 N 0.8525(3) 0.1475(3) 0.6256(3)
N8_4 N 0.3744(3) 0.1475(3) 0.1475(3)
N9_4 N 0.8109(3) 0.1891(3) 0.4626(4)
N10_4 N 0.5374(4) 0.1891(3) 0.1891(3)
N11_4 N 0.6095(3) 0.2573(3) 0.2114(3)
N12_4 N 0.7886(3) 0.3905(3) 0.2573(3)
N13_4 N 0.7886(3) 0.2573(3) 0.3905(3)
N14_4 N 0.7427(3) 0.2114(3) 0.3905(3)
N15_4 N 0.6095(3) 0.2114(3) 0.2573(3)
C7_4 C 0.8255(3) 0.1745(3) 0.5752(4)
C8_4 C 0.4248(4) 0.1745(3) 0.1745(3)
H6_4 H 0.7946 0.2054 0.5810
H7_4 H 0.4190 0.2054 0.2054
C9_4 C 0.8967(4) 0.1033(4) 0.6152(5)
C10_4 C 0.3848(5) 0.1033(4) 0.1033(4)
H8_4 H 0.9158 0.0842 0.6498
H9_4 H 0.3502 0.0842 0.0842
C11_4 C 0.9146(4) 0.0854(4) 0.5574(5)
C12_4 C 0.4426(5) 0.0854(4) 0.0854(4)
H10_4 H 0.9455 0.0545 0.5523
H11_4 H 0.4477 0.0545 0.0545
C13_4 C 0.8862(3) 0.1138(3) 0.5042(5)
C14_4 C 0.4958(5) 0.1138(3) 0.1138(3)
H12_4 H 0.8976 0.1024 0.4633
H13_4 H 0.5367 0.1024 0.1024
C15_4 C 0.8425(3) 0.1575(3) 0.5151(4)
C16_4 C 0.4849(4) 0.1575(3) 0.1575(3)
C17_4 C 0.8285(3) 0.4339(3) 0.2434(4)
C18_4 C 0.8285(3) 0.2434(4) 0.4339(3)
C19_4 C 0.7566(4) 0.1715(3) 0.4339(3)
C20_4 C 0.5661(3) 0.1715(3) 0.2434(4)
C21_4 C 0.5661(3) 0.2434(4) 0.1715(3)
H14_4 H 0.8641 0.2670 0.4442
H15_4 H 0.8641 0.4442 0.2670
H16_4 H 0.7330 0.1359 0.4442
H17_4 H 0.5558 0.1359 0.2670
H18_4 H 0.5558 0.2670 0.1359
O9_5 O 0.2002(3) 0.2002(3) 0.2002(3)
O10_5 O 0.1063(4) 0.1063(6) 0.2303(4)
N2_5 N 0.3109(3) 0.0374(4) 0.3109(3)
N3_5 N 0.2427(3) 0.1095(3) 0.2886(3)
H4_5 H 0.3976 0.0367 0.3976
C6_5 C 0.2566(4) 0.0661(3) 0.3285(3)
H5_5 H 0.2330 0.0558 0.3641
O11_5 O 0.2303(4) 0.1063(4) 0.1063(6)
O12_5 O 0.1063(6) 0.2303(4) 0.1063(4)
N9_5 N 0.3109(3) 0.3109(3) 0.0374(4)
N10_5 N 0.0374(4) 0.3109(3) 0.3109(3)
N11_5 N 0.1095(3) 0.2427(3) 0.2886(3)
N12_5 N 0.2886(3) 0.1095(3) 0.2427(3)
N13_5 N 0.2886(3) 0.2427(3) 0.1095(3)
N14_5 N 0.2427(3) 0.2886(3) 0.1095(3)
N15_5 N 0.1095(3) 0.2886(3) 0.2427(3)
H12_5 H 0.3976 0.3976 0.0367
H13_5 H 0.0367 0.3976 0.3976
C17_5 C 0.3285(3) 0.0661(3) 0.2566(4)
C18_5 C 0.3285(3) 0.2566(4) 0.0661(3)
C19_5 C 0.2566(4) 0.3285(3) 0.0661(3)
C20_5 C 0.0661(3) 0.3285(3) 0.2566(4)
C21_5 C 0.0661(3) 0.2566(4) 0.3285(3)
H14_5 H 0.3641 0.2330 0.0558
H15_5 H 0.3641 0.0558 0.2330
H16_5 H 0.2330 0.3641 0.0558
H17_5 H 0.0558 0.3641 0.2330
H18_5 H 0.0558 0.2330 0.3641
C7_5 C 0.3255(3) 0.3255(3) 0.9248(4)
H6_5 H 0.2946 0.2946 0.9190
C9_5 C 0.3967(4) 0.3967(4) 0.8848(5)
H8_5 H 0.4158 0.4158 0.8502
C11_5 C 0.4146(4) 0.4146(4) 0.9426(5)
H10_5 H 0.4455 0.4455 0.9477
C13_5 C 0.3862(3) 0.3862(3) 0.9958(5)
C15_5 C 0.3425(3) 0.3425(3) 0.9849(4)
C1_5 C 0.3255(3) 0.9248(4) 0.3255(3)
H1_5 H 0.2946 0.9190 0.2946
C2_5 C 0.3967(4) 0.8848(5) 0.3967(4)
H2_5 H 0.4158 0.8502 0.4158
C3_5 C 0.4146(4) 0.9426(5) 0.4146(4)
H3_5 H 0.4455 0.9477 0.4455
C4_5 C 0.3862(3) 0.9958(5) 0.3862(3)
C5_5 C 0.3425(3) 0.9849(4) 0.3425(3)
C8_5 C 0.9248(4) 0.3255(3) 0.3255(3)
H7_5 H 0.9190 0.2946 0.2946
C10_5 C 0.8848(5) 0.3967(4) 0.3967(4)
H9_5 H 0.8502 0.4158 0.4158
C12_5 C 0.9426(5) 0.4146(4) 0.4146(4)
H11_5 H 0.9477 0.4455 0.4455
C14_5 C 0.9958(5) 0.3862(3) 0.3862(3)
C16_5 C 0.9849(4) 0.3425(3) 0.3425(3)
C8_6 C 0.0752(4) 0.6745(3) 0.3255(3)
H7_6 H 0.0810 0.7054 0.2946
C10_6 C 0.1152(5) 0.6033(4) 0.3967(4)
H9_6 H 0.1498 0.5842 0.4158
C12_6 C 0.0574(5) 0.5854(4) 0.4146(4)
H11_6 H 0.0523 0.5545 0.4455
C14_6 C 0.0042(5) 0.6138(3) 0.3862(3)
C16_6 C 0.0151(4) 0.6575(3) 0.3425(3)
C1_6 C 0.6745(3) 0.0752(4) 0.3255(3)
H1_6 H 0.7054 0.0810 0.2946
C2_6 C 0.6033(4) 0.1152(5) 0.3967(4)
H2_6 H 0.5842 0.1498 0.4158
C3_6 C 0.5854(4) 0.0574(5) 0.4146(4)
H3_6 H 0.5545 0.0523 0.4455
C4_6 C 0.6138(3) 0.0042(5) 0.3862(3)
C5_6 C 0.6575(3) 0.0151(4) 0.3425(3)
O9_6 O 0.7998(3) 0.7998(3) 0.2002(3)
O10_6 O 0.8937(4) 0.8937(6) 0.2303(4)
N2_6 N 0.6891(3) 0.9626(4) 0.3109(3)
N3_6 N 0.7573(3) 0.8905(3) 0.2886(3)
H4_6 H 0.6024 0.9633 0.3976
C6_6 C 0.7434(4) 0.9339(3) 0.3285(3)
H5_6 H 0.7670 0.9442 0.3641
O11_6 O 0.7697(4) 0.8937(4) 0.1063(6)
O12_6 O 0.8937(6) 0.7697(4) 0.1063(4)
N9_6 N 0.6891(3) 0.6891(3) 0.0374(4)
N10_6 N 0.9626(4) 0.6891(3) 0.3109(3)
N11_6 N 0.8905(3) 0.7573(3) 0.2886(3)
N12_6 N 0.7114(3) 0.8905(3) 0.2427(3)
N13_6 N 0.7114(3) 0.7573(3) 0.1095(3)
N14_6 N 0.7573(3) 0.7114(3) 0.1095(3)
N15_6 N 0.8905(3) 0.7114(3) 0.2427(3)
H12_6 H 0.6024 0.6024 0.0367
H13_6 H 0.9633 0.6024 0.3976
C17_6 C 0.6715(3) 0.9339(3) 0.2566(4)
C18_6 C 0.6715(3) 0.7434(4) 0.0661(3)
C19_6 C 0.7434(4) 0.6715(3) 0.0661(3)
C20_6 C 0.9339(3) 0.6715(3) 0.2566(4)
C21_6 C 0.9339(3) 0.7434(4) 0.3285(3)
H14_6 H 0.6359 0.7670 0.0558
H15_6 H 0.6359 0.9442 0.2330
H16_6 H 0.7670 0.6359 0.0558
H17_6 H 0.9442 0.6359 0.2330
H18_6 H 0.9442 0.7670 0.3641
C7_6 C 0.6745(3) 0.6745(3) 0.9248(4)
H6_6 H 0.7054 0.7054 0.9190
C9_6 C 0.6033(4) 0.6033(4) 0.8848(5)
H8_6 H 0.5842 0.5842 0.8502
C11_6 C 0.5854(4) 0.5854(4) 0.9426(5)
H10_6 H 0.5545 0.5545 0.9477
C13_6 C 0.6138(3) 0.6138(3) 0.9958(5)
C15_6 C 0.6575(3) 0.6575(3) 0.9849(4)
C8_7 C 0.0752(4) 0.3255(3) 0.6745(3)
H7_7 H 0.0810 0.2946 0.7054
C10_7 C 0.1152(5) 0.3967(4) 0.6033(4)
H9_7 H 0.1498 0.4158 0.5842
C12_7 C 0.0574(5) 0.4146(4) 0.5854(4)
H11_7 H 0.0523 0.4455 0.5545
C14_7 C 0.0042(5) 0.3862(3) 0.6138(3)
C16_7 C 0.0151(4) 0.3425(3) 0.6575(3)
C7_7 C 0.6745(3) 0.3255(3) 0.0752(4)
H6_7 H 0.7054 0.2946 0.0810
C9_7 C 0.6033(4) 0.3967(4) 0.1152(5)
H8_7 H 0.5842 0.4158 0.1498
C11_7 C 0.5854(4) 0.4146(4) 0.0574(5)
H10_7 H 0.5545 0.4455 0.0523
C13_7 C 0.6138(3) 0.3862(3) 0.0042(5)
C15_7 C 0.6575(3) 0.3425(3) 0.0151(4)
O9_7 O 0.7998(3) 0.2002(3) 0.7998(3)
O10_7 O 0.8937(4) 0.1063(6) 0.7697(4)
N2_7 N 0.6891(3) 0.0374(4) 0.6891(3)
N3_7 N 0.7573(3) 0.1095(3) 0.7114(3)
H4_7 H 0.6024 0.0367 0.6024
C6_7 C 0.7434(4) 0.0661(3) 0.6715(3)
H5_7 H 0.7670 0.0558 0.6359
O11_7 O 0.7697(4) 0.1063(4) 0.8937(6)
O12_7 O 0.8937(6) 0.2303(4) 0.8937(4)
N9_7 N 0.6891(3) 0.3109(3) 0.9626(4)
N10_7 N 0.9626(4) 0.3109(3) 0.6891(3)
N11_7 N 0.8905(3) 0.2427(3) 0.7114(3)
N12_7 N 0.7114(3) 0.1095(3) 0.7573(3)
N13_7 N 0.7114(3) 0.2427(3) 0.8905(3)
N14_7 N 0.7573(3) 0.2886(3) 0.8905(3)
N15_7 N 0.8905(3) 0.2886(3) 0.7573(3)
H12_7 H 0.6024 0.3976 0.9633
H13_7 H 0.9633 0.3976 0.6024
C17_7 C 0.6715(3) 0.0661(3) 0.7434(4)
C18_7 C 0.6715(3) 0.2566(4) 0.9339(3)
C19_7 C 0.7434(4) 0.3285(3) 0.9339(3)
C20_7 C 0.9339(3) 0.3285(3) 0.7434(4)
C21_7 C 0.9339(3) 0.2566(4) 0.6715(3)
H14_7 H 0.6359 0.2330 0.9442
H15_7 H 0.6359 0.0558 0.7670
H16_7 H 0.7670 0.3641 0.9442
H17_7 H 0.9442 0.3641 0.7670
H18_7 H 0.9442 0.2330 0.6359
C1_7 C 0.6745(3) 0.9248(4) 0.6745(3)
H1_7 H 0.7054 0.9190 0.7054
C2_7 C 0.6033(4) 0.8848(5) 0.6033(4)
H2_7 H 0.5842 0.8502 0.5842
C3_7 C 0.5854(4) 0.9426(5) 0.5854(4)
H3_7 H 0.5545 0.9477 0.5545
C4_7 C 0.6138(3) 0.9958(5) 0.6138(3)
C5_7 C 0.6575(3) 0.9849(4) 0.6575(3)
C1_8 C 0.3255(3) 0.0752(4) 0.6745(3)
H1_8 H 0.2946 0.0810 0.7054
C2_8 C 0.3967(4) 0.1152(5) 0.6033(4)
H2_8 H 0.4158 0.1498 0.5842
C3_8 C 0.4146(4) 0.0574(5) 0.5854(4)
H3_8 H 0.4455 0.0523 0.5545
C4_8 C 0.3862(3) 0.0042(5) 0.6138(3)
C5_8 C 0.3425(3) 0.0151(4) 0.6575(3)
C7_8 C 0.3255(3) 0.6745(3) 0.0752(4)
H6_8 H 0.2946 0.7054 0.0810
C9_8 C 0.3967(4) 0.6033(4) 0.1152(5)
H8_8 H 0.4158 0.5842 0.1498
C11_8 C 0.4146(4) 0.5854(4) 0.0574(5)
H10_8 H 0.4455 0.5545 0.0523
C13_8 C 0.3862(3) 0.6138(3) 0.0042(5)
C15_8 C 0.3425(3) 0.6575(3) 0.0151(4)
O9_8 O 0.2002(3) 0.7998(3) 0.7998(3)
O10_8 O 0.1063(4) 0.8937(6) 0.7697(4)
N2_8 N 0.3109(3) 0.9626(4) 0.6891(3)
N3_8 N 0.2427(3) 0.8905(3) 0.7114(3)
H4_8 H 0.3976 0.9633 0.6024
C6_8 C 0.2566(4) 0.9339(3) 0.6715(3)
H5_8 H 0.2330 0.9442 0.6359
O11_8 O 0.2303(4) 0.8937(4) 0.8937(6)
O12_8 O 0.1063(6) 0.7697(4) 0.8937(4)
N9_8 N 0.3109(3) 0.6891(3) 0.9626(4)
N10_8 N 0.0374(4) 0.6891(3) 0.6891(3)
N11_8 N 0.1095(3) 0.7573(3) 0.7114(3)
N12_8 N 0.2886(3) 0.8905(3) 0.7573(3)
N13_8 N 0.2886(3) 0.7573(3) 0.8905(3)
N14_8 N 0.2427(3) 0.7114(3) 0.8905(3)
N15_8 N 0.1095(3) 0.7114(3) 0.7573(3)
H12_8 H 0.3976 0.6024 0.9633
H13_8 H 0.0367 0.6024 0.6024
C17_8 C 0.3285(3) 0.9339(3) 0.7434(4)
C18_8 C 0.3285(3) 0.7434(4) 0.9339(3)
C19_8 C 0.2566(4) 0.6715(3) 0.9339(3)
C20_8 C 0.0661(3) 0.6715(3) 0.7434(4)
C21_8 C 0.0661(3) 0.7434(4) 0.6715(3)
H14_8 H 0.3641 0.7670 0.9442
H15_8 H 0.3641 0.9442 0.7670
H16_8 H 0.2330 0.6359 0.9442
H17_8 H 0.0558 0.6359 0.7670
H18_8 H 0.0558 0.7670 0.6359
C8_8 C 0.9248(4) 0.6745(3) 0.6745(3)
H7_8 H 0.9190 0.7054 0.7054
C10_8 C 0.8848(5) 0.6033(4) 0.6033(4)
H9_8 H 0.8502 0.5842 0.5842
C12_8 C 0.9426(5) 0.5854(4) 0.5854(4)
H11_8 H 0.9477 0.5545 0.5545
C14_8 C 0.9958(5) 0.6138(3) 0.6138(3)
C16_8 C 0.9849(4) 0.6575(3) 0.6575(3)
loop_
_geom_bond_atom_site_label_1
_geom_bond_atom_site_label_2
_geom_bond_site_symmetry_1
_geom_bond_site_symmetry_2
Cl1 O1 1_555 1_555
O2 Cl1 1_555 1_555
O3 Cl1 1_555 1_555
O4 Cl1 1_555 1_555
Cl1_2 O1_2 1_555 1_555
O2_2 Cl1_2 1_555 1_555
O3_2 Cl1_2 1_555 1_555
O4_2 Cl1_2 1_555 1_555
Cl1_3 O1_3 1_555 1_555
O2_3 Cl1_3 1_555 1_555
O3_3 Cl1_3 1_555 1_555
O4_3 Cl1_3 1_555 1_555
Cl1_4 O1_4 1_555 1_555
O2_4 Cl1_4 1_555 1_555
O3_4 Cl1_4 1_555 1_555
O4_4 Cl1_4 1_555 1_555
Cl1_5 O1_5 1_555 1_555
O2_5 Cl1_5 1_555 1_555
O3_5 Cl1_5 1_555 1_555
O4_5 Cl1_5 1_555 1_555
Cl1_6 O1_6 1_555 1_555
O2_6 Cl1_6 1_555 1_555
O3_6 Cl1_6 1_555 1_555
O4_6 Cl1_6 1_555 1_555
Cl1_7 O1_7 1_555 1_555
O2_7 Cl1_7 1_555 1_555
O3_7 Cl1_7 1_555 1_555
O4_7 Cl1_7 1_555 1_555
Cl1_8 O1_8 1_555 1_555
O2_8 Cl1_8 1_555 1_555
O3_8 Cl1_8 1_555 1_555
O4_8 Cl1_8 1_555 1_555
O6 Cl2 1_555 1_555
O7 Cl2 1_555 1_555
Cl2_2 O5 1_555 1_555
O8 Cl2_2 1_555 1_555
Cl2_3 O5_2 1_555 1_555
O8_2 Cl2_3 1_555 1_555
O6_2 Cl2_4 1_555 1_555
O7_2 Cl2_4 1_555 1_555
O6_3 Cl2_5 1_555 1_555
O7_3 Cl2_5 1_555 1_555
Cl2_6 O5_3 1_555 1_555
O8_3 Cl2_6 1_555 1_555
Cl2_7 O5_4 1_555 1_555
O8_4 Cl2_7 1_555 1_555
O6_4 Cl2_8 1_555 1_555
O7_4 Cl2_8 1_555 1_555
O6_5 Cl2_9 1_555 1_555
O7_5 Cl2_9 1_555 1_555
Cl2_10 O5_5 1_555 1_555
O8_5 Cl2_10 1_555 1_555
Cl2_11 O5_6 1_555 1_555
O8_6 Cl2_11 1_555 1_555
O6_6 Cl2_12 1_555 1_555
O7_6 Cl2_12 1_555 1_555
O6_7 Cl2_13 1_555 1_555
O7_7 Cl2_13 1_555 1_555
Cl2_14 O5_7 1_555 1_555
O8_7 Cl2_14 1_555 1_555
Cl2_15 O5_8 1_555 1_555
O8_8 Cl2_15 1_555 1_555
O6_8 Cl2_16 1_555 1_555
O7_8 Cl2_16 1_555 1_555
O6_9 Cl2_17 1_555 1_555
O7_9 Cl2_17 1_555 1_555
Cl2_18 O5_9 1_555 1_555
O8_9 Cl2_18 1_555 1_555
Cl2_19 O5_10 1_555 1_555
O8_10 Cl2_19 1_555 1_555
O6_10 Cl2_20 1_555 1_555
O7_10 Cl2_20 1_555 1_555
O6_11 Cl2_21 1_555 1_555
O7_11 Cl2_21 1_555 1_555
Cl2_22 O5_11 1_555 1_555
O8_11 Cl2_22 1_555 1_555
Cl2_23 O5_12 1_555 1_555
O8_12 Cl2_23 1_555 1_555
O6_12 Cl2_24 1_555 1_555
O7_12 Cl2_24 1_555 1_555
Cu1 O9 1_555 1_555
O9 Cu3 1_555 1_555
O10 Cu1 1_555 1_555
N1 C1 1_555 1_555
N2 C5 1_555 1_555
N3 Cu1 1_555 1_555
C1 H1 1_555 1_555
C2 N1 1_555 1_555
H2 C2 1_555 1_555
C3 C2 1_555 1_555
H3 C3 1_555 1_555
C4 C3 1_555 1_555
H4 C4 1_555 1_555
C5 C1 1_555 1_555
C6 N2 1_555 1_555
H5 C6 1_555 1_555
Cu2 N1 1_555 1_555
Cu3 O11 1_555 1_555
Cu4 O9 1_555 1_555
Cu5 N7 1_555 1_555
Cu6 N8 1_555 1_555
O12 Cu4 1_555 1_555
N4 Cu1 1_555 1_555
N5 Cu3 1_555 1_555
N6 Cu4 1_555 1_555
N7 C7 1_555 1_555
N8 C8 1_555 1_555
N9 C15 1_555 1_555
N10 C16 1_555 1_555
N11 Cu1 1_555 1_555
N12 N3 1_555 1_555
N13 Cu3 1_555 1_555
N14 Cu4 1_555 1_555
N15 Cu4 1_555 1_555
C7 H6 1_555 1_555
C8 H7 1_555 1_555
C9 N7 1_555 1_555
C10 N8 1_555 1_555
H8 C9 1_555 1_555
H9 C10 1_555 1_555
C11 C9 1_555 1_555
C12 C10 1_555 1_555
H10 C11 1_555 1_555
H11 C12 1_555 1_555
C13 C11 1_555 1_555
C14 C12 1_555 1_555
H12 C13 1_555 1_555
H13 C14 1_555 1_555
C15 C7 1_555 1_555
C16 C8 1_555 1_555
C17 N2 1_555 1_555
C18 N9 1_555 1_555
C19 N9 1_555 1_555
C20 N10 1_555 1_555
C21 N10 1_555 1_555
H14 C18 1_555 1_555
H15 C17 1_555 1_555
H16 C19 1_555 1_555
H17 C20 1_555 1_555
H18 C21 1_555 1_555
N3 C6 1_555 1_555
C4 C5 1_555 1_555
Cu3 N12 1_555 1_555
N11 N15 1_555 1_555
N11 C21 1_555 1_555
N12 C17 1_555 1_555
N13 N14 1_555 1_555
N13 C18 1_555 1_555
N14 C19 1_555 1_555
N15 C20 1_555 1_555
C13 C15 1_555 1_555
C14 C16 1_555 1_555
Cu1_2 O9_2 1_555 1_555
O9_2 Cu3_2 1_555 1_555
O10_2 Cu1_2 1_555 1_555
N1_2 C1_2 1_555 1_555
N2_2 C5_2 1_555 1_555
N3_2 Cu1_2 1_555 1_555
C1_2 H1_2 1_555 1_555
C2_2 N1_2 1_555 1_555
H2_2 C2_2 1_555 1_555
C3_2 C2_2 1_555 1_555
H3_2 C3_2 1_555 1_555
C4_2 C3_2 1_555 1_555
H4_2 C4_2 1_555 1_555
C5_2 C1_2 1_555 1_555
C6_2 N2_2 1_555 1_555
H5_2 C6_2 1_555 1_555
Cu2_2 N1_2 1_555 1_555
Cu3_2 O11_2 1_555 1_555
Cu4_2 O9_2 1_555 1_555
Cu5_2 N7_2 1_555 1_555
Cu6_2 N8_2 1_555 1_555
O12_2 Cu4_2 1_555 1_555
N4_2 Cu1_2 1_555 1_555
N5_2 Cu3_2 1_555 1_555
N6_2 Cu4_2 1_555 1_555
N7_2 C7_2 1_555 1_555
N8_2 C8_2 1_555 1_555
N9_2 C15_2 1_555 1_555
N10_2 C16_2 1_555 1_555
N11_2 Cu1_2 1_555 1_555
N12_2 N3_2 1_555 1_555
N13_2 Cu3_2 1_555 1_555
N14_2 Cu4_2 1_555 1_555
N15_2 Cu4_2 1_555 1_555
C7_2 H6_2 1_555 1_555
C8_2 H7_2 1_555 1_555
C9_2 N7_2 1_555 1_555
C10_2 N8_2 1_555 1_555
H8_2 C9_2 1_555 1_555
H9_2 C10_2 1_555 1_555
C11_2 C9_2 1_555 1_555
C12_2 C10_2 1_555 1_555
H10_2 C11_2 1_555 1_555
H11_2 C12_2 1_555 1_555
C13_2 C11_2 1_555 1_555
C14_2 C12_2 1_555 1_555
H12_2 C13_2 1_555 1_555
H13_2 C14_2 1_555 1_555
C15_2 C7_2 1_555 1_555
C16_2 C8_2 1_555 1_555
C17_2 N2_2 1_555 1_555
C18_2 N9_2 1_555 1_555
C19_2 N9_2 1_555 1_555
C20_2 N10_2 1_555 1_555
C21_2 N10_2 1_555 1_555
H14_2 C18_2 1_555 1_555
H15_2 C17_2 1_555 1_555
H16_2 C19_2 1_555 1_555
H17_2 C20_2 1_555 1_555
H18_2 C21_2 1_555 1_555
N3_2 C6_2 1_555 1_555
C4_2 C5_2 1_555 1_555
Cu3_2 N12_2 1_555 1_555
N11_2 N15_2 1_555 1_555
N11_2 C21_2 1_555 1_555
N12_2 C17_2 1_555 1_555
N13_2 N14_2 1_555 1_555
N13_2 C18_2 1_555 1_555
N14_2 C19_2 1_555 1_555
N15_2 C20_2 1_555 1_555
C13_2 C15_2 1_555 1_555
C14_2 C16_2 1_555 1_555
Cu1_3 O9_3 1_555 1_555
O9_3 Cu3_3 1_555 1_555
O10_3 Cu1_3 1_555 1_555
N1_3 C1_3 1_555 1_555
N2_3 C5_3 1_555 1_555
N3_3 Cu1_3 1_555 1_555
C1_3 H1_3 1_555 1_555
C2_3 N1_3 1_555 1_555
H2_3 C2_3 1_555 1_555
C3_3 C2_3 1_555 1_555
H3_3 C3_3 1_555 1_555
C4_3 C3_3 1_555 1_555
H4_3 C4_3 1_555 1_555
C5_3 C1_3 1_555 1_555
C6_3 N2_3 1_555 1_555
H5_3 C6_3 1_555 1_555
Cu2_3 N1_3 1_555 1_555
Cu3_3 O11_3 1_555 1_555
Cu4_3 O9_3 1_555 1_555
Cu5_3 N7_3 1_555 1_555
Cu6_3 N8_3 1_555 1_555
O12_3 Cu4_3 1_555 1_555
N4_3 Cu1_3 1_555 1_555
N5_3 Cu3_3 1_555 1_555
N6_3 Cu4_3 1_555 1_555
N7_3 C7_3 1_555 1_555
N8_3 C8_3 1_555 1_555
N9_3 C15_3 1_555 1_555
N10_3 C16_3 1_555 1_555
N11_3 Cu1_3 1_555 1_555
N12_3 N3_3 1_555 1_555
N13_3 Cu3_3 1_555 1_555
N14_3 Cu4_3 1_555 1_555
N15_3 Cu4_3 1_555 1_555
C7_3 H6_3 1_555 1_555
C8_3 H7_3 1_555 1_555
C9_3 N7_3 1_555 1_555
C10_3 N8_3 1_555 1_555
H8_3 C9_3 1_555 1_555
H9_3 C10_3 1_555 1_555
C11_3 C9_3 1_555 1_555
C12_3 C10_3 1_555 1_555
H10_3 C11_3 1_555 1_555
H11_3 C12_3 1_555 1_555
C13_3 C11_3 1_555 1_555
C14_3 C12_3 1_555 1_555
H12_3 C13_3 1_555 1_555
H13_3 C14_3 1_555 1_555
C15_3 C7_3 1_555 1_555
C16_3 C8_3 1_555 1_555
C17_3 N2_3 1_555 1_555
C18_3 N9_3 1_555 1_555
C19_3 N9_3 1_555 1_555
C20_3 N10_3 1_555 1_555
C21_3 N10_3 1_555 1_555
H14_3 C18_3 1_555 1_555
H15_3 C17_3 1_555 1_555
H16_3 C19_3 1_555 1_555
H17_3 C20_3 1_555 1_555
H18_3 C21_3 1_555 1_555
N3_3 C6_3 1_555 1_555
C4_3 C5_3 1_555 1_555
Cu3_3 N12_3 1_555 1_555
N11_3 N15_3 1_555 1_555
N11_3 C21_3 1_555 1_555
N12_3 C17_3 1_555 1_555
N13_3 N14_3 1_555 1_555
N13_3 C18_3 1_555 1_555
N14_3 C19_3 1_555 1_555
N15_3 C20_3 1_555 1_555
C13_3 C15_3 1_555 1_555
C14_3 C16_3 1_555 1_555
Cu1_4 O9_4 1_555 1_555
O9_4 Cu3_4 1_555 1_555
O10_4 Cu1_4 1_555 1_555
N1_4 C1_4 1_555 1_555
N2_4 C5_4 1_555 1_555
N3_4 Cu1_4 1_555 1_555
C1_4 H1_4 1_555 1_555
C2_4 N1_4 1_555 1_555
H2_4 C2_4 1_555 1_555
C3_4 C2_4 1_555 1_555
H3_4 C3_4 1_555 1_555
C4_4 C3_4 1_555 1_555
H4_4 C4_4 1_555 1_555
C5_4 C1_4 1_555 1_555
C6_4 N2_4 1_555 1_555
H5_4 C6_4 1_555 1_555
Cu2_4 N1_4 1_555 1_555
Cu3_4 O11_4 1_555 1_555
Cu4_4 O9_4 1_555 1_555
Cu5_4 N7_4 1_555 1_555
Cu6_4 N8_4 1_555 1_555
O12_4 Cu4_4 1_555 1_555
N4_4 Cu1_4 1_555 1_555
N5_4 Cu3_4 1_555 1_555
N6_4 Cu4_4 1_555 1_555
N7_4 C7_4 1_555 1_555
N8_4 C8_4 1_555 1_555
N9_4 C15_4 1_555 1_555
N10_4 C16_4 1_555 1_555
N11_4 Cu1_4 1_555 1_555
N12_4 N3_4 1_555 1_555
N13_4 Cu3_4 1_555 1_555
N14_4 Cu4_4 1_555 1_555
N15_4 Cu4_4 1_555 1_555
C7_4 H6_4 1_555 1_555
C8_4 H7_4 1_555 1_555
C9_4 N7_4 1_555 1_555
C10_4 N8_4 1_555 1_555
H8_4 C9_4 1_555 1_555
H9_4 C10_4 1_555 1_555
C11_4 C9_4 1_555 1_555
C12_4 C10_4 1_555 1_555
H10_4 C11_4 1_555 1_555
H11_4 C12_4 1_555 1_555
C13_4 C11_4 1_555 1_555
C14_4 C12_4 1_555 1_555
H12_4 C13_4 1_555 1_555
H13_4 C14_4 1_555 1_555
C15_4 C7_4 1_555 1_555
C16_4 C8_4 1_555 1_555
C17_4 N2_4 1_555 1_555
C18_4 N9_4 1_555 1_555
C19_4 N9_4 1_555 1_555
C20_4 N10_4 1_555 1_555
C21_4 N10_4 1_555 1_555
H14_4 C18_4 1_555 1_555
H15_4 C17_4 1_555 1_555
H16_4 C19_4 1_555 1_555
H17_4 C20_4 1_555 1_555
H18_4 C21_4 1_555 1_555
N3_4 C6_4 1_555 1_555
C4_4 C5_4 1_555 1_555
Cu3_4 N12_4 1_555 1_555
N11_4 N15_4 1_555 1_555
N11_4 C21_4 1_555 1_555
N12_4 C17_4 1_555 1_555
N13_4 N14_4 1_555 1_555
N13_4 C18_4 1_555 1_555
N14_4 C19_4 1_555 1_555
N15_4 C20_4 1_555 1_555
C13_4 C15_4 1_555 1_555
C14_4 C16_4 1_555 1_555
Cu5_2 O9_5 1_555 1_555
O9_5 Cu6_4 1_555 1_555
O10_5 Cu5_2 1_555 1_555
N3_5 Cu5_2 1_555 1_555
C6_5 N2_5 1_555 1_555
H5_5 C6_5 1_555 1_555
Cu6_4 O11_5 1_555 1_555
Cu2_3 O9_5 1_555 1_555
O12_5 Cu2_3 1_555 1_555
N11_5 Cu5_2 1_555 1_555
N12_5 N3_5 1_555 1_555
N13_5 Cu6_4 1_555 1_555
N14_5 Cu2_3 1_555 1_555
N15_5 Cu2_3 1_555 1_555
C17_5 N2_5 1_555 1_555
C18_5 N9_5 1_555 1_555
C19_5 N9_5 1_555 1_555
C20_5 N10_5 1_555 1_555
C21_5 N10_5 1_555 1_555
H14_5 C18_5 1_555 1_555
H15_5 C17_5 1_555 1_555
H16_5 C19_5 1_555 1_555
H17_5 C20_5 1_555 1_555
H18_5 C21_5 1_555 1_555
N3_5 C6_5 1_555 1_555
Cu6_4 N12_5 1_555 1_555
N11_5 N15_5 1_555 1_555
N11_5 C21_5 1_555 1_555
N12_5 C17_5 1_555 1_555
N13_5 N14_5 1_555 1_555
N13_5 C18_5 1_555 1_555
N14_5 C19_5 1_555 1_555
N15_5 C20_5 1_555 1_555
N4_2 C7_5 1_555 1_555
C7_5 H6_5 1_555 1_555
C9_5 N4_2 1_555 1_555
H8_5 C9_5 1_555 1_555
C11_5 C9_5 1_555 1_555
H10_5 C11_5 1_555 1_555
C13_5 C11_5 1_555 1_555
C15_5 C7_5 1_555 1_555
C13_5 C15_5 1_555 1_555
N6_3 C1_5 1_555 1_555
C1_5 H1_5 1_555 1_555
C2_5 N6_3 1_555 1_555
H2_5 C2_5 1_555 1_555
C3_5 C2_5 1_555 1_555
H3_5 C3_5 1_555 1_555
C4_5 C3_5 1_555 1_555
C5_5 C1_5 1_555 1_555
C4_5 C5_5 1_555 1_555
N5_4 C8_5 1_555 1_555
C8_5 H7_5 1_555 1_555
C10_5 N5_4 1_555 1_555
H9_5 C10_5 1_555 1_555
C12_5 C10_5 1_555 1_555
H11_5 C12_5 1_555 1_555
C14_5 C12_5 1_555 1_555
C16_5 C8_5 1_555 1_555
C14_5 C16_5 1_555 1_555
N5_3 C8_6 1_555 1_555
C8_6 H7_6 1_555 1_555
C10_6 N5_3 1_555 1_555
H9_6 C10_6 1_555 1_555
C12_6 C10_6 1_555 1_555
H11_6 C12_6 1_555 1_555
C14_6 C12_6 1_555 1_555
C16_6 C8_6 1_555 1_555
C14_6 C16_6 1_555 1_555
N6_4 C1_6 1_555 1_555
C1_6 H1_6 1_555 1_555
C2_6 N6_4 1_555 1_555
H2_6 C2_6 1_555 1_555
C3_6 C2_6 1_555 1_555
H3_6 C3_6 1_555 1_555
C4_6 C3_6 1_555 1_555
C5_6 C1_6 1_555 1_555
C4_6 C5_6 1_555 1_555
Cu5 O9_6 1_555 1_555
O9_6 Cu6_3 1_555 1_555
O10_6 Cu5 1_555 1_555
N3_6 Cu5 1_555 1_555
C6_6 N2_6 1_555 1_555
H5_6 C6_6 1_555 1_555
Cu6_3 O11_6 1_555 1_555
Cu2_4 O9_6 1_555 1_555
O12_6 Cu2_4 1_555 1_555
N11_6 Cu5 1_555 1_555
N12_6 N3_6 1_555 1_555
N13_6 Cu6_3 1_555 1_555
N14_6 Cu2_4 1_555 1_555
N15_6 Cu2_4 1_555 1_555
C17_6 N2_6 1_555 1_555
C18_6 N9_6 1_555 1_555
C19_6 N9_6 1_555 1_555
C20_6 N10_6 1_555 1_555
C21_6 N10_6 1_555 1_555
H14_6 C18_6 1_555 1_555
H15_6 C17_6 1_555 1_555
H16_6 C19_6 1_555 1_555
H17_6 C20_6 1_555 1_555
H18_6 C21_6 1_555 1_555
N3_6 C6_6 1_555 1_555
Cu6_3 N12_6 1_555 1_555
N11_6 N15_6 1_555 1_555
N11_6 C21_6 1_555 1_555
N12_6 C17_6 1_555 1_555
N13_6 N14_6 1_555 1_555
N13_6 C18_6 1_555 1_555
N14_6 C19_6 1_555 1_555
N15_6 C20_6 1_555 1_555
N4 C7_6 1_555 1_555
C7_6 H6_6 1_555 1_555
C9_6 N4 1_555 1_555
H8_6 C9_6 1_555 1_555
C11_6 C9_6 1_555 1_555
H10_6 C11_6 1_555 1_555
C13_6 C11_6 1_555 1_555
C15_6 C7_6 1_555 1_555
C13_6 C15_6 1_555 1_555
N5_2 C8_7 1_555 1_555
C8_7 H7_7 1_555 1_555
C10_7 N5_2 1_555 1_555
H9_7 C10_7 1_555 1_555
C12_7 C10_7 1_555 1_555
H11_7 C12_7 1_555 1_555
C14_7 C12_7 1_555 1_555
C16_7 C8_7 1_555 1_555
C14_7 C16_7 1_555 1_555
N4_4 C7_7 1_555 1_555
C7_7 H6_7 1_555 1_555
C9_7 N4_4 1_555 1_555
H8_7 C9_7 1_555 1_555
C11_7 C9_7 1_555 1_555
H10_7 C11_7 1_555 1_555
C13_7 C11_7 1_555 1_555
C15_7 C7_7 1_555 1_555
C13_7 C15_7 1_555 1_555
Cu5_4 O9_7 1_555 1_555
O9_7 Cu6_2 1_555 1_555
O10_7 Cu5_4 1_555 1_555
N3_7 Cu5_4 1_555 1_555
C6_7 N2_7 1_555 1_555
H5_7 C6_7 1_555 1_555
Cu6_2 O11_7 1_555 1_555
Cu2 O9_7 1_555 1_555
O12_7 Cu2 1_555 1_555
N11_7 Cu5_4 1_555 1_555
N12_7 N3_7 1_555 1_555
N13_7 Cu6_2 1_555 1_555
N14_7 Cu2 1_555 1_555
N15_7 Cu2 1_555 1_555
C17_7 N2_7 1_555 1_555
C18_7 N9_7 1_555 1_555
C19_7 N9_7 1_555 1_555
C20_7 N10_7 1_555 1_555
C21_7 N10_7 1_555 1_555
H14_7 C18_7 1_555 1_555
H15_7 C17_7 1_555 1_555
H16_7 C19_7 1_555 1_555
H17_7 C20_7 1_555 1_555
H18_7 C21_7 1_555 1_555
N3_7 C6_7 1_555 1_555
Cu6_2 N12_7 1_555 1_555
N11_7 N15_7 1_555 1_555
N11_7 C21_7 1_555 1_555
N12_7 C17_7 1_555 1_555
N13_7 N14_7 1_555 1_555
N13_7 C18_7 1_555 1_555
N14_7 C19_7 1_555 1_555
N15_7 C20_7 1_555 1_555
N6 C1_7 1_555 1_555
C1_7 H1_7 1_555 1_555
C2_7 N6 1_555 1_555
H2_7 C2_7 1_555 1_555
C3_7 C2_7 1_555 1_555
H3_7 C3_7 1_555 1_555
C4_7 C3_7 1_555 1_555
C5_7 C1_7 1_555 1_555
C4_7 C5_7 1_555 1_555
N6_2 C1_8 1_555 1_555
C1_8 H1_8 1_555 1_555
C2_8 N6_2 1_555 1_555
H2_8 C2_8 1_555 1_555
C3_8 C2_8 1_555 1_555
H3_8 C3_8 1_555 1_555
C4_8 C3_8 1_555 1_555
C5_8 C1_8 1_555 1_555
C4_8 C5_8 1_555 1_555
N4_3 C7_8 1_555 1_555
C7_8 H6_8 1_555 1_555
C9_8 N4_3 1_555 1_555
H8_8 C9_8 1_555 1_555
C11_8 C9_8 1_555 1_555
H10_8 C11_8 1_555 1_555
C13_8 C11_8 1_555 1_555
C15_8 C7_8 1_555 1_555
C13_8 C15_8 1_555 1_555
Cu5_3 O9_8 1_555 1_555
O9_8 Cu6 1_555 1_555
O10_8 Cu5_3 1_555 1_555
N3_8 Cu5_3 1_555 1_555
C6_8 N2_8 1_555 1_555
H5_8 C6_8 1_555 1_555
Cu6 O11_8 1_555 1_555
Cu2_2 O9_8 1_555 1_555
O12_8 Cu2_2 1_555 1_555
N11_8 Cu5_3 1_555 1_555
N12_8 N3_8 1_555 1_555
N13_8 Cu6 1_555 1_555
N14_8 Cu2_2 1_555 1_555
N15_8 Cu2_2 1_555 1_555
C17_8 N2_8 1_555 1_555
C18_8 N9_8 1_555 1_555
C19_8 N9_8 1_555 1_555
C20_8 N10_8 1_555 1_555
C21_8 N10_8 1_555 1_555
H14_8 C18_8 1_555 1_555
H15_8 C17_8 1_555 1_555
H16_8 C19_8 1_555 1_555
H17_8 C20_8 1_555 1_555
H18_8 C21_8 1_555 1_555
N3_8 C6_8 1_555 1_555
Cu6 N12_8 1_555 1_555
N11_8 N15_8 1_555 1_555
N11_8 C21_8 1_555 1_555
N12_8 C17_8 1_555 1_555
N13_8 N14_8 1_555 1_555
N13_8 C18_8 1_555 1_555
N14_8 C19_8 1_555 1_555
N15_8 C20_8 1_555 1_555
N5 C8_8 1_555 1_555
C8_8 H7_8 1_555 1_555
C10_8 N5 1_555 1_555
H9_8 C10_8 1_555 1_555
C12_8 C10_8 1_555 1_555
H11_8 C12_8 1_555 1_555
C14_8 C12_8 1_555 1_555
C16_8 C8_8 1_555 1_555
C14_8 C16_8 1_555 1_555

#END
