
###############################################################################
#
# This file contains modified crystal structure data generated from the
# MOF subset of the Cambridge Structural Database (CSD) v543 
# hosted by the Cambridge Crystallographic Data Centre (CCDC).
#
# This work is licensed under the Creative Commons
# Attribution-NonCommercial-ShareAlike 4.0 International License.
# To view a copy of this license, visit
# http://creativecommons.org/licenses/by-nc-sa/4.0/
# or send a letter to
# Creative Commons, PO Box 1866, Mountain View, CA 94042, USA.
#
# CIF created using the CSD Python API on 29 September 2022
# The structure has been converted into the P1 space group
# The structure has a 3D framework
# The original CSD entry LIQCUK is in the rhombohedral crystal system
# The framework has been calculated to contain at least 10.0% void space
# The void calculation uses a probe of radius 1.32A, grid spacing 0.4
#
###############################################################################

data_LIQCUK
_chemical_formula_moiety         '(C180 H306 Ag18 N36 O72 S18)n'
_symmetry_cell_setting           triclinic
_symmetry_space_group_name_H-M   'P 1'
_symmetry_Int_Tables_number      1
_space_group_name_Hall           'P 1'
loop_
_symmetry_equiv_pos_site_id
_symmetry_equiv_pos_as_xyz
1 x,y,z
_cell_length_a                   30.1781(6)
_cell_length_b                   30.1781(6)
_cell_length_c                   9.8743(4)
_cell_angle_alpha                90
_cell_angle_beta                 90
_cell_angle_gamma                120.00
_cell_volume                     7787.91
loop_
_atom_site_label
_atom_site_type_symbol
_atom_site_fract_x
_atom_site_fract_y
_atom_site_fract_z
Ag1 Ag 0.302495(7) 0.030159(7) 0.066882(18)
S1 S 0.38736(2) 0.06810(2) 0.17669(5)
O1 O 0.46926(6) 0.04831(7) 0.26826(15)
O4 O 0.30156(7) 0.04267(8) 0.3898(2)
N1 N 0.49992(8) 0.04095(8) 0.06724(19)
N2 N 0.26287(9) 0.00095(9) 0.3651(2)
C1 C 0.46433(10) 0.16216(10) 0.2733(3)
H1 H 0.4897 0.1597 0.2148
H2 H 0.4619 0.1443 0.3595
C2 C 0.48214(13) 0.21863(11) 0.3019(3)
H3 H 0.4587 0.2209 0.3680
H4 H 0.5168 0.2353 0.3424
C3 C 0.48321(15) 0.24641(12) 0.1736(3)
H5 H 0.5090 0.2469 0.1107
H6 H 0.4933 0.2823 0.1954
C4 C 0.43102(14) 0.22050(11) 0.1049(3)
H7 H 0.4331 0.2386 0.0194
H8 H 0.4059 0.2228 0.1645
C5 C 0.41279(12) 0.16432(10) 0.0744(2)
H9 H 0.3779 0.1478 0.0356
H10 H 0.4358 0.1619 0.0069
C6 C 0.41255(9) 0.13668(9) 0.2036(2)
H11 H 0.3884 0.1396 0.2673
C7 C 0.43380(9) 0.06491(9) 0.0671(2)
H13 H 0.4549 0.0985 0.0228
C8 C 0.46879(8) 0.05066(9) 0.1433(2)
C10 C 0.52639(9) 0.01613(10) 0.1292(2)
H16 H 0.5245 0.0173 0.2291
H17 H 0.5629 0.0343 0.1022
Ag3 Ag 0.394331(10) 0.030838(7) 0.400215(18)
S4 S 0.73477(2) 0.01407(3) 0.15664(5)
H12 H 0.9607 0.3762 0.9952
C9 C 0.96097(10) 0.46036(14) 0.9187(2)
H14 H 0.9421 0.4770 0.8840
H15 H 0.9443 0.4250 0.8828
O6 O 0.91238(9) 0.19741(11) 0.93493(15)
O8 O 0.99154(8) 0.74725(11) 0.75330(18)
O9 O 0.96778(9) 0.72593(13) 0.5451(2)
Ag2 Ag 0.696826(7) 0.060997(10) 0.266451(18)
S4_2 S 0.65259(3) 0.05403(4) 0.48998(5)
O7 O 0.75428(9) 0.13593(11) 0.39841(15)
O8_2 O 0.65821(8) 0.08058(11) 0.08663(18)
C11 C 0.82883(10) 0.03116(14) 0.0600(3)
H18 H 0.8264 0.0033 0.1185
C12 C 0.88530(11) 0.06982(17) 0.0314(3)
C13 C 0.91308(12) 0.09653(19) 0.1597(3)
H22 H 0.9136 0.0712 0.2226
H23 H 0.9490 0.1223 0.1379
C14 C 0.88717(11) 0.12281(18) 0.2284(3)
H24 H 0.9053 0.1388 0.3139
H25 H 0.8895 0.1502 0.1688
C15 C 0.83099(10) 0.08486(16) 0.2589(2)
H26 H 0.8145 0.1032 0.2977
H27 H 0.8286 0.0594 0.3264
C16 C 0.80335(9) 0.05746(13) 0.1297(2)
H28 H 0.8063 0.0845 0.0660
O2 O 0.41392(11) 0.08904(7) 0.58003(18)
O3 O 0.39260(13) 0.09148(9) 0.7882(2)
O4_2 O 0.40778(11) 0.03177(7) 0.7231(2)
N2_2 N 0.40475(13) 0.07046(9) 0.6984(2)
N1_2 N 0.87436(11) 0.16675(8) 0.73391(19)
C7_2 C 0.96444(13) 0.23287(9) 0.7338(2)
H12_2 H 0.9571 0.2512 0.6619
H13_2 H 0.9769 0.2118 0.6895
C8_2 C 0.91520(12) 0.19788(8) 0.8100(2)
C9_2 C 0.87297(14) 0.16728(10) 0.5854(2)
H14_2 H 0.8563 0.1318 0.5507
H15_2 H 0.9083 0.1860 0.5495
C10_2 C 0.82307(13) 0.14028(9) 0.7959(2)
H16_2 H 0.8261 0.1422 0.8958
H17_2 H 0.8047 0.1038 0.7689
N3 N 0.79230(11) 0.16659(8) 0.59943(19)
C11_2 C 0.63550(14) 0.13100(10) 0.3934(3)
H18_2 H 0.6633 0.1564 0.4519
H19 H 0.6509 0.1286 0.3072
C12_2 C 0.59684(17) 0.14881(13) 0.3648(3)
H20 H 0.5711 0.1254 0.2987
H21 H 0.6148 0.1835 0.3243
C13_2 C 0.57013(19) 0.14988(15) 0.4931(3)
H22_2 H 0.5954 0.1757 0.5560
H23_2 H 0.5443 0.1600 0.4713
C14_2 C 0.54385(18) 0.09769(14) 0.5618(3)
H24_2 H 0.5278 0.0998 0.6473
H25_2 H 0.5164 0.0726 0.5022
C15_2 C 0.58180(16) 0.07946(12) 0.5923(2)
H26_2 H 0.5634 0.0446 0.6311
H27_2 H 0.6072 0.1025 0.6598
C16_2 C 0.60920(13) 0.07922(9) 0.4631(2)
H28_2 H 0.5821 0.0551 0.3994
C17 C 0.70222(13) 0.10047(9) 0.5996(2)
H29 H 0.7095 0.0822 0.6715
H30 H 0.6897 0.1216 0.6439
C18 C 0.75146(12) 0.13546(8) 0.5234(2)
C19 C 0.79369(14) 0.16606(10) 0.7480(2)
H31 H 0.8103 0.2016 0.7827
H32 H 0.7583 0.1474 0.7839
C20 C 0.84359(13) 0.19306(9) 0.5375(2)
H33 H 0.8405 0.1912 0.4376
H34 H 0.8619 0.2296 0.5645
H12_3 H 0.4155 0.0393 0.9952
C9_3 C 0.49939(10) 0.03903(10) 0.9187(2)
H14_3 H 0.5349 0.0579 0.8840
H15_3 H 0.4807 0.0557 0.8828
O6_2 O 0.28502(7) 0.08762(9) 0.93493(15)
O8_3 O 0.75571(7) 0.00846(8) 0.75330(18)
O9_2 O 0.75815(9) 0.03222(9) 0.5451(2)
O2_2 O 0.24429(7) 0.99154(8) 0.24670(18)
O3_2 O 0.24185(9) 0.96778(9) 0.4549(2)
O7_2 O 0.71498(7) 0.91238(9) 0.06507(15)
H29_2 H 0.5845 0.9607 0.0048
C19_2 C 0.50061(10) 0.96097(10) 0.0813(2)
H31_2 H 0.4651 0.9421 0.1160
H32_2 H 0.5193 0.9443 0.1172
Ag2_2 Ag 0.030159(7) 0.727664(10) 0.933118(18)
Ag4 Ag 0.030838(7) 0.636508(12) 0.599785(18)
S2 S 0.06810(2) 0.68074(3) 0.82331(5)
S3 S 0.01407(3) 0.27931(4) 0.84336(5)
O5 O 0.04831(7) 0.57905(9) 0.73174(15)
O10 O 0.04267(8) 0.74111(11) 0.6102(2)
N3_2 N 0.04095(8) 0.54103(11) 0.93276(19)
N4 N 0.00095(9) 0.73808(13) 0.6349(2)
C11_3 C 0.16216(10) 0.69783(14) 0.7267(3)
H18_3 H 0.1597 0.6700 0.7852
H19_2 H 0.1443 0.6824 0.6405
C12_3 C 0.21863(11) 0.73649(17) 0.6981(3)
H20_2 H 0.2209 0.7622 0.6320
H21_2 H 0.2353 0.7185 0.6576
C13_3 C 0.24641(12) 0.76320(19) 0.8264(3)
H22_3 H 0.2469 0.7379 0.8893
H23_3 H 0.2823 0.7890 0.8046
C14_3 C 0.22050(11) 0.78948(18) 0.8951(3)
H24_3 H 0.2386 0.8055 0.9806
H25_3 H 0.2228 0.8169 0.8355
C15_3 C 0.16432(10) 0.75153(16) 0.9256(2)
H26_3 H 0.1478 0.7699 0.9644
H27_3 H 0.1619 0.7261 0.9931
C16_3 C 0.13668(9) 0.72413(13) 0.7964(2)
H28_3 H 0.1396 0.7512 0.7327
C17_2 C 0.06491(9) 0.63111(13) 0.9329(2)
H30_2 H 0.0985 0.6436 0.9772
C18_2 C 0.05066(9) 0.58187(12) 0.8567(2)
C20_2 C 0.01613(10) 0.48974(13) 0.8708(2)
H33_2 H 0.0173 0.4928 0.7709
H34_2 H 0.0343 0.4714 0.8978
Ag1_2 Ag 0.969841(7) 0.272336(10) 0.066882(18)
S1_2 S 0.93190(2) 0.31926(3) 0.17669(5)
O1_2 O 0.95169(7) 0.42095(9) 0.26826(15)
O4_3 O 0.95733(8) 0.25889(11) 0.3898(2)
N1_3 N 0.95905(8) 0.45897(11) 0.06724(19)
N2_3 N 0.99905(9) 0.26192(13) 0.3651(2)
C1_2 C 0.83784(10) 0.30217(14) 0.2733(3)
H1_2 H 0.8403 0.3300 0.2148
H2_2 H 0.8557 0.3176 0.3595
C2_2 C 0.78137(11) 0.26351(17) 0.3019(3)
H3_2 H 0.7791 0.2378 0.3680
H4_2 H 0.7647 0.2815 0.3424
C3_2 C 0.75359(12) 0.23680(19) 0.1736(3)
H5_2 H 0.7531 0.2621 0.1107
H6_2 H 0.7177 0.2110 0.1954
C4_2 C 0.77950(11) 0.21052(18) 0.1049(3)
H7_2 H 0.7614 0.1945 0.0194
H8_2 H 0.7772 0.1831 0.1645
C5_2 C 0.83568(10) 0.24847(16) 0.0744(2)
H9_2 H 0.8522 0.2301 0.0356
H10_2 H 0.8381 0.2739 0.0069
C6_2 C 0.86332(9) 0.27587(13) 0.2036(2)
H11_2 H 0.8604 0.2488 0.2673
C7_3 C 0.93509(9) 0.36889(13) 0.0671(2)
H13_3 H 0.9015 0.3564 0.0228
C8_3 C 0.94934(9) 0.41813(12) 0.1433(2)
C10_3 C 0.98387(10) 0.51026(13) 0.1292(2)
H16_3 H 0.9827 0.5072 0.2291
H17_3 H 0.9657 0.5286 0.1022
Ag3_2 Ag 0.969162(7) 0.363492(12) 0.400215(18)
S4_3 S 0.98593(3) 0.72069(4) 0.15664(5)
Ag1_3 Ag 0.727664(10) 0.697505(7) 0.066882(18)
S1_3 S 0.68074(3) 0.61264(2) 0.17669(5)
O1_3 O 0.57905(9) 0.53074(6) 0.26826(15)
O2_3 O 0.74725(11) 0.75571(7) 0.24670(18)
O3_3 O 0.72593(13) 0.75815(9) 0.4549(2)
O4_4 O 0.74111(11) 0.69844(7) 0.3898(2)
N1_4 N 0.54103(11) 0.50008(8) 0.06724(19)
N2_4 N 0.73808(13) 0.73713(9) 0.3651(2)
C1_3 C 0.69783(14) 0.53567(10) 0.2733(3)
H1_3 H 0.6700 0.5103 0.2148
H2_3 H 0.6824 0.5381 0.3595
C2_3 C 0.73649(17) 0.51786(13) 0.3019(3)
H3_3 H 0.7622 0.5413 0.3680
H4_3 H 0.7185 0.4832 0.3424
C3_3 C 0.76320(19) 0.51679(15) 0.1736(3)
H5_3 H 0.7379 0.4910 0.1107
H6_3 H 0.7890 0.5067 0.1954
C4_3 C 0.78948(18) 0.56898(14) 0.1049(3)
H7_3 H 0.8055 0.5669 0.0194
H8_3 H 0.8169 0.5941 0.1645
C5_3 C 0.75153(16) 0.58721(12) 0.0744(2)
H9_3 H 0.7699 0.6221 0.0356
H10_3 H 0.7261 0.5642 0.0069
C6_3 C 0.72413(13) 0.58745(9) 0.2036(2)
H11_3 H 0.7512 0.6116 0.2673
C7_4 C 0.63111(13) 0.56620(9) 0.0671(2)
H13_4 H 0.6436 0.5451 0.0228
C8_4 C 0.58187(12) 0.53121(8) 0.1433(2)
C10_4 C 0.48974(13) 0.47361(9) 0.1292(2)
H16_4 H 0.4928 0.4755 0.2291
H17_4 H 0.4714 0.4371 0.1022
Ag3_3 Ag 0.636508(12) 0.605669(10) 0.400215(18)
S4_4 S 0.27931(4) 0.26523(2) 0.15664(5)
O7_3 O 0.19741(11) 0.28502(7) 0.06507(15)
H29_3 H 0.3762 0.4155 0.0048
C19_3 C 0.46036(14) 0.49939(10) 0.0813(2)
H31_3 H 0.4770 0.5349 0.1160
H32_3 H 0.4250 0.4807 0.1172
H12_4 H 0.6238 0.5845 0.9952
C9_4 C 0.53964(14) 0.50061(10) 0.9187(2)
H14_4 H 0.5230 0.4651 0.8840
H15_4 H 0.5750 0.5193 0.8828
Ag2_3 Ag 0.272336(10) 0.302495(7) 0.933118(18)
Ag4_2 Ag 0.363492(12) 0.394331(10) 0.599785(18)
S2_2 S 0.31926(3) 0.38736(2) 0.82331(5)
S3_2 S 0.72069(4) 0.73477(2) 0.84336(5)
O5_2 O 0.42095(9) 0.46926(6) 0.73174(15)
O6_3 O 0.80259(11) 0.71498(7) 0.93493(15)
O8_4 O 0.25275(11) 0.24429(7) 0.75330(18)
O9_3 O 0.27407(13) 0.24185(9) 0.5451(2)
O10_2 O 0.25889(11) 0.30156(7) 0.6102(2)
N3_3 N 0.45897(11) 0.49992(8) 0.93276(19)
N4_2 N 0.26192(13) 0.26287(9) 0.6349(2)
C11_4 C 0.30217(14) 0.46433(10) 0.7267(3)
H18_4 H 0.3300 0.4897 0.7852
H19_3 H 0.3176 0.4619 0.6405
C12_4 C 0.26351(17) 0.48214(13) 0.6981(3)
H20_3 H 0.2378 0.4587 0.6320
H21_3 H 0.2815 0.5168 0.6576
C13_4 C 0.23680(19) 0.48321(15) 0.8264(3)
H22_4 H 0.2621 0.5090 0.8893
H23_4 H 0.2110 0.4933 0.8046
C14_4 C 0.21052(18) 0.43102(14) 0.8951(3)
H24_4 H 0.1945 0.4331 0.9806
H25_4 H 0.1831 0.4059 0.8355
C15_4 C 0.24847(16) 0.41279(12) 0.9256(2)
H26_4 H 0.2301 0.3779 0.9644
H27_4 H 0.2739 0.4358 0.9931
C16_4 C 0.27587(13) 0.41255(9) 0.7964(2)
H28_4 H 0.2488 0.3884 0.7327
C17_3 C 0.36889(13) 0.43380(9) 0.9329(2)
H30_3 H 0.3564 0.4549 0.9772
C18_3 C 0.41813(12) 0.46879(8) 0.8567(2)
C20_3 C 0.51026(13) 0.52639(9) 0.8708(2)
H33_3 H 0.5072 0.5245 0.7709
H34_3 H 0.5286 0.5629 0.8978
S1_4 S 0.05403(2) 0.40143(2) 0.51002(5)
O1_4 O 0.13593(6) 0.38164(7) 0.60159(15)
N1_5 N 0.16659(8) 0.37428(8) 0.40057(19)
C1_4 C 0.13100(10) 0.49549(10) 0.6066(3)
H1_4 H 0.1564 0.4930 0.5481
H2_4 H 0.1286 0.4776 0.6928
C2_4 C 0.14881(13) 0.55196(11) 0.6352(3)
H3_4 H 0.1254 0.5542 0.7013
H4_4 H 0.1835 0.5686 0.6757
C3_4 C 0.14988(15) 0.57974(12) 0.5069(3)
H5_4 H 0.1757 0.5802 0.4440
H6_4 H 0.1600 0.6156 0.5287
C4_4 C 0.09769(14) 0.55383(11) 0.4382(3)
H7_4 H 0.0998 0.5719 0.3527
H8_4 H 0.0726 0.5561 0.4978
C5_4 C 0.07946(12) 0.49765(10) 0.4077(2)
H9_4 H 0.0446 0.4811 0.3689
H10_4 H 0.1025 0.4952 0.3402
C6_4 C 0.07922(9) 0.47001(9) 0.5369(2)
H11_4 H 0.0551 0.4729 0.6006
C7_5 C 0.10047(9) 0.39824(9) 0.4004(2)
H12_5 H 0.0822 0.3726 0.3285
H13_5 H 0.1216 0.4318 0.3561
C8_5 C 0.13546(8) 0.38399(9) 0.4766(2)
C9_5 C 0.16606(10) 0.37236(10) 0.2520(2)
H14_5 H 0.2016 0.3912 0.2173
H15_5 H 0.1474 0.3890 0.2161
C10_5 C 0.19306(9) 0.34946(10) 0.4625(2)
H16_5 H 0.1912 0.3506 0.5624
H17_5 H 0.2296 0.3676 0.4355
Ag2_4 Ag 0.364172(7) 0.303174(7) 0.266451(18)
Ag3_4 Ag 0.060997(10) 0.364172(7) 0.733549(18)
S4_5 S 0.40143(2) 0.34741(3) 0.48998(5)
O7_4 O 0.38164(7) 0.24572(9) 0.39841(15)
O8_5 O 0.42238(7) 0.34179(8) 0.08663(18)
N3_4 N 0.16675(8) 0.29238(8) 0.26609(19)
C11_5 C 0.20234(10) 0.17117(10) 0.0600(3)
H18_5 H 0.1770 0.1736 0.1185
C12_5 C 0.18453(13) 0.11470(11) 0.0314(3)
C13_5 C 0.18346(15) 0.08692(12) 0.1597(3)
H22_5 H 0.1577 0.0864 0.2226
H23_5 H 0.1734 0.0510 0.1379
C14_5 C 0.23565(14) 0.11283(11) 0.2284(3)
H24_5 H 0.2336 0.0947 0.3139
H25_5 H 0.2608 0.1105 0.1688
C15_5 C 0.25388(12) 0.16901(10) 0.2589(2)
H26_5 H 0.2888 0.1855 0.2977
H27_5 H 0.2309 0.1714 0.3264
C16_5 C 0.25412(9) 0.19665(9) 0.1297(2)
H28_5 H 0.2783 0.1937 0.0660
C17_4 C 0.23287(9) 0.26842(9) 0.2662(2)
H29_4 H 0.2512 0.2940 0.3381
H30_4 H 0.2118 0.2348 0.3105
C18_4 C 0.19788(8) 0.28267(9) 0.1900(2)
C19_4 C 0.16728(10) 0.29430(10) 0.4146(2)
H31_4 H 0.1318 0.2754 0.4493
H32_4 H 0.1860 0.2776 0.4505
C20_4 C 0.14028(9) 0.31720(10) 0.2041(2)
H33_4 H 0.1422 0.3160 0.1042
H34_4 H 0.1038 0.2990 0.2311
O9_4 O 0.42482(9) 0.36555(9) 0.8784(2)
O10_3 O 0.36511(7) 0.29066(8) 0.9435(2)
N4_3 N 0.40380(9) 0.33238(9) 0.9682(2)
H19_4 H 0.2048 0.1890 0.9738
H20_4 H 0.2080 0.1124 0.9653
H21_4 H 0.1499 0.0980 0.9909
O2_4 O 0.91096(7) 0.32487(8) 0.58003(18)
O3_4 O 0.90852(9) 0.30111(9) 0.7882(2)
O4_5 O 0.96823(7) 0.37600(8) 0.7231(2)
N2_5 N 0.92954(9) 0.33428(9) 0.6984(2)
S1_5 S 0.59857(2) 0.65259(3) 0.51002(5)
O1_5 O 0.61836(7) 0.75428(9) 0.60159(15)
O2_5 O 0.67513(8) 0.58608(11) 0.58003(18)
O3_5 O 0.69889(9) 0.60740(13) 0.7882(2)
O4_6 O 0.62400(8) 0.59222(11) 0.7231(2)
N1_6 N 0.62572(8) 0.79230(11) 0.40057(19)
N2_6 N 0.66572(9) 0.59525(13) 0.6984(2)
C1_5 C 0.50451(10) 0.63550(14) 0.6066(3)
H1_5 H 0.5070 0.6633 0.5481
H2_5 H 0.5224 0.6509 0.6928
C2_5 C 0.44804(11) 0.59684(17) 0.6352(3)
H3_5 H 0.4458 0.5711 0.7013
H4_5 H 0.4314 0.6148 0.6757
C3_5 C 0.42026(12) 0.57013(19) 0.5069(3)
H5_5 H 0.4198 0.5954 0.4440
H6_5 H 0.3844 0.5443 0.5287
C4_5 C 0.44617(11) 0.54385(18) 0.4382(3)
H7_5 H 0.4281 0.5278 0.3527
H8_5 H 0.4439 0.5164 0.4978
C5_5 C 0.50235(10) 0.58180(16) 0.4077(2)
H9_5 H 0.5189 0.5634 0.3689
H10_5 H 0.5048 0.6072 0.3402
C6_5 C 0.52999(9) 0.60920(13) 0.5369(2)
H11_5 H 0.5271 0.5821 0.6006
C7_6 C 0.60176(9) 0.70222(13) 0.4004(2)
H12_6 H 0.6274 0.7095 0.3285
H13_6 H 0.5682 0.6897 0.3561
C8_6 C 0.61601(9) 0.75146(12) 0.4766(2)
C9_6 C 0.62764(10) 0.79369(14) 0.2520(2)
H14_6 H 0.6088 0.8103 0.2173
H15_6 H 0.6110 0.7583 0.2161
C10_6 C 0.65054(10) 0.84359(13) 0.4625(2)
H16_6 H 0.6494 0.8405 0.5624
H17_6 H 0.6324 0.8619 0.4355
Ag3_5 Ag 0.635828(7) 0.696826(12) 0.733549(18)
N3_5 N 0.70762(8) 0.87436(11) 0.26609(19)
C17_5 C 0.73158(9) 0.96444(13) 0.2662(2)
H29_5 H 0.7060 0.9571 0.3381
H30_5 H 0.7652 0.9769 0.3105
C18_5 C 0.71733(9) 0.91520(12) 0.1900(2)
C19_5 C 0.70570(10) 0.87297(14) 0.4146(2)
H31_5 H 0.7246 0.8563 0.4493
H32_5 H 0.7224 0.9083 0.4505
C20_5 C 0.68280(10) 0.82307(13) 0.2041(2)
H33_5 H 0.6840 0.8261 0.1042
H34_5 H 0.7010 0.8047 0.2311
Ag2_5 Ag 0.939003(10) 0.635828(7) 0.266451(18)
S4_6 S 0.94597(4) 0.59857(2) 0.48998(5)
O7_5 O 0.86407(11) 0.61836(7) 0.39841(15)
O8_6 O 0.91942(11) 0.57762(7) 0.08663(18)
C11_6 C 0.96884(14) 0.79766(10) 0.0600(3)
H18_6 H 0.9967 0.8230 0.1185
C12_6 C 0.93018(17) 0.81547(13) 0.0314(3)
C13_6 C 0.90347(19) 0.81654(15) 0.1597(3)
H22_6 H 0.9288 0.8423 0.2226
H23_6 H 0.8777 0.8266 0.1379
C14_6 C 0.87719(18) 0.76435(14) 0.2284(3)
H24_6 H 0.8612 0.7664 0.3139
H25_6 H 0.8498 0.7392 0.1688
C15_6 C 0.91514(16) 0.74612(12) 0.2589(2)
H26_6 H 0.8968 0.7112 0.2977
H27_6 H 0.9406 0.7691 0.3264
C16_6 C 0.94254(13) 0.74588(9) 0.1297(2)
H28_6 H 0.9155 0.7217 0.0660
O8_7 O 0.08904(7) 0.67513(8) 0.41997(18)
O9_5 O 0.09148(9) 0.69889(9) 0.2118(2)
O10_4 O 0.03177(7) 0.62400(8) 0.2769(2)
N4_4 N 0.07046(9) 0.66572(9) 0.3016(2)
O3_6 O 0.57518(9) 0.63445(9) 0.1216(2)
O4_7 O 0.63489(7) 0.70934(8) 0.0565(2)
N2_7 N 0.59620(9) 0.66762(9) 0.0318(2)
H2_6 H 0.7952 0.8110 0.0262
H3_6 H 0.7920 0.8876 0.0347
H4_6 H 0.8501 0.9020 0.0091
O2_6 O 0.57762(7) 0.65821(8) 0.91337(18)
N1_7 N 0.83325(8) 0.70762(8) 0.73391(19)
C1_6 C 0.79766(10) 0.82883(10) 0.9400(3)
H1_6 H 0.8230 0.8264 0.8815
C2_6 C 0.81547(13) 0.88530(11) 0.9686(3)
C3_6 C 0.81654(15) 0.91308(12) 0.8403(3)
H5_6 H 0.8423 0.9136 0.7774
H6_6 H 0.8266 0.9490 0.8621
C4_6 C 0.76435(14) 0.88717(11) 0.7716(3)
H7_6 H 0.7664 0.9053 0.6861
H8_6 H 0.7392 0.8895 0.8312
C5_6 C 0.74612(12) 0.83099(10) 0.7411(2)
H9_6 H 0.7112 0.8145 0.7023
H10_6 H 0.7691 0.8286 0.6736
C6_6 C 0.74588(9) 0.80335(9) 0.8703(2)
H11_6 H 0.7217 0.8063 0.9340
C7_7 C 0.76713(9) 0.73158(9) 0.7338(2)
H12_7 H 0.7488 0.7060 0.6619
H13_7 H 0.7882 0.7652 0.6895
C8_7 C 0.80212(8) 0.71733(9) 0.8100(2)
C9_7 C 0.83272(10) 0.70570(10) 0.5854(2)
H14_7 H 0.8682 0.7246 0.5507
H15_7 H 0.8140 0.7224 0.5495
C10_7 C 0.85972(9) 0.68280(10) 0.7959(2)
H16_7 H 0.8578 0.6840 0.8958
H17_7 H 0.8962 0.7010 0.7689
N3_6 N 0.83341(8) 0.62572(8) 0.59943(19)
C11_7 C 0.86900(10) 0.50451(10) 0.3934(3)
H18_7 H 0.8436 0.5070 0.4519
H19_5 H 0.8714 0.5224 0.3072
C12_7 C 0.85119(13) 0.44804(11) 0.3648(3)
H20_5 H 0.8746 0.4458 0.2987
H21_5 H 0.8165 0.4314 0.3243
C13_7 C 0.85012(15) 0.42026(12) 0.4931(3)
H22_7 H 0.8243 0.4198 0.5560
H23_7 H 0.8400 0.3844 0.4713
C14_7 C 0.90231(14) 0.44617(11) 0.5618(3)
H24_7 H 0.9002 0.4281 0.6473
H25_7 H 0.9274 0.4439 0.5022
C15_7 C 0.92054(12) 0.50235(10) 0.5923(2)
H26_7 H 0.9554 0.5189 0.6311
H27_7 H 0.8975 0.5048 0.6598
C16_7 C 0.92078(9) 0.52999(9) 0.4631(2)
H28_7 H 0.9449 0.5271 0.3994
C17_6 C 0.89953(9) 0.60176(9) 0.5996(2)
H29_6 H 0.9178 0.6274 0.6715
H30_6 H 0.8784 0.5682 0.6439
C18_6 C 0.86454(8) 0.61601(9) 0.5234(2)
C19_6 C 0.83394(10) 0.62764(10) 0.7480(2)
H31_6 H 0.7984 0.6088 0.7827
H32_6 H 0.8526 0.6110 0.7839
C20_6 C 0.80694(9) 0.65054(10) 0.5375(2)
H33_6 H 0.8088 0.6494 0.4376
H34_6 H 0.7704 0.6324 0.5645
N1_8 N 0.29238(8) 0.12564(11) 0.73391(19)
C7_8 C 0.26842(9) 0.03556(13) 0.7338(2)
H12_8 H 0.2940 0.0429 0.6619
H13_8 H 0.2348 0.0231 0.6895
C8_8 C 0.28267(9) 0.08480(12) 0.8100(2)
C9_8 C 0.29430(10) 0.12703(14) 0.5854(2)
H14_8 H 0.2754 0.1437 0.5507
H15_8 H 0.2776 0.0917 0.5495
C10_8 C 0.31720(10) 0.17693(13) 0.7959(2)
H16_8 H 0.3160 0.1739 0.8958
H17_8 H 0.2990 0.1953 0.7689
O8_8 O 0.32487(8) 0.41392(11) 0.41997(18)
O9_6 O 0.30111(9) 0.39260(13) 0.2118(2)
O10_5 O 0.37600(8) 0.40778(11) 0.2769(2)
N3_7 N 0.37428(8) 0.20770(11) 0.59943(19)
N4_5 N 0.33428(9) 0.40475(13) 0.3016(2)
C11_8 C 0.49549(10) 0.36450(14) 0.3934(3)
H18_8 H 0.4930 0.3367 0.4519
H19_6 H 0.4776 0.3491 0.3072
C12_8 C 0.55196(11) 0.40316(17) 0.3648(3)
H20_6 H 0.5542 0.4289 0.2987
H21_6 H 0.5686 0.3852 0.3243
C13_8 C 0.57974(12) 0.42987(19) 0.4931(3)
H22_8 H 0.5802 0.4046 0.5560
H23_8 H 0.6156 0.4557 0.4713
C14_8 C 0.55383(11) 0.45615(18) 0.5618(3)
H24_8 H 0.5719 0.4722 0.6473
H25_8 H 0.5561 0.4836 0.5022
C15_8 C 0.49765(10) 0.41820(16) 0.5923(2)
H26_8 H 0.4811 0.4366 0.6311
H27_8 H 0.4952 0.3928 0.6598
C16_8 C 0.47001(9) 0.39080(13) 0.4631(2)
H28_8 H 0.4729 0.4179 0.3994
C17_7 C 0.39824(9) 0.29778(13) 0.5996(2)
H29_7 H 0.3726 0.2905 0.6715
H30_7 H 0.4318 0.3103 0.6439
C18_7 C 0.38399(9) 0.24854(12) 0.5234(2)
C19_7 C 0.37236(10) 0.20631(14) 0.7480(2)
H31_7 H 0.3912 0.1897 0.7827
H32_7 H 0.3890 0.2417 0.7839
C20_7 C 0.34946(10) 0.15641(13) 0.5375(2)
H33_7 H 0.3506 0.1595 0.4376
H34_7 H 0.3676 0.1381 0.5645
O2_7 O 0.08058(11) 0.42238(7) 0.91337(18)
C1_7 C 0.03116(14) 0.20234(10) 0.9400(3)
H1_7 H 0.0033 0.1770 0.8815
C2_7 C 0.06982(17) 0.18453(13) 0.9686(3)
C3_7 C 0.09653(19) 0.18346(15) 0.8403(3)
H5_7 H 0.0712 0.1577 0.7774
H6_7 H 0.1223 0.1734 0.8621
C4_7 C 0.12281(18) 0.23565(14) 0.7716(3)
H7_7 H 0.1388 0.2336 0.6861
H8_7 H 0.1502 0.2608 0.8312
C5_7 C 0.08486(16) 0.25388(12) 0.7411(2)
H9_7 H 0.1032 0.2888 0.7023
H10_7 H 0.0594 0.2309 0.6736
C6_7 C 0.05746(13) 0.25412(9) 0.8703(2)
H11_7 H 0.0845 0.2783 0.9340
Ag2_6 Ag 0.697505(7) 0.969841(7) 0.933118(18)
Ag4_3 Ag 0.605669(10) 0.969162(7) 0.599785(18)
S2_3 S 0.61264(2) 0.93190(2) 0.82331(5)
S3_3 S 0.26523(2) 0.98593(3) 0.84336(5)
O5_3 O 0.53074(6) 0.95169(7) 0.73174(15)
O10_6 O 0.69844(7) 0.95733(8) 0.6102(2)
N3_8 N 0.50008(8) 0.95905(8) 0.93276(19)
N4_6 N 0.73713(9) 0.99905(9) 0.6349(2)
C11_9 C 0.53567(10) 0.83784(10) 0.7267(3)
H18_9 H 0.5103 0.8403 0.7852
H19_7 H 0.5381 0.8557 0.6405
C12_9 C 0.51786(13) 0.78137(11) 0.6981(3)
H20_7 H 0.5413 0.7791 0.6320
H21_7 H 0.4832 0.7647 0.6576
C13_9 C 0.51679(15) 0.75359(12) 0.8264(3)
H22_9 H 0.4910 0.7531 0.8893
H23_9 H 0.5067 0.7177 0.8046
C14_9 C 0.56898(14) 0.77950(11) 0.8951(3)
H24_9 H 0.5669 0.7614 0.9806
H25_9 H 0.5941 0.7772 0.8355
C15_9 C 0.58721(12) 0.83568(10) 0.9256(2)
H26_9 H 0.6221 0.8522 0.9644
H27_9 H 0.5642 0.8381 0.9931
C16_9 C 0.58745(9) 0.86332(9) 0.7964(2)
H28_9 H 0.6116 0.8604 0.7327
C17_8 C 0.56620(9) 0.93509(9) 0.9329(2)
H30_8 H 0.5451 0.9015 0.9772
C18_8 C 0.53121(8) 0.94934(9) 0.8567(2)
C20_8 C 0.47361(9) 0.98387(10) 0.8708(2)
H33_8 H 0.4755 0.9827 0.7709
H34_8 H 0.4371 0.9657 0.8978
O2_8 O 0.00846(8) 0.25275(11) 0.24670(18)
O3_7 O 0.03222(9) 0.27407(13) 0.4549(2)
O7_6 O 0.08762(9) 0.80259(11) 0.06507(15)
H29_8 H 0.0393 0.6238 0.0048
C19_8 C 0.03903(10) 0.53964(14) 0.0813(2)
H31_8 H 0.0579 0.5230 0.1160
H32_8 H 0.0557 0.5750 0.1172
S1_6 S 0.34741(3) 0.94597(2) 0.51002(5)
O1_6 O 0.24572(9) 0.86407(6) 0.60159(15)
N1_9 N 0.20770(11) 0.83341(8) 0.40057(19)
C1_8 C 0.36450(14) 0.86900(10) 0.6066(3)
H1_8 H 0.3367 0.8436 0.5481
H2_7 H 0.3491 0.8714 0.6928
C2_8 C 0.40316(17) 0.85119(13) 0.6352(3)
H3_7 H 0.4289 0.8746 0.7013
H4_7 H 0.3852 0.8165 0.6757
C3_8 C 0.42987(19) 0.85012(15) 0.5069(3)
H5_8 H 0.4046 0.8243 0.4440
H6_8 H 0.4557 0.8400 0.5287
C4_8 C 0.45615(18) 0.90231(14) 0.4382(3)
H7_8 H 0.4722 0.9002 0.3527
H8_8 H 0.4836 0.9274 0.4978
C5_8 C 0.41820(16) 0.92054(12) 0.4077(2)
H9_8 H 0.4366 0.9554 0.3689
H10_8 H 0.3928 0.8975 0.3402
C6_8 C 0.39080(13) 0.92078(9) 0.5369(2)
H11_8 H 0.4179 0.9449 0.6006
C7_9 C 0.29778(13) 0.89953(9) 0.4004(2)
H12_9 H 0.2905 0.9178 0.3285
H13_9 H 0.3103 0.8784 0.3561
C8_9 C 0.24854(12) 0.86454(8) 0.4766(2)
C9_9 C 0.20631(14) 0.83394(10) 0.2520(2)
H14_9 H 0.1897 0.7984 0.2173
H15_9 H 0.2417 0.8526 0.2161
C10_9 C 0.15641(13) 0.80694(9) 0.4625(2)
H16_9 H 0.1595 0.8088 0.5624
H17_9 H 0.1381 0.7704 0.4355
Ag3_6 Ag 0.303174(12) 0.939003(10) 0.733549(18)
N3_9 N 0.12564(11) 0.83325(8) 0.26609(19)
C17_9 C 0.03556(13) 0.76713(9) 0.2662(2)
H29_9 H 0.0429 0.7488 0.3381
H30_9 H 0.0231 0.7882 0.3105
C18_9 C 0.08480(12) 0.80212(8) 0.1900(2)
C19_9 C 0.12703(14) 0.83272(10) 0.4146(2)
H31_9 H 0.1437 0.8682 0.4493
H32_9 H 0.0917 0.8140 0.4505
C20_9 C 0.17693(13) 0.85972(9) 0.2041(2)
H33_9 H 0.1739 0.8578 0.1042
H34_9 H 0.1953 0.8962 0.2311
O2_9 O 0.34179(8) 0.91942(11) 0.91337(18)
C1_9 C 0.17117(10) 0.96884(14) 0.9400(3)
H1_9 H 0.1736 0.9967 0.8815
C2_9 C 0.11470(11) 0.93018(17) 0.9686(3)
C3_9 C 0.08692(12) 0.90347(19) 0.8403(3)
H5_9 H 0.0864 0.9288 0.7774
H6_9 H 0.0510 0.8777 0.8621
C4_9 C 0.11283(11) 0.87719(18) 0.7716(3)
H7_9 H 0.0947 0.8612 0.6861
H8_9 H 0.1105 0.8498 0.8312
C5_9 C 0.16901(10) 0.91514(16) 0.7411(2)
H9_9 H 0.1855 0.8968 0.7023
H10_9 H 0.1714 0.9406 0.6736
C6_9 C 0.19665(9) 0.94254(13) 0.8703(2)
H11_9 H 0.1937 0.9155 0.9340
O8_9 O 0.58608(11) 0.91096(7) 0.41997(18)
O9_7 O 0.60740(13) 0.90852(9) 0.2118(2)
O10_7 O 0.59222(11) 0.96823(7) 0.2769(2)
N4_7 N 0.59525(13) 0.92954(9) 0.3016(2)
O9_8 O 0.63445(9) 0.05926(13) 0.8784(2)
O10_8 O 0.70934(8) 0.07444(11) 0.9435(2)
N4_8 N 0.66762(9) 0.07141(13) 0.9682(2)
H19_8 H 0.8110 0.0157 0.9738
H20_8 H 0.8876 0.0955 0.9653
H21_8 H 0.9020 0.0518 0.9909
O9_9 O 0.94074(13) 0.57518(9) 0.8784(2)
O10_9 O 0.92556(11) 0.63489(7) 0.9435(2)
N4_9 N 0.92859(13) 0.59620(9) 0.9682(2)
H19_9 H 0.9843 0.7952 0.9738
H20_9 H 0.9045 0.7920 0.9653
H21_9 H 0.9482 0.8501 0.9909
O3_8 O 0.36555(9) 0.94074(13) 0.1216(2)
O4_8 O 0.29066(8) 0.92556(11) 0.0565(2)
N2_8 N 0.33238(9) 0.92859(13) 0.0318(2)
H2_8 H 0.1890 0.9843 0.0262
H3_8 H 0.1124 0.9045 0.0347
H4_8 H 0.0980 0.9482 0.0091
O3_9 O 0.05926(13) 0.42482(9) 0.1216(2)
O4_9 O 0.07444(11) 0.36511(7) 0.0565(2)
N2_9 N 0.07141(13) 0.40380(9) 0.0318(2)
H2_9 H 0.0157 0.2048 0.0262
H3_9 H 0.0955 0.2080 0.0347
H4_9 H 0.0518 0.1499 0.0091
loop_
_geom_bond_atom_site_label_1
_geom_bond_atom_site_label_2
_geom_bond_site_symmetry_1
_geom_bond_site_symmetry_2
Ag1 S1 1_555 1_555
S1 C6 1_555 1_555
O1 C8 1_555 1_555
O4 N2 1_555 1_555
N1 C8 1_555 1_555
C1 H1 1_555 1_555
H2 C1 1_555 1_555
C2 C1 1_555 1_555
H3 C2 1_555 1_555
H4 C2 1_555 1_555
C3 C2 1_555 1_555
H5 C3 1_555 1_555
H6 C3 1_555 1_555
C4 C3 1_555 1_555
H7 C4 1_555 1_555
H8 C4 1_555 1_555
C5 C4 1_555 1_555
H9 C5 1_555 1_555
H10 C5 1_555 1_555
C6 C1 1_555 1_555
H11 C6 1_555 1_555
C7 S1 1_555 1_555
H13 C7 1_555 1_555
C8 C7 1_555 1_555
C10 N1 1_555 1_555
H16 C10 1_555 1_555
H17 C10 1_555 1_555
Ag3 S1 1_555 1_555
O1 Ag3 1_555 1_555
C5 C6 1_555 1_555
H14 C9 1_555 1_555
H15 C9 1_555 1_555
Ag2 S4 1_555 1_555
S4 C16 1_555 1_555
S4_2 Ag2 1_555 1_555
O7 Ag2 1_555 1_555
O8_2 Ag2 1_555 1_555
C11 H18 1_555 1_555
C12 C11 1_555 1_555
C13 C12 1_555 1_555
H22 C13 1_555 1_555
H23 C13 1_555 1_555
C14 C13 1_555 1_555
H24 C14 1_555 1_555
H25 C14 1_555 1_555
C15 C14 1_555 1_555
H26 C15 1_555 1_555
H27 C15 1_555 1_555
C16 C11 1_555 1_555
H28 C16 1_555 1_555
C15 C16 1_555 1_555
O2 Ag3 1_555 1_555
O3 N2_2 1_555 1_555
O4_2 N2_2 1_555 1_555
N2_2 O2 1_555 1_555
O6 C8_2 1_555 1_555
N1_2 C8_2 1_555 1_555
H12_2 C7_2 1_555 1_555
H13_2 C7_2 1_555 1_555
C8_2 C7_2 1_555 1_555
C9_2 N1_2 1_555 1_555
H14_2 C9_2 1_555 1_555
H15_2 C9_2 1_555 1_555
C10_2 N1_2 1_555 1_555
H16_2 C10_2 1_555 1_555
H17_2 C10_2 1_555 1_555
S4_2 C16_2 1_555 1_555
N3 C18 1_555 1_555
C11_2 H18_2 1_555 1_555
H19 C11_2 1_555 1_555
C12_2 C11_2 1_555 1_555
H20 C12_2 1_555 1_555
H21 C12_2 1_555 1_555
C13_2 C12_2 1_555 1_555
H22_2 C13_2 1_555 1_555
H23_2 C13_2 1_555 1_555
C14_2 C13_2 1_555 1_555
H24_2 C14_2 1_555 1_555
H25_2 C14_2 1_555 1_555
C15_2 C14_2 1_555 1_555
H26_2 C15_2 1_555 1_555
H27_2 C15_2 1_555 1_555
C16_2 C11_2 1_555 1_555
H28_2 C16_2 1_555 1_555
C17 S4_2 1_555 1_555
H29 C17 1_555 1_555
H30 C17 1_555 1_555
C18 O7 1_555 1_555
C19 C10_2 1_555 1_555
H31 C19 1_555 1_555
H32 C19 1_555 1_555
C20 C9_2 1_555 1_555
H33 C20 1_555 1_555
H34 C20 1_555 1_555
N3 C19 1_555 1_555
N3 C20 1_555 1_555
C15_2 C16_2 1_555 1_555
C17 C18 1_555 1_555
H14_3 C9_3 1_555 1_555
H15_3 C9_3 1_555 1_555
H31_2 C19_2 1_555 1_555
H32_2 C19_2 1_555 1_555
Ag2_2 S2 1_555 1_555
Ag4 S2 1_555 1_555
S2 C16_3 1_555 1_555
O5 Ag4 1_555 1_555
O10 N4 1_555 1_555
N3_2 C18_2 1_555 1_555
C11_3 H18_3 1_555 1_555
H19_2 C11_3 1_555 1_555
C12_3 C11_3 1_555 1_555
H20_2 C12_3 1_555 1_555
H21_2 C12_3 1_555 1_555
C13_3 C12_3 1_555 1_555
H22_3 C13_3 1_555 1_555
H23_3 C13_3 1_555 1_555
C14_3 C13_3 1_555 1_555
H24_3 C14_3 1_555 1_555
H25_3 C14_3 1_555 1_555
C15_3 C14_3 1_555 1_555
H26_3 C15_3 1_555 1_555
H27_3 C15_3 1_555 1_555
C16_3 C11_3 1_555 1_555
H28_3 C16_3 1_555 1_555
C17_2 S2 1_555 1_555
H30_2 C17_2 1_555 1_555
C18_2 O5 1_555 1_555
H33_2 C20_2 1_555 1_555
H34_2 C20_2 1_555 1_555
N3_2 C20_2 1_555 1_555
C15_3 C16_3 1_555 1_555
C17_2 C18_2 1_555 1_555
Ag1_2 S1_2 1_555 1_555
S1_2 C6_2 1_555 1_555
O1_2 C8_3 1_555 1_555
O4_3 N2_3 1_555 1_555
N1_3 C8_3 1_555 1_555
C1_2 H1_2 1_555 1_555
H2_2 C1_2 1_555 1_555
C2_2 C1_2 1_555 1_555
H3_2 C2_2 1_555 1_555
H4_2 C2_2 1_555 1_555
C3_2 C2_2 1_555 1_555
H5_2 C3_2 1_555 1_555
H6_2 C3_2 1_555 1_555
C4_2 C3_2 1_555 1_555
H7_2 C4_2 1_555 1_555
H8_2 C4_2 1_555 1_555
C5_2 C4_2 1_555 1_555
H9_2 C5_2 1_555 1_555
H10_2 C5_2 1_555 1_555
C6_2 C1_2 1_555 1_555
H11_2 C6_2 1_555 1_555
C7_3 S1_2 1_555 1_555
H13_3 C7_3 1_555 1_555
C8_3 C7_3 1_555 1_555
C10_3 N1_3 1_555 1_555
H16_3 C10_3 1_555 1_555
H17_3 C10_3 1_555 1_555
Ag3_2 S1_2 1_555 1_555
O1_2 Ag3_2 1_555 1_555
C5_2 C6_2 1_555 1_555
Ag1_3 S1_3 1_555 1_555
S1_3 C6_3 1_555 1_555
O1_3 C8_4 1_555 1_555
O2_3 Ag1_3 1_555 1_555
O3_3 N2_4 1_555 1_555
O4_4 N2_4 1_555 1_555
N1_4 C8_4 1_555 1_555
N2_4 O2_3 1_555 1_555
C1_3 H1_3 1_555 1_555
H2_3 C1_3 1_555 1_555
C2_3 C1_3 1_555 1_555
H3_3 C2_3 1_555 1_555
H4_3 C2_3 1_555 1_555
C3_3 C2_3 1_555 1_555
H5_3 C3_3 1_555 1_555
H6_3 C3_3 1_555 1_555
C4_3 C3_3 1_555 1_555
H7_3 C4_3 1_555 1_555
H8_3 C4_3 1_555 1_555
C5_3 C4_3 1_555 1_555
H9_3 C5_3 1_555 1_555
H10_3 C5_3 1_555 1_555
C6_3 C1_3 1_555 1_555
H11_3 C6_3 1_555 1_555
C7_4 S1_3 1_555 1_555
H13_4 C7_4 1_555 1_555
C8_4 C7_4 1_555 1_555
C10_4 N1_4 1_555 1_555
H16_4 C10_4 1_555 1_555
H17_4 C10_4 1_555 1_555
Ag3_3 S1_3 1_555 1_555
C19_3 C10_4 1_555 1_555
H31_3 C19_3 1_555 1_555
H32_3 C19_3 1_555 1_555
O1_3 Ag3_3 1_555 1_555
C5_3 C6_3 1_555 1_555
H14_4 C9_4 1_555 1_555
H15_4 C9_4 1_555 1_555
Ag2_3 S2_2 1_555 1_555
Ag4_2 S2_2 1_555 1_555
S2_2 C16_4 1_555 1_555
O5_2 Ag4_2 1_555 1_555
O8_4 Ag2_3 1_555 1_555
O9_3 N4_2 1_555 1_555
O10_2 N4_2 1_555 1_555
N3_3 C18_3 1_555 1_555
N4_2 O8_4 1_555 1_555
C11_4 H18_4 1_555 1_555
H19_3 C11_4 1_555 1_555
C12_4 C11_4 1_555 1_555
H20_3 C12_4 1_555 1_555
H21_3 C12_4 1_555 1_555
C13_4 C12_4 1_555 1_555
H22_4 C13_4 1_555 1_555
H23_4 C13_4 1_555 1_555
C14_4 C13_4 1_555 1_555
H24_4 C14_4 1_555 1_555
H25_4 C14_4 1_555 1_555
C15_4 C14_4 1_555 1_555
H26_4 C15_4 1_555 1_555
H27_4 C15_4 1_555 1_555
C16_4 C11_4 1_555 1_555
H28_4 C16_4 1_555 1_555
C17_3 S2_2 1_555 1_555
H30_3 C17_3 1_555 1_555
C18_3 O5_2 1_555 1_555
C20_3 C9_4 1_555 1_555
H33_3 C20_3 1_555 1_555
H34_3 C20_3 1_555 1_555
N3_3 C20_3 1_555 1_555
C15_4 C16_4 1_555 1_555
C17_3 C18_3 1_555 1_555
S1_4 C6_4 1_555 1_555
O1_4 C8_5 1_555 1_555
N1_5 C8_5 1_555 1_555
C1_4 H1_4 1_555 1_555
H2_4 C1_4 1_555 1_555
C2_4 C1_4 1_555 1_555
H3_4 C2_4 1_555 1_555
H4_4 C2_4 1_555 1_555
C3_4 C2_4 1_555 1_555
H5_4 C3_4 1_555 1_555
H6_4 C3_4 1_555 1_555
C4_4 C3_4 1_555 1_555
H7_4 C4_4 1_555 1_555
H8_4 C4_4 1_555 1_555
C5_4 C4_4 1_555 1_555
H9_4 C5_4 1_555 1_555
H10_4 C5_4 1_555 1_555
C6_4 C1_4 1_555 1_555
H11_4 C6_4 1_555 1_555
C7_5 S1_4 1_555 1_555
H12_5 C7_5 1_555 1_555
H13_5 C7_5 1_555 1_555
C8_5 C7_5 1_555 1_555
C9_5 N1_5 1_555 1_555
H14_5 C9_5 1_555 1_555
H15_5 C9_5 1_555 1_555
C10_5 N1_5 1_555 1_555
H16_5 C10_5 1_555 1_555
H17_5 C10_5 1_555 1_555
Ag2_4 S4_4 1_555 1_555
Ag3_4 S1_4 1_555 1_555
S4_4 C16_5 1_555 1_555
S4_5 Ag2_4 1_555 1_555
O7_4 Ag2_4 1_555 1_555
O8_5 Ag2_4 1_555 1_555
N3_4 C18_4 1_555 1_555
C11_5 H18_5 1_555 1_555
C12_5 C11_5 1_555 1_555
C13_5 C12_5 1_555 1_555
H22_5 C13_5 1_555 1_555
H23_5 C13_5 1_555 1_555
C14_5 C13_5 1_555 1_555
H24_5 C14_5 1_555 1_555
H25_5 C14_5 1_555 1_555
C15_5 C14_5 1_555 1_555
H26_5 C15_5 1_555 1_555
H27_5 C15_5 1_555 1_555
C16_5 C11_5 1_555 1_555
H28_5 C16_5 1_555 1_555
C17_4 S4_4 1_555 1_555
H29_4 C17_4 1_555 1_555
H30_4 C17_4 1_555 1_555
C18_4 O7_3 1_555 1_555
C19_4 C10_5 1_555 1_555
H31_4 C19_4 1_555 1_555
H32_4 C19_4 1_555 1_555
C20_4 C9_5 1_555 1_555
H33_4 C20_4 1_555 1_555
H34_4 C20_4 1_555 1_555
O1_4 Ag3_4 1_555 1_555
C5_4 C6_4 1_555 1_555
N3_4 C19_4 1_555 1_555
N3_4 C20_4 1_555 1_555
C15_5 C16_5 1_555 1_555
C17_4 C18_4 1_555 1_555
O9_4 N4_3 1_555 1_555
O10_3 N4_3 1_555 1_555
O2_4 Ag3_2 1_555 1_555
O3_4 N2_5 1_555 1_555
O4_5 N2_5 1_555 1_555
N2_5 O2_4 1_555 1_555
Ag3_3 S1_5 1_555 1_555
S1_5 C6_5 1_555 1_555
O1_5 C8_6 1_555 1_555
O2_5 Ag3_3 1_555 1_555
O3_5 N2_6 1_555 1_555
O4_6 N2_6 1_555 1_555
N1_6 C8_6 1_555 1_555
N2_6 O2_5 1_555 1_555
C1_5 H1_5 1_555 1_555
H2_5 C1_5 1_555 1_555
C2_5 C1_5 1_555 1_555
H3_5 C2_5 1_555 1_555
H4_5 C2_5 1_555 1_555
C3_5 C2_5 1_555 1_555
H5_5 C3_5 1_555 1_555
H6_5 C3_5 1_555 1_555
C4_5 C3_5 1_555 1_555
H7_5 C4_5 1_555 1_555
H8_5 C4_5 1_555 1_555
C5_5 C4_5 1_555 1_555
H9_5 C5_5 1_555 1_555
H10_5 C5_5 1_555 1_555
C6_5 C1_5 1_555 1_555
H11_5 C6_5 1_555 1_555
C7_6 S1_5 1_555 1_555
H12_6 C7_6 1_555 1_555
H13_6 C7_6 1_555 1_555
C8_6 C7_6 1_555 1_555
C9_6 N1_6 1_555 1_555
H14_6 C9_6 1_555 1_555
H15_6 C9_6 1_555 1_555
C10_6 N1_6 1_555 1_555
H16_6 C10_6 1_555 1_555
H17_6 C10_6 1_555 1_555
Ag3_5 S1_5 1_555 1_555
N3_5 C18_5 1_555 1_555
H29_5 C17_5 1_555 1_555
H30_5 C17_5 1_555 1_555
C18_5 O7_2 1_555 1_555
C19_5 C10_6 1_555 1_555
H31_5 C19_5 1_555 1_555
H32_5 C19_5 1_555 1_555
C20_5 C9_6 1_555 1_555
H33_5 C20_5 1_555 1_555
H34_5 C20_5 1_555 1_555
O1_5 Ag3_5 1_555 1_555
C5_5 C6_5 1_555 1_555
N3_5 C19_5 1_555 1_555
N3_5 C20_5 1_555 1_555
C17_5 C18_5 1_555 1_555
Ag2_5 S4_3 1_555 1_555
S4_3 C16_6 1_555 1_555
S4_6 Ag2_5 1_555 1_555
O7_5 Ag2_5 1_555 1_555
O8_6 Ag2_5 1_555 1_555
C11_6 H18_6 1_555 1_555
C12_6 C11_6 1_555 1_555
C13_6 C12_6 1_555 1_555
H22_6 C13_6 1_555 1_555
H23_6 C13_6 1_555 1_555
C14_6 C13_6 1_555 1_555
H24_6 C14_6 1_555 1_555
H25_6 C14_6 1_555 1_555
C15_6 C14_6 1_555 1_555
H26_6 C15_6 1_555 1_555
H27_6 C15_6 1_555 1_555
C16_6 C11_6 1_555 1_555
H28_6 C16_6 1_555 1_555
C15_6 C16_6 1_555 1_555
O8_7 Ag4 1_555 1_555
O9_5 N4_4 1_555 1_555
O10_4 N4_4 1_555 1_555
N4_4 O8_7 1_555 1_555
O3_6 N2_7 1_555 1_555
O4_7 N2_7 1_555 1_555
Ag3_5 S3_2 1_555 1_555
S3_2 C6_6 1_555 1_555
O6_3 C8_7 1_555 1_555
O2_6 Ag3_5 1_555 1_555
N1_7 C8_7 1_555 1_555
C1_6 H1_6 1_555 1_555
C2_6 C1_6 1_555 1_555
C3_6 C2_6 1_555 1_555
H5_6 C3_6 1_555 1_555
H6_6 C3_6 1_555 1_555
C4_6 C3_6 1_555 1_555
H7_6 C4_6 1_555 1_555
H8_6 C4_6 1_555 1_555
C5_6 C4_6 1_555 1_555
H9_6 C5_6 1_555 1_555
H10_6 C5_6 1_555 1_555
C6_6 C1_6 1_555 1_555
H11_6 C6_6 1_555 1_555
C7_7 S3_2 1_555 1_555
H12_7 C7_7 1_555 1_555
H13_7 C7_7 1_555 1_555
C8_7 C7_7 1_555 1_555
C9_7 N1_7 1_555 1_555
H14_7 C9_7 1_555 1_555
H15_7 C9_7 1_555 1_555
C10_7 N1_7 1_555 1_555
H16_7 C10_7 1_555 1_555
H17_7 C10_7 1_555 1_555
S4_6 C16_7 1_555 1_555
N3_6 C18_6 1_555 1_555
C11_7 H18_7 1_555 1_555
H19_5 C11_7 1_555 1_555
C12_7 C11_7 1_555 1_555
H20_5 C12_7 1_555 1_555
H21_5 C12_7 1_555 1_555
C13_7 C12_7 1_555 1_555
H22_7 C13_7 1_555 1_555
H23_7 C13_7 1_555 1_555
C14_7 C13_7 1_555 1_555
H24_7 C14_7 1_555 1_555
H25_7 C14_7 1_555 1_555
C15_7 C14_7 1_555 1_555
H26_7 C15_7 1_555 1_555
H27_7 C15_7 1_555 1_555
C16_7 C11_7 1_555 1_555
H28_7 C16_7 1_555 1_555
C17_6 S4_6 1_555 1_555
H29_6 C17_6 1_555 1_555
H30_6 C17_6 1_555 1_555
C18_6 O7_5 1_555 1_555
C19_6 C10_7 1_555 1_555
H31_6 C19_6 1_555 1_555
H32_6 C19_6 1_555 1_555
C20_6 C9_7 1_555 1_555
H33_6 C20_6 1_555 1_555
H34_6 C20_6 1_555 1_555
C5_6 C6_6 1_555 1_555
N3_6 C19_6 1_555 1_555
N3_6 C20_6 1_555 1_555
C15_7 C16_7 1_555 1_555
C17_6 C18_6 1_555 1_555
O6_2 C8_8 1_555 1_555
N1_8 C8_8 1_555 1_555
H12_8 C7_8 1_555 1_555
H13_8 C7_8 1_555 1_555
C8_8 C7_8 1_555 1_555
C9_8 N1_8 1_555 1_555
H14_8 C9_8 1_555 1_555
H15_8 C9_8 1_555 1_555
C10_8 N1_8 1_555 1_555
H16_8 C10_8 1_555 1_555
H17_8 C10_8 1_555 1_555
Ag4_2 S4_5 1_555 1_555
S4_5 C16_8 1_555 1_555
O8_8 Ag4_2 1_555 1_555
O9_6 N4_5 1_555 1_555
O10_5 N4_5 1_555 1_555
N3_7 C18_7 1_555 1_555
N4_5 O8_8 1_555 1_555
C11_8 H18_8 1_555 1_555
H19_6 C11_8 1_555 1_555
C12_8 C11_8 1_555 1_555
H20_6 C12_8 1_555 1_555
H21_6 C12_8 1_555 1_555
C13_8 C12_8 1_555 1_555
H22_8 C13_8 1_555 1_555
H23_8 C13_8 1_555 1_555
C14_8 C13_8 1_555 1_555
H24_8 C14_8 1_555 1_555
H25_8 C14_8 1_555 1_555
C15_8 C14_8 1_555 1_555
H26_8 C15_8 1_555 1_555
H27_8 C15_8 1_555 1_555
C16_8 C11_8 1_555 1_555
H28_8 C16_8 1_555 1_555
C17_7 S4_5 1_555 1_555
H29_7 C17_7 1_555 1_555
H30_7 C17_7 1_555 1_555
C18_7 O7_4 1_555 1_555
C19_7 C10_8 1_555 1_555
H31_7 C19_7 1_555 1_555
H32_7 C19_7 1_555 1_555
C20_7 C9_8 1_555 1_555
H33_7 C20_7 1_555 1_555
H34_7 C20_7 1_555 1_555
N3_7 C19_7 1_555 1_555
N3_7 C20_7 1_555 1_555
C15_8 C16_8 1_555 1_555
C17_7 C18_7 1_555 1_555
Ag3_4 S3 1_555 1_555
S3 C6_7 1_555 1_555
O2_7 Ag3_4 1_555 1_555
C1_7 H1_7 1_555 1_555
C2_7 C1_7 1_555 1_555
C3_7 C2_7 1_555 1_555
H5_7 C3_7 1_555 1_555
H6_7 C3_7 1_555 1_555
C4_7 C3_7 1_555 1_555
H7_7 C4_7 1_555 1_555
H8_7 C4_7 1_555 1_555
C5_7 C4_7 1_555 1_555
H9_7 C5_7 1_555 1_555
H10_7 C5_7 1_555 1_555
C6_7 C1_7 1_555 1_555
H11_7 C6_7 1_555 1_555
C5_7 C6_7 1_555 1_555
Ag2_6 S2_3 1_555 1_555
Ag4_3 S2_3 1_555 1_555
S2_3 C16_9 1_555 1_555
O5_3 Ag4_3 1_555 1_555
O10_6 N4_6 1_555 1_555
N3_8 C18_8 1_555 1_555
C11_9 H18_9 1_555 1_555
H19_7 C11_9 1_555 1_555
C12_9 C11_9 1_555 1_555
H20_7 C12_9 1_555 1_555
H21_7 C12_9 1_555 1_555
C13_9 C12_9 1_555 1_555
H22_9 C13_9 1_555 1_555
H23_9 C13_9 1_555 1_555
C14_9 C13_9 1_555 1_555
H24_9 C14_9 1_555 1_555
H25_9 C14_9 1_555 1_555
C15_9 C14_9 1_555 1_555
H26_9 C15_9 1_555 1_555
H27_9 C15_9 1_555 1_555
C16_9 C11_9 1_555 1_555
H28_9 C16_9 1_555 1_555
C17_8 S2_3 1_555 1_555
H30_8 C17_8 1_555 1_555
C18_8 O5_3 1_555 1_555
H33_8 C20_8 1_555 1_555
H34_8 C20_8 1_555 1_555
N3_8 C20_8 1_555 1_555
C15_9 C16_9 1_555 1_555
C17_8 C18_8 1_555 1_555
H31_8 C19_8 1_555 1_555
H32_8 C19_8 1_555 1_555
S1_6 C6_8 1_555 1_555
O1_6 C8_9 1_555 1_555
N1_9 C8_9 1_555 1_555
C1_8 H1_8 1_555 1_555
H2_7 C1_8 1_555 1_555
C2_8 C1_8 1_555 1_555
H3_7 C2_8 1_555 1_555
H4_7 C2_8 1_555 1_555
C3_8 C2_8 1_555 1_555
H5_8 C3_8 1_555 1_555
H6_8 C3_8 1_555 1_555
C4_8 C3_8 1_555 1_555
H7_8 C4_8 1_555 1_555
H8_8 C4_8 1_555 1_555
C5_8 C4_8 1_555 1_555
H9_8 C5_8 1_555 1_555
H10_8 C5_8 1_555 1_555
C6_8 C1_8 1_555 1_555
H11_8 C6_8 1_555 1_555
C7_9 S1_6 1_555 1_555
H12_9 C7_9 1_555 1_555
H13_9 C7_9 1_555 1_555
C8_9 C7_9 1_555 1_555
C9_9 N1_9 1_555 1_555
H14_9 C9_9 1_555 1_555
H15_9 C9_9 1_555 1_555
C10_9 N1_9 1_555 1_555
H16_9 C10_9 1_555 1_555
H17_9 C10_9 1_555 1_555
Ag3_6 S1_6 1_555 1_555
N3_9 C18_9 1_555 1_555
H29_9 C17_9 1_555 1_555
H30_9 C17_9 1_555 1_555
C18_9 O7_6 1_555 1_555
C19_9 C10_9 1_555 1_555
H31_9 C19_9 1_555 1_555
H32_9 C19_9 1_555 1_555
C20_9 C9_9 1_555 1_555
H33_9 C20_9 1_555 1_555
H34_9 C20_9 1_555 1_555
O1_6 Ag3_6 1_555 1_555
C5_8 C6_8 1_555 1_555
N3_9 C19_9 1_555 1_555
N3_9 C20_9 1_555 1_555
C17_9 C18_9 1_555 1_555
Ag3_6 S3_3 1_555 1_555
S3_3 C6_9 1_555 1_555
O2_9 Ag3_6 1_555 1_555
C1_9 H1_9 1_555 1_555
C2_9 C1_9 1_555 1_555
C3_9 C2_9 1_555 1_555
H5_9 C3_9 1_555 1_555
H6_9 C3_9 1_555 1_555
C4_9 C3_9 1_555 1_555
H7_9 C4_9 1_555 1_555
H8_9 C4_9 1_555 1_555
C5_9 C4_9 1_555 1_555
H9_9 C5_9 1_555 1_555
H10_9 C5_9 1_555 1_555
C6_9 C1_9 1_555 1_555
H11_9 C6_9 1_555 1_555
C5_9 C6_9 1_555 1_555
O8_9 Ag4_3 1_555 1_555
O9_7 N4_7 1_555 1_555
O10_7 N4_7 1_555 1_555
N4_7 O8_9 1_555 1_555
O9_8 N4_8 1_555 1_555
O10_8 N4_8 1_555 1_555
O9_9 N4_9 1_555 1_555
O10_9 N4_9 1_555 1_555
O3_8 N2_8 1_555 1_555
O4_8 N2_8 1_555 1_555
O3_9 N2_9 1_555 1_555
O4_9 N2_9 1_555 1_555

#END
