
###############################################################################
#
# This file contains modified crystal structure data generated from the
# MOF subset of the Cambridge Structural Database (CSD) v543 
# hosted by the Cambridge Crystallographic Data Centre (CCDC).
#
# This work is licensed under the Creative Commons
# Attribution-NonCommercial-ShareAlike 4.0 International License.
# To view a copy of this license, visit
# http://creativecommons.org/licenses/by-nc-sa/4.0/
# or send a letter to
# Creative Commons, PO Box 1866, Mountain View, CA 94042, USA.
#
# CIF created using the CSD Python API on 29 September 2022
# The structure has been converted into the P1 space group
# The structure has a 3D framework
# The original CSD entry LIQDAS is in the hexagonal crystal system
# The framework has been calculated to contain at least 10.0% void space
# The void calculation uses a probe of radius 1.32A, grid spacing 0.4
# H atom positions have been added when not included in the experimental data
# Generated hydrogen atom positions removed from atoms on special positions
#
###############################################################################

data_LIQDAS
_chemical_formula_moiety         '(C158 H108 N14 O72 Ti4 Zn32)n'
_symmetry_cell_setting           triclinic
_symmetry_space_group_name_H-M   'P 1'
_symmetry_Int_Tables_number      1
_space_group_name_Hall           'P 1'
loop_
_symmetry_equiv_pos_site_id
_symmetry_equiv_pos_as_xyz
1 x,y,z
_cell_length_a                   20.171(3)
_cell_length_b                   20.171(3)
_cell_length_c                   26.197(5)
_cell_angle_alpha                90
_cell_angle_beta                 90
_cell_angle_gamma                120
_cell_volume                     9230.75
loop_
_atom_site_label
_atom_site_type_symbol
_atom_site_fract_x
_atom_site_fract_y
_atom_site_fract_z
Zn1 Zn 0.0000 -0.0000 0.624052(15)
Zn2 Zn 0.0000 0.0000 0.5000
Zn3 Zn 0.37811(3) 0.56537(3) 0.7500
Ti1 Ti 0.3333 0.6667 0.59294(3)
N1 N 0.0000 0.0000 0.70179(13)
O1 O 0.05838(12) 0.10985(11) 0.61408(6)
O3 O 0.32279(13) 0.49983(12) 0.69112(7)
O4 O 0.35089(11) 0.59946(12) 0.64177(8)
O5 O 0.27247(13) 0.57639(12) 0.55713(7)
O6 O 0.39786(18) 0.66881(18) 0.7500
O7 O 0.4768(2) 0.5640(3) 0.7500
C1 C 0.08139(18) 0.21373(17) 0.56153(8)
C2 C 0.13240(18) 0.26478(17) 0.59568(10)
H1 H 0.1425 0.2464 0.6264
C3 C 0.17036(17) 0.34399(16) 0.58637(9)
C4 C 0.22188(19) 0.39765(17) 0.62097(10)
H2 H 0.2328 0.3800 0.6517
C5 C 0.25726(19) 0.47476(18) 0.61215(11)
C6 C 0.24191(17) 0.50222(18) 0.56535(11)
C7 C 0.19146(17) 0.45082(17) 0.53080(11)
H3 H 0.1805 0.4691 0.5004
C8 C 0.15560(17) 0.37145(16) 0.53956(10)
C9 C 0.1021(2) 0.3160(2) 0.50457(10)
H4 H 0.0917 0.3329 0.4733
C10 C 0.06615(19) 0.24017(17) 0.51484(11)
H5 H 0.0308 0.2045 0.4910
C11 C 0.04160(16) 0.13058(16) 0.57250(9)
C12 C 0.31223(18) 0.52811(18) 0.65036(11)
C13 C 0.3333 0.6667 0.7500
C15 C 0.07951(17) 0.04294(25) 0.72036(9)
H8 H 0.1044 0.0962 0.7076
H9 H 0.1087 0.0189 0.7075
N2 N 0.0000 0.0000 0.79821(13)
C18 C 0.07951(17) 0.04294(25) 0.77964(9)
H14 H 0.1044 0.0962 0.7924
H15 H 0.1087 0.0189 0.7925
O8 O 0.33119(18) 0.72905(25) 0.7500
O9 O 0.27095(25) 0.60214(18) 0.7500
O17 O 0.09013(14) 0.00635(10) 0.54160(6)
Zn6 Zn 0.0000 0.0000 0.375948(15)
O27 O 0.10985(11) 0.05147(16) 0.38592(6)
O28 O 0.08378(10) 0.09013(14) 0.45840(6)
O29 O 0.49983(12) 0.17704(18) 0.30888(7)
O30 O 0.59946(12) 0.24857(16) 0.35823(8)
O31 O 0.57639(12) 0.30392(18) 0.44287(7)
C56 C 0.21373(17) 0.13234(25) 0.43847(8)
C57 C 0.26478(17) 0.13238(25) 0.40432(10)
H33 H 0.2464 0.1039 0.3736
C58 C 0.34399(16) 0.17363(23) 0.41363(9)
C59 C 0.39765(17) 0.17577(25) 0.37903(10)
H34 H 0.3800 0.1472 0.3483
C60 C 0.47476(18) 0.21750(26) 0.38785(11)
C61 C 0.50222(18) 0.26031(25) 0.43465(11)
C62 C 0.45082(17) 0.25936(24) 0.46920(11)
H35 H 0.4691 0.2886 0.4996
C63 C 0.37145(16) 0.21585(23) 0.46044(10)
C64 C 0.3160(2) 0.2139(3) 0.49543(10)
H36 H 0.3329 0.2412 0.5267
C65 C 0.24017(17) 0.17402(25) 0.48516(11)
H37 H 0.2045 0.1737 0.5090
C66 C 0.13058(16) 0.08898(23) 0.42750(9)
C67 C 0.52811(18) 0.21588(25) 0.34964(11)
Zn7 Zn 0.0000 0.0000 0.875948(15)
Zn8 Zn 0.43463(3) 0.81274(4) 0.7500
Zn9 Zn 0.18726(4) 0.62189(3) 0.7500
Zn11 Zn 0.56537(3) 0.18726(4) 0.2500
Ti6 Ti 0.6667 0.3333 0.40706(3)
N3 N 0.0000 0.0000 0.29821(13)
O37 O 0.32279(13) 0.49983(12) 0.80888(7)
O40 O 0.40054(12) 0.75143(16) 0.64177(8)
O41 O 0.24857(16) 0.64911(11) 0.64177(8)
O44 O 0.42361(12) 0.69608(18) 0.55713(7)
O45 O 0.30392(18) 0.72753(13) 0.55713(7)
Zn1_2 Zn 0.0000 1.0000 0.624052(15)
Zn2_2 Zn -0.0000 1.0000 0.5000
N1_2 N 0.0000 1.0000 0.70179(13)
N2_2 N 0.0000 1.0000 0.79821(13)
O16 O 0.05147(16) 0.94162(12) 0.61408(6)
O18 O 0.17704(18) 0.67721(13) 0.69112(7)
O21 O 0.0872(4) 0.5232(2) 0.7500
C32 C 0.13234(25) 0.91861(18) 0.56153(8)
C33 C 0.13238(25) 0.86760(18) 0.59568(10)
H23 H 0.1039 0.8575 0.6264
C34 C 0.17363(23) 0.82964(17) 0.58637(9)
C35 C 0.17577(25) 0.77812(19) 0.62097(10)
H24 H 0.1472 0.7672 0.6517
C36 C 0.21750(26) 0.74274(19) 0.61215(11)
C37 C 0.26031(25) 0.75809(17) 0.56535(11)
C38 C 0.25936(24) 0.80854(17) 0.53080(11)
H25 H 0.2886 0.8195 0.5004
C39 C 0.21585(23) 0.84440(17) 0.53956(10)
C40 C 0.2139(3) 0.8979(2) 0.50457(10)
H26 H 0.2412 0.9083 0.4733
C41 C 0.17402(25) 0.93385(19) 0.51484(11)
H27 H 0.1737 0.9692 0.4910
C42 C 0.08898(23) 0.95840(16) 0.57250(9)
C43 C 0.21588(25) 0.68777(18) 0.65036(11)
Zn6_2 Zn -0.0000 1.0000 0.375948(15)
O23 O 0.00635(10) 0.91622(10) 0.45840(6)
Zn7_2 Zn 0.0000 1.0000 0.875948(15)
N3_2 N -0.0000 1.0000 0.29821(13)
O39 O 0.17704(18) 0.67721(13) 0.80888(7)
Zn1_3 Zn 1.0000 -0.0000 0.624052(15)
Zn2_3 Zn 1.0000 0.0000 0.5000
N1_3 N 1.0000 0.0000 0.70179(13)
O2 O 0.99365(10) 0.08378(10) 0.54160(6)
C16 C 0.95706(25) 0.03657(18) 0.72036(9)
H10 H 0.9038 0.0082 0.7076
H11 H 0.9811 0.0898 0.7075
N2_3 N 1.0000 0.0000 0.79821(13)
C19 C 0.95706(25) 0.03657(18) 0.77964(9)
H16 H 0.9038 0.0082 0.7924
H17 H 0.9811 0.0898 0.7925
Zn6_3 Zn 1.0000 0.0000 0.375948(15)
O32 O 0.94853(16) 0.05838(12) 0.38592(6)
O34 O 0.82296(18) 0.32279(13) 0.30888(7)
O35 O 0.75143(16) 0.35089(11) 0.35823(8)
O36 O 0.69608(18) 0.27247(13) 0.44287(7)
C68 C 0.86766(25) 0.08139(18) 0.43847(8)
C69 C 0.86762(25) 0.13240(18) 0.40432(10)
H38 H 0.8961 0.1425 0.3736
C70 C 0.82637(23) 0.17036(17) 0.41363(9)
C71 C 0.82423(25) 0.22188(19) 0.37903(10)
H39 H 0.8528 0.2328 0.3483
C72 C 0.78250(26) 0.25726(19) 0.38785(11)
C73 C 0.73969(25) 0.24191(17) 0.43465(11)
C74 C 0.74064(24) 0.19146(17) 0.46920(11)
H40 H 0.7114 0.1805 0.4996
C75 C 0.78415(23) 0.15560(17) 0.46044(10)
C76 C 0.7861(3) 0.1021(2) 0.49543(10)
H41 H 0.7588 0.0917 0.5267
C77 C 0.82598(25) 0.06615(19) 0.48516(11)
H42 H 0.8263 0.0308 0.5090
C78 C 0.91102(23) 0.04160(16) 0.42750(9)
C79 C 0.78412(25) 0.31223(18) 0.34964(11)
Zn7_3 Zn 1.0000 0.0000 0.875948(15)
Zn12 Zn 0.81274(4) 0.37811(3) 0.2500
N3_3 N 1.0000 0.0000 0.29821(13)
Zn1_4 Zn 1.0000 1.0000 0.624052(15)
Zn2_4 Zn 1.0000 1.0000 0.5000
N1_4 N 1.0000 1.0000 0.70179(13)
C14 C 0.96343(18) 0.92049(17) 0.72036(9)
H6 H 0.9918 0.8956 0.7076
H7 H 0.9102 0.8913 0.7075
N2_4 N 1.0000 1.0000 0.79821(13)
C17 C 0.96343(18) 0.92049(17) 0.77964(9)
H12 H 0.9918 0.8956 0.7924
H13 H 0.9102 0.8913 0.7925
O10 O 0.89015(11) 0.94853(16) 0.61408(6)
O11 O 0.91622(10) 0.90987(14) 0.54160(6)
O12 O 0.50017(12) 0.82296(18) 0.69112(7)
O15 O 0.4360(3) 0.9128(4) 0.7500
C20 C 0.78627(17) 0.86766(25) 0.56153(8)
C21 C 0.73522(17) 0.86762(25) 0.59568(10)
H18 H 0.7536 0.8961 0.6264
C22 C 0.65601(16) 0.82637(23) 0.58637(9)
C23 C 0.60235(17) 0.82423(25) 0.62097(10)
H19 H 0.6200 0.8528 0.6517
C24 C 0.52524(18) 0.78250(26) 0.61215(11)
C25 C 0.49778(18) 0.73969(25) 0.56535(11)
C26 C 0.54918(17) 0.74064(24) 0.53080(11)
H20 H 0.5309 0.7114 0.5004
C27 C 0.62855(16) 0.78415(23) 0.53956(10)
C28 C 0.6840(2) 0.7861(3) 0.50457(10)
H21 H 0.6671 0.7588 0.4733
C29 C 0.75983(17) 0.82598(25) 0.51484(11)
H22 H 0.7955 0.8263 0.4910
C30 C 0.86942(16) 0.91102(23) 0.57250(9)
C31 C 0.47189(18) 0.78412(25) 0.65036(11)
Zn6_4 Zn 1.0000 1.0000 0.375948(15)
O22 O 0.94162(12) 0.89015(11) 0.38592(6)
O24 O 0.67721(13) 0.50017(12) 0.30888(7)
O25 O 0.64911(11) 0.40054(12) 0.35823(8)
O26 O 0.72753(13) 0.42361(12) 0.44287(7)
C44 C 0.91861(18) 0.78627(17) 0.43847(8)
C45 C 0.86760(18) 0.73522(17) 0.40432(10)
H28 H 0.8575 0.7536 0.3736
C46 C 0.82964(17) 0.65601(16) 0.41363(9)
C47 C 0.77812(19) 0.60235(17) 0.37903(10)
H29 H 0.7672 0.6200 0.3483
C48 C 0.74274(19) 0.52524(18) 0.38785(11)
C49 C 0.75809(17) 0.49778(18) 0.43465(11)
C50 C 0.80854(17) 0.54918(17) 0.46920(11)
H30 H 0.8195 0.5309 0.4996
C51 C 0.84440(17) 0.62855(16) 0.46044(10)
C52 C 0.8979(2) 0.6840(2) 0.49543(10)
H31 H 0.9083 0.6671 0.5267
C53 C 0.93385(19) 0.75983(17) 0.48516(11)
H32 H 0.9692 0.7955 0.5090
C54 C 0.95840(16) 0.86942(16) 0.42750(9)
C55 C 0.68777(18) 0.47189(18) 0.34964(11)
O33 O 0.90987(14) 0.99365(10) 0.45840(6)
Zn7_4 Zn 1.0000 1.0000 0.875948(15)
Zn10 Zn 0.62189(3) 0.43463(3) 0.2500
N3_4 N 1.0000 1.0000 0.29821(13)
O38 O 0.50017(12) 0.82296(18) 0.80888(7)
Zn1_5 Zn -0.0000 0.0000 0.124052(15)
Zn2_5 Zn 0.0000 0.0000 0.0000
N1_5 N -0.0000 -0.0000 0.20179(13)
C14_2 C 0.03657(18) 0.07951(17) 0.22036(9)
H6_2 H 0.0082 0.1044 0.2076
H7_2 H 0.0898 0.1087 0.2075
C17_2 C 0.03657(18) 0.07951(17) 0.27964(9)
H12_2 H 0.0082 0.1044 0.2924
H13_2 H 0.0898 0.1087 0.2925
O10_2 O 0.10985(11) 0.05147(16) 0.11408(6)
O11_2 O 0.08378(10) 0.09013(14) 0.04160(6)
O12_2 O 0.49983(12) 0.17704(18) 0.19112(7)
O13 O 0.59946(12) 0.24857(16) 0.14177(8)
O14 O 0.57639(12) 0.30392(18) 0.05713(7)
O15_2 O 0.5640(3) 0.0872(4) 0.2500
C20_2 C 0.21373(17) 0.13234(25) 0.06153(8)
C21_2 C 0.26478(17) 0.13238(25) 0.09568(10)
H18_2 H 0.2464 0.1039 0.1264
C22_2 C 0.34399(16) 0.17363(23) 0.08637(9)
C23_2 C 0.39765(17) 0.17577(25) 0.12097(10)
H19_2 H 0.3800 0.1472 0.1517
C24_2 C 0.47476(18) 0.21750(26) 0.11215(11)
C25_2 C 0.50222(18) 0.26031(25) 0.06535(11)
C26_2 C 0.45082(17) 0.25936(24) 0.03080(11)
H20_2 H 0.4691 0.2886 0.0004
C27_2 C 0.37145(16) 0.21585(23) 0.03956(10)
C28_2 C 0.3160(2) 0.2139(3) 0.00457(10)
C29_2 C 0.24017(17) 0.17402(25) 0.01484(11)
C30_2 C 0.13058(16) 0.08898(23) 0.07250(9)
C31_2 C 0.52811(18) 0.21588(25) 0.15036(11)
H31_2 H 0.0917 0.3329 0.0267
H32_2 H 0.0308 0.2045 0.0090
Ti3 Ti 0.6667 0.3333 0.09294(3)
O48 O 0.66881(18) 0.27095(25) 0.2500
Zn2_6 Zn 0.0000 0.0000 1.0000
H21_2 H 0.3329 0.2412 0.9733
H22_2 H 0.2045 0.1737 0.9910
Ti2 Ti 0.3333 0.6667 0.90706(3)
O22_2 O 0.05838(12) 0.10985(11) 0.88592(6)
O25_2 O 0.35089(11) 0.59946(12) 0.85823(8)
O26_2 O 0.27247(13) 0.57639(12) 0.94287(7)
C44_2 C 0.08139(18) 0.21373(17) 0.93847(8)
C45_2 C 0.13240(18) 0.26478(17) 0.90432(10)
H28_2 H 0.1425 0.2464 0.8736
C46_2 C 0.17036(17) 0.34399(16) 0.91363(9)
C47_2 C 0.22188(19) 0.39765(17) 0.87903(10)
H29_2 H 0.2328 0.3800 0.8483
C48_2 C 0.25726(19) 0.47476(18) 0.88785(11)
C49_2 C 0.24191(17) 0.50222(18) 0.93465(11)
C50_2 C 0.19146(17) 0.45082(17) 0.96920(11)
H30_2 H 0.1805 0.4691 0.9996
C51_2 C 0.15560(17) 0.37145(16) 0.96044(10)
C52_2 C 0.1021(2) 0.3160(2) 0.99543(10)
C53_2 C 0.06615(19) 0.24017(17) 0.98516(11)
C54_2 C 0.04160(16) 0.13058(16) 0.92750(9)
C55_2 C 0.31223(18) 0.52811(18) 0.84964(11)
O33_2 O 0.09013(14) 0.00635(10) 0.95840(6)
O42 O 0.40054(12) 0.75143(16) 0.85823(8)
O43 O 0.24857(16) 0.64911(11) 0.85823(8)
O46 O 0.42361(12) 0.69608(18) 0.94287(7)
O47 O 0.30392(18) 0.72753(13) 0.94287(7)
Zn1_6 Zn -0.0000 1.0000 0.124052(15)
Zn2_7 Zn 0.0000 1.0000 0.0000
N1_6 N -0.0000 1.0000 0.20179(13)
O2_2 O 0.00635(10) 0.91622(10) 0.04160(6)
C16_2 C 0.04294(25) 0.96343(18) 0.22036(9)
H10_2 H 0.0962 0.9918 0.2076
H11_2 H 0.0189 0.9102 0.2075
C19_2 C 0.04294(25) 0.96343(18) 0.27964(9)
H16_2 H 0.0962 0.9918 0.2924
H17_2 H 0.0189 0.9102 0.2925
H41_2 H 0.2412 0.9083 0.0267
H42_2 H 0.1737 0.9692 0.0090
Zn2_8 Zn 0.0000 1.0000 1.0000
O32_2 O 0.05147(16) 0.94162(12) 0.88592(6)
C68_2 C 0.13234(25) 0.91861(18) 0.93847(8)
C69_2 C 0.13238(25) 0.86760(18) 0.90432(10)
H38_2 H 0.1039 0.8575 0.8736
C70_2 C 0.17363(23) 0.82964(17) 0.91363(9)
C71_2 C 0.17577(25) 0.77812(19) 0.87903(10)
H39_2 H 0.1472 0.7672 0.8483
C72_2 C 0.21750(26) 0.74274(19) 0.88785(11)
C73_2 C 0.26031(25) 0.75809(17) 0.93465(11)
C74_2 C 0.25936(24) 0.80854(17) 0.96920(11)
H40_2 H 0.2886 0.8195 0.9996
C75_2 C 0.21585(23) 0.84440(17) 0.96044(10)
C76_2 C 0.2139(3) 0.8979(2) 0.99543(10)
C77_2 C 0.17402(25) 0.93385(19) 0.98516(11)
C78_2 C 0.08898(23) 0.95840(16) 0.92750(9)
C79_2 C 0.21588(25) 0.68777(18) 0.84964(11)
Zn1_7 Zn 1.0000 0.0000 0.124052(15)
Zn2_9 Zn 1.0000 0.0000 0.0000
N1_7 N 1.0000 -0.0000 0.20179(13)
O16_2 O 0.94853(16) 0.05838(12) 0.11408(6)
O18_2 O 0.82296(18) 0.32279(13) 0.19112(7)
O19 O 0.75143(16) 0.35089(11) 0.14177(8)
O20 O 0.69608(18) 0.27247(13) 0.05713(7)
O21_2 O 0.9128(4) 0.4768(2) 0.2500
C32_2 C 0.86766(25) 0.08139(18) 0.06153(8)
C33_2 C 0.86762(25) 0.13240(18) 0.09568(10)
H23_2 H 0.8961 0.1425 0.1264
C34_2 C 0.82637(23) 0.17036(17) 0.08637(9)
C35_2 C 0.82423(25) 0.22188(19) 0.12097(10)
H24_2 H 0.8528 0.2328 0.1517
C36_2 C 0.78250(26) 0.25726(19) 0.11215(11)
C37_2 C 0.73969(25) 0.24191(17) 0.06535(11)
C38_2 C 0.74064(24) 0.19146(17) 0.03080(11)
H25_2 H 0.7114 0.1805 0.0004
C39_2 C 0.78415(23) 0.15560(17) 0.03956(10)
C40_2 C 0.7861(3) 0.1021(2) 0.00457(10)
C41_2 C 0.82598(25) 0.06615(19) 0.01484(11)
C42_2 C 0.91102(23) 0.04160(16) 0.07250(9)
C43_2 C 0.78412(25) 0.31223(18) 0.15036(11)
O49 O 0.72905(25) 0.39786(18) 0.2500
Zn2_10 Zn 1.0000 0.0000 1.0000
H26_2 H 0.7588 0.0917 0.9733
H27_2 H 0.8263 0.0308 0.9910
O23_2 O 0.99365(10) 0.08378(10) 0.95840(6)
Zn1_8 Zn 1.0000 1.0000 0.124052(15)
Zn2_11 Zn 1.0000 1.0000 0.0000
N1_8 N 1.0000 1.0000 0.20179(13)
O1_2 O 0.94162(12) 0.89015(11) 0.11408(6)
O3_2 O 0.67721(13) 0.50017(12) 0.19112(7)
O4_2 O 0.64911(11) 0.40054(12) 0.14177(8)
O5_2 O 0.72753(13) 0.42361(12) 0.05713(7)
O6_2 O 0.60214(18) 0.33119(18) 0.2500
O7_2 O 0.5232(2) 0.4360(3) 0.2500
C1_2 C 0.91861(18) 0.78627(17) 0.06153(8)
C2_2 C 0.86760(18) 0.73522(17) 0.09568(10)
H1_2 H 0.8575 0.7536 0.1264
C3_2 C 0.82964(17) 0.65601(16) 0.08637(9)
C4_2 C 0.77812(19) 0.60235(17) 0.12097(10)
H2_2 H 0.7672 0.6200 0.1517
C5_2 C 0.74274(19) 0.52524(18) 0.11215(11)
C6_2 C 0.75809(17) 0.49778(18) 0.06535(11)
C7_2 C 0.80854(17) 0.54918(17) 0.03080(11)
H3_2 H 0.8195 0.5309 0.0004
C8_2 C 0.84440(17) 0.62855(16) 0.03956(10)
C9_2 C 0.8979(2) 0.6840(2) 0.00457(10)
C10_2 C 0.93385(19) 0.75983(17) 0.01484(11)
C11_2 C 0.95840(16) 0.86942(16) 0.07250(9)
C12_2 C 0.68777(18) 0.47189(18) 0.15036(11)
C13_2 C 0.6667 0.3333 0.2500
C15_2 C 0.92049(17) 0.95706(25) 0.22036(9)
H8_2 H 0.8956 0.9038 0.2076
H9_2 H 0.8913 0.9811 0.2075
C18_2 C 0.92049(17) 0.95706(25) 0.27964(9)
H14_2 H 0.8956 0.9038 0.2924
H15_2 H 0.8913 0.9811 0.2925
O17_2 O 0.90987(14) 0.99365(10) 0.04160(6)
H36_2 H 0.6671 0.7588 0.0267
H37_2 H 0.7955 0.8263 0.0090
Zn2_12 Zn 1.0000 1.0000 1.0000
H4_2 H 0.9083 0.6671 0.9733
H5_2 H 0.9692 0.7955 0.9910
O27_2 O 0.89015(11) 0.94853(16) 0.88592(6)
O28_2 O 0.91622(10) 0.90987(14) 0.95840(6)
C56_2 C 0.78627(17) 0.86766(25) 0.93847(8)
C57_2 C 0.73522(17) 0.86762(25) 0.90432(10)
H33_2 H 0.7536 0.8961 0.8736
C58_2 C 0.65601(16) 0.82637(23) 0.91363(9)
C59_2 C 0.60235(17) 0.82423(25) 0.87903(10)
H34_2 H 0.6200 0.8528 0.8483
C60_2 C 0.52524(18) 0.78250(26) 0.88785(11)
C61_2 C 0.49778(18) 0.73969(25) 0.93465(11)
C62_2 C 0.54918(17) 0.74064(24) 0.96920(11)
H35_2 H 0.5309 0.7114 0.9996
C63_2 C 0.62855(16) 0.78415(23) 0.96044(10)
C64_2 C 0.6840(2) 0.7861(3) 0.99543(10)
C65_2 C 0.75983(17) 0.82598(25) 0.98516(11)
C66_2 C 0.86942(16) 0.91102(23) 0.92750(9)
C67_2 C 0.47189(18) 0.78412(25) 0.84964(11)
loop_
_geom_bond_atom_site_label_1
_geom_bond_atom_site_label_2
_geom_bond_site_symmetry_1
_geom_bond_site_symmetry_2
Zn1 N1 1_555 1_555
Zn3 O3 1_555 1_555
Ti1 O4 1_555 1_555
O1 Zn1 1_555 1_555
O3 C12 1_555 1_555
O4 C12 1_555 1_555
O5 Ti1 1_555 1_555
O6 Zn3 1_555 1_555
O7 Zn3 1_555 1_555
C1 C2 1_555 1_555
C2 H1 1_555 1_555
C3 C2 1_555 1_555
C4 C3 1_555 1_555
H2 C4 1_555 1_555
C5 C4 1_555 1_555
C6 O5 1_555 1_555
C7 C6 1_555 1_555
H3 C7 1_555 1_555
C8 C3 1_555 1_555
C9 C8 1_555 1_555
H4 C9 1_555 1_555
C10 C1 1_555 1_555
H5 C10 1_555 1_555
C11 O1 1_555 1_555
C12 C5 1_555 1_555
C13 O6 1_555 1_555
C15 N1 1_555 1_555
H8 C15 1_555 1_555
H9 C15 1_555 1_555
C18 C15 1_555 1_555
H14 C18 1_555 1_555
H15 C18 1_555 1_555
O8 C13 1_555 1_555
O9 C13 1_555 1_555
O17 Zn2 1_555 1_555
O27 Zn6 1_555 1_555
O28 Zn2 1_555 1_555
O29 C67 1_555 1_555
O30 C67 1_555 1_555
O31 C61 1_555 1_555
C56 C57 1_555 1_555
C57 H33 1_555 1_555
C58 C57 1_555 1_555
C59 C58 1_555 1_555
H34 C59 1_555 1_555
C60 C59 1_555 1_555
C61 C60 1_555 1_555
C62 C61 1_555 1_555
H35 C62 1_555 1_555
C63 C58 1_555 1_555
C64 C63 1_555 1_555
H36 C64 1_555 1_555
C65 C56 1_555 1_555
H37 C65 1_555 1_555
C66 O27 1_555 1_555
C67 C60 1_555 1_555
Zn7 N2 1_555 1_555
Zn8 O8 1_555 1_555
Zn9 O9 1_555 1_555
Zn11 O29 1_555 1_555
Ti6 O30 1_555 1_555
N3 Zn6 1_555 1_555
O37 Zn3 1_555 1_555
O40 Ti1 1_555 1_555
O41 Ti1 1_555 1_555
O44 Ti1 1_555 1_555
O45 Ti1 1_555 1_555
C1 C11 1_555 1_555
C5 C6 1_555 1_555
C7 C8 1_555 1_555
C9 C10 1_555 1_555
N2 C18 1_555 1_555
O28 C66 1_555 1_555
O31 Ti6 1_555 1_555
C56 C66 1_555 1_555
C62 C63 1_555 1_555
C64 C65 1_555 1_555
Zn1_2 N1_2 1_555 1_555
Zn9 O18 1_555 1_555
O16 Zn1_2 1_555 1_555
O18 C43 1_555 1_555
O41 C43 1_555 1_555
O45 C37 1_555 1_555
O21 Zn9 1_555 1_555
C32 C33 1_555 1_555
C33 H23 1_555 1_555
C34 C33 1_555 1_555
C35 C34 1_555 1_555
H24 C35 1_555 1_555
C36 C35 1_555 1_555
C37 C36 1_555 1_555
C38 C37 1_555 1_555
H25 C38 1_555 1_555
C39 C34 1_555 1_555
C40 C39 1_555 1_555
H26 C40 1_555 1_555
C41 C32 1_555 1_555
H27 C41 1_555 1_555
C42 O16 1_555 1_555
C43 C36 1_555 1_555
O23 Zn2_2 1_555 1_555
Zn7_2 N2_2 1_555 1_555
N3_2 Zn6_2 1_555 1_555
O39 Zn9 1_555 1_555
C32 C42 1_555 1_555
C38 C39 1_555 1_555
C40 C41 1_555 1_555
Zn1_3 N1_3 1_555 1_555
Zn2_3 O2 1_555 1_555
C16 N1_3 1_555 1_555
H10 C16 1_555 1_555
H11 C16 1_555 1_555
C19 C16 1_555 1_555
H16 C19 1_555 1_555
H17 C19 1_555 1_555
O32 Zn6_3 1_555 1_555
O34 C79 1_555 1_555
O35 C79 1_555 1_555
O36 C73 1_555 1_555
C68 C69 1_555 1_555
C69 H38 1_555 1_555
C70 C69 1_555 1_555
C71 C70 1_555 1_555
H39 C71 1_555 1_555
C72 C71 1_555 1_555
C73 C72 1_555 1_555
C74 C73 1_555 1_555
H40 C74 1_555 1_555
C75 C70 1_555 1_555
C76 C75 1_555 1_555
H41 C76 1_555 1_555
C77 C68 1_555 1_555
H42 C77 1_555 1_555
C78 O32 1_555 1_555
C79 C72 1_555 1_555
Zn7_3 N2_3 1_555 1_555
Zn12 O34 1_555 1_555
Ti6 O35 1_555 1_555
N3_3 Zn6_3 1_555 1_555
N2_3 C19 1_555 1_555
O36 Ti6 1_555 1_555
C68 C78 1_555 1_555
C74 C75 1_555 1_555
C76 C77 1_555 1_555
Zn1_4 N1_4 1_555 1_555
N1_4 C14 1_555 1_555
C14 H6 1_555 1_555
H7 C14 1_555 1_555
N2_4 C17 1_555 1_555
C17 C14 1_555 1_555
H12 C17 1_555 1_555
H13 C17 1_555 1_555
Zn8 O12 1_555 1_555
O10 Zn1_4 1_555 1_555
O11 Zn2_4 1_555 1_555
O12 C31 1_555 1_555
O40 C31 1_555 1_555
O44 C25 1_555 1_555
O15 Zn8 1_555 1_555
C20 C21 1_555 1_555
C21 H18 1_555 1_555
C22 C21 1_555 1_555
C23 C22 1_555 1_555
H19 C23 1_555 1_555
C24 C23 1_555 1_555
C25 C24 1_555 1_555
C26 C25 1_555 1_555
H20 C26 1_555 1_555
C27 C22 1_555 1_555
C28 C27 1_555 1_555
H21 C28 1_555 1_555
C29 C20 1_555 1_555
H22 C29 1_555 1_555
C30 O10 1_555 1_555
C31 C24 1_555 1_555
Zn6_4 O22 1_555 1_555
Ti6 O25 1_555 1_555
O22 C54 1_555 1_555
O24 C55 1_555 1_555
O25 C55 1_555 1_555
O26 Ti6 1_555 1_555
C44 C45 1_555 1_555
C45 H28 1_555 1_555
C46 C45 1_555 1_555
C47 C46 1_555 1_555
H29 C47 1_555 1_555
C48 C47 1_555 1_555
C49 O26 1_555 1_555
C50 C49 1_555 1_555
H30 C50 1_555 1_555
C51 C46 1_555 1_555
C52 C51 1_555 1_555
H31 C52 1_555 1_555
C53 C44 1_555 1_555
H32 C53 1_555 1_555
C55 C48 1_555 1_555
O33 Zn2_4 1_555 1_555
Zn7_4 N2_4 1_555 1_555
Zn10 O24 1_555 1_555
N3_4 Zn6_4 1_555 1_555
O38 Zn8 1_555 1_555
O11 C30 1_555 1_555
C20 C30 1_555 1_555
C26 C27 1_555 1_555
C28 C29 1_555 1_555
C44 C54 1_555 1_555
C48 C49 1_555 1_555
C50 C51 1_555 1_555
C52 C53 1_555 1_555
Zn1_5 N1_5 1_555 1_555
N1_5 C14_2 1_555 1_555
C14_2 H6_2 1_555 1_555
H7_2 C14_2 1_555 1_555
N3 C17_2 1_555 1_555
C17_2 C14_2 1_555 1_555
H12_2 C17_2 1_555 1_555
H13_2 C17_2 1_555 1_555
Zn11 O12_2 1_555 1_555
O10_2 Zn1_5 1_555 1_555
O11_2 Zn2_5 1_555 1_555
O12_2 C31_2 1_555 1_555
O13 C31_2 1_555 1_555
O14 C25_2 1_555 1_555
O15_2 Zn11 1_555 1_555
C20_2 C21_2 1_555 1_555
C21_2 H18_2 1_555 1_555
C22_2 C21_2 1_555 1_555
C23_2 C22_2 1_555 1_555
H19_2 C23_2 1_555 1_555
C24_2 C23_2 1_555 1_555
C25_2 C24_2 1_555 1_555
C26_2 C25_2 1_555 1_555
H20_2 C26_2 1_555 1_555
C27_2 C22_2 1_555 1_555
C28_2 C27_2 1_555 1_555
C29_2 C20_2 1_555 1_555
C30_2 O10_2 1_555 1_555
C31_2 C24_2 1_555 1_555
Ti3 O13 1_555 1_555
O48 Zn11 1_555 1_555
O11_2 C30_2 1_555 1_555
O14 Ti3 1_555 1_555
C20_2 C30_2 1_555 1_555
C26_2 C27_2 1_555 1_555
C28_2 C29_2 1_555 1_555
Zn7 O22_2 1_555 1_555
Ti2 O25_2 1_555 1_555
O22_2 C54_2 1_555 1_555
O37 C55_2 1_555 1_555
O25_2 C55_2 1_555 1_555
O26_2 Ti2 1_555 1_555
C44_2 C45_2 1_555 1_555
C45_2 H28_2 1_555 1_555
C46_2 C45_2 1_555 1_555
C47_2 C46_2 1_555 1_555
H29_2 C47_2 1_555 1_555
C48_2 C47_2 1_555 1_555
C49_2 O26_2 1_555 1_555
C50_2 C49_2 1_555 1_555
H30_2 C50_2 1_555 1_555
C51_2 C46_2 1_555 1_555
C52_2 C51_2 1_555 1_555
C53_2 C44_2 1_555 1_555
C55_2 C48_2 1_555 1_555
O33_2 Zn2_6 1_555 1_555
O42 Ti2 1_555 1_555
O43 Ti2 1_555 1_555
O46 Ti2 1_555 1_555
O47 Ti2 1_555 1_555
C44_2 C54_2 1_555 1_555
C48_2 C49_2 1_555 1_555
C50_2 C51_2 1_555 1_555
C52_2 C53_2 1_555 1_555
Zn1_6 N1_6 1_555 1_555
Zn2_7 O2_2 1_555 1_555
C16_2 N1_6 1_555 1_555
H10_2 C16_2 1_555 1_555
H11_2 C16_2 1_555 1_555
C19_2 C16_2 1_555 1_555
H16_2 C19_2 1_555 1_555
H17_2 C19_2 1_555 1_555
N3_2 C19_2 1_555 1_555
O32_2 Zn7_2 1_555 1_555
O39 C79_2 1_555 1_555
O43 C79_2 1_555 1_555
O47 C73_2 1_555 1_555
C68_2 C69_2 1_555 1_555
C69_2 H38_2 1_555 1_555
C70_2 C69_2 1_555 1_555
C71_2 C70_2 1_555 1_555
H39_2 C71_2 1_555 1_555
C72_2 C71_2 1_555 1_555
C73_2 C72_2 1_555 1_555
C74_2 C73_2 1_555 1_555
H40_2 C74_2 1_555 1_555
C75_2 C70_2 1_555 1_555
C76_2 C75_2 1_555 1_555
C77_2 C68_2 1_555 1_555
C78_2 O32_2 1_555 1_555
C79_2 C72_2 1_555 1_555
C68_2 C78_2 1_555 1_555
C74_2 C75_2 1_555 1_555
C76_2 C77_2 1_555 1_555
Zn1_7 N1_7 1_555 1_555
Zn12 O18_2 1_555 1_555
O16_2 Zn1_7 1_555 1_555
O18_2 C43_2 1_555 1_555
O19 C43_2 1_555 1_555
O20 C37_2 1_555 1_555
O21_2 Zn12 1_555 1_555
C32_2 C33_2 1_555 1_555
C33_2 H23_2 1_555 1_555
C34_2 C33_2 1_555 1_555
C35_2 C34_2 1_555 1_555
H24_2 C35_2 1_555 1_555
C36_2 C35_2 1_555 1_555
C37_2 C36_2 1_555 1_555
C38_2 C37_2 1_555 1_555
H25_2 C38_2 1_555 1_555
C39_2 C34_2 1_555 1_555
C40_2 C39_2 1_555 1_555
C41_2 C32_2 1_555 1_555
C42_2 O16_2 1_555 1_555
C43_2 C36_2 1_555 1_555
Ti3 O19 1_555 1_555
O49 Zn12 1_555 1_555
O20 Ti3 1_555 1_555
C32_2 C42_2 1_555 1_555
C38_2 C39_2 1_555 1_555
C40_2 C41_2 1_555 1_555
O23_2 Zn2_10 1_555 1_555
Zn1_8 N1_8 1_555 1_555
Zn10 O3_2 1_555 1_555
Ti3 O4_2 1_555 1_555
O1_2 Zn1_8 1_555 1_555
O3_2 C12_2 1_555 1_555
O4_2 C12_2 1_555 1_555
O5_2 Ti3 1_555 1_555
O6_2 Zn10 1_555 1_555
O7_2 Zn10 1_555 1_555
C1_2 C2_2 1_555 1_555
C2_2 H1_2 1_555 1_555
C3_2 C2_2 1_555 1_555
C4_2 C3_2 1_555 1_555
H2_2 C4_2 1_555 1_555
C5_2 C4_2 1_555 1_555
C6_2 O5_2 1_555 1_555
C7_2 C6_2 1_555 1_555
H3_2 C7_2 1_555 1_555
C8_2 C3_2 1_555 1_555
C9_2 C8_2 1_555 1_555
C10_2 C1_2 1_555 1_555
C11_2 O1_2 1_555 1_555
C12_2 C5_2 1_555 1_555
C13_2 O6_2 1_555 1_555
C15_2 N1_8 1_555 1_555
H8_2 C15_2 1_555 1_555
H9_2 C15_2 1_555 1_555
C18_2 C15_2 1_555 1_555
H14_2 C18_2 1_555 1_555
H15_2 C18_2 1_555 1_555
O48 C13_2 1_555 1_555
O49 C13_2 1_555 1_555
O17_2 Zn2_11 1_555 1_555
C1_2 C11_2 1_555 1_555
C5_2 C6_2 1_555 1_555
C7_2 C8_2 1_555 1_555
C9_2 C10_2 1_555 1_555
N3_4 C18_2 1_555 1_555
O27_2 Zn7_4 1_555 1_555
O28_2 Zn2_12 1_555 1_555
O38 C67_2 1_555 1_555
O42 C67_2 1_555 1_555
O46 C61_2 1_555 1_555
C56_2 C57_2 1_555 1_555
C57_2 H33_2 1_555 1_555
C58_2 C57_2 1_555 1_555
C59_2 C58_2 1_555 1_555
H34_2 C59_2 1_555 1_555
C60_2 C59_2 1_555 1_555
C61_2 C60_2 1_555 1_555
C62_2 C61_2 1_555 1_555
H35_2 C62_2 1_555 1_555
C63_2 C58_2 1_555 1_555
C64_2 C63_2 1_555 1_555
C65_2 C56_2 1_555 1_555
C66_2 O27_2 1_555 1_555
C67_2 C60_2 1_555 1_555
O28_2 C66_2 1_555 1_555
C56_2 C66_2 1_555 1_555
C62_2 C63_2 1_555 1_555
C64_2 C65_2 1_555 1_555

#END
