
###############################################################################
#
# This file contains modified crystal structure data generated from the
# MOF subset of the Cambridge Structural Database (CSD) v543 
# hosted by the Cambridge Crystallographic Data Centre (CCDC).
#
# This work is licensed under the Creative Commons
# Attribution-NonCommercial-ShareAlike 4.0 International License.
# To view a copy of this license, visit
# http://creativecommons.org/licenses/by-nc-sa/4.0/
# or send a letter to
# Creative Commons, PO Box 1866, Mountain View, CA 94042, USA.
#
# CIF created using the CSD Python API on 29 September 2022
# The structure has been converted into the P1 space group
# The structure has a 3D framework
# The original CSD entry LIQFEY is in the triclinic crystal system
# The framework has been calculated to contain at least 10.0% void space
# The void calculation uses a probe of radius 1.32A, grid spacing 0.4
# The framework is charged, counterions have been retained in the structure
#
###############################################################################

data_LIQFEY
_chemical_formula_moiety         '(C36 H12 Cd6 O14 2-)n'
_symmetry_cell_setting           triclinic
_symmetry_space_group_name_H-M   'P 1'
_symmetry_Int_Tables_number      1
_space_group_name_Hall           'P 1'
loop_
_symmetry_equiv_pos_site_id
_symmetry_equiv_pos_as_xyz
1 x,y,z
_cell_length_a                   9.899(2)
_cell_length_b                   10.362(2)
_cell_length_c                   13.180(3)
_cell_angle_alpha                68.87(3)
_cell_angle_beta                 70.65(3)
_cell_angle_gamma                80.77(3)
_cell_volume                     1188.5
loop_
_atom_site_label
_atom_site_type_symbol
_atom_site_fract_x
_atom_site_fract_y
_atom_site_fract_z
Cd7 Cd -0.0000 0.0000 0.0000
Cd7_2 Cd -0.0000 -0.0000 1.0000
Cd10 Cd 0.01405(4) 0.30815(3) 0.76365(3)
Cd7_3 Cd -0.0000 1.0000 0.0000
Cd7_4 Cd -0.0000 1.0000 1.0000
O5 O 0.0876(5) 0.1537(4) 0.6774(3)
C4 C 0.5214(5) 0.1235(5) 0.0695(4)
H2 H 0.5823 0.0936 0.1150
C5 C 0.3760(5) 0.1050(5) 0.1188(4)
C6 C 0.2865(5) 0.1483(5) 0.0492(4)
H3 H 0.1882 0.1379 0.0814
C9 C 0.3159(6) 0.0409(6) 0.2395(4)
H6 H 0.1881 0.0919 0.5028
C17 C 0.0756(6) 0.0271(6) 0.7264(4)
Cd7_5 Cd 1.0000 0.0000 0.0000
O1 O 0.1164(4) 0.2049(4) 0.9058(3)
O2 O 0.2850(4) 0.3196(5) 0.7581(3)
O3 O 0.7795(4) 0.2848(5) 0.8005(4)
O4 O 0.8129(4) 0.1510(5) 0.9651(4)
C1 C 0.3428(5) 0.2066(5) 0.9324(4)
C2 C 0.4871(5) 0.2290(5) 0.8838(4)
H1 H 0.5237 0.2721 0.8056
C3 C 0.5778(5) 0.1867(5) 0.9521(4)
C7 C 0.2439(5) 0.2473(5) 0.8585(4)
C8 C 0.7339(5) 0.2081(6) 0.9019(5)
O15 O 0.0081(5) 0.4714(4) 0.2251(3)
Cd7_6 Cd 1.0000 -0.0000 1.0000
O27 O 0.0778(5) 0.5070(4) 0.6058(3)
O6 O 0.0449(4) 0.9638(4) 0.8318(3)
C10 C 0.2587(6) 0.9867(6) 0.3393(4)
C11 C 0.1021(5) 0.9420(5) 0.6484(4)
C12 C 0.0627(6) 0.8055(5) 0.6922(4)
H4 H 0.0198 0.7655 0.7700
C13 C 0.0872(5) 0.7281(5) 0.6200(4)
C14 C 0.1509(6) 0.7871(5) 0.5034(4)
H5 H 0.1668 0.7355 0.4552
C15 C 0.1907(6) 0.9244(5) 0.4594(4)
C16 C 0.1638(6) 0.9997(5) 0.5326(4)
C18 C 0.0507(6) 0.5786(5) 0.6698(4)
Cd7_7 Cd 1.0000 1.0000 0.0000
O18 O 0.2205(4) 0.7152(5) 0.1995(4)
O20 O 0.1871(4) 0.8490(5) 0.0349(4)
Cd7_8 Cd 1.0000 1.0000 1.0000
O24 O 0.9551(4) 0.0362(4) 0.1682(3)
O16 O 0.9222(5) 0.4930(4) 0.3942(3)
C28 C 0.7413(6) 0.0133(6) 0.6607(4)
C29 C 0.8979(5) 0.0580(5) 0.3516(4)
C30 C 0.9373(6) 0.1945(5) 0.3078(4)
H10 H 0.9802 0.2345 0.2300
C31 C 0.9128(5) 0.2719(5) 0.3800(4)
C32 C 0.8491(6) 0.2129(5) 0.4966(4)
H11 H 0.8332 0.2645 0.5448
C33 C 0.8093(6) 0.0756(5) 0.5406(4)
C34 C 0.8362(6) 0.0003(5) 0.4674(4)
C36 C 0.9493(6) 0.4214(5) 0.3302(4)
Cd13 Cd 0.98595(4) 0.69185(3) 0.23635(3)
O25 O 0.9919(5) 0.5286(4) 0.7749(3)
O9 O 0.8836(4) 0.7951(4) 0.0942(3)
O10 O 0.7150(4) 0.6804(5) 0.2419(3)
C19 C 0.6572(5) 0.7934(5) 0.0676(4)
C20 C 0.5129(5) 0.7710(5) 0.1162(4)
H7 H 0.4763 0.7279 0.1944
C21 C 0.4222(5) 0.8133(5) 0.0479(4)
C25 C 0.7561(5) 0.7527(5) 0.1415(4)
C26 C 0.2661(5) 0.7919(6) 0.0981(5)
O22 O 0.9124(5) 0.8463(4) 0.3226(3)
C22 C 0.4786(5) 0.8765(5) 0.9305(4)
H8 H 0.4177 0.9064 0.8850
C23 C 0.6240(5) 0.8950(5) 0.8812(4)
C24 C 0.7135(5) 0.8517(5) 0.9508(4)
H9 H 0.8118 0.8621 0.9186
C27 C 0.6841(6) 0.9591(6) 0.7605(4)
H12 H 0.8119 0.9081 0.4972
C35 C 0.9244(6) 0.9729(6) 0.2736(4)
loop_
_geom_bond_atom_site_label_1
_geom_bond_atom_site_label_2
_geom_bond_site_symmetry_1
_geom_bond_site_symmetry_2
O5 C17 1_555 1_555
H2 C4 1_555 1_555
C5 C4 1_555 1_555
H3 C6 1_555 1_555
C9 C5 1_555 1_555
Cd10 O5 1_555 1_555
C5 C6 1_555 1_555
Cd7_2 O1 1_555 1_555
Cd10 O1 1_555 1_555
O1 C7 1_555 1_555
O2 Cd10 1_555 1_555
O3 C8 1_555 1_555
O4 C8 1_555 1_555
C1 C2 1_555 1_555
C2 H1 1_555 1_555
C3 C2 1_555 1_555
C7 O2 1_555 1_555
C8 C3 1_555 1_555
Cd7_6 O4 1_555 1_555
O27 Cd10 1_555 1_555
C1 C7 1_555 1_555
O27 C18 1_555 1_555
C11 C12 1_555 1_555
C12 H4 1_555 1_555
C13 C12 1_555 1_555
C14 C13 1_555 1_555
H5 C14 1_555 1_555
C15 C10 1_555 1_555
C16 C11 1_555 1_555
C18 C13 1_555 1_555
Cd7_4 O6 1_555 1_555
O20 Cd7_3 1_555 1_555
C14 C15 1_555 1_555
C15 C16 1_555 1_555
O24 Cd7_5 1_555 1_555
O16 C36 1_555 1_555
C29 C30 1_555 1_555
C30 H10 1_555 1_555
C31 C30 1_555 1_555
C32 C31 1_555 1_555
H11 C32 1_555 1_555
C33 C28 1_555 1_555
C34 C29 1_555 1_555
C36 C31 1_555 1_555
O16 Cd13 1_555 1_555
C32 C33 1_555 1_555
C33 C34 1_555 1_555
Cd13 O9 1_555 1_555
O9 Cd7_7 1_555 1_555
O10 Cd13 1_555 1_555
O18 C26 1_555 1_555
O20 C26 1_555 1_555
C19 C20 1_555 1_555
C20 H7 1_555 1_555
C21 C20 1_555 1_555
C25 O9 1_555 1_555
C26 C21 1_555 1_555
O22 Cd13 1_555 1_555
O10 C25 1_555 1_555
C19 C25 1_555 1_555
O22 C35 1_555 1_555
H8 C22 1_555 1_555
C23 C22 1_555 1_555
H9 C24 1_555 1_555
C27 C23 1_555 1_555
C23 C24 1_555 1_555

#END
