
###############################################################################
#
# This file contains modified crystal structure data generated from the
# MOF subset of the Cambridge Structural Database (CSD) v543 
# hosted by the Cambridge Crystallographic Data Centre (CCDC).
#
# This work is licensed under the Creative Commons
# Attribution-NonCommercial-ShareAlike 4.0 International License.
# To view a copy of this license, visit
# http://creativecommons.org/licenses/by-nc-sa/4.0/
# or send a letter to
# Creative Commons, PO Box 1866, Mountain View, CA 94042, USA.
#
# CIF created using the CSD Python API on 29 September 2022
# The structure has been converted into the P1 space group
# The structure has a 3D framework
# The original CSD entry LIQJEC is in the monoclinic crystal system
# The framework has been calculated to contain at least 10.0% void space
# The void calculation uses a probe of radius 1.32A, grid spacing 0.4
#
###############################################################################

data_LIQJEC
_chemical_formula_moiety         '(C288 H192 I48 N94 Zn24)n'
_symmetry_cell_setting           triclinic
_symmetry_space_group_name_H-M   'P 1'
_symmetry_Int_Tables_number      1
_space_group_name_Hall           'P 1'
loop_
_symmetry_equiv_pos_site_id
_symmetry_equiv_pos_as_xyz
1 x,y,z
_cell_length_a                   35.209(5)
_cell_length_b                   14.870(2)
_cell_length_c                   30.659(5)
_cell_angle_alpha                90
_cell_angle_beta                 101.402(2)
_cell_angle_gamma                90
_cell_volume                     15735
loop_
_atom_site_label
_atom_site_type_symbol
_atom_site_fract_x
_atom_site_fract_y
_atom_site_fract_z
I3 I 0.56809(14) 0.0945(4) 0.06387(15)
N5 N 0.5472(8) 0.0317(16) 0.9475(10)
C9 C 0.5255(9) 0.0756(19) 0.9112(14)
H5 H 0.5336 0.1313 0.9009
C10 C 0.4918(9) 0.0350(16) 0.8908(13)
H6 H 0.4713 0.0716 0.8758
N6 N 0.3371(7) 0.0545(15) 0.6984(9)
C17 C 0.3878(9) 0.0527(15) 0.7562(9)
H11 H 0.4088 0.0844 0.7740
C18 C 0.3668(9) 0.0958(19) 0.7200(9)
H12 H 0.3739 0.1537 0.7113
Zn2 Zn 0.59098(17) 0.0985(3) 0.9918(2)
I4 I 0.60839(16) 0.2389(2) 0.9549(2)
I5 I 0.23778(10) 0.1547(2) 0.68856(11)
Zn3 Zn 0.29451(14) 0.1264(3) 0.65153(14)
I6 I 0.33106(11) 0.23973(18) 0.61435(10)
N7 N 0.2789(7) 0.0217(18) 0.6027(9)
H13 H 0.3321 0.0259 0.5902
N14 N 0.6378(8) 0.0110(16) 0.9924(8)
H24 H 0.6399 0.0170 0.9280
I1 I 0.34282(13) 0.3359(2) 0.75273(13)
Zn1 Zn 0.38896(19) 0.3574(3) 0.8273(2)
I2 I 0.44986(12) 0.2673(2) 0.85063(13)
N1 N 0.3990(8) 0.4970(16) 0.8326(9)
C1 C 0.4279(9) 0.5314(15) 0.8635(10)
H1 H 0.4414 0.4931 0.8861
C2 C 0.4385(8) 0.6208(15) 0.8632(11)
H2 H 0.4628 0.6416 0.8792
C3 C 0.4122(8) 0.6779(13) 0.8388(10)
C4 C 0.3815(9) 0.6450(15) 0.8073(10)
H3 H 0.3643 0.6842 0.7884
C5 C 0.3771(8) 0.5536(15) 0.8045(10)
H4 H 0.3575 0.5293 0.7817
C6 C 0.4190(9) 0.7764(13) 0.8351(10)
N2 N 0.4495(9) 0.8132(14) 0.8636(9)
C7 C 0.4541(10) 0.9007(14) 0.8589(10)
N3 N 0.4368(8) 0.9511(16) 0.8250(8)
C8 C 0.4040(10) 0.9105(14) 0.8044(11)
N4 N 0.3944(7) 0.8237(14) 0.8046(8)
C11 C 0.4864(10) 0.9431(16) 0.8912(12)
C12 C 0.5151(10) 0.896(2) 0.9218(12)
H7 H 0.5147 0.8319 0.9225
C13 C 0.5434(10) 0.9416(18) 0.9504(12)
H8 H 0.5607 0.9094 0.9727
C14 C 0.3295(9) 0.9717(16) 0.7108(10)
H9 H 0.3074 0.9437 0.6933
C15 C 0.3492(8) 0.9217(18) 0.7451(10)
H10 H 0.3420 0.8627 0.7520
C16 C 0.3807(8) 0.9664(14) 0.7686(9)
C19 C 0.3085(9) 0.9929(19) 0.5854(10)
C20 C 0.3049(11) 0.9156(19) 0.5607(11)
H14 H 0.3263 0.8943 0.5491
C21 C 0.2704(11) 0.8683(18) 0.5524(12)
C22 C 0.2431(11) 0.888(2) 0.5795(12)
H15 H 0.2215 0.8501 0.5801
C23 C 0.2496(8) 0.9644(17) 0.6048(11)
H16 H 0.2328 0.9777 0.6247
C24 C 0.2659(8) 0.7848(17) 0.5254(10)
N8 N 0.2886(8) 0.7813(17) 0.4957(9)
C25 C 0.2835(9) 0.706(2) 0.4699(11)
N9 N 0.2550(8) 0.6487(18) 0.4711(10)
C26 C 0.2309(8) 0.664(2) 0.4985(11)
N10 N 0.2355(7) 0.7335(16) 0.5288(8)
N11 N 0.3571(10) 0.667(2) 0.3751(10)
C27 C 0.3236(10) 0.626(3) 0.3755(12)
H17 H 0.3182 0.5749 0.3563
C28 C 0.2954(9) 0.646(2) 0.3997(11)
H18 H 0.2691 0.6282 0.3912
C29 C 0.3095(9) 0.695(2) 0.4377(10)
C30 C 0.3435(10) 0.742(2) 0.4415(12)
H19 H 0.3509 0.7886 0.4628
C31 C 0.3661(10) 0.716(3) 0.4119(11)
H20 H 0.3922 0.7362 0.4187
N12 N 0.1378(8) 0.4890(16) 0.4924(8)
C32 C 0.1521(9) 0.5294(18) 0.5312(8)
H21 H 0.1418 0.5151 0.5568
C33 C 0.1818(9) 0.5914(18) 0.5346(9)
H22 H 0.1904 0.6247 0.5611
C34 C 0.1976(9) 0.6025(19) 0.4992(10)
C35 C 0.1832(9) 0.564(2) 0.4583(8)
H23 H 0.1945 0.5753 0.4331
C36 C 0.1518(9) 0.508(2) 0.4558(9)
H24_2 H 0.1399 0.4830 0.4280
Zn4 Zn 0.38896(19) 0.6426(3) 0.3273(2)
Zn5 Zn 0.09098(17) 0.4015(3) 0.4918(2)
N13 N 0.3571(10) 0.333(2) 0.8751(10)
I1_2 I 0.34282(13) 0.6641(2) 0.25273(13)
I2_2 I 0.44986(12) 0.7327(2) 0.35063(13)
N1_2 N 0.3990(8) 0.5030(16) 0.3326(9)
C1_2 C 0.4279(9) 0.4686(15) 0.3635(10)
H1_2 H 0.4414 0.5069 0.3861
C2_2 C 0.4385(8) 0.3792(15) 0.3632(11)
H2_2 H 0.4628 0.3584 0.3792
C3_2 C 0.4122(8) 0.3221(13) 0.3388(10)
C4_2 C 0.3815(9) 0.3550(15) 0.3073(10)
H3_2 H 0.3643 0.3158 0.2884
C5_2 C 0.3771(8) 0.4464(15) 0.3045(10)
H4_2 H 0.3575 0.4707 0.2817
C6_2 C 0.4190(9) 0.2236(13) 0.3351(10)
N2_2 N 0.4495(9) 0.1868(14) 0.3636(9)
C7_2 C 0.4541(10) 0.0993(14) 0.3589(10)
N3_2 N 0.4368(8) 0.0489(16) 0.3250(8)
C8_2 C 0.4040(10) 0.0895(14) 0.3044(11)
N4_2 N 0.3944(7) 0.1763(14) 0.3046(8)
C11_2 C 0.4864(10) 0.0569(16) 0.3912(12)
C12_2 C 0.5151(10) 0.104(2) 0.4218(12)
H7_2 H 0.5147 0.1681 0.4225
C13_2 C 0.5434(10) 0.0584(18) 0.4504(12)
H8_2 H 0.5607 0.0906 0.4727
C14_2 C 0.3295(9) 0.0283(16) 0.2108(10)
H9_2 H 0.3074 0.0563 0.1933
C15_2 C 0.3492(8) 0.0783(18) 0.2451(10)
H10_2 H 0.3420 0.1373 0.2520
C16_2 C 0.3807(8) 0.0336(14) 0.2686(9)
C19_2 C 0.3085(9) 0.0071(19) 0.0854(10)
C20_2 C 0.3049(11) 0.0844(19) 0.0607(11)
H14_2 H 0.3263 0.1057 0.0491
C21_2 C 0.2704(11) 0.1317(18) 0.0524(12)
C22_2 C 0.2431(11) 0.112(2) 0.0795(12)
H15_2 H 0.2215 0.1499 0.0801
C23_2 C 0.2496(8) 0.0356(17) 0.1048(11)
H16_2 H 0.2328 0.0223 0.1247
C24_2 C 0.2659(8) 0.2152(17) 0.0254(10)
N10_2 N 0.2355(7) 0.2665(16) 0.0288(8)
C32_2 C 0.1521(9) 0.4706(18) 0.0312(8)
H21_2 H 0.1418 0.4849 0.0568
C33_2 C 0.1818(9) 0.4086(18) 0.0346(9)
H22_2 H 0.1904 0.3753 0.0611
N8_2 N 0.2886(8) 0.2187(17) 0.9957(9)
C25_2 C 0.2835(9) 0.294(2) 0.9699(11)
N9_2 N 0.2550(8) 0.3513(18) 0.9711(10)
C26_2 C 0.2309(8) 0.336(2) 0.9985(11)
C27_2 C 0.3236(10) 0.374(3) 0.8755(12)
H17_2 H 0.3182 0.4251 0.8563
C28_2 C 0.2954(9) 0.354(2) 0.8997(11)
H18_2 H 0.2691 0.3718 0.8912
C29_2 C 0.3095(9) 0.305(2) 0.9377(10)
C30_2 C 0.3435(10) 0.258(2) 0.9415(12)
H19_2 H 0.3509 0.2114 0.9628
C31_2 C 0.3661(10) 0.284(3) 0.9119(11)
H20_2 H 0.3922 0.2638 0.9187
N12_2 N 0.1378(8) 0.5110(16) 0.9924(8)
C34_2 C 0.1976(9) 0.3975(19) 0.9992(10)
C35_2 C 0.1832(9) 0.436(2) 0.9583(8)
H23_2 H 0.1945 0.4247 0.9331
C36_2 C 0.1518(9) 0.492(2) 0.9558(9)
H24_3 H 0.1399 0.5170 0.9280
Zn5_2 Zn 0.09098(17) 0.5985(3) 0.9918(2)
N5_2 N 0.0472(8) 0.5317(16) 0.9475(10)
C9_2 C 0.0255(9) 0.5756(19) 0.9112(14)
H5_2 H 0.0336 0.6313 0.9009
C12_3 C 0.0151(10) 0.396(2) 0.9218(12)
H7_3 H 0.0147 0.3319 0.9225
C13_3 C 0.0434(10) 0.4416(18) 0.9504(12)
H8_3 H 0.0607 0.4094 0.9727
I4_2 I 0.10839(16) 0.7389(2) 0.9549(2)
N5_3 N 0.0472(8) 0.4683(16) 0.4475(10)
C9_3 C 0.0255(9) 0.4244(19) 0.4112(14)
H5_3 H 0.0336 0.3687 0.4009
C12_4 C 0.0151(10) 0.604(2) 0.4218(12)
H7_4 H 0.0147 0.6681 0.4225
C13_4 C 0.0434(10) 0.5584(18) 0.4504(12)
H8_4 H 0.0607 0.5906 0.4727
I3_2 I 0.06809(14) 0.4055(4) 0.56387(15)
I4_3 I 0.10839(16) 0.2611(2) 0.4549(2)
N5_4 N 0.5472(8) 0.9683(16) 0.4475(10)
C9_4 C 0.5255(9) 0.9244(19) 0.4112(14)
H5_4 H 0.5336 0.8687 0.4009
C10_2 C 0.4918(9) 0.9650(16) 0.3908(13)
H6_2 H 0.4713 0.9284 0.3758
N6_2 N 0.3371(7) 0.9455(15) 0.1984(9)
C17_2 C 0.3878(9) 0.9473(15) 0.2562(9)
H11_2 H 0.4088 0.9156 0.2740
C18_2 C 0.3668(9) 0.9042(19) 0.2200(9)
H12_2 H 0.3739 0.8463 0.2113
I3_3 I 0.56809(14) 0.9055(4) 0.56387(15)
Zn2_2 Zn 0.59098(17) 0.9015(3) 0.4918(2)
I4_4 I 0.60839(16) 0.7611(2) 0.4549(2)
I5_2 I 0.23778(10) 0.8453(2) 0.18856(11)
Zn3_2 Zn 0.29451(14) 0.8736(3) 0.15153(14)
I6_2 I 0.33106(11) 0.76027(18) 0.11435(10)
N7_2 N 0.2789(7) 0.9783(18) 0.1027(9)
H13_2 H 0.3321 0.9741 0.0902
N14_2 N 0.6378(8) 0.9890(16) 0.4924(8)
I1_3 I 0.84282(13) 0.8359(2) 0.75273(13)
Zn1_2 Zn 0.88896(19) 0.8574(3) 0.8273(2)
I2_3 I 0.94986(12) 0.7673(2) 0.85063(13)
N1_3 N 0.8990(8) 0.9970(16) 0.8326(9)
H1_3 H 0.9414 0.9931 0.8861
H24_4 H 0.6399 0.9830 0.4280
N13_2 N 0.8571(10) 0.833(2) 0.8751(10)
N8_3 N 0.7886(8) 0.7187(17) 0.9957(9)
C25_3 C 0.7835(9) 0.794(2) 0.9699(11)
N9_3 N 0.7550(8) 0.8513(18) 0.9711(10)
C26_3 C 0.7309(8) 0.836(2) 0.9985(11)
C27_3 C 0.8236(10) 0.874(3) 0.8755(12)
H17_3 H 0.8182 0.9251 0.8563
C28_3 C 0.7954(9) 0.854(2) 0.8997(11)
H18_3 H 0.7691 0.8718 0.8912
C29_3 C 0.8095(9) 0.805(2) 0.9377(10)
C30_3 C 0.8435(10) 0.758(2) 0.9415(12)
H19_3 H 0.8509 0.7114 0.9628
C31_3 C 0.8661(10) 0.784(3) 0.9119(11)
H20_3 H 0.8922 0.7638 0.9187
C34_3 C 0.6976(9) 0.8975(19) 0.9992(10)
C35_3 C 0.6832(9) 0.936(2) 0.9583(8)
H23_3 H 0.6945 0.9247 0.9331
C36_3 C 0.6518(9) 0.992(2) 0.9558(9)
I3_4 I 0.06809(14) 0.5945(4) 0.06387(15)
C1_3 C 0.9279(9) 0.0314(15) 0.8635(10)
C2_3 C 0.9385(8) 0.1208(15) 0.8632(11)
H2_3 H 0.9628 0.1416 0.8792
C3_3 C 0.9122(8) 0.1779(13) 0.8388(10)
C4_3 C 0.8815(9) 0.1450(15) 0.8073(10)
H3_3 H 0.8643 0.1842 0.7884
C5_3 C 0.8771(8) 0.0536(15) 0.8045(10)
H4_3 H 0.8575 0.0293 0.7817
C6_3 C 0.9190(9) 0.2764(13) 0.8351(10)
N2_3 N 0.9495(9) 0.3132(14) 0.8636(9)
C7_3 C 0.9541(10) 0.4007(14) 0.8589(10)
N3_3 N 0.9368(8) 0.4511(16) 0.8250(8)
C8_3 C 0.9040(10) 0.4105(14) 0.8044(11)
N4_3 N 0.8944(7) 0.3237(14) 0.8046(8)
C10_3 C 0.9918(9) 0.5350(16) 0.8908(13)
H6_3 H 0.9713 0.5716 0.8758
C11_3 C 0.9864(10) 0.4431(16) 0.8912(12)
N6_3 N 0.8371(7) 0.5545(15) 0.6984(9)
C14_3 C 0.8295(9) 0.4717(16) 0.7108(10)
H9_3 H 0.8074 0.4437 0.6933
C15_3 C 0.8492(8) 0.4217(18) 0.7451(10)
H10_3 H 0.8420 0.3627 0.7520
C16_3 C 0.8807(8) 0.4664(14) 0.7686(9)
C17_3 C 0.8878(9) 0.5527(15) 0.7562(9)
H11_3 H 0.9088 0.5844 0.7740
C18_3 C 0.8668(9) 0.5958(19) 0.7200(9)
H12_3 H 0.8739 0.6537 0.7113
I5_3 I 0.73778(10) 0.6547(2) 0.68856(11)
Zn3_3 Zn 0.79451(14) 0.6264(3) 0.65153(14)
I6_3 I 0.83106(11) 0.73973(18) 0.61435(10)
N7_3 N 0.7789(7) 0.5217(18) 0.6027(9)
C19_3 C 0.8085(9) 0.4929(19) 0.5854(10)
H13_3 H 0.8321 0.5259 0.5902
C20_3 C 0.8049(11) 0.4156(19) 0.5607(11)
H14_3 H 0.8263 0.3943 0.5491
C21_3 C 0.7704(11) 0.3683(18) 0.5524(12)
C22_3 C 0.7431(11) 0.388(2) 0.5795(12)
H15_3 H 0.7215 0.3501 0.5801
C23_3 C 0.7496(8) 0.4644(17) 0.6048(11)
H16_3 H 0.7328 0.4777 0.6247
C24_3 C 0.7659(8) 0.2848(17) 0.5254(10)
N8_4 N 0.7886(8) 0.2813(17) 0.4957(9)
C25_4 C 0.7835(9) 0.206(2) 0.4699(11)
N9_4 N 0.7550(8) 0.1487(18) 0.4711(10)
C26_4 C 0.7309(8) 0.164(2) 0.4985(11)
N10_3 N 0.7355(7) 0.2335(16) 0.5288(8)
N11_2 N 0.8571(10) 0.167(2) 0.3751(10)
C27_4 C 0.8236(10) 0.126(3) 0.3755(12)
H17_4 H 0.8182 0.0749 0.3563
C28_4 C 0.7954(9) 0.146(2) 0.3997(11)
H18_4 H 0.7691 0.1282 0.3912
C29_4 C 0.8095(9) 0.195(2) 0.4377(10)
C30_4 C 0.8435(10) 0.242(2) 0.4415(12)
H19_4 H 0.8509 0.2886 0.4628
C31_4 C 0.8661(10) 0.216(3) 0.4119(11)
H20_4 H 0.8922 0.2362 0.4187
C32_3 C 0.6521(9) 0.0294(18) 0.5312(8)
H21_3 H 0.6418 0.0151 0.5568
C33_3 C 0.6818(9) 0.0914(18) 0.5346(9)
H22_3 H 0.6904 0.1247 0.5611
C34_4 C 0.6976(9) 0.1025(19) 0.4992(10)
C35_4 C 0.6832(9) 0.064(2) 0.4583(8)
H23_4 H 0.6945 0.0753 0.4331
C36_4 C 0.6518(9) 0.008(2) 0.4558(9)
Zn4_2 Zn 0.88896(19) 0.1426(3) 0.3273(2)
I1_4 I 0.84282(13) 0.1641(2) 0.25273(13)
I2_4 I 0.94986(12) 0.2327(2) 0.35063(13)
N1_4 N 0.8990(8) 0.0030(16) 0.3326(9)
H1_4 H 0.9414 0.0069 0.3861
C1_4 C 0.9279(9) 0.9686(15) 0.3635(10)
C2_4 C 0.9385(8) 0.8792(15) 0.3632(11)
H2_4 H 0.9628 0.8584 0.3792
C3_4 C 0.9122(8) 0.8221(13) 0.3388(10)
C4_4 C 0.8815(9) 0.8550(15) 0.3073(10)
H3_4 H 0.8643 0.8158 0.2884
C5_4 C 0.8771(8) 0.9464(15) 0.3045(10)
H4_4 H 0.8575 0.9707 0.2817
C6_4 C 0.9190(9) 0.7236(13) 0.3351(10)
N2_4 N 0.9495(9) 0.6868(14) 0.3636(9)
C7_4 C 0.9541(10) 0.5993(14) 0.3589(10)
N3_4 N 0.9368(8) 0.5489(16) 0.3250(8)
C8_4 C 0.9040(10) 0.5895(14) 0.3044(11)
N4_4 N 0.8944(7) 0.6763(14) 0.3046(8)
C10_4 C 0.9918(9) 0.4650(16) 0.3908(13)
H6_4 H 0.9713 0.4284 0.3758
C11_4 C 0.9864(10) 0.5569(16) 0.3912(12)
N6_4 N 0.8371(7) 0.4455(15) 0.1984(9)
C14_4 C 0.8295(9) 0.5283(16) 0.2108(10)
H9_4 H 0.8074 0.5563 0.1933
C15_4 C 0.8492(8) 0.5783(18) 0.2451(10)
H10_4 H 0.8420 0.6373 0.2520
C16_4 C 0.8807(8) 0.5336(14) 0.2686(9)
C17_4 C 0.8878(9) 0.4473(15) 0.2562(9)
H11_4 H 0.9088 0.4156 0.2740
C18_4 C 0.8668(9) 0.4042(19) 0.2200(9)
H12_4 H 0.8739 0.3463 0.2113
I5_4 I 0.73778(10) 0.3453(2) 0.18856(11)
Zn3_4 Zn 0.79451(14) 0.3736(3) 0.15153(14)
I6_4 I 0.83106(11) 0.26027(18) 0.11435(10)
N7_4 N 0.7789(7) 0.4783(18) 0.1027(9)
C19_4 C 0.8085(9) 0.5071(19) 0.0854(10)
H13_4 H 0.8321 0.4741 0.0902
C20_4 C 0.8049(11) 0.5844(19) 0.0607(11)
H14_4 H 0.8263 0.6057 0.0491
C21_4 C 0.7704(11) 0.6317(18) 0.0524(12)
C22_4 C 0.7431(11) 0.612(2) 0.0795(12)
H15_4 H 0.7215 0.6499 0.0801
C23_4 C 0.7496(8) 0.5356(17) 0.1048(11)
H16_4 H 0.7328 0.5223 0.1247
C24_4 C 0.7659(8) 0.7152(17) 0.0254(10)
N10_4 N 0.7355(7) 0.7665(16) 0.0288(8)
C32_4 C 0.6521(9) 0.9706(18) 0.0312(8)
H21_4 H 0.6418 0.9849 0.0568
C33_4 C 0.6818(9) 0.9086(18) 0.0346(9)
H22_4 H 0.6904 0.8753 0.0611
Zn6 Zn 0.04280(19) 0.6442(3) 0.2798(2)
I8 I 0.08795(14) 0.6656(2) 0.35522(12)
N15 N 0.0306(8) 0.5079(15) 0.2721(10)
C37 C 0.0566(9) 0.4521(15) 0.2949(12)
H25 H 0.0806 0.4749 0.3109
C38 C 0.0492(9) 0.3617(15) 0.2956(12)
H26 H 0.0679 0.3243 0.3136
C39 C 0.0165(9) 0.3220(14) 0.2719(11)
C42 C 0.0096(9) 0.2227(14) 0.2696(10)
N16 N 0.0335(7) 0.1786(14) 0.3010(8)
C43 C 0.0263(9) 0.0928(14) 0.3063(9)
C47 C 0.0500(8) 0.0431(14) 0.3447(8)
C48 C 0.0839(10) 0.076(2) 0.3715(11)
H31 H 0.0904 0.1366 0.3675
C49 C 0.1085(9) 0.0274(15) 0.4028(10)
H32 H 0.1310 0.0546 0.4199
C55 C 0.1820(9) 0.029(2) 0.5030(10)
H37 H 0.2018 0.0112 0.4878
C56 C 0.1862(10) 0.109(2) 0.5299(11)
H38 H 0.2071 0.1486 0.5284
C57 C 0.1626(9) 0.1297(18) 0.5562(10)
C58 C 0.1355(9) 0.0666(16) 0.5611(9)
H39 H 0.1188 0.0757 0.5816
C60 C 0.1663(9) 0.2102(17) 0.5859(9)
N22 N 0.1936(7) 0.2702(17) 0.5824(8)
C61 C 0.1981(8) 0.339(2) 0.6086(12)
N23 N 0.1775(9) 0.3529(19) 0.6401(10)
C62 C 0.1484(8) 0.298(2) 0.6399(9)
N24 N 0.1413(8) 0.2231(17) 0.6147(8)
N25 N 0.2957(7) 0.5133(16) 0.6081(8)
C63 C 0.2790(7) 0.5073(16) 0.6428(9)
H41 H 0.2892 0.5428 0.6682
C64 C 0.2480(7) 0.4536(18) 0.6445(9)
H42 H 0.2374 0.4533 0.6707
C65 C 0.2319(8) 0.4000(18) 0.6093(9)
C66 C 0.2482(9) 0.4084(19) 0.5726(9)
H43 H 0.2371 0.3777 0.5459
C67 C 0.2811(8) 0.4622(18) 0.5739(8)
H44 H 0.2934 0.4616 0.5490
N26 N 0.0753(7) 0.3395(19) 0.7307(9)
C68 C 0.0639(9) 0.282(2) 0.6974(9)
H45 H 0.0410 0.2470 0.6955
C69 C 0.0867(9) 0.274(2) 0.6657(9)
H46 H 0.0773 0.2419 0.6389
C70 C 0.1230(8) 0.312(2) 0.6728(9)
C71 C 0.1318(9) 0.373(2) 0.7067(10)
H47 H 0.1518 0.4163 0.7068
C72 C 0.1114(9) 0.372(3) 0.7408(9)
H48 H 0.1224 0.3925 0.7699
Zn9 Zn 0.04280(19) 0.3558(3) 0.7798(2)
Zn10 Zn 0.34053(18) 0.6012(3) 0.61956(19)
N28 N 0.0753(7) 0.6605(19) 0.2307(9)
C55_2 C 0.1820(9) 0.971(2) 0.0030(10)
C56_2 C 0.1862(10) 0.891(2) 0.0299(11)
H38_2 H 0.2071 0.8514 0.0284
C57_2 C 0.1626(9) 0.8703(18) 0.0562(10)
C58_2 C 0.1355(9) 0.9334(16) 0.0611(9)
H39_2 H 0.1188 0.9243 0.0816
C60_2 C 0.1663(9) 0.7898(17) 0.0859(9)
N22_2 N 0.1936(7) 0.7298(17) 0.0824(8)
C61_2 C 0.1981(8) 0.661(2) 0.1086(12)
N23_2 N 0.1775(9) 0.6471(19) 0.1401(10)
C62_2 C 0.1484(8) 0.702(2) 0.1399(9)
N24_2 N 0.1413(8) 0.7769(17) 0.1147(8)
N25_2 N 0.2957(7) 0.4867(16) 0.1081(8)
C63_2 C 0.2790(7) 0.4927(16) 0.1428(9)
H41_2 H 0.2892 0.4572 0.1682
C64_2 C 0.2480(7) 0.5464(18) 0.1445(9)
H42_2 H 0.2374 0.5467 0.1707
C65_2 C 0.2319(8) 0.6000(18) 0.1093(9)
C66_2 C 0.2482(9) 0.5916(19) 0.0726(9)
H43_2 H 0.2371 0.6223 0.0459
C67_2 C 0.2811(8) 0.5378(18) 0.0739(8)
H44_2 H 0.2934 0.5384 0.0490
C68_2 C 0.0639(9) 0.718(2) 0.1974(9)
H45_2 H 0.0410 0.7530 0.1955
C69_2 C 0.0867(9) 0.726(2) 0.1657(9)
H46_2 H 0.0773 0.7581 0.1389
C70_2 C 0.1230(8) 0.688(2) 0.1728(9)
C71_2 C 0.1318(9) 0.627(2) 0.2067(10)
H47_2 H 0.1518 0.5837 0.2068
C72_2 C 0.1114(9) 0.628(3) 0.2408(9)
H48_2 H 0.1224 0.6075 0.2699
Zn10_2 Zn 0.34053(18) 0.3988(3) 0.11956(19)
I8_2 I 0.08795(14) 0.3344(2) 0.85522(12)
N15_2 N 0.0306(8) 0.4921(15) 0.7721(10)
C37_2 C 0.0566(9) 0.5479(15) 0.7949(12)
H25_2 H 0.0806 0.5251 0.8109
C38_2 C 0.0492(9) 0.6383(15) 0.7956(12)
H26_2 H 0.0679 0.6757 0.8136
C39_2 C 0.0165(9) 0.6780(14) 0.7719(11)
C42_2 C 0.0096(9) 0.7773(14) 0.7696(10)
N16_2 N 0.0335(7) 0.8214(14) 0.8010(8)
C43_2 C 0.0263(9) 0.9072(14) 0.8063(9)
C47_2 C 0.0500(8) 0.9569(14) 0.8447(8)
C48_2 C 0.0839(10) 0.924(2) 0.8715(11)
H31_2 H 0.0904 0.8634 0.8675
C49_2 C 0.1085(9) 0.9726(15) 0.9028(10)
H32_2 H 0.1310 0.9454 0.9199
H37_2 H 0.2018 0.9888 0.9878
C37_3 C 0.5566(9) 0.9521(15) 0.2949(12)
H25_3 H 0.5806 0.9749 0.3109
C38_3 C 0.5492(9) 0.8617(15) 0.2956(12)
H26_3 H 0.5679 0.8243 0.3136
C39_3 C 0.5165(9) 0.8220(14) 0.2719(11)
C40 C 0.4946(9) 0.8801(18) 0.2431(12)
H27 H 0.4763 0.8566 0.2188
C41 C 0.4983(9) 0.9738(17) 0.2482(11)
C42_3 C 0.5096(9) 0.7227(14) 0.2696(10)
N16_3 N 0.5335(7) 0.6786(14) 0.3010(8)
C43_3 C 0.5263(9) 0.5928(14) 0.3063(9)
N17 N 0.4969(7) 0.5506(15) 0.2796(8)
C44 C 0.4747(8) 0.6000(16) 0.2485(10)
N18 N 0.4807(8) 0.6887(16) 0.2396(9)
N19 N 0.6002(7) 0.4409(13) 0.4088(7)
C45 C 0.5684(7) 0.4077(18) 0.3833(8)
H29 H 0.5627 0.3463 0.3875
C46 C 0.5428(8) 0.4538(15) 0.3512(9)
H30 H 0.5207 0.4247 0.3342
C47_3 C 0.5500(8) 0.5431(14) 0.3447(8)
C48_3 C 0.5839(10) 0.576(2) 0.3715(11)
H31_3 H 0.5904 0.6366 0.3675
C49_3 C 0.6085(9) 0.5274(15) 0.4028(10)
H32_3 H 0.6310 0.5546 0.4199
N20 N 0.3805(9) 0.4641(18) 0.1647(9)
C50 C 0.3933(9) 0.5451(18) 0.1550(10)
H33 H 0.3824 0.5703 0.1268
C51 C 0.4212(9) 0.5946(17) 0.1827(10)
H34 H 0.4257 0.6560 0.1768
C52 C 0.4419(9) 0.5520(16) 0.2189(10)
C53 C 0.4335(9) 0.4644(16) 0.2270(8)
H35 H 0.4468 0.4334 0.2526
C54 C 0.4051(9) 0.4234(17) 0.1965(10)
H36 H 0.4029 0.3599 0.1985
I9 I 0.32061(15) 0.2602(2) 0.15932(14)
I10 I 0.36227(14) 0.3988(3) 0.04650(15)
I11 I 0.60167(10) 0.26054(18) 0.49500(10)
Zn8 Zn 0.63820(14) 0.3746(3) 0.45737(14)
I12 I 0.69496(10) 0.3474(2) 0.41946(10)
N21 N 0.6495(7) 0.4812(18) 0.4998(7)
C55_3 C 0.6820(9) 0.529(2) 0.5030(10)
H37_3 H 0.7018 0.5112 0.4878
C56_3 C 0.6862(10) 0.609(2) 0.5299(11)
H38_3 H 0.7071 0.6486 0.5284
C57_3 C 0.6626(9) 0.6297(18) 0.5562(10)
C58_3 C 0.6355(9) 0.5666(16) 0.5611(9)
H39_3 H 0.6188 0.5757 0.5816
C59 C 0.6328(9) 0.4901(18) 0.5358(8)
H40 H 0.6186 0.4407 0.5439
C60_3 C 0.6663(9) 0.7102(17) 0.5859(9)
N22_3 N 0.6936(7) 0.7702(17) 0.5824(8)
C61_3 C 0.6981(8) 0.839(2) 0.6086(12)
N23_3 N 0.6775(9) 0.8529(19) 0.6401(10)
C62_3 C 0.6484(8) 0.798(2) 0.6399(9)
N24_3 N 0.6413(8) 0.7231(17) 0.6147(8)
C64_3 C 0.7480(7) 0.9536(18) 0.6445(9)
H42_3 H 0.7374 0.9533 0.6707
C65_3 C 0.7319(8) 0.9000(18) 0.6093(9)
C66_3 C 0.7482(9) 0.9084(19) 0.5726(9)
H43_3 H 0.7371 0.8777 0.5459
C67_3 C 0.7811(8) 0.9622(18) 0.5739(8)
H44_3 H 0.7934 0.9616 0.5490
N26_2 N 0.5753(7) 0.8395(19) 0.7307(9)
C68_3 C 0.5639(9) 0.782(2) 0.6974(9)
H45_3 H 0.5410 0.7470 0.6955
C69_3 C 0.5867(9) 0.774(2) 0.6657(9)
H46_3 H 0.5773 0.7419 0.6389
C70_3 C 0.6230(8) 0.812(2) 0.6728(9)
C71_3 C 0.6318(9) 0.873(2) 0.7067(10)
H47_3 H 0.6518 0.9163 0.7068
C72_3 C 0.6114(9) 0.872(3) 0.7408(9)
H48_3 H 0.6224 0.8925 0.7699
Zn9_2 Zn 0.54280(19) 0.8558(3) 0.7798(2)
C37_4 C 0.5566(9) 0.0479(15) 0.7949(12)
H25_4 H 0.5806 0.0251 0.8109
C38_4 C 0.5492(9) 0.1383(15) 0.7956(12)
H26_4 H 0.5679 0.1757 0.8136
C39_4 C 0.5165(9) 0.1780(14) 0.7719(11)
C40_2 C 0.4946(9) 0.1199(18) 0.7431(12)
H27_2 H 0.4763 0.1434 0.7188
C41_2 C 0.4983(9) 0.0262(17) 0.7482(11)
C42_4 C 0.5096(9) 0.2773(14) 0.7696(10)
N16_4 N 0.5335(7) 0.3214(14) 0.8010(8)
C43_4 C 0.5263(9) 0.4072(14) 0.8063(9)
N17_2 N 0.4969(7) 0.4494(15) 0.7796(8)
C44_2 C 0.4747(8) 0.4000(16) 0.7485(10)
N18_2 N 0.4807(8) 0.3113(16) 0.7396(9)
N19_2 N 0.6002(7) 0.5591(13) 0.9088(7)
C45_2 C 0.5684(7) 0.5923(18) 0.8833(8)
H29_2 H 0.5627 0.6537 0.8875
C46_2 C 0.5428(8) 0.5462(15) 0.8512(9)
H30_2 H 0.5207 0.5753 0.8342
C47_4 C 0.5500(8) 0.4569(14) 0.8447(8)
C48_4 C 0.5839(10) 0.424(2) 0.8715(11)
H31_4 H 0.5904 0.3634 0.8675
C49_4 C 0.6085(9) 0.4726(15) 0.9028(10)
H32_4 H 0.6310 0.4454 0.9199
N20_2 N 0.3805(9) 0.5359(18) 0.6647(9)
C50_2 C 0.3933(9) 0.4549(18) 0.6550(10)
H33_2 H 0.3824 0.4297 0.6268
C51_2 C 0.4212(9) 0.4054(17) 0.6827(10)
H34_2 H 0.4257 0.3440 0.6768
C52_2 C 0.4419(9) 0.4480(16) 0.7189(10)
C53_2 C 0.4335(9) 0.5356(16) 0.7270(8)
H35_2 H 0.4468 0.5666 0.7526
C54_2 C 0.4051(9) 0.5766(17) 0.6965(10)
H36_2 H 0.4029 0.6401 0.6985
I9_2 I 0.32061(15) 0.7398(2) 0.65932(14)
I10_2 I 0.36227(14) 0.6012(3) 0.54650(15)
I11_2 I 0.60167(10) 0.73946(18) 0.99500(10)
Zn8_2 Zn 0.63820(14) 0.6254(3) 0.95737(14)
I12_2 I 0.69496(10) 0.6526(2) 0.91946(10)
N21_2 N 0.6495(7) 0.5188(18) 0.9998(7)
H37_4 H 0.7018 0.4888 0.9878
I7 I 0.48027(14) 0.7684(2) 0.75520(16)
I8_3 I 0.58795(14) 0.8344(2) 0.85522(12)
N15_3 N 0.5306(8) 0.9921(15) 0.7721(10)
H28 H 0.4778 0.9877 0.7346
N19_3 N 0.1002(7) 0.9409(13) 0.4088(7)
C45_3 C 0.0684(7) 0.9077(18) 0.3833(8)
H29_3 H 0.0627 0.8463 0.3875
C46_3 C 0.0428(8) 0.9538(15) 0.3512(9)
H30_3 H 0.0207 0.9247 0.3342
I11_3 I 0.10167(10) 0.76054(18) 0.49500(10)
Zn8_3 Zn 0.13820(14) 0.8746(3) 0.45737(14)
I12_3 I 0.19496(10) 0.8474(2) 0.41946(10)
N21_3 N 0.1495(7) 0.9812(18) 0.4998(7)
C59_2 C 0.1328(9) 0.9901(18) 0.5358(8)
H40_2 H 0.1186 0.9407 0.5439
I7_2 I 0.98027(14) 0.7316(2) 0.25520(16)
C40_3 C 0.9946(9) 0.3801(18) 0.2431(12)
H27_3 H 0.9763 0.3566 0.2188
C41_3 C 0.9983(9) 0.4738(17) 0.2482(11)
H28_2 H 0.9778 0.5123 0.2346
N17_3 N 0.9969(7) 0.0506(15) 0.2796(8)
C44_3 C 0.9747(8) 0.1000(16) 0.2485(10)
N18_3 N 0.9807(8) 0.1887(16) 0.2396(9)
C50_3 C 0.8933(9) 0.0451(18) 0.1550(10)
H33_3 H 0.8824 0.0703 0.1268
C51_3 C 0.9212(9) 0.0946(17) 0.1827(10)
H34_3 H 0.9257 0.1560 0.1768
C52_3 C 0.9419(9) 0.0520(16) 0.2189(10)
N20_3 N 0.8805(9) 0.9641(18) 0.1647(9)
C53_3 C 0.9335(9) 0.9644(16) 0.2270(8)
H35_3 H 0.9468 0.9334 0.2526
C54_3 C 0.9051(9) 0.9234(17) 0.1965(10)
H36_3 H 0.9029 0.8599 0.1985
I9_3 I 0.82061(15) 0.7602(2) 0.15932(14)
Zn7 Zn 0.84053(18) 0.8988(3) 0.11956(19)
I10_3 I 0.86227(14) 0.8988(3) 0.04650(15)
N27 N 0.7957(7) 0.9867(16) 0.1081(8)
C63_3 C 0.7790(7) 0.9927(16) 0.1428(9)
H41_3 H 0.7892 0.9572 0.1682
C59_3 C 0.1328(9) 0.0099(18) 0.0358(8)
H40_3 H 0.1186 0.0593 0.0439
N19_4 N 0.1002(7) 0.0591(13) 0.9088(7)
C45_4 C 0.0684(7) 0.0923(18) 0.8833(8)
H29_4 H 0.0627 0.1537 0.8875
C46_4 C 0.0428(8) 0.0462(15) 0.8512(9)
H30_4 H 0.0207 0.0753 0.8342
I11_4 I 0.10167(10) 0.23946(18) 0.99500(10)
Zn8_4 Zn 0.13820(14) 0.1254(3) 0.95737(14)
I12_4 I 0.19496(10) 0.1526(2) 0.91946(10)
N21_4 N 0.1495(7) 0.0188(18) 0.9998(7)
N20_4 N 0.8805(9) 0.0359(18) 0.6647(9)
C53_4 C 0.9335(9) 0.0356(16) 0.7270(8)
H35_4 H 0.9468 0.0666 0.7526
C54_4 C 0.9051(9) 0.0766(17) 0.6965(10)
H36_4 H 0.9029 0.1401 0.6985
I9_4 I 0.82061(15) 0.2398(2) 0.65932(14)
Zn7_2 Zn 0.84053(18) 0.1012(3) 0.61956(19)
I10_4 I 0.86227(14) 0.1012(3) 0.54650(15)
N27_2 N 0.7957(7) 0.0133(16) 0.6081(8)
I7_3 I 0.48027(14) 0.2316(2) 0.25520(16)
Zn6_2 Zn 0.54280(19) 0.1442(3) 0.2798(2)
I8_4 I 0.58795(14) 0.1656(2) 0.35522(12)
N15_4 N 0.5306(8) 0.0079(15) 0.2721(10)
H28_3 H 0.4778 0.0123 0.2346
C63_4 C 0.7790(7) 0.0073(16) 0.6428(9)
H41_4 H 0.7892 0.0428 0.6682
N28_2 N 0.5753(7) 0.1605(19) 0.2307(9)
C55_4 C 0.6820(9) 0.471(2) 0.0030(10)
C56_4 C 0.6862(10) 0.391(2) 0.0299(11)
H38_4 H 0.7071 0.3514 0.0284
C57_4 C 0.6626(9) 0.3703(18) 0.0562(10)
C58_4 C 0.6355(9) 0.4334(16) 0.0611(9)
H39_4 H 0.6188 0.4243 0.0816
C59_4 C 0.6328(9) 0.5099(18) 0.0358(8)
H40_4 H 0.6186 0.5593 0.0439
C60_4 C 0.6663(9) 0.2898(17) 0.0859(9)
N22_4 N 0.6936(7) 0.2298(17) 0.0824(8)
C61_4 C 0.6981(8) 0.161(2) 0.1086(12)
N23_4 N 0.6775(9) 0.1471(19) 0.1401(10)
C62_4 C 0.6484(8) 0.202(2) 0.1399(9)
N24_4 N 0.6413(8) 0.2769(17) 0.1147(8)
C64_4 C 0.7480(7) 0.0464(18) 0.1445(9)
H42_4 H 0.7374 0.0467 0.1707
C65_4 C 0.7319(8) 0.1000(18) 0.1093(9)
C66_4 C 0.7482(9) 0.0916(19) 0.0726(9)
H43_4 H 0.7371 0.1223 0.0459
C67_4 C 0.7811(8) 0.0378(18) 0.0739(8)
H44_4 H 0.7934 0.0384 0.0490
C68_4 C 0.5639(9) 0.218(2) 0.1974(9)
H45_4 H 0.5410 0.2530 0.1955
C69_4 C 0.5867(9) 0.226(2) 0.1657(9)
H46_4 H 0.5773 0.2581 0.1389
C70_4 C 0.6230(8) 0.188(2) 0.1728(9)
C71_4 C 0.6318(9) 0.127(2) 0.2067(10)
H47_4 H 0.6518 0.0837 0.2068
C72_4 C 0.6114(9) 0.128(3) 0.2408(9)
H48_4 H 0.6224 0.1075 0.2699
I7_4 I 0.98027(14) 0.2684(2) 0.75520(16)
C40_4 C 0.9946(9) 0.6199(18) 0.7431(12)
H27_4 H 0.9763 0.6434 0.7188
C41_4 C 0.9983(9) 0.5262(17) 0.7482(11)
H28_4 H 0.9778 0.4877 0.7346
N17_4 N 0.9969(7) 0.9494(15) 0.7796(8)
C44_4 C 0.9747(8) 0.9000(16) 0.7485(10)
N18_4 N 0.9807(8) 0.8113(16) 0.7396(9)
C50_4 C 0.8933(9) 0.9549(18) 0.6550(10)
H33_4 H 0.8824 0.9297 0.6268
C51_4 C 0.9212(9) 0.9054(17) 0.6827(10)
H34_4 H 0.9257 0.8440 0.6768
C52_4 C 0.9419(9) 0.9480(16) 0.7189(10)
loop_
_geom_bond_atom_site_label_1
_geom_bond_atom_site_label_2
_geom_bond_site_symmetry_1
_geom_bond_site_symmetry_2
N5 C9 1_555 1_555
C9 H5 1_555 1_555
C10 C9 1_555 1_555
H6 C10 1_555 1_555
H11 C17 1_555 1_555
C18 N6 1_555 1_555
H12 C18 1_555 1_555
Zn2 N5 1_555 1_555
I4 Zn2 1_555 1_555
I5 Zn3 1_555 1_555
Zn3 N6 1_555 1_555
I6 Zn3 1_555 1_555
N7 Zn3 1_555 1_555
N14 Zn2 1_555 1_555
C17 C18 1_555 1_555
I1 Zn1 1_555 1_555
Zn1 I2 1_555 1_555
N1 Zn1 1_555 1_555
C1 N1 1_555 1_555
H1 C1 1_555 1_555
C2 C1 1_555 1_555
H2 C2 1_555 1_555
C3 C2 1_555 1_555
C4 C3 1_555 1_555
H3 C4 1_555 1_555
C5 N1 1_555 1_555
H4 C5 1_555 1_555
C6 C3 1_555 1_555
N2 C6 1_555 1_555
C7 N2 1_555 1_555
N3 C7 1_555 1_555
C8 N3 1_555 1_555
N4 C6 1_555 1_555
C11 C7 1_555 1_555
C12 C11 1_555 1_555
H7 C12 1_555 1_555
H8 C13 1_555 1_555
C14 H9 1_555 1_555
C15 C14 1_555 1_555
H10 C15 1_555 1_555
C16 C8 1_555 1_555
C20 C19 1_555 1_555
H14 C20 1_555 1_555
C21 C20 1_555 1_555
C22 C21 1_555 1_555
H15 C22 1_555 1_555
H16 C23 1_555 1_555
C24 C21 1_555 1_555
N8 C24 1_555 1_555
C25 N8 1_555 1_555
N9 C25 1_555 1_555
C26 N9 1_555 1_555
N10 C24 1_555 1_555
N11 C27 1_555 1_555
C27 H17 1_555 1_555
C28 C27 1_555 1_555
H18 C28 1_555 1_555
C29 C25 1_555 1_555
C30 C29 1_555 1_555
H19 C30 1_555 1_555
C31 N11 1_555 1_555
H20 C31 1_555 1_555
N12 C32 1_555 1_555
C32 H21 1_555 1_555
C33 C32 1_555 1_555
H22 C33 1_555 1_555
C34 C26 1_555 1_555
C35 C34 1_555 1_555
H23 C35 1_555 1_555
C36 N12 1_555 1_555
H24_2 C36 1_555 1_555
Zn4 N11 1_555 1_555
Zn5 N12 1_555 1_555
N13 Zn1 1_555 1_555
C4 C5 1_555 1_555
C8 N4 1_555 1_555
C12 C13 1_555 1_555
C15 C16 1_555 1_555
C22 C23 1_555 1_555
C26 N10 1_555 1_555
C28 C29 1_555 1_555
C30 C31 1_555 1_555
C33 C34 1_555 1_555
C35 C36 1_555 1_555
I1_2 Zn4 1_555 1_555
Zn4 I2_2 1_555 1_555
N1_2 Zn4 1_555 1_555
C1_2 N1_2 1_555 1_555
H1_2 C1_2 1_555 1_555
C2_2 C1_2 1_555 1_555
H2_2 C2_2 1_555 1_555
C3_2 C2_2 1_555 1_555
C4_2 C3_2 1_555 1_555
H3_2 C4_2 1_555 1_555
C5_2 N1_2 1_555 1_555
H4_2 C5_2 1_555 1_555
C6_2 C3_2 1_555 1_555
N2_2 C6_2 1_555 1_555
C7_2 N2_2 1_555 1_555
N3_2 C7_2 1_555 1_555
C8_2 N3_2 1_555 1_555
N4_2 C6_2 1_555 1_555
C11_2 C7_2 1_555 1_555
C12_2 C11_2 1_555 1_555
H7_2 C12_2 1_555 1_555
H8_2 C13_2 1_555 1_555
C14_2 H9_2 1_555 1_555
C15_2 C14_2 1_555 1_555
H10_2 C15_2 1_555 1_555
C16_2 C8_2 1_555 1_555
C20_2 C19_2 1_555 1_555
H14_2 C20_2 1_555 1_555
C21_2 C20_2 1_555 1_555
C22_2 C21_2 1_555 1_555
H15_2 C22_2 1_555 1_555
H16_2 C23_2 1_555 1_555
C24_2 C21_2 1_555 1_555
N10_2 C24_2 1_555 1_555
C32_2 H21_2 1_555 1_555
C33_2 C32_2 1_555 1_555
H22_2 C33_2 1_555 1_555
C4_2 C5_2 1_555 1_555
C8_2 N4_2 1_555 1_555
C12_2 C13_2 1_555 1_555
C15_2 C16_2 1_555 1_555
C22_2 C23_2 1_555 1_555
C25_2 N8_2 1_555 1_555
N9_2 C25_2 1_555 1_555
C26_2 N9_2 1_555 1_555
N13 C27_2 1_555 1_555
C27_2 H17_2 1_555 1_555
C28_2 C27_2 1_555 1_555
H18_2 C28_2 1_555 1_555
C29_2 C25_2 1_555 1_555
C30_2 C29_2 1_555 1_555
H19_2 C30_2 1_555 1_555
C31_2 N13 1_555 1_555
H20_2 C31_2 1_555 1_555
C34_2 C26_2 1_555 1_555
C35_2 C34_2 1_555 1_555
H23_2 C35_2 1_555 1_555
C36_2 N12_2 1_555 1_555
H24_3 C36_2 1_555 1_555
Zn5_2 N12_2 1_555 1_555
C28_2 C29_2 1_555 1_555
C30_2 C31_2 1_555 1_555
C35_2 C36_2 1_555 1_555
N5_2 C9_2 1_555 1_555
C9_2 H5_2 1_555 1_555
H7_3 C12_3 1_555 1_555
C13_3 N5_2 1_555 1_555
H8_3 C13_3 1_555 1_555
Zn5_2 N5_2 1_555 1_555
I4_2 Zn5_2 1_555 1_555
C12_3 C13_3 1_555 1_555
N5_3 C9_3 1_555 1_555
C9_3 H5_3 1_555 1_555
H7_4 C12_4 1_555 1_555
C13_4 N5_3 1_555 1_555
H8_4 C13_4 1_555 1_555
I3_2 Zn5 1_555 1_555
Zn5 N5_3 1_555 1_555
I4_3 Zn5 1_555 1_555
C12_4 C13_4 1_555 1_555
N5_4 C9_4 1_555 1_555
C9_4 H5_4 1_555 1_555
C10_2 C9_4 1_555 1_555
H6_2 C10_2 1_555 1_555
H11_2 C17_2 1_555 1_555
C18_2 N6_2 1_555 1_555
H12_2 C18_2 1_555 1_555
I3_3 Zn2_2 1_555 1_555
Zn2_2 N5_4 1_555 1_555
I4_4 Zn2_2 1_555 1_555
I5_2 Zn3_2 1_555 1_555
Zn3_2 N6_2 1_555 1_555
I6_2 Zn3_2 1_555 1_555
N7_2 Zn3_2 1_555 1_555
N14_2 Zn2_2 1_555 1_555
C17_2 C18_2 1_555 1_555
I1_3 Zn1_2 1_555 1_555
Zn1_2 I2_3 1_555 1_555
N1_3 Zn1_2 1_555 1_555
N13_2 Zn1_2 1_555 1_555
C25_3 N8_3 1_555 1_555
N9_3 C25_3 1_555 1_555
C26_3 N9_3 1_555 1_555
N13_2 C27_3 1_555 1_555
C27_3 H17_3 1_555 1_555
C28_3 C27_3 1_555 1_555
H18_3 C28_3 1_555 1_555
C29_3 C25_3 1_555 1_555
C30_3 C29_3 1_555 1_555
H19_3 C30_3 1_555 1_555
C31_3 N13_2 1_555 1_555
H20_3 C31_3 1_555 1_555
C34_3 C26_3 1_555 1_555
C35_3 C34_3 1_555 1_555
H23_3 C35_3 1_555 1_555
C28_3 C29_3 1_555 1_555
C30_3 C31_3 1_555 1_555
C35_3 C36_3 1_555 1_555
C2_3 C1_3 1_555 1_555
H2_3 C2_3 1_555 1_555
C3_3 C2_3 1_555 1_555
C4_3 C3_3 1_555 1_555
H3_3 C4_3 1_555 1_555
H4_3 C5_3 1_555 1_555
C6_3 C3_3 1_555 1_555
N2_3 C6_3 1_555 1_555
C7_3 N2_3 1_555 1_555
N3_3 C7_3 1_555 1_555
C8_3 N3_3 1_555 1_555
N4_3 C6_3 1_555 1_555
H6_3 C10_3 1_555 1_555
C11_3 C7_3 1_555 1_555
N6_3 C14_3 1_555 1_555
C14_3 H9_3 1_555 1_555
C15_3 C14_3 1_555 1_555
H10_3 C15_3 1_555 1_555
C16_3 C8_3 1_555 1_555
C17_3 C16_3 1_555 1_555
H11_3 C17_3 1_555 1_555
C18_3 N6_3 1_555 1_555
H12_3 C18_3 1_555 1_555
I5_3 Zn3_3 1_555 1_555
Zn3_3 N6_3 1_555 1_555
I6_3 Zn3_3 1_555 1_555
N7_3 Zn3_3 1_555 1_555
C19_3 N7_3 1_555 1_555
H13_3 C19_3 1_555 1_555
C20_3 C19_3 1_555 1_555
H14_3 C20_3 1_555 1_555
C21_3 C20_3 1_555 1_555
C22_3 C21_3 1_555 1_555
H15_3 C22_3 1_555 1_555
C23_3 N7_3 1_555 1_555
H16_3 C23_3 1_555 1_555
C24_3 C21_3 1_555 1_555
N8_4 C24_3 1_555 1_555
C25_4 N8_4 1_555 1_555
N9_4 C25_4 1_555 1_555
C26_4 N9_4 1_555 1_555
N10_3 C24_3 1_555 1_555
N11_2 C27_4 1_555 1_555
C27_4 H17_4 1_555 1_555
C28_4 C27_4 1_555 1_555
H18_4 C28_4 1_555 1_555
C29_4 C25_4 1_555 1_555
C30_4 C29_4 1_555 1_555
H19_4 C30_4 1_555 1_555
C31_4 N11_2 1_555 1_555
H20_4 C31_4 1_555 1_555
C32_3 H21_3 1_555 1_555
C33_3 C32_3 1_555 1_555
H22_3 C33_3 1_555 1_555
C34_4 C26_4 1_555 1_555
C35_4 C34_4 1_555 1_555
H23_4 C35_4 1_555 1_555
Zn4_2 N11_2 1_555 1_555
C4_3 C5_3 1_555 1_555
C8_3 N4_3 1_555 1_555
C10_3 C11_3 1_555 1_555
C15_3 C16_3 1_555 1_555
C17_3 C18_3 1_555 1_555
C22_3 C23_3 1_555 1_555
C26_4 N10_3 1_555 1_555
C28_4 C29_4 1_555 1_555
C30_4 C31_4 1_555 1_555
C33_3 C34_4 1_555 1_555
C35_4 C36_4 1_555 1_555
I1_4 Zn4_2 1_555 1_555
Zn4_2 I2_4 1_555 1_555
N1_4 Zn4_2 1_555 1_555
C2_4 C1_4 1_555 1_555
H2_4 C2_4 1_555 1_555
C3_4 C2_4 1_555 1_555
C4_4 C3_4 1_555 1_555
H3_4 C4_4 1_555 1_555
H4_4 C5_4 1_555 1_555
C6_4 C3_4 1_555 1_555
N2_4 C6_4 1_555 1_555
C7_4 N2_4 1_555 1_555
N3_4 C7_4 1_555 1_555
C8_4 N3_4 1_555 1_555
N4_4 C6_4 1_555 1_555
H6_4 C10_4 1_555 1_555
C11_4 C7_4 1_555 1_555
N6_4 C14_4 1_555 1_555
C14_4 H9_4 1_555 1_555
C15_4 C14_4 1_555 1_555
H10_4 C15_4 1_555 1_555
C16_4 C8_4 1_555 1_555
C17_4 C16_4 1_555 1_555
H11_4 C17_4 1_555 1_555
C18_4 N6_4 1_555 1_555
H12_4 C18_4 1_555 1_555
I5_4 Zn3_4 1_555 1_555
Zn3_4 N6_4 1_555 1_555
I6_4 Zn3_4 1_555 1_555
N7_4 Zn3_4 1_555 1_555
C19_4 N7_4 1_555 1_555
H13_4 C19_4 1_555 1_555
C20_4 C19_4 1_555 1_555
H14_4 C20_4 1_555 1_555
C21_4 C20_4 1_555 1_555
C22_4 C21_4 1_555 1_555
H15_4 C22_4 1_555 1_555
C23_4 N7_4 1_555 1_555
H16_4 C23_4 1_555 1_555
C24_4 C21_4 1_555 1_555
N10_4 C24_4 1_555 1_555
C32_4 H21_4 1_555 1_555
C33_4 C32_4 1_555 1_555
H22_4 C33_4 1_555 1_555
C4_4 C5_4 1_555 1_555
C8_4 N4_4 1_555 1_555
C10_4 C11_4 1_555 1_555
C15_4 C16_4 1_555 1_555
C17_4 C18_4 1_555 1_555
C22_4 C23_4 1_555 1_555
Zn6 I8 1_555 1_555
N15 Zn6 1_555 1_555
C37 N15 1_555 1_555
H25 C37 1_555 1_555
C38 C37 1_555 1_555
H26 C38 1_555 1_555
C39 C38 1_555 1_555
C42 C39 1_555 1_555
N16 C42 1_555 1_555
C43 N16 1_555 1_555
C47 C43 1_555 1_555
C48 C47 1_555 1_555
H31 C48 1_555 1_555
H32 C49 1_555 1_555
H37 C55 1_555 1_555
C56 C55 1_555 1_555
H38 C56 1_555 1_555
C57 C56 1_555 1_555
C58 C57 1_555 1_555
H39 C58 1_555 1_555
C60 C57 1_555 1_555
N22 C60 1_555 1_555
C61 N22 1_555 1_555
N23 C61 1_555 1_555
C62 N23 1_555 1_555
N24 C60 1_555 1_555
N25 C63 1_555 1_555
C63 H41 1_555 1_555
C64 C63 1_555 1_555
H42 C64 1_555 1_555
C65 C61 1_555 1_555
C66 C65 1_555 1_555
H43 C66 1_555 1_555
C67 N25 1_555 1_555
H44 C67 1_555 1_555
N26 C68 1_555 1_555
C68 H45 1_555 1_555
C69 C68 1_555 1_555
H46 C69 1_555 1_555
C70 C62 1_555 1_555
C71 C70 1_555 1_555
H47 C71 1_555 1_555
C72 N26 1_555 1_555
H48 C72 1_555 1_555
Zn9 N26 1_555 1_555
Zn10 N25 1_555 1_555
N28 Zn6 1_555 1_555
C48 C49 1_555 1_555
C62 N24 1_555 1_555
C64 C65 1_555 1_555
C66 C67 1_555 1_555
C69 C70 1_555 1_555
C71 C72 1_555 1_555
C56_2 C55_2 1_555 1_555
H38_2 C56_2 1_555 1_555
C57_2 C56_2 1_555 1_555
C58_2 C57_2 1_555 1_555
H39_2 C58_2 1_555 1_555
C60_2 C57_2 1_555 1_555
N22_2 C60_2 1_555 1_555
C61_2 N22_2 1_555 1_555
N23_2 C61_2 1_555 1_555
C62_2 N23_2 1_555 1_555
N24_2 C60_2 1_555 1_555
N25_2 C63_2 1_555 1_555
C63_2 H41_2 1_555 1_555
C64_2 C63_2 1_555 1_555
H42_2 C64_2 1_555 1_555
C65_2 C61_2 1_555 1_555
C66_2 C65_2 1_555 1_555
H43_2 C66_2 1_555 1_555
C67_2 N25_2 1_555 1_555
H44_2 C67_2 1_555 1_555
N28 C68_2 1_555 1_555
C68_2 H45_2 1_555 1_555
C69_2 C68_2 1_555 1_555
H46_2 C69_2 1_555 1_555
C70_2 C62_2 1_555 1_555
C71_2 C70_2 1_555 1_555
H47_2 C71_2 1_555 1_555
C72_2 N28 1_555 1_555
H48_2 C72_2 1_555 1_555
Zn10_2 N25_2 1_555 1_555
C62_2 N24_2 1_555 1_555
C64_2 C65_2 1_555 1_555
C66_2 C67_2 1_555 1_555
C69_2 C70_2 1_555 1_555
C71_2 C72_2 1_555 1_555
Zn9 I8_2 1_555 1_555
N15_2 Zn9 1_555 1_555
C37_2 N15_2 1_555 1_555
H25_2 C37_2 1_555 1_555
C38_2 C37_2 1_555 1_555
H26_2 C38_2 1_555 1_555
C39_2 C38_2 1_555 1_555
C42_2 C39_2 1_555 1_555
N16_2 C42_2 1_555 1_555
C43_2 N16_2 1_555 1_555
C47_2 C43_2 1_555 1_555
C48_2 C47_2 1_555 1_555
H31_2 C48_2 1_555 1_555
H32_2 C49_2 1_555 1_555
C48_2 C49_2 1_555 1_555
H25_3 C37_3 1_555 1_555
C38_3 C37_3 1_555 1_555
H26_3 C38_3 1_555 1_555
C39_3 C38_3 1_555 1_555
C40 C39_3 1_555 1_555
H27 C40 1_555 1_555
C42_3 C39_3 1_555 1_555
N16_3 C42_3 1_555 1_555
C43_3 N16_3 1_555 1_555
N17 C43_3 1_555 1_555
C44 N17 1_555 1_555
N18 C42_3 1_555 1_555
N19 C45 1_555 1_555
C45 H29 1_555 1_555
C46 C45 1_555 1_555
H30 C46 1_555 1_555
C47_3 C43_3 1_555 1_555
C48_3 C47_3 1_555 1_555
H31_3 C48_3 1_555 1_555
C49_3 N19 1_555 1_555
H32_3 C49_3 1_555 1_555
N20 C50 1_555 1_555
C50 H33 1_555 1_555
C51 C50 1_555 1_555
H34 C51 1_555 1_555
C52 C44 1_555 1_555
C53 C52 1_555 1_555
H35 C53 1_555 1_555
C54 N20 1_555 1_555
H36 C54 1_555 1_555
I9 Zn10_2 1_555 1_555
Zn10_2 N20 1_555 1_555
I10 Zn10_2 1_555 1_555
I11 Zn8 1_555 1_555
Zn8 N19 1_555 1_555
I12 Zn8 1_555 1_555
N21 Zn8 1_555 1_555
C55_3 N21 1_555 1_555
H37_3 C55_3 1_555 1_555
C56_3 C55_3 1_555 1_555
H38_3 C56_3 1_555 1_555
C57_3 C56_3 1_555 1_555
C58_3 C57_3 1_555 1_555
H39_3 C58_3 1_555 1_555
C59 N21 1_555 1_555
H40 C59 1_555 1_555
C60_3 C57_3 1_555 1_555
N22_3 C60_3 1_555 1_555
C61_3 N22_3 1_555 1_555
N23_3 C61_3 1_555 1_555
C62_3 N23_3 1_555 1_555
N24_3 C60_3 1_555 1_555
H42_3 C64_3 1_555 1_555
C65_3 C61_3 1_555 1_555
C66_3 C65_3 1_555 1_555
H43_3 C66_3 1_555 1_555
H44_3 C67_3 1_555 1_555
N26_2 C68_3 1_555 1_555
C68_3 H45_3 1_555 1_555
C69_3 C68_3 1_555 1_555
H46_3 C69_3 1_555 1_555
C70_3 C62_3 1_555 1_555
C71_3 C70_3 1_555 1_555
H47_3 C71_3 1_555 1_555
C72_3 N26_2 1_555 1_555
H48_3 C72_3 1_555 1_555
Zn9_2 N26_2 1_555 1_555
C40 C41 1_555 1_555
C44 N18 1_555 1_555
C46 C47_3 1_555 1_555
C48_3 C49_3 1_555 1_555
C51 C52 1_555 1_555
C53 C54 1_555 1_555
C58_3 C59 1_555 1_555
C62_3 N24_3 1_555 1_555
C64_3 C65_3 1_555 1_555
C66_3 C67_3 1_555 1_555
C69_3 C70_3 1_555 1_555
C71_3 C72_3 1_555 1_555
H25_4 C37_4 1_555 1_555
C38_4 C37_4 1_555 1_555
H26_4 C38_4 1_555 1_555
C39_4 C38_4 1_555 1_555
C40_2 C39_4 1_555 1_555
H27_2 C40_2 1_555 1_555
C42_4 C39_4 1_555 1_555
N16_4 C42_4 1_555 1_555
C43_4 N16_4 1_555 1_555
N17_2 C43_4 1_555 1_555
C44_2 N17_2 1_555 1_555
N18_2 C42_4 1_555 1_555
N19_2 C45_2 1_555 1_555
C45_2 H29_2 1_555 1_555
C46_2 C45_2 1_555 1_555
H30_2 C46_2 1_555 1_555
C47_4 C43_4 1_555 1_555
C48_4 C47_4 1_555 1_555
H31_4 C48_4 1_555 1_555
C49_4 N19_2 1_555 1_555
H32_4 C49_4 1_555 1_555
N20_2 C50_2 1_555 1_555
C50_2 H33_2 1_555 1_555
C51_2 C50_2 1_555 1_555
H34_2 C51_2 1_555 1_555
C52_2 C44_2 1_555 1_555
C53_2 C52_2 1_555 1_555
H35_2 C53_2 1_555 1_555
C54_2 N20_2 1_555 1_555
H36_2 C54_2 1_555 1_555
I9_2 Zn10 1_555 1_555
Zn10 N20_2 1_555 1_555
I10_2 Zn10 1_555 1_555
I11_2 Zn8_2 1_555 1_555
Zn8_2 N19_2 1_555 1_555
I12_2 Zn8_2 1_555 1_555
N21_2 Zn8_2 1_555 1_555
C40_2 C41_2 1_555 1_555
C44_2 N18_2 1_555 1_555
C46_2 C47_4 1_555 1_555
C48_4 C49_4 1_555 1_555
C51_2 C52_2 1_555 1_555
C53_2 C54_2 1_555 1_555
I7 Zn9_2 1_555 1_555
Zn9_2 I8_3 1_555 1_555
N15_3 Zn9_2 1_555 1_555
N19_3 C45_3 1_555 1_555
C45_3 H29_3 1_555 1_555
C46_3 C45_3 1_555 1_555
H30_3 C46_3 1_555 1_555
I11_3 Zn8_3 1_555 1_555
Zn8_3 N19_3 1_555 1_555
I12_3 Zn8_3 1_555 1_555
N21_3 Zn8_3 1_555 1_555
C59_2 N21_3 1_555 1_555
H40_2 C59_2 1_555 1_555
H27_3 C40_3 1_555 1_555
H28_2 C41_3 1_555 1_555
C44_3 N17_3 1_555 1_555
C50_3 H33_3 1_555 1_555
C51_3 C50_3 1_555 1_555
H34_3 C51_3 1_555 1_555
C52_3 C44_3 1_555 1_555
C40_3 C41_3 1_555 1_555
C44_3 N18_3 1_555 1_555
C51_3 C52_3 1_555 1_555
H35_3 C53_3 1_555 1_555
C54_3 N20_3 1_555 1_555
H36_3 C54_3 1_555 1_555
I9_3 Zn7 1_555 1_555
Zn7 N20_3 1_555 1_555
I10_3 Zn7 1_555 1_555
N27 Zn7 1_555 1_555
C53_3 C54_3 1_555 1_555
N27 C63_3 1_555 1_555
C63_3 H41_3 1_555 1_555
H40_3 C59_3 1_555 1_555
N19_4 C45_4 1_555 1_555
C45_4 H29_4 1_555 1_555
C46_4 C45_4 1_555 1_555
H30_4 C46_4 1_555 1_555
I11_4 Zn8_4 1_555 1_555
Zn8_4 N19_4 1_555 1_555
I12_4 Zn8_4 1_555 1_555
N21_4 Zn8_4 1_555 1_555
H35_4 C53_4 1_555 1_555
C54_4 N20_4 1_555 1_555
H36_4 C54_4 1_555 1_555
I9_4 Zn7_2 1_555 1_555
Zn7_2 N20_4 1_555 1_555
I10_4 Zn7_2 1_555 1_555
N27_2 Zn7_2 1_555 1_555
C53_4 C54_4 1_555 1_555
I7_3 Zn6_2 1_555 1_555
Zn6_2 I8_4 1_555 1_555
N15_4 Zn6_2 1_555 1_555
N27_2 C63_4 1_555 1_555
C63_4 H41_4 1_555 1_555
N28_2 Zn6_2 1_555 1_555
C56_4 C55_4 1_555 1_555
H38_4 C56_4 1_555 1_555
C57_4 C56_4 1_555 1_555
C58_4 C57_4 1_555 1_555
H39_4 C58_4 1_555 1_555
H40_4 C59_4 1_555 1_555
C60_4 C57_4 1_555 1_555
N22_4 C60_4 1_555 1_555
C61_4 N22_4 1_555 1_555
N23_4 C61_4 1_555 1_555
C62_4 N23_4 1_555 1_555
N24_4 C60_4 1_555 1_555
H42_4 C64_4 1_555 1_555
C65_4 C61_4 1_555 1_555
C66_4 C65_4 1_555 1_555
H43_4 C66_4 1_555 1_555
H44_4 C67_4 1_555 1_555
N28_2 C68_4 1_555 1_555
C68_4 H45_4 1_555 1_555
C69_4 C68_4 1_555 1_555
H46_4 C69_4 1_555 1_555
C70_4 C62_4 1_555 1_555
C71_4 C70_4 1_555 1_555
H47_4 C71_4 1_555 1_555
C72_4 N28_2 1_555 1_555
H48_4 C72_4 1_555 1_555
C58_4 C59_4 1_555 1_555
C62_4 N24_4 1_555 1_555
C64_4 C65_4 1_555 1_555
C66_4 C67_4 1_555 1_555
C69_4 C70_4 1_555 1_555
C71_4 C72_4 1_555 1_555
H27_4 C40_4 1_555 1_555
H28_4 C41_4 1_555 1_555
C44_4 N17_4 1_555 1_555
C50_4 H33_4 1_555 1_555
C51_4 C50_4 1_555 1_555
H34_4 C51_4 1_555 1_555
C52_4 C44_4 1_555 1_555
C40_4 C41_4 1_555 1_555
C44_4 N18_4 1_555 1_555
C51_4 C52_4 1_555 1_555

#END
