
###############################################################################
#
# This file contains modified crystal structure data generated from the
# MOF subset of the Cambridge Structural Database (CSD) v543 
# hosted by the Cambridge Crystallographic Data Centre (CCDC).
#
# This work is licensed under the Creative Commons
# Attribution-NonCommercial-ShareAlike 4.0 International License.
# To view a copy of this license, visit
# http://creativecommons.org/licenses/by-nc-sa/4.0/
# or send a letter to
# Creative Commons, PO Box 1866, Mountain View, CA 94042, USA.
#
# CIF created using the CSD Python API on 29 September 2022
# The structure has been converted into the P1 space group
# The structure has a 3D framework
# The original CSD entry LIQRUZ is in the orthorhombic crystal system
# The framework has been calculated to contain at least 10.0% void space
# The void calculation uses a probe of radius 1.32A, grid spacing 0.4
#
###############################################################################

data_LIQRUZ
_chemical_formula_moiety         '(C88 H64 Cu12 N24 O260 P8 W72)n'
_symmetry_cell_setting           triclinic
_symmetry_space_group_name_H-M   'P 1'
_symmetry_Int_Tables_number      1
_space_group_name_Hall           'P 1'
loop_
_symmetry_equiv_pos_site_id
_symmetry_equiv_pos_as_xyz
1 x,y,z
_cell_length_a                   19.840(5)
_cell_length_b                   21.933(5)
_cell_length_c                   21.739(5)
_cell_angle_alpha                90
_cell_angle_beta                 90
_cell_angle_gamma                90
_cell_volume                     9459.74
loop_
_atom_site_label
_atom_site_type_symbol
_atom_site_fract_x
_atom_site_fract_y
_atom_site_fract_z
W1 W 0.09423(6) 0.09064(6) 0.27531(6)
W2 W 0.09443(7) 0.16613(6) 0.40917(6)
W3 W 0.24660(11) 0.2500 0.36100(11)
W4 W 0.09431(8) 0.17377(6) 0.12870(6)
W5 W 0.24753(8) 0.17348(7) 0.22531(8)
Cu1 Cu 0.2500 0.0000 0.2507(2)
P1 P 0.0997(6) 0.2500 0.2705(5)
O1 O 0.0763(12) 0.2500 0.2048(10)
O2 O -0.0000 0.0863(13) 0.2866(13)
O3 O 0.0784(9) 0.1946(10) 0.3030(8)
O4 O 0.0000 0.1858(19) 0.1176(18)
O5 O 0.3052(19) 0.2500 0.4160(18)
O6 O 0.3089(12) 0.1260(10) 0.1983(13)
O7 O 0.0769(10) 0.1205(11) 0.1957(9)
O8 O 0.1818(12) 0.1916(10) 0.3881(11)
O9 O 0.1101(14) 0.1383(12) 0.4805(10)
N1 N 0.2500 0.0000 0.3358(14)
O10 O 0.0000 0.1547(13) 0.4077(12)
O11 O 0.2836(14) 0.2500 0.1958(14)
O12 O 0.1845(12) 0.1780(10) 0.1604(10)
O13 O 0.0775(13) 0.2500 0.4254(11)
O14 O 0.1091(15) 0.2500 0.0878(14)
O15 O 0.1087(13) 0.1256(12) 0.0662(10)
O16 O 0.1068(10) 0.0936(10) 0.3619(8)
O17 O 0.1836(11) 0.1207(10) 0.2608(9)
O18 O 0.1769(15) 0.2500 0.2725(12)
N2 N 0.2500 0.0000 0.1651(15)
O19 O 0.1102(10) 0.0152(11) 0.2599(11)
O20 O 0.2837(11) 0.1888(13) 0.3061(13)
C1 C 0.3031(17) 0.001(2) 0.1319(14)
H1 H 0.3441 0.0043 0.1522
C2 C 0.2500 0.0000 0.036(2)
C3 C 0.263(2) 0.0532(16) 0.4311(15)
H2 H 0.2721 0.0899 0.4508
C4 C 0.2500 0.0000 0.4660(18)
C6 C 0.262(2) 0.0504(19) 0.3718(19)
H4 H 0.2715 0.0865 0.3510
W6 W 0.09423(6) 0.40936(6) 0.27531(6)
W10 W 0.40577(6) 0.59064(6) 0.27531(6)
W11 W 0.09443(7) 0.33387(6) 0.40917(6)
W15 W 0.09431(8) 0.32623(6) 0.12870(6)
W18 W 0.24753(8) 0.32652(7) 0.22531(8)
Cu2 Cu 0.2500 0.5000 0.2507(2)
Cu3 Cu 0.2500 0.0000 0.7493(2)
O22 O -0.0000 0.4137(13) 0.2866(13)
O23 O 0.0784(9) 0.3054(10) 0.3030(8)
O26 O 0.0000 0.3142(19) 0.1176(18)
O28 O 0.3089(12) 0.3740(10) 0.1983(13)
O31 O 0.0769(10) 0.3795(11) 0.1957(9)
O34 O 0.1818(12) 0.3084(10) 0.3881(11)
O37 O 0.1101(14) 0.3617(12) 0.4805(10)
N3 N 0.2500 0.0000 0.6642(14)
N4 N 0.2500 0.5000 0.3358(14)
O40 O 0.0000 0.3453(13) 0.4077(12)
O42 O 0.1845(12) 0.3220(10) 0.1604(10)
O47 O 0.1087(13) 0.3744(12) 0.0662(10)
O50 O 0.1068(10) 0.4064(10) 0.3619(8)
O53 O 0.1836(11) 0.3793(10) 0.2608(9)
N6 N 0.2500 0.5000 0.1651(15)
O57 O 0.1102(10) 0.4848(11) 0.2599(11)
O59 O 0.3898(10) 0.5152(11) 0.2599(11)
O62 O 0.2837(11) 0.3112(13) 0.3061(13)
C13 C 0.237(2) 0.0532(16) 0.5689(15)
H10 H 0.2279 0.0899 0.5492
C14 C 0.2500 0.0000 0.5340(18)
C17 C 0.1949(19) 0.003(2) 0.0672(15)
H13 H 0.1538 0.0069 0.0471
C20 C 0.238(2) 0.0504(19) 0.6282(19)
H15 H 0.2285 0.0865 0.6490
N5 N 0.2500 -0.0000 0.8349(15)
C8 C 0.1969(17) 0.001(2) 0.8681(14)
H5 H 0.1559 0.0043 0.8478
C10 C 0.2500 0.0000 0.964(2)
C15 C 0.3051(19) 0.003(2) 0.9328(15)
H12 H 0.3462 0.0069 0.9529
Cu1_2 Cu 0.2500 1.0000 0.2507(2)
N1_2 N 0.2500 1.0000 0.3358(14)
N2_2 N 0.2500 1.0000 0.1651(15)
C2_2 C 0.2500 1.0000 0.036(2)
C4_2 C 0.2500 1.0000 0.4660(18)
C5 C 0.3051(19) 0.997(2) 0.0672(15)
H3 H 0.3462 0.9931 0.0471
W9 W 0.40577(6) 0.90936(6) 0.27531(6)
Cu3_2 Cu 0.2500 1.0000 0.7493(2)
N3_2 N 0.2500 1.0000 0.6642(14)
O58 O 0.3898(10) 0.9848(11) 0.2599(11)
C9 C 0.1969(17) 0.999(2) 0.1319(14)
H7 H 0.1559 0.9957 0.1522
C11 C 0.237(2) 0.9468(16) 0.4311(15)
C12 C 0.263(2) 0.9468(16) 0.5689(15)
H8 H 0.2279 0.9101 0.4508
H9 H 0.2721 0.9101 0.5492
C14_2 C 0.2500 1.0000 0.5340(18)
C18 C 0.238(2) 0.9496(19) 0.3718(19)
C19 C 0.262(2) 0.9496(19) 0.6282(19)
H14 H 0.2285 0.9135 0.3510
H16 H 0.2715 0.9135 0.6490
N5_2 N 0.2500 1.0000 0.8349(15)
C7 C 0.3031(17) 0.999(2) 0.8681(14)
H6 H 0.3441 0.9957 0.8478
C10_2 C 0.2500 1.0000 0.964(2)
C16 C 0.1949(19) 0.997(2) 0.9328(15)
H11 H 0.1538 0.9931 0.9529
O2_2 O 1.0000 0.0863(13) 0.2866(13)
O4_2 O 1.0000 0.1858(19) 0.1176(18)
O10_2 O 1.0000 0.1547(13) 0.4077(12)
W7 W 0.90577(6) 0.09064(6) 0.27531(6)
W8 W 0.90577(6) 0.40936(6) 0.27531(6)
W12 W 0.90557(7) 0.16613(6) 0.40917(6)
W13 W 0.90557(7) 0.33387(6) 0.40917(6)
W14 W 0.75340(11) 0.2500 0.36100(11)
W16 W 0.90569(8) 0.17377(6) 0.12870(6)
W17 W 0.90569(8) 0.32623(6) 0.12870(6)
W19 W 0.75247(8) 0.17348(7) 0.22531(8)
W20 W 0.75247(8) 0.32652(7) 0.22531(8)
P2 P 0.9003(6) 0.2500 0.2705(5)
O21 O 0.9237(12) 0.2500 0.2048(10)
O22_2 O 1.0000 0.4137(13) 0.2866(13)
O24 O 0.9216(9) 0.1946(10) 0.3030(8)
O25 O 0.9216(9) 0.3054(10) 0.3030(8)
O26_2 O 1.0000 0.3142(19) 0.1176(18)
O27 O 0.6948(19) 0.2500 0.4160(18)
O29 O 0.6911(12) 0.1260(10) 0.1983(13)
O30 O 0.6911(12) 0.3740(10) 0.1983(13)
O32 O 0.9231(10) 0.1205(11) 0.1957(9)
O33 O 0.9231(10) 0.3795(11) 0.1957(9)
O35 O 0.8182(12) 0.1916(10) 0.3881(11)
O36 O 0.8182(12) 0.3084(10) 0.3881(11)
O38 O 0.8899(14) 0.1383(12) 0.4805(10)
O39 O 0.8899(14) 0.3617(12) 0.4805(10)
O40_2 O 1.0000 0.3453(13) 0.4077(12)
O41 O 0.7164(14) 0.2500 0.1958(14)
O43 O 0.8155(12) 0.1780(10) 0.1604(10)
O44 O 0.8155(12) 0.3220(10) 0.1604(10)
O45 O 0.9225(13) 0.2500 0.4254(11)
O46 O 0.8909(15) 0.2500 0.0878(14)
O48 O 0.8913(13) 0.1256(12) 0.0662(10)
O49 O 0.8913(13) 0.3744(12) 0.0662(10)
O51 O 0.8932(10) 0.0936(10) 0.3619(8)
O52 O 0.8932(10) 0.4064(10) 0.3619(8)
O54 O 0.8164(11) 0.1207(10) 0.2608(9)
O55 O 0.8164(11) 0.3793(10) 0.2608(9)
O56 O 0.8231(15) 0.2500 0.2725(12)
O60 O 0.8898(10) 0.0152(11) 0.2599(11)
O61 O 0.8898(10) 0.4848(11) 0.2599(11)
O63 O 0.7163(11) 0.1888(13) 0.3061(13)
O64 O 0.7163(11) 0.3112(13) 0.3061(13)
Cu2_2 Cu 0.7500 0.0000 0.2507(2)
N4_2 N 0.7500 0.0000 0.3358(14)
N6_2 N 0.7500 0.0000 0.1651(15)
W1_2 W 0.59423(6) 0.59064(6) 0.27531(6)
W2_2 W 0.59443(7) 0.66613(6) 0.40917(6)
W3_2 W 0.74660(11) 0.7500 0.36100(11)
W4_2 W 0.59431(8) 0.67377(6) 0.12870(6)
W5_2 W 0.74753(8) 0.67348(7) 0.22531(8)
Cu1_3 Cu 0.7500 0.5000 0.2507(2)
P1_2 P 0.5997(6) 0.7500 0.2705(5)
O1_2 O 0.5763(12) 0.7500 0.2048(10)
O2_3 O 0.5000 0.5863(13) 0.2866(13)
O3_2 O 0.5784(9) 0.6946(10) 0.3030(8)
O4_3 O 0.5000 0.6858(19) 0.1176(18)
O5_2 O 0.8052(19) 0.7500 0.4160(18)
O6_2 O 0.8089(12) 0.6260(10) 0.1983(13)
O7_2 O 0.5769(10) 0.6205(11) 0.1957(9)
O8_2 O 0.6818(12) 0.6916(10) 0.3881(11)
O9_2 O 0.6101(14) 0.6383(12) 0.4805(10)
N1_3 N 0.7500 0.5000 0.3358(14)
O10_3 O 0.5000 0.6547(13) 0.4077(12)
O11_2 O 0.7836(14) 0.7500 0.1958(14)
O12_2 O 0.6845(12) 0.6780(10) 0.1604(10)
O13_2 O 0.5775(13) 0.7500 0.4254(11)
O14_2 O 0.6091(15) 0.7500 0.0878(14)
O15_2 O 0.6087(13) 0.6256(12) 0.0662(10)
O16_2 O 0.6068(10) 0.5936(10) 0.3619(8)
O17_2 O 0.6836(11) 0.6207(10) 0.2608(9)
O18_2 O 0.6769(15) 0.7500 0.2725(12)
N2_3 N 0.7500 0.5000 0.1651(15)
O19_2 O 0.6102(10) 0.5152(11) 0.2599(11)
O20_2 O 0.7837(11) 0.6888(13) 0.3061(13)
C1_2 C 0.8031(17) 0.501(2) 0.1319(14)
H1_2 H 0.8441 0.5043 0.1522
C2_3 C 0.7500 0.5000 0.036(2)
C3_2 C 0.763(2) 0.5532(16) 0.4311(15)
H2_2 H 0.7721 0.5899 0.4508
C4_3 C 0.7500 0.5000 0.4660(18)
C5_2 C 0.8051(19) 0.497(2) 0.0672(15)
H3_2 H 0.8462 0.4931 0.0471
C6_2 C 0.762(2) 0.5504(19) 0.3718(19)
H4_2 H 0.7715 0.5865 0.3510
W6_2 W 0.59423(6) 0.90936(6) 0.27531(6)
W11_2 W 0.59443(7) 0.83387(6) 0.40917(6)
W12_2 W 0.40557(7) 0.66613(6) 0.40917(6)
W13_2 W 0.40557(7) 0.83387(6) 0.40917(6)
W14_2 W 0.25340(11) 0.7500 0.36100(11)
W15_2 W 0.59431(8) 0.82623(6) 0.12870(6)
W16_2 W 0.40569(8) 0.67377(6) 0.12870(6)
W17_2 W 0.40569(8) 0.82623(6) 0.12870(6)
W18_2 W 0.74753(8) 0.82652(7) 0.22531(8)
W19_2 W 0.25247(8) 0.67348(7) 0.22531(8)
W20_2 W 0.25247(8) 0.82652(7) 0.22531(8)
Cu2_3 Cu 0.7500 1.0000 0.2507(2)
Cu3_3 Cu 0.7500 0.5000 0.7493(2)
P2_2 P 0.4003(6) 0.7500 0.2705(5)
O21_2 O 0.4237(12) 0.7500 0.2048(10)
O22_3 O 0.5000 0.9137(13) 0.2866(13)
O23_2 O 0.5784(9) 0.8054(10) 0.3030(8)
O24_2 O 0.4216(9) 0.6946(10) 0.3030(8)
O25_2 O 0.4216(9) 0.8054(10) 0.3030(8)
O26_3 O 0.5000 0.8142(19) 0.1176(18)
O27_2 O 0.1948(19) 0.7500 0.4160(18)
O28_2 O 0.8089(12) 0.8740(10) 0.1983(13)
O29_2 O 0.1911(12) 0.6260(10) 0.1983(13)
O30_2 O 0.1911(12) 0.8740(10) 0.1983(13)
O31_2 O 0.5769(10) 0.8795(11) 0.1957(9)
O32_2 O 0.4231(10) 0.6205(11) 0.1957(9)
O33_2 O 0.4231(10) 0.8795(11) 0.1957(9)
O34_2 O 0.6818(12) 0.8084(10) 0.3881(11)
O35_2 O 0.3182(12) 0.6916(10) 0.3881(11)
O36_2 O 0.3182(12) 0.8084(10) 0.3881(11)
O37_2 O 0.6101(14) 0.8617(12) 0.4805(10)
O38_2 O 0.3899(14) 0.6383(12) 0.4805(10)
O39_2 O 0.3899(14) 0.8617(12) 0.4805(10)
N3_3 N 0.7500 0.5000 0.6642(14)
N4_3 N 0.7500 1.0000 0.3358(14)
O40_3 O 0.5000 0.8453(13) 0.4077(12)
O41_2 O 0.2164(14) 0.7500 0.1958(14)
O42_2 O 0.6845(12) 0.8220(10) 0.1604(10)
O43_2 O 0.3155(12) 0.6780(10) 0.1604(10)
O44_2 O 0.3155(12) 0.8220(10) 0.1604(10)
O45_2 O 0.4225(13) 0.7500 0.4254(11)
O46_2 O 0.3909(15) 0.7500 0.0878(14)
O47_2 O 0.6087(13) 0.8744(12) 0.0662(10)
O48_2 O 0.3913(13) 0.6256(12) 0.0662(10)
O49_2 O 0.3913(13) 0.8744(12) 0.0662(10)
O50_2 O 0.6068(10) 0.9064(10) 0.3619(8)
O51_2 O 0.3932(10) 0.5936(10) 0.3619(8)
O52_2 O 0.3932(10) 0.9064(10) 0.3619(8)
O53_2 O 0.6836(11) 0.8793(10) 0.2608(9)
O54_2 O 0.3164(11) 0.6207(10) 0.2608(9)
O55_2 O 0.3164(11) 0.8793(10) 0.2608(9)
O56_2 O 0.3231(15) 0.7500 0.2725(12)
N6_3 N 0.7500 1.0000 0.1651(15)
O57_2 O 0.6102(10) 0.9848(11) 0.2599(11)
O62_2 O 0.7837(11) 0.8112(13) 0.3061(13)
O63_2 O 0.2163(11) 0.6888(13) 0.3061(13)
O64_2 O 0.2163(11) 0.8112(13) 0.3061(13)
C9_2 C 0.6969(17) 0.499(2) 0.1319(14)
H7_2 H 0.6559 0.4957 0.1522
C11_2 C 0.737(2) 0.4468(16) 0.4311(15)
C12_2 C 0.763(2) 0.4468(16) 0.5689(15)
C13_2 C 0.737(2) 0.5532(16) 0.5689(15)
H8_2 H 0.7279 0.4101 0.4508
H9_2 H 0.7721 0.4101 0.5492
H10_2 H 0.7279 0.5899 0.5492
C14_3 C 0.7500 0.5000 0.5340(18)
C17_2 C 0.6949(19) 0.503(2) 0.0672(15)
H13_2 H 0.6538 0.5069 0.0471
C18_2 C 0.738(2) 0.4496(19) 0.3718(19)
C19_2 C 0.762(2) 0.4496(19) 0.6282(19)
C20_2 C 0.738(2) 0.5504(19) 0.6282(19)
H14_2 H 0.7285 0.4135 0.3510
H15_2 H 0.7285 0.5865 0.6490
H16_2 H 0.7715 0.4135 0.6490
N5_3 N 0.7500 0.5000 0.8349(15)
C7_2 C 0.8031(17) 0.499(2) 0.8681(14)
C8_2 C 0.6969(17) 0.501(2) 0.8681(14)
H5_2 H 0.6559 0.5043 0.8478
H6_2 H 0.8441 0.4957 0.8478
C10_3 C 0.7500 0.5000 0.964(2)
C15_2 C 0.8051(19) 0.503(2) 0.9328(15)
C16_2 C 0.6949(19) 0.497(2) 0.9328(15)
H11_2 H 0.6538 0.4931 0.9529
H12_2 H 0.8462 0.5069 0.9529
W9_2 W 0.40577(6) 0.09064(6) 0.72469(6)
O58_2 O 0.3898(10) 0.0152(11) 0.7401(11)
W1_3 W 0.09423(6) 0.90936(6) 0.72469(6)
W2_3 W 0.09443(7) 0.83387(6) 0.59083(6)
W3_3 W 0.24660(11) 0.7500 0.63900(11)
W4_3 W 0.09431(8) 0.82623(6) 0.87130(6)
W5_3 W 0.24753(8) 0.82652(7) 0.77469(8)
P1_3 P 0.0997(6) 0.7500 0.7295(5)
O1_3 O 0.0763(12) 0.7500 0.7952(10)
O2_4 O 0.0000 0.9137(13) 0.7134(13)
O3_3 O 0.0784(9) 0.8054(10) 0.6970(8)
O4_4 O 0.0000 0.8142(19) 0.8824(18)
O5_3 O 0.3052(19) 0.7500 0.5840(18)
O6_3 O 0.3089(12) 0.8740(10) 0.8017(13)
O7_3 O 0.0769(10) 0.8795(11) 0.8043(9)
O8_3 O 0.1818(12) 0.8084(10) 0.6119(11)
O9_3 O 0.1101(14) 0.8617(12) 0.5195(10)
O10_4 O 0.0000 0.8453(13) 0.5923(12)
O11_3 O 0.2836(14) 0.7500 0.8042(14)
O12_3 O 0.1845(12) 0.8220(10) 0.8396(10)
O13_3 O 0.0775(13) 0.7500 0.5746(11)
O14_3 O 0.1091(15) 0.7500 0.9122(14)
O15_3 O 0.1087(13) 0.8744(12) 0.9338(10)
O16_3 O 0.1068(10) 0.9064(10) 0.6381(8)
O17_3 O 0.1836(11) 0.8793(10) 0.7392(9)
O18_3 O 0.1769(15) 0.7500 0.7275(12)
O19_3 O 0.1102(10) 0.9848(11) 0.7401(11)
O20_3 O 0.2837(11) 0.8112(13) 0.6939(13)
W6_3 W 0.09423(6) 0.59064(6) 0.72469(6)
W10_2 W 0.40577(6) 0.40936(6) 0.72469(6)
W11_3 W 0.09443(7) 0.66613(6) 0.59083(6)
W15_3 W 0.09431(8) 0.67377(6) 0.87130(6)
W18_3 W 0.24753(8) 0.67348(7) 0.77469(8)
Cu2_4 Cu 0.2500 0.5000 0.7493(2)
O22_4 O 0.0000 0.5863(13) 0.7134(13)
O23_3 O 0.0784(9) 0.6946(10) 0.6970(8)
O26_4 O 0.0000 0.6858(19) 0.8824(18)
O28_3 O 0.3089(12) 0.6260(10) 0.8017(13)
O31_3 O 0.0769(10) 0.6205(11) 0.8043(9)
O34_3 O 0.1818(12) 0.6916(10) 0.6119(11)
O37_3 O 0.1101(14) 0.6383(12) 0.5195(10)
N4_4 N 0.2500 0.5000 0.6642(14)
O40_4 O 0.0000 0.6547(13) 0.5923(12)
O42_3 O 0.1845(12) 0.6780(10) 0.8396(10)
O47_3 O 0.1087(13) 0.6256(12) 0.9338(10)
O50_3 O 0.1068(10) 0.5936(10) 0.6381(8)
O53_3 O 0.1836(11) 0.6207(10) 0.7392(9)
N6_4 N 0.2500 0.5000 0.8349(15)
O57_3 O 0.1102(10) 0.5152(11) 0.7401(11)
O59_2 O 0.3898(10) 0.4848(11) 0.7401(11)
O62_3 O 0.2837(11) 0.6888(13) 0.6939(13)
O2_5 O 1.0000 0.9137(13) 0.7134(13)
O4_5 O 1.0000 0.8142(19) 0.8824(18)
O10_5 O 1.0000 0.8453(13) 0.5923(12)
W7_2 W 0.90577(6) 0.90936(6) 0.72469(6)
W8_2 W 0.90577(6) 0.59064(6) 0.72469(6)
W12_3 W 0.90557(7) 0.83387(6) 0.59083(6)
W13_3 W 0.90557(7) 0.66613(6) 0.59083(6)
W14_3 W 0.75340(11) 0.7500 0.63900(11)
W16_3 W 0.90569(8) 0.82623(6) 0.87130(6)
W17_3 W 0.90569(8) 0.67377(6) 0.87130(6)
W19_3 W 0.75247(8) 0.82652(7) 0.77469(8)
W20_3 W 0.75247(8) 0.67348(7) 0.77469(8)
P2_3 P 0.9003(6) 0.7500 0.7295(5)
O21_3 O 0.9237(12) 0.7500 0.7952(10)
O22_5 O 1.0000 0.5863(13) 0.7134(13)
O24_3 O 0.9216(9) 0.8054(10) 0.6970(8)
O25_3 O 0.9216(9) 0.6946(10) 0.6970(8)
O26_5 O 1.0000 0.6858(19) 0.8824(18)
O27_3 O 0.6948(19) 0.7500 0.5840(18)
O29_3 O 0.6911(12) 0.8740(10) 0.8017(13)
O30_3 O 0.6911(12) 0.6260(10) 0.8017(13)
O32_3 O 0.9231(10) 0.8795(11) 0.8043(9)
O33_3 O 0.9231(10) 0.6205(11) 0.8043(9)
O35_3 O 0.8182(12) 0.8084(10) 0.6119(11)
O36_3 O 0.8182(12) 0.6916(10) 0.6119(11)
O38_3 O 0.8899(14) 0.8617(12) 0.5195(10)
O39_3 O 0.8899(14) 0.6383(12) 0.5195(10)
O40_5 O 1.0000 0.6547(13) 0.5923(12)
O41_3 O 0.7164(14) 0.7500 0.8042(14)
O43_3 O 0.8155(12) 0.8220(10) 0.8396(10)
O44_3 O 0.8155(12) 0.6780(10) 0.8396(10)
O45_3 O 0.9225(13) 0.7500 0.5746(11)
O46_3 O 0.8909(15) 0.7500 0.9122(14)
O48_3 O 0.8913(13) 0.8744(12) 0.9338(10)
O49_3 O 0.8913(13) 0.6256(12) 0.9338(10)
O51_3 O 0.8932(10) 0.9064(10) 0.6381(8)
O52_3 O 0.8932(10) 0.5936(10) 0.6381(8)
O54_3 O 0.8164(11) 0.8793(10) 0.7392(9)
O55_3 O 0.8164(11) 0.6207(10) 0.7392(9)
O56_3 O 0.8231(15) 0.7500 0.7275(12)
O60_2 O 0.8898(10) 0.9848(11) 0.7401(11)
O61_2 O 0.8898(10) 0.5152(11) 0.7401(11)
O63_3 O 0.7163(11) 0.8112(13) 0.6939(13)
O64_3 O 0.7163(11) 0.6888(13) 0.6939(13)
W2_4 W 0.40557(7) 0.16613(6) 0.59083(6)
W3_4 W 0.25340(11) 0.2500 0.63900(11)
W4_4 W 0.40569(8) 0.17377(6) 0.87130(6)
W5_4 W 0.25247(8) 0.17348(7) 0.77469(8)
P1_4 P 0.4003(6) 0.2500 0.7295(5)
O1_4 O 0.4237(12) 0.2500 0.7952(10)
O2_6 O 0.5000 0.0863(13) 0.7134(13)
O3_4 O 0.4216(9) 0.1946(10) 0.6970(8)
O4_6 O 0.5000 0.1858(19) 0.8824(18)
O5_4 O 0.1948(19) 0.2500 0.5840(18)
O6_4 O 0.1911(12) 0.1260(10) 0.8017(13)
O7_4 O 0.4231(10) 0.1205(11) 0.8043(9)
O8_4 O 0.3182(12) 0.1916(10) 0.6119(11)
O9_4 O 0.3899(14) 0.1383(12) 0.5195(10)
O10_6 O 0.5000 0.1547(13) 0.5923(12)
O11_4 O 0.2164(14) 0.2500 0.8042(14)
O12_4 O 0.3155(12) 0.1780(10) 0.8396(10)
O13_4 O 0.4225(13) 0.2500 0.5746(11)
O14_4 O 0.3909(15) 0.2500 0.9122(14)
O15_4 O 0.3913(13) 0.1256(12) 0.9338(10)
O16_4 O 0.3932(10) 0.0936(10) 0.6381(8)
O17_4 O 0.3164(11) 0.1207(10) 0.7392(9)
O18_4 O 0.3231(15) 0.2500 0.7275(12)
O20_4 O 0.2163(11) 0.1888(13) 0.6939(13)
W7_3 W 0.59423(6) 0.09064(6) 0.72469(6)
W8_3 W 0.59423(6) 0.40936(6) 0.72469(6)
W11_4 W 0.40557(7) 0.33387(6) 0.59083(6)
W12_4 W 0.59443(7) 0.16613(6) 0.59083(6)
W13_4 W 0.59443(7) 0.33387(6) 0.59083(6)
W14_4 W 0.74660(11) 0.2500 0.63900(11)
W15_4 W 0.40569(8) 0.32623(6) 0.87130(6)
W16_4 W 0.59431(8) 0.17377(6) 0.87130(6)
W17_4 W 0.59431(8) 0.32623(6) 0.87130(6)
W18_4 W 0.25247(8) 0.32652(7) 0.77469(8)
W19_4 W 0.74753(8) 0.17348(7) 0.77469(8)
W20_4 W 0.74753(8) 0.32652(7) 0.77469(8)
P2_4 P 0.5997(6) 0.2500 0.7295(5)
O21_4 O 0.5763(12) 0.2500 0.7952(10)
O22_6 O 0.5000 0.4137(13) 0.7134(13)
O23_4 O 0.4216(9) 0.3054(10) 0.6970(8)
O24_4 O 0.5784(9) 0.1946(10) 0.6970(8)
O25_4 O 0.5784(9) 0.3054(10) 0.6970(8)
O26_6 O 0.5000 0.3142(19) 0.8824(18)
O27_4 O 0.8052(19) 0.2500 0.5840(18)
O28_4 O 0.1911(12) 0.3740(10) 0.8017(13)
O29_4 O 0.8089(12) 0.1260(10) 0.8017(13)
O30_4 O 0.8089(12) 0.3740(10) 0.8017(13)
O31_4 O 0.4231(10) 0.3795(11) 0.8043(9)
O32_4 O 0.5769(10) 0.1205(11) 0.8043(9)
O33_4 O 0.5769(10) 0.3795(11) 0.8043(9)
O34_4 O 0.3182(12) 0.3084(10) 0.6119(11)
O35_4 O 0.6818(12) 0.1916(10) 0.6119(11)
O36_4 O 0.6818(12) 0.3084(10) 0.6119(11)
O37_4 O 0.3899(14) 0.3617(12) 0.5195(10)
O38_4 O 0.6101(14) 0.1383(12) 0.5195(10)
O39_4 O 0.6101(14) 0.3617(12) 0.5195(10)
O40_6 O 0.5000 0.3453(13) 0.5923(12)
O41_4 O 0.7836(14) 0.2500 0.8042(14)
O42_4 O 0.3155(12) 0.3220(10) 0.8396(10)
O43_4 O 0.6845(12) 0.1780(10) 0.8396(10)
O44_4 O 0.6845(12) 0.3220(10) 0.8396(10)
O45_4 O 0.5775(13) 0.2500 0.5746(11)
O46_4 O 0.6091(15) 0.2500 0.9122(14)
O47_4 O 0.3913(13) 0.3744(12) 0.9338(10)
O48_4 O 0.6087(13) 0.1256(12) 0.9338(10)
O49_4 O 0.6087(13) 0.3744(12) 0.9338(10)
O50_4 O 0.3932(10) 0.4064(10) 0.6381(8)
O51_4 O 0.6068(10) 0.0936(10) 0.6381(8)
O52_4 O 0.6068(10) 0.4064(10) 0.6381(8)
O53_4 O 0.3164(11) 0.3793(10) 0.7392(9)
O54_4 O 0.6836(11) 0.1207(10) 0.7392(9)
O55_4 O 0.6836(11) 0.3793(10) 0.7392(9)
O56_4 O 0.6769(15) 0.2500 0.7275(12)
O60_3 O 0.6102(10) 0.0152(11) 0.7401(11)
O61_3 O 0.6102(10) 0.4848(11) 0.7401(11)
O62_4 O 0.2163(11) 0.3112(13) 0.6939(13)
O63_4 O 0.7837(11) 0.1888(13) 0.6939(13)
O64_4 O 0.7837(11) 0.3112(13) 0.6939(13)
Cu2_5 Cu 0.7500 0.0000 0.7493(2)
N4_5 N 0.7500 0.0000 0.6642(14)
N6_5 N 0.7500 -0.0000 0.8349(15)
Cu2_6 Cu 0.7500 1.0000 0.7493(2)
N4_6 N 0.7500 1.0000 0.6642(14)
N6_6 N 0.7500 1.0000 0.8349(15)
C7_3 C 0.6969(17) 0.001(2) 0.1319(14)
H6_3 H 0.6559 0.0043 0.1522
C10_4 C 0.7500 0.0000 0.036(2)
C16_3 C 0.8051(19) 0.003(2) 0.0672(15)
H11_3 H 0.8462 0.0069 0.0471
C2_4 C 0.7500 0.0000 0.964(2)
C4_4 C 0.7500 -0.0000 0.5340(18)
C5_3 C 0.6949(19) 0.003(2) 0.9328(15)
H3_3 H 0.6538 0.0069 0.9529
C9_3 C 0.8031(17) 0.001(2) 0.8681(14)
H7_3 H 0.8441 0.0043 0.8478
C11_3 C 0.763(2) 0.0532(16) 0.5689(15)
C12_3 C 0.737(2) 0.0532(16) 0.4311(15)
H8_3 H 0.7721 0.0899 0.5492
H9_3 H 0.7279 0.0899 0.4508
C14_4 C 0.7500 -0.0000 0.4660(18)
C18_3 C 0.762(2) 0.0504(19) 0.6282(19)
C19_3 C 0.738(2) 0.0504(19) 0.3718(19)
H14_3 H 0.7715 0.0865 0.6490
H16_3 H 0.7285 0.0865 0.3510
C8_3 C 0.8031(17) 0.999(2) 0.1319(14)
H5_3 H 0.8441 0.9957 0.1522
C10_5 C 0.7500 1.0000 0.036(2)
C15_3 C 0.6949(19) 0.997(2) 0.0672(15)
H12_3 H 0.6538 0.9931 0.0471
C1_3 C 0.6969(17) 0.999(2) 0.8681(14)
H1_3 H 0.6559 0.9957 0.8478
C2_5 C 0.7500 1.0000 0.964(2)
C3_3 C 0.737(2) 0.9468(16) 0.5689(15)
H2_3 H 0.7279 0.9101 0.5492
C4_5 C 0.7500 1.0000 0.5340(18)
C6_3 C 0.738(2) 0.9496(19) 0.6282(19)
H4_3 H 0.7285 0.9135 0.6490
C13_3 C 0.763(2) 0.9468(16) 0.4311(15)
H10_3 H 0.7721 0.9101 0.4508
C14_5 C 0.7500 1.0000 0.4660(18)
C17_3 C 0.8051(19) 0.997(2) 0.9328(15)
H13_3 H 0.8462 0.9931 0.9529
C20_3 C 0.762(2) 0.9496(19) 0.3718(19)
H15_3 H 0.7715 0.9135 0.3510
C7_4 C 0.1969(17) 0.501(2) 0.1319(14)
C8_4 C 0.3031(17) 0.499(2) 0.1319(14)
H5_4 H 0.3441 0.4957 0.1522
H6_4 H 0.1559 0.5043 0.1522
C10_6 C 0.2500 0.5000 0.036(2)
C15_4 C 0.1949(19) 0.497(2) 0.0672(15)
C16_4 C 0.3051(19) 0.503(2) 0.0672(15)
H11_4 H 0.3462 0.5069 0.0471
H12_4 H 0.1538 0.4931 0.0471
C1_4 C 0.1969(17) 0.499(2) 0.8681(14)
H1_4 H 0.1559 0.4957 0.8478
C2_6 C 0.2500 0.5000 0.964(2)
C3_4 C 0.237(2) 0.4468(16) 0.5689(15)
H2_4 H 0.2279 0.4101 0.5492
C4_6 C 0.2500 0.5000 0.5340(18)
C5_4 C 0.1949(19) 0.503(2) 0.9328(15)
H3_4 H 0.1538 0.5069 0.9529
C6_4 C 0.238(2) 0.4496(19) 0.6282(19)
H4_4 H 0.2285 0.4135 0.6490
C9_4 C 0.3031(17) 0.501(2) 0.8681(14)
H7_4 H 0.3441 0.5043 0.8478
C11_4 C 0.263(2) 0.5532(16) 0.5689(15)
C12_4 C 0.237(2) 0.5532(16) 0.4311(15)
C13_4 C 0.263(2) 0.4468(16) 0.4311(15)
H8_4 H 0.2721 0.5899 0.5492
H9_4 H 0.2279 0.5899 0.4508
H10_4 H 0.2721 0.4101 0.4508
C14_6 C 0.2500 0.5000 0.4660(18)
C17_4 C 0.3051(19) 0.497(2) 0.9328(15)
H13_4 H 0.3462 0.4931 0.9529
C18_4 C 0.262(2) 0.5504(19) 0.6282(19)
C19_4 C 0.238(2) 0.5504(19) 0.3718(19)
C20_4 C 0.262(2) 0.4496(19) 0.3718(19)
H14_4 H 0.2715 0.5865 0.6490
H15_4 H 0.2715 0.4135 0.3510
H16_4 H 0.2285 0.5865 0.3510
loop_
_geom_bond_atom_site_label_1
_geom_bond_atom_site_label_2
_geom_bond_site_symmetry_1
_geom_bond_site_symmetry_2
W1 O2 1_555 1_555
W2 O3 1_555 1_555
W3 O5 1_555 1_555
W4 O1 1_555 1_555
W5 O6 1_555 1_555
Cu1 N1 1_555 1_555
P1 O1 1_555 1_555
O1 W15 1_555 1_555
O3 W1 1_555 1_555
O4 W4 1_555 1_555
O7 W1 1_555 1_555
O8 W2 1_555 1_555
O9 W2 1_555 1_555
N1 C6 1_555 1_555
O10 W2 1_555 1_555
O11 W5 1_555 1_555
O12 W4 1_555 1_555
O13 W2 1_555 1_555
O14 W4 1_555 1_555
O15 W4 1_555 1_555
O16 W1 1_555 1_555
O17 W1 1_555 1_555
O18 W3 1_555 1_555
N2 Cu1 1_555 1_555
O19 W1 1_555 1_555
O20 W3 1_555 1_555
C1 N2 1_555 1_555
H1 C1 1_555 1_555
C3 H2 1_555 1_555
C4 C3 1_555 1_555
C6 C3 1_555 1_555
H4 C6 1_555 1_555
W6 O22 1_555 1_555
W10 O59 1_555 1_555
W11 O13 1_555 1_555
W15 O14 1_555 1_555
W18 O11 1_555 1_555
Cu2 N4 1_555 1_555
Cu3 N3 1_555 1_555
O23 P1 1_555 1_555
O26 W15 1_555 1_555
O28 W18 1_555 1_555
O31 W6 1_555 1_555
O34 W3 1_555 1_555
O37 W11 1_555 1_555
O40 W11 1_555 1_555
O42 W15 1_555 1_555
O47 W15 1_555 1_555
O50 W6 1_555 1_555
O53 W6 1_555 1_555
N6 Cu2 1_555 1_555
O57 W6 1_555 1_555
O59 Cu2 1_555 1_555
O62 W3 1_555 1_555
C13 H10 1_555 1_555
C14 C4 1_555 1_555
C17 C2 1_555 1_555
H13 C17 1_555 1_555
C20 N3 1_555 1_555
H15 C20 1_555 1_555
W2 O16 1_555 1_555
W3 O8 1_555 1_555
W4 O7 1_555 1_555
W5 O12 1_555 1_555
W5 O17 1_555 1_555
W5 O18 1_555 1_555
W5 O20 1_555 1_555
Cu1 O19 1_555 1_555
P1 O3 1_555 1_555
P1 O18 1_555 1_555
O18 W18 1_555 1_555
W6 O23 1_555 1_555
W11 O23 1_555 1_555
W11 O34 1_555 1_555
W11 O50 1_555 1_555
W15 O31 1_555 1_555
W18 O42 1_555 1_555
W18 O53 1_555 1_555
W18 O62 1_555 1_555
Cu2 O57 1_555 1_555
C13 C14 1_555 1_555
C13 C20 1_555 1_555
Cu3 N5 1_555 1_555
C8 N5 1_555 1_555
H5 C8 1_555 1_555
H12 C15 1_555 1_555
C10 C15 1_555 1_555
Cu1_2 N1_2 1_555 1_555
N2_2 Cu1_2 1_555 1_555
C2_2 C5 1_555 1_555
H3 C5 1_555 1_555
W9 O58 1_555 1_555
Cu3_2 N3_2 1_555 1_555
N3_2 C19 1_555 1_555
O58 Cu1_2 1_555 1_555
C9 N2_2 1_555 1_555
H7 C9 1_555 1_555
C11 C4_2 1_555 1_555
C12 H9 1_555 1_555
H8 C11 1_555 1_555
C14_2 C4_2 1_555 1_555
C18 N1_2 1_555 1_555
C19 C12 1_555 1_555
H14 C18 1_555 1_555
H16 C19 1_555 1_555
C11 C18 1_555 1_555
C12 C14_2 1_555 1_555
Cu3_2 N5_2 1_555 1_555
N5_2 C7 1_555 1_555
C7 H6 1_555 1_555
H11 C16 1_555 1_555
C10_2 C16 1_555 1_555
O2_2 W7 1_555 1_555
W7 O24 1_555 1_555
W8 O22_2 1_555 1_555
W12 O10_2 1_555 1_555
W13 O25 1_555 1_555
W14 O27 1_555 1_555
W16 O4_2 1_555 1_555
W17 O21 1_555 1_555
W19 O29 1_555 1_555
W20 O30 1_555 1_555
P2 O21 1_555 1_555
O21 W16 1_555 1_555
O24 W12 1_555 1_555
O25 W8 1_555 1_555
O32 W7 1_555 1_555
O33 W8 1_555 1_555
O35 W12 1_555 1_555
O36 W13 1_555 1_555
O38 W12 1_555 1_555
O39 W13 1_555 1_555
O41 W19 1_555 1_555
O43 W16 1_555 1_555
O44 W17 1_555 1_555
O45 W12 1_555 1_555
O46 W16 1_555 1_555
O48 W16 1_555 1_555
O49 W17 1_555 1_555
O51 W7 1_555 1_555
O52 W8 1_555 1_555
O54 W7 1_555 1_555
O55 W8 1_555 1_555
O56 W14 1_555 1_555
O60 W7 1_555 1_555
O61 W8 1_555 1_555
O63 W14 1_555 1_555
O64 W14 1_555 1_555
W12 O51 1_555 1_555
W13 O40_2 1_555 1_555
W13 O45 1_555 1_555
W13 O52 1_555 1_555
W14 O35 1_555 1_555
W14 O36 1_555 1_555
W16 O32 1_555 1_555
W17 O26_2 1_555 1_555
W17 O33 1_555 1_555
W17 O46 1_555 1_555
W19 O43 1_555 1_555
W19 O54 1_555 1_555
W19 O56 1_555 1_555
W19 O63 1_555 1_555
W20 O41 1_555 1_555
W20 O44 1_555 1_555
W20 O55 1_555 1_555
W20 O56 1_555 1_555
W20 O64 1_555 1_555
P2 O24 1_555 1_555
P2 O25 1_555 1_555
P2 O56 1_555 1_555
Cu2_2 N4_2 1_555 1_555
N6_2 Cu2_2 1_555 1_555
O60 Cu2_2 1_555 1_555
W1_2 O2_3 1_555 1_555
W2_2 O3_2 1_555 1_555
W3_2 O5_2 1_555 1_555
W4_2 O1_2 1_555 1_555
W5_2 O6_2 1_555 1_555
Cu1_3 N1_3 1_555 1_555
P1_2 O1_2 1_555 1_555
O1_2 W15_2 1_555 1_555
O2_3 W10 1_555 1_555
O3_2 W1_2 1_555 1_555
O4_3 W4_2 1_555 1_555
O7_2 W1_2 1_555 1_555
O8_2 W2_2 1_555 1_555
O9_2 W2_2 1_555 1_555
N1_3 C6_2 1_555 1_555
O10_3 W2_2 1_555 1_555
O11_2 W5_2 1_555 1_555
O12_2 W4_2 1_555 1_555
O13_2 W2_2 1_555 1_555
O14_2 W4_2 1_555 1_555
O15_2 W4_2 1_555 1_555
O16_2 W1_2 1_555 1_555
O17_2 W1_2 1_555 1_555
O18_2 W3_2 1_555 1_555
N2_3 Cu1_3 1_555 1_555
O19_2 W1_2 1_555 1_555
O20_2 W3_2 1_555 1_555
C1_2 N2_3 1_555 1_555
H1_2 C1_2 1_555 1_555
C2_3 C5_2 1_555 1_555
C3_2 H2_2 1_555 1_555
C4_3 C3_2 1_555 1_555
C5_2 C1_2 1_555 1_555
H3_2 C5_2 1_555 1_555
C6_2 C3_2 1_555 1_555
H4_2 C6_2 1_555 1_555
W6_2 O22_3 1_555 1_555
W10 O24_2 1_555 1_555
W9 O22_3 1_555 1_555
W11_2 O13_2 1_555 1_555
W12_2 O10_3 1_555 1_555
W13_2 O25_2 1_555 1_555
W14_2 O27_2 1_555 1_555
W15_2 O14_2 1_555 1_555
W16_2 O4_3 1_555 1_555
W17_2 O21_2 1_555 1_555
W18_2 O11_2 1_555 1_555
W19_2 O29_2 1_555 1_555
W20_2 O30_2 1_555 1_555
Cu2_3 N4_3 1_555 1_555
Cu3_3 N3_3 1_555 1_555
P2_2 O21_2 1_555 1_555
O21_2 W16_2 1_555 1_555
O23_2 P1_2 1_555 1_555
O24_2 W12_2 1_555 1_555
O25_2 W9 1_555 1_555
O26_3 W15_2 1_555 1_555
O28_2 W18_2 1_555 1_555
O31_2 W6_2 1_555 1_555
O32_2 W10 1_555 1_555
O33_2 W9 1_555 1_555
O34_2 W3_2 1_555 1_555
O35_2 W12_2 1_555 1_555
O36_2 W13_2 1_555 1_555
O37_2 W11_2 1_555 1_555
O38_2 W12_2 1_555 1_555
O39_2 W13_2 1_555 1_555
N3_3 C19_2 1_555 1_555
O40_3 W11_2 1_555 1_555
O41_2 W19_2 1_555 1_555
O42_2 W15_2 1_555 1_555
O43_2 W16_2 1_555 1_555
O44_2 W17_2 1_555 1_555
O45_2 W12_2 1_555 1_555
O46_2 W16_2 1_555 1_555
O47_2 W15_2 1_555 1_555
O48_2 W16_2 1_555 1_555
O49_2 W17_2 1_555 1_555
O50_2 W6_2 1_555 1_555
O51_2 W10 1_555 1_555
O52_2 W9 1_555 1_555
O53_2 W6_2 1_555 1_555
O54_2 W10 1_555 1_555
O55_2 W9 1_555 1_555
O56_2 W14_2 1_555 1_555
N6_3 Cu2_3 1_555 1_555
O57_2 W6_2 1_555 1_555
O61 Cu1_3 1_555 1_555
O62_2 W3_2 1_555 1_555
O63_2 W14_2 1_555 1_555
O64_2 W14_2 1_555 1_555
C9_2 N2_3 1_555 1_555
H7_2 C9_2 1_555 1_555
C11_2 C4_3 1_555 1_555
C12_2 H9_2 1_555 1_555
C13_2 H10_2 1_555 1_555
H8_2 C11_2 1_555 1_555
C14_3 C4_3 1_555 1_555
C17_2 C2_3 1_555 1_555
H13_2 C17_2 1_555 1_555
C18_2 N1_3 1_555 1_555
C19_2 C12_2 1_555 1_555
C20_2 N3_3 1_555 1_555
H14_2 C18_2 1_555 1_555
H15_2 C20_2 1_555 1_555
H16_2 C19_2 1_555 1_555
W2_2 O16_2 1_555 1_555
W3_2 O8_2 1_555 1_555
W4_2 O7_2 1_555 1_555
W5_2 O12_2 1_555 1_555
W5_2 O17_2 1_555 1_555
W5_2 O18_2 1_555 1_555
W5_2 O20_2 1_555 1_555
Cu1_3 O19_2 1_555 1_555
P1_2 O3_2 1_555 1_555
P1_2 O18_2 1_555 1_555
O18_2 W18_2 1_555 1_555
W6_2 O23_2 1_555 1_555
W11_2 O23_2 1_555 1_555
W11_2 O34_2 1_555 1_555
W11_2 O50_2 1_555 1_555
W12_2 O51_2 1_555 1_555
W13_2 O40_3 1_555 1_555
W13_2 O45_2 1_555 1_555
W13_2 O52_2 1_555 1_555
W14_2 O35_2 1_555 1_555
W14_2 O36_2 1_555 1_555
W15_2 O31_2 1_555 1_555
W16_2 O32_2 1_555 1_555
W17_2 O26_3 1_555 1_555
W17_2 O33_2 1_555 1_555
W17_2 O46_2 1_555 1_555
W18_2 O42_2 1_555 1_555
W18_2 O53_2 1_555 1_555
W18_2 O62_2 1_555 1_555
W19_2 O43_2 1_555 1_555
W19_2 O54_2 1_555 1_555
W19_2 O56_2 1_555 1_555
W19_2 O63_2 1_555 1_555
W20_2 O41_2 1_555 1_555
W20_2 O44_2 1_555 1_555
W20_2 O55_2 1_555 1_555
W20_2 O56_2 1_555 1_555
W20_2 O64_2 1_555 1_555
Cu2_3 O57_2 1_555 1_555
P2_2 O24_2 1_555 1_555
P2_2 O25_2 1_555 1_555
P2_2 O56_2 1_555 1_555
C9_2 C17_2 1_555 1_555
C11_2 C18_2 1_555 1_555
C12_2 C14_3 1_555 1_555
C13_2 C14_3 1_555 1_555
C13_2 C20_2 1_555 1_555
Cu3_3 N5_3 1_555 1_555
N5_3 C7_2 1_555 1_555
C7_2 H6_2 1_555 1_555
C8_2 N5_3 1_555 1_555
H5_2 C8_2 1_555 1_555
C15_2 C7_2 1_555 1_555
C16_2 C8_2 1_555 1_555
H11_2 C16_2 1_555 1_555
H12_2 C15_2 1_555 1_555
C10_3 C15_2 1_555 1_555
C10_3 C16_2 1_555 1_555
W9_2 O58_2 1_555 1_555
O58_2 Cu3 1_555 1_555
W1_3 O2_4 1_555 1_555
W2_3 O3_3 1_555 1_555
W3_3 O5_3 1_555 1_555
W4_3 O1_3 1_555 1_555
W5_3 O6_3 1_555 1_555
P1_3 O1_3 1_555 1_555
O1_3 W15_3 1_555 1_555
O3_3 W1_3 1_555 1_555
O4_4 W4_3 1_555 1_555
O7_3 W1_3 1_555 1_555
O8_3 W2_3 1_555 1_555
O9_3 W2_3 1_555 1_555
O10_4 W2_3 1_555 1_555
O11_3 W5_3 1_555 1_555
O12_3 W4_3 1_555 1_555
O13_3 W2_3 1_555 1_555
O14_3 W4_3 1_555 1_555
O15_3 W4_3 1_555 1_555
O16_3 W1_3 1_555 1_555
O17_3 W1_3 1_555 1_555
O18_3 W3_3 1_555 1_555
O19_3 W1_3 1_555 1_555
O20_3 W3_3 1_555 1_555
W6_3 O22_4 1_555 1_555
W10_2 O59_2 1_555 1_555
W11_3 O13_3 1_555 1_555
W15_3 O14_3 1_555 1_555
W18_3 O11_3 1_555 1_555
Cu2_4 N4_4 1_555 1_555
O23_3 P1_3 1_555 1_555
O26_4 W15_3 1_555 1_555
O28_3 W18_3 1_555 1_555
O31_3 W6_3 1_555 1_555
O34_3 W3_3 1_555 1_555
O37_3 W11_3 1_555 1_555
O40_4 W11_3 1_555 1_555
O42_3 W15_3 1_555 1_555
O47_3 W15_3 1_555 1_555
O50_3 W6_3 1_555 1_555
O53_3 W6_3 1_555 1_555
N6_4 Cu2_4 1_555 1_555
O57_3 W6_3 1_555 1_555
O59_2 Cu2_4 1_555 1_555
O62_3 W3_3 1_555 1_555
W2_3 O16_3 1_555 1_555
W3_3 O8_3 1_555 1_555
W4_3 O7_3 1_555 1_555
W5_3 O12_3 1_555 1_555
W5_3 O17_3 1_555 1_555
W5_3 O18_3 1_555 1_555
W5_3 O20_3 1_555 1_555
Cu3_2 O19_3 1_555 1_555
P1_3 O3_3 1_555 1_555
P1_3 O18_3 1_555 1_555
O18_3 W18_3 1_555 1_555
W6_3 O23_3 1_555 1_555
W11_3 O23_3 1_555 1_555
W11_3 O34_3 1_555 1_555
W11_3 O50_3 1_555 1_555
W15_3 O31_3 1_555 1_555
W18_3 O42_3 1_555 1_555
W18_3 O53_3 1_555 1_555
W18_3 O62_3 1_555 1_555
Cu2_4 O57_3 1_555 1_555
O2_5 W7_2 1_555 1_555
W7_2 O24_3 1_555 1_555
W8_2 O22_5 1_555 1_555
W12_3 O10_5 1_555 1_555
W13_3 O25_3 1_555 1_555
W14_3 O27_3 1_555 1_555
W16_3 O4_5 1_555 1_555
W17_3 O21_3 1_555 1_555
W19_3 O29_3 1_555 1_555
W20_3 O30_3 1_555 1_555
P2_3 O21_3 1_555 1_555
O21_3 W16_3 1_555 1_555
O24_3 W12_3 1_555 1_555
O25_3 W8_2 1_555 1_555
O32_3 W7_2 1_555 1_555
O33_3 W8_2 1_555 1_555
O35_3 W12_3 1_555 1_555
O36_3 W13_3 1_555 1_555
O38_3 W12_3 1_555 1_555
O39_3 W13_3 1_555 1_555
O41_3 W19_3 1_555 1_555
O43_3 W16_3 1_555 1_555
O44_3 W17_3 1_555 1_555
O45_3 W12_3 1_555 1_555
O46_3 W16_3 1_555 1_555
O48_3 W16_3 1_555 1_555
O49_3 W17_3 1_555 1_555
O51_3 W7_2 1_555 1_555
O52_3 W8_2 1_555 1_555
O54_3 W7_2 1_555 1_555
O55_3 W8_2 1_555 1_555
O56_3 W14_3 1_555 1_555
O60_2 W7_2 1_555 1_555
O61_2 W8_2 1_555 1_555
O63_3 W14_3 1_555 1_555
O64_3 W14_3 1_555 1_555
W12_3 O51_3 1_555 1_555
W13_3 O40_5 1_555 1_555
W13_3 O45_3 1_555 1_555
W13_3 O52_3 1_555 1_555
W14_3 O35_3 1_555 1_555
W14_3 O36_3 1_555 1_555
W16_3 O32_3 1_555 1_555
W17_3 O26_5 1_555 1_555
W17_3 O33_3 1_555 1_555
W17_3 O46_3 1_555 1_555
W19_3 O43_3 1_555 1_555
W19_3 O54_3 1_555 1_555
W19_3 O56_3 1_555 1_555
W19_3 O63_3 1_555 1_555
W20_3 O41_3 1_555 1_555
W20_3 O44_3 1_555 1_555
W20_3 O55_3 1_555 1_555
W20_3 O56_3 1_555 1_555
W20_3 O64_3 1_555 1_555
P2_3 O24_3 1_555 1_555
P2_3 O25_3 1_555 1_555
P2_3 O56_3 1_555 1_555
W9_2 O2_6 1_555 1_555
W2_4 O3_4 1_555 1_555
W3_4 O5_4 1_555 1_555
W4_4 O1_4 1_555 1_555
W5_4 O6_4 1_555 1_555
P1_4 O1_4 1_555 1_555
O1_4 W15_4 1_555 1_555
O2_6 W7_3 1_555 1_555
O3_4 W9_2 1_555 1_555
O4_6 W4_4 1_555 1_555
O7_4 W9_2 1_555 1_555
O8_4 W2_4 1_555 1_555
O9_4 W2_4 1_555 1_555
O10_6 W2_4 1_555 1_555
O11_4 W5_4 1_555 1_555
O12_4 W4_4 1_555 1_555
O13_4 W2_4 1_555 1_555
O14_4 W4_4 1_555 1_555
O15_4 W4_4 1_555 1_555
O16_4 W9_2 1_555 1_555
O17_4 W9_2 1_555 1_555
O18_4 W3_4 1_555 1_555
O20_4 W3_4 1_555 1_555
W10_2 O22_6 1_555 1_555
W7_3 O24_4 1_555 1_555
W8_3 O22_6 1_555 1_555
W11_4 O13_4 1_555 1_555
W12_4 O10_6 1_555 1_555
W13_4 O25_4 1_555 1_555
W14_4 O27_4 1_555 1_555
W15_4 O14_4 1_555 1_555
W16_4 O4_6 1_555 1_555
W17_4 O21_4 1_555 1_555
W18_4 O11_4 1_555 1_555
W19_4 O29_4 1_555 1_555
W20_4 O30_4 1_555 1_555
P2_4 O21_4 1_555 1_555
O21_4 W16_4 1_555 1_555
O23_4 P1_4 1_555 1_555
O24_4 W12_4 1_555 1_555
O25_4 W8_3 1_555 1_555
O26_6 W15_4 1_555 1_555
O28_4 W18_4 1_555 1_555
O31_4 W10_2 1_555 1_555
O32_4 W7_3 1_555 1_555
O33_4 W8_3 1_555 1_555
O34_4 W3_4 1_555 1_555
O35_4 W12_4 1_555 1_555
O36_4 W13_4 1_555 1_555
O37_4 W11_4 1_555 1_555
O38_4 W12_4 1_555 1_555
O39_4 W13_4 1_555 1_555
O40_6 W11_4 1_555 1_555
O41_4 W19_4 1_555 1_555
O42_4 W15_4 1_555 1_555
O43_4 W16_4 1_555 1_555
O44_4 W17_4 1_555 1_555
O45_4 W12_4 1_555 1_555
O46_4 W16_4 1_555 1_555
O47_4 W15_4 1_555 1_555
O48_4 W16_4 1_555 1_555
O49_4 W17_4 1_555 1_555
O50_4 W10_2 1_555 1_555
O51_4 W7_3 1_555 1_555
O52_4 W8_3 1_555 1_555
O53_4 W10_2 1_555 1_555
O54_4 W7_3 1_555 1_555
O55_4 W8_3 1_555 1_555
O56_4 W14_4 1_555 1_555
O60_3 W7_3 1_555 1_555
O61_3 W8_3 1_555 1_555
O62_4 W3_4 1_555 1_555
O63_4 W14_4 1_555 1_555
O64_4 W14_4 1_555 1_555
W2_4 O16_4 1_555 1_555
W3_4 O8_4 1_555 1_555
W4_4 O7_4 1_555 1_555
W5_4 O12_4 1_555 1_555
W5_4 O17_4 1_555 1_555
W5_4 O18_4 1_555 1_555
W5_4 O20_4 1_555 1_555
P1_4 O3_4 1_555 1_555
P1_4 O18_4 1_555 1_555
O18_4 W18_4 1_555 1_555
W10_2 O23_4 1_555 1_555
W11_4 O23_4 1_555 1_555
W11_4 O34_4 1_555 1_555
W11_4 O50_4 1_555 1_555
W12_4 O51_4 1_555 1_555
W13_4 O40_6 1_555 1_555
W13_4 O45_4 1_555 1_555
W13_4 O52_4 1_555 1_555
W14_4 O35_4 1_555 1_555
W14_4 O36_4 1_555 1_555
W15_4 O31_4 1_555 1_555
W16_4 O32_4 1_555 1_555
W17_4 O26_6 1_555 1_555
W17_4 O33_4 1_555 1_555
W17_4 O46_4 1_555 1_555
W18_4 O42_4 1_555 1_555
W18_4 O53_4 1_555 1_555
W18_4 O62_4 1_555 1_555
W19_4 O43_4 1_555 1_555
W19_4 O54_4 1_555 1_555
W19_4 O56_4 1_555 1_555
W19_4 O63_4 1_555 1_555
W20_4 O41_4 1_555 1_555
W20_4 O44_4 1_555 1_555
W20_4 O55_4 1_555 1_555
W20_4 O56_4 1_555 1_555
W20_4 O64_4 1_555 1_555
P2_4 O24_4 1_555 1_555
P2_4 O25_4 1_555 1_555
P2_4 O56_4 1_555 1_555
Cu2_5 N4_5 1_555 1_555
N6_5 Cu2_5 1_555 1_555
O61_2 Cu3_3 1_555 1_555
Cu3_3 O61_3 1_555 1_555
Cu2_5 O60_3 1_555 1_555
Cu2_6 N4_6 1_555 1_555
N6_6 Cu2_6 1_555 1_555
O60_2 Cu2_6 1_555 1_555
N6_2 C7_3 1_555 1_555
C7_3 H6_3 1_555 1_555
H11_3 C16_3 1_555 1_555
C10_4 C16_3 1_555 1_555
C2_4 C5_3 1_555 1_555
H3_3 C5_3 1_555 1_555
N4_2 C19_3 1_555 1_555
C9_3 N6_5 1_555 1_555
H7_3 C9_3 1_555 1_555
C11_3 C4_4 1_555 1_555
C12_3 H9_3 1_555 1_555
H8_3 C11_3 1_555 1_555
C14_4 C4_4 1_555 1_555
C18_3 N4_5 1_555 1_555
C19_3 C12_3 1_555 1_555
H14_3 C18_3 1_555 1_555
H16_3 C19_3 1_555 1_555
C11_3 C18_3 1_555 1_555
C12_3 C14_4 1_555 1_555
C8_3 N6_3 1_555 1_555
H5_3 C8_3 1_555 1_555
H12_3 C15_3 1_555 1_555
C10_5 C15_3 1_555 1_555
N4_6 C6_3 1_555 1_555
C1_3 N6_6 1_555 1_555
H1_3 C1_3 1_555 1_555
C3_3 H2_3 1_555 1_555
C4_5 C3_3 1_555 1_555
C6_3 C3_3 1_555 1_555
H4_3 C6_3 1_555 1_555
C13_3 H10_3 1_555 1_555
C14_5 C4_5 1_555 1_555
C17_3 C2_5 1_555 1_555
H13_3 C17_3 1_555 1_555
C20_3 N4_3 1_555 1_555
H15_3 C20_3 1_555 1_555
C13_3 C14_5 1_555 1_555
C13_3 C20_3 1_555 1_555
N6 C7_4 1_555 1_555
C7_4 H6_4 1_555 1_555
C8_4 N6 1_555 1_555
H5_4 C8_4 1_555 1_555
C15_4 C7_4 1_555 1_555
C16_4 C8_4 1_555 1_555
H11_4 C16_4 1_555 1_555
H12_4 C15_4 1_555 1_555
C10_6 C15_4 1_555 1_555
C10_6 C16_4 1_555 1_555
N4_4 C6_4 1_555 1_555
C1_4 N6_4 1_555 1_555
H1_4 C1_4 1_555 1_555
C2_6 C5_4 1_555 1_555
C3_4 H2_4 1_555 1_555
C4_6 C3_4 1_555 1_555
C5_4 C1_4 1_555 1_555
H3_4 C5_4 1_555 1_555
C6_4 C3_4 1_555 1_555
H4_4 C6_4 1_555 1_555
N4 C19_4 1_555 1_555
C9_4 N6_4 1_555 1_555
H7_4 C9_4 1_555 1_555
C11_4 C4_6 1_555 1_555
C12_4 H9_4 1_555 1_555
C13_4 H10_4 1_555 1_555
H8_4 C11_4 1_555 1_555
C14_6 C4_6 1_555 1_555
C17_4 C2_6 1_555 1_555
H13_4 C17_4 1_555 1_555
C18_4 N4_4 1_555 1_555
C19_4 C12_4 1_555 1_555
C20_4 N4 1_555 1_555
H14_4 C18_4 1_555 1_555
H15_4 C20_4 1_555 1_555
H16_4 C19_4 1_555 1_555
C9_4 C17_4 1_555 1_555
C11_4 C18_4 1_555 1_555
C12_4 C14_6 1_555 1_555
C13_4 C14_6 1_555 1_555
C13_4 C20_4 1_555 1_555

#END
