
###############################################################################
#
# This file contains modified crystal structure data generated from the
# MOF subset of the Cambridge Structural Database (CSD) v543 
# hosted by the Cambridge Crystallographic Data Centre (CCDC).
#
# This work is licensed under the Creative Commons
# Attribution-NonCommercial-ShareAlike 4.0 International License.
# To view a copy of this license, visit
# http://creativecommons.org/licenses/by-nc-sa/4.0/
# or send a letter to
# Creative Commons, PO Box 1866, Mountain View, CA 94042, USA.
#
# CIF created using the CSD Python API on 29 September 2022
# The structure has been converted into the P1 space group
# The structure has a 3D framework
# The original CSD entry LIRNEH is in the monoclinic crystal system
# The framework has been calculated to contain at least 10.0% void space
# The void calculation uses a probe of radius 1.32A, grid spacing 0.4
#
###############################################################################

data_LIRNEH
_chemical_formula_moiety         '(C200 H192 N40 O28 Zn8)n'
_symmetry_cell_setting           triclinic
_symmetry_space_group_name_H-M   'P 1'
_symmetry_Int_Tables_number      1
_space_group_name_Hall           'P 1'
loop_
_symmetry_equiv_pos_site_id
_symmetry_equiv_pos_as_xyz
1 x,y,z
_cell_length_a                   19.2780(14)
_cell_length_b                   17.2000(11)
_cell_length_c                   19.7100(15)
_cell_angle_alpha                90
_cell_angle_beta                 112.792(9)
_cell_angle_gamma                90
_cell_volume                     6025.17
loop_
_atom_site_label
_atom_site_type_symbol
_atom_site_fract_x
_atom_site_fract_y
_atom_site_fract_z
O6 O 0.00693(13) 0.11709(13) 0.65811(13)
Zn6 Zn 0.015101(19) 0.23204(2) 0.697413(19)
C51 C 0.06575(19) 0.1358(2) 0.83353(19)
H49 H 0.0755 0.0935 0.8092
C52 C 0.0302(2) 0.2473(2) 0.8563(2)
H50 H 0.0109 0.2975 0.8508
C53 C 0.0584(2) 0.2075(2) 0.9195(2)
H51 H 0.0616 0.2249 0.9653
C54 C 0.1129(2) 0.0740(2) 0.9576(2)
H52 H 0.1346 0.0352 0.9360
C55 C 0.0534(2) 0.0363(2) 0.97903(19)
N11 N 0.03456(14) 0.20149(15) 0.80073(14)
N12 N 0.08124(15) 0.13767(16) 0.90468(14)
Zn4 Zn 0.53986(2) 0.27502(2) 0.342203(19)
C65 C 0.6089(2) 0.4096(2) 0.4281(2)
C66 C 0.66950(18) 0.34812(19) 0.45682(19)
H63 H 0.6978 0.3560 0.5091
H64 H 0.7040 0.3529 0.4320
C67 C 0.6432(2) 0.1464(2) 0.3853(2)
C68 C 0.68639(17) 0.20912(19) 0.43666(18)
H65 H 0.7217 0.2322 0.4184
H66 H 0.7150 0.1867 0.4846
C69 C 0.60430(17) 0.24741(19) 0.50029(16)
H67 H 0.5826 0.1959 0.4879
H68 H 0.5636 0.2830 0.4954
C70 C 0.65769(17) 0.24669(18) 0.57968(16)
C71 C 0.69720(17) 0.17958(18) 0.61336(16)
H69 H 0.6925 0.1348 0.5855
C72 C 0.74311(17) 0.17894(17) 0.68735(16)
H70 H 0.7688 0.1336 0.7083
C73 C 0.75163(17) 0.24382(16) 0.73068(16)
C74 C 0.71240(18) 0.31101(19) 0.69723(18)
H71 H 0.7174 0.3557 0.7253
C75 C 0.66669(18) 0.31222(18) 0.62378(18)
H72 H 0.6412 0.3577 0.6030
C76 C 0.80086(17) 0.24281(16) 0.81038(16)
C77 C 0.81106(17) 0.17545(17) 0.85206(16)
H73 H 0.7860 0.1303 0.8299
C78 C 0.85764(17) 0.17430(16) 0.92575(16)
H74 H 0.8636 0.1283 0.9522
C79 C 0.89538(16) 0.23983(17) 0.96083(16)
C80 C 0.88573(18) 0.30800(18) 0.91960(17)
H75 H 0.9112 0.3529 0.9419
C81 C 0.83881(17) 0.30929(18) 0.84614(16)
H76 H 0.8324 0.3555 0.8199
C87 C 0.4186(2) 0.1740(2) 0.3588(2)
H83 H 0.4432 0.1280 0.3571
C88 C 0.3508(2) 0.1795(2) 0.3651(2)
H84 H 0.3211 0.1385 0.3688
C89 C 0.39325(18) 0.29492(19) 0.35948(16)
H85 H 0.3970 0.3488 0.3589
C90 C 0.26874(19) 0.2899(2) 0.37343(18)
H86 H 0.2677 0.3458 0.3663
H87 H 0.2234 0.2682 0.3365
C91 C 0.27078(18) 0.2719(2) 0.44967(18)
C92 C 0.2348(2) 0.2081(2) 0.4620(2)
H88 H 0.2066 0.1767 0.4226
C93 C 0.2399(2) 0.1896(2) 0.5322(2)
H89 H 0.2147 0.1462 0.5394
C94 C 0.28139(18) 0.2346(2) 0.59067(19)
C95 C 0.31728(19) 0.2989(2) 0.57909(19)
H90 H 0.3458 0.3298 0.6188
C96 C 0.3117(2) 0.3186(2) 0.5083(2)
H91 H 0.3354 0.3629 0.5009
C97 C 0.2869(2) 0.2167(2) 0.66681(19)
H92 H 0.3330 0.2388 0.7023
H93 H 0.2889 0.1608 0.6739
C98 C 0.2125(2) 0.3241(2) 0.6910(2)
H94 H 0.2456 0.3646 0.6942
C99 C 0.1452(2) 0.3292(2) 0.69693(19)
H95 H 0.1243 0.3749 0.7058
C100 C 0.16047(18) 0.2112(2) 0.67728(16)
H96 H 0.1526 0.1581 0.6690
N15 N 0.63621(13) 0.26994(15) 0.44438(13)
N17 N 0.44428(14) 0.24700(16) 0.35531(14)
N18 N 0.33507(15) 0.25694(16) 0.36474(14)
N19 N 0.22199(15) 0.24852(17) 0.67944(14)
N20 N 0.11271(14) 0.25831(15) 0.68812(13)
O9 O 0.54744(14) 0.39047(13) 0.37812(14)
O10 O 0.62552(16) 0.47697(17) 0.45352(18)
O11 O 0.57804(14) 0.16242(13) 0.33833(13)
O12 O 0.67470(15) 0.08209(15) 0.38902(15)
N23 N 0.51709(14) 0.30183(15) 0.23641(14)
C50 C 0.57682(18) 0.49959(19) 0.02579(18)
H48 H 0.6291 0.4989 0.0439
C58 C 0.48275(19) 0.3670(2) 0.2056(2)
H56 H 0.4738 0.4086 0.2312
C59 C 0.5173(2) 0.25666(19) 0.1800(2)
H57 H 0.5373 0.2068 0.1850
C60 C 0.4845(2) 0.2946(2) 0.1164(2)
H58 H 0.4778 0.2764 0.0698
C61 C 0.4206(2) 0.4250(2) 0.0806(2)
H59 H 0.3750 0.4021 0.0450
H60 H 0.4057 0.4648 0.1072
C62 C 0.46343(17) 0.46292(18) 0.03994(17)
C63 C 0.53979(19) 0.4631(2) 0.06477(18)
H61 H 0.5677 0.4382 0.1088
N14 N 0.46273(14) 0.36476(15) 0.13273(15)
Zn1 Zn 0.015101(19) 0.26796(2) 0.197413(19)
H1 H 0.6978 0.1440 0.0091
C5 C 0.60430(17) 0.25259(19) 0.00029(16)
C6 C 0.65769(17) 0.25331(18) 0.07968(16)
C7 C 0.69720(17) 0.32042(18) 0.11336(16)
H7 H 0.6925 0.3652 0.0855
C8 C 0.74311(17) 0.32106(17) 0.18735(16)
H8 H 0.7688 0.3664 0.2083
C9 C 0.75163(17) 0.25618(16) 0.23068(16)
C10 C 0.71240(18) 0.18899(19) 0.19723(18)
H9 H 0.7174 0.1443 0.2253
C11 C 0.66669(18) 0.18778(18) 0.12378(18)
H10 H 0.6412 0.1423 0.1030
C12 C 0.80086(17) 0.25719(16) 0.31038(16)
C13 C 0.81106(17) 0.32455(17) 0.35206(16)
H11 H 0.7860 0.3697 0.3299
C14 C 0.85764(17) 0.32570(16) 0.42575(16)
H12 H 0.8636 0.3717 0.4522
C15 C 0.89538(16) 0.26017(17) 0.46083(16)
C16 C 0.88573(18) 0.19200(18) 0.41960(17)
H13 H 0.9112 0.1471 0.4419
C17 C 0.83881(17) 0.19071(18) 0.34614(16)
H14 H 0.8324 0.1445 0.3199
C18 C 0.94981(16) 0.26104(18) 0.54058(16)
H15 H 0.9709 0.3129 0.5523
H16 H 0.9909 0.2258 0.5459
C19 C 0.88338(17) 0.16171(17) 0.58362(17)
H17 H 0.8546 0.1559 0.5312
H18 H 0.8491 0.1557 0.6086
C20 C 0.9432(2) 0.09886(19) 0.60958(19)
C21 C 0.86779(16) 0.30117(18) 0.60452(17)
H19 H 0.8291 0.2796 0.6190
H20 H 0.8431 0.3258 0.5569
C22 C 0.91172(19) 0.36185(19) 0.66029(18)
C29 C 0.2399(2) 0.3104(2) 0.0322(2)
H27 H 0.2147 0.3538 0.0394
C30 C 0.28139(18) 0.2654(2) 0.09067(19)
C31 C 0.31728(19) 0.2011(2) 0.07909(19)
H28 H 0.3458 0.1702 0.1188
C32 C 0.3117(2) 0.1814(2) 0.0083(2)
H29 H 0.3354 0.1371 0.0009
C33 C 0.2869(2) 0.2833(2) 0.16681(19)
H30 H 0.3330 0.2612 0.2023
H31 H 0.2889 0.3392 0.1739
C34 C 0.2125(2) 0.1759(2) 0.1910(2)
H32 H 0.2456 0.1354 0.1942
C35 C 0.1452(2) 0.1708(2) 0.19693(19)
H33 H 0.1243 0.1251 0.2058
C36 C 0.16047(18) 0.2888(2) 0.17728(16)
H34 H 0.1526 0.3419 0.1690
C37 C 0.06575(19) 0.3642(2) 0.33353(19)
H35 H 0.0755 0.4065 0.3092
C38 C 0.0302(2) 0.2527(2) 0.3563(2)
H36 H 0.0109 0.2025 0.3508
C39 C 0.0584(2) 0.2925(2) 0.4195(2)
H37 H 0.0616 0.2751 0.4653
C40 C 0.1129(2) 0.4260(2) 0.4576(2)
H38 H 0.1346 0.4648 0.4360
H39 H 0.1527 0.4057 0.5013
C41 C 0.0534(2) 0.4637(2) 0.47903(19)
C43 C 0.0662(2) 0.4728(2) 0.55242(19)
H41 H 0.1108 0.4549 0.5885
N2 N 0.91607(12) 0.23792(13) 0.59800(12)
N5 N 0.22199(15) 0.25148(17) 0.17944(14)
N6 N 0.11271(14) 0.24169(15) 0.18812(13)
N7 N 0.03456(14) 0.29851(15) 0.30073(14)
N8 N 0.08124(15) 0.36233(16) 0.40468(14)
O5 O 0.92555(15) 0.03259(14) 0.58413(15)
O7 O 0.87938(14) 0.42386(14) 0.66117(14)
O8 O 0.97736(12) 0.34459(12) 0.70426(12)
C56 C 0.0122(2) 0.5090(2) 0.5722(2)
H54 H 0.0211 0.5146 0.6218
N21 N 0.08393(12) 0.73792(13) 0.90200(12)
O18 O 0.00693(13) 0.38291(13) 0.15811(13)
O19 O 0.02264(12) 0.84459(12) 0.79574(12)
C56_2 C 0.9878(2) 0.0090(2) 0.9278(2)
H54_2 H 0.9789 0.0146 0.8782
C18_2 C 0.05019(16) 0.76104(18) 0.95942(16)
H15_2 H 0.0291 0.8129 0.9477
H16_2 H 0.0091 0.7258 0.9541
C19_2 C 0.11662(17) 0.66171(17) 0.91638(17)
H17_2 H 0.1454 0.6559 0.9688
H18_2 H 0.1509 0.6557 0.8914
C20_2 C 0.0568(2) 0.59886(19) 0.89042(19)
C21_2 C 0.13221(16) 0.80117(18) 0.89548(17)
H19_2 H 0.1709 0.7796 0.8810
H20_2 H 0.1569 0.8258 0.9431
C22_2 C 0.08828(19) 0.86185(19) 0.83971(18)
H39_2 H 0.8473 0.9057 0.9987
C43_2 C 0.9338(2) 0.9728(2) 0.94758(19)
H41_2 H 0.8892 0.9549 0.9115
O5_2 O 0.07445(15) 0.53259(14) 0.91587(15)
O7_2 O 0.12062(14) 0.92386(14) 0.83883(14)
Zn2 Zn 0.53986(2) 0.22498(2) 0.842203(19)
C1 C 0.6089(2) 0.0904(2) 0.9281(2)
C2 C 0.66950(18) 0.15188(19) 0.95682(19)
H2 H 0.7040 0.1471 0.9320
C3 C 0.6432(2) 0.3536(2) 0.8853(2)
C4 C 0.68639(17) 0.29088(19) 0.93666(18)
H3 H 0.7217 0.2678 0.9184
H4 H 0.7150 0.3133 0.9846
H5 H 0.5826 0.3041 0.9879
H6 H 0.5636 0.2170 0.9954
C23 C 0.4186(2) 0.3260(2) 0.8588(2)
H21 H 0.4432 0.3720 0.8571
C24 C 0.3508(2) 0.3205(2) 0.8651(2)
H22 H 0.3211 0.3615 0.8688
C25 C 0.39325(18) 0.20508(19) 0.85948(16)
H23 H 0.3970 0.1512 0.8589
C26 C 0.26874(19) 0.2101(2) 0.87343(18)
H24 H 0.2677 0.1542 0.8663
H25 H 0.2234 0.2318 0.8365
C27 C 0.27078(18) 0.2281(2) 0.94967(18)
C28 C 0.2348(2) 0.2919(2) 0.9620(2)
H26 H 0.2066 0.3233 0.9226
C44 C 0.48275(19) 0.1330(2) 0.7056(2)
H42 H 0.4738 0.0914 0.7312
C45 C 0.5173(2) 0.24334(19) 0.6800(2)
H43 H 0.5373 0.2932 0.6850
C46 C 0.4845(2) 0.2054(2) 0.6164(2)
H44 H 0.4778 0.2236 0.5698
C47 C 0.4206(2) 0.0750(2) 0.5806(2)
H45 H 0.3750 0.0979 0.5450
H46 H 0.4057 0.0352 0.6072
C48 C 0.46343(17) 0.03708(18) 0.53994(17)
C49 C 0.53979(19) 0.0369(2) 0.56477(18)
H47 H 0.5677 0.0618 0.6088
N1 N 0.63621(13) 0.23006(15) 0.94438(13)
N3 N 0.44428(14) 0.25300(16) 0.85531(14)
N4 N 0.33507(15) 0.24306(16) 0.86474(14)
N9 N 0.51709(14) 0.19817(15) 0.73641(14)
N10 N 0.46273(14) 0.13524(15) 0.63273(15)
O1 O 0.54744(14) 0.10953(13) 0.87812(14)
O2 O 0.62552(16) 0.02303(17) 0.95352(18)
O3 O 0.57804(14) 0.33758(13) 0.83833(13)
O4 O 0.67470(15) 0.41791(15) 0.88902(15)
C64 C 0.57682(18) 0.00041(19) 0.52579(18)
H62 H 0.6291 0.0011 0.5439
C50_2 C 0.42318(18) 0.99959(19) 0.47421(18)
H48_2 H 0.3709 0.9989 0.4561
C58_2 C 0.51725(19) 0.8670(2) 0.2944(2)
H56_2 H 0.5262 0.9086 0.2688
C59_2 C 0.4827(2) 0.75666(19) 0.3200(2)
H57_2 H 0.4627 0.7068 0.3150
C60_2 C 0.5155(2) 0.7946(2) 0.3836(2)
H58_2 H 0.5222 0.7764 0.4302
C61_2 C 0.5794(2) 0.9250(2) 0.4194(2)
H59_2 H 0.6250 0.9021 0.4550
H60_2 H 0.5943 0.9648 0.3928
C62_2 C 0.53657(17) 0.96292(18) 0.46006(17)
C63_2 C 0.46021(19) 0.9631(2) 0.43523(18)
H61_2 H 0.4323 0.9382 0.3912
N13 N 0.48291(14) 0.80183(15) 0.26359(14)
N14_2 N 0.53727(14) 0.86476(15) 0.36727(15)
Zn7 Zn 0.46014(2) 0.77502(2) 0.157797(19)
C65_2 C 0.3911(2) 0.9096(2) 0.0719(2)
C66_2 C 0.33050(18) 0.84812(19) 0.04318(19)
H64_2 H 0.2960 0.8529 0.0680
C67_2 C 0.3568(2) 0.6464(2) 0.1147(2)
C68_2 C 0.31361(17) 0.70912(19) 0.06334(18)
H65_2 H 0.2783 0.7322 0.0816
H66_2 H 0.2850 0.6867 0.0154
H67_2 H 0.4174 0.6959 0.0121
H68_2 H 0.4364 0.7830 0.0046
C87_2 C 0.5814(2) 0.6740(2) 0.1412(2)
H83_2 H 0.5568 0.6280 0.1429
C88_2 C 0.6492(2) 0.6795(2) 0.1349(2)
H84_2 H 0.6789 0.6385 0.1312
C89_2 C 0.60675(18) 0.79492(19) 0.14052(16)
H85_2 H 0.6030 0.8488 0.1411
C90_2 C 0.73126(19) 0.7899(2) 0.12657(18)
H86_2 H 0.7323 0.8458 0.1337
H87_2 H 0.7766 0.7682 0.1635
C91_2 C 0.72922(18) 0.7719(2) 0.05033(18)
C92_2 C 0.7652(2) 0.7081(2) 0.0380(2)
H88_2 H 0.7934 0.6767 0.0774
N15_2 N 0.36379(13) 0.76994(15) 0.05562(13)
N17_2 N 0.55572(14) 0.74700(16) 0.14469(14)
N18_2 N 0.66493(15) 0.75694(16) 0.13526(14)
O9_2 O 0.45256(14) 0.89047(13) 0.12188(14)
O10_2 O 0.37448(16) 0.97697(17) 0.04648(18)
O11_2 O 0.42196(14) 0.66242(13) 0.16167(13)
O12_2 O 0.32530(15) 0.58209(15) 0.11098(15)
C42 C 0.9878(2) 0.4910(2) 0.4278(2)
H40 H 0.9789 0.4854 0.3782
C51_2 C 0.93425(19) 0.6358(2) 0.66647(19)
H49_2 H 0.9245 0.5935 0.6908
C52_2 C 0.9698(2) 0.7473(2) 0.6437(2)
H50_2 H 0.9891 0.7975 0.6492
C53_2 C 0.9416(2) 0.7075(2) 0.5805(2)
H51_2 H 0.9384 0.7249 0.5347
C54_2 C 0.8871(2) 0.5740(2) 0.5424(2)
H52_2 H 0.8654 0.5352 0.5640
H53 H 0.8473 0.5943 0.4987
C55_2 C 0.9466(2) 0.5363(2) 0.52097(19)
C57 C 0.9338(2) 0.5272(2) 0.44758(19)
H55 H 0.8892 0.5451 0.4115
N11_2 N 0.96544(14) 0.70149(15) 0.69927(14)
N12_2 N 0.91876(15) 0.63767(16) 0.59532(14)
Zn3 Zn 0.984899(19) 0.73204(2) 0.802587(19)
H63_2 H 0.3022 0.8560 0.9909
C69_2 C 0.39570(17) 0.74741(19) 0.99971(16)
C70_2 C 0.34231(17) 0.74669(18) 0.92032(16)
C71_2 C 0.30280(17) 0.67958(18) 0.88664(16)
H69_2 H 0.3075 0.6348 0.9145
C72_2 C 0.25689(17) 0.67894(17) 0.81265(16)
H70_2 H 0.2312 0.6336 0.7917
C73_2 C 0.24837(17) 0.74382(16) 0.76932(16)
C74_2 C 0.28760(18) 0.81101(19) 0.80277(18)
H71_2 H 0.2826 0.8557 0.7747
C75_2 C 0.33331(18) 0.81222(18) 0.87622(18)
H72_2 H 0.3588 0.8577 0.8970
C76_2 C 0.19914(17) 0.74281(16) 0.68962(16)
C77_2 C 0.18894(17) 0.67545(17) 0.64794(16)
H73_2 H 0.2140 0.6303 0.6701
C78_2 C 0.14236(17) 0.67430(16) 0.57425(16)
H74_2 H 0.1364 0.6283 0.5478
C79_2 C 0.10462(16) 0.73983(17) 0.53917(16)
C80_2 C 0.11427(18) 0.80800(18) 0.58040(17)
H75_2 H 0.0888 0.8529 0.5581
C81_2 C 0.16119(17) 0.80929(18) 0.65386(16)
H76_2 H 0.1676 0.8555 0.6801
C82 C 0.05019(16) 0.73896(18) 0.45942(16)
H77 H 0.0291 0.6871 0.4477
H78 H 0.0091 0.7742 0.4541
C83 C 0.11662(17) 0.83829(17) 0.41638(17)
H79 H 0.1454 0.8441 0.4688
H80 H 0.1509 0.8443 0.3914
C84 C 0.0568(2) 0.90114(19) 0.39042(19)
C85 C 0.13221(16) 0.69883(18) 0.39548(17)
H81 H 0.1709 0.7204 0.3810
H82 H 0.1569 0.6742 0.4431
C86 C 0.08828(19) 0.63815(19) 0.33971(18)
C93_2 C 0.7601(2) 0.6896(2) 0.9678(2)
H89_2 H 0.7853 0.6462 0.9606
C94_2 C 0.71861(18) 0.7346(2) 0.90933(19)
C95_2 C 0.68272(19) 0.7989(2) 0.92091(19)
H90_2 H 0.6542 0.8298 0.8812
C96_2 C 0.6883(2) 0.8186(2) 0.9917(2)
H91_2 H 0.6646 0.8629 0.9991
C97_2 C 0.7131(2) 0.7167(2) 0.83319(19)
H92_2 H 0.6670 0.7388 0.7977
H93_2 H 0.7111 0.6608 0.8261
C98_2 C 0.7875(2) 0.8241(2) 0.8090(2)
H94_2 H 0.7544 0.8646 0.8058
C99_2 C 0.8548(2) 0.8292(2) 0.80307(19)
H95_2 H 0.8757 0.8749 0.7942
C100_2 C 0.83953(18) 0.7112(2) 0.82272(16)
H96_2 H 0.8474 0.6581 0.8310
N16 N 0.08393(12) 0.76208(13) 0.40200(12)
N19_2 N 0.77801(15) 0.74852(17) 0.82056(14)
N20_2 N 0.88729(14) 0.75831(15) 0.81188(13)
O13 O 0.07445(15) 0.96741(14) 0.41587(15)
O15 O 0.12062(14) 0.57614(14) 0.33883(14)
O16 O 0.02264(12) 0.65541(12) 0.29574(12)
N22 N 0.91607(12) 0.26208(13) 0.09800(12)
O17 O 0.99307(13) 0.61709(13) 0.84189(13)
O20 O 0.97736(12) 0.15541(12) 0.20426(12)
H53_2 H 0.1527 0.0943 0.0013
C57_2 C 0.0662(2) 0.0272(2) 0.05242(19)
H55_2 H 0.1108 0.0451 0.0885
C82_2 C 0.94981(16) 0.23896(18) 0.04058(16)
H77_2 H 0.9709 0.1871 0.0523
H78_2 H 0.9909 0.2742 0.0459
C83_2 C 0.88338(17) 0.33829(17) 0.08362(17)
H79_2 H 0.8546 0.3441 0.0312
H80_2 H 0.8491 0.3443 0.1086
C84_2 C 0.9432(2) 0.40114(19) 0.10958(19)
C85_2 C 0.86779(16) 0.19883(18) 0.10452(17)
H81_2 H 0.8291 0.2204 0.1190
H82_2 H 0.8431 0.1742 0.0569
C86_2 C 0.91172(19) 0.13815(19) 0.16029(18)
O13_2 O 0.92555(15) 0.46741(14) 0.08413(15)
O15_2 O 0.87938(14) 0.07614(14) 0.16117(14)
C42_2 C 0.0122(2) 0.9910(2) 0.0722(2)
H40_2 H 0.0211 0.9854 0.1218
O14 O 0.99307(13) 0.88291(13) 0.34189(13)
Zn5 Zn 0.984899(19) 0.76796(2) 0.302587(19)
Zn2_2 Zn 0.46014(2) 0.72498(2) 0.657797(19)
C1_2 C 0.3911(2) 0.5904(2) 0.5719(2)
C2_2 C 0.33050(18) 0.65188(19) 0.54318(19)
H1_2 H 0.3022 0.6440 0.4909
H2_2 H 0.2960 0.6471 0.5680
C3_2 C 0.3568(2) 0.8536(2) 0.6147(2)
C4_2 C 0.31361(17) 0.79088(19) 0.56334(18)
H3_2 H 0.2783 0.7678 0.5816
H4_2 H 0.2850 0.8133 0.5154
C5_2 C 0.39570(17) 0.75259(19) 0.49971(16)
H5_2 H 0.4174 0.8041 0.5121
H6_2 H 0.4364 0.7170 0.5046
C6_2 C 0.34231(17) 0.75331(18) 0.42032(16)
C7_2 C 0.30280(17) 0.82042(18) 0.38664(16)
H7_2 H 0.3075 0.8652 0.4145
C8_2 C 0.25689(17) 0.82106(17) 0.31265(16)
H8_2 H 0.2312 0.8664 0.2917
C9_2 C 0.24837(17) 0.75618(16) 0.26932(16)
C10_2 C 0.28760(18) 0.68899(19) 0.30277(18)
H9_2 H 0.2826 0.6443 0.2747
C11_2 C 0.33331(18) 0.68778(18) 0.37622(18)
H10_2 H 0.3588 0.6423 0.3970
C12_2 C 0.19914(17) 0.75719(16) 0.18962(16)
C13_2 C 0.18894(17) 0.82455(17) 0.14794(16)
H11_2 H 0.2140 0.8697 0.1701
C14_2 C 0.14236(17) 0.82570(16) 0.07425(16)
H12_2 H 0.1364 0.8717 0.0478
C15_2 C 0.10462(16) 0.76017(17) 0.03917(16)
C16_2 C 0.11427(18) 0.69200(18) 0.08040(17)
H13_2 H 0.0888 0.6471 0.0581
C17_2 C 0.16119(17) 0.69071(18) 0.15386(16)
H14_2 H 0.1676 0.6445 0.1801
C23_2 C 0.5814(2) 0.8260(2) 0.6412(2)
H21_2 H 0.5568 0.8720 0.6429
C24_2 C 0.6492(2) 0.8205(2) 0.6349(2)
H22_2 H 0.6789 0.8615 0.6312
C25_2 C 0.60675(18) 0.70508(19) 0.64052(16)
H23_2 H 0.6030 0.6512 0.6411
C26_2 C 0.73126(19) 0.7101(2) 0.62657(18)
H24_2 H 0.7323 0.6542 0.6337
H25_2 H 0.7766 0.7318 0.6635
C27_2 C 0.72922(18) 0.7281(2) 0.55033(18)
C28_2 C 0.7652(2) 0.7919(2) 0.5380(2)
H26_2 H 0.7934 0.8233 0.5774
C29_2 C 0.7601(2) 0.8104(2) 0.4678(2)
H27_2 H 0.7853 0.8538 0.4606
C30_2 C 0.71861(18) 0.7654(2) 0.40933(19)
C31_2 C 0.68272(19) 0.7011(2) 0.42091(19)
H28_2 H 0.6542 0.6702 0.3812
C32_2 C 0.6883(2) 0.6814(2) 0.4917(2)
H29_2 H 0.6646 0.6371 0.4991
C33_2 C 0.7131(2) 0.7833(2) 0.33319(19)
H30_2 H 0.6670 0.7612 0.2977
H31_2 H 0.7111 0.8392 0.3261
C34_2 C 0.7875(2) 0.6759(2) 0.3090(2)
H32_2 H 0.7544 0.6354 0.3058
C35_2 C 0.8548(2) 0.6708(2) 0.30307(19)
H33_2 H 0.8757 0.6251 0.2942
C36_2 C 0.83953(18) 0.7888(2) 0.32272(16)
H34_2 H 0.8474 0.8419 0.3310
C37_2 C 0.93425(19) 0.8642(2) 0.16647(19)
H35_2 H 0.9245 0.9065 0.1908
C38_2 C 0.9698(2) 0.7527(2) 0.1437(2)
H36_2 H 0.9891 0.7025 0.1492
C39_2 C 0.9416(2) 0.7925(2) 0.0805(2)
H37_2 H 0.9384 0.7751 0.0347
C40_2 C 0.8871(2) 0.9260(2) 0.0424(2)
H38_2 H 0.8654 0.9648 0.0640
C41_2 C 0.9466(2) 0.9637(2) 0.02097(19)
C44_2 C 0.51725(19) 0.6330(2) 0.7944(2)
H42_2 H 0.5262 0.5914 0.7688
C45_2 C 0.4827(2) 0.74334(19) 0.8200(2)
H43_2 H 0.4627 0.7932 0.8150
C46_2 C 0.5155(2) 0.7054(2) 0.8836(2)
H44_2 H 0.5222 0.7236 0.9302
C47_2 C 0.5794(2) 0.5750(2) 0.9194(2)
H45_2 H 0.6250 0.5979 0.9550
H46_2 H 0.5943 0.5352 0.8928
C48_2 C 0.53657(17) 0.53708(18) 0.96006(17)
C49_2 C 0.46021(19) 0.5369(2) 0.93523(18)
H47_2 H 0.4323 0.5618 0.8912
N1_2 N 0.36379(13) 0.73006(15) 0.55562(13)
N3_2 N 0.55572(14) 0.75300(16) 0.64469(14)
N4_2 N 0.66493(15) 0.74306(16) 0.63526(14)
N5_2 N 0.77801(15) 0.75148(17) 0.32056(14)
N6_2 N 0.88729(14) 0.74169(15) 0.31188(13)
N7_2 N 0.96544(14) 0.79851(15) 0.19927(14)
N8_2 N 0.91876(15) 0.86233(16) 0.09532(14)
N9_2 N 0.48291(14) 0.69817(15) 0.76359(14)
N10_2 N 0.53727(14) 0.63524(15) 0.86727(15)
O1_2 O 0.45256(14) 0.60953(13) 0.62188(14)
O2_2 O 0.37448(16) 0.52303(17) 0.54648(18)
O3_2 O 0.42196(14) 0.83758(13) 0.66167(13)
O4_2 O 0.32530(15) 0.91791(15) 0.61098(15)
C64_2 C 0.42318(18) 0.50041(19) 0.97421(18)
H62_2 H 0.3709 0.5011 0.9561
loop_
_geom_bond_atom_site_label_1
_geom_bond_atom_site_label_2
_geom_bond_site_symmetry_1
_geom_bond_site_symmetry_2
O6 Zn6 1_555 1_555
C51 H49 1_555 1_555
C52 H50 1_555 1_555
C53 C52 1_555 1_555
H51 C53 1_555 1_555
C54 H52 1_555 1_555
C55 C54 1_555 1_555
N11 C51 1_555 1_555
N12 C51 1_555 1_555
Zn6 N11 1_555 1_555
Zn4 N15 1_555 1_555
C65 C66 1_555 1_555
C66 H63 1_555 1_555
H64 C66 1_555 1_555
C67 C68 1_555 1_555
C68 H65 1_555 1_555
H66 C68 1_555 1_555
C69 H67 1_555 1_555
H68 C69 1_555 1_555
C70 C69 1_555 1_555
C71 C70 1_555 1_555
H69 C71 1_555 1_555
C72 C71 1_555 1_555
H70 C72 1_555 1_555
C73 C72 1_555 1_555
C74 C73 1_555 1_555
H71 C74 1_555 1_555
C75 C70 1_555 1_555
H72 C75 1_555 1_555
C76 C73 1_555 1_555
C77 C76 1_555 1_555
H73 C77 1_555 1_555
C78 C77 1_555 1_555
H74 C78 1_555 1_555
C79 C78 1_555 1_555
C80 C79 1_555 1_555
H75 C80 1_555 1_555
C81 C76 1_555 1_555
H76 C81 1_555 1_555
C87 H83 1_555 1_555
C88 C87 1_555 1_555
H84 C88 1_555 1_555
C89 H85 1_555 1_555
C90 H86 1_555 1_555
H87 C90 1_555 1_555
C91 C90 1_555 1_555
C92 C91 1_555 1_555
H88 C92 1_555 1_555
C93 C92 1_555 1_555
H89 C93 1_555 1_555
C94 C93 1_555 1_555
C95 C94 1_555 1_555
H90 C95 1_555 1_555
C96 C91 1_555 1_555
H91 C96 1_555 1_555
C97 C94 1_555 1_555
H92 C97 1_555 1_555
H93 C97 1_555 1_555
C98 H94 1_555 1_555
C99 C98 1_555 1_555
H95 C99 1_555 1_555
C100 H96 1_555 1_555
N15 C66 1_555 1_555
N17 Zn4 1_555 1_555
N18 C88 1_555 1_555
N19 C97 1_555 1_555
N20 Zn6 1_555 1_555
O9 Zn4 1_555 1_555
O10 C65 1_555 1_555
O11 Zn4 1_555 1_555
O12 C67 1_555 1_555
N23 Zn4 1_555 1_555
C52 N11 1_555 1_555
C53 N12 1_555 1_555
C54 N12 1_555 1_555
C65 O9 1_555 1_555
C67 O11 1_555 1_555
C68 N15 1_555 1_555
C69 N15 1_555 1_555
C74 C75 1_555 1_555
C80 C81 1_555 1_555
C87 N17 1_555 1_555
C89 N17 1_555 1_555
C89 N18 1_555 1_555
C90 N18 1_555 1_555
C95 C96 1_555 1_555
C98 N19 1_555 1_555
C99 N20 1_555 1_555
C100 N19 1_555 1_555
C100 N20 1_555 1_555
H48 C50 1_555 1_555
C58 H56 1_555 1_555
C59 H57 1_555 1_555
C60 C59 1_555 1_555
H58 C60 1_555 1_555
C61 H59 1_555 1_555
H60 C61 1_555 1_555
C62 C61 1_555 1_555
C63 C50 1_555 1_555
H61 C63 1_555 1_555
N23 C58 1_555 1_555
N14 C58 1_555 1_555
C59 N23 1_555 1_555
C60 N14 1_555 1_555
C61 N14 1_555 1_555
C62 C63 1_555 1_555
Zn1 N6 1_555 1_555
C6 C5 1_555 1_555
C7 C6 1_555 1_555
H7 C7 1_555 1_555
C8 C7 1_555 1_555
H8 C8 1_555 1_555
C9 C8 1_555 1_555
C10 C9 1_555 1_555
H9 C10 1_555 1_555
C11 C6 1_555 1_555
H10 C11 1_555 1_555
C12 C9 1_555 1_555
C13 C12 1_555 1_555
H11 C13 1_555 1_555
C14 C13 1_555 1_555
H12 C14 1_555 1_555
C15 C14 1_555 1_555
C16 C15 1_555 1_555
H13 C16 1_555 1_555
C17 C12 1_555 1_555
H14 C17 1_555 1_555
C18 C15 1_555 1_555
H15 C18 1_555 1_555
H16 C18 1_555 1_555
C19 H17 1_555 1_555
H18 C19 1_555 1_555
C20 C19 1_555 1_555
C21 H19 1_555 1_555
H20 C21 1_555 1_555
C22 C21 1_555 1_555
H27 C29 1_555 1_555
C30 C29 1_555 1_555
C31 C30 1_555 1_555
H28 C31 1_555 1_555
H29 C32 1_555 1_555
C33 C30 1_555 1_555
H30 C33 1_555 1_555
H31 C33 1_555 1_555
C34 H32 1_555 1_555
C35 C34 1_555 1_555
H33 C35 1_555 1_555
C36 H34 1_555 1_555
C37 H35 1_555 1_555
C38 H36 1_555 1_555
C39 C38 1_555 1_555
H37 C39 1_555 1_555
C40 H38 1_555 1_555
H39 C40 1_555 1_555
C41 C40 1_555 1_555
C43 C41 1_555 1_555
H41 C43 1_555 1_555
N2 C18 1_555 1_555
N5 C33 1_555 1_555
N6 C35 1_555 1_555
N7 Zn1 1_555 1_555
N8 C37 1_555 1_555
O5 C20 1_555 1_555
O7 C22 1_555 1_555
O8 C22 1_555 1_555
C56 C43 1_555 1_555
H54 C56 1_555 1_555
O18 Zn1 1_555 1_555
C10 C11 1_555 1_555
C16 C17 1_555 1_555
C19 N2 1_555 1_555
C21 N2 1_555 1_555
C31 C32 1_555 1_555
C34 N5 1_555 1_555
C36 N5 1_555 1_555
C36 N6 1_555 1_555
C37 N7 1_555 1_555
C38 N7 1_555 1_555
C39 N8 1_555 1_555
C40 N8 1_555 1_555
H54_2 C56_2 1_555 1_555
H15_2 C18_2 1_555 1_555
H16_2 C18_2 1_555 1_555
C19_2 H17_2 1_555 1_555
H18_2 C19_2 1_555 1_555
C20_2 C19_2 1_555 1_555
C21_2 H19_2 1_555 1_555
H20_2 C21_2 1_555 1_555
C22_2 C21_2 1_555 1_555
H41_2 C43_2 1_555 1_555
N21 C18_2 1_555 1_555
O5_2 C20_2 1_555 1_555
O7_2 C22_2 1_555 1_555
O19 C22_2 1_555 1_555
C19_2 N21 1_555 1_555
C21_2 N21 1_555 1_555
Zn2 N1 1_555 1_555
C1 C2 1_555 1_555
H2 C2 1_555 1_555
C3 C4 1_555 1_555
C4 H3 1_555 1_555
H4 C4 1_555 1_555
C23 H21 1_555 1_555
C24 C23 1_555 1_555
H22 C24 1_555 1_555
C25 H23 1_555 1_555
C26 H24 1_555 1_555
H25 C26 1_555 1_555
C27 C26 1_555 1_555
C28 C27 1_555 1_555
H26 C28 1_555 1_555
C44 H42 1_555 1_555
C45 H43 1_555 1_555
C46 C45 1_555 1_555
H44 C46 1_555 1_555
C47 H45 1_555 1_555
H46 C47 1_555 1_555
C48 C47 1_555 1_555
C49 C48 1_555 1_555
H47 C49 1_555 1_555
N1 C2 1_555 1_555
N3 Zn2 1_555 1_555
N4 C24 1_555 1_555
N9 Zn2 1_555 1_555
N10 C44 1_555 1_555
O1 Zn2 1_555 1_555
O2 C1 1_555 1_555
O3 Zn2 1_555 1_555
O4 C3 1_555 1_555
C64 C49 1_555 1_555
H62 C64 1_555 1_555
C1 O1 1_555 1_555
C3 O3 1_555 1_555
C4 N1 1_555 1_555
C23 N3 1_555 1_555
C25 N3 1_555 1_555
C25 N4 1_555 1_555
C26 N4 1_555 1_555
C44 N9 1_555 1_555
C45 N9 1_555 1_555
C46 N10 1_555 1_555
C47 N10 1_555 1_555
H48_2 C50_2 1_555 1_555
C58_2 H56_2 1_555 1_555
C59_2 H57_2 1_555 1_555
C60_2 C59_2 1_555 1_555
H58_2 C60_2 1_555 1_555
C61_2 H59_2 1_555 1_555
H60_2 C61_2 1_555 1_555
C62_2 C61_2 1_555 1_555
C63_2 C50_2 1_555 1_555
H61_2 C63_2 1_555 1_555
N13 C58_2 1_555 1_555
N14_2 C58_2 1_555 1_555
Zn7 N13 1_555 1_555
C59_2 N13 1_555 1_555
C60_2 N14_2 1_555 1_555
C61_2 N14_2 1_555 1_555
C62_2 C63_2 1_555 1_555
Zn7 N15_2 1_555 1_555
C65_2 C66_2 1_555 1_555
H64_2 C66_2 1_555 1_555
C67_2 C68_2 1_555 1_555
C68_2 H65_2 1_555 1_555
H66_2 C68_2 1_555 1_555
C87_2 H83_2 1_555 1_555
C88_2 C87_2 1_555 1_555
H84_2 C88_2 1_555 1_555
C89_2 H85_2 1_555 1_555
C90_2 H86_2 1_555 1_555
H87_2 C90_2 1_555 1_555
C91_2 C90_2 1_555 1_555
C92_2 C91_2 1_555 1_555
H88_2 C92_2 1_555 1_555
N15_2 C66_2 1_555 1_555
N17_2 Zn7 1_555 1_555
N18_2 C88_2 1_555 1_555
O9_2 Zn7 1_555 1_555
O10_2 C65_2 1_555 1_555
O11_2 Zn7 1_555 1_555
O12_2 C67_2 1_555 1_555
C65_2 O9_2 1_555 1_555
C67_2 O11_2 1_555 1_555
C68_2 N15_2 1_555 1_555
C87_2 N17_2 1_555 1_555
C89_2 N17_2 1_555 1_555
C89_2 N18_2 1_555 1_555
C90_2 N18_2 1_555 1_555
H40 C42 1_555 1_555
C51_2 H49_2 1_555 1_555
C52_2 H50_2 1_555 1_555
C53_2 C52_2 1_555 1_555
H51_2 C53_2 1_555 1_555
C54_2 H52_2 1_555 1_555
H53 C54_2 1_555 1_555
C55_2 C54_2 1_555 1_555
C57 C42 1_555 1_555
H55 C57 1_555 1_555
N11_2 C51_2 1_555 1_555
N12_2 C51_2 1_555 1_555
Zn3 N11_2 1_555 1_555
C70_2 C69_2 1_555 1_555
C71_2 C70_2 1_555 1_555
H69_2 C71_2 1_555 1_555
C72_2 C71_2 1_555 1_555
H70_2 C72_2 1_555 1_555
C73_2 C72_2 1_555 1_555
C74_2 C73_2 1_555 1_555
H71_2 C74_2 1_555 1_555
C75_2 C70_2 1_555 1_555
H72_2 C75_2 1_555 1_555
C76_2 C73_2 1_555 1_555
C77_2 C76_2 1_555 1_555
H73_2 C77_2 1_555 1_555
C78_2 C77_2 1_555 1_555
H74_2 C78_2 1_555 1_555
C79_2 C78_2 1_555 1_555
C80_2 C79_2 1_555 1_555
H75_2 C80_2 1_555 1_555
C81_2 C76_2 1_555 1_555
H76_2 C81_2 1_555 1_555
C82 C79_2 1_555 1_555
H77 C82 1_555 1_555
H78 C82 1_555 1_555
C83 H79 1_555 1_555
H80 C83 1_555 1_555
C84 C83 1_555 1_555
C85 H81 1_555 1_555
H82 C85 1_555 1_555
C86 C85 1_555 1_555
H89_2 C93_2 1_555 1_555
C94_2 C93_2 1_555 1_555
C95_2 C94_2 1_555 1_555
H90_2 C95_2 1_555 1_555
H91_2 C96_2 1_555 1_555
C97_2 C94_2 1_555 1_555
H92_2 C97_2 1_555 1_555
H93_2 C97_2 1_555 1_555
C98_2 H94_2 1_555 1_555
C99_2 C98_2 1_555 1_555
H95_2 C99_2 1_555 1_555
C100_2 H96_2 1_555 1_555
N16 C82 1_555 1_555
N19_2 C97_2 1_555 1_555
N20_2 Zn3 1_555 1_555
O13 C84 1_555 1_555
O15 C86 1_555 1_555
O16 C86 1_555 1_555
O17 Zn3 1_555 1_555
C52_2 N11_2 1_555 1_555
C53_2 N12_2 1_555 1_555
C54_2 N12_2 1_555 1_555
C55_2 C57 1_555 1_555
C74_2 C75_2 1_555 1_555
C80_2 C81_2 1_555 1_555
C83 N16 1_555 1_555
C85 N16 1_555 1_555
C95_2 C96_2 1_555 1_555
C98_2 N19_2 1_555 1_555
C99_2 N20_2 1_555 1_555
C100_2 N19_2 1_555 1_555
C100_2 N20_2 1_555 1_555
H55_2 C57_2 1_555 1_555
H77_2 C82_2 1_555 1_555
H78_2 C82_2 1_555 1_555
C83_2 H79_2 1_555 1_555
H80_2 C83_2 1_555 1_555
C84_2 C83_2 1_555 1_555
C85_2 H81_2 1_555 1_555
H82_2 C85_2 1_555 1_555
C86_2 C85_2 1_555 1_555
N22 C82_2 1_555 1_555
O13_2 C84_2 1_555 1_555
O15_2 C86_2 1_555 1_555
O20 C86_2 1_555 1_555
C83_2 N22 1_555 1_555
C85_2 N22 1_555 1_555
H40_2 C42_2 1_555 1_555
O14 Zn5 1_555 1_555
Zn5 N6_2 1_555 1_555
Zn2_2 N1_2 1_555 1_555
C1_2 C2_2 1_555 1_555
C2_2 H1_2 1_555 1_555
H2_2 C2_2 1_555 1_555
C3_2 C4_2 1_555 1_555
C4_2 H3_2 1_555 1_555
H4_2 C4_2 1_555 1_555
C5_2 H5_2 1_555 1_555
H6_2 C5_2 1_555 1_555
C6_2 C5_2 1_555 1_555
C7_2 C6_2 1_555 1_555
H7_2 C7_2 1_555 1_555
C8_2 C7_2 1_555 1_555
H8_2 C8_2 1_555 1_555
C9_2 C8_2 1_555 1_555
C10_2 C9_2 1_555 1_555
H9_2 C10_2 1_555 1_555
C11_2 C6_2 1_555 1_555
H10_2 C11_2 1_555 1_555
C12_2 C9_2 1_555 1_555
C13_2 C12_2 1_555 1_555
H11_2 C13_2 1_555 1_555
C14_2 C13_2 1_555 1_555
H12_2 C14_2 1_555 1_555
C15_2 C14_2 1_555 1_555
C16_2 C15_2 1_555 1_555
H13_2 C16_2 1_555 1_555
C17_2 C12_2 1_555 1_555
H14_2 C17_2 1_555 1_555
C23_2 H21_2 1_555 1_555
C24_2 C23_2 1_555 1_555
H22_2 C24_2 1_555 1_555
C25_2 H23_2 1_555 1_555
C26_2 H24_2 1_555 1_555
H25_2 C26_2 1_555 1_555
C27_2 C26_2 1_555 1_555
C28_2 C27_2 1_555 1_555
H26_2 C28_2 1_555 1_555
C29_2 C28_2 1_555 1_555
H27_2 C29_2 1_555 1_555
C30_2 C29_2 1_555 1_555
C31_2 C30_2 1_555 1_555
H28_2 C31_2 1_555 1_555
C32_2 C27_2 1_555 1_555
H29_2 C32_2 1_555 1_555
C33_2 C30_2 1_555 1_555
H30_2 C33_2 1_555 1_555
H31_2 C33_2 1_555 1_555
C34_2 H32_2 1_555 1_555
C35_2 C34_2 1_555 1_555
H33_2 C35_2 1_555 1_555
C36_2 H34_2 1_555 1_555
C37_2 H35_2 1_555 1_555
C38_2 H36_2 1_555 1_555
C39_2 C38_2 1_555 1_555
H37_2 C39_2 1_555 1_555
C40_2 H38_2 1_555 1_555
C41_2 C40_2 1_555 1_555
C44_2 H42_2 1_555 1_555
C45_2 H43_2 1_555 1_555
C46_2 C45_2 1_555 1_555
H44_2 C46_2 1_555 1_555
C47_2 H45_2 1_555 1_555
H46_2 C47_2 1_555 1_555
C48_2 C47_2 1_555 1_555
C49_2 C48_2 1_555 1_555
H47_2 C49_2 1_555 1_555
N1_2 C2_2 1_555 1_555
N3_2 Zn2_2 1_555 1_555
N4_2 C24_2 1_555 1_555
N5_2 C33_2 1_555 1_555
N6_2 C35_2 1_555 1_555
N7_2 Zn5 1_555 1_555
N8_2 C37_2 1_555 1_555
N9_2 Zn2_2 1_555 1_555
N10_2 C44_2 1_555 1_555
O1_2 Zn2_2 1_555 1_555
O2_2 C1_2 1_555 1_555
O3_2 Zn2_2 1_555 1_555
O4_2 C3_2 1_555 1_555
C64_2 C49_2 1_555 1_555
H62_2 C64_2 1_555 1_555
C1_2 O1_2 1_555 1_555
C3_2 O3_2 1_555 1_555
C4_2 N1_2 1_555 1_555
C5_2 N1_2 1_555 1_555
C10_2 C11_2 1_555 1_555
C16_2 C17_2 1_555 1_555
C23_2 N3_2 1_555 1_555
C25_2 N3_2 1_555 1_555
C25_2 N4_2 1_555 1_555
C26_2 N4_2 1_555 1_555
C31_2 C32_2 1_555 1_555
C34_2 N5_2 1_555 1_555
C36_2 N5_2 1_555 1_555
C36_2 N6_2 1_555 1_555
C37_2 N7_2 1_555 1_555
C38_2 N7_2 1_555 1_555
C39_2 N8_2 1_555 1_555
C40_2 N8_2 1_555 1_555
C44_2 N9_2 1_555 1_555
C45_2 N9_2 1_555 1_555
C46_2 N10_2 1_555 1_555
C47_2 N10_2 1_555 1_555

#END
