
###############################################################################
#
# This file contains modified crystal structure data generated from the
# MOF subset of the Cambridge Structural Database (CSD) v543 
# hosted by the Cambridge Crystallographic Data Centre (CCDC).
#
# This work is licensed under the Creative Commons
# Attribution-NonCommercial-ShareAlike 4.0 International License.
# To view a copy of this license, visit
# http://creativecommons.org/licenses/by-nc-sa/4.0/
# or send a letter to
# Creative Commons, PO Box 1866, Mountain View, CA 94042, USA.
#
# CIF created using the CSD Python API on 29 September 2022
# The structure has been converted into the P1 space group
# The structure has a 3D framework
# The original CSD entry LIRVAK is in the monoclinic crystal system
# The original CSD entry LIRVAK is in a Sohncke space group
# The framework has been calculated to contain at least 10.0% void space
# The void calculation uses a probe of radius 1.32A, grid spacing 0.4
# The framework is charged, counterions have been retained in the structure
# H atom positions have been added when not included in the experimental data
#
###############################################################################

data_LIRVAK
_chemical_formula_moiety         '(C120 H124 Cu4 N16 O16)n'
_symmetry_cell_setting           triclinic
_symmetry_space_group_name_H-M   'P 1'
_symmetry_Int_Tables_number      1
_space_group_name_Hall           'P 1'
loop_
_symmetry_equiv_pos_site_id
_symmetry_equiv_pos_as_xyz
1 x,y,z
_cell_length_a                   11.5557(6)
_cell_length_b                   25.6278(13)
_cell_length_c                   14.0999(8)
_cell_angle_alpha                90
_cell_angle_beta                 94.144(2)
_cell_angle_gamma                90
_cell_volume                     4164.73
loop_
_atom_site_label
_atom_site_type_symbol
_atom_site_fract_x
_atom_site_fract_y
_atom_site_fract_z
N3 N 0.3785(7) 0.5795(3) 0.3937(6)
N7 N 0.0656(7) 0.3988(3) 0.0879(6)
H3 H 0.0212 0.2839 0.1480
C11 C 0.0130(9) 0.4274(4) 0.1508(8)
C19 C 0.4024(10) 0.5680(4) 0.3028(8)
H16 H 0.4662 0.5845 0.2795
C21 C 0.2852(8) 0.5533(4) 0.4224(8)
H18 H 0.2612 0.5601 0.4827
C22 C 0.0675(9) 0.4621(4) 0.2121(7)
H19 H 0.0257 0.4810 0.2543
C23 C 0.1816(9) 0.4053(4) 0.0876(7)
H20 H 0.2220 0.3858 0.0453
C25 C 0.3441(9) 0.5360(4) 0.2453(7)
H22 H 0.3652 0.5326 0.1832
C30 C 0.2236(8) 0.5168(4) 0.3653(8)
H27 H 0.1625 0.4988 0.3897
C33 C 0.2429(9) 0.4398(4) 0.1476(7)
H29 H 0.3227 0.4432 0.1447
C35 C 0.2513(9) 0.5068(4) 0.2741(8)
C36 C 0.1872(8) 0.4686(4) 0.2105(7)
Cu4 Cu 0.48184(10) 0.62214(4) 0.48229(8)
Cu1 Cu 0.97334(10) 0.35470(4) 0.98743(8)
N5 N 0.8712(7) 0.3984(4) 0.8950(6)
N8 N 0.5699(7) 0.5753(3) 0.5816(6)
C8 C 0.5118(10) 0.5477(4) 0.6434(8)
H8 H 0.4319 0.5522 0.6436
C16 C 0.7843(10) 0.4271(4) 0.9247(8)
H14 H 0.7694 0.4252 0.9886
C17 C 0.8949(8) 0.4010(4) 0.8043(7)
H15 H 0.9525 0.3797 0.7826
C20 C 0.5668(9) 0.5124(5) 0.7077(8)
H17 H 0.5233 0.4943 0.7499
C24 C 0.8337(9) 0.4358(5) 0.7395(7)
H21 H 0.8530 0.4385 0.6768
C26 C 0.6832(9) 0.5687(4) 0.5853(7)
H23 H 0.7246 0.5885 0.5441
C27 C 0.7147(10) 0.4596(4) 0.8658(8)
H24 H 0.6510 0.4768 0.8878
C28 C 0.7448(9) 0.5350(4) 0.6451(7)
H25 H 0.8250 0.5322 0.6439
C32 C 0.7446(8) 0.4652(4) 0.7727(7)
C34 C 0.6833(10) 0.5042(4) 0.7092(7)
N2 N 0.3975(8) 0.6703(3) 0.5719(6)
N4 N 0.1174(7) 0.8100(3) 0.9264(6)
C1 C 0.2913(8) 0.6862(4) 0.5560(7)
H1 H 0.2520 0.6773 0.4984
C2 C 0.4510(9) 0.6827(4) 0.6543(8)
H2 H 0.5287 0.6734 0.6644
C3 C 0.0594(10) 0.7834(5) 0.8546(8)
C4 C 0.2910(9) 0.7839(4) 0.8528(7)
H4 H 0.3714 0.7852 0.8527
C5 C 0.2349(9) 0.8104(4) 0.9227(7)
H5 H 0.2794 0.8291 0.9685
H11 H 0.0668 0.9235 0.8470
C12 C 0.2262(9) 0.7555(5) 0.7828(7)
C13 C 0.1105(10) 0.7559(5) 0.7855(7)
H12 H 0.0646 0.7374 0.7402
C14 C 0.4016(9) 0.7080(4) 0.7257(7)
H13 H 0.4427 0.7132 0.7841
C15 C 0.2865(10) 0.7261(4) 0.7094(7)
C39 C 0.2335(9) 0.7153(4) 0.6194(7)
H32 H 0.1593 0.7279 0.6024
N1 N 0.5851(7) 0.6643(3) 0.4002(6)
N6 N 0.9248(7) 0.8120(4) 0.0904(6)
C6 C 0.8760(10) 0.7313(5) 0.1577(7)
H6 H 0.8944 0.6962 0.1658
C7 C 0.5585(9) 0.7130(5) 0.3750(7)
H7 H 0.4922 0.7272 0.3984
C9 C 0.6215(8) 0.7451(4) 0.3157(6)
H9 H 0.6005 0.7797 0.3046
C10 C 0.9345(9) 0.7590(4) 0.1000(7)
H10 H 0.9859 0.7417 0.0631
C18 C 0.7821(8) 0.7534(4) 0.2104(7)
C29 C 0.6749(8) 0.6429(4) 0.3579(7)
H26 H 0.6922 0.6081 0.3705
C31 C 0.8385(9) 0.8324(5) 0.1370(7)
H28 H 0.8237 0.8679 0.1290
C37 C 0.7422(9) 0.6693(4) 0.2976(7)
H30 H 0.8044 0.6531 0.2712
C38 C 0.7700(8) 0.8054(4) 0.1958(7)
H31 H 0.7136 0.8233 0.2264
C40 C 0.7127(9) 0.7241(5) 0.2760(7)
Cu2 Cu 0.51816(10) 0.12214(4) 0.51771(8)
N1_2 N 0.4149(7) 0.1643(3) 0.5998(6)
N6_2 N 0.0752(7) 0.3120(4) 0.9096(6)
C6_2 C 0.1240(10) 0.2313(5) 0.8423(7)
H6_2 H 0.1056 0.1962 0.8342
C7_2 C 0.4415(9) 0.2130(5) 0.6250(7)
H7_2 H 0.5078 0.2272 0.6016
C9_2 C 0.3785(8) 0.2451(4) 0.6843(6)
H9_2 H 0.3995 0.2797 0.6954
C10_2 C 0.0655(9) 0.2590(4) 0.9000(7)
H10_2 H 0.0141 0.2417 0.9369
C18_2 C 0.2179(8) 0.2534(4) 0.7896(7)
C29_2 C 0.3251(8) 0.1429(4) 0.6421(7)
H26_2 H 0.3078 0.1081 0.6295
C31_2 C 0.1615(9) 0.3324(5) 0.8630(7)
H28_2 H 0.1763 0.3679 0.8710
C37_2 C 0.2578(9) 0.1693(4) 0.7024(7)
H30_2 H 0.1956 0.1531 0.7288
C38_2 C 0.2300(8) 0.3054(4) 0.8042(7)
H31_2 H 0.2864 0.3233 0.7736
C40_2 C 0.2873(9) 0.2241(5) 0.7240(7)
N9 N 0.6025(8) 0.1703(3) 0.4281(6)
N10 N 0.6215(7) 0.0795(3) 0.6063(6)
N11 N 0.4301(7) 0.0753(3) 0.4184(6)
N4_2 N 0.8826(7) 0.3100(3) 0.0736(6)
C1_2 C 0.7087(8) 0.1862(4) 0.4440(7)
H1_2 H 0.7480 0.1773 0.5016
C2_2 C 0.5490(9) 0.1827(4) 0.3457(8)
H2_2 H 0.4713 0.1734 0.3356
C3_2 C 0.9406(10) 0.2834(5) 0.1454(8)
C4_2 C 0.7090(9) 0.2839(4) 0.1472(7)
H4_2 H 0.6286 0.2852 0.1473
C5_2 C 0.7651(9) 0.3104(4) 0.0773(7)
H5_2 H 0.7206 0.3291 0.0315
H11_2 H 0.9332 0.4235 0.1530
C12_2 C 0.7738(9) 0.2555(5) 0.2172(7)
C13_2 C 0.8895(10) 0.2559(5) 0.2145(7)
H12_2 H 0.9354 0.2374 0.2598
C14_2 C 0.5984(9) 0.2080(4) 0.2743(7)
H13_2 H 0.5573 0.2132 0.2159
C15_2 C 0.7135(10) 0.2261(4) 0.2906(7)
C39_2 C 0.7665(9) 0.2153(4) 0.3806(7)
H32_2 H 0.8407 0.2279 0.3976
C8_2 C 0.4882(10) 0.0477(4) 0.3566(8)
H8_2 H 0.5681 0.0522 0.3564
C20_2 C 0.4332(9) 0.0124(5) 0.2923(8)
C26_2 C 0.3168(9) 0.0687(4) 0.4147(7)
H23_2 H 0.2754 0.0885 0.4559
C28_2 C 0.2552(9) 0.0350(4) 0.3549(7)
H25_2 H 0.1750 0.0322 0.3561
C34_2 C 0.3167(10) 0.0042(4) 0.2908(7)
C19_2 C 0.5976(10) 0.0680(4) 0.6972(8)
H16_2 H 0.5338 0.0845 0.7205
C21_2 C 0.7148(8) 0.0533(4) 0.5776(8)
H18_2 H 0.7388 0.0601 0.5173
C25_2 C 0.6559(9) 0.0360(4) 0.7547(7)
H22_2 H 0.6348 0.0326 0.8168
C30_2 C 0.7764(8) 0.0168(4) 0.6347(8)
C35_2 C 0.7487(9) 0.0068(4) 0.7259(8)
Cu1_2 Cu 0.02666(10) 0.85470(4) 0.01257(8)
N5_2 N 0.1288(7) 0.8984(4) 0.1050(6)
C16_2 C 0.2157(10) 0.9271(4) 0.0753(8)
H14_2 H 0.2306 0.9252 0.0114
C17_2 C 0.1051(8) 0.9010(4) 0.1957(7)
H15_2 H 0.0475 0.8797 0.2174
H17_2 H 0.4767 0.9943 0.2501
C24_2 C 0.1663(9) 0.9358(5) 0.2605(7)
H21_2 H 0.1470 0.9385 0.3232
C27_2 C 0.2853(10) 0.9596(4) 0.1342(8)
H24_2 H 0.3490 0.9768 0.1122
C32_2 C 0.2554(8) 0.9652(4) 0.2273(7)
N7_2 N 0.9344(7) 0.8988(3) 0.9121(6)
H3_2 H 0.9788 0.7839 0.8520
C11_2 C 0.9870(9) 0.9274(4) 0.8492(8)
C22_2 C 0.9325(9) 0.9621(4) 0.7879(7)
H19_2 H 0.9743 0.9810 0.7457
C23_2 C 0.8184(9) 0.9053(4) 0.9124(7)
H20_2 H 0.7780 0.8858 0.9547
H27_2 H 0.8375 0.9988 0.6103
C33_2 C 0.7571(9) 0.9398(4) 0.8524(7)
H29_2 H 0.6773 0.9432 0.8553
C36_2 C 0.8128(8) 0.9686(4) 0.7895(7)
C41 C 0.3036(8) 0.8907(4) 0.6516(7)
H33 H 0.3314 0.8672 0.7032
C42 C 0.4113(9) 0.9108(4) 0.6017(7)
C43 C 0.4412(8) 0.8652(3) 0.5340(7)
C44 C 0.3198(10) 0.8487(6) 0.5009(8)
H34 H 0.2940 0.8679 0.4440
H35 H 0.3188 0.8118 0.4856
C45 C 0.2398(7) 0.8591(5) 0.5773(8)
H36 H 0.1718 0.8778 0.5515
H37 H 0.2147 0.8264 0.6041
C46 C 0.3887(8) 0.9583(3) 0.5461(7)
H38 H 0.4581 0.9687 0.5176
H39 H 0.3649 0.9856 0.5870
H40 H 0.3283 0.9518 0.4971
C47 C 0.5009(10) 0.9115(5) 0.6709(9)
H41 H 0.5706 0.9228 0.6438
H42 H 0.5122 0.8771 0.6968
H43 H 0.4828 0.9351 0.7205
C48 C 0.5107(12) 0.8808(3) 0.4550(8)
C49 C 0.2382(10) 0.9332(5) 0.6933(8)
O1 O 0.1518(7) 0.9535(3) 0.6457(5)
O2 O 0.2745(6) 0.9482(3) 0.7763(5)
O3 O 0.6101(7) 0.9023(3) 0.4781(6)
O4 O 0.4812(7) 0.8691(4) 0.3689(5)
C50 C 0.4974(9) 0.8226(4) 0.5881(8)
H44 H 0.5137 0.7946 0.5458
H45 H 0.4470 0.8103 0.6345
H46 H 0.5687 0.8349 0.6197
H60 H 0.403958 0.884414 0.350235
C41_2 C 0.6964(8) 0.3907(4) 0.3484(7)
H33_2 H 0.6686 0.3672 0.2968
C42_2 C 0.5887(9) 0.4108(4) 0.3983(7)
C43_2 C 0.5588(8) 0.3652(3) 0.4660(7)
C44_2 C 0.6802(10) 0.3487(6) 0.4991(8)
H34_2 H 0.7060 0.3679 0.5560
H35_2 H 0.6812 0.3118 0.5144
C45_2 C 0.7602(7) 0.3591(5) 0.4227(8)
H36_2 H 0.8282 0.3778 0.4485
H37_2 H 0.7853 0.3264 0.3959
C46_2 C 0.6113(8) 0.4583(3) 0.4539(7)
H38_2 H 0.5419 0.4687 0.4824
H39_2 H 0.6351 0.4856 0.4130
H40_2 H 0.6717 0.4518 0.5029
C47_2 C 0.4991(10) 0.4115(5) 0.3291(9)
H41_2 H 0.4294 0.4228 0.3562
H42_2 H 0.4878 0.3771 0.3032
H43_2 H 0.5172 0.4351 0.2795
C48_2 C 0.4893(12) 0.3808(3) 0.5450(8)
C49_2 C 0.7618(10) 0.4332(5) 0.3067(8)
O1_2 O 0.8482(7) 0.4535(3) 0.3543(5)
O2_2 O 0.7255(6) 0.4482(3) 0.2237(5)
O3_2 O 0.3899(7) 0.4023(3) 0.5219(6)
O4_2 O 0.5188(7) 0.3691(4) 0.6311(5)
C50_2 C 0.5026(9) 0.3226(4) 0.4119(8)
H44_2 H 0.4863 0.2946 0.4542
H45_2 H 0.5530 0.3103 0.3655
H46_2 H 0.4313 0.3349 0.3803
H60_2 H 0.596042 0.384414 0.649765
C57 C 0.0140(11) 0.0410(6) 0.1680(8)
H54 H 0.0435 0.0640 0.2178
H55 H 0.0754 0.0317 0.1288
C59 C 0.0286(13) 0.1004(8) 0.9639(9)
O7 O 0.1054(10) 0.0613(5) 0.9719(7)
C51 C 0.8129(9) 0.0884(4) 0.1564(7)
C52 C 0.9197(9) 0.0677(5) 0.1090(9)
C53 C 0.9402(13) 0.1032(8) 0.0327(9)
C54 C 0.8408(12) 0.1410(5) 0.0154(11)
H48 H 0.8658 0.1763 0.0309
C55 C 0.7451(9) 0.1230(5) 0.0821(8)
H49 H 0.7105 0.1527 0.1120
H50 H 0.6845 0.1033 0.0469
C56 C 0.8589(15) 0.1210(6) 0.2342(11)
H51 H 0.9024 0.1492 0.2096
H52 H 0.9087 0.1005 0.2772
H53 H 0.7961 0.1348 0.2675
H56 H 0.9839 0.0100 0.1954
C58 C 0.7402(12) 0.0417(5) 0.1976(10)
O5 O 0.7667(8) 0.0263(4) 0.2823(7)
O6 O 0.6576(7) 0.0237(3) 0.1471(6)
C60 C 0.882(2) 0.0265(7) 0.035(2)
H61 H 0.686019 0.00986682 0.0872361
H62 H 0.990673 0.130036 0.079093
H47 H 0.8110 0.1399 0.9493
O8 O 0.9955(13) 0.1048(6) 0.8838(11)
H57 H 0.8173 0.0393 0.9951
H59 H 0.9455 0.0191 0.9962
H58 H 0.8602 0.9951 0.0661
H47_2 H 0.1890 0.6399 0.0507
O8_2 O 0.0045(13) 0.6048(6) 0.1162(11)
H57_2 H 0.1827 0.5393 0.0049
H59_2 H 0.0545 0.5191 0.0038
C51_2 C 0.1871(9) 0.5884(4) 0.8436(7)
C52_2 C 0.0803(9) 0.5677(5) 0.8910(9)
C53_2 C 0.0598(13) 0.6032(8) 0.9673(9)
C54_2 C 0.1592(12) 0.6410(5) 0.9846(11)
H48_2 H 0.1342 0.6763 0.9691
C55_2 C 0.2549(9) 0.6230(5) 0.9179(8)
H49_2 H 0.2895 0.6527 0.8880
H50_2 H 0.3155 0.6033 0.9531
C56_2 C 0.1411(15) 0.6210(6) 0.7658(11)
H51_2 H 0.0976 0.6492 0.7904
H52_2 H 0.0913 0.6005 0.7228
H53_2 H 0.2039 0.6348 0.7325
H56_2 H 0.0161 0.5100 0.8046
C58_2 C 0.2598(12) 0.5417(5) 0.8024(10)
O5_2 O 0.2333(8) 0.5263(4) 0.7177(7)
O6_2 O 0.3424(7) 0.5237(3) 0.8529(6)
C60_2 C 0.118(2) 0.5265(7) 0.965(2)
H58_2 H 0.1398 0.4951 0.9339
H61_2 H 0.313981 0.509867 0.912764
H62_2 H 0.00932749 0.630036 0.920907
C59_2 C 0.9714(13) 0.6004(8) 0.0361(9)
O7_2 O 0.8946(10) 0.5613(5) 0.0281(7)
C57_2 C 0.9860(11) 0.5410(6) 0.8320(8)
H54_2 H 0.9565 0.5640 0.7822
H55_2 H 0.9246 0.5317 0.8712
loop_
_geom_bond_atom_site_label_1
_geom_bond_atom_site_label_2
_geom_bond_site_symmetry_1
_geom_bond_site_symmetry_2
N3 C19 1_555 1_555
C11 N7 1_555 1_555
C19 H16 1_555 1_555
C21 N3 1_555 1_555
H18 C21 1_555 1_555
C22 C11 1_555 1_555
H19 C22 1_555 1_555
C23 N7 1_555 1_555
H20 C23 1_555 1_555
C25 C19 1_555 1_555
H22 C25 1_555 1_555
C30 C21 1_555 1_555
H27 C30 1_555 1_555
C33 C23 1_555 1_555
H29 C33 1_555 1_555
C35 C25 1_555 1_555
C36 C22 1_555 1_555
Cu4 N3 1_555 1_555
C30 C35 1_555 1_555
C33 C36 1_555 1_555
C35 C36 1_555 1_555
N5 Cu1 1_555 1_555
N8 C8 1_555 1_555
C8 H8 1_555 1_555
C16 N5 1_555 1_555
H14 C16 1_555 1_555
C17 N5 1_555 1_555
H15 C17 1_555 1_555
C20 C8 1_555 1_555
H17 C20 1_555 1_555
C24 C17 1_555 1_555
H21 C24 1_555 1_555
C26 N8 1_555 1_555
H23 C26 1_555 1_555
C27 C16 1_555 1_555
H24 C27 1_555 1_555
C28 C26 1_555 1_555
H25 C28 1_555 1_555
C32 C24 1_555 1_555
C34 C20 1_555 1_555
Cu4 N8 1_555 1_555
C27 C32 1_555 1_555
C28 C34 1_555 1_555
C32 C34 1_555 1_555
N2 C1 1_555 1_555
N4 C3 1_555 1_555
C1 H1 1_555 1_555
C2 N2 1_555 1_555
H2 C2 1_555 1_555
C4 H4 1_555 1_555
C5 N4 1_555 1_555
H5 C5 1_555 1_555
C12 C4 1_555 1_555
C13 C3 1_555 1_555
H12 C13 1_555 1_555
C14 C2 1_555 1_555
H13 C14 1_555 1_555
C15 C12 1_555 1_555
C39 C1 1_555 1_555
H32 C39 1_555 1_555
Cu4 N2 1_555 1_555
C4 C5 1_555 1_555
C12 C13 1_555 1_555
C14 C15 1_555 1_555
C15 C39 1_555 1_555
Cu4 N1 1_555 1_555
N1 C7 1_555 1_555
C6 H6 1_555 1_555
C7 H7 1_555 1_555
C9 C7 1_555 1_555
H9 C9 1_555 1_555
C10 N6 1_555 1_555
H10 C10 1_555 1_555
C18 C6 1_555 1_555
C29 N1 1_555 1_555
H26 C29 1_555 1_555
C31 N6 1_555 1_555
H28 C31 1_555 1_555
C37 C29 1_555 1_555
H30 C37 1_555 1_555
C38 C18 1_555 1_555
H31 C38 1_555 1_555
C40 C9 1_555 1_555
C6 C10 1_555 1_555
C18 C40 1_555 1_555
C31 C38 1_555 1_555
C37 C40 1_555 1_555
Cu2 N1_2 1_555 1_555
N1_2 C7_2 1_555 1_555
C6_2 H6_2 1_555 1_555
C7_2 H7_2 1_555 1_555
C9_2 C7_2 1_555 1_555
H9_2 C9_2 1_555 1_555
C10_2 N6_2 1_555 1_555
H10_2 C10_2 1_555 1_555
C18_2 C6_2 1_555 1_555
C29_2 N1_2 1_555 1_555
H26_2 C29_2 1_555 1_555
C31_2 N6_2 1_555 1_555
H28_2 C31_2 1_555 1_555
C37_2 C29_2 1_555 1_555
H30_2 C37_2 1_555 1_555
C38_2 C18_2 1_555 1_555
H31_2 C38_2 1_555 1_555
C40_2 C9_2 1_555 1_555
N9 Cu2 1_555 1_555
N10 Cu2 1_555 1_555
N11 Cu2 1_555 1_555
C6_2 C10_2 1_555 1_555
C18_2 C40_2 1_555 1_555
C31_2 C38_2 1_555 1_555
C37_2 C40_2 1_555 1_555
N9 C1_2 1_555 1_555
N4_2 C3_2 1_555 1_555
C1_2 H1_2 1_555 1_555
C2_2 N9 1_555 1_555
H2_2 C2_2 1_555 1_555
C4_2 H4_2 1_555 1_555
C5_2 N4_2 1_555 1_555
H5_2 C5_2 1_555 1_555
C12_2 C4_2 1_555 1_555
C13_2 C3_2 1_555 1_555
H12_2 C13_2 1_555 1_555
C14_2 C2_2 1_555 1_555
H13_2 C14_2 1_555 1_555
C15_2 C12_2 1_555 1_555
C39_2 C1_2 1_555 1_555
H32_2 C39_2 1_555 1_555
C4_2 C5_2 1_555 1_555
C12_2 C13_2 1_555 1_555
C14_2 C15_2 1_555 1_555
C15_2 C39_2 1_555 1_555
N11 C8_2 1_555 1_555
C8_2 H8_2 1_555 1_555
C20_2 C8_2 1_555 1_555
C26_2 N11 1_555 1_555
H23_2 C26_2 1_555 1_555
C28_2 C26_2 1_555 1_555
H25_2 C28_2 1_555 1_555
C34_2 C20_2 1_555 1_555
C28_2 C34_2 1_555 1_555
N10 C19_2 1_555 1_555
C19_2 H16_2 1_555 1_555
C21_2 N10 1_555 1_555
H18_2 C21_2 1_555 1_555
C25_2 C19_2 1_555 1_555
H22_2 C25_2 1_555 1_555
C30_2 C21_2 1_555 1_555
C35_2 C25_2 1_555 1_555
C30_2 C35_2 1_555 1_555
N5_2 Cu1_2 1_555 1_555
C16_2 N5_2 1_555 1_555
H14_2 C16_2 1_555 1_555
C17_2 N5_2 1_555 1_555
H15_2 C17_2 1_555 1_555
C24_2 C17_2 1_555 1_555
H21_2 C24_2 1_555 1_555
C27_2 C16_2 1_555 1_555
H24_2 C27_2 1_555 1_555
C32_2 C24_2 1_555 1_555
C27_2 C32_2 1_555 1_555
C11_2 N7_2 1_555 1_555
C22_2 C11_2 1_555 1_555
H19_2 C22_2 1_555 1_555
C23_2 N7_2 1_555 1_555
H20_2 C23_2 1_555 1_555
C33_2 C23_2 1_555 1_555
H29_2 C33_2 1_555 1_555
C36_2 C22_2 1_555 1_555
C33_2 C36_2 1_555 1_555
C41 H33 1_555 1_555
C42 C41 1_555 1_555
C43 C42 1_555 1_555
C44 C43 1_555 1_555
H34 C44 1_555 1_555
H35 C44 1_555 1_555
C45 C41 1_555 1_555
H36 C45 1_555 1_555
H37 C45 1_555 1_555
C46 C42 1_555 1_555
H38 C46 1_555 1_555
H39 C46 1_555 1_555
H40 C46 1_555 1_555
C47 C42 1_555 1_555
H41 C47 1_555 1_555
H42 C47 1_555 1_555
H43 C47 1_555 1_555
C48 C43 1_555 1_555
C49 C41 1_555 1_555
O1 C49 1_555 1_555
O2 C49 1_555 1_555
O3 C48 1_555 1_555
O4 C48 1_555 1_555
C50 C43 1_555 1_555
H44 C50 1_555 1_555
H45 C50 1_555 1_555
H46 C50 1_555 1_555
C44 C45 1_555 1_555
O4 H60 1_555 1_555
C41_2 H33_2 1_555 1_555
C42_2 C41_2 1_555 1_555
C43_2 C42_2 1_555 1_555
C44_2 C43_2 1_555 1_555
H34_2 C44_2 1_555 1_555
H35_2 C44_2 1_555 1_555
C45_2 C41_2 1_555 1_555
H36_2 C45_2 1_555 1_555
H37_2 C45_2 1_555 1_555
C46_2 C42_2 1_555 1_555
H38_2 C46_2 1_555 1_555
H39_2 C46_2 1_555 1_555
H40_2 C46_2 1_555 1_555
C47_2 C42_2 1_555 1_555
H41_2 C47_2 1_555 1_555
H42_2 C47_2 1_555 1_555
H43_2 C47_2 1_555 1_555
C48_2 C43_2 1_555 1_555
C49_2 C41_2 1_555 1_555
O1_2 C49_2 1_555 1_555
O2_2 C49_2 1_555 1_555
O3_2 C48_2 1_555 1_555
O4_2 C48_2 1_555 1_555
C50_2 C43_2 1_555 1_555
H44_2 C50_2 1_555 1_555
H45_2 C50_2 1_555 1_555
H46_2 C50_2 1_555 1_555
C44_2 C45_2 1_555 1_555
O4_2 H60_2 1_555 1_555
H54 C57 1_555 1_555
H55 C57 1_555 1_555
O7 C59 1_555 1_555
C51 C52 1_555 1_555
C52 C53 1_555 1_555
C53 C54 1_555 1_555
H48 C54 1_555 1_555
C55 C51 1_555 1_555
H49 C55 1_555 1_555
H50 C55 1_555 1_555
C56 C51 1_555 1_555
H51 C56 1_555 1_555
H52 C56 1_555 1_555
H53 C56 1_555 1_555
C58 C51 1_555 1_555
O5 C58 1_555 1_555
O6 C58 1_555 1_555
C60 C52 1_555 1_555
C54 C55 1_555 1_555
O6 H61 1_555 1_555
C53 H62 1_555 1_555
C51_2 C52_2 1_555 1_555
C52_2 C53_2 1_555 1_555
C53_2 C54_2 1_555 1_555
H48_2 C54_2 1_555 1_555
C55_2 C51_2 1_555 1_555
H49_2 C55_2 1_555 1_555
H50_2 C55_2 1_555 1_555
C56_2 C51_2 1_555 1_555
H51_2 C56_2 1_555 1_555
H52_2 C56_2 1_555 1_555
H53_2 C56_2 1_555 1_555
C58_2 C51_2 1_555 1_555
O5_2 C58_2 1_555 1_555
O6_2 C58_2 1_555 1_555
C60_2 C52_2 1_555 1_555
H58_2 C60_2 1_555 1_555
C54_2 C55_2 1_555 1_555
O6_2 H61_2 1_555 1_555
C53_2 H62_2 1_555 1_555
O7_2 C59_2 1_555 1_555
H54_2 C57_2 1_555 1_555
H55_2 C57_2 1_555 1_555

#END
