
###############################################################################
#
# This file contains modified crystal structure data generated from the
# MOF subset of the Cambridge Structural Database (CSD) v543 
# hosted by the Cambridge Crystallographic Data Centre (CCDC).
#
# This work is licensed under the Creative Commons
# Attribution-NonCommercial-ShareAlike 4.0 International License.
# To view a copy of this license, visit
# http://creativecommons.org/licenses/by-nc-sa/4.0/
# or send a letter to
# Creative Commons, PO Box 1866, Mountain View, CA 94042, USA.
#
# CIF created using the CSD Python API on 29 September 2022
# The structure has been converted into the P1 space group
# The structure has a 3D framework
# The original CSD entry LISWOC is in the monoclinic crystal system
# The framework has been calculated to contain at least 10.0% void space
# The void calculation uses a probe of radius 1.32A, grid spacing 0.4
#
###############################################################################

data_LISWOC
_chemical_formula_moiety         '(C96 H80 Co22 N88 O48)n'
_symmetry_cell_setting           triclinic
_symmetry_space_group_name_H-M   'P 1'
_symmetry_Int_Tables_number      1
_space_group_name_Hall           'P 1'
loop_
_symmetry_equiv_pos_site_id
_symmetry_equiv_pos_as_xyz
1 x,y,z
_cell_length_a                   22.0340(5)
_cell_length_b                   13.5207(3)
_cell_length_c                   16.9997(4)
_cell_angle_alpha                90
_cell_angle_beta                 97.990(2)
_cell_angle_gamma                90
_cell_volume                     5015.3
loop_
_atom_site_label
_atom_site_type_symbol
_atom_site_fract_x
_atom_site_fract_y
_atom_site_fract_z
N3 N 0.41085(18) 0.0762(3) 0.8403(3)
N4 N 0.51874(19) 0.0459(4) 0.8565(3)
H1 H 0.5428 0.0245 0.8243
H2 H 0.5210 0.1096 0.8589
N5 N 0.3029(2) 0.0436(5) 0.8070(4)
H3 H 0.2856 0.0044 0.8373
H4 H 0.2999 0.1037 0.8232
C1 C 0.4604(2) 0.0190(4) 0.8298(3)
C2 C 0.3628(2) 0.0185(4) 0.8099(3)
N14 N 0.58915(18) 0.0762(3) 0.6597(3)
N15 N 0.48126(19) 0.0459(4) 0.6435(3)
H11 H 0.4572 0.0245 0.6757
H12 H 0.4790 0.1096 0.6411
N16 N 0.6971(2) 0.0436(5) 0.6930(4)
H13 H 0.7144 0.0044 0.6627
H14 H 0.7001 0.1037 0.6768
C13 C 0.5396(2) 0.0190(4) 0.6702(3)
C14 C 0.6372(2) 0.0185(4) 0.6901(3)
Co8 Co 0.41131(3) 0.21100(6) 0.88937(5)
Co9 Co 0.58869(3) 0.21100(6) 0.61063(5)
Co10 Co 0.58869(3) 0.78900(6) 0.11063(5)
N26 N 0.41322(18) 0.1932(3) 0.0075(3)
Co1 Co 0.5000 0.82506(8) 0.7500
Co2 Co 0.33720(3) 0.82342(6) 0.72114(5)
O1 O 0.30865(15) 0.2446(3) 0.8611(2)
O2 O 0.24551(16) 0.3722(3) 0.8259(3)
O3 O 0.50525(15) 0.2526(3) 0.8844(2)
O4 O 0.5640(2) 0.3788(4) 0.8559(4)
O5 O 0.4421(2) 0.7066(3) 0.7895(3)
O6 O 0.3431(2) 0.6840(4) 0.7513(3)
N1 N 0.44473(17) 0.9337(3) 0.7948(2)
N2 N 0.38007(17) 0.9335(3) 0.7826(3)
N6 N 0.44680(17) 0.8133(4) 0.6378(2)
N7 N 0.38315(18) 0.8258(4) 0.6269(3)
N8 N 0.41322(18) 0.8068(3) 0.5075(3)
N9 N 0.5203(2) 0.7921(5) 0.5512(3)
H5 H 0.5502 0.7915 0.5895
H6 H 0.5273 0.7856 0.5029
N10 N 0.3079(3) 0.8419(6) 0.5139(4)
H7 H 0.2875 0.7874 0.5074
H8 H 0.2902 0.8809 0.5438
N11 N 0.40542(17) 0.3535(3) 0.8522(3)
C3 C 0.4620(2) 0.8031(4) 0.5668(3)
C4 C 0.3658(2) 0.8220(5) 0.5491(3)
C5 C 0.4569(2) 0.4034(4) 0.8471(3)
C6 C 0.4559(2) 0.5025(4) 0.8260(3)
H9 H 0.4922 0.5370 0.8244
C7 C 0.3997(2) 0.5494(4) 0.8074(3)
C8 C 0.3465(2) 0.4950(4) 0.8127(4)
H10 H 0.3082 0.5245 0.8011
C9 C 0.3515(2) 0.3989(4) 0.8348(3)
C10 C 0.2975(2) 0.3314(4) 0.8414(3)
C11 C 0.5142(2) 0.3408(5) 0.8642(4)
C12 C 0.3956(2) 0.6554(4) 0.7806(3)
Co4 Co 0.66280(3) 0.82342(6) 0.77886(5)
O7 O 0.69135(15) 0.2446(3) 0.6389(2)
O8 O 0.75449(16) 0.3722(3) 0.6741(3)
O9 O 0.49475(15) 0.2526(3) 0.6156(2)
O10 O 0.4360(2) 0.3788(4) 0.6441(4)
O11 O 0.5579(2) 0.7066(3) 0.7105(3)
O12 O 0.6569(2) 0.6840(4) 0.7487(3)
N12 N 0.55527(17) 0.9337(3) 0.7052(2)
N13 N 0.61993(17) 0.9335(3) 0.7174(3)
N17 N 0.55320(17) 0.8133(4) 0.8622(2)
N18 N 0.61685(18) 0.8258(4) 0.8731(3)
N19 N 0.58678(18) 0.8068(3) 0.9925(3)
N20 N 0.4797(2) 0.7921(5) 0.9488(3)
H15 H 0.4498 0.7915 0.9105
H16 H 0.4727 0.7856 0.9971
N21 N 0.6921(3) 0.8419(6) 0.9861(4)
H17 H 0.7125 0.7874 0.9926
H18 H 0.7098 0.8809 0.9562
N22 N 0.59458(17) 0.3535(3) 0.6478(3)
C15 C 0.5380(2) 0.8031(4) 0.9332(3)
C16 C 0.6342(2) 0.8220(5) 0.9509(3)
C17 C 0.5431(2) 0.4034(4) 0.6529(3)
C18 C 0.5441(2) 0.5025(4) 0.6740(3)
H19 H 0.5078 0.5370 0.6756
C19 C 0.6003(2) 0.5494(4) 0.6926(3)
C20 C 0.6535(2) 0.4950(4) 0.6873(4)
H20 H 0.6918 0.5245 0.6989
C21 C 0.6485(2) 0.3989(4) 0.6652(3)
C22 C 0.7025(2) 0.3314(4) 0.6586(3)
C23 C 0.4858(2) 0.3408(5) 0.6358(4)
C24 C 0.6044(2) 0.6554(4) 0.7194(3)
Co6 Co 0.83720(3) 0.32342(6) 0.72114(5)
Co7 Co 0.16280(3) 0.32342(6) 0.77886(5)
Co11 Co 0.41131(3) 0.78900(6) 0.38937(5)
O13 O 0.74551(16) 0.8722(3) 0.8259(3)
O14 O 0.25449(16) 0.8722(3) 0.6741(3)
N25 N 0.58678(18) 0.1932(3) 0.4925(3)
Co10_2 Co 0.08869(3) 0.28900(6) 0.11063(5)
Co1_2 Co 0.0000 0.32506(8) 0.7500
N4_2 N 0.01874(19) 0.5459(4) 0.8565(3)
H1_2 H 0.0428 0.5245 0.8243
H2_2 H 0.0210 0.6096 0.8589
N9_2 N 0.0203(2) 0.2921(5) 0.5512(3)
H5_2 H 0.0502 0.2915 0.5895
H6_2 H 0.0273 0.2856 0.5029
O11_2 O 0.0579(2) 0.2066(3) 0.7105(3)
O12_2 O 0.1569(2) 0.1840(4) 0.7487(3)
N12_2 N 0.05527(17) 0.4337(3) 0.7052(2)
N13_2 N 0.11993(17) 0.4335(3) 0.7174(3)
N14_2 N 0.08915(18) 0.5762(3) 0.6597(3)
N16_2 N 0.1971(2) 0.5436(5) 0.6930(4)
H13_2 H 0.2144 0.5044 0.6627
H14_2 H 0.2001 0.6037 0.6768
N17_2 N 0.05320(17) 0.3133(4) 0.8622(2)
N18_2 N 0.11685(18) 0.3258(4) 0.8731(3)
N19_2 N 0.08678(18) 0.3068(3) 0.9925(3)
N21_2 N 0.1921(3) 0.3419(6) 0.9861(4)
H17_2 H 0.2125 0.2874 0.9926
H18_2 H 0.2098 0.3809 0.9562
C13_2 C 0.0396(2) 0.5190(4) 0.6702(3)
C14_2 C 0.1372(2) 0.5185(4) 0.6901(3)
C15_2 C 0.0380(2) 0.3031(4) 0.9332(3)
C16_2 C 0.1342(2) 0.3220(5) 0.9509(3)
C18_2 C 0.0441(2) 0.0025(4) 0.6740(3)
H19_2 H 0.0078 0.0370 0.6756
C19_2 C 0.1003(2) 0.0494(4) 0.6926(3)
H20_2 H 0.1918 0.0245 0.6989
C24_2 C 0.1044(2) 0.1554(4) 0.7194(3)
Co9_2 Co 0.08869(3) 0.71100(6) 0.61063(5)
O3_2 O 0.00525(15) 0.7526(3) 0.8844(2)
O4_2 O 0.0640(2) 0.8788(4) 0.8559(4)
C11_2 C 0.0142(2) 0.8408(5) 0.8642(4)
O7_2 O 0.19135(15) 0.7446(3) 0.6389(2)
N22_2 N 0.09458(17) 0.8535(3) 0.6478(3)
C17_2 C 0.0431(2) 0.9034(4) 0.6529(3)
C20_2 C 0.1535(2) 0.9950(4) 0.6873(4)
C21_2 C 0.1485(2) 0.8989(4) 0.6652(3)
C22_2 C 0.2025(2) 0.8314(4) 0.6586(3)
N25_2 N 0.08678(18) 0.6932(3) 0.4925(3)
Co1_3 Co 1.0000 0.32506(8) 0.7500
O5_2 O 0.9421(2) 0.2066(3) 0.7895(3)
O6_2 O 0.8431(2) 0.1840(4) 0.7513(3)
N1_2 N 0.94473(17) 0.4337(3) 0.7948(2)
N2_2 N 0.88007(17) 0.4335(3) 0.7826(3)
N3_2 N 0.91085(18) 0.5762(3) 0.8403(3)
N5_2 N 0.8029(2) 0.5436(5) 0.8070(4)
H3_2 H 0.7856 0.5044 0.8373
H4_2 H 0.7999 0.6037 0.8232
N6_2 N 0.94680(17) 0.3133(4) 0.6378(2)
N7_2 N 0.88315(18) 0.3258(4) 0.6269(3)
N8_2 N 0.91322(18) 0.3068(3) 0.5075(3)
N10_2 N 0.8079(3) 0.3419(6) 0.5139(4)
H7_2 H 0.7875 0.2874 0.5074
H8_2 H 0.7902 0.3809 0.5438
C1_2 C 0.9604(2) 0.5190(4) 0.8298(3)
C2_2 C 0.8628(2) 0.5185(4) 0.8099(3)
C3_2 C 0.9620(2) 0.3031(4) 0.5668(3)
C4_2 C 0.8658(2) 0.3220(5) 0.5491(3)
C6_2 C 0.9559(2) 0.0025(4) 0.8260(3)
H9_2 H 0.9922 0.0370 0.8244
C7_2 C 0.8997(2) 0.0494(4) 0.8074(3)
H10_2 H 0.8082 0.0245 0.8011
C12_2 C 0.8956(2) 0.1554(4) 0.7806(3)
N15_2 N 0.98126(19) 0.5459(4) 0.6435(3)
H11_2 H 0.9572 0.5245 0.6757
H12_2 H 0.9790 0.6096 0.6411
N20_2 N 0.9797(2) 0.2921(5) 0.9488(3)
H15_2 H 0.9498 0.2915 0.9105
H16_2 H 0.9727 0.2856 0.9971
Co8_2 Co 0.91131(3) 0.71100(6) 0.88937(5)
Co11_2 Co 0.91131(3) 0.28900(6) 0.38937(5)
N26_2 N 0.91322(18) 0.6932(3) 0.0075(3)
O1_2 O 0.80865(15) 0.7446(3) 0.8611(2)
N11_2 N 0.90542(17) 0.8535(3) 0.8522(3)
C5_2 C 0.9569(2) 0.9034(4) 0.8471(3)
C8_2 C 0.8465(2) 0.9950(4) 0.8127(4)
C9_2 C 0.8515(2) 0.8989(4) 0.8348(3)
C10_2 C 0.7975(2) 0.8314(4) 0.8414(3)
O9_2 O 0.99475(15) 0.7526(3) 0.6156(2)
O10_2 O 0.9360(2) 0.8788(4) 0.6441(4)
C23_2 C 0.9858(2) 0.8408(5) 0.6358(4)
Co1_4 Co 0.5000 0.17494(8) 0.2500
Co2_2 Co 0.66280(3) 0.17658(6) 0.27886(5)
O1_3 O 0.69135(15) 0.7554(3) 0.1389(2)
O2_2 O 0.75449(16) 0.6278(3) 0.1741(3)
O3_3 O 0.49475(15) 0.7474(3) 0.1156(2)
O4_3 O 0.4360(2) 0.6212(4) 0.1441(4)
O5_3 O 0.5579(2) 0.2934(3) 0.2105(3)
O6_3 O 0.6569(2) 0.3160(4) 0.2487(3)
N1_3 N 0.55527(17) 0.0663(3) 0.2052(2)
N2_3 N 0.61993(17) 0.0665(3) 0.2174(3)
N6_3 N 0.55320(17) 0.1867(4) 0.3622(2)
N7_3 N 0.61685(18) 0.1742(4) 0.3731(3)
N9_3 N 0.4797(2) 0.2079(5) 0.4488(3)
H5_3 H 0.4498 0.2085 0.4105
H6_3 H 0.4727 0.2144 0.4971
N10_3 N 0.6921(3) 0.1581(6) 0.4861(4)
H7_3 H 0.7125 0.2126 0.4926
H8_3 H 0.7098 0.1191 0.4562
N11_3 N 0.59458(17) 0.6465(3) 0.1478(3)
C3_3 C 0.5380(2) 0.1969(4) 0.4332(3)
C4_3 C 0.6342(2) 0.1780(5) 0.4509(3)
C5_3 C 0.5431(2) 0.5966(4) 0.1529(3)
C6_3 C 0.5441(2) 0.4975(4) 0.1740(3)
H9_3 H 0.5078 0.4630 0.1756
C7_3 C 0.6003(2) 0.4506(4) 0.1926(3)
C8_3 C 0.6535(2) 0.5050(4) 0.1873(4)
H10_3 H 0.6918 0.4755 0.1989
C9_3 C 0.6485(2) 0.6011(4) 0.1652(3)
C10_3 C 0.7025(2) 0.6686(4) 0.1586(3)
C11_3 C 0.4858(2) 0.6592(5) 0.1358(4)
C12_3 C 0.6044(2) 0.3446(4) 0.2194(3)
Co4_2 Co 0.33720(3) 0.17658(6) 0.22114(5)
O7_3 O 0.30865(15) 0.7554(3) 0.3611(2)
O8_2 O 0.24551(16) 0.6278(3) 0.3259(3)
O9_3 O 0.50525(15) 0.7474(3) 0.3844(2)
O10_3 O 0.5640(2) 0.6212(4) 0.3559(4)
O11_3 O 0.4421(2) 0.2934(3) 0.2895(3)
O12_3 O 0.3431(2) 0.3160(4) 0.2513(3)
N12_3 N 0.44473(17) 0.0663(3) 0.2948(2)
N13_3 N 0.38007(17) 0.0665(3) 0.2826(3)
N17_3 N 0.44680(17) 0.1867(4) 0.1378(2)
N18_3 N 0.38315(18) 0.1742(4) 0.1269(3)
N20_3 N 0.5203(2) 0.2079(5) 0.0512(3)
H15_3 H 0.5502 0.2085 0.0895
H16_3 H 0.5273 0.2144 0.0029
N21_3 N 0.3079(3) 0.1581(6) 0.0139(4)
H17_3 H 0.2875 0.2126 0.0074
H18_3 H 0.2902 0.1191 0.0438
N22_3 N 0.40542(17) 0.6465(3) 0.3522(3)
C15_3 C 0.4620(2) 0.1969(4) 0.0668(3)
C16_3 C 0.3658(2) 0.1780(5) 0.0491(3)
C17_3 C 0.4569(2) 0.5966(4) 0.3471(3)
C18_3 C 0.4559(2) 0.4975(4) 0.3260(3)
H19_3 H 0.4922 0.4630 0.3244
C19_3 C 0.3997(2) 0.4506(4) 0.3074(3)
C20_3 C 0.3465(2) 0.5050(4) 0.3127(4)
H20_3 H 0.3082 0.4755 0.3011
C21_3 C 0.3515(2) 0.6011(4) 0.3348(3)
C22_3 C 0.2975(2) 0.6686(4) 0.3414(3)
C23_3 C 0.5142(2) 0.6592(5) 0.3642(4)
C24_3 C 0.3956(2) 0.3446(4) 0.2806(3)
Co6_2 Co 0.16280(3) 0.67658(6) 0.27886(5)
Co7_2 Co 0.83720(3) 0.67658(6) 0.22114(5)
O13_2 O 0.25449(16) 0.1278(3) 0.1741(3)
O14_2 O 0.74551(16) 0.1278(3) 0.3259(3)
N23 N 0.58915(18) 0.9238(3) 0.1597(3)
N24 N 0.41085(18) 0.9238(3) 0.3403(3)
N4_3 N 0.48126(19) 0.9541(4) 0.1435(3)
H1_3 H 0.4572 0.9755 0.1757
H2_3 H 0.4790 0.8904 0.1411
N5_3 N 0.6971(2) 0.9564(5) 0.1930(4)
H3_3 H 0.7144 0.9956 0.1627
H4_3 H 0.7001 0.8963 0.1768
C1_3 C 0.5396(2) 0.9810(4) 0.1702(3)
C2_3 C 0.6372(2) 0.9815(4) 0.1901(3)
N15_3 N 0.51874(19) 0.9541(4) 0.3565(3)
H11_3 H 0.5428 0.9755 0.3243
H12_3 H 0.5210 0.8904 0.3589
N16_3 N 0.3029(2) 0.9564(5) 0.3070(4)
H13_3 H 0.2856 0.9956 0.3373
H14_3 H 0.2999 0.8963 0.3232
C13_3 C 0.4604(2) 0.9810(4) 0.3298(3)
C14_3 C 0.3628(2) 0.9815(4) 0.3099(3)
O1_4 O 0.19135(15) 0.2554(3) 0.1389(2)
N11_4 N 0.09458(17) 0.1465(3) 0.1478(3)
C5_4 C 0.0431(2) 0.0966(4) 0.1529(3)
C8_4 C 0.1535(2) 0.0050(4) 0.1873(4)
C9_4 C 0.1485(2) 0.1011(4) 0.1652(3)
C10_4 C 0.2025(2) 0.1686(4) 0.1586(3)
O9_4 O 0.00525(15) 0.2474(3) 0.3844(2)
O10_4 O 0.0640(2) 0.1212(4) 0.3559(4)
C23_4 C 0.0142(2) 0.1592(5) 0.3642(4)
N23_2 N 0.08915(18) 0.4238(3) 0.1597(3)
Co1_5 Co 0.0000 0.67494(8) 0.2500
O5_4 O 0.0579(2) 0.7934(3) 0.2105(3)
O6_4 O 0.1569(2) 0.8160(4) 0.2487(3)
N1_4 N 0.05527(17) 0.5663(3) 0.2052(2)
N2_4 N 0.11993(17) 0.5665(3) 0.2174(3)
N5_4 N 0.1971(2) 0.4564(5) 0.1930(4)
H3_4 H 0.2144 0.4956 0.1627
H4_4 H 0.2001 0.3963 0.1768
N6_4 N 0.05320(17) 0.6867(4) 0.3622(2)
N7_4 N 0.11685(18) 0.6742(4) 0.3731(3)
N10_4 N 0.1921(3) 0.6581(6) 0.4861(4)
H7_4 H 0.2125 0.7126 0.4926
H8_4 H 0.2098 0.6191 0.4562
C1_4 C 0.0396(2) 0.4810(4) 0.1702(3)
C2_4 C 0.1372(2) 0.4815(4) 0.1901(3)
C3_4 C 0.0380(2) 0.6969(4) 0.4332(3)
C4_4 C 0.1342(2) 0.6780(5) 0.4509(3)
C6_4 C 0.0441(2) 0.9975(4) 0.1740(3)
H9_4 H 0.0078 0.9630 0.1756
C7_4 C 0.1003(2) 0.9506(4) 0.1926(3)
H10_4 H 0.1918 0.9755 0.1989
C12_4 C 0.1044(2) 0.8446(4) 0.2194(3)
N15_4 N 0.01874(19) 0.4541(4) 0.3565(3)
H11_4 H 0.0428 0.4755 0.3243
H12_4 H 0.0210 0.3904 0.3589
N20_4 N 0.0203(2) 0.7079(5) 0.0512(3)
H15_4 H 0.0502 0.7085 0.0895
H16_4 H 0.0273 0.7144 0.0029
O3_4 O 0.99475(15) 0.2474(3) 0.1156(2)
O4_4 O 0.9360(2) 0.1212(4) 0.1441(4)
C11_4 C 0.9858(2) 0.1592(5) 0.1358(4)
O7_4 O 0.80865(15) 0.2554(3) 0.3611(2)
N22_4 N 0.90542(17) 0.1465(3) 0.3522(3)
C17_4 C 0.9569(2) 0.0966(4) 0.3471(3)
C20_4 C 0.8465(2) 0.0050(4) 0.3127(4)
C21_4 C 0.8515(2) 0.1011(4) 0.3348(3)
C22_4 C 0.7975(2) 0.1686(4) 0.3414(3)
N24_2 N 0.91085(18) 0.4238(3) 0.3403(3)
Co1_6 Co 1.0000 0.67494(8) 0.2500
N4_4 N 0.98126(19) 0.4541(4) 0.1435(3)
H1_4 H 0.9572 0.4755 0.1757
H2_4 H 0.9790 0.3904 0.1411
N9_4 N 0.9797(2) 0.7079(5) 0.4488(3)
H5_4 H 0.9498 0.7085 0.4105
H6_4 H 0.9727 0.7144 0.4971
O11_4 O 0.9421(2) 0.7934(3) 0.2895(3)
O12_4 O 0.8431(2) 0.8160(4) 0.2513(3)
N12_4 N 0.94473(17) 0.5663(3) 0.2948(2)
N13_4 N 0.88007(17) 0.5665(3) 0.2826(3)
N16_4 N 0.8029(2) 0.4564(5) 0.3070(4)
H13_4 H 0.7856 0.4956 0.3373
H14_4 H 0.7999 0.3963 0.3232
N17_4 N 0.94680(17) 0.6867(4) 0.1378(2)
N18_4 N 0.88315(18) 0.6742(4) 0.1269(3)
N21_4 N 0.8079(3) 0.6581(6) 0.0139(4)
H17_4 H 0.7875 0.7126 0.0074
H18_4 H 0.7902 0.6191 0.0438
C13_4 C 0.9604(2) 0.4810(4) 0.3298(3)
C14_4 C 0.8628(2) 0.4815(4) 0.3099(3)
C15_4 C 0.9620(2) 0.6969(4) 0.0668(3)
C16_4 C 0.8658(2) 0.6780(5) 0.0491(3)
C18_4 C 0.9559(2) 0.9975(4) 0.3260(3)
H19_4 H 0.9922 0.9630 0.3244
C19_4 C 0.8997(2) 0.9506(4) 0.3074(3)
H20_4 H 0.8082 0.9755 0.3011
C24_4 C 0.8956(2) 0.8446(4) 0.2806(3)
loop_
_geom_bond_atom_site_label_1
_geom_bond_atom_site_label_2
_geom_bond_site_symmetry_1
_geom_bond_site_symmetry_2
N3 C1 1_555 1_555
N4 H1 1_555 1_555
H2 N4 1_555 1_555
N5 H3 1_555 1_555
H4 N5 1_555 1_555
N14 C13 1_555 1_555
N15 H11 1_555 1_555
H12 N15 1_555 1_555
N16 H13 1_555 1_555
H14 N16 1_555 1_555
Co8 N3 1_555 1_555
Co9 N14 1_555 1_555
N3 C2 1_555 1_555
N4 C1 1_555 1_555
N5 C2 1_555 1_555
N14 C14 1_555 1_555
N15 C13 1_555 1_555
N16 C14 1_555 1_555
Co1 O5 1_555 1_555
Co2 O6 1_555 1_555
Co8 O1 1_555 1_555
O1 C10 1_555 1_555
O2 C10 1_555 1_555
O3 Co8 1_555 1_555
O4 C11 1_555 1_555
O5 C12 1_555 1_555
O6 C12 1_555 1_555
N1 Co1 1_555 1_555
N2 Co2 1_555 1_555
N6 Co1 1_555 1_555
N7 Co2 1_555 1_555
N8 C3 1_555 1_555
N9 H5 1_555 1_555
H6 N9 1_555 1_555
N10 H7 1_555 1_555
H8 N10 1_555 1_555
N11 Co8 1_555 1_555
C3 N6 1_555 1_555
C4 N7 1_555 1_555
C5 N11 1_555 1_555
C6 C5 1_555 1_555
H9 C6 1_555 1_555
C7 C6 1_555 1_555
C8 C7 1_555 1_555
H10 C8 1_555 1_555
C9 N11 1_555 1_555
C10 C9 1_555 1_555
C11 O3 1_555 1_555
C12 C7 1_555 1_555
Co4 O12 1_555 1_555
Co9 O7 1_555 1_555
O7 C22 1_555 1_555
O8 C22 1_555 1_555
O9 Co9 1_555 1_555
O10 C23 1_555 1_555
O11 Co1 1_555 1_555
O12 C24 1_555 1_555
N12 Co1 1_555 1_555
N13 Co4 1_555 1_555
N17 Co1 1_555 1_555
N18 Co4 1_555 1_555
N19 C15 1_555 1_555
N20 H15 1_555 1_555
H16 N20 1_555 1_555
N21 H17 1_555 1_555
H18 N21 1_555 1_555
N22 Co9 1_555 1_555
C15 N17 1_555 1_555
C16 N18 1_555 1_555
C17 N22 1_555 1_555
C18 C17 1_555 1_555
H19 C18 1_555 1_555
C19 C18 1_555 1_555
C20 C19 1_555 1_555
H20 C20 1_555 1_555
C21 N22 1_555 1_555
C22 C21 1_555 1_555
C23 O9 1_555 1_555
C24 O11 1_555 1_555
Co6 O8 1_555 1_555
Co7 O2 1_555 1_555
Co11 N8 1_555 1_555
O13 Co4 1_555 1_555
O14 Co2 1_555 1_555
N25 Co9 1_555 1_555
N1 N2 1_555 1_555
N6 N7 1_555 1_555
N8 C4 1_555 1_555
N9 C3 1_555 1_555
N10 C4 1_555 1_555
C5 C11 1_555 1_555
C8 C9 1_555 1_555
N12 N13 1_555 1_555
N17 N18 1_555 1_555
N19 C16 1_555 1_555
N20 C15 1_555 1_555
N21 C16 1_555 1_555
C17 C23 1_555 1_555
C19 C24 1_555 1_555
C20 C21 1_555 1_555
N4_2 H1_2 1_555 1_555
H2_2 N4_2 1_555 1_555
N9_2 H5_2 1_555 1_555
H6_2 N9_2 1_555 1_555
Co7 O12_2 1_555 1_555
O11_2 Co1_2 1_555 1_555
O12_2 C24_2 1_555 1_555
N12_2 Co1_2 1_555 1_555
N13_2 Co7 1_555 1_555
N14_2 C13_2 1_555 1_555
N16_2 H13_2 1_555 1_555
H14_2 N16_2 1_555 1_555
N17_2 Co1_2 1_555 1_555
N18_2 Co7 1_555 1_555
N19_2 C15_2 1_555 1_555
N21_2 H17_2 1_555 1_555
H18_2 N21_2 1_555 1_555
C13_2 N12_2 1_555 1_555
C14_2 N13_2 1_555 1_555
C15_2 N17_2 1_555 1_555
C16_2 N18_2 1_555 1_555
H19_2 C18_2 1_555 1_555
C19_2 C18_2 1_555 1_555
C24_2 O11_2 1_555 1_555
Co9_2 N14_2 1_555 1_555
N12_2 N13_2 1_555 1_555
N14_2 C14_2 1_555 1_555
N16_2 C14_2 1_555 1_555
N17_2 N18_2 1_555 1_555
N19_2 C16_2 1_555 1_555
N21_2 C16_2 1_555 1_555
C19_2 C24_2 1_555 1_555
O4_2 C11_2 1_555 1_555
C11_2 O3_2 1_555 1_555
Co9_2 O7_2 1_555 1_555
O7_2 C22_2 1_555 1_555
O14 C22_2 1_555 1_555
N22_2 Co9_2 1_555 1_555
C17_2 N22_2 1_555 1_555
C21_2 N22_2 1_555 1_555
C22_2 C21_2 1_555 1_555
N25_2 Co9_2 1_555 1_555
C20_2 C21_2 1_555 1_555
Co1_3 O5_2 1_555 1_555
Co6 O6_2 1_555 1_555
O5_2 C12_2 1_555 1_555
O6_2 C12_2 1_555 1_555
N1_2 Co1_3 1_555 1_555
N2_2 Co6 1_555 1_555
N3_2 C1_2 1_555 1_555
N5_2 H3_2 1_555 1_555
H4_2 N5_2 1_555 1_555
N6_2 Co1_3 1_555 1_555
N7_2 Co6 1_555 1_555
N8_2 C3_2 1_555 1_555
N10_2 H7_2 1_555 1_555
H8_2 N10_2 1_555 1_555
C1_2 N1_2 1_555 1_555
C2_2 N2_2 1_555 1_555
C3_2 N6_2 1_555 1_555
C4_2 N7_2 1_555 1_555
H9_2 C6_2 1_555 1_555
C7_2 C6_2 1_555 1_555
C12_2 C7_2 1_555 1_555
N15_2 H11_2 1_555 1_555
H12_2 N15_2 1_555 1_555
N20_2 H15_2 1_555 1_555
H16_2 N20_2 1_555 1_555
Co8_2 N3_2 1_555 1_555
Co11_2 N8_2 1_555 1_555
N1_2 N2_2 1_555 1_555
N3_2 C2_2 1_555 1_555
N5_2 C2_2 1_555 1_555
N6_2 N7_2 1_555 1_555
N8_2 C4_2 1_555 1_555
N10_2 C4_2 1_555 1_555
Co8_2 O1_2 1_555 1_555
O1_2 C10_2 1_555 1_555
O13 C10_2 1_555 1_555
N11_2 Co8_2 1_555 1_555
C5_2 N11_2 1_555 1_555
C9_2 N11_2 1_555 1_555
C10_2 C9_2 1_555 1_555
O10_2 C23_2 1_555 1_555
C23_2 O9_2 1_555 1_555
C8_2 C9_2 1_555 1_555
Co1_4 O5_3 1_555 1_555
Co2_2 O6_3 1_555 1_555
Co10 O1_3 1_555 1_555
O1_3 C10_3 1_555 1_555
O2_2 C10_3 1_555 1_555
O3_3 Co10 1_555 1_555
O4_3 C11_3 1_555 1_555
O5_3 C12_3 1_555 1_555
O6_3 C12_3 1_555 1_555
N1_3 Co1_4 1_555 1_555
N2_3 Co2_2 1_555 1_555
N6_3 Co1_4 1_555 1_555
N7_3 Co2_2 1_555 1_555
N25 C3_3 1_555 1_555
N9_3 H5_3 1_555 1_555
H6_3 N9_3 1_555 1_555
N10_3 H7_3 1_555 1_555
H8_3 N10_3 1_555 1_555
N11_3 Co10 1_555 1_555
C3_3 N6_3 1_555 1_555
C4_3 N7_3 1_555 1_555
C5_3 N11_3 1_555 1_555
C6_3 C5_3 1_555 1_555
H9_3 C6_3 1_555 1_555
C7_3 C6_3 1_555 1_555
C8_3 C7_3 1_555 1_555
H10_3 C8_3 1_555 1_555
C9_3 N11_3 1_555 1_555
C10_3 C9_3 1_555 1_555
C11_3 O3_3 1_555 1_555
C12_3 C7_3 1_555 1_555
Co4_2 O12_3 1_555 1_555
Co11 O7_3 1_555 1_555
O7_3 C22_3 1_555 1_555
O8_2 C22_3 1_555 1_555
O9_3 Co11 1_555 1_555
O10_3 C23_3 1_555 1_555
O11_3 Co1_4 1_555 1_555
O12_3 C24_3 1_555 1_555
N12_3 Co1_4 1_555 1_555
N13_3 Co4_2 1_555 1_555
N17_3 Co1_4 1_555 1_555
N18_3 Co4_2 1_555 1_555
N26 C15_3 1_555 1_555
N20_3 H15_3 1_555 1_555
H16_3 N20_3 1_555 1_555
N21_3 H17_3 1_555 1_555
H18_3 N21_3 1_555 1_555
N22_3 Co11 1_555 1_555
C15_3 N17_3 1_555 1_555
C16_3 N18_3 1_555 1_555
C17_3 N22_3 1_555 1_555
C18_3 C17_3 1_555 1_555
H19_3 C18_3 1_555 1_555
C19_3 C18_3 1_555 1_555
C20_3 C19_3 1_555 1_555
H20_3 C20_3 1_555 1_555
C21_3 N22_3 1_555 1_555
C22_3 C21_3 1_555 1_555
C23_3 O9_3 1_555 1_555
C24_3 O11_3 1_555 1_555
Co6_2 O8_2 1_555 1_555
Co7_2 O2_2 1_555 1_555
O13_2 Co4_2 1_555 1_555
O14_2 Co2_2 1_555 1_555
N23 Co10 1_555 1_555
N24 Co11 1_555 1_555
N1_3 N2_3 1_555 1_555
N6_3 N7_3 1_555 1_555
N25 C4_3 1_555 1_555
N9_3 C3_3 1_555 1_555
N10_3 C4_3 1_555 1_555
C5_3 C11_3 1_555 1_555
C8_3 C9_3 1_555 1_555
N12_3 N13_3 1_555 1_555
N17_3 N18_3 1_555 1_555
N26 C16_3 1_555 1_555
N20_3 C15_3 1_555 1_555
N21_3 C16_3 1_555 1_555
C17_3 C23_3 1_555 1_555
C19_3 C24_3 1_555 1_555
C20_3 C21_3 1_555 1_555
N23 C1_3 1_555 1_555
N4_3 H1_3 1_555 1_555
H2_3 N4_3 1_555 1_555
N5_3 H3_3 1_555 1_555
H4_3 N5_3 1_555 1_555
N24 C13_3 1_555 1_555
N15_3 H11_3 1_555 1_555
H12_3 N15_3 1_555 1_555
N16_3 H13_3 1_555 1_555
H14_3 N16_3 1_555 1_555
N23 C2_3 1_555 1_555
N4_3 C1_3 1_555 1_555
N5_3 C2_3 1_555 1_555
N24 C14_3 1_555 1_555
N15_3 C13_3 1_555 1_555
N16_3 C14_3 1_555 1_555
Co10_2 O1_4 1_555 1_555
O1_4 C10_4 1_555 1_555
O13_2 C10_4 1_555 1_555
N11_4 Co10_2 1_555 1_555
C5_4 N11_4 1_555 1_555
C9_4 N11_4 1_555 1_555
C10_4 C9_4 1_555 1_555
O10_4 C23_4 1_555 1_555
C23_4 O9_4 1_555 1_555
N23_2 Co10_2 1_555 1_555
C8_4 C9_4 1_555 1_555
Co1_5 O5_4 1_555 1_555
Co6_2 O6_4 1_555 1_555
O5_4 C12_4 1_555 1_555
O6_4 C12_4 1_555 1_555
N1_4 Co1_5 1_555 1_555
N2_4 Co6_2 1_555 1_555
N23_2 C1_4 1_555 1_555
N5_4 H3_4 1_555 1_555
H4_4 N5_4 1_555 1_555
N6_4 Co1_5 1_555 1_555
N7_4 Co6_2 1_555 1_555
N25_2 C3_4 1_555 1_555
N10_4 H7_4 1_555 1_555
H8_4 N10_4 1_555 1_555
C1_4 N1_4 1_555 1_555
C2_4 N2_4 1_555 1_555
C3_4 N6_4 1_555 1_555
C4_4 N7_4 1_555 1_555
H9_4 C6_4 1_555 1_555
C7_4 C6_4 1_555 1_555
C12_4 C7_4 1_555 1_555
N15_4 H11_4 1_555 1_555
H12_4 N15_4 1_555 1_555
N20_4 H15_4 1_555 1_555
H16_4 N20_4 1_555 1_555
N1_4 N2_4 1_555 1_555
N23_2 C2_4 1_555 1_555
N5_4 C2_4 1_555 1_555
N6_4 N7_4 1_555 1_555
N25_2 C4_4 1_555 1_555
N10_4 C4_4 1_555 1_555
O4_4 C11_4 1_555 1_555
C11_4 O3_4 1_555 1_555
Co11_2 O7_4 1_555 1_555
O7_4 C22_4 1_555 1_555
O14_2 C22_4 1_555 1_555
N22_4 Co11_2 1_555 1_555
C17_4 N22_4 1_555 1_555
C21_4 N22_4 1_555 1_555
C22_4 C21_4 1_555 1_555
N24_2 Co11_2 1_555 1_555
C20_4 C21_4 1_555 1_555
N4_4 H1_4 1_555 1_555
H2_4 N4_4 1_555 1_555
N9_4 H5_4 1_555 1_555
H6_4 N9_4 1_555 1_555
Co7_2 O12_4 1_555 1_555
O11_4 Co1_6 1_555 1_555
O12_4 C24_4 1_555 1_555
N12_4 Co1_6 1_555 1_555
N13_4 Co7_2 1_555 1_555
N24_2 C13_4 1_555 1_555
N16_4 H13_4 1_555 1_555
H14_4 N16_4 1_555 1_555
N17_4 Co1_6 1_555 1_555
N18_4 Co7_2 1_555 1_555
N26_2 C15_4 1_555 1_555
N21_4 H17_4 1_555 1_555
H18_4 N21_4 1_555 1_555
C13_4 N12_4 1_555 1_555
C14_4 N13_4 1_555 1_555
C15_4 N17_4 1_555 1_555
C16_4 N18_4 1_555 1_555
H19_4 C18_4 1_555 1_555
C19_4 C18_4 1_555 1_555
C24_4 O11_4 1_555 1_555
N12_4 N13_4 1_555 1_555
N24_2 C14_4 1_555 1_555
N16_4 C14_4 1_555 1_555
N17_4 N18_4 1_555 1_555
N26_2 C16_4 1_555 1_555
N21_4 C16_4 1_555 1_555
C19_4 C24_4 1_555 1_555

#END
