
###############################################################################
#
# This file contains modified crystal structure data generated from the
# MOF subset of the Cambridge Structural Database (CSD) v543 
# hosted by the Cambridge Crystallographic Data Centre (CCDC).
#
# This work is licensed under the Creative Commons
# Attribution-NonCommercial-ShareAlike 4.0 International License.
# To view a copy of this license, visit
# http://creativecommons.org/licenses/by-nc-sa/4.0/
# or send a letter to
# Creative Commons, PO Box 1866, Mountain View, CA 94042, USA.
#
# CIF created using the CSD Python API on 29 September 2022
# The structure has been converted into the P1 space group
# The structure has a 3D framework
# The original CSD entry LISWUI is in the monoclinic crystal system
# The framework has been calculated to contain at least 10.0% void space
# The void calculation uses a probe of radius 1.32A, grid spacing 0.4
#
###############################################################################

data_LISWUI
_chemical_formula_moiety         '(C96 H80 Co22 N88 O48)n'
_symmetry_cell_setting           triclinic
_symmetry_space_group_name_H-M   'P 1'
_symmetry_Int_Tables_number      1
_space_group_name_Hall           'P 1'
loop_
_symmetry_equiv_pos_site_id
_symmetry_equiv_pos_as_xyz
1 x,y,z
_cell_length_a                   22.241(3)
_cell_length_b                   13.4188(13)
_cell_length_c                   17.268(2)
_cell_angle_alpha                90
_cell_angle_beta                 99.282(11)
_cell_angle_gamma                90
_cell_volume                     5086.11
loop_
_atom_site_label
_atom_site_type_symbol
_atom_site_fract_x
_atom_site_fract_y
_atom_site_fract_z
N3 N 0.4105(2) 0.0773(4) 0.8394(3)
N4 N 0.5185(2) 0.0496(4) 0.8558(3)
H1 H 0.5431 0.0148 0.8326
H2 H 0.5230 0.1119 0.8455
N5 N 0.3040(2) 0.0399(4) 0.8100(4)
H3 H 0.2942 0.0335 0.8563
H4 H 0.2988 0.1015 0.7959
C3 C 0.3638(3) 0.0183(5) 0.8106(4)
C4 C 0.4601(3) 0.0217(5) 0.8288(4)
N14 N 0.5895(2) 0.0773(4) 0.6606(3)
N15 N 0.4815(2) 0.0496(4) 0.6442(3)
H11 H 0.4569 0.0148 0.6674
H12 H 0.4770 0.1119 0.6545
N16 N 0.6960(2) 0.0399(4) 0.6900(4)
H13 H 0.7058 0.0335 0.6437
H14 H 0.7012 0.1015 0.7041
C15 C 0.6362(3) 0.0183(5) 0.6894(4)
C16 C 0.5399(3) 0.0217(5) 0.6712(4)
Co8 Co 0.41369(4) 0.21146(6) 0.89260(5)
Co9 Co 0.58631(4) 0.21146(6) 0.60740(5)
H17 H 0.6956 0.8154 0.0399
Co10 Co 0.58631(4) 0.78854(6) 0.10740(5)
N26 N 0.4131(2) 0.1949(4) 0.0082(3)
Co1 Co 0.5000 0.82722(8) 0.7500
Co2 Co 0.34088(4) 0.82480(6) 0.71636(5)
O1 O 0.30489(19) 0.2463(3) 0.8581(3)
O2 O 0.24432(18) 0.3720(3) 0.8097(3)
O3 O 0.50366(18) 0.2519(3) 0.8903(3)
O4 O 0.5611(2) 0.3757(4) 0.8558(4)
O5 O 0.4424(2) 0.7059(3) 0.7840(3)
O6 O 0.3421(2) 0.6911(3) 0.7608(3)
N1 N 0.4454(2) 0.9364(4) 0.7941(3)
N2 N 0.3811(2) 0.9325(4) 0.7823(3)
N6 N 0.4473(2) 0.8160(4) 0.6374(3)
N7 N 0.3831(2) 0.8255(4) 0.6258(3)
N8 N 0.4131(2) 0.8051(4) 0.5082(3)
N9 N 0.5204(3) 0.7974(5) 0.5538(4)
H5 H 0.5320 0.7353 0.5562
H6 H 0.5232 0.8198 0.5071
N10 N 0.3065(3) 0.8272(5) 0.5138(4)
H7 H 0.3044 0.8154 0.4601
H8 H 0.2901 0.8784 0.5331
N11 N 0.4038(2) 0.3519(4) 0.8496(3)
C1 C 0.3666(3) 0.8184(5) 0.5495(5)
C2 C 0.4614(3) 0.8058(5) 0.5676(4)
C5 C 0.3499(3) 0.3983(5) 0.8304(4)
C6 C 0.3465(3) 0.4972(5) 0.8101(4)
H9 H 0.3089 0.5285 0.7979
C7 C 0.3998(3) 0.5502(5) 0.8081(4)
C8 C 0.4548(3) 0.5013(5) 0.8263(4)
H10 H 0.4911 0.5351 0.8250
C9 C 0.4554(3) 0.4023(5) 0.8464(4)
C10 C 0.2967(3) 0.3313(5) 0.8325(4)
C11 C 0.3958(3) 0.6584(5) 0.7824(4)
C12 C 0.5128(3) 0.3408(5) 0.8652(5)
Co4 Co 0.65912(4) 0.82480(6) 0.78364(5)
O7 O 0.69511(19) 0.2463(3) 0.6419(3)
O8 O 0.75568(18) 0.3720(3) 0.6903(3)
O9 O 0.49634(18) 0.2519(3) 0.6097(3)
O10 O 0.4389(2) 0.3757(4) 0.6442(4)
O11 O 0.5576(2) 0.7059(3) 0.7160(3)
O12 O 0.6579(2) 0.6911(3) 0.7392(3)
N12 N 0.5546(2) 0.9364(4) 0.7059(3)
N13 N 0.6189(2) 0.9325(4) 0.7177(3)
N17 N 0.5527(2) 0.8160(4) 0.8626(3)
N18 N 0.6169(2) 0.8255(4) 0.8742(3)
N19 N 0.5869(2) 0.8051(4) 0.9918(3)
N20 N 0.4796(3) 0.7974(5) 0.9462(4)
H15 H 0.4680 0.7353 0.9438
H16 H 0.4768 0.8198 0.9929
N21 N 0.6935(3) 0.8272(5) 0.9862(4)
H18 H 0.7099 0.8784 0.9669
N22 N 0.5962(2) 0.3519(4) 0.6504(3)
C13 C 0.6334(3) 0.8184(5) 0.9505(5)
C14 C 0.5386(3) 0.8058(5) 0.9324(4)
C17 C 0.6501(3) 0.3983(5) 0.6696(4)
C18 C 0.6535(3) 0.4972(5) 0.6899(4)
H19 H 0.6911 0.5285 0.7021
C19 C 0.6002(3) 0.5502(5) 0.6919(4)
C20 C 0.5452(3) 0.5013(5) 0.6737(4)
H20 H 0.5089 0.5351 0.6750
C21 C 0.5446(3) 0.4023(5) 0.6536(4)
C22 C 0.7033(3) 0.3313(5) 0.6675(4)
C23 C 0.6042(3) 0.6584(5) 0.7176(4)
C24 C 0.4872(3) 0.3408(5) 0.6348(5)
Co6 Co 0.84088(4) 0.32480(6) 0.71636(5)
Co7 Co 0.15912(4) 0.32480(6) 0.78364(5)
Co11 Co 0.41369(4) 0.78854(6) 0.39260(5)
O13 O 0.74432(18) 0.8720(3) 0.8097(3)
O14 O 0.25568(18) 0.8720(3) 0.6903(3)
N25 N 0.5869(2) 0.1949(4) 0.4918(3)
H17_2 H 0.1956 0.3154 0.0399
Co10_2 Co 0.08631(4) 0.28854(6) 0.10740(5)
Co1_2 Co -0.0000 0.32722(8) 0.7500
N4_2 N 0.0185(2) 0.5496(4) 0.8558(3)
H1_2 H 0.0431 0.5148 0.8326
H2_2 H 0.0230 0.6119 0.8455
N9_2 N 0.0204(3) 0.2974(5) 0.5538(4)
H5_2 H 0.0320 0.2353 0.5562
H6_2 H 0.0232 0.3198 0.5071
O11_2 O 0.0576(2) 0.2059(3) 0.7160(3)
O12_2 O 0.1579(2) 0.1911(3) 0.7392(3)
N12_2 N 0.0546(2) 0.4364(4) 0.7059(3)
N13_2 N 0.1189(2) 0.4325(4) 0.7177(3)
N14_2 N 0.0895(2) 0.5773(4) 0.6606(3)
N16_2 N 0.1960(2) 0.5399(4) 0.6900(4)
H13_2 H 0.2058 0.5335 0.6437
H14_2 H 0.2012 0.6015 0.7041
N17_2 N 0.0527(2) 0.3160(4) 0.8626(3)
N18_2 N 0.1169(2) 0.3255(4) 0.8742(3)
N19_2 N 0.0869(2) 0.3051(4) 0.9918(3)
N21_2 N 0.1935(3) 0.3272(5) 0.9862(4)
H18_2 H 0.2099 0.3784 0.9669
C13_2 C 0.1334(3) 0.3184(5) 0.9505(5)
C14_2 C 0.0386(3) 0.3058(5) 0.9324(4)
C15_2 C 0.1362(3) 0.5183(5) 0.6894(4)
C16_2 C 0.0399(3) 0.5217(5) 0.6712(4)
H19_2 H 0.1911 0.0285 0.7021
C19_2 C 0.1002(3) 0.0502(5) 0.6919(4)
C20_2 C 0.0452(3) 0.0013(5) 0.6737(4)
H20_2 H 0.0089 0.0351 0.6750
C23_2 C 0.1042(3) 0.1584(5) 0.7176(4)
Co9_2 Co 0.08631(4) 0.71146(6) 0.60740(5)
O3_2 O 0.00366(18) 0.7519(3) 0.8903(3)
O4_2 O 0.0611(2) 0.8757(4) 0.8558(4)
C12_2 C 0.0128(3) 0.8408(5) 0.8652(5)
O7_2 O 0.19511(19) 0.7463(3) 0.6419(3)
N22_2 N 0.0962(2) 0.8519(4) 0.6504(3)
C17_2 C 0.1501(3) 0.8983(5) 0.6696(4)
C18_2 C 0.1535(3) 0.9972(5) 0.6899(4)
C21_2 C 0.0446(3) 0.9023(5) 0.6536(4)
C22_2 C 0.2033(3) 0.8313(5) 0.6675(4)
N25_2 N 0.0869(2) 0.6949(4) 0.4918(3)
Co1_3 Co 1.0000 0.32722(8) 0.7500
O5_2 O 0.9424(2) 0.2059(3) 0.7840(3)
O6_2 O 0.8421(2) 0.1911(3) 0.7608(3)
N1_2 N 0.9454(2) 0.4364(4) 0.7941(3)
N2_2 N 0.8811(2) 0.4325(4) 0.7823(3)
N3_2 N 0.9105(2) 0.5773(4) 0.8394(3)
N5_2 N 0.8040(2) 0.5399(4) 0.8100(4)
H3_2 H 0.7942 0.5335 0.8563
H4_2 H 0.7988 0.6015 0.7959
N6_2 N 0.9473(2) 0.3160(4) 0.6374(3)
N7_2 N 0.8831(2) 0.3255(4) 0.6258(3)
N8_2 N 0.9131(2) 0.3051(4) 0.5082(3)
N10_2 N 0.8065(3) 0.3272(5) 0.5138(4)
H7_2 H 0.8044 0.3154 0.4601
H8_2 H 0.7901 0.3784 0.5331
C1_2 C 0.8666(3) 0.3184(5) 0.5495(5)
C2_2 C 0.9614(3) 0.3058(5) 0.5676(4)
C3_2 C 0.8638(3) 0.5183(5) 0.8106(4)
C4_2 C 0.9601(3) 0.5217(5) 0.8288(4)
H9_2 H 0.8089 0.0285 0.7979
C7_2 C 0.8998(3) 0.0502(5) 0.8081(4)
C8_2 C 0.9548(3) 0.0013(5) 0.8263(4)
H10_2 H 0.9911 0.0351 0.8250
C11_2 C 0.8958(3) 0.1584(5) 0.7824(4)
N15_2 N 0.9815(2) 0.5496(4) 0.6442(3)
H11_2 H 0.9569 0.5148 0.6674
H12_2 H 0.9770 0.6119 0.6545
N20_2 N 0.9796(3) 0.2974(5) 0.9462(4)
H15_2 H 0.9680 0.2353 0.9438
H16_2 H 0.9768 0.3198 0.9929
Co8_2 Co 0.91369(4) 0.71146(6) 0.89260(5)
Co11_2 Co 0.91369(4) 0.28854(6) 0.39260(5)
N26_2 N 0.9131(2) 0.6949(4) 0.0082(3)
O1_2 O 0.80489(19) 0.7463(3) 0.8581(3)
N11_2 N 0.9038(2) 0.8519(4) 0.8496(3)
C5_2 C 0.8499(3) 0.8983(5) 0.8304(4)
C6_2 C 0.8465(3) 0.9972(5) 0.8101(4)
C9_2 C 0.9554(3) 0.9023(5) 0.8464(4)
C10_2 C 0.7967(3) 0.8313(5) 0.8325(4)
O9_2 O 0.99634(18) 0.7519(3) 0.6097(3)
O10_2 O 0.9389(2) 0.8757(4) 0.6442(4)
C24_2 C 0.9872(3) 0.8408(5) 0.6348(5)
Co1_4 Co 0.5000 0.17278(8) 0.2500
Co2_2 Co 0.65912(4) 0.17520(6) 0.28364(5)
O1_3 O 0.69511(19) 0.7537(3) 0.1419(3)
O2_2 O 0.75568(18) 0.6280(3) 0.1903(3)
O3_3 O 0.49634(18) 0.7481(3) 0.1097(3)
O4_3 O 0.4389(2) 0.6243(4) 0.1442(4)
O5_3 O 0.5576(2) 0.2941(3) 0.2160(3)
O6_3 O 0.6579(2) 0.3089(3) 0.2392(3)
N1_3 N 0.5546(2) 0.0636(4) 0.2059(3)
N2_3 N 0.6189(2) 0.0675(4) 0.2177(3)
N6_3 N 0.5527(2) 0.1840(4) 0.3626(3)
N7_3 N 0.6169(2) 0.1745(4) 0.3742(3)
N9_3 N 0.4796(3) 0.2026(5) 0.4462(4)
H5_3 H 0.4680 0.2647 0.4438
H6_3 H 0.4768 0.1802 0.4929
N10_3 N 0.6935(3) 0.1728(5) 0.4862(4)
H7_3 H 0.6956 0.1846 0.5399
H8_3 H 0.7099 0.1216 0.4669
N11_3 N 0.5962(2) 0.6481(4) 0.1504(3)
C1_3 C 0.6334(3) 0.1816(5) 0.4505(5)
C2_3 C 0.5386(3) 0.1942(5) 0.4324(4)
C5_3 C 0.6501(3) 0.6017(5) 0.1696(4)
C6_3 C 0.6535(3) 0.5028(5) 0.1899(4)
H9_3 H 0.6911 0.4715 0.2021
C7_3 C 0.6002(3) 0.4498(5) 0.1919(4)
C8_3 C 0.5452(3) 0.4987(5) 0.1737(4)
H10_3 H 0.5089 0.4649 0.1750
C9_3 C 0.5446(3) 0.5977(5) 0.1536(4)
C10_3 C 0.7033(3) 0.6687(5) 0.1675(4)
C11_3 C 0.6042(3) 0.3416(5) 0.2176(4)
C12_3 C 0.4872(3) 0.6592(5) 0.1348(5)
Co4_2 Co 0.34088(4) 0.17520(6) 0.21636(5)
O7_3 O 0.30489(19) 0.7537(3) 0.3581(3)
O8_2 O 0.24432(18) 0.6280(3) 0.3097(3)
O9_3 O 0.50366(18) 0.7481(3) 0.3903(3)
O10_3 O 0.5611(2) 0.6243(4) 0.3558(4)
O11_3 O 0.4424(2) 0.2941(3) 0.2840(3)
O12_3 O 0.3421(2) 0.3089(3) 0.2608(3)
N12_3 N 0.4454(2) 0.0636(4) 0.2941(3)
N13_3 N 0.3811(2) 0.0675(4) 0.2823(3)
N17_3 N 0.4473(2) 0.1840(4) 0.1374(3)
N18_3 N 0.3831(2) 0.1745(4) 0.1258(3)
N20_3 N 0.5204(3) 0.2026(5) 0.0538(4)
H15_3 H 0.5320 0.2647 0.0562
H16_3 H 0.5232 0.1802 0.0071
N21_3 N 0.3065(3) 0.1728(5) 0.0138(4)
H18_3 H 0.2901 0.1216 0.0331
N22_3 N 0.4038(2) 0.6481(4) 0.3496(3)
C13_3 C 0.3666(3) 0.1816(5) 0.0495(5)
C14_3 C 0.4614(3) 0.1942(5) 0.0676(4)
C17_3 C 0.3499(3) 0.6017(5) 0.3304(4)
C18_3 C 0.3465(3) 0.5028(5) 0.3101(4)
H19_3 H 0.3089 0.4715 0.2979
C19_3 C 0.3998(3) 0.4498(5) 0.3081(4)
C20_3 C 0.4548(3) 0.4987(5) 0.3263(4)
H20_3 H 0.4911 0.4649 0.3250
C21_3 C 0.4554(3) 0.5977(5) 0.3464(4)
C22_3 C 0.2967(3) 0.6687(5) 0.3325(4)
C23_3 C 0.3958(3) 0.3416(5) 0.2824(4)
C24_3 C 0.5128(3) 0.6592(5) 0.3652(5)
Co6_2 Co 0.15912(4) 0.67520(6) 0.28364(5)
Co7_2 Co 0.84088(4) 0.67520(6) 0.21636(5)
O13_2 O 0.25568(18) 0.1280(3) 0.1903(3)
O14_2 O 0.74432(18) 0.1280(3) 0.3097(3)
N23 N 0.5895(2) 0.9227(4) 0.1606(3)
N24 N 0.4105(2) 0.9227(4) 0.3394(3)
H17_3 H 0.3044 0.1846 0.9601
N4_3 N 0.4815(2) 0.9504(4) 0.1442(3)
H1_3 H 0.4569 0.9852 0.1674
H2_3 H 0.4770 0.8881 0.1545
N5_3 N 0.6960(2) 0.9601(4) 0.1900(4)
H3_3 H 0.7058 0.9665 0.1437
H4_3 H 0.7012 0.8985 0.2041
C3_3 C 0.6362(3) 0.9817(5) 0.1894(4)
C4_3 C 0.5399(3) 0.9783(5) 0.1712(4)
N15_3 N 0.5185(2) 0.9504(4) 0.3558(3)
H11_3 H 0.5431 0.9852 0.3326
H12_3 H 0.5230 0.8881 0.3455
N16_3 N 0.3040(2) 0.9601(4) 0.3100(4)
H13_3 H 0.2942 0.9665 0.3563
H14_3 H 0.2988 0.8985 0.2959
C15_3 C 0.3638(3) 0.9817(5) 0.3106(4)
C16_3 C 0.4601(3) 0.9783(5) 0.3288(4)
O1_4 O 0.19511(19) 0.2537(3) 0.1419(3)
N11_4 N 0.0962(2) 0.1481(4) 0.1504(3)
C5_4 C 0.1501(3) 0.1017(5) 0.1696(4)
C6_4 C 0.1535(3) 0.0028(5) 0.1899(4)
C9_4 C 0.0446(3) 0.0977(5) 0.1536(4)
C10_4 C 0.2033(3) 0.1687(5) 0.1675(4)
O9_4 O 0.00366(18) 0.2481(3) 0.3903(3)
O10_4 O 0.0611(2) 0.1243(4) 0.3558(4)
C24_4 C 0.0128(3) 0.1592(5) 0.3652(5)
N23_2 N 0.0895(2) 0.4227(4) 0.1606(3)
Co1_5 Co 0.0000 0.67278(8) 0.2500
O5_4 O 0.0576(2) 0.7941(3) 0.2160(3)
O6_4 O 0.1579(2) 0.8089(3) 0.2392(3)
N1_4 N 0.0546(2) 0.5636(4) 0.2059(3)
N2_4 N 0.1189(2) 0.5675(4) 0.2177(3)
N5_4 N 0.1960(2) 0.4601(4) 0.1900(4)
H3_4 H 0.2058 0.4665 0.1437
H4_4 H 0.2012 0.3985 0.2041
N6_4 N 0.0527(2) 0.6840(4) 0.3626(3)
N7_4 N 0.1169(2) 0.6745(4) 0.3742(3)
N10_4 N 0.1935(3) 0.6728(5) 0.4862(4)
H7_4 H 0.1956 0.6846 0.5399
H8_4 H 0.2099 0.6216 0.4669
C1_4 C 0.1334(3) 0.6816(5) 0.4505(5)
C2_4 C 0.0386(3) 0.6942(5) 0.4324(4)
C3_4 C 0.1362(3) 0.4817(5) 0.1894(4)
C4_4 C 0.0399(3) 0.4783(5) 0.1712(4)
H9_4 H 0.1911 0.9715 0.2021
C7_4 C 0.1002(3) 0.9498(5) 0.1919(4)
C8_4 C 0.0452(3) 0.9987(5) 0.1737(4)
H10_4 H 0.0089 0.9649 0.1750
C11_4 C 0.1042(3) 0.8416(5) 0.2176(4)
N15_4 N 0.0185(2) 0.4504(4) 0.3558(3)
H11_4 H 0.0431 0.4852 0.3326
H12_4 H 0.0230 0.3881 0.3455
N20_4 N 0.0204(3) 0.7026(5) 0.0538(4)
H15_4 H 0.0320 0.7647 0.0562
H16_4 H 0.0232 0.6802 0.0071
O3_4 O 0.99634(18) 0.2481(3) 0.1097(3)
O4_4 O 0.9389(2) 0.1243(4) 0.1442(4)
C12_4 C 0.9872(3) 0.1592(5) 0.1348(5)
O7_4 O 0.80489(19) 0.2537(3) 0.3581(3)
N22_4 N 0.9038(2) 0.1481(4) 0.3496(3)
C17_4 C 0.8499(3) 0.1017(5) 0.3304(4)
C18_4 C 0.8465(3) 0.0028(5) 0.3101(4)
C21_4 C 0.9554(3) 0.0977(5) 0.3464(4)
C22_4 C 0.7967(3) 0.1687(5) 0.3325(4)
N24_2 N 0.9105(2) 0.4227(4) 0.3394(3)
Co1_6 Co 1.0000 0.67278(8) 0.2500
N4_4 N 0.9815(2) 0.4504(4) 0.1442(3)
H1_4 H 0.9569 0.4852 0.1674
H2_4 H 0.9770 0.3881 0.1545
N9_4 N 0.9796(3) 0.7026(5) 0.4462(4)
H5_4 H 0.9680 0.7647 0.4438
H6_4 H 0.9768 0.6802 0.4929
O11_4 O 0.9424(2) 0.7941(3) 0.2840(3)
O12_4 O 0.8421(2) 0.8089(3) 0.2608(3)
N12_4 N 0.9454(2) 0.5636(4) 0.2941(3)
N13_4 N 0.8811(2) 0.5675(4) 0.2823(3)
N16_4 N 0.8040(2) 0.4601(4) 0.3100(4)
H13_4 H 0.7942 0.4665 0.3563
H14_4 H 0.7988 0.3985 0.2959
N17_4 N 0.9473(2) 0.6840(4) 0.1374(3)
N18_4 N 0.8831(2) 0.6745(4) 0.1258(3)
N21_4 N 0.8065(3) 0.6728(5) 0.0138(4)
H18_4 H 0.7901 0.6216 0.0331
C13_4 C 0.8666(3) 0.6816(5) 0.0495(5)
C14_4 C 0.9614(3) 0.6942(5) 0.0676(4)
C15_4 C 0.8638(3) 0.4817(5) 0.3106(4)
C16_4 C 0.9601(3) 0.4783(5) 0.3288(4)
H19_4 H 0.8089 0.9715 0.2979
C19_4 C 0.8998(3) 0.9498(5) 0.3081(4)
C20_4 C 0.9548(3) 0.9987(5) 0.3263(4)
H20_4 H 0.9911 0.9649 0.3250
C23_4 C 0.8958(3) 0.8416(5) 0.2824(4)
H17_4 H 0.8044 0.6846 0.9601
loop_
_geom_bond_atom_site_label_1
_geom_bond_atom_site_label_2
_geom_bond_site_symmetry_1
_geom_bond_site_symmetry_2
N3 C3 1_555 1_555
N4 H1 1_555 1_555
H2 N4 1_555 1_555
N5 H3 1_555 1_555
H4 N5 1_555 1_555
N14 C15 1_555 1_555
N15 H11 1_555 1_555
H12 N15 1_555 1_555
N16 H13 1_555 1_555
H14 N16 1_555 1_555
Co8 N3 1_555 1_555
Co9 N14 1_555 1_555
N3 C4 1_555 1_555
N4 C4 1_555 1_555
N5 C3 1_555 1_555
N14 C16 1_555 1_555
N15 C16 1_555 1_555
N16 C15 1_555 1_555
Co1 O5 1_555 1_555
Co2 O6 1_555 1_555
Co8 O1 1_555 1_555
O1 C10 1_555 1_555
O2 C10 1_555 1_555
O3 Co8 1_555 1_555
O4 C12 1_555 1_555
O5 C11 1_555 1_555
O6 C11 1_555 1_555
N1 Co1 1_555 1_555
N2 Co2 1_555 1_555
N6 Co1 1_555 1_555
N7 Co2 1_555 1_555
N8 C1 1_555 1_555
N9 H5 1_555 1_555
H6 N9 1_555 1_555
N10 H7 1_555 1_555
H8 N10 1_555 1_555
N11 Co8 1_555 1_555
C1 N7 1_555 1_555
C2 N6 1_555 1_555
C5 N11 1_555 1_555
C6 C5 1_555 1_555
H9 C6 1_555 1_555
C7 C6 1_555 1_555
C8 C7 1_555 1_555
H10 C8 1_555 1_555
C9 N11 1_555 1_555
C10 C5 1_555 1_555
C11 C7 1_555 1_555
C12 O3 1_555 1_555
Co4 O12 1_555 1_555
Co9 O7 1_555 1_555
O7 C22 1_555 1_555
O8 C22 1_555 1_555
O9 Co9 1_555 1_555
O10 C24 1_555 1_555
O11 Co1 1_555 1_555
O12 C23 1_555 1_555
N12 Co1 1_555 1_555
N13 Co4 1_555 1_555
N17 Co1 1_555 1_555
N18 Co4 1_555 1_555
N19 C13 1_555 1_555
N20 H15 1_555 1_555
H16 N20 1_555 1_555
H18 N21 1_555 1_555
N22 Co9 1_555 1_555
C13 N18 1_555 1_555
C14 N17 1_555 1_555
C17 N22 1_555 1_555
C18 C17 1_555 1_555
H19 C18 1_555 1_555
C19 C18 1_555 1_555
C20 C19 1_555 1_555
H20 C20 1_555 1_555
C21 N22 1_555 1_555
C22 C17 1_555 1_555
C23 O11 1_555 1_555
C24 O9 1_555 1_555
Co6 O8 1_555 1_555
Co7 O2 1_555 1_555
Co11 N8 1_555 1_555
O13 Co4 1_555 1_555
O14 Co2 1_555 1_555
N25 Co9 1_555 1_555
N1 N2 1_555 1_555
N6 N7 1_555 1_555
N8 C2 1_555 1_555
N9 C2 1_555 1_555
N10 C1 1_555 1_555
C8 C9 1_555 1_555
C9 C12 1_555 1_555
N12 N13 1_555 1_555
N17 N18 1_555 1_555
N19 C14 1_555 1_555
N20 C14 1_555 1_555
N21 C13 1_555 1_555
C19 C23 1_555 1_555
C20 C21 1_555 1_555
C21 C24 1_555 1_555
N4_2 H1_2 1_555 1_555
H2_2 N4_2 1_555 1_555
N9_2 H5_2 1_555 1_555
H6_2 N9_2 1_555 1_555
Co7 O12_2 1_555 1_555
O11_2 Co1_2 1_555 1_555
O12_2 C23_2 1_555 1_555
N12_2 Co1_2 1_555 1_555
N13_2 Co7 1_555 1_555
N14_2 C15_2 1_555 1_555
N16_2 H13_2 1_555 1_555
H14_2 N16_2 1_555 1_555
N17_2 Co1_2 1_555 1_555
N18_2 Co7 1_555 1_555
N19_2 C13_2 1_555 1_555
H18_2 N21_2 1_555 1_555
C13_2 N18_2 1_555 1_555
C14_2 N17_2 1_555 1_555
C15_2 N13_2 1_555 1_555
C16_2 N12_2 1_555 1_555
C20_2 C19_2 1_555 1_555
H20_2 C20_2 1_555 1_555
C23_2 O11_2 1_555 1_555
Co9_2 N14_2 1_555 1_555
N12_2 N13_2 1_555 1_555
N14_2 C16_2 1_555 1_555
N16_2 C15_2 1_555 1_555
N17_2 N18_2 1_555 1_555
N19_2 C14_2 1_555 1_555
N21_2 C13_2 1_555 1_555
C19_2 C23_2 1_555 1_555
O4_2 C12_2 1_555 1_555
C12_2 O3_2 1_555 1_555
Co9_2 O7_2 1_555 1_555
O7_2 C22_2 1_555 1_555
O14 C22_2 1_555 1_555
N22_2 Co9_2 1_555 1_555
C17_2 N22_2 1_555 1_555
C18_2 C17_2 1_555 1_555
C21_2 N22_2 1_555 1_555
C22_2 C17_2 1_555 1_555
N25_2 Co9_2 1_555 1_555
Co1_3 O5_2 1_555 1_555
Co6 O6_2 1_555 1_555
O5_2 C11_2 1_555 1_555
O6_2 C11_2 1_555 1_555
N1_2 Co1_3 1_555 1_555
N2_2 Co6 1_555 1_555
N3_2 C3_2 1_555 1_555
N5_2 H3_2 1_555 1_555
H4_2 N5_2 1_555 1_555
N6_2 Co1_3 1_555 1_555
N7_2 Co6 1_555 1_555
N8_2 C1_2 1_555 1_555
N10_2 H7_2 1_555 1_555
H8_2 N10_2 1_555 1_555
C1_2 N7_2 1_555 1_555
C2_2 N6_2 1_555 1_555
C3_2 N2_2 1_555 1_555
C4_2 N1_2 1_555 1_555
C8_2 C7_2 1_555 1_555
H10_2 C8_2 1_555 1_555
C11_2 C7_2 1_555 1_555
N15_2 H11_2 1_555 1_555
H12_2 N15_2 1_555 1_555
N20_2 H15_2 1_555 1_555
H16_2 N20_2 1_555 1_555
Co8_2 N3_2 1_555 1_555
Co11_2 N8_2 1_555 1_555
N1_2 N2_2 1_555 1_555
N3_2 C4_2 1_555 1_555
N5_2 C3_2 1_555 1_555
N6_2 N7_2 1_555 1_555
N8_2 C2_2 1_555 1_555
N10_2 C1_2 1_555 1_555
Co8_2 O1_2 1_555 1_555
O1_2 C10_2 1_555 1_555
O13 C10_2 1_555 1_555
N11_2 Co8_2 1_555 1_555
C5_2 N11_2 1_555 1_555
C6_2 C5_2 1_555 1_555
C9_2 N11_2 1_555 1_555
C10_2 C5_2 1_555 1_555
O10_2 C24_2 1_555 1_555
C24_2 O9_2 1_555 1_555
Co1_4 O5_3 1_555 1_555
Co2_2 O6_3 1_555 1_555
Co10 O1_3 1_555 1_555
O1_3 C10_3 1_555 1_555
O2_2 C10_3 1_555 1_555
O3_3 Co10 1_555 1_555
O4_3 C12_3 1_555 1_555
O5_3 C11_3 1_555 1_555
O6_3 C11_3 1_555 1_555
N1_3 Co1_4 1_555 1_555
N2_3 Co2_2 1_555 1_555
N6_3 Co1_4 1_555 1_555
N7_3 Co2_2 1_555 1_555
N25 C1_3 1_555 1_555
N9_3 H5_3 1_555 1_555
H6_3 N9_3 1_555 1_555
N10_3 H7_3 1_555 1_555
H8_3 N10_3 1_555 1_555
N11_3 Co10 1_555 1_555
C1_3 N7_3 1_555 1_555
C2_3 N6_3 1_555 1_555
C5_3 N11_3 1_555 1_555
C6_3 C5_3 1_555 1_555
H9_3 C6_3 1_555 1_555
C7_3 C6_3 1_555 1_555
C8_3 C7_3 1_555 1_555
H10_3 C8_3 1_555 1_555
C9_3 N11_3 1_555 1_555
C10_3 C5_3 1_555 1_555
C11_3 C7_3 1_555 1_555
C12_3 O3_3 1_555 1_555
Co4_2 O12_3 1_555 1_555
Co11 O7_3 1_555 1_555
O7_3 C22_3 1_555 1_555
O8_2 C22_3 1_555 1_555
O9_3 Co11 1_555 1_555
O10_3 C24_3 1_555 1_555
O11_3 Co1_4 1_555 1_555
O12_3 C23_3 1_555 1_555
N12_3 Co1_4 1_555 1_555
N13_3 Co4_2 1_555 1_555
N17_3 Co1_4 1_555 1_555
N18_3 Co4_2 1_555 1_555
N26 C13_3 1_555 1_555
N20_3 H15_3 1_555 1_555
H16_3 N20_3 1_555 1_555
H18_3 N21_3 1_555 1_555
N22_3 Co11 1_555 1_555
C13_3 N18_3 1_555 1_555
C14_3 N17_3 1_555 1_555
C17_3 N22_3 1_555 1_555
C18_3 C17_3 1_555 1_555
H19_3 C18_3 1_555 1_555
C19_3 C18_3 1_555 1_555
C20_3 C19_3 1_555 1_555
H20_3 C20_3 1_555 1_555
C21_3 N22_3 1_555 1_555
C22_3 C17_3 1_555 1_555
C23_3 O11_3 1_555 1_555
C24_3 O9_3 1_555 1_555
Co6_2 O8_2 1_555 1_555
Co7_2 O2_2 1_555 1_555
O13_2 Co4_2 1_555 1_555
O14_2 Co2_2 1_555 1_555
N23 Co10 1_555 1_555
N24 Co11 1_555 1_555
N1_3 N2_3 1_555 1_555
N6_3 N7_3 1_555 1_555
N25 C2_3 1_555 1_555
N9_3 C2_3 1_555 1_555
N10_3 C1_3 1_555 1_555
C8_3 C9_3 1_555 1_555
C9_3 C12_3 1_555 1_555
N12_3 N13_3 1_555 1_555
N17_3 N18_3 1_555 1_555
N26 C14_3 1_555 1_555
N20_3 C14_3 1_555 1_555
N21_3 C13_3 1_555 1_555
C19_3 C23_3 1_555 1_555
C20_3 C21_3 1_555 1_555
C21_3 C24_3 1_555 1_555
N23 C3_3 1_555 1_555
N4_3 H1_3 1_555 1_555
H2_3 N4_3 1_555 1_555
N5_3 H3_3 1_555 1_555
H4_3 N5_3 1_555 1_555
N24 C15_3 1_555 1_555
N15_3 H11_3 1_555 1_555
H12_3 N15_3 1_555 1_555
N16_3 H13_3 1_555 1_555
H14_3 N16_3 1_555 1_555
N23 C4_3 1_555 1_555
N4_3 C4_3 1_555 1_555
N5_3 C3_3 1_555 1_555
N24 C16_3 1_555 1_555
N15_3 C16_3 1_555 1_555
N16_3 C15_3 1_555 1_555
Co10_2 O1_4 1_555 1_555
O1_4 C10_4 1_555 1_555
O13_2 C10_4 1_555 1_555
N11_4 Co10_2 1_555 1_555
C5_4 N11_4 1_555 1_555
C6_4 C5_4 1_555 1_555
C9_4 N11_4 1_555 1_555
C10_4 C5_4 1_555 1_555
O10_4 C24_4 1_555 1_555
C24_4 O9_4 1_555 1_555
N23_2 Co10_2 1_555 1_555
Co1_5 O5_4 1_555 1_555
Co6_2 O6_4 1_555 1_555
O5_4 C11_4 1_555 1_555
O6_4 C11_4 1_555 1_555
N1_4 Co1_5 1_555 1_555
N2_4 Co6_2 1_555 1_555
N23_2 C3_4 1_555 1_555
N5_4 H3_4 1_555 1_555
H4_4 N5_4 1_555 1_555
N6_4 Co1_5 1_555 1_555
N7_4 Co6_2 1_555 1_555
N25_2 C1_4 1_555 1_555
N10_4 H7_4 1_555 1_555
H8_4 N10_4 1_555 1_555
C1_4 N7_4 1_555 1_555
C2_4 N6_4 1_555 1_555
C3_4 N2_4 1_555 1_555
C4_4 N1_4 1_555 1_555
C8_4 C7_4 1_555 1_555
H10_4 C8_4 1_555 1_555
C11_4 C7_4 1_555 1_555
N15_4 H11_4 1_555 1_555
H12_4 N15_4 1_555 1_555
N20_4 H15_4 1_555 1_555
H16_4 N20_4 1_555 1_555
N1_4 N2_4 1_555 1_555
N23_2 C4_4 1_555 1_555
N5_4 C3_4 1_555 1_555
N6_4 N7_4 1_555 1_555
N25_2 C2_4 1_555 1_555
N10_4 C1_4 1_555 1_555
O4_4 C12_4 1_555 1_555
C12_4 O3_4 1_555 1_555
Co11_2 O7_4 1_555 1_555
O7_4 C22_4 1_555 1_555
O14_2 C22_4 1_555 1_555
N22_4 Co11_2 1_555 1_555
C17_4 N22_4 1_555 1_555
C18_4 C17_4 1_555 1_555
C21_4 N22_4 1_555 1_555
C22_4 C17_4 1_555 1_555
N24_2 Co11_2 1_555 1_555
N4_4 H1_4 1_555 1_555
H2_4 N4_4 1_555 1_555
N9_4 H5_4 1_555 1_555
H6_4 N9_4 1_555 1_555
Co7_2 O12_4 1_555 1_555
O11_4 Co1_6 1_555 1_555
O12_4 C23_4 1_555 1_555
N12_4 Co1_6 1_555 1_555
N13_4 Co7_2 1_555 1_555
N24_2 C15_4 1_555 1_555
N16_4 H13_4 1_555 1_555
H14_4 N16_4 1_555 1_555
N17_4 Co1_6 1_555 1_555
N18_4 Co7_2 1_555 1_555
N26_2 C13_4 1_555 1_555
H18_4 N21_4 1_555 1_555
C13_4 N18_4 1_555 1_555
C14_4 N17_4 1_555 1_555
C15_4 N13_4 1_555 1_555
C16_4 N12_4 1_555 1_555
C20_4 C19_4 1_555 1_555
H20_4 C20_4 1_555 1_555
C23_4 O11_4 1_555 1_555
N12_4 N13_4 1_555 1_555
N24_2 C16_4 1_555 1_555
N16_4 C15_4 1_555 1_555
N17_4 N18_4 1_555 1_555
N26_2 C14_4 1_555 1_555
N21_4 C13_4 1_555 1_555
C19_4 C23_4 1_555 1_555

#END
