
###############################################################################
#
# This file contains modified crystal structure data generated from the
# MOF subset of the Cambridge Structural Database (CSD) v543 
# hosted by the Cambridge Crystallographic Data Centre (CCDC).
#
# This work is licensed under the Creative Commons
# Attribution-NonCommercial-ShareAlike 4.0 International License.
# To view a copy of this license, visit
# http://creativecommons.org/licenses/by-nc-sa/4.0/
# or send a letter to
# Creative Commons, PO Box 1866, Mountain View, CA 94042, USA.
#
# CIF created using the CSD Python API on 29 September 2022
# The structure has been converted into the P1 space group
# The structure has a 3D framework
# The original CSD entry LITCIC is in the triclinic crystal system
# The framework has been calculated to contain at least 10.0% void space
# The void calculation uses a probe of radius 1.32A, grid spacing 0.4
#
###############################################################################

data_LITCIC
_chemical_formula_moiety         '(C68 H59 Ni2 O31)n'
_symmetry_cell_setting           triclinic
_symmetry_space_group_name_H-M   'P 1'
_symmetry_Int_Tables_number      1
_space_group_name_Hall           'P 1'
loop_
_symmetry_equiv_pos_site_id
_symmetry_equiv_pos_as_xyz
1 x,y,z
_cell_length_a                   11.080(3)
_cell_length_b                   16.583(4)
_cell_length_c                   16.600(4)
_cell_angle_alpha                68.533(5)
_cell_angle_beta                 89.208(4)
_cell_angle_gamma                89.167(4)
_cell_volume                     2838.07
loop_
_atom_site_label
_atom_site_type_symbol
_atom_site_fract_x
_atom_site_fract_y
_atom_site_fract_z
_atom_site_U_iso_or_equiv
_atom_site_thermal_displace_type
H20 H 0.0607 0.3924 0.9548 0.1390 Uiso
Ni1 Ni 0.64014(4) 0.00459(3) 0.49658(3) 0.0225 Uani
Ni14 Ni 0.50173(4) 0.18774(3) 0.49554(4) 0.0296 Uani
O34 O 0.6432(3) 0.09155(18) 0.37138(19) 0.0364 Uani
O37 O 0.4976(2) 0.06007(15) 0.53487(17) 0.0198 Uani
O39 O 0.7767(2) 0.07200(17) 0.5246(2) 0.0354 Uani
H10 H 0.3868 0.7076 0.0022 0.0740 Uiso
H11 H 0.7685 0.3927 0.0194 0.0620 Uiso
O10 O 0.3009(9) 0.8341(4) 0.0290(4) 0.1907 Uani
H22 H 0.9584 0.3869 0.0227 0.1390 Uiso
C35 C 0.5919(4) 0.1639(3) 0.3332(3) 0.0319 Uani
C36 C 0.6049(4) 0.2027(3) 0.2370(3) 0.0342 Uani
C37 C 0.4215(5) 0.4431(3) 0.0602(3) 0.0469 Uani
C38 C 0.5746(4) 0.2890(3) 0.1916(3) 0.0401 Uani
H31 H 0.5520 0.3239 0.2223 0.0480 Uiso
C39 C 0.5394(5) 0.4163(3) 0.0508(3) 0.0451 Uani
O18 O 0.1427(4) 0.3717(3) 0.1935(3) 0.1067 Uani
C40 C 0.3813(5) 0.5272(3) 0.0082(3) 0.0447 Uani
O19 O 0.0665(4) 0.5181(3) 0.0900(3) 0.0805 Uani
C41 C 0.5771(5) 0.3246(3) 0.1023(3) 0.0448 Uani
C42 C 0.6410(5) 0.1515(3) 0.1911(4) 0.0570 Uani
H32 H 0.6606 0.0935 0.2210 0.0680 Uiso
C43 C 0.6130(6) 0.2704(4) 0.0580(4) 0.0617 Uani
C44 C 0.2590(5) 0.5530(3) 0.0167(3) 0.0517 Uani
C45 C 0.3364(5) 0.3882(4) 0.1219(4) 0.0604 Uani
H35 H 0.3593 0.3317 0.1551 0.0730 Uiso
C46 C 0.6874(11) 0.1327(5) 0.0495(6) 0.1313 Uani
C47 C 0.2246(6) 0.4163(4) 0.1327(4) 0.0623 Uani
C48 C 0.1828(6) 0.4991(4) 0.0769(4) 0.0606 Uani
C49 C 0.1912(8) 0.2950(5) 0.2650(5) 0.1332 Uani
H36 H 0.1328 0.2758 0.3112 0.2000 Uiso
H37 H 0.2079 0.2492 0.2439 0.2000 Uiso
H38 H 0.2643 0.3104 0.2860 0.2000 Uiso
O20 O 0.7169(7) 0.0530(4) 0.0935(4) 0.1508 Uani
H39 H 0.7375 0.0289 0.0603 0.2260 Uiso
C50 C 0.0247(6) 0.6032(5) 0.0370(5) 0.0922 Uani
H41 H 0.0653 0.6457 0.0532 0.1390 Uiso
C51 C 0.6484(6) 0.1847(4) 0.1017(4) 0.0656 Uani
O22 O 0.5299(3) 0.20508(19) 0.3684(2) 0.0434 Uani
Ni2 Ni 0.49827(4) 0.81226(3) 0.50446(4) 0.0296 Uani
O1 O 0.3568(3) 0.90845(18) 0.62862(19) 0.0364 Uani
O2 O 0.6522(3) 0.9169(2) 0.6274(2) 0.0420 Uani
H1 H 0.7270 0.9070 0.6429 0.0630 Uiso
H2 H 0.6194 0.8681 0.6329 0.0630 Uiso
C1 C 0.1082(4) 0.7217(3) 0.4872(3) 0.0311 Uani
H3 H 0.1812 0.6935 0.4867 0.0370 Uiso
C2 C 0.0379(4) 0.5204(3) 0.5712(3) 0.0315 Uani
C3 C 0.0021(4) 0.5857(3) 0.4964(3) 0.0288 Uani
C4 C 0.0351(4) 0.4310(3) 0.5761(3) 0.0348 Uani
O3 O 0.4963(3) 0.6774(2) 0.5397(3) 0.0696 Uani
H4 H 0.4980 0.6408 0.5913 0.1040 Uiso
H5 H 0.4935 0.6508 0.5047 0.1040 Uiso
C5 C 0.4081(4) 0.8361(3) 0.6668(3) 0.0319 Uani
C6 C 0.3951(4) 0.7973(3) 0.7630(3) 0.0342 Uani
C7 C 0.5785(5) 0.5569(3) 0.9398(3) 0.0469 Uani
C8 C 0.4254(4) 0.7110(3) 0.8084(3) 0.0401 Uani
H6 H 0.4480 0.6761 0.7777 0.0480 Uiso
C9 C 0.4606(5) 0.5837(3) 0.9492(3) 0.0451 Uani
O4 O 0.8573(4) 0.6283(3) 0.8065(3) 0.1067 Uani
C10 C 0.0004(4) 0.6774(3) 0.4921(3) 0.0280 Uani
C11 C 0.0696(5) 0.3654(3) 0.6554(4) 0.0539 Uani
H7 H 0.0660 0.3079 0.6599 0.0640 Uiso
C12 C 0.0788(4) 0.5352(3) 0.6457(3) 0.0381 Uani
H8 H 0.0823 0.5919 0.6438 0.0460 Uiso
O5 O 0.1570(4) 0.4790(3) 0.7915(2) 0.0704 Uani
C13 C 0.6187(5) 0.4728(3) 0.9918(3) 0.0447 Uani
O6 O 0.9335(4) 0.4819(3) 0.9100(3) 0.0805 Uani
C14 C 0.4229(5) 0.6754(3) 0.8977(3) 0.0448 Uani
C15 C 0.3590(5) 0.8485(3) 0.8089(4) 0.0570 Uani
H9 H 0.3394 0.9065 0.7790 0.0680 Uiso
O7 O 0.3189(3) 0.80585(19) 0.4853(2) 0.0489 Uani
C16 C 0.1126(5) 0.4705(4) 0.7185(4) 0.0534 Uani
O8 O 0.1335(6) 0.3228(3) 0.8029(3) 0.1265 Uani
C17 C 0.3870(6) 0.7296(4) 0.9420(4) 0.0617 Uani
C18 C 0.1070(6) 0.3821(3) 0.7241(4) 0.0687 Uani
C19 C 0.7410(5) 0.4470(3) 0.9833(3) 0.0517 Uani
C20 C 0.6636(5) 0.6118(4) 0.8781(4) 0.0604 Uani
H12 H 0.6407 0.6683 0.8449 0.0730 Uiso
C21 C 0.3126(11) 0.8673(5) 0.9505(6) 0.1313 Uani
C22 C 0.7754(6) 0.5837(4) 0.8673(4) 0.0623 Uani
C23 C 0.8172(6) 0.5009(4) 0.9231(4) 0.0606 Uani
C24 C 0.8088(8) 0.7050(5) 0.7350(5) 0.1332 Uani
H13 H 0.8672 0.7242 0.6888 0.2000 Uiso
H14 H 0.7921 0.7508 0.7561 0.2000 Uiso
H15 H 0.7357 0.6896 0.7140 0.2000 Uiso
O9 O 0.2831(7) 0.9470(4) 0.9065(4) 0.1508 Uani
H16 H 0.2625 0.9711 0.9397 0.2260 Uiso
C25 C 0.1679(7) 0.5656(4) 0.7888(4) 0.0777 Uani
H17 H 0.2200 0.5975 0.7415 0.1170 Uiso
H18 H 0.2014 0.5647 0.8421 0.1170 Uiso
H19 H 0.0897 0.5929 0.7808 0.1170 Uiso
C26 C 0.9753(6) 0.3968(5) 0.9630(5) 0.0922 Uani
H21 H 0.9347 0.3543 0.9468 0.1390 Uiso
C27 C 0.3516(6) 0.8153(4) 0.8983(4) 0.0656 Uani
C28 C 0.1176(12) 0.2343(6) 0.8154(6) 0.1688 Uani
H23 H 0.1743 0.2179 0.7798 0.2540 Uiso
H24 H 0.0369 0.2259 0.7999 0.2540 Uiso
H25 H 0.1308 0.1992 0.8751 0.2540 Uiso
C32 C 0.1089(3) 0.8073(2) 0.4831(3) 0.0259 Uani
O11 O 0.4701(3) 0.79492(19) 0.6316(2) 0.0434 Uani
O12 O 0.5024(2) 0.93993(15) 0.46513(17) 0.0198 Uani
H28 H 0.5001 0.9615 0.4017 0.0240 Uiso
O13 O 0.2233(2) 0.92800(17) 0.4754(2) 0.0354 Uani
C34 C 0.2259(4) 0.8506(3) 0.4820(3) 0.0322 Uani
O16 O 0.5247(4) 0.8171(3) 0.3765(3) 0.0948 Uani
H29 H 0.5426 0.7740 0.3622 0.1420 Uiso
H30 H 0.5191 0.8627 0.3312 0.1420 Uiso
H33 H 0.6132 0.2924 0.9978 0.0740 Uiso
H34 H 0.2315 0.6073 0.9806 0.0620 Uiso
O21 O 0.6991(9) 0.1659(4) 0.9710(4) 0.1907 Uani
H42 H 0.0416 0.6131 0.9773 0.1390 Uiso
C63 C 0.1082(4) 0.2796(3) 0.5062(3) 0.0327 Uani
H52 H 0.1806 0.3084 0.5027 0.0390 Uiso
C64 C 0.1104(3) 0.1945(2) 0.5098(3) 0.0229 Uani
C65 C 0.0006(3) 0.1518(2) 0.5150(3) 0.0267 Uani
H53 H 0.0012 0.0949 0.5171 0.0320 Uiso
C67 C 0.2290(3) 0.1518(3) 0.5071(3) 0.0244 Uani
O27 O 0.2301(2) 0.06977(17) 0.5339(2) 0.0329 Uani
O28 O 0.3171(2) 0.20051(18) 0.4760(2) 0.0420 Uani
Ni9 Ni 0.35986(4) 0.99541(3) 0.50342(3) 0.0225 Uani
O40 O 0.7699(2) 0.93023(17) 0.4661(2) 0.0329 Uani
O42 O 0.6829(2) 0.79949(18) 0.5240(2) 0.0420 Uani
C29 C 0.8918(4) 0.7204(3) 0.4938(3) 0.0327 Uani
H26 H 0.8194 0.6916 0.4973 0.0390 Uiso
C30 C 0.8896(3) 0.8055(2) 0.4902(3) 0.0229 Uani
C31 C 0.9994(3) 0.8482(2) 0.4850(3) 0.0267 Uani
H27 H 0.9988 0.9051 0.4829 0.0320 Uiso
C33 C 0.7710(3) 0.8482(3) 0.4929(3) 0.0244 Uani
C52 C 0.8918(4) 0.2783(3) 0.5128(3) 0.0311 Uani
H43 H 0.8188 0.3065 0.5133 0.0370 Uiso
C53 C 0.9621(4) 0.4796(3) 0.4288(3) 0.0315 Uani
C54 C 0.9979(4) 0.4143(3) 0.5036(3) 0.0288 Uani
C55 C 0.9649(4) 0.5690(3) 0.4239(3) 0.0348 Uani
C56 C 0.9996(4) 0.3226(3) 0.5079(3) 0.0280 Uani
C57 C 0.9304(5) 0.6346(3) 0.3446(4) 0.0539 Uani
H44 H 0.9340 0.6921 0.3401 0.0640 Uiso
C58 C 0.9212(4) 0.4648(3) 0.3543(3) 0.0381 Uani
H45 H 0.9177 0.4081 0.3562 0.0460 Uiso
O23 O 0.8430(4) 0.5210(3) 0.2085(2) 0.0704 Uani
O24 O 0.6811(3) 0.19415(19) 0.5147(2) 0.0489 Uani
C59 C 0.8874(5) 0.5295(4) 0.2815(4) 0.0534 Uani
O25 O 0.8665(6) 0.6772(3) 0.1971(3) 0.1265 Uani
C60 C 0.8930(6) 0.6179(3) 0.2759(4) 0.0687 Uani
C61 C 0.8321(7) 0.4344(4) 0.2112(4) 0.0777 Uani
H46 H 0.7800 0.4025 0.2585 0.1170 Uiso
H47 H 0.7986 0.4353 0.1579 0.1170 Uiso
H48 H 0.9103 0.4071 0.2192 0.1170 Uiso
C62 C 0.8824(12) 0.7657(6) 0.1846(6) 0.1688 Uani
H49 H 0.8257 0.7821 0.2202 0.2540 Uiso
H50 H 0.9631 0.7741 0.2001 0.2540 Uiso
H51 H 0.8692 0.8008 0.1249 0.2540 Uiso
C66 C 0.8911(3) 0.1927(2) 0.5169(3) 0.0259 Uani
C68 C 0.7741(4) 0.1494(3) 0.5180(3) 0.0322 Uani
O29 O 0.3478(3) 0.0831(2) 0.3726(2) 0.0420 Uani
H54 H 0.2730 0.0930 0.3571 0.0630 Uiso
H55 H 0.3806 0.1319 0.3671 0.0630 Uiso
O30 O 0.5037(3) 0.3226(2) 0.4603(3) 0.0696 Uani
H56 H 0.5020 0.3592 0.4087 0.1040 Uiso
H57 H 0.5065 0.3492 0.4953 0.1040 Uiso
H58 H 0.4999 0.0385 0.5983 0.0240 Uiso
O32 O 0.4753(4) 0.1829(3) 0.6235(3) 0.0948 Uani
H59 H 0.4574 0.2260 0.6378 0.1420 Uiso
H60 H 0.4809 0.1373 0.6688 0.1420 Uiso
H40 H 0.9393 0.6076 0.0452 0.1390 Uiso
loop_
_atom_site_aniso_label
_atom_site_aniso_U_11
_atom_site_aniso_U_22
_atom_site_aniso_U_33
_atom_site_aniso_U_23
_atom_site_aniso_U_13
_atom_site_aniso_U_12
Ni1 0.0121 0.0138 0.0399 -0.0079 -0.0008 -0.00012
Ni14 0.0143 0.0182 0.0584 -0.0164 0.0022 -0.0005
O34 0.0274 0.028 0.043 -0.0006 0.0052 0.0045
O37 0.0125 0.0178 0.0276 -0.0063 0.0003 -0.0028
O39 0.0194 0.02 0.071 -0.0213 -0.0057 -0.0021
O10 0.415 0.098 0.062 -0.036 -0.006 0.086
C35 0.027 0.017 0.046 -0.005 0 0.0027
C36 0.036 0.025 0.032 0.001 -0.008 0.0009
C37 0.059 0.04 0.031 0 -0.012 0
C38 0.049 0.027 0.037 -0.003 -0.003 0.002
C39 0.057 0.041 0.029 -0.003 -0.004 0.007
O18 0.087 0.079 0.096 0.035 0.029 0.015
C40 0.055 0.039 0.031 -0.002 -0.01 0.006
O19 0.065 0.067 0.082 0.004 0.009 0.023
C41 0.057 0.032 0.041 -0.008 -0.012 0.006
C42 0.088 0.024 0.051 -0.004 -0.019 0.009
C43 0.097 0.052 0.033 -0.012 -0.013 0.011
C44 0.071 0.04 0.035 -0.003 -0.006 0.009
C45 0.061 0.049 0.05 0.007 -0.01 0.006
C46 0.273 0.06 0.068 -0.033 -0.037 0.061
C47 0.063 0.047 0.054 0.008 0.004 0.008
C48 0.061 0.057 0.052 -0.006 -0.006 0.008
C49 0.134 0.08 0.112 0.05 0.038 0.018
O20 0.274 0.095 0.101 -0.058 -0.026 0.061
C50 0.068 0.095 0.092 -0.01 0.006 0.03
C51 0.112 0.043 0.043 -0.017 -0.011 0.009
O22 0.041 0.0239 0.051 0.0029 0.0061 0.0034
Ni2 0.0143 0.0182 0.0584 -0.0164 0.0022 -0.0005
O1 0.0274 0.028 0.043 -0.0006 0.0052 0.0045
O2 0.0336 0.0373 0.051 -0.0111 -0.0073 -0.0001
C1 0.019 0.021 0.06 -0.023 0.001 0.0015
C2 0.024 0.024 0.054 -0.023 -0.004 -0.0026
C3 0.02 0.016 0.054 -0.017 -0.003 0.0012
C4 0.025 0.018 0.064 -0.018 -0.004 0.0013
O3 0.061 0.032 0.114 -0.025 0.005 0.003
C5 0.027 0.017 0.046 -0.005 0 0.0027
C6 0.036 0.025 0.032 0.001 -0.008 0.0009
C7 0.059 0.04 0.031 0 -0.012 0
C8 0.049 0.027 0.037 -0.003 -0.003 0.002
C9 0.057 0.041 0.029 -0.003 -0.004 0.007
O4 0.087 0.079 0.096 0.035 0.029 0.015
C10 0.019 0.022 0.051 -0.023 -0.0012 0.0008
C11 0.079 0.027 0.056 -0.015 -0.011 -0.001
C12 0.035 0.028 0.059 -0.025 -0.002 -0.002
O5 0.104 0.061 0.052 -0.027 -0.019 -0.002
C13 0.055 0.039 0.031 -0.002 -0.01 0.006
O6 0.065 0.067 0.082 0.004 0.009 0.023
C14 0.057 0.032 0.041 -0.008 -0.012 0.006
C15 0.088 0.024 0.051 -0.004 -0.019 0.009
O7 0.0174 0.0305 0.104 -0.0307 -0.0047 0.0035
C16 0.06 0.054 0.053 -0.027 -0.009 -0.005
O8 0.233 0.051 0.084 -0.009 -0.069 0.004
C17 0.097 0.052 0.033 -0.012 -0.013 0.011
C18 0.101 0.032 0.067 -0.01 -0.029 0.005
C19 0.071 0.04 0.035 -0.003 -0.006 0.009
C20 0.061 0.049 0.05 0.007 -0.01 0.006
C21 0.273 0.06 0.068 -0.033 -0.037 0.061
C22 0.063 0.047 0.054 0.008 0.004 0.008
C23 0.061 0.057 0.052 -0.006 -0.006 0.008
C24 0.134 0.08 0.112 0.05 0.038 0.018
O9 0.274 0.095 0.101 -0.058 -0.026 0.061
C25 0.1 0.081 0.072 -0.051 -0.016 -0.004
C26 0.068 0.095 0.092 -0.01 0.006 0.03
C27 0.112 0.043 0.043 -0.017 -0.011 0.009
C28 0.28 0.078 0.119 0.002 -0.09 -0.01
C32 0.014 0.018 0.048 -0.015 0.001 0.0006
O11 0.041 0.0239 0.051 0.0029 0.0061 0.0034
O12 0.0125 0.0178 0.0276 -0.0063 0.0003 -0.0028
O13 0.0194 0.02 0.071 -0.0213 -0.0057 -0.0021
C34 0.018 0.03 0.055 -0.023 0.001 -0.003
O16 0.111 0.083 0.11 -0.059 0.009 0.004
O21 0.415 0.098 0.062 -0.036 -0.006 0.086
C63 0.019 0.02 0.067 -0.025 -0.001 -0.0026
C64 0.011 0.023 0.041 -0.019 -0.0012 -0.0002
C65 0.017 0.015 0.05 -0.014 0.0012 -0.0026
C67 0.014 0.026 0.032 -0.009 0.0017 -0.0032
O27 0.0183 0.0143 0.063 -0.0109 0.0014 0.0056
O28 0.0132 0.021 0.086 -0.0128 0.0046 -0.001
Ni9 0.0121 0.0138 0.0399 -0.0079 -0.0008 -0.00012
O40 0.0183 0.0143 0.063 -0.0109 0.0014 0.0056
O42 0.0132 0.021 0.086 -0.0128 0.0046 -0.001
C29 0.019 0.02 0.067 -0.025 -0.001 -0.0026
C30 0.011 0.023 0.041 -0.019 -0.0012 -0.0002
C31 0.017 0.015 0.05 -0.014 0.0012 -0.0026
C33 0.014 0.026 0.032 -0.009 0.0017 -0.0032
C52 0.019 0.021 0.06 -0.023 0.001 0.0015
C53 0.024 0.024 0.054 -0.023 -0.004 -0.0026
C54 0.02 0.016 0.054 -0.017 -0.003 0.0012
C55 0.025 0.018 0.064 -0.018 -0.004 0.0013
C56 0.019 0.022 0.051 -0.023 -0.0012 0.0008
C57 0.079 0.027 0.056 -0.015 -0.011 -0.001
C58 0.035 0.028 0.059 -0.025 -0.002 -0.002
O23 0.104 0.061 0.052 -0.027 -0.019 -0.002
O24 0.0174 0.0305 0.104 -0.0307 -0.0047 0.0035
C59 0.06 0.054 0.053 -0.027 -0.009 -0.005
O25 0.233 0.051 0.084 -0.009 -0.069 0.004
C60 0.101 0.032 0.067 -0.01 -0.029 0.005
C61 0.1 0.081 0.072 -0.051 -0.016 -0.004
C62 0.28 0.078 0.119 0.002 -0.09 -0.01
C66 0.014 0.018 0.048 -0.015 0.001 0.0006
C68 0.018 0.03 0.055 -0.023 0.001 -0.003
O29 0.0336 0.0373 0.051 -0.0111 -0.0073 -0.0001
O30 0.061 0.032 0.114 -0.025 0.005 0.003
O32 0.111 0.083 0.11 -0.059 0.009 0.004
loop_
_geom_bond_atom_site_label_1
_geom_bond_atom_site_label_2
_geom_bond_site_symmetry_1
_geom_bond_site_symmetry_2
Ni14 Ni1 1_555 1_555
O34 Ni1 1_555 1_555
O37 Ni1 1_555 1_555
O39 Ni1 1_555 1_555
Ni14 O37 1_555 1_555
O34 C35 1_555 1_555
C35 C36 1_555 1_555
C36 C38 1_555 1_555
C37 C39 1_555 1_555
C38 H31 1_555 1_555
O18 C47 1_555 1_555
O19 C48 1_555 1_555
C41 C38 1_555 1_555
C42 C36 1_555 1_555
H32 C42 1_555 1_555
C43 C41 1_555 1_555
C44 C40 1_555 1_555
C45 C37 1_555 1_555
H35 C45 1_555 1_555
C46 O20 1_555 1_555
C47 C45 1_555 1_555
C48 C44 1_555 1_555
C49 O18 1_555 1_555
H36 C49 1_555 1_555
H37 C49 1_555 1_555
H38 C49 1_555 1_555
O20 H39 1_555 1_555
C50 O19 1_555 1_555
H41 C50 1_555 1_555
C51 C42 1_555 1_555
O22 C35 1_555 1_555
Ni14 O22 1_555 1_555
C37 C40 1_555 1_555
C39 C41 1_555 1_555
C43 C51 1_555 1_555
C46 C51 1_555 1_555
C47 C48 1_555 1_555
Ni2 O3 1_555 1_555
O1 C5 1_555 1_555
O2 H1 1_555 1_555
H2 O2 1_555 1_555
C1 H3 1_555 1_555
C2 C3 1_555 1_555
C3 C10 1_555 1_555
C4 C2 1_555 1_555
O3 H4 1_555 1_555
H5 O3 1_555 1_555
C5 C6 1_555 1_555
C6 C8 1_555 1_555
C7 C9 1_555 1_555
C8 H6 1_555 1_555
C9 C14 1_555 1_555
O4 C22 1_555 1_555
C10 C1 1_555 1_555
C11 C4 1_555 1_555
H7 C11 1_555 1_555
C12 C2 1_555 1_555
H8 C12 1_555 1_555
O5 C16 1_555 1_555
C13 C7 1_555 1_555
O6 C23 1_555 1_555
C14 C8 1_555 1_555
C15 C6 1_555 1_555
H9 C15 1_555 1_555
O7 Ni2 1_555 1_555
C16 C12 1_555 1_555
O8 C18 1_555 1_555
C17 C14 1_555 1_555
C18 C11 1_555 1_555
C19 C13 1_555 1_555
C20 C7 1_555 1_555
H12 C20 1_555 1_555
C21 O9 1_555 1_555
C22 C20 1_555 1_555
C23 C19 1_555 1_555
C24 O4 1_555 1_555
H13 C24 1_555 1_555
H14 C24 1_555 1_555
H15 C24 1_555 1_555
O9 H16 1_555 1_555
C25 O5 1_555 1_555
H17 C25 1_555 1_555
H18 C25 1_555 1_555
H19 C25 1_555 1_555
C26 O6 1_555 1_555
H21 C26 1_555 1_555
C27 C15 1_555 1_555
C28 O8 1_555 1_555
H23 C28 1_555 1_555
H24 C28 1_555 1_555
H25 C28 1_555 1_555
C32 C1 1_555 1_555
O11 Ni2 1_555 1_555
H28 O12 1_555 1_555
O13 C34 1_555 1_555
C34 O7 1_555 1_555
O16 Ni2 1_555 1_555
H29 O16 1_555 1_555
H30 O16 1_555 1_555
H52 C63 1_555 1_555
C64 C63 1_555 1_555
C65 C64 1_555 1_555
H53 C65 1_555 1_555
C67 C64 1_555 1_555
O27 C67 1_555 1_555
O28 C67 1_555 1_555
Ni14 O28 1_555 1_555
O42 Ni2 1_555 1_555
Ni2 O12 1_555 1_555
Ni2 Ni9 1_555 1_555
O1 Ni9 1_555 1_555
C5 O11 1_555 1_555
C16 C18 1_555 1_555
C17 C27 1_555 1_555
C21 C27 1_555 1_555
C22 C23 1_555 1_555
C32 C34 1_555 1_555
O12 Ni9 1_555 1_555
O13 Ni9 1_555 1_555
H26 C29 1_555 1_555
C30 C29 1_555 1_555
C31 C30 1_555 1_555
H27 C31 1_555 1_555
C33 C30 1_555 1_555
O40 C33 1_555 1_555
O42 C33 1_555 1_555
C52 H43 1_555 1_555
C53 C54 1_555 1_555
C56 C52 1_555 1_555
C57 C55 1_555 1_555
H44 C57 1_555 1_555
C58 C53 1_555 1_555
H45 C58 1_555 1_555
O23 C59 1_555 1_555
O24 C68 1_555 1_555
C59 C58 1_555 1_555
O25 C60 1_555 1_555
C60 C57 1_555 1_555
C61 O23 1_555 1_555
H46 C61 1_555 1_555
H47 C61 1_555 1_555
H48 C61 1_555 1_555
C62 O25 1_555 1_555
H49 C62 1_555 1_555
H50 C62 1_555 1_555
H51 C62 1_555 1_555
C66 C52 1_555 1_555
O39 C68 1_555 1_555
C68 C66 1_555 1_555
Ni14 O24 1_555 1_555
O29 H54 1_555 1_555
H55 O29 1_555 1_555
O30 Ni14 1_555 1_555
H56 O30 1_555 1_555
H57 O30 1_555 1_555
H58 O37 1_555 1_555
O32 Ni14 1_555 1_555
H59 O32 1_555 1_555
H60 O32 1_555 1_555
C53 C55 1_555 1_555
C54 C56 1_555 1_555
C59 C60 1_555 1_555

#END
