
###############################################################################
#
# This file contains modified crystal structure data generated from the
# MOF subset of the Cambridge Structural Database (CSD) v543 
# hosted by the Cambridge Crystallographic Data Centre (CCDC).
#
# This work is licensed under the Creative Commons
# Attribution-NonCommercial-ShareAlike 4.0 International License.
# To view a copy of this license, visit
# http://creativecommons.org/licenses/by-nc-sa/4.0/
# or send a letter to
# Creative Commons, PO Box 1866, Mountain View, CA 94042, USA.
#
# CIF created using the CSD Python API on 29 September 2022
# The structure has been converted into the P1 space group
# The structure has a 3D framework
# The original CSD entry LITCOI is in the monoclinic crystal system
# The framework has been calculated to contain at least 10.0% void space
# The void calculation uses a probe of radius 1.32A, grid spacing 0.4
#
###############################################################################

data_LITCOI
_chemical_formula_moiety         '(C156 H140 Cd8 N4 O60)n'
_symmetry_cell_setting           triclinic
_symmetry_space_group_name_H-M   'P 1'
_symmetry_Int_Tables_number      1
_space_group_name_Hall           'P 1'
loop_
_symmetry_equiv_pos_site_id
_symmetry_equiv_pos_as_xyz
1 x,y,z
_cell_length_a                   15.4676(17)
_cell_length_b                   13.1962(15)
_cell_length_c                   26.497(3)
_cell_angle_alpha                90
_cell_angle_beta                 98.729(2)
_cell_angle_gamma                90
_cell_volume                     5345.75
loop_
_atom_site_label
_atom_site_type_symbol
_atom_site_fract_x
_atom_site_fract_y
_atom_site_fract_z
C1 C 0.6089(3) 0.1902(3) 0.21695(15)
C4 C 0.4192(2) 0.0038(3) 0.12805(14)
O4 O 0.6013(2) 0.2140(2) 0.26130(11)
C6 C 0.5409(2) 0.1260(3) 0.18551(13)
O5 O 0.67404(17) 0.2187(2) 0.19645(11)
C8 C 0.4139(2) 0.0192(3) 0.17911(14)
C9 C 0.5455(2) 0.1083(3) 0.13467(14)
H3 H 0.5900 0.1379 0.1198
C10 C 0.4846(2) 0.0471(3) 0.10536(13)
C12 C 0.4740(2) 0.0815(3) 0.20775(14)
H4 H 0.4700 0.0938 0.2419
C14 C 0.4929(2) 0.0230(3) 0.05123(14)
C28 C 0.4878(2) 0.1012(3) 0.01479(14)
O21 O 0.4656(3) 0.3800(2) 0.00319(12)
C52 C 0.4758(3) 0.2041(3) 0.02799(16)
H39 H 0.4697 0.2200 0.0615
C56 C 0.4618(5) 0.4071(4) 0.0547(2)
H44 H 0.5132 0.3827 0.0762
H45 H 0.4589 0.4795 0.0575
H46 H 0.4108 0.3774 0.0653
Cd6 Cd 0.745927(17) 0.31505(2) 0.260632(10)
Cd10 Cd 0.78874(2) 0.17755(2) 0.154486(11)
O16 O 0.64848(18) 0.0386(2) 0.74886(10)
O17 O 0.70438(18) 0.0965(2) 0.82569(10)
C41 C 0.6516(3) 0.0417(3) 0.79675(16)
H36 H 0.6224 0.0367 0.8914
O20 O 0.4670(3) 0.3385(2) 0.90884(12)
C49 C 0.4757(3) 0.2556(3) 0.94086(16)
C50 C 0.4730(3) 0.2805(3) 0.99286(17)
C51 C 0.4936(3) 0.0775(3) 0.96276(14)
C53 C 0.4852(3) 0.1581(3) 0.92622(15)
H40 H 0.4862 0.1436 0.8920
C55 C 0.4617(5) 0.3172(4) 0.85499(19)
H41 H 0.5143 0.2840 0.8488
H42 H 0.4124 0.2741 0.8442
H43 H 0.4548 0.3796 0.8361
Cd7 Cd 0.745927(17) 0.18495(2) 0.760632(10)
Cd1 Cd 0.254073(17) 0.81505(2) 0.239368(10)
Cd2 Cd 0.21126(2) 0.67755(2) 0.345514(11)
O1 O 0.35152(18) 0.9614(2) 0.25114(10)
O2 O 0.29562(18) 0.9035(2) 0.17431(10)
C2 C 0.3484(3) 0.9583(3) 0.20325(16)
C3 C 0.0039(3) 0.4993(3) 0.10985(14)
H1 H 0.3776 0.9633 0.1086
C5 C 0.0646(3) 0.5592(3) 0.14011(15)
H2 H 0.1051 0.5965 0.1252
O6 O 0.5330(3) 0.6615(2) 0.09116(12)
C13 C 0.0025(3) 0.4978(3) 0.05298(15)
C15 C 0.0640(3) 0.4426(3) 0.03140(14)
C16 C 0.0041(3) 0.5099(3) 0.21510(15)
H5 H 0.0038 0.5136 0.2501
C18 C 0.1280(3) 0.3815(4) 0.06146(16)
H6 H 0.1294 0.3792 0.0967
C20 C 0.5243(3) 0.7444(3) 0.05914(16)
C21 C 0.5270(3) 0.7195(3) 0.00714(17)
C22 C 0.0653(2) 0.5641(3) 0.19337(14)
C23 C 0.1868(3) 0.3268(4) 0.03995(19)
C24 C 0.5064(3) 0.9225(3) 0.03724(14)
C27 C 0.5148(3) 0.8419(3) 0.07378(15)
H10 H 0.5138 0.8564 0.1080
C29 C 0.5383(5) 0.6828(4) 0.14501(19)
H11 H 0.4857 0.7160 0.1512
H12 H 0.5876 0.7259 0.1558
H13 H 0.5452 0.6204 0.1639
O9 O 0.2496(2) 0.2641(3) 0.06512(14)
O11 O 0.1779(2) 0.6855(2) 0.20243(11)
O12 O 0.1299(2) 0.6292(3) 0.27264(11)
O13 O 0.0955(2) 0.6682(3) 0.38840(14)
H14 H 0.0846 0.6133 0.4030
H15 H 0.0630 0.7197 0.3899
C31 C 0.1293(3) 0.6313(3) 0.22548(16)
O14 O 0.2901(2) 0.7301(3) 0.41889(13)
O15 O 0.2492(3) 0.5158(3) 0.36339(14)
H16 H 0.2194 0.4798 0.3810
H17 H 0.2936 0.4906 0.3526
C34 C 0.2508(4) 0.2475(5) 0.1174(2)
H24 H 0.1949 0.2224 0.1231
H25 H 0.2632 0.3100 0.1355
H26 H 0.2953 0.1986 0.1293
C35 C 0.2834(7) 0.8691(7) 0.5282(3)
H27 H 0.3343 0.9027 0.5467
H28 H 0.2319 0.9081 0.5326
N1 N 0.2909(5) 0.8622(5) 0.4755(3)
C36 C 0.2887(4) 0.7580(5) 0.4620(2)
C37 C 0.2799(6) 0.7006(5) 0.5062(3)
H29 H 0.3293 0.6550 0.5144
H30 H 0.2268 0.6604 0.5003
C38 C 0.2766(7) 0.7693(9) 0.5471(2)
H31 H 0.2219 0.7614 0.5605
H32 H 0.3244 0.7559 0.5745
C39 C 0.3118(12) 0.9369(15) 0.4372(7)
H33 H 0.3046 0.9057 0.4041
H34 H 0.3711 0.9593 0.4462
H35 H 0.2731 0.9939 0.4365
O33 O 0.1811(2) 0.8430(2) 0.32116(13)
O35 O 0.3987(2) 0.7140(2) 0.23870(11)
O37 O 0.32596(17) 0.7187(2) 0.30355(11)
O39 O 0.1270(2) 0.9012(3) 0.24570(12)
O7 O 0.5344(3) 0.6200(2) 0.99681(12)
C26 C 0.5242(3) 0.7959(3) 0.97201(16)
H9 H 0.5303 0.7800 0.9385
C30 C 0.1860(3) 0.3307(4) 0.98612(19)
O10 O 0.2498(2) 0.2725(3) 0.96932(15)
C32 C 0.5382(5) 0.5929(4) 0.9453(2)
H18 H 0.4868 0.6173 0.9238
H19 H 0.5411 0.5205 0.9425
H20 H 0.5892 0.6226 0.9347
C33 C 0.2523(4) 0.2756(6) 0.9151(2)
H21 H 0.1942 0.2673 0.8969
H22 H 0.2889 0.2219 0.9061
H23 H 0.2755 0.3396 0.9063
C40 C 0.3911(3) 0.8098(3) 0.78305(15)
C42 C 0.5808(2) 0.9962(3) 0.87195(14)
O18 O 0.3987(2) 0.7860(2) 0.73870(11)
C43 C 0.4591(2) 0.8740(3) 0.81449(13)
O19 O 0.32596(17) 0.7813(2) 0.80355(11)
C44 C 0.5861(2) 0.9808(3) 0.82089(14)
C45 C 0.4545(2) 0.8917(3) 0.86533(14)
H37 H 0.4100 0.8621 0.8802
C46 C 0.5154(2) 0.9529(3) 0.89464(13)
C47 C 0.5260(2) 0.9185(3) 0.79225(14)
H38 H 0.5300 0.9062 0.7581
C48 C 0.5071(2) 0.9770(3) 0.94877(14)
C54 C 0.5122(2) 0.8988(3) 0.98521(14)
O22 O 0.1811(2) 0.6570(2) 0.82116(13)
C59 C 0.1253(3) 0.6073(3) 0.79232(17)
C60 C 0.0570(2) 0.5502(3) 0.81500(15)
C64 C 0.0622(3) 0.4456(3) 0.97760(15)
O23 O 0.1270(2) 0.5988(3) 0.74570(12)
C66 C 0.0562(3) 0.5562(3) 0.86748(15)
H50 H 0.0963 0.5977 0.8875
C69 C 0.1266(3) 0.3871(4) 0.95633(17)
H51 H 0.1270 0.3885 0.9213
Cd8 Cd 0.254073(17) 0.68495(2) 0.739368(10)
Cd11 Cd 0.21126(2) 0.82245(2) 0.845514(11)
O3 O 0.8189(2) 0.3430(2) 0.17884(13)
C7 C 0.8747(3) 0.3927(3) 0.20768(17)
C11 C 0.9430(2) 0.4498(3) 0.18500(15)
C17 C 0.9378(3) 0.5544(3) 0.02240(15)
O8 O 0.8730(2) 0.4012(3) 0.25430(12)
C19 C 0.9438(3) 0.4438(3) 0.13252(15)
H7 H 0.9037 0.4023 0.1125
C25 C 0.8734(3) 0.6129(4) 0.04367(17)
H8 H 0.8730 0.6115 0.0787
C70 C 0.8140(3) 0.6693(4) 0.01388(19)
O25 O 0.7502(2) 0.7275(3) 0.03068(15)
C72 C 0.7477(4) 0.7244(6) 0.0849(2)
H52 H 0.8058 0.7327 0.1031
H53 H 0.7111 0.7781 0.0939
H54 H 0.7245 0.6604 0.0937
C57 C 0.9961(3) 0.5007(3) 0.89015(14)
C58 C 0.9354(3) 0.4408(3) 0.85989(15)
H47 H 0.8949 0.4035 0.8748
C61 C 0.9975(3) 0.5022(3) 0.94702(15)
C62 C 0.9360(3) 0.5574(3) 0.96860(14)
C63 C 0.9959(3) 0.4901(3) 0.78490(15)
H48 H 0.9962 0.4864 0.7499
C65 C 0.8720(3) 0.6185(4) 0.93854(16)
H49 H 0.8706 0.6208 0.9033
C67 C 0.9347(2) 0.4359(3) 0.80663(14)
C68 C 0.8132(3) 0.6732(4) 0.96005(19)
O24 O 0.7504(2) 0.7359(3) 0.93488(14)
O26 O 0.8221(2) 0.3145(2) 0.79757(11)
O27 O 0.8701(2) 0.3708(3) 0.72736(11)
C71 C 0.8707(3) 0.3687(3) 0.77452(16)
C73 C 0.7492(4) 0.7525(5) 0.8826(2)
H55 H 0.8051 0.7776 0.8769
H56 H 0.7368 0.6900 0.8645
H57 H 0.7047 0.8014 0.8707
Cd4 Cd 0.78874(2) 0.32245(2) 0.654486(11)
O28 O 0.9045(2) 0.3318(3) 0.61160(14)
H58 H 0.9154 0.3867 0.5970
H59 H 0.9370 0.2803 0.6101
O29 O 0.7099(2) 0.2699(3) 0.58111(13)
O30 O 0.7508(3) 0.4842(3) 0.63661(14)
H60 H 0.7806 0.5202 0.6190
H61 H 0.7064 0.5094 0.6474
C74 C 0.7166(7) 0.1309(7) 0.4718(3)
H62 H 0.6657 0.0973 0.4533
H63 H 0.7681 0.0919 0.4674
N2 N 0.7091(5) 0.1378(5) 0.5245(3)
C75 C 0.7113(4) 0.2420(5) 0.5380(2)
C76 C 0.7201(6) 0.2994(5) 0.4938(3)
H64 H 0.6707 0.3450 0.4856
H65 H 0.7732 0.3396 0.4997
C77 C 0.7234(7) 0.2307(9) 0.4529(2)
H66 H 0.7781 0.2386 0.4395
H67 H 0.6756 0.2441 0.4255
C78 C 0.6882(12) 0.0631(15) 0.5628(7)
H68 H 0.6954 0.0943 0.5959
H69 H 0.6289 0.0407 0.5538
H70 H 0.7269 0.0061 0.5635
O34 O 0.8189(2) 0.1570(2) 0.67884(13)
O36 O 0.6013(2) 0.2860(2) 0.76130(11)
O38 O 0.67404(17) 0.2813(2) 0.69645(11)
O40 O 0.8730(2) 0.0988(3) 0.75430(12)
C7_2 C 0.1253(3) 0.8927(3) 0.29232(17)
C11_2 C 0.0570(2) 0.9498(3) 0.31500(15)
C19_2 C 0.0562(3) 0.9438(3) 0.36748(15)
H7_2 H 0.0963 0.9023 0.3875
C58_2 C 0.0646(3) 0.9408(3) 0.64011(15)
H47_2 H 0.1051 0.9035 0.6252
C63_2 C 0.0041(3) 0.9901(3) 0.71510(15)
H48_2 H 0.0038 0.9864 0.7501
C67_2 C 0.0653(2) 0.9359(3) 0.69337(14)
O26_2 O 0.1779(2) 0.8145(2) 0.70243(11)
O27_2 O 0.1299(2) 0.8708(3) 0.77264(11)
C71_2 C 0.1293(3) 0.8687(3) 0.72548(16)
O28_2 O 0.0955(2) 0.8318(3) 0.88840(14)
H58_2 H 0.0846 0.8867 0.9030
H59_2 H 0.0630 0.7803 0.8899
O29_2 O 0.2901(2) 0.7699(3) 0.91889(13)
O30_2 O 0.2492(3) 0.9842(3) 0.86339(14)
N2_2 N 0.2909(5) 0.6378(5) 0.9755(3)
C75_2 C 0.2887(4) 0.7420(5) 0.9620(2)
C78_2 C 0.3118(12) 0.5631(15) 0.9372(7)
H68_2 H 0.3046 0.5943 0.9041
H69_2 H 0.3711 0.5407 0.9462
H70_2 H 0.2731 0.5061 0.9365
O31 O 0.35152(18) 0.5386(2) 0.75114(10)
O32 O 0.29562(18) 0.5965(2) 0.67431(10)
C1_2 C 0.3911(3) 0.6902(3) 0.28305(15)
O1_2 O 0.64848(18) 0.4614(2) 0.24886(10)
O2_2 O 0.70438(18) 0.4035(2) 0.32569(10)
C2_2 C 0.6516(3) 0.4583(3) 0.29675(16)
C4_2 C 0.5808(2) 0.5038(3) 0.37195(14)
H1_2 H 0.6224 0.4633 0.3914
C5_2 C 0.9354(3) 0.0592(3) 0.35989(15)
H2_2 H 0.8949 0.0965 0.3748
C6_2 C 0.4591(2) 0.6260(3) 0.31449(13)
C8_2 C 0.5861(2) 0.5192(3) 0.32089(14)
O6_2 O 0.4670(3) 0.1615(2) 0.40884(12)
C9_2 C 0.4545(2) 0.6083(3) 0.36533(14)
H3_2 H 0.4100 0.6379 0.3802
C10_2 C 0.5154(2) 0.5471(3) 0.39464(13)
C12_2 C 0.5260(2) 0.5815(3) 0.29225(14)
H4_2 H 0.5300 0.5938 0.2581
C14_2 C 0.5071(2) 0.5230(3) 0.44877(14)
O7_2 O 0.4656(3) 0.1200(2) 0.50319(12)
C16_2 C 0.9959(3) 0.0099(3) 0.28490(15)
H5_2 H 0.9962 0.0136 0.2499
C20_2 C 0.4757(3) 0.2444(3) 0.44086(16)
C21_2 C 0.4730(3) 0.2195(3) 0.49286(17)
C22_2 C 0.9347(2) 0.0641(3) 0.30663(14)
C24_2 C 0.4936(3) 0.4225(3) 0.46276(14)
C26_2 C 0.4758(3) 0.2959(3) 0.52799(16)
H9_2 H 0.4697 0.2800 0.5615
C27_2 C 0.4852(3) 0.3419(3) 0.42622(15)
H10_2 H 0.4862 0.3564 0.3920
C28_2 C 0.5122(2) 0.6012(3) 0.48521(14)
C29_2 C 0.4617(5) 0.1828(4) 0.35499(19)
H11_2 H 0.5143 0.2160 0.3488
H12_2 H 0.4124 0.2259 0.3442
H13_2 H 0.4548 0.1204 0.3361
O11_2 O 0.8221(2) 0.1855(2) 0.29757(11)
O12_2 O 0.8701(2) 0.1292(3) 0.22736(11)
O13_2 O 0.9045(2) 0.1682(3) 0.11160(14)
H14_2 H 0.9154 0.1133 0.0970
H15_2 H 0.9370 0.2197 0.1101
C31_2 C 0.8707(3) 0.1313(3) 0.27452(16)
O14_2 O 0.7099(2) 0.2301(3) 0.08111(13)
O15_2 O 0.7508(3) 0.0158(3) 0.13661(14)
C32_2 C 0.4618(5) 0.0929(4) 0.5547(2)
H18_2 H 0.5132 0.1173 0.5762
H19_2 H 0.4589 0.0205 0.5575
H20_2 H 0.4108 0.1226 0.5653
N1_2 N 0.7091(5) 0.3622(5) 0.0245(3)
C36_2 C 0.7113(4) 0.2580(5) 0.0380(2)
C39_2 C 0.6882(12) 0.4369(15) 0.0628(7)
H33_2 H 0.6954 0.4057 0.0959
H34_2 H 0.6289 0.4593 0.0538
H35_2 H 0.7269 0.4939 0.0635
C40_2 C 0.6089(3) 0.3098(3) 0.71695(15)
C41_2 C 0.3484(3) 0.5417(3) 0.70325(16)
C42_2 C 0.4192(2) 0.4962(3) 0.62805(14)
H36_2 H 0.3776 0.5367 0.6086
C43_2 C 0.5409(2) 0.3740(3) 0.68551(13)
C44_2 C 0.4139(2) 0.4808(3) 0.67911(14)
O20_2 O 0.5330(3) 0.8385(2) 0.59116(12)
C45_2 C 0.5455(2) 0.3917(3) 0.63467(14)
H37_2 H 0.5900 0.3621 0.6198
C46_2 C 0.4846(2) 0.4529(3) 0.60536(13)
C47_2 C 0.4740(2) 0.4185(3) 0.70775(14)
H38_2 H 0.4700 0.4062 0.7419
C48_2 C 0.4929(2) 0.4770(3) 0.55123(14)
O21_2 O 0.5344(3) 0.8800(2) 0.49681(12)
C49_2 C 0.5243(3) 0.7556(3) 0.55914(16)
C50_2 C 0.5270(3) 0.7805(3) 0.50714(17)
C51_2 C 0.5064(3) 0.5775(3) 0.53724(14)
C52_2 C 0.5242(3) 0.7041(3) 0.47201(16)
H39_2 H 0.5303 0.7200 0.4385
C53_2 C 0.5148(3) 0.6581(3) 0.57378(15)
H40_2 H 0.5138 0.6436 0.6080
C54_2 C 0.4878(2) 0.3988(3) 0.51479(14)
C55_2 C 0.5383(5) 0.8172(4) 0.64501(19)
H41_2 H 0.4857 0.7840 0.6512
H42_2 H 0.5876 0.7741 0.6558
H43_2 H 0.5452 0.8796 0.6639
C56_2 C 0.5382(5) 0.9071(4) 0.4453(2)
H44_2 H 0.4868 0.8827 0.4238
H45_2 H 0.5411 0.9795 0.4425
H46_2 H 0.5892 0.8774 0.4347
C59_2 C 0.8747(3) 0.1073(3) 0.70768(17)
C60_2 C 0.9430(2) 0.0502(3) 0.68500(15)
C66_2 C 0.9438(3) 0.0562(3) 0.63252(15)
H50_2 H 0.9037 0.0977 0.6125
C17_2 C 0.0622(3) 0.0544(3) 0.47760(15)
C25_2 C 0.1266(3) 0.1129(4) 0.45633(17)
H8_2 H 0.1270 0.1115 0.4213
C57_2 C 0.0039(3) 0.0007(3) 0.60985(14)
C61_2 C 0.0025(3) 0.0022(3) 0.55298(15)
C62_2 C 0.0640(3) 0.0574(3) 0.53140(14)
C65_2 C 0.1280(3) 0.1185(4) 0.56146(16)
H49_2 H 0.1294 0.1208 0.5967
C68_2 C 0.1868(3) 0.1732(4) 0.53995(19)
O24_2 O 0.2496(2) 0.2359(3) 0.56512(14)
C70_2 C 0.1860(3) 0.1693(4) 0.48612(19)
O25_2 O 0.2498(2) 0.2275(3) 0.46932(15)
C72_2 C 0.2523(4) 0.2244(6) 0.4151(2)
H52_2 H 0.1942 0.2327 0.3969
H53_2 H 0.2889 0.2781 0.4061
H54_2 H 0.2755 0.1604 0.4063
C73_2 C 0.2508(4) 0.2525(5) 0.6174(2)
H55_2 H 0.1949 0.2776 0.6231
H56_2 H 0.2632 0.1900 0.6355
H57_2 H 0.2953 0.3014 0.6293
H60_2 H 0.2194 0.0202 0.8810
H61_2 H 0.2936 0.0094 0.8526
C74_2 C 0.2834(7) 0.6309(7) 0.0282(3)
H62_2 H 0.3343 0.5973 0.0467
H63_2 H 0.2319 0.5919 0.0326
C76_2 C 0.2799(6) 0.7994(5) 0.0062(3)
H64_2 H 0.3293 0.8450 0.0144
H65_2 H 0.2268 0.8396 0.0003
C77_2 C 0.2766(7) 0.7307(9) 0.0471(2)
H66_2 H 0.2219 0.7386 0.0605
H67_2 H 0.3244 0.7441 0.0745
C35_2 C 0.7166(7) 0.3691(7) 0.9718(3)
H27_2 H 0.6657 0.4027 0.9533
H28_2 H 0.7681 0.4081 0.9674
C37_2 C 0.7201(6) 0.2006(5) 0.9938(3)
H29_2 H 0.6707 0.1550 0.9856
H30_2 H 0.7732 0.1604 0.9997
C38_2 C 0.7234(7) 0.2693(9) 0.9529(2)
H31_2 H 0.7781 0.2614 0.9395
H32_2 H 0.6756 0.2559 0.9255
C3_2 C 0.9961(3) 0.9993(3) 0.39015(14)
C13_2 C 0.9975(3) 0.9978(3) 0.44702(15)
C15_2 C 0.9360(3) 0.9426(3) 0.46860(14)
C18_2 C 0.8720(3) 0.8815(4) 0.43854(16)
H6_2 H 0.8706 0.8792 0.4033
C23_2 C 0.8132(3) 0.8268(4) 0.46005(19)
O9_2 O 0.7504(2) 0.7641(3) 0.43488(14)
C30_2 C 0.8140(3) 0.8307(4) 0.51388(19)
O10_2 O 0.7502(2) 0.7725(3) 0.53068(15)
H16_2 H 0.7806 0.9798 0.1190
H17_2 H 0.7064 0.9906 0.1474
C33_2 C 0.7477(4) 0.7756(6) 0.5849(2)
H21_2 H 0.8058 0.7673 0.6031
H22_2 H 0.7111 0.7219 0.5939
H23_2 H 0.7245 0.8396 0.5937
C34_2 C 0.7492(4) 0.7475(5) 0.3826(2)
H24_2 H 0.8051 0.7224 0.3769
H25_2 H 0.7368 0.8100 0.3645
H26_2 H 0.7047 0.6986 0.3707
C64_2 C 0.9378(3) 0.9456(3) 0.52240(15)
C69_2 C 0.8734(3) 0.8871(4) 0.54367(17)
H51_2 H 0.8730 0.8885 0.5787
loop_
_geom_bond_atom_site_label_1
_geom_bond_atom_site_label_2
_geom_bond_site_symmetry_1
_geom_bond_site_symmetry_2
C1 O4 1_555 1_555
O4 Cd6 1_555 1_555
C6 C1 1_555 1_555
O5 C1 1_555 1_555
C9 C6 1_555 1_555
H3 C9 1_555 1_555
C10 C4 1_555 1_555
C12 C6 1_555 1_555
H4 C12 1_555 1_555
C14 C10 1_555 1_555
C28 C14 1_555 1_555
C52 C28 1_555 1_555
H39 C52 1_555 1_555
C56 O21 1_555 1_555
H44 C56 1_555 1_555
H45 C56 1_555 1_555
H46 C56 1_555 1_555
Cd6 O5 1_555 1_555
Cd10 O5 1_555 1_555
C4 C8 1_555 1_555
C8 C12 1_555 1_555
C9 C10 1_555 1_555
O16 C41 1_555 1_555
O17 C41 1_555 1_555
O20 C49 1_555 1_555
C49 C50 1_555 1_555
C53 C49 1_555 1_555
H40 C53 1_555 1_555
C55 O20 1_555 1_555
H41 C55 1_555 1_555
H42 C55 1_555 1_555
H43 C55 1_555 1_555
Cd7 O16 1_555 1_555
O17 Cd7 1_555 1_555
C51 C53 1_555 1_555
Cd1 O1 1_555 1_555
Cd2 O12 1_555 1_555
O1 C2 1_555 1_555
O2 Cd1 1_555 1_555
C2 O2 1_555 1_555
C3 C5 1_555 1_555
C5 H2 1_555 1_555
O6 C20 1_555 1_555
C13 C3 1_555 1_555
C15 C13 1_555 1_555
C16 H5 1_555 1_555
C18 C15 1_555 1_555
H6 C18 1_555 1_555
C20 C21 1_555 1_555
C22 C5 1_555 1_555
C23 C18 1_555 1_555
C27 C20 1_555 1_555
H10 C27 1_555 1_555
C29 O6 1_555 1_555
H11 C29 1_555 1_555
H12 C29 1_555 1_555
H13 C29 1_555 1_555
O9 C23 1_555 1_555
O11 Cd1 1_555 1_555
O12 C31 1_555 1_555
O13 Cd2 1_555 1_555
H14 O13 1_555 1_555
H15 O13 1_555 1_555
C31 C22 1_555 1_555
O14 Cd2 1_555 1_555
O15 Cd2 1_555 1_555
H16 O15 1_555 1_555
H17 O15 1_555 1_555
C34 O9 1_555 1_555
H24 C34 1_555 1_555
H25 C34 1_555 1_555
H26 C34 1_555 1_555
C35 H27 1_555 1_555
H28 C35 1_555 1_555
N1 C35 1_555 1_555
C36 O14 1_555 1_555
C37 C36 1_555 1_555
H29 C37 1_555 1_555
H30 C37 1_555 1_555
C38 C35 1_555 1_555
H31 C38 1_555 1_555
H32 C38 1_555 1_555
C39 N1 1_555 1_555
H33 C39 1_555 1_555
H34 C39 1_555 1_555
H35 C39 1_555 1_555
O33 Cd1 1_555 1_555
O35 Cd1 1_555 1_555
O37 Cd1 1_555 1_555
O39 Cd1 1_555 1_555
Cd2 O33 1_555 1_555
Cd2 O37 1_555 1_555
C16 C22 1_555 1_555
C24 C27 1_555 1_555
O11 C31 1_555 1_555
N1 C36 1_555 1_555
C37 C38 1_555 1_555
C26 H9 1_555 1_555
O10 C30 1_555 1_555
C32 O7 1_555 1_555
H18 C32 1_555 1_555
H19 C32 1_555 1_555
H20 C32 1_555 1_555
C33 O10 1_555 1_555
H21 C33 1_555 1_555
H22 C33 1_555 1_555
H23 C33 1_555 1_555
C40 O18 1_555 1_555
O18 Cd8 1_555 1_555
C43 C40 1_555 1_555
O19 C40 1_555 1_555
C44 C42 1_555 1_555
C45 C43 1_555 1_555
H37 C45 1_555 1_555
C46 C42 1_555 1_555
C47 C43 1_555 1_555
H38 C47 1_555 1_555
C48 C46 1_555 1_555
O22 C59 1_555 1_555
C59 C60 1_555 1_555
O23 C59 1_555 1_555
H50 C66 1_555 1_555
C69 C30 1_555 1_555
H51 C69 1_555 1_555
Cd8 O19 1_555 1_555
Cd11 O19 1_555 1_555
C26 C54 1_555 1_555
C44 C47 1_555 1_555
C45 C46 1_555 1_555
C48 C54 1_555 1_555
O22 Cd8 1_555 1_555
O22 Cd11 1_555 1_555
C60 C66 1_555 1_555
C64 C69 1_555 1_555
O23 Cd8 1_555 1_555
O3 C7 1_555 1_555
C7 C11 1_555 1_555
O8 C7 1_555 1_555
H7 C19 1_555 1_555
C25 C17 1_555 1_555
H8 C25 1_555 1_555
C70 C25 1_555 1_555
O25 C70 1_555 1_555
C72 O25 1_555 1_555
H52 C72 1_555 1_555
H53 C72 1_555 1_555
H54 C72 1_555 1_555
Cd6 O3 1_555 1_555
Cd10 O3 1_555 1_555
C11 C19 1_555 1_555
O8 Cd6 1_555 1_555
C57 C58 1_555 1_555
C58 H47 1_555 1_555
C61 C57 1_555 1_555
C63 H48 1_555 1_555
C65 C62 1_555 1_555
H49 C65 1_555 1_555
C67 C58 1_555 1_555
C68 C65 1_555 1_555
O24 C68 1_555 1_555
O26 C71 1_555 1_555
O27 C71 1_555 1_555
C71 C67 1_555 1_555
C73 O24 1_555 1_555
H55 C73 1_555 1_555
H56 C73 1_555 1_555
H57 C73 1_555 1_555
Cd7 O26 1_555 1_555
Cd4 O27 1_555 1_555
O28 Cd4 1_555 1_555
H58 O28 1_555 1_555
H59 O28 1_555 1_555
O29 Cd4 1_555 1_555
O30 Cd4 1_555 1_555
H60 O30 1_555 1_555
H61 O30 1_555 1_555
C74 H62 1_555 1_555
H63 C74 1_555 1_555
N2 C74 1_555 1_555
C75 O29 1_555 1_555
C76 C75 1_555 1_555
H64 C76 1_555 1_555
H65 C76 1_555 1_555
C77 C74 1_555 1_555
H66 C77 1_555 1_555
H67 C77 1_555 1_555
C78 N2 1_555 1_555
H68 C78 1_555 1_555
H69 C78 1_555 1_555
H70 C78 1_555 1_555
O34 Cd7 1_555 1_555
O36 Cd7 1_555 1_555
O38 Cd7 1_555 1_555
O40 Cd7 1_555 1_555
C61 C62 1_555 1_555
C63 C67 1_555 1_555
Cd4 O34 1_555 1_555
Cd4 O38 1_555 1_555
N2 C75 1_555 1_555
C76 C77 1_555 1_555
O33 C7_2 1_555 1_555
C7_2 C11_2 1_555 1_555
O39 C7_2 1_555 1_555
H7_2 C19_2 1_555 1_555
C58_2 H47_2 1_555 1_555
C63_2 H48_2 1_555 1_555
C67_2 C58_2 1_555 1_555
O26_2 C71_2 1_555 1_555
O27_2 C71_2 1_555 1_555
C71_2 C67_2 1_555 1_555
Cd8 O26_2 1_555 1_555
Cd11 O27_2 1_555 1_555
O28_2 Cd11 1_555 1_555
H58_2 O28_2 1_555 1_555
H59_2 O28_2 1_555 1_555
O29_2 Cd11 1_555 1_555
O30_2 Cd11 1_555 1_555
C75_2 O29_2 1_555 1_555
C78_2 N2_2 1_555 1_555
H68_2 C78_2 1_555 1_555
H69_2 C78_2 1_555 1_555
H70_2 C78_2 1_555 1_555
O31 Cd8 1_555 1_555
O32 Cd8 1_555 1_555
C11_2 C19_2 1_555 1_555
C63_2 C67_2 1_555 1_555
N2_2 C75_2 1_555 1_555
Cd6 O1_2 1_555 1_555
Cd10 O12_2 1_555 1_555
C1_2 O35 1_555 1_555
O1_2 C2_2 1_555 1_555
O2_2 Cd6 1_555 1_555
C2_2 O2_2 1_555 1_555
C4_2 H1_2 1_555 1_555
C5_2 H2_2 1_555 1_555
C6_2 C1_2 1_555 1_555
O37 C1_2 1_555 1_555
C8_2 C2_2 1_555 1_555
O6_2 C20_2 1_555 1_555
C9_2 C6_2 1_555 1_555
H3_2 C9_2 1_555 1_555
C10_2 C4_2 1_555 1_555
C12_2 C6_2 1_555 1_555
H4_2 C12_2 1_555 1_555
C14_2 C10_2 1_555 1_555
O7_2 C21_2 1_555 1_555
C16_2 H5_2 1_555 1_555
C20_2 C21_2 1_555 1_555
C21_2 C26_2 1_555 1_555
C22_2 C5_2 1_555 1_555
C24_2 C14_2 1_555 1_555
C26_2 H9_2 1_555 1_555
C27_2 C20_2 1_555 1_555
H10_2 C27_2 1_555 1_555
C28_2 C14_2 1_555 1_555
C29_2 O6_2 1_555 1_555
H11_2 C29_2 1_555 1_555
H12_2 C29_2 1_555 1_555
H13_2 C29_2 1_555 1_555
O11_2 Cd6 1_555 1_555
O12_2 C31_2 1_555 1_555
O13_2 Cd10 1_555 1_555
H14_2 O13_2 1_555 1_555
H15_2 O13_2 1_555 1_555
C31_2 C22_2 1_555 1_555
O14_2 Cd10 1_555 1_555
O15_2 Cd10 1_555 1_555
C32_2 O7_2 1_555 1_555
H18_2 C32_2 1_555 1_555
H19_2 C32_2 1_555 1_555
H20_2 C32_2 1_555 1_555
C36_2 O14_2 1_555 1_555
C39_2 N1_2 1_555 1_555
H33_2 C39_2 1_555 1_555
H34_2 C39_2 1_555 1_555
H35_2 C39_2 1_555 1_555
C40_2 O36 1_555 1_555
O31 C41_2 1_555 1_555
O32 C41_2 1_555 1_555
C41_2 C44_2 1_555 1_555
C42_2 H36_2 1_555 1_555
C43_2 C40_2 1_555 1_555
O38 C40_2 1_555 1_555
C44_2 C42_2 1_555 1_555
O20_2 C49_2 1_555 1_555
C45_2 C43_2 1_555 1_555
H37_2 C45_2 1_555 1_555
C46_2 C42_2 1_555 1_555
C47_2 C43_2 1_555 1_555
H38_2 C47_2 1_555 1_555
C48_2 C46_2 1_555 1_555
O21_2 C50_2 1_555 1_555
C49_2 C50_2 1_555 1_555
C50_2 C52_2 1_555 1_555
C51_2 C28_2 1_555 1_555
C52_2 C28_2 1_555 1_555
H39_2 C52_2 1_555 1_555
C53_2 C49_2 1_555 1_555
H40_2 C53_2 1_555 1_555
C54_2 C24_2 1_555 1_555
C55_2 O20_2 1_555 1_555
H41_2 C55_2 1_555 1_555
H42_2 C55_2 1_555 1_555
H43_2 C55_2 1_555 1_555
C56_2 O21_2 1_555 1_555
H44_2 C56_2 1_555 1_555
H45_2 C56_2 1_555 1_555
H46_2 C56_2 1_555 1_555
O34 C59_2 1_555 1_555
C59_2 C60_2 1_555 1_555
O40 C59_2 1_555 1_555
H50_2 C66_2 1_555 1_555
C4_2 C8_2 1_555 1_555
C8_2 C12_2 1_555 1_555
C9_2 C10_2 1_555 1_555
C16_2 C22_2 1_555 1_555
C24_2 C27_2 1_555 1_555
C26_2 C54_2 1_555 1_555
O11_2 C31_2 1_555 1_555
N1_2 C36_2 1_555 1_555
C44_2 C47_2 1_555 1_555
C45_2 C46_2 1_555 1_555
C48_2 C51_2 1_555 1_555
C48_2 C54_2 1_555 1_555
C51_2 C53_2 1_555 1_555
C60_2 C66_2 1_555 1_555
C25_2 C17_2 1_555 1_555
H8_2 C25_2 1_555 1_555
C61_2 C57_2 1_555 1_555
C62_2 C17_2 1_555 1_555
C65_2 C62_2 1_555 1_555
H49_2 C65_2 1_555 1_555
C68_2 C65_2 1_555 1_555
O24_2 C68_2 1_555 1_555
C70_2 C25_2 1_555 1_555
O25_2 C70_2 1_555 1_555
C72_2 O25_2 1_555 1_555
H52_2 C72_2 1_555 1_555
H53_2 C72_2 1_555 1_555
H54_2 C72_2 1_555 1_555
C73_2 O24_2 1_555 1_555
H55_2 C73_2 1_555 1_555
H56_2 C73_2 1_555 1_555
H57_2 C73_2 1_555 1_555
C61_2 C62_2 1_555 1_555
C68_2 C70_2 1_555 1_555
C74_2 H62_2 1_555 1_555
H63_2 C74_2 1_555 1_555
H64_2 C76_2 1_555 1_555
H65_2 C76_2 1_555 1_555
C77_2 C74_2 1_555 1_555
H66_2 C77_2 1_555 1_555
H67_2 C77_2 1_555 1_555
C76_2 C77_2 1_555 1_555
C35_2 H27_2 1_555 1_555
H28_2 C35_2 1_555 1_555
H29_2 C37_2 1_555 1_555
H30_2 C37_2 1_555 1_555
C38_2 C35_2 1_555 1_555
H31_2 C38_2 1_555 1_555
H32_2 C38_2 1_555 1_555
C37_2 C38_2 1_555 1_555
C13_2 C3_2 1_555 1_555
C15_2 C13_2 1_555 1_555
C18_2 C15_2 1_555 1_555
H6_2 C18_2 1_555 1_555
C23_2 C18_2 1_555 1_555
O9_2 C23_2 1_555 1_555
C30_2 C23_2 1_555 1_555
O10_2 C30_2 1_555 1_555
C33_2 O10_2 1_555 1_555
H21_2 C33_2 1_555 1_555
H22_2 C33_2 1_555 1_555
H23_2 C33_2 1_555 1_555
C34_2 O9_2 1_555 1_555
H24_2 C34_2 1_555 1_555
H25_2 C34_2 1_555 1_555
H26_2 C34_2 1_555 1_555
C64_2 C15_2 1_555 1_555
C69_2 C30_2 1_555 1_555
H51_2 C69_2 1_555 1_555
C64_2 C69_2 1_555 1_555

#END
