
###############################################################################
#
# This file contains modified crystal structure data generated from the
# MOF subset of the Cambridge Structural Database (CSD) v543 
# hosted by the Cambridge Crystallographic Data Centre (CCDC).
#
# This work is licensed under the Creative Commons
# Attribution-NonCommercial-ShareAlike 4.0 International License.
# To view a copy of this license, visit
# http://creativecommons.org/licenses/by-nc-sa/4.0/
# or send a letter to
# Creative Commons, PO Box 1866, Mountain View, CA 94042, USA.
#
# CIF created using the CSD Python API on 29 September 2022
# The structure has been converted into the P1 space group
# The structure has a 3D framework
# The original CSD entry LITDAV is in the monoclinic crystal system
# The framework has been calculated to contain at least 10.0% void space
# The void calculation uses a probe of radius 1.32A, grid spacing 0.4
#
###############################################################################

data_LITDAV
_chemical_formula_moiety         '(C136 H104 O56 Zn8)n'
_symmetry_cell_setting           triclinic
_symmetry_space_group_name_H-M   'P 1'
_symmetry_Int_Tables_number      1
_space_group_name_Hall           'P 1'
loop_
_symmetry_equiv_pos_site_id
_symmetry_equiv_pos_as_xyz
1 x,y,z
_cell_length_a                   10.107(4)
_cell_length_b                   18.338(7)
_cell_length_c                   27.084(11)
_cell_angle_alpha                90
_cell_angle_beta                 99.285(8)
_cell_angle_gamma                90
_cell_volume                     4954.04
loop_
_atom_site_label
_atom_site_type_symbol
_atom_site_fract_x
_atom_site_fract_y
_atom_site_fract_z
H12 H 0.0589 0.4122 0.4237
H48 H 0.0156 0.3350 0.6339
O15 O 0.3532(2) 0.17042(15) 0.66067(10)
C35 C 0.1132(3) 0.11823(19) 0.61127(13)
H27 H 0.1912 0.1067 0.5989
C36 C 0.1214(3) 0.16262(18) 0.65298(12)
O16 O 0.2540(3) 0.22723(16) 0.71644(10)
C37 C 0.0054(3) 0.18081(18) 0.67060(13)
H28 H 0.0093 0.2110 0.6984
C38 C 0.2525(3) 0.1896(2) 0.67893(13)
Zn8 Zn 0.53573(4) 0.19607(2) 0.692424(14)
Zn12 Zn 0.36333(4) 0.26987(2) 0.780822(15)
Zn1 Zn 0.46427(4) 0.80393(2) 0.307576(14)
Zn2 Zn 0.63667(4) 0.73013(2) 0.219178(15)
O2 O 0.4835(3) 0.69871(14) 0.31377(11)
O3 O 0.5664(3) 0.64691(13) 0.25119(9)
C4 C 0.5099(4) 0.44396(18) 0.31553(13)
C6 C 0.5016(4) 0.50493(18) 0.44826(13)
C7 C 0.5257(4) 0.64519(19) 0.29228(14)
C8 C 0.0740(3) 0.9347(2) 0.50403(13)
C9 C 0.0086(3) 0.9572(2) 0.45756(13)
O5 O 0.2928(3) 0.78713(16) 0.56520(11)
C10 C 0.1163(3) 0.8455(2) 0.35284(13)
C11 C 0.0646(3) 0.9773(2) 0.54769(13)
C12 C 0.5007(4) 0.44277(19) 0.36595(13)
H3 H 0.4905 0.3985 0.3816
C13 C 0.0076(3) 0.9095(2) 0.41251(13)
C14 C 0.5065(4) 0.50727(19) 0.39349(13)
C15 C 0.5223(3) 0.57361(18) 0.31818(12)
C16 C 0.5130(4) 0.57191(18) 0.36805(13)
H4 H 0.5111 0.6157 0.3853
C17 C 0.1234(3) 0.8909(2) 0.39433(13)
H5 H 0.2059 0.9088 0.4098
C18 C 0.6131(4) 0.47673(18) 0.48071(13)
C19 C 0.5247(3) 0.50925(18) 0.29211(12)
H6 H 0.5362 0.5100 0.2587
C20 C 0.3899(4) 0.52919(19) 0.46752(13)
C21 C 0.1505(4) 0.8685(2) 0.51082(14)
H7 H 0.1556 0.8392 0.4832
C22 C 0.7336(4) 0.4562(2) 0.46289(15)
H8 H 0.7388 0.4623 0.4292
O6 O 0.0599(3) 0.6157(2) 0.42883(12)
C23 C 0.2012(4) 0.8887(2) 0.59945(15)
C24 C 0.2756(4) 0.5603(2) 0.43582(15)
H9 H 0.2770 0.5656 0.4018
C25 C 0.1292(4) 0.9507(2) 0.59530(14)
H10 H 0.1210 0.9769 0.6240
C26 C 0.2150(4) 0.8476(2) 0.55590(16)
O7 O 0.9568(3) 0.4083(2) 0.48040(12)
C27 C 0.9688(6) 0.4221(4) 0.4287(2)
H11 H 0.9078 0.3912 0.4073
H13 H 0.9476 0.4722 0.4208
C28 C 0.8387(5) 0.4288(2) 0.49328(16)
C29 C 0.3079(6) 0.7435(3) 0.5228(2)
H14 H 0.3380 0.7735 0.4978
H15 H 0.2232 0.7218 0.5093
H16 H 0.3725 0.7057 0.5328
C30 C 0.1679(5) 0.5817(2) 0.45464(16)
O8 O 0.3533(2) 0.84565(16) 0.35613(10)
O9 O 0.2355(2) 0.78669(16) 0.29485(10)
O10 O 0.5468(3) 0.69222(16) 0.14686(10)
H17 H 0.4593 0.6884 0.1450
H18 H 0.5776 0.6489 0.1401
O11 O 0.5518(3) 0.37242(14) 0.24843(11)
C31 C 0.2417(3) 0.8241(2) 0.33300(14)
O12 O 0.4423(4) 0.32323(15) 0.30357(11)
O13 O 0.8059(3) 0.7007(2) 0.19800(13)
H19 H 0.8200 0.6483 0.1813
H20 H 0.8920 0.6974 0.2251
C32 C 0.0654(7) 0.6394(4) 0.3790(2)
H21 H 0.0747 0.5978 0.3583
H22 H 0.1408 0.6713 0.3792
C33 C 0.5005(4) 0.3738(2) 0.28674(13)
O14 O 0.2663(3) 0.86003(18) 0.64279(11)
C34 C 0.2452(6) 0.8953(4) 0.68812(18)
H24 H 0.1508 0.9005 0.6882
H25 H 0.2865 0.9426 0.6901
H26 H 0.2843 0.8665 0.7163
O21 O 0.5165(3) 0.30129(14) 0.68623(11)
O22 O 0.4336(3) 0.35309(13) 0.74881(9)
C52 C 0.4901(4) 0.55604(18) 0.68447(13)
C53 C 0.4984(4) 0.49507(18) 0.55174(13)
C54 C 0.4743(4) 0.35481(19) 0.70772(14)
C55 C 0.4993(4) 0.55723(19) 0.63405(13)
H38 H 0.5095 0.6015 0.6184
C56 C 0.4935(4) 0.49273(19) 0.60651(13)
C57 C 0.4777(3) 0.42639(18) 0.68182(12)
C58 C 0.4870(4) 0.42809(18) 0.63195(13)
H39 H 0.4889 0.3843 0.6147
C59 C 0.3869(4) 0.52327(18) 0.51929(13)
C60 C 0.4753(3) 0.49075(18) 0.70789(12)
H40 H 0.4638 0.4900 0.7413
C61 C 0.6101(4) 0.47081(19) 0.53248(13)
C62 C 0.2664(4) 0.5438(2) 0.53711(15)
H41 H 0.2612 0.5377 0.5708
O23 O 0.9401(3) 0.3843(2) 0.57117(12)
C63 C 0.7244(4) 0.4397(2) 0.56418(15)
H42 H 0.7230 0.4344 0.5982
O24 O 0.0432(3) 0.5917(2) 0.51960(12)
C64 C 0.0312(6) 0.5779(4) 0.5713(2)
H43 H 0.0922 0.6088 0.5927
H45 H 0.0524 0.5278 0.5792
C65 C 0.1613(5) 0.5712(2) 0.50672(16)
C66 C 0.8321(5) 0.4183(2) 0.54536(16)
O25 O 0.4482(3) 0.62758(14) 0.75157(11)
O26 O 0.5577(4) 0.67677(15) 0.69643(11)
C67 C 0.9346(7) 0.3606(4) 0.6210(2)
H46 H 0.9253 0.4022 0.6417
H47 H 0.8592 0.3287 0.6208
C68 C 0.4995(4) 0.6262(2) 0.71326(13)
Zn6 Zn 0.53573(4) 0.30393(2) 0.192424(14)
Zn9 Zn 0.46427(4) 0.69607(2) 0.807576(14)
Zn10 Zn 0.36333(4) 0.23013(2) 0.280822(15)
Zn13 Zn 0.63667(4) 0.76987(2) 0.719178(15)
O29 O 0.6468(2) 0.82958(15) 0.33933(10)
O33 O 0.7460(3) 0.77277(16) 0.28356(10)
O34 O 0.4482(3) 0.87242(14) 0.25157(11)
O37 O 0.5577(4) 0.82323(15) 0.19643(11)
C39 C 0.9260(3) 0.0653(2) 0.49597(13)
C40 C 0.9914(3) 0.0428(2) 0.54244(13)
O17 O 0.7072(3) 0.21287(16) 0.43480(11)
C41 C 0.8837(3) 0.1545(2) 0.64716(13)
C42 C 0.9354(3) 0.0227(2) 0.45231(13)
C43 C 0.9924(3) 0.0905(2) 0.58749(13)
C44 C 0.8766(3) 0.1091(2) 0.60567(13)
H29 H 0.7941 0.0912 0.5902
C45 C 0.8495(4) 0.1315(2) 0.48918(14)
H30 H 0.8444 0.1608 0.5168
C46 C 0.7988(4) 0.1113(2) 0.40055(15)
C47 C 0.8708(4) 0.0493(2) 0.40470(14)
H31 H 0.8790 0.0231 0.3760
C48 C 0.7850(4) 0.1524(2) 0.44410(16)
C49 C 0.6921(6) 0.2565(3) 0.4772(2)
H32 H 0.6620 0.2265 0.5022
H33 H 0.7768 0.2782 0.4907
H34 H 0.6275 0.2943 0.4672
O18 O 0.6467(2) 0.15435(16) 0.64387(10)
O19 O 0.7645(2) 0.21331(16) 0.70515(10)
C50 C 0.7583(3) 0.1759(2) 0.66700(14)
O20 O 0.7337(3) 0.13997(18) 0.35721(11)
C51 C 0.7548(6) 0.1047(4) 0.31188(18)
H35 H 0.8492 0.0995 0.3118
H36 H 0.7135 0.0574 0.3099
H37 H 0.7157 0.1335 0.2837
O35 O 0.5518(3) 0.12758(14) 0.74843(11)
C1 C 0.8868(3) 0.88177(19) 0.38873(13)
H1 H 0.8088 0.8933 0.4011
C2 C 0.8786(3) 0.83738(18) 0.34702(12)
C3 C 0.9946(3) 0.81919(18) 0.32940(13)
H2 H 0.9907 0.7890 0.3016
C5 C 0.7475(3) 0.8104(2) 0.32107(13)
H23 H 0.9844 0.6650 0.3661
H44 H 0.9411 0.5878 0.5763
O1 O 0.3532(2) 0.32958(15) 0.16067(10)
C1_2 C 0.1132(3) 0.38177(19) 0.11127(13)
H1_2 H 0.1912 0.3933 0.0989
C2_2 C 0.1214(3) 0.33738(18) 0.15298(12)
O4 O 0.2540(3) 0.27277(16) 0.21644(10)
C3_2 C 0.0054(3) 0.31919(18) 0.17060(13)
H2_2 H 0.0093 0.2890 0.1984
C5_2 C 0.2525(3) 0.3104(2) 0.17893(13)
H23_2 H 0.0156 0.1650 0.1339
C39_2 C 0.0740(3) 0.5653(2) 0.00403(13)
O17_2 O 0.2928(3) 0.71287(16) 0.06520(11)
C42_2 C 0.0646(3) 0.5227(2) 0.04769(13)
C45_2 C 0.1505(4) 0.6315(2) 0.01082(14)
C46_2 C 0.2012(4) 0.6113(2) 0.09945(15)
C47_2 C 0.1292(4) 0.5493(2) 0.09530(14)
H31_2 H 0.1210 0.5231 0.1240
C48_2 C 0.2150(4) 0.6524(2) 0.05590(16)
C49_2 C 0.3079(6) 0.7565(3) 0.0228(2)
H33_2 H 0.2232 0.7782 0.0093
H34_2 H 0.3725 0.7943 0.0328
O20_2 O 0.2663(3) 0.63997(18) 0.14279(11)
C51_2 C 0.2452(6) 0.6047(4) 0.18812(18)
H35_2 H 0.1508 0.5995 0.1882
H36_2 H 0.2865 0.5574 0.1901
H37_2 H 0.2843 0.6335 0.2163
O27 O 0.4532(3) 0.19222(16) 0.35314(10)
H49 H 0.5407 0.1884 0.3550
H50 H 0.4224 0.1489 0.3599
O28 O 0.1941(3) 0.2007(2) 0.30200(13)
H51 H 0.1800 0.1483 0.3187
H52 H 0.1080 0.1974 0.2749
O32 O 0.4336(3) 0.14691(13) 0.24881(9)
C40_2 C 0.0086(3) 0.5428(2) 0.95756(13)
C41_2 C 0.1163(3) 0.6545(2) 0.85284(13)
C43_2 C 0.0076(3) 0.5905(2) 0.91251(13)
C44_2 C 0.1234(3) 0.6091(2) 0.89433(13)
H29_2 H 0.2059 0.5912 0.9098
H30_2 H 0.1556 0.6608 0.9832
H32_2 H 0.3380 0.7265 0.9978
O18_2 O 0.3533(2) 0.65435(16) 0.85613(10)
O19_2 O 0.2355(2) 0.71331(16) 0.79485(10)
C50_2 C 0.2417(3) 0.6759(2) 0.83300(14)
H44_2 H 0.0589 0.0878 0.9237
O30 O 0.6468(2) 0.67042(15) 0.83933(10)
O31 O 0.4835(3) 0.80129(14) 0.81377(11)
O2_2 O 0.5165(3) 0.19871(14) 0.18623(11)
C6_2 C 0.4984(4) 0.00493(18) 0.05174(13)
C7_2 C 0.4743(4) 0.14519(19) 0.20772(14)
C9_2 C 0.9914(3) 0.4572(2) 0.04244(13)
C10_2 C 0.8837(3) 0.3455(2) 0.14716(13)
C13_2 C 0.9924(3) 0.4095(2) 0.08749(13)
C14_2 C 0.4935(4) 0.00727(19) 0.10651(13)
C15_2 C 0.4777(3) 0.07361(18) 0.18182(12)
C16_2 C 0.4870(4) 0.07191(18) 0.13195(13)
H4_2 H 0.4889 0.1157 0.1147
C17_2 C 0.8766(3) 0.3909(2) 0.10567(13)
H5_2 H 0.7941 0.4088 0.0902
C19_2 C 0.4753(3) 0.00925(18) 0.20789(12)
H6_2 H 0.4638 0.0100 0.2413
C20_2 C 0.6101(4) 0.02919(19) 0.03248(13)
H7_2 H 0.8444 0.3392 0.0168
O6_2 O 0.9401(3) 0.1157(2) 0.07117(12)
C24_2 C 0.7244(4) 0.0603(2) 0.06418(15)
H9_2 H 0.7230 0.0656 0.0982
H14_2 H 0.6620 0.2735 0.0022
C30_2 C 0.8321(5) 0.0817(2) 0.04536(16)
O8_2 O 0.6467(2) 0.34565(16) 0.14387(10)
O9_2 O 0.7645(2) 0.28669(16) 0.20515(10)
C31_2 C 0.7583(3) 0.3241(2) 0.16700(14)
C32_2 C 0.9346(7) 0.1394(4) 0.1210(2)
H21_2 H 0.9253 0.0978 0.1417
H22_2 H 0.8592 0.1713 0.1208
C8_2 C 0.9260(3) 0.4347(2) 0.99597(13)
O5_2 O 0.7072(3) 0.28713(16) 0.93480(11)
C11_2 C 0.9354(3) 0.4773(2) 0.95231(13)
C21_2 C 0.8495(4) 0.3685(2) 0.98918(14)
C23_2 C 0.7988(4) 0.3887(2) 0.90055(15)
C25_2 C 0.8708(4) 0.4507(2) 0.90470(14)
H10_2 H 0.8790 0.4769 0.8760
C26_2 C 0.7850(4) 0.3476(2) 0.94410(16)
C29_2 C 0.6921(6) 0.2435(3) 0.9772(2)
H15_2 H 0.7768 0.2218 0.9907
H16_2 H 0.6275 0.2057 0.9672
O14_2 O 0.7337(3) 0.36003(18) 0.85721(11)
C34_2 C 0.7548(6) 0.3953(4) 0.81188(18)
H24_2 H 0.8492 0.4005 0.8118
H25_2 H 0.7135 0.4426 0.8099
H26_2 H 0.7157 0.3665 0.7837
C35_2 C 0.8868(3) 0.61823(19) 0.88873(13)
H27_2 H 0.8088 0.6067 0.9011
C36_2 C 0.8786(3) 0.66262(18) 0.84702(12)
O16_2 O 0.7460(3) 0.72723(16) 0.78356(10)
C37_2 C 0.9946(3) 0.68081(18) 0.82940(13)
H28_2 H 0.9907 0.7110 0.8016
C38_2 C 0.7475(3) 0.6896(2) 0.82107(13)
C52_2 C 0.5099(4) 0.05604(18) 0.81553(13)
C55_2 C 0.5007(4) 0.05723(19) 0.86595(13)
H38_2 H 0.4905 0.1015 0.8816
C59_2 C 0.6131(4) 0.02327(18) 0.98071(13)
C62_2 C 0.7336(4) 0.0438(2) 0.96289(15)
H41_2 H 0.7388 0.0377 0.9292
O24_2 O 0.9568(3) 0.0917(2) 0.98040(12)
C64_2 C 0.9688(6) 0.0779(4) 0.9287(2)
H43_2 H 0.9078 0.1088 0.9073
H45_2 H 0.9476 0.0278 0.9208
C65_2 C 0.8387(5) 0.0712(2) 0.99328(16)
O26_2 O 0.4423(4) 0.17677(15) 0.80357(11)
C68_2 C 0.5005(4) 0.1262(2) 0.78674(13)
C4_2 C 0.4901(4) 0.94396(18) 0.18447(13)
C12_2 C 0.4993(4) 0.94277(19) 0.13405(13)
H3_2 H 0.5095 0.8985 0.1184
C18_2 C 0.3869(4) 0.97673(18) 0.01929(13)
C22_2 C 0.2664(4) 0.9562(2) 0.03711(15)
H8_2 H 0.2612 0.9623 0.0708
O7_2 O 0.0432(3) 0.9083(2) 0.01960(12)
C27_2 C 0.0312(6) 0.9221(4) 0.0713(2)
H11_2 H 0.0922 0.8912 0.0927
H13_2 H 0.0524 0.9722 0.0792
C28_2 C 0.1613(5) 0.9288(2) 0.00672(16)
C33_2 C 0.4995(4) 0.8738(2) 0.21326(13)
O22_2 O 0.5664(3) 0.85309(13) 0.75119(9)
C53_2 C 0.5016(4) 0.99507(18) 0.94826(13)
C54_2 C 0.5257(4) 0.85481(19) 0.79228(14)
C56_2 C 0.5065(4) 0.99273(19) 0.89349(13)
C57_2 C 0.5223(3) 0.92639(18) 0.81818(12)
C58_2 C 0.5130(4) 0.92809(18) 0.86805(13)
H39_2 H 0.5111 0.8843 0.8853
C60_2 C 0.5247(3) 0.99075(18) 0.79211(12)
H40_2 H 0.5362 0.9900 0.7587
C61_2 C 0.3899(4) 0.97081(19) 0.96752(13)
O23_2 O 0.0599(3) 0.8843(2) 0.92883(12)
C63_2 C 0.2756(4) 0.9397(2) 0.93582(15)
H42_2 H 0.2770 0.9344 0.9018
C66_2 C 0.1679(5) 0.9183(2) 0.95464(16)
C67_2 C 0.0654(7) 0.8606(4) 0.8790(2)
H46_2 H 0.0747 0.9022 0.8583
H47_2 H 0.1408 0.8287 0.8792
H12_2 H 0.9411 0.9122 0.0763
H48_2 H 0.9844 0.8350 0.8661
O27_2 O 0.4532(3) 0.30778(16) 0.85314(10)
H49_2 H 0.5407 0.3116 0.8550
H50_2 H 0.4224 0.3511 0.8599
O28_2 O 0.1941(3) 0.2993(2) 0.80200(13)
H51_2 H 0.1800 0.3517 0.8187
H52_2 H 0.1080 0.3026 0.7749
O10_2 O 0.5468(3) 0.80778(16) 0.64686(10)
H17_2 H 0.4593 0.8116 0.6450
H18_2 H 0.5776 0.8511 0.6401
O13_2 O 0.8059(3) 0.7993(2) 0.69800(13)
H19_2 H 0.8200 0.8517 0.6813
H20_2 H 0.8920 0.8026 0.7251
loop_
_geom_bond_atom_site_label_1
_geom_bond_atom_site_label_2
_geom_bond_site_symmetry_1
_geom_bond_site_symmetry_2
O15 C38 1_555 1_555
C35 H27 1_555 1_555
C36 C35 1_555 1_555
O16 C38 1_555 1_555
C37 C36 1_555 1_555
H28 C37 1_555 1_555
C38 C36 1_555 1_555
Zn8 O15 1_555 1_555
Zn12 O16 1_555 1_555
Zn1 O2 1_555 1_555
Zn2 O3 1_555 1_555
O2 C7 1_555 1_555
O3 C7 1_555 1_555
C4 C12 1_555 1_555
C6 C14 1_555 1_555
C7 C15 1_555 1_555
C8 C9 1_555 1_555
C9 C13 1_555 1_555
O5 C26 1_555 1_555
C11 C8 1_555 1_555
C12 H3 1_555 1_555
C14 C12 1_555 1_555
C15 C16 1_555 1_555
C16 C14 1_555 1_555
H4 C16 1_555 1_555
C17 C10 1_555 1_555
H5 C17 1_555 1_555
C18 C6 1_555 1_555
C19 C4 1_555 1_555
H6 C19 1_555 1_555
C20 C6 1_555 1_555
C21 C8 1_555 1_555
H7 C21 1_555 1_555
C22 C18 1_555 1_555
H8 C22 1_555 1_555
O6 C30 1_555 1_555
C23 C25 1_555 1_555
C24 C20 1_555 1_555
H9 C24 1_555 1_555
C25 C11 1_555 1_555
H10 C25 1_555 1_555
C26 C21 1_555 1_555
O7 C27 1_555 1_555
C27 H11 1_555 1_555
H13 C27 1_555 1_555
C28 C22 1_555 1_555
C29 O5 1_555 1_555
H14 C29 1_555 1_555
H15 C29 1_555 1_555
H16 C29 1_555 1_555
C30 C24 1_555 1_555
O8 Zn1 1_555 1_555
O9 Zn1 1_555 1_555
O10 Zn2 1_555 1_555
H17 O10 1_555 1_555
H18 O10 1_555 1_555
O11 C33 1_555 1_555
C31 C10 1_555 1_555
O12 C33 1_555 1_555
O13 Zn2 1_555 1_555
H19 O13 1_555 1_555
H20 O13 1_555 1_555
C32 O6 1_555 1_555
H21 C32 1_555 1_555
H22 C32 1_555 1_555
C33 C4 1_555 1_555
O14 C23 1_555 1_555
C34 O14 1_555 1_555
H24 C34 1_555 1_555
H25 C34 1_555 1_555
H26 C34 1_555 1_555
O21 C54 1_555 1_555
O22 C54 1_555 1_555
C52 C55 1_555 1_555
C53 C56 1_555 1_555
C54 C57 1_555 1_555
C55 H38 1_555 1_555
C56 C55 1_555 1_555
C57 C58 1_555 1_555
C58 C56 1_555 1_555
H39 C58 1_555 1_555
C59 C20 1_555 1_555
C60 C52 1_555 1_555
H40 C60 1_555 1_555
C61 C18 1_555 1_555
C62 C59 1_555 1_555
H41 C62 1_555 1_555
O23 C66 1_555 1_555
C63 C61 1_555 1_555
H42 C63 1_555 1_555
O24 C64 1_555 1_555
C64 H43 1_555 1_555
H45 C64 1_555 1_555
C65 C30 1_555 1_555
C66 C28 1_555 1_555
O25 C68 1_555 1_555
O26 C68 1_555 1_555
C67 O23 1_555 1_555
H46 C67 1_555 1_555
H47 C67 1_555 1_555
C68 C52 1_555 1_555
Zn6 O11 1_555 1_555
Zn8 O21 1_555 1_555
Zn9 O25 1_555 1_555
Zn10 O12 1_555 1_555
Zn12 O22 1_555 1_555
Zn13 O26 1_555 1_555
O29 Zn1 1_555 1_555
O33 Zn2 1_555 1_555
O34 Zn1 1_555 1_555
O37 Zn2 1_555 1_555
C13 C17 1_555 1_555
C15 C19 1_555 1_555
C23 C26 1_555 1_555
O7 C28 1_555 1_555
O8 C31 1_555 1_555
O9 C31 1_555 1_555
C53 C59 1_555 1_555
C53 C61 1_555 1_555
C57 C60 1_555 1_555
C62 C65 1_555 1_555
C63 C66 1_555 1_555
O24 C65 1_555 1_555
C39 C40 1_555 1_555
O17 C48 1_555 1_555
C44 C41 1_555 1_555
H29 C44 1_555 1_555
C45 C39 1_555 1_555
H30 C45 1_555 1_555
C46 C47 1_555 1_555
C47 C42 1_555 1_555
H31 C47 1_555 1_555
C48 C45 1_555 1_555
C49 O17 1_555 1_555
H32 C49 1_555 1_555
H33 C49 1_555 1_555
H34 C49 1_555 1_555
O18 C50 1_555 1_555
O19 C50 1_555 1_555
C50 C41 1_555 1_555
O20 C46 1_555 1_555
C51 O20 1_555 1_555
H35 C51 1_555 1_555
H36 C51 1_555 1_555
H37 C51 1_555 1_555
Zn8 O18 1_555 1_555
O35 Zn8 1_555 1_555
C39 C42 1_555 1_555
C40 C43 1_555 1_555
C43 C44 1_555 1_555
C46 C48 1_555 1_555
O19 Zn8 1_555 1_555
O29 C5 1_555 1_555
C1 H1 1_555 1_555
C2 C1 1_555 1_555
O33 C5 1_555 1_555
C3 C2 1_555 1_555
H2 C3 1_555 1_555
C5 C2 1_555 1_555
O1 C5_2 1_555 1_555
C1_2 H1_2 1_555 1_555
C2_2 C1_2 1_555 1_555
O4 C5_2 1_555 1_555
C3_2 C2_2 1_555 1_555
H2_2 C3_2 1_555 1_555
C5_2 C2_2 1_555 1_555
O17_2 C48_2 1_555 1_555
C45_2 C39_2 1_555 1_555
C46_2 C47_2 1_555 1_555
C47_2 C42_2 1_555 1_555
H31_2 C47_2 1_555 1_555
C48_2 C45_2 1_555 1_555
C49_2 O17_2 1_555 1_555
H33_2 C49_2 1_555 1_555
H34_2 C49_2 1_555 1_555
O20_2 C46_2 1_555 1_555
C51_2 O20_2 1_555 1_555
H35_2 C51_2 1_555 1_555
H36_2 C51_2 1_555 1_555
H37_2 C51_2 1_555 1_555
Zn10 O4 1_555 1_555
O27 Zn10 1_555 1_555
H49 O27 1_555 1_555
H50 O27 1_555 1_555
O28 Zn10 1_555 1_555
H51 O28 1_555 1_555
H52 O28 1_555 1_555
Zn6 O1 1_555 1_555
O32 Zn10 1_555 1_555
C39_2 C42_2 1_555 1_555
C46_2 C48_2 1_555 1_555
C44_2 C41_2 1_555 1_555
H29_2 C44_2 1_555 1_555
O18_2 C50_2 1_555 1_555
O19_2 C50_2 1_555 1_555
C50_2 C41_2 1_555 1_555
Zn9 O18_2 1_555 1_555
O30 Zn9 1_555 1_555
O31 Zn9 1_555 1_555
C40_2 C43_2 1_555 1_555
C43_2 C44_2 1_555 1_555
O19_2 Zn9 1_555 1_555
Zn6 O2_2 1_555 1_555
O2_2 C7_2 1_555 1_555
O32 C7_2 1_555 1_555
C6_2 C14_2 1_555 1_555
C7_2 C15_2 1_555 1_555
C9_2 C13_2 1_555 1_555
C15_2 C16_2 1_555 1_555
C16_2 C14_2 1_555 1_555
H4_2 C16_2 1_555 1_555
C17_2 C10_2 1_555 1_555
H5_2 C17_2 1_555 1_555
H6_2 C19_2 1_555 1_555
C20_2 C6_2 1_555 1_555
O6_2 C30_2 1_555 1_555
C24_2 C20_2 1_555 1_555
H9_2 C24_2 1_555 1_555
C30_2 C24_2 1_555 1_555
O8_2 Zn6 1_555 1_555
O9_2 Zn6 1_555 1_555
C31_2 C10_2 1_555 1_555
C32_2 O6_2 1_555 1_555
H21_2 C32_2 1_555 1_555
H22_2 C32_2 1_555 1_555
C13_2 C17_2 1_555 1_555
C15_2 C19_2 1_555 1_555
O8_2 C31_2 1_555 1_555
O9_2 C31_2 1_555 1_555
O5_2 C26_2 1_555 1_555
C11_2 C8_2 1_555 1_555
C21_2 C8_2 1_555 1_555
C23_2 C25_2 1_555 1_555
C25_2 C11_2 1_555 1_555
H10_2 C25_2 1_555 1_555
C26_2 C21_2 1_555 1_555
C29_2 O5_2 1_555 1_555
H15_2 C29_2 1_555 1_555
H16_2 C29_2 1_555 1_555
O14_2 C23_2 1_555 1_555
C34_2 O14_2 1_555 1_555
H24_2 C34_2 1_555 1_555
H25_2 C34_2 1_555 1_555
H26_2 C34_2 1_555 1_555
O30 C38_2 1_555 1_555
C35_2 H27_2 1_555 1_555
C36_2 C35_2 1_555 1_555
O16_2 C38_2 1_555 1_555
C37_2 C36_2 1_555 1_555
H28_2 C37_2 1_555 1_555
C38_2 C36_2 1_555 1_555
C52_2 C55_2 1_555 1_555
C55_2 H38_2 1_555 1_555
C62_2 C59_2 1_555 1_555
H41_2 C62_2 1_555 1_555
O24_2 C64_2 1_555 1_555
C64_2 H43_2 1_555 1_555
H45_2 C64_2 1_555 1_555
O35 C68_2 1_555 1_555
O26_2 C68_2 1_555 1_555
C68_2 C52_2 1_555 1_555
Zn13 O16_2 1_555 1_555
Zn12 O26_2 1_555 1_555
C23_2 C26_2 1_555 1_555
C62_2 C65_2 1_555 1_555
O24_2 C65_2 1_555 1_555
C4_2 C12_2 1_555 1_555
C12_2 H3_2 1_555 1_555
C22_2 C18_2 1_555 1_555
H8_2 C22_2 1_555 1_555
O7_2 C27_2 1_555 1_555
C27_2 H11_2 1_555 1_555
H13_2 C27_2 1_555 1_555
C28_2 C22_2 1_555 1_555
O34 C33_2 1_555 1_555
O37 C33_2 1_555 1_555
C33_2 C4_2 1_555 1_555
O7_2 C28_2 1_555 1_555
O31 C54_2 1_555 1_555
O22_2 C54_2 1_555 1_555
C53_2 C56_2 1_555 1_555
C54_2 C57_2 1_555 1_555
C57_2 C58_2 1_555 1_555
C58_2 C56_2 1_555 1_555
H39_2 C58_2 1_555 1_555
H40_2 C60_2 1_555 1_555
O23_2 C66_2 1_555 1_555
C63_2 C61_2 1_555 1_555
H42_2 C63_2 1_555 1_555
C67_2 O23_2 1_555 1_555
H46_2 C67_2 1_555 1_555
H47_2 C67_2 1_555 1_555
Zn13 O22_2 1_555 1_555
C53_2 C61_2 1_555 1_555
C57_2 C60_2 1_555 1_555
C63_2 C66_2 1_555 1_555
O27_2 Zn12 1_555 1_555
H49_2 O27_2 1_555 1_555
H50_2 O27_2 1_555 1_555
O28_2 Zn12 1_555 1_555
H51_2 O28_2 1_555 1_555
H52_2 O28_2 1_555 1_555
O10_2 Zn13 1_555 1_555
H17_2 O10_2 1_555 1_555
H18_2 O10_2 1_555 1_555
O13_2 Zn13 1_555 1_555
H19_2 O13_2 1_555 1_555
H20_2 O13_2 1_555 1_555

#END
