
###############################################################################
#
# This file contains modified crystal structure data generated from the
# MOF subset of the Cambridge Structural Database (CSD) v543 
# hosted by the Cambridge Crystallographic Data Centre (CCDC).
#
# This work is licensed under the Creative Commons
# Attribution-NonCommercial-ShareAlike 4.0 International License.
# To view a copy of this license, visit
# http://creativecommons.org/licenses/by-nc-sa/4.0/
# or send a letter to
# Creative Commons, PO Box 1866, Mountain View, CA 94042, USA.
#
# CIF created using the CSD Python API on 29 September 2022
# The structure has been converted into the P1 space group
# The structure has a 3D framework
# The original CSD entry LITNUA is in the monoclinic crystal system
# The framework has been calculated to contain at least 10.0% void space
# The void calculation uses a probe of radius 1.32A, grid spacing 0.4
#
###############################################################################

data_LITNUA
_chemical_formula_moiety         '(C360 H204 Cl8 Cu32 N80 O80 S40)n'
_symmetry_cell_setting           triclinic
_symmetry_space_group_name_H-M   'P 1'
_symmetry_Int_Tables_number      1
_space_group_name_Hall           'P 1'
loop_
_symmetry_equiv_pos_site_id
_symmetry_equiv_pos_as_xyz
1 x,y,z
_cell_length_a                   29.328(3)
_cell_length_b                   18.5655(18)
_cell_length_c                   21.383(2)
_cell_angle_alpha                90
_cell_angle_beta                 109.715(2)
_cell_angle_gamma                90
_cell_volume                     10960.3
loop_
_atom_site_label
_atom_site_type_symbol
_atom_site_fract_x
_atom_site_fract_y
_atom_site_fract_z
Cu3 Cu 0.31308(3) 0.16349(5) 0.66410(4)
Cl1 Cl 0.32561(6) 0.03908(10) 0.67989(8)
N5 N 0.29543(16) 0.2043(3) 0.3300(3)
N6 N 0.30786(18) 0.1891(3) 0.5749(2)
O5 O 0.29207(14) 0.1308(3) 0.21620(17)
O6 O 0.28655(15) 0.2328(2) 0.1603(2)
S1 S 0.04799(6) 0.02725(10) 0.62834(8)
S3 S 0.31355(8) 0.33600(10) 0.36063(9)
C19 C 0.3037(2) 0.2489(3) 0.3793(3)
C20 C 0.2974(2) 0.2393(4) 0.2745(3)
C21 C 0.3057(2) 0.3109(4) 0.2820(3)
H11 H 0.306981 0.341908 0.248513
C22 C 0.2908(2) 0.2004(4) 0.2111(3)
C23 C 0.3010(2) 0.1396(4) 0.5262(3)
H12 H 0.297553 0.091468 0.535823
C24 C 0.2990(2) 0.1578(4) 0.4631(3)
H13 H 0.293746 0.122068 0.430937
C25 C 0.3047(2) 0.2280(4) 0.4469(3)
C26 C 0.3127(2) 0.2781(4) 0.4975(3)
H14 H 0.317113 0.326374 0.489455
C27 C 0.3141(2) 0.2565(4) 0.5585(3)
H15 H 0.319960 0.291406 0.591467
Cu5 Cu 0.29275(3) 0.08238(4) 0.13665(3)
N12 N 0.31919(17) 0.1928(3) 0.7538(2)
Cu7 Cu 0.06776(3) 0.72512(5) 0.02576(4)
Cu1 Cu 0.29275(3) 0.91762(4) 0.63665(3)
Cu2 Cu 0.04561(3) 0.81202(4) 0.50556(3)
N1 N 0.04545(18) 0.9210(3) 0.5523(2)
N2 N 0.22394(17) 0.9467(3) 0.6182(2)
N3 N 0.36197(17) 0.8887(3) 0.6424(2)
N4 N 0.42213(19) 0.7971(4) 0.8836(3)
N7 N 0.11272(16) 0.7857(3) 0.5059(2)
N8 N 0.18081(17) 0.6928(3) 0.7462(2)
N9 N 0.05634(16) 0.6833(3) 0.6981(3)
N10 N 0.07143(17) 0.6986(4) 0.9410(2)
O3 O 0.28748(15) 0.9394(2) 0.54469(18)
O4 O 0.33007(18) 0.9591(3) 0.4776(2)
O7 O 0.03778(14) 0.8428(2) 0.41530(18)
O8 O 0.07440(15) 0.8503(2) 0.33930(19)
O9 O 0.05044(14) 0.7606(3) 0.58635(18)
O10 O 0.03397(17) 0.6638(3) 0.5229(2)
S2 S 0.44705(6) 0.85083(11) 0.65169(9)
S4 S 0.19567(6) 0.74386(10) 0.50997(8)
S5 S 0.05234(7) 0.54986(10) 0.71665(11)
C1 C 0.0752(2) 0.9692(3) 0.5903(3)
C5 C 0.1908(2) 0.9392(3) 0.5583(3)
H2 H 0.200514 0.926166 0.522734
C6 C 0.1423(2) 0.9504(3) 0.5477(3)
H3 H 0.119740 0.945595 0.505186
C7 C 0.1275(2) 0.9685(3) 0.5998(3)
C8 C 0.1618(2) 0.9810(3) 0.6603(3)
H4 H 0.153106 0.996720 0.696092
C9 C 0.2094(2) 0.9698(3) 0.6669(3)
H5 H 0.232836 0.978863 0.707942
C10 C 0.4004(2) 0.8581(3) 0.6837(3)
C11 C 0.3680(2) 0.9059(3) 0.5829(3)
C12 C 0.4121(2) 0.8896(3) 0.5801(3)
H6 H 0.421874 0.898420 0.543674
C13 C 0.3267(2) 0.9383(4) 0.5295(3)
C14 C 0.4352(2) 0.7543(4) 0.8431(3)
H7 H 0.449981 0.710749 0.859741
C15 C 0.4281(2) 0.7708(4) 0.7772(3)
H8 H 0.437150 0.738409 0.750221
C16 C 0.4073(2) 0.8364(4) 0.7523(3)
C17 C 0.3946(2) 0.8811(3) 0.7940(3)
H9 H 0.380435 0.925452 0.778844
C18 C 0.4028(2) 0.8609(4) 0.8582(3)
H10 H 0.394483 0.893008 0.885928
C28 C 0.1519(2) 0.7563(3) 0.5460(3)
C29 C 0.1169(2) 0.8001(3) 0.4442(3)
C30 C 0.1592(2) 0.7810(3) 0.4385(3)
H16 H 0.167488 0.787375 0.400485
C31 C 0.0737(2) 0.8335(3) 0.3945(3)
C32 C 0.1851(2) 0.6470(4) 0.7016(3)
H17 H 0.193535 0.599552 0.714358
C33 C 0.1778(2) 0.6661(4) 0.6381(3)
H18 H 0.183821 0.632827 0.609277
C34 C 0.1619(2) 0.7330(4) 0.6153(3)
C35 C 0.1571(2) 0.7805(4) 0.6611(3)
H19 H 0.146996 0.827449 0.648650
C36 C 0.1674(2) 0.7589(4) 0.7262(3)
H20 H 0.164658 0.792408 0.757123
C37 C 0.0590(2) 0.6362(4) 0.7441(3)
C38 C 0.0490(2) 0.6488(4) 0.6378(3)
C39 C 0.0464(2) 0.5777(4) 0.6407(4)
H21 H 0.041816 0.547169 0.604577
C40 C 0.0435(2) 0.6920(5) 0.5766(4)
C41 C 0.0652(2) 0.7463(4) 0.8919(4)
H22 H 0.063379 0.794853 0.901496
C42 C 0.0612(2) 0.7275(4) 0.8284(3)
H23 H 0.055913 0.763023 0.796105
C43 C 0.0649(2) 0.6567(4) 0.8119(3)
C44 C 0.0731(2) 0.6082(4) 0.8631(4)
H24 H 0.077093 0.559798 0.855120
C45 C 0.0755(2) 0.6290(5) 0.9250(4)
H25 H 0.080170 0.594062 0.957720
Cu6 Cu 0.18692(3) 0.66349(5) 0.83590(4)
Cu8 Cu 0.43224(3) 0.77488(5) 0.97424(4)
O11 O 0.29207(14) 0.8692(3) 0.71620(17)
Cu4 Cu 0.93224(3) 0.72512(5) 0.47424(4)
O1 O 0.97575(14) 0.8254(3) 0.48716(19)
O2 O 0.91818(15) 0.8907(2) 0.50943(19)
C2 C 0.9984(2) 0.9312(4) 0.5520(3)
C3 C 0.9938(2) 0.9866(4) 0.5916(3)
H1 H 0.965006 0.999984 0.597507
C4 C 0.9609(2) 0.8786(4) 0.5134(3)
N11 N 0.92213(19) 0.7029(4) 0.3836(3)
N13 N 0.92857(17) 0.6986(4) 0.5590(2)
O1_2 O 0.02425(14) 0.8254(3) 0.01284(19)
N11_2 N 0.07787(19) 0.7029(4) 0.1164(3)
O2_2 O 0.08182(15) 0.8907(2) 0.99057(19)
C2_2 C 0.0016(2) 0.9312(4) 0.9480(3)
C3_2 C 0.0062(2) 0.9866(4) 0.9084(3)
H1_2 H 0.034994 0.999984 0.902493
C4_2 C 0.0391(2) 0.8786(4) 0.9866(3)
N5_2 N 0.70457(16) 0.2043(3) 0.1700(3)
O5_2 O 0.70793(14) 0.1308(3) 0.28380(17)
O6_2 O 0.71345(15) 0.2328(2) 0.3397(2)
S3_2 S 0.68645(8) 0.33600(10) 0.13937(9)
C19_2 C 0.6963(2) 0.2489(3) 0.1207(3)
C20_2 C 0.7026(2) 0.2393(4) 0.2255(3)
C21_2 C 0.6943(2) 0.3109(4) 0.2180(3)
H11_2 H 0.693019 0.341908 0.251487
C22_2 C 0.7092(2) 0.2004(4) 0.2889(3)
C24_2 C 0.7010(2) 0.1578(4) 0.0369(3)
H13_2 H 0.706254 0.122068 0.069063
C25_2 C 0.6953(2) 0.2280(4) 0.0531(3)
C26_2 C 0.6873(2) 0.2781(4) 0.0025(3)
H14_2 H 0.682887 0.326374 0.010545
Cu5_2 Cu 0.70725(3) 0.08238(4) 0.36335(3)
Cu3_2 Cu 0.68692(3) 0.16349(5) 0.83590(4)
Cl1_2 Cl 0.67439(6) 0.03908(10) 0.82011(8)
N6_2 N 0.69214(18) 0.1891(3) 0.9251(2)
S1_2 S 0.95201(6) 0.02725(10) 0.87166(8)
C23_2 C 0.6990(2) 0.1396(4) 0.9738(3)
H12_2 H 0.702447 0.091468 0.964177
C27_2 C 0.6859(2) 0.2565(4) 0.9415(3)
H15_2 H 0.680040 0.291406 0.908533
N12_2 N 0.68081(17) 0.1928(3) 0.7462(2)
Cu1_2 Cu 0.70725(3) 0.91762(4) 0.86335(3)
Cu2_2 Cu 0.95439(3) 0.81202(4) 0.99444(3)
N1_2 N 0.95455(18) 0.9210(3) 0.9477(2)
N2_2 N 0.77606(17) 0.9467(3) 0.8818(2)
N3_2 N 0.63803(17) 0.8887(3) 0.8576(2)
N4_2 N 0.57787(19) 0.7971(4) 0.6164(3)
N7_2 N 0.88728(16) 0.7857(3) 0.9941(2)
N8_2 N 0.81919(17) 0.6928(3) 0.7538(2)
N9_2 N 0.94366(16) 0.6833(3) 0.8019(3)
O3_2 O 0.71252(15) 0.9394(2) 0.95531(18)
O9_2 O 0.94956(14) 0.7606(3) 0.91365(18)
O10_2 O 0.96603(17) 0.6638(3) 0.9771(2)
S2_2 S 0.55295(6) 0.85083(11) 0.84831(9)
S4_2 S 0.80433(6) 0.74386(10) 0.99003(8)
S5_2 S 0.94766(7) 0.54986(10) 0.78335(11)
C1_2 C 0.9248(2) 0.9692(3) 0.9097(3)
C5_2 C 0.8092(2) 0.9392(3) 0.9417(3)
H2_2 H 0.799486 0.926166 0.977266
C6_2 C 0.8577(2) 0.9504(3) 0.9523(3)
H3_2 H 0.880260 0.945595 0.994814
C7_2 C 0.8725(2) 0.9685(3) 0.9002(3)
C8_2 C 0.8382(2) 0.9810(3) 0.8397(3)
H4_2 H 0.846894 0.996720 0.803908
C9_2 C 0.7906(2) 0.9698(3) 0.8331(3)
H5_2 H 0.767164 0.978863 0.792058
C10_2 C 0.5996(2) 0.8581(3) 0.8163(3)
C11_2 C 0.6320(2) 0.9059(3) 0.9171(3)
C12_2 C 0.5879(2) 0.8896(3) 0.9199(3)
H6_2 H 0.578126 0.898420 0.956326
C13_2 C 0.6733(2) 0.9383(4) 0.9705(3)
C14_2 C 0.5648(2) 0.7543(4) 0.6569(3)
H7_2 H 0.550019 0.710749 0.640259
C15_2 C 0.5719(2) 0.7708(4) 0.7228(3)
H8_2 H 0.562850 0.738409 0.749779
C16_2 C 0.5927(2) 0.8364(4) 0.7477(3)
C17_2 C 0.6054(2) 0.8811(3) 0.7060(3)
H9_2 H 0.619565 0.925452 0.721156
C18_2 C 0.5972(2) 0.8609(4) 0.6418(3)
H10_2 H 0.605517 0.893008 0.614072
C28_2 C 0.8481(2) 0.7563(3) 0.9540(3)
C32_2 C 0.8149(2) 0.6470(4) 0.7984(3)
H17_2 H 0.806465 0.599552 0.785642
C33_2 C 0.8222(2) 0.6661(4) 0.8619(3)
H18_2 H 0.816179 0.632827 0.890723
C34_2 C 0.8381(2) 0.7330(4) 0.8847(3)
C35_2 C 0.8429(2) 0.7805(4) 0.8389(3)
H19_2 H 0.853004 0.827449 0.851350
C36_2 C 0.8326(2) 0.7589(4) 0.7738(3)
H20_2 H 0.835342 0.792408 0.742877
C37_2 C 0.9410(2) 0.6362(4) 0.7559(3)
C38_2 C 0.9510(2) 0.6488(4) 0.8622(3)
C39_2 C 0.9536(2) 0.5777(4) 0.8593(4)
H21_2 H 0.958184 0.547169 0.895423
C40_2 C 0.9565(2) 0.6920(5) 0.9234(4)
C41_2 C 0.9348(2) 0.7463(4) 0.6081(4)
H22_2 H 0.936621 0.794853 0.598504
C42_2 C 0.9388(2) 0.7275(4) 0.6716(3)
H23_2 H 0.944087 0.763023 0.703895
C43_2 C 0.9351(2) 0.6567(4) 0.6881(3)
C44_2 C 0.9269(2) 0.6082(4) 0.6369(4)
H24_2 H 0.922907 0.559798 0.644880
C45_2 C 0.9245(2) 0.6290(5) 0.5750(4)
H25_2 H 0.919830 0.594062 0.542280
Cu6_2 Cu 0.81308(3) 0.66349(5) 0.66410(4)
Cu8_2 Cu 0.56776(3) 0.77488(5) 0.52576(4)
O11_2 O 0.70793(14) 0.8692(3) 0.78380(17)
Cu7_2 Cu 0.56776(3) 0.22512(5) 0.02576(4)
Cu1_3 Cu 0.79275(3) 0.41762(4) 0.63665(3)
Cu2_3 Cu 0.54561(3) 0.31202(4) 0.50556(3)
Cu4_2 Cu 0.43224(3) 0.22512(5) 0.47424(4)
Cl1_3 Cl 0.82561(6) 0.53908(10) 0.67989(8)
N1_3 N 0.54545(18) 0.4210(3) 0.5523(2)
N2_3 N 0.72394(17) 0.4467(3) 0.6182(2)
N3_3 N 0.86197(17) 0.3887(3) 0.6424(2)
N4_3 N 0.92213(19) 0.2971(4) 0.8836(3)
N5_3 N 0.79543(16) 0.7043(3) 0.3300(3)
N6_3 N 0.80786(18) 0.6891(3) 0.5749(2)
N7_3 N 0.61272(16) 0.2857(3) 0.5059(2)
N9_3 N 0.55634(16) 0.1833(3) 0.6981(3)
N10_2 N 0.57143(17) 0.1986(4) 0.9410(2)
O1_3 O 0.47575(14) 0.3254(3) 0.48716(19)
O2_3 O 0.41818(15) 0.3907(2) 0.50943(19)
O3_3 O 0.78748(15) 0.4394(2) 0.54469(18)
O4_2 O 0.83007(18) 0.4591(3) 0.4776(2)
O5_3 O 0.79207(14) 0.6308(3) 0.21620(17)
O6_3 O 0.78655(15) 0.7328(2) 0.1603(2)
O7_2 O 0.53778(14) 0.3428(2) 0.41530(18)
O8_2 O 0.57440(15) 0.3503(2) 0.33930(19)
O9_3 O 0.55044(14) 0.2606(3) 0.58635(18)
O10_3 O 0.53397(17) 0.1638(3) 0.5229(2)
S1_3 S 0.54799(6) 0.52725(10) 0.62834(8)
S2_3 S 0.94705(6) 0.35083(11) 0.65169(9)
S3_3 S 0.81355(8) 0.83600(10) 0.36063(9)
S4_3 S 0.69567(6) 0.24386(10) 0.50997(8)
S5_3 S 0.55234(7) 0.04986(10) 0.71665(11)
C1_3 C 0.5752(2) 0.4692(3) 0.5903(3)
C2_3 C 0.4984(2) 0.4312(4) 0.5520(3)
C3_3 C 0.4938(2) 0.4866(4) 0.5916(3)
H1_3 H 0.465006 0.499984 0.597507
C4_3 C 0.4609(2) 0.3786(4) 0.5134(3)
C5_3 C 0.6908(2) 0.4392(3) 0.5583(3)
H2_3 H 0.700514 0.426166 0.522734
C6_3 C 0.6423(2) 0.4504(3) 0.5477(3)
H3_3 H 0.619740 0.445595 0.505186
C7_3 C 0.6275(2) 0.4685(3) 0.5998(3)
C8_3 C 0.6618(2) 0.4810(3) 0.6603(3)
H4_3 H 0.653106 0.496720 0.696092
C9_3 C 0.7094(2) 0.4698(3) 0.6669(3)
H5_3 H 0.732836 0.478863 0.707942
C10_3 C 0.9004(2) 0.3581(3) 0.6837(3)
C11_3 C 0.8680(2) 0.4059(3) 0.5829(3)
C12_3 C 0.9121(2) 0.3896(3) 0.5801(3)
H6_3 H 0.921874 0.398420 0.543674
C13_3 C 0.8267(2) 0.4383(4) 0.5295(3)
C14_3 C 0.9352(2) 0.2543(4) 0.8431(3)
H7_3 H 0.949981 0.210749 0.859741
C15_3 C 0.9281(2) 0.2708(4) 0.7772(3)
H8_3 H 0.937150 0.238409 0.750221
C16_3 C 0.9073(2) 0.3364(4) 0.7523(3)
C17_3 C 0.8946(2) 0.3811(3) 0.7940(3)
H9_3 H 0.880435 0.425452 0.778844
C18_3 C 0.9028(2) 0.3609(4) 0.8582(3)
H10_3 H 0.894483 0.393008 0.885928
C19_3 C 0.8037(2) 0.7489(3) 0.3793(3)
C20_3 C 0.7974(2) 0.7393(4) 0.2745(3)
C21_3 C 0.8057(2) 0.8109(4) 0.2820(3)
H11_3 H 0.806981 0.841908 0.248513
C22_3 C 0.7908(2) 0.7004(4) 0.2111(3)
C23_3 C 0.8010(2) 0.6396(4) 0.5262(3)
H12_3 H 0.797553 0.591468 0.535823
C24_3 C 0.7990(2) 0.6578(4) 0.4631(3)
H13_3 H 0.793746 0.622068 0.430937
C25_3 C 0.8047(2) 0.7280(4) 0.4469(3)
C26_3 C 0.8127(2) 0.7781(4) 0.4975(3)
H14_3 H 0.817113 0.826374 0.489455
C27_3 C 0.8141(2) 0.7565(4) 0.5585(3)
H15_3 H 0.819960 0.791406 0.591467
C28_3 C 0.6519(2) 0.2563(3) 0.5460(3)
C29_2 C 0.6169(2) 0.3001(3) 0.4442(3)
C30_2 C 0.6592(2) 0.2810(3) 0.4385(3)
H16_2 H 0.667488 0.287375 0.400485
C31_2 C 0.5737(2) 0.3335(3) 0.3945(3)
C32_3 C 0.6851(2) 0.1470(4) 0.7016(3)
H17_3 H 0.693535 0.099552 0.714358
C33_3 C 0.6778(2) 0.1661(4) 0.6381(3)
H18_3 H 0.683821 0.132827 0.609277
C34_3 C 0.6619(2) 0.2330(4) 0.6153(3)
C35_3 C 0.6571(2) 0.2805(4) 0.6611(3)
H19_3 H 0.646996 0.327449 0.648650
C36_3 C 0.6674(2) 0.2589(4) 0.7262(3)
H20_3 H 0.664658 0.292408 0.757123
C37_3 C 0.5590(2) 0.1362(4) 0.7441(3)
C38_3 C 0.5490(2) 0.1488(4) 0.6378(3)
C39_3 C 0.5464(2) 0.0777(4) 0.6407(4)
H21_3 H 0.541816 0.047169 0.604577
C40_3 C 0.5435(2) 0.1920(5) 0.5766(4)
C41_3 C 0.5652(2) 0.2463(4) 0.8919(4)
H22_3 H 0.563379 0.294853 0.901496
C42_3 C 0.5612(2) 0.2275(4) 0.8284(3)
H23_3 H 0.555913 0.263023 0.796105
C43_3 C 0.5649(2) 0.1567(4) 0.8119(3)
C44_3 C 0.5731(2) 0.1082(4) 0.8631(4)
H24_3 H 0.577093 0.059798 0.855120
C45_3 C 0.5755(2) 0.1290(5) 0.9250(4)
H25_3 H 0.580170 0.094062 0.957720
Cu5_3 Cu 0.79275(3) 0.58238(4) 0.13665(3)
Cu8_3 Cu 0.93224(3) 0.27488(5) 0.97424(4)
N11_3 N 0.42213(19) 0.2029(4) 0.3836(3)
N13_2 N 0.42857(17) 0.1986(4) 0.5590(2)
O11_3 O 0.79207(14) 0.3692(3) 0.71620(17)
N5_4 N 0.20457(16) 0.7043(3) 0.1700(3)
O1_4 O 0.52425(14) 0.3254(3) 0.01284(19)
O4_3 O 0.16993(18) 0.4591(3) 0.0224(2)
O5_4 O 0.20793(14) 0.6308(3) 0.28380(17)
O6_4 O 0.21345(15) 0.7328(2) 0.3397(2)
O7_3 O 0.46222(14) 0.3428(2) 0.08470(18)
O8_3 O 0.42560(15) 0.3503(2) 0.16070(19)
S3_4 S 0.18645(8) 0.83600(10) 0.13937(9)
C19_4 C 0.1963(2) 0.7489(3) 0.1207(3)
C20_4 C 0.2026(2) 0.7393(4) 0.2255(3)
C21_4 C 0.1943(2) 0.8109(4) 0.2180(3)
H11_4 H 0.193019 0.841908 0.251487
C22_4 C 0.2092(2) 0.7004(4) 0.2889(3)
C24_4 C 0.2010(2) 0.6578(4) 0.0369(3)
H13_4 H 0.206254 0.622068 0.069063
C25_4 C 0.1953(2) 0.7280(4) 0.0531(3)
C26_4 C 0.1873(2) 0.7781(4) 0.0025(3)
H14_4 H 0.182887 0.826374 0.010545
C29_3 C 0.3831(2) 0.3001(3) 0.0558(3)
C30_3 C 0.3408(2) 0.2810(3) 0.0615(3)
H16_3 H 0.332512 0.287375 0.099515
C31_3 C 0.4263(2) 0.3335(3) 0.1055(3)
Cu5_4 Cu 0.20725(3) 0.58238(4) 0.36335(3)
N11_4 N 0.57787(19) 0.2029(4) 0.1164(3)
Cu1_4 Cu 0.20725(3) 0.41762(4) 0.86335(3)
Cu2_4 Cu 0.45439(3) 0.31202(4) 0.99444(3)
Cl1_4 Cl 0.17439(6) 0.53908(10) 0.82011(8)
N1_4 N 0.45455(18) 0.4210(3) 0.9477(2)
N2_4 N 0.27606(17) 0.4467(3) 0.8818(2)
N3_4 N 0.13803(17) 0.3887(3) 0.8576(2)
N4_4 N 0.07787(19) 0.2971(4) 0.6164(3)
N6_4 N 0.19214(18) 0.6891(3) 0.9251(2)
N7_4 N 0.38728(16) 0.2857(3) 0.9941(2)
N9_4 N 0.44366(16) 0.1833(3) 0.8019(3)
O2_4 O 0.58182(15) 0.3907(2) 0.99057(19)
O3_4 O 0.21252(15) 0.4394(2) 0.95531(18)
O9_4 O 0.44956(14) 0.2606(3) 0.91365(18)
O10_4 O 0.46603(17) 0.1638(3) 0.9771(2)
S1_4 S 0.45201(6) 0.52725(10) 0.87166(8)
S2_4 S 0.05295(6) 0.35083(11) 0.84831(9)
S4_4 S 0.30433(6) 0.24386(10) 0.99003(8)
S5_4 S 0.44766(7) 0.04986(10) 0.78335(11)
C1_4 C 0.4248(2) 0.4692(3) 0.9097(3)
C2_4 C 0.5016(2) 0.4312(4) 0.9480(3)
C3_4 C 0.5062(2) 0.4866(4) 0.9084(3)
H1_4 H 0.534994 0.499984 0.902493
C4_4 C 0.5391(2) 0.3786(4) 0.9866(3)
C5_4 C 0.3092(2) 0.4392(3) 0.9417(3)
H2_4 H 0.299486 0.426166 0.977266
C6_4 C 0.3577(2) 0.4504(3) 0.9523(3)
H3_4 H 0.380260 0.445595 0.994814
C7_4 C 0.3725(2) 0.4685(3) 0.9002(3)
C8_4 C 0.3382(2) 0.4810(3) 0.8397(3)
H4_4 H 0.346894 0.496720 0.803908
C9_4 C 0.2906(2) 0.4698(3) 0.8331(3)
H5_4 H 0.267164 0.478863 0.792058
C10_4 C 0.0996(2) 0.3581(3) 0.8163(3)
C11_4 C 0.1320(2) 0.4059(3) 0.9171(3)
C12_4 C 0.0879(2) 0.3896(3) 0.9199(3)
H6_4 H 0.078126 0.398420 0.956326
C13_4 C 0.1733(2) 0.4383(4) 0.9705(3)
C14_4 C 0.0648(2) 0.2543(4) 0.6569(3)
H7_4 H 0.050019 0.210749 0.640259
C15_4 C 0.0719(2) 0.2708(4) 0.7228(3)
H8_4 H 0.062850 0.238409 0.749779
C16_4 C 0.0927(2) 0.3364(4) 0.7477(3)
C17_4 C 0.1054(2) 0.3811(3) 0.7060(3)
H9_4 H 0.119565 0.425452 0.721156
C18_4 C 0.0972(2) 0.3609(4) 0.6418(3)
H10_4 H 0.105517 0.393008 0.614072
C23_4 C 0.1990(2) 0.6396(4) 0.9738(3)
H12_4 H 0.202447 0.591468 0.964177
C27_4 C 0.1859(2) 0.7565(4) 0.9415(3)
H15_4 H 0.180040 0.791406 0.908533
C28_4 C 0.3481(2) 0.2563(3) 0.9540(3)
C32_4 C 0.3149(2) 0.1470(4) 0.7984(3)
H17_4 H 0.306465 0.099552 0.785642
C33_4 C 0.3222(2) 0.1661(4) 0.8619(3)
H18_4 H 0.316179 0.132827 0.890723
C34_4 C 0.3381(2) 0.2330(4) 0.8847(3)
C35_4 C 0.3429(2) 0.2805(4) 0.8389(3)
H19_4 H 0.353004 0.327449 0.851350
C36_4 C 0.3326(2) 0.2589(4) 0.7738(3)
H20_4 H 0.335342 0.292408 0.742877
C37_4 C 0.4410(2) 0.1362(4) 0.7559(3)
C38_4 C 0.4510(2) 0.1488(4) 0.8622(3)
C39_4 C 0.4536(2) 0.0777(4) 0.8593(4)
H21_4 H 0.458184 0.047169 0.895423
C40_4 C 0.4565(2) 0.1920(5) 0.9234(4)
C41_4 C 0.4348(2) 0.2463(4) 0.6081(4)
H22_4 H 0.436621 0.294853 0.598504
C42_4 C 0.4388(2) 0.2275(4) 0.6716(3)
H23_4 H 0.444087 0.263023 0.703895
C43_4 C 0.4351(2) 0.1567(4) 0.6881(3)
C44_4 C 0.4269(2) 0.1082(4) 0.6369(4)
H24_4 H 0.422907 0.059798 0.644880
C45_4 C 0.4245(2) 0.1290(5) 0.5750(4)
H25_4 H 0.419830 0.094062 0.542280
Cu8_4 Cu 0.06776(3) 0.27488(5) 0.52576(4)
O11_4 O 0.20793(14) 0.3692(3) 0.78380(17)
O1_5 O 0.02425(14) 0.1746(3) 0.51284(19)
O2_5 O 0.08182(15) 0.1093(2) 0.49057(19)
C2_5 C 0.0016(2) 0.0688(4) 0.4480(3)
C3_5 C 0.0062(2) 0.0134(4) 0.4084(3)
H1_5 H 0.034994 0.000016 0.402493
C4_5 C 0.0391(2) 0.1214(4) 0.4866(3)
N13_3 N 0.07143(17) 0.3014(4) 0.4410(2)
Cu2_5 Cu 0.95439(3) 0.18798(4) 0.49444(3)
N1_5 N 0.95455(18) 0.0790(3) 0.4477(2)
N2_5 N 0.77606(17) 0.0533(3) 0.3818(2)
N3_5 N 0.63803(17) 0.1113(3) 0.3576(2)
N7_5 N 0.88728(16) 0.2143(3) 0.4941(2)
N8_3 N 0.81919(17) 0.3072(3) 0.2538(2)
N9_5 N 0.94366(16) 0.3167(3) 0.3019(3)
N10_3 N 0.92857(17) 0.3014(4) 0.0590(2)
O3_5 O 0.71252(15) 0.0606(2) 0.45531(18)
O4_4 O 0.66993(18) 0.0409(3) 0.5224(2)
O7_4 O 0.96222(14) 0.1572(2) 0.58470(18)
O8_4 O 0.92560(15) 0.1497(2) 0.66070(19)
O9_5 O 0.94956(14) 0.2394(3) 0.41365(18)
O10_5 O 0.96603(17) 0.3362(3) 0.4771(2)
S2_5 S 0.55295(6) 0.14917(11) 0.34831(9)
S4_5 S 0.80433(6) 0.25614(10) 0.49003(8)
S5_5 S 0.94766(7) 0.45014(10) 0.28335(11)
C1_5 C 0.9248(2) 0.0308(3) 0.4097(3)
C5_5 C 0.8092(2) 0.0608(3) 0.4417(3)
H2_5 H 0.799486 0.073834 0.477266
C6_5 C 0.8577(2) 0.0496(3) 0.4523(3)
H3_5 H 0.880260 0.054405 0.494814
C7_5 C 0.8725(2) 0.0315(3) 0.4002(3)
C8_5 C 0.8382(2) 0.0190(3) 0.3397(3)
H4_5 H 0.846894 0.003280 0.303908
C9_5 C 0.7906(2) 0.0302(3) 0.3331(3)
H5_5 H 0.767164 0.021137 0.292058
C10_5 C 0.5996(2) 0.1419(3) 0.3163(3)
C11_5 C 0.6320(2) 0.0941(3) 0.4171(3)
C12_5 C 0.5879(2) 0.1104(3) 0.4199(3)
H6_5 H 0.578126 0.101580 0.456326
C13_5 C 0.6733(2) 0.0617(4) 0.4705(3)
C14_5 C 0.5648(2) 0.2457(4) 0.1569(3)
H7_5 H 0.550019 0.289251 0.140259
C15_5 C 0.5719(2) 0.2292(4) 0.2228(3)
H8_5 H 0.562850 0.261591 0.249779
C16_5 C 0.5927(2) 0.1636(4) 0.2477(3)
C17_5 C 0.6054(2) 0.1189(3) 0.2060(3)
H9_5 H 0.619565 0.074548 0.221156
C18_5 C 0.5972(2) 0.1391(4) 0.1418(3)
H10_5 H 0.605517 0.106992 0.114072
C28_5 C 0.8481(2) 0.2437(3) 0.4540(3)
C29_4 C 0.8831(2) 0.1999(3) 0.5558(3)
C30_4 C 0.8408(2) 0.2190(3) 0.5615(3)
H16_4 H 0.832512 0.212625 0.599515
C31_4 C 0.9263(2) 0.1665(3) 0.6055(3)
C32_5 C 0.8149(2) 0.3530(4) 0.2984(3)
H17_5 H 0.806465 0.400448 0.285642
C33_5 C 0.8222(2) 0.3339(4) 0.3619(3)
H18_5 H 0.816179 0.367173 0.390723
C34_5 C 0.8381(2) 0.2670(4) 0.3847(3)
C35_5 C 0.8429(2) 0.2195(4) 0.3389(3)
H19_5 H 0.853004 0.172551 0.351350
C36_5 C 0.8326(2) 0.2411(4) 0.2738(3)
H20_5 H 0.835342 0.207592 0.242877
C37_5 C 0.9410(2) 0.3638(4) 0.2559(3)
C38_5 C 0.9510(2) 0.3512(4) 0.3622(3)
C39_5 C 0.9536(2) 0.4223(4) 0.3593(4)
H21_5 H 0.958184 0.452831 0.395423
C40_5 C 0.9565(2) 0.3080(5) 0.4234(4)
C41_5 C 0.9348(2) 0.2537(4) 0.1081(4)
H22_5 H 0.936621 0.205147 0.098504
C42_5 C 0.9388(2) 0.2725(4) 0.1716(3)
H23_5 H 0.944087 0.236977 0.203895
C43_5 C 0.9351(2) 0.3433(4) 0.1881(3)
C44_5 C 0.9269(2) 0.3918(4) 0.1369(4)
H24_5 H 0.922907 0.440202 0.144880
C45_5 C 0.9245(2) 0.3710(5) 0.0750(4)
H25_5 H 0.919830 0.405938 0.042280
Cu6_3 Cu 0.81308(3) 0.33651(5) 0.16410(4)
Cu3_3 Cu 0.68692(3) 0.83651(5) 0.33590(4)
Cl1_5 Cl 0.67439(6) 0.96092(10) 0.32011(8)
N5_5 N 0.70457(16) 0.7957(3) 0.6700(3)
N6_5 N 0.69214(18) 0.8109(3) 0.4251(2)
O6_5 O 0.71345(15) 0.7672(2) 0.8397(2)
S1_5 S 0.95201(6) 0.97275(10) 0.37166(8)
S3_5 S 0.68645(8) 0.66400(10) 0.63937(9)
C19_5 C 0.6963(2) 0.7511(3) 0.6207(3)
C20_5 C 0.7026(2) 0.7607(4) 0.7255(3)
C21_5 C 0.6943(2) 0.6891(4) 0.7180(3)
H11_5 H 0.693019 0.658092 0.751487
C22_5 C 0.7092(2) 0.7996(4) 0.7889(3)
C23_5 C 0.6990(2) 0.8604(4) 0.4738(3)
H12_5 H 0.702447 0.908532 0.464177
C24_5 C 0.7010(2) 0.8422(4) 0.5369(3)
H13_5 H 0.706254 0.877932 0.569063
C25_5 C 0.6953(2) 0.7720(4) 0.5531(3)
C26_5 C 0.6873(2) 0.7219(4) 0.5025(3)
H14_5 H 0.682887 0.673626 0.510545
C27_5 C 0.6859(2) 0.7435(4) 0.4415(3)
H15_5 H 0.680040 0.708594 0.408533
N12_3 N 0.68081(17) 0.8072(3) 0.2462(2)
Cu2_6 Cu 0.04561(3) 0.18798(4) 0.00556(3)
N1_6 N 0.04545(18) 0.0790(3) 0.0523(2)
N2_6 N 0.22394(17) 0.0533(3) 0.1182(2)
N3_6 N 0.36197(17) 0.1113(3) 0.1424(2)
N7_6 N 0.11272(16) 0.2143(3) 0.0059(2)
N8_4 N 0.18081(17) 0.3072(3) 0.2462(2)
N9_6 N 0.05634(16) 0.3167(3) 0.1981(3)
O3_6 O 0.28748(15) 0.0606(2) 0.04469(18)
O9_6 O 0.05044(14) 0.2394(3) 0.08635(18)
O10_6 O 0.03397(17) 0.3362(3) 0.0229(2)
S2_6 S 0.44705(6) 0.14917(11) 0.15169(9)
S4_6 S 0.19567(6) 0.25614(10) 0.00997(8)
S5_6 S 0.05234(7) 0.45014(10) 0.21665(11)
C1_6 C 0.0752(2) 0.0308(3) 0.0903(3)
C5_6 C 0.1908(2) 0.0608(3) 0.0583(3)
H2_6 H 0.200514 0.073834 0.022734
C6_6 C 0.1423(2) 0.0496(3) 0.0477(3)
H3_6 H 0.119740 0.054405 0.005186
C7_6 C 0.1275(2) 0.0315(3) 0.0998(3)
C8_6 C 0.1618(2) 0.0190(3) 0.1603(3)
H4_6 H 0.153106 0.003280 0.196092
C9_6 C 0.2094(2) 0.0302(3) 0.1669(3)
H5_6 H 0.232836 0.021137 0.207942
C10_6 C 0.4004(2) 0.1419(3) 0.1837(3)
C11_6 C 0.3680(2) 0.0941(3) 0.0829(3)
C12_6 C 0.4121(2) 0.1104(3) 0.0801(3)
H6_6 H 0.421874 0.101580 0.043674
C13_6 C 0.3267(2) 0.0617(4) 0.0295(3)
C14_6 C 0.4352(2) 0.2457(4) 0.3431(3)
H7_6 H 0.449981 0.289251 0.359741
C15_6 C 0.4281(2) 0.2292(4) 0.2772(3)
H8_6 H 0.437150 0.261591 0.250221
C16_6 C 0.4073(2) 0.1636(4) 0.2523(3)
C17_6 C 0.3946(2) 0.1189(3) 0.2940(3)
H9_6 H 0.380435 0.074548 0.278844
C18_6 C 0.4028(2) 0.1391(4) 0.3582(3)
H10_6 H 0.394483 0.106992 0.385928
C28_6 C 0.1519(2) 0.2437(3) 0.0460(3)
C32_6 C 0.1851(2) 0.3530(4) 0.2016(3)
H17_6 H 0.193535 0.400448 0.214358
C33_6 C 0.1778(2) 0.3339(4) 0.1381(3)
H18_6 H 0.183821 0.367173 0.109277
C34_6 C 0.1619(2) 0.2670(4) 0.1153(3)
C35_6 C 0.1571(2) 0.2195(4) 0.1611(3)
H19_6 H 0.146996 0.172551 0.148650
C36_6 C 0.1674(2) 0.2411(4) 0.2262(3)
H20_6 H 0.164658 0.207592 0.257123
C37_6 C 0.0590(2) 0.3638(4) 0.2441(3)
C38_6 C 0.0490(2) 0.3512(4) 0.1378(3)
C39_6 C 0.0464(2) 0.4223(4) 0.1407(4)
H21_6 H 0.041816 0.452831 0.104577
C40_6 C 0.0435(2) 0.3080(5) 0.0766(4)
C41_6 C 0.0652(2) 0.2537(4) 0.3919(4)
H22_6 H 0.063379 0.205147 0.401496
C42_6 C 0.0612(2) 0.2725(4) 0.3284(3)
H23_6 H 0.055913 0.236977 0.296105
C43_6 C 0.0649(2) 0.3433(4) 0.3119(3)
C44_6 C 0.0731(2) 0.3918(4) 0.3631(4)
H24_6 H 0.077093 0.440202 0.355120
C45_6 C 0.0755(2) 0.3710(5) 0.4250(4)
H25_6 H 0.080170 0.405938 0.457720
Cu6_4 Cu 0.18692(3) 0.33651(5) 0.33590(4)
Cu3_4 Cu 0.31308(3) 0.83651(5) 0.16410(4)
Cl1_6 Cl 0.32561(6) 0.96092(10) 0.17989(8)
N6_6 N 0.30786(18) 0.8109(3) 0.0749(2)
S1_6 S 0.04799(6) 0.97275(10) 0.12834(8)
C23_6 C 0.3010(2) 0.8604(4) 0.0262(3)
H12_6 H 0.297553 0.908532 0.035823
C27_6 C 0.3141(2) 0.7435(4) 0.0585(3)
H15_6 H 0.319960 0.708594 0.091467
N12_4 N 0.31919(17) 0.8072(3) 0.2538(2)
N5_6 N 0.29543(16) 0.7957(3) 0.8300(3)
O6_6 O 0.28655(15) 0.7672(2) 0.6603(2)
S3_6 S 0.31355(8) 0.66400(10) 0.86063(9)
C19_6 C 0.3037(2) 0.7511(3) 0.8793(3)
C20_6 C 0.2974(2) 0.7607(4) 0.7745(3)
C21_6 C 0.3057(2) 0.6891(4) 0.7820(3)
H11_6 H 0.306981 0.658092 0.748513
C22_6 C 0.2908(2) 0.7996(4) 0.7111(3)
C24_6 C 0.2990(2) 0.8422(4) 0.9631(3)
H13_6 H 0.293746 0.877932 0.930937
C25_6 C 0.3047(2) 0.7720(4) 0.9469(3)
C26_6 C 0.3127(2) 0.7219(4) 0.9975(3)
H14_6 H 0.317113 0.673626 0.989455
O2_6 O 0.91818(15) 0.1093(2) 0.00943(19)
C2_6 C 0.9984(2) 0.0688(4) 0.0520(3)
C3_6 C 0.9938(2) 0.0134(4) 0.0916(3)
H1_6 H 0.965006 0.000016 0.097507
C4_6 C 0.9609(2) 0.1214(4) 0.0134(3)
O1_6 O 0.97575(14) 0.1746(3) 0.98716(19)
Cu2_7 Cu 0.45439(3) 0.68798(4) 0.49444(3)
Cl1_7 Cl 0.17439(6) 0.46092(10) 0.32011(8)
N1_7 N 0.45455(18) 0.5790(3) 0.4477(2)
N2_7 N 0.27606(17) 0.5533(3) 0.3818(2)
N3_7 N 0.13803(17) 0.6113(3) 0.3576(2)
N5_7 N 0.20457(16) 0.2957(3) 0.6700(3)
N6_7 N 0.19214(18) 0.3109(3) 0.4251(2)
N7_7 N 0.38728(16) 0.7143(3) 0.4941(2)
N9_7 N 0.44366(16) 0.8167(3) 0.3019(3)
N10_4 N 0.42857(17) 0.8014(4) 0.0590(2)
O1_7 O 0.52425(14) 0.6746(3) 0.51284(19)
O2_7 O 0.58182(15) 0.6093(2) 0.49057(19)
O3_7 O 0.21252(15) 0.5606(2) 0.45531(18)
O4_5 O 0.16993(18) 0.5409(3) 0.5224(2)
O6_7 O 0.21345(15) 0.2672(2) 0.8397(2)
O7_5 O 0.46222(14) 0.6572(2) 0.58470(18)
O8_5 O 0.42560(15) 0.6497(2) 0.66070(19)
O9_7 O 0.44956(14) 0.7394(3) 0.41365(18)
O10_7 O 0.46603(17) 0.8362(3) 0.4771(2)
S1_7 S 0.45201(6) 0.47275(10) 0.37166(8)
S2_7 S 0.05295(6) 0.64917(11) 0.34831(9)
S3_7 S 0.18645(8) 0.16400(10) 0.63937(9)
S4_7 S 0.30433(6) 0.75614(10) 0.49003(8)
S5_7 S 0.44766(7) 0.95014(10) 0.28335(11)
C1_7 C 0.4248(2) 0.5308(3) 0.4097(3)
C2_7 C 0.5016(2) 0.5688(4) 0.4480(3)
C3_7 C 0.5062(2) 0.5134(4) 0.4084(3)
H1_7 H 0.534994 0.500016 0.402493
C4_7 C 0.5391(2) 0.6214(4) 0.4866(3)
C5_7 C 0.3092(2) 0.5608(3) 0.4417(3)
H2_7 H 0.299486 0.573834 0.477266
C6_7 C 0.3577(2) 0.5496(3) 0.4523(3)
H3_7 H 0.380260 0.554405 0.494814
C7_7 C 0.3725(2) 0.5315(3) 0.4002(3)
C8_7 C 0.3382(2) 0.5190(3) 0.3397(3)
H4_7 H 0.346894 0.503280 0.303908
C9_7 C 0.2906(2) 0.5302(3) 0.3331(3)
H5_7 H 0.267164 0.521137 0.292058
C10_7 C 0.0996(2) 0.6419(3) 0.3163(3)
C11_7 C 0.1320(2) 0.5941(3) 0.4171(3)
C12_7 C 0.0879(2) 0.6104(3) 0.4199(3)
H6_7 H 0.078126 0.601580 0.456326
C13_7 C 0.1733(2) 0.5617(4) 0.4705(3)
C14_7 C 0.0648(2) 0.7457(4) 0.1569(3)
H7_7 H 0.050019 0.789251 0.140259
C15_7 C 0.0719(2) 0.7292(4) 0.2228(3)
H8_7 H 0.062850 0.761591 0.249779
C16_7 C 0.0927(2) 0.6636(4) 0.2477(3)
C17_7 C 0.1054(2) 0.6189(3) 0.2060(3)
H9_7 H 0.119565 0.574548 0.221156
C18_7 C 0.0972(2) 0.6391(4) 0.1418(3)
H10_7 H 0.105517 0.606992 0.114072
C19_7 C 0.1963(2) 0.2511(3) 0.6207(3)
C20_7 C 0.2026(2) 0.2607(4) 0.7255(3)
C21_7 C 0.1943(2) 0.1891(4) 0.7180(3)
H11_7 H 0.193019 0.158092 0.751487
C22_7 C 0.2092(2) 0.2996(4) 0.7889(3)
C23_7 C 0.1990(2) 0.3604(4) 0.4738(3)
H12_7 H 0.202447 0.408532 0.464177
C24_7 C 0.2010(2) 0.3422(4) 0.5369(3)
H13_7 H 0.206254 0.377932 0.569063
C25_7 C 0.1953(2) 0.2720(4) 0.5531(3)
C26_7 C 0.1873(2) 0.2219(4) 0.5025(3)
H14_7 H 0.182887 0.173626 0.510545
C27_7 C 0.1859(2) 0.2435(4) 0.4415(3)
H15_7 H 0.180040 0.208594 0.408533
C28_7 C 0.3481(2) 0.7437(3) 0.4540(3)
C29_5 C 0.3831(2) 0.6999(3) 0.5558(3)
C30_5 C 0.3408(2) 0.7190(3) 0.5615(3)
H16_5 H 0.332512 0.712625 0.599515
C31_5 C 0.4263(2) 0.6665(3) 0.6055(3)
C32_7 C 0.3149(2) 0.8530(4) 0.2984(3)
H17_7 H 0.306465 0.900448 0.285642
C33_7 C 0.3222(2) 0.8339(4) 0.3619(3)
H18_7 H 0.316179 0.867173 0.390723
C34_7 C 0.3381(2) 0.7670(4) 0.3847(3)
C35_7 C 0.3429(2) 0.7195(4) 0.3389(3)
H19_7 H 0.353004 0.672551 0.351350
C36_7 C 0.3326(2) 0.7411(4) 0.2738(3)
H20_7 H 0.335342 0.707592 0.242877
C37_7 C 0.4410(2) 0.8638(4) 0.2559(3)
C38_7 C 0.4510(2) 0.8512(4) 0.3622(3)
C39_7 C 0.4536(2) 0.9223(4) 0.3593(4)
H21_7 H 0.458184 0.952831 0.395423
C40_7 C 0.4565(2) 0.8080(5) 0.4234(4)
C41_7 C 0.4348(2) 0.7537(4) 0.1081(4)
H22_7 H 0.436621 0.705147 0.098504
C42_7 C 0.4388(2) 0.7725(4) 0.1716(3)
H23_7 H 0.444087 0.736977 0.203895
C43_7 C 0.4351(2) 0.8433(4) 0.1881(3)
C44_7 C 0.4269(2) 0.8918(4) 0.1369(4)
H24_7 H 0.422907 0.940202 0.144880
C45_7 C 0.4245(2) 0.8710(5) 0.0750(4)
H25_7 H 0.419830 0.905938 0.042280
N13_4 N 0.57143(17) 0.8014(4) 0.4410(2)
Cu2_8 Cu 0.54561(3) 0.68798(4) 0.00556(3)
Cl1_8 Cl 0.82561(6) 0.46092(10) 0.17989(8)
N1_8 N 0.54545(18) 0.5790(3) 0.0523(2)
N2_8 N 0.72394(17) 0.5533(3) 0.1182(2)
N3_8 N 0.86197(17) 0.6113(3) 0.1424(2)
N6_8 N 0.80786(18) 0.3109(3) 0.0749(2)
N7_8 N 0.61272(16) 0.7143(3) 0.0059(2)
N9_8 N 0.55634(16) 0.8167(3) 0.1981(3)
O2_8 O 0.41818(15) 0.6093(2) 0.00943(19)
O3_8 O 0.78748(15) 0.5606(2) 0.04469(18)
O9_8 O 0.55044(14) 0.7394(3) 0.08635(18)
O10_8 O 0.53397(17) 0.8362(3) 0.0229(2)
S1_8 S 0.54799(6) 0.47275(10) 0.12834(8)
S2_8 S 0.94705(6) 0.64917(11) 0.15169(9)
S4_8 S 0.69567(6) 0.75614(10) 0.00997(8)
S5_8 S 0.55234(7) 0.95014(10) 0.21665(11)
C1_8 C 0.5752(2) 0.5308(3) 0.0903(3)
C2_8 C 0.4984(2) 0.5688(4) 0.0520(3)
C3_8 C 0.4938(2) 0.5134(4) 0.0916(3)
H1_8 H 0.465006 0.500016 0.097507
C4_8 C 0.4609(2) 0.6214(4) 0.0134(3)
C5_8 C 0.6908(2) 0.5608(3) 0.0583(3)
H2_8 H 0.700514 0.573834 0.022734
C6_8 C 0.6423(2) 0.5496(3) 0.0477(3)
H3_8 H 0.619740 0.554405 0.005186
C7_8 C 0.6275(2) 0.5315(3) 0.0998(3)
C8_8 C 0.6618(2) 0.5190(3) 0.1603(3)
H4_8 H 0.653106 0.503280 0.196092
C9_8 C 0.7094(2) 0.5302(3) 0.1669(3)
H5_8 H 0.732836 0.521137 0.207942
C10_8 C 0.9004(2) 0.6419(3) 0.1837(3)
C11_8 C 0.8680(2) 0.5941(3) 0.0829(3)
C12_8 C 0.9121(2) 0.6104(3) 0.0801(3)
H6_8 H 0.921874 0.601580 0.043674
C13_8 C 0.8267(2) 0.5617(4) 0.0295(3)
C14_8 C 0.9352(2) 0.7457(4) 0.3431(3)
H7_8 H 0.949981 0.789251 0.359741
C15_8 C 0.9281(2) 0.7292(4) 0.2772(3)
H8_8 H 0.937150 0.761591 0.250221
C16_8 C 0.9073(2) 0.6636(4) 0.2523(3)
C17_8 C 0.8946(2) 0.6189(3) 0.2940(3)
H9_8 H 0.880435 0.574548 0.278844
C18_8 C 0.9028(2) 0.6391(4) 0.3582(3)
H10_8 H 0.894483 0.606992 0.385928
C23_8 C 0.8010(2) 0.3604(4) 0.0262(3)
H12_8 H 0.797553 0.408532 0.035823
C27_8 C 0.8141(2) 0.2435(4) 0.0585(3)
H15_8 H 0.819960 0.208594 0.091467
C28_8 C 0.6519(2) 0.7437(3) 0.0460(3)
C32_8 C 0.6851(2) 0.8530(4) 0.2016(3)
H17_8 H 0.693535 0.900448 0.214358
C33_8 C 0.6778(2) 0.8339(4) 0.1381(3)
H18_8 H 0.683821 0.867173 0.109277
C34_8 C 0.6619(2) 0.7670(4) 0.1153(3)
C35_8 C 0.6571(2) 0.7195(4) 0.1611(3)
H19_8 H 0.646996 0.672551 0.148650
C36_8 C 0.6674(2) 0.7411(4) 0.2262(3)
H20_8 H 0.664658 0.707592 0.257123
C37_8 C 0.5590(2) 0.8638(4) 0.2441(3)
C38_8 C 0.5490(2) 0.8512(4) 0.1378(3)
C39_8 C 0.5464(2) 0.9223(4) 0.1407(4)
H21_8 H 0.541816 0.952831 0.104577
C40_8 C 0.5435(2) 0.8080(5) 0.0766(4)
C41_8 C 0.5652(2) 0.7537(4) 0.3919(4)
H22_8 H 0.563379 0.705147 0.401496
C42_8 C 0.5612(2) 0.7725(4) 0.3284(3)
H23_8 H 0.555913 0.736977 0.296105
C43_8 C 0.5649(2) 0.8433(4) 0.3119(3)
C44_8 C 0.5731(2) 0.8918(4) 0.3631(4)
H24_8 H 0.577093 0.940202 0.355120
C45_8 C 0.5755(2) 0.8710(5) 0.4250(4)
H25_8 H 0.580170 0.905938 0.457720
N5_8 N 0.79543(16) 0.2957(3) 0.8300(3)
O1_8 O 0.47575(14) 0.6746(3) 0.98716(19)
O4_6 O 0.83007(18) 0.5409(3) 0.9776(2)
O6_8 O 0.78655(15) 0.2672(2) 0.6603(2)
O7_6 O 0.53778(14) 0.6572(2) 0.91530(18)
O8_6 O 0.57440(15) 0.6497(2) 0.83930(19)
S3_8 S 0.81355(8) 0.16400(10) 0.86063(9)
C19_8 C 0.8037(2) 0.2511(3) 0.8793(3)
C20_8 C 0.7974(2) 0.2607(4) 0.7745(3)
C21_8 C 0.8057(2) 0.1891(4) 0.7820(3)
H11_8 H 0.806981 0.158092 0.748513
C22_8 C 0.7908(2) 0.2996(4) 0.7111(3)
C24_8 C 0.7990(2) 0.3422(4) 0.9631(3)
H13_8 H 0.793746 0.377932 0.930937
C25_8 C 0.8047(2) 0.2720(4) 0.9469(3)
C26_8 C 0.8127(2) 0.2219(4) 0.9975(3)
H14_8 H 0.817113 0.173626 0.989455
C29_6 C 0.6169(2) 0.6999(3) 0.9442(3)
C30_6 C 0.6592(2) 0.7190(3) 0.9385(3)
H16_6 H 0.667488 0.712625 0.900485
C31_6 C 0.5737(2) 0.6665(3) 0.8945(3)
H1_9 H 0.965006 -0.000016 0.597507
H1_10 H 0.034994 -0.000016 0.902493
O4_7 O 0.66993(18) 0.9591(3) 0.0224(2)
O7_7 O 0.96222(14) 0.8428(2) 0.08470(18)
O8_7 O 0.92560(15) 0.8503(2) 0.16070(19)
C29_7 C 0.8831(2) 0.8001(3) 0.0558(3)
C30_7 C 0.8408(2) 0.7810(3) 0.0615(3)
H16_7 H 0.832512 0.787375 0.099515
C31_7 C 0.9263(2) 0.8335(3) 0.1055(3)
H1_11 H 0.034994 1.000016 0.402493
O4_8 O 0.33007(18) 0.0409(3) 0.9776(2)
O7_8 O 0.03778(14) 0.1572(2) 0.91530(18)
O8_8 O 0.07440(15) 0.1497(2) 0.83930(19)
C29_8 C 0.1169(2) 0.1999(3) 0.9442(3)
C30_8 C 0.1592(2) 0.2190(3) 0.9385(3)
H16_8 H 0.167488 0.212625 0.900485
C31_8 C 0.0737(2) 0.1665(3) 0.8945(3)
H1_12 H 0.965006 1.000016 0.097507
loop_
_geom_bond_atom_site_label_1
_geom_bond_atom_site_label_2
_geom_bond_site_symmetry_1
_geom_bond_site_symmetry_2
Cu3 Cl1 1_555 1_555
N5 C19 1_555 1_555
N6 Cu3 1_555 1_555
O5 C22 1_555 1_555
O6 C22 1_555 1_555
S3 C19 1_555 1_555
C19 C25 1_555 1_555
C20 N5 1_555 1_555
C21 S3 1_555 1_555
H11 C21 1_555 1_555
C22 C20 1_555 1_555
C23 N6 1_555 1_555
H12 C23 1_555 1_555
C24 C23 1_555 1_555
H13 C24 1_555 1_555
C25 C24 1_555 1_555
C26 C25 1_555 1_555
H14 C26 1_555 1_555
C27 N6 1_555 1_555
H15 C27 1_555 1_555
Cu5 O5 1_555 1_555
N12 Cu3 1_555 1_555
C20 C21 1_555 1_555
C26 C27 1_555 1_555
Cu2 N1 1_555 1_555
N1 C1 1_555 1_555
N2 Cu1 1_555 1_555
N3 Cu1 1_555 1_555
N4 C14 1_555 1_555
N7 Cu2 1_555 1_555
N8 C32 1_555 1_555
N9 C37 1_555 1_555
N10 C41 1_555 1_555
O3 Cu1 1_555 1_555
O4 C13 1_555 1_555
O7 Cu2 1_555 1_555
O8 C31 1_555 1_555
O9 Cu2 1_555 1_555
O10 C40 1_555 1_555
S2 C10 1_555 1_555
S4 C28 1_555 1_555
S5 C37 1_555 1_555
C1 C7 1_555 1_555
C5 N2 1_555 1_555
H2 C5 1_555 1_555
C6 C5 1_555 1_555
H3 C6 1_555 1_555
C7 C6 1_555 1_555
C8 C7 1_555 1_555
H4 C8 1_555 1_555
C9 N2 1_555 1_555
H5 C9 1_555 1_555
C10 N3 1_555 1_555
C11 N3 1_555 1_555
C12 S2 1_555 1_555
H6 C12 1_555 1_555
C13 O3 1_555 1_555
C14 H7 1_555 1_555
C15 C14 1_555 1_555
H8 C15 1_555 1_555
C16 C10 1_555 1_555
C17 C16 1_555 1_555
H9 C17 1_555 1_555
C18 N4 1_555 1_555
H10 C18 1_555 1_555
C28 N7 1_555 1_555
C29 N7 1_555 1_555
C30 S4 1_555 1_555
H16 C30 1_555 1_555
C31 O7 1_555 1_555
C32 H17 1_555 1_555
C33 C32 1_555 1_555
H18 C33 1_555 1_555
C34 C28 1_555 1_555
C35 C34 1_555 1_555
H19 C35 1_555 1_555
C36 N8 1_555 1_555
H20 C36 1_555 1_555
C37 C43 1_555 1_555
C38 N9 1_555 1_555
C39 S5 1_555 1_555
H21 C39 1_555 1_555
C40 O9 1_555 1_555
C41 H22 1_555 1_555
C42 C41 1_555 1_555
H23 C42 1_555 1_555
C43 C42 1_555 1_555
C44 C43 1_555 1_555
H24 C44 1_555 1_555
C45 N10 1_555 1_555
H25 C45 1_555 1_555
Cu6 N8 1_555 1_555
Cu8 N4 1_555 1_555
O11 Cu1 1_555 1_555
C8 C9 1_555 1_555
C11 C12 1_555 1_555
C11 C13 1_555 1_555
C15 C16 1_555 1_555
C17 C18 1_555 1_555
C29 C30 1_555 1_555
C29 C31 1_555 1_555
C33 C34 1_555 1_555
C35 C36 1_555 1_555
C38 C39 1_555 1_555
C38 C40 1_555 1_555
C44 C45 1_555 1_555
Cu4 O1 1_555 1_555
O2 C4 1_555 1_555
H1 C3 1_555 1_555
C4 O1 1_555 1_555
N11 Cu4 1_555 1_555
N13 Cu4 1_555 1_555
C2 C3 1_555 1_555
C2 C4 1_555 1_555
Cu7 O1_2 1_555 1_555
N11_2 Cu7 1_555 1_555
O2_2 C4_2 1_555 1_555
H1_2 C3_2 1_555 1_555
C2_2 C3_2 1_555 1_555
C2_2 C4_2 1_555 1_555
N5_2 C19_2 1_555 1_555
O5_2 C22_2 1_555 1_555
O6_2 C22_2 1_555 1_555
S3_2 C19_2 1_555 1_555
C19_2 C25_2 1_555 1_555
C20_2 N5_2 1_555 1_555
C21_2 S3_2 1_555 1_555
H11_2 C21_2 1_555 1_555
C22_2 C20_2 1_555 1_555
H13_2 C24_2 1_555 1_555
C25_2 C24_2 1_555 1_555
C26_2 C25_2 1_555 1_555
H14_2 C26_2 1_555 1_555
Cu5_2 O5_2 1_555 1_555
C20_2 C21_2 1_555 1_555
Cu3_2 Cl1_2 1_555 1_555
N6_2 Cu3_2 1_555 1_555
C23_2 N6_2 1_555 1_555
H12_2 C23_2 1_555 1_555
C27_2 N6_2 1_555 1_555
H15_2 C27_2 1_555 1_555
N12_2 Cu3_2 1_555 1_555
Cu2_2 N1_2 1_555 1_555
N1_2 C1_2 1_555 1_555
N2_2 Cu1_2 1_555 1_555
N3_2 Cu1_2 1_555 1_555
N4_2 C14_2 1_555 1_555
N7_2 Cu2_2 1_555 1_555
N8_2 C32_2 1_555 1_555
N9_2 C37_2 1_555 1_555
N13 C41_2 1_555 1_555
O3_2 Cu1_2 1_555 1_555
O9_2 Cu2_2 1_555 1_555
O10_2 C40_2 1_555 1_555
S2_2 C10_2 1_555 1_555
S4_2 C28_2 1_555 1_555
S5_2 C37_2 1_555 1_555
C1_2 C7_2 1_555 1_555
C5_2 N2_2 1_555 1_555
H2_2 C5_2 1_555 1_555
C6_2 C5_2 1_555 1_555
H3_2 C6_2 1_555 1_555
C7_2 C6_2 1_555 1_555
C8_2 C7_2 1_555 1_555
H4_2 C8_2 1_555 1_555
C9_2 N2_2 1_555 1_555
H5_2 C9_2 1_555 1_555
C10_2 N3_2 1_555 1_555
C11_2 N3_2 1_555 1_555
C12_2 S2_2 1_555 1_555
H6_2 C12_2 1_555 1_555
C13_2 O3_2 1_555 1_555
C14_2 H7_2 1_555 1_555
C15_2 C14_2 1_555 1_555
H8_2 C15_2 1_555 1_555
C16_2 C10_2 1_555 1_555
C17_2 C16_2 1_555 1_555
H9_2 C17_2 1_555 1_555
C18_2 N4_2 1_555 1_555
H10_2 C18_2 1_555 1_555
C28_2 N7_2 1_555 1_555
C32_2 H17_2 1_555 1_555
C33_2 C32_2 1_555 1_555
H18_2 C33_2 1_555 1_555
C34_2 C28_2 1_555 1_555
C35_2 C34_2 1_555 1_555
H19_2 C35_2 1_555 1_555
C36_2 N8_2 1_555 1_555
H20_2 C36_2 1_555 1_555
C37_2 C43_2 1_555 1_555
C38_2 N9_2 1_555 1_555
C39_2 S5_2 1_555 1_555
H21_2 C39_2 1_555 1_555
C40_2 O9_2 1_555 1_555
C41_2 H22_2 1_555 1_555
C42_2 C41_2 1_555 1_555
H23_2 C42_2 1_555 1_555
C43_2 C42_2 1_555 1_555
C44_2 C43_2 1_555 1_555
H24_2 C44_2 1_555 1_555
C45_2 N13 1_555 1_555
H25_2 C45_2 1_555 1_555
Cu6_2 N8_2 1_555 1_555
Cu8_2 N4_2 1_555 1_555
O11_2 Cu1_2 1_555 1_555
C8_2 C9_2 1_555 1_555
C11_2 C12_2 1_555 1_555
C11_2 C13_2 1_555 1_555
C15_2 C16_2 1_555 1_555
C17_2 C18_2 1_555 1_555
C33_2 C34_2 1_555 1_555
C35_2 C36_2 1_555 1_555
C38_2 C39_2 1_555 1_555
C38_2 C40_2 1_555 1_555
C44_2 C45_2 1_555 1_555
Cu1_3 Cl1_3 1_555 1_555
Cu2_3 N1_3 1_555 1_555
Cu6_2 Cl1_3 1_555 1_555
Cu4_2 O1_3 1_555 1_555
N1_3 C1_3 1_555 1_555
N2_3 Cu1_3 1_555 1_555
N3_3 Cu1_3 1_555 1_555
N4_3 C14_3 1_555 1_555
N5_3 C19_3 1_555 1_555
N6_3 Cu6_2 1_555 1_555
N7_3 Cu2_3 1_555 1_555
N12_2 C32_3 1_555 1_555
N9_3 C37_3 1_555 1_555
N10_2 C41_3 1_555 1_555
O1_3 Cu2_3 1_555 1_555
O2_3 C4_3 1_555 1_555
O3_3 Cu1_3 1_555 1_555
O4_2 C13_3 1_555 1_555
O5_3 C22_3 1_555 1_555
O6_3 C22_3 1_555 1_555
O7_2 Cu2_3 1_555 1_555
O8_2 C31_2 1_555 1_555
O9_3 Cu2_3 1_555 1_555
O10_3 C40_3 1_555 1_555
S1_3 C1_3 1_555 1_555
S2_3 C10_3 1_555 1_555
S3_3 C19_3 1_555 1_555
S4_3 C28_3 1_555 1_555
S5_3 C37_3 1_555 1_555
C1_3 C7_3 1_555 1_555
C2_3 N1_3 1_555 1_555
C3_3 S1_3 1_555 1_555
H1_3 C3_3 1_555 1_555
C4_3 O1_3 1_555 1_555
C5_3 N2_3 1_555 1_555
H2_3 C5_3 1_555 1_555
C6_3 C5_3 1_555 1_555
H3_3 C6_3 1_555 1_555
C7_3 C6_3 1_555 1_555
C8_3 C7_3 1_555 1_555
H4_3 C8_3 1_555 1_555
C9_3 N2_3 1_555 1_555
H5_3 C9_3 1_555 1_555
C10_3 N3_3 1_555 1_555
C11_3 N3_3 1_555 1_555
C12_3 S2_3 1_555 1_555
H6_3 C12_3 1_555 1_555
C13_3 O3_3 1_555 1_555
C14_3 H7_3 1_555 1_555
C15_3 C14_3 1_555 1_555
H8_3 C15_3 1_555 1_555
C16_3 C10_3 1_555 1_555
C17_3 C16_3 1_555 1_555
H9_3 C17_3 1_555 1_555
C18_3 N4_3 1_555 1_555
H10_3 C18_3 1_555 1_555
C19_3 C25_3 1_555 1_555
C20_3 N5_3 1_555 1_555
C21_3 S3_3 1_555 1_555
H11_3 C21_3 1_555 1_555
C22_3 C20_3 1_555 1_555
C23_3 N6_3 1_555 1_555
H12_3 C23_3 1_555 1_555
C24_3 C23_3 1_555 1_555
H13_3 C24_3 1_555 1_555
C25_3 C24_3 1_555 1_555
C26_3 C25_3 1_555 1_555
H14_3 C26_3 1_555 1_555
C27_3 N6_3 1_555 1_555
H15_3 C27_3 1_555 1_555
C28_3 N7_3 1_555 1_555
C29_2 N7_3 1_555 1_555
C30_2 S4_3 1_555 1_555
H16_2 C30_2 1_555 1_555
C31_2 O7_2 1_555 1_555
C32_3 H17_3 1_555 1_555
C33_3 C32_3 1_555 1_555
H18_3 C33_3 1_555 1_555
C34_3 C28_3 1_555 1_555
C35_3 C34_3 1_555 1_555
H19_3 C35_3 1_555 1_555
C36_3 N12_2 1_555 1_555
H20_3 C36_3 1_555 1_555
C37_3 C43_3 1_555 1_555
C38_3 N9_3 1_555 1_555
C39_3 S5_3 1_555 1_555
H21_3 C39_3 1_555 1_555
C40_3 O9_3 1_555 1_555
C41_3 H22_3 1_555 1_555
C42_3 C41_3 1_555 1_555
H23_3 C42_3 1_555 1_555
C43_3 C42_3 1_555 1_555
C44_3 C43_3 1_555 1_555
H24_3 C44_3 1_555 1_555
C45_3 N10_2 1_555 1_555
H25_3 C45_3 1_555 1_555
Cu5_3 O5_3 1_555 1_555
Cu8_3 N4_3 1_555 1_555
N11_3 Cu4_2 1_555 1_555
N13_2 Cu4_2 1_555 1_555
O11_3 Cu1_3 1_555 1_555
C2_3 C3_3 1_555 1_555
C2_3 C4_3 1_555 1_555
C8_3 C9_3 1_555 1_555
C11_3 C12_3 1_555 1_555
C11_3 C13_3 1_555 1_555
C15_3 C16_3 1_555 1_555
C17_3 C18_3 1_555 1_555
C20_3 C21_3 1_555 1_555
C26_3 C27_3 1_555 1_555
C29_2 C30_2 1_555 1_555
C29_2 C31_2 1_555 1_555
C33_3 C34_3 1_555 1_555
C35_3 C36_3 1_555 1_555
C38_3 C39_3 1_555 1_555
C38_3 C40_3 1_555 1_555
C44_3 C45_3 1_555 1_555
Cu7_2 O1_4 1_555 1_555
N5_4 C19_4 1_555 1_555
O5_4 C22_4 1_555 1_555
O6_4 C22_4 1_555 1_555
O8_3 C31_3 1_555 1_555
S3_4 C19_4 1_555 1_555
C19_4 C25_4 1_555 1_555
C20_4 N5_4 1_555 1_555
C21_4 S3_4 1_555 1_555
H11_4 C21_4 1_555 1_555
C22_4 C20_4 1_555 1_555
H13_4 C24_4 1_555 1_555
C25_4 C24_4 1_555 1_555
C26_4 C25_4 1_555 1_555
H14_4 C26_4 1_555 1_555
H16_3 C30_3 1_555 1_555
C31_3 O7_3 1_555 1_555
Cu5_4 O5_4 1_555 1_555
N11_4 Cu7_2 1_555 1_555
C20_4 C21_4 1_555 1_555
C29_3 C30_3 1_555 1_555
C29_3 C31_3 1_555 1_555
Cu1_4 Cl1_4 1_555 1_555
Cu2_4 N1_4 1_555 1_555
Cu6 Cl1_4 1_555 1_555
N1_4 C1_4 1_555 1_555
N2_4 Cu1_4 1_555 1_555
N3_4 Cu1_4 1_555 1_555
N4_4 C14_4 1_555 1_555
N6_4 Cu6 1_555 1_555
N7_4 Cu2_4 1_555 1_555
N12 C32_4 1_555 1_555
N9_4 C37_4 1_555 1_555
N13_2 C41_4 1_555 1_555
O2_4 C4_4 1_555 1_555
O3_4 Cu1_4 1_555 1_555
O9_4 Cu2_4 1_555 1_555
O10_4 C40_4 1_555 1_555
S1_4 C1_4 1_555 1_555
S2_4 C10_4 1_555 1_555
S4_4 C28_4 1_555 1_555
S5_4 C37_4 1_555 1_555
C1_4 C7_4 1_555 1_555
C2_4 N1_4 1_555 1_555
C3_4 S1_4 1_555 1_555
H1_4 C3_4 1_555 1_555
C5_4 N2_4 1_555 1_555
H2_4 C5_4 1_555 1_555
C6_4 C5_4 1_555 1_555
H3_4 C6_4 1_555 1_555
C7_4 C6_4 1_555 1_555
C8_4 C7_4 1_555 1_555
H4_4 C8_4 1_555 1_555
C9_4 N2_4 1_555 1_555
H5_4 C9_4 1_555 1_555
C10_4 N3_4 1_555 1_555
C11_4 N3_4 1_555 1_555
C12_4 S2_4 1_555 1_555
H6_4 C12_4 1_555 1_555
C13_4 O3_4 1_555 1_555
C14_4 H7_4 1_555 1_555
C15_4 C14_4 1_555 1_555
H8_4 C15_4 1_555 1_555
C16_4 C10_4 1_555 1_555
C17_4 C16_4 1_555 1_555
H9_4 C17_4 1_555 1_555
C18_4 N4_4 1_555 1_555
H10_4 C18_4 1_555 1_555
C23_4 N6_4 1_555 1_555
H12_4 C23_4 1_555 1_555
C27_4 N6_4 1_555 1_555
H15_4 C27_4 1_555 1_555
C28_4 N7_4 1_555 1_555
C32_4 H17_4 1_555 1_555
C33_4 C32_4 1_555 1_555
H18_4 C33_4 1_555 1_555
C34_4 C28_4 1_555 1_555
C35_4 C34_4 1_555 1_555
H19_4 C35_4 1_555 1_555
C36_4 N12 1_555 1_555
H20_4 C36_4 1_555 1_555
C37_4 C43_4 1_555 1_555
C38_4 N9_4 1_555 1_555
C39_4 S5_4 1_555 1_555
H21_4 C39_4 1_555 1_555
C40_4 O9_4 1_555 1_555
C41_4 H22_4 1_555 1_555
C42_4 C41_4 1_555 1_555
H23_4 C42_4 1_555 1_555
C43_4 C42_4 1_555 1_555
C44_4 C43_4 1_555 1_555
H24_4 C44_4 1_555 1_555
C45_4 N13_2 1_555 1_555
H25_4 C45_4 1_555 1_555
Cu8_4 N4_4 1_555 1_555
O11_4 Cu1_4 1_555 1_555
C2_4 C3_4 1_555 1_555
C2_4 C4_4 1_555 1_555
C8_4 C9_4 1_555 1_555
C11_4 C12_4 1_555 1_555
C11_4 C13_4 1_555 1_555
C15_4 C16_4 1_555 1_555
C17_4 C18_4 1_555 1_555
C33_4 C34_4 1_555 1_555
C35_4 C36_4 1_555 1_555
C38_4 C39_4 1_555 1_555
C38_4 C40_4 1_555 1_555
C44_4 C45_4 1_555 1_555
Cu8_4 O1_5 1_555 1_555
O2_5 C4_5 1_555 1_555
H1_5 C3_5 1_555 1_555
C4_5 O1_5 1_555 1_555
N13_3 Cu8_4 1_555 1_555
C2_5 C3_5 1_555 1_555
C2_5 C4_5 1_555 1_555
Cu2_5 N1_5 1_555 1_555
N1_5 C1_5 1_555 1_555
N2_5 Cu5_2 1_555 1_555
N3_5 Cu5_2 1_555 1_555
N11_4 C14_5 1_555 1_555
N7_5 Cu2_5 1_555 1_555
N8_3 C32_5 1_555 1_555
N9_5 C37_5 1_555 1_555
N10_3 C41_5 1_555 1_555
O3_5 Cu5_2 1_555 1_555
O4_4 C13_5 1_555 1_555
O7_4 Cu2_5 1_555 1_555
O8_4 C31_4 1_555 1_555
O9_5 Cu2_5 1_555 1_555
O10_5 C40_5 1_555 1_555
S2_5 C10_5 1_555 1_555
S4_5 C28_5 1_555 1_555
S5_5 C37_5 1_555 1_555
C1_5 C7_5 1_555 1_555
C5_5 N2_5 1_555 1_555
H2_5 C5_5 1_555 1_555
C6_5 C5_5 1_555 1_555
H3_5 C6_5 1_555 1_555
C7_5 C6_5 1_555 1_555
C8_5 C7_5 1_555 1_555
H4_5 C8_5 1_555 1_555
C9_5 N2_5 1_555 1_555
H5_5 C9_5 1_555 1_555
C10_5 N3_5 1_555 1_555
C11_5 N3_5 1_555 1_555
C12_5 S2_5 1_555 1_555
H6_5 C12_5 1_555 1_555
C13_5 O3_5 1_555 1_555
C14_5 H7_5 1_555 1_555
C15_5 C14_5 1_555 1_555
H8_5 C15_5 1_555 1_555
C16_5 C10_5 1_555 1_555
C17_5 C16_5 1_555 1_555
H9_5 C17_5 1_555 1_555
C18_5 N11_4 1_555 1_555
H10_5 C18_5 1_555 1_555
C28_5 N7_5 1_555 1_555
C29_4 N7_5 1_555 1_555
C30_4 S4_5 1_555 1_555
H16_4 C30_4 1_555 1_555
C31_4 O7_4 1_555 1_555
C32_5 H17_5 1_555 1_555
C33_5 C32_5 1_555 1_555
H18_5 C33_5 1_555 1_555
C34_5 C28_5 1_555 1_555
C35_5 C34_5 1_555 1_555
H19_5 C35_5 1_555 1_555
C36_5 N8_3 1_555 1_555
H20_5 C36_5 1_555 1_555
C37_5 C43_5 1_555 1_555
C38_5 N9_5 1_555 1_555
C39_5 S5_5 1_555 1_555
H21_5 C39_5 1_555 1_555
C40_5 O9_5 1_555 1_555
C41_5 H22_5 1_555 1_555
C42_5 C41_5 1_555 1_555
H23_5 C42_5 1_555 1_555
C43_5 C42_5 1_555 1_555
C44_5 C43_5 1_555 1_555
H24_5 C44_5 1_555 1_555
C45_5 N10_3 1_555 1_555
H25_5 C45_5 1_555 1_555
Cu6_3 N8_3 1_555 1_555
C8_5 C9_5 1_555 1_555
C11_5 C12_5 1_555 1_555
C11_5 C13_5 1_555 1_555
C15_5 C16_5 1_555 1_555
C17_5 C18_5 1_555 1_555
C29_4 C30_4 1_555 1_555
C29_4 C31_4 1_555 1_555
C33_5 C34_5 1_555 1_555
C35_5 C36_5 1_555 1_555
C38_5 C39_5 1_555 1_555
C38_5 C40_5 1_555 1_555
C44_5 C45_5 1_555 1_555
Cu3_3 Cl1_5 1_555 1_555
N5_5 C19_5 1_555 1_555
N6_5 Cu3_3 1_555 1_555
O11_2 C22_5 1_555 1_555
O6_5 C22_5 1_555 1_555
S3_5 C19_5 1_555 1_555
C19_5 C25_5 1_555 1_555
C20_5 N5_5 1_555 1_555
C21_5 S3_5 1_555 1_555
H11_5 C21_5 1_555 1_555
C22_5 C20_5 1_555 1_555
C23_5 N6_5 1_555 1_555
H12_5 C23_5 1_555 1_555
C24_5 C23_5 1_555 1_555
H13_5 C24_5 1_555 1_555
C25_5 C24_5 1_555 1_555
C26_5 C25_5 1_555 1_555
H14_5 C26_5 1_555 1_555
C27_5 N6_5 1_555 1_555
H15_5 C27_5 1_555 1_555
N12_3 Cu3_3 1_555 1_555
C20_5 C21_5 1_555 1_555
C26_5 C27_5 1_555 1_555
Cu2_6 N1_6 1_555 1_555
N1_6 C1_6 1_555 1_555
N2_6 Cu5 1_555 1_555
N3_6 Cu5 1_555 1_555
N11_3 C14_6 1_555 1_555
N7_6 Cu2_6 1_555 1_555
N8_4 C32_6 1_555 1_555
N9_6 C37_6 1_555 1_555
N13_3 C41_6 1_555 1_555
O3_6 Cu5 1_555 1_555
O9_6 Cu2_6 1_555 1_555
O10_6 C40_6 1_555 1_555
S2_6 C10_6 1_555 1_555
S4_6 C28_6 1_555 1_555
S5_6 C37_6 1_555 1_555
C1_6 C7_6 1_555 1_555
C5_6 N2_6 1_555 1_555
H2_6 C5_6 1_555 1_555
C6_6 C5_6 1_555 1_555
H3_6 C6_6 1_555 1_555
C7_6 C6_6 1_555 1_555
C8_6 C7_6 1_555 1_555
H4_6 C8_6 1_555 1_555
C9_6 N2_6 1_555 1_555
H5_6 C9_6 1_555 1_555
C10_6 N3_6 1_555 1_555
C11_6 N3_6 1_555 1_555
C12_6 S2_6 1_555 1_555
H6_6 C12_6 1_555 1_555
C13_6 O3_6 1_555 1_555
C14_6 H7_6 1_555 1_555
C15_6 C14_6 1_555 1_555
H8_6 C15_6 1_555 1_555
C16_6 C10_6 1_555 1_555
C17_6 C16_6 1_555 1_555
H9_6 C17_6 1_555 1_555
C18_6 N11_3 1_555 1_555
H10_6 C18_6 1_555 1_555
C28_6 N7_6 1_555 1_555
C32_6 H17_6 1_555 1_555
C33_6 C32_6 1_555 1_555
H18_6 C33_6 1_555 1_555
C34_6 C28_6 1_555 1_555
C35_6 C34_6 1_555 1_555
H19_6 C35_6 1_555 1_555
C36_6 N8_4 1_555 1_555
H20_6 C36_6 1_555 1_555
C37_6 C43_6 1_555 1_555
C38_6 N9_6 1_555 1_555
C39_6 S5_6 1_555 1_555
H21_6 C39_6 1_555 1_555
C40_6 O9_6 1_555 1_555
C41_6 H22_6 1_555 1_555
C42_6 C41_6 1_555 1_555
H23_6 C42_6 1_555 1_555
C43_6 C42_6 1_555 1_555
C44_6 C43_6 1_555 1_555
H24_6 C44_6 1_555 1_555
C45_6 N13_3 1_555 1_555
H25_6 C45_6 1_555 1_555
Cu6_4 N8_4 1_555 1_555
C8_6 C9_6 1_555 1_555
C11_6 C12_6 1_555 1_555
C11_6 C13_6 1_555 1_555
C15_6 C16_6 1_555 1_555
C17_6 C18_6 1_555 1_555
C33_6 C34_6 1_555 1_555
C35_6 C36_6 1_555 1_555
C38_6 C39_6 1_555 1_555
C38_6 C40_6 1_555 1_555
C44_6 C45_6 1_555 1_555
Cu3_4 Cl1_6 1_555 1_555
N6_6 Cu3_4 1_555 1_555
C23_6 N6_6 1_555 1_555
H12_6 C23_6 1_555 1_555
C27_6 N6_6 1_555 1_555
H15_6 C27_6 1_555 1_555
N12_4 Cu3_4 1_555 1_555
N5_6 C19_6 1_555 1_555
O11 C22_6 1_555 1_555
O6_6 C22_6 1_555 1_555
S3_6 C19_6 1_555 1_555
C19_6 C25_6 1_555 1_555
C20_6 N5_6 1_555 1_555
C21_6 S3_6 1_555 1_555
H11_6 C21_6 1_555 1_555
C22_6 C20_6 1_555 1_555
H13_6 C24_6 1_555 1_555
C25_6 C24_6 1_555 1_555
C26_6 C25_6 1_555 1_555
H14_6 C26_6 1_555 1_555
C20_6 C21_6 1_555 1_555
O2_6 C4_6 1_555 1_555
H1_6 C3_6 1_555 1_555
C2_6 C3_6 1_555 1_555
C2_6 C4_6 1_555 1_555
Cu8_3 O1_6 1_555 1_555
Cu5_4 Cl1_7 1_555 1_555
Cu2_7 N1_7 1_555 1_555
Cu6_4 Cl1_7 1_555 1_555
Cu8_2 O1_7 1_555 1_555
N1_7 C1_7 1_555 1_555
N2_7 Cu5_4 1_555 1_555
N3_7 Cu5_4 1_555 1_555
N11_2 C14_7 1_555 1_555
N5_7 C19_7 1_555 1_555
N6_7 Cu6_4 1_555 1_555
N7_7 Cu2_7 1_555 1_555
N12_4 C32_7 1_555 1_555
N9_7 C37_7 1_555 1_555
N10_4 C41_7 1_555 1_555
O1_7 Cu2_7 1_555 1_555
O2_7 C4_7 1_555 1_555
O3_7 Cu5_4 1_555 1_555
O4_5 C13_7 1_555 1_555
O11_4 C22_7 1_555 1_555
O6_7 C22_7 1_555 1_555
O7_5 Cu2_7 1_555 1_555
O8_5 C31_5 1_555 1_555
O9_7 Cu2_7 1_555 1_555
O10_7 C40_7 1_555 1_555
S1_7 C1_7 1_555 1_555
S2_7 C10_7 1_555 1_555
S3_7 C19_7 1_555 1_555
S4_7 C28_7 1_555 1_555
S5_7 C37_7 1_555 1_555
C1_7 C7_7 1_555 1_555
C2_7 N1_7 1_555 1_555
C3_7 S1_7 1_555 1_555
H1_7 C3_7 1_555 1_555
C4_7 O1_7 1_555 1_555
C5_7 N2_7 1_555 1_555
H2_7 C5_7 1_555 1_555
C6_7 C5_7 1_555 1_555
H3_7 C6_7 1_555 1_555
C7_7 C6_7 1_555 1_555
C8_7 C7_7 1_555 1_555
H4_7 C8_7 1_555 1_555
C9_7 N2_7 1_555 1_555
H5_7 C9_7 1_555 1_555
C10_7 N3_7 1_555 1_555
C11_7 N3_7 1_555 1_555
C12_7 S2_7 1_555 1_555
H6_7 C12_7 1_555 1_555
C13_7 O3_7 1_555 1_555
C14_7 H7_7 1_555 1_555
C15_7 C14_7 1_555 1_555
H8_7 C15_7 1_555 1_555
C16_7 C10_7 1_555 1_555
C17_7 C16_7 1_555 1_555
H9_7 C17_7 1_555 1_555
C18_7 N11_2 1_555 1_555
H10_7 C18_7 1_555 1_555
C19_7 C25_7 1_555 1_555
C20_7 N5_7 1_555 1_555
C21_7 S3_7 1_555 1_555
H11_7 C21_7 1_555 1_555
C22_7 C20_7 1_555 1_555
C23_7 N6_7 1_555 1_555
H12_7 C23_7 1_555 1_555
C24_7 C23_7 1_555 1_555
H13_7 C24_7 1_555 1_555
C25_7 C24_7 1_555 1_555
C26_7 C25_7 1_555 1_555
H14_7 C26_7 1_555 1_555
C27_7 N6_7 1_555 1_555
H15_7 C27_7 1_555 1_555
C28_7 N7_7 1_555 1_555
C29_5 N7_7 1_555 1_555
C30_5 S4_7 1_555 1_555
H16_5 C30_5 1_555 1_555
C31_5 O7_5 1_555 1_555
C32_7 H17_7 1_555 1_555
C33_7 C32_7 1_555 1_555
H18_7 C33_7 1_555 1_555
C34_7 C28_7 1_555 1_555
C35_7 C34_7 1_555 1_555
H19_7 C35_7 1_555 1_555
C36_7 N12_4 1_555 1_555
H20_7 C36_7 1_555 1_555
C37_7 C43_7 1_555 1_555
C38_7 N9_7 1_555 1_555
C39_7 S5_7 1_555 1_555
H21_7 C39_7 1_555 1_555
C40_7 O9_7 1_555 1_555
C41_7 H22_7 1_555 1_555
C42_7 C41_7 1_555 1_555
H23_7 C42_7 1_555 1_555
C43_7 C42_7 1_555 1_555
C44_7 C43_7 1_555 1_555
H24_7 C44_7 1_555 1_555
C45_7 N10_4 1_555 1_555
H25_7 C45_7 1_555 1_555
N13_4 Cu8_2 1_555 1_555
C2_7 C3_7 1_555 1_555
C2_7 C4_7 1_555 1_555
C8_7 C9_7 1_555 1_555
C11_7 C12_7 1_555 1_555
C11_7 C13_7 1_555 1_555
C15_7 C16_7 1_555 1_555
C17_7 C18_7 1_555 1_555
C20_7 C21_7 1_555 1_555
C26_7 C27_7 1_555 1_555
C29_5 C30_5 1_555 1_555
C29_5 C31_5 1_555 1_555
C33_7 C34_7 1_555 1_555
C35_7 C36_7 1_555 1_555
C38_7 C39_7 1_555 1_555
C38_7 C40_7 1_555 1_555
C44_7 C45_7 1_555 1_555
Cu5_3 Cl1_8 1_555 1_555
Cu2_8 N1_8 1_555 1_555
Cu6_3 Cl1_8 1_555 1_555
N1_8 C1_8 1_555 1_555
N2_8 Cu5_3 1_555 1_555
N3_8 Cu5_3 1_555 1_555
N11 C14_8 1_555 1_555
N6_8 Cu6_3 1_555 1_555
N7_8 Cu2_8 1_555 1_555
N12_3 C32_8 1_555 1_555
N9_8 C37_8 1_555 1_555
N13_4 C41_8 1_555 1_555
O2_8 C4_8 1_555 1_555
O3_8 Cu5_3 1_555 1_555
O9_8 Cu2_8 1_555 1_555
O10_8 C40_8 1_555 1_555
S1_8 C1_8 1_555 1_555
S2_8 C10_8 1_555 1_555
S4_8 C28_8 1_555 1_555
S5_8 C37_8 1_555 1_555
C1_8 C7_8 1_555 1_555
C2_8 N1_8 1_555 1_555
C3_8 S1_8 1_555 1_555
H1_8 C3_8 1_555 1_555
C5_8 N2_8 1_555 1_555
H2_8 C5_8 1_555 1_555
C6_8 C5_8 1_555 1_555
H3_8 C6_8 1_555 1_555
C7_8 C6_8 1_555 1_555
C8_8 C7_8 1_555 1_555
H4_8 C8_8 1_555 1_555
C9_8 N2_8 1_555 1_555
H5_8 C9_8 1_555 1_555
C10_8 N3_8 1_555 1_555
C11_8 N3_8 1_555 1_555
C12_8 S2_8 1_555 1_555
H6_8 C12_8 1_555 1_555
C13_8 O3_8 1_555 1_555
C14_8 H7_8 1_555 1_555
C15_8 C14_8 1_555 1_555
H8_8 C15_8 1_555 1_555
C16_8 C10_8 1_555 1_555
C17_8 C16_8 1_555 1_555
H9_8 C17_8 1_555 1_555
C18_8 N11 1_555 1_555
H10_8 C18_8 1_555 1_555
C23_8 N6_8 1_555 1_555
H12_8 C23_8 1_555 1_555
C27_8 N6_8 1_555 1_555
H15_8 C27_8 1_555 1_555
C28_8 N7_8 1_555 1_555
C32_8 H17_8 1_555 1_555
C33_8 C32_8 1_555 1_555
H18_8 C33_8 1_555 1_555
C34_8 C28_8 1_555 1_555
C35_8 C34_8 1_555 1_555
H19_8 C35_8 1_555 1_555
C36_8 N12_3 1_555 1_555
H20_8 C36_8 1_555 1_555
C37_8 C43_8 1_555 1_555
C38_8 N9_8 1_555 1_555
C39_8 S5_8 1_555 1_555
H21_8 C39_8 1_555 1_555
C40_8 O9_8 1_555 1_555
C41_8 H22_8 1_555 1_555
C42_8 C41_8 1_555 1_555
H23_8 C42_8 1_555 1_555
C43_8 C42_8 1_555 1_555
C44_8 C43_8 1_555 1_555
H24_8 C44_8 1_555 1_555
C45_8 N13_4 1_555 1_555
H25_8 C45_8 1_555 1_555
C2_8 C3_8 1_555 1_555
C2_8 C4_8 1_555 1_555
C8_8 C9_8 1_555 1_555
C11_8 C12_8 1_555 1_555
C11_8 C13_8 1_555 1_555
C15_8 C16_8 1_555 1_555
C17_8 C18_8 1_555 1_555
C33_8 C34_8 1_555 1_555
C35_8 C36_8 1_555 1_555
C38_8 C39_8 1_555 1_555
C38_8 C40_8 1_555 1_555
C44_8 C45_8 1_555 1_555
Cu8 O1_8 1_555 1_555
N5_8 C19_8 1_555 1_555
O11_3 C22_8 1_555 1_555
O6_8 C22_8 1_555 1_555
O8_6 C31_6 1_555 1_555
S3_8 C19_8 1_555 1_555
C19_8 C25_8 1_555 1_555
C20_8 N5_8 1_555 1_555
C21_8 S3_8 1_555 1_555
H11_8 C21_8 1_555 1_555
C22_8 C20_8 1_555 1_555
H13_8 C24_8 1_555 1_555
C25_8 C24_8 1_555 1_555
C26_8 C25_8 1_555 1_555
H14_8 C26_8 1_555 1_555
H16_6 C30_6 1_555 1_555
C31_6 O7_6 1_555 1_555
C20_8 C21_8 1_555 1_555
C29_6 C30_6 1_555 1_555
C29_6 C31_6 1_555 1_555
O8_7 C31_7 1_555 1_555
H16_7 C30_7 1_555 1_555
C31_7 O7_7 1_555 1_555
C29_7 C30_7 1_555 1_555
C29_7 C31_7 1_555 1_555
O8_8 C31_8 1_555 1_555
H16_8 C30_8 1_555 1_555
C31_8 O7_8 1_555 1_555
C29_8 C30_8 1_555 1_555
C29_8 C31_8 1_555 1_555

#END
