
###############################################################################
#
# This file contains modified crystal structure data generated from the
# MOF subset of the Cambridge Structural Database (CSD) v543 
# hosted by the Cambridge Crystallographic Data Centre (CCDC).
#
# This work is licensed under the Creative Commons
# Attribution-NonCommercial-ShareAlike 4.0 International License.
# To view a copy of this license, visit
# http://creativecommons.org/licenses/by-nc-sa/4.0/
# or send a letter to
# Creative Commons, PO Box 1866, Mountain View, CA 94042, USA.
#
# CIF created using the CSD Python API on 29 September 2022
# The structure has been converted into the P1 space group
# The structure has a 3D framework
# The original CSD entry LITTEQ is in the monoclinic crystal system
# The framework has been calculated to contain at least 10.0% void space
# The void calculation uses a probe of radius 1.32A, grid spacing 0.4
#
###############################################################################

data_LITTEQ
_chemical_formula_moiety         '(C168 H136 Co8 N16 O40)n'
_symmetry_cell_setting           triclinic
_symmetry_space_group_name_H-M   'P 1'
_symmetry_Int_Tables_number      1
_space_group_name_Hall           'P 1'
loop_
_symmetry_equiv_pos_site_id
_symmetry_equiv_pos_as_xyz
1 x,y,z
_cell_length_a                   23.9316(11)
_cell_length_b                   14.0755(7)
_cell_length_c                   16.0407(8)
_cell_angle_alpha                90
_cell_angle_beta                 121.920(2)
_cell_angle_gamma                90
_cell_volume                     4586.25
loop_
_atom_site_label
_atom_site_type_symbol
_atom_site_fract_x
_atom_site_fract_y
_atom_site_fract_z
Co1 Co 0.17957(2) 0.24892(3) 0.43785(3)
O2 O 0.16858(12) 0.18668(16) 0.31575(16)
O3 O 0.27673(12) 0.18769(17) 0.42018(17)
N1 N 0.08729(13) 0.27706(19) 0.41063(19)
C1 C 0.04213(18) 0.2095(3) 0.3735(3)
H2 H 0.0532 0.1503 0.3576
C4 C 0.00959(16) 0.3777(3) 0.4193(3)
H4 H 0.0001 0.4373 0.4369
C5 C 0.07025(16) 0.3599(2) 0.4326(3)
H5 H 0.1021 0.4093 0.4589
C10 C 0.22689(17) 0.1664(2) 0.3395(2)
C11 C 0.23427(16) 0.1105(2) 0.2657(2)
C12 C 0.18359(17) 0.0507(3) 0.2067(3)
H12 H 0.1448 0.0510 0.2092
C15 C 0.29666(16) 0.0507(2) 0.1953(2)
C16 C 0.35367(17) 0.0555(3) 0.1882(3)
H14 H 0.3574 0.0141 0.1447
C17 C 0.4024(2) 0.1186(3) 0.2430(3)
H15 H 0.4401 0.1207 0.2377
C18 C 0.3978(2) 0.1807(3) 0.3073(3)
H16 H 0.4326 0.2240 0.3458
C19 C 0.34372(18) 0.1795(3) 0.3150(3)
H17 H 0.3409 0.2230 0.3579
C20 C 0.29178(16) 0.1145(2) 0.2603(2)
Co8 Co 0.32043(2) 0.25108(3) 0.56215(3)
O12 O 0.22327(12) 0.31231(17) 0.57982(17)
O13 O 0.19777(11) 0.37330(16) 0.39582(17)
O16 O 0.19258(11) 0.12264(15) 0.50598(16)
O4 O 0.30223(11) 0.87330(16) 0.10418(17)
O5 O 0.19258(11) 0.87736(15) 0.00598(16)
C13 C 0.18851(16) 0.9890(2) 0.1424(3)
H13 H 0.1527 0.9481 0.1013
C14 C 0.24367(15) 0.9863(2) 0.1376(2)
C21 C 0.24684(16) 0.9075(2) 0.0771(2)
Co5 Co 0.32043(2) 0.74892(3) 0.06215(3)
Co7 Co 0.17957(2) 0.75108(3) 0.93785(3)
O1 O 0.91542(14) 0.4305(2) 0.4715(2)
N2 N 0.89896(13) 0.3157(2) 0.3622(2)
H1 H 0.8683 0.2805 0.3145
C2 C 0.97999(19) 0.2204(3) 0.3568(3)
H3 H 0.9492 0.1697 0.3300
C3 C 0.96269(16) 0.3065(2) 0.3795(2)
C6 C 0.87886(18) 0.3724(3) 0.4102(3)
C7 C 0.80984(18) 0.3562(3) 0.3865(3)
H6 H 0.7826 0.3283 0.3200
H7 H 0.7898 0.4173 0.3877
C8 C 0.8124(2) 0.2881(3) 0.4632(3)
H8 H 0.8239 0.2238 0.4519
H9 H 0.8479 0.3090 0.5293
C9 C 0.7484(2) 0.2824(3) 0.4614(3)
H10 H 0.7362 0.3470 0.4707
H11 H 0.7132 0.2597 0.3959
O6 O 0.58458(14) 0.0695(2) 0.5285(2)
N3 N 0.41271(13) 0.22294(19) 0.58937(19)
N4 N 0.60104(13) 0.1843(2) 0.6378(2)
H18 H 0.6317 0.2195 0.6855
C22 C 0.45787(18) 0.2905(3) 0.6265(3)
H19 H 0.4468 0.3497 0.6424
C23 C 0.52001(19) 0.2796(3) 0.6432(3)
H20 H 0.5508 0.3303 0.6700
C24 C 0.53731(16) 0.1935(2) 0.6205(2)
C25 C 0.49041(16) 0.1223(3) 0.5807(3)
H21 H 0.4999 0.0627 0.5631
C26 C 0.42975(16) 0.1401(2) 0.5674(3)
H22 H 0.3979 0.0907 0.5411
C27 C 0.62114(18) 0.1276(3) 0.5898(3)
C28 C 0.69016(18) 0.1438(3) 0.6135(3)
H23 H 0.7174 0.1717 0.6800
H24 H 0.7102 0.0827 0.6123
C29 C 0.6876(2) 0.2119(3) 0.5368(3)
H25 H 0.6761 0.2762 0.5481
H26 H 0.6521 0.1910 0.4707
C30 C 0.7516(2) 0.2176(3) 0.5386(3)
H27 H 0.7638 0.1530 0.5293
H28 H 0.7868 0.2403 0.6041
O7 O 0.33142(12) 0.31332(16) 0.68425(16)
O9 O 0.19777(11) 0.62670(16) 0.89582(17)
O10 O 0.30742(11) 0.62264(15) 0.99402(16)
C31 C 0.27311(17) 0.3336(2) 0.6605(2)
C32 C 0.26573(16) 0.3895(2) 0.7343(2)
C33 C 0.31641(17) 0.4493(3) 0.7933(3)
H29 H 0.3552 0.4490 0.7908
C34 C 0.31149(16) 0.5110(2) 0.8576(3)
H30 H 0.3473 0.5519 0.8987
C35 C 0.25633(15) 0.5137(2) 0.8624(2)
C36 C 0.20334(16) 0.4493(2) 0.8047(2)
C37 C 0.14633(17) 0.4445(3) 0.8118(3)
H31 H 0.1426 0.4859 0.8553
C38 C 0.0976(2) 0.3814(3) 0.7570(3)
H32 H 0.0599 0.3793 0.7623
C39 C 0.1022(2) 0.3193(3) 0.6927(3)
H33 H 0.0674 0.2760 0.6542
C40 C 0.15628(18) 0.3205(3) 0.6850(3)
H34 H 0.1591 0.2770 0.6421
C41 C 0.20822(16) 0.3855(2) 0.7397(2)
C42 C 0.25316(16) 0.5925(2) 0.9229(2)
O14 O 0.30223(11) 0.12670(16) 0.60418(17)
O15 O 0.30742(11) 0.37736(15) 0.49402(16)
C34_2 C 0.18851(16) 0.0110(2) 0.6424(3)
H30_2 H 0.1527 0.0519 0.6013
C35_2 C 0.24367(15) 0.0137(2) 0.6376(2)
C42_2 C 0.24684(16) 0.0925(2) 0.5771(2)
O11 O 0.22327(12) 0.68769(17) 0.07982(17)
N3_2 N 0.08729(13) 0.72294(19) 0.91063(19)
C22_2 C 0.04213(18) 0.7905(3) 0.8735(3)
H19_2 H 0.0532 0.8497 0.8576
C25_2 C 0.00959(16) 0.6223(3) 0.9193(3)
H21_2 H 0.0001 0.5627 0.9369
C26_2 C 0.07025(16) 0.6401(2) 0.9326(3)
H22_2 H 0.1021 0.5907 0.9589
O7_2 O 0.16858(12) 0.81332(16) 0.81575(16)
O8 O 0.27673(12) 0.81231(17) 0.92018(17)
C31_2 C 0.22689(17) 0.8336(2) 0.8395(2)
C32_2 C 0.23427(16) 0.8895(2) 0.7657(2)
C33_2 C 0.18359(17) 0.9493(3) 0.7067(3)
H29_2 H 0.1448 0.9490 0.7092
C36_2 C 0.29666(16) 0.9493(2) 0.6953(2)
C37_2 C 0.35367(17) 0.9445(3) 0.6882(3)
H31_2 H 0.3574 0.9859 0.6447
C38_2 C 0.4024(2) 0.8814(3) 0.7430(3)
H32_2 H 0.4401 0.8793 0.7377
C39_2 C 0.3978(2) 0.8193(3) 0.8073(3)
H33_2 H 0.4326 0.7760 0.8458
C40_2 C 0.34372(18) 0.8205(3) 0.8150(3)
H34_2 H 0.3409 0.7770 0.8579
C41_2 C 0.29178(16) 0.8855(2) 0.7603(2)
O1_2 O 0.58458(14) 0.9305(2) 0.0285(2)
O2_2 O 0.33142(12) 0.68668(16) 0.18425(16)
N1_2 N 0.41271(13) 0.77706(19) 0.08937(19)
N2_2 N 0.60104(13) 0.8157(2) 0.1378(2)
H1_2 H 0.6317 0.7805 0.1855
C1_2 C 0.45787(18) 0.7095(3) 0.1265(3)
H2_2 H 0.4468 0.6503 0.1424
C2_2 C 0.52001(19) 0.7204(3) 0.1432(3)
H3_2 H 0.5508 0.6697 0.1700
C3_2 C 0.53731(16) 0.8065(2) 0.1205(2)
C4_2 C 0.49041(16) 0.8777(3) 0.0807(3)
H4_2 H 0.4999 0.9373 0.0631
C5_2 C 0.42975(16) 0.8599(2) 0.0674(3)
H5_2 H 0.3979 0.9093 0.0411
C6_2 C 0.62114(18) 0.8724(3) 0.0898(3)
C7_2 C 0.69016(18) 0.8562(3) 0.1135(3)
H6_2 H 0.7174 0.8283 0.1800
H7_2 H 0.7102 0.9173 0.1123
C8_2 C 0.6876(2) 0.7881(3) 0.0368(3)
H8_2 H 0.6761 0.7238 0.0481
C9_2 C 0.7516(2) 0.7824(3) 0.0386(3)
H10_2 H 0.7638 0.8470 0.0293
H11_2 H 0.7868 0.7597 0.1041
C10_2 C 0.27311(17) 0.6664(2) 0.1605(2)
C11_2 C 0.26573(16) 0.6105(2) 0.2343(2)
C12_2 C 0.31641(17) 0.5507(3) 0.2933(3)
H12_2 H 0.3552 0.5510 0.2908
C13_2 C 0.31149(16) 0.4890(2) 0.3576(3)
H13_2 H 0.3473 0.4481 0.3987
C14_2 C 0.25633(15) 0.4863(2) 0.3624(2)
C15_2 C 0.20334(16) 0.5507(2) 0.3047(2)
C16_2 C 0.14633(17) 0.5555(3) 0.3118(3)
H14_2 H 0.1426 0.5141 0.3553
C17_2 C 0.0976(2) 0.6186(3) 0.2570(3)
H15_2 H 0.0599 0.6207 0.2623
C18_2 C 0.1022(2) 0.6807(3) 0.1927(3)
H16_2 H 0.0674 0.7240 0.1542
C19_2 C 0.15628(18) 0.6795(3) 0.1850(3)
H17_2 H 0.1591 0.7230 0.1421
C20_2 C 0.20822(16) 0.6145(2) 0.2397(2)
C21_2 C 0.25316(16) 0.4075(2) 0.4229(2)
H26_2 H 0.8479 0.6910 0.0293
H9_2 H 0.6521 0.8090 0.9707
O6_2 O 0.91542(14) 0.5695(2) 0.9715(2)
N4_2 N 0.89896(13) 0.6843(2) 0.8622(2)
H18_2 H 0.8683 0.7195 0.8145
C23_2 C 0.97999(19) 0.7796(3) 0.8568(3)
H20_2 H 0.9492 0.8303 0.8300
C24_2 C 0.96269(16) 0.6935(2) 0.8795(2)
C27_2 C 0.87886(18) 0.6276(3) 0.9102(3)
C28_2 C 0.80984(18) 0.6438(3) 0.8865(3)
H23_2 H 0.7826 0.6717 0.8200
H24_2 H 0.7898 0.5827 0.8877
C29_2 C 0.8124(2) 0.7119(3) 0.9632(3)
H25_2 H 0.8239 0.7762 0.9519
C30_2 C 0.7484(2) 0.7176(3) 0.9614(3)
H27_2 H 0.7362 0.6530 0.9707
H28_2 H 0.7132 0.7403 0.8959
O1_3 O 0.08458(14) 0.4305(2) 0.0285(2)
N2_3 N 0.10104(13) 0.3157(2) 0.1378(2)
H1_3 H 0.1317 0.2805 0.1855
C2_3 C 0.02001(19) 0.2204(3) 0.1432(3)
H3_3 H 0.0508 0.1697 0.1700
C3_3 C 0.03731(16) 0.3065(2) 0.1205(2)
C6_3 C 0.12114(18) 0.3724(3) 0.0898(3)
C7_3 C 0.19016(18) 0.3562(3) 0.1135(3)
H6_3 H 0.2174 0.3283 0.1800
H7_3 H 0.2102 0.4173 0.1123
C8_3 C 0.1876(2) 0.2881(3) 0.0368(3)
H8_3 H 0.1761 0.2238 0.0481
C9_3 C 0.2516(2) 0.2824(3) 0.0386(3)
H10_3 H 0.2638 0.3470 0.0293
H11_3 H 0.2868 0.2597 0.1041
H26_3 H 0.3479 0.1910 0.0293
Co3 Co 0.82043(2) 0.24892(3) 0.06215(3)
O11_2 O 0.72327(12) 0.18769(17) 0.07982(17)
O15_2 O 0.69258(11) 0.37736(15) 0.00598(16)
H9_3 H 0.1521 0.3090 0.9707
O6_3 O 0.41542(14) 0.0695(2) 0.9715(2)
N3_3 N 0.58729(13) 0.22294(19) 0.91063(19)
N4_3 N 0.39896(13) 0.1843(2) 0.8622(2)
H18_3 H 0.3683 0.2195 0.8145
C22_3 C 0.54213(18) 0.2905(3) 0.8735(3)
H19_3 H 0.5532 0.3497 0.8576
C23_3 C 0.47999(19) 0.2796(3) 0.8568(3)
H20_3 H 0.4492 0.3303 0.8300
C24_3 C 0.46269(16) 0.1935(2) 0.8795(2)
C25_3 C 0.50959(16) 0.1223(3) 0.9193(3)
H21_3 H 0.5001 0.0627 0.9369
C26_3 C 0.57025(16) 0.1401(2) 0.9326(3)
H22_3 H 0.6021 0.0907 0.9589
C27_3 C 0.37886(18) 0.1276(3) 0.9102(3)
C28_3 C 0.30984(18) 0.1438(3) 0.8865(3)
H23_3 H 0.2826 0.1717 0.8200
H24_3 H 0.2898 0.0827 0.8877
C29_3 C 0.3124(2) 0.2119(3) 0.9632(3)
H25_3 H 0.3239 0.2762 0.9519
C30_3 C 0.2484(2) 0.2176(3) 0.9614(3)
H27_3 H 0.2362 0.1530 0.9707
H28_3 H 0.2132 0.2403 0.8959
Co2 Co 0.67957(2) 0.25108(3) 0.93785(3)
O7_3 O 0.66858(12) 0.31332(16) 0.81575(16)
O8_2 O 0.77673(12) 0.31231(17) 0.92018(17)
O9_2 O 0.80223(11) 0.62670(16) 0.60418(17)
O10_2 O 0.69258(11) 0.62264(15) 0.50598(16)
C31_3 C 0.72689(17) 0.3336(2) 0.8395(2)
C32_3 C 0.73427(16) 0.3895(2) 0.7657(2)
C33_3 C 0.68359(17) 0.4493(3) 0.7067(3)
H29_3 H 0.6448 0.4490 0.7092
C34_3 C 0.68851(16) 0.5110(2) 0.6424(3)
H30_3 H 0.6527 0.5519 0.6013
C35_3 C 0.74367(15) 0.5137(2) 0.6376(2)
C36_3 C 0.79666(16) 0.4493(2) 0.6953(2)
C37_3 C 0.85367(17) 0.4445(3) 0.6882(3)
H31_3 H 0.8574 0.4859 0.6447
C38_3 C 0.9024(2) 0.3814(3) 0.7430(3)
H32_3 H 0.9401 0.3793 0.7377
C39_3 C 0.8978(2) 0.3193(3) 0.8073(3)
H33_3 H 0.9326 0.2760 0.8458
C40_3 C 0.84372(18) 0.3205(3) 0.8150(3)
H34_3 H 0.8409 0.2770 0.8579
C41_3 C 0.79178(16) 0.3855(2) 0.7603(2)
C42_3 C 0.74684(16) 0.5925(2) 0.5771(2)
Co4 Co 0.67957(2) 0.74892(3) 0.43785(3)
Co6 Co 0.82043(2) 0.75108(3) 0.56215(3)
O14_2 O 0.69777(11) 0.12670(16) 0.89582(17)
O2_3 O 0.83142(12) 0.18668(16) 0.18425(16)
N1_3 N 0.91271(13) 0.27706(19) 0.08937(19)
C1_3 C 0.95787(18) 0.2095(3) 0.1265(3)
H2_3 H 0.9468 0.1503 0.1424
C4_3 C 0.99041(16) 0.3777(3) 0.0807(3)
H4_3 H 0.9999 0.4373 0.0631
C5_3 C 0.92975(16) 0.3599(2) 0.0674(3)
H5_3 H 0.8979 0.4093 0.0411
C10_3 C 0.77311(17) 0.1664(2) 0.1605(2)
C11_3 C 0.76573(16) 0.1105(2) 0.2343(2)
C12_3 C 0.81641(17) 0.0507(3) 0.2933(3)
H12_3 H 0.8552 0.0510 0.2908
C15_3 C 0.70334(16) 0.0507(2) 0.3047(2)
C16_3 C 0.64633(17) 0.0555(3) 0.3118(3)
H14_3 H 0.6426 0.0141 0.3553
C17_3 C 0.5976(2) 0.1186(3) 0.2570(3)
H15_3 H 0.5599 0.1207 0.2623
C18_3 C 0.6022(2) 0.1807(3) 0.1927(3)
H16_3 H 0.5674 0.2240 0.1542
C19_3 C 0.65628(18) 0.1795(3) 0.1850(3)
H17_3 H 0.6591 0.2230 0.1421
C20_3 C 0.70822(16) 0.1145(2) 0.2397(2)
O13_2 O 0.80223(11) 0.37330(16) 0.10418(17)
O16_2 O 0.80742(11) 0.12264(15) 0.99402(16)
O4_2 O 0.69777(11) 0.87330(16) 0.39582(17)
O5_2 O 0.80742(11) 0.87736(15) 0.49402(16)
C13_3 C 0.81149(16) 0.9890(2) 0.3576(3)
H13_3 H 0.8473 0.9481 0.3987
C14_3 C 0.75633(15) 0.9863(2) 0.3624(2)
C21_3 C 0.75316(16) 0.9075(2) 0.4229(2)
O1_4 O 0.41542(14) 0.9305(2) 0.4715(2)
O2_4 O 0.66858(12) 0.68668(16) 0.31575(16)
O3_2 O 0.77673(12) 0.68769(17) 0.42018(17)
N1_4 N 0.58729(13) 0.77706(19) 0.41063(19)
N2_4 N 0.39896(13) 0.8157(2) 0.3622(2)
H1_4 H 0.3683 0.7805 0.3145
C1_4 C 0.54213(18) 0.7095(3) 0.3735(3)
H2_4 H 0.5532 0.6503 0.3576
C2_4 C 0.47999(19) 0.7204(3) 0.3568(3)
H3_4 H 0.4492 0.6697 0.3300
C3_4 C 0.46269(16) 0.8065(2) 0.3795(2)
C4_4 C 0.50959(16) 0.8777(3) 0.4193(3)
H4_4 H 0.5001 0.9373 0.4369
C5_4 C 0.57025(16) 0.8599(2) 0.4326(3)
H5_4 H 0.6021 0.9093 0.4589
C6_4 C 0.37886(18) 0.8724(3) 0.4102(3)
C7_4 C 0.30984(18) 0.8562(3) 0.3865(3)
H6_4 H 0.2826 0.8283 0.3200
H7_4 H 0.2898 0.9173 0.3877
C8_4 C 0.3124(2) 0.7881(3) 0.4632(3)
H8_4 H 0.3239 0.7238 0.4519
H9_4 H 0.3479 0.8090 0.5293
C9_4 C 0.2484(2) 0.7824(3) 0.4614(3)
H10_4 H 0.2362 0.8470 0.4707
H11_4 H 0.2132 0.7597 0.3959
C10_4 C 0.72689(17) 0.6664(2) 0.3395(2)
C11_4 C 0.73427(16) 0.6105(2) 0.2657(2)
C12_4 C 0.68359(17) 0.5507(3) 0.2067(3)
H12_4 H 0.6448 0.5510 0.2092
C13_4 C 0.68851(16) 0.4890(2) 0.1424(3)
H13_4 H 0.6527 0.4481 0.1013
C14_4 C 0.74367(15) 0.4863(2) 0.1376(2)
C15_4 C 0.79666(16) 0.5507(2) 0.1953(2)
C16_4 C 0.85367(17) 0.5555(3) 0.1882(3)
H14_4 H 0.8574 0.5141 0.1447
C17_4 C 0.9024(2) 0.6186(3) 0.2430(3)
H15_4 H 0.9401 0.6207 0.2377
C18_4 C 0.8978(2) 0.6807(3) 0.3073(3)
H16_4 H 0.9326 0.7240 0.3458
C19_4 C 0.84372(18) 0.6795(3) 0.3150(3)
H17_4 H 0.8409 0.7230 0.3579
C20_4 C 0.79178(16) 0.6145(2) 0.2603(2)
C21_4 C 0.74684(16) 0.4075(2) 0.0771(2)
O6_4 O 0.08458(14) 0.5695(2) 0.5285(2)
N4_4 N 0.10104(13) 0.6843(2) 0.6378(2)
H18_4 H 0.1317 0.7195 0.6855
C23_4 C 0.02001(19) 0.7796(3) 0.6432(3)
H20_4 H 0.0508 0.8303 0.6700
C24_4 C 0.03731(16) 0.6935(2) 0.6205(2)
C27_4 C 0.12114(18) 0.6276(3) 0.5898(3)
C28_4 C 0.19016(18) 0.6438(3) 0.6135(3)
H23_4 H 0.2174 0.6717 0.6800
H24_4 H 0.2102 0.5827 0.6123
C29_4 C 0.1876(2) 0.7119(3) 0.5368(3)
H25_4 H 0.1761 0.7762 0.5481
H26_4 H 0.1521 0.6910 0.4707
C30_4 C 0.2516(2) 0.7176(3) 0.5386(3)
H27_4 H 0.2638 0.6530 0.5293
H28_4 H 0.2868 0.7403 0.6041
O12_2 O 0.72327(12) 0.81231(17) 0.57982(17)
C34_4 C 0.81149(16) 0.0110(2) 0.8576(3)
H30_4 H 0.8473 0.0519 0.8987
C35_4 C 0.75633(15) 0.0137(2) 0.8624(2)
C42_4 C 0.75316(16) 0.0925(2) 0.9229(2)
N3_4 N 0.91271(13) 0.72294(19) 0.58937(19)
C22_4 C 0.95787(18) 0.7905(3) 0.6265(3)
H19_4 H 0.9468 0.8497 0.6424
C25_4 C 0.99041(16) 0.6223(3) 0.5807(3)
H21_4 H 0.9999 0.5627 0.5631
C26_4 C 0.92975(16) 0.6401(2) 0.5674(3)
H22_4 H 0.8979 0.5907 0.5411
O7_4 O 0.83142(12) 0.81332(16) 0.68425(16)
C31_4 C 0.77311(17) 0.8336(2) 0.6605(2)
C32_4 C 0.76573(16) 0.8895(2) 0.7343(2)
C33_4 C 0.81641(17) 0.9493(3) 0.7933(3)
H29_4 H 0.8552 0.9490 0.7908
C36_4 C 0.70334(16) 0.9493(2) 0.8047(2)
C37_4 C 0.64633(17) 0.9445(3) 0.8118(3)
H31_4 H 0.6426 0.9859 0.8553
C38_4 C 0.5976(2) 0.8814(3) 0.7570(3)
H32_4 H 0.5599 0.8793 0.7623
C39_4 C 0.6022(2) 0.8193(3) 0.6927(3)
H33_4 H 0.5674 0.7760 0.6542
C40_4 C 0.65628(18) 0.8205(3) 0.6850(3)
H34_4 H 0.6591 0.7770 0.6421
C41_4 C 0.70822(16) 0.8855(2) 0.7397(2)
loop_
_geom_bond_atom_site_label_1
_geom_bond_atom_site_label_2
_geom_bond_site_symmetry_1
_geom_bond_site_symmetry_2
Co1 O2 1_555 1_555
O2 C10 1_555 1_555
O3 C10 1_555 1_555
N1 Co1 1_555 1_555
C1 N1 1_555 1_555
H2 C1 1_555 1_555
H4 C4 1_555 1_555
C5 N1 1_555 1_555
H5 C5 1_555 1_555
C10 C11 1_555 1_555
C11 C12 1_555 1_555
C12 H12 1_555 1_555
C16 C15 1_555 1_555
H14 C16 1_555 1_555
C17 C16 1_555 1_555
H15 C17 1_555 1_555
C18 C17 1_555 1_555
H16 C18 1_555 1_555
C19 C18 1_555 1_555
H17 C19 1_555 1_555
C20 C11 1_555 1_555
Co8 Co1 1_555 1_555
O12 Co1 1_555 1_555
O13 Co1 1_555 1_555
O16 Co1 1_555 1_555
O3 Co8 1_555 1_555
C4 C5 1_555 1_555
C15 C20 1_555 1_555
C19 C20 1_555 1_555
O4 C21 1_555 1_555
O5 C21 1_555 1_555
H13 C13 1_555 1_555
C14 C13 1_555 1_555
C21 C14 1_555 1_555
Co5 O4 1_555 1_555
O1 C6 1_555 1_555
N2 H1 1_555 1_555
H3 C2 1_555 1_555
C3 N2 1_555 1_555
C6 N2 1_555 1_555
C7 C6 1_555 1_555
H6 C7 1_555 1_555
H7 C7 1_555 1_555
C8 C7 1_555 1_555
H8 C8 1_555 1_555
H9 C8 1_555 1_555
C9 C8 1_555 1_555
H10 C9 1_555 1_555
H11 C9 1_555 1_555
O6 C27 1_555 1_555
N3 C22 1_555 1_555
N4 H18 1_555 1_555
C22 H19 1_555 1_555
C23 C22 1_555 1_555
H20 C23 1_555 1_555
C24 N4 1_555 1_555
C25 C24 1_555 1_555
H21 C25 1_555 1_555
C26 N3 1_555 1_555
H22 C26 1_555 1_555
C27 N4 1_555 1_555
C28 C27 1_555 1_555
H23 C28 1_555 1_555
H24 C28 1_555 1_555
C29 C28 1_555 1_555
H25 C29 1_555 1_555
H26 C29 1_555 1_555
C30 C9 1_555 1_555
H27 C30 1_555 1_555
H28 C30 1_555 1_555
Co8 N3 1_555 1_555
O7 Co8 1_555 1_555
O12 C31 1_555 1_555
O9 C42 1_555 1_555
O10 C42 1_555 1_555
C31 O7 1_555 1_555
C32 C31 1_555 1_555
C33 C32 1_555 1_555
H29 C33 1_555 1_555
C34 C33 1_555 1_555
H30 C34 1_555 1_555
C35 C34 1_555 1_555
C36 C35 1_555 1_555
C37 C36 1_555 1_555
H31 C37 1_555 1_555
C38 C37 1_555 1_555
H32 C38 1_555 1_555
C39 C38 1_555 1_555
H33 C39 1_555 1_555
C40 C39 1_555 1_555
H34 C40 1_555 1_555
C41 C32 1_555 1_555
C42 C35 1_555 1_555
Co7 O9 1_555 1_555
O14 Co8 1_555 1_555
O15 Co8 1_555 1_555
C2 C3 1_555 1_555
C23 C24 1_555 1_555
C25 C26 1_555 1_555
C29 C30 1_555 1_555
C36 C41 1_555 1_555
C40 C41 1_555 1_555
O14 C42_2 1_555 1_555
O16 C42_2 1_555 1_555
H30_2 C34_2 1_555 1_555
C35_2 C34_2 1_555 1_555
C42_2 C35_2 1_555 1_555
N3_2 C22_2 1_555 1_555
C22_2 H19_2 1_555 1_555
H21_2 C25_2 1_555 1_555
C26_2 N3_2 1_555 1_555
H22_2 C26_2 1_555 1_555
Co7 N3_2 1_555 1_555
O7_2 Co7 1_555 1_555
O8 C31_2 1_555 1_555
C31_2 O7_2 1_555 1_555
C32_2 C31_2 1_555 1_555
C33_2 C32_2 1_555 1_555
H29_2 C33_2 1_555 1_555
C37_2 C36_2 1_555 1_555
H31_2 C37_2 1_555 1_555
C38_2 C37_2 1_555 1_555
H32_2 C38_2 1_555 1_555
C39_2 C38_2 1_555 1_555
H33_2 C39_2 1_555 1_555
C40_2 C39_2 1_555 1_555
H34_2 C40_2 1_555 1_555
C41_2 C32_2 1_555 1_555
C25_2 C26_2 1_555 1_555
C36_2 C41_2 1_555 1_555
C40_2 C41_2 1_555 1_555
Co5 O2_2 1_555 1_555
O1_2 C6_2 1_555 1_555
O2_2 C10_2 1_555 1_555
O11 C10_2 1_555 1_555
O13 C21_2 1_555 1_555
O15 C21_2 1_555 1_555
N1_2 Co5 1_555 1_555
N2_2 H1_2 1_555 1_555
C1_2 N1_2 1_555 1_555
H2_2 C1_2 1_555 1_555
C2_2 C1_2 1_555 1_555
H3_2 C2_2 1_555 1_555
C3_2 N2_2 1_555 1_555
C4_2 C3_2 1_555 1_555
H4_2 C4_2 1_555 1_555
C5_2 N1_2 1_555 1_555
H5_2 C5_2 1_555 1_555
C6_2 N2_2 1_555 1_555
C7_2 C6_2 1_555 1_555
H6_2 C7_2 1_555 1_555
H7_2 C7_2 1_555 1_555
C8_2 C7_2 1_555 1_555
H8_2 C8_2 1_555 1_555
C9_2 C8_2 1_555 1_555
H10_2 C9_2 1_555 1_555
H11_2 C9_2 1_555 1_555
C10_2 C11_2 1_555 1_555
C11_2 C12_2 1_555 1_555
C12_2 H12_2 1_555 1_555
C13_2 C12_2 1_555 1_555
H13_2 C13_2 1_555 1_555
C14_2 C13_2 1_555 1_555
C15_2 C14_2 1_555 1_555
C16_2 C15_2 1_555 1_555
H14_2 C16_2 1_555 1_555
C17_2 C16_2 1_555 1_555
H15_2 C17_2 1_555 1_555
C18_2 C17_2 1_555 1_555
H16_2 C18_2 1_555 1_555
C19_2 C18_2 1_555 1_555
H17_2 C19_2 1_555 1_555
C20_2 C11_2 1_555 1_555
C21_2 C14_2 1_555 1_555
C2_2 C3_2 1_555 1_555
C4_2 C5_2 1_555 1_555
C15_2 C20_2 1_555 1_555
C19_2 C20_2 1_555 1_555
O6_2 C27_2 1_555 1_555
N4_2 H18_2 1_555 1_555
H20_2 C23_2 1_555 1_555
C24_2 N4_2 1_555 1_555
C27_2 N4_2 1_555 1_555
C28_2 C27_2 1_555 1_555
H23_2 C28_2 1_555 1_555
H24_2 C28_2 1_555 1_555
C29_2 C28_2 1_555 1_555
H25_2 C29_2 1_555 1_555
H27_2 C30_2 1_555 1_555
H28_2 C30_2 1_555 1_555
C23_2 C24_2 1_555 1_555
C29_2 C30_2 1_555 1_555
O1_3 C6_3 1_555 1_555
N2_3 H1_3 1_555 1_555
H3_3 C2_3 1_555 1_555
C3_3 N2_3 1_555 1_555
C6_3 N2_3 1_555 1_555
C7_3 C6_3 1_555 1_555
H6_3 C7_3 1_555 1_555
H7_3 C7_3 1_555 1_555
C8_3 C7_3 1_555 1_555
H8_3 C8_3 1_555 1_555
C9_3 C8_3 1_555 1_555
H10_3 C9_3 1_555 1_555
H11_3 C9_3 1_555 1_555
C2_3 C3_3 1_555 1_555
O6_3 C27_3 1_555 1_555
N3_3 C22_3 1_555 1_555
N4_3 H18_3 1_555 1_555
C22_3 H19_3 1_555 1_555
C23_3 C22_3 1_555 1_555
H20_3 C23_3 1_555 1_555
C24_3 N4_3 1_555 1_555
C25_3 C24_3 1_555 1_555
H21_3 C25_3 1_555 1_555
C26_3 N3_3 1_555 1_555
H22_3 C26_3 1_555 1_555
C27_3 N4_3 1_555 1_555
C28_3 C27_3 1_555 1_555
H23_3 C28_3 1_555 1_555
H24_3 C28_3 1_555 1_555
C29_3 C28_3 1_555 1_555
H25_3 C29_3 1_555 1_555
H27_3 C30_3 1_555 1_555
H28_3 C30_3 1_555 1_555
Co2 N3_3 1_555 1_555
O7_3 Co2 1_555 1_555
O8_2 C31_3 1_555 1_555
O9_2 C42_3 1_555 1_555
O10_2 C42_3 1_555 1_555
C31_3 O7_3 1_555 1_555
C32_3 C31_3 1_555 1_555
C33_3 C32_3 1_555 1_555
H29_3 C33_3 1_555 1_555
C34_3 C33_3 1_555 1_555
H30_3 C34_3 1_555 1_555
C35_3 C34_3 1_555 1_555
C36_3 C35_3 1_555 1_555
C37_3 C36_3 1_555 1_555
H31_3 C37_3 1_555 1_555
C38_3 C37_3 1_555 1_555
H32_3 C38_3 1_555 1_555
C39_3 C38_3 1_555 1_555
H33_3 C39_3 1_555 1_555
C40_3 C39_3 1_555 1_555
H34_3 C40_3 1_555 1_555
C41_3 C32_3 1_555 1_555
C42_3 C35_3 1_555 1_555
Co4 O10_2 1_555 1_555
Co6 O9_2 1_555 1_555
O14_2 Co2 1_555 1_555
C23_3 C24_3 1_555 1_555
C25_3 C26_3 1_555 1_555
C29_3 C30_3 1_555 1_555
C36_3 C41_3 1_555 1_555
C40_3 C41_3 1_555 1_555
Co4 Co6 1_555 1_555
Co3 O2_3 1_555 1_555
O2_3 C10_3 1_555 1_555
O11_2 C10_3 1_555 1_555
N1_3 Co3 1_555 1_555
C1_3 N1_3 1_555 1_555
H2_3 C1_3 1_555 1_555
H4_3 C4_3 1_555 1_555
C5_3 N1_3 1_555 1_555
H5_3 C5_3 1_555 1_555
C10_3 C11_3 1_555 1_555
C11_3 C12_3 1_555 1_555
C12_3 H12_3 1_555 1_555
C16_3 C15_3 1_555 1_555
H14_3 C16_3 1_555 1_555
C17_3 C16_3 1_555 1_555
H15_3 C17_3 1_555 1_555
C18_3 C17_3 1_555 1_555
H16_3 C18_3 1_555 1_555
C19_3 C18_3 1_555 1_555
H17_3 C19_3 1_555 1_555
C20_3 C11_3 1_555 1_555
O13_2 Co3 1_555 1_555
C4_3 C5_3 1_555 1_555
C15_3 C20_3 1_555 1_555
C19_3 C20_3 1_555 1_555
O4_2 C21_3 1_555 1_555
O5_2 C21_3 1_555 1_555
H13_3 C13_3 1_555 1_555
C14_3 C13_3 1_555 1_555
C21_3 C14_3 1_555 1_555
Co4 O4_2 1_555 1_555
Co6 O5_2 1_555 1_555
Co4 O2_4 1_555 1_555
O1_4 C6_4 1_555 1_555
O2_4 C10_4 1_555 1_555
O3_2 C10_4 1_555 1_555
O13_2 C21_4 1_555 1_555
O15_2 C21_4 1_555 1_555
N1_4 Co4 1_555 1_555
N2_4 H1_4 1_555 1_555
C1_4 N1_4 1_555 1_555
H2_4 C1_4 1_555 1_555
C2_4 C1_4 1_555 1_555
H3_4 C2_4 1_555 1_555
C3_4 N2_4 1_555 1_555
C4_4 C3_4 1_555 1_555
H4_4 C4_4 1_555 1_555
C5_4 N1_4 1_555 1_555
H5_4 C5_4 1_555 1_555
C6_4 N2_4 1_555 1_555
C7_4 C6_4 1_555 1_555
H6_4 C7_4 1_555 1_555
H7_4 C7_4 1_555 1_555
C8_4 C7_4 1_555 1_555
H8_4 C8_4 1_555 1_555
H9_4 C8_4 1_555 1_555
C9_4 C8_4 1_555 1_555
H10_4 C9_4 1_555 1_555
H11_4 C9_4 1_555 1_555
C10_4 C11_4 1_555 1_555
C11_4 C12_4 1_555 1_555
C12_4 H12_4 1_555 1_555
C13_4 C12_4 1_555 1_555
H13_4 C13_4 1_555 1_555
C14_4 C13_4 1_555 1_555
C15_4 C14_4 1_555 1_555
C16_4 C15_4 1_555 1_555
H14_4 C16_4 1_555 1_555
C17_4 C16_4 1_555 1_555
H15_4 C17_4 1_555 1_555
C18_4 C17_4 1_555 1_555
H16_4 C18_4 1_555 1_555
C19_4 C18_4 1_555 1_555
H17_4 C19_4 1_555 1_555
C20_4 C11_4 1_555 1_555
C21_4 C14_4 1_555 1_555
O6_4 C27_4 1_555 1_555
N4_4 H18_4 1_555 1_555
H20_4 C23_4 1_555 1_555
C24_4 N4_4 1_555 1_555
C27_4 N4_4 1_555 1_555
C28_4 C27_4 1_555 1_555
H23_4 C28_4 1_555 1_555
H24_4 C28_4 1_555 1_555
C29_4 C28_4 1_555 1_555
H25_4 C29_4 1_555 1_555
H26_4 C29_4 1_555 1_555
C30_4 C9_4 1_555 1_555
H27_4 C30_4 1_555 1_555
H28_4 C30_4 1_555 1_555
O12_2 Co4 1_555 1_555
O3_2 Co6 1_555 1_555
C2_4 C3_4 1_555 1_555
C4_4 C5_4 1_555 1_555
C15_4 C20_4 1_555 1_555
C19_4 C20_4 1_555 1_555
C23_4 C24_4 1_555 1_555
C29_4 C30_4 1_555 1_555
O14_2 C42_4 1_555 1_555
O16_2 C42_4 1_555 1_555
H30_4 C34_4 1_555 1_555
C35_4 C34_4 1_555 1_555
C42_4 C35_4 1_555 1_555
N3_4 C22_4 1_555 1_555
C22_4 H19_4 1_555 1_555
H21_4 C25_4 1_555 1_555
C26_4 N3_4 1_555 1_555
H22_4 C26_4 1_555 1_555
Co6 N3_4 1_555 1_555
O7_4 Co6 1_555 1_555
O12_2 C31_4 1_555 1_555
C31_4 O7_4 1_555 1_555
C32_4 C31_4 1_555 1_555
C33_4 C32_4 1_555 1_555
H29_4 C33_4 1_555 1_555
C37_4 C36_4 1_555 1_555
H31_4 C37_4 1_555 1_555
C38_4 C37_4 1_555 1_555
H32_4 C38_4 1_555 1_555
C39_4 C38_4 1_555 1_555
H33_4 C39_4 1_555 1_555
C40_4 C39_4 1_555 1_555
H34_4 C40_4 1_555 1_555
C41_4 C32_4 1_555 1_555
C25_4 C26_4 1_555 1_555
C36_4 C41_4 1_555 1_555
C40_4 C41_4 1_555 1_555

#END
