
###############################################################################
#
# This file contains modified crystal structure data generated from the
# MOF subset of the Cambridge Structural Database (CSD) v543 
# hosted by the Cambridge Crystallographic Data Centre (CCDC).
#
# This work is licensed under the Creative Commons
# Attribution-NonCommercial-ShareAlike 4.0 International License.
# To view a copy of this license, visit
# http://creativecommons.org/licenses/by-nc-sa/4.0/
# or send a letter to
# Creative Commons, PO Box 1866, Mountain View, CA 94042, USA.
#
# CIF created using the CSD Python API on 29 September 2022
# The structure has been converted into the P1 space group
# The structure has a 3D framework
# The original CSD entry LIVLUZ is in the orthorhombic crystal system
# The framework has been calculated to contain at least 10.0% void space
# The void calculation uses a probe of radius 1.32A, grid spacing 0.4
#
###############################################################################

data_LIVLUZ
_chemical_formula_moiety         '(C72 H48 Cd4 N24 O12)n'
_symmetry_cell_setting           triclinic
_symmetry_space_group_name_H-M   'P 1'
_symmetry_Int_Tables_number      1
_space_group_name_Hall           'P 1'
loop_
_symmetry_equiv_pos_site_id
_symmetry_equiv_pos_as_xyz
1 x,y,z
_cell_length_a                   8.254(3)
_cell_length_b                   18.896(5)
_cell_length_c                   18.006(7)
_cell_angle_alpha                90
_cell_angle_beta                 90
_cell_angle_gamma                90
_cell_volume                     2808.35
loop_
_atom_site_label
_atom_site_type_symbol
_atom_site_fract_x
_atom_site_fract_y
_atom_site_fract_z
O1 O 0.3732(5) 0.3639(2) 0.9388(3)
O2 O 0.2148(5) 0.4426(2) 0.8823(2)
C5 C 0.1158(7) 0.2636(3) 0.9445(4)
H4 H 0.2158 0.2494 0.9630
C6 C 0.0975(7) 0.3319(3) 0.9163(4)
C9 C 0.2370(6) 0.3828(3) 0.9118(5)
Cd3 Cd 0.48731(4) 0.47273(2) 0.90663(4)
N1 N 0.4249(6) 0.5889(3) 0.8990(4)
N2 N 0.2932(5) 0.6889(2) 0.9128(4)
N3 N 0.4561(7) 0.7051(3) 0.9198(5)
N4 N 0.5816(6) 0.4412(3) 0.7940(3)
N5 N 0.7451(6) 0.4374(3) 0.6968(3)
N6 N 0.6154(8) 0.3920(4) 0.6819(4)
C1 C 0.5373(6) 0.6419(3) 0.9121(6)
H1 H 0.6489 0.6359 0.9151
C2 C 0.2809(7) 0.6185(3) 0.8994(5)
H2 H 0.1840 0.5946 0.8915
C3 C 0.1615(7) 0.7375(3) 0.9142(5)
C4 C 0.0132(8) 0.7168(3) 0.9451(3)
H3 H 0.0015 0.6720 0.9658
C7 C 0.0532(8) 0.8525(3) 0.8877(3)
H5 H 0.0664 0.8978 0.8685
C8 C 0.1833(7) 0.8056(3) 0.8878(3)
H6 H 0.2841 0.8199 0.8702
C10 C 0.5146(9) 0.3947(4) 0.7421(3)
H7 H 0.4180 0.3699 0.7475
C11 C 0.7174(7) 0.4648(3) 0.7655(4)
H8 H 0.7863 0.4964 0.7893
C12 C 0.8780(8) 0.4522(3) 0.6489(4)
C13 C 0.8471(8) 0.4639(4) 0.5741(4)
H9 H 0.7420 0.4613 0.5556
C14 C 0.9766(8) 0.4797(3) 0.5269(4)
H10 H 0.9576 0.4874 0.4767
O7 O 0.7583(5) 0.4984(2) 0.9339(2)
N1_2 N 0.5751(6) 0.0889(3) 0.8990(4)
N2_2 N 0.7068(5) 0.1889(2) 0.9128(4)
N3_2 N 0.5439(7) 0.2051(3) 0.9198(5)
C1_2 C 0.4627(6) 0.1419(3) 0.9121(6)
H1_2 H 0.3511 0.1359 0.9151
C2_2 C 0.7191(7) 0.1185(3) 0.8994(5)
H2_2 H 0.8160 0.0946 0.8915
C3_2 C 0.8385(7) 0.2375(3) 0.9142(5)
C4_2 C 0.9868(8) 0.2168(3) 0.9451(3)
H3_2 H 0.9985 0.1720 0.9658
C7_2 C 0.9468(8) 0.3525(3) 0.8877(3)
H5_2 H 0.9336 0.3978 0.8685
C8_2 C 0.8167(7) 0.3056(3) 0.8878(3)
H6_2 H 0.7159 0.3199 0.8702
O8 O 0.4132(6) 0.9890(3) 0.0280(3)
Cd1 Cd 0.51269(4) 0.97273(2) 0.90663(4)
N4_2 N 0.4184(6) 0.9412(3) 0.7940(3)
N5_2 N 0.2549(6) 0.9374(3) 0.6968(3)
N6_2 N 0.3846(8) 0.8920(4) 0.6819(4)
C10_2 C 0.4854(9) 0.8947(4) 0.7421(3)
H7_2 H 0.5820 0.8699 0.7475
C11_2 C 0.2826(7) 0.9648(3) 0.7655(4)
H8_2 H 0.2137 0.9964 0.7893
C12_2 C 0.1220(8) 0.9522(3) 0.6489(4)
C13_2 C 0.1529(8) 0.9639(4) 0.5741(4)
H9_2 H 0.2580 0.9613 0.5556
C14_2 C 0.0234(8) 0.9797(3) 0.5269(4)
H10_2 H 0.0424 0.9874 0.4767
O5 O 0.6268(5) 0.8639(2) 0.9388(3)
O6 O 0.7852(5) 0.9426(2) 0.8823(2)
O7_2 O 0.2417(5) 0.9984(2) 0.9339(2)
C5_2 C 0.8842(7) 0.7636(3) 0.9445(4)
H4_2 H 0.7842 0.7494 0.9630
C6_2 C 0.9025(7) 0.8319(3) 0.9163(4)
C9_2 C 0.7630(6) 0.8828(3) 0.9118(5)
O3 O 0.7583(5) 0.0016(2) 0.4339(2)
O4 O 0.5868(6) 0.0110(3) 0.5280(3)
Cd2 Cd 0.48731(4) 0.02727(2) 0.40663(4)
N4_3 N 0.5816(6) 0.0588(3) 0.2940(3)
N5_3 N 0.7451(6) 0.0626(3) 0.1968(3)
N6_3 N 0.6154(8) 0.1080(4) 0.1819(4)
C10_3 C 0.5146(9) 0.1053(4) 0.2421(3)
H7_3 H 0.4180 0.1301 0.2475
C11_3 C 0.7174(7) 0.0352(3) 0.2655(4)
H8_3 H 0.7863 0.0036 0.2893
C12_3 C 0.8780(8) 0.0478(3) 0.1489(4)
C13_3 C 0.8471(8) 0.0361(4) 0.0741(4)
H9_3 H 0.7420 0.0387 0.0556
C14_3 C 0.9766(8) 0.0203(3) 0.0269(4)
O5_2 O 0.3732(5) 0.1361(2) 0.4388(3)
O6_2 O 0.2148(5) 0.0574(2) 0.3823(2)
C5_3 C 0.1158(7) 0.2364(3) 0.4445(4)
H4_3 H 0.2158 0.2506 0.4630
C6_3 C 0.0975(7) 0.1681(3) 0.4163(4)
C9_3 C 0.2370(6) 0.1172(3) 0.4118(5)
C15 C 0.8660(8) 0.9839(3) 0.5545(4)
C16 C 0.8388(8) 0.9729(4) 0.6301(4)
H11 H 0.7339 0.9760 0.6487
C17 C 0.9661(8) 0.9572(3) 0.6783(4)
H12 H 0.9476 0.9502 0.7287
C18 C 0.7275(8) 0.9998(3) 0.5027(4)
C15_2 C 0.1340(8) 0.0161(3) 0.0545(4)
C16_2 C 0.1612(8) 0.0271(4) 0.1301(4)
H11_2 H 0.2661 0.0240 0.1487
C17_2 C 0.0339(8) 0.0428(3) 0.1783(4)
H12_2 H 0.0524 0.0498 0.2287
C18_2 C 0.2725(8) 0.0002(3) 0.0027(4)
H10_3 H 0.9576 0.0126 0.9767
N1_3 N 0.4249(6) 0.9111(3) 0.3990(4)
N2_3 N 0.2932(5) 0.8111(2) 0.4128(4)
N3_3 N 0.4561(7) 0.7949(3) 0.4198(5)
C1_3 C 0.5373(6) 0.8581(3) 0.4121(6)
H1_3 H 0.6489 0.8641 0.4151
C2_3 C 0.2809(7) 0.8815(3) 0.3994(5)
H2_3 H 0.1840 0.9054 0.3915
C3_3 C 0.1615(7) 0.7625(3) 0.4142(5)
C4_3 C 0.0132(8) 0.7832(3) 0.4451(3)
H3_3 H 0.0015 0.8280 0.4658
C7_3 C 0.0532(8) 0.6475(3) 0.3877(3)
H5_3 H 0.0664 0.6022 0.3685
C8_3 C 0.1833(7) 0.6944(3) 0.3878(3)
H6_3 H 0.2841 0.6801 0.3702
O1_2 O 0.6268(5) 0.6361(2) 0.4388(3)
O2_2 O 0.7852(5) 0.5574(2) 0.3823(2)
C5_4 C 0.8842(7) 0.7364(3) 0.4445(4)
H4_4 H 0.7842 0.7506 0.4630
C6_4 C 0.9025(7) 0.6681(3) 0.4163(4)
C9_4 C 0.7630(6) 0.6172(3) 0.4118(5)
Cd3_2 Cd 0.51269(4) 0.52727(2) 0.40663(4)
O3_2 O 0.2417(5) 0.5016(2) 0.4339(2)
O4_2 O 0.4132(6) 0.5110(3) 0.5280(3)
C15_3 C 0.1340(8) 0.4839(3) 0.5545(4)
C16_3 C 0.1612(8) 0.4729(4) 0.6301(4)
H11_3 H 0.2661 0.4760 0.6487
C17_3 C 0.0339(8) 0.4572(3) 0.6783(4)
H12_3 H 0.0524 0.4502 0.7287
C18_3 C 0.2725(8) 0.4998(3) 0.5027(4)
N1_4 N 0.5751(6) 0.4111(3) 0.3990(4)
N2_4 N 0.7068(5) 0.3111(2) 0.4128(4)
N3_4 N 0.5439(7) 0.2949(3) 0.4198(5)
N4_4 N 0.4184(6) 0.5588(3) 0.2940(3)
N5_4 N 0.2549(6) 0.5626(3) 0.1968(3)
N6_4 N 0.3846(8) 0.6080(4) 0.1819(4)
C1_4 C 0.4627(6) 0.3581(3) 0.4121(6)
H1_4 H 0.3511 0.3641 0.4151
C2_4 C 0.7191(7) 0.3815(3) 0.3994(5)
H2_4 H 0.8160 0.4054 0.3915
C3_4 C 0.8385(7) 0.2625(3) 0.4142(5)
C4_4 C 0.9868(8) 0.2832(3) 0.4451(3)
H3_4 H 0.9985 0.3280 0.4658
C7_4 C 0.9468(8) 0.1475(3) 0.3877(3)
H5_4 H 0.9336 0.1022 0.3685
C8_4 C 0.8167(7) 0.1944(3) 0.3878(3)
H6_4 H 0.7159 0.1801 0.3702
C10_4 C 0.4854(9) 0.6053(4) 0.2421(3)
H7_4 H 0.5820 0.6301 0.2475
C11_4 C 0.2826(7) 0.5352(3) 0.2655(4)
H8_4 H 0.2137 0.5036 0.2893
C12_4 C 0.1220(8) 0.5478(3) 0.1489(4)
C13_4 C 0.1529(8) 0.5361(4) 0.0741(4)
H9_4 H 0.2580 0.5387 0.0556
C14_4 C 0.0234(8) 0.5203(3) 0.0269(4)
O8_2 O 0.5868(6) 0.4890(3) 0.0280(3)
C15_4 C 0.8660(8) 0.5161(3) 0.0545(4)
C16_4 C 0.8388(8) 0.5271(4) 0.1301(4)
H11_4 H 0.7339 0.5240 0.1487
C17_4 C 0.9661(8) 0.5428(3) 0.1783(4)
H12_4 H 0.9476 0.5498 0.2287
C18_4 C 0.7275(8) 0.5002(3) 0.0027(4)
H10_4 H 0.0424 0.5126 0.9767
loop_
_geom_bond_atom_site_label_1
_geom_bond_atom_site_label_2
_geom_bond_site_symmetry_1
_geom_bond_site_symmetry_2
O1 C9 1_555 1_555
O2 C9 1_555 1_555
H4 C5 1_555 1_555
C6 C5 1_555 1_555
C9 C6 1_555 1_555
Cd3 O1 1_555 1_555
O2 Cd3 1_555 1_555
Cd3 N1 1_555 1_555
N1 C1 1_555 1_555
N2 N3 1_555 1_555
N3 C1 1_555 1_555
N4 Cd3 1_555 1_555
N5 N6 1_555 1_555
N6 C10 1_555 1_555
C1 H1 1_555 1_555
C2 N1 1_555 1_555
H2 C2 1_555 1_555
C3 N2 1_555 1_555
C4 C3 1_555 1_555
H3 C4 1_555 1_555
H5 C7 1_555 1_555
C8 C3 1_555 1_555
H6 C8 1_555 1_555
C10 N4 1_555 1_555
H7 C10 1_555 1_555
C11 N4 1_555 1_555
H8 C11 1_555 1_555
C12 N5 1_555 1_555
C13 C12 1_555 1_555
H9 C13 1_555 1_555
C14 C13 1_555 1_555
H10 C14 1_555 1_555
O7 Cd3 1_555 1_555
N2 C2 1_555 1_555
N5 C11 1_555 1_555
C7 C8 1_555 1_555
N1_2 C1_2 1_555 1_555
N2_2 N3_2 1_555 1_555
N3_2 C1_2 1_555 1_555
C1_2 H1_2 1_555 1_555
C2_2 N1_2 1_555 1_555
H2_2 C2_2 1_555 1_555
C3_2 N2_2 1_555 1_555
C4_2 C3_2 1_555 1_555
H3_2 C4_2 1_555 1_555
H5_2 C7_2 1_555 1_555
C8_2 C3_2 1_555 1_555
H6_2 C8_2 1_555 1_555
N2_2 C2_2 1_555 1_555
C7_2 C8_2 1_555 1_555
N4_2 Cd1 1_555 1_555
N5_2 N6_2 1_555 1_555
N6_2 C10_2 1_555 1_555
C10_2 N4_2 1_555 1_555
H7_2 C10_2 1_555 1_555
C11_2 N4_2 1_555 1_555
H8_2 C11_2 1_555 1_555
C12_2 N5_2 1_555 1_555
C13_2 C12_2 1_555 1_555
H9_2 C13_2 1_555 1_555
C14_2 C13_2 1_555 1_555
H10_2 C14_2 1_555 1_555
O5 Cd1 1_555 1_555
O6 Cd1 1_555 1_555
O7_2 Cd1 1_555 1_555
N5_2 C11_2 1_555 1_555
O5 C9_2 1_555 1_555
O6 C9_2 1_555 1_555
H4_2 C5_2 1_555 1_555
C6_2 C5_2 1_555 1_555
C9_2 C6_2 1_555 1_555
Cd2 O3 1_555 1_555
O4 Cd2 1_555 1_555
N4_3 Cd2 1_555 1_555
N5_3 N6_3 1_555 1_555
N6_3 C10_3 1_555 1_555
C10_3 N4_3 1_555 1_555
H7_3 C10_3 1_555 1_555
C11_3 N4_3 1_555 1_555
H8_3 C11_3 1_555 1_555
C12_3 N5_3 1_555 1_555
C13_3 C12_3 1_555 1_555
H9_3 C13_3 1_555 1_555
C14_3 C13_3 1_555 1_555
O5_2 Cd2 1_555 1_555
O6_2 Cd2 1_555 1_555
N5_3 C11_3 1_555 1_555
O5_2 C9_3 1_555 1_555
O6_2 C9_3 1_555 1_555
H4_3 C5_3 1_555 1_555
C6_3 C5_3 1_555 1_555
C9_3 C6_3 1_555 1_555
C16 C15 1_555 1_555
H11 C16 1_555 1_555
H12 C17 1_555 1_555
C18 C15 1_555 1_555
C16 C17 1_555 1_555
C16_2 C15_2 1_555 1_555
H11_2 C16_2 1_555 1_555
H12_2 C17_2 1_555 1_555
C18_2 C15_2 1_555 1_555
C16_2 C17_2 1_555 1_555
N1_3 C1_3 1_555 1_555
N2_3 N3_3 1_555 1_555
N3_3 C1_3 1_555 1_555
C1_3 H1_3 1_555 1_555
C2_3 N1_3 1_555 1_555
H2_3 C2_3 1_555 1_555
C3_3 N2_3 1_555 1_555
C4_3 C3_3 1_555 1_555
H3_3 C4_3 1_555 1_555
H5_3 C7_3 1_555 1_555
C8_3 C3_3 1_555 1_555
H6_3 C8_3 1_555 1_555
N2_3 C2_3 1_555 1_555
C7_3 C8_3 1_555 1_555
O1_2 C9_4 1_555 1_555
O2_2 C9_4 1_555 1_555
H4_4 C5_4 1_555 1_555
C6_4 C5_4 1_555 1_555
C9_4 C6_4 1_555 1_555
Cd3_2 O1_2 1_555 1_555
O2_2 Cd3_2 1_555 1_555
O3_2 C18_3 1_555 1_555
O4_2 C18_3 1_555 1_555
C16_3 C15_3 1_555 1_555
H11_3 C16_3 1_555 1_555
H12_3 C17_3 1_555 1_555
C18_3 C15_3 1_555 1_555
Cd3_2 O3_2 1_555 1_555
O4_2 Cd3_2 1_555 1_555
C16_3 C17_3 1_555 1_555
Cd3_2 N1_4 1_555 1_555
N1_4 C1_4 1_555 1_555
N2_4 N3_4 1_555 1_555
N3_4 C1_4 1_555 1_555
N4_4 Cd3_2 1_555 1_555
N5_4 N6_4 1_555 1_555
N6_4 C10_4 1_555 1_555
C1_4 H1_4 1_555 1_555
C2_4 N1_4 1_555 1_555
H2_4 C2_4 1_555 1_555
C3_4 N2_4 1_555 1_555
C4_4 C3_4 1_555 1_555
H3_4 C4_4 1_555 1_555
H5_4 C7_4 1_555 1_555
C8_4 C3_4 1_555 1_555
H6_4 C8_4 1_555 1_555
C10_4 N4_4 1_555 1_555
H7_4 C10_4 1_555 1_555
C11_4 N4_4 1_555 1_555
H8_4 C11_4 1_555 1_555
C12_4 N5_4 1_555 1_555
C13_4 C12_4 1_555 1_555
H9_4 C13_4 1_555 1_555
C14_4 C13_4 1_555 1_555
N2_4 C2_4 1_555 1_555
N5_4 C11_4 1_555 1_555
C7_4 C8_4 1_555 1_555
O8_2 C18_4 1_555 1_555
C16_4 C15_4 1_555 1_555
H11_4 C16_4 1_555 1_555
H12_4 C17_4 1_555 1_555
C18_4 C15_4 1_555 1_555
C16_4 C17_4 1_555 1_555

#END
