
###############################################################################
#
# This file contains modified crystal structure data generated from the
# MOF subset of the Cambridge Structural Database (CSD) v543 
# hosted by the Cambridge Crystallographic Data Centre (CCDC).
#
# This work is licensed under the Creative Commons
# Attribution-NonCommercial-ShareAlike 4.0 International License.
# To view a copy of this license, visit
# http://creativecommons.org/licenses/by-nc-sa/4.0/
# or send a letter to
# Creative Commons, PO Box 1866, Mountain View, CA 94042, USA.
#
# CIF created using the CSD Python API on 29 September 2022
# The structure has been converted into the P1 space group
# The structure has a 3D framework
# The original CSD entry LIVTER is in the monoclinic crystal system
# The framework has been calculated to contain at least 10.0% void space
# The void calculation uses a probe of radius 1.32A, grid spacing 0.4
#
###############################################################################

data_LIVTER
_chemical_formula_moiety         '(C52 H40 N8 O14)n'
_symmetry_cell_setting           triclinic
_symmetry_space_group_name_H-M   'P 1'
_symmetry_Int_Tables_number      1
_space_group_name_Hall           'P 1'
loop_
_symmetry_equiv_pos_site_id
_symmetry_equiv_pos_as_xyz
1 x,y,z
_cell_length_a                   11.7106(4)
_cell_length_b                   12.5045(3)
_cell_length_c                   13.3522(10)
_cell_angle_alpha                90
_cell_angle_beta                 116.262(4)
_cell_angle_gamma                90
_cell_volume                     1753.41
loop_
_atom_site_label
_atom_site_type_symbol
_atom_site_fract_x
_atom_site_fract_y
_atom_site_fract_z
N1 N 0.0856(3) 0.7493(2) 0.4703(2)
N2 N 0.2348(3) 0.8398(2) 0.4485(2)
C7 C 0.0264(3) 0.6715(3) 0.5152(3)
H4 H 0.0547 0.6849 0.5942
H5 H 0.0528 0.5998 0.5070
C8 C 0.0254(4) 0.8264(3) 0.3897(4)
C9 C 0.1186(4) 0.8799(3) 0.3776(3)
H7 H 0.1054 0.9361 0.3280
C10 C 0.2118(3) 0.7599(3) 0.5023(3)
C11 C 0.3092(4) 0.6886(3) 0.5853(3)
H8 H 0.3922 0.7093 0.5944
H9 H 0.2926 0.6160 0.5596
H10 H 0.3058 0.6946 0.6557
Cu4 Cu 0.39924(3) 0.93165(3) 0.47559(3)
Cu1 Cu 0.60076(3) 0.06835(3) 0.52441(3)
O5 O 0.4946(2) 0.17331(17) 0.5548(2)
O6 O 0.5001(2) 0.0951(2) 0.36277(19)
O7 O 0.6664(2) 0.01485(18) 0.67943(18)
N3 N 0.7652(3) 0.1602(2) 0.5515(2)
O1 O 0.6732(2) 0.93621(17) 0.4934(2)
O2 O 0.5054(2) 0.82669(17) 0.4452(2)
O3 O 0.4999(2) 0.5951(2) 0.13723(19)
O4 O 0.6664(2) 0.48515(18) 0.17943(18)
C1 C 0.6867(3) 0.7631(2) 0.4299(3)
C2 C 0.6195(3) 0.6962(2) 0.3414(3)
H1 H 0.5311 0.7006 0.3049
C3 C 0.6823(3) 0.6220(2) 0.3062(3)
C4 C 0.8142(3) 0.6132(3) 0.3646(3)
H2 H 0.8568 0.5623 0.3429
C5 C 0.8826(3) 0.6793(2) 0.4546(3)
C6 C 0.8179(3) 0.7554(2) 0.4862(3)
H3 H 0.8632 0.8012 0.5456
H6 H 0.9383 0.8389 0.3516
C12 C 0.6157(3) 0.8493(3) 0.4594(3)
C13 C 0.6097(3) 0.5615(3) 0.1996(3)
Cu5 Cu 0.60076(3) 0.43165(3) 0.02441(3)
Cu2 Cu 0.39924(3) 0.56835(3) 0.97559(3)
O1_2 O 0.3268(2) 0.43621(17) 0.0066(2)
O2_2 O 0.4946(2) 0.32669(17) 0.0548(2)
C1_2 C 0.3133(3) 0.2631(2) 0.0701(3)
C2_2 C 0.3805(3) 0.1962(2) 0.1586(3)
H1_2 H 0.4689 0.2006 0.1951
C3_2 C 0.3177(3) 0.1220(2) 0.1938(3)
C4_2 C 0.1858(3) 0.1132(3) 0.1354(3)
H2_2 H 0.1432 0.0623 0.1571
C5_2 C 0.1174(3) 0.1793(2) 0.0454(3)
C6_2 C 0.1821(3) 0.2554(2) 0.0138(3)
H6_2 H 0.0617 0.3389 0.1484
C12_2 C 0.3843(3) 0.3493(3) 0.0406(3)
C13_2 C 0.3903(3) 0.0615(3) 0.3004(3)
H3_2 H 0.1368 0.3012 0.9544
O5_2 O 0.5054(2) 0.67331(17) 0.9452(2)
O7_2 O 0.3336(2) 0.51485(18) 0.82057(18)
N3_2 N 0.2348(3) 0.6602(2) 0.9485(2)
O4_2 O 0.3336(2) 0.98515(18) 0.32057(18)
N1_2 N 0.9144(3) 0.2493(2) 0.0297(2)
N2_2 N 0.7652(3) 0.3398(2) 0.0515(2)
C8_2 C 0.9746(4) 0.3264(3) 0.1103(4)
C9_2 C 0.8814(4) 0.3799(3) 0.1224(3)
H7_2 H 0.8946 0.4361 0.1720
O1_3 O 0.3268(2) 0.06379(17) 0.5066(2)
O3_2 O 0.5001(2) 0.4049(2) 0.86277(19)
C1_3 C 0.3133(3) 0.2369(2) 0.5701(3)
C2_3 C 0.3805(3) 0.3038(2) 0.6586(3)
H1_3 H 0.4689 0.2994 0.6951
C3_3 C 0.3177(3) 0.3780(2) 0.6938(3)
C4_3 C 0.1858(3) 0.3868(3) 0.6354(3)
H2_3 H 0.1432 0.4377 0.6571
C5_3 C 0.1174(3) 0.3207(2) 0.5454(3)
C6_3 C 0.1821(3) 0.2446(2) 0.5138(3)
H3_3 H 0.1368 0.1988 0.4544
H6_3 H 0.0617 0.1611 0.6484
C12_3 C 0.3843(3) 0.1507(3) 0.5406(3)
C13_3 C 0.3903(3) 0.4385(3) 0.8004(3)
O6_2 O 0.4999(2) 0.9049(2) 0.63723(19)
N1_3 N 0.9144(3) 0.2507(2) 0.5297(2)
C7_2 C 0.9736(3) 0.3285(3) 0.4848(3)
H4_2 H 0.9453 0.3151 0.4058
H5_2 H 0.9472 0.4002 0.4930
C8_3 C 0.9746(4) 0.1736(3) 0.6103(4)
C9_3 C 0.8814(4) 0.1201(3) 0.6224(3)
H7_3 H 0.8946 0.0639 0.6720
C10_2 C 0.7882(3) 0.2401(3) 0.4977(3)
C11_2 C 0.6908(4) 0.3114(3) 0.4147(3)
H8_2 H 0.6078 0.2907 0.4056
H9_2 H 0.7074 0.3840 0.4404
H10_2 H 0.6942 0.3054 0.3443
N1_4 N 0.0856(3) 0.7507(2) 0.9703(2)
C8_4 C 0.0254(4) 0.6736(3) 0.8897(4)
C9_4 C 0.1186(4) 0.6201(3) 0.8776(3)
H7_4 H 0.1054 0.5639 0.8280
H3_4 H 0.8632 0.6988 0.0456
O1_4 O 0.6732(2) 0.56379(17) 0.9934(2)
C1_4 C 0.6867(3) 0.7369(2) 0.9299(3)
C2_4 C 0.6195(3) 0.8038(2) 0.8414(3)
H1_4 H 0.5311 0.7994 0.8049
C3_4 C 0.6823(3) 0.8780(2) 0.8062(3)
C4_4 C 0.8142(3) 0.8868(3) 0.8646(3)
H2_4 H 0.8568 0.9377 0.8429
C5_4 C 0.8826(3) 0.8207(2) 0.9546(3)
C6_4 C 0.8179(3) 0.7446(2) 0.9862(3)
H6_4 H 0.9383 0.6611 0.8516
C12_4 C 0.6157(3) 0.6507(3) 0.9594(3)
C13_4 C 0.6097(3) 0.9385(3) 0.6996(3)
C7_3 C 0.9736(3) 0.1715(3) 0.9848(3)
H4_3 H 0.9453 0.1849 0.9058
H5_3 H 0.9472 0.0998 0.9930
C10_3 C 0.7882(3) 0.2599(3) 0.9977(3)
C11_3 C 0.6908(4) 0.1886(3) 0.9147(3)
H8_3 H 0.6078 0.2093 0.9056
H9_3 H 0.7074 0.1160 0.9404
H10_3 H 0.6942 0.1946 0.8443
C7_4 C 0.0264(3) 0.8285(3) 0.0152(3)
H4_4 H 0.0547 0.8151 0.0942
H5_4 H 0.0528 0.9002 0.0070
C10_4 C 0.2118(3) 0.7401(3) 0.0023(3)
C11_4 C 0.3092(4) 0.8114(3) 0.0853(3)
H8_4 H 0.3922 0.7907 0.0944
H9_4 H 0.2926 0.8840 0.0596
H10_4 H 0.3058 0.8054 0.1557
loop_
_geom_bond_atom_site_label_1
_geom_bond_atom_site_label_2
_geom_bond_site_symmetry_1
_geom_bond_site_symmetry_2
N1 C7 1_555 1_555
N2 C9 1_555 1_555
H4 C7 1_555 1_555
H5 C7 1_555 1_555
C8 N1 1_555 1_555
C9 C8 1_555 1_555
H7 C9 1_555 1_555
C10 N1 1_555 1_555
C11 C10 1_555 1_555
H8 C11 1_555 1_555
H9 C11 1_555 1_555
H10 C11 1_555 1_555
Cu4 N2 1_555 1_555
N2 C10 1_555 1_555
O5 Cu1 1_555 1_555
O6 Cu1 1_555 1_555
O7 Cu1 1_555 1_555
N3 Cu1 1_555 1_555
O1 C12 1_555 1_555
O2 C12 1_555 1_555
O3 C13 1_555 1_555
O4 C13 1_555 1_555
C1 C2 1_555 1_555
C2 H1 1_555 1_555
C3 C2 1_555 1_555
C4 C3 1_555 1_555
H2 C4 1_555 1_555
C5 C4 1_555 1_555
C6 C1 1_555 1_555
H3 C6 1_555 1_555
C12 C1 1_555 1_555
C13 C3 1_555 1_555
Cu5 O4 1_555 1_555
O2 Cu4 1_555 1_555
C5 C6 1_555 1_555
O1_2 C12_2 1_555 1_555
O2_2 C12_2 1_555 1_555
O6 C13_2 1_555 1_555
C1_2 C2_2 1_555 1_555
C2_2 H1_2 1_555 1_555
C3_2 C2_2 1_555 1_555
C4_2 C3_2 1_555 1_555
H2_2 C4_2 1_555 1_555
C5_2 C4_2 1_555 1_555
C6_2 C1_2 1_555 1_555
C12_2 C1_2 1_555 1_555
C13_2 C3_2 1_555 1_555
O2_2 Cu5 1_555 1_555
C5_2 C6_2 1_555 1_555
O5_2 Cu2 1_555 1_555
O7_2 Cu2 1_555 1_555
N3_2 Cu2 1_555 1_555
Cu4 O4_2 1_555 1_555
N2_2 C9_2 1_555 1_555
C8_2 N1_2 1_555 1_555
C9_2 C8_2 1_555 1_555
H7_2 C9_2 1_555 1_555
Cu5 N2_2 1_555 1_555
O1_3 C12_3 1_555 1_555
O5 C12_3 1_555 1_555
O3_2 C13_3 1_555 1_555
O7_2 C13_3 1_555 1_555
C1_3 C2_3 1_555 1_555
C2_3 H1_3 1_555 1_555
C3_3 C2_3 1_555 1_555
C4_3 C3_3 1_555 1_555
H2_3 C4_3 1_555 1_555
C5_3 C4_3 1_555 1_555
C6_3 C1_3 1_555 1_555
H3_3 C6_3 1_555 1_555
C12_3 C1_3 1_555 1_555
C13_3 C3_3 1_555 1_555
C5_3 C6_3 1_555 1_555
O6_2 Cu4 1_555 1_555
N1_3 C7_2 1_555 1_555
N3 C9_3 1_555 1_555
H4_2 C7_2 1_555 1_555
H5_2 C7_2 1_555 1_555
C8_3 N1_3 1_555 1_555
C9_3 C8_3 1_555 1_555
H7_3 C9_3 1_555 1_555
C10_2 N1_3 1_555 1_555
C11_2 C10_2 1_555 1_555
H8_2 C11_2 1_555 1_555
H9_2 C11_2 1_555 1_555
H10_2 C11_2 1_555 1_555
N3 C10_2 1_555 1_555
N3_2 C9_4 1_555 1_555
C8_4 N1_4 1_555 1_555
C9_4 C8_4 1_555 1_555
H7_4 C9_4 1_555 1_555
O1_4 C12_4 1_555 1_555
O5_2 C12_4 1_555 1_555
O6_2 C13_4 1_555 1_555
C1_4 C2_4 1_555 1_555
C2_4 H1_4 1_555 1_555
C3_4 C2_4 1_555 1_555
C4_4 C3_4 1_555 1_555
H2_4 C4_4 1_555 1_555
C5_4 C4_4 1_555 1_555
C6_4 C1_4 1_555 1_555
C12_4 C1_4 1_555 1_555
C13_4 C3_4 1_555 1_555
C5_4 C6_4 1_555 1_555
H4_3 C7_3 1_555 1_555
H5_3 C7_3 1_555 1_555
C11_3 C10_3 1_555 1_555
H8_3 C11_3 1_555 1_555
H9_3 C11_3 1_555 1_555
H10_3 C11_3 1_555 1_555
H4_4 C7_4 1_555 1_555
H5_4 C7_4 1_555 1_555
C11_4 C10_4 1_555 1_555
H8_4 C11_4 1_555 1_555
H9_4 C11_4 1_555 1_555
H10_4 C11_4 1_555 1_555

#END
