
###############################################################################
#
# This file contains modified crystal structure data generated from the
# MOF subset of the Cambridge Structural Database (CSD) v543 
# hosted by the Cambridge Crystallographic Data Centre (CCDC).
#
# This work is licensed under the Creative Commons
# Attribution-NonCommercial-ShareAlike 4.0 International License.
# To view a copy of this license, visit
# http://creativecommons.org/licenses/by-nc-sa/4.0/
# or send a letter to
# Creative Commons, PO Box 1866, Mountain View, CA 94042, USA.
#
# CIF created using the CSD Python API on 29 September 2022
# The structure has been converted into the P1 space group
# The structure has a 3D framework
# The original CSD entry LIVZOH is in the monoclinic crystal system
# The framework has been calculated to contain at least 10.0% void space
# The void calculation uses a probe of radius 1.32A, grid spacing 0.4
#
###############################################################################

data_LIVZOH
_chemical_formula_moiety         '(C152 H120 N16 O54 Zn8)n'
_symmetry_cell_setting           triclinic
_symmetry_space_group_name_H-M   'P 1'
_symmetry_Int_Tables_number      1
_space_group_name_Hall           'P 1'
loop_
_symmetry_equiv_pos_site_id
_symmetry_equiv_pos_as_xyz
1 x,y,z
_cell_length_a                   18.4146(6)
_cell_length_b                   15.8807(5)
_cell_length_c                   17.4536(5)
_cell_angle_alpha                90
_cell_angle_beta                 91.322(2)
_cell_angle_gamma                90
_cell_volume                     5102.72
loop_
_atom_site_label
_atom_site_type_symbol
_atom_site_fract_x
_atom_site_fract_y
_atom_site_fract_z
N1 N 0.05668(15) 0.03428(18) 0.15742(15)
C22 C 0.00580(18) 0.0883(2) 0.17949(18)
H14 H 0.0206 0.1345 0.2087
Zn5 Zn 0.162672(18) 0.06259(2) 0.172379(17)
O2 O 0.2503(2) 0.0026(2) 0.21706(17)
H1 H 0.778(2) 0.124(3) 0.184(2)
O1 O 0.17488(14) 0.16367(14) 0.23363(11)
C1 C 0.16070(17) 0.1682(2) 0.30407(17)
C2 C 0.18934(16) 0.2442(2) 0.34490(15)
C3 C 0.23697(16) 0.2982(2) 0.30848(16)
H3 H 0.2508 0.2862 0.2588
C4 C 0.2382(3) 0.9289(4) 0.2110(2)
O3 O 0.50511(13) 0.94795(16) 0.30376(14)
C5 C 0.4940(2) 0.8686(2) 0.30061(18)
C6 C 0.42317(17) 0.8400(2) 0.26790(15)
C9 C 0.9135(3) 0.0151(4) 0.1185(5)
H6 H 0.8646 0.0063 0.1064
C10 C 0.9335(2) 0.0804(3) 0.1622(2)
C11 C 0.8812(2) 0.1442(4) 0.1937(2)
H7 H 0.8766 0.1344 0.2483
H8 H 0.9014 0.2001 0.1872
N2 N 0.80919(18) 0.1419(3) 0.1578(2)
C12 C 0.7944(2) 0.1762(3) 0.0913(2)
C13 C 0.71503(18) 0.1836(3) 0.06722(19)
H9 H 0.6861 0.1539 0.1051
Zn1 Zn 0.162672(18) 0.43741(2) 0.672379(17)
Zn2 Zn 0.39158(2) 0.47197(3) 0.17498(2)
O4 O 0.19863(12) 0.41781(14) 0.56815(11)
O5 O 0.39387(12) 0.59521(14) 0.18689(12)
O6 O 0.32128(13) 0.41053(16) 0.23251(12)
C14 C 0.16888(18) 0.3560(2) 0.53456(16)
C15 C 0.16793(16) 0.2635(2) 0.41813(15)
H10 H 0.1355 0.2284 0.4427
O7 O 0.12638(16) 0.11417(18) 0.33827(13)
C16 C 0.24305(16) 0.3869(2) 0.41871(15)
H11 H 0.2617 0.4341 0.4438
N3 N 0.36330(15) 0.45689(18) 0.06068(14)
O8 O 0.11874(14) 0.31360(16) 0.56218(12)
C17 C 0.19443(16) 0.3349(2) 0.45548(15)
O9 O 0.34876(18) 0.4812(2) 0.33862(15)
C19 C 0.40070(17) 0.4096(2) 0.01255(17)
H12 H 0.4428 0.3835 0.0311
C21 C 0.3160(2) 0.4258(2) 0.3034(2)
C23 C 0.26398(17) 0.3688(2) 0.34444(16)
O10 O 0.53904(14) 0.81692(18) 0.32357(15)
C24 C 0.41241(17) 0.7563(2) 0.25043(15)
H15 H 0.4509 0.7189 0.2571
C25 C 0.3651(2) 0.8948(2) 0.25476(16)
H16 H 0.3712 0.9520 0.2646
O12 O 0.27501(15) 0.60369(19) 0.20073(17)
C26 C 0.34574(17) 0.7257(2) 0.22308(15)
C28 C 0.28933(18) 0.7814(2) 0.21313(16)
H17 H 0.2441 0.7617 0.1965
C29 C 0.29854(19) 0.8659(3) 0.22733(17)
C30 C 0.3364(2) 0.6357(2) 0.20281(17)
C32 C 0.61413(19) 0.2871(3) 0.04697(18)
H20 H 0.5847 0.2608 0.0857
H21 H 0.6026 0.3467 0.0459
O13 O 0.84333(15) 0.2043(2) 0.05071(18)
H24 H 0.5887 0.1252 0.0014
C35 C 0.69357(19) 0.2758(3) 0.0682(2)
H25 H 0.7030 0.2988 0.1189
H26 H 0.7229 0.3067 0.0323
C36 C 0.3041(2) 0.4943(3) 0.0337(2)
H27 H 0.2775 0.5283 0.0661
O14 O 0.1781(2) 0.9011(3) 0.1900(2)
O15 O 0.17488(14) 0.33633(14) 0.73363(11)
O16 O 0.2503(2) 0.4974(2) 0.71706(17)
O17 O 0.49489(13) 0.44795(16) 0.19624(14)
N5 N 0.05668(15) 0.46572(18) 0.65742(15)
Zn6 Zn 0.60842(2) 0.97197(3) 0.32502(2)
O2_2 O 0.7497(2) 0.5026(2) 0.28294(17)
C4_2 C 0.7618(3) 0.4289(4) 0.2890(2)
C5_2 C 0.5060(2) 0.3686(2) 0.19939(18)
C6_2 C 0.57683(17) 0.3400(2) 0.23210(15)
O5_2 O 0.60613(12) 0.09521(14) 0.31311(12)
O10_2 O 0.46096(14) 0.31692(18) 0.17643(15)
C24_2 C 0.58759(17) 0.2563(2) 0.24957(15)
H15_2 H 0.5491 0.2189 0.2429
C25_2 C 0.6349(2) 0.3948(2) 0.24524(16)
H16_2 H 0.6288 0.4520 0.2354
O12_2 O 0.72499(15) 0.10369(19) 0.29927(17)
C26_2 C 0.65426(17) 0.2257(2) 0.27692(15)
C28_2 C 0.71067(18) 0.2814(2) 0.28687(16)
H17_2 H 0.7559 0.2617 0.3035
C29_2 C 0.70146(19) 0.3659(3) 0.27267(17)
C30_2 C 0.6636(2) 0.1357(2) 0.29719(17)
H27_2 H 0.7225 0.0283 0.4339
O14_2 O 0.8219(2) 0.4011(3) 0.3100(2)
H28 H 0.7620 0.0106 0.5603
Zn4 Zn 0.837328(18) 0.56259(2) 0.327621(17)
H1_2 H 0.222(2) 0.624(3) 0.316(2)
H2 H 0.470(2) 0.851(2) 0.619(2)
O1_2 O 0.82512(14) 0.66367(14) 0.26637(11)
C1_2 C 0.83930(17) 0.6682(2) 0.19593(17)
C2_2 C 0.81066(16) 0.7442(2) 0.15510(15)
C3_2 C 0.76303(16) 0.7982(2) 0.19152(16)
H3_2 H 0.7492 0.7862 0.2412
C8 C 0.0338(3) 0.4597(4) 0.4091(4)
H5 H 0.0469 0.4158 0.4418
C9_2 C 0.0865(3) 0.5151(4) 0.3815(5)
H6_2 H 0.1354 0.5063 0.3936
C10_2 C 0.0665(2) 0.5804(3) 0.3378(2)
C11_2 C 0.1188(2) 0.6442(4) 0.3063(2)
H7_2 H 0.1234 0.6344 0.2517
H8_2 H 0.0986 0.7001 0.3128
N2_2 N 0.19081(18) 0.6419(3) 0.3422(2)
C12_2 C 0.2056(2) 0.6762(3) 0.4087(2)
C13_2 C 0.28497(18) 0.6836(3) 0.43278(19)
H9_2 H 0.3139 0.6539 0.3949
O6_2 O 0.67872(13) 0.91053(16) 0.26749(12)
C15_2 C 0.83207(16) 0.7635(2) 0.08187(15)
H10_2 H 0.8645 0.7284 0.0573
O7_2 O 0.87362(16) 0.61417(18) 0.16173(13)
C16_2 C 0.75695(16) 0.8869(2) 0.08129(15)
H11_2 H 0.7383 0.9341 0.0562
N3_2 N 0.63670(15) 0.95689(18) 0.43932(14)
C17_2 C 0.80557(16) 0.8349(2) 0.04452(15)
C18 C 0.61947(17) 0.8968(2) 0.56380(17)
O9_2 O 0.65124(18) 0.9812(2) 0.16138(15)
C19_2 C 0.59930(17) 0.9096(2) 0.48745(17)
H12_2 H 0.5572 0.8835 0.4689
C20 C 0.6811(2) 0.9360(3) 0.5899(2)
H13 H 0.6965 0.9293 0.6406
C21_2 C 0.6840(2) 0.9258(2) 0.1966(2)
C23_2 C 0.73602(17) 0.8688(2) 0.15556(16)
O11 O 0.53080(14) 0.71716(19) 0.51858(15)
N4 N 0.50287(17) 0.8252(2) 0.59384(16)
C27 C 0.48411(18) 0.7617(3) 0.54792(18)
C31 C 0.5774(2) 0.8421(3) 0.61697(18)
H18 H 0.6026 0.7887 0.6225
H19 H 0.5776 0.8687 0.6670
C32_2 C 0.38587(19) 0.7871(3) 0.45303(18)
H20_2 H 0.4153 0.7608 0.4143
H21_2 H 0.3974 0.8467 0.4541
O13_2 O 0.15667(15) 0.7043(2) 0.44929(18)
C33 C 0.40424(18) 0.7489(2) 0.53003(17)
H22 H 0.3768 0.7795 0.5687
C34 C 0.3816(2) 0.6576(3) 0.5330(2)
H23 H 0.3899 0.6363 0.5845
H24_2 H 0.4113 0.6252 0.4986
C35_2 C 0.30643(19) 0.7758(3) 0.4318(2)
H25_2 H 0.2970 0.7988 0.3811
H26_2 H 0.2771 0.8067 0.4677
C36_2 C 0.6959(2) 0.9943(3) 0.4663(2)
C37 C 0.7198(2) 0.9841(3) 0.5427(3)
C38 C 0.3017(2) 0.6459(3) 0.5103(2)
H29 H 0.2902 0.5863 0.5093
H30 H 0.2716 0.6725 0.5483
Zn1_2 Zn 0.837328(18) 0.93741(2) 0.827621(17)
O4_2 O 0.80137(12) 0.91781(14) 0.93185(11)
C14_2 C 0.83112(18) 0.8560(2) 0.96544(16)
O8_2 O 0.88126(14) 0.81360(16) 0.93782(12)
O15_2 O 0.82512(14) 0.83633(14) 0.76637(11)
O16_2 O 0.7497(2) 0.9974(2) 0.78294(17)
N5_2 N 0.94332(15) 0.96572(18) 0.84258(15)
N1_2 N 0.94332(15) 0.53428(18) 0.34258(15)
C7 C 0.9634(2) 0.4713(3) 0.3872(3)
H4 H 0.9285 0.4338 0.4042
C22_2 C 0.99420(18) 0.5883(2) 0.32051(18)
H14_2 H 0.9794 0.6345 0.2913
H1_3 H 0.222(2) 0.876(3) 0.816(2)
C1_3 C 0.83930(17) 0.8318(2) 0.69593(17)
C2_3 C 0.81066(16) 0.7558(2) 0.65510(15)
C3_3 C 0.76303(16) 0.7018(2) 0.69152(16)
H3_3 H 0.7492 0.7138 0.7412
C4_3 C 0.7618(3) 0.0711(4) 0.7890(2)
O3_2 O 0.49489(13) 0.05205(16) 0.69624(14)
C5_3 C 0.5060(2) 0.1314(2) 0.69939(18)
C6_3 C 0.57683(17) 0.1600(2) 0.73210(15)
C9_3 C 0.0865(3) 0.9849(4) 0.8815(5)
H6_3 H 0.1354 0.9937 0.8936
C10_3 C 0.0665(2) 0.9196(3) 0.8378(2)
C11_3 C 0.1188(2) 0.8558(4) 0.8063(2)
H7_3 H 0.1234 0.8656 0.7517
H8_3 H 0.0986 0.7999 0.8128
N2_3 N 0.19081(18) 0.8581(3) 0.8422(2)
C12_3 C 0.2056(2) 0.8238(3) 0.9087(2)
C13_3 C 0.28497(18) 0.8164(3) 0.93278(19)
H9_3 H 0.3139 0.8461 0.8949
Zn2_2 Zn 0.60842(2) 0.52803(3) 0.82502(2)
O4_3 O 0.80137(12) 0.58219(14) 0.43185(11)
O5_3 O 0.60613(12) 0.40479(14) 0.81311(12)
O6_3 O 0.67872(13) 0.58947(16) 0.76749(12)
C14_3 C 0.83112(18) 0.6440(2) 0.46544(16)
C15_3 C 0.83207(16) 0.7365(2) 0.58187(15)
H10_3 H 0.8645 0.7716 0.5573
O7_3 O 0.87362(16) 0.88583(18) 0.66173(13)
C16_3 C 0.75695(16) 0.6131(2) 0.58129(15)
H11_3 H 0.7383 0.5659 0.5562
N3_3 N 0.63670(15) 0.54311(18) 0.93932(14)
O8_3 O 0.88126(14) 0.68640(16) 0.43782(12)
C17_3 C 0.80557(16) 0.6651(2) 0.54452(15)
O9_3 O 0.65124(18) 0.5188(2) 0.66138(15)
C19_3 C 0.59930(17) 0.5904(2) 0.98745(17)
H12_3 H 0.5572 0.6165 0.9689
C21_3 C 0.6840(2) 0.5742(2) 0.6966(2)
C23_3 C 0.73602(17) 0.6312(2) 0.65556(16)
O10_3 O 0.46096(14) 0.18308(18) 0.67643(15)
C24_3 C 0.58759(17) 0.2437(2) 0.74957(15)
H15_3 H 0.5491 0.2811 0.7429
C25_3 C 0.6349(2) 0.1052(2) 0.74524(16)
H16_3 H 0.6288 0.0480 0.7354
O12_3 O 0.72499(15) 0.39631(19) 0.79927(17)
C26_3 C 0.65426(17) 0.2743(2) 0.77692(15)
C28_3 C 0.71067(18) 0.2186(2) 0.78687(16)
H17_3 H 0.7559 0.2383 0.8035
C29_3 C 0.70146(19) 0.1341(3) 0.77267(17)
C30_3 C 0.6636(2) 0.3643(2) 0.79719(17)
C32_3 C 0.38587(19) 0.7129(3) 0.95303(18)
H20_3 H 0.4153 0.7392 0.9143
H21_3 H 0.3974 0.6533 0.9541
O13_3 O 0.15667(15) 0.7957(2) 0.94929(18)
H24_3 H 0.4113 0.8748 0.9986
C35_3 C 0.30643(19) 0.7242(3) 0.9318(2)
H25_3 H 0.2970 0.7012 0.8811
H26_3 H 0.2771 0.6933 0.9677
C36_3 C 0.6959(2) 0.5057(3) 0.9663(2)
H27_3 H 0.7225 0.4717 0.9339
O14_3 O 0.8219(2) 0.0989(3) 0.8100(2)
O17_2 O 0.50511(13) 0.55205(16) 0.80376(14)
Zn6_2 Zn 0.39158(2) 0.02803(3) 0.67498(2)
C22_3 C 0.99420(18) 0.9117(2) 0.82051(18)
H14_3 H 0.9794 0.8655 0.7913
C7_2 C 0.0366(2) 0.5287(3) 0.6128(3)
H4_2 H 0.0715 0.5662 0.5958
C22_4 C 0.00580(18) 0.4117(2) 0.67949(18)
H14_4 H 0.0206 0.3655 0.7087
O4_4 O 0.19863(12) 0.08219(14) 0.06815(11)
C14_4 C 0.16888(18) 0.1440(2) 0.03456(16)
O8_4 O 0.11874(14) 0.18640(16) 0.06218(12)
H1_4 H 0.778(2) 0.376(3) 0.684(2)
H2_2 H 0.530(2) 0.149(2) 0.381(2)
C1_4 C 0.16070(17) 0.3318(2) 0.80407(17)
C2_4 C 0.18934(16) 0.2558(2) 0.84490(15)
C3_4 C 0.23697(16) 0.2018(2) 0.80848(16)
H3_4 H 0.2508 0.2138 0.7588
C8_2 C 0.9662(3) 0.5403(4) 0.5909(4)
H5_2 H 0.9531 0.5842 0.5582
C9_4 C 0.9135(3) 0.4849(4) 0.6185(5)
H6_4 H 0.8646 0.4937 0.6064
C10_4 C 0.9335(2) 0.4196(3) 0.6622(2)
C11_4 C 0.8812(2) 0.3558(4) 0.6937(2)
H7_4 H 0.8766 0.3656 0.7483
H8_4 H 0.9014 0.2999 0.6872
N2_4 N 0.80919(18) 0.3581(3) 0.6578(2)
C12_4 C 0.7944(2) 0.3238(3) 0.5913(2)
C13_4 C 0.71503(18) 0.3164(3) 0.56722(19)
H9_4 H 0.6861 0.3461 0.6051
O6_4 O 0.32128(13) 0.08947(16) 0.73251(12)
C15_4 C 0.16793(16) 0.2365(2) 0.91813(15)
H10_4 H 0.1355 0.2716 0.9427
O7_4 O 0.12638(16) 0.38583(18) 0.83827(13)
C16_4 C 0.24305(16) 0.1131(2) 0.91871(15)
H11_4 H 0.2617 0.0659 0.9438
N3_4 N 0.36330(15) 0.04311(18) 0.56068(14)
C17_4 C 0.19443(16) 0.1651(2) 0.95548(15)
C18_2 C 0.38053(17) 0.1032(2) 0.43620(17)
O9_4 O 0.34876(18) 0.0188(2) 0.83862(15)
C19_4 C 0.40070(17) 0.0904(2) 0.51255(17)
H12_4 H 0.4428 0.1165 0.5311
C20_2 C 0.3189(2) 0.0640(3) 0.4101(2)
H13_2 H 0.3035 0.0707 0.3594
C21_4 C 0.3160(2) 0.0742(2) 0.8034(2)
C23_4 C 0.26398(17) 0.1312(2) 0.84444(16)
O11_2 O 0.46920(14) 0.28284(19) 0.48142(15)
N4_2 N 0.49713(17) 0.1748(2) 0.40616(16)
C27_2 C 0.51589(18) 0.2383(3) 0.45208(18)
C31_2 C 0.4226(2) 0.1579(3) 0.38303(18)
H18_2 H 0.3974 0.2113 0.3775
H19_2 H 0.4224 0.1313 0.3330
C32_4 C 0.61413(19) 0.2129(3) 0.54697(18)
H20_4 H 0.5847 0.2392 0.5857
H21_4 H 0.6026 0.1533 0.5459
O13_4 O 0.84333(15) 0.2957(2) 0.55071(18)
C33_2 C 0.59576(18) 0.2511(2) 0.46997(17)
H22_2 H 0.6232 0.2205 0.4313
C34_2 C 0.6184(2) 0.3424(3) 0.4670(2)
H23_2 H 0.6101 0.3637 0.4155
H24_4 H 0.5887 0.3748 0.5014
C35_4 C 0.69357(19) 0.2242(3) 0.5682(2)
H25_4 H 0.7030 0.2012 0.6189
H26_4 H 0.7229 0.1933 0.5323
C36_4 C 0.3041(2) 0.0057(3) 0.5337(2)
C37_2 C 0.2802(2) 0.0159(3) 0.4573(3)
C38_2 C 0.6983(2) 0.3541(3) 0.4897(2)
H29_2 H 0.7098 0.4137 0.4907
H30_2 H 0.7284 0.3275 0.4517
C4_4 C 0.2382(3) 0.5711(4) 0.7110(2)
C5_4 C 0.4940(2) 0.6314(2) 0.80061(18)
C6_4 C 0.42317(17) 0.6600(2) 0.76790(15)
O5_4 O 0.39387(12) 0.90479(14) 0.68689(12)
O10_4 O 0.53904(14) 0.68308(18) 0.82357(15)
C24_4 C 0.41241(17) 0.7437(2) 0.75043(15)
H15_4 H 0.4509 0.7811 0.7571
C25_4 C 0.3651(2) 0.6052(2) 0.75476(16)
H16_4 H 0.3712 0.5480 0.7646
O12_4 O 0.27501(15) 0.89631(19) 0.70073(17)
C26_4 C 0.34574(17) 0.7743(2) 0.72308(15)
C28_4 C 0.28933(18) 0.7186(2) 0.71313(16)
H17_4 H 0.2441 0.7383 0.6965
C29_4 C 0.29854(19) 0.6341(3) 0.72733(17)
C30_4 C 0.3364(2) 0.8643(2) 0.70281(17)
H27_4 H 0.2775 0.9717 0.5661
O14_4 O 0.1781(2) 0.5989(3) 0.6900(2)
H28_2 H 0.2380 0.9894 0.4397
C7_3 C 0.0366(2) 0.9713(3) 0.1128(3)
H4_3 H 0.0715 0.9338 0.0958
H2_3 H 0.530(2) 0.351(2) 0.881(2)
C18_3 C 0.38053(17) 0.3968(2) 0.93620(17)
C20_3 C 0.3189(2) 0.4360(3) 0.9101(2)
H13_3 H 0.3035 0.4293 0.8594
O11_3 O 0.46920(14) 0.21716(19) 0.98142(15)
N4_3 N 0.49713(17) 0.3252(2) 0.90616(16)
C27_3 C 0.51589(18) 0.2617(3) 0.95208(18)
C31_3 C 0.4226(2) 0.3421(3) 0.88303(18)
H18_3 H 0.3974 0.2887 0.8775
H19_3 H 0.4224 0.3687 0.8330
C33_3 C 0.59576(18) 0.2489(2) 0.96997(17)
H22_3 H 0.6232 0.2795 0.9313
C34_3 C 0.6184(2) 0.1576(3) 0.9670(2)
H23_3 H 0.6101 0.1363 0.9155
C37_3 C 0.2802(2) 0.4841(3) 0.9573(3)
H28_3 H 0.2380 0.5106 0.9397
C38_3 C 0.6983(2) 0.1459(3) 0.9897(2)
H29_3 H 0.7098 0.0863 0.9907
H30_3 H 0.7284 0.1725 0.9517
C8_3 C 0.9662(3) 0.9597(4) 0.0909(4)
H5_3 H 0.9531 0.9158 0.0582
C8_4 C 0.0338(3) 0.0403(4) 0.9091(4)
H5_4 H 0.0469 0.0842 0.9418
H2_4 H 0.470(2) 0.649(2) 0.119(2)
C18_4 C 0.61947(17) 0.6032(2) 0.06380(17)
C20_4 C 0.6811(2) 0.5640(3) 0.0899(2)
H13_4 H 0.6965 0.5707 0.1406
O11_4 O 0.53080(14) 0.78284(19) 0.01858(15)
N4_4 N 0.50287(17) 0.6748(2) 0.09384(16)
C27_4 C 0.48411(18) 0.7383(3) 0.04792(18)
C31_4 C 0.5774(2) 0.6579(3) 0.11697(18)
H18_4 H 0.6026 0.7113 0.1225
H19_4 H 0.5776 0.6313 0.1670
C33_4 C 0.40424(18) 0.7511(2) 0.03003(17)
H22_4 H 0.3768 0.7205 0.0687
C34_4 C 0.3816(2) 0.8424(3) 0.0330(2)
H23_4 H 0.3899 0.8637 0.0845
C37_4 C 0.7198(2) 0.5159(3) 0.0427(3)
H28_4 H 0.7620 0.4894 0.0603
C38_4 C 0.3017(2) 0.8541(3) 0.0103(2)
H29_4 H 0.2902 0.9137 0.0093
H30_4 H 0.2716 0.8275 0.0483
C7_4 C 0.9634(2) 0.0287(3) 0.8872(3)
H4_4 H 0.9285 0.0662 0.9042
loop_
_geom_bond_atom_site_label_1
_geom_bond_atom_site_label_2
_geom_bond_site_symmetry_1
_geom_bond_site_symmetry_2
C22 N1 1_555 1_555
H14 C22 1_555 1_555
Zn5 N1 1_555 1_555
Zn5 O2 1_555 1_555
H1 N2 1_555 1_555
O1 C1 1_555 1_555
C1 C2 1_555 1_555
C2 C3 1_555 1_555
C3 H3 1_555 1_555
C4 C29 1_555 1_555
O3 C5 1_555 1_555
C5 C6 1_555 1_555
C6 C24 1_555 1_555
H6 C9 1_555 1_555
C10 C9 1_555 1_555
C11 C10 1_555 1_555
H7 C11 1_555 1_555
H8 C11 1_555 1_555
N2 C11 1_555 1_555
C12 N2 1_555 1_555
C13 C12 1_555 1_555
H9 C13 1_555 1_555
Zn1 O4 1_555 1_555
Zn2 O5 1_555 1_555
O4 C14 1_555 1_555
O5 C30 1_555 1_555
O6 Zn2 1_555 1_555
C14 O8 1_555 1_555
C15 C2 1_555 1_555
H10 C15 1_555 1_555
O7 C1 1_555 1_555
C16 H11 1_555 1_555
N3 Zn2 1_555 1_555
C17 C14 1_555 1_555
O9 C21 1_555 1_555
C19 N3 1_555 1_555
H12 C19 1_555 1_555
C21 O6 1_555 1_555
C23 C3 1_555 1_555
O10 C5 1_555 1_555
C24 H15 1_555 1_555
C25 C6 1_555 1_555
H16 C25 1_555 1_555
O12 C30 1_555 1_555
C26 C24 1_555 1_555
C28 C26 1_555 1_555
H17 C28 1_555 1_555
C29 C25 1_555 1_555
C30 C26 1_555 1_555
C32 H20 1_555 1_555
H21 C32 1_555 1_555
O13 C12 1_555 1_555
C35 C13 1_555 1_555
H25 C35 1_555 1_555
H26 C35 1_555 1_555
C36 N3 1_555 1_555
H27 C36 1_555 1_555
O14 C4 1_555 1_555
O15 Zn1 1_555 1_555
O16 Zn1 1_555 1_555
O17 Zn2 1_555 1_555
N5 Zn1 1_555 1_555
Zn5 O1 1_555 1_555
Zn6 O3 1_555 1_555
C15 C17 1_555 1_555
C16 C17 1_555 1_555
C16 C23 1_555 1_555
C21 C23 1_555 1_555
C28 C29 1_555 1_555
C32 C35 1_555 1_555
O2_2 C4_2 1_555 1_555
C4_2 C29_2 1_555 1_555
O17 C5_2 1_555 1_555
C5_2 C6_2 1_555 1_555
C6_2 C24_2 1_555 1_555
O5_2 C30_2 1_555 1_555
O10_2 C5_2 1_555 1_555
C24_2 H15_2 1_555 1_555
C25_2 C6_2 1_555 1_555
H16_2 C25_2 1_555 1_555
O12_2 C30_2 1_555 1_555
C26_2 C24_2 1_555 1_555
C28_2 C26_2 1_555 1_555
H17_2 C28_2 1_555 1_555
C29_2 C25_2 1_555 1_555
C30_2 C26_2 1_555 1_555
O14_2 C4_2 1_555 1_555
Zn4 O2_2 1_555 1_555
C28_2 C29_2 1_555 1_555
H1_2 N2_2 1_555 1_555
H2 N4 1_555 1_555
O1_2 C1_2 1_555 1_555
C1_2 C2_2 1_555 1_555
C2_2 C3_2 1_555 1_555
C3_2 H3_2 1_555 1_555
H5 C8 1_555 1_555
C9_2 C8 1_555 1_555
H6_2 C9_2 1_555 1_555
C10_2 C9_2 1_555 1_555
C11_2 C10_2 1_555 1_555
H7_2 C11_2 1_555 1_555
H8_2 C11_2 1_555 1_555
N2_2 C11_2 1_555 1_555
C12_2 N2_2 1_555 1_555
C13_2 C12_2 1_555 1_555
H9_2 C13_2 1_555 1_555
O6_2 Zn6 1_555 1_555
C15_2 C2_2 1_555 1_555
H10_2 C15_2 1_555 1_555
O7_2 C1_2 1_555 1_555
C16_2 H11_2 1_555 1_555
N3_2 Zn6 1_555 1_555
C18 C19_2 1_555 1_555
O9_2 C21_2 1_555 1_555
C19_2 N3_2 1_555 1_555
H12_2 C19_2 1_555 1_555
C20 C18 1_555 1_555
H13 C20 1_555 1_555
C21_2 O6_2 1_555 1_555
C23_2 C3_2 1_555 1_555
O11 C27 1_555 1_555
N4 C27 1_555 1_555
C27 C33 1_555 1_555
C31 C18 1_555 1_555
H18 C31 1_555 1_555
H19 C31 1_555 1_555
C32_2 H20_2 1_555 1_555
H21_2 C32_2 1_555 1_555
O13_2 C12_2 1_555 1_555
C33 C32_2 1_555 1_555
H22 C33 1_555 1_555
C34 C33 1_555 1_555
H23 C34 1_555 1_555
H24_2 C34 1_555 1_555
C35_2 C13_2 1_555 1_555
H25_2 C35_2 1_555 1_555
H26_2 C35_2 1_555 1_555
C36_2 N3_2 1_555 1_555
C37 C20 1_555 1_555
C38 C13_2 1_555 1_555
H29 C38 1_555 1_555
H30 C38 1_555 1_555
Zn4 O1_2 1_555 1_555
C15_2 C17_2 1_555 1_555
C16_2 C17_2 1_555 1_555
C16_2 C23_2 1_555 1_555
C21_2 C23_2 1_555 1_555
N4 C31 1_555 1_555
C32_2 C35_2 1_555 1_555
C34 C38 1_555 1_555
C36_2 C37 1_555 1_555
Zn1_2 O4_2 1_555 1_555
O4_2 C14_2 1_555 1_555
C14_2 O8_2 1_555 1_555
O15_2 Zn1_2 1_555 1_555
O16_2 Zn1_2 1_555 1_555
N5_2 Zn1_2 1_555 1_555
N1_2 C7 1_555 1_555
C7 H4 1_555 1_555
C22_2 N1_2 1_555 1_555
H14_2 C22_2 1_555 1_555
Zn4 N1_2 1_555 1_555
H1_3 N2_3 1_555 1_555
O15_2 C1_3 1_555 1_555
C1_3 C2_3 1_555 1_555
C2_3 C3_3 1_555 1_555
C3_3 H3_3 1_555 1_555
C4_3 C29_3 1_555 1_555
O3_2 C5_3 1_555 1_555
C5_3 C6_3 1_555 1_555
C6_3 C24_3 1_555 1_555
H6_3 C9_3 1_555 1_555
C10_3 C9_3 1_555 1_555
C11_3 C10_3 1_555 1_555
H7_3 C11_3 1_555 1_555
H8_3 C11_3 1_555 1_555
N2_3 C11_3 1_555 1_555
C12_3 N2_3 1_555 1_555
C13_3 C12_3 1_555 1_555
H9_3 C13_3 1_555 1_555
Zn4 O4_3 1_555 1_555
Zn2_2 O5_3 1_555 1_555
O4_3 C14_3 1_555 1_555
O5_3 C30_3 1_555 1_555
O6_3 Zn2_2 1_555 1_555
C14_3 O8_3 1_555 1_555
C15_3 C2_3 1_555 1_555
H10_3 C15_3 1_555 1_555
O7_3 C1_3 1_555 1_555
C16_3 H11_3 1_555 1_555
N3_3 Zn2_2 1_555 1_555
C17_3 C14_3 1_555 1_555
O9_3 C21_3 1_555 1_555
C19_3 N3_3 1_555 1_555
H12_3 C19_3 1_555 1_555
C21_3 O6_3 1_555 1_555
C23_3 C3_3 1_555 1_555
O10_3 C5_3 1_555 1_555
C24_3 H15_3 1_555 1_555
C25_3 C6_3 1_555 1_555
H16_3 C25_3 1_555 1_555
O12_3 C30_3 1_555 1_555
C26_3 C24_3 1_555 1_555
C28_3 C26_3 1_555 1_555
H17_3 C28_3 1_555 1_555
C29_3 C25_3 1_555 1_555
C30_3 C26_3 1_555 1_555
C32_3 H20_3 1_555 1_555
H21_3 C32_3 1_555 1_555
O13_3 C12_3 1_555 1_555
C35_3 C13_3 1_555 1_555
H25_3 C35_3 1_555 1_555
H26_3 C35_3 1_555 1_555
C36_3 N3_3 1_555 1_555
H27_3 C36_3 1_555 1_555
O14_3 C4_3 1_555 1_555
O17_2 Zn2_2 1_555 1_555
Zn6_2 O3_2 1_555 1_555
C15_3 C17_3 1_555 1_555
C16_3 C17_3 1_555 1_555
C16_3 C23_3 1_555 1_555
C21_3 C23_3 1_555 1_555
C28_3 C29_3 1_555 1_555
C32_3 C35_3 1_555 1_555
C22_3 N5_2 1_555 1_555
H14_3 C22_3 1_555 1_555
N5 C7_2 1_555 1_555
C7_2 H4_2 1_555 1_555
C22_4 N5 1_555 1_555
H14_4 C22_4 1_555 1_555
Zn5 O4_4 1_555 1_555
O4_4 C14_4 1_555 1_555
C14_4 O8_4 1_555 1_555
H1_4 N2_4 1_555 1_555
H2_2 N4_2 1_555 1_555
O15 C1_4 1_555 1_555
C1_4 C2_4 1_555 1_555
C2_4 C3_4 1_555 1_555
C3_4 H3_4 1_555 1_555
H5_2 C8_2 1_555 1_555
C9_4 C8_2 1_555 1_555
H6_4 C9_4 1_555 1_555
C10_4 C9_4 1_555 1_555
C11_4 C10_4 1_555 1_555
H7_4 C11_4 1_555 1_555
H8_4 C11_4 1_555 1_555
N2_4 C11_4 1_555 1_555
C12_4 N2_4 1_555 1_555
C13_4 C12_4 1_555 1_555
H9_4 C13_4 1_555 1_555
O6_4 Zn6_2 1_555 1_555
C15_4 C2_4 1_555 1_555
H10_4 C15_4 1_555 1_555
O7_4 C1_4 1_555 1_555
C16_4 H11_4 1_555 1_555
N3_4 Zn6_2 1_555 1_555
C18_2 C19_4 1_555 1_555
O9_4 C21_4 1_555 1_555
C19_4 N3_4 1_555 1_555
H12_4 C19_4 1_555 1_555
C20_2 C18_2 1_555 1_555
H13_2 C20_2 1_555 1_555
C21_4 O6_4 1_555 1_555
C23_4 C3_4 1_555 1_555
O11_2 C27_2 1_555 1_555
N4_2 C27_2 1_555 1_555
C27_2 C33_2 1_555 1_555
C31_2 C18_2 1_555 1_555
H18_2 C31_2 1_555 1_555
H19_2 C31_2 1_555 1_555
C32_4 H20_4 1_555 1_555
H21_4 C32_4 1_555 1_555
O13_4 C12_4 1_555 1_555
C33_2 C32_4 1_555 1_555
H22_2 C33_2 1_555 1_555
C34_2 C33_2 1_555 1_555
H23_2 C34_2 1_555 1_555
H24_4 C34_2 1_555 1_555
C35_4 C13_4 1_555 1_555
H25_4 C35_4 1_555 1_555
H26_4 C35_4 1_555 1_555
C36_4 N3_4 1_555 1_555
C37_2 C20_2 1_555 1_555
C38_2 C13_4 1_555 1_555
H29_2 C38_2 1_555 1_555
H30_2 C38_2 1_555 1_555
C15_4 C17_4 1_555 1_555
C16_4 C17_4 1_555 1_555
C16_4 C23_4 1_555 1_555
C21_4 C23_4 1_555 1_555
N4_2 C31_2 1_555 1_555
C32_4 C35_4 1_555 1_555
C34_2 C38_2 1_555 1_555
C36_4 C37_2 1_555 1_555
O16 C4_4 1_555 1_555
C4_4 C29_4 1_555 1_555
O17_2 C5_4 1_555 1_555
C5_4 C6_4 1_555 1_555
C6_4 C24_4 1_555 1_555
O5_4 C30_4 1_555 1_555
O10_4 C5_4 1_555 1_555
C24_4 H15_4 1_555 1_555
C25_4 C6_4 1_555 1_555
H16_4 C25_4 1_555 1_555
O12_4 C30_4 1_555 1_555
C26_4 C24_4 1_555 1_555
C28_4 C26_4 1_555 1_555
H17_4 C28_4 1_555 1_555
C29_4 C25_4 1_555 1_555
C30_4 C26_4 1_555 1_555
O14_4 C4_4 1_555 1_555
C28_4 C29_4 1_555 1_555
C7_3 H4_3 1_555 1_555
H2_3 N4_3 1_555 1_555
C20_3 C18_3 1_555 1_555
H13_3 C20_3 1_555 1_555
O11_3 C27_3 1_555 1_555
N4_3 C27_3 1_555 1_555
C27_3 C33_3 1_555 1_555
C31_3 C18_3 1_555 1_555
H18_3 C31_3 1_555 1_555
H19_3 C31_3 1_555 1_555
H22_3 C33_3 1_555 1_555
C34_3 C33_3 1_555 1_555
H23_3 C34_3 1_555 1_555
C37_3 C20_3 1_555 1_555
H28_3 C37_3 1_555 1_555
H29_3 C38_3 1_555 1_555
H30_3 C38_3 1_555 1_555
N4_3 C31_3 1_555 1_555
C34_3 C38_3 1_555 1_555
H5_3 C8_3 1_555 1_555
H5_4 C8_4 1_555 1_555
H2_4 N4_4 1_555 1_555
C20_4 C18_4 1_555 1_555
H13_4 C20_4 1_555 1_555
O11_4 C27_4 1_555 1_555
N4_4 C27_4 1_555 1_555
C27_4 C33_4 1_555 1_555
C31_4 C18_4 1_555 1_555
H18_4 C31_4 1_555 1_555
H19_4 C31_4 1_555 1_555
H22_4 C33_4 1_555 1_555
C34_4 C33_4 1_555 1_555
H23_4 C34_4 1_555 1_555
C37_4 C20_4 1_555 1_555
H28_4 C37_4 1_555 1_555
H29_4 C38_4 1_555 1_555
H30_4 C38_4 1_555 1_555
N4_4 C31_4 1_555 1_555
C34_4 C38_4 1_555 1_555
C7_4 H4_4 1_555 1_555

#END
