
###############################################################################
#
# This file contains modified crystal structure data generated from the
# MOF subset of the Cambridge Structural Database (CSD) v543 
# hosted by the Cambridge Crystallographic Data Centre (CCDC).
#
# This work is licensed under the Creative Commons
# Attribution-NonCommercial-ShareAlike 4.0 International License.
# To view a copy of this license, visit
# http://creativecommons.org/licenses/by-nc-sa/4.0/
# or send a letter to
# Creative Commons, PO Box 1866, Mountain View, CA 94042, USA.
#
# CIF created using the CSD Python API on 29 September 2022
# The structure has been converted into the P1 space group
# The structure has a 3D framework
# The original CSD entry LIWFAA is in the monoclinic crystal system
# The framework has been calculated to contain at least 10.0% void space
# The void calculation uses a probe of radius 1.32A, grid spacing 0.4
#
###############################################################################

data_LIWFAA
_chemical_formula_moiety         '(C192 H128 Cd8 N96 S16)n'
_symmetry_cell_setting           triclinic
_symmetry_space_group_name_H-M   'P 1'
_symmetry_Int_Tables_number      1
_space_group_name_Hall           'P 1'
loop_
_symmetry_equiv_pos_site_id
_symmetry_equiv_pos_as_xyz
1 x,y,z
_cell_length_a                   21.3927(6)
_cell_length_b                   24.0819(6)
_cell_length_c                   15.8047(4)
_cell_angle_alpha                90
_cell_angle_beta                 130.500(2)
_cell_angle_gamma                90
_cell_volume                     6191.39
loop_
_atom_site_label
_atom_site_type_symbol
_atom_site_fract_x
_atom_site_fract_y
_atom_site_fract_z
N9 N 0.3192(3) 0.1978(2) 0.0885(4)
N10 N 0.3756(3) 0.2251(2) 0.0927(3)
N11 N 0.5823(2) 0.31639(16) 0.1032(3)
N12 N 0.0924(3) 0.0783(2) 0.0012(4)
C14 C 0.3771(3) 0.2208(2) 0.0107(4)
C18 C 0.2205(4) 0.1251(3) 0.0952(5)
H11 H 0.2702 0.1361 0.1628
C19 C 0.1652(4) 0.0966(3) 0.0937(5)
H12 H 0.1786 0.0891 0.1616
C22 C 0.4477(3) 0.2511(2) 0.0346(4)
C23 C 0.5237(3) 0.2487(2) 0.1440(4)
H15 H 0.5302 0.2251 0.1958
C24 C 0.5878(3) 0.2807(2) 0.1741(4)
H16 H 0.6375 0.2780 0.2465
Cd3 Cd 0.690762(19) 0.373229(13) 0.17051(2)
N5 N 0.1650(2) 0.94806(16) 0.2373(3)
C8 C 0.2244(3) 0.9685(2) 0.3390(4)
H5 H 0.2740 0.9495 0.3869
C12 C 0.0944(3) 0.97586(19) 0.1702(3)
H8 H 0.0528 0.9617 0.0995
Cd2 Cd 0.190762(19) 0.873229(13) 0.17051(2)
N11_2 N 0.0823(2) 0.81639(16) 0.1032(3)
C23_2 C 0.0237(3) 0.7487(2) 0.1440(4)
H15_2 H 0.0302 0.7251 0.1958
C24_2 C 0.0878(3) 0.7807(2) 0.1741(4)
H16_2 H 0.1375 0.7780 0.2465
Cd1 Cd 0.690762(19) 0.626771(13) 0.67051(2)
S1 S 0.67214(10) 0.56178(5) 0.53142(11)
S2 S 0.81577(8) 0.68423(7) 0.80423(10)
N1 N 0.6533(3) 0.61396(19) 0.4429(4)
N2 N 0.6551(2) 0.66614(15) 0.4691(3)
N3 N 0.5977(3) 0.69338(18) 0.2862(4)
N4 N 0.6014(3) 0.64109(18) 0.2624(4)
N5_2 N 0.6650(2) 0.44806(16) 0.2373(3)
N6 N 0.6531(5) 0.8758(2) 0.4770(7)
N7 N 0.8163(3) 0.68997(19) 0.9134(4)
N8 N 0.7580(2) 0.66399(16) 0.9078(3)
C1 C 0.6301(3) 0.70412(19) 0.3908(4)
C2 C 0.6313(3) 0.60165(19) 0.3379(4)
C3 C 0.6774(5) 0.8363(3) 0.5480(7)
H1 H 0.7005 0.8467 0.6198
C4 C 0.6718(4) 0.7795(2) 0.5260(5)
H2 H 0.6914 0.7533 0.5814
C5 C 0.6367(3) 0.7640(2) 0.4211(4)
C6 C 0.6094(4) 0.8048(2) 0.3421(5)
H3 H 0.5853 0.7961 0.2692
C7 C 0.6202(6) 0.8599(3) 0.3783(8)
H4 H 0.6016 0.8876 0.3257
C8_2 C 0.7244(3) 0.4685(2) 0.3390(4)
H5_2 H 0.7740 0.4495 0.3869
C9 C 0.7140(3) 0.5176(2) 0.3751(4)
H6 H 0.7564 0.5310 0.4460
C10 C 0.6411(3) 0.54618(19) 0.3061(4)
C11 C 0.5800(3) 0.5245(2) 0.2007(4)
H7 H 0.5299 0.5426 0.1512
C12_2 C 0.5944(3) 0.47586(19) 0.1702(3)
H8_2 H 0.5528 0.4617 0.0995
C13 C 0.7636(3) 0.6685(2) 0.9972(4)
C15 C 0.5773(4) 0.5914(3) 0.9075(5)
H9 H 0.5271 0.5803 0.8408
C16 C 0.6300(4) 0.6198(2) 0.9014(5)
H10 H 0.6156 0.6269 0.8328
C17 C 0.7036(3) 0.6377(2) 0.9971(4)
C21 C 0.9442(3) 0.7853(2) 0.9606(4)
H14 H 0.8969 0.7864 0.8860
N13 N 0.6650(2) 0.55194(16) 0.7373(3)
N14 N 0.5823(2) 0.68361(16) 0.6032(3)
S1_2 S 0.17214(10) 0.93822(5) 0.03142(11)
S2_2 S 0.31577(8) 0.81577(7) 0.30423(10)
N7_2 N 0.3163(3) 0.81003(19) 0.4134(4)
N8_2 N 0.2580(2) 0.83601(16) 0.4078(3)
N9_2 N 0.3192(3) 0.8022(2) 0.5885(4)
N10_2 N 0.3756(3) 0.7749(2) 0.5927(3)
N12_2 N 0.0924(3) 0.9217(2) 0.5012(4)
C3_2 C 0.1774(5) 0.6637(3) 0.0480(7)
H1_2 H 0.2005 0.6533 0.1198
C4_2 C 0.1718(4) 0.7205(2) 0.0260(5)
H2_2 H 0.1914 0.7467 0.0814
C13_2 C 0.2636(3) 0.8315(2) 0.4972(4)
C14_2 C 0.3771(3) 0.7792(2) 0.5107(4)
C15_2 C 0.0773(4) 0.9086(3) 0.4075(5)
H9_2 H 0.0271 0.9197 0.3408
C16_2 C 0.1300(4) 0.8802(2) 0.4014(5)
H10_2 H 0.1156 0.8731 0.3328
C17_2 C 0.2036(3) 0.8623(2) 0.4971(4)
C18_2 C 0.2205(4) 0.8749(3) 0.5952(5)
H11_2 H 0.2702 0.8639 0.6628
C19_2 C 0.1652(4) 0.9034(3) 0.5937(5)
H12_2 H 0.1786 0.9109 0.6616
C20 C 0.5108(3) 0.6825(2) 0.4977(4)
H13 H 0.5062 0.6588 0.4475
C21_2 C 0.4442(3) 0.7147(2) 0.4606(4)
H14_2 H 0.3969 0.7136 0.3860
C22_2 C 0.4477(3) 0.7489(2) 0.5346(4)
C23_3 C 0.5237(3) 0.7513(2) 0.6440(4)
H15_3 H 0.5302 0.7749 0.6958
C24_3 C 0.5878(3) 0.7193(2) 0.6741(4)
H16_3 H 0.6375 0.7220 0.7465
S1_3 S 0.67214(10) 0.43822(5) 0.03142(11)
S2_3 S 0.81577(8) 0.31577(7) 0.30423(10)
N7_3 N 0.8163(3) 0.31003(19) 0.4134(4)
N8_3 N 0.7580(2) 0.33601(16) 0.4078(3)
N9_3 N 0.8192(3) 0.3022(2) 0.5885(4)
N10_3 N 0.8756(3) 0.2749(2) 0.5927(3)
N12_3 N 0.5924(3) 0.4217(2) 0.5012(4)
C3_3 C 0.6774(5) 0.1637(3) 0.0480(7)
H1_3 H 0.7005 0.1533 0.1198
C4_3 C 0.6718(4) 0.2205(2) 0.0260(5)
H2_3 H 0.6914 0.2467 0.0814
C13_3 C 0.7636(3) 0.3315(2) 0.4972(4)
C14_3 C 0.8771(3) 0.2792(2) 0.5107(4)
C15_3 C 0.5773(4) 0.4086(3) 0.4075(5)
H9_3 H 0.5271 0.4197 0.3408
C16_3 C 0.6300(4) 0.3802(2) 0.4014(5)
H10_3 H 0.6156 0.3731 0.3328
C17_3 C 0.7036(3) 0.3623(2) 0.4971(4)
C18_3 C 0.7205(4) 0.3749(3) 0.5952(5)
H11_3 H 0.7702 0.3639 0.6628
C19_3 C 0.6652(4) 0.4034(3) 0.5937(5)
H12_3 H 0.6786 0.4109 0.6616
C21_3 C 0.9442(3) 0.2147(2) 0.4606(4)
H14_3 H 0.8969 0.2136 0.3860
C22_3 C 0.9477(3) 0.2489(2) 0.5346(4)
N1_2 N 0.6533(3) 0.38604(19) 0.9429(4)
N2_2 N 0.6551(2) 0.33386(15) 0.9691(3)
N3_2 N 0.5977(3) 0.30662(18) 0.7862(4)
N4_2 N 0.6014(3) 0.35891(18) 0.7624(4)
N6_2 N 0.6531(5) 0.1242(2) 0.9770(7)
C1_2 C 0.6301(3) 0.29588(19) 0.8908(4)
C2_2 C 0.6313(3) 0.39835(19) 0.8379(4)
C5_2 C 0.6367(3) 0.2360(2) 0.9211(4)
C6_2 C 0.6094(4) 0.1952(2) 0.8421(5)
H3_2 H 0.5853 0.2039 0.7692
C7_2 C 0.6202(6) 0.1401(3) 0.8783(8)
H4_2 H 0.6016 0.1124 0.8257
C8_3 C 0.7244(3) 0.5315(2) 0.8390(4)
H5_3 H 0.7740 0.5505 0.8869
C9_2 C 0.7140(3) 0.4824(2) 0.8751(4)
H6_2 H 0.7564 0.4690 0.9460
C10_2 C 0.6411(3) 0.45382(19) 0.8061(4)
C11_2 C 0.5800(3) 0.4755(2) 0.7007(4)
H7_2 H 0.5299 0.4574 0.6512
C12_3 C 0.5944(3) 0.52414(19) 0.6702(3)
H8_3 H 0.5528 0.5383 0.5995
Cd1_2 Cd 0.190762(19) 0.126771(13) 0.67051(2)
S1_4 S 0.17214(10) 0.06178(5) 0.53142(11)
S2_4 S 0.31577(8) 0.18423(7) 0.80423(10)
N1_3 N 0.1533(3) 0.11396(19) 0.4429(4)
N2_3 N 0.1551(2) 0.16614(15) 0.4691(3)
N3_3 N 0.0977(3) 0.19338(18) 0.2862(4)
N4_3 N 0.1014(3) 0.14109(18) 0.2624(4)
N6_3 N 0.1531(5) 0.3758(2) 0.4770(7)
N7_4 N 0.3163(3) 0.18997(19) 0.9134(4)
N8_4 N 0.2580(2) 0.16399(16) 0.9078(3)
C1_3 C 0.1301(3) 0.20412(19) 0.3908(4)
C2_3 C 0.1313(3) 0.10165(19) 0.3379(4)
C3_4 C 0.1774(5) 0.3363(3) 0.5480(7)
H1_4 H 0.2005 0.3467 0.6198
C4_4 C 0.1718(4) 0.2795(2) 0.5260(5)
H2_4 H 0.1914 0.2533 0.5814
C5_3 C 0.1367(3) 0.2640(2) 0.4211(4)
C6_3 C 0.1094(4) 0.3048(2) 0.3421(5)
H3_3 H 0.0853 0.2961 0.2692
C7_3 C 0.1202(6) 0.3599(3) 0.3783(8)
H4_3 H 0.1016 0.3876 0.3257
C9_3 C 0.2140(3) 0.0176(2) 0.3751(4)
H6_3 H 0.2564 0.0310 0.4460
C10_3 C 0.1411(3) 0.04618(19) 0.3061(4)
C11_3 C 0.0800(3) 0.0245(2) 0.2007(4)
H7_3 H 0.0299 0.0426 0.1512
C13_4 C 0.2636(3) 0.1685(2) 0.9972(4)
C15_4 C 0.0773(4) 0.0914(3) 0.9075(5)
H9_4 H 0.0271 0.0803 0.8408
C16_4 C 0.1300(4) 0.1198(2) 0.9014(5)
H10_4 H 0.1156 0.1269 0.8328
C17_4 C 0.2036(3) 0.1377(2) 0.9971(4)
C20_2 C 0.5108(3) 0.3175(2) 0.9977(4)
H13_2 H 0.5062 0.3412 0.9475
C21_4 C 0.4442(3) 0.2853(2) 0.9606(4)
H14_4 H 0.3969 0.2864 0.8860
N13_2 N 0.1650(2) 0.05194(16) 0.7373(3)
N14_2 N 0.0823(2) 0.18361(16) 0.6032(3)
C8_4 C 0.2244(3) 0.0315(2) 0.8390(4)
H5_4 H 0.2740 0.0505 0.8869
C12_4 C 0.0944(3) 0.02414(19) 0.6702(3)
H8_4 H 0.0528 0.0383 0.5995
C20_3 C 0.0108(3) 0.1825(2) 0.4977(4)
H13_3 H 0.0062 0.1588 0.4475
C23_4 C 0.0237(3) 0.2513(2) 0.6440(4)
H15_4 H 0.0302 0.2749 0.6958
C24_4 C 0.0878(3) 0.2193(2) 0.6741(4)
H16_4 H 0.1375 0.2220 0.7465
N1_4 N 0.8467(3) 0.11396(19) 0.0571(4)
N2_4 N 0.8449(2) 0.16614(15) 0.0309(3)
N3_4 N 0.9023(3) 0.19338(18) 0.2138(4)
N4_4 N 0.8986(3) 0.14109(18) 0.2376(4)
N6_4 N 0.8469(5) 0.3758(2) 0.0230(7)
C1_4 C 0.8699(3) 0.20412(19) 0.1092(4)
C2_4 C 0.8687(3) 0.10165(19) 0.1621(4)
C5_4 C 0.8633(3) 0.2640(2) 0.0789(4)
C6_4 C 0.8906(4) 0.3048(2) 0.1579(5)
H3_4 H 0.9147 0.2961 0.2308
C7_4 C 0.8798(6) 0.3599(3) 0.1217(8)
H4_4 H 0.8984 0.3876 0.1743
C9_4 C 0.7860(3) 0.0176(2) 0.1249(4)
H6_4 H 0.7436 0.0310 0.0540
C10_4 C 0.8589(3) 0.04618(19) 0.1939(4)
C11_4 C 0.9200(3) 0.0245(2) 0.2993(4)
H7_4 H 0.9701 0.0426 0.3488
Cd1_3 Cd 0.809238(19) 0.126771(13) 0.82949(2)
S1_5 S 0.82786(10) 0.06178(5) 0.96858(11)
S2_5 S 0.68423(8) 0.18423(7) 0.69577(10)
N7_5 N 0.6837(3) 0.18997(19) 0.5866(4)
N8_5 N 0.7420(2) 0.16399(16) 0.5922(3)
N9_4 N 0.6808(3) 0.1978(2) 0.4115(4)
N10_4 N 0.6244(3) 0.2251(2) 0.4073(3)
N11_3 N 0.4177(2) 0.31639(16) 0.3968(3)
N12_4 N 0.9076(3) 0.0783(2) 0.4988(4)
C3_5 C 0.8226(5) 0.3363(3) 0.9520(7)
H1_5 H 0.7995 0.3467 0.8802
C4_5 C 0.8282(4) 0.2795(2) 0.9740(5)
H2_5 H 0.8086 0.2533 0.9186
C13_5 C 0.7364(3) 0.1685(2) 0.5028(4)
C14_4 C 0.6229(3) 0.2208(2) 0.4893(4)
C15_5 C 0.9227(4) 0.0914(3) 0.5925(5)
H9_5 H 0.9729 0.0803 0.6592
C16_5 C 0.8700(4) 0.1198(2) 0.5986(5)
H10_5 H 0.8844 0.1269 0.6672
C17_5 C 0.7964(3) 0.1377(2) 0.5029(4)
C18_4 C 0.7795(4) 0.1251(3) 0.4048(5)
H11_4 H 0.7298 0.1361 0.3372
C19_4 C 0.8348(4) 0.0966(3) 0.4063(5)
H12_4 H 0.8214 0.0891 0.3384
C20_4 C 0.4892(3) 0.3175(2) 0.5023(4)
H13_4 H 0.4938 0.3412 0.5525
C21_5 C 0.5558(3) 0.2853(2) 0.5394(4)
H14_5 H 0.6031 0.2864 0.6140
C22_4 C 0.5523(3) 0.2511(2) 0.4654(4)
C23_5 C 0.4763(3) 0.2487(2) 0.3560(4)
H15_5 H 0.4698 0.2251 0.3042
C24_5 C 0.4122(3) 0.2807(2) 0.3259(4)
H16_5 H 0.3625 0.2780 0.2535
Cd3_2 Cd 0.309238(19) 0.373229(13) 0.32949(2)
N13_3 N 0.8350(2) 0.05194(16) 0.7627(3)
N14_3 N 0.9177(2) 0.18361(16) 0.8968(3)
N1_5 N 0.3467(3) 0.61396(19) 0.0571(4)
N2_5 N 0.3449(2) 0.66614(15) 0.0309(3)
N3_5 N 0.4023(3) 0.69338(18) 0.2138(4)
N4_5 N 0.3986(3) 0.64109(18) 0.2376(4)
N5_3 N 0.3350(2) 0.44806(16) 0.2627(3)
N6_5 N 0.3469(5) 0.8758(2) 0.0230(7)
C1_5 C 0.3699(3) 0.70412(19) 0.1092(4)
C2_5 C 0.3687(3) 0.60165(19) 0.1621(4)
C5_5 C 0.3633(3) 0.7640(2) 0.0789(4)
C6_5 C 0.3906(4) 0.8048(2) 0.1579(5)
H3_5 H 0.4147 0.7961 0.2308
C7_5 C 0.3798(6) 0.8599(3) 0.1217(8)
H4_5 H 0.3984 0.8876 0.1743
C8_5 C 0.2756(3) 0.4685(2) 0.1610(4)
H5_5 H 0.2260 0.4495 0.1131
C9_5 C 0.2860(3) 0.5176(2) 0.1249(4)
H6_5 H 0.2436 0.5310 0.0540
C10_5 C 0.3589(3) 0.54618(19) 0.1939(4)
C11_5 C 0.4200(3) 0.5245(2) 0.2993(4)
H7_5 H 0.4701 0.5426 0.3488
C12_5 C 0.4056(3) 0.47586(19) 0.3298(3)
H8_5 H 0.4472 0.4617 0.4005
Cd1_4 Cd 0.309238(19) 0.626771(13) 0.82949(2)
S1_6 S 0.32786(10) 0.56178(5) 0.96858(11)
S2_6 S 0.18423(8) 0.68423(7) 0.69577(10)
N7_6 N 0.1837(3) 0.68997(19) 0.5866(4)
N8_6 N 0.2420(2) 0.66399(16) 0.5922(3)
N9_5 N 0.1808(3) 0.6978(2) 0.4115(4)
N10_5 N 0.1244(3) 0.7251(2) 0.4073(3)
N12_5 N 0.4076(3) 0.5783(2) 0.4988(4)
C3_6 C 0.3226(5) 0.8363(3) 0.9520(7)
H1_6 H 0.2995 0.8467 0.8802
C4_6 C 0.3282(4) 0.7795(2) 0.9740(5)
H2_6 H 0.3086 0.7533 0.9186
C13_6 C 0.2364(3) 0.6685(2) 0.5028(4)
C14_5 C 0.1229(3) 0.7208(2) 0.4893(4)
C15_6 C 0.4227(4) 0.5914(3) 0.5925(5)
H9_6 H 0.4729 0.5803 0.6592
C16_6 C 0.3700(4) 0.6198(2) 0.5986(5)
H10_6 H 0.3844 0.6269 0.6672
C17_6 C 0.2964(3) 0.6377(2) 0.5029(4)
C18_5 C 0.2795(4) 0.6251(3) 0.4048(5)
H11_5 H 0.2298 0.6361 0.3372
C19_5 C 0.3348(4) 0.5966(3) 0.4063(5)
H12_5 H 0.3214 0.5891 0.3384
C21_6 C 0.0558(3) 0.7853(2) 0.5394(4)
H14_6 H 0.1031 0.7864 0.6140
C22_5 C 0.0523(3) 0.7511(2) 0.4654(4)
N13_4 N 0.3350(2) 0.55194(16) 0.7627(3)
N14_4 N 0.4177(2) 0.68361(16) 0.8968(3)
C8_6 C 0.7756(3) 0.0315(2) 0.6610(4)
H5_6 H 0.7260 0.0505 0.6131
C12_6 C 0.9056(3) 0.02414(19) 0.8298(3)
H8_6 H 0.9472 0.0383 0.9005
N9_6 N 0.6808(3) 0.8022(2) 0.9115(4)
N10_6 N 0.6244(3) 0.7749(2) 0.9073(3)
N12_6 N 0.9076(3) 0.9217(2) 0.9988(4)
C14_6 C 0.6229(3) 0.7792(2) 0.9893(4)
C18_6 C 0.7795(4) 0.8749(3) 0.9048(5)
H11_6 H 0.7298 0.8639 0.8372
C19_6 C 0.8348(4) 0.9034(3) 0.9063(5)
H12_6 H 0.8214 0.9109 0.8384
C22_6 C 0.5523(3) 0.7489(2) 0.9654(4)
C23_6 C 0.4763(3) 0.7513(2) 0.8560(4)
H15_6 H 0.4698 0.7749 0.8042
C24_6 C 0.4122(3) 0.7193(2) 0.8259(4)
H16_6 H 0.3625 0.7220 0.7535
S1_7 S 0.32786(10) 0.43822(5) 0.46858(11)
S2_7 S 0.18423(8) 0.31577(7) 0.19577(10)
N1_6 N 0.3467(3) 0.38604(19) 0.5571(4)
N2_6 N 0.3449(2) 0.33386(15) 0.5309(3)
N3_6 N 0.4023(3) 0.30662(18) 0.7138(4)
N4_6 N 0.3986(3) 0.35891(18) 0.7376(4)
N6_6 N 0.3469(5) 0.1242(2) 0.5230(7)
N7_7 N 0.1837(3) 0.31003(19) 0.0866(4)
N8_7 N 0.2420(2) 0.33601(16) 0.0922(3)
C1_6 C 0.3699(3) 0.29588(19) 0.6092(4)
C2_6 C 0.3687(3) 0.39835(19) 0.6621(4)
C3_7 C 0.3226(5) 0.1637(3) 0.4520(7)
H1_7 H 0.2995 0.1533 0.3802
C4_7 C 0.3282(4) 0.2205(2) 0.4740(5)
H2_7 H 0.3086 0.2467 0.4186
C5_6 C 0.3633(3) 0.2360(2) 0.5789(4)
C6_6 C 0.3906(4) 0.1952(2) 0.6579(5)
H3_6 H 0.4147 0.2039 0.7308
C7_6 C 0.3798(6) 0.1401(3) 0.6217(8)
H4_6 H 0.3984 0.1124 0.6743
C8_7 C 0.2756(3) 0.5315(2) 0.6610(4)
H5_7 H 0.2260 0.5505 0.6131
C9_6 C 0.2860(3) 0.4824(2) 0.6249(4)
H6_6 H 0.2436 0.4690 0.5540
C10_6 C 0.3589(3) 0.45382(19) 0.6939(4)
C11_6 C 0.4200(3) 0.4755(2) 0.7993(4)
H7_6 H 0.4701 0.4574 0.8488
C12_7 C 0.4056(3) 0.52414(19) 0.8298(3)
H8_7 H 0.4472 0.5383 0.9005
C13_7 C 0.2364(3) 0.3315(2) 0.0028(4)
C15_7 C 0.4227(4) 0.4086(3) 0.0925(5)
H9_7 H 0.4729 0.4197 0.1592
C16_7 C 0.3700(4) 0.3802(2) 0.0986(5)
H10_7 H 0.3844 0.3731 0.1672
C17_7 C 0.2964(3) 0.3623(2) 0.0029(4)
C21_7 C 0.0558(3) 0.2147(2) 0.0394(4)
H14_7 H 0.1031 0.2136 0.1140
C23_7 C 0.9763(3) 0.2513(2) 0.8560(4)
H15_7 H 0.9698 0.2749 0.8042
C24_7 C 0.9122(3) 0.2193(2) 0.8259(4)
H16_7 H 0.8625 0.2220 0.7535
N5_4 N 0.8350(2) 0.94806(16) 0.2627(3)
C8_8 C 0.7756(3) 0.9685(2) 0.1610(4)
H5_8 H 0.7260 0.9495 0.1131
C12_8 C 0.9056(3) 0.97586(19) 0.3298(3)
H8_8 H 0.9472 0.9617 0.4005
Cd2_2 Cd 0.809238(19) 0.873229(13) 0.32949(2)
N11_4 N 0.9177(2) 0.81639(16) 0.3968(3)
C20_5 C 0.9892(3) 0.8175(2) 0.5023(4)
H13_5 H 0.9938 0.8412 0.5525
C23_8 C 0.9763(3) 0.7487(2) 0.3560(4)
H15_8 H 0.9698 0.7251 0.3042
C24_8 C 0.9122(3) 0.7807(2) 0.3259(4)
H16_8 H 0.8625 0.7780 0.2535
S1_8 S 0.82786(10) 0.93822(5) 0.46858(11)
S2_8 S 0.68423(8) 0.81577(7) 0.19577(10)
N1_7 N 0.8467(3) 0.88604(19) 0.5571(4)
N2_7 N 0.8449(2) 0.83386(15) 0.5309(3)
N3_7 N 0.9023(3) 0.80662(18) 0.7138(4)
N4_7 N 0.8986(3) 0.85891(18) 0.7376(4)
N6_7 N 0.8469(5) 0.6242(2) 0.5230(7)
N7_8 N 0.6837(3) 0.81003(19) 0.0866(4)
N8_8 N 0.7420(2) 0.83601(16) 0.0922(3)
C1_7 C 0.8699(3) 0.79588(19) 0.6092(4)
C2_7 C 0.8687(3) 0.89835(19) 0.6621(4)
C3_8 C 0.8226(5) 0.6637(3) 0.4520(7)
H1_8 H 0.7995 0.6533 0.3802
C4_8 C 0.8282(4) 0.7205(2) 0.4740(5)
H2_8 H 0.8086 0.7467 0.4186
C5_7 C 0.8633(3) 0.7360(2) 0.5789(4)
C6_7 C 0.8906(4) 0.6952(2) 0.6579(5)
H3_7 H 0.9147 0.7039 0.7308
C7_7 C 0.8798(6) 0.6401(3) 0.6217(8)
H4_7 H 0.8984 0.6124 0.6743
C9_7 C 0.7860(3) 0.9824(2) 0.6249(4)
H6_7 H 0.7436 0.9690 0.5540
C10_7 C 0.8589(3) 0.95382(19) 0.6939(4)
C11_7 C 0.9200(3) 0.9755(2) 0.7993(4)
H7_7 H 0.9701 0.9574 0.8488
C13_8 C 0.7364(3) 0.8315(2) 0.0028(4)
C15_8 C 0.9227(4) 0.9086(3) 0.0925(5)
H9_8 H 0.9729 0.9197 0.1592
C16_8 C 0.8700(4) 0.8802(2) 0.0986(5)
H10_8 H 0.8844 0.8731 0.1672
C17_8 C 0.7964(3) 0.8623(2) 0.0029(4)
C20_6 C 0.4892(3) 0.6825(2) 0.0023(4)
H13_6 H 0.4938 0.6588 0.0525
C21_8 C 0.5558(3) 0.7147(2) 0.0394(4)
H14_8 H 0.6031 0.7136 0.1140
C20_7 C 0.0108(3) 0.8175(2) 0.9977(4)
H13_7 H 0.0062 0.8412 0.9475
N9_7 N 0.8192(3) 0.6978(2) 0.0885(4)
N10_7 N 0.8756(3) 0.7251(2) 0.0927(3)
N12_7 N 0.5924(3) 0.5783(2) 0.0012(4)
C14_7 C 0.8771(3) 0.7208(2) 0.0107(4)
C18_7 C 0.7205(4) 0.6251(3) 0.0952(5)
H11_7 H 0.7702 0.6361 0.1628
C19_7 C 0.6652(4) 0.5966(3) 0.0937(5)
H12_7 H 0.6786 0.5891 0.1616
C22_7 C 0.9477(3) 0.7511(2) 0.0346(4)
N1_8 N 0.1533(3) 0.88604(19) 0.9429(4)
N2_8 N 0.1551(2) 0.83386(15) 0.9691(3)
N3_8 N 0.0977(3) 0.80662(18) 0.7862(4)
N4_8 N 0.1014(3) 0.85891(18) 0.7624(4)
N6_8 N 0.1531(5) 0.6242(2) 0.9770(7)
C1_8 C 0.1301(3) 0.79588(19) 0.8908(4)
C2_8 C 0.1313(3) 0.89835(19) 0.8379(4)
C5_8 C 0.1367(3) 0.7360(2) 0.9211(4)
C6_8 C 0.1094(4) 0.6952(2) 0.8421(5)
H3_8 H 0.0853 0.7039 0.7692
C7_8 C 0.1202(6) 0.6401(3) 0.8783(8)
H4_8 H 0.1016 0.6124 0.8257
C9_8 C 0.2140(3) 0.9824(2) 0.8751(4)
H6_8 H 0.2564 0.9690 0.9460
C10_8 C 0.1411(3) 0.95382(19) 0.8061(4)
C11_8 C 0.0800(3) 0.9755(2) 0.7007(4)
H7_8 H 0.0299 0.9574 0.6512
N9_8 N 0.1808(3) 0.3022(2) 0.9115(4)
N10_8 N 0.1244(3) 0.2749(2) 0.9073(3)
N12_8 N 0.4076(3) 0.4217(2) 0.9988(4)
C14_8 C 0.1229(3) 0.2792(2) 0.9893(4)
C18_8 C 0.2795(4) 0.3749(3) 0.9048(5)
H11_8 H 0.2298 0.3639 0.8372
C19_8 C 0.3348(4) 0.4034(3) 0.9063(5)
H12_8 H 0.3214 0.4109 0.8384
C22_8 C 0.0523(3) 0.2489(2) 0.9654(4)
C20_8 C 0.9892(3) 0.1825(2) 0.0023(4)
H13_8 H 0.9938 0.1588 0.0525
loop_
_geom_bond_atom_site_label_1
_geom_bond_atom_site_label_2
_geom_bond_site_symmetry_1
_geom_bond_site_symmetry_2
N9 N10 1_555 1_555
N10 C14 1_555 1_555
H11 C18 1_555 1_555
C19 N12 1_555 1_555
H12 C19 1_555 1_555
C22 C14 1_555 1_555
C23 C22 1_555 1_555
H15 C23 1_555 1_555
C24 N11 1_555 1_555
H16 C24 1_555 1_555
Cd3 N11 1_555 1_555
C18 C19 1_555 1_555
C23 C24 1_555 1_555
N5 C8 1_555 1_555
C8 H5 1_555 1_555
C12 N5 1_555 1_555
H8 C12 1_555 1_555
Cd2 N5 1_555 1_555
H15_2 C23_2 1_555 1_555
C24_2 N11_2 1_555 1_555
H16_2 C24_2 1_555 1_555
Cd2 N11_2 1_555 1_555
C23_2 C24_2 1_555 1_555
Cd1 S1 1_555 1_555
S1 N1 1_555 1_555
S2 Cd1 1_555 1_555
N1 N2 1_555 1_555
N2 C1 1_555 1_555
N3 N4 1_555 1_555
N4 C2 1_555 1_555
N5_2 C8_2 1_555 1_555
N6 C3 1_555 1_555
N7 S2 1_555 1_555
N8 N7 1_555 1_555
C1 N3 1_555 1_555
C2 N1 1_555 1_555
C3 H1 1_555 1_555
C4 C3 1_555 1_555
H2 C4 1_555 1_555
C5 C1 1_555 1_555
C6 C5 1_555 1_555
H3 C6 1_555 1_555
C7 N6 1_555 1_555
H4 C7 1_555 1_555
C8_2 H5_2 1_555 1_555
C9 C8_2 1_555 1_555
H6 C9 1_555 1_555
C10 C2 1_555 1_555
C11 C10 1_555 1_555
H7 C11 1_555 1_555
C12_2 N5_2 1_555 1_555
H8_2 C12_2 1_555 1_555
C13 N8 1_555 1_555
C15 H9 1_555 1_555
C16 C15 1_555 1_555
H10 C16 1_555 1_555
C17 C13 1_555 1_555
H14 C21 1_555 1_555
Cd3 N5_2 1_555 1_555
N13 Cd1 1_555 1_555
N14 Cd1 1_555 1_555
C4 C5 1_555 1_555
C6 C7 1_555 1_555
C9 C10 1_555 1_555
C11 C12_2 1_555 1_555
C16 C17 1_555 1_555
Cd2 S1_2 1_555 1_555
S2_2 Cd2 1_555 1_555
N7_2 S2_2 1_555 1_555
N8_2 N7_2 1_555 1_555
N9_2 N10_2 1_555 1_555
N10_2 C14_2 1_555 1_555
N14 C20 1_555 1_555
N12_2 C15_2 1_555 1_555
C3_2 H1_2 1_555 1_555
C4_2 C3_2 1_555 1_555
H2_2 C4_2 1_555 1_555
C13_2 N8_2 1_555 1_555
C14_2 N7_2 1_555 1_555
C15_2 H9_2 1_555 1_555
C16_2 C15_2 1_555 1_555
H10_2 C16_2 1_555 1_555
C17_2 C13_2 1_555 1_555
C18_2 C17_2 1_555 1_555
H11_2 C18_2 1_555 1_555
C19_2 N12_2 1_555 1_555
H12_2 C19_2 1_555 1_555
C20 H13 1_555 1_555
C21_2 C20 1_555 1_555
H14_2 C21_2 1_555 1_555
C22_2 C14_2 1_555 1_555
C23_3 C22_2 1_555 1_555
H15_3 C23_3 1_555 1_555
C24_3 N14 1_555 1_555
H16_3 C24_3 1_555 1_555
N9_2 C13_2 1_555 1_555
C16_2 C17_2 1_555 1_555
C18_2 C19_2 1_555 1_555
C21_2 C22_2 1_555 1_555
C23_3 C24_3 1_555 1_555
Cd3 S1_3 1_555 1_555
S2_3 Cd3 1_555 1_555
N7_3 S2_3 1_555 1_555
N8_3 N7_3 1_555 1_555
N9_3 N10_3 1_555 1_555
N10_3 C14_3 1_555 1_555
N12_3 C15_3 1_555 1_555
C3_3 H1_3 1_555 1_555
C4_3 C3_3 1_555 1_555
H2_3 C4_3 1_555 1_555
C13_3 N8_3 1_555 1_555
C14_3 N7_3 1_555 1_555
C15_3 H9_3 1_555 1_555
C16_3 C15_3 1_555 1_555
H10_3 C16_3 1_555 1_555
C17_3 C13_3 1_555 1_555
C18_3 C17_3 1_555 1_555
H11_3 C18_3 1_555 1_555
C19_3 N12_3 1_555 1_555
H12_3 C19_3 1_555 1_555
H14_3 C21_3 1_555 1_555
C22_3 C14_3 1_555 1_555
N9_3 C13_3 1_555 1_555
C16_3 C17_3 1_555 1_555
C18_3 C19_3 1_555 1_555
C21_3 C22_3 1_555 1_555
N1_2 N2_2 1_555 1_555
N2_2 C1_2 1_555 1_555
N3_2 N4_2 1_555 1_555
N4_2 C2_2 1_555 1_555
N13 C8_3 1_555 1_555
C1_2 N3_2 1_555 1_555
C2_2 N1_2 1_555 1_555
C5_2 C1_2 1_555 1_555
C6_2 C5_2 1_555 1_555
H3_2 C6_2 1_555 1_555
C7_2 N6_2 1_555 1_555
H4_2 C7_2 1_555 1_555
C8_3 H5_3 1_555 1_555
C9_2 C8_3 1_555 1_555
H6_2 C9_2 1_555 1_555
C10_2 C2_2 1_555 1_555
C11_2 C10_2 1_555 1_555
H7_2 C11_2 1_555 1_555
C12_3 N13 1_555 1_555
H8_3 C12_3 1_555 1_555
C6_2 C7_2 1_555 1_555
C9_2 C10_2 1_555 1_555
C11_2 C12_3 1_555 1_555
Cd1_2 S1_4 1_555 1_555
S1_4 N1_3 1_555 1_555
S2_4 Cd1_2 1_555 1_555
N1_3 N2_3 1_555 1_555
N2_3 C1_3 1_555 1_555
N3_3 N4_3 1_555 1_555
N4_3 C2_3 1_555 1_555
N6_3 C3_4 1_555 1_555
N7_4 S2_4 1_555 1_555
N8_4 N7_4 1_555 1_555
C1_3 N3_3 1_555 1_555
C2_3 N1_3 1_555 1_555
C3_4 H1_4 1_555 1_555
C4_4 C3_4 1_555 1_555
H2_4 C4_4 1_555 1_555
C5_3 C1_3 1_555 1_555
C6_3 C5_3 1_555 1_555
H3_3 C6_3 1_555 1_555
C7_3 N6_3 1_555 1_555
H4_3 C7_3 1_555 1_555
H6_3 C9_3 1_555 1_555
C10_3 C2_3 1_555 1_555
C11_3 C10_3 1_555 1_555
H7_3 C11_3 1_555 1_555
C13_4 N8_4 1_555 1_555
C15_4 H9_4 1_555 1_555
C16_4 C15_4 1_555 1_555
H10_4 C16_4 1_555 1_555
C17_4 C13_4 1_555 1_555
C20_2 H13_2 1_555 1_555
C21_4 C20_2 1_555 1_555
H14_4 C21_4 1_555 1_555
N13_2 Cd1_2 1_555 1_555
N14_2 Cd1_2 1_555 1_555
C4_4 C5_3 1_555 1_555
C6_3 C7_3 1_555 1_555
C9_3 C10_3 1_555 1_555
C16_4 C17_4 1_555 1_555
N13_2 C8_4 1_555 1_555
C8_4 H5_4 1_555 1_555
C12_4 N13_2 1_555 1_555
H8_4 C12_4 1_555 1_555
N14_2 C20_3 1_555 1_555
C20_3 H13_3 1_555 1_555
H15_4 C23_4 1_555 1_555
C24_4 N14_2 1_555 1_555
H16_4 C24_4 1_555 1_555
C23_4 C24_4 1_555 1_555
N1_4 N2_4 1_555 1_555
N2_4 C1_4 1_555 1_555
N3_4 N4_4 1_555 1_555
N4_4 C2_4 1_555 1_555
C1_4 N3_4 1_555 1_555
C2_4 N1_4 1_555 1_555
C5_4 C1_4 1_555 1_555
C6_4 C5_4 1_555 1_555
H3_4 C6_4 1_555 1_555
C7_4 N6_4 1_555 1_555
H4_4 C7_4 1_555 1_555
H6_4 C9_4 1_555 1_555
C10_4 C2_4 1_555 1_555
C11_4 C10_4 1_555 1_555
H7_4 C11_4 1_555 1_555
C6_4 C7_4 1_555 1_555
C9_4 C10_4 1_555 1_555
Cd1_3 S1_5 1_555 1_555
S2_5 Cd1_3 1_555 1_555
N7_5 S2_5 1_555 1_555
N8_5 N7_5 1_555 1_555
N9_4 N10_4 1_555 1_555
N10_4 C14_4 1_555 1_555
N11_3 C20_4 1_555 1_555
N12_4 C15_5 1_555 1_555
C3_5 H1_5 1_555 1_555
C4_5 C3_5 1_555 1_555
H2_5 C4_5 1_555 1_555
C13_5 N8_5 1_555 1_555
C14_4 N7_5 1_555 1_555
C15_5 H9_5 1_555 1_555
C16_5 C15_5 1_555 1_555
H10_5 C16_5 1_555 1_555
C17_5 C13_5 1_555 1_555
C18_4 C17_5 1_555 1_555
H11_4 C18_4 1_555 1_555
C19_4 N12_4 1_555 1_555
H12_4 C19_4 1_555 1_555
C20_4 H13_4 1_555 1_555
C21_5 C20_4 1_555 1_555
H14_5 C21_5 1_555 1_555
C22_4 C14_4 1_555 1_555
C23_5 C22_4 1_555 1_555
H15_5 C23_5 1_555 1_555
C24_5 N11_3 1_555 1_555
H16_5 C24_5 1_555 1_555
Cd3_2 N11_3 1_555 1_555
N13_3 Cd1_3 1_555 1_555
N14_3 Cd1_3 1_555 1_555
N9_4 C13_5 1_555 1_555
C16_5 C17_5 1_555 1_555
C18_4 C19_4 1_555 1_555
C21_5 C22_4 1_555 1_555
C23_5 C24_5 1_555 1_555
N1_5 N2_5 1_555 1_555
N2_5 C1_5 1_555 1_555
N3_5 N4_5 1_555 1_555
N4_5 C2_5 1_555 1_555
N5_3 C8_5 1_555 1_555
C1_5 N3_5 1_555 1_555
C2_5 N1_5 1_555 1_555
C5_5 C1_5 1_555 1_555
C6_5 C5_5 1_555 1_555
H3_5 C6_5 1_555 1_555
C7_5 N6_5 1_555 1_555
H4_5 C7_5 1_555 1_555
C8_5 H5_5 1_555 1_555
C9_5 C8_5 1_555 1_555
H6_5 C9_5 1_555 1_555
C10_5 C2_5 1_555 1_555
C11_5 C10_5 1_555 1_555
H7_5 C11_5 1_555 1_555
C12_5 N5_3 1_555 1_555
H8_5 C12_5 1_555 1_555
Cd3_2 N5_3 1_555 1_555
C6_5 C7_5 1_555 1_555
C9_5 C10_5 1_555 1_555
C11_5 C12_5 1_555 1_555
Cd1_4 S1_6 1_555 1_555
S2_6 Cd1_4 1_555 1_555
N7_6 S2_6 1_555 1_555
N8_6 N7_6 1_555 1_555
N9_5 N10_5 1_555 1_555
N10_5 C14_5 1_555 1_555
N12_5 C15_6 1_555 1_555
C3_6 H1_6 1_555 1_555
C4_6 C3_6 1_555 1_555
H2_6 C4_6 1_555 1_555
C13_6 N8_6 1_555 1_555
C14_5 N7_6 1_555 1_555
C15_6 H9_6 1_555 1_555
C16_6 C15_6 1_555 1_555
H10_6 C16_6 1_555 1_555
C17_6 C13_6 1_555 1_555
C18_5 C17_6 1_555 1_555
H11_5 C18_5 1_555 1_555
C19_5 N12_5 1_555 1_555
H12_5 C19_5 1_555 1_555
H14_6 C21_6 1_555 1_555
C22_5 C14_5 1_555 1_555
N13_4 Cd1_4 1_555 1_555
N14_4 Cd1_4 1_555 1_555
N9_5 C13_6 1_555 1_555
C16_6 C17_6 1_555 1_555
C18_5 C19_5 1_555 1_555
C21_6 C22_5 1_555 1_555
N13_3 C8_6 1_555 1_555
C8_6 H5_6 1_555 1_555
C12_6 N13_3 1_555 1_555
H8_6 C12_6 1_555 1_555
N9_6 N10_6 1_555 1_555
N10_6 C14_6 1_555 1_555
H11_6 C18_6 1_555 1_555
C19_6 N12_6 1_555 1_555
H12_6 C19_6 1_555 1_555
C22_6 C14_6 1_555 1_555
C23_6 C22_6 1_555 1_555
H15_6 C23_6 1_555 1_555
C24_6 N14_4 1_555 1_555
H16_6 C24_6 1_555 1_555
C18_6 C19_6 1_555 1_555
C23_6 C24_6 1_555 1_555
Cd3_2 S1_7 1_555 1_555
S1_7 N1_6 1_555 1_555
S2_7 Cd3_2 1_555 1_555
N1_6 N2_6 1_555 1_555
N2_6 C1_6 1_555 1_555
N3_6 N4_6 1_555 1_555
N4_6 C2_6 1_555 1_555
N13_4 C8_7 1_555 1_555
N6_6 C3_7 1_555 1_555
N7_7 S2_7 1_555 1_555
N8_7 N7_7 1_555 1_555
C1_6 N3_6 1_555 1_555
C2_6 N1_6 1_555 1_555
C3_7 H1_7 1_555 1_555
C4_7 C3_7 1_555 1_555
H2_7 C4_7 1_555 1_555
C5_6 C1_6 1_555 1_555
C6_6 C5_6 1_555 1_555
H3_6 C6_6 1_555 1_555
C7_6 N6_6 1_555 1_555
H4_6 C7_6 1_555 1_555
C8_7 H5_7 1_555 1_555
C9_6 C8_7 1_555 1_555
H6_6 C9_6 1_555 1_555
C10_6 C2_6 1_555 1_555
C11_6 C10_6 1_555 1_555
H7_6 C11_6 1_555 1_555
C12_7 N13_4 1_555 1_555
H8_7 C12_7 1_555 1_555
C13_7 N8_7 1_555 1_555
C15_7 H9_7 1_555 1_555
C16_7 C15_7 1_555 1_555
H10_7 C16_7 1_555 1_555
C17_7 C13_7 1_555 1_555
H14_7 C21_7 1_555 1_555
C4_7 C5_6 1_555 1_555
C6_6 C7_6 1_555 1_555
C9_6 C10_6 1_555 1_555
C11_6 C12_7 1_555 1_555
C16_7 C17_7 1_555 1_555
H15_7 C23_7 1_555 1_555
C24_7 N14_3 1_555 1_555
H16_7 C24_7 1_555 1_555
C23_7 C24_7 1_555 1_555
N5_4 C8_8 1_555 1_555
C8_8 H5_8 1_555 1_555
C12_8 N5_4 1_555 1_555
H8_8 C12_8 1_555 1_555
Cd2_2 N5_4 1_555 1_555
N11_4 C20_5 1_555 1_555
C20_5 H13_5 1_555 1_555
H15_8 C23_8 1_555 1_555
C24_8 N11_4 1_555 1_555
H16_8 C24_8 1_555 1_555
Cd2_2 N11_4 1_555 1_555
C23_8 C24_8 1_555 1_555
Cd2_2 S1_8 1_555 1_555
S1_8 N1_7 1_555 1_555
S2_8 Cd2_2 1_555 1_555
N1_7 N2_7 1_555 1_555
N2_7 C1_7 1_555 1_555
N3_7 N4_7 1_555 1_555
N4_7 C2_7 1_555 1_555
N6_7 C3_8 1_555 1_555
N7_8 S2_8 1_555 1_555
N8_8 N7_8 1_555 1_555
C1_7 N3_7 1_555 1_555
C2_7 N1_7 1_555 1_555
C3_8 H1_8 1_555 1_555
C4_8 C3_8 1_555 1_555
H2_8 C4_8 1_555 1_555
C5_7 C1_7 1_555 1_555
C6_7 C5_7 1_555 1_555
H3_7 C6_7 1_555 1_555
C7_7 N6_7 1_555 1_555
H4_7 C7_7 1_555 1_555
H6_7 C9_7 1_555 1_555
C10_7 C2_7 1_555 1_555
C11_7 C10_7 1_555 1_555
H7_7 C11_7 1_555 1_555
C13_8 N8_8 1_555 1_555
C15_8 H9_8 1_555 1_555
C16_8 C15_8 1_555 1_555
H10_8 C16_8 1_555 1_555
C17_8 C13_8 1_555 1_555
C20_6 H13_6 1_555 1_555
C21_8 C20_6 1_555 1_555
H14_8 C21_8 1_555 1_555
C4_8 C5_7 1_555 1_555
C6_7 C7_7 1_555 1_555
C9_7 C10_7 1_555 1_555
C16_8 C17_8 1_555 1_555
C20_7 H13_7 1_555 1_555
N9_7 N10_7 1_555 1_555
N10_7 C14_7 1_555 1_555
H11_7 C18_7 1_555 1_555
C19_7 N12_7 1_555 1_555
H12_7 C19_7 1_555 1_555
C22_7 C14_7 1_555 1_555
C18_7 C19_7 1_555 1_555
N1_8 N2_8 1_555 1_555
N2_8 C1_8 1_555 1_555
N3_8 N4_8 1_555 1_555
N4_8 C2_8 1_555 1_555
C1_8 N3_8 1_555 1_555
C2_8 N1_8 1_555 1_555
C5_8 C1_8 1_555 1_555
C6_8 C5_8 1_555 1_555
H3_8 C6_8 1_555 1_555
C7_8 N6_8 1_555 1_555
H4_8 C7_8 1_555 1_555
H6_8 C9_8 1_555 1_555
C10_8 C2_8 1_555 1_555
C11_8 C10_8 1_555 1_555
H7_8 C11_8 1_555 1_555
C6_8 C7_8 1_555 1_555
C9_8 C10_8 1_555 1_555
N9_8 N10_8 1_555 1_555
N10_8 C14_8 1_555 1_555
H11_8 C18_8 1_555 1_555
C19_8 N12_8 1_555 1_555
H12_8 C19_8 1_555 1_555
C22_8 C14_8 1_555 1_555
C18_8 C19_8 1_555 1_555
C20_8 H13_8 1_555 1_555

#END
