
###############################################################################
#
# This file contains modified crystal structure data generated from the
# MOF subset of the Cambridge Structural Database (CSD) v543 
# hosted by the Cambridge Crystallographic Data Centre (CCDC).
#
# This work is licensed under the Creative Commons
# Attribution-NonCommercial-ShareAlike 4.0 International License.
# To view a copy of this license, visit
# http://creativecommons.org/licenses/by-nc-sa/4.0/
# or send a letter to
# Creative Commons, PO Box 1866, Mountain View, CA 94042, USA.
#
# CIF created using the CSD Python API on 29 September 2022
# The structure has been converted into the P1 space group
# The structure has a 3D framework
# The original CSD entry LIXCOM is in the monoclinic crystal system
# The framework has been calculated to contain at least 10.0% void space
# The void calculation uses a probe of radius 1.32A, grid spacing 0.4
# H atom positions have been added when not included in the experimental data
#
###############################################################################

data_LIXCOM
_chemical_formula_moiety         '(C168 H104 O68 Pr8)n'
_symmetry_cell_setting           triclinic
_symmetry_space_group_name_H-M   'P 1'
_symmetry_Int_Tables_number      1
_space_group_name_Hall           'P 1'
loop_
_symmetry_equiv_pos_site_id
_symmetry_equiv_pos_as_xyz
1 x,y,z
_cell_length_a                   29.888(6)
_cell_length_b                   9.0272(18)
_cell_length_c                   16.467(3)
_cell_angle_alpha                90
_cell_angle_beta                 113.18(3)
_cell_angle_gamma                90
_cell_volume                     4084.22
loop_
_atom_site_label
_atom_site_type_symbol
_atom_site_fract_x
_atom_site_fract_y
_atom_site_fract_z
O14 O 0.0597(2) 0.0278(8) 0.9339(4)
C2 C 0.0790(3) 0.1309(12) 0.9887(6)
C7 C 0.1590(3) 0.0474(10) 0.9884(5)
O11 O 0.0601(2) 0.7235(9) 0.0441(4)
Pr5 Pr 0.002474(16) 0.16552(7) 0.09389(3)
O10 O 0.04869(19) 0.7333(8) 0.8412(4)
Pr3 Pr 0.002474(16) 0.83448(7) 0.59389(3)
H13 H 0.0111842 0.503005 0.960383
O12 O 0.9550(2) 0.0626(8) 0.9088(4)
O1 O 0.95131(19) 0.7333(8) 0.6588(4)
O2 O 0.9399(2) 0.2765(9) 0.9559(4)
C1 C 0.9271(3) 0.1681(13) 0.9035(6)
O4 O 0.5577(2) 0.2838(8) 0.5198(4)
O5 O 0.5597(2) 0.4722(8) 0.4339(4)
C2_2 C 0.5790(3) 0.3691(12) 0.4887(6)
Pr1 Pr 0.997526(16) 0.83448(7) 0.90611(3)
O6 O 0.9865(3) 0.5456(8) 0.9054(5)
O7 O 0.73071(17) 0.1318(6) 0.6709(3)
C3 C 0.7333(2) 0.3334(9) 0.5788(4)
H1 H 0.7668 0.3236 0.5970
O8 O 0.9315(2) 0.7656(8) 0.7732(4)
C4 C 0.8714(3) 0.6788(9) 0.6411(5)
C5 C 0.8374(3) 0.6658(9) 0.6786(5)
H2 H 0.8461 0.6894 0.7379
C6 C 0.6338(2) 0.3544(9) 0.5184(5)
C7_2 C 0.6590(3) 0.4526(10) 0.4884(5)
H3 H 0.6424 0.5251 0.4474
C8 C 0.8758(3) 0.1653(10) 0.8354(5)
C9 C 0.7800(3) 0.1492(9) 0.7234(5)
C10 C 0.8574(3) 0.6472(10) 0.5524(5)
H4 H 0.8795 0.6587 0.5258
C11 C 0.9214(3) 0.7312(10) 0.6943(5)
O9 O 0.73238(18) 0.5408(6) 0.4864(3)
C12 C 0.7783(3) 0.5848(9) 0.5403(5)
C13 C 0.6576(3) 0.2471(9) 0.5798(5)
H5 H 0.6405 0.1808 0.6001
C14 C 0.7082(3) 0.4426(9) 0.5190(5)
C15 C 0.8450(3) 0.2798(10) 0.8276(5)
H6 H 0.8570 0.3649 0.8610
C16 C 0.7912(3) 0.6186(9) 0.6294(5)
H7 H 0.7686 0.6090 0.6549
C17 C 0.8097(3) 0.0351(9) 0.7278(5)
C18 C 0.7972(3) 0.2739(10) 0.7726(5)
H9 H 0.7766 0.3533 0.7685
C19 C 0.7079(3) 0.2411(9) 0.6101(5)
C20 C 0.8115(3) 0.5996(10) 0.5037(5)
H10 H 0.8028 0.5766 0.4444
C21 C 0.8580(3) 0.0414(10) 0.7845(5)
O13 O 0.9423(2) 0.7838(8) 0.9802(4)
Pr4 Pr 0.502474(16) 0.33448(7) 0.59389(3)
Pr6 Pr 0.497526(16) 0.66552(7) 0.40611(3)
H12 H 0.990767 0.502596 0.853403
H8 H 0.7977 0.9518 0.6927
H11 H 0.8786 0.9620 0.7883
O12_2 O 0.0450(2) 0.0626(8) 0.5912(4)
O5_2 O 0.4403(2) 0.4722(8) 0.0661(4)
C2_3 C 0.4210(3) 0.3691(12) 0.0113(6)
C7_3 C 0.3410(3) 0.4526(10) 0.0116(5)
H3_2 H 0.3576 0.5251 0.0526
O9_2 O 0.26762(18) 0.5408(6) 0.0136(3)
H10_2 H 0.1972 0.5766 0.0556
Pr6_2 Pr 0.502474(16) 0.66552(7) 0.09389(3)
O2_2 O 0.0601(2) 0.2765(9) 0.5441(4)
C1_2 C 0.0729(3) 0.1681(13) 0.5965(6)
O4_2 O 0.4423(2) 0.2838(8) 0.9802(4)
O6_2 O 0.0135(3) 0.5456(8) 0.5946(5)
O7_2 O 0.26929(17) 0.1318(6) 0.8291(3)
C3_2 C 0.2667(2) 0.3334(9) 0.9212(4)
H1_2 H 0.2332 0.3236 0.9030
O8_2 O 0.0685(2) 0.7656(8) 0.7268(4)
C4_2 C 0.1286(3) 0.6788(9) 0.8589(5)
C5_2 C 0.1626(3) 0.6658(9) 0.8214(5)
H2_2 H 0.1539 0.6894 0.7621
C6_2 C 0.3662(2) 0.3544(9) 0.9816(5)
C8_2 C 0.1242(3) 0.1653(10) 0.6646(5)
C9_2 C 0.2200(3) 0.1492(9) 0.7766(5)
C10_2 C 0.1426(3) 0.6472(10) 0.9476(5)
H4_2 H 0.1205 0.6587 0.9742
C11_2 C 0.0786(3) 0.7312(10) 0.8057(5)
C12_2 C 0.2217(3) 0.5848(9) 0.9597(5)
C13_2 C 0.3424(3) 0.2471(9) 0.9202(5)
H5_2 H 0.3595 0.1808 0.8999
C14_2 C 0.2918(3) 0.4426(9) 0.9810(5)
C15_2 C 0.1550(3) 0.2798(10) 0.6724(5)
H6_2 H 0.1430 0.3649 0.6390
C16_2 C 0.2088(3) 0.6186(9) 0.8706(5)
H7_2 H 0.2314 0.6090 0.8451
C17_2 C 0.1903(3) 0.0351(9) 0.7722(5)
C18_2 C 0.2028(3) 0.2739(10) 0.7274(5)
H9_2 H 0.2234 0.3533 0.7315
C19_2 C 0.2921(3) 0.2411(9) 0.8899(5)
C20_2 C 0.1885(3) 0.5996(10) 0.9963(5)
C21_2 C 0.1420(3) 0.0414(10) 0.7155(5)
O13_2 O 0.0577(2) 0.7838(8) 0.5198(4)
Pr4_2 Pr 0.497526(16) 0.33448(7) 0.90611(3)
H12_2 H 0.00923323 0.502596 0.646597
H8_2 H 0.2023 0.9518 0.8073
H11_2 H 0.1214 0.9620 0.7117
O14_2 O 0.9403(2) 0.0278(8) 0.5661(4)
O11_2 O 0.9399(2) 0.7235(9) 0.4559(4)
Pr5_2 Pr 0.997526(16) 0.16552(7) 0.40611(3)
H13_2 H 0.988816 0.503005 0.539617
O11_3 O 0.5601(2) 0.2235(9) 0.0441(4)
O1_2 O 0.45131(19) 0.2333(8) 0.6588(4)
O6_3 O 0.4865(3) 0.0456(8) 0.9054(5)
O8_3 O 0.4315(2) 0.2656(8) 0.7732(4)
C4_3 C 0.3714(3) 0.1788(9) 0.6411(5)
C5_3 C 0.3374(3) 0.1658(9) 0.6786(5)
H2_3 H 0.3461 0.1894 0.7379
H3_3 H 0.1424 0.0251 0.4474
C10_3 C 0.3574(3) 0.1472(10) 0.5524(5)
H4_3 H 0.3795 0.1587 0.5258
C11_3 C 0.4214(3) 0.2312(10) 0.6943(5)
O9_3 O 0.23238(18) 0.0408(6) 0.4864(3)
C12_3 C 0.2783(3) 0.0848(9) 0.5403(5)
C16_3 C 0.2912(3) 0.1186(9) 0.6294(5)
H7_3 H 0.2686 0.1090 0.6549
C20_3 C 0.3115(3) 0.0996(10) 0.5037(5)
H10_3 H 0.3028 0.0766 0.4444
O10_2 O 0.54869(19) 0.2333(8) 0.8412(4)
O12_3 O 0.4550(2) 0.5626(8) 0.9088(4)
O14_3 O 0.5597(2) 0.5278(8) 0.9339(4)
H12_3 H 0.490767 0.00259614 0.853403
H13_3 H 0.511184 0.00300494 0.960383
O2_3 O 0.4399(2) 0.7765(9) 0.9559(4)
C1_3 C 0.4271(3) 0.6681(13) 0.9035(6)
O5_3 O 0.0597(2) 0.9722(8) 0.4339(4)
C2_4 C 0.0790(3) 0.8691(12) 0.4887(6)
O7_3 O 0.23071(17) 0.6318(6) 0.6709(3)
C3_3 C 0.2333(2) 0.8334(9) 0.5788(4)
H1_3 H 0.2668 0.8236 0.5970
C6_3 C 0.1338(2) 0.8544(9) 0.5184(5)
C7_4 C 0.1590(3) 0.9526(10) 0.4884(5)
C8_3 C 0.3758(3) 0.6653(10) 0.8354(5)
C9_3 C 0.2800(3) 0.6492(9) 0.7234(5)
C13_3 C 0.1576(3) 0.7471(9) 0.5798(5)
H5_3 H 0.1405 0.6808 0.6001
C14_3 C 0.2082(3) 0.9426(9) 0.5190(5)
C15_3 C 0.3450(3) 0.7798(10) 0.8276(5)
H6_3 H 0.3570 0.8649 0.8610
C17_3 C 0.3097(3) 0.5351(9) 0.7278(5)
H8_3 H 0.2977 0.4518 0.6927
C18_3 C 0.2972(3) 0.7739(10) 0.7726(5)
H9_3 H 0.2766 0.8533 0.7685
C19_3 C 0.2079(3) 0.7411(9) 0.6101(5)
C21_3 C 0.3580(3) 0.5414(10) 0.7845(5)
H11_3 H 0.3786 0.4620 0.7883
O6_4 O 0.5135(3) 0.0456(8) 0.5946(5)
O8_4 O 0.5685(2) 0.2656(8) 0.7268(4)
C4_4 C 0.6286(3) 0.1788(9) 0.8589(5)
C5_4 C 0.6626(3) 0.1658(9) 0.8214(5)
H2_4 H 0.6539 0.1894 0.7621
C10_4 C 0.6426(3) 0.1472(10) 0.9476(5)
H4_4 H 0.6205 0.1587 0.9742
C11_4 C 0.5786(3) 0.2312(10) 0.8057(5)
C12_4 C 0.7217(3) 0.0848(9) 0.9597(5)
C16_4 C 0.7088(3) 0.1186(9) 0.8706(5)
H7_4 H 0.7314 0.1090 0.8451
C20_4 C 0.6885(3) 0.0996(10) 0.9963(5)
O11_4 O 0.4399(2) 0.2235(9) 0.4559(4)
O12_4 O 0.5450(2) 0.5626(8) 0.5912(4)
O14_4 O 0.4403(2) 0.5278(8) 0.5661(4)
H12_4 H 0.509233 0.00259614 0.646597
H13_4 H 0.488816 0.00300494 0.539617
O2_4 O 0.5601(2) 0.7765(9) 0.5441(4)
C1_4 C 0.5729(3) 0.6681(13) 0.5965(6)
O7_4 O 0.76929(17) 0.6318(6) 0.8291(3)
C3_4 C 0.7667(2) 0.8334(9) 0.9212(4)
H1_4 H 0.7332 0.8236 0.9030
C6_4 C 0.8662(2) 0.8544(9) 0.9816(5)
C8_4 C 0.6242(3) 0.6653(10) 0.6646(5)
C9_4 C 0.7200(3) 0.6492(9) 0.7766(5)
C13_4 C 0.8424(3) 0.7471(9) 0.9202(5)
H5_4 H 0.8595 0.6808 0.8999
C14_4 C 0.7918(3) 0.9426(9) 0.9810(5)
C15_4 C 0.6550(3) 0.7798(10) 0.6724(5)
H6_4 H 0.6430 0.8649 0.6390
C17_4 C 0.6903(3) 0.5351(9) 0.7722(5)
H8_4 H 0.7023 0.4518 0.8073
C18_4 C 0.7028(3) 0.7739(10) 0.7274(5)
H9_4 H 0.7234 0.8533 0.7315
C19_4 C 0.7921(3) 0.7411(9) 0.8899(5)
C21_4 C 0.6420(3) 0.5414(10) 0.7155(5)
H11_4 H 0.6214 0.4620 0.7117
H8_5 H 0.2023 0.0482 0.3073
H11_5 H 0.1214 0.0380 0.2117
O1_3 O 0.04869(19) 0.2667(8) 0.3412(4)
O3 O 0.0450(2) 0.9374(8) 0.0912(4)
C1_5 C 0.0729(3) 0.8319(13) 0.0965(6)
O4_3 O 0.4423(2) 0.7162(8) 0.4802(4)
C2_5 C 0.4210(3) 0.6309(12) 0.5113(6)
O6_5 O 0.0135(3) 0.4544(8) 0.0946(5)
O7_5 O 0.26929(17) 0.8682(6) 0.3291(3)
C3_5 C 0.2667(2) 0.6666(9) 0.4212(4)
H1_5 H 0.2332 0.6764 0.4030
O8_5 O 0.0685(2) 0.2344(8) 0.2268(4)
C4_5 C 0.1286(3) 0.3212(9) 0.3589(5)
C5_5 C 0.1626(3) 0.3342(9) 0.3214(5)
H2_5 H 0.1539 0.3106 0.2621
C6_5 C 0.3662(2) 0.6456(9) 0.4816(5)
C7_5 C 0.3410(3) 0.5474(10) 0.5116(5)
H3_4 H 0.3576 0.4749 0.5526
C8_5 C 0.1242(3) 0.8347(10) 0.1646(5)
C9_5 C 0.2200(3) 0.8508(9) 0.2766(5)
C10_5 C 0.1426(3) 0.3528(10) 0.4476(5)
H4_5 H 0.1205 0.3413 0.4742
C11_5 C 0.0786(3) 0.2688(10) 0.3057(5)
O9_4 O 0.26762(18) 0.4592(6) 0.5136(3)
C12_5 C 0.2217(3) 0.4152(9) 0.4597(5)
C13_5 C 0.3424(3) 0.7529(9) 0.4202(5)
H5_5 H 0.3595 0.8192 0.3999
C14_5 C 0.2918(3) 0.5574(9) 0.4810(5)
C15_5 C 0.1550(3) 0.7202(10) 0.1724(5)
H6_5 H 0.1430 0.6351 0.1390
C16_5 C 0.2088(3) 0.3814(9) 0.3706(5)
H7_5 H 0.2314 0.3910 0.3451
C17_5 C 0.1903(3) 0.9649(9) 0.2722(5)
C18_5 C 0.2028(3) 0.7261(10) 0.2274(5)
H9_5 H 0.2234 0.6467 0.2315
C19_5 C 0.2921(3) 0.7589(9) 0.3899(5)
C20_5 C 0.1885(3) 0.4004(10) 0.4963(5)
H10_4 H 0.1972 0.4234 0.5556
C21_5 C 0.1420(3) 0.9586(10) 0.2155(5)
O13_3 O 0.0577(2) 0.2162(8) 0.0198(4)
H12_5 H 0.00923323 0.497404 0.146597
O10_3 O 0.95131(19) 0.2667(8) 0.1588(4)
H13_5 H 0.988816 0.496995 0.0396168
H13_6 H 0.0111842 0.496995 0.460383
H8_6 H 0.7977 0.0482 0.1927
H11_6 H 0.8786 0.0380 0.2883
O3_2 O 0.9550(2) 0.9374(8) 0.4088(4)
C1_6 C 0.9271(3) 0.8319(13) 0.4035(6)
O4_4 O 0.5577(2) 0.7162(8) 0.0198(4)
O6_6 O 0.9865(3) 0.4544(8) 0.4054(5)
O7_6 O 0.73071(17) 0.8682(6) 0.1709(3)
C3_6 C 0.7333(2) 0.6666(9) 0.0788(4)
H1_6 H 0.7668 0.6764 0.0970
O8_6 O 0.9315(2) 0.2344(8) 0.2732(4)
C4_6 C 0.8714(3) 0.3212(9) 0.1411(5)
C5_6 C 0.8374(3) 0.3342(9) 0.1786(5)
H2_6 H 0.8461 0.3106 0.2379
C6_6 C 0.6338(2) 0.6456(9) 0.0184(5)
C8_6 C 0.8758(3) 0.8347(10) 0.3354(5)
C9_6 C 0.7800(3) 0.8508(9) 0.2234(5)
C10_6 C 0.8574(3) 0.3528(10) 0.0524(5)
H4_6 H 0.8795 0.3413 0.0258
C11_6 C 0.9214(3) 0.2688(10) 0.1943(5)
C12_6 C 0.7783(3) 0.4152(9) 0.0403(5)
C13_6 C 0.6576(3) 0.7529(9) 0.0798(5)
H5_6 H 0.6405 0.8192 0.1001
C14_6 C 0.7082(3) 0.5574(9) 0.0190(5)
C15_6 C 0.8450(3) 0.7202(10) 0.3276(5)
H6_6 H 0.8570 0.6351 0.3610
C16_6 C 0.7912(3) 0.3814(9) 0.1294(5)
H7_6 H 0.7686 0.3910 0.1549
C17_6 C 0.8097(3) 0.9649(9) 0.2278(5)
C18_6 C 0.7972(3) 0.7261(10) 0.2726(5)
H9_6 H 0.7766 0.6467 0.2685
C19_6 C 0.7079(3) 0.7589(9) 0.1101(5)
C20_6 C 0.8115(3) 0.4004(10) 0.0037(5)
C21_6 C 0.8580(3) 0.9586(10) 0.2845(5)
O13_4 O 0.9423(2) 0.2162(8) 0.4802(4)
H12_6 H 0.990767 0.497404 0.353403
C2_6 C 0.5790(3) 0.6309(12) 0.9887(6)
C7_6 C 0.6590(3) 0.5474(10) 0.9884(5)
H3_5 H 0.6424 0.4749 0.9474
O9_5 O 0.73238(18) 0.4592(6) 0.9864(3)
H10_5 H 0.8028 0.4234 0.9444
O3_3 O 0.5450(2) 0.4374(8) 0.0912(4)
C1_7 C 0.5729(3) 0.3319(13) 0.0965(6)
C2_7 C 0.9210(3) 0.1309(12) 0.5113(6)
O7_7 O 0.76929(17) 0.3682(6) 0.3291(3)
C3_7 C 0.7667(2) 0.1666(9) 0.4212(4)
H1_7 H 0.7332 0.1764 0.4030
C6_7 C 0.8662(2) 0.1456(9) 0.4816(5)
C7_7 C 0.8410(3) 0.0474(10) 0.5116(5)
C8_7 C 0.6242(3) 0.3347(10) 0.1646(5)
C9_7 C 0.7200(3) 0.3508(9) 0.2766(5)
C13_7 C 0.8424(3) 0.2529(9) 0.4202(5)
H5_7 H 0.8595 0.3192 0.3999
C14_7 C 0.7918(3) 0.0574(9) 0.4810(5)
C15_7 C 0.6550(3) 0.2202(10) 0.1724(5)
H6_7 H 0.6430 0.1351 0.1390
C17_7 C 0.6903(3) 0.4649(9) 0.2722(5)
H8_7 H 0.7023 0.5482 0.3073
C18_7 C 0.7028(3) 0.2261(10) 0.2274(5)
H9_7 H 0.7234 0.1467 0.2315
C19_7 C 0.7921(3) 0.2589(9) 0.3899(5)
C21_7 C 0.6420(3) 0.4586(10) 0.2155(5)
H11_7 H 0.6214 0.5380 0.2117
O1_4 O 0.54869(19) 0.7667(8) 0.3412(4)
O6_7 O 0.5135(3) 0.9544(8) 0.0946(5)
O8_7 O 0.5685(2) 0.7344(8) 0.2268(4)
C4_7 C 0.6286(3) 0.8212(9) 0.3589(5)
C5_7 C 0.6626(3) 0.8342(9) 0.3214(5)
H2_7 H 0.6539 0.8106 0.2621
H3_6 H 0.8576 0.9749 0.5526
C10_7 C 0.6426(3) 0.8528(10) 0.4476(5)
H4_7 H 0.6205 0.8413 0.4742
C11_7 C 0.5786(3) 0.7688(10) 0.3057(5)
O9_6 O 0.76762(18) 0.9592(6) 0.5136(3)
C12_7 C 0.7217(3) 0.9152(9) 0.4597(5)
C16_7 C 0.7088(3) 0.8814(9) 0.3706(5)
H7_7 H 0.7314 0.8910 0.3451
C20_7 C 0.6885(3) 0.9004(10) 0.4963(5)
H10_6 H 0.6972 0.9234 0.5556
O10_4 O 0.45131(19) 0.7667(8) 0.1588(4)
H12_7 H 0.509233 0.997404 0.146597
H13_7 H 0.488816 0.996995 0.0396168
O3_4 O 0.4550(2) 0.4374(8) 0.4088(4)
C1_8 C 0.4271(3) 0.3319(13) 0.4035(6)
O7_8 O 0.23071(17) 0.3682(6) 0.1709(3)
C3_8 C 0.2333(2) 0.1666(9) 0.0788(4)
H1_8 H 0.2668 0.1764 0.0970
C6_8 C 0.1338(2) 0.1456(9) 0.0184(5)
C8_8 C 0.3758(3) 0.3347(10) 0.3354(5)
C9_8 C 0.2800(3) 0.3508(9) 0.2234(5)
C13_8 C 0.1576(3) 0.2529(9) 0.0798(5)
H5_8 H 0.1405 0.3192 0.1001
C14_8 C 0.2082(3) 0.0574(9) 0.0190(5)
C15_8 C 0.3450(3) 0.2202(10) 0.3276(5)
H6_8 H 0.3570 0.1351 0.3610
C17_8 C 0.3097(3) 0.4649(9) 0.2278(5)
H8_8 H 0.2977 0.5482 0.1927
C18_8 C 0.2972(3) 0.2261(10) 0.2726(5)
H9_8 H 0.2766 0.1467 0.2685
C19_8 C 0.2079(3) 0.2589(9) 0.1101(5)
C21_8 C 0.3580(3) 0.4586(10) 0.2845(5)
H11_8 H 0.3786 0.5380 0.2883
O6_8 O 0.4865(3) 0.9544(8) 0.4054(5)
O8_8 O 0.4315(2) 0.7344(8) 0.2732(4)
C4_8 C 0.3714(3) 0.8212(9) 0.1411(5)
C5_8 C 0.3374(3) 0.8342(9) 0.1786(5)
H2_8 H 0.3461 0.8106 0.2379
C10_8 C 0.3574(3) 0.8528(10) 0.0524(5)
H4_8 H 0.3795 0.8413 0.0258
C11_8 C 0.4214(3) 0.7688(10) 0.1943(5)
C12_8 C 0.2783(3) 0.9152(9) 0.0403(5)
C16_8 C 0.2912(3) 0.8814(9) 0.1294(5)
H7_8 H 0.2686 0.8910 0.1549
C20_8 C 0.3115(3) 0.9004(10) 0.0037(5)
H12_8 H 0.490767 0.997404 0.353403
H13_8 H 0.511184 0.996995 0.460383
H3_7 H 0.8576 0.0251 0.0526
O9_7 O 0.76762(18) 0.0408(6) 0.0136(3)
H10_7 H 0.6972 0.0766 0.0556
O5_4 O 0.9403(2) 0.9722(8) 0.0661(4)
C2_8 C 0.9210(3) 0.8691(12) 0.0113(6)
C7_8 C 0.8410(3) 0.9526(10) 0.0116(5)
H3_8 H 0.1424 0.9749 0.9474
O9_8 O 0.23238(18) 0.9592(6) 0.9864(3)
H10_8 H 0.3028 0.9234 0.9444
loop_
_geom_bond_atom_site_label_1
_geom_bond_atom_site_label_2
_geom_bond_site_symmetry_1
_geom_bond_site_symmetry_2
O14 C2 1_555 1_555
O1 C11 1_555 1_555
O2 C1 1_555 1_555
O12 C1 1_555 1_555
C1 C8 1_555 1_555
O4 C2_2 1_555 1_555
O5 C2_2 1_555 1_555
C2_2 C6 1_555 1_555
Pr1 O6 1_555 1_555
O7 C9 1_555 1_555
C3 H1 1_555 1_555
O8 Pr1 1_555 1_555
C4 C5 1_555 1_555
C5 H2 1_555 1_555
C6 C7_2 1_555 1_555
C7_2 H3 1_555 1_555
C8 C15 1_555 1_555
C9 C17 1_555 1_555
C10 C4 1_555 1_555
H4 C10 1_555 1_555
C11 O8 1_555 1_555
O9 C12 1_555 1_555
C12 C16 1_555 1_555
C13 C6 1_555 1_555
H5 C13 1_555 1_555
C14 C3 1_555 1_555
C15 H6 1_555 1_555
C16 C5 1_555 1_555
H7 C16 1_555 1_555
C18 C9 1_555 1_555
H9 C18 1_555 1_555
C19 O7 1_555 1_555
C20 C10 1_555 1_555
H10 C20 1_555 1_555
C21 C8 1_555 1_555
O13 Pr1 1_555 1_555
Pr4 O4 1_555 1_555
Pr6 O5 1_555 1_555
C3 C19 1_555 1_555
C4 C11 1_555 1_555
C7_2 C14 1_555 1_555
O9 C14 1_555 1_555
C12 C20 1_555 1_555
C13 C19 1_555 1_555
C15 C18 1_555 1_555
C17 C21 1_555 1_555
O6 H12 1_555 1_555
O5_2 C2_3 1_555 1_555
C7_3 H3_2 1_555 1_555
Pr6_2 O5_2 1_555 1_555
O10 C11_2 1_555 1_555
O2_2 C1_2 1_555 1_555
O12_2 C1_2 1_555 1_555
C1_2 C8_2 1_555 1_555
Pr3 O6_2 1_555 1_555
O7_2 C9_2 1_555 1_555
C3_2 H1_2 1_555 1_555
O8_2 Pr3 1_555 1_555
C4_2 C5_2 1_555 1_555
C5_2 H2_2 1_555 1_555
C8_2 C15_2 1_555 1_555
C9_2 C17_2 1_555 1_555
C10_2 C4_2 1_555 1_555
H4_2 C10_2 1_555 1_555
C11_2 O8_2 1_555 1_555
C12_2 C16_2 1_555 1_555
C13_2 C6_2 1_555 1_555
H5_2 C13_2 1_555 1_555
C14_2 C3_2 1_555 1_555
C15_2 H6_2 1_555 1_555
C16_2 C5_2 1_555 1_555
H7_2 C16_2 1_555 1_555
C18_2 C9_2 1_555 1_555
H9_2 C18_2 1_555 1_555
C19_2 O7_2 1_555 1_555
C20_2 C10_2 1_555 1_555
C21_2 C8_2 1_555 1_555
O13_2 Pr3 1_555 1_555
Pr4_2 O4_2 1_555 1_555
C3_2 C19_2 1_555 1_555
C4_2 C11_2 1_555 1_555
C12_2 C20_2 1_555 1_555
C13_2 C19_2 1_555 1_555
C15_2 C18_2 1_555 1_555
C17_2 C21_2 1_555 1_555
O6_2 H12_2 1_555 1_555
O1_2 C11_3 1_555 1_555
Pr4_2 O6_3 1_555 1_555
O8_3 Pr4_2 1_555 1_555
C4_3 C5_3 1_555 1_555
C5_3 H2_3 1_555 1_555
C10_3 C4_3 1_555 1_555
H4_3 C10_3 1_555 1_555
C11_3 O8_3 1_555 1_555
O9_3 C12_3 1_555 1_555
C12_3 C16_3 1_555 1_555
C16_3 C5_3 1_555 1_555
H7_3 C16_3 1_555 1_555
C20_3 C10_3 1_555 1_555
H10_3 C20_3 1_555 1_555
O10_2 Pr4_2 1_555 1_555
O12_3 Pr4_2 1_555 1_555
O14_3 Pr4_2 1_555 1_555
Pr4 O1_2 1_555 1_555
C4_3 C11_3 1_555 1_555
C12_3 C20_3 1_555 1_555
O6_3 H12_3 1_555 1_555
O6_3 H13_3 1_555 1_555
O2_3 C1_3 1_555 1_555
O12_3 C1_3 1_555 1_555
C1_3 C8_3 1_555 1_555
O13_2 C2_4 1_555 1_555
O5_3 C2_4 1_555 1_555
C2_4 C6_3 1_555 1_555
O7_3 C9_3 1_555 1_555
C3_3 H1_3 1_555 1_555
C6_3 C7_4 1_555 1_555
C8_3 C15_3 1_555 1_555
C9_3 C17_3 1_555 1_555
C13_3 C6_3 1_555 1_555
H5_3 C13_3 1_555 1_555
C14_3 C3_3 1_555 1_555
C15_3 H6_3 1_555 1_555
C17_3 H8_3 1_555 1_555
C18_3 C9_3 1_555 1_555
H9_3 C18_3 1_555 1_555
C19_3 O7_3 1_555 1_555
C21_3 C8_3 1_555 1_555
H11_3 C21_3 1_555 1_555
C3_3 C19_3 1_555 1_555
C7_4 C14_3 1_555 1_555
C13_3 C19_3 1_555 1_555
C15_3 C18_3 1_555 1_555
C17_3 C21_3 1_555 1_555
O10_2 C11_4 1_555 1_555
Pr4 O6_4 1_555 1_555
O8_4 Pr4 1_555 1_555
C4_4 C5_4 1_555 1_555
C5_4 H2_4 1_555 1_555
C10_4 C4_4 1_555 1_555
H4_4 C10_4 1_555 1_555
C11_4 O8_4 1_555 1_555
C12_4 C16_4 1_555 1_555
C16_4 C5_4 1_555 1_555
H7_4 C16_4 1_555 1_555
C20_4 C10_4 1_555 1_555
O11_4 Pr4 1_555 1_555
O12_4 Pr4 1_555 1_555
O14_4 Pr4 1_555 1_555
C4_4 C11_4 1_555 1_555
C12_4 C20_4 1_555 1_555
O6_4 H12_4 1_555 1_555
O6_4 H13_4 1_555 1_555
O2_4 C1_4 1_555 1_555
O12_4 C1_4 1_555 1_555
C1_4 C8_4 1_555 1_555
O7_4 C9_4 1_555 1_555
C3_4 H1_4 1_555 1_555
C8_4 C15_4 1_555 1_555
C9_4 C17_4 1_555 1_555
C13_4 C6_4 1_555 1_555
H5_4 C13_4 1_555 1_555
C14_4 C3_4 1_555 1_555
C15_4 H6_4 1_555 1_555
C17_4 H8_4 1_555 1_555
C18_4 C9_4 1_555 1_555
H9_4 C18_4 1_555 1_555
C19_4 O7_4 1_555 1_555
C21_4 C8_4 1_555 1_555
H11_4 C21_4 1_555 1_555
Pr6 O2_4 1_555 1_555
C3_4 C19_4 1_555 1_555
C13_4 C19_4 1_555 1_555
C15_4 C18_4 1_555 1_555
C17_4 C21_4 1_555 1_555
O1_3 C11_5 1_555 1_555
O11 C1_5 1_555 1_555
O3 C1_5 1_555 1_555
C1_5 C8_5 1_555 1_555
O4_3 C2_5 1_555 1_555
O14_4 C2_5 1_555 1_555
C2_5 C6_5 1_555 1_555
Pr5 O6_5 1_555 1_555
O7_5 C9_5 1_555 1_555
C3_5 H1_5 1_555 1_555
O8_5 Pr5 1_555 1_555
C4_5 C5_5 1_555 1_555
C5_5 H2_5 1_555 1_555
C6_5 C7_5 1_555 1_555
C7_5 H3_4 1_555 1_555
C8_5 C15_5 1_555 1_555
C9_5 C17_5 1_555 1_555
C10_5 C4_5 1_555 1_555
H4_5 C10_5 1_555 1_555
C11_5 O8_5 1_555 1_555
O9_4 C12_5 1_555 1_555
C12_5 C16_5 1_555 1_555
C13_5 C6_5 1_555 1_555
H5_5 C13_5 1_555 1_555
C14_5 C3_5 1_555 1_555
C15_5 H6_5 1_555 1_555
C16_5 C5_5 1_555 1_555
H7_5 C16_5 1_555 1_555
C18_5 C9_5 1_555 1_555
H9_5 C18_5 1_555 1_555
C19_5 O7_5 1_555 1_555
C20_5 C10_5 1_555 1_555
H10_4 C20_5 1_555 1_555
C21_5 C8_5 1_555 1_555
O13_3 Pr5 1_555 1_555
Pr6 O4_3 1_555 1_555
C3_5 C19_5 1_555 1_555
C4_5 C11_5 1_555 1_555
C7_5 C14_5 1_555 1_555
O9_4 C14_5 1_555 1_555
C12_5 C20_5 1_555 1_555
C13_5 C19_5 1_555 1_555
C15_5 C18_5 1_555 1_555
C17_5 C21_5 1_555 1_555
O6_5 H12_5 1_555 1_555
O10_3 C11_6 1_555 1_555
O11_2 C1_6 1_555 1_555
O3_2 C1_6 1_555 1_555
C1_6 C8_6 1_555 1_555
Pr5_2 O6_6 1_555 1_555
O7_6 C9_6 1_555 1_555
C3_6 H1_6 1_555 1_555
O8_6 Pr5_2 1_555 1_555
C4_6 C5_6 1_555 1_555
C5_6 H2_6 1_555 1_555
C8_6 C15_6 1_555 1_555
C9_6 C17_6 1_555 1_555
C10_6 C4_6 1_555 1_555
H4_6 C10_6 1_555 1_555
C11_6 O8_6 1_555 1_555
C12_6 C16_6 1_555 1_555
C13_6 C6_6 1_555 1_555
H5_6 C13_6 1_555 1_555
C14_6 C3_6 1_555 1_555
C15_6 H6_6 1_555 1_555
C16_6 C5_6 1_555 1_555
H7_6 C16_6 1_555 1_555
C18_6 C9_6 1_555 1_555
H9_6 C18_6 1_555 1_555
C19_6 O7_6 1_555 1_555
C20_6 C10_6 1_555 1_555
C21_6 C8_6 1_555 1_555
O13_4 Pr5_2 1_555 1_555
Pr6_2 O4_4 1_555 1_555
C3_6 C19_6 1_555 1_555
C4_6 C11_6 1_555 1_555
C12_6 C20_6 1_555 1_555
C13_6 C19_6 1_555 1_555
C15_6 C18_6 1_555 1_555
C17_6 C21_6 1_555 1_555
O6_6 H12_6 1_555 1_555
O14_3 C2_6 1_555 1_555
C7_6 H3_5 1_555 1_555
O11_3 C1_7 1_555 1_555
O3_3 C1_7 1_555 1_555
C1_7 C8_7 1_555 1_555
O13_4 C2_7 1_555 1_555
O14_2 C2_7 1_555 1_555
C2_7 C6_7 1_555 1_555
O7_7 C9_7 1_555 1_555
C3_7 H1_7 1_555 1_555
C6_7 C7_7 1_555 1_555
C8_7 C15_7 1_555 1_555
C9_7 C17_7 1_555 1_555
C13_7 C6_7 1_555 1_555
H5_7 C13_7 1_555 1_555
C14_7 C3_7 1_555 1_555
C15_7 H6_7 1_555 1_555
C17_7 H8_7 1_555 1_555
C18_7 C9_7 1_555 1_555
H9_7 C18_7 1_555 1_555
C19_7 O7_7 1_555 1_555
C21_7 C8_7 1_555 1_555
H11_7 C21_7 1_555 1_555
Pr6_2 O3_3 1_555 1_555
C3_7 C19_7 1_555 1_555
C7_7 C14_7 1_555 1_555
C13_7 C19_7 1_555 1_555
C15_7 C18_7 1_555 1_555
C17_7 C21_7 1_555 1_555
O1_4 C11_7 1_555 1_555
Pr6_2 O6_7 1_555 1_555
O8_7 Pr6_2 1_555 1_555
C4_7 C5_7 1_555 1_555
C5_7 H2_7 1_555 1_555
C10_7 C4_7 1_555 1_555
H4_7 C10_7 1_555 1_555
C11_7 O8_7 1_555 1_555
O9_6 C12_7 1_555 1_555
C12_7 C16_7 1_555 1_555
C16_7 C5_7 1_555 1_555
H7_7 C16_7 1_555 1_555
C20_7 C10_7 1_555 1_555
H10_6 C20_7 1_555 1_555
O10_4 Pr6_2 1_555 1_555
Pr6 O1_4 1_555 1_555
C4_7 C11_7 1_555 1_555
C12_7 C20_7 1_555 1_555
O6_7 H12_7 1_555 1_555
O6_7 H13_7 1_555 1_555
O11_4 C1_8 1_555 1_555
O3_4 C1_8 1_555 1_555
C1_8 C8_8 1_555 1_555
O7_8 C9_8 1_555 1_555
C3_8 H1_8 1_555 1_555
C8_8 C15_8 1_555 1_555
C9_8 C17_8 1_555 1_555
C13_8 C6_8 1_555 1_555
H5_8 C13_8 1_555 1_555
C14_8 C3_8 1_555 1_555
C15_8 H6_8 1_555 1_555
C17_8 H8_8 1_555 1_555
C18_8 C9_8 1_555 1_555
H9_8 C18_8 1_555 1_555
C19_8 O7_8 1_555 1_555
C21_8 C8_8 1_555 1_555
H11_8 C21_8 1_555 1_555
Pr6 O3_4 1_555 1_555
C3_8 C19_8 1_555 1_555
C13_8 C19_8 1_555 1_555
C15_8 C18_8 1_555 1_555
C17_8 C21_8 1_555 1_555
O10_4 C11_8 1_555 1_555
Pr6 O6_8 1_555 1_555
O8_8 Pr6 1_555 1_555
C4_8 C5_8 1_555 1_555
C5_8 H2_8 1_555 1_555
C10_8 C4_8 1_555 1_555
H4_8 C10_8 1_555 1_555
C11_8 O8_8 1_555 1_555
C12_8 C16_8 1_555 1_555
C16_8 C5_8 1_555 1_555
H7_8 C16_8 1_555 1_555
C20_8 C10_8 1_555 1_555
C4_8 C11_8 1_555 1_555
C12_8 C20_8 1_555 1_555
O6_8 H12_8 1_555 1_555
O6_8 H13_8 1_555 1_555
O5_4 C2_8 1_555 1_555

#END
