
###############################################################################
#
# This file contains modified crystal structure data generated from the
# MOF subset of the Cambridge Structural Database (CSD) v543 
# hosted by the Cambridge Crystallographic Data Centre (CCDC).
#
# This work is licensed under the Creative Commons
# Attribution-NonCommercial-ShareAlike 4.0 International License.
# To view a copy of this license, visit
# http://creativecommons.org/licenses/by-nc-sa/4.0/
# or send a letter to
# Creative Commons, PO Box 1866, Mountain View, CA 94042, USA.
#
# CIF created using the CSD Python API on 29 September 2022
# The structure has been converted into the P1 space group
# The structure has a 3D framework
# The original CSD entry LIXCIG is in the monoclinic crystal system
# The framework has been calculated to contain at least 10.0% void space
# The void calculation uses a probe of radius 1.32A, grid spacing 0.4
# H atom positions have been added when not included in the experimental data
#
###############################################################################

data_LIXCIG
_chemical_formula_moiety         '(C168 H104 Nd8 O68)n'
_symmetry_cell_setting           triclinic
_symmetry_space_group_name_H-M   'P 1'
_symmetry_Int_Tables_number      1
_space_group_name_Hall           'P 1'
loop_
_symmetry_equiv_pos_site_id
_symmetry_equiv_pos_as_xyz
1 x,y,z
_cell_length_a                   29.762(6)
_cell_length_b                   9.1425(18)
_cell_length_c                   16.364(3)
_cell_angle_alpha                90
_cell_angle_beta                 113.39(3)
_cell_angle_gamma                90
_cell_volume                     4086.73
loop_
_atom_site_label
_atom_site_type_symbol
_atom_site_fract_x
_atom_site_fract_y
_atom_site_fract_z
Nd2 Nd 0.002690(12) 0.33625(5) 0.09359(3)
Nd4 Nd 0.002690(12) 0.66375(5) 0.59359(3)
O1 O 0.56044(16) 0.0202(6) 0.4366(3)
O2 O 0.55836(17) 0.2086(6) 0.5215(4)
O4 O 0.73119(15) 0.3653(4) 0.6711(3)
O5 O 0.94134(18) 0.2295(7) 0.9567(3)
O6 O 0.95626(16) 0.4394(6) 0.9059(4)
C1 C 0.5797(2) 0.1230(9) 0.4893(5)
C2 C 0.6344(2) 0.1404(7) 0.5192(4)
C3 C 0.6583(2) 0.2467(7) 0.5801(4)
H1 H 0.6410 0.3107 0.6010
C4 C 0.7081(2) 0.2566(6) 0.6093(4)
C5 C 0.7340(2) 0.1628(6) 0.5778(4)
H2 H 0.7677 0.1728 0.5958
C6 C 0.7092(2) 0.0551(7) 0.5195(4)
C7 C 0.6597(2) 0.0428(7) 0.4889(4)
C8 C 0.7805(2) 0.3494(6) 0.7232(4)
C9 C 0.8098(2) 0.4648(7) 0.7269(4)
H4 H 0.7973 0.5467 0.6914
C10 C 0.8590(2) 0.4588(7) 0.7849(5)
H5 H 0.8795 0.5379 0.7896
C11 C 0.8769(2) 0.3364(7) 0.8347(4)
C12 C 0.8466(2) 0.2196(7) 0.8287(4)
H6 H 0.8590 0.1365 0.8630
C13 C 0.7983(2) 0.2252(7) 0.7726(4)
H7 H 0.7778 0.1461 0.7679
C21 C 0.9284(2) 0.3333(9) 0.9029(5)
Nd3 Nd 0.502690(12) 0.16375(5) 0.59359(3)
Nd6 Nd 0.997310(12) 0.66375(5) 0.90641(3)
O12 O 0.45626(16) 0.0606(6) 0.4059(4)
Nd1 Nd 0.497310(12) 0.83625(5) 0.40641(3)
O3 O 0.73303(15) 0.9566(5) 0.4865(3)
O7 O 0.95246(16) 0.7657(6) 0.6579(3)
O8 O 0.93238(16) 0.7266(6) 0.7729(3)
O9 O 0.4846(2) 0.5551(7) 0.4075(4)
H3 H 0.6432 0.9702 0.4483
C14 C 0.7797(2) 0.9140(7) 0.5411(4)
C15 C 0.7920(2) 0.8787(7) 0.6298(4)
H8 H 0.7691 0.8866 0.6550
C16 C 0.8385(2) 0.8321(6) 0.6794(4)
H9 H 0.8473 0.8091 0.7392
C17 C 0.8729(2) 0.8185(6) 0.6416(4)
C18 C 0.8588(2) 0.8532(7) 0.5526(5)
H10 H 0.8812 0.8436 0.5263
C19 C 0.8127(2) 0.9011(8) 0.5030(4)
H11 H 0.8038 0.9249 0.4433
C20 C 0.9225(2) 0.7650(7) 0.6940(4)
O10 O 0.44164(17) 0.7914(6) 0.4785(4)
O11 O 0.55866(18) 0.7295(7) 0.5433(3)
O13 O 0.54754(16) 0.7343(6) 0.3421(3)
O14 O 0.43238(16) 0.7734(6) 0.2729(3)
H12 H 0.502685 0.516819 0.468657
H13 H 0.44917 0.533519 0.388159
O1_2 O 0.43956(16) 0.0202(6) 0.0634(3)
C1_2 C 0.4203(2) 0.1230(9) 0.0107(5)
C7_2 C 0.3403(2) 0.0428(7) 0.0111(4)
O12_2 O 0.54374(16) 0.0606(6) 0.0941(4)
O2_2 O 0.44164(17) 0.2086(6) 0.9785(4)
O4_2 O 0.26881(15) 0.3653(4) 0.8289(3)
O5_2 O 0.05866(18) 0.2295(7) 0.5433(3)
O6_2 O 0.04374(16) 0.4394(6) 0.5941(4)
C2_2 C 0.3656(2) 0.1404(7) 0.9808(4)
C3_2 C 0.3417(2) 0.2467(7) 0.9199(4)
H1_2 H 0.3590 0.3107 0.8990
C4_2 C 0.2919(2) 0.2566(6) 0.8907(4)
C5_2 C 0.2660(2) 0.1628(6) 0.9222(4)
H2_2 H 0.2323 0.1728 0.9042
C6_2 C 0.2908(2) 0.0551(7) 0.9805(4)
C8_2 C 0.2195(2) 0.3494(6) 0.7768(4)
C9_2 C 0.1902(2) 0.4648(7) 0.7731(4)
H4_2 H 0.2027 0.5467 0.8086
C10_2 C 0.1410(2) 0.4588(7) 0.7151(5)
H5_2 H 0.1205 0.5379 0.7104
C11_2 C 0.1231(2) 0.3364(7) 0.6653(4)
C12_2 C 0.1534(2) 0.2196(7) 0.6713(4)
H6_2 H 0.1410 0.1365 0.6370
C13_2 C 0.2017(2) 0.2252(7) 0.7274(4)
H7_2 H 0.2222 0.1461 0.7321
C21_2 C 0.0716(2) 0.3333(9) 0.5971(5)
Nd3_2 Nd 0.497310(12) 0.16375(5) 0.90641(3)
Nd1_2 Nd 0.502690(12) 0.83625(5) 0.09359(3)
O3_2 O 0.26697(15) 0.9566(5) 0.0135(3)
O9_2 O 0.5154(2) 0.5551(7) 0.0925(4)
H3_2 H 0.3568 0.9702 0.0517
H11_2 H 0.1962 0.9249 0.0567
O10_2 O 0.55836(17) 0.7914(6) 0.0215(4)
O13_2 O 0.45246(16) 0.7343(6) 0.1579(3)
O14_2 O 0.56762(16) 0.7734(6) 0.2271(3)
H12_2 H 0.497315 0.516819 0.0313433
H13_2 H 0.55083 0.533519 0.111841
O7_2 O 0.04754(16) 0.7657(6) 0.8421(3)
O8_2 O 0.06762(16) 0.7266(6) 0.7271(3)
C14_2 C 0.2203(2) 0.9140(7) 0.9589(4)
C15_2 C 0.2080(2) 0.8787(7) 0.8702(4)
H8_2 H 0.2309 0.8866 0.8450
C16_2 C 0.1615(2) 0.8321(6) 0.8206(4)
H9_2 H 0.1527 0.8091 0.7608
C17_2 C 0.1271(2) 0.8185(6) 0.8584(4)
C18_2 C 0.1412(2) 0.8532(7) 0.9474(5)
H10_2 H 0.1188 0.8436 0.9737
C19_2 C 0.1873(2) 0.9011(8) 0.9970(4)
C20_2 C 0.0775(2) 0.7650(7) 0.8060(4)
O11_2 O 0.44134(18) 0.7295(7) 0.9567(3)
Nd2_2 Nd 0.997310(12) 0.33625(5) 0.40641(3)
H4_3 H 0.2973 0.0467 0.6914
H5_3 H 0.3795 0.0379 0.7896
O1_3 O 0.06044(16) 0.5202(6) 0.4366(3)
O2_3 O 0.05836(17) 0.7086(6) 0.5215(4)
O3_3 O 0.23303(15) 0.4566(5) 0.4865(3)
O4_3 O 0.23119(15) 0.8653(4) 0.6711(3)
O6_3 O 0.45626(16) 0.9394(6) 0.9059(4)
O7_3 O 0.45246(16) 0.2657(6) 0.6579(3)
O8_3 O 0.43238(16) 0.2266(6) 0.7729(3)
C1_3 C 0.0797(2) 0.6230(9) 0.4893(5)
C2_3 C 0.1344(2) 0.6404(7) 0.5192(4)
C3_3 C 0.1583(2) 0.7467(7) 0.5801(4)
H1_3 H 0.1410 0.8107 0.6010
C4_3 C 0.2081(2) 0.7566(6) 0.6093(4)
C5_3 C 0.2340(2) 0.6628(6) 0.5778(4)
H2_3 H 0.2677 0.6728 0.5958
C6_3 C 0.2092(2) 0.5551(7) 0.5195(4)
C7_3 C 0.1597(2) 0.5428(7) 0.4889(4)
H3_3 H 0.1432 0.4702 0.4483
C8_3 C 0.2805(2) 0.8494(6) 0.7232(4)
C9_3 C 0.3098(2) 0.9648(7) 0.7269(4)
C10_3 C 0.3590(2) 0.9588(7) 0.7849(5)
C11_3 C 0.3769(2) 0.8364(7) 0.8347(4)
C12_3 C 0.3466(2) 0.7196(7) 0.8287(4)
H6_3 H 0.3590 0.6365 0.8630
C13_3 C 0.2983(2) 0.7252(7) 0.7726(4)
H7_3 H 0.2778 0.6461 0.7679
C14_3 C 0.2797(2) 0.4140(7) 0.5411(4)
C15_3 C 0.2920(2) 0.3787(7) 0.6298(4)
H8_3 H 0.2691 0.3866 0.6550
C16_3 C 0.3385(2) 0.3321(6) 0.6794(4)
H9_3 H 0.3473 0.3091 0.7392
C17_3 C 0.3729(2) 0.3185(6) 0.6416(4)
C18_3 C 0.3588(2) 0.3532(7) 0.5526(5)
H10_3 H 0.3812 0.3436 0.5263
C19_3 C 0.3127(2) 0.4011(8) 0.5030(4)
H11_3 H 0.3038 0.4249 0.4433
C20_3 C 0.4225(2) 0.2650(7) 0.6940(4)
C21_3 C 0.4284(2) 0.8333(9) 0.9029(5)
O13_3 O 0.04754(16) 0.2343(6) 0.3421(3)
H12_3 H 0.0026846 0.0168188 0.468657
O9_3 O 0.9846(2) 0.0551(7) 0.4075(4)
O10_3 O 0.94164(17) 0.2914(6) 0.4785(4)
O12_3 O 0.95626(16) 0.5606(6) 0.4059(4)
O14_3 O 0.93238(16) 0.2734(6) 0.2729(3)
H13_3 H 0.94917 0.0335189 0.388159
O9_4 O 0.0154(2) 0.0551(7) 0.0925(4)
O10_4 O 0.05836(17) 0.2914(6) 0.0215(4)
O12_4 O 0.04374(16) 0.5606(6) 0.0941(4)
O14_4 O 0.06762(16) 0.2734(6) 0.2271(3)
H13_4 H 0.0508305 0.0335189 0.111841
H4_4 H 0.7027 0.0467 0.8086
H5_4 H 0.6205 0.0379 0.7104
O1_4 O 0.93956(16) 0.5202(6) 0.0634(3)
O3_4 O 0.76697(15) 0.4566(5) 0.0135(3)
C1_4 C 0.9203(2) 0.6230(9) 0.0107(5)
C7_4 C 0.8403(2) 0.5428(7) 0.0111(4)
H3_4 H 0.8568 0.4702 0.0517
H11_4 H 0.6962 0.4249 0.0567
O13_4 O 0.95246(16) 0.2343(6) 0.1579(3)
H12_4 H 0.997315 0.0168188 0.0313433
O2_4 O 0.94164(17) 0.7086(6) 0.9785(4)
O4_4 O 0.76881(15) 0.8653(4) 0.8289(3)
O6_4 O 0.54374(16) 0.9394(6) 0.5941(4)
O7_4 O 0.54754(16) 0.2657(6) 0.8421(3)
O8_4 O 0.56762(16) 0.2266(6) 0.7271(3)
C2_4 C 0.8656(2) 0.6404(7) 0.9808(4)
C3_4 C 0.8417(2) 0.7467(7) 0.9199(4)
H1_4 H 0.8590 0.8107 0.8990
C4_4 C 0.7919(2) 0.7566(6) 0.8907(4)
C5_4 C 0.7660(2) 0.6628(6) 0.9222(4)
H2_4 H 0.7323 0.6728 0.9042
C6_4 C 0.7908(2) 0.5551(7) 0.9805(4)
C8_4 C 0.7195(2) 0.8494(6) 0.7768(4)
C9_4 C 0.6902(2) 0.9648(7) 0.7731(4)
C10_4 C 0.6410(2) 0.9588(7) 0.7151(5)
C11_4 C 0.6231(2) 0.8364(7) 0.6653(4)
C12_4 C 0.6534(2) 0.7196(7) 0.6713(4)
H6_4 H 0.6410 0.6365 0.6370
C13_4 C 0.7017(2) 0.7252(7) 0.7274(4)
H7_4 H 0.7222 0.6461 0.7321
C14_4 C 0.7203(2) 0.4140(7) 0.9589(4)
C15_4 C 0.7080(2) 0.3787(7) 0.8702(4)
H8_4 H 0.7309 0.3866 0.8450
C16_4 C 0.6615(2) 0.3321(6) 0.8206(4)
H9_4 H 0.6527 0.3091 0.7608
C17_4 C 0.6271(2) 0.3185(6) 0.8584(4)
C18_4 C 0.6412(2) 0.3532(7) 0.9474(5)
H10_4 H 0.6188 0.3436 0.9737
C19_4 C 0.6873(2) 0.4011(8) 0.9970(4)
C20_4 C 0.5775(2) 0.2650(7) 0.8060(4)
C21_4 C 0.5716(2) 0.8333(9) 0.5971(5)
O3_5 O 0.26697(15) 0.0434(5) 0.5135(3)
O9_5 O 0.5154(2) 0.4449(7) 0.5925(4)
H3_5 H 0.3568 0.0298 0.5517
C14_5 C 0.2203(2) 0.0860(7) 0.4589(4)
C15_5 C 0.2080(2) 0.1213(7) 0.3702(4)
H8_5 H 0.2309 0.1134 0.3450
C16_5 C 0.1615(2) 0.1679(6) 0.3206(4)
H9_5 H 0.1527 0.1909 0.2608
C17_5 C 0.1271(2) 0.1815(6) 0.3584(4)
C18_5 C 0.1412(2) 0.1468(7) 0.4474(5)
H10_5 H 0.1188 0.1564 0.4737
C19_5 C 0.1873(2) 0.0989(8) 0.4970(4)
H11_5 H 0.1962 0.0751 0.5567
C20_5 C 0.0775(2) 0.2350(7) 0.3060(4)
O11_3 O 0.44134(18) 0.2705(7) 0.4567(3)
H12_5 H 0.497315 0.483181 0.531343
H13_5 H 0.55083 0.466481 0.611841
O1_5 O 0.43956(16) 0.9798(6) 0.5634(3)
O4_5 O 0.26881(15) 0.6347(4) 0.3289(3)
O5_3 O 0.05866(18) 0.7705(7) 0.0433(3)
C1_5 C 0.4203(2) 0.8770(9) 0.5107(5)
C2_5 C 0.3656(2) 0.8596(7) 0.4808(4)
C3_5 C 0.3417(2) 0.7533(7) 0.4199(4)
H1_5 H 0.3590 0.6893 0.3990
C4_5 C 0.2919(2) 0.7434(6) 0.3907(4)
C5_5 C 0.2660(2) 0.8372(6) 0.4222(4)
H2_5 H 0.2323 0.8272 0.4042
C6_5 C 0.2908(2) 0.9449(7) 0.4805(4)
C7_5 C 0.3403(2) 0.9572(7) 0.5111(4)
C8_5 C 0.2195(2) 0.6506(6) 0.2768(4)
C9_5 C 0.1902(2) 0.5352(7) 0.2731(4)
H4_5 H 0.2027 0.4533 0.3086
C10_5 C 0.1410(2) 0.5412(7) 0.2151(5)
H5_5 H 0.1205 0.4621 0.2104
C11_5 C 0.1231(2) 0.6636(7) 0.1653(4)
C12_5 C 0.1534(2) 0.7804(7) 0.1713(4)
H6_5 H 0.1410 0.8635 0.1370
C13_5 C 0.2017(2) 0.7748(7) 0.2274(4)
H7_5 H 0.2222 0.8539 0.2321
C21_5 C 0.0716(2) 0.6667(9) 0.0971(5)
C14_6 C 0.7797(2) 0.0860(7) 0.0411(4)
C15_6 C 0.7920(2) 0.1213(7) 0.1298(4)
H8_6 H 0.7691 0.1134 0.1550
C16_6 C 0.8385(2) 0.1679(6) 0.1794(4)
H9_6 H 0.8473 0.1909 0.2392
C17_6 C 0.8729(2) 0.1815(6) 0.1416(4)
C18_6 C 0.8588(2) 0.1468(7) 0.0526(5)
H10_6 H 0.8812 0.1564 0.0263
C19_6 C 0.8127(2) 0.0989(8) 0.0030(4)
C20_6 C 0.9225(2) 0.2350(7) 0.1940(4)
O11_4 O 0.55866(18) 0.2705(7) 0.0433(3)
O3_6 O 0.73303(15) 0.0434(5) 0.9865(3)
O9_6 O 0.4846(2) 0.4449(7) 0.9075(4)
H3_6 H 0.6432 0.0298 0.9483
H11_6 H 0.8038 0.0751 0.9433
H12_6 H 0.502685 0.483181 0.968657
H13_6 H 0.44917 0.466481 0.888159
O4_6 O 0.73119(15) 0.6347(4) 0.1711(3)
O5_4 O 0.94134(18) 0.7705(7) 0.4567(3)
C2_6 C 0.6344(2) 0.8596(7) 0.0192(4)
C3_6 C 0.6583(2) 0.7533(7) 0.0801(4)
H1_6 H 0.6410 0.6893 0.1010
C4_6 C 0.7081(2) 0.7434(6) 0.1093(4)
C5_6 C 0.7340(2) 0.8372(6) 0.0778(4)
H2_6 H 0.7677 0.8272 0.0958
C6_6 C 0.7092(2) 0.9449(7) 0.0195(4)
C8_6 C 0.7805(2) 0.6506(6) 0.2232(4)
C9_6 C 0.8098(2) 0.5352(7) 0.2269(4)
H4_6 H 0.7973 0.4533 0.1914
C10_6 C 0.8590(2) 0.5412(7) 0.2849(5)
H5_6 H 0.8795 0.4621 0.2896
C11_6 C 0.8769(2) 0.6636(7) 0.3347(4)
C12_6 C 0.8466(2) 0.7804(7) 0.3287(4)
H6_6 H 0.8590 0.8635 0.3630
C13_6 C 0.7983(2) 0.7748(7) 0.2726(4)
H7_6 H 0.7778 0.8539 0.2679
C21_6 C 0.9284(2) 0.6667(9) 0.4029(5)
O1_6 O 0.56044(16) 0.9798(6) 0.9366(3)
C1_6 C 0.5797(2) 0.8770(9) 0.9893(5)
C7_6 C 0.6597(2) 0.9572(7) 0.9889(4)
O9_7 O 0.0154(2) 0.9449(7) 0.5925(4)
H13_7 H 0.0508305 0.966481 0.611841
O1_7 O 0.93956(16) 0.4798(6) 0.5634(3)
O3_7 O 0.76697(15) 0.5434(5) 0.5135(3)
O4_7 O 0.76881(15) 0.1347(4) 0.3289(3)
C1_7 C 0.9203(2) 0.3770(9) 0.5107(5)
C2_7 C 0.8656(2) 0.3596(7) 0.4808(4)
C3_7 C 0.8417(2) 0.2533(7) 0.4199(4)
H1_7 H 0.8590 0.1893 0.3990
C4_7 C 0.7919(2) 0.2434(6) 0.3907(4)
C5_7 C 0.7660(2) 0.3372(6) 0.4222(4)
H2_7 H 0.7323 0.3272 0.4042
C6_7 C 0.7908(2) 0.4449(7) 0.4805(4)
C7_7 C 0.8403(2) 0.4572(7) 0.5111(4)
H3_7 H 0.8568 0.5298 0.5517
C8_7 C 0.7195(2) 0.1506(6) 0.2768(4)
C9_7 C 0.6902(2) 0.0352(7) 0.2731(4)
C10_7 C 0.6410(2) 0.0412(7) 0.2151(5)
C11_7 C 0.6231(2) 0.1636(7) 0.1653(4)
C12_7 C 0.6534(2) 0.2804(7) 0.1713(4)
H6_7 H 0.6410 0.3635 0.1370
C13_7 C 0.7017(2) 0.2748(7) 0.2274(4)
H7_7 H 0.7222 0.3539 0.2321
C14_7 C 0.7203(2) 0.5860(7) 0.4589(4)
C15_7 C 0.7080(2) 0.6213(7) 0.3702(4)
H8_7 H 0.7309 0.6134 0.3450
C16_7 C 0.6615(2) 0.6679(6) 0.3206(4)
H9_7 H 0.6527 0.6909 0.2608
C17_7 C 0.6271(2) 0.6815(6) 0.3584(4)
C18_7 C 0.6412(2) 0.6468(7) 0.4474(5)
H10_7 H 0.6188 0.6564 0.4737
C19_7 C 0.6873(2) 0.5989(8) 0.4970(4)
H11_7 H 0.6962 0.5751 0.5567
C20_7 C 0.5775(2) 0.7350(7) 0.3060(4)
C21_7 C 0.5716(2) 0.1667(9) 0.0971(5)
H12_7 H 0.997315 0.983181 0.531343
H4_7 H 0.7027 0.9533 0.3086
H5_7 H 0.6205 0.9621 0.2104
O4_8 O 0.23119(15) 0.1347(4) 0.1711(3)
C2_8 C 0.1344(2) 0.3596(7) 0.0192(4)
C3_8 C 0.1583(2) 0.2533(7) 0.0801(4)
H1_8 H 0.1410 0.1893 0.1010
C4_8 C 0.2081(2) 0.2434(6) 0.1093(4)
C5_8 C 0.2340(2) 0.3372(6) 0.0778(4)
H2_8 H 0.2677 0.3272 0.0958
C6_8 C 0.2092(2) 0.4449(7) 0.0195(4)
C8_8 C 0.2805(2) 0.1506(6) 0.2232(4)
C9_8 C 0.3098(2) 0.0352(7) 0.2269(4)
C10_8 C 0.3590(2) 0.0412(7) 0.2849(5)
C11_8 C 0.3769(2) 0.1636(7) 0.3347(4)
C12_8 C 0.3466(2) 0.2804(7) 0.3287(4)
H6_8 H 0.3590 0.3635 0.3630
C13_8 C 0.2983(2) 0.2748(7) 0.2726(4)
H7_8 H 0.2778 0.3539 0.2679
C14_8 C 0.2797(2) 0.5860(7) 0.0411(4)
C15_8 C 0.2920(2) 0.6213(7) 0.1298(4)
H8_8 H 0.2691 0.6134 0.1550
C16_8 C 0.3385(2) 0.6679(6) 0.1794(4)
H9_8 H 0.3473 0.6909 0.2392
C17_8 C 0.3729(2) 0.6815(6) 0.1416(4)
C18_8 C 0.3588(2) 0.6468(7) 0.0526(5)
H10_8 H 0.3812 0.6564 0.0263
C19_8 C 0.3127(2) 0.5989(8) 0.0030(4)
C20_8 C 0.4225(2) 0.7350(7) 0.1940(4)
C21_8 C 0.4284(2) 0.1667(9) 0.4029(5)
O1_8 O 0.06044(16) 0.4798(6) 0.9366(3)
O3_8 O 0.23303(15) 0.5434(5) 0.9865(3)
C1_8 C 0.0797(2) 0.3770(9) 0.9893(5)
C7_8 C 0.1597(2) 0.4572(7) 0.9889(4)
H3_8 H 0.1432 0.5298 0.9483
H11_8 H 0.3038 0.5751 0.9433
H12_8 H 0.0026846 0.983181 0.968657
H4_8 H 0.2973 0.9533 0.1914
H5_8 H 0.3795 0.9621 0.2896
O9_8 O 0.9846(2) 0.9449(7) 0.9075(4)
H13_8 H 0.94917 0.966481 0.888159
loop_
_geom_bond_atom_site_label_1
_geom_bond_atom_site_label_2
_geom_bond_site_symmetry_1
_geom_bond_site_symmetry_2
O1 C1 1_555 1_555
O2 C1 1_555 1_555
O4 C4 1_555 1_555
O5 C21 1_555 1_555
O6 C21 1_555 1_555
C1 C2 1_555 1_555
C2 C3 1_555 1_555
C3 H1 1_555 1_555
C4 C3 1_555 1_555
C5 C4 1_555 1_555
H2 C5 1_555 1_555
C6 C5 1_555 1_555
C7 C2 1_555 1_555
C8 O4 1_555 1_555
C9 C8 1_555 1_555
H4 C9 1_555 1_555
C10 C9 1_555 1_555
H5 C10 1_555 1_555
C11 C10 1_555 1_555
C12 C11 1_555 1_555
H6 C12 1_555 1_555
C13 C8 1_555 1_555
H7 C13 1_555 1_555
C21 C11 1_555 1_555
Nd3 O2 1_555 1_555
Nd6 O6 1_555 1_555
C6 C7 1_555 1_555
C12 C13 1_555 1_555
O7 C20 1_555 1_555
O8 C20 1_555 1_555
O9 Nd1 1_555 1_555
C14 O3 1_555 1_555
C15 C14 1_555 1_555
H8 C15 1_555 1_555
C16 C15 1_555 1_555
H9 C16 1_555 1_555
C17 C16 1_555 1_555
C18 C17 1_555 1_555
H10 C18 1_555 1_555
C19 C14 1_555 1_555
H11 C19 1_555 1_555
C20 C17 1_555 1_555
Nd6 O8 1_555 1_555
O10 Nd1 1_555 1_555
O11 Nd1 1_555 1_555
O13 Nd1 1_555 1_555
O14 Nd1 1_555 1_555
C18 C19 1_555 1_555
O9 H12 1_555 1_555
O9 H13 1_555 1_555
O1_2 C1_2 1_555 1_555
O4_2 C4_2 1_555 1_555
O5_2 C21_2 1_555 1_555
O6_2 C21_2 1_555 1_555
C2_2 C3_2 1_555 1_555
C3_2 H1_2 1_555 1_555
C4_2 C3_2 1_555 1_555
C5_2 C4_2 1_555 1_555
H2_2 C5_2 1_555 1_555
C6_2 C5_2 1_555 1_555
C8_2 O4_2 1_555 1_555
C9_2 C8_2 1_555 1_555
H4_2 C9_2 1_555 1_555
C10_2 C9_2 1_555 1_555
H5_2 C10_2 1_555 1_555
C11_2 C10_2 1_555 1_555
C12_2 C11_2 1_555 1_555
H6_2 C12_2 1_555 1_555
C13_2 C8_2 1_555 1_555
H7_2 C13_2 1_555 1_555
C21_2 C11_2 1_555 1_555
Nd3_2 O2_2 1_555 1_555
Nd4 O6_2 1_555 1_555
C12_2 C13_2 1_555 1_555
O9_2 Nd1_2 1_555 1_555
O10_2 Nd1_2 1_555 1_555
O13_2 Nd1_2 1_555 1_555
O14_2 Nd1_2 1_555 1_555
O9_2 H12_2 1_555 1_555
O9_2 H13_2 1_555 1_555
O7_2 C20_2 1_555 1_555
O8_2 C20_2 1_555 1_555
C15_2 C14_2 1_555 1_555
H8_2 C15_2 1_555 1_555
C16_2 C15_2 1_555 1_555
H9_2 C16_2 1_555 1_555
C17_2 C16_2 1_555 1_555
C18_2 C17_2 1_555 1_555
H10_2 C18_2 1_555 1_555
C19_2 C14_2 1_555 1_555
C20_2 C17_2 1_555 1_555
Nd4 O8_2 1_555 1_555
C18_2 C19_2 1_555 1_555
O1_3 C1_3 1_555 1_555
O2_3 C1_3 1_555 1_555
O3_3 C6_3 1_555 1_555
O4_3 C4_3 1_555 1_555
O11_2 C21_3 1_555 1_555
O6_3 C21_3 1_555 1_555
O7_3 C20_3 1_555 1_555
O8_3 C20_3 1_555 1_555
C1_3 C2_3 1_555 1_555
C2_3 C3_3 1_555 1_555
C3_3 H1_3 1_555 1_555
C4_3 C3_3 1_555 1_555
C5_3 C4_3 1_555 1_555
H2_3 C5_3 1_555 1_555
C6_3 C5_3 1_555 1_555
C7_3 C2_3 1_555 1_555
H3_3 C7_3 1_555 1_555
C8_3 O4_3 1_555 1_555
C9_3 C8_3 1_555 1_555
C10_3 C9_3 1_555 1_555
C11_3 C10_3 1_555 1_555
C12_3 C11_3 1_555 1_555
H6_3 C12_3 1_555 1_555
C13_3 C8_3 1_555 1_555
H7_3 C13_3 1_555 1_555
C14_3 O3_3 1_555 1_555
C15_3 C14_3 1_555 1_555
H8_3 C15_3 1_555 1_555
C16_3 C15_3 1_555 1_555
H9_3 C16_3 1_555 1_555
C17_3 C16_3 1_555 1_555
C18_3 C17_3 1_555 1_555
H10_3 C18_3 1_555 1_555
C19_3 C14_3 1_555 1_555
H11_3 C19_3 1_555 1_555
C20_3 C17_3 1_555 1_555
C21_3 C11_3 1_555 1_555
Nd4 O2_3 1_555 1_555
Nd3 O7_3 1_555 1_555
Nd3_2 O8_3 1_555 1_555
C6_3 C7_3 1_555 1_555
C12_3 C13_3 1_555 1_555
C18_3 C19_3 1_555 1_555
O9_3 Nd2_2 1_555 1_555
O10_3 Nd2_2 1_555 1_555
O12_3 Nd2_2 1_555 1_555
O14_3 Nd2_2 1_555 1_555
O9_3 H13_3 1_555 1_555
O9_4 Nd2 1_555 1_555
O10_4 Nd2 1_555 1_555
O12_4 Nd2 1_555 1_555
O14_4 Nd2 1_555 1_555
O9_4 H13_4 1_555 1_555
O1_4 C1_4 1_555 1_555
H3_4 C7_4 1_555 1_555
O4_4 C4_4 1_555 1_555
O11 C21_4 1_555 1_555
O6_4 C21_4 1_555 1_555
O7_4 C20_4 1_555 1_555
O8_4 C20_4 1_555 1_555
C2_4 C3_4 1_555 1_555
C3_4 H1_4 1_555 1_555
C4_4 C3_4 1_555 1_555
C5_4 C4_4 1_555 1_555
H2_4 C5_4 1_555 1_555
C6_4 C5_4 1_555 1_555
C8_4 O4_4 1_555 1_555
C9_4 C8_4 1_555 1_555
C10_4 C9_4 1_555 1_555
C11_4 C10_4 1_555 1_555
C12_4 C11_4 1_555 1_555
H6_4 C12_4 1_555 1_555
C13_4 C8_4 1_555 1_555
H7_4 C13_4 1_555 1_555
C15_4 C14_4 1_555 1_555
H8_4 C15_4 1_555 1_555
C16_4 C15_4 1_555 1_555
H9_4 C16_4 1_555 1_555
C17_4 C16_4 1_555 1_555
C18_4 C17_4 1_555 1_555
H10_4 C18_4 1_555 1_555
C19_4 C14_4 1_555 1_555
C20_4 C17_4 1_555 1_555
C21_4 C11_4 1_555 1_555
Nd6 O2_4 1_555 1_555
Nd3_2 O7_4 1_555 1_555
Nd3 O8_4 1_555 1_555
C12_4 C13_4 1_555 1_555
C18_4 C19_4 1_555 1_555
O13_3 C20_5 1_555 1_555
O14_4 C20_5 1_555 1_555
O9_5 Nd3 1_555 1_555
C14_5 O3_5 1_555 1_555
C15_5 C14_5 1_555 1_555
H8_5 C15_5 1_555 1_555
C16_5 C15_5 1_555 1_555
H9_5 C16_5 1_555 1_555
C17_5 C16_5 1_555 1_555
C18_5 C17_5 1_555 1_555
H10_5 C18_5 1_555 1_555
C19_5 C14_5 1_555 1_555
H11_5 C19_5 1_555 1_555
C20_5 C17_5 1_555 1_555
O11_3 Nd3 1_555 1_555
C18_5 C19_5 1_555 1_555
O9_5 H12_5 1_555 1_555
O9_5 H13_5 1_555 1_555
O1_5 C1_5 1_555 1_555
O10 C1_5 1_555 1_555
O4_5 C4_5 1_555 1_555
O5_3 C21_5 1_555 1_555
O12_4 C21_5 1_555 1_555
C1_5 C2_5 1_555 1_555
C2_5 C3_5 1_555 1_555
C3_5 H1_5 1_555 1_555
C4_5 C3_5 1_555 1_555
C5_5 C4_5 1_555 1_555
H2_5 C5_5 1_555 1_555
C6_5 C5_5 1_555 1_555
C7_5 C2_5 1_555 1_555
C8_5 O4_5 1_555 1_555
C9_5 C8_5 1_555 1_555
H4_5 C9_5 1_555 1_555
C10_5 C9_5 1_555 1_555
H5_5 C10_5 1_555 1_555
C11_5 C10_5 1_555 1_555
C12_5 C11_5 1_555 1_555
H6_5 C12_5 1_555 1_555
C13_5 C8_5 1_555 1_555
H7_5 C13_5 1_555 1_555
C21_5 C11_5 1_555 1_555
C6_5 C7_5 1_555 1_555
C12_5 C13_5 1_555 1_555
O13_4 C20_6 1_555 1_555
O14_3 C20_6 1_555 1_555
C15_6 C14_6 1_555 1_555
H8_6 C15_6 1_555 1_555
C16_6 C15_6 1_555 1_555
H9_6 C16_6 1_555 1_555
C17_6 C16_6 1_555 1_555
C18_6 C17_6 1_555 1_555
H10_6 C18_6 1_555 1_555
C19_6 C14_6 1_555 1_555
C20_6 C17_6 1_555 1_555
C18_6 C19_6 1_555 1_555
O9_6 Nd3_2 1_555 1_555
O9_6 H12_6 1_555 1_555
O9_6 H13_6 1_555 1_555
O4_6 C4_6 1_555 1_555
O5_4 C21_6 1_555 1_555
O12_3 C21_6 1_555 1_555
C2_6 C3_6 1_555 1_555
C3_6 H1_6 1_555 1_555
C4_6 C3_6 1_555 1_555
C5_6 C4_6 1_555 1_555
H2_6 C5_6 1_555 1_555
C6_6 C5_6 1_555 1_555
C8_6 O4_6 1_555 1_555
C9_6 C8_6 1_555 1_555
H4_6 C9_6 1_555 1_555
C10_6 C9_6 1_555 1_555
H5_6 C10_6 1_555 1_555
C11_6 C10_6 1_555 1_555
C12_6 C11_6 1_555 1_555
H6_6 C12_6 1_555 1_555
C13_6 C8_6 1_555 1_555
H7_6 C13_6 1_555 1_555
C21_6 C11_6 1_555 1_555
C12_6 C13_6 1_555 1_555
O1_6 C1_6 1_555 1_555
O9_7 Nd4 1_555 1_555
O9_7 H13_7 1_555 1_555
O1_7 C1_7 1_555 1_555
O10_3 C1_7 1_555 1_555
O3_7 C6_7 1_555 1_555
O4_7 C4_7 1_555 1_555
O11_4 C21_7 1_555 1_555
O12_2 C21_7 1_555 1_555
O13 C20_7 1_555 1_555
O14_2 C20_7 1_555 1_555
C1_7 C2_7 1_555 1_555
C2_7 C3_7 1_555 1_555
C3_7 H1_7 1_555 1_555
C4_7 C3_7 1_555 1_555
C5_7 C4_7 1_555 1_555
H2_7 C5_7 1_555 1_555
C6_7 C5_7 1_555 1_555
C7_7 C2_7 1_555 1_555
H3_7 C7_7 1_555 1_555
C8_7 O4_7 1_555 1_555
C9_7 C8_7 1_555 1_555
C10_7 C9_7 1_555 1_555
C11_7 C10_7 1_555 1_555
C12_7 C11_7 1_555 1_555
H6_7 C12_7 1_555 1_555
C13_7 C8_7 1_555 1_555
H7_7 C13_7 1_555 1_555
C14_7 O3_7 1_555 1_555
C15_7 C14_7 1_555 1_555
H8_7 C15_7 1_555 1_555
C16_7 C15_7 1_555 1_555
H9_7 C16_7 1_555 1_555
C17_7 C16_7 1_555 1_555
C18_7 C17_7 1_555 1_555
H10_7 C18_7 1_555 1_555
C19_7 C14_7 1_555 1_555
H11_7 C19_7 1_555 1_555
C20_7 C17_7 1_555 1_555
C21_7 C11_7 1_555 1_555
C6_7 C7_7 1_555 1_555
C12_7 C13_7 1_555 1_555
C18_7 C19_7 1_555 1_555
O4_8 C4_8 1_555 1_555
O11_3 C21_8 1_555 1_555
O12 C21_8 1_555 1_555
O13_2 C20_8 1_555 1_555
O14 C20_8 1_555 1_555
C2_8 C3_8 1_555 1_555
C3_8 H1_8 1_555 1_555
C4_8 C3_8 1_555 1_555
C5_8 C4_8 1_555 1_555
H2_8 C5_8 1_555 1_555
C6_8 C5_8 1_555 1_555
C8_8 O4_8 1_555 1_555
C9_8 C8_8 1_555 1_555
C10_8 C9_8 1_555 1_555
C11_8 C10_8 1_555 1_555
C12_8 C11_8 1_555 1_555
H6_8 C12_8 1_555 1_555
C13_8 C8_8 1_555 1_555
H7_8 C13_8 1_555 1_555
C15_8 C14_8 1_555 1_555
H8_8 C15_8 1_555 1_555
C16_8 C15_8 1_555 1_555
H9_8 C16_8 1_555 1_555
C17_8 C16_8 1_555 1_555
C18_8 C17_8 1_555 1_555
H10_8 C18_8 1_555 1_555
C19_8 C14_8 1_555 1_555
C20_8 C17_8 1_555 1_555
C21_8 C11_8 1_555 1_555
C12_8 C13_8 1_555 1_555
C18_8 C19_8 1_555 1_555
O1_8 C1_8 1_555 1_555
H3_8 C7_8 1_555 1_555
O9_8 Nd6 1_555 1_555
O9_8 H13_8 1_555 1_555

#END
