
###############################################################################
#
# This file contains modified crystal structure data generated from the
# MOF subset of the Cambridge Structural Database (CSD) v543 
# hosted by the Cambridge Crystallographic Data Centre (CCDC).
#
# This work is licensed under the Creative Commons
# Attribution-NonCommercial-ShareAlike 4.0 International License.
# To view a copy of this license, visit
# http://creativecommons.org/licenses/by-nc-sa/4.0/
# or send a letter to
# Creative Commons, PO Box 1866, Mountain View, CA 94042, USA.
#
# CIF created using the CSD Python API on 29 September 2022
# The structure has been converted into the P1 space group
# The structure has a 3D framework
# The original CSD entry LIXCUS is in the monoclinic crystal system
# The framework has been calculated to contain at least 10.0% void space
# The void calculation uses a probe of radius 1.32A, grid spacing 0.4
# H atom positions have been added when not included in the experimental data
#
###############################################################################

data_LIXCUS
_chemical_formula_moiety         '(C168 H104 O68 Sm8)n'
_symmetry_cell_setting           triclinic
_symmetry_space_group_name_H-M   'P 1'
_symmetry_Int_Tables_number      1
_space_group_name_Hall           'P 1'
loop_
_symmetry_equiv_pos_site_id
_symmetry_equiv_pos_as_xyz
1 x,y,z
_cell_length_a                   29.862(6)
_cell_length_b                   9.2002(18)
_cell_length_c                   16.406(3)
_cell_angle_alpha                90
_cell_angle_beta                 112.94(3)
_cell_angle_gamma                90
_cell_volume                     4150.86
loop_
_atom_site_label
_atom_site_type_symbol
_atom_site_fract_x
_atom_site_fract_y
_atom_site_fract_z
O14 O 0.04297(19) 0.0584(7) 0.0962(5)
Sm1 Sm 0.002621(12) 0.83524(5) 0.09201(3)
O9 O 0.0155(3) 0.5583(9) 0.0924(4)
O10 O 0.05852(19) 0.7948(7) 0.0225(4)
O12 O 0.06582(19) 0.7767(7) 0.2252(3)
H13 H 0.0507653 0.537103 0.112142
O2 O 0.94148(19) 0.2052(7) 0.9775(4)
O4 O 0.76893(17) 0.3663(5) 0.8293(4)
O7 O 0.5571(2) 0.2340(8) 0.5439(4)
O8 O 0.54297(19) 0.4416(7) 0.5962(5)
C3 C 0.8660(3) 0.1379(8) 0.9811(5)
C4 C 0.8413(2) 0.2460(8) 0.9195(4)
H2 H 0.8584 0.3106 0.8988
C5 C 0.7915(2) 0.2552(7) 0.8902(4)
C6 C 0.7656(3) 0.1628(7) 0.9215(5)
H3 H 0.7322 0.1734 0.9040
C7 C 0.7904(2) 0.0543(7) 0.9794(4)
C15 C 0.7189(3) 0.3495(7) 0.7768(5)
C16 C 0.7015(3) 0.2256(8) 0.7251(5)
H8 H 0.7221 0.1487 0.7271
C17 C 0.6530(3) 0.2205(9) 0.6715(5)
H9 H 0.6403 0.1367 0.6390
C18 C 0.6227(3) 0.3369(8) 0.6648(5)
C19 C 0.6407(2) 0.4613(9) 0.7175(5)
H10 H 0.6203 0.5392 0.7144
C20 C 0.6898(2) 0.4660(8) 0.7743(5)
H11 H 0.7024 0.5468 0.8100
C21 C 0.5700(3) 0.3347(10) 0.5976(6)
Sm2 Sm 0.497379(12) 0.33524(5) 0.40799(3)
Sm3 Sm 0.997379(12) 0.16476(5) 0.90799(3)
Sm6 Sm 0.502621(12) 0.66476(5) 0.59201(3)
O3 O 0.76586(16) 0.9557(6) 0.0124(3)
H1 H 0.8555 0.9676 0.0489
H7 H 0.6948 0.9236 0.0558
O11 O 0.95345(18) 0.7388(7) 0.1576(3)
H12 H 0.997995 0.519494 0.0317222
O5 O 0.54655(18) 0.7612(7) 0.8424(3)
O6 O 0.56582(19) 0.7233(7) 0.7252(3)
C8 C 0.7195(2) 0.9137(8) 0.9578(4)
C9 C 0.7069(3) 0.8793(9) 0.8688(5)
H4 H 0.7296 0.8886 0.8433
C10 C 0.6600(3) 0.8310(7) 0.8184(5)
H5 H 0.6515 0.8079 0.7590
C11 C 0.6254(3) 0.8170(7) 0.8572(5)
C12 C 0.6394(3) 0.8512(8) 0.9462(5)
H6 H 0.6171 0.8413 0.9727
C13 C 0.6861(3) 0.9001(9) 0.9965(5)
C14 C 0.5761(2) 0.7624(8) 0.8055(5)
Sm4 Sm 0.497379(12) 0.66476(5) 0.90799(3)
O13 O 0.9429(2) 0.7340(8) 0.9561(4)
Sm2_2 Sm 0.502621(12) 0.33524(5) 0.09201(3)
O1 O 0.06108(19) 0.0137(7) 0.4401(4)
O2_2 O 0.05852(19) 0.2052(7) 0.5225(4)
O4_2 O 0.23107(17) 0.3663(5) 0.6707(4)
O7_2 O 0.4429(2) 0.2340(8) 0.9561(4)
O8_2 O 0.45703(19) 0.4416(7) 0.9038(5)
C1 C 0.0803(3) 0.1169(10) 0.4918(5)
C2 C 0.1604(2) 0.0413(8) 0.4906(4)
C3_2 C 0.1340(3) 0.1379(8) 0.5189(5)
C4_2 C 0.1587(2) 0.2460(8) 0.5805(4)
H2_2 H 0.1416 0.3106 0.6012
C5_2 C 0.2085(2) 0.2552(7) 0.6098(4)
C6_2 C 0.2344(3) 0.1628(7) 0.5785(5)
H3_2 H 0.2678 0.1734 0.5960
C7_2 C 0.2096(2) 0.0543(7) 0.5206(4)
C15_2 C 0.2811(3) 0.3495(7) 0.7232(5)
C16_2 C 0.2985(3) 0.2256(8) 0.7749(5)
H8_2 H 0.2779 0.1487 0.7729
C17_2 C 0.3470(3) 0.2205(9) 0.8285(5)
H9_2 H 0.3597 0.1367 0.8610
C18_2 C 0.3773(3) 0.3369(8) 0.8352(5)
C19_2 C 0.3593(2) 0.4613(9) 0.7825(5)
H10_2 H 0.3797 0.5392 0.7856
C20_2 C 0.3102(2) 0.4660(8) 0.7257(5)
H11_2 H 0.2976 0.5468 0.6900
C21_2 C 0.4300(3) 0.3347(10) 0.9024(6)
Sm3_2 Sm 0.002621(12) 0.16476(5) 0.59201(3)
O3_2 O 0.23414(16) 0.9557(6) 0.4876(3)
O5_2 O 0.45345(18) 0.7612(7) 0.6576(3)
O6_2 O 0.43418(19) 0.7233(7) 0.7748(3)
H1_2 H 0.1445 0.9676 0.4511
C8_2 C 0.2805(2) 0.9137(8) 0.5422(4)
C9_2 C 0.2931(3) 0.8793(9) 0.6312(5)
H4_2 H 0.2704 0.8886 0.6567
C10_2 C 0.3400(3) 0.8310(7) 0.6816(5)
H5_2 H 0.3485 0.8079 0.7410
C11_2 C 0.3746(3) 0.8170(7) 0.6428(5)
C12_2 C 0.3606(3) 0.8512(8) 0.5538(5)
H6_2 H 0.3829 0.8413 0.5273
C13_2 C 0.3139(3) 0.9001(9) 0.5035(5)
H7_2 H 0.3052 0.9236 0.4442
C14_2 C 0.4239(2) 0.7624(8) 0.6945(5)
O11_2 O 0.04655(18) 0.7388(7) 0.3424(3)
O13_2 O 0.0571(2) 0.7340(8) 0.5439(4)
H12_2 H 0.00200468 0.519494 0.468278
O14_2 O 0.95703(19) 0.0584(7) 0.4038(5)
Sm1_2 Sm 0.997379(12) 0.83524(5) 0.40799(3)
O9_2 O 0.9845(3) 0.5583(9) 0.4076(4)
O10_2 O 0.94148(19) 0.7948(7) 0.4775(4)
O12_2 O 0.93418(19) 0.7767(7) 0.2748(3)
H13_2 H 0.949235 0.537103 0.387858
H10_3 H 0.1203 0.0392 0.7144
H11_3 H 0.2024 0.0468 0.8100
O1_2 O 0.43892(19) 0.5137(7) 0.0599(4)
O3_3 O 0.26586(16) 0.4557(6) 0.0124(3)
O9_3 O 0.5155(3) 0.0583(9) 0.0924(4)
C1_2 C 0.4197(3) 0.6169(10) 0.0082(5)
C2_2 C 0.3396(2) 0.5413(8) 0.0094(4)
H1_3 H 0.3555 0.4676 0.0489
H7_3 H 0.1948 0.4236 0.0558
O10_3 O 0.55852(19) 0.2948(7) 0.0225(4)
O11_3 O 0.45345(18) 0.2388(7) 0.1576(3)
O12_3 O 0.56582(19) 0.2767(7) 0.2252(3)
O14_3 O 0.54297(19) 0.5584(7) 0.0962(5)
H12_3 H 0.497995 0.0194937 0.0317222
H13_3 H 0.550765 0.037103 0.112142
O2_3 O 0.44148(19) 0.7052(7) 0.9775(4)
O4_3 O 0.26893(17) 0.8663(5) 0.8293(4)
O5_3 O 0.04655(18) 0.2612(7) 0.8424(3)
O6_3 O 0.06582(19) 0.2233(7) 0.7252(3)
O8_3 O 0.04297(19) 0.9416(7) 0.5962(5)
C3_3 C 0.3660(3) 0.6379(8) 0.9811(5)
C4_3 C 0.3413(2) 0.7460(8) 0.9195(4)
H2_3 H 0.3584 0.8106 0.8988
C5_3 C 0.2915(2) 0.7552(7) 0.8902(4)
C6_3 C 0.2656(3) 0.6628(7) 0.9215(5)
H3_3 H 0.2322 0.6734 0.9040
C7_3 C 0.2904(2) 0.5543(7) 0.9794(4)
C8_3 C 0.2195(2) 0.4137(8) 0.9578(4)
C9_3 C 0.2069(3) 0.3793(9) 0.8688(5)
H4_3 H 0.2296 0.3886 0.8433
C10_3 C 0.1600(3) 0.3310(7) 0.8184(5)
H5_3 H 0.1515 0.3079 0.7590
C11_3 C 0.1254(3) 0.3170(7) 0.8572(5)
C12_3 C 0.1394(3) 0.3512(8) 0.9462(5)
H6_3 H 0.1171 0.3413 0.9727
C13_3 C 0.1861(3) 0.4001(9) 0.9965(5)
C14_3 C 0.0761(2) 0.2624(8) 0.8055(5)
C15_3 C 0.2189(3) 0.8495(7) 0.7768(5)
C16_3 C 0.2015(3) 0.7256(8) 0.7251(5)
H8_3 H 0.2221 0.6487 0.7271
C17_3 C 0.1530(3) 0.7205(9) 0.6715(5)
H9_3 H 0.1403 0.6367 0.6390
C18_3 C 0.1227(3) 0.8369(8) 0.6648(5)
C19_3 C 0.1407(2) 0.9613(9) 0.7175(5)
C20_3 C 0.1898(2) 0.9660(8) 0.7743(5)
C21_3 C 0.0700(3) 0.8347(10) 0.5976(6)
H10_4 H 0.8797 0.0392 0.7856
H11_4 H 0.7976 0.0468 0.6900
O1_3 O 0.56108(19) 0.5137(7) 0.4401(4)
O2_4 O 0.55852(19) 0.7052(7) 0.5225(4)
O3_4 O 0.73414(16) 0.4557(6) 0.4876(3)
O4_4 O 0.73107(17) 0.8663(5) 0.6707(4)
O5_4 O 0.95345(18) 0.2612(7) 0.6576(3)
O6_4 O 0.93418(19) 0.2233(7) 0.7748(3)
O8_4 O 0.95703(19) 0.9416(7) 0.9038(5)
O9_4 O 0.4845(3) 0.0583(9) 0.4076(4)
C1_3 C 0.5803(3) 0.6169(10) 0.4918(5)
C2_3 C 0.6604(2) 0.5413(8) 0.4906(4)
H1_4 H 0.6445 0.4676 0.4511
C3_4 C 0.6340(3) 0.6379(8) 0.5189(5)
C4_4 C 0.6587(2) 0.7460(8) 0.5805(4)
H2_4 H 0.6416 0.8106 0.6012
C5_4 C 0.7085(2) 0.7552(7) 0.6098(4)
C6_4 C 0.7344(3) 0.6628(7) 0.5785(5)
H3_4 H 0.7678 0.6734 0.5960
C7_4 C 0.7096(2) 0.5543(7) 0.5206(4)
C8_4 C 0.7805(2) 0.4137(8) 0.5422(4)
C9_4 C 0.7931(3) 0.3793(9) 0.6312(5)
H4_4 H 0.7704 0.3886 0.6567
C10_4 C 0.8400(3) 0.3310(7) 0.6816(5)
H5_4 H 0.8485 0.3079 0.7410
C11_4 C 0.8746(3) 0.3170(7) 0.6428(5)
C12_4 C 0.8606(3) 0.3512(8) 0.5538(5)
H6_4 H 0.8829 0.3413 0.5273
C13_4 C 0.8139(3) 0.4001(9) 0.5035(5)
H7_4 H 0.8052 0.4236 0.4442
C14_4 C 0.9239(2) 0.2624(8) 0.6945(5)
C15_4 C 0.7811(3) 0.8495(7) 0.7232(5)
C16_4 C 0.7985(3) 0.7256(8) 0.7749(5)
H8_4 H 0.7779 0.6487 0.7729
C17_4 C 0.8470(3) 0.7205(9) 0.8285(5)
H9_4 H 0.8597 0.6367 0.8610
C18_4 C 0.8773(3) 0.8369(8) 0.8352(5)
C19_4 C 0.8593(2) 0.9613(9) 0.7825(5)
C20_4 C 0.8102(2) 0.9660(8) 0.7257(5)
C21_4 C 0.9300(3) 0.8347(10) 0.9024(6)
O10_4 O 0.44148(19) 0.2948(7) 0.4775(4)
O11_4 O 0.54655(18) 0.2388(7) 0.3424(3)
O12_4 O 0.43418(19) 0.2767(7) 0.2748(3)
O14_4 O 0.45703(19) 0.5584(7) 0.4038(5)
H12_4 H 0.502005 0.0194937 0.468278
H13_4 H 0.449235 0.037103 0.387858
C8_5 C 0.2805(2) 0.0863(8) 0.0422(4)
C9_5 C 0.2931(3) 0.1207(9) 0.1312(5)
H4_5 H 0.2704 0.1114 0.1567
C10_5 C 0.3400(3) 0.1690(7) 0.1816(5)
H5_5 H 0.3485 0.1921 0.2410
C11_5 C 0.3746(3) 0.1830(7) 0.1428(5)
C12_5 C 0.3606(3) 0.1488(8) 0.0538(5)
H6_5 H 0.3829 0.1587 0.0273
C13_5 C 0.3139(3) 0.0999(9) 0.0035(5)
C14_5 C 0.4239(2) 0.2376(8) 0.1945(5)
O13_3 O 0.0571(2) 0.2660(8) 0.0439(4)
O3_5 O 0.23414(16) 0.0443(6) 0.9876(3)
H1_5 H 0.1445 0.0324 0.9511
H7_5 H 0.3052 0.0764 0.9442
H12_5 H 0.00200468 0.480506 0.968278
O4_5 O 0.23107(17) 0.6337(5) 0.1707(4)
O7_3 O 0.4429(2) 0.7660(8) 0.4561(4)
C3_5 C 0.1340(3) 0.8621(8) 0.0189(5)
C4_5 C 0.1587(2) 0.7540(8) 0.0805(4)
H2_5 H 0.1416 0.6894 0.1012
C5_5 C 0.2085(2) 0.7448(7) 0.1098(4)
C6_5 C 0.2344(3) 0.8372(7) 0.0785(5)
H3_5 H 0.2678 0.8266 0.0960
C7_5 C 0.2096(2) 0.9457(7) 0.0206(4)
C15_5 C 0.2811(3) 0.6505(7) 0.2232(5)
C16_5 C 0.2985(3) 0.7744(8) 0.2749(5)
H8_5 H 0.2779 0.8513 0.2729
C17_5 C 0.3470(3) 0.7795(9) 0.3285(5)
H9_5 H 0.3597 0.8633 0.3610
C18_5 C 0.3773(3) 0.6631(8) 0.3352(5)
C19_5 C 0.3593(2) 0.5387(9) 0.2825(5)
H10_5 H 0.3797 0.4608 0.2856
C20_5 C 0.3102(2) 0.5340(8) 0.2257(5)
H11_5 H 0.2976 0.4532 0.1900
C21_5 C 0.4300(3) 0.6653(10) 0.4024(6)
O9_5 O 0.9845(3) 0.4417(9) 0.9076(4)
H13_5 H 0.949235 0.462897 0.887858
O9_6 O 0.0155(3) 0.4417(9) 0.5924(4)
H13_6 H 0.0507653 0.462897 0.612142
O3_6 O 0.76586(16) 0.0443(6) 0.5124(3)
H1_6 H 0.8555 0.0324 0.5489
C8_6 C 0.7195(2) 0.0863(8) 0.4578(4)
C9_6 C 0.7069(3) 0.1207(9) 0.3688(5)
H4_6 H 0.7296 0.1114 0.3433
C10_6 C 0.6600(3) 0.1690(7) 0.3184(5)
H5_6 H 0.6515 0.1921 0.2590
C11_6 C 0.6254(3) 0.1830(7) 0.3572(5)
C12_6 C 0.6394(3) 0.1488(8) 0.4462(5)
H6_6 H 0.6171 0.1587 0.4727
C13_6 C 0.6861(3) 0.0999(9) 0.4965(5)
H7_6 H 0.6948 0.0764 0.5558
C14_6 C 0.5761(2) 0.2376(8) 0.3055(5)
O13_4 O 0.9429(2) 0.2660(8) 0.4561(4)
H12_6 H 0.997995 0.480506 0.531722
O1_4 O 0.93892(19) 0.9863(7) 0.5599(4)
O4_6 O 0.76893(17) 0.6337(5) 0.3293(4)
O7_4 O 0.5571(2) 0.7660(8) 0.0439(4)
C1_4 C 0.9197(3) 0.8831(10) 0.5082(5)
C2_4 C 0.8396(2) 0.9587(8) 0.5094(4)
C3_6 C 0.8660(3) 0.8621(8) 0.4811(5)
C4_6 C 0.8413(2) 0.7540(8) 0.4195(4)
H2_6 H 0.8584 0.6894 0.3988
C5_6 C 0.7915(2) 0.7448(7) 0.3902(4)
C6_6 C 0.7656(3) 0.8372(7) 0.4215(5)
H3_6 H 0.7322 0.8266 0.4040
C7_6 C 0.7904(2) 0.9457(7) 0.4794(4)
C15_6 C 0.7189(3) 0.6505(7) 0.2768(5)
C16_6 C 0.7015(3) 0.7744(8) 0.2251(5)
H8_6 H 0.7221 0.8513 0.2271
C17_6 C 0.6530(3) 0.7795(9) 0.1715(5)
H9_6 H 0.6403 0.8633 0.1390
C18_6 C 0.6227(3) 0.6631(8) 0.1648(5)
C19_6 C 0.6407(2) 0.5387(9) 0.2175(5)
H10_6 H 0.6203 0.4608 0.2144
C20_6 C 0.6898(2) 0.5340(8) 0.2743(5)
H11_6 H 0.7024 0.4532 0.3100
C21_6 C 0.5700(3) 0.6653(10) 0.0976(6)
O4_7 O 0.73107(17) 0.1337(5) 0.1707(4)
C3_7 C 0.6340(3) 0.3621(8) 0.0189(5)
C4_7 C 0.6587(2) 0.2540(8) 0.0805(4)
H2_7 H 0.6416 0.1894 0.1012
C5_7 C 0.7085(2) 0.2448(7) 0.1098(4)
C6_7 C 0.7344(3) 0.3372(7) 0.0785(5)
H3_7 H 0.7678 0.3266 0.0960
C7_7 C 0.7096(2) 0.4457(7) 0.0206(4)
C8_7 C 0.7805(2) 0.5863(8) 0.0422(4)
C9_7 C 0.7931(3) 0.6207(9) 0.1312(5)
H4_7 H 0.7704 0.6114 0.1567
C10_7 C 0.8400(3) 0.6690(7) 0.1816(5)
H5_7 H 0.8485 0.6921 0.2410
C11_7 C 0.8746(3) 0.6830(7) 0.1428(5)
C12_7 C 0.8606(3) 0.6488(8) 0.0538(5)
H6_7 H 0.8829 0.6587 0.0273
C13_7 C 0.8139(3) 0.5999(9) 0.0035(5)
C14_7 C 0.9239(2) 0.7376(8) 0.1945(5)
C15_7 C 0.7811(3) 0.1505(7) 0.2232(5)
C16_7 C 0.7985(3) 0.2744(8) 0.2749(5)
H8_7 H 0.7779 0.3513 0.2729
C17_7 C 0.8470(3) 0.2795(9) 0.3285(5)
H9_7 H 0.8597 0.3633 0.3610
C18_7 C 0.8773(3) 0.1631(8) 0.3352(5)
C19_7 C 0.8593(2) 0.0387(9) 0.2825(5)
C20_7 C 0.8102(2) 0.0340(8) 0.2257(5)
C21_7 C 0.9300(3) 0.1653(10) 0.4024(6)
O1_5 O 0.56108(19) 0.4863(7) 0.9401(4)
O3_7 O 0.73414(16) 0.5443(6) 0.9876(3)
O9_7 O 0.4845(3) 0.9417(9) 0.9076(4)
C1_5 C 0.5803(3) 0.3831(10) 0.9918(5)
C2_5 C 0.6604(2) 0.4587(8) 0.9906(4)
H1_7 H 0.6445 0.5324 0.9511
H7_7 H 0.8052 0.5764 0.9442
H12_7 H 0.502005 0.980506 0.968278
H13_7 H 0.449235 0.962897 0.887858
H10_7 H 0.8797 0.9608 0.2856
H11_7 H 0.7976 0.9532 0.1900
O1_6 O 0.43892(19) 0.4863(7) 0.5599(4)
O3_8 O 0.26586(16) 0.5443(6) 0.5124(3)
O4_8 O 0.26893(17) 0.1337(5) 0.3293(4)
O9_8 O 0.5155(3) 0.9417(9) 0.5924(4)
C1_6 C 0.4197(3) 0.3831(10) 0.5082(5)
C2_6 C 0.3396(2) 0.4587(8) 0.5094(4)
H1_8 H 0.3555 0.5324 0.5489
C3_8 C 0.3660(3) 0.3621(8) 0.4811(5)
C4_8 C 0.3413(2) 0.2540(8) 0.4195(4)
H2_8 H 0.3584 0.1894 0.3988
C5_8 C 0.2915(2) 0.2448(7) 0.3902(4)
C6_8 C 0.2656(3) 0.3372(7) 0.4215(5)
H3_8 H 0.2322 0.3266 0.4040
C7_8 C 0.2904(2) 0.4457(7) 0.4794(4)
C8_8 C 0.2195(2) 0.5863(8) 0.4578(4)
C9_8 C 0.2069(3) 0.6207(9) 0.3688(5)
H4_8 H 0.2296 0.6114 0.3433
C10_8 C 0.1600(3) 0.6690(7) 0.3184(5)
H5_8 H 0.1515 0.6921 0.2590
C11_8 C 0.1254(3) 0.6830(7) 0.3572(5)
C12_8 C 0.1394(3) 0.6488(8) 0.4462(5)
H6_8 H 0.1171 0.6587 0.4727
C13_8 C 0.1861(3) 0.5999(9) 0.4965(5)
H7_8 H 0.1948 0.5764 0.5558
C14_8 C 0.0761(2) 0.7376(8) 0.3055(5)
C15_8 C 0.2189(3) 0.1505(7) 0.2768(5)
C16_8 C 0.2015(3) 0.2744(8) 0.2251(5)
H8_8 H 0.2221 0.3513 0.2271
C17_8 C 0.1530(3) 0.2795(9) 0.1715(5)
H9_8 H 0.1403 0.3633 0.1390
C18_8 C 0.1227(3) 0.1631(8) 0.1648(5)
C19_8 C 0.1407(2) 0.0387(9) 0.2175(5)
C20_8 C 0.1898(2) 0.0340(8) 0.2743(5)
C21_8 C 0.0700(3) 0.1653(10) 0.0976(6)
H12_8 H 0.497995 0.980506 0.531722
H13_8 H 0.550765 0.962897 0.612142
H10_8 H 0.1203 0.9608 0.2144
H11_8 H 0.2024 0.9532 0.3100
O1_7 O 0.93892(19) 0.0137(7) 0.0599(4)
C1_7 C 0.9197(3) 0.1169(10) 0.0082(5)
C2_7 C 0.8396(2) 0.0413(8) 0.0094(4)
O1_8 O 0.06108(19) 0.9863(7) 0.9401(4)
C1_8 C 0.0803(3) 0.8831(10) 0.9918(5)
C2_8 C 0.1604(2) 0.9587(8) 0.9906(4)
loop_
_geom_bond_atom_site_label_1
_geom_bond_atom_site_label_2
_geom_bond_site_symmetry_1
_geom_bond_site_symmetry_2
O9 Sm1 1_555 1_555
O10 Sm1 1_555 1_555
O12 Sm1 1_555 1_555
O9 H13 1_555 1_555
O4 C5 1_555 1_555
O7 C21 1_555 1_555
O8 C21 1_555 1_555
C4 C3 1_555 1_555
H2 C4 1_555 1_555
C5 C4 1_555 1_555
C6 C5 1_555 1_555
H3 C6 1_555 1_555
C15 O4 1_555 1_555
C16 C15 1_555 1_555
H8 C16 1_555 1_555
C17 C16 1_555 1_555
H9 C17 1_555 1_555
C18 C17 1_555 1_555
C19 C18 1_555 1_555
H10 C19 1_555 1_555
C20 C15 1_555 1_555
H11 C20 1_555 1_555
C21 C18 1_555 1_555
Sm2 O7 1_555 1_555
Sm3 O2 1_555 1_555
Sm6 O8 1_555 1_555
C6 C7 1_555 1_555
C19 C20 1_555 1_555
O5 C14 1_555 1_555
O6 C14 1_555 1_555
C9 C8 1_555 1_555
H4 C9 1_555 1_555
C10 C9 1_555 1_555
H5 C10 1_555 1_555
C11 C10 1_555 1_555
C12 C11 1_555 1_555
H6 C12 1_555 1_555
C13 C8 1_555 1_555
C14 C11 1_555 1_555
Sm4 O5 1_555 1_555
Sm6 O6 1_555 1_555
C12 C13 1_555 1_555
O1 C1 1_555 1_555
O2_2 C1 1_555 1_555
O4_2 C5_2 1_555 1_555
O7_2 C21_2 1_555 1_555
O8_2 C21_2 1_555 1_555
C1 C3_2 1_555 1_555
C3_2 C2 1_555 1_555
C4_2 C3_2 1_555 1_555
H2_2 C4_2 1_555 1_555
C5_2 C4_2 1_555 1_555
C6_2 C5_2 1_555 1_555
H3_2 C6_2 1_555 1_555
C7_2 C2 1_555 1_555
C15_2 O4_2 1_555 1_555
C16_2 C15_2 1_555 1_555
H8_2 C16_2 1_555 1_555
C17_2 C16_2 1_555 1_555
H9_2 C17_2 1_555 1_555
C18_2 C17_2 1_555 1_555
C19_2 C18_2 1_555 1_555
H10_2 C19_2 1_555 1_555
C20_2 C15_2 1_555 1_555
H11_2 C20_2 1_555 1_555
C21_2 C18_2 1_555 1_555
Sm3_2 O2_2 1_555 1_555
Sm4 O8_2 1_555 1_555
C6_2 C7_2 1_555 1_555
C19_2 C20_2 1_555 1_555
O5_2 C14_2 1_555 1_555
O6_2 C14_2 1_555 1_555
C8_2 O3_2 1_555 1_555
C9_2 C8_2 1_555 1_555
H4_2 C9_2 1_555 1_555
C10_2 C9_2 1_555 1_555
H5_2 C10_2 1_555 1_555
C11_2 C10_2 1_555 1_555
C12_2 C11_2 1_555 1_555
H6_2 C12_2 1_555 1_555
C13_2 C8_2 1_555 1_555
H7_2 C13_2 1_555 1_555
C14_2 C11_2 1_555 1_555
Sm6 O5_2 1_555 1_555
Sm4 O6_2 1_555 1_555
C12_2 C13_2 1_555 1_555
O9_2 Sm1_2 1_555 1_555
O10_2 Sm1_2 1_555 1_555
O12_2 Sm1_2 1_555 1_555
O9_2 H13_2 1_555 1_555
Sm2_2 O1_2 1_555 1_555
O1_2 C1_2 1_555 1_555
O9_3 Sm2_2 1_555 1_555
C2_2 H1_3 1_555 1_555
O10_3 Sm2_2 1_555 1_555
O11_3 Sm2_2 1_555 1_555
O12_3 Sm2_2 1_555 1_555
O14_3 Sm2_2 1_555 1_555
O9_3 H12_3 1_555 1_555
O9_3 H13_3 1_555 1_555
O4_3 C5_3 1_555 1_555
O5_3 C14_3 1_555 1_555
O6_3 C14_3 1_555 1_555
O13_2 C21_3 1_555 1_555
O8_3 C21_3 1_555 1_555
C4_3 C3_3 1_555 1_555
H2_3 C4_3 1_555 1_555
C5_3 C4_3 1_555 1_555
C6_3 C5_3 1_555 1_555
H3_3 C6_3 1_555 1_555
C9_3 C8_3 1_555 1_555
H4_3 C9_3 1_555 1_555
C10_3 C9_3 1_555 1_555
H5_3 C10_3 1_555 1_555
C11_3 C10_3 1_555 1_555
C12_3 C11_3 1_555 1_555
H6_3 C12_3 1_555 1_555
C13_3 C8_3 1_555 1_555
C14_3 C11_3 1_555 1_555
C15_3 O4_3 1_555 1_555
C16_3 C15_3 1_555 1_555
H8_3 C16_3 1_555 1_555
C17_3 C16_3 1_555 1_555
H9_3 C17_3 1_555 1_555
C18_3 C17_3 1_555 1_555
C19_3 C18_3 1_555 1_555
C20_3 C15_3 1_555 1_555
C21_3 C18_3 1_555 1_555
Sm4 O2_3 1_555 1_555
Sm3_2 O6_3 1_555 1_555
C6_3 C7_3 1_555 1_555
C12_3 C13_3 1_555 1_555
C19_3 C20_3 1_555 1_555
Sm2 O1_3 1_555 1_555
O1_3 C1_3 1_555 1_555
O2_4 C1_3 1_555 1_555
O3_4 C7_4 1_555 1_555
O4_4 C5_4 1_555 1_555
O5_4 C14_4 1_555 1_555
O6_4 C14_4 1_555 1_555
O13 C21_4 1_555 1_555
O8_4 C21_4 1_555 1_555
O9_4 Sm2 1_555 1_555
C1_3 C3_4 1_555 1_555
C2_3 H1_4 1_555 1_555
C3_4 C2_3 1_555 1_555
C4_4 C3_4 1_555 1_555
H2_4 C4_4 1_555 1_555
C5_4 C4_4 1_555 1_555
C6_4 C5_4 1_555 1_555
H3_4 C6_4 1_555 1_555
C7_4 C2_3 1_555 1_555
C8_4 O3_4 1_555 1_555
C9_4 C8_4 1_555 1_555
H4_4 C9_4 1_555 1_555
C10_4 C9_4 1_555 1_555
H5_4 C10_4 1_555 1_555
C11_4 C10_4 1_555 1_555
C12_4 C11_4 1_555 1_555
H6_4 C12_4 1_555 1_555
C13_4 C8_4 1_555 1_555
H7_4 C13_4 1_555 1_555
C14_4 C11_4 1_555 1_555
C15_4 O4_4 1_555 1_555
C16_4 C15_4 1_555 1_555
H8_4 C16_4 1_555 1_555
C17_4 C16_4 1_555 1_555
H9_4 C17_4 1_555 1_555
C18_4 C17_4 1_555 1_555
C19_4 C18_4 1_555 1_555
C20_4 C15_4 1_555 1_555
C21_4 C18_4 1_555 1_555
Sm6 O2_4 1_555 1_555
Sm3 O6_4 1_555 1_555
O10_4 Sm2 1_555 1_555
O11_4 Sm2 1_555 1_555
O12_4 Sm2 1_555 1_555
O14_4 Sm2 1_555 1_555
C6_4 C7_4 1_555 1_555
C12_4 C13_4 1_555 1_555
C19_4 C20_4 1_555 1_555
O9_4 H12_4 1_555 1_555
O9_4 H13_4 1_555 1_555
O11_3 C14_5 1_555 1_555
O12_4 C14_5 1_555 1_555
C9_5 C8_5 1_555 1_555
H4_5 C9_5 1_555 1_555
C10_5 C9_5 1_555 1_555
H5_5 C10_5 1_555 1_555
C11_5 C10_5 1_555 1_555
C12_5 C11_5 1_555 1_555
H6_5 C12_5 1_555 1_555
C13_5 C8_5 1_555 1_555
C14_5 C11_5 1_555 1_555
C12_5 C13_5 1_555 1_555
O4_5 C5_5 1_555 1_555
O7_3 C21_5 1_555 1_555
O14_4 C21_5 1_555 1_555
C4_5 C3_5 1_555 1_555
H2_5 C4_5 1_555 1_555
C5_5 C4_5 1_555 1_555
C6_5 C5_5 1_555 1_555
H3_5 C6_5 1_555 1_555
C15_5 O4_5 1_555 1_555
C16_5 C15_5 1_555 1_555
H8_5 C16_5 1_555 1_555
C17_5 C16_5 1_555 1_555
H9_5 C17_5 1_555 1_555
C18_5 C17_5 1_555 1_555
C19_5 C18_5 1_555 1_555
H10_5 C19_5 1_555 1_555
C20_5 C15_5 1_555 1_555
H11_5 C20_5 1_555 1_555
C21_5 C18_5 1_555 1_555
Sm6 O7_3 1_555 1_555
C6_5 C7_5 1_555 1_555
C19_5 C20_5 1_555 1_555
O9_5 Sm3 1_555 1_555
O9_5 H13_5 1_555 1_555
O9_6 Sm3_2 1_555 1_555
O9_6 H13_6 1_555 1_555
O11_4 C14_6 1_555 1_555
O12_3 C14_6 1_555 1_555
C8_6 O3_6 1_555 1_555
C9_6 C8_6 1_555 1_555
H4_6 C9_6 1_555 1_555
C10_6 C9_6 1_555 1_555
H5_6 C10_6 1_555 1_555
C11_6 C10_6 1_555 1_555
C12_6 C11_6 1_555 1_555
H6_6 C12_6 1_555 1_555
C13_6 C8_6 1_555 1_555
H7_6 C13_6 1_555 1_555
C14_6 C11_6 1_555 1_555
C12_6 C13_6 1_555 1_555
O1_4 C1_4 1_555 1_555
O10_2 C1_4 1_555 1_555
O4_6 C5_6 1_555 1_555
O7_4 C21_6 1_555 1_555
O14_3 C21_6 1_555 1_555
C1_4 C3_6 1_555 1_555
C3_6 C2_4 1_555 1_555
C4_6 C3_6 1_555 1_555
H2_6 C4_6 1_555 1_555
C5_6 C4_6 1_555 1_555
C6_6 C5_6 1_555 1_555
H3_6 C6_6 1_555 1_555
C7_6 C2_4 1_555 1_555
C15_6 O4_6 1_555 1_555
C16_6 C15_6 1_555 1_555
H8_6 C16_6 1_555 1_555
C17_6 C16_6 1_555 1_555
H9_6 C17_6 1_555 1_555
C18_6 C17_6 1_555 1_555
C19_6 C18_6 1_555 1_555
H10_6 C19_6 1_555 1_555
C20_6 C15_6 1_555 1_555
H11_6 C20_6 1_555 1_555
C21_6 C18_6 1_555 1_555
C6_6 C7_6 1_555 1_555
C19_6 C20_6 1_555 1_555
O4_7 C5_7 1_555 1_555
O11 C14_7 1_555 1_555
O12_2 C14_7 1_555 1_555
O13_4 C21_7 1_555 1_555
O14_2 C21_7 1_555 1_555
C4_7 C3_7 1_555 1_555
H2_7 C4_7 1_555 1_555
C5_7 C4_7 1_555 1_555
C6_7 C5_7 1_555 1_555
H3_7 C6_7 1_555 1_555
C9_7 C8_7 1_555 1_555
H4_7 C9_7 1_555 1_555
C10_7 C9_7 1_555 1_555
H5_7 C10_7 1_555 1_555
C11_7 C10_7 1_555 1_555
C12_7 C11_7 1_555 1_555
H6_7 C12_7 1_555 1_555
C13_7 C8_7 1_555 1_555
C14_7 C11_7 1_555 1_555
C15_7 O4_7 1_555 1_555
C16_7 C15_7 1_555 1_555
H8_7 C16_7 1_555 1_555
C17_7 C16_7 1_555 1_555
H9_7 C17_7 1_555 1_555
C18_7 C17_7 1_555 1_555
C19_7 C18_7 1_555 1_555
C20_7 C15_7 1_555 1_555
C21_7 C18_7 1_555 1_555
C6_7 C7_7 1_555 1_555
C12_7 C13_7 1_555 1_555
C19_7 C20_7 1_555 1_555
Sm4 O1_5 1_555 1_555
O1_5 C1_5 1_555 1_555
O9_7 Sm4 1_555 1_555
C2_5 H1_7 1_555 1_555
O9_7 H12_7 1_555 1_555
O9_7 H13_7 1_555 1_555
Sm6 O1_6 1_555 1_555
O1_6 C1_6 1_555 1_555
O10_4 C1_6 1_555 1_555
O3_8 C7_8 1_555 1_555
O4_8 C5_8 1_555 1_555
O11_2 C14_8 1_555 1_555
O12 C14_8 1_555 1_555
O13_3 C21_8 1_555 1_555
O14 C21_8 1_555 1_555
O9_8 Sm6 1_555 1_555
C1_6 C3_8 1_555 1_555
C2_6 H1_8 1_555 1_555
C3_8 C2_6 1_555 1_555
C4_8 C3_8 1_555 1_555
H2_8 C4_8 1_555 1_555
C5_8 C4_8 1_555 1_555
C6_8 C5_8 1_555 1_555
H3_8 C6_8 1_555 1_555
C7_8 C2_6 1_555 1_555
C8_8 O3_8 1_555 1_555
C9_8 C8_8 1_555 1_555
H4_8 C9_8 1_555 1_555
C10_8 C9_8 1_555 1_555
H5_8 C10_8 1_555 1_555
C11_8 C10_8 1_555 1_555
C12_8 C11_8 1_555 1_555
H6_8 C12_8 1_555 1_555
C13_8 C8_8 1_555 1_555
H7_8 C13_8 1_555 1_555
C14_8 C11_8 1_555 1_555
C15_8 O4_8 1_555 1_555
C16_8 C15_8 1_555 1_555
H8_8 C16_8 1_555 1_555
C17_8 C16_8 1_555 1_555
H9_8 C17_8 1_555 1_555
C18_8 C17_8 1_555 1_555
C19_8 C18_8 1_555 1_555
C20_8 C15_8 1_555 1_555
C21_8 C18_8 1_555 1_555
C6_8 C7_8 1_555 1_555
C12_8 C13_8 1_555 1_555
C19_8 C20_8 1_555 1_555
O9_8 H12_8 1_555 1_555
O9_8 H13_8 1_555 1_555
O1_7 C1_7 1_555 1_555
O1_8 C1_8 1_555 1_555

#END
