
###############################################################################
#
# This file contains modified crystal structure data generated from the
# MOF subset of the Cambridge Structural Database (CSD) v543 
# hosted by the Cambridge Crystallographic Data Centre (CCDC).
#
# This work is licensed under the Creative Commons
# Attribution-NonCommercial-ShareAlike 4.0 International License.
# To view a copy of this license, visit
# http://creativecommons.org/licenses/by-nc-sa/4.0/
# or send a letter to
# Creative Commons, PO Box 1866, Mountain View, CA 94042, USA.
#
# CIF created using the CSD Python API on 29 September 2022
# The structure has been converted into the P1 space group
# The structure has a 3D framework
# The original CSD entry LIXDAZ is in the monoclinic crystal system
# The framework has been calculated to contain at least 10.0% void space
# The void calculation uses a probe of radius 1.32A, grid spacing 0.4
# H atom positions have been added when not included in the experimental data
#
###############################################################################

data_LIXDAZ
_chemical_formula_moiety         '(C168 H104 O68 Tb8)n'
_symmetry_cell_setting           triclinic
_symmetry_space_group_name_H-M   'P 1'
_symmetry_Int_Tables_number      1
_space_group_name_Hall           'P 1'
loop_
_symmetry_equiv_pos_site_id
_symmetry_equiv_pos_as_xyz
1 x,y,z
_cell_length_a                   29.665(6)
_cell_length_b                   9.1754(18)
_cell_length_c                   16.300(3)
_cell_angle_alpha                90
_cell_angle_beta                 112.97(3)
_cell_angle_gamma                90
_cell_volume                     4084.88
loop_
_atom_site_label
_atom_site_type_symbol
_atom_site_fract_x
_atom_site_fract_y
_atom_site_fract_z
Tb2 Tb 0.002582(15) 0.16412(6) 0.09193(3)
Tb4 Tb 0.002582(15) 0.83588(6) 0.59193(3)
Tb1 Tb 0.497418(15) 0.66412(6) 0.40807(3)
O1 O 0.5606(2) 0.4902(10) 0.4418(5)
O2 O 0.5584(2) 0.3013(10) 0.5265(5)
O3 O 0.7309(2) 0.1364(7) 0.6713(4)
O4 O 0.7348(2) 0.5436(8) 0.4886(4)
O5 O 0.9351(2) 0.7805(9) 0.7746(4)
O6 O 0.9550(2) 0.7434(9) 0.6593(4)
O7 O 0.4841(3) 0.9325(11) 0.4094(6)
C1 C 0.5800(3) 0.3846(13) 0.4946(7)
C2 C 0.6343(3) 0.3653(10) 0.5210(6)
C3 C 0.6581(3) 0.2563(11) 0.5815(6)
H1 H 0.6406 0.1913 0.6014
C4 C 0.7083(3) 0.2464(10) 0.6113(6)
C5 C 0.7347(3) 0.3389(10) 0.5785(6)
H2 H 0.7682 0.3267 0.5954
C6 C 0.7103(3) 0.4480(11) 0.5211(6)
C7 C 0.6601(3) 0.4630(11) 0.4902(6)
C8 C 0.7811(3) 0.1510(10) 0.7236(6)
C9 C 0.8101(3) 0.0359(11) 0.7241(6)
C10 C 0.8591(3) 0.0398(12) 0.7808(6)
C11 C 0.8785(3) 0.1601(11) 0.8332(6)
C12 C 0.8483(3) 0.2758(12) 0.8291(6)
H5 H 0.8612 0.3580 0.8637
C13 C 0.7990(3) 0.2720(11) 0.7744(6)
H6 H 0.7786 0.3501 0.7723
C14 C 0.7813(3) 0.5855(10) 0.5429(6)
C15 C 0.7938(3) 0.6224(11) 0.6313(6)
H7 H 0.7708 0.6152 0.6567
C16 C 0.8404(3) 0.6696(10) 0.6814(6)
H8 H 0.8491 0.6919 0.7413
C17 C 0.8751(3) 0.6846(10) 0.6431(6)
C18 C 0.8614(3) 0.6502(12) 0.5546(6)
H9 H 0.8837 0.6613 0.5278
C19 C 0.8149(3) 0.5994(12) 0.5049(6)
H10 H 0.8063 0.5745 0.4454
O8 O 0.9441(2) 0.2572(11) 0.9569(5)
C20 C 0.9253(3) 0.7416(11) 0.6961(6)
O9 O 0.9578(2) 0.0554(10) 0.8982(6)
C21 C 0.9304(3) 0.1589(13) 0.8995(7)
Tb3 Tb 0.502582(15) 0.33588(6) 0.59193(3)
Tb6 Tb 0.997418(15) 0.83588(6) 0.90807(3)
O10 O 0.4416(2) 0.6987(10) 0.4735(5)
O11 O 0.4351(2) 0.7195(9) 0.2746(4)
O12 O 0.5450(2) 0.7566(9) 0.3407(4)
O13 O 0.5559(2) 0.7572(11) 0.5431(5)
O14 O 0.4578(2) 0.4446(10) 0.3982(6)
H11 H 0.497927 0.981375 0.370052
H12 H 0.448458 0.952946 0.387543
H13 H 0.641204 0.548708 0.443113
H3 H 0.7972 0.9561 0.6871
H4 H 0.8791 0.9604 0.7834
Tb1_2 Tb 0.502582(15) 0.66412(6) 0.09193(3)
O1_2 O 0.4394(2) 0.4902(10) 0.0582(5)
O4_2 O 0.2652(2) 0.5436(8) 0.0114(4)
O7_2 O 0.5159(3) 0.9325(11) 0.0906(6)
C1_2 C 0.4200(3) 0.3846(13) 0.0054(7)
C7_2 C 0.3399(3) 0.4630(11) 0.0098(6)
H10_2 H 0.1937 0.5745 0.0546
O10_2 O 0.5584(2) 0.6987(10) 0.0265(5)
O11_2 O 0.5649(2) 0.7195(9) 0.2254(4)
O12_2 O 0.4550(2) 0.7566(9) 0.1593(4)
O14_2 O 0.5422(2) 0.4446(10) 0.1018(6)
H11_2 H 0.502073 0.981375 0.129948
H12_2 H 0.551542 0.952946 0.112457
H13_2 H 0.358796 0.548708 0.0568866
O2_2 O 0.4416(2) 0.3013(10) 0.9735(5)
O3_2 O 0.2691(2) 0.1364(7) 0.8287(4)
O5_2 O 0.0649(2) 0.7805(9) 0.7254(4)
O6_2 O 0.0450(2) 0.7434(9) 0.8407(4)
C2_2 C 0.3657(3) 0.3653(10) 0.9790(6)
C3_2 C 0.3419(3) 0.2563(11) 0.9185(6)
H1_2 H 0.3594 0.1913 0.8986
C4_2 C 0.2917(3) 0.2464(10) 0.8887(6)
C5_2 C 0.2653(3) 0.3389(10) 0.9215(6)
H2_2 H 0.2318 0.3267 0.9046
C6_2 C 0.2897(3) 0.4480(11) 0.9789(6)
C8_2 C 0.2189(3) 0.1510(10) 0.7764(6)
C9_2 C 0.1899(3) 0.0359(11) 0.7759(6)
C10_2 C 0.1409(3) 0.0398(12) 0.7192(6)
C11_2 C 0.1215(3) 0.1601(11) 0.6668(6)
C12_2 C 0.1517(3) 0.2758(12) 0.6709(6)
H5_2 H 0.1388 0.3580 0.6363
C13_2 C 0.2010(3) 0.2720(11) 0.7256(6)
H6_2 H 0.2214 0.3501 0.7277
C14_2 C 0.2187(3) 0.5855(10) 0.9571(6)
C15_2 C 0.2062(3) 0.6224(11) 0.8687(6)
H7_2 H 0.2292 0.6152 0.8433
C16_2 C 0.1596(3) 0.6696(10) 0.8186(6)
H8_2 H 0.1509 0.6919 0.7587
C17_2 C 0.1249(3) 0.6846(10) 0.8569(6)
C18_2 C 0.1386(3) 0.6502(12) 0.9454(6)
H9_2 H 0.1163 0.6613 0.9722
C19_2 C 0.1851(3) 0.5994(12) 0.9951(6)
O8_2 O 0.0559(2) 0.2572(11) 0.5431(5)
C20_2 C 0.0747(3) 0.7416(11) 0.8039(6)
O9_2 O 0.0422(2) 0.0554(10) 0.6018(6)
C21_2 C 0.0696(3) 0.1589(13) 0.6005(7)
Tb3_2 Tb 0.497418(15) 0.33588(6) 0.90807(3)
O13_2 O 0.4441(2) 0.7572(11) 0.9569(5)
H3_2 H 0.2028 0.9561 0.8129
H4_2 H 0.1209 0.9604 0.7166
Tb2_2 Tb 0.997418(15) 0.16412(6) 0.40807(3)
O4_3 O 0.2348(2) 0.0436(8) 0.4886(4)
O5_3 O 0.4351(2) 0.2805(9) 0.7746(4)
O6_3 O 0.4550(2) 0.2434(9) 0.6593(4)
C14_3 C 0.2813(3) 0.0855(10) 0.5429(6)
C15_3 C 0.2938(3) 0.1224(11) 0.6313(6)
H7_3 H 0.2708 0.1152 0.6567
C16_3 C 0.3404(3) 0.1696(10) 0.6814(6)
H8_3 H 0.3491 0.1919 0.7413
C17_3 C 0.3751(3) 0.1846(10) 0.6431(6)
C18_3 C 0.3614(3) 0.1502(12) 0.5546(6)
H9_3 H 0.3837 0.1613 0.5278
C19_3 C 0.3149(3) 0.0994(12) 0.5049(6)
H10_3 H 0.3063 0.0745 0.4454
C20_3 C 0.4253(3) 0.2416(11) 0.6961(6)
O12_3 O 0.0450(2) 0.2566(9) 0.3407(4)
H13_3 H 0.141204 0.0487078 0.443113
O1_3 O 0.0606(2) 0.9902(10) 0.4418(5)
O2_3 O 0.0584(2) 0.8013(10) 0.5265(5)
O3_3 O 0.2309(2) 0.6364(7) 0.6713(4)
C1_3 C 0.0800(3) 0.8846(13) 0.4946(7)
C2_3 C 0.1343(3) 0.8653(10) 0.5210(6)
C3_3 C 0.1581(3) 0.7563(11) 0.5815(6)
H1_3 H 0.1406 0.6913 0.6014
C4_3 C 0.2083(3) 0.7464(10) 0.6113(6)
C5_3 C 0.2347(3) 0.8389(10) 0.5785(6)
H2_3 H 0.2682 0.8267 0.5954
C6_3 C 0.2103(3) 0.9480(11) 0.5211(6)
C7_3 C 0.1601(3) 0.9630(11) 0.4902(6)
C8_3 C 0.2811(3) 0.6510(10) 0.7236(6)
C9_3 C 0.3101(3) 0.5359(11) 0.7241(6)
H3_3 H 0.2972 0.4561 0.6871
C10_3 C 0.3591(3) 0.5398(12) 0.7808(6)
H4_3 H 0.3791 0.4604 0.7834
C11_3 C 0.3785(3) 0.6601(11) 0.8332(6)
C12_3 C 0.3483(3) 0.7758(12) 0.8291(6)
H5_3 H 0.3612 0.8580 0.8637
C13_3 C 0.2990(3) 0.7720(11) 0.7744(6)
H6_3 H 0.2786 0.8501 0.7723
O9_3 O 0.4578(2) 0.5554(10) 0.8982(6)
C21_3 C 0.4304(3) 0.6589(13) 0.8995(7)
O7_3 O 0.9841(3) 0.4325(11) 0.4094(6)
O10_3 O 0.9416(2) 0.1987(10) 0.4735(5)
O11_3 O 0.9351(2) 0.2195(9) 0.2746(4)
H11_3 H 0.997927 0.481375 0.370052
H12_3 H 0.948458 0.452946 0.387543
O14_3 O 0.9578(2) 0.9446(10) 0.3982(6)
O7_4 O 0.0159(3) 0.4325(11) 0.0906(6)
O10_4 O 0.0584(2) 0.1987(10) 0.0265(5)
O11_4 O 0.0649(2) 0.2195(9) 0.2254(4)
H11_4 H 0.00207297 0.481375 0.129948
H12_4 H 0.0515421 0.452946 0.112457
O14_4 O 0.0422(2) 0.9446(10) 0.1018(6)
O4_4 O 0.7652(2) 0.0436(8) 0.0114(4)
H10_4 H 0.6937 0.0745 0.0546
O12_4 O 0.9550(2) 0.2566(9) 0.1593(4)
H13_4 H 0.858796 0.0487078 0.0568866
O5_4 O 0.5649(2) 0.2805(9) 0.7254(4)
O6_4 O 0.5450(2) 0.2434(9) 0.8407(4)
C14_4 C 0.7187(3) 0.0855(10) 0.9571(6)
C15_4 C 0.7062(3) 0.1224(11) 0.8687(6)
H7_4 H 0.7292 0.1152 0.8433
C16_4 C 0.6596(3) 0.1696(10) 0.8186(6)
H8_4 H 0.6509 0.1919 0.7587
C17_4 C 0.6249(3) 0.1846(10) 0.8569(6)
C18_4 C 0.6386(3) 0.1502(12) 0.9454(6)
H9_4 H 0.6163 0.1613 0.9722
C19_4 C 0.6851(3) 0.0994(12) 0.9951(6)
C20_4 C 0.5747(3) 0.2416(11) 0.8039(6)
O2_4 O 0.9416(2) 0.8013(10) 0.9735(5)
O3_4 O 0.7691(2) 0.6364(7) 0.8287(4)
C2_4 C 0.8657(3) 0.8653(10) 0.9790(6)
C3_4 C 0.8419(3) 0.7563(11) 0.9185(6)
H1_4 H 0.8594 0.6913 0.8986
C4_4 C 0.7917(3) 0.7464(10) 0.8887(6)
C5_4 C 0.7653(3) 0.8389(10) 0.9215(6)
H2_4 H 0.7318 0.8267 0.9046
C6_4 C 0.7897(3) 0.9480(11) 0.9789(6)
C8_4 C 0.7189(3) 0.6510(10) 0.7764(6)
C9_4 C 0.6899(3) 0.5359(11) 0.7759(6)
H3_4 H 0.7028 0.4561 0.8129
C10_4 C 0.6409(3) 0.5398(12) 0.7192(6)
H4_4 H 0.6209 0.4604 0.7166
C11_4 C 0.6215(3) 0.6601(11) 0.6668(6)
C12_4 C 0.6517(3) 0.7758(12) 0.6709(6)
H5_4 H 0.6388 0.8580 0.6363
C13_4 C 0.7010(3) 0.7720(11) 0.7256(6)
H6_4 H 0.7214 0.8501 0.7277
O9_4 O 0.5422(2) 0.5554(10) 0.6018(6)
C21_4 C 0.5696(3) 0.6589(13) 0.6005(7)
H3_5 H 0.2028 0.0439 0.3129
H4_5 H 0.1209 0.0396 0.2166
O1_4 O 0.4394(2) 0.5098(10) 0.5582(5)
O3_5 O 0.2691(2) 0.8636(7) 0.3287(4)
O4_5 O 0.2652(2) 0.4564(8) 0.5114(4)
O7_5 O 0.5159(3) 0.0675(11) 0.5906(6)
C1_4 C 0.4200(3) 0.6154(13) 0.5054(7)
C2_5 C 0.3657(3) 0.6347(10) 0.4790(6)
C3_5 C 0.3419(3) 0.7437(11) 0.4185(6)
H1_5 H 0.3594 0.8087 0.3986
C4_5 C 0.2917(3) 0.7536(10) 0.3887(6)
C5_5 C 0.2653(3) 0.6611(10) 0.4215(6)
H2_5 H 0.2318 0.6733 0.4046
C6_5 C 0.2897(3) 0.5520(11) 0.4789(6)
C7_4 C 0.3399(3) 0.5370(11) 0.5098(6)
C8_5 C 0.2189(3) 0.8490(10) 0.2764(6)
C9_5 C 0.1899(3) 0.9641(11) 0.2759(6)
C10_5 C 0.1409(3) 0.9602(12) 0.2192(6)
C11_5 C 0.1215(3) 0.8399(11) 0.1668(6)
C12_5 C 0.1517(3) 0.7242(12) 0.1709(6)
H5_5 H 0.1388 0.6420 0.1363
C13_5 C 0.2010(3) 0.7280(11) 0.2256(6)
H6_5 H 0.2214 0.6499 0.2277
C14_5 C 0.2187(3) 0.4145(10) 0.4571(6)
C15_5 C 0.2062(3) 0.3776(11) 0.3687(6)
H7_5 H 0.2292 0.3848 0.3433
C16_5 C 0.1596(3) 0.3304(10) 0.3186(6)
H8_5 H 0.1509 0.3081 0.2587
C17_5 C 0.1249(3) 0.3154(10) 0.3569(6)
C18_5 C 0.1386(3) 0.3498(12) 0.4454(6)
H9_5 H 0.1163 0.3387 0.4722
C19_5 C 0.1851(3) 0.4006(12) 0.4951(6)
H10_5 H 0.1937 0.4255 0.5546
O8_3 O 0.0559(2) 0.7428(11) 0.0431(5)
C20_5 C 0.0747(3) 0.2584(11) 0.3039(6)
C21_5 C 0.0696(3) 0.8411(13) 0.1005(7)
O13_3 O 0.4441(2) 0.2428(11) 0.4569(5)
H11_5 H 0.502073 0.0186251 0.629948
H12_5 H 0.551542 0.047054 0.612457
H13_5 H 0.358796 0.451292 0.556887
H3_6 H 0.7972 0.0439 0.1871
H4_6 H 0.8791 0.0396 0.2834
O3_6 O 0.7309(2) 0.8636(7) 0.1713(4)
C2_6 C 0.6343(3) 0.6347(10) 0.0210(6)
C3_6 C 0.6581(3) 0.7437(11) 0.0815(6)
H1_6 H 0.6406 0.8087 0.1014
C4_6 C 0.7083(3) 0.7536(10) 0.1113(6)
C5_6 C 0.7347(3) 0.6611(10) 0.0785(6)
H2_6 H 0.7682 0.6733 0.0954
C6_6 C 0.7103(3) 0.5520(11) 0.0211(6)
C8_6 C 0.7811(3) 0.8490(10) 0.2236(6)
C9_6 C 0.8101(3) 0.9641(11) 0.2241(6)
C10_6 C 0.8591(3) 0.9602(12) 0.2808(6)
C11_6 C 0.8785(3) 0.8399(11) 0.3332(6)
C12_6 C 0.8483(3) 0.7242(12) 0.3291(6)
H5_6 H 0.8612 0.6420 0.3637
C13_6 C 0.7990(3) 0.7280(11) 0.2744(6)
H6_6 H 0.7786 0.6499 0.2723
C14_6 C 0.7813(3) 0.4145(10) 0.0429(6)
C15_6 C 0.7938(3) 0.3776(11) 0.1313(6)
H7_6 H 0.7708 0.3848 0.1567
C16_6 C 0.8404(3) 0.3304(10) 0.1814(6)
H8_6 H 0.8491 0.3081 0.2413
C17_6 C 0.8751(3) 0.3154(10) 0.1431(6)
C18_6 C 0.8614(3) 0.3498(12) 0.0546(6)
H9_6 H 0.8837 0.3387 0.0278
C19_6 C 0.8149(3) 0.4006(12) 0.0049(6)
O8_4 O 0.9441(2) 0.7428(11) 0.4569(5)
C20_6 C 0.9253(3) 0.2584(11) 0.1961(6)
C21_6 C 0.9304(3) 0.8411(13) 0.3995(7)
O13_4 O 0.5559(2) 0.2428(11) 0.0431(5)
O1_5 O 0.5606(2) 0.5098(10) 0.9418(5)
O4_6 O 0.7348(2) 0.4564(8) 0.9886(4)
O7_6 O 0.4841(3) 0.0675(11) 0.9094(6)
C1_5 C 0.5800(3) 0.6154(13) 0.9946(7)
C7_5 C 0.6601(3) 0.5370(11) 0.9902(6)
H10_6 H 0.8063 0.4255 0.9454
H11_6 H 0.497927 0.0186251 0.870052
H12_6 H 0.448458 0.047054 0.887543
H13_6 H 0.641204 0.451292 0.943113
O7_7 O 0.0159(3) 0.5675(11) 0.5906(6)
H11_7 H 0.00207297 0.518625 0.629948
H12_7 H 0.0515421 0.547054 0.612457
O1_6 O 0.9394(2) 0.0098(10) 0.5582(5)
O3_7 O 0.7691(2) 0.3636(7) 0.3287(4)
C1_6 C 0.9200(3) 0.1154(13) 0.5054(7)
C2_7 C 0.8657(3) 0.1347(10) 0.4790(6)
C3_7 C 0.8419(3) 0.2437(11) 0.4185(6)
H1_7 H 0.8594 0.3087 0.3986
C4_7 C 0.7917(3) 0.2536(10) 0.3887(6)
C5_7 C 0.7653(3) 0.1611(10) 0.4215(6)
H2_7 H 0.7318 0.1733 0.4046
C6_7 C 0.7897(3) 0.0520(11) 0.4789(6)
C7_6 C 0.8399(3) 0.0370(11) 0.5098(6)
C8_7 C 0.7189(3) 0.3490(10) 0.2764(6)
C9_7 C 0.6899(3) 0.4641(11) 0.2759(6)
H3_7 H 0.7028 0.5439 0.3129
C10_7 C 0.6409(3) 0.4602(12) 0.2192(6)
H4_7 H 0.6209 0.5396 0.2166
C11_7 C 0.6215(3) 0.3399(11) 0.1668(6)
C12_7 C 0.6517(3) 0.2242(12) 0.1709(6)
H5_7 H 0.6388 0.1420 0.1363
C13_7 C 0.7010(3) 0.2280(11) 0.2256(6)
H6_7 H 0.7214 0.1499 0.2277
C21_7 C 0.5696(3) 0.3411(13) 0.1005(7)
O4_7 O 0.7652(2) 0.9564(8) 0.5114(4)
C14_7 C 0.7187(3) 0.9145(10) 0.4571(6)
C15_7 C 0.7062(3) 0.8776(11) 0.3687(6)
H7_7 H 0.7292 0.8848 0.3433
C16_7 C 0.6596(3) 0.8304(10) 0.3186(6)
H8_7 H 0.6509 0.8081 0.2587
C17_7 C 0.6249(3) 0.8154(10) 0.3569(6)
C18_7 C 0.6386(3) 0.8498(12) 0.4454(6)
H9_7 H 0.6163 0.8387 0.4722
C19_7 C 0.6851(3) 0.9006(12) 0.4951(6)
H10_7 H 0.6937 0.9255 0.5546
C20_7 C 0.5747(3) 0.7584(11) 0.3039(6)
H13_7 H 0.858796 0.951292 0.556887
O3_8 O 0.2309(2) 0.3636(7) 0.1713(4)
C2_8 C 0.1343(3) 0.1347(10) 0.0210(6)
C3_8 C 0.1581(3) 0.2437(11) 0.0815(6)
H1_8 H 0.1406 0.3087 0.1014
C4_8 C 0.2083(3) 0.2536(10) 0.1113(6)
C5_8 C 0.2347(3) 0.1611(10) 0.0785(6)
H2_8 H 0.2682 0.1733 0.0954
C6_8 C 0.2103(3) 0.0520(11) 0.0211(6)
C8_8 C 0.2811(3) 0.3490(10) 0.2236(6)
C9_8 C 0.3101(3) 0.4641(11) 0.2241(6)
H3_8 H 0.2972 0.5439 0.1871
C10_8 C 0.3591(3) 0.4602(12) 0.2808(6)
H4_8 H 0.3791 0.5396 0.2834
C11_8 C 0.3785(3) 0.3399(11) 0.3332(6)
C12_8 C 0.3483(3) 0.2242(12) 0.3291(6)
H5_8 H 0.3612 0.1420 0.3637
C13_8 C 0.2990(3) 0.2280(11) 0.2744(6)
H6_8 H 0.2786 0.1499 0.2723
C21_8 C 0.4304(3) 0.3411(13) 0.3995(7)
C14_8 C 0.2813(3) 0.9145(10) 0.0429(6)
C15_8 C 0.2938(3) 0.8776(11) 0.1313(6)
H7_8 H 0.2708 0.8848 0.1567
C16_8 C 0.3404(3) 0.8304(10) 0.1814(6)
H8_8 H 0.3491 0.8081 0.2413
C17_8 C 0.3751(3) 0.8154(10) 0.1431(6)
C18_8 C 0.3614(3) 0.8498(12) 0.0546(6)
H9_8 H 0.3837 0.8387 0.0278
C19_8 C 0.3149(3) 0.9006(12) 0.0049(6)
C20_8 C 0.4253(3) 0.7584(11) 0.1961(6)
O4_8 O 0.2348(2) 0.9564(8) 0.9886(4)
H10_8 H 0.3063 0.9255 0.9454
H13_8 H 0.141204 0.951292 0.943113
O7_8 O 0.9841(3) 0.5675(11) 0.9094(6)
H11_8 H 0.997927 0.518625 0.870052
H12_8 H 0.948458 0.547054 0.887543
O1_7 O 0.9394(2) 0.9902(10) 0.0582(5)
C1_7 C 0.9200(3) 0.8846(13) 0.0054(7)
C7_7 C 0.8399(3) 0.9630(11) 0.0098(6)
O1_8 O 0.0606(2) 0.0098(10) 0.9418(5)
C1_8 C 0.0800(3) 0.1154(13) 0.9946(7)
C7_8 C 0.1601(3) 0.0370(11) 0.9902(6)
loop_
_geom_bond_atom_site_label_1
_geom_bond_atom_site_label_2
_geom_bond_site_symmetry_1
_geom_bond_site_symmetry_2
Tb1 O1 1_555 1_555
O1 C1 1_555 1_555
O2 C1 1_555 1_555
O3 C4 1_555 1_555
O4 C6 1_555 1_555
O5 C20 1_555 1_555
O6 C20 1_555 1_555
O7 Tb1 1_555 1_555
C1 C2 1_555 1_555
C2 C3 1_555 1_555
C3 H1 1_555 1_555
C4 C3 1_555 1_555
C5 C4 1_555 1_555
H2 C5 1_555 1_555
C6 C5 1_555 1_555
C7 C2 1_555 1_555
C8 O3 1_555 1_555
C9 C8 1_555 1_555
C10 C9 1_555 1_555
C11 C10 1_555 1_555
C12 C11 1_555 1_555
H5 C12 1_555 1_555
C13 C8 1_555 1_555
H6 C13 1_555 1_555
C14 O4 1_555 1_555
C15 C14 1_555 1_555
H7 C15 1_555 1_555
C16 C15 1_555 1_555
H8 C16 1_555 1_555
C17 C16 1_555 1_555
C18 C17 1_555 1_555
H9 C18 1_555 1_555
C19 C14 1_555 1_555
H10 C19 1_555 1_555
O8 C21 1_555 1_555
C20 C17 1_555 1_555
O9 C21 1_555 1_555
C21 C11 1_555 1_555
Tb3 O2 1_555 1_555
Tb6 O5 1_555 1_555
O10 Tb1 1_555 1_555
O11 Tb1 1_555 1_555
O12 Tb1 1_555 1_555
O13 Tb1 1_555 1_555
O14 Tb1 1_555 1_555
C6 C7 1_555 1_555
C12 C13 1_555 1_555
C18 C19 1_555 1_555
O7 H11 1_555 1_555
O7 H12 1_555 1_555
C7 H13 1_555 1_555
Tb1_2 O1_2 1_555 1_555
O1_2 C1_2 1_555 1_555
O7_2 Tb1_2 1_555 1_555
O10_2 Tb1_2 1_555 1_555
O11_2 Tb1_2 1_555 1_555
O12_2 Tb1_2 1_555 1_555
O14_2 Tb1_2 1_555 1_555
O7_2 H11_2 1_555 1_555
O7_2 H12_2 1_555 1_555
C7_2 H13_2 1_555 1_555
O3_2 C4_2 1_555 1_555
O5_2 C20_2 1_555 1_555
O6_2 C20_2 1_555 1_555
C2_2 C3_2 1_555 1_555
C3_2 H1_2 1_555 1_555
C4_2 C3_2 1_555 1_555
C5_2 C4_2 1_555 1_555
H2_2 C5_2 1_555 1_555
C6_2 C5_2 1_555 1_555
C8_2 O3_2 1_555 1_555
C9_2 C8_2 1_555 1_555
C10_2 C9_2 1_555 1_555
C11_2 C10_2 1_555 1_555
C12_2 C11_2 1_555 1_555
H5_2 C12_2 1_555 1_555
C13_2 C8_2 1_555 1_555
H6_2 C13_2 1_555 1_555
C15_2 C14_2 1_555 1_555
H7_2 C15_2 1_555 1_555
C16_2 C15_2 1_555 1_555
H8_2 C16_2 1_555 1_555
C17_2 C16_2 1_555 1_555
C18_2 C17_2 1_555 1_555
H9_2 C18_2 1_555 1_555
C19_2 C14_2 1_555 1_555
O8_2 C21_2 1_555 1_555
C20_2 C17_2 1_555 1_555
O9_2 C21_2 1_555 1_555
C21_2 C11_2 1_555 1_555
Tb3_2 O2_2 1_555 1_555
Tb4 O5_2 1_555 1_555
C12_2 C13_2 1_555 1_555
C18_2 C19_2 1_555 1_555
O5_3 C20_3 1_555 1_555
O6_3 C20_3 1_555 1_555
C14_3 O4_3 1_555 1_555
C15_3 C14_3 1_555 1_555
H7_3 C15_3 1_555 1_555
C16_3 C15_3 1_555 1_555
H8_3 C16_3 1_555 1_555
C17_3 C16_3 1_555 1_555
C18_3 C17_3 1_555 1_555
H9_3 C18_3 1_555 1_555
C19_3 C14_3 1_555 1_555
H10_3 C19_3 1_555 1_555
C20_3 C17_3 1_555 1_555
Tb3 O6_3 1_555 1_555
Tb3_2 O5_3 1_555 1_555
C18_3 C19_3 1_555 1_555
O1_3 C1_3 1_555 1_555
O2_3 C1_3 1_555 1_555
O3_3 C4_3 1_555 1_555
C1_3 C2_3 1_555 1_555
C2_3 C3_3 1_555 1_555
C3_3 H1_3 1_555 1_555
C4_3 C3_3 1_555 1_555
C5_3 C4_3 1_555 1_555
H2_3 C5_3 1_555 1_555
C6_3 C5_3 1_555 1_555
C7_3 C2_3 1_555 1_555
C8_3 O3_3 1_555 1_555
C9_3 C8_3 1_555 1_555
H3_3 C9_3 1_555 1_555
C10_3 C9_3 1_555 1_555
H4_3 C10_3 1_555 1_555
C11_3 C10_3 1_555 1_555
C12_3 C11_3 1_555 1_555
H5_3 C12_3 1_555 1_555
C13_3 C8_3 1_555 1_555
H6_3 C13_3 1_555 1_555
O13_2 C21_3 1_555 1_555
O9_3 C21_3 1_555 1_555
C21_3 C11_3 1_555 1_555
Tb4 O2_3 1_555 1_555
Tb3_2 O9_3 1_555 1_555
C6_3 C7_3 1_555 1_555
C12_3 C13_3 1_555 1_555
O7_3 Tb2_2 1_555 1_555
O10_3 Tb2_2 1_555 1_555
O11_3 Tb2_2 1_555 1_555
O7_3 H11_3 1_555 1_555
O7_3 H12_3 1_555 1_555
O7_4 Tb2 1_555 1_555
O10_4 Tb2 1_555 1_555
O11_4 Tb2 1_555 1_555
O7_4 H11_4 1_555 1_555
O7_4 H12_4 1_555 1_555
O5_4 C20_4 1_555 1_555
O6_4 C20_4 1_555 1_555
C15_4 C14_4 1_555 1_555
H7_4 C15_4 1_555 1_555
C16_4 C15_4 1_555 1_555
H8_4 C16_4 1_555 1_555
C17_4 C16_4 1_555 1_555
C18_4 C17_4 1_555 1_555
H9_4 C18_4 1_555 1_555
C19_4 C14_4 1_555 1_555
C20_4 C17_4 1_555 1_555
Tb3_2 O6_4 1_555 1_555
Tb3 O5_4 1_555 1_555
C18_4 C19_4 1_555 1_555
O3_4 C4_4 1_555 1_555
C2_4 C3_4 1_555 1_555
C3_4 H1_4 1_555 1_555
C4_4 C3_4 1_555 1_555
C5_4 C4_4 1_555 1_555
H2_4 C5_4 1_555 1_555
C6_4 C5_4 1_555 1_555
C8_4 O3_4 1_555 1_555
C9_4 C8_4 1_555 1_555
H3_4 C9_4 1_555 1_555
C10_4 C9_4 1_555 1_555
H4_4 C10_4 1_555 1_555
C11_4 C10_4 1_555 1_555
C12_4 C11_4 1_555 1_555
H5_4 C12_4 1_555 1_555
C13_4 C8_4 1_555 1_555
H6_4 C13_4 1_555 1_555
O13 C21_4 1_555 1_555
O9_4 C21_4 1_555 1_555
C21_4 C11_4 1_555 1_555
Tb6 O2_4 1_555 1_555
Tb3 O9_4 1_555 1_555
C12_4 C13_4 1_555 1_555
Tb3 O1_4 1_555 1_555
O1_4 C1_4 1_555 1_555
O10 C1_4 1_555 1_555
O3_5 C4_5 1_555 1_555
O4_5 C6_5 1_555 1_555
O11_4 C20_5 1_555 1_555
O12_3 C20_5 1_555 1_555
O7_5 Tb3 1_555 1_555
C1_4 C2_5 1_555 1_555
C2_5 C3_5 1_555 1_555
C3_5 H1_5 1_555 1_555
C4_5 C3_5 1_555 1_555
C5_5 C4_5 1_555 1_555
H2_5 C5_5 1_555 1_555
C6_5 C5_5 1_555 1_555
C7_4 C2_5 1_555 1_555
C8_5 O3_5 1_555 1_555
C9_5 C8_5 1_555 1_555
C10_5 C9_5 1_555 1_555
C11_5 C10_5 1_555 1_555
C12_5 C11_5 1_555 1_555
H5_5 C12_5 1_555 1_555
C13_5 C8_5 1_555 1_555
H6_5 C13_5 1_555 1_555
C14_5 O4_5 1_555 1_555
C15_5 C14_5 1_555 1_555
H7_5 C15_5 1_555 1_555
C16_5 C15_5 1_555 1_555
H8_5 C16_5 1_555 1_555
C17_5 C16_5 1_555 1_555
C18_5 C17_5 1_555 1_555
H9_5 C18_5 1_555 1_555
C19_5 C14_5 1_555 1_555
H10_5 C19_5 1_555 1_555
O8_3 C21_5 1_555 1_555
C20_5 C17_5 1_555 1_555
O14_4 C21_5 1_555 1_555
C21_5 C11_5 1_555 1_555
O13_3 Tb3 1_555 1_555
C6_5 C7_4 1_555 1_555
C12_5 C13_5 1_555 1_555
C18_5 C19_5 1_555 1_555
O7_5 H11_5 1_555 1_555
O7_5 H12_5 1_555 1_555
C7_4 H13_5 1_555 1_555
O3_6 C4_6 1_555 1_555
O11_3 C20_6 1_555 1_555
O12_4 C20_6 1_555 1_555
C2_6 C3_6 1_555 1_555
C3_6 H1_6 1_555 1_555
C4_6 C3_6 1_555 1_555
C5_6 C4_6 1_555 1_555
H2_6 C5_6 1_555 1_555
C6_6 C5_6 1_555 1_555
C8_6 O3_6 1_555 1_555
C9_6 C8_6 1_555 1_555
C10_6 C9_6 1_555 1_555
C11_6 C10_6 1_555 1_555
C12_6 C11_6 1_555 1_555
H5_6 C12_6 1_555 1_555
C13_6 C8_6 1_555 1_555
H6_6 C13_6 1_555 1_555
C15_6 C14_6 1_555 1_555
H7_6 C15_6 1_555 1_555
C16_6 C15_6 1_555 1_555
H8_6 C16_6 1_555 1_555
C17_6 C16_6 1_555 1_555
C18_6 C17_6 1_555 1_555
H9_6 C18_6 1_555 1_555
C19_6 C14_6 1_555 1_555
O8_4 C21_6 1_555 1_555
C20_6 C17_6 1_555 1_555
O14_3 C21_6 1_555 1_555
C21_6 C11_6 1_555 1_555
C12_6 C13_6 1_555 1_555
C18_6 C19_6 1_555 1_555
Tb3_2 O1_5 1_555 1_555
O1_5 C1_5 1_555 1_555
O7_6 Tb3_2 1_555 1_555
O7_6 H11_6 1_555 1_555
O7_6 H12_6 1_555 1_555
C7_5 H13_6 1_555 1_555
O7_7 Tb4 1_555 1_555
O7_7 H11_7 1_555 1_555
O7_7 H12_7 1_555 1_555
O1_6 C1_6 1_555 1_555
O10_3 C1_6 1_555 1_555
O3_7 C4_7 1_555 1_555
C1_6 C2_7 1_555 1_555
C2_7 C3_7 1_555 1_555
C3_7 H1_7 1_555 1_555
C4_7 C3_7 1_555 1_555
C5_7 C4_7 1_555 1_555
H2_7 C5_7 1_555 1_555
C6_7 C5_7 1_555 1_555
C7_6 C2_7 1_555 1_555
C8_7 O3_7 1_555 1_555
C9_7 C8_7 1_555 1_555
H3_7 C9_7 1_555 1_555
C10_7 C9_7 1_555 1_555
H4_7 C10_7 1_555 1_555
C11_7 C10_7 1_555 1_555
C12_7 C11_7 1_555 1_555
H5_7 C12_7 1_555 1_555
C13_7 C8_7 1_555 1_555
H6_7 C13_7 1_555 1_555
O13_4 C21_7 1_555 1_555
O14_2 C21_7 1_555 1_555
C21_7 C11_7 1_555 1_555
C6_7 C7_6 1_555 1_555
C12_7 C13_7 1_555 1_555
O11_2 C20_7 1_555 1_555
O12 C20_7 1_555 1_555
C14_7 O4_7 1_555 1_555
C15_7 C14_7 1_555 1_555
H7_7 C15_7 1_555 1_555
C16_7 C15_7 1_555 1_555
H8_7 C16_7 1_555 1_555
C17_7 C16_7 1_555 1_555
C18_7 C17_7 1_555 1_555
H9_7 C18_7 1_555 1_555
C19_7 C14_7 1_555 1_555
H10_7 C19_7 1_555 1_555
C20_7 C17_7 1_555 1_555
C18_7 C19_7 1_555 1_555
O3_8 C4_8 1_555 1_555
C2_8 C3_8 1_555 1_555
C3_8 H1_8 1_555 1_555
C4_8 C3_8 1_555 1_555
C5_8 C4_8 1_555 1_555
H2_8 C5_8 1_555 1_555
C6_8 C5_8 1_555 1_555
C8_8 O3_8 1_555 1_555
C9_8 C8_8 1_555 1_555
H3_8 C9_8 1_555 1_555
C10_8 C9_8 1_555 1_555
H4_8 C10_8 1_555 1_555
C11_8 C10_8 1_555 1_555
C12_8 C11_8 1_555 1_555
H5_8 C12_8 1_555 1_555
C13_8 C8_8 1_555 1_555
H6_8 C13_8 1_555 1_555
O13_3 C21_8 1_555 1_555
O14 C21_8 1_555 1_555
C21_8 C11_8 1_555 1_555
C12_8 C13_8 1_555 1_555
O11 C20_8 1_555 1_555
O12_2 C20_8 1_555 1_555
C15_8 C14_8 1_555 1_555
H7_8 C15_8 1_555 1_555
C16_8 C15_8 1_555 1_555
H8_8 C16_8 1_555 1_555
C17_8 C16_8 1_555 1_555
C18_8 C17_8 1_555 1_555
H9_8 C18_8 1_555 1_555
C19_8 C14_8 1_555 1_555
C20_8 C17_8 1_555 1_555
C18_8 C19_8 1_555 1_555
O7_8 Tb6 1_555 1_555
O7_8 H11_8 1_555 1_555
O7_8 H12_8 1_555 1_555
O1_7 C1_7 1_555 1_555
O1_8 C1_8 1_555 1_555

#END
