
###############################################################################
#
# This file contains modified crystal structure data generated from the
# MOF subset of the Cambridge Structural Database (CSD) v543 
# hosted by the Cambridge Crystallographic Data Centre (CCDC).
#
# This work is licensed under the Creative Commons
# Attribution-NonCommercial-ShareAlike 4.0 International License.
# To view a copy of this license, visit
# http://creativecommons.org/licenses/by-nc-sa/4.0/
# or send a letter to
# Creative Commons, PO Box 1866, Mountain View, CA 94042, USA.
#
# CIF created using the CSD Python API on 29 September 2022
# The structure has been converted into the P1 space group
# The structure has a 3D framework
# The original CSD entry LIXMEM is in the monoclinic crystal system
# The framework has been calculated to contain at least 10.0% void space
# The void calculation uses a probe of radius 1.32A, grid spacing 0.4
# H atom positions have been added when not included in the experimental data
#
###############################################################################

data_LIXMEM
_chemical_formula_moiety         '(C168 H104 Eu8 O68)n'
_symmetry_cell_setting           triclinic
_symmetry_space_group_name_H-M   'P 1'
_symmetry_Int_Tables_number      1
_space_group_name_Hall           'P 1'
loop_
_symmetry_equiv_pos_site_id
_symmetry_equiv_pos_as_xyz
1 x,y,z
_cell_length_a                   29.797(3)
_cell_length_b                   9.0479(8)
_cell_length_c                   16.3496(14)
_cell_angle_alpha                90
_cell_angle_beta                 113.101(2)
_cell_angle_gamma                90
_cell_volume                     4054.41
loop_
_atom_site_label
_atom_site_type_symbol
_atom_site_fract_x
_atom_site_fract_y
_atom_site_fract_z
C8 C 0.2809(3) 0.0854(10) 0.0432(6)
C9 C 0.3143(3) 0.0987(11) 0.0049(6)
C10 C 0.3617(3) 0.1476(11) 0.0549(6)
H5 H 0.3842 0.1563 0.0288
C11 C 0.3746(3) 0.1824(9) 0.1425(6)
C12 C 0.3405(4) 0.1689(10) 0.1809(6)
H6 H 0.3494 0.1928 0.2406
C13 C 0.2937(3) 0.1204(11) 0.1315(6)
H7 H 0.2711 0.1116 0.1575
C20 C 0.4259(3) 0.2375(10) 0.1964(6)
O5 O 0.4541(2) 0.2398(9) 0.1586(4)
O6 O 0.4350(2) 0.2807(9) 0.2740(4)
Eu4 Eu 0.497477(16) 0.33333(6) 0.40925(3)
Eu5 Eu 0.502523(16) 0.33333(6) 0.09075(3)
C2 C 0.1338(3) 0.8619(10) 0.0199(6)
C4 C 0.2101(3) 0.9459(10) 0.0201(6)
C5 C 0.2348(3) 0.8366(9) 0.0790(6)
H2 H 0.2683 0.8255 0.0972
C6 C 0.2083(3) 0.7438(9) 0.1104(6)
C7 C 0.1578(3) 0.7522(10) 0.0811(5)
H3 H 0.1406 0.6866 0.1018
C14 C 0.2815(3) 0.6494(10) 0.2242(6)
C15 C 0.2989(3) 0.7732(11) 0.2743(6)
H8 H 0.2782 0.8516 0.2715
C16 C 0.3475(4) 0.7803(11) 0.3288(6)
H9 H 0.3599 0.8649 0.3623
C17 C 0.3779(3) 0.6640(11) 0.3342(6)
C18 C 0.3592(3) 0.5415(11) 0.2816(6)
H10 H 0.3798 0.4629 0.2840
C19 C 0.3105(3) 0.5330(10) 0.2255(6)
H11 H 0.2981 0.4504 0.1899
C21 C 0.4289(4) 0.6652(12) 0.3999(7)
Eu1 Eu 0.502523(16) 0.66667(6) 0.59075(3)
O2 O 0.0593(3) 0.7950(9) 0.0230(5)
O4 O 0.2313(2) 0.6328(7) 0.1720(4)
O7 O 0.4434(2) 0.7687(10) 0.4559(5)
O8 O 0.4572(2) 0.5586(9) 0.4022(5)
O9 O 0.5154(3) 0.9440(9) 0.5938(6)
Eu6 Eu 0.002523(16) 0.83333(6) 0.09075(3)
O10 O 0.4398(2) 0.4870(9) 0.5602(5)
O11 O 0.5593(3) 0.7050(9) 0.5230(5)
O12 O 0.4541(2) 0.7602(9) 0.6586(4)
O13 O 0.5650(2) 0.7193(9) 0.7260(4)
O14 O 0.5428(2) 0.4414(9) 0.5978(5)
H12 H 0.48524 0.995142 0.590445
H13 H 0.54289 0.971901 0.649881
Eu2 Eu 0.997477(16) 0.16667(6) 0.90925(3)
Eu2_2 Eu 0.002523(16) 0.16667(6) 0.59075(3)
H1 H 0.8561 0.0323 0.5502
C8_2 C 0.7191(3) 0.0854(10) 0.4568(6)
C9_2 C 0.6857(3) 0.0987(11) 0.4951(6)
H4 H 0.6946 0.0750 0.5548
C10_2 C 0.6383(3) 0.1476(11) 0.4451(6)
H5_2 H 0.6158 0.1563 0.4712
C11_2 C 0.6254(3) 0.1824(9) 0.3575(6)
C12_2 C 0.6595(4) 0.1689(10) 0.3191(6)
H6_2 H 0.6506 0.1928 0.2594
C13_2 C 0.7063(3) 0.1204(11) 0.3685(6)
H7_2 H 0.7289 0.1116 0.3425
C20_2 C 0.5741(3) 0.2375(10) 0.3036(6)
O3 O 0.7656(2) 0.0440(7) 0.5114(4)
O5_2 O 0.5459(2) 0.2398(9) 0.3414(4)
O6_2 O 0.5650(2) 0.2807(9) 0.2260(4)
C1 C 0.9202(3) 0.8823(12) 0.5071(7)
C2_2 C 0.8662(3) 0.8619(10) 0.4801(6)
C3 C 0.8399(3) 0.9584(10) 0.5098(6)
C4_2 C 0.7899(3) 0.9459(10) 0.4799(6)
C5_2 C 0.7652(3) 0.8366(9) 0.4210(6)
H2_2 H 0.7317 0.8255 0.4028
C6_2 C 0.7917(3) 0.7438(9) 0.3896(6)
C7_2 C 0.8422(3) 0.7522(10) 0.4189(5)
H3_2 H 0.8594 0.6866 0.3982
C14_2 C 0.7185(3) 0.6494(10) 0.2758(6)
C15_2 C 0.7011(3) 0.7732(11) 0.2257(6)
H8_2 H 0.7218 0.8516 0.2285
C16_2 C 0.6525(4) 0.7803(11) 0.1712(6)
H9_2 H 0.6401 0.8649 0.1377
C17_2 C 0.6221(3) 0.6640(11) 0.1658(6)
C18_2 C 0.6408(3) 0.5415(11) 0.2184(6)
H10_2 H 0.6202 0.4629 0.2160
C19_2 C 0.6895(3) 0.5330(10) 0.2745(6)
H11_2 H 0.7019 0.4504 0.3101
C21_2 C 0.5711(4) 0.6652(12) 0.1001(7)
O1 O 0.9398(2) 0.9870(9) 0.5602(5)
O2_2 O 0.9407(3) 0.7950(9) 0.4770(5)
O4_2 O 0.7687(2) 0.6328(7) 0.3280(4)
O7_2 O 0.5566(2) 0.7687(10) 0.0441(5)
O8_2 O 0.5428(2) 0.5586(9) 0.0978(5)
Eu6_2 Eu 0.997477(16) 0.83333(6) 0.40925(3)
Eu1_2 Eu 0.497477(16) 0.66667(6) 0.90925(3)
O9_2 O 0.4846(3) 0.9440(9) 0.9062(6)
O10_2 O 0.5602(2) 0.4870(9) 0.9398(5)
O11_2 O 0.4407(3) 0.7050(9) 0.9770(5)
O12_2 O 0.5459(2) 0.7602(9) 0.8414(4)
O13_2 O 0.4350(2) 0.7193(9) 0.7740(4)
O14_2 O 0.4572(2) 0.4414(9) 0.9022(5)
H12_2 H 0.51476 0.995142 0.909555
H13_2 H 0.45711 0.971901 0.850119
O9_3 O 0.0154(3) 0.4440(9) 0.5938(6)
O11_3 O 0.0593(3) 0.2050(9) 0.5230(5)
O13_3 O 0.0650(2) 0.2193(9) 0.7260(4)
H13_3 H 0.0428903 0.471901 0.649881
O14_3 O 0.0428(2) 0.9414(9) 0.5978(5)
C2_3 C 0.6338(3) 0.3619(10) 0.0199(6)
C4_3 C 0.7101(3) 0.4459(10) 0.0201(6)
C5_3 C 0.7348(3) 0.3366(9) 0.0790(6)
H2_3 H 0.7683 0.3255 0.0972
C6_3 C 0.7083(3) 0.2438(9) 0.1104(6)
C7_3 C 0.6578(3) 0.2522(10) 0.0811(5)
H3_3 H 0.6406 0.1866 0.1018
C8_3 C 0.7809(3) 0.5854(10) 0.0432(6)
C9_3 C 0.8143(3) 0.5987(11) 0.0049(6)
C10_3 C 0.8617(3) 0.6476(11) 0.0549(6)
H5_3 H 0.8842 0.6563 0.0288
C11_3 C 0.8746(3) 0.6824(9) 0.1425(6)
C12_3 C 0.8405(4) 0.6689(10) 0.1809(6)
H6_3 H 0.8494 0.6928 0.2406
C13_3 C 0.7937(3) 0.6204(11) 0.1315(6)
H7_3 H 0.7711 0.6116 0.1575
C14_3 C 0.7815(3) 0.1494(10) 0.2242(6)
C15_3 C 0.7989(3) 0.2732(11) 0.2743(6)
H8_3 H 0.7782 0.3516 0.2715
C16_3 C 0.8475(4) 0.2803(11) 0.3288(6)
H9_3 H 0.8599 0.3649 0.3623
C17_3 C 0.8779(3) 0.1640(11) 0.3342(6)
C18_3 C 0.8592(3) 0.0415(11) 0.2816(6)
C19_3 C 0.8105(3) 0.0330(10) 0.2255(6)
C20_3 C 0.9259(3) 0.7375(10) 0.1964(6)
C21_3 C 0.9289(4) 0.1652(12) 0.3999(7)
O2_3 O 0.5593(3) 0.2950(9) 0.0230(5)
O4_3 O 0.7313(2) 0.1328(7) 0.1720(4)
O5_3 O 0.9541(2) 0.7398(9) 0.1586(4)
O6_3 O 0.9350(2) 0.7807(9) 0.2740(4)
O7_3 O 0.9434(2) 0.2687(10) 0.4559(5)
O8_3 O 0.9572(2) 0.0586(9) 0.4022(5)
O12_3 O 0.9541(2) 0.2602(9) 0.6586(4)
H12_3 H 0.98524 0.495142 0.590445
C1_2 C 0.5798(3) 0.3823(12) 0.9929(7)
C3_2 C 0.6601(3) 0.4584(10) 0.9902(6)
H1_2 H 0.6439 0.5323 0.9498
H4_2 H 0.8054 0.5750 0.9452
O3_2 O 0.7344(2) 0.5440(7) 0.9886(4)
H10_3 H 0.8798 0.9629 0.2840
H11_3 H 0.7981 0.9504 0.1899
C1_3 C 0.4202(3) 0.3823(12) 0.5071(7)
C2_4 C 0.3662(3) 0.3619(10) 0.4801(6)
C3_3 C 0.3399(3) 0.4584(10) 0.5098(6)
H1_3 H 0.3561 0.5323 0.5502
C4_4 C 0.2899(3) 0.4459(10) 0.4799(6)
C5_4 C 0.2652(3) 0.3366(9) 0.4210(6)
H2_4 H 0.2317 0.3255 0.4028
C6_4 C 0.2917(3) 0.2438(9) 0.3896(6)
C7_4 C 0.3422(3) 0.2522(10) 0.4189(5)
H3_4 H 0.3594 0.1866 0.3982
C8_4 C 0.2191(3) 0.5854(10) 0.4568(6)
C9_4 C 0.1857(3) 0.5987(11) 0.4951(6)
H4_3 H 0.1946 0.5750 0.5548
C10_4 C 0.1383(3) 0.6476(11) 0.4451(6)
H5_4 H 0.1158 0.6563 0.4712
C11_4 C 0.1254(3) 0.6824(9) 0.3575(6)
C12_4 C 0.1595(4) 0.6689(10) 0.3191(6)
H6_4 H 0.1506 0.6928 0.2594
C13_4 C 0.2063(3) 0.6204(11) 0.3685(6)
H7_4 H 0.2289 0.6116 0.3425
C14_4 C 0.2185(3) 0.1494(10) 0.2758(6)
C15_4 C 0.2011(3) 0.2732(11) 0.2257(6)
H8_4 H 0.2218 0.3516 0.2285
C16_4 C 0.1525(4) 0.2803(11) 0.1712(6)
H9_4 H 0.1401 0.3649 0.1377
C17_4 C 0.1221(3) 0.1640(11) 0.1658(6)
C18_4 C 0.1408(3) 0.0415(11) 0.2184(6)
C19_4 C 0.1895(3) 0.0330(10) 0.2745(6)
C20_4 C 0.0741(3) 0.7375(10) 0.3036(6)
C21_4 C 0.0711(4) 0.1652(12) 0.1001(7)
O2_4 O 0.4407(3) 0.2950(9) 0.4770(5)
O3_3 O 0.2656(2) 0.5440(7) 0.5114(4)
O4_4 O 0.2687(2) 0.1328(7) 0.3280(4)
O5_4 O 0.0459(2) 0.7398(9) 0.3414(4)
O6_4 O 0.0650(2) 0.7807(9) 0.2260(4)
O7_4 O 0.0566(2) 0.2687(10) 0.0441(5)
O8_4 O 0.0428(2) 0.0586(9) 0.0978(5)
O12_4 O 0.0459(2) 0.2602(9) 0.8414(4)
H12_4 H 0.0147596 0.495142 0.909555
H10_4 H 0.1202 0.9629 0.2160
H11_4 H 0.2019 0.9504 0.3101
O9_4 O 0.9846(3) 0.4440(9) 0.9062(6)
O11_4 O 0.9407(3) 0.2050(9) 0.9770(5)
O13_4 O 0.9350(2) 0.2193(9) 0.7740(4)
H13_4 H 0.95711 0.471901 0.850119
O14_4 O 0.9572(2) 0.9414(9) 0.9022(5)
C2_5 C 0.8662(3) 0.1381(10) 0.9801(6)
C4_5 C 0.7899(3) 0.0541(10) 0.9799(6)
C5_5 C 0.7652(3) 0.1634(9) 0.9210(6)
H2_5 H 0.7317 0.1745 0.9028
C6_5 C 0.7917(3) 0.2562(9) 0.8896(6)
C7_5 C 0.8422(3) 0.2478(10) 0.9189(5)
H3_5 H 0.8594 0.3134 0.8982
C14_5 C 0.7185(3) 0.3506(10) 0.7758(6)
C15_5 C 0.7011(3) 0.2268(11) 0.7257(6)
H8_5 H 0.7218 0.1484 0.7285
C16_5 C 0.6525(4) 0.2197(11) 0.6712(6)
H9_5 H 0.6401 0.1351 0.6377
C17_5 C 0.6221(3) 0.3360(11) 0.6658(6)
C18_5 C 0.6408(3) 0.4585(11) 0.7184(6)
H10_5 H 0.6202 0.5371 0.7160
C19_5 C 0.6895(3) 0.4670(10) 0.7745(6)
H11_5 H 0.7019 0.5496 0.8101
C21_5 C 0.5711(4) 0.3348(12) 0.6001(7)
O4_5 O 0.7687(2) 0.3672(7) 0.8280(4)
O7_5 O 0.5566(2) 0.2313(10) 0.5441(5)
O9_5 O 0.4846(3) 0.0560(9) 0.4062(6)
O10_3 O 0.5602(2) 0.5130(9) 0.4398(5)
H12_5 H 0.51476 0.00485763 0.409555
H13_5 H 0.45711 0.0280994 0.350119
C8_5 C 0.7191(3) 0.9146(10) 0.9568(6)
C9_5 C 0.6857(3) 0.9013(11) 0.9951(6)
C10_5 C 0.6383(3) 0.8524(11) 0.9451(6)
H5_5 H 0.6158 0.8437 0.9712
C11_5 C 0.6254(3) 0.8176(9) 0.8575(6)
C12_5 C 0.6595(4) 0.8311(10) 0.8191(6)
H6_5 H 0.6506 0.8072 0.7594
C13_5 C 0.7063(3) 0.8796(11) 0.8685(6)
H7_5 H 0.7289 0.8884 0.8425
C20_5 C 0.5741(3) 0.7625(10) 0.8036(6)
O9_6 O 0.5154(3) 0.0560(9) 0.0938(6)
O10_4 O 0.4398(2) 0.5130(9) 0.0602(5)
H12_6 H 0.48524 0.00485763 0.0904449
H13_6 H 0.54289 0.0280994 0.149881
C1_4 C 0.0798(3) 0.1177(12) 0.4929(7)
C2_6 C 0.1338(3) 0.1381(10) 0.5199(6)
C3_4 C 0.1601(3) 0.0416(10) 0.4902(6)
C4_6 C 0.2101(3) 0.0541(10) 0.5201(6)
C5_6 C 0.2348(3) 0.1634(9) 0.5790(6)
H2_6 H 0.2683 0.1745 0.5972
C6_6 C 0.2083(3) 0.2562(9) 0.6104(6)
C7_6 C 0.1578(3) 0.2478(10) 0.5811(5)
H3_6 H 0.1406 0.3134 0.6018
C14_6 C 0.2815(3) 0.3506(10) 0.7242(6)
C15_6 C 0.2989(3) 0.2268(11) 0.7743(6)
H8_6 H 0.2782 0.1484 0.7715
C16_6 C 0.3475(4) 0.2197(11) 0.8288(6)
H9_6 H 0.3599 0.1351 0.8623
C17_6 C 0.3779(3) 0.3360(11) 0.8342(6)
C18_6 C 0.3592(3) 0.4585(11) 0.7816(6)
H10_6 H 0.3798 0.5371 0.7840
C19_6 C 0.3105(3) 0.4670(10) 0.7255(6)
H11_6 H 0.2981 0.5496 0.6899
C21_6 C 0.4289(4) 0.3348(12) 0.8999(7)
O1_2 O 0.0602(2) 0.0130(9) 0.4398(5)
O4_6 O 0.2313(2) 0.3672(7) 0.6720(4)
O7_6 O 0.4434(2) 0.2313(10) 0.9559(5)
H1_4 H 0.1439 0.9677 0.4498
C8_6 C 0.2809(3) 0.9146(10) 0.5432(6)
C9_6 C 0.3143(3) 0.9013(11) 0.5049(6)
H4_4 H 0.3054 0.9250 0.4452
C10_6 C 0.3617(3) 0.8524(11) 0.5549(6)
H5_6 H 0.3842 0.8437 0.5288
C11_6 C 0.3746(3) 0.8176(9) 0.6425(6)
C12_6 C 0.3405(4) 0.8311(10) 0.6809(6)
H6_6 H 0.3494 0.8072 0.7406
C13_6 C 0.2937(3) 0.8796(11) 0.6315(6)
H7_6 H 0.2711 0.8884 0.6575
C20_6 C 0.4259(3) 0.7625(10) 0.6964(6)
O3_4 O 0.2344(2) 0.9560(7) 0.4886(4)
H10_7 H 0.1202 0.0371 0.7160
H11_7 H 0.2019 0.0496 0.8101
C1_5 C 0.4202(3) 0.6177(12) 0.0071(7)
C3_5 C 0.3399(3) 0.5416(10) 0.0098(6)
H1_5 H 0.3561 0.4677 0.0502
H4_5 H 0.1946 0.4250 0.0548
O3_5 O 0.2656(2) 0.4560(7) 0.0114(4)
C2_7 C 0.3662(3) 0.6381(10) 0.9801(6)
C4_7 C 0.2899(3) 0.5541(10) 0.9799(6)
C5_7 C 0.2652(3) 0.6634(9) 0.9210(6)
H2_7 H 0.2317 0.6745 0.9028
C6_7 C 0.2917(3) 0.7562(9) 0.8896(6)
C7_7 C 0.3422(3) 0.7478(10) 0.9189(5)
H3_7 H 0.3594 0.8134 0.8982
C8_7 C 0.2191(3) 0.4146(10) 0.9568(6)
C9_7 C 0.1857(3) 0.4013(11) 0.9951(6)
C10_7 C 0.1383(3) 0.3524(11) 0.9451(6)
H5_7 H 0.1158 0.3437 0.9712
C11_7 C 0.1254(3) 0.3176(9) 0.8575(6)
C12_7 C 0.1595(4) 0.3311(10) 0.8191(6)
H6_7 H 0.1506 0.3072 0.7594
C13_7 C 0.2063(3) 0.3796(11) 0.8685(6)
H7_7 H 0.2289 0.3884 0.8425
C14_7 C 0.2185(3) 0.8506(10) 0.7758(6)
C15_7 C 0.2011(3) 0.7268(11) 0.7257(6)
H8_7 H 0.2218 0.6484 0.7285
C16_7 C 0.1525(4) 0.7197(11) 0.6712(6)
H9_7 H 0.1401 0.6351 0.6377
C17_7 C 0.1221(3) 0.8360(11) 0.6658(6)
C18_7 C 0.1408(3) 0.9585(11) 0.7184(6)
C19_7 C 0.1895(3) 0.9670(10) 0.7745(6)
C20_7 C 0.0741(3) 0.2625(10) 0.8036(6)
C21_7 C 0.0711(4) 0.8348(12) 0.6001(7)
O4_7 O 0.2687(2) 0.8672(7) 0.8280(4)
O7_7 O 0.0566(2) 0.7313(10) 0.5441(5)
H12_7 H 0.0147596 0.504858 0.409555
O9_7 O 0.9846(3) 0.5560(9) 0.4062(6)
H13_7 H 0.95711 0.528099 0.350119
O9_8 O 0.0154(3) 0.5560(9) 0.0938(6)
H13_8 H 0.0428903 0.528099 0.149881
H10_8 H 0.8798 0.0371 0.7840
H11_8 H 0.7981 0.0496 0.6899
H12_8 H 0.98524 0.504858 0.0904449
C1_6 C 0.5798(3) 0.6177(12) 0.4929(7)
C2_8 C 0.6338(3) 0.6381(10) 0.5199(6)
C3_6 C 0.6601(3) 0.5416(10) 0.4902(6)
H1_6 H 0.6439 0.4677 0.4498
C4_8 C 0.7101(3) 0.5541(10) 0.5201(6)
C5_8 C 0.7348(3) 0.6634(9) 0.5790(6)
H2_8 H 0.7683 0.6745 0.5972
C6_8 C 0.7083(3) 0.7562(9) 0.6104(6)
C7_8 C 0.6578(3) 0.7478(10) 0.5811(5)
H3_8 H 0.6406 0.8134 0.6018
C8_8 C 0.7809(3) 0.4146(10) 0.5432(6)
C9_8 C 0.8143(3) 0.4013(11) 0.5049(6)
H4_6 H 0.8054 0.4250 0.4452
C10_8 C 0.8617(3) 0.3524(11) 0.5549(6)
H5_8 H 0.8842 0.3437 0.5288
C11_8 C 0.8746(3) 0.3176(9) 0.6425(6)
C12_8 C 0.8405(4) 0.3311(10) 0.6809(6)
H6_8 H 0.8494 0.3072 0.7406
C13_8 C 0.7937(3) 0.3796(11) 0.6315(6)
H7_8 H 0.7711 0.3884 0.6575
C14_8 C 0.7815(3) 0.8506(10) 0.7242(6)
C15_8 C 0.7989(3) 0.7268(11) 0.7743(6)
H8_8 H 0.7782 0.6484 0.7715
C16_8 C 0.8475(4) 0.7197(11) 0.8288(6)
H9_8 H 0.8599 0.6351 0.8623
C17_8 C 0.8779(3) 0.8360(11) 0.8342(6)
C18_8 C 0.8592(3) 0.9585(11) 0.7816(6)
C19_8 C 0.8105(3) 0.9670(10) 0.7255(6)
C20_8 C 0.9259(3) 0.2625(10) 0.6964(6)
C21_8 C 0.9289(4) 0.8348(12) 0.8999(7)
O3_6 O 0.7344(2) 0.4560(7) 0.4886(4)
O4_8 O 0.7313(2) 0.8672(7) 0.6720(4)
O7_8 O 0.9434(2) 0.7313(10) 0.9559(5)
H1_7 H 0.1439 0.0323 0.9498
H4_7 H 0.3054 0.0750 0.9452
O3_7 O 0.2344(2) 0.0440(7) 0.9886(4)
C1_7 C 0.0798(3) 0.8823(12) 0.9929(7)
C3_7 C 0.1601(3) 0.9584(10) 0.9902(6)
O1_3 O 0.0602(2) 0.9870(9) 0.9398(5)
C1_8 C 0.9202(3) 0.1177(12) 0.0071(7)
C3_8 C 0.8399(3) 0.0416(10) 0.0098(6)
O1_4 O 0.9398(2) 0.0130(9) 0.0602(5)
H1_8 H 0.8561 0.9677 0.0502
H4_8 H 0.6946 0.9250 0.0548
O3_8 O 0.7656(2) 0.9560(7) 0.0114(4)
loop_
_geom_bond_atom_site_label_1
_geom_bond_atom_site_label_2
_geom_bond_site_symmetry_1
_geom_bond_site_symmetry_2
C8 C9 1_555 1_555
C10 C9 1_555 1_555
H5 C10 1_555 1_555
C11 C10 1_555 1_555
C12 C11 1_555 1_555
H6 C12 1_555 1_555
C13 C8 1_555 1_555
H7 C13 1_555 1_555
C20 C11 1_555 1_555
O5 C20 1_555 1_555
O6 C20 1_555 1_555
Eu4 O6 1_555 1_555
Eu5 O5 1_555 1_555
C12 C13 1_555 1_555
C5 C4 1_555 1_555
H2 C5 1_555 1_555
C6 C5 1_555 1_555
C7 C2 1_555 1_555
H3 C7 1_555 1_555
C14 C15 1_555 1_555
C15 H8 1_555 1_555
C16 C15 1_555 1_555
H9 C16 1_555 1_555
C17 C16 1_555 1_555
C18 C17 1_555 1_555
H10 C18 1_555 1_555
C19 C14 1_555 1_555
H11 C19 1_555 1_555
C21 C17 1_555 1_555
Eu1 O7 1_555 1_555
O4 C6 1_555 1_555
O7 C21 1_555 1_555
O8 C21 1_555 1_555
O9 Eu1 1_555 1_555
Eu4 O8 1_555 1_555
Eu6 O2 1_555 1_555
O10 Eu1 1_555 1_555
O11 Eu1 1_555 1_555
O12 Eu1 1_555 1_555
O13 Eu1 1_555 1_555
O14 Eu1 1_555 1_555
C6 C7 1_555 1_555
C14 O4 1_555 1_555
C18 C19 1_555 1_555
O9 H12 1_555 1_555
O9 H13 1_555 1_555
C8_2 C9_2 1_555 1_555
C9_2 H4 1_555 1_555
C10_2 C9_2 1_555 1_555
H5_2 C10_2 1_555 1_555
C11_2 C10_2 1_555 1_555
C12_2 C11_2 1_555 1_555
H6_2 C12_2 1_555 1_555
C13_2 C8_2 1_555 1_555
H7_2 C13_2 1_555 1_555
C20_2 C11_2 1_555 1_555
O5_2 C20_2 1_555 1_555
O6_2 C20_2 1_555 1_555
Eu5 O6_2 1_555 1_555
Eu4 O5_2 1_555 1_555
C8_2 O3 1_555 1_555
C12_2 C13_2 1_555 1_555
C1 C2_2 1_555 1_555
C2_2 C3 1_555 1_555
C4_2 C3 1_555 1_555
C5_2 C4_2 1_555 1_555
H2_2 C5_2 1_555 1_555
C6_2 C5_2 1_555 1_555
C7_2 C2_2 1_555 1_555
H3_2 C7_2 1_555 1_555
C14_2 C15_2 1_555 1_555
C15_2 H8_2 1_555 1_555
C16_2 C15_2 1_555 1_555
H9_2 C16_2 1_555 1_555
C17_2 C16_2 1_555 1_555
C18_2 C17_2 1_555 1_555
H10_2 C18_2 1_555 1_555
C19_2 C14_2 1_555 1_555
H11_2 C19_2 1_555 1_555
C21_2 C17_2 1_555 1_555
O1 C1 1_555 1_555
O2_2 C1 1_555 1_555
O4_2 C6_2 1_555 1_555
O7_2 C21_2 1_555 1_555
O8_2 C21_2 1_555 1_555
Eu5 O8_2 1_555 1_555
Eu6_2 O2_2 1_555 1_555
C6_2 C7_2 1_555 1_555
C14_2 O4_2 1_555 1_555
C18_2 C19_2 1_555 1_555
O9_2 Eu1_2 1_555 1_555
O10_2 Eu1_2 1_555 1_555
O11_2 Eu1_2 1_555 1_555
O12_2 Eu1_2 1_555 1_555
O13_2 Eu1_2 1_555 1_555
O14_2 Eu1_2 1_555 1_555
O9_2 H12_2 1_555 1_555
O9_2 H13_2 1_555 1_555
O9_3 Eu2_2 1_555 1_555
O11_3 Eu2_2 1_555 1_555
O13_3 Eu2_2 1_555 1_555
O9_3 H13_3 1_555 1_555
C5_3 C4_3 1_555 1_555
H2_3 C5_3 1_555 1_555
C6_3 C5_3 1_555 1_555
C7_3 C2_3 1_555 1_555
H3_3 C7_3 1_555 1_555
C8_3 C9_3 1_555 1_555
C10_3 C9_3 1_555 1_555
H5_3 C10_3 1_555 1_555
C11_3 C10_3 1_555 1_555
C12_3 C11_3 1_555 1_555
H6_3 C12_3 1_555 1_555
C13_3 C8_3 1_555 1_555
H7_3 C13_3 1_555 1_555
C14_3 C15_3 1_555 1_555
C15_3 H8_3 1_555 1_555
C16_3 C15_3 1_555 1_555
H9_3 C16_3 1_555 1_555
C17_3 C16_3 1_555 1_555
C18_3 C17_3 1_555 1_555
C19_3 C14_3 1_555 1_555
C20_3 C11_3 1_555 1_555
C21_3 C17_3 1_555 1_555
O4_3 C6_3 1_555 1_555
O5_3 C20_3 1_555 1_555
O6_3 C20_3 1_555 1_555
O7_3 C21_3 1_555 1_555
O8_3 C21_3 1_555 1_555
Eu6_2 O6_3 1_555 1_555
Eu5 O2_3 1_555 1_555
C6_3 C7_3 1_555 1_555
C12_3 C13_3 1_555 1_555
C14_3 O4_3 1_555 1_555
C18_3 C19_3 1_555 1_555
C3_2 H1_2 1_555 1_555
O10_2 C1_2 1_555 1_555
C1_3 C2_4 1_555 1_555
C2_4 C3_3 1_555 1_555
C3_3 H1_3 1_555 1_555
C4_4 C3_3 1_555 1_555
C5_4 C4_4 1_555 1_555
H2_4 C5_4 1_555 1_555
C6_4 C5_4 1_555 1_555
C7_4 C2_4 1_555 1_555
H3_4 C7_4 1_555 1_555
C8_4 C9_4 1_555 1_555
C9_4 H4_3 1_555 1_555
C10_4 C9_4 1_555 1_555
H5_4 C10_4 1_555 1_555
C11_4 C10_4 1_555 1_555
C12_4 C11_4 1_555 1_555
H6_4 C12_4 1_555 1_555
C13_4 C8_4 1_555 1_555
H7_4 C13_4 1_555 1_555
C14_4 C15_4 1_555 1_555
C15_4 H8_4 1_555 1_555
C16_4 C15_4 1_555 1_555
H9_4 C16_4 1_555 1_555
C17_4 C16_4 1_555 1_555
C18_4 C17_4 1_555 1_555
C19_4 C14_4 1_555 1_555
C20_4 C11_4 1_555 1_555
C21_4 C17_4 1_555 1_555
O10 C1_3 1_555 1_555
O2_4 C1_3 1_555 1_555
O3_3 C4_4 1_555 1_555
O4_4 C6_4 1_555 1_555
O5_4 C20_4 1_555 1_555
O6_4 C20_4 1_555 1_555
O7_4 C21_4 1_555 1_555
O8_4 C21_4 1_555 1_555
Eu6 O6_4 1_555 1_555
Eu4 O2_4 1_555 1_555
C6_4 C7_4 1_555 1_555
C8_4 O3_3 1_555 1_555
C12_4 C13_4 1_555 1_555
C14_4 O4_4 1_555 1_555
C18_4 C19_4 1_555 1_555
O9_4 Eu2 1_555 1_555
O11_4 Eu2 1_555 1_555
O13_4 Eu2 1_555 1_555
O9_4 H13_4 1_555 1_555
C5_5 C4_5 1_555 1_555
H2_5 C5_5 1_555 1_555
C6_5 C5_5 1_555 1_555
C7_5 C2_5 1_555 1_555
H3_5 C7_5 1_555 1_555
C14_5 C15_5 1_555 1_555
C15_5 H8_5 1_555 1_555
C16_5 C15_5 1_555 1_555
H9_5 C16_5 1_555 1_555
C17_5 C16_5 1_555 1_555
C18_5 C17_5 1_555 1_555
H10_5 C18_5 1_555 1_555
C19_5 C14_5 1_555 1_555
H11_5 C19_5 1_555 1_555
C21_5 C17_5 1_555 1_555
Eu4 O7_5 1_555 1_555
O4_5 C6_5 1_555 1_555
O7_5 C21_5 1_555 1_555
O14 C21_5 1_555 1_555
O9_5 Eu4 1_555 1_555
O10_3 Eu4 1_555 1_555
C6_5 C7_5 1_555 1_555
C14_5 O4_5 1_555 1_555
C18_5 C19_5 1_555 1_555
O9_5 H12_5 1_555 1_555
O9_5 H13_5 1_555 1_555
C8_5 C9_5 1_555 1_555
C10_5 C9_5 1_555 1_555
H5_5 C10_5 1_555 1_555
C11_5 C10_5 1_555 1_555
C12_5 C11_5 1_555 1_555
H6_5 C12_5 1_555 1_555
C13_5 C8_5 1_555 1_555
H7_5 C13_5 1_555 1_555
C20_5 C11_5 1_555 1_555
O12_2 C20_5 1_555 1_555
O13 C20_5 1_555 1_555
C12_5 C13_5 1_555 1_555
O9_6 Eu5 1_555 1_555
O10_4 Eu5 1_555 1_555
O9_6 H12_6 1_555 1_555
O9_6 H13_6 1_555 1_555
C1_4 C2_6 1_555 1_555
C2_6 C3_4 1_555 1_555
C4_6 C3_4 1_555 1_555
C5_6 C4_6 1_555 1_555
H2_6 C5_6 1_555 1_555
C6_6 C5_6 1_555 1_555
C7_6 C2_6 1_555 1_555
H3_6 C7_6 1_555 1_555
C14_6 C15_6 1_555 1_555
C15_6 H8_6 1_555 1_555
C16_6 C15_6 1_555 1_555
H9_6 C16_6 1_555 1_555
C17_6 C16_6 1_555 1_555
C18_6 C17_6 1_555 1_555
H10_6 C18_6 1_555 1_555
C19_6 C14_6 1_555 1_555
H11_6 C19_6 1_555 1_555
C21_6 C17_6 1_555 1_555
O1_2 C1_4 1_555 1_555
O11_3 C1_4 1_555 1_555
O4_6 C6_6 1_555 1_555
O7_6 C21_6 1_555 1_555
O14_2 C21_6 1_555 1_555
C6_6 C7_6 1_555 1_555
C14_6 O4_6 1_555 1_555
C18_6 C19_6 1_555 1_555
C8_6 C9_6 1_555 1_555
C9_6 H4_4 1_555 1_555
C10_6 C9_6 1_555 1_555
H5_6 C10_6 1_555 1_555
C11_6 C10_6 1_555 1_555
C12_6 C11_6 1_555 1_555
H6_6 C12_6 1_555 1_555
C13_6 C8_6 1_555 1_555
H7_6 C13_6 1_555 1_555
C20_6 C11_6 1_555 1_555
O12 C20_6 1_555 1_555
O13_2 C20_6 1_555 1_555
C8_6 O3_4 1_555 1_555
C12_6 C13_6 1_555 1_555
C3_5 H1_5 1_555 1_555
O10_4 C1_5 1_555 1_555
C5_7 C4_7 1_555 1_555
H2_7 C5_7 1_555 1_555
C6_7 C5_7 1_555 1_555
C7_7 C2_7 1_555 1_555
H3_7 C7_7 1_555 1_555
C8_7 C9_7 1_555 1_555
C10_7 C9_7 1_555 1_555
H5_7 C10_7 1_555 1_555
C11_7 C10_7 1_555 1_555
C12_7 C11_7 1_555 1_555
H6_7 C12_7 1_555 1_555
C13_7 C8_7 1_555 1_555
H7_7 C13_7 1_555 1_555
C14_7 C15_7 1_555 1_555
C15_7 H8_7 1_555 1_555
C16_7 C15_7 1_555 1_555
H9_7 C16_7 1_555 1_555
C17_7 C16_7 1_555 1_555
C18_7 C17_7 1_555 1_555
C19_7 C14_7 1_555 1_555
C20_7 C11_7 1_555 1_555
C21_7 C17_7 1_555 1_555
O4_7 C6_7 1_555 1_555
O12_4 C20_7 1_555 1_555
O13_3 C20_7 1_555 1_555
O7_7 C21_7 1_555 1_555
O14_3 C21_7 1_555 1_555
C6_7 C7_7 1_555 1_555
C12_7 C13_7 1_555 1_555
C14_7 O4_7 1_555 1_555
C18_7 C19_7 1_555 1_555
O9_7 Eu6_2 1_555 1_555
O9_7 H13_7 1_555 1_555
O9_8 Eu6 1_555 1_555
O9_8 H13_8 1_555 1_555
C1_6 C2_8 1_555 1_555
C2_8 C3_6 1_555 1_555
C3_6 H1_6 1_555 1_555
C4_8 C3_6 1_555 1_555
C5_8 C4_8 1_555 1_555
H2_8 C5_8 1_555 1_555
C6_8 C5_8 1_555 1_555
C7_8 C2_8 1_555 1_555
H3_8 C7_8 1_555 1_555
C8_8 C9_8 1_555 1_555
C9_8 H4_6 1_555 1_555
C10_8 C9_8 1_555 1_555
H5_8 C10_8 1_555 1_555
C11_8 C10_8 1_555 1_555
C12_8 C11_8 1_555 1_555
H6_8 C12_8 1_555 1_555
C13_8 C8_8 1_555 1_555
H7_8 C13_8 1_555 1_555
C14_8 C15_8 1_555 1_555
C15_8 H8_8 1_555 1_555
C16_8 C15_8 1_555 1_555
H9_8 C16_8 1_555 1_555
C17_8 C16_8 1_555 1_555
C18_8 C17_8 1_555 1_555
C19_8 C14_8 1_555 1_555
C20_8 C11_8 1_555 1_555
C21_8 C17_8 1_555 1_555
O10_3 C1_6 1_555 1_555
O11 C1_6 1_555 1_555
O3_6 C4_8 1_555 1_555
O4_8 C6_8 1_555 1_555
O12_3 C20_8 1_555 1_555
O13_4 C20_8 1_555 1_555
O7_8 C21_8 1_555 1_555
O14_4 C21_8 1_555 1_555
C6_8 C7_8 1_555 1_555
C8_8 O3_6 1_555 1_555
C12_8 C13_8 1_555 1_555
C14_8 O4_8 1_555 1_555
C18_8 C19_8 1_555 1_555
O1_3 C1_7 1_555 1_555
O1_4 C1_8 1_555 1_555

#END
