
###############################################################################
#
# This file contains modified crystal structure data generated from the
# MOF subset of the Cambridge Structural Database (CSD) v543 
# hosted by the Cambridge Crystallographic Data Centre (CCDC).
#
# This work is licensed under the Creative Commons
# Attribution-NonCommercial-ShareAlike 4.0 International License.
# To view a copy of this license, visit
# http://creativecommons.org/licenses/by-nc-sa/4.0/
# or send a letter to
# Creative Commons, PO Box 1866, Mountain View, CA 94042, USA.
#
# CIF created using the CSD Python API on 29 September 2022
# The structure has been converted into the P1 space group
# The structure has a 3D framework
# The original CSD entry LIXMIQ is in the monoclinic crystal system
# The framework has been calculated to contain at least 10.0% void space
# The void calculation uses a probe of radius 1.32A, grid spacing 0.4
# H atom positions have been added when not included in the experimental data
# Generated hydrogen atom positions removed from atoms on special positions
#
###############################################################################

data_LIXMIQ
_chemical_formula_moiety         '(C168 H120 Gd8 O78)n'
_symmetry_cell_setting           triclinic
_symmetry_space_group_name_H-M   'P 1'
_symmetry_Int_Tables_number      1
_space_group_name_Hall           'P 1'
loop_
_symmetry_equiv_pos_site_id
_symmetry_equiv_pos_as_xyz
1 x,y,z
_cell_length_a                   29.889(9)
_cell_length_b                   9.4071(17)
_cell_length_c                   16.056(4)
_cell_angle_alpha                90
_cell_angle_beta                 112.318(8)
_cell_angle_gamma                90
_cell_volume                     4176.27
loop_
_atom_site_label
_atom_site_type_symbol
_atom_site_fract_x
_atom_site_fract_y
_atom_site_fract_z
Gd9 Gd 0.003247(18) 0.65880(7) 0.09808(4)
Gd11 Gd 0.503247(18) 0.15880(7) 0.09808(4)
O21 O 0.0551(3) 0.2472(12) 0.0413(6)
O9 O 0.0000 0.4893(14) 0.7500
C22 C 0.4306(4) 0.1572(15) 0.8981(9)
C23 C 0.4230(4) 0.7348(13) 0.6924(8)
C24 C 0.3728(4) 0.6847(11) 0.6388(7)
C25 C 0.3594(4) 0.6487(13) 0.5475(7)
H12 H 0.3818 0.6569 0.5206
C26 C 0.3135(4) 0.6014(13) 0.4975(7)
H13 H 0.3050 0.5778 0.4372
C27 C 0.2802(4) 0.5894(12) 0.5372(7)
C28 C 0.2912(4) 0.6252(12) 0.6275(7)
H14 H 0.2681 0.6175 0.6530
C29 C 0.3378(4) 0.6727(12) 0.6780(8)
H15 H 0.3460 0.6969 0.7381
C30 C 0.3785(4) 0.1633(12) 0.8323(7)
C31 C 0.3499(4) 0.2818(13) 0.8251(7)
H16 H 0.3639 0.3630 0.8577
C32 C 0.3007(4) 0.2837(12) 0.7706(7)
H17 H 0.2819 0.3644 0.7660
C33 C 0.2810(3) 0.1607(12) 0.7237(7)
C34 C 0.3087(3) 0.0385(12) 0.7274(7)
C35 C 0.3579(4) 0.0408(13) 0.7819(7)
C36 C 0.2346(3) 0.3440(11) 0.5764(6)
H20 H 0.2678 0.3333 0.5932
C37 C 0.2098(4) 0.4513(12) 0.5164(6)
C38 C 0.1600(4) 0.4657(12) 0.4865(7)
H21 H 0.1438 0.5373 0.4464
C39 C 0.1349(4) 0.3690(13) 0.5187(7)
C40 C 0.1589(3) 0.2631(12) 0.5809(7)
H22 H 0.1417 0.2002 0.6021
C41 C 0.2090(3) 0.2539(11) 0.6104(6)
C42 C 0.0806(4) 0.3940(16) 0.4922(9)
Gd2 Gd 0.003247(18) 0.34120(7) 0.59808(4)
O11 O 0.4449(3) 0.2528(12) 0.9587(6)
O12 O 0.4571(3) 0.0570(11) 0.8925(7)
O13 O 0.4313(3) 0.7810(10) 0.7722(6)
O14 O 0.4537(3) 0.7223(9) 0.6570(5)
O15 O 0.2335(2) 0.5453(9) 0.4819(5)
O16 O 0.2311(2) 0.1478(8) 0.6714(5)
O17 O 0.0614(3) 0.4932(11) 0.4388(7)
O18 O 0.0587(3) 0.3097(11) 0.5253(7)
O19 O 0.0206(4) 0.0813(12) 0.5912(6)
Gd5 Gd 0.496753(18) 0.84120(7) 0.90192(4)
Gd8 Gd 0.503247(18) 0.84120(7) 0.59808(4)
O22 O 0.0429(3) 0.5570(11) 0.6075(7)
O24 O 0.0687(3) 0.2810(10) 0.7278(6)
O26 O 0.0463(3) 0.2223(9) 0.8430(5)
O28 O 0.0614(3) 0.5068(11) 0.9388(7)
H18 H 0.2947 0.9579 0.6942
H19 H 0.3770 0.9615 0.7849
C5 C 0.6865(4) 0.6014(13) 0.0025(7)
H2 H 0.6950 0.5778 0.0628
C17 C 0.8400(4) 0.4657(12) 0.0135(7)
H10 H 0.8562 0.5373 0.0536
C21 C 0.9194(4) 0.3940(16) 0.0078(9)
O5 O 0.7665(2) 0.5453(9) 0.0181(5)
O7 O 0.9386(3) 0.4932(11) 0.0612(7)
C1 C 0.5694(4) 0.1572(15) 0.6019(9)
C2 C 0.5770(4) 0.7348(13) 0.8076(8)
C3 C 0.6272(4) 0.6847(11) 0.8612(7)
C4 C 0.6406(4) 0.6487(13) 0.9525(7)
H1 H 0.6182 0.6569 0.9794
C6 C 0.7198(4) 0.5894(12) 0.9628(7)
C7 C 0.7088(4) 0.6252(12) 0.8725(7)
H3 H 0.7319 0.6175 0.8470
C8 C 0.6622(4) 0.6727(12) 0.8220(8)
H4 H 0.6540 0.6969 0.7619
C9 C 0.6215(4) 0.1633(12) 0.6677(7)
C10 C 0.6501(4) 0.2818(13) 0.6749(7)
H5 H 0.6361 0.3630 0.6423
C11 C 0.6993(4) 0.2837(12) 0.7294(7)
H6 H 0.7181 0.3644 0.7340
C12 C 0.7190(3) 0.1607(12) 0.7763(7)
C13 C 0.6913(3) 0.0385(12) 0.7726(7)
C14 C 0.6421(4) 0.0408(13) 0.7181(7)
C15 C 0.7654(3) 0.3440(11) 0.9236(6)
H9 H 0.7322 0.3333 0.9068
C16 C 0.7902(4) 0.4513(12) 0.9836(6)
C18 C 0.8651(4) 0.3690(13) 0.9813(7)
C19 C 0.8411(3) 0.2631(12) 0.9191(7)
H11 H 0.8583 0.2002 0.8979
C20 C 0.7910(3) 0.2539(11) 0.8896(6)
Gd1 Gd 0.996753(18) 0.34120(7) 0.90192(4)
O1 O 0.5551(3) 0.2528(12) 0.5413(6)
O2 O 0.5429(3) 0.0570(11) 0.6075(7)
O3 O 0.5687(3) 0.7810(10) 0.7278(6)
O4 O 0.5463(3) 0.7223(9) 0.8430(5)
O6 O 0.7689(2) 0.1478(8) 0.8286(5)
O8 O 0.9413(3) 0.3097(11) 0.9747(7)
O9_2 O 1.0000 0.4893(14) 0.7500
O10 O 0.9794(4) 0.0813(12) 0.9088(6)
Gd10 Gd 0.996753(18) 0.65880(7) 0.40192(4)
Gd12 Gd 0.496753(18) 0.15880(7) 0.40192(4)
O20 O 0.9449(3) 0.2472(12) 0.4587(6)
O23 O 0.9571(3) 0.5570(11) 0.8925(7)
O25 O 0.9313(3) 0.2810(10) 0.7722(6)
O27 O 0.9537(3) 0.2223(9) 0.6570(5)
O29 O 0.9386(3) 0.5068(11) 0.5612(7)
H25 H 0.995959 0.0244638 0.604037
H7 H 0.7053 0.9579 0.8058
H8 H 0.6230 0.9615 0.7151
H25_2 H 0.0040406 0.0244638 0.895963
C5_2 C 0.1865(4) 0.1014(13) 0.0025(7)
H2_2 H 0.1950 0.0778 0.0628
H10_2 H 0.3562 0.0373 0.0536
O5_2 O 0.2665(2) 0.0453(9) 0.0181(5)
C2_2 C 0.0770(4) 0.2348(13) 0.8076(8)
C3_2 C 0.1272(4) 0.1847(11) 0.8612(7)
C4_2 C 0.1406(4) 0.1487(13) 0.9525(7)
H1_2 H 0.1182 0.1569 0.9794
C6_2 C 0.2198(4) 0.0894(12) 0.9628(7)
C7_2 C 0.2088(4) 0.1252(12) 0.8725(7)
H3_2 H 0.2319 0.1175 0.8470
C8_2 C 0.1622(4) 0.1727(12) 0.8220(8)
H4_2 H 0.1540 0.1969 0.7619
C23_2 C 0.9230(4) 0.2348(13) 0.6924(8)
C24_2 C 0.8728(4) 0.1847(11) 0.6388(7)
C25_2 C 0.8594(4) 0.1487(13) 0.5475(7)
H12_2 H 0.8818 0.1569 0.5206
C26_2 C 0.8135(4) 0.1014(13) 0.4975(7)
H13_2 H 0.8050 0.0778 0.4372
C27_2 C 0.7802(4) 0.0894(12) 0.5372(7)
C28_2 C 0.7912(4) 0.1252(12) 0.6275(7)
H14_2 H 0.7681 0.1175 0.6530
C29_2 C 0.8378(4) 0.1727(12) 0.6780(8)
H15_2 H 0.8460 0.1969 0.7381
H21_2 H 0.6438 0.0373 0.4464
O15_2 O 0.7335(2) 0.0453(9) 0.4819(5)
O28_2 O 0.5614(3) 0.0068(11) 0.9388(7)
O29_2 O 0.4386(3) 0.0068(11) 0.5612(7)
C17_2 C 0.3400(4) 0.9657(12) 0.0135(7)
C21_2 C 0.4194(4) 0.8940(16) 0.0078(9)
O7_2 O 0.4386(3) 0.9932(11) 0.0612(7)
O21_2 O 0.5551(3) 0.7472(12) 0.0413(6)
C1_2 C 0.0694(4) 0.6572(15) 0.6019(9)
C9_2 C 0.1215(4) 0.6633(12) 0.6677(7)
C10_2 C 0.1501(4) 0.7818(13) 0.6749(7)
H5_2 H 0.1361 0.8630 0.6423
C11_2 C 0.1993(4) 0.7837(12) 0.7294(7)
H6_2 H 0.2181 0.8644 0.7340
C12_2 C 0.2190(3) 0.6607(12) 0.7763(7)
C13_2 C 0.1913(3) 0.5385(12) 0.7726(7)
H7_2 H 0.2053 0.4579 0.8058
C14_2 C 0.1421(4) 0.5408(13) 0.7181(7)
H8_2 H 0.1230 0.4615 0.7151
C15_2 C 0.2654(3) 0.8440(11) 0.9236(6)
H9_2 H 0.2322 0.8333 0.9068
C16_2 C 0.2902(4) 0.9513(12) 0.9836(6)
C18_2 C 0.3651(4) 0.8690(13) 0.9813(7)
C19_2 C 0.3411(3) 0.7631(12) 0.9191(7)
H11_2 H 0.3583 0.7002 0.8979
C20_2 C 0.2910(3) 0.7539(11) 0.8896(6)
O1_2 O 0.0551(3) 0.7528(12) 0.5413(6)
O6_2 O 0.2689(2) 0.6478(8) 0.8286(5)
O8_2 O 0.4413(3) 0.8097(11) 0.9747(7)
O9_3 O 0.5000 0.9893(14) 0.7500
O10_2 O 0.4794(4) 0.5813(12) 0.9088(6)
C22_2 C 0.9306(4) 0.6572(15) 0.8981(9)
C30_2 C 0.8785(4) 0.6633(12) 0.8323(7)
C31_2 C 0.8499(4) 0.7818(13) 0.8251(7)
H16_2 H 0.8639 0.8630 0.8577
C32_2 C 0.8007(4) 0.7837(12) 0.7706(7)
H17_2 H 0.7819 0.8644 0.7660
C33_2 C 0.7810(3) 0.6607(12) 0.7237(7)
C34_2 C 0.8087(3) 0.5385(12) 0.7274(7)
H18_2 H 0.7947 0.4579 0.6942
C35_2 C 0.8579(4) 0.5408(13) 0.7819(7)
H19_2 H 0.8770 0.4615 0.7849
C36_2 C 0.7346(3) 0.8440(11) 0.5764(6)
H20_2 H 0.7678 0.8333 0.5932
C37_2 C 0.7098(4) 0.9513(12) 0.5164(6)
C38_2 C 0.6600(4) 0.9657(12) 0.4865(7)
C39_2 C 0.6349(4) 0.8690(13) 0.5187(7)
C40_2 C 0.6589(3) 0.7631(12) 0.5809(7)
H22_2 H 0.6417 0.7002 0.6021
C41_2 C 0.7090(3) 0.7539(11) 0.6104(6)
C42_2 C 0.5806(4) 0.8940(16) 0.4922(9)
O11_2 O 0.9449(3) 0.7528(12) 0.9587(6)
O16_2 O 0.7311(2) 0.6478(8) 0.6714(5)
O17_2 O 0.5614(3) 0.9932(11) 0.4388(7)
O18_2 O 0.5587(3) 0.8097(11) 0.5253(7)
O19_2 O 0.5206(4) 0.5813(12) 0.5912(6)
O20_2 O 0.4449(3) 0.7472(12) 0.4587(6)
H7_3 H 0.2947 0.0421 0.1942
H8_3 H 0.3770 0.0385 0.2849
C1_3 C 0.4306(4) 0.8428(15) 0.3981(9)
C2_3 C 0.4230(4) 0.2652(13) 0.1924(8)
C3_3 C 0.3728(4) 0.3153(11) 0.1388(7)
C4_3 C 0.3594(4) 0.3513(13) 0.0475(7)
H1_3 H 0.3818 0.3431 0.0206
C6_3 C 0.2802(4) 0.4106(12) 0.0372(7)
C7_3 C 0.2912(4) 0.3748(12) 0.1275(7)
H3_3 H 0.2681 0.3825 0.1530
C8_3 C 0.3378(4) 0.3273(12) 0.1780(8)
H4_3 H 0.3460 0.3031 0.2381
C9_3 C 0.3785(4) 0.8367(12) 0.3323(7)
C10_3 C 0.3499(4) 0.7182(13) 0.3251(7)
H5_3 H 0.3639 0.6370 0.3577
C11_3 C 0.3007(4) 0.7163(12) 0.2706(7)
H6_3 H 0.2819 0.6356 0.2660
C12_3 C 0.2810(3) 0.8393(12) 0.2237(7)
C13_3 C 0.3087(3) 0.9615(12) 0.2274(7)
C14_3 C 0.3579(4) 0.9592(13) 0.2819(7)
C15_3 C 0.2346(3) 0.6560(11) 0.0764(6)
H9_3 H 0.2678 0.6667 0.0932
C16_3 C 0.2098(4) 0.5487(12) 0.0164(6)
C18_3 C 0.1349(4) 0.6310(13) 0.0187(7)
C19_3 C 0.1589(3) 0.7369(12) 0.0809(7)
H11_3 H 0.1417 0.7998 0.1021
C20_3 C 0.2090(3) 0.7461(11) 0.1104(6)
O2_2 O 0.4571(3) 0.9430(11) 0.3925(7)
O3_2 O 0.4313(3) 0.2190(10) 0.2722(6)
O4_2 O 0.4537(3) 0.2777(9) 0.1570(5)
O6_3 O 0.2311(2) 0.8522(8) 0.1714(5)
O8_3 O 0.0587(3) 0.6903(11) 0.0253(7)
O9_4 O 0.0000 0.5107(14) 0.2500
O10_3 O 0.0206(4) 0.9187(12) 0.0912(6)
O23_2 O 0.0429(3) 0.4430(11) 0.1075(7)
O25_2 O 0.0687(3) 0.7190(10) 0.2278(6)
O27_2 O 0.0463(3) 0.7777(9) 0.3430(5)
H25_3 H 0.0040406 0.975536 0.395963
C5_3 C 0.3135(4) 0.3986(13) 0.9975(7)
H2_3 H 0.3050 0.4222 0.9372
C17_3 C 0.1600(4) 0.5343(12) 0.9865(7)
H10_3 H 0.1438 0.4627 0.9464
C21_3 C 0.0806(4) 0.6060(16) 0.9922(9)
O5_3 O 0.2335(2) 0.4547(9) 0.9819(5)
H18_3 H 0.7053 0.0421 0.3058
H19_3 H 0.6230 0.0385 0.2151
O9_5 O 1.0000 0.5107(14) 0.2500
C22_3 C 0.5694(4) 0.8428(15) 0.1019(9)
C23_3 C 0.5770(4) 0.2652(13) 0.3076(8)
C24_3 C 0.6272(4) 0.3153(11) 0.3612(7)
C25_3 C 0.6406(4) 0.3513(13) 0.4525(7)
H12_3 H 0.6182 0.3431 0.4794
C26_3 C 0.6865(4) 0.3986(13) 0.5025(7)
H13_3 H 0.6950 0.4222 0.5628
C27_3 C 0.7198(4) 0.4106(12) 0.4628(7)
C28_3 C 0.7088(4) 0.3748(12) 0.3725(7)
H14_3 H 0.7319 0.3825 0.3470
C29_3 C 0.6622(4) 0.3273(12) 0.3220(8)
H15_3 H 0.6540 0.3031 0.2619
C30_3 C 0.6215(4) 0.8367(12) 0.1677(7)
C31_3 C 0.6501(4) 0.7182(13) 0.1749(7)
H16_3 H 0.6361 0.6370 0.1423
C32_3 C 0.6993(4) 0.7163(12) 0.2294(7)
H17_3 H 0.7181 0.6356 0.2340
C33_3 C 0.7190(3) 0.8393(12) 0.2763(7)
C34_3 C 0.6913(3) 0.9615(12) 0.2726(7)
C35_3 C 0.6421(4) 0.9592(13) 0.2181(7)
C36_3 C 0.7654(3) 0.6560(11) 0.4236(6)
H20_3 H 0.7322 0.6667 0.4068
C37_3 C 0.7902(4) 0.5487(12) 0.4836(6)
C38_3 C 0.8400(4) 0.5343(12) 0.5135(7)
H21_3 H 0.8562 0.4627 0.5536
C39_3 C 0.8651(4) 0.6310(13) 0.4813(7)
C40_3 C 0.8411(3) 0.7369(12) 0.4191(7)
H22_3 H 0.8583 0.7998 0.3979
C41_3 C 0.7910(3) 0.7461(11) 0.3896(6)
C42_3 C 0.9194(4) 0.6060(16) 0.5078(9)
O12_2 O 0.5429(3) 0.9430(11) 0.1075(7)
O13_2 O 0.5687(3) 0.2190(10) 0.2278(6)
O14_2 O 0.5463(3) 0.2777(9) 0.3430(5)
O15_3 O 0.7665(2) 0.4547(9) 0.5181(5)
O16_3 O 0.7689(2) 0.8522(8) 0.3286(5)
O18_3 O 0.9413(3) 0.6903(11) 0.4747(7)
O19_3 O 0.9794(4) 0.9187(12) 0.4088(6)
O22_2 O 0.9571(3) 0.4430(11) 0.3925(7)
O24_2 O 0.9313(3) 0.7190(10) 0.2722(6)
O26_2 O 0.9537(3) 0.7777(9) 0.1570(5)
H25_4 H 0.995959 0.975536 0.104037
C1_4 C 0.9306(4) 0.3428(15) 0.3981(9)
C9_4 C 0.8785(4) 0.3367(12) 0.3323(7)
C10_4 C 0.8499(4) 0.2182(13) 0.3251(7)
H5_4 H 0.8639 0.1370 0.3577
C11_4 C 0.8007(4) 0.2163(12) 0.2706(7)
H6_4 H 0.7819 0.1356 0.2660
C12_4 C 0.7810(3) 0.3393(12) 0.2237(7)
C13_4 C 0.8087(3) 0.4615(12) 0.2274(7)
H7_4 H 0.7947 0.5421 0.1942
C14_4 C 0.8579(4) 0.4592(13) 0.2819(7)
H8_4 H 0.8770 0.5385 0.2849
C15_4 C 0.7346(3) 0.1560(11) 0.0764(6)
H9_4 H 0.7678 0.1667 0.0932
C16_4 C 0.7098(4) 0.0487(12) 0.0164(6)
C18_4 C 0.6349(4) 0.1310(13) 0.0187(7)
C19_4 C 0.6589(3) 0.2369(12) 0.0809(7)
H11_4 H 0.6417 0.2998 0.1021
C20_4 C 0.7090(3) 0.2461(11) 0.1104(6)
O6_4 O 0.7311(2) 0.3522(8) 0.1714(5)
O8_4 O 0.5587(3) 0.1903(11) 0.0253(7)
O9_6 O 0.5000 0.0107(14) 0.2500
O10_4 O 0.5206(4) 0.4187(12) 0.0912(6)
C22_4 C 0.0694(4) 0.3428(15) 0.1019(9)
C30_4 C 0.1215(4) 0.3367(12) 0.1677(7)
C31_4 C 0.1501(4) 0.2182(13) 0.1749(7)
H16_4 H 0.1361 0.1370 0.1423
C32_4 C 0.1993(4) 0.2163(12) 0.2294(7)
H17_4 H 0.2181 0.1356 0.2340
C33_4 C 0.2190(3) 0.3393(12) 0.2763(7)
C34_4 C 0.1913(3) 0.4615(12) 0.2726(7)
H18_4 H 0.2053 0.5421 0.3058
C35_4 C 0.1421(4) 0.4592(13) 0.2181(7)
H19_4 H 0.1230 0.5385 0.2151
C36_4 C 0.2654(3) 0.1560(11) 0.4236(6)
H20_4 H 0.2322 0.1667 0.4068
C37_4 C 0.2902(4) 0.0487(12) 0.4836(6)
C38_4 C 0.3400(4) 0.0343(12) 0.5135(7)
C39_4 C 0.3651(4) 0.1310(13) 0.4813(7)
C40_4 C 0.3411(3) 0.2369(12) 0.4191(7)
H22_4 H 0.3583 0.2998 0.3979
C41_4 C 0.2910(3) 0.2461(11) 0.3896(6)
C42_4 C 0.4194(4) 0.1060(16) 0.5078(9)
O16_4 O 0.2689(2) 0.3522(8) 0.3286(5)
O18_4 O 0.4413(3) 0.1903(11) 0.4747(7)
O19_4 O 0.4794(4) 0.4187(12) 0.4088(6)
C17_4 C 0.6600(4) 0.0343(12) 0.9865(7)
C21_4 C 0.5806(4) 0.1060(16) 0.9922(9)
C2_4 C 0.9230(4) 0.7652(13) 0.1924(8)
C3_4 C 0.8728(4) 0.8153(11) 0.1388(7)
C4_4 C 0.8594(4) 0.8513(13) 0.0475(7)
H1_4 H 0.8818 0.8431 0.0206
C6_4 C 0.7802(4) 0.9106(12) 0.0372(7)
C7_4 C 0.7912(4) 0.8748(12) 0.1275(7)
H3_4 H 0.7681 0.8825 0.1530
C8_4 C 0.8378(4) 0.8273(12) 0.1780(8)
H4_4 H 0.8460 0.8031 0.2381
C23_4 C 0.0770(4) 0.7652(13) 0.3076(8)
C24_4 C 0.1272(4) 0.8153(11) 0.3612(7)
C25_4 C 0.1406(4) 0.8513(13) 0.4525(7)
H12_4 H 0.1182 0.8431 0.4794
C26_4 C 0.1865(4) 0.8986(13) 0.5025(7)
H13_4 H 0.1950 0.9222 0.5628
C27_4 C 0.2198(4) 0.9106(12) 0.4628(7)
C28_4 C 0.2088(4) 0.8748(12) 0.3725(7)
H14_4 H 0.2319 0.8825 0.3470
C29_4 C 0.1622(4) 0.8273(12) 0.3220(8)
H15_4 H 0.1540 0.8031 0.2619
H21_4 H 0.3562 0.9627 0.5536
O15_4 O 0.2665(2) 0.9547(9) 0.5181(5)
C5_4 C 0.8135(4) 0.8986(13) 0.9975(7)
H2_4 H 0.8050 0.9222 0.9372
H10_4 H 0.6438 0.9627 0.9464
O5_4 O 0.7335(2) 0.9547(9) 0.9819(5)
loop_
_geom_bond_atom_site_label_1
_geom_bond_atom_site_label_2
_geom_bond_site_symmetry_1
_geom_bond_site_symmetry_2
C22 C30 1_555 1_555
C23 C24 1_555 1_555
C24 C25 1_555 1_555
C25 H12 1_555 1_555
C26 C25 1_555 1_555
H13 C26 1_555 1_555
C27 C26 1_555 1_555
C28 C27 1_555 1_555
H14 C28 1_555 1_555
C29 C24 1_555 1_555
H15 C29 1_555 1_555
C30 C31 1_555 1_555
C31 H16 1_555 1_555
C32 C31 1_555 1_555
H17 C32 1_555 1_555
C33 C32 1_555 1_555
C34 C33 1_555 1_555
C35 C30 1_555 1_555
C36 H20 1_555 1_555
C37 C36 1_555 1_555
C38 C37 1_555 1_555
H21 C38 1_555 1_555
C39 C38 1_555 1_555
C40 C39 1_555 1_555
H22 C40 1_555 1_555
C41 C36 1_555 1_555
C42 C39 1_555 1_555
Gd2 O9 1_555 1_555
O11 C22 1_555 1_555
O12 C22 1_555 1_555
O13 C23 1_555 1_555
O14 C23 1_555 1_555
O15 C27 1_555 1_555
O16 C33 1_555 1_555
O17 C42 1_555 1_555
O18 C42 1_555 1_555
O19 Gd2 1_555 1_555
Gd5 O13 1_555 1_555
Gd8 O14 1_555 1_555
O22 Gd2 1_555 1_555
O24 Gd2 1_555 1_555
C28 C29 1_555 1_555
C34 C35 1_555 1_555
C37 O15 1_555 1_555
C40 C41 1_555 1_555
C41 O16 1_555 1_555
Gd2 O18 1_555 1_555
H2 C5 1_555 1_555
H10 C17 1_555 1_555
O7 C21 1_555 1_555
C1 C9 1_555 1_555
C2 C3 1_555 1_555
C3 C4 1_555 1_555
C4 H1 1_555 1_555
C7 C6 1_555 1_555
H3 C7 1_555 1_555
C8 C3 1_555 1_555
H4 C8 1_555 1_555
C9 C10 1_555 1_555
C10 H5 1_555 1_555
C11 C10 1_555 1_555
H6 C11 1_555 1_555
C12 C11 1_555 1_555
C13 C12 1_555 1_555
C14 C9 1_555 1_555
C15 H9 1_555 1_555
C16 C15 1_555 1_555
C19 C18 1_555 1_555
H11 C19 1_555 1_555
C20 C15 1_555 1_555
Gd1 O8 1_555 1_555
O1 C1 1_555 1_555
O2 C1 1_555 1_555
O3 C2 1_555 1_555
O4 C2 1_555 1_555
O6 C12 1_555 1_555
O9_2 Gd1 1_555 1_555
O10 Gd1 1_555 1_555
Gd5 O4 1_555 1_555
Gd8 O3 1_555 1_555
Gd12 O1 1_555 1_555
O23 Gd1 1_555 1_555
O25 Gd1 1_555 1_555
C7 C8 1_555 1_555
C13 C14 1_555 1_555
C19 C20 1_555 1_555
C20 O6 1_555 1_555
H2_2 C5_2 1_555 1_555
C2_2 C3_2 1_555 1_555
C3_2 C4_2 1_555 1_555
C4_2 H1_2 1_555 1_555
C7_2 C6_2 1_555 1_555
H3_2 C7_2 1_555 1_555
C8_2 C3_2 1_555 1_555
H4_2 C8_2 1_555 1_555
O24 C2_2 1_555 1_555
O26 C2_2 1_555 1_555
C23_2 C24_2 1_555 1_555
C24_2 C25_2 1_555 1_555
C25_2 H12_2 1_555 1_555
C26_2 C25_2 1_555 1_555
H13_2 C26_2 1_555 1_555
C27_2 C26_2 1_555 1_555
C28_2 C27_2 1_555 1_555
H14_2 C28_2 1_555 1_555
C29_2 C24_2 1_555 1_555
H15_2 C29_2 1_555 1_555
O25 C23_2 1_555 1_555
O27 C23_2 1_555 1_555
O15_2 C27_2 1_555 1_555
C7_2 C8_2 1_555 1_555
C28_2 C29_2 1_555 1_555
O7_2 C21_2 1_555 1_555
C1_2 C9_2 1_555 1_555
C9_2 C10_2 1_555 1_555
C10_2 H5_2 1_555 1_555
C11_2 C10_2 1_555 1_555
H6_2 C11_2 1_555 1_555
C12_2 C11_2 1_555 1_555
C13_2 C12_2 1_555 1_555
H7_2 C13_2 1_555 1_555
C14_2 C9_2 1_555 1_555
H8_2 C14_2 1_555 1_555
C15_2 H9_2 1_555 1_555
C16_2 C15_2 1_555 1_555
C19_2 C18_2 1_555 1_555
H11_2 C19_2 1_555 1_555
C20_2 C15_2 1_555 1_555
Gd5 O8_2 1_555 1_555
O1_2 C1_2 1_555 1_555
O22 C1_2 1_555 1_555
O6_2 C12_2 1_555 1_555
O9_3 Gd5 1_555 1_555
O10_2 Gd5 1_555 1_555
C22_2 C30_2 1_555 1_555
C30_2 C31_2 1_555 1_555
C31_2 H16_2 1_555 1_555
C32_2 C31_2 1_555 1_555
H17_2 C32_2 1_555 1_555
C33_2 C32_2 1_555 1_555
C34_2 C33_2 1_555 1_555
H18_2 C34_2 1_555 1_555
C35_2 C30_2 1_555 1_555
H19_2 C35_2 1_555 1_555
C36_2 H20_2 1_555 1_555
C37_2 C36_2 1_555 1_555
C38_2 C37_2 1_555 1_555
C39_2 C38_2 1_555 1_555
C40_2 C39_2 1_555 1_555
H22_2 C40_2 1_555 1_555
C41_2 C36_2 1_555 1_555
C42_2 C39_2 1_555 1_555
Gd8 O9_3 1_555 1_555
O11_2 C22_2 1_555 1_555
O23 C22_2 1_555 1_555
O16_2 C33_2 1_555 1_555
O17_2 C42_2 1_555 1_555
O18_2 C42_2 1_555 1_555
O19_2 Gd8 1_555 1_555
O20_2 Gd8 1_555 1_555
C13_2 C14_2 1_555 1_555
C19_2 C20_2 1_555 1_555
C20_2 O6_2 1_555 1_555
C34_2 C35_2 1_555 1_555
C40_2 C41_2 1_555 1_555
C41_2 O16_2 1_555 1_555
Gd8 O18_2 1_555 1_555
C1_3 C9_3 1_555 1_555
C2_3 C3_3 1_555 1_555
C3_3 C4_3 1_555 1_555
C4_3 H1_3 1_555 1_555
C7_3 C6_3 1_555 1_555
H3_3 C7_3 1_555 1_555
C8_3 C3_3 1_555 1_555
H4_3 C8_3 1_555 1_555
C9_3 C10_3 1_555 1_555
C10_3 H5_3 1_555 1_555
C11_3 C10_3 1_555 1_555
H6_3 C11_3 1_555 1_555
C12_3 C11_3 1_555 1_555
C13_3 C12_3 1_555 1_555
C14_3 C9_3 1_555 1_555
C15_3 H9_3 1_555 1_555
C16_3 C15_3 1_555 1_555
C19_3 C18_3 1_555 1_555
H11_3 C19_3 1_555 1_555
C20_3 C15_3 1_555 1_555
Gd9 O8_3 1_555 1_555
O20_2 C1_3 1_555 1_555
O2_2 C1_3 1_555 1_555
O3_2 C2_3 1_555 1_555
O4_2 C2_3 1_555 1_555
O6_3 C12_3 1_555 1_555
O9_4 Gd9 1_555 1_555
O10_3 Gd9 1_555 1_555
Gd11 O4_2 1_555 1_555
Gd12 O3_2 1_555 1_555
O23_2 Gd9 1_555 1_555
O25_2 Gd9 1_555 1_555
C7_3 C8_3 1_555 1_555
C13_3 C14_3 1_555 1_555
C19_3 C20_3 1_555 1_555
C20_3 O6_3 1_555 1_555
H2_3 C5_3 1_555 1_555
H10_3 C17_3 1_555 1_555
O28 C21_3 1_555 1_555
C22_3 C30_3 1_555 1_555
C23_3 C24_3 1_555 1_555
C24_3 C25_3 1_555 1_555
C25_3 H12_3 1_555 1_555
C26_3 C25_3 1_555 1_555
H13_3 C26_3 1_555 1_555
C27_3 C26_3 1_555 1_555
C28_3 C27_3 1_555 1_555
H14_3 C28_3 1_555 1_555
C29_3 C24_3 1_555 1_555
H15_3 C29_3 1_555 1_555
C30_3 C31_3 1_555 1_555
C31_3 H16_3 1_555 1_555
C32_3 C31_3 1_555 1_555
H17_3 C32_3 1_555 1_555
C33_3 C32_3 1_555 1_555
C34_3 C33_3 1_555 1_555
C35_3 C30_3 1_555 1_555
C36_3 H20_3 1_555 1_555
C37_3 C36_3 1_555 1_555
C38_3 C37_3 1_555 1_555
H21_3 C38_3 1_555 1_555
C39_3 C38_3 1_555 1_555
C40_3 C39_3 1_555 1_555
H22_3 C40_3 1_555 1_555
C41_3 C36_3 1_555 1_555
C42_3 C39_3 1_555 1_555
Gd10 O9_5 1_555 1_555
O21_2 C22_3 1_555 1_555
O12_2 C22_3 1_555 1_555
O13_2 C23_3 1_555 1_555
O14_2 C23_3 1_555 1_555
O15_3 C27_3 1_555 1_555
O16_3 C33_3 1_555 1_555
O29 C42_3 1_555 1_555
O18_3 C42_3 1_555 1_555
O19_3 Gd10 1_555 1_555
Gd11 O13_2 1_555 1_555
Gd12 O14_2 1_555 1_555
O22_2 Gd10 1_555 1_555
O24_2 Gd10 1_555 1_555
C28_3 C29_3 1_555 1_555
C34_3 C35_3 1_555 1_555
C37_3 O15_3 1_555 1_555
C40_3 C41_3 1_555 1_555
C41_3 O16_3 1_555 1_555
Gd10 O18_3 1_555 1_555
C1_4 C9_4 1_555 1_555
C9_4 C10_4 1_555 1_555
C10_4 H5_4 1_555 1_555
C11_4 C10_4 1_555 1_555
H6_4 C11_4 1_555 1_555
C12_4 C11_4 1_555 1_555
C13_4 C12_4 1_555 1_555
H7_4 C13_4 1_555 1_555
C14_4 C9_4 1_555 1_555
H8_4 C14_4 1_555 1_555
C15_4 H9_4 1_555 1_555
C16_4 C15_4 1_555 1_555
C19_4 C18_4 1_555 1_555
H11_4 C19_4 1_555 1_555
C20_4 C15_4 1_555 1_555
Gd11 O8_4 1_555 1_555
O20 C1_4 1_555 1_555
O22_2 C1_4 1_555 1_555
O6_4 C12_4 1_555 1_555
O9_6 Gd11 1_555 1_555
O10_4 Gd11 1_555 1_555
C22_4 C30_4 1_555 1_555
C30_4 C31_4 1_555 1_555
C31_4 H16_4 1_555 1_555
C32_4 C31_4 1_555 1_555
H17_4 C32_4 1_555 1_555
C33_4 C32_4 1_555 1_555
C34_4 C33_4 1_555 1_555
H18_4 C34_4 1_555 1_555
C35_4 C30_4 1_555 1_555
H19_4 C35_4 1_555 1_555
C36_4 H20_4 1_555 1_555
C37_4 C36_4 1_555 1_555
C38_4 C37_4 1_555 1_555
C39_4 C38_4 1_555 1_555
C40_4 C39_4 1_555 1_555
H22_4 C40_4 1_555 1_555
C41_4 C36_4 1_555 1_555
C42_4 C39_4 1_555 1_555
Gd12 O9_6 1_555 1_555
O21 C22_4 1_555 1_555
O23_2 C22_4 1_555 1_555
O16_4 C33_4 1_555 1_555
O29_2 C42_4 1_555 1_555
O18_4 C42_4 1_555 1_555
O19_4 Gd12 1_555 1_555
C13_4 C14_4 1_555 1_555
C19_4 C20_4 1_555 1_555
C20_4 O6_4 1_555 1_555
C34_4 C35_4 1_555 1_555
C40_4 C41_4 1_555 1_555
C41_4 O16_4 1_555 1_555
Gd12 O18_4 1_555 1_555
O28_2 C21_4 1_555 1_555
C2_4 C3_4 1_555 1_555
C3_4 C4_4 1_555 1_555
C4_4 H1_4 1_555 1_555
C7_4 C6_4 1_555 1_555
H3_4 C7_4 1_555 1_555
C8_4 C3_4 1_555 1_555
H4_4 C8_4 1_555 1_555
O24_2 C2_4 1_555 1_555
O26_2 C2_4 1_555 1_555
C23_4 C24_4 1_555 1_555
C24_4 C25_4 1_555 1_555
C25_4 H12_4 1_555 1_555
C26_4 C25_4 1_555 1_555
H13_4 C26_4 1_555 1_555
C27_4 C26_4 1_555 1_555
C28_4 C27_4 1_555 1_555
H14_4 C28_4 1_555 1_555
C29_4 C24_4 1_555 1_555
H15_4 C29_4 1_555 1_555
O25_2 C23_4 1_555 1_555
O27_2 C23_4 1_555 1_555
O15_4 C27_4 1_555 1_555
C7_4 C8_4 1_555 1_555
C28_4 C29_4 1_555 1_555
H2_4 C5_4 1_555 1_555

#END
