
###############################################################################
#
# This file contains modified crystal structure data generated from the
# MOF subset of the Cambridge Structural Database (CSD) v543 
# hosted by the Cambridge Crystallographic Data Centre (CCDC).
#
# This work is licensed under the Creative Commons
# Attribution-NonCommercial-ShareAlike 4.0 International License.
# To view a copy of this license, visit
# http://creativecommons.org/licenses/by-nc-sa/4.0/
# or send a letter to
# Creative Commons, PO Box 1866, Mountain View, CA 94042, USA.
#
# CIF created using the CSD Python API on 29 September 2022
# The structure has been converted into the P1 space group
# The structure has a 3D framework
# The original CSD entry LIXMAI is in the monoclinic crystal system
# The framework has been calculated to contain at least 10.0% void space
# The void calculation uses a probe of radius 1.32A, grid spacing 0.4
# H atom positions have been added when not included in the experimental data
#
###############################################################################

data_LIXMAI
_chemical_formula_moiety         '(C168 H104 Dy8 O72)n'
_symmetry_cell_setting           triclinic
_symmetry_space_group_name_H-M   'P 1'
_symmetry_Int_Tables_number      1
_space_group_name_Hall           'P 1'
loop_
_symmetry_equiv_pos_site_id
_symmetry_equiv_pos_as_xyz
1 x,y,z
_cell_length_a                   29.642(4)
_cell_length_b                   9.0327(12)
_cell_length_c                   16.378(2)
_cell_angle_alpha                90
_cell_angle_beta                 113.031(3)
_cell_angle_gamma                90
_cell_volume                     4035.64
loop_
_atom_site_label
_atom_site_type_symbol
_atom_site_fract_x
_atom_site_fract_y
_atom_site_fract_z
O12 O 0.05436(13) 0.2351(4) 0.0456(2)
Dy5 Dy 0.002606(8) 0.66862(3) 0.089226(16)
O10 O 0.06093(12) 0.5046(4) 0.9450(2)
O14 O 0.04379(12) 0.2454(4) 0.8406(2)
H13 H 0.00563503 0.0120611 0.878094
O1 O 0.93907(12) 0.4954(4) 0.0550(2)
O8 O 0.76445(12) 0.5437(4) 0.0104(2)
C13 C 0.83939(17) 0.4616(5) 0.0087(3)
H5 H 0.8555 0.5353 0.0493
C20 C 0.91975(18) 0.3868(6) 0.0055(4)
H11 H 0.6934 0.5753 0.0541
O2 O 0.54127(12) 0.0558(4) 0.6038(3)
O3 O 0.55436(13) 0.2649(4) 0.5456(2)
C1 C 0.56861(19) 0.1616(6) 0.6027(3)
O4 O 0.56325(13) 0.7849(4) 0.7259(2)
O5 O 0.54379(12) 0.7454(4) 0.8406(2)
C2 C 0.57300(18) 0.7412(5) 0.8039(3)
C3 C 0.78931(17) 0.4474(5) 0.9782(3)
Dy1 Dy 0.997394(8) 0.33138(3) 0.910774(16)
O6 O 0.76875(12) 0.1324(4) 0.8267(2)
C4 C 0.71892(18) 0.1482(5) 0.7752(3)
C5 C 0.76505(18) 0.3363(5) 0.9192(3)
H1 H 0.7314 0.3243 0.9010
C6 C 0.71717(18) 0.5852(5) 0.9552(3)
O7 O 0.98497(16) 0.0597(4) 0.9059(3)
O9 O 0.94154(13) 0.2984(4) 0.9743(3)
C7 C 0.62334(18) 0.6834(5) 0.8552(3)
C8 C 0.63727(19) 0.6478(6) 0.9447(3)
H2 H 0.6148 0.6571 0.9711
C9 C 0.62078(18) 0.1624(5) 0.6679(3)
C10 C 0.65731(19) 0.6686(5) 0.8177(3)
H3 H 0.6484 0.6910 0.7580
C11 C 0.86553(18) 0.3651(5) 0.9784(3)
C12 C 0.68892(18) 0.0330(5) 0.7752(3)
C14 C 0.79149(17) 0.2439(5) 0.8879(3)
C15 C 0.70424(19) 0.6213(6) 0.8671(3)
H6 H 0.7271 0.6137 0.8414
C16 C 0.70046(19) 0.2714(6) 0.7233(3)
H7 H 0.7212 0.3490 0.7242
C17 C 0.84146(17) 0.2548(5) 0.9174(3)
H8 H 0.8590 0.1896 0.8971
C18 C 0.63985(18) 0.0405(6) 0.7210(3)
C19 C 0.65138(19) 0.2797(6) 0.6702(3)
H10 H 0.6388 0.3636 0.6360
C21 C 0.68427(18) 0.5988(6) 0.9945(3)
O11 O 0.95873(12) 0.5558(4) 0.8962(3)
O13 O 0.93675(13) 0.2849(4) 0.7741(2)
Dy2 Dy 0.497394(8) 0.83138(3) 0.910774(16)
Dy4 Dy 0.502606(8) 0.83138(3) 0.589226(16)
Dy6 Dy 0.497394(8) 0.16862(3) 0.410774(16)
H12 H 0.949943 0.0368001 0.870474
H4 H 0.7015 0.9509 0.8112
H9 H 0.6193 0.9622 0.7202
Dy6_2 Dy 0.502606(8) 0.16862(3) 0.089226(16)
O1_2 O 0.06093(12) 0.4954(4) 0.4450(2)
O2_2 O 0.45873(12) 0.0558(4) 0.8962(3)
O3_2 O 0.44564(13) 0.2649(4) 0.9544(2)
C1_2 C 0.43139(19) 0.1616(6) 0.8973(3)
O4_2 O 0.43675(13) 0.7849(4) 0.7741(2)
O5_2 O 0.45621(12) 0.7454(4) 0.6594(2)
C2_2 C 0.42700(18) 0.7412(5) 0.6961(3)
C3_2 C 0.21069(17) 0.4474(5) 0.5218(3)
Dy1_2 Dy 0.002606(8) 0.33138(3) 0.589226(16)
O6_2 O 0.23125(12) 0.1324(4) 0.6733(2)
C4_2 C 0.28108(18) 0.1482(5) 0.7248(3)
C5_2 C 0.23495(18) 0.3363(5) 0.5808(3)
H1_2 H 0.2686 0.3243 0.5990
C6_2 C 0.28283(18) 0.5852(5) 0.5448(3)
O7_2 O 0.01503(16) 0.0597(4) 0.5941(3)
O8_2 O 0.23555(12) 0.5437(4) 0.4896(2)
O9_2 O 0.05846(13) 0.2984(4) 0.5257(3)
C7_2 C 0.37666(18) 0.6834(5) 0.6448(3)
C8_2 C 0.36273(19) 0.6478(6) 0.5553(3)
H2_2 H 0.3852 0.6571 0.5289
C9_2 C 0.37922(18) 0.1624(5) 0.8321(3)
C10_2 C 0.34269(19) 0.6686(5) 0.6823(3)
H3_2 H 0.3516 0.6910 0.7420
C11_2 C 0.13447(18) 0.3651(5) 0.5216(3)
C12_2 C 0.31108(18) 0.0330(5) 0.7248(3)
C13_2 C 0.16061(17) 0.4616(5) 0.4913(3)
H5_2 H 0.1445 0.5353 0.4507
C14_2 C 0.20851(17) 0.2439(5) 0.6121(3)
C15_2 C 0.29576(19) 0.6213(6) 0.6329(3)
H6_2 H 0.2729 0.6137 0.6586
C16_2 C 0.29954(19) 0.2714(6) 0.7767(3)
H7_2 H 0.2788 0.3490 0.7758
C17_2 C 0.15854(17) 0.2548(5) 0.5826(3)
H8_2 H 0.1410 0.1896 0.6029
C18_2 C 0.36015(18) 0.0405(6) 0.7790(3)
C19_2 C 0.34862(19) 0.2797(6) 0.8298(3)
H10_2 H 0.3612 0.3636 0.8640
C20_2 C 0.08025(18) 0.3868(6) 0.4945(4)
C21_2 C 0.31573(18) 0.5988(6) 0.5055(3)
H11_2 H 0.3066 0.5753 0.4459
O11_2 O 0.04127(12) 0.5558(4) 0.6038(3)
O13_2 O 0.06325(13) 0.2849(4) 0.7259(2)
H12_2 H 0.0500565 0.0368001 0.629526
H4_2 H 0.2985 0.9509 0.6888
H9_2 H 0.3807 0.9622 0.7798
O10_2 O 0.93907(12) 0.5046(4) 0.5550(2)
O12_2 O 0.94564(13) 0.2351(4) 0.4544(2)
O14_2 O 0.95621(12) 0.2454(4) 0.6594(2)
Dy5_2 Dy 0.997394(8) 0.66862(3) 0.410774(16)
H13_2 H 0.994365 0.0120611 0.621906
O8_3 O 0.26445(12) 0.0437(4) 0.0104(2)
H5_3 H 0.3555 0.0353 0.0493
H11_3 H 0.1934 0.0753 0.0541
C2_3 C 0.07300(18) 0.2412(5) 0.8039(3)
C6_3 C 0.21717(18) 0.0852(5) 0.9552(3)
C7_3 C 0.12334(18) 0.1834(5) 0.8552(3)
C8_3 C 0.13727(19) 0.1478(6) 0.9447(3)
H2_3 H 0.1148 0.1571 0.9711
C10_3 C 0.15731(19) 0.1686(5) 0.8177(3)
H3_3 H 0.1484 0.1910 0.7580
C15_3 C 0.20424(19) 0.1213(6) 0.8671(3)
H6_3 H 0.2271 0.1137 0.8414
C21_3 C 0.18427(18) 0.0988(6) 0.9945(3)
O10_3 O 0.56093(12) 0.0046(4) 0.9450(2)
O1_3 O 0.43907(12) 0.9954(4) 0.0550(2)
C13_3 C 0.33939(17) 0.9616(5) 0.0087(3)
C20_3 C 0.41975(18) 0.8868(6) 0.0055(4)
O12_3 O 0.55436(13) 0.7351(4) 0.0456(2)
O3_3 O 0.05436(13) 0.7649(4) 0.5456(2)
C1_3 C 0.06861(19) 0.6616(6) 0.6027(3)
C3_3 C 0.28931(17) 0.9474(5) 0.9782(3)
O6_3 O 0.26875(12) 0.6324(4) 0.8267(2)
C4_3 C 0.21892(18) 0.6482(5) 0.7752(3)
C5_3 C 0.26505(18) 0.8363(5) 0.9192(3)
H1_3 H 0.2314 0.8243 0.9010
O7_3 O 0.48497(16) 0.5597(4) 0.9059(3)
O9_3 O 0.44154(13) 0.7984(4) 0.9743(3)
C9_3 C 0.12078(18) 0.6624(5) 0.6679(3)
C11_3 C 0.36553(18) 0.8651(5) 0.9784(3)
C12_3 C 0.18892(18) 0.5330(5) 0.7752(3)
H4_3 H 0.2015 0.4509 0.8112
C14_3 C 0.29149(17) 0.7439(5) 0.8879(3)
C16_3 C 0.20046(19) 0.7714(6) 0.7233(3)
H7_3 H 0.2212 0.8490 0.7242
C17_3 C 0.34146(17) 0.7548(5) 0.9174(3)
H8_3 H 0.3590 0.6896 0.8971
C18_3 C 0.13985(18) 0.5405(6) 0.7210(3)
H9_3 H 0.1193 0.4622 0.7202
C19_3 C 0.15138(19) 0.7797(6) 0.6702(3)
H10_3 H 0.1388 0.8636 0.6360
H12_3 H 0.449943 0.5368 0.870474
H13_3 H 0.505635 0.512061 0.878094
C2_4 C 0.92700(18) 0.2412(5) 0.6961(3)
C6_4 C 0.78283(18) 0.0852(5) 0.5448(3)
O8_4 O 0.73555(12) 0.0437(4) 0.4896(2)
C7_4 C 0.87666(18) 0.1834(5) 0.6448(3)
C8_4 C 0.86273(19) 0.1478(6) 0.5553(3)
H2_4 H 0.8852 0.1571 0.5289
C10_4 C 0.84269(19) 0.1686(5) 0.6823(3)
H3_4 H 0.8516 0.1910 0.7420
H5_4 H 0.6445 0.0353 0.4507
C15_4 C 0.79576(19) 0.1213(6) 0.6329(3)
H6_4 H 0.7729 0.1137 0.6586
C21_4 C 0.81573(18) 0.0988(6) 0.5055(3)
H11_4 H 0.8066 0.0753 0.4459
O10_4 O 0.43907(12) 0.0046(4) 0.5550(2)
O1_4 O 0.56093(12) 0.9954(4) 0.4450(2)
O3_4 O 0.94564(13) 0.7649(4) 0.9544(2)
C1_4 C 0.93139(19) 0.6616(6) 0.8973(3)
C3_4 C 0.71069(17) 0.9474(5) 0.5218(3)
O6_4 O 0.73125(12) 0.6324(4) 0.6733(2)
C4_4 C 0.78108(18) 0.6482(5) 0.7248(3)
C5_4 C 0.73495(18) 0.8363(5) 0.5808(3)
H1_4 H 0.7686 0.8243 0.5990
O7_4 O 0.51503(16) 0.5597(4) 0.5941(3)
O9_4 O 0.55846(13) 0.7984(4) 0.5257(3)
C9_4 C 0.87922(18) 0.6624(5) 0.8321(3)
C11_4 C 0.63447(18) 0.8651(5) 0.5216(3)
C12_4 C 0.81108(18) 0.5330(5) 0.7248(3)
H4_4 H 0.7985 0.4509 0.6888
C13_4 C 0.66061(17) 0.9616(5) 0.4913(3)
C14_4 C 0.70851(17) 0.7439(5) 0.6121(3)
C16_4 C 0.79954(19) 0.7714(6) 0.7767(3)
H7_4 H 0.7788 0.8490 0.7758
C17_4 C 0.65854(17) 0.7548(5) 0.5826(3)
H8_4 H 0.6410 0.6896 0.6029
C18_4 C 0.86015(18) 0.5405(6) 0.7790(3)
H9_4 H 0.8807 0.4622 0.7798
C19_4 C 0.84862(19) 0.7797(6) 0.8298(3)
H10_4 H 0.8612 0.8636 0.8640
C20_4 C 0.58025(18) 0.8868(6) 0.4945(4)
O12_4 O 0.44564(13) 0.7351(4) 0.4544(2)
H12_4 H 0.550057 0.5368 0.629526
H13_4 H 0.494365 0.512061 0.621906
H4_5 H 0.2985 0.0491 0.1888
H9_5 H 0.3807 0.0378 0.2798
O2_3 O 0.45873(12) 0.9442(4) 0.3962(3)
C1_5 C 0.43139(19) 0.8384(6) 0.3973(3)
O4_3 O 0.43675(13) 0.2151(4) 0.2741(2)
O5_3 O 0.45621(12) 0.2546(4) 0.1594(2)
C2_5 C 0.42700(18) 0.2588(5) 0.1961(3)
C3_5 C 0.21069(17) 0.5526(5) 0.0218(3)
O6_5 O 0.23125(12) 0.8676(4) 0.1733(2)
C4_5 C 0.28108(18) 0.8518(5) 0.2248(3)
C5_5 C 0.23495(18) 0.6637(5) 0.0808(3)
H1_5 H 0.2686 0.6757 0.0990
C6_5 C 0.28283(18) 0.4148(5) 0.0448(3)
O7_5 O 0.01503(16) 0.9403(4) 0.0941(3)
O9_5 O 0.05846(13) 0.7016(4) 0.0257(3)
C7_5 C 0.37666(18) 0.3166(5) 0.1448(3)
C8_5 C 0.36273(19) 0.3522(6) 0.0553(3)
H2_5 H 0.3852 0.3429 0.0289
C9_5 C 0.37922(18) 0.8376(5) 0.3321(3)
C10_5 C 0.34269(19) 0.3314(5) 0.1823(3)
H3_5 H 0.3516 0.3090 0.2420
C11_5 C 0.13447(18) 0.6349(5) 0.0216(3)
C12_5 C 0.31108(18) 0.9670(5) 0.2248(3)
C14_5 C 0.20851(17) 0.7561(5) 0.1121(3)
C15_5 C 0.29576(19) 0.3787(6) 0.1329(3)
H6_5 H 0.2729 0.3863 0.1586
C16_5 C 0.29954(19) 0.7286(6) 0.2767(3)
H7_5 H 0.2788 0.6510 0.2758
C17_5 C 0.15854(17) 0.7452(5) 0.0826(3)
H8_5 H 0.1410 0.8104 0.1029
C18_5 C 0.36015(18) 0.9595(6) 0.2790(3)
C19_5 C 0.34862(19) 0.7203(6) 0.3298(3)
H10_5 H 0.3612 0.6364 0.3640
C21_5 C 0.31573(18) 0.4012(6) 0.0055(3)
O11_3 O 0.04127(12) 0.4442(4) 0.1038(3)
O13_3 O 0.06325(13) 0.7151(4) 0.2259(2)
H12_5 H 0.0500565 0.9632 0.129526
O8_5 O 0.23555(12) 0.4563(4) 0.9896(2)
C13_5 C 0.16061(17) 0.5384(5) 0.9913(3)
H5_5 H 0.1445 0.4647 0.9507
C20_5 C 0.08025(18) 0.6132(6) 0.9945(4)
H11_5 H 0.3066 0.4247 0.9459
O14_3 O 0.95621(12) 0.7546(4) 0.1594(2)
H13_5 H 0.994365 0.987939 0.121906
O14_4 O 0.04379(12) 0.7546(4) 0.3406(2)
H13_6 H 0.00563503 0.987939 0.378094
H4_6 H 0.7015 0.0491 0.3112
H9_6 H 0.6193 0.0378 0.2202
O2_4 O 0.54127(12) 0.9442(4) 0.1038(3)
C1_6 C 0.56861(19) 0.8384(6) 0.1027(3)
O4_4 O 0.56325(13) 0.2151(4) 0.2259(2)
O5_4 O 0.54379(12) 0.2546(4) 0.3406(2)
C2_6 C 0.57300(18) 0.2588(5) 0.3039(3)
C3_6 C 0.78931(17) 0.5526(5) 0.4782(3)
O6_6 O 0.76875(12) 0.8676(4) 0.3267(2)
C4_6 C 0.71892(18) 0.8518(5) 0.2752(3)
C5_6 C 0.76505(18) 0.6637(5) 0.4192(3)
H1_6 H 0.7314 0.6757 0.4010
C6_6 C 0.71717(18) 0.4148(5) 0.4552(3)
O7_6 O 0.98497(16) 0.9403(4) 0.4059(3)
O8_6 O 0.76445(12) 0.4563(4) 0.5104(2)
O9_6 O 0.94154(13) 0.7016(4) 0.4743(3)
C7_6 C 0.62334(18) 0.3166(5) 0.3552(3)
C8_6 C 0.63727(19) 0.3522(6) 0.4447(3)
H2_6 H 0.6148 0.3429 0.4711
C9_6 C 0.62078(18) 0.8376(5) 0.1679(3)
C10_6 C 0.65731(19) 0.3314(5) 0.3177(3)
H3_6 H 0.6484 0.3090 0.2580
C11_6 C 0.86553(18) 0.6349(5) 0.4784(3)
C12_6 C 0.68892(18) 0.9670(5) 0.2752(3)
C13_6 C 0.83939(17) 0.5384(5) 0.5087(3)
H5_6 H 0.8555 0.4647 0.5493
C14_6 C 0.79149(17) 0.7561(5) 0.3879(3)
C15_6 C 0.70424(19) 0.3787(6) 0.3671(3)
H6_6 H 0.7271 0.3863 0.3414
C16_6 C 0.70046(19) 0.7286(6) 0.2233(3)
H7_6 H 0.7212 0.6510 0.2242
C17_6 C 0.84146(17) 0.7452(5) 0.4174(3)
H8_6 H 0.8590 0.8104 0.3971
C18_6 C 0.63985(18) 0.9595(6) 0.2210(3)
C19_6 C 0.65138(19) 0.7203(6) 0.1702(3)
H10_6 H 0.6388 0.6364 0.1360
C20_6 C 0.91975(18) 0.6132(6) 0.5055(4)
C21_6 C 0.68427(18) 0.4012(6) 0.4945(3)
H11_6 H 0.6934 0.4247 0.5541
O11_4 O 0.95873(12) 0.4442(4) 0.3962(3)
O13_4 O 0.93675(13) 0.7151(4) 0.2741(2)
H12_6 H 0.949943 0.9632 0.370474
C1_7 C 0.93139(19) 0.3384(6) 0.3973(3)
C3_7 C 0.71069(17) 0.0526(5) 0.0218(3)
O6_7 O 0.73125(12) 0.3676(4) 0.1733(2)
C4_7 C 0.78108(18) 0.3518(5) 0.2248(3)
C5_7 C 0.73495(18) 0.1637(5) 0.0808(3)
H1_7 H 0.7686 0.1757 0.0990
O7_7 O 0.51503(16) 0.4403(4) 0.0941(3)
O9_7 O 0.55846(13) 0.2016(4) 0.0257(3)
C9_7 C 0.87922(18) 0.3376(5) 0.3321(3)
C11_7 C 0.63447(18) 0.1349(5) 0.0216(3)
C12_7 C 0.81108(18) 0.4670(5) 0.2248(3)
H4_7 H 0.7985 0.5491 0.1888
C14_7 C 0.70851(17) 0.2561(5) 0.1121(3)
C16_7 C 0.79954(19) 0.2286(6) 0.2767(3)
H7_7 H 0.7788 0.1510 0.2758
C17_7 C 0.65854(17) 0.2452(5) 0.0826(3)
H8_7 H 0.6410 0.3104 0.1029
C18_7 C 0.86015(18) 0.4595(6) 0.2790(3)
H9_7 H 0.8807 0.5378 0.2798
C19_7 C 0.84862(19) 0.2203(6) 0.3298(3)
H10_7 H 0.8612 0.1364 0.3640
H12_7 H 0.550057 0.4632 0.129526
H13_7 H 0.494365 0.487939 0.121906
C13_7 C 0.66061(17) 0.0384(5) 0.9913(3)
C20_7 C 0.58025(18) 0.1132(6) 0.9945(4)
C2_7 C 0.92700(18) 0.7588(5) 0.1961(3)
C6_7 C 0.78283(18) 0.9148(5) 0.0448(3)
C7_7 C 0.87666(18) 0.8166(5) 0.1448(3)
C8_7 C 0.86273(19) 0.8522(6) 0.0553(3)
H2_7 H 0.8852 0.8429 0.0289
C10_7 C 0.84269(19) 0.8314(5) 0.1823(3)
H3_7 H 0.8516 0.8090 0.2420
C15_7 C 0.79576(19) 0.8787(6) 0.1329(3)
H6_7 H 0.7729 0.8863 0.1586
C21_7 C 0.81573(18) 0.9012(6) 0.0055(3)
O8_7 O 0.73555(12) 0.9563(4) 0.9896(2)
H5_7 H 0.6445 0.9647 0.9507
H11_7 H 0.8066 0.9247 0.9459
C1_8 C 0.06861(19) 0.3384(6) 0.1027(3)
C3_8 C 0.28931(17) 0.0526(5) 0.4782(3)
O6_8 O 0.26875(12) 0.3676(4) 0.3267(2)
C4_8 C 0.21892(18) 0.3518(5) 0.2752(3)
C5_8 C 0.26505(18) 0.1637(5) 0.4192(3)
H1_8 H 0.2314 0.1757 0.4010
O7_8 O 0.48497(16) 0.4403(4) 0.4059(3)
O9_8 O 0.44154(13) 0.2016(4) 0.4743(3)
C9_8 C 0.12078(18) 0.3376(5) 0.1679(3)
C11_8 C 0.36553(18) 0.1349(5) 0.4784(3)
C12_8 C 0.18892(18) 0.4670(5) 0.2752(3)
H4_8 H 0.2015 0.5491 0.3112
C13_8 C 0.33939(17) 0.0384(5) 0.5087(3)
C14_8 C 0.29149(17) 0.2561(5) 0.3879(3)
C16_8 C 0.20046(19) 0.2286(6) 0.2233(3)
H7_8 H 0.2212 0.1510 0.2242
C17_8 C 0.34146(17) 0.2452(5) 0.4174(3)
H8_8 H 0.3590 0.3104 0.3971
C18_8 C 0.13985(18) 0.4595(6) 0.2210(3)
H9_8 H 0.1193 0.5378 0.2202
C19_8 C 0.15138(19) 0.2203(6) 0.1702(3)
H10_8 H 0.1388 0.1364 0.1360
C20_8 C 0.41975(18) 0.1132(6) 0.5055(4)
H12_8 H 0.449943 0.4632 0.370474
H13_8 H 0.505635 0.487939 0.378094
C2_8 C 0.07300(18) 0.7588(5) 0.3039(3)
C6_8 C 0.21717(18) 0.9148(5) 0.4552(3)
O8_8 O 0.26445(12) 0.9563(4) 0.5104(2)
C7_8 C 0.12334(18) 0.8166(5) 0.3552(3)
C8_8 C 0.13727(19) 0.8522(6) 0.4447(3)
H2_8 H 0.1148 0.8429 0.4711
C10_8 C 0.15731(19) 0.8314(5) 0.3177(3)
H3_8 H 0.1484 0.8090 0.2580
H5_8 H 0.3555 0.9647 0.5493
C15_8 C 0.20424(19) 0.8787(6) 0.3671(3)
H6_8 H 0.2271 0.8863 0.3414
C21_8 C 0.18427(18) 0.9012(6) 0.4945(3)
H11_8 H 0.1934 0.9247 0.5541
loop_
_geom_bond_atom_site_label_1
_geom_bond_atom_site_label_2
_geom_bond_site_symmetry_1
_geom_bond_site_symmetry_2
O1 C20 1_555 1_555
H5 C13 1_555 1_555
O2 C1 1_555 1_555
O3 C1 1_555 1_555
C1 C9 1_555 1_555
O4 C2 1_555 1_555
O5 C2 1_555 1_555
C2 C7 1_555 1_555
C3 C5 1_555 1_555
Dy1 O7 1_555 1_555
O6 C4 1_555 1_555
C4 C12 1_555 1_555
C5 H1 1_555 1_555
O9 Dy1 1_555 1_555
C7 C8 1_555 1_555
C8 H2 1_555 1_555
C9 C18 1_555 1_555
C10 C7 1_555 1_555
H3 C10 1_555 1_555
C14 O6 1_555 1_555
C15 C6 1_555 1_555
H6 C15 1_555 1_555
C16 C4 1_555 1_555
H7 C16 1_555 1_555
C17 C11 1_555 1_555
H8 C17 1_555 1_555
C18 C12 1_555 1_555
C19 C9 1_555 1_555
H10 C19 1_555 1_555
C21 C6 1_555 1_555
O11 Dy1 1_555 1_555
O13 Dy1 1_555 1_555
Dy2 O5 1_555 1_555
Dy4 O4 1_555 1_555
Dy6 O3 1_555 1_555
C5 C14 1_555 1_555
C8 C21 1_555 1_555
C10 C15 1_555 1_555
C14 C17 1_555 1_555
C16 C19 1_555 1_555
O7 H12 1_555 1_555
O1_2 C20_2 1_555 1_555
O2_2 C1_2 1_555 1_555
O3_2 C1_2 1_555 1_555
C1_2 C9_2 1_555 1_555
O4_2 C2_2 1_555 1_555
O5_2 C2_2 1_555 1_555
C2_2 C7_2 1_555 1_555
C3_2 C5_2 1_555 1_555
Dy1_2 O7_2 1_555 1_555
O6_2 C4_2 1_555 1_555
C4_2 C12_2 1_555 1_555
C5_2 H1_2 1_555 1_555
C6_2 O8_2 1_555 1_555
O8_2 C3_2 1_555 1_555
O9_2 Dy1_2 1_555 1_555
C7_2 C8_2 1_555 1_555
C8_2 H2_2 1_555 1_555
C9_2 C18_2 1_555 1_555
C10_2 C7_2 1_555 1_555
H3_2 C10_2 1_555 1_555
C11_2 C13_2 1_555 1_555
C13_2 C3_2 1_555 1_555
H5_2 C13_2 1_555 1_555
C14_2 O6_2 1_555 1_555
C15_2 C6_2 1_555 1_555
H6_2 C15_2 1_555 1_555
C16_2 C4_2 1_555 1_555
H7_2 C16_2 1_555 1_555
C17_2 C11_2 1_555 1_555
H8_2 C17_2 1_555 1_555
C18_2 C12_2 1_555 1_555
C19_2 C9_2 1_555 1_555
H10_2 C19_2 1_555 1_555
C20_2 O9_2 1_555 1_555
C21_2 C6_2 1_555 1_555
H11_2 C21_2 1_555 1_555
O11_2 Dy1_2 1_555 1_555
O13_2 Dy1_2 1_555 1_555
Dy4 O5_2 1_555 1_555
Dy2 O4_2 1_555 1_555
C5_2 C14_2 1_555 1_555
C8_2 C21_2 1_555 1_555
C10_2 C15_2 1_555 1_555
C11_2 C20_2 1_555 1_555
C14_2 C17_2 1_555 1_555
C16_2 C19_2 1_555 1_555
O7_2 H12_2 1_555 1_555
O13_2 C2_3 1_555 1_555
O14 C2_3 1_555 1_555
C2_3 C7_3 1_555 1_555
C7_3 C8_3 1_555 1_555
C8_3 H2_3 1_555 1_555
C10_3 C7_3 1_555 1_555
H3_3 C10_3 1_555 1_555
C15_3 C6_3 1_555 1_555
H6_3 C15_3 1_555 1_555
C21_3 C6_3 1_555 1_555
C8_3 C21_3 1_555 1_555
C10_3 C15_3 1_555 1_555
O1_3 C20_3 1_555 1_555
O11_2 C1_3 1_555 1_555
O3_3 C1_3 1_555 1_555
C1_3 C9_3 1_555 1_555
C3_3 C5_3 1_555 1_555
Dy2 O7_3 1_555 1_555
O6_3 C4_3 1_555 1_555
C4_3 C12_3 1_555 1_555
C5_3 H1_3 1_555 1_555
O9_3 Dy2 1_555 1_555
C9_3 C18_3 1_555 1_555
C12_3 H4_3 1_555 1_555
C14_3 O6_3 1_555 1_555
C16_3 C4_3 1_555 1_555
H7_3 C16_3 1_555 1_555
C17_3 C11_3 1_555 1_555
H8_3 C17_3 1_555 1_555
C18_3 C12_3 1_555 1_555
H9_3 C18_3 1_555 1_555
C19_3 C9_3 1_555 1_555
H10_3 C19_3 1_555 1_555
C5_3 C14_3 1_555 1_555
C14_3 C17_3 1_555 1_555
C16_3 C19_3 1_555 1_555
O7_3 H12_3 1_555 1_555
O7_3 H13_3 1_555 1_555
O13 C2_4 1_555 1_555
O14_2 C2_4 1_555 1_555
C2_4 C7_4 1_555 1_555
C6_4 O8_4 1_555 1_555
C7_4 C8_4 1_555 1_555
C8_4 H2_4 1_555 1_555
C10_4 C7_4 1_555 1_555
H3_4 C10_4 1_555 1_555
C15_4 C6_4 1_555 1_555
H6_4 C15_4 1_555 1_555
C21_4 C6_4 1_555 1_555
H11_4 C21_4 1_555 1_555
C8_4 C21_4 1_555 1_555
C10_4 C15_4 1_555 1_555
O1_4 C20_4 1_555 1_555
O11 C1_4 1_555 1_555
O3_4 C1_4 1_555 1_555
C1_4 C9_4 1_555 1_555
C3_4 C5_4 1_555 1_555
Dy4 O7_4 1_555 1_555
O6_4 C4_4 1_555 1_555
C4_4 C12_4 1_555 1_555
C5_4 H1_4 1_555 1_555
O9_4 Dy4 1_555 1_555
C9_4 C18_4 1_555 1_555
C11_4 C13_4 1_555 1_555
C12_4 H4_4 1_555 1_555
C13_4 C3_4 1_555 1_555
C14_4 O6_4 1_555 1_555
C16_4 C4_4 1_555 1_555
H7_4 C16_4 1_555 1_555
C17_4 C11_4 1_555 1_555
H8_4 C17_4 1_555 1_555
C18_4 C12_4 1_555 1_555
H9_4 C18_4 1_555 1_555
C19_4 C9_4 1_555 1_555
H10_4 C19_4 1_555 1_555
C20_4 O9_4 1_555 1_555
O12_4 Dy4 1_555 1_555
C5_4 C14_4 1_555 1_555
C11_4 C20_4 1_555 1_555
C14_4 C17_4 1_555 1_555
C16_4 C19_4 1_555 1_555
O7_4 H12_4 1_555 1_555
O7_4 H13_4 1_555 1_555
O2_3 C1_5 1_555 1_555
O12_4 C1_5 1_555 1_555
C1_5 C9_5 1_555 1_555
O4_3 C2_5 1_555 1_555
O5_3 C2_5 1_555 1_555
C2_5 C7_5 1_555 1_555
C3_5 C5_5 1_555 1_555
Dy5 O7_5 1_555 1_555
O6_5 C4_5 1_555 1_555
C4_5 C12_5 1_555 1_555
C5_5 H1_5 1_555 1_555
O9_5 Dy5 1_555 1_555
C7_5 C8_5 1_555 1_555
C8_5 H2_5 1_555 1_555
C9_5 C18_5 1_555 1_555
C10_5 C7_5 1_555 1_555
H3_5 C10_5 1_555 1_555
C14_5 O6_5 1_555 1_555
C15_5 C6_5 1_555 1_555
H6_5 C15_5 1_555 1_555
C16_5 C4_5 1_555 1_555
H7_5 C16_5 1_555 1_555
C17_5 C11_5 1_555 1_555
H8_5 C17_5 1_555 1_555
C18_5 C12_5 1_555 1_555
C19_5 C9_5 1_555 1_555
H10_5 C19_5 1_555 1_555
C21_5 C6_5 1_555 1_555
O11_3 Dy5 1_555 1_555
O13_3 Dy5 1_555 1_555
Dy6_2 O5_3 1_555 1_555
Dy6 O4_3 1_555 1_555
C5_5 C14_5 1_555 1_555
C8_5 C21_5 1_555 1_555
C10_5 C15_5 1_555 1_555
C14_5 C17_5 1_555 1_555
C16_5 C19_5 1_555 1_555
O7_5 H12_5 1_555 1_555
O10 C20_5 1_555 1_555
H5_5 C13_5 1_555 1_555
O10_2 C20_6 1_555 1_555
O2_4 C1_6 1_555 1_555
O12_3 C1_6 1_555 1_555
C1_6 C9_6 1_555 1_555
O4_4 C2_6 1_555 1_555
O5_4 C2_6 1_555 1_555
C2_6 C7_6 1_555 1_555
C3_6 C5_6 1_555 1_555
Dy5_2 O7_6 1_555 1_555
O6_6 C4_6 1_555 1_555
C4_6 C12_6 1_555 1_555
C5_6 H1_6 1_555 1_555
C6_6 O8_6 1_555 1_555
O8_6 C3_6 1_555 1_555
O9_6 Dy5_2 1_555 1_555
C7_6 C8_6 1_555 1_555
C8_6 H2_6 1_555 1_555
C9_6 C18_6 1_555 1_555
C10_6 C7_6 1_555 1_555
H3_6 C10_6 1_555 1_555
C11_6 C13_6 1_555 1_555
C13_6 C3_6 1_555 1_555
H5_6 C13_6 1_555 1_555
C14_6 O6_6 1_555 1_555
C15_6 C6_6 1_555 1_555
H6_6 C15_6 1_555 1_555
C16_6 C4_6 1_555 1_555
H7_6 C16_6 1_555 1_555
C17_6 C11_6 1_555 1_555
H8_6 C17_6 1_555 1_555
C18_6 C12_6 1_555 1_555
C19_6 C9_6 1_555 1_555
H10_6 C19_6 1_555 1_555
C20_6 O9_6 1_555 1_555
C21_6 C6_6 1_555 1_555
H11_6 C21_6 1_555 1_555
O11_4 Dy5_2 1_555 1_555
O13_4 Dy5_2 1_555 1_555
Dy6 O5_4 1_555 1_555
Dy6_2 O4_4 1_555 1_555
C5_6 C14_6 1_555 1_555
C8_6 C21_6 1_555 1_555
C10_6 C15_6 1_555 1_555
C11_6 C20_6 1_555 1_555
C14_6 C17_6 1_555 1_555
C16_6 C19_6 1_555 1_555
O7_6 H12_6 1_555 1_555
O11_4 C1_7 1_555 1_555
O12_2 C1_7 1_555 1_555
C1_7 C9_7 1_555 1_555
C3_7 C5_7 1_555 1_555
Dy6_2 O7_7 1_555 1_555
O6_7 C4_7 1_555 1_555
C4_7 C12_7 1_555 1_555
C5_7 H1_7 1_555 1_555
O9_7 Dy6_2 1_555 1_555
C9_7 C18_7 1_555 1_555
C12_7 H4_7 1_555 1_555
C14_7 O6_7 1_555 1_555
C16_7 C4_7 1_555 1_555
H7_7 C16_7 1_555 1_555
C17_7 C11_7 1_555 1_555
H8_7 C17_7 1_555 1_555
C18_7 C12_7 1_555 1_555
H9_7 C18_7 1_555 1_555
C19_7 C9_7 1_555 1_555
H10_7 C19_7 1_555 1_555
C5_7 C14_7 1_555 1_555
C14_7 C17_7 1_555 1_555
C16_7 C19_7 1_555 1_555
O7_7 H12_7 1_555 1_555
O7_7 H13_7 1_555 1_555
O10_3 C20_7 1_555 1_555
O13_4 C2_7 1_555 1_555
O14_3 C2_7 1_555 1_555
C2_7 C7_7 1_555 1_555
C7_7 C8_7 1_555 1_555
C8_7 H2_7 1_555 1_555
C10_7 C7_7 1_555 1_555
H3_7 C10_7 1_555 1_555
C15_7 C6_7 1_555 1_555
H6_7 C15_7 1_555 1_555
C21_7 C6_7 1_555 1_555
C8_7 C21_7 1_555 1_555
C10_7 C15_7 1_555 1_555
O10_4 C20_8 1_555 1_555
O11_3 C1_8 1_555 1_555
O12 C1_8 1_555 1_555
C1_8 C9_8 1_555 1_555
C3_8 C5_8 1_555 1_555
Dy6 O7_8 1_555 1_555
O6_8 C4_8 1_555 1_555
C4_8 C12_8 1_555 1_555
C5_8 H1_8 1_555 1_555
O9_8 Dy6 1_555 1_555
C9_8 C18_8 1_555 1_555
C11_8 C13_8 1_555 1_555
C12_8 H4_8 1_555 1_555
C13_8 C3_8 1_555 1_555
C14_8 O6_8 1_555 1_555
C16_8 C4_8 1_555 1_555
H7_8 C16_8 1_555 1_555
C17_8 C11_8 1_555 1_555
H8_8 C17_8 1_555 1_555
C18_8 C12_8 1_555 1_555
H9_8 C18_8 1_555 1_555
C19_8 C9_8 1_555 1_555
H10_8 C19_8 1_555 1_555
C20_8 O9_8 1_555 1_555
C5_8 C14_8 1_555 1_555
C11_8 C20_8 1_555 1_555
C14_8 C17_8 1_555 1_555
C16_8 C19_8 1_555 1_555
O7_8 H12_8 1_555 1_555
O7_8 H13_8 1_555 1_555
O13_3 C2_8 1_555 1_555
O14_4 C2_8 1_555 1_555
C2_8 C7_8 1_555 1_555
C6_8 O8_8 1_555 1_555
C7_8 C8_8 1_555 1_555
C8_8 H2_8 1_555 1_555
C10_8 C7_8 1_555 1_555
H3_8 C10_8 1_555 1_555
C15_8 C6_8 1_555 1_555
H6_8 C15_8 1_555 1_555
C21_8 C6_8 1_555 1_555
H11_8 C21_8 1_555 1_555
C8_8 C21_8 1_555 1_555
C10_8 C15_8 1_555 1_555

#END
