
###############################################################################
#
# This file contains modified crystal structure data generated from the
# MOF subset of the Cambridge Structural Database (CSD) v543 
# hosted by the Cambridge Crystallographic Data Centre (CCDC).
#
# This work is licensed under the Creative Commons
# Attribution-NonCommercial-ShareAlike 4.0 International License.
# To view a copy of this license, visit
# http://creativecommons.org/licenses/by-nc-sa/4.0/
# or send a letter to
# Creative Commons, PO Box 1866, Mountain View, CA 94042, USA.
#
# CIF created using the CSD Python API on 29 September 2022
# The structure has been converted into the P1 space group
# The structure has a 3D framework
# The original CSD entry LIXYOI is in the tetragonal crystal system
# The framework has been calculated to contain at least 10.0% void space
# The void calculation uses a probe of radius 1.32A, grid spacing 0.4
#
###############################################################################

data_LIXYOI
_chemical_formula_moiety         '(C480 H400 Ag14 Cd28 N16 S62)n'
_symmetry_cell_setting           triclinic
_symmetry_space_group_name_H-M   'P 1'
_symmetry_Int_Tables_number      1
_space_group_name_Hall           'P 1'
loop_
_symmetry_equiv_pos_site_id
_symmetry_equiv_pos_as_xyz
1 x,y,z
_cell_length_a                   18.3203(2)
_cell_length_b                   18.3203(2)
_cell_length_c                   45.4431(11)
_cell_angle_alpha                90
_cell_angle_beta                 90
_cell_angle_gamma                90
_cell_volume                     15252.2
loop_
_atom_site_label
_atom_site_type_symbol
_atom_site_fract_x
_atom_site_fract_y
_atom_site_fract_z
C46 C 0.3314(7) 0.0103(6) 0.0347(2)
H38 H 0.3096 0.0455 0.0229
C47 C 0.4055(7) 0.0030(6) 0.0336(2)
H39 H 0.4331 0.0323 0.0211
C4 C 0.8716(4) 0.0078(4) 0.04216(18)
H3 H 0.8911 0.0485 0.0515
C6 C 0.9743(5) 0.0037(7) 0.0108(2)
H5 H 0.9893 0.0386 0.0244
Cd1 Cd 0.32475(4) 0.63473(4) 0.061814(13)
Cd2 Cd 0.5000 0.7500 0.05230(2)
Ag1 Ag 0.65568(4) 0.71946(4) 0.126050(13)
S1 S 0.41022(13) 0.67301(14) 0.02229(5)
S2 S 0.55976(11) 0.66142(11) 0.09115(4)
S3 S 0.74775(14) 0.76741(13) 0.08776(5)
S4 S 0.71316(13) 0.60841(13) 0.15254(5)
N1 N 0.2234(3) 0.5823(4) 0.03782(13)
C1 C 0.1868(4) 0.6140(3) 0.01426(13)
H1 H 0.2064 0.6547 0.0049
C2 C 0.1210(4) 0.5847(4) 0.00465(14)
C3 C 0.0918(3) 0.5238(5) 0.01860(18)
C4_2 C 0.1284(4) 0.4922(4) 0.04216(18)
H3_2 H 0.1089 0.4515 0.0515
C5 C 0.1942(4) 0.5215(4) 0.05178(14)
H4 H 0.2187 0.5003 0.0675
C6_2 C 0.0257(5) 0.4963(7) 0.0108(2)
H5_2 H 0.0107 0.4614 0.0244
C7 C 0.3497(5) 0.7270(5) 0.00073(17)
C8 C 0.3122(6) 0.7860(5) 0.01192(18)
H6 H 0.3205 0.7995 0.0314
H7 H 0.2410 0.8661 0.0038
C13 C 0.6032(5) 0.5910(4) 0.06919(16)
C14 C 0.6787(5) 0.5824(5) 0.07095(19)
H11 H 0.7059 0.6099 0.0842
C15 C 0.7130(6) 0.5316(5) 0.0525(2)
H12 H 0.7635 0.5265 0.0522
C16 C 0.6686(7) 0.4897(6) 0.0347(2)
H13 H 0.6904 0.4545 0.0229
C17 C 0.5945(7) 0.4970(6) 0.0336(2)
H14 H 0.5669 0.4677 0.0211
C18 C 0.5609(6) 0.5487(5) 0.05129(19)
H15 H 0.5105 0.5545 0.0510
C19 C 0.8204(5) 0.8203(6) 0.10354(18)
C20 C 0.8891(6) 0.8127(7) 0.0906(2)
H16 H 0.8966 0.7814 0.0747
C21 C 0.9459(7) 0.8537(10) 0.1024(4)
H17 H 0.9918 0.8498 0.0938
C22 C 0.9375(8) 0.8997(10) 0.1260(3)
H18 H 0.9761 0.9272 0.1334
C23 C 0.8680(7) 0.9028(8) 0.1382(2)
H19 H 0.8597 0.9338 0.1540
C24 C 0.8127(6) 0.8626(6) 0.12782(18)
H20 H 0.7679 0.8636 0.1375
C25 C 0.7864(5) 0.6465(5) 0.1730(2)
C26 C 0.8418(6) 0.6826(6) 0.1565(2)
H21 H 0.8400 0.6851 0.1361
C27 C 0.9004(6) 0.7145(7) 0.1727(3)
H22 H 0.9367 0.7400 0.1628
C28 C 0.9039(7) 0.7081(7) 0.2036(3)
H23 H 0.9431 0.7280 0.2139
C29 C 0.8520(6) 0.6741(6) 0.2179(2)
H24 H 0.8544 0.6725 0.2383
C30 C 0.7928(6) 0.6400(5) 0.2038(2)
H25 H 0.7586 0.6137 0.2146
Cd3 Cd 0.67525(4) 0.86527(4) 0.061814(13)
Ag2 Ag 0.34432(4) 0.78054(4) 0.126050(13)
S5 S 0.58978(13) 0.82699(14) 0.02229(5)
S6 S 0.44024(11) 0.83858(11) 0.09115(4)
S7 S 0.25225(14) 0.73259(13) 0.08776(5)
S8 S 0.28684(13) 0.89159(13) 0.15254(5)
C37 C 0.6503(5) 0.7730(5) 0.00073(17)
C38 C 0.6878(6) 0.7140(5) 0.01192(18)
H31 H 0.6795 0.7005 0.0314
H32 H 0.7590 0.6339 0.0038
C43 C 0.3968(5) 0.9090(4) 0.06919(16)
C44 C 0.3213(5) 0.9176(5) 0.07095(19)
H36 H 0.2941 0.8901 0.0842
C45 C 0.2870(6) 0.9684(5) 0.0525(2)
H37 H 0.2365 0.9735 0.0522
C48 C 0.4391(6) 0.9513(5) 0.05129(19)
H40 H 0.4895 0.9455 0.0510
C49 C 0.1796(5) 0.6797(6) 0.10354(18)
C50 C 0.1109(6) 0.6873(7) 0.0906(2)
H41 H 0.1034 0.7186 0.0747
C51 C 0.0541(7) 0.6463(10) 0.1024(4)
H42 H 0.0082 0.6502 0.0938
C52 C 0.0625(8) 0.6003(10) 0.1260(3)
H43 H 0.0239 0.5728 0.1334
C53 C 0.1320(7) 0.5972(8) 0.1382(2)
H44 H 0.1403 0.5662 0.1540
C54 C 0.1873(6) 0.6374(6) 0.12782(18)
H45 H 0.2321 0.6364 0.1375
C55 C 0.2136(5) 0.8535(5) 0.1730(2)
C56 C 0.1582(6) 0.8174(6) 0.1565(2)
H46 H 0.1600 0.8149 0.1361
C57 C 0.0996(6) 0.7855(7) 0.1727(3)
H47 H 0.0633 0.7600 0.1628
C58 C 0.0961(7) 0.7919(7) 0.2036(3)
H48 H 0.0569 0.7720 0.2139
C59 C 0.1480(6) 0.8259(6) 0.2179(2)
H49 H 0.1456 0.8275 0.2383
C60 C 0.2072(6) 0.8600(5) 0.2038(2)
H50 H 0.2414 0.8863 0.2146
Cd5 Cd 0.61527(4) 0.57475(4) 0.188186(13)
Cd6 Cd 0.38473(4) 0.92525(4) 0.188186(13)
Ag3 Ag 0.53054(4) 0.90568(4) 0.123950(13)
Ag4 Ag 0.46946(4) 0.59432(4) 0.123950(13)
S9 S 0.58858(11) 0.80976(11) 0.15885(4)
S10 S 0.41142(11) 0.69024(11) 0.15885(4)
S11 S 0.64159(13) 0.96316(13) 0.09746(5)
S12 S 0.35841(13) 0.53684(13) 0.09746(5)
N3 N 0.7766(3) 0.9177(4) 0.03782(13)
C19_2 C 0.9297(6) 0.0704(5) 0.35354(18)
C20_2 C 0.9373(7) 0.1391(6) 0.3406(2)
H16_2 H 0.9686 0.1466 0.3247
C21_2 C 0.8963(10) 0.1959(7) 0.3524(4)
H17_2 H 0.9002 0.2418 0.3438
C22_2 C 0.8503(10) 0.1875(8) 0.3760(3)
H18_2 H 0.8228 0.2261 0.3834
C23_2 C 0.8472(8) 0.1180(7) 0.3882(2)
H19_2 H 0.8162 0.1097 0.4040
C24_2 C 0.8874(6) 0.0627(6) 0.37782(18)
H20_2 H 0.8864 0.0179 0.3875
N3_2 N 0.8323(4) 0.0266(3) 0.28782(13)
C1_2 C 0.8132(4) 0.8860(3) 0.01426(13)
H1_2 H 0.7936 0.8453 0.0049
C2_2 C 0.8790(4) 0.9153(4) 0.00465(14)
C3_2 C 0.9082(3) 0.9762(5) 0.01860(18)
C5_2 C 0.8058(4) 0.9785(4) 0.05178(14)
H4_2 H 0.7813 0.9997 0.0675
C1_3 C 0.8640(3) 0.0632(4) 0.26426(13)
H1_3 H 0.9047 0.0436 0.2549
C2_3 C 0.8347(4) 0.1290(4) 0.25465(14)
H2 H 0.8558 0.1535 0.2389
C3_3 C 0.7738(5) 0.1582(3) 0.26860(18)
C4_3 C 0.7422(4) 0.1216(4) 0.29216(18)
H3_3 H 0.7015 0.1411 0.3015
C5_3 C 0.7715(4) 0.0558(4) 0.30178(14)
H4_3 H 0.7503 0.0313 0.3175
C6_3 C 0.7463(7) 0.2243(5) 0.2608(2)
H5_3 H 0.7114 0.2393 0.2744
N2 N 0.6677(4) 0.4734(3) 0.21218(13)
C31 C 0.6360(3) 0.4368(4) 0.23574(13)
H26 H 0.5953 0.4564 0.2451
C32 C 0.6653(4) 0.3710(4) 0.24535(14)
H27 H 0.6442 0.3465 0.2611
C33 C 0.7262(5) 0.3418(3) 0.23140(18)
C34 C 0.7578(4) 0.3784(4) 0.20784(18)
H28 H 0.7985 0.3589 0.1985
C35 C 0.7285(4) 0.4442(4) 0.19822(14)
H29 H 0.7497 0.4687 0.1825
C36 C 0.7537(7) 0.2757(5) 0.2392(2)
H30 H 0.7886 0.2607 0.2256
Cd2_2 Cd 0.5000 0.7500 0.19770(2)
S1_2 S 0.57699(14) 0.66022(13) 0.22771(5)
S3_2 S 0.48259(13) 0.99775(14) 0.16224(5)
C7_2 C 0.5230(5) 0.5997(5) 0.24927(17)
C8_2 C 0.4640(5) 0.5622(6) 0.23808(18)
H6_2 H 0.4505 0.5705 0.2186
C9 C 0.4248(6) 0.5138(7) 0.2541(2)
H7_2 H 0.3839 0.4910 0.2462
C10 C 0.4469(8) 0.4994(8) 0.2822(3)
H8 H 0.4236 0.4628 0.2928
C11 C 0.5017(8) 0.5371(8) 0.2949(2)
H9 H 0.5128 0.5303 0.3147
C12 C 0.5415(6) 0.5863(6) 0.27797(19)
H10 H 0.5811 0.6105 0.2863
C13_2 C 0.6590(4) 0.8532(5) 0.18081(16)
C14_2 C 0.6676(5) 0.9287(5) 0.17905(19)
H11_2 H 0.6401 0.9559 0.1658
C15_2 C 0.7184(5) 0.9630(6) 0.1975(2)
C16_2 C 0.7603(6) 0.9186(7) 0.2153(2)
H13_2 H 0.7955 0.9404 0.2271
C17_2 C 0.7530(6) 0.8445(7) 0.2164(2)
H14_2 H 0.7823 0.8169 0.2289
C18_2 C 0.7013(5) 0.8109(6) 0.19871(19)
H15_2 H 0.6955 0.7605 0.1990
S5_2 S 0.42301(14) 0.83978(13) 0.22771(5)
S7_2 S 0.51741(13) 0.50225(14) 0.16224(5)
C37_2 C 0.4770(5) 0.9003(5) 0.24927(17)
C38_2 C 0.5360(5) 0.9378(6) 0.23808(18)
H31_2 H 0.5495 0.9295 0.2186
C39 C 0.5752(6) 0.9862(7) 0.2541(2)
C41 C 0.4983(8) 0.9629(8) 0.2949(2)
H34 H 0.4872 0.9697 0.3147
C42 C 0.4585(6) 0.9137(6) 0.27797(19)
H35 H 0.4189 0.8895 0.2863
C43_2 C 0.3410(4) 0.6468(5) 0.18081(16)
C44_2 C 0.3324(5) 0.5713(5) 0.17905(19)
H36_2 H 0.3599 0.5441 0.1658
C45_2 C 0.2816(5) 0.5370(6) 0.1975(2)
H37_2 H 0.2765 0.4865 0.1978
C46_2 C 0.2397(6) 0.5814(7) 0.2153(2)
H38_2 H 0.2045 0.5596 0.2271
C47_2 C 0.2470(6) 0.6555(7) 0.2164(2)
H39_2 H 0.2177 0.6831 0.2289
C48_2 C 0.2987(5) 0.6891(6) 0.19871(19)
H40_2 H 0.3045 0.7395 0.1990
C49_2 C 0.5703(6) 0.4296(5) 0.14646(18)
C50_2 C 0.5627(7) 0.3609(6) 0.1594(2)
H41_2 H 0.5314 0.3534 0.1753
C51_2 C 0.6037(10) 0.3041(7) 0.1476(4)
H42_2 H 0.5998 0.2582 0.1562
C52_2 C 0.6497(10) 0.3125(8) 0.1240(3)
H43_2 H 0.6772 0.2739 0.1166
C53_2 C 0.6528(8) 0.3820(7) 0.1118(2)
H44_2 H 0.6838 0.3903 0.0960
C54_2 C 0.6126(6) 0.4373(6) 0.12218(18)
H45_2 H 0.6136 0.4821 0.1125
C55_2 C 0.3965(5) 0.4636(5) 0.0770(2)
C56_2 C 0.4326(6) 0.4082(6) 0.0935(2)
H46_2 H 0.4351 0.4100 0.1139
C57_2 C 0.4645(7) 0.3496(6) 0.0773(3)
H47_2 H 0.4900 0.3133 0.0872
C58_2 C 0.4581(7) 0.3461(7) 0.0464(3)
H48_2 H 0.4780 0.3069 0.0361
C59_2 C 0.4241(6) 0.3980(6) 0.0321(2)
H49_2 H 0.4225 0.3956 0.0117
C60_2 C 0.3900(5) 0.4572(6) 0.0462(2)
H50_2 H 0.3637 0.4914 0.0354
H2_2 H 0.0965 0.6058 0.9889
C9_2 C 0.2638(7) 0.8252(6) 0.9959(2)
C10_2 C 0.2494(8) 0.8031(8) 0.9678(3)
H8_2 H 0.2128 0.8264 0.9572
C11_2 C 0.2871(8) 0.7483(8) 0.9551(2)
H9_2 H 0.2803 0.7372 0.9353
C12_2 C 0.3363(6) 0.7085(6) 0.97203(19)
H10_2 H 0.3605 0.6689 0.9637
C39_2 C 0.7362(7) 0.6748(6) 0.9959(2)
C40 C 0.7506(8) 0.6969(8) 0.9678(3)
H33 H 0.7872 0.6736 0.9572
C41_2 C 0.7129(8) 0.7517(8) 0.9551(2)
H34_2 H 0.7197 0.7628 0.9353
C42_2 C 0.6637(6) 0.7915(6) 0.97203(19)
H35_2 H 0.6395 0.8311 0.9637
H2_3 H 0.9035 0.8942 0.9889
H27_2 H 0.9035 0.3942 0.0111
H27_3 H 0.0965 0.1058 0.0111
C9_3 C 0.7362(7) 0.1748(6) 0.0041(2)
C10_3 C 0.7506(8) 0.1969(8) 0.0322(3)
H8_3 H 0.7872 0.1736 0.0428
C11_3 C 0.7129(8) 0.2517(8) 0.0449(2)
H9_3 H 0.7197 0.2628 0.0647
C12_3 C 0.6637(6) 0.2915(6) 0.02797(19)
H10_3 H 0.6395 0.3311 0.0363
C39_3 C 0.2638(7) 0.3252(6) 0.0041(2)
C40_2 C 0.2494(8) 0.3031(8) 0.0322(3)
H33_2 H 0.2128 0.3264 0.0428
C41_3 C 0.2871(8) 0.2483(8) 0.0449(2)
H34_3 H 0.2803 0.2372 0.0647
C42_3 C 0.3363(6) 0.2085(6) 0.02797(19)
H35_3 H 0.3605 0.1689 0.0363
N2_2 N 0.7766(3) 0.4177(4) 0.96218(13)
C31_2 C 0.8132(4) 0.3860(3) 0.98574(13)
H26_2 H 0.7936 0.3453 0.9951
C32_2 C 0.8790(4) 0.4153(4) 0.99535(14)
C33_2 C 0.9082(3) 0.4762(5) 0.98140(18)
C34_2 C 0.8716(4) 0.5078(4) 0.95784(18)
H28_2 H 0.8911 0.5485 0.9485
C35_2 C 0.8058(4) 0.4785(4) 0.94822(14)
H29_2 H 0.7813 0.4997 0.9325
C36_2 C 0.9743(5) 0.5037(7) 0.9892(2)
H30_2 H 0.9893 0.5386 0.9756
Cd4 Cd 0.67525(4) 0.36527(4) 0.938186(13)
Cd1_2 Cd 0.38473(4) 0.42525(4) 0.811814(13)
Cd2_3 Cd 0.5000 0.2500 0.80230(2)
Ag1_2 Ag 0.46946(4) 0.09432(4) 0.876050(13)
S1_3 S 0.42301(14) 0.33978(13) 0.77229(5)
S2_2 S 0.41142(11) 0.19024(11) 0.84115(4)
S3_3 S 0.51741(13) 0.00225(14) 0.83776(5)
S4_2 S 0.35841(13) 0.03684(13) 0.90254(5)
N1_2 N 0.3323(4) 0.5266(3) 0.78782(13)
C1_4 C 0.3640(3) 0.5632(4) 0.76426(13)
H1_4 H 0.4047 0.5436 0.7549
C2_4 C 0.3347(4) 0.6290(4) 0.75465(14)
H2_4 H 0.3558 0.6535 0.7389
C3_4 C 0.2738(5) 0.6582(3) 0.76860(18)
C4_4 C 0.2422(4) 0.6216(4) 0.79216(18)
H3_4 H 0.2015 0.6411 0.8015
C5_4 C 0.2715(4) 0.5558(4) 0.80178(14)
H4_4 H 0.2503 0.5313 0.8175
C6_4 C 0.2463(7) 0.7243(5) 0.7608(2)
H5_4 H 0.2114 0.7393 0.7744
C7_3 C 0.4770(5) 0.4003(5) 0.75073(17)
C8_3 C 0.5360(5) 0.4378(6) 0.76192(18)
H6_3 H 0.5495 0.4295 0.7814
C9_4 C 0.5752(6) 0.4862(7) 0.7459(2)
H7_3 H 0.6161 0.5090 0.7538
C10_4 C 0.5531(8) 0.5006(8) 0.7178(3)
H8_4 H 0.5764 0.5372 0.7072
C11_4 C 0.4983(8) 0.4629(8) 0.7051(2)
H9_4 H 0.4872 0.4697 0.6853
C12_4 C 0.4585(6) 0.4137(6) 0.72203(19)
H10_4 H 0.4189 0.3895 0.7137
C13_3 C 0.3410(4) 0.1468(5) 0.81919(16)
C14_3 C 0.3324(5) 0.0713(5) 0.82095(19)
H11_3 H 0.3599 0.0441 0.8342
C15_3 C 0.2816(5) 0.0370(6) 0.8025(2)
C16_3 C 0.2397(6) 0.0814(7) 0.7847(2)
H13_3 H 0.2045 0.0596 0.7729
C17_3 C 0.2470(6) 0.1555(7) 0.7836(2)
H14_3 H 0.2177 0.1831 0.7711
C18_3 C 0.2987(5) 0.1891(6) 0.80129(19)
H15_3 H 0.3045 0.2395 0.8010
N2_3 N 0.1677(4) 0.9734(3) 0.71218(13)
C31_3 C 0.1360(3) 0.9368(4) 0.73574(13)
H26_3 H 0.0953 0.9564 0.7451
C32_3 C 0.1653(4) 0.8710(4) 0.74535(14)
H27_4 H 0.1442 0.8465 0.7611
C33_3 C 0.2262(5) 0.8418(3) 0.73140(18)
C34_3 C 0.2578(4) 0.8784(4) 0.70784(18)
H28_3 H 0.2985 0.8589 0.6985
C35_3 C 0.2285(4) 0.9442(4) 0.69822(14)
H29_3 H 0.2497 0.9687 0.6825
C36_3 C 0.2537(7) 0.7757(5) 0.7392(2)
H30_3 H 0.2886 0.7607 0.7256
Cd3_2 Cd 0.61527(4) 0.07475(4) 0.811814(13)
Ag2_2 Ag 0.53054(4) 0.40568(4) 0.876050(13)
S5_3 S 0.57699(14) 0.16022(13) 0.77229(5)
S6_2 S 0.58858(11) 0.30976(11) 0.84115(4)
S7_3 S 0.48259(13) 0.49775(14) 0.83776(5)
S8_2 S 0.64159(13) 0.46316(13) 0.90254(5)
C37_3 C 0.5230(5) 0.0997(5) 0.75073(17)
C38_3 C 0.4640(5) 0.0622(6) 0.76192(18)
H31_3 H 0.4505 0.0705 0.7814
C39_4 C 0.4248(6) 0.0138(7) 0.7459(2)
C41_4 C 0.5017(8) 0.0371(8) 0.7051(2)
H34_4 H 0.5128 0.0303 0.6853
C42_4 C 0.5415(6) 0.0863(6) 0.72203(19)
H35_4 H 0.5811 0.1105 0.7137
C43_3 C 0.6590(4) 0.3532(5) 0.81919(16)
C44_3 C 0.6676(5) 0.4287(5) 0.82095(19)
H36_3 H 0.6401 0.4559 0.8342
C45_3 C 0.7184(5) 0.4630(6) 0.8025(2)
H37_3 H 0.7235 0.5135 0.8022
C46_3 C 0.7603(6) 0.4186(7) 0.7847(2)
H38_3 H 0.7955 0.4404 0.7729
C47_3 C 0.7530(6) 0.3445(7) 0.7836(2)
H39_3 H 0.7823 0.3169 0.7711
C48_3 C 0.7013(5) 0.3109(6) 0.80129(19)
H40_3 H 0.6955 0.2605 0.8010
C49_3 C 0.4297(6) 0.5704(5) 0.85354(18)
C50_3 C 0.4373(7) 0.6391(6) 0.8406(2)
H41_3 H 0.4686 0.6466 0.8247
C51_3 C 0.3963(10) 0.6959(7) 0.8524(4)
H42_3 H 0.4002 0.7418 0.8438
C52_3 C 0.3503(10) 0.6875(8) 0.8760(3)
H43_3 H 0.3228 0.7261 0.8834
C53_3 C 0.3472(8) 0.6180(7) 0.8882(2)
H44_3 H 0.3162 0.6097 0.9040
C54_3 C 0.3874(6) 0.5627(6) 0.87782(18)
H45_3 H 0.3864 0.5179 0.8875
C55_3 C 0.6035(5) 0.5364(5) 0.9230(2)
C56_3 C 0.5674(6) 0.5918(6) 0.9065(2)
H46_3 H 0.5649 0.5900 0.8861
C57_3 C 0.5355(7) 0.6504(6) 0.9227(3)
H47_3 H 0.5100 0.6867 0.9128
C58_3 C 0.5419(7) 0.6539(7) 0.9536(3)
H48_3 H 0.5220 0.6931 0.9639
C59_3 C 0.5759(6) 0.6020(6) 0.9679(2)
H49_3 H 0.5775 0.6044 0.9883
C60_3 C 0.6100(5) 0.5428(6) 0.9538(2)
H50_3 H 0.6363 0.5086 0.9646
Cd5_2 Cd 0.32475(4) 0.13473(4) 0.938186(13)
Ag3_2 Ag 0.65568(4) 0.21946(4) 0.873950(13)
Ag4_2 Ag 0.34432(4) 0.28054(4) 0.873950(13)
S9_2 S 0.55976(11) 0.16142(11) 0.90885(4)
S10_2 S 0.44024(11) 0.33858(11) 0.90885(4)
S11_2 S 0.71316(13) 0.10841(13) 0.84746(5)
S12_2 S 0.28684(13) 0.39159(13) 0.84746(5)
N2_4 N 0.2234(3) 0.0823(4) 0.96218(13)
C31_4 C 0.1868(4) 0.1140(3) 0.98574(13)
H26_4 H 0.2064 0.1547 0.9951
C32_4 C 0.1210(4) 0.0847(4) 0.99535(14)
C33_4 C 0.0918(3) 0.0238(5) 0.98140(18)
C35_4 C 0.1942(4) 0.0215(4) 0.94822(14)
H29_4 H 0.2187 0.0003 0.9325
Cd2_4 Cd 0.5000 0.2500 0.94770(2)
S1_4 S 0.58978(13) 0.32699(14) 0.97771(5)
S3_4 S 0.25225(14) 0.23259(13) 0.91224(5)
C7_4 C 0.6503(5) 0.2730(5) 0.99927(17)
C8_4 C 0.6878(6) 0.2140(5) 0.98808(18)
H6_4 H 0.6795 0.2005 0.9686
H7_4 H 0.7590 0.1339 0.9962
C13_4 C 0.3968(5) 0.4090(4) 0.93081(16)
C14_4 C 0.3213(5) 0.4176(5) 0.92905(19)
H11_4 H 0.2941 0.3901 0.9158
C15_4 C 0.2870(6) 0.4684(5) 0.9475(2)
H12_2 H 0.2365 0.4735 0.9478
C16_4 C 0.3314(7) 0.5103(6) 0.9653(2)
H13_4 H 0.3096 0.5455 0.9771
C17_4 C 0.4055(7) 0.5030(6) 0.9664(2)
H14_4 H 0.4331 0.5323 0.9789
C18_4 C 0.4391(6) 0.4513(5) 0.94871(19)
H15_4 H 0.4895 0.4455 0.9490
C19_3 C 0.1796(5) 0.1797(6) 0.89646(18)
C20_3 C 0.1109(6) 0.1873(7) 0.9094(2)
H16_3 H 0.1034 0.2186 0.9253
C21_3 C 0.0541(7) 0.1463(10) 0.8976(4)
H17_3 H 0.0082 0.1502 0.9062
C22_3 C 0.0625(8) 0.1003(10) 0.8740(3)
H18_3 H 0.0239 0.0728 0.8666
C23_3 C 0.1320(7) 0.0972(8) 0.8618(2)
H19_3 H 0.1403 0.0662 0.8460
C24_3 C 0.1873(6) 0.1374(6) 0.87218(18)
H20_3 H 0.2321 0.1364 0.8625
C25_2 C 0.2136(5) 0.3535(5) 0.8270(2)
C26_2 C 0.1582(6) 0.3174(6) 0.8435(2)
H21_2 H 0.1600 0.3149 0.8639
C27_2 C 0.0996(6) 0.2855(7) 0.8273(3)
H22_2 H 0.0633 0.2600 0.8372
C28_2 C 0.0961(7) 0.2919(7) 0.7964(3)
H23_2 H 0.0569 0.2720 0.7861
C29_2 C 0.1480(6) 0.3259(6) 0.7821(2)
H24_2 H 0.1456 0.3275 0.7617
C30_2 C 0.2072(6) 0.3600(5) 0.7962(2)
H25_2 H 0.2414 0.3863 0.7854
S5_4 S 0.41022(13) 0.17301(14) 0.97771(5)
S7_4 S 0.74775(14) 0.26741(13) 0.91224(5)
C37_4 C 0.3497(5) 0.2270(5) 0.99927(17)
C38_4 C 0.3122(6) 0.2860(5) 0.98808(18)
H31_4 H 0.3205 0.2995 0.9686
H32_2 H 0.2410 0.3661 0.9962
C43_4 C 0.6032(5) 0.0910(4) 0.93081(16)
C44_4 C 0.6787(5) 0.0824(5) 0.92905(19)
H36_4 H 0.7059 0.1099 0.9158
C45_4 C 0.7130(6) 0.0316(5) 0.9475(2)
H37_4 H 0.7635 0.0265 0.9478
C48_4 C 0.5609(6) 0.0487(5) 0.94871(19)
H40_4 H 0.5105 0.0545 0.9490
C49_4 C 0.8204(5) 0.3203(6) 0.89646(18)
C50_4 C 0.8891(6) 0.3127(7) 0.9094(2)
H41_4 H 0.8966 0.2814 0.9253
C51_4 C 0.9459(7) 0.3537(10) 0.8976(4)
H42_4 H 0.9918 0.3498 0.9062
C52_4 C 0.9375(8) 0.3997(10) 0.8740(3)
H43_4 H 0.9761 0.4272 0.8666
C53_4 C 0.8680(7) 0.4028(8) 0.8618(2)
H44_4 H 0.8597 0.4338 0.8460
C54_4 C 0.8127(6) 0.3626(6) 0.87218(18)
H45_4 H 0.7679 0.3636 0.8625
C55_4 C 0.7864(5) 0.1465(5) 0.8270(2)
C56_4 C 0.8418(6) 0.1826(6) 0.8435(2)
H46_4 H 0.8400 0.1851 0.8639
C57_4 C 0.9004(6) 0.2145(7) 0.8273(3)
H47_4 H 0.9367 0.2400 0.8372
C58_4 C 0.9039(7) 0.2081(7) 0.7964(3)
H48_4 H 0.9431 0.2280 0.7861
C59_4 C 0.8520(6) 0.1741(6) 0.7821(2)
H49_4 H 0.8544 0.1725 0.7617
C60_4 C 0.7928(6) 0.1400(5) 0.7962(2)
H50_4 H 0.7586 0.1137 0.7854
C19_4 C 0.0703(6) 0.9296(5) 0.64646(18)
C20_4 C 0.0627(7) 0.8609(6) 0.6594(2)
H16_4 H 0.0314 0.8534 0.6753
C21_4 C 0.1037(10) 0.8041(7) 0.6476(4)
H17_4 H 0.0998 0.7582 0.6562
C22_4 C 0.1497(10) 0.8125(8) 0.6240(3)
H18_4 H 0.1772 0.7739 0.6166
C23_4 C 0.1528(8) 0.8820(7) 0.6118(2)
H19_4 H 0.1838 0.8903 0.5960
C24_4 C 0.1126(6) 0.9373(6) 0.62218(18)
H20_4 H 0.1136 0.9821 0.6125
Cd1_3 Cd 0.17525(4) 0.36527(4) 0.561814(13)
Cd2_5 Cd 0.0000 0.2500 0.55230(2)
S1_5 S 0.08978(13) 0.32699(14) 0.52229(5)
N1_3 N 0.2766(3) 0.4177(4) 0.53782(13)
C1_5 C 0.3132(4) 0.3860(3) 0.51426(13)
H1_5 H 0.2936 0.3453 0.5049
C2_5 C 0.3790(4) 0.4153(4) 0.50465(14)
H2_5 H 0.4035 0.3942 0.4889
C3_5 C 0.4082(3) 0.4762(5) 0.51860(18)
C4_5 C 0.3716(4) 0.5078(4) 0.54216(18)
H3_5 H 0.3911 0.5485 0.5515
C5_5 C 0.3058(4) 0.4785(4) 0.55178(14)
H4_5 H 0.2813 0.4997 0.5675
C6_5 C 0.4743(5) 0.5037(7) 0.5108(2)
H5_5 H 0.4893 0.5386 0.5244
C7_5 C 0.1503(5) 0.2730(5) 0.50073(17)
C8_5 C 0.1878(6) 0.2140(5) 0.51192(18)
H6_5 H 0.1795 0.2005 0.5314
C9_5 C 0.2362(7) 0.1748(6) 0.4959(2)
H7_5 H 0.2590 0.1339 0.5038
C10_5 C 0.2506(8) 0.1969(8) 0.4678(3)
H8_5 H 0.2872 0.1736 0.4572
C11_5 C 0.2129(8) 0.2517(8) 0.4551(2)
H9_5 H 0.2197 0.2628 0.4353
C12_5 C 0.1637(6) 0.2915(6) 0.47203(19)
H10_5 H 0.1395 0.3311 0.4637
N2_5 N 0.7234(3) 0.5823(4) 0.46218(13)
C31_5 C 0.6868(4) 0.6140(3) 0.48574(13)
H26_5 H 0.7064 0.6547 0.4951
C32_5 C 0.6210(4) 0.5847(4) 0.49535(14)
H27_5 H 0.5965 0.6058 0.5111
C33_5 C 0.5918(3) 0.5238(5) 0.48140(18)
C34_4 C 0.6284(4) 0.4922(4) 0.45784(18)
H28_4 H 0.6089 0.4515 0.4485
C35_5 C 0.6942(4) 0.5215(4) 0.44822(14)
H29_5 H 0.7187 0.5003 0.4325
C36_4 C 0.5257(5) 0.4963(7) 0.4892(2)
H30_4 H 0.5107 0.4614 0.4756
Ag2_3 Ag 0.15568(4) 0.21946(4) 0.626050(13)
S6_3 S 0.05976(11) 0.16142(11) 0.59115(4)
S7_5 S 0.24775(14) 0.26741(13) 0.58776(5)
S8_3 S 0.21316(13) 0.10841(13) 0.65254(5)
C43_5 C 0.1032(5) 0.0910(4) 0.56919(16)
C44_5 C 0.1787(5) 0.0824(5) 0.57095(19)
H36_5 H 0.2059 0.1099 0.5842
C45_5 C 0.2130(6) 0.0316(5) 0.5525(2)
H37_5 H 0.2635 0.0265 0.5522
C48_5 C 0.0609(6) 0.0487(5) 0.55129(19)
H40_5 H 0.0105 0.0545 0.5510
C49_5 C 0.3204(5) 0.3203(6) 0.60354(18)
C50_5 C 0.3891(6) 0.3127(7) 0.5906(2)
H41_5 H 0.3966 0.2814 0.5747
C51_5 C 0.4459(7) 0.3537(10) 0.6024(4)
H42_5 H 0.4918 0.3498 0.5938
C52_5 C 0.4375(8) 0.3997(10) 0.6260(3)
H43_5 H 0.4761 0.4272 0.6334
C53_5 C 0.3680(7) 0.4028(8) 0.6382(2)
H44_5 H 0.3597 0.4338 0.6540
C54_5 C 0.3127(6) 0.3626(6) 0.62782(18)
H45_5 H 0.2679 0.3636 0.6375
C55_5 C 0.2864(5) 0.1465(5) 0.6730(2)
C56_5 C 0.3418(6) 0.1826(6) 0.6565(2)
H46_5 H 0.3400 0.1851 0.6361
C57_5 C 0.4004(6) 0.2145(7) 0.6727(3)
H47_5 H 0.4367 0.2400 0.6628
C58_5 C 0.4039(7) 0.2081(7) 0.7036(3)
H48_5 H 0.4431 0.2280 0.7139
C59_5 C 0.3520(6) 0.1741(6) 0.7179(2)
H49_5 H 0.3544 0.1725 0.7383
C60_5 C 0.2928(6) 0.1400(5) 0.7038(2)
H50_5 H 0.2586 0.1137 0.7146
Cd4_2 Cd 0.82475(4) 0.63473(4) 0.438186(13)
Cd6_2 Cd 0.11527(4) 0.07475(4) 0.688186(13)
Ag4_3 Ag 0.03054(4) 0.40568(4) 0.623950(13)
S10_3 S 0.08858(11) 0.30976(11) 0.65885(4)
S12_3 S 0.14159(13) 0.46316(13) 0.59746(5)
Cd2_6 Cd 1.0000 0.7500 0.30230(2)
S3_5 S 0.98259(13) 0.99775(14) 0.33776(5)
C8_6 C 0.9640(5) 0.5622(6) 0.26192(18)
H6_6 H 0.9505 0.5705 0.2814
C9_6 C 0.9248(6) 0.5138(7) 0.2459(2)
H7_6 H 0.8839 0.4910 0.2538
C10_6 C 0.9469(8) 0.4994(8) 0.2178(3)
H8_6 H 0.9236 0.4628 0.2072
Cd3_3 Cd 0.88473(4) 0.92525(4) 0.311814(13)
Ag2_4 Ag 0.96946(4) 0.59432(4) 0.376050(13)
S5_5 S 0.92301(14) 0.83978(13) 0.27229(5)
S6_4 S 0.91142(11) 0.69024(11) 0.34115(4)
S8_4 S 0.85841(13) 0.53684(13) 0.40254(5)
C37_5 C 0.9770(5) 0.9003(5) 0.25073(17)
C41_5 C 0.9983(8) 0.9629(8) 0.2051(2)
H34_5 H 0.9872 0.9697 0.1853
C42_5 C 0.9585(6) 0.9137(6) 0.22203(19)
H35_5 H 0.9189 0.8895 0.2137
C43_6 C 0.8410(4) 0.6468(5) 0.31919(16)
C44_6 C 0.8324(5) 0.5713(5) 0.32095(19)
H36_6 H 0.8599 0.5441 0.3342
C45_6 C 0.7816(5) 0.5370(6) 0.3025(2)
H37_6 H 0.7765 0.4865 0.3022
C46_4 C 0.7397(6) 0.5814(7) 0.2847(2)
H38_4 H 0.7045 0.5596 0.2729
C47_4 C 0.7470(6) 0.6555(7) 0.2836(2)
H39_4 H 0.7177 0.6831 0.2711
C48_6 C 0.7987(5) 0.6891(6) 0.30129(19)
H40_6 H 0.8045 0.7395 0.3010
C55_6 C 0.8965(5) 0.4636(5) 0.4230(2)
C56_6 C 0.9326(6) 0.4082(6) 0.4065(2)
H46_6 H 0.9351 0.4100 0.3861
C57_6 C 0.9645(7) 0.3496(6) 0.4227(3)
H47_6 H 0.9900 0.3133 0.4128
C58_6 C 0.9581(7) 0.3461(7) 0.4536(3)
H48_6 H 0.9780 0.3069 0.4639
C59_6 C 0.9241(6) 0.3980(6) 0.4679(2)
H49_6 H 0.9225 0.3956 0.4883
C60_6 C 0.8900(5) 0.4572(6) 0.4538(2)
H50_6 H 0.8637 0.4914 0.4646
Ag3_3 Ag 0.84432(4) 0.78054(4) 0.373950(13)
S9_3 S 0.94024(11) 0.83858(11) 0.40885(4)
S11_3 S 0.78684(13) 0.89159(13) 0.34746(5)
Cd2_7 Cd 1.0000 0.7500 0.44770(2)
S1_6 S 0.91022(13) 0.67301(14) 0.47771(5)
C7_6 C 0.8497(5) 0.7270(5) 0.49927(17)
C8_7 C 0.8122(6) 0.7860(5) 0.48808(18)
H6_7 H 0.8205 0.7995 0.4686
C9_7 C 0.7638(7) 0.8252(6) 0.5041(2)
H7_7 H 0.7410 0.8661 0.4962
C10_7 C 0.7494(8) 0.8031(8) 0.5322(3)
H8_7 H 0.7128 0.8264 0.5428
C11_6 C 0.7871(8) 0.7483(8) 0.5449(2)
H9_6 H 0.7803 0.7372 0.5647
C12_6 C 0.8363(6) 0.7085(6) 0.52797(19)
H10_6 H 0.8605 0.6689 0.5363
S7_6 S 0.75225(14) 0.73259(13) 0.41224(5)
C43_7 C 0.8968(5) 0.9090(4) 0.43081(16)
C44_7 C 0.8213(5) 0.9176(5) 0.42905(19)
H36_7 H 0.7941 0.8901 0.4158
C45_7 C 0.7870(6) 0.9684(5) 0.4475(2)
H37_7 H 0.7365 0.9735 0.4478
C48_7 C 0.9391(6) 0.9513(5) 0.44871(19)
H40_7 H 0.9895 0.9455 0.4490
C49_6 C 0.6796(5) 0.6797(6) 0.39646(18)
C50_6 C 0.6109(6) 0.6873(7) 0.4094(2)
H41_6 H 0.6034 0.7186 0.4253
C51_6 C 0.5541(7) 0.6463(10) 0.3976(4)
H42_6 H 0.5082 0.6502 0.4062
C52_6 C 0.5625(8) 0.6003(10) 0.3740(3)
H43_6 H 0.5239 0.5728 0.3666
C53_6 C 0.6320(7) 0.5972(8) 0.3618(2)
H44_6 H 0.6403 0.5662 0.3460
C54_6 C 0.6873(6) 0.6374(6) 0.37218(18)
H45_6 H 0.7321 0.6364 0.3625
C55_7 C 0.7136(5) 0.8535(5) 0.3270(2)
C56_7 C 0.6582(6) 0.8174(6) 0.3435(2)
H46_7 H 0.6600 0.8149 0.3639
C57_7 C 0.5996(6) 0.7855(7) 0.3273(3)
H47_7 H 0.5633 0.7600 0.3372
C58_7 C 0.5961(7) 0.7919(7) 0.2964(3)
H48_7 H 0.5569 0.7720 0.2861
C59_7 C 0.6480(6) 0.8259(6) 0.2821(2)
H49_7 H 0.6456 0.8275 0.2617
C60_7 C 0.7072(6) 0.8600(5) 0.2962(2)
H50_7 H 0.7414 0.8863 0.2854
Cd2_8 Cd -0.0000 0.2500 0.69770(2)
S3_6 S 0.01741(13) 0.00225(14) 0.66224(5)
C8_8 C 0.0360(5) 0.4378(6) 0.73808(18)
H6_8 H 0.0495 0.4295 0.7186
C9_8 C 0.0752(6) 0.4862(7) 0.7541(2)
H7_8 H 0.1161 0.5090 0.7462
C10_8 C 0.0531(8) 0.5006(8) 0.7822(3)
H8_8 H 0.0764 0.5372 0.7928
S5_6 S 0.07699(14) 0.16022(13) 0.72771(5)
C37_6 C 0.0230(5) 0.0997(5) 0.74927(17)
C41_6 C 0.0017(8) 0.0371(8) 0.7949(2)
H34_6 H 0.0128 0.0303 0.8147
C42_6 C 0.0415(6) 0.0863(6) 0.77797(19)
H35_6 H 0.0811 0.1105 0.7863
C43_8 C 0.1590(4) 0.3532(5) 0.68081(16)
C44_8 C 0.1676(5) 0.4287(5) 0.67905(19)
H36_8 H 0.1401 0.4559 0.6658
C45_8 C 0.2184(5) 0.4630(6) 0.6975(2)
H37_8 H 0.2235 0.5135 0.6978
C46_5 C 0.2603(6) 0.4186(7) 0.7153(2)
H38_5 H 0.2955 0.4404 0.7271
C47_5 C 0.2530(6) 0.3445(7) 0.7164(2)
H39_5 H 0.2823 0.3169 0.7289
C48_8 C 0.2013(5) 0.3109(6) 0.69871(19)
H40_8 H 0.1955 0.2605 0.6990
C55_8 C 0.1035(5) 0.5364(5) 0.5770(2)
C56_8 C 0.0674(6) 0.5918(6) 0.5935(2)
H46_8 H 0.0649 0.5900 0.6139
C57_8 C 0.0355(7) 0.6504(6) 0.5773(3)
H47_8 H 0.0100 0.6867 0.5872
C58_8 C 0.0419(7) 0.6539(7) 0.5464(3)
H48_8 H 0.0220 0.6931 0.5361
C59_8 C 0.0759(6) 0.6020(6) 0.5321(2)
H49_8 H 0.0775 0.6044 0.5117
C60_8 C 0.1100(5) 0.5428(6) 0.5462(2)
H50_8 H 0.1363 0.5086 0.5354
C46_6 C 0.1686(7) 0.9897(6) 0.5347(2)
H38_6 H 0.1904 0.9545 0.5229
C47_6 C 0.0945(7) 0.9970(6) 0.5336(2)
H39_6 H 0.0669 0.9677 0.5211
Cd2_9 Cd 1.0000 0.2500 0.55230(2)
Ag1_3 Ag 0.84432(4) 0.28054(4) 0.626050(13)
S2_3 S 0.94024(11) 0.33858(11) 0.59115(4)
S3_7 S 0.75225(14) 0.23259(13) 0.58776(5)
S4_3 S 0.78684(13) 0.39159(13) 0.65254(5)
C13_5 C 0.8968(5) 0.4090(4) 0.56919(16)
C14_5 C 0.8213(5) 0.4176(5) 0.57095(19)
H11_5 H 0.7941 0.3901 0.5842
C15_5 C 0.7870(6) 0.4684(5) 0.5525(2)
H12_3 H 0.7365 0.4735 0.5522
C16_5 C 0.8314(7) 0.5103(6) 0.5347(2)
H13_5 H 0.8096 0.5455 0.5229
C17_5 C 0.9055(7) 0.5030(6) 0.5336(2)
H14_5 H 0.9331 0.5323 0.5211
C18_5 C 0.9391(6) 0.4513(5) 0.55129(19)
H15_5 H 0.9895 0.4455 0.5510
C19_5 C 0.6796(5) 0.1797(6) 0.60354(18)
C20_5 C 0.6109(6) 0.1873(7) 0.5906(2)
H16_5 H 0.6034 0.2186 0.5747
C21_5 C 0.5541(7) 0.1463(10) 0.6024(4)
H17_5 H 0.5082 0.1502 0.5938
C22_5 C 0.5625(8) 0.1003(10) 0.6260(3)
H18_5 H 0.5239 0.0728 0.6334
C23_5 C 0.6320(7) 0.0972(8) 0.6382(2)
H19_5 H 0.6403 0.0662 0.6540
C24_5 C 0.6873(6) 0.1374(6) 0.62782(18)
H20_5 H 0.7321 0.1364 0.6375
C25_3 C 0.7136(5) 0.3535(5) 0.6730(2)
C26_3 C 0.6582(6) 0.3174(6) 0.6565(2)
H21_3 H 0.6600 0.3149 0.6361
C27_3 C 0.5996(6) 0.2855(7) 0.6727(3)
H22_3 H 0.5633 0.2600 0.6628
C28_3 C 0.5961(7) 0.2919(7) 0.7036(3)
H23_3 H 0.5569 0.2720 0.7139
C29_3 C 0.6480(6) 0.3259(6) 0.7179(2)
H24_3 H 0.6456 0.3275 0.7383
C30_3 C 0.7072(6) 0.3600(5) 0.7038(2)
H25_3 H 0.7414 0.3863 0.7146
Cd3_4 Cd 0.82475(4) 0.13473(4) 0.561814(13)
S5_7 S 0.91022(13) 0.17301(14) 0.52229(5)
C37_7 C 0.8497(5) 0.2270(5) 0.50073(17)
C38_5 C 0.8122(6) 0.2860(5) 0.51192(18)
H31_5 H 0.8205 0.2995 0.5314
C39_5 C 0.7638(7) 0.3252(6) 0.4959(2)
H32_3 H 0.7410 0.3661 0.5038
C40_3 C 0.7494(8) 0.3031(8) 0.4678(3)
H33_3 H 0.7128 0.3264 0.4572
C41_7 C 0.7871(8) 0.2483(8) 0.4551(2)
H34_7 H 0.7803 0.2372 0.4353
C42_7 C 0.8363(6) 0.2085(6) 0.47203(19)
H35_7 H 0.8605 0.1689 0.4637
Cd5_3 Cd 0.88473(4) 0.42525(4) 0.688186(13)
Ag3_4 Ag 0.96946(4) 0.09432(4) 0.623950(13)
S9_4 S 0.91142(11) 0.19024(11) 0.65885(4)
S11_4 S 0.85841(13) 0.03684(13) 0.59746(5)
N3_3 N 0.7234(3) 0.0823(4) 0.53782(13)
H12_4 H 0.2765 0.9865 0.8022
C19_6 C 0.5703(6) 0.9296(5) 0.85354(18)
C20_6 C 0.5627(7) 0.8609(6) 0.8406(2)
H16_6 H 0.5314 0.8534 0.8247
C21_6 C 0.6037(10) 0.8041(7) 0.8524(4)
H17_6 H 0.5998 0.7582 0.8438
C22_6 C 0.6497(10) 0.8125(8) 0.8760(3)
H18_6 H 0.6772 0.7739 0.8834
C23_6 C 0.6528(8) 0.8820(7) 0.8882(2)
H19_6 H 0.6838 0.8903 0.9040
C24_6 C 0.6126(6) 0.9373(6) 0.87782(18)
H20_6 H 0.6136 0.9821 0.8875
C25_4 C 0.3965(5) 0.9636(5) 0.9230(2)
C26_4 C 0.4326(6) 0.9082(6) 0.9065(2)
H21_4 H 0.4351 0.9100 0.8861
C27_4 C 0.4645(7) 0.8496(6) 0.9227(3)
H22_4 H 0.4900 0.8133 0.9128
C28_4 C 0.4581(7) 0.8461(7) 0.9536(3)
H23_4 H 0.4780 0.8069 0.9639
C29_4 C 0.4241(6) 0.8980(6) 0.9679(2)
H24_4 H 0.4225 0.8956 0.9883
C30_4 C 0.3900(5) 0.9572(6) 0.9538(2)
H25_4 H 0.3637 0.9914 0.9646
H32_4 H 0.3839 0.9910 0.7538
C40_4 C 0.4469(8) 0.9994(8) 0.7178(3)
H33_4 H 0.4236 0.9628 0.7072
N3_4 N 0.6677(4) 0.9734(3) 0.78782(13)
C1_6 C 0.6868(4) 0.1140(3) 0.51426(13)
H1_6 H 0.7064 0.1547 0.5049
C2_6 C 0.6210(4) 0.0847(4) 0.50465(14)
H2_6 H 0.5965 0.1058 0.4889
C3_6 C 0.5918(3) 0.0238(5) 0.51860(18)
C5_6 C 0.6942(4) 0.0215(4) 0.55178(14)
H4_6 H 0.7187 0.0003 0.5675
C34_5 C 0.3716(4) 0.0078(4) 0.45784(18)
H28_5 H 0.3911 0.0485 0.4485
C36_5 C 0.4743(5) 0.0037(7) 0.4892(2)
H30_5 H 0.4893 0.0386 0.4756
C1_7 C 0.6360(3) 0.9368(4) 0.76426(13)
H1_7 H 0.5953 0.9564 0.7549
C2_7 C 0.6653(4) 0.8710(4) 0.75465(14)
H2_7 H 0.6442 0.8465 0.7389
C3_7 C 0.7262(5) 0.8418(3) 0.76860(18)
C4_6 C 0.7578(4) 0.8784(4) 0.79216(18)
H3_6 H 0.7985 0.8589 0.8015
C5_7 C 0.7285(4) 0.9442(4) 0.80178(14)
H4_7 H 0.7497 0.9687 0.8175
C6_6 C 0.7537(7) 0.7757(5) 0.7608(2)
H5_6 H 0.7886 0.7607 0.7744
N2_6 N 0.8323(4) 0.5266(3) 0.71218(13)
C31_6 C 0.8640(3) 0.5632(4) 0.73574(13)
H26_6 H 0.9047 0.5436 0.7451
C32_6 C 0.8347(4) 0.6290(4) 0.74535(14)
H27_6 H 0.8558 0.6535 0.7611
C33_6 C 0.7738(5) 0.6582(3) 0.73140(18)
C34_6 C 0.7422(4) 0.6216(4) 0.70784(18)
H28_6 H 0.7015 0.6411 0.6985
C35_6 C 0.7715(4) 0.5558(4) 0.69822(14)
H29_6 H 0.7503 0.5313 0.6825
C36_6 C 0.7463(7) 0.7243(5) 0.7392(2)
H30_6 H 0.7114 0.7393 0.7256
Cd2_10 Cd 1.0000 0.2500 0.69770(2)
S1_7 S 0.92301(14) 0.33978(13) 0.72771(5)
C7_7 C 0.9770(5) 0.4003(5) 0.74927(17)
C11_7 C 0.9983(8) 0.4629(8) 0.7949(2)
H9_7 H 0.9872 0.4697 0.8147
C12_7 C 0.9585(6) 0.4137(6) 0.77797(19)
H10_7 H 0.9189 0.3895 0.7863
C13_6 C 0.8410(4) 0.1468(5) 0.68081(16)
C14_6 C 0.8324(5) 0.0713(5) 0.67905(19)
H11_6 H 0.8599 0.0441 0.6658
C15_6 C 0.7816(5) 0.0370(6) 0.6975(2)
C16_6 C 0.7397(6) 0.0814(7) 0.7153(2)
H13_6 H 0.7045 0.0596 0.7271
C17_6 C 0.7470(6) 0.1555(7) 0.7164(2)
H14_6 H 0.7177 0.1831 0.7289
C18_6 C 0.7987(5) 0.1891(6) 0.69871(19)
H15_6 H 0.8045 0.2395 0.6990
S7_7 S 0.98259(13) 0.49775(14) 0.66224(5)
C38_6 C 0.9640(5) 0.0622(6) 0.73808(18)
H31_6 H 0.9505 0.0705 0.7186
C39_6 C 0.9248(6) 0.0138(7) 0.7541(2)
C49_7 C 0.9297(6) 0.5704(5) 0.64646(18)
C50_7 C 0.9373(7) 0.6391(6) 0.6594(2)
H41_7 H 0.9686 0.6466 0.6753
C51_7 C 0.8963(10) 0.6959(7) 0.6476(4)
H42_7 H 0.9002 0.7418 0.6562
C52_7 C 0.8503(10) 0.6875(8) 0.6240(3)
H43_7 H 0.8228 0.7261 0.6166
C53_7 C 0.8472(8) 0.6180(7) 0.6118(2)
H44_7 H 0.8162 0.6097 0.5960
C54_7 C 0.8874(6) 0.5627(6) 0.62218(18)
H45_7 H 0.8864 0.5179 0.6125
H12_5 H 0.2235 0.0135 0.3022
C25_5 C 0.1035(5) 0.0364(5) 0.4230(2)
C26_5 C 0.0674(6) 0.0918(6) 0.4065(2)
H21_5 H 0.0649 0.0900 0.3861
C27_5 C 0.0355(7) 0.1504(6) 0.4227(3)
H22_5 H 0.0100 0.1867 0.4128
C28_5 C 0.0419(7) 0.1539(7) 0.4536(3)
H23_5 H 0.0220 0.1931 0.4639
C29_5 C 0.0759(6) 0.1020(6) 0.4679(2)
H24_5 H 0.0775 0.1044 0.4883
C30_5 C 0.1100(5) 0.0428(6) 0.4538(2)
H25_5 H 0.1363 0.0086 0.4646
H32_5 H 0.1161 0.0090 0.2538
C40_5 C 0.0531(8) 0.0006(8) 0.2178(3)
H33_5 H 0.0764 0.0372 0.2072
Cd1_4 Cd 0.11527(4) 0.57475(4) 0.311814(13)
Cd2_11 Cd 0.0000 0.7500 0.30230(2)
Ag1_4 Ag 0.03054(4) 0.90568(4) 0.376050(13)
S1_8 S 0.07699(14) 0.66022(13) 0.27229(5)
S2_4 S 0.08858(11) 0.80976(11) 0.34115(4)
S4_4 S 0.14159(13) 0.96316(13) 0.40254(5)
N1_4 N 0.1677(4) 0.4734(3) 0.28782(13)
C1_8 C 0.1360(3) 0.4368(4) 0.26426(13)
H1_8 H 0.0953 0.4564 0.2549
C2_8 C 0.1653(4) 0.3710(4) 0.25465(14)
H2_8 H 0.1442 0.3465 0.2389
C3_8 C 0.2262(5) 0.3418(3) 0.26860(18)
C4_7 C 0.2578(4) 0.3784(4) 0.29216(18)
H3_7 H 0.2985 0.3589 0.3015
C5_8 C 0.2285(4) 0.4442(4) 0.30178(14)
H4_8 H 0.2497 0.4687 0.3175
C6_7 C 0.2537(7) 0.2757(5) 0.2608(2)
H5_7 H 0.2886 0.2607 0.2744
C7_8 C 0.0230(5) 0.5997(5) 0.25073(17)
C11_8 C 0.0017(8) 0.5371(8) 0.2051(2)
H9_8 H 0.0128 0.5303 0.1853
C12_8 C 0.0415(6) 0.5863(6) 0.22203(19)
H10_8 H 0.0811 0.6105 0.2137
C13_7 C 0.1590(4) 0.8532(5) 0.31919(16)
C14_7 C 0.1676(5) 0.9287(5) 0.32095(19)
H11_7 H 0.1401 0.9559 0.3342
C15_7 C 0.2184(5) 0.9630(6) 0.3025(2)
C16_7 C 0.2603(6) 0.9186(7) 0.2847(2)
H13_7 H 0.2955 0.9404 0.2729
C17_7 C 0.2530(6) 0.8445(7) 0.2836(2)
H14_7 H 0.2823 0.8169 0.2711
C18_7 C 0.2013(5) 0.8109(6) 0.30129(19)
H15_7 H 0.1955 0.7605 0.3010
N2_7 N 0.3323(4) 0.0266(3) 0.21218(13)
C31_7 C 0.3640(3) 0.0632(4) 0.23574(13)
H26_7 H 0.4047 0.0436 0.2451
C32_7 C 0.3347(4) 0.1290(4) 0.24535(14)
H27_7 H 0.3558 0.1535 0.2611
C33_7 C 0.2738(5) 0.1582(3) 0.23140(18)
C34_7 C 0.2422(4) 0.1216(4) 0.20784(18)
H28_7 H 0.2015 0.1411 0.1985
C35_7 C 0.2715(4) 0.0558(4) 0.19822(14)
H29_7 H 0.2503 0.0313 0.1825
C36_7 C 0.2463(7) 0.2243(5) 0.2392(2)
H30_7 H 0.2114 0.2393 0.2256
S7_8 S 0.01741(13) 0.50225(14) 0.33776(5)
C38_7 C 0.0360(5) 0.9378(6) 0.26192(18)
H31_7 H 0.0495 0.9295 0.2814
C39_7 C 0.0752(6) 0.9862(7) 0.2459(2)
C49_8 C 0.0703(6) 0.4296(5) 0.35354(18)
C50_8 C 0.0627(7) 0.3609(6) 0.3406(2)
H41_8 H 0.0314 0.3534 0.3247
C51_8 C 0.1037(10) 0.3041(7) 0.3524(4)
H42_8 H 0.0998 0.2582 0.3438
C52_8 C 0.1497(10) 0.3125(8) 0.3760(3)
H43_8 H 0.1772 0.2739 0.3834
C53_8 C 0.1528(8) 0.3820(7) 0.3882(2)
H44_8 H 0.1838 0.3903 0.4040
C54_8 C 0.1126(6) 0.4373(6) 0.37782(18)
H45_8 H 0.1136 0.4821 0.3875
Cd5_4 Cd 0.17525(4) 0.86527(4) 0.438186(13)
Ag4_4 Ag 0.15568(4) 0.71946(4) 0.373950(13)
S10_4 S 0.05976(11) 0.66142(11) 0.40885(4)
S12_4 S 0.21316(13) 0.60841(13) 0.34746(5)
C4_8 C 0.6284(4) 0.9922(4) 0.54216(18)
H3_8 H 0.6089 0.9515 0.5515
C6_8 C 0.5257(5) 0.9963(7) 0.5108(2)
H5_8 H 0.5107 0.9614 0.5244
N2_8 N 0.2766(3) 0.9177(4) 0.46218(13)
C31_8 C 0.3132(4) 0.8860(3) 0.48574(13)
H26_8 H 0.2936 0.8453 0.4951
C32_8 C 0.3790(4) 0.9153(4) 0.49535(14)
H27_8 H 0.4035 0.8942 0.5111
C33_8 C 0.4082(3) 0.9762(5) 0.48140(18)
C35_8 C 0.3058(4) 0.9785(4) 0.44822(14)
H29_8 H 0.2813 0.9997 0.4325
Cd2_12 Cd -0.0000 0.7500 0.44770(2)
S3_8 S 0.24775(14) 0.76741(13) 0.41224(5)
C13_8 C 0.1032(5) 0.5910(4) 0.43081(16)
C14_8 C 0.1787(5) 0.5824(5) 0.42905(19)
H11_8 H 0.2059 0.6099 0.4158
C15_8 C 0.2130(6) 0.5316(5) 0.4475(2)
H12_6 H 0.2635 0.5265 0.4478
C16_8 C 0.1686(7) 0.4897(6) 0.4653(2)
H13_8 H 0.1904 0.4545 0.4771
C17_8 C 0.0945(7) 0.4970(6) 0.4664(2)
H14_8 H 0.0669 0.4677 0.4789
C18_8 C 0.0609(6) 0.5487(5) 0.44871(19)
H15_8 H 0.0105 0.5545 0.4490
C19_7 C 0.3204(5) 0.8203(6) 0.39646(18)
C20_7 C 0.3891(6) 0.8127(7) 0.4094(2)
H16_7 H 0.3966 0.7814 0.4253
C21_7 C 0.4459(7) 0.8537(10) 0.3976(4)
H17_7 H 0.4918 0.8498 0.4062
C22_7 C 0.4375(8) 0.8997(10) 0.3740(3)
H18_7 H 0.4761 0.9272 0.3666
C23_7 C 0.3680(7) 0.9028(8) 0.3618(2)
H19_7 H 0.3597 0.9338 0.3460
C24_7 C 0.3127(6) 0.8626(6) 0.37218(18)
H20_7 H 0.2679 0.8636 0.3625
C25_6 C 0.2864(5) 0.6465(5) 0.3270(2)
C26_6 C 0.3418(6) 0.6826(6) 0.3435(2)
H21_6 H 0.3400 0.6851 0.3639
C27_6 C 0.4004(6) 0.7145(7) 0.3273(3)
H22_6 H 0.4367 0.7400 0.3372
C28_6 C 0.4039(7) 0.7081(7) 0.2964(3)
H23_6 H 0.4431 0.7280 0.2861
C29_6 C 0.3520(6) 0.6741(6) 0.2821(2)
H24_6 H 0.3544 0.6725 0.2617
C30_6 C 0.2928(6) 0.6400(5) 0.2962(2)
H25_6 H 0.2586 0.6137 0.2854
S5_8 S 0.08978(13) 0.82699(14) 0.47771(5)
C37_8 C 0.1503(5) 0.7730(5) 0.49927(17)
C38_8 C 0.1878(6) 0.7140(5) 0.48808(18)
H31_8 H 0.1795 0.7005 0.4686
C39_8 C 0.2362(7) 0.6748(6) 0.5041(2)
H32_6 H 0.2590 0.6339 0.4962
C40_6 C 0.2506(8) 0.6969(8) 0.5322(3)
H33_6 H 0.2872 0.6736 0.5428
C41_8 C 0.2129(8) 0.7517(8) 0.5449(2)
H34_8 H 0.2197 0.7628 0.5647
C42_8 C 0.1637(6) 0.7915(6) 0.52797(19)
H35_8 H 0.1395 0.8311 0.5363
H12_7 H 0.7235 0.0135 0.1978
C19_8 C 0.4297(6) 0.0704(5) 0.14646(18)
C20_8 C 0.4373(7) 0.1391(6) 0.1594(2)
H16_8 H 0.4686 0.1466 0.1753
C21_8 C 0.3963(10) 0.1959(7) 0.1476(4)
H17_8 H 0.4002 0.2418 0.1562
C22_8 C 0.3503(10) 0.1875(8) 0.1240(3)
H18_8 H 0.3228 0.2261 0.1166
C23_8 C 0.3472(8) 0.1180(7) 0.1118(2)
H19_8 H 0.3162 0.1097 0.0960
C24_8 C 0.3874(6) 0.0627(6) 0.12218(18)
H20_8 H 0.3864 0.0179 0.1125
C25_7 C 0.6035(5) 0.0364(5) 0.0770(2)
C26_7 C 0.5674(6) 0.0918(6) 0.0935(2)
H21_7 H 0.5649 0.0900 0.1139
C27_7 C 0.5355(7) 0.1504(6) 0.0773(3)
H22_7 H 0.5100 0.1867 0.0872
C28_7 C 0.5419(7) 0.1539(7) 0.0464(3)
H23_7 H 0.5220 0.1931 0.0361
C29_7 C 0.5759(6) 0.1020(6) 0.0321(2)
H24_7 H 0.5775 0.1044 0.0117
C30_7 C 0.6100(5) 0.0428(6) 0.0462(2)
H25_7 H 0.6363 0.0086 0.0354
H32_7 H 0.6161 0.0090 0.2462
C40_7 C 0.5531(8) 0.0006(8) 0.2822(3)
H33_7 H 0.5764 0.0372 0.2928
C34_8 C 0.1284(4) 0.9922(4) 0.95784(18)
H28_8 H 0.1089 0.9515 0.9485
C36_8 C 0.0257(5) 0.9963(7) 0.9892(2)
H30_8 H 0.0107 0.9614 0.9756
C46_7 C 0.6686(7) 0.9897(6) 0.9653(2)
H38_7 H 0.6904 0.9545 0.9771
C47_7 C 0.5945(7) 0.9970(6) 0.9664(2)
H39_7 H 0.5669 0.9677 0.9789
C46_8 C 0.8314(7) 0.0103(6) 0.4653(2)
H38_8 H 0.8096 0.0455 0.4771
C47_8 C 0.9055(7) 0.0030(6) 0.4664(2)
H39_8 H 0.9331 0.0323 0.4789
H12_8 H 0.7765 0.9865 0.6978
C25_8 C 0.8965(5) 0.9636(5) 0.5770(2)
C26_8 C 0.9326(6) 0.9082(6) 0.5935(2)
H21_8 H 0.9351 0.9100 0.6139
C27_8 C 0.9645(7) 0.8496(6) 0.5773(3)
H22_8 H 0.9900 0.8133 0.5872
C28_8 C 0.9581(7) 0.8461(7) 0.5464(3)
H23_8 H 0.9780 0.8069 0.5361
C29_8 C 0.9241(6) 0.8980(6) 0.5321(2)
H24_8 H 0.9225 0.8956 0.5117
C30_8 C 0.8900(5) 0.9572(6) 0.5462(2)
H25_8 H 0.8637 0.9914 0.5354
H32_8 H 0.8839 0.9910 0.7462
C40_8 C 0.9469(8) 0.9994(8) 0.7822(3)
H33_8 H 0.9236 0.9628 0.7928
loop_
_geom_bond_atom_site_label_1
_geom_bond_atom_site_label_2
_geom_bond_site_symmetry_1
_geom_bond_site_symmetry_2
H38 C46 1_555 1_555
C47 C46 1_555 1_555
H39 C47 1_555 1_555
H3 C4 1_555 1_555
H5 C6 1_555 1_555
Cd1 S1 1_555 1_555
Cd2 S1 1_555 1_555
Ag1 S2 1_555 1_555
S1 C7 1_555 1_555
S2 Cd2 1_555 1_555
S3 Ag1 1_555 1_555
S4 Ag1 1_555 1_555
N1 Cd1 1_555 1_555
C1 N1 1_555 1_555
H1 C1 1_555 1_555
C2 C1 1_555 1_555
C3 C2 1_555 1_555
C4_2 C3 1_555 1_555
H3_2 C4_2 1_555 1_555
C5 N1 1_555 1_555
H4 C5 1_555 1_555
C6_2 C3 1_555 1_555
H5_2 C6_2 1_555 1_555
C7 C8 1_555 1_555
C8 H6 1_555 1_555
C13 S2 1_555 1_555
C14 C13 1_555 1_555
H11 C14 1_555 1_555
C15 C14 1_555 1_555
H12 C15 1_555 1_555
C16 C15 1_555 1_555
H13 C16 1_555 1_555
C17 C16 1_555 1_555
H14 C17 1_555 1_555
C18 C13 1_555 1_555
H15 C18 1_555 1_555
C19 S3 1_555 1_555
C20 C19 1_555 1_555
H16 C20 1_555 1_555
C21 C20 1_555 1_555
H17 C21 1_555 1_555
C22 C21 1_555 1_555
H18 C22 1_555 1_555
C23 C22 1_555 1_555
H19 C23 1_555 1_555
C24 C19 1_555 1_555
H20 C24 1_555 1_555
C25 S4 1_555 1_555
C26 C25 1_555 1_555
H21 C26 1_555 1_555
C27 C26 1_555 1_555
H22 C27 1_555 1_555
C28 C27 1_555 1_555
H23 C28 1_555 1_555
C29 C28 1_555 1_555
H24 C29 1_555 1_555
C30 C25 1_555 1_555
H25 C30 1_555 1_555
Cd3 S3 1_555 1_555
Ag2 S6 1_555 1_555
S5 Cd2 1_555 1_555
S6 Cd2 1_555 1_555
S7 Cd1 1_555 1_555
S8 Ag2 1_555 1_555
C37 S5 1_555 1_555
C38 C37 1_555 1_555
H31 C38 1_555 1_555
C43 S6 1_555 1_555
C44 C43 1_555 1_555
H36 C44 1_555 1_555
C45 C44 1_555 1_555
H37 C45 1_555 1_555
C48 C43 1_555 1_555
H40 C48 1_555 1_555
C49 S7 1_555 1_555
C50 C49 1_555 1_555
H41 C50 1_555 1_555
C51 C50 1_555 1_555
H42 C51 1_555 1_555
C52 C51 1_555 1_555
H43 C52 1_555 1_555
C53 C52 1_555 1_555
H44 C53 1_555 1_555
C54 C49 1_555 1_555
H45 C54 1_555 1_555
C55 S8 1_555 1_555
C56 C55 1_555 1_555
H46 C56 1_555 1_555
C57 C56 1_555 1_555
H47 C57 1_555 1_555
C58 C57 1_555 1_555
H48 C58 1_555 1_555
C59 C58 1_555 1_555
H49 C59 1_555 1_555
C60 C55 1_555 1_555
H50 C60 1_555 1_555
Cd5 S4 1_555 1_555
Cd6 S8 1_555 1_555
Ag3 S6 1_555 1_555
Ag4 S2 1_555 1_555
S9 Ag1 1_555 1_555
S10 Ag2 1_555 1_555
S11 Cd3 1_555 1_555
S12 Cd1 1_555 1_555
N3 Cd3 1_555 1_555
C4_2 C5 1_555 1_555
C17 C18 1_555 1_555
C23 C24 1_555 1_555
C29 C30 1_555 1_555
Cd3 S5 1_555 1_555
Ag2 S7 1_555 1_555
C53 C54 1_555 1_555
C59 C60 1_555 1_555
Ag3 S9 1_555 1_555
Ag3 S11 1_555 1_555
Ag4 S10 1_555 1_555
Ag4 S12 1_555 1_555
C20_2 C19_2 1_555 1_555
H16_2 C20_2 1_555 1_555
C21_2 C20_2 1_555 1_555
H17_2 C21_2 1_555 1_555
C22_2 C21_2 1_555 1_555
H18_2 C22_2 1_555 1_555
C23_2 C22_2 1_555 1_555
H19_2 C23_2 1_555 1_555
C24_2 C19_2 1_555 1_555
H20_2 C24_2 1_555 1_555
C23_2 C24_2 1_555 1_555
C1_2 N3 1_555 1_555
H1_2 C1_2 1_555 1_555
C2_2 C1_2 1_555 1_555
C3_2 C2_2 1_555 1_555
C5_2 N3 1_555 1_555
H4_2 C5_2 1_555 1_555
C1_3 N3_2 1_555 1_555
H1_3 C1_3 1_555 1_555
C2_3 C1_3 1_555 1_555
H2 C2_3 1_555 1_555
C3_3 C2_3 1_555 1_555
C4_3 C3_3 1_555 1_555
H3_3 C4_3 1_555 1_555
C5_3 N3_2 1_555 1_555
H4_3 C5_3 1_555 1_555
C6_3 C3_3 1_555 1_555
H5_3 C6_3 1_555 1_555
N2 C31 1_555 1_555
C31 H26 1_555 1_555
C32 C31 1_555 1_555
H27 C32 1_555 1_555
C33 C32 1_555 1_555
C34 C33 1_555 1_555
H28 C34 1_555 1_555
C35 N2 1_555 1_555
H29 C35 1_555 1_555
C36 C6_3 1_555 1_555
H30 C36 1_555 1_555
Cd5 N2 1_555 1_555
C4_3 C5_3 1_555 1_555
C33 C36 1_555 1_555
C34 C35 1_555 1_555
Cd5 S1_2 1_555 1_555
Cd2_2 S1_2 1_555 1_555
S1_2 C7_2 1_555 1_555
S9 Cd2_2 1_555 1_555
S3_2 Ag3 1_555 1_555
C7_2 C8_2 1_555 1_555
C8_2 H6_2 1_555 1_555
C9 C8_2 1_555 1_555
H7_2 C9 1_555 1_555
C10 C9 1_555 1_555
H8 C10 1_555 1_555
C11 C10 1_555 1_555
H9 C11 1_555 1_555
C12 C7_2 1_555 1_555
H10 C12 1_555 1_555
C13_2 S9 1_555 1_555
C14_2 C13_2 1_555 1_555
H11_2 C14_2 1_555 1_555
C15_2 C14_2 1_555 1_555
C16_2 C15_2 1_555 1_555
H13_2 C16_2 1_555 1_555
C17_2 C16_2 1_555 1_555
H14_2 C17_2 1_555 1_555
C18_2 C13_2 1_555 1_555
H15_2 C18_2 1_555 1_555
Cd6 S3_2 1_555 1_555
S5_2 Cd2_2 1_555 1_555
S10 Cd2_2 1_555 1_555
S7_2 Cd5 1_555 1_555
C37_2 S5_2 1_555 1_555
C38_2 C37_2 1_555 1_555
H31_2 C38_2 1_555 1_555
C39 C38_2 1_555 1_555
H34 C41 1_555 1_555
C42 C37_2 1_555 1_555
H35 C42 1_555 1_555
C43_2 S10 1_555 1_555
C44_2 C43_2 1_555 1_555
H36_2 C44_2 1_555 1_555
C45_2 C44_2 1_555 1_555
H37_2 C45_2 1_555 1_555
C46_2 C45_2 1_555 1_555
H38_2 C46_2 1_555 1_555
C47_2 C46_2 1_555 1_555
H39_2 C47_2 1_555 1_555
C48_2 C43_2 1_555 1_555
H40_2 C48_2 1_555 1_555
C49_2 S7_2 1_555 1_555
C50_2 C49_2 1_555 1_555
H41_2 C50_2 1_555 1_555
C51_2 C50_2 1_555 1_555
H42_2 C51_2 1_555 1_555
C52_2 C51_2 1_555 1_555
H43_2 C52_2 1_555 1_555
C53_2 C52_2 1_555 1_555
H44_2 C53_2 1_555 1_555
C54_2 C49_2 1_555 1_555
H45_2 C54_2 1_555 1_555
C55_2 S12 1_555 1_555
C56_2 C55_2 1_555 1_555
H46_2 C56_2 1_555 1_555
C57_2 C56_2 1_555 1_555
H47_2 C57_2 1_555 1_555
C58_2 C57_2 1_555 1_555
H48_2 C58_2 1_555 1_555
C59_2 C58_2 1_555 1_555
H49_2 C59_2 1_555 1_555
C60_2 C55_2 1_555 1_555
H50_2 C60_2 1_555 1_555
C11 C12 1_555 1_555
C17_2 C18_2 1_555 1_555
Cd6 S5_2 1_555 1_555
Ag4 S7_2 1_555 1_555
C41 C42 1_555 1_555
C47_2 C48_2 1_555 1_555
C53_2 C54_2 1_555 1_555
C59_2 C60_2 1_555 1_555
C10_2 C9_2 1_555 1_555
H8_2 C10_2 1_555 1_555
C11_2 C10_2 1_555 1_555
H9_2 C11_2 1_555 1_555
H10_2 C12_2 1_555 1_555
C40 C39_2 1_555 1_555
H33 C40 1_555 1_555
C41_2 C40 1_555 1_555
H34_2 C41_2 1_555 1_555
H35_2 C42_2 1_555 1_555
C11_2 C12_2 1_555 1_555
C41_2 C42_2 1_555 1_555
C10_3 C9_3 1_555 1_555
H8_3 C10_3 1_555 1_555
C11_3 C10_3 1_555 1_555
H9_3 C11_3 1_555 1_555
H10_3 C12_3 1_555 1_555
C40_2 C39_3 1_555 1_555
H33_2 C40_2 1_555 1_555
C41_3 C40_2 1_555 1_555
H34_3 C41_3 1_555 1_555
H35_3 C42_3 1_555 1_555
C11_3 C12_3 1_555 1_555
C41_3 C42_3 1_555 1_555
N2_2 C31_2 1_555 1_555
C31_2 H26_2 1_555 1_555
C32_2 C31_2 1_555 1_555
C33_2 C32_2 1_555 1_555
C34_2 C33_2 1_555 1_555
H28_2 C34_2 1_555 1_555
C35_2 N2_2 1_555 1_555
H29_2 C35_2 1_555 1_555
H30_2 C36_2 1_555 1_555
Cd4 N2_2 1_555 1_555
C33_2 C36_2 1_555 1_555
C34_2 C35_2 1_555 1_555
Cd1_2 S1_3 1_555 1_555
Cd2_3 S1_3 1_555 1_555
Ag1_2 S2_2 1_555 1_555
S1_3 C7_3 1_555 1_555
S2_2 Cd2_3 1_555 1_555
S3_3 Ag1_2 1_555 1_555
S4_2 Ag1_2 1_555 1_555
N1_2 Cd1_2 1_555 1_555
C1_4 N1_2 1_555 1_555
H1_4 C1_4 1_555 1_555
C2_4 C1_4 1_555 1_555
H2_4 C2_4 1_555 1_555
C3_4 C2_4 1_555 1_555
C4_4 C3_4 1_555 1_555
H3_4 C4_4 1_555 1_555
C5_4 N1_2 1_555 1_555
H4_4 C5_4 1_555 1_555
C6_4 C3_4 1_555 1_555
H5_4 C6_4 1_555 1_555
C7_3 C8_3 1_555 1_555
C8_3 H6_3 1_555 1_555
C9_4 C8_3 1_555 1_555
H7_3 C9_4 1_555 1_555
C10_4 C9_4 1_555 1_555
H8_4 C10_4 1_555 1_555
C11_4 C10_4 1_555 1_555
H9_4 C11_4 1_555 1_555
C12_4 C7_3 1_555 1_555
H10_4 C12_4 1_555 1_555
C13_3 S2_2 1_555 1_555
C14_3 C13_3 1_555 1_555
H11_3 C14_3 1_555 1_555
C15_3 C14_3 1_555 1_555
C16_3 C15_3 1_555 1_555
H13_3 C16_3 1_555 1_555
C17_3 C16_3 1_555 1_555
H14_3 C17_3 1_555 1_555
C18_3 C13_3 1_555 1_555
H15_3 C18_3 1_555 1_555
N2_3 C31_3 1_555 1_555
C31_3 H26_3 1_555 1_555
C32_3 C31_3 1_555 1_555
H27_4 C32_3 1_555 1_555
C33_3 C32_3 1_555 1_555
C34_3 C33_3 1_555 1_555
H28_3 C34_3 1_555 1_555
C35_3 N2_3 1_555 1_555
H29_3 C35_3 1_555 1_555
C36_3 C6_4 1_555 1_555
H30_3 C36_3 1_555 1_555
Cd3_2 S3_3 1_555 1_555
Ag2_2 S6_2 1_555 1_555
S5_3 Cd2_3 1_555 1_555
S6_2 Cd2_3 1_555 1_555
S7_3 Cd1_2 1_555 1_555
S8_2 Ag2_2 1_555 1_555
C37_3 S5_3 1_555 1_555
C38_3 C37_3 1_555 1_555
H31_3 C38_3 1_555 1_555
C39_4 C38_3 1_555 1_555
H34_4 C41_4 1_555 1_555
C42_4 C37_3 1_555 1_555
H35_4 C42_4 1_555 1_555
C43_3 S6_2 1_555 1_555
C44_3 C43_3 1_555 1_555
H36_3 C44_3 1_555 1_555
C45_3 C44_3 1_555 1_555
H37_3 C45_3 1_555 1_555
C46_3 C45_3 1_555 1_555
H38_3 C46_3 1_555 1_555
C47_3 C46_3 1_555 1_555
H39_3 C47_3 1_555 1_555
C48_3 C43_3 1_555 1_555
H40_3 C48_3 1_555 1_555
C49_3 S7_3 1_555 1_555
C50_3 C49_3 1_555 1_555
H41_3 C50_3 1_555 1_555
C51_3 C50_3 1_555 1_555
H42_3 C51_3 1_555 1_555
C52_3 C51_3 1_555 1_555
H43_3 C52_3 1_555 1_555
C53_3 C52_3 1_555 1_555
H44_3 C53_3 1_555 1_555
C54_3 C49_3 1_555 1_555
H45_3 C54_3 1_555 1_555
C55_3 S8_2 1_555 1_555
C56_3 C55_3 1_555 1_555
H46_3 C56_3 1_555 1_555
C57_3 C56_3 1_555 1_555
H47_3 C57_3 1_555 1_555
C58_3 C57_3 1_555 1_555
H48_3 C58_3 1_555 1_555
C59_3 C58_3 1_555 1_555
H49_3 C59_3 1_555 1_555
C60_3 C55_3 1_555 1_555
H50_3 C60_3 1_555 1_555
Cd5_2 S4_2 1_555 1_555
Cd4 S8_2 1_555 1_555
Ag3_2 S6_2 1_555 1_555
Ag4_2 S2_2 1_555 1_555
S9_2 Ag1_2 1_555 1_555
S10_2 Ag2_2 1_555 1_555
S11_2 Cd3_2 1_555 1_555
S12_2 Cd1_2 1_555 1_555
C4_4 C5_4 1_555 1_555
C11_4 C12_4 1_555 1_555
C17_3 C18_3 1_555 1_555
C33_3 C36_3 1_555 1_555
C34_3 C35_3 1_555 1_555
Cd3_2 S5_3 1_555 1_555
Ag2_2 S7_3 1_555 1_555
C41_4 C42_4 1_555 1_555
C47_3 C48_3 1_555 1_555
C53_3 C54_3 1_555 1_555
C59_3 C60_3 1_555 1_555
Ag3_2 S9_2 1_555 1_555
Ag3_2 S11_2 1_555 1_555
Ag4_2 S10_2 1_555 1_555
Ag4_2 S12_2 1_555 1_555
N2_4 C31_4 1_555 1_555
C31_4 H26_4 1_555 1_555
C32_4 C31_4 1_555 1_555
C33_4 C32_4 1_555 1_555
C35_4 N2_4 1_555 1_555
H29_4 C35_4 1_555 1_555
Cd5_2 N2_4 1_555 1_555
Cd4 S1_4 1_555 1_555
Cd2_4 S1_4 1_555 1_555
S1_4 C7_4 1_555 1_555
S10_2 Cd2_4 1_555 1_555
S3_4 Ag4_2 1_555 1_555
C7_4 C8_4 1_555 1_555
C8_4 H6_4 1_555 1_555
C13_4 S10_2 1_555 1_555
C14_4 C13_4 1_555 1_555
H11_4 C14_4 1_555 1_555
C15_4 C14_4 1_555 1_555
H12_2 C15_4 1_555 1_555
C16_4 C15_4 1_555 1_555
H13_4 C16_4 1_555 1_555
C17_4 C16_4 1_555 1_555
H14_4 C17_4 1_555 1_555
C18_4 C13_4 1_555 1_555
H15_4 C18_4 1_555 1_555
C19_3 S3_4 1_555 1_555
C20_3 C19_3 1_555 1_555
H16_3 C20_3 1_555 1_555
C21_3 C20_3 1_555 1_555
H17_3 C21_3 1_555 1_555
C22_3 C21_3 1_555 1_555
H18_3 C22_3 1_555 1_555
C23_3 C22_3 1_555 1_555
H19_3 C23_3 1_555 1_555
C24_3 C19_3 1_555 1_555
H20_3 C24_3 1_555 1_555
C25_2 S12_2 1_555 1_555
C26_2 C25_2 1_555 1_555
H21_2 C26_2 1_555 1_555
C27_2 C26_2 1_555 1_555
H22_2 C27_2 1_555 1_555
C28_2 C27_2 1_555 1_555
H23_2 C28_2 1_555 1_555
C29_2 C28_2 1_555 1_555
H24_2 C29_2 1_555 1_555
C30_2 C25_2 1_555 1_555
H25_2 C30_2 1_555 1_555
Cd5_2 S3_4 1_555 1_555
S5_4 Cd2_4 1_555 1_555
S9_2 Cd2_4 1_555 1_555
S7_4 Cd4 1_555 1_555
C37_4 S5_4 1_555 1_555
C38_4 C37_4 1_555 1_555
H31_4 C38_4 1_555 1_555
C43_4 S9_2 1_555 1_555
C44_4 C43_4 1_555 1_555
H36_4 C44_4 1_555 1_555
C45_4 C44_4 1_555 1_555
H37_4 C45_4 1_555 1_555
C48_4 C43_4 1_555 1_555
H40_4 C48_4 1_555 1_555
C49_4 S7_4 1_555 1_555
C50_4 C49_4 1_555 1_555
H41_4 C50_4 1_555 1_555
C51_4 C50_4 1_555 1_555
H42_4 C51_4 1_555 1_555
C52_4 C51_4 1_555 1_555
H43_4 C52_4 1_555 1_555
C53_4 C52_4 1_555 1_555
H44_4 C53_4 1_555 1_555
C54_4 C49_4 1_555 1_555
H45_4 C54_4 1_555 1_555
C55_4 S11_2 1_555 1_555
C56_4 C55_4 1_555 1_555
H46_4 C56_4 1_555 1_555
C57_4 C56_4 1_555 1_555
H47_4 C57_4 1_555 1_555
C58_4 C57_4 1_555 1_555
H48_4 C58_4 1_555 1_555
C59_4 C58_4 1_555 1_555
H49_4 C59_4 1_555 1_555
C60_4 C55_4 1_555 1_555
H50_4 C60_4 1_555 1_555
C17_4 C18_4 1_555 1_555
C23_3 C24_3 1_555 1_555
C29_2 C30_2 1_555 1_555
Cd5_2 S5_4 1_555 1_555
Ag3_2 S7_4 1_555 1_555
C53_4 C54_4 1_555 1_555
C59_4 C60_4 1_555 1_555
C20_4 C19_4 1_555 1_555
H16_4 C20_4 1_555 1_555
C21_4 C20_4 1_555 1_555
H17_4 C21_4 1_555 1_555
C22_4 C21_4 1_555 1_555
H18_4 C22_4 1_555 1_555
C23_4 C22_4 1_555 1_555
H19_4 C23_4 1_555 1_555
C24_4 C19_4 1_555 1_555
H20_4 C24_4 1_555 1_555
C23_4 C24_4 1_555 1_555
Cd1_3 S1_5 1_555 1_555
Cd2_5 S1_5 1_555 1_555
S1_5 C7_5 1_555 1_555
N1_3 Cd1_3 1_555 1_555
C1_5 N1_3 1_555 1_555
H1_5 C1_5 1_555 1_555
C2_5 C1_5 1_555 1_555
H2_5 C2_5 1_555 1_555
C3_5 C2_5 1_555 1_555
C4_5 C3_5 1_555 1_555
H3_5 C4_5 1_555 1_555
C5_5 N1_3 1_555 1_555
H4_5 C5_5 1_555 1_555
C6_5 C3_5 1_555 1_555
H5_5 C6_5 1_555 1_555
C7_5 C8_5 1_555 1_555
C8_5 H6_5 1_555 1_555
C9_5 C8_5 1_555 1_555
H7_5 C9_5 1_555 1_555
C10_5 C9_5 1_555 1_555
H8_5 C10_5 1_555 1_555
C11_5 C10_5 1_555 1_555
H9_5 C11_5 1_555 1_555
C12_5 C7_5 1_555 1_555
H10_5 C12_5 1_555 1_555
N2_5 C31_5 1_555 1_555
C31_5 H26_5 1_555 1_555
C32_5 C31_5 1_555 1_555
H27_5 C32_5 1_555 1_555
C33_5 C32_5 1_555 1_555
C34_4 C33_5 1_555 1_555
H28_4 C34_4 1_555 1_555
C35_5 N2_5 1_555 1_555
H29_5 C35_5 1_555 1_555
C36_4 C6_5 1_555 1_555
H30_4 C36_4 1_555 1_555
Ag2_3 S6_3 1_555 1_555
S6_3 Cd2_5 1_555 1_555
S7_5 Cd1_3 1_555 1_555
S8_3 Ag2_3 1_555 1_555
C43_5 S6_3 1_555 1_555
C44_5 C43_5 1_555 1_555
H36_5 C44_5 1_555 1_555
C45_5 C44_5 1_555 1_555
H37_5 C45_5 1_555 1_555
C48_5 C43_5 1_555 1_555
H40_5 C48_5 1_555 1_555
C49_5 S7_5 1_555 1_555
C50_5 C49_5 1_555 1_555
H41_5 C50_5 1_555 1_555
C51_5 C50_5 1_555 1_555
H42_5 C51_5 1_555 1_555
C52_5 C51_5 1_555 1_555
H43_5 C52_5 1_555 1_555
C53_5 C52_5 1_555 1_555
H44_5 C53_5 1_555 1_555
C54_5 C49_5 1_555 1_555
H45_5 C54_5 1_555 1_555
C55_5 S8_3 1_555 1_555
C56_5 C55_5 1_555 1_555
H46_5 C56_5 1_555 1_555
C57_5 C56_5 1_555 1_555
H47_5 C57_5 1_555 1_555
C58_5 C57_5 1_555 1_555
H48_5 C58_5 1_555 1_555
C59_5 C58_5 1_555 1_555
H49_5 C59_5 1_555 1_555
C60_5 C55_5 1_555 1_555
H50_5 C60_5 1_555 1_555
Cd4_2 N2_5 1_555 1_555
Cd6_2 S8_3 1_555 1_555
S10_3 Ag2_3 1_555 1_555
S12_3 Cd1_3 1_555 1_555
C4_5 C5_5 1_555 1_555
C11_5 C12_5 1_555 1_555
C33_5 C36_4 1_555 1_555
C34_4 C35_5 1_555 1_555
Ag2_3 S7_5 1_555 1_555
C53_5 C54_5 1_555 1_555
C59_5 C60_5 1_555 1_555
Ag4_3 S10_3 1_555 1_555
Ag4_3 S12_3 1_555 1_555
C8_6 H6_6 1_555 1_555
C9_6 C8_6 1_555 1_555
H7_6 C9_6 1_555 1_555
C10_6 C9_6 1_555 1_555
H8_6 C10_6 1_555 1_555
Cd3_3 S3_5 1_555 1_555
Ag2_4 S6_4 1_555 1_555
S5_5 Cd2_6 1_555 1_555
S6_4 Cd2_6 1_555 1_555
S8_4 Ag2_4 1_555 1_555
C37_5 S5_5 1_555 1_555
H34_5 C41_5 1_555 1_555
C42_5 C37_5 1_555 1_555
H35_5 C42_5 1_555 1_555
C43_6 S6_4 1_555 1_555
C44_6 C43_6 1_555 1_555
H36_6 C44_6 1_555 1_555
C45_6 C44_6 1_555 1_555
H37_6 C45_6 1_555 1_555
C46_4 C45_6 1_555 1_555
H38_4 C46_4 1_555 1_555
C47_4 C46_4 1_555 1_555
H39_4 C47_4 1_555 1_555
C48_6 C43_6 1_555 1_555
H40_6 C48_6 1_555 1_555
C55_6 S8_4 1_555 1_555
C56_6 C55_6 1_555 1_555
H46_6 C56_6 1_555 1_555
C57_6 C56_6 1_555 1_555
H47_6 C57_6 1_555 1_555
C58_6 C57_6 1_555 1_555
H48_6 C58_6 1_555 1_555
C59_6 C58_6 1_555 1_555
H49_6 C59_6 1_555 1_555
C60_6 C55_6 1_555 1_555
H50_6 C60_6 1_555 1_555
Cd4_2 S8_4 1_555 1_555
Ag3_3 S6_4 1_555 1_555
S11_3 Cd3_3 1_555 1_555
Cd3_3 S5_5 1_555 1_555
C41_5 C42_5 1_555 1_555
C47_4 C48_6 1_555 1_555
C59_6 C60_6 1_555 1_555
Ag3_3 S9_3 1_555 1_555
Ag3_3 S11_3 1_555 1_555
Cd4_2 S1_6 1_555 1_555
Cd2_7 S1_6 1_555 1_555
S1_6 C7_6 1_555 1_555
C7_6 C8_7 1_555 1_555
C8_7 H6_7 1_555 1_555
C9_7 C8_7 1_555 1_555
H7_7 C9_7 1_555 1_555
C10_7 C9_7 1_555 1_555
H8_7 C10_7 1_555 1_555
C11_6 C10_7 1_555 1_555
H9_6 C11_6 1_555 1_555
C12_6 C7_6 1_555 1_555
H10_6 C12_6 1_555 1_555
S9_3 Cd2_7 1_555 1_555
S7_6 Cd4_2 1_555 1_555
C43_7 S9_3 1_555 1_555
C44_7 C43_7 1_555 1_555
H36_7 C44_7 1_555 1_555
C45_7 C44_7 1_555 1_555
H37_7 C45_7 1_555 1_555
C48_7 C43_7 1_555 1_555
H40_7 C48_7 1_555 1_555
C49_6 S7_6 1_555 1_555
C50_6 C49_6 1_555 1_555
H41_6 C50_6 1_555 1_555
C51_6 C50_6 1_555 1_555
H42_6 C51_6 1_555 1_555
C52_6 C51_6 1_555 1_555
H43_6 C52_6 1_555 1_555
C53_6 C52_6 1_555 1_555
H44_6 C53_6 1_555 1_555
C54_6 C49_6 1_555 1_555
H45_6 C54_6 1_555 1_555
C55_7 S11_3 1_555 1_555
C56_7 C55_7 1_555 1_555
H46_7 C56_7 1_555 1_555
C57_7 C56_7 1_555 1_555
H47_7 C57_7 1_555 1_555
C58_7 C57_7 1_555 1_555
H48_7 C58_7 1_555 1_555
C59_7 C58_7 1_555 1_555
H49_7 C59_7 1_555 1_555
C60_7 C55_7 1_555 1_555
H50_7 C60_7 1_555 1_555
C11_6 C12_6 1_555 1_555
Ag3_3 S7_6 1_555 1_555
C53_6 C54_6 1_555 1_555
C59_7 C60_7 1_555 1_555
C8_8 H6_8 1_555 1_555
C9_8 C8_8 1_555 1_555
H7_8 C9_8 1_555 1_555
C10_8 C9_8 1_555 1_555
H8_8 C10_8 1_555 1_555
Cd6_2 S3_6 1_555 1_555
S5_6 Cd2_8 1_555 1_555
S10_3 Cd2_8 1_555 1_555
C37_6 S5_6 1_555 1_555
H34_6 C41_6 1_555 1_555
C42_6 C37_6 1_555 1_555
H35_6 C42_6 1_555 1_555
C43_8 S10_3 1_555 1_555
C44_8 C43_8 1_555 1_555
H36_8 C44_8 1_555 1_555
C45_8 C44_8 1_555 1_555
H37_8 C45_8 1_555 1_555
C46_5 C45_8 1_555 1_555
H38_5 C46_5 1_555 1_555
C47_5 C46_5 1_555 1_555
H39_5 C47_5 1_555 1_555
C48_8 C43_8 1_555 1_555
H40_8 C48_8 1_555 1_555
C55_8 S12_3 1_555 1_555
C56_8 C55_8 1_555 1_555
H46_8 C56_8 1_555 1_555
C57_8 C56_8 1_555 1_555
H47_8 C57_8 1_555 1_555
C58_8 C57_8 1_555 1_555
H48_8 C58_8 1_555 1_555
C59_8 C58_8 1_555 1_555
H49_8 C59_8 1_555 1_555
C60_8 C55_8 1_555 1_555
H50_8 C60_8 1_555 1_555
Cd6_2 S5_6 1_555 1_555
C41_6 C42_6 1_555 1_555
C47_5 C48_8 1_555 1_555
C59_8 C60_8 1_555 1_555
H38_6 C46_6 1_555 1_555
C47_6 C46_6 1_555 1_555
H39_6 C47_6 1_555 1_555
Ag1_3 S2_3 1_555 1_555
S2_3 Cd2_9 1_555 1_555
S3_7 Ag1_3 1_555 1_555
S4_3 Ag1_3 1_555 1_555
C13_5 S2_3 1_555 1_555
C14_5 C13_5 1_555 1_555
H11_5 C14_5 1_555 1_555
C15_5 C14_5 1_555 1_555
H12_3 C15_5 1_555 1_555
C16_5 C15_5 1_555 1_555
H13_5 C16_5 1_555 1_555
C17_5 C16_5 1_555 1_555
H14_5 C17_5 1_555 1_555
C18_5 C13_5 1_555 1_555
H15_5 C18_5 1_555 1_555
C19_5 S3_7 1_555 1_555
C20_5 C19_5 1_555 1_555
H16_5 C20_5 1_555 1_555
C21_5 C20_5 1_555 1_555
H17_5 C21_5 1_555 1_555
C22_5 C21_5 1_555 1_555
H18_5 C22_5 1_555 1_555
C23_5 C22_5 1_555 1_555
H19_5 C23_5 1_555 1_555
C24_5 C19_5 1_555 1_555
H20_5 C24_5 1_555 1_555
C25_3 S4_3 1_555 1_555
C26_3 C25_3 1_555 1_555
H21_3 C26_3 1_555 1_555
C27_3 C26_3 1_555 1_555
H22_3 C27_3 1_555 1_555
C28_3 C27_3 1_555 1_555
H23_3 C28_3 1_555 1_555
C29_3 C28_3 1_555 1_555
H24_3 C29_3 1_555 1_555
C30_3 C25_3 1_555 1_555
H25_3 C30_3 1_555 1_555
Cd3_4 S3_7 1_555 1_555
S5_7 Cd2_9 1_555 1_555
C37_7 S5_7 1_555 1_555
C38_5 C37_7 1_555 1_555
H31_5 C38_5 1_555 1_555
C39_5 C38_5 1_555 1_555
H32_3 C39_5 1_555 1_555
C40_3 C39_5 1_555 1_555
H33_3 C40_3 1_555 1_555
C41_7 C40_3 1_555 1_555
H34_7 C41_7 1_555 1_555
C42_7 C37_7 1_555 1_555
H35_7 C42_7 1_555 1_555
Cd5_3 S4_3 1_555 1_555
S9_4 Ag1_3 1_555 1_555
S11_4 Cd3_4 1_555 1_555
N3_3 Cd3_4 1_555 1_555
C17_5 C18_5 1_555 1_555
C23_5 C24_5 1_555 1_555
C29_3 C30_3 1_555 1_555
Cd3_4 S5_7 1_555 1_555
C41_7 C42_7 1_555 1_555
Ag3_4 S9_4 1_555 1_555
Ag3_4 S11_4 1_555 1_555
C20_6 C19_6 1_555 1_555
H16_6 C20_6 1_555 1_555
C21_6 C20_6 1_555 1_555
H17_6 C21_6 1_555 1_555
C22_6 C21_6 1_555 1_555
H18_6 C22_6 1_555 1_555
C23_6 C22_6 1_555 1_555
H19_6 C23_6 1_555 1_555
C24_6 C19_6 1_555 1_555
H20_6 C24_6 1_555 1_555
C26_4 C25_4 1_555 1_555
H21_4 C26_4 1_555 1_555
C27_4 C26_4 1_555 1_555
H22_4 C27_4 1_555 1_555
C28_4 C27_4 1_555 1_555
H23_4 C28_4 1_555 1_555
C29_4 C28_4 1_555 1_555
H24_4 C29_4 1_555 1_555
C30_4 C25_4 1_555 1_555
H25_4 C30_4 1_555 1_555
H33_4 C40_4 1_555 1_555
C23_6 C24_6 1_555 1_555
C29_4 C30_4 1_555 1_555
C1_6 N3_3 1_555 1_555
H1_6 C1_6 1_555 1_555
C2_6 C1_6 1_555 1_555
H2_6 C2_6 1_555 1_555
C3_6 C2_6 1_555 1_555
C5_6 N3_3 1_555 1_555
H4_6 C5_6 1_555 1_555
H28_5 C34_5 1_555 1_555
H30_5 C36_5 1_555 1_555
C1_7 N3_4 1_555 1_555
H1_7 C1_7 1_555 1_555
C2_7 C1_7 1_555 1_555
H2_7 C2_7 1_555 1_555
C3_7 C2_7 1_555 1_555
C4_6 C3_7 1_555 1_555
H3_6 C4_6 1_555 1_555
C5_7 N3_4 1_555 1_555
H4_7 C5_7 1_555 1_555
C6_6 C3_7 1_555 1_555
H5_6 C6_6 1_555 1_555
N2_6 C31_6 1_555 1_555
C31_6 H26_6 1_555 1_555
C32_6 C31_6 1_555 1_555
H27_6 C32_6 1_555 1_555
C33_6 C32_6 1_555 1_555
C34_6 C33_6 1_555 1_555
H28_6 C34_6 1_555 1_555
C35_6 N2_6 1_555 1_555
H29_6 C35_6 1_555 1_555
C36_6 C6_6 1_555 1_555
H30_6 C36_6 1_555 1_555
Cd5_3 N2_6 1_555 1_555
C4_6 C5_7 1_555 1_555
C33_6 C36_6 1_555 1_555
C34_6 C35_6 1_555 1_555
Cd5_3 S1_7 1_555 1_555
Cd2_10 S1_7 1_555 1_555
S1_7 C7_7 1_555 1_555
S9_4 Cd2_10 1_555 1_555
H9_7 C11_7 1_555 1_555
C12_7 C7_7 1_555 1_555
H10_7 C12_7 1_555 1_555
C13_6 S9_4 1_555 1_555
C14_6 C13_6 1_555 1_555
H11_6 C14_6 1_555 1_555
C15_6 C14_6 1_555 1_555
C16_6 C15_6 1_555 1_555
H13_6 C16_6 1_555 1_555
C17_6 C16_6 1_555 1_555
H14_6 C17_6 1_555 1_555
C18_6 C13_6 1_555 1_555
H15_6 C18_6 1_555 1_555
S7_7 Cd5_3 1_555 1_555
H31_6 C38_6 1_555 1_555
C39_6 C38_6 1_555 1_555
C49_7 S7_7 1_555 1_555
C50_7 C49_7 1_555 1_555
H41_7 C50_7 1_555 1_555
C51_7 C50_7 1_555 1_555
H42_7 C51_7 1_555 1_555
C52_7 C51_7 1_555 1_555
H43_7 C52_7 1_555 1_555
C53_7 C52_7 1_555 1_555
H44_7 C53_7 1_555 1_555
C54_7 C49_7 1_555 1_555
H45_7 C54_7 1_555 1_555
C11_7 C12_7 1_555 1_555
C17_6 C18_6 1_555 1_555
C53_7 C54_7 1_555 1_555
C26_5 C25_5 1_555 1_555
H21_5 C26_5 1_555 1_555
C27_5 C26_5 1_555 1_555
H22_5 C27_5 1_555 1_555
C28_5 C27_5 1_555 1_555
H23_5 C28_5 1_555 1_555
C29_5 C28_5 1_555 1_555
H24_5 C29_5 1_555 1_555
C30_5 C25_5 1_555 1_555
H25_5 C30_5 1_555 1_555
H33_5 C40_5 1_555 1_555
C29_5 C30_5 1_555 1_555
Cd1_4 S1_8 1_555 1_555
Cd2_11 S1_8 1_555 1_555
Ag1_4 S2_4 1_555 1_555
S1_8 C7_8 1_555 1_555
S2_4 Cd2_11 1_555 1_555
S4_4 Ag1_4 1_555 1_555
N1_4 Cd1_4 1_555 1_555
C1_8 N1_4 1_555 1_555
H1_8 C1_8 1_555 1_555
C2_8 C1_8 1_555 1_555
H2_8 C2_8 1_555 1_555
C3_8 C2_8 1_555 1_555
C4_7 C3_8 1_555 1_555
H3_7 C4_7 1_555 1_555
C5_8 N1_4 1_555 1_555
H4_8 C5_8 1_555 1_555
C6_7 C3_8 1_555 1_555
H5_7 C6_7 1_555 1_555
H9_8 C11_8 1_555 1_555
C12_8 C7_8 1_555 1_555
H10_8 C12_8 1_555 1_555
C13_7 S2_4 1_555 1_555
C14_7 C13_7 1_555 1_555
H11_7 C14_7 1_555 1_555
C15_7 C14_7 1_555 1_555
C16_7 C15_7 1_555 1_555
H13_7 C16_7 1_555 1_555
C17_7 C16_7 1_555 1_555
H14_7 C17_7 1_555 1_555
C18_7 C13_7 1_555 1_555
H15_7 C18_7 1_555 1_555
N2_7 C31_7 1_555 1_555
C31_7 H26_7 1_555 1_555
C32_7 C31_7 1_555 1_555
H27_7 C32_7 1_555 1_555
C33_7 C32_7 1_555 1_555
C34_7 C33_7 1_555 1_555
H28_7 C34_7 1_555 1_555
C35_7 N2_7 1_555 1_555
H29_7 C35_7 1_555 1_555
C36_7 C6_7 1_555 1_555
H30_7 C36_7 1_555 1_555
S7_8 Cd1_4 1_555 1_555
H31_7 C38_7 1_555 1_555
C39_7 C38_7 1_555 1_555
C49_8 S7_8 1_555 1_555
C50_8 C49_8 1_555 1_555
H41_8 C50_8 1_555 1_555
C51_8 C50_8 1_555 1_555
H42_8 C51_8 1_555 1_555
C52_8 C51_8 1_555 1_555
H43_8 C52_8 1_555 1_555
C53_8 C52_8 1_555 1_555
H44_8 C53_8 1_555 1_555
C54_8 C49_8 1_555 1_555
H45_8 C54_8 1_555 1_555
Cd5_4 S4_4 1_555 1_555
Ag4_4 S2_4 1_555 1_555
S12_4 Cd1_4 1_555 1_555
C4_7 C5_8 1_555 1_555
C11_8 C12_8 1_555 1_555
C17_7 C18_7 1_555 1_555
C33_7 C36_7 1_555 1_555
C34_7 C35_7 1_555 1_555
C53_8 C54_8 1_555 1_555
Ag4_4 S10_4 1_555 1_555
Ag4_4 S12_4 1_555 1_555
H3_8 C4_8 1_555 1_555
H5_8 C6_8 1_555 1_555
N2_8 C31_8 1_555 1_555
C31_8 H26_8 1_555 1_555
C32_8 C31_8 1_555 1_555
H27_8 C32_8 1_555 1_555
C33_8 C32_8 1_555 1_555
C35_8 N2_8 1_555 1_555
H29_8 C35_8 1_555 1_555
Cd5_4 N2_8 1_555 1_555
S10_4 Cd2_12 1_555 1_555
S3_8 Ag4_4 1_555 1_555
C13_8 S10_4 1_555 1_555
C14_8 C13_8 1_555 1_555
H11_8 C14_8 1_555 1_555
C15_8 C14_8 1_555 1_555
H12_6 C15_8 1_555 1_555
C16_8 C15_8 1_555 1_555
H13_8 C16_8 1_555 1_555
C17_8 C16_8 1_555 1_555
H14_8 C17_8 1_555 1_555
C18_8 C13_8 1_555 1_555
H15_8 C18_8 1_555 1_555
C19_7 S3_8 1_555 1_555
C20_7 C19_7 1_555 1_555
H16_7 C20_7 1_555 1_555
C21_7 C20_7 1_555 1_555
H17_7 C21_7 1_555 1_555
C22_7 C21_7 1_555 1_555
H18_7 C22_7 1_555 1_555
C23_7 C22_7 1_555 1_555
H19_7 C23_7 1_555 1_555
C24_7 C19_7 1_555 1_555
H20_7 C24_7 1_555 1_555
C25_6 S12_4 1_555 1_555
C26_6 C25_6 1_555 1_555
H21_6 C26_6 1_555 1_555
C27_6 C26_6 1_555 1_555
H22_6 C27_6 1_555 1_555
C28_6 C27_6 1_555 1_555
H23_6 C28_6 1_555 1_555
C29_6 C28_6 1_555 1_555
H24_6 C29_6 1_555 1_555
C30_6 C25_6 1_555 1_555
H25_6 C30_6 1_555 1_555
Cd5_4 S3_8 1_555 1_555
S5_8 Cd2_12 1_555 1_555
C37_8 S5_8 1_555 1_555
C38_8 C37_8 1_555 1_555
H31_8 C38_8 1_555 1_555
C39_8 C38_8 1_555 1_555
H32_6 C39_8 1_555 1_555
C40_6 C39_8 1_555 1_555
H33_6 C40_6 1_555 1_555
C41_8 C40_6 1_555 1_555
H34_8 C41_8 1_555 1_555
C42_8 C37_8 1_555 1_555
H35_8 C42_8 1_555 1_555
C17_8 C18_8 1_555 1_555
C23_7 C24_7 1_555 1_555
C29_6 C30_6 1_555 1_555
Cd5_4 S5_8 1_555 1_555
C41_8 C42_8 1_555 1_555
C20_8 C19_8 1_555 1_555
H16_8 C20_8 1_555 1_555
C21_8 C20_8 1_555 1_555
H17_8 C21_8 1_555 1_555
C22_8 C21_8 1_555 1_555
H18_8 C22_8 1_555 1_555
C23_8 C22_8 1_555 1_555
H19_8 C23_8 1_555 1_555
C24_8 C19_8 1_555 1_555
H20_8 C24_8 1_555 1_555
C26_7 C25_7 1_555 1_555
H21_7 C26_7 1_555 1_555
C27_7 C26_7 1_555 1_555
H22_7 C27_7 1_555 1_555
C28_7 C27_7 1_555 1_555
H23_7 C28_7 1_555 1_555
C29_7 C28_7 1_555 1_555
H24_7 C29_7 1_555 1_555
C30_7 C25_7 1_555 1_555
H25_7 C30_7 1_555 1_555
H33_7 C40_7 1_555 1_555
C23_8 C24_8 1_555 1_555
C29_7 C30_7 1_555 1_555
H28_8 C34_8 1_555 1_555
H30_8 C36_8 1_555 1_555
H38_7 C46_7 1_555 1_555
C47_7 C46_7 1_555 1_555
H39_7 C47_7 1_555 1_555
H38_8 C46_8 1_555 1_555
C47_8 C46_8 1_555 1_555
H39_8 C47_8 1_555 1_555
C26_8 C25_8 1_555 1_555
H21_8 C26_8 1_555 1_555
C27_8 C26_8 1_555 1_555
H22_8 C27_8 1_555 1_555
C28_8 C27_8 1_555 1_555
H23_8 C28_8 1_555 1_555
C29_8 C28_8 1_555 1_555
H24_8 C29_8 1_555 1_555
C30_8 C25_8 1_555 1_555
H25_8 C30_8 1_555 1_555
H33_8 C40_8 1_555 1_555
C29_8 C30_8 1_555 1_555

#END
