
###############################################################################
#
# This file contains modified crystal structure data generated from the
# MOF subset of the Cambridge Structural Database (CSD) v543 
# hosted by the Cambridge Crystallographic Data Centre (CCDC).
#
# This work is licensed under the Creative Commons
# Attribution-NonCommercial-ShareAlike 4.0 International License.
# To view a copy of this license, visit
# http://creativecommons.org/licenses/by-nc-sa/4.0/
# or send a letter to
# Creative Commons, PO Box 1866, Mountain View, CA 94042, USA.
#
# CIF created using the CSD Python API on 29 September 2022
# The structure has been converted into the P1 space group
# The structure has a 3D framework
# The original CSD entry LIXYUP is in the monoclinic crystal system
# The framework has been calculated to contain at least 10.0% void space
# The void calculation uses a probe of radius 1.32A, grid spacing 0.4
#
###############################################################################

data_LIXYUP
_chemical_formula_moiety         '(C156 H123 Co10 N12 O45)n'
_symmetry_cell_setting           triclinic
_symmetry_space_group_name_H-M   'P 1'
_symmetry_Int_Tables_number      1
_space_group_name_Hall           'P 1'
loop_
_symmetry_equiv_pos_site_id
_symmetry_equiv_pos_as_xyz
1 x,y,z
_cell_length_a                   14.7342(5)
_cell_length_b                   12.3434(4)
_cell_length_c                   25.1181(9)
_cell_angle_alpha                90
_cell_angle_beta                 103.2750(10)
_cell_angle_gamma                90
_cell_volume                     4446.16
loop_
_atom_site_label
_atom_site_type_symbol
_atom_site_fract_x
_atom_site_fract_y
_atom_site_fract_z
H28 H 0.0394 0.5155 0.3189
H31 H 0.0417 0.5907 0.4108
Co10 Co 0.0000 0.0000 0.5000
O25 O 0.12532(12) 0.17162(16) 0.39364(9)
O32 O 0.00882(13) 0.17160(13) 0.47976(7)
H64 H 0.055(2) 0.204(3) 0.4924(13)
Co10_2 Co 0.0000 1.0000 0.5000
O35 O 0.03332(10) 0.97103(12) 0.42698(6)
H1 H 0.032(2) 0.800(3) 0.5114(12)
Co13 Co 0.00607(2) 0.87472(2) 0.60678(2)
O28 O 0.14153(10) 0.99887(13) 0.53356(6)
Co3 Co 0.99393(2) 0.12528(2) 0.39322(2)
O5 O 0.85847(10) 0.00113(13) 0.46644(6)
O6 O 0.85781(10) 0.09501(13) 0.39037(6)
O7 O 0.50718(12) 0.34018(15) 0.16750(8)
O8 O 0.35242(11) 0.34287(14) 0.14262(7)
O11 O 0.97607(16) 0.05908(18) 0.31479(8)
H5 H 0.930(3) 0.075(3) 0.2957(15)
O12 O 0.95771(13) 0.28235(14) 0.36337(8)
N2 N 0.42943(11) 0.01310(14) 0.34370(7)
N3 N 0.9730(2) 0.4619(2) 0.37410(13)
C22 C 0.52317(13) 0.01254(16) 0.36905(8)
C25 C 0.71405(14) 0.03639(17) 0.40409(8)
C26 C 0.66740(14) 0.09272(17) 0.35794(9)
H22 H 0.7021(15) 0.1382(17) 0.3380(9)
C27 C 0.57127(14) 0.08255(16) 0.34065(8)
C28 C 0.41552(14) 0.08272(16) 0.29927(8)
C29 C 0.50169(14) 0.12946(16) 0.29625(8)
C30 C 0.50549(15) 0.20426(17) 0.25556(8)
H23 H 0.5621(17) 0.237(2) 0.2524(10)
C31 C 0.42397(15) 0.23223(17) 0.21777(9)
C32 C 0.33897(15) 0.18485(18) 0.22165(9)
H24 H 0.2817(17) 0.2055(19) 0.1959(10)
C33 C 0.33347(15) 0.11041(18) 0.26175(9)
H25 H 0.2739(17) 0.0798(19) 0.2646(10)
C34 C 0.81768(14) 0.04492(17) 0.42168(8)
C35 C 0.42850(15) 0.31086(17) 0.17281(9)
C36 C 0.9648(3) 0.3633(3) 0.39065(15)
H26 H 0.963(3) 0.361(4) 0.431(2)
C37 C 0.9828(5) 0.4768(5) 0.3186(2)
H27 H 0.9847 0.4074 0.3017
H29 H 0.9306 0.5174 0.2983
C38 C 0.9827(6) 0.5565(4) 0.4096(3)
H30 H 0.9333 0.6068 0.3955
H32 H 0.9796 0.5346 0.4458
Co7 Co 0.33878(2) 0.42365(2) 0.07166(2)
Co10_3 Co 1.0000 0.0000 0.5000
Co1 Co 0.83878(2) 0.07635(2) 0.57166(2)
O1 O 0.23882(10) 0.05389(12) 0.42669(7)
O3 O 0.75281(11) 0.17154(14) 0.52320(7)
O4 O 0.85635(11) 0.27465(15) 0.49454(8)
O10 O 0.96668(10) 0.02897(12) 0.57302(6)
H3 H 0.996(2) 0.068(2) 0.5918(11)
H4 H 0.976(2) 0.996(3) 0.3199(14)
N1 N 0.46803(12) 0.41710(14) 0.34060(7)
C1 C 0.77495(15) 0.24428(18) 0.49320(9)
C2 C 0.69506(15) 0.29454(17) 0.45260(9)
C3 C 0.71228(16) 0.37400(19) 0.41620(10)
H6 H 0.774(2) 0.393(2) 0.4193(11)
C4 C 0.64117(16) 0.42065(19) 0.37733(10)
H7 H 0.6516(17) 0.475(2) 0.3525(10)
C5 C 0.55068(15) 0.38484(16) 0.37517(9)
C6 C 0.53168(14) 0.30324(16) 0.41061(8)
C7 C 0.60453(15) 0.25891(17) 0.44963(9)
H8 H 0.5892(15) 0.2067(18) 0.4741(9)
C8 C 0.43195(14) 0.28412(16) 0.39532(8)
C9 C 0.39587(15) 0.35799(16) 0.35254(9)
C10 C 0.30106(16) 0.36541(19) 0.32910(10)
H9 H 0.2766(17) 0.418(2) 0.3020(10)
C11 C 0.24247(16) 0.29615(19) 0.34831(10)
H10 H 0.174(2) 0.297(2) 0.3333(11)
C12 C 0.27664(15) 0.21843(17) 0.38876(9)
C13 C 0.37149(14) 0.21223(17) 0.41222(9)
H11 H 0.3934(15) 0.1591(19) 0.4406(9)
C14 C 0.45805(17) 0.49865(18) 0.29819(9)
H12 H 0.5164(18) 0.504(2) 0.2863(10)
H13 H 0.4132(18) 0.472(2) 0.2679(10)
C15 C 0.43199(14) 0.61030(17) 0.31505(9)
C16 C 0.42937(19) 0.69537(19) 0.27862(10)
H14 H 0.4441(19) 0.683(2) 0.2455(12)
C17 C 0.40772(19) 0.79871(19) 0.29239(10)
H15 H 0.4098(19) 0.853(2) 0.2694(11)
C18 C 0.38730(14) 0.82057(17) 0.34228(9)
C19 C 0.38832(17) 0.73570(19) 0.37847(9)
H16 H 0.3710(18) 0.752(2) 0.4128(11)
C20 C 0.41047(18) 0.63155(19) 0.36469(10)
H17 H 0.4165(18) 0.578(2) 0.3920(11)
C21 C 0.36328(15) 0.93452(17) 0.35653(10)
H18 H 0.3036(17) 0.9561(19) 0.3363(10)
H19 H 0.3616(17) 0.9410(19) 0.3940(11)
C23 C 0.56889(15) 0.95771(18) 0.41599(9)
H20 H 0.5371(18) 0.914(2) 0.4346(10)
C24 C 0.66449(15) 0.97128(18) 0.43329(9)
H21 H 0.6978(17) 0.9379(19) 0.4663(10)
C39 C 0.20849(15) 0.14202(18) 0.40446(9)
H63 H 0.968(2) 0.200(3) 0.4886(12)
Co10_4 Co 1.0000 1.0000 0.5000
O30 O 0.85242(11) 0.15713(14) 0.64262(7)
O9 O 0.99118(13) 0.82840(13) 0.52024(7)
H2 H 0.945(2) 0.796(3) 0.5076(13)
Co4 Co 0.16122(2) 0.92365(2) 0.42834(2)
O13 O 0.76118(10) 0.94611(12) 0.57331(7)
O14 O 0.87468(12) 0.82838(16) 0.60636(9)
O15 O 0.24719(11) 0.82846(14) 0.47680(7)
O16 O 0.14365(11) 0.72535(15) 0.50546(8)
H33 H 0.004(2) 0.932(2) 0.4082(11)
H34 H 0.024(2) 0.004(3) 0.6801(14)
N4 N 0.53197(12) 0.58290(14) 0.65940(7)
C40 C 0.22505(15) 0.75572(18) 0.50680(9)
C41 C 0.30494(15) 0.70546(17) 0.54740(9)
C42 C 0.28772(16) 0.62600(19) 0.58380(10)
H36 H 0.226(2) 0.607(2) 0.5807(11)
C43 C 0.35883(16) 0.57935(19) 0.62267(10)
H37 H 0.3484(17) 0.525(2) 0.6475(10)
C44 C 0.44932(15) 0.61516(16) 0.62483(9)
C45 C 0.46832(14) 0.69676(16) 0.58939(8)
C46 C 0.39547(15) 0.74109(17) 0.55037(9)
H38 H 0.4108(15) 0.7933(18) 0.5259(9)
C47 C 0.56805(14) 0.71588(16) 0.60468(8)
C48 C 0.60413(15) 0.64201(16) 0.64746(9)
C49 C 0.69894(16) 0.63459(19) 0.67090(10)
H39 H 0.7234(17) 0.582(2) 0.6980(10)
C50 C 0.75753(16) 0.70385(19) 0.65169(10)
H40 H 0.826(2) 0.703(2) 0.6667(11)
C51 C 0.72336(15) 0.78157(17) 0.61124(9)
C52 C 0.62851(14) 0.78777(17) 0.58778(9)
H41 H 0.6066(15) 0.8409(19) 0.5594(9)
C53 C 0.54195(17) 0.50135(18) 0.70181(9)
H42 H 0.4836(18) 0.496(2) 0.7137(10)
H43 H 0.5868(18) 0.528(2) 0.7321(10)
C54 C 0.56801(14) 0.38970(17) 0.68495(9)
C55 C 0.57063(19) 0.30463(19) 0.72138(10)
H44 H 0.5559(19) 0.317(2) 0.7545(12)
C56 C 0.59228(19) 0.20129(19) 0.70761(10)
H45 H 0.5902(19) 0.147(2) 0.7306(11)
C57 C 0.61270(14) 0.17943(17) 0.65772(9)
C58 C 0.61168(17) 0.26430(19) 0.62153(9)
H46 H 0.6290(18) 0.248(2) 0.5872(11)
C59 C 0.58953(18) 0.36845(19) 0.63531(10)
H47 H 0.5835(18) 0.422(2) 0.6080(11)
C60 C 0.63672(15) 0.06548(17) 0.64347(10)
H48 H 0.6964(17) 0.0439(19) 0.6637(10)
H49 H 0.6384(17) 0.0590(19) 0.6060(11)
C62 C 0.43111(15) 0.04229(18) 0.58401(9)
H50 H 0.4629(18) 0.086(2) 0.5654(10)
C63 C 0.33551(15) 0.02872(18) 0.56671(9)
H51 H 0.3022(17) 0.0621(19) 0.5337(10)
C78 C 0.79151(15) 0.85798(18) 0.59554(9)
O29 O 0.14758(11) 0.84287(14) 0.35738(7)
O18 O 0.14219(10) 0.90499(13) 0.60963(6)
O19 O 0.49282(12) 0.65982(15) 0.83250(8)
O20 O 0.64758(11) 0.65713(14) 0.85738(7)
O22 O 0.02393(16) 0.94092(18) 0.68521(8)
H35 H 0.070(3) 0.925(3) 0.7043(15)
O23 O 0.04229(13) 0.71765(14) 0.63663(8)
N5 N 0.57057(11) 0.98690(14) 0.65630(7)
N6 N 0.0270(2) 0.5381(2) 0.62590(13)
C61 C 0.47683(13) 0.98746(16) 0.63095(8)
C64 C 0.28595(14) 0.96361(17) 0.59591(8)
C65 C 0.33260(14) 0.90728(17) 0.64206(9)
H52 H 0.2979(15) 0.8618(17) 0.6620(9)
C66 C 0.42873(14) 0.91745(16) 0.65935(8)
C67 C 0.58448(14) 0.91728(16) 0.70073(8)
C68 C 0.49831(14) 0.87054(16) 0.70375(8)
C69 C 0.49451(15) 0.79574(17) 0.74444(8)
H53 H 0.4379(17) 0.763(2) 0.7476(10)
C70 C 0.57603(15) 0.76777(17) 0.78223(9)
C71 C 0.66103(15) 0.81515(18) 0.77835(9)
H54 H 0.7183(17) 0.7945(19) 0.8041(10)
C72 C 0.66653(15) 0.88959(18) 0.73825(9)
H55 H 0.7261(17) 0.9202(19) 0.7354(10)
C73 C 0.18232(14) 0.95508(17) 0.57832(8)
C74 C 0.57150(15) 0.68914(17) 0.82719(9)
C75 C 0.0352(3) 0.6367(3) 0.60935(15)
H56 H 0.037(3) 0.639(4) 0.569(2)
C76 C 0.0172(5) 0.5232(5) 0.6814(2)
H57 H 0.0153 0.5926 0.6983
H59 H 0.0694 0.4826 0.7017
C77 C 0.0173(6) 0.4435(4) 0.5904(3)
H60 H 0.0667 0.3932 0.6045
H62 H 0.0204 0.4654 0.5542
Co6 Co 0.66122(2) 0.57635(2) 0.92834(2)
H58 H 0.9606 0.4845 0.6811
H61 H 0.9583 0.4093 0.5892
N2_2 N 0.07057(11) 0.51310(14) 0.15630(7)
C15_2 C 0.06801(14) 0.11030(17) 0.18495(9)
C16_2 C 0.07063(19) 0.19537(19) 0.22138(10)
H14_2 H 0.0559(19) 0.183(2) 0.2545(12)
C17_2 C 0.09228(19) 0.29871(19) 0.20761(10)
H15_2 H 0.0902(19) 0.353(2) 0.2306(11)
C18_2 C 0.11270(14) 0.32057(17) 0.15772(9)
C19_2 C 0.11168(17) 0.23570(19) 0.12153(9)
H16_2 H 0.1290(18) 0.252(2) 0.0872(11)
C20_2 C 0.08953(18) 0.13155(19) 0.13531(10)
H17_2 H 0.0835(18) 0.078(2) 0.1080(11)
C21_2 C 0.13672(15) 0.43452(17) 0.14347(10)
H18_2 H 0.1964(17) 0.4561(19) 0.1637(10)
H19_2 H 0.1384(17) 0.4410(19) 0.1060(11)
C28_2 C 0.08448(14) 0.58272(16) 0.20073(8)
C31_2 C 0.07603(15) 0.73223(17) 0.28223(9)
C32_2 C 0.16103(15) 0.68485(18) 0.27835(9)
H24_2 H 0.2183(17) 0.7055(19) 0.3041(10)
C33_2 C 0.16653(15) 0.61041(18) 0.23825(9)
H25_2 H 0.2261(17) 0.5798(19) 0.2354(10)
C35_2 C 0.07150(15) 0.81086(17) 0.32719(9)
O1_2 O 0.26118(10) 0.55389(12) 0.07331(7)
O2 O 0.37468(12) 0.67162(16) 0.10636(9)
N1_2 N 0.03197(12) 0.91710(14) 0.15940(7)
C8_2 C 0.06805(14) 0.78412(16) 0.10468(8)
C9_2 C 0.10413(15) 0.85799(16) 0.14746(9)
C10_2 C 0.19894(16) 0.86541(19) 0.17090(10)
H9_2 H 0.2234(17) 0.918(2) 0.1980(10)
C11_2 C 0.25753(16) 0.79615(19) 0.15169(10)
H10_2 H 0.326(2) 0.797(2) 0.1667(11)
C12_2 C 0.22336(15) 0.71843(17) 0.11124(9)
C13_2 C 0.12851(14) 0.71223(17) 0.08778(9)
H11_2 H 0.1066(15) 0.6591(19) 0.0594(9)
C14_2 C 0.04195(17) 0.99865(18) 0.20181(9)
H13_2 H 0.0868(18) 0.972(2) 0.2321(10)
C39_2 C 0.29151(15) 0.64202(18) 0.09554(9)
O15_2 O 0.25281(11) 0.32846(14) 0.02320(7)
O21 O 0.46668(10) 0.47103(12) 0.07302(6)
H33_2 H 0.496(2) 0.432(2) 0.0918(11)
Co9 Co 0.5000 0.5000 0.0000
Co11 Co 0.50607(2) 0.62528(2) 0.10678(2)
O16_2 O 0.35635(11) 0.22535(15) 0.99454(8)
C40_2 C 0.27495(15) 0.25572(18) 0.99320(9)
C41_2 C 0.19506(15) 0.20546(17) 0.95260(9)
C42_2 C 0.21228(16) 0.12600(19) 0.91620(10)
H36_2 H 0.274(2) 0.107(2) 0.9193(11)
C43_2 C 0.14117(16) 0.07935(19) 0.87733(10)
H37_2 H 0.1516(17) 0.025(2) 0.8525(10)
C44_2 C 0.05068(15) 0.11516(16) 0.87517(9)
C45_2 C 0.03168(14) 0.19676(16) 0.91061(8)
C46_2 C 0.10453(15) 0.24109(17) 0.94963(9)
H38_2 H 0.0892(15) 0.2933(18) 0.9741(9)
Co9_2 Co 0.5000 0.5000 1.0000
Co5 Co 0.49393(2) 0.37472(2) 0.89322(2)
O17 O 0.35847(10) 0.49887(13) 0.96644(6)
O18_2 O 0.35781(10) 0.40499(13) 0.89037(6)
O19_2 O 0.00718(12) 0.15982(15) 0.66750(8)
O22_2 O 0.47607(16) 0.44092(18) 0.81479(8)
H34_2 H 0.476(2) 0.504(3) 0.8199(14)
H35_2 H 0.430(3) 0.425(3) 0.7957(15)
O23_2 O 0.45771(13) 0.21765(14) 0.86337(8)
N6_2 N 0.4730(2) 0.0381(2) 0.87410(13)
H42_2 H 0.0164(18) 0.996(2) 0.7863(10)
C61_2 C 0.02317(13) 0.48746(16) 0.86905(8)
C62_2 C 0.06889(15) 0.54229(18) 0.91599(9)
H50_2 H 0.0371(18) 0.586(2) 0.9346(10)
C63_2 C 0.16449(15) 0.52872(18) 0.93329(9)
H51_2 H 0.1978(17) 0.5621(19) 0.9663(10)
C64_2 C 0.21405(14) 0.46361(17) 0.90409(8)
C65_2 C 0.16740(14) 0.40728(17) 0.85794(9)
H52_2 H 0.2021(15) 0.3618(17) 0.8380(9)
C66_2 C 0.07127(14) 0.41745(16) 0.84065(8)
C68_2 C 0.00169(14) 0.37054(16) 0.79625(8)
C69_2 C 0.00549(15) 0.29574(17) 0.75556(8)
H53_2 H 0.0621(17) 0.263(2) 0.7524(10)
C73_2 C 0.31768(14) 0.45508(17) 0.92168(8)
C75_2 C 0.4648(3) 0.1367(3) 0.89065(15)
H56_2 H 0.463(3) 0.139(4) 0.931(2)
C76_2 C 0.4828(5) 0.0232(5) 0.8186(2)
H57_2 H 0.4847 0.0926 0.8017
O26 O 0.62532(12) 0.32838(16) 0.89364(9)
O31 O 0.50882(13) 0.32840(13) 0.97976(7)
O33 O 0.53332(10) 0.52897(12) 0.92698(6)
O5_2 O 0.64153(10) 0.50113(13) 0.03356(6)
O6_2 O 0.64219(10) 0.59501(13) 0.10963(6)
O7_2 O 0.99282(12) 0.84018(15) 0.33250(8)
O11_2 O 0.52393(16) 0.55908(18) 0.18521(8)
H4_2 H 0.524(2) 0.496(3) 0.1801(14)
H5_2 H 0.570(3) 0.575(3) 0.2043(15)
O12_2 O 0.54229(13) 0.78235(14) 0.13663(8)
N3_2 N 0.5270(2) 0.9619(2) 0.12590(13)
H12_2 H 0.9836(18) 0.004(2) 0.2137(10)
C22_2 C 0.97683(13) 0.51254(16) 0.13095(8)
C23_2 C 0.93111(15) 0.45771(18) 0.08401(9)
H20_2 H 0.9629(18) 0.414(2) 0.0654(10)
C24_2 C 0.83551(15) 0.47128(18) 0.06671(9)
H21_2 H 0.8022(17) 0.4379(19) 0.0337(10)
C25_2 C 0.78595(14) 0.53639(17) 0.09591(8)
C26_2 C 0.83260(14) 0.59272(17) 0.14206(9)
H22_2 H 0.7979(15) 0.6382(17) 0.1620(9)
C27_2 C 0.92873(14) 0.58255(16) 0.15935(8)
C29_2 C 0.99831(14) 0.62946(16) 0.20375(8)
C30_2 C 0.99451(15) 0.70426(17) 0.24444(8)
H23_2 H 0.9379(17) 0.737(2) 0.2476(10)
C34_2 C 0.68232(14) 0.54492(17) 0.07832(8)
C36_2 C 0.5352(3) 0.8633(3) 0.10935(15)
H26_2 H 0.537(3) 0.861(4) 0.069(2)
C37_2 C 0.5172(5) 0.9768(5) 0.1814(2)
H27_2 H 0.5153 0.9074 0.1983
O32_2 O 0.49118(13) 0.67160(13) 0.02024(7)
O4_2 O 0.64365(11) 0.77465(15) 0.00546(8)
C1_2 C 0.72505(15) 0.74428(18) 0.00680(9)
C2_2 C 0.80494(15) 0.79454(17) 0.04740(9)
C3_2 C 0.78772(16) 0.87400(19) 0.08380(10)
H6_2 H 0.726(2) 0.893(2) 0.0807(11)
C4_2 C 0.85883(16) 0.92065(19) 0.12267(10)
H7_2 H 0.8484(17) 0.975(2) 0.1475(10)
C5_2 C 0.94932(15) 0.88484(16) 0.12483(9)
C6_2 C 0.96832(14) 0.80324(16) 0.08939(8)
C7_2 C 0.89547(15) 0.75891(17) 0.05037(9)
H8_2 H 0.9108(15) 0.7067(18) 0.0259(9)
H63_2 H 0.532(2) 0.700(3) 0.0114(12)
H64_2 H 0.445(2) 0.704(3) 0.0076(13)
O3_2 O 0.74719(11) 0.67154(14) 0.97680(7)
H1_2 H 0.468(2) 0.300(3) 0.9886(12)
H2_2 H 0.555(2) 0.296(3) 0.9924(13)
H3_2 H 0.504(2) 0.568(2) 0.9082(11)
O13_2 O 0.73882(10) 0.44611(12) 0.92669(7)
N4_2 N 0.96803(12) 0.08290(14) 0.84060(7)
C47_2 C 0.93195(14) 0.21588(16) 0.89532(8)
C48_2 C 0.89587(15) 0.14201(16) 0.85254(9)
C49_2 C 0.80106(16) 0.13459(19) 0.82910(10)
H39_2 H 0.7766(17) 0.082(2) 0.8020(10)
C50_2 C 0.74247(16) 0.20385(19) 0.84831(10)
H40_2 H 0.674(2) 0.203(2) 0.8333(11)
C51_2 C 0.77664(15) 0.28157(17) 0.88876(9)
C52_2 C 0.87149(14) 0.28777(17) 0.91222(9)
H41_2 H 0.8934(15) 0.3409(19) 0.9406(9)
C53_2 C 0.95805(17) 0.00135(18) 0.79819(9)
H43_2 H 0.9132(18) 0.028(2) 0.7679(10)
C78_2 C 0.70849(15) 0.35798(18) 0.90446(9)
N5_2 N 0.92943(11) 0.48690(14) 0.84370(7)
C54_2 C 0.93199(14) 0.88970(17) 0.81505(9)
C55_2 C 0.92937(19) 0.80463(19) 0.77862(10)
H44_2 H 0.9441(19) 0.817(2) 0.7455(12)
C56_2 C 0.90772(19) 0.70129(19) 0.79239(10)
H45_2 H 0.9098(19) 0.647(2) 0.7694(11)
C57_2 C 0.88730(14) 0.67943(17) 0.84228(9)
C58_2 C 0.88832(17) 0.76430(19) 0.87847(9)
H46_2 H 0.8710(18) 0.748(2) 0.9128(11)
C59_2 C 0.91047(18) 0.86845(19) 0.86469(10)
H47_2 H 0.9165(18) 0.922(2) 0.8920(11)
C60_2 C 0.86328(15) 0.56548(17) 0.85653(10)
H48_2 H 0.8036(17) 0.5439(19) 0.8363(10)
H49_2 H 0.8616(17) 0.5590(19) 0.8940(11)
C67_2 C 0.91552(14) 0.41728(16) 0.79927(8)
C70_2 C 0.92397(15) 0.26777(17) 0.71777(9)
C71_2 C 0.83897(15) 0.31515(18) 0.72165(9)
H54_2 H 0.7817(17) 0.2945(19) 0.6959(10)
C72_2 C 0.83347(15) 0.38959(18) 0.76175(9)
H55_2 H 0.7739(17) 0.4202(19) 0.7646(10)
C74_2 C 0.92850(15) 0.18914(17) 0.67281(9)
H58_2 H 0.5394 0.9845 0.8189
H59_2 H 0.4306 0.9826 0.7983
C77_2 C 0.4827(6) 0.9435(4) 0.9096(3)
H60_2 H 0.4333 0.8932 0.8955
H61_2 H 0.5417 0.9093 0.9108
H62_2 H 0.4796 0.9654 0.9458
H28_2 H 0.4606 0.0155 0.1811
H29_2 H 0.5694 0.0174 0.2017
C38_2 C 0.5173(6) 0.0565(4) 0.0904(3)
H30_2 H 0.5667 0.1068 0.1045
H31_2 H 0.4583 0.0907 0.0892
H32_2 H 0.5204 0.0346 0.0542
loop_
_geom_bond_atom_site_label_1
_geom_bond_atom_site_label_2
_geom_bond_site_symmetry_1
_geom_bond_site_symmetry_2
Co10 O32 1_555 1_555
H64 O32 1_555 1_555
Co10_2 O35 1_555 1_555
O28 Co10_2 1_555 1_555
Co3 O6 1_555 1_555
O5 C34 1_555 1_555
O6 C34 1_555 1_555
O7 C35 1_555 1_555
O8 C35 1_555 1_555
O11 Co3 1_555 1_555
H5 O11 1_555 1_555
O12 Co3 1_555 1_555
N3 C36 1_555 1_555
C22 N2 1_555 1_555
C26 C25 1_555 1_555
H22 C26 1_555 1_555
C27 C22 1_555 1_555
C28 N2 1_555 1_555
C29 C27 1_555 1_555
C30 C29 1_555 1_555
H23 C30 1_555 1_555
C31 C30 1_555 1_555
C32 C31 1_555 1_555
H24 C32 1_555 1_555
C33 C28 1_555 1_555
H25 C33 1_555 1_555
C34 C25 1_555 1_555
C35 C31 1_555 1_555
C36 O12 1_555 1_555
H26 C36 1_555 1_555
C37 N3 1_555 1_555
H27 C37 1_555 1_555
H29 C37 1_555 1_555
C38 N3 1_555 1_555
H30 C38 1_555 1_555
H32 C38 1_555 1_555
Co7 O8 1_555 1_555
Co10_3 O5 1_555 1_555
C26 C27 1_555 1_555
C28 C29 1_555 1_555
C32 C33 1_555 1_555
Co1 O3 1_555 1_555
O1 C39 1_555 1_555
O25 C39 1_555 1_555
O3 C1 1_555 1_555
O4 C1 1_555 1_555
O10 Co1 1_555 1_555
H3 O10 1_555 1_555
N1 C5 1_555 1_555
C1 C2 1_555 1_555
C2 C3 1_555 1_555
C3 H6 1_555 1_555
C4 C3 1_555 1_555
H7 C4 1_555 1_555
C5 C4 1_555 1_555
C6 C5 1_555 1_555
C7 C2 1_555 1_555
H8 C7 1_555 1_555
C8 C6 1_555 1_555
C9 N1 1_555 1_555
C10 C9 1_555 1_555
H9 C10 1_555 1_555
C11 C10 1_555 1_555
H10 C11 1_555 1_555
C12 C11 1_555 1_555
C13 C8 1_555 1_555
H11 C13 1_555 1_555
C14 N1 1_555 1_555
H12 C14 1_555 1_555
H13 C14 1_555 1_555
C15 C14 1_555 1_555
C16 C15 1_555 1_555
H14 C16 1_555 1_555
C17 C16 1_555 1_555
H15 C17 1_555 1_555
C18 C17 1_555 1_555
C19 C18 1_555 1_555
H16 C19 1_555 1_555
C20 C15 1_555 1_555
H17 C20 1_555 1_555
C21 C18 1_555 1_555
H18 C21 1_555 1_555
H19 C21 1_555 1_555
H20 C23 1_555 1_555
C24 C23 1_555 1_555
H21 C24 1_555 1_555
C39 C12 1_555 1_555
O30 Co1 1_555 1_555
Co10_3 O10 1_555 1_555
C6 C7 1_555 1_555
C8 C9 1_555 1_555
C12 C13 1_555 1_555
C19 C20 1_555 1_555
Co10_4 O9 1_555 1_555
H2 O9 1_555 1_555
O14 C78 1_555 1_555
O15 Co4 1_555 1_555
O16 C40 1_555 1_555
O35 Co4 1_555 1_555
H33 O35 1_555 1_555
N4 C44 1_555 1_555
C40 O15 1_555 1_555
C41 C40 1_555 1_555
C42 C41 1_555 1_555
H36 C42 1_555 1_555
C43 C42 1_555 1_555
H37 C43 1_555 1_555
C44 C43 1_555 1_555
C45 C44 1_555 1_555
C46 C41 1_555 1_555
H38 C46 1_555 1_555
C47 C45 1_555 1_555
C48 N4 1_555 1_555
C49 C48 1_555 1_555
H39 C49 1_555 1_555
C50 C49 1_555 1_555
H40 C50 1_555 1_555
C51 C50 1_555 1_555
C52 C47 1_555 1_555
H41 C52 1_555 1_555
C53 N4 1_555 1_555
H42 C53 1_555 1_555
H43 C53 1_555 1_555
C54 C53 1_555 1_555
C55 C54 1_555 1_555
H44 C55 1_555 1_555
C56 C55 1_555 1_555
H45 C56 1_555 1_555
C57 C56 1_555 1_555
C58 C57 1_555 1_555
H46 C58 1_555 1_555
C59 C54 1_555 1_555
H47 C59 1_555 1_555
C60 C57 1_555 1_555
H48 C60 1_555 1_555
H49 C60 1_555 1_555
H50 C62 1_555 1_555
C63 C62 1_555 1_555
H51 C63 1_555 1_555
C78 O13 1_555 1_555
O29 Co4 1_555 1_555
C45 C46 1_555 1_555
C47 C48 1_555 1_555
C51 C52 1_555 1_555
C51 C78 1_555 1_555
C58 C59 1_555 1_555
Co13 O18 1_555 1_555
O28 C73 1_555 1_555
O18 C73 1_555 1_555
O19 C74 1_555 1_555
O20 C74 1_555 1_555
O22 Co13 1_555 1_555
H35 O22 1_555 1_555
O23 Co13 1_555 1_555
N6 C75 1_555 1_555
C61 N5 1_555 1_555
C65 C64 1_555 1_555
H52 C65 1_555 1_555
C66 C61 1_555 1_555
C67 N5 1_555 1_555
C68 C66 1_555 1_555
C69 C68 1_555 1_555
H53 C69 1_555 1_555
C70 C69 1_555 1_555
C71 C70 1_555 1_555
H54 C71 1_555 1_555
C72 C67 1_555 1_555
H55 C72 1_555 1_555
C73 C64 1_555 1_555
C74 C70 1_555 1_555
C75 O23 1_555 1_555
H56 C75 1_555 1_555
C76 N6 1_555 1_555
H57 C76 1_555 1_555
H59 C76 1_555 1_555
C77 N6 1_555 1_555
H60 C77 1_555 1_555
H62 C77 1_555 1_555
Co6 O20 1_555 1_555
C65 C66 1_555 1_555
C67 C68 1_555 1_555
C71 C72 1_555 1_555
O29 C35_2 1_555 1_555
N2_2 C21_2 1_555 1_555
C16_2 C15_2 1_555 1_555
H14_2 C16_2 1_555 1_555
C17_2 C16_2 1_555 1_555
H15_2 C17_2 1_555 1_555
C18_2 C17_2 1_555 1_555
C19_2 C18_2 1_555 1_555
H16_2 C19_2 1_555 1_555
C20_2 C15_2 1_555 1_555
H17_2 C20_2 1_555 1_555
C21_2 C18_2 1_555 1_555
H18_2 C21_2 1_555 1_555
H19_2 C21_2 1_555 1_555
C28_2 N2_2 1_555 1_555
C32_2 C31_2 1_555 1_555
H24_2 C32_2 1_555 1_555
C33_2 C28_2 1_555 1_555
H25_2 C33_2 1_555 1_555
C35_2 C31_2 1_555 1_555
C19_2 C20_2 1_555 1_555
C32_2 C33_2 1_555 1_555
O1_2 C39_2 1_555 1_555
O2 C39_2 1_555 1_555
C9_2 N1_2 1_555 1_555
C10_2 C9_2 1_555 1_555
H9_2 C10_2 1_555 1_555
C11_2 C10_2 1_555 1_555
H10_2 C11_2 1_555 1_555
C12_2 C11_2 1_555 1_555
C13_2 C8_2 1_555 1_555
H11_2 C13_2 1_555 1_555
C14_2 N1_2 1_555 1_555
H13_2 C14_2 1_555 1_555
C39_2 C12_2 1_555 1_555
Co7 O1_2 1_555 1_555
O15_2 Co7 1_555 1_555
O21 Co7 1_555 1_555
H33_2 O21 1_555 1_555
Co9 O21 1_555 1_555
Co11 O2 1_555 1_555
C8_2 C9_2 1_555 1_555
C12_2 C13_2 1_555 1_555
O21 Co11 1_555 1_555
O16_2 C40_2 1_555 1_555
C41_2 C40_2 1_555 1_555
C42_2 C41_2 1_555 1_555
H36_2 C42_2 1_555 1_555
C43_2 C42_2 1_555 1_555
H37_2 C43_2 1_555 1_555
C44_2 C43_2 1_555 1_555
C45_2 C44_2 1_555 1_555
C46_2 C41_2 1_555 1_555
H38_2 C46_2 1_555 1_555
C45_2 C46_2 1_555 1_555
Co5 O18_2 1_555 1_555
O17 C73_2 1_555 1_555
O18_2 C73_2 1_555 1_555
O22_2 Co5 1_555 1_555
H34_2 O22_2 1_555 1_555
H35_2 O22_2 1_555 1_555
O23_2 Co5 1_555 1_555
N6_2 C75_2 1_555 1_555
C62_2 C61_2 1_555 1_555
H50_2 C62_2 1_555 1_555
C63_2 C62_2 1_555 1_555
H51_2 C63_2 1_555 1_555
C64_2 C63_2 1_555 1_555
C65_2 C64_2 1_555 1_555
H52_2 C65_2 1_555 1_555
C66_2 C61_2 1_555 1_555
C68_2 C66_2 1_555 1_555
C69_2 C68_2 1_555 1_555
H53_2 C69_2 1_555 1_555
C73_2 C64_2 1_555 1_555
C75_2 O23_2 1_555 1_555
H56_2 C75_2 1_555 1_555
C76_2 N6_2 1_555 1_555
H57_2 C76_2 1_555 1_555
Co9_2 O17 1_555 1_555
O26 Co5 1_555 1_555
O31 Co5 1_555 1_555
O33 Co5 1_555 1_555
C65_2 C66_2 1_555 1_555
Co9_2 O31 1_555 1_555
Co9_2 O33 1_555 1_555
Co11 O6_2 1_555 1_555
O5_2 C34_2 1_555 1_555
O6_2 C34_2 1_555 1_555
O11_2 Co11 1_555 1_555
H4_2 O11_2 1_555 1_555
H5_2 O11_2 1_555 1_555
O12_2 Co11 1_555 1_555
N3_2 C36_2 1_555 1_555
C23_2 C22_2 1_555 1_555
H20_2 C23_2 1_555 1_555
C24_2 C23_2 1_555 1_555
H21_2 C24_2 1_555 1_555
C25_2 C24_2 1_555 1_555
C26_2 C25_2 1_555 1_555
H22_2 C26_2 1_555 1_555
C27_2 C22_2 1_555 1_555
C29_2 C27_2 1_555 1_555
C30_2 C29_2 1_555 1_555
H23_2 C30_2 1_555 1_555
C34_2 C25_2 1_555 1_555
C36_2 O12_2 1_555 1_555
H26_2 C36_2 1_555 1_555
C37_2 N3_2 1_555 1_555
H27_2 C37_2 1_555 1_555
Co9 O5_2 1_555 1_555
O32_2 Co11 1_555 1_555
C26_2 C27_2 1_555 1_555
Co9 O32_2 1_555 1_555
O4_2 C1_2 1_555 1_555
C1_2 C2_2 1_555 1_555
C2_2 C3_2 1_555 1_555
C3_2 H6_2 1_555 1_555
C4_2 C3_2 1_555 1_555
H7_2 C4_2 1_555 1_555
C5_2 C4_2 1_555 1_555
C6_2 C5_2 1_555 1_555
C7_2 C2_2 1_555 1_555
H8_2 C7_2 1_555 1_555
H63_2 O32_2 1_555 1_555
H64_2 O32_2 1_555 1_555
C6_2 C7_2 1_555 1_555
Co6 O3_2 1_555 1_555
O31 H1_2 1_555 1_555
H2_2 O31 1_555 1_555
O33 Co6 1_555 1_555
H3_2 O33 1_555 1_555
O13_2 Co6 1_555 1_555
O26 C78_2 1_555 1_555
C48_2 N4_2 1_555 1_555
C49_2 C48_2 1_555 1_555
H39_2 C49_2 1_555 1_555
C50_2 C49_2 1_555 1_555
H40_2 C50_2 1_555 1_555
C51_2 C50_2 1_555 1_555
C52_2 C47_2 1_555 1_555
H41_2 C52_2 1_555 1_555
C53_2 N4_2 1_555 1_555
H43_2 C53_2 1_555 1_555
C78_2 O13_2 1_555 1_555
C47_2 C48_2 1_555 1_555
C51_2 C52_2 1_555 1_555
C51_2 C78_2 1_555 1_555
O30 C74_2 1_555 1_555
N5_2 C60_2 1_555 1_555
C55_2 C54_2 1_555 1_555
H44_2 C55_2 1_555 1_555
C56_2 C55_2 1_555 1_555
H45_2 C56_2 1_555 1_555
C57_2 C56_2 1_555 1_555
C58_2 C57_2 1_555 1_555
H46_2 C58_2 1_555 1_555
C59_2 C54_2 1_555 1_555
H47_2 C59_2 1_555 1_555
C60_2 C57_2 1_555 1_555
H48_2 C60_2 1_555 1_555
H49_2 C60_2 1_555 1_555
C67_2 N5_2 1_555 1_555
C71_2 C70_2 1_555 1_555
H54_2 C71_2 1_555 1_555
C72_2 C67_2 1_555 1_555
H55_2 C72_2 1_555 1_555
C74_2 C70_2 1_555 1_555
C58_2 C59_2 1_555 1_555
C71_2 C72_2 1_555 1_555
H60_2 C77_2 1_555 1_555
H61_2 C77_2 1_555 1_555
H62_2 C77_2 1_555 1_555
H30_2 C38_2 1_555 1_555
H31_2 C38_2 1_555 1_555
H32_2 C38_2 1_555 1_555

#END
