
###############################################################################
#
# This file contains modified crystal structure data generated from the
# MOF subset of the Cambridge Structural Database (CSD) v543 
# hosted by the Cambridge Crystallographic Data Centre (CCDC).
#
# This work is licensed under the Creative Commons
# Attribution-NonCommercial-ShareAlike 4.0 International License.
# To view a copy of this license, visit
# http://creativecommons.org/licenses/by-nc-sa/4.0/
# or send a letter to
# Creative Commons, PO Box 1866, Mountain View, CA 94042, USA.
#
# CIF created using the CSD Python API on 29 September 2022
# The structure has been converted into the P1 space group
# The structure has a 3D framework
# The original CSD entry LIXZAV is in the monoclinic crystal system
# The framework has been calculated to contain at least 10.0% void space
# The void calculation uses a probe of radius 1.32A, grid spacing 0.4
#
###############################################################################

data_LIXZAV
_chemical_formula_moiety         '(C180 H200 N40 O72 Zn12)n'
_symmetry_cell_setting           triclinic
_symmetry_space_group_name_H-M   'P 1'
_symmetry_Int_Tables_number      1
_space_group_name_Hall           'P 1'
loop_
_symmetry_equiv_pos_site_id
_symmetry_equiv_pos_as_xyz
1 x,y,z
_cell_length_a                   12.790(3)
_cell_length_b                   22.989(5)
_cell_length_c                   19.630(4)
_cell_angle_alpha                90
_cell_angle_beta                 107.40(3)
_cell_angle_gamma                90
_cell_volume                     5507.68
loop_
_atom_site_label
_atom_site_type_symbol
_atom_site_fract_x
_atom_site_fract_y
_atom_site_fract_z
O6 O 0.0184(3) 0.37602(16) 0.6979(2)
Zn4 Zn 0.17600(5) 0.34676(2) 0.72622(3)
Zn6 Zn 0.10789(5) 0.32857(2) 0.55457(3)
N1 N 0.0481(4) 0.32658(17) 0.4488(2)
N5 N 0.5318(4) 0.47130(18) 0.6031(3)
N6 N 0.6316(4) 0.55713(18) 0.6375(3)
N7 N 0.7198(4) 0.46756(19) 0.6586(3)
O1 O 0.2400(3) 0.37690(16) 0.5737(2)
O2 O 0.2224(3) 0.41309(15) 0.6754(2)
O3 O 0.6121(7) 0.7349(2) 0.6574(4)
O4 O 0.6671(4) 0.75520(16) 0.5657(2)
O5 O 0.9877(3) 0.36589(17) 0.5805(2)
O7 O 0.2191(4) 0.36242(18) 0.8301(2)
O8 O 0.2674(3) 0.39209(15) 0.93998(19)
O13 O 0.6200(4) 0.38494(17) 0.6321(3)
O14 O 0.8106(4) 0.5513(2) 0.7013(3)
O15 O 0.4499(4) 0.55875(19) 0.5754(3)
O17 O 0.0547(4) 0.56879(17) 0.9360(3)
O19 O 0.3338(3) 0.31522(15) 0.7431(2)
H1 H 0.3499 0.2885 0.7743
H2 H 0.3695 0.3321 0.7186
C1 C 0.0633(6) 0.2214(2) 0.4220(3)
H3 H 0.0987 0.2062 0.3891
H5 H 0.1130 0.2199 0.4696
C2 C 0.0299(4) 0.2830(2) 0.4030(3)
C3 C 0.0056(5) 0.3762(2) 0.4095(3)
C4 C 0.0011(6) 0.4337(2) 0.4317(3)
H6 H 0.0316 0.4447 0.4790
C22 C 0.2700(4) 0.4092(2) 0.6275(3)
C23 C 0.3694(5) 0.4463(3) 0.6375(3)
H27 H 0.4226 0.4359 0.6825
H28 H 0.3489 0.4866 0.6411
C24 C 0.4242(5) 0.4420(3) 0.5794(3)
H29 H 0.4339 0.4015 0.5690
H30 H 0.3786 0.4603 0.5361
C25 C 0.9616(4) 0.3815(2) 0.6342(3)
C26 C 0.8510(5) 0.4104(3) 0.6181(3)
H31 H 0.8485 0.4423 0.5854
H32 H 0.7954 0.3825 0.5937
C27 C 0.8224(5) 0.4332(3) 0.6816(3)
H33 H 0.8132 0.4010 0.7113
H34 H 0.8815 0.4576 0.7098
C28 C 0.6483(5) 0.7202(2) 0.6100(3)
C29 C 0.6653(7) 0.6565(2) 0.5988(4)
H35 H 0.6229 0.6455 0.5508
H36 H 0.7420 0.6495 0.6038
C30 C 0.6314(6) 0.6201(2) 0.6514(3)
H37 H 0.6804 0.6279 0.6988
H38 H 0.5582 0.6316 0.6510
C31 C 0.7271(4) 0.5269(2) 0.6682(3)
C32 C 0.5329(5) 0.5311(2) 0.6026(3)
C33 C 0.6226(5) 0.4373(2) 0.6311(3)
C34 C 0.2056(4) 0.3949(2) 0.8774(3)
C35 C 0.1123(5) 0.4375(2) 0.8605(3)
H39 H 0.0520 0.4219 0.8222
H40 H 0.1356 0.4735 0.8437
C36 C 0.0724(4) 0.4504(2) 0.9240(3)
H41 H 0.0626 0.4142 0.9467
H42 H 0.1271 0.4733 0.9585
Zn9 Zn 0.38886(5) 0.33394(2) 0.95045(3)
Zn10 Zn 0.61114(5) 0.83394(2) 0.54955(3)
O24 O 0.1285(4) 0.26365(15) 0.7041(2)
O25 O 0.1367(3) 0.25039(15) 0.5933(2)
N11 N 0.4585(4) 0.33811(17) 0.0586(2)
N2 N 0.9785(4) 0.30074(19) 0.3361(2)
N3 N 0.5151(4) 0.3202(2) 0.1745(2)
N8 N 0.9673(3) 0.48274(16) 0.9024(2)
N9 N 0.7773(4) 0.48157(17) 0.8557(2)
N10 N 0.8694(4) 0.56964(17) 0.8893(2)
O9 O 0.8715(4) 0.76365(15) 0.7959(2)
O10 O 0.8633(3) 0.75039(15) 0.9067(2)
O11 O 0.5095(4) 0.36636(19) 0.9226(2)
O12 O 0.4827(4) 0.3889(2) 0.8088(2)
O16 O 0.8752(4) 0.39782(15) 0.8713(2)
O18 O 0.6855(4) 0.56813(19) 0.8376(3)
H4 H 0.9995 0.1985 0.4197
C5 C 0.9494(6) 0.4731(3) 0.3799(4)
H7 H 0.9430 0.5115 0.3929
C6 C 0.9068(6) 0.4572(3) 0.3093(4)
H8 H 0.8741 0.4854 0.2758
C7 C 0.9111(6) 0.4011(3) 0.2869(3)
H9 H 0.8820 0.3907 0.2391
C8 C 0.9610(4) 0.3606(2) 0.3388(3)
C9 C 0.9395(6) 0.2630(3) 0.2736(3)
H10 H 0.9939 0.2332 0.2756
H11 H 0.9319 0.2859 0.2309
C10 C 0.8313(6) 0.2343(3) 0.2682(3)
H12 H 0.8131 0.2080 0.2277
H13 H 0.8395 0.2111 0.3108
C11 C 0.7378(5) 0.2759(3) 0.2600(3)
H14 H 0.7295 0.2991 0.2174
H15 H 0.7557 0.3021 0.3005
C12 C 0.6304(6) 0.2467(3) 0.2545(4)
H16 H 0.6373 0.2252 0.2982
H17 H 0.6141 0.2190 0.2155
C13 C 0.5361(6) 0.2890(3) 0.2424(3)
H18 H 0.4706 0.2679 0.2428
H19 H 0.5522 0.3169 0.2812
C14 C 0.4137(5) 0.2402(3) 0.0982(3)
H20 H 0.3530 0.2399 0.0553
H21 H 0.3886 0.2294 0.1379
H22 H 0.4682 0.2130 0.0938
C15 C 0.4622(4) 0.2998(2) 0.1102(3)
C16 C 0.5146(4) 0.3870(2) 0.0935(3)
C17 C 0.5370(5) 0.4398(2) 0.0663(3)
H23 H 0.5147 0.4472 0.0175
C18 C 0.5932(5) 0.4806(2) 0.1140(4)
H24 H 0.6092 0.5162 0.0971
C19 C 0.6272(5) 0.4700(3) 0.1877(4)
H25 H 0.6644 0.4990 0.2185
C20 C 0.6068(5) 0.4178(3) 0.2155(3)
H26 H 0.6298 0.4104 0.2643
C21 C 0.5498(4) 0.3764(2) 0.1661(3)
C37 C 0.5349(4) 0.3903(2) 0.8715(3)
C38 C 0.6414(5) 0.4240(3) 0.8938(3)
H43 H 0.6345 0.4560 0.9244
H44 H 0.6993 0.3987 0.9213
C39 C 0.6730(5) 0.4480(2) 0.8309(3)
H45 H 0.6817 0.4162 0.8006
H46 H 0.6151 0.4731 0.8030
C40 C 0.8684(4) 0.7326(2) 0.8473(3)
C41 C 0.8675(6) 0.6674(2) 0.8360(3)
H47 H 0.8035 0.6571 0.7969
H48 H 0.9319 0.6566 0.8225
C42 C 0.8662(5) 0.6333(2) 0.9015(3)
H49 H 0.9289 0.6443 0.9412
H50 H 0.8004 0.6428 0.9140
C43 C 0.7714(5) 0.5420(2) 0.8588(3)
C44 C 0.9698(5) 0.5422(2) 0.9102(3)
C45 C 0.8733(4) 0.4506(2) 0.8762(3)
Zn5 Zn 0.82400(5) 0.84676(2) 0.77378(3)
Zn7 Zn 0.89211(5) 0.82857(2) 0.94543(3)
O20 O 0.3329(4) 0.25520(16) 0.9343(2)
N10_2 N 0.1306(4) 0.06964(17) 0.6107(2)
O18_2 O 0.3145(4) 0.06813(19) 0.6624(3)
C40_2 C 0.1316(4) 0.2326(2) 0.6527(3)
C41_2 C 0.1325(6) 0.1674(2) 0.6640(3)
H47_2 H 0.1965 0.1571 0.7031
H48_2 H 0.0681 0.1566 0.6775
C42_2 C 0.1338(5) 0.1333(2) 0.5985(3)
H49_2 H 0.0711 0.1443 0.5588
H50_2 H 0.1996 0.1428 0.5860
C43_2 C 0.2286(5) 0.0420(2) 0.6412(3)
C44_2 C 0.0302(5) 0.0422(2) 0.5898(3)
N2_2 N 0.0215(4) 0.80074(19) 0.1639(2)
N3_2 N 0.4849(4) 0.8202(2) 0.3255(2)
N4 N 0.5415(4) 0.83811(17) 0.4414(2)
H4_2 H 0.0005 0.6985 0.0803
C5_2 C 0.0506(6) 0.9731(3) 0.1201(4)
C6_2 C 0.0932(6) 0.9572(3) 0.1907(4)
H8_2 H 0.1259 0.9854 0.2242
C7_2 C 0.0889(6) 0.9011(3) 0.2131(3)
H9_2 H 0.1180 0.8907 0.2609
C8_2 C 0.0390(4) 0.8606(2) 0.1612(3)
C9_2 C 0.0605(6) 0.7630(3) 0.2264(3)
H10_2 H 0.0061 0.7332 0.2244
H11_2 H 0.0681 0.7859 0.2691
C10_2 C 0.1687(6) 0.7343(3) 0.2318(3)
H12_2 H 0.1869 0.7080 0.2723
H13_2 H 0.1605 0.7111 0.1892
C11_2 C 0.2622(5) 0.7759(3) 0.2400(3)
H14_2 H 0.2705 0.7991 0.2826
H15_2 H 0.2443 0.8021 0.1995
C12_2 C 0.3696(6) 0.7467(3) 0.2455(4)
H16_2 H 0.3627 0.7252 0.2018
H17_2 H 0.3859 0.7190 0.2845
C13_2 C 0.4639(6) 0.7890(3) 0.2576(3)
H18_2 H 0.5294 0.7679 0.2572
H19_2 H 0.4478 0.8169 0.2188
C14_2 C 0.5863(5) 0.7402(3) 0.4018(3)
H20_2 H 0.6470 0.7399 0.4447
H21_2 H 0.6114 0.7294 0.3621
H22_2 H 0.5318 0.7130 0.4062
C15_2 C 0.5378(4) 0.7998(2) 0.3898(3)
C16_2 C 0.4854(4) 0.8870(2) 0.4065(3)
C17_2 C 0.4630(5) 0.9398(2) 0.4337(3)
H23_2 H 0.4853 0.9472 0.4825
C18_2 C 0.4068(5) 0.9806(2) 0.3860(4)
C19_2 C 0.3728(5) 0.9700(3) 0.3123(4)
H25_2 H 0.3356 0.9990 0.2815
C20_2 C 0.3932(5) 0.9178(3) 0.2845(3)
H26_2 H 0.3702 0.9104 0.2357
C21_2 C 0.4502(4) 0.8764(2) 0.3339(3)
N8_2 N 0.0327(3) 0.98274(16) 0.5976(2)
N9_2 N 0.2227(4) 0.98157(17) 0.6443(2)
O11_2 O 0.4905(4) 0.86636(19) 0.5774(2)
O12_2 O 0.5173(4) 0.8889(2) 0.6912(2)
O16_2 O 0.1248(4) 0.89782(15) 0.6287(2)
C37_2 C 0.4651(4) 0.8903(2) 0.6285(3)
C38_2 C 0.3586(5) 0.9240(3) 0.6062(3)
H43_2 H 0.3655 0.9560 0.5756
H44_2 H 0.3007 0.8987 0.5787
C39_2 C 0.3270(5) 0.9480(2) 0.6691(3)
H45_2 H 0.3183 0.9162 0.6994
H46_2 H 0.3849 0.9731 0.6970
C45_2 C 0.1267(4) 0.9506(2) 0.6238(3)
O21 O 0.0123(3) 0.86589(17) 0.9195(2)
O23 O 0.7326(3) 0.89209(15) 0.56002(19)
N6_2 N 0.3684(4) 0.05713(18) 0.8625(3)
O3_2 O 0.3879(7) 0.2349(2) 0.8426(4)
O14_2 O 0.1894(4) 0.0513(2) 0.7987(3)
O15_2 O 0.5501(4) 0.05875(19) 0.9246(3)
O17_2 O 0.9453(4) 0.06879(17) 0.5640(3)
C28_2 C 0.3517(5) 0.2202(2) 0.8900(3)
C29_2 C 0.3347(7) 0.1565(2) 0.9012(4)
H35_2 H 0.3771 0.1455 0.9492
H36_2 H 0.2580 0.1495 0.8962
C30_2 C 0.3686(6) 0.1201(2) 0.8486(3)
H37_2 H 0.3196 0.1279 0.8012
H38_2 H 0.4418 0.1316 0.8490
C31_2 C 0.2729(4) 0.0269(2) 0.8318(3)
C32_2 C 0.4671(5) 0.0311(2) 0.8974(3)
N5_2 N 0.4682(4) 0.97130(18) 0.8969(3)
N7_2 N 0.2802(4) 0.96756(19) 0.8414(3)
O1_2 O 0.7600(3) 0.87690(16) 0.9263(2)
O2_2 O 0.7776(3) 0.91309(15) 0.8246(2)
O7_2 O 0.7809(4) 0.86242(18) 0.6699(2)
O13_2 O 0.3800(4) 0.88494(17) 0.8679(3)
O19_2 O 0.6662(3) 0.81522(15) 0.7569(2)
H1_2 H 0.6501 0.7885 0.7257
H2_2 H 0.6305 0.8321 0.7814
C22_2 C 0.7300(4) 0.9092(2) 0.8725(3)
C23_2 C 0.6306(5) 0.9463(3) 0.8625(3)
H27_2 H 0.5774 0.9359 0.8175
H28_2 H 0.6511 0.9866 0.8589
C24_2 C 0.5758(5) 0.9420(3) 0.9206(3)
H29_2 H 0.5661 0.9015 0.9310
H30_2 H 0.6214 0.9603 0.9639
C25_2 C 0.0384(4) 0.8815(2) 0.8658(3)
C26_2 C 0.1490(5) 0.9104(3) 0.8819(3)
H31_2 H 0.1515 0.9423 0.9146
H32_2 H 0.2046 0.8825 0.9063
C27_2 C 0.1776(5) 0.9332(3) 0.8184(3)
H33_2 H 0.1868 0.9010 0.7887
H34_2 H 0.1185 0.9576 0.7902
C33_2 C 0.3774(5) 0.9373(2) 0.8689(3)
C34_2 C 0.7944(4) 0.8949(2) 0.6226(3)
C35_2 C 0.8877(5) 0.9375(2) 0.6395(3)
H39_2 H 0.9480 0.9219 0.6778
H40_2 H 0.8644 0.9735 0.6563
C36_2 C 0.9276(4) 0.9504(2) 0.5760(3)
H41_2 H 0.9374 0.9142 0.5533
H42_2 H 0.8729 0.9733 0.5415
O22 O 0.9816(3) 0.87602(16) 0.8021(2)
H7_2 H 0.0570 0.0115 0.1071
H24_2 H 0.3908 0.0162 0.4029
N1_2 N 0.9519(4) 0.82658(17) 0.0512(2)
C1_2 C 0.9367(6) 0.7214(2) 0.0780(3)
H3_2 H 0.9013 0.7062 0.1109
H5_2 H 0.8870 0.7199 0.0304
C2_2 C 0.9701(4) 0.7830(2) 0.0970(3)
C3_2 C 0.9944(5) 0.8762(2) 0.0905(3)
C4_2 C 0.9989(6) 0.9337(2) 0.0683(3)
H6_2 H 0.9684 0.9447 0.0210
Zn8 Zn 0.61114(5) 0.66606(2) 0.04955(3)
N2_3 N 0.0215(4) 0.69926(19) 0.6639(2)
N3_3 N 0.4849(4) 0.6798(2) 0.8255(2)
N4_2 N 0.5415(4) 0.66189(17) 0.9414(2)
N8_3 N 0.0327(3) 0.51726(16) 0.0976(2)
N9_3 N 0.2227(4) 0.51843(17) 0.1443(2)
N10_3 N 0.1306(4) 0.43036(17) 0.1107(2)
O9_2 O 0.1285(4) 0.23635(15) 0.2041(2)
O10_2 O 0.1367(3) 0.24961(15) 0.0933(2)
O11_3 O 0.4905(4) 0.63364(19) 0.0774(2)
O12_3 O 0.5173(4) 0.6111(2) 0.1912(2)
O16_3 O 0.1248(4) 0.60218(15) 0.1287(2)
O18_3 O 0.3145(4) 0.43187(19) 0.1624(3)
H4_3 H 0.0005 0.8015 0.5803
C5_3 C 0.0506(6) 0.5269(3) 0.6201(4)
H7_3 H 0.0570 0.4885 0.6071
C6_3 C 0.0932(6) 0.5428(3) 0.6907(4)
H8_3 H 0.1259 0.5146 0.7242
C7_3 C 0.0889(6) 0.5989(3) 0.7131(3)
H9_3 H 0.1180 0.6093 0.7609
C8_3 C 0.0390(4) 0.6394(2) 0.6612(3)
C9_3 C 0.0605(6) 0.7370(3) 0.7264(3)
H10_3 H 0.0061 0.7668 0.7244
H11_3 H 0.0681 0.7141 0.7691
C10_3 C 0.1687(6) 0.7657(3) 0.7318(3)
H12_3 H 0.1869 0.7920 0.7723
H13_3 H 0.1605 0.7889 0.6892
C11_3 C 0.2622(5) 0.7241(3) 0.7400(3)
H14_3 H 0.2705 0.7009 0.7826
H15_3 H 0.2443 0.6979 0.6995
C12_3 C 0.3696(6) 0.7533(3) 0.7455(4)
H16_3 H 0.3627 0.7748 0.7018
H17_3 H 0.3859 0.7810 0.7845
C13_3 C 0.4639(6) 0.7110(3) 0.7576(3)
H18_3 H 0.5294 0.7321 0.7572
H19_3 H 0.4478 0.6831 0.7188
C14_3 C 0.5863(5) 0.7598(3) 0.9018(3)
H20_3 H 0.6470 0.7601 0.9447
H21_3 H 0.6114 0.7706 0.8621
H22_3 H 0.5318 0.7870 0.9062
C15_3 C 0.5378(4) 0.7002(2) 0.8898(3)
C16_3 C 0.4854(4) 0.6130(2) 0.9065(3)
C17_3 C 0.4630(5) 0.5602(2) 0.9337(3)
H23_3 H 0.4853 0.5528 0.9825
C18_3 C 0.4068(5) 0.5194(2) 0.8860(4)
H24_3 H 0.3908 0.4838 0.9029
C19_3 C 0.3728(5) 0.5300(3) 0.8123(4)
H25_3 H 0.3356 0.5010 0.7815
C20_3 C 0.3932(5) 0.5822(3) 0.7845(3)
H26_3 H 0.3702 0.5896 0.7357
C21_3 C 0.4502(4) 0.6236(2) 0.8339(3)
C37_3 C 0.4651(4) 0.6097(2) 0.1285(3)
C38_3 C 0.3586(5) 0.5760(3) 0.1062(3)
H43_3 H 0.3655 0.5440 0.0756
H44_3 H 0.3007 0.6013 0.0787
C39_3 C 0.3270(5) 0.5520(2) 0.1691(3)
H45_3 H 0.3183 0.5838 0.1994
H46_3 H 0.3849 0.5269 0.1970
C40_3 C 0.1316(4) 0.2674(2) 0.1527(3)
C41_3 C 0.1325(6) 0.3326(2) 0.1640(3)
H47_3 H 0.1965 0.3429 0.2031
H48_3 H 0.0681 0.3434 0.1775
C42_3 C 0.1338(5) 0.3667(2) 0.0985(3)
H49_3 H 0.0711 0.3557 0.0588
H50_3 H 0.1996 0.3572 0.0860
C43_3 C 0.2286(5) 0.4580(2) 0.1412(3)
C44_3 C 0.0302(5) 0.4578(2) 0.0898(3)
C45_3 C 0.1267(4) 0.5494(2) 0.1238(3)
Zn5_2 Zn 0.17600(5) 0.15324(2) 0.22622(3)
Zn7_2 Zn 0.10789(5) 0.17143(2) 0.05457(3)
O20_2 O 0.6671(4) 0.74480(16) 0.0657(2)
O21_2 O 0.0123(3) 0.63411(17) 0.4195(2)
O23_2 O 0.7326(3) 0.60791(15) 0.06002(19)
Zn1 Zn 0.82400(5) 0.65324(2) 0.27378(3)
Zn2 Zn 0.89211(5) 0.67143(2) 0.44543(3)
N1_3 N 0.9519(4) 0.67342(17) 0.5512(2)
N5_3 N 0.4682(4) 0.52870(18) 0.3969(3)
N6_3 N 0.3684(4) 0.44287(18) 0.3625(3)
N7_3 N 0.2802(4) 0.53244(19) 0.3414(3)
O1_3 O 0.7600(3) 0.62310(16) 0.4263(2)
O2_3 O 0.7776(3) 0.58691(15) 0.3246(2)
O3_3 O 0.3879(7) 0.2651(2) 0.3426(4)
O4_2 O 0.3329(4) 0.24480(16) 0.4343(2)
O7_3 O 0.7809(4) 0.63758(18) 0.1699(2)
O13_3 O 0.3800(4) 0.61506(17) 0.3679(3)
O14_3 O 0.1894(4) 0.4487(2) 0.2987(3)
O15_3 O 0.5501(4) 0.44125(19) 0.4246(3)
O17_3 O 0.9453(4) 0.43121(17) 0.0640(3)
O19_3 O 0.6662(3) 0.68478(15) 0.2569(2)
H1_3 H 0.6501 0.7115 0.2257
H2_3 H 0.6305 0.6679 0.2814
C1_3 C 0.9367(6) 0.7786(2) 0.5780(3)
H3_3 H 0.9013 0.7938 0.6109
H5_3 H 0.8870 0.7801 0.5304
C2_3 C 0.9701(4) 0.7170(2) 0.5970(3)
C3_3 C 0.9944(5) 0.6238(2) 0.5905(3)
C4_3 C 0.9989(6) 0.5663(2) 0.5683(3)
H6_3 H 0.9684 0.5553 0.5210
C22_3 C 0.7300(4) 0.5908(2) 0.3725(3)
C23_3 C 0.6306(5) 0.5537(3) 0.3625(3)
H27_3 H 0.5774 0.5641 0.3175
H28_3 H 0.6511 0.5134 0.3589
C24_3 C 0.5758(5) 0.5580(3) 0.4206(3)
H29_3 H 0.5661 0.5985 0.4310
H30_3 H 0.6214 0.5397 0.4639
C25_3 C 0.0384(4) 0.6185(2) 0.3658(3)
C26_3 C 0.1490(5) 0.5896(3) 0.3819(3)
H31_3 H 0.1515 0.5577 0.4146
H32_3 H 0.2046 0.6175 0.4063
C27_3 C 0.1776(5) 0.5668(3) 0.3184(3)
H33_3 H 0.1868 0.5990 0.2887
H34_3 H 0.1185 0.5424 0.2902
C28_3 C 0.3517(5) 0.2798(2) 0.3900(3)
C29_3 C 0.3347(7) 0.3435(2) 0.4012(4)
H35_3 H 0.3771 0.3545 0.4492
H36_3 H 0.2580 0.3505 0.3962
C30_3 C 0.3686(6) 0.3799(2) 0.3486(3)
H37_3 H 0.3196 0.3721 0.3012
H38_3 H 0.4418 0.3684 0.3490
C31_3 C 0.2729(4) 0.4731(2) 0.3318(3)
C32_3 C 0.4671(5) 0.4689(2) 0.3974(3)
C33_3 C 0.3774(5) 0.5627(2) 0.3689(3)
C34_3 C 0.7944(4) 0.6051(2) 0.1226(3)
C35_3 C 0.8877(5) 0.5625(2) 0.1395(3)
H39_3 H 0.9480 0.5781 0.1778
H40_3 H 0.8644 0.5265 0.1563
C36_3 C 0.9276(4) 0.5496(2) 0.0760(3)
H41_3 H 0.9374 0.5858 0.0533
H42_3 H 0.8729 0.5267 0.0415
Zn10_2 Zn 0.38886(5) 0.16606(2) 0.45045(3)
O22_2 O 0.9816(3) 0.62398(16) 0.3021(2)
O24_2 O 0.8715(4) 0.73635(15) 0.2959(2)
O25_2 O 0.8633(3) 0.74961(15) 0.4067(2)
O6_2 O 0.0184(3) 0.12398(16) 0.1979(2)
N5_4 N 0.5318(4) 0.02870(18) 0.1031(3)
N7_4 N 0.7198(4) 0.03244(19) 0.1586(3)
O1_4 O 0.2400(3) 0.12310(16) 0.0737(2)
O2_4 O 0.2224(3) 0.08691(15) 0.1754(2)
O5_2 O 0.9877(3) 0.13411(17) 0.0805(2)
O7_4 O 0.2191(4) 0.13758(18) 0.3301(2)
O8_2 O 0.2674(3) 0.10791(15) 0.43998(19)
O13_4 O 0.6200(4) 0.11506(17) 0.1321(3)
O19_4 O 0.3338(3) 0.18478(15) 0.2431(2)
H1_4 H 0.3499 0.2115 0.2743
H2_4 H 0.3695 0.1679 0.2186
C22_4 C 0.2700(4) 0.0908(2) 0.1275(3)
C23_4 C 0.3694(5) 0.0537(3) 0.1375(3)
H27_4 H 0.4226 0.0641 0.1825
H28_4 H 0.3489 0.0134 0.1411
C24_4 C 0.4242(5) 0.0580(3) 0.0794(3)
H29_4 H 0.4339 0.0985 0.0690
H30_4 H 0.3786 0.0397 0.0361
C25_4 C 0.9616(4) 0.1185(2) 0.1342(3)
C26_4 C 0.8510(5) 0.0896(3) 0.1181(3)
H31_4 H 0.8485 0.0577 0.0854
H32_4 H 0.7954 0.1175 0.0937
C27_4 C 0.8224(5) 0.0668(3) 0.1816(3)
H33_4 H 0.8132 0.0990 0.2113
H34_4 H 0.8815 0.0424 0.2098
C33_4 C 0.6226(5) 0.0627(2) 0.1311(3)
C34_4 C 0.2056(4) 0.1051(2) 0.3774(3)
C35_4 C 0.1123(5) 0.0625(2) 0.3605(3)
H39_4 H 0.0520 0.0781 0.3222
H40_4 H 0.1356 0.0265 0.3437
C36_4 C 0.0724(4) 0.0496(2) 0.4240(3)
H41_4 H 0.0626 0.0858 0.4467
H42_4 H 0.1271 0.0267 0.4585
N6_4 N 0.6316(4) 0.94287(18) 0.1375(3)
O3_4 O 0.6121(7) 0.7651(2) 0.1574(4)
O14_4 O 0.8106(4) 0.9487(2) 0.2013(3)
O15_4 O 0.4499(4) 0.94125(19) 0.0754(3)
O17_4 O 0.0547(4) 0.93121(17) 0.4360(3)
C28_4 C 0.6483(5) 0.7798(2) 0.1100(3)
C29_4 C 0.6653(7) 0.8435(2) 0.0988(4)
H35_4 H 0.6229 0.8545 0.0508
H36_4 H 0.7420 0.8505 0.1038
C30_4 C 0.6314(6) 0.8799(2) 0.1514(3)
H37_4 H 0.6804 0.8721 0.1988
H38_4 H 0.5582 0.8684 0.1510
C31_4 C 0.7271(4) 0.9731(2) 0.1682(3)
C32_4 C 0.5329(5) 0.9689(2) 0.1026(3)
N8_4 N 0.9673(3) 0.01726(16) 0.4024(2)
N9_4 N 0.7773(4) 0.01843(17) 0.3557(2)
O11_4 O 0.5095(4) 0.13364(19) 0.4226(2)
O12_4 O 0.4827(4) 0.1111(2) 0.3088(2)
O16_4 O 0.8752(4) 0.10218(15) 0.3713(2)
C37_4 C 0.5349(4) 0.1097(2) 0.3715(3)
C38_4 C 0.6414(5) 0.0760(3) 0.3938(3)
H43_4 H 0.6345 0.0440 0.4244
H44_4 H 0.6993 0.1013 0.4213
C39_4 C 0.6730(5) 0.0520(2) 0.3309(3)
H45_4 H 0.6817 0.0838 0.3006
H46_4 H 0.6151 0.0269 0.3030
C45_4 C 0.8733(4) 0.0494(2) 0.3762(3)
N11_2 N 0.4585(4) 0.16189(17) 0.5586(2)
N2_4 N 0.9785(4) 0.19926(19) 0.8361(2)
N3_4 N 0.5151(4) 0.1798(2) 0.6745(2)
H4_4 H 0.9995 0.3015 0.9197
C5_4 C 0.9494(6) 0.0269(3) 0.8799(4)
C6_4 C 0.9068(6) 0.0428(3) 0.8093(4)
H8_4 H 0.8741 0.0146 0.7758
C7_4 C 0.9111(6) 0.0989(3) 0.7869(3)
H9_4 H 0.8820 0.1093 0.7391
C8_4 C 0.9610(4) 0.1394(2) 0.8388(3)
C9_4 C 0.9395(6) 0.2370(3) 0.7736(3)
H10_4 H 0.9939 0.2668 0.7756
H11_4 H 0.9319 0.2141 0.7309
C10_4 C 0.8313(6) 0.2657(3) 0.7682(3)
H12_4 H 0.8131 0.2920 0.7277
H13_4 H 0.8395 0.2889 0.8108
C11_4 C 0.7378(5) 0.2241(3) 0.7600(3)
H14_4 H 0.7295 0.2009 0.7174
H15_4 H 0.7557 0.1979 0.8005
C12_4 C 0.6304(6) 0.2533(3) 0.7545(4)
H16_4 H 0.6373 0.2748 0.7982
H17_4 H 0.6141 0.2810 0.7155
C13_4 C 0.5361(6) 0.2110(3) 0.7424(3)
H18_4 H 0.4706 0.2321 0.7428
H19_4 H 0.5522 0.1831 0.7812
C14_4 C 0.4137(5) 0.2598(3) 0.5982(3)
H20_4 H 0.3530 0.2601 0.5553
H21_4 H 0.3886 0.2706 0.6379
H22_4 H 0.4682 0.2870 0.5938
C15_4 C 0.4622(4) 0.2002(2) 0.6102(3)
C16_4 C 0.5146(4) 0.1130(2) 0.5935(3)
C17_4 C 0.5370(5) 0.0602(2) 0.5663(3)
H23_4 H 0.5147 0.0528 0.5175
C18_4 C 0.5932(5) 0.0194(2) 0.6140(4)
C19_4 C 0.6272(5) 0.0300(3) 0.6877(4)
H25_4 H 0.6644 0.0010 0.7185
C20_4 C 0.6068(5) 0.0822(3) 0.7155(3)
H26_4 H 0.6298 0.0896 0.7643
C21_4 C 0.5498(4) 0.1236(2) 0.6661(3)
N10_4 N 0.8694(4) 0.93036(17) 0.3893(2)
O18_4 O 0.6855(4) 0.93187(19) 0.3376(3)
C40_4 C 0.8684(4) 0.7674(2) 0.3473(3)
C41_4 C 0.8675(6) 0.8326(2) 0.3360(3)
H47_4 H 0.8035 0.8429 0.2969
H48_4 H 0.9319 0.8434 0.3225
C42_4 C 0.8662(5) 0.8667(2) 0.4015(3)
H49_4 H 0.9289 0.8557 0.4412
H50_4 H 0.8004 0.8572 0.4140
C43_4 C 0.7714(5) 0.9580(2) 0.3588(3)
C44_4 C 0.9698(5) 0.9578(2) 0.4102(3)
N1_4 N 0.0481(4) 0.17342(17) 0.9488(2)
C1_4 C 0.0633(6) 0.2786(2) 0.9220(3)
H3_4 H 0.0987 0.2938 0.8891
H5_4 H 0.1130 0.2801 0.9696
C2_4 C 0.0299(4) 0.2170(2) 0.9030(3)
C3_4 C 0.0056(5) 0.1238(2) 0.9095(3)
C4_4 C 0.0011(6) 0.0663(2) 0.9317(3)
H6_4 H 0.0316 0.0553 0.9790
H7_4 H 0.9430 0.9885 0.8929
H24_4 H 0.6092 0.9838 0.5971
loop_
_geom_bond_atom_site_label_1
_geom_bond_atom_site_label_2
_geom_bond_site_symmetry_1
_geom_bond_site_symmetry_2
Zn4 O6 1_555 1_555
Zn4 O2 1_555 1_555
Zn6 N1 1_555 1_555
N1 C2 1_555 1_555
N5 C24 1_555 1_555
N6 C30 1_555 1_555
N7 C27 1_555 1_555
O1 Zn6 1_555 1_555
O2 C22 1_555 1_555
O3 C28 1_555 1_555
O4 C28 1_555 1_555
O5 C25 1_555 1_555
O7 Zn4 1_555 1_555
O8 C34 1_555 1_555
O13 C33 1_555 1_555
O14 C31 1_555 1_555
O15 C32 1_555 1_555
O19 Zn4 1_555 1_555
H1 O19 1_555 1_555
H2 O19 1_555 1_555
C1 H3 1_555 1_555
H5 C1 1_555 1_555
C2 C1 1_555 1_555
C3 N1 1_555 1_555
C4 C3 1_555 1_555
H6 C4 1_555 1_555
C22 O1 1_555 1_555
C23 C22 1_555 1_555
H27 C23 1_555 1_555
H28 C23 1_555 1_555
C24 C23 1_555 1_555
H29 C24 1_555 1_555
H30 C24 1_555 1_555
C25 C26 1_555 1_555
C26 H31 1_555 1_555
H32 C26 1_555 1_555
C27 C26 1_555 1_555
H33 C27 1_555 1_555
H34 C27 1_555 1_555
C28 C29 1_555 1_555
C29 H35 1_555 1_555
H36 C29 1_555 1_555
C30 C29 1_555 1_555
H37 C30 1_555 1_555
H38 C30 1_555 1_555
C31 N6 1_555 1_555
C32 N5 1_555 1_555
C33 N5 1_555 1_555
C34 O7 1_555 1_555
C35 C34 1_555 1_555
H39 C35 1_555 1_555
H40 C35 1_555 1_555
C36 C35 1_555 1_555
H41 C36 1_555 1_555
H42 C36 1_555 1_555
Zn9 O8 1_555 1_555
Zn10 O4 1_555 1_555
O24 Zn4 1_555 1_555
O25 Zn6 1_555 1_555
N6 C32 1_555 1_555
N7 C31 1_555 1_555
N7 C33 1_555 1_555
Zn9 O11 1_555 1_555
N3 C13 1_555 1_555
N11 C15 1_555 1_555
N9 C39 1_555 1_555
N10 C42 1_555 1_555
O9 C40 1_555 1_555
O10 C40 1_555 1_555
O11 C37 1_555 1_555
O12 C37 1_555 1_555
O16 C45 1_555 1_555
O18 C43 1_555 1_555
H7 C5 1_555 1_555
C6 C5 1_555 1_555
H8 C6 1_555 1_555
C7 C6 1_555 1_555
H9 C7 1_555 1_555
C8 N2 1_555 1_555
C9 N2 1_555 1_555
H10 C9 1_555 1_555
H11 C9 1_555 1_555
C10 C9 1_555 1_555
H12 C10 1_555 1_555
H13 C10 1_555 1_555
C11 C10 1_555 1_555
H14 C11 1_555 1_555
H15 C11 1_555 1_555
C12 C11 1_555 1_555
H16 C12 1_555 1_555
H17 C12 1_555 1_555
C13 C12 1_555 1_555
H18 C13 1_555 1_555
H19 C13 1_555 1_555
C14 H20 1_555 1_555
H21 C14 1_555 1_555
H22 C14 1_555 1_555
C15 N3 1_555 1_555
C16 N11 1_555 1_555
C17 C16 1_555 1_555
H23 C17 1_555 1_555
C18 C17 1_555 1_555
H24 C18 1_555 1_555
C19 C18 1_555 1_555
H25 C19 1_555 1_555
C20 C19 1_555 1_555
H26 C20 1_555 1_555
C21 N3 1_555 1_555
C37 C38 1_555 1_555
C38 H43 1_555 1_555
H44 C38 1_555 1_555
C39 C38 1_555 1_555
H45 C39 1_555 1_555
H46 C39 1_555 1_555
C40 C41 1_555 1_555
C41 H47 1_555 1_555
H48 C41 1_555 1_555
C42 C41 1_555 1_555
H49 C42 1_555 1_555
H50 C42 1_555 1_555
C43 N9 1_555 1_555
C44 N8 1_555 1_555
C45 N8 1_555 1_555
Zn5 O9 1_555 1_555
Zn7 O10 1_555 1_555
O20 Zn9 1_555 1_555
N9 C45 1_555 1_555
N10 C43 1_555 1_555
N10 C44 1_555 1_555
C7 C8 1_555 1_555
C14 C15 1_555 1_555
C16 C21 1_555 1_555
C20 C21 1_555 1_555
N10_2 C42_2 1_555 1_555
O24 C40_2 1_555 1_555
O25 C40_2 1_555 1_555
O18_2 C43_2 1_555 1_555
C40_2 C41_2 1_555 1_555
C41_2 H47_2 1_555 1_555
H48_2 C41_2 1_555 1_555
C42_2 C41_2 1_555 1_555
H49_2 C42_2 1_555 1_555
H50_2 C42_2 1_555 1_555
N10_2 C43_2 1_555 1_555
N10_2 C44_2 1_555 1_555
N3_2 C13_2 1_555 1_555
N4 C15_2 1_555 1_555
C6_2 C5_2 1_555 1_555
H8_2 C6_2 1_555 1_555
C7_2 C6_2 1_555 1_555
H9_2 C7_2 1_555 1_555
C8_2 N2_2 1_555 1_555
C9_2 N2_2 1_555 1_555
H10_2 C9_2 1_555 1_555
H11_2 C9_2 1_555 1_555
C10_2 C9_2 1_555 1_555
H12_2 C10_2 1_555 1_555
H13_2 C10_2 1_555 1_555
C11_2 C10_2 1_555 1_555
H14_2 C11_2 1_555 1_555
H15_2 C11_2 1_555 1_555
C12_2 C11_2 1_555 1_555
H16_2 C12_2 1_555 1_555
H17_2 C12_2 1_555 1_555
C13_2 C12_2 1_555 1_555
H18_2 C13_2 1_555 1_555
H19_2 C13_2 1_555 1_555
C14_2 H20_2 1_555 1_555
H21_2 C14_2 1_555 1_555
H22_2 C14_2 1_555 1_555
C15_2 N3_2 1_555 1_555
C16_2 N4 1_555 1_555
C17_2 C16_2 1_555 1_555
H23_2 C17_2 1_555 1_555
C18_2 C17_2 1_555 1_555
C19_2 C18_2 1_555 1_555
H25_2 C19_2 1_555 1_555
C20_2 C19_2 1_555 1_555
H26_2 C20_2 1_555 1_555
C21_2 N3_2 1_555 1_555
Zn10 N4 1_555 1_555
C7_2 C8_2 1_555 1_555
C14_2 C15_2 1_555 1_555
C16_2 C21_2 1_555 1_555
C20_2 C21_2 1_555 1_555
Zn10 O11_2 1_555 1_555
N9_2 C39_2 1_555 1_555
O11_2 C37_2 1_555 1_555
O12_2 C37_2 1_555 1_555
O16_2 C45_2 1_555 1_555
C37_2 C38_2 1_555 1_555
C38_2 H43_2 1_555 1_555
H44_2 C38_2 1_555 1_555
C39_2 C38_2 1_555 1_555
H45_2 C39_2 1_555 1_555
H46_2 C39_2 1_555 1_555
C45_2 N8_2 1_555 1_555
O23 Zn10 1_555 1_555
N9_2 C45_2 1_555 1_555
N6_2 C30_2 1_555 1_555
O3_2 C28_2 1_555 1_555
O20 C28_2 1_555 1_555
O14_2 C31_2 1_555 1_555
O15_2 C32_2 1_555 1_555
C28_2 C29_2 1_555 1_555
C29_2 H35_2 1_555 1_555
H36_2 C29_2 1_555 1_555
C30_2 C29_2 1_555 1_555
H37_2 C30_2 1_555 1_555
H38_2 C30_2 1_555 1_555
C31_2 N6_2 1_555 1_555
N6_2 C32_2 1_555 1_555
Zn5 O2_2 1_555 1_555
N5_2 C24_2 1_555 1_555
N7_2 C27_2 1_555 1_555
O1_2 Zn7 1_555 1_555
O2_2 C22_2 1_555 1_555
O21 C25_2 1_555 1_555
O7_2 Zn5 1_555 1_555
O23 C34_2 1_555 1_555
O13_2 C33_2 1_555 1_555
O19_2 Zn5 1_555 1_555
H1_2 O19_2 1_555 1_555
H2_2 O19_2 1_555 1_555
C22_2 O1_2 1_555 1_555
C23_2 C22_2 1_555 1_555
H27_2 C23_2 1_555 1_555
H28_2 C23_2 1_555 1_555
C24_2 C23_2 1_555 1_555
H29_2 C24_2 1_555 1_555
H30_2 C24_2 1_555 1_555
C25_2 C26_2 1_555 1_555
C26_2 H31_2 1_555 1_555
H32_2 C26_2 1_555 1_555
C27_2 C26_2 1_555 1_555
H33_2 C27_2 1_555 1_555
H34_2 C27_2 1_555 1_555
C33_2 N5_2 1_555 1_555
C34_2 O7_2 1_555 1_555
C35_2 C34_2 1_555 1_555
H39_2 C35_2 1_555 1_555
H40_2 C35_2 1_555 1_555
C36_2 C35_2 1_555 1_555
H41_2 C36_2 1_555 1_555
H42_2 C36_2 1_555 1_555
O22 Zn5 1_555 1_555
N7_2 C33_2 1_555 1_555
N1_2 C2_2 1_555 1_555
C1_2 H3_2 1_555 1_555
H5_2 C1_2 1_555 1_555
C2_2 C1_2 1_555 1_555
C3_2 N1_2 1_555 1_555
C4_2 C3_2 1_555 1_555
H6_2 C4_2 1_555 1_555
Zn8 O11_3 1_555 1_555
N3_3 C13_3 1_555 1_555
N4_2 C15_3 1_555 1_555
N9_3 C39_3 1_555 1_555
N10_3 C42_3 1_555 1_555
O9_2 C40_3 1_555 1_555
O10_2 C40_3 1_555 1_555
O11_3 C37_3 1_555 1_555
O12_3 C37_3 1_555 1_555
O16_3 C45_3 1_555 1_555
O18_3 C43_3 1_555 1_555
H7_3 C5_3 1_555 1_555
C6_3 C5_3 1_555 1_555
H8_3 C6_3 1_555 1_555
C7_3 C6_3 1_555 1_555
H9_3 C7_3 1_555 1_555
C8_3 N2_3 1_555 1_555
C9_3 N2_3 1_555 1_555
H10_3 C9_3 1_555 1_555
H11_3 C9_3 1_555 1_555
C10_3 C9_3 1_555 1_555
H12_3 C10_3 1_555 1_555
H13_3 C10_3 1_555 1_555
C11_3 C10_3 1_555 1_555
H14_3 C11_3 1_555 1_555
H15_3 C11_3 1_555 1_555
C12_3 C11_3 1_555 1_555
H16_3 C12_3 1_555 1_555
H17_3 C12_3 1_555 1_555
C13_3 C12_3 1_555 1_555
H18_3 C13_3 1_555 1_555
H19_3 C13_3 1_555 1_555
C14_3 H20_3 1_555 1_555
H21_3 C14_3 1_555 1_555
H22_3 C14_3 1_555 1_555
C15_3 N3_3 1_555 1_555
C16_3 N4_2 1_555 1_555
C17_3 C16_3 1_555 1_555
H23_3 C17_3 1_555 1_555
C18_3 C17_3 1_555 1_555
H24_3 C18_3 1_555 1_555
C19_3 C18_3 1_555 1_555
H25_3 C19_3 1_555 1_555
C20_3 C19_3 1_555 1_555
H26_3 C20_3 1_555 1_555
C21_3 N3_3 1_555 1_555
C37_3 C38_3 1_555 1_555
C38_3 H43_3 1_555 1_555
H44_3 C38_3 1_555 1_555
C39_3 C38_3 1_555 1_555
H45_3 C39_3 1_555 1_555
H46_3 C39_3 1_555 1_555
C40_3 C41_3 1_555 1_555
C41_3 H47_3 1_555 1_555
H48_3 C41_3 1_555 1_555
C42_3 C41_3 1_555 1_555
H49_3 C42_3 1_555 1_555
H50_3 C42_3 1_555 1_555
C43_3 N9_3 1_555 1_555
C44_3 N8_3 1_555 1_555
C45_3 N8_3 1_555 1_555
Zn5_2 O9_2 1_555 1_555
Zn7_2 O10_2 1_555 1_555
O20_2 Zn8 1_555 1_555
O23_2 Zn8 1_555 1_555
N9_3 C45_3 1_555 1_555
N10_3 C43_3 1_555 1_555
N10_3 C44_3 1_555 1_555
C7_3 C8_3 1_555 1_555
C14_3 C15_3 1_555 1_555
C16_3 C21_3 1_555 1_555
C20_3 C21_3 1_555 1_555
Zn1 O2_3 1_555 1_555
Zn2 N1_3 1_555 1_555
N1_3 C2_3 1_555 1_555
N5_3 C24_3 1_555 1_555
N6_3 C30_3 1_555 1_555
N7_3 C27_3 1_555 1_555
O1_3 Zn2 1_555 1_555
O2_3 C22_3 1_555 1_555
O3_3 C28_3 1_555 1_555
O4_2 C28_3 1_555 1_555
O21_2 C25_3 1_555 1_555
O7_3 Zn1 1_555 1_555
O23_2 C34_3 1_555 1_555
O13_3 C33_3 1_555 1_555
O14_3 C31_3 1_555 1_555
O15_3 C32_3 1_555 1_555
O19_3 Zn1 1_555 1_555
H1_3 O19_3 1_555 1_555
H2_3 O19_3 1_555 1_555
C1_3 H3_3 1_555 1_555
H5_3 C1_3 1_555 1_555
C2_3 C1_3 1_555 1_555
C3_3 N1_3 1_555 1_555
C4_3 C3_3 1_555 1_555
H6_3 C4_3 1_555 1_555
C22_3 O1_3 1_555 1_555
C23_3 C22_3 1_555 1_555
H27_3 C23_3 1_555 1_555
H28_3 C23_3 1_555 1_555
C24_3 C23_3 1_555 1_555
H29_3 C24_3 1_555 1_555
H30_3 C24_3 1_555 1_555
C25_3 C26_3 1_555 1_555
C26_3 H31_3 1_555 1_555
H32_3 C26_3 1_555 1_555
C27_3 C26_3 1_555 1_555
H33_3 C27_3 1_555 1_555
H34_3 C27_3 1_555 1_555
C28_3 C29_3 1_555 1_555
C29_3 H35_3 1_555 1_555
H36_3 C29_3 1_555 1_555
C30_3 C29_3 1_555 1_555
H37_3 C30_3 1_555 1_555
H38_3 C30_3 1_555 1_555
C31_3 N6_3 1_555 1_555
C32_3 N5_3 1_555 1_555
C33_3 N5_3 1_555 1_555
C34_3 O7_3 1_555 1_555
C35_3 C34_3 1_555 1_555
H39_3 C35_3 1_555 1_555
H40_3 C35_3 1_555 1_555
C36_3 C35_3 1_555 1_555
H41_3 C36_3 1_555 1_555
H42_3 C36_3 1_555 1_555
Zn10_2 O4_2 1_555 1_555
O22_2 Zn1 1_555 1_555
O24_2 Zn1 1_555 1_555
O25_2 Zn2 1_555 1_555
N6_3 C32_3 1_555 1_555
N7_3 C31_3 1_555 1_555
N7_3 C33_3 1_555 1_555
Zn5_2 O6_2 1_555 1_555
Zn5_2 O2_4 1_555 1_555
N5_4 C24_4 1_555 1_555
N7_4 C27_4 1_555 1_555
O1_4 Zn7_2 1_555 1_555
O2_4 C22_4 1_555 1_555
O5_2 C25_4 1_555 1_555
O7_4 Zn5_2 1_555 1_555
O8_2 C34_4 1_555 1_555
O13_4 C33_4 1_555 1_555
O19_4 Zn5_2 1_555 1_555
H1_4 O19_4 1_555 1_555
H2_4 O19_4 1_555 1_555
C22_4 O1_4 1_555 1_555
C23_4 C22_4 1_555 1_555
H27_4 C23_4 1_555 1_555
H28_4 C23_4 1_555 1_555
C24_4 C23_4 1_555 1_555
H29_4 C24_4 1_555 1_555
H30_4 C24_4 1_555 1_555
C25_4 C26_4 1_555 1_555
C26_4 H31_4 1_555 1_555
H32_4 C26_4 1_555 1_555
C27_4 C26_4 1_555 1_555
H33_4 C27_4 1_555 1_555
H34_4 C27_4 1_555 1_555
C33_4 N5_4 1_555 1_555
C34_4 O7_4 1_555 1_555
C35_4 C34_4 1_555 1_555
H39_4 C35_4 1_555 1_555
H40_4 C35_4 1_555 1_555
C36_4 C35_4 1_555 1_555
H41_4 C36_4 1_555 1_555
H42_4 C36_4 1_555 1_555
Zn10_2 O8_2 1_555 1_555
N7_4 C33_4 1_555 1_555
N6_4 C30_4 1_555 1_555
O3_4 C28_4 1_555 1_555
O20_2 C28_4 1_555 1_555
O14_4 C31_4 1_555 1_555
O15_4 C32_4 1_555 1_555
C28_4 C29_4 1_555 1_555
C29_4 H35_4 1_555 1_555
H36_4 C29_4 1_555 1_555
C30_4 C29_4 1_555 1_555
H37_4 C30_4 1_555 1_555
H38_4 C30_4 1_555 1_555
C31_4 N6_4 1_555 1_555
N6_4 C32_4 1_555 1_555
Zn10_2 O11_4 1_555 1_555
N9_4 C39_4 1_555 1_555
O11_4 C37_4 1_555 1_555
O12_4 C37_4 1_555 1_555
O16_4 C45_4 1_555 1_555
C37_4 C38_4 1_555 1_555
C38_4 H43_4 1_555 1_555
H44_4 C38_4 1_555 1_555
C39_4 C38_4 1_555 1_555
H45_4 C39_4 1_555 1_555
H46_4 C39_4 1_555 1_555
C45_4 N8_4 1_555 1_555
N11_2 Zn10_2 1_555 1_555
N9_4 C45_4 1_555 1_555
N3_4 C13_4 1_555 1_555
N11_2 C15_4 1_555 1_555
C6_4 C5_4 1_555 1_555
H8_4 C6_4 1_555 1_555
C7_4 C6_4 1_555 1_555
H9_4 C7_4 1_555 1_555
C8_4 N2_4 1_555 1_555
C9_4 N2_4 1_555 1_555
H10_4 C9_4 1_555 1_555
H11_4 C9_4 1_555 1_555
C10_4 C9_4 1_555 1_555
H12_4 C10_4 1_555 1_555
H13_4 C10_4 1_555 1_555
C11_4 C10_4 1_555 1_555
H14_4 C11_4 1_555 1_555
H15_4 C11_4 1_555 1_555
C12_4 C11_4 1_555 1_555
H16_4 C12_4 1_555 1_555
H17_4 C12_4 1_555 1_555
C13_4 C12_4 1_555 1_555
H18_4 C13_4 1_555 1_555
H19_4 C13_4 1_555 1_555
C14_4 H20_4 1_555 1_555
H21_4 C14_4 1_555 1_555
H22_4 C14_4 1_555 1_555
C15_4 N3_4 1_555 1_555
C16_4 N11_2 1_555 1_555
C17_4 C16_4 1_555 1_555
H23_4 C17_4 1_555 1_555
C18_4 C17_4 1_555 1_555
C19_4 C18_4 1_555 1_555
H25_4 C19_4 1_555 1_555
C20_4 C19_4 1_555 1_555
H26_4 C20_4 1_555 1_555
C21_4 N3_4 1_555 1_555
C7_4 C8_4 1_555 1_555
C14_4 C15_4 1_555 1_555
C16_4 C21_4 1_555 1_555
C20_4 C21_4 1_555 1_555
N10_4 C42_4 1_555 1_555
O24_2 C40_4 1_555 1_555
O25_2 C40_4 1_555 1_555
O18_4 C43_4 1_555 1_555
C40_4 C41_4 1_555 1_555
C41_4 H47_4 1_555 1_555
H48_4 C41_4 1_555 1_555
C42_4 C41_4 1_555 1_555
H49_4 C42_4 1_555 1_555
H50_4 C42_4 1_555 1_555
N10_4 C43_4 1_555 1_555
N10_4 C44_4 1_555 1_555
N1_4 C2_4 1_555 1_555
C1_4 H3_4 1_555 1_555
H5_4 C1_4 1_555 1_555
C2_4 C1_4 1_555 1_555
C3_4 N1_4 1_555 1_555
C4_4 C3_4 1_555 1_555
H6_4 C4_4 1_555 1_555

#END
