
###############################################################################
#
# This file contains modified crystal structure data generated from the
# MOF subset of the Cambridge Structural Database (CSD) v543 
# hosted by the Cambridge Crystallographic Data Centre (CCDC).
#
# This work is licensed under the Creative Commons
# Attribution-NonCommercial-ShareAlike 4.0 International License.
# To view a copy of this license, visit
# http://creativecommons.org/licenses/by-nc-sa/4.0/
# or send a letter to
# Creative Commons, PO Box 1866, Mountain View, CA 94042, USA.
#
# CIF created using the CSD Python API on 29 September 2022
# The structure has been converted into the P1 space group
# The structure has a 3D framework
# The original CSD entry LIXZAW is in the triclinic crystal system
# The framework has been calculated to contain at least 10.0% void space
# The void calculation uses a probe of radius 1.32A, grid spacing 0.4
#
###############################################################################

data_LIXZAW
_chemical_formula_moiety         '(C120 H88 Co4 N12 O14)n'
_symmetry_cell_setting           triclinic
_symmetry_space_group_name_H-M   'P 1'
_symmetry_Int_Tables_number      1
_space_group_name_Hall           'P 1'
loop_
_symmetry_equiv_pos_site_id
_symmetry_equiv_pos_as_xyz
1 x,y,z
_cell_length_a                   10.8175(5)
_cell_length_b                   13.0914(6)
_cell_length_c                   22.9369(10)
_cell_angle_alpha                96.939(2)
_cell_angle_beta                 99.947(2)
_cell_angle_gamma                100.570(2)
_cell_volume                     3105.87
loop_
_atom_site_label
_atom_site_type_symbol
_atom_site_fract_x
_atom_site_fract_y
_atom_site_fract_z
_atom_site_U_iso_or_equiv
_atom_site_thermal_displace_type
H16 H 0.0198 0.0308 0.3582 0.0430 Uiso
O13 O 0.6935(2) 0.35886(16) 0.72611(10) 0.0399 Uani
O14 O 0.5679(2) 0.47177(15) 0.70722(10) 0.0405 Uani
N8 N 0.1642(2) 0.04031(18) 0.66170(10) 0.0281 Uani
C79 C 0.3767(3) 0.1112(2) 0.69370(12) 0.0260 Uani
C80 C 0.4847(3) 0.1927(2) 0.70725(12) 0.0267 Uani
H55 H 0.5653 0.1795 0.7212 0.0320 Uiso
C83 C 0.4708(3) 0.2936(2) 0.69968(12) 0.0258 Uani
C84 C 0.2561(3) 0.1325(2) 0.67309(12) 0.0271 Uani
C86 C 0.3493(3) 0.3129(2) 0.67864(13) 0.0322 Uani
H56 H 0.3419 0.3809 0.6732 0.0390 Uiso
C91 C 0.2393(3) 0.2336(2) 0.66559(13) 0.0334 Uani
H60 H 0.1586 0.2473 0.6525 0.0400 Uiso
C92 C 0.5861(3) 0.3816(2) 0.71233(12) 0.0274 Uani
C94 C 0.0173(3) 0.0143(2) 0.56275(13) 0.0311 Uani
C96 C 0.0330(3) 0.0292(2) 0.63080(13) 0.0355 Uani
H64 H 0.0020 0.0913 0.6439 0.0430 Uiso
Co11 Co 0.87821(4) 0.41536(3) 0.76600(2) 0.0266 Uani
Co14 Co 0.62834(4) 0.62703(3) 0.73508(2) 0.0255 Uani
C20 C 0.0995(3) 0.9840(3) 0.47194(14) 0.0373 Uani
H7 H 0.1675 0.9738 0.4537 0.0450 Uiso
O15 O 0.4377(2) 0.65221(16) 0.69172(9) 0.0395 Uani
O16 O 0.5868(2) 0.78362(16) 0.74309(9) 0.0367 Uani
C81 C 0.2252(3) 0.9578(2) 0.67277(12) 0.0264 Uani
C82 C 0.3577(3) 0.9990(2) 0.69355(12) 0.0261 Uani
C85 C 0.4753(3) 0.7494(2) 0.71220(13) 0.0312 Uani
C87 C 0.4378(3) 0.9303(2) 0.70790(12) 0.0276 Uani
H57 H 0.5248 0.9562 0.7234 0.0330 Uiso
C88 C 0.3879(3) 0.8232(2) 0.69910(12) 0.0284 Uani
C90 C 0.1730(3) 0.8502(2) 0.66418(13) 0.0345 Uani
H59 H 0.0855 0.8241 0.6502 0.0410 Uiso
C93 C 0.2558(3) 0.7844(2) 0.67712(13) 0.0339 Uani
H61 H 0.2236 0.7122 0.6712 0.0410 Uiso
C95 C 0.1164(3) 0.9975(3) 0.53401(14) 0.0419 Uani
H62 H 0.1955 0.9952 0.5567 0.0500 Uiso
N5 N 0.8229(3) 0.4351(2) 0.85166(11) 0.0436 Uani
C39 C 0.8858(4) 0.5069(3) 0.89794(16) 0.0602 Uani
H23 H 0.9589 0.5519 0.8928 0.0720 Uiso
C46 C 0.8521(4) 0.5205(3) 0.95281(16) 0.0677 Uani
H28 H 0.9040 0.5705 0.9838 0.0810 Uiso
C53 C 0.7428(4) 0.4606(4) 0.96162(17) 0.0696 Uani
C58 C 0.7172(5) 0.3770(4) 0.86061(19) 0.1130 Uani
H41 H 0.6677 0.3263 0.8293 0.1360 Uiso
C60 C 0.6770(6) 0.3874(5) 0.9135(2) 0.1276 Uani
H44 H 0.6019 0.3431 0.9171 0.1530 Uiso
N6 N 0.9331(3) 0.3937(2) 0.68026(11) 0.0401 Uani
C1 C 0.8762(3) 0.0681(2) 0.18848(12) 0.0257 Uani
C3 C 0.9858(3) 0.1487(2) 0.20373(12) 0.0260 Uani
C5 C 0.9701(3) 0.2510(2) 0.20043(12) 0.0276 Uani
C6 C 0.7560(3) 0.0909(2) 0.16953(12) 0.0271 Uani
C15 C 0.8476(3) 0.2713(2) 0.18272(13) 0.0321 Uani
H4 H 0.8394 0.3407 0.1823 0.0380 Uiso
C26 C 0.7391(3) 0.1927(2) 0.16598(13) 0.0343 Uani
H11 H 0.6586 0.2069 0.1530 0.0410 Uiso
H19 H 0.4980 0.0467 0.1473 0.0460 Uiso
C44 C 0.8668(4) 0.3152(3) 0.63681(15) 0.0553 Uani
H27 H 0.7972 0.2701 0.6451 0.0660 Uiso
C51 C 0.9922(5) 0.3618(4) 0.56701(19) 0.0752 Uani
C54 C 0.8950(5) 0.2976(4) 0.58165(18) 0.0740 Uani
H35 H 0.8466 0.2406 0.5538 0.0890 Uiso
H39 H 0.9499 0.2963 0.4778 0.1220 Uiso
C77 C 0.4300(4) 0.0472(3) 0.03387(16) 0.0628 Uani
H53 H 0.3805 0.0802 0.0563 0.0750 Uiso
O23 O 0.9280(2) 0.60635(16) 0.19176(11) 0.0458 Uani
N1 N 0.6635(2) 0.99815(18) 0.15680(10) 0.0309 Uani
C11 C 0.8554(3) 0.9547(2) 0.18642(12) 0.0255 Uani
C13 C 0.7240(3) 0.9154(2) 0.16639(12) 0.0286 Uani
C18 C 0.9360(3) 0.8865(2) 0.19901(12) 0.0306 Uani
C24 C 0.8853(3) 0.7793(2) 0.19082(13) 0.0321 Uani
C27 C 0.6716(3) 0.8090(2) 0.15896(14) 0.0379 Uani
H12 H 0.5838 0.7833 0.1463 0.0460 Uiso
C28 C 0.5151(3) 0.9949(2) 0.06144(13) 0.0347 Uani
C29 C 0.9713(3) 0.7037(2) 0.20259(14) 0.0355 Uani
C32 C 0.7545(3) 0.7427(2) 0.17094(14) 0.0402 Uani
H14 H 0.7214 0.6707 0.1655 0.0480 Uiso
C36 C 0.5306(3) 0.9899(3) 0.12814(14) 0.0384 Uani
H20 H 0.4799 0.9240 0.1338 0.0460 Uiso
C50 C 0.5844(4) 0.9476(4) 0.02610(17) 0.0695 Uani
H33 H 0.6432 0.9108 0.0433 0.0830 Uiso
O12 O 0.9107(2) 0.26086(16) 0.77530(10) 0.0404 Uani
H47 H 0.9764 0.0878 0.7871 0.0370 Uiso
O9 O 0.80713(19) 0.68033(15) 0.78417(9) 0.0360 Uani
O11 O 0.9363(2) 0.56956(16) 0.77011(10) 0.0437 Uani
H45 H 0.9334 0.8656 0.7843 0.0310 Uiso
C68 C 0.9153(3) 0.6593(2) 0.78327(12) 0.0258 Uani
N9 N 0.5506(2) 0.60881(18) 0.81365(10) 0.0307 Uani
N10 N 0.7060(2) 0.6504(2) 0.65699(11) 0.0358 Uani
C97 C 0.4313(3) 0.5549(2) 0.80940(14) 0.0363 Uani
H65 H 0.3888 0.5152 0.7726 0.0430 Uiso
C98 C 0.3681(3) 0.5547(3) 0.85607(16) 0.0451 Uani
H66 H 0.2846 0.5160 0.8507 0.0540 Uiso
C99 C 0.6101(3) 0.6628(3) 0.86739(14) 0.0463 Uani
H67 H 0.6942 0.6997 0.8719 0.0550 Uiso
C100 C 0.7365(3) 0.7437(3) 0.64048(15) 0.0476 Uani
H68 H 0.7220 0.8017 0.6639 0.0570 Uiso
C102 C 0.7328(4) 0.5714(3) 0.62291(18) 0.0681 Uani
H70 H 0.7153 0.5046 0.6334 0.0810 Uiso
C103 C 0.7884(4) 0.7605(3) 0.59069(15) 0.0501 Uani
H71 H 0.8070 0.8281 0.5814 0.0600 Uiso
C104 C 0.8122(4) 0.6794(3) 0.55571(16) 0.0523 Uani
C106 C 0.4287(4) 0.6122(3) 0.91094(16) 0.0567 Uani
C108 C 0.9677(4) 0.5438(3) 0.33240(18) 0.0565 Uani
H74 H 0.9188 0.4890 0.3032 0.0680 Uiso
C109 C 0.5531(4) 0.6664(3) 0.91616(16) 0.0608 Uani
H75 H 0.5980 0.7053 0.9527 0.0730 Uiso
C110 C 0.8610(5) 0.6917(3) 0.49779(19) 0.0739 Uani
H76 H 0.8759 0.7654 0.4934 0.0880 Uiso
H77 H 0.7952 0.6534 0.4641 0.0880 Uiso
C112 C 0.9343(5) 0.5585(4) 0.3891(2) 0.0758 Uani
H78 H 0.8631 0.5147 0.3969 0.0910 Uiso
C115 C 0.7849(5) 0.5827(3) 0.5730(2) 0.0831 Uani
H80 H 0.8017 0.5243 0.5508 0.1000 Uiso
C116 C 0.3007(5) 0.5246(4) 0.97972(18) 0.0878 Uani
H81 H 0.2275 0.4897 0.9485 0.1050 Uiso
H82 H 0.3621 0.4790 0.9825 0.1050 Uiso
C117 C 0.9790(5) 0.6537(5) 0.4960(2) 0.1014 Uani
H84 H 0.9723 0.5873 0.5112 0.1220 Uiso
C119 C 0.3581(6) 0.6205(4) 0.9632(2) 0.1012 Uani
H86 H 0.2915 0.6596 0.9530 0.1220 Uiso
H87 H 0.4185 0.6616 0.9980 0.1220 Uiso
O4 O 0.5623(2) 0.34779(16) 0.30828(9) 0.0395 Uani
O5 O 0.4132(2) 0.21638(16) 0.25691(9) 0.0367 Uani
C7 C 0.7748(3) 0.0422(2) 0.32723(12) 0.0264 Uani
C8 C 0.6423(3) 0.0010(2) 0.30645(12) 0.0261 Uani
C12 C 0.5247(3) 0.2506(2) 0.28780(13) 0.0312 Uani
C17 C 0.5622(3) 0.0697(2) 0.29210(12) 0.0276 Uani
H5 H 0.4752 0.0438 0.2766 0.0330 Uiso
C19 C 0.6121(3) 0.1768(2) 0.30090(12) 0.0284 Uani
C21 C 0.8270(3) 0.1498(2) 0.33582(13) 0.0345 Uani
H8 H 0.9145 0.1759 0.3498 0.0410 Uiso
C30 C 0.7442(3) 0.2156(2) 0.32288(13) 0.0339 Uani
H13 H 0.7764 0.2878 0.3288 0.0410 Uiso
C33 C 0.8836(3) 0.0025(3) 0.46599(14) 0.0419 Uani
H15 H 0.8045 0.0048 0.4433 0.0500 Uiso
C89 C 0.9005(3) 0.0160(3) 0.52806(14) 0.0373 Uani
H58 H 0.8325 0.0262 0.5463 0.0450 Uiso
Co12 Co 0.37166(4) 0.37297(3) 0.26492(2) 0.0255 Uani
Co1 Co 0.12179(4) 0.58464(3) 0.23400(2) 0.0266 Uani
O1 O 0.19287(19) 0.31967(15) 0.21583(9) 0.0360 Uani
O2 O 0.3065(2) 0.64114(16) 0.27389(10) 0.0399 Uani
O3 O 0.4321(2) 0.52823(15) 0.29278(10) 0.0405 Uani
O7 O 0.0637(2) 0.43044(16) 0.22989(10) 0.0437 Uani
N2 N 0.8358(2) 0.95969(18) 0.33830(10) 0.0281 Uani
N3 N 0.4494(2) 0.39119(18) 0.18635(10) 0.0307 Uani
N4 N 0.2940(2) 0.3496(2) 0.34301(11) 0.0358 Uani
C2 C 0.6233(3) 0.8888(2) 0.30630(12) 0.0260 Uani
H1 H 0.0666 0.1344 0.2157 0.0310 Uiso
C4 C 0.5153(3) 0.8073(2) 0.29275(12) 0.0267 Uani
H2 H 0.4347 0.8205 0.2788 0.0320 Uiso
C9 C 0.5292(3) 0.7064(2) 0.30032(12) 0.0258 Uani
C10 C 0.7439(3) 0.8675(2) 0.32691(12) 0.0271 Uani
C14 C 0.6507(3) 0.6871(2) 0.32136(13) 0.0322 Uani
H3 H 0.6581 0.6191 0.3268 0.0390 Uiso
C16 C 0.0847(3) 0.3407(2) 0.21673(12) 0.0258 Uani
C22 C 0.5687(3) 0.4451(2) 0.19060(14) 0.0363 Uani
H9 H 0.6112 0.4848 0.2274 0.0430 Uiso
C23 C 0.7607(3) 0.7664(2) 0.33441(13) 0.0334 Uani
H10 H 0.8414 0.7527 0.3475 0.0400 Uiso
C25 C 0.4139(3) 0.6184(2) 0.28767(12) 0.0274 Uani
C31 C 0.9827(3) 0.9857(2) 0.43725(13) 0.0311 Uani
C34 C 0.9670(3) 0.9708(2) 0.36920(13) 0.0355 Uani
H17 H 0.9980 0.9087 0.3561 0.0430 Uiso
C35 C 0.6319(3) 0.4453(3) 0.14393(16) 0.0451 Uani
H18 H 0.7154 0.4840 0.1493 0.0540 Uiso
C37 C 0.3899(3) 0.3372(3) 0.13261(14) 0.0463 Uani
H21 H 0.3058 0.3003 0.1281 0.0550 Uiso
C38 C 0.2635(3) 0.2563(3) 0.35952(15) 0.0476 Uani
H22 H 0.2780 0.1983 0.3361 0.0570 Uiso
C41 C 0.2672(4) 0.4286(3) 0.37709(18) 0.0681 Uani
H25 H 0.2847 0.4954 0.3666 0.0810 Uiso
C42 C 0.2116(4) 0.2395(3) 0.40931(15) 0.0501 Uani
H26 H 0.1930 0.1719 0.4186 0.0600 Uiso
C43 C 0.1878(4) 0.3206(3) 0.44429(16) 0.0523 Uani
C45 C 0.5713(4) 0.3878(3) 0.08906(16) 0.0567 Uani
C47 C 0.0323(4) 0.4562(3) 0.66760(18) 0.0565 Uani
H29 H 0.0812 0.5110 0.6968 0.0680 Uiso
C48 C 0.4469(4) 0.3336(3) 0.08384(16) 0.0608 Uani
H30 H 0.4020 0.2947 0.0473 0.0730 Uiso
C49 C 0.1390(5) 0.3083(3) 0.50221(19) 0.0739 Uani
H31 H 0.1241 0.2346 0.5066 0.0880 Uiso
H32 H 0.2048 0.3466 0.5359 0.0880 Uiso
C52 C 0.0657(5) 0.4415(4) 0.6109(2) 0.0758 Uani
H34 H 0.1369 0.4853 0.6031 0.0910 Uiso
C55 C 0.2151(5) 0.4173(3) 0.4270(2) 0.0831 Uani
H36 H 0.1983 0.4757 0.4492 0.1000 Uiso
C56 C 0.6993(5) 0.4754(4) 0.02028(18) 0.0878 Uani
H37 H 0.7725 0.5103 0.0515 0.1050 Uiso
H38 H 0.6379 0.5210 0.0175 0.1050 Uiso
C57 C 0.0210(5) 0.3463(5) 0.5040(2) 0.1014 Uani
H40 H 0.0277 0.4127 0.4888 0.1220 Uiso
C59 C 0.6419(6) 0.3795(4) 0.0368(2) 0.1012 Uani
H42 H 0.7085 0.3404 0.0470 0.1220 Uiso
H43 H 0.5815 0.3384 0.0020 0.1220 Uiso
H63 H 0.9802 0.9692 0.6418 0.0430 Uiso
O25 O 0.0893(2) 0.73914(16) 0.22470(10) 0.0404 Uani
N14 N 0.1771(3) 0.5649(2) 0.14834(11) 0.0436 Uani
N16 N 0.0669(3) 0.6063(2) 0.31974(11) 0.0401 Uani
H6 H 0.0236 0.9122 0.2129 0.0370 Uiso
O10 O 0.0720(2) 0.39365(16) 0.80824(11) 0.0458 Uani
N7 N 0.3365(2) 0.00185(18) 0.84320(10) 0.0309 Uani
C65 C 0.1446(3) 0.0453(2) 0.81358(12) 0.0255 Uani
C66 C 0.2760(3) 0.0846(2) 0.83361(12) 0.0286 Uani
C69 C 0.0640(3) 0.1135(2) 0.80099(12) 0.0306 Uani
C70 C 0.1147(3) 0.2207(2) 0.80918(13) 0.0321 Uani
C72 C 0.3284(3) 0.1910(2) 0.84104(14) 0.0379 Uani
H49 H 0.4162 0.2167 0.8537 0.0460 Uiso
C73 C 0.4849(3) 0.0051(2) 0.93856(13) 0.0347 Uani
C74 C 0.0287(3) 0.2963(2) 0.79741(14) 0.0355 Uani
C75 C 0.2455(3) 0.2573(2) 0.82906(14) 0.0402 Uani
H50 H 0.2786 0.3293 0.8345 0.0480 Uiso
C76 C 0.4694(3) 0.0101(3) 0.87186(14) 0.0384 Uani
H52 H 0.5201 0.0760 0.8662 0.0460 Uiso
C78 C 0.4156(4) 0.0524(4) 0.97390(17) 0.0695 Uani
H54 H 0.3568 0.0892 0.9567 0.0830 Uiso
C40 C 0.5700(4) 0.9528(3) 0.96613(16) 0.0628 Uani
H24 H 0.6195 0.9198 0.9437 0.0750 Uiso
C61 C 0.1238(3) 0.9319(2) 0.81152(12) 0.0257 Uani
C62 C 0.0142(3) 0.8513(2) 0.79627(12) 0.0260 Uani
C63 C 0.0299(3) 0.7490(2) 0.79957(12) 0.0276 Uani
C64 C 0.2440(3) 0.9091(2) 0.83047(12) 0.0271 Uani
C67 C 0.1524(3) 0.7287(2) 0.81728(13) 0.0321 Uani
H46 H 0.1606 0.6593 0.8177 0.0380 Uiso
C71 C 0.2609(3) 0.8073(2) 0.83402(13) 0.0343 Uani
H48 H 0.3414 0.7931 0.8470 0.0410 Uiso
H51 H 0.5020 0.9533 0.8527 0.0460 Uiso
C105 C 0.1332(4) 0.6848(3) 0.36319(15) 0.0553 Uani
H72 H 0.2028 0.7299 0.3549 0.0660 Uiso
C111 C 0.0078(5) 0.6382(4) 0.43299(19) 0.0752 Uani
C114 C 0.1050(5) 0.7024(4) 0.41835(18) 0.0740 Uani
H79 H 0.1534 0.7594 0.4462 0.0890 Uiso
H83 H 0.0501 0.7037 0.5222 0.1220 Uiso
C101 C 0.1142(4) 0.4931(3) 0.10206(16) 0.0602 Uani
H69 H 0.0411 0.4481 0.1072 0.0720 Uiso
C107 C 0.1479(4) 0.4795(3) 0.04719(16) 0.0677 Uani
H73 H 0.0960 0.4295 0.0162 0.0810 Uiso
C113 C 0.2572(4) 0.5394(4) 0.03838(17) 0.0696 Uani
C118 C 0.2828(5) 0.6230(4) 0.13939(19) 0.1130 Uani
H85 H 0.3323 0.6737 0.1707 0.1360 Uiso
C120 C 0.3230(6) 0.6126(5) 0.0865(2) 0.1276 Uani
H88 H 0.3981 0.6569 0.0829 0.1530 Uiso
loop_
_atom_site_aniso_label
_atom_site_aniso_U_11
_atom_site_aniso_U_22
_atom_site_aniso_U_33
_atom_site_aniso_U_23
_atom_site_aniso_U_13
_atom_site_aniso_U_12
O13 0.0293 0.0305 0.0586 0.0054 0.0098 0.0029
O14 0.0463 0.0192 0.0547 0.0046 0.0092 0.0055
N8 0.0239 0.0246 0.0334 0.0049 -0.0017 0.006
C79 0.0285 0.021 0.0283 0.0053 0.0019 0.007
C80 0.0276 0.0242 0.0289 0.0047 0.0041 0.0077
C83 0.0299 0.0214 0.0267 0.0044 0.007 0.0053
C84 0.0267 0.0266 0.0269 0.0042 0.0019 0.0063
C86 0.0411 0.0201 0.0375 0.0073 0.007 0.0111
C91 0.0335 0.0273 0.0414 0.0079 0.0023 0.015
C92 0.0364 0.0207 0.0256 0.0003 0.011 0.005
C94 0.0302 0.0257 0.0369 0.0078 0.0015 0.0075
C96 0.0307 0.0365 0.0385 0.0045 0.0055 0.0073
Co11 0.0304 0.0181 0.0343 0.00578 0.01297 0.00537
Co14 0.0285 0.0193 0.0319 0.00675 0.0112 0.00647
C20 0.0272 0.0469 0.0408 0.0088 0.0067 0.0141
O15 0.0532 0.0222 0.0451 0.0045 0.0088 0.0147
O16 0.0358 0.0302 0.0468 0.0093 0.0074 0.0124
C81 0.0253 0.0266 0.0253 0.005 -0.0007 0.0053
C82 0.033 0.0199 0.0256 0.0047 0.005 0.0062
C85 0.043 0.0252 0.0325 0.0103 0.0162 0.013
C87 0.0268 0.0263 0.0303 0.006 0.0051 0.007
C88 0.036 0.0257 0.0265 0.0066 0.0091 0.0096
C90 0.0292 0.0298 0.0406 0.0062 0.0017 0.001
C93 0.041 0.0184 0.0399 0.006 0.0069 0.0006
C95 0.0271 0.051 0.0427 0.006 -0.005 0.0079
N5 0.049 0.0437 0.0374 0.0044 0.016 0.0024
C39 0.055 0.072 0.046 0.0003 0.0215 -0.011
C46 0.068 0.079 0.044 -0.007 0.022 -0.015
C53 0.07 0.087 0.042 0 0.024 -0.014
C58 0.126 0.129 0.046 -0.018 0.043 -0.074
C60 0.13 0.15 0.065 -0.014 0.055 -0.08
N6 0.0541 0.0362 0.0414 0.0131 0.0258 0.019
C1 0.0275 0.023 0.0278 0.0052 0.0059 0.0073
C3 0.0234 0.0241 0.0306 0.0029 0.0049 0.0068
C5 0.0335 0.0214 0.0314 0.005 0.012 0.0086
C6 0.0232 0.028 0.0298 0.006 0.0045 0.0041
C15 0.0316 0.0263 0.0429 0.009 0.008 0.0149
C26 0.0257 0.0381 0.0425 0.0113 0.0042 0.0143
C44 0.078 0.051 0.044 0.0019 0.026 0.022
C51 0.112 0.084 0.058 0.023 0.045 0.059
C54 0.114 0.076 0.045 0.005 0.032 0.041
C77 0.064 0.095 0.045 0.013 0.0132 0.053
O23 0.046 0.022 0.0692 0.0092 0.008 0.0089
N1 0.0283 0.0277 0.0339 0.0042 0.0005 0.0045
C11 0.0256 0.0226 0.0276 0.0047 0.0022 0.006
C13 0.0304 0.0266 0.0289 0.0059 0.0033 0.0079
C18 0.0299 0.0268 0.034 0.005 0.0038 0.0054
C24 0.0365 0.0233 0.0374 0.0085 0.0041 0.0091
C27 0.0298 0.0286 0.0481 0.0025 -0.0015 -0.0016
C28 0.0242 0.0344 0.0391 -0.0006 -0.0017 0.0013
C29 0.04 0.029 0.0404 0.0119 0.0107 0.0076
C32 0.043 0.0241 0.0509 0.006 0.0073 0.002
C36 0.0242 0.0445 0.044 0.0086 0.0003 0.0059
C50 0.073 0.104 0.048 0.019 0.007 0.061
O12 0.0389 0.0262 0.0595 0.0154 0.0101 0.0098
O9 0.028 0.0291 0.0484 -0.0011 0.01 0.0018
O11 0.0438 0.0198 0.0699 0.0051 0.0222 0.0035
C68 0.0302 0.0219 0.026 0.0045 0.01 0.0024
N9 0.0328 0.0273 0.0343 0.009 0.0094 0.0072
N10 0.0426 0.0314 0.0372 0.0062 0.016 0.0091
C97 0.0389 0.0296 0.0403 0.0052 0.0119 0.0036
C98 0.049 0.0318 0.067 0.0167 0.0343 0.0131
C99 0.046 0.05 0.0404 0.006 0.0095 0.0037
C100 0.07 0.0284 0.048 0.0052 0.0319 0.0013
C102 0.112 0.042 0.078 0.027 0.065 0.032
C103 0.072 0.0356 0.047 0.0089 0.0307 0.0033
C104 0.071 0.045 0.051 0.0123 0.0355 0.0125
C106 0.091 0.047 0.044 0.0111 0.041 0.016
C108 0.069 0.047 0.072 0.0206 0.049 0.019
C109 0.081 0.06 0.037 0.001 0.018 0.002
C110 0.105 0.068 0.07 0.026 0.054 0.028
C112 0.092 0.07 0.099 0.05 0.068 0.033
C115 0.144 0.046 0.087 0.013 0.08 0.035
C116 0.094 0.112 0.053 0.004 0.044 -0.011
C117 0.114 0.158 0.07 0.049 0.05 0.075
C119 0.161 0.08 0.088 0.018 0.091 0.025
O4 0.0532 0.0222 0.0451 0.0045 0.0088 0.0147
O5 0.0358 0.0302 0.0468 0.0093 0.0074 0.0124
C7 0.0253 0.0266 0.0253 0.005 -0.0007 0.0053
C8 0.033 0.0199 0.0256 0.0047 0.005 0.0062
C12 0.043 0.0252 0.0325 0.0103 0.0162 0.013
C17 0.0268 0.0263 0.0303 0.006 0.0051 0.007
C19 0.036 0.0257 0.0265 0.0066 0.0091 0.0096
C21 0.0292 0.0298 0.0406 0.0062 0.0017 0.001
C30 0.041 0.0184 0.0399 0.006 0.0069 0.0006
C33 0.0271 0.051 0.0427 0.006 -0.005 0.0079
C89 0.0272 0.0469 0.0408 0.0088 0.0067 0.0141
Co12 0.0285 0.0193 0.0319 0.00675 0.0112 0.00647
Co1 0.0304 0.0181 0.0343 0.00578 0.01297 0.00537
O1 0.028 0.0291 0.0484 -0.0011 0.01 0.0018
O2 0.0293 0.0305 0.0586 0.0054 0.0098 0.0029
O3 0.0463 0.0192 0.0547 0.0046 0.0092 0.0055
O7 0.0438 0.0198 0.0699 0.0051 0.0222 0.0035
N2 0.0239 0.0246 0.0334 0.0049 -0.0017 0.006
N3 0.0328 0.0273 0.0343 0.009 0.0094 0.0072
N4 0.0426 0.0314 0.0372 0.0062 0.016 0.0091
C2 0.0285 0.021 0.0283 0.0053 0.0019 0.007
C4 0.0276 0.0242 0.0289 0.0047 0.0041 0.0077
C9 0.0299 0.0214 0.0267 0.0044 0.007 0.0053
C10 0.0267 0.0266 0.0269 0.0042 0.0019 0.0063
C14 0.0411 0.0201 0.0375 0.0073 0.007 0.0111
C16 0.0302 0.0219 0.026 0.0045 0.01 0.0024
C22 0.0389 0.0296 0.0403 0.0052 0.0119 0.0036
C23 0.0335 0.0273 0.0414 0.0079 0.0023 0.015
C25 0.0364 0.0207 0.0256 0.0003 0.011 0.005
C31 0.0302 0.0257 0.0369 0.0078 0.0015 0.0075
C34 0.0307 0.0365 0.0385 0.0045 0.0055 0.0073
C35 0.049 0.0318 0.067 0.0167 0.0343 0.0131
C37 0.046 0.05 0.0404 0.006 0.0095 0.0037
C38 0.07 0.0284 0.048 0.0052 0.0319 0.0013
C41 0.112 0.042 0.078 0.027 0.065 0.032
C42 0.072 0.0356 0.047 0.0089 0.0307 0.0033
C43 0.071 0.045 0.051 0.0123 0.0355 0.0125
C45 0.091 0.047 0.044 0.0111 0.041 0.016
C47 0.069 0.047 0.072 0.0206 0.049 0.019
C48 0.081 0.06 0.037 0.001 0.018 0.002
C49 0.105 0.068 0.07 0.026 0.054 0.028
C52 0.092 0.07 0.099 0.05 0.068 0.033
C55 0.144 0.046 0.087 0.013 0.08 0.035
C56 0.094 0.112 0.053 0.004 0.044 -0.011
C57 0.114 0.158 0.07 0.049 0.05 0.075
C59 0.161 0.08 0.088 0.018 0.091 0.025
O25 0.0389 0.0262 0.0595 0.0154 0.0101 0.0098
N14 0.049 0.0437 0.0374 0.0044 0.016 0.0024
N16 0.0541 0.0362 0.0414 0.0131 0.0258 0.019
O10 0.046 0.022 0.0692 0.0092 0.008 0.0089
N7 0.0283 0.0277 0.0339 0.0042 0.0005 0.0045
C65 0.0256 0.0226 0.0276 0.0047 0.0022 0.006
C66 0.0304 0.0266 0.0289 0.0059 0.0033 0.0079
C69 0.0299 0.0268 0.034 0.005 0.0038 0.0054
C70 0.0365 0.0233 0.0374 0.0085 0.0041 0.0091
C72 0.0298 0.0286 0.0481 0.0025 -0.0015 -0.0016
C73 0.0242 0.0344 0.0391 -0.0006 -0.0017 0.0013
C74 0.04 0.029 0.0404 0.0119 0.0107 0.0076
C75 0.043 0.0241 0.0509 0.006 0.0073 0.002
C76 0.0242 0.0445 0.044 0.0086 0.0003 0.0059
C78 0.073 0.104 0.048 0.019 0.007 0.061
C40 0.064 0.095 0.045 0.013 0.0132 0.053
C61 0.0275 0.023 0.0278 0.0052 0.0059 0.0073
C62 0.0234 0.0241 0.0306 0.0029 0.0049 0.0068
C63 0.0335 0.0214 0.0314 0.005 0.012 0.0086
C64 0.0232 0.028 0.0298 0.006 0.0045 0.0041
C67 0.0316 0.0263 0.0429 0.009 0.008 0.0149
C71 0.0257 0.0381 0.0425 0.0113 0.0042 0.0143
C105 0.078 0.051 0.044 0.0019 0.026 0.022
C111 0.112 0.084 0.058 0.023 0.045 0.059
C114 0.114 0.076 0.045 0.005 0.032 0.041
C101 0.055 0.072 0.046 0.0003 0.0215 -0.011
C107 0.068 0.079 0.044 -0.007 0.022 -0.015
C113 0.07 0.087 0.042 0 0.024 -0.014
C118 0.126 0.129 0.046 -0.018 0.043 -0.074
C120 0.13 0.15 0.065 -0.014 0.055 -0.08
loop_
_geom_bond_atom_site_label_1
_geom_bond_atom_site_label_2
_geom_bond_site_symmetry_1
_geom_bond_site_symmetry_2
O13 C92 1_555 1_555
O14 C92 1_555 1_555
C79 C80 1_555 1_555
C80 H55 1_555 1_555
C83 C80 1_555 1_555
C84 N8 1_555 1_555
C86 C83 1_555 1_555
H56 C86 1_555 1_555
C91 C84 1_555 1_555
H60 C91 1_555 1_555
C92 C83 1_555 1_555
C96 N8 1_555 1_555
H64 C96 1_555 1_555
Co11 O13 1_555 1_555
Co14 O14 1_555 1_555
C79 C84 1_555 1_555
C86 C91 1_555 1_555
C94 C96 1_555 1_555
C20 H7 1_555 1_555
O15 C85 1_555 1_555
O16 C85 1_555 1_555
C81 C82 1_555 1_555
C85 C88 1_555 1_555
C87 C82 1_555 1_555
H57 C87 1_555 1_555
C88 C87 1_555 1_555
C90 C81 1_555 1_555
H59 C90 1_555 1_555
C93 C88 1_555 1_555
H61 C93 1_555 1_555
C95 C20 1_555 1_555
H62 C95 1_555 1_555
Co14 O15 1_555 1_555
O16 Co14 1_555 1_555
C90 C93 1_555 1_555
N5 C39 1_555 1_555
C39 H23 1_555 1_555
C46 C39 1_555 1_555
H28 C46 1_555 1_555
C53 C46 1_555 1_555
C58 N5 1_555 1_555
H41 C58 1_555 1_555
C60 C53 1_555 1_555
H44 C60 1_555 1_555
Co11 N5 1_555 1_555
C58 C60 1_555 1_555
N6 C44 1_555 1_555
C1 C3 1_555 1_555
C5 C3 1_555 1_555
C6 C1 1_555 1_555
C15 C5 1_555 1_555
H4 C15 1_555 1_555
C26 C6 1_555 1_555
H11 C26 1_555 1_555
C44 H27 1_555 1_555
C54 C44 1_555 1_555
H35 C54 1_555 1_555
H53 C77 1_555 1_555
Co11 N6 1_555 1_555
C15 C26 1_555 1_555
C51 C54 1_555 1_555
O23 C29 1_555 1_555
C13 N1 1_555 1_555
C18 C11 1_555 1_555
C24 C18 1_555 1_555
C27 C13 1_555 1_555
H12 C27 1_555 1_555
C28 C36 1_555 1_555
C29 C24 1_555 1_555
C32 C24 1_555 1_555
H14 C32 1_555 1_555
C36 N1 1_555 1_555
H20 C36 1_555 1_555
C50 C28 1_555 1_555
H33 C50 1_555 1_555
C11 C13 1_555 1_555
C27 C32 1_555 1_555
O12 Co11 1_555 1_555
O9 C68 1_555 1_555
O11 C68 1_555 1_555
Co11 O11 1_555 1_555
Co14 O9 1_555 1_555
N9 Co14 1_555 1_555
N10 Co14 1_555 1_555
C97 N9 1_555 1_555
H65 C97 1_555 1_555
C98 C97 1_555 1_555
H66 C98 1_555 1_555
C99 N9 1_555 1_555
H67 C99 1_555 1_555
C100 N10 1_555 1_555
H68 C100 1_555 1_555
C102 N10 1_555 1_555
H70 C102 1_555 1_555
C103 C100 1_555 1_555
H71 C103 1_555 1_555
C104 C103 1_555 1_555
C106 C98 1_555 1_555
H74 C108 1_555 1_555
C109 C99 1_555 1_555
H75 C109 1_555 1_555
C110 C104 1_555 1_555
H76 C110 1_555 1_555
H77 C110 1_555 1_555
C112 C108 1_555 1_555
H78 C112 1_555 1_555
C115 C102 1_555 1_555
H80 C115 1_555 1_555
H81 C116 1_555 1_555
H82 C116 1_555 1_555
C117 C110 1_555 1_555
H84 C117 1_555 1_555
C119 C106 1_555 1_555
H86 C119 1_555 1_555
H87 C119 1_555 1_555
C104 C115 1_555 1_555
C106 C109 1_555 1_555
C116 C119 1_555 1_555
O4 C12 1_555 1_555
O5 C12 1_555 1_555
C7 C8 1_555 1_555
C12 C19 1_555 1_555
C17 C8 1_555 1_555
H5 C17 1_555 1_555
C19 C17 1_555 1_555
C21 C7 1_555 1_555
H8 C21 1_555 1_555
C30 C19 1_555 1_555
H13 C30 1_555 1_555
H15 C33 1_555 1_555
C89 C33 1_555 1_555
H58 C89 1_555 1_555
Co12 O4 1_555 1_555
O5 Co12 1_555 1_555
C21 C30 1_555 1_555
Co1 O2 1_555 1_555
Co12 O1 1_555 1_555
O1 C16 1_555 1_555
O2 C25 1_555 1_555
O3 Co12 1_555 1_555
O7 Co1 1_555 1_555
N3 Co12 1_555 1_555
N4 Co12 1_555 1_555
C2 C4 1_555 1_555
C4 H2 1_555 1_555
C9 C4 1_555 1_555
C10 N2 1_555 1_555
C14 C9 1_555 1_555
H3 C14 1_555 1_555
C16 O7 1_555 1_555
C22 N3 1_555 1_555
H9 C22 1_555 1_555
C23 C10 1_555 1_555
H10 C23 1_555 1_555
C25 O3 1_555 1_555
C34 N2 1_555 1_555
H17 C34 1_555 1_555
C35 C22 1_555 1_555
H18 C35 1_555 1_555
C37 N3 1_555 1_555
H21 C37 1_555 1_555
C38 N4 1_555 1_555
H22 C38 1_555 1_555
C41 N4 1_555 1_555
H25 C41 1_555 1_555
C42 C38 1_555 1_555
H26 C42 1_555 1_555
C43 C42 1_555 1_555
C45 C35 1_555 1_555
H29 C47 1_555 1_555
C48 C37 1_555 1_555
H30 C48 1_555 1_555
C49 C43 1_555 1_555
H31 C49 1_555 1_555
H32 C49 1_555 1_555
C52 C47 1_555 1_555
H34 C52 1_555 1_555
C55 C41 1_555 1_555
H36 C55 1_555 1_555
H37 C56 1_555 1_555
H38 C56 1_555 1_555
C57 C49 1_555 1_555
H40 C57 1_555 1_555
C59 C45 1_555 1_555
H42 C59 1_555 1_555
H43 C59 1_555 1_555
O25 Co1 1_555 1_555
N14 Co1 1_555 1_555
N16 Co1 1_555 1_555
C2 C10 1_555 1_555
C9 C25 1_555 1_555
C14 C23 1_555 1_555
C31 C34 1_555 1_555
C43 C55 1_555 1_555
C45 C48 1_555 1_555
C56 C59 1_555 1_555
O10 C74 1_555 1_555
C66 N7 1_555 1_555
C69 C65 1_555 1_555
C70 C69 1_555 1_555
C72 C66 1_555 1_555
H49 C72 1_555 1_555
C74 C70 1_555 1_555
C75 C70 1_555 1_555
H50 C75 1_555 1_555
C76 N7 1_555 1_555
H52 C76 1_555 1_555
C78 C73 1_555 1_555
H54 C78 1_555 1_555
C65 C66 1_555 1_555
C72 C75 1_555 1_555
C73 C76 1_555 1_555
C40 H24 1_555 1_555
C61 C62 1_555 1_555
C63 C62 1_555 1_555
C64 C61 1_555 1_555
C67 C63 1_555 1_555
H46 C67 1_555 1_555
C71 C64 1_555 1_555
H48 C71 1_555 1_555
N16 C105 1_555 1_555
C105 H72 1_555 1_555
C114 C105 1_555 1_555
H79 C114 1_555 1_555
C67 C71 1_555 1_555
C111 C114 1_555 1_555
N14 C101 1_555 1_555
C101 H69 1_555 1_555
C107 C101 1_555 1_555
H73 C107 1_555 1_555
C113 C107 1_555 1_555
C118 N14 1_555 1_555
H85 C118 1_555 1_555
C120 C113 1_555 1_555
H88 C120 1_555 1_555
C118 C120 1_555 1_555

#END
