
###############################################################################
#
# This file contains modified crystal structure data generated from the
# MOF subset of the Cambridge Structural Database (CSD) v543 
# hosted by the Cambridge Crystallographic Data Centre (CCDC).
#
# This work is licensed under the Creative Commons
# Attribution-NonCommercial-ShareAlike 4.0 International License.
# To view a copy of this license, visit
# http://creativecommons.org/licenses/by-nc-sa/4.0/
# or send a letter to
# Creative Commons, PO Box 1866, Mountain View, CA 94042, USA.
#
# CIF created using the CSD Python API on 29 September 2022
# The structure has been converted into the P1 space group
# The structure has a 3D framework
# The original CSD entry LIZMAL is in the tetragonal crystal system
# The original CSD entry LIZMAL is in a Sohncke space group
# The framework has been calculated to contain at least 10.0% void space
# The void calculation uses a probe of radius 1.32A, grid spacing 0.4
#
###############################################################################

data_LIZMAL
_chemical_formula_moiety         '(C200 H216 Co10 N40 O104 8-)n'
_symmetry_cell_setting           triclinic
_symmetry_space_group_name_H-M   'P 1'
_symmetry_Int_Tables_number      1
_space_group_name_Hall           'P 1'
loop_
_symmetry_equiv_pos_site_id
_symmetry_equiv_pos_as_xyz
1 x,y,z
_cell_length_a                   13.880
_cell_length_b                   13.880
_cell_length_c                   45.438
_cell_angle_alpha                90
_cell_angle_beta                 90
_cell_angle_gamma                90
_cell_volume                     8753.83
loop_
_atom_site_label
_atom_site_type_symbol
_atom_site_fract_x
_atom_site_fract_y
_atom_site_fract_z
Co2 Co 0.51197(6) 0.01062(6) 0.63096(2)
O1 O 0.4331(4) 0.0503(4) 0.59248(11)
O6 O 0.4012(5) 0.1376(5) 0.63151(12)
O7 O 0.0866(4) 0.4332(4) 0.58406(12)
O8 O 0.1293(4) 0.3711(4) 0.62681(12)
N2 N 0.2841(7) 0.2357(6) 0.50782(16)
C9 C 0.3900(6) 0.1220(6) 0.60504(17)
C10 C 0.3280(6) 0.1848(6) 0.58617(18)
C11 C 0.3323(6) 0.1834(6) 0.55611(17)
H4 H 0.374534 0.141414 0.546734
C12 C 0.2736(7) 0.2446(6) 0.53921(18)
C13 C 0.2130(7) 0.3092(6) 0.55327(17)
H5 H 0.176604 0.352426 0.542282
C14 C 0.2067(6) 0.3094(6) 0.58373(16)
C15 C 0.1365(6) 0.3756(6) 0.59958(17)
C16 C 0.2652(6) 0.2501(6) 0.60077(18)
H6 H 0.263297 0.253149 0.621213
C18 C 0.0663(18) 0.0373(19) 0.5435(5)
H8 H 0.089894 0.089877 0.555165
H10 H 0.101110 0.034976 0.525209
H15 H 0.482017 0.037587 0.466274
O13 O 0.372(3) 0.206(3) 0.5006(6)
O14 O 0.0503(4) 0.4331(4) 0.40752(11)
O15 O 0.1376(5) 0.4012(5) 0.36849(12)
O16 O 0.4332(4) 0.0866(4) 0.41594(12)
O17 O 0.3711(4) 0.1293(4) 0.37319(12)
N6 N 0.2357(6) 0.2841(7) 0.49218(16)
C26 C 0.1220(6) 0.3900(6) 0.39496(17)
C27 C 0.1848(6) 0.3280(6) 0.41383(18)
C28 C 0.1834(6) 0.3323(6) 0.44389(17)
H28 H 0.141414 0.374534 0.453266
C29 C 0.2446(6) 0.2736(7) 0.46079(18)
C30 C 0.3092(6) 0.2130(7) 0.44673(17)
H29 H 0.352426 0.176604 0.457718
C31 C 0.3094(6) 0.2067(6) 0.41627(16)
C32 C 0.3756(6) 0.1365(6) 0.40042(17)
C33 C 0.2501(6) 0.2652(6) 0.39923(18)
H30 H 0.253149 0.263297 0.378787
H38 H 0.144723 0.040695 0.948004
H39 H 0.110945 0.036404 0.915108
Co7 Co 0.42093(8) 0.12140(8) 0.82418(2)
Co9 Co 0.01197(6) 0.48938(6) 0.61904(2)
Co10 Co 0.01062(6) 0.51197(6) 0.36904(2)
Co11 Co 0.48938(6) 0.01197(6) 0.38096(2)
O31 O 0.5866(4) 0.0668(4) 0.66594(12)
O33 O 0.6293(4) 0.1289(4) 0.62319(12)
Co1 Co 0.37860(8) 0.92093(8) 0.57418(2)
O2 O 0.4222(4) 0.9242(4) 0.65331(10)
O3 O 0.3384(5) 0.8687(5) 0.61473(12)
O4 O 0.0135(5) 0.6355(5) 0.67451(15)
O5 O 0.0998(4) 0.5932(4) 0.63455(11)
O9 O 0.2397(5) 0.9774(6) 0.56874(16)
O10 O 0.4102(5) 0.9609(5) 0.53127(12)
O11 O 0.3219(6) 0.7894(6) 0.55868(14)
N1 N 0.2710(7) 0.7776(7) 0.74137(15)
N3 N 0.0809(10) 0.9416(12) 0.5603(4)
N4 N 0.3958(10) 0.9382(8) 0.48251(18)
N5 N 0.2914(10) 0.6322(9) 0.5739(3)
C1 C 0.3583(6) 0.8725(6) 0.64133(15)
C2 C 0.2989(6) 0.8085(6) 0.66134(15)
C3 C 0.3132(7) 0.8130(7) 0.69144(16)
H1 H 0.363153 0.850161 0.699034
C4 C 0.2536(7) 0.7626(7) 0.71022(16)
C5 C 0.1788(7) 0.7082(7) 0.69939(17)
H2 H 0.135725 0.678271 0.712119
C6 C 0.1687(6) 0.6988(6) 0.66918(16)
C7 C 0.0874(7) 0.6358(6) 0.65853(18)
C8 C 0.2291(6) 0.7486(6) 0.65032(16)
H3 H 0.222284 0.741425 0.630074
C17 C 0.1680(12) 0.9180(13) 0.5714(4)
H7 H 0.176633 0.859250 0.580901
C19 C 0.0008(15) 0.8654(18) 0.5686(5)
H13 H 0.030857 0.805662 0.573971
C20 C 0.3658(11) 0.9348(10) 0.5106(2)
H14 H 0.304695 0.909685 0.514125
C21 C 0.4888(12) 0.9787(14) 0.4772(4)
H16 H 0.527027 0.934000 0.466063
H17 H 0.519969 0.991863 0.495615
C22 C 0.3298(18) 0.9130(17) 0.4578(4)
H18 H 0.350228 0.854544 0.448368
H19 H 0.330868 0.964764 0.443768
H20 H 0.265528 0.905094 0.465188
C23 C 0.3469(10) 0.7115(10) 0.5721(3)
H21 H 0.407076 0.710015 0.581086
C24 C 0.3179(16) 0.5560(15) 0.5946(4)
H22 H 0.323000 0.495818 0.584322
H23 H 0.269354 0.550928 0.609589
H24 H 0.378662 0.571323 0.603538
C25 C 0.2021(17) 0.6347(16) 0.5581(5)
H25 H 0.213410 0.656321 0.538356
H26 H 0.158502 0.678186 0.567757
H27 H 0.174437 0.571321 0.557706
O12 O 0.362(4) 0.808(4) 0.7464(8)
O18 O 0.0758(4) 0.5778(4) 0.84669(10)
O19 O 0.1313(5) 0.6616(5) 0.88527(12)
O20 O 0.3645(5) 0.9865(5) 0.82549(15)
O21 O 0.4068(4) 0.9002(4) 0.86545(11)
N7 N 0.2224(7) 0.7290(7) 0.75863(15)
C34 C 0.1275(6) 0.6417(6) 0.85867(15)
C35 C 0.1915(6) 0.7011(6) 0.83866(15)
C36 C 0.1870(7) 0.6868(7) 0.80856(16)
H31 H 0.149839 0.636847 0.800966
C37 C 0.2374(7) 0.7464(7) 0.78978(16)
C38 C 0.2918(7) 0.8212(7) 0.80061(17)
H32 H 0.321729 0.864275 0.787881
C39 C 0.3012(6) 0.8313(6) 0.83082(16)
C40 C 0.3642(6) 0.9126(7) 0.84147(18)
C41 C 0.2514(6) 0.7709(6) 0.84968(16)
H33 H 0.258575 0.777716 0.869926
Co3 Co 0.07907(8) 0.62140(8) 0.92582(2)
O22 O 0.0226(6) 0.7603(5) 0.93126(16)
O23 O 0.0391(5) 0.5898(5) 0.96873(12)
O24 O 0.2106(6) 0.6781(6) 0.94132(14)
N8 N 0.0584(12) 0.9191(10) 0.9397(4)
N10 N 0.3678(9) 0.7086(10) 0.9261(3)
C42 C 0.0820(13) 0.8320(12) 0.9286(4)
H34 H 0.140750 0.823367 0.919099
C44 C 0.1346(18) 0.9992(15) 0.9314(5)
H40 H 0.194338 0.969143 0.926029
C45 C 0.0652(10) 0.6342(11) 0.9894(2)
H41 H 0.090315 0.695305 0.985875
C48 C 0.2885(10) 0.6531(10) 0.9279(3)
H48 H 0.289985 0.592924 0.918914
C49 C 0.4440(15) 0.6821(16) 0.9054(4)
H49 H 0.504182 0.677000 0.915678
H50 H 0.449072 0.730646 0.890411
H51 H 0.428677 0.621338 0.896462
C50 C 0.3653(16) 0.7979(17) 0.9419(5)
H52 H 0.343679 0.786590 0.961644
H53 H 0.321814 0.841498 0.932243
H54 H 0.428679 0.825563 0.942294
Co12 Co 0.51062(6) 0.98803(6) 0.88096(2)
O26 O 0.5135(5) 0.8645(5) 0.57549(15)
O27 O 0.1355(5) 0.4865(5) 0.92451(15)
O28 O 0.5998(4) 0.9068(4) 0.61545(11)
O29 O 0.0932(4) 0.4002(4) 0.88455(11)
H9 H 0.999012 0.046533 0.539534
H36 H 0.953467 0.000988 0.960466
Co6 Co 0.92093(8) 0.37860(8) 0.42582(2)
H42 H 0.962413 0.517983 0.033726
H11 H 0.959305 0.855277 0.551996
H12 H 0.963596 0.889055 0.584892
Co4 Co 0.98938(6) 0.48803(6) 0.86904(2)
C43 C 0.9627(19) 0.9337(18) 0.9565(5)
H35 H 0.910123 0.910106 0.944835
H37 H 0.965024 0.898890 0.974791
Co5 Co 0.87860(8) 0.57907(8) 0.67582(2)
O25 O 0.9497(4) 0.5669(4) 0.90752(11)
O30 O 0.8624(5) 0.5988(5) 0.86849(12)
O32 O 0.9332(4) 0.4134(4) 0.83406(12)
O34 O 0.8711(4) 0.3707(4) 0.87681(12)
H11_2 H 0.040695 0.144723 0.051996
H12_2 H 0.036404 0.110945 0.084892
C43_2 C 0.0373(19) 0.0663(18) 0.4565(5)
H35_2 H 0.089877 0.089894 0.444835
H37_2 H 0.034976 0.101110 0.474791
H42_2 H 0.037587 0.482017 0.533726
Co5_2 Co 0.12140(8) 0.42093(8) 0.17582(2)
O32_2 O 0.0668(4) 0.5866(4) 0.33406(12)
O34_2 O 0.1289(4) 0.6293(4) 0.37681(12)
H9_2 H 0.000988 0.953467 0.039534
H36_2 H 0.046533 0.999012 0.460466
Co1_2 Co 0.62140(8) 0.07907(8) 0.07418(2)
O2_2 O 0.5778(4) 0.0758(4) 0.15331(10)
O3_2 O 0.6616(5) 0.1313(5) 0.11473(12)
O4_2 O 0.9865(5) 0.3645(5) 0.17451(15)
O5_2 O 0.9002(4) 0.4068(4) 0.13455(11)
O9_2 O 0.7603(5) 0.0226(6) 0.06874(16)
O10_2 O 0.5898(5) 0.0391(5) 0.03127(12)
O11_2 O 0.6781(6) 0.2106(6) 0.05868(14)
N1_2 N 0.7290(7) 0.2224(7) 0.24137(15)
N3_2 N 0.9191(10) 0.0584(12) 0.0603(4)
N5_2 N 0.7086(10) 0.3678(9) 0.0739(3)
C1_2 C 0.6417(6) 0.1275(6) 0.14133(15)
C2_2 C 0.7011(6) 0.1915(6) 0.16134(15)
C3_2 C 0.6868(7) 0.1870(7) 0.19144(16)
H1_2 H 0.636847 0.149839 0.199034
C4_2 C 0.7464(7) 0.2374(7) 0.21022(16)
C5_2 C 0.8212(7) 0.2918(7) 0.19939(17)
H2_2 H 0.864275 0.321729 0.212119
C6_2 C 0.8313(6) 0.3012(6) 0.16918(16)
C7_2 C 0.9126(7) 0.3642(6) 0.15853(18)
C8_2 C 0.7709(6) 0.2514(6) 0.15032(16)
H3_2 H 0.777716 0.258575 0.130074
C17_2 C 0.8320(12) 0.0820(13) 0.0714(4)
H7_2 H 0.823367 0.140750 0.080901
C19_2 C 0.9992(15) 0.1346(18) 0.0686(5)
H13_2 H 0.969143 0.194338 0.073971
C20_2 C 0.6342(11) 0.0652(10) 0.0106(2)
H14_2 H 0.695305 0.090315 0.014125
C23_2 C 0.6531(10) 0.2885(10) 0.0721(3)
H21_2 H 0.592924 0.289985 0.081086
C24_2 C 0.6821(16) 0.4440(15) 0.0946(4)
H22_2 H 0.677000 0.504182 0.084322
H23_2 H 0.730646 0.449072 0.109589
H24_2 H 0.621338 0.428677 0.103538
C25_2 C 0.7979(17) 0.3653(16) 0.0581(5)
H25_2 H 0.786590 0.343679 0.038356
H26_2 H 0.841498 0.321814 0.067757
H27_2 H 0.825563 0.428679 0.057706
O12_2 O 0.638(4) 0.192(4) 0.2464(8)
O18_2 O 0.9242(4) 0.4222(4) 0.34669(10)
O19_2 O 0.8687(5) 0.3384(5) 0.38527(12)
O20_2 O 0.6355(5) 0.0135(5) 0.32549(15)
O21_2 O 0.5932(4) 0.0998(4) 0.36545(11)
N7_2 N 0.7776(7) 0.2710(7) 0.25863(15)
C34_2 C 0.8725(6) 0.3583(6) 0.35867(15)
C35_2 C 0.8085(6) 0.2989(6) 0.33866(15)
C36_2 C 0.8130(7) 0.3132(7) 0.30856(16)
H31_2 H 0.850161 0.363153 0.300966
C37_2 C 0.7626(7) 0.2536(7) 0.28978(16)
C38_2 C 0.7082(7) 0.1788(7) 0.30061(17)
H32_2 H 0.678271 0.135725 0.287881
C39_2 C 0.6988(6) 0.1687(6) 0.33082(16)
C40_2 C 0.6358(6) 0.0874(7) 0.34147(18)
C41_2 C 0.7486(6) 0.2291(6) 0.34968(16)
H33_2 H 0.741425 0.222284 0.369926
O22_2 O 0.9774(6) 0.2397(5) 0.43126(16)
O23_2 O 0.9609(5) 0.4102(5) 0.46873(12)
O24_2 O 0.7894(6) 0.3219(6) 0.44132(14)
N8_2 N 0.9416(12) 0.0809(10) 0.4397(4)
N9 N 0.9382(8) 0.3958(10) 0.51749(18)
N10_2 N 0.6322(9) 0.2914(10) 0.4261(3)
C42_2 C 0.9180(13) 0.1680(12) 0.4286(4)
H34_2 H 0.859250 0.176633 0.419099
C44_2 C 0.8654(18) 0.0008(15) 0.4314(5)
H40_2 H 0.805662 0.030857 0.426029
C45_2 C 0.9348(10) 0.3658(11) 0.4894(2)
H41_2 H 0.909685 0.304695 0.485875
C46 C 0.9787(14) 0.4888(12) 0.5228(4)
H43 H 0.934000 0.527027 0.533937
H44 H 0.991863 0.519969 0.504385
C47 C 0.9130(17) 0.3298(18) 0.5422(4)
H45 H 0.854544 0.350228 0.551632
H46 H 0.964764 0.330868 0.556232
H47 H 0.905094 0.265528 0.534812
C48_2 C 0.7115(10) 0.3469(10) 0.4279(3)
H48_2 H 0.710015 0.407076 0.418914
C49_2 C 0.5560(15) 0.3179(16) 0.4054(4)
H49_2 H 0.495818 0.323000 0.415678
H50_2 H 0.550928 0.269354 0.390411
H51_2 H 0.571323 0.378662 0.396462
C50_2 C 0.6347(16) 0.2021(17) 0.4419(5)
H52_2 H 0.656321 0.213410 0.461644
H53_2 H 0.678186 0.158502 0.432243
H54_2 H 0.571321 0.174437 0.442294
Co8 Co 0.98803(6) 0.51062(6) 0.11904(2)
O26_2 O 0.4865(5) 0.1355(5) 0.07549(15)
O27_2 O 0.8645(5) 0.5135(5) 0.42451(15)
O28_2 O 0.4002(4) 0.0932(4) 0.11545(11)
O29_2 O 0.9068(4) 0.5998(4) 0.38455(11)
Co2_2 Co 0.48803(6) 0.98938(6) 0.13096(2)
O1_2 O 0.5669(4) 0.9497(4) 0.09248(11)
O6_2 O 0.5988(5) 0.8624(5) 0.13151(12)
O7_2 O 0.9134(4) 0.5668(4) 0.08406(12)
O8_2 O 0.8707(4) 0.6289(4) 0.12681(12)
N2_2 N 0.7159(7) 0.7643(6) 0.00782(16)
C9_2 C 0.6100(6) 0.8780(6) 0.10504(17)
C10_2 C 0.6720(6) 0.8152(6) 0.08617(18)
C11_2 C 0.6677(6) 0.8166(6) 0.05611(17)
H4_2 H 0.625466 0.858586 0.046734
C12_2 C 0.7264(7) 0.7554(6) 0.03921(18)
C13_2 C 0.7870(7) 0.6908(6) 0.05327(17)
H5_2 H 0.823396 0.647574 0.042282
C14_2 C 0.7933(6) 0.6906(6) 0.08373(16)
C15_2 C 0.8635(6) 0.6244(6) 0.09958(17)
C16_2 C 0.7348(6) 0.7499(6) 0.10077(18)
H6_2 H 0.736703 0.746851 0.121213
C18_2 C 0.9337(18) 0.9627(19) 0.0435(5)
H8_2 H 0.910106 0.910123 0.055165
H10_2 H 0.898890 0.965024 0.025209
O13_2 O 0.628(3) 0.794(3) 0.0006(6)
H38_2 H 0.855277 0.959305 0.448004
H39_2 H 0.889055 0.963596 0.415108
Co7_2 Co 0.57907(8) 0.87860(8) 0.32418(2)
O31_2 O 0.4134(4) 0.9332(4) 0.16594(12)
O33_2 O 0.3707(4) 0.8711(4) 0.12319(12)
H15_2 H 0.517983 0.962413 0.966274
O16_2 O 0.5668(4) 0.9134(4) 0.91594(12)
O17_2 O 0.6289(4) 0.8707(4) 0.87319(12)
N6_2 N 0.7643(6) 0.7159(7) 0.99218(16)
C26_2 C 0.8780(6) 0.6100(6) 0.89496(17)
C27_2 C 0.8152(6) 0.6720(6) 0.91383(18)
C28_2 C 0.8166(6) 0.6677(6) 0.94389(17)
H28_2 H 0.858586 0.625466 0.953266
C29_2 C 0.7554(6) 0.7264(7) 0.96079(18)
C30_2 C 0.6908(6) 0.7870(7) 0.94673(17)
H29_2 H 0.647574 0.823396 0.957718
C31_2 C 0.6906(6) 0.7933(6) 0.91627(16)
C32_2 C 0.6244(6) 0.8635(6) 0.90042(17)
C33_2 C 0.7499(6) 0.7348(6) 0.89923(18)
H30_2 H 0.746851 0.736703 0.878787
H16_2 H 0.027027 0.566000 0.783937
H17_2 H 0.019969 0.508137 0.754385
H49_3 H 0.004182 0.823000 0.334322
H22_3 H 0.823000 0.004182 0.665678
H43_2 H 0.566000 0.027027 0.216063
H44_2 H 0.508137 0.019969 0.245615
O1_3 O 0.9331(4) 0.4497(4) 0.65752(11)
O2_3 O 0.9222(4) 0.5758(4) 0.59669(10)
O3_3 O 0.8384(5) 0.6313(5) 0.63527(12)
O6_3 O 0.9012(5) 0.3624(5) 0.61849(12)
O9_3 O 0.7397(5) 0.5226(6) 0.68126(16)
O10_3 O 0.9102(5) 0.5391(5) 0.71873(12)
O11_3 O 0.8219(6) 0.7106(6) 0.69132(14)
N1_3 N 0.7710(7) 0.7224(7) 0.50863(15)
N2_3 N 0.7841(7) 0.2643(6) 0.74218(16)
N3_3 N 0.5809(10) 0.5584(12) 0.6897(4)
N4_2 N 0.8958(10) 0.5618(8) 0.76749(18)
N5_3 N 0.7914(10) 0.8678(9) 0.6761(3)
C1_3 C 0.8583(6) 0.6275(6) 0.60867(15)
C2_3 C 0.7989(6) 0.6915(6) 0.58866(15)
C3_3 C 0.8132(7) 0.6870(7) 0.55856(16)
H1_3 H 0.863153 0.649839 0.550966
C4_3 C 0.7536(7) 0.7374(7) 0.53978(16)
C5_3 C 0.6788(7) 0.7918(7) 0.55061(17)
H2_3 H 0.635725 0.821729 0.537881
C6_3 C 0.6687(6) 0.8012(6) 0.58082(16)
C7_3 C 0.5874(7) 0.8642(6) 0.59147(18)
C8_3 C 0.7291(6) 0.7514(6) 0.59968(16)
H3_3 H 0.722284 0.758575 0.619926
C9_3 C 0.8900(6) 0.3780(6) 0.64496(17)
C10_3 C 0.8280(6) 0.3152(6) 0.66383(18)
C11_3 C 0.8323(6) 0.3166(6) 0.69389(17)
H4_3 H 0.874534 0.358586 0.703266
C12_3 C 0.7736(7) 0.2554(6) 0.71079(18)
C13_3 C 0.7130(7) 0.1908(6) 0.69673(17)
H5_3 H 0.676604 0.147574 0.707718
C14_3 C 0.7067(6) 0.1906(6) 0.66627(16)
C15_3 C 0.6365(6) 0.1244(6) 0.65042(17)
C16_3 C 0.7652(6) 0.2499(6) 0.64923(18)
H6_3 H 0.763297 0.246851 0.628787
C17_3 C 0.6680(12) 0.5820(13) 0.6786(4)
H7_3 H 0.676633 0.640750 0.669099
C18_3 C 0.5663(18) 0.4627(19) 0.7065(5)
H8_3 H 0.589894 0.410123 0.694835
H9_3 H 0.499012 0.453467 0.710466
H10_3 H 0.601110 0.465024 0.724791
C19_3 C 0.5008(15) 0.6346(18) 0.6814(5)
H11_3 H 0.459305 0.644723 0.698004
H12_3 H 0.463596 0.610945 0.665108
H13_3 H 0.530857 0.694338 0.676029
C20_3 C 0.8658(11) 0.5652(10) 0.7394(2)
H14_3 H 0.804695 0.590315 0.735875
C21_2 C 0.9888(12) 0.5213(14) 0.7728(4)
H15_3 H 0.982017 0.462413 0.783726
C22_2 C 0.8298(18) 0.5870(17) 0.7922(4)
H18_2 H 0.850228 0.645456 0.801632
H19_2 H 0.830868 0.535236 0.806232
H20_2 H 0.765528 0.594906 0.784812
C23_3 C 0.8469(10) 0.7885(10) 0.6779(3)
H21_3 H 0.907076 0.789985 0.668914
C24_3 C 0.8179(16) 0.9440(15) 0.6554(4)
H23_3 H 0.769354 0.949072 0.640411
H24_3 H 0.878662 0.928677 0.646462
C25_3 C 0.7021(17) 0.8653(16) 0.6919(5)
H25_3 H 0.713410 0.843679 0.711644
H26_3 H 0.658502 0.821814 0.682243
H27_3 H 0.674437 0.928679 0.692294
O12_3 O 0.862(4) 0.692(4) 0.5036(8)
O13_3 O 0.872(3) 0.294(3) 0.7494(6)
O14_2 O 0.5503(4) 0.0669(4) 0.84248(11)
O15_2 O 0.6376(5) 0.0988(5) 0.88151(12)
N6_3 N 0.7357(6) 0.2159(7) 0.75782(16)
C26_3 C 0.6220(6) 0.1100(6) 0.85504(17)
C27_3 C 0.6848(6) 0.1720(6) 0.83617(18)
C28_3 C 0.6834(6) 0.1677(6) 0.80611(17)
H28_3 H 0.641414 0.125466 0.796734
C29_3 C 0.7446(6) 0.2264(7) 0.78921(18)
C30_3 C 0.8092(6) 0.2870(7) 0.80327(17)
H29_3 H 0.852426 0.323396 0.792282
C31_3 C 0.8094(6) 0.2933(6) 0.83373(16)
C32_3 C 0.8756(6) 0.3635(6) 0.84958(17)
C33_3 C 0.7501(6) 0.2348(6) 0.85077(18)
H30_3 H 0.753149 0.236703 0.871213
O18_3 O 0.5758(4) 0.9222(4) 0.40331(10)
O19_3 O 0.6313(5) 0.8384(5) 0.36473(12)
N7_3 N 0.7224(7) 0.7710(7) 0.49137(15)
C34_3 C 0.6275(6) 0.8583(6) 0.39133(15)
C35_3 C 0.6915(6) 0.7989(6) 0.41134(15)
C36_3 C 0.6870(7) 0.8132(7) 0.44144(16)
H31_3 H 0.649839 0.863153 0.449034
C37_3 C 0.7374(7) 0.7536(7) 0.46022(16)
C38_3 C 0.7918(7) 0.6788(7) 0.44939(17)
H32_3 H 0.821729 0.635725 0.462119
C39_3 C 0.8012(6) 0.6687(6) 0.41918(16)
C40_3 C 0.8642(6) 0.5874(7) 0.40853(18)
C41_3 C 0.7514(6) 0.7291(6) 0.40032(16)
H33_3 H 0.758575 0.722284 0.380074
O22_3 O 0.5226(6) 0.7397(5) 0.31874(16)
O23_3 O 0.5391(5) 0.9102(5) 0.28127(12)
O24_3 O 0.7106(6) 0.8219(6) 0.30868(14)
N8_3 N 0.5584(12) 0.5809(10) 0.3103(4)
N9_2 N 0.5618(8) 0.8958(10) 0.23251(18)
N10_3 N 0.8678(9) 0.7914(10) 0.3239(3)
C42_3 C 0.5820(13) 0.6680(12) 0.3214(4)
H34_3 H 0.640750 0.676633 0.330901
C43_3 C 0.4627(19) 0.5663(18) 0.2935(5)
H35_3 H 0.410123 0.589894 0.305165
H36_3 H 0.453467 0.499012 0.289534
H37_3 H 0.465024 0.601110 0.275209
C44_3 C 0.6346(18) 0.5008(15) 0.3186(5)
H38_3 H 0.644723 0.459305 0.301996
H39_3 H 0.610945 0.463596 0.334892
H40_3 H 0.694338 0.530857 0.323971
C45_3 C 0.5652(10) 0.8658(11) 0.2606(2)
H41_3 H 0.590315 0.804695 0.264125
C46_2 C 0.5213(14) 0.9888(12) 0.2272(4)
H42_3 H 0.462413 0.982017 0.216274
C47_2 C 0.5870(17) 0.8298(18) 0.2078(4)
H45_2 H 0.645456 0.850228 0.198368
H46_2 H 0.535236 0.830868 0.193768
H47_2 H 0.594906 0.765528 0.215188
C48_3 C 0.7885(10) 0.8469(10) 0.3221(3)
H48_3 H 0.789985 0.907076 0.331086
C49_3 C 0.9440(15) 0.8179(16) 0.3446(4)
H50_3 H 0.949072 0.769354 0.359589
H51_3 H 0.928677 0.878662 0.353538
C50_3 C 0.8653(16) 0.7021(17) 0.3081(5)
H52_3 H 0.843679 0.713410 0.288356
H53_3 H 0.821814 0.658502 0.317757
H54_3 H 0.928679 0.674437 0.307706
O25_2 O 0.4497(4) 0.9331(4) 0.34248(11)
O30_2 O 0.3624(5) 0.9012(5) 0.38151(12)
O1_4 O 0.0669(4) 0.5503(4) 0.15752(11)
O2_4 O 0.0778(4) 0.4242(4) 0.09669(10)
O3_4 O 0.1616(5) 0.3687(5) 0.13527(12)
O6_4 O 0.0988(5) 0.6376(5) 0.11849(12)
O9_4 O 0.2603(5) 0.4774(6) 0.18126(16)
O10_4 O 0.0898(5) 0.4609(5) 0.21873(12)
O11_4 O 0.1781(6) 0.2894(6) 0.19132(14)
N1_4 N 0.2290(7) 0.2776(7) 0.00863(15)
N2_4 N 0.2159(7) 0.7357(6) 0.24218(16)
N3_4 N 0.4191(10) 0.4416(12) 0.1897(4)
N4_3 N 0.1042(10) 0.4382(8) 0.26749(18)
N5_4 N 0.2086(10) 0.1322(9) 0.1761(3)
C1_4 C 0.1417(6) 0.3725(6) 0.10867(15)
C2_4 C 0.2011(6) 0.3085(6) 0.08866(15)
C3_4 C 0.1868(7) 0.3130(7) 0.05856(16)
H1_4 H 0.136847 0.350161 0.050966
C4_4 C 0.2464(7) 0.2626(7) 0.03978(16)
C5_4 C 0.3212(7) 0.2082(7) 0.05061(17)
H2_4 H 0.364275 0.178271 0.037881
C6_4 C 0.3313(6) 0.1988(6) 0.08082(16)
C7_4 C 0.4126(7) 0.1358(6) 0.09147(18)
C8_4 C 0.2709(6) 0.2486(6) 0.09968(16)
H3_4 H 0.277716 0.241425 0.119926
C9_4 C 0.1100(6) 0.6220(6) 0.14496(17)
C10_4 C 0.1720(6) 0.6848(6) 0.16383(18)
C11_4 C 0.1677(6) 0.6834(6) 0.19389(17)
H4_4 H 0.125466 0.641414 0.203266
C12_4 C 0.2264(7) 0.7446(6) 0.21079(18)
C13_4 C 0.2870(7) 0.8092(6) 0.19673(17)
H5_4 H 0.323396 0.852426 0.207718
C14_4 C 0.2933(6) 0.8094(6) 0.16627(16)
C15_4 C 0.3635(6) 0.8756(6) 0.15042(17)
C16_4 C 0.2348(6) 0.7501(6) 0.14923(18)
H6_4 H 0.236703 0.753149 0.128787
C17_4 C 0.3320(12) 0.4180(13) 0.1786(4)
H7_4 H 0.323367 0.359250 0.169099
C18_4 C 0.4337(18) 0.5373(19) 0.2065(5)
H8_4 H 0.410106 0.589877 0.194835
H9_4 H 0.500988 0.546533 0.210466
H10_4 H 0.398890 0.534976 0.224791
C19_4 C 0.4992(15) 0.3654(18) 0.1814(5)
H11_4 H 0.540695 0.355277 0.198004
H12_4 H 0.536404 0.389055 0.165108
H13_4 H 0.469143 0.305662 0.176029
C20_4 C 0.1342(11) 0.4348(10) 0.2394(2)
H14_4 H 0.195305 0.409685 0.235875
C21_3 C 0.0112(12) 0.4787(14) 0.2728(4)
H15_4 H 0.017983 0.537587 0.283726
C22_3 C 0.1702(18) 0.4130(17) 0.2922(4)
H18_3 H 0.149772 0.354544 0.301632
H19_3 H 0.169132 0.464764 0.306232
H20_3 H 0.234472 0.405094 0.284812
C23_4 C 0.1531(10) 0.2115(10) 0.1779(3)
H21_4 H 0.092924 0.210015 0.168914
C24_4 C 0.1821(16) 0.0560(15) 0.1554(4)
H23_4 H 0.230646 0.050928 0.140411
H24_4 H 0.121338 0.071323 0.146462
C25_4 C 0.2979(17) 0.1347(16) 0.1919(5)
H25_4 H 0.286590 0.156321 0.211644
H26_4 H 0.341498 0.178186 0.182243
H27_4 H 0.325563 0.071321 0.192294
O12_4 O 0.138(4) 0.308(4) 0.0036(8)
O13_4 O 0.128(3) 0.706(3) 0.2494(6)
N6_4 N 0.2643(6) 0.7841(7) 0.25782(16)
C26_4 C 0.3780(6) 0.8900(6) 0.35504(17)
C27_4 C 0.3152(6) 0.8280(6) 0.33617(18)
C28_4 C 0.3166(6) 0.8323(6) 0.30611(17)
H28_4 H 0.358586 0.874534 0.296734
C29_4 C 0.2554(6) 0.7736(7) 0.28921(18)
C30_4 C 0.1908(6) 0.7130(7) 0.30327(17)
H29_4 H 0.147574 0.676604 0.292282
C31_4 C 0.1906(6) 0.7067(6) 0.33373(16)
C32_4 C 0.1244(6) 0.6365(6) 0.34958(17)
C33_4 C 0.2499(6) 0.7652(6) 0.35077(18)
H30_4 H 0.246851 0.763297 0.371213
O18_4 O 0.4242(4) 0.0778(4) 0.90331(10)
O19_4 O 0.3687(5) 0.1616(5) 0.86473(12)
N7_4 N 0.2776(7) 0.2290(7) 0.99137(15)
C34_4 C 0.3725(6) 0.1417(6) 0.89133(15)
C35_4 C 0.3085(6) 0.2011(6) 0.91134(15)
C36_4 C 0.3130(7) 0.1868(7) 0.94144(16)
H31_4 H 0.350161 0.136847 0.949034
C37_4 C 0.2626(7) 0.2464(7) 0.96022(16)
C38_4 C 0.2082(7) 0.3212(7) 0.94939(17)
H32_4 H 0.178271 0.364275 0.962119
C39_4 C 0.1988(6) 0.3313(6) 0.91918(16)
C40_4 C 0.1358(6) 0.4126(7) 0.90853(18)
C41_4 C 0.2486(6) 0.2709(6) 0.90032(16)
H33_4 H 0.241425 0.277716 0.880074
O22_4 O 0.4774(6) 0.2603(5) 0.81874(16)
O23_4 O 0.4609(5) 0.0898(5) 0.78127(12)
O24_4 O 0.2894(6) 0.1781(6) 0.80868(14)
N8_4 N 0.4416(12) 0.4191(10) 0.8103(4)
N9_3 N 0.4382(8) 0.1042(10) 0.73251(18)
N10_4 N 0.1322(9) 0.2086(10) 0.8239(3)
C42_4 C 0.4180(13) 0.3320(12) 0.8214(4)
H34_4 H 0.359250 0.323367 0.830901
C43_4 C 0.5373(19) 0.4337(18) 0.7935(5)
H35_4 H 0.589877 0.410106 0.805165
H36_4 H 0.546533 0.500988 0.789534
H37_4 H 0.534976 0.398890 0.775209
C44_4 C 0.3654(18) 0.4992(15) 0.8186(5)
H38_4 H 0.355277 0.540695 0.801996
H39_4 H 0.389055 0.536404 0.834892
H40_4 H 0.305662 0.469143 0.823971
C45_4 C 0.4348(10) 0.1342(11) 0.7606(2)
H41_4 H 0.409685 0.195305 0.764125
C46_3 C 0.4787(14) 0.0112(12) 0.7272(4)
H42_4 H 0.537587 0.017983 0.716274
C47_3 C 0.4130(17) 0.1702(18) 0.7078(4)
H45_3 H 0.354544 0.149772 0.698368
H46_3 H 0.464764 0.169132 0.693768
H47_3 H 0.405094 0.234472 0.715188
C48_4 C 0.2115(10) 0.1531(10) 0.8221(3)
H48_4 H 0.210015 0.092924 0.831086
C49_4 C 0.0560(15) 0.1821(16) 0.8446(4)
H50_4 H 0.050928 0.230646 0.859589
H51_4 H 0.071323 0.121338 0.853538
C50_4 C 0.1347(16) 0.2979(17) 0.8081(5)
H52_4 H 0.156321 0.286590 0.788356
H53_4 H 0.178186 0.341498 0.817757
H54_4 H 0.071321 0.325563 0.807706
H22_4 H 0.177000 0.995818 0.165678
H43_3 H 0.434000 0.972973 0.716063
H44_3 H 0.491863 0.980031 0.745615
H16_3 H 0.972973 0.434000 0.283937
H17_3 H 0.980031 0.491863 0.254385
H49_4 H 0.995818 0.177000 0.834322
O12_5 O 0.192(4) 0.638(4) 0.7536(8)
O13_5 O 0.794(3) 0.628(3) 0.9994(6)
O13_6 O 0.206(3) 0.372(3) 0.4994(6)
O12_6 O 0.808(4) 0.362(4) 0.2536(8)
O12_7 O 0.692(4) 0.862(4) 0.4964(8)
O13_7 O 0.294(3) 0.872(3) 0.2506(6)
O12_8 O 0.308(4) 0.138(4) 0.9964(8)
O13_8 O 0.706(3) 0.128(3) 0.7506(6)
N9_4 N 0.0618(8) 0.6042(10) 0.01749(18)
C46_4 C 0.0213(14) 0.5112(12) 0.0228(4)
H43_4 H 0.066000 0.472973 0.033937
H44_4 H 0.008137 0.480031 0.004385
C47_4 C 0.0870(17) 0.6702(18) 0.0422(4)
H45_4 H 0.145456 0.649772 0.051632
H46_4 H 0.035236 0.669132 0.056232
H47_4 H 0.094906 0.734472 0.034812
N4_4 N 0.6042(10) 0.0618(8) 0.98251(18)
C21_4 C 0.5112(12) 0.0213(14) 0.9772(4)
H16_4 H 0.472973 0.066000 0.966063
H17_4 H 0.480031 0.008137 0.995615
C22_4 C 0.6702(18) 0.0870(17) 0.9578(4)
H18_4 H 0.649772 0.145456 0.948368
H19_4 H 0.669132 0.035236 0.943768
H20_4 H 0.734472 0.094906 0.965188
loop_
_geom_bond_atom_site_label_1
_geom_bond_atom_site_label_2
_geom_bond_site_symmetry_1
_geom_bond_site_symmetry_2
Co2 O1 1_555 1_555
O1 C9 1_555 1_555
O6 Co2 1_555 1_555
O7 C15 1_555 1_555
O8 C15 1_555 1_555
N2 C12 1_555 1_555
C9 O6 1_555 1_555
C10 C9 1_555 1_555
C11 C10 1_555 1_555
H4 C11 1_555 1_555
C12 C11 1_555 1_555
C13 C12 1_555 1_555
H5 C13 1_555 1_555
C14 C13 1_555 1_555
C15 C14 1_555 1_555
C16 C10 1_555 1_555
H6 C16 1_555 1_555
H8 C18 1_555 1_555
H10 C18 1_555 1_555
O13 N2 1_555 1_555
O14 C26 1_555 1_555
O15 C26 1_555 1_555
O16 C32 1_555 1_555
O17 C32 1_555 1_555
N6 N2 1_555 1_555
C26 C27 1_555 1_555
C27 C28 1_555 1_555
C28 H28 1_555 1_555
C29 N6 1_555 1_555
C30 C29 1_555 1_555
H29 C30 1_555 1_555
C31 C30 1_555 1_555
C32 C31 1_555 1_555
C33 C27 1_555 1_555
H30 C33 1_555 1_555
Co9 O7 1_555 1_555
Co10 O14 1_555 1_555
Co11 O16 1_555 1_555
O31 Co2 1_555 1_555
O33 Co2 1_555 1_555
O8 Co9 1_555 1_555
C14 C16 1_555 1_555
O15 Co10 1_555 1_555
O17 Co11 1_555 1_555
C28 C29 1_555 1_555
C31 C33 1_555 1_555
O3 Co1 1_555 1_555
O4 C7 1_555 1_555
O5 C7 1_555 1_555
O9 Co1 1_555 1_555
O10 Co1 1_555 1_555
O11 Co1 1_555 1_555
N1 C4 1_555 1_555
N3 C17 1_555 1_555
N4 C20 1_555 1_555
N5 C23 1_555 1_555
C1 O2 1_555 1_555
C2 C1 1_555 1_555
C3 C2 1_555 1_555
H1 C3 1_555 1_555
C4 C3 1_555 1_555
C5 C4 1_555 1_555
H2 C5 1_555 1_555
C6 C5 1_555 1_555
C7 C6 1_555 1_555
C8 C2 1_555 1_555
H3 C8 1_555 1_555
C17 O9 1_555 1_555
H7 C17 1_555 1_555
C19 N3 1_555 1_555
H13 C19 1_555 1_555
C20 O10 1_555 1_555
H14 C20 1_555 1_555
C21 N4 1_555 1_555
H16 C21 1_555 1_555
H17 C21 1_555 1_555
C22 N4 1_555 1_555
H18 C22 1_555 1_555
H19 C22 1_555 1_555
H20 C22 1_555 1_555
C23 O11 1_555 1_555
H21 C23 1_555 1_555
C24 N5 1_555 1_555
H22 C24 1_555 1_555
H23 C24 1_555 1_555
H24 C24 1_555 1_555
C25 N5 1_555 1_555
H25 C25 1_555 1_555
H26 C25 1_555 1_555
H27 C25 1_555 1_555
O12 N1 1_555 1_555
O18 C34 1_555 1_555
O19 C34 1_555 1_555
O20 C40 1_555 1_555
O21 C40 1_555 1_555
N7 N1 1_555 1_555
C34 C35 1_555 1_555
C35 C36 1_555 1_555
C36 H31 1_555 1_555
C37 N7 1_555 1_555
C38 C37 1_555 1_555
H32 C38 1_555 1_555
C39 C38 1_555 1_555
C40 C39 1_555 1_555
C41 C35 1_555 1_555
H33 C41 1_555 1_555
Co3 O19 1_555 1_555
O22 Co3 1_555 1_555
O23 Co3 1_555 1_555
O24 Co3 1_555 1_555
N8 C42 1_555 1_555
N10 C48 1_555 1_555
C42 O22 1_555 1_555
H34 C42 1_555 1_555
C44 N8 1_555 1_555
H40 C44 1_555 1_555
C45 O23 1_555 1_555
H41 C45 1_555 1_555
C48 O24 1_555 1_555
H48 C48 1_555 1_555
C49 N10 1_555 1_555
H49 C49 1_555 1_555
H50 C49 1_555 1_555
H51 C49 1_555 1_555
C50 N10 1_555 1_555
H52 C50 1_555 1_555
H53 C50 1_555 1_555
H54 C50 1_555 1_555
Co9 O5 1_555 1_555
Co12 O21 1_555 1_555
O26 Co1 1_555 1_555
O27 Co3 1_555 1_555
O3 C1 1_555 1_555
C6 C8 1_555 1_555
C36 C37 1_555 1_555
C39 C41 1_555 1_555
H35 C43 1_555 1_555
H37 C43 1_555 1_555
O30 Co4 1_555 1_555
O32 Co4 1_555 1_555
O34 Co4 1_555 1_555
Co4 O25 1_555 1_555
H35_2 C43_2 1_555 1_555
H37_2 C43_2 1_555 1_555
O32_2 Co10 1_555 1_555
O34_2 Co10 1_555 1_555
O3_2 Co1_2 1_555 1_555
O4_2 C7_2 1_555 1_555
O5_2 C7_2 1_555 1_555
O9_2 Co1_2 1_555 1_555
O10_2 Co1_2 1_555 1_555
O11_2 Co1_2 1_555 1_555
N1_2 C4_2 1_555 1_555
N3_2 C17_2 1_555 1_555
N5_2 C23_2 1_555 1_555
C1_2 O2_2 1_555 1_555
C2_2 C1_2 1_555 1_555
C3_2 C2_2 1_555 1_555
H1_2 C3_2 1_555 1_555
C4_2 C3_2 1_555 1_555
C5_2 C4_2 1_555 1_555
H2_2 C5_2 1_555 1_555
C6_2 C5_2 1_555 1_555
C7_2 C6_2 1_555 1_555
C8_2 C2_2 1_555 1_555
H3_2 C8_2 1_555 1_555
C17_2 O9_2 1_555 1_555
H7_2 C17_2 1_555 1_555
C19_2 N3_2 1_555 1_555
H13_2 C19_2 1_555 1_555
C20_2 O10_2 1_555 1_555
H14_2 C20_2 1_555 1_555
C23_2 O11_2 1_555 1_555
H21_2 C23_2 1_555 1_555
C24_2 N5_2 1_555 1_555
H22_2 C24_2 1_555 1_555
H23_2 C24_2 1_555 1_555
H24_2 C24_2 1_555 1_555
C25_2 N5_2 1_555 1_555
H25_2 C25_2 1_555 1_555
H26_2 C25_2 1_555 1_555
H27_2 C25_2 1_555 1_555
O12_2 N1_2 1_555 1_555
O18_2 C34_2 1_555 1_555
O19_2 C34_2 1_555 1_555
O20_2 C40_2 1_555 1_555
O21_2 C40_2 1_555 1_555
N7_2 N1_2 1_555 1_555
C34_2 C35_2 1_555 1_555
C35_2 C36_2 1_555 1_555
C36_2 H31_2 1_555 1_555
C37_2 N7_2 1_555 1_555
C38_2 C37_2 1_555 1_555
H32_2 C38_2 1_555 1_555
C39_2 C38_2 1_555 1_555
C40_2 C39_2 1_555 1_555
C41_2 C35_2 1_555 1_555
H33_2 C41_2 1_555 1_555
Co6 O19_2 1_555 1_555
O22_2 Co6 1_555 1_555
O23_2 Co6 1_555 1_555
O24_2 Co6 1_555 1_555
N8_2 C42_2 1_555 1_555
N9 C45_2 1_555 1_555
N10_2 C48_2 1_555 1_555
C42_2 O22_2 1_555 1_555
H34_2 C42_2 1_555 1_555
C44_2 N8_2 1_555 1_555
H40_2 C44_2 1_555 1_555
C45_2 O23_2 1_555 1_555
H41_2 C45_2 1_555 1_555
C46 N9 1_555 1_555
H43 C46 1_555 1_555
H44 C46 1_555 1_555
C47 N9 1_555 1_555
H45 C47 1_555 1_555
H46 C47 1_555 1_555
H47 C47 1_555 1_555
C48_2 O24_2 1_555 1_555
H48_2 C48_2 1_555 1_555
C49_2 N10_2 1_555 1_555
H49_2 C49_2 1_555 1_555
H50_2 C49_2 1_555 1_555
H51_2 C49_2 1_555 1_555
C50_2 N10_2 1_555 1_555
H52_2 C50_2 1_555 1_555
H53_2 C50_2 1_555 1_555
H54_2 C50_2 1_555 1_555
Co8 O5_2 1_555 1_555
Co11 O21_2 1_555 1_555
O26_2 Co1_2 1_555 1_555
O27_2 Co6 1_555 1_555
O3_2 C1_2 1_555 1_555
C6_2 C8_2 1_555 1_555
C36_2 C37_2 1_555 1_555
C39_2 C41_2 1_555 1_555
Co2_2 O1_2 1_555 1_555
O1_2 C9_2 1_555 1_555
O6_2 Co2_2 1_555 1_555
O7_2 C15_2 1_555 1_555
O8_2 C15_2 1_555 1_555
N2_2 C12_2 1_555 1_555
C9_2 O6_2 1_555 1_555
C10_2 C9_2 1_555 1_555
C11_2 C10_2 1_555 1_555
H4_2 C11_2 1_555 1_555
C12_2 C11_2 1_555 1_555
C13_2 C12_2 1_555 1_555
H5_2 C13_2 1_555 1_555
C14_2 C13_2 1_555 1_555
C15_2 C14_2 1_555 1_555
C16_2 C10_2 1_555 1_555
H6_2 C16_2 1_555 1_555
H8_2 C18_2 1_555 1_555
H10_2 C18_2 1_555 1_555
O13_2 N2_2 1_555 1_555
Co8 O7_2 1_555 1_555
O31_2 Co2_2 1_555 1_555
O33_2 Co2_2 1_555 1_555
O8_2 Co8 1_555 1_555
C14_2 C16_2 1_555 1_555
O25 C26_2 1_555 1_555
O30 C26_2 1_555 1_555
O16_2 C32_2 1_555 1_555
O17_2 C32_2 1_555 1_555
C26_2 C27_2 1_555 1_555
C27_2 C28_2 1_555 1_555
C28_2 H28_2 1_555 1_555
C29_2 N6_2 1_555 1_555
C30_2 C29_2 1_555 1_555
H29_2 C30_2 1_555 1_555
C31_2 C30_2 1_555 1_555
C32_2 C31_2 1_555 1_555
C33_2 C27_2 1_555 1_555
H30_2 C33_2 1_555 1_555
Co12 O16_2 1_555 1_555
O17_2 Co12 1_555 1_555
C28_2 C29_2 1_555 1_555
C31_2 C33_2 1_555 1_555
Co5 O1_3 1_555 1_555
O1_3 C9_3 1_555 1_555
O3_3 Co5 1_555 1_555
O26 C7_3 1_555 1_555
O28 C7_3 1_555 1_555
O31 C15_3 1_555 1_555
O33 C15_3 1_555 1_555
O9_3 Co5 1_555 1_555
O10_3 Co5 1_555 1_555
O11_3 Co5 1_555 1_555
N1_3 C4_3 1_555 1_555
N2_3 C12_3 1_555 1_555
N3_3 C17_3 1_555 1_555
N4_2 C20_3 1_555 1_555
N5_3 C23_3 1_555 1_555
C1_3 O2_3 1_555 1_555
C2_3 C1_3 1_555 1_555
C3_3 C2_3 1_555 1_555
H1_3 C3_3 1_555 1_555
C4_3 C3_3 1_555 1_555
C5_3 C4_3 1_555 1_555
H2_3 C5_3 1_555 1_555
C6_3 C5_3 1_555 1_555
C7_3 C6_3 1_555 1_555
C8_3 C2_3 1_555 1_555
H3_3 C8_3 1_555 1_555
C9_3 O6_3 1_555 1_555
C10_3 C9_3 1_555 1_555
C11_3 C10_3 1_555 1_555
H4_3 C11_3 1_555 1_555
C12_3 C11_3 1_555 1_555
C13_3 C12_3 1_555 1_555
H5_3 C13_3 1_555 1_555
C14_3 C13_3 1_555 1_555
C15_3 C14_3 1_555 1_555
C16_3 C10_3 1_555 1_555
H6_3 C16_3 1_555 1_555
C17_3 O9_3 1_555 1_555
H7_3 C17_3 1_555 1_555
C18_3 N3_3 1_555 1_555
H8_3 C18_3 1_555 1_555
H9_3 C18_3 1_555 1_555
H10_3 C18_3 1_555 1_555
C19_3 N3_3 1_555 1_555
H11_3 C19_3 1_555 1_555
H12_3 C19_3 1_555 1_555
H13_3 C19_3 1_555 1_555
C20_3 O10_3 1_555 1_555
H14_3 C20_3 1_555 1_555
C21_2 N4_2 1_555 1_555
H15_3 C21_2 1_555 1_555
C22_2 N4_2 1_555 1_555
H18_2 C22_2 1_555 1_555
H19_2 C22_2 1_555 1_555
H20_2 C22_2 1_555 1_555
C23_3 O11_3 1_555 1_555
H21_3 C23_3 1_555 1_555
C24_3 N5_3 1_555 1_555
H23_3 C24_3 1_555 1_555
H24_3 C24_3 1_555 1_555
C25_3 N5_3 1_555 1_555
H25_3 C25_3 1_555 1_555
H26_3 C25_3 1_555 1_555
H27_3 C25_3 1_555 1_555
O12_3 N1_3 1_555 1_555
O13_3 N2_3 1_555 1_555
O14_2 C26_3 1_555 1_555
O15_2 C26_3 1_555 1_555
O32 C32_3 1_555 1_555
O34 C32_3 1_555 1_555
N6_3 N2_3 1_555 1_555
C26_3 C27_3 1_555 1_555
C27_3 C28_3 1_555 1_555
C28_3 H28_3 1_555 1_555
C29_3 N6_3 1_555 1_555
C30_3 C29_3 1_555 1_555
H29_3 C30_3 1_555 1_555
C31_3 C30_3 1_555 1_555
C32_3 C31_3 1_555 1_555
C33_3 C27_3 1_555 1_555
H30_3 C33_3 1_555 1_555
O18_3 C34_3 1_555 1_555
O19_3 C34_3 1_555 1_555
O27_2 C40_3 1_555 1_555
O29_2 C40_3 1_555 1_555
N7_3 N1_3 1_555 1_555
C34_3 C35_3 1_555 1_555
C35_3 C36_3 1_555 1_555
C36_3 H31_3 1_555 1_555
C37_3 N7_3 1_555 1_555
C38_3 C37_3 1_555 1_555
H32_3 C38_3 1_555 1_555
C39_3 C38_3 1_555 1_555
C40_3 C39_3 1_555 1_555
C41_3 C35_3 1_555 1_555
H33_3 C41_3 1_555 1_555
Co7_2 O19_3 1_555 1_555
O22_3 Co7_2 1_555 1_555
O23_3 Co7_2 1_555 1_555
O24_3 Co7_2 1_555 1_555
N8_3 C42_3 1_555 1_555
N9_2 C45_3 1_555 1_555
N10_3 C48_3 1_555 1_555
C42_3 O22_3 1_555 1_555
H34_3 C42_3 1_555 1_555
C43_3 N8_3 1_555 1_555
H35_3 C43_3 1_555 1_555
H36_3 C43_3 1_555 1_555
H37_3 C43_3 1_555 1_555
C44_3 N8_3 1_555 1_555
H38_3 C44_3 1_555 1_555
H39_3 C44_3 1_555 1_555
H40_3 C44_3 1_555 1_555
C45_3 O23_3 1_555 1_555
H41_3 C45_3 1_555 1_555
C46_2 N9_2 1_555 1_555
H42_3 C46_2 1_555 1_555
C47_2 N9_2 1_555 1_555
H45_2 C47_2 1_555 1_555
H46_2 C47_2 1_555 1_555
H47_2 C47_2 1_555 1_555
C48_3 O24_3 1_555 1_555
H48_3 C48_3 1_555 1_555
C49_3 N10_3 1_555 1_555
H50_3 C49_3 1_555 1_555
H51_3 C49_3 1_555 1_555
C50_3 N10_3 1_555 1_555
H52_3 C50_3 1_555 1_555
H53_3 C50_3 1_555 1_555
H54_3 C50_3 1_555 1_555
Co7 O14_2 1_555 1_555
O25_2 Co7_2 1_555 1_555
O3_3 C1_3 1_555 1_555
C6_3 C8_3 1_555 1_555
C14_3 C16_3 1_555 1_555
C28_3 C29_3 1_555 1_555
C31_3 C33_3 1_555 1_555
C36_3 C37_3 1_555 1_555
C39_3 C41_3 1_555 1_555
Co5_2 O1_4 1_555 1_555
O1_4 C9_4 1_555 1_555
O3_4 Co5_2 1_555 1_555
O26_2 C7_4 1_555 1_555
O28_2 C7_4 1_555 1_555
O31_2 C15_4 1_555 1_555
O33_2 C15_4 1_555 1_555
O9_4 Co5_2 1_555 1_555
O10_4 Co5_2 1_555 1_555
O11_4 Co5_2 1_555 1_555
N1_4 C4_4 1_555 1_555
N2_4 C12_4 1_555 1_555
N3_4 C17_4 1_555 1_555
N4_3 C20_4 1_555 1_555
N5_4 C23_4 1_555 1_555
C1_4 O2_4 1_555 1_555
C2_4 C1_4 1_555 1_555
C3_4 C2_4 1_555 1_555
H1_4 C3_4 1_555 1_555
C4_4 C3_4 1_555 1_555
C5_4 C4_4 1_555 1_555
H2_4 C5_4 1_555 1_555
C6_4 C5_4 1_555 1_555
C7_4 C6_4 1_555 1_555
C8_4 C2_4 1_555 1_555
H3_4 C8_4 1_555 1_555
C9_4 O6_4 1_555 1_555
C10_4 C9_4 1_555 1_555
C11_4 C10_4 1_555 1_555
H4_4 C11_4 1_555 1_555
C12_4 C11_4 1_555 1_555
C13_4 C12_4 1_555 1_555
H5_4 C13_4 1_555 1_555
C14_4 C13_4 1_555 1_555
C15_4 C14_4 1_555 1_555
C16_4 C10_4 1_555 1_555
H6_4 C16_4 1_555 1_555
C17_4 O9_4 1_555 1_555
H7_4 C17_4 1_555 1_555
C18_4 N3_4 1_555 1_555
H8_4 C18_4 1_555 1_555
H9_4 C18_4 1_555 1_555
H10_4 C18_4 1_555 1_555
C19_4 N3_4 1_555 1_555
H11_4 C19_4 1_555 1_555
H12_4 C19_4 1_555 1_555
H13_4 C19_4 1_555 1_555
C20_4 O10_4 1_555 1_555
H14_4 C20_4 1_555 1_555
C21_3 N4_3 1_555 1_555
H15_4 C21_3 1_555 1_555
C22_3 N4_3 1_555 1_555
H18_3 C22_3 1_555 1_555
H19_3 C22_3 1_555 1_555
H20_3 C22_3 1_555 1_555
C23_4 O11_4 1_555 1_555
H21_4 C23_4 1_555 1_555
C24_4 N5_4 1_555 1_555
H23_4 C24_4 1_555 1_555
H24_4 C24_4 1_555 1_555
C25_4 N5_4 1_555 1_555
H25_4 C25_4 1_555 1_555
H26_4 C25_4 1_555 1_555
H27_4 C25_4 1_555 1_555
O12_4 N1_4 1_555 1_555
O13_4 N2_4 1_555 1_555
O25_2 C26_4 1_555 1_555
O30_2 C26_4 1_555 1_555
O32_2 C32_4 1_555 1_555
O34_2 C32_4 1_555 1_555
N6_4 N2_4 1_555 1_555
C26_4 C27_4 1_555 1_555
C27_4 C28_4 1_555 1_555
C28_4 H28_4 1_555 1_555
C29_4 N6_4 1_555 1_555
C30_4 C29_4 1_555 1_555
H29_4 C30_4 1_555 1_555
C31_4 C30_4 1_555 1_555
C32_4 C31_4 1_555 1_555
C33_4 C27_4 1_555 1_555
H30_4 C33_4 1_555 1_555
O3_4 C1_4 1_555 1_555
C6_4 C8_4 1_555 1_555
C14_4 C16_4 1_555 1_555
C28_4 C29_4 1_555 1_555
C31_4 C33_4 1_555 1_555
O18_4 C34_4 1_555 1_555
O19_4 C34_4 1_555 1_555
O27 C40_4 1_555 1_555
O29 C40_4 1_555 1_555
C34_4 C35_4 1_555 1_555
C35_4 C36_4 1_555 1_555
C36_4 H31_4 1_555 1_555
C37_4 N7_4 1_555 1_555
C38_4 C37_4 1_555 1_555
H32_4 C38_4 1_555 1_555
C39_4 C38_4 1_555 1_555
C40_4 C39_4 1_555 1_555
C41_4 C35_4 1_555 1_555
H33_4 C41_4 1_555 1_555
Co7 O19_4 1_555 1_555
O22_4 Co7 1_555 1_555
O23_4 Co7 1_555 1_555
O24_4 Co7 1_555 1_555
N8_4 C42_4 1_555 1_555
N9_3 C45_4 1_555 1_555
N10_4 C48_4 1_555 1_555
C42_4 O22_4 1_555 1_555
H34_4 C42_4 1_555 1_555
C43_4 N8_4 1_555 1_555
H35_4 C43_4 1_555 1_555
H36_4 C43_4 1_555 1_555
H37_4 C43_4 1_555 1_555
C44_4 N8_4 1_555 1_555
H38_4 C44_4 1_555 1_555
H39_4 C44_4 1_555 1_555
H40_4 C44_4 1_555 1_555
C45_4 O23_4 1_555 1_555
H41_4 C45_4 1_555 1_555
C46_3 N9_3 1_555 1_555
H42_4 C46_3 1_555 1_555
C47_3 N9_3 1_555 1_555
H45_3 C47_3 1_555 1_555
H46_3 C47_3 1_555 1_555
H47_3 C47_3 1_555 1_555
C48_4 O24_4 1_555 1_555
H48_4 C48_4 1_555 1_555
C49_4 N10_4 1_555 1_555
H50_4 C49_4 1_555 1_555
H51_4 C49_4 1_555 1_555
C50_4 N10_4 1_555 1_555
H52_4 C50_4 1_555 1_555
H53_4 C50_4 1_555 1_555
H54_4 C50_4 1_555 1_555
C36_4 C37_4 1_555 1_555
C39_4 C41_4 1_555 1_555
O12_5 N7 1_555 1_555
O13_5 N6_2 1_555 1_555
O13_6 N6 1_555 1_555
O12_6 N7_2 1_555 1_555
O12_7 N7_3 1_555 1_555
O13_7 N6_4 1_555 1_555
O12_8 N7_4 1_555 1_555
O13_8 N6_3 1_555 1_555
C46_4 N9_4 1_555 1_555
H43_4 C46_4 1_555 1_555
H44_4 C46_4 1_555 1_555
C47_4 N9_4 1_555 1_555
H45_4 C47_4 1_555 1_555
H46_4 C47_4 1_555 1_555
H47_4 C47_4 1_555 1_555
C21_4 N4_4 1_555 1_555
H16_4 C21_4 1_555 1_555
H17_4 C21_4 1_555 1_555
C22_4 N4_4 1_555 1_555
H18_4 C22_4 1_555 1_555
H19_4 C22_4 1_555 1_555
H20_4 C22_4 1_555 1_555

#END
