
###############################################################################
#
# This file contains modified crystal structure data generated from the
# MOF subset of the Cambridge Structural Database (CSD) v543 
# hosted by the Cambridge Crystallographic Data Centre (CCDC).
#
# This work is licensed under the Creative Commons
# Attribution-NonCommercial-ShareAlike 4.0 International License.
# To view a copy of this license, visit
# http://creativecommons.org/licenses/by-nc-sa/4.0/
# or send a letter to
# Creative Commons, PO Box 1866, Mountain View, CA 94042, USA.
#
# CIF created using the CSD Python API on 29 September 2022
# The structure has been converted into the P1 space group
# The structure has a 3D framework
# The original CSD entry LIZQET is in the orthorhombic crystal system
# The framework has been calculated to contain at least 10.0% void space
# The void calculation uses a probe of radius 1.32A, grid spacing 0.4
# H atom positions have been added when not included in the experimental data
# Generated hydrogen atom positions removed from atoms on special positions
#
###############################################################################

data_LIZQET
_chemical_formula_moiety         '(C112 H256 As16 Ba16 O144 Pd34)n'
_symmetry_cell_setting           triclinic
_symmetry_space_group_name_H-M   'P 1'
_symmetry_Int_Tables_number      1
_space_group_name_Hall           'P 1'
loop_
_symmetry_equiv_pos_site_id
_symmetry_equiv_pos_as_xyz
1 x,y,z
_cell_length_a                   16.8628(12)
_cell_length_b                   20.1743(15)
_cell_length_c                   27.8022(19)
_cell_angle_alpha                90
_cell_angle_beta                 90
_cell_angle_gamma                90
_cell_volume                     9458.17
loop_
_atom_site_label
_atom_site_type_symbol
_atom_site_fract_x
_atom_site_fract_y
_atom_site_fract_z
Pd3 Pd -0.0000 0.5000 0.5000
Pd4 Pd 0.04954(4) 0.61056(3) 0.58470(2)
Pd5 Pd 0.18067(5) 0.56758(4) 0.5000
As2 As 0.23234(5) 0.58757(4) 0.60840(3)
Ba1 Ba 0.19956(4) 0.44700(3) 0.71099(2)
Ba2 Ba 0.08368(5) 0.66126(4) 0.70619(3)
O2 O 0.1027(3) 0.5391(3) 0.5483(2)
O6 O 0.2605(4) 0.5969(3) 0.5507(2)
O7 O 0.1516(4) 0.6347(3) 0.6210(2)
O8 O 0.2192(4) 0.5067(3) 0.6231(2)
O11 O 0.5060(10) 0.7539(6) 0.7416(6)
O12 O 0.5586(6) 0.6531(5) 0.7493(4)
O13 O 0.1127(8) 0.4706(7) 0.7959(4)
O14 O 0.0763(11) 0.3636(9) 0.7317(7)
O15 O 0.0565(6) 0.5208(4) 0.6896(3)
O16 O 0.0499(8) 0.6004(7) 0.7950(4)
O17 O 0.1475(12) 0.7809(8) 0.6870(8)
C8 C 0.3176(5) 0.6215(5) 0.6461(4)
C9 C 0.3740(6) 0.5781(6) 0.6643(4)
H5 H 0.3705 0.5318 0.6583
C10 C 0.4355(7) 0.6037(7) 0.6915(5)
H6 H 0.4742 0.5745 0.7045
C11 C 0.4417(7) 0.6702(8) 0.7000(5)
C12 C 0.3862(9) 0.7141(7) 0.6799(6)
H7 H 0.3912 0.7605 0.6849
C13 C 0.3231(7) 0.6887(6) 0.6526(6)
H8 H 0.2850 0.7177 0.6388
C14 C 0.5097(11) 0.6938(8) 0.7324(6)
O18 O 0.3438(6) 0.3995(5) 0.6824(4)
Pd6 Pd 0.08324(5) 0.34829(4) 0.5000
Pd7 Pd 0.13152(4) 0.45900(3) 0.58560(2)
As3 As 0.10501(5) 0.30812(4) 0.61022(3)
O19 O 0.0483(3) 0.4122(3) 0.5491(2)
O21 O 0.0072(4) 0.3161(3) 0.6231(2)
O22 O 0.1193(4) 0.2837(3) 0.5523(2)
O23 O 0.1601(4) 0.3762(3) 0.6242(2)
O27 O 0.2932(4) 0.0890(4) 0.7631(3)
O28 O 0.2044(5) 0.0217(4) 0.7294(3)
C15 C 0.1449(5) 0.2380(4) 0.6488(3)
C16 C 0.0981(6) 0.1837(5) 0.6583(4)
H9 H 0.0451 0.1819 0.6469
C17 C 0.1298(7) 0.1309(5) 0.6851(5)
H10 H 0.0983 0.0926 0.6904
C18 C 0.2052(6) 0.1334(5) 0.7039(3)
C19 C 0.2527(7) 0.1897(6) 0.6931(5)
H11 H 0.3056 0.1921 0.7047
C20 C 0.2220(7) 0.2408(6) 0.6658(5)
H12 H 0.2541 0.2783 0.6586
C21 C 0.2365(7) 0.0771(6) 0.7336(4)
Pd10 Pd 0.13152(4) 0.45900(3) 0.41440(2)
As5 As 0.10501(5) 0.30812(4) 0.38978(3)
O37 O 0.0483(3) 0.4122(3) 0.4509(2)
O39 O 0.0072(4) 0.3161(3) 0.3769(2)
O40 O 0.1193(4) 0.2837(3) 0.4477(2)
O41 O 0.1601(4) 0.3762(3) 0.3758(2)
O45 O 0.2932(4) 0.0890(4) 0.2369(3)
O46 O 0.2044(5) 0.0217(4) 0.2706(3)
C29 C 0.1449(5) 0.2380(4) 0.3512(3)
C30 C 0.0981(6) 0.1837(5) 0.3417(4)
H17 H 0.0451 0.1819 0.3531
C31 C 0.1298(7) 0.1309(5) 0.3149(5)
H18 H 0.0983 0.0926 0.3096
C32 C 0.2052(6) 0.1334(5) 0.2961(3)
C33 C 0.2527(7) 0.1897(6) 0.3069(5)
H19 H 0.3056 0.1921 0.2953
C34 C 0.2220(7) 0.2408(6) 0.3342(5)
H20 H 0.2541 0.2783 0.3414
C35 C 0.2365(7) 0.0771(6) 0.2664(4)
Pd13 Pd 0.04954(4) 0.61056(3) 0.41530(2)
As8 As 0.23234(5) 0.58757(4) 0.39160(3)
Ba7 Ba 0.19956(4) 0.44700(3) 0.28901(2)
Ba8 Ba 0.08368(5) 0.66126(4) 0.29381(3)
O56 O 0.1027(3) 0.5391(3) 0.4517(2)
O60 O 0.2605(4) 0.5969(3) 0.4493(2)
O61 O 0.1516(4) 0.6347(3) 0.3790(2)
O62 O 0.2192(4) 0.5067(3) 0.3769(2)
O65 O 0.5060(10) 0.7539(6) 0.2584(6)
O66 O 0.5586(6) 0.6531(5) 0.2507(4)
O67 O 0.1127(8) 0.4706(7) 0.2041(4)
O68 O 0.0763(11) 0.3636(9) 0.2683(7)
O69 O 0.0565(6) 0.5208(4) 0.3104(3)
O70 O 0.0499(8) 0.6004(7) 0.2050(4)
O71 O 0.1475(12) 0.7809(8) 0.3130(8)
C50 C 0.3176(5) 0.6215(5) 0.3539(4)
C51 C 0.3740(6) 0.5781(6) 0.3357(4)
H29 H 0.3705 0.5318 0.3417
C52 C 0.4355(7) 0.6037(7) 0.3085(5)
H30 H 0.4742 0.5745 0.2955
C53 C 0.4417(7) 0.6702(8) 0.3000(5)
C54 C 0.3862(9) 0.7141(7) 0.3201(6)
H31 H 0.3912 0.7605 0.3151
C55 C 0.3231(7) 0.6887(6) 0.3474(6)
H32 H 0.2850 0.7177 0.3612
C56 C 0.5097(11) 0.6938(8) 0.2676(6)
O72 O 0.3438(6) 0.3995(5) 0.3176(4)
Ba14 Ba 0.41632(5) 0.16126(4) 0.79381(3)
Ba16 Ba 0.58368(5) 0.83874(4) 0.79381(3)
Ba18 Ba 0.58368(5) 0.83874(4) 0.20619(3)
Ba20 Ba 0.41632(5) 0.16126(4) 0.20619(3)
O74 O 0.2068(4) 0.5890(4) 0.7369(3)
O75 O 0.2068(4) 0.5890(4) 0.2631(3)
O78 O 0.2956(5) 0.5217(4) 0.7706(3)
O79 O 0.2956(5) 0.5217(4) 0.2294(3)
O82 O 0.0060(10) 0.7461(6) 0.7584(6)
O83 O 0.0060(10) 0.7461(6) 0.2416(6)
Ba9 Ba 0.30044(4) 0.94700(3) 0.78901(2)
Ba12 Ba 0.30044(4) 0.94700(3) 0.21099(2)
Ba10 Ba 0.69956(4) 0.05300(3) 0.78901(2)
Ba11 Ba 0.69956(4) 0.05300(3) 0.21099(2)
Pd1 Pd 0.91676(5) 0.65171(4) 0.5000
Pd2 Pd 0.86848(4) 0.54100(3) 0.58560(2)
Pd3_2 Pd 1.0000 0.5000 0.5000
As1 As 0.89499(5) 0.69188(4) 0.61022(3)
O1 O 0.9517(3) 0.5878(3) 0.5491(2)
O3 O 0.9928(4) 0.6839(3) 0.6231(2)
O4 O 0.8807(4) 0.7163(3) 0.5523(2)
O5 O 0.8399(4) 0.6238(3) 0.6242(2)
O9 O 0.7068(4) 0.9110(4) 0.7631(3)
O10 O 0.7956(5) 0.9783(4) 0.7294(3)
C1 C 0.8551(5) 0.7620(4) 0.6488(3)
C2 C 0.9019(6) 0.8163(5) 0.6583(4)
H1 H 0.9549 0.8181 0.6469
C3 C 0.8702(7) 0.8691(5) 0.6851(5)
H2 H 0.9017 0.9074 0.6904
C4 C 0.7948(6) 0.8666(5) 0.7039(3)
C5 C 0.7473(7) 0.8103(6) 0.6931(5)
H3 H 0.6944 0.8079 0.7047
C6 C 0.7780(7) 0.7592(6) 0.6658(5)
H4 H 0.7459 0.7217 0.6586
C7 C 0.7635(7) 0.9229(6) 0.7336(4)
Pd8 Pd 0.95046(4) 0.38944(3) 0.58470(2)
Pd9 Pd 0.81933(5) 0.43242(4) 0.5000
As4 As 0.76766(5) 0.41243(4) 0.60840(3)
Ba3 Ba 0.80044(4) 0.55300(3) 0.71099(2)
Ba4 Ba 0.91632(5) 0.33874(4) 0.70619(3)
O20 O 0.8973(3) 0.4609(3) 0.5483(2)
O24 O 0.7395(4) 0.4031(3) 0.5507(2)
O25 O 0.8484(4) 0.3653(3) 0.6210(2)
O26 O 0.7808(4) 0.4933(3) 0.6231(2)
O29 O 0.4940(10) 0.2461(6) 0.7416(6)
O30 O 0.4414(6) 0.3469(5) 0.7493(4)
O31 O 0.8873(8) 0.5294(7) 0.7959(4)
O32 O 0.9237(11) 0.6364(9) 0.7317(7)
O33 O 0.9435(6) 0.4792(4) 0.6896(3)
O34 O 0.9501(8) 0.3996(7) 0.7950(4)
O35 O 0.8525(12) 0.2191(8) 0.6870(8)
C22 C 0.6824(5) 0.3785(5) 0.6461(4)
C23 C 0.6260(6) 0.4219(6) 0.6643(4)
H13 H 0.6295 0.4682 0.6583
C24 C 0.5645(7) 0.3963(7) 0.6915(5)
H14 H 0.5258 0.4255 0.7045
C25 C 0.5583(7) 0.3298(8) 0.7000(5)
C26 C 0.6138(9) 0.2859(7) 0.6799(6)
H15 H 0.6088 0.2395 0.6849
C27 C 0.6769(7) 0.3113(6) 0.6526(6)
H16 H 0.7150 0.2823 0.6388
C28 C 0.4903(11) 0.3062(8) 0.7324(6)
O36 O 0.6562(6) 0.6005(5) 0.6824(4)
Pd11 Pd 0.95046(4) 0.38944(3) 0.41530(2)
As6 As 0.76766(5) 0.41243(4) 0.39160(3)
Ba5 Ba 0.80044(4) 0.55300(3) 0.28901(2)
Ba6 Ba 0.91632(5) 0.33874(4) 0.29381(3)
O38 O 0.8973(3) 0.4609(3) 0.4517(2)
O42 O 0.7395(4) 0.4031(3) 0.4493(2)
O43 O 0.8484(4) 0.3653(3) 0.3790(2)
O44 O 0.7808(4) 0.4933(3) 0.3769(2)
O47 O 0.4940(10) 0.2461(6) 0.2584(6)
O48 O 0.4414(6) 0.3469(5) 0.2507(4)
O49 O 0.8873(8) 0.5294(7) 0.2041(4)
O50 O 0.9237(11) 0.6364(9) 0.2683(7)
O51 O 0.9435(6) 0.4792(4) 0.3104(3)
O52 O 0.9501(8) 0.3996(7) 0.2050(4)
O53 O 0.8525(12) 0.2191(8) 0.3130(8)
C36 C 0.6824(5) 0.3785(5) 0.3539(4)
C37 C 0.6260(6) 0.4219(6) 0.3357(4)
H21 H 0.6295 0.4682 0.3417
C38 C 0.5645(7) 0.3963(7) 0.3085(5)
H22 H 0.5258 0.4255 0.2955
C39 C 0.5583(7) 0.3298(8) 0.3000(5)
C40 C 0.6138(9) 0.2859(7) 0.3201(6)
H23 H 0.6088 0.2395 0.3151
C41 C 0.6769(7) 0.3113(6) 0.3474(6)
H24 H 0.7150 0.2823 0.3612
C42 C 0.4903(11) 0.3062(8) 0.2676(6)
O54 O 0.6562(6) 0.6005(5) 0.3176(4)
Pd12 Pd 0.86848(4) 0.54100(3) 0.41440(2)
As7 As 0.89499(5) 0.69188(4) 0.38978(3)
O55 O 0.9517(3) 0.5878(3) 0.4509(2)
O57 O 0.9928(4) 0.6839(3) 0.3769(2)
O58 O 0.8807(4) 0.7163(3) 0.4477(2)
O59 O 0.8399(4) 0.6238(3) 0.3758(2)
O63 O 0.7068(4) 0.9110(4) 0.2369(3)
O64 O 0.7956(5) 0.9783(4) 0.2706(3)
C43 C 0.8551(5) 0.7620(4) 0.3512(3)
C44 C 0.9019(6) 0.8163(5) 0.3417(4)
H25 H 0.9549 0.8181 0.3531
C45 C 0.8702(7) 0.8691(5) 0.3149(5)
H26 H 0.9017 0.9074 0.3096
C46 C 0.7948(6) 0.8666(5) 0.2961(3)
C47 C 0.7473(7) 0.8103(6) 0.3069(5)
H27 H 0.6944 0.8079 0.2953
C48 C 0.7780(7) 0.7592(6) 0.3342(5)
H28 H 0.7459 0.7217 0.3414
C49 C 0.7635(7) 0.9229(6) 0.2664(4)
O73 O 0.7932(4) 0.4110(4) 0.7369(3)
O76 O 0.7932(4) 0.4110(4) 0.2631(3)
O77 O 0.7044(5) 0.4783(4) 0.7706(3)
O80 O 0.7044(5) 0.4783(4) 0.2294(3)
O81 O 0.9940(10) 0.2539(6) 0.7584(6)
O84 O 0.9940(10) 0.2539(6) 0.2416(6)
O48_2 O 0.0586(6) 0.8469(5) 0.2493(4)
C42_2 C 0.0097(11) 0.8062(8) 0.2324(6)
O30_2 O 0.0586(6) 0.8469(5) 0.7507(4)
C28_2 C 0.0097(11) 0.8062(8) 0.7676(6)
Pd1_2 Pd 0.58324(5) 0.15171(4) -0.0000
Pd3_3 Pd 0.5000 -0.0000 -0.0000
Pd5_2 Pd 0.31933(5) 0.06758(4) -0.0000
O49_2 O 0.6127(8) 0.0294(7) 0.2959(4)
O50_2 O 0.5763(11) 0.1364(9) 0.2317(7)
O54_2 O 0.8438(6) 0.1005(5) 0.1824(4)
Pd12_2 Pd 0.63152(4) 0.04100(3) 0.08560(2)
Pd13_2 Pd 0.45046(4) 0.11056(3) 0.08470(2)
As7_2 As 0.60501(5) 0.19188(4) 0.11022(3)
As8_2 As 0.26766(5) 0.08757(4) 0.10840(3)
O55_2 O 0.5483(3) 0.0878(3) 0.0491(2)
O56_2 O 0.3973(3) 0.0391(3) 0.0483(2)
O57_2 O 0.5072(4) 0.1839(3) 0.1231(2)
O58_2 O 0.6193(4) 0.2163(3) 0.0523(2)
O59_2 O 0.6601(4) 0.1238(3) 0.1242(2)
O60_2 O 0.2395(4) 0.0969(3) 0.0507(2)
O61_2 O 0.3484(4) 0.1347(3) 0.1210(2)
O62_2 O 0.2808(4) 0.0067(3) 0.1231(2)
O69_2 O 0.4435(6) 0.0208(4) 0.1896(3)
O70_2 O 0.4501(8) 0.1004(7) 0.2950(4)
O71_2 O 0.3525(12) 0.2809(8) 0.1870(8)
C43_2 C 0.6449(5) 0.2620(4) 0.1488(3)
C44_2 C 0.5981(6) 0.3163(5) 0.1583(4)
H25_2 H 0.5451 0.3181 0.1469
C45_2 C 0.6298(7) 0.3691(5) 0.1851(5)
H26_2 H 0.5983 0.4074 0.1904
C46_2 C 0.7052(6) 0.3666(5) 0.2039(3)
C47_2 C 0.7527(7) 0.3103(6) 0.1931(5)
H27_2 H 0.8056 0.3079 0.2047
C48_2 C 0.7220(7) 0.2592(6) 0.1658(5)
H28_2 H 0.7541 0.2217 0.1586
C49_2 C 0.7365(7) 0.4229(6) 0.2336(4)
C50_2 C 0.1824(5) 0.1215(5) 0.1461(4)
C51_2 C 0.1260(6) 0.0781(6) 0.1643(4)
H29_2 H 0.1295 0.0318 0.1583
C52_2 C 0.0645(7) 0.1037(7) 0.1915(5)
H30_2 H 0.0258 0.0745 0.2045
C53_2 C 0.0583(7) 0.1702(8) 0.2000(5)
C54_2 C 0.1138(9) 0.2141(7) 0.1799(6)
H31_2 H 0.1088 0.2605 0.1849
C55_2 C 0.1769(7) 0.1887(6) 0.1526(6)
H32_2 H 0.2150 0.2177 0.1388
Pd1_3 Pd 0.58324(5) 0.15171(4) 1.0000
Pd2_2 Pd 0.63152(4) 0.04100(3) 0.91440(2)
Pd3_4 Pd 0.5000 -0.0000 1.0000
Pd4_2 Pd 0.45046(4) 0.11056(3) 0.91530(2)
Pd5_3 Pd 0.31933(5) 0.06758(4) 1.0000
As1_2 As 0.60501(5) 0.19188(4) 0.88978(3)
As2_2 As 0.26766(5) 0.08757(4) 0.89160(3)
O1_2 O 0.5483(3) 0.0878(3) 0.9509(2)
O2_2 O 0.3973(3) 0.0391(3) 0.9517(2)
O3_2 O 0.5072(4) 0.1839(3) 0.8769(2)
O4_2 O 0.6193(4) 0.2163(3) 0.9477(2)
O5_2 O 0.6601(4) 0.1238(3) 0.8758(2)
O6_2 O 0.2395(4) 0.0969(3) 0.9493(2)
O7_2 O 0.3484(4) 0.1347(3) 0.8790(2)
O8_2 O 0.2808(4) 0.0067(3) 0.8769(2)
O15_2 O 0.4435(6) 0.0208(4) 0.8104(3)
O16_2 O 0.4501(8) 0.1004(7) 0.7050(4)
O17_2 O 0.3525(12) 0.2809(8) 0.8130(8)
C1_2 C 0.6449(5) 0.2620(4) 0.8512(3)
C2_2 C 0.5981(6) 0.3163(5) 0.8417(4)
H1_2 H 0.5451 0.3181 0.8531
C3_2 C 0.6298(7) 0.3691(5) 0.8149(5)
H2_2 H 0.5983 0.4074 0.8096
C4_2 C 0.7052(6) 0.3666(5) 0.7961(3)
C5_2 C 0.7527(7) 0.3103(6) 0.8069(5)
H3_2 H 0.8056 0.3079 0.7953
C6_2 C 0.7220(7) 0.2592(6) 0.8342(5)
H4_2 H 0.7541 0.2217 0.8414
C7_2 C 0.7365(7) 0.4229(6) 0.7664(4)
C8_2 C 0.1824(5) 0.1215(5) 0.8539(4)
C9_2 C 0.1260(6) 0.0781(6) 0.8357(4)
H5_2 H 0.1295 0.0318 0.8417
C10_2 C 0.0645(7) 0.1037(7) 0.8085(5)
H6_2 H 0.0258 0.0745 0.7955
C11_2 C 0.0583(7) 0.1702(8) 0.8000(5)
C12_2 C 0.1138(9) 0.2141(7) 0.8201(6)
H7_2 H 0.1088 0.2605 0.8151
C13_2 C 0.1769(7) 0.1887(6) 0.8474(6)
H8_2 H 0.2150 0.2177 0.8612
O31_2 O 0.6127(8) 0.0294(7) 0.7041(4)
O32_2 O 0.5763(11) 0.1364(9) 0.7683(7)
O36_2 O 0.8438(6) 0.1005(5) 0.8176(4)
Pd3_5 Pd 0.5000 1.0000 -0.0000
Pd6_2 Pd 0.41676(5) 0.84829(4) -0.0000
Pd9_2 Pd 0.68067(5) 0.93242(4) -0.0000
Pd10_2 Pd 0.36848(4) 0.95900(3) 0.08560(2)
Pd11_2 Pd 0.54954(4) 0.88944(3) 0.08470(2)
As5_2 As 0.39499(5) 0.80812(4) 0.11022(3)
As6_2 As 0.73234(5) 0.91243(4) 0.10840(3)
O37_2 O 0.4517(3) 0.9122(3) 0.0491(2)
O38_2 O 0.6027(3) 0.9609(3) 0.0483(2)
O39_2 O 0.4928(4) 0.8161(3) 0.1231(2)
O40_2 O 0.3807(4) 0.7837(3) 0.0523(2)
O41_2 O 0.3399(4) 0.8762(3) 0.1242(2)
O42_2 O 0.7605(4) 0.9031(3) 0.0507(2)
O43_2 O 0.6516(4) 0.8653(3) 0.1210(2)
O44_2 O 0.7192(4) 0.9933(3) 0.1231(2)
O51_2 O 0.5565(6) 0.9792(4) 0.1896(3)
O52_2 O 0.5499(8) 0.8996(7) 0.2950(4)
O53_2 O 0.6475(12) 0.7191(8) 0.1870(8)
C29_2 C 0.3551(5) 0.7380(4) 0.1488(3)
C30_2 C 0.4019(6) 0.6837(5) 0.1583(4)
H17_2 H 0.4549 0.6819 0.1469
C31_2 C 0.3702(7) 0.6309(5) 0.1851(5)
H18_2 H 0.4017 0.5926 0.1904
C32_2 C 0.2948(6) 0.6334(5) 0.2039(3)
C33_2 C 0.2473(7) 0.6897(6) 0.1931(5)
H19_2 H 0.1944 0.6921 0.2047
C34_2 C 0.2780(7) 0.7408(6) 0.1658(5)
H20_2 H 0.2459 0.7783 0.1586
C35_2 C 0.2635(7) 0.5771(6) 0.2336(4)
C36_2 C 0.8176(5) 0.8785(5) 0.1461(4)
C37_2 C 0.8740(6) 0.9219(6) 0.1643(4)
H21_2 H 0.8705 0.9682 0.1583
C38_2 C 0.9355(7) 0.8963(7) 0.1915(5)
H22_2 H 0.9742 0.9255 0.2045
C39_2 C 0.9417(7) 0.8298(8) 0.2000(5)
C40_2 C 0.8862(9) 0.7859(7) 0.1799(6)
H23_2 H 0.8912 0.7395 0.1849
C41_2 C 0.8231(7) 0.8113(6) 0.1526(6)
H24_2 H 0.7850 0.7823 0.1388
O67_2 O 0.3873(8) 0.9706(7) 0.2959(4)
O68_2 O 0.4237(11) 0.8636(9) 0.2317(7)
O72_2 O 0.1562(6) 0.8995(5) 0.1824(4)
H59 H 0.628519 0.985978 0.309713
Pd3_6 Pd 0.5000 1.0000 1.0000
O13_2 O 0.3873(8) 0.9706(7) 0.7041(4)
O14_2 O 0.4237(11) 0.8636(9) 0.7683(7)
O18_2 O 0.1562(6) 0.8995(5) 0.8176(4)
Pd6_3 Pd 0.41676(5) 0.84829(4) 1.0000
Pd7_2 Pd 0.36848(4) 0.95900(3) 0.91440(2)
Pd8_2 Pd 0.54954(4) 0.88944(3) 0.91530(2)
Pd9_3 Pd 0.68067(5) 0.93242(4) 1.0000
As3_2 As 0.39499(5) 0.80812(4) 0.88978(3)
As4_2 As 0.73234(5) 0.91243(4) 0.89160(3)
O19_2 O 0.4517(3) 0.9122(3) 0.9509(2)
O20_2 O 0.6027(3) 0.9609(3) 0.9517(2)
O21_2 O 0.4928(4) 0.8161(3) 0.8769(2)
O22_2 O 0.3807(4) 0.7837(3) 0.9477(2)
O23_2 O 0.3399(4) 0.8762(3) 0.8758(2)
O24_2 O 0.7605(4) 0.9031(3) 0.9493(2)
O25_2 O 0.6516(4) 0.8653(3) 0.8790(2)
O26_2 O 0.7192(4) 0.9933(3) 0.8769(2)
O33_2 O 0.5565(6) 0.9792(4) 0.8104(3)
O34_2 O 0.5499(8) 0.8996(7) 0.7050(4)
O35_2 O 0.6475(12) 0.7191(8) 0.8130(8)
C15_2 C 0.3551(5) 0.7380(4) 0.8512(3)
C16_2 C 0.4019(6) 0.6837(5) 0.8417(4)
H9_2 H 0.4549 0.6819 0.8531
C17_2 C 0.3702(7) 0.6309(5) 0.8149(5)
H10_2 H 0.4017 0.5926 0.8096
C18_2 C 0.2948(6) 0.6334(5) 0.7961(3)
C19_2 C 0.2473(7) 0.6897(6) 0.8069(5)
H11_2 H 0.1944 0.6921 0.7953
C20_2 C 0.2780(7) 0.7408(6) 0.8342(5)
H12_2 H 0.2459 0.7783 0.8414
C21_2 C 0.2635(7) 0.5771(6) 0.7664(4)
C22_2 C 0.8176(5) 0.8785(5) 0.8539(4)
C23_2 C 0.8740(6) 0.9219(6) 0.8357(4)
H13_2 H 0.8705 0.9682 0.8417
C24_2 C 0.9355(7) 0.8963(7) 0.8085(5)
H14_2 H 0.9742 0.9255 0.7955
C25_2 C 0.9417(7) 0.8298(8) 0.8000(5)
C26_2 C 0.8862(9) 0.7859(7) 0.8201(6)
H15_2 H 0.8912 0.7395 0.8151
C27_2 C 0.8231(7) 0.8113(6) 0.8474(6)
H16_2 H 0.7850 0.7823 0.8612
O66_2 O 0.9414(6) 0.1531(5) 0.2493(4)
C56_2 C 0.9903(11) 0.1938(8) 0.2324(6)
O12_2 O 0.9414(6) 0.1531(5) 0.7507(4)
C14_2 C 0.9903(11) 0.1938(8) 0.7676(6)
H59_2 H 0.371481 0.0140223 0.309713
H59_3 H 0.371481 0.0140223 0.690287
H59_4 H 0.628519 0.985978 0.690287
loop_
_geom_bond_atom_site_label_1
_geom_bond_atom_site_label_2
_geom_bond_site_symmetry_1
_geom_bond_site_symmetry_2
Pd5 O2 1_555 1_555
As2 O6 1_555 1_555
Ba1 O8 1_555 1_555
O2 Pd3 1_555 1_555
O6 Pd5 1_555 1_555
O7 Pd4 1_555 1_555
O8 As2 1_555 1_555
O11 C14 1_555 1_555
O12 C14 1_555 1_555
O13 Ba1 1_555 1_555
O14 Ba1 1_555 1_555
O15 Ba1 1_555 1_555
O16 Ba2 1_555 1_555
O17 Ba2 1_555 1_555
C8 As2 1_555 1_555
C9 C8 1_555 1_555
H5 C9 1_555 1_555
C10 C9 1_555 1_555
H6 C10 1_555 1_555
C11 C10 1_555 1_555
C12 C11 1_555 1_555
H7 C12 1_555 1_555
C13 C8 1_555 1_555
H8 C13 1_555 1_555
C14 C11 1_555 1_555
O18 Ba1 1_555 1_555
Pd6 O19 1_555 1_555
Pd7 O2 1_555 1_555
As3 O21 1_555 1_555
O19 Pd3 1_555 1_555
O22 Pd6 1_555 1_555
O23 Ba1 1_555 1_555
O27 C21 1_555 1_555
O28 C21 1_555 1_555
C15 As3 1_555 1_555
C16 C15 1_555 1_555
H9 C16 1_555 1_555
C17 C16 1_555 1_555
H10 C17 1_555 1_555
C18 C17 1_555 1_555
C19 C18 1_555 1_555
H11 C19 1_555 1_555
C20 C15 1_555 1_555
H12 C20 1_555 1_555
C21 C18 1_555 1_555
Pd10 O37 1_555 1_555
As5 O39 1_555 1_555
O37 Pd3 1_555 1_555
O40 Pd6 1_555 1_555
O41 Pd10 1_555 1_555
O45 C35 1_555 1_555
O46 C35 1_555 1_555
C29 As5 1_555 1_555
C30 C29 1_555 1_555
H17 C30 1_555 1_555
C31 C30 1_555 1_555
H18 C31 1_555 1_555
C32 C31 1_555 1_555
C33 C32 1_555 1_555
H19 C33 1_555 1_555
C34 C29 1_555 1_555
H20 C34 1_555 1_555
C35 C32 1_555 1_555
As8 O60 1_555 1_555
Ba7 O41 1_555 1_555
O56 Pd3 1_555 1_555
O60 Pd5 1_555 1_555
O61 Pd13 1_555 1_555
O62 Pd10 1_555 1_555
O65 C56 1_555 1_555
O66 C56 1_555 1_555
O67 Ba7 1_555 1_555
O69 Ba7 1_555 1_555
O70 Ba8 1_555 1_555
O71 Ba8 1_555 1_555
C50 As8 1_555 1_555
C51 C50 1_555 1_555
H29 C51 1_555 1_555
C52 C51 1_555 1_555
H30 C52 1_555 1_555
C53 C52 1_555 1_555
C54 C53 1_555 1_555
H31 C54 1_555 1_555
C55 C50 1_555 1_555
H32 C55 1_555 1_555
C56 C53 1_555 1_555
O72 Ba7 1_555 1_555
Ba14 O27 1_555 1_555
Ba16 O11 1_555 1_555
Ba18 O65 1_555 1_555
Ba20 O45 1_555 1_555
O74 Ba1 1_555 1_555
O75 Ba7 1_555 1_555
O78 Ba1 1_555 1_555
O79 Ba7 1_555 1_555
O82 Ba2 1_555 1_555
O83 Ba8 1_555 1_555
Pd4 O2 1_555 1_555
Pd5 O56 1_555 1_555
As2 O7 1_555 1_555
Ba2 O7 1_555 1_555
Ba2 O15 1_555 1_555
Ba2 O74 1_555 1_555
O8 Pd7 1_555 1_555
C12 C13 1_555 1_555
Pd6 O37 1_555 1_555
Pd7 O19 1_555 1_555
Pd7 O23 1_555 1_555
As3 O22 1_555 1_555
As3 O23 1_555 1_555
C19 C20 1_555 1_555
Pd10 O56 1_555 1_555
As5 O40 1_555 1_555
As5 O41 1_555 1_555
C33 C34 1_555 1_555
Pd13 O56 1_555 1_555
As8 O61 1_555 1_555
As8 O62 1_555 1_555
Ba7 O62 1_555 1_555
Ba7 O68 1_555 1_555
Ba8 O61 1_555 1_555
Ba8 O69 1_555 1_555
Ba8 O75 1_555 1_555
C54 C55 1_555 1_555
Pd1 O1 1_555 1_555
Pd2 O1 1_555 1_555
Pd3_2 O1 1_555 1_555
As1 O3 1_555 1_555
O4 Pd1 1_555 1_555
O5 Pd2 1_555 1_555
O9 C7 1_555 1_555
O10 C7 1_555 1_555
C1 As1 1_555 1_555
C2 C1 1_555 1_555
H1 C2 1_555 1_555
C3 C2 1_555 1_555
H2 C3 1_555 1_555
C4 C3 1_555 1_555
C5 C4 1_555 1_555
H3 C5 1_555 1_555
C6 C1 1_555 1_555
H4 C6 1_555 1_555
C7 C4 1_555 1_555
Pd9 O20 1_555 1_555
As4 O24 1_555 1_555
Ba3 O5 1_555 1_555
O20 Pd2 1_555 1_555
O24 Pd9 1_555 1_555
O25 Pd8 1_555 1_555
O26 Pd2 1_555 1_555
O29 C28 1_555 1_555
O30 C28 1_555 1_555
O31 Ba3 1_555 1_555
O33 Ba3 1_555 1_555
O34 Ba4 1_555 1_555
O35 Ba4 1_555 1_555
C22 As4 1_555 1_555
C23 C22 1_555 1_555
H13 C23 1_555 1_555
C24 C23 1_555 1_555
H14 C24 1_555 1_555
C25 C24 1_555 1_555
C26 C25 1_555 1_555
H15 C26 1_555 1_555
C27 C22 1_555 1_555
H16 C27 1_555 1_555
C28 C25 1_555 1_555
O36 Ba3 1_555 1_555
As6 O42 1_555 1_555
Ba5 O44 1_555 1_555
O38 Pd3_2 1_555 1_555
O42 Pd9 1_555 1_555
O43 Pd11 1_555 1_555
O44 As6 1_555 1_555
O47 C42 1_555 1_555
O48 C42 1_555 1_555
O49 Ba5 1_555 1_555
O50 Ba5 1_555 1_555
O51 Ba5 1_555 1_555
O52 Ba6 1_555 1_555
O53 Ba6 1_555 1_555
C36 As6 1_555 1_555
C37 C36 1_555 1_555
H21 C37 1_555 1_555
C38 C37 1_555 1_555
H22 C38 1_555 1_555
C39 C38 1_555 1_555
C40 C39 1_555 1_555
H23 C40 1_555 1_555
C41 C36 1_555 1_555
H24 C41 1_555 1_555
C42 C39 1_555 1_555
O54 Ba5 1_555 1_555
Pd12 O38 1_555 1_555
As7 O57 1_555 1_555
O55 Pd1 1_555 1_555
O58 Pd1 1_555 1_555
O59 Ba5 1_555 1_555
O63 C49 1_555 1_555
O64 C49 1_555 1_555
C43 As7 1_555 1_555
C44 C43 1_555 1_555
H25 C44 1_555 1_555
C45 C44 1_555 1_555
H26 C45 1_555 1_555
C46 C45 1_555 1_555
C47 C46 1_555 1_555
H27 C47 1_555 1_555
C48 C43 1_555 1_555
H28 C48 1_555 1_555
C49 C46 1_555 1_555
Ba14 O29 1_555 1_555
Ba16 O9 1_555 1_555
Ba18 O63 1_555 1_555
Ba20 O47 1_555 1_555
O73 Ba3 1_555 1_555
O76 Ba5 1_555 1_555
O77 Ba3 1_555 1_555
O80 Ba5 1_555 1_555
O81 Ba4 1_555 1_555
O84 Ba6 1_555 1_555
Pd3_2 O20 1_555 1_555
Pd3_2 O55 1_555 1_555
As1 O4 1_555 1_555
As1 O5 1_555 1_555
C5 C6 1_555 1_555
Pd8 O20 1_555 1_555
Pd9 O38 1_555 1_555
As4 O25 1_555 1_555
As4 O26 1_555 1_555
Ba3 O26 1_555 1_555
Ba3 O32 1_555 1_555
Ba4 O25 1_555 1_555
Ba4 O33 1_555 1_555
Ba4 O73 1_555 1_555
C26 C27 1_555 1_555
Pd11 O38 1_555 1_555
As6 O43 1_555 1_555
Ba6 O43 1_555 1_555
Ba6 O51 1_555 1_555
Ba6 O76 1_555 1_555
O44 Pd12 1_555 1_555
C40 C41 1_555 1_555
Pd12 O55 1_555 1_555
Pd12 O59 1_555 1_555
As7 O58 1_555 1_555
As7 O59 1_555 1_555
C47 C48 1_555 1_555
O83 C42_2 1_555 1_555
O48_2 C42_2 1_555 1_555
O82 C28_2 1_555 1_555
O30_2 C28_2 1_555 1_555
O49_2 Ba11 1_555 1_555
O50_2 Ba11 1_555 1_555
O54_2 Ba11 1_555 1_555
Pd13_2 O55_2 1_555 1_555
As7_2 O57_2 1_555 1_555
As8_2 O60_2 1_555 1_555
Ba20 O50_2 1_555 1_555
O55_2 Pd1_2 1_555 1_555
O56_2 Pd3_3 1_555 1_555
O57_2 Pd13_2 1_555 1_555
O58_2 Pd1_2 1_555 1_555
O59_2 Ba11 1_555 1_555
O60_2 Pd5_2 1_555 1_555
O61_2 Pd13_2 1_555 1_555
O76 C49_2 1_555 1_555
O80 C49_2 1_555 1_555
O70_2 Ba20 1_555 1_555
O71_2 Ba20 1_555 1_555
C43_2 As7_2 1_555 1_555
C44_2 C43_2 1_555 1_555
H25_2 C44_2 1_555 1_555
C45_2 C44_2 1_555 1_555
H26_2 C45_2 1_555 1_555
C46_2 C45_2 1_555 1_555
C47_2 C46_2 1_555 1_555
H27_2 C47_2 1_555 1_555
C48_2 C43_2 1_555 1_555
H28_2 C48_2 1_555 1_555
C49_2 C46_2 1_555 1_555
C50_2 As8_2 1_555 1_555
C51_2 C50_2 1_555 1_555
H29_2 C51_2 1_555 1_555
C52_2 C51_2 1_555 1_555
H30_2 C52_2 1_555 1_555
C53_2 C52_2 1_555 1_555
C54_2 C53_2 1_555 1_555
H31_2 C54_2 1_555 1_555
C55_2 C50_2 1_555 1_555
H32_2 C55_2 1_555 1_555
Pd3_3 O55_2 1_555 1_555
Pd5_2 O56_2 1_555 1_555
Pd12_2 O55_2 1_555 1_555
Pd12_2 O59_2 1_555 1_555
Pd13_2 O56_2 1_555 1_555
As7_2 O58_2 1_555 1_555
As7_2 O59_2 1_555 1_555
As8_2 O61_2 1_555 1_555
As8_2 O62_2 1_555 1_555
Ba20 O57_2 1_555 1_555
Ba20 O61_2 1_555 1_555
Ba20 O69_2 1_555 1_555
C47_2 C48_2 1_555 1_555
C54_2 C55_2 1_555 1_555
Pd1_3 O1_2 1_555 1_555
Pd2_2 O1_2 1_555 1_555
Pd3_4 O1_2 1_555 1_555
Pd4_2 O1_2 1_555 1_555
Pd5_3 O2_2 1_555 1_555
As1_2 O3_2 1_555 1_555
As2_2 O6_2 1_555 1_555
Ba14 O3_2 1_555 1_555
O2_2 Pd3_4 1_555 1_555
O3_2 Pd4_2 1_555 1_555
O4_2 Pd1_3 1_555 1_555
O5_2 Pd2_2 1_555 1_555
O6_2 Pd5_3 1_555 1_555
O7_2 Pd4_2 1_555 1_555
O8_2 As2_2 1_555 1_555
O73 C7_2 1_555 1_555
O77 C7_2 1_555 1_555
O16_2 Ba14 1_555 1_555
O17_2 Ba14 1_555 1_555
C1_2 As1_2 1_555 1_555
C2_2 C1_2 1_555 1_555
H1_2 C2_2 1_555 1_555
C3_2 C2_2 1_555 1_555
H2_2 C3_2 1_555 1_555
C4_2 C3_2 1_555 1_555
C5_2 C4_2 1_555 1_555
H3_2 C5_2 1_555 1_555
C6_2 C1_2 1_555 1_555
H4_2 C6_2 1_555 1_555
C7_2 C4_2 1_555 1_555
C8_2 As2_2 1_555 1_555
C9_2 C8_2 1_555 1_555
H5_2 C9_2 1_555 1_555
C10_2 C9_2 1_555 1_555
H6_2 C10_2 1_555 1_555
C11_2 C10_2 1_555 1_555
C12_2 C11_2 1_555 1_555
H7_2 C12_2 1_555 1_555
C13_2 C8_2 1_555 1_555
H8_2 C13_2 1_555 1_555
Ba10 O5_2 1_555 1_555
O31_2 Ba10 1_555 1_555
O32_2 Ba14 1_555 1_555
O36_2 Ba10 1_555 1_555
Pd4_2 O2_2 1_555 1_555
As1_2 O4_2 1_555 1_555
As1_2 O5_2 1_555 1_555
As2_2 O7_2 1_555 1_555
Ba14 O7_2 1_555 1_555
Ba14 O15_2 1_555 1_555
C5_2 C6_2 1_555 1_555
C12_2 C13_2 1_555 1_555
Ba10 O32_2 1_555 1_555
Pd10_2 O37_2 1_555 1_555
Pd11_2 O37_2 1_555 1_555
As5_2 O39_2 1_555 1_555
As6_2 O42_2 1_555 1_555
Ba18 O39_2 1_555 1_555
O37_2 Pd3_5 1_555 1_555
O38_2 Pd3_5 1_555 1_555
O39_2 Pd11_2 1_555 1_555
O40_2 Pd6_2 1_555 1_555
O41_2 Pd10_2 1_555 1_555
O42_2 Pd9_2 1_555 1_555
O43_2 Pd11_2 1_555 1_555
O44_2 As6_2 1_555 1_555
O75 C35_2 1_555 1_555
O79 C35_2 1_555 1_555
O52_2 Ba18 1_555 1_555
O53_2 Ba18 1_555 1_555
C29_2 As5_2 1_555 1_555
C30_2 C29_2 1_555 1_555
H17_2 C30_2 1_555 1_555
C31_2 C30_2 1_555 1_555
H18_2 C31_2 1_555 1_555
C32_2 C31_2 1_555 1_555
C33_2 C32_2 1_555 1_555
H19_2 C33_2 1_555 1_555
C34_2 C29_2 1_555 1_555
H20_2 C34_2 1_555 1_555
C35_2 C32_2 1_555 1_555
C36_2 As6_2 1_555 1_555
C37_2 C36_2 1_555 1_555
H21_2 C37_2 1_555 1_555
C38_2 C37_2 1_555 1_555
H22_2 C38_2 1_555 1_555
C39_2 C38_2 1_555 1_555
C40_2 C39_2 1_555 1_555
H23_2 C40_2 1_555 1_555
C41_2 C36_2 1_555 1_555
H24_2 C41_2 1_555 1_555
Ba12 O41_2 1_555 1_555
O67_2 Ba12 1_555 1_555
O68_2 Ba18 1_555 1_555
O72_2 Ba12 1_555 1_555
Pd6_2 O37_2 1_555 1_555
Pd9_2 O38_2 1_555 1_555
Pd11_2 O38_2 1_555 1_555
As5_2 O40_2 1_555 1_555
As5_2 O41_2 1_555 1_555
As6_2 O43_2 1_555 1_555
Ba18 O43_2 1_555 1_555
Ba18 O51_2 1_555 1_555
C33_2 C34_2 1_555 1_555
C40_2 C41_2 1_555 1_555
Ba12 O68_2 1_555 1_555
O13_2 Ba9 1_555 1_555
O14_2 Ba9 1_555 1_555
O18_2 Ba9 1_555 1_555
Pd6_3 O19_2 1_555 1_555
Pd8_2 O19_2 1_555 1_555
Pd9_3 O20_2 1_555 1_555
As3_2 O21_2 1_555 1_555
As4_2 O24_2 1_555 1_555
Ba16 O14_2 1_555 1_555
O19_2 Pd3_6 1_555 1_555
O21_2 Pd8_2 1_555 1_555
O22_2 Pd6_3 1_555 1_555
O23_2 Ba9 1_555 1_555
O24_2 Pd9_3 1_555 1_555
O25_2 Pd8_2 1_555 1_555
O74 C21_2 1_555 1_555
O78 C21_2 1_555 1_555
O34_2 Ba16 1_555 1_555
O35_2 Ba16 1_555 1_555
C15_2 As3_2 1_555 1_555
C16_2 C15_2 1_555 1_555
H9_2 C16_2 1_555 1_555
C17_2 C16_2 1_555 1_555
H10_2 C17_2 1_555 1_555
C18_2 C17_2 1_555 1_555
C19_2 C18_2 1_555 1_555
H11_2 C19_2 1_555 1_555
C20_2 C15_2 1_555 1_555
H12_2 C20_2 1_555 1_555
C21_2 C18_2 1_555 1_555
C22_2 As4_2 1_555 1_555
C23_2 C22_2 1_555 1_555
H13_2 C23_2 1_555 1_555
C24_2 C23_2 1_555 1_555
H14_2 C24_2 1_555 1_555
C25_2 C24_2 1_555 1_555
C26_2 C25_2 1_555 1_555
H15_2 C26_2 1_555 1_555
C27_2 C22_2 1_555 1_555
H16_2 C27_2 1_555 1_555
Pd3_6 O20_2 1_555 1_555
Pd7_2 O19_2 1_555 1_555
Pd7_2 O23_2 1_555 1_555
Pd8_2 O20_2 1_555 1_555
As3_2 O22_2 1_555 1_555
As3_2 O23_2 1_555 1_555
As4_2 O25_2 1_555 1_555
As4_2 O26_2 1_555 1_555
Ba16 O21_2 1_555 1_555
Ba16 O25_2 1_555 1_555
Ba16 O33_2 1_555 1_555
C19_2 C20_2 1_555 1_555
C26_2 C27_2 1_555 1_555
O84 C56_2 1_555 1_555
O66_2 C56_2 1_555 1_555
O81 C14_2 1_555 1_555
O12_2 C14_2 1_555 1_555

#END
