
###############################################################################
#
# This file contains modified crystal structure data generated from the
# MOF subset of the Cambridge Structural Database (CSD) v543 
# hosted by the Cambridge Crystallographic Data Centre (CCDC).
#
# This work is licensed under the Creative Commons
# Attribution-NonCommercial-ShareAlike 4.0 International License.
# To view a copy of this license, visit
# http://creativecommons.org/licenses/by-nc-sa/4.0/
# or send a letter to
# Creative Commons, PO Box 1866, Mountain View, CA 94042, USA.
#
# CIF created using the CSD Python API on 29 September 2022
# The structure has been converted into the P1 space group
# The structure has a 3D framework
# The original CSD entry LIZSIY is in the monoclinic crystal system
# The framework has been calculated to contain at least 10.0% void space
# The void calculation uses a probe of radius 1.32A, grid spacing 0.4
#
###############################################################################

data_LIZSIY
_chemical_formula_moiety         '(C184 H176 Cd14 N32 O48)n'
_symmetry_cell_setting           triclinic
_symmetry_space_group_name_H-M   'P 1'
_symmetry_Int_Tables_number      1
_space_group_name_Hall           'P 1'
loop_
_symmetry_equiv_pos_site_id
_symmetry_equiv_pos_as_xyz
1 x,y,z
_cell_length_a                   29.401(3)
_cell_length_b                   13.3519(11)
_cell_length_c                   15.8465(13)
_cell_angle_alpha                90
_cell_angle_beta                 90.878(2)
_cell_angle_gamma                90
_cell_volume                     6219.96
loop_
_atom_site_label
_atom_site_type_symbol
_atom_site_fract_x
_atom_site_fract_y
_atom_site_fract_z
Cd1 Cd 0.117245(16) 0.30779(3) 0.23425(3)
Cd2 Cd 0.0000 0.22595(6) 0.2500
N1 N 0.1348(2) 0.4187(5) 0.3428(4)
N2 N 0.1465(2) 0.5480(5) 0.4267(4)
N3 N 0.3082(2) 0.8144(4) 0.3127(4)
N4 N 0.2378(2) 0.7826(5) 0.3436(5)
O1 O 0.06324(17) 0.2277(3) 0.3396(3)
O2 O 0.1334(2) 0.1721(4) 0.3267(3)
O3 O 0.03745(19) 0.3547(4) 0.1861(3)
O4 O 0.09736(18) 0.4324(4) 0.1357(3)
C1 C 0.0947(3) 0.1690(5) 0.3602(4)
C2 C 0.0879(3) 0.0929(5) 0.4262(4)
C3 C 0.0531(3) 0.0997(6) 0.4813(5)
H1 H 0.0321 0.1514 0.4755
C4 C 0.0484(3) 0.0316(6) 0.5456(5)
H2 H 0.0249 0.0395 0.5835
C7 C 0.1162(3) 0.0105(7) 0.4347(6)
H4 H 0.1392 0.0016 0.3957
C9 C 0.0560(3) 0.4124(5) 0.1323(4)
C10 C 0.0263(2) 0.4576(5) 0.0646(4)
C12 C 0.0441(3) 0.5347(5) 0.0139(4)
H6 H 0.0735 0.5581 0.0236
C13 C 0.1657(3) 0.3929(7) 0.4047(5)
H7 H 0.1790 0.3301 0.4104
C14 C 0.1236(3) 0.5131(6) 0.3585(4)
C15 C 0.0886(4) 0.5701(7) 0.3120(7)
H8 H 0.1010 0.5948 0.2603
H9 H 0.0788 0.6254 0.3459
H10 H 0.0632 0.5272 0.2995
C16 C 0.1740(4) 0.4715(7) 0.4564(6)
H11 H 0.1940 0.4736 0.5023
C17 C 0.1452(3) 0.6470(6) 0.4660(5)
H12 H 0.1412 0.6397 0.5264
H13 H 0.1195 0.6844 0.4435
C18 C 0.1898(3) 0.7059(6) 0.4494(6)
H14 H 0.1897 0.7671 0.4823
H15 H 0.2156 0.6659 0.4682
C19 C 0.1953(3) 0.7315(7) 0.3582(6)
H16 H 0.1942 0.6706 0.3249
H17 H 0.1702 0.7740 0.3399
C20 C 0.2436(3) 0.8864(7) 0.3450(6)
H18 H 0.2216 0.9341 0.3568
C21 C 0.2873(3) 0.9038(6) 0.3260(5)
H19 H 0.3009 0.9665 0.3225
C22 C 0.2775(3) 0.7423(5) 0.3230(5)
C23 C 0.2875(3) 0.6339(6) 0.3197(6)
H20 H 0.2792 0.6032 0.3721
H21 H 0.3194 0.6241 0.3107
H22 H 0.2704 0.6038 0.2743
Cd5 Cd 0.382755(16) 0.80779(3) 0.26575(3)
N10 N 0.1918(2) 0.3144(4) 0.1873(4)
O16 O 0.1027(2) 0.1896(4) 0.1326(4)
O18 O 0.0364(2) 0.1162(4) 0.1704(3)
C26 C 0.0178(2) 0.5750(5) 0.9503(4)
H23 H 0.0298 0.6252 0.9166
Cd11 Cd 0.0000 0.77405(6) 0.7500
O5 O 0.1027(2) 0.8104(4) 0.6326(4)
O6 O 0.0364(2) 0.8838(4) 0.6704(3)
C5 C 0.0777(3) 0.9521(5) 0.5552(4)
C6 C 0.1119(3) 0.9414(6) 0.4980(5)
H3 H 0.1320 0.8878 0.5023
C8 C 0.0722(3) 0.8762(5) 0.6247(5)
Cd8 Cd 0.117245(16) 0.69221(3) 0.73425(3)
Cd2_2 Cd 1.0000 0.22595(6) 0.2500
C11 C 0.9822(2) 0.4250(5) 0.0497(4)
H5 H 0.9702 0.3748 0.0834
Cd3 Cd 0.882755(16) 0.30779(3) 0.26575(3)
N5 N 0.8652(2) 0.4187(5) 0.1572(4)
N6 N 0.8535(2) 0.5480(5) 0.0733(4)
N7 N 0.6918(2) 0.8144(4) 0.1873(4)
N8 N 0.7622(2) 0.7826(5) 0.1564(5)
O9 O 0.93676(17) 0.2277(3) 0.1604(3)
O10 O 0.8666(2) 0.1721(4) 0.1733(3)
C28 C 0.9053(3) 0.1690(5) 0.1398(4)
C29 C 0.9121(3) 0.0929(5) 0.0738(4)
C30 C 0.9469(3) 0.0997(6) 0.0187(5)
H25 H 0.9679 0.1514 0.0245
C34 C 0.8838(3) 0.0105(7) 0.0653(6)
H28 H 0.8608 0.0016 0.1043
C36 C 0.8343(3) 0.3929(7) 0.0953(5)
H29 H 0.8210 0.3301 0.0896
C37 C 0.8764(3) 0.5131(6) 0.1415(4)
C38 C 0.9114(4) 0.5701(7) 0.1880(7)
H30 H 0.8990 0.5948 0.2397
H31 H 0.9212 0.6254 0.1541
H32 H 0.9368 0.5272 0.2005
C39 C 0.8260(4) 0.4715(7) 0.0436(6)
C40 C 0.8548(3) 0.6470(6) 0.0340(5)
H35 H 0.8805 0.6844 0.0565
C41 C 0.8102(3) 0.7059(6) 0.0506(6)
H36 H 0.8103 0.7671 0.0177
H37 H 0.7844 0.6659 0.0318
C42 C 0.8047(3) 0.7315(7) 0.1418(6)
H38 H 0.8058 0.6706 0.1751
H39 H 0.8298 0.7740 0.1601
C43 C 0.7564(3) 0.8864(7) 0.1550(6)
H40 H 0.7784 0.9341 0.1432
C44 C 0.7127(3) 0.9038(6) 0.1740(5)
H41 H 0.6991 0.9665 0.1775
C45 C 0.7225(3) 0.7423(5) 0.1770(5)
C46 C 0.7125(3) 0.6339(6) 0.1803(6)
H42 H 0.7208 0.6032 0.1279
H43 H 0.6806 0.6241 0.1893
H44 H 0.7296 0.6038 0.2257
Cd4 Cd 0.617245(16) 0.80779(3) 0.23425(3)
N9 N 0.8082(2) 0.3144(4) 0.3127(4)
O13 O 0.96255(19) 0.3547(4) 0.3139(3)
O14 O 0.90264(18) 0.4324(4) 0.3643(3)
O15 O 0.8973(2) 0.1896(4) 0.3674(4)
O17 O 0.9636(2) 0.1162(4) 0.3296(3)
O7 O 0.96255(19) 0.6453(4) 0.8139(3)
O8 O 0.90264(18) 0.5676(4) 0.8643(3)
C24 C 0.9440(3) 0.5876(5) 0.8677(4)
C25 C 0.9737(2) 0.5424(5) 0.9354(4)
C27 C 0.9559(3) 0.4653(5) 0.9861(4)
H24 H 0.9265 0.4419 0.9764
C31 C 0.9516(3) 0.0316(6) 0.9544(5)
H26 H 0.9751 0.0395 0.9165
H33 H 0.8060 0.4736 0.9977
H34 H 0.8588 0.6397 0.9736
Cd7 Cd 0.882755(16) 0.69221(3) 0.76575(3)
Cd11_2 Cd 1.0000 0.77405(6) 0.7500
C33 C 0.8881(3) 0.9414(6) 0.0020(5)
O11 O 0.8973(2) 0.8104(4) 0.8674(4)
O12 O 0.9636(2) 0.8838(4) 0.8296(3)
C32 C 0.9223(3) 0.9521(5) 0.9448(4)
H27 H 0.8680 0.8878 0.9977
C35 C 0.9278(3) 0.8762(5) 0.8753(5)
C11_2 C 0.0178(2) 0.4250(5) 0.4503(4)
H5_2 H 0.0298 0.3748 0.4166
O7_2 O 0.03745(19) 0.6453(4) 0.6861(3)
O8_2 O 0.09736(18) 0.5676(4) 0.6357(3)
C24_2 C 0.0560(3) 0.5876(5) 0.6323(4)
C25_2 C 0.0263(2) 0.5424(5) 0.5646(4)
C27_2 C 0.0441(3) 0.4653(5) 0.5139(4)
H24_2 H 0.0735 0.4419 0.5236
C9_2 C 0.9440(3) 0.4124(5) 0.3677(4)
C10_2 C 0.9737(2) 0.4576(5) 0.4354(4)
C12_2 C 0.9559(3) 0.5347(5) 0.4861(4)
H6_2 H 0.9265 0.5581 0.4764
C26_2 C 0.9822(2) 0.5750(5) 0.5497(4)
H23_2 H 0.9702 0.6252 0.5834
N2_2 N 0.6465(2) 0.0480(5) 0.4267(4)
N4_2 N 0.7378(2) 0.2826(5) 0.3436(5)
C12_3 C 0.5441(3) 0.0347(5) 0.0139(4)
H6_3 H 0.5735 0.0581 0.0236
C14_2 C 0.6236(3) 0.0131(6) 0.3585(4)
C15_2 C 0.5886(4) 0.0701(7) 0.3120(7)
H8_2 H 0.6010 0.0948 0.2603
H9_2 H 0.5788 0.1254 0.3459
H10_2 H 0.5632 0.0272 0.2995
C17_2 C 0.6452(3) 0.1470(6) 0.4660(5)
H12_2 H 0.6412 0.1397 0.5264
H13_2 H 0.6195 0.1844 0.4435
C18_2 C 0.6898(3) 0.2059(6) 0.4494(6)
H14_2 H 0.6897 0.2671 0.4823
H15_2 H 0.7156 0.1659 0.4682
C19_2 C 0.6953(3) 0.2315(7) 0.3582(6)
H16_2 H 0.6942 0.1706 0.3249
H17_2 H 0.6702 0.2740 0.3399
C20_2 C 0.7436(3) 0.3864(7) 0.3450(6)
H18_2 H 0.7216 0.4341 0.3568
C21_2 C 0.7873(3) 0.4038(6) 0.3260(5)
H19_2 H 0.8009 0.4665 0.3225
C22_2 C 0.7775(3) 0.2423(5) 0.3230(5)
C23_2 C 0.7875(3) 0.1339(6) 0.3197(6)
H20_2 H 0.7792 0.1032 0.3721
H21_2 H 0.8194 0.1241 0.3107
H22_2 H 0.7704 0.1038 0.2743
N6_2 N 0.3535(2) 0.0480(5) 0.0733(4)
N8_2 N 0.2622(2) 0.2826(5) 0.1564(5)
C37_2 C 0.3764(3) 0.0131(6) 0.1415(4)
C38_2 C 0.4114(4) 0.0701(7) 0.1880(7)
H30_2 H 0.3990 0.0948 0.2397
H31_2 H 0.4212 0.1254 0.1541
H32_2 H 0.4368 0.0272 0.2005
C40_2 C 0.3548(3) 0.1470(6) 0.0340(5)
H35_2 H 0.3805 0.1844 0.0565
C41_2 C 0.3102(3) 0.2059(6) 0.0506(6)
H36_2 H 0.3103 0.2671 0.0177
H37_2 H 0.2844 0.1659 0.0318
C42_2 C 0.3047(3) 0.2315(7) 0.1418(6)
H38_2 H 0.3058 0.1706 0.1751
H39_2 H 0.3298 0.2740 0.1601
C43_2 C 0.2564(3) 0.3864(7) 0.1550(6)
H40_2 H 0.2784 0.4341 0.1432
C44_2 C 0.2127(3) 0.4038(6) 0.1740(5)
H41_2 H 0.1991 0.4665 0.1775
C45_2 C 0.2225(3) 0.2423(5) 0.1770(5)
C46_2 C 0.2125(3) 0.1339(6) 0.1803(6)
H42_2 H 0.2208 0.1032 0.1279
H43_2 H 0.1806 0.1241 0.1893
H44_2 H 0.2296 0.1038 0.2257
O7_3 O 0.46255(19) 0.1453(4) 0.8139(3)
O8_3 O 0.40264(18) 0.0676(4) 0.8643(3)
C24_3 C 0.4440(3) 0.0876(5) 0.8677(4)
C25_3 C 0.4737(2) 0.0424(5) 0.9354(4)
C26_3 C 0.5178(2) 0.0750(5) 0.9503(4)
H23_3 H 0.5298 0.1252 0.9166
H34_2 H 0.3588 0.1397 0.9736
Cd7_2 Cd 0.382755(16) 0.19221(3) 0.76575(3)
Cd11_3 Cd 0.5000 0.27405(6) 0.7500
Cd2_3 Cd 0.5000 0.72595(6) 0.2500
N1_2 N 0.6348(2) 0.9187(5) 0.3428(4)
O1_2 O 0.56324(17) 0.7277(3) 0.3396(3)
O2_2 O 0.6334(2) 0.6721(4) 0.3267(3)
O3_2 O 0.53745(19) 0.8547(4) 0.1861(3)
O4_2 O 0.59736(18) 0.9324(4) 0.1357(3)
O5_2 O 0.6027(2) 0.3104(4) 0.6326(4)
O6_2 O 0.5364(2) 0.3838(4) 0.6704(3)
C1_2 C 0.5947(3) 0.6690(5) 0.3602(4)
C2_2 C 0.5879(3) 0.5929(5) 0.4262(4)
C3_2 C 0.5531(3) 0.5997(6) 0.4813(5)
H1_2 H 0.5321 0.6514 0.4755
C4_2 C 0.5484(3) 0.5316(6) 0.5456(5)
H2_2 H 0.5249 0.5395 0.5835
C5_2 C 0.5777(3) 0.4521(5) 0.5552(4)
C6_2 C 0.6119(3) 0.4414(6) 0.4980(5)
H3_2 H 0.6320 0.3878 0.5023
C7_2 C 0.6162(3) 0.5105(7) 0.4347(6)
H4_2 H 0.6392 0.5016 0.3957
C8_2 C 0.5722(3) 0.3762(5) 0.6247(5)
C9_3 C 0.5560(3) 0.9124(5) 0.1323(4)
C10_3 C 0.5263(2) 0.9576(5) 0.0646(4)
C11_3 C 0.4822(2) 0.9250(5) 0.0497(4)
H5_3 H 0.4702 0.8748 0.0834
C13_2 C 0.6657(3) 0.8929(7) 0.4047(5)
H7_2 H 0.6790 0.8301 0.4104
C16_2 C 0.6740(4) 0.9715(7) 0.4564(6)
H11_2 H 0.6940 0.9736 0.5023
N5_2 N 0.3652(2) 0.9187(5) 0.1572(4)
O9_2 O 0.43676(17) 0.7277(3) 0.1604(3)
O10_2 O 0.3666(2) 0.6721(4) 0.1733(3)
C28_2 C 0.4053(3) 0.6690(5) 0.1398(4)
C29_2 C 0.4121(3) 0.5929(5) 0.0738(4)
C30_2 C 0.4469(3) 0.5997(6) 0.0187(5)
H25_2 H 0.4679 0.6514 0.0245
C33_2 C 0.3881(3) 0.4414(6) 0.0020(5)
C34_2 C 0.3838(3) 0.5105(7) 0.0653(6)
H28_2 H 0.3608 0.5016 0.1043
C36_2 C 0.3343(3) 0.8929(7) 0.0953(5)
H29_2 H 0.3210 0.8301 0.0896
C39_2 C 0.3260(4) 0.9715(7) 0.0436(6)
Cd8_2 Cd 0.617245(16) 0.19221(3) 0.73425(3)
O13_2 O 0.46255(19) 0.8547(4) 0.3139(3)
O14_2 O 0.40264(18) 0.9324(4) 0.3643(3)
O15_2 O 0.3973(2) 0.6896(4) 0.3674(4)
O16_2 O 0.6027(2) 0.6896(4) 0.1326(4)
O17_2 O 0.4636(2) 0.6162(4) 0.3296(3)
O18_2 O 0.5364(2) 0.6162(4) 0.1704(3)
C27_3 C 0.4559(3) 0.9653(5) 0.9861(4)
H24_3 H 0.4265 0.9419 0.9764
O11_2 O 0.3973(2) 0.3104(4) 0.8674(4)
O12_2 O 0.4636(2) 0.3838(4) 0.8296(3)
C31_2 C 0.4516(3) 0.5316(6) 0.9544(5)
H26_2 H 0.4751 0.5395 0.9165
C32_2 C 0.4223(3) 0.4521(5) 0.9448(4)
H27_2 H 0.3680 0.3878 0.9977
C35_2 C 0.4278(3) 0.3762(5) 0.8753(5)
H33_2 H 0.3060 0.9736 0.9977
C12_4 C 0.4559(3) 0.0347(5) 0.4861(4)
H6_4 H 0.4265 0.0581 0.4764
O7_4 O 0.53745(19) 0.1453(4) 0.6861(3)
O8_4 O 0.59736(18) 0.0676(4) 0.6357(3)
C24_4 C 0.5560(3) 0.0876(5) 0.6323(4)
C25_4 C 0.5263(2) 0.0424(5) 0.5646(4)
C26_4 C 0.4822(2) 0.0750(5) 0.5497(4)
H23_4 H 0.4702 0.1252 0.5834
C9_4 C 0.4440(3) 0.9124(5) 0.3677(4)
C10_4 C 0.4737(2) 0.9576(5) 0.4354(4)
C11_4 C 0.5178(2) 0.9250(5) 0.4503(4)
H5_4 H 0.5298 0.8748 0.4166
C27_4 C 0.5441(3) 0.9653(5) 0.5139(4)
H24_4 H 0.5735 0.9419 0.5236
C32_3 C 0.0777(3) 0.0479(5) 0.0552(4)
H27_3 H 0.1320 0.1122 0.0023
C35_3 C 0.0722(3) 0.1238(5) 0.1247(5)
C33_3 C 0.1119(3) 0.0586(6) 0.9980(5)
C31_3 C 0.0484(3) 0.9684(6) 0.0456(5)
H26_3 H 0.0249 0.9605 0.0835
H33_3 H 0.1940 0.5264 0.0023
H34_3 H 0.1412 0.3603 0.0264
N5_3 N 0.1348(2) 0.5813(5) 0.8428(4)
N6_3 N 0.1465(2) 0.4520(5) 0.9267(4)
N7_2 N 0.3082(2) 0.1856(4) 0.8127(4)
N8_3 N 0.2378(2) 0.2174(5) 0.8436(5)
O9_3 O 0.06324(17) 0.7723(3) 0.8396(3)
O10_3 O 0.1334(2) 0.8279(4) 0.8267(3)
C28_3 C 0.0947(3) 0.8310(5) 0.8602(4)
C29_3 C 0.0879(3) 0.9071(5) 0.9262(4)
C30_3 C 0.0531(3) 0.9003(6) 0.9813(5)
H25_3 H 0.0321 0.8486 0.9755
C34_3 C 0.1162(3) 0.9895(7) 0.9347(6)
H28_3 H 0.1392 0.9984 0.8957
C36_3 C 0.1657(3) 0.6071(7) 0.9047(5)
H29_3 H 0.1790 0.6699 0.9104
C37_3 C 0.1236(3) 0.4869(6) 0.8585(4)
C38_3 C 0.0886(4) 0.4299(7) 0.8120(7)
H30_3 H 0.1010 0.4052 0.7603
H31_3 H 0.0788 0.3746 0.8459
H32_3 H 0.0632 0.4728 0.7995
C39_3 C 0.1740(4) 0.5285(7) 0.9564(6)
C40_3 C 0.1452(3) 0.3530(6) 0.9660(5)
H35_3 H 0.1195 0.3156 0.9435
C41_3 C 0.1898(3) 0.2941(6) 0.9494(6)
H36_3 H 0.1897 0.2329 0.9823
H37_3 H 0.2156 0.3341 0.9682
C42_3 C 0.1953(3) 0.2685(7) 0.8582(6)
H38_3 H 0.1942 0.3294 0.8249
H39_3 H 0.1702 0.2260 0.8399
C43_3 C 0.2436(3) 0.1136(7) 0.8450(6)
H40_3 H 0.2216 0.0659 0.8568
C44_3 C 0.2873(3) 0.0962(6) 0.8260(5)
H41_3 H 0.3009 0.0335 0.8225
C45_3 C 0.2775(3) 0.2577(5) 0.8230(5)
C46_3 C 0.2875(3) 0.3661(6) 0.8197(6)
H42_3 H 0.2792 0.3968 0.8721
H43_3 H 0.3194 0.3759 0.8107
H44_3 H 0.2704 0.3962 0.7743
N9_2 N 0.1918(2) 0.6856(4) 0.6873(4)
C5_3 C 0.9223(3) 0.0479(5) 0.4448(4)
C6_3 C 0.8881(3) 0.0586(6) 0.5020(5)
H3_3 H 0.8680 0.1122 0.4977
C8_3 C 0.9278(3) 0.1238(5) 0.3753(5)
N1_3 N 0.8652(2) 0.5813(5) 0.6572(4)
N2_3 N 0.8535(2) 0.4520(5) 0.5733(4)
N3_2 N 0.6918(2) 0.1856(4) 0.6873(4)
N4_3 N 0.7622(2) 0.2174(5) 0.6564(5)
O1_3 O 0.93676(17) 0.7723(3) 0.6604(3)
O2_3 O 0.8666(2) 0.8279(4) 0.6733(3)
C1_3 C 0.9053(3) 0.8310(5) 0.6398(4)
C2_3 C 0.9121(3) 0.9071(5) 0.5738(4)
C3_3 C 0.9469(3) 0.9003(6) 0.5187(5)
H1_3 H 0.9679 0.8486 0.5245
C4_3 C 0.9516(3) 0.9684(6) 0.4544(5)
H2_3 H 0.9751 0.9605 0.4165
C7_3 C 0.8838(3) 0.9895(7) 0.5653(6)
H4_3 H 0.8608 0.9984 0.6043
C13_3 C 0.8343(3) 0.6071(7) 0.5953(5)
H7_3 H 0.8210 0.6699 0.5896
C14_3 C 0.8764(3) 0.4869(6) 0.6415(4)
C15_3 C 0.9114(4) 0.4299(7) 0.6880(7)
H8_3 H 0.8990 0.4052 0.7397
H9_3 H 0.9212 0.3746 0.6541
H10_3 H 0.9368 0.4728 0.7005
C16_3 C 0.8260(4) 0.5285(7) 0.5436(6)
H11_3 H 0.8060 0.5264 0.4977
C17_3 C 0.8548(3) 0.3530(6) 0.5340(5)
H12_3 H 0.8588 0.3603 0.4736
H13_3 H 0.8805 0.3156 0.5565
C18_3 C 0.8102(3) 0.2941(6) 0.5506(6)
H14_3 H 0.8103 0.2329 0.5177
H15_3 H 0.7844 0.3341 0.5318
C19_3 C 0.8047(3) 0.2685(7) 0.6418(6)
H16_3 H 0.8058 0.3294 0.6751
H17_3 H 0.8298 0.2260 0.6601
C20_3 C 0.7564(3) 0.1136(7) 0.6550(6)
H18_3 H 0.7784 0.0659 0.6432
C21_3 C 0.7127(3) 0.0962(6) 0.6740(5)
H19_3 H 0.6991 0.0335 0.6775
C22_3 C 0.7225(3) 0.2577(5) 0.6770(5)
C23_3 C 0.7125(3) 0.3661(6) 0.6803(6)
H20_3 H 0.7208 0.3968 0.6279
H21_3 H 0.6806 0.3759 0.6893
H22_3 H 0.7296 0.3962 0.7257
N10_2 N 0.8082(2) 0.6856(4) 0.8127(4)
C31_4 C 0.5484(3) 0.4684(6) 0.0456(5)
H26_4 H 0.5249 0.4605 0.0835
C32_4 C 0.5777(3) 0.5479(5) 0.0552(4)
H27_4 H 0.6320 0.6122 0.0023
C35_4 C 0.5722(3) 0.6238(5) 0.1247(5)
H33_4 H 0.6940 0.0264 0.0023
N1_4 N 0.3652(2) 0.0813(5) 0.6572(4)
O1_4 O 0.43676(17) 0.2723(3) 0.6604(3)
O2_4 O 0.3666(2) 0.3279(4) 0.6733(3)
C1_4 C 0.4053(3) 0.3310(5) 0.6398(4)
C2_4 C 0.4121(3) 0.4071(5) 0.5738(4)
C3_4 C 0.4469(3) 0.4003(6) 0.5187(5)
H1_4 H 0.4679 0.3486 0.5245
C4_4 C 0.4516(3) 0.4684(6) 0.4544(5)
H2_4 H 0.4751 0.4605 0.4165
C5_4 C 0.4223(3) 0.5479(5) 0.4448(4)
C6_4 C 0.3881(3) 0.5586(6) 0.5020(5)
H3_4 H 0.3680 0.6122 0.4977
C7_4 C 0.3838(3) 0.4895(7) 0.5653(6)
H4_4 H 0.3608 0.4984 0.6043
C8_4 C 0.4278(3) 0.6238(5) 0.3753(5)
C13_4 C 0.3343(3) 0.1071(7) 0.5953(5)
H7_4 H 0.3210 0.1699 0.5896
C16_4 C 0.3260(4) 0.0285(7) 0.5436(6)
H11_4 H 0.3060 0.0264 0.4977
N5_4 N 0.6348(2) 0.0813(5) 0.8428(4)
O9_4 O 0.56324(17) 0.2723(3) 0.8396(3)
O10_4 O 0.6334(2) 0.3279(4) 0.8267(3)
C28_4 C 0.5947(3) 0.3310(5) 0.8602(4)
C29_4 C 0.5879(3) 0.4071(5) 0.9262(4)
C30_4 C 0.5531(3) 0.4003(6) 0.9813(5)
H25_4 H 0.5321 0.3486 0.9755
C33_4 C 0.6119(3) 0.5586(6) 0.9980(5)
C34_4 C 0.6162(3) 0.4895(7) 0.9347(6)
H28_4 H 0.6392 0.4984 0.8957
C36_4 C 0.6657(3) 0.1071(7) 0.9047(5)
H29_4 H 0.6790 0.1699 0.9104
C39_4 C 0.6740(4) 0.0285(7) 0.9564(6)
H34_4 H 0.6412 0.8603 0.0264
N2_4 N 0.3535(2) 0.9520(5) 0.5733(4)
N4_4 N 0.2622(2) 0.7174(5) 0.6564(5)
C14_4 C 0.3764(3) 0.9869(6) 0.6415(4)
C15_4 C 0.4114(4) 0.9299(7) 0.6880(7)
H8_4 H 0.3990 0.9052 0.7397
H9_4 H 0.4212 0.8746 0.6541
H10_4 H 0.4368 0.9728 0.7005
C17_4 C 0.3548(3) 0.8530(6) 0.5340(5)
H12_4 H 0.3588 0.8603 0.4736
H13_4 H 0.3805 0.8156 0.5565
C18_4 C 0.3102(3) 0.7941(6) 0.5506(6)
H14_4 H 0.3103 0.7329 0.5177
H15_4 H 0.2844 0.8341 0.5318
C19_4 C 0.3047(3) 0.7685(7) 0.6418(6)
H16_4 H 0.3058 0.8294 0.6751
H17_4 H 0.3298 0.7260 0.6601
C20_4 C 0.2564(3) 0.6136(7) 0.6550(6)
H18_4 H 0.2784 0.5659 0.6432
C21_4 C 0.2127(3) 0.5962(6) 0.6740(5)
H19_4 H 0.1991 0.5335 0.6775
C22_4 C 0.2225(3) 0.7577(5) 0.6770(5)
C23_4 C 0.2125(3) 0.8661(6) 0.6803(6)
H20_4 H 0.2208 0.8968 0.6279
H21_4 H 0.1806 0.8759 0.6893
H22_4 H 0.2296 0.8962 0.7257
N6_4 N 0.6465(2) 0.9520(5) 0.9267(4)
N8_4 N 0.7378(2) 0.7174(5) 0.8436(5)
C37_4 C 0.6236(3) 0.9869(6) 0.8585(4)
C38_4 C 0.5886(4) 0.9299(7) 0.8120(7)
H30_4 H 0.6010 0.9052 0.7603
H31_4 H 0.5788 0.8746 0.8459
H32_4 H 0.5632 0.9728 0.7995
C40_4 C 0.6452(3) 0.8530(6) 0.9660(5)
H35_4 H 0.6195 0.8156 0.9435
C41_4 C 0.6898(3) 0.7941(6) 0.9494(6)
H36_4 H 0.6897 0.7329 0.9823
H37_4 H 0.7156 0.8341 0.9682
C42_4 C 0.6953(3) 0.7685(7) 0.8582(6)
H38_4 H 0.6942 0.8294 0.8249
H39_4 H 0.6702 0.7260 0.8399
C43_4 C 0.7436(3) 0.6136(7) 0.8450(6)
H40_4 H 0.7216 0.5659 0.8568
C44_4 C 0.7873(3) 0.5962(6) 0.8260(5)
H41_4 H 0.8009 0.5335 0.8225
C45_4 C 0.7775(3) 0.7577(5) 0.8230(5)
C46_4 C 0.7875(3) 0.8661(6) 0.8197(6)
H42_4 H 0.7792 0.8968 0.8721
H43_4 H 0.8194 0.8759 0.8107
H44_4 H 0.7704 0.8962 0.7743
loop_
_geom_bond_atom_site_label_1
_geom_bond_atom_site_label_2
_geom_bond_site_symmetry_1
_geom_bond_site_symmetry_2
Cd1 N1 1_555 1_555
Cd2 O1 1_555 1_555
N1 C13 1_555 1_555
N2 C14 1_555 1_555
N3 C21 1_555 1_555
N4 C19 1_555 1_555
O1 C1 1_555 1_555
O2 Cd1 1_555 1_555
O3 Cd2 1_555 1_555
O4 Cd1 1_555 1_555
C1 O2 1_555 1_555
C2 C1 1_555 1_555
C3 C2 1_555 1_555
H1 C3 1_555 1_555
C4 C3 1_555 1_555
H2 C4 1_555 1_555
C7 C2 1_555 1_555
H4 C7 1_555 1_555
C9 O3 1_555 1_555
C10 C9 1_555 1_555
C12 C10 1_555 1_555
H6 C12 1_555 1_555
C13 H7 1_555 1_555
C14 N1 1_555 1_555
C15 C14 1_555 1_555
H8 C15 1_555 1_555
H9 C15 1_555 1_555
H10 C15 1_555 1_555
C16 N2 1_555 1_555
H11 C16 1_555 1_555
C17 N2 1_555 1_555
H12 C17 1_555 1_555
H13 C17 1_555 1_555
C18 C17 1_555 1_555
H14 C18 1_555 1_555
H15 C18 1_555 1_555
C19 C18 1_555 1_555
H16 C19 1_555 1_555
H17 C19 1_555 1_555
C20 N4 1_555 1_555
H18 C20 1_555 1_555
C21 C20 1_555 1_555
H19 C21 1_555 1_555
C22 N3 1_555 1_555
C23 C22 1_555 1_555
H20 C23 1_555 1_555
H21 C23 1_555 1_555
H22 C23 1_555 1_555
Cd5 N3 1_555 1_555
N10 Cd1 1_555 1_555
O16 Cd1 1_555 1_555
O18 Cd2 1_555 1_555
N4 C22 1_555 1_555
O4 C9 1_555 1_555
C13 C16 1_555 1_555
H23 C26 1_555 1_555
O5 C8 1_555 1_555
O6 C8 1_555 1_555
C6 C5 1_555 1_555
H3 C6 1_555 1_555
C8 C5 1_555 1_555
Cd8 O5 1_555 1_555
Cd11 O6 1_555 1_555
H5 C11 1_555 1_555
Cd3 N5 1_555 1_555
N5 C36 1_555 1_555
N6 C37 1_555 1_555
N7 C44 1_555 1_555
N8 C42 1_555 1_555
O9 Cd2_2 1_555 1_555
O10 Cd3 1_555 1_555
C28 O9 1_555 1_555
C29 C28 1_555 1_555
C30 C29 1_555 1_555
H25 C30 1_555 1_555
C34 C29 1_555 1_555
H28 C34 1_555 1_555
C36 H29 1_555 1_555
C37 N5 1_555 1_555
C38 C37 1_555 1_555
H30 C38 1_555 1_555
H31 C38 1_555 1_555
H32 C38 1_555 1_555
C39 N6 1_555 1_555
C40 N6 1_555 1_555
H35 C40 1_555 1_555
C41 C40 1_555 1_555
H36 C41 1_555 1_555
H37 C41 1_555 1_555
C42 C41 1_555 1_555
H38 C42 1_555 1_555
H39 C42 1_555 1_555
C43 N8 1_555 1_555
H40 C43 1_555 1_555
C44 C43 1_555 1_555
H41 C44 1_555 1_555
C45 N7 1_555 1_555
C46 C45 1_555 1_555
H42 C46 1_555 1_555
H43 C46 1_555 1_555
H44 C46 1_555 1_555
Cd4 N7 1_555 1_555
N9 Cd3 1_555 1_555
O13 Cd2_2 1_555 1_555
O14 Cd3 1_555 1_555
O15 Cd3 1_555 1_555
O17 Cd2_2 1_555 1_555
N8 C45 1_555 1_555
O10 C28 1_555 1_555
C36 C39 1_555 1_555
O7 C24 1_555 1_555
O8 C24 1_555 1_555
C24 C25 1_555 1_555
H24 C27 1_555 1_555
H26 C31 1_555 1_555
Cd7 O8 1_555 1_555
Cd11_2 O7 1_555 1_555
C25 C27 1_555 1_555
O11 C35 1_555 1_555
O12 C35 1_555 1_555
C35 C32 1_555 1_555
Cd7 O11 1_555 1_555
Cd11_2 O12 1_555 1_555
H5_2 C11_2 1_555 1_555
O7_2 C24_2 1_555 1_555
O8_2 C24_2 1_555 1_555
C24_2 C25_2 1_555 1_555
C27_2 C11_2 1_555 1_555
H24_2 C27_2 1_555 1_555
Cd8 O8_2 1_555 1_555
Cd11 O7_2 1_555 1_555
C25_2 C27_2 1_555 1_555
C9_2 O13 1_555 1_555
C10_2 C9_2 1_555 1_555
C12_2 C10_2 1_555 1_555
H6_2 C12_2 1_555 1_555
C26_2 C12_2 1_555 1_555
H23_2 C26_2 1_555 1_555
O14 C9_2 1_555 1_555
N2_2 C14_2 1_555 1_555
N9 C21_2 1_555 1_555
N4_2 C19_2 1_555 1_555
H6_3 C12_3 1_555 1_555
C15_2 C14_2 1_555 1_555
H8_2 C15_2 1_555 1_555
H9_2 C15_2 1_555 1_555
H10_2 C15_2 1_555 1_555
C17_2 N2_2 1_555 1_555
H12_2 C17_2 1_555 1_555
H13_2 C17_2 1_555 1_555
C18_2 C17_2 1_555 1_555
H14_2 C18_2 1_555 1_555
H15_2 C18_2 1_555 1_555
C19_2 C18_2 1_555 1_555
H16_2 C19_2 1_555 1_555
H17_2 C19_2 1_555 1_555
C20_2 N4_2 1_555 1_555
H18_2 C20_2 1_555 1_555
C21_2 C20_2 1_555 1_555
H19_2 C21_2 1_555 1_555
C22_2 N9 1_555 1_555
C23_2 C22_2 1_555 1_555
H20_2 C23_2 1_555 1_555
H21_2 C23_2 1_555 1_555
H22_2 C23_2 1_555 1_555
N6_2 C37_2 1_555 1_555
N10 C44_2 1_555 1_555
N8_2 C42_2 1_555 1_555
C38_2 C37_2 1_555 1_555
H30_2 C38_2 1_555 1_555
H31_2 C38_2 1_555 1_555
H32_2 C38_2 1_555 1_555
C40_2 N6_2 1_555 1_555
H35_2 C40_2 1_555 1_555
C41_2 C40_2 1_555 1_555
H36_2 C41_2 1_555 1_555
H37_2 C41_2 1_555 1_555
C42_2 C41_2 1_555 1_555
H38_2 C42_2 1_555 1_555
H39_2 C42_2 1_555 1_555
C43_2 N8_2 1_555 1_555
H40_2 C43_2 1_555 1_555
C44_2 C43_2 1_555 1_555
H41_2 C44_2 1_555 1_555
C45_2 N10 1_555 1_555
C46_2 C45_2 1_555 1_555
H42_2 C46_2 1_555 1_555
H43_2 C46_2 1_555 1_555
H44_2 C46_2 1_555 1_555
N4_2 C22_2 1_555 1_555
N8_2 C45_2 1_555 1_555
O7_3 C24_3 1_555 1_555
O8_3 C24_3 1_555 1_555
C24_3 C25_3 1_555 1_555
C25_3 C26_3 1_555 1_555
H23_3 C26_3 1_555 1_555
Cd7_2 O8_3 1_555 1_555
Cd11_3 O7_3 1_555 1_555
Cd4 N1_2 1_555 1_555
Cd2_3 O1_2 1_555 1_555
N1_2 C13_2 1_555 1_555
O1_2 C1_2 1_555 1_555
O2_2 Cd4 1_555 1_555
O3_2 Cd2_3 1_555 1_555
O4_2 Cd4 1_555 1_555
O5_2 C8_2 1_555 1_555
O6_2 C8_2 1_555 1_555
C1_2 O2_2 1_555 1_555
C2_2 C1_2 1_555 1_555
C3_2 C2_2 1_555 1_555
H1_2 C3_2 1_555 1_555
C4_2 C3_2 1_555 1_555
H2_2 C4_2 1_555 1_555
C5_2 C4_2 1_555 1_555
C6_2 C5_2 1_555 1_555
H3_2 C6_2 1_555 1_555
C7_2 C2_2 1_555 1_555
H4_2 C7_2 1_555 1_555
C8_2 C5_2 1_555 1_555
C9_3 O3_2 1_555 1_555
C10_3 C9_3 1_555 1_555
C11_3 C10_3 1_555 1_555
H5_3 C11_3 1_555 1_555
C13_2 H7_2 1_555 1_555
H11_2 C16_2 1_555 1_555
Cd5 N5_2 1_555 1_555
N5_2 C36_2 1_555 1_555
O9_2 Cd2_3 1_555 1_555
O10_2 Cd5 1_555 1_555
C28_2 O9_2 1_555 1_555
C29_2 C28_2 1_555 1_555
C30_2 C29_2 1_555 1_555
H25_2 C30_2 1_555 1_555
C34_2 C29_2 1_555 1_555
H28_2 C34_2 1_555 1_555
C36_2 H29_2 1_555 1_555
Cd8_2 O5_2 1_555 1_555
Cd11_3 O6_2 1_555 1_555
O13_2 Cd2_3 1_555 1_555
O14_2 Cd5 1_555 1_555
O15_2 Cd5 1_555 1_555
O16_2 Cd4 1_555 1_555
O17_2 Cd2_3 1_555 1_555
O18_2 Cd2_3 1_555 1_555
O4_2 C9_3 1_555 1_555
C6_2 C7_2 1_555 1_555
C13_2 C16_2 1_555 1_555
O10_2 C28_2 1_555 1_555
C33_2 C34_2 1_555 1_555
C36_2 C39_2 1_555 1_555
H24_3 C27_3 1_555 1_555
O11_2 C35_2 1_555 1_555
O12_2 C35_2 1_555 1_555
H26_2 C31_2 1_555 1_555
C32_2 C31_2 1_555 1_555
C35_2 C32_2 1_555 1_555
Cd7_2 O11_2 1_555 1_555
Cd11_3 O12_2 1_555 1_555
H6_4 C12_4 1_555 1_555
O7_4 C24_4 1_555 1_555
O8_4 C24_4 1_555 1_555
C24_4 C25_4 1_555 1_555
C25_4 C26_4 1_555 1_555
C26_4 C12_4 1_555 1_555
H23_4 C26_4 1_555 1_555
Cd8_2 O8_4 1_555 1_555
Cd11_3 O7_4 1_555 1_555
C9_4 O13_2 1_555 1_555
C10_4 C9_4 1_555 1_555
C11_4 C10_4 1_555 1_555
H5_4 C11_4 1_555 1_555
C27_4 C11_4 1_555 1_555
H24_4 C27_4 1_555 1_555
O14_2 C9_4 1_555 1_555
O16 C35_3 1_555 1_555
O18 C35_3 1_555 1_555
C35_3 C32_3 1_555 1_555
H26_3 C31_3 1_555 1_555
Cd8 N5_3 1_555 1_555
N5_3 C36_3 1_555 1_555
N6_3 C37_3 1_555 1_555
N7_2 C44_3 1_555 1_555
N8_3 C42_3 1_555 1_555
O9_3 Cd11 1_555 1_555
O10_3 Cd8 1_555 1_555
C28_3 O9_3 1_555 1_555
C29_3 C28_3 1_555 1_555
C30_3 C29_3 1_555 1_555
H25_3 C30_3 1_555 1_555
C34_3 C29_3 1_555 1_555
H28_3 C34_3 1_555 1_555
C36_3 H29_3 1_555 1_555
C37_3 N5_3 1_555 1_555
C38_3 C37_3 1_555 1_555
H30_3 C38_3 1_555 1_555
H31_3 C38_3 1_555 1_555
H32_3 C38_3 1_555 1_555
C39_3 N6_3 1_555 1_555
C40_3 N6_3 1_555 1_555
H35_3 C40_3 1_555 1_555
C41_3 C40_3 1_555 1_555
H36_3 C41_3 1_555 1_555
H37_3 C41_3 1_555 1_555
C42_3 C41_3 1_555 1_555
H38_3 C42_3 1_555 1_555
H39_3 C42_3 1_555 1_555
C43_3 N8_3 1_555 1_555
H40_3 C43_3 1_555 1_555
C44_3 C43_3 1_555 1_555
H41_3 C44_3 1_555 1_555
C45_3 N7_2 1_555 1_555
C46_3 C45_3 1_555 1_555
H42_3 C46_3 1_555 1_555
H43_3 C46_3 1_555 1_555
H44_3 C46_3 1_555 1_555
Cd7_2 N7_2 1_555 1_555
N9_2 Cd8 1_555 1_555
N8_3 C45_3 1_555 1_555
O10_3 C28_3 1_555 1_555
C36_3 C39_3 1_555 1_555
O15 C8_3 1_555 1_555
O17 C8_3 1_555 1_555
C6_3 C5_3 1_555 1_555
H3_3 C6_3 1_555 1_555
C8_3 C5_3 1_555 1_555
Cd7 N1_3 1_555 1_555
Cd11_2 O1_3 1_555 1_555
N1_3 C13_3 1_555 1_555
N2_3 C14_3 1_555 1_555
N3_2 C21_3 1_555 1_555
N4_3 C19_3 1_555 1_555
O1_3 C1_3 1_555 1_555
O2_3 Cd7 1_555 1_555
C1_3 O2_3 1_555 1_555
C2_3 C1_3 1_555 1_555
C3_3 C2_3 1_555 1_555
H1_3 C3_3 1_555 1_555
C4_3 C3_3 1_555 1_555
H2_3 C4_3 1_555 1_555
C7_3 C2_3 1_555 1_555
H4_3 C7_3 1_555 1_555
C13_3 H7_3 1_555 1_555
C14_3 N1_3 1_555 1_555
C15_3 C14_3 1_555 1_555
H8_3 C15_3 1_555 1_555
H9_3 C15_3 1_555 1_555
H10_3 C15_3 1_555 1_555
C16_3 N2_3 1_555 1_555
H11_3 C16_3 1_555 1_555
C17_3 N2_3 1_555 1_555
H12_3 C17_3 1_555 1_555
H13_3 C17_3 1_555 1_555
C18_3 C17_3 1_555 1_555
H14_3 C18_3 1_555 1_555
H15_3 C18_3 1_555 1_555
C19_3 C18_3 1_555 1_555
H16_3 C19_3 1_555 1_555
H17_3 C19_3 1_555 1_555
C20_3 N4_3 1_555 1_555
H18_3 C20_3 1_555 1_555
C21_3 C20_3 1_555 1_555
H19_3 C21_3 1_555 1_555
C22_3 N3_2 1_555 1_555
C23_3 C22_3 1_555 1_555
H20_3 C23_3 1_555 1_555
H21_3 C23_3 1_555 1_555
H22_3 C23_3 1_555 1_555
Cd8_2 N3_2 1_555 1_555
N10_2 Cd7 1_555 1_555
N4_3 C22_3 1_555 1_555
C13_3 C16_3 1_555 1_555
O16_2 C35_4 1_555 1_555
O18_2 C35_4 1_555 1_555
H26_4 C31_4 1_555 1_555
C32_4 C31_4 1_555 1_555
C35_4 C32_4 1_555 1_555
Cd7_2 N1_4 1_555 1_555
Cd11_3 O1_4 1_555 1_555
N1_4 C13_4 1_555 1_555
O1_4 C1_4 1_555 1_555
O2_4 Cd7_2 1_555 1_555
O15_2 C8_4 1_555 1_555
O17_2 C8_4 1_555 1_555
C1_4 O2_4 1_555 1_555
C2_4 C1_4 1_555 1_555
C3_4 C2_4 1_555 1_555
H1_4 C3_4 1_555 1_555
C4_4 C3_4 1_555 1_555
H2_4 C4_4 1_555 1_555
C5_4 C4_4 1_555 1_555
C6_4 C5_4 1_555 1_555
H3_4 C6_4 1_555 1_555
C7_4 C2_4 1_555 1_555
H4_4 C7_4 1_555 1_555
C8_4 C5_4 1_555 1_555
C13_4 H7_4 1_555 1_555
H11_4 C16_4 1_555 1_555
Cd8_2 N5_4 1_555 1_555
N5_4 C36_4 1_555 1_555
O9_4 Cd11_3 1_555 1_555
O10_4 Cd8_2 1_555 1_555
C28_4 O9_4 1_555 1_555
C29_4 C28_4 1_555 1_555
C30_4 C29_4 1_555 1_555
H25_4 C30_4 1_555 1_555
C34_4 C29_4 1_555 1_555
H28_4 C34_4 1_555 1_555
C36_4 H29_4 1_555 1_555
C6_4 C7_4 1_555 1_555
C13_4 C16_4 1_555 1_555
O10_4 C28_4 1_555 1_555
C33_4 C34_4 1_555 1_555
C36_4 C39_4 1_555 1_555
N2_4 C14_4 1_555 1_555
N9_2 C21_4 1_555 1_555
N4_4 C19_4 1_555 1_555
C15_4 C14_4 1_555 1_555
H8_4 C15_4 1_555 1_555
H9_4 C15_4 1_555 1_555
H10_4 C15_4 1_555 1_555
C17_4 N2_4 1_555 1_555
H12_4 C17_4 1_555 1_555
H13_4 C17_4 1_555 1_555
C18_4 C17_4 1_555 1_555
H14_4 C18_4 1_555 1_555
H15_4 C18_4 1_555 1_555
C19_4 C18_4 1_555 1_555
H16_4 C19_4 1_555 1_555
H17_4 C19_4 1_555 1_555
C20_4 N4_4 1_555 1_555
H18_4 C20_4 1_555 1_555
C21_4 C20_4 1_555 1_555
H19_4 C21_4 1_555 1_555
C22_4 N9_2 1_555 1_555
C23_4 C22_4 1_555 1_555
H20_4 C23_4 1_555 1_555
H21_4 C23_4 1_555 1_555
H22_4 C23_4 1_555 1_555
N6_4 C37_4 1_555 1_555
N10_2 C44_4 1_555 1_555
N8_4 C42_4 1_555 1_555
C38_4 C37_4 1_555 1_555
H30_4 C38_4 1_555 1_555
H31_4 C38_4 1_555 1_555
H32_4 C38_4 1_555 1_555
C40_4 N6_4 1_555 1_555
H35_4 C40_4 1_555 1_555
C41_4 C40_4 1_555 1_555
H36_4 C41_4 1_555 1_555
H37_4 C41_4 1_555 1_555
C42_4 C41_4 1_555 1_555
H38_4 C42_4 1_555 1_555
H39_4 C42_4 1_555 1_555
C43_4 N8_4 1_555 1_555
H40_4 C43_4 1_555 1_555
C44_4 C43_4 1_555 1_555
H41_4 C44_4 1_555 1_555
C45_4 N10_2 1_555 1_555
C46_4 C45_4 1_555 1_555
H42_4 C46_4 1_555 1_555
H43_4 C46_4 1_555 1_555
H44_4 C46_4 1_555 1_555
N4_4 C22_4 1_555 1_555
N8_4 C45_4 1_555 1_555

#END
