
###############################################################################
#
# This file contains modified crystal structure data generated from the
# MOF subset of the Cambridge Structural Database (CSD) v543 
# hosted by the Cambridge Crystallographic Data Centre (CCDC).
#
# This work is licensed under the Creative Commons
# Attribution-NonCommercial-ShareAlike 4.0 International License.
# To view a copy of this license, visit
# http://creativecommons.org/licenses/by-nc-sa/4.0/
# or send a letter to
# Creative Commons, PO Box 1866, Mountain View, CA 94042, USA.
#
# CIF created using the CSD Python API on 29 September 2022
# The structure has been converted into the P1 space group
# The structure has a 3D framework
# The original CSD entry LIZSOE is in the orthorhombic crystal system
# The framework has been calculated to contain at least 10.0% void space
# The void calculation uses a probe of radius 1.32A, grid spacing 0.4
#
###############################################################################

data_LIZSOE
_chemical_formula_moiety         '(C214 H160 Co12 N16 O48)n'
_symmetry_cell_setting           triclinic
_symmetry_space_group_name_H-M   'P 1'
_symmetry_Int_Tables_number      1
_space_group_name_Hall           'P 1'
loop_
_symmetry_equiv_pos_site_id
_symmetry_equiv_pos_as_xyz
1 x,y,z
_cell_length_a                   13.9345(14)
_cell_length_b                   26.096(3)
_cell_length_c                   19.2265(19)
_cell_angle_alpha                90
_cell_angle_beta                 90
_cell_angle_gamma                90
_cell_volume                     6991.42
loop_
_atom_site_label
_atom_site_type_symbol
_atom_site_fract_x
_atom_site_fract_y
_atom_site_fract_z
Co8 Co 0.0000 0.14389(3) 0.2500
Co1 Co 0.02263(5) 0.14303(3) 0.06568(4)
O1 O 0.1006(3) 0.14350(15) 0.16889(19)
O6 O 0.1697(3) 0.14943(17) 0.0688(2)
C1 C 0.1763(4) 0.1481(2) 0.1343(3)
C3 C 0.2709(4) 0.1511(2) 0.1686(3)
C5 C 0.4514(4) 0.1540(3) 0.2327(3)
C10 C 0.3684(5) 0.1484(3) 0.2724(4)
H4 H 0.3720 0.1461 0.3206
C11 C 0.4419(5) 0.1590(3) 0.1619(3)
H5 H 0.4968 0.1630 0.1350
C13 C 0.3534(5) 0.1582(3) 0.1293(3)
H7 H 0.3492 0.1625 0.0813
C19 C 0.2798(4) 0.1462(3) 0.2386(3)
H11 H 0.2247 0.1411 0.2651
O7 O 0.8994(3) 0.14350(15) 0.33111(19)
O8 O 0.8303(3) 0.14943(17) 0.4312(2)
C28 C 0.8237(4) 0.1481(2) 0.3657(3)
C29 C 0.7291(4) 0.1511(2) 0.3314(3)
C30 C 0.5486(4) 0.1540(3) 0.2673(3)
C31 C 0.6316(5) 0.1484(3) 0.2276(4)
H21 H 0.6280 0.1461 0.1794
C32 C 0.5581(5) 0.1590(3) 0.3381(3)
H22 H 0.5032 0.1630 0.3650
C33 C 0.6466(5) 0.1582(3) 0.3707(3)
H23 H 0.6508 0.1625 0.4187
C34 C 0.7202(4) 0.1462(3) 0.2614(3)
H24 H 0.7753 0.1411 0.2349
Co4 Co 0.97737(5) 0.14303(3) 0.43432(4)
Co8_2 Co 1.0000 0.14389(3) 0.2500
O17 O 0.0770(3) 0.08850(15) 0.3001(2)
O18 O 0.0735(3) 0.20215(16) 0.2995(2)
C23 C 0.0370(8) 0.1742(4) 0.9160(5)
C24 C 0.0724(10) 0.2214(4) 0.9317(5)
H14 H 0.0746 0.2256 0.9813
H15 H 0.0317 0.2473 0.9119
H16 H 0.1360 0.2248 0.9129
C25 C 0.0000 0.2041(9) 0.7500
H17 H 0.0283 0.2255 0.7150
C27 C 0.0770(11) 0.1722(6) 0.7825(6)
H19 H 0.1351 0.1918 0.7909
H20 H 0.0919 0.1421 0.7550
N2 N 0.0254(8) 0.1586(5) 0.8498(4)
N3 N 0.0001(5) 0.1410(3) 0.5388(3)
C35 C 0.0380(8) 0.1017(4) 0.5769(4)
H25 H 0.0691 0.0727 0.5600
C38 C 0.0207(9) 0.1138(5) 0.6455(5)
H30 H 0.0385 0.0936 0.6832
O10 O 0.0459(3) 0.07934(15) 0.4136(2)
C47 C 0.0833(4) 0.0653(2) 0.3560(3)
C48 C 0.1414(6) 0.0169(2) 0.3574(3)
H37 H 0.1211 0.0002 0.4577
H39 H 0.1786 0.0177 0.2582
O15 O 0.0423(3) 0.20737(14) 0.4131(2)
O9 O 0.4577(3) 0.70737(14) 0.4131(2)
O12 O 0.4265(3) 0.70215(16) 0.2995(2)
C40 C 0.4240(4) 0.7240(2) 0.3556(3)
C41 C 0.3789(5) 0.7758(2) 0.3571(3)
C42 C 0.2936(6) 0.8737(3) 0.3584(3)
C43 C 0.3565(6) 0.8002(2) 0.4177(3)
H33 H 0.3703 0.7843 0.4598
C44 C 0.3133(6) 0.8483(2) 0.4178(3)
H34 H 0.2976 0.8634 0.4601
C45 C 0.3184(7) 0.8492(3) 0.2973(4)
H35 H 0.3061 0.8656 0.2553
C46 C 0.3603(7) 0.8017(3) 0.2964(4)
H36 H 0.3763 0.7868 0.2540
C49 C 0.1504(8) 0.9888(3) 0.4171(4)
C50 C 0.2026(8) 0.9436(3) 0.4178(4)
H38 H 0.2094 0.9258 0.4594
C51 C 0.1836(6) 0.9991(3) 0.2993(4)
C52 C 0.2444(6) 0.9246(3) 0.3586(3)
C53 C 0.2343(6) 0.9537(3) 0.2999(3)
H40 H 0.2627 0.9424 0.2588
Co5 Co 0.52263(5) 0.64303(3) 0.43432(4)
Co10 Co 0.5000 0.64389(3) 0.2500
O3 O 0.9541(3) 0.07934(15) 0.0864(2)
O4 O 0.9230(3) 0.08850(15) 0.1999(2)
C14 C 0.9167(4) 0.0653(2) 0.1440(3)
C15 C 0.8586(6) 0.0169(2) 0.1426(3)
H8 H 0.8789 0.0002 0.0423
H10 H 0.8214 0.0177 0.2418
O16 O 0.9577(3) 0.20737(14) 0.0869(2)
O19 O 0.9265(3) 0.20215(16) 0.2005(2)
N1 N 0.9999(5) 0.1410(3) 0.9612(3)
C22 C 0.9620(8) 0.1017(4) 0.9231(4)
H13 H 0.9309 0.0727 0.9400
C25_2 C 1.0000 0.2041(9) 0.7500
C26 C 0.9793(9) 0.1138(5) 0.8545(5)
H18 H 0.9615 0.0936 0.8168
C36 C 0.9630(8) 0.1742(4) 0.5840(5)
C37 C 0.9276(10) 0.2214(4) 0.5683(5)
H26 H 0.9254 0.2256 0.5187
H27 H 0.9683 0.2473 0.5881
H28 H 0.8640 0.2248 0.5871
H29 H 0.9717 0.2255 0.7850
C39 C 0.9230(11) 0.1722(6) 0.7175(6)
H31 H 0.8649 0.1918 0.7091
H32 H 0.9081 0.1421 0.7450
N4 N 0.9746(8) 0.1586(5) 0.6502(4)
O2 O 0.5423(3) 0.70737(14) 0.0869(2)
O5 O 0.5735(3) 0.70215(16) 0.2005(2)
C2 C 0.5760(4) 0.7240(2) 0.1444(3)
C4 C 0.6211(5) 0.7758(2) 0.1429(3)
C6 C 0.7064(6) 0.8737(3) 0.1416(3)
C7 C 0.6435(6) 0.8002(2) 0.0823(3)
H1 H 0.6297 0.7843 0.0402
C8 C 0.6867(6) 0.8483(2) 0.0822(3)
H2 H 0.7024 0.8634 0.0399
C9 C 0.6816(7) 0.8492(3) 0.2027(4)
H3 H 0.6939 0.8656 0.2447
C12 C 0.6397(7) 0.8017(3) 0.2036(4)
H6 H 0.6237 0.7868 0.2460
C16 C 0.8496(8) 0.9888(3) 0.0829(4)
C17 C 0.7974(8) 0.9436(3) 0.0822(4)
H9 H 0.7906 0.9258 0.0406
C18 C 0.8164(6) 0.9991(3) 0.2007(4)
C20 C 0.7556(6) 0.9246(3) 0.1414(3)
C21 C 0.7657(6) 0.9537(3) 0.2001(3)
H12 H 0.7373 0.9424 0.2412
Co6 Co 0.47737(5) 0.64303(3) 0.06568(4)
O7_2 O 0.3994(3) 0.64350(15) 0.16889(19)
O8_2 O 0.3303(3) 0.64943(17) 0.0688(2)
C28_2 C 0.3237(4) 0.6481(2) 0.1343(3)
C29_2 C 0.2291(4) 0.6511(2) 0.1686(3)
C30_2 C 0.0486(4) 0.6540(3) 0.2327(3)
C31_2 C 0.1316(5) 0.6484(3) 0.2724(4)
H21_2 H 0.1280 0.6461 0.3206
C32_2 C 0.0581(5) 0.6590(3) 0.1619(3)
H22_2 H 0.0032 0.6630 0.1350
C33_2 C 0.1466(5) 0.6582(3) 0.1293(3)
H23_2 H 0.1508 0.6625 0.0813
C34_2 C 0.2202(4) 0.6462(3) 0.2386(3)
H24_2 H 0.2753 0.6411 0.2651
O10_2 O 0.5459(3) 0.57934(15) 0.0864(2)
O11 O 0.5770(3) 0.58850(15) 0.1999(2)
C40_2 C 0.9240(4) 0.2240(2) 0.1444(3)
C41_2 C 0.8789(5) 0.2758(2) 0.1429(3)
C42_2 C 0.7936(6) 0.3737(3) 0.1416(3)
C43_2 C 0.8565(6) 0.3002(2) 0.0823(3)
H33_2 H 0.8703 0.2843 0.0402
C44_2 C 0.8133(6) 0.3483(2) 0.0822(3)
H34_2 H 0.7976 0.3634 0.0399
C45_2 C 0.8184(7) 0.3492(3) 0.2027(4)
H35_2 H 0.8061 0.3656 0.2447
C46_2 C 0.8603(7) 0.3017(3) 0.2036(4)
H36_2 H 0.8763 0.2868 0.2460
C47_2 C 0.5833(4) 0.5653(2) 0.1440(3)
C48_2 C 0.6414(6) 0.5169(2) 0.1426(3)
C49_2 C 0.6504(8) 0.4888(3) 0.0829(4)
H37_2 H 0.6211 0.5002 0.0423
C50_2 C 0.7026(8) 0.4436(3) 0.0822(4)
H38_2 H 0.7094 0.4258 0.0406
C51_2 C 0.6836(6) 0.4991(3) 0.2007(4)
H39_2 H 0.6786 0.5177 0.2418
C52_2 C 0.7444(6) 0.4246(3) 0.1414(3)
C53_2 C 0.7343(6) 0.4537(3) 0.2001(3)
H40_2 H 0.7627 0.4424 0.2412
O1_2 O 0.6006(3) 0.64350(15) 0.33111(19)
O3_2 O 0.4541(3) 0.57934(15) 0.4136(2)
O4_2 O 0.4230(3) 0.58850(15) 0.3001(2)
O6_2 O 0.6697(3) 0.64943(17) 0.4312(2)
C1_2 C 0.6763(4) 0.6481(2) 0.3657(3)
C2_2 C 0.0760(4) 0.2240(2) 0.3556(3)
C3_2 C 0.7709(4) 0.6511(2) 0.3314(3)
C4_2 C 0.1211(5) 0.2758(2) 0.3571(3)
C5_2 C 0.9514(4) 0.6540(3) 0.2673(3)
C6_2 C 0.2064(6) 0.3737(3) 0.3584(3)
C7_2 C 0.1435(6) 0.3002(2) 0.4177(3)
H1_2 H 0.1297 0.2843 0.4598
C8_2 C 0.1867(6) 0.3483(2) 0.4178(3)
H2_2 H 0.2024 0.3634 0.4601
C9_2 C 0.1816(7) 0.3492(3) 0.2973(4)
H3_2 H 0.1939 0.3656 0.2553
C10_2 C 0.8684(5) 0.6484(3) 0.2276(4)
H4_2 H 0.8720 0.6461 0.1794
C11_2 C 0.9419(5) 0.6590(3) 0.3381(3)
H5_2 H 0.9968 0.6630 0.3650
C12_2 C 0.1397(7) 0.3017(3) 0.2964(4)
H6_2 H 0.1237 0.2868 0.2540
C13_2 C 0.8534(5) 0.6582(3) 0.3707(3)
H7_2 H 0.8492 0.6625 0.4187
C14_2 C 0.4167(4) 0.5653(2) 0.3560(3)
C15_2 C 0.3586(6) 0.5169(2) 0.3574(3)
C16_2 C 0.3496(8) 0.4888(3) 0.4171(4)
H8_2 H 0.3789 0.5002 0.4577
C17_2 C 0.2974(8) 0.4436(3) 0.4178(4)
H9_2 H 0.2906 0.4258 0.4594
C18_2 C 0.3164(6) 0.4991(3) 0.2993(4)
H10_2 H 0.3214 0.5177 0.2582
C19_2 C 0.7798(4) 0.6462(3) 0.2614(3)
H11_2 H 0.7247 0.6411 0.2349
C20_2 C 0.2556(6) 0.4246(3) 0.3586(3)
C21_2 C 0.2657(6) 0.4537(3) 0.2999(3)
H12_2 H 0.2373 0.4424 0.2588
N1_2 N 0.4999(5) 0.6410(3) 0.5388(3)
C22_2 C 0.4620(8) 0.6017(4) 0.5769(4)
H13_2 H 0.4309 0.5727 0.5600
C23_2 C 0.5370(8) 0.6742(4) 0.5840(5)
C24_2 C 0.5724(10) 0.7214(4) 0.5683(5)
H14_2 H 0.5746 0.7256 0.5187
H15_2 H 0.5317 0.7473 0.5881
H16_2 H 0.6360 0.7248 0.5871
C25_3 C 0.5000 0.7041(9) 0.7500
H17_2 H 0.5283 0.7255 0.7850
C26_2 C 0.4793(9) 0.6138(5) 0.6455(5)
H18_2 H 0.4615 0.5936 0.6832
C27_2 C 0.5770(11) 0.6722(6) 0.7175(6)
H19_2 H 0.6351 0.6918 0.7091
H20_2 H 0.5919 0.6421 0.7450
N2_2 N 0.5254(8) 0.6586(5) 0.6502(4)
N3_2 N 0.5001(5) 0.6410(3) 0.9612(3)
C35_2 C 0.5380(8) 0.6017(4) 0.9231(4)
H25_2 H 0.5691 0.5727 0.9400
C36_2 C 0.4630(8) 0.6742(4) 0.9160(5)
C37_2 C 0.4276(10) 0.7214(4) 0.9317(5)
H26_2 H 0.4254 0.7256 0.9813
H27_2 H 0.4683 0.7473 0.9119
H28_2 H 0.3640 0.7248 0.9129
H29_2 H 0.4717 0.7255 0.7150
C38_2 C 0.5207(9) 0.6138(5) 0.8545(5)
H30_2 H 0.5385 0.5936 0.8168
C39_2 C 0.4230(11) 0.6722(6) 0.7825(6)
H31_2 H 0.3649 0.6918 0.7909
H32_2 H 0.4081 0.6421 0.7550
N4_2 N 0.4746(8) 0.6586(5) 0.8498(4)
Co6_2 Co 0.02263(5) 0.85697(3) 0.56568(4)
Co9 Co 0.0000 0.85611(3) 0.7500
Co1_2 Co 0.47737(5) 0.35697(3) 0.56568(4)
Co2 Co 0.5000 0.35611(3) 0.7500
O1_3 O 0.3994(3) 0.35650(15) 0.66889(19)
O2_2 O 0.9577(3) 0.79263(14) 0.5869(2)
O3_3 O 0.5459(3) 0.42066(15) 0.5864(2)
O4_3 O 0.5770(3) 0.41150(15) 0.6999(2)
O5_2 O 0.9265(3) 0.79785(16) 0.7005(2)
O6_3 O 0.3303(3) 0.35057(17) 0.5688(2)
C1_3 C 0.3237(4) 0.3519(2) 0.6343(3)
C2_3 C 0.9240(4) 0.7760(2) 0.6444(3)
C3_3 C 0.2291(4) 0.3489(2) 0.6686(3)
C4_3 C 0.8789(5) 0.7242(2) 0.6429(3)
C5_3 C 0.0486(4) 0.3460(3) 0.7327(3)
C6_3 C 0.7936(6) 0.6263(3) 0.6416(3)
C7_3 C 0.8565(6) 0.6998(2) 0.5823(3)
H1_3 H 0.8703 0.7157 0.5402
C8_3 C 0.8133(6) 0.6517(2) 0.5822(3)
H2_3 H 0.7976 0.6366 0.5399
C9_3 C 0.8184(7) 0.6508(3) 0.7027(4)
H3_3 H 0.8061 0.6344 0.7447
C10_3 C 0.1316(5) 0.3516(3) 0.7724(4)
H4_3 H 0.1280 0.3539 0.8206
C11_3 C 0.0581(5) 0.3410(3) 0.6619(3)
H5_3 H 0.0032 0.3370 0.6350
C12_3 C 0.8603(7) 0.6983(3) 0.7036(4)
H6_3 H 0.8763 0.7132 0.7460
C13_3 C 0.1466(5) 0.3418(3) 0.6293(3)
H7_3 H 0.1508 0.3375 0.5813
C14_3 C 0.5833(4) 0.4347(2) 0.6440(3)
C15_3 C 0.6414(6) 0.4831(2) 0.6426(3)
C16_3 C 0.6504(8) 0.5112(3) 0.5829(4)
H8_3 H 0.6211 0.4998 0.5423
C17_3 C 0.7026(8) 0.5564(3) 0.5822(4)
H9_3 H 0.7094 0.5742 0.5406
C18_3 C 0.6836(6) 0.5009(3) 0.7007(4)
H10_3 H 0.6786 0.4823 0.7418
C19_3 C 0.2202(4) 0.3538(3) 0.7386(3)
H11_3 H 0.2753 0.3589 0.7651
C20_3 C 0.7444(6) 0.5754(3) 0.6414(3)
C21_3 C 0.7343(6) 0.5463(3) 0.7001(3)
H12_3 H 0.7627 0.5576 0.7412
N1_3 N 0.5001(5) 0.3590(3) 0.4612(3)
C22_3 C 0.5380(8) 0.3983(4) 0.4231(4)
H13_3 H 0.5691 0.4273 0.4400
C23_3 C 0.4630(8) 0.3258(4) 0.4160(5)
C24_3 C 0.4276(10) 0.2786(4) 0.4317(5)
H14_3 H 0.4254 0.2744 0.4813
H15_3 H 0.4683 0.2527 0.4119
H16_3 H 0.3640 0.2752 0.4129
C25_4 C 0.5000 0.2959(9) 0.2500
H17_3 H 0.4717 0.2745 0.2150
C26_3 C 0.5207(9) 0.3862(5) 0.3545(5)
H18_3 H 0.5385 0.4064 0.3168
C27_3 C 0.4230(11) 0.3278(6) 0.2825(6)
H19_3 H 0.3649 0.3082 0.2909
H20_3 H 0.4081 0.3579 0.2550
N2_3 N 0.4746(8) 0.3414(5) 0.3498(4)
N3_3 N 0.4999(5) 0.3590(3) 0.0388(3)
C35_3 C 0.4620(8) 0.3983(4) 0.0769(4)
H25_3 H 0.4309 0.4273 0.0600
C36_3 C 0.5370(8) 0.3258(4) 0.0840(5)
C37_3 C 0.5724(10) 0.2786(4) 0.0683(5)
H26_3 H 0.5746 0.2744 0.0187
H27_3 H 0.5317 0.2527 0.0881
H28_3 H 0.6360 0.2752 0.0871
H29_3 H 0.5283 0.2745 0.2850
C38_3 C 0.4793(9) 0.3862(5) 0.1455(5)
H30_3 H 0.4615 0.4064 0.1832
C39_3 C 0.5770(11) 0.3278(6) 0.2175(6)
H31_3 H 0.6351 0.3082 0.2091
H32_3 H 0.5919 0.3579 0.2450
N4_3 N 0.5254(8) 0.3414(5) 0.1502(4)
Co9_2 Co 1.0000 0.85611(3) 0.7500
O14 O 0.6006(3) 0.35650(15) 0.83111(19)
O16_2 O 0.5423(3) 0.29263(14) 0.5869(2)
O17_2 O 0.4230(3) 0.41150(15) 0.8001(2)
O18_2 O 0.4265(3) 0.29785(16) 0.7995(2)
O19_2 O 0.5735(3) 0.29785(16) 0.7005(2)
Co3 Co 0.52263(5) 0.35697(3) 0.93432(4)
O9_2 O 0.0423(3) 0.79263(14) 0.9131(2)
O10_3 O 0.4541(3) 0.42066(15) 0.9136(2)
O12_2 O 0.0735(3) 0.79785(16) 0.7995(2)
C40_3 C 0.0760(4) 0.7760(2) 0.8556(3)
C41_3 C 0.1211(5) 0.7242(2) 0.8571(3)
C42_3 C 0.2064(6) 0.6263(3) 0.8584(3)
C43_3 C 0.1435(6) 0.6998(2) 0.9177(3)
H33_3 H 0.1297 0.7157 0.9598
C44_3 C 0.1867(6) 0.6517(2) 0.9178(3)
H34_3 H 0.2024 0.6366 0.9601
C45_3 C 0.1816(7) 0.6508(3) 0.7973(4)
H35_3 H 0.1939 0.6344 0.7553
C46_3 C 0.1397(7) 0.6983(3) 0.7964(4)
H36_3 H 0.1237 0.7132 0.7540
C47_3 C 0.4167(4) 0.4347(2) 0.8560(3)
C48_3 C 0.3586(6) 0.4831(2) 0.8574(3)
C49_3 C 0.3496(8) 0.5112(3) 0.9171(4)
H37_3 H 0.3789 0.4998 0.9577
C50_3 C 0.2974(8) 0.5564(3) 0.9178(4)
H38_3 H 0.2906 0.5742 0.9594
C51_3 C 0.3164(6) 0.5009(3) 0.7993(4)
H39_3 H 0.3214 0.4823 0.7582
C52_3 C 0.2556(6) 0.5754(3) 0.8586(3)
C53_3 C 0.2657(6) 0.5463(3) 0.7999(3)
H40_3 H 0.2373 0.5576 0.7588
O15_2 O 0.4577(3) 0.29263(14) 0.9131(2)
O20 O 0.6697(3) 0.35057(17) 0.9312(2)
C28_3 C 0.6763(4) 0.3519(2) 0.8657(3)
C29_3 C 0.7709(4) 0.3489(2) 0.8314(3)
C30_3 C 0.9514(4) 0.3460(3) 0.7673(3)
C31_3 C 0.8684(5) 0.3516(3) 0.7276(4)
H21_3 H 0.8720 0.3539 0.6794
C32_3 C 0.9419(5) 0.3410(3) 0.8381(3)
H22_3 H 0.9968 0.3370 0.8650
C33_3 C 0.8534(5) 0.3418(3) 0.8707(3)
H23_3 H 0.8492 0.3375 0.9187
C34_3 C 0.7798(4) 0.3538(3) 0.7614(3)
H24_3 H 0.7247 0.3589 0.7349
Co5_2 Co 0.97737(5) 0.85697(3) 0.93432(4)
C2_4 C 0.4240(4) 0.2760(2) 0.8556(3)
C4_4 C 0.3789(5) 0.2242(2) 0.8571(3)
C6_4 C 0.2936(6) 0.1263(3) 0.8584(3)
C7_4 C 0.3565(6) 0.1998(2) 0.9177(3)
H1_4 H 0.3703 0.2157 0.9598
C8_4 C 0.3133(6) 0.1517(2) 0.9178(3)
H2_4 H 0.2976 0.1366 0.9601
C9_4 C 0.3184(7) 0.1508(3) 0.7973(4)
H3_4 H 0.3061 0.1344 0.7553
C12_4 C 0.3603(7) 0.1983(3) 0.7964(4)
H6_4 H 0.3763 0.2132 0.7540
C16_4 C 0.1504(8) 0.0112(3) 0.9171(4)
C17_4 C 0.2026(8) 0.0564(3) 0.9178(4)
H9_4 H 0.2094 0.0742 0.9594
C18_4 C 0.1836(6) 0.0009(3) 0.7993(4)
C20_4 C 0.2444(6) 0.0754(3) 0.8586(3)
C21_4 C 0.2343(6) 0.0463(3) 0.7999(3)
H12_4 H 0.2627 0.0576 0.7588
N1_4 N 0.0001(5) 0.8590(3) 0.0388(3)
C22_4 C 0.0380(8) 0.8983(4) 0.0769(4)
H13_4 H 0.0691 0.9273 0.0600
C25_5 C 0.0000 0.7959(9) 0.2500
C26_4 C 0.0207(9) 0.8862(5) 0.1455(5)
H18_4 H 0.0385 0.9064 0.1832
C36_4 C 0.0370(8) 0.8258(4) 0.4160(5)
C37_4 C 0.0724(10) 0.7786(4) 0.4317(5)
H26_4 H 0.0746 0.7744 0.4813
H27_4 H 0.0317 0.7527 0.4119
H28_4 H 0.1360 0.7752 0.4129
H29_4 H 0.0283 0.7745 0.2150
C39_4 C 0.0770(11) 0.8278(6) 0.2825(6)
H31_4 H 0.1351 0.8082 0.2909
H32_4 H 0.0919 0.8579 0.2550
N4_4 N 0.0254(8) 0.8414(5) 0.3498(4)
O13 O 0.1006(3) 0.85650(15) 0.66889(19)
O20_2 O 0.1697(3) 0.85057(17) 0.5688(2)
O3_4 O 0.0459(3) 0.92066(15) 0.9136(2)
O4_4 O 0.0770(3) 0.91150(15) 0.8001(2)
C14_4 C 0.0833(4) 0.9347(2) 0.8560(3)
C15_4 C 0.1414(6) 0.9831(2) 0.8574(3)
H8_4 H 0.1211 0.9998 0.9577
H10_4 H 0.1786 0.9823 0.7582
C40_4 C 0.5760(4) 0.2760(2) 0.6444(3)
C41_4 C 0.6211(5) 0.2242(2) 0.6429(3)
C42_4 C 0.7064(6) 0.1263(3) 0.6416(3)
C43_4 C 0.6435(6) 0.1998(2) 0.5823(3)
H33_4 H 0.6297 0.2157 0.5402
C44_4 C 0.6867(6) 0.1517(2) 0.5822(3)
H34_4 H 0.7024 0.1366 0.5399
C45_4 C 0.6816(7) 0.1508(3) 0.7027(4)
H35_4 H 0.6939 0.1344 0.7447
C46_4 C 0.6397(7) 0.1983(3) 0.7036(4)
H36_4 H 0.6237 0.2132 0.7460
C49_4 C 0.8496(8) 0.0112(3) 0.5829(4)
C50_4 C 0.7974(8) 0.0564(3) 0.5822(4)
H38_4 H 0.7906 0.0742 0.5406
C51_4 C 0.8164(6) 0.0009(3) 0.7007(4)
C52_4 C 0.7556(6) 0.0754(3) 0.6414(3)
C53_4 C 0.7657(6) 0.0463(3) 0.7001(3)
H40_4 H 0.7373 0.0576 0.7412
C23_4 C 0.9630(8) 0.8258(4) 0.0840(5)
C24_4 C 0.9276(10) 0.7786(4) 0.0683(5)
H14_4 H 0.9254 0.7744 0.0187
H15_4 H 0.9683 0.7527 0.0881
H16_4 H 0.8640 0.7752 0.0871
C25_6 C 1.0000 0.7959(9) 0.2500
H17_4 H 0.9717 0.7745 0.2850
C27_4 C 0.9230(11) 0.8278(6) 0.2175(6)
H19_4 H 0.8649 0.8082 0.2091
H20_4 H 0.9081 0.8579 0.2450
N2_4 N 0.9746(8) 0.8414(5) 0.1502(4)
N3_4 N 0.9999(5) 0.8590(3) 0.4612(3)
C35_4 C 0.9620(8) 0.8983(4) 0.4231(4)
H25_4 H 0.9309 0.9273 0.4400
C38_4 C 0.9793(9) 0.8862(5) 0.3545(5)
H30_4 H 0.9615 0.9064 0.3168
O10_4 O 0.9541(3) 0.92066(15) 0.5864(2)
O11_2 O 0.9230(3) 0.91150(15) 0.6999(2)
C47_4 C 0.9167(4) 0.9347(2) 0.6440(3)
C48_4 C 0.8586(6) 0.9831(2) 0.6426(3)
H37_4 H 0.8789 0.9998 0.5423
H39_4 H 0.8214 0.9823 0.7418
O1_4 O 0.8994(3) 0.85650(15) 0.83111(19)
O6_4 O 0.8303(3) 0.85057(17) 0.9312(2)
C1_4 C 0.8237(4) 0.8519(2) 0.8657(3)
C3_4 C 0.7291(4) 0.8489(2) 0.8314(3)
C5_4 C 0.5486(4) 0.8460(3) 0.7673(3)
C10_4 C 0.6316(5) 0.8516(3) 0.7276(4)
H4_4 H 0.6280 0.8539 0.6794
C11_4 C 0.5581(5) 0.8410(3) 0.8381(3)
H5_4 H 0.5032 0.8370 0.8650
C13_4 C 0.6466(5) 0.8418(3) 0.8707(3)
H7_4 H 0.6508 0.8375 0.9187
C19_4 C 0.7202(4) 0.8538(3) 0.7614(3)
H11_4 H 0.7753 0.8589 0.7349
C28_4 C 0.1763(4) 0.8519(2) 0.6343(3)
C29_4 C 0.2709(4) 0.8489(2) 0.6686(3)
C30_4 C 0.4514(4) 0.8460(3) 0.7327(3)
C31_4 C 0.3684(5) 0.8516(3) 0.7724(4)
H21_4 H 0.3720 0.8539 0.8206
C32_4 C 0.4419(5) 0.8410(3) 0.6619(3)
H22_4 H 0.4968 0.8370 0.6350
C33_4 C 0.3534(5) 0.8418(3) 0.6293(3)
H23_4 H 0.3492 0.8375 0.5813
C34_4 C 0.2798(4) 0.8538(3) 0.7386(3)
H24_4 H 0.2247 0.8589 0.7651
loop_
_geom_bond_atom_site_label_1
_geom_bond_atom_site_label_2
_geom_bond_site_symmetry_1
_geom_bond_site_symmetry_2
Co1 O1 1_555 1_555
Co8 O1 1_555 1_555
O1 C1 1_555 1_555
O6 Co1 1_555 1_555
C1 O6 1_555 1_555
C3 C1 1_555 1_555
C5 C10 1_555 1_555
C10 H4 1_555 1_555
C11 C5 1_555 1_555
H5 C11 1_555 1_555
C13 C3 1_555 1_555
H7 C13 1_555 1_555
C19 C3 1_555 1_555
H11 C19 1_555 1_555
O7 C28 1_555 1_555
O8 C28 1_555 1_555
C28 C29 1_555 1_555
C29 C33 1_555 1_555
C30 C5 1_555 1_555
C31 C30 1_555 1_555
H21 C31 1_555 1_555
C32 C30 1_555 1_555
H22 C32 1_555 1_555
C33 C32 1_555 1_555
H23 C33 1_555 1_555
C34 C29 1_555 1_555
H24 C34 1_555 1_555
Co4 O7 1_555 1_555
Co8_2 O7 1_555 1_555
O17 Co8 1_555 1_555
O18 Co8 1_555 1_555
C10 C19 1_555 1_555
C11 C13 1_555 1_555
O8 Co4 1_555 1_555
C31 C34 1_555 1_555
C24 C23 1_555 1_555
H14 C24 1_555 1_555
H15 C24 1_555 1_555
H16 C24 1_555 1_555
C25 H17 1_555 1_555
C27 C25 1_555 1_555
H19 C27 1_555 1_555
H20 C27 1_555 1_555
N2 C23 1_555 1_555
N3 C35 1_555 1_555
C35 H25 1_555 1_555
C38 C35 1_555 1_555
H30 C38 1_555 1_555
O17 C47 1_555 1_555
C47 O10 1_555 1_555
C48 C47 1_555 1_555
C27 N2 1_555 1_555
O9 C40 1_555 1_555
O12 C40 1_555 1_555
C40 C41 1_555 1_555
C41 C43 1_555 1_555
C42 C44 1_555 1_555
C43 H33 1_555 1_555
C44 C43 1_555 1_555
H34 C44 1_555 1_555
C45 C42 1_555 1_555
H35 C45 1_555 1_555
C46 C41 1_555 1_555
H36 C46 1_555 1_555
C50 C49 1_555 1_555
H38 C50 1_555 1_555
C52 C42 1_555 1_555
C53 C51 1_555 1_555
H40 C53 1_555 1_555
Co5 O9 1_555 1_555
Co10 O12 1_555 1_555
C45 C46 1_555 1_555
C50 C52 1_555 1_555
C52 C53 1_555 1_555
O4 Co8_2 1_555 1_555
C14 O3 1_555 1_555
C15 C14 1_555 1_555
O19 Co8_2 1_555 1_555
O4 C14 1_555 1_555
C22 N1 1_555 1_555
H13 C22 1_555 1_555
C26 C22 1_555 1_555
H18 C26 1_555 1_555
C37 C36 1_555 1_555
H26 C37 1_555 1_555
H27 C37 1_555 1_555
H28 C37 1_555 1_555
H29 C25_2 1_555 1_555
C39 C25_2 1_555 1_555
H31 C39 1_555 1_555
H32 C39 1_555 1_555
N4 C36 1_555 1_555
C39 N4 1_555 1_555
O2 C2 1_555 1_555
O5 C2 1_555 1_555
C2 C4 1_555 1_555
C4 C7 1_555 1_555
C6 C8 1_555 1_555
C7 H1 1_555 1_555
C8 C7 1_555 1_555
H2 C8 1_555 1_555
C9 C6 1_555 1_555
H3 C9 1_555 1_555
C12 C4 1_555 1_555
H6 C12 1_555 1_555
C17 C16 1_555 1_555
H9 C17 1_555 1_555
C20 C6 1_555 1_555
C21 C18 1_555 1_555
H12 C21 1_555 1_555
Co6 O2 1_555 1_555
Co10 O5 1_555 1_555
C9 C12 1_555 1_555
C17 C20 1_555 1_555
C20 C21 1_555 1_555
O7_2 C28_2 1_555 1_555
O8_2 C28_2 1_555 1_555
C28_2 C29_2 1_555 1_555
C29_2 C33_2 1_555 1_555
C31_2 C30_2 1_555 1_555
H21_2 C31_2 1_555 1_555
C32_2 C30_2 1_555 1_555
H22_2 C32_2 1_555 1_555
C33_2 C32_2 1_555 1_555
H23_2 C33_2 1_555 1_555
C34_2 C29_2 1_555 1_555
H24_2 C34_2 1_555 1_555
Co6 O7_2 1_555 1_555
Co10 O7_2 1_555 1_555
O8_2 Co6 1_555 1_555
C31_2 C34_2 1_555 1_555
O16 C40_2 1_555 1_555
O10_2 Co6 1_555 1_555
O11 C47_2 1_555 1_555
O19 C40_2 1_555 1_555
C40_2 C41_2 1_555 1_555
C41_2 C43_2 1_555 1_555
C42_2 C44_2 1_555 1_555
C43_2 H33_2 1_555 1_555
C44_2 C43_2 1_555 1_555
H34_2 C44_2 1_555 1_555
C45_2 C42_2 1_555 1_555
H35_2 C45_2 1_555 1_555
C46_2 C41_2 1_555 1_555
H36_2 C46_2 1_555 1_555
C47_2 O10_2 1_555 1_555
C48_2 C47_2 1_555 1_555
C49_2 C48_2 1_555 1_555
H37_2 C49_2 1_555 1_555
C50_2 C49_2 1_555 1_555
H38_2 C50_2 1_555 1_555
C51_2 C48_2 1_555 1_555
H39_2 C51_2 1_555 1_555
C52_2 C42_2 1_555 1_555
C53_2 C51_2 1_555 1_555
H40_2 C53_2 1_555 1_555
Co10 O11 1_555 1_555
C45_2 C46_2 1_555 1_555
C50_2 C52_2 1_555 1_555
C52_2 C53_2 1_555 1_555
Co5 O1_2 1_555 1_555
Co10 O1_2 1_555 1_555
O1_2 C1_2 1_555 1_555
O15 C2_2 1_555 1_555
O3_2 Co5 1_555 1_555
O4_2 Co10 1_555 1_555
O18 C2_2 1_555 1_555
O6_2 Co5 1_555 1_555
C1_2 O6_2 1_555 1_555
C2_2 C4_2 1_555 1_555
C3_2 C1_2 1_555 1_555
C4_2 C7_2 1_555 1_555
C5_2 C10_2 1_555 1_555
C6_2 C8_2 1_555 1_555
C7_2 H1_2 1_555 1_555
C8_2 C7_2 1_555 1_555
H2_2 C8_2 1_555 1_555
C9_2 C6_2 1_555 1_555
H3_2 C9_2 1_555 1_555
C10_2 H4_2 1_555 1_555
C11_2 C5_2 1_555 1_555
H5_2 C11_2 1_555 1_555
C12_2 C4_2 1_555 1_555
H6_2 C12_2 1_555 1_555
C13_2 C3_2 1_555 1_555
H7_2 C13_2 1_555 1_555
C14_2 O3_2 1_555 1_555
C15_2 C14_2 1_555 1_555
C16_2 C15_2 1_555 1_555
H8_2 C16_2 1_555 1_555
C17_2 C16_2 1_555 1_555
H9_2 C17_2 1_555 1_555
C18_2 C15_2 1_555 1_555
H10_2 C18_2 1_555 1_555
C19_2 C3_2 1_555 1_555
H11_2 C19_2 1_555 1_555
C20_2 C6_2 1_555 1_555
C21_2 C18_2 1_555 1_555
H12_2 C21_2 1_555 1_555
N1_2 Co5 1_555 1_555
C22_2 N1_2 1_555 1_555
H13_2 C22_2 1_555 1_555
C23_2 N1_2 1_555 1_555
C24_2 C23_2 1_555 1_555
H14_2 C24_2 1_555 1_555
H15_2 C24_2 1_555 1_555
H16_2 C24_2 1_555 1_555
C25_3 H17_2 1_555 1_555
C26_2 C22_2 1_555 1_555
H18_2 C26_2 1_555 1_555
C27_2 C25_3 1_555 1_555
H19_2 C27_2 1_555 1_555
H20_2 C27_2 1_555 1_555
N2_2 C23_2 1_555 1_555
N3_2 C35_2 1_555 1_555
C35_2 H25_2 1_555 1_555
C36_2 N3_2 1_555 1_555
C37_2 C36_2 1_555 1_555
H26_2 C37_2 1_555 1_555
H27_2 C37_2 1_555 1_555
H28_2 C37_2 1_555 1_555
H29_2 C25_3 1_555 1_555
C38_2 C35_2 1_555 1_555
H30_2 C38_2 1_555 1_555
C39_2 C25_3 1_555 1_555
H31_2 C39_2 1_555 1_555
H32_2 C39_2 1_555 1_555
N4_2 C36_2 1_555 1_555
O4_2 C14_2 1_555 1_555
C9_2 C12_2 1_555 1_555
C10_2 C19_2 1_555 1_555
C11_2 C13_2 1_555 1_555
C17_2 C20_2 1_555 1_555
C20_2 C21_2 1_555 1_555
C26_2 N2_2 1_555 1_555
C27_2 N2_2 1_555 1_555
C38_2 N4_2 1_555 1_555
C39_2 N4_2 1_555 1_555
Co1_2 O1_3 1_555 1_555
Co2 O1_3 1_555 1_555
O1_3 C1_3 1_555 1_555
O2_2 C2_3 1_555 1_555
O3_3 Co1_2 1_555 1_555
O4_3 Co2 1_555 1_555
O5_2 C2_3 1_555 1_555
O6_3 Co1_2 1_555 1_555
C1_3 O6_3 1_555 1_555
C2_3 C4_3 1_555 1_555
C3_3 C1_3 1_555 1_555
C4_3 C7_3 1_555 1_555
C5_3 C10_3 1_555 1_555
C6_3 C8_3 1_555 1_555
C7_3 H1_3 1_555 1_555
C8_3 C7_3 1_555 1_555
H2_3 C8_3 1_555 1_555
C9_3 C6_3 1_555 1_555
H3_3 C9_3 1_555 1_555
C10_3 H4_3 1_555 1_555
C11_3 C5_3 1_555 1_555
H5_3 C11_3 1_555 1_555
C12_3 C4_3 1_555 1_555
H6_3 C12_3 1_555 1_555
C13_3 C3_3 1_555 1_555
H7_3 C13_3 1_555 1_555
C14_3 O3_3 1_555 1_555
C15_3 C14_3 1_555 1_555
C16_3 C15_3 1_555 1_555
H8_3 C16_3 1_555 1_555
C17_3 C16_3 1_555 1_555
H9_3 C17_3 1_555 1_555
C18_3 C15_3 1_555 1_555
H10_3 C18_3 1_555 1_555
C19_3 C3_3 1_555 1_555
H11_3 C19_3 1_555 1_555
C20_3 C6_3 1_555 1_555
C21_3 C18_3 1_555 1_555
H12_3 C21_3 1_555 1_555
N1_3 Co1_2 1_555 1_555
C22_3 N1_3 1_555 1_555
H13_3 C22_3 1_555 1_555
C23_3 N1_3 1_555 1_555
C24_3 C23_3 1_555 1_555
H14_3 C24_3 1_555 1_555
H15_3 C24_3 1_555 1_555
H16_3 C24_3 1_555 1_555
C25_4 H17_3 1_555 1_555
C26_3 C22_3 1_555 1_555
H18_3 C26_3 1_555 1_555
C27_3 C25_4 1_555 1_555
H19_3 C27_3 1_555 1_555
H20_3 C27_3 1_555 1_555
N2_3 C23_3 1_555 1_555
N3_3 C35_3 1_555 1_555
C35_3 H25_3 1_555 1_555
C36_3 N3_3 1_555 1_555
C37_3 C36_3 1_555 1_555
H26_3 C37_3 1_555 1_555
H27_3 C37_3 1_555 1_555
H28_3 C37_3 1_555 1_555
H29_3 C25_4 1_555 1_555
C38_3 C35_3 1_555 1_555
H30_3 C38_3 1_555 1_555
C39_3 C25_4 1_555 1_555
H31_3 C39_3 1_555 1_555
H32_3 C39_3 1_555 1_555
N4_3 C36_3 1_555 1_555
Co9_2 O5_2 1_555 1_555
O14 Co2 1_555 1_555
O16_2 Co1_2 1_555 1_555
O17_2 Co2 1_555 1_555
O18_2 Co2 1_555 1_555
O19_2 Co2 1_555 1_555
O4_3 C14_3 1_555 1_555
C9_3 C12_3 1_555 1_555
C10_3 C19_3 1_555 1_555
C11_3 C13_3 1_555 1_555
C17_3 C20_3 1_555 1_555
C20_3 C21_3 1_555 1_555
C26_3 N2_3 1_555 1_555
C27_3 N2_3 1_555 1_555
C38_3 N4_3 1_555 1_555
C39_3 N4_3 1_555 1_555
O9_2 C40_3 1_555 1_555
O10_3 Co3 1_555 1_555
O17_2 C47_3 1_555 1_555
O12_2 C40_3 1_555 1_555
C40_3 C41_3 1_555 1_555
C41_3 C43_3 1_555 1_555
C42_3 C44_3 1_555 1_555
C43_3 H33_3 1_555 1_555
C44_3 C43_3 1_555 1_555
H34_3 C44_3 1_555 1_555
C45_3 C42_3 1_555 1_555
H35_3 C45_3 1_555 1_555
C46_3 C41_3 1_555 1_555
H36_3 C46_3 1_555 1_555
C47_3 O10_3 1_555 1_555
C48_3 C47_3 1_555 1_555
C49_3 C48_3 1_555 1_555
H37_3 C49_3 1_555 1_555
C50_3 C49_3 1_555 1_555
H38_3 C50_3 1_555 1_555
C51_3 C48_3 1_555 1_555
H39_3 C51_3 1_555 1_555
C52_3 C42_3 1_555 1_555
C53_3 C51_3 1_555 1_555
H40_3 C53_3 1_555 1_555
Co9 O12_2 1_555 1_555
O14 Co3 1_555 1_555
O15_2 Co3 1_555 1_555
O20 Co3 1_555 1_555
C45_3 C46_3 1_555 1_555
C50_3 C52_3 1_555 1_555
C52_3 C53_3 1_555 1_555
O14 C28_3 1_555 1_555
O20 C28_3 1_555 1_555
C28_3 C29_3 1_555 1_555
C29_3 C33_3 1_555 1_555
C31_3 C30_3 1_555 1_555
H21_3 C31_3 1_555 1_555
C32_3 C30_3 1_555 1_555
H22_3 C32_3 1_555 1_555
C33_3 C32_3 1_555 1_555
H23_3 C33_3 1_555 1_555
C34_3 C29_3 1_555 1_555
H24_3 C34_3 1_555 1_555
C31_3 C34_3 1_555 1_555
O15_2 C2_4 1_555 1_555
O18_2 C2_4 1_555 1_555
C2_4 C4_4 1_555 1_555
C4_4 C7_4 1_555 1_555
C6_4 C8_4 1_555 1_555
C7_4 H1_4 1_555 1_555
C8_4 C7_4 1_555 1_555
H2_4 C8_4 1_555 1_555
C9_4 C6_4 1_555 1_555
H3_4 C9_4 1_555 1_555
C12_4 C4_4 1_555 1_555
H6_4 C12_4 1_555 1_555
C17_4 C16_4 1_555 1_555
H9_4 C17_4 1_555 1_555
C20_4 C6_4 1_555 1_555
C21_4 C18_4 1_555 1_555
H12_4 C21_4 1_555 1_555
C9_4 C12_4 1_555 1_555
C17_4 C20_4 1_555 1_555
C20_4 C21_4 1_555 1_555
C22_4 N1_4 1_555 1_555
H13_4 C22_4 1_555 1_555
C26_4 C22_4 1_555 1_555
H18_4 C26_4 1_555 1_555
C37_4 C36_4 1_555 1_555
H26_4 C37_4 1_555 1_555
H27_4 C37_4 1_555 1_555
H28_4 C37_4 1_555 1_555
H29_4 C25_5 1_555 1_555
C39_4 C25_5 1_555 1_555
H31_4 C39_4 1_555 1_555
H32_4 C39_4 1_555 1_555
N4_4 C36_4 1_555 1_555
O13 Co6_2 1_555 1_555
O20_2 Co6_2 1_555 1_555
C39_4 N4_4 1_555 1_555
Co9 O13 1_555 1_555
O4_4 Co9 1_555 1_555
C14_4 O3_4 1_555 1_555
C15_4 C14_4 1_555 1_555
O4_4 C14_4 1_555 1_555
O16_2 C40_4 1_555 1_555
O19_2 C40_4 1_555 1_555
C40_4 C41_4 1_555 1_555
C41_4 C43_4 1_555 1_555
C42_4 C44_4 1_555 1_555
C43_4 H33_4 1_555 1_555
C44_4 C43_4 1_555 1_555
H34_4 C44_4 1_555 1_555
C45_4 C42_4 1_555 1_555
H35_4 C45_4 1_555 1_555
C46_4 C41_4 1_555 1_555
H36_4 C46_4 1_555 1_555
C50_4 C49_4 1_555 1_555
H38_4 C50_4 1_555 1_555
C52_4 C42_4 1_555 1_555
C53_4 C51_4 1_555 1_555
H40_4 C53_4 1_555 1_555
C45_4 C46_4 1_555 1_555
C50_4 C52_4 1_555 1_555
C52_4 C53_4 1_555 1_555
C24_4 C23_4 1_555 1_555
H14_4 C24_4 1_555 1_555
H15_4 C24_4 1_555 1_555
H16_4 C24_4 1_555 1_555
C25_6 H17_4 1_555 1_555
C27_4 C25_6 1_555 1_555
H19_4 C27_4 1_555 1_555
H20_4 C27_4 1_555 1_555
N2_4 C23_4 1_555 1_555
N3_4 C35_4 1_555 1_555
C35_4 H25_4 1_555 1_555
C38_4 C35_4 1_555 1_555
H30_4 C38_4 1_555 1_555
O11_2 C47_4 1_555 1_555
C47_4 O10_4 1_555 1_555
C48_4 C47_4 1_555 1_555
Co9_2 O11_2 1_555 1_555
C27_4 N2_4 1_555 1_555
Co5_2 O1_4 1_555 1_555
Co9_2 O1_4 1_555 1_555
O1_4 C1_4 1_555 1_555
O6_4 Co5_2 1_555 1_555
C1_4 O6_4 1_555 1_555
C3_4 C1_4 1_555 1_555
C5_4 C10_4 1_555 1_555
C10_4 H4_4 1_555 1_555
C11_4 C5_4 1_555 1_555
H5_4 C11_4 1_555 1_555
C13_4 C3_4 1_555 1_555
H7_4 C13_4 1_555 1_555
C19_4 C3_4 1_555 1_555
H11_4 C19_4 1_555 1_555
O13 C28_4 1_555 1_555
O20_2 C28_4 1_555 1_555
C28_4 C29_4 1_555 1_555
C29_4 C33_4 1_555 1_555
C30_4 C5_4 1_555 1_555
C31_4 C30_4 1_555 1_555
H21_4 C31_4 1_555 1_555
C32_4 C30_4 1_555 1_555
H22_4 C32_4 1_555 1_555
C33_4 C32_4 1_555 1_555
H23_4 C33_4 1_555 1_555
C34_4 C29_4 1_555 1_555
H24_4 C34_4 1_555 1_555
C10_4 C19_4 1_555 1_555
C11_4 C13_4 1_555 1_555
C31_4 C34_4 1_555 1_555

#END
