
###############################################################################
#
# This file contains modified crystal structure data generated from the
# MOF subset of the Cambridge Structural Database (CSD) v543 
# hosted by the Cambridge Crystallographic Data Centre (CCDC).
#
# This work is licensed under the Creative Commons
# Attribution-NonCommercial-ShareAlike 4.0 International License.
# To view a copy of this license, visit
# http://creativecommons.org/licenses/by-nc-sa/4.0/
# or send a letter to
# Creative Commons, PO Box 1866, Mountain View, CA 94042, USA.
#
# CIF created using the CSD Python API on 29 September 2022
# The structure has been converted into the P1 space group
# The structure has a 3D framework
# The original CSD entry LOBHAM is in the monoclinic crystal system
# The framework has been calculated to contain at least 10.0% void space
# The void calculation uses a probe of radius 1.32A, grid spacing 0.4
#
###############################################################################

data_LOBHAM
_chemical_formula_moiety         '(C60 H52 N24 Ni12 O27)n'
_symmetry_cell_setting           triclinic
_symmetry_space_group_name_H-M   'P 1'
_symmetry_Int_Tables_number      1
_space_group_name_Hall           'P 1'
loop_
_symmetry_equiv_pos_site_id
_symmetry_equiv_pos_as_xyz
1 x,y,z
_cell_length_a                   13.9111(2)
_cell_length_b                   13.5328(2)
_cell_length_c                   17.7634(3)
_cell_angle_alpha                90
_cell_angle_beta                 111.2920(10)
_cell_angle_gamma                90
_cell_volume                     3115.81
loop_
_atom_site_label
_atom_site_type_symbol
_atom_site_fract_x
_atom_site_fract_y
_atom_site_fract_z
Ni2 Ni 0.0000 0.0000 0.0000
Ni8 Ni 0.73855(2) 0.48289(2) 0.422762(18)
N12 N 0.08124(15) 0.06955(15) 0.10885(12)
N15 N 0.18722(15) 0.06040(16) 0.14084(13)
C22 C 0.67074(19) 0.18450(19) 0.10578(16)
C23 C 0.57016(19) 0.15254(19) 0.09100(16)
H24 H 0.5375 0.1095 0.0477
C24 C 0.51838(19) 0.18421(19) 0.14024(16)
C25 C 0.56655(19) 0.24738(19) 0.20475(16)
H25 H 0.5299 0.2718 0.2361
C26 C 0.66919(19) 0.2744(2) 0.22287(16)
C27 C 0.72047(19) 0.24249(19) 0.17296(16)
H26 H 0.7897 0.2605 0.1850
C28 C 0.72570(18) 0.15330(19) 0.05061(16)
O11 O 0.81893(14) 0.18025(15) 0.06966(12)
C29 C 0.40920(19) 0.1500(2) 0.12280(17)
O12 O 0.39436(13) 0.05855(13) 0.11238(12)
O14 O 0.34275(17) 0.21264(18) 0.1187(2)
C30 C 0.72599(19) 0.3333(2) 0.29673(16)
O15 O 0.67573(13) 0.39064(14) 0.32428(11)
O18 O 0.82299(13) 0.31960(15) 0.32810(12)
Ni2_2 Ni -0.0000 0.0000 1.0000
C1 C 0.22768(19) 0.1101(2) 0.92472(16)
H3 H 0.2978 0.1145 0.9315
N1 N 0.19197(15) 0.06689(16) 0.97477(13)
N2 N 0.08590(15) 0.07649(15) 0.94364(13)
C2 C 0.0620(2) 0.1249(2) 0.87579(16)
N3 N 0.14838(17) 0.14770(17) 0.86144(14)
C3 C 0.1542(2) 0.2014(2) 0.79122(18)
H5 H 0.1002 0.1776 0.7418
H6 H 0.2213 0.1893 0.7865
C4 C 0.1404(2) 0.3109(2) 0.80122(18)
H7 H 0.1975 0.3358 0.8483
H8 H 0.0758 0.3225 0.8102
N4 N 0.13809(17) 0.36312(17) 0.72826(14)
C5 C 0.0543(2) 0.3843(2) 0.66267(16)
N5 N 0.08124(15) 0.43045(15) 0.60885(12)
N6 N 0.18722(15) 0.43960(16) 0.64084(13)
C6 C 0.2192(2) 0.3985(2) 0.71213(16)
H10 H 0.2885 0.3943 0.7471
Ni4 Ni 0.26145(2) 0.51711(2) 0.577238(18)
Ni5 Ni 0.73855(2) 0.01711(2) 0.922762(18)
Ni9 Ni 0.0000 0.5000 0.5000
O9 O 0.67667(13) 0.10222(13) 0.99008(11)
Ni1 Ni 0.26145(2) 0.98289(2) 0.077238(18)
Ni2_3 Ni 0.0000 1.0000 0.0000
O1 O 0.12030(12) 0.90031(13) 0.03378(11)
H2 H 0.136(2) 0.865(2) 0.077(2)
O2 O 0.32333(13) 0.89778(13) 0.00992(11)
H17 H 0.0054 0.8585 0.1582
H22 H 0.0138 0.6318 0.3435
O16 O 0.32427(13) 0.89064(14) 0.17572(11)
Ni2_4 Ni -0.0000 1.0000 1.0000
H1 H 0.140(2) 0.861(2) 0.9979(19)
C7 C 0.32926(19) 0.81550(19) 0.89422(16)
C8 C 0.42984(19) 0.84746(19) 0.90900(16)
H11 H 0.4625 0.8905 0.9523
C9 C 0.48162(19) 0.81579(19) 0.85976(16)
C10 C 0.43345(19) 0.75262(19) 0.79525(16)
H12 H 0.4701 0.7282 0.7639
C11 C 0.33081(19) 0.7256(2) 0.77713(16)
C12 C 0.27953(19) 0.75751(19) 0.82704(16)
H13 H 0.2103 0.7395 0.8150
C13 C 0.27430(18) 0.84670(19) 0.94939(16)
O3 O 0.18107(14) 0.81975(15) 0.93034(12)
C14 C 0.59080(19) 0.8500(2) 0.87720(17)
O4 O 0.60564(13) 0.94145(13) 0.88762(12)
O5 O 0.65725(17) 0.78736(18) 0.8813(2)
C15 C 0.27401(19) 0.6667(2) 0.70327(16)
O6 O 0.32427(13) 0.60936(14) 0.67572(11)
O7 O 0.17701(13) 0.68040(15) 0.67190(12)
Ni2_5 Ni 1.0000 0.0000 0.0000
H14 H 0.860(2) 0.139(2) 0.0021(19)
Ni2_6 Ni 1.0000 0.0000 1.0000
H4 H 0.9946 0.1415 0.8418
H9 H 0.9862 0.3682 0.6565
Ni9_2 Ni 1.0000 0.5000 0.5000
O8 O 0.87970(12) 0.09969(13) 0.96622(11)
H15 H 0.864(2) 0.135(2) 0.923(2)
O17 O 0.67573(13) 0.10936(14) 0.82428(11)
Ni2_7 Ni 1.0000 1.0000 0.0000
C16 C 0.77232(19) 0.8899(2) 0.07528(16)
H16 H 0.7022 0.8855 0.0685
N7 N 0.80803(15) 0.93311(16) 0.02523(13)
N8 N 0.91410(15) 0.92351(15) 0.05636(13)
C17 C 0.9380(2) 0.8751(2) 0.12421(16)
N9 N 0.85162(17) 0.85230(17) 0.13856(14)
C18 C 0.8458(2) 0.7986(2) 0.20878(18)
H18 H 0.8998 0.8224 0.2582
H19 H 0.7787 0.8107 0.2135
C19 C 0.8596(2) 0.6891(2) 0.19878(18)
H20 H 0.8025 0.6642 0.1517
H21 H 0.9242 0.6775 0.1898
N10 N 0.86191(17) 0.63688(17) 0.27174(14)
C20 C 0.9457(2) 0.6157(2) 0.33733(16)
N11 N 0.91876(15) 0.56955(15) 0.39115(12)
N14 N 0.81278(15) 0.56040(16) 0.35916(13)
C21 C 0.7808(2) 0.6015(2) 0.28787(16)
H23 H 0.7115 0.6057 0.2529
Ni2_8 Ni 1.0000 1.0000 1.0000
N13 N 0.91876(15) 0.93045(15) 0.89115(12)
N16 N 0.81278(15) 0.93960(16) 0.85916(13)
H4_2 H 0.0054 0.6415 0.6582
H9_2 H 0.0138 0.8682 0.8435
O8_2 O 0.12030(12) 0.59969(13) 0.53378(11)
H14_2 H 0.140(2) 0.639(2) 0.4979(19)
H15_2 H 0.136(2) 0.635(2) 0.577(2)
C16_2 C 0.22768(19) 0.3899(2) 0.42472(16)
H16_2 H 0.2978 0.3855 0.4315
N7_2 N 0.19197(15) 0.43311(16) 0.47477(13)
N8_2 N 0.08590(15) 0.42351(15) 0.44364(13)
C17_2 C 0.0620(2) 0.3751(2) 0.37579(16)
N9_2 N 0.14838(17) 0.35230(17) 0.36144(14)
C18_2 C 0.1542(2) 0.2986(2) 0.29122(18)
H18_2 H 0.1002 0.3224 0.2418
H19_2 H 0.2213 0.3107 0.2865
C19_2 C 0.1404(2) 0.1891(2) 0.30122(18)
H20_2 H 0.1975 0.1642 0.3483
H21_2 H 0.0758 0.1775 0.3102
N10_2 N 0.13809(17) 0.13688(17) 0.22826(14)
C20_2 C 0.0543(2) 0.1157(2) 0.16267(16)
C21_2 C 0.2192(2) 0.1015(2) 0.21213(16)
H23_2 H 0.2885 0.1057 0.2471
O10 O 0.32333(13) 0.60222(13) 0.50992(11)
O13 O 0.39436(13) 0.44145(13) 0.61238(12)
O1_2 O 0.87970(12) 0.40031(13) 0.46622(11)
H1_2 H 0.860(2) 0.361(2) 0.5021(19)
H2_2 H 0.864(2) 0.365(2) 0.423(2)
C1_2 C 0.77232(19) 0.6101(2) 0.57528(16)
H3_2 H 0.7022 0.6145 0.5685
N1_2 N 0.80803(15) 0.56689(16) 0.52523(13)
N2_2 N 0.91410(15) 0.57649(15) 0.55636(13)
C2_2 C 0.9380(2) 0.6249(2) 0.62421(16)
N3_2 N 0.85162(17) 0.64770(17) 0.63856(14)
C3_2 C 0.8458(2) 0.7014(2) 0.70878(18)
H5_2 H 0.8998 0.6776 0.7582
H6_2 H 0.7787 0.6893 0.7135
C4_2 C 0.8596(2) 0.8109(2) 0.69878(18)
H7_2 H 0.8025 0.8358 0.6517
H8_2 H 0.9242 0.8225 0.6898
N4_2 N 0.86191(17) 0.86312(17) 0.77174(14)
C5_2 C 0.9457(2) 0.8843(2) 0.83733(16)
C6_2 C 0.7808(2) 0.8985(2) 0.78787(16)
H10_2 H 0.7115 0.8943 0.7529
C7_2 C 0.67074(19) 0.31550(19) 0.60578(16)
C8_2 C 0.57016(19) 0.34746(19) 0.59100(16)
H11_2 H 0.5375 0.3905 0.5477
C9_2 C 0.51838(19) 0.31579(19) 0.64024(16)
C10_2 C 0.56655(19) 0.25262(19) 0.70475(16)
H12_2 H 0.5299 0.2282 0.7361
C11_2 C 0.66919(19) 0.2256(2) 0.72287(16)
C12_2 C 0.72047(19) 0.25751(19) 0.67296(16)
H13_2 H 0.7897 0.2395 0.6850
C13_2 C 0.72570(18) 0.34670(19) 0.55061(16)
O2_2 O 0.67667(13) 0.39778(13) 0.49008(11)
O3_2 O 0.81893(14) 0.31975(15) 0.56966(12)
C14_2 C 0.40920(19) 0.3500(2) 0.62280(17)
O5_2 O 0.34275(17) 0.28736(18) 0.6187(2)
C15_2 C 0.72599(19) 0.1667(2) 0.79673(16)
O7_2 O 0.82299(13) 0.18040(15) 0.82810(12)
H17_2 H 0.9946 0.3585 0.3418
H22_2 H 0.9862 0.1318 0.1565
C22_2 C 0.32926(19) 0.68450(19) 0.39422(16)
C23_2 C 0.42984(19) 0.65254(19) 0.40900(16)
H24_2 H 0.4625 0.6095 0.4523
C24_2 C 0.48162(19) 0.68421(19) 0.35976(16)
C25_2 C 0.43345(19) 0.74738(19) 0.29525(16)
H25_2 H 0.4701 0.7718 0.2639
C26_2 C 0.33081(19) 0.7744(2) 0.27713(16)
C27_2 C 0.27953(19) 0.74249(19) 0.32704(16)
H26_2 H 0.2103 0.7605 0.3150
C28_2 C 0.27430(18) 0.65330(19) 0.44939(16)
O11_2 O 0.18107(14) 0.68025(15) 0.43034(12)
C29_2 C 0.59080(19) 0.6500(2) 0.37720(17)
O12_2 O 0.60564(13) 0.55855(13) 0.38762(12)
O14_2 O 0.65725(17) 0.71264(18) 0.3813(2)
C30_2 C 0.27401(19) 0.8333(2) 0.20327(16)
O18_2 O 0.17701(13) 0.81960(15) 0.17190(12)
loop_
_geom_bond_atom_site_label_1
_geom_bond_atom_site_label_2
_geom_bond_site_symmetry_1
_geom_bond_site_symmetry_2
Ni8 O15 1_555 1_555
N12 Ni2 1_555 1_555
C22 C23 1_555 1_555
C23 H24 1_555 1_555
C24 C23 1_555 1_555
C25 C24 1_555 1_555
H25 C25 1_555 1_555
C26 C25 1_555 1_555
C27 C22 1_555 1_555
H26 C27 1_555 1_555
C28 C22 1_555 1_555
O11 C28 1_555 1_555
C29 C24 1_555 1_555
O14 C29 1_555 1_555
C30 C26 1_555 1_555
O15 C30 1_555 1_555
O18 C30 1_555 1_555
N12 N15 1_555 1_555
C26 C27 1_555 1_555
C29 O12 1_555 1_555
C1 H3 1_555 1_555
N2 Ni2_2 1_555 1_555
C2 N2 1_555 1_555
N3 C1 1_555 1_555
C3 N3 1_555 1_555
H5 C3 1_555 1_555
H6 C3 1_555 1_555
C4 C3 1_555 1_555
H7 C4 1_555 1_555
H8 C4 1_555 1_555
N4 C4 1_555 1_555
C5 N4 1_555 1_555
N5 C5 1_555 1_555
N6 N5 1_555 1_555
C6 N4 1_555 1_555
H10 C6 1_555 1_555
Ni4 N6 1_555 1_555
Ni9 N5 1_555 1_555
O9 Ni5 1_555 1_555
C1 N1 1_555 1_555
N1 N2 1_555 1_555
C2 N3 1_555 1_555
N6 C6 1_555 1_555
Ni1 O1 1_555 1_555
Ni2_3 O1 1_555 1_555
H2 O1 1_555 1_555
O2 Ni1 1_555 1_555
O16 Ni1 1_555 1_555
C7 C8 1_555 1_555
C8 H11 1_555 1_555
C9 C8 1_555 1_555
C10 C9 1_555 1_555
H12 C10 1_555 1_555
C11 C10 1_555 1_555
C12 C7 1_555 1_555
H13 C12 1_555 1_555
C13 C7 1_555 1_555
O3 C13 1_555 1_555
C14 C9 1_555 1_555
O4 C14 1_555 1_555
O5 C14 1_555 1_555
C15 C11 1_555 1_555
O6 C15 1_555 1_555
O7 C15 1_555 1_555
Ni4 O6 1_555 1_555
C11 C12 1_555 1_555
Ni5 O8 1_555 1_555
O8 Ni2_6 1_555 1_555
H15 O8 1_555 1_555
O17 Ni5 1_555 1_555
Ni8 N14 1_555 1_555
Ni9_2 N11 1_555 1_555
C16 H16 1_555 1_555
N8 Ni2_7 1_555 1_555
C17 N8 1_555 1_555
N9 C16 1_555 1_555
C18 N9 1_555 1_555
H18 C18 1_555 1_555
H19 C18 1_555 1_555
C19 C18 1_555 1_555
H20 C19 1_555 1_555
H21 C19 1_555 1_555
N10 C19 1_555 1_555
C20 N10 1_555 1_555
N11 C20 1_555 1_555
N14 N11 1_555 1_555
C21 N10 1_555 1_555
H23 C21 1_555 1_555
C16 N7 1_555 1_555
N7 N8 1_555 1_555
C17 N9 1_555 1_555
N14 C21 1_555 1_555
N13 Ni2_8 1_555 1_555
N13 N16 1_555 1_555
Ni4 O8_2 1_555 1_555
O8_2 Ni9 1_555 1_555
H14_2 O8_2 1_555 1_555
H15_2 O8_2 1_555 1_555
C16_2 H16_2 1_555 1_555
N7_2 Ni4 1_555 1_555
N8_2 Ni9 1_555 1_555
C17_2 N8_2 1_555 1_555
N9_2 C16_2 1_555 1_555
C18_2 N9_2 1_555 1_555
H18_2 C18_2 1_555 1_555
H19_2 C18_2 1_555 1_555
C19_2 C18_2 1_555 1_555
H20_2 C19_2 1_555 1_555
H21_2 C19_2 1_555 1_555
N10_2 C19_2 1_555 1_555
C20_2 N10_2 1_555 1_555
N12 C20_2 1_555 1_555
C21_2 N10_2 1_555 1_555
H23_2 C21_2 1_555 1_555
O10 Ni4 1_555 1_555
O13 Ni4 1_555 1_555
C16_2 N7_2 1_555 1_555
N7_2 N8_2 1_555 1_555
C17_2 N9_2 1_555 1_555
N15 C21_2 1_555 1_555
Ni8 O1_2 1_555 1_555
Ni9_2 O1_2 1_555 1_555
O1_2 H1_2 1_555 1_555
H2_2 O1_2 1_555 1_555
C1_2 H3_2 1_555 1_555
N1_2 Ni8 1_555 1_555
N2_2 Ni9_2 1_555 1_555
C2_2 N2_2 1_555 1_555
N3_2 C1_2 1_555 1_555
C3_2 N3_2 1_555 1_555
H5_2 C3_2 1_555 1_555
H6_2 C3_2 1_555 1_555
C4_2 C3_2 1_555 1_555
H7_2 C4_2 1_555 1_555
H8_2 C4_2 1_555 1_555
N4_2 C4_2 1_555 1_555
C5_2 N4_2 1_555 1_555
N13 C5_2 1_555 1_555
C6_2 N4_2 1_555 1_555
H10_2 C6_2 1_555 1_555
C7_2 C8_2 1_555 1_555
C8_2 H11_2 1_555 1_555
C9_2 C8_2 1_555 1_555
C10_2 C9_2 1_555 1_555
H12_2 C10_2 1_555 1_555
C11_2 C10_2 1_555 1_555
C12_2 C7_2 1_555 1_555
H13_2 C12_2 1_555 1_555
C13_2 C7_2 1_555 1_555
O2_2 Ni8 1_555 1_555
O3_2 C13_2 1_555 1_555
C14_2 C9_2 1_555 1_555
O13 C14_2 1_555 1_555
O5_2 C14_2 1_555 1_555
C15_2 C11_2 1_555 1_555
O17 C15_2 1_555 1_555
O7_2 C15_2 1_555 1_555
C22_2 C23_2 1_555 1_555
C23_2 H24_2 1_555 1_555
C24_2 C23_2 1_555 1_555
C25_2 C24_2 1_555 1_555
H25_2 C25_2 1_555 1_555
C26_2 C25_2 1_555 1_555
C27_2 C22_2 1_555 1_555
H26_2 C27_2 1_555 1_555
C28_2 C22_2 1_555 1_555
O11_2 C28_2 1_555 1_555
C29_2 C24_2 1_555 1_555
O12_2 Ni8 1_555 1_555
O14_2 C29_2 1_555 1_555
C30_2 C26_2 1_555 1_555
O16 C30_2 1_555 1_555
O18_2 C30_2 1_555 1_555
C1_2 N1_2 1_555 1_555
N1_2 N2_2 1_555 1_555
C2_2 N3_2 1_555 1_555
N16 C6_2 1_555 1_555
C11_2 C12_2 1_555 1_555
C13_2 O2_2 1_555 1_555
C26_2 C27_2 1_555 1_555
C28_2 O10 1_555 1_555
C29_2 O12_2 1_555 1_555

#END
