
###############################################################################
#
# This file contains modified crystal structure data generated from the
# MOF subset of the Cambridge Structural Database (CSD) v543 
# hosted by the Cambridge Crystallographic Data Centre (CCDC).
#
# This work is licensed under the Creative Commons
# Attribution-NonCommercial-ShareAlike 4.0 International License.
# To view a copy of this license, visit
# http://creativecommons.org/licenses/by-nc-sa/4.0/
# or send a letter to
# Creative Commons, PO Box 1866, Mountain View, CA 94042, USA.
#
# CIF created using the CSD Python API on 29 September 2022
# The structure has been converted into the P1 space group
# The structure has a 3D framework
# The original CSD entry LOBQEB is in the hexagonal crystal system
# The framework has been calculated to contain at least 10.0% void space
# The void calculation uses a probe of radius 1.32A, grid spacing 0.4
# H atom positions have been added when not included in the experimental data
# Generated hydrogen atom positions removed from atoms on special positions
#
###############################################################################

data_LOBQEB
_chemical_formula_moiety         '(C280 H332 N12 O98 Zr24)n'
_symmetry_cell_setting           triclinic
_symmetry_space_group_name_H-M   'P 1'
_symmetry_Int_Tables_number      1
_space_group_name_Hall           'P 1'
loop_
_symmetry_equiv_pos_site_id
_symmetry_equiv_pos_as_xyz
1 x,y,z
_cell_length_a                   40.967(5)
_cell_length_b                   40.967
_cell_length_c                   14.8130(18)
_cell_angle_alpha                90
_cell_angle_beta                 90
_cell_angle_gamma                120
_cell_volume                     21529.9
loop_
_atom_site_label
_atom_site_type_symbol
_atom_site_fract_x
_atom_site_fract_y
_atom_site_fract_z
Zr1 Zr 0.53450(2) 0.06899(2) 0.5000
O1 O 0.51798(10) 0.10089(9) 0.4110(2)
O2 O 0.46819(11) 0.05677(10) 0.3326(2)
O3 O 0.51672(7) 0.03344(15) 0.3814(4)
O4 O 0.47277(14) 0.03450(14) 0.5000
N1 N 0.4751(3) 0.23755(16) 0.3372(5)
C1 C 0.4925(2) 0.09031(15) 0.3595(4)
C2 C 0.48620(19) 0.11949(17) 0.3134(4)
C3 C 0.4564(2) 0.11168(16) 0.2563(4)
H1 H 0.4381 0.0861 0.2452
C4 C 0.4519(2) 0.1394(2) 0.2146(5)
H2 H 0.4327 0.1335 0.1708
C5 C 0.4771(2) 0.1768(2) 0.2403(5)
C6 C 0.5086(3) 0.1860(2) 0.2973(5)
H3 H 0.5271 0.2114 0.3093
C7 C 0.5109(2) 0.15664(17) 0.3338(4)
H4 H 0.5306 0.1621 0.3755
C8 C 0.4742(2) 0.20766(17) 0.1897(5)
C9 C 0.4726(3) 0.23629(16) 0.2446(7)
C10 C 0.4708(2) 0.20702(16) 0.0990(5)
H5 H 0.4678 0.1854 0.0680
C11 C 0.4714(3) 0.23570(13) 0.0479(5)
O5 O 0.4651(2) 0.0000 0.2376(3)
C12 C 0.5000 0.0000 0.1951(12)
C13 C 0.5000 0.0000 0.0928(5)
C14 C 0.47052(11) 0.0000 0.0481(3)
H6 H 0.4506 0.0000 0.0808
O6 O 0.40238(12) 0.0000 0.3889(4)
Zr2 Zr 0.45725(2) 0.0000 0.38105(4)
O11 O 0.51798(10) 0.41709(13) 0.4110(2)
O12 O 0.46819(11) 0.41142(15) 0.3326(2)
C35 C 0.4925(2) 0.40219(25) 0.3595(4)
C36 C 0.48620(19) 0.36671(25) 0.3134(4)
C37 C 0.4564(2) 0.34472(26) 0.2563(4)
H17 H 0.4381 0.3520 0.2452
C38 C 0.4519(2) 0.3125(3) 0.2146(5)
H18 H 0.4327 0.2992 0.1708
C39 C 0.4771(2) 0.3003(3) 0.2403(5)
C40 C 0.5086(3) 0.3226(4) 0.2973(5)
H19 H 0.5271 0.3157 0.3093
C41 C 0.5109(2) 0.35426(26) 0.3338(4)
H20 H 0.5306 0.3685 0.3755
C42 C 0.4742(2) 0.26654(26) 0.1897(5)
C43 C 0.4708(2) 0.26378(26) 0.0990(5)
H21 H 0.4678 0.2824 0.0680
O13 O 0.5349(2) 0.0000 0.2376(3)
C44 C 0.52948(11) 0.0000 0.0481(3)
H22 H 0.5494 0.0000 0.0808
O16 O 0.41709(13) 0.51798(10) 0.4110(2)
O17 O 0.41142(15) 0.46819(11) 0.3326(2)
O18 O 0.43827(20) 0.47277(14) 0.5000
N3 N 0.23755(34) 0.4751(3) 0.3372(5)
C49 C 0.40219(25) 0.4925(2) 0.3595(4)
C50 C 0.36671(25) 0.48620(19) 0.3134(4)
C51 C 0.34472(26) 0.4564(2) 0.2563(4)
H25 H 0.3520 0.4381 0.2452
C52 C 0.3125(3) 0.4519(2) 0.2146(5)
H26 H 0.2992 0.4327 0.1708
C53 C 0.3003(3) 0.4771(2) 0.2403(5)
C54 C 0.3226(4) 0.5086(3) 0.2973(5)
H27 H 0.3157 0.5271 0.3093
C55 C 0.35426(26) 0.5109(2) 0.3338(4)
H28 H 0.3685 0.5306 0.3755
C56 C 0.26654(26) 0.4742(2) 0.1897(5)
C57 C 0.23631(34) 0.4726(3) 0.2446(7)
C58 C 0.26378(26) 0.4708(2) 0.0990(5)
H29 H 0.2824 0.4678 0.0680
C59 C 0.23570(33) 0.4714(3) 0.0479(5)
O19 O 0.40238(12) 0.40238(12) 0.3889(4)
Zr3 Zr 0.45725(2) 0.45725(2) 0.38105(4)
O24 O 0.10089(9) 0.51798(10) 0.4110(2)
O25 O 0.05677(10) 0.46819(11) 0.3326(2)
C80 C 0.09031(15) 0.4925(2) 0.3595(4)
C81 C 0.11949(17) 0.48620(19) 0.3134(4)
C82 C 0.11168(16) 0.4564(2) 0.2563(4)
H40 H 0.0861 0.4381 0.2452
C83 C 0.1394(2) 0.4519(2) 0.2146(5)
H41 H 0.1335 0.4327 0.1708
C84 C 0.1768(2) 0.4771(2) 0.2403(5)
C85 C 0.1860(2) 0.5086(3) 0.2973(5)
H42 H 0.2114 0.5271 0.3093
C86 C 0.15664(17) 0.5109(2) 0.3338(4)
H43 H 0.1621 0.5306 0.3755
C87 C 0.20766(17) 0.4742(2) 0.1897(5)
C88 C 0.20702(16) 0.4708(2) 0.0990(5)
H44 H 0.1854 0.4678 0.0680
O28 O 0.59762(12) 0.0000 0.3889(4)
Zr4 Zr 0.54275(2) 0.0000 0.38105(4)
O29 O 0.51672(17) 0.48328(7) 0.3814(4)
O30 O 0.40238(12) 0.0000 0.6111(4)
Zr6 Zr 0.45725(2) 0.0000 0.61895(4)
Zr9 Zr 0.46551(3) 0.53450(2) 0.5000
Zr11 Zr 0.53449(3) 0.46550(2) 0.5000
Zr13 Zr 0.06899(2) 0.53449(3) 0.5000
O33 O 0.58291(13) 0.10089(9) 0.5890(2)
O35 O 0.51798(10) 0.10089(9) 0.5890(2)
O36 O 0.58291(13) 0.10089(9) 0.4110(2)
O40 O 0.46819(11) 0.05677(10) 0.6674(2)
O41 O 0.58858(15) 0.05677(10) 0.3326(2)
O43 O 0.48328(17) 0.51672(7) 0.3814(4)
O45 O 0.51672(17) 0.03344(15) 0.6186(4)
O47 O 0.56173(20) 0.03450(14) 0.5000
O48 O 0.47277(14) 0.43827(20) 0.5000
O49 O 0.4651(2) 0.4651(2) 0.2376(3)
O50 O 0.4651(2) 0.0000 0.7624(3)
Zr14 Zr 0.0000 0.45725(2) 0.38105(4)
Zr15 Zr 0.54275(2) 0.54275(2) 0.38105(4)
Zr19 Zr 0.54275(2) 0.0000 0.61895(4)
Zr21 Zr 0.45725(2) 0.45725(2) 0.61895(4)
H47 H 0.473793 0.25827 0.371717
H48 H 0.478253 0.217761 0.371061
H51 H 0.215524 0.473793 0.371717
H52 H 0.260492 0.478253 0.371061
O7 O 0.51798(10) 0.41709(13) 0.5890(2)
O8 O 0.46819(11) 0.41142(15) 0.6674(2)
N2 N 0.4751(3) 0.23755(34) 0.6628(5)
C15 C 0.4925(2) 0.40219(25) 0.6405(4)
C16 C 0.48620(19) 0.36671(25) 0.6866(4)
C17 C 0.4564(2) 0.34472(26) 0.7437(4)
H7 H 0.4381 0.3520 0.7548
C18 C 0.4519(2) 0.3125(3) 0.7854(5)
H8 H 0.4327 0.2992 0.8292
C19 C 0.4771(2) 0.3003(3) 0.7597(5)
C20 C 0.5086(3) 0.3226(4) 0.7027(5)
H9 H 0.5271 0.3157 0.6907
C21 C 0.5109(2) 0.35426(26) 0.6662(4)
H10 H 0.5306 0.3685 0.6245
C22 C 0.4742(2) 0.26654(26) 0.8103(5)
C23 C 0.4726(3) 0.23631(34) 0.7554(7)
C24 C 0.4708(2) 0.26378(26) 0.9010(5)
H11 H 0.4678 0.2824 0.9320
C25 C 0.4714(3) 0.23570(33) 0.9521(5)
C26 C 0.4925(2) 0.09031(15) 0.6405(4)
C27 C 0.48620(19) 0.11949(17) 0.6866(4)
C28 C 0.4564(2) 0.11168(16) 0.7437(4)
H12 H 0.4381 0.0861 0.7548
C29 C 0.4519(2) 0.1394(2) 0.7854(5)
H13 H 0.4327 0.1335 0.8292
C30 C 0.4771(2) 0.1768(2) 0.7597(5)
C31 C 0.5086(3) 0.1860(2) 0.7027(5)
H14 H 0.5271 0.2114 0.6907
C32 C 0.5109(2) 0.15664(17) 0.6662(4)
H15 H 0.5306 0.1621 0.6245
C33 C 0.4742(2) 0.20766(17) 0.8103(5)
C34 C 0.4708(2) 0.20702(16) 0.9010(5)
H16 H 0.4678 0.1854 0.9320
C45 C 0.5000 0.0000 0.8049(12)
C46 C 0.5000 0.0000 0.9072(5)
C47 C 0.47052(11) 0.0000 0.9519(3)
H23 H 0.4506 0.0000 0.9192
O15 O 0.5349(2) 0.0000 0.7624(3)
C48 C 0.52948(11) 0.0000 0.9519(3)
H24 H 0.5494 0.0000 0.9192
O20 O 0.10089(9) 0.51798(10) 0.5890(2)
O21 O 0.05677(10) 0.46819(11) 0.6674(2)
N4 N 0.23755(16) 0.4751(3) 0.6628(5)
C60 C 0.09031(15) 0.4925(2) 0.6405(4)
C61 C 0.11949(17) 0.48620(19) 0.6866(4)
C62 C 0.11168(16) 0.4564(2) 0.7437(4)
H30 H 0.0861 0.4381 0.7548
C63 C 0.1394(2) 0.4519(2) 0.7854(5)
H31 H 0.1335 0.4327 0.8292
C64 C 0.1768(2) 0.4771(2) 0.7597(5)
C65 C 0.1860(2) 0.5086(3) 0.7027(5)
H32 H 0.2114 0.5271 0.6907
C66 C 0.15664(17) 0.5109(2) 0.6662(4)
H33 H 0.1621 0.5306 0.6245
C67 C 0.20766(17) 0.4742(2) 0.8103(5)
C68 C 0.23629(16) 0.4726(3) 0.7554(7)
C69 C 0.20702(16) 0.4708(2) 0.9010(5)
H34 H 0.1854 0.4678 0.9320
C70 C 0.23570(13) 0.4714(3) 0.9521(5)
O22 O 0.41709(13) 0.51798(10) 0.5890(2)
O23 O 0.41142(15) 0.46819(11) 0.6674(2)
C71 C 0.40219(25) 0.4925(2) 0.6405(4)
C72 C 0.36671(25) 0.48620(19) 0.6866(4)
C73 C 0.34472(26) 0.4564(2) 0.7437(4)
H35 H 0.3520 0.4381 0.7548
C74 C 0.3125(3) 0.4519(2) 0.7854(5)
H36 H 0.2992 0.4327 0.8292
C75 C 0.3003(3) 0.4771(2) 0.7597(5)
C76 C 0.3226(4) 0.5086(3) 0.7027(5)
H37 H 0.3157 0.5271 0.6907
C77 C 0.35426(26) 0.5109(2) 0.6662(4)
H38 H 0.3685 0.5306 0.6245
C78 C 0.26654(26) 0.4742(2) 0.8103(5)
C79 C 0.26378(26) 0.4708(2) 0.9010(5)
H39 H 0.2824 0.4678 0.9320
Zr17 Zr 0.0000 0.45725(2) 0.61895(4)
H45 H 0.473793 0.215524 0.628283
H46 H 0.478253 0.260492 0.628939
H55 H 0.25827 0.473793 0.628283
H56 H 0.217761 0.478253 0.628939
O5_2 O 0.4651(2) 1.0000 0.2376(3)
C12_2 C 0.5000 1.0000 0.1951(12)
C13_2 C 0.5000 1.0000 0.0928(5)
C14_2 C 0.47052(11) 1.0000 0.0481(3)
H6_2 H 0.4506 1.0000 0.0808
O6_2 O 0.40238(12) 1.0000 0.3889(4)
Zr2_2 Zr 0.45725(2) 1.0000 0.38105(4)
O13_2 O 0.5349(2) 1.0000 0.2376(3)
C44_2 C 0.52948(11) 1.0000 0.0481(3)
H22_2 H 0.5494 1.0000 0.0808
O26 O 0.48328(7) 0.96656(15) 0.3814(4)
O27 O 0.52723(14) 0.96550(14) 0.5000
O28_2 O 0.59762(12) 1.0000 0.3889(4)
Zr4_2 Zr 0.54275(2) 1.0000 0.38105(4)
Zr5 Zr 0.46550(2) 0.93101(2) 0.5000
O30_2 O 0.40238(12) 1.0000 0.6111(4)
Zr6_2 Zr 0.45725(2) 1.0000 0.61895(4)
O31 O 0.48202(10) 0.89911(9) 0.4110(2)
O32 O 0.41709(13) 0.89911(9) 0.5890(2)
O34 O 0.48202(10) 0.89911(9) 0.5890(2)
O37 O 0.41709(13) 0.89911(9) 0.4110(2)
O38 O 0.53181(11) 0.94323(10) 0.3326(2)
O39 O 0.41142(15) 0.94323(10) 0.6674(2)
O42 O 0.41142(15) 0.94323(10) 0.3326(2)
O44 O 0.48328(17) 0.96656(15) 0.6186(4)
O46 O 0.43827(20) 0.96550(14) 0.5000
O50_2 O 0.4651(2) 1.0000 0.7624(3)
Zr19_2 Zr 0.54275(2) 1.0000 0.61895(4)
C45_2 C 0.5000 1.0000 0.8049(12)
C46_2 C 0.5000 1.0000 0.9072(5)
C47_2 C 0.47052(11) 1.0000 0.9519(3)
H23_2 H 0.4506 1.0000 0.9192
O15_2 O 0.5349(2) 1.0000 0.7624(3)
C48_2 C 0.52948(11) 1.0000 0.9519(3)
H24_2 H 0.5494 1.0000 0.9192
Zr14_2 Zr 1.0000 0.45725(2) 0.38105(4)
Zr17_2 Zr 1.0000 0.45725(2) 0.61895(4)
C12_3 C 0.5000 0.5000 0.1951(12)
C13_3 C 0.5000 0.5000 0.0928(5)
C14_3 C 0.47052(11) 0.47052(11) 0.0481(3)
H6_3 H 0.4506 0.4506 0.0808
O13_3 O 0.5349(2) 0.5349(2) 0.2376(3)
C44_3 C 0.52948(11) 0.52948(11) 0.0481(3)
H22_3 H 0.5494 0.5494 0.0808
O19_2 O 0.00000(17) 0.40238(12) 0.3889(4)
O27_2 O 0.56173(20) 0.52723(14) 0.5000
O28_3 O 0.59762(12) 0.59762(12) 0.3889(4)
O29_2 O 0.03344(18) 0.51672(17) 0.3814(4)
O30_3 O 0.40238(12) 0.40238(12) 0.6111(4)
O31_2 O 0.58291(13) 0.48202(10) 0.4110(2)
O33_2 O 0.48202(16) 0.58291(13) 0.5890(2)
O34_2 O 0.58291(13) 0.48202(10) 0.5890(2)
O36_2 O 0.48202(16) 0.58291(13) 0.4110(2)
O38_2 O 0.58858(15) 0.53181(11) 0.3326(2)
O41_2 O 0.53181(18) 0.58858(15) 0.3326(2)
O44_2 O 0.51672(23) 0.48328(17) 0.6186(4)
O45_2 O 0.48328(23) 0.51672(17) 0.6186(4)
O47_2 O 0.52723(24) 0.56173(20) 0.5000
O48_2 O 0.03450(24) 0.47277(14) 0.5000
O49_2 O -0.0000(3) 0.4651(2) 0.2376(3)
O50_3 O 0.4651(2) 0.4651(2) 0.7624(3)
Zr15_2 Zr -0.00000(3) 0.54275(2) 0.38105(4)
Zr19_3 Zr 0.54275(2) 0.54275(2) 0.61895(4)
C45_3 C 0.5000 0.5000 0.8049(12)
C46_3 C 0.5000 0.5000 0.9072(5)
C47_3 C 0.47052(11) 0.47052(11) 0.9519(3)
H23_3 H 0.4506 0.4506 0.9192
O15_3 O 0.5349(2) 0.5349(2) 0.7624(3)
C48_3 C 0.52948(11) 0.52948(11) 0.9519(3)
H24_3 H 0.5494 0.5494 0.9192
O16_2 O 0.89911(16) 0.41709(13) 0.4110(2)
O17_2 O 0.94323(19) 0.41142(15) 0.3326(2)
O18_2 O 0.96550(24) 0.43827(20) 0.5000
N3_2 N 0.76245(45) 0.23755(34) 0.3372(5)
C49_2 C 0.90969(32) 0.40219(25) 0.3595(4)
C50_2 C 0.88051(31) 0.36671(25) 0.3134(4)
C51_2 C 0.88832(33) 0.34472(26) 0.2563(4)
H25_2 H 0.9139 0.3520 0.2452
C52_2 C 0.8606(4) 0.3125(3) 0.2146(5)
H26_2 H 0.8665 0.2992 0.1708
C53_2 C 0.8232(4) 0.3003(3) 0.2403(5)
C54_2 C 0.8140(5) 0.3226(4) 0.2973(5)
H27_2 H 0.7886 0.3157 0.3093
C55_2 C 0.84336(33) 0.35426(26) 0.3338(4)
H28_2 H 0.8379 0.3685 0.3755
C56_2 C 0.79234(33) 0.26654(26) 0.1897(5)
C57_2 C 0.76371(45) 0.23631(34) 0.2446(7)
C58_2 C 0.79298(33) 0.26378(26) 0.0990(5)
H29_2 H 0.8146 0.2824 0.0680
C59_2 C 0.76430(45) 0.23570(33) 0.0479(5)
O19_3 O 1.00000(17) 0.40238(12) 0.3889(4)
C80_2 C 0.59781(25) 0.09031(15) 0.3595(4)
C81_2 C 0.63329(25) 0.11949(17) 0.3134(4)
C82_2 C 0.65528(26) 0.11168(16) 0.2563(4)
H40_2 H 0.6480 0.0861 0.2452
C83_2 C 0.6875(3) 0.1394(2) 0.2146(5)
H41_2 H 0.7008 0.1335 0.1708
C84_2 C 0.6997(3) 0.1768(2) 0.2403(5)
C85_2 C 0.6774(4) 0.1860(2) 0.2973(5)
H42_2 H 0.6843 0.2114 0.3093
C86_2 C 0.64574(26) 0.15664(17) 0.3338(4)
H43_2 H 0.6315 0.1621 0.3755
C87_2 C 0.73346(26) 0.20766(17) 0.1897(5)
C88_2 C 0.73622(26) 0.20702(16) 0.0990(5)
H44_2 H 0.7176 0.1854 0.0680
Zr9_2 Zr 0.93101(4) 0.46551(3) 0.5000
O43_2 O 0.96656(18) 0.48328(17) 0.3814(4)
O49_3 O 1.0000(3) 0.4651(2) 0.2376(3)
Zr15_3 Zr 1.00000(3) 0.54275(2) 0.38105(4)
H51_2 H 0.74173 0.215524 0.371717
H52_2 H 0.782239 0.260492 0.371061
O21_2 O 0.58858(15) 0.05677(10) 0.6674(2)
N4_2 N 0.76245(34) 0.23755(16) 0.6628(5)
C60_2 C 0.59781(25) 0.09031(15) 0.6405(4)
C61_2 C 0.63329(25) 0.11949(17) 0.6866(4)
C62_2 C 0.65528(26) 0.11168(16) 0.7437(4)
H30_2 H 0.6480 0.0861 0.7548
C63_2 C 0.6875(3) 0.1394(2) 0.7854(5)
H31_2 H 0.7008 0.1335 0.8292
C64_2 C 0.6997(3) 0.1768(2) 0.7597(5)
C65_2 C 0.6774(4) 0.1860(2) 0.7027(5)
H32_2 H 0.6843 0.2114 0.6907
C66_2 C 0.64574(26) 0.15664(17) 0.6662(4)
H33_2 H 0.6315 0.1621 0.6245
C67_2 C 0.73346(26) 0.20766(17) 0.8103(5)
C68_2 C 0.76369(34) 0.23629(16) 0.7554(7)
C69_2 C 0.73622(26) 0.20702(16) 0.9010(5)
H34_2 H 0.7176 0.1854 0.9320
C70_2 C 0.76430(33) 0.23570(13) 0.9521(5)
O22_2 O 0.89911(16) 0.41709(13) 0.5890(2)
O23_2 O 0.94323(19) 0.41142(15) 0.6674(2)
C71_2 C 0.90969(32) 0.40219(25) 0.6405(4)
C72_2 C 0.88051(31) 0.36671(25) 0.6866(4)
C73_2 C 0.88832(33) 0.34472(26) 0.7437(4)
H35_2 H 0.9139 0.3520 0.7548
C74_2 C 0.8606(4) 0.3125(3) 0.7854(5)
H36_2 H 0.8665 0.2992 0.8292
C75_2 C 0.8232(4) 0.3003(3) 0.7597(5)
C76_2 C 0.8140(5) 0.3226(4) 0.7027(5)
H37_2 H 0.7886 0.3157 0.6907
C77_2 C 0.84336(33) 0.35426(26) 0.6662(4)
H38_2 H 0.8379 0.3685 0.6245
C78_2 C 0.79234(33) 0.26654(26) 0.8103(5)
C79_2 C 0.79298(33) 0.26378(26) 0.9010(5)
H39_2 H 0.8146 0.2824 0.9320
H55_2 H 0.784476 0.25827 0.628283
H56_2 H 0.739508 0.217761 0.628939
C12_4 C 0.0000 0.5000 0.1951(12)
C13_4 C 0.0000 0.5000 0.0928(5)
C14_4 C 0.0000 0.47052(11) 0.0481(3)
H6_4 H 0.0000 0.4506 0.0808
O13_4 O 0.0000 0.5349(2) 0.2376(3)
C44_4 C -0.0000 0.52948(11) 0.0481(3)
H22_4 H -0.0000 0.5494 0.0808
O27_3 O 0.03450(14) 0.56173(20) 0.5000
O28_4 O 0.0000 0.59762(12) 0.3889(4)
O30_4 O 0.0000 0.40238(12) 0.6111(4)
O31_3 O 0.10089(9) 0.58291(13) 0.4110(2)
O34_3 O 0.10089(9) 0.58291(13) 0.5890(2)
O38_3 O 0.05677(10) 0.58858(15) 0.3326(2)
O44_3 O 0.03344(15) 0.51672(23) 0.6186(4)
O50_4 O -0.0000 0.4651(2) 0.7624(3)
Zr19_4 Zr -0.0000 0.54275(2) 0.61895(4)
C45_4 C -0.0000 0.5000 0.8049(12)
C46_4 C -0.0000 0.5000 0.9072(5)
C47_4 C -0.0000 0.47052(11) 0.9519(3)
H23_4 H 0.0000 0.4506 0.9192
O15_4 O 0.0000 0.5349(2) 0.7624(3)
C48_4 C -0.0000 0.52948(11) 0.9519(3)
H24_4 H -0.0000 0.5494 0.9192
C12_5 C 1.0000 0.5000 0.1951(12)
C13_5 C 1.0000 0.5000 0.0928(5)
C14_5 C 1.0000 0.47052(11) 0.0481(3)
H6_5 H 1.0000 0.4506 0.0808
O13_5 O 1.0000 0.5349(2) 0.2376(3)
C44_5 C 1.0000 0.52948(11) 0.0481(3)
H22_5 H 1.0000 0.5494 0.0808
O28_5 O 1.0000 0.59762(12) 0.3889(4)
O30_5 O 1.0000 0.40238(12) 0.6111(4)
O33_3 O 0.89911(9) 0.48202(16) 0.5890(2)
O36_3 O 0.89911(9) 0.48202(16) 0.4110(2)
O41_3 O 0.94323(10) 0.53181(18) 0.3326(2)
O45_3 O 0.96656(15) 0.48328(23) 0.6186(4)
O47_3 O 0.96550(14) 0.52723(24) 0.5000
O50_5 O 1.0000 0.4651(2) 0.7624(3)
Zr19_5 Zr 1.0000 0.54275(2) 0.61895(4)
C45_5 C 1.0000 0.5000 0.8049(12)
C46_5 C 1.0000 0.5000 0.9072(5)
C47_5 C 1.0000 0.47052(11) 0.9519(3)
H23_5 H 1.0000 0.4506 0.9192
O15_5 O 1.0000 0.5349(2) 0.7624(3)
C48_5 C 1.0000 0.52948(11) 0.9519(3)
H24_5 H 1.0000 0.5494 0.9192
N3_3 N 0.5249(3) 0.76245(45) 0.3372(5)
C49_3 C 0.5075(2) 0.90969(32) 0.3595(4)
C50_3 C 0.51380(19) 0.88051(31) 0.3134(4)
C51_3 C 0.5436(2) 0.88832(33) 0.2563(4)
H25_3 H 0.5619 0.9139 0.2452
C52_3 C 0.5481(2) 0.8606(4) 0.2146(5)
H26_3 H 0.5673 0.8665 0.1708
C53_3 C 0.5229(2) 0.8232(4) 0.2403(5)
C54_3 C 0.4914(3) 0.8140(5) 0.2973(5)
H27_3 H 0.4729 0.7886 0.3093
C55_3 C 0.4891(2) 0.84336(33) 0.3338(4)
H28_3 H 0.4694 0.8379 0.3755
C56_3 C 0.5258(2) 0.79234(33) 0.1897(5)
C57_3 C 0.5274(3) 0.76371(45) 0.2446(7)
C58_3 C 0.5292(2) 0.79298(33) 0.0990(5)
H29_3 H 0.5322 0.8146 0.0680
C59_3 C 0.5286(3) 0.76430(45) 0.0479(5)
C80_3 C 0.5075(2) 0.59781(25) 0.3595(4)
C81_3 C 0.51380(19) 0.63329(25) 0.3134(4)
C82_3 C 0.5436(2) 0.65528(26) 0.2563(4)
H40_3 H 0.5619 0.6480 0.2452
C83_3 C 0.5481(2) 0.6875(3) 0.2146(5)
H41_3 H 0.5673 0.7008 0.1708
C84_3 C 0.5229(2) 0.6997(3) 0.2403(5)
C85_3 C 0.4914(3) 0.6774(4) 0.2973(5)
H42_3 H 0.4729 0.6843 0.3093
C86_3 C 0.4891(2) 0.64574(26) 0.3338(4)
H43_3 H 0.4694 0.6315 0.3755
C87_3 C 0.5258(2) 0.73346(26) 0.1897(5)
C88_3 C 0.5292(2) 0.73622(26) 0.0990(5)
H44_3 H 0.5322 0.7176 0.0680
H51_3 H 0.526207 0.74173 0.371717
H52_3 H 0.521747 0.782239 0.371061
O21_3 O 0.53181(11) 0.58858(15) 0.6674(2)
N4_3 N 0.5249(3) 0.76245(34) 0.6628(5)
C60_3 C 0.5075(2) 0.59781(25) 0.6405(4)
C61_3 C 0.51380(19) 0.63329(25) 0.6866(4)
C62_3 C 0.5436(2) 0.65528(26) 0.7437(4)
H30_3 H 0.5619 0.6480 0.7548
C63_3 C 0.5481(2) 0.6875(3) 0.7854(5)
H31_3 H 0.5673 0.7008 0.8292
C64_3 C 0.5229(2) 0.6997(3) 0.7597(5)
C65_3 C 0.4914(3) 0.6774(4) 0.7027(5)
H32_3 H 0.4729 0.6843 0.6907
C66_3 C 0.4891(2) 0.64574(26) 0.6662(4)
H33_3 H 0.4694 0.6315 0.6245
C67_3 C 0.5258(2) 0.73346(26) 0.8103(5)
C68_3 C 0.5274(3) 0.76369(34) 0.7554(7)
C69_3 C 0.5292(2) 0.73622(26) 0.9010(5)
H34_3 H 0.5322 0.7176 0.9320
C70_3 C 0.5286(3) 0.76430(33) 0.9521(5)
O23_3 O 0.53181(11) 0.94323(19) 0.6674(2)
C71_3 C 0.5075(2) 0.90969(32) 0.6405(4)
C72_3 C 0.51380(19) 0.88051(31) 0.6866(4)
C73_3 C 0.5436(2) 0.88832(33) 0.7437(4)
H35_3 H 0.5619 0.9139 0.7548
C74_3 C 0.5481(2) 0.8606(4) 0.7854(5)
H36_3 H 0.5673 0.8665 0.8292
C75_3 C 0.5229(2) 0.8232(4) 0.7597(5)
C76_3 C 0.4914(3) 0.8140(5) 0.7027(5)
H37_3 H 0.4729 0.7886 0.6907
C77_3 C 0.4891(2) 0.84336(33) 0.6662(4)
H38_3 H 0.4694 0.8379 0.6245
C78_3 C 0.5258(2) 0.79234(33) 0.8103(5)
C79_3 C 0.5292(2) 0.79298(33) 0.9010(5)
H39_3 H 0.5322 0.8146 0.9320
H55_3 H 0.526207 0.784476 0.628283
H56_3 H 0.521747 0.739508 0.628939
O30_6 O 0.59762(12) 0.0000 0.6111(4)
N3_4 N 0.76245(34) 0.5249(3) 0.3372(5)
C49_4 C 0.59781(25) 0.5075(2) 0.3595(4)
C50_4 C 0.63329(25) 0.51380(19) 0.3134(4)
C51_4 C 0.65528(26) 0.5436(2) 0.2563(4)
H25_4 H 0.6480 0.5619 0.2452
C52_4 C 0.6875(3) 0.5481(2) 0.2146(5)
H26_4 H 0.7008 0.5673 0.1708
C53_4 C 0.6997(3) 0.5229(2) 0.2403(5)
C54_4 C 0.6774(4) 0.4914(3) 0.2973(5)
H27_4 H 0.6843 0.4729 0.3093
C55_4 C 0.64574(26) 0.4891(2) 0.3338(4)
H28_4 H 0.6315 0.4694 0.3755
C56_4 C 0.73346(26) 0.5258(2) 0.1897(5)
C57_4 C 0.76369(34) 0.5274(3) 0.2446(7)
C58_4 C 0.73622(26) 0.5292(2) 0.0990(5)
H29_4 H 0.7176 0.5322 0.0680
C59_4 C 0.76430(33) 0.5286(3) 0.0479(5)
C80_4 C 0.90969(15) 0.5075(2) 0.3595(4)
C81_4 C 0.88051(17) 0.51380(19) 0.3134(4)
C82_4 C 0.88832(16) 0.5436(2) 0.2563(4)
H40_4 H 0.9139 0.5619 0.2452
C83_4 C 0.8606(2) 0.5481(2) 0.2146(5)
H41_4 H 0.8665 0.5673 0.1708
C84_4 C 0.8232(2) 0.5229(2) 0.2403(5)
C85_4 C 0.8140(2) 0.4914(3) 0.2973(5)
H42_4 H 0.7886 0.4729 0.3093
C86_4 C 0.84336(17) 0.4891(2) 0.3338(4)
H43_4 H 0.8379 0.4694 0.3755
C87_4 C 0.79234(17) 0.5258(2) 0.1897(5)
C88_4 C 0.79298(16) 0.5292(2) 0.0990(5)
H44_4 H 0.8146 0.5322 0.0680
O30_7 O 0.59762(12) 1.0000 0.6111(4)
H51_4 H 0.784476 0.526207 0.371717
H52_4 H 0.739508 0.521747 0.371061
O21_4 O 0.94323(10) 0.53181(11) 0.6674(2)
N4_4 N 0.76245(16) 0.5249(3) 0.6628(5)
C60_4 C 0.90969(15) 0.5075(2) 0.6405(4)
C61_4 C 0.88051(17) 0.51380(19) 0.6866(4)
C62_4 C 0.88832(16) 0.5436(2) 0.7437(4)
H30_4 H 0.9139 0.5619 0.7548
C63_4 C 0.8606(2) 0.5481(2) 0.7854(5)
H31_4 H 0.8665 0.5673 0.8292
C64_4 C 0.8232(2) 0.5229(2) 0.7597(5)
C65_4 C 0.8140(2) 0.4914(3) 0.7027(5)
H32_4 H 0.7886 0.4729 0.6907
C66_4 C 0.84336(17) 0.4891(2) 0.6662(4)
H33_4 H 0.8379 0.4694 0.6245
C67_4 C 0.79234(17) 0.5258(2) 0.8103(5)
C68_4 C 0.76371(16) 0.5274(3) 0.7554(7)
C69_4 C 0.79298(16) 0.5292(2) 0.9010(5)
H34_4 H 0.8146 0.5322 0.9320
C70_4 C 0.76430(13) 0.5286(3) 0.9521(5)
O23_4 O 0.58858(15) 0.53181(11) 0.6674(2)
C71_4 C 0.59781(25) 0.5075(2) 0.6405(4)
C72_4 C 0.63329(25) 0.51380(19) 0.6866(4)
C73_4 C 0.65528(26) 0.5436(2) 0.7437(4)
H35_4 H 0.6480 0.5619 0.7548
C74_4 C 0.6875(3) 0.5481(2) 0.7854(5)
H36_4 H 0.7008 0.5673 0.8292
C75_4 C 0.6997(3) 0.5229(2) 0.7597(5)
C76_4 C 0.6774(4) 0.4914(3) 0.7027(5)
H37_4 H 0.6843 0.4729 0.6907
C77_4 C 0.64574(26) 0.4891(2) 0.6662(4)
H38_4 H 0.6315 0.4694 0.6245
C78_4 C 0.73346(26) 0.5258(2) 0.8103(5)
C79_4 C 0.73622(26) 0.5292(2) 0.9010(5)
H39_4 H 0.7176 0.5322 0.9320
H55_4 H 0.74173 0.526207 0.628283
H56_4 H 0.782239 0.521747 0.628939
N3_5 N 0.23755(45) 0.76245(34) 0.3372(5)
C49_5 C 0.09031(32) 0.59781(25) 0.3595(4)
C50_5 C 0.11949(31) 0.63329(25) 0.3134(4)
C51_5 C 0.11168(33) 0.65528(26) 0.2563(4)
H25_5 H 0.0861 0.6480 0.2452
C52_5 C 0.1394(4) 0.6875(3) 0.2146(5)
H26_5 H 0.1335 0.7008 0.1708
C53_5 C 0.1768(4) 0.6997(3) 0.2403(5)
C54_5 C 0.1860(5) 0.6774(4) 0.2973(5)
H27_5 H 0.2114 0.6843 0.3093
C55_5 C 0.15664(33) 0.64574(26) 0.3338(4)
H28_5 H 0.1621 0.6315 0.3755
C56_5 C 0.20766(33) 0.73346(26) 0.1897(5)
C57_5 C 0.23629(45) 0.76369(34) 0.2446(7)
C58_5 C 0.20702(33) 0.73622(26) 0.0990(5)
H29_5 H 0.1854 0.7176 0.0680
C59_5 C 0.23570(45) 0.76430(33) 0.0479(5)
C80_5 C 0.40219(25) 0.90969(15) 0.3595(4)
C81_5 C 0.36671(25) 0.88051(17) 0.3134(4)
C82_5 C 0.34472(26) 0.88832(16) 0.2563(4)
H40_5 H 0.3520 0.9139 0.2452
C83_5 C 0.3125(3) 0.8606(2) 0.2146(5)
H41_5 H 0.2992 0.8665 0.1708
C84_5 C 0.3003(3) 0.8232(2) 0.2403(5)
C85_5 C 0.3226(4) 0.8140(2) 0.2973(5)
H42_5 H 0.3157 0.7886 0.3093
C86_5 C 0.35426(26) 0.84336(17) 0.3338(4)
H43_5 H 0.3685 0.8379 0.3755
C87_5 C 0.26654(26) 0.79234(17) 0.1897(5)
C88_5 C 0.26378(26) 0.79298(16) 0.0990(5)
H44_5 H 0.2824 0.8146 0.0680
H51_5 H 0.25827 0.784476 0.371717
H52_5 H 0.217761 0.739508 0.371061
N4_5 N 0.23755(34) 0.76245(16) 0.6628(5)
C60_5 C 0.40219(25) 0.90969(15) 0.6405(4)
C61_5 C 0.36671(25) 0.88051(17) 0.6866(4)
C62_5 C 0.34472(26) 0.88832(16) 0.7437(4)
H30_5 H 0.3520 0.9139 0.7548
C63_5 C 0.3125(3) 0.8606(2) 0.7854(5)
H31_5 H 0.2992 0.8665 0.8292
C64_5 C 0.3003(3) 0.8232(2) 0.7597(5)
C65_5 C 0.3226(4) 0.8140(2) 0.7027(5)
H32_5 H 0.3157 0.7886 0.6907
C66_5 C 0.35426(26) 0.84336(17) 0.6662(4)
H33_5 H 0.3685 0.8379 0.6245
C67_5 C 0.26654(26) 0.79234(17) 0.8103(5)
C68_5 C 0.23631(34) 0.76371(16) 0.7554(7)
C69_5 C 0.26378(26) 0.79298(16) 0.9010(5)
H34_5 H 0.2824 0.8146 0.9320
C70_5 C 0.23570(33) 0.76430(13) 0.9521(5)
O23_5 O 0.05677(19) 0.58858(15) 0.6674(2)
C71_5 C 0.09031(32) 0.59781(25) 0.6405(4)
C72_5 C 0.11949(31) 0.63329(25) 0.6866(4)
C73_5 C 0.11168(33) 0.65528(26) 0.7437(4)
H35_5 H 0.0861 0.6480 0.7548
C74_5 C 0.1394(4) 0.6875(3) 0.7854(5)
H36_5 H 0.1335 0.7008 0.8292
C75_5 C 0.1768(4) 0.6997(3) 0.7597(5)
C76_5 C 0.1860(5) 0.6774(4) 0.7027(5)
H37_5 H 0.2114 0.6843 0.6907
C77_5 C 0.15664(33) 0.64574(26) 0.6662(4)
H38_5 H 0.1621 0.6315 0.6245
C78_5 C 0.20766(33) 0.73346(26) 0.8103(5)
C79_5 C 0.20702(33) 0.73622(26) 0.9010(5)
H39_5 H 0.1854 0.7176 0.9320
H55_5 H 0.215524 0.74173 0.628283
H56_5 H 0.260492 0.782239 0.628939
O30_8 O 0.59762(12) 0.59762(12) 0.6111(4)
O30_9 O 0.0000 0.59762(12) 0.6111(4)
O30_10 O 1.0000 0.59762(12) 0.6111(4)
H45_2 H 0.526207 0.784476 0.371717
H46_2 H 0.521747 0.739508 0.371061
H55_6 H 0.74173 0.526207 0.371717
H56_6 H 0.782239 0.521747 0.371061
H47_2 H 0.526207 0.74173 0.628283
H48_2 H 0.521747 0.782239 0.628939
H51_6 H 0.784476 0.526207 0.628283
H52_6 H 0.739508 0.521747 0.628939
H55_7 H 0.215524 0.74173 0.371717
H56_7 H 0.260492 0.782239 0.371061
H51_7 H 0.25827 0.784476 0.628283
H52_7 H 0.217761 0.739508 0.628939
H55_8 H 0.473793 0.215524 0.371717
H56_8 H 0.478253 0.260492 0.371061
H51_8 H 0.473793 0.25827 0.628283
H52_8 H 0.478253 0.217761 0.628939
H55_9 H 0.25827 0.473793 0.371717
H56_9 H 0.217761 0.478253 0.371061
H51_9 H 0.215524 0.473793 0.628283
H52_9 H 0.260492 0.478253 0.628939
H55_10 H 0.784476 0.25827 0.371717
H56_10 H 0.739508 0.217761 0.371061
H51_10 H 0.74173 0.215524 0.628283
H52_10 H 0.782239 0.260492 0.628939
loop_
_geom_bond_atom_site_label_1
_geom_bond_atom_site_label_2
_geom_bond_site_symmetry_1
_geom_bond_site_symmetry_2
Zr1 O1 1_555 1_555
O1 C1 1_555 1_555
O2 C1 1_555 1_555
O3 Zr1 1_555 1_555
O4 Zr1 1_555 1_555
N1 C9 1_555 1_555
C1 C2 1_555 1_555
C2 C3 1_555 1_555
C3 H1 1_555 1_555
C4 C3 1_555 1_555
H2 C4 1_555 1_555
C5 C4 1_555 1_555
C6 C5 1_555 1_555
H3 C6 1_555 1_555
C7 C2 1_555 1_555
H4 C7 1_555 1_555
C8 C5 1_555 1_555
C9 C8 1_555 1_555
C10 C8 1_555 1_555
H5 C10 1_555 1_555
C11 C10 1_555 1_555
O5 C12 1_555 1_555
C12 C13 1_555 1_555
C13 C14 1_555 1_555
C14 H6 1_555 1_555
O6 Zr2 1_555 1_555
Zr2 O2 1_555 1_555
O11 C35 1_555 1_555
O12 C35 1_555 1_555
C35 C36 1_555 1_555
C36 C37 1_555 1_555
C37 H17 1_555 1_555
C38 C37 1_555 1_555
H18 C38 1_555 1_555
C39 C38 1_555 1_555
C40 C39 1_555 1_555
H19 C40 1_555 1_555
C41 C36 1_555 1_555
H20 C41 1_555 1_555
C42 C9 1_555 1_555
C43 C11 1_555 1_555
H21 C43 1_555 1_555
O13 C12 1_555 1_555
C44 C13 1_555 1_555
H22 C44 1_555 1_555
O16 C49 1_555 1_555
O17 C49 1_555 1_555
O18 Zr3 1_555 1_555
N3 C57 1_555 1_555
C49 C50 1_555 1_555
C50 C51 1_555 1_555
C51 H25 1_555 1_555
C52 C51 1_555 1_555
H26 C52 1_555 1_555
C53 C52 1_555 1_555
C54 C53 1_555 1_555
H27 C54 1_555 1_555
C55 C50 1_555 1_555
H28 C55 1_555 1_555
C56 C53 1_555 1_555
C57 C56 1_555 1_555
C58 C56 1_555 1_555
H29 C58 1_555 1_555
C59 C58 1_555 1_555
O19 Zr3 1_555 1_555
Zr3 O12 1_555 1_555
O24 C80 1_555 1_555
O25 C80 1_555 1_555
C80 C81 1_555 1_555
C81 C82 1_555 1_555
C82 H40 1_555 1_555
C83 C82 1_555 1_555
H41 C83 1_555 1_555
C84 C83 1_555 1_555
C85 C84 1_555 1_555
H42 C85 1_555 1_555
C86 C81 1_555 1_555
H43 C86 1_555 1_555
C87 C57 1_555 1_555
C88 C59 1_555 1_555
H44 C88 1_555 1_555
O28 Zr4 1_555 1_555
Zr4 O3 1_555 1_555
O29 Zr3 1_555 1_555
O30 Zr6 1_555 1_555
Zr6 O4 1_555 1_555
Zr9 O16 1_555 1_555
Zr11 O11 1_555 1_555
Zr13 O24 1_555 1_555
O33 Zr1 1_555 1_555
O35 Zr1 1_555 1_555
O36 Zr1 1_555 1_555
O40 Zr6 1_555 1_555
O41 Zr4 1_555 1_555
O43 Zr3 1_555 1_555
O45 Zr1 1_555 1_555
O47 Zr1 1_555 1_555
O48 Zr3 1_555 1_555
O49 Zr3 1_555 1_555
O50 Zr6 1_555 1_555
Zr14 O25 1_555 1_555
Zr15 O29 1_555 1_555
Zr21 O18 1_555 1_555
O3 Zr2 1_555 1_555
O4 Zr2 1_555 1_555
C6 C7 1_555 1_555
O5 Zr2 1_555 1_555
C39 C42 1_555 1_555
C40 C41 1_555 1_555
C42 C43 1_555 1_555
O13 Zr4 1_555 1_555
O17 Zr3 1_555 1_555
O18 Zr9 1_555 1_555
C54 C55 1_555 1_555
C84 C87 1_555 1_555
C85 C86 1_555 1_555
C87 C88 1_555 1_555
Zr4 O47 1_555 1_555
O29 Zr11 1_555 1_555
Zr6 O45 1_555 1_555
Zr9 O43 1_555 1_555
Zr11 O48 1_555 1_555
O43 Zr15 1_555 1_555
O45 Zr19 1_555 1_555
O47 Zr19 1_555 1_555
O48 Zr21 1_555 1_555
N1 H47 1_555 1_555
N1 H48 1_555 1_555
N3 H51 1_555 1_555
N3 H52 1_555 1_555
O7 C15 1_555 1_555
O8 C15 1_555 1_555
N2 C23 1_555 1_555
C15 C16 1_555 1_555
C16 C17 1_555 1_555
C17 H7 1_555 1_555
C18 C17 1_555 1_555
H8 C18 1_555 1_555
C19 C18 1_555 1_555
C20 C19 1_555 1_555
H9 C20 1_555 1_555
C21 C16 1_555 1_555
H10 C21 1_555 1_555
C22 C19 1_555 1_555
C23 C22 1_555 1_555
C24 C22 1_555 1_555
H11 C24 1_555 1_555
O35 C26 1_555 1_555
O40 C26 1_555 1_555
C26 C27 1_555 1_555
C27 C28 1_555 1_555
C28 H12 1_555 1_555
C29 C28 1_555 1_555
H13 C29 1_555 1_555
C30 C29 1_555 1_555
C31 C30 1_555 1_555
H14 C31 1_555 1_555
C32 C27 1_555 1_555
H15 C32 1_555 1_555
C33 C23 1_555 1_555
C34 C25 1_555 1_555
H16 C34 1_555 1_555
O50 C45 1_555 1_555
C45 C46 1_555 1_555
C46 C47 1_555 1_555
H23 C47 1_555 1_555
O15 C45 1_555 1_555
H24 C48 1_555 1_555
O20 C60 1_555 1_555
O21 C60 1_555 1_555
N4 C68 1_555 1_555
C60 C61 1_555 1_555
C61 C62 1_555 1_555
C62 H30 1_555 1_555
C63 C62 1_555 1_555
H31 C63 1_555 1_555
C64 C63 1_555 1_555
C65 C64 1_555 1_555
H32 C65 1_555 1_555
C66 C61 1_555 1_555
H33 C66 1_555 1_555
C67 C64 1_555 1_555
C68 C67 1_555 1_555
C69 C67 1_555 1_555
H34 C69 1_555 1_555
O22 C71 1_555 1_555
O23 C71 1_555 1_555
C71 C72 1_555 1_555
C72 C73 1_555 1_555
C73 H35 1_555 1_555
C74 C73 1_555 1_555
H36 C74 1_555 1_555
C75 C74 1_555 1_555
C76 C75 1_555 1_555
H37 C76 1_555 1_555
C77 C72 1_555 1_555
H38 C77 1_555 1_555
C78 C68 1_555 1_555
C79 C70 1_555 1_555
H39 C79 1_555 1_555
Zr9 O22 1_555 1_555
Zr11 O7 1_555 1_555
Zr13 O20 1_555 1_555
Zr17 O21 1_555 1_555
Zr19 O15 1_555 1_555
Zr21 O8 1_555 1_555
C20 C21 1_555 1_555
C24 C25 1_555 1_555
C30 C33 1_555 1_555
C31 C32 1_555 1_555
C33 C34 1_555 1_555
C46 C48 1_555 1_555
C65 C66 1_555 1_555
C69 C70 1_555 1_555
O23 Zr21 1_555 1_555
C75 C78 1_555 1_555
C76 C77 1_555 1_555
C78 C79 1_555 1_555
N2 H45 1_555 1_555
N2 H46 1_555 1_555
N4 H55 1_555 1_555
N4 H56 1_555 1_555
O5_2 C12_2 1_555 1_555
C12_2 C13_2 1_555 1_555
C13_2 C14_2 1_555 1_555
C14_2 H6_2 1_555 1_555
O6_2 Zr2_2 1_555 1_555
O13_2 C12_2 1_555 1_555
C44_2 C13_2 1_555 1_555
H22_2 C44_2 1_555 1_555
O26 Zr2_2 1_555 1_555
O27 Zr4_2 1_555 1_555
O28_2 Zr4_2 1_555 1_555
Zr5 O26 1_555 1_555
O30_2 Zr6_2 1_555 1_555
O31 Zr5 1_555 1_555
O32 Zr5 1_555 1_555
O34 Zr5 1_555 1_555
O37 Zr5 1_555 1_555
O38 Zr4_2 1_555 1_555
O39 Zr6_2 1_555 1_555
O42 Zr2_2 1_555 1_555
O44 Zr5 1_555 1_555
O46 Zr2_2 1_555 1_555
O50_2 Zr6_2 1_555 1_555
Zr19_2 O27 1_555 1_555
O5_2 Zr2_2 1_555 1_555
O13_2 Zr4_2 1_555 1_555
O26 Zr4_2 1_555 1_555
O27 Zr5 1_555 1_555
Zr5 O46 1_555 1_555
Zr6_2 O44 1_555 1_555
Zr6_2 O46 1_555 1_555
O44 Zr19_2 1_555 1_555
O50_2 C45_2 1_555 1_555
C45_2 C46_2 1_555 1_555
C46_2 C47_2 1_555 1_555
H23_2 C47_2 1_555 1_555
O15_2 C45_2 1_555 1_555
H24_2 C48_2 1_555 1_555
Zr19_2 O15_2 1_555 1_555
C46_2 C48_2 1_555 1_555
O49 C12_3 1_555 1_555
C12_3 C13_3 1_555 1_555
C13_3 C14_3 1_555 1_555
C14_3 H6_3 1_555 1_555
O13_3 C12_3 1_555 1_555
C44_3 C13_3 1_555 1_555
H22_3 C44_3 1_555 1_555
O19_2 Zr14 1_555 1_555
O27_2 Zr15 1_555 1_555
O28_3 Zr15 1_555 1_555
O29_2 Zr14 1_555 1_555
O30_3 Zr21 1_555 1_555
O31_2 Zr11 1_555 1_555
O33_2 Zr9 1_555 1_555
O34_2 Zr11 1_555 1_555
O36_2 Zr9 1_555 1_555
O38_2 Zr15 1_555 1_555
O41_2 Zr15 1_555 1_555
O44_2 Zr11 1_555 1_555
O45_2 Zr9 1_555 1_555
O47_2 Zr9 1_555 1_555
O48_2 Zr14 1_555 1_555
O49_2 Zr14 1_555 1_555
O50_3 Zr21 1_555 1_555
Zr15_2 O29_2 1_555 1_555
Zr19_3 O27_2 1_555 1_555
O13_3 Zr15 1_555 1_555
O27_2 Zr11 1_555 1_555
Zr15 O47_2 1_555 1_555
O29_2 Zr13 1_555 1_555
Zr21 O44_2 1_555 1_555
Zr21 O45_2 1_555 1_555
Zr13 O48_2 1_555 1_555
O44_2 Zr19_3 1_555 1_555
O45_2 Zr19_3 1_555 1_555
O47_2 Zr19_3 1_555 1_555
O48_2 Zr17 1_555 1_555
O50_3 C45_3 1_555 1_555
C45_3 C46_3 1_555 1_555
C46_3 C47_3 1_555 1_555
H23_3 C47_3 1_555 1_555
O15_3 C45_3 1_555 1_555
H24_3 C48_3 1_555 1_555
Zr19_3 O15_3 1_555 1_555
C46_3 C48_3 1_555 1_555
O16_2 C49_2 1_555 1_555
O17_2 C49_2 1_555 1_555
O18_2 Zr14_2 1_555 1_555
N3_2 C57_2 1_555 1_555
C49_2 C50_2 1_555 1_555
C50_2 C51_2 1_555 1_555
C51_2 H25_2 1_555 1_555
C52_2 C51_2 1_555 1_555
H26_2 C52_2 1_555 1_555
C53_2 C52_2 1_555 1_555
C54_2 C53_2 1_555 1_555
H27_2 C54_2 1_555 1_555
C55_2 C50_2 1_555 1_555
H28_2 C55_2 1_555 1_555
C56_2 C53_2 1_555 1_555
C57_2 C56_2 1_555 1_555
C58_2 C56_2 1_555 1_555
H29_2 C58_2 1_555 1_555
C59_2 C58_2 1_555 1_555
O19_3 Zr14_2 1_555 1_555
O36 C80_2 1_555 1_555
O41 C80_2 1_555 1_555
C80_2 C81_2 1_555 1_555
C81_2 C82_2 1_555 1_555
C82_2 H40_2 1_555 1_555
C83_2 C82_2 1_555 1_555
H41_2 C83_2 1_555 1_555
C84_2 C83_2 1_555 1_555
C85_2 C84_2 1_555 1_555
H42_2 C85_2 1_555 1_555
C86_2 C81_2 1_555 1_555
H43_2 C86_2 1_555 1_555
C87_2 C57_2 1_555 1_555
C88_2 C59_2 1_555 1_555
H44_2 C88_2 1_555 1_555
Zr9_2 O16_2 1_555 1_555
O43_2 Zr14_2 1_555 1_555
O49_3 Zr14_2 1_555 1_555
Zr17_2 O18_2 1_555 1_555
O17_2 Zr14_2 1_555 1_555
O18_2 Zr9_2 1_555 1_555
C54_2 C55_2 1_555 1_555
C84_2 C87_2 1_555 1_555
C85_2 C86_2 1_555 1_555
C87_2 C88_2 1_555 1_555
Zr9_2 O43_2 1_555 1_555
O43_2 Zr15_3 1_555 1_555
N3_2 H51_2 1_555 1_555
N3_2 H52_2 1_555 1_555
O33 C60_2 1_555 1_555
O21_2 C60_2 1_555 1_555
N4_2 C68_2 1_555 1_555
C60_2 C61_2 1_555 1_555
C61_2 C62_2 1_555 1_555
C62_2 H30_2 1_555 1_555
C63_2 C62_2 1_555 1_555
H31_2 C63_2 1_555 1_555
C64_2 C63_2 1_555 1_555
C65_2 C64_2 1_555 1_555
H32_2 C65_2 1_555 1_555
C66_2 C61_2 1_555 1_555
H33_2 C66_2 1_555 1_555
C67_2 C64_2 1_555 1_555
C68_2 C67_2 1_555 1_555
C69_2 C67_2 1_555 1_555
H34_2 C69_2 1_555 1_555
O22_2 C71_2 1_555 1_555
O23_2 C71_2 1_555 1_555
C71_2 C72_2 1_555 1_555
C72_2 C73_2 1_555 1_555
C73_2 H35_2 1_555 1_555
C74_2 C73_2 1_555 1_555
H36_2 C74_2 1_555 1_555
C75_2 C74_2 1_555 1_555
C76_2 C75_2 1_555 1_555
H37_2 C76_2 1_555 1_555
C77_2 C72_2 1_555 1_555
H38_2 C77_2 1_555 1_555
C78_2 C68_2 1_555 1_555
C79_2 C70_2 1_555 1_555
H39_2 C79_2 1_555 1_555
Zr9_2 O22_2 1_555 1_555
Zr19 O21_2 1_555 1_555
C65_2 C66_2 1_555 1_555
C69_2 C70_2 1_555 1_555
O23_2 Zr17_2 1_555 1_555
C75_2 C78_2 1_555 1_555
C76_2 C77_2 1_555 1_555
C78_2 C79_2 1_555 1_555
N4_2 H55_2 1_555 1_555
N4_2 H56_2 1_555 1_555
O49_2 C12_4 1_555 1_555
C12_4 C13_4 1_555 1_555
C13_4 C14_4 1_555 1_555
C14_4 H6_4 1_555 1_555
O13_4 C12_4 1_555 1_555
C44_4 C13_4 1_555 1_555
H22_4 C44_4 1_555 1_555
O27_3 Zr15_2 1_555 1_555
O28_4 Zr15_2 1_555 1_555
O30_4 Zr17 1_555 1_555
O31_3 Zr13 1_555 1_555
O34_3 Zr13 1_555 1_555
O38_3 Zr15_2 1_555 1_555
O44_3 Zr13 1_555 1_555
O50_4 Zr17 1_555 1_555
Zr19_4 O27_3 1_555 1_555
O13_4 Zr15_2 1_555 1_555
O27_3 Zr13 1_555 1_555
Zr17 O44_3 1_555 1_555
O44_3 Zr19_4 1_555 1_555
O50_4 C45_4 1_555 1_555
C45_4 C46_4 1_555 1_555
C46_4 C47_4 1_555 1_555
H23_4 C47_4 1_555 1_555
O15_4 C45_4 1_555 1_555
H24_4 C48_4 1_555 1_555
Zr19_4 O15_4 1_555 1_555
C46_4 C48_4 1_555 1_555
O49_3 C12_5 1_555 1_555
C12_5 C13_5 1_555 1_555
C13_5 C14_5 1_555 1_555
C14_5 H6_5 1_555 1_555
O13_5 C12_5 1_555 1_555
C44_5 C13_5 1_555 1_555
H22_5 C44_5 1_555 1_555
O28_5 Zr15_3 1_555 1_555
O30_5 Zr17_2 1_555 1_555
O33_3 Zr9_2 1_555 1_555
O36_3 Zr9_2 1_555 1_555
O41_3 Zr15_3 1_555 1_555
O45_3 Zr9_2 1_555 1_555
O47_3 Zr9_2 1_555 1_555
O50_5 Zr17_2 1_555 1_555
O13_5 Zr15_3 1_555 1_555
Zr15_3 O47_3 1_555 1_555
Zr17_2 O45_3 1_555 1_555
O45_3 Zr19_5 1_555 1_555
O47_3 Zr19_5 1_555 1_555
O50_5 C45_5 1_555 1_555
C45_5 C46_5 1_555 1_555
C46_5 C47_5 1_555 1_555
H23_5 C47_5 1_555 1_555
O15_5 C45_5 1_555 1_555
H24_5 C48_5 1_555 1_555
Zr19_5 O15_5 1_555 1_555
C46_5 C48_5 1_555 1_555
O31 C49_3 1_555 1_555
O38 C49_3 1_555 1_555
N3_3 C57_3 1_555 1_555
C49_3 C50_3 1_555 1_555
C50_3 C51_3 1_555 1_555
C51_3 H25_3 1_555 1_555
C52_3 C51_3 1_555 1_555
H26_3 C52_3 1_555 1_555
C53_3 C52_3 1_555 1_555
C54_3 C53_3 1_555 1_555
H27_3 C54_3 1_555 1_555
C55_3 C50_3 1_555 1_555
H28_3 C55_3 1_555 1_555
C56_3 C53_3 1_555 1_555
C57_3 C56_3 1_555 1_555
C58_3 C56_3 1_555 1_555
H29_3 C58_3 1_555 1_555
C59_3 C58_3 1_555 1_555
O36_2 C80_3 1_555 1_555
O41_2 C80_3 1_555 1_555
C80_3 C81_3 1_555 1_555
C81_3 C82_3 1_555 1_555
C82_3 H40_3 1_555 1_555
C83_3 C82_3 1_555 1_555
H41_3 C83_3 1_555 1_555
C84_3 C83_3 1_555 1_555
C85_3 C84_3 1_555 1_555
H42_3 C85_3 1_555 1_555
C86_3 C81_3 1_555 1_555
H43_3 C86_3 1_555 1_555
C87_3 C57_3 1_555 1_555
C88_3 C59_3 1_555 1_555
H44_3 C88_3 1_555 1_555
C54_3 C55_3 1_555 1_555
C84_3 C87_3 1_555 1_555
C85_3 C86_3 1_555 1_555
C87_3 C88_3 1_555 1_555
N3_3 H51_3 1_555 1_555
N3_3 H52_3 1_555 1_555
O33_2 C60_3 1_555 1_555
O21_3 C60_3 1_555 1_555
N4_3 C68_3 1_555 1_555
C60_3 C61_3 1_555 1_555
C61_3 C62_3 1_555 1_555
C62_3 H30_3 1_555 1_555
C63_3 C62_3 1_555 1_555
H31_3 C63_3 1_555 1_555
C64_3 C63_3 1_555 1_555
C65_3 C64_3 1_555 1_555
H32_3 C65_3 1_555 1_555
C66_3 C61_3 1_555 1_555
H33_3 C66_3 1_555 1_555
C67_3 C64_3 1_555 1_555
C68_3 C67_3 1_555 1_555
C69_3 C67_3 1_555 1_555
H34_3 C69_3 1_555 1_555
O34 C71_3 1_555 1_555
O23_3 C71_3 1_555 1_555
C71_3 C72_3 1_555 1_555
C72_3 C73_3 1_555 1_555
C73_3 H35_3 1_555 1_555
C74_3 C73_3 1_555 1_555
H36_3 C74_3 1_555 1_555
C75_3 C74_3 1_555 1_555
C76_3 C75_3 1_555 1_555
H37_3 C76_3 1_555 1_555
C77_3 C72_3 1_555 1_555
H38_3 C77_3 1_555 1_555
C78_3 C68_3 1_555 1_555
C79_3 C70_3 1_555 1_555
H39_3 C79_3 1_555 1_555
Zr19_3 O21_3 1_555 1_555
C65_3 C66_3 1_555 1_555
C69_3 C70_3 1_555 1_555
O23_3 Zr19_2 1_555 1_555
C75_3 C78_3 1_555 1_555
C76_3 C77_3 1_555 1_555
C78_3 C79_3 1_555 1_555
N4_3 H55_3 1_555 1_555
N4_3 H56_3 1_555 1_555
O30_6 Zr19 1_555 1_555
O31_2 C49_4 1_555 1_555
O38_2 C49_4 1_555 1_555
N3_4 C57_4 1_555 1_555
C49_4 C50_4 1_555 1_555
C50_4 C51_4 1_555 1_555
C51_4 H25_4 1_555 1_555
C52_4 C51_4 1_555 1_555
H26_4 C52_4 1_555 1_555
C53_4 C52_4 1_555 1_555
C54_4 C53_4 1_555 1_555
H27_4 C54_4 1_555 1_555
C55_4 C50_4 1_555 1_555
H28_4 C55_4 1_555 1_555
C56_4 C53_4 1_555 1_555
C57_4 C56_4 1_555 1_555
C58_4 C56_4 1_555 1_555
H29_4 C58_4 1_555 1_555
C59_4 C58_4 1_555 1_555
O36_3 C80_4 1_555 1_555
O41_3 C80_4 1_555 1_555
C80_4 C81_4 1_555 1_555
C81_4 C82_4 1_555 1_555
C82_4 H40_4 1_555 1_555
C83_4 C82_4 1_555 1_555
H41_4 C83_4 1_555 1_555
C84_4 C83_4 1_555 1_555
C85_4 C84_4 1_555 1_555
H42_4 C85_4 1_555 1_555
C86_4 C81_4 1_555 1_555
H43_4 C86_4 1_555 1_555
C87_4 C57_4 1_555 1_555
C88_4 C59_4 1_555 1_555
H44_4 C88_4 1_555 1_555
O30_7 Zr19_2 1_555 1_555
C54_4 C55_4 1_555 1_555
C84_4 C87_4 1_555 1_555
C85_4 C86_4 1_555 1_555
C87_4 C88_4 1_555 1_555
N3_4 H51_4 1_555 1_555
N3_4 H52_4 1_555 1_555
O33_3 C60_4 1_555 1_555
O21_4 C60_4 1_555 1_555
N4_4 C68_4 1_555 1_555
C60_4 C61_4 1_555 1_555
C61_4 C62_4 1_555 1_555
C62_4 H30_4 1_555 1_555
C63_4 C62_4 1_555 1_555
H31_4 C63_4 1_555 1_555
C64_4 C63_4 1_555 1_555
C65_4 C64_4 1_555 1_555
H32_4 C65_4 1_555 1_555
C66_4 C61_4 1_555 1_555
H33_4 C66_4 1_555 1_555
C67_4 C64_4 1_555 1_555
C68_4 C67_4 1_555 1_555
C69_4 C67_4 1_555 1_555
H34_4 C69_4 1_555 1_555
O34_2 C71_4 1_555 1_555
O23_4 C71_4 1_555 1_555
C71_4 C72_4 1_555 1_555
C72_4 C73_4 1_555 1_555
C73_4 H35_4 1_555 1_555
C74_4 C73_4 1_555 1_555
H36_4 C74_4 1_555 1_555
C75_4 C74_4 1_555 1_555
C76_4 C75_4 1_555 1_555
H37_4 C76_4 1_555 1_555
C77_4 C72_4 1_555 1_555
H38_4 C77_4 1_555 1_555
C78_4 C68_4 1_555 1_555
C79_4 C70_4 1_555 1_555
H39_4 C79_4 1_555 1_555
Zr19_5 O21_4 1_555 1_555
C65_4 C66_4 1_555 1_555
C69_4 C70_4 1_555 1_555
O23_4 Zr19_3 1_555 1_555
C75_4 C78_4 1_555 1_555
C76_4 C77_4 1_555 1_555
C78_4 C79_4 1_555 1_555
N4_4 H55_4 1_555 1_555
N4_4 H56_4 1_555 1_555
O31_3 C49_5 1_555 1_555
O38_3 C49_5 1_555 1_555
N3_5 C57_5 1_555 1_555
C49_5 C50_5 1_555 1_555
C50_5 C51_5 1_555 1_555
C51_5 H25_5 1_555 1_555
C52_5 C51_5 1_555 1_555
H26_5 C52_5 1_555 1_555
C53_5 C52_5 1_555 1_555
C54_5 C53_5 1_555 1_555
H27_5 C54_5 1_555 1_555
C55_5 C50_5 1_555 1_555
H28_5 C55_5 1_555 1_555
C56_5 C53_5 1_555 1_555
C57_5 C56_5 1_555 1_555
C58_5 C56_5 1_555 1_555
H29_5 C58_5 1_555 1_555
C59_5 C58_5 1_555 1_555
O37 C80_5 1_555 1_555
O42 C80_5 1_555 1_555
C80_5 C81_5 1_555 1_555
C81_5 C82_5 1_555 1_555
C82_5 H40_5 1_555 1_555
C83_5 C82_5 1_555 1_555
H41_5 C83_5 1_555 1_555
C84_5 C83_5 1_555 1_555
C85_5 C84_5 1_555 1_555
H42_5 C85_5 1_555 1_555
C86_5 C81_5 1_555 1_555
H43_5 C86_5 1_555 1_555
C87_5 C57_5 1_555 1_555
C88_5 C59_5 1_555 1_555
H44_5 C88_5 1_555 1_555
C54_5 C55_5 1_555 1_555
C84_5 C87_5 1_555 1_555
C85_5 C86_5 1_555 1_555
C87_5 C88_5 1_555 1_555
N3_5 H51_5 1_555 1_555
N3_5 H52_5 1_555 1_555
O32 C60_5 1_555 1_555
O39 C60_5 1_555 1_555
N4_5 C68_5 1_555 1_555
C60_5 C61_5 1_555 1_555
C61_5 C62_5 1_555 1_555
C62_5 H30_5 1_555 1_555
C63_5 C62_5 1_555 1_555
H31_5 C63_5 1_555 1_555
C64_5 C63_5 1_555 1_555
C65_5 C64_5 1_555 1_555
H32_5 C65_5 1_555 1_555
C66_5 C61_5 1_555 1_555
H33_5 C66_5 1_555 1_555
C67_5 C64_5 1_555 1_555
C68_5 C67_5 1_555 1_555
C69_5 C67_5 1_555 1_555
H34_5 C69_5 1_555 1_555
O34_3 C71_5 1_555 1_555
O23_5 C71_5 1_555 1_555
C71_5 C72_5 1_555 1_555
C72_5 C73_5 1_555 1_555
C73_5 H35_5 1_555 1_555
C74_5 C73_5 1_555 1_555
H36_5 C74_5 1_555 1_555
C75_5 C74_5 1_555 1_555
C76_5 C75_5 1_555 1_555
H37_5 C76_5 1_555 1_555
C77_5 C72_5 1_555 1_555
H38_5 C77_5 1_555 1_555
C78_5 C68_5 1_555 1_555
C79_5 C70_5 1_555 1_555
H39_5 C79_5 1_555 1_555
C65_5 C66_5 1_555 1_555
C69_5 C70_5 1_555 1_555
O23_5 Zr19_4 1_555 1_555
C75_5 C78_5 1_555 1_555
C76_5 C77_5 1_555 1_555
C78_5 C79_5 1_555 1_555
N4_5 H55_5 1_555 1_555
N4_5 H56_5 1_555 1_555
O30_8 Zr19_3 1_555 1_555
O30_9 Zr19_4 1_555 1_555
O30_10 Zr19_5 1_555 1_555
N3_3 H45_2 1_555 1_555
N3_3 H46_2 1_555 1_555
N3_4 H55_6 1_555 1_555
N3_4 H56_6 1_555 1_555
N4_3 H47_2 1_555 1_555
N4_3 H48_2 1_555 1_555
N4_4 H51_6 1_555 1_555
N4_4 H52_6 1_555 1_555
N3_5 H55_7 1_555 1_555
N3_5 H56_7 1_555 1_555
N4_5 H51_7 1_555 1_555
N4_5 H52_7 1_555 1_555
N1 H55_8 1_555 1_555
N1 H56_8 1_555 1_555
N2 H51_8 1_555 1_555
N2 H52_8 1_555 1_555
N3 H55_9 1_555 1_555
N3 H56_9 1_555 1_555
N4 H51_9 1_555 1_555
N4 H52_9 1_555 1_555
N3_2 H55_10 1_555 1_555
N3_2 H56_10 1_555 1_555
N4_2 H51_10 1_555 1_555
N4_2 H52_10 1_555 1_555

#END
