
###############################################################################
#
# This file contains modified crystal structure data generated from the
# MOF subset of the Cambridge Structural Database (CSD) v543 
# hosted by the Cambridge Crystallographic Data Centre (CCDC).
#
# This work is licensed under the Creative Commons
# Attribution-NonCommercial-ShareAlike 4.0 International License.
# To view a copy of this license, visit
# http://creativecommons.org/licenses/by-nc-sa/4.0/
# or send a letter to
# Creative Commons, PO Box 1866, Mountain View, CA 94042, USA.
#
# CIF created using the CSD Python API on 29 September 2022
# The structure has been converted into the P1 space group
# The structure has a 3D framework
# The original CSD entry LOCZIO is in the monoclinic crystal system
# The framework has been calculated to contain at least 10.0% void space
# The void calculation uses a probe of radius 1.32A, grid spacing 0.4
# H atom positions have been added when not included in the experimental data
#
###############################################################################

data_LOCZIO
_chemical_formula_moiety         '(C124 H108 N16 Ni8 O48 S16)n'
_symmetry_cell_setting           triclinic
_symmetry_space_group_name_H-M   'P 1'
_symmetry_Int_Tables_number      1
_space_group_name_Hall           'P 1'
loop_
_symmetry_equiv_pos_site_id
_symmetry_equiv_pos_as_xyz
1 x,y,z
_cell_length_a                   15.8979(12)
_cell_length_b                   15.7892(12)
_cell_length_c                   20.3288(16)
_cell_angle_alpha                90
_cell_angle_beta                 106.324(8)
_cell_angle_gamma                90
_cell_volume                     4897.13
loop_
_atom_site_label
_atom_site_type_symbol
_atom_site_fract_x
_atom_site_fract_y
_atom_site_fract_z
Ni1 Ni 0.21744(11) 0.05982(10) 0.22301(9)
O1 O 0.2159(6) 0.2736(6) 0.2311(5)
O2 O 0.1335(5) 0.1568(6) 0.2223(5)
O3 O 0.1957(5) 0.4608(5) 0.2741(5)
O4 O 0.1360(6) 0.4455(6) 0.1613(5)
O5 O 0.3251(6) 0.1445(6) 0.2567(5)
O6 O 0.2240(6) 0.0431(6) 0.3266(5)
C1 C 0.0259(9) 0.0024(9) 0.1728(7)
H1 H 0.0149 0.0603 0.1708
C6 C -0.0000 0.4178(12) 0.2500
H4 H -0.0000 0.4767 0.2500
C7 C 0.0703(8) 0.3750(8) 0.2367(6)
C8 C 0.0706(8) 0.2875(8) 0.2382(6)
C9 C -0.0000 0.2456(12) 0.2500
H5 H -0.0000 0.1867 0.2500
C10 C 0.1464(9) 0.2346(10) 0.2295(7)
C16 C 0.1399(9) 0.4298(8) 0.2228(7)
Ni4 Ni 0.28256(11) 0.55982(10) 0.27699(9)
N5 N 0.2196(8) 0.0860(7) 0.1229(6)
H19 H 0.324478 0.169825 0.301272
H20 H 0.380778 0.113063 0.262328
H21 H 0.164574 0.0304559 0.330871
N1 N 0.1110(7) 0.9771(7) 0.1944(6)
C4 C 0.0586(10) 0.8350(9) 0.1803(8)
H3 H 0.0717 0.7775 0.1833
C11 C 0.1224(10) 0.8922(10) 0.1981(8)
H6 H 0.1795 0.8722 0.2145
S3 S 0.1106(2) 0.7817(2) 0.36379(19)
S4 S 0.2250(2) 0.8423(2) 0.4068(2)
N4 N 0.2196(8) 0.9140(7) 0.6229(6)
C22 C 0.0446(9) 0.9492(9) 0.3462(7)
H12 H 0.1014 0.9704 0.3609
C23 C 0.0292(9) 0.8626(9) 0.3431(7)
C25 C 0.2184(9) 0.8673(9) 0.4905(7)
C27 C 0.1457(10) 0.8555(10) 0.5132(8)
H15 H 0.0951 0.8314 0.4847
C28 C 0.2896(10) 0.9240(9) 0.6002(8)
H16 H 0.3401 0.9464 0.6300
C29 C 0.1488(10) 0.8799(10) 0.5793(8)
H17 H 0.0990 0.8722 0.5941
C30 C 0.2915(10) 0.9029(10) 0.5350(8)
H18 H 0.3416 0.9127 0.5211
Ni6 Ni 0.21744(11) 0.94018(10) 0.72301(9)
O14 O 0.3043(5) 0.9608(5) 0.2259(5)
H22 H 0.263976 0.995262 0.345649
C6_2 C 1.0000 0.4178(12) 0.2500
H4_2 H 1.0000 0.4767 0.2500
C9_2 C 1.0000 0.2456(12) 0.2500
H5_2 H 1.0000 0.1867 0.2500
O7 O 0.7841(6) 0.2736(6) 0.2689(5)
O8 O 0.8665(5) 0.1568(6) 0.2777(5)
C17 C 0.9297(8) 0.3750(8) 0.2633(6)
C18 C 0.9294(8) 0.2875(8) 0.2618(6)
C19 C 0.8536(9) 0.2346(10) 0.2705(7)
O9 O 0.8043(5) 0.4608(5) 0.2259(5)
O10 O 0.8640(6) 0.4455(6) 0.3387(5)
C20 C 0.8601(9) 0.4298(8) 0.2772(7)
Ni2 Ni 0.78256(11) 0.05982(10) 0.27699(9)
O11 O 0.6749(6) 0.1445(6) 0.2433(5)
O12 O 0.7760(6) 0.0431(6) 0.1734(5)
C21 C 0.9741(9) 0.0024(9) 0.3272(7)
H11 H 0.9851 0.0603 0.3292
Ni3 Ni 0.71744(11) 0.55982(10) 0.22301(9)
N6 N 0.7804(8) 0.0860(7) 0.3771(6)
H23 H 0.675522 0.169825 0.198728
H24 H 0.619222 0.113063 0.237672
H25 H 0.835426 0.0304559 0.169129
S1 S 0.8894(2) 0.7817(2) 0.13621(19)
S2 S 0.7750(2) 0.8423(2) 0.0932(2)
C2 C 0.9554(9) 0.9492(9) 0.1538(7)
H2 H 0.8986 0.9704 0.1391
C3 C 0.9708(9) 0.8626(9) 0.1569(7)
C5 C 0.7816(9) 0.8673(9) 0.0095(7)
H7 H 0.9049 0.8314 0.0153
N3 N 0.8890(7) 0.9771(7) 0.3056(6)
C24 C 0.9414(10) 0.8350(9) 0.3197(8)
H13 H 0.9283 0.7775 0.3167
C26 C 0.8776(10) 0.8922(10) 0.3019(8)
H14 H 0.8205 0.8722 0.2855
O13 O 0.6957(5) 0.9608(5) 0.2741(5)
H26 H 0.736024 0.995262 0.154351
N2 N 0.7804(8) 0.9140(7) 0.8771(6)
C12 C 0.8543(10) 0.8555(10) 0.9868(8)
C13 C 0.7104(10) 0.9240(9) 0.8998(8)
H8 H 0.6599 0.9464 0.8700
C14 C 0.8512(10) 0.8799(10) 0.9207(8)
H9 H 0.9010 0.8722 0.9059
C15 C 0.7085(10) 0.9029(10) 0.9650(8)
H10 H 0.6584 0.9127 0.9789
Ni5 Ni 0.78256(11) 0.94018(10) 0.77699(9)
S1_2 S 0.3894(2) 0.2817(2) 0.13621(19)
S2_2 S 0.2750(2) 0.3423(2) 0.0932(2)
O1_2 O 0.7159(6) 0.7736(6) 0.2311(5)
O2_2 O 0.6335(5) 0.6568(6) 0.2223(5)
O4_2 O 0.6360(6) 0.9455(6) 0.1613(5)
O5_2 O 0.8251(6) 0.6445(6) 0.2567(5)
O6_2 O 0.7240(6) 0.5431(6) 0.3266(5)
N1_2 N 0.6110(7) 0.4771(7) 0.1944(6)
C1_2 C 0.5259(9) 0.5024(9) 0.1728(7)
H1_2 H 0.5149 0.5603 0.1708
C2_2 C 0.4554(9) 0.4492(9) 0.1538(7)
H2_2 H 0.3986 0.4704 0.1391
C3_2 C 0.4708(9) 0.3626(9) 0.1569(7)
C4_2 C 0.5586(10) 0.3350(9) 0.1803(8)
H3_2 H 0.5717 0.2775 0.1833
C5_2 C 0.2816(9) 0.3673(9) 0.0095(7)
C6_3 C 0.5000 0.9178(12) 0.2500
H4_3 H 0.5000 0.9767 0.2500
C7_2 C 0.5703(8) 0.8750(8) 0.2367(6)
C8_2 C 0.5706(8) 0.7875(8) 0.2382(6)
C9_3 C 0.5000 0.7456(12) 0.2500
H5_3 H 0.5000 0.6867 0.2500
C10_2 C 0.6464(9) 0.7346(10) 0.2295(7)
C11_2 C 0.6224(10) 0.3922(10) 0.1981(8)
H6_2 H 0.6795 0.3722 0.2145
H7_2 H 0.4049 0.3314 0.0153
C16_2 C 0.6399(9) 0.9298(8) 0.2228(7)
O7_2 O 0.2841(6) 0.7736(6) 0.2689(5)
O8_2 O 0.3665(5) 0.6568(6) 0.2777(5)
C17_2 C 0.4297(8) 0.8750(8) 0.2633(6)
C18_2 C 0.4294(8) 0.7875(8) 0.2618(6)
C19_2 C 0.3536(9) 0.7346(10) 0.2705(7)
O10_2 O 0.3640(6) 0.9455(6) 0.3387(5)
C20_2 C 0.3601(9) 0.9298(8) 0.2772(7)
S3_2 S 0.6106(2) 0.2817(2) 0.36379(19)
S4_2 S 0.7250(2) 0.3423(2) 0.4068(2)
O11_2 O 0.1749(6) 0.6445(6) 0.2433(5)
O12_2 O 0.2760(6) 0.5431(6) 0.1734(5)
N3_2 N 0.3890(7) 0.4771(7) 0.3056(6)
N4_2 N 0.7196(8) 0.4140(7) 0.6229(6)
C21_2 C 0.4741(9) 0.5024(9) 0.3272(7)
H11_2 H 0.4851 0.5603 0.3292
C22_2 C 0.5446(9) 0.4492(9) 0.3462(7)
H12_2 H 0.6014 0.4704 0.3609
C23_2 C 0.5292(9) 0.3626(9) 0.3431(7)
C24_2 C 0.4414(10) 0.3350(9) 0.3197(8)
H13_2 H 0.4283 0.2775 0.3167
C25_2 C 0.7184(9) 0.3673(9) 0.4905(7)
C26_2 C 0.3776(10) 0.3922(10) 0.3019(8)
H14_2 H 0.3205 0.3722 0.2855
C27_2 C 0.6457(10) 0.3555(10) 0.5132(8)
H15_2 H 0.5951 0.3314 0.4847
C28_2 C 0.7896(10) 0.4240(9) 0.6002(8)
H16_2 H 0.8401 0.4464 0.6300
C29_2 C 0.6488(10) 0.3799(10) 0.5793(8)
H17_2 H 0.5990 0.3722 0.5941
C30_2 C 0.7915(10) 0.4029(10) 0.5350(8)
H18_2 H 0.8416 0.4127 0.5211
Ni6_2 Ni 0.71744(11) 0.44018(10) 0.72301(9)
N5_2 N 0.7196(8) 0.5860(7) 0.1229(6)
N6_2 N 0.2804(8) 0.5860(7) 0.3771(6)
H19_2 H 0.824478 0.669825 0.301272
H20_2 H 0.880778 0.613063 0.262328
H21_2 H 0.664574 0.530456 0.330871
H22_2 H 0.763976 0.495262 0.345649
H23_2 H 0.175522 0.669825 0.198728
H24_2 H 0.119222 0.613063 0.237672
H25_2 H 0.335426 0.530456 0.169129
H26_2 H 0.236024 0.495262 0.154351
N2_2 N 0.2804(8) 0.4140(7) 0.8771(6)
C12_2 C 0.3543(10) 0.3555(10) 0.9868(8)
C13_2 C 0.2104(10) 0.4240(9) 0.8998(8)
H8_2 H 0.1599 0.4464 0.8700
C14_2 C 0.3512(10) 0.3799(10) 0.9207(8)
H9_2 H 0.4010 0.3722 0.9059
C15_2 C 0.2085(10) 0.4029(10) 0.9650(8)
H10_2 H 0.1584 0.4127 0.9789
Ni5_2 Ni 0.28256(11) 0.44018(10) 0.77699(9)
C12_3 C 0.1457(10) 0.1445(10) 0.0132(8)
C13_3 C 0.2896(10) 0.0760(9) 0.1002(8)
H8_3 H 0.3401 0.0536 0.1300
C14_3 C 0.1488(10) 0.1201(10) 0.0793(8)
H9_3 H 0.0990 0.1278 0.0941
C15_3 C 0.2915(10) 0.0971(10) 0.0350(8)
H10_3 H 0.3416 0.0873 0.0211
S1_3 S 0.1106(2) 0.2183(2) 0.86379(19)
S2_3 S 0.2250(2) 0.1577(2) 0.9068(2)
C2_3 C 0.0446(9) 0.0508(9) 0.8462(7)
H2_3 H 0.1014 0.0296 0.8609
C3_3 C 0.0292(9) 0.1374(9) 0.8431(7)
C5_3 C 0.2184(9) 0.1327(9) 0.9905(7)
H7_3 H 0.0951 0.1686 0.9847
N3_3 N 0.1110(7) 0.0229(7) 0.6944(6)
C24_3 C 0.0586(10) 0.1650(9) 0.6803(8)
H13_3 H 0.0717 0.2225 0.6833
C26_3 C 0.1224(10) 0.1078(10) 0.6981(8)
H14_3 H 0.1795 0.1278 0.7145
O13_2 O 0.3043(5) 0.0392(5) 0.7259(5)
H26_3 H 0.263976 0.0047385 0.845649
C6_4 C -0.0000 0.5822(12) 0.7500
H4_4 H -0.0000 0.5233 0.7500
C9_4 C -0.0000 0.7544(12) 0.7500
H5_4 H -0.0000 0.8133 0.7500
O7_3 O 0.2159(6) 0.7264(6) 0.7311(5)
O8_3 O 0.1335(5) 0.8432(6) 0.7223(5)
C17_3 C 0.0703(8) 0.6250(8) 0.7367(6)
C18_3 C 0.0706(8) 0.7125(8) 0.7382(6)
C19_3 C 0.1464(9) 0.7654(10) 0.7295(7)
O9_2 O 0.1957(5) 0.5392(5) 0.7741(5)
O10_3 O 0.1360(6) 0.5545(6) 0.6613(5)
C20_3 C 0.1399(9) 0.5702(8) 0.7228(7)
O11_3 O 0.3251(6) 0.8555(6) 0.7567(5)
O12_3 O 0.2240(6) 0.9569(6) 0.8266(5)
C21_3 C 0.0259(9) 0.9976(9) 0.6728(7)
H11_3 H 0.0149 0.9397 0.6708
H23_3 H 0.324478 0.830175 0.801272
H24_3 H 0.380778 0.886937 0.762328
H25_3 H 0.164574 0.969544 0.830871
N1_3 N 0.8890(7) 0.0229(7) 0.8056(6)
C4_3 C 0.9414(10) 0.1650(9) 0.8197(8)
H3_3 H 0.9283 0.2225 0.8167
C11_3 C 0.8776(10) 0.1078(10) 0.8019(8)
H6_3 H 0.8205 0.1278 0.7855
S3_3 S 0.8894(2) 0.2183(2) 0.63621(19)
S4_3 S 0.7750(2) 0.1577(2) 0.5932(2)
C22_3 C 0.9554(9) 0.0508(9) 0.6538(7)
H12_3 H 0.8986 0.0296 0.6391
C23_3 C 0.9708(9) 0.1374(9) 0.6569(7)
C25_3 C 0.7816(9) 0.1327(9) 0.5095(7)
C27_3 C 0.8543(10) 0.1445(10) 0.4868(8)
H15_3 H 0.9049 0.1686 0.5153
C28_3 C 0.7104(10) 0.0760(9) 0.3998(8)
H16_3 H 0.6599 0.0536 0.3700
C29_3 C 0.8512(10) 0.1201(10) 0.4207(8)
H17_3 H 0.9010 0.1278 0.4059
C30_3 C 0.7085(10) 0.0971(10) 0.4650(8)
H18_3 H 0.6584 0.0873 0.4789
O14_2 O 0.6957(5) 0.0392(5) 0.7741(5)
H22_3 H 0.736024 0.0047385 0.654351
O1_3 O 0.7841(6) 0.7264(6) 0.7689(5)
O2_3 O 0.8665(5) 0.8432(6) 0.7777(5)
O3_2 O 0.8043(5) 0.5392(5) 0.7259(5)
O4_3 O 0.8640(6) 0.5545(6) 0.8387(5)
O5_3 O 0.6749(6) 0.8555(6) 0.7433(5)
O6_3 O 0.7760(6) 0.9569(6) 0.6734(5)
C1_3 C 0.9741(9) 0.9976(9) 0.8272(7)
H1_3 H 0.9851 0.9397 0.8292
C6_5 C 1.0000 0.5822(12) 0.7500
H4_5 H 1.0000 0.5233 0.7500
C7_3 C 0.9297(8) 0.6250(8) 0.7633(6)
C8_3 C 0.9294(8) 0.7125(8) 0.7618(6)
C9_5 C 1.0000 0.7544(12) 0.7500
H5_5 H 1.0000 0.8133 0.7500
C10_3 C 0.8536(9) 0.7654(10) 0.7705(7)
C16_3 C 0.8601(9) 0.5702(8) 0.7772(7)
H19_3 H 0.675522 0.830175 0.698728
H20_3 H 0.619222 0.886937 0.737672
H21_3 H 0.835426 0.969544 0.669129
C12_4 C 0.6457(10) 0.6445(10) 0.0132(8)
C13_4 C 0.7896(10) 0.5760(9) 0.1002(8)
H8_4 H 0.8401 0.5536 0.1300
C14_4 C 0.6488(10) 0.6201(10) 0.0793(8)
H9_4 H 0.5990 0.6278 0.0941
C15_4 C 0.7915(10) 0.5971(10) 0.0350(8)
H10_4 H 0.8416 0.5873 0.0211
S1_4 S 0.6106(2) 0.7183(2) 0.86379(19)
S2_4 S 0.7250(2) 0.6577(2) 0.9068(2)
O1_4 O 0.2841(6) 0.2264(6) 0.7689(5)
O2_4 O 0.3665(5) 0.3432(6) 0.7777(5)
O4_4 O 0.3640(6) 0.0545(6) 0.8387(5)
O5_4 O 0.1749(6) 0.3555(6) 0.7433(5)
O6_4 O 0.2760(6) 0.4569(6) 0.6734(5)
N1_4 N 0.3890(7) 0.5229(7) 0.8056(6)
C1_4 C 0.4741(9) 0.4976(9) 0.8272(7)
H1_4 H 0.4851 0.4397 0.8292
C2_4 C 0.5446(9) 0.5508(9) 0.8462(7)
H2_4 H 0.6014 0.5296 0.8609
C3_4 C 0.5292(9) 0.6374(9) 0.8431(7)
C4_4 C 0.4414(10) 0.6650(9) 0.8197(8)
H3_4 H 0.4283 0.7225 0.8167
C5_4 C 0.7184(9) 0.6327(9) 0.9905(7)
C6_6 C 0.5000 0.0822(12) 0.7500
H4_6 H 0.5000 0.0233 0.7500
C7_4 C 0.4297(8) 0.1250(8) 0.7633(6)
C8_4 C 0.4294(8) 0.2125(8) 0.7618(6)
C9_6 C 0.5000 0.2544(12) 0.7500
H5_6 H 0.5000 0.3133 0.7500
C10_4 C 0.3536(9) 0.2654(10) 0.7705(7)
C11_4 C 0.3776(10) 0.6078(10) 0.8019(8)
H6_4 H 0.3205 0.6278 0.7855
H7_4 H 0.5951 0.6686 0.9847
C16_4 C 0.3601(9) 0.0702(8) 0.7772(7)
O7_4 O 0.7159(6) 0.2264(6) 0.7311(5)
O8_4 O 0.6335(5) 0.3432(6) 0.7223(5)
C17_4 C 0.5703(8) 0.1250(8) 0.7367(6)
C18_4 C 0.5706(8) 0.2125(8) 0.7382(6)
C19_4 C 0.6464(9) 0.2654(10) 0.7295(7)
O10_4 O 0.6360(6) 0.0545(6) 0.6613(5)
C20_4 C 0.6399(9) 0.0702(8) 0.7228(7)
S3_4 S 0.3894(2) 0.7183(2) 0.63621(19)
S4_4 S 0.2750(2) 0.6577(2) 0.5932(2)
O11_4 O 0.8251(6) 0.3555(6) 0.7567(5)
O12_4 O 0.7240(6) 0.4569(6) 0.8266(5)
N3_4 N 0.6110(7) 0.5229(7) 0.6944(6)
C21_4 C 0.5259(9) 0.4976(9) 0.6728(7)
H11_4 H 0.5149 0.4397 0.6708
C22_4 C 0.4554(9) 0.5508(9) 0.6538(7)
H12_4 H 0.3986 0.5296 0.6391
C23_4 C 0.4708(9) 0.6374(9) 0.6569(7)
C24_4 C 0.5586(10) 0.6650(9) 0.6803(8)
H13_4 H 0.5717 0.7225 0.6833
C25_4 C 0.2816(9) 0.6327(9) 0.5095(7)
C26_4 C 0.6224(10) 0.6078(10) 0.6981(8)
H14_4 H 0.6795 0.6278 0.7145
C27_4 C 0.3543(10) 0.6445(10) 0.4868(8)
H15_4 H 0.4049 0.6686 0.5153
C28_4 C 0.2104(10) 0.5760(9) 0.3998(8)
H16_4 H 0.1599 0.5536 0.3700
C29_4 C 0.3512(10) 0.6201(10) 0.4207(8)
H17_4 H 0.4010 0.6278 0.4059
C30_4 C 0.2085(10) 0.5971(10) 0.4650(8)
H18_4 H 0.1584 0.5873 0.4789
H19_4 H 0.175522 0.330175 0.698728
H20_4 H 0.119222 0.386937 0.737672
H21_4 H 0.335426 0.469544 0.669129
H22_4 H 0.236024 0.504738 0.654351
H23_4 H 0.824478 0.330175 0.801272
H24_4 H 0.880778 0.386937 0.762328
H25_4 H 0.664574 0.469544 0.830871
H26_4 H 0.763976 0.504738 0.845649
loop_
_geom_bond_atom_site_label_1
_geom_bond_atom_site_label_2
_geom_bond_site_symmetry_1
_geom_bond_site_symmetry_2
Ni1 O2 1_555 1_555
O1 C10 1_555 1_555
O2 C10 1_555 1_555
O3 C16 1_555 1_555
O4 C16 1_555 1_555
O5 Ni1 1_555 1_555
O6 Ni1 1_555 1_555
H1 C1 1_555 1_555
C6 H4 1_555 1_555
C7 C6 1_555 1_555
C8 C7 1_555 1_555
C9 C8 1_555 1_555
H5 C9 1_555 1_555
C10 C8 1_555 1_555
C16 C7 1_555 1_555
Ni4 O3 1_555 1_555
N5 Ni1 1_555 1_555
O5 H19 1_555 1_555
O5 H20 1_555 1_555
O6 H21 1_555 1_555
H3 C4 1_555 1_555
C11 N1 1_555 1_555
H6 C11 1_555 1_555
S3 S4 1_555 1_555
S4 C25 1_555 1_555
N4 C28 1_555 1_555
H12 C22 1_555 1_555
C23 S3 1_555 1_555
C25 C27 1_555 1_555
C27 H15 1_555 1_555
C28 H16 1_555 1_555
C29 N4 1_555 1_555
H17 C29 1_555 1_555
C30 C25 1_555 1_555
H18 C30 1_555 1_555
Ni6 N4 1_555 1_555
C4 C11 1_555 1_555
C22 C23 1_555 1_555
C27 C29 1_555 1_555
C28 C30 1_555 1_555
C6_2 H4_2 1_555 1_555
H5_2 C9_2 1_555 1_555
O7 C19 1_555 1_555
O8 C19 1_555 1_555
C17 C6_2 1_555 1_555
C18 C9_2 1_555 1_555
C19 C18 1_555 1_555
O9 C20 1_555 1_555
O10 C20 1_555 1_555
C20 C17 1_555 1_555
Ni2 O8 1_555 1_555
O11 Ni2 1_555 1_555
O12 Ni2 1_555 1_555
H11 C21 1_555 1_555
Ni3 O9 1_555 1_555
N6 Ni2 1_555 1_555
C17 C18 1_555 1_555
O11 H23 1_555 1_555
O11 H24 1_555 1_555
O12 H25 1_555 1_555
S1 S2 1_555 1_555
S2 C5 1_555 1_555
H2 C2 1_555 1_555
C3 S1 1_555 1_555
H13 C24 1_555 1_555
C26 N3 1_555 1_555
H14 C26 1_555 1_555
C2 C3 1_555 1_555
C24 C26 1_555 1_555
N2 C13 1_555 1_555
C13 H8 1_555 1_555
C14 N2 1_555 1_555
H9 C14 1_555 1_555
H10 C15 1_555 1_555
Ni5 N2 1_555 1_555
C12 C14 1_555 1_555
C13 C15 1_555 1_555
Ni3 O2_2 1_555 1_555
S1_2 S2_2 1_555 1_555
S2_2 C5_2 1_555 1_555
O1_2 C10_2 1_555 1_555
O2_2 C10_2 1_555 1_555
O13 C16_2 1_555 1_555
O4_2 C16_2 1_555 1_555
O5_2 Ni3 1_555 1_555
O6_2 Ni3 1_555 1_555
N1_2 Ni3 1_555 1_555
C1_2 N1_2 1_555 1_555
H1_2 C1_2 1_555 1_555
C2_2 C1_2 1_555 1_555
H2_2 C2_2 1_555 1_555
C3_2 S1_2 1_555 1_555
C4_2 C3_2 1_555 1_555
H3_2 C4_2 1_555 1_555
C6_3 H4_3 1_555 1_555
C7_2 C6_3 1_555 1_555
C8_2 C7_2 1_555 1_555
C9_3 C8_2 1_555 1_555
H5_3 C9_3 1_555 1_555
C10_2 C8_2 1_555 1_555
C11_2 N1_2 1_555 1_555
H6_2 C11_2 1_555 1_555
C16_2 C7_2 1_555 1_555
O7_2 C19_2 1_555 1_555
O8_2 C19_2 1_555 1_555
C17_2 C6_3 1_555 1_555
C18_2 C9_3 1_555 1_555
C19_2 C18_2 1_555 1_555
O14 C20_2 1_555 1_555
O10_2 C20_2 1_555 1_555
C20_2 C17_2 1_555 1_555
Ni4 O8_2 1_555 1_555
S3_2 S4_2 1_555 1_555
S4_2 C25_2 1_555 1_555
O11_2 Ni4 1_555 1_555
O12_2 Ni4 1_555 1_555
N3_2 Ni4 1_555 1_555
N4_2 C28_2 1_555 1_555
C21_2 N3_2 1_555 1_555
H11_2 C21_2 1_555 1_555
C22_2 C21_2 1_555 1_555
H12_2 C22_2 1_555 1_555
C23_2 S3_2 1_555 1_555
C24_2 C23_2 1_555 1_555
H13_2 C24_2 1_555 1_555
C25_2 C27_2 1_555 1_555
C26_2 N3_2 1_555 1_555
H14_2 C26_2 1_555 1_555
C27_2 H15_2 1_555 1_555
C28_2 H16_2 1_555 1_555
C29_2 N4_2 1_555 1_555
H17_2 C29_2 1_555 1_555
C30_2 C25_2 1_555 1_555
H18_2 C30_2 1_555 1_555
Ni6_2 N4_2 1_555 1_555
N5_2 Ni3 1_555 1_555
N6_2 Ni4 1_555 1_555
C2_2 C3_2 1_555 1_555
C4_2 C11_2 1_555 1_555
C17_2 C18_2 1_555 1_555
C22_2 C23_2 1_555 1_555
C24_2 C26_2 1_555 1_555
C27_2 C29_2 1_555 1_555
C28_2 C30_2 1_555 1_555
O5_2 H19_2 1_555 1_555
O5_2 H20_2 1_555 1_555
O6_2 H21_2 1_555 1_555
O6_2 H22_2 1_555 1_555
O11_2 H23_2 1_555 1_555
O11_2 H24_2 1_555 1_555
O12_2 H25_2 1_555 1_555
O12_2 H26_2 1_555 1_555
N2_2 C13_2 1_555 1_555
C13_2 H8_2 1_555 1_555
C14_2 N2_2 1_555 1_555
H9_2 C14_2 1_555 1_555
H10_2 C15_2 1_555 1_555
Ni5_2 N2_2 1_555 1_555
C12_2 C14_2 1_555 1_555
C13_2 C15_2 1_555 1_555
N5 C13_3 1_555 1_555
C13_3 H8_3 1_555 1_555
C14_3 N5 1_555 1_555
H9_3 C14_3 1_555 1_555
H10_3 C15_3 1_555 1_555
C12_3 C14_3 1_555 1_555
C13_3 C15_3 1_555 1_555
S1_3 S2_3 1_555 1_555
S2_3 C5_3 1_555 1_555
H2_3 C2_3 1_555 1_555
C3_3 S1_3 1_555 1_555
H13_3 C24_3 1_555 1_555
C26_3 N3_3 1_555 1_555
H14_3 C26_3 1_555 1_555
C2_3 C3_3 1_555 1_555
C24_3 C26_3 1_555 1_555
C6_4 H4_4 1_555 1_555
H5_4 C9_4 1_555 1_555
O7_3 C19_3 1_555 1_555
O8_3 C19_3 1_555 1_555
C17_3 C6_4 1_555 1_555
C18_3 C9_4 1_555 1_555
C19_3 C18_3 1_555 1_555
O9_2 C20_3 1_555 1_555
O10_3 C20_3 1_555 1_555
C20_3 C17_3 1_555 1_555
Ni6 O8_3 1_555 1_555
O11_3 Ni6 1_555 1_555
O12_3 Ni6 1_555 1_555
H11_3 C21_3 1_555 1_555
Ni5_2 O9_2 1_555 1_555
C17_3 C18_3 1_555 1_555
O11_3 H23_3 1_555 1_555
O11_3 H24_3 1_555 1_555
O12_3 H25_3 1_555 1_555
H3_3 C4_3 1_555 1_555
C11_3 N1_3 1_555 1_555
H6_3 C11_3 1_555 1_555
S3_3 S4_3 1_555 1_555
S4_3 C25_3 1_555 1_555
N6 C28_3 1_555 1_555
H12_3 C22_3 1_555 1_555
C23_3 S3_3 1_555 1_555
C25_3 C27_3 1_555 1_555
C27_3 H15_3 1_555 1_555
C28_3 H16_3 1_555 1_555
C29_3 N6 1_555 1_555
H17_3 C29_3 1_555 1_555
C30_3 C25_3 1_555 1_555
H18_3 C30_3 1_555 1_555
C4_3 C11_3 1_555 1_555
C22_3 C23_3 1_555 1_555
C27_3 C29_3 1_555 1_555
C28_3 C30_3 1_555 1_555
Ni5 O2_3 1_555 1_555
O1_3 C10_3 1_555 1_555
O2_3 C10_3 1_555 1_555
O3_2 C16_3 1_555 1_555
O4_3 C16_3 1_555 1_555
O5_3 Ni5 1_555 1_555
O6_3 Ni5 1_555 1_555
H1_3 C1_3 1_555 1_555
C6_5 H4_5 1_555 1_555
C7_3 C6_5 1_555 1_555
C8_3 C7_3 1_555 1_555
C9_5 C8_3 1_555 1_555
H5_5 C9_5 1_555 1_555
C10_3 C8_3 1_555 1_555
C16_3 C7_3 1_555 1_555
Ni6_2 O3_2 1_555 1_555
O5_3 H19_3 1_555 1_555
O5_3 H20_3 1_555 1_555
O6_3 H21_3 1_555 1_555
N5_2 C13_4 1_555 1_555
C13_4 H8_4 1_555 1_555
C14_4 N5_2 1_555 1_555
H9_4 C14_4 1_555 1_555
H10_4 C15_4 1_555 1_555
C12_4 C14_4 1_555 1_555
C13_4 C15_4 1_555 1_555
Ni5_2 O2_4 1_555 1_555
S1_4 S2_4 1_555 1_555
S2_4 C5_4 1_555 1_555
O1_4 C10_4 1_555 1_555
O2_4 C10_4 1_555 1_555
O13_2 C16_4 1_555 1_555
O4_4 C16_4 1_555 1_555
O5_4 Ni5_2 1_555 1_555
O6_4 Ni5_2 1_555 1_555
N1_4 Ni5_2 1_555 1_555
C1_4 N1_4 1_555 1_555
H1_4 C1_4 1_555 1_555
C2_4 C1_4 1_555 1_555
H2_4 C2_4 1_555 1_555
C3_4 S1_4 1_555 1_555
C4_4 C3_4 1_555 1_555
H3_4 C4_4 1_555 1_555
C6_6 H4_6 1_555 1_555
C7_4 C6_6 1_555 1_555
C8_4 C7_4 1_555 1_555
C9_6 C8_4 1_555 1_555
H5_6 C9_6 1_555 1_555
C10_4 C8_4 1_555 1_555
C11_4 N1_4 1_555 1_555
H6_4 C11_4 1_555 1_555
C16_4 C7_4 1_555 1_555
O7_4 C19_4 1_555 1_555
O8_4 C19_4 1_555 1_555
C17_4 C6_6 1_555 1_555
C18_4 C9_6 1_555 1_555
C19_4 C18_4 1_555 1_555
O14_2 C20_4 1_555 1_555
O10_4 C20_4 1_555 1_555
C20_4 C17_4 1_555 1_555
Ni6_2 O8_4 1_555 1_555
S3_4 S4_4 1_555 1_555
S4_4 C25_4 1_555 1_555
O11_4 Ni6_2 1_555 1_555
O12_4 Ni6_2 1_555 1_555
N3_4 Ni6_2 1_555 1_555
N6_2 C28_4 1_555 1_555
C21_4 N3_4 1_555 1_555
H11_4 C21_4 1_555 1_555
C22_4 C21_4 1_555 1_555
H12_4 C22_4 1_555 1_555
C23_4 S3_4 1_555 1_555
C24_4 C23_4 1_555 1_555
H13_4 C24_4 1_555 1_555
C25_4 C27_4 1_555 1_555
C26_4 N3_4 1_555 1_555
H14_4 C26_4 1_555 1_555
C27_4 H15_4 1_555 1_555
C28_4 H16_4 1_555 1_555
C29_4 N6_2 1_555 1_555
H17_4 C29_4 1_555 1_555
C30_4 C25_4 1_555 1_555
H18_4 C30_4 1_555 1_555
C2_4 C3_4 1_555 1_555
C4_4 C11_4 1_555 1_555
C17_4 C18_4 1_555 1_555
C22_4 C23_4 1_555 1_555
C24_4 C26_4 1_555 1_555
C27_4 C29_4 1_555 1_555
C28_4 C30_4 1_555 1_555
O5_4 H19_4 1_555 1_555
O5_4 H20_4 1_555 1_555
O6_4 H21_4 1_555 1_555
O6_4 H22_4 1_555 1_555
O11_4 H23_4 1_555 1_555
O11_4 H24_4 1_555 1_555
O12_4 H25_4 1_555 1_555
O12_4 H26_4 1_555 1_555

#END
