
###############################################################################
#
# This file contains modified crystal structure data generated from the
# MOF subset of the Cambridge Structural Database (CSD) v543 
# hosted by the Cambridge Crystallographic Data Centre (CCDC).
#
# This work is licensed under the Creative Commons
# Attribution-NonCommercial-ShareAlike 4.0 International License.
# To view a copy of this license, visit
# http://creativecommons.org/licenses/by-nc-sa/4.0/
# or send a letter to
# Creative Commons, PO Box 1866, Mountain View, CA 94042, USA.
#
# CIF created using the CSD Python API on 29 September 2022
# The structure has been converted into the P1 space group
# The structure has a 3D framework
# The original CSD entry LOCZOU is in the monoclinic crystal system
# The framework has been calculated to contain at least 10.0% void space
# The void calculation uses a probe of radius 1.32A, grid spacing 0.4
#
###############################################################################

data_LOCZOU
_chemical_formula_moiety         '(C148 H108 N20 Ni16 O56)n'
_symmetry_cell_setting           triclinic
_symmetry_space_group_name_H-M   'P 1'
_symmetry_Int_Tables_number      1
_space_group_name_Hall           'P 1'
loop_
_symmetry_equiv_pos_site_id
_symmetry_equiv_pos_as_xyz
1 x,y,z
_cell_length_a                   13.1181(8)
_cell_length_b                   18.3396(11)
_cell_length_c                   21.5614(13)
_cell_angle_alpha                90
_cell_angle_beta                 101.5580(10)
_cell_angle_gamma                90
_cell_volume                     5082.07
loop_
_atom_site_label
_atom_site_type_symbol
_atom_site_fract_x
_atom_site_fract_y
_atom_site_fract_z
C19 C 0.0515(5) 0.7180(3) 0.3427(3)
C20 C 0.1064(5) 0.7304(4) 0.4102(3)
C21 C 0.1836(7) 0.7823(5) 0.4234(3)
H14 H 0.2008 0.8104 0.3911
C22 C 0.2346(7) 0.7919(5) 0.4850(4)
H15 H 0.2896 0.8249 0.4931
C23 C 0.1397(8) 0.7047(5) 0.5197(3)
H16 H 0.1228 0.677 0.5523
C24 C 0.0902(9) 0.6891(5) 0.4585(4)
H17 H 0.0451 0.6496 0.4507
C25 C 0.1793(6) 0.5343(4) 0.2267(3)
C26 C 0.2608(5) 0.4765(4) 0.2501(3)
C27 C 0.2470(6) 0.4218(4) 0.2910(4)
H18 H 0.1878 0.421 0.3086
C28 C 0.3222(6) 0.3677(4) 0.3062(4)
H19 H 0.3112 0.3309 0.3339
C29 C 0.4204(6) 0.4193(5) 0.2438(5)
H20 H 0.4809 0.4195 0.2275
C30 C 0.3492(6) 0.4742(5) 0.2257(5)
H21 H 0.3612 0.5096 0.1971
H25 H 0.0061 0.4601 0.0954
N3 N 0.2091(4) 0.7562(3) 0.5342(2)
N4 N 0.4077(4) 0.3657(3) 0.2835(3)
O2 O 0.0849(3) 0.6962(2) 0.20292(18)
H27 H 0.1504 0.7017 0.2337
O7 O 0.0355(4) 0.7747(2) 0.30884(19)
O8 O 0.0282(4) 0.6546(2) 0.32660(19)
O9 O 0.1115(4) 0.5453(2) 0.2576(2)
O10 O 0.1880(4) 0.5640(3) 0.1755(2)
O14 O 0.0387(4) 0.7255(3) 0.0635(2)
Ni4 Ni 0.11117(6) 0.64789(5) 0.12434(4)
N8 N 0.0923(4) 0.8657(3) 0.2165(3)
N9 N 0.1239(5) 0.5892(3) 0.0417(3)
O15 O 0.2553(4) 0.6904(3) 0.1260(2)
Ni5 Ni 0.28378(6) 0.77991(4) 0.62771(3)
Ni6 Ni 0.51316(6) 0.27927(4) 0.28767(3)
C10 C 0.7039(5) 0.0331(4) 0.2689(3)
H7 H 0.7325 0.066 0.3003
H8 H 0.4992 0.0013 0.1721
N1 N 0.6060(4) 0.0422(3) 0.2399(2)
Ni7 Ni 0.50701(6) 0.12006(4) 0.26565(3)
C1 C 0.9432(6) 0.8251(4) 0.0163(3)
C6 C 0.8860(9) 0.8868(5) 0.0249(4)
H5 H 0.8705 0.8966 0.0643
C7 C 0.7857(5) 0.8622(3) 0.1946(3)
C8 C 0.7240(5) 0.9268(3) 0.2086(3)
C9 C 0.7654(6) 0.9775(4) 0.2549(3)
H6 H 0.8343 0.9736 0.2762
C11 C 0.5673(6) 0.9949(4) 0.1941(3)
C12 C 0.6235(6) 0.9371(4) 0.1779(4)
H9 H 0.5931 0.9052 0.146
C13 C 0.3226(6) 0.6960(4) 0.1766(4)
C14 C 0.4353(6) 0.6893(5) 0.1686(4)
C15 C 0.4596(6) 0.6620(5) 0.1150(4)
H10 H 0.4075 0.6451 0.0824
C16 C 0.5623(7) 0.6594(5) 0.1092(4)
H11 H 0.5771 0.6379 0.073
C17 C 0.6167(6) 0.7124(5) 0.2040(4)
H12 H 0.6698 0.7313 0.235
C18 C 0.5147(6) 0.7143(5) 0.2153(4)
H13 H 0.5013 0.7319 0.2533
C31 C 0.8841(5) 0.5775(3) 0.1004(3)
C32 C 0.8774(5) 0.5145(4) 0.0535(3)
C33 C 0.7970(5) 0.5104(4) 0.0016(3)
C35 C 0.9491(6) 0.4103(4) 0.0123(3)
H24 H 0.9992 0.3737 0.0178
C36 C 0.9529(6) 0.4615(4) 0.0597(3)
C37 C 0.9724(5) 0.7718(3) 0.0688(3)
N2 N 0.6420(4) 0.6853(3) 0.1518(3)
O1 O 0.8778(3) 0.6972(2) 0.21182(17)
H26 H 0.8408 0.7036 0.2467
O3 O 0.7384(3) 0.8195(2) 0.1532(2)
O4 O 0.8769(3) 0.8556(2) 0.2248(2)
O5 O 0.3066(4) 0.7052(4) 0.2308(3)
O11 O 0.8064(3) 0.6176(2) 0.09426(19)
O12 O 0.9685(3) 0.5845(2) 0.13886(19)
O13 O 0.9244(3) 0.7764(2) 0.11468(19)
Ni1 Ni 0.78378(6) 0.72009(4) 0.12771(3)
Ni2 Ni 0.98684(6) 0.77927(4) 0.21233(3)
Ni3 Ni 0.99299(6) 0.62006(4) 0.23435(3)
N6 N 0.8940(4) 0.5422(3) 0.2601(2)
N7 N 0.7091(4) 0.7438(3) 0.0342(2)
C2 C 0.9664(10) 0.8105(5) 0.9574(4)
C3 C 0.9324(12) 0.8576(7) 0.9070(3)
H2 H 0.9479 0.8478 0.8676
C4 C 0.8752(12) 0.9193(7) 0.9156(5)
H3 H 0.8525 0.9508 0.8818
C5 C 0.8520(12) 0.9339(6) 0.9745(6)
H4 H 0.8138 0.9752 0.9802
H22 H 0.7409 0.5421 0.9983
C34 C 0.7987(6) 0.4600(4) 0.9546(3)
H23 H 0.7448 0.4598 0.9193
N5 N 0.8761(5) 0.4108(3) 0.9583(3)
Ni9 Ni 0.88883(6) 0.35211(5) 0.87566(4)
H8_2 H 0.0008 0.5013 0.3279
C13_2 C 0.1774(6) 0.1960(4) 0.3234(4)
C14_2 C 0.0647(6) 0.1893(5) 0.3314(4)
C15_2 C 0.0404(6) 0.1620(5) 0.3850(4)
H10_2 H 0.0925 0.1451 0.4176
O5_2 O 0.1934(4) 0.2052(4) 0.2692(3)
O6 O 0.2447(4) 0.1904(3) 0.3740(2)
Ni8 Ni 0.38883(6) 0.14789(5) 0.37566(4)
C1_2 C 0.5568(6) 0.3251(4) 0.4837(3)
C2_2 C 0.5336(10) 0.3105(5) 0.5426(4)
H1 H 0.4954 0.2692 0.5483
C3_2 C 0.5676(12) 0.3576(7) 0.5930(3)
H2_2 H 0.5521 0.3478 0.6324
C4_2 C 0.6248(12) 0.4193(7) 0.5844(5)
H3_2 H 0.6475 0.4508 0.6182
C5_2 C 0.6480(12) 0.4339(6) 0.5255(6)
H4_2 H 0.6862 0.4752 0.5198
C6_2 C 0.6140(9) 0.3868(5) 0.4751(4)
H5_2 H 0.6295 0.3966 0.4357
C7_2 C 0.7143(5) 0.3622(3) 0.3054(3)
C8_2 C 0.7760(5) 0.4268(3) 0.2914(3)
C9_2 C 0.7346(6) 0.4775(4) 0.2451(3)
H6_2 H 0.6657 0.4736 0.2238
C10_2 C 0.7961(5) 0.5331(4) 0.2311(3)
H7_2 H 0.7675 0.566 0.1997
C11_2 C 0.9327(6) 0.4949(4) 0.3059(3)
C12_2 C 0.8765(6) 0.4371(4) 0.3221(4)
H9_2 H 0.9069 0.4052 0.354
C16_2 C 0.9377(7) 0.1594(5) 0.3908(4)
H11_2 H 0.9229 0.1379 0.427
C17_2 C 0.8833(6) 0.2124(5) 0.2960(4)
H12_2 H 0.8302 0.2313 0.265
C18_2 C 0.9853(6) 0.2143(5) 0.2847(4)
H13_2 H 0.9987 0.2319 0.2467
C19_2 C 0.4485(5) 0.2180(3) 0.1573(3)
C20_2 C 0.3936(5) 0.2304(4) 0.0898(3)
C21_2 C 0.3164(7) 0.2823(5) 0.0766(3)
H14_2 H 0.2992 0.3104 0.1089
C22_2 C 0.2654(7) 0.2919(5) 0.0150(4)
H15_2 H 0.2104 0.3249 0.0069
C24_2 C 0.4098(9) 0.1891(5) 0.0415(4)
H17_2 H 0.4549 0.1496 0.0493
C25_2 C 0.3207(6) 0.0343(4) 0.2733(3)
H21_2 H 0.1388 0.0096 0.3029
C31_2 C 0.6159(5) 0.0775(3) 0.3996(3)
C32_2 C 0.6226(5) 0.0145(4) 0.4465(3)
C33_2 C 0.7030(5) 0.0104(4) 0.4984(3)
H22_2 H 0.7591 0.0421 0.5017
C37_2 C 0.5276(5) 0.2718(3) 0.4312(3)
N2_2 N 0.8580(4) 0.1853(3) 0.3482(3)
O1_2 O 0.6222(3) 0.1972(2) 0.28818(17)
H26_2 H 0.6592 0.2036 0.2533
O2_2 O 0.4151(3) 0.1962(2) 0.29708(18)
H27_2 H 0.3496 0.2017 0.2663
O3_2 O 0.7616(3) 0.3195(2) 0.3468(2)
O4_2 O 0.6231(3) 0.3556(2) 0.2752(2)
O7_2 O 0.4645(4) 0.2747(2) 0.19116(19)
O8_2 O 0.4718(4) 0.1546(2) 0.17340(19)
O9_2 O 0.3885(4) 0.0453(2) 0.2424(2)
O10_2 O 0.3120(4) 0.0640(3) 0.3245(2)
O11_2 O 0.6936(3) 0.1176(2) 0.40574(19)
O12_2 O 0.5315(3) 0.0845(2) 0.36114(19)
O13_2 O 0.5756(3) 0.2764(2) 0.38532(19)
O14_2 O 0.4613(4) 0.2255(3) 0.4365(2)
Ni1_2 Ni 0.71622(6) 0.22009(4) 0.37229(3)
N7_2 N 0.7909(4) 0.2438(3) 0.4658(2)
N9_2 N 0.3761(5) 0.0892(3) 0.4583(3)
C23_2 C 0.3603(8) 0.2047(5) 0.9803(3)
H16_2 H 0.3772 0.177 0.9477
N3_2 N 0.2909(4) 0.2562(3) 0.9658(2)
Ni5_2 Ni 0.21622(6) 0.27991(4) 0.87229(3)
C26_2 C 0.2392(5) 0.9765(4) 0.2499(3)
C27_2 C 0.2530(6) 0.9218(4) 0.2090(4)
H18_2 H 0.3122 0.921 0.1914
C28_2 C 0.1778(6) 0.8677(4) 0.1938(4)
H19_2 H 0.1888 0.8309 0.1661
C29_2 C 0.0796(6) 0.9193(5) 0.2562(5)
H20_2 H 0.0191 0.9195 0.2725
C30_2 C 0.1508(6) 0.9742(5) 0.2743(5)
C34_2 C 0.7013(6) 0.9600(4) 0.5454(3)
H23_2 H 0.7552 0.9598 0.5807
C35_2 C 0.5509(6) 0.9103(4) 0.4877(3)
H24_2 H 0.5008 0.8737 0.4822
C36_2 C 0.5471(6) 0.9615(4) 0.4403(3)
H25_2 H 0.4939 0.9601 0.4046
N5_2 N 0.6239(5) 0.9108(3) 0.5417(3)
Ni9_2 Ni 0.61117(6) 0.85211(5) 0.62434(4)
C2_3 C 0.0336(10) 0.1895(5) 0.0426(4)
C3_3 C 0.0676(12) 0.1424(7) 0.0930(3)
H2_3 H 0.0521 0.1522 0.1324
C4_3 C 0.1248(12) 0.0807(7) 0.0844(5)
H3_3 H 0.1475 0.0492 0.1182
C5_3 C 0.1480(12) 0.0661(6) 0.0255(6)
H4_3 H 0.1862 0.0248 0.0198
H22_3 H 0.2591 0.4579 0.0017
C34_3 C 0.2013(6) 0.5400(4) 0.0454(3)
H23_3 H 0.2552 0.5402 0.0807
C1_3 C 0.0568(6) 0.1749(4) 0.9837(3)
C6_3 C 0.1140(9) 0.1132(5) 0.9751(4)
H5_3 H 0.1295 0.1034 0.9357
C7_3 C 0.2143(5) 0.1378(3) 0.8054(3)
C8_3 C 0.2760(5) 0.0732(3) 0.7914(3)
C9_3 C 0.2346(6) 0.0225(4) 0.7451(3)
H6_3 H 0.1657 0.0264 0.7238
C11_3 C 0.4327(6) 0.0051(4) 0.8059(3)
C12_3 C 0.3765(6) 0.0629(4) 0.8221(4)
H9_3 H 0.4069 0.0948 0.854
C13_3 C 0.6774(6) 0.3040(4) 0.8234(4)
C14_3 C 0.5647(6) 0.3107(5) 0.8314(4)
C15_3 C 0.5404(6) 0.3380(5) 0.8850(4)
H10_3 H 0.5925 0.3549 0.9176
C16_3 C 0.4377(7) 0.3406(5) 0.8908(4)
H11_3 H 0.4229 0.3621 0.927
C17_3 C 0.3833(6) 0.2876(5) 0.7960(4)
H12_3 H 0.3302 0.2687 0.765
C18_3 C 0.4853(6) 0.2857(5) 0.7847(4)
H13_3 H 0.4987 0.2681 0.7467
C31_3 C 0.1159(5) 0.4225(3) 0.8996(3)
C32_3 C 0.1226(5) 0.4855(4) 0.9465(3)
C33_3 C 0.2030(5) 0.4896(4) 0.9984(3)
C35_3 C 0.0509(6) 0.5897(4) 0.9877(3)
H24_3 H 0.0008 0.6263 0.9822
C36_3 C 0.0471(6) 0.5385(4) 0.9403(3)
C37_3 C 0.0276(5) 0.2282(3) 0.9312(3)
N2_3 N 0.3580(4) 0.3147(3) 0.8482(3)
O1_3 O 0.1222(3) 0.3028(2) 0.78818(17)
H26_3 H 0.1592 0.2964 0.7533
O3_3 O 0.2616(3) 0.1805(2) 0.8468(2)
O4_3 O 0.1231(3) 0.1444(2) 0.7752(2)
O5_3 O 0.6934(4) 0.2948(4) 0.7692(3)
O6_2 O 0.7447(4) 0.3096(3) 0.8740(2)
O11_3 O 0.1936(3) 0.3824(2) 0.90574(19)
O12_3 O 0.0315(3) 0.4155(2) 0.86114(19)
O13_3 O 0.0756(3) 0.2236(2) 0.88532(19)
Ni2_2 Ni 0.01316(6) 0.22073(4) 0.78767(3)
Ni3_2 Ni 0.00701(6) 0.37994(4) 0.76565(3)
N6_2 N 0.1060(4) 0.4578(3) 0.7399(2)
C10_3 C 0.2961(5) 0.9669(4) 0.7311(3)
H7_3 H 0.2675 0.934 0.6997
H8_3 H 0.5008 0.9987 0.8279
N1_2 N 0.3940(4) 0.9578(3) 0.7601(2)
Ni7_2 Ni 0.49299(6) 0.87994(4) 0.73435(3)
C19_3 C 0.9485(5) 0.2820(3) 0.6573(3)
C20_3 C 0.8936(5) 0.2696(4) 0.5898(3)
C21_3 C 0.8164(7) 0.2177(5) 0.5766(3)
H14_3 H 0.7992 0.1896 0.6089
C22_3 C 0.7654(7) 0.2081(5) 0.5150(4)
H15_3 H 0.7104 0.1751 0.5069
C23_3 C 0.8603(8) 0.2953(5) 0.4803(3)
H16_3 H 0.8772 0.323 0.4477
C24_3 C 0.9098(9) 0.3109(5) 0.5415(4)
H17_3 H 0.9549 0.3504 0.5493
C25_3 C 0.8207(6) 0.4657(4) 0.7733(3)
C26_3 C 0.7392(5) 0.5235(4) 0.7499(3)
C27_3 C 0.7530(6) 0.5782(4) 0.7090(4)
H18_3 H 0.8122 0.579 0.6914
C28_3 C 0.6778(6) 0.6323(4) 0.6938(4)
H19_3 H 0.6888 0.6691 0.6661
C29_3 C 0.5796(6) 0.5807(5) 0.7562(5)
H20_3 H 0.5191 0.5805 0.7725
C30_3 C 0.6508(6) 0.5258(5) 0.7743(5)
H21_3 H 0.6388 0.4904 0.8029
H25_3 H 0.9939 0.5399 0.9046
N4_2 N 0.5923(4) 0.6343(3) 0.7165(3)
O2_3 O 0.9151(3) 0.3038(2) 0.79708(18)
H27_3 H 0.8496 0.2983 0.7663
O7_3 O 0.9645(4) 0.2253(2) 0.69116(19)
O8_3 O 0.9718(4) 0.3454(2) 0.67340(19)
O9_3 O 0.8885(4) 0.4547(2) 0.7424(2)
O10_3 O 0.8120(4) 0.4360(3) 0.8245(2)
O14_3 O 0.9613(4) 0.2745(3) 0.9365(2)
N8_2 N 0.9077(4) 0.1343(3) 0.7835(3)
Ni6_2 Ni 0.48684(6) 0.72073(4) 0.71233(3)
C26_4 C 0.7608(5) 0.0235(4) 0.7501(3)
C27_4 C 0.7470(6) 0.0782(4) 0.7910(4)
H18_4 H 0.6878 0.079 0.8086
C28_4 C 0.8222(6) 0.1323(4) 0.8062(4)
H19_4 H 0.8112 0.1691 0.8339
C29_4 C 0.9204(6) 0.0807(5) 0.7438(5)
H20_4 H 0.9809 0.0805 0.7275
C30_4 C 0.8492(6) 0.0258(5) 0.7257(5)
C34_4 C 0.2987(6) 0.0400(4) 0.4546(3)
H23_4 H 0.2448 0.0402 0.4193
C35_4 C 0.4491(6) 0.0897(4) 0.5123(3)
H24_4 H 0.4992 0.1263 0.5178
C36_4 C 0.4529(6) 0.0385(4) 0.5597(3)
H25_4 H 0.5061 0.0399 0.5954
C23_4 C 0.6397(8) 0.7953(5) 0.0197(3)
H16_4 H 0.6228 0.823 0.0523
C1_4 C 0.4432(6) 0.6749(4) 0.5163(3)
C2_4 C 0.4664(10) 0.6895(5) 0.4574(4)
H1_2 H 0.5046 0.7308 0.4517
C3_4 C 0.4324(12) 0.6424(7) 0.4070(3)
H2_4 H 0.4479 0.6522 0.3676
C4_4 C 0.3752(12) 0.5807(7) 0.4156(5)
H3_4 H 0.3525 0.5492 0.3818
C5_4 C 0.3520(12) 0.5661(6) 0.4745(6)
H4_4 H 0.3138 0.5248 0.4802
C6_4 C 0.3860(9) 0.6132(5) 0.5249(4)
H5_4 H 0.3705 0.6034 0.5643
C7_4 C 0.2857(5) 0.6378(3) 0.6946(3)
C8_4 C 0.2240(5) 0.5732(3) 0.7086(3)
C9_4 C 0.2654(6) 0.5225(4) 0.7549(3)
H6_4 H 0.3343 0.5264 0.7762
C10_4 C 0.2039(5) 0.4669(4) 0.7689(3)
H7_4 H 0.2325 0.434 0.8003
C11_4 C 0.0673(6) 0.5051(4) 0.6941(3)
C12_4 C 0.1235(6) 0.5629(4) 0.6779(4)
H9_4 H 0.0931 0.5948 0.646
C16_4 C 0.0623(7) 0.8406(5) 0.6092(4)
H11_4 H 0.0771 0.8621 0.573
C17_4 C 0.1167(6) 0.7876(5) 0.7040(4)
H12_4 H 0.1698 0.7687 0.735
C18_4 C 0.0147(6) 0.7857(5) 0.7153(4)
H13_4 H 0.0013 0.7681 0.7533
C19_4 C 0.5515(5) 0.7820(3) 0.8427(3)
C20_4 C 0.6064(5) 0.7696(4) 0.9102(3)
C21_4 C 0.6836(7) 0.7177(5) 0.9234(3)
H14_4 H 0.7008 0.6896 0.8911
C22_4 C 0.7346(7) 0.7081(5) 0.9850(4)
H15_4 H 0.7896 0.6751 0.9931
C24_4 C 0.5902(9) 0.8109(5) 0.9585(4)
H17_4 H 0.5451 0.8504 0.9507
C25_4 C 0.6793(6) 0.9657(4) 0.7267(3)
H21_4 H 0.8612 0.9904 0.6971
C31_4 C 0.3841(5) 0.9225(3) 0.6004(3)
C32_4 C 0.3774(5) 0.9855(4) 0.5535(3)
C33_4 C 0.2970(5) 0.9896(4) 0.5016(3)
H22_4 H 0.2409 0.9579 0.4983
C37_4 C 0.4724(5) 0.7282(3) 0.5688(3)
N2_4 N 0.1420(4) 0.8147(3) 0.6518(3)
O1_4 O 0.3778(3) 0.8028(2) 0.71182(17)
H26_4 H 0.3408 0.7964 0.7467
O2_4 O 0.5849(3) 0.8038(2) 0.70292(18)
H27_4 H 0.6504 0.7983 0.7337
O3_4 O 0.2384(3) 0.6805(2) 0.6532(2)
O4_4 O 0.3769(3) 0.6444(2) 0.7248(2)
O7_4 O 0.5355(4) 0.7253(2) 0.80884(19)
O8_4 O 0.5282(4) 0.8454(2) 0.82660(19)
O9_4 O 0.6115(4) 0.9547(2) 0.7576(2)
O10_4 O 0.6880(4) 0.9360(3) 0.6755(2)
O11_4 O 0.3064(3) 0.8824(2) 0.59426(19)
O12_4 O 0.4685(3) 0.9155(2) 0.63886(19)
O13_4 O 0.4244(3) 0.7236(2) 0.61468(19)
O14_4 O 0.5387(4) 0.7745(3) 0.5635(2)
O15_2 O 0.7553(4) 0.8096(3) 0.6260(2)
H8_4 H 0.9992 0.4987 0.6721
C13_4 C 0.8226(6) 0.8040(4) 0.6766(4)
C14_4 C 0.9353(6) 0.8107(5) 0.6686(4)
C15_4 C 0.9596(6) 0.8380(5) 0.6150(4)
H10_4 H 0.9075 0.8549 0.5824
O5_4 O 0.8066(4) 0.7948(4) 0.7308(3)
H1_3 H 0.0046 0.7692 0.9517
H1_4 H 0.9954 0.2308 0.0483
loop_
_geom_bond_atom_site_label_1
_geom_bond_atom_site_label_2
_geom_bond_site_symmetry_1
_geom_bond_site_symmetry_2
C19 C20 1_555 1_555
C20 C21 1_555 1_555
C21 H14 1_555 1_555
C22 C21 1_555 1_555
H15 C22 1_555 1_555
C23 H16 1_555 1_555
C24 C20 1_555 1_555
H17 C24 1_555 1_555
C25 C26 1_555 1_555
C26 C27 1_555 1_555
C27 H18 1_555 1_555
C28 C27 1_555 1_555
H19 C28 1_555 1_555
C29 H20 1_555 1_555
C30 C26 1_555 1_555
H21 C30 1_555 1_555
N3 C22 1_555 1_555
N4 C28 1_555 1_555
O2 H27 1_555 1_555
O7 C19 1_555 1_555
O8 C19 1_555 1_555
O9 C25 1_555 1_555
O10 C25 1_555 1_555
Ni4 O2 1_555 1_555
N9 Ni4 1_555 1_555
O15 Ni4 1_555 1_555
Ni5 N3 1_555 1_555
Ni6 N4 1_555 1_555
C23 C24 1_555 1_555
C23 N3 1_555 1_555
C29 C30 1_555 1_555
C29 N4 1_555 1_555
O10 Ni4 1_555 1_555
O14 Ni4 1_555 1_555
H7 C10 1_555 1_555
N1 C10 1_555 1_555
Ni7 N1 1_555 1_555
C6 C1 1_555 1_555
H5 C6 1_555 1_555
C7 C8 1_555 1_555
C8 C9 1_555 1_555
C9 H6 1_555 1_555
C12 C8 1_555 1_555
H9 C12 1_555 1_555
C13 C14 1_555 1_555
C14 C15 1_555 1_555
C15 H10 1_555 1_555
C16 C15 1_555 1_555
H11 C16 1_555 1_555
C17 H12 1_555 1_555
C18 C14 1_555 1_555
H13 C18 1_555 1_555
C31 C32 1_555 1_555
C32 C33 1_555 1_555
C35 H24 1_555 1_555
C36 C32 1_555 1_555
C37 C1 1_555 1_555
N2 C16 1_555 1_555
O1 H26 1_555 1_555
O3 C7 1_555 1_555
O4 C7 1_555 1_555
O5 C13 1_555 1_555
O15 C13 1_555 1_555
O11 C31 1_555 1_555
O12 C31 1_555 1_555
O13 C37 1_555 1_555
Ni1 N2 1_555 1_555
Ni2 O1 1_555 1_555
Ni3 O1 1_555 1_555
N6 Ni3 1_555 1_555
N7 Ni1 1_555 1_555
C11 C12 1_555 1_555
C17 C18 1_555 1_555
C17 N2 1_555 1_555
C35 C36 1_555 1_555
O1 Ni1 1_555 1_555
O3 Ni1 1_555 1_555
O4 Ni2 1_555 1_555
O11 Ni1 1_555 1_555
O12 Ni3 1_555 1_555
O13 Ni1 1_555 1_555
O13 Ni2 1_555 1_555
C3 C2 1_555 1_555
H2 C3 1_555 1_555
C4 C3 1_555 1_555
H3 C4 1_555 1_555
C5 C4 1_555 1_555
H4 C5 1_555 1_555
H23 C34 1_555 1_555
N5 C34 1_555 1_555
Ni9 N5 1_555 1_555
C13_2 C14_2 1_555 1_555
C14_2 C15_2 1_555 1_555
C15_2 H10_2 1_555 1_555
O5_2 C13_2 1_555 1_555
O6 C13_2 1_555 1_555
Ni8 O6 1_555 1_555
C1_2 C2_2 1_555 1_555
C2_2 H1 1_555 1_555
C3_2 C2_2 1_555 1_555
H2_2 C3_2 1_555 1_555
C4_2 C3_2 1_555 1_555
H3_2 C4_2 1_555 1_555
C5_2 C4_2 1_555 1_555
H4_2 C5_2 1_555 1_555
C6_2 C1_2 1_555 1_555
H5_2 C6_2 1_555 1_555
C7_2 C8_2 1_555 1_555
C8_2 C9_2 1_555 1_555
C9_2 H6_2 1_555 1_555
C10_2 C9_2 1_555 1_555
H7_2 C10_2 1_555 1_555
C12_2 C8_2 1_555 1_555
H9_2 C12_2 1_555 1_555
H11_2 C16_2 1_555 1_555
C17_2 H12_2 1_555 1_555
H13_2 C18_2 1_555 1_555
C19_2 C20_2 1_555 1_555
C20_2 C21_2 1_555 1_555
C21_2 H14_2 1_555 1_555
C22_2 C21_2 1_555 1_555
H15_2 C22_2 1_555 1_555
C24_2 C20_2 1_555 1_555
H17_2 C24_2 1_555 1_555
C31_2 C32_2 1_555 1_555
C32_2 C33_2 1_555 1_555
C33_2 H22_2 1_555 1_555
C37_2 C1_2 1_555 1_555
N6 C10_2 1_555 1_555
N2_2 C16_2 1_555 1_555
O1_2 H26_2 1_555 1_555
O2_2 H27_2 1_555 1_555
O3_2 C7_2 1_555 1_555
O4_2 C7_2 1_555 1_555
O7_2 C19_2 1_555 1_555
O8_2 C19_2 1_555 1_555
O9_2 C25_2 1_555 1_555
O10_2 C25_2 1_555 1_555
O11_2 C31_2 1_555 1_555
O12_2 C31_2 1_555 1_555
O13_2 C37_2 1_555 1_555
O14_2 C37_2 1_555 1_555
Ni1_2 N2_2 1_555 1_555
Ni6 O1_2 1_555 1_555
Ni7 O1_2 1_555 1_555
Ni8 O2_2 1_555 1_555
N7_2 Ni1_2 1_555 1_555
N9_2 Ni8 1_555 1_555
C5_2 C6_2 1_555 1_555
C11_2 C12_2 1_555 1_555
C11_2 N6 1_555 1_555
C17_2 C18_2 1_555 1_555
C17_2 N2_2 1_555 1_555
O1_2 Ni1_2 1_555 1_555
O2_2 Ni6 1_555 1_555
O2_2 Ni7 1_555 1_555
O3_2 Ni1_2 1_555 1_555
O4_2 Ni6 1_555 1_555
O7_2 Ni6 1_555 1_555
O8_2 Ni7 1_555 1_555
O9_2 Ni7 1_555 1_555
O10_2 Ni8 1_555 1_555
O11_2 Ni1_2 1_555 1_555
O12_2 Ni7 1_555 1_555
O12_2 Ni8 1_555 1_555
O13_2 Ni1_2 1_555 1_555
O13_2 Ni6 1_555 1_555
O14_2 Ni8 1_555 1_555
C23_2 H16_2 1_555 1_555
Ni5_2 N3_2 1_555 1_555
C23_2 N3_2 1_555 1_555
C26_2 C27_2 1_555 1_555
C27_2 H18_2 1_555 1_555
C28_2 C27_2 1_555 1_555
H19_2 C28_2 1_555 1_555
C29_2 H20_2 1_555 1_555
C30_2 C26_2 1_555 1_555
H23_2 C34_2 1_555 1_555
C35_2 H24_2 1_555 1_555
H25_2 C36_2 1_555 1_555
N8 C28_2 1_555 1_555
N5_2 C34_2 1_555 1_555
Ni9_2 N5_2 1_555 1_555
C29_2 C30_2 1_555 1_555
C29_2 N8 1_555 1_555
C35_2 C36_2 1_555 1_555
C35_2 N5_2 1_555 1_555
C3_3 C2_3 1_555 1_555
H2_3 C3_3 1_555 1_555
C4_3 C3_3 1_555 1_555
H3_3 C4_3 1_555 1_555
C5_3 C4_3 1_555 1_555
H4_3 C5_3 1_555 1_555
H23_3 C34_3 1_555 1_555
N9 C34_3 1_555 1_555
C6_3 C1_3 1_555 1_555
H5_3 C6_3 1_555 1_555
C7_3 C8_3 1_555 1_555
C8_3 C9_3 1_555 1_555
C9_3 H6_3 1_555 1_555
C12_3 C8_3 1_555 1_555
H9_3 C12_3 1_555 1_555
C13_3 C14_3 1_555 1_555
C14_3 C15_3 1_555 1_555
C15_3 H10_3 1_555 1_555
C16_3 C15_3 1_555 1_555
H11_3 C16_3 1_555 1_555
C17_3 H12_3 1_555 1_555
C18_3 C14_3 1_555 1_555
H13_3 C18_3 1_555 1_555
C31_3 C32_3 1_555 1_555
C32_3 C33_3 1_555 1_555
C35_3 H24_3 1_555 1_555
C36_3 C32_3 1_555 1_555
C37_3 C1_3 1_555 1_555
N2_3 C16_3 1_555 1_555
O1_3 H26_3 1_555 1_555
O3_3 C7_3 1_555 1_555
O4_3 C7_3 1_555 1_555
O5_3 C13_3 1_555 1_555
O6_2 C13_3 1_555 1_555
O11_3 C31_3 1_555 1_555
O12_3 C31_3 1_555 1_555
O13_3 C37_3 1_555 1_555
Ni5_2 N2_3 1_555 1_555
Ni2_2 O1_3 1_555 1_555
Ni3_2 O1_3 1_555 1_555
N6_2 Ni3_2 1_555 1_555
Ni9 O6_2 1_555 1_555
C11_3 C12_3 1_555 1_555
C17_3 C18_3 1_555 1_555
C17_3 N2_3 1_555 1_555
C35_3 C36_3 1_555 1_555
O1_3 Ni5_2 1_555 1_555
O3_3 Ni5_2 1_555 1_555
O4_3 Ni2_2 1_555 1_555
O11_3 Ni5_2 1_555 1_555
O12_3 Ni3_2 1_555 1_555
O13_3 Ni5_2 1_555 1_555
O13_3 Ni2_2 1_555 1_555
H7_3 C10_3 1_555 1_555
N1_2 C10_3 1_555 1_555
Ni7_2 N1_2 1_555 1_555
C19_3 C20_3 1_555 1_555
C20_3 C21_3 1_555 1_555
C21_3 H14_3 1_555 1_555
C22_3 C21_3 1_555 1_555
H15_3 C22_3 1_555 1_555
C23_3 H16_3 1_555 1_555
C24_3 C20_3 1_555 1_555
H17_3 C24_3 1_555 1_555
C25_3 C26_3 1_555 1_555
C26_3 C27_3 1_555 1_555
C27_3 H18_3 1_555 1_555
C28_3 C27_3 1_555 1_555
H19_3 C28_3 1_555 1_555
C29_3 H20_3 1_555 1_555
C30_3 C26_3 1_555 1_555
H21_3 C30_3 1_555 1_555
N7_2 C22_3 1_555 1_555
N4_2 C28_3 1_555 1_555
O2_3 H27_3 1_555 1_555
O7_3 C19_3 1_555 1_555
O8_3 C19_3 1_555 1_555
O9_3 C25_3 1_555 1_555
O10_3 C25_3 1_555 1_555
Ni9 O2_3 1_555 1_555
Ni6_2 N4_2 1_555 1_555
C23_3 C24_3 1_555 1_555
C23_3 N7_2 1_555 1_555
C29_3 C30_3 1_555 1_555
C29_3 N4_2 1_555 1_555
O10_3 Ni9 1_555 1_555
O14_3 Ni9 1_555 1_555
C26_4 C27_4 1_555 1_555
C27_4 H18_4 1_555 1_555
C28_4 C27_4 1_555 1_555
H19_4 C28_4 1_555 1_555
C29_4 H20_4 1_555 1_555
C30_4 C26_4 1_555 1_555
H23_4 C34_4 1_555 1_555
C35_4 H24_4 1_555 1_555
H25_4 C36_4 1_555 1_555
N8_2 C28_4 1_555 1_555
N9_2 C34_4 1_555 1_555
C29_4 C30_4 1_555 1_555
C29_4 N8_2 1_555 1_555
C35_4 C36_4 1_555 1_555
C35_4 N9_2 1_555 1_555
C23_4 H16_4 1_555 1_555
C23_4 N7 1_555 1_555
C1_4 C2_4 1_555 1_555
C2_4 H1_2 1_555 1_555
C3_4 C2_4 1_555 1_555
H2_4 C3_4 1_555 1_555
C4_4 C3_4 1_555 1_555
H3_4 C4_4 1_555 1_555
C5_4 C4_4 1_555 1_555
H4_4 C5_4 1_555 1_555
C6_4 C1_4 1_555 1_555
H5_4 C6_4 1_555 1_555
C7_4 C8_4 1_555 1_555
C8_4 C9_4 1_555 1_555
C9_4 H6_4 1_555 1_555
C10_4 C9_4 1_555 1_555
H7_4 C10_4 1_555 1_555
C12_4 C8_4 1_555 1_555
H9_4 C12_4 1_555 1_555
H11_4 C16_4 1_555 1_555
C17_4 H12_4 1_555 1_555
H13_4 C18_4 1_555 1_555
C19_4 C20_4 1_555 1_555
C20_4 C21_4 1_555 1_555
C21_4 H14_4 1_555 1_555
C22_4 C21_4 1_555 1_555
H15_4 C22_4 1_555 1_555
C24_4 C20_4 1_555 1_555
H17_4 C24_4 1_555 1_555
C31_4 C32_4 1_555 1_555
C32_4 C33_4 1_555 1_555
C33_4 H22_4 1_555 1_555
C37_4 C1_4 1_555 1_555
N6_2 C10_4 1_555 1_555
N2_4 C16_4 1_555 1_555
O1_4 H26_4 1_555 1_555
O2_4 H27_4 1_555 1_555
O3_4 C7_4 1_555 1_555
O4_4 C7_4 1_555 1_555
O7_4 C19_4 1_555 1_555
O8_4 C19_4 1_555 1_555
O9_4 C25_4 1_555 1_555
O10_4 C25_4 1_555 1_555
O11_4 C31_4 1_555 1_555
O12_4 C31_4 1_555 1_555
O13_4 C37_4 1_555 1_555
O14_4 C37_4 1_555 1_555
Ni5 N2_4 1_555 1_555
Ni6_2 O1_4 1_555 1_555
Ni7_2 O1_4 1_555 1_555
Ni9_2 O2_4 1_555 1_555
O15_2 Ni9_2 1_555 1_555
C5_4 C6_4 1_555 1_555
C11_4 C12_4 1_555 1_555
C11_4 N6_2 1_555 1_555
C17_4 C18_4 1_555 1_555
C17_4 N2_4 1_555 1_555
O1_4 Ni5 1_555 1_555
O2_4 Ni6_2 1_555 1_555
O2_4 Ni7_2 1_555 1_555
O3_4 Ni5 1_555 1_555
O4_4 Ni6_2 1_555 1_555
O7_4 Ni6_2 1_555 1_555
O8_4 Ni7_2 1_555 1_555
O9_4 Ni7_2 1_555 1_555
O10_4 Ni9_2 1_555 1_555
O11_4 Ni5 1_555 1_555
O12_4 Ni7_2 1_555 1_555
O12_4 Ni9_2 1_555 1_555
O13_4 Ni5 1_555 1_555
O13_4 Ni6_2 1_555 1_555
O14_4 Ni9_2 1_555 1_555
C13_4 C14_4 1_555 1_555
C14_4 C15_4 1_555 1_555
C15_4 H10_4 1_555 1_555
O5_4 C13_4 1_555 1_555
O15_2 C13_4 1_555 1_555

#END
