
###############################################################################
#
# This file contains modified crystal structure data generated from the
# MOF subset of the Cambridge Structural Database (CSD) v543 
# hosted by the Cambridge Crystallographic Data Centre (CCDC).
#
# This work is licensed under the Creative Commons
# Attribution-NonCommercial-ShareAlike 4.0 International License.
# To view a copy of this license, visit
# http://creativecommons.org/licenses/by-nc-sa/4.0/
# or send a letter to
# Creative Commons, PO Box 1866, Mountain View, CA 94042, USA.
#
# CIF created using the CSD Python API on 29 September 2022
# The structure has been converted into the P1 space group
# The structure has a 3D framework
# The original CSD entry LOCZUA is in the monoclinic crystal system
# The framework has been calculated to contain at least 10.0% void space
# The void calculation uses a probe of radius 1.32A, grid spacing 0.4
#
###############################################################################

data_LOCZUA
_chemical_formula_moiety         '(C152 H116 N20 Ni16 O60)n'
_symmetry_cell_setting           triclinic
_symmetry_space_group_name_H-M   'P 1'
_symmetry_Int_Tables_number      1
_space_group_name_Hall           'P 1'
loop_
_symmetry_equiv_pos_site_id
_symmetry_equiv_pos_as_xyz
1 x,y,z
_cell_length_a                   13.0294(11)
_cell_length_b                   18.5533(14)
_cell_length_c                   22.0018(17)
_cell_angle_alpha                90
_cell_angle_beta                 102.8369(16)
_cell_angle_gamma                90
_cell_volume                     5185.75
loop_
_atom_site_label
_atom_site_type_symbol
_atom_site_fract_x
_atom_site_fract_y
_atom_site_fract_z
H27 H 0.1011 0.007 0.8801
H28 H 0.0109 0.0259 0.8223
C12 C 0.0471(8) 0.7034(7) 0.3418(5)
C13 C 0.1046(9) 0.7175(6) 0.4080(5)
C14 C 0.1884(12) 0.7668(9) 0.4190(6)
H8 H 0.208 0.7903 0.3859
C15 C 0.2411(11) 0.7799(8) 0.4793(6)
H9 H 0.2968 0.8125 0.486
C16 C 0.1421(12) 0.6988(9) 0.5168(6)
H10 H 0.1259 0.6741 0.5503
C17 C 0.0875(11) 0.6814(8) 0.4585(6)
H11 H 0.038 0.6444 0.4531
C18 C 0.1695(8) 0.5193(7) 0.2253(6)
C19 C 0.2477(8) 0.4580(6) 0.2454(5)
C20 C 0.2428(9) 0.4092(7) 0.2930(6)
H12 H 0.1905 0.4132 0.3154
C21 C 0.3167(10) 0.3549(7) 0.3061(6)
H13 H 0.3113 0.3217 0.3369
C22 C 0.4001(10) 0.3960(7) 0.2316(6)
H14 H 0.4536 0.3917 0.21
C23 C 0.3299(10) 0.4507(7) 0.2163(6)
H15 H 0.3376 0.4835 0.1857
N2 N 0.2164(7) 0.7482(5) 0.5290(4)
N3 N 0.3959(7) 0.3475(5) 0.2769(4)
O4 O 0.0864(5) 0.6834(4) 0.2077(3)
H21 H 0.1505 0.6866 0.2408
O7 O 0.0303(6) 0.7595(4) 0.3093(3)
O8 O 0.0233(6) 0.6406(4) 0.3245(3)
O9 O 0.1027(6) 0.5313(4) 0.2564(4)
O10 O 0.1828(6) 0.5511(4) 0.1780(4)
O14 O 0.0592(7) 0.7187(4) 0.0748(4)
Ni4 Ni 0.11872(10) 0.63827(8) 0.13145(6)
N8 N 0.1041(7) 0.8475(5) 0.2231(4)
N9 N 0.1327(7) 0.5839(5) 0.0485(4)
N10 N 0.2747(7) 0.6766(5) 0.1461(5)
Ni5 Ni 0.29018(10) 0.77816(7) 0.62052(6)
Ni6 Ni 0.51153(9) 0.26794(7) 0.28625(6)
C4 C 0.7146(9) 0.0214(7) 0.2762(6)
H2 H 0.7434 0.0509 0.3098
H3 H 0.5123 0.0005 0.1734
N1 N 0.6178(7) 0.0334(5) 0.2453(4)
Ni7 Ni 0.51642(10) 0.11003(7) 0.26826(6)
C1 C 0.7951(8) 0.8588(6) 0.1945(6)
C2 C 0.7341(8) 0.9207(6) 0.2117(5)
C3 C 0.7763(8) 0.9656(7) 0.2600(5)
H1 H 0.8454 0.9591 0.2821
C5 C 0.5798(9) 0.9913(7) 0.1966(6)
C6 C 0.6342(10) 0.9357(7) 0.1789(6)
H4 H 0.6036 0.9078 0.1445
C7 C 0.3377(10) 0.6667(9) 0.2009(7)
H5 H 0.3071 0.6548 0.2339
C8 C 0.4930(10) 0.6905(7) 0.1671(6)
C9 C 0.4307(11) 0.7014(10) 0.1087(7)
H6 H 0.4606 0.7107 0.0749
C10 C 0.6131(9) 0.6931(8) 0.1763(7)
O1 O 0.6649(8) 0.7005(7) 0.2303(5)
C11 C 0.4473(11) 0.6728(10) 0.2135(7)
H7 H 0.4875 0.6646 0.2534
C24 C 0.8846(8) 0.5775(6) 0.0937(5)
C25 C 0.8752(8) 0.5168(6) 0.0471(5)
C28 C 0.9386(8) 0.4111(6) 0.0061(5)
H18 H 0.9851 0.3724 0.0118
C29 C 0.9467(9) 0.4608(6) 0.0544(5)
H19 H 0.9989 0.4563 0.0907
C30 C 0.9924(9) 0.7676(6) 0.0746(5)
O2 O 0.6476(6) 0.6852(5) 0.1292(4)
O3 O 0.8753(5) 0.6900(4) 0.2056(3)
H20 H 0.8341 0.6967 0.2374
O5 O 0.7469(6) 0.8187(4) 0.1497(4)
O6 O 0.8866(5) 0.8481(4) 0.2254(3)
O11 O 0.8141(6) 0.6240(4) 0.0835(4)
O12 O 0.9674(5) 0.5784(4) 0.1373(3)
O13 O 0.9374(5) 0.7738(4) 0.1154(3)
Ni1 Ni 0.79018(10) 0.72184(7) 0.12052(6)
Ni2 Ni 0.98847(9) 0.76794(7) 0.21375(6)
Ni3 Ni 0.98358(10) 0.61003(7) 0.23174(6)
C31 C 0.9824(9) 0.8231(7) 0.0257(6)
C32 C 0.9102(11) 0.8792(8) 0.0205(7)
H22 H 0.8663 0.8819 0.0485
C37 C 0.3217(10) 0.6981(8) 0.1014(7)
H26 H 0.2796 0.7117 0.0632
N6 N 0.8822(7) 0.5334(5) 0.2547(4)
N7 N 0.7164(7) 0.7518(5) 0.0290(4)
C26 C 0.7954(9) 0.5175(7) 0.9941(5)
H16 H 0.7424 0.5519 0.9898
C27 C 0.7935(9) 0.4675(7) 0.9476(6)
H17 H 0.7391 0.4695 0.9121
N4 N 0.8673(7) 0.4161(5) 0.9515(4)
C34 C 0.9683(17) 0.9277(11) 0.9347(10)
C36 C 0.9026(15) 0.9307(10) 0.9750(10)
H25 H 0.853 0.9674 0.9716
O15 O 0.9596(13) 0.9833(9) 0.8918(7)
Ni9 Ni 0.88128(10) 0.36173(8) 0.86855(6)
C7_2 C 0.1623(10) 0.1667(9) 0.2991(7)
H5_2 H 0.1929 0.1548 0.2661
C8_2 C 0.0070(10) 0.1905(7) 0.3329(6)
C9_2 C 0.0693(11) 0.2014(10) 0.3913(7)
H6_2 H 0.0394 0.2107 0.4251
C11_2 C 0.0527(11) 0.1728(10) 0.2865(7)
H7_2 H 0.0125 0.1646 0.2466
N5 N 0.2253(7) 0.1766(5) 0.3539(5)
C37_2 C 0.1783(10) 0.1981(8) 0.3986(7)
H26_2 H 0.2204 0.2117 0.4368
Ni8 Ni 0.38128(10) 0.13827(8) 0.36855(6)
C1_2 C 0.7049(8) 0.3588(6) 0.3055(6)
C2_2 C 0.7659(8) 0.4207(6) 0.2883(5)
C3_2 C 0.7237(8) 0.4656(7) 0.2400(5)
H1_2 H 0.6546 0.4591 0.2179
C4_2 C 0.7854(9) 0.5214(7) 0.2238(6)
H2_2 H 0.7566 0.5509 0.1902
C5_2 C 0.9202(9) 0.4913(7) 0.3034(6)
H3_2 H 0.9877 0.5005 0.3266
C6_2 C 0.8658(10) 0.4357(7) 0.3211(6)
H4_2 H 0.8964 0.4078 0.3555
C10_2 C 0.8869(9) 0.1931(8) 0.3237(7)
O1_2 O 0.8351(8) 0.2005(7) 0.2697(5)
C12_2 C 0.4529(8) 0.2034(7) 0.1582(5)
C13_2 C 0.3954(9) 0.2175(6) 0.0920(5)
C14_2 C 0.3116(12) 0.2668(9) 0.0810(6)
H8_2 H 0.292 0.2903 0.1141
C15_2 C 0.2589(11) 0.2799(8) 0.0207(6)
H9_2 H 0.2032 0.3125 0.014
C17_2 C 0.4125(11) 0.1814(8) 0.0415(6)
H11_2 H 0.462 0.1444 0.0469
C18_2 C 0.3305(8) 0.0193(7) 0.2747(6)
C24_2 C 0.6154(8) 0.0775(6) 0.4063(5)
C25_2 C 0.6248(8) 0.0168(6) 0.4529(5)
C26_2 C 0.7046(9) 0.0175(7) 0.5059(5)
H16_2 H 0.7576 0.0519 0.5102
C30_2 C 0.5076(9) 0.2676(6) 0.4254(5)
O2_2 O 0.8524(6) 0.1852(5) 0.3708(4)
O3_2 O 0.6247(5) 0.1900(4) 0.2944(3)
H20_2 H 0.6659 0.1967 0.2626
O4_2 O 0.4136(5) 0.1834(4) 0.2923(3)
H21_2 H 0.3495 0.1866 0.2592
O5_2 O 0.7531(6) 0.3187(4) 0.3503(4)
O6_2 O 0.6134(5) 0.3481(4) 0.2746(3)
O7_2 O 0.4697(6) 0.2595(4) 0.1907(3)
O8_2 O 0.4767(6) 0.1406(4) 0.1755(3)
O9_2 O 0.3973(6) 0.0313(4) 0.2436(4)
O10_2 O 0.3172(6) 0.0511(4) 0.3220(4)
O11_2 O 0.6859(6) 0.1240(4) 0.4165(4)
O12_2 O 0.5326(5) 0.0784(4) 0.3627(3)
O13_2 O 0.5626(5) 0.2738(4) 0.3846(3)
O14_2 O 0.4408(7) 0.2187(4) 0.4252(4)
Ni1_2 Ni 0.70982(10) 0.22184(7) 0.37948(6)
C31_2 C 0.5176(9) 0.3231(7) 0.4743(6)
C32_2 C 0.5898(11) 0.3792(8) 0.4795(7)
H22_2 H 0.6337 0.3819 0.4515
C33 C 0.4537(12) 0.3199(9) 0.5171(7)
H23 H 0.4056 0.2825 0.5154
C34_2 C 0.5317(17) 0.4277(11) 0.5653(10)
C35 C 0.4625(18) 0.3728(11) 0.5625(9)
H24 H 0.4202 0.3705 0.5913
C36_2 C 0.5974(15) 0.4307(10) 0.5250(10)
H25_2 H 0.647 0.4674 0.5284
O15_2 O 0.5404(13) 0.4833(9) 0.6082(7)
C38 C 0.465(2) 0.4910(13) 0.6455(11)
H27_2 H 0.3989 0.507 0.6199
H28_2 H 0.4891 0.5259 0.6777
H29 H 0.4545 0.4455 0.6641
N7_2 N 0.7836(7) 0.2518(5) 0.4710(4)
N9_2 N 0.3673(7) 0.0839(5) 0.4515(4)
C16_2 C 0.3579(12) 0.1988(9) 0.9832(6)
H10_2 H 0.3741 0.1741 0.9497
N2_2 N 0.2836(7) 0.2482(5) 0.9710(4)
Ni5_2 Ni 0.20982(10) 0.27816(7) 0.87948(6)
C19_2 C 0.2523(8) 0.9580(6) 0.2546(5)
C20_2 C 0.2572(9) 0.9092(7) 0.2070(6)
H12_2 H 0.3095 0.9132 0.1846
C21_2 C 0.1833(10) 0.8549(7) 0.1939(6)
H13_2 H 0.1887 0.8217 0.1631
C22_2 C 0.0999(10) 0.8960(7) 0.2684(6)
H14_2 H 0.0464 0.8917 0.29
C23_2 C 0.1701(10) 0.9507(7) 0.2837(6)
H15_2 H 0.1624 0.9835 0.3143
C27_2 C 0.7065(9) 0.9675(7) 0.5524(6)
H17_2 H 0.7609 0.9695 0.5879
C28_2 C 0.5614(8) 0.9111(6) 0.4939(5)
H18_2 H 0.5149 0.8724 0.4882
C29_2 C 0.5533(9) 0.9608(6) 0.4456(5)
H19_2 H 0.5011 0.9563 0.4093
N4_2 N 0.6327(7) 0.9161(5) 0.5485(4)
Ni9_2 Ni 0.61872(10) 0.86173(8) 0.63145(6)
C26_3 C 0.2046(9) 0.4825(7) 0.0059(5)
H16_3 H 0.2576 0.4481 0.0102
C27_3 C 0.2065(9) 0.5325(7) 0.0524(6)
H17_3 H 0.2609 0.5305 0.0879
C34_3 C 0.0317(17) 0.0723(11) 0.0653(10)
C36_3 C 0.0974(15) 0.0693(10) 0.0250(10)
H25_3 H 0.147 0.0326 0.0284
O15_3 O 0.0404(13) 0.0167(9) 0.1082(7)
C1_3 C 0.2049(8) 0.1412(6) 0.8055(6)
C2_3 C 0.2659(8) 0.0793(6) 0.7883(5)
C3_3 C 0.2237(8) 0.0344(7) 0.7400(5)
H1_3 H 0.1546 0.0409 0.7179
C5_3 C 0.4202(9) 0.0087(7) 0.8034(6)
C6_3 C 0.3658(10) 0.0643(7) 0.8211(6)
H4_3 H 0.3964 0.0922 0.8555
C7_3 C 0.6623(10) 0.3333(9) 0.7991(7)
H5_3 H 0.6929 0.3452 0.7661
C8_3 C 0.5070(10) 0.3095(7) 0.8329(6)
C9_3 C 0.5693(11) 0.2986(10) 0.8913(7)
H6_3 H 0.5394 0.2893 0.9251
C10_3 C 0.3869(9) 0.3069(8) 0.8237(7)
O1_3 O 0.3351(8) 0.2995(7) 0.7697(5)
C11_3 C 0.5527(11) 0.3272(10) 0.7865(7)
H7_3 H 0.5125 0.3354 0.7466
C24_3 C 0.1154(8) 0.4225(6) 0.9063(5)
C25_3 C 0.1248(8) 0.4832(6) 0.9529(5)
C28_3 C 0.0614(8) 0.5889(6) 0.9939(5)
H18_3 H 0.0149 0.6276 0.9882
C29_3 C 0.0533(9) 0.5392(6) 0.9456(5)
H19_3 H 0.0011 0.5437 0.9093
C30_3 C 0.0076(9) 0.2324(6) 0.9254(5)
O2_3 O 0.3524(6) 0.3148(5) 0.8708(4)
O3_3 O 0.1247(5) 0.3100(4) 0.7944(3)
H20_3 H 0.1659 0.3033 0.7626
O5_3 O 0.2531(6) 0.1813(4) 0.8503(4)
O6_3 O 0.1134(5) 0.1519(4) 0.7746(3)
N5_2 N 0.7253(7) 0.3234(5) 0.8539(5)
O11_3 O 0.1859(6) 0.3760(4) 0.9165(4)
O12_3 O 0.0326(5) 0.4216(4) 0.8627(3)
O13_3 O 0.0626(5) 0.2262(4) 0.8846(3)
Ni2_2 Ni 0.01153(9) 0.23206(7) 0.78625(6)
Ni3_2 Ni 0.01642(10) 0.38997(7) 0.76826(6)
C31_3 C 0.0176(9) 0.1769(7) 0.9743(6)
C32_3 C 0.0898(11) 0.1208(8) 0.9795(7)
H22_3 H 0.1337 0.1181 0.9515
C37_3 C 0.6783(10) 0.3019(8) 0.8986(7)
H26_3 H 0.7204 0.2883 0.9368
N6_2 N 0.1178(7) 0.4666(5) 0.7453(4)
C4_3 C 0.2854(9) 0.9786(7) 0.7238(6)
H2_3 H 0.2566 0.9491 0.6902
H3_3 H 0.4877 0.9995 0.8266
N1_2 N 0.3822(7) 0.9666(5) 0.7547(4)
Ni7_2 Ni 0.48358(10) 0.88997(7) 0.73174(6)
C12_3 C 0.9529(8) 0.2966(7) 0.6582(5)
C13_3 C 0.8954(9) 0.2825(6) 0.5920(5)
C14_3 C 0.8116(12) 0.2332(9) 0.5810(6)
H8_3 H 0.792 0.2097 0.6141
C15_3 C 0.7589(11) 0.2201(8) 0.5207(6)
H9_3 H 0.7032 0.1875 0.514
C16_3 C 0.8579(12) 0.3012(9) 0.4832(6)
H10_3 H 0.8741 0.3259 0.4497
C17_3 C 0.9125(11) 0.3186(8) 0.5415(6)
H11_3 H 0.962 0.3556 0.5469
C18_3 C 0.8305(8) 0.4807(7) 0.7747(6)
C19_3 C 0.7523(8) 0.5420(6) 0.7546(5)
C20_3 C 0.7572(9) 0.5908(7) 0.7070(6)
H12_3 H 0.8095 0.5868 0.6846
C21_3 C 0.6833(10) 0.6451(7) 0.6939(6)
H13_3 H 0.6887 0.6783 0.6631
C22_3 C 0.5999(10) 0.6040(7) 0.7684(6)
H14_3 H 0.5464 0.6083 0.79
C23_3 C 0.6701(10) 0.5493(7) 0.7837(6)
H15_3 H 0.6624 0.5165 0.8143
N3_2 N 0.6041(7) 0.6525(5) 0.7231(4)
O4_3 O 0.9136(5) 0.3166(4) 0.7923(3)
H21_3 H 0.8495 0.3134 0.7592
O7_3 O 0.9697(6) 0.2405(4) 0.6907(3)
O8_3 O 0.9767(6) 0.3594(4) 0.6755(3)
O9_3 O 0.8973(6) 0.4687(4) 0.7436(4)
O10_3 O 0.8172(6) 0.4489(4) 0.8220(4)
O14_3 O 0.9408(7) 0.2813(4) 0.9252(4)
N8_2 N 0.8959(7) 0.1525(5) 0.7769(4)
Ni6_2 Ni 0.48847(9) 0.73206(7) 0.71375(6)
C19_4 C 0.7477(8) 0.0420(6) 0.7454(5)
C20_4 C 0.7428(9) 0.0908(7) 0.7930(6)
H12_4 H 0.6905 0.0868 0.8154
C21_4 C 0.8167(10) 0.1451(7) 0.8061(6)
H13_4 H 0.8113 0.1783 0.8369
C22_4 C 0.9001(10) 0.1040(7) 0.7316(6)
H14_4 H 0.9536 0.1083 0.71
C23_4 C 0.8299(10) 0.0493(7) 0.7163(6)
H15_4 H 0.8376 0.0165 0.6857
C27_4 C 0.2935(9) 0.0325(7) 0.4476(6)
H17_4 H 0.2391 0.0305 0.4121
C28_4 C 0.4386(8) 0.0889(6) 0.5061(5)
H18_4 H 0.4851 0.1276 0.5118
C29_4 C 0.4467(9) 0.0392(6) 0.5544(5)
H19_4 H 0.4989 0.0437 0.5907
C16_4 C 0.6421(12) 0.8012(9) 0.0168(6)
H10_4 H 0.6259 0.8259 0.0503
C1_4 C 0.2951(8) 0.6412(6) 0.6945(6)
C2_4 C 0.2341(8) 0.5793(6) 0.7117(5)
C3_4 C 0.2763(8) 0.5344(7) 0.7600(5)
H1_4 H 0.3454 0.5409 0.7821
C4_4 C 0.2146(9) 0.4786(7) 0.7762(6)
H2_4 H 0.2434 0.4491 0.8098
C5_4 C 0.0798(9) 0.5087(7) 0.6966(6)
H3_4 H 0.0123 0.4995 0.6734
C6_4 C 0.1342(10) 0.5643(7) 0.6789(6)
H4_4 H 0.1036 0.5922 0.6445
C10_4 C 0.1131(9) 0.8069(8) 0.6763(7)
O1_4 O 0.1649(8) 0.7995(7) 0.7303(5)
C12_4 C 0.5471(8) 0.7966(7) 0.8418(5)
C13_4 C 0.6046(9) 0.7825(6) 0.9080(5)
C14_4 C 0.6884(12) 0.7332(9) 0.9190(6)
H8_4 H 0.708 0.7097 0.8859
C15_4 C 0.7411(11) 0.7201(8) 0.9793(6)
H9_4 H 0.7968 0.6875 0.986
C17_4 C 0.5875(11) 0.8186(8) 0.9585(6)
H11_4 H 0.538 0.8556 0.9531
C18_4 C 0.6695(8) 0.9807(7) 0.7253(6)
C24_4 C 0.3846(8) 0.9225(6) 0.5937(5)
C25_4 C 0.3752(8) 0.9832(6) 0.5471(5)
C26_4 C 0.2954(9) 0.9825(7) 0.4941(5)
H16_4 H 0.2424 0.9481 0.4898
C30_4 C 0.4924(9) 0.7324(6) 0.5746(5)
O2_4 O 0.1476(6) 0.8148(5) 0.6292(4)
O3_4 O 0.3753(5) 0.8100(4) 0.7056(3)
H20_4 H 0.3341 0.8033 0.7374
O4_4 O 0.5864(5) 0.8166(4) 0.7077(3)
H21_4 H 0.6505 0.8134 0.7408
O5_4 O 0.2469(6) 0.6813(4) 0.6497(4)
O6_4 O 0.3866(5) 0.6519(4) 0.7254(3)
O7_4 O 0.5303(6) 0.7405(4) 0.8093(3)
O8_4 O 0.5233(6) 0.8594(4) 0.8245(3)
O9_4 O 0.6027(6) 0.9687(4) 0.7564(4)
O10_4 O 0.6828(6) 0.9489(4) 0.6780(4)
O11_4 O 0.3141(6) 0.8760(4) 0.5835(4)
O12_4 O 0.4674(5) 0.9216(4) 0.6373(3)
O13_4 O 0.4374(5) 0.7262(4) 0.6154(3)
O14_4 O 0.5592(7) 0.7813(4) 0.5748(4)
C31_4 C 0.4824(9) 0.6769(7) 0.5257(6)
C32_4 C 0.4102(11) 0.6208(8) 0.5205(7)
H22_4 H 0.3663 0.6181 0.5485
C33_2 C 0.5463(12) 0.6801(9) 0.4829(7)
H23_2 H 0.5944 0.7175 0.4846
C34_4 C 0.4683(17) 0.5723(11) 0.4347(10)
C35_2 C 0.5375(18) 0.6272(11) 0.4375(9)
H24_2 H 0.5798 0.6295 0.4087
C36_4 C 0.4026(15) 0.5693(10) 0.4750(10)
H25_4 H 0.353 0.5326 0.4716
O15_4 O 0.4596(13) 0.5167(9) 0.3918(7)
C38_2 C 0.535(2) 0.5090(13) 0.3545(11)
H27_3 H 0.6011 0.493 0.3801
H28_3 H 0.5109 0.4741 0.3223
H29_2 H 0.5455 0.5545 0.3359
N10_2 N 0.7747(7) 0.8234(5) 0.6461(5)
C7_4 C 0.8377(10) 0.8333(9) 0.7009(7)
H5_4 H 0.8071 0.8452 0.7339
C8_4 C 0.9930(10) 0.8095(7) 0.6671(6)
C9_4 C 0.9307(11) 0.7986(10) 0.6087(7)
H6_4 H 0.9606 0.7893 0.5749
C11_4 C 0.9473(11) 0.8272(10) 0.7135(7)
H7_4 H 0.9875 0.8354 0.7534
C37_4 C 0.8217(10) 0.8019(8) 0.6014(7)
H26_4 H 0.7796 0.7883 0.5632
C33_3 C 0.0463(12) 0.8199(9) 0.9829(7)
H23_3 H 0.0944 0.7825 0.9846
C35_3 C 0.0375(18) 0.8728(11) 0.9375(9)
H24_3 H 0.0798 0.8705 0.9087
C38_3 C 0.035(2) 0.9910(13) 0.8545(11)
H29_3 H 0.0455 0.9455 0.8359
C33_4 C 0.9537(12) 0.1801(9) 0.0171(7)
H23_4 H 0.9056 0.2175 0.0154
C35_4 C 0.9625(18) 0.1272(11) 0.0625(9)
H24_4 H 0.9202 0.1295 0.0913
C38_4 C 0.965(2) 0.0090(13) 0.1455(11)
H29_4 H 0.9545 0.0545 0.1641
H27_4 H 0.8989 0.993 0.1199
H28_4 H 0.9891 0.9741 0.1777
loop_
_geom_bond_atom_site_label_1
_geom_bond_atom_site_label_2
_geom_bond_site_symmetry_1
_geom_bond_site_symmetry_2
C12 C13 1_555 1_555
C13 C14 1_555 1_555
C14 H8 1_555 1_555
C15 C14 1_555 1_555
H9 C15 1_555 1_555
C16 H10 1_555 1_555
C17 C13 1_555 1_555
H11 C17 1_555 1_555
C18 C19 1_555 1_555
C19 C20 1_555 1_555
C20 H12 1_555 1_555
C21 C20 1_555 1_555
H13 C21 1_555 1_555
C22 H14 1_555 1_555
C23 C19 1_555 1_555
H15 C23 1_555 1_555
N2 C15 1_555 1_555
N3 C21 1_555 1_555
O4 H21 1_555 1_555
O7 C12 1_555 1_555
O8 C12 1_555 1_555
O9 C18 1_555 1_555
O10 C18 1_555 1_555
Ni4 O4 1_555 1_555
N9 Ni4 1_555 1_555
N10 Ni4 1_555 1_555
Ni5 N2 1_555 1_555
Ni6 N3 1_555 1_555
C16 C17 1_555 1_555
C16 N2 1_555 1_555
C22 C23 1_555 1_555
C22 N3 1_555 1_555
O10 Ni4 1_555 1_555
O14 Ni4 1_555 1_555
H2 C4 1_555 1_555
N1 C4 1_555 1_555
Ni7 N1 1_555 1_555
C1 C2 1_555 1_555
C2 C3 1_555 1_555
C3 H1 1_555 1_555
C6 C2 1_555 1_555
H4 C6 1_555 1_555
C7 H5 1_555 1_555
C8 C9 1_555 1_555
C9 H6 1_555 1_555
C10 C8 1_555 1_555
O1 C10 1_555 1_555
C11 C7 1_555 1_555
H7 C11 1_555 1_555
C24 C25 1_555 1_555
C28 H18 1_555 1_555
C29 C25 1_555 1_555
H19 C29 1_555 1_555
C30 O13 1_555 1_555
O2 C10 1_555 1_555
O3 H20 1_555 1_555
O5 C1 1_555 1_555
O6 C1 1_555 1_555
N10 C7 1_555 1_555
O11 C24 1_555 1_555
O12 C24 1_555 1_555
O13 Ni1 1_555 1_555
Ni1 O2 1_555 1_555
Ni2 O3 1_555 1_555
Ni3 O3 1_555 1_555
C31 C30 1_555 1_555
C32 C31 1_555 1_555
H22 C32 1_555 1_555
C37 C9 1_555 1_555
H26 C37 1_555 1_555
N6 Ni3 1_555 1_555
N7 Ni1 1_555 1_555
C5 C6 1_555 1_555
C8 C11 1_555 1_555
C28 C29 1_555 1_555
O3 Ni1 1_555 1_555
O5 Ni1 1_555 1_555
O6 Ni2 1_555 1_555
N10 C37 1_555 1_555
O11 Ni1 1_555 1_555
O12 Ni3 1_555 1_555
O13 Ni2 1_555 1_555
C26 H16 1_555 1_555
C27 C26 1_555 1_555
H17 C27 1_555 1_555
N4 C27 1_555 1_555
H25 C36 1_555 1_555
O15 C34 1_555 1_555
Ni9 N4 1_555 1_555
C34 C36 1_555 1_555
C7_2 H5_2 1_555 1_555
C8_2 C9_2 1_555 1_555
C9_2 H6_2 1_555 1_555
C11_2 C7_2 1_555 1_555
H7_2 C11_2 1_555 1_555
N5 C7_2 1_555 1_555
C37_2 C9_2 1_555 1_555
H26_2 C37_2 1_555 1_555
Ni8 N5 1_555 1_555
C8_2 C11_2 1_555 1_555
N5 C37_2 1_555 1_555
C1_2 C2_2 1_555 1_555
C2_2 C3_2 1_555 1_555
C3_2 H1_2 1_555 1_555
C4_2 C3_2 1_555 1_555
H2_2 C4_2 1_555 1_555
C5_2 H3_2 1_555 1_555
C6_2 C2_2 1_555 1_555
H4_2 C6_2 1_555 1_555
O1_2 C10_2 1_555 1_555
C12_2 C13_2 1_555 1_555
C13_2 C14_2 1_555 1_555
C14_2 H8_2 1_555 1_555
C15_2 C14_2 1_555 1_555
H9_2 C15_2 1_555 1_555
C17_2 C13_2 1_555 1_555
H11_2 C17_2 1_555 1_555
C24_2 C25_2 1_555 1_555
C25_2 C26_2 1_555 1_555
C26_2 H16_2 1_555 1_555
C30_2 O13_2 1_555 1_555
N6 C4_2 1_555 1_555
O2_2 C10_2 1_555 1_555
O3_2 H20_2 1_555 1_555
O4_2 H21_2 1_555 1_555
O5_2 C1_2 1_555 1_555
O6_2 C1_2 1_555 1_555
O7_2 C12_2 1_555 1_555
O8_2 C12_2 1_555 1_555
O9_2 C18_2 1_555 1_555
O10_2 C18_2 1_555 1_555
O11_2 C24_2 1_555 1_555
O12_2 C24_2 1_555 1_555
O13_2 Ni1_2 1_555 1_555
O14_2 C30_2 1_555 1_555
Ni1_2 O2_2 1_555 1_555
Ni6 O3_2 1_555 1_555
Ni7 O3_2 1_555 1_555
Ni8 O4_2 1_555 1_555
C31_2 C30_2 1_555 1_555
C32_2 C31_2 1_555 1_555
H22_2 C32_2 1_555 1_555
C33 C31_2 1_555 1_555
H23 C33 1_555 1_555
C34_2 C35 1_555 1_555
C35 C33 1_555 1_555
H24 C35 1_555 1_555
C36_2 C32_2 1_555 1_555
H25_2 C36_2 1_555 1_555
O15_2 C34_2 1_555 1_555
C38 O15_2 1_555 1_555
H27_2 C38 1_555 1_555
H28_2 C38 1_555 1_555
H29 C38 1_555 1_555
N7_2 Ni1_2 1_555 1_555
N9_2 Ni8 1_555 1_555
C5_2 C6_2 1_555 1_555
C5_2 N6 1_555 1_555
O3_2 Ni1_2 1_555 1_555
O4_2 Ni6 1_555 1_555
O4_2 Ni7 1_555 1_555
O5_2 Ni1_2 1_555 1_555
O6_2 Ni6 1_555 1_555
O7_2 Ni6 1_555 1_555
O8_2 Ni7 1_555 1_555
O9_2 Ni7 1_555 1_555
O10_2 Ni8 1_555 1_555
O11_2 Ni1_2 1_555 1_555
O12_2 Ni7 1_555 1_555
O12_2 Ni8 1_555 1_555
O13_2 Ni6 1_555 1_555
O14_2 Ni8 1_555 1_555
C34_2 C36_2 1_555 1_555
C16_2 H10_2 1_555 1_555
Ni5_2 N2_2 1_555 1_555
C16_2 N2_2 1_555 1_555
C19_2 C20_2 1_555 1_555
C20_2 H12_2 1_555 1_555
C21_2 C20_2 1_555 1_555
H13_2 C21_2 1_555 1_555
C22_2 H14_2 1_555 1_555
C23_2 C19_2 1_555 1_555
H15_2 C23_2 1_555 1_555
H17_2 C27_2 1_555 1_555
C28_2 H18_2 1_555 1_555
H19_2 C29_2 1_555 1_555
N8 C21_2 1_555 1_555
N4_2 C27_2 1_555 1_555
Ni9_2 N4_2 1_555 1_555
C22_2 C23_2 1_555 1_555
C22_2 N8 1_555 1_555
C28_2 C29_2 1_555 1_555
C28_2 N4_2 1_555 1_555
C26_3 H16_3 1_555 1_555
C27_3 C26_3 1_555 1_555
H17_3 C27_3 1_555 1_555
N9 C27_3 1_555 1_555
H25_3 C36_3 1_555 1_555
O15_3 C34_3 1_555 1_555
C34_3 C36_3 1_555 1_555
C1_3 C2_3 1_555 1_555
C2_3 C3_3 1_555 1_555
C3_3 H1_3 1_555 1_555
C6_3 C2_3 1_555 1_555
H4_3 C6_3 1_555 1_555
C7_3 H5_3 1_555 1_555
C8_3 C9_3 1_555 1_555
C9_3 H6_3 1_555 1_555
C10_3 C8_3 1_555 1_555
O1_3 C10_3 1_555 1_555
C11_3 C7_3 1_555 1_555
H7_3 C11_3 1_555 1_555
C24_3 C25_3 1_555 1_555
C28_3 H18_3 1_555 1_555
C29_3 C25_3 1_555 1_555
H19_3 C29_3 1_555 1_555
C30_3 O13_3 1_555 1_555
O2_3 C10_3 1_555 1_555
O3_3 H20_3 1_555 1_555
O5_3 C1_3 1_555 1_555
O6_3 C1_3 1_555 1_555
N5_2 C7_3 1_555 1_555
O11_3 C24_3 1_555 1_555
O12_3 C24_3 1_555 1_555
O13_3 Ni5_2 1_555 1_555
Ni5_2 O2_3 1_555 1_555
Ni2_2 O3_3 1_555 1_555
Ni3_2 O3_3 1_555 1_555
C31_3 C30_3 1_555 1_555
C32_3 C31_3 1_555 1_555
H22_3 C32_3 1_555 1_555
C37_3 C9_3 1_555 1_555
H26_3 C37_3 1_555 1_555
N6_2 Ni3_2 1_555 1_555
Ni9 N5_2 1_555 1_555
C5_3 C6_3 1_555 1_555
C8_3 C11_3 1_555 1_555
C28_3 C29_3 1_555 1_555
O3_3 Ni5_2 1_555 1_555
O5_3 Ni5_2 1_555 1_555
O6_3 Ni2_2 1_555 1_555
N5_2 C37_3 1_555 1_555
O11_3 Ni5_2 1_555 1_555
O12_3 Ni3_2 1_555 1_555
O13_3 Ni2_2 1_555 1_555
H2_3 C4_3 1_555 1_555
N1_2 C4_3 1_555 1_555
Ni7_2 N1_2 1_555 1_555
C12_3 C13_3 1_555 1_555
C13_3 C14_3 1_555 1_555
C14_3 H8_3 1_555 1_555
C15_3 C14_3 1_555 1_555
H9_3 C15_3 1_555 1_555
C16_3 H10_3 1_555 1_555
C17_3 C13_3 1_555 1_555
H11_3 C17_3 1_555 1_555
C18_3 C19_3 1_555 1_555
C19_3 C20_3 1_555 1_555
C20_3 H12_3 1_555 1_555
C21_3 C20_3 1_555 1_555
H13_3 C21_3 1_555 1_555
C22_3 H14_3 1_555 1_555
C23_3 C19_3 1_555 1_555
H15_3 C23_3 1_555 1_555
N7_2 C15_3 1_555 1_555
N3_2 C21_3 1_555 1_555
O4_3 H21_3 1_555 1_555
O7_3 C12_3 1_555 1_555
O8_3 C12_3 1_555 1_555
O9_3 C18_3 1_555 1_555
O10_3 C18_3 1_555 1_555
Ni9 O4_3 1_555 1_555
Ni6_2 N3_2 1_555 1_555
C16_3 C17_3 1_555 1_555
C16_3 N7_2 1_555 1_555
C22_3 C23_3 1_555 1_555
C22_3 N3_2 1_555 1_555
O10_3 Ni9 1_555 1_555
O14_3 Ni9 1_555 1_555
C19_4 C20_4 1_555 1_555
C20_4 H12_4 1_555 1_555
C21_4 C20_4 1_555 1_555
H13_4 C21_4 1_555 1_555
C22_4 H14_4 1_555 1_555
C23_4 C19_4 1_555 1_555
H15_4 C23_4 1_555 1_555
H17_4 C27_4 1_555 1_555
C28_4 H18_4 1_555 1_555
H19_4 C29_4 1_555 1_555
N8_2 C21_4 1_555 1_555
N9_2 C27_4 1_555 1_555
C22_4 C23_4 1_555 1_555
C22_4 N8_2 1_555 1_555
C28_4 C29_4 1_555 1_555
C28_4 N9_2 1_555 1_555
C16_4 H10_4 1_555 1_555
C16_4 N7 1_555 1_555
C1_4 C2_4 1_555 1_555
C2_4 C3_4 1_555 1_555
C3_4 H1_4 1_555 1_555
C4_4 C3_4 1_555 1_555
H2_4 C4_4 1_555 1_555
C5_4 H3_4 1_555 1_555
C6_4 C2_4 1_555 1_555
H4_4 C6_4 1_555 1_555
O1_4 C10_4 1_555 1_555
C12_4 C13_4 1_555 1_555
C13_4 C14_4 1_555 1_555
C14_4 H8_4 1_555 1_555
C15_4 C14_4 1_555 1_555
H9_4 C15_4 1_555 1_555
C17_4 C13_4 1_555 1_555
H11_4 C17_4 1_555 1_555
C24_4 C25_4 1_555 1_555
C25_4 C26_4 1_555 1_555
C26_4 H16_4 1_555 1_555
C30_4 O13_4 1_555 1_555
N6_2 C4_4 1_555 1_555
O2_4 C10_4 1_555 1_555
O3_4 H20_4 1_555 1_555
O4_4 H21_4 1_555 1_555
O5_4 C1_4 1_555 1_555
O6_4 C1_4 1_555 1_555
O7_4 C12_4 1_555 1_555
O8_4 C12_4 1_555 1_555
O9_4 C18_4 1_555 1_555
O10_4 C18_4 1_555 1_555
O11_4 C24_4 1_555 1_555
O12_4 C24_4 1_555 1_555
O13_4 Ni5 1_555 1_555
O14_4 C30_4 1_555 1_555
Ni5 O2_4 1_555 1_555
Ni6_2 O3_4 1_555 1_555
Ni7_2 O3_4 1_555 1_555
Ni9_2 O4_4 1_555 1_555
C31_4 C30_4 1_555 1_555
C32_4 C31_4 1_555 1_555
H22_4 C32_4 1_555 1_555
C33_2 C31_4 1_555 1_555
H23_2 C33_2 1_555 1_555
C34_4 C35_2 1_555 1_555
C35_2 C33_2 1_555 1_555
H24_2 C35_2 1_555 1_555
C36_4 C32_4 1_555 1_555
H25_4 C36_4 1_555 1_555
O15_4 C34_4 1_555 1_555
C38_2 O15_4 1_555 1_555
H27_3 C38_2 1_555 1_555
H28_3 C38_2 1_555 1_555
H29_2 C38_2 1_555 1_555
N10_2 Ni9_2 1_555 1_555
C5_4 C6_4 1_555 1_555
C5_4 N6_2 1_555 1_555
O3_4 Ni5 1_555 1_555
O4_4 Ni6_2 1_555 1_555
O4_4 Ni7_2 1_555 1_555
O5_4 Ni5 1_555 1_555
O6_4 Ni6_2 1_555 1_555
O7_4 Ni6_2 1_555 1_555
O8_4 Ni7_2 1_555 1_555
O9_4 Ni7_2 1_555 1_555
O10_4 Ni9_2 1_555 1_555
O11_4 Ni5 1_555 1_555
O12_4 Ni7_2 1_555 1_555
O12_4 Ni9_2 1_555 1_555
O13_4 Ni6_2 1_555 1_555
O14_4 Ni9_2 1_555 1_555
C34_4 C36_4 1_555 1_555
C7_4 H5_4 1_555 1_555
C8_4 C9_4 1_555 1_555
C9_4 H6_4 1_555 1_555
C11_4 C7_4 1_555 1_555
H7_4 C11_4 1_555 1_555
N10_2 C7_4 1_555 1_555
C37_4 C9_4 1_555 1_555
H26_4 C37_4 1_555 1_555
C8_4 C11_4 1_555 1_555
N10_2 C37_4 1_555 1_555
H23_3 C33_3 1_555 1_555
C35_3 C33_3 1_555 1_555
H24_3 C35_3 1_555 1_555
H29_3 C38_3 1_555 1_555
H23_4 C33_4 1_555 1_555
C35_4 C33_4 1_555 1_555
H24_4 C35_4 1_555 1_555
H29_4 C38_4 1_555 1_555

#END
