
###############################################################################
#
# This file contains modified crystal structure data generated from the
# MOF subset of the Cambridge Structural Database (CSD) v543 
# hosted by the Cambridge Crystallographic Data Centre (CCDC).
#
# This work is licensed under the Creative Commons
# Attribution-NonCommercial-ShareAlike 4.0 International License.
# To view a copy of this license, visit
# http://creativecommons.org/licenses/by-nc-sa/4.0/
# or send a letter to
# Creative Commons, PO Box 1866, Mountain View, CA 94042, USA.
#
# CIF created using the CSD Python API on 29 September 2022
# The structure has been converted into the P1 space group
# The structure has a 3D framework
# The original CSD entry LODBIR is in the monoclinic crystal system
# The framework has been calculated to contain at least 10.0% void space
# The void calculation uses a probe of radius 1.32A, grid spacing 0.4
#
###############################################################################

data_LODBIR
_chemical_formula_moiety         '(C160 H132 N20 Ni16 O68)n'
_symmetry_cell_setting           triclinic
_symmetry_space_group_name_H-M   'P 1'
_symmetry_Int_Tables_number      1
_space_group_name_Hall           'P 1'
loop_
_symmetry_equiv_pos_site_id
_symmetry_equiv_pos_as_xyz
1 x,y,z
_cell_length_a                   13.0531(10)
_cell_length_b                   18.5575(13)
_cell_length_c                   22.1139(16)
_cell_angle_alpha                90
_cell_angle_beta                 103.2630(10)
_cell_angle_gamma                90
_cell_volume                     5213.84
loop_
_atom_site_label
_atom_site_type_symbol
_atom_site_fract_x
_atom_site_fract_y
_atom_site_fract_z
O16 O 0.169(2) 0.0391(15) 0.0531(12)
C40 C 0.233(4) 0.069(3) 0.099(2)
H31 H 0.2092 0.1172 0.1042
H32 H 0.302 0.0712 0.0905
H33 H 0.2355 0.0419 0.136
C1 C 0.0303(8) 0.8394(5) 0.0713(6)
C3 C 0.0282(13) 0.9686(5) 0.0807(7)
C4 C 0.1227(13) 0.9727(8) 0.0619(8)
C5 C 0.1709(9) 0.9101(11) 0.0478(7)
C6 C 0.1248(9) 0.8435(8) 0.0525(6)
H2 H 0.1571 0.8016 0.0431
C19 C 0.0544(7) 0.7074(5) 0.3445(4)
C20 C 0.1076(8) 0.7197(6) 0.4112(5)
C21 C 0.1860(17) 0.7728(9) 0.4251(7)
H11 H 0.2053 0.7989 0.3935
C22 C 0.2337(19) 0.7855(9) 0.4861(7)
H12 H 0.2862 0.8204 0.4944
C23 C 0.1411(17) 0.7013(9) 0.5203(7)
H13 H 0.1227 0.6759 0.5525
C24 C 0.0928(18) 0.6832(10) 0.4603(7)
H14 H 0.0478 0.6436 0.4537
C25 C 0.1735(8) 0.5219(5) 0.2245(5)
C26 C 0.2533(8) 0.4626(6) 0.2446(5)
C27 C 0.2391(8) 0.4065(6) 0.2822(6)
H15 H 0.1801 0.4052 0.2992
C28 C 0.3132(9) 0.3517(6) 0.2948(6)
H16 H 0.3008 0.313 0.3189
C29 C 0.4158(9) 0.4084(7) 0.2382(7)
H17 H 0.4768 0.41 0.2232
C30 C 0.3438(9) 0.4636(7) 0.2228(6)
H18 H 0.3564 0.5013 0.1978
N3 N 0.2103(7) 0.7515(5) 0.5343(4)
N4 N 0.4015(6) 0.3518(5) 0.2740(4)
O2 O 0.0827(5) 0.6871(3) 0.2052(3)
H24 H 0.1496 0.691 0.2361
O7 O 0.0353(6) 0.7626(4) 0.3114(3)
O8 O 0.0331(5) 0.6439(4) 0.3273(3)
O9 O 0.1066(5) 0.5343(4) 0.2557(4)
O10 O 0.1832(5) 0.5549(4) 0.1765(4)
O14 O 0.0276(8) 0.7128(5) 0.0678(4)
Ni4 Ni 0.10813(9) 0.63778(7) 0.12775(6)
O17 O 0.2676(18) 0.9128(19) 0.0262(13)
C39 C 0.350(3) 0.877(4) 0.063(3)
H28 H 0.3384 0.8261 0.0586
H29 H 0.3543 0.8903 0.106
H30 H 0.4139 0.8899 0.052
N8 N 0.0985(6) 0.8518(5) 0.2260(4)
N9 N 0.1234(7) 0.5808(5) 0.0466(5)
O18 O 0.2512(7) 0.6812(5) 0.1297(5)
Ni5 Ni 0.28339(9) 0.78299(7) 0.62667(6)
Ni6 Ni 0.51367(8) 0.26974(6) 0.28249(6)
C10 C 0.7095(8) 0.0239(6) 0.2721(6)
H4 H 0.7397 0.0555 0.3038
N1 N 0.6089(6) 0.0341(5) 0.2418(4)
O15 O 0.989(2) 0.0315(9) 0.0921(11)
C38 C 0.902(4) 0.0284(16) 0.118(2)
H25 H 0.8412 0.0152 0.0865
H26 H 0.8911 0.0746 0.1347
Ni7 Ni 0.51063(8) 0.11202(6) 0.26548(6)
C2 C 0.9821(8) 0.9020(6) 0.0854(6)
H1 H 0.9189 0.8992 0.0979
C7 C 0.7868(7) 0.8560(6) 0.1968(5)
C8 C 0.7264(7) 0.9197(6) 0.2111(5)
C9 C 0.7695(9) 0.9683(7) 0.2578(6)
H3 H 0.8391 0.9632 0.2794
C11 C 0.5691(9) 0.9899(7) 0.1945(6)
H5 H 0.5012 0.9981 0.1711
C12 C 0.6254(9) 0.9322(7) 0.1792(6)
H6 H 0.5942 0.9017 0.1468
C13 C 0.3166(13) 0.6831(8) 0.1754(9)
C14 C 0.4328(13) 0.6815(9) 0.1661(8)
C15 C 0.4444(12) 0.6747(12) 0.1095(8)
H7 H 0.3874 0.6758 0.0754
C16 C 0.5544(12) 0.6651(11) 0.1027(9)
H8 H 0.5638 0.6441 0.0661
C17 C 0.6214(13) 0.6949(10) 0.2013(10)
H9 H 0.6768 0.7023 0.2356
C18 C 0.5126(13) 0.6948(12) 0.2069(12)
H10 H 0.5016 0.7061 0.2459
C31 C 0.8801(7) 0.5756(5) 0.0973(5)
C32 C 0.8750(8) 0.5171(6) 0.0488(6)
C35 C 0.9451(9) 0.4145(7) 0.0085(6)
H21 H 0.9933 0.3768 0.0147
C36 C 0.9483(9) 0.4617(6) 0.0560(6)
H22 H 0.9991 0.4569 0.0929
C37 C 0.9855(8) 0.7671(6) 0.0837(5)
N2 N 0.6381(7) 0.6836(5) 0.1435(5)
O1 O 0.8749(4) 0.6895(3) 0.2114(3)
H23 H 0.8359 0.6947 0.244
O3 O 0.7392(5) 0.8163(4) 0.1536(3)
O4 O 0.8789(5) 0.8470(4) 0.2286(4)
O5 O 0.3078(8) 0.6888(7) 0.2273(6)
O11 O 0.8026(5) 0.6165(4) 0.0907(3)
O12 O 0.9643(5) 0.5792(4) 0.1394(3)
O13 O 0.9239(5) 0.7700(4) 0.1194(3)
Ni1 Ni 0.78339(9) 0.71701(7) 0.12667(6)
Ni2 Ni 0.98633(8) 0.76974(6) 0.21751(6)
Ni3 Ni 0.98937(8) 0.61202(6) 0.23452(6)
H27 H 0.9141 0.993 0.1505
N6 N 0.8911(6) 0.5341(5) 0.2582(4)
N7 N 0.7103(7) 0.7485(5) 0.0343(4)
C33 C 0.8011(10) 0.5192(7) 0.9948(6)
H19 H 0.7487 0.5541 0.9888
C34 C 0.8028(10) 0.4698(7) 0.9484(6)
H20 H 0.7502 0.472 0.9121
N5 N 0.8766(7) 0.4192(5) 0.9534(5)
Ni9 Ni 0.89187(9) 0.36222(7) 0.87225(6)
C13_2 C 0.1834(13) 0.1831(8) 0.3246(9)
C14_2 C 0.0672(13) 0.1815(9) 0.3339(8)
C15_2 C 0.0556(12) 0.1747(12) 0.3905(8)
H7_2 H 0.1126 0.1758 0.4246
O5_2 O 0.1922(8) 0.1888(7) 0.2727(6)
O6 O 0.2488(7) 0.1812(5) 0.3703(5)
Ni8 Ni 0.39187(9) 0.13778(7) 0.37225(6)
C1_2 C 0.4697(8) 0.3394(5) 0.4287(6)
C2_2 C 0.5179(8) 0.4020(6) 0.4146(6)
H1_2 H 0.5811 0.3992 0.4021
C3_2 C 0.4718(13) 0.4686(5) 0.4193(7)
C4_2 C 0.3773(13) 0.4727(8) 0.4381(8)
C5_2 C 0.3291(9) 0.4101(11) 0.4522(7)
C6_2 C 0.3752(9) 0.3435(8) 0.4475(6)
H2_2 H 0.3429 0.3016 0.4569
C7_2 C 0.7132(7) 0.3560(6) 0.3032(5)
C8_2 C 0.7736(7) 0.4197(6) 0.2889(5)
C9_2 C 0.7305(9) 0.4683(7) 0.2422(6)
H3_2 H 0.6609 0.4632 0.2206
C10_2 C 0.7905(8) 0.5239(6) 0.2279(6)
H4_2 H 0.7603 0.5555 0.1962
C11_2 C 0.9309(9) 0.4899(7) 0.3055(6)
H5_2 H 0.9988 0.4981 0.3289
C12_2 C 0.8746(9) 0.4322(7) 0.3208(6)
H6_2 H 0.9058 0.4017 0.3532
C16_2 C 0.9456(12) 0.1651(11) 0.3973(9)
H8_2 H 0.9362 0.1441 0.4339
C17_2 C 0.8786(13) 0.1949(10) 0.2987(10)
H9_2 H 0.8232 0.2023 0.2644
C18_2 C 0.9874(13) 0.1948(12) 0.2931(12)
H10_2 H 0.9984 0.2061 0.2541
C19_2 C 0.4456(7) 0.2074(5) 0.1555(4)
C20_2 C 0.3924(8) 0.2197(6) 0.0888(5)
C21_2 C 0.3140(17) 0.2728(9) 0.0749(7)
H11_2 H 0.2947 0.2989 0.1065
C22_2 C 0.2663(19) 0.2855(9) 0.0139(7)
H12_2 H 0.2138 0.3204 0.0056
C24_2 C 0.4072(18) 0.1832(10) 0.0397(7)
H14_2 H 0.4522 0.1436 0.0463
C25_2 C 0.3265(8) 0.0219(5) 0.2755(5)
H18_2 H 0.1436 0.0013 0.3022
C31_2 C 0.6199(7) 0.0756(5) 0.4027(5)
C32_2 C 0.6250(8) 0.0171(6) 0.4512(6)
C33_2 C 0.6989(10) 0.0192(7) 0.5052(6)
H19_2 H 0.7513 0.0541 0.5112
C37_2 C 0.5145(8) 0.2671(6) 0.4163(5)
N2_2 N 0.8619(7) 0.1836(5) 0.3565(5)
O1_2 O 0.6251(4) 0.1895(3) 0.2886(3)
H23_2 H 0.6641 0.1947 0.256
O2_2 O 0.4173(5) 0.1871(3) 0.2948(3)
H24_2 H 0.3504 0.191 0.2639
O3_2 O 0.7608(5) 0.3163(4) 0.3464(3)
O4_2 O 0.6211(5) 0.3470(4) 0.2714(4)
O7_2 O 0.4647(6) 0.2626(4) 0.1886(3)
O8_2 O 0.4669(5) 0.1439(4) 0.1727(3)
O9_2 O 0.3934(5) 0.0343(4) 0.2443(4)
O10_2 O 0.3168(5) 0.0549(4) 0.3235(4)
O11_2 O 0.6974(5) 0.1165(4) 0.4093(3)
O12_2 O 0.5357(5) 0.0792(4) 0.3606(3)
O13_2 O 0.5761(5) 0.2700(4) 0.3806(3)
O14_2 O 0.4724(8) 0.2128(5) 0.4322(4)
Ni1_2 Ni 0.71661(9) 0.21701(7) 0.37333(6)
O15_2 O 0.511(2) 0.5315(9) 0.4079(11)
C38_2 C 0.598(4) 0.5284(16) 0.382(2)
H25_2 H 0.6588 0.5152 0.4135
H26_2 H 0.6089 0.5746 0.3653
H27_2 H 0.5859 0.493 0.3495
O16_2 O 0.331(2) 0.5391(15) 0.4469(12)
O17_2 O 0.2324(18) 0.4128(19) 0.4738(13)
C39_2 C 0.150(3) 0.377(4) 0.437(3)
H28_2 H 0.1616 0.3261 0.4414
H29_2 H 0.1457 0.3903 0.394
H30_2 H 0.0861 0.3899 0.448
C40_2 C 0.267(4) 0.569(3) 0.401(2)
H31_2 H 0.2908 0.6172 0.3958
H32_2 H 0.198 0.5712 0.4095
H33_2 H 0.2645 0.5419 0.364
N7_2 N 0.7897(7) 0.2485(5) 0.4657(4)
N9_2 N 0.3766(7) 0.0808(5) 0.4534(5)
C23_2 C 0.3589(17) 0.2013(9) 0.9797(7)
H13_2 H 0.3773 0.1759 0.9475
N3_2 N 0.2897(7) 0.2515(5) 0.9657(4)
Ni5_2 Ni 0.21661(9) 0.28299(7) 0.87333(6)
C26_2 C 0.2467(8) 0.9626(6) 0.2554(5)
C27_2 C 0.2609(8) 0.9065(6) 0.2178(6)
H15_2 H 0.3199 0.9052 0.2008
C28_2 C 0.1868(9) 0.8517(6) 0.2052(6)
H16_2 H 0.1992 0.813 0.1811
C29_2 C 0.0842(9) 0.9084(7) 0.2618(7)
H17_2 H 0.0232 0.91 0.2768
C30_2 C 0.1562(9) 0.9636(7) 0.2772(6)
C34_2 C 0.6972(10) 0.9698(7) 0.5516(6)
H20_2 H 0.7498 0.972 0.5879
C35_2 C 0.5549(9) 0.9145(7) 0.4915(6)
H21_2 H 0.5067 0.8768 0.4853
C36_2 C 0.5517(9) 0.9617(6) 0.4440(6)
H22_2 H 0.5009 0.9569 0.4071
N5_2 N 0.6234(7) 0.9192(5) 0.5466(5)
Ni9_2 Ni 0.60813(9) 0.86222(7) 0.62775(6)
C33_3 C 0.1989(10) 0.4808(7) 0.0052(6)
H19_3 H 0.2513 0.4459 0.0112
C34_3 C 0.1972(10) 0.5302(7) 0.0516(6)
H20_3 H 0.2498 0.528 0.0879
C2_3 C 0.0179(8) 0.0980(6) 0.9146(6)
H1_3 H 0.0811 0.1008 0.9021
C7_3 C 0.2132(7) 0.1440(6) 0.8032(5)
C8_3 C 0.2736(7) 0.0803(6) 0.7889(5)
C9_3 C 0.2305(9) 0.0317(7) 0.7422(6)
H3_3 H 0.1609 0.0368 0.7206
C11_3 C 0.4309(9) 0.0101(7) 0.8055(6)
H5_3 H 0.4988 0.0019 0.8289
C12_3 C 0.3746(9) 0.0678(7) 0.8208(6)
H6_3 H 0.4058 0.0983 0.8532
C13_3 C 0.6834(13) 0.3169(8) 0.8246(9)
C14_3 C 0.5672(13) 0.3185(9) 0.8339(8)
C15_3 C 0.5556(12) 0.3253(12) 0.8905(8)
H7_3 H 0.6126 0.3242 0.9246
C16_3 C 0.4456(12) 0.3349(11) 0.8973(9)
H8_3 H 0.4362 0.3559 0.9339
C17_3 C 0.3786(13) 0.3051(10) 0.7987(10)
H9_3 H 0.3232 0.2977 0.7644
C18_3 C 0.4874(13) 0.3052(12) 0.7931(12)
H10_3 H 0.4984 0.2939 0.7541
C31_3 C 0.1199(7) 0.4244(5) 0.9027(5)
C32_3 C 0.1250(8) 0.4829(6) 0.9512(6)
C35_3 C 0.0549(9) 0.5855(7) 0.9915(6)
H21_3 H 0.0067 0.6232 0.9853
C36_3 C 0.0517(9) 0.5383(6) 0.9440(6)
H22_3 H 0.0009 0.5431 0.9071
C37_3 C 0.0145(8) 0.2329(6) 0.9163(5)
N2_3 N 0.3619(7) 0.3164(5) 0.8565(5)
O1_3 O 0.1251(4) 0.3105(3) 0.7886(3)
H23_3 H 0.1641 0.3053 0.756
O3_3 O 0.2608(5) 0.1837(4) 0.8464(3)
O4_3 O 0.1211(5) 0.1530(4) 0.7714(4)
O5_3 O 0.6922(8) 0.3112(7) 0.7727(6)
O6_2 O 0.7488(7) 0.3188(5) 0.8703(5)
O11_3 O 0.1974(5) 0.3835(4) 0.9093(3)
O12_3 O 0.0357(5) 0.4208(4) 0.8606(3)
O13_3 O 0.0761(5) 0.2300(4) 0.8806(3)
Ni2_2 Ni 0.01367(8) 0.23026(6) 0.78249(6)
Ni3_2 Ni 0.01063(8) 0.38798(6) 0.76548(6)
H27_3 H 0.0859 0.007 0.8495
N6_2 N 0.1089(6) 0.4659(5) 0.7418(4)
C10_3 C 0.2905(8) 0.9761(6) 0.7279(6)
H4_3 H 0.2603 0.9445 0.6962
N1_2 N 0.3911(6) 0.9659(5) 0.7582(4)
O15_3 O 0.011(2) 0.9685(9) 0.9079(11)
C38_3 C 0.098(4) 0.9716(16) 0.882(2)
H25_3 H 0.1588 0.9848 0.9135
H26_3 H 0.1089 0.9254 0.8653
Ni7_2 Ni 0.48937(8) 0.88798(6) 0.73452(6)
C1_3 C 0.9697(8) 0.1606(5) 0.9287(6)
C3_3 C 0.9718(13) 0.0314(5) 0.9193(7)
C4_3 C 0.8773(13) 0.0273(8) 0.9381(8)
C5_3 C 0.8291(9) 0.0899(11) 0.9522(7)
C6_3 C 0.8752(9) 0.1565(8) 0.9475(6)
H2_3 H 0.8429 0.1984 0.9569
C19_3 C 0.9456(7) 0.2926(5) 0.6555(4)
C20_3 C 0.8924(8) 0.2803(6) 0.5888(5)
C21_3 C 0.8140(17) 0.2272(9) 0.5749(7)
H11_3 H 0.7947 0.2011 0.6065
C22_3 C 0.7663(19) 0.2145(9) 0.5139(7)
H12_3 H 0.7138 0.1796 0.5056
C23_3 C 0.8589(17) 0.2987(9) 0.4797(7)
H13_3 H 0.8773 0.3241 0.4475
C24_3 C 0.9072(18) 0.3168(10) 0.5397(7)
H14_3 H 0.9522 0.3564 0.5463
C25_3 C 0.8265(8) 0.4781(5) 0.7755(5)
C26_3 C 0.7467(8) 0.5374(6) 0.7554(5)
C27_3 C 0.7609(8) 0.5935(6) 0.7178(6)
H15_3 H 0.8199 0.5948 0.7008
C28_3 C 0.6868(9) 0.6483(6) 0.7052(6)
H16_3 H 0.6992 0.687 0.6811
C29_3 C 0.5842(9) 0.5916(7) 0.7618(7)
H17_3 H 0.5232 0.59 0.7768
C30_3 C 0.6562(9) 0.5364(7) 0.7772(6)
H18_3 H 0.6436 0.4987 0.8022
N4_2 N 0.5985(6) 0.6482(5) 0.7260(4)
O2_3 O 0.9173(5) 0.3129(3) 0.7948(3)
H24_3 H 0.8504 0.309 0.7639
O7_3 O 0.9647(6) 0.2374(4) 0.6886(3)
O8_3 O 0.9669(5) 0.3561(4) 0.6727(3)
O9_3 O 0.8934(5) 0.4657(4) 0.7443(4)
O10_3 O 0.8168(5) 0.4451(4) 0.8235(4)
O14_3 O 0.9724(8) 0.2872(5) 0.9322(4)
O17_3 O 0.7324(18) 0.0872(19) 0.9738(13)
C39_3 C 0.650(3) 0.123(4) 0.937(3)
H28_3 H 0.6616 0.1739 0.9414
H29_3 H 0.6457 0.1097 0.894
H30_3 H 0.5861 0.1101 0.948
N8_2 N 0.9015(6) 0.1482(5) 0.7740(4)
Ni6_2 Ni 0.48633(8) 0.73026(6) 0.71751(6)
C26_4 C 0.7533(8) 0.0374(6) 0.7446(5)
C27_4 C 0.7391(8) 0.0935(6) 0.7822(6)
H15_4 H 0.6801 0.0948 0.7992
C28_4 C 0.8132(9) 0.1483(6) 0.7948(6)
H16_4 H 0.8008 0.187 0.8189
C29_4 C 0.9158(9) 0.0916(7) 0.7382(7)
H17_4 H 0.9768 0.09 0.7232
C30_4 C 0.8438(9) 0.0364(7) 0.7228(6)
C34_4 C 0.3028(10) 0.0302(7) 0.4484(6)
H20_4 H 0.2502 0.028 0.4121
C35_4 C 0.4451(9) 0.0855(7) 0.5085(6)
H21_4 H 0.4933 0.1232 0.5147
C36_4 C 0.4483(9) 0.0383(6) 0.5560(6)
H22_4 H 0.4991 0.0431 0.5929
C23_4 C 0.6411(17) 0.7987(9) 0.0203(7)
H13_4 H 0.6227 0.8241 0.0525
C1_4 C 0.5303(8) 0.6606(5) 0.5713(6)
C2_4 C 0.4821(8) 0.5980(6) 0.5854(6)
H1_4 H 0.4189 0.6008 0.5979
C3_4 C 0.5282(13) 0.5314(5) 0.5807(7)
C4_4 C 0.6227(13) 0.5273(8) 0.5619(8)
C5_4 C 0.6709(9) 0.5899(11) 0.5478(7)
C6_4 C 0.6248(9) 0.6565(8) 0.5525(6)
H2_4 H 0.6571 0.6984 0.5431
C7_4 C 0.2868(7) 0.6440(6) 0.6968(5)
C8_4 C 0.2264(7) 0.5803(6) 0.7111(5)
C9_4 C 0.2695(9) 0.5317(7) 0.7578(6)
H3_4 H 0.3391 0.5368 0.7794
C10_4 C 0.2095(8) 0.4761(6) 0.7721(6)
H4_4 H 0.2397 0.4445 0.8038
C11_4 C 0.0691(9) 0.5101(7) 0.6945(6)
H5_4 H 0.0012 0.5019 0.6711
C12_4 C 0.1254(9) 0.5678(7) 0.6792(6)
H6_4 H 0.0942 0.5983 0.6468
C16_4 C 0.0544(12) 0.8349(11) 0.6027(9)
H8_4 H 0.0638 0.8559 0.5661
C17_4 C 0.1214(13) 0.8051(10) 0.7013(10)
H9_4 H 0.1768 0.7977 0.7356
C18_4 C 0.0126(13) 0.8052(12) 0.7069(12)
H10_4 H 0.0016 0.7939 0.7459
C19_4 C 0.5544(7) 0.7926(5) 0.8445(4)
C20_4 C 0.6076(8) 0.7803(6) 0.9112(5)
C21_4 C 0.6860(17) 0.7272(9) 0.9251(7)
H11_4 H 0.7053 0.7011 0.8935
C22_4 C 0.7337(19) 0.7145(9) 0.9861(7)
H12_4 H 0.7862 0.6796 0.9944
C24_4 C 0.5928(18) 0.8168(10) 0.9603(7)
H14_4 H 0.5478 0.8564 0.9537
C25_4 C 0.6735(8) 0.9781(5) 0.7245(5)
H18_4 H 0.8564 0.9987 0.6978
C31_4 C 0.3801(7) 0.9244(5) 0.5973(5)
C32_4 C 0.3750(8) 0.9829(6) 0.5488(6)
C33_4 C 0.3011(10) 0.9808(7) 0.4948(6)
H19_4 H 0.2487 0.9459 0.4888
C37_4 C 0.4855(8) 0.7329(6) 0.5837(5)
N2_4 N 0.1381(7) 0.8164(5) 0.6435(5)
O1_4 O 0.3749(4) 0.8105(3) 0.7114(3)
H23_4 H 0.3359 0.8053 0.744
O2_4 O 0.5827(5) 0.8129(3) 0.7052(3)
H24_4 H 0.6496 0.809 0.7361
O3_4 O 0.2392(5) 0.6837(4) 0.6536(3)
O4_4 O 0.3789(5) 0.6530(4) 0.7286(4)
O7_4 O 0.5353(6) 0.7374(4) 0.8114(3)
O8_4 O 0.5331(5) 0.8561(4) 0.8273(3)
O9_4 O 0.6066(5) 0.9657(4) 0.7557(4)
O10_4 O 0.6832(5) 0.9451(4) 0.6765(4)
O11_4 O 0.3026(5) 0.8835(4) 0.5907(3)
O12_4 O 0.4643(5) 0.9208(4) 0.6394(3)
O13_4 O 0.4239(5) 0.7300(4) 0.6194(3)
O14_4 O 0.5276(8) 0.7872(5) 0.5678(4)
O15_4 O 0.489(2) 0.4685(9) 0.5921(11)
C38_4 C 0.402(4) 0.4716(16) 0.618(2)
H25_4 H 0.3412 0.4848 0.5865
H26_4 H 0.3911 0.4254 0.6347
H27_4 H 0.4141 0.507 0.6505
O16_3 O 0.669(2) 0.4609(15) 0.5531(12)
O17_4 O 0.7676(18) 0.5872(19) 0.5262(13)
C39_4 C 0.850(3) 0.623(4) 0.563(3)
H28_4 H 0.8384 0.6739 0.5586
H29_4 H 0.8543 0.6097 0.606
H30_4 H 0.9139 0.6101 0.552
C40_3 C 0.733(4) 0.431(3) 0.599(2)
H31_3 H 0.7092 0.3828 0.6042
H32_3 H 0.802 0.4288 0.5905
H33_3 H 0.7355 0.4581 0.636
O18_2 O 0.7512(7) 0.8188(5) 0.6297(5)
C13_4 C 0.8166(13) 0.8169(8) 0.6754(9)
C14_4 C 0.9328(13) 0.8185(9) 0.6661(8)
C15_4 C 0.9444(12) 0.8253(12) 0.6095(8)
H7_4 H 0.8874 0.8242 0.5754
O5_4 O 0.8078(8) 0.8112(7) 0.7273(6)
O16_4 O 0.831(2) 0.9609(15) 0.9469(12)
C40_4 C 0.767(4) 0.931(3) 0.901(2)
H31_4 H 0.7908 0.8828 0.8958
H32_4 H 0.698 0.9288 0.9095
H33_4 H 0.7645 0.9581 0.864
loop_
_geom_bond_atom_site_label_1
_geom_bond_atom_site_label_2
_geom_bond_site_symmetry_1
_geom_bond_site_symmetry_2
C40 O16 1_555 1_555
H31 C40 1_555 1_555
H32 C40 1_555 1_555
H33 C40 1_555 1_555
C4 C3 1_555 1_555
C5 C4 1_555 1_555
C6 C1 1_555 1_555
H2 C6 1_555 1_555
C19 C20 1_555 1_555
C20 C21 1_555 1_555
C21 H11 1_555 1_555
C22 C21 1_555 1_555
H12 C22 1_555 1_555
C23 H13 1_555 1_555
C24 C20 1_555 1_555
H14 C24 1_555 1_555
C25 C26 1_555 1_555
C26 C27 1_555 1_555
C27 H15 1_555 1_555
C28 C27 1_555 1_555
H16 C28 1_555 1_555
C29 H17 1_555 1_555
C30 C26 1_555 1_555
H18 C30 1_555 1_555
N3 C22 1_555 1_555
N4 C28 1_555 1_555
O2 H24 1_555 1_555
O7 C19 1_555 1_555
O8 C19 1_555 1_555
O9 C25 1_555 1_555
O10 C25 1_555 1_555
Ni4 O2 1_555 1_555
O17 C5 1_555 1_555
C39 O17 1_555 1_555
H28 C39 1_555 1_555
H29 C39 1_555 1_555
H30 C39 1_555 1_555
N9 Ni4 1_555 1_555
O18 Ni4 1_555 1_555
Ni5 N3 1_555 1_555
Ni6 N4 1_555 1_555
C5 C6 1_555 1_555
C23 C24 1_555 1_555
C23 N3 1_555 1_555
C29 C30 1_555 1_555
C29 N4 1_555 1_555
O10 Ni4 1_555 1_555
O14 Ni4 1_555 1_555
H4 C10 1_555 1_555
N1 C10 1_555 1_555
C38 O15 1_555 1_555
H25 C38 1_555 1_555
H26 C38 1_555 1_555
Ni7 N1 1_555 1_555
C2 H1 1_555 1_555
C7 C8 1_555 1_555
C8 C9 1_555 1_555
C9 H3 1_555 1_555
C11 H5 1_555 1_555
C12 C8 1_555 1_555
H6 C12 1_555 1_555
C13 C14 1_555 1_555
C14 C15 1_555 1_555
C15 H7 1_555 1_555
C16 C15 1_555 1_555
H8 C16 1_555 1_555
C17 H9 1_555 1_555
C18 C14 1_555 1_555
H10 C18 1_555 1_555
C31 C32 1_555 1_555
C35 H21 1_555 1_555
C36 C32 1_555 1_555
H22 C36 1_555 1_555
N2 C16 1_555 1_555
O1 H23 1_555 1_555
O3 C7 1_555 1_555
O4 C7 1_555 1_555
O5 C13 1_555 1_555
O18 C13 1_555 1_555
O11 C31 1_555 1_555
O12 C31 1_555 1_555
O13 C37 1_555 1_555
Ni1 N2 1_555 1_555
Ni2 O1 1_555 1_555
Ni3 O1 1_555 1_555
N6 Ni3 1_555 1_555
N7 Ni1 1_555 1_555
C11 C12 1_555 1_555
C17 C18 1_555 1_555
C17 N2 1_555 1_555
C35 C36 1_555 1_555
O1 Ni1 1_555 1_555
O3 Ni1 1_555 1_555
O4 Ni2 1_555 1_555
O11 Ni1 1_555 1_555
O12 Ni3 1_555 1_555
O13 Ni1 1_555 1_555
O13 Ni2 1_555 1_555
C33 H19 1_555 1_555
C34 C33 1_555 1_555
H20 C34 1_555 1_555
N5 C34 1_555 1_555
Ni9 N5 1_555 1_555
C13_2 C14_2 1_555 1_555
C14_2 C15_2 1_555 1_555
C15_2 H7_2 1_555 1_555
O5_2 C13_2 1_555 1_555
O6 C13_2 1_555 1_555
Ni8 O6 1_555 1_555
C1_2 C2_2 1_555 1_555
C2_2 H1_2 1_555 1_555
C3_2 C2_2 1_555 1_555
C4_2 C3_2 1_555 1_555
C5_2 C4_2 1_555 1_555
C6_2 C1_2 1_555 1_555
H2_2 C6_2 1_555 1_555
C7_2 C8_2 1_555 1_555
C8_2 C9_2 1_555 1_555
C9_2 H3_2 1_555 1_555
C10_2 C9_2 1_555 1_555
H4_2 C10_2 1_555 1_555
C11_2 H5_2 1_555 1_555
C12_2 C8_2 1_555 1_555
H6_2 C12_2 1_555 1_555
H8_2 C16_2 1_555 1_555
C17_2 H9_2 1_555 1_555
H10_2 C18_2 1_555 1_555
C19_2 C20_2 1_555 1_555
C20_2 C21_2 1_555 1_555
C21_2 H11_2 1_555 1_555
C22_2 C21_2 1_555 1_555
H12_2 C22_2 1_555 1_555
C24_2 C20_2 1_555 1_555
H14_2 C24_2 1_555 1_555
C31_2 C32_2 1_555 1_555
C32_2 C33_2 1_555 1_555
C33_2 H19_2 1_555 1_555
C37_2 C1_2 1_555 1_555
N6 C10_2 1_555 1_555
N2_2 C16_2 1_555 1_555
O1_2 H23_2 1_555 1_555
O2_2 H24_2 1_555 1_555
O3_2 C7_2 1_555 1_555
O4_2 C7_2 1_555 1_555
O7_2 C19_2 1_555 1_555
O8_2 C19_2 1_555 1_555
O9_2 C25_2 1_555 1_555
O10_2 C25_2 1_555 1_555
O11_2 C31_2 1_555 1_555
O12_2 C31_2 1_555 1_555
O13_2 C37_2 1_555 1_555
O14_2 C37_2 1_555 1_555
Ni1_2 N2_2 1_555 1_555
Ni6 O1_2 1_555 1_555
Ni7 O1_2 1_555 1_555
Ni8 O2_2 1_555 1_555
O15_2 C3_2 1_555 1_555
C38_2 O15_2 1_555 1_555
H25_2 C38_2 1_555 1_555
H26_2 C38_2 1_555 1_555
H27_2 C38_2 1_555 1_555
O16_2 C4_2 1_555 1_555
O17_2 C5_2 1_555 1_555
C39_2 O17_2 1_555 1_555
H28_2 C39_2 1_555 1_555
H29_2 C39_2 1_555 1_555
H30_2 C39_2 1_555 1_555
C40_2 O16_2 1_555 1_555
H31_2 C40_2 1_555 1_555
H32_2 C40_2 1_555 1_555
H33_2 C40_2 1_555 1_555
N7_2 Ni1_2 1_555 1_555
N9_2 Ni8 1_555 1_555
C5_2 C6_2 1_555 1_555
C11_2 C12_2 1_555 1_555
C11_2 N6 1_555 1_555
C17_2 C18_2 1_555 1_555
C17_2 N2_2 1_555 1_555
O1_2 Ni1_2 1_555 1_555
O2_2 Ni6 1_555 1_555
O2_2 Ni7 1_555 1_555
O3_2 Ni1_2 1_555 1_555
O4_2 Ni6 1_555 1_555
O7_2 Ni6 1_555 1_555
O8_2 Ni7 1_555 1_555
O9_2 Ni7 1_555 1_555
O10_2 Ni8 1_555 1_555
O11_2 Ni1_2 1_555 1_555
O12_2 Ni7 1_555 1_555
O12_2 Ni8 1_555 1_555
O13_2 Ni1_2 1_555 1_555
O13_2 Ni6 1_555 1_555
O14_2 Ni8 1_555 1_555
C23_2 H13_2 1_555 1_555
Ni5_2 N3_2 1_555 1_555
C23_2 N3_2 1_555 1_555
C26_2 C27_2 1_555 1_555
C27_2 H15_2 1_555 1_555
C28_2 C27_2 1_555 1_555
H16_2 C28_2 1_555 1_555
C29_2 H17_2 1_555 1_555
C30_2 C26_2 1_555 1_555
H20_2 C34_2 1_555 1_555
C35_2 H21_2 1_555 1_555
H22_2 C36_2 1_555 1_555
N8 C28_2 1_555 1_555
N5_2 C34_2 1_555 1_555
Ni9_2 N5_2 1_555 1_555
C29_2 C30_2 1_555 1_555
C29_2 N8 1_555 1_555
C35_2 C36_2 1_555 1_555
C35_2 N5_2 1_555 1_555
C33_3 H19_3 1_555 1_555
C34_3 C33_3 1_555 1_555
H20_3 C34_3 1_555 1_555
N9 C34_3 1_555 1_555
C2_3 H1_3 1_555 1_555
C7_3 C8_3 1_555 1_555
C8_3 C9_3 1_555 1_555
C9_3 H3_3 1_555 1_555
C11_3 H5_3 1_555 1_555
C12_3 C8_3 1_555 1_555
H6_3 C12_3 1_555 1_555
C13_3 C14_3 1_555 1_555
C14_3 C15_3 1_555 1_555
C15_3 H7_3 1_555 1_555
C16_3 C15_3 1_555 1_555
H8_3 C16_3 1_555 1_555
C17_3 H9_3 1_555 1_555
C18_3 C14_3 1_555 1_555
H10_3 C18_3 1_555 1_555
C31_3 C32_3 1_555 1_555
C35_3 H21_3 1_555 1_555
C36_3 C32_3 1_555 1_555
H22_3 C36_3 1_555 1_555
N2_3 C16_3 1_555 1_555
O1_3 H23_3 1_555 1_555
O3_3 C7_3 1_555 1_555
O4_3 C7_3 1_555 1_555
O5_3 C13_3 1_555 1_555
O6_2 C13_3 1_555 1_555
O11_3 C31_3 1_555 1_555
O12_3 C31_3 1_555 1_555
O13_3 C37_3 1_555 1_555
Ni5_2 N2_3 1_555 1_555
Ni2_2 O1_3 1_555 1_555
Ni3_2 O1_3 1_555 1_555
N6_2 Ni3_2 1_555 1_555
Ni9 O6_2 1_555 1_555
C11_3 C12_3 1_555 1_555
C17_3 C18_3 1_555 1_555
C17_3 N2_3 1_555 1_555
C35_3 C36_3 1_555 1_555
O1_3 Ni5_2 1_555 1_555
O3_3 Ni5_2 1_555 1_555
O4_3 Ni2_2 1_555 1_555
O11_3 Ni5_2 1_555 1_555
O12_3 Ni3_2 1_555 1_555
O13_3 Ni5_2 1_555 1_555
O13_3 Ni2_2 1_555 1_555
H4_3 C10_3 1_555 1_555
N1_2 C10_3 1_555 1_555
C38_3 O15_3 1_555 1_555
H25_3 C38_3 1_555 1_555
H26_3 C38_3 1_555 1_555
Ni7_2 N1_2 1_555 1_555
C4_3 C3_3 1_555 1_555
C5_3 C4_3 1_555 1_555
C6_3 C1_3 1_555 1_555
H2_3 C6_3 1_555 1_555
C19_3 C20_3 1_555 1_555
C20_3 C21_3 1_555 1_555
C21_3 H11_3 1_555 1_555
C22_3 C21_3 1_555 1_555
H12_3 C22_3 1_555 1_555
C23_3 H13_3 1_555 1_555
C24_3 C20_3 1_555 1_555
H14_3 C24_3 1_555 1_555
C25_3 C26_3 1_555 1_555
C26_3 C27_3 1_555 1_555
C27_3 H15_3 1_555 1_555
C28_3 C27_3 1_555 1_555
H16_3 C28_3 1_555 1_555
C29_3 H17_3 1_555 1_555
C30_3 C26_3 1_555 1_555
H18_3 C30_3 1_555 1_555
N7_2 C22_3 1_555 1_555
N4_2 C28_3 1_555 1_555
O2_3 H24_3 1_555 1_555
O7_3 C19_3 1_555 1_555
O8_3 C19_3 1_555 1_555
O9_3 C25_3 1_555 1_555
O10_3 C25_3 1_555 1_555
Ni9 O2_3 1_555 1_555
O17_3 C5_3 1_555 1_555
C39_3 O17_3 1_555 1_555
H28_3 C39_3 1_555 1_555
H29_3 C39_3 1_555 1_555
H30_3 C39_3 1_555 1_555
Ni6_2 N4_2 1_555 1_555
C5_3 C6_3 1_555 1_555
C23_3 C24_3 1_555 1_555
C23_3 N7_2 1_555 1_555
C29_3 C30_3 1_555 1_555
C29_3 N4_2 1_555 1_555
O10_3 Ni9 1_555 1_555
O14_3 Ni9 1_555 1_555
C26_4 C27_4 1_555 1_555
C27_4 H15_4 1_555 1_555
C28_4 C27_4 1_555 1_555
H16_4 C28_4 1_555 1_555
C29_4 H17_4 1_555 1_555
C30_4 C26_4 1_555 1_555
H20_4 C34_4 1_555 1_555
C35_4 H21_4 1_555 1_555
H22_4 C36_4 1_555 1_555
N8_2 C28_4 1_555 1_555
N9_2 C34_4 1_555 1_555
C29_4 C30_4 1_555 1_555
C29_4 N8_2 1_555 1_555
C35_4 C36_4 1_555 1_555
C35_4 N9_2 1_555 1_555
C23_4 H13_4 1_555 1_555
C23_4 N7 1_555 1_555
C1_4 C2_4 1_555 1_555
C2_4 H1_4 1_555 1_555
C3_4 C2_4 1_555 1_555
C4_4 C3_4 1_555 1_555
C5_4 C4_4 1_555 1_555
C6_4 C1_4 1_555 1_555
H2_4 C6_4 1_555 1_555
C7_4 C8_4 1_555 1_555
C8_4 C9_4 1_555 1_555
C9_4 H3_4 1_555 1_555
C10_4 C9_4 1_555 1_555
H4_4 C10_4 1_555 1_555
C11_4 H5_4 1_555 1_555
C12_4 C8_4 1_555 1_555
H6_4 C12_4 1_555 1_555
H8_4 C16_4 1_555 1_555
C17_4 H9_4 1_555 1_555
H10_4 C18_4 1_555 1_555
C19_4 C20_4 1_555 1_555
C20_4 C21_4 1_555 1_555
C21_4 H11_4 1_555 1_555
C22_4 C21_4 1_555 1_555
H12_4 C22_4 1_555 1_555
C24_4 C20_4 1_555 1_555
H14_4 C24_4 1_555 1_555
C31_4 C32_4 1_555 1_555
C32_4 C33_4 1_555 1_555
C33_4 H19_4 1_555 1_555
C37_4 C1_4 1_555 1_555
N6_2 C10_4 1_555 1_555
N2_4 C16_4 1_555 1_555
O1_4 H23_4 1_555 1_555
O2_4 H24_4 1_555 1_555
O3_4 C7_4 1_555 1_555
O4_4 C7_4 1_555 1_555
O7_4 C19_4 1_555 1_555
O8_4 C19_4 1_555 1_555
O9_4 C25_4 1_555 1_555
O10_4 C25_4 1_555 1_555
O11_4 C31_4 1_555 1_555
O12_4 C31_4 1_555 1_555
O13_4 C37_4 1_555 1_555
O14_4 C37_4 1_555 1_555
Ni5 N2_4 1_555 1_555
Ni6_2 O1_4 1_555 1_555
Ni7_2 O1_4 1_555 1_555
Ni9_2 O2_4 1_555 1_555
O15_4 C3_4 1_555 1_555
C38_4 O15_4 1_555 1_555
H25_4 C38_4 1_555 1_555
H26_4 C38_4 1_555 1_555
H27_4 C38_4 1_555 1_555
O16_3 C4_4 1_555 1_555
O17_4 C5_4 1_555 1_555
C39_4 O17_4 1_555 1_555
H28_4 C39_4 1_555 1_555
H29_4 C39_4 1_555 1_555
H30_4 C39_4 1_555 1_555
C40_3 O16_3 1_555 1_555
H31_3 C40_3 1_555 1_555
H32_3 C40_3 1_555 1_555
H33_3 C40_3 1_555 1_555
O18_2 Ni9_2 1_555 1_555
C5_4 C6_4 1_555 1_555
C11_4 C12_4 1_555 1_555
C11_4 N6_2 1_555 1_555
C17_4 C18_4 1_555 1_555
C17_4 N2_4 1_555 1_555
O1_4 Ni5 1_555 1_555
O2_4 Ni6_2 1_555 1_555
O2_4 Ni7_2 1_555 1_555
O3_4 Ni5 1_555 1_555
O4_4 Ni6_2 1_555 1_555
O7_4 Ni6_2 1_555 1_555
O8_4 Ni7_2 1_555 1_555
O9_4 Ni7_2 1_555 1_555
O10_4 Ni9_2 1_555 1_555
O11_4 Ni5 1_555 1_555
O12_4 Ni7_2 1_555 1_555
O12_4 Ni9_2 1_555 1_555
O13_4 Ni5 1_555 1_555
O13_4 Ni6_2 1_555 1_555
O14_4 Ni9_2 1_555 1_555
C13_4 C14_4 1_555 1_555
C14_4 C15_4 1_555 1_555
C15_4 H7_4 1_555 1_555
O5_4 C13_4 1_555 1_555
O18_2 C13_4 1_555 1_555
C40_4 O16_4 1_555 1_555
H31_4 C40_4 1_555 1_555
H32_4 C40_4 1_555 1_555
H33_4 C40_4 1_555 1_555

#END
