
###############################################################################
#
# This file contains modified crystal structure data generated from the
# MOF subset of the Cambridge Structural Database (CSD) v543 
# hosted by the Cambridge Crystallographic Data Centre (CCDC).
#
# This work is licensed under the Creative Commons
# Attribution-NonCommercial-ShareAlike 4.0 International License.
# To view a copy of this license, visit
# http://creativecommons.org/licenses/by-nc-sa/4.0/
# or send a letter to
# Creative Commons, PO Box 1866, Mountain View, CA 94042, USA.
#
# CIF created using the CSD Python API on 29 September 2022
# The structure has been converted into the P1 space group
# The structure has a 3D framework
# The original CSD entry LODBAJ is in the monoclinic crystal system
# The framework has been calculated to contain at least 10.0% void space
# The void calculation uses a probe of radius 1.32A, grid spacing 0.4
#
###############################################################################

data_LODBAJ
_chemical_formula_moiety         '(C156 H124 N20 Ni16 O64)n'
_symmetry_cell_setting           triclinic
_symmetry_space_group_name_H-M   'P 1'
_symmetry_Int_Tables_number      1
_space_group_name_Hall           'P 1'
loop_
_symmetry_equiv_pos_site_id
_symmetry_equiv_pos_as_xyz
1 x,y,z
_cell_length_a                   13.2430(6)
_cell_length_b                   18.2511(8)
_cell_length_c                   21.8973(10)
_cell_angle_alpha                90
_cell_angle_beta                 104.1740(10)
_cell_angle_gamma                90
_cell_volume                     5131.44
loop_
_atom_site_label
_atom_site_type_symbol
_atom_site_fract_x
_atom_site_fract_y
_atom_site_fract_z
C13 C 0.0470(4) 0.7118(3) 0.3427(2)
C14 C 0.0928(5) 0.7270(3) 0.4114(3)
C15 C 0.1106(7) 0.7983(4) 0.4316(3)
H9 H 0.091 0.8368 0.4033
C16 C 0.1576(7) 0.8124(4) 0.4938(3)
H10 H 0.168 0.8611 0.5065
C17 C 0.1683(6) 0.6917(4) 0.5173(3)
H11 H 0.1863 0.6543 0.5468
C18 C 0.1216(6) 0.6727(4) 0.4557(3)
H12 H 0.1099 0.6238 0.4444
C19 C 0.1813(5) 0.5295(3) 0.2263(3)
C20 C 0.2630(5) 0.4709(3) 0.2483(3)
C21 C 0.2546(5) 0.4168(4) 0.2917(3)
H13 H 0.1992 0.4172 0.3108
C22 C 0.3299(5) 0.3624(3) 0.3059(3)
H14 H 0.3232 0.3263 0.3347
C23 C 0.4196(5) 0.4112(3) 0.2387(3)
H15 H 0.4755 0.4095 0.22
C24 C 0.3485(5) 0.4676(4) 0.2223(3)
H16 H 0.3579 0.5032 0.1938
H19 H 0.0002 0.373 0.0169
H20 H 0.0032 0.4571 0.096
N3 N 0.1889(4) 0.7605(3) 0.5368(2)
N4 N 0.4119(4) 0.3592(2) 0.2802(2)
O2 O 0.0815(3) 0.69219(19) 0.20426(16)
H22 H 0.1477 0.6989 0.2356
O7 O 0.0268(3) 0.7677(2) 0.30810(18)
O8 O 0.0337(3) 0.6464(2) 0.32617(18)
O9 O 0.1150(3) 0.5393(2) 0.2570(2)
O10 O 0.1872(3) 0.5621(2) 0.1768(2)
O14 O 0.0308(3) 0.7260(2) 0.06536(19)
Ni4 Ni 0.10604(5) 0.64643(4) 0.12626(3)
N8 N 0.0881(4) 0.8592(2) 0.2198(2)
N9 N 0.1210(4) 0.5887(3) 0.0446(2)
O17 O 0.2477(3) 0.6946(3) 0.1324(2)
Ni5 Ni 0.27179(5) 0.78802(4) 0.62845(3)
Ni6 Ni 0.51978(5) 0.27309(3) 0.28821(3)
C4 C 0.7028(5) 0.0270(4) 0.2688(3)
H2 H 0.734 0.0615 0.2987
N1 N 0.6010(4) 0.0331(3) 0.2422(2)
H29 H 0.9481 0.0184 0.0829
Ni7 Ni 0.50683(5) 0.11343(3) 0.26615(3)
C1 C 0.7805(4) 0.8554(3) 0.1949(2)
C2 C 0.7196(5) 0.9195(3) 0.2107(3)
C3 C 0.7636(5) 0.9719(4) 0.2539(3)
H1 H 0.8345 0.9703 0.2731
C5 C 0.5596(5) 0.9849(4) 0.1970(3)
H3 H 0.4901 0.9903 0.1757
C6 C 0.6153(5) 0.9276(4) 0.1808(4)
H4 H 0.583 0.8945 0.1499
C7 C 0.3191(5) 0.6949(4) 0.1831(3)
C8 C 0.4287(5) 0.6872(4) 0.1737(3)
C9 C 0.4450(6) 0.6636(7) 0.1183(4)
H5 H 0.3887 0.6512 0.0853
C10 C 0.5466(7) 0.6580(7) 0.1109(5)
H6 H 0.5549 0.6395 0.0728
C11 C 0.6118(6) 0.6973(6) 0.2075(4)
H7 H 0.669 0.7097 0.24
C12 C 0.5150(6) 0.7021(6) 0.2204(4)
H8 H 0.5088 0.7153 0.2604
C25 C 0.8797(4) 0.5737(3) 0.0979(2)
C26 C 0.8759(4) 0.5128(3) 0.0499(3)
C29 C 0.9497(5) 0.4095(4) 0.0104(3)
C30 C 0.9517(5) 0.4596(3) 0.0586(3)
C31 C 0.9546(4) 0.7657(3) 0.0680(3)
N2 N 0.6314(4) 0.6769(3) 0.1533(3)
O1 O 0.8737(3) 0.68938(18) 0.21158(16)
H21 H 0.8404 0.6952 0.2466
O3 O 0.7290(3) 0.8107(2) 0.15589(18)
O4 O 0.8745(3) 0.8512(2) 0.22289(18)
O5 O 0.3074(4) 0.7019(4) 0.2376(2)
O11 O 0.7977(3) 0.6097(2) 0.09417(18)
O12 O 0.9655(3) 0.5828(2) 0.13729(17)
O13 O 0.9096(3) 0.7658(2) 0.11297(17)
Ni1 Ni 0.77179(5) 0.71198(4) 0.12845(3)
Ni2 Ni 0.98022(5) 0.77309(3) 0.21179(3)
Ni3 Ni 0.99317(5) 0.61343(3) 0.23385(3)
C32 C 0.9141(5) 0.8181(4) 0.0139(3)
O15 O 0.9420(6) 0.9127(3) 0.0880(3)
C36 C 0.9074(7) 0.8927(4) 0.0263(4)
C39 C 0.9209(10) 0.9826(5) 0.1068(5)
H30 H 0.9532 0.9888 0.1508
H31 H 0.847 0.989 0.0998
N6 N 0.8990(4) 0.5331(3) 0.2578(2)
N7 N 0.6889(4) 0.7395(3) 0.0368(2)
C27 C 0.7965(6) 0.5096(5) 0.9955(3)
H17 H 0.7402 0.5414 0.9901
C28 C 0.8011(5) 0.4595(4) 0.9497(3)
H18 H 0.7477 0.459 0.9131
N5 N 0.8790(4) 0.4113(3) 0.9554(2)
C33 C 0.8824(6) 0.7934(5) 0.9513(3)
C34 C 0.8466(8) 0.8449(6) 0.9028(4)
H23 H 0.8288 0.8299 0.861
C35 C 0.8383(9) 0.9165(6) 0.9175(5)
H24 H 0.8111 0.9494 0.8853
C37 C 0.8684(9) 0.9422(5) 0.9781(5)
H25 H 0.8629 0.9917 0.9867
C38 C 0.8509(10) 0.6934(7) 0.8785(4)
H26 H 0.7804 0.7088 0.8612
H27 H 0.8541 0.6408 0.8788
H28 H 0.8947 0.7124 0.8532
O16 O 0.8858(5) 0.7203(3) 0.9416(2)
Ni9 Ni 0.89396(5) 0.35357(4) 0.87374(3)
H3_2 H 0.0099 0.4903 0.3243
C7_2 C 0.1809(5) 0.1949(4) 0.3169(3)
C8_2 C 0.0713(5) 0.1872(4) 0.3263(3)
C9_2 C 0.0550(6) 0.1636(7) 0.3817(4)
H5_2 H 0.1113 0.1512 0.4147
O5_2 O 0.1926(4) 0.2019(4) 0.2624(2)
O6 O 0.2523(3) 0.1946(3) 0.3676(2)
Ni8 Ni 0.39396(5) 0.14643(4) 0.37374(3)
C1_2 C 0.7195(4) 0.3554(3) 0.3051(2)
C2_2 C 0.7804(5) 0.4195(3) 0.2893(3)
C3_2 C 0.7364(5) 0.4719(4) 0.2461(3)
H1_2 H 0.6655 0.4703 0.2269
C4_2 C 0.7972(5) 0.5270(4) 0.2312(3)
H2_2 H 0.766 0.5615 0.2013
C5_2 C 0.9404(5) 0.4849(4) 0.3030(3)
C6_2 C 0.8847(5) 0.4276(4) 0.3192(4)
H4_2 H 0.917 0.3945 0.3501
C10_2 C 0.9534(7) 0.1580(7) 0.3891(5)
H6_2 H 0.9451 0.1395 0.4272
C11_2 C 0.8882(6) 0.1973(6) 0.2925(4)
H7_2 H 0.831 0.2097 0.26
C12_2 C 0.9850(6) 0.2021(6) 0.2796(4)
H8_2 H 0.9912 0.2153 0.2396
C13_2 C 0.4530(4) 0.2118(3) 0.1573(2)
C14_2 C 0.4072(5) 0.2270(3) 0.0886(3)
C15_2 C 0.3894(7) 0.2983(4) 0.0684(3)
H9_2 H 0.409 0.3368 0.0967
C16_2 C 0.3424(7) 0.3124(4) 0.0062(3)
C18_2 C 0.3784(6) 0.1727(4) 0.0443(3)
H12_2 H 0.3901 0.1238 0.0556
C19_2 C 0.3187(5) 0.0295(3) 0.2737(3)
H16_2 H 0.1421 0.0032 0.3062
C25_2 C 0.6203(4) 0.0737(3) 0.4021(2)
C26_2 C 0.6241(4) 0.0128(3) 0.4501(3)
C27_2 C 0.7035(6) 0.0096(5) 0.5045(3)
H17_2 H 0.7598 0.0414 0.5099
C31_2 C 0.5454(4) 0.2657(3) 0.4320(3)
N2_2 N 0.8686(4) 0.1769(3) 0.3467(3)
O1_2 O 0.6263(3) 0.18938(18) 0.28842(16)
H21_2 H 0.6596 0.1952 0.2534
O2_2 O 0.4185(3) 0.19219(19) 0.29574(16)
H22_2 H 0.3523 0.1989 0.2644
O3_2 O 0.7710(3) 0.3107(2) 0.34411(18)
O4_2 O 0.6255(3) 0.3512(2) 0.27711(18)
O7_2 O 0.4732(3) 0.2677(2) 0.19190(18)
O8_2 O 0.4663(3) 0.1464(2) 0.17383(18)
O9_2 O 0.3850(3) 0.0393(2) 0.2430(2)
O10_2 O 0.3128(3) 0.0621(2) 0.3232(2)
O11_2 O 0.7023(3) 0.1097(2) 0.40583(18)
O12_2 O 0.5345(3) 0.0828(2) 0.36271(17)
O13_2 O 0.5904(3) 0.2658(2) 0.38703(17)
O14_2 O 0.4692(3) 0.2260(2) 0.43464(19)
Ni1_2 Ni 0.72821(5) 0.21198(4) 0.37155(3)
C32_2 C 0.5859(5) 0.3181(4) 0.4861(3)
O15_2 O 0.5580(6) 0.4127(3) 0.4120(3)
C33_2 C 0.6176(6) 0.2934(5) 0.5487(3)
C34_2 C 0.6534(8) 0.3449(6) 0.5972(4)
H23_2 H 0.6712 0.3299 0.639
C35_2 C 0.6617(9) 0.4165(6) 0.5825(5)
H24_2 H 0.6889 0.4494 0.6147
C36_2 C 0.5926(7) 0.3927(4) 0.4737(4)
C37_2 C 0.6316(9) 0.4422(5) 0.5219(5)
H25_2 H 0.6371 0.4917 0.5133
C38_2 C 0.6491(10) 0.1934(7) 0.6215(4)
H26_2 H 0.7196 0.2088 0.6388
H27_2 H 0.6459 0.1408 0.6212
H28_2 H 0.6053 0.2124 0.6468
C39_2 C 0.5791(10) 0.4826(5) 0.3932(5)
H29_2 H 0.5519 0.5184 0.4171
H30_2 H 0.5468 0.4888 0.3492
H31_2 H 0.653 0.489 0.4002
O16_2 O 0.6142(5) 0.2203(3) 0.5584(2)
N7_2 N 0.8111(4) 0.2395(3) 0.4632(2)
N9_2 N 0.3790(4) 0.0887(3) 0.4554(2)
H10_2 H 0.332 0.3611 0.9935
C17_2 C 0.3317(6) 0.1917(4) 0.9827(3)
H11_2 H 0.3137 0.1543 0.9532
N3_2 N 0.3111(4) 0.2605(3) 0.9632(2)
Ni5_2 Ni 0.22821(5) 0.28802(4) 0.87155(3)
C20_2 C 0.2370(5) 0.9709(3) 0.2517(3)
C21_2 C 0.2454(5) 0.9168(4) 0.2083(3)
H13_2 H 0.3008 0.9172 0.1892
C22_2 C 0.1701(5) 0.8624(3) 0.1941(3)
H14_2 H 0.1768 0.8263 0.1653
C23_2 C 0.0804(5) 0.9112(3) 0.2613(3)
H15_2 H 0.0245 0.9095 0.28
C24_2 C 0.1515(5) 0.9676(4) 0.2777(3)
C28_2 C 0.6989(5) 0.9595(4) 0.5503(3)
H18_2 H 0.7523 0.959 0.5869
C29_2 C 0.5503(5) 0.9095(4) 0.4896(3)
H19_2 H 0.4998 0.873 0.4831
C30_2 C 0.5483(5) 0.9596(3) 0.4414(3)
H20_2 H 0.4968 0.9571 0.404
N5_2 N 0.6210(4) 0.9113(3) 0.5446(2)
Ni9_2 Ni 0.60604(5) 0.85357(4) 0.62626(3)
C27_3 C 0.2035(6) 0.4904(5) 0.0045(3)
H17_3 H 0.2598 0.4586 0.0099
C28_3 C 0.1989(5) 0.5405(4) 0.0503(3)
H18_3 H 0.2523 0.541 0.0869
C33_3 C 0.1176(6) 0.2066(5) 0.0487(3)
C34_3 C 0.1534(8) 0.1551(6) 0.0972(4)
H23_3 H 0.1712 0.1701 0.139
C35_3 C 0.1617(9) 0.0835(6) 0.0825(5)
H24_3 H 0.1889 0.0506 0.1147
C37_3 C 0.1316(9) 0.0578(5) 0.0219(5)
H25_3 H 0.1371 0.0083 0.0133
C38_3 C 0.1491(10) 0.3066(7) 0.1215(4)
H26_3 H 0.2196 0.2912 0.1388
H27_3 H 0.1459 0.3592 0.1212
H28_3 H 0.1053 0.2876 0.1468
O16_3 O 0.1142(5) 0.2797(3) 0.0584(2)
C1_3 C 0.2195(4) 0.1446(3) 0.8051(2)
C2_3 C 0.2804(5) 0.0805(3) 0.7893(3)
C3_3 C 0.2364(5) 0.0281(4) 0.7461(3)
H1_3 H 0.1655 0.0297 0.7269
C5_3 C 0.4404(5) 0.0151(4) 0.8030(3)
H3_3 H 0.5099 0.0097 0.8243
C6_3 C 0.3847(5) 0.0724(4) 0.8192(4)
H4_3 H 0.417 0.1055 0.8501
C7_3 C 0.6809(5) 0.3051(4) 0.8169(3)
C8_3 C 0.5713(5) 0.3128(4) 0.8263(3)
C9_3 C 0.5550(6) 0.3364(7) 0.8817(4)
H5_3 H 0.6113 0.3488 0.9147
C10_3 C 0.4534(7) 0.3420(7) 0.8891(5)
H6_3 H 0.4451 0.3605 0.9272
C11_3 C 0.3882(6) 0.3027(6) 0.7925(4)
H7_3 H 0.331 0.2903 0.76
C12_3 C 0.4850(6) 0.2979(6) 0.7796(4)
H8_3 H 0.4912 0.2847 0.7396
C25_3 C 0.1203(4) 0.4263(3) 0.9021(2)
C26_3 C 0.1241(4) 0.4872(3) 0.9501(3)
C29_3 C 0.0503(5) 0.5905(4) 0.9896(3)
C30_3 C 0.0483(5) 0.5404(3) 0.9414(3)
C31_3 C 0.0454(4) 0.2343(3) 0.9320(3)
N2_3 N 0.3686(4) 0.3231(3) 0.8467(3)
O1_3 O 0.1263(3) 0.31062(18) 0.78842(16)
H21_3 H 0.1596 0.3048 0.7534
O3_3 O 0.2710(3) 0.1893(2) 0.84411(18)
O4_3 O 0.1255(3) 0.1488(2) 0.77711(18)
O5_3 O 0.6926(4) 0.2981(4) 0.7624(2)
O6_2 O 0.7523(3) 0.3054(3) 0.8676(2)
O11_3 O 0.2023(3) 0.3903(2) 0.90583(18)
O12_3 O 0.0345(3) 0.4172(2) 0.86271(17)
O13_3 O 0.0904(3) 0.2342(2) 0.88703(17)
Ni2_2 Ni 0.01978(5) 0.22691(3) 0.78821(3)
Ni3_2 Ni 0.00683(5) 0.38657(3) 0.76615(3)
C32_3 C 0.0859(5) 0.1819(4) 0.9861(3)
O15_3 O 0.0580(6) 0.0873(3) 0.9120(3)
C36_3 C 0.0926(7) 0.1073(4) 0.9737(4)
C39_3 C 0.0791(10) 0.0174(5) 0.8932(5)
H30_3 H 0.0468 0.0112 0.8492
H31_3 H 0.153 0.011 0.9002
N6_2 N 0.1010(4) 0.4669(3) 0.7422(2)
C4_3 C 0.2972(5) 0.9730(4) 0.7312(3)
H2_3 H 0.266 0.9385 0.7013
N1_2 N 0.3990(4) 0.9669(3) 0.7578(2)
H29_3 H 0.0519 0.9816 0.9171
Ni7_2 Ni 0.49317(5) 0.88657(3) 0.73385(3)
C13_3 C 0.9530(4) 0.2882(3) 0.6573(2)
C14_3 C 0.9072(5) 0.2730(3) 0.5886(3)
C15_3 C 0.8894(7) 0.2017(4) 0.5684(3)
H9_3 H 0.909 0.1632 0.5967
C16_3 C 0.8424(7) 0.1876(4) 0.5062(3)
H10_3 H 0.832 0.1389 0.4935
C17_3 C 0.8317(6) 0.3083(4) 0.4827(3)
H11_3 H 0.8137 0.3457 0.4532
C18_3 C 0.8784(6) 0.3273(4) 0.5443(3)
H12_3 H 0.8901 0.3762 0.5556
C19_3 C 0.8187(5) 0.4705(3) 0.7737(3)
C20_3 C 0.7370(5) 0.5291(3) 0.7517(3)
C21_3 C 0.7454(5) 0.5832(4) 0.7083(3)
H13_3 H 0.8008 0.5828 0.6892
C22_3 C 0.6701(5) 0.6376(3) 0.6941(3)
H14_3 H 0.6768 0.6737 0.6653
C23_3 C 0.5804(5) 0.5888(3) 0.7613(3)
H15_3 H 0.5245 0.5905 0.78
C24_3 C 0.6515(5) 0.5324(4) 0.7777(3)
H16_3 H 0.6421 0.4968 0.8062
H19_3 H 0.9998 0.627 0.9831
H20_3 H 0.9968 0.5429 0.904
N4_2 N 0.5881(4) 0.6408(2) 0.7198(2)
O2_3 O 0.9185(3) 0.30781(19) 0.79574(16)
H22_3 H 0.8523 0.3011 0.7644
O7_3 O 0.9732(3) 0.2323(2) 0.69190(18)
O8_3 O 0.9663(3) 0.3536(2) 0.67383(18)
O9_3 O 0.8850(3) 0.4607(2) 0.7430(2)
O10_3 O 0.8128(3) 0.4379(2) 0.8232(2)
O14_3 O 0.9692(3) 0.2740(2) 0.93464(19)
N8_2 N 0.9119(4) 0.1408(2) 0.7802(2)
Ni6_2 Ni 0.48022(5) 0.72691(3) 0.71179(3)
C20_4 C 0.7630(5) 0.0291(3) 0.7483(3)
C21_4 C 0.7546(5) 0.0832(4) 0.7917(3)
H13_4 H 0.6992 0.0828 0.8108
C22_4 C 0.8299(5) 0.1376(3) 0.8059(3)
H14_4 H 0.8232 0.1737 0.8347
C23_4 C 0.9196(5) 0.0888(3) 0.7387(3)
H15_4 H 0.9755 0.0905 0.72
C24_4 C 0.8485(5) 0.0324(4) 0.7223(3)
C28_4 C 0.3011(5) 0.0405(4) 0.4497(3)
H18_4 H 0.2477 0.041 0.4131
C29_4 C 0.4497(5) 0.0905(4) 0.5104(3)
H19_4 H 0.5002 0.127 0.5169
C30_4 C 0.4517(5) 0.0404(3) 0.5586(3)
H20_4 H 0.5032 0.0429 0.596
H10_4 H 0.668 0.6389 0.0065
C17_4 C 0.6683(6) 0.8083(4) 0.0173(3)
H11_4 H 0.6863 0.8457 0.0468
C1_4 C 0.2805(4) 0.6446(3) 0.6949(2)
C2_4 C 0.2196(5) 0.5805(3) 0.7107(3)
C3_4 C 0.2636(5) 0.5281(4) 0.7539(3)
H1_4 H 0.3345 0.5297 0.7731
C4_4 C 0.2028(5) 0.4730(4) 0.7688(3)
H2_4 H 0.234 0.4385 0.7987
C5_4 C 0.0596(5) 0.5151(4) 0.6970(3)
C6_4 C 0.1153(5) 0.5724(4) 0.6808(4)
H4_4 H 0.083 0.6055 0.6499
C10_4 C 0.0466(7) 0.8420(7) 0.6109(5)
H6_4 H 0.0549 0.8605 0.5728
C11_4 C 0.1118(6) 0.8027(6) 0.7075(4)
H7_4 H 0.169 0.7903 0.74
C12_4 C 0.0150(6) 0.7979(6) 0.7204(4)
H8_4 H 0.0088 0.7847 0.7604
C13_4 C 0.5470(4) 0.7882(3) 0.8427(2)
C14_4 C 0.5928(5) 0.7730(3) 0.9114(3)
C15_4 C 0.6106(7) 0.7017(4) 0.9316(3)
H9_4 H 0.591 0.6632 0.9033
C16_4 C 0.6576(7) 0.6876(4) 0.9938(3)
C18_4 C 0.6216(6) 0.8273(4) 0.9557(3)
H12_4 H 0.6099 0.8762 0.9444
C19_4 C 0.6813(5) 0.9705(3) 0.7263(3)
H16_4 H 0.8579 0.9968 0.6938
C25_4 C 0.3797(4) 0.9263(3) 0.5979(2)
C26_4 C 0.3759(4) 0.9872(3) 0.5499(3)
C27_4 C 0.2965(6) 0.9904(5) 0.4955(3)
H17_4 H 0.2402 0.9586 0.4901
C31_4 C 0.4546(4) 0.7343(3) 0.5680(3)
N2_4 N 0.1314(4) 0.8231(3) 0.6533(3)
O1_4 O 0.3737(3) 0.81062(18) 0.71158(16)
H21_4 H 0.3404 0.8048 0.7466
O2_4 O 0.5815(3) 0.80781(19) 0.70426(16)
H22_4 H 0.6477 0.8011 0.7356
O3_4 O 0.2290(3) 0.6893(2) 0.65589(18)
O4_4 O 0.3745(3) 0.6488(2) 0.72289(18)
O7_4 O 0.5268(3) 0.7323(2) 0.80810(18)
O8_4 O 0.5337(3) 0.8536(2) 0.82617(18)
O9_4 O 0.6150(3) 0.9607(2) 0.7570(2)
O10_4 O 0.6872(3) 0.9379(2) 0.6768(2)
O11_4 O 0.2977(3) 0.8903(2) 0.59417(18)
O12_4 O 0.4655(3) 0.9172(2) 0.63729(17)
O13_4 O 0.4096(3) 0.7342(2) 0.61297(17)
O14_4 O 0.5308(3) 0.7740(2) 0.56536(19)
C32_4 C 0.4141(5) 0.6819(4) 0.5139(3)
O15_4 O 0.4420(6) 0.5873(3) 0.5880(3)
C33_4 C 0.3824(6) 0.7066(5) 0.4513(3)
C34_4 C 0.3466(8) 0.6551(6) 0.4028(4)
H23_4 H 0.3288 0.6701 0.361
C35_4 C 0.3383(9) 0.5835(6) 0.4175(5)
H24_4 H 0.3111 0.5506 0.3853
C36_4 C 0.4074(7) 0.6073(4) 0.5263(4)
C37_4 C 0.3684(9) 0.5578(5) 0.4781(5)
H25_4 H 0.3629 0.5083 0.4867
C38_4 C 0.3509(10) 0.8066(7) 0.3785(4)
H26_4 H 0.2804 0.7912 0.3612
H27_4 H 0.3541 0.8592 0.3788
H28_4 H 0.3947 0.7876 0.3532
C39_4 C 0.4209(10) 0.5174(5) 0.6068(5)
H29_4 H 0.4481 0.4816 0.5829
H30_4 H 0.4532 0.5112 0.6508
H31_4 H 0.347 0.511 0.5998
O16_4 O 0.3858(5) 0.7797(3) 0.4416(2)
O17_2 O 0.7477(3) 0.8054(3) 0.6324(2)
H3_4 H 0.9901 0.5097 0.6757
C7_4 C 0.8191(5) 0.8051(4) 0.6831(3)
C8_4 C 0.9287(5) 0.8128(4) 0.6737(3)
C9_4 C 0.9450(6) 0.8364(7) 0.6183(4)
H5_4 H 0.8887 0.8488 0.5853
O5_4 O 0.8074(4) 0.7981(4) 0.7376(2)
loop_
_geom_bond_atom_site_label_1
_geom_bond_atom_site_label_2
_geom_bond_site_symmetry_1
_geom_bond_site_symmetry_2
C13 C14 1_555 1_555
C14 C15 1_555 1_555
C15 H9 1_555 1_555
C16 C15 1_555 1_555
H10 C16 1_555 1_555
C17 H11 1_555 1_555
C18 C14 1_555 1_555
H12 C18 1_555 1_555
C19 C20 1_555 1_555
C20 C21 1_555 1_555
C21 H13 1_555 1_555
C22 C21 1_555 1_555
H14 C22 1_555 1_555
C23 H15 1_555 1_555
C24 C20 1_555 1_555
H16 C24 1_555 1_555
N3 C16 1_555 1_555
N4 C22 1_555 1_555
O2 H22 1_555 1_555
O7 C13 1_555 1_555
O8 C13 1_555 1_555
O9 C19 1_555 1_555
O10 C19 1_555 1_555
Ni4 O2 1_555 1_555
N9 Ni4 1_555 1_555
O17 Ni4 1_555 1_555
Ni5 N3 1_555 1_555
Ni6 N4 1_555 1_555
C17 C18 1_555 1_555
C17 N3 1_555 1_555
C23 C24 1_555 1_555
C23 N4 1_555 1_555
O10 Ni4 1_555 1_555
O14 Ni4 1_555 1_555
H2 C4 1_555 1_555
N1 C4 1_555 1_555
Ni7 N1 1_555 1_555
C1 C2 1_555 1_555
C2 C3 1_555 1_555
C3 H1 1_555 1_555
C5 H3 1_555 1_555
C6 C2 1_555 1_555
H4 C6 1_555 1_555
C7 C8 1_555 1_555
C8 C9 1_555 1_555
C9 H5 1_555 1_555
C10 C9 1_555 1_555
H6 C10 1_555 1_555
C11 H7 1_555 1_555
C12 C8 1_555 1_555
H8 C12 1_555 1_555
C25 C26 1_555 1_555
C30 C26 1_555 1_555
C31 O13 1_555 1_555
N2 C10 1_555 1_555
O1 H21 1_555 1_555
O3 C1 1_555 1_555
O4 C1 1_555 1_555
O5 C7 1_555 1_555
O17 C7 1_555 1_555
O11 C25 1_555 1_555
O12 C25 1_555 1_555
O13 Ni1 1_555 1_555
Ni1 N2 1_555 1_555
Ni2 O1 1_555 1_555
Ni3 O1 1_555 1_555
C32 C31 1_555 1_555
O15 C36 1_555 1_555
C36 C32 1_555 1_555
C39 O15 1_555 1_555
H30 C39 1_555 1_555
H31 C39 1_555 1_555
N6 Ni3 1_555 1_555
N7 Ni1 1_555 1_555
C5 C6 1_555 1_555
C11 C12 1_555 1_555
C11 N2 1_555 1_555
C29 C30 1_555 1_555
O1 Ni1 1_555 1_555
O3 Ni1 1_555 1_555
O4 Ni2 1_555 1_555
O11 Ni1 1_555 1_555
O12 Ni3 1_555 1_555
O13 Ni2 1_555 1_555
C27 H17 1_555 1_555
C28 C27 1_555 1_555
H18 C28 1_555 1_555
N5 C28 1_555 1_555
C34 C33 1_555 1_555
H23 C34 1_555 1_555
C35 C34 1_555 1_555
H24 C35 1_555 1_555
C37 C35 1_555 1_555
H25 C37 1_555 1_555
C38 H26 1_555 1_555
H27 C38 1_555 1_555
H28 C38 1_555 1_555
O16 C33 1_555 1_555
Ni9 N5 1_555 1_555
C38 O16 1_555 1_555
C7_2 C8_2 1_555 1_555
C8_2 C9_2 1_555 1_555
C9_2 H5_2 1_555 1_555
O5_2 C7_2 1_555 1_555
O6 C7_2 1_555 1_555
Ni8 O6 1_555 1_555
C1_2 C2_2 1_555 1_555
C2_2 C3_2 1_555 1_555
C3_2 H1_2 1_555 1_555
C4_2 C3_2 1_555 1_555
H2_2 C4_2 1_555 1_555
C6_2 C2_2 1_555 1_555
H4_2 C6_2 1_555 1_555
H6_2 C10_2 1_555 1_555
C11_2 H7_2 1_555 1_555
H8_2 C12_2 1_555 1_555
C13_2 C14_2 1_555 1_555
C14_2 C15_2 1_555 1_555
C15_2 H9_2 1_555 1_555
C16_2 C15_2 1_555 1_555
C18_2 C14_2 1_555 1_555
H12_2 C18_2 1_555 1_555
C25_2 C26_2 1_555 1_555
C26_2 C27_2 1_555 1_555
C27_2 H17_2 1_555 1_555
C31_2 O13_2 1_555 1_555
N6 C4_2 1_555 1_555
N2_2 C10_2 1_555 1_555
O1_2 H21_2 1_555 1_555
O2_2 H22_2 1_555 1_555
O3_2 C1_2 1_555 1_555
O4_2 C1_2 1_555 1_555
O7_2 C13_2 1_555 1_555
O8_2 C13_2 1_555 1_555
O9_2 C19_2 1_555 1_555
O10_2 C19_2 1_555 1_555
O11_2 C25_2 1_555 1_555
O12_2 C25_2 1_555 1_555
O13_2 Ni1_2 1_555 1_555
O14_2 C31_2 1_555 1_555
Ni1_2 N2_2 1_555 1_555
Ni6 O1_2 1_555 1_555
Ni7 O1_2 1_555 1_555
Ni8 O2_2 1_555 1_555
C32_2 C31_2 1_555 1_555
O15_2 C36_2 1_555 1_555
C33_2 C32_2 1_555 1_555
C34_2 C33_2 1_555 1_555
H23_2 C34_2 1_555 1_555
C35_2 C34_2 1_555 1_555
H24_2 C35_2 1_555 1_555
C36_2 C32_2 1_555 1_555
C37_2 C35_2 1_555 1_555
H25_2 C37_2 1_555 1_555
C38_2 H26_2 1_555 1_555
H27_2 C38_2 1_555 1_555
H28_2 C38_2 1_555 1_555
C39_2 O15_2 1_555 1_555
H29_2 C39_2 1_555 1_555
H30_2 C39_2 1_555 1_555
H31_2 C39_2 1_555 1_555
O16_2 C33_2 1_555 1_555
N7_2 Ni1_2 1_555 1_555
N9_2 Ni8 1_555 1_555
C5_2 C6_2 1_555 1_555
C5_2 N6 1_555 1_555
C11_2 C12_2 1_555 1_555
C11_2 N2_2 1_555 1_555
O1_2 Ni1_2 1_555 1_555
O2_2 Ni6 1_555 1_555
O2_2 Ni7 1_555 1_555
O3_2 Ni1_2 1_555 1_555
O4_2 Ni6 1_555 1_555
O7_2 Ni6 1_555 1_555
O8_2 Ni7 1_555 1_555
O9_2 Ni7 1_555 1_555
O10_2 Ni8 1_555 1_555
O11_2 Ni1_2 1_555 1_555
O12_2 Ni7 1_555 1_555
O12_2 Ni8 1_555 1_555
O13_2 Ni6 1_555 1_555
O14_2 Ni8 1_555 1_555
C36_2 C37_2 1_555 1_555
C38_2 O16_2 1_555 1_555
C17_2 H11_2 1_555 1_555
Ni5_2 N3_2 1_555 1_555
C17_2 N3_2 1_555 1_555
C20_2 C21_2 1_555 1_555
C21_2 H13_2 1_555 1_555
C22_2 C21_2 1_555 1_555
H14_2 C22_2 1_555 1_555
C23_2 H15_2 1_555 1_555
C24_2 C20_2 1_555 1_555
H18_2 C28_2 1_555 1_555
C29_2 H19_2 1_555 1_555
H20_2 C30_2 1_555 1_555
N8 C22_2 1_555 1_555
N5_2 C28_2 1_555 1_555
Ni9_2 N5_2 1_555 1_555
C23_2 C24_2 1_555 1_555
C23_2 N8 1_555 1_555
C29_2 C30_2 1_555 1_555
C29_2 N5_2 1_555 1_555
C27_3 H17_3 1_555 1_555
C28_3 C27_3 1_555 1_555
H18_3 C28_3 1_555 1_555
N9 C28_3 1_555 1_555
C34_3 C33_3 1_555 1_555
H23_3 C34_3 1_555 1_555
C35_3 C34_3 1_555 1_555
H24_3 C35_3 1_555 1_555
C37_3 C35_3 1_555 1_555
H25_3 C37_3 1_555 1_555
C38_3 H26_3 1_555 1_555
H27_3 C38_3 1_555 1_555
H28_3 C38_3 1_555 1_555
O16_3 C33_3 1_555 1_555
C38_3 O16_3 1_555 1_555
C1_3 C2_3 1_555 1_555
C2_3 C3_3 1_555 1_555
C3_3 H1_3 1_555 1_555
C5_3 H3_3 1_555 1_555
C6_3 C2_3 1_555 1_555
H4_3 C6_3 1_555 1_555
C7_3 C8_3 1_555 1_555
C8_3 C9_3 1_555 1_555
C9_3 H5_3 1_555 1_555
C10_3 C9_3 1_555 1_555
H6_3 C10_3 1_555 1_555
C11_3 H7_3 1_555 1_555
C12_3 C8_3 1_555 1_555
H8_3 C12_3 1_555 1_555
C25_3 C26_3 1_555 1_555
C30_3 C26_3 1_555 1_555
C31_3 O13_3 1_555 1_555
N2_3 C10_3 1_555 1_555
O1_3 H21_3 1_555 1_555
O3_3 C1_3 1_555 1_555
O4_3 C1_3 1_555 1_555
O5_3 C7_3 1_555 1_555
O6_2 C7_3 1_555 1_555
O11_3 C25_3 1_555 1_555
O12_3 C25_3 1_555 1_555
O13_3 Ni5_2 1_555 1_555
Ni5_2 N2_3 1_555 1_555
Ni2_2 O1_3 1_555 1_555
Ni3_2 O1_3 1_555 1_555
C32_3 C31_3 1_555 1_555
O15_3 C36_3 1_555 1_555
C36_3 C32_3 1_555 1_555
C39_3 O15_3 1_555 1_555
H30_3 C39_3 1_555 1_555
H31_3 C39_3 1_555 1_555
N6_2 Ni3_2 1_555 1_555
Ni9 O6_2 1_555 1_555
C5_3 C6_3 1_555 1_555
C11_3 C12_3 1_555 1_555
C11_3 N2_3 1_555 1_555
C29_3 C30_3 1_555 1_555
O1_3 Ni5_2 1_555 1_555
O3_3 Ni5_2 1_555 1_555
O4_3 Ni2_2 1_555 1_555
O11_3 Ni5_2 1_555 1_555
O12_3 Ni3_2 1_555 1_555
O13_3 Ni2_2 1_555 1_555
H2_3 C4_3 1_555 1_555
N1_2 C4_3 1_555 1_555
Ni7_2 N1_2 1_555 1_555
C13_3 C14_3 1_555 1_555
C14_3 C15_3 1_555 1_555
C15_3 H9_3 1_555 1_555
C16_3 C15_3 1_555 1_555
H10_3 C16_3 1_555 1_555
C17_3 H11_3 1_555 1_555
C18_3 C14_3 1_555 1_555
H12_3 C18_3 1_555 1_555
C19_3 C20_3 1_555 1_555
C20_3 C21_3 1_555 1_555
C21_3 H13_3 1_555 1_555
C22_3 C21_3 1_555 1_555
H14_3 C22_3 1_555 1_555
C23_3 H15_3 1_555 1_555
C24_3 C20_3 1_555 1_555
H16_3 C24_3 1_555 1_555
N7_2 C16_3 1_555 1_555
N4_2 C22_3 1_555 1_555
O2_3 H22_3 1_555 1_555
O7_3 C13_3 1_555 1_555
O8_3 C13_3 1_555 1_555
O9_3 C19_3 1_555 1_555
O10_3 C19_3 1_555 1_555
Ni9 O2_3 1_555 1_555
Ni6_2 N4_2 1_555 1_555
C17_3 C18_3 1_555 1_555
C17_3 N7_2 1_555 1_555
C23_3 C24_3 1_555 1_555
C23_3 N4_2 1_555 1_555
O10_3 Ni9 1_555 1_555
O14_3 Ni9 1_555 1_555
C20_4 C21_4 1_555 1_555
C21_4 H13_4 1_555 1_555
C22_4 C21_4 1_555 1_555
H14_4 C22_4 1_555 1_555
C23_4 H15_4 1_555 1_555
C24_4 C20_4 1_555 1_555
H18_4 C28_4 1_555 1_555
C29_4 H19_4 1_555 1_555
H20_4 C30_4 1_555 1_555
N8_2 C22_4 1_555 1_555
N9_2 C28_4 1_555 1_555
C23_4 C24_4 1_555 1_555
C23_4 N8_2 1_555 1_555
C29_4 C30_4 1_555 1_555
C29_4 N9_2 1_555 1_555
C17_4 H11_4 1_555 1_555
C17_4 N7 1_555 1_555
C1_4 C2_4 1_555 1_555
C2_4 C3_4 1_555 1_555
C3_4 H1_4 1_555 1_555
C4_4 C3_4 1_555 1_555
H2_4 C4_4 1_555 1_555
C6_4 C2_4 1_555 1_555
H4_4 C6_4 1_555 1_555
H6_4 C10_4 1_555 1_555
C11_4 H7_4 1_555 1_555
H8_4 C12_4 1_555 1_555
C13_4 C14_4 1_555 1_555
C14_4 C15_4 1_555 1_555
C15_4 H9_4 1_555 1_555
C16_4 C15_4 1_555 1_555
C18_4 C14_4 1_555 1_555
H12_4 C18_4 1_555 1_555
C25_4 C26_4 1_555 1_555
C26_4 C27_4 1_555 1_555
C27_4 H17_4 1_555 1_555
C31_4 O13_4 1_555 1_555
N6_2 C4_4 1_555 1_555
N2_4 C10_4 1_555 1_555
O1_4 H21_4 1_555 1_555
O2_4 H22_4 1_555 1_555
O3_4 C1_4 1_555 1_555
O4_4 C1_4 1_555 1_555
O7_4 C13_4 1_555 1_555
O8_4 C13_4 1_555 1_555
O9_4 C19_4 1_555 1_555
O10_4 C19_4 1_555 1_555
O11_4 C25_4 1_555 1_555
O12_4 C25_4 1_555 1_555
O13_4 Ni5 1_555 1_555
O14_4 C31_4 1_555 1_555
Ni5 N2_4 1_555 1_555
Ni6_2 O1_4 1_555 1_555
Ni7_2 O1_4 1_555 1_555
Ni9_2 O2_4 1_555 1_555
C32_4 C31_4 1_555 1_555
O15_4 C36_4 1_555 1_555
C33_4 C32_4 1_555 1_555
C34_4 C33_4 1_555 1_555
H23_4 C34_4 1_555 1_555
C35_4 C34_4 1_555 1_555
H24_4 C35_4 1_555 1_555
C36_4 C32_4 1_555 1_555
C37_4 C35_4 1_555 1_555
H25_4 C37_4 1_555 1_555
C38_4 H26_4 1_555 1_555
H27_4 C38_4 1_555 1_555
H28_4 C38_4 1_555 1_555
C39_4 O15_4 1_555 1_555
H29_4 C39_4 1_555 1_555
H30_4 C39_4 1_555 1_555
H31_4 C39_4 1_555 1_555
O16_4 C33_4 1_555 1_555
O17_2 Ni9_2 1_555 1_555
C5_4 C6_4 1_555 1_555
C5_4 N6_2 1_555 1_555
C11_4 C12_4 1_555 1_555
C11_4 N2_4 1_555 1_555
O1_4 Ni5 1_555 1_555
O2_4 Ni6_2 1_555 1_555
O2_4 Ni7_2 1_555 1_555
O3_4 Ni5 1_555 1_555
O4_4 Ni6_2 1_555 1_555
O7_4 Ni6_2 1_555 1_555
O8_4 Ni7_2 1_555 1_555
O9_4 Ni7_2 1_555 1_555
O10_4 Ni9_2 1_555 1_555
O11_4 Ni5 1_555 1_555
O12_4 Ni7_2 1_555 1_555
O12_4 Ni9_2 1_555 1_555
O13_4 Ni6_2 1_555 1_555
O14_4 Ni9_2 1_555 1_555
C36_4 C37_4 1_555 1_555
C38_4 O16_4 1_555 1_555
C7_4 C8_4 1_555 1_555
C8_4 C9_4 1_555 1_555
C9_4 H5_4 1_555 1_555
O5_4 C7_4 1_555 1_555
O17_2 C7_4 1_555 1_555

#END
