
###############################################################################
#
# This file contains modified crystal structure data generated from the
# MOF subset of the Cambridge Structural Database (CSD) v543 
# hosted by the Cambridge Crystallographic Data Centre (CCDC).
#
# This work is licensed under the Creative Commons
# Attribution-NonCommercial-ShareAlike 4.0 International License.
# To view a copy of this license, visit
# http://creativecommons.org/licenses/by-nc-sa/4.0/
# or send a letter to
# Creative Commons, PO Box 1866, Mountain View, CA 94042, USA.
#
# CIF created using the CSD Python API on 29 September 2022
# The structure has been converted into the P1 space group
# The structure has a 3D framework
# The original CSD entry LODBEN is in the monoclinic crystal system
# The framework has been calculated to contain at least 10.0% void space
# The void calculation uses a probe of radius 1.32A, grid spacing 0.4
#
###############################################################################

data_LODBEN
_chemical_formula_moiety         '(C156 H124 N20 Ni16 O64)n'
_symmetry_cell_setting           triclinic
_symmetry_space_group_name_H-M   'P 1'
_symmetry_Int_Tables_number      1
_space_group_name_Hall           'P 1'
loop_
_symmetry_equiv_pos_site_id
_symmetry_equiv_pos_as_xyz
1 x,y,z
_cell_length_a                   13.1308(11)
_cell_length_b                   18.3853(14)
_cell_length_c                   21.7336(18)
_cell_angle_alpha                90
_cell_angle_beta                 101.981(2)
_cell_angle_gamma                90
_cell_volume                     5132.5
loop_
_atom_site_label
_atom_site_type_symbol
_atom_site_fract_x
_atom_site_fract_y
_atom_site_fract_z
C19 C 0.0555(6) 0.7124(4) 0.3448(3)
C20 C 0.1122(6) 0.7238(4) 0.4119(4)
C21 C 0.1912(8) 0.7745(5) 0.4249(4)
H12 H 0.2111 0.8002 0.3925
C22 C 0.2402(7) 0.7865(5) 0.4865(4)
H13 H 0.2957 0.8190 0.4943
C23 C 0.1384(8) 0.7039(5) 0.5223(4)
H14 H 0.1199 0.6787 0.5555
C24 C 0.0877(8) 0.6875(5) 0.4615(4)
H15 H 0.0368 0.6516 0.4544
C25 C 0.1764(6) 0.5284(4) 0.2236(4)
C26 C 0.2558(6) 0.4693(4) 0.2453(4)
C27 C 0.2489(7) 0.4179(5) 0.2904(5)
H16 H 0.1937 0.4197 0.3111
C28 C 0.3220(7) 0.3643(4) 0.3051(4)
H17 H 0.3144 0.3302 0.3355
C29 C 0.4117(7) 0.4093(5) 0.2341(5)
H18 H 0.4682 0.4068 0.2145
C30 C 0.3403(7) 0.4641(5) 0.2171(4)
H19 H 0.3491 0.4977 0.1867
H23 H 0.0067 0.4596 0.0961
N3 N 0.2126(5) 0.7543(3) 0.5354(3)
N4 N 0.4037(5) 0.3587(3) 0.2781(3)
O2 O 0.0858(4) 0.6922(2) 0.2054(2)
H25 H 0.1515 0.6968 0.2362
O7 O 0.0374(4) 0.7685(3) 0.3118(2)
O8 O 0.0328(4) 0.6479(3) 0.3282(2)
O9 O 0.1094(4) 0.5401(3) 0.2560(3)
O10 O 0.1850(5) 0.5598(3) 0.1740(3)
O14 O 0.0437(5) 0.7264(3) 0.0676(3)
Ni4 Ni 0.11143(8) 0.64568(5) 0.12563(5)
N8 N 0.0963(5) 0.8587(3) 0.2219(3)
N9 N 0.1230(5) 0.5882(4) 0.0426(3)
O17 O 0.2550(5) 0.6875(4) 0.1272(3)
Ni5 Ni 0.28532(7) 0.78145(5) 0.62907(4)
Ni6 Ni 0.51155(7) 0.27472(5) 0.28409(4)
C10 C 0.7087(6) 0.0325(4) 0.2688(4)
H5 H 0.7383 0.0668 0.2986
N1 N 0.6084(5) 0.0393(3) 0.2413(3)
C39 C 0.747(3) 0.0012(18) 0.0507(19)
H30 H 0.7184 0.0491 0.0509
Ni7 Ni 0.50770(7) 0.11656(5) 0.26482(4)
C1 C 0.9548(5) 0.8331(3) 0.0282(3)
C2 C 0.8813(6) 0.8854(4) 0.0346(3)
H1 H 0.8483 0.8834 0.0686
C7 C 0.7911(6) 0.8604(4) 0.1970(3)
C8 C 0.7288(6) 0.9254(4) 0.2113(4)
C9 C 0.7702(6) 0.9766(4) 0.2549(4)
H4 H 0.8399 0.9738 0.2751
C11 C 0.5691(7) 0.9902(5) 0.1970(5)
H6 H 0.4998 0.9947 0.1763
C12 C 0.6269(7) 0.9334(5) 0.1807(5)
H7 H 0.5971 0.9009 0.1494
C13 C 0.3217(8) 0.6929(5) 0.1767(5)
C14 C 0.4356(7) 0.6897(5) 0.1685(5)
C15 C 0.4575(8) 0.6611(7) 0.1152(5)
H8 H 0.4051 0.6408 0.0846
C16 C 0.5607(8) 0.6627(7) 0.1073(6)
H9 H 0.5736 0.6464 0.0691
C17 C 0.6168(8) 0.7088(7) 0.2041(5)
H10 H 0.6704 0.7242 0.2366
C18 C 0.5151(8) 0.7109(7) 0.2139(5)
H11 H 0.5026 0.7272 0.2522
C31 C 0.8836(6) 0.5770(4) 0.1007(4)
C32 C 0.8775(6) 0.5137(4) 0.0539(4)
C33 C 0.7980(7) 0.5120(5) 0.0004(4)
C35 C 0.9478(8) 0.4108(5) 0.0108(5)
H22 H 0.9973 0.3739 0.0160
C36 C 0.9535(7) 0.4616(5) 0.0605(5)
C37 C 0.9761(6) 0.7722(4) 0.0744(4)
N2 N 0.6415(5) 0.6858(4) 0.1503(4)
O1 O 0.8782(4) 0.6948(2) 0.2134(2)
H24 H 0.8407 0.7008 0.2477
O3 O 0.7428(4) 0.8189(3) 0.1553(3)
O4 O 0.8817(4) 0.8543(3) 0.2267(3)
O5 O 0.3075(6) 0.7029(5) 0.2309(4)
O11 O 0.8056(4) 0.6167(3) 0.0945(3)
O12 O 0.9690(4) 0.5842(3) 0.1391(2)
O13 O 0.9276(4) 0.7715(3) 0.1187(2)
Ni1 Ni 0.78532(7) 0.71855(5) 0.12907(4)
Ni2 Ni 0.98845(7) 0.77472(5) 0.21591(4)
Ni3 Ni 0.99230(7) 0.61656(5) 0.23518(4)
H29 H 0.6950 0.9657 0.0536
H31 H 0.8047 0.9960 0.0859
N6 N 0.8916(5) 0.5393(3) 0.2587(3)
N7 N 0.7126(5) 0.7457(3) 0.0354(3)
C3 C 0.8570(7) 0.9406(4) 0.9903(4)
C4 C 0.9062(8) 0.9436(5) 0.9396(4)
H2 H 0.8900 0.9805 0.9100
C5 C 0.9798(8) 0.8913(5) 0.9332(4)
H20 H 0.7430 0.5447 0.9959
C34 C 0.8016(7) 0.4608(5) 0.9536(5)
H21 H 0.7484 0.4610 0.9178
N5 N 0.8770(5) 0.4118(4) 0.9574(3)
H28 H 0.9390 0.9404 0.8171
O16 O 0.7824(12) 0.9908(7) 0.9950(6)
Ni9 Ni 0.88857(8) 0.35432(5) 0.87437(5)
H6_2 H 0.0002 0.4947 0.3237
C13_2 C 0.1783(8) 0.1929(5) 0.3233(5)
C14_2 C 0.0644(7) 0.1897(5) 0.3315(5)
C15_2 C 0.0425(8) 0.1611(7) 0.3848(5)
H8_2 H 0.0949 0.1408 0.4154
O5_2 O 0.1925(6) 0.2029(5) 0.2691(4)
O6 O 0.2450(5) 0.1875(4) 0.3728(3)
Ni8 Ni 0.38857(8) 0.14568(5) 0.37437(5)
C1_2 C 0.5452(5) 0.3331(3) 0.4718(3)
C2_2 C 0.6187(6) 0.3854(4) 0.4654(3)
H1_2 H 0.6517 0.3834 0.4314
C3_2 C 0.6430(7) 0.4406(4) 0.5097(4)
C4_2 C 0.5938(8) 0.4436(5) 0.5604(4)
H2_2 H 0.6100 0.4805 0.5900
C5_2 C 0.5202(8) 0.3913(5) 0.5668(4)
C6 C 0.4959(6) 0.3360(4) 0.5225(3)
H3 H 0.4467 0.3011 0.5268
C7_2 C 0.7089(6) 0.3604(4) 0.3030(3)
C8_2 C 0.7712(6) 0.4254(4) 0.2887(4)
C9_2 C 0.7298(6) 0.4766(4) 0.2451(4)
H4_2 H 0.6601 0.4738 0.2249
C10_2 C 0.7913(6) 0.5325(4) 0.2312(4)
H5_2 H 0.7617 0.5668 0.2014
C11_2 C 0.9309(7) 0.4902(5) 0.3030(5)
C12_2 C 0.8731(7) 0.4334(5) 0.3193(5)
H7_2 H 0.9029 0.4009 0.3506
C16_2 C 0.9393(8) 0.1627(7) 0.3927(6)
H9_2 H 0.9264 0.1464 0.4309
C17_2 C 0.8832(8) 0.2088(7) 0.2959(5)
H10_2 H 0.8296 0.2242 0.2634
C18_2 C 0.9849(8) 0.2109(7) 0.2861(5)
H11_2 H 0.9974 0.2272 0.2478
C19_2 C 0.4445(6) 0.2124(4) 0.1552(3)
C20_2 C 0.3878(6) 0.2238(4) 0.0881(4)
C21_2 C 0.3088(8) 0.2745(5) 0.0751(4)
H12_2 H 0.2889 0.3002 0.1075
C22_2 C 0.2598(7) 0.2865(5) 0.0135(4)
H13_2 H 0.2043 0.3190 0.0057
C24_2 C 0.4123(8) 0.1875(5) 0.0385(4)
H15_2 H 0.4632 0.1516 0.0456
C25_2 C 0.3236(6) 0.0284(4) 0.2764(4)
C31_2 C 0.6164(6) 0.0770(4) 0.3993(4)
C32_2 C 0.6225(6) 0.0137(4) 0.4461(4)
C33_2 C 0.7020(7) 0.0120(5) 0.4996(4)
H20_2 H 0.7570 0.0447 0.5041
C37_2 C 0.5239(6) 0.2722(4) 0.4256(4)
N2_2 N 0.8585(5) 0.1858(4) 0.3497(4)
O1_2 O 0.6218(4) 0.1948(2) 0.2866(2)
H24_2 H 0.6593 0.2008 0.2523
O2_2 O 0.4142(4) 0.1922(2) 0.2946(2)
H25_2 H 0.3485 0.1968 0.2638
O3_2 O 0.7572(4) 0.3189(3) 0.3447(3)
O4_2 O 0.6183(4) 0.3543(3) 0.2733(3)
O7_2 O 0.4626(4) 0.2685(3) 0.1882(2)
O8_2 O 0.4672(4) 0.1479(3) 0.1718(2)
O9_2 O 0.3906(4) 0.0401(3) 0.2440(3)
O10_2 O 0.3150(5) 0.0598(3) 0.3260(3)
O11_2 O 0.6944(4) 0.1167(3) 0.4055(3)
O12_2 O 0.5310(4) 0.0842(3) 0.3609(2)
O13_2 O 0.5724(4) 0.2715(3) 0.3813(2)
O14_2 O 0.4563(5) 0.2264(3) 0.4324(3)
Ni1_2 Ni 0.71468(7) 0.21855(5) 0.37093(4)
C38 C 0.490(2) 0.4445(14) 0.6602(11)
H26 H 0.4441 0.4400 0.6890
H27 H 0.4802 0.4911 0.6398
H28_2 H 0.5610 0.4404 0.6829
O15 O 0.4691(10) 0.3893(7) 0.6149(5)
O16_2 O 0.7176(12) 0.4908(7) 0.5050(6)
C39_2 C 0.753(3) 0.5012(18) 0.4493(19)
H29_2 H 0.8050 0.4657 0.4464
H30_2 H 0.7816 0.5491 0.4491
H31_2 H 0.6953 0.4960 0.4141
N7_2 N 0.7874(5) 0.2457(3) 0.4646(3)
N9_2 N 0.3770(5) 0.0882(4) 0.4574(3)
C23_2 C 0.3616(8) 0.2039(5) 0.9777(4)
H14_2 H 0.3801 0.1787 0.9445
N3_2 N 0.2874(5) 0.2543(3) 0.9646(3)
Ni5_2 Ni 0.21468(7) 0.28145(5) 0.87093(4)
C26_2 C 0.2442(6) 0.9693(4) 0.2547(4)
C27_2 C 0.2511(7) 0.9179(5) 0.2096(5)
H16_2 H 0.3063 0.9197 0.1889
C28_2 C 0.1780(7) 0.8643(4) 0.1949(4)
H17_2 H 0.1856 0.8302 0.1645
C29_2 C 0.0883(7) 0.9093(5) 0.2659(5)
H18_2 H 0.0318 0.9068 0.2855
C30_2 C 0.1597(7) 0.9641(5) 0.2829(4)
H19_2 H 0.1509 0.9977 0.3133
C34_2 C 0.6984(7) 0.9608(5) 0.5464(5)
H21_2 H 0.7516 0.9610 0.5822
C35_2 C 0.5522(8) 0.9108(5) 0.4892(5)
H22_2 H 0.5027 0.8739 0.4840
C36_2 C 0.5465(7) 0.9616(5) 0.4395(5)
H23_2 H 0.4933 0.9596 0.4039
N5_2 N 0.6230(5) 0.9118(4) 0.5426(3)
Ni9_2 Ni 0.61143(8) 0.85432(5) 0.62563(5)
C3_3 C 0.1430(7) 0.0594(4) 0.0097(4)
C4_3 C 0.0938(8) 0.0564(5) 0.0604(4)
H2_3 H 0.1100 0.0195 0.0900
C5_3 C 0.0202(8) 0.1087(5) 0.0668(4)
H20_3 H 0.2570 0.4553 0.0041
C34_3 C 0.1984(7) 0.5392(5) 0.0464(5)
H21_3 H 0.2516 0.5390 0.0822
H28_3 H 0.0610 0.0596 0.1829
O16_3 O 0.2176(12) 0.0092(7) 0.0050(6)
C1_3 C 0.0452(5) 0.1669(3) 0.9718(3)
C2_3 C 0.1187(6) 0.1146(4) 0.9654(3)
H1_3 H 0.1517 0.1166 0.9314
C7_3 C 0.2089(6) 0.1396(4) 0.8030(3)
C8_3 C 0.2712(6) 0.0746(4) 0.7887(4)
C9_3 C 0.2298(6) 0.0234(4) 0.7451(4)
H4_3 H 0.1601 0.0262 0.7249
C11_3 C 0.4309(7) 0.0098(5) 0.8030(5)
H6_3 H 0.5002 0.0053 0.8237
C12_3 C 0.3731(7) 0.0666(5) 0.8193(5)
H7_3 H 0.4029 0.0991 0.8506
C13_3 C 0.6783(8) 0.3071(5) 0.8233(5)
C14_3 C 0.5644(7) 0.3103(5) 0.8315(5)
C15_3 C 0.5425(8) 0.3389(7) 0.8848(5)
H8_3 H 0.5949 0.3592 0.9154
C16_3 C 0.4393(8) 0.3373(7) 0.8927(6)
H9_3 H 0.4264 0.3536 0.9309
C17_3 C 0.3832(8) 0.2912(7) 0.7959(5)
H10_3 H 0.3296 0.2758 0.7634
C18_3 C 0.4849(8) 0.2891(7) 0.7861(5)
H11_3 H 0.4974 0.2728 0.7478
C31_3 C 0.1164(6) 0.4230(4) 0.8993(4)
C32_3 C 0.1225(6) 0.4863(4) 0.9461(4)
C33_3 C 0.2020(7) 0.4880(5) 0.9996(4)
C35_3 C 0.0522(8) 0.5892(5) 0.9892(5)
H22_3 H 0.0027 0.6261 0.9840
C36_3 C 0.0465(7) 0.5384(5) 0.9395(5)
C37_3 C 0.0239(6) 0.2278(4) 0.9256(4)
N2_3 N 0.3585(5) 0.3142(4) 0.8497(4)
O1_3 O 0.1218(4) 0.3052(2) 0.7866(2)
H24_3 H 0.1593 0.2992 0.7523
O3_3 O 0.2572(4) 0.1811(3) 0.8447(3)
O4_3 O 0.1183(4) 0.1457(3) 0.7733(3)
O5_3 O 0.6925(6) 0.2971(5) 0.7691(4)
O6_2 O 0.7450(5) 0.3125(4) 0.8728(3)
O11_3 O 0.1944(4) 0.3833(3) 0.9055(3)
O12_3 O 0.0310(4) 0.4158(3) 0.8609(2)
O13_3 O 0.0724(4) 0.2285(3) 0.8813(2)
Ni2_2 Ni 0.01155(7) 0.22528(5) 0.78409(4)
Ni3_2 Ni 0.00770(7) 0.38344(5) 0.76482(4)
H29_3 H 0.3050 0.0343 0.9464
H31_3 H 0.1953 0.0040 0.9141
N6_2 N 0.1084(5) 0.4607(3) 0.7413(3)
C10_3 C 0.2913(6) 0.9675(4) 0.7312(4)
H5_3 H 0.2617 0.9332 0.7014
N1_2 N 0.3916(5) 0.9607(3) 0.7587(3)
C39_3 C 0.253(3) 0.9988(18) 0.9493(19)
H30_3 H 0.2816 0.9509 0.9491
Ni7_2 Ni 0.49230(7) 0.88344(5) 0.73518(4)
C19_3 C 0.9445(6) 0.2876(4) 0.6552(3)
C20_3 C 0.8878(6) 0.2762(4) 0.5881(4)
C21_3 C 0.8088(8) 0.2255(5) 0.5751(4)
H12_3 H 0.7889 0.1998 0.6075
C22_3 C 0.7598(7) 0.2135(5) 0.5135(4)
H13_3 H 0.7043 0.1810 0.5057
C23_3 C 0.8616(8) 0.2961(5) 0.4777(4)
H14_3 H 0.8801 0.3213 0.4445
C24_3 C 0.9123(8) 0.3125(5) 0.5385(4)
H15_3 H 0.9632 0.3484 0.5456
C25_3 C 0.8236(6) 0.4716(4) 0.7764(4)
C26_3 C 0.7442(6) 0.5307(4) 0.7547(4)
C27_3 C 0.7511(7) 0.5821(5) 0.7096(5)
H16_3 H 0.8063 0.5803 0.6889
C28_3 C 0.6780(7) 0.6357(4) 0.6949(4)
H17_3 H 0.6856 0.6698 0.6645
C29_3 C 0.5883(7) 0.5907(5) 0.7659(5)
H18_3 H 0.5318 0.5932 0.7855
C30_3 C 0.6597(7) 0.5359(5) 0.7829(4)
H19_3 H 0.6509 0.5023 0.8133
H23_3 H 0.9933 0.5404 0.9039
N4_2 N 0.5963(5) 0.6413(3) 0.7219(3)
O2_3 O 0.9142(4) 0.3078(2) 0.7946(2)
H25_3 H 0.8485 0.3032 0.7638
O7_3 O 0.9626(4) 0.2315(3) 0.6882(2)
O8_3 O 0.9672(4) 0.3521(3) 0.6718(2)
O9_3 O 0.8906(4) 0.4599(3) 0.7440(3)
O10_3 O 0.8150(5) 0.4402(3) 0.8260(3)
O14_3 O 0.9563(5) 0.2736(3) 0.9324(3)
N8_2 N 0.9037(5) 0.1413(3) 0.7781(3)
Ni6_2 Ni 0.48845(7) 0.72528(5) 0.71591(4)
C26_4 C 0.7558(6) 0.0307(4) 0.7453(4)
C27_4 C 0.7489(7) 0.0821(5) 0.7904(5)
H16_4 H 0.6937 0.0803 0.8111
C28_4 C 0.8220(7) 0.1357(4) 0.8051(4)
H17_4 H 0.8144 0.1698 0.8355
C29_4 C 0.9117(7) 0.0907(5) 0.7341(5)
H18_4 H 0.9682 0.0932 0.7145
C30_4 C 0.8403(7) 0.0359(5) 0.7171(4)
H19_4 H 0.8491 0.0023 0.6867
C34_4 C 0.3016(7) 0.0392(5) 0.4536(5)
H21_4 H 0.2484 0.0390 0.4178
C35_4 C 0.4478(8) 0.0892(5) 0.5108(5)
H22_4 H 0.4973 0.1261 0.5160
C36_4 C 0.4535(7) 0.0384(5) 0.5605(5)
H23_4 H 0.5067 0.0404 0.5961
C23_4 C 0.6384(8) 0.7961(5) 0.0223(4)
H14_4 H 0.6199 0.8213 0.0555
C1_4 C 0.4548(5) 0.6669(3) 0.5282(3)
C2_4 C 0.3813(6) 0.6146(4) 0.5346(3)
H1_4 H 0.3483 0.6166 0.5686
C3_4 C 0.3570(7) 0.5594(4) 0.4903(4)
C4_4 C 0.4062(8) 0.5564(5) 0.4396(4)
H2_4 H 0.3900 0.5195 0.4100
C5_4 C 0.4798(8) 0.6087(5) 0.4332(4)
C6_2 C 0.5041(6) 0.6640(4) 0.4775(3)
H3_2 H 0.5533 0.6989 0.4732
C7_4 C 0.2911(6) 0.6396(4) 0.6970(3)
C8_4 C 0.2288(6) 0.5746(4) 0.7113(4)
C9_4 C 0.2702(6) 0.5234(4) 0.7549(4)
H4_4 H 0.3399 0.5262 0.7751
C10_4 C 0.2087(6) 0.4675(4) 0.7688(4)
H5_4 H 0.2383 0.4332 0.7986
C11_4 C 0.0691(7) 0.5098(5) 0.6970(5)
C12_4 C 0.1269(7) 0.5666(5) 0.6807(5)
H7_4 H 0.0971 0.5991 0.6494
C16_4 C 0.0607(8) 0.8373(7) 0.6073(6)
H9_4 H 0.0736 0.8536 0.5691
C17_4 C 0.1168(8) 0.7912(7) 0.7041(5)
H10_4 H 0.1704 0.7758 0.7366
C18_4 C 0.0151(8) 0.7891(7) 0.7139(5)
H11_4 H 0.0026 0.7728 0.7522
C19_4 C 0.5555(6) 0.7876(4) 0.8448(3)
C20_4 C 0.6122(6) 0.7762(4) 0.9119(4)
C21_4 C 0.6912(8) 0.7255(5) 0.9249(4)
H12_4 H 0.7111 0.6998 0.8925
C22_4 C 0.7402(7) 0.7135(5) 0.9865(4)
H13_4 H 0.7957 0.6810 0.9943
C24_4 C 0.5877(8) 0.8125(5) 0.9615(4)
H15_4 H 0.5368 0.8484 0.9544
C25_4 C 0.6764(6) 0.9716(4) 0.7236(4)
C31_4 C 0.3836(6) 0.9230(4) 0.6007(4)
C32_4 C 0.3775(6) 0.9863(4) 0.5539(4)
C33_4 C 0.2980(7) 0.9880(5) 0.5004(4)
H20_4 H 0.2430 0.9553 0.4959
C37_4 C 0.4761(6) 0.7278(4) 0.5744(4)
N2_4 N 0.1415(5) 0.8142(4) 0.6503(4)
O1_4 O 0.3782(4) 0.8052(2) 0.7134(2)
H24_4 H 0.3407 0.7992 0.7477
O2_4 O 0.5858(4) 0.8078(2) 0.7054(2)
H25_4 H 0.6515 0.8032 0.7362
O3_4 O 0.2428(4) 0.6811(3) 0.6553(3)
O4_4 O 0.3817(4) 0.6457(3) 0.7267(3)
O7_4 O 0.5374(4) 0.7315(3) 0.8118(2)
O8_4 O 0.5328(4) 0.8521(3) 0.8282(2)
O9_4 O 0.6094(4) 0.9599(3) 0.7560(3)
O10_4 O 0.6850(5) 0.9402(3) 0.6740(3)
O11_4 O 0.3056(4) 0.8833(3) 0.5945(3)
O12_4 O 0.4690(4) 0.9158(3) 0.6391(2)
O13_4 O 0.4276(4) 0.7285(3) 0.6187(2)
O14_4 O 0.5437(5) 0.7736(3) 0.5676(3)
C38_2 C 0.510(2) 0.5555(14) 0.3398(11)
H26_2 H 0.5559 0.5600 0.3110
H27_2 H 0.5198 0.5089 0.3602
H28_4 H 0.4390 0.5596 0.3171
O15_2 O 0.5309(10) 0.6107(7) 0.3851(5)
O16_4 O 0.2824(12) 0.5092(7) 0.4950(6)
C39_4 C 0.247(3) 0.4988(18) 0.5507(19)
H29_4 H 0.1950 0.5343 0.5536
H30_4 H 0.2184 0.4509 0.5509
H31_4 H 0.3047 0.5040 0.5859
O17_2 O 0.7550(5) 0.8125(4) 0.6272(3)
H6_4 H 0.9998 0.5053 0.6763
C13_4 C 0.8217(8) 0.8071(5) 0.6767(5)
C14_4 C 0.9356(7) 0.8103(5) 0.6685(5)
C15_4 C 0.9575(8) 0.8389(7) 0.6152(5)
H8_4 H 0.9051 0.8592 0.5846
O5_4 O 0.8075(6) 0.7971(5) 0.7309(4)
C6_3 C 0.0041(6) 0.8360(4) 0.9775(3)
H3_3 H 0.0533 0.8011 0.9732
C38_3 C 0.010(2) 0.9445(14) 0.8398(11)
H26_3 H 0.0559 0.9400 0.8110
H27_3 H 0.0198 0.9911 0.8602
O15_3 O 0.0309(10) 0.8893(7) 0.8851(5)
C6_4 C 0.9959(6) 0.1640(4) 0.0225(3)
H3_4 H 0.9467 0.1989 0.0268
C38_4 C 0.990(2) 0.0555(14) 0.1602(11)
H26_4 H 0.9441 0.0600 0.1890
H27_4 H 0.9802 0.0089 0.1398
O15_4 O 0.9691(10) 0.1107(7) 0.1149(5)
loop_
_geom_bond_atom_site_label_1
_geom_bond_atom_site_label_2
_geom_bond_site_symmetry_1
_geom_bond_site_symmetry_2
C19 C20 1_555 1_555
C20 C21 1_555 1_555
C21 H12 1_555 1_555
C22 C21 1_555 1_555
H13 C22 1_555 1_555
C23 H14 1_555 1_555
C24 C20 1_555 1_555
H15 C24 1_555 1_555
C25 C26 1_555 1_555
C26 C27 1_555 1_555
C27 H16 1_555 1_555
C28 C27 1_555 1_555
H17 C28 1_555 1_555
C29 H18 1_555 1_555
C30 C26 1_555 1_555
H19 C30 1_555 1_555
N3 C22 1_555 1_555
N4 C28 1_555 1_555
O2 H25 1_555 1_555
O7 C19 1_555 1_555
O8 C19 1_555 1_555
O9 C25 1_555 1_555
O10 C25 1_555 1_555
Ni4 O2 1_555 1_555
N9 Ni4 1_555 1_555
O17 Ni4 1_555 1_555
Ni5 N3 1_555 1_555
Ni6 N4 1_555 1_555
C23 C24 1_555 1_555
C23 N3 1_555 1_555
C29 C30 1_555 1_555
C29 N4 1_555 1_555
O10 Ni4 1_555 1_555
O14 Ni4 1_555 1_555
H5 C10 1_555 1_555
N1 C10 1_555 1_555
H30 C39 1_555 1_555
Ni7 N1 1_555 1_555
C1 C2 1_555 1_555
C2 H1 1_555 1_555
C7 C8 1_555 1_555
C8 C9 1_555 1_555
C9 H4 1_555 1_555
C11 H6 1_555 1_555
C12 C8 1_555 1_555
H7 C12 1_555 1_555
C13 C14 1_555 1_555
C14 C15 1_555 1_555
C15 H8 1_555 1_555
C16 C15 1_555 1_555
H9 C16 1_555 1_555
C17 H10 1_555 1_555
C18 C14 1_555 1_555
H11 C18 1_555 1_555
C31 C32 1_555 1_555
C32 C33 1_555 1_555
C35 H22 1_555 1_555
C36 C32 1_555 1_555
C37 C1 1_555 1_555
N2 C16 1_555 1_555
O1 H24 1_555 1_555
O3 C7 1_555 1_555
O4 C7 1_555 1_555
O5 C13 1_555 1_555
O17 C13 1_555 1_555
O11 C31 1_555 1_555
O12 C31 1_555 1_555
O13 C37 1_555 1_555
Ni1 N2 1_555 1_555
Ni2 O1 1_555 1_555
Ni3 O1 1_555 1_555
N6 Ni3 1_555 1_555
N7 Ni1 1_555 1_555
C11 C12 1_555 1_555
C17 C18 1_555 1_555
C17 N2 1_555 1_555
C35 C36 1_555 1_555
O1 Ni1 1_555 1_555
O3 Ni1 1_555 1_555
O4 Ni2 1_555 1_555
O11 Ni1 1_555 1_555
O12 Ni3 1_555 1_555
O13 Ni1 1_555 1_555
O13 Ni2 1_555 1_555
C4 C3 1_555 1_555
H2 C4 1_555 1_555
C5 C4 1_555 1_555
H21 C34 1_555 1_555
N5 C34 1_555 1_555
O16 C3 1_555 1_555
Ni9 N5 1_555 1_555
C13_2 C14_2 1_555 1_555
C14_2 C15_2 1_555 1_555
C15_2 H8_2 1_555 1_555
O5_2 C13_2 1_555 1_555
O6 C13_2 1_555 1_555
Ni8 O6 1_555 1_555
C1_2 C2_2 1_555 1_555
C2_2 H1_2 1_555 1_555
C3_2 C2_2 1_555 1_555
C4_2 C3_2 1_555 1_555
H2_2 C4_2 1_555 1_555
C5_2 C4_2 1_555 1_555
C6 C1_2 1_555 1_555
H3 C6 1_555 1_555
C7_2 C8_2 1_555 1_555
C8_2 C9_2 1_555 1_555
C9_2 H4_2 1_555 1_555
C10_2 C9_2 1_555 1_555
H5_2 C10_2 1_555 1_555
C12_2 C8_2 1_555 1_555
H7_2 C12_2 1_555 1_555
H9_2 C16_2 1_555 1_555
C17_2 H10_2 1_555 1_555
H11_2 C18_2 1_555 1_555
C19_2 C20_2 1_555 1_555
C20_2 C21_2 1_555 1_555
C21_2 H12_2 1_555 1_555
C22_2 C21_2 1_555 1_555
H13_2 C22_2 1_555 1_555
C24_2 C20_2 1_555 1_555
H15_2 C24_2 1_555 1_555
C31_2 C32_2 1_555 1_555
C32_2 C33_2 1_555 1_555
C33_2 H20_2 1_555 1_555
C37_2 C1_2 1_555 1_555
N6 C10_2 1_555 1_555
N2_2 C16_2 1_555 1_555
O1_2 H24_2 1_555 1_555
O2_2 H25_2 1_555 1_555
O3_2 C7_2 1_555 1_555
O4_2 C7_2 1_555 1_555
O7_2 C19_2 1_555 1_555
O8_2 C19_2 1_555 1_555
O9_2 C25_2 1_555 1_555
O10_2 C25_2 1_555 1_555
O11_2 C31_2 1_555 1_555
O12_2 C31_2 1_555 1_555
O13_2 C37_2 1_555 1_555
O14_2 C37_2 1_555 1_555
Ni1_2 N2_2 1_555 1_555
Ni6 O1_2 1_555 1_555
Ni7 O1_2 1_555 1_555
Ni8 O2_2 1_555 1_555
C38 H26 1_555 1_555
H27 C38 1_555 1_555
H28_2 C38 1_555 1_555
O15 C5_2 1_555 1_555
O16_2 C3_2 1_555 1_555
C39_2 O16_2 1_555 1_555
H29_2 C39_2 1_555 1_555
H30_2 C39_2 1_555 1_555
H31_2 C39_2 1_555 1_555
N7_2 Ni1_2 1_555 1_555
N9_2 Ni8 1_555 1_555
C5_2 C6 1_555 1_555
C11_2 C12_2 1_555 1_555
C11_2 N6 1_555 1_555
C17_2 C18_2 1_555 1_555
C17_2 N2_2 1_555 1_555
O1_2 Ni1_2 1_555 1_555
O2_2 Ni6 1_555 1_555
O2_2 Ni7 1_555 1_555
O3_2 Ni1_2 1_555 1_555
O4_2 Ni6 1_555 1_555
O7_2 Ni6 1_555 1_555
O8_2 Ni7 1_555 1_555
O9_2 Ni7 1_555 1_555
O10_2 Ni8 1_555 1_555
O11_2 Ni1_2 1_555 1_555
O12_2 Ni7 1_555 1_555
O12_2 Ni8 1_555 1_555
O13_2 Ni1_2 1_555 1_555
O13_2 Ni6 1_555 1_555
O14_2 Ni8 1_555 1_555
C38 O15 1_555 1_555
C23_2 H14_2 1_555 1_555
Ni5_2 N3_2 1_555 1_555
C23_2 N3_2 1_555 1_555
C26_2 C27_2 1_555 1_555
C27_2 H16_2 1_555 1_555
C28_2 C27_2 1_555 1_555
H17_2 C28_2 1_555 1_555
C29_2 H18_2 1_555 1_555
C30_2 C26_2 1_555 1_555
H19_2 C30_2 1_555 1_555
H21_2 C34_2 1_555 1_555
C35_2 H22_2 1_555 1_555
H23_2 C36_2 1_555 1_555
N8 C28_2 1_555 1_555
N5_2 C34_2 1_555 1_555
Ni9_2 N5_2 1_555 1_555
C29_2 C30_2 1_555 1_555
C29_2 N8 1_555 1_555
C35_2 C36_2 1_555 1_555
C35_2 N5_2 1_555 1_555
C4_3 C3_3 1_555 1_555
H2_3 C4_3 1_555 1_555
C5_3 C4_3 1_555 1_555
H21_3 C34_3 1_555 1_555
N9 C34_3 1_555 1_555
O16_3 C3_3 1_555 1_555
C1_3 C2_3 1_555 1_555
C2_3 H1_3 1_555 1_555
C7_3 C8_3 1_555 1_555
C8_3 C9_3 1_555 1_555
C9_3 H4_3 1_555 1_555
C11_3 H6_3 1_555 1_555
C12_3 C8_3 1_555 1_555
H7_3 C12_3 1_555 1_555
C13_3 C14_3 1_555 1_555
C14_3 C15_3 1_555 1_555
C15_3 H8_3 1_555 1_555
C16_3 C15_3 1_555 1_555
H9_3 C16_3 1_555 1_555
C17_3 H10_3 1_555 1_555
C18_3 C14_3 1_555 1_555
H11_3 C18_3 1_555 1_555
C31_3 C32_3 1_555 1_555
C32_3 C33_3 1_555 1_555
C35_3 H22_3 1_555 1_555
C36_3 C32_3 1_555 1_555
C37_3 C1_3 1_555 1_555
N2_3 C16_3 1_555 1_555
O1_3 H24_3 1_555 1_555
O3_3 C7_3 1_555 1_555
O4_3 C7_3 1_555 1_555
O5_3 C13_3 1_555 1_555
O6_2 C13_3 1_555 1_555
O11_3 C31_3 1_555 1_555
O12_3 C31_3 1_555 1_555
O13_3 C37_3 1_555 1_555
Ni5_2 N2_3 1_555 1_555
Ni2_2 O1_3 1_555 1_555
Ni3_2 O1_3 1_555 1_555
N6_2 Ni3_2 1_555 1_555
Ni9 O6_2 1_555 1_555
C11_3 C12_3 1_555 1_555
C17_3 C18_3 1_555 1_555
C17_3 N2_3 1_555 1_555
C35_3 C36_3 1_555 1_555
O1_3 Ni5_2 1_555 1_555
O3_3 Ni5_2 1_555 1_555
O4_3 Ni2_2 1_555 1_555
O11_3 Ni5_2 1_555 1_555
O12_3 Ni3_2 1_555 1_555
O13_3 Ni5_2 1_555 1_555
O13_3 Ni2_2 1_555 1_555
H5_3 C10_3 1_555 1_555
N1_2 C10_3 1_555 1_555
H30_3 C39_3 1_555 1_555
Ni7_2 N1_2 1_555 1_555
C19_3 C20_3 1_555 1_555
C20_3 C21_3 1_555 1_555
C21_3 H12_3 1_555 1_555
C22_3 C21_3 1_555 1_555
H13_3 C22_3 1_555 1_555
C23_3 H14_3 1_555 1_555
C24_3 C20_3 1_555 1_555
H15_3 C24_3 1_555 1_555
C25_3 C26_3 1_555 1_555
C26_3 C27_3 1_555 1_555
C27_3 H16_3 1_555 1_555
C28_3 C27_3 1_555 1_555
H17_3 C28_3 1_555 1_555
C29_3 H18_3 1_555 1_555
C30_3 C26_3 1_555 1_555
H19_3 C30_3 1_555 1_555
N7_2 C22_3 1_555 1_555
N4_2 C28_3 1_555 1_555
O2_3 H25_3 1_555 1_555
O7_3 C19_3 1_555 1_555
O8_3 C19_3 1_555 1_555
O9_3 C25_3 1_555 1_555
O10_3 C25_3 1_555 1_555
Ni9 O2_3 1_555 1_555
Ni6_2 N4_2 1_555 1_555
C23_3 C24_3 1_555 1_555
C23_3 N7_2 1_555 1_555
C29_3 C30_3 1_555 1_555
C29_3 N4_2 1_555 1_555
O10_3 Ni9 1_555 1_555
O14_3 Ni9 1_555 1_555
C26_4 C27_4 1_555 1_555
C27_4 H16_4 1_555 1_555
C28_4 C27_4 1_555 1_555
H17_4 C28_4 1_555 1_555
C29_4 H18_4 1_555 1_555
C30_4 C26_4 1_555 1_555
H19_4 C30_4 1_555 1_555
H21_4 C34_4 1_555 1_555
C35_4 H22_4 1_555 1_555
H23_4 C36_4 1_555 1_555
N8_2 C28_4 1_555 1_555
N9_2 C34_4 1_555 1_555
C29_4 C30_4 1_555 1_555
C29_4 N8_2 1_555 1_555
C35_4 C36_4 1_555 1_555
C35_4 N9_2 1_555 1_555
C23_4 H14_4 1_555 1_555
C23_4 N7 1_555 1_555
C1_4 C2_4 1_555 1_555
C2_4 H1_4 1_555 1_555
C3_4 C2_4 1_555 1_555
C4_4 C3_4 1_555 1_555
H2_4 C4_4 1_555 1_555
C5_4 C4_4 1_555 1_555
C6_2 C1_4 1_555 1_555
H3_2 C6_2 1_555 1_555
C7_4 C8_4 1_555 1_555
C8_4 C9_4 1_555 1_555
C9_4 H4_4 1_555 1_555
C10_4 C9_4 1_555 1_555
H5_4 C10_4 1_555 1_555
C12_4 C8_4 1_555 1_555
H7_4 C12_4 1_555 1_555
H9_4 C16_4 1_555 1_555
C17_4 H10_4 1_555 1_555
H11_4 C18_4 1_555 1_555
C19_4 C20_4 1_555 1_555
C20_4 C21_4 1_555 1_555
C21_4 H12_4 1_555 1_555
C22_4 C21_4 1_555 1_555
H13_4 C22_4 1_555 1_555
C24_4 C20_4 1_555 1_555
H15_4 C24_4 1_555 1_555
C31_4 C32_4 1_555 1_555
C32_4 C33_4 1_555 1_555
C33_4 H20_4 1_555 1_555
C37_4 C1_4 1_555 1_555
N6_2 C10_4 1_555 1_555
N2_4 C16_4 1_555 1_555
O1_4 H24_4 1_555 1_555
O2_4 H25_4 1_555 1_555
O3_4 C7_4 1_555 1_555
O4_4 C7_4 1_555 1_555
O7_4 C19_4 1_555 1_555
O8_4 C19_4 1_555 1_555
O9_4 C25_4 1_555 1_555
O10_4 C25_4 1_555 1_555
O11_4 C31_4 1_555 1_555
O12_4 C31_4 1_555 1_555
O13_4 C37_4 1_555 1_555
O14_4 C37_4 1_555 1_555
Ni5 N2_4 1_555 1_555
Ni6_2 O1_4 1_555 1_555
Ni7_2 O1_4 1_555 1_555
Ni9_2 O2_4 1_555 1_555
C38_2 H26_2 1_555 1_555
H27_2 C38_2 1_555 1_555
H28_4 C38_2 1_555 1_555
O15_2 C5_4 1_555 1_555
O16_4 C3_4 1_555 1_555
C39_4 O16_4 1_555 1_555
H29_4 C39_4 1_555 1_555
H30_4 C39_4 1_555 1_555
H31_4 C39_4 1_555 1_555
O17_2 Ni9_2 1_555 1_555
C5_4 C6_2 1_555 1_555
C11_4 C12_4 1_555 1_555
C11_4 N6_2 1_555 1_555
C17_4 C18_4 1_555 1_555
C17_4 N2_4 1_555 1_555
O1_4 Ni5 1_555 1_555
O2_4 Ni6_2 1_555 1_555
O2_4 Ni7_2 1_555 1_555
O3_4 Ni5 1_555 1_555
O4_4 Ni6_2 1_555 1_555
O7_4 Ni6_2 1_555 1_555
O8_4 Ni7_2 1_555 1_555
O9_4 Ni7_2 1_555 1_555
O10_4 Ni9_2 1_555 1_555
O11_4 Ni5 1_555 1_555
O12_4 Ni7_2 1_555 1_555
O12_4 Ni9_2 1_555 1_555
O13_4 Ni5 1_555 1_555
O13_4 Ni6_2 1_555 1_555
O14_4 Ni9_2 1_555 1_555
C38_2 O15_2 1_555 1_555
C13_4 C14_4 1_555 1_555
C14_4 C15_4 1_555 1_555
C15_4 H8_4 1_555 1_555
O5_4 C13_4 1_555 1_555
O17_2 C13_4 1_555 1_555
H3_3 C6_3 1_555 1_555
C38_3 H26_3 1_555 1_555
H27_3 C38_3 1_555 1_555
C38_3 O15_3 1_555 1_555
H3_4 C6_4 1_555 1_555
C38_4 H26_4 1_555 1_555
H27_4 C38_4 1_555 1_555
C38_4 O15_4 1_555 1_555

#END
