
###############################################################################
#
# This file contains modified crystal structure data generated from the
# MOF subset of the Cambridge Structural Database (CSD) v543 
# hosted by the Cambridge Crystallographic Data Centre (CCDC).
#
# This work is licensed under the Creative Commons
# Attribution-NonCommercial-ShareAlike 4.0 International License.
# To view a copy of this license, visit
# http://creativecommons.org/licenses/by-nc-sa/4.0/
# or send a letter to
# Creative Commons, PO Box 1866, Mountain View, CA 94042, USA.
#
# CIF created using the CSD Python API on 29 September 2022
# The structure has been converted into the P1 space group
# The structure has a 3D framework
# The original CSD entry LODCAK is in the orthorhombic crystal system
# The framework has been calculated to contain at least 10.0% void space
# The void calculation uses a probe of radius 1.32A, grid spacing 0.4
#
###############################################################################

data_LODCAK
_chemical_formula_moiety         '(C220 H208 N20 Ni10 O64)n'
_symmetry_cell_setting           triclinic
_symmetry_space_group_name_H-M   'P 1'
_symmetry_Int_Tables_number      1
_space_group_name_Hall           'P 1'
loop_
_symmetry_equiv_pos_site_id
_symmetry_equiv_pos_as_xyz
1 x,y,z
_cell_length_a                   23.423(4)
_cell_length_b                   11.2363(19)
_cell_length_c                   22.563(4)
_cell_angle_alpha                90
_cell_angle_beta                 90
_cell_angle_gamma                90
_cell_volume                     5938.31
loop_
_atom_site_label
_atom_site_type_symbol
_atom_site_fract_x
_atom_site_fract_y
_atom_site_fract_z
O9 O 0.43584(12) 0.1617(2) 0.31081(16)
O10 O 0.48155(16) 0.1252(4) 0.39566(18)
O11 O 0.23082(18) 0.1560(4) 0.4922(2)
O12 O 0.07810(15) 0.3352(4) 0.45882(19)
C38 C 0.4370(2) 0.1445(4) 0.3660(3)
C39 C 0.3817(2) 0.1474(4) 0.3974(3)
C40 C 0.3318(2) 0.1485(4) 0.3670(3)
H37 H 0.3321 0.1479 0.3258
C41 C 0.3802(2) 0.1474(5) 0.4591(3)
H38 H 0.4142 0.1455 0.4802
C42 C 0.3297(3) 0.1501(5) 0.4892(3)
H39 H 0.3294 0.1505 0.5304
C43 C 0.2800(2) 0.1521(5) 0.4588(3)
C44 C 0.2793(2) 0.1504(5) 0.3976(3)
H40 H 0.2449 0.1505 0.3770
C45 C 0.1795(2) 0.1744(6) 0.4617(3)
H41 H 0.1719 0.1086 0.4351
H42 H 0.1814 0.2472 0.4386
C46 C 0.1323(3) 0.1835(6) 0.5095(3)
H43 H 0.1288 0.1082 0.5302
H44 H 0.1423 0.2443 0.5382
C47 C 0.0774(3) 0.2140(7) 0.4809(3)
H45 H 0.0703 0.1597 0.4483
H46 H 0.0467 0.2051 0.5094
C48 C 0.0270(2) 0.3750(7) 0.4337(2)
C49 C 0.0257(2) 0.4984(7) 0.4264(2)
H47 H 0.0568 0.5446 0.4375
Ni4 Ni 0.5000 0.16156(6) 0.2500
O7 O 0.56282(11) 0.1550(2) 0.31746(14)
H1 H 0.5445 0.1423 0.3477
H2 H 0.5784 0.2197 0.3160
N1 N 0.5000 0.3477(4) 0.2500
N2 N 0.5000 0.9768(4) 0.2500
C24 C 0.45558(18) 0.4098(4) 0.2692(2)
H23 H 0.4239 0.3684 0.2830
C25 C 0.45381(18) 0.5314(3) 0.2699(2)
H24 H 0.4214 0.5704 0.2838
C26 C 0.5000 0.5963(5) 0.2500
C27 C 0.5000 0.7285(5) 0.2500
C28 C 0.5489(2) 0.7935(4) 0.2432(2)
H25 H 0.5838 0.7547 0.2391
C29 C 0.54683(19) 0.9146(4) 0.2425(3)
H26 H 0.5807 0.9558 0.2363
C30 C 0.54442(18) 0.4098(4) 0.2308(2)
H27 H 0.5761 0.3684 0.2170
C31 C 0.54619(18) 0.5314(3) 0.2301(2)
H28 H 0.5786 0.5704 0.2162
C32 C 0.4511(2) 0.7935(4) 0.2568(2)
H29 H 0.4162 0.7547 0.2609
C33 C 0.45317(19) 0.9146(4) 0.2575(3)
H30 H 0.4193 0.9558 0.2637
O16 O 0.43718(11) 0.1550(2) 0.18254(14)
H51 H 0.4555 0.1423 0.1523
H52 H 0.4216 0.2197 0.1840
O17 O 0.56416(12) 0.1617(2) 0.18919(16)
O2 O 0.51845(16) 0.1252(4) 0.10434(18)
O3 O 0.76918(18) 0.1560(4) 0.0078(2)
O4 O 0.92190(15) 0.3352(4) 0.04118(19)
C1 C 0.5630(2) 0.1445(4) 0.1340(3)
C2 C 0.6183(2) 0.1474(4) 0.1026(3)
C3 C 0.6682(2) 0.1485(4) 0.1330(3)
H5 H 0.6679 0.1479 0.1742
C4 C 0.6198(2) 0.1474(5) 0.0409(3)
H6 H 0.5858 0.1455 0.0198
C5 C 0.6703(3) 0.1501(5) 0.0108(3)
C6 C 0.7200(2) 0.1521(5) 0.0412(3)
C7 C 0.7207(2) 0.1504(5) 0.1024(3)
H8 H 0.7551 0.1505 0.1230
C8 C 0.8205(2) 0.1744(6) 0.0383(3)
H9 H 0.8281 0.1086 0.0649
H10 H 0.8186 0.2472 0.0614
C10 C 0.9226(3) 0.2140(7) 0.0191(3)
H13 H 0.9297 0.1597 0.0517
C11 C 0.9730(2) 0.3750(7) 0.0663(2)
C12 C 0.9743(2) 0.4984(7) 0.0736(2)
H15 H 0.9432 0.5446 0.0625
N5 N 0.0000 0.0232(4) 0.2500
Ni1 Ni 0.0000 0.83844(6) 0.2500
Ni2 Ni 0.7500 0.5000 0.35267(3)
O1 O 0.06416(12) 0.8383(2) 0.31081(16)
O2_2 O 0.01845(16) 0.8748(4) 0.39566(18)
O3_2 O 0.26918(18) 0.8440(4) 0.4922(2)
O4_2 O 0.42190(15) 0.6648(4) 0.45882(19)
O5 O 0.62329(12) 0.3530(3) 0.34971(15)
O6 O 0.66387(12) 0.5320(3) 0.35376(12)
O8 O 0.76135(13) 0.6870(3) 0.35330(15)
H3 H 0.7701 0.7356 0.3806
H4 H 0.7902 0.6798 0.3324
N1_2 N 0.0000 0.6523(4) 0.2500
N3 N 0.7500 0.5000 0.4461(2)
N4 N 0.7500 0.5000 0.7598(2)
C1_2 C 0.0630(2) 0.8555(4) 0.3660(3)
C2_2 C 0.1183(2) 0.8526(4) 0.3974(3)
C3_2 C 0.1682(2) 0.8515(4) 0.3670(3)
H5_2 H 0.1679 0.8521 0.3258
C4_2 C 0.1198(2) 0.8526(5) 0.4591(3)
H6_2 H 0.0858 0.8545 0.4802
C5_2 C 0.1703(3) 0.8499(5) 0.4892(3)
H7 H 0.1706 0.8495 0.5304
C6_2 C 0.2200(2) 0.8479(5) 0.4588(3)
C7_2 C 0.2207(2) 0.8496(5) 0.3976(3)
H8_2 H 0.2551 0.8495 0.3770
C8_2 C 0.3205(2) 0.8256(6) 0.4617(3)
H9_2 H 0.3281 0.8914 0.4351
H10_2 H 0.3186 0.7528 0.4386
C9 C 0.3677(3) 0.8165(6) 0.5095(3)
H11 H 0.3712 0.8918 0.5302
H12 H 0.3577 0.7557 0.5382
C10_2 C 0.4226(3) 0.7860(7) 0.4809(3)
H13_2 H 0.4297 0.8403 0.4483
H14 H 0.4533 0.7949 0.5094
C11_2 C 0.4730(2) 0.6250(7) 0.4337(2)
C12_2 C 0.4743(2) 0.5016(7) 0.4264(2)
H15_2 H 0.4432 0.4554 0.4375
C13 C 0.5228(2) 0.4480(5) 0.4024(2)
H16 H 0.5238 0.3659 0.3971
C14 C 0.56906(18) 0.5158(5) 0.38638(19)
C15 C 0.5651(2) 0.6380(5) 0.3948(2)
H17 H 0.5958 0.6857 0.3838
C16 C 0.5174(2) 0.6912(6) 0.4189(2)
H18 H 0.5165 0.7731 0.4247
C17 C 0.62195(19) 0.4626(5) 0.36107(19)
C18 C 0.7083(2) 0.5467(5) 0.4766(2)
H19 H 0.6780 0.5813 0.4562
C19 C 0.7070(2) 0.5470(5) 0.5381(2)
H20 H 0.6758 0.5804 0.5573
C20 C 0.7500 0.5000 0.5713(3)
C21 C 0.7500 0.5000 0.6367(2)
C22 C 0.79512(19) 0.4588(5) 0.6687(2)
H21 H 0.8273 0.4300 0.6492
C23 C 0.79347(19) 0.4596(5) 0.7289(2)
H22 H 0.8248 0.4298 0.7493
C24_2 C 0.04442(18) 0.5902(4) 0.2692(2)
H23_2 H 0.0761 0.6316 0.2830
C25_2 C 0.04619(18) 0.4686(3) 0.2699(2)
H24_2 H 0.0786 0.4296 0.2838
C26_2 C 0.0000 0.4037(5) 0.2500
C27_2 C 0.0000 0.2715(5) 0.2500
C32_2 C 0.0489(2) 0.2065(4) 0.2568(2)
H29_2 H 0.0838 0.2453 0.2609
C33_2 C 0.04683(19) 0.0854(4) 0.2575(3)
H30_2 H 0.0807 0.0442 0.2637
C34 C 0.7917(2) 0.4533(5) 0.4766(2)
H31 H 0.8220 0.4187 0.4562
C35 C 0.7930(2) 0.4530(5) 0.5381(2)
H32 H 0.8242 0.4196 0.5573
C36 C 0.70488(19) 0.5412(5) 0.6687(2)
H33 H 0.6727 0.5700 0.6492
C37 C 0.70653(19) 0.5404(5) 0.7289(2)
H34 H 0.6752 0.5702 0.7493
O13 O 0.87671(12) 0.6470(3) 0.34971(15)
O14 O 0.83613(12) 0.4680(3) 0.35376(12)
O15 O 0.73865(13) 0.3130(3) 0.35330(15)
H35 H 0.7299 0.2644 0.3806
H36 H 0.7098 0.3202 0.3324
C50 C 0.9772(2) 0.5520(5) 0.4024(2)
H48 H 0.9762 0.6341 0.3971
C51 C 0.93094(18) 0.4842(5) 0.38638(19)
C52 C 0.9349(2) 0.3620(5) 0.3948(2)
H49 H 0.9042 0.3143 0.3838
C53 C 0.9826(2) 0.3088(6) 0.4189(2)
H50 H 0.9835 0.2269 0.4247
C54 C 0.87805(19) 0.5374(5) 0.36107(19)
O16_2 O 0.06282(11) 0.8450(2) 0.18254(14)
H51_2 H 0.0445 0.8577 0.1523
H52_2 H 0.0784 0.7803 0.1840
Ni5 Ni 0.7500 0.5000 0.85267(3)
N6 N 0.7500 0.5000 0.2598(2)
Ni3 Ni -0.0000 0.16156(6) 0.7500
O7_2 O 0.06282(11) 0.1550(2) 0.68254(14)
H1_2 H 0.0445 0.1423 0.6523
H2_2 H 0.0784 0.2197 0.6840
N1_3 N -0.0000 0.3477(4) 0.7500
N2_2 N 0.0000 0.9768(4) 0.7500
C26_3 C -0.0000 0.5963(5) 0.7500
C27_3 C -0.0000 0.7285(5) 0.7500
C28_2 C 0.0489(2) 0.7935(4) 0.7568(2)
H25_2 H 0.0838 0.7547 0.7609
C29_2 C 0.04683(19) 0.9146(4) 0.7575(3)
H26_2 H 0.0807 0.9558 0.7637
C30_2 C 0.04442(18) 0.4098(4) 0.7692(2)
H27_2 H 0.0761 0.3684 0.7830
C31_2 C 0.04619(18) 0.5314(3) 0.7699(2)
H28_2 H 0.0786 0.5704 0.7838
O17_2 O 0.06416(12) 0.1617(2) 0.81081(16)
C19_2 C 0.7930(2) 0.5470(5) 0.0381(2)
H20_2 H 0.8242 0.5804 0.0573
C20_2 C 0.7500 0.5000 0.0713(3)
C21_2 C 0.7500 0.5000 0.1367(2)
C22_2 C 0.70488(19) 0.4588(5) 0.1687(2)
H21_2 H 0.6727 0.4300 0.1492
C23_2 C 0.70653(19) 0.4596(5) 0.2289(2)
H22_2 H 0.6752 0.4298 0.2493
C35_2 C 0.7070(2) 0.4530(5) 0.0381(2)
H32_2 H 0.6758 0.4196 0.0573
C36_2 C 0.79512(19) 0.5412(5) 0.1687(2)
H33_2 H 0.8273 0.5700 0.1492
C37_2 C 0.79347(19) 0.5404(5) 0.2289(2)
H34_2 H 0.8248 0.5702 0.2493
H39_2 H 0.1706 0.1505 0.0304
C46_2 C 0.3677(3) 0.1835(6) 0.0095(3)
H43_2 H 0.3712 0.1082 0.0302
H44_2 H 0.3577 0.2443 0.0382
H46_2 H 0.4533 0.2051 0.0094
O5_2 O 0.87671(12) 0.3530(3) 0.84971(15)
O6_2 O 0.83613(12) 0.5320(3) 0.85376(12)
O8_2 O 0.73865(13) 0.6870(3) 0.85330(15)
H3_2 H 0.7299 0.7356 0.8806
H4_2 H 0.7098 0.6798 0.8324
N3_2 N 0.7500 0.5000 0.9461(2)
C13_2 C 0.9772(2) 0.4480(5) 0.9024(2)
H16_2 H 0.9762 0.3659 0.8971
C14_2 C 0.93094(18) 0.5158(5) 0.88638(19)
C15_2 C 0.9349(2) 0.6380(5) 0.8948(2)
H17_2 H 0.9042 0.6857 0.8838
C16_2 C 0.9826(2) 0.6912(6) 0.9189(2)
H18_2 H 0.9835 0.7731 0.9247
C17_2 C 0.87805(19) 0.4626(5) 0.86107(19)
C18_2 C 0.7917(2) 0.5467(5) 0.9766(2)
H19_2 H 0.8220 0.5813 0.9562
C34_2 C 0.7083(2) 0.4533(5) 0.9766(2)
H31_2 H 0.6780 0.4187 0.9562
O10_2 O 0.01845(16) 0.1252(4) 0.89566(18)
O11_2 O 0.26918(18) 0.1560(4) 0.9922(2)
O12_2 O 0.42190(15) 0.3352(4) 0.95882(19)
O13_2 O 0.62329(12) 0.6470(3) 0.84971(15)
O14_2 O 0.66387(12) 0.4680(3) 0.85376(12)
O15_2 O 0.76135(13) 0.3130(3) 0.85330(15)
H35_2 H 0.7701 0.2644 0.8806
H36_2 H 0.7902 0.3202 0.8324
C38_2 C 0.0630(2) 0.1445(4) 0.8660(3)
C39_2 C 0.1183(2) 0.1474(4) 0.8974(3)
C40_2 C 0.1682(2) 0.1485(4) 0.8670(3)
H37_2 H 0.1679 0.1479 0.8258
C41_2 C 0.1198(2) 0.1474(5) 0.9591(3)
H38_2 H 0.0858 0.1455 0.9802
C42_2 C 0.1703(3) 0.1501(5) 0.9892(3)
C43_2 C 0.2200(2) 0.1521(5) 0.9588(3)
C44_2 C 0.2207(2) 0.1504(5) 0.8976(3)
H40_2 H 0.2551 0.1505 0.8770
C45_2 C 0.3205(2) 0.1744(6) 0.9617(3)
H41_2 H 0.3281 0.1086 0.9351
H42_2 H 0.3186 0.2472 0.9386
C47_2 C 0.4226(3) 0.2140(7) 0.9809(3)
H45_2 H 0.4297 0.1597 0.9483
C48_2 C 0.4730(2) 0.3750(7) 0.9337(2)
C49_2 C 0.4743(2) 0.4984(7) 0.9264(2)
H47_2 H 0.4432 0.5446 0.9375
C50_2 C 0.5228(2) 0.5520(5) 0.9024(2)
H48_2 H 0.5238 0.6341 0.8971
C51_2 C 0.56906(18) 0.4842(5) 0.88638(19)
C52_2 C 0.5651(2) 0.3620(5) 0.8948(2)
H49_2 H 0.5958 0.3143 0.8838
C53_2 C 0.5174(2) 0.3088(6) 0.9189(2)
H50_2 H 0.5165 0.2269 0.9247
C54_2 C 0.62195(19) 0.5374(5) 0.86107(19)
N5_2 N 1.0000 0.0232(4) 0.2500
Ni1_2 Ni 1.0000 0.83844(6) 0.2500
O7_3 O 0.93718(11) 0.8450(2) 0.31746(14)
H1_3 H 0.9555 0.8577 0.3477
H2_3 H 0.9216 0.7803 0.3160
N1_4 N 1.0000 0.6523(4) 0.2500
C26_4 C 1.0000 0.4037(5) 0.2500
C27_4 C 1.0000 0.2715(5) 0.2500
C28_3 C 0.9511(2) 0.2065(4) 0.2432(2)
H25_3 H 0.9162 0.2453 0.2391
C29_3 C 0.95317(19) 0.0854(4) 0.2425(3)
H26_3 H 0.9193 0.0442 0.2363
C30_3 C 0.95558(18) 0.5902(4) 0.2308(2)
H27_3 H 0.9239 0.6316 0.2170
C31_3 C 0.95381(18) 0.4686(3) 0.2301(2)
H28_3 H 0.9214 0.4296 0.2162
O17_3 O 0.93584(12) 0.8383(2) 0.18919(16)
Ni2_2 Ni 0.2500 0.5000 0.14733(3)
O5_3 O 0.12329(12) 0.6470(3) 0.15029(15)
O6_3 O 0.16387(12) 0.4680(3) 0.14624(12)
O8_3 O 0.26135(13) 0.3130(3) 0.14670(15)
H3_3 H 0.2701 0.2644 0.1194
H4_3 H 0.2902 0.3202 0.1676
N3_3 N 0.2500 0.5000 0.0539(2)
C13_3 C 0.0228(2) 0.5520(5) 0.0976(2)
H16_3 H 0.0238 0.6341 0.1029
C14_3 C 0.06906(18) 0.4842(5) 0.11362(19)
C15_3 C 0.0651(2) 0.3620(5) 0.1052(2)
H17_3 H 0.0958 0.3143 0.1162
C16_3 C 0.0174(2) 0.3088(6) 0.0811(2)
H18_3 H 0.0165 0.2269 0.0753
C17_3 C 0.12195(19) 0.5374(5) 0.13893(19)
C18_3 C 0.2083(2) 0.4533(5) 0.0234(2)
H19_3 H 0.1780 0.4187 0.0438
C34_3 C 0.2917(2) 0.5467(5) 0.0234(2)
H31_3 H 0.3220 0.5813 0.0438
O10_3 O 0.98155(16) 0.8748(4) 0.10434(18)
O11_3 O 0.73082(18) 0.8440(4) 0.0078(2)
O12_3 O 0.57810(15) 0.6648(4) 0.04118(19)
O13_3 O 0.37671(12) 0.3530(3) 0.15029(15)
O14_3 O 0.33613(12) 0.5320(3) 0.14624(12)
O15_3 O 0.23865(13) 0.6870(3) 0.14670(15)
H35_3 H 0.2299 0.7356 0.1194
H36_3 H 0.2098 0.6798 0.1676
C38_3 C 0.9370(2) 0.8555(4) 0.1340(3)
C39_3 C 0.8817(2) 0.8526(4) 0.1026(3)
C40_3 C 0.8318(2) 0.8515(4) 0.1330(3)
H37_3 H 0.8321 0.8521 0.1742
C41_3 C 0.8802(2) 0.8526(5) 0.0409(3)
H38_3 H 0.9142 0.8545 0.0198
C42_3 C 0.8297(3) 0.8499(5) 0.0108(3)
C43_3 C 0.7800(2) 0.8479(5) 0.0412(3)
C44_3 C 0.7793(2) 0.8496(5) 0.1024(3)
H40_3 H 0.7449 0.8495 0.1230
C45_3 C 0.6795(2) 0.8256(6) 0.0383(3)
H41_3 H 0.6719 0.8914 0.0649
H42_3 H 0.6814 0.7528 0.0614
C47_3 C 0.5774(3) 0.7860(7) 0.0191(3)
H45_3 H 0.5703 0.8403 0.0517
C48_3 C 0.5270(2) 0.6250(7) 0.0663(2)
C49_3 C 0.5257(2) 0.5016(7) 0.0736(2)
H47_3 H 0.5568 0.4554 0.0625
C50_3 C 0.4772(2) 0.4480(5) 0.0976(2)
H48_3 H 0.4762 0.3659 0.1029
C51_3 C 0.43094(18) 0.5158(5) 0.11362(19)
C52_3 C 0.4349(2) 0.6380(5) 0.1052(2)
H49_3 H 0.4042 0.6857 0.1162
C53_3 C 0.4826(2) 0.6912(6) 0.0811(2)
H50_3 H 0.4835 0.7731 0.0753
C54_3 C 0.37805(19) 0.4626(5) 0.13893(19)
N6_2 N 0.2500 0.5000 0.2402(2)
N4_2 N 0.2500 0.5000 0.7402(2)
C19_3 C 0.2070(2) 0.4530(5) 0.9619(2)
H20_3 H 0.1758 0.4196 0.9427
C20_3 C 0.2500 0.5000 0.9287(3)
C21_3 C 0.2500 0.5000 0.8633(2)
C22_3 C 0.29512(19) 0.5412(5) 0.8313(2)
H21_3 H 0.3273 0.5700 0.8508
C23_3 C 0.29347(19) 0.5404(5) 0.7711(2)
H22_3 H 0.3248 0.5702 0.7507
C35_3 C 0.2930(2) 0.5470(5) 0.9619(2)
H32_3 H 0.3242 0.5804 0.9427
C36_3 C 0.20488(19) 0.4588(5) 0.8313(2)
H33_3 H 0.1727 0.4300 0.8508
C37_3 C 0.20653(19) 0.4596(5) 0.7711(2)
H34_3 H 0.1752 0.4298 0.7507
H39_3 H 0.8294 0.8495 0.9696
C46_3 C 0.6323(3) 0.8165(6) 0.9905(3)
H43_3 H 0.6288 0.8918 0.9698
H44_3 H 0.6423 0.7557 0.9618
H46_3 H 0.5467 0.7949 0.9906
Ni5_2 Ni 0.2500 0.5000 0.64733(3)
Ni3_2 Ni 1.0000 0.16156(6) 0.7500
O1_2 O 0.93584(12) 0.1617(2) 0.68919(16)
O2_3 O 0.98155(16) 0.1252(4) 0.60434(18)
O3_3 O 0.73082(18) 0.1560(4) 0.5078(2)
O4_3 O 0.57810(15) 0.3352(4) 0.54118(19)
O5_4 O 0.37671(12) 0.6470(3) 0.65029(15)
O6_4 O 0.33613(12) 0.4680(3) 0.64624(12)
O8_4 O 0.23865(13) 0.3130(3) 0.64670(15)
H3_4 H 0.2299 0.2644 0.6194
H4_4 H 0.2098 0.3202 0.6676
N1_5 N 1.0000 0.3477(4) 0.7500
N2_3 N 1.0000 0.9768(4) 0.7500
N3_4 N 0.2500 0.5000 0.5539(2)
C1_3 C 0.9370(2) 0.1445(4) 0.6340(3)
C2_3 C 0.8817(2) 0.1474(4) 0.6026(3)
C3_3 C 0.8318(2) 0.1485(4) 0.6330(3)
H5_3 H 0.8321 0.1479 0.6742
C4_3 C 0.8802(2) 0.1474(5) 0.5409(3)
H6_3 H 0.9142 0.1455 0.5198
C5_3 C 0.8297(3) 0.1501(5) 0.5108(3)
H7_2 H 0.8294 0.1505 0.4696
C6_3 C 0.7800(2) 0.1521(5) 0.5412(3)
C7_3 C 0.7793(2) 0.1504(5) 0.6024(3)
H8_3 H 0.7449 0.1505 0.6230
C8_3 C 0.6795(2) 0.1744(6) 0.5383(3)
H9_3 H 0.6719 0.1086 0.5649
H10_3 H 0.6814 0.2472 0.5614
C9_2 C 0.6323(3) 0.1835(6) 0.4905(3)
H11_2 H 0.6288 0.1082 0.4698
H12_2 H 0.6423 0.2443 0.4618
C10_3 C 0.5774(3) 0.2140(7) 0.5191(3)
H13_3 H 0.5703 0.1597 0.5517
H14_2 H 0.5467 0.2051 0.4906
C11_3 C 0.5270(2) 0.3750(7) 0.5663(2)
C12_3 C 0.5257(2) 0.4984(7) 0.5736(2)
H15_3 H 0.5568 0.5446 0.5625
C13_4 C 0.4772(2) 0.5520(5) 0.5976(2)
H16_4 H 0.4762 0.6341 0.6029
C14_4 C 0.43094(18) 0.4842(5) 0.61362(19)
C15_4 C 0.4349(2) 0.3620(5) 0.6052(2)
H17_4 H 0.4042 0.3143 0.6162
C16_4 C 0.4826(2) 0.3088(6) 0.5811(2)
H18_4 H 0.4835 0.2269 0.5753
C17_4 C 0.37805(19) 0.5374(5) 0.63893(19)
C18_4 C 0.2917(2) 0.4533(5) 0.5234(2)
H19_4 H 0.3220 0.4187 0.5438
C19_4 C 0.2930(2) 0.4530(5) 0.4619(2)
H20_4 H 0.3242 0.4196 0.4427
C20_4 C 0.2500 0.5000 0.4287(3)
C21_4 C 0.2500 0.5000 0.3633(2)
C22_4 C 0.20488(19) 0.5412(5) 0.3313(2)
H21_4 H 0.1727 0.5700 0.3508
C23_4 C 0.20653(19) 0.5404(5) 0.2711(2)
H22_4 H 0.1752 0.5702 0.2507
C24_3 C 0.95558(18) 0.4098(4) 0.7308(2)
H23_3 H 0.9239 0.3684 0.7170
C25_3 C 0.95381(18) 0.5314(3) 0.7301(2)
H24_3 H 0.9214 0.5704 0.7162
C26_5 C 1.0000 0.5963(5) 0.7500
C27_5 C 1.0000 0.7285(5) 0.7500
C32_3 C 0.9511(2) 0.7935(4) 0.7432(2)
H29_3 H 0.9162 0.7547 0.7391
C33_3 C 0.95317(19) 0.9146(4) 0.7425(3)
H30_3 H 0.9193 0.9558 0.7363
C34_4 C 0.2083(2) 0.5467(5) 0.5234(2)
H31_4 H 0.1780 0.5813 0.5438
C35_4 C 0.2070(2) 0.5470(5) 0.4619(2)
H32_4 H 0.1758 0.5804 0.4427
C36_4 C 0.29512(19) 0.4588(5) 0.3313(2)
H33_4 H 0.3273 0.4300 0.3508
C37_4 C 0.29347(19) 0.4596(5) 0.2711(2)
H34_4 H 0.3248 0.4298 0.2507
O13_4 O 0.12329(12) 0.3530(3) 0.65029(15)
O14_4 O 0.16387(12) 0.5320(3) 0.64624(12)
O15_4 O 0.26135(13) 0.6870(3) 0.64670(15)
H35_4 H 0.2701 0.7356 0.6194
H36_4 H 0.2902 0.6798 0.6676
C50_4 C 0.0228(2) 0.4480(5) 0.5976(2)
H48_4 H 0.0238 0.3659 0.6029
C51_4 C 0.06906(18) 0.5158(5) 0.61362(19)
C52_4 C 0.0651(2) 0.6380(5) 0.6052(2)
H49_4 H 0.0958 0.6857 0.6162
C53_4 C 0.0174(2) 0.6912(6) 0.5811(2)
H50_4 H 0.0165 0.7731 0.5753
C54_4 C 0.12195(19) 0.4626(5) 0.63893(19)
O16_3 O 0.93718(11) 0.1550(2) 0.81746(14)
H51_3 H 0.9555 0.1423 0.8477
H52_3 H 0.9216 0.2197 0.8160
H7_3 H 0.6706 0.1505 0.9696
C9_3 C 0.8677(3) 0.1835(6) 0.9905(3)
H11_3 H 0.8712 0.1082 0.9698
H12_3 H 0.8577 0.2443 0.9618
H14_3 H 0.9533 0.2051 0.9906
O9_2 O 0.56416(12) 0.8383(2) 0.68919(16)
O10_4 O 0.51845(16) 0.8748(4) 0.60434(18)
O11_4 O 0.76918(18) 0.8440(4) 0.5078(2)
O12_4 O 0.92190(15) 0.6648(4) 0.54118(19)
C38_4 C 0.5630(2) 0.8555(4) 0.6340(3)
C39_4 C 0.6183(2) 0.8526(4) 0.6026(3)
C40_4 C 0.6682(2) 0.8515(4) 0.6330(3)
H37_4 H 0.6679 0.8521 0.6742
C41_4 C 0.6198(2) 0.8526(5) 0.5409(3)
H38_4 H 0.5858 0.8545 0.5198
C42_4 C 0.6703(3) 0.8499(5) 0.5108(3)
H39_4 H 0.6706 0.8495 0.4696
C43_4 C 0.7200(2) 0.8479(5) 0.5412(3)
C44_4 C 0.7207(2) 0.8496(5) 0.6024(3)
H40_4 H 0.7551 0.8495 0.6230
C45_4 C 0.8205(2) 0.8256(6) 0.5383(3)
H41_4 H 0.8281 0.8914 0.5649
H42_4 H 0.8186 0.7528 0.5614
C46_4 C 0.8677(3) 0.8165(6) 0.4905(3)
H43_4 H 0.8712 0.8918 0.4698
H44_4 H 0.8577 0.7557 0.4618
C47_4 C 0.9226(3) 0.7860(7) 0.5191(3)
H45_4 H 0.9297 0.8403 0.5517
H46_4 H 0.9533 0.7949 0.4906
C48_4 C 0.9730(2) 0.6250(7) 0.5663(2)
C49_4 C 0.9743(2) 0.5016(7) 0.5736(2)
H47_4 H 0.9432 0.4554 0.5625
Ni4_2 Ni 0.5000 0.83844(6) 0.7500
N5_3 N 0.5000 0.0232(4) 0.7500
O7_4 O 0.43718(11) 0.8450(2) 0.68254(14)
H1_4 H 0.4555 0.8577 0.6523
H2_4 H 0.4216 0.7803 0.6840
N1_6 N 0.5000 0.6523(4) 0.7500
C24_4 C 0.54442(18) 0.5902(4) 0.7308(2)
H23_4 H 0.5761 0.6316 0.7170
C25_4 C 0.54619(18) 0.4686(3) 0.7301(2)
H24_4 H 0.5786 0.4296 0.7162
C26_6 C 0.5000 0.4037(5) 0.7500
C27_6 C 0.5000 0.2715(5) 0.7500
C28_4 C 0.4511(2) 0.2065(4) 0.7568(2)
H25_4 H 0.4162 0.2453 0.7609
C29_4 C 0.45317(19) 0.0854(4) 0.7575(3)
H26_4 H 0.4193 0.0442 0.7637
C30_4 C 0.45558(18) 0.5902(4) 0.7692(2)
H27_4 H 0.4239 0.6316 0.7830
C31_4 C 0.45381(18) 0.4686(3) 0.7699(2)
H28_4 H 0.4214 0.4296 0.7838
C32_4 C 0.5489(2) 0.2065(4) 0.7432(2)
H29_4 H 0.5838 0.2453 0.7391
C33_4 C 0.54683(19) 0.0854(4) 0.7425(3)
H30_4 H 0.5807 0.0442 0.7363
O16_4 O 0.56282(11) 0.8450(2) 0.81746(14)
H51_4 H 0.5445 0.8577 0.8477
H52_4 H 0.5784 0.7803 0.8160
O17_4 O 0.43584(12) 0.8383(2) 0.81081(16)
O2_4 O 0.48155(16) 0.8748(4) 0.89566(18)
O3_4 O 0.23082(18) 0.8440(4) 0.9922(2)
O4_4 O 0.07810(15) 0.6648(4) 0.95882(19)
C1_4 C 0.4370(2) 0.8555(4) 0.8660(3)
C2_4 C 0.3817(2) 0.8526(4) 0.8974(3)
C3_4 C 0.3318(2) 0.8515(4) 0.8670(3)
H5_4 H 0.3321 0.8521 0.8258
C4_4 C 0.3802(2) 0.8526(5) 0.9591(3)
H6_4 H 0.4142 0.8545 0.9802
C5_4 C 0.3297(3) 0.8499(5) 0.9892(3)
C6_4 C 0.2800(2) 0.8479(5) 0.9588(3)
C7_4 C 0.2793(2) 0.8496(5) 0.8976(3)
H8_4 H 0.2449 0.8495 0.8770
C8_4 C 0.1795(2) 0.8256(6) 0.9617(3)
H9_4 H 0.1719 0.8914 0.9351
H10_4 H 0.1814 0.7528 0.9386
C10_4 C 0.0774(3) 0.7860(7) 0.9809(3)
H13_4 H 0.0703 0.8403 0.9483
C11_4 C 0.0270(2) 0.6250(7) 0.9337(2)
C12_4 C 0.0257(2) 0.5016(7) 0.9264(2)
H15_4 H 0.0568 0.4554 0.9375
H7_4 H 0.3294 0.8495 0.0304
C9_4 C 0.1323(3) 0.8165(6) 0.0095(3)
H11_4 H 0.1288 0.8918 0.0302
H12_4 H 0.1423 0.7557 0.0382
H14_4 H 0.0467 0.7949 0.0094
loop_
_geom_bond_atom_site_label_1
_geom_bond_atom_site_label_2
_geom_bond_site_symmetry_1
_geom_bond_site_symmetry_2
O9 C38 1_555 1_555
O10 C38 1_555 1_555
O11 C43 1_555 1_555
O12 C47 1_555 1_555
C38 C39 1_555 1_555
C39 C40 1_555 1_555
C40 H37 1_555 1_555
C41 C39 1_555 1_555
H38 C41 1_555 1_555
C42 C41 1_555 1_555
H39 C42 1_555 1_555
C43 C42 1_555 1_555
C44 C40 1_555 1_555
H40 C44 1_555 1_555
C45 O11 1_555 1_555
H41 C45 1_555 1_555
H42 C45 1_555 1_555
C46 C45 1_555 1_555
H43 C46 1_555 1_555
H44 C46 1_555 1_555
C47 C46 1_555 1_555
H45 C47 1_555 1_555
H46 C47 1_555 1_555
C48 O12 1_555 1_555
C49 C48 1_555 1_555
H47 C49 1_555 1_555
Ni4 O9 1_555 1_555
C43 C44 1_555 1_555
O7 Ni4 1_555 1_555
H1 O7 1_555 1_555
H2 O7 1_555 1_555
N1 Ni4 1_555 1_555
N2 C29 1_555 1_555
C24 N1 1_555 1_555
H23 C24 1_555 1_555
C25 C24 1_555 1_555
H24 C25 1_555 1_555
C26 C25 1_555 1_555
C27 C26 1_555 1_555
C28 C27 1_555 1_555
H25 C28 1_555 1_555
C29 C28 1_555 1_555
H26 C29 1_555 1_555
C30 N1 1_555 1_555
H27 C30 1_555 1_555
C31 C26 1_555 1_555
H28 C31 1_555 1_555
C32 C27 1_555 1_555
H29 C32 1_555 1_555
C33 N2 1_555 1_555
H30 C33 1_555 1_555
O16 Ni4 1_555 1_555
H51 O16 1_555 1_555
H52 O16 1_555 1_555
O17 Ni4 1_555 1_555
C30 C31 1_555 1_555
C32 C33 1_555 1_555
O17 C1 1_555 1_555
O2 C1 1_555 1_555
O3 C6 1_555 1_555
O4 C10 1_555 1_555
C1 C2 1_555 1_555
C2 C3 1_555 1_555
C3 H5 1_555 1_555
C4 C2 1_555 1_555
H6 C4 1_555 1_555
C5 C4 1_555 1_555
C6 C5 1_555 1_555
C7 C3 1_555 1_555
H8 C7 1_555 1_555
C8 O3 1_555 1_555
H9 C8 1_555 1_555
H10 C8 1_555 1_555
H13 C10 1_555 1_555
C11 O4 1_555 1_555
C12 C11 1_555 1_555
H15 C12 1_555 1_555
C6 C7 1_555 1_555
Ni1 O1 1_555 1_555
Ni2 O6 1_555 1_555
O1 C1_2 1_555 1_555
O2_2 C1_2 1_555 1_555
O3_2 C6_2 1_555 1_555
O4_2 C10_2 1_555 1_555
O5 C17 1_555 1_555
O6 C17 1_555 1_555
O8 Ni2 1_555 1_555
H3 O8 1_555 1_555
H4 O8 1_555 1_555
N1_2 Ni1 1_555 1_555
N3 Ni2 1_555 1_555
N4 C23 1_555 1_555
C1_2 C2_2 1_555 1_555
C2_2 C3_2 1_555 1_555
C3_2 H5_2 1_555 1_555
C4_2 C2_2 1_555 1_555
H6_2 C4_2 1_555 1_555
C5_2 C4_2 1_555 1_555
H7 C5_2 1_555 1_555
C6_2 C5_2 1_555 1_555
C7_2 C3_2 1_555 1_555
H8_2 C7_2 1_555 1_555
C8_2 O3_2 1_555 1_555
H9_2 C8_2 1_555 1_555
H10_2 C8_2 1_555 1_555
C9 C8_2 1_555 1_555
H11 C9 1_555 1_555
H12 C9 1_555 1_555
C10_2 C9 1_555 1_555
H13_2 C10_2 1_555 1_555
H14 C10_2 1_555 1_555
C11_2 O4_2 1_555 1_555
C12_2 C11_2 1_555 1_555
H15_2 C12_2 1_555 1_555
C13 C12_2 1_555 1_555
H16 C13 1_555 1_555
C14 C13 1_555 1_555
C15 C14 1_555 1_555
H17 C15 1_555 1_555
C16 C11_2 1_555 1_555
H18 C16 1_555 1_555
C17 C14 1_555 1_555
C18 N3 1_555 1_555
H19 C18 1_555 1_555
C19 C18 1_555 1_555
H20 C19 1_555 1_555
C20 C19 1_555 1_555
C21 C20 1_555 1_555
C22 C21 1_555 1_555
H21 C22 1_555 1_555
C23 C22 1_555 1_555
H22 C23 1_555 1_555
C24_2 N1_2 1_555 1_555
H23_2 C24_2 1_555 1_555
C25_2 C24_2 1_555 1_555
H24_2 C25_2 1_555 1_555
C26_2 C25_2 1_555 1_555
C27_2 C26_2 1_555 1_555
C32_2 C27_2 1_555 1_555
H29_2 C32_2 1_555 1_555
C33_2 N5 1_555 1_555
H30_2 C33_2 1_555 1_555
C34 N3 1_555 1_555
H31 C34 1_555 1_555
C35 C20 1_555 1_555
H32 C35 1_555 1_555
C36 C21 1_555 1_555
H33 C36 1_555 1_555
C37 N4 1_555 1_555
H34 C37 1_555 1_555
O13 C54 1_555 1_555
O14 Ni2 1_555 1_555
O15 Ni2 1_555 1_555
H35 O15 1_555 1_555
H36 O15 1_555 1_555
H48 C50 1_555 1_555
C51 C50 1_555 1_555
C52 C51 1_555 1_555
H49 C52 1_555 1_555
H50 C53 1_555 1_555
C54 O14 1_555 1_555
O16_2 Ni1 1_555 1_555
H51_2 O16_2 1_555 1_555
H52_2 O16_2 1_555 1_555
Ni5 N4 1_555 1_555
N6 Ni2 1_555 1_555
C6_2 C7_2 1_555 1_555
C15 C16 1_555 1_555
C32_2 C33_2 1_555 1_555
C34 C35 1_555 1_555
C36 C37 1_555 1_555
C51 C54 1_555 1_555
C52 C53 1_555 1_555
O7_2 Ni3 1_555 1_555
H1_2 O7_2 1_555 1_555
H2_2 O7_2 1_555 1_555
N1_3 Ni3 1_555 1_555
N2_2 C29_2 1_555 1_555
C27_3 C26_3 1_555 1_555
C28_2 C27_3 1_555 1_555
H25_2 C28_2 1_555 1_555
C29_2 C28_2 1_555 1_555
H26_2 C29_2 1_555 1_555
C30_2 N1_3 1_555 1_555
H27_2 C30_2 1_555 1_555
C31_2 C26_3 1_555 1_555
H28_2 C31_2 1_555 1_555
O17_2 Ni3 1_555 1_555
C30_2 C31_2 1_555 1_555
N6 C23_2 1_555 1_555
H20_2 C19_2 1_555 1_555
C20_2 C19_2 1_555 1_555
C21_2 C20_2 1_555 1_555
C22_2 C21_2 1_555 1_555
H21_2 C22_2 1_555 1_555
C23_2 C22_2 1_555 1_555
H22_2 C23_2 1_555 1_555
C35_2 C20_2 1_555 1_555
H32_2 C35_2 1_555 1_555
C36_2 C21_2 1_555 1_555
H33_2 C36_2 1_555 1_555
C37_2 N6 1_555 1_555
H34_2 C37_2 1_555 1_555
H43_2 C46_2 1_555 1_555
H44_2 C46_2 1_555 1_555
C36_2 C37_2 1_555 1_555
Ni5 O6_2 1_555 1_555
O5_2 C17_2 1_555 1_555
O6_2 C17_2 1_555 1_555
O8_2 Ni5 1_555 1_555
H3_2 O8_2 1_555 1_555
H4_2 O8_2 1_555 1_555
N3_2 Ni5 1_555 1_555
H16_2 C13_2 1_555 1_555
C14_2 C13_2 1_555 1_555
C15_2 C14_2 1_555 1_555
H17_2 C15_2 1_555 1_555
H18_2 C16_2 1_555 1_555
C17_2 C14_2 1_555 1_555
C18_2 N3_2 1_555 1_555
H19_2 C18_2 1_555 1_555
C34_2 N3_2 1_555 1_555
H31_2 C34_2 1_555 1_555
O17_2 C38_2 1_555 1_555
O10_2 C38_2 1_555 1_555
O11_2 C43_2 1_555 1_555
O12_2 C47_2 1_555 1_555
O13_2 C54_2 1_555 1_555
O14_2 Ni5 1_555 1_555
O15_2 Ni5 1_555 1_555
H35_2 O15_2 1_555 1_555
H36_2 O15_2 1_555 1_555
C38_2 C39_2 1_555 1_555
C39_2 C40_2 1_555 1_555
C40_2 H37_2 1_555 1_555
C41_2 C39_2 1_555 1_555
H38_2 C41_2 1_555 1_555
C42_2 C41_2 1_555 1_555
C43_2 C42_2 1_555 1_555
C44_2 C40_2 1_555 1_555
H40_2 C44_2 1_555 1_555
C45_2 O11_2 1_555 1_555
H41_2 C45_2 1_555 1_555
H42_2 C45_2 1_555 1_555
H45_2 C47_2 1_555 1_555
C48_2 O12_2 1_555 1_555
C49_2 C48_2 1_555 1_555
H47_2 C49_2 1_555 1_555
C50_2 C49_2 1_555 1_555
H48_2 C50_2 1_555 1_555
C51_2 C50_2 1_555 1_555
C52_2 C51_2 1_555 1_555
H49_2 C52_2 1_555 1_555
C53_2 C48_2 1_555 1_555
H50_2 C53_2 1_555 1_555
C54_2 O14_2 1_555 1_555
C15_2 C16_2 1_555 1_555
C43_2 C44_2 1_555 1_555
C51_2 C54_2 1_555 1_555
C52_2 C53_2 1_555 1_555
O7_3 Ni1_2 1_555 1_555
H1_3 O7_3 1_555 1_555
H2_3 O7_3 1_555 1_555
N1_4 Ni1_2 1_555 1_555
N5_2 C29_3 1_555 1_555
C27_4 C26_4 1_555 1_555
C28_3 C27_4 1_555 1_555
H25_3 C28_3 1_555 1_555
C29_3 C28_3 1_555 1_555
H26_3 C29_3 1_555 1_555
C30_3 N1_4 1_555 1_555
H27_3 C30_3 1_555 1_555
C31_3 C26_4 1_555 1_555
H28_3 C31_3 1_555 1_555
O17_3 Ni1_2 1_555 1_555
C30_3 C31_3 1_555 1_555
Ni2_2 O6_3 1_555 1_555
O5_3 C17_3 1_555 1_555
O6_3 C17_3 1_555 1_555
O8_3 Ni2_2 1_555 1_555
H3_3 O8_3 1_555 1_555
H4_3 O8_3 1_555 1_555
N3_3 Ni2_2 1_555 1_555
H16_3 C13_3 1_555 1_555
C14_3 C13_3 1_555 1_555
C15_3 C14_3 1_555 1_555
H17_3 C15_3 1_555 1_555
H18_3 C16_3 1_555 1_555
C17_3 C14_3 1_555 1_555
C18_3 N3_3 1_555 1_555
H19_3 C18_3 1_555 1_555
C34_3 N3_3 1_555 1_555
H31_3 C34_3 1_555 1_555
O17_3 C38_3 1_555 1_555
O10_3 C38_3 1_555 1_555
O11_3 C43_3 1_555 1_555
O12_3 C47_3 1_555 1_555
O13_3 C54_3 1_555 1_555
O14_3 Ni2_2 1_555 1_555
O15_3 Ni2_2 1_555 1_555
H35_3 O15_3 1_555 1_555
H36_3 O15_3 1_555 1_555
C38_3 C39_3 1_555 1_555
C39_3 C40_3 1_555 1_555
C40_3 H37_3 1_555 1_555
C41_3 C39_3 1_555 1_555
H38_3 C41_3 1_555 1_555
C42_3 C41_3 1_555 1_555
C43_3 C42_3 1_555 1_555
C44_3 C40_3 1_555 1_555
H40_3 C44_3 1_555 1_555
C45_3 O11_3 1_555 1_555
H41_3 C45_3 1_555 1_555
H42_3 C45_3 1_555 1_555
H45_3 C47_3 1_555 1_555
C48_3 O12_3 1_555 1_555
C49_3 C48_3 1_555 1_555
H47_3 C49_3 1_555 1_555
C50_3 C49_3 1_555 1_555
H48_3 C50_3 1_555 1_555
C51_3 C50_3 1_555 1_555
C52_3 C51_3 1_555 1_555
H49_3 C52_3 1_555 1_555
C53_3 C48_3 1_555 1_555
H50_3 C53_3 1_555 1_555
C54_3 O14_3 1_555 1_555
N6_2 Ni2_2 1_555 1_555
C15_3 C16_3 1_555 1_555
C43_3 C44_3 1_555 1_555
C51_3 C54_3 1_555 1_555
C52_3 C53_3 1_555 1_555
N4_2 C23_3 1_555 1_555
H20_3 C19_3 1_555 1_555
C20_3 C19_3 1_555 1_555
C21_3 C20_3 1_555 1_555
C22_3 C21_3 1_555 1_555
H21_3 C22_3 1_555 1_555
C23_3 C22_3 1_555 1_555
H22_3 C23_3 1_555 1_555
C35_3 C20_3 1_555 1_555
H32_3 C35_3 1_555 1_555
C36_3 C21_3 1_555 1_555
H33_3 C36_3 1_555 1_555
C37_3 N4_2 1_555 1_555
H34_3 C37_3 1_555 1_555
H43_3 C46_3 1_555 1_555
H44_3 C46_3 1_555 1_555
Ni5_2 N4_2 1_555 1_555
C36_3 C37_3 1_555 1_555
Ni3_2 O1_2 1_555 1_555
Ni5_2 O6_4 1_555 1_555
O1_2 C1_3 1_555 1_555
O2_3 C1_3 1_555 1_555
O3_3 C6_3 1_555 1_555
O4_3 C10_3 1_555 1_555
O5_4 C17_4 1_555 1_555
O6_4 C17_4 1_555 1_555
O8_4 Ni5_2 1_555 1_555
H3_4 O8_4 1_555 1_555
H4_4 O8_4 1_555 1_555
N1_5 Ni3_2 1_555 1_555
N3_4 Ni5_2 1_555 1_555
N6_2 C23_4 1_555 1_555
C1_3 C2_3 1_555 1_555
C2_3 C3_3 1_555 1_555
C3_3 H5_3 1_555 1_555
C4_3 C2_3 1_555 1_555
H6_3 C4_3 1_555 1_555
C5_3 C4_3 1_555 1_555
H7_2 C5_3 1_555 1_555
C6_3 C5_3 1_555 1_555
C7_3 C3_3 1_555 1_555
H8_3 C7_3 1_555 1_555
C8_3 O3_3 1_555 1_555
H9_3 C8_3 1_555 1_555
H10_3 C8_3 1_555 1_555
C9_2 C8_3 1_555 1_555
H11_2 C9_2 1_555 1_555
H12_2 C9_2 1_555 1_555
C10_3 C9_2 1_555 1_555
H13_3 C10_3 1_555 1_555
H14_2 C10_3 1_555 1_555
C11_3 O4_3 1_555 1_555
C12_3 C11_3 1_555 1_555
H15_3 C12_3 1_555 1_555
C13_4 C12_3 1_555 1_555
H16_4 C13_4 1_555 1_555
C14_4 C13_4 1_555 1_555
C15_4 C14_4 1_555 1_555
H17_4 C15_4 1_555 1_555
C16_4 C11_3 1_555 1_555
H18_4 C16_4 1_555 1_555
C17_4 C14_4 1_555 1_555
C18_4 N3_4 1_555 1_555
H19_4 C18_4 1_555 1_555
C19_4 C18_4 1_555 1_555
H20_4 C19_4 1_555 1_555
C20_4 C19_4 1_555 1_555
C21_4 C20_4 1_555 1_555
C22_4 C21_4 1_555 1_555
H21_4 C22_4 1_555 1_555
C23_4 C22_4 1_555 1_555
H22_4 C23_4 1_555 1_555
C24_3 N1_5 1_555 1_555
H23_3 C24_3 1_555 1_555
C25_3 C24_3 1_555 1_555
H24_3 C25_3 1_555 1_555
C26_5 C25_3 1_555 1_555
C27_5 C26_5 1_555 1_555
C32_3 C27_5 1_555 1_555
H29_3 C32_3 1_555 1_555
C33_3 N2_3 1_555 1_555
H30_3 C33_3 1_555 1_555
C34_4 N3_4 1_555 1_555
H31_4 C34_4 1_555 1_555
C35_4 C20_4 1_555 1_555
H32_4 C35_4 1_555 1_555
C36_4 C21_4 1_555 1_555
H33_4 C36_4 1_555 1_555
C37_4 N6_2 1_555 1_555
H34_4 C37_4 1_555 1_555
O13_4 C54_4 1_555 1_555
O14_4 Ni5_2 1_555 1_555
O15_4 Ni5_2 1_555 1_555
H35_4 O15_4 1_555 1_555
H36_4 O15_4 1_555 1_555
H48_4 C50_4 1_555 1_555
C51_4 C50_4 1_555 1_555
C52_4 C51_4 1_555 1_555
H49_4 C52_4 1_555 1_555
H50_4 C53_4 1_555 1_555
C54_4 O14_4 1_555 1_555
O16_3 Ni3_2 1_555 1_555
H51_3 O16_3 1_555 1_555
H52_3 O16_3 1_555 1_555
C6_3 C7_3 1_555 1_555
C15_4 C16_4 1_555 1_555
C32_3 C33_3 1_555 1_555
C34_4 C35_4 1_555 1_555
C36_4 C37_4 1_555 1_555
C51_4 C54_4 1_555 1_555
C52_4 C53_4 1_555 1_555
H11_3 C9_3 1_555 1_555
H12_3 C9_3 1_555 1_555
O9_2 C38_4 1_555 1_555
O10_4 C38_4 1_555 1_555
O11_4 C43_4 1_555 1_555
O12_4 C47_4 1_555 1_555
C38_4 C39_4 1_555 1_555
C39_4 C40_4 1_555 1_555
C40_4 H37_4 1_555 1_555
C41_4 C39_4 1_555 1_555
H38_4 C41_4 1_555 1_555
C42_4 C41_4 1_555 1_555
H39_4 C42_4 1_555 1_555
C43_4 C42_4 1_555 1_555
C44_4 C40_4 1_555 1_555
H40_4 C44_4 1_555 1_555
C45_4 O11_4 1_555 1_555
H41_4 C45_4 1_555 1_555
H42_4 C45_4 1_555 1_555
C46_4 C45_4 1_555 1_555
H43_4 C46_4 1_555 1_555
H44_4 C46_4 1_555 1_555
C47_4 C46_4 1_555 1_555
H45_4 C47_4 1_555 1_555
H46_4 C47_4 1_555 1_555
C48_4 O12_4 1_555 1_555
C49_4 C48_4 1_555 1_555
H47_4 C49_4 1_555 1_555
Ni4_2 O9_2 1_555 1_555
C43_4 C44_4 1_555 1_555
O7_4 Ni4_2 1_555 1_555
H1_4 O7_4 1_555 1_555
H2_4 O7_4 1_555 1_555
N1_6 Ni4_2 1_555 1_555
N5_3 C29_4 1_555 1_555
C24_4 N1_6 1_555 1_555
H23_4 C24_4 1_555 1_555
C25_4 C24_4 1_555 1_555
H24_4 C25_4 1_555 1_555
C26_6 C25_4 1_555 1_555
C27_6 C26_6 1_555 1_555
C28_4 C27_6 1_555 1_555
H25_4 C28_4 1_555 1_555
C29_4 C28_4 1_555 1_555
H26_4 C29_4 1_555 1_555
C30_4 N1_6 1_555 1_555
H27_4 C30_4 1_555 1_555
C31_4 C26_6 1_555 1_555
H28_4 C31_4 1_555 1_555
C32_4 C27_6 1_555 1_555
H29_4 C32_4 1_555 1_555
C33_4 N5_3 1_555 1_555
H30_4 C33_4 1_555 1_555
O16_4 Ni4_2 1_555 1_555
H51_4 O16_4 1_555 1_555
H52_4 O16_4 1_555 1_555
O17_4 Ni4_2 1_555 1_555
C30_4 C31_4 1_555 1_555
C32_4 C33_4 1_555 1_555
O17_4 C1_4 1_555 1_555
O2_4 C1_4 1_555 1_555
O3_4 C6_4 1_555 1_555
O4_4 C10_4 1_555 1_555
C1_4 C2_4 1_555 1_555
C2_4 C3_4 1_555 1_555
C3_4 H5_4 1_555 1_555
C4_4 C2_4 1_555 1_555
H6_4 C4_4 1_555 1_555
C5_4 C4_4 1_555 1_555
C6_4 C5_4 1_555 1_555
C7_4 C3_4 1_555 1_555
H8_4 C7_4 1_555 1_555
C8_4 O3_4 1_555 1_555
H9_4 C8_4 1_555 1_555
H10_4 C8_4 1_555 1_555
H13_4 C10_4 1_555 1_555
C11_4 O4_4 1_555 1_555
C12_4 C11_4 1_555 1_555
H15_4 C12_4 1_555 1_555
C6_4 C7_4 1_555 1_555
H11_4 C9_4 1_555 1_555
H12_4 C9_4 1_555 1_555

#END
