
###############################################################################
#
# This file contains modified crystal structure data generated from the
# MOF subset of the Cambridge Structural Database (CSD) v543 
# hosted by the Cambridge Crystallographic Data Centre (CCDC).
#
# This work is licensed under the Creative Commons
# Attribution-NonCommercial-ShareAlike 4.0 International License.
# To view a copy of this license, visit
# http://creativecommons.org/licenses/by-nc-sa/4.0/
# or send a letter to
# Creative Commons, PO Box 1866, Mountain View, CA 94042, USA.
#
# CIF created using the CSD Python API on 29 September 2022
# The structure has been converted into the P1 space group
# The structure has a 3D framework
# The original CSD entry LODHEU is in the monoclinic crystal system
# The framework has been calculated to contain at least 10.0% void space
# The void calculation uses a probe of radius 1.32A, grid spacing 0.4
#
###############################################################################

data_LODHEU
_chemical_formula_moiety         '(C264 H288 B8 Eu4 O48)n'
_symmetry_cell_setting           triclinic
_symmetry_space_group_name_H-M   'P 1'
_symmetry_Int_Tables_number      1
_space_group_name_Hall           'P 1'
loop_
_symmetry_equiv_pos_site_id
_symmetry_equiv_pos_as_xyz
1 x,y,z
_cell_length_a                   32.1523(12)
_cell_length_b                   8.6704(2)
_cell_length_c                   32.0714(15)
_cell_angle_alpha                90
_cell_angle_beta                 115.022(5)
_cell_angle_gamma                90
_cell_volume                     8101.53
loop_
_atom_site_label
_atom_site_type_symbol
_atom_site_fract_x
_atom_site_fract_y
_atom_site_fract_z
B1 B 0.6554(3) 0.2623(8) 0.3461(3)
C1 C 0.6238(2) 0.2953(8) 0.3731(3)
C2 C 0.6105(2) 0.1711(8) 0.3933(2)
C3 C 0.5833(3) 0.1957(8) 0.4174(3)
C4 C 0.5703(2) 0.3455(8) 0.4210(3)
C5 C 0.5823(3) 0.4688(8) 0.4009(3)
C6 C 0.6089(3) 0.4482(7) 0.3765(3)
C7 C 0.6228(3) 0.0079(10) 0.3882(3)
H2 H 0.6466 0.0068 0.3768
C8 C 0.5671(4) 0.0628(11) 0.4372(4)
H4 H 0.5432 0.0054 0.4121
H5 H 0.5546 0.1025 0.4581
C9 C 0.5440(3) 0.3794(8) 0.4505(3)
C10 C 0.5666(5) 0.6334(12) 0.4058(5)
H7 H 0.5662 0.6977 0.3804
H8 H 0.5880 0.6777 0.4352
H9 H 0.5357 0.6295 0.4048
C11 C 0.6226(4) 0.5832(9) 0.3561(4)
H10 H 0.6468 0.5519 0.3469
H11 H 0.6341 0.6660 0.3790
H12 H 0.5959 0.6202 0.3291
C12 C 0.7051(3) 0.1861(8) 0.3721(3)
C13 C 0.7176(3) 0.0614(9) 0.3505(3)
C14 C 0.7629(3) 0.0071(9) 0.3674(3)
C15 C 0.7963(3) 0.0836(9) 0.4057(3)
C16 C 0.7851(3) 0.1983(9) 0.4290(3)
C17 C 0.7393(3) 0.2508(9) 0.4118(3)
H15 H 0.6513 0.0157 0.3027
C20 C 0.8467(3) 0.0430(8) 0.4200(3)
C21 C 0.8223(3) 0.2710(11) 0.4721(3)
H19 H 0.8271 0.3783 0.4657
H20 H 0.8510 0.2133 0.4811
H21 H 0.8125 0.2680 0.4973
C22 C 0.7298(3) 0.3828(11) 0.4373(4)
H22 H 0.7467 0.3665 0.4705
H23 H 0.6969 0.3875 0.4292
H24 H 0.7397 0.4798 0.4287
C23 C 0.6379(3) 0.3141(8) 0.2944(3)
C24 C 0.5955(3) 0.2561(7) 0.2605(3)
C25 C 0.5796(3) 0.2950(10) 0.2136(3)
C26 C 0.6069(3) 0.3989(10) 0.2013(3)
C27 C 0.6476(3) 0.4578(7) 0.2333(3)
C28 C 0.6641(3) 0.4128(9) 0.2799(3)
C29 C 0.5666(3) 0.1467(12) 0.2740(4)
H25 H 0.5393 0.2008 0.2725
H26 H 0.5846 0.1096 0.3054
H27 H 0.5573 0.0589 0.2527
C30 C 0.5355(4) 0.2324(14) 0.1778(4)
H28 H 0.5268 0.2908 0.1492
H29 H 0.5113 0.2419 0.1886
H30 H 0.5396 0.1235 0.1722
C31 C 0.5907(3) 0.4377(13) 0.1514(3)
C32 C 0.6752(4) 0.5703(13) 0.2189(4)
H31 H 0.6617 0.5777 0.1852
H32 H 0.7070 0.5338 0.2301
H33 H 0.6749 0.6721 0.2320
C33 C 0.7097(3) 0.4752(11) 0.3136(4)
H34 H 0.7343 0.4293 0.3073
H35 H 0.7143 0.4493 0.3450
H36 H 0.7101 0.5875 0.3103
Eu1 Eu 0.44043(2) 0.48230(9) 0.44515(2)
O1 O 0.5053(5) 0.6978(18) 0.4800(5)
O2 O 0.5021(2) 0.3757(13) 0.4315(3)
O3 O 0.5666(3) 0.4081(15) 0.4910(3)
O5 O 0.8707(2) 0.1385(9) 0.4102(2)
O6 O 0.5980(2) 0.3388(8) 0.1257(2)
O7 O 0.5703(3) 0.5608(9) 0.1350(3)
Eu2 Eu 0.55957(2) 0.48230(9) 0.05485(2)
Eu4 Eu 0.55957(2) 0.51770(9) 0.55485(2)
O8 O 0.4947(5) 0.3022(18) 0.5200(5)
O9 O 0.4334(3) 0.5919(15) 0.5090(3)
O10 O 0.3621(2) 0.4153(9) 0.4387(3)
O11 O 0.3707(2) 0.6385(9) 0.4102(2)
O12 O 0.4020(2) 0.3388(8) 0.3743(2)
O13 O 0.4297(3) 0.5608(9) 0.3650(3)
H1 H 0.6342 0.9561 0.4182
H3 H 0.5955 0.9538 0.3663
H6 H 0.5930 0.9941 0.4541
C18 C 0.6819(3) 0.9747(9) 0.3096(4)
H13 H 0.6829 0.8648 0.3171
H14 H 0.6886 0.9880 0.2827
C19 C 0.7753(3) 0.8729(12) 0.3460(4)
H16 H 0.7587 0.8794 0.3124
H17 H 0.7670 0.7770 0.3568
H18 H 0.8084 0.8740 0.3546
O4 O 0.8621(2) 0.9153(9) 0.4387(3)
Eu3 Eu 0.94043(2) 0.98230(9) 0.44515(2)
B1_2 B 0.3446(3) 0.2623(8) 0.1539(3)
C1_2 C 0.3762(2) 0.2953(8) 0.1269(3)
C2_2 C 0.3895(2) 0.1711(8) 0.1067(2)
C3_2 C 0.4167(3) 0.1957(8) 0.0826(3)
C4_2 C 0.4297(2) 0.3455(8) 0.0790(3)
C5_2 C 0.4177(3) 0.4688(8) 0.0991(3)
C6_2 C 0.3911(3) 0.4482(7) 0.1235(3)
C7_2 C 0.3772(3) 0.0079(10) 0.1118(3)
H2_2 H 0.3534 0.0068 0.1232
C8_2 C 0.4329(4) 0.0628(11) 0.0628(4)
H4_2 H 0.4568 0.0054 0.0879
H5_2 H 0.4454 0.1025 0.0419
C9_2 C 0.4560(3) 0.3794(8) 0.0495(3)
C10_2 C 0.4334(5) 0.6334(12) 0.0942(5)
H7_2 H 0.4338 0.6977 0.1196
H8_2 H 0.4120 0.6777 0.0648
H9_2 H 0.4643 0.6295 0.0952
C11_2 C 0.3774(4) 0.5832(9) 0.1439(4)
H10_2 H 0.3532 0.5519 0.1531
H11_2 H 0.3659 0.6660 0.1210
H12_2 H 0.4041 0.6202 0.1709
C12_2 C 0.2949(3) 0.1861(8) 0.1279(3)
C13_2 C 0.2824(3) 0.0614(9) 0.1495(3)
C14_2 C 0.2371(3) 0.0071(9) 0.1326(3)
C15_2 C 0.2037(3) 0.0836(9) 0.0943(3)
C16_2 C 0.2149(3) 0.1983(9) 0.0710(3)
C17_2 C 0.2607(3) 0.2508(9) 0.0882(3)
H15_2 H 0.3487 0.0157 0.1973
C20_2 C 0.1533(3) 0.0430(8) 0.0800(3)
C21_2 C 0.1777(3) 0.2710(11) 0.0279(3)
H19_2 H 0.1729 0.3783 0.0343
H20_2 H 0.1490 0.2133 0.0189
H21_2 H 0.1875 0.2680 0.0027
C22_2 C 0.2702(3) 0.3828(11) 0.0627(4)
H22_2 H 0.2533 0.3665 0.0295
H23_2 H 0.3031 0.3875 0.0708
H24_2 H 0.2603 0.4798 0.0713
C23_2 C 0.3621(3) 0.3141(8) 0.2056(3)
C24_2 C 0.4045(3) 0.2561(7) 0.2395(3)
C25_2 C 0.4204(3) 0.2950(10) 0.2864(3)
C26_2 C 0.3931(3) 0.3989(10) 0.2987(3)
C27_2 C 0.3524(3) 0.4578(7) 0.2667(3)
C28_2 C 0.3359(3) 0.4128(9) 0.2201(3)
C29_2 C 0.4334(3) 0.1467(12) 0.2260(4)
H25_2 H 0.4607 0.2008 0.2275
H26_2 H 0.4154 0.1096 0.1946
H27_2 H 0.4427 0.0589 0.2473
C30_2 C 0.4645(4) 0.2324(14) 0.3222(4)
H28_2 H 0.4732 0.2908 0.3508
H29_2 H 0.4887 0.2419 0.3114
H30_2 H 0.4604 0.1235 0.3278
C31_2 C 0.4093(3) 0.4377(13) 0.3486(3)
C32_2 C 0.3248(4) 0.5703(13) 0.2811(4)
H31_2 H 0.3383 0.5777 0.3148
H32_2 H 0.2930 0.5338 0.2699
H33_2 H 0.3251 0.6721 0.2680
C33_2 C 0.2903(3) 0.4752(11) 0.1864(4)
H34_2 H 0.2657 0.4293 0.1927
H35_2 H 0.2857 0.4493 0.1550
H36_2 H 0.2899 0.5875 0.1897
O1_2 O 0.4947(5) 0.6978(18) 0.0200(5)
O2_2 O 0.4979(2) 0.3757(13) 0.0685(3)
O3_2 O 0.4334(3) 0.4081(15) 0.0090(3)
O5_2 O 0.1293(2) 0.1385(9) 0.0898(2)
O10_2 O 0.6379(2) 0.4153(9) 0.0613(3)
O11_2 O 0.6293(2) 0.6385(9) 0.0898(2)
Eu4_2 Eu 0.44043(2) 0.51770(9) 0.94515(2)
O8_2 O 0.5053(5) 0.3022(18) 0.9800(5)
O9_2 O 0.5666(3) 0.5919(15) 0.9910(3)
H1_2 H 0.3658 0.9561 0.0818
H3_2 H 0.4045 0.9538 0.1337
H6_2 H 0.4070 0.9941 0.0459
C18_2 C 0.3181(3) 0.9747(9) 0.1904(4)
H13_2 H 0.3171 0.8648 0.1829
H14_2 H 0.3114 0.9880 0.2173
C19_2 C 0.2247(3) 0.8729(12) 0.1540(4)
H16_2 H 0.2413 0.8794 0.1876
H17_2 H 0.2330 0.7770 0.1432
H18_2 H 0.1916 0.8740 0.1454
O4_2 O 0.1379(2) 0.9153(9) 0.0613(3)
Eu3_2 Eu 0.05957(2) 0.98230(9) 0.05485(2)
C10_3 C 0.0666(5) 0.1334(12) 0.4058(5)
H7_3 H 0.0662 0.1977 0.3804
H8_3 H 0.0880 0.1777 0.4352
H9_3 H 0.0357 0.1295 0.4048
C11_3 C 0.1226(4) 0.0832(9) 0.3561(4)
H10_3 H 0.1468 0.0519 0.3469
H11_3 H 0.1341 0.1660 0.3790
H12_3 H 0.0959 0.1202 0.3291
C32_3 C 0.1752(4) 0.0703(13) 0.2189(4)
H31_3 H 0.1617 0.0777 0.1852
H32_3 H 0.2070 0.0338 0.2301
H33_3 H 0.1749 0.1721 0.2320
H36_3 H 0.2101 0.0875 0.3103
O1_3 O 0.0053(5) 0.1978(18) 0.4800(5)
O7_2 O 0.0703(3) 0.0608(9) 0.1350(3)
Eu4_3 Eu 0.05957(2) 0.01770(9) 0.55485(2)
B1_3 B 0.1554(3) 0.7623(8) 0.3461(3)
C1_3 C 0.1238(2) 0.7953(8) 0.3731(3)
C2_3 C 0.1105(2) 0.6711(8) 0.3933(2)
C3_3 C 0.0833(3) 0.6957(8) 0.4174(3)
C4_3 C 0.0703(2) 0.8455(8) 0.4210(3)
C5_3 C 0.0823(3) 0.9688(8) 0.4009(3)
C6_3 C 0.1089(3) 0.9482(7) 0.3765(3)
C7_3 C 0.1228(3) 0.5079(10) 0.3882(3)
H1_3 H 0.1342 0.4561 0.4182
H2_3 H 0.1466 0.5068 0.3768
H3_3 H 0.0955 0.4538 0.3663
C8_3 C 0.0671(4) 0.5628(11) 0.4372(4)
H4_3 H 0.0432 0.5054 0.4121
H5_3 H 0.0546 0.6025 0.4581
H6_3 H 0.0930 0.4941 0.4541
C9_3 C 0.0440(3) 0.8794(8) 0.4505(3)
C12_3 C 0.2051(3) 0.6861(8) 0.3721(3)
C13_3 C 0.2176(3) 0.5614(9) 0.3505(3)
C14_3 C 0.2629(3) 0.5071(9) 0.3674(3)
C15_3 C 0.2963(3) 0.5836(9) 0.4057(3)
C16_3 C 0.2851(3) 0.6983(9) 0.4290(3)
C17_3 C 0.2393(3) 0.7508(9) 0.4118(3)
C18_3 C 0.1819(3) 0.4747(9) 0.3096(4)
H13_3 H 0.1829 0.3648 0.3171
H14_3 H 0.1886 0.4880 0.2827
H15_3 H 0.1513 0.5157 0.3027
C19_3 C 0.2753(3) 0.3729(12) 0.3460(4)
H16_3 H 0.2587 0.3794 0.3124
H17_3 H 0.2670 0.2770 0.3568
H18_3 H 0.3084 0.3740 0.3546
C20_3 C 0.3467(3) 0.5430(8) 0.4200(3)
C21_3 C 0.3223(3) 0.7710(11) 0.4721(3)
H19_3 H 0.3271 0.8783 0.4657
H20_3 H 0.3510 0.7133 0.4811
H21_3 H 0.3125 0.7680 0.4973
C22_3 C 0.2298(3) 0.8828(11) 0.4373(4)
H22_3 H 0.2467 0.8665 0.4705
H23_3 H 0.1969 0.8875 0.4292
H24_3 H 0.2397 0.9798 0.4287
C23_3 C 0.1379(3) 0.8141(8) 0.2944(3)
C24_3 C 0.0955(3) 0.7561(7) 0.2605(3)
C25_3 C 0.0796(3) 0.7950(10) 0.2136(3)
C26_3 C 0.1069(3) 0.8989(10) 0.2013(3)
C27_3 C 0.1476(3) 0.9578(7) 0.2333(3)
C28_3 C 0.1641(3) 0.9128(9) 0.2799(3)
C29_3 C 0.0666(3) 0.6467(12) 0.2740(4)
H25_3 H 0.0393 0.7008 0.2725
H26_3 H 0.0846 0.6096 0.3054
H27_3 H 0.0573 0.5589 0.2527
C30_3 C 0.0355(4) 0.7324(14) 0.1778(4)
H28_3 H 0.0268 0.7908 0.1492
H29_3 H 0.0113 0.7419 0.1886
H30_3 H 0.0396 0.6235 0.1722
C31_3 C 0.0907(3) 0.9377(13) 0.1514(3)
C33_3 C 0.2097(3) 0.9752(11) 0.3136(4)
H34_3 H 0.2343 0.9293 0.3073
H35_3 H 0.2143 0.9493 0.3450
O2_3 O 0.0021(2) 0.8757(13) 0.4315(3)
O3_3 O 0.0666(3) 0.9081(15) 0.4910(3)
O6_2 O 0.0980(2) 0.8388(8) 0.1257(2)
O9_3 O 0.9334(3) 0.0919(15) 0.5090(3)
O13_2 O 0.9297(3) 0.0608(9) 0.3650(3)
O8_3 O 0.9947(5) 0.8022(18) 0.5200(5)
O12_2 O 0.9020(2) 0.8388(8) 0.3743(2)
O9_4 O 0.0666(3) 0.0919(15) 0.9910(3)
O8_4 O 0.0053(5) 0.8022(18) 0.9800(5)
C10_4 C 0.9334(5) 0.1334(12) 0.0942(5)
H7_4 H 0.9338 0.1977 0.1196
H8_4 H 0.9120 0.1777 0.0648
H9_4 H 0.9643 0.1295 0.0952
C11_4 C 0.8774(4) 0.0832(9) 0.1439(4)
H10_4 H 0.8532 0.0519 0.1531
H11_4 H 0.8659 0.1660 0.1210
H12_4 H 0.9041 0.1202 0.1709
C32_4 C 0.8248(4) 0.0703(13) 0.2811(4)
H31_4 H 0.8383 0.0777 0.3148
H32_4 H 0.7930 0.0338 0.2699
H33_4 H 0.8251 0.1721 0.2680
H36_4 H 0.7899 0.0875 0.1897
O1_4 O 0.9947(5) 0.1978(18) 0.0200(5)
Eu4_4 Eu 0.94043(2) 0.01770(9) 0.94515(2)
B1_4 B 0.8446(3) 0.7623(8) 0.1539(3)
C1_4 C 0.8762(2) 0.7953(8) 0.1269(3)
C2_4 C 0.8895(2) 0.6711(8) 0.1067(2)
C3_4 C 0.9167(3) 0.6957(8) 0.0826(3)
C4_4 C 0.9297(2) 0.8455(8) 0.0790(3)
C5_4 C 0.9177(3) 0.9688(8) 0.0991(3)
C6_4 C 0.8911(3) 0.9482(7) 0.1235(3)
C7_4 C 0.8772(3) 0.5079(10) 0.1118(3)
H1_4 H 0.8658 0.4561 0.0818
H2_4 H 0.8534 0.5068 0.1232
H3_4 H 0.9045 0.4538 0.1337
C8_4 C 0.9329(4) 0.5628(11) 0.0628(4)
H4_4 H 0.9568 0.5054 0.0879
H5_4 H 0.9454 0.6025 0.0419
H6_4 H 0.9070 0.4941 0.0459
C9_4 C 0.9560(3) 0.8794(8) 0.0495(3)
C12_4 C 0.7949(3) 0.6861(8) 0.1279(3)
C13_4 C 0.7824(3) 0.5614(9) 0.1495(3)
C14_4 C 0.7371(3) 0.5071(9) 0.1326(3)
C15_4 C 0.7037(3) 0.5836(9) 0.0943(3)
C16_4 C 0.7149(3) 0.6983(9) 0.0710(3)
C17_4 C 0.7607(3) 0.7508(9) 0.0882(3)
C18_4 C 0.8181(3) 0.4747(9) 0.1904(4)
H13_4 H 0.8171 0.3648 0.1829
H14_4 H 0.8114 0.4880 0.2173
H15_4 H 0.8487 0.5157 0.1973
C19_4 C 0.7247(3) 0.3729(12) 0.1540(4)
H16_4 H 0.7413 0.3794 0.1876
H17_4 H 0.7330 0.2770 0.1432
H18_4 H 0.6916 0.3740 0.1454
C20_4 C 0.6533(3) 0.5430(8) 0.0800(3)
C21_4 C 0.6777(3) 0.7710(11) 0.0279(3)
H19_4 H 0.6729 0.8783 0.0343
H20_4 H 0.6490 0.7133 0.0189
H21_4 H 0.6875 0.7680 0.0027
C22_4 C 0.7702(3) 0.8828(11) 0.0627(4)
H22_4 H 0.7533 0.8665 0.0295
H23_4 H 0.8031 0.8875 0.0708
H24_4 H 0.7603 0.9798 0.0713
C23_4 C 0.8621(3) 0.8141(8) 0.2056(3)
C24_4 C 0.9045(3) 0.7561(7) 0.2395(3)
C25_4 C 0.9204(3) 0.7950(10) 0.2864(3)
C26_4 C 0.8931(3) 0.8989(10) 0.2987(3)
C27_4 C 0.8524(3) 0.9578(7) 0.2667(3)
C28_4 C 0.8359(3) 0.9128(9) 0.2201(3)
C29_4 C 0.9334(3) 0.6467(12) 0.2260(4)
H25_4 H 0.9607 0.7008 0.2275
H26_4 H 0.9154 0.6096 0.1946
H27_4 H 0.9427 0.5589 0.2473
C30_4 C 0.9645(4) 0.7324(14) 0.3222(4)
H28_4 H 0.9732 0.7908 0.3508
H29_4 H 0.9887 0.7419 0.3114
H30_4 H 0.9604 0.6235 0.3278
C31_4 C 0.9093(3) 0.9377(13) 0.3486(3)
C33_4 C 0.7903(3) 0.9752(11) 0.1864(4)
H34_4 H 0.7657 0.9293 0.1927
H35_4 H 0.7857 0.9493 0.1550
O2_4 O 0.9979(2) 0.8757(13) 0.0685(3)
O3_4 O 0.9334(3) 0.9081(15) 0.0090(3)
H1_5 H 0.3658 0.0439 0.5818
H3_5 H 0.4045 0.0462 0.6337
H6_5 H 0.4070 0.0059 0.5459
C18_5 C 0.3181(3) 0.0253(9) 0.6904(4)
H13_5 H 0.3171 0.1352 0.6829
H14_5 H 0.3114 0.0120 0.7173
C19_5 C 0.2247(3) 0.1271(12) 0.6540(4)
H16_5 H 0.2413 0.1206 0.6876
H17_5 H 0.2330 0.2230 0.6432
H18_5 H 0.1916 0.1260 0.6454
O4_3 O 0.1379(2) 0.0847(9) 0.5613(3)
B1_5 B 0.3446(3) 0.7377(8) 0.6539(3)
C1_5 C 0.3762(2) 0.7047(8) 0.6269(3)
C2_5 C 0.3895(2) 0.8289(8) 0.6067(2)
C3_5 C 0.4167(3) 0.8043(8) 0.5826(3)
C4_5 C 0.4297(2) 0.6545(8) 0.5790(3)
C5_5 C 0.4177(3) 0.5312(8) 0.5991(3)
C6_5 C 0.3911(3) 0.5518(7) 0.6235(3)
C7_5 C 0.3772(3) 0.9921(10) 0.6118(3)
H2_5 H 0.3534 0.9932 0.6232
C8_5 C 0.4329(4) 0.9372(11) 0.5628(4)
H4_5 H 0.4568 0.9946 0.5879
H5_5 H 0.4454 0.8975 0.5419
C9_5 C 0.4560(3) 0.6206(8) 0.5495(3)
C10_5 C 0.4334(5) 0.3666(12) 0.5942(5)
H7_5 H 0.4338 0.3023 0.6196
H8_5 H 0.4120 0.3223 0.5648
H9_5 H 0.4643 0.3705 0.5952
C11_5 C 0.3774(4) 0.4168(9) 0.6439(4)
H10_5 H 0.3532 0.4481 0.6531
H11_5 H 0.3659 0.3340 0.6210
H12_5 H 0.4041 0.3798 0.6709
C12_5 C 0.2949(3) 0.8139(8) 0.6279(3)
C13_5 C 0.2824(3) 0.9386(9) 0.6495(3)
C14_5 C 0.2371(3) 0.9929(9) 0.6326(3)
C15_5 C 0.2037(3) 0.9164(9) 0.5943(3)
C16_5 C 0.2149(3) 0.8017(9) 0.5710(3)
C17_5 C 0.2607(3) 0.7492(9) 0.5882(3)
H15_5 H 0.3487 0.9843 0.6973
C20_5 C 0.1533(3) 0.9570(8) 0.5800(3)
C21_5 C 0.1777(3) 0.7290(11) 0.5279(3)
H19_5 H 0.1729 0.6217 0.5343
H20_5 H 0.1490 0.7867 0.5189
H21_5 H 0.1875 0.7320 0.5027
C22_5 C 0.2702(3) 0.6172(11) 0.5627(4)
H22_5 H 0.2533 0.6335 0.5295
H23_5 H 0.3031 0.6125 0.5708
H24_5 H 0.2603 0.5202 0.5713
C23_5 C 0.3621(3) 0.6859(8) 0.7056(3)
C24_5 C 0.4045(3) 0.7439(7) 0.7395(3)
C25_5 C 0.4204(3) 0.7050(10) 0.7864(3)
C26_5 C 0.3931(3) 0.6011(10) 0.7987(3)
C27_5 C 0.3524(3) 0.5422(7) 0.7667(3)
C28_5 C 0.3359(3) 0.5872(9) 0.7201(3)
C29_5 C 0.4334(3) 0.8533(12) 0.7260(4)
H25_5 H 0.4607 0.7992 0.7275
H26_5 H 0.4154 0.8904 0.6946
H27_5 H 0.4427 0.9411 0.7473
C30_5 C 0.4645(4) 0.7676(14) 0.8222(4)
H28_5 H 0.4732 0.7092 0.8508
H29_5 H 0.4887 0.7581 0.8114
H30_5 H 0.4604 0.8765 0.8278
C31_5 C 0.4093(3) 0.5623(13) 0.8486(3)
C32_5 C 0.3248(4) 0.4297(13) 0.7811(4)
H31_5 H 0.3383 0.4223 0.8148
H32_5 H 0.2930 0.4662 0.7699
H33_5 H 0.3251 0.3279 0.7680
C33_5 C 0.2903(3) 0.5248(11) 0.6864(4)
H34_5 H 0.2657 0.5707 0.6927
H35_5 H 0.2857 0.5507 0.6550
H36_5 H 0.2899 0.4125 0.6897
O2_5 O 0.4979(2) 0.6243(13) 0.5685(3)
O5_3 O 0.1293(2) 0.8615(9) 0.5898(2)
O6_3 O 0.4020(2) 0.6612(8) 0.8743(2)
O7_3 O 0.4297(3) 0.4392(9) 0.8650(3)
O10_3 O 0.6379(2) 0.5847(9) 0.5613(3)
O11_3 O 0.6293(2) 0.3615(9) 0.5898(2)
O12_3 O 0.5980(2) 0.6612(8) 0.6257(2)
O13_3 O 0.5703(3) 0.4392(9) 0.6350(3)
H1_6 H 0.6342 0.0439 0.9182
H3_6 H 0.5955 0.0462 0.8663
H6_6 H 0.5930 0.0059 0.9541
C18_6 C 0.6819(3) 0.0253(9) 0.8096(4)
H13_6 H 0.6829 0.1352 0.8171
H14_6 H 0.6886 0.0120 0.7827
C19_6 C 0.7753(3) 0.1271(12) 0.8460(4)
H16_6 H 0.7587 0.1206 0.8124
H17_6 H 0.7670 0.2230 0.8568
H18_6 H 0.8084 0.1260 0.8546
O4_4 O 0.8621(2) 0.0847(9) 0.9387(3)
B1_6 B 0.6554(3) 0.7377(8) 0.8461(3)
C1_6 C 0.6238(2) 0.7047(8) 0.8731(3)
C2_6 C 0.6105(2) 0.8289(8) 0.8933(2)
C3_6 C 0.5833(3) 0.8043(8) 0.9174(3)
C4_6 C 0.5703(2) 0.6545(8) 0.9210(3)
C5_6 C 0.5823(3) 0.5312(8) 0.9009(3)
C6_6 C 0.6089(3) 0.5518(7) 0.8765(3)
C7_6 C 0.6228(3) 0.9921(10) 0.8882(3)
H2_6 H 0.6466 0.9932 0.8768
C8_6 C 0.5671(4) 0.9372(11) 0.9372(4)
H4_6 H 0.5432 0.9946 0.9121
H5_6 H 0.5546 0.8975 0.9581
C9_6 C 0.5440(3) 0.6206(8) 0.9505(3)
C10_6 C 0.5666(5) 0.3666(12) 0.9058(5)
H7_6 H 0.5662 0.3023 0.8804
H8_6 H 0.5880 0.3223 0.9352
H9_6 H 0.5357 0.3705 0.9048
C11_6 C 0.6226(4) 0.4168(9) 0.8561(4)
H10_6 H 0.6468 0.4481 0.8469
H11_6 H 0.6341 0.3340 0.8790
H12_6 H 0.5959 0.3798 0.8291
C12_6 C 0.7051(3) 0.8139(8) 0.8721(3)
C13_6 C 0.7176(3) 0.9386(9) 0.8505(3)
C14_6 C 0.7629(3) 0.9929(9) 0.8674(3)
C15_6 C 0.7963(3) 0.9164(9) 0.9057(3)
C16_6 C 0.7851(3) 0.8017(9) 0.9290(3)
C17_6 C 0.7393(3) 0.7492(9) 0.9118(3)
H15_6 H 0.6513 0.9843 0.8027
C20_6 C 0.8467(3) 0.9570(8) 0.9200(3)
C21_6 C 0.8223(3) 0.7290(11) 0.9721(3)
H19_6 H 0.8271 0.6217 0.9657
H20_6 H 0.8510 0.7867 0.9811
H21_6 H 0.8125 0.7320 0.9973
C22_6 C 0.7298(3) 0.6172(11) 0.9373(4)
H22_6 H 0.7467 0.6335 0.9705
H23_6 H 0.6969 0.6125 0.9292
H24_6 H 0.7397 0.5202 0.9287
C23_6 C 0.6379(3) 0.6859(8) 0.7944(3)
C24_6 C 0.5955(3) 0.7439(7) 0.7605(3)
C25_6 C 0.5796(3) 0.7050(10) 0.7136(3)
C26_6 C 0.6069(3) 0.6011(10) 0.7013(3)
C27_6 C 0.6476(3) 0.5422(7) 0.7333(3)
C28_6 C 0.6641(3) 0.5872(9) 0.7799(3)
C29_6 C 0.5666(3) 0.8533(12) 0.7740(4)
H25_6 H 0.5393 0.7992 0.7725
H26_6 H 0.5846 0.8904 0.8054
H27_6 H 0.5573 0.9411 0.7527
C30_6 C 0.5355(4) 0.7676(14) 0.6778(4)
H28_6 H 0.5268 0.7092 0.6492
H29_6 H 0.5113 0.7581 0.6886
H30_6 H 0.5396 0.8765 0.6722
C31_6 C 0.5907(3) 0.5623(13) 0.6514(3)
C32_6 C 0.6752(4) 0.4297(13) 0.7189(4)
H31_6 H 0.6617 0.4223 0.6852
H32_6 H 0.7070 0.4662 0.7301
H33_6 H 0.6749 0.3279 0.7320
C33_6 C 0.7097(3) 0.5248(11) 0.8136(4)
H34_6 H 0.7343 0.5707 0.8073
H35_6 H 0.7143 0.5507 0.8450
H36_6 H 0.7101 0.4125 0.8103
O2_6 O 0.5021(2) 0.6243(13) 0.9315(3)
O5_4 O 0.8707(2) 0.8615(9) 0.9102(2)
O10_4 O 0.3621(2) 0.5847(9) 0.9387(3)
O11_4 O 0.3707(2) 0.3615(9) 0.9102(2)
O12_4 O 0.0980(2) 0.1612(8) 0.6257(2)
O13_4 O 0.0703(3) 0.9392(9) 0.6350(3)
B1_7 B 0.8446(3) 0.2377(8) 0.6539(3)
C1_7 C 0.8762(2) 0.2047(8) 0.6269(3)
C2_7 C 0.8895(2) 0.3289(8) 0.6067(2)
C3_7 C 0.9167(3) 0.3043(8) 0.5826(3)
C4_7 C 0.9297(2) 0.1545(8) 0.5790(3)
C5_7 C 0.9177(3) 0.0312(8) 0.5991(3)
C6_7 C 0.8911(3) 0.0518(7) 0.6235(3)
C7_7 C 0.8772(3) 0.4921(10) 0.6118(3)
H1_7 H 0.8658 0.5439 0.5818
H2_7 H 0.8534 0.4932 0.6232
H3_7 H 0.9045 0.5462 0.6337
C8_7 C 0.9329(4) 0.4372(11) 0.5628(4)
H4_7 H 0.9568 0.4946 0.5879
H5_7 H 0.9454 0.3975 0.5419
H6_7 H 0.9070 0.5059 0.5459
C9_7 C 0.9560(3) 0.1206(8) 0.5495(3)
C12_7 C 0.7949(3) 0.3139(8) 0.6279(3)
C13_7 C 0.7824(3) 0.4386(9) 0.6495(3)
C14_7 C 0.7371(3) 0.4929(9) 0.6326(3)
C15_7 C 0.7037(3) 0.4164(9) 0.5943(3)
C16_7 C 0.7149(3) 0.3017(9) 0.5710(3)
C17_7 C 0.7607(3) 0.2492(9) 0.5882(3)
C18_7 C 0.8181(3) 0.5253(9) 0.6904(4)
H13_7 H 0.8171 0.6352 0.6829
H14_7 H 0.8114 0.5120 0.7173
H15_7 H 0.8487 0.4843 0.6973
C19_7 C 0.7247(3) 0.6271(12) 0.6540(4)
H16_7 H 0.7413 0.6206 0.6876
H17_7 H 0.7330 0.7230 0.6432
H18_7 H 0.6916 0.6260 0.6454
C20_7 C 0.6533(3) 0.4570(8) 0.5800(3)
C21_7 C 0.6777(3) 0.2290(11) 0.5279(3)
H19_7 H 0.6729 0.1217 0.5343
H20_7 H 0.6490 0.2867 0.5189
H21_7 H 0.6875 0.2320 0.5027
C22_7 C 0.7702(3) 0.1172(11) 0.5627(4)
H22_7 H 0.7533 0.1335 0.5295
H23_7 H 0.8031 0.1125 0.5708
H24_7 H 0.7603 0.0202 0.5713
C23_7 C 0.8621(3) 0.1859(8) 0.7056(3)
C24_7 C 0.9045(3) 0.2439(7) 0.7395(3)
C25_7 C 0.9204(3) 0.2050(10) 0.7864(3)
C26_7 C 0.8931(3) 0.1011(10) 0.7987(3)
C27_7 C 0.8524(3) 0.0422(7) 0.7667(3)
C28_7 C 0.8359(3) 0.0872(9) 0.7201(3)
C29_7 C 0.9334(3) 0.3533(12) 0.7260(4)
H25_7 H 0.9607 0.2992 0.7275
H26_7 H 0.9154 0.3904 0.6946
H27_7 H 0.9427 0.4411 0.7473
C30_7 C 0.9645(4) 0.2676(14) 0.8222(4)
H28_7 H 0.9732 0.2092 0.8508
H29_7 H 0.9887 0.2581 0.8114
H30_7 H 0.9604 0.3765 0.8278
C31_7 C 0.9093(3) 0.0623(13) 0.8486(3)
C33_7 C 0.7903(3) 0.0248(11) 0.6864(4)
H34_7 H 0.7657 0.0707 0.6927
H35_7 H 0.7857 0.0507 0.6550
O2_7 O 0.9979(2) 0.1243(13) 0.5685(3)
O6_4 O 0.9020(2) 0.1612(8) 0.8743(2)
C10_7 C 0.9334(5) 0.8666(12) 0.5942(5)
H7_7 H 0.9338 0.8023 0.6196
H8_7 H 0.9120 0.8223 0.5648
H9_7 H 0.9643 0.8705 0.5952
C11_7 C 0.8774(4) 0.9168(9) 0.6439(4)
H10_7 H 0.8532 0.9481 0.6531
H11_7 H 0.8659 0.8340 0.6210
H12_7 H 0.9041 0.8798 0.6709
C32_7 C 0.8248(4) 0.9297(13) 0.7811(4)
H31_7 H 0.8383 0.9223 0.8148
H32_7 H 0.7930 0.9662 0.7699
H33_7 H 0.8251 0.8279 0.7680
H36_7 H 0.7899 0.9125 0.6897
O7_4 O 0.9297(3) 0.9392(9) 0.8650(3)
B1_8 B 0.1554(3) 0.2377(8) 0.8461(3)
C1_8 C 0.1238(2) 0.2047(8) 0.8731(3)
C2_8 C 0.1105(2) 0.3289(8) 0.8933(2)
C3_8 C 0.0833(3) 0.3043(8) 0.9174(3)
C4_8 C 0.0703(2) 0.1545(8) 0.9210(3)
C5_8 C 0.0823(3) 0.0312(8) 0.9009(3)
C6_8 C 0.1089(3) 0.0518(7) 0.8765(3)
C7_8 C 0.1228(3) 0.4921(10) 0.8882(3)
H1_8 H 0.1342 0.5439 0.9182
H2_8 H 0.1466 0.4932 0.8768
H3_8 H 0.0955 0.5462 0.8663
C8_8 C 0.0671(4) 0.4372(11) 0.9372(4)
H4_8 H 0.0432 0.4946 0.9121
H5_8 H 0.0546 0.3975 0.9581
H6_8 H 0.0930 0.5059 0.9541
C9_8 C 0.0440(3) 0.1206(8) 0.9505(3)
C12_8 C 0.2051(3) 0.3139(8) 0.8721(3)
C13_8 C 0.2176(3) 0.4386(9) 0.8505(3)
C14_8 C 0.2629(3) 0.4929(9) 0.8674(3)
C15_8 C 0.2963(3) 0.4164(9) 0.9057(3)
C16_8 C 0.2851(3) 0.3017(9) 0.9290(3)
C17_8 C 0.2393(3) 0.2492(9) 0.9118(3)
C18_8 C 0.1819(3) 0.5253(9) 0.8096(4)
H13_8 H 0.1829 0.6352 0.8171
H14_8 H 0.1886 0.5120 0.7827
H15_8 H 0.1513 0.4843 0.8027
C19_8 C 0.2753(3) 0.6271(12) 0.8460(4)
H16_8 H 0.2587 0.6206 0.8124
H17_8 H 0.2670 0.7230 0.8568
H18_8 H 0.3084 0.6260 0.8546
C20_8 C 0.3467(3) 0.4570(8) 0.9200(3)
C21_8 C 0.3223(3) 0.2290(11) 0.9721(3)
H19_8 H 0.3271 0.1217 0.9657
H20_8 H 0.3510 0.2867 0.9811
H21_8 H 0.3125 0.2320 0.9973
C22_8 C 0.2298(3) 0.1172(11) 0.9373(4)
H22_8 H 0.2467 0.1335 0.9705
H23_8 H 0.1969 0.1125 0.9292
H24_8 H 0.2397 0.0202 0.9287
C23_8 C 0.1379(3) 0.1859(8) 0.7944(3)
C24_8 C 0.0955(3) 0.2439(7) 0.7605(3)
C25_8 C 0.0796(3) 0.2050(10) 0.7136(3)
C26_8 C 0.1069(3) 0.1011(10) 0.7013(3)
C27_8 C 0.1476(3) 0.0422(7) 0.7333(3)
C28_8 C 0.1641(3) 0.0872(9) 0.7799(3)
C29_8 C 0.0666(3) 0.3533(12) 0.7740(4)
H25_8 H 0.0393 0.2992 0.7725
H26_8 H 0.0846 0.3904 0.8054
H27_8 H 0.0573 0.4411 0.7527
C30_8 C 0.0355(4) 0.2676(14) 0.6778(4)
H28_8 H 0.0268 0.2092 0.6492
H29_8 H 0.0113 0.2581 0.6886
H30_8 H 0.0396 0.3765 0.6722
C31_8 C 0.0907(3) 0.0623(13) 0.6514(3)
C33_8 C 0.2097(3) 0.0248(11) 0.8136(4)
H34_8 H 0.2343 0.0707 0.8073
H35_8 H 0.2143 0.0507 0.8450
O2_8 O 0.0021(2) 0.1243(13) 0.9315(3)
C10_8 C 0.0666(5) 0.8666(12) 0.9058(5)
H7_8 H 0.0662 0.8023 0.8804
H8_8 H 0.0880 0.8223 0.9352
H9_8 H 0.0357 0.8705 0.9048
C11_8 C 0.1226(4) 0.9168(9) 0.8561(4)
H10_8 H 0.1468 0.9481 0.8469
H11_8 H 0.1341 0.8340 0.8790
H12_8 H 0.0959 0.8798 0.8291
C32_8 C 0.1752(4) 0.9297(13) 0.7189(4)
H31_8 H 0.1617 0.9223 0.6852
H32_8 H 0.2070 0.9662 0.7301
H33_8 H 0.1749 0.8279 0.7320
H36_8 H 0.2101 0.9125 0.8103
loop_
_geom_bond_atom_site_label_1
_geom_bond_atom_site_label_2
_geom_bond_site_symmetry_1
_geom_bond_site_symmetry_2
B1 C1 1_555 1_555
C1 C2 1_555 1_555
C2 C3 1_555 1_555
C3 C4 1_555 1_555
C4 C5 1_555 1_555
C5 C6 1_555 1_555
C6 C1 1_555 1_555
C7 C2 1_555 1_555
H2 C7 1_555 1_555
C8 C3 1_555 1_555
H4 C8 1_555 1_555
H5 C8 1_555 1_555
C9 C4 1_555 1_555
C10 C5 1_555 1_555
H7 C10 1_555 1_555
H8 C10 1_555 1_555
H9 C10 1_555 1_555
C11 C6 1_555 1_555
H10 C11 1_555 1_555
H11 C11 1_555 1_555
H12 C11 1_555 1_555
C12 B1 1_555 1_555
C13 C12 1_555 1_555
C14 C13 1_555 1_555
C15 C14 1_555 1_555
C16 C15 1_555 1_555
C17 C12 1_555 1_555
C20 C15 1_555 1_555
C21 C16 1_555 1_555
H19 C21 1_555 1_555
H20 C21 1_555 1_555
H21 C21 1_555 1_555
C22 C17 1_555 1_555
H22 C22 1_555 1_555
H23 C22 1_555 1_555
H24 C22 1_555 1_555
C23 B1 1_555 1_555
C24 C23 1_555 1_555
C25 C24 1_555 1_555
C26 C25 1_555 1_555
C27 C26 1_555 1_555
C28 C23 1_555 1_555
C29 C24 1_555 1_555
H25 C29 1_555 1_555
H26 C29 1_555 1_555
H27 C29 1_555 1_555
C30 C25 1_555 1_555
H28 C30 1_555 1_555
H29 C30 1_555 1_555
H30 C30 1_555 1_555
C31 C26 1_555 1_555
C32 C27 1_555 1_555
H31 C32 1_555 1_555
H32 C32 1_555 1_555
H33 C32 1_555 1_555
C33 C28 1_555 1_555
H34 C33 1_555 1_555
H35 C33 1_555 1_555
H36 C33 1_555 1_555
Eu1 O1 1_555 1_555
O1 Eu4 1_555 1_555
O2 C9 1_555 1_555
O3 C9 1_555 1_555
O5 C20 1_555 1_555
O6 C31 1_555 1_555
O7 C31 1_555 1_555
Eu2 O6 1_555 1_555
Eu4 O3 1_555 1_555
O8 Eu1 1_555 1_555
O9 Eu1 1_555 1_555
O10 Eu1 1_555 1_555
O11 Eu1 1_555 1_555
O12 Eu1 1_555 1_555
O13 Eu1 1_555 1_555
C16 C17 1_555 1_555
C27 C28 1_555 1_555
Eu1 O2 1_555 1_555
O7 Eu2 1_555 1_555
Eu4 O8 1_555 1_555
H13 C18 1_555 1_555
H14 C18 1_555 1_555
H16 C19 1_555 1_555
H17 C19 1_555 1_555
H18 C19 1_555 1_555
Eu3 O4 1_555 1_555
B1_2 C1_2 1_555 1_555
C1_2 C2_2 1_555 1_555
C2_2 C3_2 1_555 1_555
C3_2 C4_2 1_555 1_555
C4_2 C5_2 1_555 1_555
C5_2 C6_2 1_555 1_555
C6_2 C1_2 1_555 1_555
C7_2 C2_2 1_555 1_555
H2_2 C7_2 1_555 1_555
C8_2 C3_2 1_555 1_555
H4_2 C8_2 1_555 1_555
H5_2 C8_2 1_555 1_555
C9_2 C4_2 1_555 1_555
C10_2 C5_2 1_555 1_555
H7_2 C10_2 1_555 1_555
H8_2 C10_2 1_555 1_555
H9_2 C10_2 1_555 1_555
C11_2 C6_2 1_555 1_555
H10_2 C11_2 1_555 1_555
H11_2 C11_2 1_555 1_555
H12_2 C11_2 1_555 1_555
C12_2 B1_2 1_555 1_555
C13_2 C12_2 1_555 1_555
C14_2 C13_2 1_555 1_555
C15_2 C14_2 1_555 1_555
C16_2 C15_2 1_555 1_555
C17_2 C12_2 1_555 1_555
C20_2 C15_2 1_555 1_555
C21_2 C16_2 1_555 1_555
H19_2 C21_2 1_555 1_555
H20_2 C21_2 1_555 1_555
H21_2 C21_2 1_555 1_555
C22_2 C17_2 1_555 1_555
H22_2 C22_2 1_555 1_555
H23_2 C22_2 1_555 1_555
H24_2 C22_2 1_555 1_555
C23_2 B1_2 1_555 1_555
C24_2 C23_2 1_555 1_555
C25_2 C24_2 1_555 1_555
C26_2 C25_2 1_555 1_555
C27_2 C26_2 1_555 1_555
C28_2 C23_2 1_555 1_555
C29_2 C24_2 1_555 1_555
H25_2 C29_2 1_555 1_555
H26_2 C29_2 1_555 1_555
H27_2 C29_2 1_555 1_555
C30_2 C25_2 1_555 1_555
H28_2 C30_2 1_555 1_555
H29_2 C30_2 1_555 1_555
H30_2 C30_2 1_555 1_555
C31_2 C26_2 1_555 1_555
C32_2 C27_2 1_555 1_555
H31_2 C32_2 1_555 1_555
H32_2 C32_2 1_555 1_555
H33_2 C32_2 1_555 1_555
C33_2 C28_2 1_555 1_555
H34_2 C33_2 1_555 1_555
H35_2 C33_2 1_555 1_555
H36_2 C33_2 1_555 1_555
Eu2 O1_2 1_555 1_555
O2_2 C9_2 1_555 1_555
O3_2 C9_2 1_555 1_555
O5_2 C20_2 1_555 1_555
O12 C31_2 1_555 1_555
O13 C31_2 1_555 1_555
O10_2 Eu2 1_555 1_555
O11_2 Eu2 1_555 1_555
C16_2 C17_2 1_555 1_555
C27_2 C28_2 1_555 1_555
Eu2 O2_2 1_555 1_555
Eu4_2 O8_2 1_555 1_555
H13_2 C18_2 1_555 1_555
H14_2 C18_2 1_555 1_555
H16_2 C19_2 1_555 1_555
H17_2 C19_2 1_555 1_555
H18_2 C19_2 1_555 1_555
Eu3_2 O4_2 1_555 1_555
H7_3 C10_3 1_555 1_555
H8_3 C10_3 1_555 1_555
H9_3 C10_3 1_555 1_555
H10_3 C11_3 1_555 1_555
H11_3 C11_3 1_555 1_555
H12_3 C11_3 1_555 1_555
H31_3 C32_3 1_555 1_555
H32_3 C32_3 1_555 1_555
H33_3 C32_3 1_555 1_555
O1_3 Eu4_3 1_555 1_555
B1_3 C1_3 1_555 1_555
C1_3 C2_3 1_555 1_555
C2_3 C3_3 1_555 1_555
C3_3 C4_3 1_555 1_555
C4_3 C5_3 1_555 1_555
C5_3 C6_3 1_555 1_555
C6_3 C1_3 1_555 1_555
C7_3 C2_3 1_555 1_555
H1_3 C7_3 1_555 1_555
H2_3 C7_3 1_555 1_555
H3_3 C7_3 1_555 1_555
C8_3 C3_3 1_555 1_555
H4_3 C8_3 1_555 1_555
H5_3 C8_3 1_555 1_555
H6_3 C8_3 1_555 1_555
C9_3 C4_3 1_555 1_555
C12_3 B1_3 1_555 1_555
C13_3 C12_3 1_555 1_555
C14_3 C13_3 1_555 1_555
C15_3 C14_3 1_555 1_555
C16_3 C15_3 1_555 1_555
C17_3 C12_3 1_555 1_555
C18_3 C13_3 1_555 1_555
H13_3 C18_3 1_555 1_555
H14_3 C18_3 1_555 1_555
H15_3 C18_3 1_555 1_555
C19_3 C14_3 1_555 1_555
H16_3 C19_3 1_555 1_555
H17_3 C19_3 1_555 1_555
H18_3 C19_3 1_555 1_555
C20_3 C15_3 1_555 1_555
C21_3 C16_3 1_555 1_555
H19_3 C21_3 1_555 1_555
H20_3 C21_3 1_555 1_555
H21_3 C21_3 1_555 1_555
C22_3 C17_3 1_555 1_555
H22_3 C22_3 1_555 1_555
H23_3 C22_3 1_555 1_555
H24_3 C22_3 1_555 1_555
C23_3 B1_3 1_555 1_555
C24_3 C23_3 1_555 1_555
C25_3 C24_3 1_555 1_555
C26_3 C25_3 1_555 1_555
C27_3 C26_3 1_555 1_555
C28_3 C23_3 1_555 1_555
C29_3 C24_3 1_555 1_555
H25_3 C29_3 1_555 1_555
H26_3 C29_3 1_555 1_555
H27_3 C29_3 1_555 1_555
C30_3 C25_3 1_555 1_555
H28_3 C30_3 1_555 1_555
H29_3 C30_3 1_555 1_555
H30_3 C30_3 1_555 1_555
C31_3 C26_3 1_555 1_555
C33_3 C28_3 1_555 1_555
H34_3 C33_3 1_555 1_555
H35_3 C33_3 1_555 1_555
O2_3 C9_3 1_555 1_555
O3_3 C9_3 1_555 1_555
O10 C20_3 1_555 1_555
O11 C20_3 1_555 1_555
O6_2 C31_3 1_555 1_555
Eu3_2 O6_2 1_555 1_555
C16_3 C17_3 1_555 1_555
C27_3 C28_3 1_555 1_555
O8_3 Eu3 1_555 1_555
O12_2 Eu3 1_555 1_555
H7_4 C10_4 1_555 1_555
H8_4 C10_4 1_555 1_555
H9_4 C10_4 1_555 1_555
H10_4 C11_4 1_555 1_555
H11_4 C11_4 1_555 1_555
H12_4 C11_4 1_555 1_555
H31_4 C32_4 1_555 1_555
H32_4 C32_4 1_555 1_555
H33_4 C32_4 1_555 1_555
B1_4 C1_4 1_555 1_555
C1_4 C2_4 1_555 1_555
C2_4 C3_4 1_555 1_555
C3_4 C4_4 1_555 1_555
C4_4 C5_4 1_555 1_555
C5_4 C6_4 1_555 1_555
C6_4 C1_4 1_555 1_555
C7_4 C2_4 1_555 1_555
H1_4 C7_4 1_555 1_555
H2_4 C7_4 1_555 1_555
H3_4 C7_4 1_555 1_555
C8_4 C3_4 1_555 1_555
H4_4 C8_4 1_555 1_555
H5_4 C8_4 1_555 1_555
H6_4 C8_4 1_555 1_555
C9_4 C4_4 1_555 1_555
C12_4 B1_4 1_555 1_555
C13_4 C12_4 1_555 1_555
C14_4 C13_4 1_555 1_555
C15_4 C14_4 1_555 1_555
C16_4 C15_4 1_555 1_555
C17_4 C12_4 1_555 1_555
C18_4 C13_4 1_555 1_555
H13_4 C18_4 1_555 1_555
H14_4 C18_4 1_555 1_555
H15_4 C18_4 1_555 1_555
C19_4 C14_4 1_555 1_555
H16_4 C19_4 1_555 1_555
H17_4 C19_4 1_555 1_555
H18_4 C19_4 1_555 1_555
C20_4 C15_4 1_555 1_555
C21_4 C16_4 1_555 1_555
H19_4 C21_4 1_555 1_555
H20_4 C21_4 1_555 1_555
H21_4 C21_4 1_555 1_555
C22_4 C17_4 1_555 1_555
H22_4 C22_4 1_555 1_555
H23_4 C22_4 1_555 1_555
H24_4 C22_4 1_555 1_555
C23_4 B1_4 1_555 1_555
C24_4 C23_4 1_555 1_555
C25_4 C24_4 1_555 1_555
C26_4 C25_4 1_555 1_555
C27_4 C26_4 1_555 1_555
C28_4 C23_4 1_555 1_555
C29_4 C24_4 1_555 1_555
H25_4 C29_4 1_555 1_555
H26_4 C29_4 1_555 1_555
H27_4 C29_4 1_555 1_555
C30_4 C25_4 1_555 1_555
H28_4 C30_4 1_555 1_555
H29_4 C30_4 1_555 1_555
H30_4 C30_4 1_555 1_555
C31_4 C26_4 1_555 1_555
C33_4 C28_4 1_555 1_555
H34_4 C33_4 1_555 1_555
H35_4 C33_4 1_555 1_555
O2_4 C9_4 1_555 1_555
O3_4 C9_4 1_555 1_555
O10_2 C20_4 1_555 1_555
O11_2 C20_4 1_555 1_555
O12_2 C31_4 1_555 1_555
C16_4 C17_4 1_555 1_555
C27_4 C28_4 1_555 1_555
H13_5 C18_5 1_555 1_555
H14_5 C18_5 1_555 1_555
H16_5 C19_5 1_555 1_555
H17_5 C19_5 1_555 1_555
H18_5 C19_5 1_555 1_555
Eu4_3 O4_3 1_555 1_555
B1_5 C1_5 1_555 1_555
C1_5 C2_5 1_555 1_555
C2_5 C3_5 1_555 1_555
C3_5 C4_5 1_555 1_555
C4_5 C5_5 1_555 1_555
C5_5 C6_5 1_555 1_555
C6_5 C1_5 1_555 1_555
C7_5 C2_5 1_555 1_555
H2_5 C7_5 1_555 1_555
C8_5 C3_5 1_555 1_555
H4_5 C8_5 1_555 1_555
H5_5 C8_5 1_555 1_555
C9_5 C4_5 1_555 1_555
C10_5 C5_5 1_555 1_555
H7_5 C10_5 1_555 1_555
H8_5 C10_5 1_555 1_555
H9_5 C10_5 1_555 1_555
C11_5 C6_5 1_555 1_555
H10_5 C11_5 1_555 1_555
H11_5 C11_5 1_555 1_555
H12_5 C11_5 1_555 1_555
C12_5 B1_5 1_555 1_555
C13_5 C12_5 1_555 1_555
C14_5 C13_5 1_555 1_555
C15_5 C14_5 1_555 1_555
C16_5 C15_5 1_555 1_555
C17_5 C12_5 1_555 1_555
C20_5 C15_5 1_555 1_555
C21_5 C16_5 1_555 1_555
H19_5 C21_5 1_555 1_555
H20_5 C21_5 1_555 1_555
H21_5 C21_5 1_555 1_555
C22_5 C17_5 1_555 1_555
H22_5 C22_5 1_555 1_555
H23_5 C22_5 1_555 1_555
H24_5 C22_5 1_555 1_555
C23_5 B1_5 1_555 1_555
C24_5 C23_5 1_555 1_555
C25_5 C24_5 1_555 1_555
C26_5 C25_5 1_555 1_555
C27_5 C26_5 1_555 1_555
C28_5 C23_5 1_555 1_555
C29_5 C24_5 1_555 1_555
H25_5 C29_5 1_555 1_555
H26_5 C29_5 1_555 1_555
H27_5 C29_5 1_555 1_555
C30_5 C25_5 1_555 1_555
H28_5 C30_5 1_555 1_555
H29_5 C30_5 1_555 1_555
H30_5 C30_5 1_555 1_555
C31_5 C26_5 1_555 1_555
C32_5 C27_5 1_555 1_555
H31_5 C32_5 1_555 1_555
H32_5 C32_5 1_555 1_555
H33_5 C32_5 1_555 1_555
C33_5 C28_5 1_555 1_555
H34_5 C33_5 1_555 1_555
H35_5 C33_5 1_555 1_555
H36_5 C33_5 1_555 1_555
O2_5 C9_5 1_555 1_555
O9 C9_5 1_555 1_555
O5_3 C20_5 1_555 1_555
O6_3 C31_5 1_555 1_555
O7_3 C31_5 1_555 1_555
Eu4_2 O6_3 1_555 1_555
O10_3 Eu4 1_555 1_555
O11_3 Eu4 1_555 1_555
O12_3 Eu4 1_555 1_555
O13_3 Eu4 1_555 1_555
C16_5 C17_5 1_555 1_555
C27_5 C28_5 1_555 1_555
Eu4 O2_5 1_555 1_555
O7_3 Eu4_2 1_555 1_555
H13_6 C18_6 1_555 1_555
H14_6 C18_6 1_555 1_555
H16_6 C19_6 1_555 1_555
H17_6 C19_6 1_555 1_555
H18_6 C19_6 1_555 1_555
Eu4_4 O4_4 1_555 1_555
B1_6 C1_6 1_555 1_555
C1_6 C2_6 1_555 1_555
C2_6 C3_6 1_555 1_555
C3_6 C4_6 1_555 1_555
C4_6 C5_6 1_555 1_555
C5_6 C6_6 1_555 1_555
C6_6 C1_6 1_555 1_555
C7_6 C2_6 1_555 1_555
H2_6 C7_6 1_555 1_555
C8_6 C3_6 1_555 1_555
H4_6 C8_6 1_555 1_555
H5_6 C8_6 1_555 1_555
C9_6 C4_6 1_555 1_555
C10_6 C5_6 1_555 1_555
H7_6 C10_6 1_555 1_555
H8_6 C10_6 1_555 1_555
H9_6 C10_6 1_555 1_555
C11_6 C6_6 1_555 1_555
H10_6 C11_6 1_555 1_555
H11_6 C11_6 1_555 1_555
H12_6 C11_6 1_555 1_555
C12_6 B1_6 1_555 1_555
C13_6 C12_6 1_555 1_555
C14_6 C13_6 1_555 1_555
C15_6 C14_6 1_555 1_555
C16_6 C15_6 1_555 1_555
C17_6 C12_6 1_555 1_555
C20_6 C15_6 1_555 1_555
C21_6 C16_6 1_555 1_555
H19_6 C21_6 1_555 1_555
H20_6 C21_6 1_555 1_555
H21_6 C21_6 1_555 1_555
C22_6 C17_6 1_555 1_555
H22_6 C22_6 1_555 1_555
H23_6 C22_6 1_555 1_555
H24_6 C22_6 1_555 1_555
C23_6 B1_6 1_555 1_555
C24_6 C23_6 1_555 1_555
C25_6 C24_6 1_555 1_555
C26_6 C25_6 1_555 1_555
C27_6 C26_6 1_555 1_555
C28_6 C23_6 1_555 1_555
C29_6 C24_6 1_555 1_555
H25_6 C29_6 1_555 1_555
H26_6 C29_6 1_555 1_555
H27_6 C29_6 1_555 1_555
C30_6 C25_6 1_555 1_555
H28_6 C30_6 1_555 1_555
H29_6 C30_6 1_555 1_555
H30_6 C30_6 1_555 1_555
C31_6 C26_6 1_555 1_555
C32_6 C27_6 1_555 1_555
H31_6 C32_6 1_555 1_555
H32_6 C32_6 1_555 1_555
H33_6 C32_6 1_555 1_555
C33_6 C28_6 1_555 1_555
H34_6 C33_6 1_555 1_555
H35_6 C33_6 1_555 1_555
H36_6 C33_6 1_555 1_555
O2_6 C9_6 1_555 1_555
O9_2 C9_6 1_555 1_555
O5_4 C20_6 1_555 1_555
O12_3 C31_6 1_555 1_555
O13_3 C31_6 1_555 1_555
O10_4 Eu4_2 1_555 1_555
O11_4 Eu4_2 1_555 1_555
C16_6 C17_6 1_555 1_555
C27_6 C28_6 1_555 1_555
Eu4_2 O2_6 1_555 1_555
O12_4 Eu4_3 1_555 1_555
B1_7 C1_7 1_555 1_555
C1_7 C2_7 1_555 1_555
C2_7 C3_7 1_555 1_555
C3_7 C4_7 1_555 1_555
C4_7 C5_7 1_555 1_555
C5_7 C6_7 1_555 1_555
C6_7 C1_7 1_555 1_555
C7_7 C2_7 1_555 1_555
H1_7 C7_7 1_555 1_555
H2_7 C7_7 1_555 1_555
H3_7 C7_7 1_555 1_555
C8_7 C3_7 1_555 1_555
H4_7 C8_7 1_555 1_555
H5_7 C8_7 1_555 1_555
H6_7 C8_7 1_555 1_555
C9_7 C4_7 1_555 1_555
C12_7 B1_7 1_555 1_555
C13_7 C12_7 1_555 1_555
C14_7 C13_7 1_555 1_555
C15_7 C14_7 1_555 1_555
C16_7 C15_7 1_555 1_555
C17_7 C12_7 1_555 1_555
C18_7 C13_7 1_555 1_555
H13_7 C18_7 1_555 1_555
H14_7 C18_7 1_555 1_555
H15_7 C18_7 1_555 1_555
C19_7 C14_7 1_555 1_555
H16_7 C19_7 1_555 1_555
H17_7 C19_7 1_555 1_555
H18_7 C19_7 1_555 1_555
C20_7 C15_7 1_555 1_555
C21_7 C16_7 1_555 1_555
H19_7 C21_7 1_555 1_555
H20_7 C21_7 1_555 1_555
H21_7 C21_7 1_555 1_555
C22_7 C17_7 1_555 1_555
H22_7 C22_7 1_555 1_555
H23_7 C22_7 1_555 1_555
H24_7 C22_7 1_555 1_555
C23_7 B1_7 1_555 1_555
C24_7 C23_7 1_555 1_555
C25_7 C24_7 1_555 1_555
C26_7 C25_7 1_555 1_555
C27_7 C26_7 1_555 1_555
C28_7 C23_7 1_555 1_555
C29_7 C24_7 1_555 1_555
H25_7 C29_7 1_555 1_555
H26_7 C29_7 1_555 1_555
H27_7 C29_7 1_555 1_555
C30_7 C25_7 1_555 1_555
H28_7 C30_7 1_555 1_555
H29_7 C30_7 1_555 1_555
H30_7 C30_7 1_555 1_555
C31_7 C26_7 1_555 1_555
C33_7 C28_7 1_555 1_555
H34_7 C33_7 1_555 1_555
H35_7 C33_7 1_555 1_555
O2_7 C9_7 1_555 1_555
O9_3 C9_7 1_555 1_555
O10_3 C20_7 1_555 1_555
O11_3 C20_7 1_555 1_555
O6_4 C31_7 1_555 1_555
Eu4_4 O6_4 1_555 1_555
C16_7 C17_7 1_555 1_555
C27_7 C28_7 1_555 1_555
H7_7 C10_7 1_555 1_555
H8_7 C10_7 1_555 1_555
H9_7 C10_7 1_555 1_555
H10_7 C11_7 1_555 1_555
H11_7 C11_7 1_555 1_555
H12_7 C11_7 1_555 1_555
H31_7 C32_7 1_555 1_555
H32_7 C32_7 1_555 1_555
H33_7 C32_7 1_555 1_555
B1_8 C1_8 1_555 1_555
C1_8 C2_8 1_555 1_555
C2_8 C3_8 1_555 1_555
C3_8 C4_8 1_555 1_555
C4_8 C5_8 1_555 1_555
C5_8 C6_8 1_555 1_555
C6_8 C1_8 1_555 1_555
C7_8 C2_8 1_555 1_555
H1_8 C7_8 1_555 1_555
H2_8 C7_8 1_555 1_555
H3_8 C7_8 1_555 1_555
C8_8 C3_8 1_555 1_555
H4_8 C8_8 1_555 1_555
H5_8 C8_8 1_555 1_555
H6_8 C8_8 1_555 1_555
C9_8 C4_8 1_555 1_555
C12_8 B1_8 1_555 1_555
C13_8 C12_8 1_555 1_555
C14_8 C13_8 1_555 1_555
C15_8 C14_8 1_555 1_555
C16_8 C15_8 1_555 1_555
C17_8 C12_8 1_555 1_555
C18_8 C13_8 1_555 1_555
H13_8 C18_8 1_555 1_555
H14_8 C18_8 1_555 1_555
H15_8 C18_8 1_555 1_555
C19_8 C14_8 1_555 1_555
H16_8 C19_8 1_555 1_555
H17_8 C19_8 1_555 1_555
H18_8 C19_8 1_555 1_555
C20_8 C15_8 1_555 1_555
C21_8 C16_8 1_555 1_555
H19_8 C21_8 1_555 1_555
H20_8 C21_8 1_555 1_555
H21_8 C21_8 1_555 1_555
C22_8 C17_8 1_555 1_555
H22_8 C22_8 1_555 1_555
H23_8 C22_8 1_555 1_555
H24_8 C22_8 1_555 1_555
C23_8 B1_8 1_555 1_555
C24_8 C23_8 1_555 1_555
C25_8 C24_8 1_555 1_555
C26_8 C25_8 1_555 1_555
C27_8 C26_8 1_555 1_555
C28_8 C23_8 1_555 1_555
C29_8 C24_8 1_555 1_555
H25_8 C29_8 1_555 1_555
H26_8 C29_8 1_555 1_555
H27_8 C29_8 1_555 1_555
C30_8 C25_8 1_555 1_555
H28_8 C30_8 1_555 1_555
H29_8 C30_8 1_555 1_555
H30_8 C30_8 1_555 1_555
C31_8 C26_8 1_555 1_555
C33_8 C28_8 1_555 1_555
H34_8 C33_8 1_555 1_555
H35_8 C33_8 1_555 1_555
O2_8 C9_8 1_555 1_555
O9_4 C9_8 1_555 1_555
O10_4 C20_8 1_555 1_555
O11_4 C20_8 1_555 1_555
O12_4 C31_8 1_555 1_555
C16_8 C17_8 1_555 1_555
C27_8 C28_8 1_555 1_555
H7_8 C10_8 1_555 1_555
H8_8 C10_8 1_555 1_555
H9_8 C10_8 1_555 1_555
H10_8 C11_8 1_555 1_555
H11_8 C11_8 1_555 1_555
H12_8 C11_8 1_555 1_555
H31_8 C32_8 1_555 1_555
H32_8 C32_8 1_555 1_555
H33_8 C32_8 1_555 1_555

#END
