
###############################################################################
#
# This file contains modified crystal structure data generated from the
# MOF subset of the Cambridge Structural Database (CSD) v543 
# hosted by the Cambridge Crystallographic Data Centre (CCDC).
#
# This work is licensed under the Creative Commons
# Attribution-NonCommercial-ShareAlike 4.0 International License.
# To view a copy of this license, visit
# http://creativecommons.org/licenses/by-nc-sa/4.0/
# or send a letter to
# Creative Commons, PO Box 1866, Mountain View, CA 94042, USA.
#
# CIF created using the CSD Python API on 29 September 2022
# The structure has been converted into the P1 space group
# The structure has a 3D framework
# The original CSD entry LODKIA is in the monoclinic crystal system
# The framework has been calculated to contain at least 10.0% void space
# The void calculation uses a probe of radius 1.32A, grid spacing 0.4
#
###############################################################################

data_LODKIA
_chemical_formula_moiety         '(C256 H176 Cd12 N16 O76)n'
_symmetry_cell_setting           triclinic
_symmetry_space_group_name_H-M   'P 1'
_symmetry_Int_Tables_number      1
_space_group_name_Hall           'P 1'
loop_
_symmetry_equiv_pos_site_id
_symmetry_equiv_pos_as_xyz
1 x,y,z
_cell_length_a                   29.426(6)
_cell_length_b                   9.1549(18)
_cell_length_c                   27.559(6)
_cell_angle_alpha                90
_cell_angle_beta                 115.50(3)
_cell_angle_gamma                90
_cell_volume                     6700.95
loop_
_atom_site_label
_atom_site_type_symbol
_atom_site_fract_x
_atom_site_fract_y
_atom_site_fract_z
O12 O 0.02051(16) 0.0234(5) 0.55874(17)
Cd3 Cd 0.064210(16) 0.91098(5) 0.004971(17)
O11 O 0.00192(17) 0.7871(5) 0.55677(18)
Cd2 Cd 0.88640(2) 0.24361(5) 0.53389(2)
O2 O 0.92203(18) 0.0007(5) 0.56687(19)
O4 O 0.97949(16) 0.0234(5) 0.94126(17)
O9 O 0.9723(2) 0.2729(7) 0.5901(2)
H1 H 0.9837 0.1946 0.6078
H2 H 0.9762 0.3430 0.6118
O10 O 0.8895(3) 0.4888(6) 0.5188(2)
H3 H 0.9169 0.5243 0.5426
H4 H 0.8645 0.5318 0.5207
H7 H 0.9264 0.0608 0.7404
H8 H 0.9361 0.0706 0.6619
H14 H 0.7804 0.0141 0.7036
C23 C 0.7933(3) 0.0170(9) 0.4698(3)
H15 H 0.8091 0.0113 0.4470
C26 C 0.7467(3) 0.0345(10) 0.5348(4)
H18 H 0.7312 0.0418 0.5578
C27 C 0.7886(3) 0.1187(8) 0.5438(3)
C28 C 0.8133(3) 0.2186(8) 0.5911(3)
C29 C 0.7932(4) 0.2420(10) 0.6284(4)
H19 H 0.7622 0.2020 0.6223
C30 C 0.8185(5) 0.3213(11) 0.6723(4)
H20 H 0.8055 0.3345 0.6974
C31 C 0.8631(4) 0.3829(10) 0.6807(4)
H21 H 0.8813 0.4370 0.7117
C32 C 0.8813(4) 0.3637(10) 0.6419(4)
H22 H 0.9116 0.4070 0.6469
N1 N 0.8117(2) 0.1087(7) 0.5117(2)
N2 N 0.8560(3) 0.2839(7) 0.5975(3)
Cd4 Cd 0.935790(16) 0.08902(5) 0.995029(17)
O15 O 0.90943(16) 0.1615(5) 0.47049(16)
O16 O 0.83810(19) 0.2818(6) 0.42753(19)
Cd6 Cd 0.88640(2) 0.75639(5) 0.03389(2)
Cd1 Cd 0.935790(16) 0.91098(5) 0.495029(17)
O1 O 0.8927(2) 0.7765(6) 0.5485(2)
O3 O 0.99808(17) 0.7871(5) 0.94323(18)
O5 O 0.63102(18) 0.6293(6) 0.57752(19)
O6 O 0.6153(2) 0.8673(7) 0.5710(2)
O7 O 0.90943(16) 0.8385(5) 0.97049(16)
O8 O 0.83810(19) 0.7182(6) 0.92753(19)
C1 C 0.8970(3) 0.8857(7) 0.6289(3)
C2 C 0.8700(3) 0.7760(8) 0.6383(3)
H5 H 0.8558 0.7026 0.6129
C3 C 0.8635(3) 0.7735(8) 0.6851(3)
H6 H 0.8448 0.6988 0.6905
C4 C 0.8843(2) 0.8791(7) 0.7237(2)
C5 C 0.9117(3) 0.9889(8) 0.7144(3)
C6 C 0.9180(3) 0.9945(8) 0.6676(3)
C7 C 0.9040(2) 0.8863(7) 0.5782(3)
C8 C 0.8792(2) 0.8669(7) 0.7755(2)
C9 C 0.8346(2) 0.8230(7) 0.7775(2)
C10 C 0.8349(2) 0.7954(7) 0.8269(2)
H9 H 0.8056 0.7609 0.8279
C11 C 0.8773(2) 0.8168(7) 0.8753(2)
C12 C 0.9214(2) 0.8672(7) 0.8732(2)
C13 C 0.9212(2) 0.8893(7) 0.8231(2)
H10 H 0.9507 0.9206 0.8217
C14 C 0.8740(2) 0.7877(7) 0.9271(2)
C15 C 0.9689(2) 0.8939(7) 0.9232(2)
C16 C 0.7858(2) 0.8065(7) 0.7290(2)
C17 C 0.7609(3) 0.6750(8) 0.7175(3)
H11 H 0.7753 0.5947 0.7394
C18 C 0.7141(3) 0.6602(8) 0.6734(3)
H12 H 0.6980 0.5700 0.6659
C19 C 0.6915(2) 0.7787(7) 0.6406(3)
C20 C 0.7161(3) 0.9129(8) 0.6528(3)
H13 H 0.7010 0.9946 0.6321
C21 C 0.7636(2) 0.9250(7) 0.6965(3)
C22 C 0.6424(3) 0.7595(8) 0.5931(3)
C24 C 0.7517(3) 0.9305(10) 0.4594(4)
H16 H 0.7399 0.8663 0.4304
C25 C 0.7281(3) 0.9413(10) 0.4925(4)
H17 H 0.6997 0.8854 0.4860
Cd5 Cd 0.564210(16) 0.58902(5) 0.504971(17)
O13 O 0.97949(16) 0.9766(5) 0.44126(17)
O14 O 0.86898(18) 0.8707(6) 0.42248(19)
C23_2 C 0.2067(3) 0.0170(9) 0.0302(3)
H15_2 H 0.1909 0.0113 0.0530
O15_2 O 0.09057(16) 0.1615(5) 0.02951(16)
O16_2 O 0.16190(19) 0.2818(6) 0.07247(19)
Cd2_2 Cd 0.11360(2) 0.24361(5) 0.96611(2)
O2_2 O 0.07797(18) 0.0007(5) 0.93313(19)
O9_2 O 0.0277(2) 0.2729(7) 0.9099(2)
H1_2 H 0.0163 0.1946 0.8922
H2_2 H 0.0238 0.3430 0.8882
O10_2 O 0.1105(3) 0.4888(6) 0.9812(2)
H3_2 H 0.0831 0.5243 0.9574
H4_2 H 0.1355 0.5318 0.9793
H7_2 H 0.0736 0.0608 0.7596
H8_2 H 0.0639 0.0706 0.8381
H14_2 H 0.2196 0.0141 0.7964
C26_2 C 0.2533(3) 0.0345(10) 0.9652(4)
H18_2 H 0.2688 0.0418 0.9422
C27_2 C 0.2114(3) 0.1187(8) 0.9562(3)
C28_2 C 0.1867(3) 0.2186(8) 0.9089(3)
C29_2 C 0.2068(4) 0.2420(10) 0.8716(4)
H19_2 H 0.2378 0.2020 0.8777
C30_2 C 0.1815(5) 0.3213(11) 0.8277(4)
H20_2 H 0.1945 0.3345 0.8026
C31_2 C 0.1369(4) 0.3829(10) 0.8193(4)
H21_2 H 0.1187 0.4370 0.7883
C32_2 C 0.1187(4) 0.3637(10) 0.8581(4)
H22_2 H 0.0884 0.4070 0.8531
N1_2 N 0.1883(2) 0.1087(7) 0.9883(2)
N2_2 N 0.1440(3) 0.2839(7) 0.9025(3)
Cd4_2 Cd 0.064210(16) 0.08902(5) 0.504971(17)
C24_2 C 0.2483(3) 0.9305(10) 0.0406(4)
H16_2 H 0.2601 0.8663 0.0696
C25_2 C 0.2719(3) 0.9413(10) 0.0075(4)
H17_2 H 0.3003 0.8854 0.0140
O13_2 O 0.02051(16) 0.9766(5) 0.05874(17)
O14_2 O 0.13102(18) 0.8707(6) 0.07752(19)
O1_2 O 0.1073(2) 0.7765(6) 0.9515(2)
O5_2 O 0.36898(18) 0.6293(6) 0.92248(19)
O6_2 O 0.3847(2) 0.8673(7) 0.9290(2)
O7_2 O 0.09057(16) 0.8385(5) 0.52951(16)
O8_2 O 0.16190(19) 0.7182(6) 0.57247(19)
C1_2 C 0.1030(3) 0.8857(7) 0.8711(3)
C2_2 C 0.1300(3) 0.7760(8) 0.8617(3)
H5_2 H 0.1442 0.7026 0.8871
C3_2 C 0.1365(3) 0.7735(8) 0.8149(3)
H6_2 H 0.1552 0.6988 0.8095
C4_2 C 0.1157(2) 0.8791(7) 0.7763(2)
C5_2 C 0.0883(3) 0.9889(8) 0.7856(3)
C6_2 C 0.0820(3) 0.9945(8) 0.8324(3)
C7_2 C 0.0960(2) 0.8863(7) 0.9218(3)
C8_2 C 0.1208(2) 0.8669(7) 0.7245(2)
C9_2 C 0.1654(2) 0.8230(7) 0.7225(2)
C10_2 C 0.1651(2) 0.7954(7) 0.6731(2)
H9_2 H 0.1944 0.7609 0.6721
C11_2 C 0.1227(2) 0.8168(7) 0.6247(2)
C12_2 C 0.0786(2) 0.8672(7) 0.6268(2)
C13_2 C 0.0788(2) 0.8893(7) 0.6769(2)
H10_2 H 0.0493 0.9206 0.6783
C14_2 C 0.1260(2) 0.7877(7) 0.5729(2)
C15_2 C 0.0311(2) 0.8939(7) 0.5768(2)
C16_2 C 0.2142(2) 0.8065(7) 0.7710(2)
C17_2 C 0.2391(3) 0.6750(8) 0.7825(3)
H11_2 H 0.2247 0.5947 0.7606
C18_2 C 0.2859(3) 0.6602(8) 0.8266(3)
H12_2 H 0.3020 0.5700 0.8341
C19_2 C 0.3085(2) 0.7787(7) 0.8594(3)
C20_2 C 0.2839(3) 0.9129(8) 0.8472(3)
H13_2 H 0.2990 0.9946 0.8679
C21_2 C 0.2364(2) 0.9250(7) 0.8035(3)
C22_2 C 0.3576(3) 0.7595(8) 0.9069(3)
Cd5_2 Cd 0.435790(16) 0.58902(5) 0.995029(17)
Cd6_2 Cd 0.11360(2) 0.75639(5) 0.46611(2)
Cd3_2 Cd 0.564210(16) 0.41098(5) 0.004971(17)
Cd6_3 Cd 0.38640(2) 0.25639(5) 0.03389(2)
Cd1_2 Cd 0.435790(16) 0.41098(5) 0.495029(17)
Cd2_3 Cd 0.38640(2) 0.74361(5) 0.53389(2)
O1_3 O 0.3927(2) 0.2765(6) 0.5485(2)
O2_3 O 0.42203(18) 0.5007(5) 0.56687(19)
O3_2 O 0.49808(17) 0.2871(5) 0.94323(18)
O4_2 O 0.47949(16) 0.5234(5) 0.94126(17)
O5_3 O 0.13102(18) 0.1293(6) 0.57752(19)
O6_3 O 0.1153(2) 0.3673(7) 0.5710(2)
O7_3 O 0.40943(16) 0.3385(5) 0.97049(16)
O8_3 O 0.33810(19) 0.2182(6) 0.92753(19)
O9_3 O 0.4723(2) 0.7729(7) 0.5901(2)
H1_3 H 0.4837 0.6946 0.6078
H2_3 H 0.4762 0.8430 0.6118
O10_3 O 0.3895(3) 0.9888(6) 0.5188(2)
C1_3 C 0.3970(3) 0.3857(7) 0.6289(3)
C2_3 C 0.3700(3) 0.2760(8) 0.6383(3)
H5_3 H 0.3558 0.2026 0.6129
C3_3 C 0.3635(3) 0.2735(8) 0.6851(3)
H6_3 H 0.3448 0.1988 0.6905
C4_3 C 0.3843(2) 0.3791(7) 0.7237(2)
C5_3 C 0.4117(3) 0.4889(8) 0.7144(3)
H7_3 H 0.4264 0.5608 0.7404
C6_3 C 0.4180(3) 0.4945(8) 0.6676(3)
H8_3 H 0.4361 0.5706 0.6619
C7_3 C 0.4040(2) 0.3863(7) 0.5782(3)
C8_3 C 0.3792(2) 0.3669(7) 0.7755(2)
C9_3 C 0.3346(2) 0.3230(7) 0.7775(2)
C10_3 C 0.3349(2) 0.2954(7) 0.8269(2)
H9_3 H 0.3056 0.2609 0.8279
C11_3 C 0.3773(2) 0.3168(7) 0.8753(2)
C12_3 C 0.4214(2) 0.3672(7) 0.8732(2)
C13_3 C 0.4212(2) 0.3893(7) 0.8231(2)
H10_3 H 0.4507 0.4206 0.8217
C14_3 C 0.3740(2) 0.2877(7) 0.9271(2)
C15_3 C 0.4689(2) 0.3939(7) 0.9232(2)
C16_3 C 0.2858(2) 0.3065(7) 0.7290(2)
C17_3 C 0.2609(3) 0.1750(8) 0.7175(3)
H11_3 H 0.2753 0.0947 0.7394
C18_3 C 0.2141(3) 0.1602(8) 0.6734(3)
H12_3 H 0.1980 0.0700 0.6659
C19_3 C 0.1915(2) 0.2787(7) 0.6406(3)
C20_3 C 0.2161(3) 0.4129(8) 0.6528(3)
H13_3 H 0.2010 0.4946 0.6321
C21_3 C 0.2636(2) 0.4250(7) 0.6965(3)
H14_3 H 0.2804 0.5141 0.7036
C22_3 C 0.1424(3) 0.2595(8) 0.5931(3)
C23_3 C 0.2933(3) 0.5170(9) 0.4698(3)
H15_3 H 0.3091 0.5113 0.4470
C24_3 C 0.2517(3) 0.4305(10) 0.4594(4)
H16_3 H 0.2399 0.3663 0.4304
C25_3 C 0.2281(3) 0.4413(10) 0.4925(4)
H17_3 H 0.1997 0.3854 0.4860
C26_3 C 0.2467(3) 0.5345(10) 0.5348(4)
H18_3 H 0.2312 0.5418 0.5578
C27_3 C 0.2886(3) 0.6187(8) 0.5438(3)
C28_3 C 0.3133(3) 0.7186(8) 0.5911(3)
C29_3 C 0.2932(4) 0.7420(10) 0.6284(4)
H19_3 H 0.2622 0.7020 0.6223
C30_3 C 0.3185(5) 0.8213(11) 0.6723(4)
H20_3 H 0.3055 0.8345 0.6974
C31_3 C 0.3631(4) 0.8829(10) 0.6807(4)
H21_3 H 0.3813 0.9370 0.7117
C32_3 C 0.3813(4) 0.8637(10) 0.6419(4)
H22_3 H 0.4116 0.9070 0.6469
N1_3 N 0.3117(2) 0.6087(7) 0.5117(2)
N2_3 N 0.3560(3) 0.7839(7) 0.5975(3)
O11_2 O 0.50192(17) 0.2871(5) 0.55677(18)
O12_2 O 0.52051(16) 0.5234(5) 0.55874(17)
O13_3 O 0.47949(16) 0.4766(5) 0.44126(17)
O14_3 O 0.36898(18) 0.3707(6) 0.42248(19)
O15_3 O 0.40943(16) 0.6615(5) 0.47049(16)
O16_3 O 0.33810(19) 0.7818(6) 0.42753(19)
C23_4 C 0.7067(3) 0.5170(9) 0.0302(3)
H15_4 H 0.6909 0.5113 0.0530
C24_4 C 0.7483(3) 0.4305(10) 0.0406(4)
H16_4 H 0.7601 0.3663 0.0696
C25_4 C 0.7719(3) 0.4413(10) 0.0075(4)
H17_4 H 0.8003 0.3854 0.0140
O13_4 O 0.52051(16) 0.4766(5) 0.05874(17)
O14_4 O 0.63102(18) 0.3707(6) 0.07752(19)
O15_4 O 0.59057(16) 0.6615(5) 0.02951(16)
O16_4 O 0.66190(19) 0.7818(6) 0.07247(19)
Cd2_4 Cd 0.61360(2) 0.74361(5) 0.96611(2)
O1_4 O 0.6073(2) 0.2765(6) 0.9515(2)
O2_4 O 0.57797(18) 0.5007(5) 0.93313(19)
O5_4 O 0.86898(18) 0.1293(6) 0.92248(19)
O6_4 O 0.8847(2) 0.3673(7) 0.9290(2)
O7_4 O 0.59057(16) 0.3385(5) 0.52951(16)
O8_4 O 0.66190(19) 0.2182(6) 0.57247(19)
O9_4 O 0.5277(2) 0.7729(7) 0.9099(2)
H1_4 H 0.5163 0.6946 0.8922
H2_4 H 0.5238 0.8430 0.8882
O10_4 O 0.6105(3) 0.9888(6) 0.9812(2)
C1_4 C 0.6030(3) 0.3857(7) 0.8711(3)
C2_4 C 0.6300(3) 0.2760(8) 0.8617(3)
H5_4 H 0.6442 0.2026 0.8871
C3_4 C 0.6365(3) 0.2735(8) 0.8149(3)
H6_4 H 0.6552 0.1988 0.8095
C4_4 C 0.6157(2) 0.3791(7) 0.7763(2)
C5_4 C 0.5883(3) 0.4889(8) 0.7856(3)
H7_4 H 0.5736 0.5608 0.7596
C6_4 C 0.5820(3) 0.4945(8) 0.8324(3)
H8_4 H 0.5639 0.5706 0.8381
C7_4 C 0.5960(2) 0.3863(7) 0.9218(3)
C8_4 C 0.6208(2) 0.3669(7) 0.7245(2)
C9_4 C 0.6654(2) 0.3230(7) 0.7225(2)
C10_4 C 0.6651(2) 0.2954(7) 0.6731(2)
H9_4 H 0.6944 0.2609 0.6721
C11_4 C 0.6227(2) 0.3168(7) 0.6247(2)
C12_4 C 0.5786(2) 0.3672(7) 0.6268(2)
C13_4 C 0.5788(2) 0.3893(7) 0.6769(2)
H10_4 H 0.5493 0.4206 0.6783
C14_4 C 0.6260(2) 0.2877(7) 0.5729(2)
C15_4 C 0.5311(2) 0.3939(7) 0.5768(2)
C16_4 C 0.7142(2) 0.3065(7) 0.7710(2)
C17_4 C 0.7391(3) 0.1750(8) 0.7825(3)
H11_4 H 0.7247 0.0947 0.7606
C18_4 C 0.7859(3) 0.1602(8) 0.8266(3)
H12_4 H 0.8020 0.0700 0.8341
C19_4 C 0.8085(2) 0.2787(7) 0.8594(3)
C20_4 C 0.7839(3) 0.4129(8) 0.8472(3)
H13_4 H 0.7990 0.4946 0.8679
C21_4 C 0.7364(2) 0.4250(7) 0.8035(3)
H14_4 H 0.7196 0.5141 0.7964
C22_4 C 0.8576(3) 0.2595(8) 0.9069(3)
C26_4 C 0.7533(3) 0.5345(10) 0.9652(4)
H18_4 H 0.7688 0.5418 0.9422
C27_4 C 0.7114(3) 0.6187(8) 0.9562(3)
C28_4 C 0.6867(3) 0.7186(8) 0.9089(3)
C29_4 C 0.7068(4) 0.7420(10) 0.8716(4)
H19_4 H 0.7378 0.7020 0.8777
C30_4 C 0.6815(5) 0.8213(11) 0.8277(4)
H20_4 H 0.6945 0.8345 0.8026
C31_4 C 0.6369(4) 0.8829(10) 0.8193(4)
H21_4 H 0.6187 0.9370 0.7883
C32_4 C 0.6187(4) 0.8637(10) 0.8581(4)
H22_4 H 0.5884 0.9070 0.8531
N1_4 N 0.6883(2) 0.6087(7) 0.9883(2)
N2_4 N 0.6440(3) 0.7839(7) 0.9025(3)
Cd6_4 Cd 0.61360(2) 0.25639(5) 0.46611(2)
O1_5 O 0.1073(2) 0.2235(6) 0.4515(2)
O3_3 O 0.00192(17) 0.2129(5) 0.05677(18)
O6_5 O 0.3847(2) 0.1327(7) 0.4290(2)
C1_5 C 0.1030(3) 0.1143(7) 0.3711(3)
C2_5 C 0.1300(3) 0.2240(8) 0.3617(3)
H5_5 H 0.1442 0.2974 0.3871
C3_5 C 0.1365(3) 0.2265(8) 0.3149(3)
H6_5 H 0.1552 0.3012 0.3095
C4_5 C 0.1157(2) 0.1209(7) 0.2763(2)
C5_5 C 0.0883(3) 0.0111(8) 0.2856(3)
C6_5 C 0.0820(3) 0.0055(8) 0.3324(3)
C7_5 C 0.0960(2) 0.1137(7) 0.4218(3)
C8_5 C 0.1208(2) 0.1331(7) 0.2245(2)
C9_5 C 0.1654(2) 0.1770(7) 0.2225(2)
C10_5 C 0.1651(2) 0.2046(7) 0.1731(2)
H9_5 H 0.1944 0.2391 0.1721
C11_5 C 0.1227(2) 0.1832(7) 0.1247(2)
C12_5 C 0.0786(2) 0.1328(7) 0.1268(2)
C13_5 C 0.0788(2) 0.1107(7) 0.1769(2)
H10_5 H 0.0493 0.0794 0.1783
C14_5 C 0.1260(2) 0.2123(7) 0.0729(2)
C15_5 C 0.0311(2) 0.1061(7) 0.0768(2)
C16_5 C 0.2142(2) 0.1935(7) 0.2710(2)
C17_5 C 0.2391(3) 0.3250(8) 0.2825(3)
H11_5 H 0.2247 0.4053 0.2606
C18_5 C 0.2859(3) 0.3398(8) 0.3266(3)
H12_5 H 0.3020 0.4300 0.3341
C19_5 C 0.3085(2) 0.2213(7) 0.3594(3)
C20_5 C 0.2839(3) 0.0871(8) 0.3472(3)
H13_5 H 0.2990 0.0054 0.3679
C21_5 C 0.2364(2) 0.0750(7) 0.3035(3)
C22_5 C 0.3576(3) 0.2405(8) 0.4069(3)
C24_5 C 0.2483(3) 0.0695(10) 0.5406(4)
H16_5 H 0.2601 0.1337 0.5696
C25_5 C 0.2719(3) 0.0587(10) 0.5075(4)
H17_5 H 0.3003 0.1146 0.5140
O2_5 O 0.07797(18) 0.9993(5) 0.43313(19)
O9_5 O 0.0277(2) 0.7271(7) 0.4099(2)
H1_5 H 0.0163 0.8054 0.3922
H2_5 H 0.0238 0.6570 0.3882
O10_5 O 0.1105(3) 0.5112(6) 0.4812(2)
H3_3 H 0.0831 0.4757 0.4574
H4_3 H 0.1355 0.4682 0.4793
H7_5 H 0.0736 0.9392 0.2596
H8_5 H 0.0639 0.9294 0.3381
H14_5 H 0.2196 0.9859 0.2964
C23_5 C 0.2067(3) 0.9830(9) 0.5302(3)
H15_5 H 0.1909 0.9887 0.5530
C26_5 C 0.2533(3) 0.9655(10) 0.4652(4)
H18_5 H 0.2688 0.9582 0.4422
C27_5 C 0.2114(3) 0.8813(8) 0.4562(3)
C28_5 C 0.1867(3) 0.7814(8) 0.4089(3)
C29_5 C 0.2068(4) 0.7580(10) 0.3716(4)
H19_5 H 0.2378 0.7980 0.3777
C30_5 C 0.1815(5) 0.6787(11) 0.3277(4)
H20_5 H 0.1945 0.6655 0.3026
C31_5 C 0.1369(4) 0.6171(10) 0.3193(4)
H21_5 H 0.1187 0.5630 0.2883
C32_5 C 0.1187(4) 0.6363(10) 0.3581(4)
H22_5 H 0.0884 0.5930 0.3531
N1_5 N 0.1883(2) 0.8913(7) 0.4883(2)
N2_5 N 0.1440(3) 0.7161(7) 0.4025(3)
O11_3 O 0.99808(17) 0.2129(5) 0.44323(18)
O1_6 O 0.8927(2) 0.2235(6) 0.0485(2)
O6_6 O 0.6153(2) 0.1327(7) 0.0710(2)
C1_6 C 0.8970(3) 0.1143(7) 0.1289(3)
C2_6 C 0.8700(3) 0.2240(8) 0.1383(3)
H5_6 H 0.8558 0.2974 0.1129
C3_6 C 0.8635(3) 0.2265(8) 0.1851(3)
H6_6 H 0.8448 0.3012 0.1905
C4_6 C 0.8843(2) 0.1209(7) 0.2237(2)
C5_6 C 0.9117(3) 0.0111(8) 0.2144(3)
C6_6 C 0.9180(3) 0.0055(8) 0.1676(3)
C7_6 C 0.9040(2) 0.1137(7) 0.0782(3)
C8_6 C 0.8792(2) 0.1331(7) 0.2755(2)
C9_6 C 0.8346(2) 0.1770(7) 0.2775(2)
C10_6 C 0.8349(2) 0.2046(7) 0.3269(2)
H9_6 H 0.8056 0.2391 0.3279
C11_6 C 0.8773(2) 0.1832(7) 0.3753(2)
C12_6 C 0.9214(2) 0.1328(7) 0.3732(2)
C13_6 C 0.9212(2) 0.1107(7) 0.3231(2)
H10_6 H 0.9507 0.0794 0.3217
C14_6 C 0.8740(2) 0.2123(7) 0.4271(2)
C15_6 C 0.9689(2) 0.1061(7) 0.4232(2)
C16_6 C 0.7858(2) 0.1935(7) 0.2290(2)
C17_6 C 0.7609(3) 0.3250(8) 0.2175(3)
H11_6 H 0.7753 0.4053 0.2394
C18_6 C 0.7141(3) 0.3398(8) 0.1734(3)
H12_6 H 0.6980 0.4300 0.1659
C19_6 C 0.6915(2) 0.2213(7) 0.1406(3)
C20_6 C 0.7161(3) 0.0871(8) 0.1528(3)
H13_6 H 0.7010 0.0054 0.1321
C21_6 C 0.7636(2) 0.0750(7) 0.1965(3)
C22_6 C 0.6424(3) 0.2405(8) 0.0931(3)
C24_6 C 0.7517(3) 0.0695(10) 0.9594(4)
H16_6 H 0.7399 0.1337 0.9304
C25_6 C 0.7281(3) 0.0587(10) 0.9925(4)
H17_6 H 0.6997 0.1146 0.9860
O2_6 O 0.92203(18) 0.9993(5) 0.06687(19)
O9_6 O 0.9723(2) 0.7271(7) 0.0901(2)
H1_6 H 0.9837 0.8054 0.1078
H2_6 H 0.9762 0.6570 0.1118
O10_6 O 0.8895(3) 0.5112(6) 0.0188(2)
H3_4 H 0.9169 0.4757 0.0426
H4_4 H 0.8645 0.4682 0.0207
H7_6 H 0.9264 0.9392 0.2404
H8_6 H 0.9361 0.9294 0.1619
H14_6 H 0.7804 0.9859 0.2036
C26_6 C 0.7467(3) 0.9655(10) 0.0348(4)
H18_6 H 0.7312 0.9582 0.0578
C27_6 C 0.7886(3) 0.8813(8) 0.0438(3)
C28_6 C 0.8133(3) 0.7814(8) 0.0911(3)
C29_6 C 0.7932(4) 0.7580(10) 0.1284(4)
H19_6 H 0.7622 0.7980 0.1223
C30_6 C 0.8185(5) 0.6787(11) 0.1723(4)
H20_6 H 0.8055 0.6655 0.1974
C31_6 C 0.8631(4) 0.6171(10) 0.1807(4)
H21_6 H 0.8813 0.5630 0.2117
C32_6 C 0.8813(4) 0.6363(10) 0.1419(4)
H22_6 H 0.9116 0.5930 0.1469
N1_6 N 0.8117(2) 0.8913(7) 0.0117(2)
N2_6 N 0.8560(3) 0.7161(7) 0.0975(3)
C23_6 C 0.7933(3) 0.9830(9) 0.9698(3)
H15_6 H 0.8091 0.9887 0.9470
O1_7 O 0.6073(2) 0.7235(6) 0.4515(2)
O2_7 O 0.57797(18) 0.4993(5) 0.43313(19)
O3_4 O 0.50192(17) 0.7129(5) 0.05677(18)
O6_7 O 0.8847(2) 0.6327(7) 0.4290(2)
O9_7 O 0.5277(2) 0.2271(7) 0.4099(2)
H1_7 H 0.5163 0.3054 0.3922
H2_7 H 0.5238 0.1570 0.3882
O10_7 O 0.6105(3) 0.0112(6) 0.4812(2)
C1_7 C 0.6030(3) 0.6143(7) 0.3711(3)
C2_7 C 0.6300(3) 0.7240(8) 0.3617(3)
H5_7 H 0.6442 0.7974 0.3871
C3_7 C 0.6365(3) 0.7265(8) 0.3149(3)
H6_7 H 0.6552 0.8012 0.3095
C4_7 C 0.6157(2) 0.6209(7) 0.2763(2)
C5_7 C 0.5883(3) 0.5111(8) 0.2856(3)
H7_7 H 0.5736 0.4392 0.2596
C6_7 C 0.5820(3) 0.5055(8) 0.3324(3)
H8_7 H 0.5639 0.4294 0.3381
C7_7 C 0.5960(2) 0.6137(7) 0.4218(3)
C8_7 C 0.6208(2) 0.6331(7) 0.2245(2)
C9_7 C 0.6654(2) 0.6770(7) 0.2225(2)
C10_7 C 0.6651(2) 0.7046(7) 0.1731(2)
H9_7 H 0.6944 0.7391 0.1721
C11_7 C 0.6227(2) 0.6832(7) 0.1247(2)
C12_7 C 0.5786(2) 0.6328(7) 0.1268(2)
C13_7 C 0.5788(2) 0.6107(7) 0.1769(2)
H10_7 H 0.5493 0.5794 0.1783
C14_7 C 0.6260(2) 0.7123(7) 0.0729(2)
C15_7 C 0.5311(2) 0.6061(7) 0.0768(2)
C16_7 C 0.7142(2) 0.6935(7) 0.2710(2)
C17_7 C 0.7391(3) 0.8250(8) 0.2825(3)
H11_7 H 0.7247 0.9053 0.2606
C18_7 C 0.7859(3) 0.8398(8) 0.3266(3)
H12_7 H 0.8020 0.9300 0.3341
C19_7 C 0.8085(2) 0.7213(7) 0.3594(3)
C20_7 C 0.7839(3) 0.5871(8) 0.3472(3)
H13_7 H 0.7990 0.5054 0.3679
C21_7 C 0.7364(2) 0.5750(7) 0.3035(3)
H14_7 H 0.7196 0.4859 0.2964
C22_7 C 0.8576(3) 0.7405(8) 0.4069(3)
C23_7 C 0.7067(3) 0.4830(9) 0.5302(3)
H15_7 H 0.6909 0.4887 0.5530
C24_7 C 0.7483(3) 0.5695(10) 0.5406(4)
H16_7 H 0.7601 0.6337 0.5696
C25_7 C 0.7719(3) 0.5587(10) 0.5075(4)
H17_7 H 0.8003 0.6146 0.5140
C26_7 C 0.7533(3) 0.4655(10) 0.4652(4)
H18_7 H 0.7688 0.4582 0.4422
C27_7 C 0.7114(3) 0.3813(8) 0.4562(3)
C28_7 C 0.6867(3) 0.2814(8) 0.4089(3)
C29_7 C 0.7068(4) 0.2580(10) 0.3716(4)
H19_7 H 0.7378 0.2980 0.3777
C30_7 C 0.6815(5) 0.1787(11) 0.3277(4)
H20_7 H 0.6945 0.1655 0.3026
C31_7 C 0.6369(4) 0.1171(10) 0.3193(4)
H21_7 H 0.6187 0.0630 0.2883
C32_7 C 0.6187(4) 0.1363(10) 0.3581(4)
H22_7 H 0.5884 0.0930 0.3531
N1_7 N 0.6883(2) 0.3913(7) 0.4883(2)
N2_7 N 0.6440(3) 0.2161(7) 0.4025(3)
O11_4 O 0.49808(17) 0.7129(5) 0.44323(18)
O1_8 O 0.3927(2) 0.7235(6) 0.0485(2)
O2_8 O 0.42203(18) 0.4993(5) 0.06687(19)
O6_8 O 0.1153(2) 0.6327(7) 0.0710(2)
O9_8 O 0.4723(2) 0.2271(7) 0.0901(2)
H1_8 H 0.4837 0.3054 0.1078
H2_8 H 0.4762 0.1570 0.1118
O10_8 O 0.3895(3) 0.0112(6) 0.0188(2)
C1_8 C 0.3970(3) 0.6143(7) 0.1289(3)
C2_8 C 0.3700(3) 0.7240(8) 0.1383(3)
H5_8 H 0.3558 0.7974 0.1129
C3_8 C 0.3635(3) 0.7265(8) 0.1851(3)
H6_8 H 0.3448 0.8012 0.1905
C4_8 C 0.3843(2) 0.6209(7) 0.2237(2)
C5_8 C 0.4117(3) 0.5111(8) 0.2144(3)
H7_8 H 0.4264 0.4392 0.2404
C6_8 C 0.4180(3) 0.5055(8) 0.1676(3)
H8_8 H 0.4361 0.4294 0.1619
C7_8 C 0.4040(2) 0.6137(7) 0.0782(3)
C8_8 C 0.3792(2) 0.6331(7) 0.2755(2)
C9_8 C 0.3346(2) 0.6770(7) 0.2775(2)
C10_8 C 0.3349(2) 0.7046(7) 0.3269(2)
H9_8 H 0.3056 0.7391 0.3279
C11_8 C 0.3773(2) 0.6832(7) 0.3753(2)
C12_8 C 0.4214(2) 0.6328(7) 0.3732(2)
C13_8 C 0.4212(2) 0.6107(7) 0.3231(2)
H10_8 H 0.4507 0.5794 0.3217
C14_8 C 0.3740(2) 0.7123(7) 0.4271(2)
C15_8 C 0.4689(2) 0.6061(7) 0.4232(2)
C16_8 C 0.2858(2) 0.6935(7) 0.2290(2)
C17_8 C 0.2609(3) 0.8250(8) 0.2175(3)
H11_8 H 0.2753 0.9053 0.2394
C18_8 C 0.2141(3) 0.8398(8) 0.1734(3)
H12_8 H 0.1980 0.9300 0.1659
C19_8 C 0.1915(2) 0.7213(7) 0.1406(3)
C20_8 C 0.2161(3) 0.5871(8) 0.1528(3)
H13_8 H 0.2010 0.5054 0.1321
C21_8 C 0.2636(2) 0.5750(7) 0.1965(3)
H14_8 H 0.2804 0.4859 0.2036
C22_8 C 0.1424(3) 0.7405(8) 0.0931(3)
C26_8 C 0.2467(3) 0.4655(10) 0.0348(4)
H18_8 H 0.2312 0.4582 0.0578
C27_8 C 0.2886(3) 0.3813(8) 0.0438(3)
C28_8 C 0.3133(3) 0.2814(8) 0.0911(3)
C29_8 C 0.2932(4) 0.2580(10) 0.1284(4)
H19_8 H 0.2622 0.2980 0.1223
C30_8 C 0.3185(5) 0.1787(11) 0.1723(4)
H20_8 H 0.3055 0.1655 0.1974
C31_8 C 0.3631(4) 0.1171(10) 0.1807(4)
H21_8 H 0.3813 0.0630 0.2117
C32_8 C 0.3813(4) 0.1363(10) 0.1419(4)
H22_8 H 0.4116 0.0930 0.1469
N1_8 N 0.3117(2) 0.3913(7) 0.0117(2)
N2_8 N 0.3560(3) 0.2161(7) 0.0975(3)
C23_8 C 0.2933(3) 0.4830(9) 0.9698(3)
H15_8 H 0.3091 0.4887 0.9470
C24_8 C 0.2517(3) 0.5695(10) 0.9594(4)
H16_8 H 0.2399 0.6337 0.9304
C25_8 C 0.2281(3) 0.5587(10) 0.9925(4)
H17_8 H 0.1997 0.6146 0.9860
H3_5 H 0.4169 0.0243 0.5426
H4_5 H 0.3645 0.0318 0.5207
H3_6 H 0.5831 0.0243 0.9574
H4_6 H 0.6355 0.0318 0.9793
H3_7 H 0.5831 0.9757 0.4574
H4_7 H 0.6355 0.9682 0.4793
H3_8 H 0.4169 0.9757 0.0426
H4_8 H 0.3645 0.9682 0.0207
loop_
_geom_bond_atom_site_label_1
_geom_bond_atom_site_label_2
_geom_bond_site_symmetry_1
_geom_bond_site_symmetry_2
Cd2 O2 1_555 1_555
O9 Cd2 1_555 1_555
H1 O9 1_555 1_555
H2 O9 1_555 1_555
O10 Cd2 1_555 1_555
H3 O10 1_555 1_555
H4 O10 1_555 1_555
C23 H15 1_555 1_555
H18 C26 1_555 1_555
C27 C26 1_555 1_555
C28 C27 1_555 1_555
C29 C28 1_555 1_555
H19 C29 1_555 1_555
C30 C29 1_555 1_555
H20 C30 1_555 1_555
C31 C30 1_555 1_555
H21 C31 1_555 1_555
C32 C31 1_555 1_555
H22 C32 1_555 1_555
N1 Cd2 1_555 1_555
N2 Cd2 1_555 1_555
Cd4 O4 1_555 1_555
O16 Cd2 1_555 1_555
Cd2 O15 1_555 1_555
C23 N1 1_555 1_555
C27 N1 1_555 1_555
C28 N2 1_555 1_555
C32 N2 1_555 1_555
Cd1 O1 1_555 1_555
O1 C7 1_555 1_555
O3 C15 1_555 1_555
O5 C22 1_555 1_555
O6 C22 1_555 1_555
O7 C14 1_555 1_555
O8 C14 1_555 1_555
C1 C2 1_555 1_555
C2 H5 1_555 1_555
C3 C2 1_555 1_555
H6 C3 1_555 1_555
C4 C3 1_555 1_555
C5 C4 1_555 1_555
C6 C1 1_555 1_555
C8 C4 1_555 1_555
C9 C8 1_555 1_555
C10 C9 1_555 1_555
H9 C10 1_555 1_555
C11 C10 1_555 1_555
C12 C11 1_555 1_555
C13 C8 1_555 1_555
H10 C13 1_555 1_555
C14 C11 1_555 1_555
C15 C12 1_555 1_555
C16 C9 1_555 1_555
C17 C16 1_555 1_555
H11 C17 1_555 1_555
C18 C17 1_555 1_555
H12 C18 1_555 1_555
C19 C18 1_555 1_555
C20 C19 1_555 1_555
H13 C20 1_555 1_555
C21 C16 1_555 1_555
C22 C19 1_555 1_555
H16 C24 1_555 1_555
C25 C24 1_555 1_555
H17 C25 1_555 1_555
Cd5 O5 1_555 1_555
O13 Cd1 1_555 1_555
O14 Cd1 1_555 1_555
C1 C7 1_555 1_555
C5 C6 1_555 1_555
C12 C13 1_555 1_555
C20 C21 1_555 1_555
C23_2 H15_2 1_555 1_555
Cd2_2 O2_2 1_555 1_555
O9_2 Cd2_2 1_555 1_555
H1_2 O9_2 1_555 1_555
H2_2 O9_2 1_555 1_555
O10_2 Cd2_2 1_555 1_555
H3_2 O10_2 1_555 1_555
H4_2 O10_2 1_555 1_555
H18_2 C26_2 1_555 1_555
C27_2 C26_2 1_555 1_555
C28_2 C27_2 1_555 1_555
C29_2 C28_2 1_555 1_555
H19_2 C29_2 1_555 1_555
C30_2 C29_2 1_555 1_555
H20_2 C30_2 1_555 1_555
C31_2 C30_2 1_555 1_555
H21_2 C31_2 1_555 1_555
C32_2 C31_2 1_555 1_555
H22_2 C32_2 1_555 1_555
N1_2 Cd2_2 1_555 1_555
N2_2 Cd2_2 1_555 1_555
Cd4_2 O12 1_555 1_555
C27_2 N1_2 1_555 1_555
C28_2 N2_2 1_555 1_555
C32_2 N2_2 1_555 1_555
H16_2 C24_2 1_555 1_555
C25_2 C24_2 1_555 1_555
H17_2 C25_2 1_555 1_555
O13_2 Cd3 1_555 1_555
O14_2 Cd3 1_555 1_555
O1_2 C7_2 1_555 1_555
O11 C15_2 1_555 1_555
O5_2 C22_2 1_555 1_555
O6_2 C22_2 1_555 1_555
O7_2 C14_2 1_555 1_555
O8_2 C14_2 1_555 1_555
C1_2 C2_2 1_555 1_555
C2_2 H5_2 1_555 1_555
C3_2 C2_2 1_555 1_555
H6_2 C3_2 1_555 1_555
C4_2 C3_2 1_555 1_555
C5_2 C4_2 1_555 1_555
C6_2 C1_2 1_555 1_555
C8_2 C4_2 1_555 1_555
C9_2 C8_2 1_555 1_555
C10_2 C9_2 1_555 1_555
H9_2 C10_2 1_555 1_555
C11_2 C10_2 1_555 1_555
C12_2 C11_2 1_555 1_555
C13_2 C8_2 1_555 1_555
H10_2 C13_2 1_555 1_555
C14_2 C11_2 1_555 1_555
C15_2 C12_2 1_555 1_555
C16_2 C9_2 1_555 1_555
C17_2 C16_2 1_555 1_555
H11_2 C17_2 1_555 1_555
C18_2 C17_2 1_555 1_555
H12_2 C18_2 1_555 1_555
C19_2 C18_2 1_555 1_555
C20_2 C19_2 1_555 1_555
H13_2 C20_2 1_555 1_555
C21_2 C16_2 1_555 1_555
C22_2 C19_2 1_555 1_555
Cd5_2 O5_2 1_555 1_555
Cd6_2 O7_2 1_555 1_555
O8_2 Cd6_2 1_555 1_555
C1_2 C7_2 1_555 1_555
C5_2 C6_2 1_555 1_555
C12_2 C13_2 1_555 1_555
C20_2 C21_2 1_555 1_555
Cd1_2 O1_3 1_555 1_555
Cd2_3 O2_3 1_555 1_555
O1_3 C7_3 1_555 1_555
O2_3 Cd1_2 1_555 1_555
O3_2 C15_3 1_555 1_555
O4_2 C15_3 1_555 1_555
O5_3 C22_3 1_555 1_555
O6_3 C22_3 1_555 1_555
O7_3 C14_3 1_555 1_555
O8_3 C14_3 1_555 1_555
O9_3 Cd2_3 1_555 1_555
H1_3 O9_3 1_555 1_555
H2_3 O9_3 1_555 1_555
O10_3 Cd2_3 1_555 1_555
C1_3 C2_3 1_555 1_555
C2_3 H5_3 1_555 1_555
C3_3 C2_3 1_555 1_555
H6_3 C3_3 1_555 1_555
C4_3 C3_3 1_555 1_555
C5_3 C4_3 1_555 1_555
H7_3 C5_3 1_555 1_555
C6_3 C1_3 1_555 1_555
H8_3 C6_3 1_555 1_555
C7_3 O2_3 1_555 1_555
C8_3 C4_3 1_555 1_555
C9_3 C8_3 1_555 1_555
C10_3 C9_3 1_555 1_555
H9_3 C10_3 1_555 1_555
C11_3 C10_3 1_555 1_555
C12_3 C11_3 1_555 1_555
C13_3 C8_3 1_555 1_555
H10_3 C13_3 1_555 1_555
C14_3 C11_3 1_555 1_555
C15_3 C12_3 1_555 1_555
C16_3 C9_3 1_555 1_555
C17_3 C16_3 1_555 1_555
H11_3 C17_3 1_555 1_555
C18_3 C17_3 1_555 1_555
H12_3 C18_3 1_555 1_555
C19_3 C18_3 1_555 1_555
C20_3 C19_3 1_555 1_555
H13_3 C20_3 1_555 1_555
C21_3 C16_3 1_555 1_555
H14_3 C21_3 1_555 1_555
C22_3 C19_3 1_555 1_555
C23_3 H15_3 1_555 1_555
C24_3 C23_3 1_555 1_555
H16_3 C24_3 1_555 1_555
C25_3 C24_3 1_555 1_555
H17_3 C25_3 1_555 1_555
C26_3 C25_3 1_555 1_555
H18_3 C26_3 1_555 1_555
C27_3 C26_3 1_555 1_555
C28_3 C27_3 1_555 1_555
C29_3 C28_3 1_555 1_555
H19_3 C29_3 1_555 1_555
C30_3 C29_3 1_555 1_555
H20_3 C30_3 1_555 1_555
C31_3 C30_3 1_555 1_555
H21_3 C31_3 1_555 1_555
C32_3 C31_3 1_555 1_555
H22_3 C32_3 1_555 1_555
N1_3 Cd2_3 1_555 1_555
N2_3 Cd2_3 1_555 1_555
Cd5_2 O4_2 1_555 1_555
Cd4_2 O5_3 1_555 1_555
O11_2 Cd1_2 1_555 1_555
O12_2 Cd1_2 1_555 1_555
O13_3 Cd1_2 1_555 1_555
O14_3 Cd1_2 1_555 1_555
O15_3 Cd1_2 1_555 1_555
O16_3 Cd2_3 1_555 1_555
Cd2_3 O15_3 1_555 1_555
O7_3 Cd5_2 1_555 1_555
C1_3 C7_3 1_555 1_555
C5_3 C6_3 1_555 1_555
C12_3 C13_3 1_555 1_555
C20_3 C21_3 1_555 1_555
C23_3 N1_3 1_555 1_555
C27_3 N1_3 1_555 1_555
C28_3 N2_3 1_555 1_555
C32_3 N2_3 1_555 1_555
C23_4 H15_4 1_555 1_555
C24_4 C23_4 1_555 1_555
H16_4 C24_4 1_555 1_555
C25_4 C24_4 1_555 1_555
H17_4 C25_4 1_555 1_555
O13_4 Cd3_2 1_555 1_555
O14_4 Cd3_2 1_555 1_555
O15_4 Cd3_2 1_555 1_555
Cd2_4 O2_4 1_555 1_555
O1_4 C7_4 1_555 1_555
O11_2 C15_4 1_555 1_555
O12_2 C15_4 1_555 1_555
O5_4 C22_4 1_555 1_555
O6_4 C22_4 1_555 1_555
O7_4 C14_4 1_555 1_555
O8_4 C14_4 1_555 1_555
O9_4 Cd2_4 1_555 1_555
H1_4 O9_4 1_555 1_555
H2_4 O9_4 1_555 1_555
O10_4 Cd2_4 1_555 1_555
C1_4 C2_4 1_555 1_555
C2_4 H5_4 1_555 1_555
C3_4 C2_4 1_555 1_555
H6_4 C3_4 1_555 1_555
C4_4 C3_4 1_555 1_555
C5_4 C4_4 1_555 1_555
H7_4 C5_4 1_555 1_555
C6_4 C1_4 1_555 1_555
H8_4 C6_4 1_555 1_555
C7_4 O2_4 1_555 1_555
C8_4 C4_4 1_555 1_555
C9_4 C8_4 1_555 1_555
C10_4 C9_4 1_555 1_555
H9_4 C10_4 1_555 1_555
C11_4 C10_4 1_555 1_555
C12_4 C11_4 1_555 1_555
C13_4 C8_4 1_555 1_555
H10_4 C13_4 1_555 1_555
C14_4 C11_4 1_555 1_555
C15_4 C12_4 1_555 1_555
C16_4 C9_4 1_555 1_555
C17_4 C16_4 1_555 1_555
H11_4 C17_4 1_555 1_555
C18_4 C17_4 1_555 1_555
H12_4 C18_4 1_555 1_555
C19_4 C18_4 1_555 1_555
C20_4 C19_4 1_555 1_555
H13_4 C20_4 1_555 1_555
C21_4 C16_4 1_555 1_555
H14_4 C21_4 1_555 1_555
C22_4 C19_4 1_555 1_555
H18_4 C26_4 1_555 1_555
C27_4 C26_4 1_555 1_555
C28_4 C27_4 1_555 1_555
C29_4 C28_4 1_555 1_555
H19_4 C29_4 1_555 1_555
C30_4 C29_4 1_555 1_555
H20_4 C30_4 1_555 1_555
C31_4 C30_4 1_555 1_555
H21_4 C31_4 1_555 1_555
C32_4 C31_4 1_555 1_555
H22_4 C32_4 1_555 1_555
N1_4 Cd2_4 1_555 1_555
N2_4 Cd2_4 1_555 1_555
Cd5 O12_2 1_555 1_555
Cd4 O5_4 1_555 1_555
Cd6_4 O7_4 1_555 1_555
O7_4 Cd5 1_555 1_555
O8_4 Cd6_4 1_555 1_555
C1_4 C7_4 1_555 1_555
C5_4 C6_4 1_555 1_555
C12_4 C13_4 1_555 1_555
C20_4 C21_4 1_555 1_555
C27_4 N1_4 1_555 1_555
C28_4 N2_4 1_555 1_555
C32_4 N2_4 1_555 1_555
Cd4_2 O1_5 1_555 1_555
O1_5 C7_5 1_555 1_555
O3_3 C15_5 1_555 1_555
O14_3 C22_5 1_555 1_555
O6_5 C22_5 1_555 1_555
O15_2 C14_5 1_555 1_555
O16_2 C14_5 1_555 1_555
C1_5 C2_5 1_555 1_555
C2_5 H5_5 1_555 1_555
C3_5 C2_5 1_555 1_555
H6_5 C3_5 1_555 1_555
C4_5 C3_5 1_555 1_555
C5_5 C4_5 1_555 1_555
C6_5 C1_5 1_555 1_555
C8_5 C4_5 1_555 1_555
C9_5 C8_5 1_555 1_555
C10_5 C9_5 1_555 1_555
H9_5 C10_5 1_555 1_555
C11_5 C10_5 1_555 1_555
C12_5 C11_5 1_555 1_555
C13_5 C8_5 1_555 1_555
H10_5 C13_5 1_555 1_555
C14_5 C11_5 1_555 1_555
C15_5 C12_5 1_555 1_555
C16_5 C9_5 1_555 1_555
C17_5 C16_5 1_555 1_555
H11_5 C17_5 1_555 1_555
C18_5 C17_5 1_555 1_555
H12_5 C18_5 1_555 1_555
C19_5 C18_5 1_555 1_555
C20_5 C19_5 1_555 1_555
H13_5 C20_5 1_555 1_555
C21_5 C16_5 1_555 1_555
C22_5 C19_5 1_555 1_555
H16_5 C24_5 1_555 1_555
C25_5 C24_5 1_555 1_555
H17_5 C25_5 1_555 1_555
C1_5 C7_5 1_555 1_555
C5_5 C6_5 1_555 1_555
C12_5 C13_5 1_555 1_555
C20_5 C21_5 1_555 1_555
Cd6_2 O2_5 1_555 1_555
O9_5 Cd6_2 1_555 1_555
H1_5 O9_5 1_555 1_555
H2_5 O9_5 1_555 1_555
O10_5 Cd6_2 1_555 1_555
H3_3 O10_5 1_555 1_555
H4_3 O10_5 1_555 1_555
C23_5 H15_5 1_555 1_555
H18_5 C26_5 1_555 1_555
C27_5 C26_5 1_555 1_555
C28_5 C27_5 1_555 1_555
C29_5 C28_5 1_555 1_555
H19_5 C29_5 1_555 1_555
C30_5 C29_5 1_555 1_555
H20_5 C30_5 1_555 1_555
C31_5 C30_5 1_555 1_555
H21_5 C31_5 1_555 1_555
C32_5 C31_5 1_555 1_555
H22_5 C32_5 1_555 1_555
N1_5 Cd6_2 1_555 1_555
N2_5 Cd6_2 1_555 1_555
C23_5 N1_5 1_555 1_555
C27_5 N1_5 1_555 1_555
C28_5 N2_5 1_555 1_555
C32_5 N2_5 1_555 1_555
O1_6 C7_6 1_555 1_555
O11_3 C15_6 1_555 1_555
O14_4 C22_6 1_555 1_555
O6_6 C22_6 1_555 1_555
O15 C14_6 1_555 1_555
O16 C14_6 1_555 1_555
C1_6 C2_6 1_555 1_555
C2_6 H5_6 1_555 1_555
C3_6 C2_6 1_555 1_555
H6_6 C3_6 1_555 1_555
C4_6 C3_6 1_555 1_555
C5_6 C4_6 1_555 1_555
C6_6 C1_6 1_555 1_555
C8_6 C4_6 1_555 1_555
C9_6 C8_6 1_555 1_555
C10_6 C9_6 1_555 1_555
H9_6 C10_6 1_555 1_555
C11_6 C10_6 1_555 1_555
C12_6 C11_6 1_555 1_555
C13_6 C8_6 1_555 1_555
H10_6 C13_6 1_555 1_555
C14_6 C11_6 1_555 1_555
C15_6 C12_6 1_555 1_555
C16_6 C9_6 1_555 1_555
C17_6 C16_6 1_555 1_555
H11_6 C17_6 1_555 1_555
C18_6 C17_6 1_555 1_555
H12_6 C18_6 1_555 1_555
C19_6 C18_6 1_555 1_555
C20_6 C19_6 1_555 1_555
H13_6 C20_6 1_555 1_555
C21_6 C16_6 1_555 1_555
C22_6 C19_6 1_555 1_555
C1_6 C7_6 1_555 1_555
C5_6 C6_6 1_555 1_555
C12_6 C13_6 1_555 1_555
C20_6 C21_6 1_555 1_555
H16_6 C24_6 1_555 1_555
C25_6 C24_6 1_555 1_555
H17_6 C25_6 1_555 1_555
Cd6 O2_6 1_555 1_555
O9_6 Cd6 1_555 1_555
H1_6 O9_6 1_555 1_555
H2_6 O9_6 1_555 1_555
O10_6 Cd6 1_555 1_555
H3_4 O10_6 1_555 1_555
H4_4 O10_6 1_555 1_555
H18_6 C26_6 1_555 1_555
C27_6 C26_6 1_555 1_555
C28_6 C27_6 1_555 1_555
C29_6 C28_6 1_555 1_555
H19_6 C29_6 1_555 1_555
C30_6 C29_6 1_555 1_555
H20_6 C30_6 1_555 1_555
C31_6 C30_6 1_555 1_555
H21_6 C31_6 1_555 1_555
C32_6 C31_6 1_555 1_555
H22_6 C32_6 1_555 1_555
N1_6 Cd6 1_555 1_555
N2_6 Cd6 1_555 1_555
C27_6 N1_6 1_555 1_555
C28_6 N2_6 1_555 1_555
C32_6 N2_6 1_555 1_555
C23_6 H15_6 1_555 1_555
Cd5 O1_7 1_555 1_555
Cd6_4 O2_7 1_555 1_555
O1_7 C7_7 1_555 1_555
O2_7 Cd5 1_555 1_555
O3_4 C15_7 1_555 1_555
O13_4 C15_7 1_555 1_555
O14 C22_7 1_555 1_555
O6_7 C22_7 1_555 1_555
O15_4 C14_7 1_555 1_555
O16_4 C14_7 1_555 1_555
O9_7 Cd6_4 1_555 1_555
H1_7 O9_7 1_555 1_555
H2_7 O9_7 1_555 1_555
O10_7 Cd6_4 1_555 1_555
C1_7 C2_7 1_555 1_555
C2_7 H5_7 1_555 1_555
C3_7 C2_7 1_555 1_555
H6_7 C3_7 1_555 1_555
C4_7 C3_7 1_555 1_555
C5_7 C4_7 1_555 1_555
H7_7 C5_7 1_555 1_555
C6_7 C1_7 1_555 1_555
H8_7 C6_7 1_555 1_555
C7_7 O2_7 1_555 1_555
C8_7 C4_7 1_555 1_555
C9_7 C8_7 1_555 1_555
C10_7 C9_7 1_555 1_555
H9_7 C10_7 1_555 1_555
C11_7 C10_7 1_555 1_555
C12_7 C11_7 1_555 1_555
C13_7 C8_7 1_555 1_555
H10_7 C13_7 1_555 1_555
C14_7 C11_7 1_555 1_555
C15_7 C12_7 1_555 1_555
C16_7 C9_7 1_555 1_555
C17_7 C16_7 1_555 1_555
H11_7 C17_7 1_555 1_555
C18_7 C17_7 1_555 1_555
H12_7 C18_7 1_555 1_555
C19_7 C18_7 1_555 1_555
C20_7 C19_7 1_555 1_555
H13_7 C20_7 1_555 1_555
C21_7 C16_7 1_555 1_555
H14_7 C21_7 1_555 1_555
C22_7 C19_7 1_555 1_555
C23_7 H15_7 1_555 1_555
C24_7 C23_7 1_555 1_555
H16_7 C24_7 1_555 1_555
C25_7 C24_7 1_555 1_555
H17_7 C25_7 1_555 1_555
C26_7 C25_7 1_555 1_555
H18_7 C26_7 1_555 1_555
C27_7 C26_7 1_555 1_555
C28_7 C27_7 1_555 1_555
C29_7 C28_7 1_555 1_555
H19_7 C29_7 1_555 1_555
C30_7 C29_7 1_555 1_555
H20_7 C30_7 1_555 1_555
C31_7 C30_7 1_555 1_555
H21_7 C31_7 1_555 1_555
C32_7 C31_7 1_555 1_555
H22_7 C32_7 1_555 1_555
N1_7 Cd6_4 1_555 1_555
N2_7 Cd6_4 1_555 1_555
O11_4 Cd5 1_555 1_555
O13_3 Cd5 1_555 1_555
C1_7 C7_7 1_555 1_555
C5_7 C6_7 1_555 1_555
C12_7 C13_7 1_555 1_555
C20_7 C21_7 1_555 1_555
C23_7 N1_7 1_555 1_555
C27_7 N1_7 1_555 1_555
C28_7 N2_7 1_555 1_555
C32_7 N2_7 1_555 1_555
Cd6_3 O2_8 1_555 1_555
O1_8 C7_8 1_555 1_555
O11_4 C15_8 1_555 1_555
O13_3 C15_8 1_555 1_555
O14_2 C22_8 1_555 1_555
O6_8 C22_8 1_555 1_555
O15_3 C14_8 1_555 1_555
O16_3 C14_8 1_555 1_555
O9_8 Cd6_3 1_555 1_555
H1_8 O9_8 1_555 1_555
H2_8 O9_8 1_555 1_555
O10_8 Cd6_3 1_555 1_555
C1_8 C2_8 1_555 1_555
C2_8 H5_8 1_555 1_555
C3_8 C2_8 1_555 1_555
H6_8 C3_8 1_555 1_555
C4_8 C3_8 1_555 1_555
C5_8 C4_8 1_555 1_555
H7_8 C5_8 1_555 1_555
C6_8 C1_8 1_555 1_555
H8_8 C6_8 1_555 1_555
C7_8 O2_8 1_555 1_555
C8_8 C4_8 1_555 1_555
C9_8 C8_8 1_555 1_555
C10_8 C9_8 1_555 1_555
H9_8 C10_8 1_555 1_555
C11_8 C10_8 1_555 1_555
C12_8 C11_8 1_555 1_555
C13_8 C8_8 1_555 1_555
H10_8 C13_8 1_555 1_555
C14_8 C11_8 1_555 1_555
C15_8 C12_8 1_555 1_555
C16_8 C9_8 1_555 1_555
C17_8 C16_8 1_555 1_555
H11_8 C17_8 1_555 1_555
C18_8 C17_8 1_555 1_555
H12_8 C18_8 1_555 1_555
C19_8 C18_8 1_555 1_555
C20_8 C19_8 1_555 1_555
H13_8 C20_8 1_555 1_555
C21_8 C16_8 1_555 1_555
H14_8 C21_8 1_555 1_555
C22_8 C19_8 1_555 1_555
H18_8 C26_8 1_555 1_555
C27_8 C26_8 1_555 1_555
C28_8 C27_8 1_555 1_555
C29_8 C28_8 1_555 1_555
H19_8 C29_8 1_555 1_555
C30_8 C29_8 1_555 1_555
H20_8 C30_8 1_555 1_555
C31_8 C30_8 1_555 1_555
H21_8 C31_8 1_555 1_555
C32_8 C31_8 1_555 1_555
H22_8 C32_8 1_555 1_555
N1_8 Cd6_3 1_555 1_555
N2_8 Cd6_3 1_555 1_555
C1_8 C7_8 1_555 1_555
C5_8 C6_8 1_555 1_555
C12_8 C13_8 1_555 1_555
C20_8 C21_8 1_555 1_555
C27_8 N1_8 1_555 1_555
C28_8 N2_8 1_555 1_555
C32_8 N2_8 1_555 1_555
C23_8 H15_8 1_555 1_555
C24_8 C23_8 1_555 1_555
H16_8 C24_8 1_555 1_555
C25_8 C24_8 1_555 1_555
H17_8 C25_8 1_555 1_555

#END
