
###############################################################################
#
# This file contains modified crystal structure data generated from the
# MOF subset of the Cambridge Structural Database (CSD) v543 
# hosted by the Cambridge Crystallographic Data Centre (CCDC).
#
# This work is licensed under the Creative Commons
# Attribution-NonCommercial-ShareAlike 4.0 International License.
# To view a copy of this license, visit
# http://creativecommons.org/licenses/by-nc-sa/4.0/
# or send a letter to
# Creative Commons, PO Box 1866, Mountain View, CA 94042, USA.
#
# CIF created using the CSD Python API on 29 September 2022
# The structure has been converted into the P1 space group
# The structure has a 3D framework
# The original CSD entry LODPOL is in the monoclinic crystal system
# The framework has been calculated to contain at least 10.0% void space
# The void calculation uses a probe of radius 1.32A, grid spacing 0.4
#
###############################################################################

data_LODPOL
_chemical_formula_moiety         '(C80 H56 N16 O16 Zn4)n'
_symmetry_cell_setting           triclinic
_symmetry_space_group_name_H-M   'P 1'
_symmetry_Int_Tables_number      1
_space_group_name_Hall           'P 1'
loop_
_symmetry_equiv_pos_site_id
_symmetry_equiv_pos_as_xyz
1 x,y,z
_cell_length_a                   11.608(3)
_cell_length_b                   15.781(4)
_cell_length_c                   14.682(4)
_cell_angle_alpha                90
_cell_angle_beta                 90.824(18)
_cell_angle_gamma                90
_cell_volume                     2689.26
loop_
_atom_site_label
_atom_site_type_symbol
_atom_site_fract_x
_atom_site_fract_y
_atom_site_fract_z
N4 N 0.0334(5) 0.1728(4) 0.1802(4)
H11 H 0.1025 0.1812 0.1619
H12 H 0.0110 0.2622 0.2780
C20 C 0.0731(6) 0.0679(4) 0.0147(5)
H14 H 0.1217 0.1143 0.0225
O7 O 0.1842(3) 0.64516(17) 0.63029(19)
O8 O 0.1061(4) 0.7166(2) 0.5209(3)
C31 C 0.1191(4) 0.6503(3) 0.5621(3)
C32 C 0.0604(4) 0.5722(3) 0.5299(3)
C33 C 0.0365(7) 0.5074(4) 0.5863(4)
H22 H 0.0633 0.5099 0.6463
C34 C 0.0263(7) 0.5627(4) 0.4415(4)
H23 H 0.0455 0.6040 0.3991
Zn5 Zn 0.24713(4) 0.75495(3) 0.66925(3)
N7 N 0.1236(4) 0.8095(2) 0.7404(2)
C35 C 0.1389(5) 0.8752(3) 0.8040(3)
H24 H 0.2065 0.9060 0.8124
C36 C 0.0408(6) 0.8872(4) 0.8512(4)
C37 C 0.0221(7) 0.7829(4) 0.7538(5)
C38 C 0.0156(6) 0.9440(4) 0.9269(4)
C5 C 0.4470(5) 0.4241(3) 0.9951(3)
H4 H 0.4092 0.3723 0.9909
N5 N 0.3572(3) 0.7120(2) 0.7660(2)
C21 C 0.4268(5) 0.7582(3) 0.8146(4)
H15 H 0.4423 0.8150 0.8032
N6 N 0.4734(4) 0.7140(2) 0.8832(3)
H16 H 0.5202 0.7334 0.9240
C22 C 0.4340(4) 0.6325(3) 0.8774(3)
C23 C 0.3614(4) 0.6313(3) 0.8050(3)
H17 H 0.3206 0.5842 0.7842
C24 C 0.4703(4) 0.5653(3) 0.9388(3)
C26 C 0.4176(5) 0.4869(3) 0.9348(3)
H19 H 0.3612 0.4766 0.8905
C9 C 0.5242(5) 0.9776(4) 0.4136(4)
H6 H 0.5398 0.9617 0.3541
C19 C 0.9081(6) 0.9875(4) 0.0555(4)
H13 H 0.8443 0.9800 0.0923
O5 O 0.3533(3) 0.9095(2) 0.6961(2)
O6 O 0.3285(3) 0.8202(2) 0.5796(2)
C27 C 0.3688(4) 0.8890(4) 0.6158(4)
C28 C 0.4376(4) 0.9470(3) 0.5550(4)
C30 C 0.4634(5) 0.9244(4) 0.4673(4)
H21 H 0.4390 0.8723 0.4446
C39 C 0.0919(6) 0.0125(4) 0.9445(4)
H27 H 0.1557 0.0200 0.9077
Zn1 Zn 0.75287(4) 0.24505(3) 0.33075(3)
N1 N 0.6428(3) 0.2880(2) 0.2340(2)
C1 C 0.5732(5) 0.2418(3) 0.1854(4)
H1 H 0.5577 0.1850 0.1968
N2 N 0.5266(4) 0.2860(2) 0.1168(3)
H2 H 0.4798 0.2666 0.0760
C2 C 0.5660(4) 0.3675(3) 0.1226(3)
C3 C 0.6386(4) 0.3687(3) 0.1950(3)
H3 H 0.6794 0.4158 0.2158
C4 C 0.5297(4) 0.4347(3) 0.0612(3)
C6 C 0.5824(5) 0.5131(3) 0.0652(3)
H5 H 0.6388 0.5234 0.1095
O1 O 0.6467(3) 0.0905(2) 0.3039(2)
O2 O 0.6715(3) 0.1798(2) 0.4204(2)
C7 C 0.6312(4) 0.1110(4) 0.3842(4)
C8 C 0.5624(4) 0.0530(3) 0.4450(4)
C10 C 0.5366(5) 0.0756(4) 0.5327(4)
H7 H 0.5610 0.1277 0.5554
O3 O 0.8158(3) 0.35484(17) 0.36971(19)
O4 O 0.8939(4) 0.2834(2) 0.4791(3)
C11 C 0.8809(4) 0.3497(3) 0.4379(3)
C12 C 0.9396(4) 0.4278(3) 0.4701(3)
C13 C 0.9635(7) 0.4926(4) 0.4137(4)
H8 H 0.9367 0.4901 0.3537
C14 C 0.9737(7) 0.4373(4) 0.5585(4)
H9 H 0.9545 0.3960 0.6009
N3 N 0.8764(4) 0.1905(2) 0.2596(2)
C15 C 0.8611(5) 0.1248(3) 0.1960(3)
H10 H 0.7935 0.0940 0.1876
C16 C 0.9592(6) 0.1128(4) 0.1488(4)
C17 C 0.9779(7) 0.2171(4) 0.2462(5)
C18 C 0.9844(6) 0.0560(4) 0.0731(4)
C25 C 0.5530(5) 0.5759(3) 0.0049(3)
H18 H 0.5908 0.6277 0.0091
C29 C 0.4758(5) 0.0224(4) 0.5864(4)
H20 H 0.4602 0.0383 0.6459
N8 N 0.9666(5) 0.8272(4) 0.8198(4)
H25 H 0.8975 0.8188 0.8381
H26 H 0.9890 0.7378 0.7220
C40 C 0.9269(6) 0.9321(4) 0.9853(5)
H28 H 0.8783 0.8857 0.9775
N5_2 N 0.1428(3) 0.2120(2) 0.7340(2)
C21_2 C 0.0732(5) 0.2582(3) 0.6854(4)
H15_2 H 0.0577 0.3150 0.6968
N6_2 N 0.0266(4) 0.2140(2) 0.6168(3)
C22_2 C 0.0660(4) 0.1325(3) 0.6226(3)
C23_2 C 0.1386(4) 0.1313(3) 0.6950(3)
H17_2 H 0.1794 0.0842 0.7158
C24_2 C 0.0297(4) 0.0653(3) 0.5612(3)
Zn3 Zn 0.25287(4) 0.25495(3) 0.83075(3)
O5_2 O 0.1467(3) 0.4095(2) 0.8039(2)
O6_2 O 0.1715(3) 0.3202(2) 0.9204(2)
C27_2 C 0.1312(4) 0.3890(4) 0.8842(4)
C28_2 C 0.0624(4) 0.4470(3) 0.9450(4)
C29_2 C 0.0242(5) 0.5224(4) 0.9136(4)
H20_2 H 0.0398 0.5383 0.8541
O9 O 0.3158(3) 0.14516(17) 0.86971(19)
N10 N 0.3764(4) 0.3095(2) 0.7596(2)
O8_2 O 0.3939(4) 0.2166(2) 0.9791(3)
C31_2 C 0.3809(4) 0.1503(3) 0.9379(3)
C32_2 C 0.4396(4) 0.0722(3) 0.9701(3)
C33_2 C 0.4635(7) 0.0074(4) 0.9137(4)
H22_2 H 0.4367 0.0099 0.8537
Zn1_2 Zn 0.74713(4) 0.74505(3) 0.16925(3)
N1_2 N 0.8572(3) 0.7880(2) 0.2660(2)
C1_2 C 0.9268(5) 0.7418(3) 0.3146(4)
H1_2 H 0.9423 0.6850 0.3032
N2_2 N 0.9734(4) 0.7860(2) 0.3832(3)
C2_2 C 0.9340(4) 0.8675(3) 0.3774(3)
C3_2 C 0.8614(4) 0.8687(3) 0.3050(3)
H3_2 H 0.8206 0.9158 0.2842
C4_2 C 0.9703(4) 0.9347(3) 0.4388(3)
O1_2 O 0.8533(3) 0.5905(2) 0.1961(2)
O2_2 O 0.8285(3) 0.6798(2) 0.0796(2)
C7_2 C 0.8688(4) 0.6110(4) 0.1158(4)
C8_2 C 0.9376(4) 0.5530(3) 0.0550(4)
C9_2 C 0.9758(5) 0.4776(4) 0.0864(4)
H6_2 H 0.9602 0.4617 0.1459
O3_2 O 0.6842(3) 0.85484(17) 0.13029(19)
O4_2 O 0.6061(4) 0.7834(2) 0.0209(3)
C11_2 C 0.6191(4) 0.8497(3) 0.0621(3)
C12_2 C 0.5604(4) 0.9278(3) 0.0299(3)
C13_2 C 0.5365(7) 0.9926(4) 0.0863(4)
H8_2 H 0.5633 0.9901 0.1463
N3_2 N 0.6236(4) 0.6905(2) 0.2404(2)
C15_2 C 0.6389(5) 0.6248(3) 0.3040(3)
H10_2 H 0.7065 0.5940 0.3124
C16_2 C 0.5408(6) 0.6128(4) 0.3512(4)
N4_2 N 0.4666(5) 0.6728(4) 0.3198(4)
H11_2 H 0.3975 0.6812 0.3381
C17_2 C 0.5221(7) 0.7171(4) 0.2538(5)
H12_2 H 0.4890 0.7622 0.2220
C18_2 C 0.5156(6) 0.5560(4) 0.4269(4)
C19_2 C 0.5919(6) 0.4875(4) 0.4445(4)
H13_2 H 0.6557 0.4800 0.4077
C20_2 C 0.4269(6) 0.5679(4) 0.4853(5)
H14_2 H 0.3783 0.6143 0.4775
C35_2 C 0.3611(5) 0.3752(3) 0.6960(3)
H24_2 H 0.2935 0.4060 0.6876
C36_2 C 0.4592(6) 0.3872(4) 0.6488(4)
N8_2 N 0.5334(5) 0.3272(4) 0.6802(4)
H25_2 H 0.6025 0.3188 0.6619
C37_2 C 0.4779(7) 0.2829(4) 0.7462(5)
H26_2 H 0.5110 0.2378 0.7780
C38_2 C 0.4844(6) 0.4440(4) 0.5731(4)
C39_2 C 0.4081(6) 0.5125(4) 0.5555(4)
H27_2 H 0.3443 0.5200 0.5923
C40_2 C 0.5731(6) 0.4321(4) 0.5147(5)
H28_2 H 0.6217 0.3857 0.5225
H2_2 H 0.0202 0.7666 0.4240
C5_2 C 0.0530(5) 0.9241(3) 0.5049(3)
H4_2 H 0.0908 0.8723 0.5091
C26_2 C 0.0824(5) 0.9869(3) 0.5652(3)
H19_2 H 0.1388 0.9766 0.6095
C30_2 C 0.0366(5) 0.4244(4) 0.0327(4)
H21_2 H 0.0610 0.3723 0.0554
C6_2 C 0.9176(5) 0.0131(3) 0.4348(3)
H5_2 H 0.8612 0.0234 0.3905
H16_2 H 0.9798 0.2334 0.5760
C25_2 C 0.9470(5) 0.0759(3) 0.4951(3)
H18_2 H 0.9092 0.1277 0.4909
C34_2 C 0.4737(7) 0.0627(4) 0.0585(4)
H23_2 H 0.4545 0.1040 0.1009
C10_2 C 0.9634(5) 0.5756(4) 0.9673(4)
H7_2 H 0.9390 0.6277 0.9446
C14_2 C 0.5263(7) 0.9373(4) 0.9415(4)
H9_2 H 0.5455 0.8960 0.8991
loop_
_geom_bond_atom_site_label_1
_geom_bond_atom_site_label_2
_geom_bond_site_symmetry_1
_geom_bond_site_symmetry_2
H11 N4 1_555 1_555
H14 C20 1_555 1_555
O7 C31 1_555 1_555
O8 C31 1_555 1_555
C31 C32 1_555 1_555
C32 C33 1_555 1_555
H22 C33 1_555 1_555
H23 C34 1_555 1_555
Zn5 O7 1_555 1_555
C32 C34 1_555 1_555
N7 C35 1_555 1_555
C35 H24 1_555 1_555
C36 C35 1_555 1_555
C37 N7 1_555 1_555
C38 C36 1_555 1_555
Zn5 N7 1_555 1_555
H4 C5 1_555 1_555
N5 C21 1_555 1_555
C21 H15 1_555 1_555
N6 C21 1_555 1_555
H16 N6 1_555 1_555
C22 N6 1_555 1_555
C23 N5 1_555 1_555
H17 C23 1_555 1_555
C24 C22 1_555 1_555
C26 C5 1_555 1_555
H19 C26 1_555 1_555
Zn5 N5 1_555 1_555
C22 C23 1_555 1_555
C24 C26 1_555 1_555
H6 C9 1_555 1_555
H13 C19 1_555 1_555
O5 C27 1_555 1_555
O6 C27 1_555 1_555
C27 C28 1_555 1_555
C30 C9 1_555 1_555
H21 C30 1_555 1_555
Zn5 O6 1_555 1_555
C28 C30 1_555 1_555
H27 C39 1_555 1_555
Zn1 N1 1_555 1_555
N1 C1 1_555 1_555
C1 H1 1_555 1_555
N2 C1 1_555 1_555
H2 N2 1_555 1_555
C2 N2 1_555 1_555
C3 N1 1_555 1_555
H3 C3 1_555 1_555
C4 C2 1_555 1_555
C6 C4 1_555 1_555
H5 C6 1_555 1_555
O1 C7 1_555 1_555
O2 Zn1 1_555 1_555
C7 O2 1_555 1_555
C8 C7 1_555 1_555
C10 C8 1_555 1_555
H7 C10 1_555 1_555
O3 Zn1 1_555 1_555
O4 C11 1_555 1_555
C11 O3 1_555 1_555
C12 C11 1_555 1_555
C13 C12 1_555 1_555
H8 C13 1_555 1_555
C14 C12 1_555 1_555
H9 C14 1_555 1_555
N3 Zn1 1_555 1_555
C15 N3 1_555 1_555
H10 C15 1_555 1_555
C16 C15 1_555 1_555
C17 N3 1_555 1_555
C18 C16 1_555 1_555
C25 C6 1_555 1_555
H18 C25 1_555 1_555
C29 C10 1_555 1_555
H20 C29 1_555 1_555
C2 C3 1_555 1_555
H25 N8 1_555 1_555
H28 C40 1_555 1_555
N5_2 C21_2 1_555 1_555
C21_2 H15_2 1_555 1_555
N6_2 C21_2 1_555 1_555
C22_2 N6_2 1_555 1_555
C23_2 N5_2 1_555 1_555
H17_2 C23_2 1_555 1_555
C24_2 C22_2 1_555 1_555
Zn3 N5_2 1_555 1_555
C22_2 C23_2 1_555 1_555
O5_2 C27_2 1_555 1_555
O6_2 C27_2 1_555 1_555
C27_2 C28_2 1_555 1_555
C28_2 C29_2 1_555 1_555
H20_2 C29_2 1_555 1_555
Zn3 O6_2 1_555 1_555
O9 Zn3 1_555 1_555
N10 Zn3 1_555 1_555
O9 C31_2 1_555 1_555
O8_2 C31_2 1_555 1_555
C31_2 C32_2 1_555 1_555
C32_2 C33_2 1_555 1_555
H22_2 C33_2 1_555 1_555
Zn1_2 N1_2 1_555 1_555
N1_2 C1_2 1_555 1_555
C1_2 H1_2 1_555 1_555
N2_2 C1_2 1_555 1_555
C2_2 N2_2 1_555 1_555
C3_2 N1_2 1_555 1_555
H3_2 C3_2 1_555 1_555
C4_2 C2_2 1_555 1_555
O1_2 C7_2 1_555 1_555
O2_2 Zn1_2 1_555 1_555
C7_2 O2_2 1_555 1_555
C8_2 C7_2 1_555 1_555
C9_2 C8_2 1_555 1_555
H6_2 C9_2 1_555 1_555
O3_2 Zn1_2 1_555 1_555
O4_2 C11_2 1_555 1_555
C11_2 O3_2 1_555 1_555
C12_2 C11_2 1_555 1_555
C13_2 C12_2 1_555 1_555
H8_2 C13_2 1_555 1_555
N3_2 Zn1_2 1_555 1_555
C15_2 N3_2 1_555 1_555
H10_2 C15_2 1_555 1_555
C16_2 C15_2 1_555 1_555
N4_2 C16_2 1_555 1_555
H11_2 N4_2 1_555 1_555
C17_2 N3_2 1_555 1_555
H12_2 C17_2 1_555 1_555
C18_2 C16_2 1_555 1_555
C19_2 C18_2 1_555 1_555
H13_2 C19_2 1_555 1_555
C20_2 C18_2 1_555 1_555
H14_2 C20_2 1_555 1_555
N10 C35_2 1_555 1_555
C35_2 H24_2 1_555 1_555
C36_2 C35_2 1_555 1_555
N8_2 C36_2 1_555 1_555
H25_2 N8_2 1_555 1_555
C37_2 N10 1_555 1_555
H26_2 C37_2 1_555 1_555
C38_2 C36_2 1_555 1_555
C39_2 C20_2 1_555 1_555
H27_2 C39_2 1_555 1_555
C40_2 C19_2 1_555 1_555
H28_2 C40_2 1_555 1_555
C2_2 C3_2 1_555 1_555
N4_2 C17_2 1_555 1_555
N8_2 C37_2 1_555 1_555
C38_2 C39_2 1_555 1_555
C38_2 C40_2 1_555 1_555
H4_2 C5_2 1_555 1_555
C26_2 C5_2 1_555 1_555
H19_2 C26_2 1_555 1_555
H21_2 C30_2 1_555 1_555
H5_2 C6_2 1_555 1_555
C25_2 C6_2 1_555 1_555
H18_2 C25_2 1_555 1_555
H23_2 C34_2 1_555 1_555
H7_2 C10_2 1_555 1_555
H9_2 C14_2 1_555 1_555

#END
