
###############################################################################
#
# This file contains modified crystal structure data generated from the
# MOF subset of the Cambridge Structural Database (CSD) v543 
# hosted by the Cambridge Crystallographic Data Centre (CCDC).
#
# This work is licensed under the Creative Commons
# Attribution-NonCommercial-ShareAlike 4.0 International License.
# To view a copy of this license, visit
# http://creativecommons.org/licenses/by-nc-sa/4.0/
# or send a letter to
# Creative Commons, PO Box 1866, Mountain View, CA 94042, USA.
#
# CIF created using the CSD Python API on 29 September 2022
# The structure has been converted into the P1 space group
# The structure has a 3D framework
# The original CSD entry LODPUR is in the triclinic crystal system
# The framework has been calculated to contain at least 10.0% void space
# The void calculation uses a probe of radius 1.32A, grid spacing 0.4
#
###############################################################################

data_LODPUR
_chemical_formula_moiety         '(C44 H32 N12 O4 Zn2)n'
_symmetry_cell_setting           triclinic
_symmetry_space_group_name_H-M   'P 1'
_symmetry_Int_Tables_number      1
_space_group_name_Hall           'P 1'
loop_
_symmetry_equiv_pos_site_id
_symmetry_equiv_pos_as_xyz
1 x,y,z
_cell_length_a                   7.8005(2)
_cell_length_b                   11.2947(3)
_cell_length_c                   13.1552(4)
_cell_angle_alpha                82.719(2)
_cell_angle_beta                 80.499(2)
_cell_angle_gamma                83.194(2)
_cell_volume                     1128.26
loop_
_atom_site_label
_atom_site_type_symbol
_atom_site_fract_x
_atom_site_fract_y
_atom_site_fract_z
_atom_site_U_iso_or_equiv
_atom_site_thermal_displace_type
C33 C 0.1135(5) 0.3072(3) 0.4713(3) 0.0412 Uani
H23 H 0.2110 0.2776 0.5022 0.0500 Uiso
N9 N 0.1062(4) 0.3084(3) 0.3718(2) 0.0368 Uani
Zn5 Zn 0.28362(5) 0.23530(4) 0.26422(3) 0.0336 Uani
O3 O 0.3742(3) 0.1187(2) 0.0747(2) 0.0486 Uani
O4 O 0.1433(3) 0.1510(2) 0.19466(18) 0.0413 Uani
C23 C 0.2195(5) 0.1100(3) 0.1103(3) 0.0369 Uani
C24 C 0.1049(4) 0.0515(3) 0.0548(3) 0.0353 Uani
C6 C 0.9922(5) 0.0481(4) 0.5925(3) 0.0446 Uani
H4 H 0.9866 0.0808 0.6545 0.0530 Uiso
C27 C 0.5241(5) 0.0146(3) 0.2881(3) 0.0412 Uani
C28 C 0.5812(4) 0.1390(3) 0.3857(3) 0.0407 Uani
H20 H 0.5744 0.2067 0.4203 0.0490 Uiso
C29 C 0.7061(4) 0.0445(3) 0.3909(3) 0.0375 Uani
C30 C 0.8571(4) 0.0218(3) 0.4462(3) 0.0393 Uani
C31 C 0.8522(5) 0.0686(4) 0.5395(3) 0.0441 Uani
H21 H 0.7522 0.1146 0.5665 0.0530 Uiso
N7 N 0.4664(4) 0.1199(3) 0.3220(2) 0.0383 Uani
C39 C 0.3879(4) 0.4817(3) 0.1818(3) 0.0361 Uani
H28 H 0.2822 0.5208 0.2097 0.0440 Uiso
C40 C 0.5917(4) 0.3444(3) 0.1373(3) 0.0403 Uani
H29 H 0.6520 0.2694 0.1286 0.0480 Uiso
C41 C 0.6581(4) 0.4515(3) 0.1045(3) 0.0347 Uani
C42 C 0.8316(4) 0.4779(3) 0.0511(3) 0.0346 Uani
C43 C 0.9733(4) 0.3905(3) 0.0564(3) 0.0400 Uani
H30 H 0.9561 0.3164 0.0943 0.0480 Uiso
N11 N 0.4209(4) 0.3643(3) 0.1856(2) 0.0371 Uani
N12 N 0.5249(4) 0.5377(3) 0.1329(2) 0.0364 Uani
H32 H 0.5290 0.6140 0.1214 0.0440 Uiso
C8 C 0.0589(4) 0.6400(3) 0.6410(3) 0.0422 Uani
H6 H 0.1019 0.6268 0.7037 0.0510 Uiso
C9 C 0.1493(4) 0.6112(3) 0.5493(3) 0.0388 Uani
C10 C 0.3285(4) 0.5542(3) 0.5228(3) 0.0378 Uani
C11 C 0.4064(5) 0.4800(4) 0.5977(3) 0.0498 Uani
H7 H 0.3440 0.4652 0.6639 0.0590 Uiso
C12 C 0.4231(5) 0.5730(4) 0.4242(3) 0.0494 Uani
H8 H 0.3723 0.6214 0.3723 0.0590 Uiso
C21 C 0.0737(5) 0.9431(3) 0.9139(3) 0.0413 Uani
H13 H 0.1237 0.9057 0.8554 0.0490 Uiso
N4 N 0.0377(4) 0.6459(3) 0.4778(2) 0.0411 Uani
H15 H 0.0606 0.6389 0.4124 0.0490 Uiso
C26 C 0.1787(5) 0.9927(3) 0.9686(3) 0.0405 Uani
H18 H 0.2991 0.9868 0.9479 0.0490 Uiso
C34 C 0.9411(4) 0.3600(3) 0.3590(3) 0.0422 Uani
H24 H 0.8981 0.3732 0.2963 0.0510 Uiso
C35 C 0.8507(4) 0.3888(3) 0.4507(3) 0.0388 Uani
C36 C 0.6715(4) 0.4458(3) 0.4772(3) 0.0378 Uani
C37 C 0.5936(5) 0.5200(4) 0.4023(3) 0.0498 Uani
H25 H 0.6560 0.5348 0.3361 0.0590 Uiso
C38 C 0.5769(5) 0.4270(4) 0.5758(3) 0.0494 Uani
H26 H 0.6277 0.3786 0.6277 0.0590 Uiso
N10 N 0.9623(4) 0.3541(3) 0.5222(2) 0.0411 Uani
H27 H 0.9394 0.3611 0.5876 0.0490 Uiso
C22 C 0.8213(5) 0.0073(3) 0.0314(3) 0.0405 Uani
H14 H 0.7009 0.0132 0.0521 0.0490 Uiso
C25 C 0.9263(5) 0.0569(3) 0.0861(3) 0.0413 Uani
H17 H 0.8763 0.0943 0.1446 0.0490 Uiso
H1 H 0.5286 0.0209 0.7572 0.0490 Uiso
N2 N 0.3324(4) 0.0345(3) 0.6728(2) 0.0418 Uani
C18 C 0.1388(5) 0.4123(3) 0.0062(3) 0.0397 Uani
H12 H 0.2313 0.3528 0.0108 0.0480 Uiso
Zn1 Zn 0.71638(5) 0.76470(4) 0.73578(3) 0.0336 Uani
O1 O 0.6258(3) 0.8813(2) 0.9253(2) 0.0486 Uani
O2 O 0.8567(3) 0.8490(2) 0.80534(18) 0.0413 Uani
C1 C 0.4759(5) 0.9854(3) 0.7119(3) 0.0412 Uani
C2 C 0.4188(4) 0.8610(3) 0.6143(3) 0.0407 Uani
H2 H 0.4256 0.7933 0.5797 0.0490 Uiso
C3 C 0.2939(4) 0.9555(3) 0.6091(3) 0.0375 Uani
C4 C 0.1429(4) 0.9782(3) 0.5538(3) 0.0393 Uani
C5 C 0.1478(5) 0.9314(4) 0.4605(3) 0.0441 Uani
H3 H 0.2478 0.8854 0.4335 0.0530 Uiso
C7 C 0.8865(5) 0.6928(3) 0.5287(3) 0.0412 Uani
H5 H 0.7890 0.7224 0.4978 0.0500 Uiso
C13 C 0.6121(4) 0.5183(3) 0.8182(3) 0.0361 Uani
H9 H 0.7178 0.4792 0.7903 0.0440 Uiso
C14 C 0.4083(4) 0.6556(3) 0.8627(3) 0.0403 Uani
H10 H 0.3480 0.7306 0.8714 0.0480 Uiso
C15 C 0.3419(4) 0.5485(3) 0.8955(3) 0.0347 Uani
C16 C 0.1684(4) 0.5221(3) 0.9489(3) 0.0346 Uani
C17 C 0.0267(4) 0.6095(3) 0.9436(3) 0.0400 Uani
H11 H 0.0439 0.6836 0.9057 0.0480 Uiso
C19 C 0.7805(5) 0.8900(3) 0.8897(3) 0.0369 Uani
C20 C 0.8951(4) 0.9485(3) 0.9452(3) 0.0353 Uani
N1 N 0.5336(4) 0.8801(3) 0.6780(2) 0.0383 Uani
N3 N 0.8938(4) 0.6916(3) 0.6282(2) 0.0368 Uani
N5 N 0.5791(4) 0.6357(3) 0.8144(2) 0.0371 Uani
N6 N 0.4751(4) 0.4623(3) 0.8671(2) 0.0364 Uani
H16 H 0.4710 0.3860 0.8786 0.0440 Uiso
C32 C 0.0078(5) 0.9519(4) 0.4075(3) 0.0446 Uani
H22 H 0.0134 0.9192 0.3455 0.0530 Uiso
H19 H 0.4714 0.9791 0.2428 0.0490 Uiso
N8 N 0.6676(4) 0.9655(3) 0.3272(2) 0.0418 Uani
C44 C 0.8612(5) 0.5877(3) 0.9938(3) 0.0397 Uani
H31 H 0.7687 0.6472 0.9892 0.0480 Uiso
loop_
_atom_site_aniso_label
_atom_site_aniso_U_11
_atom_site_aniso_U_22
_atom_site_aniso_U_33
_atom_site_aniso_U_23
_atom_site_aniso_U_13
_atom_site_aniso_U_12
C33 0.0321 0.045 0.047 -0.0067 -0.0099 0.0012
N9 0.0301 0.0429 0.036 -0.0067 -0.0035 0.0022
Zn5 0.0234 0.0375 0.0398 -0.00573 -0.00503 -0.00062
O3 0.0314 0.058 0.0606 -0.0163 -0.0103 -0.0067
O4 0.0359 0.0502 0.0406 -0.0087 -0.0087 -0.0075
C23 0.0332 0.032 0.047 0.0005 -0.0154 -0.0021
C24 0.0312 0.0343 0.0424 -0.0042 -0.0118 -0.0032
C6 0.034 0.054 0.047 -0.0053 -0.0153 0.0027
C27 0.037 0.045 0.043 -0.0051 -0.0133 0.0005
C28 0.033 0.042 0.051 -0.0095 -0.0177 0.0005
C29 0.0294 0.043 0.0404 -0.0027 -0.0091 -0.0018
C30 0.0294 0.039 0.049 0.0047 -0.0114 -0.0038
C31 0.032 0.049 0.05 -0.0037 -0.0098 0.0045
N7 0.0294 0.0418 0.0443 -0.0038 -0.011 0.0008
C39 0.0248 0.037 0.045 -0.0074 -0.0029 0.0028
C40 0.0299 0.035 0.052 -0.0041 0.0016 0.0016
C41 0.0281 0.0355 0.0385 0.001 -0.0056 -0.0001
C42 0.0283 0.039 0.0358 -0.0006 -0.004 -0.006
C43 0.0315 0.036 0.048 0.0043 -0.0016 -0.0006
N11 0.028 0.0387 0.043 -0.0051 -0.0018 -0.0017
N12 0.0288 0.0313 0.0488 -0.0043 -0.0048 -0.0031
C8 0.0287 0.056 0.041 -0.0074 -0.0081 0.0057
C9 0.031 0.044 0.0407 -0.005 -0.0044 -0.0015
C10 0.0303 0.042 0.0411 -0.0091 -0.0062 0.0028
C11 0.031 0.07 0.041 0 0.0001 0.0107
C12 0.037 0.068 0.038 -0.0004 -0.0059 0.0111
C21 0.039 0.041 0.046 -0.0104 -0.0081 -0.0042
N4 0.0343 0.05 0.0379 -0.01 -0.0048 0.0046
C26 0.0252 0.045 0.053 -0.0123 -0.0073 -0.0016
C34 0.0287 0.056 0.041 -0.0074 -0.0081 0.0057
C35 0.031 0.044 0.0407 -0.005 -0.0044 -0.0015
C36 0.0303 0.042 0.0411 -0.0091 -0.0062 0.0028
C37 0.031 0.07 0.041 0 0.0001 0.0107
C38 0.037 0.068 0.038 -0.0004 -0.0059 0.0111
N10 0.0343 0.05 0.0379 -0.01 -0.0048 0.0046
C22 0.0252 0.045 0.053 -0.0123 -0.0073 -0.0016
C25 0.039 0.041 0.046 -0.0104 -0.0081 -0.0042
N2 0.0338 0.0455 0.0478 -0.003 -0.0151 -0.0006
C18 0.0298 0.037 0.048 0.0023 -0.0041 0.0041
Zn1 0.0234 0.0375 0.0398 -0.00573 -0.00503 -0.00062
O1 0.0314 0.058 0.0606 -0.0163 -0.0103 -0.0067
O2 0.0359 0.0502 0.0406 -0.0087 -0.0087 -0.0075
C1 0.037 0.045 0.043 -0.0051 -0.0133 0.0005
C2 0.033 0.042 0.051 -0.0095 -0.0177 0.0005
C3 0.0294 0.043 0.0404 -0.0027 -0.0091 -0.0018
C4 0.0294 0.039 0.049 0.0047 -0.0114 -0.0038
C5 0.032 0.049 0.05 -0.0037 -0.0098 0.0045
C7 0.0321 0.045 0.047 -0.0067 -0.0099 0.0012
C13 0.0248 0.037 0.045 -0.0074 -0.0029 0.0028
C14 0.0299 0.035 0.052 -0.0041 0.0016 0.0016
C15 0.0281 0.0355 0.0385 0.001 -0.0056 -0.0001
C16 0.0283 0.039 0.0358 -0.0006 -0.004 -0.006
C17 0.0315 0.036 0.048 0.0043 -0.0016 -0.0006
C19 0.0332 0.032 0.047 0.0005 -0.0154 -0.0021
C20 0.0312 0.0343 0.0424 -0.0042 -0.0118 -0.0032
N1 0.0294 0.0418 0.0443 -0.0038 -0.011 0.0008
N3 0.0301 0.0429 0.036 -0.0067 -0.0035 0.0022
N5 0.028 0.0387 0.043 -0.0051 -0.0018 -0.0017
N6 0.0288 0.0313 0.0488 -0.0043 -0.0048 -0.0031
C32 0.034 0.054 0.047 -0.0053 -0.0153 0.0027
N8 0.0338 0.0455 0.0478 -0.003 -0.0151 -0.0006
C44 0.0298 0.037 0.048 0.0023 -0.0041 0.0041
loop_
_geom_bond_atom_site_label_1
_geom_bond_atom_site_label_2
_geom_bond_site_symmetry_1
_geom_bond_site_symmetry_2
C33 H23 1_555 1_555
N9 C33 1_555 1_555
Zn5 N9 1_555 1_555
O3 C23 1_555 1_555
O4 C23 1_555 1_555
C23 C24 1_555 1_555
Zn5 O4 1_555 1_555
H4 C6 1_555 1_555
C28 H20 1_555 1_555
C29 C28 1_555 1_555
C30 C29 1_555 1_555
C31 C6 1_555 1_555
H21 C31 1_555 1_555
N7 C27 1_555 1_555
Zn5 N7 1_555 1_555
C28 N7 1_555 1_555
C30 C31 1_555 1_555
C39 H28 1_555 1_555
C40 H29 1_555 1_555
C41 C40 1_555 1_555
C42 C41 1_555 1_555
H30 C43 1_555 1_555
N11 C39 1_555 1_555
N12 C39 1_555 1_555
H32 N12 1_555 1_555
Zn5 N11 1_555 1_555
C40 N11 1_555 1_555
C41 N12 1_555 1_555
C42 C43 1_555 1_555
C8 H6 1_555 1_555
C9 C8 1_555 1_555
C10 C9 1_555 1_555
C11 C10 1_555 1_555
H7 C11 1_555 1_555
C12 C10 1_555 1_555
H8 C12 1_555 1_555
C21 H13 1_555 1_555
H15 N4 1_555 1_555
C26 C21 1_555 1_555
H18 C26 1_555 1_555
C34 H24 1_555 1_555
C35 C34 1_555 1_555
C36 C35 1_555 1_555
C37 C12 1_555 1_555
H25 C37 1_555 1_555
C38 C11 1_555 1_555
H26 C38 1_555 1_555
H27 N10 1_555 1_555
C9 N4 1_555 1_555
C35 N10 1_555 1_555
C36 C37 1_555 1_555
C36 C38 1_555 1_555
H14 C22 1_555 1_555
C25 C22 1_555 1_555
H17 C25 1_555 1_555
H12 C18 1_555 1_555
Zn1 O2 1_555 1_555
O1 C19 1_555 1_555
O2 C19 1_555 1_555
C2 H2 1_555 1_555
C3 C2 1_555 1_555
C4 C3 1_555 1_555
C5 C4 1_555 1_555
H3 C5 1_555 1_555
C7 H5 1_555 1_555
C13 H9 1_555 1_555
C14 H10 1_555 1_555
C15 C14 1_555 1_555
C16 C15 1_555 1_555
C17 C16 1_555 1_555
H11 C17 1_555 1_555
C19 C20 1_555 1_555
N1 Zn1 1_555 1_555
N3 Zn1 1_555 1_555
N5 Zn1 1_555 1_555
N6 C13 1_555 1_555
H16 N6 1_555 1_555
C32 C5 1_555 1_555
H22 C32 1_555 1_555
C1 N1 1_555 1_555
C2 N1 1_555 1_555
C7 N3 1_555 1_555
C13 N5 1_555 1_555
C14 N5 1_555 1_555
C15 N6 1_555 1_555
H31 C44 1_555 1_555

#END
