
###############################################################################
#
# This file contains modified crystal structure data generated from the
# MOF subset of the Cambridge Structural Database (CSD) v543 
# hosted by the Cambridge Crystallographic Data Centre (CCDC).
#
# This work is licensed under the Creative Commons
# Attribution-NonCommercial-ShareAlike 4.0 International License.
# To view a copy of this license, visit
# http://creativecommons.org/licenses/by-nc-sa/4.0/
# or send a letter to
# Creative Commons, PO Box 1866, Mountain View, CA 94042, USA.
#
# CIF created using the CSD Python API on 29 September 2022
# The structure has been converted into the P1 space group
# The structure has a 3D framework
# The original CSD entry LODPOK is in the tetragonal crystal system
# The framework has been calculated to contain at least 10.0% void space
# The void calculation uses a probe of radius 1.32A, grid spacing 0.4
# H atom positions have been added when not included in the experimental data
# Generated hydrogen atom positions removed from atoms on special positions
#
###############################################################################

data_LODPOK
_chemical_formula_moiety         '(C672 H480 Co44 N280 O32)n'
_symmetry_cell_setting           triclinic
_symmetry_space_group_name_H-M   'P 1'
_symmetry_Int_Tables_number      1
_space_group_name_Hall           'P 1'
loop_
_symmetry_equiv_pos_site_id
_symmetry_equiv_pos_as_xyz
1 x,y,z
_cell_length_a                   23.1690(2)
_cell_length_b                   23.1690(2)
_cell_length_c                   42.7980(10)
_cell_angle_alpha                90
_cell_angle_beta                 90
_cell_angle_gamma                90
_cell_volume                     22974.1
loop_
_atom_site_label
_atom_site_type_symbol
_atom_site_fract_x
_atom_site_fract_y
_atom_site_fract_z
N9 N 0.2023(2) 0.1548(2) 0.05689(12)
C15 C 0.1881(2) 0.0058(2) 0.02961(12)
H8 H 0.1947 0.0226 0.0490
C16 C 0.1785(2) 0.0416(2) 0.00293(12)
C19 C 0.1790(2) 0.1029(2) 0.00558(11)
C21 C 0.1918(2) 0.1324(2) 0.03356(13)
N8 N 0.15235(18) 0.16825(16) 0.95952(9)
C17 C 0.1677(3) 0.0142(2) 0.97430(12)
H9 H 0.1602 0.0366 0.9567
C20 C 0.1646(2) 0.13878(19) 0.98012(11)
Co6 Co 0.13222(3) 0.23215(3) 0.925066(13)
Co1 Co 0.13222(3) 0.73215(3) 0.074934(13)
Co2 Co -0.0000 0.7500 0.1250
N1 N 0.12073(15) 0.79782(15) 0.10789(9)
N2 N 0.07404(15) 0.80599(16) 0.12524(8)
N3 N 0.07923(15) 0.85268(16) 0.14321(8)
N4 N 0.04754(16) 0.74378(16) 0.05639(8)
N5 N -0.0000 0.7500 0.07371(11)
N7 N 0.16762(18) 0.79154(17) 0.04191(10)
O1 O 0.21631(14) 0.72027(15) 0.09246(8)
C1 C 0.15871(19) 0.84164(19) 0.11480(10)
C2 C 0.2146(2) 0.8534(2) 0.10394(11)
H1 H 0.2324 0.8301 0.0891
C3 C 0.2414(2) 0.9002(2) 0.11601(12)
H2 H 0.2787 0.9088 0.1095
C4 C 0.2146(2) 0.9363(2) 0.13816(13)
H3 H 0.2345 0.9683 0.1457
C5 C 0.1591(2) 0.9254(2) 0.14890(12)
H4 H 0.1409 0.9495 0.1632
C6 C 0.13207(19) 0.8763(2) 0.13703(11)
C7 C 0.0298(2) 0.7461(2) 0.02595(11)
C11 C 0.1744(2) 0.82273(19) 0.02136(12)
C14 C 0.1876(3) 0.9475(2) 0.02684(12)
H7 H 0.1931 0.9250 0.0446
Co3 Co 0.01785(3) 0.88222(3) 0.175066(13)
Co9 Co 0.51785(3) 0.88222(3) 0.324934(13)
N11 N 0.04782(15) 0.62927(15) 0.14211(9)
N14 N 0.05599(16) 0.67596(15) 0.12476(8)
N17 N 0.10268(16) 0.67077(15) 0.10679(8)
N20 N 0.00622(16) 0.79754(16) 0.19361(8)
N22 N 0.0000 0.7500 0.17629(11)
N23 N 0.1715(3) 0.3100(2) 0.05823(13)
N25 N 0.4400(2) 0.9215(3) 0.19177(13)
N28 N 0.45846(17) 0.91762(18) 0.29191(10)
N29 N 0.04154(17) 0.58238(18) 0.20809(10)
N31 N 0.15235(18) 0.66825(16) 0.04048(9)
N33 N 0.08175(16) 0.90235(18) 0.20952(9)
N38 N 0.0952(2) 0.9523(2) 0.30689(12)
O2 O 0.02973(15) 0.96631(14) 0.15754(8)
C23 C 0.09164(19) 0.59129(19) 0.13520(10)
C26 C 0.1034(2) 0.5354(2) 0.14606(11)
H12 H 0.0801 0.5176 0.1609
C29 C 0.1502(2) 0.5086(2) 0.13399(12)
H15 H 0.1588 0.4713 0.1405
C32 C 0.1863(2) 0.5354(2) 0.11184(13)
H18 H 0.2183 0.5155 0.1043
C35 C 0.1754(2) 0.5909(2) 0.10110(12)
H21 H 0.1995 0.6091 0.0868
C38 C 0.1263(2) 0.61793(19) 0.11297(11)
C41 C 0.0039(2) 0.7798(2) 0.22405(11)
C44 C 0.0077(2) 0.8112(2) 0.25223(12)
H24 H 0.0125 0.8510 0.2523
C47 C 0.0040(3) 0.7804(3) 0.27955(12)
H27 H 0.0069 0.7997 0.2985
C49 C 0.1750(2) 0.3315(2) 0.03429(13)
C51 C 0.4185(2) 0.9250(2) 0.21571(13)
C54 C 0.42727(19) 0.9244(2) 0.27136(12)
C55 C 0.1785(2) 0.3590(2) 0.00496(11)
C57 C 0.3910(2) 0.9285(2) 0.24504(11)
C58 C 0.1789(2) 0.4199(2) 0.00214(12)
C60 C 0.3301(2) 0.9289(2) 0.24786(12)
C63 C 0.3025(2) 0.9376(3) 0.27684(12)
H31 H 0.3250 0.9431 0.2946
C66 C 0.2442(2) 0.9381(2) 0.27961(12)
H34 H 0.2274 0.9447 0.2990
C69 C 0.2084(2) 0.9285(2) 0.25293(12)
C70 C 0.1677(3) 0.5142(2) 0.02570(12)
C72 C 0.2358(2) 0.9177(3) 0.22430(12)
H35 H 0.1602 0.5366 0.0433
H37 H 0.2134 0.9102 0.2067
C73 C 0.1680(3) 0.4556(2) 0.02843(13)
C75 C 0.2944(2) 0.9180(3) 0.22157(13)
H38 H 0.1610 0.4387 0.0478
H40 H 0.3113 0.9110 0.2022
C78 C 0.1471(2) 0.9290(2) 0.25558(11)
C79 C 0.1646(2) 0.63878(19) 0.01988(11)
C81 C 0.11122(19) 0.9146(2) 0.23012(11)
C84 C 0.1176(2) 0.9418(2) 0.28356(13)
H47 H 0.00660422 0.5114 0.159953
N6 N 0.1715(3) 0.8100(2) 0.94177(13)
C8 C 0.0612(2) 0.7423(2) 0.99777(12)
H5 H 0.1010 0.7375 0.9977
C9 C 0.0304(3) 0.7460(3) 0.97045(12)
H6 H 0.0497 0.7431 0.9515
C10 C 0.1750(2) 0.8315(2) 0.96571(13)
C12 C 0.1785(2) 0.8590(2) 0.99504(11)
C13 C 0.1789(2) 0.9199(2) 0.99786(12)
C18 C 0.1680(3) 0.9556(2) 0.97157(13)
H10 H 0.1610 0.9387 0.9522
N26 N 0.16762(18) 0.29154(17) 0.95809(10)
N36 N 0.2023(2) 0.6548(2) 0.94311(12)
C52 C 0.1744(2) 0.32273(19) 0.97864(12)
C61 C 0.1876(3) 0.4475(2) 0.97316(12)
H29 H 0.1931 0.4250 0.9554
C64 C 0.1881(2) 0.5058(2) 0.97039(12)
H32 H 0.1947 0.5226 0.9510
C67 C 0.1785(2) 0.5416(2) 0.99707(12)
C76 C 0.1790(2) 0.6029(2) 0.99442(11)
C82 C 0.1918(2) 0.6324(2) 0.96644(13)
H14 H 0.8412 0.0287 0.1405
Co2_2 Co 1.0000 0.7500 0.1250
N5_2 N 1.0000 0.7500 0.07371(11)
Co4 Co 0.98215(3) 0.61778(3) 0.175066(13)
Co5 Co 0.86778(3) 0.76785(3) 0.074934(13)
N10 N 0.95218(15) 0.87073(15) 0.14211(9)
N12 N 0.87927(15) 0.70218(15) 0.10789(9)
N13 N 0.94401(16) 0.82404(15) 0.12476(8)
N15 N 0.92596(15) 0.69401(16) 0.12524(8)
N16 N 0.89732(16) 0.82923(15) 0.10679(8)
N18 N 0.92077(15) 0.64732(16) 0.14321(8)
N19 N 0.95246(16) 0.75622(16) 0.05639(8)
N21 N 0.99378(16) 0.70246(16) 0.19361(8)
N22_2 N 1.0000 0.7500 0.17629(11)
N24 N 0.9400(2) 0.9215(3) 0.30823(13)
N27 N 0.95846(17) 0.91762(18) 0.20809(10)
N30 N 0.83238(18) 0.70846(17) 0.04191(10)
N32 N 0.58175(16) 0.90235(18) 0.29048(9)
N34 N 0.91825(16) 0.59765(18) 0.20952(9)
N35 N 0.84765(18) 0.83175(16) 0.04048(9)
N37 N 0.5952(2) 0.9523(2) 0.19311(12)
O3 O 0.97027(15) 0.53369(14) 0.15754(8)
O4 O 0.78369(14) 0.77973(15) 0.09246(8)
C22 C 0.90836(19) 0.90871(19) 0.13520(10)
C24 C 0.84129(19) 0.65836(19) 0.11480(10)
C25 C 0.8966(2) 0.9646(2) 0.14606(11)
C27 C 0.7854(2) 0.6466(2) 0.10394(11)
H11 H 0.9199 0.9824 0.1609
H13 H 0.7676 0.6699 0.0891
C28 C 0.8498(2) 0.9914(2) 0.13399(12)
C30 C 0.7586(2) 0.5998(2) 0.11601(12)
H16 H 0.7213 0.5912 0.1095
C31 C 0.8137(2) 0.9646(2) 0.11184(13)
C33 C 0.7854(2) 0.5637(2) 0.13816(13)
H17 H 0.7817 0.9845 0.1043
H19 H 0.7655 0.5317 0.1457
C34 C 0.8246(2) 0.9091(2) 0.10110(12)
C36 C 0.8409(2) 0.5746(2) 0.14890(12)
H20 H 0.8005 0.8909 0.0868
H22 H 0.8591 0.5505 0.1632
C37 C 0.8737(2) 0.88207(19) 0.11297(11)
C39 C 0.86793(19) 0.6237(2) 0.13703(11)
C40 C 0.9702(2) 0.7539(2) 0.02595(11)
C42 C 0.9961(2) 0.7202(2) 0.22405(11)
C45 C 0.9923(2) 0.6888(2) 0.25223(12)
H25 H 0.9875 0.6490 0.2523
C48 C 0.9960(3) 0.7196(3) 0.27955(12)
H28 H 0.9931 0.7003 0.2985
C50 C 0.9185(2) 0.9250(2) 0.28429(13)
C53 C 0.92727(19) 0.9244(2) 0.22864(12)
C56 C 0.8910(2) 0.9285(2) 0.25496(11)
C59 C 0.8301(2) 0.9289(2) 0.25214(12)
C62 C 0.8025(2) 0.9376(3) 0.22316(12)
H30 H 0.8250 0.9431 0.2054
C65 C 0.7442(2) 0.9381(2) 0.22039(12)
H33 H 0.7274 0.9447 0.2010
C68 C 0.7084(2) 0.9285(2) 0.24707(12)
C71 C 0.7358(2) 0.9177(3) 0.27570(12)
H36 H 0.7134 0.9102 0.2933
C74 C 0.7944(2) 0.9180(3) 0.27843(13)
H39 H 0.8113 0.9110 0.2978
C77 C 0.6471(2) 0.9290(2) 0.24442(11)
C80 C 0.61122(19) 0.9146(2) 0.26988(11)
C83 C 0.6176(2) 0.9418(2) 0.21644(13)
C43 C 0.9388(2) 0.7577(2) 0.99777(12)
H23 H 0.8990 0.7625 0.9977
C46 C 0.9696(3) 0.7540(3) 0.97045(12)
H26 H 0.9503 0.7569 0.9515
H2_2 H 0.3412 0.0287 0.3595
Co9_2 Co 0.36778(3) 0.26785(3) 0.574934(13)
N25_2 N 0.3285(3) 0.1900(2) 0.44177(13)
N28_2 N 0.33238(18) 0.20846(17) 0.54191(10)
C51_2 C 0.3250(2) 0.1685(2) 0.46571(13)
C54_2 C 0.3256(2) 0.17727(19) 0.52136(12)
C57_2 C 0.3215(2) 0.1410(2) 0.49504(11)
C60_2 C 0.3211(2) 0.0801(2) 0.49786(12)
C63_2 C 0.3124(3) 0.0525(2) 0.52684(12)
H31_2 H 0.3069 0.0750 0.5446
C75_2 C 0.3320(3) 0.0444(2) 0.47157(13)
H40_2 H 0.3390 0.0613 0.4522
Co2_3 Co 0.5000 0.7500 0.3750
N1_2 N 0.45218(15) 0.87073(15) 0.35789(9)
N2_2 N 0.44401(16) 0.82404(15) 0.37524(8)
N3_2 N 0.39732(16) 0.82923(15) 0.39321(8)
N4_2 N 0.50622(16) 0.79754(16) 0.30639(8)
N5_3 N 0.5000 0.7500 0.32371(11)
O1_2 O 0.52973(15) 0.96631(14) 0.34246(8)
C1_2 C 0.40836(19) 0.90871(19) 0.36480(10)
C2_2 C 0.3966(2) 0.9646(2) 0.35394(11)
H1_2 H 0.4199 0.9824 0.3391
C3_2 C 0.3498(2) 0.9914(2) 0.36601(12)
C4_2 C 0.3137(2) 0.9646(2) 0.38816(13)
H3_2 H 0.2817 0.9845 0.3957
C5_2 C 0.3246(2) 0.9091(2) 0.39890(12)
H4_2 H 0.3005 0.8909 0.4132
C6_2 C 0.3737(2) 0.88207(19) 0.38703(11)
C7_2 C 0.5039(2) 0.7798(2) 0.27595(11)
C8_2 C 0.5077(2) 0.8112(2) 0.24777(12)
H5_2 H 0.5125 0.8510 0.2477
C9_2 C 0.5040(3) 0.7804(3) 0.22045(12)
H6_2 H 0.5069 0.7997 0.2015
Co3_2 Co 0.36778(3) 0.76785(3) 0.425066(13)
Co4_2 Co 0.63222(3) 0.73215(3) 0.425066(13)
Co5_2 Co 0.48215(3) 0.61778(3) 0.324934(13)
N10_2 N 0.37927(15) 0.70218(15) 0.39211(9)
N11_2 N 0.62073(15) 0.79782(15) 0.39211(9)
N12_2 N 0.54782(15) 0.62927(15) 0.35789(9)
N13_2 N 0.42596(15) 0.69401(16) 0.37476(8)
N14_2 N 0.57404(15) 0.80599(16) 0.37476(8)
N15_2 N 0.55599(16) 0.67596(15) 0.37524(8)
N16_2 N 0.42077(15) 0.64732(16) 0.35679(8)
N17_2 N 0.57923(15) 0.85268(16) 0.35679(8)
N18_2 N 0.60268(16) 0.67077(15) 0.39321(8)
N19_2 N 0.49378(16) 0.70246(16) 0.30639(8)
N20_2 N 0.45246(16) 0.75622(16) 0.44361(8)
N21_2 N 0.54754(16) 0.74378(16) 0.44361(8)
N22_3 N 0.5000 0.7500 0.42629(11)
N24_2 N 0.3285(3) 0.6900(2) 0.55823(13)
N27_2 N 0.33238(18) 0.70846(17) 0.45809(10)
N29_2 N 0.66762(18) 0.79154(17) 0.45809(10)
N30_2 N 0.54154(17) 0.58238(18) 0.29191(10)
N32_2 N 0.34765(18) 0.33175(16) 0.54048(9)
N33_2 N 0.34765(18) 0.83175(16) 0.45952(9)
N34_2 N 0.65235(18) 0.66825(16) 0.45952(9)
N35_2 N 0.41825(16) 0.59765(18) 0.29048(9)
N37_2 N 0.2977(2) 0.3452(2) 0.44311(12)
N38_2 N 0.2977(2) 0.8452(2) 0.55689(12)
O2_2 O 0.28369(14) 0.77973(15) 0.40754(8)
O3_2 O 0.71631(14) 0.72027(15) 0.40754(8)
O4_2 O 0.47027(15) 0.53369(14) 0.34246(8)
C22_2 C 0.34129(19) 0.65836(19) 0.38520(10)
C23_2 C 0.65871(19) 0.84164(19) 0.38520(10)
C24_2 C 0.59164(19) 0.59129(19) 0.36480(10)
C25_2 C 0.2854(2) 0.6466(2) 0.39606(11)
C26_2 C 0.7146(2) 0.8534(2) 0.39606(11)
C27_2 C 0.6034(2) 0.5354(2) 0.35394(11)
H11_2 H 0.2676 0.6699 0.4109
H12_2 H 0.7324 0.8301 0.4109
H13_2 H 0.5801 0.5176 0.3391
C28_2 C 0.2586(2) 0.5998(2) 0.38399(12)
C29_2 C 0.7414(2) 0.9002(2) 0.38399(12)
C30_2 C 0.6502(2) 0.5086(2) 0.36601(12)
H14_2 H 0.2213 0.5912 0.3905
H15_2 H 0.7787 0.9088 0.3905
H16_2 H 0.6588 0.4713 0.3595
C31_2 C 0.2854(2) 0.5637(2) 0.36184(13)
C32_2 C 0.7146(2) 0.9363(2) 0.36184(13)
C33_2 C 0.6863(2) 0.5354(2) 0.38816(13)
H17_2 H 0.2655 0.5317 0.3543
H18_2 H 0.7345 0.9683 0.3543
H19_2 H 0.7183 0.5155 0.3957
C34_2 C 0.3409(2) 0.5746(2) 0.35110(12)
C35_2 C 0.6591(2) 0.9254(2) 0.35110(12)
C36_2 C 0.6754(2) 0.5909(2) 0.39890(12)
H20_2 H 0.3591 0.5505 0.3368
H21_2 H 0.6409 0.9495 0.3368
H22_2 H 0.6995 0.6091 0.4132
C37_2 C 0.36793(19) 0.6237(2) 0.36297(11)
C38_2 C 0.63207(19) 0.8763(2) 0.36297(11)
C39_2 C 0.6263(2) 0.61793(19) 0.38703(11)
C40_2 C 0.4961(2) 0.7202(2) 0.27595(11)
C41_2 C 0.4702(2) 0.7539(2) 0.47405(11)
C42_2 C 0.5298(2) 0.7461(2) 0.47405(11)
C43_2 C 0.4923(2) 0.6888(2) 0.24777(12)
C44_2 C 0.4388(2) 0.7577(2) 0.50223(12)
C45_2 C 0.5612(2) 0.7423(2) 0.50223(12)
H23_2 H 0.4875 0.6490 0.2477
H24_2 H 0.3990 0.7625 0.5023
H25_2 H 0.6010 0.7375 0.5023
C46_2 C 0.4960(3) 0.7196(3) 0.22045(12)
C47_2 C 0.4696(3) 0.7540(3) 0.52955(12)
C48_2 C 0.5304(3) 0.7460(3) 0.52955(12)
H26_2 H 0.4931 0.7003 0.2015
H27_2 H 0.4503 0.7569 0.5485
H28_2 H 0.5497 0.7431 0.5485
C50_2 C 0.3250(2) 0.6685(2) 0.53429(13)
C53_2 C 0.3256(2) 0.67727(19) 0.47864(12)
C56_2 C 0.3215(2) 0.6410(2) 0.50496(11)
C59_2 C 0.3211(2) 0.5801(2) 0.50214(12)
C62_2 C 0.3124(3) 0.5525(2) 0.47316(12)
H30_2 H 0.3069 0.5750 0.4554
C65_2 C 0.3119(2) 0.4942(2) 0.47039(12)
C66_2 C 0.3119(2) 0.9942(2) 0.52961(12)
H33_2 H 0.3053 0.4774 0.4510
H34_2 H 0.3053 0.9774 0.5490
C68_2 C 0.3215(2) 0.4584(2) 0.49707(12)
C69_2 C 0.3215(2) 0.9584(2) 0.50293(12)
C71_2 C 0.3323(3) 0.4858(2) 0.52570(12)
C72_2 C 0.3323(3) 0.9858(2) 0.47430(12)
H36_2 H 0.3398 0.4634 0.5433
H37_2 H 0.3398 0.9634 0.4567
C74_2 C 0.3320(3) 0.5444(2) 0.52843(13)
H39_2 H 0.3390 0.5613 0.5478
C77_2 C 0.3210(2) 0.3971(2) 0.49442(11)
C78_2 C 0.3210(2) 0.8971(2) 0.50558(11)
C80_2 C 0.3354(2) 0.36122(19) 0.51988(11)
C81_2 C 0.3354(2) 0.86122(19) 0.48012(11)
C83_2 C 0.3082(2) 0.3676(2) 0.46644(13)
C84_2 C 0.3082(2) 0.8676(2) 0.53356(13)
C44_3 C 0.0612(2) 0.2423(2) 0.00223(12)
H24_3 H 0.1010 0.2375 0.0023
C47_3 C 0.0304(3) 0.2460(3) 0.02955(12)
H27_3 H 0.0497 0.2431 0.0485
Co2_4 Co 0.0000 0.2500 0.8750
N1_3 N 0.04782(15) 0.12927(15) 0.85789(9)
N2_3 N 0.05599(16) 0.17596(15) 0.87524(8)
N3_3 N 0.10268(16) 0.17077(15) 0.89321(8)
N5_4 N 0.0000 0.2500 0.82371(11)
N6_2 N 0.0600(2) 0.0785(3) 0.69177(13)
N7_2 N 0.04154(17) 0.08238(18) 0.79191(10)
N8_2 N 0.41825(16) 0.09765(18) 0.70952(9)
N9_2 N 0.4048(2) 0.0477(2) 0.80689(12)
C1_3 C 0.09164(19) 0.09129(19) 0.86480(10)
C2_3 C 0.1034(2) 0.0354(2) 0.85394(11)
H1_3 H 0.0801 0.0176 0.8391
C3_3 C 0.1502(2) 0.0086(2) 0.86601(12)
C4_3 C 0.1863(2) 0.0354(2) 0.88816(13)
H3_3 H 0.2183 0.0155 0.8957
C5_3 C 0.1754(2) 0.0909(2) 0.89890(12)
H4_3 H 0.1995 0.1091 0.9132
C6_3 C 0.1263(2) 0.11793(19) 0.88703(11)
C10_2 C 0.0815(2) 0.0750(2) 0.71571(13)
C11_2 C 0.07273(19) 0.0756(2) 0.77136(12)
C12_2 C 0.1090(2) 0.0715(2) 0.74504(11)
C13_2 C 0.1699(2) 0.0711(2) 0.74786(12)
C14_2 C 0.1975(2) 0.0624(3) 0.77684(12)
H7_2 H 0.1750 0.0569 0.7946
C15_2 C 0.2558(2) 0.0619(2) 0.77961(12)
H8_2 H 0.2726 0.0553 0.7990
C16_2 C 0.2916(2) 0.0715(2) 0.75293(12)
C17_2 C 0.2642(2) 0.0823(3) 0.72430(12)
H9_2 H 0.2866 0.0898 0.7067
C18_2 C 0.2056(2) 0.0820(3) 0.72157(13)
H10_2 H 0.1887 0.0890 0.7022
C19_2 C 0.3529(2) 0.0710(2) 0.75558(11)
C20_2 C 0.38878(19) 0.0854(2) 0.73012(11)
C21_2 C 0.3824(2) 0.0582(2) 0.78356(13)
Co5_3 Co 0.01785(3) 0.38222(3) 0.824934(13)
Co6_2 Co 0.48215(3) 0.11778(3) 0.675066(13)
N10_3 N 0.12073(15) 0.29782(15) 0.89211(9)
N13_3 N 0.07404(15) 0.30599(16) 0.87476(8)
N16_3 N 0.07923(15) 0.35268(16) 0.85679(8)
N19_3 N 0.00622(16) 0.29754(16) 0.80639(8)
N20_3 N 0.04754(16) 0.24378(16) 0.94361(8)
N22_4 N 0.0000 0.2500 0.92629(11)
N35_3 N 0.08175(16) 0.40235(18) 0.79048(9)
O2_3 O 0.21631(14) 0.22027(15) 0.90754(8)
O4_3 O 0.02973(15) 0.46631(14) 0.84246(8)
C22_3 C 0.15871(19) 0.34164(19) 0.88520(10)
C25_3 C 0.2146(2) 0.3534(2) 0.89606(11)
H11_3 H 0.2324 0.3301 0.9109
C28_3 C 0.2414(2) 0.4002(2) 0.88399(12)
H14_3 H 0.2787 0.4088 0.8905
C31_3 C 0.2146(2) 0.4363(2) 0.86184(13)
H17_3 H 0.2345 0.4683 0.8543
C34_3 C 0.1591(2) 0.4254(2) 0.85110(12)
H20_3 H 0.1409 0.4495 0.8368
C37_3 C 0.13207(19) 0.3763(2) 0.86297(11)
C40_3 C 0.0039(2) 0.2798(2) 0.77595(11)
C41_3 C 0.0298(2) 0.2461(2) 0.97405(11)
C43_3 C 0.0077(2) 0.3112(2) 0.74777(12)
H23_3 H 0.0125 0.3510 0.7477
C46_3 C 0.0040(3) 0.2804(3) 0.72045(12)
H26_3 H 0.0069 0.2997 0.7015
H2_3 H 0.1588 0.9713 0.8595
C45_3 C 0.9388(2) 0.2577(2) 0.00223(12)
H25_3 H 0.8990 0.2625 0.0023
C48_3 C 0.9696(3) 0.2540(3) 0.02955(12)
H28_3 H 0.9503 0.2569 0.0485
Co1_2 Co 0.98215(3) 0.11778(3) 0.824934(13)
Co2_5 Co 1.0000 0.2500 0.8750
N4_3 N 0.99378(16) 0.20246(16) 0.80639(8)
N5_5 N 1.0000 0.2500 0.82371(11)
O1_3 O 0.97027(15) 0.03369(14) 0.84246(8)
C7_3 C 0.9961(2) 0.2202(2) 0.77595(11)
C8_3 C 0.9923(2) 0.1888(2) 0.74777(12)
H5_3 H 0.9875 0.1490 0.7477
C9_3 C 0.9960(3) 0.2196(3) 0.72045(12)
H6_3 H 0.9931 0.2003 0.7015
Co4_3 Co 0.86778(3) 0.26785(3) 0.925066(13)
N11_3 N 0.87927(15) 0.20218(15) 0.89211(9)
N12_3 N 0.95218(15) 0.37073(15) 0.85789(9)
N14_3 N 0.92596(15) 0.19401(16) 0.87476(8)
N15_3 N 0.94401(16) 0.32404(15) 0.87524(8)
N17_3 N 0.92077(15) 0.14732(16) 0.85679(8)
N18_3 N 0.89732(16) 0.32923(15) 0.89321(8)
N21_3 N 0.95246(16) 0.25622(16) 0.94361(8)
N22_5 N 1.0000 0.2500 0.92629(11)
N23_2 N 0.5600(2) 0.0785(3) 0.80823(13)
N26_2 N 0.54154(17) 0.08238(18) 0.70809(10)
N29_3 N 0.83238(18) 0.20846(17) 0.95809(10)
N30_3 N 0.95846(17) 0.41762(18) 0.79191(10)
N31_2 N 0.91825(16) 0.09765(18) 0.79048(9)
N34_3 N 0.84765(18) 0.33175(16) 0.95952(9)
N36_2 N 0.9048(2) 0.0477(2) 0.69311(12)
O3_3 O 0.78369(14) 0.27973(15) 0.90754(8)
C23_3 C 0.84129(19) 0.15836(19) 0.88520(10)
C24_3 C 0.90836(19) 0.40871(19) 0.86480(10)
C26_3 C 0.7854(2) 0.1466(2) 0.89606(11)
C27_3 C 0.8966(2) 0.4646(2) 0.85394(11)
H12_3 H 0.7676 0.1699 0.9109
H13_3 H 0.9199 0.4824 0.8391
C29_3 C 0.7586(2) 0.0998(2) 0.88399(12)
C30_3 C 0.8498(2) 0.4914(2) 0.86601(12)
H15_3 H 0.7213 0.0912 0.8905
H16_3 H 0.8412 0.5287 0.8595
C32_3 C 0.7854(2) 0.0637(2) 0.86184(13)
C33_3 C 0.8137(2) 0.4646(2) 0.88816(13)
H18_3 H 0.7655 0.0317 0.8543
H19_3 H 0.7817 0.4845 0.8957
C35_3 C 0.8409(2) 0.0746(2) 0.85110(12)
C36_3 C 0.8246(2) 0.4091(2) 0.89890(12)
H21_3 H 0.8591 0.0505 0.8368
H22_3 H 0.8005 0.3909 0.9132
C38_3 C 0.86793(19) 0.1237(2) 0.86297(11)
C39_3 C 0.8737(2) 0.38207(19) 0.88703(11)
C42_3 C 0.9702(2) 0.2539(2) 0.97405(11)
C49_2 C 0.5815(2) 0.0750(2) 0.78429(13)
C52_2 C 0.57273(19) 0.0756(2) 0.72864(12)
C55_2 C 0.6090(2) 0.0715(2) 0.75496(11)
C58_2 C 0.6699(2) 0.0711(2) 0.75214(12)
C61_2 C 0.6975(2) 0.0624(3) 0.72316(12)
H29_2 H 0.6750 0.0569 0.7054
C64_2 C 0.7558(2) 0.0619(2) 0.72039(12)
H32_2 H 0.7726 0.0553 0.7010
C67_2 C 0.7916(2) 0.0715(2) 0.74707(12)
C70_2 C 0.7642(2) 0.0823(3) 0.77570(12)
H35_2 H 0.7866 0.0898 0.7933
C73_2 C 0.7056(2) 0.0820(3) 0.77843(13)
H38_2 H 0.6887 0.0890 0.7978
C76_2 C 0.8529(2) 0.0710(2) 0.74442(11)
C79_2 C 0.88878(19) 0.0854(2) 0.76988(11)
C82_2 C 0.8824(2) 0.0582(2) 0.71644(13)
Co1_3 Co 0.63222(3) 0.23215(3) 0.574934(13)
Co2_6 Co 0.5000 0.2500 0.6250
N1_4 N 0.62073(15) 0.29782(15) 0.60789(9)
N2_4 N 0.57404(15) 0.30599(16) 0.62524(8)
N3_4 N 0.57923(15) 0.35268(16) 0.64321(8)
N4_4 N 0.54754(16) 0.24378(16) 0.55639(8)
N5_6 N 0.5000 0.2500 0.57371(11)
N6_3 N 0.6715(3) 0.3100(2) 0.44177(13)
N7_3 N 0.66762(18) 0.29154(17) 0.54191(10)
N9_3 N 0.7023(2) 0.6548(2) 0.55689(12)
O1_4 O 0.71631(14) 0.22027(15) 0.59246(8)
C1_4 C 0.65871(19) 0.34164(19) 0.61480(10)
C2_4 C 0.7146(2) 0.3534(2) 0.60394(11)
H1_4 H 0.7324 0.3301 0.5891
C3_4 C 0.7414(2) 0.4002(2) 0.61601(12)
H2_4 H 0.7787 0.4088 0.6095
C4_4 C 0.7146(2) 0.4363(2) 0.63816(13)
H3_4 H 0.7345 0.4683 0.6457
C5_4 C 0.6591(2) 0.4254(2) 0.64890(12)
H4_4 H 0.6409 0.4495 0.6632
C6_4 C 0.63207(19) 0.3763(2) 0.63703(11)
C7_4 C 0.5298(2) 0.2461(2) 0.52595(11)
C8_4 C 0.5612(2) 0.2423(2) 0.49777(12)
H5_4 H 0.6010 0.2375 0.4977
C9_4 C 0.5304(3) 0.2460(3) 0.47045(12)
H6_4 H 0.5497 0.2431 0.4515
C10_3 C 0.6750(2) 0.3315(2) 0.46571(13)
C11_3 C 0.6744(2) 0.32273(19) 0.52136(12)
C12_3 C 0.6785(2) 0.3590(2) 0.49504(11)
C13_3 C 0.6789(2) 0.4199(2) 0.49786(12)
C14_3 C 0.6876(3) 0.4475(2) 0.52684(12)
H7_3 H 0.6931 0.4250 0.5446
C15_3 C 0.6881(2) 0.5058(2) 0.52961(12)
H8_3 H 0.6947 0.5226 0.5490
C16_3 C 0.6785(2) 0.5416(2) 0.50293(12)
C17_3 C 0.6677(3) 0.5142(2) 0.47430(12)
H9_3 H 0.6602 0.5366 0.4567
C18_3 C 0.6680(3) 0.4556(2) 0.47157(13)
H10_3 H 0.6610 0.4387 0.4522
C19_3 C 0.6790(2) 0.6029(2) 0.50558(11)
C20_3 C 0.6646(2) 0.63878(19) 0.48012(11)
C21_3 C 0.6918(2) 0.6324(2) 0.53356(13)
Co3_3 Co 0.51785(3) 0.38222(3) 0.675066(13)
N10_4 N 0.45218(15) 0.37073(15) 0.64211(9)
N11_4 N 0.54782(15) 0.12927(15) 0.64211(9)
N12_4 N 0.37927(15) 0.20218(15) 0.60789(9)
N13_4 N 0.44401(16) 0.32404(15) 0.62476(8)
N14_4 N 0.55599(16) 0.17596(15) 0.62476(8)
N15_4 N 0.42596(15) 0.19401(16) 0.62524(8)
N16_4 N 0.39732(16) 0.32923(15) 0.60679(8)
N17_4 N 0.60268(16) 0.17077(15) 0.60679(8)
N18_4 N 0.42077(15) 0.14732(16) 0.64321(8)
N19_4 N 0.45246(16) 0.25622(16) 0.55639(8)
N20_4 N 0.50622(16) 0.29754(16) 0.69361(8)
N21_4 N 0.49378(16) 0.20246(16) 0.69361(8)
N22_6 N 0.5000 0.2500 0.67629(11)
N24_3 N 0.4400(2) 0.4215(3) 0.80823(13)
N25_3 N 0.9400(2) 0.4215(3) 0.69177(13)
N27_3 N 0.45846(17) 0.41762(18) 0.70809(10)
N31_3 N 0.65235(18) 0.16825(16) 0.54048(9)
N33_3 N 0.58175(16) 0.40235(18) 0.70952(9)
N36_3 N 0.7023(2) 0.1548(2) 0.44311(12)
N37_3 N 0.0952(2) 0.4523(2) 0.69311(12)
N38_3 N 0.5952(2) 0.4523(2) 0.80689(12)
O2_4 O 0.52973(15) 0.46631(14) 0.65754(8)
O3_4 O 0.47027(15) 0.03369(14) 0.65754(8)
O4_4 O 0.28369(14) 0.27973(15) 0.59246(8)
C22_4 C 0.40836(19) 0.40871(19) 0.63520(10)
C23_4 C 0.59164(19) 0.09129(19) 0.63520(10)
C24_4 C 0.34129(19) 0.15836(19) 0.61480(10)
C25_4 C 0.3966(2) 0.4646(2) 0.64606(11)
C26_4 C 0.6034(2) 0.0354(2) 0.64606(11)
C27_4 C 0.2854(2) 0.1466(2) 0.60394(11)
H11_4 H 0.4199 0.4824 0.6609
H12_4 H 0.5801 0.0176 0.6609
H13_4 H 0.2676 0.1699 0.5891
C28_4 C 0.3498(2) 0.4914(2) 0.63399(12)
C29_4 C 0.6502(2) 0.0086(2) 0.63399(12)
C30_4 C 0.2586(2) 0.0998(2) 0.61601(12)
H14_4 H 0.3412 0.5287 0.6405
H16_4 H 0.2213 0.0912 0.6095
C31_4 C 0.3137(2) 0.4646(2) 0.61184(13)
C32_4 C 0.6863(2) 0.0354(2) 0.61184(13)
C33_4 C 0.2854(2) 0.0637(2) 0.63816(13)
H17_4 H 0.2817 0.4845 0.6043
H18_4 H 0.7183 0.0155 0.6043
H19_4 H 0.2655 0.0317 0.6457
C34_4 C 0.3246(2) 0.4091(2) 0.60110(12)
C35_4 C 0.6754(2) 0.0909(2) 0.60110(12)
C36_4 C 0.3409(2) 0.0746(2) 0.64890(12)
H20_4 H 0.3005 0.3909 0.5868
H21_4 H 0.6995 0.1091 0.5868
H22_4 H 0.3591 0.0505 0.6632
C37_4 C 0.3737(2) 0.38207(19) 0.61297(11)
C38_4 C 0.6263(2) 0.11793(19) 0.61297(11)
C39_4 C 0.36793(19) 0.1237(2) 0.63703(11)
C40_4 C 0.4702(2) 0.2539(2) 0.52595(11)
C41_4 C 0.5039(2) 0.2798(2) 0.72405(11)
C42_4 C 0.4961(2) 0.2202(2) 0.72405(11)
C43_4 C 0.4388(2) 0.2577(2) 0.49777(12)
C44_4 C 0.5077(2) 0.3112(2) 0.75223(12)
C45_4 C 0.4923(2) 0.1888(2) 0.75223(12)
H23_4 H 0.3990 0.2625 0.4977
H24_4 H 0.5125 0.3510 0.7523
H25_4 H 0.4875 0.1490 0.7523
C46_4 C 0.4696(3) 0.2540(3) 0.47045(12)
C47_4 C 0.5040(3) 0.2804(3) 0.77955(12)
C48_4 C 0.4960(3) 0.2196(3) 0.77955(12)
H26_4 H 0.4503 0.2569 0.4515
H27_4 H 0.5069 0.2997 0.7985
H28_4 H 0.4931 0.2003 0.7985
C50_3 C 0.4185(2) 0.4250(2) 0.78429(13)
C51_3 C 0.9185(2) 0.4250(2) 0.71571(13)
C53_3 C 0.42727(19) 0.4244(2) 0.72864(12)
C54_3 C 0.92727(19) 0.4244(2) 0.77136(12)
C56_3 C 0.3910(2) 0.4285(2) 0.75496(11)
C57_3 C 0.8910(2) 0.4285(2) 0.74504(11)
C59_3 C 0.3301(2) 0.4289(2) 0.75214(12)
C60_3 C 0.8301(2) 0.4289(2) 0.74786(12)
C62_3 C 0.3025(2) 0.4376(3) 0.72316(12)
C63_3 C 0.8025(2) 0.4376(3) 0.77684(12)
H30_3 H 0.3250 0.4431 0.7054
H31_3 H 0.8250 0.4431 0.7946
C64_3 C 0.6881(2) 0.0058(2) 0.47039(12)
C65_3 C 0.2442(2) 0.4381(2) 0.72039(12)
C66_3 C 0.7442(2) 0.4381(2) 0.77961(12)
H32_3 H 0.6947 0.0226 0.4510
H33_3 H 0.2274 0.4447 0.7010
H34_3 H 0.7274 0.4447 0.7990
C67_3 C 0.6785(2) 0.0416(2) 0.49707(12)
C68_3 C 0.2084(2) 0.4285(2) 0.74707(12)
C69_3 C 0.7084(2) 0.4285(2) 0.75293(12)
C70_3 C 0.6677(3) 0.0142(2) 0.52570(12)
C71_3 C 0.2358(2) 0.4177(3) 0.77570(12)
C72_3 C 0.7358(2) 0.4177(3) 0.72430(12)
H35_3 H 0.6602 0.0366 0.5433
H36_3 H 0.2134 0.4102 0.7933
H37_3 H 0.7134 0.4102 0.7067
C74_3 C 0.2944(2) 0.4180(3) 0.77843(13)
C75_3 C 0.7944(2) 0.4180(3) 0.72157(13)
H39_3 H 0.3113 0.4110 0.7978
H40_3 H 0.8113 0.4110 0.7022
C76_3 C 0.6790(2) 0.1029(2) 0.49442(11)
C77_3 C 0.1471(2) 0.4290(2) 0.74442(11)
C78_3 C 0.6471(2) 0.4290(2) 0.75558(11)
C79_3 C 0.6646(2) 0.13878(19) 0.51988(11)
C80_3 C 0.11122(19) 0.4146(2) 0.76988(11)
C81_3 C 0.61122(19) 0.4146(2) 0.73012(11)
C82_3 C 0.6918(2) 0.1324(2) 0.46644(13)
C83_3 C 0.1176(2) 0.4418(2) 0.71644(13)
C84_3 C 0.6176(2) 0.4418(2) 0.78356(13)
N23_3 N 0.6715(3) 0.8100(2) 0.55823(13)
H15_4 H 0.6588 0.9713 0.6405
C49_3 C 0.6750(2) 0.8315(2) 0.53429(13)
C52_3 C 0.6744(2) 0.82273(19) 0.47864(12)
C55_3 C 0.6785(2) 0.8590(2) 0.50496(11)
C58_3 C 0.6789(2) 0.9199(2) 0.50214(12)
C61_3 C 0.6876(3) 0.9475(2) 0.47316(12)
H29_3 H 0.6931 0.9250 0.4554
C73_3 C 0.6680(3) 0.9556(2) 0.52843(13)
H38_3 H 0.6610 0.9387 0.5478
N24_4 N 0.8285(3) 0.1900(2) 0.05823(13)
N38_4 N 0.7977(2) 0.3452(2) 0.05689(12)
C50_4 C 0.8250(2) 0.1685(2) 0.03429(13)
C54_4 C 0.8256(2) 0.67727(19) 0.02136(12)
C56_4 C 0.8215(2) 0.1410(2) 0.00496(11)
C59_4 C 0.8211(2) 0.0801(2) 0.00214(12)
C63_4 C 0.8124(3) 0.5525(2) 0.02684(12)
H31_4 H 0.8069 0.5750 0.0446
C66_4 C 0.8119(2) 0.4942(2) 0.02961(12)
H34_4 H 0.8053 0.4774 0.0490
C69_4 C 0.8215(2) 0.4584(2) 0.00293(12)
C74_4 C 0.8320(3) 0.0444(2) 0.02843(13)
H39_4 H 0.8390 0.0613 0.0478
C78_4 C 0.8210(2) 0.3971(2) 0.00558(11)
C84_4 C 0.8082(2) 0.3676(2) 0.03356(13)
N25_4 N 0.8285(3) 0.6900(2) 0.94177(13)
C51_4 C 0.8250(2) 0.6685(2) 0.96571(13)
C53_4 C 0.8256(2) 0.17727(19) 0.97864(12)
C57_4 C 0.8215(2) 0.6410(2) 0.99504(11)
C60_4 C 0.8211(2) 0.5801(2) 0.99786(12)
C62_4 C 0.8124(3) 0.0525(2) 0.97316(12)
H30_4 H 0.8069 0.0750 0.9554
C72_4 C 0.8323(3) 0.4858(2) 0.97430(12)
H37_4 H 0.8398 0.4634 0.9567
C75_4 C 0.8320(3) 0.5444(2) 0.97157(13)
H40_4 H 0.8390 0.5613 0.9522
C81_4 C 0.8354(2) 0.36122(19) 0.98012(11)
C71_4 C 0.8323(3) 0.9858(2) 0.02570(12)
H36_4 H 0.8398 0.9634 0.0433
C80_4 C 0.8354(2) 0.86122(19) 0.01988(11)
N37_4 N 0.7977(2) 0.8452(2) 0.94311(12)
C65_4 C 0.8119(2) 0.9942(2) 0.97039(12)
H33_4 H 0.8053 0.9774 0.9510
C68_4 C 0.8215(2) 0.9584(2) 0.99707(12)
C77_4 C 0.8210(2) 0.8971(2) 0.99442(11)
C83_4 C 0.8082(2) 0.8676(2) 0.96644(13)
N6_4 N 0.5600(2) 0.5785(3) 0.19177(13)
N9_4 N 0.9048(2) 0.5477(2) 0.30689(12)
C10_4 C 0.5815(2) 0.5750(2) 0.21571(13)
C11_4 C 0.57273(19) 0.5756(2) 0.27136(12)
C12_4 C 0.6090(2) 0.5715(2) 0.24504(11)
C13_4 C 0.6699(2) 0.5711(2) 0.24786(12)
C14_4 C 0.6975(2) 0.5624(3) 0.27684(12)
H7_4 H 0.6750 0.5569 0.2946
C15_4 C 0.7558(2) 0.5619(2) 0.27961(12)
H8_4 H 0.7726 0.5553 0.2990
C16_4 C 0.7916(2) 0.5715(2) 0.25293(12)
C17_4 C 0.7642(2) 0.5823(3) 0.22430(12)
H9_4 H 0.7866 0.5898 0.2067
C18_4 C 0.7056(2) 0.5820(3) 0.22157(13)
H10_4 H 0.6887 0.5890 0.2022
C19_4 C 0.8529(2) 0.5710(2) 0.25558(11)
C20_4 C 0.88878(19) 0.5854(2) 0.23012(11)
C21_4 C 0.8824(2) 0.5582(2) 0.28356(13)
N23_4 N 0.0600(2) 0.5785(3) 0.30823(13)
N36_4 N 0.4048(2) 0.5477(2) 0.19311(12)
C49_4 C 0.0815(2) 0.5750(2) 0.28429(13)
C52_4 C 0.07273(19) 0.5756(2) 0.22864(12)
C55_4 C 0.1090(2) 0.5715(2) 0.25496(11)
C58_4 C 0.1699(2) 0.5711(2) 0.25214(12)
C61_4 C 0.1975(2) 0.5624(3) 0.22316(12)
H29_4 H 0.1750 0.5569 0.2054
C64_4 C 0.2558(2) 0.5619(2) 0.22039(12)
H32_4 H 0.2726 0.5553 0.2010
C67_4 C 0.2916(2) 0.5715(2) 0.24707(12)
C70_4 C 0.2642(2) 0.5823(3) 0.27570(12)
H35_4 H 0.2866 0.5898 0.2933
C73_4 C 0.2056(2) 0.5820(3) 0.27843(13)
H38_4 H 0.1887 0.5890 0.2978
C76_4 C 0.3529(2) 0.5710(2) 0.24442(11)
C79_4 C 0.38878(19) 0.5854(2) 0.26988(11)
C82_4 C 0.3824(2) 0.5582(2) 0.21644(13)
H47_2 H 0.993396 0.9886 0.159953
H47_3 H 0.993396 0.4886 0.840047
H47_4 H 0.00660422 0.0113998 0.840047
H2_5 H 0.1588 0.0287 0.6405
Co9_3 Co 0.13222(3) 0.26785(3) 0.425066(13)
N25_5 N 0.1715(3) 0.1900(2) 0.55823(13)
N28_3 N 0.16762(18) 0.20846(17) 0.45809(10)
C51_5 C 0.1750(2) 0.1685(2) 0.53429(13)
C54_5 C 0.1744(2) 0.17727(19) 0.47864(12)
C57_5 C 0.1785(2) 0.1410(2) 0.50496(11)
C60_5 C 0.1789(2) 0.0801(2) 0.50214(12)
C63_5 C 0.1876(3) 0.0525(2) 0.47316(12)
H31_5 H 0.1931 0.0750 0.4554
C75_5 C 0.1680(3) 0.0444(2) 0.52843(13)
H40_5 H 0.1610 0.0613 0.5478
Co2_7 Co 0.0000 0.7500 0.6250
N1_5 N 0.04782(15) 0.87073(15) 0.64211(9)
N2_5 N 0.05599(16) 0.82404(15) 0.62476(8)
N3_5 N 0.10268(16) 0.82923(15) 0.60679(8)
N5_7 N 0.0000 0.7500 0.67629(11)
N6_5 N 0.0600(2) 0.9215(3) 0.80823(13)
N7_4 N 0.04154(17) 0.91762(18) 0.70809(10)
N8_3 N 0.41825(16) 0.90235(18) 0.79048(9)
N9_5 N 0.4048(2) 0.9523(2) 0.69311(12)
C1_5 C 0.09164(19) 0.90871(19) 0.63520(10)
C2_5 C 0.1034(2) 0.9646(2) 0.64606(11)
H1_5 H 0.0801 0.9824 0.6609
C3_5 C 0.1502(2) 0.9914(2) 0.63399(12)
C4_5 C 0.1863(2) 0.9646(2) 0.61184(13)
H3_5 H 0.2183 0.9845 0.6043
C5_5 C 0.1754(2) 0.9091(2) 0.60110(12)
H4_5 H 0.1995 0.8909 0.5868
C6_5 C 0.1263(2) 0.88207(19) 0.61297(11)
C10_5 C 0.0815(2) 0.9250(2) 0.78429(13)
C11_5 C 0.07273(19) 0.9244(2) 0.72864(12)
C12_5 C 0.1090(2) 0.9285(2) 0.75496(11)
C13_5 C 0.1699(2) 0.9289(2) 0.75214(12)
C14_5 C 0.1975(2) 0.9376(3) 0.72316(12)
H7_5 H 0.1750 0.9431 0.7054
C15_5 C 0.2558(2) 0.9381(2) 0.72039(12)
H8_5 H 0.2726 0.9447 0.7010
C16_5 C 0.2916(2) 0.9285(2) 0.74707(12)
C17_5 C 0.2642(2) 0.9177(3) 0.77570(12)
H9_5 H 0.2866 0.9102 0.7933
C18_5 C 0.2056(2) 0.9180(3) 0.77843(13)
H10_5 H 0.1887 0.9110 0.7978
C19_5 C 0.3529(2) 0.9290(2) 0.74442(11)
C20_5 C 0.38878(19) 0.9146(2) 0.76988(11)
C21_5 C 0.3824(2) 0.9418(2) 0.71644(13)
Co3_4 Co 0.13222(3) 0.76785(3) 0.574934(13)
Co5_4 Co 0.01785(3) 0.61778(3) 0.675066(13)
Co6_3 Co 0.48215(3) 0.88222(3) 0.824934(13)
N10_5 N 0.12073(15) 0.70218(15) 0.60789(9)
N13_5 N 0.07404(15) 0.69401(16) 0.62524(8)
N16_5 N 0.07923(15) 0.64732(16) 0.64321(8)
N19_5 N 0.00622(16) 0.70246(16) 0.69361(8)
N20_5 N 0.04754(16) 0.75622(16) 0.55639(8)
N22_7 N 0.0000 0.7500 0.57371(11)
N24_5 N 0.1715(3) 0.6900(2) 0.44177(13)
N27_4 N 0.16762(18) 0.70846(17) 0.54191(10)
N32_3 N 0.15235(18) 0.33175(16) 0.45952(9)
N33_4 N 0.15235(18) 0.83175(16) 0.54048(9)
N35_4 N 0.08175(16) 0.59765(18) 0.70952(9)
N37_5 N 0.2023(2) 0.3452(2) 0.55689(12)
N38_5 N 0.2023(2) 0.8452(2) 0.44311(12)
O2_5 O 0.21631(14) 0.77973(15) 0.59246(8)
O4_5 O 0.02973(15) 0.53369(14) 0.65754(8)
C22_5 C 0.15871(19) 0.65836(19) 0.61480(10)
C25_5 C 0.2146(2) 0.6466(2) 0.60394(11)
H11_5 H 0.2324 0.6699 0.5891
C28_5 C 0.2414(2) 0.5998(2) 0.61601(12)
H14_5 H 0.2787 0.5912 0.6095
C31_5 C 0.2146(2) 0.5637(2) 0.63816(13)
H17_5 H 0.2345 0.5317 0.6457
C34_5 C 0.1591(2) 0.5746(2) 0.64890(12)
H20_5 H 0.1409 0.5505 0.6632
C37_5 C 0.13207(19) 0.6237(2) 0.63703(11)
C40_5 C 0.0039(2) 0.7202(2) 0.72405(11)
C41_5 C 0.0298(2) 0.7539(2) 0.52595(11)
C43_5 C 0.0077(2) 0.6888(2) 0.75223(12)
C44_5 C 0.0612(2) 0.7577(2) 0.49777(12)
H23_5 H 0.0125 0.6490 0.7523
H24_5 H 0.1010 0.7625 0.4977
C46_5 C 0.0040(3) 0.7196(3) 0.77955(12)
C47_5 C 0.0304(3) 0.7540(3) 0.47045(12)
H26_5 H 0.0069 0.7003 0.7985
H27_5 H 0.0497 0.7569 0.4515
C50_5 C 0.1750(2) 0.6685(2) 0.46571(13)
C53_5 C 0.1744(2) 0.67727(19) 0.52136(12)
C56_5 C 0.1785(2) 0.6410(2) 0.49504(11)
C59_5 C 0.1789(2) 0.5801(2) 0.49786(12)
C62_5 C 0.1876(3) 0.5525(2) 0.52684(12)
H30_5 H 0.1931 0.5750 0.5446
C65_5 C 0.1881(2) 0.4942(2) 0.52961(12)
C66_5 C 0.1881(2) 0.9942(2) 0.47039(12)
H33_5 H 0.1947 0.4774 0.5490
H34_5 H 0.1947 0.9774 0.4510
C68_5 C 0.1785(2) 0.4584(2) 0.50293(12)
C69_5 C 0.1785(2) 0.9584(2) 0.49707(12)
C71_5 C 0.1677(3) 0.4858(2) 0.47430(12)
C72_5 C 0.1677(3) 0.9858(2) 0.52570(12)
H36_5 H 0.1602 0.4634 0.4567
H37_5 H 0.1602 0.9634 0.5433
C74_5 C 0.1680(3) 0.5444(2) 0.47157(13)
H39_5 H 0.1610 0.5613 0.4522
C77_5 C 0.1790(2) 0.3971(2) 0.50558(11)
C78_5 C 0.1790(2) 0.8971(2) 0.49442(11)
C80_5 C 0.1646(2) 0.36122(19) 0.48012(11)
C81_5 C 0.1646(2) 0.86122(19) 0.51988(11)
C83_5 C 0.1918(2) 0.3676(2) 0.53356(13)
C84_5 C 0.1918(2) 0.8676(2) 0.46644(13)
Co1_4 Co 0.98215(3) 0.88222(3) 0.675066(13)
Co2_8 Co 1.0000 0.7500 0.6250
N4_5 N 0.99378(16) 0.79754(16) 0.69361(8)
N5_8 N 1.0000 0.7500 0.67629(11)
O1_5 O 0.97027(15) 0.96631(14) 0.65754(8)
C7_5 C 0.9961(2) 0.7798(2) 0.72405(11)
C8_5 C 0.9923(2) 0.8112(2) 0.75223(12)
H5_5 H 0.9875 0.8510 0.7523
C9_5 C 0.9960(3) 0.7804(3) 0.77955(12)
H6_5 H 0.9931 0.7997 0.7985
Co4_4 Co 0.86778(3) 0.73215(3) 0.574934(13)
N11_5 N 0.87927(15) 0.79782(15) 0.60789(9)
N12_5 N 0.95218(15) 0.62927(15) 0.64211(9)
N14_5 N 0.92596(15) 0.80599(16) 0.62524(8)
N15_5 N 0.94401(16) 0.67596(15) 0.62476(8)
N17_5 N 0.92077(15) 0.85268(16) 0.64321(8)
N18_5 N 0.89732(16) 0.67077(15) 0.60679(8)
N21_5 N 0.95246(16) 0.74378(16) 0.55639(8)
N22_8 N 1.0000 0.7500 0.57371(11)
N23_5 N 0.5600(2) 0.9215(3) 0.69177(13)
N26_3 N 0.54154(17) 0.91762(18) 0.79191(10)
N29_4 N 0.83238(18) 0.79154(17) 0.54191(10)
N30_4 N 0.95846(17) 0.58238(18) 0.70809(10)
N31_4 N 0.91825(16) 0.90235(18) 0.70952(9)
N34_4 N 0.84765(18) 0.66825(16) 0.54048(9)
N36_5 N 0.9048(2) 0.9523(2) 0.80689(12)
O3_5 O 0.78369(14) 0.72027(15) 0.59246(8)
C23_5 C 0.84129(19) 0.84164(19) 0.61480(10)
C24_5 C 0.90836(19) 0.59129(19) 0.63520(10)
C26_5 C 0.7854(2) 0.8534(2) 0.60394(11)
C27_5 C 0.8966(2) 0.5354(2) 0.64606(11)
H12_5 H 0.7676 0.8301 0.5891
H13_5 H 0.9199 0.5176 0.6609
C29_5 C 0.7586(2) 0.9002(2) 0.61601(12)
C30_5 C 0.8498(2) 0.5086(2) 0.63399(12)
H15_5 H 0.7213 0.9088 0.6095
H16_5 H 0.8412 0.4713 0.6405
C32_5 C 0.7854(2) 0.9363(2) 0.63816(13)
C33_5 C 0.8137(2) 0.5354(2) 0.61184(13)
H18_5 H 0.7655 0.9683 0.6457
H19_5 H 0.7817 0.5155 0.6043
C35_5 C 0.8409(2) 0.9254(2) 0.64890(12)
C36_5 C 0.8246(2) 0.5909(2) 0.60110(12)
H21_5 H 0.8591 0.9495 0.6632
H22_5 H 0.8005 0.6091 0.5868
C38_5 C 0.86793(19) 0.8763(2) 0.63703(11)
C39_5 C 0.8737(2) 0.61793(19) 0.61297(11)
C42_5 C 0.9702(2) 0.7461(2) 0.52595(11)
C45_5 C 0.9388(2) 0.7423(2) 0.49777(12)
H25_5 H 0.8990 0.7375 0.4977
C48_5 C 0.9696(3) 0.7460(3) 0.47045(12)
H28_5 H 0.9503 0.7431 0.4515
C49_5 C 0.5815(2) 0.9250(2) 0.71571(13)
C52_5 C 0.57273(19) 0.9244(2) 0.77136(12)
C55_5 C 0.6090(2) 0.9285(2) 0.74504(11)
C58_5 C 0.6699(2) 0.9289(2) 0.74786(12)
C61_5 C 0.6975(2) 0.9376(3) 0.77684(12)
H29_5 H 0.6750 0.9431 0.7946
C64_5 C 0.7558(2) 0.9381(2) 0.77961(12)
H32_5 H 0.7726 0.9447 0.7990
C67_5 C 0.7916(2) 0.9285(2) 0.75293(12)
C70_5 C 0.7642(2) 0.9177(3) 0.72430(12)
H35_5 H 0.7866 0.9102 0.7067
C73_5 C 0.7056(2) 0.9180(3) 0.72157(13)
H38_5 H 0.6887 0.9110 0.7022
C76_5 C 0.8529(2) 0.9290(2) 0.75558(11)
C79_5 C 0.88878(19) 0.9146(2) 0.73012(11)
C82_5 C 0.8824(2) 0.9418(2) 0.78356(13)
Co7 Co 0.01785(3) 0.11778(3) 0.324934(13)
Co1_5 Co 0.51785(3) 0.11778(3) 0.175066(13)
Co2_9 Co 0.5000 0.2500 0.1250
N1_6 N 0.45218(15) 0.12927(15) 0.14211(9)
N2_6 N 0.44401(16) 0.17596(15) 0.12476(8)
N3_6 N 0.39732(16) 0.17077(15) 0.10679(8)
N4_6 N 0.50622(16) 0.20246(16) 0.19361(8)
N5_9 N 0.5000 0.2500 0.17629(11)
N6_6 N 0.4400(2) 0.0785(3) 0.30823(13)
N7_5 N 0.45846(17) 0.08238(18) 0.20809(10)
N8_4 N 0.08175(16) 0.09765(18) 0.29048(9)
N9_6 N 0.0952(2) 0.0477(2) 0.19311(12)
O1_6 O 0.52973(15) 0.03369(14) 0.15754(8)
C1_6 C 0.40836(19) 0.09129(19) 0.13520(10)
C2_6 C 0.3966(2) 0.0354(2) 0.14606(11)
H1_6 H 0.4199 0.0176 0.1609
C3_6 C 0.3498(2) 0.0086(2) 0.13399(12)
C4_6 C 0.3137(2) 0.0354(2) 0.11184(13)
H3_6 H 0.2817 0.0155 0.1043
C5_6 C 0.3246(2) 0.0909(2) 0.10110(12)
H4_6 H 0.3005 0.1091 0.0868
C6_6 C 0.3737(2) 0.11793(19) 0.11297(11)
C7_6 C 0.5039(2) 0.2202(2) 0.22405(11)
C8_6 C 0.5077(2) 0.1888(2) 0.25223(12)
H5_6 H 0.5125 0.1490 0.2523
C9_6 C 0.5040(3) 0.2196(3) 0.27955(12)
H6_6 H 0.5069 0.2003 0.2985
C10_6 C 0.4185(2) 0.0750(2) 0.28429(13)
C11_6 C 0.42727(19) 0.0756(2) 0.22864(12)
C12_6 C 0.3910(2) 0.0715(2) 0.25496(11)
C13_6 C 0.3301(2) 0.0711(2) 0.25214(12)
C14_6 C 0.3025(2) 0.0624(3) 0.22316(12)
H7_6 H 0.3250 0.0569 0.2054
C15_6 C 0.2442(2) 0.0619(2) 0.22039(12)
H8_6 H 0.2274 0.0553 0.2010
C16_6 C 0.2084(2) 0.0715(2) 0.24707(12)
C17_6 C 0.2358(2) 0.0823(3) 0.27570(12)
H9_6 H 0.2134 0.0898 0.2933
C18_6 C 0.2944(2) 0.0820(3) 0.27843(13)
H10_6 H 0.3113 0.0890 0.2978
C19_6 C 0.1471(2) 0.0710(2) 0.24442(11)
C20_6 C 0.11122(19) 0.0854(2) 0.26988(11)
C21_6 C 0.1176(2) 0.0582(2) 0.21644(13)
Co3_5 Co 0.36778(3) 0.23215(3) 0.074934(13)
Co4_5 Co 0.63222(3) 0.26785(3) 0.074934(13)
Co5_5 Co 0.48215(3) 0.38222(3) 0.175066(13)
N10_6 N 0.37927(15) 0.29782(15) 0.10789(9)
N11_6 N 0.62073(15) 0.20218(15) 0.10789(9)
N12_6 N 0.54782(15) 0.37073(15) 0.14211(9)
N13_6 N 0.42596(15) 0.30599(16) 0.12524(8)
N14_6 N 0.57404(15) 0.19401(16) 0.12524(8)
N15_6 N 0.55599(16) 0.32404(15) 0.12476(8)
N16_6 N 0.42077(15) 0.35268(16) 0.14321(8)
N17_6 N 0.57923(15) 0.14732(16) 0.14321(8)
N18_6 N 0.60268(16) 0.32923(15) 0.10679(8)
N19_6 N 0.49378(16) 0.29754(16) 0.19361(8)
N20_6 N 0.45246(16) 0.24378(16) 0.05639(8)
N21_6 N 0.54754(16) 0.25622(16) 0.05639(8)
N22_9 N 0.5000 0.2500 0.07371(11)
N23_6 N 0.9400(2) 0.0785(3) 0.19177(13)
N26_4 N 0.95846(17) 0.08238(18) 0.29191(10)
N27_5 N 0.33238(18) 0.29154(17) 0.04191(10)
N29_5 N 0.66762(18) 0.20846(17) 0.04191(10)
N30_5 N 0.54154(17) 0.41762(18) 0.20809(10)
N31_5 N 0.58175(16) 0.09765(18) 0.20952(9)
N33_5 N 0.34765(18) 0.16825(16) 0.04048(9)
N34_5 N 0.65235(18) 0.33175(16) 0.04048(9)
N35_5 N 0.41825(16) 0.40235(18) 0.20952(9)
N36_6 N 0.5952(2) 0.0477(2) 0.30689(12)
N37_6 N 0.2977(2) 0.6548(2) 0.05689(12)
O2_6 O 0.28369(14) 0.22027(15) 0.09246(8)
O3_6 O 0.71631(14) 0.27973(15) 0.09246(8)
O4_6 O 0.47027(15) 0.46631(14) 0.15754(8)
C22_6 C 0.34129(19) 0.34164(19) 0.11480(10)
C23_6 C 0.65871(19) 0.15836(19) 0.11480(10)
C24_6 C 0.59164(19) 0.40871(19) 0.13520(10)
C25_6 C 0.2854(2) 0.3534(2) 0.10394(11)
C26_6 C 0.7146(2) 0.1466(2) 0.10394(11)
C27_6 C 0.6034(2) 0.4646(2) 0.14606(11)
H11_6 H 0.2676 0.3301 0.0891
H12_6 H 0.7324 0.1699 0.0891
H13_6 H 0.5801 0.4824 0.1609
C28_6 C 0.2586(2) 0.4002(2) 0.11601(12)
C29_6 C 0.7414(2) 0.0998(2) 0.11601(12)
C30_6 C 0.6502(2) 0.4914(2) 0.13399(12)
H14_6 H 0.2213 0.4088 0.1095
H15_6 H 0.7787 0.0912 0.1095
H16_6 H 0.6588 0.5287 0.1405
C31_6 C 0.2854(2) 0.4363(2) 0.13816(13)
C32_6 C 0.7146(2) 0.0637(2) 0.13816(13)
C33_6 C 0.6863(2) 0.4646(2) 0.11184(13)
H17_6 H 0.2655 0.4683 0.1457
H18_6 H 0.7345 0.0317 0.1457
H19_6 H 0.7183 0.4845 0.1043
C34_6 C 0.3409(2) 0.4254(2) 0.14890(12)
C35_6 C 0.6591(2) 0.0746(2) 0.14890(12)
C36_6 C 0.6754(2) 0.4091(2) 0.10110(12)
H20_6 H 0.3591 0.4495 0.1632
H21_6 H 0.6409 0.0505 0.1632
H22_6 H 0.6995 0.3909 0.0868
C37_6 C 0.36793(19) 0.3763(2) 0.13703(11)
C38_6 C 0.63207(19) 0.1237(2) 0.13703(11)
C39_6 C 0.6263(2) 0.38207(19) 0.11297(11)
C40_6 C 0.4961(2) 0.2798(2) 0.22405(11)
C41_6 C 0.4702(2) 0.2461(2) 0.02595(11)
C42_6 C 0.5298(2) 0.2539(2) 0.02595(11)
C43_6 C 0.4923(2) 0.3112(2) 0.25223(12)
H23_6 H 0.4875 0.3510 0.2523
C46_6 C 0.4960(3) 0.2804(3) 0.27955(12)
H26_6 H 0.4931 0.2997 0.2985
C49_6 C 0.9185(2) 0.0750(2) 0.21571(13)
C52_6 C 0.92727(19) 0.0756(2) 0.27136(12)
C53_6 C 0.3256(2) 0.32273(19) 0.02136(12)
C55_6 C 0.8910(2) 0.0715(2) 0.24504(11)
C58_6 C 0.8301(2) 0.0711(2) 0.24786(12)
C61_6 C 0.8025(2) 0.0624(3) 0.27684(12)
C62_6 C 0.3124(3) 0.4475(2) 0.02684(12)
H29_6 H 0.8250 0.0569 0.2946
H30_6 H 0.3069 0.4250 0.0446
C64_6 C 0.7442(2) 0.0619(2) 0.27961(12)
C65_6 C 0.3119(2) 0.5058(2) 0.02961(12)
H32_6 H 0.7274 0.0553 0.2990
H33_6 H 0.3053 0.5226 0.0490
C67_6 C 0.7084(2) 0.0715(2) 0.25293(12)
C68_6 C 0.3215(2) 0.5416(2) 0.00293(12)
C70_6 C 0.7358(2) 0.0823(3) 0.22430(12)
C72_6 C 0.3323(3) 0.0142(2) 0.02570(12)
H35_6 H 0.7134 0.0898 0.2067
H37_6 H 0.3398 0.0366 0.0433
C73_6 C 0.7944(2) 0.0820(3) 0.22157(13)
H38_6 H 0.8113 0.0890 0.2022
C76_6 C 0.6471(2) 0.0710(2) 0.25558(11)
C77_6 C 0.3210(2) 0.6029(2) 0.00558(11)
C79_6 C 0.61122(19) 0.0854(2) 0.23012(11)
C81_6 C 0.3354(2) 0.13878(19) 0.01988(11)
C82_6 C 0.6176(2) 0.0582(2) 0.28356(13)
C83_6 C 0.3082(2) 0.6324(2) 0.03356(13)
Co8 Co 0.36778(3) 0.73215(3) 0.925066(13)
N24_6 N 0.3285(3) 0.3100(2) 0.94177(13)
N32_4 N 0.34765(18) 0.66825(16) 0.95952(9)
N38_6 N 0.2977(2) 0.1548(2) 0.94311(12)
C44_6 C 0.4388(2) 0.2423(2) 0.99777(12)
C45_6 C 0.5612(2) 0.2577(2) 0.99777(12)
H24_6 H 0.3990 0.2375 0.9977
H25_6 H 0.6010 0.2625 0.9977
C47_6 C 0.4696(3) 0.2460(3) 0.97045(12)
C48_6 C 0.5304(3) 0.2540(3) 0.97045(12)
H27_6 H 0.4503 0.2431 0.9515
H28_6 H 0.5497 0.2569 0.9515
C50_6 C 0.3250(2) 0.3315(2) 0.96571(13)
C56_6 C 0.3215(2) 0.3590(2) 0.99504(11)
C59_6 C 0.3211(2) 0.4199(2) 0.99786(12)
C66_6 C 0.3119(2) 0.0058(2) 0.97039(12)
H34_6 H 0.3053 0.0226 0.9510
C69_6 C 0.3215(2) 0.0416(2) 0.99707(12)
C71_6 C 0.3323(3) 0.5142(2) 0.97430(12)
H36_6 H 0.3398 0.5366 0.9567
C74_6 C 0.3320(3) 0.4556(2) 0.97157(13)
H39_6 H 0.3390 0.4387 0.9522
C78_6 C 0.3210(2) 0.1029(2) 0.99442(11)
C80_6 C 0.3354(2) 0.63878(19) 0.98012(11)
C84_6 C 0.3082(2) 0.1324(2) 0.96644(13)
H2_6 H 0.3412 0.9713 0.1405
N25_6 N 0.3285(3) 0.8100(2) 0.05823(13)
C51_6 C 0.3250(2) 0.8315(2) 0.03429(13)
C57_6 C 0.3215(2) 0.8590(2) 0.00496(11)
C60_6 C 0.3211(2) 0.9199(2) 0.00214(12)
C75_6 C 0.3320(3) 0.9556(2) 0.02843(13)
H40_6 H 0.3390 0.9387 0.0478
N28_4 N 0.33238(18) 0.79154(17) 0.95809(10)
C54_6 C 0.3256(2) 0.82273(19) 0.97864(12)
C63_6 C 0.3124(3) 0.9475(2) 0.97316(12)
H31_6 H 0.3069 0.9250 0.9554
N6_7 N 0.5600(2) 0.4215(3) 0.30823(13)
N8_5 N 0.91825(16) 0.40235(18) 0.29048(9)
N9_7 N 0.9048(2) 0.4523(2) 0.19311(12)
C10_7 C 0.5815(2) 0.4250(2) 0.28429(13)
C11_7 C 0.57273(19) 0.4244(2) 0.22864(12)
C12_7 C 0.6090(2) 0.4285(2) 0.25496(11)
C13_7 C 0.6699(2) 0.4289(2) 0.25214(12)
C14_7 C 0.6975(2) 0.4376(3) 0.22316(12)
H7_7 H 0.6750 0.4431 0.2054
C15_7 C 0.7558(2) 0.4381(2) 0.22039(12)
H8_7 H 0.7726 0.4447 0.2010
C16_7 C 0.7916(2) 0.4285(2) 0.24707(12)
C17_7 C 0.7642(2) 0.4177(3) 0.27570(12)
H9_7 H 0.7866 0.4102 0.2933
C18_7 C 0.7056(2) 0.4180(3) 0.27843(13)
H10_7 H 0.6887 0.4110 0.2978
C19_7 C 0.8529(2) 0.4290(2) 0.24442(11)
C20_7 C 0.88878(19) 0.4146(2) 0.26988(11)
C21_7 C 0.8824(2) 0.4418(2) 0.21644(13)
Co6_4 Co 0.98215(3) 0.38222(3) 0.324934(13)
N23_7 N 0.0600(2) 0.4215(3) 0.19177(13)
N25_7 N 0.6715(3) 0.6900(2) 0.05823(13)
N26_5 N 0.04154(17) 0.41762(18) 0.29191(10)
N36_7 N 0.4048(2) 0.4523(2) 0.30689(12)
C49_7 C 0.0815(2) 0.4250(2) 0.21571(13)
C51_7 C 0.6750(2) 0.6685(2) 0.03429(13)
C52_7 C 0.07273(19) 0.4244(2) 0.27136(12)
C53_7 C 0.6744(2) 0.17727(19) 0.02136(12)
C55_7 C 0.1090(2) 0.4285(2) 0.24504(11)
C57_7 C 0.6785(2) 0.6410(2) 0.00496(11)
C58_7 C 0.1699(2) 0.4289(2) 0.24786(12)
C60_7 C 0.6789(2) 0.5801(2) 0.00214(12)
C61_7 C 0.1975(2) 0.4376(3) 0.27684(12)
C62_7 C 0.6876(3) 0.0525(2) 0.02684(12)
H29_7 H 0.1750 0.4431 0.2946
H30_7 H 0.6931 0.0750 0.0446
C64_7 C 0.2558(2) 0.4381(2) 0.27961(12)
H32_7 H 0.2726 0.4447 0.2990
C67_7 C 0.2916(2) 0.4285(2) 0.25293(12)
C70_7 C 0.2642(2) 0.4177(3) 0.22430(12)
C72_7 C 0.6677(3) 0.4858(2) 0.02570(12)
H35_7 H 0.2866 0.4102 0.2067
H37_7 H 0.6602 0.4634 0.0433
C73_7 C 0.2056(2) 0.4180(3) 0.22157(13)
C75_7 C 0.6680(3) 0.5444(2) 0.02843(13)
H38_7 H 0.1887 0.4110 0.2022
H40_7 H 0.6610 0.5613 0.0478
C76_7 C 0.3529(2) 0.4290(2) 0.25558(11)
C79_7 C 0.38878(19) 0.4146(2) 0.23012(11)
C81_7 C 0.6646(2) 0.36122(19) 0.01988(11)
C82_7 C 0.3824(2) 0.4418(2) 0.28356(13)
Co9_4 Co 0.63222(3) 0.76785(3) 0.925066(13)
N24_7 N 0.6715(3) 0.1900(2) 0.94177(13)
N28_5 N 0.66762(18) 0.70846(17) 0.95809(10)
N38_7 N 0.7023(2) 0.3452(2) 0.94311(12)
C50_7 C 0.6750(2) 0.1685(2) 0.96571(13)
C54_7 C 0.6744(2) 0.67727(19) 0.97864(12)
C56_7 C 0.6785(2) 0.1410(2) 0.99504(11)
C59_7 C 0.6789(2) 0.0801(2) 0.99786(12)
C63_7 C 0.6876(3) 0.5525(2) 0.97316(12)
H31_7 H 0.6931 0.5750 0.9554
C66_7 C 0.6881(2) 0.4942(2) 0.97039(12)
H34_7 H 0.6947 0.4774 0.9510
C69_7 C 0.6785(2) 0.4584(2) 0.99707(12)
C74_7 C 0.6680(3) 0.0444(2) 0.97157(13)
H39_7 H 0.6610 0.0613 0.9522
C78_7 C 0.6790(2) 0.3971(2) 0.99442(11)
C84_7 C 0.6918(2) 0.3676(2) 0.96644(13)
N37_7 N 0.7023(2) 0.8452(2) 0.05689(12)
C65_7 C 0.6881(2) 0.9942(2) 0.02961(12)
H33_7 H 0.6947 0.9774 0.0490
C68_7 C 0.6785(2) 0.9584(2) 0.00293(12)
C77_7 C 0.6790(2) 0.8971(2) 0.00558(11)
C83_7 C 0.6918(2) 0.8676(2) 0.03356(13)
N32_5 N 0.65235(18) 0.83175(16) 0.95952(9)
C71_7 C 0.6677(3) 0.9858(2) 0.97430(12)
H36_7 H 0.6602 0.9634 0.9567
C80_7 C 0.6646(2) 0.86122(19) 0.98012(11)
H14_7 H 0.6588 0.0287 0.8595
C8_7 C 0.4388(2) 0.7423(2) 0.00223(12)
H5_7 H 0.3990 0.7375 0.0023
C9_7 C 0.4696(3) 0.7460(3) 0.02955(12)
H6_7 H 0.4503 0.7431 0.0485
C43_7 C 0.5612(2) 0.7577(2) 0.00223(12)
H23_7 H 0.6010 0.7625 0.0023
C46_7 C 0.5304(3) 0.7540(3) 0.02955(12)
H26_7 H 0.5497 0.7569 0.0485
Co2_10 Co 0.5000 0.7500 0.8750
N1_7 N 0.37927(15) 0.79782(15) 0.89211(9)
N2_7 N 0.42596(15) 0.80599(16) 0.87476(8)
N3_7 N 0.42077(15) 0.85268(16) 0.85679(8)
N4_7 N 0.45246(16) 0.74378(16) 0.94361(8)
N5_10 N 0.5000 0.7500 0.92629(11)
O1_7 O 0.28369(14) 0.72027(15) 0.90754(8)
C1_7 C 0.34129(19) 0.84164(19) 0.88520(10)
C2_7 C 0.2854(2) 0.8534(2) 0.89606(11)
H1_7 H 0.2676 0.8301 0.9109
C3_7 C 0.2586(2) 0.9002(2) 0.88399(12)
H2_7 H 0.2213 0.9088 0.8905
C4_7 C 0.2854(2) 0.9363(2) 0.86184(13)
H3_7 H 0.2655 0.9683 0.8543
C5_7 C 0.3409(2) 0.9254(2) 0.85110(12)
H4_7 H 0.3591 0.9495 0.8368
C6_7 C 0.36793(19) 0.8763(2) 0.86297(11)
C7_7 C 0.4702(2) 0.7461(2) 0.97405(11)
Co4_6 Co 0.51785(3) 0.61778(3) 0.824934(13)
N10_7 N 0.54782(15) 0.87073(15) 0.85789(9)
N11_7 N 0.45218(15) 0.62927(15) 0.85789(9)
N12_7 N 0.62073(15) 0.70218(15) 0.89211(9)
N13_7 N 0.55599(16) 0.82404(15) 0.87524(8)
N14_7 N 0.44401(16) 0.67596(15) 0.87524(8)
N15_7 N 0.57404(15) 0.69401(16) 0.87476(8)
N16_7 N 0.60268(16) 0.82923(15) 0.89321(8)
N17_7 N 0.39732(16) 0.67077(15) 0.89321(8)
N18_7 N 0.57923(15) 0.64732(16) 0.85679(8)
N19_7 N 0.54754(16) 0.75622(16) 0.94361(8)
N20_7 N 0.49378(16) 0.79754(16) 0.80639(8)
N21_7 N 0.50622(16) 0.70246(16) 0.80639(8)
N22_10 N 0.5000 0.7500 0.82371(11)
N29_6 N 0.45846(17) 0.58238(18) 0.79191(10)
N34_6 N 0.58175(16) 0.59765(18) 0.79048(9)
O2_7 O 0.47027(15) 0.96631(14) 0.84246(8)
O3_7 O 0.52973(15) 0.53369(14) 0.84246(8)
O4_7 O 0.71631(14) 0.77973(15) 0.90754(8)
C22_7 C 0.59164(19) 0.90871(19) 0.86480(10)
C23_7 C 0.40836(19) 0.59129(19) 0.86480(10)
C24_7 C 0.65871(19) 0.65836(19) 0.88520(10)
C25_7 C 0.6034(2) 0.9646(2) 0.85394(11)
C26_7 C 0.3966(2) 0.5354(2) 0.85394(11)
C27_7 C 0.7146(2) 0.6466(2) 0.89606(11)
H11_7 H 0.5801 0.9824 0.8391
H12_7 H 0.4199 0.5176 0.8391
H13_7 H 0.7324 0.6699 0.9109
C28_7 C 0.6502(2) 0.9914(2) 0.86601(12)
C29_7 C 0.3498(2) 0.5086(2) 0.86601(12)
C30_7 C 0.7414(2) 0.5998(2) 0.88399(12)
H15_7 H 0.3412 0.4713 0.8595
H16_7 H 0.7787 0.5912 0.8905
C31_7 C 0.6863(2) 0.9646(2) 0.88816(13)
C32_7 C 0.3137(2) 0.5354(2) 0.88816(13)
C33_7 C 0.7146(2) 0.5637(2) 0.86184(13)
H17_7 H 0.7183 0.9845 0.8957
H18_7 H 0.2817 0.5155 0.8957
H19_7 H 0.7345 0.5317 0.8543
C34_7 C 0.6754(2) 0.9091(2) 0.89890(12)
C35_7 C 0.3246(2) 0.5909(2) 0.89890(12)
C36_7 C 0.6591(2) 0.5746(2) 0.85110(12)
H20_7 H 0.6995 0.8909 0.9132
H21_7 H 0.3005 0.6091 0.9132
H22_7 H 0.6409 0.5505 0.8368
C37_7 C 0.6263(2) 0.88207(19) 0.88703(11)
C38_7 C 0.3737(2) 0.61793(19) 0.88703(11)
C39_7 C 0.63207(19) 0.6237(2) 0.86297(11)
C40_7 C 0.5298(2) 0.7539(2) 0.97405(11)
C41_7 C 0.4961(2) 0.7798(2) 0.77595(11)
C42_7 C 0.5039(2) 0.7202(2) 0.77595(11)
C44_7 C 0.4923(2) 0.8112(2) 0.74777(12)
C45_7 C 0.5077(2) 0.6888(2) 0.74777(12)
H24_7 H 0.4875 0.8510 0.7477
H25_7 H 0.5125 0.6490 0.7477
C47_7 C 0.4960(3) 0.7804(3) 0.72045(12)
C48_7 C 0.5040(3) 0.7196(3) 0.72045(12)
H27_7 H 0.4931 0.7997 0.7015
H28_7 H 0.5069 0.7003 0.7015
Co2_11 Co 0.0000 0.2500 0.3750
N1_8 N 0.12073(15) 0.20218(15) 0.39211(9)
N2_8 N 0.07404(15) 0.19401(16) 0.37476(8)
N3_8 N 0.07923(15) 0.14732(16) 0.35679(8)
N4_8 N 0.04754(16) 0.25622(16) 0.44361(8)
N5_11 N 0.0000 0.2500 0.42629(11)
O1_8 O 0.21631(14) 0.27973(15) 0.40754(8)
C1_8 C 0.15871(19) 0.15836(19) 0.38520(10)
C2_8 C 0.2146(2) 0.1466(2) 0.39606(11)
H1_8 H 0.2324 0.1699 0.4109
C3_8 C 0.2414(2) 0.0998(2) 0.38399(12)
H2_8 H 0.2787 0.0912 0.3905
C4_8 C 0.2146(2) 0.0637(2) 0.36184(13)
H3_8 H 0.2345 0.0317 0.3543
C5_8 C 0.1591(2) 0.0746(2) 0.35110(12)
H4_8 H 0.1409 0.0505 0.3368
C6_8 C 0.13207(19) 0.1237(2) 0.36297(11)
C7_8 C 0.0298(2) 0.2539(2) 0.47405(11)
C8_8 C 0.0612(2) 0.2577(2) 0.50223(12)
H5_8 H 0.1010 0.2625 0.5023
C9_8 C 0.0304(3) 0.2540(3) 0.52955(12)
H6_8 H 0.0497 0.2569 0.5485
N11_8 N 0.04782(15) 0.37073(15) 0.35789(9)
N14_8 N 0.05599(16) 0.32404(15) 0.37524(8)
N17_8 N 0.10268(16) 0.32923(15) 0.39321(8)
N20_8 N 0.00622(16) 0.20246(16) 0.30639(8)
N22_11 N 0.0000 0.2500 0.32371(11)
O2_8 O 0.02973(15) 0.03369(14) 0.34246(8)
C23_8 C 0.09164(19) 0.40871(19) 0.36480(10)
C26_8 C 0.1034(2) 0.4646(2) 0.35394(11)
H12_8 H 0.0801 0.4824 0.3391
C29_8 C 0.1502(2) 0.4914(2) 0.36601(12)
H15_8 H 0.1588 0.5287 0.3595
C32_8 C 0.1863(2) 0.4646(2) 0.38816(13)
H18_8 H 0.2183 0.4845 0.3957
C35_8 C 0.1754(2) 0.4091(2) 0.39890(12)
H21_8 H 0.1995 0.3909 0.4132
C38_8 C 0.1263(2) 0.38207(19) 0.38703(11)
C41_8 C 0.0039(2) 0.2202(2) 0.27595(11)
C44_8 C 0.0077(2) 0.1888(2) 0.24777(12)
H24_8 H 0.0125 0.1490 0.2477
C47_8 C 0.0040(3) 0.2196(3) 0.22045(12)
H27_8 H 0.0069 0.2003 0.2015
H47_5 H 0.00660422 0.4886 0.340047
Co2_12 Co 1.0000 0.2500 0.3750
N5_12 N 1.0000 0.2500 0.42629(11)
Co5_6 Co 0.86778(3) 0.23215(3) 0.425066(13)
N10_8 N 0.95218(15) 0.12927(15) 0.35789(9)
N12_8 N 0.87927(15) 0.29782(15) 0.39211(9)
N13_8 N 0.94401(16) 0.17596(15) 0.37524(8)
N15_8 N 0.92596(15) 0.30599(16) 0.37476(8)
N16_8 N 0.89732(16) 0.17077(15) 0.39321(8)
N18_8 N 0.92077(15) 0.35268(16) 0.35679(8)
N19_8 N 0.95246(16) 0.24378(16) 0.44361(8)
N21_8 N 0.99378(16) 0.29754(16) 0.30639(8)
N22_12 N 1.0000 0.2500 0.32371(11)
N30_6 N 0.83238(18) 0.29154(17) 0.45809(10)
N35_6 N 0.84765(18) 0.16825(16) 0.45952(9)
O3_8 O 0.97027(15) 0.46631(14) 0.34246(8)
O4_8 O 0.78369(14) 0.22027(15) 0.40754(8)
C22_8 C 0.90836(19) 0.09129(19) 0.36480(10)
C24_8 C 0.84129(19) 0.34164(19) 0.38520(10)
C25_8 C 0.8966(2) 0.0354(2) 0.35394(11)
C27_8 C 0.7854(2) 0.3534(2) 0.39606(11)
H11_8 H 0.9199 0.0176 0.3391
H13_8 H 0.7676 0.3301 0.4109
C28_8 C 0.8498(2) 0.0086(2) 0.36601(12)
C30_8 C 0.7586(2) 0.4002(2) 0.38399(12)
H16_8 H 0.7213 0.4088 0.3905
C31_8 C 0.8137(2) 0.0354(2) 0.38816(13)
C33_8 C 0.7854(2) 0.4363(2) 0.36184(13)
H17_8 H 0.7817 0.0155 0.3957
H19_8 H 0.7655 0.4683 0.3543
C34_8 C 0.8246(2) 0.0909(2) 0.39890(12)
C36_8 C 0.8409(2) 0.4254(2) 0.35110(12)
H20_8 H 0.8005 0.1091 0.4132
H22_8 H 0.8591 0.4495 0.3368
C37_8 C 0.8737(2) 0.11793(19) 0.38703(11)
C39_8 C 0.86793(19) 0.3763(2) 0.36297(11)
C40_8 C 0.9702(2) 0.2461(2) 0.47405(11)
C42_8 C 0.9961(2) 0.2798(2) 0.27595(11)
C43_8 C 0.9388(2) 0.2423(2) 0.50223(12)
C45_8 C 0.9923(2) 0.3112(2) 0.24777(12)
H23_8 H 0.8990 0.2375 0.5023
H25_8 H 0.9875 0.3510 0.2477
C46_8 C 0.9696(3) 0.2460(3) 0.52955(12)
C48_8 C 0.9960(3) 0.2804(3) 0.22045(12)
H26_8 H 0.9503 0.2431 0.5485
H28_8 H 0.9931 0.2997 0.2015
H14_8 H 0.8412 0.9713 0.3595
N6_8 N 0.8285(3) 0.3100(2) 0.55823(13)
N9_8 N 0.7977(2) 0.6548(2) 0.44311(12)
C10_8 C 0.8250(2) 0.3315(2) 0.53429(13)
C11_8 C 0.8256(2) 0.32273(19) 0.47864(12)
C12_8 C 0.8215(2) 0.3590(2) 0.50496(11)
C13_8 C 0.8211(2) 0.4199(2) 0.50214(12)
C14_8 C 0.8124(3) 0.4475(2) 0.47316(12)
H7_8 H 0.8069 0.4250 0.4554
C15_8 C 0.8119(2) 0.5058(2) 0.47039(12)
H8_8 H 0.8053 0.5226 0.4510
C16_8 C 0.8215(2) 0.5416(2) 0.49707(12)
C17_8 C 0.8323(3) 0.5142(2) 0.52570(12)
H9_8 H 0.8398 0.5366 0.5433
C18_8 C 0.8320(3) 0.4556(2) 0.52843(13)
H10_8 H 0.8390 0.4387 0.5478
C19_8 C 0.8210(2) 0.6029(2) 0.49442(11)
C20_8 C 0.8354(2) 0.63878(19) 0.51988(11)
C21_8 C 0.8082(2) 0.6324(2) 0.46644(13)
N36_8 N 0.7977(2) 0.1548(2) 0.55689(12)
C64_8 C 0.8119(2) 0.0058(2) 0.52961(12)
H32_8 H 0.8053 0.0226 0.5490
C67_8 C 0.8215(2) 0.0416(2) 0.50293(12)
C70_8 C 0.8323(3) 0.0142(2) 0.47430(12)
H35_8 H 0.8398 0.0366 0.4567
C76_8 C 0.8210(2) 0.1029(2) 0.50558(11)
C79_8 C 0.8354(2) 0.13878(19) 0.48012(11)
C82_8 C 0.8082(2) 0.1324(2) 0.53356(13)
H47_6 H 0.993396 0.0113998 0.340047
N23_8 N 0.8285(3) 0.8100(2) 0.44177(13)
C49_8 C 0.8250(2) 0.8315(2) 0.46571(13)
C52_8 C 0.8256(2) 0.82273(19) 0.52136(12)
C55_8 C 0.8215(2) 0.8590(2) 0.49504(11)
C58_8 C 0.8211(2) 0.9199(2) 0.49786(12)
C61_8 C 0.8124(3) 0.9475(2) 0.52684(12)
H29_8 H 0.8069 0.9250 0.5446
C73_8 C 0.8320(3) 0.9556(2) 0.47157(13)
H38_8 H 0.8390 0.9387 0.4522
N24_8 N 0.4400(2) 0.5785(3) 0.69177(13)
N25_8 N 0.9400(2) 0.5785(3) 0.80823(13)
N37_8 N 0.0952(2) 0.5477(2) 0.80689(12)
N38_8 N 0.5952(2) 0.5477(2) 0.69311(12)
C50_8 C 0.4185(2) 0.5750(2) 0.71571(13)
C51_8 C 0.9185(2) 0.5750(2) 0.78429(13)
C53_8 C 0.42727(19) 0.5756(2) 0.77136(12)
C54_8 C 0.92727(19) 0.5756(2) 0.72864(12)
C56_8 C 0.3910(2) 0.5715(2) 0.74504(11)
C57_8 C 0.8910(2) 0.5715(2) 0.75496(11)
C59_8 C 0.3301(2) 0.5711(2) 0.74786(12)
C60_8 C 0.8301(2) 0.5711(2) 0.75214(12)
C62_8 C 0.3025(2) 0.5624(3) 0.77684(12)
C63_8 C 0.8025(2) 0.5624(3) 0.72316(12)
H30_8 H 0.3250 0.5569 0.7946
H31_8 H 0.8250 0.5569 0.7054
C65_8 C 0.2442(2) 0.5619(2) 0.77961(12)
C66_8 C 0.7442(2) 0.5619(2) 0.72039(12)
H33_8 H 0.2274 0.5553 0.7990
H34_8 H 0.7274 0.5553 0.7010
C68_8 C 0.2084(2) 0.5715(2) 0.75293(12)
C69_8 C 0.7084(2) 0.5715(2) 0.74707(12)
C71_8 C 0.2358(2) 0.5823(3) 0.72430(12)
C72_8 C 0.7358(2) 0.5823(3) 0.77570(12)
H36_8 H 0.2134 0.5898 0.7067
H37_8 H 0.7134 0.5898 0.7933
C74_8 C 0.2944(2) 0.5820(3) 0.72157(13)
C75_8 C 0.7944(2) 0.5820(3) 0.77843(13)
H39_8 H 0.3113 0.5890 0.7022
H40_8 H 0.8113 0.5890 0.7978
C77_8 C 0.1471(2) 0.5710(2) 0.75558(11)
C78_8 C 0.6471(2) 0.5710(2) 0.74442(11)
C80_8 C 0.11122(19) 0.5854(2) 0.73012(11)
C81_8 C 0.61122(19) 0.5854(2) 0.76988(11)
C83_8 C 0.1176(2) 0.5582(2) 0.78356(13)
C84_8 C 0.6176(2) 0.5582(2) 0.71644(13)
H47_7 H 0.993396 0.5114 0.659953
H47_8 H 0.00660422 0.9886 0.659953
loop_
_geom_bond_atom_site_label_1
_geom_bond_atom_site_label_2
_geom_bond_site_symmetry_1
_geom_bond_site_symmetry_2
N9 C21 1_555 1_555
H8 C15 1_555 1_555
C16 C15 1_555 1_555
C19 C16 1_555 1_555
C21 C19 1_555 1_555
N8 C20 1_555 1_555
H9 C17 1_555 1_555
Co6 N8 1_555 1_555
Co1 N1 1_555 1_555
Co2 N2 1_555 1_555
N1 N2 1_555 1_555
N2 N3 1_555 1_555
N3 C6 1_555 1_555
N4 Co1 1_555 1_555
N5 Co2 1_555 1_555
N7 Co1 1_555 1_555
O1 Co1 1_555 1_555
C1 N1 1_555 1_555
C2 C1 1_555 1_555
H1 C2 1_555 1_555
C3 C2 1_555 1_555
H2 C3 1_555 1_555
C4 C3 1_555 1_555
H3 C4 1_555 1_555
C5 C4 1_555 1_555
H4 C5 1_555 1_555
C6 C1 1_555 1_555
C7 N4 1_555 1_555
C11 N7 1_555 1_555
H7 C14 1_555 1_555
Co3 N3 1_555 1_555
Co9 N28 1_555 1_555
N11 N14 1_555 1_555
N14 Co2 1_555 1_555
N17 Co1 1_555 1_555
N20 Co3 1_555 1_555
N22 Co2 1_555 1_555
N23 C49 1_555 1_555
N25 C51 1_555 1_555
N28 C54 1_555 1_555
N31 Co1 1_555 1_555
N33 Co3 1_555 1_555
N38 C84 1_555 1_555
O2 Co3 1_555 1_555
C23 N11 1_555 1_555
C26 C23 1_555 1_555
H12 C26 1_555 1_555
C29 C26 1_555 1_555
H15 C29 1_555 1_555
C32 C29 1_555 1_555
H18 C32 1_555 1_555
C35 C32 1_555 1_555
H21 C35 1_555 1_555
C38 N17 1_555 1_555
C41 N20 1_555 1_555
C44 C41 1_555 1_555
H24 C44 1_555 1_555
C47 C44 1_555 1_555
H27 C47 1_555 1_555
C49 C55 1_555 1_555
C51 C57 1_555 1_555
C54 C57 1_555 1_555
C55 C58 1_555 1_555
C57 C60 1_555 1_555
C60 C63 1_555 1_555
C63 H31 1_555 1_555
C66 C63 1_555 1_555
H34 C66 1_555 1_555
C69 C66 1_555 1_555
C72 C69 1_555 1_555
H35 C70 1_555 1_555
H37 C72 1_555 1_555
C73 C58 1_555 1_555
C75 C60 1_555 1_555
H38 C73 1_555 1_555
H40 C75 1_555 1_555
C78 C69 1_555 1_555
C79 N31 1_555 1_555
C81 N33 1_555 1_555
C84 C78 1_555 1_555
N4 N5 1_555 1_555
C5 C6 1_555 1_555
N14 N17 1_555 1_555
N20 N22 1_555 1_555
C23 C38 1_555 1_555
C35 C38 1_555 1_555
C70 C73 1_555 1_555
C72 C75 1_555 1_555
C78 C81 1_555 1_555
N6 C10 1_555 1_555
H5 C8 1_555 1_555
C9 C8 1_555 1_555
H6 C9 1_555 1_555
C10 C12 1_555 1_555
C13 C12 1_555 1_555
C18 C13 1_555 1_555
H10 C18 1_555 1_555
Co6 N26 1_555 1_555
N26 C52 1_555 1_555
N36 C82 1_555 1_555
C61 H29 1_555 1_555
C64 C61 1_555 1_555
H32 C64 1_555 1_555
C67 C64 1_555 1_555
C76 C67 1_555 1_555
C82 C76 1_555 1_555
N5_2 Co2_2 1_555 1_555
Co5 N12 1_555 1_555
Co9 N32 1_555 1_555
N12 N15 1_555 1_555
N13 Co2_2 1_555 1_555
N15 Co2_2 1_555 1_555
N16 Co5 1_555 1_555
N18 Co4 1_555 1_555
N19 N5_2 1_555 1_555
N21 Co4 1_555 1_555
N22_2 Co2_2 1_555 1_555
N24 C50 1_555 1_555
N30 Co5 1_555 1_555
N32 C80 1_555 1_555
N34 Co4 1_555 1_555
N35 Co5 1_555 1_555
N37 C83 1_555 1_555
O3 Co4 1_555 1_555
O4 Co5 1_555 1_555
C22 N10 1_555 1_555
C24 N12 1_555 1_555
C25 C22 1_555 1_555
C27 C24 1_555 1_555
H11 C25 1_555 1_555
H13 C27 1_555 1_555
C28 C25 1_555 1_555
C30 C27 1_555 1_555
H16 C30 1_555 1_555
C31 C28 1_555 1_555
C33 C30 1_555 1_555
H17 C31 1_555 1_555
H19 C33 1_555 1_555
C34 C31 1_555 1_555
C36 C33 1_555 1_555
H20 C34 1_555 1_555
H22 C36 1_555 1_555
C37 N16 1_555 1_555
C39 N18 1_555 1_555
C42 N21 1_555 1_555
C45 C42 1_555 1_555
H25 C45 1_555 1_555
C48 C45 1_555 1_555
H28 C48 1_555 1_555
C50 C56 1_555 1_555
C53 N27 1_555 1_555
C56 C53 1_555 1_555
C59 C56 1_555 1_555
C62 C59 1_555 1_555
H30 C62 1_555 1_555
C65 C62 1_555 1_555
H33 C65 1_555 1_555
C68 C65 1_555 1_555
C71 C68 1_555 1_555
H36 C71 1_555 1_555
C74 C59 1_555 1_555
H39 C74 1_555 1_555
C77 C68 1_555 1_555
C80 C77 1_555 1_555
C83 C77 1_555 1_555
Co5 N19 1_555 1_555
N10 N13 1_555 1_555
N13 N16 1_555 1_555
N15 N18 1_555 1_555
N19 C40 1_555 1_555
N21 N22_2 1_555 1_555
C22 C37 1_555 1_555
C24 C39 1_555 1_555
C34 C37 1_555 1_555
C36 C39 1_555 1_555
C71 C74 1_555 1_555
H23 C43 1_555 1_555
H26 C46 1_555 1_555
C43 C46 1_555 1_555
Co9_2 N28_2 1_555 1_555
N25_2 C51_2 1_555 1_555
N28_2 C54_2 1_555 1_555
C51_2 C57_2 1_555 1_555
C54_2 C57_2 1_555 1_555
C57_2 C60_2 1_555 1_555
C60_2 C63_2 1_555 1_555
C63_2 H31_2 1_555 1_555
C75_2 C60_2 1_555 1_555
H40_2 C75_2 1_555 1_555
Co9 N1_2 1_555 1_555
Co2_3 N2_2 1_555 1_555
N1_2 N2_2 1_555 1_555
N2_2 N3_2 1_555 1_555
N3_2 C6_2 1_555 1_555
N4_2 Co9 1_555 1_555
N5_3 Co2_3 1_555 1_555
O1_2 Co9 1_555 1_555
C1_2 N1_2 1_555 1_555
C2_2 C1_2 1_555 1_555
H1_2 C2_2 1_555 1_555
C3_2 C2_2 1_555 1_555
C4_2 C3_2 1_555 1_555
H3_2 C4_2 1_555 1_555
C5_2 C4_2 1_555 1_555
H4_2 C5_2 1_555 1_555
C6_2 C1_2 1_555 1_555
C7_2 N4_2 1_555 1_555
C8_2 C7_2 1_555 1_555
H5_2 C8_2 1_555 1_555
C9_2 C8_2 1_555 1_555
H6_2 C9_2 1_555 1_555
Co3_2 N3_2 1_555 1_555
Co4_2 N11_2 1_555 1_555
Co5_2 N12_2 1_555 1_555
Co9_2 N32_2 1_555 1_555
N10_2 Co3_2 1_555 1_555
N11_2 N14_2 1_555 1_555
N12_2 N15_2 1_555 1_555
N13_2 Co2_3 1_555 1_555
N14_2 Co2_3 1_555 1_555
N15_2 Co2_3 1_555 1_555
N16_2 Co5_2 1_555 1_555
N17_2 Co9 1_555 1_555
N18_2 Co4_2 1_555 1_555
N19_2 N5_3 1_555 1_555
N20_2 Co3_2 1_555 1_555
N21_2 Co4_2 1_555 1_555
N22_3 Co2_3 1_555 1_555
N24_2 C50_2 1_555 1_555
N27_2 Co3_2 1_555 1_555
N29_2 Co4_2 1_555 1_555
N30_2 Co5_2 1_555 1_555
N32_2 C80_2 1_555 1_555
N33_2 Co3_2 1_555 1_555
N34_2 Co4_2 1_555 1_555
N35_2 Co5_2 1_555 1_555
N37_2 C83_2 1_555 1_555
N38_2 C84_2 1_555 1_555
O2_2 Co3_2 1_555 1_555
O3_2 Co4_2 1_555 1_555
O4_2 Co5_2 1_555 1_555
C22_2 N10_2 1_555 1_555
C23_2 N11_2 1_555 1_555
C24_2 N12_2 1_555 1_555
C25_2 C22_2 1_555 1_555
C26_2 C23_2 1_555 1_555
C27_2 C24_2 1_555 1_555
H11_2 C25_2 1_555 1_555
H12_2 C26_2 1_555 1_555
H13_2 C27_2 1_555 1_555
C28_2 C25_2 1_555 1_555
C29_2 C26_2 1_555 1_555
C30_2 C27_2 1_555 1_555
H14_2 C28_2 1_555 1_555
H15_2 C29_2 1_555 1_555
H16_2 C30_2 1_555 1_555
C31_2 C28_2 1_555 1_555
C32_2 C29_2 1_555 1_555
C33_2 C30_2 1_555 1_555
H17_2 C31_2 1_555 1_555
H18_2 C32_2 1_555 1_555
H19_2 C33_2 1_555 1_555
C34_2 C31_2 1_555 1_555
C35_2 C32_2 1_555 1_555
C36_2 C33_2 1_555 1_555
H20_2 C34_2 1_555 1_555
H21_2 C35_2 1_555 1_555
H22_2 C36_2 1_555 1_555
C37_2 N16_2 1_555 1_555
C38_2 N17_2 1_555 1_555
C39_2 N18_2 1_555 1_555
C40_2 C7_2 1_555 1_555
C41_2 N20_2 1_555 1_555
C42_2 N21_2 1_555 1_555
C43_2 C40_2 1_555 1_555
C44_2 C41_2 1_555 1_555
C45_2 C42_2 1_555 1_555
H23_2 C43_2 1_555 1_555
H24_2 C44_2 1_555 1_555
H25_2 C45_2 1_555 1_555
C46_2 C9_2 1_555 1_555
C47_2 C44_2 1_555 1_555
C48_2 C45_2 1_555 1_555
H26_2 C46_2 1_555 1_555
H27_2 C47_2 1_555 1_555
H28_2 C48_2 1_555 1_555
C50_2 C56_2 1_555 1_555
C53_2 N27_2 1_555 1_555
C56_2 C53_2 1_555 1_555
C59_2 C56_2 1_555 1_555
C62_2 C59_2 1_555 1_555
H30_2 C62_2 1_555 1_555
C65_2 C62_2 1_555 1_555
H33_2 C65_2 1_555 1_555
H34_2 C66_2 1_555 1_555
C68_2 C65_2 1_555 1_555
C69_2 C66_2 1_555 1_555
C71_2 C68_2 1_555 1_555
C72_2 C69_2 1_555 1_555
H36_2 C71_2 1_555 1_555
H37_2 C72_2 1_555 1_555
C74_2 C59_2 1_555 1_555
H39_2 C74_2 1_555 1_555
C77_2 C68_2 1_555 1_555
C78_2 C69_2 1_555 1_555
C80_2 C77_2 1_555 1_555
C81_2 N33_2 1_555 1_555
C83_2 C77_2 1_555 1_555
C84_2 C78_2 1_555 1_555
N4_2 N5_3 1_555 1_555
C5_2 C6_2 1_555 1_555
Co5_2 N19_2 1_555 1_555
N10_2 N13_2 1_555 1_555
N13_2 N16_2 1_555 1_555
N14_2 N17_2 1_555 1_555
N15_2 N18_2 1_555 1_555
N19_2 C40_2 1_555 1_555
N20_2 N22_3 1_555 1_555
N21_2 N22_3 1_555 1_555
C22_2 C37_2 1_555 1_555
C23_2 C38_2 1_555 1_555
C24_2 C39_2 1_555 1_555
C34_2 C37_2 1_555 1_555
C35_2 C38_2 1_555 1_555
C36_2 C39_2 1_555 1_555
C41_2 C42_2 1_555 1_555
C43_2 C46_2 1_555 1_555
C47_2 C48_2 1_555 1_555
C71_2 C74_2 1_555 1_555
C78_2 C81_2 1_555 1_555
H24_3 C44_3 1_555 1_555
C47_3 C44_3 1_555 1_555
H27_3 C47_3 1_555 1_555
Co2_4 N2_3 1_555 1_555
N1_3 N2_3 1_555 1_555
N2_3 N3_3 1_555 1_555
N3_3 C6_3 1_555 1_555
N5_4 Co2_4 1_555 1_555
N6_2 C10_2 1_555 1_555
N8_2 C20_2 1_555 1_555
N9_2 C21_2 1_555 1_555
C1_3 N1_3 1_555 1_555
C2_3 C1_3 1_555 1_555
H1_3 C2_3 1_555 1_555
C3_3 C2_3 1_555 1_555
C4_3 C3_3 1_555 1_555
H3_3 C4_3 1_555 1_555
C5_3 C4_3 1_555 1_555
H4_3 C5_3 1_555 1_555
C6_3 C1_3 1_555 1_555
C10_2 C12_2 1_555 1_555
C11_2 N7_2 1_555 1_555
C12_2 C11_2 1_555 1_555
C13_2 C12_2 1_555 1_555
C14_2 C13_2 1_555 1_555
H7_2 C14_2 1_555 1_555
C15_2 C14_2 1_555 1_555
H8_2 C15_2 1_555 1_555
C16_2 C15_2 1_555 1_555
C17_2 C16_2 1_555 1_555
H9_2 C17_2 1_555 1_555
C18_2 C13_2 1_555 1_555
H10_2 C18_2 1_555 1_555
C19_2 C16_2 1_555 1_555
C20_2 C19_2 1_555 1_555
C21_2 C19_2 1_555 1_555
Co6 N3_3 1_555 1_555
Co6_2 N8_2 1_555 1_555
N10_3 Co6 1_555 1_555
N13_3 Co2_4 1_555 1_555
N16_3 Co5_3 1_555 1_555
N19_3 N5_4 1_555 1_555
N20_3 Co6 1_555 1_555
N22_4 Co2_4 1_555 1_555
N35_3 Co5_3 1_555 1_555
O2_3 Co6 1_555 1_555
O4_3 Co5_3 1_555 1_555
C22_3 N10_3 1_555 1_555
C25_3 C22_3 1_555 1_555
H11_3 C25_3 1_555 1_555
C28_3 C25_3 1_555 1_555
H14_3 C28_3 1_555 1_555
C31_3 C28_3 1_555 1_555
H17_3 C31_3 1_555 1_555
C34_3 C31_3 1_555 1_555
H20_3 C34_3 1_555 1_555
C37_3 N16_3 1_555 1_555
C41_3 N20_3 1_555 1_555
C43_3 C40_3 1_555 1_555
H23_3 C43_3 1_555 1_555
H26_3 C46_3 1_555 1_555
C5_3 C6_3 1_555 1_555
C17_2 C18_2 1_555 1_555
Co5_3 N19_3 1_555 1_555
N10_3 N13_3 1_555 1_555
N13_3 N16_3 1_555 1_555
N19_3 C40_3 1_555 1_555
N20_3 N22_4 1_555 1_555
C22_3 C37_3 1_555 1_555
C34_3 C37_3 1_555 1_555
C43_3 C46_3 1_555 1_555
H25_3 C45_3 1_555 1_555
C48_3 C45_3 1_555 1_555
H28_3 C48_3 1_555 1_555
N4_3 Co1_2 1_555 1_555
N5_5 Co2_5 1_555 1_555
O1_3 Co1_2 1_555 1_555
C7_3 N4_3 1_555 1_555
C8_3 C7_3 1_555 1_555
H5_3 C8_3 1_555 1_555
C9_3 C8_3 1_555 1_555
H6_3 C9_3 1_555 1_555
Co4_3 N11_3 1_555 1_555
Co6_2 N26_2 1_555 1_555
N11_3 N14_3 1_555 1_555
N12_3 N15_3 1_555 1_555
N14_3 Co2_5 1_555 1_555
N15_3 Co2_5 1_555 1_555
N17_3 Co1_2 1_555 1_555
N18_3 Co4_3 1_555 1_555
N21_3 Co4_3 1_555 1_555
N22_5 Co2_5 1_555 1_555
N23_2 C49_2 1_555 1_555
N26_2 C52_2 1_555 1_555
N29_3 Co4_3 1_555 1_555
N31_2 Co1_2 1_555 1_555
N34_3 Co4_3 1_555 1_555
N36_2 C82_2 1_555 1_555
O3_3 Co4_3 1_555 1_555
C23_3 N11_3 1_555 1_555
C24_3 N12_3 1_555 1_555
C26_3 C23_3 1_555 1_555
C27_3 C24_3 1_555 1_555
H12_3 C26_3 1_555 1_555
H13_3 C27_3 1_555 1_555
C29_3 C26_3 1_555 1_555
C30_3 C27_3 1_555 1_555
H15_3 C29_3 1_555 1_555
H16_3 C30_3 1_555 1_555
C32_3 C29_3 1_555 1_555
C33_3 C30_3 1_555 1_555
H18_3 C32_3 1_555 1_555
H19_3 C33_3 1_555 1_555
C35_3 C32_3 1_555 1_555
C36_3 C33_3 1_555 1_555
H21_3 C35_3 1_555 1_555
H22_3 C36_3 1_555 1_555
C38_3 N17_3 1_555 1_555
C39_3 N18_3 1_555 1_555
C42_3 N21_3 1_555 1_555
C49_2 C55_2 1_555 1_555
C52_2 C55_2 1_555 1_555
C55_2 C58_2 1_555 1_555
C58_2 C61_2 1_555 1_555
C61_2 H29_2 1_555 1_555
C64_2 C61_2 1_555 1_555
H32_2 C64_2 1_555 1_555
C67_2 C64_2 1_555 1_555
C70_2 C67_2 1_555 1_555
H35_2 C70_2 1_555 1_555
C73_2 C58_2 1_555 1_555
H38_2 C73_2 1_555 1_555
C76_2 C67_2 1_555 1_555
C79_2 N31_2 1_555 1_555
C82_2 C76_2 1_555 1_555
N4_3 N5_5 1_555 1_555
N14_3 N17_3 1_555 1_555
N15_3 N18_3 1_555 1_555
N21_3 N22_5 1_555 1_555
C23_3 C38_3 1_555 1_555
C24_3 C39_3 1_555 1_555
C35_3 C38_3 1_555 1_555
C36_3 C39_3 1_555 1_555
C70_2 C73_2 1_555 1_555
C76_2 C79_2 1_555 1_555
Co1_3 N1_4 1_555 1_555
Co2_6 N2_4 1_555 1_555
N1_4 N2_4 1_555 1_555
N2_4 N3_4 1_555 1_555
N3_4 C6_4 1_555 1_555
N4_4 Co1_3 1_555 1_555
N5_6 Co2_6 1_555 1_555
N6_3 C10_3 1_555 1_555
N7_3 Co1_3 1_555 1_555
N34_2 C20_3 1_555 1_555
N9_3 C21_3 1_555 1_555
O1_4 Co1_3 1_555 1_555
C1_4 N1_4 1_555 1_555
C2_4 C1_4 1_555 1_555
H1_4 C2_4 1_555 1_555
C3_4 C2_4 1_555 1_555
H2_4 C3_4 1_555 1_555
C4_4 C3_4 1_555 1_555
H3_4 C4_4 1_555 1_555
C5_4 C4_4 1_555 1_555
H4_4 C5_4 1_555 1_555
C6_4 C1_4 1_555 1_555
C7_4 N4_4 1_555 1_555
C8_4 C7_4 1_555 1_555
H5_4 C8_4 1_555 1_555
C9_4 C8_4 1_555 1_555
H6_4 C9_4 1_555 1_555
C10_3 C12_3 1_555 1_555
C11_3 N7_3 1_555 1_555
C12_3 C11_3 1_555 1_555
C13_3 C12_3 1_555 1_555
C14_3 C13_3 1_555 1_555
H7_3 C14_3 1_555 1_555
C15_3 C14_3 1_555 1_555
H8_3 C15_3 1_555 1_555
C16_3 C15_3 1_555 1_555
C17_3 C16_3 1_555 1_555
H9_3 C17_3 1_555 1_555
C18_3 C13_3 1_555 1_555
H10_3 C18_3 1_555 1_555
C19_3 C16_3 1_555 1_555
C20_3 C19_3 1_555 1_555
C21_3 C19_3 1_555 1_555
Co3_3 N3_4 1_555 1_555
Co6_2 N11_4 1_555 1_555
Co9_2 N12_4 1_555 1_555
N10_4 Co3_3 1_555 1_555
N11_4 N14_4 1_555 1_555
N12_4 N15_4 1_555 1_555
N13_4 Co2_6 1_555 1_555
N14_4 Co2_6 1_555 1_555
N15_4 Co2_6 1_555 1_555
N16_4 Co9_2 1_555 1_555
N17_4 Co1_3 1_555 1_555
N18_4 Co6_2 1_555 1_555
N19_4 N5_6 1_555 1_555
N20_4 Co3_3 1_555 1_555
N21_4 Co6_2 1_555 1_555
N22_6 Co2_6 1_555 1_555
N24_3 C50_3 1_555 1_555
N25_3 C51_3 1_555 1_555
N27_3 Co3_3 1_555 1_555
N30_3 C54_3 1_555 1_555
N31_3 Co1_3 1_555 1_555
N35_3 C80_3 1_555 1_555
N33_3 Co3_3 1_555 1_555
N36_3 C82_3 1_555 1_555
N37_3 C83_3 1_555 1_555
N38_3 C84_3 1_555 1_555
O2_4 Co3_3 1_555 1_555
O3_4 Co6_2 1_555 1_555
O4_4 Co9_2 1_555 1_555
C22_4 N10_4 1_555 1_555
C23_4 N11_4 1_555 1_555
C24_4 N12_4 1_555 1_555
C25_4 C22_4 1_555 1_555
C26_4 C23_4 1_555 1_555
C27_4 C24_4 1_555 1_555
H11_4 C25_4 1_555 1_555
H12_4 C26_4 1_555 1_555
H13_4 C27_4 1_555 1_555
C28_4 C25_4 1_555 1_555
C29_4 C26_4 1_555 1_555
C30_4 C27_4 1_555 1_555
H14_4 C28_4 1_555 1_555
H16_4 C30_4 1_555 1_555
C31_4 C28_4 1_555 1_555
C32_4 C29_4 1_555 1_555
C33_4 C30_4 1_555 1_555
H17_4 C31_4 1_555 1_555
H18_4 C32_4 1_555 1_555
H19_4 C33_4 1_555 1_555
C34_4 C31_4 1_555 1_555
C35_4 C32_4 1_555 1_555
C36_4 C33_4 1_555 1_555
H20_4 C34_4 1_555 1_555
H21_4 C35_4 1_555 1_555
H22_4 C36_4 1_555 1_555
C37_4 N16_4 1_555 1_555
C38_4 N17_4 1_555 1_555
C39_4 N18_4 1_555 1_555
C40_4 C7_4 1_555 1_555
C41_4 N20_4 1_555 1_555
C42_4 N21_4 1_555 1_555
C43_4 C40_4 1_555 1_555
C44_4 C41_4 1_555 1_555
C45_4 C42_4 1_555 1_555
H23_4 C43_4 1_555 1_555
H24_4 C44_4 1_555 1_555
H25_4 C45_4 1_555 1_555
C46_4 C9_4 1_555 1_555
C47_4 C44_4 1_555 1_555
C48_4 C45_4 1_555 1_555
H26_4 C46_4 1_555 1_555
H27_4 C47_4 1_555 1_555
H28_4 C48_4 1_555 1_555
C50_3 C56_3 1_555 1_555
C51_3 C57_3 1_555 1_555
C53_3 N27_3 1_555 1_555
C54_3 C57_3 1_555 1_555
C56_3 C53_3 1_555 1_555
C57_3 C60_3 1_555 1_555
C59_3 C56_3 1_555 1_555
C60_3 C63_3 1_555 1_555
C62_3 C59_3 1_555 1_555
C63_3 H31_3 1_555 1_555
H30_3 C62_3 1_555 1_555
C65_3 C62_3 1_555 1_555
C66_3 C63_3 1_555 1_555
H32_3 C64_3 1_555 1_555
H33_3 C65_3 1_555 1_555
H34_3 C66_3 1_555 1_555
C67_3 C64_3 1_555 1_555
C68_3 C65_3 1_555 1_555
C69_3 C66_3 1_555 1_555
C70_3 C67_3 1_555 1_555
C71_3 C68_3 1_555 1_555
C72_3 C69_3 1_555 1_555
H35_3 C70_3 1_555 1_555
H36_3 C71_3 1_555 1_555
H37_3 C72_3 1_555 1_555
C74_3 C59_3 1_555 1_555
C75_3 C60_3 1_555 1_555
H39_3 C74_3 1_555 1_555
H40_3 C75_3 1_555 1_555
C76_3 C67_3 1_555 1_555
C77_3 C68_3 1_555 1_555
C78_3 C69_3 1_555 1_555
C79_3 N31_3 1_555 1_555
C80_3 C77_3 1_555 1_555
C81_3 N33_3 1_555 1_555
C82_3 C76_3 1_555 1_555
C83_3 C77_3 1_555 1_555
C84_3 C78_3 1_555 1_555
N4_4 N5_6 1_555 1_555
C5_4 C6_4 1_555 1_555
C17_3 C18_3 1_555 1_555
Co9_2 N19_4 1_555 1_555
N10_4 N13_4 1_555 1_555
N13_4 N16_4 1_555 1_555
N14_4 N17_4 1_555 1_555
N15_4 N18_4 1_555 1_555
N19_4 C40_4 1_555 1_555
N20_4 N22_6 1_555 1_555
N21_4 N22_6 1_555 1_555
C22_4 C37_4 1_555 1_555
C23_4 C38_4 1_555 1_555
C24_4 C39_4 1_555 1_555
C34_4 C37_4 1_555 1_555
C35_4 C38_4 1_555 1_555
C36_4 C39_4 1_555 1_555
C41_4 C42_4 1_555 1_555
C43_4 C46_4 1_555 1_555
C47_4 C48_4 1_555 1_555
C71_3 C74_3 1_555 1_555
C72_3 C75_3 1_555 1_555
C76_3 C79_3 1_555 1_555
C78_3 C81_3 1_555 1_555
N23_3 C49_3 1_555 1_555
N29_2 C52_3 1_555 1_555
C49_3 C55_3 1_555 1_555
C52_3 C55_3 1_555 1_555
C55_3 C58_3 1_555 1_555
C58_3 C61_3 1_555 1_555
C61_3 H29_3 1_555 1_555
C73_3 C58_3 1_555 1_555
H38_3 C73_3 1_555 1_555
N24_4 C50_4 1_555 1_555
N30 C54_4 1_555 1_555
N38_4 C84_4 1_555 1_555
C50_4 C56_4 1_555 1_555
C59_4 C56_4 1_555 1_555
C63_4 H31_4 1_555 1_555
C66_4 C63_4 1_555 1_555
H34_4 C66_4 1_555 1_555
C69_4 C66_4 1_555 1_555
C74_4 C59_4 1_555 1_555
H39_4 C74_4 1_555 1_555
C78_4 C69_4 1_555 1_555
C84_4 C78_4 1_555 1_555
N25_4 C51_4 1_555 1_555
C51_4 C57_4 1_555 1_555
C53_4 N29_3 1_555 1_555
C57_4 C60_4 1_555 1_555
H30_4 C62_4 1_555 1_555
H37_4 C72_4 1_555 1_555
C75_4 C60_4 1_555 1_555
H40_4 C75_4 1_555 1_555
C81_4 N34_3 1_555 1_555
C72_4 C75_4 1_555 1_555
N35 C80_4 1_555 1_555
H36_4 C71_4 1_555 1_555
N37_4 C83_4 1_555 1_555
H33_4 C65_4 1_555 1_555
C68_4 C65_4 1_555 1_555
C77_4 C68_4 1_555 1_555
C83_4 C77_4 1_555 1_555
N6_4 C10_4 1_555 1_555
N34 C20_4 1_555 1_555
N9_4 C21_4 1_555 1_555
C10_4 C12_4 1_555 1_555
C11_4 N30_2 1_555 1_555
C12_4 C11_4 1_555 1_555
C13_4 C12_4 1_555 1_555
C14_4 C13_4 1_555 1_555
H7_4 C14_4 1_555 1_555
C15_4 C14_4 1_555 1_555
H8_4 C15_4 1_555 1_555
C16_4 C15_4 1_555 1_555
C17_4 C16_4 1_555 1_555
H9_4 C17_4 1_555 1_555
C18_4 C13_4 1_555 1_555
H10_4 C18_4 1_555 1_555
C19_4 C16_4 1_555 1_555
C20_4 C19_4 1_555 1_555
C21_4 C19_4 1_555 1_555
N23_4 C49_4 1_555 1_555
N29 C52_4 1_555 1_555
N36_4 C82_4 1_555 1_555
C49_4 C55_4 1_555 1_555
C52_4 C55_4 1_555 1_555
C55_4 C58_4 1_555 1_555
C58_4 C61_4 1_555 1_555
C61_4 H29_4 1_555 1_555
C64_4 C61_4 1_555 1_555
H32_4 C64_4 1_555 1_555
C67_4 C64_4 1_555 1_555
C70_4 C67_4 1_555 1_555
H35_4 C70_4 1_555 1_555
C73_4 C58_4 1_555 1_555
H38_4 C73_4 1_555 1_555
C76_4 C67_4 1_555 1_555
C79_4 N35_2 1_555 1_555
C82_4 C76_4 1_555 1_555
C17_4 C18_4 1_555 1_555
C70_4 C73_4 1_555 1_555
C76_4 C79_4 1_555 1_555
Co9_3 N28_3 1_555 1_555
N25_5 C51_5 1_555 1_555
N28_3 C54_5 1_555 1_555
C51_5 C57_5 1_555 1_555
C54_5 C57_5 1_555 1_555
C57_5 C60_5 1_555 1_555
C60_5 C63_5 1_555 1_555
C63_5 H31_5 1_555 1_555
C75_5 C60_5 1_555 1_555
H40_5 C75_5 1_555 1_555
Co2_7 N2_5 1_555 1_555
N1_5 N2_5 1_555 1_555
N2_5 N3_5 1_555 1_555
N3_5 C6_5 1_555 1_555
N5_7 Co2_7 1_555 1_555
N6_5 C10_5 1_555 1_555
N8_3 C20_5 1_555 1_555
N9_5 C21_5 1_555 1_555
C1_5 N1_5 1_555 1_555
C2_5 C1_5 1_555 1_555
H1_5 C2_5 1_555 1_555
C3_5 C2_5 1_555 1_555
C4_5 C3_5 1_555 1_555
H3_5 C4_5 1_555 1_555
C5_5 C4_5 1_555 1_555
H4_5 C5_5 1_555 1_555
C6_5 C1_5 1_555 1_555
C10_5 C12_5 1_555 1_555
C11_5 N7_4 1_555 1_555
C12_5 C11_5 1_555 1_555
C13_5 C12_5 1_555 1_555
C14_5 C13_5 1_555 1_555
H7_5 C14_5 1_555 1_555
C15_5 C14_5 1_555 1_555
H8_5 C15_5 1_555 1_555
C16_5 C15_5 1_555 1_555
C17_5 C16_5 1_555 1_555
H9_5 C17_5 1_555 1_555
C18_5 C13_5 1_555 1_555
H10_5 C18_5 1_555 1_555
C19_5 C16_5 1_555 1_555
C20_5 C19_5 1_555 1_555
C21_5 C19_5 1_555 1_555
Co3_4 N3_5 1_555 1_555
Co6_3 N8_3 1_555 1_555
Co9_3 N32_3 1_555 1_555
N10_5 Co3_4 1_555 1_555
N13_5 Co2_7 1_555 1_555
N16_5 Co5_4 1_555 1_555
N19_5 N5_7 1_555 1_555
N20_5 Co3_4 1_555 1_555
N22_7 Co2_7 1_555 1_555
N24_5 C50_5 1_555 1_555
N27_4 Co3_4 1_555 1_555
N32_3 C80_5 1_555 1_555
N33_4 Co3_4 1_555 1_555
N35_4 Co5_4 1_555 1_555
N37_5 C83_5 1_555 1_555
N38_5 C84_5 1_555 1_555
O2_5 Co3_4 1_555 1_555
O4_5 Co5_4 1_555 1_555
C22_5 N10_5 1_555 1_555
C25_5 C22_5 1_555 1_555
H11_5 C25_5 1_555 1_555
C28_5 C25_5 1_555 1_555
H14_5 C28_5 1_555 1_555
C31_5 C28_5 1_555 1_555
H17_5 C31_5 1_555 1_555
C34_5 C31_5 1_555 1_555
H20_5 C34_5 1_555 1_555
C37_5 N16_5 1_555 1_555
C41_5 N20_5 1_555 1_555
C43_5 C40_5 1_555 1_555
C44_5 C41_5 1_555 1_555
H23_5 C43_5 1_555 1_555
H24_5 C44_5 1_555 1_555
C47_5 C44_5 1_555 1_555
H26_5 C46_5 1_555 1_555
H27_5 C47_5 1_555 1_555
C50_5 C56_5 1_555 1_555
C53_5 N27_4 1_555 1_555
C56_5 C53_5 1_555 1_555
C59_5 C56_5 1_555 1_555
C62_5 C59_5 1_555 1_555
H30_5 C62_5 1_555 1_555
C65_5 C62_5 1_555 1_555
H33_5 C65_5 1_555 1_555
H34_5 C66_5 1_555 1_555
C68_5 C65_5 1_555 1_555
C69_5 C66_5 1_555 1_555
C71_5 C68_5 1_555 1_555
C72_5 C69_5 1_555 1_555
H36_5 C71_5 1_555 1_555
H37_5 C72_5 1_555 1_555
C74_5 C59_5 1_555 1_555
H39_5 C74_5 1_555 1_555
C77_5 C68_5 1_555 1_555
C78_5 C69_5 1_555 1_555
C80_5 C77_5 1_555 1_555
C81_5 N33_4 1_555 1_555
C83_5 C77_5 1_555 1_555
C84_5 C78_5 1_555 1_555
C5_5 C6_5 1_555 1_555
C17_5 C18_5 1_555 1_555
Co5_4 N19_5 1_555 1_555
N10_5 N13_5 1_555 1_555
N13_5 N16_5 1_555 1_555
N19_5 C40_5 1_555 1_555
N20_5 N22_7 1_555 1_555
C22_5 C37_5 1_555 1_555
C34_5 C37_5 1_555 1_555
C43_5 C46_5 1_555 1_555
C71_5 C74_5 1_555 1_555
C78_5 C81_5 1_555 1_555
N4_5 Co1_4 1_555 1_555
N5_8 Co2_8 1_555 1_555
O1_5 Co1_4 1_555 1_555
C7_5 N4_5 1_555 1_555
C8_5 C7_5 1_555 1_555
H5_5 C8_5 1_555 1_555
C9_5 C8_5 1_555 1_555
H6_5 C9_5 1_555 1_555
Co4_4 N11_5 1_555 1_555
Co6_3 N26_3 1_555 1_555
N11_5 N14_5 1_555 1_555
N12_5 N15_5 1_555 1_555
N14_5 Co2_8 1_555 1_555
N15_5 Co2_8 1_555 1_555
N17_5 Co1_4 1_555 1_555
N18_5 Co4_4 1_555 1_555
N21_5 Co4_4 1_555 1_555
N22_8 Co2_8 1_555 1_555
N23_5 C49_5 1_555 1_555
N26_3 C52_5 1_555 1_555
N29_4 Co4_4 1_555 1_555
N31_4 Co1_4 1_555 1_555
N34_4 Co4_4 1_555 1_555
N36_5 C82_5 1_555 1_555
O3_5 Co4_4 1_555 1_555
C23_5 N11_5 1_555 1_555
C24_5 N12_5 1_555 1_555
C26_5 C23_5 1_555 1_555
C27_5 C24_5 1_555 1_555
H12_5 C26_5 1_555 1_555
H13_5 C27_5 1_555 1_555
C29_5 C26_5 1_555 1_555
C30_5 C27_5 1_555 1_555
H15_5 C29_5 1_555 1_555
H16_5 C30_5 1_555 1_555
C32_5 C29_5 1_555 1_555
C33_5 C30_5 1_555 1_555
H18_5 C32_5 1_555 1_555
H19_5 C33_5 1_555 1_555
C35_5 C32_5 1_555 1_555
C36_5 C33_5 1_555 1_555
H21_5 C35_5 1_555 1_555
H22_5 C36_5 1_555 1_555
C38_5 N17_5 1_555 1_555
C39_5 N18_5 1_555 1_555
C42_5 N21_5 1_555 1_555
C45_5 C42_5 1_555 1_555
H25_5 C45_5 1_555 1_555
C48_5 C45_5 1_555 1_555
H28_5 C48_5 1_555 1_555
C49_5 C55_5 1_555 1_555
C52_5 C55_5 1_555 1_555
C55_5 C58_5 1_555 1_555
C58_5 C61_5 1_555 1_555
C61_5 H29_5 1_555 1_555
C64_5 C61_5 1_555 1_555
H32_5 C64_5 1_555 1_555
C67_5 C64_5 1_555 1_555
C70_5 C67_5 1_555 1_555
H35_5 C70_5 1_555 1_555
C73_5 C58_5 1_555 1_555
H38_5 C73_5 1_555 1_555
C76_5 C67_5 1_555 1_555
C79_5 N31_4 1_555 1_555
C82_5 C76_5 1_555 1_555
N4_5 N5_8 1_555 1_555
N14_5 N17_5 1_555 1_555
N15_5 N18_5 1_555 1_555
N21_5 N22_8 1_555 1_555
C23_5 C38_5 1_555 1_555
C24_5 C39_5 1_555 1_555
C35_5 C38_5 1_555 1_555
C36_5 C39_5 1_555 1_555
C70_5 C73_5 1_555 1_555
C76_5 C79_5 1_555 1_555
Co1_5 N1_6 1_555 1_555
Co2_9 N2_6 1_555 1_555
N1_6 N2_6 1_555 1_555
N2_6 N3_6 1_555 1_555
N3_6 C6_6 1_555 1_555
N4_6 Co1_5 1_555 1_555
N5_9 Co2_9 1_555 1_555
N6_6 C10_6 1_555 1_555
N7_5 Co1_5 1_555 1_555
N8_4 C20_6 1_555 1_555
N9_6 C21_6 1_555 1_555
O1_6 Co1_5 1_555 1_555
C1_6 N1_6 1_555 1_555
C2_6 C1_6 1_555 1_555
H1_6 C2_6 1_555 1_555
C3_6 C2_6 1_555 1_555
C4_6 C3_6 1_555 1_555
H3_6 C4_6 1_555 1_555
C5_6 C4_6 1_555 1_555
H4_6 C5_6 1_555 1_555
C6_6 C1_6 1_555 1_555
C7_6 N4_6 1_555 1_555
C8_6 C7_6 1_555 1_555
H5_6 C8_6 1_555 1_555
C9_6 C8_6 1_555 1_555
H6_6 C9_6 1_555 1_555
C10_6 C12_6 1_555 1_555
C11_6 N7_5 1_555 1_555
C12_6 C11_6 1_555 1_555
C13_6 C12_6 1_555 1_555
C14_6 C13_6 1_555 1_555
H7_6 C14_6 1_555 1_555
C15_6 C14_6 1_555 1_555
H8_6 C15_6 1_555 1_555
C16_6 C15_6 1_555 1_555
C17_6 C16_6 1_555 1_555
H9_6 C17_6 1_555 1_555
C18_6 C13_6 1_555 1_555
H10_6 C18_6 1_555 1_555
C19_6 C16_6 1_555 1_555
C20_6 C19_6 1_555 1_555
C21_6 C19_6 1_555 1_555
Co3_5 N3_6 1_555 1_555
Co4_5 N11_6 1_555 1_555
Co5_5 N12_6 1_555 1_555
Co7 N8_4 1_555 1_555
N10_6 Co3_5 1_555 1_555
N11_6 N14_6 1_555 1_555
N12_6 N15_6 1_555 1_555
N13_6 Co2_9 1_555 1_555
N14_6 Co2_9 1_555 1_555
N15_6 Co2_9 1_555 1_555
N16_6 Co5_5 1_555 1_555
N17_6 Co1_5 1_555 1_555
N18_6 Co4_5 1_555 1_555
N19_6 N5_9 1_555 1_555
N20_6 Co3_5 1_555 1_555
N21_6 Co4_5 1_555 1_555
N22_9 Co2_9 1_555 1_555
N23_6 C49_6 1_555 1_555
N26_4 C52_6 1_555 1_555
N27_5 Co3_5 1_555 1_555
N29_5 Co4_5 1_555 1_555
N30_5 Co5_5 1_555 1_555
N31_5 Co1_5 1_555 1_555
N33_5 Co3_5 1_555 1_555
N34_5 Co4_5 1_555 1_555
N35_5 Co5_5 1_555 1_555
N36_6 C82_6 1_555 1_555
N37_6 C83_6 1_555 1_555
O2_6 Co3_5 1_555 1_555
O3_6 Co4_5 1_555 1_555
O4_6 Co5_5 1_555 1_555
C22_6 N10_6 1_555 1_555
C23_6 N11_6 1_555 1_555
C24_6 N12_6 1_555 1_555
C25_6 C22_6 1_555 1_555
C26_6 C23_6 1_555 1_555
C27_6 C24_6 1_555 1_555
H11_6 C25_6 1_555 1_555
H12_6 C26_6 1_555 1_555
H13_6 C27_6 1_555 1_555
C28_6 C25_6 1_555 1_555
C29_6 C26_6 1_555 1_555
C30_6 C27_6 1_555 1_555
H14_6 C28_6 1_555 1_555
H15_6 C29_6 1_555 1_555
H16_6 C30_6 1_555 1_555
C31_6 C28_6 1_555 1_555
C32_6 C29_6 1_555 1_555
C33_6 C30_6 1_555 1_555
H17_6 C31_6 1_555 1_555
H18_6 C32_6 1_555 1_555
H19_6 C33_6 1_555 1_555
C34_6 C31_6 1_555 1_555
C35_6 C32_6 1_555 1_555
C36_6 C33_6 1_555 1_555
H20_6 C34_6 1_555 1_555
H21_6 C35_6 1_555 1_555
H22_6 C36_6 1_555 1_555
C37_6 N16_6 1_555 1_555
C38_6 N17_6 1_555 1_555
C39_6 N18_6 1_555 1_555
C40_6 C7_6 1_555 1_555
C41_6 N20_6 1_555 1_555
C42_6 N21_6 1_555 1_555
C43_6 C40_6 1_555 1_555
H23_6 C43_6 1_555 1_555
C46_6 C9_6 1_555 1_555
H26_6 C46_6 1_555 1_555
C49_6 C55_6 1_555 1_555
C52_6 C55_6 1_555 1_555
C53_6 N27_5 1_555 1_555
C55_6 C58_6 1_555 1_555
C58_6 C61_6 1_555 1_555
C61_6 H29_6 1_555 1_555
H30_6 C62_6 1_555 1_555
C64_6 C61_6 1_555 1_555
C65_6 C62_6 1_555 1_555
H32_6 C64_6 1_555 1_555
H33_6 C65_6 1_555 1_555
C67_6 C64_6 1_555 1_555
C68_6 C65_6 1_555 1_555
C70_6 C67_6 1_555 1_555
H35_6 C70_6 1_555 1_555
H37_6 C72_6 1_555 1_555
C73_6 C58_6 1_555 1_555
H38_6 C73_6 1_555 1_555
C76_6 C67_6 1_555 1_555
C77_6 C68_6 1_555 1_555
C79_6 N31_5 1_555 1_555
C81_6 N33_5 1_555 1_555
C82_6 C76_6 1_555 1_555
C83_6 C77_6 1_555 1_555
N4_6 N5_9 1_555 1_555
C5_6 C6_6 1_555 1_555
C17_6 C18_6 1_555 1_555
Co5_5 N19_6 1_555 1_555
N10_6 N13_6 1_555 1_555
N13_6 N16_6 1_555 1_555
N14_6 N17_6 1_555 1_555
N15_6 N18_6 1_555 1_555
N19_6 C40_6 1_555 1_555
N20_6 N22_9 1_555 1_555
N21_6 N22_9 1_555 1_555
C22_6 C37_6 1_555 1_555
C23_6 C38_6 1_555 1_555
C24_6 C39_6 1_555 1_555
C34_6 C37_6 1_555 1_555
C35_6 C38_6 1_555 1_555
C36_6 C39_6 1_555 1_555
C41_6 C42_6 1_555 1_555
C43_6 C46_6 1_555 1_555
C70_6 C73_6 1_555 1_555
C76_6 C79_6 1_555 1_555
Co8 N32_4 1_555 1_555
N24_6 C50_6 1_555 1_555
N32_4 C80_6 1_555 1_555
N38_6 C84_6 1_555 1_555
H24_6 C44_6 1_555 1_555
H25_6 C45_6 1_555 1_555
C47_6 C44_6 1_555 1_555
C48_6 C45_6 1_555 1_555
H27_6 C47_6 1_555 1_555
H28_6 C48_6 1_555 1_555
C50_6 C56_6 1_555 1_555
C59_6 C56_6 1_555 1_555
H34_6 C66_6 1_555 1_555
C69_6 C66_6 1_555 1_555
H36_6 C71_6 1_555 1_555
C74_6 C59_6 1_555 1_555
H39_6 C74_6 1_555 1_555
C78_6 C69_6 1_555 1_555
C84_6 C78_6 1_555 1_555
C47_6 C48_6 1_555 1_555
C71_6 C74_6 1_555 1_555
N25_6 C51_6 1_555 1_555
C51_6 C57_6 1_555 1_555
C57_6 C60_6 1_555 1_555
C75_6 C60_6 1_555 1_555
H40_6 C75_6 1_555 1_555
Co8 N28_4 1_555 1_555
N28_4 C54_6 1_555 1_555
C63_6 H31_6 1_555 1_555
N6_7 C10_7 1_555 1_555
N8_5 C20_7 1_555 1_555
N9_7 C21_7 1_555 1_555
C10_7 C12_7 1_555 1_555
C11_7 N30_5 1_555 1_555
C12_7 C11_7 1_555 1_555
C13_7 C12_7 1_555 1_555
C14_7 C13_7 1_555 1_555
H7_7 C14_7 1_555 1_555
C15_7 C14_7 1_555 1_555
H8_7 C15_7 1_555 1_555
C16_7 C15_7 1_555 1_555
C17_7 C16_7 1_555 1_555
H9_7 C17_7 1_555 1_555
C18_7 C13_7 1_555 1_555
H10_7 C18_7 1_555 1_555
C19_7 C16_7 1_555 1_555
C20_7 C19_7 1_555 1_555
C21_7 C19_7 1_555 1_555
Co6_4 N8_5 1_555 1_555
N23_7 C49_7 1_555 1_555
N25_7 C51_7 1_555 1_555
N26_5 C52_7 1_555 1_555
N36_7 C82_7 1_555 1_555
C49_7 C55_7 1_555 1_555
C51_7 C57_7 1_555 1_555
C52_7 C55_7 1_555 1_555
C53_7 N29_5 1_555 1_555
C55_7 C58_7 1_555 1_555
C57_7 C60_7 1_555 1_555
C58_7 C61_7 1_555 1_555
C61_7 H29_7 1_555 1_555
H30_7 C62_7 1_555 1_555
C64_7 C61_7 1_555 1_555
H32_7 C64_7 1_555 1_555
C67_7 C64_7 1_555 1_555
C70_7 C67_7 1_555 1_555
H35_7 C70_7 1_555 1_555
H37_7 C72_7 1_555 1_555
C73_7 C58_7 1_555 1_555
C75_7 C60_7 1_555 1_555
H38_7 C73_7 1_555 1_555
H40_7 C75_7 1_555 1_555
C76_7 C67_7 1_555 1_555
C79_7 N35_5 1_555 1_555
C81_7 N34_5 1_555 1_555
C82_7 C76_7 1_555 1_555
C17_7 C18_7 1_555 1_555
C70_7 C73_7 1_555 1_555
C72_7 C75_7 1_555 1_555
C76_7 C79_7 1_555 1_555
Co9_4 N28_5 1_555 1_555
N24_7 C50_7 1_555 1_555
N28_5 C54_7 1_555 1_555
N38_7 C84_7 1_555 1_555
C50_7 C56_7 1_555 1_555
C59_7 C56_7 1_555 1_555
C63_7 H31_7 1_555 1_555
C66_7 C63_7 1_555 1_555
H34_7 C66_7 1_555 1_555
C69_7 C66_7 1_555 1_555
C74_7 C59_7 1_555 1_555
H39_7 C74_7 1_555 1_555
C78_7 C69_7 1_555 1_555
C84_7 C78_7 1_555 1_555
N37_7 C83_7 1_555 1_555
H33_7 C65_7 1_555 1_555
C68_7 C65_7 1_555 1_555
C77_7 C68_7 1_555 1_555
C83_7 C77_7 1_555 1_555
Co9_4 N32_5 1_555 1_555
N32_5 C80_7 1_555 1_555
H36_7 C71_7 1_555 1_555
H5_7 C8_7 1_555 1_555
C9_7 C8_7 1_555 1_555
H6_7 C9_7 1_555 1_555
H23_7 C43_7 1_555 1_555
C46_7 C9_7 1_555 1_555
H26_7 C46_7 1_555 1_555
C43_7 C46_7 1_555 1_555
Co8 N1_7 1_555 1_555
Co2_10 N2_7 1_555 1_555
N1_7 N2_7 1_555 1_555
N2_7 N3_7 1_555 1_555
N3_7 C6_7 1_555 1_555
N4_7 Co8 1_555 1_555
N5_10 Co2_10 1_555 1_555
O1_7 Co8 1_555 1_555
C1_7 N1_7 1_555 1_555
C2_7 C1_7 1_555 1_555
H1_7 C2_7 1_555 1_555
C3_7 C2_7 1_555 1_555
H2_7 C3_7 1_555 1_555
C4_7 C3_7 1_555 1_555
H3_7 C4_7 1_555 1_555
C5_7 C4_7 1_555 1_555
H4_7 C5_7 1_555 1_555
C6_7 C1_7 1_555 1_555
C7_7 N4_7 1_555 1_555
Co6_3 N3_7 1_555 1_555
Co4_6 N11_7 1_555 1_555
Co9_4 N12_7 1_555 1_555
N10_7 Co6_3 1_555 1_555
N11_7 N14_7 1_555 1_555
N12_7 N15_7 1_555 1_555
N13_7 Co2_10 1_555 1_555
N14_7 Co2_10 1_555 1_555
N15_7 Co2_10 1_555 1_555
N16_7 Co9_4 1_555 1_555
N17_7 Co8 1_555 1_555
N18_7 Co4_6 1_555 1_555
N19_7 N5_10 1_555 1_555
N20_7 Co6_3 1_555 1_555
N21_7 Co4_6 1_555 1_555
N22_10 Co2_10 1_555 1_555
N29_6 Co4_6 1_555 1_555
N34_6 Co4_6 1_555 1_555
O2_7 Co6_3 1_555 1_555
O3_7 Co4_6 1_555 1_555
O4_7 Co9_4 1_555 1_555
C22_7 N10_7 1_555 1_555
C23_7 N11_7 1_555 1_555
C24_7 N12_7 1_555 1_555
C25_7 C22_7 1_555 1_555
C26_7 C23_7 1_555 1_555
C27_7 C24_7 1_555 1_555
H11_7 C25_7 1_555 1_555
H12_7 C26_7 1_555 1_555
H13_7 C27_7 1_555 1_555
C28_7 C25_7 1_555 1_555
C29_7 C26_7 1_555 1_555
C30_7 C27_7 1_555 1_555
H15_7 C29_7 1_555 1_555
H16_7 C30_7 1_555 1_555
C31_7 C28_7 1_555 1_555
C32_7 C29_7 1_555 1_555
C33_7 C30_7 1_555 1_555
H17_7 C31_7 1_555 1_555
H18_7 C32_7 1_555 1_555
H19_7 C33_7 1_555 1_555
C34_7 C31_7 1_555 1_555
C35_7 C32_7 1_555 1_555
C36_7 C33_7 1_555 1_555
H20_7 C34_7 1_555 1_555
H21_7 C35_7 1_555 1_555
H22_7 C36_7 1_555 1_555
C37_7 N16_7 1_555 1_555
C38_7 N17_7 1_555 1_555
C39_7 N18_7 1_555 1_555
C40_7 C7_7 1_555 1_555
C41_7 N20_7 1_555 1_555
C42_7 N21_7 1_555 1_555
C44_7 C41_7 1_555 1_555
C45_7 C42_7 1_555 1_555
H24_7 C44_7 1_555 1_555
H25_7 C45_7 1_555 1_555
C47_7 C44_7 1_555 1_555
C48_7 C45_7 1_555 1_555
H27_7 C47_7 1_555 1_555
H28_7 C48_7 1_555 1_555
N4_7 N5_10 1_555 1_555
C5_7 C6_7 1_555 1_555
Co9_4 N19_7 1_555 1_555
N10_7 N13_7 1_555 1_555
N13_7 N16_7 1_555 1_555
N14_7 N17_7 1_555 1_555
N15_7 N18_7 1_555 1_555
N19_7 C40_7 1_555 1_555
N20_7 N22_10 1_555 1_555
N21_7 N22_10 1_555 1_555
C22_7 C37_7 1_555 1_555
C23_7 C38_7 1_555 1_555
C24_7 C39_7 1_555 1_555
C34_7 C37_7 1_555 1_555
C35_7 C38_7 1_555 1_555
C36_7 C39_7 1_555 1_555
C41_7 C42_7 1_555 1_555
C47_7 C48_7 1_555 1_555
Co9_3 N1_8 1_555 1_555
Co2_11 N2_8 1_555 1_555
N1_8 N2_8 1_555 1_555
N2_8 N3_8 1_555 1_555
N3_8 C6_8 1_555 1_555
N4_8 Co9_3 1_555 1_555
N5_11 Co2_11 1_555 1_555
O1_8 Co9_3 1_555 1_555
C1_8 N1_8 1_555 1_555
C2_8 C1_8 1_555 1_555
H1_8 C2_8 1_555 1_555
C3_8 C2_8 1_555 1_555
H2_8 C3_8 1_555 1_555
C4_8 C3_8 1_555 1_555
H3_8 C4_8 1_555 1_555
C5_8 C4_8 1_555 1_555
H4_8 C5_8 1_555 1_555
C6_8 C1_8 1_555 1_555
C7_8 N4_8 1_555 1_555
C8_8 C7_8 1_555 1_555
H5_8 C8_8 1_555 1_555
C9_8 C8_8 1_555 1_555
H6_8 C9_8 1_555 1_555
Co7 N3_8 1_555 1_555
N11_8 N14_8 1_555 1_555
N14_8 Co2_11 1_555 1_555
N17_8 Co9_3 1_555 1_555
N20_8 Co7 1_555 1_555
N22_11 Co2_11 1_555 1_555
O2_8 Co7 1_555 1_555
C23_8 N11_8 1_555 1_555
C26_8 C23_8 1_555 1_555
H12_8 C26_8 1_555 1_555
C29_8 C26_8 1_555 1_555
H15_8 C29_8 1_555 1_555
C32_8 C29_8 1_555 1_555
H18_8 C32_8 1_555 1_555
C35_8 C32_8 1_555 1_555
H21_8 C35_8 1_555 1_555
C38_8 N17_8 1_555 1_555
C41_8 N20_8 1_555 1_555
C44_8 C41_8 1_555 1_555
H24_8 C44_8 1_555 1_555
C47_8 C44_8 1_555 1_555
H27_8 C47_8 1_555 1_555
N4_8 N5_11 1_555 1_555
C5_8 C6_8 1_555 1_555
N14_8 N17_8 1_555 1_555
N20_8 N22_11 1_555 1_555
C23_8 C38_8 1_555 1_555
C35_8 C38_8 1_555 1_555
N5_12 Co2_12 1_555 1_555
Co5_6 N12_8 1_555 1_555
N12_8 N15_8 1_555 1_555
N13_8 Co2_12 1_555 1_555
N15_8 Co2_12 1_555 1_555
N16_8 Co5_6 1_555 1_555
N18_8 Co6_4 1_555 1_555
N19_8 N5_12 1_555 1_555
N21_8 Co6_4 1_555 1_555
N22_12 Co2_12 1_555 1_555
N30_6 Co5_6 1_555 1_555
N35_6 Co5_6 1_555 1_555
O3_8 Co6_4 1_555 1_555
O4_8 Co5_6 1_555 1_555
C22_8 N10_8 1_555 1_555
C24_8 N12_8 1_555 1_555
C25_8 C22_8 1_555 1_555
C27_8 C24_8 1_555 1_555
H11_8 C25_8 1_555 1_555
H13_8 C27_8 1_555 1_555
C28_8 C25_8 1_555 1_555
C30_8 C27_8 1_555 1_555
H16_8 C30_8 1_555 1_555
C31_8 C28_8 1_555 1_555
C33_8 C30_8 1_555 1_555
H17_8 C31_8 1_555 1_555
H19_8 C33_8 1_555 1_555
C34_8 C31_8 1_555 1_555
C36_8 C33_8 1_555 1_555
H20_8 C34_8 1_555 1_555
H22_8 C36_8 1_555 1_555
C37_8 N16_8 1_555 1_555
C39_8 N18_8 1_555 1_555
C42_8 N21_8 1_555 1_555
C43_8 C40_8 1_555 1_555
C45_8 C42_8 1_555 1_555
H23_8 C43_8 1_555 1_555
H25_8 C45_8 1_555 1_555
C48_8 C45_8 1_555 1_555
H26_8 C46_8 1_555 1_555
H28_8 C48_8 1_555 1_555
Co5_6 N19_8 1_555 1_555
N10_8 N13_8 1_555 1_555
N13_8 N16_8 1_555 1_555
N15_8 N18_8 1_555 1_555
N19_8 C40_8 1_555 1_555
N21_8 N22_12 1_555 1_555
C22_8 C37_8 1_555 1_555
C24_8 C39_8 1_555 1_555
C34_8 C37_8 1_555 1_555
C36_8 C39_8 1_555 1_555
C43_8 C46_8 1_555 1_555
N6_8 C10_8 1_555 1_555
N34_4 C20_8 1_555 1_555
N9_8 C21_8 1_555 1_555
C10_8 C12_8 1_555 1_555
C11_8 N30_6 1_555 1_555
C12_8 C11_8 1_555 1_555
C13_8 C12_8 1_555 1_555
C14_8 C13_8 1_555 1_555
H7_8 C14_8 1_555 1_555
C15_8 C14_8 1_555 1_555
H8_8 C15_8 1_555 1_555
C16_8 C15_8 1_555 1_555
C17_8 C16_8 1_555 1_555
H9_8 C17_8 1_555 1_555
C18_8 C13_8 1_555 1_555
H10_8 C18_8 1_555 1_555
C19_8 C16_8 1_555 1_555
C20_8 C19_8 1_555 1_555
C21_8 C19_8 1_555 1_555
N36_8 C82_8 1_555 1_555
H32_8 C64_8 1_555 1_555
C67_8 C64_8 1_555 1_555
C70_8 C67_8 1_555 1_555
H35_8 C70_8 1_555 1_555
C76_8 C67_8 1_555 1_555
C79_8 N35_6 1_555 1_555
C82_8 C76_8 1_555 1_555
C17_8 C18_8 1_555 1_555
C76_8 C79_8 1_555 1_555
N23_8 C49_8 1_555 1_555
N29_4 C52_8 1_555 1_555
C49_8 C55_8 1_555 1_555
C52_8 C55_8 1_555 1_555
C55_8 C58_8 1_555 1_555
C58_8 C61_8 1_555 1_555
C61_8 H29_8 1_555 1_555
C73_8 C58_8 1_555 1_555
H38_8 C73_8 1_555 1_555
N24_8 C50_8 1_555 1_555
N25_8 C51_8 1_555 1_555
N30_4 C54_8 1_555 1_555
N35_4 C80_8 1_555 1_555
N37_8 C83_8 1_555 1_555
N38_8 C84_8 1_555 1_555
C50_8 C56_8 1_555 1_555
C51_8 C57_8 1_555 1_555
C53_8 N29_6 1_555 1_555
C54_8 C57_8 1_555 1_555
C56_8 C53_8 1_555 1_555
C57_8 C60_8 1_555 1_555
C59_8 C56_8 1_555 1_555
C60_8 C63_8 1_555 1_555
C62_8 C59_8 1_555 1_555
C63_8 H31_8 1_555 1_555
H30_8 C62_8 1_555 1_555
C65_8 C62_8 1_555 1_555
C66_8 C63_8 1_555 1_555
H33_8 C65_8 1_555 1_555
H34_8 C66_8 1_555 1_555
C68_8 C65_8 1_555 1_555
C69_8 C66_8 1_555 1_555
C71_8 C68_8 1_555 1_555
C72_8 C69_8 1_555 1_555
H36_8 C71_8 1_555 1_555
H37_8 C72_8 1_555 1_555
C74_8 C59_8 1_555 1_555
C75_8 C60_8 1_555 1_555
H39_8 C74_8 1_555 1_555
H40_8 C75_8 1_555 1_555
C77_8 C68_8 1_555 1_555
C78_8 C69_8 1_555 1_555
C80_8 C77_8 1_555 1_555
C81_8 N34_6 1_555 1_555
C83_8 C77_8 1_555 1_555
C84_8 C78_8 1_555 1_555
C71_8 C74_8 1_555 1_555
C72_8 C75_8 1_555 1_555
C78_8 C81_8 1_555 1_555

#END
