
###############################################################################
#
# This file contains modified crystal structure data generated from the
# MOF subset of the Cambridge Structural Database (CSD) v543 
# hosted by the Cambridge Crystallographic Data Centre (CCDC).
#
# This work is licensed under the Creative Commons
# Attribution-NonCommercial-ShareAlike 4.0 International License.
# To view a copy of this license, visit
# http://creativecommons.org/licenses/by-nc-sa/4.0/
# or send a letter to
# Creative Commons, PO Box 1866, Mountain View, CA 94042, USA.
#
# CIF created using the CSD Python API on 29 September 2022
# The structure has been converted into the P1 space group
# The structure has a 3D framework
# The original CSD entry LODPUQ is in the tetragonal crystal system
# The framework has been calculated to contain at least 10.0% void space
# The void calculation uses a probe of radius 1.32A, grid spacing 0.4
# H atom positions have been added when not included in the experimental data
# Generated hydrogen atom positions removed from atoms on special positions
#
###############################################################################

data_LODPUQ
_chemical_formula_moiety         '(C672 H480 N280 Ni44 O32)n'
_symmetry_cell_setting           triclinic
_symmetry_space_group_name_H-M   'P 1'
_symmetry_Int_Tables_number      1
_space_group_name_Hall           'P 1'
loop_
_symmetry_equiv_pos_site_id
_symmetry_equiv_pos_as_xyz
1 x,y,z
_cell_length_a                   23.08070(10)
_cell_length_b                   23.08070(10)
_cell_length_c                   42.2528(4)
_cell_angle_alpha                90
_cell_angle_beta                 90
_cell_angle_gamma                90
_cell_volume                     22508.9
loop_
_atom_site_label
_atom_site_type_symbol
_atom_site_fract_x
_atom_site_fract_y
_atom_site_fract_z
N28 N 0.1703(2) 0.1860(2) 0.05879(11)
H14 H 0.1638 0.0256 0.1402
C52 C 0.1729(2) 0.1641(2) 0.03463(12)
C55 C 0.1775(2) 0.13656(19) 0.00481(10)
C58 C 0.17778(19) 0.07552(19) 0.00178(11)
C61 C 0.1661(2) 0.03949(19) 0.02844(11)
H29 H 0.1586 0.0564 0.0480
Ni7 Ni 0.13095(3) 0.26435(3) 0.924709(15)
N23 N 0.16473(16) 0.20444(14) 0.95737(9)
C49 C 0.17235(19) 0.17344(17) 0.97805(11)
C73 C 0.1883(2) 0.04784(19) 0.97277(11)
H38 H 0.1950 0.0702 0.9548
Ni1 Ni 0.13095(3) 0.76435(3) 0.075291(15)
Ni2 Ni 0.0000 0.7500 0.1250
O1 O 0.21492(13) 0.77394(13) 0.09338(7)
N1 N 0.07186(13) 0.69298(14) 0.12515(7)
N2 N 0.11878(14) 0.70025(14) 0.10762(8)
N3 N 0.07620(14) 0.64631(14) 0.14326(8)
N4 N 0.04755(14) 0.75465(13) 0.05676(8)
N5 N 0.0000 0.7500 0.07450(11)
N6 N 0.16473(16) 0.70444(14) 0.04263(9)
N8 N 0.2025(2) 0.3382(2) 0.05689(11)
C1 C 0.15592(17) 0.65611(17) 0.11490(10)
C2 C 0.21271(18) 0.64346(19) 0.10401(10)
H1 H 0.2314 0.6668 0.0893
C3 C 0.23820(19) 0.5956(2) 0.11625(11)
H2 H 0.2756 0.5862 0.1098
C4 C 0.2099(2) 0.5595(2) 0.13848(11)
H3 H 0.2289 0.5267 0.1458
C5 C 0.15562(19) 0.5714(2) 0.14944(11)
H4 H 0.1373 0.5476 0.1642
C6 C 0.12856(17) 0.62171(18) 0.13726(10)
C7 C 0.02991(19) 0.75310(17) 0.02593(10)
C10 C 0.17235(19) 0.67344(17) 0.02195(11)
C16 C 0.17815(19) 0.45324(18) 0.00325(11)
C17 C 0.1888(2) 0.48844(19) 0.02977(11)
H9 H 0.1964 0.4714 0.0493
C18 C 0.1883(2) 0.54784(19) 0.02723(11)
H10 H 0.1950 0.5702 0.0452
C19 C 0.17903(19) 0.39165(18) 0.00559(10)
C20 C 0.1918(2) 0.36240(19) 0.03364(12)
Ni4 Ni 0.01435(3) 0.61905(3) 0.174709(15)
Ni8 Ni 0.48565(3) 0.88095(3) 0.325291(15)
O3 O 0.02394(13) 0.53508(13) 0.15662(7)
N10 N 0.05702(14) 0.82186(13) 0.12485(7)
N13 N 0.04975(14) 0.86878(14) 0.14238(8)
N16 N 0.10369(14) 0.82620(14) 0.10674(8)
N21 N 0.00465(13) 0.70245(14) 0.19324(8)
N22 N 0.0000 0.7500 0.17550(11)
N24 N 0.04556(14) 0.91473(16) 0.20737(9)
N29 N 0.0640(2) 0.9203(2) 0.30879(11)
N32 N 0.4118(2) 0.9525(2) 0.19311(11)
N34 N 0.15148(16) 0.82684(14) 0.04138(9)
N35 N 0.42316(14) 0.90148(16) 0.29138(9)
N37 N 0.07684(14) 0.59852(16) 0.20862(9)
C22 C 0.09389(17) 0.90592(17) 0.13510(10)
C25 C 0.10654(19) 0.96271(18) 0.14599(10)
H11 H 0.0832 0.9814 0.1607
C28 C 0.1544(2) 0.98820(19) 0.13375(11)
C31 C 0.1905(2) 0.9599(2) 0.11152(11)
H17 H 0.2233 0.9789 0.1042
C34 C 0.1786(2) 0.90562(19) 0.10056(11)
H20 H 0.2024 0.8873 0.0858
C37 C 0.12829(18) 0.87856(17) 0.11274(10)
C42 C 0.00310(17) 0.72009(19) 0.22407(10)
C45 C 0.0060(2) 0.6883(2) 0.25269(11)
H25 H 0.0099 0.6482 0.2527
C48 C 0.0029(2) 0.7193(2) 0.28026(12)
H28 H 0.0046 0.6997 0.2995
C50 C 0.07656(17) 0.92235(19) 0.22805(11)
C53 C 0.0859(2) 0.9229(2) 0.28463(12)
C56 C 0.11344(19) 0.9275(2) 0.25481(10)
C59 C 0.17448(19) 0.92778(19) 0.25178(11)
C62 C 0.21051(19) 0.9161(2) 0.27844(11)
H30 H 0.1936 0.9086 0.2980
C64 C 0.1658(2) 0.98081(19) 0.02579(11)
C65 C 0.26919(19) 0.9158(2) 0.27579(11)
H32 H 0.1572 0.9584 0.0435
H33 H 0.2916 0.9072 0.2935
C68 C 0.29676(18) 0.92815(19) 0.24675(11)
C71 C 0.26156(19) 0.9388(2) 0.22023(11)
H36 H 0.2786 0.9464 0.2007
C74 C 0.20216(19) 0.9383(2) 0.22277(11)
H39 H 0.1798 0.9450 0.2048
C77 C 0.35835(18) 0.92903(19) 0.24441(10)
C80 C 0.38760(19) 0.9418(2) 0.21636(12)
C82 C 0.16429(18) 0.85640(17) 0.02050(11)
C83 C 0.39360(17) 0.91429(18) 0.27050(11)
N7 N 0.1703(2) 0.6860(2) 0.94121(11)
N9 N 0.15148(16) 0.32684(14) 0.95862(9)
C8 C 0.0617(2) 0.7560(2) 0.99731(11)
H5 H 0.1018 0.7599 0.9973
C9 C 0.0307(2) 0.7529(2) 0.96974(12)
H6 H 0.0503 0.7546 0.9505
C11 C 0.1729(2) 0.6641(2) 0.96537(12)
C12 C 0.1775(2) 0.63656(19) 0.99519(10)
C13 C 0.17778(19) 0.57552(19) 0.99822(11)
C14 C 0.1661(2) 0.53949(19) 0.97156(11)
H7 H 0.1586 0.5564 0.9520
C15 C 0.1658(2) 0.48081(19) 0.97421(11)
H8 H 0.1572 0.4584 0.9565
C21 C 0.16429(18) 0.35640(17) 0.97950(11)
N31 N 0.2025(2) 0.8382(2) 0.94311(11)
C67 C 0.17815(19) 0.95324(18) 0.99675(11)
C70 C 0.1888(2) 0.98844(19) 0.97023(11)
H35 H 0.1964 0.9714 0.9507
C76 C 0.17903(19) 0.89165(18) 0.99441(10)
C79 C 0.1918(2) 0.86240(19) 0.96636(12)
Ni2_2 Ni 1.0000 0.7500 0.1250
N5_2 N 1.0000 0.7500 0.07450(11)
Ni3 Ni 0.98565(3) 0.88095(3) 0.174709(15)
Ni5 Ni 0.86905(3) 0.73565(3) 0.075291(15)
O2 O 0.97606(13) 0.96492(13) 0.15662(7)
O4 O 0.78508(13) 0.72606(13) 0.09338(7)
N11 N 0.94298(14) 0.67814(13) 0.12485(7)
N12 N 0.92814(13) 0.80702(14) 0.12515(7)
N14 N 0.95025(14) 0.63122(14) 0.14238(8)
N15 N 0.88122(14) 0.79975(14) 0.10762(8)
N17 N 0.89631(14) 0.67380(14) 0.10674(8)
N18 N 0.92380(14) 0.85369(14) 0.14326(8)
N19 N 0.95245(14) 0.74535(13) 0.05676(8)
N20 N 0.99535(13) 0.79755(14) 0.19324(8)
N22_2 N 1.0000 0.7500 0.17550(11)
N25 N 0.54556(14) 0.91473(16) 0.29263(9)
N26 N 0.95444(14) 0.58527(16) 0.20737(9)
N27 N 0.83527(16) 0.79556(14) 0.04263(9)
N30 N 0.5640(2) 0.9203(2) 0.19121(11)
N33 N 0.9118(2) 0.9525(2) 0.30689(11)
N36 N 0.92316(14) 0.90148(16) 0.20862(9)
N38 N 0.84852(16) 0.67316(14) 0.04138(9)
C23 C 0.90611(17) 0.59408(17) 0.13510(10)
C24 C 0.84408(17) 0.84389(17) 0.11490(10)
C26 C 0.89346(19) 0.53729(18) 0.14599(10)
C27 C 0.78729(18) 0.85654(19) 0.10401(10)
H12 H 0.9168 0.5186 0.1607
H13 H 0.7686 0.8332 0.0893
C29 C 0.8456(2) 0.51180(19) 0.13375(11)
C30 C 0.76180(19) 0.9044(2) 0.11625(11)
H15 H 0.8362 0.4744 0.1402
H16 H 0.7244 0.9138 0.1098
C32 C 0.8095(2) 0.5401(2) 0.11152(11)
C33 C 0.7901(2) 0.9405(2) 0.13848(11)
H18 H 0.7767 0.5211 0.1042
H19 H 0.7711 0.9733 0.1458
C35 C 0.8214(2) 0.59438(19) 0.10056(11)
C36 C 0.84438(19) 0.9286(2) 0.14944(11)
H21 H 0.7976 0.6127 0.0858
H22 H 0.8627 0.9524 0.1642
C38 C 0.87171(18) 0.62144(17) 0.11274(10)
C39 C 0.87144(17) 0.87829(18) 0.13726(10)
C40 C 0.97009(19) 0.74690(17) 0.02593(10)
C41 C 0.99690(17) 0.77991(19) 0.22407(10)
C44 C 0.9940(2) 0.8117(2) 0.25269(11)
H24 H 0.9901 0.8518 0.2527
C47 C 0.9971(2) 0.7807(2) 0.28026(12)
H27 H 0.9954 0.8003 0.2995
C51 C 0.57656(17) 0.92235(19) 0.27195(11)
C54 C 0.5859(2) 0.9229(2) 0.21537(12)
C57 C 0.61344(19) 0.9275(2) 0.24519(10)
C60 C 0.67448(19) 0.92778(19) 0.24822(11)
C63 C 0.71051(19) 0.9161(2) 0.22156(11)
H31 H 0.6936 0.9086 0.2020
C66 C 0.76919(19) 0.9158(2) 0.22421(11)
H34 H 0.7916 0.9072 0.2065
C69 C 0.79676(18) 0.92815(19) 0.25325(11)
C72 C 0.76156(19) 0.9388(2) 0.27977(11)
H37 H 0.7786 0.9464 0.2993
C75 C 0.70216(19) 0.9383(2) 0.27723(11)
H40 H 0.6798 0.9450 0.2952
C78 C 0.85835(18) 0.92903(19) 0.25559(10)
C81 C 0.88760(19) 0.9418(2) 0.28364(12)
C84 C 0.89360(17) 0.91429(18) 0.22950(11)
H48 H 0.997301 0.508375 0.167923
C43 C 0.9383(2) 0.7440(2) 0.99731(11)
H23 H 0.8982 0.7401 0.9973
C46 C 0.9693(2) 0.7471(2) 0.96974(12)
H26 H 0.9497 0.7454 0.9505
H2_2 H 0.6638 0.0256 0.3598
Ni8_2 Ni 0.36905(3) 0.23565(3) 0.575291(15)
N32_2 N 0.2975(2) 0.1618(2) 0.44311(11)
N35_2 N 0.34852(16) 0.17316(14) 0.54138(9)
C65_2 C 0.3342(2) 0.01919(19) 0.52579(11)
H33_2 H 0.3428 0.0416 0.5435
C68_2 C 0.32185(19) 0.04676(18) 0.49675(11)
C71_2 C 0.3112(2) 0.01156(19) 0.47023(11)
H36_2 H 0.3036 0.0286 0.4507
C77_2 C 0.32097(19) 0.10835(18) 0.49441(10)
C80_2 C 0.3082(2) 0.13760(19) 0.46636(12)
C83_2 C 0.33571(18) 0.14360(17) 0.52050(11)
Ni2_3 Ni 0.5000 0.7500 0.3750
O1_2 O 0.47606(13) 0.96492(13) 0.34338(7)
N1_2 N 0.55702(14) 0.82186(13) 0.37515(7)
N2_2 N 0.54975(14) 0.86878(14) 0.35762(8)
N3_2 N 0.60369(14) 0.82620(14) 0.39326(8)
N4_2 N 0.49535(13) 0.79755(14) 0.30676(8)
N5_3 N 0.5000 0.7500 0.32450(11)
C1_2 C 0.59389(17) 0.90592(17) 0.36490(10)
C2_2 C 0.60654(19) 0.96271(18) 0.35401(10)
H1_2 H 0.5832 0.9814 0.3393
C3_2 C 0.6544(2) 0.98820(19) 0.36625(11)
C4_2 C 0.6905(2) 0.9599(2) 0.38848(11)
H3_2 H 0.7233 0.9789 0.3958
C5_2 C 0.6786(2) 0.90562(19) 0.39944(11)
H4_2 H 0.7024 0.8873 0.4142
C6_2 C 0.62829(18) 0.87856(17) 0.38726(10)
C7_2 C 0.49690(17) 0.77991(19) 0.27593(10)
C8_2 C 0.4940(2) 0.8117(2) 0.24731(11)
H5_2 H 0.4901 0.8518 0.2473
C9_2 C 0.4971(2) 0.7807(2) 0.21974(12)
H6_2 H 0.4954 0.8003 0.2005
Ni3_2 Ni 0.36905(3) 0.73565(3) 0.424709(15)
Ni4_2 Ni 0.63095(3) 0.76435(3) 0.424709(15)
Ni5_2 Ni 0.51435(3) 0.61905(3) 0.325291(15)
O2_2 O 0.28508(13) 0.72606(13) 0.40662(7)
O3_2 O 0.71492(13) 0.77394(13) 0.40662(7)
O4_2 O 0.52394(13) 0.53508(13) 0.34338(7)
N10_2 N 0.42814(13) 0.80702(14) 0.37485(7)
N11_2 N 0.57186(13) 0.69298(14) 0.37485(7)
N12_2 N 0.44298(14) 0.67814(13) 0.37515(7)
N13_2 N 0.38122(14) 0.79975(14) 0.39238(8)
N14_2 N 0.61878(14) 0.70025(14) 0.39238(8)
N15_2 N 0.45025(14) 0.63122(14) 0.35762(8)
N16_2 N 0.42380(14) 0.85369(14) 0.35674(8)
N17_2 N 0.57620(14) 0.64631(14) 0.35674(8)
N18_2 N 0.39631(14) 0.67380(14) 0.39326(8)
N19_2 N 0.50465(13) 0.70245(14) 0.30676(8)
N20_2 N 0.45245(14) 0.74535(13) 0.44324(8)
N21_2 N 0.54755(14) 0.75465(13) 0.44324(8)
N22_3 N 0.5000 0.7500 0.42550(11)
N24_2 N 0.33527(16) 0.79556(14) 0.45737(9)
N25_2 N 0.33527(16) 0.29556(14) 0.54263(9)
N26_2 N 0.66473(16) 0.70444(14) 0.45737(9)
N27_2 N 0.45444(14) 0.58527(16) 0.29263(9)
N29_2 N 0.3297(2) 0.8140(2) 0.55879(11)
N30_2 N 0.3297(2) 0.3140(2) 0.44121(11)
N33_2 N 0.2975(2) 0.6618(2) 0.55689(11)
N36_2 N 0.34852(16) 0.67316(14) 0.45862(9)
N37_2 N 0.65148(16) 0.82684(14) 0.45862(9)
N38_2 N 0.57684(14) 0.59852(16) 0.29138(9)
C22_2 C 0.34408(17) 0.84389(17) 0.38510(10)
C23_2 C 0.65592(17) 0.65611(17) 0.38510(10)
C24_2 C 0.40611(17) 0.59408(17) 0.36490(10)
C25_2 C 0.28729(18) 0.85654(19) 0.39599(10)
C26_2 C 0.71271(18) 0.64346(19) 0.39599(10)
C27_2 C 0.39346(19) 0.53729(18) 0.35401(10)
H11_2 H 0.2686 0.8332 0.4107
H12_2 H 0.7314 0.6668 0.4107
H13_2 H 0.4168 0.5186 0.3393
C28_2 C 0.26180(19) 0.9044(2) 0.38375(11)
C29_2 C 0.73820(19) 0.5956(2) 0.38375(11)
C30_2 C 0.3456(2) 0.51180(19) 0.36625(11)
H14_2 H 0.2244 0.9138 0.3902
H15_2 H 0.7756 0.5862 0.3902
H16_2 H 0.3362 0.4744 0.3598
C31_2 C 0.2901(2) 0.9405(2) 0.36152(11)
C32_2 C 0.7099(2) 0.5595(2) 0.36152(11)
C33_2 C 0.3095(2) 0.5401(2) 0.38848(11)
H17_2 H 0.2711 0.9733 0.3542
H18_2 H 0.7289 0.5267 0.3542
H19_2 H 0.2767 0.5211 0.3958
C34_2 C 0.34438(19) 0.9286(2) 0.35056(11)
C35_2 C 0.65562(19) 0.5714(2) 0.35056(11)
C36_2 C 0.3214(2) 0.59438(19) 0.39944(11)
H20_2 H 0.3627 0.9524 0.3358
H21_2 H 0.6373 0.5476 0.3358
H22_2 H 0.2976 0.6127 0.4142
C37_2 C 0.37144(17) 0.87829(18) 0.36274(10)
C38_2 C 0.62856(17) 0.62171(18) 0.36274(10)
C39_2 C 0.37171(18) 0.62144(17) 0.38726(10)
C40_2 C 0.50310(17) 0.72009(19) 0.27593(10)
C41_2 C 0.47009(19) 0.74690(17) 0.47407(10)
C42_2 C 0.52991(19) 0.75310(17) 0.47407(10)
C43_2 C 0.5060(2) 0.6883(2) 0.24731(11)
C44_2 C 0.4383(2) 0.7440(2) 0.50269(11)
C45_2 C 0.5617(2) 0.7560(2) 0.50269(11)
H23_2 H 0.5099 0.6482 0.2473
H24_2 H 0.3982 0.7401 0.5027
H25_2 H 0.6018 0.7599 0.5027
C46_2 C 0.5029(2) 0.7193(2) 0.21974(12)
C47_2 C 0.4693(2) 0.7471(2) 0.53026(12)
C48_2 C 0.5307(2) 0.7529(2) 0.53026(12)
H26_2 H 0.5046 0.6997 0.2005
H27_2 H 0.4497 0.7454 0.5495
H28_2 H 0.5503 0.7546 0.5495
C50_2 C 0.32765(19) 0.82656(17) 0.47805(11)
C51_2 C 0.32765(19) 0.32656(17) 0.52195(11)
C53_2 C 0.3271(2) 0.8359(2) 0.53463(12)
C54_2 C 0.3271(2) 0.3359(2) 0.46537(12)
C56_2 C 0.3225(2) 0.86344(19) 0.50481(10)
C57_2 C 0.3225(2) 0.36344(19) 0.49519(10)
C59_2 C 0.32222(19) 0.92448(19) 0.50178(11)
C60_2 C 0.32222(19) 0.42448(19) 0.49822(11)
C62_2 C 0.3339(2) 0.96051(19) 0.52844(11)
C63_2 C 0.3339(2) 0.46051(19) 0.47156(11)
H30_2 H 0.3414 0.9436 0.5480
H31_2 H 0.3414 0.4436 0.4520
C66_2 C 0.3342(2) 0.51919(19) 0.47421(11)
H34_2 H 0.3428 0.5416 0.4565
C69_2 C 0.32185(19) 0.54676(18) 0.50325(11)
C72_2 C 0.3112(2) 0.51156(19) 0.52977(11)
H37_2 H 0.3036 0.5286 0.5493
C74_2 C 0.3117(2) 0.95216(19) 0.47277(11)
C75_2 C 0.3117(2) 0.45216(19) 0.52723(11)
H39_2 H 0.3050 0.9298 0.4548
H40_2 H 0.3050 0.4298 0.5452
C78_2 C 0.32097(19) 0.60835(18) 0.50559(10)
C81_2 C 0.3082(2) 0.63760(19) 0.53364(12)
C84_2 C 0.33571(18) 0.64360(17) 0.47950(11)
C44_3 C 0.0617(2) 0.2560(2) 0.00269(11)
H24_3 H 0.1018 0.2599 0.0027
C47_3 C 0.0307(2) 0.2529(2) 0.03026(12)
H27_3 H 0.0503 0.2546 0.0495
Ni1_2 Ni 0.01435(3) 0.11905(3) 0.825291(15)
Ni2_4 Ni 0.0000 0.2500 0.8750
O1_3 O 0.02394(13) 0.03508(13) 0.84338(7)
N4_3 N 0.00465(13) 0.20245(14) 0.80676(8)
N5_4 N 0.0000 0.2500 0.82450(11)
C7_3 C 0.00310(17) 0.22009(19) 0.77593(10)
C8_3 C 0.0060(2) 0.1883(2) 0.74731(11)
H5_3 H 0.0099 0.1482 0.7473
C9_3 C 0.0029(2) 0.2193(2) 0.71974(12)
H6_3 H 0.0046 0.1997 0.7005
Ni7_2 Ni 0.51435(3) 0.11905(3) 0.674709(15)
O2_3 O 0.21492(13) 0.27394(13) 0.90662(7)
N10_3 N 0.07186(13) 0.19298(14) 0.87485(7)
N12_3 N 0.05702(14) 0.32186(13) 0.87515(7)
N13_3 N 0.11878(14) 0.20025(14) 0.89238(8)
N15_3 N 0.04975(14) 0.36878(14) 0.85762(8)
N16_3 N 0.07620(14) 0.14631(14) 0.85674(8)
N18_3 N 0.10369(14) 0.32620(14) 0.89326(8)
N20_3 N 0.04755(14) 0.25465(13) 0.94324(8)
N22_4 N 0.0000 0.2500 0.92550(11)
N23_2 N 0.45444(14) 0.08527(16) 0.70737(9)
N27_3 N 0.04556(14) 0.41473(16) 0.79263(9)
N28_2 N 0.4360(2) 0.0797(2) 0.80879(11)
N31_2 N 0.0882(2) 0.0475(2) 0.69311(11)
N34_2 N 0.07684(14) 0.09852(16) 0.79138(9)
C22_3 C 0.15592(17) 0.15611(17) 0.88510(10)
C24_3 C 0.09389(17) 0.40592(17) 0.86490(10)
C25_3 C 0.21271(18) 0.14346(19) 0.89599(10)
C27_3 C 0.10654(19) 0.46271(18) 0.85401(10)
H11_3 H 0.2314 0.1668 0.9107
H13_3 H 0.0832 0.4814 0.8393
C28_3 C 0.23820(19) 0.0956(2) 0.88375(11)
C30_3 C 0.1544(2) 0.48820(19) 0.86625(11)
H14_3 H 0.2756 0.0862 0.8902
H16_3 H 0.1638 0.5256 0.8598
C31_3 C 0.2099(2) 0.0595(2) 0.86152(11)
C33_3 C 0.1905(2) 0.4599(2) 0.88848(11)
H17_3 H 0.2289 0.0267 0.8542
H19_3 H 0.2233 0.4789 0.8958
C34_3 C 0.15562(19) 0.0714(2) 0.85056(11)
C36_3 C 0.1786(2) 0.40562(19) 0.89944(11)
H20_3 H 0.1373 0.0476 0.8358
H22_3 H 0.2024 0.3873 0.9142
C37_3 C 0.12856(17) 0.12171(18) 0.86274(10)
C39_3 C 0.12829(18) 0.37856(17) 0.88726(10)
C41_3 C 0.02991(19) 0.25310(17) 0.97407(10)
C49_2 C 0.42344(17) 0.07765(19) 0.72805(11)
C52_2 C 0.4141(2) 0.0771(2) 0.78463(12)
C55_2 C 0.38656(19) 0.0725(2) 0.75481(10)
C58_2 C 0.32552(19) 0.07222(19) 0.75178(11)
C61_2 C 0.28949(19) 0.0839(2) 0.77844(11)
H29_2 H 0.3064 0.0914 0.7980
C64_2 C 0.23081(19) 0.0842(2) 0.77579(11)
H32_2 H 0.2084 0.0928 0.7935
C67_2 C 0.20324(18) 0.07185(19) 0.74675(11)
C70_2 C 0.23844(19) 0.0612(2) 0.72023(11)
H35_2 H 0.2214 0.0536 0.7007
C73_2 C 0.29784(19) 0.0617(2) 0.72277(11)
H38_2 H 0.3202 0.0550 0.7048
C76_2 C 0.14165(18) 0.07097(19) 0.74441(10)
C79_2 C 0.11240(19) 0.0582(2) 0.71636(12)
C82_2 C 0.10640(17) 0.08571(18) 0.77050(11)
H43 H 0.0130243 0.486452 0.840877
C45_3 C 0.9383(2) 0.2440(2) 0.00269(11)
H25_3 H 0.8982 0.2401 0.0027
C48_3 C 0.9693(2) 0.2471(2) 0.03026(12)
H28_3 H 0.9497 0.2454 0.0495
Ni2_5 Ni 1.0000 0.2500 0.8750
N1_3 N 0.94298(14) 0.17814(13) 0.87515(7)
N2_3 N 0.95025(14) 0.13122(14) 0.85762(8)
N3_3 N 0.89631(14) 0.17380(14) 0.89326(8)
N5_5 N 1.0000 0.2500 0.82450(11)
N6_2 N 0.95444(14) 0.08527(16) 0.79263(9)
N7_2 N 0.9360(2) 0.0797(2) 0.69121(11)
N8_2 N 0.5882(2) 0.0475(2) 0.80689(11)
N9_2 N 0.57684(14) 0.09852(16) 0.70862(9)
C1_3 C 0.90611(17) 0.09408(17) 0.86490(10)
C2_3 C 0.89346(19) 0.03729(18) 0.85401(10)
H1_3 H 0.9168 0.0186 0.8393
C3_3 C 0.8456(2) 0.01180(19) 0.86625(11)
C4_3 C 0.8095(2) 0.0401(2) 0.88848(11)
H3_3 H 0.7767 0.0211 0.8958
C5_3 C 0.8214(2) 0.09438(19) 0.89944(11)
H4_3 H 0.7976 0.1127 0.9142
C6_3 C 0.87171(18) 0.12144(17) 0.88726(10)
C10_2 C 0.92344(17) 0.07765(19) 0.77195(11)
C11_2 C 0.9141(2) 0.0771(2) 0.71537(12)
C12_2 C 0.88656(19) 0.0725(2) 0.74519(10)
C13_2 C 0.82552(19) 0.07222(19) 0.74822(11)
C14_2 C 0.78949(19) 0.0839(2) 0.72156(11)
H7_2 H 0.8064 0.0914 0.7020
C15_2 C 0.73081(19) 0.0842(2) 0.72421(11)
H8_2 H 0.7084 0.0928 0.7065
C16_2 C 0.70324(18) 0.07185(19) 0.75325(11)
C17_2 C 0.73844(19) 0.0612(2) 0.77977(11)
H9_2 H 0.7214 0.0536 0.7993
C18_2 C 0.79784(19) 0.0617(2) 0.77723(11)
H10_2 H 0.8202 0.0550 0.7952
C19_2 C 0.64165(18) 0.07097(19) 0.75559(10)
C20_2 C 0.61240(19) 0.0582(2) 0.78364(12)
C21_2 C 0.60640(17) 0.08571(18) 0.72950(11)
Ni4_3 Ni 0.86905(3) 0.23565(3) 0.924709(15)
Ni5_3 Ni 0.98565(3) 0.38095(3) 0.825291(15)
O3_3 O 0.78508(13) 0.22606(13) 0.90662(7)
O4_3 O 0.97606(13) 0.46492(13) 0.84338(7)
N11_3 N 0.92814(13) 0.30702(14) 0.87485(7)
N14_3 N 0.88122(14) 0.29975(14) 0.89238(8)
N17_3 N 0.92380(14) 0.35369(14) 0.85674(8)
N19_3 N 0.99535(13) 0.29755(14) 0.80676(8)
N21_3 N 0.95245(14) 0.24535(13) 0.94324(8)
N22_5 N 1.0000 0.2500 0.92550(11)
N26_3 N 0.83527(16) 0.29556(14) 0.95737(9)
N37_3 N 0.84852(16) 0.17316(14) 0.95862(9)
N38_3 N 0.92316(14) 0.40148(16) 0.79138(9)
C23_3 C 0.84408(17) 0.34389(17) 0.88510(10)
C26_3 C 0.78729(18) 0.35654(19) 0.89599(10)
H12_3 H 0.7686 0.3332 0.9107
C29_3 C 0.76180(19) 0.4044(2) 0.88375(11)
H15_3 H 0.7244 0.4138 0.8902
C32_3 C 0.7901(2) 0.4405(2) 0.86152(11)
H18_3 H 0.7711 0.4733 0.8542
C35_3 C 0.84438(19) 0.4286(2) 0.85056(11)
H21_3 H 0.8627 0.4524 0.8358
C38_3 C 0.87144(17) 0.37829(18) 0.86274(10)
C40_3 C 0.99690(17) 0.27991(19) 0.77593(10)
C42_3 C 0.97009(19) 0.24690(17) 0.97407(10)
C43_3 C 0.9940(2) 0.3117(2) 0.74731(11)
H23_3 H 0.9901 0.3518 0.7473
C46_3 C 0.9971(2) 0.2807(2) 0.71974(12)
H26_3 H 0.9954 0.3003 0.7005
H41 H 0.986976 0.0135484 0.840877
H2_3 H 0.8362 0.9744 0.8598
Ni1_3 Ni 0.63095(3) 0.26435(3) 0.575291(15)
Ni2_6 Ni 0.5000 0.2500 0.6250
O1_4 O 0.71492(13) 0.27394(13) 0.59338(7)
N1_4 N 0.57186(13) 0.19298(14) 0.62515(7)
N2_4 N 0.61878(14) 0.20025(14) 0.60762(8)
N3_4 N 0.57620(14) 0.14631(14) 0.64326(8)
N4_4 N 0.54755(14) 0.25465(13) 0.55676(8)
N5_6 N 0.5000 0.2500 0.57450(11)
N6_3 N 0.66473(16) 0.20444(14) 0.54263(9)
N7_3 N 0.6703(2) 0.1860(2) 0.44121(11)
C1_4 C 0.65592(17) 0.15611(17) 0.61490(10)
C2_4 C 0.71271(18) 0.14346(19) 0.60401(10)
H1_4 H 0.7314 0.1668 0.5893
C3_4 C 0.73820(19) 0.0956(2) 0.61625(11)
H2_4 H 0.7756 0.0862 0.6098
C4_4 C 0.7099(2) 0.0595(2) 0.63848(11)
H3_4 H 0.7289 0.0267 0.6458
C5_4 C 0.65562(19) 0.0714(2) 0.64944(11)
H4_4 H 0.6373 0.0476 0.6642
C6_4 C 0.62856(17) 0.12171(18) 0.63726(10)
C7_4 C 0.52991(19) 0.25310(17) 0.52593(10)
C8_4 C 0.5617(2) 0.2560(2) 0.49731(11)
H5_4 H 0.6018 0.2599 0.4973
C9_4 C 0.5307(2) 0.2529(2) 0.46974(12)
H6_4 H 0.5503 0.2546 0.4505
C10_3 C 0.67235(19) 0.17344(17) 0.52195(11)
C11_3 C 0.6729(2) 0.1641(2) 0.46537(12)
C12_3 C 0.6775(2) 0.13656(19) 0.49519(10)
C13_3 C 0.67778(19) 0.07552(19) 0.49822(11)
C14_3 C 0.6661(2) 0.03949(19) 0.47156(11)
H7_3 H 0.6586 0.0564 0.4520
C18_3 C 0.6883(2) 0.04784(19) 0.52723(11)
H10_3 H 0.6950 0.0702 0.5452
Ni3_3 Ni 0.48565(3) 0.38095(3) 0.674709(15)
O2_4 O 0.47606(13) 0.46492(13) 0.65662(7)
O3_4 O 0.52394(13) 0.03508(13) 0.65662(7)
O4_4 O 0.28508(13) 0.22606(13) 0.59338(7)
N10_4 N 0.55702(14) 0.32186(13) 0.62485(7)
N11_4 N 0.44298(14) 0.17814(13) 0.62485(7)
N12_4 N 0.42814(13) 0.30702(14) 0.62515(7)
N13_4 N 0.54975(14) 0.36878(14) 0.64238(8)
N14_4 N 0.45025(14) 0.13122(14) 0.64238(8)
N15_4 N 0.38122(14) 0.29975(14) 0.60762(8)
N16_4 N 0.60369(14) 0.32620(14) 0.60674(8)
N17_4 N 0.39631(14) 0.17380(14) 0.60674(8)
N18_4 N 0.42380(14) 0.35369(14) 0.64326(8)
N19_4 N 0.45245(14) 0.24535(13) 0.55676(8)
N20_4 N 0.49535(13) 0.29755(14) 0.69324(8)
N21_4 N 0.50465(13) 0.20245(14) 0.69324(8)
N22_6 N 0.5000 0.2500 0.67550(11)
N24_3 N 0.54556(14) 0.41473(16) 0.70737(9)
N28_3 N 0.6703(2) 0.6860(2) 0.55879(11)
N29_3 N 0.5640(2) 0.4203(2) 0.80879(11)
N30_3 N 0.0640(2) 0.4203(2) 0.69121(11)
N31_3 N 0.7025(2) 0.3382(2) 0.44311(11)
N32_3 N 0.9118(2) 0.4525(2) 0.69311(11)
N33_3 N 0.4118(2) 0.4525(2) 0.80689(11)
N34_3 N 0.65148(16) 0.32684(14) 0.54138(9)
N36_3 N 0.42316(14) 0.40148(16) 0.70862(9)
C22_4 C 0.59389(17) 0.40592(17) 0.63510(10)
C23_4 C 0.40611(17) 0.09408(17) 0.63510(10)
C24_4 C 0.34408(17) 0.34389(17) 0.61490(10)
C25_4 C 0.60654(19) 0.46271(18) 0.64599(10)
C26_4 C 0.39346(19) 0.03729(18) 0.64599(10)
C27_4 C 0.28729(18) 0.35654(19) 0.60401(10)
H11_4 H 0.5832 0.4814 0.6607
H12_4 H 0.4168 0.0186 0.6607
H13_4 H 0.2686 0.3332 0.5893
C28_4 C 0.6544(2) 0.48820(19) 0.63375(11)
C29_4 C 0.3456(2) 0.01180(19) 0.63375(11)
C30_4 C 0.26180(19) 0.4044(2) 0.61625(11)
H14_4 H 0.6638 0.5256 0.6402
H16_4 H 0.2244 0.4138 0.6098
C31_4 C 0.6905(2) 0.4599(2) 0.61152(11)
C32_4 C 0.3095(2) 0.0401(2) 0.61152(11)
C33_4 C 0.2901(2) 0.4405(2) 0.63848(11)
H17_4 H 0.7233 0.4789 0.6042
H18_4 H 0.2767 0.0211 0.6042
H19_4 H 0.2711 0.4733 0.6458
C34_4 C 0.6786(2) 0.40562(19) 0.60056(11)
C35_4 C 0.3214(2) 0.09438(19) 0.60056(11)
C36_4 C 0.34438(19) 0.4286(2) 0.64944(11)
H20_4 H 0.7024 0.3873 0.5858
H21_4 H 0.2976 0.1127 0.5858
H22_4 H 0.3627 0.4524 0.6642
C37_4 C 0.62829(18) 0.37856(17) 0.61274(10)
C38_4 C 0.37171(18) 0.12144(17) 0.61274(10)
C39_4 C 0.37144(17) 0.37829(18) 0.63726(10)
C40_4 C 0.47009(19) 0.24690(17) 0.52593(10)
C41_4 C 0.49690(17) 0.27991(19) 0.72407(10)
C42_4 C 0.50310(17) 0.22009(19) 0.72407(10)
C43_4 C 0.4383(2) 0.2440(2) 0.49731(11)
C44_4 C 0.4940(2) 0.3117(2) 0.75269(11)
C45_4 C 0.5060(2) 0.1883(2) 0.75269(11)
H23_4 H 0.3982 0.2401 0.4973
H24_4 H 0.4901 0.3518 0.7527
H25_4 H 0.5099 0.1482 0.7527
C46_4 C 0.4693(2) 0.2471(2) 0.46974(12)
C47_4 C 0.4971(2) 0.2807(2) 0.78026(12)
C48_4 C 0.5029(2) 0.2193(2) 0.78026(12)
H26_4 H 0.4497 0.2454 0.4505
H27_4 H 0.4954 0.3003 0.7995
H28_4 H 0.5046 0.1997 0.7995
C49_3 C 0.67235(19) 0.67344(17) 0.47805(11)
C50_3 C 0.57656(17) 0.42235(19) 0.72805(11)
C51_3 C 0.07656(17) 0.42235(19) 0.77195(11)
C52_3 C 0.6729(2) 0.6641(2) 0.53463(12)
C53_3 C 0.5859(2) 0.4229(2) 0.78463(12)
C54_3 C 0.0859(2) 0.4229(2) 0.71537(12)
C55_3 C 0.6775(2) 0.63656(19) 0.50481(10)
C56_3 C 0.61344(19) 0.4275(2) 0.75481(10)
C57_3 C 0.11344(19) 0.4275(2) 0.74519(10)
C58_3 C 0.67778(19) 0.57552(19) 0.50178(11)
C59_3 C 0.67448(19) 0.42778(19) 0.75178(11)
C60_3 C 0.17448(19) 0.42778(19) 0.74822(11)
C61_3 C 0.6661(2) 0.53949(19) 0.52844(11)
C62_3 C 0.71051(19) 0.4161(2) 0.77844(11)
C63_3 C 0.21051(19) 0.4161(2) 0.72156(11)
H29_3 H 0.6586 0.5564 0.5480
H30_3 H 0.6936 0.4086 0.7980
H31_3 H 0.1936 0.4086 0.7020
C64_3 C 0.6658(2) 0.48081(19) 0.52579(11)
C65_3 C 0.76919(19) 0.4158(2) 0.77579(11)
C66_3 C 0.26919(19) 0.4158(2) 0.72421(11)
H32_3 H 0.6572 0.4584 0.5435
H33_3 H 0.7916 0.4072 0.7935
H34_3 H 0.2916 0.4072 0.7065
C67_3 C 0.67815(19) 0.45324(18) 0.49675(11)
C68_3 C 0.79676(18) 0.42815(19) 0.74675(11)
C69_3 C 0.29676(18) 0.42815(19) 0.75325(11)
C70_3 C 0.6888(2) 0.48844(19) 0.47023(11)
C71_3 C 0.76156(19) 0.4388(2) 0.72023(11)
C72_3 C 0.26156(19) 0.4388(2) 0.77977(11)
H35_3 H 0.6964 0.4714 0.4507
H36_3 H 0.7786 0.4464 0.7007
H37_3 H 0.2786 0.4464 0.7993
C73_3 C 0.6883(2) 0.54784(19) 0.47277(11)
C74_3 C 0.70216(19) 0.4383(2) 0.72277(11)
C75_3 C 0.20216(19) 0.4383(2) 0.77723(11)
H38_3 H 0.6950 0.5702 0.4548
H39_3 H 0.6798 0.4450 0.7048
H40_3 H 0.1798 0.4450 0.7952
C76_3 C 0.67903(19) 0.39165(18) 0.49441(10)
C77_3 C 0.85835(18) 0.42903(19) 0.74441(10)
C78_3 C 0.35835(18) 0.42903(19) 0.75559(10)
C79_3 C 0.6918(2) 0.36240(19) 0.46636(12)
C80_3 C 0.88760(19) 0.4418(2) 0.71636(12)
C81_3 C 0.38760(19) 0.4418(2) 0.78364(12)
C82_3 C 0.66429(18) 0.35640(17) 0.52050(11)
C83_3 C 0.89360(17) 0.41429(18) 0.77050(11)
C84_3 C 0.39360(17) 0.41429(18) 0.72950(11)
N8_3 N 0.7025(2) 0.8382(2) 0.55689(11)
C15_3 C 0.6658(2) 0.98081(19) 0.47421(11)
H8_3 H 0.6572 0.9584 0.4565
C16_3 C 0.67815(19) 0.95324(18) 0.50325(11)
C17_3 C 0.6888(2) 0.98844(19) 0.52977(11)
H9_3 H 0.6964 0.9714 0.5493
C19_3 C 0.67903(19) 0.89165(18) 0.50559(10)
C20_3 C 0.6918(2) 0.86240(19) 0.53364(12)
C21_3 C 0.66429(18) 0.85640(17) 0.47950(11)
H15_4 H 0.3362 0.9744 0.6402
N29_4 N 0.8297(2) 0.3140(2) 0.05879(11)
N33_4 N 0.7975(2) 0.1618(2) 0.05689(11)
C53_4 C 0.8271(2) 0.3359(2) 0.03463(12)
C56_4 C 0.8225(2) 0.36344(19) 0.00481(10)
C59_4 C 0.82222(19) 0.42448(19) 0.00178(11)
C62_4 C 0.8339(2) 0.46051(19) 0.02844(11)
H30_4 H 0.8414 0.4436 0.0480
C65_4 C 0.8342(2) 0.51919(19) 0.02579(11)
H33_4 H 0.8428 0.5416 0.0435
C69_4 C 0.82185(19) 0.04676(18) 0.00325(11)
C72_4 C 0.8112(2) 0.01156(19) 0.02977(11)
H37_4 H 0.8036 0.0286 0.0493
C78_4 C 0.82097(19) 0.10835(18) 0.00559(10)
C81_4 C 0.8082(2) 0.13760(19) 0.03364(12)
C83_4 C 0.83571(18) 0.64360(17) 0.02050(11)
N32_4 N 0.7975(2) 0.6618(2) 0.94311(11)
C50_4 C 0.82765(19) 0.32656(17) 0.97805(11)
C66_4 C 0.8342(2) 0.01919(19) 0.97421(11)
H34_4 H 0.8428 0.0416 0.9565
C68_4 C 0.82185(19) 0.54676(18) 0.99675(11)
C71_4 C 0.8112(2) 0.51156(19) 0.97023(11)
H36_4 H 0.8036 0.5286 0.9507
C74_4 C 0.8117(2) 0.45216(19) 0.97277(11)
H39_4 H 0.8050 0.4298 0.9548
C77_4 C 0.82097(19) 0.60835(18) 0.99441(10)
C80_4 C 0.8082(2) 0.63760(19) 0.96636(12)
C84_4 C 0.83571(18) 0.14360(17) 0.97950(11)
C51_4 C 0.82765(19) 0.82656(17) 0.02195(11)
C75_4 C 0.8117(2) 0.95216(19) 0.02723(11)
H40_4 H 0.8050 0.9298 0.0452
N30_4 N 0.8297(2) 0.8140(2) 0.94121(11)
C54_4 C 0.8271(2) 0.8359(2) 0.96537(12)
C57_4 C 0.8225(2) 0.86344(19) 0.99519(10)
C60_4 C 0.82222(19) 0.92448(19) 0.99822(11)
C63_4 C 0.8339(2) 0.96051(19) 0.97156(11)
H31_4 H 0.8414 0.9436 0.9520
N7_4 N 0.4360(2) 0.5797(2) 0.19121(11)
N8_4 N 0.0882(2) 0.5475(2) 0.30689(11)
C10_4 C 0.42344(17) 0.57765(19) 0.27195(11)
C11_4 C 0.4141(2) 0.5771(2) 0.21537(12)
C12_4 C 0.38656(19) 0.5725(2) 0.24519(10)
C13_4 C 0.32552(19) 0.57222(19) 0.24822(11)
C14_4 C 0.28949(19) 0.5839(2) 0.22156(11)
H7_4 H 0.3064 0.5914 0.2020
C15_4 C 0.23081(19) 0.5842(2) 0.22421(11)
H8_4 H 0.2084 0.5928 0.2065
C16_4 C 0.20324(18) 0.57185(19) 0.25325(11)
C17_4 C 0.23844(19) 0.5612(2) 0.27977(11)
H9_4 H 0.2214 0.5536 0.2993
C18_4 C 0.29784(19) 0.5617(2) 0.27723(11)
H10_4 H 0.3202 0.5550 0.2952
C19_4 C 0.14165(18) 0.57097(19) 0.25559(10)
C20_4 C 0.11240(19) 0.5582(2) 0.28364(12)
C21_4 C 0.10640(17) 0.58571(18) 0.22950(11)
N28_4 N 0.9360(2) 0.5797(2) 0.30879(11)
N31_4 N 0.5882(2) 0.5475(2) 0.19311(11)
C49_4 C 0.92344(17) 0.57765(19) 0.22805(11)
C52_4 C 0.9141(2) 0.5771(2) 0.28463(12)
C55_4 C 0.88656(19) 0.5725(2) 0.25481(10)
C58_4 C 0.82552(19) 0.57222(19) 0.25178(11)
C61_4 C 0.78949(19) 0.5839(2) 0.27844(11)
H29_4 H 0.8064 0.5914 0.2980
C64_4 C 0.73081(19) 0.5842(2) 0.27579(11)
H32_4 H 0.7084 0.5928 0.2935
C67_4 C 0.70324(18) 0.57185(19) 0.24675(11)
C70_4 C 0.73844(19) 0.5612(2) 0.22023(11)
H35_4 H 0.7214 0.5536 0.2007
C73_4 C 0.79784(19) 0.5617(2) 0.22277(11)
H38_4 H 0.8202 0.5550 0.2048
C76_4 C 0.64165(18) 0.57097(19) 0.24441(10)
C79_4 C 0.61240(19) 0.5582(2) 0.21636(12)
C82_4 C 0.60640(17) 0.58571(18) 0.27050(11)
H48_2 H 0.00269881 0.991625 0.167923
H48_3 H 0.00269881 0.491625 0.832077
H41_2 H 0.0130243 0.986452 0.159123
H43_2 H 0.986976 0.513548 0.159123
H48_4 H 0.997301 0.00837468 0.832077
Ni8_3 Ni 0.13095(3) 0.23565(3) 0.424709(15)
N32_5 N 0.2025(2) 0.1618(2) 0.55689(11)
N35_3 N 0.15148(16) 0.17316(14) 0.45862(9)
C65_5 C 0.1658(2) 0.01919(19) 0.47421(11)
H33_5 H 0.1572 0.0416 0.4565
C68_5 C 0.17815(19) 0.04676(18) 0.50325(11)
C71_5 C 0.1888(2) 0.01156(19) 0.52977(11)
H36_5 H 0.1964 0.0286 0.5493
C77_5 C 0.17903(19) 0.10835(18) 0.50559(10)
C80_5 C 0.1918(2) 0.13760(19) 0.53364(12)
C83_5 C 0.16429(18) 0.14360(17) 0.47950(11)
Ni1_4 Ni 0.01435(3) 0.88095(3) 0.674709(15)
Ni2_7 Ni 0.0000 0.7500 0.6250
O1_5 O 0.02394(13) 0.96492(13) 0.65662(7)
N4_5 N 0.00465(13) 0.79755(14) 0.69324(8)
N5_7 N 0.0000 0.7500 0.67550(11)
C7_5 C 0.00310(17) 0.77991(19) 0.72407(10)
C8_5 C 0.0060(2) 0.8117(2) 0.75269(11)
H5_5 H 0.0099 0.8518 0.7527
C9_5 C 0.0029(2) 0.7807(2) 0.78026(12)
H6_5 H 0.0046 0.8003 0.7995
Ni3_4 Ni 0.13095(3) 0.73565(3) 0.575291(15)
Ni7_3 Ni 0.51435(3) 0.88095(3) 0.825291(15)
O2_5 O 0.21492(13) 0.72606(13) 0.59338(7)
N10_5 N 0.07186(13) 0.80702(14) 0.62515(7)
N12_5 N 0.05702(14) 0.67814(13) 0.62485(7)
N13_5 N 0.11878(14) 0.79975(14) 0.60762(8)
N15_5 N 0.04975(14) 0.63122(14) 0.64238(8)
N16_5 N 0.07620(14) 0.85369(14) 0.64326(8)
N18_5 N 0.10369(14) 0.67380(14) 0.60674(8)
N20_5 N 0.04755(14) 0.74535(13) 0.55676(8)
N22_7 N 0.0000 0.7500 0.57450(11)
N23_3 N 0.45444(14) 0.91473(16) 0.79263(9)
N24_4 N 0.16473(16) 0.79556(14) 0.54263(9)
N25_3 N 0.16473(16) 0.29556(14) 0.45737(9)
N27_4 N 0.04556(14) 0.58527(16) 0.70737(9)
N28_5 N 0.4360(2) 0.9203(2) 0.69121(11)
N29_5 N 0.1703(2) 0.8140(2) 0.44121(11)
N30_5 N 0.1703(2) 0.3140(2) 0.55879(11)
N31_5 N 0.0882(2) 0.9525(2) 0.80689(11)
N33_5 N 0.2025(2) 0.6618(2) 0.44311(11)
N34_4 N 0.07684(14) 0.90148(16) 0.70862(9)
N36_4 N 0.15148(16) 0.67316(14) 0.54138(9)
C22_5 C 0.15592(17) 0.84389(17) 0.61490(10)
C24_5 C 0.09389(17) 0.59408(17) 0.63510(10)
C25_5 C 0.21271(18) 0.85654(19) 0.60401(10)
C27_5 C 0.10654(19) 0.53729(18) 0.64599(10)
H11_5 H 0.2314 0.8332 0.5893
H13_5 H 0.0832 0.5186 0.6607
C28_5 C 0.23820(19) 0.9044(2) 0.61625(11)
C30_5 C 0.1544(2) 0.51180(19) 0.63375(11)
H14_5 H 0.2756 0.9138 0.6098
H16_5 H 0.1638 0.4744 0.6402
C31_5 C 0.2099(2) 0.9405(2) 0.63848(11)
C33_5 C 0.1905(2) 0.5401(2) 0.61152(11)
H17_5 H 0.2289 0.9733 0.6458
H19_5 H 0.2233 0.5211 0.6042
C34_5 C 0.15562(19) 0.9286(2) 0.64944(11)
C36_5 C 0.1786(2) 0.59438(19) 0.60056(11)
H20_5 H 0.1373 0.9524 0.6642
H22_5 H 0.2024 0.6127 0.5858
C37_5 C 0.12856(17) 0.87829(18) 0.63726(10)
C39_5 C 0.12829(18) 0.62144(17) 0.61274(10)
C41_5 C 0.02991(19) 0.74690(17) 0.52593(10)
C44_5 C 0.0617(2) 0.7440(2) 0.49731(11)
H24_5 H 0.1018 0.7401 0.4973
C47_5 C 0.0307(2) 0.7471(2) 0.46974(12)
H27_5 H 0.0503 0.7454 0.4505
C49_5 C 0.42344(17) 0.92235(19) 0.77195(11)
C50_5 C 0.17235(19) 0.82656(17) 0.52195(11)
C51_5 C 0.17235(19) 0.32656(17) 0.47805(11)
C52_5 C 0.4141(2) 0.9229(2) 0.71537(12)
C53_5 C 0.1729(2) 0.8359(2) 0.46537(12)
C54_5 C 0.1729(2) 0.3359(2) 0.53463(12)
C55_5 C 0.38656(19) 0.9275(2) 0.74519(10)
C56_5 C 0.1775(2) 0.86344(19) 0.49519(10)
C57_5 C 0.1775(2) 0.36344(19) 0.50481(10)
C58_5 C 0.32552(19) 0.92778(19) 0.74822(11)
C59_5 C 0.17778(19) 0.92448(19) 0.49822(11)
C60_5 C 0.17778(19) 0.42448(19) 0.50178(11)
C61_5 C 0.28949(19) 0.9161(2) 0.72156(11)
C62_5 C 0.1661(2) 0.96051(19) 0.47156(11)
C63_5 C 0.1661(2) 0.46051(19) 0.52844(11)
H29_5 H 0.3064 0.9086 0.7020
H30_5 H 0.1586 0.9436 0.4520
H31_5 H 0.1586 0.4436 0.5480
C64_5 C 0.23081(19) 0.9158(2) 0.72421(11)
C66_5 C 0.1658(2) 0.51919(19) 0.52579(11)
H32_5 H 0.2084 0.9072 0.7065
H34_5 H 0.1572 0.5416 0.5435
C67_5 C 0.20324(18) 0.92815(19) 0.75325(11)
C69_5 C 0.17815(19) 0.54676(18) 0.49675(11)
C70_5 C 0.23844(19) 0.9388(2) 0.77977(11)
C72_5 C 0.1888(2) 0.51156(19) 0.47023(11)
H35_5 H 0.2214 0.9464 0.7993
H37_5 H 0.1964 0.5286 0.4507
C73_5 C 0.29784(19) 0.9383(2) 0.77723(11)
C74_5 C 0.1883(2) 0.95216(19) 0.52723(11)
C75_5 C 0.1883(2) 0.45216(19) 0.47277(11)
H38_5 H 0.3202 0.9450 0.7952
H39_5 H 0.1950 0.9298 0.5452
H40_5 H 0.1950 0.4298 0.4548
C76_5 C 0.14165(18) 0.92903(19) 0.75559(10)
C78_5 C 0.17903(19) 0.60835(18) 0.49441(10)
C79_5 C 0.11240(19) 0.9418(2) 0.78364(12)
C81_5 C 0.1918(2) 0.63760(19) 0.46636(12)
C82_5 C 0.10640(17) 0.91429(18) 0.72950(11)
C84_5 C 0.16429(18) 0.64360(17) 0.52050(11)
H43_3 H 0.0130243 0.513548 0.659123
H2_5 H 0.8362 0.0256 0.6402
Ni2_8 Ni 1.0000 0.7500 0.6250
N1_5 N 0.94298(14) 0.82186(13) 0.62485(7)
N2_5 N 0.95025(14) 0.86878(14) 0.64238(8)
N3_5 N 0.89631(14) 0.82620(14) 0.60674(8)
N5_8 N 1.0000 0.7500 0.67550(11)
N6_4 N 0.95444(14) 0.91473(16) 0.70737(9)
N7_5 N 0.9360(2) 0.9203(2) 0.80879(11)
N8_5 N 0.5882(2) 0.9525(2) 0.69311(11)
N9_3 N 0.57684(14) 0.90148(16) 0.79138(9)
C1_5 C 0.90611(17) 0.90592(17) 0.63510(10)
C2_5 C 0.89346(19) 0.96271(18) 0.64599(10)
H1_5 H 0.9168 0.9814 0.6607
C3_5 C 0.8456(2) 0.98820(19) 0.63375(11)
C4_5 C 0.8095(2) 0.9599(2) 0.61152(11)
H3_5 H 0.7767 0.9789 0.6042
C5_5 C 0.8214(2) 0.90562(19) 0.60056(11)
H4_5 H 0.7976 0.8873 0.5858
C6_5 C 0.87171(18) 0.87856(17) 0.61274(10)
C10_5 C 0.92344(17) 0.92235(19) 0.72805(11)
C11_5 C 0.9141(2) 0.9229(2) 0.78463(12)
C12_5 C 0.88656(19) 0.9275(2) 0.75481(10)
C13_5 C 0.82552(19) 0.92778(19) 0.75178(11)
C14_5 C 0.78949(19) 0.9161(2) 0.77844(11)
H7_5 H 0.8064 0.9086 0.7980
C15_5 C 0.73081(19) 0.9158(2) 0.77579(11)
H8_5 H 0.7084 0.9072 0.7935
C16_5 C 0.70324(18) 0.92815(19) 0.74675(11)
C17_5 C 0.73844(19) 0.9388(2) 0.72023(11)
H9_5 H 0.7214 0.9464 0.7007
C18_5 C 0.79784(19) 0.9383(2) 0.72277(11)
H10_5 H 0.8202 0.9450 0.7048
C19_5 C 0.64165(18) 0.92903(19) 0.74441(10)
C20_5 C 0.61240(19) 0.9418(2) 0.71636(12)
C21_5 C 0.60640(17) 0.91429(18) 0.77050(11)
Ni4_4 Ni 0.86905(3) 0.76435(3) 0.575291(15)
Ni5_4 Ni 0.98565(3) 0.61905(3) 0.674709(15)
O3_5 O 0.78508(13) 0.77394(13) 0.59338(7)
O4_5 O 0.97606(13) 0.53508(13) 0.65662(7)
N11_5 N 0.92814(13) 0.69298(14) 0.62515(7)
N14_5 N 0.88122(14) 0.70025(14) 0.60762(8)
N17_5 N 0.92380(14) 0.64631(14) 0.64326(8)
N19_5 N 0.99535(13) 0.70245(14) 0.69324(8)
N21_5 N 0.95245(14) 0.75465(13) 0.55676(8)
N22_8 N 1.0000 0.7500 0.57450(11)
N26_4 N 0.83527(16) 0.70444(14) 0.54263(9)
N37_4 N 0.84852(16) 0.82684(14) 0.54138(9)
N38_4 N 0.92316(14) 0.59852(16) 0.70862(9)
C23_5 C 0.84408(17) 0.65611(17) 0.61490(10)
C26_5 C 0.78729(18) 0.64346(19) 0.60401(10)
H12_5 H 0.7686 0.6668 0.5893
C29_5 C 0.76180(19) 0.5956(2) 0.61625(11)
H15_5 H 0.7244 0.5862 0.6098
C32_5 C 0.7901(2) 0.5595(2) 0.63848(11)
H18_5 H 0.7711 0.5267 0.6458
C35_5 C 0.84438(19) 0.5714(2) 0.64944(11)
H21_5 H 0.8627 0.5476 0.6642
C38_5 C 0.87144(17) 0.62171(18) 0.63726(10)
C40_5 C 0.99690(17) 0.72009(19) 0.72407(10)
C42_5 C 0.97009(19) 0.75310(17) 0.52593(10)
C43_5 C 0.9940(2) 0.6883(2) 0.75269(11)
C45_5 C 0.9383(2) 0.7560(2) 0.49731(11)
H23_5 H 0.9901 0.6482 0.7527
H25_5 H 0.8982 0.7599 0.4973
C46_5 C 0.9971(2) 0.7193(2) 0.78026(12)
C48_5 C 0.9693(2) 0.7529(2) 0.46974(12)
H26_5 H 0.9954 0.6997 0.7995
H28_5 H 0.9497 0.7546 0.4505
H41_3 H 0.986976 0.986452 0.659123
Ni1_5 Ni 0.48565(3) 0.11905(3) 0.174709(15)
Ni2_9 Ni 0.5000 0.2500 0.1250
O1_6 O 0.47606(13) 0.03508(13) 0.15662(7)
N1_6 N 0.55702(14) 0.17814(13) 0.12485(7)
N2_6 N 0.54975(14) 0.13122(14) 0.14238(8)
N3_6 N 0.60369(14) 0.17380(14) 0.10674(8)
N4_6 N 0.49535(13) 0.20245(14) 0.19324(8)
N5_9 N 0.5000 0.2500 0.17550(11)
N6_5 N 0.54556(14) 0.08527(16) 0.20737(9)
N7_6 N 0.5640(2) 0.0797(2) 0.30879(11)
N8_6 N 0.9118(2) 0.0475(2) 0.19311(11)
N9_4 N 0.92316(14) 0.09852(16) 0.29138(9)
C1_6 C 0.59389(17) 0.09408(17) 0.13510(10)
C2_6 C 0.60654(19) 0.03729(18) 0.14599(10)
H1_6 H 0.5832 0.0186 0.1607
C3_6 C 0.6544(2) 0.01180(19) 0.13375(11)
C4_6 C 0.6905(2) 0.0401(2) 0.11152(11)
H3_6 H 0.7233 0.0211 0.1042
C5_6 C 0.6786(2) 0.09438(19) 0.10056(11)
H4_6 H 0.7024 0.1127 0.0858
C6_6 C 0.62829(18) 0.12144(17) 0.11274(10)
C7_6 C 0.49690(17) 0.22009(19) 0.22407(10)
C8_6 C 0.4940(2) 0.1883(2) 0.25269(11)
H5_6 H 0.4901 0.1482 0.2527
C9_6 C 0.4971(2) 0.2193(2) 0.28026(12)
H6_6 H 0.4954 0.1997 0.2995
C10_6 C 0.57656(17) 0.07765(19) 0.22805(11)
C11_6 C 0.5859(2) 0.0771(2) 0.28463(12)
C12_6 C 0.61344(19) 0.0725(2) 0.25481(10)
C13_6 C 0.67448(19) 0.07222(19) 0.25178(11)
C14_6 C 0.71051(19) 0.0839(2) 0.27844(11)
H7_6 H 0.6936 0.0914 0.2980
C15_6 C 0.76919(19) 0.0842(2) 0.27579(11)
H8_6 H 0.7916 0.0928 0.2935
C16_6 C 0.79676(18) 0.07185(19) 0.24675(11)
C17_6 C 0.76156(19) 0.0612(2) 0.22023(11)
H9_6 H 0.7786 0.0536 0.2007
C18_6 C 0.70216(19) 0.0617(2) 0.22277(11)
H10_6 H 0.6798 0.0550 0.2048
C19_6 C 0.85835(18) 0.07097(19) 0.24441(10)
C20_6 C 0.88760(19) 0.0582(2) 0.21636(12)
C21_6 C 0.89360(17) 0.08571(18) 0.27050(11)
Ni3_5 Ni 0.36905(3) 0.26435(3) 0.075291(15)
Ni4_5 Ni 0.63095(3) 0.23565(3) 0.075291(15)
Ni5_5 Ni 0.51435(3) 0.38095(3) 0.174709(15)
Ni6 Ni 0.98565(3) 0.11905(3) 0.325291(15)
O2_6 O 0.28508(13) 0.27394(13) 0.09338(7)
O3_6 O 0.71492(13) 0.22606(13) 0.09338(7)
O4_6 O 0.52394(13) 0.46492(13) 0.15662(7)
N10_6 N 0.42814(13) 0.19298(14) 0.12515(7)
N11_6 N 0.57186(13) 0.30702(14) 0.12515(7)
N12_6 N 0.44298(14) 0.32186(13) 0.12485(7)
N13_6 N 0.38122(14) 0.20025(14) 0.10762(8)
N14_6 N 0.61878(14) 0.29975(14) 0.10762(8)
N15_6 N 0.45025(14) 0.36878(14) 0.14238(8)
N16_6 N 0.42380(14) 0.14631(14) 0.14326(8)
N17_6 N 0.57620(14) 0.35369(14) 0.14326(8)
N18_6 N 0.39631(14) 0.32620(14) 0.10674(8)
N19_6 N 0.50465(13) 0.29755(14) 0.19324(8)
N20_6 N 0.45245(14) 0.25465(13) 0.05676(8)
N21_6 N 0.54755(14) 0.24535(13) 0.05676(8)
N22_9 N 0.5000 0.2500 0.07450(11)
N23_4 N 0.04556(14) 0.08527(16) 0.29263(9)
N24_5 N 0.33527(16) 0.20444(14) 0.04263(9)
N26_5 N 0.66473(16) 0.29556(14) 0.04263(9)
N27_5 N 0.45444(14) 0.41473(16) 0.20737(9)
N28_6 N 0.0640(2) 0.0797(2) 0.19121(11)
N30_6 N 0.3297(2) 0.6860(2) 0.05879(11)
N31_6 N 0.4118(2) 0.0475(2) 0.30689(11)
N34_5 N 0.42316(14) 0.09852(16) 0.20862(9)
N36_5 N 0.34852(16) 0.32684(14) 0.04138(9)
N37_5 N 0.65148(16) 0.17316(14) 0.04138(9)
N38_5 N 0.57684(14) 0.40148(16) 0.20862(9)
C22_6 C 0.34408(17) 0.15611(17) 0.11490(10)
C23_6 C 0.65592(17) 0.34389(17) 0.11490(10)
C24_6 C 0.40611(17) 0.40592(17) 0.13510(10)
C25_6 C 0.28729(18) 0.14346(19) 0.10401(10)
C26_6 C 0.71271(18) 0.35654(19) 0.10401(10)
C27_6 C 0.39346(19) 0.46271(18) 0.14599(10)
H11_6 H 0.2686 0.1668 0.0893
H12_6 H 0.7314 0.3332 0.0893
H13_6 H 0.4168 0.4814 0.1607
C28_6 C 0.26180(19) 0.0956(2) 0.11625(11)
C29_6 C 0.73820(19) 0.4044(2) 0.11625(11)
C30_6 C 0.3456(2) 0.48820(19) 0.13375(11)
H14_6 H 0.2244 0.0862 0.1098
H15_6 H 0.7756 0.4138 0.1098
H16_6 H 0.3362 0.5256 0.1402
C31_6 C 0.2901(2) 0.0595(2) 0.13848(11)
C32_6 C 0.7099(2) 0.4405(2) 0.13848(11)
C33_6 C 0.3095(2) 0.4599(2) 0.11152(11)
H17_6 H 0.2711 0.0267 0.1458
H18_6 H 0.7289 0.4733 0.1458
H19_6 H 0.2767 0.4789 0.1042
C34_6 C 0.34438(19) 0.0714(2) 0.14944(11)
C35_6 C 0.65562(19) 0.4286(2) 0.14944(11)
C36_6 C 0.3214(2) 0.40562(19) 0.10056(11)
H20_6 H 0.3627 0.0476 0.1642
H21_6 H 0.6373 0.4524 0.1642
H22_6 H 0.2976 0.3873 0.0858
C37_6 C 0.37144(17) 0.12171(18) 0.13726(10)
C38_6 C 0.62856(17) 0.37829(18) 0.13726(10)
C39_6 C 0.37171(18) 0.37856(17) 0.11274(10)
C40_6 C 0.50310(17) 0.27991(19) 0.22407(10)
C41_6 C 0.47009(19) 0.25310(17) 0.02593(10)
C42_6 C 0.52991(19) 0.24690(17) 0.02593(10)
C43_6 C 0.5060(2) 0.3117(2) 0.25269(11)
H23_6 H 0.5099 0.3518 0.2527
C46_6 C 0.5029(2) 0.2807(2) 0.28026(12)
H26_6 H 0.5046 0.3003 0.2995
C49_6 C 0.07656(17) 0.07765(19) 0.27195(11)
C50_6 C 0.32765(19) 0.17344(17) 0.02195(11)
C52_6 C 0.0859(2) 0.0771(2) 0.21537(12)
C54_6 C 0.3271(2) 0.6641(2) 0.03463(12)
C55_6 C 0.11344(19) 0.0725(2) 0.24519(10)
C57_6 C 0.3225(2) 0.63656(19) 0.00481(10)
C58_6 C 0.17448(19) 0.07222(19) 0.24822(11)
C60_6 C 0.32222(19) 0.57552(19) 0.00178(11)
C61_6 C 0.21051(19) 0.0839(2) 0.22156(11)
C63_6 C 0.3339(2) 0.53949(19) 0.02844(11)
H29_6 H 0.1936 0.0914 0.2020
H31_6 H 0.3414 0.5564 0.0480
C64_6 C 0.26919(19) 0.0842(2) 0.22421(11)
C66_6 C 0.3342(2) 0.48081(19) 0.02579(11)
H32_6 H 0.2916 0.0928 0.2065
H34_6 H 0.3428 0.4584 0.0435
C67_6 C 0.29676(18) 0.07185(19) 0.25325(11)
C70_6 C 0.26156(19) 0.0612(2) 0.27977(11)
H35_6 H 0.2786 0.0536 0.2993
C73_6 C 0.20216(19) 0.0617(2) 0.27723(11)
C74_6 C 0.3117(2) 0.04784(19) 0.02723(11)
H38_6 H 0.1798 0.0550 0.2952
H39_6 H 0.3050 0.0702 0.0452
C76_6 C 0.35835(18) 0.07097(19) 0.25559(10)
C79_6 C 0.38760(19) 0.0582(2) 0.28364(12)
C82_6 C 0.39360(17) 0.08571(18) 0.22950(11)
C84_6 C 0.33571(18) 0.35640(17) 0.02050(11)
Ni9 Ni 0.36905(3) 0.76435(3) 0.924709(15)
N25_4 N 0.33527(16) 0.70444(14) 0.95737(9)
N29_6 N 0.3297(2) 0.1860(2) 0.94121(11)
N33_6 N 0.2975(2) 0.3382(2) 0.94311(11)
C44_6 C 0.4383(2) 0.2560(2) 0.99731(11)
C45_6 C 0.5617(2) 0.2440(2) 0.99731(11)
H24_6 H 0.3982 0.2599 0.9973
H25_6 H 0.6018 0.2401 0.9973
C47_6 C 0.4693(2) 0.2529(2) 0.96974(12)
C48_6 C 0.5307(2) 0.2471(2) 0.96974(12)
H27_6 H 0.4497 0.2546 0.9505
H28_6 H 0.5503 0.2454 0.9505
C51_6 C 0.32765(19) 0.67344(17) 0.97805(11)
C53_6 C 0.3271(2) 0.1641(2) 0.96537(12)
C56_6 C 0.3225(2) 0.13656(19) 0.99519(10)
C59_6 C 0.32222(19) 0.07552(19) 0.99822(11)
C62_6 C 0.3339(2) 0.03949(19) 0.97156(11)
H30_6 H 0.3414 0.0564 0.9520
C69_6 C 0.32185(19) 0.45324(18) 0.99675(11)
C72_6 C 0.3112(2) 0.48844(19) 0.97023(11)
H37_6 H 0.3036 0.4714 0.9507
C75_6 C 0.3117(2) 0.54784(19) 0.97277(11)
H40_6 H 0.3050 0.5702 0.9548
C78_6 C 0.32097(19) 0.39165(18) 0.99441(10)
C81_6 C 0.3082(2) 0.36240(19) 0.96636(12)
H2_6 H 0.6638 0.9744 0.1402
N32_6 N 0.2975(2) 0.8382(2) 0.05689(11)
C68_6 C 0.32185(19) 0.95324(18) 0.00325(11)
C71_6 C 0.3112(2) 0.98844(19) 0.02977(11)
H36_6 H 0.3036 0.9714 0.0493
C77_6 C 0.32097(19) 0.89165(18) 0.00559(10)
C80_6 C 0.3082(2) 0.86240(19) 0.03364(12)
N35_4 N 0.34852(16) 0.82684(14) 0.95862(9)
C65_6 C 0.3342(2) 0.98081(19) 0.97421(11)
H33_6 H 0.3428 0.9584 0.9565
C83_6 C 0.33571(18) 0.85640(17) 0.97950(11)
Ni7_4 Ni 0.01435(3) 0.38095(3) 0.325291(15)
N7_7 N 0.4360(2) 0.4203(2) 0.30879(11)
N8_7 N 0.0882(2) 0.4525(2) 0.19311(11)
N9_5 N 0.07684(14) 0.40148(16) 0.29138(9)
C10_7 C 0.42344(17) 0.42235(19) 0.22805(11)
C11_7 C 0.4141(2) 0.4229(2) 0.28463(12)
C12_7 C 0.38656(19) 0.4275(2) 0.25481(10)
C13_7 C 0.32552(19) 0.42778(19) 0.25178(11)
C14_7 C 0.28949(19) 0.4161(2) 0.27844(11)
H7_7 H 0.3064 0.4086 0.2980
C15_7 C 0.23081(19) 0.4158(2) 0.27579(11)
H8_7 H 0.2084 0.4072 0.2935
C16_7 C 0.20324(18) 0.42815(19) 0.24675(11)
C17_7 C 0.23844(19) 0.4388(2) 0.22023(11)
H9_7 H 0.2214 0.4464 0.2007
C18_7 C 0.29784(19) 0.4383(2) 0.22277(11)
H10_7 H 0.3202 0.4450 0.2048
C19_7 C 0.14165(18) 0.42903(19) 0.24441(10)
C20_7 C 0.11240(19) 0.4418(2) 0.21636(12)
C21_7 C 0.10640(17) 0.41429(18) 0.27050(11)
N23_5 N 0.95444(14) 0.41473(16) 0.29263(9)
N28_7 N 0.9360(2) 0.4203(2) 0.19121(11)
N31_7 N 0.5882(2) 0.4525(2) 0.30689(11)
N32_7 N 0.7025(2) 0.6618(2) 0.05689(11)
C49_7 C 0.92344(17) 0.42235(19) 0.27195(11)
C50_7 C 0.67235(19) 0.32656(17) 0.02195(11)
C52_7 C 0.9141(2) 0.4229(2) 0.21537(12)
C55_7 C 0.88656(19) 0.4275(2) 0.24519(10)
C58_7 C 0.82552(19) 0.42778(19) 0.24822(11)
C61_7 C 0.78949(19) 0.4161(2) 0.22156(11)
H29_7 H 0.8064 0.4086 0.2020
C64_7 C 0.73081(19) 0.4158(2) 0.22421(11)
C66_7 C 0.6658(2) 0.01919(19) 0.02579(11)
H32_7 H 0.7084 0.4072 0.2065
H34_7 H 0.6572 0.0416 0.0435
C67_7 C 0.70324(18) 0.42815(19) 0.25325(11)
C68_7 C 0.67815(19) 0.54676(18) 0.00325(11)
C70_7 C 0.73844(19) 0.4388(2) 0.27977(11)
C71_7 C 0.6888(2) 0.51156(19) 0.02977(11)
H35_7 H 0.7214 0.4464 0.2993
H36_7 H 0.6964 0.5286 0.0493
C73_7 C 0.79784(19) 0.4383(2) 0.27723(11)
C74_7 C 0.6883(2) 0.45216(19) 0.02723(11)
H38_7 H 0.8202 0.4450 0.2952
H39_7 H 0.6950 0.4298 0.0452
C76_7 C 0.64165(18) 0.42903(19) 0.25559(10)
C77_7 C 0.67903(19) 0.60835(18) 0.00559(10)
C79_7 C 0.61240(19) 0.4418(2) 0.28364(12)
C80_7 C 0.6918(2) 0.63760(19) 0.03364(12)
C82_7 C 0.60640(17) 0.41429(18) 0.22950(11)
C84_7 C 0.66429(18) 0.14360(17) 0.02050(11)
Ni8_4 Ni 0.63095(3) 0.73565(3) 0.924709(15)
N29_7 N 0.6703(2) 0.3140(2) 0.94121(11)
N33_7 N 0.7025(2) 0.1618(2) 0.94311(11)
N35_5 N 0.65148(16) 0.67316(14) 0.95862(9)
C53_7 C 0.6729(2) 0.3359(2) 0.96537(12)
C56_7 C 0.6775(2) 0.36344(19) 0.99519(10)
C59_7 C 0.67778(19) 0.42448(19) 0.99822(11)
C62_7 C 0.6661(2) 0.46051(19) 0.97156(11)
H30_7 H 0.6586 0.4436 0.9520
C65_7 C 0.6658(2) 0.51919(19) 0.97421(11)
H33_7 H 0.6572 0.5416 0.9565
C69_7 C 0.67815(19) 0.04676(18) 0.99675(11)
C72_7 C 0.6888(2) 0.01156(19) 0.97023(11)
H37_7 H 0.6964 0.0286 0.9507
C78_7 C 0.67903(19) 0.10835(18) 0.99441(10)
C81_7 C 0.6918(2) 0.13760(19) 0.96636(12)
C83_7 C 0.66429(18) 0.64360(17) 0.97950(11)
N30_7 N 0.6703(2) 0.8140(2) 0.05879(11)
C54_7 C 0.6729(2) 0.8359(2) 0.03463(12)
C57_7 C 0.6775(2) 0.86344(19) 0.00481(10)
C60_7 C 0.67778(19) 0.92448(19) 0.00178(11)
C63_7 C 0.6661(2) 0.96051(19) 0.02844(11)
H31_7 H 0.6586 0.9436 0.0480
N25_5 N 0.66473(16) 0.79556(14) 0.95737(9)
C51_7 C 0.67235(19) 0.82656(17) 0.97805(11)
C75_7 C 0.6883(2) 0.95216(19) 0.97277(11)
H40_7 H 0.6950 0.9298 0.9548
H14_7 H 0.3362 0.0256 0.8598
C8_7 C 0.4383(2) 0.7560(2) 0.00269(11)
H5_7 H 0.3982 0.7599 0.0027
C9_7 C 0.4693(2) 0.7529(2) 0.03026(12)
H6_7 H 0.4497 0.7546 0.0495
C43_7 C 0.5617(2) 0.7440(2) 0.00269(11)
H23_7 H 0.6018 0.7401 0.0027
C46_7 C 0.5307(2) 0.7471(2) 0.03026(12)
H26_7 H 0.5503 0.7454 0.0495
Ni2_10 Ni 0.5000 0.7500 0.8750
O1_7 O 0.28508(13) 0.77394(13) 0.90662(7)
N1_7 N 0.42814(13) 0.69298(14) 0.87485(7)
N2_7 N 0.38122(14) 0.70025(14) 0.89238(8)
N3_7 N 0.42380(14) 0.64631(14) 0.85674(8)
N4_7 N 0.45245(14) 0.75465(13) 0.94324(8)
N5_10 N 0.5000 0.7500 0.92550(11)
C1_7 C 0.34408(17) 0.65611(17) 0.88510(10)
C2_7 C 0.28729(18) 0.64346(19) 0.89599(10)
H1_7 H 0.2686 0.6668 0.9107
C3_7 C 0.26180(19) 0.5956(2) 0.88375(11)
H2_7 H 0.2244 0.5862 0.8902
C4_7 C 0.2901(2) 0.5595(2) 0.86152(11)
H3_7 H 0.2711 0.5267 0.8542
C5_7 C 0.34438(19) 0.5714(2) 0.85056(11)
H4_7 H 0.3627 0.5476 0.8358
C6_7 C 0.37144(17) 0.62171(18) 0.86274(10)
C7_7 C 0.47009(19) 0.75310(17) 0.97407(10)
Ni4_6 Ni 0.48565(3) 0.61905(3) 0.825291(15)
O2_7 O 0.52394(13) 0.96492(13) 0.84338(7)
O3_7 O 0.47606(13) 0.53508(13) 0.84338(7)
O4_7 O 0.71492(13) 0.72606(13) 0.90662(7)
N10_7 N 0.44298(14) 0.82186(13) 0.87515(7)
N11_7 N 0.55702(14) 0.67814(13) 0.87515(7)
N12_7 N 0.57186(13) 0.80702(14) 0.87485(7)
N13_7 N 0.45025(14) 0.86878(14) 0.85762(8)
N14_7 N 0.54975(14) 0.63122(14) 0.85762(8)
N15_7 N 0.61878(14) 0.79975(14) 0.89238(8)
N16_7 N 0.39631(14) 0.82620(14) 0.89326(8)
N17_7 N 0.60369(14) 0.67380(14) 0.89326(8)
N18_7 N 0.57620(14) 0.85369(14) 0.85674(8)
N19_7 N 0.54755(14) 0.74535(13) 0.94324(8)
N20_7 N 0.50465(13) 0.79755(14) 0.80676(8)
N21_7 N 0.49535(13) 0.70245(14) 0.80676(8)
N22_10 N 0.5000 0.7500 0.82450(11)
N26_6 N 0.54556(14) 0.58527(16) 0.79263(9)
N37_6 N 0.42316(14) 0.59852(16) 0.79138(9)
C22_7 C 0.40611(17) 0.90592(17) 0.86490(10)
C23_7 C 0.59389(17) 0.59408(17) 0.86490(10)
C24_7 C 0.65592(17) 0.84389(17) 0.88510(10)
C25_7 C 0.39346(19) 0.96271(18) 0.85401(10)
C26_7 C 0.60654(19) 0.53729(18) 0.85401(10)
C27_7 C 0.71271(18) 0.85654(19) 0.89599(10)
H11_7 H 0.4168 0.9814 0.8393
H12_7 H 0.5832 0.5186 0.8393
H13_7 H 0.7314 0.8332 0.9107
C28_7 C 0.3456(2) 0.98820(19) 0.86625(11)
C29_7 C 0.6544(2) 0.51180(19) 0.86625(11)
C30_7 C 0.73820(19) 0.9044(2) 0.88375(11)
H15_7 H 0.6638 0.4744 0.8598
H16_7 H 0.7756 0.9138 0.8902
C31_7 C 0.3095(2) 0.9599(2) 0.88848(11)
C32_7 C 0.6905(2) 0.5401(2) 0.88848(11)
C33_7 C 0.7099(2) 0.9405(2) 0.86152(11)
H17_7 H 0.2767 0.9789 0.8958
H18_7 H 0.7233 0.5211 0.8958
H19_7 H 0.7289 0.9733 0.8542
C34_7 C 0.3214(2) 0.90562(19) 0.89944(11)
C35_7 C 0.6786(2) 0.59438(19) 0.89944(11)
C36_7 C 0.65562(19) 0.9286(2) 0.85056(11)
H20_7 H 0.2976 0.8873 0.9142
H21_7 H 0.7024 0.6127 0.9142
H22_7 H 0.6373 0.9524 0.8358
C37_7 C 0.37171(18) 0.87856(17) 0.88726(10)
C38_7 C 0.62829(18) 0.62144(17) 0.88726(10)
C39_7 C 0.62856(17) 0.87829(18) 0.86274(10)
C40_7 C 0.52991(19) 0.74690(17) 0.97407(10)
C41_7 C 0.50310(17) 0.77991(19) 0.77593(10)
C42_7 C 0.49690(17) 0.72009(19) 0.77593(10)
C44_7 C 0.5060(2) 0.8117(2) 0.74731(11)
C45_7 C 0.4940(2) 0.6883(2) 0.74731(11)
H24_7 H 0.5099 0.8518 0.7473
H25_7 H 0.4901 0.6482 0.7473
C47_7 C 0.5029(2) 0.7807(2) 0.71974(12)
C48_7 C 0.4971(2) 0.7193(2) 0.71974(12)
H27_7 H 0.5046 0.8003 0.7005
H28_7 H 0.4954 0.6997 0.7005
Ni2_11 Ni 0.0000 0.2500 0.3750
O1_8 O 0.21492(13) 0.22606(13) 0.40662(7)
N1_8 N 0.07186(13) 0.30702(14) 0.37485(7)
N2_8 N 0.11878(14) 0.29975(14) 0.39238(8)
N3_8 N 0.07620(14) 0.35369(14) 0.35674(8)
N4_8 N 0.04755(14) 0.24535(13) 0.44324(8)
N5_11 N 0.0000 0.2500 0.42550(11)
C1_8 C 0.15592(17) 0.34389(17) 0.38510(10)
C2_8 C 0.21271(18) 0.35654(19) 0.39599(10)
H1_8 H 0.2314 0.3332 0.4107
C3_8 C 0.23820(19) 0.4044(2) 0.38375(11)
H2_8 H 0.2756 0.4138 0.3902
C4_8 C 0.2099(2) 0.4405(2) 0.36152(11)
H3_8 H 0.2289 0.4733 0.3542
C5_8 C 0.15562(19) 0.4286(2) 0.35056(11)
H4_8 H 0.1373 0.4524 0.3358
C6_8 C 0.12856(17) 0.37829(18) 0.36274(10)
C7_8 C 0.02991(19) 0.24690(17) 0.47407(10)
C8_8 C 0.0617(2) 0.2440(2) 0.50269(11)
H5_8 H 0.1018 0.2401 0.5027
C9_8 C 0.0307(2) 0.2471(2) 0.53026(12)
H6_8 H 0.0503 0.2454 0.5495
O3_8 O 0.02394(13) 0.46492(13) 0.34338(7)
N10_8 N 0.05702(14) 0.17814(13) 0.37515(7)
N13_8 N 0.04975(14) 0.13122(14) 0.35762(8)
N16_8 N 0.10369(14) 0.17380(14) 0.39326(8)
N21_8 N 0.00465(13) 0.29755(14) 0.30676(8)
N22_11 N 0.0000 0.2500 0.32450(11)
C22_8 C 0.09389(17) 0.09408(17) 0.36490(10)
C25_8 C 0.10654(19) 0.03729(18) 0.35401(10)
H11_8 H 0.0832 0.0186 0.3393
C28_8 C 0.1544(2) 0.01180(19) 0.36625(11)
C31_8 C 0.1905(2) 0.0401(2) 0.38848(11)
H17_8 H 0.2233 0.0211 0.3958
C34_8 C 0.1786(2) 0.09438(19) 0.39944(11)
H20_8 H 0.2024 0.1127 0.4142
C37_8 C 0.12829(18) 0.12144(17) 0.38726(10)
C42_8 C 0.00310(17) 0.27991(19) 0.27593(10)
C45_8 C 0.0060(2) 0.3117(2) 0.24731(11)
H25_8 H 0.0099 0.3518 0.2473
C48_8 C 0.0029(2) 0.2807(2) 0.21974(12)
H28_8 H 0.0046 0.3003 0.2005
H14_8 H 0.1638 0.9744 0.3598
Ni2_12 Ni 1.0000 0.2500 0.3750
N5_12 N 1.0000 0.2500 0.42550(11)
Ni5_6 Ni 0.86905(3) 0.26435(3) 0.424709(15)
O2_8 O 0.97606(13) 0.03508(13) 0.34338(7)
O4_8 O 0.78508(13) 0.27394(13) 0.40662(7)
N11_8 N 0.94298(14) 0.32186(13) 0.37515(7)
N12_8 N 0.92814(13) 0.19298(14) 0.37485(7)
N14_8 N 0.95025(14) 0.36878(14) 0.35762(8)
N15_8 N 0.88122(14) 0.20025(14) 0.39238(8)
N17_8 N 0.89631(14) 0.32620(14) 0.39326(8)
N18_8 N 0.92380(14) 0.14631(14) 0.35674(8)
N19_8 N 0.95245(14) 0.25465(13) 0.44324(8)
N20_8 N 0.99535(13) 0.20245(14) 0.30676(8)
N22_12 N 1.0000 0.2500 0.32450(11)
N27_6 N 0.83527(16) 0.20444(14) 0.45737(9)
N38_6 N 0.84852(16) 0.32684(14) 0.45862(9)
C23_8 C 0.90611(17) 0.40592(17) 0.36490(10)
C24_8 C 0.84408(17) 0.15611(17) 0.38510(10)
C26_8 C 0.89346(19) 0.46271(18) 0.35401(10)
C27_8 C 0.78729(18) 0.14346(19) 0.39599(10)
H12_8 H 0.9168 0.4814 0.3393
H13_8 H 0.7686 0.1668 0.4107
C29_8 C 0.8456(2) 0.48820(19) 0.36625(11)
C30_8 C 0.76180(19) 0.0956(2) 0.38375(11)
H15_8 H 0.8362 0.5256 0.3598
H16_8 H 0.7244 0.0862 0.3902
C32_8 C 0.8095(2) 0.4599(2) 0.38848(11)
C33_8 C 0.7901(2) 0.0595(2) 0.36152(11)
H18_8 H 0.7767 0.4789 0.3958
H19_8 H 0.7711 0.0267 0.3542
C35_8 C 0.8214(2) 0.40562(19) 0.39944(11)
C36_8 C 0.84438(19) 0.0714(2) 0.35056(11)
H21_8 H 0.7976 0.3873 0.4142
H22_8 H 0.8627 0.0476 0.3358
C38_8 C 0.87171(18) 0.37856(17) 0.38726(10)
C39_8 C 0.87144(17) 0.12171(18) 0.36274(10)
C40_8 C 0.97009(19) 0.25310(17) 0.47407(10)
C41_8 C 0.99690(17) 0.22009(19) 0.27593(10)
C43_8 C 0.9383(2) 0.2560(2) 0.50269(11)
C44_8 C 0.9940(2) 0.1883(2) 0.24731(11)
H23_8 H 0.8982 0.2599 0.5027
H24_8 H 0.9901 0.1482 0.2473
C46_8 C 0.9693(2) 0.2529(2) 0.53026(12)
C47_8 C 0.9971(2) 0.2193(2) 0.21974(12)
H26_8 H 0.9497 0.2546 0.5495
H27_8 H 0.9954 0.1997 0.2005
H48_5 H 0.997301 0.491625 0.332077
H48_6 H 0.00269881 0.00837468 0.332077
N7_8 N 0.8297(2) 0.1860(2) 0.55879(11)
C10_8 C 0.82765(19) 0.17344(17) 0.47805(11)
C11_8 C 0.8271(2) 0.1641(2) 0.53463(12)
C12_8 C 0.8225(2) 0.13656(19) 0.50481(10)
C13_8 C 0.82222(19) 0.07552(19) 0.50178(11)
C14_8 C 0.8339(2) 0.03949(19) 0.52844(11)
H7_8 H 0.8414 0.0564 0.5480
C18_8 C 0.8117(2) 0.04784(19) 0.47277(11)
H10_8 H 0.8050 0.0702 0.4548
N28_8 N 0.8297(2) 0.6860(2) 0.44121(11)
N31_8 N 0.7975(2) 0.3382(2) 0.55689(11)
C49_8 C 0.82765(19) 0.67344(17) 0.52195(11)
C52_8 C 0.8271(2) 0.6641(2) 0.46537(12)
C55_8 C 0.8225(2) 0.63656(19) 0.49519(10)
C58_8 C 0.82222(19) 0.57552(19) 0.49822(11)
C61_8 C 0.8339(2) 0.53949(19) 0.47156(11)
H29_8 H 0.8414 0.5564 0.4520
C64_8 C 0.8342(2) 0.48081(19) 0.47421(11)
H32_8 H 0.8428 0.4584 0.4565
C67_8 C 0.82185(19) 0.45324(18) 0.50325(11)
C70_8 C 0.8112(2) 0.48844(19) 0.52977(11)
H35_8 H 0.8036 0.4714 0.5493
C73_8 C 0.8117(2) 0.54784(19) 0.52723(11)
H38_8 H 0.8050 0.5702 0.5452
C76_8 C 0.82097(19) 0.39165(18) 0.50559(10)
C79_8 C 0.8082(2) 0.36240(19) 0.53364(12)
C82_8 C 0.83571(18) 0.35640(17) 0.47950(11)
N8_8 N 0.7975(2) 0.8382(2) 0.44311(11)
C15_8 C 0.8342(2) 0.98081(19) 0.52579(11)
H8_8 H 0.8428 0.9584 0.5435
C16_8 C 0.82185(19) 0.95324(18) 0.49675(11)
C17_8 C 0.8112(2) 0.98844(19) 0.47023(11)
H9_8 H 0.8036 0.9714 0.4507
C19_8 C 0.82097(19) 0.89165(18) 0.49441(10)
C20_8 C 0.8082(2) 0.86240(19) 0.46636(12)
C21_8 C 0.83571(18) 0.85640(17) 0.52050(11)
N29_8 N 0.5640(2) 0.5797(2) 0.69121(11)
N30_8 N 0.0640(2) 0.5797(2) 0.80879(11)
N32_8 N 0.9118(2) 0.5475(2) 0.80689(11)
N33_8 N 0.4118(2) 0.5475(2) 0.69311(11)
C50_8 C 0.57656(17) 0.57765(19) 0.77195(11)
C51_8 C 0.07656(17) 0.57765(19) 0.72805(11)
C53_8 C 0.5859(2) 0.5771(2) 0.71537(12)
C54_8 C 0.0859(2) 0.5771(2) 0.78463(12)
C56_8 C 0.61344(19) 0.5725(2) 0.74519(10)
C57_8 C 0.11344(19) 0.5725(2) 0.75481(10)
C59_8 C 0.67448(19) 0.57222(19) 0.74822(11)
C60_8 C 0.17448(19) 0.57222(19) 0.75178(11)
C62_8 C 0.71051(19) 0.5839(2) 0.72156(11)
C63_8 C 0.21051(19) 0.5839(2) 0.77844(11)
H30_8 H 0.6936 0.5914 0.7020
H31_8 H 0.1936 0.5914 0.7980
C65_8 C 0.76919(19) 0.5842(2) 0.72421(11)
C66_8 C 0.26919(19) 0.5842(2) 0.77579(11)
H33_8 H 0.7916 0.5928 0.7065
H34_8 H 0.2916 0.5928 0.7935
C68_8 C 0.79676(18) 0.57185(19) 0.75325(11)
C69_8 C 0.29676(18) 0.57185(19) 0.74675(11)
C71_8 C 0.76156(19) 0.5612(2) 0.77977(11)
C72_8 C 0.26156(19) 0.5612(2) 0.72023(11)
H36_8 H 0.7786 0.5536 0.7993
H37_8 H 0.2786 0.5536 0.7007
C74_8 C 0.70216(19) 0.5617(2) 0.77723(11)
C75_8 C 0.20216(19) 0.5617(2) 0.72277(11)
H39_8 H 0.6798 0.5550 0.7952
H40_8 H 0.1798 0.5550 0.7048
C77_8 C 0.85835(18) 0.57097(19) 0.75559(10)
C78_8 C 0.35835(18) 0.57097(19) 0.74441(10)
C80_8 C 0.88760(19) 0.5582(2) 0.78364(12)
C81_8 C 0.38760(19) 0.5582(2) 0.71636(12)
C83_8 C 0.89360(17) 0.58571(18) 0.72950(11)
C84_8 C 0.39360(17) 0.58571(18) 0.77050(11)
H41_4 H 0.0130243 0.0135484 0.340877
H43_4 H 0.986976 0.486452 0.340877
H48_7 H 0.00269881 0.508375 0.667923
H48_8 H 0.997301 0.991625 0.667923
loop_
_geom_bond_atom_site_label_1
_geom_bond_atom_site_label_2
_geom_bond_site_symmetry_1
_geom_bond_site_symmetry_2
N28 C52 1_555 1_555
C52 C55 1_555 1_555
C55 C58 1_555 1_555
C58 C61 1_555 1_555
C61 H29 1_555 1_555
Ni7 N23 1_555 1_555
N23 C49 1_555 1_555
H38 C73 1_555 1_555
Ni1 O1 1_555 1_555
Ni2 N1 1_555 1_555
N1 N2 1_555 1_555
N2 Ni1 1_555 1_555
N3 N1 1_555 1_555
N4 Ni1 1_555 1_555
N5 Ni2 1_555 1_555
N6 Ni1 1_555 1_555
N8 C20 1_555 1_555
C1 N2 1_555 1_555
C2 C1 1_555 1_555
H1 C2 1_555 1_555
C3 C2 1_555 1_555
H2 C3 1_555 1_555
C4 C3 1_555 1_555
H3 C4 1_555 1_555
C5 C4 1_555 1_555
H4 C5 1_555 1_555
C6 N3 1_555 1_555
C7 N4 1_555 1_555
C10 N6 1_555 1_555
C17 C16 1_555 1_555
H9 C17 1_555 1_555
H10 C18 1_555 1_555
C19 C16 1_555 1_555
C20 C19 1_555 1_555
Ni4 N3 1_555 1_555
Ni8 N35 1_555 1_555
O3 Ni4 1_555 1_555
N10 Ni2 1_555 1_555
N16 Ni1 1_555 1_555
N21 Ni4 1_555 1_555
N22 Ni2 1_555 1_555
N29 C53 1_555 1_555
N32 C80 1_555 1_555
N34 Ni1 1_555 1_555
N35 C83 1_555 1_555
N37 Ni4 1_555 1_555
C22 N13 1_555 1_555
C25 C22 1_555 1_555
H11 C25 1_555 1_555
C28 C25 1_555 1_555
C31 C28 1_555 1_555
H17 C31 1_555 1_555
C34 C31 1_555 1_555
H20 C34 1_555 1_555
C37 N16 1_555 1_555
C42 N21 1_555 1_555
C45 C42 1_555 1_555
H25 C45 1_555 1_555
C48 C45 1_555 1_555
H28 C48 1_555 1_555
C50 N24 1_555 1_555
C53 C56 1_555 1_555
C56 C50 1_555 1_555
C59 C56 1_555 1_555
C62 C59 1_555 1_555
H30 C62 1_555 1_555
C65 C62 1_555 1_555
H32 C64 1_555 1_555
H33 C65 1_555 1_555
C68 C65 1_555 1_555
C71 C68 1_555 1_555
H36 C71 1_555 1_555
C74 C59 1_555 1_555
H39 C74 1_555 1_555
C77 C68 1_555 1_555
C80 C77 1_555 1_555
C82 N34 1_555 1_555
C83 C77 1_555 1_555
N4 N5 1_555 1_555
C1 C6 1_555 1_555
C5 C6 1_555 1_555
C17 C18 1_555 1_555
N10 N13 1_555 1_555
N10 N16 1_555 1_555
N21 N22 1_555 1_555
C22 C37 1_555 1_555
C34 C37 1_555 1_555
C71 C74 1_555 1_555
N7 C11 1_555 1_555
N9 C21 1_555 1_555
H5 C8 1_555 1_555
C9 C8 1_555 1_555
H6 C9 1_555 1_555
C11 C12 1_555 1_555
C13 C12 1_555 1_555
C14 C13 1_555 1_555
H7 C14 1_555 1_555
C15 C14 1_555 1_555
H8 C15 1_555 1_555
Ni7 N9 1_555 1_555
N31 C79 1_555 1_555
C70 C67 1_555 1_555
H35 C70 1_555 1_555
C76 C67 1_555 1_555
C79 C76 1_555 1_555
N5_2 Ni2_2 1_555 1_555
Ni3 O2 1_555 1_555
Ni5 O4 1_555 1_555
Ni8 N25 1_555 1_555
N11 Ni2_2 1_555 1_555
N12 Ni2_2 1_555 1_555
N15 Ni5 1_555 1_555
N17 Ni5 1_555 1_555
N18 Ni3 1_555 1_555
N19 N5_2 1_555 1_555
N20 Ni3 1_555 1_555
N22_2 Ni2_2 1_555 1_555
N25 C51 1_555 1_555
N27 Ni5 1_555 1_555
N30 C54 1_555 1_555
N33 C81 1_555 1_555
N36 Ni3 1_555 1_555
N38 Ni5 1_555 1_555
C23 N14 1_555 1_555
C24 N15 1_555 1_555
C26 C23 1_555 1_555
C27 C24 1_555 1_555
H12 C26 1_555 1_555
H13 C27 1_555 1_555
C29 C26 1_555 1_555
C30 C27 1_555 1_555
H15 C29 1_555 1_555
H16 C30 1_555 1_555
C32 C29 1_555 1_555
C33 C30 1_555 1_555
H18 C32 1_555 1_555
H19 C33 1_555 1_555
C35 C32 1_555 1_555
C36 C33 1_555 1_555
H21 C35 1_555 1_555
H22 C36 1_555 1_555
C38 N17 1_555 1_555
C39 N18 1_555 1_555
C41 N20 1_555 1_555
C44 C41 1_555 1_555
H24 C44 1_555 1_555
C47 C44 1_555 1_555
H27 C47 1_555 1_555
C51 C57 1_555 1_555
C54 C57 1_555 1_555
C57 C60 1_555 1_555
C60 C63 1_555 1_555
C63 H31 1_555 1_555
C66 C63 1_555 1_555
H34 C66 1_555 1_555
C69 C66 1_555 1_555
C72 C69 1_555 1_555
H37 C72 1_555 1_555
C75 C60 1_555 1_555
H40 C75 1_555 1_555
C78 C69 1_555 1_555
C81 C78 1_555 1_555
C84 N36 1_555 1_555
Ni5 N19 1_555 1_555
N11 N14 1_555 1_555
N11 N17 1_555 1_555
N12 N15 1_555 1_555
N12 N18 1_555 1_555
N19 C40 1_555 1_555
N20 N22_2 1_555 1_555
C23 C38 1_555 1_555
C24 C39 1_555 1_555
C35 C38 1_555 1_555
C36 C39 1_555 1_555
C72 C75 1_555 1_555
C78 C84 1_555 1_555
H23 C43 1_555 1_555
H26 C46 1_555 1_555
C43 C46 1_555 1_555
Ni8_2 N35_2 1_555 1_555
N32_2 C80_2 1_555 1_555
N35_2 C83_2 1_555 1_555
H33_2 C65_2 1_555 1_555
C68_2 C65_2 1_555 1_555
C71_2 C68_2 1_555 1_555
H36_2 C71_2 1_555 1_555
C77_2 C68_2 1_555 1_555
C80_2 C77_2 1_555 1_555
C83_2 C77_2 1_555 1_555
Ni8 O1_2 1_555 1_555
Ni2_3 N1_2 1_555 1_555
N1_2 N2_2 1_555 1_555
N2_2 Ni8 1_555 1_555
N3_2 N1_2 1_555 1_555
N4_2 Ni8 1_555 1_555
N5_3 Ni2_3 1_555 1_555
C1_2 N2_2 1_555 1_555
C2_2 C1_2 1_555 1_555
H1_2 C2_2 1_555 1_555
C3_2 C2_2 1_555 1_555
C4_2 C3_2 1_555 1_555
H3_2 C4_2 1_555 1_555
C5_2 C4_2 1_555 1_555
H4_2 C5_2 1_555 1_555
C6_2 N3_2 1_555 1_555
C7_2 N4_2 1_555 1_555
C8_2 C7_2 1_555 1_555
H5_2 C8_2 1_555 1_555
C9_2 C8_2 1_555 1_555
H6_2 C9_2 1_555 1_555
Ni3_2 O2_2 1_555 1_555
Ni4_2 N3_2 1_555 1_555
Ni5_2 O4_2 1_555 1_555
Ni8_2 N25_2 1_555 1_555
O3_2 Ni4_2 1_555 1_555
N10_2 Ni2_3 1_555 1_555
N11_2 Ni2_3 1_555 1_555
N12_2 Ni2_3 1_555 1_555
N13_2 Ni3_2 1_555 1_555
N14_2 Ni4_2 1_555 1_555
N15_2 Ni5_2 1_555 1_555
N16_2 Ni8 1_555 1_555
N17_2 Ni5_2 1_555 1_555
N18_2 Ni3_2 1_555 1_555
N19_2 N5_3 1_555 1_555
N20_2 Ni3_2 1_555 1_555
N21_2 Ni4_2 1_555 1_555
N22_3 Ni2_3 1_555 1_555
N24_2 Ni3_2 1_555 1_555
N25_2 C51_2 1_555 1_555
N26_2 Ni4_2 1_555 1_555
N27_2 Ni5_2 1_555 1_555
N29_2 C53_2 1_555 1_555
N30_2 C54_2 1_555 1_555
N33_2 C81_2 1_555 1_555
N36_2 Ni3_2 1_555 1_555
N37_2 Ni4_2 1_555 1_555
N38_2 Ni5_2 1_555 1_555
C22_2 N13_2 1_555 1_555
C23_2 N14_2 1_555 1_555
C24_2 N15_2 1_555 1_555
C25_2 C22_2 1_555 1_555
C26_2 C23_2 1_555 1_555
C27_2 C24_2 1_555 1_555
H11_2 C25_2 1_555 1_555
H12_2 C26_2 1_555 1_555
H13_2 C27_2 1_555 1_555
C28_2 C25_2 1_555 1_555
C29_2 C26_2 1_555 1_555
C30_2 C27_2 1_555 1_555
H14_2 C28_2 1_555 1_555
H15_2 C29_2 1_555 1_555
H16_2 C30_2 1_555 1_555
C31_2 C28_2 1_555 1_555
C32_2 C29_2 1_555 1_555
C33_2 C30_2 1_555 1_555
H17_2 C31_2 1_555 1_555
H18_2 C32_2 1_555 1_555
H19_2 C33_2 1_555 1_555
C34_2 C31_2 1_555 1_555
C35_2 C32_2 1_555 1_555
C36_2 C33_2 1_555 1_555
H20_2 C34_2 1_555 1_555
H21_2 C35_2 1_555 1_555
H22_2 C36_2 1_555 1_555
C37_2 N16_2 1_555 1_555
C38_2 N17_2 1_555 1_555
C39_2 N18_2 1_555 1_555
C40_2 C7_2 1_555 1_555
C41_2 N20_2 1_555 1_555
C42_2 N21_2 1_555 1_555
C43_2 C40_2 1_555 1_555
C44_2 C41_2 1_555 1_555
C45_2 C42_2 1_555 1_555
H23_2 C43_2 1_555 1_555
H24_2 C44_2 1_555 1_555
H25_2 C45_2 1_555 1_555
C46_2 C9_2 1_555 1_555
C47_2 C44_2 1_555 1_555
C48_2 C45_2 1_555 1_555
H26_2 C46_2 1_555 1_555
H27_2 C47_2 1_555 1_555
H28_2 C48_2 1_555 1_555
C50_2 N24_2 1_555 1_555
C51_2 C57_2 1_555 1_555
C53_2 C56_2 1_555 1_555
C54_2 C57_2 1_555 1_555
C56_2 C50_2 1_555 1_555
C57_2 C60_2 1_555 1_555
C59_2 C56_2 1_555 1_555
C60_2 C63_2 1_555 1_555
C62_2 C59_2 1_555 1_555
C63_2 H31_2 1_555 1_555
H30_2 C62_2 1_555 1_555
C66_2 C63_2 1_555 1_555
H34_2 C66_2 1_555 1_555
C69_2 C66_2 1_555 1_555
C72_2 C69_2 1_555 1_555
H37_2 C72_2 1_555 1_555
C74_2 C59_2 1_555 1_555
C75_2 C60_2 1_555 1_555
H39_2 C74_2 1_555 1_555
H40_2 C75_2 1_555 1_555
C78_2 C69_2 1_555 1_555
C81_2 C78_2 1_555 1_555
C84_2 N36_2 1_555 1_555
N4_2 N5_3 1_555 1_555
C1_2 C6_2 1_555 1_555
C5_2 C6_2 1_555 1_555
Ni5_2 N19_2 1_555 1_555
N10_2 N13_2 1_555 1_555
N10_2 N16_2 1_555 1_555
N11_2 N14_2 1_555 1_555
N11_2 N17_2 1_555 1_555
N12_2 N15_2 1_555 1_555
N12_2 N18_2 1_555 1_555
N19_2 C40_2 1_555 1_555
N20_2 N22_3 1_555 1_555
N21_2 N22_3 1_555 1_555
C22_2 C37_2 1_555 1_555
C23_2 C38_2 1_555 1_555
C24_2 C39_2 1_555 1_555
C34_2 C37_2 1_555 1_555
C35_2 C38_2 1_555 1_555
C36_2 C39_2 1_555 1_555
C41_2 C42_2 1_555 1_555
C43_2 C46_2 1_555 1_555
C47_2 C48_2 1_555 1_555
C72_2 C75_2 1_555 1_555
C78_2 C84_2 1_555 1_555
H24_3 C44_3 1_555 1_555
C47_3 C44_3 1_555 1_555
H27_3 C47_3 1_555 1_555
Ni1_2 O1_3 1_555 1_555
N4_3 Ni1_2 1_555 1_555
N5_4 Ni2_4 1_555 1_555
C7_3 N4_3 1_555 1_555
C8_3 C7_3 1_555 1_555
H5_3 C8_3 1_555 1_555
C9_3 C8_3 1_555 1_555
H6_3 C9_3 1_555 1_555
Ni7 O2_3 1_555 1_555
Ni7_2 N23_2 1_555 1_555
N10_3 Ni2_4 1_555 1_555
N12_3 Ni2_4 1_555 1_555
N13_3 Ni7 1_555 1_555
N16_3 Ni1_2 1_555 1_555
N18_3 Ni7 1_555 1_555
N20_3 Ni7 1_555 1_555
N22_4 Ni2_4 1_555 1_555
N23_2 C49_2 1_555 1_555
N28_2 C52_2 1_555 1_555
N31_2 C79_2 1_555 1_555
N34_2 Ni1_2 1_555 1_555
C22_3 N13_3 1_555 1_555
C24_3 N15_3 1_555 1_555
C25_3 C22_3 1_555 1_555
C27_3 C24_3 1_555 1_555
H11_3 C25_3 1_555 1_555
H13_3 C27_3 1_555 1_555
C28_3 C25_3 1_555 1_555
C30_3 C27_3 1_555 1_555
H14_3 C28_3 1_555 1_555
H16_3 C30_3 1_555 1_555
C31_3 C28_3 1_555 1_555
C33_3 C30_3 1_555 1_555
H17_3 C31_3 1_555 1_555
H19_3 C33_3 1_555 1_555
C34_3 C31_3 1_555 1_555
C36_3 C33_3 1_555 1_555
H20_3 C34_3 1_555 1_555
H22_3 C36_3 1_555 1_555
C37_3 N16_3 1_555 1_555
C39_3 N18_3 1_555 1_555
C41_3 N20_3 1_555 1_555
C49_2 C55_2 1_555 1_555
C52_2 C55_2 1_555 1_555
C55_2 C58_2 1_555 1_555
C58_2 C61_2 1_555 1_555
C61_2 H29_2 1_555 1_555
C64_2 C61_2 1_555 1_555
H32_2 C64_2 1_555 1_555
C67_2 C64_2 1_555 1_555
C70_2 C67_2 1_555 1_555
H35_2 C70_2 1_555 1_555
C73_2 C58_2 1_555 1_555
H38_2 C73_2 1_555 1_555
C76_2 C67_2 1_555 1_555
C79_2 C76_2 1_555 1_555
C82_2 N34_2 1_555 1_555
N4_3 N5_4 1_555 1_555
N10_3 N13_3 1_555 1_555
N10_3 N16_3 1_555 1_555
N12_3 N15_3 1_555 1_555
N12_3 N18_3 1_555 1_555
N20_3 N22_4 1_555 1_555
C22_3 C37_3 1_555 1_555
C24_3 C39_3 1_555 1_555
C34_3 C37_3 1_555 1_555
C36_3 C39_3 1_555 1_555
C70_2 C73_2 1_555 1_555
C76_2 C82_2 1_555 1_555
H25_3 C45_3 1_555 1_555
C48_3 C45_3 1_555 1_555
H28_3 C48_3 1_555 1_555
Ni2_5 N1_3 1_555 1_555
N1_3 N2_3 1_555 1_555
N3_3 N1_3 1_555 1_555
N5_5 Ni2_5 1_555 1_555
N7_2 C11_2 1_555 1_555
N8_2 C20_2 1_555 1_555
N9_2 C21_2 1_555 1_555
C1_3 N2_3 1_555 1_555
C2_3 C1_3 1_555 1_555
H1_3 C2_3 1_555 1_555
C3_3 C2_3 1_555 1_555
C4_3 C3_3 1_555 1_555
H3_3 C4_3 1_555 1_555
C5_3 C4_3 1_555 1_555
H4_3 C5_3 1_555 1_555
C6_3 N3_3 1_555 1_555
C10_2 N6_2 1_555 1_555
C11_2 C12_2 1_555 1_555
C12_2 C10_2 1_555 1_555
C13_2 C12_2 1_555 1_555
C14_2 C13_2 1_555 1_555
H7_2 C14_2 1_555 1_555
C15_2 C14_2 1_555 1_555
H8_2 C15_2 1_555 1_555
C16_2 C15_2 1_555 1_555
C17_2 C16_2 1_555 1_555
H9_2 C17_2 1_555 1_555
C18_2 C13_2 1_555 1_555
H10_2 C18_2 1_555 1_555
C19_2 C16_2 1_555 1_555
C20_2 C19_2 1_555 1_555
C21_2 C19_2 1_555 1_555
Ni4_3 N3_3 1_555 1_555
Ni5_3 O4_3 1_555 1_555
Ni7_2 N9_2 1_555 1_555
O3_3 Ni4_3 1_555 1_555
N11_3 Ni2_5 1_555 1_555
N14_3 Ni4_3 1_555 1_555
N17_3 Ni5_3 1_555 1_555
N19_3 N5_5 1_555 1_555
N21_3 Ni4_3 1_555 1_555
N22_5 Ni2_5 1_555 1_555
N26_3 Ni4_3 1_555 1_555
N37_3 Ni4_3 1_555 1_555
N38_3 Ni5_3 1_555 1_555
C23_3 N14_3 1_555 1_555
C26_3 C23_3 1_555 1_555
H12_3 C26_3 1_555 1_555
C29_3 C26_3 1_555 1_555
H15_3 C29_3 1_555 1_555
C32_3 C29_3 1_555 1_555
H18_3 C32_3 1_555 1_555
C35_3 C32_3 1_555 1_555
H21_3 C35_3 1_555 1_555
C38_3 N17_3 1_555 1_555
C42_3 N21_3 1_555 1_555
C43_3 C40_3 1_555 1_555
H23_3 C43_3 1_555 1_555
H26_3 C46_3 1_555 1_555
C1_3 C6_3 1_555 1_555
C5_3 C6_3 1_555 1_555
C17_2 C18_2 1_555 1_555
Ni5_3 N19_3 1_555 1_555
N11_3 N14_3 1_555 1_555
N11_3 N17_3 1_555 1_555
N19_3 C40_3 1_555 1_555
N21_3 N22_5 1_555 1_555
C23_3 C38_3 1_555 1_555
C35_3 C38_3 1_555 1_555
C43_3 C46_3 1_555 1_555
Ni1_3 O1_4 1_555 1_555
Ni2_6 N1_4 1_555 1_555
N1_4 N2_4 1_555 1_555
N2_4 Ni1_3 1_555 1_555
N3_4 N1_4 1_555 1_555
N4_4 Ni1_3 1_555 1_555
N5_6 Ni2_6 1_555 1_555
N6_3 Ni1_3 1_555 1_555
N7_3 C11_3 1_555 1_555
C1_4 N2_4 1_555 1_555
C2_4 C1_4 1_555 1_555
H1_4 C2_4 1_555 1_555
C3_4 C2_4 1_555 1_555
H2_4 C3_4 1_555 1_555
C4_4 C3_4 1_555 1_555
H3_4 C4_4 1_555 1_555
C5_4 C4_4 1_555 1_555
H4_4 C5_4 1_555 1_555
C6_4 N3_4 1_555 1_555
C7_4 N4_4 1_555 1_555
C8_4 C7_4 1_555 1_555
H5_4 C8_4 1_555 1_555
C9_4 C8_4 1_555 1_555
H6_4 C9_4 1_555 1_555
C10_3 N6_3 1_555 1_555
C11_3 C12_3 1_555 1_555
C12_3 C10_3 1_555 1_555
C13_3 C12_3 1_555 1_555
C14_3 C13_3 1_555 1_555
H7_3 C14_3 1_555 1_555
C18_3 C13_3 1_555 1_555
H10_3 C18_3 1_555 1_555
Ni3_3 O2_4 1_555 1_555
Ni7_2 N3_4 1_555 1_555
Ni8_2 O4_4 1_555 1_555
O3_4 Ni7_2 1_555 1_555
N10_4 Ni2_6 1_555 1_555
N11_4 Ni2_6 1_555 1_555
N12_4 Ni2_6 1_555 1_555
N13_4 Ni3_3 1_555 1_555
N14_4 Ni7_2 1_555 1_555
N15_4 Ni8_2 1_555 1_555
N16_4 Ni1_3 1_555 1_555
N17_4 Ni8_2 1_555 1_555
N18_4 Ni3_3 1_555 1_555
N19_4 N5_6 1_555 1_555
N20_4 Ni3_3 1_555 1_555
N21_4 Ni7_2 1_555 1_555
N22_6 Ni2_6 1_555 1_555
N26_2 C49_3 1_555 1_555
N24_3 Ni3_3 1_555 1_555
N27_3 C51_3 1_555 1_555
N28_3 C52_3 1_555 1_555
N29_3 C53_3 1_555 1_555
N30_3 C54_3 1_555 1_555
N31_3 C79_3 1_555 1_555
N32_3 C80_3 1_555 1_555
N33_3 C81_3 1_555 1_555
N34_3 Ni1_3 1_555 1_555
N38_3 C83_3 1_555 1_555
N36_3 Ni3_3 1_555 1_555
C22_4 N13_4 1_555 1_555
C23_4 N14_4 1_555 1_555
C24_4 N15_4 1_555 1_555
C25_4 C22_4 1_555 1_555
C26_4 C23_4 1_555 1_555
C27_4 C24_4 1_555 1_555
H11_4 C25_4 1_555 1_555
H12_4 C26_4 1_555 1_555
H13_4 C27_4 1_555 1_555
C28_4 C25_4 1_555 1_555
C29_4 C26_4 1_555 1_555
C30_4 C27_4 1_555 1_555
H14_4 C28_4 1_555 1_555
H16_4 C30_4 1_555 1_555
C31_4 C28_4 1_555 1_555
C32_4 C29_4 1_555 1_555
C33_4 C30_4 1_555 1_555
H17_4 C31_4 1_555 1_555
H18_4 C32_4 1_555 1_555
H19_4 C33_4 1_555 1_555
C34_4 C31_4 1_555 1_555
C35_4 C32_4 1_555 1_555
C36_4 C33_4 1_555 1_555
H20_4 C34_4 1_555 1_555
H21_4 C35_4 1_555 1_555
H22_4 C36_4 1_555 1_555
C37_4 N16_4 1_555 1_555
C38_4 N17_4 1_555 1_555
C39_4 N18_4 1_555 1_555
C40_4 C7_4 1_555 1_555
C41_4 N20_4 1_555 1_555
C42_4 N21_4 1_555 1_555
C43_4 C40_4 1_555 1_555
C44_4 C41_4 1_555 1_555
C45_4 C42_4 1_555 1_555
H23_4 C43_4 1_555 1_555
H24_4 C44_4 1_555 1_555
H25_4 C45_4 1_555 1_555
C46_4 C9_4 1_555 1_555
C47_4 C44_4 1_555 1_555
C48_4 C45_4 1_555 1_555
H26_4 C46_4 1_555 1_555
H27_4 C47_4 1_555 1_555
H28_4 C48_4 1_555 1_555
C49_3 C55_3 1_555 1_555
C50_3 N24_3 1_555 1_555
C51_3 C57_3 1_555 1_555
C52_3 C55_3 1_555 1_555
C53_3 C56_3 1_555 1_555
C54_3 C57_3 1_555 1_555
C55_3 C58_3 1_555 1_555
C56_3 C50_3 1_555 1_555
C57_3 C60_3 1_555 1_555
C58_3 C61_3 1_555 1_555
C59_3 C56_3 1_555 1_555
C60_3 C63_3 1_555 1_555
C61_3 H29_3 1_555 1_555
C62_3 C59_3 1_555 1_555
C63_3 H31_3 1_555 1_555
H30_3 C62_3 1_555 1_555
C64_3 C61_3 1_555 1_555
C65_3 C62_3 1_555 1_555
C66_3 C63_3 1_555 1_555
H32_3 C64_3 1_555 1_555
H33_3 C65_3 1_555 1_555
H34_3 C66_3 1_555 1_555
C67_3 C64_3 1_555 1_555
C68_3 C65_3 1_555 1_555
C69_3 C66_3 1_555 1_555
C70_3 C67_3 1_555 1_555
C71_3 C68_3 1_555 1_555
C72_3 C69_3 1_555 1_555
H35_3 C70_3 1_555 1_555
H36_3 C71_3 1_555 1_555
H37_3 C72_3 1_555 1_555
C73_3 C58_3 1_555 1_555
C74_3 C59_3 1_555 1_555
C75_3 C60_3 1_555 1_555
H38_3 C73_3 1_555 1_555
H39_3 C74_3 1_555 1_555
H40_3 C75_3 1_555 1_555
C76_3 C67_3 1_555 1_555
C77_3 C68_3 1_555 1_555
C78_3 C69_3 1_555 1_555
C79_3 C76_3 1_555 1_555
C80_3 C77_3 1_555 1_555
C81_3 C78_3 1_555 1_555
C82_3 N34_3 1_555 1_555
C83_3 C77_3 1_555 1_555
C84_3 N36_3 1_555 1_555
N4_4 N5_6 1_555 1_555
C1_4 C6_4 1_555 1_555
C5_4 C6_4 1_555 1_555
Ni8_2 N19_4 1_555 1_555
N10_4 N13_4 1_555 1_555
N10_4 N16_4 1_555 1_555
N11_4 N14_4 1_555 1_555
N11_4 N17_4 1_555 1_555
N12_4 N15_4 1_555 1_555
N12_4 N18_4 1_555 1_555
N19_4 C40_4 1_555 1_555
N20_4 N22_6 1_555 1_555
N21_4 N22_6 1_555 1_555
C22_4 C37_4 1_555 1_555
C23_4 C38_4 1_555 1_555
C24_4 C39_4 1_555 1_555
C34_4 C37_4 1_555 1_555
C35_4 C38_4 1_555 1_555
C36_4 C39_4 1_555 1_555
C41_4 C42_4 1_555 1_555
C43_4 C46_4 1_555 1_555
C47_4 C48_4 1_555 1_555
C70_3 C73_3 1_555 1_555
C71_3 C74_3 1_555 1_555
C72_3 C75_3 1_555 1_555
C76_3 C82_3 1_555 1_555
C78_3 C84_3 1_555 1_555
N8_3 C20_3 1_555 1_555
N37_2 C21_3 1_555 1_555
H8_3 C15_3 1_555 1_555
C16_3 C15_3 1_555 1_555
C17_3 C16_3 1_555 1_555
H9_3 C17_3 1_555 1_555
C19_3 C16_3 1_555 1_555
C20_3 C19_3 1_555 1_555
C21_3 C19_3 1_555 1_555
N29_4 C53_4 1_555 1_555
N33_4 C81_4 1_555 1_555
N38 C83_4 1_555 1_555
C53_4 C56_4 1_555 1_555
C59_4 C56_4 1_555 1_555
C62_4 C59_4 1_555 1_555
H30_4 C62_4 1_555 1_555
C65_4 C62_4 1_555 1_555
H33_4 C65_4 1_555 1_555
C72_4 C69_4 1_555 1_555
H37_4 C72_4 1_555 1_555
C78_4 C69_4 1_555 1_555
C81_4 C78_4 1_555 1_555
N32_4 C80_4 1_555 1_555
C50_4 N26_3 1_555 1_555
H34_4 C66_4 1_555 1_555
C71_4 C68_4 1_555 1_555
H36_4 C71_4 1_555 1_555
H39_4 C74_4 1_555 1_555
C77_4 C68_4 1_555 1_555
C80_4 C77_4 1_555 1_555
C84_4 N37_3 1_555 1_555
C71_4 C74_4 1_555 1_555
N27 C51_4 1_555 1_555
H40_4 C75_4 1_555 1_555
N30_4 C54_4 1_555 1_555
C54_4 C57_4 1_555 1_555
C57_4 C60_4 1_555 1_555
C60_4 C63_4 1_555 1_555
C63_4 H31_4 1_555 1_555
N7_4 C11_4 1_555 1_555
N8_4 C20_4 1_555 1_555
N37 C21_4 1_555 1_555
C10_4 N27_2 1_555 1_555
C11_4 C12_4 1_555 1_555
C12_4 C10_4 1_555 1_555
C13_4 C12_4 1_555 1_555
C14_4 C13_4 1_555 1_555
H7_4 C14_4 1_555 1_555
C15_4 C14_4 1_555 1_555
H8_4 C15_4 1_555 1_555
C16_4 C15_4 1_555 1_555
C17_4 C16_4 1_555 1_555
H9_4 C17_4 1_555 1_555
C18_4 C13_4 1_555 1_555
H10_4 C18_4 1_555 1_555
C19_4 C16_4 1_555 1_555
C20_4 C19_4 1_555 1_555
C21_4 C19_4 1_555 1_555
N26 C49_4 1_555 1_555
N28_4 C52_4 1_555 1_555
N31_4 C79_4 1_555 1_555
C49_4 C55_4 1_555 1_555
C52_4 C55_4 1_555 1_555
C55_4 C58_4 1_555 1_555
C58_4 C61_4 1_555 1_555
C61_4 H29_4 1_555 1_555
C64_4 C61_4 1_555 1_555
H32_4 C64_4 1_555 1_555
C67_4 C64_4 1_555 1_555
C70_4 C67_4 1_555 1_555
H35_4 C70_4 1_555 1_555
C73_4 C58_4 1_555 1_555
H38_4 C73_4 1_555 1_555
C76_4 C67_4 1_555 1_555
C79_4 C76_4 1_555 1_555
C82_4 N38_2 1_555 1_555
C17_4 C18_4 1_555 1_555
C70_4 C73_4 1_555 1_555
C76_4 C82_4 1_555 1_555
Ni8_3 N35_3 1_555 1_555
N32_5 C80_5 1_555 1_555
N35_3 C83_5 1_555 1_555
H33_5 C65_5 1_555 1_555
C68_5 C65_5 1_555 1_555
C71_5 C68_5 1_555 1_555
H36_5 C71_5 1_555 1_555
C77_5 C68_5 1_555 1_555
C80_5 C77_5 1_555 1_555
C83_5 C77_5 1_555 1_555
Ni1_4 O1_5 1_555 1_555
N4_5 Ni1_4 1_555 1_555
N5_7 Ni2_7 1_555 1_555
C7_5 N4_5 1_555 1_555
C8_5 C7_5 1_555 1_555
H5_5 C8_5 1_555 1_555
C9_5 C8_5 1_555 1_555
H6_5 C9_5 1_555 1_555
Ni3_4 O2_5 1_555 1_555
Ni7_3 N23_3 1_555 1_555
Ni8_3 N25_3 1_555 1_555
N10_5 Ni2_7 1_555 1_555
N12_5 Ni2_7 1_555 1_555
N13_5 Ni3_4 1_555 1_555
N16_5 Ni1_4 1_555 1_555
N18_5 Ni3_4 1_555 1_555
N20_5 Ni3_4 1_555 1_555
N22_7 Ni2_7 1_555 1_555
N23_3 C49_5 1_555 1_555
N24_4 Ni3_4 1_555 1_555
N25_3 C51_5 1_555 1_555
N28_5 C52_5 1_555 1_555
N29_5 C53_5 1_555 1_555
N30_5 C54_5 1_555 1_555
N31_5 C79_5 1_555 1_555
N33_5 C81_5 1_555 1_555
N34_4 Ni1_4 1_555 1_555
N36_4 Ni3_4 1_555 1_555
C22_5 N13_5 1_555 1_555
C24_5 N15_5 1_555 1_555
C25_5 C22_5 1_555 1_555
C27_5 C24_5 1_555 1_555
H11_5 C25_5 1_555 1_555
H13_5 C27_5 1_555 1_555
C28_5 C25_5 1_555 1_555
C30_5 C27_5 1_555 1_555
H14_5 C28_5 1_555 1_555
H16_5 C30_5 1_555 1_555
C31_5 C28_5 1_555 1_555
C33_5 C30_5 1_555 1_555
H17_5 C31_5 1_555 1_555
H19_5 C33_5 1_555 1_555
C34_5 C31_5 1_555 1_555
C36_5 C33_5 1_555 1_555
H20_5 C34_5 1_555 1_555
H22_5 C36_5 1_555 1_555
C37_5 N16_5 1_555 1_555
C39_5 N18_5 1_555 1_555
C41_5 N20_5 1_555 1_555
C44_5 C41_5 1_555 1_555
H24_5 C44_5 1_555 1_555
C47_5 C44_5 1_555 1_555
H27_5 C47_5 1_555 1_555
C49_5 C55_5 1_555 1_555
C50_5 N24_4 1_555 1_555
C51_5 C57_5 1_555 1_555
C52_5 C55_5 1_555 1_555
C53_5 C56_5 1_555 1_555
C54_5 C57_5 1_555 1_555
C55_5 C58_5 1_555 1_555
C56_5 C50_5 1_555 1_555
C57_5 C60_5 1_555 1_555
C58_5 C61_5 1_555 1_555
C59_5 C56_5 1_555 1_555
C60_5 C63_5 1_555 1_555
C61_5 H29_5 1_555 1_555
C62_5 C59_5 1_555 1_555
C63_5 H31_5 1_555 1_555
H30_5 C62_5 1_555 1_555
C64_5 C61_5 1_555 1_555
C66_5 C63_5 1_555 1_555
H32_5 C64_5 1_555 1_555
H34_5 C66_5 1_555 1_555
C67_5 C64_5 1_555 1_555
C69_5 C66_5 1_555 1_555
C70_5 C67_5 1_555 1_555
C72_5 C69_5 1_555 1_555
H35_5 C70_5 1_555 1_555
H37_5 C72_5 1_555 1_555
C73_5 C58_5 1_555 1_555
C74_5 C59_5 1_555 1_555
C75_5 C60_5 1_555 1_555
H38_5 C73_5 1_555 1_555
H39_5 C74_5 1_555 1_555
H40_5 C75_5 1_555 1_555
C76_5 C67_5 1_555 1_555
C78_5 C69_5 1_555 1_555
C79_5 C76_5 1_555 1_555
C81_5 C78_5 1_555 1_555
C82_5 N34_4 1_555 1_555
C84_5 N36_4 1_555 1_555
N4_5 N5_7 1_555 1_555
N10_5 N13_5 1_555 1_555
N10_5 N16_5 1_555 1_555
N12_5 N15_5 1_555 1_555
N12_5 N18_5 1_555 1_555
N20_5 N22_7 1_555 1_555
C22_5 C37_5 1_555 1_555
C24_5 C39_5 1_555 1_555
C34_5 C37_5 1_555 1_555
C36_5 C39_5 1_555 1_555
C70_5 C73_5 1_555 1_555
C72_5 C75_5 1_555 1_555
C76_5 C82_5 1_555 1_555
C78_5 C84_5 1_555 1_555
Ni2_8 N1_5 1_555 1_555
N1_5 N2_5 1_555 1_555
N3_5 N1_5 1_555 1_555
N5_8 Ni2_8 1_555 1_555
N7_5 C11_5 1_555 1_555
N8_5 C20_5 1_555 1_555
N9_3 C21_5 1_555 1_555
C1_5 N2_5 1_555 1_555
C2_5 C1_5 1_555 1_555
H1_5 C2_5 1_555 1_555
C3_5 C2_5 1_555 1_555
C4_5 C3_5 1_555 1_555
H3_5 C4_5 1_555 1_555
C5_5 C4_5 1_555 1_555
H4_5 C5_5 1_555 1_555
C6_5 N3_5 1_555 1_555
C10_5 N6_4 1_555 1_555
C11_5 C12_5 1_555 1_555
C12_5 C10_5 1_555 1_555
C13_5 C12_5 1_555 1_555
C14_5 C13_5 1_555 1_555
H7_5 C14_5 1_555 1_555
C15_5 C14_5 1_555 1_555
H8_5 C15_5 1_555 1_555
C16_5 C15_5 1_555 1_555
C17_5 C16_5 1_555 1_555
H9_5 C17_5 1_555 1_555
C18_5 C13_5 1_555 1_555
H10_5 C18_5 1_555 1_555
C19_5 C16_5 1_555 1_555
C20_5 C19_5 1_555 1_555
C21_5 C19_5 1_555 1_555
Ni4_4 N3_5 1_555 1_555
Ni5_4 O4_5 1_555 1_555
Ni7_3 N9_3 1_555 1_555
O3_5 Ni4_4 1_555 1_555
N11_5 Ni2_8 1_555 1_555
N14_5 Ni4_4 1_555 1_555
N17_5 Ni5_4 1_555 1_555
N19_5 N5_8 1_555 1_555
N21_5 Ni4_4 1_555 1_555
N22_8 Ni2_8 1_555 1_555
N26_4 Ni4_4 1_555 1_555
N37_4 Ni4_4 1_555 1_555
N38_4 Ni5_4 1_555 1_555
C23_5 N14_5 1_555 1_555
C26_5 C23_5 1_555 1_555
H12_5 C26_5 1_555 1_555
C29_5 C26_5 1_555 1_555
H15_5 C29_5 1_555 1_555
C32_5 C29_5 1_555 1_555
H18_5 C32_5 1_555 1_555
C35_5 C32_5 1_555 1_555
H21_5 C35_5 1_555 1_555
C38_5 N17_5 1_555 1_555
C42_5 N21_5 1_555 1_555
C43_5 C40_5 1_555 1_555
C45_5 C42_5 1_555 1_555
H23_5 C43_5 1_555 1_555
H25_5 C45_5 1_555 1_555
C48_5 C45_5 1_555 1_555
H26_5 C46_5 1_555 1_555
H28_5 C48_5 1_555 1_555
C1_5 C6_5 1_555 1_555
C5_5 C6_5 1_555 1_555
C17_5 C18_5 1_555 1_555
Ni5_4 N19_5 1_555 1_555
N11_5 N14_5 1_555 1_555
N11_5 N17_5 1_555 1_555
N19_5 C40_5 1_555 1_555
N21_5 N22_8 1_555 1_555
C23_5 C38_5 1_555 1_555
C35_5 C38_5 1_555 1_555
C43_5 C46_5 1_555 1_555
Ni1_5 O1_6 1_555 1_555
Ni2_9 N1_6 1_555 1_555
N1_6 N2_6 1_555 1_555
N2_6 Ni1_5 1_555 1_555
N3_6 N1_6 1_555 1_555
N4_6 Ni1_5 1_555 1_555
N5_9 Ni2_9 1_555 1_555
N6_5 Ni1_5 1_555 1_555
N7_6 C11_6 1_555 1_555
N8_6 C20_6 1_555 1_555
N9_4 C21_6 1_555 1_555
C1_6 N2_6 1_555 1_555
C2_6 C1_6 1_555 1_555
H1_6 C2_6 1_555 1_555
C3_6 C2_6 1_555 1_555
C4_6 C3_6 1_555 1_555
H3_6 C4_6 1_555 1_555
C5_6 C4_6 1_555 1_555
H4_6 C5_6 1_555 1_555
C6_6 N3_6 1_555 1_555
C7_6 N4_6 1_555 1_555
C8_6 C7_6 1_555 1_555
H5_6 C8_6 1_555 1_555
C9_6 C8_6 1_555 1_555
H6_6 C9_6 1_555 1_555
C10_6 N6_5 1_555 1_555
C11_6 C12_6 1_555 1_555
C12_6 C10_6 1_555 1_555
C13_6 C12_6 1_555 1_555
C14_6 C13_6 1_555 1_555
H7_6 C14_6 1_555 1_555
C15_6 C14_6 1_555 1_555
H8_6 C15_6 1_555 1_555
C16_6 C15_6 1_555 1_555
C17_6 C16_6 1_555 1_555
H9_6 C17_6 1_555 1_555
C18_6 C13_6 1_555 1_555
H10_6 C18_6 1_555 1_555
C19_6 C16_6 1_555 1_555
C20_6 C19_6 1_555 1_555
C21_6 C19_6 1_555 1_555
Ni3_5 O2_6 1_555 1_555
Ni4_5 N3_6 1_555 1_555
Ni5_5 O4_6 1_555 1_555
Ni6 N9_4 1_555 1_555
O3_6 Ni4_5 1_555 1_555
N10_6 Ni2_9 1_555 1_555
N11_6 Ni2_9 1_555 1_555
N12_6 Ni2_9 1_555 1_555
N13_6 Ni3_5 1_555 1_555
N14_6 Ni4_5 1_555 1_555
N15_6 Ni5_5 1_555 1_555
N16_6 Ni1_5 1_555 1_555
N17_6 Ni5_5 1_555 1_555
N18_6 Ni3_5 1_555 1_555
N19_6 N5_9 1_555 1_555
N20_6 Ni3_5 1_555 1_555
N21_6 Ni4_5 1_555 1_555
N22_9 Ni2_9 1_555 1_555
N23_4 C49_6 1_555 1_555
N24_5 Ni3_5 1_555 1_555
N26_5 Ni4_5 1_555 1_555
N27_5 Ni5_5 1_555 1_555
N28_6 C52_6 1_555 1_555
N30_6 C54_6 1_555 1_555
N31_6 C79_6 1_555 1_555
N34_5 Ni1_5 1_555 1_555
N36_5 Ni3_5 1_555 1_555
N37_5 Ni4_5 1_555 1_555
N38_5 Ni5_5 1_555 1_555
C22_6 N13_6 1_555 1_555
C23_6 N14_6 1_555 1_555
C24_6 N15_6 1_555 1_555
C25_6 C22_6 1_555 1_555
C26_6 C23_6 1_555 1_555
C27_6 C24_6 1_555 1_555
H11_6 C25_6 1_555 1_555
H12_6 C26_6 1_555 1_555
H13_6 C27_6 1_555 1_555
C28_6 C25_6 1_555 1_555
C29_6 C26_6 1_555 1_555
C30_6 C27_6 1_555 1_555
H14_6 C28_6 1_555 1_555
H15_6 C29_6 1_555 1_555
H16_6 C30_6 1_555 1_555
C31_6 C28_6 1_555 1_555
C32_6 C29_6 1_555 1_555
C33_6 C30_6 1_555 1_555
H17_6 C31_6 1_555 1_555
H18_6 C32_6 1_555 1_555
H19_6 C33_6 1_555 1_555
C34_6 C31_6 1_555 1_555
C35_6 C32_6 1_555 1_555
C36_6 C33_6 1_555 1_555
H20_6 C34_6 1_555 1_555
H21_6 C35_6 1_555 1_555
H22_6 C36_6 1_555 1_555
C37_6 N16_6 1_555 1_555
C38_6 N17_6 1_555 1_555
C39_6 N18_6 1_555 1_555
C40_6 C7_6 1_555 1_555
C41_6 N20_6 1_555 1_555
C42_6 N21_6 1_555 1_555
C43_6 C40_6 1_555 1_555
H23_6 C43_6 1_555 1_555
C46_6 C9_6 1_555 1_555
H26_6 C46_6 1_555 1_555
C49_6 C55_6 1_555 1_555
C50_6 N24_5 1_555 1_555
C52_6 C55_6 1_555 1_555
C54_6 C57_6 1_555 1_555
C55_6 C58_6 1_555 1_555
C57_6 C60_6 1_555 1_555
C58_6 C61_6 1_555 1_555
C60_6 C63_6 1_555 1_555
C61_6 H29_6 1_555 1_555
C63_6 H31_6 1_555 1_555
C64_6 C61_6 1_555 1_555
C66_6 C63_6 1_555 1_555
H32_6 C64_6 1_555 1_555
H34_6 C66_6 1_555 1_555
C67_6 C64_6 1_555 1_555
C70_6 C67_6 1_555 1_555
H35_6 C70_6 1_555 1_555
C73_6 C58_6 1_555 1_555
H38_6 C73_6 1_555 1_555
H39_6 C74_6 1_555 1_555
C76_6 C67_6 1_555 1_555
C79_6 C76_6 1_555 1_555
C82_6 N34_5 1_555 1_555
C84_6 N36_5 1_555 1_555
N4_6 N5_9 1_555 1_555
C1_6 C6_6 1_555 1_555
C5_6 C6_6 1_555 1_555
C17_6 C18_6 1_555 1_555
Ni5_5 N19_6 1_555 1_555
N10_6 N13_6 1_555 1_555
N10_6 N16_6 1_555 1_555
N11_6 N14_6 1_555 1_555
N11_6 N17_6 1_555 1_555
N12_6 N15_6 1_555 1_555
N12_6 N18_6 1_555 1_555
N19_6 C40_6 1_555 1_555
N20_6 N22_9 1_555 1_555
N21_6 N22_9 1_555 1_555
C22_6 C37_6 1_555 1_555
C23_6 C38_6 1_555 1_555
C24_6 C39_6 1_555 1_555
C34_6 C37_6 1_555 1_555
C35_6 C38_6 1_555 1_555
C36_6 C39_6 1_555 1_555
C41_6 C42_6 1_555 1_555
C43_6 C46_6 1_555 1_555
C70_6 C73_6 1_555 1_555
C76_6 C82_6 1_555 1_555
Ni9 N25_4 1_555 1_555
N25_4 C51_6 1_555 1_555
N29_6 C53_6 1_555 1_555
N33_6 C81_6 1_555 1_555
H24_6 C44_6 1_555 1_555
H25_6 C45_6 1_555 1_555
C47_6 C44_6 1_555 1_555
C48_6 C45_6 1_555 1_555
H27_6 C47_6 1_555 1_555
H28_6 C48_6 1_555 1_555
C53_6 C56_6 1_555 1_555
C59_6 C56_6 1_555 1_555
C62_6 C59_6 1_555 1_555
H30_6 C62_6 1_555 1_555
C72_6 C69_6 1_555 1_555
H37_6 C72_6 1_555 1_555
H40_6 C75_6 1_555 1_555
C78_6 C69_6 1_555 1_555
C81_6 C78_6 1_555 1_555
C47_6 C48_6 1_555 1_555
C72_6 C75_6 1_555 1_555
N32_6 C80_6 1_555 1_555
C71_6 C68_6 1_555 1_555
H36_6 C71_6 1_555 1_555
C77_6 C68_6 1_555 1_555
C80_6 C77_6 1_555 1_555
Ni9 N35_4 1_555 1_555
N35_4 C83_6 1_555 1_555
H33_6 C65_6 1_555 1_555
N7_7 C11_7 1_555 1_555
N8_7 C20_7 1_555 1_555
N9_5 C21_7 1_555 1_555
C10_7 N27_5 1_555 1_555
C11_7 C12_7 1_555 1_555
C12_7 C10_7 1_555 1_555
C13_7 C12_7 1_555 1_555
C14_7 C13_7 1_555 1_555
H7_7 C14_7 1_555 1_555
C15_7 C14_7 1_555 1_555
H8_7 C15_7 1_555 1_555
C16_7 C15_7 1_555 1_555
C17_7 C16_7 1_555 1_555
H9_7 C17_7 1_555 1_555
C18_7 C13_7 1_555 1_555
H10_7 C18_7 1_555 1_555
C19_7 C16_7 1_555 1_555
C20_7 C19_7 1_555 1_555
C21_7 C19_7 1_555 1_555
Ni7_4 N9_5 1_555 1_555
N23_5 C49_7 1_555 1_555
N28_7 C52_7 1_555 1_555
N31_7 C79_7 1_555 1_555
N32_7 C80_7 1_555 1_555
C49_7 C55_7 1_555 1_555
C50_7 N26_5 1_555 1_555
C52_7 C55_7 1_555 1_555
C55_7 C58_7 1_555 1_555
C58_7 C61_7 1_555 1_555
C61_7 H29_7 1_555 1_555
C64_7 C61_7 1_555 1_555
H32_7 C64_7 1_555 1_555
H34_7 C66_7 1_555 1_555
C67_7 C64_7 1_555 1_555
C70_7 C67_7 1_555 1_555
C71_7 C68_7 1_555 1_555
H35_7 C70_7 1_555 1_555
H36_7 C71_7 1_555 1_555
C73_7 C58_7 1_555 1_555
H38_7 C73_7 1_555 1_555
H39_7 C74_7 1_555 1_555
C76_7 C67_7 1_555 1_555
C77_7 C68_7 1_555 1_555
C79_7 C76_7 1_555 1_555
C80_7 C77_7 1_555 1_555
C82_7 N38_5 1_555 1_555
C84_7 N37_5 1_555 1_555
C17_7 C18_7 1_555 1_555
C70_7 C73_7 1_555 1_555
C71_7 C74_7 1_555 1_555
C76_7 C82_7 1_555 1_555
Ni8_4 N35_5 1_555 1_555
N29_7 C53_7 1_555 1_555
N33_7 C81_7 1_555 1_555
N35_5 C83_7 1_555 1_555
C53_7 C56_7 1_555 1_555
C59_7 C56_7 1_555 1_555
C62_7 C59_7 1_555 1_555
H30_7 C62_7 1_555 1_555
C65_7 C62_7 1_555 1_555
H33_7 C65_7 1_555 1_555
C72_7 C69_7 1_555 1_555
H37_7 C72_7 1_555 1_555
C78_7 C69_7 1_555 1_555
C81_7 C78_7 1_555 1_555
N30_7 C54_7 1_555 1_555
C54_7 C57_7 1_555 1_555
C57_7 C60_7 1_555 1_555
C60_7 C63_7 1_555 1_555
C63_7 H31_7 1_555 1_555
Ni8_4 N25_5 1_555 1_555
N25_5 C51_7 1_555 1_555
H40_7 C75_7 1_555 1_555
H5_7 C8_7 1_555 1_555
C9_7 C8_7 1_555 1_555
H6_7 C9_7 1_555 1_555
H23_7 C43_7 1_555 1_555
C46_7 C9_7 1_555 1_555
H26_7 C46_7 1_555 1_555
C43_7 C46_7 1_555 1_555
Ni9 O1_7 1_555 1_555
Ni2_10 N1_7 1_555 1_555
N1_7 N2_7 1_555 1_555
N2_7 Ni9 1_555 1_555
N3_7 N1_7 1_555 1_555
N4_7 Ni9 1_555 1_555
N5_10 Ni2_10 1_555 1_555
C1_7 N2_7 1_555 1_555
C2_7 C1_7 1_555 1_555
H1_7 C2_7 1_555 1_555
C3_7 C2_7 1_555 1_555
H2_7 C3_7 1_555 1_555
C4_7 C3_7 1_555 1_555
H3_7 C4_7 1_555 1_555
C5_7 C4_7 1_555 1_555
H4_7 C5_7 1_555 1_555
C6_7 N3_7 1_555 1_555
C7_7 N4_7 1_555 1_555
Ni7_3 O2_7 1_555 1_555
Ni4_6 N3_7 1_555 1_555
Ni8_4 O4_7 1_555 1_555
O3_7 Ni4_6 1_555 1_555
N10_7 Ni2_10 1_555 1_555
N11_7 Ni2_10 1_555 1_555
N12_7 Ni2_10 1_555 1_555
N13_7 Ni7_3 1_555 1_555
N14_7 Ni4_6 1_555 1_555
N15_7 Ni8_4 1_555 1_555
N16_7 Ni9 1_555 1_555
N17_7 Ni8_4 1_555 1_555
N18_7 Ni7_3 1_555 1_555
N19_7 N5_10 1_555 1_555
N20_7 Ni7_3 1_555 1_555
N21_7 Ni4_6 1_555 1_555
N22_10 Ni2_10 1_555 1_555
N26_6 Ni4_6 1_555 1_555
N37_6 Ni4_6 1_555 1_555
C22_7 N13_7 1_555 1_555
C23_7 N14_7 1_555 1_555
C24_7 N15_7 1_555 1_555
C25_7 C22_7 1_555 1_555
C26_7 C23_7 1_555 1_555
C27_7 C24_7 1_555 1_555
H11_7 C25_7 1_555 1_555
H12_7 C26_7 1_555 1_555
H13_7 C27_7 1_555 1_555
C28_7 C25_7 1_555 1_555
C29_7 C26_7 1_555 1_555
C30_7 C27_7 1_555 1_555
H15_7 C29_7 1_555 1_555
H16_7 C30_7 1_555 1_555
C31_7 C28_7 1_555 1_555
C32_7 C29_7 1_555 1_555
C33_7 C30_7 1_555 1_555
H17_7 C31_7 1_555 1_555
H18_7 C32_7 1_555 1_555
H19_7 C33_7 1_555 1_555
C34_7 C31_7 1_555 1_555
C35_7 C32_7 1_555 1_555
C36_7 C33_7 1_555 1_555
H20_7 C34_7 1_555 1_555
H21_7 C35_7 1_555 1_555
H22_7 C36_7 1_555 1_555
C37_7 N16_7 1_555 1_555
C38_7 N17_7 1_555 1_555
C39_7 N18_7 1_555 1_555
C40_7 C7_7 1_555 1_555
C41_7 N20_7 1_555 1_555
C42_7 N21_7 1_555 1_555
C44_7 C41_7 1_555 1_555
C45_7 C42_7 1_555 1_555
H24_7 C44_7 1_555 1_555
H25_7 C45_7 1_555 1_555
C47_7 C44_7 1_555 1_555
C48_7 C45_7 1_555 1_555
H27_7 C47_7 1_555 1_555
H28_7 C48_7 1_555 1_555
N4_7 N5_10 1_555 1_555
C1_7 C6_7 1_555 1_555
C5_7 C6_7 1_555 1_555
Ni8_4 N19_7 1_555 1_555
N10_7 N13_7 1_555 1_555
N10_7 N16_7 1_555 1_555
N11_7 N14_7 1_555 1_555
N11_7 N17_7 1_555 1_555
N12_7 N15_7 1_555 1_555
N12_7 N18_7 1_555 1_555
N19_7 C40_7 1_555 1_555
N20_7 N22_10 1_555 1_555
N21_7 N22_10 1_555 1_555
C22_7 C37_7 1_555 1_555
C23_7 C38_7 1_555 1_555
C24_7 C39_7 1_555 1_555
C34_7 C37_7 1_555 1_555
C35_7 C38_7 1_555 1_555
C36_7 C39_7 1_555 1_555
C41_7 C42_7 1_555 1_555
C47_7 C48_7 1_555 1_555
Ni8_3 O1_8 1_555 1_555
Ni2_11 N1_8 1_555 1_555
N1_8 N2_8 1_555 1_555
N2_8 Ni8_3 1_555 1_555
N3_8 N1_8 1_555 1_555
N4_8 Ni8_3 1_555 1_555
N5_11 Ni2_11 1_555 1_555
C1_8 N2_8 1_555 1_555
C2_8 C1_8 1_555 1_555
H1_8 C2_8 1_555 1_555
C3_8 C2_8 1_555 1_555
H2_8 C3_8 1_555 1_555
C4_8 C3_8 1_555 1_555
H3_8 C4_8 1_555 1_555
C5_8 C4_8 1_555 1_555
H4_8 C5_8 1_555 1_555
C6_8 N3_8 1_555 1_555
C7_8 N4_8 1_555 1_555
C8_8 C7_8 1_555 1_555
H5_8 C8_8 1_555 1_555
C9_8 C8_8 1_555 1_555
H6_8 C9_8 1_555 1_555
Ni7_4 N3_8 1_555 1_555
O3_8 Ni7_4 1_555 1_555
N10_8 Ni2_11 1_555 1_555
N16_8 Ni8_3 1_555 1_555
N21_8 Ni7_4 1_555 1_555
N22_11 Ni2_11 1_555 1_555
C22_8 N13_8 1_555 1_555
C25_8 C22_8 1_555 1_555
H11_8 C25_8 1_555 1_555
C28_8 C25_8 1_555 1_555
C31_8 C28_8 1_555 1_555
H17_8 C31_8 1_555 1_555
C34_8 C31_8 1_555 1_555
H20_8 C34_8 1_555 1_555
C37_8 N16_8 1_555 1_555
C42_8 N21_8 1_555 1_555
C45_8 C42_8 1_555 1_555
H25_8 C45_8 1_555 1_555
C48_8 C45_8 1_555 1_555
H28_8 C48_8 1_555 1_555
N4_8 N5_11 1_555 1_555
C1_8 C6_8 1_555 1_555
C5_8 C6_8 1_555 1_555
N10_8 N13_8 1_555 1_555
N10_8 N16_8 1_555 1_555
N21_8 N22_11 1_555 1_555
C22_8 C37_8 1_555 1_555
C34_8 C37_8 1_555 1_555
N5_12 Ni2_12 1_555 1_555
Ni6 O2_8 1_555 1_555
Ni5_6 O4_8 1_555 1_555
N11_8 Ni2_12 1_555 1_555
N12_8 Ni2_12 1_555 1_555
N15_8 Ni5_6 1_555 1_555
N17_8 Ni5_6 1_555 1_555
N18_8 Ni6 1_555 1_555
N19_8 N5_12 1_555 1_555
N20_8 Ni6 1_555 1_555
N22_12 Ni2_12 1_555 1_555
N27_6 Ni5_6 1_555 1_555
N38_6 Ni5_6 1_555 1_555
C23_8 N14_8 1_555 1_555
C24_8 N15_8 1_555 1_555
C26_8 C23_8 1_555 1_555
C27_8 C24_8 1_555 1_555
H12_8 C26_8 1_555 1_555
H13_8 C27_8 1_555 1_555
C29_8 C26_8 1_555 1_555
C30_8 C27_8 1_555 1_555
H15_8 C29_8 1_555 1_555
H16_8 C30_8 1_555 1_555
C32_8 C29_8 1_555 1_555
C33_8 C30_8 1_555 1_555
H18_8 C32_8 1_555 1_555
H19_8 C33_8 1_555 1_555
C35_8 C32_8 1_555 1_555
C36_8 C33_8 1_555 1_555
H21_8 C35_8 1_555 1_555
H22_8 C36_8 1_555 1_555
C38_8 N17_8 1_555 1_555
C39_8 N18_8 1_555 1_555
C41_8 N20_8 1_555 1_555
C43_8 C40_8 1_555 1_555
C44_8 C41_8 1_555 1_555
H23_8 C43_8 1_555 1_555
H24_8 C44_8 1_555 1_555
C47_8 C44_8 1_555 1_555
H26_8 C46_8 1_555 1_555
H27_8 C47_8 1_555 1_555
Ni5_6 N19_8 1_555 1_555
N11_8 N14_8 1_555 1_555
N11_8 N17_8 1_555 1_555
N12_8 N15_8 1_555 1_555
N12_8 N18_8 1_555 1_555
N19_8 C40_8 1_555 1_555
N20_8 N22_12 1_555 1_555
C23_8 C38_8 1_555 1_555
C24_8 C39_8 1_555 1_555
C35_8 C38_8 1_555 1_555
C36_8 C39_8 1_555 1_555
C43_8 C46_8 1_555 1_555
N7_8 C11_8 1_555 1_555
C10_8 N27_6 1_555 1_555
C11_8 C12_8 1_555 1_555
C12_8 C10_8 1_555 1_555
C13_8 C12_8 1_555 1_555
C14_8 C13_8 1_555 1_555
H7_8 C14_8 1_555 1_555
C18_8 C13_8 1_555 1_555
H10_8 C18_8 1_555 1_555
N26_4 C49_8 1_555 1_555
N28_8 C52_8 1_555 1_555
N31_8 C79_8 1_555 1_555
C49_8 C55_8 1_555 1_555
C52_8 C55_8 1_555 1_555
C55_8 C58_8 1_555 1_555
C58_8 C61_8 1_555 1_555
C61_8 H29_8 1_555 1_555
C64_8 C61_8 1_555 1_555
H32_8 C64_8 1_555 1_555
C67_8 C64_8 1_555 1_555
C70_8 C67_8 1_555 1_555
H35_8 C70_8 1_555 1_555
C73_8 C58_8 1_555 1_555
H38_8 C73_8 1_555 1_555
C76_8 C67_8 1_555 1_555
C79_8 C76_8 1_555 1_555
C82_8 N38_6 1_555 1_555
C70_8 C73_8 1_555 1_555
C76_8 C82_8 1_555 1_555
N8_8 C20_8 1_555 1_555
N37_4 C21_8 1_555 1_555
H8_8 C15_8 1_555 1_555
C16_8 C15_8 1_555 1_555
C17_8 C16_8 1_555 1_555
H9_8 C17_8 1_555 1_555
C19_8 C16_8 1_555 1_555
C20_8 C19_8 1_555 1_555
C21_8 C19_8 1_555 1_555
N27_4 C51_8 1_555 1_555
N29_8 C53_8 1_555 1_555
N30_8 C54_8 1_555 1_555
N32_8 C80_8 1_555 1_555
N33_8 C81_8 1_555 1_555
N38_4 C83_8 1_555 1_555
C50_8 N26_6 1_555 1_555
C51_8 C57_8 1_555 1_555
C53_8 C56_8 1_555 1_555
C54_8 C57_8 1_555 1_555
C56_8 C50_8 1_555 1_555
C57_8 C60_8 1_555 1_555
C59_8 C56_8 1_555 1_555
C60_8 C63_8 1_555 1_555
C62_8 C59_8 1_555 1_555
C63_8 H31_8 1_555 1_555
H30_8 C62_8 1_555 1_555
C65_8 C62_8 1_555 1_555
C66_8 C63_8 1_555 1_555
H33_8 C65_8 1_555 1_555
H34_8 C66_8 1_555 1_555
C68_8 C65_8 1_555 1_555
C69_8 C66_8 1_555 1_555
C71_8 C68_8 1_555 1_555
C72_8 C69_8 1_555 1_555
H36_8 C71_8 1_555 1_555
H37_8 C72_8 1_555 1_555
C74_8 C59_8 1_555 1_555
C75_8 C60_8 1_555 1_555
H39_8 C74_8 1_555 1_555
H40_8 C75_8 1_555 1_555
C77_8 C68_8 1_555 1_555
C78_8 C69_8 1_555 1_555
C80_8 C77_8 1_555 1_555
C81_8 C78_8 1_555 1_555
C83_8 C77_8 1_555 1_555
C84_8 N37_6 1_555 1_555
C71_8 C74_8 1_555 1_555
C72_8 C75_8 1_555 1_555
C78_8 C84_8 1_555 1_555

#END
