
###############################################################################
#
# This file contains modified crystal structure data generated from the
# MOF subset of the Cambridge Structural Database (CSD) v543 
# hosted by the Cambridge Crystallographic Data Centre (CCDC).
#
# This work is licensed under the Creative Commons
# Attribution-NonCommercial-ShareAlike 4.0 International License.
# To view a copy of this license, visit
# http://creativecommons.org/licenses/by-nc-sa/4.0/
# or send a letter to
# Creative Commons, PO Box 1866, Mountain View, CA 94042, USA.
#
# CIF created using the CSD Python API on 29 September 2022
# The structure has been converted into the P1 space group
# The structure has a 3D framework
# The original CSD entry LODTEF is in the orthorhombic crystal system
# The framework has been calculated to contain at least 10.0% void space
# The void calculation uses a probe of radius 1.32A, grid spacing 0.4
# H atom positions have been added when not included in the experimental data
#
###############################################################################

data_LODTEF
_chemical_formula_moiety         '(C192 H140 Cd12 N44 O48)n'
_symmetry_cell_setting           triclinic
_symmetry_space_group_name_H-M   'P 1'
_symmetry_Int_Tables_number      1
_space_group_name_Hall           'P 1'
loop_
_symmetry_equiv_pos_site_id
_symmetry_equiv_pos_as_xyz
1 x,y,z
_cell_length_a                   15.939(5)
_cell_length_b                   20.857(5)
_cell_length_c                   14.374(5)
_cell_angle_alpha                90
_cell_angle_beta                 90
_cell_angle_gamma                90
_cell_volume                     4778.49
loop_
_atom_site_label
_atom_site_type_symbol
_atom_site_fract_x
_atom_site_fract_y
_atom_site_fract_z
Cd2 Cd 0.0000 0.56434(4) 0.40106(6)
Cd4 Cd 0.0000 0.06434(4) 0.09894(6)
C1 C 0.0000 0.6825(6) 0.3216(10)
C2 C 0.0000 0.7479(6) 0.2773(8)
C3 C 0.0000 0.7537(6) 0.1797(8)
H1 H 0.0000 0.7170 0.1429
C4 C 0.0000 0.8139(5) 0.1379(10)
H2 H 0.0000 0.8175 0.0734
C5 C 0.0000 0.8687(5) 0.1932(8)
C6 C 0.0000 0.8636(5) 0.2899(8)
H3 H 0.0000 0.9003 0.3265
C7 C 0.0000 0.8031(6) 0.3318(9)
C8 C 0.0000 0.9352(5) 0.1487(8)
N1 N 0.0000 0.8011(10) 0.4280(14)
O1 O 0.0000 0.6336(4) 0.2691(6)
O2 O 0.0000 0.6771(4) 0.4080(6)
O3 O 0.0000 0.9393(4) 0.0631(7)
O4 O 0.0000 0.9817(4) 0.2016(6)
C9 C 0.197(2) 0.5077(12) 0.3709(18)
H4 H 0.1615 0.4767 0.3460
C10 C 0.2852(19) 0.4983(13) 0.363(2)
H5 H 0.3096 0.4635 0.3327
C11 C 0.3311(13) 0.5481(10) 0.4051(17)
C12 C 0.2913(15) 0.5995(7) 0.4523(11)
H6 H 0.3254 0.6295 0.4817
C13 C 0.2034(16) 0.6085(11) 0.4581(15)
H7 H 0.1772 0.6426 0.4879
C14 C 0.4254(12) 0.5531(9) 0.4040(14)
N2 N 0.1620(11) 0.5590(7) 0.4129(11)
N3 N 0.4643(7) 0.5795(5) 0.4433(8)
C15 C 0.803(2) 0.5077(12) 0.3709(18)
H8 H 0.8385 0.4767 0.3460
C16 C 0.7148(19) 0.4983(13) 0.363(2)
H9 H 0.6904 0.4635 0.3327
C17 C 0.6689(13) 0.5481(10) 0.4051(17)
C18 C 0.7087(15) 0.5995(7) 0.4523(11)
H10 H 0.6746 0.6295 0.4817
C19 C 0.7966(16) 0.6085(11) 0.4581(15)
H11 H 0.8228 0.6426 0.4879
C20 C 0.5746(12) 0.5531(9) 0.4040(14)
N4 N 0.8380(11) 0.5590(7) 0.4129(11)
N5 N 0.5357(7) 0.5795(5) 0.4433(8)
O5 O 0.0000 0.5607(4) 0.5631(7)
O6 O 0.0000 0.4393(4) 0.4369(7)
O7 O 0.0000 0.4817(4) 0.2984(6)
Cd2_2 Cd 1.0000 0.56434(4) 0.40106(6)
H12 H 2.22045e-16 0.842492 0.465135
H13 H 2.22045e-16 0.758241 0.461447
H14 H 0.456333 0.523236 0.352178
H15 H 0.543667 0.523236 0.352178
Cd3 Cd 0.0000 0.93566(4) 0.90106(6)
Cd4_2 Cd 1.0000 0.06434(4) 0.09894(6)
C1_2 C 1.0000 0.6825(6) 0.3216(10)
C2_2 C 1.0000 0.7479(6) 0.2773(8)
C3_2 C 1.0000 0.7537(6) 0.1797(8)
H1_2 H 1.0000 0.7170 0.1429
C4_2 C 1.0000 0.8139(5) 0.1379(10)
H2_2 H 1.0000 0.8175 0.0734
C5_2 C 1.0000 0.8687(5) 0.1932(8)
C6_2 C 1.0000 0.8636(5) 0.2899(8)
H3_2 H 1.0000 0.9003 0.3265
C7_2 C 1.0000 0.8031(6) 0.3318(9)
C8_2 C 1.0000 0.9352(5) 0.1487(8)
N1_2 N 1.0000 0.8011(10) 0.4280(14)
O1_2 O 1.0000 0.6336(4) 0.2691(6)
O2_2 O 1.0000 0.6771(4) 0.4080(6)
O3_2 O 1.0000 0.9393(4) 0.0631(7)
O4_2 O 1.0000 0.9817(4) 0.2016(6)
O5_2 O 1.0000 0.5607(4) 0.5631(7)
O6_2 O 1.0000 0.4393(4) 0.4369(7)
O7_2 O 1.0000 0.4817(4) 0.2984(6)
H12_2 H 1 0.842492 0.465135
H13_2 H 1 0.758241 0.461447
Cd3_2 Cd 1.0000 0.93566(4) 0.90106(6)
O6_3 O -0.0000 0.0607(4) 0.9369(7)
O7_3 O -0.0000 0.0183(4) 0.7984(6)
C1_3 C -0.0000 0.8175(6) 0.8216(10)
C2_3 C -0.0000 0.7521(6) 0.7773(8)
C3_3 C -0.0000 0.7463(6) 0.6797(8)
H1_3 H -0.0000 0.7830 0.6429
C4_3 C -0.0000 0.6861(5) 0.6379(10)
H2_3 H -0.0000 0.6825 0.5734
C5_3 C -0.0000 0.6313(5) 0.6932(8)
C6_3 C -0.0000 0.6364(5) 0.7899(8)
H3_3 H -0.0000 0.5997 0.8265
C7_3 C -0.0000 0.6969(6) 0.8318(9)
C8_3 C -0.0000 0.5648(5) 0.6487(8)
N1_3 N -0.0000 0.6989(10) 0.9280(14)
O1_3 O -0.0000 0.8664(4) 0.7691(6)
O2_3 O -0.0000 0.8229(4) 0.9080(6)
O4_3 O -0.0000 0.5183(4) 0.7016(6)
Cd4_3 Cd -0.0000 0.43566(4) 0.59894(6)
N6 N 0.1620(11) 0.9410(7) 0.9129(11)
H12_3 H -2.22045e-16 0.657508 0.965135
H13_3 H -2.22045e-16 0.741759 0.961447
H4_2 H 0.8385 0.0233 0.8460
C10_2 C 0.7148(19) 0.0017(13) 0.863(2)
H5_2 H 0.6904 0.0365 0.8327
H8_2 H 0.1615 0.0233 0.8460
C16_2 C 0.2852(19) 0.0017(13) 0.863(2)
H9_2 H 0.3096 0.0365 0.8327
O6_4 O 1.0000 0.0607(4) 0.9369(7)
O7_4 O 1.0000 0.0183(4) 0.7984(6)
C1_4 C 1.0000 0.8175(6) 0.8216(10)
C2_4 C 1.0000 0.7521(6) 0.7773(8)
C3_4 C 1.0000 0.7463(6) 0.6797(8)
H1_4 H 1.0000 0.7830 0.6429
C4_4 C 1.0000 0.6861(5) 0.6379(10)
H2_4 H 1.0000 0.6825 0.5734
C5_4 C 1.0000 0.6313(5) 0.6932(8)
C6_4 C 1.0000 0.6364(5) 0.7899(8)
H3_4 H 1.0000 0.5997 0.8265
C7_4 C 1.0000 0.6969(6) 0.8318(9)
C8_4 C 1.0000 0.5648(5) 0.6487(8)
N1_4 N 1.0000 0.6989(10) 0.9280(14)
O1_4 O 1.0000 0.8664(4) 0.7691(6)
O2_4 O 1.0000 0.8229(4) 0.9080(6)
O4_4 O 1.0000 0.5183(4) 0.7016(6)
C9_2 C 0.803(2) 0.9923(12) 0.8709(18)
C11_2 C 0.6689(13) 0.9519(10) 0.9051(17)
C12_2 C 0.7087(15) 0.9005(7) 0.9523(11)
H6_2 H 0.6746 0.8705 0.9817
C13_2 C 0.7966(16) 0.8915(11) 0.9581(15)
H7_2 H 0.8228 0.8574 0.9879
C14_2 C 0.5746(12) 0.9469(9) 0.9040(14)
N2_2 N 0.8380(11) 0.9410(7) 0.9129(11)
N3_2 N 0.5357(7) 0.9205(5) 0.9433(8)
C15_2 C 0.197(2) 0.9923(12) 0.8709(18)
C17_2 C 0.3311(13) 0.9519(10) 0.9051(17)
C18_2 C 0.2913(15) 0.9005(7) 0.9523(11)
H10_2 H 0.3254 0.8705 0.9817
C19_2 C 0.2034(16) 0.8915(11) 0.9581(15)
H11_2 H 0.1772 0.8574 0.9879
C20_2 C 0.4254(12) 0.9469(9) 0.9040(14)
N5_2 N 0.4643(7) 0.9205(5) 0.9433(8)
Cd4_4 Cd 1.0000 0.43566(4) 0.59894(6)
H12_4 H 1 0.657508 0.965135
H13_4 H 1 0.741759 0.961447
H14_2 H 0.543667 0.976764 0.852178
H15_2 H 0.456333 0.976764 0.852178
C1_5 C 0.0000 0.3175(6) 0.6784(10)
C2_5 C 0.0000 0.2521(6) 0.7227(8)
C3_5 C 0.0000 0.2463(6) 0.8203(8)
H1_5 H 0.0000 0.2830 0.8571
C4_5 C 0.0000 0.1861(5) 0.8621(10)
H2_5 H 0.0000 0.1825 0.9266
C5_5 C 0.0000 0.1313(5) 0.8068(8)
C6_5 C 0.0000 0.1364(5) 0.7101(8)
H3_5 H 0.0000 0.0997 0.6735
C7_5 C 0.0000 0.1969(6) 0.6682(9)
C8_5 C 0.0000 0.0648(5) 0.8513(8)
N1_5 N 0.0000 0.1989(10) 0.5720(14)
O1_5 O 0.0000 0.3664(4) 0.7309(6)
O2_5 O 0.0000 0.3229(4) 0.5920(6)
C9_3 C 0.197(2) 0.4923(12) 0.6291(18)
H4_3 H 0.1615 0.5233 0.6540
C10_3 C 0.2852(19) 0.5017(13) 0.637(2)
H5_3 H 0.3096 0.5365 0.6673
C11_3 C 0.3311(13) 0.4519(10) 0.5949(17)
C12_3 C 0.2913(15) 0.4005(7) 0.5477(11)
H6_3 H 0.3254 0.3705 0.5183
C13_3 C 0.2034(16) 0.3915(11) 0.5419(15)
H7_3 H 0.1772 0.3574 0.5121
C14_3 C 0.4254(12) 0.4469(9) 0.5960(14)
N2_3 N 0.1620(11) 0.4410(7) 0.5871(11)
N3_3 N 0.4643(7) 0.4205(5) 0.5567(8)
C15_3 C 0.803(2) 0.4923(12) 0.6291(18)
H8_3 H 0.8385 0.5233 0.6540
C16_3 C 0.7148(19) 0.5017(13) 0.637(2)
H9_3 H 0.6904 0.5365 0.6673
C17_3 C 0.6689(13) 0.4519(10) 0.5949(17)
C18_3 C 0.7087(15) 0.4005(7) 0.5477(11)
H10_3 H 0.6746 0.3705 0.5183
C19_3 C 0.7966(16) 0.3915(11) 0.5419(15)
H11_3 H 0.8228 0.3574 0.5121
C20_3 C 0.5746(12) 0.4469(9) 0.5960(14)
N4_2 N 0.8380(11) 0.4410(7) 0.5871(11)
N5_3 N 0.5357(7) 0.4205(5) 0.5567(8)
H12_5 H 2.22045e-16 0.157508 0.534865
H13_5 H 2.22045e-16 0.241759 0.538553
H14_3 H 0.456333 0.476764 0.647822
H15_3 H 0.543667 0.476764 0.647822
C1_6 C 1.0000 0.3175(6) 0.6784(10)
C2_6 C 1.0000 0.2521(6) 0.7227(8)
C3_6 C 1.0000 0.2463(6) 0.8203(8)
H1_6 H 1.0000 0.2830 0.8571
C4_6 C 1.0000 0.1861(5) 0.8621(10)
H2_6 H 1.0000 0.1825 0.9266
C5_6 C 1.0000 0.1313(5) 0.8068(8)
C6_6 C 1.0000 0.1364(5) 0.7101(8)
H3_6 H 1.0000 0.0997 0.6735
C7_6 C 1.0000 0.1969(6) 0.6682(9)
C8_6 C 1.0000 0.0648(5) 0.8513(8)
N1_6 N 1.0000 0.1989(10) 0.5720(14)
O1_6 O 1.0000 0.3664(4) 0.7309(6)
O2_6 O 1.0000 0.3229(4) 0.5920(6)
H12_6 H 1 0.157508 0.534865
H13_6 H 1 0.241759 0.538553
C1_7 C -0.0000 0.1825(6) 0.1784(10)
C2_7 C -0.0000 0.2479(6) 0.2227(8)
C3_7 C -0.0000 0.2537(6) 0.3203(8)
H1_7 H -0.0000 0.2170 0.3571
C4_7 C -0.0000 0.3139(5) 0.3621(10)
H2_7 H -0.0000 0.3175 0.4266
C5_7 C -0.0000 0.3687(5) 0.3068(8)
C6_7 C -0.0000 0.3636(5) 0.2101(8)
H3_7 H -0.0000 0.4003 0.1735
C7_7 C -0.0000 0.3031(6) 0.1682(9)
C8_7 C -0.0000 0.4352(5) 0.3513(8)
N1_7 N -0.0000 0.3011(10) 0.0720(14)
O1_7 O -0.0000 0.1336(4) 0.2309(6)
O2_7 O -0.0000 0.1771(4) 0.0920(6)
N6_2 N 0.1620(11) 0.0590(7) 0.0871(11)
H12_7 H -2.22045e-16 0.342492 0.0348653
H13_7 H -2.22045e-16 0.258241 0.0385532
C1_8 C 1.0000 0.1825(6) 0.1784(10)
C2_8 C 1.0000 0.2479(6) 0.2227(8)
C3_8 C 1.0000 0.2537(6) 0.3203(8)
H1_8 H 1.0000 0.2170 0.3571
C4_8 C 1.0000 0.3139(5) 0.3621(10)
H2_8 H 1.0000 0.3175 0.4266
C5_8 C 1.0000 0.3687(5) 0.3068(8)
C6_8 C 1.0000 0.3636(5) 0.2101(8)
H3_8 H 1.0000 0.4003 0.1735
C7_8 C 1.0000 0.3031(6) 0.1682(9)
C8_8 C 1.0000 0.4352(5) 0.3513(8)
N1_8 N 1.0000 0.3011(10) 0.0720(14)
O1_8 O 1.0000 0.1336(4) 0.2309(6)
O2_8 O 1.0000 0.1771(4) 0.0920(6)
C9_4 C 0.803(2) 0.0077(12) 0.1291(18)
C11_4 C 0.6689(13) 0.0481(10) 0.0949(17)
C12_4 C 0.7087(15) 0.0995(7) 0.0477(11)
H6_4 H 0.6746 0.1295 0.0183
C13_4 C 0.7966(16) 0.1085(11) 0.0419(15)
H7_4 H 0.8228 0.1426 0.0121
C14_4 C 0.5746(12) 0.0531(9) 0.0960(14)
N2_4 N 0.8380(11) 0.0590(7) 0.0871(11)
N3_4 N 0.5357(7) 0.0795(5) 0.0567(8)
C15_4 C 0.197(2) 0.0077(12) 0.1291(18)
C17_4 C 0.3311(13) 0.0481(10) 0.0949(17)
C18_4 C 0.2913(15) 0.0995(7) 0.0477(11)
H10_4 H 0.3254 0.1295 0.0183
C19_4 C 0.2034(16) 0.1085(11) 0.0419(15)
H11_4 H 0.1772 0.1426 0.0121
C20_4 C 0.4254(12) 0.0531(9) 0.0960(14)
N5_4 N 0.4643(7) 0.0795(5) 0.0567(8)
H12_8 H 1 0.342492 0.0348653
H13_8 H 1 0.258241 0.0385532
H14_4 H 0.543667 0.0232355 0.147822
H15_4 H 0.456333 0.0232355 0.147822
H4_4 H 0.8385 0.9767 0.1540
C10_4 C 0.7148(19) 0.9983(13) 0.137(2)
H5_4 H 0.6904 0.9635 0.1673
H8_4 H 0.1615 0.9767 0.1540
C16_4 C 0.2852(19) 0.9983(13) 0.137(2)
H9_4 H 0.3096 0.9635 0.1673
Cd4_5 Cd 0.5000 0.06434(4) 0.40106(6)
C1_9 C 0.5000 0.6825(6) 0.1784(10)
C2_9 C 0.5000 0.7479(6) 0.2227(8)
C3_9 C 0.5000 0.7537(6) 0.3203(8)
H1_9 H 0.5000 0.7170 0.3571
C4_9 C 0.5000 0.8139(5) 0.3621(10)
H2_9 H 0.5000 0.8175 0.4266
C5_9 C 0.5000 0.8687(5) 0.3068(8)
C6_9 C 0.5000 0.8636(5) 0.2101(8)
H3_9 H 0.5000 0.9003 0.1735
C7_9 C 0.5000 0.8031(6) 0.1682(9)
C8_9 C 0.5000 0.9352(5) 0.3513(8)
N1_9 N 0.5000 0.8011(10) 0.0720(14)
O1_9 O 0.5000 0.6336(4) 0.2309(6)
O2_9 O 0.5000 0.6771(4) 0.0920(6)
O3_3 O 0.5000 0.9393(4) 0.4369(7)
O4_5 O 0.5000 0.9817(4) 0.2984(6)
Cd1 Cd 0.5000 0.56434(4) 0.09894(6)
C9_5 C 0.303(2) 0.5077(12) 0.1291(18)
H4_5 H 0.3385 0.4767 0.1540
C10_5 C 0.2148(19) 0.4983(13) 0.137(2)
H5_5 H 0.1904 0.4635 0.1673
C11_5 C 0.1689(13) 0.5481(10) 0.0949(17)
C12_5 C 0.2087(15) 0.5995(7) 0.0477(11)
H6_5 H 0.1746 0.6295 0.0183
C13_5 C 0.2966(16) 0.6085(11) 0.0419(15)
H7_5 H 0.3228 0.6426 0.0121
C14_5 C 0.0746(12) 0.5531(9) 0.0960(14)
N2_5 N 0.3380(11) 0.5590(7) 0.0871(11)
N3_5 N 0.0357(7) 0.5795(5) 0.0567(8)
O6_5 O 0.5000 0.4393(4) 0.0631(7)
O7_5 O 0.5000 0.4817(4) 0.2016(6)
Cd3_3 Cd 0.5000 0.93566(4) 0.59894(6)
N6_3 N 0.6620(11) 0.5590(7) 0.0871(11)
H12_9 H 0.5 0.842492 0.0348653
H13_9 H 0.5 0.758241 0.0385532
H14_5 H 0.0436674 0.523236 0.147822
O5_3 O 0.5000 0.5607(4) 0.9369(7)
C15_5 C 0.697(2) 0.5077(12) 0.1291(18)
H8_5 H 0.6615 0.4767 0.1540
C16_5 C 0.7852(19) 0.4983(13) 0.137(2)
H9_5 H 0.8096 0.4635 0.1673
C17_5 C 0.8311(13) 0.5481(10) 0.0949(17)
C18_5 C 0.7913(15) 0.5995(7) 0.0477(11)
H10_5 H 0.8254 0.6295 0.0183
C19_5 C 0.7034(16) 0.6085(11) 0.0419(15)
H11_5 H 0.6772 0.6426 0.0121
C20_5 C 0.9254(12) 0.5531(9) 0.0960(14)
N5_5 N 0.9643(7) 0.5795(5) 0.0567(8)
H15_5 H 0.956333 0.523236 0.147822
C15_6 C 0.303(2) 0.0077(12) 0.3709(18)
C17_6 C 0.1689(13) 0.0481(10) 0.4051(17)
C18_6 C 0.2087(15) 0.0995(7) 0.4523(11)
H10_6 H 0.1746 0.1295 0.4817
C19_6 C 0.2966(16) 0.1085(11) 0.4581(15)
H11_6 H 0.3228 0.1426 0.4879
C20_6 C 0.0746(12) 0.0531(9) 0.4040(14)
N4_3 N 0.3380(11) 0.0590(7) 0.4129(11)
N5_6 N 0.0357(7) 0.0795(5) 0.4433(8)
H15_6 H 0.0436674 0.0232355 0.352178
H8_6 H 0.3385 0.9767 0.3460
C16_6 C 0.2148(19) 0.9983(13) 0.363(2)
H9_6 H 0.1904 0.9635 0.3327
C1_10 C 0.5000 0.1825(6) 0.3216(10)
C2_10 C 0.5000 0.2479(6) 0.2773(8)
C3_10 C 0.5000 0.2537(6) 0.1797(8)
H1_10 H 0.5000 0.2170 0.1429
C4_10 C 0.5000 0.3139(5) 0.1379(10)
H2_10 H 0.5000 0.3175 0.0734
C5_10 C 0.5000 0.3687(5) 0.1932(8)
C6_10 C 0.5000 0.3636(5) 0.2899(8)
H3_10 H 0.5000 0.4003 0.3265
C7_10 C 0.5000 0.3031(6) 0.3318(9)
C8_10 C 0.5000 0.4352(5) 0.1487(8)
N1_10 N 0.5000 0.3011(10) 0.4280(14)
O1_10 O 0.5000 0.1336(4) 0.2691(6)
O2_10 O 0.5000 0.1771(4) 0.4080(6)
C9_6 C 0.697(2) 0.0077(12) 0.3709(18)
C11_6 C 0.8311(13) 0.0481(10) 0.4051(17)
C12_6 C 0.7913(15) 0.0995(7) 0.4523(11)
H6_6 H 0.8254 0.1295 0.4817
C13_6 C 0.7034(16) 0.1085(11) 0.4581(15)
H7_6 H 0.6772 0.1426 0.4879
C14_6 C 0.9254(12) 0.0531(9) 0.4040(14)
N2_6 N 0.6620(11) 0.0590(7) 0.4129(11)
N3_6 N 0.9643(7) 0.0795(5) 0.4433(8)
O5_4 O 0.5000 0.0607(4) 0.5631(7)
H12_10 H 0.5 0.342492 0.465135
H13_10 H 0.5 0.258241 0.461447
H14_6 H 0.956333 0.0232355 0.352178
Cd3_4 Cd 0.5000 0.43566(4) 0.90106(6)
H4_6 H 0.6615 0.9767 0.3460
C10_6 C 0.7852(19) 0.9983(13) 0.363(2)
H5_6 H 0.8096 0.9635 0.3327
C1_11 C 0.5000 0.3175(6) 0.8216(10)
C2_11 C 0.5000 0.2521(6) 0.7773(8)
C3_11 C 0.5000 0.2463(6) 0.6797(8)
H1_11 H 0.5000 0.2830 0.6429
C4_11 C 0.5000 0.1861(5) 0.6379(10)
H2_11 H 0.5000 0.1825 0.5734
C5_11 C 0.5000 0.1313(5) 0.6932(8)
C6_11 C 0.5000 0.1364(5) 0.7899(8)
H3_11 H 0.5000 0.0997 0.8265
C7_11 C 0.5000 0.1969(6) 0.8318(9)
C8_11 C 0.5000 0.0648(5) 0.6487(8)
N1_11 N 0.5000 0.1989(10) 0.9280(14)
O1_11 O 0.5000 0.3664(4) 0.7691(6)
O2_11 O 0.5000 0.3229(4) 0.9080(6)
O4_6 O 0.5000 0.0183(4) 0.7016(6)
C9_7 C 0.303(2) 0.4923(12) 0.8709(18)
H4_7 H 0.3385 0.5233 0.8460
C10_7 C 0.2148(19) 0.5017(13) 0.863(2)
H5_7 H 0.1904 0.5365 0.8327
C11_7 C 0.1689(13) 0.4519(10) 0.9051(17)
C12_7 C 0.2087(15) 0.4005(7) 0.9523(11)
H6_7 H 0.1746 0.3705 0.9817
C13_7 C 0.2966(16) 0.3915(11) 0.9581(15)
H7_7 H 0.3228 0.3574 0.9879
C14_7 C 0.0746(12) 0.4469(9) 0.9040(14)
N2_7 N 0.3380(11) 0.4410(7) 0.9129(11)
N3_7 N 0.0357(7) 0.4205(5) 0.9433(8)
O7_6 O 0.5000 0.5183(4) 0.7984(6)
N6_4 N 0.6620(11) 0.4410(7) 0.9129(11)
H12_11 H 0.5 0.157508 0.965135
H13_11 H 0.5 0.241759 0.961447
H14_7 H 0.0436674 0.476764 0.852178
C15_7 C 0.697(2) 0.4923(12) 0.8709(18)
H8_7 H 0.6615 0.5233 0.8460
C16_7 C 0.7852(19) 0.5017(13) 0.863(2)
H9_7 H 0.8096 0.5365 0.8327
C17_7 C 0.8311(13) 0.4519(10) 0.9051(17)
C18_7 C 0.7913(15) 0.4005(7) 0.9523(11)
H10_7 H 0.8254 0.3705 0.9817
C19_7 C 0.7034(16) 0.3915(11) 0.9581(15)
H11_7 H 0.6772 0.3574 0.9879
C20_7 C 0.9254(12) 0.4469(9) 0.9040(14)
N5_7 N 0.9643(7) 0.4205(5) 0.9433(8)
H15_7 H 0.956333 0.476764 0.852178
H8_8 H 0.3385 0.0233 0.6540
C16_8 C 0.2148(19) 0.0017(13) 0.637(2)
H9_8 H 0.1904 0.0365 0.6673
C15_8 C 0.303(2) 0.9923(12) 0.6291(18)
C17_8 C 0.1689(13) 0.9519(10) 0.5949(17)
C18_8 C 0.2087(15) 0.9005(7) 0.5477(11)
H10_8 H 0.1746 0.8705 0.5183
C19_8 C 0.2966(16) 0.8915(11) 0.5419(15)
H11_8 H 0.3228 0.8574 0.5121
C20_8 C 0.0746(12) 0.9469(9) 0.5960(14)
N4_4 N 0.3380(11) 0.9410(7) 0.5871(11)
N5_8 N 0.0357(7) 0.9205(5) 0.5567(8)
H15_8 H 0.0436674 0.976764 0.647822
H4_8 H 0.6615 0.0233 0.6540
C10_8 C 0.7852(19) 0.0017(13) 0.637(2)
H5_8 H 0.8096 0.0365 0.6673
C1_12 C 0.5000 0.8175(6) 0.6784(10)
C2_12 C 0.5000 0.7521(6) 0.7227(8)
C3_12 C 0.5000 0.7463(6) 0.8203(8)
H1_12 H 0.5000 0.7830 0.8571
C4_12 C 0.5000 0.6861(5) 0.8621(10)
H2_12 H 0.5000 0.6825 0.9266
C5_12 C 0.5000 0.6313(5) 0.8068(8)
C6_12 C 0.5000 0.6364(5) 0.7101(8)
H3_12 H 0.5000 0.5997 0.6735
C7_12 C 0.5000 0.6969(6) 0.6682(9)
C8_12 C 0.5000 0.5648(5) 0.8513(8)
N1_12 N 0.5000 0.6989(10) 0.5720(14)
O1_12 O 0.5000 0.8664(4) 0.7309(6)
O2_12 O 0.5000 0.8229(4) 0.5920(6)
C9_8 C 0.697(2) 0.9923(12) 0.6291(18)
C11_8 C 0.8311(13) 0.9519(10) 0.5949(17)
C12_8 C 0.7913(15) 0.9005(7) 0.5477(11)
H6_8 H 0.8254 0.8705 0.5183
C13_8 C 0.7034(16) 0.8915(11) 0.5419(15)
H7_8 H 0.6772 0.8574 0.5121
C14_8 C 0.9254(12) 0.9469(9) 0.5960(14)
N2_8 N 0.6620(11) 0.9410(7) 0.5871(11)
N3_8 N 0.9643(7) 0.9205(5) 0.5567(8)
H12_12 H 0.5 0.657508 0.534865
H13_12 H 0.5 0.741759 0.538553
H14_8 H 0.956333 0.976764 0.647822
loop_
_geom_bond_atom_site_label_1
_geom_bond_atom_site_label_2
_geom_bond_site_symmetry_1
_geom_bond_site_symmetry_2
C1 C2 1_555 1_555
C2 C3 1_555 1_555
C3 H1 1_555 1_555
C4 C3 1_555 1_555
H2 C4 1_555 1_555
C5 C4 1_555 1_555
C6 C5 1_555 1_555
H3 C6 1_555 1_555
C7 C2 1_555 1_555
C8 C5 1_555 1_555
N1 C7 1_555 1_555
O1 C1 1_555 1_555
O2 C1 1_555 1_555
O3 C8 1_555 1_555
O4 C8 1_555 1_555
Cd2 O1 1_555 1_555
C9 H4 1_555 1_555
C10 C9 1_555 1_555
H5 C10 1_555 1_555
C11 C10 1_555 1_555
C12 C11 1_555 1_555
H6 C12 1_555 1_555
C13 C12 1_555 1_555
H7 C13 1_555 1_555
C14 C11 1_555 1_555
N2 Cd2 1_555 1_555
N3 C14 1_555 1_555
C15 H8 1_555 1_555
C16 C15 1_555 1_555
H9 C16 1_555 1_555
C17 C16 1_555 1_555
C18 C17 1_555 1_555
H10 C18 1_555 1_555
C19 C18 1_555 1_555
H11 C19 1_555 1_555
C20 C17 1_555 1_555
N4 C15 1_555 1_555
N5 N3 1_555 1_555
O5 Cd2 1_555 1_555
O6 Cd2 1_555 1_555
O7 Cd2 1_555 1_555
Cd2_2 N4 1_555 1_555
C6 C7 1_555 1_555
O2 Cd2 1_555 1_555
C9 N2 1_555 1_555
C13 N2 1_555 1_555
C19 N4 1_555 1_555
C20 N5 1_555 1_555
N1 H12 1_555 1_555
N1 H13 1_555 1_555
C14 H14 1_555 1_555
C20 H15 1_555 1_555
C1_2 C2_2 1_555 1_555
C2_2 C3_2 1_555 1_555
C3_2 H1_2 1_555 1_555
C4_2 C3_2 1_555 1_555
H2_2 C4_2 1_555 1_555
C5_2 C4_2 1_555 1_555
C6_2 C5_2 1_555 1_555
H3_2 C6_2 1_555 1_555
C7_2 C2_2 1_555 1_555
C8_2 C5_2 1_555 1_555
N1_2 C7_2 1_555 1_555
O1_2 C1_2 1_555 1_555
O2_2 C1_2 1_555 1_555
O3_2 C8_2 1_555 1_555
O4_2 C8_2 1_555 1_555
Cd2_2 O1_2 1_555 1_555
O5_2 Cd2_2 1_555 1_555
O6_2 Cd2_2 1_555 1_555
O7_2 Cd2_2 1_555 1_555
C6_2 C7_2 1_555 1_555
O2_2 Cd2_2 1_555 1_555
N1_2 H12_2 1_555 1_555
N1_2 H13_2 1_555 1_555
C1_3 C2_3 1_555 1_555
C2_3 C3_3 1_555 1_555
C3_3 H1_3 1_555 1_555
C4_3 C3_3 1_555 1_555
H2_3 C4_3 1_555 1_555
C5_3 C4_3 1_555 1_555
C6_3 C5_3 1_555 1_555
H3_3 C6_3 1_555 1_555
C7_3 C2_3 1_555 1_555
C8_3 C5_3 1_555 1_555
N1_3 C7_3 1_555 1_555
O1_3 C1_3 1_555 1_555
O2_3 C1_3 1_555 1_555
O5 C8_3 1_555 1_555
O4_3 C8_3 1_555 1_555
Cd3 O1_3 1_555 1_555
Cd4_3 O5 1_555 1_555
N6 Cd3 1_555 1_555
C6_3 C7_3 1_555 1_555
O2_3 Cd3 1_555 1_555
O4_3 Cd4_3 1_555 1_555
N1_3 H12_3 1_555 1_555
N1_3 H13_3 1_555 1_555
H5_2 C10_2 1_555 1_555
H9_2 C16_2 1_555 1_555
C1_4 C2_4 1_555 1_555
C2_4 C3_4 1_555 1_555
C3_4 H1_4 1_555 1_555
C4_4 C3_4 1_555 1_555
H2_4 C4_4 1_555 1_555
C5_4 C4_4 1_555 1_555
C6_4 C5_4 1_555 1_555
H3_4 C6_4 1_555 1_555
C7_4 C2_4 1_555 1_555
C8_4 C5_4 1_555 1_555
N1_4 C7_4 1_555 1_555
O1_4 C1_4 1_555 1_555
O2_4 C1_4 1_555 1_555
O5_2 C8_4 1_555 1_555
O4_4 C8_4 1_555 1_555
Cd3_2 O1_4 1_555 1_555
C12_2 C11_2 1_555 1_555
H6_2 C12_2 1_555 1_555
C13_2 C12_2 1_555 1_555
H7_2 C13_2 1_555 1_555
C14_2 C11_2 1_555 1_555
N2_2 Cd3_2 1_555 1_555
N3_2 C14_2 1_555 1_555
C18_2 C17_2 1_555 1_555
H10_2 C18_2 1_555 1_555
C19_2 C18_2 1_555 1_555
H11_2 C19_2 1_555 1_555
C20_2 C17_2 1_555 1_555
N6 C15_2 1_555 1_555
N5_2 N3_2 1_555 1_555
Cd4_4 O5_2 1_555 1_555
C6_4 C7_4 1_555 1_555
O2_4 Cd3_2 1_555 1_555
O4_4 Cd4_4 1_555 1_555
C9_2 N2_2 1_555 1_555
C13_2 N2_2 1_555 1_555
C19_2 N6 1_555 1_555
C20_2 N5_2 1_555 1_555
N1_4 H12_4 1_555 1_555
N1_4 H13_4 1_555 1_555
C14_2 H14_2 1_555 1_555
C20_2 H15_2 1_555 1_555
C1_5 C2_5 1_555 1_555
C2_5 C3_5 1_555 1_555
C3_5 H1_5 1_555 1_555
C4_5 C3_5 1_555 1_555
H2_5 C4_5 1_555 1_555
C5_5 C4_5 1_555 1_555
C6_5 C5_5 1_555 1_555
H3_5 C6_5 1_555 1_555
C7_5 C2_5 1_555 1_555
C8_5 C5_5 1_555 1_555
N1_5 C7_5 1_555 1_555
O1_5 C1_5 1_555 1_555
O2_5 C1_5 1_555 1_555
O6_3 C8_5 1_555 1_555
O7_3 C8_5 1_555 1_555
Cd4_3 O1_5 1_555 1_555
C9_3 H4_3 1_555 1_555
C10_3 C9_3 1_555 1_555
H5_3 C10_3 1_555 1_555
C11_3 C10_3 1_555 1_555
C12_3 C11_3 1_555 1_555
H6_3 C12_3 1_555 1_555
C13_3 C12_3 1_555 1_555
H7_3 C13_3 1_555 1_555
C14_3 C11_3 1_555 1_555
N2_3 Cd4_3 1_555 1_555
N3_3 C14_3 1_555 1_555
C15_3 H8_3 1_555 1_555
C16_3 C15_3 1_555 1_555
H9_3 C16_3 1_555 1_555
C17_3 C16_3 1_555 1_555
C18_3 C17_3 1_555 1_555
H10_3 C18_3 1_555 1_555
C19_3 C18_3 1_555 1_555
H11_3 C19_3 1_555 1_555
C20_3 C17_3 1_555 1_555
N4_2 C15_3 1_555 1_555
N5_3 N3_3 1_555 1_555
O6 Cd4_3 1_555 1_555
Cd4_4 N4_2 1_555 1_555
C6_5 C7_5 1_555 1_555
O2_5 Cd4_3 1_555 1_555
C9_3 N2_3 1_555 1_555
C13_3 N2_3 1_555 1_555
C19_3 N4_2 1_555 1_555
C20_3 N5_3 1_555 1_555
N1_5 H12_5 1_555 1_555
N1_5 H13_5 1_555 1_555
C14_3 H14_3 1_555 1_555
C20_3 H15_3 1_555 1_555
C1_6 C2_6 1_555 1_555
C2_6 C3_6 1_555 1_555
C3_6 H1_6 1_555 1_555
C4_6 C3_6 1_555 1_555
H2_6 C4_6 1_555 1_555
C5_6 C4_6 1_555 1_555
C6_6 C5_6 1_555 1_555
H3_6 C6_6 1_555 1_555
C7_6 C2_6 1_555 1_555
C8_6 C5_6 1_555 1_555
N1_6 C7_6 1_555 1_555
O1_6 C1_6 1_555 1_555
O2_6 C1_6 1_555 1_555
O6_4 C8_6 1_555 1_555
O7_4 C8_6 1_555 1_555
Cd4_4 O1_6 1_555 1_555
O6_2 Cd4_4 1_555 1_555
C6_6 C7_6 1_555 1_555
O2_6 Cd4_4 1_555 1_555
N1_6 H12_6 1_555 1_555
N1_6 H13_6 1_555 1_555
C1_7 C2_7 1_555 1_555
C2_7 C3_7 1_555 1_555
C3_7 H1_7 1_555 1_555
C4_7 C3_7 1_555 1_555
H2_7 C4_7 1_555 1_555
C5_7 C4_7 1_555 1_555
C6_7 C5_7 1_555 1_555
H3_7 C6_7 1_555 1_555
C7_7 C2_7 1_555 1_555
C8_7 C5_7 1_555 1_555
N1_7 C7_7 1_555 1_555
O1_7 C1_7 1_555 1_555
O2_7 C1_7 1_555 1_555
O6 C8_7 1_555 1_555
O7 C8_7 1_555 1_555
Cd4 O1_7 1_555 1_555
N6_2 Cd4 1_555 1_555
C6_7 C7_7 1_555 1_555
O2_7 Cd4 1_555 1_555
N1_7 H12_7 1_555 1_555
N1_7 H13_7 1_555 1_555
C1_8 C2_8 1_555 1_555
C2_8 C3_8 1_555 1_555
C3_8 H1_8 1_555 1_555
C4_8 C3_8 1_555 1_555
H2_8 C4_8 1_555 1_555
C5_8 C4_8 1_555 1_555
C6_8 C5_8 1_555 1_555
H3_8 C6_8 1_555 1_555
C7_8 C2_8 1_555 1_555
C8_8 C5_8 1_555 1_555
N1_8 C7_8 1_555 1_555
O1_8 C1_8 1_555 1_555
O2_8 C1_8 1_555 1_555
O6_2 C8_8 1_555 1_555
O7_2 C8_8 1_555 1_555
Cd4_2 O1_8 1_555 1_555
C12_4 C11_4 1_555 1_555
H6_4 C12_4 1_555 1_555
C13_4 C12_4 1_555 1_555
H7_4 C13_4 1_555 1_555
C14_4 C11_4 1_555 1_555
N2_4 Cd4_2 1_555 1_555
N3_4 C14_4 1_555 1_555
C18_4 C17_4 1_555 1_555
H10_4 C18_4 1_555 1_555
C19_4 C18_4 1_555 1_555
H11_4 C19_4 1_555 1_555
C20_4 C17_4 1_555 1_555
N6_2 C15_4 1_555 1_555
N5_4 N3_4 1_555 1_555
C6_8 C7_8 1_555 1_555
O2_8 Cd4_2 1_555 1_555
C9_4 N2_4 1_555 1_555
C13_4 N2_4 1_555 1_555
C19_4 N6_2 1_555 1_555
C20_4 N5_4 1_555 1_555
N1_8 H12_8 1_555 1_555
N1_8 H13_8 1_555 1_555
C14_4 H14_4 1_555 1_555
C20_4 H15_4 1_555 1_555
H5_4 C10_4 1_555 1_555
H9_4 C16_4 1_555 1_555
C1_9 C2_9 1_555 1_555
C2_9 C3_9 1_555 1_555
C3_9 H1_9 1_555 1_555
C4_9 C3_9 1_555 1_555
H2_9 C4_9 1_555 1_555
C5_9 C4_9 1_555 1_555
C6_9 C5_9 1_555 1_555
H3_9 C6_9 1_555 1_555
C7_9 C2_9 1_555 1_555
C8_9 C5_9 1_555 1_555
N1_9 C7_9 1_555 1_555
O1_9 C1_9 1_555 1_555
O2_9 C1_9 1_555 1_555
O3_3 C8_9 1_555 1_555
O4_5 C8_9 1_555 1_555
Cd1 O1_9 1_555 1_555
C9_5 H4_5 1_555 1_555
C10_5 C9_5 1_555 1_555
H5_5 C10_5 1_555 1_555
C11_5 C10_5 1_555 1_555
C12_5 C11_5 1_555 1_555
H6_5 C12_5 1_555 1_555
C13_5 C12_5 1_555 1_555
H7_5 C13_5 1_555 1_555
C14_5 C11_5 1_555 1_555
N2_5 Cd1 1_555 1_555
N3_5 C14_5 1_555 1_555
O6_5 Cd1 1_555 1_555
O7_5 Cd1 1_555 1_555
Cd3_3 O3_3 1_555 1_555
N6_3 Cd1 1_555 1_555
C6_9 C7_9 1_555 1_555
O2_9 Cd1 1_555 1_555
C9_5 N2_5 1_555 1_555
C13_5 N2_5 1_555 1_555
N1_9 H12_9 1_555 1_555
N1_9 H13_9 1_555 1_555
C14_5 H14_5 1_555 1_555
C15_5 H8_5 1_555 1_555
C16_5 C15_5 1_555 1_555
H9_5 C16_5 1_555 1_555
C17_5 C16_5 1_555 1_555
C18_5 C17_5 1_555 1_555
H10_5 C18_5 1_555 1_555
C19_5 C18_5 1_555 1_555
H11_5 C19_5 1_555 1_555
C20_5 C17_5 1_555 1_555
N6_3 C15_5 1_555 1_555
C19_5 N6_3 1_555 1_555
C20_5 N5_5 1_555 1_555
C20_5 H15_5 1_555 1_555
C18_6 C17_6 1_555 1_555
H10_6 C18_6 1_555 1_555
C19_6 C18_6 1_555 1_555
H11_6 C19_6 1_555 1_555
C20_6 C17_6 1_555 1_555
N4_3 C15_6 1_555 1_555
Cd4_5 N4_3 1_555 1_555
C19_6 N4_3 1_555 1_555
C20_6 N5_6 1_555 1_555
C20_6 H15_6 1_555 1_555
H9_6 C16_6 1_555 1_555
C1_10 C2_10 1_555 1_555
C2_10 C3_10 1_555 1_555
C3_10 H1_10 1_555 1_555
C4_10 C3_10 1_555 1_555
H2_10 C4_10 1_555 1_555
C5_10 C4_10 1_555 1_555
C6_10 C5_10 1_555 1_555
H3_10 C6_10 1_555 1_555
C7_10 C2_10 1_555 1_555
C8_10 C5_10 1_555 1_555
N1_10 C7_10 1_555 1_555
O1_10 C1_10 1_555 1_555
O2_10 C1_10 1_555 1_555
O6_5 C8_10 1_555 1_555
O7_5 C8_10 1_555 1_555
Cd4_5 O1_10 1_555 1_555
C12_6 C11_6 1_555 1_555
H6_6 C12_6 1_555 1_555
C13_6 C12_6 1_555 1_555
H7_6 C13_6 1_555 1_555
C14_6 C11_6 1_555 1_555
N2_6 Cd4_5 1_555 1_555
N3_6 C14_6 1_555 1_555
O5_4 Cd4_5 1_555 1_555
C6_10 C7_10 1_555 1_555
O2_10 Cd4_5 1_555 1_555
C9_6 N2_6 1_555 1_555
C13_6 N2_6 1_555 1_555
N1_10 H12_10 1_555 1_555
N1_10 H13_10 1_555 1_555
C14_6 H14_6 1_555 1_555
H5_6 C10_6 1_555 1_555
C1_11 C2_11 1_555 1_555
C2_11 C3_11 1_555 1_555
C3_11 H1_11 1_555 1_555
C4_11 C3_11 1_555 1_555
H2_11 C4_11 1_555 1_555
C5_11 C4_11 1_555 1_555
C6_11 C5_11 1_555 1_555
H3_11 C6_11 1_555 1_555
C7_11 C2_11 1_555 1_555
C8_11 C5_11 1_555 1_555
N1_11 C7_11 1_555 1_555
O1_11 C1_11 1_555 1_555
O2_11 C1_11 1_555 1_555
O5_4 C8_11 1_555 1_555
O4_6 C8_11 1_555 1_555
Cd3_4 O1_11 1_555 1_555
C9_7 H4_7 1_555 1_555
C10_7 C9_7 1_555 1_555
H5_7 C10_7 1_555 1_555
C11_7 C10_7 1_555 1_555
C12_7 C11_7 1_555 1_555
H6_7 C12_7 1_555 1_555
C13_7 C12_7 1_555 1_555
H7_7 C13_7 1_555 1_555
C14_7 C11_7 1_555 1_555
N2_7 Cd3_4 1_555 1_555
N3_7 C14_7 1_555 1_555
O5_3 Cd3_4 1_555 1_555
O7_6 Cd3_4 1_555 1_555
N6_4 Cd3_4 1_555 1_555
C6_11 C7_11 1_555 1_555
O2_11 Cd3_4 1_555 1_555
C9_7 N2_7 1_555 1_555
C13_7 N2_7 1_555 1_555
N1_11 H12_11 1_555 1_555
N1_11 H13_11 1_555 1_555
C14_7 H14_7 1_555 1_555
C15_7 H8_7 1_555 1_555
C16_7 C15_7 1_555 1_555
H9_7 C16_7 1_555 1_555
C17_7 C16_7 1_555 1_555
C18_7 C17_7 1_555 1_555
H10_7 C18_7 1_555 1_555
C19_7 C18_7 1_555 1_555
H11_7 C19_7 1_555 1_555
C20_7 C17_7 1_555 1_555
N6_4 C15_7 1_555 1_555
C19_7 N6_4 1_555 1_555
C20_7 N5_7 1_555 1_555
C20_7 H15_7 1_555 1_555
H9_8 C16_8 1_555 1_555
C18_8 C17_8 1_555 1_555
H10_8 C18_8 1_555 1_555
C19_8 C18_8 1_555 1_555
H11_8 C19_8 1_555 1_555
C20_8 C17_8 1_555 1_555
N4_4 C15_8 1_555 1_555
Cd3_3 N4_4 1_555 1_555
C19_8 N4_4 1_555 1_555
C20_8 N5_8 1_555 1_555
C20_8 H15_8 1_555 1_555
H5_8 C10_8 1_555 1_555
C1_12 C2_12 1_555 1_555
C2_12 C3_12 1_555 1_555
C3_12 H1_12 1_555 1_555
C4_12 C3_12 1_555 1_555
H2_12 C4_12 1_555 1_555
C5_12 C4_12 1_555 1_555
C6_12 C5_12 1_555 1_555
H3_12 C6_12 1_555 1_555
C7_12 C2_12 1_555 1_555
C8_12 C5_12 1_555 1_555
N1_12 C7_12 1_555 1_555
O1_12 C1_12 1_555 1_555
O2_12 C1_12 1_555 1_555
O5_3 C8_12 1_555 1_555
O7_6 C8_12 1_555 1_555
Cd3_3 O1_12 1_555 1_555
C12_8 C11_8 1_555 1_555
H6_8 C12_8 1_555 1_555
C13_8 C12_8 1_555 1_555
H7_8 C13_8 1_555 1_555
C14_8 C11_8 1_555 1_555
N2_8 Cd3_3 1_555 1_555
N3_8 C14_8 1_555 1_555
C6_12 C7_12 1_555 1_555
O2_12 Cd3_3 1_555 1_555
C9_8 N2_8 1_555 1_555
C13_8 N2_8 1_555 1_555
N1_12 H12_12 1_555 1_555
N1_12 H13_12 1_555 1_555
C14_8 H14_8 1_555 1_555

#END
