
###############################################################################
#
# This file contains modified crystal structure data generated from the
# MOF subset of the Cambridge Structural Database (CSD) v543 
# hosted by the Cambridge Crystallographic Data Centre (CCDC).
#
# This work is licensed under the Creative Commons
# Attribution-NonCommercial-ShareAlike 4.0 International License.
# To view a copy of this license, visit
# http://creativecommons.org/licenses/by-nc-sa/4.0/
# or send a letter to
# Creative Commons, PO Box 1866, Mountain View, CA 94042, USA.
#
# CIF created using the CSD Python API on 29 September 2022
# The structure has been converted into the P1 space group
# The structure has a 3D framework
# The original CSD entry LOFGOE is in the tetragonal crystal system
# The framework has been calculated to contain at least 10.0% void space
# The void calculation uses a probe of radius 1.32A, grid spacing 0.4
# The framework is charged, counterions have been retained in the structure
#
###############################################################################

data_LOFGOE
_chemical_formula_moiety         '(C192 H128 Cl29 Mn20 N96 18-)n'
_symmetry_cell_setting           triclinic
_symmetry_space_group_name_H-M   'P 1'
_symmetry_Int_Tables_number      1
_space_group_name_Hall           'P 1'
loop_
_symmetry_equiv_pos_site_id
_symmetry_equiv_pos_as_xyz
1 x,y,z
_cell_length_a                   21.312(10)
_cell_length_b                   21.312(10)
_cell_length_c                   16.548(3)
_cell_angle_alpha                90
_cell_angle_beta                 90
_cell_angle_gamma                90
_cell_volume                     7516.12
loop_
_atom_site_label
_atom_site_type_symbol
_atom_site_fract_x
_atom_site_fract_y
_atom_site_fract_z
Mn2 Mn 0.01895(7) 0.2500 0.1250
Cl1 Cl 0.0000 0.0000 0.0000
N1 N 0.1250(3) 0.0769(3) 0.0977(3)
N2 N 0.0810(2) 0.1208(3) 0.0834(3)
N3 N 0.0903(3) 0.1728(3) 0.1281(4)
C4 C 0.1716(4) 0.2009(5) 0.2305(6)
H4 H 0.1555 0.2400 0.2440
C6 C 0.2262(4) 0.1787(6) 0.2653(6)
H5 H 0.2487 0.2043 0.3004
C7 C 0.2484(4) 0.1171(5) 0.2481(6)
H6 H 0.2839 0.1025 0.2749
C9 C 0.1415(3) 0.1620(4) 0.1742(5)
C11 C 0.1641(4) 0.1027(4) 0.1546(4)
C12 C 0.2188(4) 0.0777(5) 0.1923(5)
H8 H 0.2338 0.0377 0.1805
Cl6 Cl 0.02228(8) 0.25999(7) 0.27737(10)
N25 N 0.0903(3) 0.3272(3) 0.1219(4)
Mn1 Mn 0.00928(4) 0.12472(4) 0.97941(5)
Cl1_2 Cl -0.0000 -0.0000 1.0000
Cl2 Cl 0.02228(8) 0.24001(7) 0.97263(10)
N4 N 0.0898(3) 0.1082(3) 0.8999(3)
N5 N 0.1283(3) 0.0592(3) 0.9156(3)
N6 N 0.1783(3) 0.0582(3) 0.8675(4)
C1 C 0.1966(5) 0.1857(5) 0.7153(7)
H1 H 0.2224 0.2017 0.6749
C2 C 0.1404(5) 0.2177(5) 0.7365(7)
H2 H 0.1304 0.2547 0.7097
C3 C 0.2132(4) 0.1305(4) 0.7548(5)
H3 H 0.2493 0.1085 0.7407
C5 C 0.1174(4) 0.1405(4) 0.8368(5)
C8 C 0.0997(5) 0.1955(4) 0.7961(6)
H7 H 0.0625 0.2162 0.8083
C10 C 0.1731(4) 0.1091(3) 0.8172(5)
N28 N 0.3217(3) 0.0582(3) 0.8825(4)
Cl1_3 Cl 0.0000 1.0000 0.0000
Mn3 Mn 0.12472(4) 0.99072(4) 0.02059(5)
Cl3 Cl 0.24001(7) 0.97772(8) 0.02737(10)
N10 N 0.1082(3) 0.9102(3) 0.1001(3)
N11 N 0.0592(3) 0.8717(3) 0.0844(3)
N12 N 0.0582(3) 0.8217(3) 0.1325(4)
C13 C 0.1857(5) 0.8034(5) 0.2847(7)
H9 H 0.2017 0.7776 0.3251
C14 C 0.2177(5) 0.8596(5) 0.2635(7)
H10 H 0.2547 0.8696 0.2903
C15 C 0.1305(4) 0.7868(4) 0.2452(5)
H11 H 0.1085 0.7507 0.2593
C17 C 0.1405(4) 0.8826(4) 0.1632(5)
C20 C 0.1955(4) 0.9003(5) 0.2039(6)
H15 H 0.2162 0.9375 0.1917
C22 C 0.1091(3) 0.8269(4) 0.1828(5)
Cl1_4 Cl -0.0000 1.0000 1.0000
Mn4 Mn 0.2500 0.98105(7) 0.8750
N7 N 0.0769(3) 0.8750(3) 0.9023(3)
N8 N 0.1208(3) 0.9190(2) 0.9166(3)
N9 N 0.1728(3) 0.9097(3) 0.8719(4)
C16 C 0.2009(5) 0.8284(4) 0.7695(6)
H12 H 0.2400 0.8445 0.7560
C18 C 0.1787(6) 0.7738(4) 0.7347(6)
H13 H 0.2043 0.7513 0.6996
C19 C 0.1171(5) 0.7516(4) 0.7519(6)
H14 H 0.1025 0.7161 0.7251
C21 C 0.1620(4) 0.8585(3) 0.8258(5)
C23 C 0.1027(4) 0.8359(4) 0.8454(4)
C24 C 0.0777(5) 0.7812(4) 0.8077(5)
H16 H 0.0377 0.7662 0.8195
Cl7 Cl 0.25999(7) 0.97772(8) 0.72263(10)
N26 N 0.3272(3) 0.9097(3) 0.8781(4)
Cl1_5 Cl 1.0000 0.0000 0.0000
Mn6 Mn 0.87528(4) 0.00928(4) 0.02059(5)
Cl5 Cl 0.75999(7) 0.02228(8) 0.02737(10)
N22 N 0.8918(3) 0.0898(3) 0.1001(3)
N23 N 0.9408(3) 0.1283(3) 0.0844(3)
N24 N 0.9418(3) 0.1783(3) 0.1325(4)
C37 C 0.8143(5) 0.1966(5) 0.2847(7)
H25 H 0.7983 0.2224 0.3251
C38 C 0.7823(5) 0.1404(5) 0.2635(7)
H26 H 0.7453 0.1304 0.2903
C39 C 0.8695(4) 0.2132(4) 0.2452(5)
H27 H 0.8915 0.2493 0.2593
C41 C 0.8595(4) 0.1174(4) 0.1632(5)
C44 C 0.8045(4) 0.0997(5) 0.2039(6)
H31 H 0.7838 0.0625 0.1917
C46 C 0.8909(3) 0.1731(4) 0.1828(5)
N27 N 0.9418(3) 0.3217(3) 0.1175(4)
Cl1_6 Cl 1.0000 -0.0000 1.0000
N19 N 0.9231(3) 0.1250(3) 0.9023(3)
N20 N 0.8792(3) 0.0810(2) 0.9166(3)
N21 N 0.8272(3) 0.0903(3) 0.8719(4)
C40 C 0.7991(5) 0.1716(4) 0.7695(6)
H28 H 0.7600 0.1555 0.7560
C42 C 0.8213(6) 0.2262(4) 0.7347(6)
H29 H 0.7957 0.2487 0.6996
C43 C 0.8829(5) 0.2484(4) 0.7519(6)
H30 H 0.8975 0.2839 0.7251
C45 C 0.8380(4) 0.1415(3) 0.8258(5)
C47 C 0.8973(4) 0.1641(4) 0.8454(4)
C48 C 0.9223(5) 0.2188(4) 0.8077(5)
H32 H 0.9623 0.2338 0.8195
Mn8 Mn 0.7500 0.01895(7) 0.8750
Cl1_7 Cl 1.0000 1.0000 0.0000
N13 N 0.8750(3) 0.9231(3) 0.0977(3)
N14 N 0.9190(2) 0.8792(3) 0.0834(3)
N15 N 0.9097(3) 0.8272(3) 0.1281(4)
C28 C 0.8284(4) 0.7991(5) 0.2305(6)
H20 H 0.8445 0.7600 0.2440
C30 C 0.7738(4) 0.8213(6) 0.2653(6)
H21 H 0.7513 0.7957 0.3004
C31 C 0.7516(4) 0.8829(5) 0.2481(6)
H22 H 0.7161 0.8975 0.2749
C33 C 0.8585(3) 0.8380(4) 0.1742(5)
C35 C 0.8359(4) 0.8973(4) 0.1546(4)
C36 C 0.7812(4) 0.9223(5) 0.1923(5)
H24 H 0.7662 0.9623 0.1805
Mn7 Mn 0.98105(7) 0.7500 0.1250
Cl1_8 Cl 1.0000 1.0000 1.0000
Mn5 Mn 0.99072(4) 0.87528(4) 0.97941(5)
Cl4 Cl 0.97772(8) 0.75999(7) 0.97263(10)
N16 N 0.9102(3) 0.8918(3) 0.8999(3)
N17 N 0.8717(3) 0.9408(3) 0.9156(3)
N18 N 0.8217(3) 0.9418(3) 0.8675(4)
C25 C 0.8034(5) 0.8143(5) 0.7153(7)
H17 H 0.7776 0.7983 0.6749
C26 C 0.8596(5) 0.7823(5) 0.7365(7)
H18 H 0.8696 0.7453 0.7097
C27 C 0.7868(4) 0.8695(4) 0.7548(5)
H19 H 0.7507 0.8915 0.7407
C29 C 0.8826(4) 0.8595(4) 0.8368(5)
C32 C 0.9003(5) 0.8045(4) 0.7961(6)
H23 H 0.9375 0.7838 0.8083
C34 C 0.8269(4) 0.8909(3) 0.8172(5)
N28_2 N 0.0582(3) 0.6783(3) 0.1175(4)
Cl7_2 Cl 0.97772(8) 0.74001(7) 0.27737(10)
N26_2 N 0.9097(3) 0.6728(3) 0.1219(4)
Cl7_3 Cl 0.74001(7) 0.02228(8) 0.72263(10)
N26_3 N 0.6728(3) 0.0903(3) 0.8781(4)
N28_3 N 0.6783(3) 0.9418(3) 0.8825(4)
Mn1_2 Mn 0.00928(4) 0.37528(4) 0.27059(5)
Cl1_9 Cl -0.0000 0.5000 0.2500
N1_2 N 0.1250(3) 0.4231(3) 0.1523(3)
N2_2 N 0.0810(2) 0.3792(3) 0.1666(3)
N4_2 N 0.0898(3) 0.3918(3) 0.3501(3)
N5_2 N 0.1283(3) 0.4408(3) 0.3344(3)
N6_2 N 0.1783(3) 0.4418(3) 0.3825(4)
C1_2 C 0.1966(5) 0.3143(5) 0.5347(7)
H1_2 H 0.2224 0.2983 0.5751
C2_2 C 0.1404(5) 0.2823(5) 0.5135(7)
H2_2 H 0.1304 0.2453 0.5403
C3_2 C 0.2132(4) 0.3695(4) 0.4952(5)
H3_2 H 0.2493 0.3915 0.5093
C4_2 C 0.1716(4) 0.2991(5) 0.0195(6)
H4_2 H 0.1555 0.2600 0.0060
C5_2 C 0.1174(4) 0.3595(4) 0.4132(5)
C7_2 C 0.2484(4) 0.3829(5) 0.0019(6)
C8_2 C 0.0997(5) 0.3045(4) 0.4539(6)
H7_2 H 0.0625 0.2838 0.4417
C9_2 C 0.1415(3) 0.3380(4) 0.0758(5)
C10_2 C 0.1731(4) 0.3909(3) 0.4328(5)
C11_2 C 0.1641(4) 0.3973(4) 0.0954(4)
C12_2 C 0.2188(4) 0.4223(5) 0.0577(5)
H8_2 H 0.2338 0.4623 0.0695
Mn3_2 Mn 0.12472(4) 0.50928(4) 0.22941(5)
Mn4_2 Mn 0.2500 0.51895(7) 0.3750
Cl3_2 Cl 0.24001(7) 0.52228(8) 0.22263(10)
N7_2 N 0.0769(3) 0.6250(3) 0.3477(3)
N8_2 N 0.1208(3) 0.5810(2) 0.3334(3)
N9_2 N 0.1728(3) 0.5903(3) 0.3781(4)
N10_2 N 0.1082(3) 0.5898(3) 0.1499(3)
N11_2 N 0.0592(3) 0.6283(3) 0.1656(3)
C15_2 C 0.1305(4) 0.7132(4) 0.0048(5)
C16_2 C 0.2009(5) 0.6716(4) 0.4805(6)
H12_2 H 0.2400 0.6555 0.4940
C17_2 C 0.1405(4) 0.6174(4) 0.0868(5)
C18_2 C 0.1787(6) 0.7262(4) 0.5153(6)
H13_2 H 0.2043 0.7487 0.5504
C19_2 C 0.1171(5) 0.7484(4) 0.4981(6)
H14_2 H 0.1025 0.7839 0.5249
C20_2 C 0.1955(4) 0.5997(5) 0.0461(6)
H15_2 H 0.2162 0.5625 0.0583
C21_2 C 0.1620(4) 0.6415(3) 0.4242(5)
C22_2 C 0.1091(3) 0.6731(4) 0.0672(5)
C23_2 C 0.1027(4) 0.6641(4) 0.4046(4)
C24_2 C 0.0777(5) 0.7188(4) 0.4423(5)
H16_2 H 0.0377 0.7338 0.4305
Cl7_4 Cl 0.25999(7) 0.52228(8) 0.52737(10)
N26_4 N 0.3272(3) 0.5903(3) 0.3719(4)
N28_4 N 0.3217(3) 0.4418(3) 0.3675(4)
C6_2 C 0.2262(4) 0.3213(6) 0.9847(6)
H5_2 H 0.2487 0.2957 0.9496
H6_2 H 0.2839 0.3975 0.9751
C13_2 C 0.1857(5) 0.6966(5) 0.9653(7)
H9_2 H 0.2017 0.7224 0.9249
C14_2 C 0.2177(5) 0.6404(5) 0.9865(7)
H10_2 H 0.2547 0.6304 0.9597
H11_2 H 0.1085 0.7493 0.9907
Cl1_10 Cl 1.0000 0.5000 0.2500
Mn5_2 Mn 0.99072(4) 0.62472(4) 0.27059(5)
N13_2 N 0.8750(3) 0.5769(3) 0.1523(3)
N14_2 N 0.9190(2) 0.6208(3) 0.1666(3)
N16_2 N 0.9102(3) 0.6082(3) 0.3501(3)
N17_2 N 0.8717(3) 0.5592(3) 0.3344(3)
N18_2 N 0.8217(3) 0.5582(3) 0.3825(4)
C25_2 C 0.8034(5) 0.6857(5) 0.5347(7)
H17_2 H 0.7776 0.7017 0.5751
C26_2 C 0.8596(5) 0.7177(5) 0.5135(7)
H18_2 H 0.8696 0.7547 0.5403
C27_2 C 0.7868(4) 0.6305(4) 0.4952(5)
H19_2 H 0.7507 0.6085 0.5093
C28_2 C 0.8284(4) 0.7009(5) 0.0195(6)
H20_2 H 0.8445 0.7400 0.0060
C29_2 C 0.8826(4) 0.6405(4) 0.4132(5)
C31_2 C 0.7516(4) 0.6171(5) 0.0019(6)
C32_2 C 0.9003(5) 0.6955(4) 0.4539(6)
H23_2 H 0.9375 0.7162 0.4417
C33_2 C 0.8585(3) 0.6620(4) 0.0758(5)
C34_2 C 0.8269(4) 0.6091(3) 0.4328(5)
C35_2 C 0.8359(4) 0.6027(4) 0.0954(4)
C36_2 C 0.7812(4) 0.5777(5) 0.0577(5)
H24_2 H 0.7662 0.5377 0.0695
Mn6_2 Mn 0.87528(4) 0.49072(4) 0.22941(5)
Cl5_2 Cl 0.75999(7) 0.47772(8) 0.22263(10)
N19_2 N 0.9231(3) 0.3750(3) 0.3477(3)
N20_2 N 0.8792(3) 0.4190(2) 0.3334(3)
N21_2 N 0.8272(3) 0.4097(3) 0.3781(4)
N22_2 N 0.8918(3) 0.4102(3) 0.1499(3)
N23_2 N 0.9408(3) 0.3717(3) 0.1656(3)
C39_2 C 0.8695(4) 0.2868(4) 0.0048(5)
C40_2 C 0.7991(5) 0.3284(4) 0.4805(6)
H28_2 H 0.7600 0.3445 0.4940
C41_2 C 0.8595(4) 0.3826(4) 0.0868(5)
C42_2 C 0.8213(6) 0.2738(4) 0.5153(6)
H29_2 H 0.7957 0.2513 0.5504
C43_2 C 0.8829(5) 0.2516(4) 0.4981(6)
H30_2 H 0.8975 0.2161 0.5249
C44_2 C 0.8045(4) 0.4003(5) 0.0461(6)
H31_2 H 0.7838 0.4375 0.0583
C45_2 C 0.8380(4) 0.3585(3) 0.4242(5)
C46_2 C 0.8909(3) 0.3269(4) 0.0672(5)
C47_2 C 0.8973(4) 0.3359(4) 0.4046(4)
C48_2 C 0.9223(5) 0.2812(4) 0.4423(5)
H32_2 H 0.9623 0.2662 0.4305
Mn8_2 Mn 0.7500 0.48105(7) 0.3750
C30_2 C 0.7738(4) 0.6787(6) 0.9847(6)
H21_2 H 0.7513 0.7043 0.9496
H22_2 H 0.7161 0.6025 0.9751
C37_2 C 0.8143(5) 0.3034(5) 0.9653(7)
H25_2 H 0.7983 0.2776 0.9249
C38_2 C 0.7823(5) 0.3596(5) 0.9865(7)
H26_2 H 0.7453 0.3696 0.9597
H27_2 H 0.8915 0.2507 0.9907
C30_3 C 0.6787(6) 0.2262(4) 0.0153(6)
H21_3 H 0.7043 0.2487 0.0504
H22_3 H 0.6025 0.2839 0.0249
C37_3 C 0.3034(5) 0.1857(5) 0.0347(7)
H25_3 H 0.2776 0.2017 0.0751
C38_3 C 0.3596(5) 0.2177(5) 0.0135(7)
H26_3 H 0.3696 0.2547 0.0403
H27_3 H 0.2507 0.1085 0.0093
Cl1_11 Cl 0.5000 0.0000 0.7500
Mn5_3 Mn 0.62472(4) 0.00928(4) 0.72941(5)
N13_3 N 0.5769(3) 0.1250(3) 0.8477(3)
N14_3 N 0.6208(3) 0.0810(2) 0.8334(3)
N16_3 N 0.6082(3) 0.0898(3) 0.6499(3)
N17_3 N 0.5592(3) 0.1283(3) 0.6656(3)
N18_3 N 0.5582(3) 0.1783(3) 0.6175(4)
C25_3 C 0.6857(5) 0.1966(5) 0.4653(7)
H17_3 H 0.7017 0.2224 0.4249
C26_3 C 0.7177(5) 0.1404(5) 0.4865(7)
H18_3 H 0.7547 0.1304 0.4597
C27_3 C 0.6305(4) 0.2132(4) 0.5048(5)
H19_3 H 0.6085 0.2493 0.4907
C28_3 C 0.7009(5) 0.1716(4) 0.9805(6)
H20_3 H 0.7400 0.1555 0.9940
C29_3 C 0.6405(4) 0.1174(4) 0.5868(5)
C31_3 C 0.6171(5) 0.2484(4) 0.9981(6)
C32_3 C 0.6955(4) 0.0997(5) 0.5461(6)
H23_3 H 0.7162 0.0625 0.5583
C33_3 C 0.6620(4) 0.1415(3) 0.9242(5)
C34_3 C 0.6091(3) 0.1731(4) 0.5672(5)
C35_3 C 0.6027(4) 0.1641(4) 0.9046(4)
C36_3 C 0.5777(5) 0.2188(4) 0.9423(5)
H24_3 H 0.5377 0.2338 0.9305
Mn6_3 Mn 0.49072(4) 0.12472(4) 0.77059(5)
Cl5_3 Cl 0.47772(8) 0.24001(7) 0.77737(10)
N19_3 N 0.3750(3) 0.0769(3) 0.6523(3)
N20_3 N 0.4190(2) 0.1208(3) 0.6666(3)
N21_3 N 0.4097(3) 0.1728(3) 0.6219(4)
N22_3 N 0.4102(3) 0.1082(3) 0.8501(3)
N23_3 N 0.3717(3) 0.0592(3) 0.8344(3)
C39_3 C 0.2868(4) 0.1305(4) 0.9952(5)
C40_3 C 0.3284(4) 0.2009(5) 0.5195(6)
H28_3 H 0.3445 0.2400 0.5060
C41_3 C 0.3826(4) 0.1405(4) 0.9132(5)
C42_3 C 0.2738(4) 0.1787(6) 0.4847(6)
H29_3 H 0.2513 0.2043 0.4496
C43_3 C 0.2516(4) 0.1171(5) 0.5019(6)
H30_3 H 0.2161 0.1025 0.4751
C44_3 C 0.4003(5) 0.1955(4) 0.9539(6)
H31_3 H 0.4375 0.2162 0.9417
C45_3 C 0.3585(3) 0.1620(4) 0.5758(5)
C46_3 C 0.3269(4) 0.1091(3) 0.9328(5)
C47_3 C 0.3359(4) 0.1027(4) 0.5954(4)
C48_3 C 0.2812(4) 0.0777(5) 0.5577(5)
H32_3 H 0.2662 0.0377 0.5695
Mn8_3 Mn 0.48105(7) 0.2500 0.6250
C6_3 C 0.3213(6) 0.7738(4) 0.0153(6)
H5_3 H 0.2957 0.7513 0.0504
H6_3 H 0.3975 0.7161 0.0249
C13_3 C 0.6966(5) 0.8143(5) 0.0347(7)
H9_3 H 0.7224 0.7983 0.0751
C14_3 C 0.6404(5) 0.7823(5) 0.0135(7)
H10_3 H 0.6304 0.7453 0.0403
H11_3 H 0.7493 0.8915 0.0093
Mn1_3 Mn 0.37528(4) 0.99072(4) 0.72941(5)
Cl1_12 Cl 0.5000 1.0000 0.7500
N1_3 N 0.4231(3) 0.8750(3) 0.8477(3)
N2_3 N 0.3792(3) 0.9190(2) 0.8334(3)
N4_3 N 0.3918(3) 0.9102(3) 0.6499(3)
N5_3 N 0.4408(3) 0.8717(3) 0.6656(3)
N6_3 N 0.4418(3) 0.8217(3) 0.6175(4)
C1_3 C 0.3143(5) 0.8034(5) 0.4653(7)
H1_3 H 0.2983 0.7776 0.4249
C2_3 C 0.2823(5) 0.8596(5) 0.4865(7)
H2_3 H 0.2453 0.8696 0.4597
C3_3 C 0.3695(4) 0.7868(4) 0.5048(5)
H3_3 H 0.3915 0.7507 0.4907
C4_3 C 0.2991(5) 0.8284(4) 0.9805(6)
H4_3 H 0.2600 0.8445 0.9940
C5_3 C 0.3595(4) 0.8826(4) 0.5868(5)
C7_3 C 0.3829(5) 0.7516(4) 0.9981(6)
C8_3 C 0.3045(4) 0.9003(5) 0.5461(6)
H7_3 H 0.2838 0.9375 0.5583
C9_3 C 0.3380(4) 0.8585(3) 0.9242(5)
C10_3 C 0.3909(3) 0.8269(4) 0.5672(5)
C11_3 C 0.3973(4) 0.8359(4) 0.9046(4)
C12_3 C 0.4223(5) 0.7812(4) 0.9423(5)
H8_3 H 0.4623 0.7662 0.9305
Mn3_3 Mn 0.50928(4) 0.87528(4) 0.77059(5)
Mn4_3 Mn 0.51895(7) 0.7500 0.6250
Cl3_3 Cl 0.52228(8) 0.75999(7) 0.77737(10)
N7_3 N 0.6250(3) 0.9231(3) 0.6523(3)
N8_3 N 0.5810(2) 0.8792(3) 0.6666(3)
N9_3 N 0.5903(3) 0.8272(3) 0.6219(4)
N10_3 N 0.5898(3) 0.8918(3) 0.8501(3)
N11_3 N 0.6283(3) 0.9408(3) 0.8344(3)
C15_3 C 0.7132(4) 0.8695(4) 0.9952(5)
C16_3 C 0.6716(4) 0.7991(5) 0.5195(6)
H12_3 H 0.6555 0.7600 0.5060
C17_3 C 0.6174(4) 0.8595(4) 0.9132(5)
C18_3 C 0.7262(4) 0.8213(6) 0.4847(6)
H13_3 H 0.7487 0.7957 0.4496
C19_3 C 0.7484(4) 0.8829(5) 0.5019(6)
H14_3 H 0.7839 0.8975 0.4751
C20_3 C 0.5997(5) 0.8045(4) 0.9539(6)
H15_3 H 0.5625 0.7838 0.9417
C21_3 C 0.6415(3) 0.8380(4) 0.5758(5)
C22_3 C 0.6731(4) 0.8909(3) 0.9328(5)
C23_3 C 0.6641(4) 0.8973(4) 0.5954(4)
C24_3 C 0.7188(4) 0.9223(5) 0.5577(5)
H16_3 H 0.7338 0.9623 0.5695
Cl7_5 Cl 0.52228(8) 0.74001(7) 0.47263(10)
N26_5 N 0.5903(3) 0.6728(3) 0.6281(4)
N28_5 N 0.4418(3) 0.6783(3) 0.6325(4)
Cl7_6 Cl 0.74001(7) 0.47772(8) 0.52737(10)
N26_6 N 0.6728(3) 0.4097(3) 0.3719(4)
N28_6 N 0.6783(3) 0.5582(3) 0.3675(4)
Cl7_7 Cl 0.47772(8) 0.25999(7) 0.47263(10)
N26_7 N 0.4097(3) 0.3272(3) 0.6281(4)
N28_7 N 0.5582(3) 0.3217(3) 0.6325(4)
Mn1_4 Mn 0.50928(4) 0.62472(4) 0.47941(5)
Cl1_13 Cl 0.5000 0.5000 0.5000
N1_4 N 0.6250(3) 0.5769(3) 0.5977(3)
N2_4 N 0.5810(2) 0.6208(3) 0.5834(3)
N4_4 N 0.5898(3) 0.6082(3) 0.3999(3)
N5_4 N 0.6283(3) 0.5592(3) 0.4156(3)
C1_4 C 0.6966(5) 0.6857(5) 0.2153(7)
H1_4 H 0.7224 0.7017 0.1749
C2_4 C 0.6404(5) 0.7177(5) 0.2365(7)
H2_4 H 0.6304 0.7547 0.2097
C3_4 C 0.7132(4) 0.6305(4) 0.2548(5)
H3_4 H 0.7493 0.6085 0.2407
C4_4 C 0.6716(4) 0.7009(5) 0.7305(6)
H4_4 H 0.6555 0.7400 0.7440
C5_4 C 0.6174(4) 0.6405(4) 0.3368(5)
C6_4 C 0.7262(4) 0.6787(6) 0.7653(6)
H5_4 H 0.7487 0.7043 0.8004
C7_4 C 0.7484(4) 0.6171(5) 0.7481(6)
H6_4 H 0.7839 0.6025 0.7749
C8_4 C 0.5997(5) 0.6955(4) 0.2961(6)
H7_4 H 0.5625 0.7162 0.3083
C9_4 C 0.6415(3) 0.6620(4) 0.6742(5)
C10_4 C 0.6731(4) 0.6091(3) 0.3172(5)
C11_4 C 0.6641(4) 0.6027(4) 0.6546(4)
C12_4 C 0.7188(4) 0.5777(5) 0.6923(5)
H8_4 H 0.7338 0.5377 0.6805
Mn3_4 Mn 0.62472(4) 0.49072(4) 0.52059(5)
N7_4 N 0.5769(3) 0.3750(3) 0.4023(3)
N8_4 N 0.6208(3) 0.4190(2) 0.4166(3)
N10_4 N 0.6082(3) 0.4102(3) 0.6001(3)
N11_4 N 0.5592(3) 0.3717(3) 0.5844(3)
C13_4 C 0.6857(5) 0.3034(5) 0.7847(7)
H9_4 H 0.7017 0.2776 0.8251
C14_4 C 0.7177(5) 0.3596(5) 0.7635(7)
H10_4 H 0.7547 0.3696 0.7903
C15_4 C 0.6305(4) 0.2868(4) 0.7452(5)
H11_4 H 0.6085 0.2507 0.7593
C16_4 C 0.7009(5) 0.3284(4) 0.2695(6)
H12_4 H 0.7400 0.3445 0.2560
C17_4 C 0.6405(4) 0.3826(4) 0.6632(5)
C18_4 C 0.6787(6) 0.2738(4) 0.2347(6)
H13_4 H 0.7043 0.2513 0.1996
C19_4 C 0.6171(5) 0.2516(4) 0.2519(6)
H14_4 H 0.6025 0.2161 0.2251
C20_4 C 0.6955(4) 0.4003(5) 0.7039(6)
H15_4 H 0.7162 0.4375 0.6917
C21_4 C 0.6620(4) 0.3585(3) 0.3258(5)
C22_4 C 0.6091(3) 0.3269(4) 0.6828(5)
C23_4 C 0.6027(4) 0.3359(4) 0.3454(4)
C24_4 C 0.5777(5) 0.2812(4) 0.3077(5)
H16_4 H 0.5377 0.2662 0.3195
Mn5_4 Mn 0.49072(4) 0.37528(4) 0.47941(5)
N13_4 N 0.3750(3) 0.4231(3) 0.5977(3)
N14_4 N 0.4190(2) 0.3792(3) 0.5834(3)
N16_4 N 0.4102(3) 0.3918(3) 0.3999(3)
N17_4 N 0.3717(3) 0.4408(3) 0.4156(3)
C25_4 C 0.3034(5) 0.3143(5) 0.2153(7)
H17_4 H 0.2776 0.2983 0.1749
C26_4 C 0.3596(5) 0.2823(5) 0.2365(7)
H18_4 H 0.3696 0.2453 0.2097
C27_4 C 0.2868(4) 0.3695(4) 0.2548(5)
H19_4 H 0.2507 0.3915 0.2407
C28_4 C 0.3284(4) 0.2991(5) 0.7305(6)
H20_4 H 0.3445 0.2600 0.7440
C29_4 C 0.3826(4) 0.3595(4) 0.3368(5)
C30_4 C 0.2738(4) 0.3213(6) 0.7653(6)
H21_4 H 0.2513 0.2957 0.8004
C31_4 C 0.2516(4) 0.3829(5) 0.7481(6)
H22_4 H 0.2161 0.3975 0.7749
C32_4 C 0.4003(5) 0.3045(4) 0.2961(6)
H23_4 H 0.4375 0.2838 0.3083
C33_4 C 0.3585(3) 0.3380(4) 0.6742(5)
C34_4 C 0.3269(4) 0.3909(3) 0.3172(5)
C35_4 C 0.3359(4) 0.3973(4) 0.6546(4)
C36_4 C 0.2812(4) 0.4223(5) 0.6923(5)
H24_4 H 0.2662 0.4623 0.6805
Mn6_4 Mn 0.37528(4) 0.50928(4) 0.52059(5)
N19_4 N 0.4231(3) 0.6250(3) 0.4023(3)
N20_4 N 0.3792(3) 0.5810(2) 0.4166(3)
N22_4 N 0.3918(3) 0.5898(3) 0.6001(3)
N23_4 N 0.4408(3) 0.6283(3) 0.5844(3)
C37_4 C 0.3143(5) 0.6966(5) 0.7847(7)
H25_4 H 0.2983 0.7224 0.8251
C38_4 C 0.2823(5) 0.6404(5) 0.7635(7)
H26_4 H 0.2453 0.6304 0.7903
C39_4 C 0.3695(4) 0.7132(4) 0.7452(5)
H27_4 H 0.3915 0.7493 0.7593
C40_4 C 0.2991(5) 0.6716(4) 0.2695(6)
H28_4 H 0.2600 0.6555 0.2560
C41_4 C 0.3595(4) 0.6174(4) 0.6632(5)
C42_4 C 0.3213(6) 0.7262(4) 0.2347(6)
H29_4 H 0.2957 0.7487 0.1996
C43_4 C 0.3829(5) 0.7484(4) 0.2519(6)
H30_4 H 0.3975 0.7839 0.2251
C44_4 C 0.3045(4) 0.5997(5) 0.7039(6)
H31_4 H 0.2838 0.5625 0.6917
C45_4 C 0.3380(4) 0.6415(3) 0.3258(5)
C46_4 C 0.3909(3) 0.6731(4) 0.6828(5)
C47_4 C 0.3973(4) 0.6641(4) 0.3454(4)
C48_4 C 0.4223(5) 0.7188(4) 0.3077(5)
H32_4 H 0.4623 0.7338 0.3195
loop_
_geom_bond_atom_site_label_1
_geom_bond_atom_site_label_2
_geom_bond_site_symmetry_1
_geom_bond_site_symmetry_2
N1 N2 1_555 1_555
N3 Mn2 1_555 1_555
C4 H4 1_555 1_555
C6 C4 1_555 1_555
H5 C6 1_555 1_555
C7 C6 1_555 1_555
H6 C7 1_555 1_555
C9 N3 1_555 1_555
C11 N1 1_555 1_555
C12 C7 1_555 1_555
H8 C12 1_555 1_555
Cl6 Mn2 1_555 1_555
N25 Mn2 1_555 1_555
N2 N3 1_555 1_555
C4 C9 1_555 1_555
C9 C11 1_555 1_555
C11 C12 1_555 1_555
Mn1 Cl1_2 1_555 1_555
Cl2 Mn1 1_555 1_555
N4 Mn1 1_555 1_555
N5 N4 1_555 1_555
N6 N5 1_555 1_555
C1 H1 1_555 1_555
C2 C1 1_555 1_555
H2 C2 1_555 1_555
C3 C1 1_555 1_555
H3 C3 1_555 1_555
C5 N4 1_555 1_555
C8 C2 1_555 1_555
H7 C8 1_555 1_555
C10 N6 1_555 1_555
C3 C10 1_555 1_555
C5 C8 1_555 1_555
C5 C10 1_555 1_555
Cl1_3 Mn3 1_555 1_555
Cl3 Mn3 1_555 1_555
N10 Mn3 1_555 1_555
N11 N10 1_555 1_555
N12 N11 1_555 1_555
C13 H9 1_555 1_555
C14 C13 1_555 1_555
H10 C14 1_555 1_555
C15 C13 1_555 1_555
H11 C15 1_555 1_555
C17 N10 1_555 1_555
C20 C14 1_555 1_555
H15 C20 1_555 1_555
C22 N12 1_555 1_555
C15 C22 1_555 1_555
C17 C20 1_555 1_555
C17 C22 1_555 1_555
N7 N8 1_555 1_555
N9 Mn4 1_555 1_555
C16 H12 1_555 1_555
C18 C16 1_555 1_555
H13 C18 1_555 1_555
C19 C18 1_555 1_555
H14 C19 1_555 1_555
C21 N9 1_555 1_555
C23 N7 1_555 1_555
C24 C19 1_555 1_555
H16 C24 1_555 1_555
Cl7 Mn4 1_555 1_555
N26 Mn4 1_555 1_555
N8 N9 1_555 1_555
C16 C21 1_555 1_555
C21 C23 1_555 1_555
C23 C24 1_555 1_555
Mn6 Cl1_5 1_555 1_555
Cl5 Mn6 1_555 1_555
N22 Mn6 1_555 1_555
C37 H25 1_555 1_555
C38 C37 1_555 1_555
H26 C38 1_555 1_555
C39 C37 1_555 1_555
H27 C39 1_555 1_555
C41 N22 1_555 1_555
C44 C38 1_555 1_555
H31 C44 1_555 1_555
C46 N24 1_555 1_555
N22 N23 1_555 1_555
N23 N24 1_555 1_555
C39 C46 1_555 1_555
C41 C44 1_555 1_555
C41 C46 1_555 1_555
N21 N20 1_555 1_555
C40 H28 1_555 1_555
C42 C40 1_555 1_555
H29 C42 1_555 1_555
C43 C42 1_555 1_555
H30 C43 1_555 1_555
C45 N21 1_555 1_555
C47 N19 1_555 1_555
C48 C43 1_555 1_555
H32 C48 1_555 1_555
N19 N20 1_555 1_555
N21 Mn8 1_555 1_555
C40 C45 1_555 1_555
C45 C47 1_555 1_555
C47 C48 1_555 1_555
N13 N14 1_555 1_555
N15 N14 1_555 1_555
C28 H20 1_555 1_555
C30 C28 1_555 1_555
H21 C30 1_555 1_555
C31 C30 1_555 1_555
H22 C31 1_555 1_555
C33 N15 1_555 1_555
C35 N13 1_555 1_555
C36 C31 1_555 1_555
H24 C36 1_555 1_555
N15 Mn7 1_555 1_555
C28 C33 1_555 1_555
C33 C35 1_555 1_555
C35 C36 1_555 1_555
Mn5 Cl1_8 1_555 1_555
Cl4 Mn5 1_555 1_555
N16 Mn5 1_555 1_555
N17 N16 1_555 1_555
N18 N17 1_555 1_555
C25 H17 1_555 1_555
C26 C25 1_555 1_555
H18 C26 1_555 1_555
C27 C25 1_555 1_555
H19 C27 1_555 1_555
C29 N16 1_555 1_555
C32 C26 1_555 1_555
H23 C32 1_555 1_555
C34 N18 1_555 1_555
C27 C34 1_555 1_555
C29 C32 1_555 1_555
C29 C34 1_555 1_555
Cl7_2 Mn7 1_555 1_555
N26_2 Mn7 1_555 1_555
Cl7_3 Mn8 1_555 1_555
N26_3 Mn8 1_555 1_555
Mn1_2 Cl1_9 1_555 1_555
Cl1_9 Mn3_2 1_555 1_555
Cl6 Mn1_2 1_555 1_555
N1_2 N2_2 1_555 1_555
N2_2 Mn1_2 1_555 1_555
N4_2 Mn1_2 1_555 1_555
N5_2 N4_2 1_555 1_555
N6_2 N5_2 1_555 1_555
C1_2 H1_2 1_555 1_555
C2_2 C1_2 1_555 1_555
H2_2 C2_2 1_555 1_555
C3_2 C1_2 1_555 1_555
H3_2 C3_2 1_555 1_555
C4_2 H4_2 1_555 1_555
C5_2 N4_2 1_555 1_555
C8_2 C2_2 1_555 1_555
H7_2 C8_2 1_555 1_555
C9_2 N25 1_555 1_555
C10_2 N6_2 1_555 1_555
C11_2 N1_2 1_555 1_555
C12_2 C7_2 1_555 1_555
H8_2 C12_2 1_555 1_555
Mn3_2 N1_2 1_555 1_555
Mn4_2 N6_2 1_555 1_555
Cl3_2 Mn3_2 1_555 1_555
N7_2 N8_2 1_555 1_555
N8_2 Mn3_2 1_555 1_555
N9_2 Mn4_2 1_555 1_555
N10_2 Mn3_2 1_555 1_555
N11_2 N10_2 1_555 1_555
N28_2 N11_2 1_555 1_555
C16_2 H12_2 1_555 1_555
C17_2 N10_2 1_555 1_555
C18_2 C16_2 1_555 1_555
H13_2 C18_2 1_555 1_555
C19_2 C18_2 1_555 1_555
H14_2 C19_2 1_555 1_555
H15_2 C20_2 1_555 1_555
C21_2 N9_2 1_555 1_555
C22_2 N28_2 1_555 1_555
C23_2 N7_2 1_555 1_555
C24_2 C19_2 1_555 1_555
H16_2 C24_2 1_555 1_555
Cl7_4 Mn4_2 1_555 1_555
N26_4 Mn4_2 1_555 1_555
N28_4 Mn4_2 1_555 1_555
N2_2 N25 1_555 1_555
N5_2 Mn3_2 1_555 1_555
C3_2 C10_2 1_555 1_555
C4_2 C9_2 1_555 1_555
C5_2 C8_2 1_555 1_555
C5_2 C10_2 1_555 1_555
C9_2 C11_2 1_555 1_555
C11_2 C12_2 1_555 1_555
Mn4_2 Cl3_2 1_555 1_555
N8_2 N9_2 1_555 1_555
C15_2 C22_2 1_555 1_555
C16_2 C21_2 1_555 1_555
C17_2 C20_2 1_555 1_555
C17_2 C22_2 1_555 1_555
C21_2 C23_2 1_555 1_555
C23_2 C24_2 1_555 1_555
H5_2 C6_2 1_555 1_555
C13_2 H9_2 1_555 1_555
C14_2 C13_2 1_555 1_555
H10_2 C14_2 1_555 1_555
Mn5_2 Cl1_10 1_555 1_555
Cl7_2 Mn5_2 1_555 1_555
N13_2 N14_2 1_555 1_555
N14_2 Mn5_2 1_555 1_555
N26_2 N14_2 1_555 1_555
N16_2 Mn5_2 1_555 1_555
N17_2 N16_2 1_555 1_555
N18_2 N17_2 1_555 1_555
C25_2 H17_2 1_555 1_555
C26_2 C25_2 1_555 1_555
H18_2 C26_2 1_555 1_555
C27_2 C25_2 1_555 1_555
H19_2 C27_2 1_555 1_555
C28_2 H20_2 1_555 1_555
C29_2 N16_2 1_555 1_555
C32_2 C26_2 1_555 1_555
H23_2 C32_2 1_555 1_555
C33_2 N26_2 1_555 1_555
C34_2 N18_2 1_555 1_555
C35_2 N13_2 1_555 1_555
C36_2 C31_2 1_555 1_555
H24_2 C36_2 1_555 1_555
Mn6_2 Cl1_10 1_555 1_555
Cl5_2 Mn6_2 1_555 1_555
N20_2 Mn6_2 1_555 1_555
N21_2 N20_2 1_555 1_555
N22_2 Mn6_2 1_555 1_555
C40_2 H28_2 1_555 1_555
C41_2 N22_2 1_555 1_555
C42_2 C40_2 1_555 1_555
H29_2 C42_2 1_555 1_555
C43_2 C42_2 1_555 1_555
H30_2 C43_2 1_555 1_555
H31_2 C44_2 1_555 1_555
C45_2 N21_2 1_555 1_555
C46_2 N27 1_555 1_555
C47_2 N19_2 1_555 1_555
C48_2 C43_2 1_555 1_555
H32_2 C48_2 1_555 1_555
Mn8_2 N18_2 1_555 1_555
N13_2 Mn6_2 1_555 1_555
N17_2 Mn6_2 1_555 1_555
C27_2 C34_2 1_555 1_555
C28_2 C33_2 1_555 1_555
C29_2 C32_2 1_555 1_555
C29_2 C34_2 1_555 1_555
C33_2 C35_2 1_555 1_555
C35_2 C36_2 1_555 1_555
Cl5_2 Mn8_2 1_555 1_555
N19_2 N20_2 1_555 1_555
N21_2 Mn8_2 1_555 1_555
N22_2 N23_2 1_555 1_555
N23_2 N27 1_555 1_555
C39_2 C46_2 1_555 1_555
C40_2 C45_2 1_555 1_555
C41_2 C44_2 1_555 1_555
C41_2 C46_2 1_555 1_555
C45_2 C47_2 1_555 1_555
C47_2 C48_2 1_555 1_555
H21_2 C30_2 1_555 1_555
C37_2 H25_2 1_555 1_555
C38_2 C37_2 1_555 1_555
H26_2 C38_2 1_555 1_555
H21_3 C30_3 1_555 1_555
C37_3 H25_3 1_555 1_555
C38_3 C37_3 1_555 1_555
H26_3 C38_3 1_555 1_555
Mn5_3 Cl1_11 1_555 1_555
Cl7_3 Mn5_3 1_555 1_555
N13_3 N14_3 1_555 1_555
N14_3 Mn5_3 1_555 1_555
N26_3 N14_3 1_555 1_555
N16_3 Mn5_3 1_555 1_555
N17_3 N16_3 1_555 1_555
N18_3 N17_3 1_555 1_555
C25_3 H17_3 1_555 1_555
C26_3 C25_3 1_555 1_555
H18_3 C26_3 1_555 1_555
C27_3 C25_3 1_555 1_555
H19_3 C27_3 1_555 1_555
C28_3 H20_3 1_555 1_555
C29_3 N16_3 1_555 1_555
C32_3 C26_3 1_555 1_555
H23_3 C32_3 1_555 1_555
C33_3 N26_3 1_555 1_555
C34_3 N18_3 1_555 1_555
C35_3 N13_3 1_555 1_555
C36_3 C31_3 1_555 1_555
H24_3 C36_3 1_555 1_555
Mn6_3 Cl1_11 1_555 1_555
Cl5_3 Mn6_3 1_555 1_555
N20_3 Mn6_3 1_555 1_555
N21_3 N20_3 1_555 1_555
N22_3 Mn6_3 1_555 1_555
C40_3 H28_3 1_555 1_555
C41_3 N22_3 1_555 1_555
C42_3 C40_3 1_555 1_555
H29_3 C42_3 1_555 1_555
C43_3 C42_3 1_555 1_555
H30_3 C43_3 1_555 1_555
H31_3 C44_3 1_555 1_555
C45_3 N21_3 1_555 1_555
C46_3 N28 1_555 1_555
C47_3 N19_3 1_555 1_555
C48_3 C43_3 1_555 1_555
H32_3 C48_3 1_555 1_555
Mn8_3 N18_3 1_555 1_555
N13_3 Mn6_3 1_555 1_555
N17_3 Mn6_3 1_555 1_555
C27_3 C34_3 1_555 1_555
C28_3 C33_3 1_555 1_555
C29_3 C32_3 1_555 1_555
C29_3 C34_3 1_555 1_555
C33_3 C35_3 1_555 1_555
C35_3 C36_3 1_555 1_555
Cl5_3 Mn8_3 1_555 1_555
N19_3 N20_3 1_555 1_555
N21_3 Mn8_3 1_555 1_555
N22_3 N23_3 1_555 1_555
N23_3 N28 1_555 1_555
C39_3 C46_3 1_555 1_555
C40_3 C45_3 1_555 1_555
C41_3 C44_3 1_555 1_555
C41_3 C46_3 1_555 1_555
C45_3 C47_3 1_555 1_555
C47_3 C48_3 1_555 1_555
H5_3 C6_3 1_555 1_555
C13_3 H9_3 1_555 1_555
C14_3 C13_3 1_555 1_555
H10_3 C14_3 1_555 1_555
Mn1_3 Cl1_12 1_555 1_555
Cl1_12 Mn3_3 1_555 1_555
Cl7 Mn1_3 1_555 1_555
N1_3 N2_3 1_555 1_555
N2_3 Mn1_3 1_555 1_555
N4_3 Mn1_3 1_555 1_555
N5_3 N4_3 1_555 1_555
N6_3 N5_3 1_555 1_555
C1_3 H1_3 1_555 1_555
C2_3 C1_3 1_555 1_555
H2_3 C2_3 1_555 1_555
C3_3 C1_3 1_555 1_555
H3_3 C3_3 1_555 1_555
C4_3 H4_3 1_555 1_555
C5_3 N4_3 1_555 1_555
C8_3 C2_3 1_555 1_555
H7_3 C8_3 1_555 1_555
C9_3 N26 1_555 1_555
C10_3 N6_3 1_555 1_555
C11_3 N1_3 1_555 1_555
C12_3 C7_3 1_555 1_555
H8_3 C12_3 1_555 1_555
Mn3_3 N1_3 1_555 1_555
Mn4_3 N6_3 1_555 1_555
Cl3_3 Mn3_3 1_555 1_555
N7_3 N8_3 1_555 1_555
N8_3 Mn3_3 1_555 1_555
N9_3 Mn4_3 1_555 1_555
N10_3 Mn3_3 1_555 1_555
N11_3 N10_3 1_555 1_555
N28_3 N11_3 1_555 1_555
C16_3 H12_3 1_555 1_555
C17_3 N10_3 1_555 1_555
C18_3 C16_3 1_555 1_555
H13_3 C18_3 1_555 1_555
C19_3 C18_3 1_555 1_555
H14_3 C19_3 1_555 1_555
H15_3 C20_3 1_555 1_555
C21_3 N9_3 1_555 1_555
C22_3 N28_3 1_555 1_555
C23_3 N7_3 1_555 1_555
C24_3 C19_3 1_555 1_555
H16_3 C24_3 1_555 1_555
Cl7_5 Mn4_3 1_555 1_555
N26_5 Mn4_3 1_555 1_555
N28_5 Mn4_3 1_555 1_555
N2_3 N26 1_555 1_555
N5_3 Mn3_3 1_555 1_555
C3_3 C10_3 1_555 1_555
C4_3 C9_3 1_555 1_555
C5_3 C8_3 1_555 1_555
C5_3 C10_3 1_555 1_555
C9_3 C11_3 1_555 1_555
C11_3 C12_3 1_555 1_555
Mn4_3 Cl3_3 1_555 1_555
N8_3 N9_3 1_555 1_555
C15_3 C22_3 1_555 1_555
C16_3 C21_3 1_555 1_555
C17_3 C20_3 1_555 1_555
C17_3 C22_3 1_555 1_555
C21_3 C23_3 1_555 1_555
C23_3 C24_3 1_555 1_555
Cl7_6 Mn8_2 1_555 1_555
N26_6 Mn8_2 1_555 1_555
N28_6 Mn8_2 1_555 1_555
Cl7_7 Mn8_3 1_555 1_555
N26_7 Mn8_3 1_555 1_555
N28_7 Mn8_3 1_555 1_555
Mn1_4 Cl1_13 1_555 1_555
Cl1_13 Mn3_4 1_555 1_555
Cl7_5 Mn1_4 1_555 1_555
N1_4 N2_4 1_555 1_555
N2_4 Mn1_4 1_555 1_555
N4_4 Mn1_4 1_555 1_555
N5_4 N4_4 1_555 1_555
N28_6 N5_4 1_555 1_555
C1_4 H1_4 1_555 1_555
C2_4 C1_4 1_555 1_555
H2_4 C2_4 1_555 1_555
C3_4 C1_4 1_555 1_555
H3_4 C3_4 1_555 1_555
C4_4 H4_4 1_555 1_555
C5_4 N4_4 1_555 1_555
C6_4 C4_4 1_555 1_555
H5_4 C6_4 1_555 1_555
C7_4 C6_4 1_555 1_555
H6_4 C7_4 1_555 1_555
C8_4 C2_4 1_555 1_555
H7_4 C8_4 1_555 1_555
C9_4 N26_5 1_555 1_555
C10_4 N28_6 1_555 1_555
C11_4 N1_4 1_555 1_555
C12_4 C7_4 1_555 1_555
H8_4 C12_4 1_555 1_555
Mn3_4 N1_4 1_555 1_555
Cl7_6 Mn3_4 1_555 1_555
N7_4 N8_4 1_555 1_555
N8_4 Mn3_4 1_555 1_555
N10_4 Mn3_4 1_555 1_555
N11_4 N10_4 1_555 1_555
N28_7 N11_4 1_555 1_555
C13_4 H9_4 1_555 1_555
C14_4 C13_4 1_555 1_555
H10_4 C14_4 1_555 1_555
C15_4 C13_4 1_555 1_555
H11_4 C15_4 1_555 1_555
C16_4 H12_4 1_555 1_555
C17_4 N10_4 1_555 1_555
C18_4 C16_4 1_555 1_555
H13_4 C18_4 1_555 1_555
C19_4 C18_4 1_555 1_555
H14_4 C19_4 1_555 1_555
C20_4 C14_4 1_555 1_555
H15_4 C20_4 1_555 1_555
C21_4 N26_6 1_555 1_555
C22_4 N28_7 1_555 1_555
C23_4 N7_4 1_555 1_555
C24_4 C19_4 1_555 1_555
H16_4 C24_4 1_555 1_555
Mn5_4 Cl1_13 1_555 1_555
Cl7_7 Mn5_4 1_555 1_555
N13_4 N14_4 1_555 1_555
N14_4 Mn5_4 1_555 1_555
N26_7 N14_4 1_555 1_555
N16_4 Mn5_4 1_555 1_555
N17_4 N16_4 1_555 1_555
N28_4 N17_4 1_555 1_555
C25_4 H17_4 1_555 1_555
C26_4 C25_4 1_555 1_555
H18_4 C26_4 1_555 1_555
C27_4 C25_4 1_555 1_555
H19_4 C27_4 1_555 1_555
C28_4 H20_4 1_555 1_555
C29_4 N16_4 1_555 1_555
C30_4 C28_4 1_555 1_555
H21_4 C30_4 1_555 1_555
C31_4 C30_4 1_555 1_555
H22_4 C31_4 1_555 1_555
C32_4 C26_4 1_555 1_555
H23_4 C32_4 1_555 1_555
C33_4 N26_7 1_555 1_555
C34_4 N28_4 1_555 1_555
C35_4 N13_4 1_555 1_555
C36_4 C31_4 1_555 1_555
H24_4 C36_4 1_555 1_555
Mn6_4 Cl1_13 1_555 1_555
Cl7_4 Mn6_4 1_555 1_555
N19_4 Mn1_4 1_555 1_555
N20_4 Mn6_4 1_555 1_555
N26_4 N20_4 1_555 1_555
N22_4 Mn6_4 1_555 1_555
N23_4 Mn1_4 1_555 1_555
C37_4 H25_4 1_555 1_555
C38_4 C37_4 1_555 1_555
H26_4 C38_4 1_555 1_555
C39_4 C37_4 1_555 1_555
H27_4 C39_4 1_555 1_555
C40_4 H28_4 1_555 1_555
C41_4 N22_4 1_555 1_555
C42_4 C40_4 1_555 1_555
H29_4 C42_4 1_555 1_555
C43_4 C42_4 1_555 1_555
H30_4 C43_4 1_555 1_555
C44_4 C38_4 1_555 1_555
H31_4 C44_4 1_555 1_555
C45_4 N26_4 1_555 1_555
C46_4 N28_5 1_555 1_555
C47_4 N19_4 1_555 1_555
C48_4 C43_4 1_555 1_555
H32_4 C48_4 1_555 1_555
N2_4 N26_5 1_555 1_555
N5_4 Mn3_4 1_555 1_555
C3_4 C10_4 1_555 1_555
C4_4 C9_4 1_555 1_555
C5_4 C8_4 1_555 1_555
C5_4 C10_4 1_555 1_555
C9_4 C11_4 1_555 1_555
C11_4 C12_4 1_555 1_555
N7_4 Mn5_4 1_555 1_555
N8_4 N26_6 1_555 1_555
N11_4 Mn5_4 1_555 1_555
C15_4 C22_4 1_555 1_555
C16_4 C21_4 1_555 1_555
C17_4 C20_4 1_555 1_555
C17_4 C22_4 1_555 1_555
C21_4 C23_4 1_555 1_555
C23_4 C24_4 1_555 1_555
N13_4 Mn6_4 1_555 1_555
N17_4 Mn6_4 1_555 1_555
C27_4 C34_4 1_555 1_555
C28_4 C33_4 1_555 1_555
C29_4 C32_4 1_555 1_555
C29_4 C34_4 1_555 1_555
C33_4 C35_4 1_555 1_555
C35_4 C36_4 1_555 1_555
N19_4 N20_4 1_555 1_555
N22_4 N23_4 1_555 1_555
N23_4 N28_5 1_555 1_555
C39_4 C46_4 1_555 1_555
C40_4 C45_4 1_555 1_555
C41_4 C44_4 1_555 1_555
C41_4 C46_4 1_555 1_555
C45_4 C47_4 1_555 1_555
C47_4 C48_4 1_555 1_555

#END
