
###############################################################################
#
# This file contains modified crystal structure data generated from the
# MOF subset of the Cambridge Structural Database (CSD) v543 
# hosted by the Cambridge Crystallographic Data Centre (CCDC).
#
# This work is licensed under the Creative Commons
# Attribution-NonCommercial-ShareAlike 4.0 International License.
# To view a copy of this license, visit
# http://creativecommons.org/licenses/by-nc-sa/4.0/
# or send a letter to
# Creative Commons, PO Box 1866, Mountain View, CA 94042, USA.
#
# CIF created using the CSD Python API on 29 September 2022
# The structure has been converted into the P1 space group
# The structure has a 3D framework
# The original CSD entry LOFVUY01 is in the monoclinic crystal system
# The framework has been calculated to contain at least 10.0% void space
# The void calculation uses a probe of radius 1.32A, grid spacing 0.4
#
###############################################################################

data_LOFVUY01
_chemical_formula_moiety         '(C176 H168 N24 O108 Tb4 V24)n'
_symmetry_cell_setting           triclinic
_symmetry_space_group_name_H-M   'P 1'
_symmetry_Int_Tables_number      1
_space_group_name_Hall           'P 1'
loop_
_symmetry_equiv_pos_site_id
_symmetry_equiv_pos_as_xyz
1 x,y,z
_cell_length_a                   13.102(4)
_cell_length_b                   26.279(9)
_cell_length_c                   26.104(6)
_cell_angle_alpha                90
_cell_angle_beta                 93.923(5)
_cell_angle_gamma                90
_cell_volume                     8966.74
loop_
_atom_site_label
_atom_site_type_symbol
_atom_site_fract_x
_atom_site_fract_y
_atom_site_fract_z
C40 C 0.1812(14) 0.2825(11) 0.3608(9)
H37 H 0.2228 0.2785 0.3327
C41 C 0.0796(14) 0.2671(9) 0.3560(9)
H38 H 0.0514 0.2523 0.3249
C42 C 0.0205(16) 0.2738(10) 0.3973(8)
C43 C 0.0636(17) 0.2927(12) 0.4393(11)
H39 H 0.0238 0.2956 0.4683
C44 C 0.1633(18) 0.3089(12) 0.4443(9)
H40 H 0.1909 0.3241 0.4753
N3 N 0.2207(11) 0.3027(7) 0.4042(6)
O24 O 0.3175(9) 0.3181(6) 0.4089(5)
Tb2 Tb 0.47275(6) 0.29010(4) 0.38343(4)
C11 C 0.291(4) 0.041(2) 0.347(2)
C12 C 0.270(3) 0.0782(18) 0.309(2)
H17 H 0.2370 0.0683 0.2767
C13 C 0.297(2) 0.1298(18) 0.3165(14)
H18 H 0.2824 0.1546 0.2906
C14 C 0.346(2) 0.1432(12) 0.3636(13)
C15 C 0.373(4) 0.113(3) 0.406(2)
H19 H 0.4062 0.1225 0.4384
C16 C 0.340(4) 0.064(4) 0.390(3)
H20 H 0.3546 0.0396 0.4165
C17 C 0.3824(16) 0.1952(7) 0.3694(10)
C25 C 0.5309(15) 0.1902(9) 0.7432(8)
H25 H 0.5870 0.1797 0.7657
C26 C 0.5466(14) 0.2060(8) 0.6950(8)
H26 H 0.6143 0.2061 0.6842
C27 C 0.4699(14) 0.2214(8) 0.6620(8)
C28 C 0.3692(15) 0.2203(9) 0.6790(9)
H27 H 0.3123 0.2301 0.6567
C29 C 0.3560(15) 0.2050(9) 0.7273(8)
H28 H 0.2892 0.2053 0.7392
C30 C 0.4842(14) 0.2378(9) 0.6078(8)
C31 C 0.4226(14) 0.2639(11) 0.5222(9)
H29 H 0.3665 0.2688 0.4977
C32 C 0.4069(15) 0.2435(10) 0.5728(8)
H30 H 0.3399 0.2341 0.5809
C33 C 0.5827(17) 0.2523(11) 0.5944(9)
H31 H 0.6388 0.2497 0.6193
C34 C 0.5984(16) 0.2694(11) 0.5483(10)
H32 H 0.6663 0.2775 0.5405
C35 C 0.7506(15) 0.2563(10) 0.3371(10)
H33 H 0.7140 0.2627 0.3051
C36 C 0.8528(15) 0.2648(9) 0.3437(9)
H34 H 0.8882 0.2741 0.3146
C37 C 0.9079(14) 0.2606(10) 0.3899(8)
C38 C 0.8529(17) 0.2450(12) 0.4316(10)
H35 H 0.8863 0.2409 0.4648
C39 C 0.7518(16) 0.2359(10) 0.4235(10)
H36 H 0.7139 0.2273 0.4520
N4 N 0.4345(11) 0.1894(6) 0.7591(6)
N5 N 0.7030(12) 0.2386(7) 0.3774(8)
N6 N 0.5198(12) 0.2759(8) 0.5107(7)
O20 O 0.3891(10) 0.2256(5) 0.3334(6)
O21 O 0.4040(13) 0.2131(7) 0.4166(7)
O25 O 0.4177(9) 0.1707(5) 0.8049(5)
O26 O 0.6008(10) 0.2295(6) 0.3714(5)
O27 O 0.5389(12) 0.2967(7) 0.4670(6)
O28 O 0.6230(9) 0.3362(6) 0.3643(5)
O29 O 0.5005(10) 0.3816(5) 0.3953(5)
O31 O 0.4177(9) 0.3293(5) 0.3049(5)
Tb3 Tb 0.47275(6) 0.20990(4) 0.88343(4)
C1 C 0.971(2) 0.6368(9) 0.3226(12)
H2 H 0.9319 0.6289 0.2897
C2 C 0.8132(18) 0.6738(10) 0.3563(11)
H3 H 0.7739 0.6647 0.3238
H4 H 0.7662 0.6722 0.3844
C3 C 0.897(2) 0.6373(11) 0.3664(12)
C4 C 0.9545(18) 0.6423(9) 0.4176(11)
H5 H 0.9075 0.6386 0.4455
C5 C 0.808(3) 0.5651(16) 0.3323(16)
H7 H 0.8586 0.5597 0.3063
H8 H 0.7611 0.5923 0.3193
C18 C 0.5870(15) 0.3792(8) 0.3766(7)
C19 C 0.641(2) 0.4269(13) 0.3643(9)
C20 C 0.602(2) 0.4752(12) 0.3733(9)
H21 H 0.5390 0.4781 0.3891
C21 C 0.655(3) 0.5209(19) 0.3592(12)
H22 H 0.6275 0.5536 0.3656
C22 C 0.745(3) 0.5156(17) 0.3363(12)
C23 C 0.787(3) 0.4673(14) 0.3270(10)
H23 H 0.8506 0.4652 0.3115
C24 C 0.737(2) 0.4217(12) 0.3402(9)
H24 H 0.7652 0.3893 0.3335
N1 N 0.854(2) 0.5804(10) 0.3717(9)
H41 H 0.8629 0.5621 0.3999
O4 O 0.8645(13) 0.7151(8) 0.2501(7)
O5 O 0.8524(10) 0.7233(6) 0.3527(6)
O6 O 0.8297(11) 0.7332(7) 0.4541(6)
O11 O 0.8763(10) 0.8062(6) 0.2951(7)
O13 O 0.8578(11) 0.8141(7) 0.3956(7)
O19 O 0.8836(14) 0.9001(7) 0.3408(10)
V3 V 0.9318(3) 0.84573(17) 0.3486(2)
V4 V 0.9143(3) 0.75549(18) 0.41826(17)
V5 V 0.9326(3) 0.74433(17) 0.29460(16)
C40_2 C 0.1812(14) 0.2175(11) 0.8608(9)
H37_2 H 0.2228 0.2215 0.8327
C41_2 C 0.0796(14) 0.2329(9) 0.8560(9)
H38_2 H 0.0514 0.2477 0.8249
C42_2 C 0.0205(16) 0.2262(10) 0.8973(8)
C43_2 C 0.0636(17) 0.2073(12) 0.9393(11)
H39_2 H 0.0238 0.2044 0.9683
C44_2 C 0.1633(18) 0.1911(12) 0.9443(9)
H40_2 H 0.1909 0.1759 0.9753
N3_2 N 0.2207(11) 0.1973(7) 0.9042(6)
O24_2 O 0.3175(9) 0.1819(6) 0.9089(5)
C25_2 C 0.5309(15) 0.3098(9) 0.2432(8)
H25_2 H 0.5870 0.3203 0.2657
C26_2 C 0.5466(14) 0.2940(8) 0.1950(8)
H26_2 H 0.6143 0.2939 0.1842
C27_2 C 0.4699(14) 0.2786(8) 0.1620(8)
C28_2 C 0.3692(15) 0.2797(9) 0.1790(9)
H27_2 H 0.3123 0.2699 0.1567
C29_2 C 0.3560(15) 0.2950(9) 0.2273(8)
H28_2 H 0.2892 0.2947 0.2392
C30_2 C 0.4842(14) 0.2622(9) 0.1078(8)
C31_2 C 0.4226(14) 0.2361(11) 0.0222(9)
C32_2 C 0.4069(15) 0.2565(10) 0.0728(8)
H30_2 H 0.3399 0.2659 0.0809
C33_2 C 0.5827(17) 0.2477(11) 0.0944(9)
H31_2 H 0.6388 0.2503 0.1193
C34_2 C 0.5984(16) 0.2306(11) 0.0483(10)
H32_2 H 0.6663 0.2225 0.0405
N4_2 N 0.4345(11) 0.3106(6) 0.2591(6)
N6_2 N 0.5198(12) 0.2241(8) 0.0107(7)
H1 H 0.0228 0.8901 0.8293
H6 H 0.0082 0.8842 0.9219
C6 C 0.081(2) 0.5847(11) 0.9037(12)
H9 H 0.1174 0.5770 0.9374
H10 H 0.0287 0.5582 0.8964
C7 C 0.1017(18) 0.5943(7) 0.8081(11)
H11 H 0.0509 0.5671 0.8002
H12 H 0.1530 0.5927 0.7820
C8 C 0.157(2) 0.5840(10) 0.8625(13)
C9 C 0.2401(18) 0.6223(9) 0.8702(11)
H13 H 0.2877 0.6184 0.8426
H14 H 0.2791 0.6154 0.9033
C10 C 0.266(4) 0.513(2) 0.832(2)
H15 H 0.2361 0.5148 0.7960
H16 H 0.3287 0.5342 0.8347
C11_2 C 0.291(4) 0.459(2) 0.847(2)
C12_2 C 0.270(3) 0.4218(18) 0.809(2)
H17_2 H 0.2370 0.4317 0.7767
C13_2 C 0.297(2) 0.3702(18) 0.8165(14)
H18_2 H 0.2824 0.3454 0.7906
C14_2 C 0.346(2) 0.3568(12) 0.8636(13)
C15_2 C 0.373(4) 0.387(3) 0.906(2)
H19_2 H 0.4062 0.3775 0.9384
C16_2 C 0.340(4) 0.436(4) 0.890(3)
H20_2 H 0.3546 0.4604 0.9165
C17_2 C 0.3824(16) 0.3048(7) 0.8694(10)
H29_2 H 0.3665 0.2312 0.9977
C35_2 C 0.7506(15) 0.2437(10) 0.8371(10)
H33_2 H 0.7140 0.2373 0.8051
C36_2 C 0.8528(15) 0.2352(9) 0.8437(9)
H34_2 H 0.8882 0.2259 0.8146
C37_2 C 0.9079(14) 0.2394(10) 0.8899(8)
C38_2 C 0.8529(17) 0.2550(12) 0.9316(10)
H35_2 H 0.8863 0.2591 0.9648
C39_2 C 0.7518(16) 0.2641(10) 0.9235(10)
H36_2 H 0.7139 0.2727 0.9520
N2 N 0.200(2) 0.5301(10) 0.8636(13)
H42 H 0.1788 0.5090 0.8869
N5_2 N 0.7030(12) 0.2614(7) 0.8774(8)
O1 O 0.1774(13) 0.8469(7) 0.8862(8)
O2 O 0.0198(11) 0.8158(6) 0.8187(6)
O3 O 0.0011(10) 0.8061(6) 0.9186(6)
O7 O 0.1983(9) 0.7636(6) 0.8282(6)
O8 O 0.0458(9) 0.7347(6) 0.7613(5)
O9 O 0.1764(10) 0.7546(6) 0.9292(6)
O10 O 0.0259(9) 0.7245(5) 0.8626(5)
O12 O 0.0073(12) 0.7135(7) 0.9616(6)
O14 O 0.2229(10) 0.6819(6) 0.7675(6)
O15 O 0.2032(9) 0.6739(6) 0.8702(5)
O16 O 0.0508(10) 0.6427(5) 0.8042(6)
O17 O 0.1849(14) 0.6633(8) 0.9730(6)
O18 O 0.0345(12) 0.6326(6) 0.9056(7)
O20_2 O 0.3891(10) 0.2744(5) 0.8334(6)
O21_2 O 0.4040(13) 0.2869(7) 0.9166(7)
O26_2 O 0.6008(10) 0.2705(6) 0.8714(5)
O27_2 O 0.5389(12) 0.2033(7) 0.9670(6)
V1 V 0.1389(2) 0.70393(14) 0.80453(15)
V2 V 0.1211(3) 0.69339(18) 0.92881(17)
V6 V 0.1211(3) 0.79492(16) 0.87490(19)
O28_2 O 0.6230(9) 0.1638(6) 0.8643(5)
O29_2 O 0.5005(10) 0.1184(5) 0.8953(5)
C18_2 C 0.5870(15) 0.1208(8) 0.8766(7)
C19_2 C 0.641(2) 0.0731(13) 0.8643(9)
C20_2 C 0.602(2) 0.0248(12) 0.8733(9)
H21_2 H 0.5390 0.0219 0.8891
C23_2 C 0.787(3) 0.0327(14) 0.8270(10)
H23_2 H 0.8506 0.0348 0.8115
C24_2 C 0.737(2) 0.0783(12) 0.8402(9)
H24_2 H 0.7652 0.1107 0.8335
H1_2 H 0.0228 0.6099 0.3293
H6_2 H 0.0082 0.6158 0.4219
C6_2 C 0.081(2) 0.9153(11) 0.4037(12)
H9_2 H 0.1174 0.9230 0.4374
H10_2 H 0.0287 0.9418 0.3964
C7_2 C 0.1017(18) 0.9057(7) 0.3081(11)
H11_2 H 0.0509 0.9329 0.3002
H12_2 H 0.1530 0.9073 0.2820
C8_2 C 0.157(2) 0.9160(10) 0.3625(13)
C9_2 C 0.2401(18) 0.8777(9) 0.3702(11)
H13_2 H 0.2877 0.8816 0.3426
H14_2 H 0.2791 0.8846 0.4033
C10_2 C 0.266(4) 0.987(2) 0.332(2)
H15_2 H 0.2361 0.9852 0.2960
H16_2 H 0.3287 0.9658 0.3347
N2_2 N 0.200(2) 0.9699(10) 0.3636(13)
H42_2 H 0.1788 0.9910 0.3869
O1_2 O 0.1774(13) 0.6531(7) 0.3862(8)
O2_2 O 0.0198(11) 0.6842(6) 0.3187(6)
O3_2 O 0.0011(10) 0.6939(6) 0.4186(6)
O7_2 O 0.1983(9) 0.7364(6) 0.3282(6)
O8_2 O 0.0458(9) 0.7653(6) 0.2613(5)
O9_2 O 0.1764(10) 0.7454(6) 0.4292(6)
O10_2 O 0.0259(9) 0.7755(5) 0.3626(5)
O12_2 O 0.0073(12) 0.7865(7) 0.4616(6)
O14_2 O 0.2229(10) 0.8181(6) 0.2675(6)
O15_2 O 0.2032(9) 0.8261(6) 0.3702(5)
O16_2 O 0.0508(10) 0.8573(5) 0.3042(6)
O17_2 O 0.1849(14) 0.8367(8) 0.4730(6)
O18_2 O 0.0345(12) 0.8674(6) 0.4056(7)
V1_2 V 0.1389(2) 0.79607(14) 0.30453(15)
V2_2 V 0.1211(3) 0.80661(18) 0.42881(17)
V6_2 V 0.1211(3) 0.70508(16) 0.37490(19)
C1_2 C 0.029(2) 0.1368(9) 0.1774(12)
H2_2 H 0.0681 0.1289 0.2103
C2_2 C 0.1868(18) 0.1738(10) 0.1437(11)
H3_2 H 0.2261 0.1647 0.1762
H4_2 H 0.2338 0.1722 0.1156
C3_2 C 0.103(2) 0.1373(11) 0.1336(12)
C4_2 C 0.0455(18) 0.1423(9) 0.0824(11)
H5_2 H 0.0925 0.1386 0.0545
C5_2 C 0.192(3) 0.0651(16) 0.1677(16)
H7_2 H 0.1414 0.0597 0.1937
H8_2 H 0.2389 0.0923 0.1807
C21_2 C 0.345(3) 0.0209(19) 0.1408(12)
H22_2 H 0.3725 0.0536 0.1344
C22_2 C 0.255(3) 0.0156(17) 0.1637(12)
N1_2 N 0.146(2) 0.0804(10) 0.1283(9)
H41_2 H 0.1371 0.0621 0.1001
O4_2 O 0.1355(13) 0.2151(8) 0.2499(7)
O5_2 O 0.1476(10) 0.2233(6) 0.1473(6)
O6_2 O 0.1703(11) 0.2332(7) 0.0459(6)
O11_2 O 0.1237(10) 0.3062(6) 0.2049(7)
O13_2 O 0.1422(11) 0.3141(7) 0.1044(7)
O19_2 O 0.1164(14) 0.4001(7) 0.1592(10)
V3_2 V 0.0682(3) 0.34573(17) 0.1514(2)
V4_2 V 0.0857(3) 0.25549(18) 0.08174(17)
V5_2 V 0.0674(3) 0.24433(17) 0.20540(16)
C18_3 C 0.4130(15) 0.8792(8) 0.1234(7)
C19_3 C 0.359(2) 0.9269(13) 0.1357(9)
C20_3 C 0.398(2) 0.9752(12) 0.1267(9)
H21_3 H 0.4610 0.9781 0.1109
C23_3 C 0.213(3) 0.9673(14) 0.1730(10)
H23_3 H 0.1494 0.9652 0.1885
C24_3 C 0.263(2) 0.9217(12) 0.1598(9)
H24_3 H 0.2348 0.8893 0.1665
O22 O 0.3770(9) 0.8362(6) 0.1357(5)
O23 O 0.4995(10) 0.8816(5) 0.1047(5)
Tb4 Tb 0.52725(6) 0.79010(4) 0.11657(4)
H1_3 H 0.9772 0.1099 0.1707
H6_3 H 0.9918 0.1158 0.0781
C6_3 C 0.919(2) 0.4153(11) 0.0963(12)
H9_3 H 0.8826 0.4230 0.0626
H10_3 H 0.9713 0.4418 0.1036
C7_3 C 0.8983(18) 0.4057(7) 0.1919(11)
H11_3 H 0.9491 0.4329 0.1998
H12_3 H 0.8470 0.4073 0.2180
C8_3 C 0.843(2) 0.4160(10) 0.1375(13)
C9_3 C 0.7599(18) 0.3777(9) 0.1298(11)
H13_3 H 0.7123 0.3816 0.1574
H14_3 H 0.7209 0.3846 0.0967
C10_3 C 0.734(4) 0.487(2) 0.168(2)
H15_3 H 0.7639 0.4852 0.2040
H16_3 H 0.6713 0.4658 0.1653
C11_3 C 0.709(4) 0.541(2) 0.153(2)
C12_3 C 0.730(3) 0.5782(18) 0.191(2)
H17_3 H 0.7630 0.5683 0.2233
C13_3 C 0.703(2) 0.6298(18) 0.1835(14)
H18_3 H 0.7176 0.6546 0.2094
C14_3 C 0.654(2) 0.6432(12) 0.1364(13)
C15_3 C 0.627(4) 0.613(3) 0.094(2)
H19_3 H 0.5938 0.6225 0.0616
C16_3 C 0.660(4) 0.564(4) 0.110(3)
H20_3 H 0.6454 0.5396 0.0835
C17_3 C 0.6176(16) 0.6952(7) 0.1306(10)
H29_3 H 0.6335 0.7688 0.0023
C35_3 C 0.2494(15) 0.7563(10) 0.1629(10)
H33_3 H 0.2860 0.7627 0.1949
C36_3 C 0.1472(15) 0.7648(9) 0.1563(9)
H34_3 H 0.1118 0.7741 0.1854
C37_3 C 0.0921(14) 0.7606(10) 0.1101(8)
C38_3 C 0.1471(17) 0.7450(12) 0.0684(10)
H35_3 H 0.1137 0.7409 0.0352
C39_3 C 0.2482(16) 0.7359(10) 0.0765(10)
H36_3 H 0.2861 0.7273 0.0480
N2_3 N 0.800(2) 0.4699(10) 0.1364(13)
H42_3 H 0.8212 0.4910 0.1131
N5_3 N 0.2970(12) 0.7386(7) 0.1226(8)
O1_3 O 0.8226(13) 0.1531(7) 0.1138(8)
O2_3 O 0.9802(11) 0.1842(6) 0.1813(6)
O3_3 O 0.9989(10) 0.1939(6) 0.0814(6)
O7_3 O 0.8017(9) 0.2364(6) 0.1718(6)
O8_3 O 0.9542(9) 0.2653(6) 0.2387(5)
O9_3 O 0.8236(10) 0.2454(6) 0.0708(6)
O10_3 O 0.9741(9) 0.2755(5) 0.1374(5)
O12_3 O 0.9927(12) 0.2865(7) 0.0384(6)
O14_3 O 0.7771(10) 0.3181(6) 0.2325(6)
O15_3 O 0.7968(9) 0.3261(6) 0.1298(5)
O16_3 O 0.9492(10) 0.3573(5) 0.1958(6)
O17_3 O 0.8151(14) 0.3367(8) 0.0270(6)
O18_3 O 0.9655(12) 0.3674(6) 0.0944(7)
O20_3 O 0.6109(10) 0.7256(5) 0.1666(6)
O21_3 O 0.5960(13) 0.7131(7) 0.0834(7)
O26_3 O 0.3992(10) 0.7295(6) 0.1286(5)
O27_3 O 0.4611(12) 0.7967(7) 0.0330(6)
V1_3 V 0.8611(2) 0.29607(14) 0.19547(15)
V2_3 V 0.8789(3) 0.30661(18) 0.07119(17)
V6_3 V 0.8789(3) 0.20508(16) 0.12510(19)
O30 O 0.6825(9) 0.8181(6) 0.0911(5)
O31_2 O 0.5823(9) 0.8293(5) 0.1951(5)
C25_3 C 0.4691(15) 0.6902(9) 0.7568(8)
H25_3 H 0.4130 0.6797 0.7343
C26_3 C 0.4534(14) 0.7060(8) 0.8050(8)
H26_3 H 0.3857 0.7061 0.8158
C27_3 C 0.5301(14) 0.7214(8) 0.8380(8)
C28_3 C 0.6308(15) 0.7203(9) 0.8210(9)
H27_3 H 0.6877 0.7301 0.8433
C29_3 C 0.6440(15) 0.7050(9) 0.7727(8)
H28_3 H 0.7108 0.7053 0.7608
C30_3 C 0.5158(14) 0.7378(9) 0.8922(8)
C31_3 C 0.5774(14) 0.7639(11) 0.9778(9)
C32_3 C 0.5931(15) 0.7435(10) 0.9272(8)
H30_3 H 0.6601 0.7341 0.9191
C33_3 C 0.4173(17) 0.7523(11) 0.9056(9)
H31_3 H 0.3612 0.7497 0.8807
C34_3 C 0.4016(16) 0.7694(11) 0.9517(10)
H32_3 H 0.3337 0.7775 0.9595
N4_3 N 0.5655(11) 0.6894(6) 0.7409(6)
N6_3 N 0.4802(12) 0.7759(8) 0.9893(7)
O25_2 O 0.5823(9) 0.6707(5) 0.6951(5)
Tb3_2 Tb 0.52725(6) 0.70990(4) 0.61657(4)
C40_3 C 0.8188(14) 0.7825(11) 0.1392(9)
H37_3 H 0.7772 0.7785 0.1673
C41_3 C 0.9204(14) 0.7671(9) 0.1440(9)
H38_3 H 0.9486 0.7523 0.1751
C42_3 C 0.9795(16) 0.7738(10) 0.1027(8)
C43_3 C 0.9364(17) 0.7927(12) 0.0607(11)
H39_3 H 0.9762 0.7956 0.0317
C44_3 C 0.8367(18) 0.8089(12) 0.0557(9)
H40_3 H 0.8091 0.8241 0.0247
N3_3 N 0.7793(11) 0.8027(7) 0.0958(6)
C1_3 C 0.029(2) 0.3632(9) 0.6774(12)
H2_3 H 0.0681 0.3711 0.7103
C2_3 C 0.1868(18) 0.3262(10) 0.6437(11)
H3_3 H 0.2261 0.3353 0.6762
H4_3 H 0.2338 0.3278 0.6156
C3_3 C 0.103(2) 0.3627(11) 0.6336(12)
C4_3 C 0.0455(18) 0.3577(9) 0.5824(11)
H5_3 H 0.0925 0.3614 0.5545
C5_3 C 0.192(3) 0.4349(16) 0.6677(16)
H7_3 H 0.1414 0.4403 0.6937
H8_3 H 0.2389 0.4077 0.6807
C18_4 C 0.4130(15) 0.6208(8) 0.6234(7)
C19_4 C 0.359(2) 0.5731(13) 0.6357(9)
C20_4 C 0.398(2) 0.5248(12) 0.6267(9)
H21_4 H 0.4610 0.5219 0.6109
C21_3 C 0.345(3) 0.4791(19) 0.6408(12)
H22_3 H 0.3725 0.4464 0.6344
C22_3 C 0.255(3) 0.4844(17) 0.6637(12)
C23_4 C 0.213(3) 0.5327(14) 0.6730(10)
H23_4 H 0.1494 0.5348 0.6885
C24_4 C 0.263(2) 0.5783(12) 0.6598(9)
H24_4 H 0.2348 0.6107 0.6665
N1_3 N 0.146(2) 0.4196(10) 0.6283(9)
H41_3 H 0.1371 0.4379 0.6001
O4_3 O 0.1355(13) 0.2849(8) 0.7499(7)
O5_3 O 0.1476(10) 0.2767(6) 0.6473(6)
O6_3 O 0.1703(11) 0.2668(7) 0.5459(6)
O11_3 O 0.1237(10) 0.1938(6) 0.7049(7)
O13_3 O 0.1422(11) 0.1859(7) 0.6044(7)
O19_3 O 0.1164(14) 0.0999(7) 0.6592(10)
O22_2 O 0.3770(9) 0.6638(6) 0.6357(5)
O23_2 O 0.4995(10) 0.6184(5) 0.6047(5)
V3_3 V 0.0682(3) 0.15427(17) 0.6514(2)
V4_3 V 0.0857(3) 0.24451(18) 0.58174(17)
V5_3 V 0.0674(3) 0.25567(17) 0.70540(16)
C11_4 C 0.709(4) 0.959(2) 0.653(2)
C12_4 C 0.730(3) 0.9218(18) 0.691(2)
H17_4 H 0.7630 0.9317 0.7233
C13_4 C 0.703(2) 0.8702(18) 0.6835(14)
H18_4 H 0.7176 0.8454 0.7094
C14_4 C 0.654(2) 0.8568(12) 0.6364(13)
C15_4 C 0.627(4) 0.887(3) 0.594(2)
H19_4 H 0.5938 0.8775 0.5616
C16_4 C 0.660(4) 0.936(4) 0.610(3)
H20_4 H 0.6454 0.9604 0.5835
C17_4 C 0.6176(16) 0.8048(7) 0.6306(10)
C25_4 C 0.4691(15) 0.8098(9) 0.2568(8)
H25_4 H 0.4130 0.8203 0.2343
C26_4 C 0.4534(14) 0.7940(8) 0.3050(8)
H26_4 H 0.3857 0.7939 0.3158
C27_4 C 0.5301(14) 0.7786(8) 0.3380(8)
C28_4 C 0.6308(15) 0.7797(9) 0.3210(9)
H27_4 H 0.6877 0.7699 0.3433
C29_4 C 0.6440(15) 0.7950(9) 0.2727(8)
H28_4 H 0.7108 0.7947 0.2608
C30_4 C 0.5158(14) 0.7622(9) 0.3922(8)
C31_4 C 0.5774(14) 0.7361(11) 0.4778(9)
H29_4 H 0.6335 0.7312 0.5023
C32_4 C 0.5931(15) 0.7565(10) 0.4272(8)
H30_4 H 0.6601 0.7659 0.4191
C33_4 C 0.4173(17) 0.7477(11) 0.4056(9)
H31_4 H 0.3612 0.7503 0.3807
C34_4 C 0.4016(16) 0.7306(11) 0.4517(10)
H32_4 H 0.3337 0.7225 0.4595
C35_4 C 0.2494(15) 0.7437(10) 0.6629(10)
H33_4 H 0.2860 0.7373 0.6949
C36_4 C 0.1472(15) 0.7352(9) 0.6563(9)
H34_4 H 0.1118 0.7259 0.6854
C37_4 C 0.0921(14) 0.7394(10) 0.6101(8)
C38_4 C 0.1471(17) 0.7550(12) 0.5684(10)
H35_4 H 0.1137 0.7591 0.5352
C39_4 C 0.2482(16) 0.7641(10) 0.5765(10)
H36_4 H 0.2861 0.7727 0.5480
N4_4 N 0.5655(11) 0.8106(6) 0.2409(6)
N5_4 N 0.2970(12) 0.7614(7) 0.6226(8)
N6_4 N 0.4802(12) 0.7241(8) 0.4893(7)
O20_4 O 0.6109(10) 0.7744(5) 0.6666(6)
O21_4 O 0.5960(13) 0.7869(7) 0.5834(7)
O26_4 O 0.3992(10) 0.7705(6) 0.6286(5)
O27_4 O 0.4611(12) 0.7033(7) 0.5330(6)
O30_2 O 0.6825(9) 0.6819(6) 0.5911(5)
C40_4 C 0.8188(14) 0.7175(11) 0.6392(9)
H37_4 H 0.7772 0.7215 0.6673
C41_4 C 0.9204(14) 0.7329(9) 0.6440(9)
H38_4 H 0.9486 0.7477 0.6751
C42_4 C 0.9795(16) 0.7262(10) 0.6027(8)
C43_4 C 0.9364(17) 0.7073(12) 0.5607(11)
H39_4 H 0.9762 0.7044 0.5317
C44_4 C 0.8367(18) 0.6911(12) 0.5557(9)
H40_4 H 0.8091 0.6759 0.5247
N3_4 N 0.7793(11) 0.6973(7) 0.5958(6)
H1_4 H 0.9772 0.3901 0.6707
H6_4 H 0.9918 0.3842 0.5781
C6_4 C 0.919(2) 0.0847(11) 0.5963(12)
H9_4 H 0.8826 0.0770 0.5626
H10_4 H 0.9713 0.0582 0.6036
C7_4 C 0.8983(18) 0.0943(7) 0.6919(11)
H11_4 H 0.9491 0.0671 0.6998
H12_4 H 0.8470 0.0927 0.7180
C8_4 C 0.843(2) 0.0840(10) 0.6375(13)
C9_4 C 0.7599(18) 0.1223(9) 0.6298(11)
H13_4 H 0.7123 0.1184 0.6574
H14_4 H 0.7209 0.1154 0.5967
C10_4 C 0.734(4) 0.013(2) 0.668(2)
H15_4 H 0.7639 0.0148 0.7040
H16_4 H 0.6713 0.0342 0.6653
N2_4 N 0.800(2) 0.0301(10) 0.6364(13)
H42_4 H 0.8212 0.0090 0.6131
O1_4 O 0.8226(13) 0.3469(7) 0.6138(8)
O2_4 O 0.9802(11) 0.3158(6) 0.6813(6)
O3_4 O 0.9989(10) 0.3061(6) 0.5814(6)
O7_4 O 0.8017(9) 0.2636(6) 0.6718(6)
O8_4 O 0.9542(9) 0.2347(6) 0.7387(5)
O9_4 O 0.8236(10) 0.2546(6) 0.5708(6)
O10_4 O 0.9741(9) 0.2245(5) 0.6374(5)
O12_4 O 0.9927(12) 0.2135(7) 0.5384(6)
O14_4 O 0.7771(10) 0.1819(6) 0.7325(6)
O15_4 O 0.7968(9) 0.1739(6) 0.6298(5)
O16_4 O 0.9492(10) 0.1427(5) 0.6958(6)
O17_4 O 0.8151(14) 0.1633(8) 0.5270(6)
O18_4 O 0.9655(12) 0.1326(6) 0.5944(7)
V1_4 V 0.8611(2) 0.20393(14) 0.69547(15)
V2_4 V 0.8789(3) 0.19339(18) 0.57119(17)
V6_4 V 0.8789(3) 0.29492(16) 0.62510(19)
C1_4 C 0.971(2) 0.8632(9) 0.8226(12)
H2_4 H 0.9319 0.8711 0.7897
C2_4 C 0.8132(18) 0.8262(10) 0.8563(11)
H3_4 H 0.7739 0.8353 0.8238
H4_4 H 0.7662 0.8278 0.8844
C3_4 C 0.897(2) 0.8627(11) 0.8664(12)
C4_4 C 0.9545(18) 0.8577(9) 0.9176(11)
H5_4 H 0.9075 0.8614 0.9455
C5_4 C 0.808(3) 0.9349(16) 0.8323(16)
H7_4 H 0.8586 0.9403 0.8063
H8_4 H 0.7611 0.9077 0.8193
C21_4 C 0.655(3) 0.9791(19) 0.8592(12)
H22_4 H 0.6275 0.9464 0.8656
C22_4 C 0.745(3) 0.9844(17) 0.8363(12)
N1_4 N 0.854(2) 0.9196(10) 0.8717(9)
H41_4 H 0.8629 0.9379 0.8999
O4_4 O 0.8645(13) 0.7849(8) 0.7501(7)
O5_4 O 0.8524(10) 0.7767(6) 0.8527(6)
O6_4 O 0.8297(11) 0.7668(7) 0.9541(6)
O11_4 O 0.8763(10) 0.6938(6) 0.7951(7)
O13_4 O 0.8578(11) 0.6859(7) 0.8956(7)
O19_4 O 0.8836(14) 0.5999(7) 0.8408(10)
V3_4 V 0.9318(3) 0.65427(17) 0.8486(2)
V4_4 V 0.9143(3) 0.74451(18) 0.91826(17)
V5_4 V 0.9326(3) 0.75567(17) 0.79460(16)
loop_
_geom_bond_atom_site_label_1
_geom_bond_atom_site_label_2
_geom_bond_site_symmetry_1
_geom_bond_site_symmetry_2
C40 H37 1_555 1_555
C41 C40 1_555 1_555
H38 C41 1_555 1_555
C43 C42 1_555 1_555
H39 C43 1_555 1_555
C44 C43 1_555 1_555
H40 C44 1_555 1_555
N3 C40 1_555 1_555
O24 N3 1_555 1_555
Tb2 O24 1_555 1_555
C41 C42 1_555 1_555
C44 N3 1_555 1_555
C12 C11 1_555 1_555
H17 C12 1_555 1_555
C13 C12 1_555 1_555
H18 C13 1_555 1_555
C14 C13 1_555 1_555
C15 C14 1_555 1_555
H19 C15 1_555 1_555
C16 C11 1_555 1_555
H20 C16 1_555 1_555
C17 C14 1_555 1_555
C25 H25 1_555 1_555
C26 C25 1_555 1_555
H26 C26 1_555 1_555
C27 C26 1_555 1_555
C28 C27 1_555 1_555
H27 C28 1_555 1_555
C29 C28 1_555 1_555
H28 C29 1_555 1_555
C30 C27 1_555 1_555
C31 H29 1_555 1_555
C32 C30 1_555 1_555
H30 C32 1_555 1_555
C33 C30 1_555 1_555
H31 C33 1_555 1_555
C34 C33 1_555 1_555
H32 C34 1_555 1_555
C35 H33 1_555 1_555
C36 C35 1_555 1_555
H34 C36 1_555 1_555
C37 C36 1_555 1_555
C38 C37 1_555 1_555
H35 C38 1_555 1_555
C39 C38 1_555 1_555
H36 C39 1_555 1_555
N4 C25 1_555 1_555
N5 C35 1_555 1_555
N6 C31 1_555 1_555
O20 C17 1_555 1_555
O21 C17 1_555 1_555
O25 N4 1_555 1_555
O26 N5 1_555 1_555
O27 N6 1_555 1_555
Tb2 O20 1_555 1_555
O28 Tb2 1_555 1_555
O29 Tb2 1_555 1_555
O31 Tb2 1_555 1_555
Tb3 O25 1_555 1_555
C15 C16 1_555 1_555
C29 N4 1_555 1_555
C31 C32 1_555 1_555
C34 N6 1_555 1_555
C39 N5 1_555 1_555
O21 Tb2 1_555 1_555
O26 Tb2 1_555 1_555
O27 Tb2 1_555 1_555
H2 C1 1_555 1_555
C2 H3 1_555 1_555
H4 C2 1_555 1_555
C3 C1 1_555 1_555
C4 C3 1_555 1_555
H5 C4 1_555 1_555
C5 H7 1_555 1_555
H8 C5 1_555 1_555
C18 C19 1_555 1_555
C19 C20 1_555 1_555
C20 H21 1_555 1_555
C21 C20 1_555 1_555
H22 C21 1_555 1_555
C22 C5 1_555 1_555
C23 C22 1_555 1_555
H23 C23 1_555 1_555
C24 C19 1_555 1_555
H24 C24 1_555 1_555
N1 C3 1_555 1_555
H41 N1 1_555 1_555
O4 V5 1_555 1_555
O5 C2 1_555 1_555
O6 V4 1_555 1_555
O11 V3 1_555 1_555
O13 V3 1_555 1_555
O19 V3 1_555 1_555
O28 C18 1_555 1_555
O29 C18 1_555 1_555
C2 C3 1_555 1_555
C5 N1 1_555 1_555
C21 C22 1_555 1_555
C23 C24 1_555 1_555
O5 V4 1_555 1_555
O5 V5 1_555 1_555
O11 V5 1_555 1_555
O13 V4 1_555 1_555
C40_2 H37_2 1_555 1_555
C41_2 C40_2 1_555 1_555
H38_2 C41_2 1_555 1_555
C43_2 C42_2 1_555 1_555
H39_2 C43_2 1_555 1_555
C44_2 C43_2 1_555 1_555
H40_2 C44_2 1_555 1_555
N3_2 C40_2 1_555 1_555
O24_2 N3_2 1_555 1_555
Tb3 O24_2 1_555 1_555
C41_2 C42_2 1_555 1_555
C44_2 N3_2 1_555 1_555
C25_2 H25_2 1_555 1_555
C26_2 C25_2 1_555 1_555
H26_2 C26_2 1_555 1_555
C27_2 C26_2 1_555 1_555
C28_2 C27_2 1_555 1_555
H27_2 C28_2 1_555 1_555
C29_2 C28_2 1_555 1_555
H28_2 C29_2 1_555 1_555
C30_2 C27_2 1_555 1_555
C32_2 C30_2 1_555 1_555
H30_2 C32_2 1_555 1_555
C33_2 C30_2 1_555 1_555
H31_2 C33_2 1_555 1_555
C34_2 C33_2 1_555 1_555
H32_2 C34_2 1_555 1_555
N4_2 C25_2 1_555 1_555
N6_2 C31_2 1_555 1_555
O31 N4_2 1_555 1_555
C29_2 N4_2 1_555 1_555
C31_2 C32_2 1_555 1_555
C34_2 N6_2 1_555 1_555
C6 H9 1_555 1_555
H10 C6 1_555 1_555
C7 H11 1_555 1_555
H12 C7 1_555 1_555
C8 C6 1_555 1_555
C9 C8 1_555 1_555
H13 C9 1_555 1_555
H14 C9 1_555 1_555
C10 H15 1_555 1_555
H16 C10 1_555 1_555
C11_2 C10 1_555 1_555
C12_2 C11_2 1_555 1_555
H17_2 C12_2 1_555 1_555
C13_2 C12_2 1_555 1_555
H18_2 C13_2 1_555 1_555
C14_2 C13_2 1_555 1_555
C15_2 C14_2 1_555 1_555
H19_2 C15_2 1_555 1_555
C16_2 C11_2 1_555 1_555
H20_2 C16_2 1_555 1_555
C17_2 C14_2 1_555 1_555
C35_2 H33_2 1_555 1_555
C36_2 C35_2 1_555 1_555
H34_2 C36_2 1_555 1_555
C37_2 C36_2 1_555 1_555
C38_2 C37_2 1_555 1_555
H35_2 C38_2 1_555 1_555
C39_2 C38_2 1_555 1_555
H36_2 C39_2 1_555 1_555
N2 C8 1_555 1_555
H42 N2 1_555 1_555
N5_2 C35_2 1_555 1_555
O1 V6 1_555 1_555
O7 V1 1_555 1_555
O8 V1 1_555 1_555
O9 V2 1_555 1_555
O10 V1 1_555 1_555
O12 V2 1_555 1_555
O14 V1 1_555 1_555
O15 C9 1_555 1_555
O16 C7 1_555 1_555
O17 V2 1_555 1_555
O18 C6 1_555 1_555
O20_2 C17_2 1_555 1_555
O21_2 C17_2 1_555 1_555
O26_2 N5_2 1_555 1_555
Tb3 O20_2 1_555 1_555
V1 O15 1_555 1_555
V2 O10 1_555 1_555
V6 O2 1_555 1_555
O28_2 Tb3 1_555 1_555
O29_2 Tb3 1_555 1_555
C7 C8 1_555 1_555
C10 N2 1_555 1_555
C15_2 C16_2 1_555 1_555
C39_2 N5_2 1_555 1_555
O3 V6 1_555 1_555
O7 V6 1_555 1_555
O9 V6 1_555 1_555
O10 V6 1_555 1_555
O15 V2 1_555 1_555
O16 V1 1_555 1_555
O18 V2 1_555 1_555
O21_2 Tb3 1_555 1_555
O26_2 Tb3 1_555 1_555
O27_2 Tb3 1_555 1_555
C18_2 C19_2 1_555 1_555
C19_2 C20_2 1_555 1_555
C20_2 H21_2 1_555 1_555
H23_2 C23_2 1_555 1_555
C24_2 C19_2 1_555 1_555
H24_2 C24_2 1_555 1_555
O28_2 C18_2 1_555 1_555
O29_2 C18_2 1_555 1_555
C23_2 C24_2 1_555 1_555
C6_2 H9_2 1_555 1_555
H10_2 C6_2 1_555 1_555
C7_2 H11_2 1_555 1_555
H12_2 C7_2 1_555 1_555
C8_2 C6_2 1_555 1_555
C9_2 C8_2 1_555 1_555
H13_2 C9_2 1_555 1_555
H14_2 C9_2 1_555 1_555
C10_2 H15_2 1_555 1_555
H16_2 C10_2 1_555 1_555
N2_2 C8_2 1_555 1_555
H42_2 N2_2 1_555 1_555
O1_2 V6_2 1_555 1_555
O7_2 V1_2 1_555 1_555
O8_2 V1_2 1_555 1_555
O9_2 V2_2 1_555 1_555
O10_2 V1_2 1_555 1_555
O12_2 V2_2 1_555 1_555
O14_2 V1_2 1_555 1_555
O15_2 C9_2 1_555 1_555
O16_2 C7_2 1_555 1_555
O17_2 V2_2 1_555 1_555
O18_2 C6_2 1_555 1_555
V1_2 O15_2 1_555 1_555
V2_2 O10_2 1_555 1_555
V6_2 O2_2 1_555 1_555
C7_2 C8_2 1_555 1_555
C10_2 N2_2 1_555 1_555
O3_2 V6_2 1_555 1_555
O7_2 V6_2 1_555 1_555
O9_2 V6_2 1_555 1_555
O10_2 V6_2 1_555 1_555
O15_2 V2_2 1_555 1_555
O16_2 V1_2 1_555 1_555
O18_2 V2_2 1_555 1_555
H2_2 C1_2 1_555 1_555
C2_2 H3_2 1_555 1_555
H4_2 C2_2 1_555 1_555
C3_2 C1_2 1_555 1_555
C4_2 C3_2 1_555 1_555
H5_2 C4_2 1_555 1_555
C5_2 H7_2 1_555 1_555
H8_2 C5_2 1_555 1_555
H22_2 C21_2 1_555 1_555
C22_2 C5_2 1_555 1_555
N1_2 C3_2 1_555 1_555
H41_2 N1_2 1_555 1_555
O4_2 V5_2 1_555 1_555
O5_2 C2_2 1_555 1_555
O6_2 V4_2 1_555 1_555
O11_2 V3_2 1_555 1_555
O13_2 V3_2 1_555 1_555
O19_2 V3_2 1_555 1_555
C2_2 C3_2 1_555 1_555
C5_2 N1_2 1_555 1_555
C21_2 C22_2 1_555 1_555
O5_2 V4_2 1_555 1_555
O5_2 V5_2 1_555 1_555
O11_2 V5_2 1_555 1_555
O13_2 V4_2 1_555 1_555
C18_3 C19_3 1_555 1_555
C19_3 C20_3 1_555 1_555
C20_3 H21_3 1_555 1_555
H23_3 C23_3 1_555 1_555
C24_3 C19_3 1_555 1_555
H24_3 C24_3 1_555 1_555
O22 C18_3 1_555 1_555
O23 C18_3 1_555 1_555
Tb4 O22 1_555 1_555
C23_3 C24_3 1_555 1_555
O23 Tb4 1_555 1_555
C6_3 H9_3 1_555 1_555
H10_3 C6_3 1_555 1_555
C7_3 H11_3 1_555 1_555
H12_3 C7_3 1_555 1_555
C8_3 C6_3 1_555 1_555
C9_3 C8_3 1_555 1_555
H13_3 C9_3 1_555 1_555
H14_3 C9_3 1_555 1_555
C10_3 H15_3 1_555 1_555
H16_3 C10_3 1_555 1_555
C11_3 C10_3 1_555 1_555
C12_3 C11_3 1_555 1_555
H17_3 C12_3 1_555 1_555
C13_3 C12_3 1_555 1_555
H18_3 C13_3 1_555 1_555
C14_3 C13_3 1_555 1_555
C15_3 C14_3 1_555 1_555
H19_3 C15_3 1_555 1_555
C16_3 C11_3 1_555 1_555
H20_3 C16_3 1_555 1_555
C17_3 C14_3 1_555 1_555
C35_3 H33_3 1_555 1_555
C36_3 C35_3 1_555 1_555
H34_3 C36_3 1_555 1_555
C37_3 C36_3 1_555 1_555
C38_3 C37_3 1_555 1_555
H35_3 C38_3 1_555 1_555
C39_3 C38_3 1_555 1_555
H36_3 C39_3 1_555 1_555
N2_3 C8_3 1_555 1_555
H42_3 N2_3 1_555 1_555
N5_3 C35_3 1_555 1_555
O1_3 V6_3 1_555 1_555
O7_3 V1_3 1_555 1_555
O8_3 V1_3 1_555 1_555
O9_3 V2_3 1_555 1_555
O10_3 V1_3 1_555 1_555
O12_3 V2_3 1_555 1_555
O14_3 V1_3 1_555 1_555
O15_3 C9_3 1_555 1_555
O16_3 C7_3 1_555 1_555
O17_3 V2_3 1_555 1_555
O18_3 C6_3 1_555 1_555
O20_3 C17_3 1_555 1_555
O21_3 C17_3 1_555 1_555
O26_3 N5_3 1_555 1_555
Tb4 O20_3 1_555 1_555
V1_3 O15_3 1_555 1_555
V2_3 O10_3 1_555 1_555
V6_3 O2_3 1_555 1_555
O30 Tb4 1_555 1_555
O31_2 Tb4 1_555 1_555
C7_3 C8_3 1_555 1_555
C10_3 N2_3 1_555 1_555
C15_3 C16_3 1_555 1_555
C39_3 N5_3 1_555 1_555
O3_3 V6_3 1_555 1_555
O7_3 V6_3 1_555 1_555
O9_3 V6_3 1_555 1_555
O10_3 V6_3 1_555 1_555
O15_3 V2_3 1_555 1_555
O16_3 V1_3 1_555 1_555
O18_3 V2_3 1_555 1_555
O21_3 Tb4 1_555 1_555
O26_3 Tb4 1_555 1_555
O27_3 Tb4 1_555 1_555
C25_3 H25_3 1_555 1_555
C26_3 C25_3 1_555 1_555
H26_3 C26_3 1_555 1_555
C27_3 C26_3 1_555 1_555
C28_3 C27_3 1_555 1_555
H27_3 C28_3 1_555 1_555
C29_3 C28_3 1_555 1_555
H28_3 C29_3 1_555 1_555
C30_3 C27_3 1_555 1_555
C32_3 C30_3 1_555 1_555
H30_3 C32_3 1_555 1_555
C33_3 C30_3 1_555 1_555
H31_3 C33_3 1_555 1_555
C34_3 C33_3 1_555 1_555
H32_3 C34_3 1_555 1_555
N4_3 C25_3 1_555 1_555
N6_3 C31_3 1_555 1_555
O25_2 N4_3 1_555 1_555
Tb3_2 O25_2 1_555 1_555
C29_3 N4_3 1_555 1_555
C31_3 C32_3 1_555 1_555
C34_3 N6_3 1_555 1_555
C40_3 H37_3 1_555 1_555
C41_3 C40_3 1_555 1_555
H38_3 C41_3 1_555 1_555
C43_3 C42_3 1_555 1_555
H39_3 C43_3 1_555 1_555
C44_3 C43_3 1_555 1_555
H40_3 C44_3 1_555 1_555
N3_3 C40_3 1_555 1_555
O30 N3_3 1_555 1_555
C41_3 C42_3 1_555 1_555
C44_3 N3_3 1_555 1_555
H2_3 C1_3 1_555 1_555
C2_3 H3_3 1_555 1_555
H4_3 C2_3 1_555 1_555
C3_3 C1_3 1_555 1_555
C4_3 C3_3 1_555 1_555
H5_3 C4_3 1_555 1_555
C5_3 H7_3 1_555 1_555
H8_3 C5_3 1_555 1_555
C18_4 C19_4 1_555 1_555
C19_4 C20_4 1_555 1_555
C20_4 H21_4 1_555 1_555
C21_3 C20_4 1_555 1_555
H22_3 C21_3 1_555 1_555
C22_3 C5_3 1_555 1_555
C23_4 C22_3 1_555 1_555
H23_4 C23_4 1_555 1_555
C24_4 C19_4 1_555 1_555
H24_4 C24_4 1_555 1_555
N1_3 C3_3 1_555 1_555
H41_3 N1_3 1_555 1_555
O4_3 V5_3 1_555 1_555
O5_3 C2_3 1_555 1_555
O6_3 V4_3 1_555 1_555
O11_3 V3_3 1_555 1_555
O13_3 V3_3 1_555 1_555
O19_3 V3_3 1_555 1_555
O22_2 C18_4 1_555 1_555
O23_2 C18_4 1_555 1_555
Tb3_2 O22_2 1_555 1_555
C2_3 C3_3 1_555 1_555
C5_3 N1_3 1_555 1_555
C21_3 C22_3 1_555 1_555
C23_4 C24_4 1_555 1_555
O5_3 V4_3 1_555 1_555
O5_3 V5_3 1_555 1_555
O11_3 V5_3 1_555 1_555
O13_3 V4_3 1_555 1_555
O23_2 Tb3_2 1_555 1_555
C12_4 C11_4 1_555 1_555
H17_4 C12_4 1_555 1_555
C13_4 C12_4 1_555 1_555
H18_4 C13_4 1_555 1_555
C14_4 C13_4 1_555 1_555
C15_4 C14_4 1_555 1_555
H19_4 C15_4 1_555 1_555
C16_4 C11_4 1_555 1_555
H20_4 C16_4 1_555 1_555
C17_4 C14_4 1_555 1_555
C25_4 H25_4 1_555 1_555
C26_4 C25_4 1_555 1_555
H26_4 C26_4 1_555 1_555
C27_4 C26_4 1_555 1_555
C28_4 C27_4 1_555 1_555
H27_4 C28_4 1_555 1_555
C29_4 C28_4 1_555 1_555
H28_4 C29_4 1_555 1_555
C30_4 C27_4 1_555 1_555
C31_4 H29_4 1_555 1_555
C32_4 C30_4 1_555 1_555
H30_4 C32_4 1_555 1_555
C33_4 C30_4 1_555 1_555
H31_4 C33_4 1_555 1_555
C34_4 C33_4 1_555 1_555
H32_4 C34_4 1_555 1_555
C35_4 H33_4 1_555 1_555
C36_4 C35_4 1_555 1_555
H34_4 C36_4 1_555 1_555
C37_4 C36_4 1_555 1_555
C38_4 C37_4 1_555 1_555
H35_4 C38_4 1_555 1_555
C39_4 C38_4 1_555 1_555
H36_4 C39_4 1_555 1_555
N4_4 C25_4 1_555 1_555
N5_4 C35_4 1_555 1_555
N6_4 C31_4 1_555 1_555
O20_4 C17_4 1_555 1_555
O21_4 C17_4 1_555 1_555
O31_2 N4_4 1_555 1_555
O26_4 N5_4 1_555 1_555
O27_4 N6_4 1_555 1_555
Tb3_2 O20_4 1_555 1_555
O30_2 Tb3_2 1_555 1_555
C15_4 C16_4 1_555 1_555
C29_4 N4_4 1_555 1_555
C31_4 C32_4 1_555 1_555
C34_4 N6_4 1_555 1_555
C39_4 N5_4 1_555 1_555
O21_4 Tb3_2 1_555 1_555
O26_4 Tb3_2 1_555 1_555
O27_4 Tb3_2 1_555 1_555
C40_4 H37_4 1_555 1_555
C41_4 C40_4 1_555 1_555
H38_4 C41_4 1_555 1_555
C43_4 C42_4 1_555 1_555
H39_4 C43_4 1_555 1_555
C44_4 C43_4 1_555 1_555
H40_4 C44_4 1_555 1_555
N3_4 C40_4 1_555 1_555
O30_2 N3_4 1_555 1_555
C41_4 C42_4 1_555 1_555
C44_4 N3_4 1_555 1_555
C6_4 H9_4 1_555 1_555
H10_4 C6_4 1_555 1_555
C7_4 H11_4 1_555 1_555
H12_4 C7_4 1_555 1_555
C8_4 C6_4 1_555 1_555
C9_4 C8_4 1_555 1_555
H13_4 C9_4 1_555 1_555
H14_4 C9_4 1_555 1_555
C10_4 H15_4 1_555 1_555
H16_4 C10_4 1_555 1_555
N2_4 C8_4 1_555 1_555
H42_4 N2_4 1_555 1_555
O1_4 V6_4 1_555 1_555
O7_4 V1_4 1_555 1_555
O8_4 V1_4 1_555 1_555
O9_4 V2_4 1_555 1_555
O10_4 V1_4 1_555 1_555
O12_4 V2_4 1_555 1_555
O14_4 V1_4 1_555 1_555
O15_4 C9_4 1_555 1_555
O16_4 C7_4 1_555 1_555
O17_4 V2_4 1_555 1_555
O18_4 C6_4 1_555 1_555
V1_4 O15_4 1_555 1_555
V2_4 O10_4 1_555 1_555
V6_4 O2_4 1_555 1_555
C7_4 C8_4 1_555 1_555
C10_4 N2_4 1_555 1_555
O3_4 V6_4 1_555 1_555
O7_4 V6_4 1_555 1_555
O9_4 V6_4 1_555 1_555
O10_4 V6_4 1_555 1_555
O15_4 V2_4 1_555 1_555
O16_4 V1_4 1_555 1_555
O18_4 V2_4 1_555 1_555
H2_4 C1_4 1_555 1_555
C2_4 H3_4 1_555 1_555
H4_4 C2_4 1_555 1_555
C3_4 C1_4 1_555 1_555
C4_4 C3_4 1_555 1_555
H5_4 C4_4 1_555 1_555
C5_4 H7_4 1_555 1_555
H8_4 C5_4 1_555 1_555
H22_4 C21_4 1_555 1_555
C22_4 C5_4 1_555 1_555
N1_4 C3_4 1_555 1_555
H41_4 N1_4 1_555 1_555
O4_4 V5_4 1_555 1_555
O5_4 C2_4 1_555 1_555
O6_4 V4_4 1_555 1_555
O11_4 V3_4 1_555 1_555
O13_4 V3_4 1_555 1_555
O19_4 V3_4 1_555 1_555
C2_4 C3_4 1_555 1_555
C5_4 N1_4 1_555 1_555
C21_4 C22_4 1_555 1_555
O5_4 V4_4 1_555 1_555
O5_4 V5_4 1_555 1_555
O11_4 V5_4 1_555 1_555
O13_4 V4_4 1_555 1_555

#END
