
###############################################################################
#
# This file contains modified crystal structure data generated from the
# MOF subset of the Cambridge Structural Database (CSD) v543 
# hosted by the Cambridge Crystallographic Data Centre (CCDC).
#
# This work is licensed under the Creative Commons
# Attribution-NonCommercial-ShareAlike 4.0 International License.
# To view a copy of this license, visit
# http://creativecommons.org/licenses/by-nc-sa/4.0/
# or send a letter to
# Creative Commons, PO Box 1866, Mountain View, CA 94042, USA.
#
# CIF created using the CSD Python API on 29 September 2022
# The structure has been converted into the P1 space group
# The structure has a 3D framework
# The original CSD entry LOFVIN is in the monoclinic crystal system
# The framework has been calculated to contain at least 10.0% void space
# The void calculation uses a probe of radius 1.32A, grid spacing 0.4
#
###############################################################################

data_LOFVIN
_chemical_formula_moiety         '(C272 H248 N48 Ni16 O104)n'
_symmetry_cell_setting           triclinic
_symmetry_space_group_name_H-M   'P 1'
_symmetry_Int_Tables_number      1
_space_group_name_Hall           'P 1'
loop_
_symmetry_equiv_pos_site_id
_symmetry_equiv_pos_as_xyz
1 x,y,z
_cell_length_a                   22.1396(16)
_cell_length_b                   14.5936(5)
_cell_length_c                   28.1238(19)
_cell_angle_alpha                90
_cell_angle_beta                 116.317(9)
_cell_angle_gamma                90
_cell_volume                     8144.91
loop_
_atom_site_label
_atom_site_type_symbol
_atom_site_fract_x
_atom_site_fract_y
_atom_site_fract_z
O3 O 0.3001(2) 0.0365(4) 0.6100(2)
H2 H 0.2857 0.0589 0.6319
O5 O 0.2088(2) 0.1304(3) 0.5136(2)
H3 H 0.2253 0.1681 0.5407
H4 H 0.1663 0.1449 0.4944
O9 O 0.2229(2) 0.0829(3) 0.2955(2)
O11 O 0.1730(3) 0.1649(3) 0.3347(2)
O13 O 0.0879(3) 0.0885(4) 0.4502(3)
C5 C 0.4861(4) 0.0005(5) 0.5430(3)
H13 H 0.4767 0.0006 0.5722
H20 H 0.3688 0.0172 0.5535
C20 C 0.0873(4) 0.0038(5) 0.4458(3)
C23 C 0.1565(3) 0.0037(4) 0.3260(3)
C25 C 0.1052(3) 0.0016(4) 0.3420(3)
H25 H 0.0908 0.0565 0.3504
C32 C 0.1866(3) 0.0898(5) 0.3187(3)
N7 N 0.7205(3) 0.0305(4) 0.4973(2)
N8 N 0.6318(3) 0.0314(4) 0.5136(3)
C36 C 0.5646(4) 0.0164(5) 0.5064(3)
C37 C 0.6566(4) 0.0097(5) 0.4794(3)
C38 C 0.7390(4) 0.0676(6) 0.5458(3)
H34 H 0.7819 0.0887 0.5683
C39 C 0.5514(4) 0.0174(5) 0.5502(3)
H35 H 0.5857 0.0293 0.5839
C40 C 0.6839(4) 0.0691(7) 0.5567(4)
H36 H 0.6826 0.0913 0.5872
O14 O 0.2159(2) 0.0721(3) 0.65137(19)
O19 O 0.1525(2) 0.0119(4) 0.5720(2)
C51 C 0.1034(3) 0.0968(5) 0.6709(3)
H53 H 0.1451 0.1163 0.6966
C52 C 0.1599(3) 0.0465(4) 0.6146(3)
C55 C 0.0468(3) 0.1069(5) 0.6794(3)
H55 H 0.0506 0.1343 0.7104
C59 C 0.0984(3) 0.0573(4) 0.6238(3)
C63 C 0.0360(3) 0.0273(5) 0.5860(3)
H59 H 0.0323 0.0013 0.5546
Ni6 Ni 0.25399(4) 0.17163(5) 0.25570(3)
Ni9 Ni 0.78101(4) 0.00586(6) 0.46056(3)
Ni1 Ni 0.24601(4) 0.67163(5) 0.24430(3)
Ni2 Ni 0.21899(4) 0.99414(6) 0.53944(3)
O2 O 0.2131(2) 0.7604(3) 0.28401(19)
H1 H 0.3271 0.9906 0.6258
O4 O 0.1352(2) 0.9496(3) 0.47232(18)
O7 O 0.2812(2) 0.7835(3) 0.21568(19)
H5 H 0.3115 0.8141 0.2418
H6 H 0.2481 0.8202 0.1975
O8 O 0.2384(3) 0.8577(4) 0.5698(2)
H7 H 0.2207 0.8469 0.5920
H8 H 0.2822 0.8477 0.5875
O10 O 0.1648(3) 0.6752(3) 0.3231(2)
N1 N 0.3427(3) 0.6711(4) 0.3080(2)
O12 O 0.2120(2) 0.5586(3) 0.2729(2)
H9 H 0.1800 0.5306 0.2468
H10 H 0.1968 0.5768 0.2948
N2 N 0.2795(3) 0.9695(4) 0.5027(2)
N3 N 0.6512(3) 0.8246(4) 0.6805(2)
N4 N 0.5678(3) 0.7991(4) 0.6011(2)
N5 N 0.4267(3) 0.6990(4) 0.3860(2)
C1 C 0.0216(3) 0.9642(4) 0.4053(3)
C2 C 0.5264(3) 0.7637(5) 0.4594(3)
H11 H 0.5455 0.7737 0.4362
C3 C 0.0986(3) 0.8390(4) 0.3356(3)
H12 H 0.0791 0.7840 0.3384
N6 N 0.3682(3) 0.9686(4) 0.4864(3)
C4 C 0.0750(3) 0.9207(4) 0.3460(3)
C6 C 0.0165(3) 0.9242(4) 0.3588(3)
C7 C 0.1793(3) 0.9205(4) 0.3159(3)
H14 H 0.2138 0.9203 0.3055
C8 C 0.4701(4) 0.7321(5) 0.5288(3)
H15 H 0.4517 0.7216 0.5523
C9 C 0.5613(4) 0.7883(5) 0.5122(3)
H16 H 0.6038 0.8148 0.5245
C10 C 0.3600(4) 0.6947(5) 0.3572(3)
H17 H 0.3292 0.7069 0.3706
C11 C 0.4635(3) 0.7243(5) 0.4411(3)
C14 C 0.5333(4) 0.7737(5) 0.5464(3)
C15 C 0.6347(3) 0.7997(5) 0.6307(3)
H19 H 0.6658 0.7848 0.6180
C16 C 0.4354(4) 0.9836(5) 0.4936(3)
C17 C 0.3434(4) 0.9903(5) 0.5206(3)
C18 C 0.2610(4) 0.9324(6) 0.4542(3)
H21 H 0.2181 0.9113 0.4317
C21 C 0.4545(4) 0.6758(6) 0.3526(3)
H23 H 0.5001 0.6729 0.3610
C22 C 0.4486(4) 0.9826(5) 0.4498(3)
H24 H 0.4143 0.9707 0.4161
C26 C 0.4344(4) 0.7060(5) 0.4749(3)
H26 H 0.3926 0.6775 0.4625
C27 C 0.1515(3) 0.8377(4) 0.3210(3)
C29 C 0.4019(4) 0.6579(5) 0.3051(3)
H28 H 0.4056 0.6393 0.2749
C30 C 0.5913(4) 0.8412(5) 0.6816(3)
H29 H 0.5867 0.8605 0.7113
C31 C 0.5391(4) 0.8258(5) 0.6332(3)
H30 H 0.4934 0.8321 0.6238
C33 C 0.3161(4) 0.9309(7) 0.4433(4)
H31 H 0.3174 0.9087 0.4128
C34 C 0.1775(3) 0.7505(5) 0.3083(3)
C35 C 0.5139(4) 0.9995(5) 0.4570(3)
H32 H 0.5233 0.9994 0.4278
H33 H 0.6312 0.9828 0.4465
Ni8 Ni 0.74601(4) 0.82837(5) 0.74430(3)
O27 O 0.2771(2) 0.5829(3) 0.2045(2)
N15 N 0.1512(3) 0.6754(4) 0.1805(2)
Ni3 Ni 0.75399(4) 0.32837(5) 0.75570(3)
O15 O 0.7869(2) 0.2396(3) 0.71599(19)
H37 H 0.6729 0.0094 0.3742
O17 O 0.8648(2) 0.0504(3) 0.52768(18)
O20 O 0.7188(2) 0.2165(3) 0.78432(19)
H41 H 0.6885 0.1859 0.7582
H42 H 0.7519 0.1798 0.8025
O21 O 0.7616(3) 0.1423(4) 0.4302(2)
H43 H 0.7793 0.1531 0.4080
H44 H 0.7178 0.1523 0.4125
O23 O 0.8352(3) 0.3248(3) 0.6769(2)
N9 N 0.6573(3) 0.3289(4) 0.6920(2)
O25 O 0.7880(2) 0.4414(3) 0.7271(2)
H45 H 0.8200 0.4694 0.7532
H46 H 0.8032 0.4232 0.7052
N10 N 0.3488(3) 0.1754(4) 0.3195(2)
N11 N 0.4322(3) 0.2009(4) 0.3989(2)
N12 N 0.5733(3) 0.3010(4) 0.6140(2)
C41 C 0.9784(3) 0.0358(4) 0.5947(3)
C42 C 0.4736(3) 0.2363(5) 0.5406(3)
H47 H 0.4545 0.2263 0.5638
C43 C 0.9014(3) 0.1610(4) 0.6644(3)
H48 H 0.9209 0.2160 0.6616
C44 C 0.9250(3) 0.0793(4) 0.6540(3)
C45 C 0.9835(3) 0.0758(4) 0.6412(3)
C46 C 0.8207(3) 0.0795(4) 0.6841(3)
H49 H 0.7862 0.0797 0.6945
C47 C 0.5299(4) 0.2679(5) 0.4712(3)
H50 H 0.5483 0.2784 0.4477
C48 C 0.4387(4) 0.2117(5) 0.4878(3)
H51 H 0.3962 0.1852 0.4755
C49 C 0.6400(4) 0.3053(5) 0.6428(3)
H52 H 0.6708 0.2931 0.6294
C50 C 0.5365(3) 0.2757(5) 0.5589(3)
C53 C 0.4667(4) 0.2263(5) 0.4536(3)
C54 C 0.3653(3) 0.2003(5) 0.3693(3)
H54 H 0.3342 0.2152 0.3820
C57 C 0.5455(4) 0.3242(6) 0.6474(3)
H56 H 0.4999 0.3271 0.6390
C61 C 0.5656(4) 0.2940(5) 0.5251(3)
H58 H 0.6074 0.3225 0.5375
C62 C 0.8485(3) 0.1623(4) 0.6790(3)
C64 C 0.5981(4) 0.3421(5) 0.6949(3)
H60 H 0.5944 0.3607 0.7251
C65 C 0.4087(4) 0.1588(5) 0.3184(3)
H61 H 0.4133 0.1395 0.2887
C66 C 0.4609(4) 0.1742(5) 0.3668(3)
H62 H 0.5066 0.1679 0.3762
C68 C 0.8225(3) 0.2495(5) 0.6917(3)
O28 O 0.7229(2) 0.4171(3) 0.7955(2)
N14 N 0.8488(3) 0.3246(4) 0.8195(2)
O1 O 0.7841(2) 0.9279(3) 0.34863(19)
O6 O 0.8475(2) 0.9881(4) 0.4280(2)
C12 C 0.8966(3) 0.9032(5) 0.3291(3)
H18 H 0.8549 0.8837 0.3034
C13 C 0.8401(3) 0.9535(4) 0.3854(3)
C19 C 0.9532(3) 0.8931(5) 0.3206(3)
H22 H 0.9494 0.8657 0.2896
C24 C 0.9016(3) 0.9427(4) 0.3762(3)
C28 C 0.9640(3) 0.9727(5) 0.4140(3)
H27 H 0.9677 0.9987 0.4454
O16 O 0.6999(2) 0.9635(4) 0.3900(2)
H38 H 0.7143 0.9411 0.3681
O18 O 0.7912(2) 0.8696(3) 0.4864(2)
H39 H 0.7747 0.8319 0.4593
H40 H 0.8337 0.8551 0.5056
O22 O 0.7771(2) 0.9171(3) 0.7045(2)
O24 O 0.8270(3) 0.8351(3) 0.6653(2)
O26 O 0.9121(3) 0.9115(4) 0.5498(3)
C56 C 0.9127(4) 0.9962(5) 0.5542(3)
C58 C 0.8435(3) 0.9963(4) 0.6740(3)
C60 C 0.8948(3) 0.9984(4) 0.6580(3)
H57 H 0.9092 0.9435 0.6496
C67 C 0.8134(3) 0.9102(5) 0.6813(3)
N11_2 N 0.0678(3) 0.7009(4) 0.1011(2)
C48_2 C 0.0613(4) 0.7117(5) 0.0122(3)
H51_2 H 0.1038 0.6852 0.0245
C53_2 C 0.0333(4) 0.7263(5) 0.0464(3)
C54_2 C 0.1347(3) 0.7003(5) 0.1307(3)
H54_2 H 0.1658 0.7152 0.1180
C65_2 C 0.0913(4) 0.6588(5) 0.1816(3)
H61_2 H 0.0867 0.6395 0.2113
C66_2 C 0.0391(4) 0.6742(5) 0.1332(3)
C42_2 C 0.0264(3) 0.7363(5) 0.9594(3)
H47_2 H 0.0455 0.7263 0.9362
H56_2 H 0.0001 0.8271 0.8610
O1_2 O 0.7159(2) 0.4279(3) 0.15137(19)
O2_2 O 0.2869(2) 0.2604(3) 0.21599(19)
O4_2 O 0.3648(2) 0.4496(3) 0.02768(18)
H4_2 H 0.3337 0.6449 0.0056
O6_2 O 0.6525(2) 0.4881(4) 0.0720(2)
O7_2 O 0.2188(2) 0.2835(3) 0.28432(19)
H5_2 H 0.1885 0.3141 0.2582
H6_2 H 0.2519 0.3202 0.3025
O10_2 O 0.3352(3) 0.1752(3) 0.1769(2)
N1_2 N 0.1573(3) 0.1711(4) 0.1920(2)
O11_2 O 0.3270(3) 0.6649(3) 0.1653(2)
O12_2 O 0.2880(2) 0.0586(3) 0.2271(2)
H9_2 H 0.3200 0.0306 0.2532
H10_2 H 0.3032 0.0768 0.2052
N5_2 N 0.0733(3) 0.1990(4) 0.1140(2)
C1_2 C 0.4784(3) 0.4642(4) 0.0947(3)
O13_2 O 0.4121(3) 0.5885(4) 0.0498(3)
C3_2 C 0.4014(3) 0.3390(4) 0.1644(3)
H12_2 H 0.4209 0.2840 0.1616
N6_2 N 0.1318(3) 0.4686(4) 0.0136(3)
C4_2 C 0.4250(3) 0.4207(4) 0.1540(3)
C6_2 C 0.4835(3) 0.4242(4) 0.1412(3)
C7_2 C 0.3207(3) 0.4205(4) 0.1841(3)
H14_2 H 0.2862 0.4203 0.1945
C10_2 C 0.1400(4) 0.1947(5) 0.1428(3)
H17_2 H 0.1708 0.2069 0.1294
C11_2 C 0.0365(3) 0.2243(5) 0.0589(3)
C12_2 C 0.6034(3) 0.4032(5) 0.1709(3)
H18_2 H 0.6451 0.3837 0.1966
C13_2 C 0.6599(3) 0.4535(4) 0.1146(3)
C16_2 C 0.0646(4) 0.4836(5) 0.0064(3)
C18_2 C 0.2390(4) 0.4324(6) 0.0458(3)
H21_2 H 0.2819 0.4113 0.0683
C19_2 C 0.5468(3) 0.3931(5) 0.1794(3)
H22_2 H 0.5506 0.3657 0.2104
C20_2 C 0.4127(4) 0.5038(5) 0.0542(3)
C21_2 C 0.0455(4) 0.1758(6) 0.1474(3)
C22_2 C 0.0514(4) 0.4826(5) 0.0502(3)
H24_2 H 0.0857 0.4707 0.0839
C23_2 C 0.3435(3) 0.5037(4) 0.1740(3)
C24_2 C 0.5984(3) 0.4427(4) 0.1238(3)
C25_2 C 0.3948(3) 0.5016(4) 0.1580(3)
H25_2 H 0.4092 0.5565 0.1496
C26_2 C 0.0656(4) 0.2060(5) 0.0251(3)
H26_2 H 0.1074 0.1775 0.0375
C27_2 C 0.3485(3) 0.3377(4) 0.1790(3)
C28_2 C 0.5360(3) 0.4727(5) 0.0860(3)
H27_2 H 0.5323 0.4987 0.0546
C29_2 C 0.0981(4) 0.1579(5) 0.1949(3)
H28_2 H 0.0944 0.1393 0.2251
C32_2 C 0.3134(3) 0.5898(5) 0.1813(3)
C33_2 C 0.1839(4) 0.4309(7) 0.0567(4)
H31_2 H 0.1826 0.4087 0.0872
C34_2 C 0.3225(3) 0.2505(5) 0.1917(3)
Ni4 Ni 0.71899(4) 0.50586(6) 0.03944(3)
O16_2 O 0.8001(2) 0.4635(4) 0.1100(2)
H37_2 H 0.8271 0.5094 0.1258
H38_2 H 0.7857 0.4411 0.1319
O18_2 O 0.7088(2) 0.3696(3) 0.0136(2)
H39_2 H 0.7253 0.3319 0.0407
O21_2 O 0.7384(3) 0.6423(4) 0.0698(2)
H43_2 H 0.7207 0.6531 0.0920
H44_2 H 0.7822 0.6523 0.0875
C47_2 C 0.9701(4) 0.7679(5) 0.0288(3)
H50_2 H 0.9517 0.7784 0.0523
H62_2 H 0.9934 0.6679 0.1238
N13 N 0.7795(3) 0.5305(4) 0.0027(2)
Ni2_2 Ni 0.28101(4) 0.49414(6) 0.96056(3)
O3_2 O 0.1999(2) 0.5365(4) 0.8900(2)
H1_2 H 0.1729 0.4906 0.8742
H2_2 H 0.2143 0.5589 0.8681
O5_2 O 0.2912(2) 0.6304(3) 0.9864(2)
H3_2 H 0.2747 0.6681 0.9593
O8_2 O 0.2616(3) 0.3577(4) 0.9302(2)
H7_2 H 0.2793 0.3469 0.9080
H8_2 H 0.2178 0.3477 0.9125
N2_2 N 0.2205(3) 0.4695(4) 0.9973(2)
C5_2 C 0.0139(4) 0.5005(5) 0.9570(3)
H13_2 H 0.0233 0.5006 0.9278
C8_2 C 0.0299(4) 0.2321(5) 0.9712(3)
H15_2 H 0.0483 0.2216 0.9477
C17_2 C 0.1566(4) 0.4903(5) 0.9794(3)
H20_2 H 0.1312 0.5172 0.9465
H30_2 H 0.0066 0.3321 0.8762
O14_2 O 0.2841(2) 0.5721(3) 0.84863(19)
O15_2 O 0.7131(2) 0.7396(3) 0.78401(19)
O17_2 O 0.6352(2) 0.5504(3) 0.97232(18)
H40_2 H 0.6663 0.3551 0.9944
O19_2 O 0.3475(2) 0.5119(4) 0.9280(2)
O20_2 O 0.7812(2) 0.7165(3) 0.71568(19)
H41_2 H 0.8115 0.6859 0.7418
H42_2 H 0.7481 0.6798 0.6975
O23_2 O 0.6648(3) 0.8248(3) 0.8231(2)
N9_2 N 0.8427(3) 0.8289(4) 0.8080(2)
O24_2 O 0.6730(3) 0.3351(3) 0.8347(2)
O25_2 O 0.7120(2) 0.9414(3) 0.7729(2)
H45_2 H 0.6800 0.9694 0.7468
H46_2 H 0.6968 0.9232 0.7948
N12_2 N 0.9267(3) 0.8010(4) 0.8860(2)
C41_2 C 0.5216(3) 0.5358(4) 0.9053(3)
O26_2 O 0.5879(3) 0.4115(4) 0.9502(3)
C43_2 C 0.5986(3) 0.6610(4) 0.8356(3)
H48_2 H 0.5791 0.7160 0.8384
C44_2 C 0.5750(3) 0.5793(4) 0.8460(3)
C45_2 C 0.5165(3) 0.5758(4) 0.8588(3)
C46_2 C 0.6793(3) 0.5795(4) 0.8159(3)
H49_2 H 0.7138 0.5797 0.8055
C49_2 C 0.8600(4) 0.8053(5) 0.8572(3)
H52_2 H 0.8292 0.7931 0.8706
C50_2 C 0.9635(3) 0.7757(5) 0.9411(3)
C51_2 C 0.3966(3) 0.5968(5) 0.8291(3)
H53_2 H 0.3549 0.6163 0.8034
C52_2 C 0.3401(3) 0.5465(4) 0.8854(3)
C55_2 C 0.4532(3) 0.6069(5) 0.8206(3)
H55_2 H 0.4494 0.6343 0.7896
C56_2 C 0.5873(4) 0.4962(5) 0.9458(3)
C57_2 C 0.9545(4) 0.8242(6) 0.8526(3)
C58_2 C 0.6565(3) 0.4963(4) 0.8260(3)
C59_2 C 0.4016(3) 0.5573(4) 0.8762(3)
C60_2 C 0.6052(3) 0.4984(4) 0.8420(3)
H57_2 H 0.5908 0.4435 0.8504
C61_2 C 0.9344(4) 0.7940(5) 0.9749(3)
H58_2 H 0.8926 0.8225 0.9625
C62_2 C 0.6515(3) 0.6623(4) 0.8210(3)
C63_2 C 0.4640(3) 0.5273(5) 0.9140(3)
H59_2 H 0.4677 0.5013 0.9454
C64_2 C 0.9019(4) 0.8421(5) 0.8051(3)
H60_2 H 0.9056 0.8607 0.7749
C67_2 C 0.6866(3) 0.4102(5) 0.8187(3)
C68_2 C 0.6775(3) 0.7495(5) 0.8083(3)
C2_2 C 0.9736(3) 0.2637(5) 0.0406(3)
H11_2 H 0.9545 0.2737 0.0638
H23_2 H 0.9999 0.1729 0.1390
C35_2 C 0.9861(4) 0.4995(5) 0.0430(3)
H32_2 H 0.9767 0.4994 0.0722
C37_2 C 0.8434(4) 0.5097(5) 0.0206(3)
H33_2 H 0.8688 0.4828 0.0535
N4_2 N 0.9322(3) 0.2991(4) 0.8989(2)
C9_2 C 0.9387(4) 0.2883(5) 0.9878(3)
H16_2 H 0.8962 0.3148 0.9755
C14_2 C 0.9667(4) 0.2737(5) 0.9536(3)
C15_2 C 0.8653(3) 0.2997(5) 0.8693(3)
H19_2 H 0.8342 0.2848 0.8820
C30_2 C 0.9087(4) 0.3412(5) 0.8184(3)
H29_2 H 0.9133 0.3605 0.7887
C31_2 C 0.9609(4) 0.3258(5) 0.8668(3)
N8_2 N 0.8682(3) 0.5314(4) 0.9864(3)
C36_2 C 0.9354(4) 0.5164(5) 0.9936(3)
C38_2 C 0.7610(4) 0.5676(6) 0.9542(3)
H34_2 H 0.7181 0.5887 0.9317
C39_2 C 0.9486(4) 0.5174(5) 0.9498(3)
H35_2 H 0.9143 0.5293 0.9161
C40_2 C 0.8161(4) 0.5691(7) 0.9433(4)
H36_2 H 0.8174 0.5913 0.9128
Ni4_2 Ni 0.21899(4) 0.00586(6) 0.03944(3)
H37_3 H 0.3271 0.0094 0.1258
O21_3 O 0.2384(3) 0.1423(4) 0.0698(2)
H43_3 H 0.2207 0.1531 0.0920
H44_3 H 0.2822 0.1523 0.0875
N10_2 N 0.6512(3) 0.1754(4) 0.1805(2)
N11_3 N 0.5678(3) 0.2009(4) 0.1011(2)
C47_3 C 0.4701(4) 0.2679(5) 0.0288(3)
H50_3 H 0.4517 0.2784 0.0523
C48_3 C 0.5613(4) 0.2117(5) 0.0122(3)
H51_3 H 0.6038 0.1852 0.0245
C53_3 C 0.5333(4) 0.2263(5) 0.0464(3)
C54_3 C 0.6347(3) 0.2003(5) 0.1307(3)
H54_3 H 0.6658 0.2152 0.1180
C65_3 C 0.5913(4) 0.1588(5) 0.1816(3)
H61_3 H 0.5867 0.1395 0.2113
C66_3 C 0.5391(4) 0.1742(5) 0.1332(3)
H62_3 H 0.4934 0.1679 0.1238
Ni5 Ni 0.74601(4) 0.17163(5) 0.24430(3)
N13_2 N 0.2795(3) 0.0305(4) 0.0027(2)
Ni3_2 Ni 0.24601(4) 0.32837(5) 0.74430(3)
O15_3 O 0.2131(2) 0.2396(3) 0.78401(19)
O17_3 O 0.1352(2) 0.0504(3) 0.97232(18)
O20_3 O 0.2812(2) 0.2165(3) 0.71568(19)
H41_3 H 0.3115 0.1859 0.7418
H42_3 H 0.2481 0.1798 0.6975
O23_3 O 0.1648(3) 0.3248(3) 0.8231(2)
N9_3 N 0.3427(3) 0.3289(4) 0.8080(2)
O25_3 O 0.2120(2) 0.4414(3) 0.7729(2)
H45_3 H 0.1800 0.4694 0.7468
H46_3 H 0.1968 0.4232 0.7948
N12_3 N 0.4267(3) 0.3010(4) 0.8860(2)
C41_3 C 0.0216(3) 0.0358(4) 0.9053(3)
C42_3 C 0.5264(3) 0.2363(5) 0.9594(3)
H47_3 H 0.5455 0.2263 0.9362
C43_3 C 0.0986(3) 0.1610(4) 0.8356(3)
H48_3 H 0.0791 0.2160 0.8384
C44_3 C 0.0750(3) 0.0793(4) 0.8460(3)
C45_3 C 0.0165(3) 0.0758(4) 0.8588(3)
C46_3 C 0.1793(3) 0.0795(4) 0.8159(3)
H49_3 H 0.2138 0.0797 0.8055
C49_3 C 0.3600(4) 0.3053(5) 0.8572(3)
H52_3 H 0.3292 0.2931 0.8706
C50_3 C 0.4635(3) 0.2757(5) 0.9411(3)
C57_3 C 0.4545(4) 0.3242(6) 0.8526(3)
H56_3 H 0.5001 0.3271 0.8610
C61_3 C 0.4344(4) 0.2940(5) 0.9749(3)
H58_3 H 0.3926 0.3225 0.9625
C62_3 C 0.1515(3) 0.1623(4) 0.8210(3)
C64_3 C 0.4019(4) 0.3421(5) 0.8051(3)
H60_3 H 0.4056 0.3607 0.7749
C68_3 C 0.1775(3) 0.2495(5) 0.8083(3)
O28_2 O 0.2771(2) 0.4171(3) 0.7045(2)
N14_2 N 0.1512(3) 0.3246(4) 0.6805(2)
O1_3 O 0.2159(2) 0.9279(3) 0.15137(19)
O6_3 O 0.1525(2) 0.9881(4) 0.0720(2)
C12_3 C 0.1034(3) 0.9032(5) 0.1709(3)
H18_3 H 0.1451 0.8837 0.1966
C13_3 C 0.1599(3) 0.9535(4) 0.1146(3)
C19_3 C 0.0468(3) 0.8931(5) 0.1794(3)
H22_3 H 0.0506 0.8657 0.2104
C24_3 C 0.0984(3) 0.9427(4) 0.1238(3)
C28_3 C 0.0360(3) 0.9727(5) 0.0860(3)
H27_3 H 0.0323 0.9987 0.0546
O16_3 O 0.3001(2) 0.9635(4) 0.1100(2)
H38_3 H 0.2857 0.9411 0.1319
O18_3 O 0.2088(2) 0.8696(3) 0.0136(2)
H39_3 H 0.2253 0.8319 0.0407
H40_3 H 0.1663 0.8551 0.9944
O22_2 O 0.2229(2) 0.9171(3) 0.7955(2)
O24_3 O 0.1730(3) 0.8351(3) 0.8347(2)
O26_3 O 0.0879(3) 0.9115(4) 0.9502(3)
C56_3 C 0.0873(4) 0.9962(5) 0.9458(3)
C58_3 C 0.1565(3) 0.9963(4) 0.8260(3)
C60_3 C 0.1052(3) 0.9984(4) 0.8420(3)
H57_3 H 0.0908 0.9435 0.8504
C67_3 C 0.1866(3) 0.9102(5) 0.8187(3)
Ni7 Ni 0.25399(4) 0.82837(5) 0.75570(3)
H4_3 H 0.8337 0.1449 0.0056
O9_2 O 0.7771(2) 0.0829(3) 0.2045(2)
O11_3 O 0.8270(3) 0.1649(3) 0.1653(2)
O13_3 O 0.9121(3) 0.0885(4) 0.0498(3)
C20_3 C 0.9127(4) 0.0038(5) 0.0542(3)
C23_3 C 0.8435(3) 0.0037(4) 0.1740(3)
C25_3 C 0.8948(3) 0.0016(4) 0.1580(3)
H25_3 H 0.9092 0.0565 0.1496
C32_3 C 0.8134(3) 0.0898(5) 0.1813(3)
C37_3 C 0.3434(4) 0.0097(5) 0.0206(3)
O3_3 O 0.6999(2) 0.0365(4) 0.8900(2)
H2_3 H 0.7143 0.0589 0.8681
O5_3 O 0.7912(2) 0.1304(3) 0.9864(2)
H3_3 H 0.7747 0.1681 0.9593
C5_3 C 0.5139(4) 0.0005(5) 0.9570(3)
H13_3 H 0.5233 0.0006 0.9278
H20_3 H 0.6312 0.0172 0.9465
N8_3 N 0.3682(3) 0.0314(4) 0.9864(3)
C36_3 C 0.4354(4) 0.0164(5) 0.9936(3)
C38_3 C 0.2610(4) 0.0676(6) 0.9542(3)
H34_3 H 0.2181 0.0887 0.9317
C39_3 C 0.4486(4) 0.0174(5) 0.9498(3)
H35_3 H 0.4143 0.0293 0.9161
C40_3 C 0.3161(4) 0.0691(7) 0.9433(4)
H36_3 H 0.3174 0.0913 0.9128
O14_3 O 0.7841(2) 0.0721(3) 0.84863(19)
O19_3 O 0.8475(2) 0.0119(4) 0.9280(2)
C51_3 C 0.8966(3) 0.0968(5) 0.8291(3)
H53_3 H 0.8549 0.1163 0.8034
C52_3 C 0.8401(3) 0.0465(4) 0.8854(3)
C55_3 C 0.9532(3) 0.1069(5) 0.8206(3)
H55_3 H 0.9494 0.1343 0.7896
C59_3 C 0.9016(3) 0.0573(4) 0.8762(3)
C63_3 C 0.9640(3) 0.0273(5) 0.9140(3)
H59_3 H 0.9677 0.0013 0.9454
Ni1_2 Ni 0.75399(4) 0.67163(5) 0.25570(3)
O2_3 O 0.7869(2) 0.7604(3) 0.21599(19)
O4_3 O 0.8648(2) 0.9496(3) 0.02768(18)
O7_3 O 0.7188(2) 0.7835(3) 0.28432(19)
H5_3 H 0.6885 0.8141 0.2582
H6_3 H 0.7519 0.8202 0.3025
O10_3 O 0.8352(3) 0.6752(3) 0.1769(2)
N1_3 N 0.6573(3) 0.6711(4) 0.1920(2)
O12_3 O 0.7880(2) 0.5586(3) 0.2271(2)
H9_3 H 0.8200 0.5306 0.2532
H10_3 H 0.8032 0.5768 0.2052
N5_3 N 0.5733(3) 0.6990(4) 0.1140(2)
C1_3 C 0.9784(3) 0.9642(4) 0.0947(3)
C2_3 C 0.4736(3) 0.7637(5) 0.0406(3)
H11_3 H 0.4545 0.7737 0.0638
C3_3 C 0.9014(3) 0.8390(4) 0.1644(3)
H12_3 H 0.9209 0.7840 0.1616
N6_3 N 0.6318(3) 0.9686(4) 0.0136(3)
C4_3 C 0.9250(3) 0.9207(4) 0.1540(3)
C6_3 C 0.9835(3) 0.9242(4) 0.1412(3)
C7_3 C 0.8207(3) 0.9205(4) 0.1841(3)
H14_3 H 0.7862 0.9203 0.1945
C10_3 C 0.6400(4) 0.6947(5) 0.1428(3)
H17_3 H 0.6708 0.7069 0.1294
C11_3 C 0.5365(3) 0.7243(5) 0.0589(3)
C16_3 C 0.5646(4) 0.9836(5) 0.0064(3)
C18_3 C 0.7390(4) 0.9324(6) 0.0458(3)
H21_3 H 0.7819 0.9113 0.0683
C21_3 C 0.5455(4) 0.6758(6) 0.1474(3)
H23_3 H 0.4999 0.6729 0.1390
C22_3 C 0.5514(4) 0.9826(5) 0.0502(3)
H24_3 H 0.5857 0.9707 0.0839
C26_3 C 0.5656(4) 0.7060(5) 0.0251(3)
H26_3 H 0.6074 0.6775 0.0375
C27_3 C 0.8485(3) 0.8377(4) 0.1790(3)
C29_3 C 0.5981(4) 0.6579(5) 0.1949(3)
H28_3 H 0.5944 0.6393 0.2251
C33_3 C 0.6839(4) 0.9309(7) 0.0567(4)
H31_3 H 0.6826 0.9087 0.0872
C34_3 C 0.8225(3) 0.7505(5) 0.1917(3)
C35_3 C 0.4861(4) 0.9995(5) 0.0430(3)
H32_3 H 0.4767 0.9994 0.0722
H33_3 H 0.3688 0.9828 0.0535
O27_2 O 0.7229(2) 0.5829(3) 0.2955(2)
N15_2 N 0.8488(3) 0.6754(4) 0.3195(2)
Ni2_3 Ni 0.78101(4) 0.99414(6) 0.96056(3)
H1_3 H 0.6729 0.9906 0.8742
O8_3 O 0.7616(3) 0.8577(4) 0.9302(2)
H7_3 H 0.7793 0.8469 0.9080
H8_3 H 0.7178 0.8477 0.9125
N2_3 N 0.7205(3) 0.9695(4) 0.9973(2)
N3_2 N 0.3488(3) 0.8246(4) 0.8195(2)
N4_3 N 0.4322(3) 0.7991(4) 0.8989(2)
C8_3 C 0.5299(4) 0.7321(5) 0.9712(3)
H15_3 H 0.5483 0.7216 0.9477
C9_3 C 0.4387(4) 0.7883(5) 0.9878(3)
H16_3 H 0.3962 0.8148 0.9755
C14_3 C 0.4667(4) 0.7737(5) 0.9536(3)
C15_3 C 0.3653(3) 0.7997(5) 0.8693(3)
H19_3 H 0.3342 0.7848 0.8820
C17_3 C 0.6566(4) 0.9903(5) 0.9794(3)
C30_3 C 0.4087(4) 0.8412(5) 0.8184(3)
H29_3 H 0.4133 0.8605 0.7887
C31_3 C 0.4609(4) 0.8258(5) 0.8668(3)
H30_3 H 0.5066 0.8321 0.8762
N4_4 N 0.0678(3) 0.2991(4) 0.6011(2)
C2_4 C 0.0264(3) 0.2637(5) 0.4594(3)
H11_4 H 0.0455 0.2737 0.4362
C9_4 C 0.0613(4) 0.2883(5) 0.5122(3)
H16_4 H 0.1038 0.3148 0.5245
C14_4 C 0.0333(4) 0.2737(5) 0.5464(3)
C15_4 C 0.1347(3) 0.2997(5) 0.6307(3)
H19_4 H 0.1658 0.2848 0.6180
H23_4 H 0.0001 0.1729 0.3610
C30_4 C 0.0913(4) 0.3412(5) 0.6816(3)
H29_4 H 0.0867 0.3605 0.7113
C31_4 C 0.0391(4) 0.3258(5) 0.6332(3)
N7_2 N 0.2205(3) 0.5305(4) 0.4973(2)
N8_4 N 0.1318(3) 0.5314(4) 0.5136(3)
C35_4 C 0.0139(4) 0.4995(5) 0.4570(3)
H32_4 H 0.0233 0.4994 0.4278
C36_4 C 0.0646(4) 0.5164(5) 0.5064(3)
C37_4 C 0.1566(4) 0.5097(5) 0.4794(3)
H33_4 H 0.1312 0.4828 0.4465
C38_4 C 0.2390(4) 0.5676(6) 0.5458(3)
H34_4 H 0.2819 0.5887 0.5683
C39_4 C 0.0514(4) 0.5174(5) 0.5502(3)
H35_4 H 0.0857 0.5293 0.5839
C40_4 C 0.1839(4) 0.5691(7) 0.5567(4)
H36_4 H 0.1826 0.5913 0.5872
Ni9_2 Ni 0.28101(4) 0.50586(6) 0.46056(3)
Ni2_4 Ni 0.71899(4) 0.49414(6) 0.53944(3)
O1_4 O 0.2841(2) 0.4279(3) 0.34863(19)
O2_4 O 0.7131(2) 0.2604(3) 0.28401(19)
O3_4 O 0.8001(2) 0.5365(4) 0.6100(2)
H1_4 H 0.8271 0.4906 0.6258
H2_4 H 0.7857 0.5589 0.6319
O4_4 O 0.6352(2) 0.4496(3) 0.47232(18)
O5_4 O 0.7088(2) 0.6304(3) 0.5136(2)
H3_4 H 0.7253 0.6681 0.5407
H4_4 H 0.6663 0.6449 0.4944
O6_4 O 0.3475(2) 0.4881(4) 0.4280(2)
O7_4 O 0.7812(2) 0.2835(3) 0.21568(19)
H5_4 H 0.8115 0.3141 0.2418
H6_4 H 0.7481 0.3202 0.1975
O8_4 O 0.7384(3) 0.3577(4) 0.5698(2)
H7_4 H 0.7207 0.3469 0.5920
H8_4 H 0.7822 0.3477 0.5875
O10_4 O 0.6648(3) 0.1752(3) 0.3231(2)
N1_4 N 0.8427(3) 0.1711(4) 0.3080(2)
O11_4 O 0.6730(3) 0.6649(3) 0.3347(2)
O12_4 O 0.7120(2) 0.0586(3) 0.2729(2)
H9_4 H 0.6800 0.0306 0.2468
H10_4 H 0.6968 0.0768 0.2948
N2_4 N 0.7795(3) 0.4695(4) 0.5027(2)
N5_4 N 0.9267(3) 0.1990(4) 0.3860(2)
C1_4 C 0.5216(3) 0.4642(4) 0.4053(3)
O13_4 O 0.5879(3) 0.5885(4) 0.4502(3)
C3_4 C 0.5986(3) 0.3390(4) 0.3356(3)
H12_4 H 0.5791 0.2840 0.3384
N6_4 N 0.8682(3) 0.4686(4) 0.4864(3)
C4_4 C 0.5750(3) 0.4207(4) 0.3460(3)
C5_4 C 0.9861(4) 0.5005(5) 0.5430(3)
H13_4 H 0.9767 0.5006 0.5722
C6_4 C 0.5165(3) 0.4242(4) 0.3588(3)
C7_4 C 0.6793(3) 0.4205(4) 0.3159(3)
H14_4 H 0.7138 0.4203 0.3055
C8_4 C 0.9701(4) 0.2321(5) 0.5288(3)
H15_4 H 0.9517 0.2216 0.5523
C10_4 C 0.8600(4) 0.1947(5) 0.3572(3)
H17_4 H 0.8292 0.2069 0.3706
C11_4 C 0.9635(3) 0.2243(5) 0.4411(3)
C12_4 C 0.3966(3) 0.4032(5) 0.3291(3)
H18_4 H 0.3549 0.3837 0.3034
C13_4 C 0.3401(3) 0.4535(4) 0.3854(3)
C16_4 C 0.9354(4) 0.4836(5) 0.4936(3)
C17_4 C 0.8434(4) 0.4903(5) 0.5206(3)
H20_4 H 0.8688 0.5172 0.5535
C18_4 C 0.7610(4) 0.4324(6) 0.4542(3)
H21_4 H 0.7181 0.4113 0.4317
C19_4 C 0.4532(3) 0.3931(5) 0.3206(3)
H22_4 H 0.4494 0.3657 0.2896
C20_4 C 0.5873(4) 0.5038(5) 0.4458(3)
C21_4 C 0.9545(4) 0.1758(6) 0.3526(3)
C22_4 C 0.9486(4) 0.4826(5) 0.4498(3)
H24_4 H 0.9143 0.4707 0.4161
C23_4 C 0.6565(3) 0.5037(4) 0.3260(3)
C24_4 C 0.4016(3) 0.4427(4) 0.3762(3)
C25_4 C 0.6052(3) 0.5016(4) 0.3420(3)
H25_4 H 0.5908 0.5565 0.3504
C26_4 C 0.9344(4) 0.2060(5) 0.4749(3)
H26_4 H 0.8926 0.1775 0.4625
C27_4 C 0.6515(3) 0.3377(4) 0.3210(3)
C28_4 C 0.4640(3) 0.4727(5) 0.4140(3)
H27_4 H 0.4677 0.4987 0.4454
C29_4 C 0.9019(4) 0.1579(5) 0.3051(3)
H28_4 H 0.9056 0.1393 0.2749
H30_4 H 0.9934 0.3321 0.6238
C32_4 C 0.6866(3) 0.5898(5) 0.3187(3)
C33_4 C 0.8161(4) 0.4309(7) 0.4433(4)
H31_4 H 0.8174 0.4087 0.4128
C34_4 C 0.6775(3) 0.2505(5) 0.3083(3)
O14_4 O 0.7159(2) 0.5721(3) 0.65137(19)
O15_4 O 0.2869(2) 0.7396(3) 0.71599(19)
O16_4 O 0.1999(2) 0.4635(4) 0.3900(2)
H37_4 H 0.1729 0.5094 0.3742
H38_4 H 0.2143 0.4411 0.3681
O17_4 O 0.3648(2) 0.5504(3) 0.52768(18)
O18_4 O 0.2912(2) 0.3696(3) 0.4864(2)
H39_4 H 0.2747 0.3319 0.4593
H40_4 H 0.3337 0.3551 0.5056
O19_4 O 0.6525(2) 0.5119(4) 0.5720(2)
O20_4 O 0.2188(2) 0.7165(3) 0.78432(19)
H41_4 H 0.1885 0.6859 0.7582
H42_4 H 0.2519 0.6798 0.8025
O21_4 O 0.2616(3) 0.6423(4) 0.4302(2)
H43_4 H 0.2793 0.6531 0.4080
H44_4 H 0.2178 0.6523 0.4125
O23_4 O 0.3352(3) 0.8248(3) 0.6769(2)
N9_4 N 0.1573(3) 0.8289(4) 0.6920(2)
O24_4 O 0.3270(3) 0.3351(3) 0.6653(2)
O25_4 O 0.2880(2) 0.9414(3) 0.7271(2)
H45_4 H 0.3200 0.9694 0.7532
H46_4 H 0.3032 0.9232 0.7052
N12_4 N 0.0733(3) 0.8010(4) 0.6140(2)
C41_4 C 0.4784(3) 0.5358(4) 0.5947(3)
O26_4 O 0.4121(3) 0.4115(4) 0.5498(3)
C43_4 C 0.4014(3) 0.6610(4) 0.6644(3)
H48_4 H 0.4209 0.7160 0.6616
C44_4 C 0.4250(3) 0.5793(4) 0.6540(3)
C45_4 C 0.4835(3) 0.5758(4) 0.6412(3)
C46_4 C 0.3207(3) 0.5795(4) 0.6841(3)
H49_4 H 0.2862 0.5797 0.6945
C47_4 C 0.0299(4) 0.7679(5) 0.4712(3)
H50_4 H 0.0483 0.7784 0.4477
C49_4 C 0.1400(4) 0.8053(5) 0.6428(3)
H52_4 H 0.1708 0.7931 0.6294
C50_4 C 0.0365(3) 0.7757(5) 0.5589(3)
C51_4 C 0.6034(3) 0.5968(5) 0.6709(3)
H53_4 H 0.6451 0.6163 0.6966
C52_4 C 0.6599(3) 0.5465(4) 0.6146(3)
C55_4 C 0.5468(3) 0.6069(5) 0.6794(3)
H55_4 H 0.5506 0.6343 0.7104
C56_4 C 0.4127(4) 0.4962(5) 0.5542(3)
C57_4 C 0.0455(4) 0.8242(6) 0.6474(3)
C58_4 C 0.3435(3) 0.4963(4) 0.6740(3)
C59_4 C 0.5984(3) 0.5573(4) 0.6238(3)
C60_4 C 0.3948(3) 0.4984(4) 0.6580(3)
H57_4 H 0.4092 0.4435 0.6496
C61_4 C 0.0656(4) 0.7940(5) 0.5251(3)
H58_4 H 0.1074 0.8225 0.5375
C62_4 C 0.3485(3) 0.6623(4) 0.6790(3)
C63_4 C 0.5360(3) 0.5273(5) 0.5860(3)
H59_4 H 0.5323 0.5013 0.5546
C64_4 C 0.0981(4) 0.8421(5) 0.6949(3)
H60_4 H 0.0944 0.8607 0.7251
H62_4 H 0.0066 0.6679 0.3762
C67_4 C 0.3134(3) 0.4102(5) 0.6813(3)
C68_4 C 0.3225(3) 0.7495(5) 0.6917(3)
N11_4 N 0.9322(3) 0.7009(4) 0.3989(2)
C42_4 C 0.9736(3) 0.7363(5) 0.5406(3)
H47_4 H 0.9545 0.7263 0.5638
C48_4 C 0.9387(4) 0.7117(5) 0.4878(3)
H51_4 H 0.8962 0.6852 0.4755
C53_4 C 0.9667(4) 0.7263(5) 0.4536(3)
C54_4 C 0.8653(3) 0.7003(5) 0.3693(3)
H54_4 H 0.8342 0.7152 0.3820
H56_4 H 0.9999 0.8271 0.6390
C65_4 C 0.9087(4) 0.6588(5) 0.3184(3)
H61_4 H 0.9133 0.6395 0.2887
C66_4 C 0.9609(4) 0.6742(5) 0.3668(3)
loop_
_geom_bond_atom_site_label_1
_geom_bond_atom_site_label_2
_geom_bond_site_symmetry_1
_geom_bond_site_symmetry_2
H2 O3 1_555 1_555
H3 O5 1_555 1_555
H4 O5 1_555 1_555
O9 C32 1_555 1_555
O11 C32 1_555 1_555
O13 C20 1_555 1_555
C5 H13 1_555 1_555
H25 C25 1_555 1_555
C32 C23 1_555 1_555
N7 C37 1_555 1_555
N8 C36 1_555 1_555
C37 N8 1_555 1_555
C38 N7 1_555 1_555
H34 C38 1_555 1_555
C39 C5 1_555 1_555
H35 C39 1_555 1_555
C40 N8 1_555 1_555
H36 C40 1_555 1_555
O14 C52 1_555 1_555
C51 H53 1_555 1_555
C52 O19 1_555 1_555
H55 C55 1_555 1_555
C59 C51 1_555 1_555
H59 C63 1_555 1_555
Ni6 O9 1_555 1_555
Ni9 N7 1_555 1_555
C23 C25 1_555 1_555
C36 C39 1_555 1_555
C38 C40 1_555 1_555
C51 C55 1_555 1_555
C52 C59 1_555 1_555
C59 C63 1_555 1_555
Ni1 O2 1_555 1_555
O2 C34 1_555 1_555
O4 Ni2 1_555 1_555
O7 Ni1 1_555 1_555
H5 O7 1_555 1_555
H6 O7 1_555 1_555
O8 Ni2 1_555 1_555
H7 O8 1_555 1_555
H8 O8 1_555 1_555
O10 C34 1_555 1_555
N1 Ni1 1_555 1_555
O12 Ni1 1_555 1_555
H9 O12 1_555 1_555
H10 O12 1_555 1_555
N2 Ni2 1_555 1_555
N3 C15 1_555 1_555
N4 C14 1_555 1_555
N5 C10 1_555 1_555
C1 C6 1_555 1_555
C2 H11 1_555 1_555
C3 H12 1_555 1_555
N6 C16 1_555 1_555
C4 C3 1_555 1_555
C6 C4 1_555 1_555
C7 H14 1_555 1_555
C8 H15 1_555 1_555
C9 C2 1_555 1_555
H16 C9 1_555 1_555
C10 N1 1_555 1_555
H17 C10 1_555 1_555
C11 N5 1_555 1_555
C14 C8 1_555 1_555
C15 N4 1_555 1_555
H19 C15 1_555 1_555
C17 N2 1_555 1_555
C18 N2 1_555 1_555
H21 C18 1_555 1_555
C21 N5 1_555 1_555
H23 C21 1_555 1_555
C22 C16 1_555 1_555
H24 C22 1_555 1_555
C26 C8 1_555 1_555
H26 C26 1_555 1_555
C27 C3 1_555 1_555
C29 N1 1_555 1_555
H28 C29 1_555 1_555
C30 N3 1_555 1_555
H29 C30 1_555 1_555
C31 N4 1_555 1_555
H30 C31 1_555 1_555
C33 N6 1_555 1_555
H31 C33 1_555 1_555
C34 C27 1_555 1_555
C35 C22 1_555 1_555
H32 C35 1_555 1_555
Ni8 N3 1_555 1_555
O27 Ni1 1_555 1_555
N15 Ni1 1_555 1_555
C2 C11 1_555 1_555
N6 C17 1_555 1_555
C7 C27 1_555 1_555
C9 C14 1_555 1_555
C11 C26 1_555 1_555
C18 C33 1_555 1_555
C21 C29 1_555 1_555
C30 C31 1_555 1_555
Ni3 O15 1_555 1_555
O15 C68 1_555 1_555
O17 Ni9 1_555 1_555
O20 Ni3 1_555 1_555
H41 O20 1_555 1_555
H42 O20 1_555 1_555
O21 Ni9 1_555 1_555
H43 O21 1_555 1_555
H44 O21 1_555 1_555
O23 C68 1_555 1_555
N9 Ni3 1_555 1_555
O25 Ni3 1_555 1_555
H45 O25 1_555 1_555
H46 O25 1_555 1_555
N10 C54 1_555 1_555
N11 C53 1_555 1_555
N12 C49 1_555 1_555
C41 C45 1_555 1_555
C42 H47 1_555 1_555
C43 H48 1_555 1_555
C44 C43 1_555 1_555
C45 C44 1_555 1_555
C46 H49 1_555 1_555
C47 H50 1_555 1_555
C48 C42 1_555 1_555
H51 C48 1_555 1_555
C49 N9 1_555 1_555
H52 C49 1_555 1_555
C50 N12 1_555 1_555
C53 C47 1_555 1_555
C54 N11 1_555 1_555
H54 C54 1_555 1_555
C57 N12 1_555 1_555
H56 C57 1_555 1_555
C61 C47 1_555 1_555
H58 C61 1_555 1_555
C62 C43 1_555 1_555
C64 N9 1_555 1_555
H60 C64 1_555 1_555
C65 N10 1_555 1_555
H61 C65 1_555 1_555
C66 N11 1_555 1_555
H62 C66 1_555 1_555
C68 C62 1_555 1_555
Ni6 N10 1_555 1_555
O28 Ni3 1_555 1_555
N14 Ni3 1_555 1_555
C42 C50 1_555 1_555
C46 C62 1_555 1_555
C48 C53 1_555 1_555
C50 C61 1_555 1_555
C57 C64 1_555 1_555
C65 C66 1_555 1_555
O1 C13 1_555 1_555
O6 C13 1_555 1_555
C12 H18 1_555 1_555
C13 C24 1_555 1_555
H22 C19 1_555 1_555
C24 C12 1_555 1_555
H27 C28 1_555 1_555
H38 O16 1_555 1_555
H39 O18 1_555 1_555
H40 O18 1_555 1_555
O22 C67 1_555 1_555
O24 C67 1_555 1_555
O26 C56 1_555 1_555
H57 C60 1_555 1_555
C67 C58 1_555 1_555
Ni8 O22 1_555 1_555
C12 C19 1_555 1_555
C24 C28 1_555 1_555
C58 C60 1_555 1_555
N15 C54_2 1_555 1_555
N11_2 C53_2 1_555 1_555
H51_2 C48_2 1_555 1_555
C54_2 N11_2 1_555 1_555
H54_2 C54_2 1_555 1_555
C65_2 N15 1_555 1_555
H61_2 C65_2 1_555 1_555
C66_2 N11_2 1_555 1_555
C48_2 C53_2 1_555 1_555
C65_2 C66_2 1_555 1_555
C42_2 H47_2 1_555 1_555
Ni6 O2_2 1_555 1_555
O1_2 C13_2 1_555 1_555
O2_2 C34_2 1_555 1_555
O6_2 C13_2 1_555 1_555
O7_2 Ni6 1_555 1_555
H5_2 O7_2 1_555 1_555
H6_2 O7_2 1_555 1_555
O27 C32_2 1_555 1_555
O10_2 C34_2 1_555 1_555
N1_2 Ni6 1_555 1_555
O11_2 C32_2 1_555 1_555
O12_2 Ni6 1_555 1_555
H9_2 O12_2 1_555 1_555
H10_2 O12_2 1_555 1_555
N5_2 C10_2 1_555 1_555
C1_2 C6_2 1_555 1_555
O13_2 C20_2 1_555 1_555
C3_2 H12_2 1_555 1_555
N6_2 C16_2 1_555 1_555
C4_2 C3_2 1_555 1_555
C6_2 C4_2 1_555 1_555
C7_2 H14_2 1_555 1_555
C10_2 N1_2 1_555 1_555
H17_2 C10_2 1_555 1_555
C11_2 N5_2 1_555 1_555
C12_2 H18_2 1_555 1_555
C13_2 C24_2 1_555 1_555
H21_2 C18_2 1_555 1_555
C19_2 C6_2 1_555 1_555
H22_2 C19_2 1_555 1_555
C20_2 O4_2 1_555 1_555
C21_2 N5_2 1_555 1_555
C22_2 C16_2 1_555 1_555
H24_2 C22_2 1_555 1_555
C23_2 C7_2 1_555 1_555
C24_2 C12_2 1_555 1_555
C25_2 C4_2 1_555 1_555
H25_2 C25_2 1_555 1_555
H26_2 C26_2 1_555 1_555
C27_2 C3_2 1_555 1_555
C28_2 C1_2 1_555 1_555
H27_2 C28_2 1_555 1_555
C29_2 N1_2 1_555 1_555
H28_2 C29_2 1_555 1_555
C32_2 C23_2 1_555 1_555
C33_2 N6_2 1_555 1_555
H31_2 C33_2 1_555 1_555
C34_2 C27_2 1_555 1_555
Ni4 O6_2 1_555 1_555
O16_2 Ni4 1_555 1_555
H37_2 O16_2 1_555 1_555
H38_2 O16_2 1_555 1_555
O18_2 Ni4 1_555 1_555
H39_2 O18_2 1_555 1_555
O21_2 Ni4 1_555 1_555
H43_2 O21_2 1_555 1_555
H44_2 O21_2 1_555 1_555
C47_2 H50_2 1_555 1_555
N13 Ni4 1_555 1_555
C1_2 C20_2 1_555 1_555
C7_2 C27_2 1_555 1_555
C11_2 C26_2 1_555 1_555
C12_2 C19_2 1_555 1_555
C18_2 C33_2 1_555 1_555
C21_2 C29_2 1_555 1_555
C23_2 C25_2 1_555 1_555
C24_2 C28_2 1_555 1_555
Ni2_2 O3_2 1_555 1_555
O3_2 H1_2 1_555 1_555
H2_2 O3_2 1_555 1_555
O5_2 Ni2_2 1_555 1_555
H3_2 O5_2 1_555 1_555
O8_2 Ni2_2 1_555 1_555
H7_2 O8_2 1_555 1_555
H8_2 O8_2 1_555 1_555
N2_2 Ni2_2 1_555 1_555
C5_2 H13_2 1_555 1_555
C8_2 H15_2 1_555 1_555
C17_2 N2_2 1_555 1_555
H20_2 C17_2 1_555 1_555
Ni8 O15_2 1_555 1_555
O14_2 C52_2 1_555 1_555
O15_2 C68_2 1_555 1_555
O19_2 Ni2_2 1_555 1_555
O20_2 Ni8 1_555 1_555
H41_2 O20_2 1_555 1_555
H42_2 O20_2 1_555 1_555
O28 C67_2 1_555 1_555
O23_2 C68_2 1_555 1_555
N9_2 Ni8 1_555 1_555
O24_2 C67_2 1_555 1_555
O25_2 Ni8 1_555 1_555
H45_2 O25_2 1_555 1_555
H46_2 O25_2 1_555 1_555
N12_2 C49_2 1_555 1_555
C41_2 C45_2 1_555 1_555
O26_2 C56_2 1_555 1_555
C43_2 H48_2 1_555 1_555
C44_2 C43_2 1_555 1_555
C45_2 C44_2 1_555 1_555
C46_2 H49_2 1_555 1_555
C49_2 N9_2 1_555 1_555
H52_2 C49_2 1_555 1_555
C50_2 N12_2 1_555 1_555
C51_2 H53_2 1_555 1_555
C52_2 O19_2 1_555 1_555
C55_2 C45_2 1_555 1_555
H55_2 C55_2 1_555 1_555
C56_2 O17_2 1_555 1_555
C57_2 N12_2 1_555 1_555
C58_2 C46_2 1_555 1_555
C59_2 C51_2 1_555 1_555
C60_2 C44_2 1_555 1_555
H57_2 C60_2 1_555 1_555
H58_2 C61_2 1_555 1_555
C62_2 C43_2 1_555 1_555
C63_2 C41_2 1_555 1_555
H59_2 C63_2 1_555 1_555
C64_2 N9_2 1_555 1_555
H60_2 C64_2 1_555 1_555
C67_2 C58_2 1_555 1_555
C68_2 C62_2 1_555 1_555
C41_2 C56_2 1_555 1_555
C46_2 C62_2 1_555 1_555
C50_2 C61_2 1_555 1_555
C51_2 C55_2 1_555 1_555
C52_2 C59_2 1_555 1_555
C57_2 C64_2 1_555 1_555
C58_2 C60_2 1_555 1_555
C59_2 C63_2 1_555 1_555
C2_2 H11_2 1_555 1_555
N13 C37_2 1_555 1_555
H32_2 C35_2 1_555 1_555
H33_2 C37_2 1_555 1_555
N14 C15_2 1_555 1_555
N4_2 C14_2 1_555 1_555
H16_2 C9_2 1_555 1_555
C15_2 N4_2 1_555 1_555
H19_2 C15_2 1_555 1_555
C30_2 N14 1_555 1_555
H29_2 C30_2 1_555 1_555
C31_2 N4_2 1_555 1_555
N8_2 C36_2 1_555 1_555
H34_2 C38_2 1_555 1_555
H35_2 C39_2 1_555 1_555
C40_2 N8_2 1_555 1_555
H36_2 C40_2 1_555 1_555
C9_2 C14_2 1_555 1_555
C30_2 C31_2 1_555 1_555
C36_2 C39_2 1_555 1_555
C38_2 C40_2 1_555 1_555
O21_3 Ni4_2 1_555 1_555
H43_3 O21_3 1_555 1_555
H44_3 O21_3 1_555 1_555
N10_2 C54_3 1_555 1_555
N11_3 C53_3 1_555 1_555
C47_3 H50_3 1_555 1_555
H51_3 C48_3 1_555 1_555
C53_3 C47_3 1_555 1_555
C54_3 N11_3 1_555 1_555
H54_3 C54_3 1_555 1_555
C65_3 N10_2 1_555 1_555
H61_3 C65_3 1_555 1_555
C66_3 N11_3 1_555 1_555
H62_3 C66_3 1_555 1_555
Ni5 N10_2 1_555 1_555
N13_2 Ni4_2 1_555 1_555
C48_3 C53_3 1_555 1_555
C65_3 C66_3 1_555 1_555
Ni3_2 O15_3 1_555 1_555
O15_3 C68_3 1_555 1_555
O20_3 Ni3_2 1_555 1_555
H41_3 O20_3 1_555 1_555
H42_3 O20_3 1_555 1_555
O23_3 C68_3 1_555 1_555
N9_3 Ni3_2 1_555 1_555
O25_3 Ni3_2 1_555 1_555
H45_3 O25_3 1_555 1_555
H46_3 O25_3 1_555 1_555
N12_3 C49_3 1_555 1_555
C41_3 C45_3 1_555 1_555
C42_3 H47_3 1_555 1_555
C43_3 H48_3 1_555 1_555
C44_3 C43_3 1_555 1_555
C45_3 C44_3 1_555 1_555
C46_3 H49_3 1_555 1_555
C49_3 N9_3 1_555 1_555
H52_3 C49_3 1_555 1_555
C50_3 N12_3 1_555 1_555
C57_3 N12_3 1_555 1_555
H56_3 C57_3 1_555 1_555
H58_3 C61_3 1_555 1_555
C62_3 C43_3 1_555 1_555
C64_3 N9_3 1_555 1_555
H60_3 C64_3 1_555 1_555
C68_3 C62_3 1_555 1_555
O28_2 Ni3_2 1_555 1_555
N14_2 Ni3_2 1_555 1_555
C42_3 C50_3 1_555 1_555
C46_3 C62_3 1_555 1_555
C50_3 C61_3 1_555 1_555
C57_3 C64_3 1_555 1_555
O1_3 C13_3 1_555 1_555
O6_3 C13_3 1_555 1_555
C12_3 H18_3 1_555 1_555
C13_3 C24_3 1_555 1_555
H22_3 C19_3 1_555 1_555
C24_3 C12_3 1_555 1_555
H27_3 C28_3 1_555 1_555
H38_3 O16_3 1_555 1_555
H39_3 O18_3 1_555 1_555
C12_3 C19_3 1_555 1_555
C24_3 C28_3 1_555 1_555
O22_2 C67_3 1_555 1_555
O24_3 C67_3 1_555 1_555
O26_3 C56_3 1_555 1_555
H57_3 C60_3 1_555 1_555
C67_3 C58_3 1_555 1_555
Ni7 O22_2 1_555 1_555
C58_3 C60_3 1_555 1_555
O9_2 C32_3 1_555 1_555
O11_3 C32_3 1_555 1_555
O13_3 C20_3 1_555 1_555
H25_3 C25_3 1_555 1_555
C32_3 C23_3 1_555 1_555
N13_2 C37_3 1_555 1_555
Ni5 O9_2 1_555 1_555
C23_3 C25_3 1_555 1_555
H2_3 O3_3 1_555 1_555
H3_3 O5_3 1_555 1_555
C5_3 H13_3 1_555 1_555
N8_3 C36_3 1_555 1_555
H34_3 C38_3 1_555 1_555
C39_3 C5_3 1_555 1_555
H35_3 C39_3 1_555 1_555
C40_3 N8_3 1_555 1_555
H36_3 C40_3 1_555 1_555
O14_3 C52_3 1_555 1_555
C51_3 H53_3 1_555 1_555
C52_3 O19_3 1_555 1_555
H55_3 C55_3 1_555 1_555
C59_3 C51_3 1_555 1_555
H59_3 C63_3 1_555 1_555
C36_3 C39_3 1_555 1_555
C38_3 C40_3 1_555 1_555
C51_3 C55_3 1_555 1_555
C52_3 C59_3 1_555 1_555
C59_3 C63_3 1_555 1_555
Ni1_2 O2_3 1_555 1_555
O2_3 C34_3 1_555 1_555
O7_3 Ni1_2 1_555 1_555
H5_3 O7_3 1_555 1_555
H6_3 O7_3 1_555 1_555
O10_3 C34_3 1_555 1_555
N1_3 Ni1_2 1_555 1_555
O12_3 Ni1_2 1_555 1_555
H9_3 O12_3 1_555 1_555
H10_3 O12_3 1_555 1_555
N5_3 C10_3 1_555 1_555
C1_3 C6_3 1_555 1_555
C2_3 H11_3 1_555 1_555
C3_3 H12_3 1_555 1_555
N6_3 C16_3 1_555 1_555
C4_3 C3_3 1_555 1_555
C6_3 C4_3 1_555 1_555
C7_3 H14_3 1_555 1_555
C10_3 N1_3 1_555 1_555
H17_3 C10_3 1_555 1_555
C11_3 N5_3 1_555 1_555
H21_3 C18_3 1_555 1_555
C21_3 N5_3 1_555 1_555
H23_3 C21_3 1_555 1_555
C22_3 C16_3 1_555 1_555
H24_3 C22_3 1_555 1_555
H26_3 C26_3 1_555 1_555
C27_3 C3_3 1_555 1_555
C29_3 N1_3 1_555 1_555
H28_3 C29_3 1_555 1_555
C33_3 N6_3 1_555 1_555
H31_3 C33_3 1_555 1_555
C34_3 C27_3 1_555 1_555
C35_3 C22_3 1_555 1_555
H32_3 C35_3 1_555 1_555
O27_2 Ni1_2 1_555 1_555
N15_2 Ni1_2 1_555 1_555
C2_3 C11_3 1_555 1_555
C7_3 C27_3 1_555 1_555
C11_3 C26_3 1_555 1_555
C18_3 C33_3 1_555 1_555
C21_3 C29_3 1_555 1_555
O8_3 Ni2_3 1_555 1_555
H7_3 O8_3 1_555 1_555
H8_3 O8_3 1_555 1_555
N2_3 Ni2_3 1_555 1_555
N3_2 C15_3 1_555 1_555
N4_3 C14_3 1_555 1_555
C8_3 H15_3 1_555 1_555
H16_3 C9_3 1_555 1_555
C14_3 C8_3 1_555 1_555
C15_3 N4_3 1_555 1_555
H19_3 C15_3 1_555 1_555
C17_3 N2_3 1_555 1_555
C30_3 N3_2 1_555 1_555
H29_3 C30_3 1_555 1_555
C31_3 N4_3 1_555 1_555
H30_3 C31_3 1_555 1_555
Ni7 N3_2 1_555 1_555
C9_3 C14_3 1_555 1_555
C30_3 C31_3 1_555 1_555
N14_2 C15_4 1_555 1_555
N4_4 C14_4 1_555 1_555
C2_4 H11_4 1_555 1_555
C9_4 C2_4 1_555 1_555
H16_4 C9_4 1_555 1_555
C15_4 N4_4 1_555 1_555
H19_4 C15_4 1_555 1_555
C30_4 N14_2 1_555 1_555
H29_4 C30_4 1_555 1_555
C31_4 N4_4 1_555 1_555
N7_2 C37_4 1_555 1_555
N8_4 C36_4 1_555 1_555
H32_4 C35_4 1_555 1_555
C36_4 C35_4 1_555 1_555
C37_4 N8_4 1_555 1_555
H33_4 C37_4 1_555 1_555
C38_4 N7_2 1_555 1_555
H34_4 C38_4 1_555 1_555
H35_4 C39_4 1_555 1_555
C40_4 N8_4 1_555 1_555
H36_4 C40_4 1_555 1_555
Ni9_2 N7_2 1_555 1_555
C9_4 C14_4 1_555 1_555
C30_4 C31_4 1_555 1_555
C36_4 C39_4 1_555 1_555
C38_4 C40_4 1_555 1_555
Ni5 O2_4 1_555 1_555
Ni2_4 O3_4 1_555 1_555
O1_4 C13_4 1_555 1_555
O2_4 C34_4 1_555 1_555
O3_4 H1_4 1_555 1_555
H2_4 O3_4 1_555 1_555
O4_4 Ni2_4 1_555 1_555
O5_4 Ni2_4 1_555 1_555
H3_4 O5_4 1_555 1_555
H4_4 O5_4 1_555 1_555
O6_4 C13_4 1_555 1_555
O7_4 Ni5 1_555 1_555
H5_4 O7_4 1_555 1_555
H6_4 O7_4 1_555 1_555
O8_4 Ni2_4 1_555 1_555
H7_4 O8_4 1_555 1_555
H8_4 O8_4 1_555 1_555
O27_2 C32_4 1_555 1_555
O10_4 C34_4 1_555 1_555
N1_4 Ni5 1_555 1_555
O11_4 C32_4 1_555 1_555
O12_4 Ni5 1_555 1_555
H9_4 O12_4 1_555 1_555
H10_4 O12_4 1_555 1_555
N2_4 Ni2_4 1_555 1_555
N5_4 C10_4 1_555 1_555
C1_4 C6_4 1_555 1_555
O13_4 C20_4 1_555 1_555
C3_4 H12_4 1_555 1_555
N6_4 C16_4 1_555 1_555
C4_4 C3_4 1_555 1_555
C5_4 H13_4 1_555 1_555
C6_4 C4_4 1_555 1_555
C7_4 H14_4 1_555 1_555
C8_4 H15_4 1_555 1_555
C10_4 N1_4 1_555 1_555
H17_4 C10_4 1_555 1_555
C11_4 N5_4 1_555 1_555
C12_4 H18_4 1_555 1_555
C13_4 C24_4 1_555 1_555
C16_4 C5_4 1_555 1_555
C17_4 N2_4 1_555 1_555
H20_4 C17_4 1_555 1_555
C18_4 N2_4 1_555 1_555
H21_4 C18_4 1_555 1_555
C19_4 C6_4 1_555 1_555
H22_4 C19_4 1_555 1_555
C20_4 O4_4 1_555 1_555
C21_4 N5_4 1_555 1_555
C22_4 C16_4 1_555 1_555
H24_4 C22_4 1_555 1_555
C23_4 C7_4 1_555 1_555
C24_4 C12_4 1_555 1_555
C25_4 C4_4 1_555 1_555
H25_4 C25_4 1_555 1_555
C26_4 C8_4 1_555 1_555
H26_4 C26_4 1_555 1_555
C27_4 C3_4 1_555 1_555
C28_4 C1_4 1_555 1_555
H27_4 C28_4 1_555 1_555
C29_4 N1_4 1_555 1_555
H28_4 C29_4 1_555 1_555
C32_4 C23_4 1_555 1_555
C33_4 N6_4 1_555 1_555
H31_4 C33_4 1_555 1_555
C34_4 C27_4 1_555 1_555
Ni7 O15_4 1_555 1_555
Ni9_2 O6_4 1_555 1_555
O14_4 C52_4 1_555 1_555
O15_4 C68_4 1_555 1_555
O16_4 Ni9_2 1_555 1_555
H37_4 O16_4 1_555 1_555
H38_4 O16_4 1_555 1_555
O17_4 Ni9_2 1_555 1_555
O18_4 Ni9_2 1_555 1_555
H39_4 O18_4 1_555 1_555
H40_4 O18_4 1_555 1_555
O19_4 Ni2_4 1_555 1_555
O20_4 Ni7 1_555 1_555
H41_4 O20_4 1_555 1_555
H42_4 O20_4 1_555 1_555
O21_4 Ni9_2 1_555 1_555
H43_4 O21_4 1_555 1_555
H44_4 O21_4 1_555 1_555
O28_2 C67_4 1_555 1_555
O23_4 C68_4 1_555 1_555
N9_4 Ni7 1_555 1_555
O24_4 C67_4 1_555 1_555
O25_4 Ni7 1_555 1_555
H45_4 O25_4 1_555 1_555
H46_4 O25_4 1_555 1_555
N12_4 C49_4 1_555 1_555
C41_4 C45_4 1_555 1_555
O26_4 C56_4 1_555 1_555
C43_4 H48_4 1_555 1_555
C44_4 C43_4 1_555 1_555
C45_4 C44_4 1_555 1_555
C46_4 H49_4 1_555 1_555
C47_4 H50_4 1_555 1_555
C49_4 N9_4 1_555 1_555
H52_4 C49_4 1_555 1_555
C50_4 N12_4 1_555 1_555
C51_4 H53_4 1_555 1_555
C52_4 O19_4 1_555 1_555
C55_4 C45_4 1_555 1_555
H55_4 C55_4 1_555 1_555
C56_4 O17_4 1_555 1_555
C57_4 N12_4 1_555 1_555
C58_4 C46_4 1_555 1_555
C59_4 C51_4 1_555 1_555
C60_4 C44_4 1_555 1_555
H57_4 C60_4 1_555 1_555
C61_4 C47_4 1_555 1_555
H58_4 C61_4 1_555 1_555
C62_4 C43_4 1_555 1_555
C63_4 C41_4 1_555 1_555
H59_4 C63_4 1_555 1_555
C64_4 N9_4 1_555 1_555
H60_4 C64_4 1_555 1_555
C67_4 C58_4 1_555 1_555
C68_4 C62_4 1_555 1_555
C1_4 C20_4 1_555 1_555
N6_4 C17_4 1_555 1_555
C7_4 C27_4 1_555 1_555
C11_4 C26_4 1_555 1_555
C12_4 C19_4 1_555 1_555
C18_4 C33_4 1_555 1_555
C21_4 C29_4 1_555 1_555
C23_4 C25_4 1_555 1_555
C24_4 C28_4 1_555 1_555
C41_4 C56_4 1_555 1_555
C46_4 C62_4 1_555 1_555
C50_4 C61_4 1_555 1_555
C51_4 C55_4 1_555 1_555
C52_4 C59_4 1_555 1_555
C57_4 C64_4 1_555 1_555
C58_4 C60_4 1_555 1_555
C59_4 C63_4 1_555 1_555
N15_2 C54_4 1_555 1_555
N11_4 C53_4 1_555 1_555
C42_4 H47_4 1_555 1_555
C48_4 C42_4 1_555 1_555
H51_4 C48_4 1_555 1_555
C54_4 N11_4 1_555 1_555
H54_4 C54_4 1_555 1_555
C65_4 N15_2 1_555 1_555
H61_4 C65_4 1_555 1_555
C66_4 N11_4 1_555 1_555
C48_4 C53_4 1_555 1_555
C65_4 C66_4 1_555 1_555

#END
