
###############################################################################
#
# This file contains modified crystal structure data generated from the
# MOF subset of the Cambridge Structural Database (CSD) v543 
# hosted by the Cambridge Crystallographic Data Centre (CCDC).
#
# This work is licensed under the Creative Commons
# Attribution-NonCommercial-ShareAlike 4.0 International License.
# To view a copy of this license, visit
# http://creativecommons.org/licenses/by-nc-sa/4.0/
# or send a letter to
# Creative Commons, PO Box 1866, Mountain View, CA 94042, USA.
#
# CIF created using the CSD Python API on 29 September 2022
# The structure has been converted into the P1 space group
# The structure has a 3D framework
# The original CSD entry LOFVUY is in the monoclinic crystal system
# The framework has been calculated to contain at least 10.0% void space
# The void calculation uses a probe of radius 1.32A, grid spacing 0.4
#
###############################################################################

data_LOFVUY
_chemical_formula_moiety         '(C176 H168 N24 O106 Tb4 V24)n'
_symmetry_cell_setting           triclinic
_symmetry_space_group_name_H-M   'P 1'
_symmetry_Int_Tables_number      1
_space_group_name_Hall           'P 1'
loop_
_symmetry_equiv_pos_site_id
_symmetry_equiv_pos_as_xyz
1 x,y,z
_cell_length_a                   13.102(4)
_cell_length_b                   26.279(9)
_cell_length_c                   26.104(6)
_cell_angle_alpha                90
_cell_angle_beta                 93.923(5)
_cell_angle_gamma                90
_cell_volume                     8966.74
loop_
_atom_site_label
_atom_site_type_symbol
_atom_site_fract_x
_atom_site_fract_y
_atom_site_fract_z
C11 C 0.300(2) 0.0430(15) 0.3501(17)
C12 C 0.2742(18) 0.0754(13) 0.3077(12)
H17 H 0.2420 0.0646 0.2758
C13 C 0.3051(15) 0.1296(11) 0.3207(11)
H18 H 0.2912 0.1551 0.2954
C14 C 0.3485(12) 0.1427(7) 0.3635(8)
C15 C 0.376(2) 0.118(2) 0.4061(18)
H19 H 0.4081 0.1322 0.4366
C16 C 0.349(3) 0.062(2) 0.3975(19)
H20 H 0.3647 0.0391 0.4247
C17 C 0.3825(9) 0.1947(4) 0.3702(6)
C25 C 0.5291(9) 0.3099(5) 0.2430(5)
H25 H 0.5851 0.3202 0.2656
C26 C 0.5460(8) 0.2946(5) 0.1950(5)
H26 H 0.6137 0.2953 0.1841
C27 C 0.4695(8) 0.2787(4) 0.1625(4)
C28 C 0.3683(9) 0.2798(5) 0.1791(5)
H27 H 0.3115 0.2695 0.1569
C29 C 0.3556(9) 0.2957(5) 0.2266(4)
H28 H 0.2885 0.2966 0.2383
C30 C 0.4851(8) 0.2624(5) 0.1079(5)
C31 C 0.4229(8) 0.2366(6) 0.0223(5)
C32 C 0.4063(9) 0.2563(6) 0.0721(5)
H30 H 0.3390 0.2652 0.0802
C33 C 0.5826(9) 0.2484(6) 0.0943(5)
H31 H 0.6389 0.2510 0.1191
C34 C 0.5982(9) 0.2315(6) 0.0475(6)
H32 H 0.6663 0.2243 0.0393
C40 C 0.1799(8) 0.2822(6) 0.3600(5)
H37 H 0.2207 0.2782 0.3316
C41 C 0.0806(8) 0.2677(5) 0.3562(5)
H38 H 0.0520 0.2532 0.3251
C42 C 0.0209(9) 0.2739(5) 0.3971(5)
C43 C 0.0648(10) 0.2928(7) 0.4407(6)
H39 H 0.0260 0.2950 0.4701
C44 C 0.1631(10) 0.3090(7) 0.4442(5)
H40 H 0.1914 0.3250 0.4746
N3 N 0.2201(7) 0.3020(4) 0.4037(4)
N4 N 0.4353(7) 0.3106(3) 0.2589(4)
N6 N 0.5198(7) 0.2240(4) 0.0104(4)
O20 O 0.3882(6) 0.2256(3) 0.3339(4)
O21 O 0.4039(8) 0.2124(4) 0.4163(4)
O24 O 0.3172(6) 0.3178(3) 0.4085(3)
O25 O 0.4172(5) 0.3293(3) 0.3045(3)
Tb1 Tb 0.47276(4) 0.29012(2) 0.38343(2)
O28 O 0.6234(5) 0.3369(3) 0.3643(3)
O29 O 0.5001(6) 0.3817(3) 0.3957(3)
O30 O 0.6006(6) 0.2302(3) 0.3719(3)
O31 O 0.5399(7) 0.2967(4) 0.4668(3)
H29 H 0.3670 0.2323 0.9975
O27 O 0.5399(7) 0.2033(4) 0.9668(3)
Tb3 Tb 0.47276(4) 0.20988(2) 0.88343(2)
C35 C 0.7509(9) 0.2558(6) 0.3379(5)
H33 H 0.7142 0.2616 0.3058
C36 C 0.8535(8) 0.2648(5) 0.3436(5)
H34 H 0.8884 0.2741 0.3143
C37 C 0.9077(8) 0.2607(5) 0.3898(5)
C38 C 0.8539(10) 0.2469(7) 0.4323(6)
H35 H 0.8873 0.2449 0.4657
C39 C 0.7505(9) 0.2362(6) 0.4240(6)
H36 H 0.7131 0.2267 0.4524
N5 N 0.7024(7) 0.2389(4) 0.3781(5)
C1 C 0.9712(12) 0.6347(5) 0.3213(6)
H2 H 0.9309 0.6274 0.2887
C2 C 0.8138(10) 0.6737(6) 0.3561(6)
H3 H 0.7754 0.6648 0.3233
H4 H 0.7660 0.6720 0.3838
C3 C 0.8994(12) 0.6359(6) 0.3669(6)
C4 C 0.9563(10) 0.6417(5) 0.4186(6)
H5 H 0.9090 0.6379 0.4464
C5 C 0.803(2) 0.5646(8) 0.3274(10)
H7 H 0.8506 0.5601 0.3001
H8 H 0.7523 0.5911 0.3160
C18 C 0.5865(9) 0.3793(5) 0.3761(4)
C19 C 0.6421(12) 0.4269(7) 0.3639(6)
C20 C 0.6040(12) 0.4741(7) 0.3736(6)
H21 H 0.5415 0.4771 0.3898
C21 C 0.6572(19) 0.5187(9) 0.3597(8)
H22 H 0.6298 0.5512 0.3668
C22 C 0.7479(18) 0.5154(9) 0.3362(8)
C23 C 0.7863(14) 0.4666(8) 0.3265(7)
H23 H 0.8489 0.4637 0.3104
C24 C 0.7342(12) 0.4212(6) 0.3401(6)
H24 H 0.7609 0.3885 0.3332
N1 N 0.8545(12) 0.5796(7) 0.3714(6)
H41 H 0.8626 0.5606 0.3991
O4 O 0.8647(7) 0.7150(4) 0.2498(4)
O5 O 0.8525(6) 0.7235(3) 0.3529(3)
O6 O 0.8298(6) 0.7331(4) 0.4541(3)
O11 O 0.8755(6) 0.8065(3) 0.2956(4)
O13 O 0.8566(6) 0.8145(4) 0.3950(4)
O19 O 0.8820(8) 0.9002(4) 0.3402(5)
V3 V 0.93185(17) 0.84590(10) 0.34844(12)
V4 V 0.91427(16) 0.75539(10) 0.41840(9)
V5 V 0.93249(16) 0.74429(10) 0.29457(9)
H1 H 0.0236 0.8922 0.8271
H6 H 0.0107 0.8843 0.9233
C6 C 0.0811(12) 0.5835(6) 0.9031(7)
H9 H 0.1173 0.5757 0.9367
H10 H 0.0282 0.5571 0.8957
C7 C 0.0994(11) 0.5938(4) 0.8063(6)
H11 H 0.0479 0.5668 0.7986
H12 H 0.1497 0.5925 0.7798
C8 C 0.1565(11) 0.5833(6) 0.8614(7)
C9 C 0.2408(10) 0.6224(5) 0.8705(6)
H13 H 0.2899 0.6187 0.8435
H14 H 0.2782 0.6156 0.9040
C10 C 0.277(3) 0.5122(14) 0.8312(15)
H15 H 0.2503 0.5122 0.7948
H16 H 0.3388 0.5336 0.8350
C11_2 C 0.300(2) 0.4570(15) 0.8501(17)
C12_2 C 0.2742(18) 0.4246(13) 0.8077(12)
H17_2 H 0.2420 0.4354 0.7758
C13_2 C 0.3051(15) 0.3704(11) 0.8207(11)
H18_2 H 0.2912 0.3449 0.7954
C14_2 C 0.3485(12) 0.3573(7) 0.8635(8)
C15_2 C 0.376(2) 0.382(2) 0.9061(18)
H19_2 H 0.4081 0.3678 0.9366
C16_2 C 0.349(3) 0.438(2) 0.8975(19)
H20_2 H 0.3647 0.4609 0.9247
C17_2 C 0.3825(9) 0.3053(4) 0.8702(6)
C25_2 C 0.5291(9) 0.1901(5) 0.7430(5)
H25_2 H 0.5851 0.1798 0.7656
C26_2 C 0.5460(8) 0.2054(5) 0.6950(5)
H26_2 H 0.6137 0.2047 0.6841
C27_2 C 0.4695(8) 0.2213(4) 0.6625(4)
C28_2 C 0.3683(9) 0.2202(5) 0.6791(5)
H27_2 H 0.3115 0.2305 0.6569
C29_2 C 0.3556(9) 0.2043(5) 0.7266(4)
H28_2 H 0.2885 0.2034 0.7383
C30_2 C 0.4851(8) 0.2376(5) 0.6079(5)
C31_2 C 0.4229(8) 0.2634(6) 0.5223(5)
H29_2 H 0.3670 0.2677 0.4975
C32_2 C 0.4063(9) 0.2437(6) 0.5721(5)
H30_2 H 0.3390 0.2348 0.5802
C33_2 C 0.5826(9) 0.2516(6) 0.5943(5)
H31_2 H 0.6389 0.2490 0.6191
C34_2 C 0.5982(9) 0.2685(6) 0.5475(6)
H32_2 H 0.6663 0.2757 0.5393
C40_2 C 0.1799(8) 0.2178(6) 0.8600(5)
H37_2 H 0.2207 0.2218 0.8316
C41_2 C 0.0806(8) 0.2323(5) 0.8562(5)
H38_2 H 0.0520 0.2468 0.8251
C42_2 C 0.0209(9) 0.2261(5) 0.8971(5)
C43_2 C 0.0648(10) 0.2072(7) 0.9407(6)
H39_2 H 0.0260 0.2050 0.9701
C44_2 C 0.1631(10) 0.1910(7) 0.9442(5)
H40_2 H 0.1914 0.1750 0.9746
N2 N 0.2004(13) 0.5302(5) 0.8635(7)
H42 H 0.1777 0.5089 0.8861
N3_2 N 0.2201(7) 0.1980(4) 0.9037(4)
N4_2 N 0.4353(7) 0.1894(3) 0.7589(4)
N6_2 N 0.5198(7) 0.2760(4) 0.5104(4)
O1 O 0.1784(7) 0.8467(4) 0.8869(4)
O2 O 0.0199(6) 0.8157(4) 0.8188(3)
O3 O 0.0015(6) 0.8062(3) 0.9195(3)
O7 O 0.1987(5) 0.7639(3) 0.8282(3)
O8 O 0.0458(5) 0.7345(3) 0.7614(3)
O9 O 0.1763(6) 0.7547(4) 0.9294(3)
O10 O 0.0259(5) 0.7245(3) 0.8625(3)
O12 O 0.0071(7) 0.7141(4) 0.9619(4)
O14 O 0.2229(5) 0.6817(3) 0.7681(3)
O15 O 0.2029(5) 0.6735(3) 0.8700(3)
O16 O 0.0497(6) 0.6424(3) 0.8045(3)
O17 O 0.1857(8) 0.6633(5) 0.9738(4)
O18 O 0.0335(7) 0.6328(3) 0.9052(4)
O20_2 O 0.3882(6) 0.2744(3) 0.8339(4)
O21_2 O 0.4039(8) 0.2876(4) 0.9163(4)
O24_2 O 0.3172(6) 0.1822(3) 0.9085(3)
O25_2 O 0.4172(5) 0.1707(3) 0.8045(3)
V1 V 0.13884(14) 0.70389(8) 0.80448(9)
V2 V 0.12083(18) 0.69337(10) 0.92886(10)
V6 V 0.12121(16) 0.79497(9) 0.87497(11)
O28_2 O 0.6234(5) 0.1631(3) 0.8643(3)
O29_2 O 0.5001(6) 0.1183(3) 0.8957(3)
O30_2 O 0.6006(6) 0.2698(3) 0.8719(3)
C18_2 C 0.5865(9) 0.1207(5) 0.8761(4)
C19_2 C 0.6421(12) 0.0731(7) 0.8639(6)
C20_2 C 0.6040(12) 0.0259(7) 0.8736(6)
H21_2 H 0.5415 0.0229 0.8898
C23_2 C 0.7863(14) 0.0334(8) 0.8265(7)
H23_2 H 0.8489 0.0363 0.8104
C24_2 C 0.7342(12) 0.0788(6) 0.8401(6)
H24_2 H 0.7609 0.1115 0.8332
C1_2 C 0.9712(12) 0.8653(5) 0.8213(6)
H2_2 H 0.9309 0.8726 0.7887
C2_2 C 0.8138(10) 0.8263(6) 0.8561(6)
H3_2 H 0.7754 0.8352 0.8233
H4_2 H 0.7660 0.8280 0.8838
C3_2 C 0.8994(12) 0.8641(6) 0.8669(6)
C4_2 C 0.9563(10) 0.8583(5) 0.9186(6)
H5_2 H 0.9090 0.8621 0.9464
C5_2 C 0.803(2) 0.9354(8) 0.8274(10)
H7_2 H 0.8506 0.9399 0.8001
H8_2 H 0.7523 0.9089 0.8160
C21_2 C 0.6572(19) 0.9813(9) 0.8597(8)
H22_2 H 0.6298 0.9488 0.8668
C22_2 C 0.7479(18) 0.9846(9) 0.8362(8)
C35_2 C 0.7509(9) 0.2442(6) 0.8379(5)
H33_2 H 0.7142 0.2384 0.8058
C36_2 C 0.8535(8) 0.2352(5) 0.8436(5)
H34_2 H 0.8884 0.2259 0.8143
C37_2 C 0.9077(8) 0.2393(5) 0.8898(5)
C38_2 C 0.8539(10) 0.2531(7) 0.9323(6)
H35_2 H 0.8873 0.2551 0.9657
C39_2 C 0.7505(9) 0.2638(6) 0.9240(6)
H36_2 H 0.7131 0.2733 0.9524
N1_2 N 0.8545(12) 0.9204(7) 0.8714(6)
H41_2 H 0.8626 0.9394 0.8991
N5_2 N 0.7024(7) 0.2611(4) 0.8781(5)
O4_2 O 0.8647(7) 0.7850(4) 0.7498(4)
O5_2 O 0.8525(6) 0.7765(3) 0.8529(3)
O6_2 O 0.8298(6) 0.7669(4) 0.9541(3)
O11_2 O 0.8755(6) 0.6935(3) 0.7956(4)
O13_2 O 0.8566(6) 0.6855(4) 0.8950(4)
O19_2 O 0.8820(8) 0.5998(4) 0.8402(5)
V3_2 V 0.93185(17) 0.65410(10) 0.84844(12)
V4_2 V 0.91427(16) 0.74461(10) 0.91840(9)
V5_2 V 0.93249(16) 0.75571(10) 0.79457(9)
H1_2 H 0.0236 0.6078 0.3271
H6_2 H 0.0107 0.6157 0.4233
C6_2 C 0.0811(12) 0.9165(6) 0.4031(7)
H9_2 H 0.1173 0.9243 0.4367
H10_2 H 0.0282 0.9429 0.3957
C7_2 C 0.0994(11) 0.9062(4) 0.3063(6)
H11_2 H 0.0479 0.9332 0.2986
H12_2 H 0.1497 0.9075 0.2798
C8_2 C 0.1565(11) 0.9167(6) 0.3614(7)
C9_2 C 0.2408(10) 0.8776(5) 0.3705(6)
H13_2 H 0.2899 0.8813 0.3435
H14_2 H 0.2782 0.8844 0.4040
C10_2 C 0.277(3) 0.9878(14) 0.3312(15)
H15_2 H 0.2503 0.9878 0.2948
H16_2 H 0.3388 0.9664 0.3350
N2_2 N 0.2004(13) 0.9698(5) 0.3635(7)
H42_2 H 0.1777 0.9911 0.3861
O1_2 O 0.1784(7) 0.6533(4) 0.3869(4)
O2_2 O 0.0199(6) 0.6843(4) 0.3188(3)
O3_2 O 0.0015(6) 0.6938(3) 0.4195(3)
O7_2 O 0.1987(5) 0.7361(3) 0.3282(3)
O8_2 O 0.0458(5) 0.7655(3) 0.2614(3)
O9_2 O 0.1763(6) 0.7453(4) 0.4294(3)
O10_2 O 0.0259(5) 0.7755(3) 0.3625(3)
O12_2 O 0.0071(7) 0.7859(4) 0.4619(4)
O14_2 O 0.2229(5) 0.8183(3) 0.2681(3)
O15_2 O 0.2029(5) 0.8265(3) 0.3700(3)
O16_2 O 0.0497(6) 0.8576(3) 0.3045(3)
O17_2 O 0.1857(8) 0.8367(5) 0.4738(4)
O18_2 O 0.0335(7) 0.8672(3) 0.4052(4)
V1_2 V 0.13884(14) 0.79611(8) 0.30448(9)
V2_2 V 0.12083(18) 0.80663(10) 0.42886(10)
V6_2 V 0.12121(16) 0.70503(9) 0.37497(11)
C1_3 C 0.0288(12) 0.1347(5) 0.1787(6)
H2_3 H 0.0691 0.1274 0.2113
C2_3 C 0.1862(10) 0.1737(6) 0.1439(6)
H3_3 H 0.2246 0.1648 0.1767
H4_3 H 0.2340 0.1720 0.1162
C3_3 C 0.1006(12) 0.1359(6) 0.1331(6)
C4_3 C 0.0437(10) 0.1417(5) 0.0814(6)
H5_3 H 0.0910 0.1379 0.0536
C5_3 C 0.197(2) 0.0646(8) 0.1726(10)
H7_3 H 0.1494 0.0601 0.1999
H8_3 H 0.2477 0.0911 0.1840
C21_3 C 0.3428(19) 0.0187(9) 0.1403(8)
H22_3 H 0.3702 0.0512 0.1332
C22_3 C 0.2521(18) 0.0154(9) 0.1638(8)
C35_3 C 0.2491(9) 0.7558(6) 0.1621(5)
H33_3 H 0.2858 0.7616 0.1942
C36_3 C 0.1465(8) 0.7648(5) 0.1564(5)
H34_3 H 0.1116 0.7741 0.1857
C37_3 C 0.0923(8) 0.7607(5) 0.1102(5)
C38_3 C 0.1461(10) 0.7469(7) 0.0677(6)
H35_3 H 0.1127 0.7449 0.0343
C39_3 C 0.2495(9) 0.7362(6) 0.0760(6)
H36_3 H 0.2869 0.7267 0.0476
N1_3 N 0.1455(12) 0.0796(7) 0.1286(6)
H41_3 H 0.1374 0.0606 0.1009
N5_3 N 0.2976(7) 0.7389(4) 0.1219(5)
O4_3 O 0.1353(7) 0.2150(4) 0.2502(4)
O5_3 O 0.1475(6) 0.2235(3) 0.1471(3)
O6_3 O 0.1702(6) 0.2331(4) 0.0459(3)
O11_3 O 0.1245(6) 0.3065(3) 0.2044(4)
O13_3 O 0.1434(6) 0.3145(4) 0.1050(4)
O19_3 O 0.1180(8) 0.4002(4) 0.1598(5)
O26 O 0.3994(6) 0.7302(3) 0.1281(3)
V3_3 V 0.06815(17) 0.34590(10) 0.15156(12)
V4_3 V 0.08573(16) 0.25539(10) 0.08160(9)
V5_3 V 0.06751(16) 0.24429(10) 0.20543(9)
Tb2 Tb 0.52724(4) 0.79012(2) 0.11657(2)
C18_3 C 0.4135(9) 0.8793(5) 0.1239(4)
C19_3 C 0.3579(12) 0.9269(7) 0.1361(6)
C20_3 C 0.3960(12) 0.9741(7) 0.1264(6)
H21_3 H 0.4585 0.9771 0.1102
C23_3 C 0.2137(14) 0.9666(8) 0.1735(7)
H23_3 H 0.1511 0.9637 0.1896
C24_3 C 0.2658(12) 0.9212(6) 0.1599(6)
H24_3 H 0.2391 0.8885 0.1668
O22 O 0.3766(5) 0.8369(3) 0.1357(3)
O23 O 0.4999(6) 0.8817(3) 0.1043(3)
H1_3 H 0.9764 0.1078 0.1729
H6_3 H 0.9893 0.1157 0.0767
C6_3 C 0.9189(12) 0.4165(6) 0.0969(7)
H9_3 H 0.8827 0.4243 0.0633
H10_3 H 0.9718 0.4429 0.1043
C7_3 C 0.9006(11) 0.4062(4) 0.1937(6)
H11_3 H 0.9521 0.4332 0.2014
H12_3 H 0.8503 0.4075 0.2202
C8_3 C 0.8435(11) 0.4167(6) 0.1386(7)
C9_3 C 0.7592(10) 0.3776(5) 0.1295(6)
H13_3 H 0.7101 0.3813 0.1565
H14_3 H 0.7218 0.3844 0.0960
C10_3 C 0.723(3) 0.4878(14) 0.1688(15)
H15_3 H 0.7497 0.4878 0.2052
H16_3 H 0.6612 0.4664 0.1650
C11_3 C 0.700(2) 0.5430(15) 0.1499(17)
C12_3 C 0.7258(18) 0.5754(13) 0.1923(12)
H17_3 H 0.7580 0.5646 0.2242
C13_3 C 0.6949(15) 0.6296(11) 0.1793(11)
H18_3 H 0.7088 0.6551 0.2046
C14_3 C 0.6515(12) 0.6427(7) 0.1365(8)
C15_3 C 0.624(2) 0.618(2) 0.0939(18)
H19_3 H 0.5919 0.6322 0.0634
C16_3 C 0.651(3) 0.562(2) 0.1025(19)
H20_3 H 0.6353 0.5391 0.0753
C17_3 C 0.6175(9) 0.6947(4) 0.1298(6)
C25_3 C 0.4709(9) 0.8099(5) 0.2570(5)
H25_3 H 0.4149 0.8202 0.2344
C26_3 C 0.4540(8) 0.7946(5) 0.3050(5)
H26_3 H 0.3863 0.7953 0.3159
C27_3 C 0.5305(8) 0.7787(4) 0.3375(4)
C28_3 C 0.6317(9) 0.7798(5) 0.3209(5)
H27_3 H 0.6885 0.7695 0.3431
C29_3 C 0.6444(9) 0.7957(5) 0.2734(4)
H28_3 H 0.7115 0.7966 0.2617
C30_3 C 0.5149(8) 0.7624(5) 0.3921(5)
C31_3 C 0.5771(8) 0.7366(6) 0.4777(5)
H29_3 H 0.6330 0.7323 0.5025
C32_3 C 0.5937(9) 0.7563(6) 0.4279(5)
H30_3 H 0.6610 0.7652 0.4198
C33_3 C 0.4174(9) 0.7484(6) 0.4057(5)
H31_3 H 0.3611 0.7510 0.3809
C34_3 C 0.4018(9) 0.7315(6) 0.4525(6)
H32_3 H 0.3337 0.7243 0.4607
C40_3 C 0.8201(8) 0.7822(6) 0.1400(5)
H37_3 H 0.7793 0.7782 0.1684
C41_3 C 0.9194(8) 0.7677(5) 0.1438(5)
H38_3 H 0.9480 0.7532 0.1749
C42_3 C 0.9791(9) 0.7739(5) 0.1029(5)
C43_3 C 0.9352(10) 0.7928(7) 0.0593(6)
H39_3 H 0.9740 0.7950 0.0299
C44_3 C 0.8369(10) 0.8090(7) 0.0558(5)
H40_3 H 0.8086 0.8250 0.0254
N2_3 N 0.7996(13) 0.4698(5) 0.1365(7)
H42_3 H 0.8223 0.4911 0.1139
N3_3 N 0.7799(7) 0.8020(4) 0.0963(4)
N4_3 N 0.5647(7) 0.8106(3) 0.2411(4)
N6_3 N 0.4802(7) 0.7240(4) 0.4896(4)
O1_3 O 0.8216(7) 0.1533(4) 0.1131(4)
O2_3 O 0.9801(6) 0.1843(4) 0.1812(3)
O3_3 O 0.9985(6) 0.1938(3) 0.0805(3)
O7_3 O 0.8013(5) 0.2361(3) 0.1718(3)
O8_3 O 0.9542(5) 0.2655(3) 0.2386(3)
O9_3 O 0.8237(6) 0.2453(4) 0.0706(3)
O10_3 O 0.9741(5) 0.2755(3) 0.1375(3)
O12_3 O 0.9929(7) 0.2859(4) 0.0381(4)
O14_3 O 0.7771(5) 0.3183(3) 0.2319(3)
O15_3 O 0.7971(5) 0.3265(3) 0.1300(3)
O16_3 O 0.9503(6) 0.3576(3) 0.1955(3)
O17_3 O 0.8143(8) 0.3367(5) 0.0262(4)
O18_3 O 0.9665(7) 0.3672(3) 0.0948(4)
O20_3 O 0.6118(6) 0.7256(3) 0.1661(4)
O21_3 O 0.5961(8) 0.7124(4) 0.0837(4)
O24_3 O 0.6828(6) 0.8178(3) 0.0915(3)
O25_3 O 0.5828(5) 0.8293(3) 0.1955(3)
O27_2 O 0.4601(7) 0.7033(4) 0.5332(3)
V1_3 V 0.86116(14) 0.29611(8) 0.19552(9)
V2_3 V 0.87917(18) 0.30663(10) 0.07114(10)
V6_3 V 0.87879(16) 0.20503(9) 0.12503(11)
O31_2 O 0.4601(7) 0.7967(4) 0.0332(3)
Tb3_2 Tb 0.52724(4) 0.70988(2) 0.61657(2)
C1_4 C 0.0288(12) 0.3653(5) 0.6787(6)
H2_4 H 0.0691 0.3726 0.7113
C2_4 C 0.1862(10) 0.3263(6) 0.6439(6)
H3_4 H 0.2246 0.3352 0.6767
H4_4 H 0.2340 0.3280 0.6162
C3_4 C 0.1006(12) 0.3641(6) 0.6331(6)
C4_4 C 0.0437(10) 0.3583(5) 0.5814(6)
H5_4 H 0.0910 0.3621 0.5536
C5_4 C 0.197(2) 0.4354(8) 0.6726(10)
H7_4 H 0.1494 0.4399 0.6999
H8_4 H 0.2477 0.4089 0.6840
C18_4 C 0.4135(9) 0.6207(5) 0.6239(4)
C19_4 C 0.3579(12) 0.5731(7) 0.6361(6)
C20_4 C 0.3960(12) 0.5259(7) 0.6264(6)
H21_4 H 0.4585 0.5229 0.6102
C21_4 C 0.3428(19) 0.4813(9) 0.6403(8)
H22_4 H 0.3702 0.4488 0.6332
C22_4 C 0.2521(18) 0.4846(9) 0.6638(8)
C23_4 C 0.2137(14) 0.5334(8) 0.6735(7)
H23_4 H 0.1511 0.5363 0.6896
C24_4 C 0.2658(12) 0.5788(6) 0.6599(6)
H24_4 H 0.2391 0.6115 0.6668
N1_4 N 0.1455(12) 0.4204(7) 0.6286(6)
H41_4 H 0.1374 0.4394 0.6009
O4_4 O 0.1353(7) 0.2850(4) 0.7502(4)
O5_4 O 0.1475(6) 0.2765(3) 0.6471(3)
O6_4 O 0.1702(6) 0.2669(4) 0.5459(3)
O11_4 O 0.1245(6) 0.1935(3) 0.7044(4)
O13_4 O 0.1434(6) 0.1855(4) 0.6050(4)
O19_4 O 0.1180(8) 0.0998(4) 0.6598(5)
O22_2 O 0.3766(5) 0.6631(3) 0.6357(3)
O23_2 O 0.4999(6) 0.6183(3) 0.6043(3)
V3_4 V 0.06815(17) 0.15410(10) 0.65156(12)
V4_4 V 0.08573(16) 0.24461(10) 0.58160(9)
V5_4 V 0.06751(16) 0.25571(10) 0.70543(9)
C35_4 C 0.2491(9) 0.7442(6) 0.6621(5)
H33_4 H 0.2858 0.7384 0.6942
C36_4 C 0.1465(8) 0.7352(5) 0.6564(5)
H34_4 H 0.1116 0.7259 0.6857
C37_4 C 0.0923(8) 0.7393(5) 0.6102(5)
C38_4 C 0.1461(10) 0.7531(7) 0.5677(6)
H35_4 H 0.1127 0.7551 0.5343
C39_4 C 0.2495(9) 0.7638(6) 0.5760(6)
H36_4 H 0.2869 0.7733 0.5476
N5_4 N 0.2976(7) 0.7611(4) 0.6219(5)
O26_2 O 0.3994(6) 0.7698(3) 0.6281(3)
H29_4 H 0.6330 0.7677 0.0025
C11_4 C 0.700(2) 0.9570(15) 0.6499(17)
C12_4 C 0.7258(18) 0.9246(13) 0.6923(12)
H17_4 H 0.7580 0.9354 0.7242
C13_4 C 0.6949(15) 0.8704(11) 0.6793(11)
H18_4 H 0.7088 0.8449 0.7046
C14_4 C 0.6515(12) 0.8573(7) 0.6365(8)
C15_4 C 0.624(2) 0.882(2) 0.5939(18)
H19_4 H 0.5919 0.8678 0.5634
C16_4 C 0.651(3) 0.938(2) 0.6025(19)
H20_4 H 0.6353 0.9609 0.5753
C17_4 C 0.6175(9) 0.8053(4) 0.6298(6)
C25_4 C 0.4709(9) 0.6901(5) 0.7570(5)
H25_4 H 0.4149 0.6798 0.7344
C26_4 C 0.4540(8) 0.7054(5) 0.8050(5)
H26_4 H 0.3863 0.7047 0.8159
C27_4 C 0.5305(8) 0.7213(4) 0.8375(4)
C28_4 C 0.6317(9) 0.7202(5) 0.8209(5)
H27_4 H 0.6885 0.7305 0.8431
C29_4 C 0.6444(9) 0.7043(5) 0.7734(4)
H28_4 H 0.7115 0.7034 0.7617
C30_4 C 0.5149(8) 0.7376(5) 0.8921(5)
C31_4 C 0.5771(8) 0.7634(6) 0.9777(5)
C32_4 C 0.5937(9) 0.7437(6) 0.9279(5)
H30_4 H 0.6610 0.7348 0.9198
C33_4 C 0.4174(9) 0.7516(6) 0.9057(5)
H31_4 H 0.3611 0.7490 0.8809
C34_4 C 0.4018(9) 0.7685(6) 0.9525(6)
H32_4 H 0.3337 0.7757 0.9607
C40_4 C 0.8201(8) 0.7178(6) 0.6400(5)
H37_4 H 0.7793 0.7218 0.6684
C41_4 C 0.9194(8) 0.7323(5) 0.6438(5)
H38_4 H 0.9480 0.7468 0.6749
C42_4 C 0.9791(9) 0.7261(5) 0.6029(5)
C43_4 C 0.9352(10) 0.7072(7) 0.5593(6)
H39_4 H 0.9740 0.7050 0.5299
C44_4 C 0.8369(10) 0.6910(7) 0.5558(5)
H40_4 H 0.8086 0.6750 0.5254
N3_4 N 0.7799(7) 0.6980(4) 0.5963(4)
N4_4 N 0.5647(7) 0.6894(3) 0.7411(4)
N6_4 N 0.4802(7) 0.7760(4) 0.9896(4)
O20_4 O 0.6118(6) 0.7744(3) 0.6661(4)
O21_4 O 0.5961(8) 0.7876(4) 0.5837(4)
O24_4 O 0.6828(6) 0.6822(3) 0.5915(3)
O25_4 O 0.5828(5) 0.6707(3) 0.6955(3)
H1_4 H 0.9764 0.3922 0.6729
H6_4 H 0.9893 0.3843 0.5767
C6_4 C 0.9189(12) 0.0835(6) 0.5969(7)
H9_4 H 0.8827 0.0757 0.5633
H10_4 H 0.9718 0.0571 0.6043
C7_4 C 0.9006(11) 0.0938(4) 0.6937(6)
H11_4 H 0.9521 0.0668 0.7014
H12_4 H 0.8503 0.0925 0.7202
C8_4 C 0.8435(11) 0.0833(6) 0.6386(7)
C9_4 C 0.7592(10) 0.1224(5) 0.6295(6)
H13_4 H 0.7101 0.1187 0.6565
H14_4 H 0.7218 0.1156 0.5960
C10_4 C 0.723(3) 0.0122(14) 0.6688(15)
H15_4 H 0.7497 0.0122 0.7052
H16_4 H 0.6612 0.0336 0.6650
N2_4 N 0.7996(13) 0.0302(5) 0.6365(7)
H42_4 H 0.8223 0.0089 0.6139
O1_4 O 0.8216(7) 0.3467(4) 0.6131(4)
O2_4 O 0.9801(6) 0.3157(4) 0.6812(3)
O3_4 O 0.9985(6) 0.3062(3) 0.5805(3)
O7_4 O 0.8013(5) 0.2639(3) 0.6718(3)
O8_4 O 0.9542(5) 0.2345(3) 0.7386(3)
O9_4 O 0.8237(6) 0.2547(4) 0.5706(3)
O10_4 O 0.9741(5) 0.2245(3) 0.6375(3)
O12_4 O 0.9929(7) 0.2141(4) 0.5381(4)
O14_4 O 0.7771(5) 0.1817(3) 0.7319(3)
O15_4 O 0.7971(5) 0.1735(3) 0.6300(3)
O16_4 O 0.9503(6) 0.1424(3) 0.6955(3)
O17_4 O 0.8143(8) 0.1633(5) 0.5262(4)
O18_4 O 0.9665(7) 0.1328(3) 0.5948(4)
V1_4 V 0.86116(14) 0.20389(8) 0.69552(9)
V2_4 V 0.87917(18) 0.19337(10) 0.57114(10)
V6_4 V 0.87879(16) 0.29497(9) 0.62503(11)
loop_
_geom_bond_atom_site_label_1
_geom_bond_atom_site_label_2
_geom_bond_site_symmetry_1
_geom_bond_site_symmetry_2
C12 C11 1_555 1_555
H17 C12 1_555 1_555
C13 C12 1_555 1_555
H18 C13 1_555 1_555
C14 C13 1_555 1_555
C15 C14 1_555 1_555
H19 C15 1_555 1_555
C16 C11 1_555 1_555
H20 C16 1_555 1_555
C17 C14 1_555 1_555
C25 H25 1_555 1_555
C26 C25 1_555 1_555
H26 C26 1_555 1_555
C27 C26 1_555 1_555
C28 C27 1_555 1_555
H27 C28 1_555 1_555
C29 C28 1_555 1_555
H28 C29 1_555 1_555
C30 C27 1_555 1_555
C32 C30 1_555 1_555
H30 C32 1_555 1_555
C33 C30 1_555 1_555
H31 C33 1_555 1_555
C34 C33 1_555 1_555
H32 C34 1_555 1_555
C40 H37 1_555 1_555
C41 C40 1_555 1_555
H38 C41 1_555 1_555
C43 C42 1_555 1_555
H39 C43 1_555 1_555
C44 C43 1_555 1_555
H40 C44 1_555 1_555
N3 C40 1_555 1_555
N4 C25 1_555 1_555
N6 C31 1_555 1_555
O20 C17 1_555 1_555
O21 C17 1_555 1_555
O24 N3 1_555 1_555
O25 N4 1_555 1_555
Tb1 O20 1_555 1_555
O28 Tb1 1_555 1_555
O29 Tb1 1_555 1_555
O30 Tb1 1_555 1_555
O31 Tb1 1_555 1_555
C15 C16 1_555 1_555
C29 N4 1_555 1_555
C31 C32 1_555 1_555
C34 N6 1_555 1_555
C41 C42 1_555 1_555
C44 N3 1_555 1_555
O21 Tb1 1_555 1_555
O24 Tb1 1_555 1_555
O25 Tb1 1_555 1_555
Tb3 O27 1_555 1_555
C35 H33 1_555 1_555
C36 C35 1_555 1_555
H34 C36 1_555 1_555
C37 C36 1_555 1_555
C38 C37 1_555 1_555
H35 C38 1_555 1_555
C39 C38 1_555 1_555
H36 C39 1_555 1_555
N5 C35 1_555 1_555
O30 N5 1_555 1_555
C39 N5 1_555 1_555
H2 C1 1_555 1_555
C2 H3 1_555 1_555
H4 C2 1_555 1_555
C3 C1 1_555 1_555
C4 C3 1_555 1_555
H5 C4 1_555 1_555
C5 H7 1_555 1_555
H8 C5 1_555 1_555
C18 C19 1_555 1_555
C19 C20 1_555 1_555
C20 H21 1_555 1_555
C21 C20 1_555 1_555
H22 C21 1_555 1_555
C22 C5 1_555 1_555
C23 C22 1_555 1_555
H23 C23 1_555 1_555
C24 C19 1_555 1_555
H24 C24 1_555 1_555
N1 C3 1_555 1_555
H41 N1 1_555 1_555
O4 V5 1_555 1_555
O5 C2 1_555 1_555
O6 V4 1_555 1_555
O11 V3 1_555 1_555
O13 V3 1_555 1_555
O19 V3 1_555 1_555
O28 C18 1_555 1_555
O29 C18 1_555 1_555
C2 C3 1_555 1_555
C5 N1 1_555 1_555
C21 C22 1_555 1_555
C23 C24 1_555 1_555
O5 V4 1_555 1_555
O5 V5 1_555 1_555
O11 V5 1_555 1_555
O13 V4 1_555 1_555
C6 H9 1_555 1_555
H10 C6 1_555 1_555
C7 H11 1_555 1_555
H12 C7 1_555 1_555
C8 C6 1_555 1_555
C9 C8 1_555 1_555
H13 C9 1_555 1_555
H14 C9 1_555 1_555
C10 H15 1_555 1_555
H16 C10 1_555 1_555
C11_2 C10 1_555 1_555
C12_2 C11_2 1_555 1_555
H17_2 C12_2 1_555 1_555
C13_2 C12_2 1_555 1_555
H18_2 C13_2 1_555 1_555
C14_2 C13_2 1_555 1_555
C15_2 C14_2 1_555 1_555
H19_2 C15_2 1_555 1_555
C16_2 C11_2 1_555 1_555
H20_2 C16_2 1_555 1_555
C17_2 C14_2 1_555 1_555
C25_2 H25_2 1_555 1_555
C26_2 C25_2 1_555 1_555
H26_2 C26_2 1_555 1_555
C27_2 C26_2 1_555 1_555
C28_2 C27_2 1_555 1_555
H27_2 C28_2 1_555 1_555
C29_2 C28_2 1_555 1_555
H28_2 C29_2 1_555 1_555
C30_2 C27_2 1_555 1_555
C31_2 H29_2 1_555 1_555
C32_2 C30_2 1_555 1_555
H30_2 C32_2 1_555 1_555
C33_2 C30_2 1_555 1_555
H31_2 C33_2 1_555 1_555
C34_2 C33_2 1_555 1_555
H32_2 C34_2 1_555 1_555
C40_2 H37_2 1_555 1_555
C41_2 C40_2 1_555 1_555
H38_2 C41_2 1_555 1_555
C43_2 C42_2 1_555 1_555
H39_2 C43_2 1_555 1_555
C44_2 C43_2 1_555 1_555
H40_2 C44_2 1_555 1_555
N2 C8 1_555 1_555
H42 N2 1_555 1_555
N3_2 C40_2 1_555 1_555
N4_2 C25_2 1_555 1_555
N6_2 C31_2 1_555 1_555
O1 V6 1_555 1_555
O7 V1 1_555 1_555
O8 V1 1_555 1_555
O9 V2 1_555 1_555
O10 V1 1_555 1_555
O12 V2 1_555 1_555
O14 V1 1_555 1_555
O15 C9 1_555 1_555
O16 C7 1_555 1_555
O17 V2 1_555 1_555
O18 C6 1_555 1_555
O20_2 C17_2 1_555 1_555
O21_2 C17_2 1_555 1_555
O24_2 N3_2 1_555 1_555
O25_2 N4_2 1_555 1_555
O31 N6_2 1_555 1_555
Tb3 O20_2 1_555 1_555
V1 O15 1_555 1_555
V2 O10 1_555 1_555
V6 O2 1_555 1_555
O28_2 Tb3 1_555 1_555
O29_2 Tb3 1_555 1_555
O30_2 Tb3 1_555 1_555
C7 C8 1_555 1_555
C10 N2 1_555 1_555
C15_2 C16_2 1_555 1_555
C29_2 N4_2 1_555 1_555
C31_2 C32_2 1_555 1_555
C34_2 N6_2 1_555 1_555
C41_2 C42_2 1_555 1_555
C44_2 N3_2 1_555 1_555
O3 V6 1_555 1_555
O7 V6 1_555 1_555
O9 V6 1_555 1_555
O10 V6 1_555 1_555
O15 V2 1_555 1_555
O16 V1 1_555 1_555
O18 V2 1_555 1_555
O21_2 Tb3 1_555 1_555
O24_2 Tb3 1_555 1_555
O25_2 Tb3 1_555 1_555
C18_2 C19_2 1_555 1_555
C19_2 C20_2 1_555 1_555
C20_2 H21_2 1_555 1_555
H23_2 C23_2 1_555 1_555
C24_2 C19_2 1_555 1_555
H24_2 C24_2 1_555 1_555
O28_2 C18_2 1_555 1_555
O29_2 C18_2 1_555 1_555
C23_2 C24_2 1_555 1_555
H2_2 C1_2 1_555 1_555
C2_2 H3_2 1_555 1_555
H4_2 C2_2 1_555 1_555
C3_2 C1_2 1_555 1_555
C4_2 C3_2 1_555 1_555
H5_2 C4_2 1_555 1_555
C5_2 H7_2 1_555 1_555
H8_2 C5_2 1_555 1_555
H22_2 C21_2 1_555 1_555
C22_2 C5_2 1_555 1_555
C35_2 H33_2 1_555 1_555
C36_2 C35_2 1_555 1_555
H34_2 C36_2 1_555 1_555
C37_2 C36_2 1_555 1_555
C38_2 C37_2 1_555 1_555
H35_2 C38_2 1_555 1_555
C39_2 C38_2 1_555 1_555
H36_2 C39_2 1_555 1_555
N1_2 C3_2 1_555 1_555
H41_2 N1_2 1_555 1_555
N5_2 C35_2 1_555 1_555
O4_2 V5_2 1_555 1_555
O5_2 C2_2 1_555 1_555
O6_2 V4_2 1_555 1_555
O11_2 V3_2 1_555 1_555
O13_2 V3_2 1_555 1_555
O19_2 V3_2 1_555 1_555
O30_2 N5_2 1_555 1_555
C2_2 C3_2 1_555 1_555
C5_2 N1_2 1_555 1_555
C21_2 C22_2 1_555 1_555
C39_2 N5_2 1_555 1_555
O5_2 V4_2 1_555 1_555
O5_2 V5_2 1_555 1_555
O11_2 V5_2 1_555 1_555
O13_2 V4_2 1_555 1_555
C6_2 H9_2 1_555 1_555
H10_2 C6_2 1_555 1_555
C7_2 H11_2 1_555 1_555
H12_2 C7_2 1_555 1_555
C8_2 C6_2 1_555 1_555
C9_2 C8_2 1_555 1_555
H13_2 C9_2 1_555 1_555
H14_2 C9_2 1_555 1_555
C10_2 H15_2 1_555 1_555
H16_2 C10_2 1_555 1_555
N2_2 C8_2 1_555 1_555
H42_2 N2_2 1_555 1_555
O1_2 V6_2 1_555 1_555
O7_2 V1_2 1_555 1_555
O8_2 V1_2 1_555 1_555
O9_2 V2_2 1_555 1_555
O10_2 V1_2 1_555 1_555
O12_2 V2_2 1_555 1_555
O14_2 V1_2 1_555 1_555
O15_2 C9_2 1_555 1_555
O16_2 C7_2 1_555 1_555
O17_2 V2_2 1_555 1_555
O18_2 C6_2 1_555 1_555
V1_2 O15_2 1_555 1_555
V2_2 O10_2 1_555 1_555
V6_2 O2_2 1_555 1_555
C7_2 C8_2 1_555 1_555
C10_2 N2_2 1_555 1_555
O3_2 V6_2 1_555 1_555
O7_2 V6_2 1_555 1_555
O9_2 V6_2 1_555 1_555
O10_2 V6_2 1_555 1_555
O15_2 V2_2 1_555 1_555
O16_2 V1_2 1_555 1_555
O18_2 V2_2 1_555 1_555
H2_3 C1_3 1_555 1_555
C2_3 H3_3 1_555 1_555
H4_3 C2_3 1_555 1_555
C3_3 C1_3 1_555 1_555
C4_3 C3_3 1_555 1_555
H5_3 C4_3 1_555 1_555
C5_3 H7_3 1_555 1_555
H8_3 C5_3 1_555 1_555
H22_3 C21_3 1_555 1_555
C22_3 C5_3 1_555 1_555
C35_3 H33_3 1_555 1_555
C36_3 C35_3 1_555 1_555
H34_3 C36_3 1_555 1_555
C37_3 C36_3 1_555 1_555
C38_3 C37_3 1_555 1_555
H35_3 C38_3 1_555 1_555
C39_3 C38_3 1_555 1_555
H36_3 C39_3 1_555 1_555
N1_3 C3_3 1_555 1_555
H41_3 N1_3 1_555 1_555
N5_3 C35_3 1_555 1_555
O4_3 V5_3 1_555 1_555
O5_3 C2_3 1_555 1_555
O6_3 V4_3 1_555 1_555
O11_3 V3_3 1_555 1_555
O13_3 V3_3 1_555 1_555
O19_3 V3_3 1_555 1_555
O26 N5_3 1_555 1_555
Tb2 O26 1_555 1_555
C2_3 C3_3 1_555 1_555
C5_3 N1_3 1_555 1_555
C21_3 C22_3 1_555 1_555
C39_3 N5_3 1_555 1_555
O5_3 V4_3 1_555 1_555
O5_3 V5_3 1_555 1_555
O11_3 V5_3 1_555 1_555
O13_3 V4_3 1_555 1_555
C18_3 C19_3 1_555 1_555
C19_3 C20_3 1_555 1_555
C20_3 H21_3 1_555 1_555
H23_3 C23_3 1_555 1_555
C24_3 C19_3 1_555 1_555
H24_3 C24_3 1_555 1_555
O22 C18_3 1_555 1_555
O23 C18_3 1_555 1_555
Tb2 O22 1_555 1_555
C23_3 C24_3 1_555 1_555
O23 Tb2 1_555 1_555
C6_3 H9_3 1_555 1_555
H10_3 C6_3 1_555 1_555
C7_3 H11_3 1_555 1_555
H12_3 C7_3 1_555 1_555
C8_3 C6_3 1_555 1_555
C9_3 C8_3 1_555 1_555
H13_3 C9_3 1_555 1_555
H14_3 C9_3 1_555 1_555
C10_3 H15_3 1_555 1_555
H16_3 C10_3 1_555 1_555
C11_3 C10_3 1_555 1_555
C12_3 C11_3 1_555 1_555
H17_3 C12_3 1_555 1_555
C13_3 C12_3 1_555 1_555
H18_3 C13_3 1_555 1_555
C14_3 C13_3 1_555 1_555
C15_3 C14_3 1_555 1_555
H19_3 C15_3 1_555 1_555
C16_3 C11_3 1_555 1_555
H20_3 C16_3 1_555 1_555
C17_3 C14_3 1_555 1_555
C25_3 H25_3 1_555 1_555
C26_3 C25_3 1_555 1_555
H26_3 C26_3 1_555 1_555
C27_3 C26_3 1_555 1_555
C28_3 C27_3 1_555 1_555
H27_3 C28_3 1_555 1_555
C29_3 C28_3 1_555 1_555
H28_3 C29_3 1_555 1_555
C30_3 C27_3 1_555 1_555
C31_3 H29_3 1_555 1_555
C32_3 C30_3 1_555 1_555
H30_3 C32_3 1_555 1_555
C33_3 C30_3 1_555 1_555
H31_3 C33_3 1_555 1_555
C34_3 C33_3 1_555 1_555
H32_3 C34_3 1_555 1_555
C40_3 H37_3 1_555 1_555
C41_3 C40_3 1_555 1_555
H38_3 C41_3 1_555 1_555
C43_3 C42_3 1_555 1_555
H39_3 C43_3 1_555 1_555
C44_3 C43_3 1_555 1_555
H40_3 C44_3 1_555 1_555
N2_3 C8_3 1_555 1_555
H42_3 N2_3 1_555 1_555
N3_3 C40_3 1_555 1_555
N4_3 C25_3 1_555 1_555
N6_3 C31_3 1_555 1_555
O1_3 V6_3 1_555 1_555
O7_3 V1_3 1_555 1_555
O8_3 V1_3 1_555 1_555
O9_3 V2_3 1_555 1_555
O10_3 V1_3 1_555 1_555
O12_3 V2_3 1_555 1_555
O14_3 V1_3 1_555 1_555
O15_3 C9_3 1_555 1_555
O16_3 C7_3 1_555 1_555
O17_3 V2_3 1_555 1_555
O18_3 C6_3 1_555 1_555
O20_3 C17_3 1_555 1_555
O21_3 C17_3 1_555 1_555
O24_3 N3_3 1_555 1_555
O25_3 N4_3 1_555 1_555
O27_2 N6_3 1_555 1_555
Tb2 O20_3 1_555 1_555
V1_3 O15_3 1_555 1_555
V2_3 O10_3 1_555 1_555
V6_3 O2_3 1_555 1_555
O31_2 Tb2 1_555 1_555
Tb3_2 O27_2 1_555 1_555
C7_3 C8_3 1_555 1_555
C10_3 N2_3 1_555 1_555
C15_3 C16_3 1_555 1_555
C29_3 N4_3 1_555 1_555
C31_3 C32_3 1_555 1_555
C34_3 N6_3 1_555 1_555
C41_3 C42_3 1_555 1_555
C44_3 N3_3 1_555 1_555
O3_3 V6_3 1_555 1_555
O7_3 V6_3 1_555 1_555
O9_3 V6_3 1_555 1_555
O10_3 V6_3 1_555 1_555
O15_3 V2_3 1_555 1_555
O16_3 V1_3 1_555 1_555
O18_3 V2_3 1_555 1_555
O21_3 Tb2 1_555 1_555
O24_3 Tb2 1_555 1_555
O25_3 Tb2 1_555 1_555
H2_4 C1_4 1_555 1_555
C2_4 H3_4 1_555 1_555
H4_4 C2_4 1_555 1_555
C3_4 C1_4 1_555 1_555
C4_4 C3_4 1_555 1_555
H5_4 C4_4 1_555 1_555
C5_4 H7_4 1_555 1_555
H8_4 C5_4 1_555 1_555
C18_4 C19_4 1_555 1_555
C19_4 C20_4 1_555 1_555
C20_4 H21_4 1_555 1_555
C21_4 C20_4 1_555 1_555
H22_4 C21_4 1_555 1_555
C22_4 C5_4 1_555 1_555
C23_4 C22_4 1_555 1_555
H23_4 C23_4 1_555 1_555
C24_4 C19_4 1_555 1_555
H24_4 C24_4 1_555 1_555
N1_4 C3_4 1_555 1_555
H41_4 N1_4 1_555 1_555
O4_4 V5_4 1_555 1_555
O5_4 C2_4 1_555 1_555
O6_4 V4_4 1_555 1_555
O11_4 V3_4 1_555 1_555
O13_4 V3_4 1_555 1_555
O19_4 V3_4 1_555 1_555
O22_2 C18_4 1_555 1_555
O23_2 C18_4 1_555 1_555
Tb3_2 O22_2 1_555 1_555
C2_4 C3_4 1_555 1_555
C5_4 N1_4 1_555 1_555
C21_4 C22_4 1_555 1_555
C23_4 C24_4 1_555 1_555
O5_4 V4_4 1_555 1_555
O5_4 V5_4 1_555 1_555
O11_4 V5_4 1_555 1_555
O13_4 V4_4 1_555 1_555
O23_2 Tb3_2 1_555 1_555
C35_4 H33_4 1_555 1_555
C36_4 C35_4 1_555 1_555
H34_4 C36_4 1_555 1_555
C37_4 C36_4 1_555 1_555
C38_4 C37_4 1_555 1_555
H35_4 C38_4 1_555 1_555
C39_4 C38_4 1_555 1_555
H36_4 C39_4 1_555 1_555
N5_4 C35_4 1_555 1_555
O26_2 N5_4 1_555 1_555
Tb3_2 O26_2 1_555 1_555
C39_4 N5_4 1_555 1_555
C12_4 C11_4 1_555 1_555
H17_4 C12_4 1_555 1_555
C13_4 C12_4 1_555 1_555
H18_4 C13_4 1_555 1_555
C14_4 C13_4 1_555 1_555
C15_4 C14_4 1_555 1_555
H19_4 C15_4 1_555 1_555
C16_4 C11_4 1_555 1_555
H20_4 C16_4 1_555 1_555
C17_4 C14_4 1_555 1_555
C25_4 H25_4 1_555 1_555
C26_4 C25_4 1_555 1_555
H26_4 C26_4 1_555 1_555
C27_4 C26_4 1_555 1_555
C28_4 C27_4 1_555 1_555
H27_4 C28_4 1_555 1_555
C29_4 C28_4 1_555 1_555
H28_4 C29_4 1_555 1_555
C30_4 C27_4 1_555 1_555
C32_4 C30_4 1_555 1_555
H30_4 C32_4 1_555 1_555
C33_4 C30_4 1_555 1_555
H31_4 C33_4 1_555 1_555
C34_4 C33_4 1_555 1_555
H32_4 C34_4 1_555 1_555
C40_4 H37_4 1_555 1_555
C41_4 C40_4 1_555 1_555
H38_4 C41_4 1_555 1_555
C43_4 C42_4 1_555 1_555
H39_4 C43_4 1_555 1_555
C44_4 C43_4 1_555 1_555
H40_4 C44_4 1_555 1_555
N3_4 C40_4 1_555 1_555
N4_4 C25_4 1_555 1_555
N6_4 C31_4 1_555 1_555
O20_4 C17_4 1_555 1_555
O21_4 C17_4 1_555 1_555
O24_4 N3_4 1_555 1_555
O25_4 N4_4 1_555 1_555
Tb3_2 O20_4 1_555 1_555
C15_4 C16_4 1_555 1_555
C29_4 N4_4 1_555 1_555
C31_4 C32_4 1_555 1_555
C34_4 N6_4 1_555 1_555
C41_4 C42_4 1_555 1_555
C44_4 N3_4 1_555 1_555
O21_4 Tb3_2 1_555 1_555
O24_4 Tb3_2 1_555 1_555
O25_4 Tb3_2 1_555 1_555
C6_4 H9_4 1_555 1_555
H10_4 C6_4 1_555 1_555
C7_4 H11_4 1_555 1_555
H12_4 C7_4 1_555 1_555
C8_4 C6_4 1_555 1_555
C9_4 C8_4 1_555 1_555
H13_4 C9_4 1_555 1_555
H14_4 C9_4 1_555 1_555
C10_4 H15_4 1_555 1_555
H16_4 C10_4 1_555 1_555
N2_4 C8_4 1_555 1_555
H42_4 N2_4 1_555 1_555
O1_4 V6_4 1_555 1_555
O7_4 V1_4 1_555 1_555
O8_4 V1_4 1_555 1_555
O9_4 V2_4 1_555 1_555
O10_4 V1_4 1_555 1_555
O12_4 V2_4 1_555 1_555
O14_4 V1_4 1_555 1_555
O15_4 C9_4 1_555 1_555
O16_4 C7_4 1_555 1_555
O17_4 V2_4 1_555 1_555
O18_4 C6_4 1_555 1_555
V1_4 O15_4 1_555 1_555
V2_4 O10_4 1_555 1_555
V6_4 O2_4 1_555 1_555
C7_4 C8_4 1_555 1_555
C10_4 N2_4 1_555 1_555
O3_4 V6_4 1_555 1_555
O7_4 V6_4 1_555 1_555
O9_4 V6_4 1_555 1_555
O10_4 V6_4 1_555 1_555
O15_4 V2_4 1_555 1_555
O16_4 V1_4 1_555 1_555
O18_4 V2_4 1_555 1_555

#END
