
###############################################################################
#
# This file contains modified crystal structure data generated from the
# MOF subset of the Cambridge Structural Database (CSD) v543 
# hosted by the Cambridge Crystallographic Data Centre (CCDC).
#
# This work is licensed under the Creative Commons
# Attribution-NonCommercial-ShareAlike 4.0 International License.
# To view a copy of this license, visit
# http://creativecommons.org/licenses/by-nc-sa/4.0/
# or send a letter to
# Creative Commons, PO Box 1866, Mountain View, CA 94042, USA.
#
# CIF created using the CSD Python API on 29 September 2022
# The structure has been converted into the P1 space group
# The structure has a 3D framework
# The original CSD entry LOGLAX is in the orthorhombic crystal system
# The framework has been calculated to contain at least 10.0% void space
# The void calculation uses a probe of radius 1.32A, grid spacing 0.4
# The framework is charged, counterions have been retained in the structure
# H atom positions have been added when not included in the experimental data
#
###############################################################################

data_LOGLAX
_chemical_formula_moiety         '(C448 H288 Mg28 O144 P16 4-)n'
_symmetry_cell_setting           triclinic
_symmetry_space_group_name_H-M   'P 1'
_symmetry_Int_Tables_number      1
_space_group_name_Hall           'P 1'
loop_
_symmetry_equiv_pos_site_id
_symmetry_equiv_pos_as_xyz
1 x,y,z
_cell_length_a                   29.3448(4)
_cell_length_b                   23.6598(4)
_cell_length_c                   24.6552(3)
_cell_angle_alpha                90
_cell_angle_beta                 90
_cell_angle_gamma                90
_cell_volume                     17117.9
loop_
_atom_site_label
_atom_site_type_symbol
_atom_site_fract_x
_atom_site_fract_y
_atom_site_fract_z
Mg3 Mg 0.88994(3) 0.20903(4) 0.69182(3)
P2 P 0.61659(2) 0.07612(3) 0.63721(3)
O10 O 0.82621(7) 0.17876(10) 0.68807(8)
O11 O 0.79617(12) 0.1894(3) 0.76863(14)
O12 O 0.60376(7) 0.18883(10) 0.38709(8)
O13 O 0.53163(6) 0.20199(9) 0.41484(8)
O14 O 0.46188(6) 0.20852(7) 0.79523(7)
O15 O 0.42609(6) 0.12821(9) 0.78252(9)
O18 O 0.88016(7) 0.22407(10) 0.77469(8)
C29 C 0.66972(9) 0.10213(12) 0.66189(11)
C30 C 0.71015(12) 0.08652(17) 0.63990(14)
H17 H 0.7108 0.0595 0.6126
C31 C 0.75063(12) 0.11053(18) 0.65779(15)
H18 H 0.7779 0.1008 0.6410
C32 C 0.75090(10) 0.14834(15) 0.69982(12)
C33 C 0.70991(13) 0.16546(19) 0.72399(16)
H19 H 0.7102 0.1912 0.7525
C34 C 0.66903(12) 0.14374(17) 0.70512(16)
H20 H 0.6415 0.1557 0.7200
C35 C 0.79513(11) 0.17342(17) 0.72099(13)
C36 C 0.60386(8) 0.10672(11) 0.57248(10)
C37 C 0.6392(2) 0.1283(3) 0.5395(3)
H21 H 0.6692 0.1265 0.5513
C38 C 0.6290(3) 0.1519(3) 0.4904(4)
H22 H 0.6522 0.1652 0.4680
C39 C 0.58292(9) 0.15603(12) 0.47369(10)
C40 C 0.5492(4) 0.1366(4) 0.5069(6)
H23 H 0.5190 0.1403 0.4961
C41 C 0.5588(4) 0.1118(4) 0.5556(5)
H24 H 0.5353 0.0984 0.5774
C42 C 0.57173(9) 0.18460(13) 0.42033(11)
C43 C 0.57175(9) 0.09771(11) 0.68214(10)
C44 C 0.56423(15) 0.15533(15) 0.68890(18)
H25 H 0.5827 0.1813 0.6710
C45 C 0.52937(14) 0.17420(13) 0.72215(16)
H26 H 0.5252 0.2127 0.7278
C46 C 0.50098(8) 0.13607(11) 0.74672(10)
C47 C 0.50746(10) 0.07924(12) 0.73901(14)
H27 H 0.4877 0.0536 0.7552
C48 C 0.54326(10) 0.05965(12) 0.70729(14)
H28 H 0.5480 0.0210 0.7031
C49 C 0.46070(9) 0.15771(11) 0.77756(10)
C50 C 0.61529(8) 0.00033(12) 0.63379(10)
Mg4 Mg 0.61006(3) 0.20903(4) 0.30818(3)
Mg8 Mg 0.38994(3) 0.20903(4) 0.80818(3)
Mg11 Mg 0.5000 0.2500 0.85662(4)
Mg13 Mg 0.5000 0.2500 0.35662(4)
O19 O 0.89624(7) 0.18883(10) 0.61291(8)
O26 O 0.96188(6) 0.20852(7) 0.70477(7)
O28 O 0.92609(6) 0.12821(9) 0.71748(9)
O30 O 0.88126(7) 0.29301(9) 0.67668(10)
H35 H 0.873196 0.187883 0.793331
H36 H 0.908286 0.240736 0.790364
Mg1 Mg 0.11006(3) 0.29097(4) 0.69182(3)
Mg2 Mg 0.5000 0.7500 0.64338(4)
P1 P 0.38341(2) 0.42388(3) 0.63721(3)
O1 O 0.17379(7) 0.32124(10) 0.68807(8)
O2 O 0.20383(12) 0.3106(3) 0.76863(14)
O3 O 0.39624(7) 0.31117(10) 0.38709(8)
O4 O 0.46837(6) 0.29801(9) 0.41484(8)
O5 O 0.53812(6) 0.29148(7) 0.79523(7)
O6 O 0.57391(6) 0.37179(9) 0.78252(9)
O7 O 0.45077(6) 0.69028(8) 0.64257(8)
O8 O 0.38126(7) 0.70699(9) 0.67668(10)
O9 O 0.11984(7) 0.27593(10) 0.77469(8)
C1 C 0.33028(9) 0.39787(12) 0.66189(11)
C2 C 0.28985(12) 0.41348(17) 0.63990(14)
H1 H 0.2892 0.4405 0.6126
C3 C 0.24937(12) 0.38947(18) 0.65779(15)
H2 H 0.2221 0.3992 0.6410
C4 C 0.24910(10) 0.35166(15) 0.69982(12)
C5 C 0.29009(13) 0.33454(19) 0.72399(16)
H3 H 0.2898 0.3088 0.7525
C6 C 0.33097(12) 0.35626(17) 0.70512(16)
H4 H 0.3585 0.3443 0.7200
C7 C 0.20487(11) 0.32658(17) 0.72099(13)
C8 C 0.39614(8) 0.39328(11) 0.57248(10)
C9 C 0.3608(2) 0.3717(3) 0.5395(3)
H5 H 0.3308 0.3735 0.5513
C10 C 0.3710(3) 0.3481(3) 0.4904(4)
H6 H 0.3478 0.3348 0.4680
C11 C 0.41708(9) 0.34397(12) 0.47369(10)
C12 C 0.4508(4) 0.3634(4) 0.5069(6)
H7 H 0.4810 0.3597 0.4961
C13 C 0.4412(4) 0.3882(4) 0.5556(5)
H8 H 0.4647 0.4016 0.5774
C14 C 0.42827(9) 0.31540(13) 0.42033(11)
C15 C 0.42825(9) 0.40229(11) 0.68214(10)
C16 C 0.43577(15) 0.34467(15) 0.68890(18)
H9 H 0.4173 0.3187 0.6710
C17 C 0.47063(14) 0.32580(13) 0.72215(16)
H10 H 0.4748 0.2873 0.7278
C18 C 0.49902(8) 0.36393(11) 0.74672(10)
C19 C 0.49254(10) 0.42076(12) 0.73901(14)
H11 H 0.5123 0.4464 0.7552
C20 C 0.45674(10) 0.44035(12) 0.70729(14)
H12 H 0.4520 0.4790 0.7031
C21 C 0.53930(9) 0.34229(11) 0.77756(10)
C22 C 0.38471(8) 0.49967(12) 0.63379(10)
C23 C 0.42133(9) 0.52491(12) 0.60707(11)
H13 H 0.4403 0.5034 0.5850
C24 C 0.42919(9) 0.58212(12) 0.61358(11)
H14 H 0.4542 0.5989 0.5969
C25 C 0.39973(9) 0.61488(12) 0.64507(11)
C26 C 0.36182(10) 0.58971(14) 0.66829(15)
H15 H 0.3409 0.6119 0.6870
C27 C 0.35457(9) 0.53202(13) 0.66404(13)
H16 H 0.3298 0.5152 0.6812
C28 C 0.41133(9) 0.67612(12) 0.65540(11)
O16 O 0.54923(6) 0.80972(8) 0.64257(8)
O17 O 0.61874(7) 0.79301(9) 0.67668(10)
C51 C 0.57867(9) 0.97509(12) 0.60707(11)
H29 H 0.5597 0.9966 0.5850
C52 C 0.57081(9) 0.91788(12) 0.61358(11)
H30 H 0.5458 0.9011 0.5969
C53 C 0.60027(9) 0.88512(12) 0.64507(11)
C54 C 0.63818(10) 0.91029(14) 0.66829(15)
H31 H 0.6591 0.8881 0.6870
C55 C 0.64543(9) 0.96798(13) 0.66404(13)
H32 H 0.6702 0.9848 0.6812
C56 C 0.58867(9) 0.82388(12) 0.65540(11)
Mg5 Mg 0.38994(3) 0.29097(4) 0.30818(3)
Mg6 Mg 0.61006(3) 0.29097(4) 0.80818(3)
Mg7 Mg 0.38994(3) 0.79097(4) 0.69182(3)
Mg9 Mg 0.61006(3) 0.70903(4) 0.69182(3)
O20 O 0.10376(7) 0.31117(10) 0.61291(8)
O21 O 0.53163(6) 0.70199(9) 0.58516(8)
O22 O 0.46837(6) 0.79801(9) 0.58516(8)
O23 O 0.46188(6) 0.79148(7) 0.70477(7)
O24 O 0.53812(6) 0.70852(7) 0.70477(7)
O25 O 0.03812(6) 0.29148(7) 0.70477(7)
O27 O 0.07391(6) 0.37179(9) 0.71748(9)
O29 O 0.11874(7) 0.20699(9) 0.67668(10)
H33 H 0.126804 0.312117 0.793331
H34 H 0.0917137 0.259264 0.790364
Mg1_2 Mg 0.38994(3) 0.70903(4) 0.19182(3)
Mg2_2 Mg -0.0000 0.2500 0.14338(4)
P1_2 P 0.11659(2) 0.57612(3) 0.13721(3)
O1_2 O 0.32621(7) 0.67876(10) 0.18807(8)
O2_2 O 0.29617(12) 0.6894(3) 0.26863(14)
O7_2 O 0.04923(6) 0.30972(8) 0.14257(8)
O8_2 O 0.11874(7) 0.29301(9) 0.17668(10)
O9_2 O 0.38016(7) 0.72407(10) 0.27469(8)
C1_2 C 0.16972(9) 0.60213(12) 0.16189(11)
C2_2 C 0.21015(12) 0.58652(17) 0.13990(14)
H1_2 H 0.2108 0.5595 0.1126
C3_2 C 0.25063(12) 0.61053(18) 0.15779(15)
H2_2 H 0.2779 0.6008 0.1410
C4_2 C 0.25090(10) 0.64834(15) 0.19982(12)
C5_2 C 0.20991(13) 0.66546(19) 0.22399(16)
H3_2 H 0.2102 0.6912 0.2525
C6_2 C 0.16903(12) 0.64374(17) 0.20512(16)
H4_2 H 0.1415 0.6557 0.2200
C7_2 C 0.29513(11) 0.67342(17) 0.22099(13)
C8_2 C 0.10386(8) 0.60672(11) 0.07248(10)
C9_2 C 0.1392(2) 0.6283(3) 0.0395(3)
H5_2 H 0.1692 0.6265 0.0513
C12_2 C 0.0492(4) 0.6366(4) 0.0069(6)
C13_2 C 0.0588(4) 0.6118(4) 0.0556(5)
H8_2 H 0.0353 0.5984 0.0774
C15_2 C 0.07175(9) 0.59771(11) 0.18214(10)
C16_2 C 0.06423(15) 0.65533(15) 0.18890(18)
H9_2 H 0.0827 0.6813 0.1710
C17_2 C 0.02937(14) 0.67420(13) 0.22215(16)
H10_2 H 0.0252 0.7127 0.2278
C18_2 C 0.00098(8) 0.63607(11) 0.24672(10)
C19_2 C 0.00746(10) 0.57924(12) 0.23901(14)
C20_2 C 0.04326(10) 0.55965(12) 0.20729(14)
H12_2 H 0.0480 0.5210 0.2031
C22_2 C 0.11529(8) 0.50033(12) 0.13379(10)
C23_2 C 0.07867(9) 0.47509(12) 0.10707(11)
H13_2 H 0.0597 0.4966 0.0850
C24_2 C 0.07081(9) 0.41788(12) 0.11358(11)
H14_2 H 0.0458 0.4011 0.0969
C25_2 C 0.10027(9) 0.38512(12) 0.14507(11)
C26_2 C 0.13818(10) 0.41029(14) 0.16829(15)
H15_2 H 0.1591 0.3881 0.1870
C27_2 C 0.14543(9) 0.46798(13) 0.16404(13)
H16_2 H 0.1702 0.4848 0.1812
C28_2 C 0.08867(9) 0.32388(12) 0.15540(11)
Mg7_2 Mg 0.11006(3) 0.20903(4) 0.19182(3)
Mg10 Mg -0.0000 0.7500 0.35662(4)
O20_2 O 0.39624(7) 0.68883(10) 0.11291(8)
O22_2 O 0.03163(6) 0.20199(9) 0.08516(8)
O23_2 O 0.03812(6) 0.20852(7) 0.20477(7)
O25_2 O 0.46188(6) 0.70852(7) 0.20477(7)
O27_2 O 0.42609(6) 0.62821(9) 0.21748(9)
O29_2 O 0.38126(7) 0.79301(9) 0.17668(10)
H33_2 H 0.373196 0.687883 0.293331
H34_2 H 0.408286 0.740736 0.290364
O3_2 O 0.10376(7) 0.68883(10) 0.88709(8)
O4_2 O 0.03163(6) 0.70199(9) 0.91484(8)
C10_2 C 0.1290(3) 0.6519(3) 0.9904(4)
H6_2 H 0.1522 0.6652 0.9680
C11_2 C 0.08292(9) 0.65603(12) 0.97369(10)
H7_2 H 0.0190 0.6403 0.9961
C14_2 C 0.07173(9) 0.68460(13) 0.92033(11)
Mg5_2 Mg 0.11006(3) 0.70903(4) 0.80818(3)
Mg12 Mg 0.0000 0.7500 0.85662(4)
O14_2 O 0.03812(6) 0.79148(7) 0.29523(7)
O15_2 O 0.07391(6) 0.87179(9) 0.28252(9)
H27_2 H 0.0123 0.9464 0.2552
C49_2 C 0.03930(9) 0.84229(11) 0.27756(10)
Mg8_2 Mg 0.11006(3) 0.79097(4) 0.30818(3)
Mg2_3 Mg 1.0000 0.2500 0.14338(4)
O5_2 O 0.96188(6) 0.70852(7) 0.29523(7)
O6_2 O 0.92609(6) 0.62821(9) 0.28252(9)
H11_2 H 0.9877 0.5536 0.2552
C21_2 C 0.96070(9) 0.65771(11) 0.27756(10)
O16_2 O 0.95077(6) 0.19028(8) 0.14257(8)
O17_2 O 0.88126(7) 0.20699(9) 0.17668(10)
C51_2 C 0.92133(9) 0.02491(12) 0.10707(11)
H29_2 H 0.9403 0.0034 0.0850
C52_2 C 0.92919(9) 0.08212(12) 0.11358(11)
H30_2 H 0.9542 0.0989 0.0969
C53_2 C 0.89973(9) 0.11488(12) 0.14507(11)
C54_2 C 0.86182(10) 0.08971(14) 0.16829(15)
H31_2 H 0.8409 0.1119 0.1870
C55_2 C 0.85457(9) 0.03202(13) 0.16404(13)
H32_2 H 0.8298 0.0152 0.1812
C56_2 C 0.91133(9) 0.17612(12) 0.15540(11)
Mg6_2 Mg 0.88994(3) 0.70903(4) 0.30818(3)
Mg9_2 Mg 0.88994(3) 0.29097(4) 0.19182(3)
Mg10_2 Mg 1.0000 0.7500 0.35662(4)
O21_2 O 0.96837(6) 0.29801(9) 0.08516(8)
O24_2 O 0.96188(6) 0.29148(7) 0.20477(7)
Mg12_2 Mg 1.0000 0.7500 0.85662(4)
Mg3_2 Mg 0.61006(3) 0.79097(4) 0.19182(3)
P2_2 P 0.88341(2) 0.92388(3) 0.13721(3)
O10_2 O 0.67379(7) 0.82124(10) 0.18807(8)
O11_2 O 0.70383(12) 0.8106(3) 0.26863(14)
O18_2 O 0.61984(7) 0.77593(10) 0.27469(8)
C29_2 C 0.83028(9) 0.89787(12) 0.16189(11)
C30_2 C 0.78985(12) 0.91348(17) 0.13990(14)
H17_2 H 0.7892 0.9405 0.1126
C31_2 C 0.74937(12) 0.88947(18) 0.15779(15)
H18_2 H 0.7221 0.8992 0.1410
C32_2 C 0.74910(10) 0.85166(15) 0.19982(12)
C33_2 C 0.79009(13) 0.83454(19) 0.22399(16)
H19_2 H 0.7898 0.8088 0.2525
C34_2 C 0.83097(12) 0.85626(17) 0.20512(16)
H20_2 H 0.8585 0.8443 0.2200
C35_2 C 0.70487(11) 0.82658(17) 0.22099(13)
C36_2 C 0.89614(8) 0.89328(11) 0.07248(10)
C37_2 C 0.8608(2) 0.8717(3) 0.0395(3)
H21_2 H 0.8308 0.8735 0.0513
C40_2 C 0.9508(4) 0.8634(4) 0.0069(6)
C41_2 C 0.9412(4) 0.8882(4) 0.0556(5)
H24_2 H 0.9647 0.9016 0.0774
C43_2 C 0.92825(9) 0.90229(11) 0.18214(10)
C44_2 C 0.93577(15) 0.84467(15) 0.18890(18)
H25_2 H 0.9173 0.8187 0.1710
C45_2 C 0.97063(14) 0.82580(13) 0.22215(16)
H26_2 H 0.9748 0.7873 0.2278
C46_2 C 0.99902(8) 0.86393(11) 0.24672(10)
C47_2 C 0.99254(10) 0.92076(12) 0.23901(14)
C48_2 C 0.95674(10) 0.94035(12) 0.20729(14)
H28_2 H 0.9520 0.9790 0.2031
C50_2 C 0.88471(8) 0.99967(12) 0.13379(10)
O19_2 O 0.60376(7) 0.81117(10) 0.11291(8)
O26_2 O 0.53812(6) 0.79148(7) 0.20477(7)
O28_2 O 0.57391(6) 0.87179(9) 0.21748(9)
O30_2 O 0.61874(7) 0.70699(9) 0.17668(10)
H35_2 H 0.626804 0.812117 0.293331
H36_2 H 0.591714 0.759264 0.290364
O12_2 O 0.89624(7) 0.81117(10) 0.88709(8)
O13_2 O 0.96837(6) 0.79801(9) 0.91484(8)
C38_2 C 0.8710(3) 0.8481(3) 0.9904(4)
H22_2 H 0.8478 0.8348 0.9680
C39_2 C 0.91708(9) 0.84397(12) 0.97369(10)
H23_2 H 0.9810 0.8597 0.9961
C42_2 C 0.92827(9) 0.81540(13) 0.92033(11)
Mg4_2 Mg 0.88994(3) 0.79097(4) 0.80818(3)
O13_3 O 0.46837(6) 0.70199(9) 0.08516(8)
C38_3 C 0.3710(3) 0.6519(3) 0.0096(4)
H22_3 H 0.3478 0.6652 0.0320
C39_3 C 0.41708(9) 0.65603(12) 0.02631(10)
H23_3 H 0.4810 0.6403 0.0039
C42_3 C 0.42827(9) 0.68460(13) 0.07967(11)
Mg13_2 Mg 0.5000 0.7500 0.14338(4)
O7_3 O 0.54923(6) 0.19028(8) 0.85743(8)
O8_3 O 0.61874(7) 0.20699(9) 0.82332(10)
C23_3 C 0.57867(9) 0.02491(12) 0.89293(11)
H13_3 H 0.5597 0.0034 0.9150
C24_3 C 0.57081(9) 0.08212(12) 0.88642(11)
H14_3 H 0.5458 0.0989 0.9031
C25_3 C 0.60027(9) 0.11488(12) 0.85493(11)
C26_3 C 0.63818(10) 0.08971(14) 0.83171(15)
H15_3 H 0.6591 0.1119 0.8130
C27_3 C 0.64543(9) 0.03202(13) 0.83596(13)
H16_3 H 0.6702 0.0152 0.8188
C28_3 C 0.58867(9) 0.17612(12) 0.84460(11)
P2_3 P 0.38341(2) 0.57612(3) 0.86279(3)
O10_3 O 0.17379(7) 0.67876(10) 0.81193(8)
O11_3 O 0.20383(12) 0.6894(3) 0.73137(14)
O15_3 O 0.57391(6) 0.62821(9) 0.71748(9)
O16_3 O 0.45077(6) 0.30972(8) 0.85743(8)
O17_3 O 0.38126(7) 0.29301(9) 0.82332(10)
O18_3 O 0.11984(7) 0.72407(10) 0.72531(8)
C29_3 C 0.33028(9) 0.60213(12) 0.83811(11)
C30_3 C 0.28985(12) 0.58652(17) 0.86010(14)
H17_3 H 0.2892 0.5595 0.8874
C31_3 C 0.24937(12) 0.61053(18) 0.84221(15)
H18_3 H 0.2221 0.6008 0.8590
C32_3 C 0.24910(10) 0.64834(15) 0.80018(12)
C33_3 C 0.29009(13) 0.66546(19) 0.77601(16)
H19_3 H 0.2898 0.6912 0.7475
C34_3 C 0.33097(12) 0.64374(17) 0.79488(16)
H20_3 H 0.3585 0.6557 0.7800
C35_3 C 0.20487(11) 0.67342(17) 0.77901(13)
C36_3 C 0.39614(8) 0.60672(11) 0.92752(10)
C37_3 C 0.3608(2) 0.6283(3) 0.9605(3)
H21_3 H 0.3308 0.6265 0.9487
C40_3 C 0.4508(4) 0.6366(4) 0.9931(6)
C41_3 C 0.4412(4) 0.6118(4) 0.9444(5)
H24_3 H 0.4647 0.5984 0.9226
C43_3 C 0.42825(9) 0.59771(11) 0.81786(10)
C44_3 C 0.43577(15) 0.65533(15) 0.81110(18)
H25_3 H 0.4173 0.6813 0.8290
C45_3 C 0.47063(14) 0.67420(13) 0.77785(16)
H26_3 H 0.4748 0.7127 0.7722
C46_3 C 0.49902(8) 0.63607(11) 0.75328(10)
C47_3 C 0.49254(10) 0.57924(12) 0.76099(14)
H27_3 H 0.5123 0.5536 0.7448
C48_3 C 0.45674(10) 0.55965(12) 0.79271(14)
H28_3 H 0.4520 0.5210 0.7969
C49_3 C 0.53930(9) 0.65771(11) 0.72244(10)
C50_3 C 0.38471(8) 0.50033(12) 0.86621(10)
C51_3 C 0.42133(9) 0.47509(12) 0.89293(11)
H29_3 H 0.4403 0.4966 0.9150
C52_3 C 0.42919(9) 0.41788(12) 0.88642(11)
H30_3 H 0.4542 0.4011 0.9031
C53_3 C 0.39973(9) 0.38512(12) 0.85493(11)
C54_3 C 0.36182(10) 0.41029(14) 0.83171(15)
H31_3 H 0.3409 0.3881 0.8130
C55_3 C 0.35457(9) 0.46798(13) 0.83596(13)
H32_3 H 0.3298 0.4848 0.8188
C56_3 C 0.41133(9) 0.32388(12) 0.84460(11)
O21_3 O 0.46837(6) 0.20199(9) 0.91484(8)
O22_3 O 0.53163(6) 0.29801(9) 0.91484(8)
O26_3 O 0.03812(6) 0.70852(7) 0.79523(7)
O28_3 O 0.07391(6) 0.62821(9) 0.78252(9)
O30_3 O 0.11874(7) 0.79301(9) 0.82332(10)
H35_3 H 0.126804 0.687883 0.706669
H36_3 H 0.0917137 0.740736 0.709636
O4_3 O 0.53163(6) 0.79801(9) 0.08516(8)
C10_3 C 0.6290(3) 0.8481(3) 0.0096(4)
H6_3 H 0.6522 0.8348 0.0320
C11_3 C 0.58292(9) 0.84397(12) 0.02631(10)
H7_3 H 0.5190 0.8597 0.0039
C14_3 C 0.57173(9) 0.81540(13) 0.07967(11)
P1_3 P 0.61659(2) 0.92388(3) 0.86279(3)
O1_3 O 0.82621(7) 0.82124(10) 0.81193(8)
O2_3 O 0.79617(12) 0.8106(3) 0.73137(14)
O6_3 O 0.42609(6) 0.87179(9) 0.71748(9)
O9_3 O 0.88016(7) 0.77593(10) 0.72531(8)
C1_3 C 0.66972(9) 0.89787(12) 0.83811(11)
C2_3 C 0.71015(12) 0.91348(17) 0.86010(14)
H1_3 H 0.7108 0.9405 0.8874
C3_3 C 0.75063(12) 0.88947(18) 0.84221(15)
H2_3 H 0.7779 0.8992 0.8590
C4_3 C 0.75090(10) 0.85166(15) 0.80018(12)
C5_3 C 0.70991(13) 0.83454(19) 0.77601(16)
H3_3 H 0.7102 0.8088 0.7475
C6_3 C 0.66903(12) 0.85626(17) 0.79488(16)
H4_3 H 0.6415 0.8443 0.7800
C7_3 C 0.79513(11) 0.82658(17) 0.77901(13)
C8_3 C 0.60386(8) 0.89328(11) 0.92752(10)
C9_3 C 0.6392(2) 0.8717(3) 0.9605(3)
H5_3 H 0.6692 0.8735 0.9487
C12_3 C 0.5492(4) 0.8634(4) 0.9931(6)
C13_3 C 0.5588(4) 0.8882(4) 0.9444(5)
H8_3 H 0.5353 0.9016 0.9226
C15_3 C 0.57175(9) 0.90229(11) 0.81786(10)
C16_3 C 0.56423(15) 0.84467(15) 0.81110(18)
H9_3 H 0.5827 0.8187 0.8290
C17_3 C 0.52937(14) 0.82580(13) 0.77785(16)
H10_3 H 0.5252 0.7873 0.7722
C18_3 C 0.50098(8) 0.86393(11) 0.75328(10)
C19_3 C 0.50746(10) 0.92076(12) 0.76099(14)
H11_3 H 0.4877 0.9464 0.7448
C20_3 C 0.54326(10) 0.94035(12) 0.79271(14)
H12_3 H 0.5480 0.9790 0.7969
C21_3 C 0.46070(9) 0.84229(11) 0.72244(10)
C22_3 C 0.61529(8) 0.99967(12) 0.86621(10)
O25_3 O 0.96188(6) 0.79148(7) 0.79523(7)
O27_3 O 0.92609(6) 0.87179(9) 0.78252(9)
O29_3 O 0.88126(7) 0.70699(9) 0.82332(10)
H33_3 H 0.873196 0.812117 0.706669
H34_3 H 0.908286 0.759264 0.709636
O6_4 O 0.07391(6) 0.12821(9) 0.21748(9)
H11_4 H 0.0123 0.0536 0.2448
C21_4 C 0.03930(9) 0.15771(11) 0.22244(10)
Mg12_3 Mg 0.0000 0.2500 0.64338(4)
P2_4 P 0.11659(2) 0.42388(3) 0.36279(3)
O10_4 O 0.32621(7) 0.32124(10) 0.31193(8)
O11_4 O 0.29617(12) 0.3106(3) 0.23137(14)
O13_4 O 0.03163(6) 0.29801(9) 0.58516(8)
O16_4 O 0.04923(6) 0.69028(8) 0.35743(8)
O17_4 O 0.11874(7) 0.70699(9) 0.32332(10)
O18_4 O 0.38016(7) 0.27593(10) 0.22531(8)
C29_4 C 0.16972(9) 0.39787(12) 0.33811(11)
C30_4 C 0.21015(12) 0.41348(17) 0.36010(14)
H17_4 H 0.2108 0.4405 0.3874
C31_4 C 0.25063(12) 0.38947(18) 0.34221(15)
H18_4 H 0.2779 0.3992 0.3590
C32_4 C 0.25090(10) 0.35166(15) 0.30018(12)
C33_4 C 0.20991(13) 0.33454(19) 0.27601(16)
H19_4 H 0.2102 0.3088 0.2475
C34_4 C 0.16903(12) 0.35626(17) 0.29488(16)
H20_4 H 0.1415 0.3443 0.2800
C35_4 C 0.29513(11) 0.32658(17) 0.27901(13)
C36_4 C 0.10386(8) 0.39328(11) 0.42752(10)
C37_4 C 0.1392(2) 0.3717(3) 0.4605(3)
H21_4 H 0.1692 0.3735 0.4487
C38_4 C 0.1290(3) 0.3481(3) 0.5096(4)
H22_4 H 0.1522 0.3348 0.5320
C39_4 C 0.08292(9) 0.34397(12) 0.52631(10)
C40_4 C 0.0492(4) 0.3634(4) 0.4931(6)
H23_4 H 0.0190 0.3597 0.5039
C41_4 C 0.0588(4) 0.3882(4) 0.4444(5)
H24_4 H 0.0353 0.4016 0.4226
C42_4 C 0.07173(9) 0.31540(13) 0.57967(11)
C43_4 C 0.07175(9) 0.40229(11) 0.31786(10)
C44_4 C 0.06423(15) 0.34467(15) 0.31110(18)
H25_4 H 0.0827 0.3187 0.3290
C45_4 C 0.02937(14) 0.32580(13) 0.27785(16)
H26_4 H 0.0252 0.2873 0.2722
C46_4 C 0.00098(8) 0.36393(11) 0.25328(10)
C47_4 C 0.00746(10) 0.42076(12) 0.26099(14)
C48_4 C 0.04326(10) 0.44035(12) 0.29271(14)
H28_4 H 0.0480 0.4790 0.2969
C50_4 C 0.11529(8) 0.49967(12) 0.36621(10)
C51_4 C 0.07867(9) 0.52491(12) 0.39293(11)
H29_4 H 0.0597 0.5034 0.4150
C52_4 C 0.07081(9) 0.58212(12) 0.38642(11)
H30_4 H 0.0458 0.5989 0.4031
C53_4 C 0.10027(9) 0.61488(12) 0.35493(11)
C54_4 C 0.13818(10) 0.58971(14) 0.33171(15)
H31_4 H 0.1591 0.6119 0.3130
C55_4 C 0.14543(9) 0.53202(13) 0.33596(13)
H32_4 H 0.1702 0.5152 0.3188
C56_4 C 0.08867(9) 0.67612(12) 0.34460(11)
O21_4 O 0.03163(6) 0.79801(9) 0.41484(8)
O26_4 O 0.46188(6) 0.29148(7) 0.29523(7)
O28_4 O 0.42609(6) 0.37179(9) 0.28252(9)
O30_4 O 0.38126(7) 0.20699(9) 0.32332(10)
H35_4 H 0.373196 0.312117 0.206669
H36_4 H 0.408286 0.259264 0.209636
P1_4 P 0.88341(2) 0.07612(3) 0.36279(3)
O1_4 O 0.67379(7) 0.17876(10) 0.31193(8)
O2_4 O 0.70383(12) 0.1894(3) 0.23137(14)
O4_4 O 0.96837(6) 0.20199(9) 0.58516(8)
O9_4 O 0.61984(7) 0.22407(10) 0.22531(8)
C1_4 C 0.83028(9) 0.10213(12) 0.33811(11)
C2_4 C 0.78985(12) 0.08652(17) 0.36010(14)
H1_4 H 0.7892 0.0595 0.3874
C3_4 C 0.74937(12) 0.11053(18) 0.34221(15)
H2_4 H 0.7221 0.1008 0.3590
C4_4 C 0.74910(10) 0.14834(15) 0.30018(12)
C5_4 C 0.79009(13) 0.16546(19) 0.27601(16)
H3_4 H 0.7898 0.1912 0.2475
C6_4 C 0.83097(12) 0.14374(17) 0.29488(16)
H4_4 H 0.8585 0.1557 0.2800
C7_4 C 0.70487(11) 0.17342(17) 0.27901(13)
C8_4 C 0.89614(8) 0.10672(11) 0.42752(10)
C9_4 C 0.8608(2) 0.1283(3) 0.4605(3)
H5_4 H 0.8308 0.1265 0.4487
C10_4 C 0.8710(3) 0.1519(3) 0.5096(4)
H6_4 H 0.8478 0.1652 0.5320
C11_4 C 0.91708(9) 0.15603(12) 0.52631(10)
C12_4 C 0.9508(4) 0.1366(4) 0.4931(6)
H7_4 H 0.9810 0.1403 0.5039
C13_4 C 0.9412(4) 0.1118(4) 0.4444(5)
H8_4 H 0.9647 0.0984 0.4226
C14_4 C 0.92827(9) 0.18460(13) 0.57967(11)
C15_4 C 0.92825(9) 0.09771(11) 0.31786(10)
C16_4 C 0.93577(15) 0.15533(15) 0.31110(18)
H9_4 H 0.9173 0.1813 0.3290
C17_4 C 0.97063(14) 0.17420(13) 0.27785(16)
H10_4 H 0.9748 0.2127 0.2722
C18_4 C 0.99902(8) 0.13607(11) 0.25328(10)
C19_4 C 0.99254(10) 0.07924(12) 0.26099(14)
C20_4 C 0.95674(10) 0.05965(12) 0.29271(14)
H12_4 H 0.9520 0.0210 0.2969
C22_4 C 0.88471(8) 0.00033(12) 0.36621(10)
Mg12_4 Mg 1.0000 0.2500 0.64338(4)
O25_4 O 0.53812(6) 0.20852(7) 0.29523(7)
O27_4 O 0.57391(6) 0.12821(9) 0.28252(9)
O29_4 O 0.61874(7) 0.29301(9) 0.32332(10)
H33_4 H 0.626804 0.187883 0.206669
H34_4 H 0.591714 0.240736 0.209636
O7_4 O 0.95077(6) 0.80972(8) 0.35743(8)
O8_4 O 0.88126(7) 0.79301(9) 0.32332(10)
C23_4 C 0.92133(9) 0.97509(12) 0.39293(11)
H13_4 H 0.9403 0.9966 0.4150
C24_4 C 0.92919(9) 0.91788(12) 0.38642(11)
H14_4 H 0.9542 0.9011 0.4031
C25_4 C 0.89973(9) 0.88512(12) 0.35493(11)
C26_4 C 0.86182(10) 0.91029(14) 0.33171(15)
H15_4 H 0.8409 0.8881 0.3130
C27_4 C 0.85457(9) 0.96798(13) 0.33596(13)
H16_4 H 0.8298 0.9848 0.3188
C28_4 C 0.91133(9) 0.82388(12) 0.34460(11)
O15_4 O 0.92609(6) 0.37179(9) 0.21748(9)
H27_4 H 0.9877 0.4464 0.2448
C49_4 C 0.96070(9) 0.34229(11) 0.22244(10)
O22_4 O 0.96837(6) 0.70199(9) 0.41484(8)
P1_5 P 0.61659(2) 0.57612(3) 0.36279(3)
O1_5 O 0.82621(7) 0.67876(10) 0.31193(8)
O2_5 O 0.79617(12) 0.6894(3) 0.23137(14)
O3_3 O 0.60376(7) 0.68883(10) 0.61291(8)
O7_5 O 0.54923(6) 0.30972(8) 0.35743(8)
O9_5 O 0.88016(7) 0.72407(10) 0.22531(8)
C1_5 C 0.66972(9) 0.60213(12) 0.33811(11)
C2_5 C 0.71015(12) 0.58652(17) 0.36010(14)
H1_5 H 0.7108 0.5595 0.3874
C3_5 C 0.75063(12) 0.61053(18) 0.34221(15)
H2_5 H 0.7779 0.6008 0.3590
C4_5 C 0.75090(10) 0.64834(15) 0.30018(12)
C5_5 C 0.70991(13) 0.66546(19) 0.27601(16)
H3_5 H 0.7102 0.6912 0.2475
C6_5 C 0.66903(12) 0.64374(17) 0.29488(16)
H4_5 H 0.6415 0.6557 0.2800
C7_5 C 0.79513(11) 0.67342(17) 0.27901(13)
C8_5 C 0.60386(8) 0.60672(11) 0.42752(10)
C9_5 C 0.6392(2) 0.6283(3) 0.4605(3)
H5_5 H 0.6692 0.6265 0.4487
C10_5 C 0.6290(3) 0.6519(3) 0.5096(4)
H6_5 H 0.6522 0.6652 0.5320
C11_5 C 0.58292(9) 0.65603(12) 0.52631(10)
C12_5 C 0.5492(4) 0.6366(4) 0.4931(6)
H7_5 H 0.5190 0.6403 0.5039
C13_5 C 0.5588(4) 0.6118(4) 0.4444(5)
H8_5 H 0.5353 0.5984 0.4226
C14_5 C 0.57173(9) 0.68460(13) 0.57967(11)
C15_5 C 0.57175(9) 0.59771(11) 0.31786(10)
C16_5 C 0.56423(15) 0.65533(15) 0.31110(18)
H9_5 H 0.5827 0.6813 0.3290
C17_5 C 0.52937(14) 0.67420(13) 0.27785(16)
H10_5 H 0.5252 0.7127 0.2722
C18_5 C 0.50098(8) 0.63607(11) 0.25328(10)
C19_5 C 0.50746(10) 0.57924(12) 0.26099(14)
H11_5 H 0.4877 0.5536 0.2448
C20_5 C 0.54326(10) 0.55965(12) 0.29271(14)
H12_5 H 0.5480 0.5210 0.2969
C21_5 C 0.46070(9) 0.65771(11) 0.22244(10)
C22_5 C 0.61529(8) 0.50033(12) 0.36621(10)
C23_5 C 0.57867(9) 0.47509(12) 0.39293(11)
H13_5 H 0.5597 0.4966 0.4150
C24_5 C 0.57081(9) 0.41788(12) 0.38642(11)
H14_5 H 0.5458 0.4011 0.4031
C25_5 C 0.60027(9) 0.38512(12) 0.35493(11)
C26_5 C 0.63818(10) 0.41029(14) 0.33171(15)
H15_5 H 0.6591 0.3881 0.3130
C27_5 C 0.64543(9) 0.46798(13) 0.33596(13)
H16_5 H 0.6702 0.4848 0.3188
C28_5 C 0.58867(9) 0.32388(12) 0.34460(11)
O16_5 O 0.45077(6) 0.19028(8) 0.35743(8)
C51_5 C 0.42133(9) 0.02491(12) 0.39293(11)
H29_5 H 0.4403 0.0034 0.4150
C52_5 C 0.42919(9) 0.08212(12) 0.38642(11)
H30_5 H 0.4542 0.0989 0.4031
C53_5 C 0.39973(9) 0.11488(12) 0.35493(11)
C54_5 C 0.36182(10) 0.08971(14) 0.33171(15)
H31_5 H 0.3409 0.1119 0.3130
C55_5 C 0.35457(9) 0.03202(13) 0.33596(13)
H32_5 H 0.3298 0.0152 0.3188
C56_5 C 0.41133(9) 0.17612(12) 0.34460(11)
O20_3 O 0.89624(7) 0.68883(10) 0.38709(8)
H33_5 H 0.873196 0.687883 0.206669
H34_5 H 0.908286 0.740736 0.209636
P2_5 P 0.38341(2) 0.92388(3) 0.36279(3)
O10_5 O 0.17379(7) 0.82124(10) 0.31193(8)
O11_5 O 0.20383(12) 0.8106(3) 0.23137(14)
O12_3 O 0.39624(7) 0.81117(10) 0.61291(8)
O18_5 O 0.11984(7) 0.77593(10) 0.22531(8)
C29_5 C 0.33028(9) 0.89787(12) 0.33811(11)
C30_5 C 0.28985(12) 0.91348(17) 0.36010(14)
H17_5 H 0.2892 0.9405 0.3874
C31_5 C 0.24937(12) 0.88947(18) 0.34221(15)
H18_5 H 0.2221 0.8992 0.3590
C32_5 C 0.24910(10) 0.85166(15) 0.30018(12)
C33_5 C 0.29009(13) 0.83454(19) 0.27601(16)
H19_5 H 0.2898 0.8088 0.2475
C34_5 C 0.33097(12) 0.85626(17) 0.29488(16)
H20_5 H 0.3585 0.8443 0.2800
C35_5 C 0.20487(11) 0.82658(17) 0.27901(13)
C36_5 C 0.39614(8) 0.89328(11) 0.42752(10)
C37_5 C 0.3608(2) 0.8717(3) 0.4605(3)
H21_5 H 0.3308 0.8735 0.4487
C38_5 C 0.3710(3) 0.8481(3) 0.5096(4)
H22_5 H 0.3478 0.8348 0.5320
C39_5 C 0.41708(9) 0.84397(12) 0.52631(10)
C40_5 C 0.4508(4) 0.8634(4) 0.4931(6)
H23_5 H 0.4810 0.8597 0.5039
C41_5 C 0.4412(4) 0.8882(4) 0.4444(5)
H24_5 H 0.4647 0.9016 0.4226
C42_5 C 0.42827(9) 0.81540(13) 0.57967(11)
C43_5 C 0.42825(9) 0.90229(11) 0.31786(10)
C44_5 C 0.43577(15) 0.84467(15) 0.31110(18)
H25_5 H 0.4173 0.8187 0.3290
C45_5 C 0.47063(14) 0.82580(13) 0.27785(16)
H26_5 H 0.4748 0.7873 0.2722
C46_5 C 0.49902(8) 0.86393(11) 0.25328(10)
C47_5 C 0.49254(10) 0.92076(12) 0.26099(14)
H27_5 H 0.5123 0.9464 0.2448
C48_5 C 0.45674(10) 0.94035(12) 0.29271(14)
H28_5 H 0.4520 0.9790 0.2969
C49_5 C 0.53930(9) 0.84229(11) 0.22244(10)
C50_5 C 0.38471(8) 0.99967(12) 0.36621(10)
O19_3 O 0.10376(7) 0.81117(10) 0.38709(8)
H35_5 H 0.126804 0.812117 0.206669
H36_5 H 0.0917137 0.759264 0.209636
O12_4 O 0.10376(7) 0.18883(10) 0.11291(8)
C38_6 C 0.1290(3) 0.1519(3) 0.0096(4)
H22_6 H 0.1522 0.1652 0.0320
C39_6 C 0.08292(9) 0.15603(12) 0.02631(10)
H23_6 H 0.0190 0.1403 0.0039
C42_6 C 0.07173(9) 0.18460(13) 0.07967(11)
P2_6 P 0.11659(2) 0.07612(3) 0.86279(3)
O10_6 O 0.32621(7) 0.17876(10) 0.81193(8)
O11_6 O 0.29617(12) 0.1894(3) 0.73137(14)
O18_6 O 0.38016(7) 0.22407(10) 0.72531(8)
C29_6 C 0.16972(9) 0.10213(12) 0.83811(11)
C30_6 C 0.21015(12) 0.08652(17) 0.86010(14)
H17_6 H 0.2108 0.0595 0.8874
C31_6 C 0.25063(12) 0.11053(18) 0.84221(15)
H18_6 H 0.2779 0.1008 0.8590
C32_6 C 0.25090(10) 0.14834(15) 0.80018(12)
C33_6 C 0.20991(13) 0.16546(19) 0.77601(16)
H19_6 H 0.2102 0.1912 0.7475
C34_6 C 0.16903(12) 0.14374(17) 0.79488(16)
H20_6 H 0.1415 0.1557 0.7800
C35_6 C 0.29513(11) 0.17342(17) 0.77901(13)
C36_6 C 0.10386(8) 0.10672(11) 0.92752(10)
C37_6 C 0.1392(2) 0.1283(3) 0.9605(3)
H21_6 H 0.1692 0.1265 0.9487
C40_6 C 0.0492(4) 0.1366(4) 0.9931(6)
C41_6 C 0.0588(4) 0.1118(4) 0.9444(5)
H24_6 H 0.0353 0.0984 0.9226
C43_6 C 0.07175(9) 0.09771(11) 0.81786(10)
C44_6 C 0.06423(15) 0.15533(15) 0.81110(18)
H25_6 H 0.0827 0.1813 0.8290
C45_6 C 0.02937(14) 0.17420(13) 0.77785(16)
H26_6 H 0.0252 0.2127 0.7722
C46_6 C 0.00098(8) 0.13607(11) 0.75328(10)
C47_6 C 0.00746(10) 0.07924(12) 0.76099(14)
C48_6 C 0.04326(10) 0.05965(12) 0.79271(14)
H28_6 H 0.0480 0.0210 0.7969
C50_6 C 0.11529(8) 0.00033(12) 0.86621(10)
O19_4 O 0.39624(7) 0.18883(10) 0.88709(8)
H35_6 H 0.373196 0.187883 0.706669
H36_6 H 0.408286 0.240736 0.709636
H11_6 H 0.0123 0.4464 0.7448
C21_6 C 0.03930(9) 0.34229(11) 0.72244(10)
O16_6 O 0.04923(6) 0.80972(8) 0.85743(8)
C51_6 C 0.07867(9) 0.97509(12) 0.89293(11)
H29_6 H 0.0597 0.9966 0.9150
C52_6 C 0.07081(9) 0.91788(12) 0.88642(11)
H30_6 H 0.0458 0.9011 0.9031
C53_6 C 0.10027(9) 0.88512(12) 0.85493(11)
C54_6 C 0.13818(10) 0.91029(14) 0.83171(15)
H31_6 H 0.1591 0.8881 0.8130
C55_6 C 0.14543(9) 0.96798(13) 0.83596(13)
H32_6 H 0.1702 0.9848 0.8188
C56_6 C 0.08867(9) 0.82388(12) 0.84460(11)
H27_6 H 0.9877 0.0536 0.7448
C49_6 C 0.96070(9) 0.15771(11) 0.72244(10)
O3_4 O 0.89624(7) 0.31117(10) 0.11291(8)
C10_6 C 0.8710(3) 0.3481(3) 0.0096(4)
H6_6 H 0.8478 0.3348 0.0320
C11_6 C 0.91708(9) 0.34397(12) 0.02631(10)
H7_6 H 0.9810 0.3597 0.0039
C14_6 C 0.92827(9) 0.31540(13) 0.07967(11)
P1_6 P 0.88341(2) 0.42388(3) 0.86279(3)
O1_6 O 0.67379(7) 0.32124(10) 0.81193(8)
O2_6 O 0.70383(12) 0.3106(3) 0.73137(14)
O7_6 O 0.95077(6) 0.69028(8) 0.85743(8)
O9_6 O 0.61984(7) 0.27593(10) 0.72531(8)
C1_6 C 0.83028(9) 0.39787(12) 0.83811(11)
C2_6 C 0.78985(12) 0.41348(17) 0.86010(14)
H1_6 H 0.7892 0.4405 0.8874
C3_6 C 0.74937(12) 0.38947(18) 0.84221(15)
H2_6 H 0.7221 0.3992 0.8590
C4_6 C 0.74910(10) 0.35166(15) 0.80018(12)
C5_6 C 0.79009(13) 0.33454(19) 0.77601(16)
H3_6 H 0.7898 0.3088 0.7475
C6_6 C 0.83097(12) 0.35626(17) 0.79488(16)
H4_6 H 0.8585 0.3443 0.7800
C7_6 C 0.70487(11) 0.32658(17) 0.77901(13)
C8_6 C 0.89614(8) 0.39328(11) 0.92752(10)
C9_6 C 0.8608(2) 0.3717(3) 0.9605(3)
H5_6 H 0.8308 0.3735 0.9487
C12_6 C 0.9508(4) 0.3634(4) 0.9931(6)
C13_6 C 0.9412(4) 0.3882(4) 0.9444(5)
H8_6 H 0.9647 0.4016 0.9226
C15_6 C 0.92825(9) 0.40229(11) 0.81786(10)
C16_6 C 0.93577(15) 0.34467(15) 0.81110(18)
H9_6 H 0.9173 0.3187 0.8290
C17_6 C 0.97063(14) 0.32580(13) 0.77785(16)
H10_6 H 0.9748 0.2873 0.7722
C18_6 C 0.99902(8) 0.36393(11) 0.75328(10)
C19_6 C 0.99254(10) 0.42076(12) 0.76099(14)
C20_6 C 0.95674(10) 0.44035(12) 0.79271(14)
H12_6 H 0.9520 0.4790 0.7969
C22_6 C 0.88471(8) 0.49967(12) 0.86621(10)
C23_6 C 0.92133(9) 0.52491(12) 0.89293(11)
H13_6 H 0.9403 0.5034 0.9150
C24_6 C 0.92919(9) 0.58212(12) 0.88642(11)
H14_6 H 0.9542 0.5989 0.9031
C25_6 C 0.89973(9) 0.61488(12) 0.85493(11)
C26_6 C 0.86182(10) 0.58971(14) 0.83171(15)
H15_6 H 0.8409 0.6119 0.8130
C27_6 C 0.85457(9) 0.53202(13) 0.83596(13)
H16_6 H 0.8298 0.5152 0.8188
C28_6 C 0.91133(9) 0.67612(12) 0.84460(11)
O20_4 O 0.60376(7) 0.31117(10) 0.88709(8)
H33_6 H 0.626804 0.312117 0.706669
H34_6 H 0.591714 0.259264 0.709636
P1_7 P 0.38341(2) 0.07612(3) 0.13721(3)
O1_7 O 0.17379(7) 0.17876(10) 0.18807(8)
O2_7 O 0.20383(12) 0.1894(3) 0.26863(14)
O9_7 O 0.11984(7) 0.22407(10) 0.27469(8)
C1_7 C 0.33028(9) 0.10213(12) 0.16189(11)
C2_7 C 0.28985(12) 0.08652(17) 0.13990(14)
H1_7 H 0.2892 0.0595 0.1126
C3_7 C 0.24937(12) 0.11053(18) 0.15779(15)
H2_7 H 0.2221 0.1008 0.1410
C4_7 C 0.24910(10) 0.14834(15) 0.19982(12)
C5_7 C 0.29009(13) 0.16546(19) 0.22399(16)
H3_7 H 0.2898 0.1912 0.2525
C6_7 C 0.33097(12) 0.14374(17) 0.20512(16)
H4_7 H 0.3585 0.1557 0.2200
C7_7 C 0.20487(11) 0.17342(17) 0.22099(13)
C8_7 C 0.39614(8) 0.10672(11) 0.07248(10)
C9_7 C 0.3608(2) 0.1283(3) 0.0395(3)
H5_7 H 0.3308 0.1265 0.0513
C12_7 C 0.4508(4) 0.1366(4) 0.0069(6)
C13_7 C 0.4412(4) 0.1118(4) 0.0556(5)
H8_7 H 0.4647 0.0984 0.0774
C15_7 C 0.42825(9) 0.09771(11) 0.18214(10)
C16_7 C 0.43577(15) 0.15533(15) 0.18890(18)
H9_7 H 0.4173 0.1813 0.1710
C17_7 C 0.47063(14) 0.17420(13) 0.22215(16)
H10_7 H 0.4748 0.2127 0.2278
C18_7 C 0.49902(8) 0.13607(11) 0.24672(10)
C19_7 C 0.49254(10) 0.07924(12) 0.23901(14)
H11_7 H 0.5123 0.0536 0.2552
C20_7 C 0.45674(10) 0.05965(12) 0.20729(14)
H12_7 H 0.4520 0.0210 0.2031
C21_7 C 0.53930(9) 0.15771(11) 0.27756(10)
C22_7 C 0.38471(8) 0.00033(12) 0.13379(10)
H33_7 H 0.126804 0.187883 0.293331
H34_7 H 0.0917137 0.240736 0.290364
C10_7 C 0.3710(3) 0.1519(3) 0.9904(4)
H6_7 H 0.3478 0.1652 0.9680
C11_7 C 0.41708(9) 0.15603(12) 0.97369(10)
H7_7 H 0.4810 0.1403 0.9961
C14_7 C 0.42827(9) 0.18460(13) 0.92033(11)
O7_7 O 0.45077(6) 0.80972(8) 0.14257(8)
C23_7 C 0.42133(9) 0.97509(12) 0.10707(11)
H13_7 H 0.4403 0.9966 0.0850
C24_7 C 0.42919(9) 0.91788(12) 0.11358(11)
H14_7 H 0.4542 0.9011 0.0969
C25_7 C 0.39973(9) 0.88512(12) 0.14507(11)
C26_7 C 0.36182(10) 0.91029(14) 0.16829(15)
H15_7 H 0.3409 0.8881 0.1870
C27_7 C 0.35457(9) 0.96798(13) 0.16404(13)
H16_7 H 0.3298 0.9848 0.1812
C28_7 C 0.41133(9) 0.82388(12) 0.15540(11)
P2_7 P 0.61659(2) 0.42388(3) 0.13721(3)
O10_7 O 0.82621(7) 0.32124(10) 0.18807(8)
O11_7 O 0.79617(12) 0.3106(3) 0.26863(14)
O16_7 O 0.54923(6) 0.69028(8) 0.14257(8)
O18_7 O 0.88016(7) 0.27593(10) 0.27469(8)
C29_7 C 0.66972(9) 0.39787(12) 0.16189(11)
C30_7 C 0.71015(12) 0.41348(17) 0.13990(14)
H17_7 H 0.7108 0.4405 0.1126
C31_7 C 0.75063(12) 0.38947(18) 0.15779(15)
H18_7 H 0.7779 0.3992 0.1410
C32_7 C 0.75090(10) 0.35166(15) 0.19982(12)
C33_7 C 0.70991(13) 0.33454(19) 0.22399(16)
H19_7 H 0.7102 0.3088 0.2525
C34_7 C 0.66903(12) 0.35626(17) 0.20512(16)
H20_7 H 0.6415 0.3443 0.2200
C35_7 C 0.79513(11) 0.32658(17) 0.22099(13)
C36_7 C 0.60386(8) 0.39328(11) 0.07248(10)
C37_7 C 0.6392(2) 0.3717(3) 0.0395(3)
H21_7 H 0.6692 0.3735 0.0513
C40_7 C 0.5492(4) 0.3634(4) 0.0069(6)
C41_7 C 0.5588(4) 0.3882(4) 0.0556(5)
H24_7 H 0.5353 0.4016 0.0774
C43_7 C 0.57175(9) 0.40229(11) 0.18214(10)
C44_7 C 0.56423(15) 0.34467(15) 0.18890(18)
H25_7 H 0.5827 0.3187 0.1710
C45_7 C 0.52937(14) 0.32580(13) 0.22215(16)
H26_7 H 0.5252 0.2873 0.2278
C46_7 C 0.50098(8) 0.36393(11) 0.24672(10)
C47_7 C 0.50746(10) 0.42076(12) 0.23901(14)
H27_7 H 0.4877 0.4464 0.2552
C48_7 C 0.54326(10) 0.44035(12) 0.20729(14)
H28_7 H 0.5480 0.4790 0.2031
C49_7 C 0.46070(9) 0.34229(11) 0.27756(10)
C50_7 C 0.61529(8) 0.49967(12) 0.13379(10)
C51_7 C 0.57867(9) 0.52491(12) 0.10707(11)
H29_7 H 0.5597 0.5034 0.0850
C52_7 C 0.57081(9) 0.58212(12) 0.11358(11)
H30_7 H 0.5458 0.5989 0.0969
C53_7 C 0.60027(9) 0.61488(12) 0.14507(11)
C54_7 C 0.63818(10) 0.58971(14) 0.16829(15)
H31_7 H 0.6591 0.6119 0.1870
C55_7 C 0.64543(9) 0.53202(13) 0.16404(13)
H32_7 H 0.6702 0.5152 0.1812
C56_7 C 0.58867(9) 0.67612(12) 0.15540(11)
H35_7 H 0.873196 0.312117 0.293331
H36_7 H 0.908286 0.259264 0.290364
C38_7 C 0.6290(3) 0.3481(3) 0.9904(4)
H22_7 H 0.6522 0.3348 0.9680
C39_7 C 0.58292(9) 0.34397(12) 0.97369(10)
H23_7 H 0.5190 0.3597 0.9961
C42_7 C 0.57173(9) 0.31540(13) 0.92033(11)
O7_8 O 0.04923(6) 0.19028(8) 0.64257(8)
C23_8 C 0.07867(9) 0.02491(12) 0.60707(11)
H13_8 H 0.0597 0.0034 0.5850
C24_8 C 0.07081(9) 0.08212(12) 0.61358(11)
H14_8 H 0.0458 0.0989 0.5969
C25_8 C 0.10027(9) 0.11488(12) 0.64507(11)
C26_8 C 0.13818(10) 0.08971(14) 0.66829(15)
H15_8 H 0.1591 0.1119 0.6870
C27_8 C 0.14543(9) 0.03202(13) 0.66404(13)
H16_8 H 0.1702 0.0152 0.6812
C28_8 C 0.08867(9) 0.17612(12) 0.65540(11)
H27_8 H 0.0123 0.5536 0.7552
C49_8 C 0.03930(9) 0.65771(11) 0.77756(10)
P1_8 P 0.11659(2) 0.92388(3) 0.63721(3)
O1_8 O 0.32621(7) 0.82124(10) 0.68807(8)
O2_8 O 0.29617(12) 0.8106(3) 0.76863(14)
O9_8 O 0.38016(7) 0.77593(10) 0.77469(8)
C1_8 C 0.16972(9) 0.89787(12) 0.66189(11)
C2_8 C 0.21015(12) 0.91348(17) 0.63990(14)
H1_8 H 0.2108 0.9405 0.6126
C3_8 C 0.25063(12) 0.88947(18) 0.65779(15)
H2_8 H 0.2779 0.8992 0.6410
C4_8 C 0.25090(10) 0.85166(15) 0.69982(12)
C5_8 C 0.20991(13) 0.83454(19) 0.72399(16)
H3_8 H 0.2102 0.8088 0.7525
C6_8 C 0.16903(12) 0.85626(17) 0.70512(16)
H4_8 H 0.1415 0.8443 0.7200
C7_8 C 0.29513(11) 0.82658(17) 0.72099(13)
C8_8 C 0.10386(8) 0.89328(11) 0.57248(10)
C9_8 C 0.1392(2) 0.8717(3) 0.5395(3)
H5_8 H 0.1692 0.8735 0.5513
C10_8 C 0.1290(3) 0.8481(3) 0.4904(4)
H6_8 H 0.1522 0.8348 0.4680
C11_8 C 0.08292(9) 0.84397(12) 0.47369(10)
C12_8 C 0.0492(4) 0.8634(4) 0.5069(6)
H7_8 H 0.0190 0.8597 0.4961
C13_8 C 0.0588(4) 0.8882(4) 0.5556(5)
H8_8 H 0.0353 0.9016 0.5774
C14_8 C 0.07173(9) 0.81540(13) 0.42033(11)
C15_8 C 0.07175(9) 0.90229(11) 0.68214(10)
C16_8 C 0.06423(15) 0.84467(15) 0.68890(18)
H9_8 H 0.0827 0.8187 0.6710
C17_8 C 0.02937(14) 0.82580(13) 0.72215(16)
H10_8 H 0.0252 0.7873 0.7278
C18_8 C 0.00098(8) 0.86393(11) 0.74672(10)
C19_8 C 0.00746(10) 0.92076(12) 0.73901(14)
C20_8 C 0.04326(10) 0.94035(12) 0.70729(14)
H12_8 H 0.0480 0.9790 0.7031
C22_8 C 0.11529(8) 0.99967(12) 0.63379(10)
H33_8 H 0.373196 0.812117 0.793331
H34_8 H 0.408286 0.759264 0.790364
P2_8 P 0.88341(2) 0.57612(3) 0.63721(3)
O10_8 O 0.67379(7) 0.67876(10) 0.68807(8)
O11_8 O 0.70383(12) 0.6894(3) 0.76863(14)
O16_8 O 0.95077(6) 0.30972(8) 0.64257(8)
O18_8 O 0.61984(7) 0.72407(10) 0.77469(8)
C29_8 C 0.83028(9) 0.60213(12) 0.66189(11)
C30_8 C 0.78985(12) 0.58652(17) 0.63990(14)
H17_8 H 0.7892 0.5595 0.6126
C31_8 C 0.74937(12) 0.61053(18) 0.65779(15)
H18_8 H 0.7221 0.6008 0.6410
C32_8 C 0.74910(10) 0.64834(15) 0.69982(12)
C33_8 C 0.79009(13) 0.66546(19) 0.72399(16)
H19_8 H 0.7898 0.6912 0.7525
C34_8 C 0.83097(12) 0.64374(17) 0.70512(16)
H20_8 H 0.8585 0.6557 0.7200
C35_8 C 0.70487(11) 0.67342(17) 0.72099(13)
C36_8 C 0.89614(8) 0.60672(11) 0.57248(10)
C37_8 C 0.8608(2) 0.6283(3) 0.5395(3)
H21_8 H 0.8308 0.6265 0.5513
C38_8 C 0.8710(3) 0.6519(3) 0.4904(4)
H22_8 H 0.8478 0.6652 0.4680
C39_8 C 0.91708(9) 0.65603(12) 0.47369(10)
C40_8 C 0.9508(4) 0.6366(4) 0.5069(6)
H23_8 H 0.9810 0.6403 0.4961
C41_8 C 0.9412(4) 0.6118(4) 0.5556(5)
H24_8 H 0.9647 0.5984 0.5774
C42_8 C 0.92827(9) 0.68460(13) 0.42033(11)
C43_8 C 0.92825(9) 0.59771(11) 0.68214(10)
C44_8 C 0.93577(15) 0.65533(15) 0.68890(18)
H25_8 H 0.9173 0.6813 0.6710
C45_8 C 0.97063(14) 0.67420(13) 0.72215(16)
H26_8 H 0.9748 0.7127 0.7278
C46_8 C 0.99902(8) 0.63607(11) 0.74672(10)
C47_8 C 0.99254(10) 0.57924(12) 0.73901(14)
C48_8 C 0.95674(10) 0.55965(12) 0.70729(14)
H28_8 H 0.9520 0.5210 0.7031
C50_8 C 0.88471(8) 0.50033(12) 0.63379(10)
C51_8 C 0.92133(9) 0.47509(12) 0.60707(11)
H29_8 H 0.9403 0.4966 0.5850
C52_8 C 0.92919(9) 0.41788(12) 0.61358(11)
H30_8 H 0.9542 0.4011 0.5969
C53_8 C 0.89973(9) 0.38512(12) 0.64507(11)
C54_8 C 0.86182(10) 0.41029(14) 0.66829(15)
H31_8 H 0.8409 0.3881 0.6870
C55_8 C 0.85457(9) 0.46798(13) 0.66404(13)
H32_8 H 0.8298 0.4848 0.6812
C56_8 C 0.91133(9) 0.32388(12) 0.65540(11)
H35_8 H 0.626804 0.687883 0.793331
H36_8 H 0.591714 0.740736 0.790364
H11_8 H 0.9877 0.9464 0.7552
C21_8 C 0.96070(9) 0.84229(11) 0.77756(10)
loop_
_geom_bond_atom_site_label_1
_geom_bond_atom_site_label_2
_geom_bond_site_symmetry_1
_geom_bond_site_symmetry_2
Mg3 O10 1_555 1_555
P2 C29 1_555 1_555
O10 C35 1_555 1_555
O11 C35 1_555 1_555
O12 C42 1_555 1_555
O13 C42 1_555 1_555
O14 C49 1_555 1_555
O15 C49 1_555 1_555
O18 Mg3 1_555 1_555
C29 C30 1_555 1_555
C30 H17 1_555 1_555
C31 C30 1_555 1_555
H18 C31 1_555 1_555
C32 C31 1_555 1_555
C33 C32 1_555 1_555
H19 C33 1_555 1_555
C34 C29 1_555 1_555
H20 C34 1_555 1_555
C35 C32 1_555 1_555
C36 P2 1_555 1_555
C37 C36 1_555 1_555
H21 C37 1_555 1_555
C38 C37 1_555 1_555
H22 C38 1_555 1_555
C39 C38 1_555 1_555
C40 C39 1_555 1_555
H23 C40 1_555 1_555
C41 C36 1_555 1_555
H24 C41 1_555 1_555
C42 C39 1_555 1_555
C43 P2 1_555 1_555
C44 C43 1_555 1_555
H25 C44 1_555 1_555
C45 C44 1_555 1_555
H26 C45 1_555 1_555
C46 C45 1_555 1_555
C47 C46 1_555 1_555
H27 C47 1_555 1_555
C48 C43 1_555 1_555
H28 C48 1_555 1_555
C49 C46 1_555 1_555
C50 P2 1_555 1_555
Mg4 O12 1_555 1_555
Mg8 O14 1_555 1_555
Mg11 O14 1_555 1_555
Mg13 O13 1_555 1_555
O19 Mg3 1_555 1_555
O26 Mg3 1_555 1_555
O28 Mg3 1_555 1_555
O30 Mg3 1_555 1_555
O15 Mg8 1_555 1_555
C33 C34 1_555 1_555
C40 C41 1_555 1_555
C47 C48 1_555 1_555
O18 H35 1_555 1_555
O18 H36 1_555 1_555
Mg1 O1 1_555 1_555
Mg2 O7 1_555 1_555
P1 C1 1_555 1_555
O1 C7 1_555 1_555
O2 C7 1_555 1_555
O3 C14 1_555 1_555
O4 C14 1_555 1_555
O5 C21 1_555 1_555
O6 C21 1_555 1_555
O7 C28 1_555 1_555
O8 C28 1_555 1_555
O9 Mg1 1_555 1_555
C1 C2 1_555 1_555
C2 H1 1_555 1_555
C3 C2 1_555 1_555
H2 C3 1_555 1_555
C4 C3 1_555 1_555
C5 C4 1_555 1_555
H3 C5 1_555 1_555
C6 C1 1_555 1_555
H4 C6 1_555 1_555
C7 C4 1_555 1_555
C8 P1 1_555 1_555
C9 C8 1_555 1_555
H5 C9 1_555 1_555
C10 C9 1_555 1_555
H6 C10 1_555 1_555
C11 C10 1_555 1_555
C12 C11 1_555 1_555
H7 C12 1_555 1_555
C13 C8 1_555 1_555
H8 C13 1_555 1_555
C14 C11 1_555 1_555
C15 P1 1_555 1_555
C16 C15 1_555 1_555
H9 C16 1_555 1_555
C17 C16 1_555 1_555
H10 C17 1_555 1_555
C18 C17 1_555 1_555
C19 C18 1_555 1_555
H11 C19 1_555 1_555
C20 C15 1_555 1_555
H12 C20 1_555 1_555
C21 C18 1_555 1_555
C22 P1 1_555 1_555
C23 C22 1_555 1_555
H13 C23 1_555 1_555
C24 C23 1_555 1_555
H14 C24 1_555 1_555
C25 C24 1_555 1_555
C26 C25 1_555 1_555
H15 C26 1_555 1_555
C27 C22 1_555 1_555
H16 C27 1_555 1_555
C28 C25 1_555 1_555
O16 Mg2 1_555 1_555
O17 C56 1_555 1_555
H29 C51 1_555 1_555
C52 C51 1_555 1_555
H30 C52 1_555 1_555
C53 C52 1_555 1_555
C54 C53 1_555 1_555
H31 C54 1_555 1_555
H32 C55 1_555 1_555
C56 O16 1_555 1_555
Mg5 O3 1_555 1_555
Mg6 O5 1_555 1_555
Mg7 O8 1_555 1_555
Mg9 O17 1_555 1_555
Mg11 O5 1_555 1_555
Mg13 O4 1_555 1_555
O20 Mg1 1_555 1_555
O21 Mg2 1_555 1_555
O22 Mg2 1_555 1_555
O23 Mg2 1_555 1_555
O24 Mg2 1_555 1_555
O25 Mg1 1_555 1_555
O27 Mg1 1_555 1_555
O29 Mg1 1_555 1_555
O6 Mg6 1_555 1_555
C5 C6 1_555 1_555
C12 C13 1_555 1_555
C19 C20 1_555 1_555
C26 C27 1_555 1_555
C53 C56 1_555 1_555
C54 C55 1_555 1_555
Mg7 O23 1_555 1_555
Mg9 O24 1_555 1_555
O9 H33 1_555 1_555
O9 H34 1_555 1_555
Mg1_2 O1_2 1_555 1_555
Mg2_2 O7_2 1_555 1_555
P1_2 C1_2 1_555 1_555
O1_2 C7_2 1_555 1_555
O2_2 C7_2 1_555 1_555
O7_2 C28_2 1_555 1_555
O8_2 C28_2 1_555 1_555
O9_2 Mg1_2 1_555 1_555
C1_2 C2_2 1_555 1_555
C2_2 H1_2 1_555 1_555
C3_2 C2_2 1_555 1_555
H2_2 C3_2 1_555 1_555
C4_2 C3_2 1_555 1_555
C5_2 C4_2 1_555 1_555
H3_2 C5_2 1_555 1_555
C6_2 C1_2 1_555 1_555
H4_2 C6_2 1_555 1_555
C7_2 C4_2 1_555 1_555
C8_2 P1_2 1_555 1_555
C9_2 C8_2 1_555 1_555
H5_2 C9_2 1_555 1_555
C13_2 C8_2 1_555 1_555
H8_2 C13_2 1_555 1_555
C15_2 P1_2 1_555 1_555
C16_2 C15_2 1_555 1_555
H9_2 C16_2 1_555 1_555
C17_2 C16_2 1_555 1_555
H10_2 C17_2 1_555 1_555
C18_2 C17_2 1_555 1_555
C19_2 C18_2 1_555 1_555
C20_2 C15_2 1_555 1_555
H12_2 C20_2 1_555 1_555
C22_2 P1_2 1_555 1_555
C23_2 C22_2 1_555 1_555
H13_2 C23_2 1_555 1_555
C24_2 C23_2 1_555 1_555
H14_2 C24_2 1_555 1_555
C25_2 C24_2 1_555 1_555
C26_2 C25_2 1_555 1_555
H15_2 C26_2 1_555 1_555
C27_2 C22_2 1_555 1_555
H16_2 C27_2 1_555 1_555
C28_2 C25_2 1_555 1_555
Mg7_2 O8_2 1_555 1_555
O20_2 Mg1_2 1_555 1_555
O22_2 Mg2_2 1_555 1_555
O23_2 Mg2_2 1_555 1_555
O25_2 Mg1_2 1_555 1_555
O27_2 Mg1_2 1_555 1_555
O29_2 Mg1_2 1_555 1_555
C5_2 C6_2 1_555 1_555
C12_2 C13_2 1_555 1_555
C19_2 C20_2 1_555 1_555
C26_2 C27_2 1_555 1_555
Mg7_2 O23_2 1_555 1_555
O9_2 H33_2 1_555 1_555
O9_2 H34_2 1_555 1_555
O3_2 C14_2 1_555 1_555
O4_2 C14_2 1_555 1_555
H6_2 C10_2 1_555 1_555
C11_2 C10_2 1_555 1_555
C14_2 C11_2 1_555 1_555
Mg5_2 O3_2 1_555 1_555
Mg12 O4_2 1_555 1_555
O14_2 C49_2 1_555 1_555
O15_2 C49_2 1_555 1_555
Mg8_2 O14_2 1_555 1_555
Mg10 O14_2 1_555 1_555
O15_2 Mg8_2 1_555 1_555
O5_2 C21_2 1_555 1_555
O6_2 C21_2 1_555 1_555
O16_2 Mg2_3 1_555 1_555
O17_2 C56_2 1_555 1_555
H29_2 C51_2 1_555 1_555
C52_2 C51_2 1_555 1_555
H30_2 C52_2 1_555 1_555
C53_2 C52_2 1_555 1_555
C54_2 C53_2 1_555 1_555
H31_2 C54_2 1_555 1_555
H32_2 C55_2 1_555 1_555
C56_2 O16_2 1_555 1_555
Mg6_2 O5_2 1_555 1_555
Mg9_2 O17_2 1_555 1_555
Mg10_2 O5_2 1_555 1_555
O21_2 Mg2_3 1_555 1_555
O24_2 Mg2_3 1_555 1_555
O6_2 Mg6_2 1_555 1_555
C53_2 C56_2 1_555 1_555
C54_2 C55_2 1_555 1_555
Mg9_2 O24_2 1_555 1_555
Mg3_2 O10_2 1_555 1_555
P2_2 C29_2 1_555 1_555
O10_2 C35_2 1_555 1_555
O11_2 C35_2 1_555 1_555
O18_2 Mg3_2 1_555 1_555
C29_2 C30_2 1_555 1_555
C30_2 H17_2 1_555 1_555
C31_2 C30_2 1_555 1_555
H18_2 C31_2 1_555 1_555
C32_2 C31_2 1_555 1_555
C33_2 C32_2 1_555 1_555
H19_2 C33_2 1_555 1_555
C34_2 C29_2 1_555 1_555
H20_2 C34_2 1_555 1_555
C35_2 C32_2 1_555 1_555
C36_2 P2_2 1_555 1_555
C37_2 C36_2 1_555 1_555
H21_2 C37_2 1_555 1_555
C41_2 C36_2 1_555 1_555
H24_2 C41_2 1_555 1_555
C43_2 P2_2 1_555 1_555
C44_2 C43_2 1_555 1_555
H25_2 C44_2 1_555 1_555
C45_2 C44_2 1_555 1_555
H26_2 C45_2 1_555 1_555
C46_2 C45_2 1_555 1_555
C47_2 C46_2 1_555 1_555
C48_2 C43_2 1_555 1_555
H28_2 C48_2 1_555 1_555
C50_2 P2_2 1_555 1_555
O19_2 Mg3_2 1_555 1_555
O26_2 Mg3_2 1_555 1_555
O28_2 Mg3_2 1_555 1_555
O30_2 Mg3_2 1_555 1_555
C33_2 C34_2 1_555 1_555
C40_2 C41_2 1_555 1_555
C47_2 C48_2 1_555 1_555
O18_2 H35_2 1_555 1_555
O18_2 H36_2 1_555 1_555
O12_2 C42_2 1_555 1_555
O13_2 C42_2 1_555 1_555
H22_2 C38_2 1_555 1_555
C39_2 C38_2 1_555 1_555
C42_2 C39_2 1_555 1_555
Mg4_2 O12_2 1_555 1_555
Mg12_2 O13_2 1_555 1_555
O20_2 C42_3 1_555 1_555
O13_3 C42_3 1_555 1_555
H22_3 C38_3 1_555 1_555
C39_3 C38_3 1_555 1_555
C42_3 C39_3 1_555 1_555
Mg13_2 O13_3 1_555 1_555
Mg11 O7_3 1_555 1_555
O7_3 C28_3 1_555 1_555
O8_3 C28_3 1_555 1_555
H13_3 C23_3 1_555 1_555
C24_3 C23_3 1_555 1_555
H14_3 C24_3 1_555 1_555
C25_3 C24_3 1_555 1_555
C26_3 C25_3 1_555 1_555
H15_3 C26_3 1_555 1_555
H16_3 C27_3 1_555 1_555
C28_3 C25_3 1_555 1_555
Mg5_2 O10_3 1_555 1_555
P2_3 C29_3 1_555 1_555
O10_3 C35_3 1_555 1_555
O11_3 C35_3 1_555 1_555
O24 C49_3 1_555 1_555
O15_3 C49_3 1_555 1_555
O16_3 Mg11 1_555 1_555
O17_3 C56_3 1_555 1_555
O18_3 Mg5_2 1_555 1_555
C29_3 C30_3 1_555 1_555
C30_3 H17_3 1_555 1_555
C31_3 C30_3 1_555 1_555
H18_3 C31_3 1_555 1_555
C32_3 C31_3 1_555 1_555
C33_3 C32_3 1_555 1_555
H19_3 C33_3 1_555 1_555
C34_3 C29_3 1_555 1_555
H20_3 C34_3 1_555 1_555
C35_3 C32_3 1_555 1_555
C36_3 P2_3 1_555 1_555
C37_3 C36_3 1_555 1_555
H21_3 C37_3 1_555 1_555
C41_3 C36_3 1_555 1_555
H24_3 C41_3 1_555 1_555
C43_3 P2_3 1_555 1_555
C44_3 C43_3 1_555 1_555
H25_3 C44_3 1_555 1_555
C45_3 C44_3 1_555 1_555
H26_3 C45_3 1_555 1_555
C46_3 C45_3 1_555 1_555
C47_3 C46_3 1_555 1_555
H27_3 C47_3 1_555 1_555
C48_3 C43_3 1_555 1_555
H28_3 C48_3 1_555 1_555
C49_3 C46_3 1_555 1_555
C50_3 P2_3 1_555 1_555
C51_3 C50_3 1_555 1_555
H29_3 C51_3 1_555 1_555
C52_3 C51_3 1_555 1_555
H30_3 C52_3 1_555 1_555
C53_3 C52_3 1_555 1_555
C54_3 C53_3 1_555 1_555
H31_3 C54_3 1_555 1_555
C55_3 C50_3 1_555 1_555
H32_3 C55_3 1_555 1_555
C56_3 O16_3 1_555 1_555
Mg6 O8_3 1_555 1_555
Mg8 O17_3 1_555 1_555
O21_3 Mg11 1_555 1_555
O22_3 Mg11 1_555 1_555
O26_3 Mg5_2 1_555 1_555
O28_3 Mg5_2 1_555 1_555
O30_3 Mg5_2 1_555 1_555
C26_3 C27_3 1_555 1_555
O15_3 Mg9 1_555 1_555
C33_3 C34_3 1_555 1_555
C40_3 C41_3 1_555 1_555
C47_3 C48_3 1_555 1_555
C53_3 C56_3 1_555 1_555
C54_3 C55_3 1_555 1_555
O18_3 H35_3 1_555 1_555
O18_3 H36_3 1_555 1_555
O19_2 C14_3 1_555 1_555
O4_3 C14_3 1_555 1_555
H6_3 C10_3 1_555 1_555
C11_3 C10_3 1_555 1_555
C14_3 C11_3 1_555 1_555
Mg13_2 O4_3 1_555 1_555
Mg4_2 O1_3 1_555 1_555
P1_3 C1_3 1_555 1_555
O1_3 C7_3 1_555 1_555
O2_3 C7_3 1_555 1_555
O23 C21_3 1_555 1_555
O6_3 C21_3 1_555 1_555
O9_3 Mg4_2 1_555 1_555
C1_3 C2_3 1_555 1_555
C2_3 H1_3 1_555 1_555
C3_3 C2_3 1_555 1_555
H2_3 C3_3 1_555 1_555
C4_3 C3_3 1_555 1_555
C5_3 C4_3 1_555 1_555
H3_3 C5_3 1_555 1_555
C6_3 C1_3 1_555 1_555
H4_3 C6_3 1_555 1_555
C7_3 C4_3 1_555 1_555
C8_3 P1_3 1_555 1_555
C9_3 C8_3 1_555 1_555
H5_3 C9_3 1_555 1_555
C13_3 C8_3 1_555 1_555
H8_3 C13_3 1_555 1_555
C15_3 P1_3 1_555 1_555
C16_3 C15_3 1_555 1_555
H9_3 C16_3 1_555 1_555
C17_3 C16_3 1_555 1_555
H10_3 C17_3 1_555 1_555
C18_3 C17_3 1_555 1_555
C19_3 C18_3 1_555 1_555
H11_3 C19_3 1_555 1_555
C20_3 C15_3 1_555 1_555
H12_3 C20_3 1_555 1_555
C21_3 C18_3 1_555 1_555
C22_3 P1_3 1_555 1_555
O25_3 Mg4_2 1_555 1_555
O27_3 Mg4_2 1_555 1_555
O29_3 Mg4_2 1_555 1_555
O6_3 Mg7 1_555 1_555
C5_3 C6_3 1_555 1_555
C12_3 C13_3 1_555 1_555
C19_3 C20_3 1_555 1_555
O9_3 H33_3 1_555 1_555
O9_3 H34_3 1_555 1_555
O23_2 C21_4 1_555 1_555
O6_4 C21_4 1_555 1_555
O6_4 Mg7_2 1_555 1_555
Mg5 O10_4 1_555 1_555
P2_4 C29_4 1_555 1_555
O10_4 C35_4 1_555 1_555
O11_4 C35_4 1_555 1_555
O20 C42_4 1_555 1_555
O13_4 C42_4 1_555 1_555
O16_4 Mg10 1_555 1_555
O17_4 C56_4 1_555 1_555
O18_4 Mg5 1_555 1_555
C29_4 C30_4 1_555 1_555
C30_4 H17_4 1_555 1_555
C31_4 C30_4 1_555 1_555
H18_4 C31_4 1_555 1_555
C32_4 C31_4 1_555 1_555
C33_4 C32_4 1_555 1_555
H19_4 C33_4 1_555 1_555
C34_4 C29_4 1_555 1_555
H20_4 C34_4 1_555 1_555
C35_4 C32_4 1_555 1_555
C36_4 P2_4 1_555 1_555
C37_4 C36_4 1_555 1_555
H21_4 C37_4 1_555 1_555
C38_4 C37_4 1_555 1_555
H22_4 C38_4 1_555 1_555
C39_4 C38_4 1_555 1_555
C40_4 C39_4 1_555 1_555
H23_4 C40_4 1_555 1_555
C41_4 C36_4 1_555 1_555
H24_4 C41_4 1_555 1_555
C42_4 C39_4 1_555 1_555
C43_4 P2_4 1_555 1_555
C44_4 C43_4 1_555 1_555
H25_4 C44_4 1_555 1_555
C45_4 C44_4 1_555 1_555
H26_4 C45_4 1_555 1_555
C46_4 C45_4 1_555 1_555
C47_4 C46_4 1_555 1_555
C48_4 C43_4 1_555 1_555
H28_4 C48_4 1_555 1_555
C50_4 P2_4 1_555 1_555
C51_4 C50_4 1_555 1_555
H29_4 C51_4 1_555 1_555
C52_4 C51_4 1_555 1_555
H30_4 C52_4 1_555 1_555
C53_4 C52_4 1_555 1_555
C54_4 C53_4 1_555 1_555
H31_4 C54_4 1_555 1_555
C55_4 C50_4 1_555 1_555
H32_4 C55_4 1_555 1_555
C56_4 O16_4 1_555 1_555
Mg8_2 O17_4 1_555 1_555
Mg12_3 O13_4 1_555 1_555
O21_4 Mg10 1_555 1_555
O26_4 Mg5 1_555 1_555
O28_4 Mg5 1_555 1_555
O30_4 Mg5 1_555 1_555
C33_4 C34_4 1_555 1_555
C40_4 C41_4 1_555 1_555
C47_4 C48_4 1_555 1_555
C53_4 C56_4 1_555 1_555
C54_4 C55_4 1_555 1_555
O18_4 H35_4 1_555 1_555
O18_4 H36_4 1_555 1_555
Mg4 O1_4 1_555 1_555
P1_4 C1_4 1_555 1_555
O1_4 C7_4 1_555 1_555
O2_4 C7_4 1_555 1_555
O19 C14_4 1_555 1_555
O4_4 C14_4 1_555 1_555
O9_4 Mg4 1_555 1_555
C1_4 C2_4 1_555 1_555
C2_4 H1_4 1_555 1_555
C3_4 C2_4 1_555 1_555
H2_4 C3_4 1_555 1_555
C4_4 C3_4 1_555 1_555
C5_4 C4_4 1_555 1_555
H3_4 C5_4 1_555 1_555
C6_4 C1_4 1_555 1_555
H4_4 C6_4 1_555 1_555
C7_4 C4_4 1_555 1_555
C8_4 P1_4 1_555 1_555
C9_4 C8_4 1_555 1_555
H5_4 C9_4 1_555 1_555
C10_4 C9_4 1_555 1_555
H6_4 C10_4 1_555 1_555
C11_4 C10_4 1_555 1_555
C12_4 C11_4 1_555 1_555
H7_4 C12_4 1_555 1_555
C13_4 C8_4 1_555 1_555
H8_4 C13_4 1_555 1_555
C14_4 C11_4 1_555 1_555
C15_4 P1_4 1_555 1_555
C16_4 C15_4 1_555 1_555
H9_4 C16_4 1_555 1_555
C17_4 C16_4 1_555 1_555
H10_4 C17_4 1_555 1_555
C18_4 C17_4 1_555 1_555
C19_4 C18_4 1_555 1_555
C20_4 C15_4 1_555 1_555
H12_4 C20_4 1_555 1_555
C22_4 P1_4 1_555 1_555
Mg12_4 O4_4 1_555 1_555
O25_4 Mg4 1_555 1_555
O27_4 Mg4 1_555 1_555
O29_4 Mg4 1_555 1_555
C5_4 C6_4 1_555 1_555
C12_4 C13_4 1_555 1_555
C19_4 C20_4 1_555 1_555
O9_4 H33_4 1_555 1_555
O9_4 H34_4 1_555 1_555
Mg10_2 O7_4 1_555 1_555
O7_4 C28_4 1_555 1_555
O8_4 C28_4 1_555 1_555
H13_4 C23_4 1_555 1_555
C24_4 C23_4 1_555 1_555
H14_4 C24_4 1_555 1_555
C25_4 C24_4 1_555 1_555
C26_4 C25_4 1_555 1_555
H15_4 C26_4 1_555 1_555
H16_4 C27_4 1_555 1_555
C28_4 C25_4 1_555 1_555
O24_2 C49_4 1_555 1_555
O15_4 C49_4 1_555 1_555
Mg6_2 O8_4 1_555 1_555
O22_4 Mg10_2 1_555 1_555
C26_4 C27_4 1_555 1_555
O15_4 Mg9_2 1_555 1_555
Mg6_2 O1_5 1_555 1_555
Mg13 O7_5 1_555 1_555
P1_5 C1_5 1_555 1_555
O1_5 C7_5 1_555 1_555
O2_5 C7_5 1_555 1_555
O3_3 C14_5 1_555 1_555
O21 C14_5 1_555 1_555
O25_2 C21_5 1_555 1_555
O27_2 C21_5 1_555 1_555
O7_5 C28_5 1_555 1_555
O29_4 C28_5 1_555 1_555
O9_5 Mg6_2 1_555 1_555
C1_5 C2_5 1_555 1_555
C2_5 H1_5 1_555 1_555
C3_5 C2_5 1_555 1_555
H2_5 C3_5 1_555 1_555
C4_5 C3_5 1_555 1_555
C5_5 C4_5 1_555 1_555
H3_5 C5_5 1_555 1_555
C6_5 C1_5 1_555 1_555
H4_5 C6_5 1_555 1_555
C7_5 C4_5 1_555 1_555
C8_5 P1_5 1_555 1_555
C9_5 C8_5 1_555 1_555
H5_5 C9_5 1_555 1_555
C10_5 C9_5 1_555 1_555
H6_5 C10_5 1_555 1_555
C11_5 C10_5 1_555 1_555
C12_5 C11_5 1_555 1_555
H7_5 C12_5 1_555 1_555
C13_5 C8_5 1_555 1_555
H8_5 C13_5 1_555 1_555
C14_5 C11_5 1_555 1_555
C15_5 P1_5 1_555 1_555
C16_5 C15_5 1_555 1_555
H9_5 C16_5 1_555 1_555
C17_5 C16_5 1_555 1_555
H10_5 C17_5 1_555 1_555
C18_5 C17_5 1_555 1_555
C19_5 C18_5 1_555 1_555
H11_5 C19_5 1_555 1_555
C20_5 C15_5 1_555 1_555
H12_5 C20_5 1_555 1_555
C21_5 C18_5 1_555 1_555
C22_5 P1_5 1_555 1_555
C23_5 C22_5 1_555 1_555
H13_5 C23_5 1_555 1_555
C24_5 C23_5 1_555 1_555
H14_5 C24_5 1_555 1_555
C25_5 C24_5 1_555 1_555
C26_5 C25_5 1_555 1_555
H15_5 C26_5 1_555 1_555
C27_5 C22_5 1_555 1_555
H16_5 C27_5 1_555 1_555
C28_5 C25_5 1_555 1_555
O16_5 Mg13 1_555 1_555
O30_4 C56_5 1_555 1_555
H29_5 C51_5 1_555 1_555
C52_5 C51_5 1_555 1_555
H30_5 C52_5 1_555 1_555
C53_5 C52_5 1_555 1_555
C54_5 C53_5 1_555 1_555
H31_5 C54_5 1_555 1_555
H32_5 C55_5 1_555 1_555
C56_5 O16_5 1_555 1_555
Mg9 O3_3 1_555 1_555
Mg13_2 O25_2 1_555 1_555
O20_3 Mg6_2 1_555 1_555
O25_4 Mg13 1_555 1_555
O26_4 Mg13 1_555 1_555
C5_5 C6_5 1_555 1_555
C12_5 C13_5 1_555 1_555
C19_5 C20_5 1_555 1_555
C26_5 C27_5 1_555 1_555
C53_5 C56_5 1_555 1_555
C54_5 C55_5 1_555 1_555
O9_5 H33_5 1_555 1_555
O9_5 H34_5 1_555 1_555
Mg8_2 O10_5 1_555 1_555
P2_5 C29_5 1_555 1_555
O10_5 C35_5 1_555 1_555
O11_5 C35_5 1_555 1_555
O12_3 C42_5 1_555 1_555
O22 C42_5 1_555 1_555
O26_2 C49_5 1_555 1_555
O28_2 C49_5 1_555 1_555
O18_5 Mg8_2 1_555 1_555
C29_5 C30_5 1_555 1_555
C30_5 H17_5 1_555 1_555
C31_5 C30_5 1_555 1_555
H18_5 C31_5 1_555 1_555
C32_5 C31_5 1_555 1_555
C33_5 C32_5 1_555 1_555
H19_5 C33_5 1_555 1_555
C34_5 C29_5 1_555 1_555
H20_5 C34_5 1_555 1_555
C35_5 C32_5 1_555 1_555
C36_5 P2_5 1_555 1_555
C37_5 C36_5 1_555 1_555
H21_5 C37_5 1_555 1_555
C38_5 C37_5 1_555 1_555
H22_5 C38_5 1_555 1_555
C39_5 C38_5 1_555 1_555
C40_5 C39_5 1_555 1_555
H23_5 C40_5 1_555 1_555
C41_5 C36_5 1_555 1_555
H24_5 C41_5 1_555 1_555
C42_5 C39_5 1_555 1_555
C43_5 P2_5 1_555 1_555
C44_5 C43_5 1_555 1_555
H25_5 C44_5 1_555 1_555
C45_5 C44_5 1_555 1_555
H26_5 C45_5 1_555 1_555
C46_5 C45_5 1_555 1_555
C47_5 C46_5 1_555 1_555
H27_5 C47_5 1_555 1_555
C48_5 C43_5 1_555 1_555
H28_5 C48_5 1_555 1_555
C49_5 C46_5 1_555 1_555
C50_5 P2_5 1_555 1_555
Mg7 O12_3 1_555 1_555
Mg13_2 O26_2 1_555 1_555
O19_3 Mg8_2 1_555 1_555
C33_5 C34_5 1_555 1_555
C40_5 C41_5 1_555 1_555
C47_5 C48_5 1_555 1_555
O18_5 H35_5 1_555 1_555
O18_5 H36_5 1_555 1_555
O12_4 C42_6 1_555 1_555
O22_2 C42_6 1_555 1_555
H22_6 C38_6 1_555 1_555
C39_6 C38_6 1_555 1_555
C42_6 C39_6 1_555 1_555
Mg7_2 O12_4 1_555 1_555
Mg8 O10_6 1_555 1_555
P2_6 C29_6 1_555 1_555
O10_6 C35_6 1_555 1_555
O11_6 C35_6 1_555 1_555
O18_6 Mg8 1_555 1_555
C29_6 C30_6 1_555 1_555
C30_6 H17_6 1_555 1_555
C31_6 C30_6 1_555 1_555
H18_6 C31_6 1_555 1_555
C32_6 C31_6 1_555 1_555
C33_6 C32_6 1_555 1_555
H19_6 C33_6 1_555 1_555
C34_6 C29_6 1_555 1_555
H20_6 C34_6 1_555 1_555
C35_6 C32_6 1_555 1_555
C36_6 P2_6 1_555 1_555
C37_6 C36_6 1_555 1_555
H21_6 C37_6 1_555 1_555
C41_6 C36_6 1_555 1_555
H24_6 C41_6 1_555 1_555
C43_6 P2_6 1_555 1_555
C44_6 C43_6 1_555 1_555
H25_6 C44_6 1_555 1_555
C45_6 C44_6 1_555 1_555
H26_6 C45_6 1_555 1_555
C46_6 C45_6 1_555 1_555
C47_6 C46_6 1_555 1_555
C48_6 C43_6 1_555 1_555
H28_6 C48_6 1_555 1_555
C50_6 P2_6 1_555 1_555
O19_4 Mg8 1_555 1_555
C33_6 C34_6 1_555 1_555
C40_6 C41_6 1_555 1_555
C47_6 C48_6 1_555 1_555
O18_6 H35_6 1_555 1_555
O18_6 H36_6 1_555 1_555
O25 C21_6 1_555 1_555
O27 C21_6 1_555 1_555
O16_6 Mg12 1_555 1_555
O30_3 C56_6 1_555 1_555
H29_6 C51_6 1_555 1_555
C52_6 C51_6 1_555 1_555
H30_6 C52_6 1_555 1_555
C53_6 C52_6 1_555 1_555
C54_6 C53_6 1_555 1_555
H31_6 C54_6 1_555 1_555
H32_6 C55_6 1_555 1_555
C56_6 O16_6 1_555 1_555
Mg12_3 O25 1_555 1_555
O26_3 Mg12 1_555 1_555
C53_6 C56_6 1_555 1_555
C54_6 C55_6 1_555 1_555
O26 C49_6 1_555 1_555
O28 C49_6 1_555 1_555
Mg12_4 O26 1_555 1_555
O3_4 C14_6 1_555 1_555
O21_2 C14_6 1_555 1_555
H6_6 C10_6 1_555 1_555
C11_6 C10_6 1_555 1_555
C14_6 C11_6 1_555 1_555
Mg9_2 O3_4 1_555 1_555
Mg6 O1_6 1_555 1_555
Mg12_2 O7_6 1_555 1_555
P1_6 C1_6 1_555 1_555
O1_6 C7_6 1_555 1_555
O2_6 C7_6 1_555 1_555
O7_6 C28_6 1_555 1_555
O29_3 C28_6 1_555 1_555
O9_6 Mg6 1_555 1_555
C1_6 C2_6 1_555 1_555
C2_6 H1_6 1_555 1_555
C3_6 C2_6 1_555 1_555
H2_6 C3_6 1_555 1_555
C4_6 C3_6 1_555 1_555
C5_6 C4_6 1_555 1_555
H3_6 C5_6 1_555 1_555
C6_6 C1_6 1_555 1_555
H4_6 C6_6 1_555 1_555
C7_6 C4_6 1_555 1_555
C8_6 P1_6 1_555 1_555
C9_6 C8_6 1_555 1_555
H5_6 C9_6 1_555 1_555
C13_6 C8_6 1_555 1_555
H8_6 C13_6 1_555 1_555
C15_6 P1_6 1_555 1_555
C16_6 C15_6 1_555 1_555
H9_6 C16_6 1_555 1_555
C17_6 C16_6 1_555 1_555
H10_6 C17_6 1_555 1_555
C18_6 C17_6 1_555 1_555
C19_6 C18_6 1_555 1_555
C20_6 C15_6 1_555 1_555
H12_6 C20_6 1_555 1_555
C22_6 P1_6 1_555 1_555
C23_6 C22_6 1_555 1_555
H13_6 C23_6 1_555 1_555
C24_6 C23_6 1_555 1_555
H14_6 C24_6 1_555 1_555
C25_6 C24_6 1_555 1_555
C26_6 C25_6 1_555 1_555
H15_6 C26_6 1_555 1_555
C27_6 C22_6 1_555 1_555
H16_6 C27_6 1_555 1_555
C28_6 C25_6 1_555 1_555
O20_4 Mg6 1_555 1_555
O25_3 Mg12_2 1_555 1_555
C5_6 C6_6 1_555 1_555
C12_6 C13_6 1_555 1_555
C19_6 C20_6 1_555 1_555
C26_6 C27_6 1_555 1_555
O9_6 H33_6 1_555 1_555
O9_6 H34_6 1_555 1_555
Mg7_2 O1_7 1_555 1_555
P1_7 C1_7 1_555 1_555
O1_7 C7_7 1_555 1_555
O2_7 C7_7 1_555 1_555
O25_4 C21_7 1_555 1_555
O27_4 C21_7 1_555 1_555
O9_7 Mg7_2 1_555 1_555
C1_7 C2_7 1_555 1_555
C2_7 H1_7 1_555 1_555
C3_7 C2_7 1_555 1_555
H2_7 C3_7 1_555 1_555
C4_7 C3_7 1_555 1_555
C5_7 C4_7 1_555 1_555
H3_7 C5_7 1_555 1_555
C6_7 C1_7 1_555 1_555
H4_7 C6_7 1_555 1_555
C7_7 C4_7 1_555 1_555
C8_7 P1_7 1_555 1_555
C9_7 C8_7 1_555 1_555
H5_7 C9_7 1_555 1_555
C13_7 C8_7 1_555 1_555
H8_7 C13_7 1_555 1_555
C15_7 P1_7 1_555 1_555
C16_7 C15_7 1_555 1_555
H9_7 C16_7 1_555 1_555
C17_7 C16_7 1_555 1_555
H10_7 C17_7 1_555 1_555
C18_7 C17_7 1_555 1_555
C19_7 C18_7 1_555 1_555
H11_7 C19_7 1_555 1_555
C20_7 C15_7 1_555 1_555
H12_7 C20_7 1_555 1_555
C21_7 C18_7 1_555 1_555
C22_7 P1_7 1_555 1_555
C5_7 C6_7 1_555 1_555
C12_7 C13_7 1_555 1_555
C19_7 C20_7 1_555 1_555
O9_7 H33_7 1_555 1_555
O9_7 H34_7 1_555 1_555
O19_4 C14_7 1_555 1_555
O21_3 C14_7 1_555 1_555
H6_7 C10_7 1_555 1_555
C11_7 C10_7 1_555 1_555
C14_7 C11_7 1_555 1_555
Mg13_2 O7_7 1_555 1_555
O7_7 C28_7 1_555 1_555
O29_2 C28_7 1_555 1_555
H13_7 C23_7 1_555 1_555
C24_7 C23_7 1_555 1_555
H14_7 C24_7 1_555 1_555
C25_7 C24_7 1_555 1_555
C26_7 C25_7 1_555 1_555
H15_7 C26_7 1_555 1_555
H16_7 C27_7 1_555 1_555
C28_7 C25_7 1_555 1_555
Mg9_2 O10_7 1_555 1_555
P2_7 C29_7 1_555 1_555
O10_7 C35_7 1_555 1_555
O11_7 C35_7 1_555 1_555
O26_4 C49_7 1_555 1_555
O28_4 C49_7 1_555 1_555
O16_7 Mg13_2 1_555 1_555
O30_2 C56_7 1_555 1_555
O18_7 Mg9_2 1_555 1_555
C29_7 C30_7 1_555 1_555
C30_7 H17_7 1_555 1_555
C31_7 C30_7 1_555 1_555
H18_7 C31_7 1_555 1_555
C32_7 C31_7 1_555 1_555
C33_7 C32_7 1_555 1_555
H19_7 C33_7 1_555 1_555
C34_7 C29_7 1_555 1_555
H20_7 C34_7 1_555 1_555
C35_7 C32_7 1_555 1_555
C36_7 P2_7 1_555 1_555
C37_7 C36_7 1_555 1_555
H21_7 C37_7 1_555 1_555
C41_7 C36_7 1_555 1_555
H24_7 C41_7 1_555 1_555
C43_7 P2_7 1_555 1_555
C44_7 C43_7 1_555 1_555
H25_7 C44_7 1_555 1_555
C45_7 C44_7 1_555 1_555
H26_7 C45_7 1_555 1_555
C46_7 C45_7 1_555 1_555
C47_7 C46_7 1_555 1_555
H27_7 C47_7 1_555 1_555
C48_7 C43_7 1_555 1_555
H28_7 C48_7 1_555 1_555
C49_7 C46_7 1_555 1_555
C50_7 P2_7 1_555 1_555
C51_7 C50_7 1_555 1_555
H29_7 C51_7 1_555 1_555
C52_7 C51_7 1_555 1_555
H30_7 C52_7 1_555 1_555
C53_7 C52_7 1_555 1_555
C54_7 C53_7 1_555 1_555
H31_7 C54_7 1_555 1_555
C55_7 C50_7 1_555 1_555
H32_7 C55_7 1_555 1_555
C56_7 O16_7 1_555 1_555
C26_7 C27_7 1_555 1_555
C33_7 C34_7 1_555 1_555
C40_7 C41_7 1_555 1_555
C47_7 C48_7 1_555 1_555
C53_7 C56_7 1_555 1_555
C54_7 C55_7 1_555 1_555
O18_7 H35_7 1_555 1_555
O18_7 H36_7 1_555 1_555
O20_4 C42_7 1_555 1_555
O22_3 C42_7 1_555 1_555
H22_7 C38_7 1_555 1_555
C39_7 C38_7 1_555 1_555
C42_7 C39_7 1_555 1_555
Mg12_3 O7_8 1_555 1_555
O7_8 C28_8 1_555 1_555
O29 C28_8 1_555 1_555
H13_8 C23_8 1_555 1_555
C24_8 C23_8 1_555 1_555
H14_8 C24_8 1_555 1_555
C25_8 C24_8 1_555 1_555
C26_8 C25_8 1_555 1_555
H15_8 C26_8 1_555 1_555
H16_8 C27_8 1_555 1_555
C28_8 C25_8 1_555 1_555
O26_3 C49_8 1_555 1_555
O28_3 C49_8 1_555 1_555
C26_8 C27_8 1_555 1_555
Mg7 O1_8 1_555 1_555
P1_8 C1_8 1_555 1_555
O1_8 C7_8 1_555 1_555
O2_8 C7_8 1_555 1_555
O19_3 C14_8 1_555 1_555
O21_4 C14_8 1_555 1_555
O9_8 Mg7 1_555 1_555
C1_8 C2_8 1_555 1_555
C2_8 H1_8 1_555 1_555
C3_8 C2_8 1_555 1_555
H2_8 C3_8 1_555 1_555
C4_8 C3_8 1_555 1_555
C5_8 C4_8 1_555 1_555
H3_8 C5_8 1_555 1_555
C6_8 C1_8 1_555 1_555
H4_8 C6_8 1_555 1_555
C7_8 C4_8 1_555 1_555
C8_8 P1_8 1_555 1_555
C9_8 C8_8 1_555 1_555
H5_8 C9_8 1_555 1_555
C10_8 C9_8 1_555 1_555
H6_8 C10_8 1_555 1_555
C11_8 C10_8 1_555 1_555
C12_8 C11_8 1_555 1_555
H7_8 C12_8 1_555 1_555
C13_8 C8_8 1_555 1_555
H8_8 C13_8 1_555 1_555
C14_8 C11_8 1_555 1_555
C15_8 P1_8 1_555 1_555
C16_8 C15_8 1_555 1_555
H9_8 C16_8 1_555 1_555
C17_8 C16_8 1_555 1_555
H10_8 C17_8 1_555 1_555
C18_8 C17_8 1_555 1_555
C19_8 C18_8 1_555 1_555
C20_8 C15_8 1_555 1_555
H12_8 C20_8 1_555 1_555
C22_8 P1_8 1_555 1_555
C5_8 C6_8 1_555 1_555
C12_8 C13_8 1_555 1_555
C19_8 C20_8 1_555 1_555
O9_8 H33_8 1_555 1_555
O9_8 H34_8 1_555 1_555
Mg9 O10_8 1_555 1_555
P2_8 C29_8 1_555 1_555
O10_8 C35_8 1_555 1_555
O11_8 C35_8 1_555 1_555
O20_3 C42_8 1_555 1_555
O22_4 C42_8 1_555 1_555
O16_8 Mg12_4 1_555 1_555
O30 C56_8 1_555 1_555
O18_8 Mg9 1_555 1_555
C29_8 C30_8 1_555 1_555
C30_8 H17_8 1_555 1_555
C31_8 C30_8 1_555 1_555
H18_8 C31_8 1_555 1_555
C32_8 C31_8 1_555 1_555
C33_8 C32_8 1_555 1_555
H19_8 C33_8 1_555 1_555
C34_8 C29_8 1_555 1_555
H20_8 C34_8 1_555 1_555
C35_8 C32_8 1_555 1_555
C36_8 P2_8 1_555 1_555
C37_8 C36_8 1_555 1_555
H21_8 C37_8 1_555 1_555
C38_8 C37_8 1_555 1_555
H22_8 C38_8 1_555 1_555
C39_8 C38_8 1_555 1_555
C40_8 C39_8 1_555 1_555
H23_8 C40_8 1_555 1_555
C41_8 C36_8 1_555 1_555
H24_8 C41_8 1_555 1_555
C42_8 C39_8 1_555 1_555
C43_8 P2_8 1_555 1_555
C44_8 C43_8 1_555 1_555
H25_8 C44_8 1_555 1_555
C45_8 C44_8 1_555 1_555
H26_8 C45_8 1_555 1_555
C46_8 C45_8 1_555 1_555
C47_8 C46_8 1_555 1_555
C48_8 C43_8 1_555 1_555
H28_8 C48_8 1_555 1_555
C50_8 P2_8 1_555 1_555
C51_8 C50_8 1_555 1_555
H29_8 C51_8 1_555 1_555
C52_8 C51_8 1_555 1_555
H30_8 C52_8 1_555 1_555
C53_8 C52_8 1_555 1_555
C54_8 C53_8 1_555 1_555
H31_8 C54_8 1_555 1_555
C55_8 C50_8 1_555 1_555
H32_8 C55_8 1_555 1_555
C56_8 O16_8 1_555 1_555
C33_8 C34_8 1_555 1_555
C40_8 C41_8 1_555 1_555
C47_8 C48_8 1_555 1_555
C53_8 C56_8 1_555 1_555
C54_8 C55_8 1_555 1_555
O18_8 H35_8 1_555 1_555
O18_8 H36_8 1_555 1_555
O25_3 C21_8 1_555 1_555
O27_3 C21_8 1_555 1_555

#END
