
###############################################################################
#
# This file contains modified crystal structure data generated from the
# MOF subset of the Cambridge Structural Database (CSD) v543 
# hosted by the Cambridge Crystallographic Data Centre (CCDC).
#
# This work is licensed under the Creative Commons
# Attribution-NonCommercial-ShareAlike 4.0 International License.
# To view a copy of this license, visit
# http://creativecommons.org/licenses/by-nc-sa/4.0/
# or send a letter to
# Creative Commons, PO Box 1866, Mountain View, CA 94042, USA.
#
# CIF created using the CSD Python API on 29 September 2022
# The structure has been converted into the P1 space group
# The structure has a 3D framework
# The original CSD entry LOGZIT is in the rhombohedral crystal system
# The original CSD entry LOGZIT is in a Sohncke space group
# The framework has been calculated to contain at least 10.0% void space
# The void calculation uses a probe of radius 1.32A, grid spacing 0.4
#
###############################################################################

data_LOGZIT
_chemical_formula_moiety         '(C180 H288 Cu18 N54 Ni9 O88)n'
_symmetry_cell_setting           triclinic
_symmetry_space_group_name_H-M   'P 1'
_symmetry_Int_Tables_number      1
_space_group_name_Hall           'P 1'
loop_
_symmetry_equiv_pos_site_id
_symmetry_equiv_pos_as_xyz
1 x,y,z
_cell_length_a                   33.792(6)
_cell_length_b                   33.792(6)
_cell_length_c                   14.820(2)
_cell_angle_alpha                90
_cell_angle_beta                 90
_cell_angle_gamma                120
_cell_volume                     14655.7
loop_
_atom_site_label
_atom_site_type_symbol
_atom_site_fract_x
_atom_site_fract_y
_atom_site_fract_z
Cu2 Cu 0.65079(14) 0.02226(14) 0.2811(5)
Ni1 Ni 0.49916(19) 0.0013(2) 0.1146(5)
O7 O 0.5956(6) 0.0292(5) 0.2312(10)
O10 O 0.6946(6) 0.0263(5) 0.3631(10)
C8 C 0.6754(6) 0.0021(8) 0.4342(14)
C10 C 0.5530(8) 0.0067(10) 0.4343(17)
H8 H 0.5726 0.0395 0.4235
N3 N 0.5524(5) 0.0616(4) 0.1094(8)
H9 H 0.5689 0.0604 0.1645
N5 N 0.4628(5) 0.0255(3) 0.1751(9)
H11 H 0.4472 0.0354 0.1308
C11 C 0.5877(5) 0.0740(3) 0.0437(10)
H13 H 0.6165 0.0907 0.0784
H14 H 0.5861 0.0973 0.0058
C14 C 0.4337(7) 0.0003(4) 0.2488(9)
H19 H 0.4157 0.0148 0.2671
H20 H 0.4527 0.0018 0.3008
C19 C 0.5348(4) 0.0895(4) 0.1424(10)
H29 H 0.5193 0.0964 0.0933
H30 H 0.5599 0.1187 0.1661
C20 C 0.5015(4) 0.0633(6) 0.2162(6)
H31 H 0.5157 0.0524 0.2608
H32 H 0.4921 0.0831 0.2478
O11 O 0.3587(9) 0.0334(5) 0.0577(9)
O13 O 0.6968(9) 0.0561(5) 0.1893(11)
N1 N 0.3976(6) 0.0139(6) 0.8615(11)
O2 O 0.3959(5) 0.0387(7) 0.7175(9)
O4 O 0.4833(5) 0.0193(5) 0.9837(8)
C2 C 0.3731(8) 0.0126(11) 0.7875(16)
C4 C 0.4393(8) 0.0162(8) 0.8732(12)
H1 H 0.4469 0.0010 0.8238
C9 C 0.4688(7) 0.0694(6) 0.8710(12)
H3 H 0.4663 0.0805 0.8114
H4 H 0.5008 0.0787 0.8831
H5 H 0.4578 0.0824 0.9171
C12 C 0.5963(5) 0.0453(5) 0.9782(11)
H15 H 0.6259 0.0474 0.9927
H16 H 0.5986 0.0575 0.9165
Cu3 Cu 0.35423(14) 0.03773(18) 0.6239(5)
N2 N 0.6129(6) 0.9961(6) 0.3801(11)
O3 O 0.4025(6) 0.9812(5) 0.0006(9)
O6 O 0.5273(5) 0.9968(5) 0.2409(9)
O8 O 0.6106(5) 0.9741(7) 0.5226(11)
O9 O 0.6989(6) 0.9965(8) 0.5011(11)
C5 C 0.5666(8) 0.9793(8) 0.3680(11)
H2 H 0.5473 0.9453 0.3727
C6 C 0.5607(8) 0.9993(7) 0.2822(10)
C7 C 0.6248(6) 0.9824(9) 0.4447(15)
H6 H 0.5569 0.9996 0.4967
H7 H 0.5210 0.9981 0.4242
N4 N 0.5283(5) 0.9713(3) 0.0518(8)
H10 H 0.5507 0.9741 0.0991
N6 N 0.4477(5) 0.9377(3) 0.1241(9)
H12 H 0.4252 0.9297 0.0740
C15 C 0.4015(5) 0.9512(5) 0.2258(15)
H21 H 0.3842 0.9496 0.1707
H22 H 0.3793 0.9367 0.2756
C16 C 0.4260(6) 0.9250(3) 0.2105(8)
H23 H 0.4491 0.9324 0.2583
H24 H 0.4041 0.8918 0.2121
C17 C 0.5002(4) 0.9227(3) 0.0484(10)
H25 H 0.5193 0.9081 0.0540
C18 C 0.4672(5) 0.9087(5) 0.1256(10)
H27 H 0.4430 0.8763 0.1190
H28 H 0.4833 0.9121 0.1835
Cu4 Cu 0.64441(14) 0.96186(20) 0.6144(5)
O12 O 0.3095(9) 0.9374(5) 0.0508(9)
O14 O 0.6309(10) 0.9678(6) 0.1678(11)
Cu1 Cu 0.35016(12) 0.97910(14) 0.9572(5)
O1 O 0.2999(5) 0.9919(7) 0.7244(9)
O5 O 0.2999(5) 0.9800(5) 0.8688(9)
C1 C 0.3229(8) 0.9966(11) 0.7889(15)
C3 C 0.4386(10) 0.9952(10) 0.9748(12)
C13 C 0.5593(6) 0.9961(4) 0.9802(8)
H17 H 0.5396 0.9924 0.9277
H18 H 0.5748 0.9786 0.9657
H26 H 0.4835 0.9131 0.9904
N2_2 N 0.0039(6) 0.6168(8) 0.3801(11)
O3_2 O 0.0188(5) 0.4213(8) 0.0006(9)
O6_2 O 0.0032(5) 0.5305(7) 0.2409(9)
O8_2 O 0.0259(7) 0.6365(9) 0.5226(11)
O9_2 O 0.0035(8) 0.7024(10) 0.5011(11)
C5_2 C 0.0207(8) 0.5873(11) 0.3680(11)
H2_2 H 0.0547 0.6020 0.3727
C6_2 C 0.0007(7) 0.5614(11) 0.2822(10)
C7_2 C 0.0176(9) 0.6424(11) 0.4447(15)
H6_2 H 0.0004 0.5573 0.4967
H7_2 H 0.0019 0.5229 0.4242
N4_2 N 0.0287(3) 0.5570(6) 0.0518(8)
H10_2 H 0.0259 0.5766 0.0991
N6_2 N 0.0623(3) 0.5100(6) 0.1241(9)
H12_2 H 0.0703 0.4955 0.0740
C15_2 C 0.0488(5) 0.4503(7) 0.2258(15)
H21_2 H 0.0504 0.4346 0.1707
H22_2 H 0.0633 0.4426 0.2756
C16_2 C 0.0750(3) 0.5010(7) 0.2105(8)
H23_2 H 0.0676 0.5167 0.2583
H24_2 H 0.1082 0.5123 0.2121
C17_2 C 0.0773(3) 0.5775(5) 0.0484(10)
H25_2 H 0.0919 0.6112 0.0540
C18_2 C 0.0913(5) 0.5585(7) 0.1256(10)
H27_2 H 0.1237 0.5667 0.1190
H28_2 H 0.0879 0.5712 0.1835
Cu4_2 Cu 0.03814(20) 0.68254(24) 0.6144(5)
O12_2 O 0.0626(5) 0.3720(10) 0.0508(9)
O14_2 O 0.0322(6) 0.6632(12) 0.1678(11)
Cu1_2 Cu 0.02090(14) 0.37106(18) 0.9572(5)
O1_2 O 0.0081(7) 0.3080(9) 0.7244(9)
O5_2 O 0.0200(5) 0.3199(7) 0.8688(9)
C1_2 C 0.0034(11) 0.3263(14) 0.7889(15)
C3_2 C 0.0048(10) 0.4434(14) 0.9748(12)
C13_2 C 0.0039(4) 0.5632(7) 0.9802(8)
H17_2 H 0.0076 0.5472 0.9277
H18_2 H 0.0214 0.5962 0.9657
H26_2 H 0.0869 0.5704 0.9904
Cu2_2 Cu 0.37147(20) 0.34921(14) 0.2811(5)
Ni1_2 Ni 0.50214(28) 0.50084(19) 0.1146(5)
N2_3 N 0.3832(8) 0.3871(6) 0.3801(11)
O3_3 O 0.5787(8) 0.5975(6) 0.0006(9)
O6_3 O 0.4695(7) 0.4727(5) 0.2409(9)
O7_2 O 0.4336(8) 0.4044(6) 0.2312(10)
O8_3 O 0.3635(9) 0.3894(5) 0.5226(11)
O9_3 O 0.2976(10) 0.3011(6) 0.5011(11)
O10_2 O 0.3317(8) 0.3054(6) 0.3631(10)
C5_3 C 0.4127(11) 0.4334(8) 0.3680(11)
H2_3 H 0.3980 0.4527 0.3727
C6_3 C 0.4386(11) 0.4393(8) 0.2822(10)
C7_3 C 0.3576(11) 0.3752(6) 0.4447(15)
C8_2 C 0.3267(10) 0.3246(6) 0.4342(14)
C10_2 C 0.4537(13) 0.4470(8) 0.4343(17)
H6_3 H 0.4427 0.4431 0.4967
H7_3 H 0.4771 0.4790 0.4242
H8_2 H 0.4669 0.4274 0.4235
N3_2 N 0.5092(6) 0.4476(5) 0.1094(8)
H9_2 H 0.4915 0.4311 0.1645
N4_3 N 0.4430(6) 0.4717(5) 0.0518(8)
H10_3 H 0.4234 0.4493 0.0991
N5_2 N 0.5627(6) 0.5372(5) 0.1751(9)
H11_2 H 0.5882 0.5528 0.1308
N6_3 N 0.4900(6) 0.5523(5) 0.1241(9)
H12_3 H 0.5045 0.5748 0.0740
C11_2 C 0.4863(6) 0.4123(5) 0.0437(10)
H13_2 H 0.4742 0.3835 0.0784
H14_2 H 0.5112 0.4139 0.0058
C14_2 C 0.5666(8) 0.5663(7) 0.2488(9)
H19_2 H 0.5991 0.5843 0.2671
H20_2 H 0.5491 0.5473 0.3008
C15_3 C 0.5497(7) 0.5985(5) 0.2258(15)
H21_3 H 0.5654 0.6158 0.1707
H22_3 H 0.5574 0.6207 0.2756
C16_3 C 0.4990(7) 0.5740(6) 0.2105(8)
H23_3 H 0.4833 0.5509 0.2583
H24_3 H 0.4877 0.5959 0.2121
C17_3 C 0.4225(5) 0.4998(4) 0.0484(10)
H25_3 H 0.3888 0.4807 0.0540
C18_3 C 0.4415(7) 0.5328(5) 0.1256(10)
H27_3 H 0.4333 0.5570 0.1190
H28_3 H 0.4288 0.5167 0.1835
C19_2 C 0.5547(6) 0.4652(4) 0.1424(10)
H29_2 H 0.5771 0.4807 0.0933
H30_2 H 0.5588 0.4401 0.1661
C20_2 C 0.5618(7) 0.4985(4) 0.2162(6)
H31_2 H 0.5367 0.4843 0.2608
H32_2 H 0.5910 0.5079 0.2478
Cu4_3 Cu 0.31746(24) 0.35559(14) 0.6144(5)
O11_2 O 0.6748(10) 0.6413(9) 0.0577(9)
O12_3 O 0.6280(10) 0.6905(9) 0.0508(9)
O13_2 O 0.3592(10) 0.3032(9) 0.1893(11)
O14_3 O 0.3368(12) 0.3691(10) 0.1678(11)
Cu1_3 Cu 0.62894(18) 0.64984(12) 0.9572(5)
N1_2 N 0.6163(8) 0.6024(6) 0.8615(11)
O1_3 O 0.6920(9) 0.7001(5) 0.7244(9)
O2_2 O 0.6428(9) 0.6041(5) 0.7175(9)
O4_2 O 0.5360(7) 0.5167(5) 0.9837(8)
O5_3 O 0.6801(7) 0.7001(5) 0.8688(9)
C1_3 C 0.6737(14) 0.6771(8) 0.7889(15)
C2_2 C 0.6395(14) 0.6269(8) 0.7875(16)
C3_3 C 0.5566(14) 0.5614(10) 0.9748(12)
C4_2 C 0.5769(11) 0.5607(8) 0.8732(12)
H1_2 H 0.5541 0.5531 0.8238
C9_2 C 0.6006(9) 0.5312(7) 0.8710(12)
H3_2 H 0.6142 0.5337 0.8114
H4_2 H 0.5779 0.4992 0.8831
H5_2 H 0.6246 0.5422 0.9171
C12_2 C 0.4490(7) 0.4037(5) 0.9782(11)
H15_2 H 0.4215 0.3741 0.9927
H16_2 H 0.4589 0.4014 0.9165
C13_3 C 0.4368(7) 0.4407(6) 0.9802(8)
H17_3 H 0.4528 0.4604 0.9277
H18_3 H 0.4038 0.4252 0.9657
H26_3 H 0.4296 0.5165 0.9904
Cu3_2 Cu 0.68349(23) 0.64577(14) 0.6239(5)
Cu1_4 Cu 0.01683(12) 0.31243(14) 0.2905(5)
Ni1_3 Ni 0.16583(19) 0.3346(2) 0.4479(5)
N1_3 N 0.0643(6) 0.3472(6) 0.1948(11)
N2_4 N 0.2796(6) 0.3294(6) 0.7134(11)
O3_4 O 0.0692(6) 0.3145(5) 0.3339(9)
O4_3 O 0.1500(5) 0.3526(5) 0.3170(8)
O6_4 O 0.1940(5) 0.3301(5) 0.5742(9)
O7_3 O 0.2623(6) 0.3625(5) 0.5645(10)
O8_4 O 0.2773(5) 0.3074(7) 0.8559(11)
O9_4 O 0.3656(6) 0.3298(8) 0.8344(11)
O10_3 O 0.3613(6) 0.3596(5) 0.6964(10)
C2_3 C 0.0398(8) 0.3459(11) 0.1208(16)
C3_4 C 0.1053(10) 0.3285(10) 0.3081(12)
C4_3 C 0.1060(8) 0.3495(8) 0.2065(12)
H1_3 H 0.1136 0.3343 0.1571
C5_4 C 0.2333(8) 0.3126(8) 0.7013(11)
H2_4 H 0.2140 0.2786 0.7060
C6_4 C 0.2274(8) 0.3326(7) 0.6155(10)
C7_4 C 0.2915(6) 0.3157(9) 0.7780(15)
C8_3 C 0.3421(6) 0.3354(8) 0.7675(14)
C9_3 C 0.1355(7) 0.4027(6) 0.2043(12)
H3_3 H 0.1330 0.4138 0.1447
H4_3 H 0.1675 0.4120 0.2164
H5_3 H 0.1245 0.4157 0.2504
C10_3 C 0.2197(8) 0.3400(10) 0.7676(17)
H6_4 H 0.2236 0.3329 0.8300
H7_4 H 0.1877 0.3314 0.7575
H8_3 H 0.2393 0.3728 0.7568
N3_3 N 0.2191(5) 0.3949(4) 0.4427(8)
H9_3 H 0.2356 0.3937 0.4978
N4_4 N 0.1950(5) 0.3046(3) 0.3851(8)
H10_4 H 0.2174 0.3074 0.4324
N5_3 N 0.1295(5) 0.3588(3) 0.5084(9)
H11_3 H 0.1139 0.3687 0.4641
N6_4 N 0.1144(5) 0.2710(3) 0.4574(9)
H12_4 H 0.0919 0.2630 0.4073
C11_3 C 0.2544(5) 0.4073(3) 0.3770(10)
H13_3 H 0.2832 0.4240 0.4117
H14_3 H 0.2528 0.4306 0.3391
C12_3 C 0.2630(5) 0.3786(5) 0.3115(11)
H15_3 H 0.2926 0.3807 0.3260
H16_3 H 0.2653 0.3908 0.2498
C13_4 C 0.2260(6) 0.3294(4) 0.3135(8)
H17_4 H 0.2063 0.3257 0.2610
H18_4 H 0.2415 0.3119 0.2990
C14_3 C 0.1004(7) 0.3336(4) 0.5821(9)
H19_3 H 0.0824 0.3481 0.6004
H20_3 H 0.1194 0.3351 0.6341
C15_4 C 0.0682(5) 0.2845(5) 0.5591(15)
H21_4 H 0.0509 0.2829 0.5040
H22_4 H 0.0460 0.2700 0.6089
C16_4 C 0.0927(6) 0.2583(3) 0.5438(8)
H23_4 H 0.1158 0.2657 0.5916
H24_4 H 0.0708 0.2251 0.5454
C17_4 C 0.1669(4) 0.2560(3) 0.3817(10)
H25_4 H 0.1860 0.2414 0.3873
H26_4 H 0.1502 0.2464 0.3237
C18_4 C 0.1339(5) 0.2420(5) 0.4589(10)
H27_4 H 0.1097 0.2096 0.4523
H28_4 H 0.1500 0.2454 0.5168
C19_3 C 0.2015(4) 0.4228(4) 0.4757(10)
H29_3 H 0.1860 0.4297 0.4266
H30_3 H 0.2266 0.4520 0.4994
C20_3 C 0.1682(4) 0.3966(6) 0.5495(6)
H31_3 H 0.1824 0.3857 0.5941
H32_3 H 0.1588 0.4164 0.5811
Cu4_4 Cu 0.31107(14) 0.29520(20) 0.9478(5)
O11_3 O 0.0253(9) 0.3668(5) 0.3911(9)
Cu1_5 Cu 0.68757(14) 0.70439(18) 0.2905(5)
Ni1_4 Ni 0.6654(2) 0.83119(28) 0.4479(5)
N1_4 N 0.6528(6) 0.7170(8) 0.1948(11)
N2_5 N 0.6706(6) 0.9501(8) 0.7134(11)
O3_5 O 0.6855(5) 0.7546(8) 0.3339(9)
O4_4 O 0.6474(5) 0.7973(7) 0.3170(8)
O5_4 O 0.6867(5) 0.6532(7) 0.2021(9)
O6_5 O 0.6699(5) 0.8638(7) 0.5742(9)
O7_4 O 0.6375(5) 0.8997(8) 0.5645(10)
O8_5 O 0.6926(7) 0.9698(9) 0.8559(11)
C1_4 C 0.6701(11) 0.6596(14) 0.1222(15)
C2_4 C 0.6541(11) 0.6938(14) 0.1208(16)
C3_5 C 0.6715(10) 0.7767(14) 0.3081(12)
C4_4 C 0.6505(8) 0.7564(11) 0.2065(12)
H1_4 H 0.6657 0.7792 0.1571
C5_5 C 0.6874(8) 0.9206(11) 0.7013(11)
H2_5 H 0.7214 0.9353 0.7060
C6_5 C 0.6674(7) 0.8947(11) 0.6155(10)
C7_5 C 0.6843(9) 0.9757(11) 0.7780(15)
C9_4 C 0.5973(6) 0.7327(9) 0.2043(12)
H3_4 H 0.5862 0.7191 0.1447
H4_4 H 0.5880 0.7554 0.2164
H5_4 H 0.5843 0.7087 0.2504
C10_4 C 0.6600(10) 0.8796(13) 0.7676(17)
H6_5 H 0.6671 0.8906 0.8300
H7_5 H 0.6686 0.8562 0.7575
H8_4 H 0.6272 0.8664 0.7568
N3_4 N 0.6051(4) 0.8241(6) 0.4427(8)
H9_4 H 0.6063 0.8418 0.4978
N4_5 N 0.6954(3) 0.8903(6) 0.3851(8)
H10_5 H 0.6926 0.9099 0.4324
N5_4 N 0.6412(3) 0.7706(6) 0.5084(9)
H11_4 H 0.6313 0.7451 0.4641
N6_5 N 0.7290(3) 0.8433(6) 0.4574(9)
H12_5 H 0.7370 0.8288 0.4073
C11_4 C 0.5927(3) 0.8470(6) 0.3770(10)
H13_4 H 0.5760 0.8591 0.4117
H14_4 H 0.5694 0.8221 0.3391
C12_4 C 0.6214(5) 0.8843(7) 0.3115(11)
H15_4 H 0.6193 0.9118 0.3260
H16_4 H 0.6092 0.8744 0.2498
C13_5 C 0.6706(4) 0.8965(7) 0.3135(8)
H17_5 H 0.6743 0.8805 0.2610
H18_5 H 0.6881 0.9295 0.2990
C14_4 C 0.6664(4) 0.7667(8) 0.5821(9)
H19_4 H 0.6519 0.7342 0.6004
H20_4 H 0.6649 0.7842 0.6341
C15_5 C 0.7155(5) 0.7836(7) 0.5591(15)
H21_5 H 0.7171 0.7679 0.5040
H22_5 H 0.7300 0.7759 0.6089
C16_5 C 0.7417(3) 0.8343(7) 0.5438(8)
H23_5 H 0.7343 0.8500 0.5916
H24_5 H 0.7749 0.8456 0.5454
C17_5 C 0.7440(3) 0.9108(5) 0.3817(10)
H25_5 H 0.7586 0.9445 0.3873
H26_5 H 0.7536 0.9037 0.3237
C18_5 C 0.7580(5) 0.8918(7) 0.4589(10)
H27_5 H 0.7904 0.9000 0.4523
H28_5 H 0.7546 0.9045 0.5168
C19_4 C 0.5772(4) 0.7786(6) 0.4757(10)
H29_4 H 0.5703 0.7562 0.4266
H30_4 H 0.5480 0.7745 0.4994
C20_4 C 0.6034(6) 0.7715(7) 0.5495(6)
H31_4 H 0.6143 0.7966 0.5941
H32_4 H 0.5836 0.7423 0.5811
O11_4 O 0.6332(5) 0.6586(10) 0.3911(9)
O12_4 O 0.7292(5) 0.7054(10) 0.3842(9)
O5_5 O 0.3468(7) 0.0334(5) 0.2021(9)
C1_5 C 0.3404(14) 0.0104(8) 0.1222(15)
O12_5 O 0.2946(10) 0.0239(9) 0.3842(9)
Cu1_6 Cu 0.29561(18) 0.98317(12) 0.2905(5)
Ni1_5 Ni 0.16881(28) 0.83417(19) 0.4479(5)
N1_5 N 0.2830(8) 0.9357(6) 0.1948(11)
N2_6 N 0.0499(8) 0.7204(6) 0.7134(11)
O3_6 O 0.2454(8) 0.9308(6) 0.3339(9)
O4_5 O 0.2027(7) 0.8500(5) 0.3170(8)
O6_6 O 0.1362(7) 0.8060(5) 0.5742(9)
O7_5 O 0.1003(8) 0.7377(6) 0.5645(10)
O8_6 O 0.0302(9) 0.7227(5) 0.8559(11)
C2_5 C 0.3062(14) 0.9602(8) 0.1208(16)
C3_6 C 0.2233(14) 0.8947(10) 0.3081(12)
C4_5 C 0.2436(11) 0.8940(8) 0.2065(12)
H1_5 H 0.2208 0.8864 0.1571
C5_6 C 0.0794(11) 0.7667(8) 0.7013(11)
H2_6 H 0.0647 0.7860 0.7060
C6_6 C 0.1053(11) 0.7726(8) 0.6155(10)
C7_6 C 0.0243(11) 0.7085(6) 0.7780(15)
C9_5 C 0.2673(9) 0.8645(7) 0.2043(12)
H3_5 H 0.2809 0.8670 0.1447
H4_5 H 0.2446 0.8325 0.2164
H5_5 H 0.2913 0.8755 0.2504
C10_5 C 0.1204(13) 0.7803(8) 0.7676(17)
H6_6 H 0.1094 0.7764 0.8300
H7_6 H 0.1438 0.8123 0.7575
H8_5 H 0.1336 0.7607 0.7568
N3_5 N 0.1759(6) 0.7809(5) 0.4427(8)
H9_5 H 0.1582 0.7644 0.4978
N4_6 N 0.1097(6) 0.8050(5) 0.3851(8)
H10_6 H 0.0901 0.7826 0.4324
N5_5 N 0.2294(6) 0.8705(5) 0.5084(9)
H11_5 H 0.2549 0.8861 0.4641
N6_6 N 0.1567(6) 0.8856(5) 0.4574(9)
H12_6 H 0.1712 0.9081 0.4073
C11_5 C 0.1530(6) 0.7456(5) 0.3770(10)
H13_5 H 0.1409 0.7168 0.4117
H14_5 H 0.1779 0.7472 0.3391
C12_5 C 0.1157(7) 0.7370(5) 0.3115(11)
H15_5 H 0.0882 0.7074 0.3260
H16_5 H 0.1256 0.7347 0.2498
C13_6 C 0.1035(7) 0.7740(6) 0.3135(8)
H17_6 H 0.1195 0.7937 0.2610
H18_6 H 0.0705 0.7585 0.2990
C14_5 C 0.2333(8) 0.8996(7) 0.5821(9)
H19_5 H 0.2658 0.9176 0.6004
H20_5 H 0.2158 0.8806 0.6341
C15_6 C 0.2164(7) 0.9318(5) 0.5591(15)
H21_6 H 0.2321 0.9491 0.5040
H22_6 H 0.2241 0.9540 0.6089
C16_6 C 0.1657(7) 0.9073(6) 0.5438(8)
H23_6 H 0.1500 0.8842 0.5916
H24_6 H 0.1544 0.9292 0.5454
C17_6 C 0.0892(5) 0.8331(4) 0.3817(10)
H25_6 H 0.0555 0.8140 0.3873
H26_6 H 0.0963 0.8498 0.3237
C18_6 C 0.1082(7) 0.8661(5) 0.4589(10)
H27_6 H 0.1000 0.8903 0.4523
H28_6 H 0.0955 0.8500 0.5168
C19_5 C 0.2214(6) 0.7985(4) 0.4757(10)
H29_5 H 0.2438 0.8140 0.4266
H30_5 H 0.2255 0.7734 0.4994
C20_5 C 0.2285(7) 0.8318(4) 0.5495(6)
H31_5 H 0.2034 0.8176 0.5941
H32_5 H 0.2577 0.8412 0.5811
O11_5 O 0.3414(10) 0.9747(9) 0.3911(9)
O9_5 O 0.9643(10) 0.6344(6) 0.8344(11)
O10_4 O 0.9984(8) 0.6387(6) 0.6964(10)
C8_4 C 0.9934(10) 0.6579(6) 0.7675(14)
Cu4_5 Cu 0.98412(24) 0.68893(14) 0.9478(5)
O10_5 O 0.0279(6) 0.6930(5) 0.0298(10)
C8_5 C 0.0087(6) 0.6688(8) 0.1009(14)
Ni1_6 Ni 0.83249(19) 0.6680(2) 0.7813(5)
N1_6 N 0.7309(6) 0.6806(6) 0.5282(11)
O3_7 O 0.7358(6) 0.6479(5) 0.6673(9)
O4_6 O 0.8166(5) 0.6860(5) 0.6504(8)
O5_6 O 0.6332(5) 0.6467(5) 0.5355(9)
O6_7 O 0.8606(5) 0.6635(5) 0.9076(9)
O7_6 O 0.9289(6) 0.6959(5) 0.8979(10)
C1_6 C 0.6562(8) 0.6633(11) 0.4556(15)
C2_6 C 0.7064(8) 0.6793(11) 0.4542(16)
C3_7 C 0.7719(10) 0.6619(10) 0.6415(12)
C4_6 C 0.7726(8) 0.6829(8) 0.5399(12)
H1_6 H 0.7802 0.6677 0.4905
C6_7 C 0.8940(8) 0.6660(7) 0.9489(10)
C9_6 C 0.8021(7) 0.7361(6) 0.5377(12)
H3_6 H 0.7996 0.7472 0.4781
H4_6 H 0.8341 0.7454 0.5498
H5_6 H 0.7911 0.7491 0.5838
N3_6 N 0.8857(5) 0.7283(4) 0.7761(8)
H9_6 H 0.9022 0.7271 0.8312
N4_7 N 0.8616(5) 0.6380(3) 0.7185(8)
H10_7 H 0.8840 0.6408 0.7658
N5_6 N 0.7961(5) 0.6922(3) 0.8418(9)
H11_6 H 0.7805 0.7021 0.7975
N6_7 N 0.7810(5) 0.6044(3) 0.7908(9)
H12_7 H 0.7585 0.5964 0.7407
C11_6 C 0.9210(5) 0.7407(3) 0.7104(10)
H13_6 H 0.9498 0.7574 0.7451
H14_6 H 0.9194 0.7640 0.6725
C12_6 C 0.9296(5) 0.7120(5) 0.6449(11)
H15_6 H 0.9592 0.7141 0.6594
H16_6 H 0.9319 0.7242 0.5832
C13_7 C 0.8926(6) 0.6628(4) 0.6469(8)
H17_7 H 0.8729 0.6591 0.5944
H18_7 H 0.9081 0.6453 0.6324
C14_6 C 0.7670(7) 0.6670(4) 0.9155(9)
H19_6 H 0.7490 0.6815 0.9338
H20_6 H 0.7860 0.6685 0.9675
C15_7 C 0.7348(5) 0.6179(5) 0.8925(15)
H21_7 H 0.7175 0.6163 0.8374
H22_7 H 0.7126 0.6034 0.9423
C16_7 C 0.7593(6) 0.5917(3) 0.8772(8)
H23_7 H 0.7824 0.5991 0.9250
H24_7 H 0.7374 0.5585 0.8788
C17_7 C 0.8335(4) 0.5894(3) 0.7151(10)
H25_7 H 0.8526 0.5748 0.7207
H26_7 H 0.8168 0.5798 0.6571
C18_7 C 0.8005(5) 0.5754(5) 0.7923(10)
H27_7 H 0.7763 0.5430 0.7857
H28_7 H 0.8166 0.5788 0.8502
C19_6 C 0.8681(4) 0.7562(4) 0.8091(10)
H29_6 H 0.8526 0.7631 0.7600
H30_6 H 0.8932 0.7854 0.8328
C20_6 C 0.8348(4) 0.7300(6) 0.8829(6)
H31_6 H 0.8490 0.7191 0.9275
H32_6 H 0.8254 0.7498 0.9145
N2_7 N 0.3372(6) 0.2835(8) 0.0468(11)
O10_6 O 0.3070(5) 0.3350(8) 0.0298(10)
C5_7 C 0.3540(8) 0.2540(11) 0.0347(11)
H2_7 H 0.3880 0.2687 0.0394
C7_7 C 0.3509(9) 0.3091(11) 0.1114(15)
C8_6 C 0.3312(8) 0.3400(10) 0.1009(14)
C10_6 C 0.3266(10) 0.2130(13) 0.1010(17)
H6_7 H 0.3337 0.2240 0.1634
H7_7 H 0.3352 0.1896 0.0909
H8_6 H 0.2938 0.1998 0.0902
Ni1_7 Ni 0.3320(2) 0.16453(28) 0.7813(5)
N1_7 N 0.3194(6) 0.0504(8) 0.5282(11)
O3_8 O 0.3521(5) 0.0880(8) 0.6673(9)
O4_7 O 0.3140(5) 0.1307(7) 0.6504(8)
O6_8 O 0.3365(5) 0.1972(7) 0.9076(9)
O7_7 O 0.3041(5) 0.2331(8) 0.8979(10)
C2_7 C 0.3207(11) 0.0272(14) 0.4542(16)
C3_8 C 0.3381(10) 0.1101(14) 0.6415(12)
C4_7 C 0.3171(8) 0.0898(11) 0.5399(12)
H1_7 H 0.3323 0.1126 0.4905
C6_8 C 0.3340(7) 0.2281(11) 0.9489(10)
C9_7 C 0.2639(6) 0.0661(9) 0.5377(12)
H3_7 H 0.2528 0.0525 0.4781
H4_7 H 0.2546 0.0888 0.5498
H5_7 H 0.2509 0.0421 0.5838
N3_7 N 0.2717(4) 0.1575(6) 0.7761(8)
H9_7 H 0.2729 0.1752 0.8312
N4_8 N 0.3620(3) 0.2237(6) 0.7185(8)
H10_8 H 0.3592 0.2433 0.7658
N5_7 N 0.3078(3) 0.1040(6) 0.8418(9)
H11_7 H 0.2979 0.0785 0.7975
N6_8 N 0.3956(3) 0.1767(6) 0.7908(9)
H12_8 H 0.4036 0.1622 0.7407
C11_7 C 0.2593(3) 0.1804(6) 0.7104(10)
H13_7 H 0.2426 0.1925 0.7451
H14_7 H 0.2360 0.1555 0.6725
C12_7 C 0.2880(5) 0.2177(7) 0.6449(11)
H15_7 H 0.2859 0.2452 0.6594
H16_7 H 0.2758 0.2078 0.5832
C13_8 C 0.3372(4) 0.2299(7) 0.6469(8)
H17_8 H 0.3409 0.2139 0.5944
H18_8 H 0.3547 0.2629 0.6324
C14_7 C 0.3330(4) 0.1001(8) 0.9155(9)
H19_7 H 0.3185 0.0676 0.9338
H20_7 H 0.3315 0.1176 0.9675
C15_8 C 0.3821(5) 0.1170(7) 0.8925(15)
H21_8 H 0.3837 0.1013 0.8374
H22_8 H 0.3966 0.1093 0.9423
C16_8 C 0.4083(3) 0.1677(7) 0.8772(8)
H23_8 H 0.4009 0.1834 0.9250
H24_8 H 0.4415 0.1790 0.8788
C17_8 C 0.4106(3) 0.2442(5) 0.7151(10)
H25_8 H 0.4252 0.2779 0.7207
H26_8 H 0.4202 0.2371 0.6571
C18_8 C 0.4246(5) 0.2252(7) 0.7923(10)
H27_8 H 0.4570 0.2334 0.7857
H28_8 H 0.4212 0.2379 0.8502
C19_7 C 0.2438(4) 0.1120(6) 0.8091(10)
H29_7 H 0.2369 0.0896 0.7600
H30_7 H 0.2146 0.1079 0.8328
C20_7 C 0.2700(6) 0.1049(7) 0.8829(6)
H31_7 H 0.2809 0.1300 0.9275
H32_7 H 0.2502 0.0757 0.9145
O5_7 O 0.3533(5) 0.9866(7) 0.5355(9)
C1_7 C 0.3367(11) 0.9930(14) 0.4556(15)
O5_8 O 0.0134(7) 0.3668(5) 0.5355(9)
C1_8 C 0.0070(14) 0.3438(8) 0.4556(15)
N2_8 N 0.7165(8) 0.0538(6) 0.0468(11)
C5_8 C 0.7460(11) 0.1001(8) 0.0347(11)
H2_8 H 0.7313 0.1194 0.0394
C7_8 C 0.6909(11) 0.0419(6) 0.1114(15)
C10_7 C 0.7870(13) 0.1137(8) 0.1010(17)
H6_8 H 0.7760 0.1098 0.1634
H7_8 H 0.8104 0.1457 0.0909
H8_7 H 0.8002 0.0941 0.0902
O10_7 O 0.6650(8) 0.9721(6) 0.0298(10)
C8_7 C 0.6600(10) 0.9913(6) 0.1009(14)
Cu2_3 Cu 0.97774(14) 0.62853(20) 0.2811(5)
Ni1_8 Ni 0.9987(2) 0.49786(28) 0.1146(5)
O7_8 O 0.9708(5) 0.5664(8) 0.2312(10)
O10_8 O 0.9737(5) 0.6683(8) 0.3631(10)
C8_8 C 0.9979(8) 0.6733(10) 0.4342(14)
C10_8 C 0.9933(10) 0.5463(13) 0.4343(17)
H8_8 H 0.9605 0.5331 0.4235
N3_8 N 0.9384(4) 0.4908(6) 0.1094(8)
H9_8 H 0.9396 0.5085 0.1645
N5_8 N 0.9745(3) 0.4373(6) 0.1751(9)
H11_8 H 0.9646 0.4118 0.1308
C11_8 C 0.9260(3) 0.5137(6) 0.0437(10)
H13_8 H 0.9093 0.5258 0.0784
H14_8 H 0.9027 0.4888 0.0058
C14_8 C 0.9997(4) 0.4334(8) 0.2488(9)
H19_8 H 0.9852 0.4009 0.2671
H20_8 H 0.9982 0.4509 0.3008
C19_8 C 0.9105(4) 0.4453(6) 0.1424(10)
H29_8 H 0.9036 0.4229 0.0933
H30_8 H 0.8813 0.4412 0.1661
C20_8 C 0.9367(6) 0.4382(7) 0.2162(6)
H31_8 H 0.9476 0.4633 0.2608
H32_8 H 0.9169 0.4090 0.2478
O11_6 O 0.9666(5) 0.3252(10) 0.0577(9)
O13_3 O 0.9439(5) 0.6408(10) 0.1893(11)
N1_8 N 0.9861(6) 0.3837(8) 0.8615(11)
O2_3 O 0.9613(7) 0.3572(9) 0.7175(9)
O4_8 O 0.9807(5) 0.4640(7) 0.9837(8)
C2_8 C 0.9874(11) 0.3605(14) 0.7875(16)
C4_8 C 0.9838(8) 0.4231(11) 0.8732(12)
H1_8 H 0.9990 0.4459 0.8238
C9_8 C 0.9306(6) 0.3994(9) 0.8710(12)
H3_8 H 0.9195 0.3858 0.8114
H4_8 H 0.9213 0.4221 0.8831
H5_8 H 0.9176 0.3754 0.9171
C12_8 C 0.9547(5) 0.5510(7) 0.9782(11)
H15_8 H 0.9526 0.5785 0.9927
H16_8 H 0.9425 0.5411 0.9165
Cu3_3 Cu 0.96227(18) 0.31651(23) 0.6239(5)
O5_9 O 0.9666(5) 0.3133(5) 0.2021(9)
C1_9 C 0.9896(8) 0.3299(11) 0.1222(15)
O12_6 O 0.9761(9) 0.2708(5) 0.3842(9)
O9_6 O 0.6702(8) 0.0357(10) 0.8344(11)
O10_9 O 0.6404(5) 0.0016(8) 0.6964(10)
C8_9 C 0.6646(8) 0.0066(10) 0.7675(14)
Cu4_6 Cu 0.70480(20) 0.01588(24) 0.9478(5)
N2_9 N 0.9462(6) 0.6628(6) 0.0468(11)
C5_9 C 0.8999(8) 0.6460(8) 0.0347(11)
H2_9 H 0.8806 0.6120 0.0394
C7_9 C 0.9581(6) 0.6491(9) 0.1114(15)
C10_9 C 0.8863(8) 0.6734(10) 0.1010(17)
H6_9 H 0.8902 0.6663 0.1634
H7_9 H 0.8543 0.6648 0.0909
H8_9 H 0.9059 0.7062 0.0902
Ni1_9 Ni 0.83547(28) 0.16751(19) 0.7813(5)
N1_9 N 0.9496(8) 0.2691(6) 0.5282(11)
O3_9 O 0.9120(8) 0.2642(6) 0.6673(9)
O4_9 O 0.8693(7) 0.1834(5) 0.6504(8)
O6_9 O 0.8028(7) 0.1394(5) 0.9076(9)
O7_9 O 0.7669(8) 0.0711(6) 0.8979(10)
C2_9 C 0.9728(14) 0.2936(8) 0.4542(16)
C3_9 C 0.8899(14) 0.2281(10) 0.6415(12)
C4_9 C 0.9102(11) 0.2274(8) 0.5399(12)
H1_9 H 0.8874 0.2198 0.4905
C6_9 C 0.7719(11) 0.1060(8) 0.9489(10)
C9_9 C 0.9339(9) 0.1979(7) 0.5377(12)
H3_9 H 0.9475 0.2004 0.4781
H4_9 H 0.9112 0.1659 0.5498
H5_9 H 0.9579 0.2089 0.5838
N3_9 N 0.8425(6) 0.1143(5) 0.7761(8)
H9_9 H 0.8248 0.0978 0.8312
N4_9 N 0.7763(6) 0.1384(5) 0.7185(8)
H10_9 H 0.7567 0.1160 0.7658
N5_9 N 0.8960(6) 0.2039(5) 0.8418(9)
H11_9 H 0.9215 0.2195 0.7975
N6_9 N 0.8233(6) 0.2190(5) 0.7908(9)
H12_9 H 0.8378 0.2415 0.7407
C11_9 C 0.8196(6) 0.0790(5) 0.7104(10)
H13_9 H 0.8075 0.0502 0.7451
H14_9 H 0.8445 0.0806 0.6725
C12_9 C 0.7823(7) 0.0704(5) 0.6449(11)
H15_9 H 0.7548 0.0408 0.6594
H16_9 H 0.7922 0.0681 0.5832
C13_9 C 0.7701(7) 0.1074(6) 0.6469(8)
H17_9 H 0.7861 0.1271 0.5944
H18_9 H 0.7371 0.0919 0.6324
C14_9 C 0.8999(8) 0.2330(7) 0.9155(9)
H19_9 H 0.9324 0.2510 0.9338
H20_9 H 0.8824 0.2140 0.9675
C15_9 C 0.8830(7) 0.2652(5) 0.8925(15)
H21_9 H 0.8987 0.2825 0.8374
H22_9 H 0.8907 0.2874 0.9423
C16_9 C 0.8323(7) 0.2407(6) 0.8772(8)
H23_9 H 0.8166 0.2176 0.9250
H24_9 H 0.8210 0.2626 0.8788
C17_9 C 0.7558(5) 0.1665(4) 0.7151(10)
H25_9 H 0.7221 0.1474 0.7207
H26_9 H 0.7629 0.1832 0.6571
C18_9 C 0.7748(7) 0.1995(5) 0.7923(10)
H27_9 H 0.7666 0.2237 0.7857
H28_9 H 0.7621 0.1834 0.8502
C19_9 C 0.8880(6) 0.1319(4) 0.8091(10)
H29_9 H 0.9104 0.1474 0.7600
H30_9 H 0.8921 0.1068 0.8328
C20_9 C 0.8951(7) 0.1652(4) 0.8829(6)
H31_9 H 0.8700 0.1510 0.9275
H32_9 H 0.9243 0.1746 0.9145
loop_
_geom_bond_atom_site_label_1
_geom_bond_atom_site_label_2
_geom_bond_site_symmetry_1
_geom_bond_site_symmetry_2
O7 Cu2 1_555 1_555
O10 Cu2 1_555 1_555
C8 O10 1_555 1_555
H8 C10 1_555 1_555
N3 Ni1 1_555 1_555
H9 N3 1_555 1_555
N5 Ni1 1_555 1_555
H11 N5 1_555 1_555
C11 N3 1_555 1_555
H13 C11 1_555 1_555
H14 C11 1_555 1_555
C14 N5 1_555 1_555
H19 C14 1_555 1_555
H20 C14 1_555 1_555
C19 N3 1_555 1_555
H29 C19 1_555 1_555
H30 C19 1_555 1_555
C20 N5 1_555 1_555
H31 C20 1_555 1_555
H32 C20 1_555 1_555
O13 Cu2 1_555 1_555
C19 C20 1_555 1_555
N1 C2 1_555 1_555
O2 C2 1_555 1_555
C4 N1 1_555 1_555
H1 C4 1_555 1_555
C9 C4 1_555 1_555
H3 C9 1_555 1_555
H4 C9 1_555 1_555
H5 C9 1_555 1_555
H15 C12 1_555 1_555
H16 C12 1_555 1_555
O2 Cu3 1_555 1_555
N2 C5 1_555 1_555
O8 C7 1_555 1_555
C5 H2 1_555 1_555
C6 O6 1_555 1_555
C7 N2 1_555 1_555
H10 N4 1_555 1_555
H12 N6 1_555 1_555
H21 C15 1_555 1_555
H22 C15 1_555 1_555
C16 N6 1_555 1_555
H23 C16 1_555 1_555
H24 C16 1_555 1_555
C17 N4 1_555 1_555
H25 C17 1_555 1_555
C18 N6 1_555 1_555
H27 C18 1_555 1_555
H28 C18 1_555 1_555
Cu4 O8 1_555 1_555
O9 Cu4 1_555 1_555
C5 C6 1_555 1_555
C15 C16 1_555 1_555
C17 C18 1_555 1_555
O1 C1 1_555 1_555
O5 Cu1 1_555 1_555
C1 O5 1_555 1_555
H17 C13 1_555 1_555
H18 C13 1_555 1_555
N2_2 C5_2 1_555 1_555
O8_2 C7_2 1_555 1_555
C5_2 H2_2 1_555 1_555
C6_2 O6_2 1_555 1_555
C7_2 N2_2 1_555 1_555
H10_2 N4_2 1_555 1_555
H12_2 N6_2 1_555 1_555
H21_2 C15_2 1_555 1_555
H22_2 C15_2 1_555 1_555
C16_2 N6_2 1_555 1_555
H23_2 C16_2 1_555 1_555
H24_2 C16_2 1_555 1_555
C17_2 N4_2 1_555 1_555
H25_2 C17_2 1_555 1_555
C18_2 N6_2 1_555 1_555
H27_2 C18_2 1_555 1_555
H28_2 C18_2 1_555 1_555
Cu4_2 O8_2 1_555 1_555
O9_2 Cu4_2 1_555 1_555
C5_2 C6_2 1_555 1_555
C15_2 C16_2 1_555 1_555
C17_2 C18_2 1_555 1_555
O1_2 C1_2 1_555 1_555
O5_2 Cu1_2 1_555 1_555
C1_2 O5_2 1_555 1_555
H17_2 C13_2 1_555 1_555
H18_2 C13_2 1_555 1_555
Cu2_2 N2_3 1_555 1_555
N2_3 C5_3 1_555 1_555
O6_3 Ni1_2 1_555 1_555
O7_2 Cu2_2 1_555 1_555
O8_3 C7_3 1_555 1_555
O9_3 C8_2 1_555 1_555
O10_2 Cu2_2 1_555 1_555
C5_3 H2_3 1_555 1_555
C6_3 O6_3 1_555 1_555
C7_3 N2_3 1_555 1_555
C8_2 O10_2 1_555 1_555
C10_2 C5_3 1_555 1_555
H6_3 C10_2 1_555 1_555
H7_3 C10_2 1_555 1_555
H8_2 C10_2 1_555 1_555
N3_2 Ni1_2 1_555 1_555
H9_2 N3_2 1_555 1_555
N4_3 Ni1_2 1_555 1_555
H10_3 N4_3 1_555 1_555
N5_2 Ni1_2 1_555 1_555
H11_2 N5_2 1_555 1_555
N6_3 Ni1_2 1_555 1_555
H12_3 N6_3 1_555 1_555
C11_2 N3_2 1_555 1_555
H13_2 C11_2 1_555 1_555
H14_2 C11_2 1_555 1_555
C14_2 N5_2 1_555 1_555
H19_2 C14_2 1_555 1_555
H20_2 C14_2 1_555 1_555
C15_3 C14_2 1_555 1_555
H21_3 C15_3 1_555 1_555
H22_3 C15_3 1_555 1_555
C16_3 N6_3 1_555 1_555
H23_3 C16_3 1_555 1_555
H24_3 C16_3 1_555 1_555
C17_3 N4_3 1_555 1_555
H25_3 C17_3 1_555 1_555
C18_3 N6_3 1_555 1_555
H27_3 C18_3 1_555 1_555
H28_3 C18_3 1_555 1_555
C19_2 N3_2 1_555 1_555
H29_2 C19_2 1_555 1_555
H30_2 C19_2 1_555 1_555
C20_2 N5_2 1_555 1_555
H31_2 C20_2 1_555 1_555
H32_2 C20_2 1_555 1_555
Cu4_3 O8_3 1_555 1_555
O13_2 Cu2_2 1_555 1_555
O14_3 Cu2_2 1_555 1_555
O7_2 C6_3 1_555 1_555
O9_3 Cu4_3 1_555 1_555
C5_3 C6_3 1_555 1_555
C7_3 C8_2 1_555 1_555
C15_3 C16_3 1_555 1_555
C17_3 C18_3 1_555 1_555
C19_2 C20_2 1_555 1_555
Cu1_3 N1_2 1_555 1_555
N1_2 C2_2 1_555 1_555
O1_3 C1_3 1_555 1_555
O2_2 C2_2 1_555 1_555
O4_2 C3_3 1_555 1_555
O5_3 Cu1_3 1_555 1_555
C1_3 O5_3 1_555 1_555
C2_2 C1_3 1_555 1_555
C4_2 N1_2 1_555 1_555
H1_2 C4_2 1_555 1_555
C9_2 C4_2 1_555 1_555
H3_2 C9_2 1_555 1_555
H4_2 C9_2 1_555 1_555
H5_2 C9_2 1_555 1_555
H15_2 C12_2 1_555 1_555
H16_2 C12_2 1_555 1_555
H17_3 C13_3 1_555 1_555
H18_3 C13_3 1_555 1_555
Cu3_2 O1_3 1_555 1_555
O2_2 Cu3_2 1_555 1_555
C3_3 C4_2 1_555 1_555
C12_2 C13_3 1_555 1_555
Cu1_4 N1_3 1_555 1_555
Cu4_3 N2_4 1_555 1_555
Ni1_3 O4_3 1_555 1_555
N1_3 C2_3 1_555 1_555
N2_4 C5_4 1_555 1_555
O12_2 C2_3 1_555 1_555
O3_4 Cu1_4 1_555 1_555
O4_3 C3_4 1_555 1_555
O6_4 Ni1_3 1_555 1_555
O7_3 Cu4_3 1_555 1_555
O8_4 C7_4 1_555 1_555
O9_4 C8_3 1_555 1_555
O10_3 Cu4_3 1_555 1_555
C3_4 O3_4 1_555 1_555
C4_3 N1_3 1_555 1_555
H1_3 C4_3 1_555 1_555
C5_4 H2_4 1_555 1_555
C6_4 O6_4 1_555 1_555
C7_4 N2_4 1_555 1_555
C8_3 O10_3 1_555 1_555
C9_3 C4_3 1_555 1_555
H3_3 C9_3 1_555 1_555
H4_3 C9_3 1_555 1_555
H5_3 C9_3 1_555 1_555
C10_3 C5_4 1_555 1_555
H6_4 C10_3 1_555 1_555
H7_4 C10_3 1_555 1_555
H8_3 C10_3 1_555 1_555
N3_3 Ni1_3 1_555 1_555
H9_3 N3_3 1_555 1_555
N4_4 Ni1_3 1_555 1_555
H10_4 N4_4 1_555 1_555
N5_3 Ni1_3 1_555 1_555
H11_3 N5_3 1_555 1_555
N6_4 Ni1_3 1_555 1_555
H12_4 N6_4 1_555 1_555
C11_3 N3_3 1_555 1_555
H13_3 C11_3 1_555 1_555
H14_3 C11_3 1_555 1_555
C12_3 C11_3 1_555 1_555
H15_3 C12_3 1_555 1_555
H16_3 C12_3 1_555 1_555
C13_4 N4_4 1_555 1_555
H17_4 C13_4 1_555 1_555
H18_4 C13_4 1_555 1_555
C14_3 N5_3 1_555 1_555
H19_3 C14_3 1_555 1_555
H20_3 C14_3 1_555 1_555
C15_4 C14_3 1_555 1_555
H21_4 C15_4 1_555 1_555
H22_4 C15_4 1_555 1_555
C16_4 N6_4 1_555 1_555
H23_4 C16_4 1_555 1_555
H24_4 C16_4 1_555 1_555
C17_4 N4_4 1_555 1_555
H25_4 C17_4 1_555 1_555
H26_4 C17_4 1_555 1_555
C18_4 N6_4 1_555 1_555
H27_4 C18_4 1_555 1_555
H28_4 C18_4 1_555 1_555
C19_3 N3_3 1_555 1_555
H29_3 C19_3 1_555 1_555
H30_3 C19_3 1_555 1_555
C20_3 N5_3 1_555 1_555
H31_3 C20_3 1_555 1_555
H32_3 C20_3 1_555 1_555
Cu4_4 O8_4 1_555 1_555
O11_3 Cu1_4 1_555 1_555
O7_3 C6_4 1_555 1_555
O9_4 Cu4_4 1_555 1_555
C3_4 C4_3 1_555 1_555
C5_4 C6_4 1_555 1_555
C7_4 C8_3 1_555 1_555
C12_3 C13_4 1_555 1_555
C15_4 C16_4 1_555 1_555
C17_4 C18_4 1_555 1_555
C19_3 C20_3 1_555 1_555
Cu1_5 N1_4 1_555 1_555
Cu4 N2_5 1_555 1_555
Ni1_4 O4_4 1_555 1_555
N1_4 C2_4 1_555 1_555
N2_5 C5_5 1_555 1_555
O11_2 C1_4 1_555 1_555
O12_3 C2_4 1_555 1_555
O3_5 Cu1_5 1_555 1_555
O4_4 C3_5 1_555 1_555
O5_4 Cu1_5 1_555 1_555
O6_5 Ni1_4 1_555 1_555
O7_4 Cu4 1_555 1_555
O8_5 C7_5 1_555 1_555
C1_4 O5_4 1_555 1_555
C2_4 C1_4 1_555 1_555
C3_5 O3_5 1_555 1_555
C4_4 N1_4 1_555 1_555
H1_4 C4_4 1_555 1_555
C5_5 H2_5 1_555 1_555
C6_5 O6_5 1_555 1_555
C7_5 N2_5 1_555 1_555
C9_4 C4_4 1_555 1_555
H3_4 C9_4 1_555 1_555
H4_4 C9_4 1_555 1_555
H5_4 C9_4 1_555 1_555
C10_4 C5_5 1_555 1_555
H6_5 C10_4 1_555 1_555
H7_5 C10_4 1_555 1_555
H8_4 C10_4 1_555 1_555
N3_4 Ni1_4 1_555 1_555
H9_4 N3_4 1_555 1_555
N4_5 Ni1_4 1_555 1_555
H10_5 N4_5 1_555 1_555
N5_4 Ni1_4 1_555 1_555
H11_4 N5_4 1_555 1_555
N6_5 Ni1_4 1_555 1_555
H12_5 N6_5 1_555 1_555
C11_4 N3_4 1_555 1_555
H13_4 C11_4 1_555 1_555
H14_4 C11_4 1_555 1_555
C12_4 C11_4 1_555 1_555
H15_4 C12_4 1_555 1_555
H16_4 C12_4 1_555 1_555
C13_5 N4_5 1_555 1_555
H17_5 C13_5 1_555 1_555
H18_5 C13_5 1_555 1_555
C14_4 N5_4 1_555 1_555
H19_4 C14_4 1_555 1_555
H20_4 C14_4 1_555 1_555
C15_5 C14_4 1_555 1_555
H21_5 C15_5 1_555 1_555
H22_5 C15_5 1_555 1_555
C16_5 N6_5 1_555 1_555
H23_5 C16_5 1_555 1_555
H24_5 C16_5 1_555 1_555
C17_5 N4_5 1_555 1_555
H25_5 C17_5 1_555 1_555
H26_5 C17_5 1_555 1_555
C18_5 N6_5 1_555 1_555
H27_5 C18_5 1_555 1_555
H28_5 C18_5 1_555 1_555
C19_4 N3_4 1_555 1_555
H29_4 C19_4 1_555 1_555
H30_4 C19_4 1_555 1_555
C20_4 N5_4 1_555 1_555
H31_4 C20_4 1_555 1_555
H32_4 C20_4 1_555 1_555
O11_4 Cu1_5 1_555 1_555
O12_4 Cu1_5 1_555 1_555
O7_4 C6_5 1_555 1_555
C3_5 C4_4 1_555 1_555
C5_5 C6_5 1_555 1_555
C12_4 C13_5 1_555 1_555
C15_5 C16_5 1_555 1_555
C17_5 C18_5 1_555 1_555
C19_4 C20_4 1_555 1_555
O11 C1_5 1_555 1_555
C1_5 O5_5 1_555 1_555
Cu1_6 N1_5 1_555 1_555
Cu4_2 N2_6 1_555 1_555
Ni1_5 O4_5 1_555 1_555
N1_5 C2_5 1_555 1_555
N2_6 C5_6 1_555 1_555
O12 C2_5 1_555 1_555
O3_6 Cu1_6 1_555 1_555
O4_5 C3_6 1_555 1_555
O6_6 Ni1_5 1_555 1_555
O7_5 Cu4_2 1_555 1_555
O8_6 C7_6 1_555 1_555
C3_6 O3_6 1_555 1_555
C4_5 N1_5 1_555 1_555
H1_5 C4_5 1_555 1_555
C5_6 H2_6 1_555 1_555
C6_6 O6_6 1_555 1_555
C7_6 N2_6 1_555 1_555
C9_5 C4_5 1_555 1_555
H3_5 C9_5 1_555 1_555
H4_5 C9_5 1_555 1_555
H5_5 C9_5 1_555 1_555
C10_5 C5_6 1_555 1_555
H6_6 C10_5 1_555 1_555
H7_6 C10_5 1_555 1_555
H8_5 C10_5 1_555 1_555
N3_5 Ni1_5 1_555 1_555
H9_5 N3_5 1_555 1_555
N4_6 Ni1_5 1_555 1_555
H10_6 N4_6 1_555 1_555
N5_5 Ni1_5 1_555 1_555
H11_5 N5_5 1_555 1_555
N6_6 Ni1_5 1_555 1_555
H12_6 N6_6 1_555 1_555
C11_5 N3_5 1_555 1_555
H13_5 C11_5 1_555 1_555
H14_5 C11_5 1_555 1_555
C12_5 C11_5 1_555 1_555
H15_5 C12_5 1_555 1_555
H16_5 C12_5 1_555 1_555
C13_6 N4_6 1_555 1_555
H17_6 C13_6 1_555 1_555
H18_6 C13_6 1_555 1_555
C14_5 N5_5 1_555 1_555
H19_5 C14_5 1_555 1_555
H20_5 C14_5 1_555 1_555
C15_6 C14_5 1_555 1_555
H21_6 C15_6 1_555 1_555
H22_6 C15_6 1_555 1_555
C16_6 N6_6 1_555 1_555
H23_6 C16_6 1_555 1_555
H24_6 C16_6 1_555 1_555
C17_6 N4_6 1_555 1_555
H25_6 C17_6 1_555 1_555
H26_6 C17_6 1_555 1_555
C18_6 N6_6 1_555 1_555
H27_6 C18_6 1_555 1_555
H28_6 C18_6 1_555 1_555
C19_5 N3_5 1_555 1_555
H29_5 C19_5 1_555 1_555
H30_5 C19_5 1_555 1_555
C20_5 N5_5 1_555 1_555
H31_5 C20_5 1_555 1_555
H32_5 C20_5 1_555 1_555
O11_5 Cu1_6 1_555 1_555
O7_5 C6_6 1_555 1_555
C3_6 C4_5 1_555 1_555
C5_6 C6_6 1_555 1_555
C12_5 C13_6 1_555 1_555
C15_6 C16_6 1_555 1_555
C17_6 C18_6 1_555 1_555
C19_5 C20_5 1_555 1_555
O9_5 C8_4 1_555 1_555
C8_4 O10_4 1_555 1_555
O9_5 Cu4_5 1_555 1_555
O14_2 C8_5 1_555 1_555
C8_5 O10_5 1_555 1_555
Cu3_2 N1_6 1_555 1_555
Ni1_6 O4_6 1_555 1_555
N1_6 C2_6 1_555 1_555
O11_4 C1_6 1_555 1_555
O12_4 C2_6 1_555 1_555
O3_7 Cu3_2 1_555 1_555
O4_6 C3_7 1_555 1_555
O5_6 Cu3_2 1_555 1_555
O6_7 Ni1_6 1_555 1_555
O7_6 Cu4_5 1_555 1_555
C1_6 O5_6 1_555 1_555
C2_6 C1_6 1_555 1_555
C3_7 O3_7 1_555 1_555
C4_6 N1_6 1_555 1_555
H1_6 C4_6 1_555 1_555
C6_7 O6_7 1_555 1_555
C9_6 C4_6 1_555 1_555
H3_6 C9_6 1_555 1_555
H4_6 C9_6 1_555 1_555
H5_6 C9_6 1_555 1_555
N3_6 Ni1_6 1_555 1_555
H9_6 N3_6 1_555 1_555
N4_7 Ni1_6 1_555 1_555
H10_7 N4_7 1_555 1_555
N5_6 Ni1_6 1_555 1_555
H11_6 N5_6 1_555 1_555
N6_7 Ni1_6 1_555 1_555
H12_7 N6_7 1_555 1_555
C11_6 N3_6 1_555 1_555
H13_6 C11_6 1_555 1_555
H14_6 C11_6 1_555 1_555
C12_6 C11_6 1_555 1_555
H15_6 C12_6 1_555 1_555
H16_6 C12_6 1_555 1_555
C13_7 N4_7 1_555 1_555
H17_7 C13_7 1_555 1_555
H18_7 C13_7 1_555 1_555
C14_6 N5_6 1_555 1_555
H19_6 C14_6 1_555 1_555
H20_6 C14_6 1_555 1_555
C15_7 C14_6 1_555 1_555
H21_7 C15_7 1_555 1_555
H22_7 C15_7 1_555 1_555
C16_7 N6_7 1_555 1_555
H23_7 C16_7 1_555 1_555
H24_7 C16_7 1_555 1_555
C17_7 N4_7 1_555 1_555
H25_7 C17_7 1_555 1_555
H26_7 C17_7 1_555 1_555
C18_7 N6_7 1_555 1_555
H27_7 C18_7 1_555 1_555
H28_7 C18_7 1_555 1_555
C19_6 N3_6 1_555 1_555
H29_6 C19_6 1_555 1_555
H30_6 C19_6 1_555 1_555
C20_6 N5_6 1_555 1_555
H31_6 C20_6 1_555 1_555
H32_6 C20_6 1_555 1_555
O7_6 C6_7 1_555 1_555
C3_7 C4_6 1_555 1_555
C12_6 C13_7 1_555 1_555
C15_7 C16_7 1_555 1_555
C17_7 C18_7 1_555 1_555
C19_6 C20_6 1_555 1_555
N2_7 C5_7 1_555 1_555
O13_2 C7_7 1_555 1_555
O14_3 C8_6 1_555 1_555
C5_7 H2_7 1_555 1_555
C7_7 N2_7 1_555 1_555
C8_6 O10_6 1_555 1_555
C10_6 C5_7 1_555 1_555
H6_7 C10_6 1_555 1_555
H7_7 C10_6 1_555 1_555
H8_6 C10_6 1_555 1_555
C7_7 C8_6 1_555 1_555
Cu3 N1_7 1_555 1_555
Ni1_7 O4_7 1_555 1_555
N1_7 C2_7 1_555 1_555
O12_5 C2_7 1_555 1_555
O3_8 Cu3 1_555 1_555
O4_7 C3_8 1_555 1_555
O6_8 Ni1_7 1_555 1_555
O7_7 Cu4_4 1_555 1_555
C3_8 O3_8 1_555 1_555
C4_7 N1_7 1_555 1_555
H1_7 C4_7 1_555 1_555
C6_8 O6_8 1_555 1_555
C9_7 C4_7 1_555 1_555
H3_7 C9_7 1_555 1_555
H4_7 C9_7 1_555 1_555
H5_7 C9_7 1_555 1_555
N3_7 Ni1_7 1_555 1_555
H9_7 N3_7 1_555 1_555
N4_8 Ni1_7 1_555 1_555
H10_8 N4_8 1_555 1_555
N5_7 Ni1_7 1_555 1_555
H11_7 N5_7 1_555 1_555
N6_8 Ni1_7 1_555 1_555
H12_8 N6_8 1_555 1_555
C11_7 N3_7 1_555 1_555
H13_7 C11_7 1_555 1_555
H14_7 C11_7 1_555 1_555
C12_7 C11_7 1_555 1_555
H15_7 C12_7 1_555 1_555
H16_7 C12_7 1_555 1_555
C13_8 N4_8 1_555 1_555
H17_8 C13_8 1_555 1_555
H18_8 C13_8 1_555 1_555
C14_7 N5_7 1_555 1_555
H19_7 C14_7 1_555 1_555
H20_7 C14_7 1_555 1_555
C15_8 C14_7 1_555 1_555
H21_8 C15_8 1_555 1_555
H22_8 C15_8 1_555 1_555
C16_8 N6_8 1_555 1_555
H23_8 C16_8 1_555 1_555
H24_8 C16_8 1_555 1_555
C17_8 N4_8 1_555 1_555
H25_8 C17_8 1_555 1_555
H26_8 C17_8 1_555 1_555
C18_8 N6_8 1_555 1_555
H27_8 C18_8 1_555 1_555
H28_8 C18_8 1_555 1_555
C19_7 N3_7 1_555 1_555
H29_7 C19_7 1_555 1_555
H30_7 C19_7 1_555 1_555
C20_7 N5_7 1_555 1_555
H31_7 C20_7 1_555 1_555
H32_7 C20_7 1_555 1_555
O7_7 C6_8 1_555 1_555
C3_8 C4_7 1_555 1_555
C12_7 C13_8 1_555 1_555
C15_8 C16_8 1_555 1_555
C17_8 C18_8 1_555 1_555
C19_7 C20_7 1_555 1_555
O11_5 C1_7 1_555 1_555
C1_7 O5_7 1_555 1_555
O11_3 C1_8 1_555 1_555
C1_8 O5_8 1_555 1_555
N2_8 C5_8 1_555 1_555
O13 C7_8 1_555 1_555
C5_8 H2_8 1_555 1_555
C7_8 N2_8 1_555 1_555
C10_7 C5_8 1_555 1_555
H6_8 C10_7 1_555 1_555
H7_8 C10_7 1_555 1_555
H8_7 C10_7 1_555 1_555
O14 C8_7 1_555 1_555
C8_7 O10_7 1_555 1_555
O7_8 Cu2_3 1_555 1_555
O10_8 Cu2_3 1_555 1_555
C8_8 O10_8 1_555 1_555
H8_8 C10_8 1_555 1_555
N3_8 Ni1_8 1_555 1_555
H9_8 N3_8 1_555 1_555
N5_8 Ni1_8 1_555 1_555
H11_8 N5_8 1_555 1_555
C11_8 N3_8 1_555 1_555
H13_8 C11_8 1_555 1_555
H14_8 C11_8 1_555 1_555
C14_8 N5_8 1_555 1_555
H19_8 C14_8 1_555 1_555
H20_8 C14_8 1_555 1_555
C19_8 N3_8 1_555 1_555
H29_8 C19_8 1_555 1_555
H30_8 C19_8 1_555 1_555
C20_8 N5_8 1_555 1_555
H31_8 C20_8 1_555 1_555
H32_8 C20_8 1_555 1_555
O13_3 Cu2_3 1_555 1_555
C19_8 C20_8 1_555 1_555
N1_8 C2_8 1_555 1_555
O2_3 C2_8 1_555 1_555
C4_8 N1_8 1_555 1_555
H1_8 C4_8 1_555 1_555
C9_8 C4_8 1_555 1_555
H3_8 C9_8 1_555 1_555
H4_8 C9_8 1_555 1_555
H5_8 C9_8 1_555 1_555
H15_8 C12_8 1_555 1_555
H16_8 C12_8 1_555 1_555
O2_3 Cu3_3 1_555 1_555
O11_6 C1_9 1_555 1_555
C1_9 O5_9 1_555 1_555
O9_6 C8_9 1_555 1_555
C8_9 O10_9 1_555 1_555
O9_6 Cu4_6 1_555 1_555
N2_9 C5_9 1_555 1_555
O13_3 C7_9 1_555 1_555
C5_9 H2_9 1_555 1_555
C7_9 N2_9 1_555 1_555
C10_9 C5_9 1_555 1_555
H6_9 C10_9 1_555 1_555
H7_9 C10_9 1_555 1_555
H8_9 C10_9 1_555 1_555
Cu3_3 N1_9 1_555 1_555
Ni1_9 O4_9 1_555 1_555
N1_9 C2_9 1_555 1_555
O12_6 C2_9 1_555 1_555
O3_9 Cu3_3 1_555 1_555
O4_9 C3_9 1_555 1_555
O6_9 Ni1_9 1_555 1_555
O7_9 Cu4_6 1_555 1_555
C3_9 O3_9 1_555 1_555
C4_9 N1_9 1_555 1_555
H1_9 C4_9 1_555 1_555
C6_9 O6_9 1_555 1_555
C9_9 C4_9 1_555 1_555
H3_9 C9_9 1_555 1_555
H4_9 C9_9 1_555 1_555
H5_9 C9_9 1_555 1_555
N3_9 Ni1_9 1_555 1_555
H9_9 N3_9 1_555 1_555
N4_9 Ni1_9 1_555 1_555
H10_9 N4_9 1_555 1_555
N5_9 Ni1_9 1_555 1_555
H11_9 N5_9 1_555 1_555
N6_9 Ni1_9 1_555 1_555
H12_9 N6_9 1_555 1_555
C11_9 N3_9 1_555 1_555
H13_9 C11_9 1_555 1_555
H14_9 C11_9 1_555 1_555
C12_9 C11_9 1_555 1_555
H15_9 C12_9 1_555 1_555
H16_9 C12_9 1_555 1_555
C13_9 N4_9 1_555 1_555
H17_9 C13_9 1_555 1_555
H18_9 C13_9 1_555 1_555
C14_9 N5_9 1_555 1_555
H19_9 C14_9 1_555 1_555
H20_9 C14_9 1_555 1_555
C15_9 C14_9 1_555 1_555
H21_9 C15_9 1_555 1_555
H22_9 C15_9 1_555 1_555
C16_9 N6_9 1_555 1_555
H23_9 C16_9 1_555 1_555
H24_9 C16_9 1_555 1_555
C17_9 N4_9 1_555 1_555
H25_9 C17_9 1_555 1_555
H26_9 C17_9 1_555 1_555
C18_9 N6_9 1_555 1_555
H27_9 C18_9 1_555 1_555
H28_9 C18_9 1_555 1_555
C19_9 N3_9 1_555 1_555
H29_9 C19_9 1_555 1_555
H30_9 C19_9 1_555 1_555
C20_9 N5_9 1_555 1_555
H31_9 C20_9 1_555 1_555
H32_9 C20_9 1_555 1_555
O7_9 C6_9 1_555 1_555
C3_9 C4_9 1_555 1_555
C12_9 C13_9 1_555 1_555
C15_9 C16_9 1_555 1_555
C17_9 C18_9 1_555 1_555
C19_9 C20_9 1_555 1_555

#END
