
###############################################################################
#
# This file contains modified crystal structure data generated from the
# MOF subset of the Cambridge Structural Database (CSD) v543 
# hosted by the Cambridge Crystallographic Data Centre (CCDC).
#
# This work is licensed under the Creative Commons
# Attribution-NonCommercial-ShareAlike 4.0 International License.
# To view a copy of this license, visit
# http://creativecommons.org/licenses/by-nc-sa/4.0/
# or send a letter to
# Creative Commons, PO Box 1866, Mountain View, CA 94042, USA.
#
# CIF created using the CSD Python API on 29 September 2022
# The structure has been converted into the P1 space group
# The structure has a 3D framework
# The original CSD entry LOJNAA is in the orthorhombic crystal system
# The original CSD entry LOJNAA is in a Sohncke space group
# The framework has been calculated to contain at least 10.0% void space
# The void calculation uses a probe of radius 1.32A, grid spacing 0.4
# H atom positions have been added when not included in the experimental data
#
###############################################################################

data_LOJNAA
_chemical_formula_moiety         '(C192 H204 Mo20 N96 Ni8 O96 P8)n'
_symmetry_cell_setting           triclinic
_symmetry_space_group_name_H-M   'P 1'
_symmetry_Int_Tables_number      1
_space_group_name_Hall           'P 1'
loop_
_symmetry_equiv_pos_site_id
_symmetry_equiv_pos_as_xyz
1 x,y,z
_cell_length_a                   18.577(4)
_cell_length_b                   20.125(4)
_cell_length_c                   20.895(4)
_cell_angle_alpha                90
_cell_angle_beta                 90
_cell_angle_gamma                90
_cell_volume                     7811.85
loop_
_atom_site_label
_atom_site_type_symbol
_atom_site_fract_x
_atom_site_fract_y
_atom_site_fract_z
H25 H 0.0466 0.4744 0.0161
Ni4 Ni 0.21964(7) 0.49185(7) 0.01287(6)
C25 C 0.0649(6) 0.4521(7) 0.9806(6)
C26 C 0.1320(7) 0.4167(7) 0.9074(6)
H26 H 0.1732 0.4098 0.8829
N13 N 0.1308(5) 0.4529(4) 0.9633(4)
N14 N 0.0681(6) 0.3931(6) 0.8926(6)
N15 N 0.0254(5) 0.4147(5) 0.9402(5)
Mo4 Mo 0.60750(5) 0.04602(5) 0.72409(4)
O13 O 0.6371(5) 0.0215(5) 0.6407(4)
O14 O 0.5200(4) 0.0656(4) 0.7052(4)
O15 O 0.6440(5) 0.1208(4) 0.7342(4)
O18 O 0.7162(4) 0.0040(3) 0.7434(4)
O19 O 0.5929(5) 0.0150(5) 0.8089(4)
Ni3 Ni 0.45031(7) 0.14203(7) 0.68708(6)
Ni7 Ni 0.71964(7) 0.00815(7) 0.98713(6)
C3 C 0.6037(10) 0.4669(9) 0.0129(9)
H3 H 0.6152 0.4793 0.0566
H4 H 0.5550 0.4495 0.0123
C5 C 0.7071(10) 0.3913(11) 0.0297(9)
H5 H 0.7122 0.4087 0.0707
C6 C 0.7516(11) 0.3436(10) 0.0096(12)
H6 H 0.7883 0.3287 0.0363
H12 H 0.7618 0.1607 0.0054
C16 C 0.4099(7) 0.8443(6) 0.0081(7)
C17 C 0.3580(9) 0.8301(10) 0.0561(8)
H17 H 0.3138 0.8126 0.0439
C18 C 0.3707(10) 0.8414(12) 0.1198(8)
H18 H 0.3345 0.8355 0.1500
C19 C 0.4409(10) 0.8625(10) 0.1386(7)
C20 C 0.4925(8) 0.8727(9) 0.0943(8)
H19 H 0.5389 0.8836 0.1073
C21 C 0.4768(7) 0.8669(8) 0.0293(7)
C22 C 0.4526(13) 0.8727(14) 0.2078(8)
H21 H 0.4122 0.8972 0.2253
H22 H 0.4542 0.8298 0.2290
C23 C 0.6243(10) 0.9182(9) 0.2447(8)
H23 H 0.6722 0.9089 0.2539
C24 C 0.5378(8) 0.9720(9) 0.2205(8)
N10 N 0.6038(7) 0.9796(7) 0.2337(6)
N11 N 0.5777(11) 0.8716(8) 0.2427(8)
N12 N 0.5195(10) 0.9090(9) 0.2216(7)
N25 N 0.6308(5) 0.0471(4) 0.0367(4)
O25 O 0.7881(4) 0.0485(4) 0.0546(3)
Mo1 Mo 0.66824(5) 0.79407(4) 0.82108(4)
Mo2 Mo 0.68693(5) 0.79047(5) 0.65863(4)
Mo3 Mo 0.63483(5) 0.93784(5) 0.59863(4)
Mo5 Mo 0.59104(5) 0.94139(5) 0.86260(4)
Ni1 Ni 0.54969(7) 0.64203(7) 0.81292(6)
P1 P 0.73136(13) 0.93130(13) 0.74439(13)
P2 P 0.53961(14) 0.87730(14) 0.72347(13)
C1 C 0.6528(6) 0.6042(6) 0.9209(6)
H1 H 0.6853 0.6358 0.9062
C2 C 0.5646(8) 0.5457(8) 0.9266(7)
H2 H 0.5208 0.5252 0.9179
C4 C 0.6549(12) 0.4145(8) 0.9906(10)
C7 C 0.7433(13) 0.3156(8) 0.9482(12)
C8 C 0.6902(15) 0.3376(9) 0.9083(14)
H7 H 0.6836 0.3202 0.8675
C9 C 0.6464(14) 0.3876(11) 0.9327(13)
H8 H 0.6091 0.4033 0.9072
C10 C 0.7980(12) 0.2647(9) 0.9248(11)
H9 H 0.8171 0.2795 0.8840
H10 H 0.8377 0.2633 0.9550
C11 C 0.7277(8) 0.1125(7) 0.8769(6)
H11 H 0.7081 0.0836 0.8468
C12 C 0.7553(9) 0.1523(7) 0.9620(7)
C13 C 0.4674(6) 0.7577(6) 0.8753(6)
H13 H 0.4979 0.7891 0.8571
C14 C 0.4157(7) 0.6711(6) 0.9005(6)
H14 H 0.4036 0.6263 0.9020
C15 C 0.3923(7) 0.8371(6) 0.9392(7)
H15 H 0.3410 0.8432 0.9331
H16 H 0.4172 0.8712 0.9149
H20 H 0.5117 0.8784 0.9994
C27 C 0.9499(7) 0.3946(8) 0.9428(8)
H27 H 0.9299 0.4107 0.9828
H28 H 0.9483 0.3465 0.9443
C28 C 0.9021(8) 0.4167(9) 0.8906(7)
C29 C 0.8567(8) 0.4670(11) 0.8985(9)
H29 H 0.8604 0.4952 0.9336
C30 C 0.8054(13) 0.4757(14) 0.8541(10)
H30 H 0.7713 0.5092 0.8595
C31 C 0.8027(11) 0.4376(12) 0.8032(13)
C32 C 0.8545(11) 0.3927(14) 0.7919(12)
H31 H 0.8542 0.3683 0.7541
C33 C 0.9058(8) 0.3834(11) 0.8344(9)
H32 H 0.9437 0.3545 0.8260
C34 C 0.741(2) 0.4422(10) 0.7560(13)
H33 H 0.7065 0.4082 0.7676
H34 H 0.7601 0.4302 0.7143
C35 C 0.6307(11) 0.5231(7) 0.7614(8)
H35 H 0.5920 0.4943 0.7668
C36 C 0.6967(7) 0.6056(7) 0.7496(6)
H36 H 0.7109 0.6499 0.7496
N1 N 0.5890(5) 0.5977(5) 0.8954(5)
N2 N 0.6689(6) 0.5641(6) 0.9680(5)
N3 N 0.6082(6) 0.5267(6) 0.9708(6)
N4 N 0.7316(5) 0.0954(5) 0.9390(4)
N5 N 0.7521(7) 0.1707(5) 0.8598(5)
N6 N 0.7689(7) 0.1957(6) 0.9169(6)
N7 N 0.4706(5) 0.6934(4) 0.8656(4)
N8 N 0.3792(6) 0.7168(5) 0.9329(5)
N9 N 0.4137(5) 0.7707(5) 0.9155(5)
N16 N 0.6293(5) 0.5890(5) 0.7652(5)
N17 N 0.7418(8) 0.5596(8) 0.7347(6)
N18 N 0.7003(10) 0.5062(8) 0.7481(7)
O1 O 0.7333(4) 0.7825(4) 0.8771(4)
O2 O 0.6202(4) 0.7211(3) 0.8252(3)
O3 O 0.6040(4) 0.8467(4) 0.8719(4)
O4 O 0.7218(4) 0.7785(3) 0.7454(3)
O5 O 0.5900(4) 0.8177(3) 0.7283(3)
O6 O 0.6913(4) 0.8985(3) 0.7998(3)
O7 O 0.7662(4) 0.7827(5) 0.6189(4)
O8 O 0.6474(4) 0.7156(4) 0.6459(4)
O9 O 0.6333(4) 0.8423(4) 0.5989(4)
O10 O 0.7107(4) 0.8989(4) 0.6806(3)
O11 O 0.7119(4) 0.9515(4) 0.5546(3)
O12 O 0.5668(4) 0.9498(5) 0.5470(4)
O16 O 0.5738(5) 0.9348(5) 0.6884(5)
O17 O 0.5191(5) 0.8997(5) 0.7915(5)
O20 O 0.5138(4) 0.9551(4) 0.9033(4)
O21 O 0.6548(4) 0.9676(4) 0.9165(3)
O22 O 0.4707(5) 0.8567(6) 0.6890(5)
O23 O 0.8126(4) 0.9198(4) 0.7569(5)
O24 O 0.5153(4) 0.6892(5) 0.7302(4)
Ni6 Ni 0.78036(7) 0.99185(7) 0.48713(6)
O26 O 0.4800(4) 0.5656(4) 0.7948(4)
H50 H 0.549661 0.679803 0.69494
H51 H 0.466802 0.672521 0.718316
C37 C 0.7239(6) 0.9054(7) 0.0983(5)
H37 H 0.7372 0.9385 0.1269
C38 C 0.6918(6) 0.8587(6) 0.0163(5)
C39 C 0.6891(7) 0.7432(6) 0.0550(7)
H39 H 0.7267 0.7217 0.0797
H40 H 0.6952 0.7300 0.0106
C40 C 0.6159(6) 0.7177(6) 0.0785(7)
C41 C 0.5624(8) 0.7046(9) 0.0378(7)
C42 C 0.4972(8) 0.6783(7) 0.0588(6)
H42 H 0.4630 0.6646 0.0292
C43 C 0.4830(7) 0.6722(7) 0.1242(7)
C44 C 0.5362(9) 0.6953(9) 0.1640(6)
H43 H 0.5277 0.6938 0.2079
C45 C 0.5998(9) 0.7201(10) 0.1440(7)
H44 H 0.6323 0.7383 0.1730
C46 C 0.4123(7) 0.6501(8) 0.1481(7)
H45 H 0.4166 0.6391 0.1931
H46 H 0.3784 0.6866 0.1445
C47 C 0.3202(7) 0.5897(7) 0.0859(6)
H47 H 0.2877 0.6247 0.0827
C48 C 0.3710(6) 0.4952(7) 0.0795(6)
H48 H 0.3803 0.4510 0.0695
N19 N 0.7095(5) 0.9197(5) 0.0379(4)
N20 N 0.7192(5) 0.8433(5) 0.1168(5)
N21 N 0.6985(5) 0.8149(5) 0.0596(4)
N22 N 0.3102(5) 0.5276(5) 0.0624(4)
N23 N 0.4166(5) 0.5340(6) 0.1126(5)
N24 N 0.3831(5) 0.5923(6) 0.1138(5)
H38 H 0.6765 0.8499 0.9748
H41 H 0.5688 0.7133 0.9945
N26 N 0.8102(5) 0.9724(5) 0.9376(4)
C42_2 C 0.0028(8) 0.3217(7) 0.5588(6)
H42_2 H 0.0370 0.3354 0.5292
C43_2 C 0.0170(7) 0.3278(7) 0.6242(7)
C46_2 C 0.0877(7) 0.3499(8) 0.6481(7)
H45_2 H 0.0834 0.3609 0.6931
H46_2 H 0.1216 0.3134 0.6445
C47_2 C 0.1798(7) 0.4103(7) 0.5859(6)
H47_2 H 0.2123 0.3753 0.5827
C48_2 C 0.1290(6) 0.5048(7) 0.5795(6)
H48_2 H 0.1197 0.5490 0.5695
N22_2 N 0.1898(5) 0.4724(5) 0.5624(4)
N23_2 N 0.0834(5) 0.4660(6) 0.6126(5)
N24_2 N 0.1169(5) 0.4077(6) 0.6138(5)
Ni5 Ni 0.28036(7) 0.50815(7) 0.51287(6)
C13_2 C 0.0326(6) 0.2423(6) 0.3753(6)
H13_2 H 0.0021 0.2109 0.3571
C14_2 C 0.0843(7) 0.3289(6) 0.4005(6)
H14_2 H 0.0964 0.3737 0.4020
C15_2 C 0.1077(7) 0.1629(6) 0.4392(7)
H15_2 H 0.1590 0.1568 0.4331
H16_2 H 0.0828 0.1288 0.4149
C16_2 C 0.0901(7) 0.1557(6) 0.5081(7)
C17_2 C 0.1420(9) 0.1699(10) 0.5561(8)
H17_2 H 0.1862 0.1874 0.5439
C18_2 C 0.1293(10) 0.1586(12) 0.6198(8)
H18_2 H 0.1655 0.1645 0.6500
C19_2 C 0.0591(10) 0.1375(10) 0.6386(7)
C20_2 C 0.0075(8) 0.1273(9) 0.5943(8)
C21_2 C 0.0232(7) 0.1331(8) 0.5293(7)
C22_2 C 0.0474(13) 0.1273(14) 0.7078(8)
H21_2 H 0.0878 0.1028 0.7253
H22_2 H 0.0458 0.1702 0.7290
N7_2 N 0.0294(5) 0.3066(4) 0.3656(4)
N8_2 N 0.1208(6) 0.2832(5) 0.4329(5)
N9_2 N 0.0863(5) 0.2293(5) 0.4155(5)
O22_2 O 0.0293(5) 0.1433(6) 0.1890(5)
O26_2 O 0.0200(4) 0.4344(4) 0.2948(4)
H51_2 H 0.0331983 0.327479 0.218316
Ni3_2 Ni 0.04969(7) 0.85797(7) 0.18708(6)
C37_2 C 0.7761(6) 0.0946(7) 0.5983(5)
H37_2 H 0.7628 0.0615 0.6269
C38_2 C 0.8082(6) 0.1413(6) 0.5163(5)
H38_2 H 0.8235 0.1501 0.4748
C39_2 C 0.8109(7) 0.2568(6) 0.5550(7)
H39_2 H 0.7733 0.2783 0.5797
H40_2 H 0.8048 0.2700 0.5106
C40_2 C 0.8841(6) 0.2823(6) 0.5785(7)
C41_2 C 0.9376(8) 0.2954(9) 0.5378(7)
H41_2 H 0.9312 0.2867 0.4945
C44_2 C 0.9638(9) 0.3047(9) 0.6640(6)
H43_2 H 0.9723 0.3062 0.7079
C45_2 C 0.9002(9) 0.2799(10) 0.6440(7)
H44_2 H 0.8677 0.2617 0.6730
N19_2 N 0.7905(5) 0.0803(5) 0.5379(4)
N20_2 N 0.7808(5) 0.1567(5) 0.6168(5)
N21_2 N 0.8015(5) 0.1851(5) 0.5596(4)
N26_2 N 0.6898(5) 0.0276(5) 0.4376(4)
O27 O 0.8452(4) 0.0324(4) 0.4165(3)
Mo1_2 Mo 0.83176(5) 0.20593(4) 0.32108(4)
Mo2_2 Mo 0.81307(5) 0.20953(5) 0.15863(4)
Mo3_2 Mo 0.86517(5) 0.06216(5) 0.09863(4)
Mo5_2 Mo 0.90896(5) 0.05861(5) 0.36260(4)
Ni1_2 Ni 0.95031(7) 0.35797(7) 0.31292(6)
P1_2 P 0.76864(13) 0.06870(13) 0.24439(13)
P2_2 P 0.96039(14) 0.12270(14) 0.22347(13)
C1_2 C 0.8472(6) 0.3958(6) 0.4209(6)
H1_2 H 0.8147 0.3642 0.4062
C2_2 C 0.9354(8) 0.4543(8) 0.4266(7)
H2_2 H 0.9792 0.4748 0.4179
C3_2 C 0.8963(10) 0.5331(9) 0.5129(9)
H3_2 H 0.8848 0.5207 0.5566
H4_2 H 0.9450 0.5505 0.5123
C4_2 C 0.8451(12) 0.5855(8) 0.4906(10)
C5_2 C 0.7929(10) 0.6087(11) 0.5297(9)
H5_2 H 0.7878 0.5913 0.5707
C6_2 C 0.7484(11) 0.6564(10) 0.5096(12)
H6_2 H 0.7117 0.6713 0.5363
C7_2 C 0.7567(13) 0.6844(8) 0.4482(12)
C8_2 C 0.8098(15) 0.6624(9) 0.4083(14)
H7_2 H 0.8164 0.6798 0.3675
C9_2 C 0.8536(14) 0.6124(11) 0.4327(13)
H8_2 H 0.8909 0.5967 0.4072
C10_2 C 0.7020(12) 0.7353(9) 0.4248(11)
H9_2 H 0.6829 0.7205 0.3840
H10_2 H 0.6623 0.7367 0.4550
C11_2 C 0.7723(8) 0.8875(7) 0.3769(6)
H11_2 H 0.7919 0.9164 0.3468
C12_2 C 0.7447(9) 0.8477(7) 0.4620(7)
H12_2 H 0.7382 0.8393 0.5054
H19_2 H 0.9611 0.1164 0.6073
H20_2 H 0.9883 0.1216 0.4994
C23_2 C 0.8757(10) 0.0818(9) 0.7447(8)
H23_2 H 0.8278 0.0911 0.7539
C24_2 C 0.9622(8) 0.0280(9) 0.7205(8)
C25_2 C 0.4351(6) 0.5479(7) 0.4806(6)
H25_2 H 0.4534 0.5256 0.5161
C26_2 C 0.3680(7) 0.5833(7) 0.4074(6)
H26_2 H 0.3268 0.5902 0.3829
C27_2 C 0.5501(7) 0.6054(8) 0.4428(8)
H27_2 H 0.5701 0.5893 0.4828
H28_2 H 0.5517 0.6535 0.4443
C28_2 C 0.5979(8) 0.5833(9) 0.3906(7)
C29_2 C 0.6433(8) 0.5330(11) 0.3985(9)
H29_2 H 0.6396 0.5048 0.4336
C30_2 C 0.6946(13) 0.5243(14) 0.3541(10)
H30_2 H 0.7287 0.4908 0.3595
C31_2 C 0.6973(11) 0.5624(12) 0.3032(13)
C32_2 C 0.6455(11) 0.6073(14) 0.2919(12)
H31_2 H 0.6458 0.6317 0.2541
C33_2 C 0.5942(8) 0.6166(11) 0.3344(9)
H32_2 H 0.5563 0.6455 0.3260
C34_2 C 0.759(2) 0.5578(10) 0.2560(13)
H33_2 H 0.7935 0.5918 0.2676
H34_2 H 0.7399 0.5698 0.2143
C35_2 C 0.8693(11) 0.4769(7) 0.2614(8)
H35_2 H 0.9080 0.5057 0.2668
C36_2 C 0.8033(7) 0.3944(7) 0.2496(6)
H36_2 H 0.7891 0.3501 0.2496
N1_2 N 0.9110(5) 0.4023(5) 0.3954(5)
N2_2 N 0.8311(6) 0.4359(6) 0.4680(5)
N3_2 N 0.8918(6) 0.4733(6) 0.4708(6)
N4_2 N 0.7684(5) 0.9046(5) 0.4390(4)
N5_2 N 0.7479(7) 0.8293(5) 0.3598(5)
N6_2 N 0.7311(7) 0.8043(6) 0.4169(6)
N10_2 N 0.8962(7) 0.0204(7) 0.7337(6)
N11_2 N 0.9223(11) 0.1284(8) 0.7427(8)
N12_2 N 0.9805(10) 0.0910(9) 0.7216(7)
N13_2 N 0.3692(5) 0.5471(4) 0.4633(4)
N14_2 N 0.4319(6) 0.6069(6) 0.3926(6)
N15_2 N 0.4746(5) 0.5853(5) 0.4402(5)
N16_2 N 0.8707(5) 0.4110(5) 0.2652(5)
N17_2 N 0.7582(8) 0.4404(8) 0.2347(6)
N18_2 N 0.7997(10) 0.4938(8) 0.2481(7)
O1_2 O 0.7667(4) 0.2175(4) 0.3771(4)
O2_2 O 0.8798(4) 0.2789(3) 0.3252(3)
O3_2 O 0.8960(4) 0.1533(4) 0.3719(4)
O4_2 O 0.7782(4) 0.2215(3) 0.2454(3)
O5_2 O 0.9100(4) 0.1823(3) 0.2283(3)
O6_2 O 0.8087(4) 0.1015(3) 0.2998(3)
O7_2 O 0.7338(4) 0.2173(5) 0.1189(4)
O8_2 O 0.8526(4) 0.2844(4) 0.1459(4)
O9_2 O 0.8667(4) 0.1577(4) 0.0989(4)
O10_2 O 0.7893(4) 0.1011(4) 0.1806(3)
O12_2 O 0.9332(4) 0.0502(5) 0.0470(4)
O16_2 O 0.9262(5) 0.0652(5) 0.1884(5)
O17_2 O 0.9809(5) 0.1003(5) 0.2915(5)
O20_2 O 0.9862(4) 0.0449(4) 0.4033(4)
O23_2 O 0.6874(4) 0.0802(4) 0.2569(5)
O24_2 O 0.9847(4) 0.3108(5) 0.2302(4)
N25_2 N 0.8692(5) 0.9529(4) 0.5367(4)
H50_2 H 0.950339 0.320197 0.19494
Mo4_2 Mo 0.89250(5) 0.95398(5) 0.22409(4)
H24 H 0.9937 0.9934 0.7113
H49 H 0.8713 0.9844 0.7350
O13_2 O 0.8629(5) 0.9785(5) 0.1407(4)
O14_2 O 0.9800(4) 0.9344(4) 0.2052(4)
O15_2 O 0.8560(5) 0.8792(4) 0.2342(4)
O18_2 O 0.7838(4) 0.9960(3) 0.2434(4)
O19_2 O 0.9071(5) 0.9850(5) 0.3089(4)
C4_3 C 0.1549(12) 0.0855(8) 0.0094(10)
C7_3 C 0.2433(13) 0.1844(8) 0.0518(12)
C8_3 C 0.1902(15) 0.1624(9) 0.0917(14)
H7_3 H 0.1836 0.1798 0.1325
C9_3 C 0.1464(14) 0.1124(11) 0.0673(13)
H8_3 H 0.1091 0.0967 0.0928
C10_3 C 0.2980(12) 0.2353(9) 0.0752(11)
H9_3 H 0.3171 0.2205 0.1160
H10_3 H 0.3377 0.2367 0.0450
C11_3 C 0.2277(8) 0.3875(7) 0.1231(6)
H11_3 H 0.2081 0.4164 0.1532
C12_3 C 0.2553(9) 0.3477(7) 0.0380(7)
C25_3 C 0.5649(6) 0.0479(7) 0.0194(6)
C26_3 C 0.6320(7) 0.0833(7) 0.0926(6)
H26_3 H 0.6732 0.0902 0.1171
C27_3 C 0.4499(7) 0.1054(8) 0.0572(8)
H27_3 H 0.4299 0.0893 0.0172
H28_3 H 0.4483 0.1535 0.0557
C28_3 C 0.4021(8) 0.0833(9) 0.1094(7)
C29_3 C 0.3567(8) 0.0330(11) 0.1015(9)
H29_3 H 0.3604 0.0048 0.0664
C30_3 C 0.3054(13) 0.0243(14) 0.1459(10)
C31_3 C 0.3027(11) 0.0624(12) 0.1968(13)
C32_3 C 0.3545(11) 0.1073(14) 0.2081(12)
H31_3 H 0.3542 0.1317 0.2459
C33_3 C 0.4058(8) 0.1166(11) 0.1656(9)
H32_3 H 0.4437 0.1455 0.1740
C34_3 C 0.241(2) 0.0578(10) 0.2440(13)
H33_3 H 0.2065 0.0918 0.2324
H34_3 H 0.2601 0.0698 0.2857
H35_3 H 0.0920 0.0057 0.2332
H38_3 H 0.1765 0.6501 0.0252
H41_3 H 0.0688 0.7867 0.0055
N4_3 N 0.2316(5) 0.4046(5) 0.0610(4)
N5_3 N 0.2521(7) 0.3293(5) 0.1402(5)
N6_3 N 0.2689(7) 0.3043(6) 0.0831(6)
N14_3 N 0.5681(6) 0.1069(6) 0.1074(6)
N15_3 N 0.5254(5) 0.0853(5) 0.0598(5)
O27_2 O 0.1548(4) 0.5324(4) 0.0835(3)
C3_3 C 0.1037(10) 0.0331(9) 0.9871(9)
H3_3 H 0.1152 0.0207 0.9434
H4_3 H 0.0550 0.0505 0.9877
C5_3 C 0.2071(10) 0.1087(11) 0.9703(9)
H5_3 H 0.2122 0.0913 0.9293
C6_3 C 0.2516(11) 0.1564(10) 0.9904(12)
H6_3 H 0.2883 0.1713 0.9637
H12_3 H 0.2618 0.3393 0.9946
H25_3 H 0.5466 0.0256 0.9839
C37_3 C 0.2239(6) 0.5946(7) 0.9017(5)
H37_3 H 0.2372 0.5615 0.8731
C38_3 C 0.1918(6) 0.6413(6) 0.9837(5)
C39_3 C 0.1891(7) 0.7568(6) 0.9450(7)
H39_3 H 0.2267 0.7783 0.9203
H40_3 H 0.1952 0.7700 0.9894
C40_3 C 0.1159(6) 0.7823(6) 0.9215(7)
C41_3 C 0.0624(8) 0.7954(9) 0.9622(7)
C44_3 C 0.0362(9) 0.8047(9) 0.8360(6)
H43_3 H 0.0277 0.8062 0.7921
C45_3 C 0.0998(9) 0.7799(10) 0.8560(7)
H44_3 H 0.1323 0.7617 0.8270
N19_3 N 0.2095(5) 0.5803(5) 0.9621(4)
N20_3 N 0.2192(5) 0.6567(5) 0.8832(5)
N21_3 N 0.1985(5) 0.6851(5) 0.9404(4)
O25_2 O 0.2881(4) 0.4515(4) 0.9454(3)
Mo1_3 Mo 0.16824(5) 0.70593(4) 0.17892(4)
Mo2_3 Mo 0.18693(5) 0.70953(5) 0.34137(4)
Mo3_3 Mo 0.13483(5) 0.56216(5) 0.40137(4)
Mo4_3 Mo 0.10750(5) 0.45398(5) 0.27591(4)
Mo5_3 Mo 0.09104(5) 0.55861(5) 0.13740(4)
P1_3 P 0.23136(13) 0.56870(13) 0.25561(13)
P2_3 P 0.03961(14) 0.62270(14) 0.27653(13)
C1_3 C 0.1528(6) 0.8958(6) 0.0791(6)
H1_3 H 0.1853 0.8642 0.0938
C2_3 C 0.0646(8) 0.9543(8) 0.0734(7)
H2_3 H 0.0208 0.9748 0.0821
H20_3 H 0.0117 0.6216 0.0006
H30_3 H 0.2713 0.9908 0.1405
C35_3 C 0.1307(11) 0.9769(7) 0.2386(8)
C36_3 C 0.1967(7) 0.8944(7) 0.2504(6)
H36_3 H 0.2109 0.8501 0.2504
N1_3 N 0.0890(5) 0.9023(5) 0.1046(5)
N2_3 N 0.1689(6) 0.9359(6) 0.0320(5)
N3_3 N 0.1082(6) 0.9733(6) 0.0292(6)
N16_3 N 0.1293(5) 0.9110(5) 0.2348(5)
N17_3 N 0.2418(8) 0.9404(8) 0.2653(6)
N18_3 N 0.2003(10) 0.9938(8) 0.2519(7)
O1_3 O 0.2333(4) 0.7175(4) 0.1229(4)
O2_3 O 0.1202(4) 0.7789(3) 0.1748(3)
O3_3 O 0.1040(4) 0.6533(4) 0.1281(4)
O4_3 O 0.2218(4) 0.7215(3) 0.2546(3)
O5_3 O 0.0900(4) 0.6823(3) 0.2717(3)
O6_3 O 0.1913(4) 0.6015(3) 0.2002(3)
O7_3 O 0.2662(4) 0.7173(5) 0.3811(4)
O8_3 O 0.1474(4) 0.7844(4) 0.3541(4)
O9_3 O 0.1333(4) 0.6577(4) 0.4011(4)
O10_3 O 0.2107(4) 0.6011(4) 0.3194(3)
O11_2 O 0.2119(4) 0.5485(4) 0.4454(3)
O12_3 O 0.0668(4) 0.5502(5) 0.4530(4)
O13_3 O 0.1371(5) 0.4785(5) 0.3593(4)
O15_3 O 0.1440(5) 0.3792(4) 0.2658(4)
O16_3 O 0.0738(5) 0.5652(5) 0.3116(5)
O17_3 O 0.0191(5) 0.6003(5) 0.2085(5)
O18_3 O 0.2162(4) 0.4960(3) 0.2566(4)
O19_3 O 0.0929(5) 0.4850(5) 0.1911(4)
O20_3 O 0.0138(4) 0.5449(4) 0.0967(4)
O23_3 O 0.3126(4) 0.5802(4) 0.2431(5)
O24_3 O 0.0153(4) 0.8108(5) 0.2698(4)
H50_3 H 0.0496614 0.820197 0.30506
C48_3 C 0.8710(6) 0.0048(7) 0.9205(6)
H48_3 H 0.8803 0.0490 0.9305
C42_3 C 0.9972(8) 0.8217(7) 0.9412(6)
H42_3 H 0.9630 0.8354 0.9708
C43_3 C 0.9830(7) 0.8278(7) 0.8758(7)
C46_3 C 0.9123(7) 0.8499(8) 0.8519(7)
H45_3 H 0.9166 0.8609 0.8069
H46_3 H 0.8784 0.8134 0.8555
C47_3 C 0.8202(7) 0.9103(7) 0.9141(6)
H47_3 H 0.7877 0.8753 0.9173
N23_3 N 0.9166(5) 0.9660(6) 0.8874(5)
N24_3 N 0.8831(5) 0.9077(6) 0.8862(5)
C13_3 C 0.9674(6) 0.7423(6) 0.1247(6)
H13_3 H 0.9979 0.7109 0.1429
C14_3 C 0.9157(7) 0.8289(6) 0.0995(6)
H14_3 H 0.9036 0.8737 0.0980
C15_3 C 0.8923(7) 0.6629(6) 0.0608(7)
H15_3 H 0.8410 0.6568 0.0669
H16_3 H 0.9172 0.6288 0.0851
N7_3 N 0.9706(5) 0.8066(4) 0.1344(4)
N8_3 N 0.8792(6) 0.7832(5) 0.0671(5)
N9_3 N 0.9137(5) 0.7293(5) 0.0845(5)
O22_3 O 0.9707(5) 0.6433(6) 0.3110(5)
H51_3 H 0.966802 0.827479 0.281684
Mo1_4 Mo 0.33176(5) 0.29407(4) 0.67892(4)
Mo2_4 Mo 0.31307(5) 0.29047(5) 0.84137(4)
Mo3_4 Mo 0.36517(5) 0.43784(5) 0.90137(4)
Mo4_4 Mo 0.39250(5) 0.54602(5) 0.77591(4)
Mo5_4 Mo 0.40896(5) 0.44139(5) 0.63740(4)
P1_4 P 0.26864(13) 0.43130(13) 0.75561(13)
P2_4 P 0.46039(14) 0.37730(14) 0.77653(13)
C1_4 C 0.3472(6) 0.1042(6) 0.5791(6)
H1_4 H 0.3147 0.1358 0.5938
C2_4 C 0.4354(8) 0.0457(8) 0.5734(7)
H2_4 H 0.4792 0.0252 0.5821
C13_4 C 0.5326(6) 0.2577(6) 0.6247(6)
H13_4 H 0.5021 0.2891 0.6429
C14_4 C 0.5843(7) 0.1711(6) 0.5995(6)
H14_4 H 0.5964 0.1263 0.5980
C15_4 C 0.6077(7) 0.3371(6) 0.5608(7)
H15_4 H 0.6590 0.3432 0.5669
H16_4 H 0.5828 0.3712 0.5851
C16_3 C 0.5901(7) 0.3443(6) 0.4919(7)
C17_3 C 0.6420(9) 0.3301(10) 0.4439(8)
H17_3 H 0.6862 0.3126 0.4561
C18_3 C 0.6293(10) 0.3414(12) 0.3802(8)
H18_3 H 0.6655 0.3355 0.3500
C19_3 C 0.5591(10) 0.3625(10) 0.3614(7)
C20_3 C 0.5075(8) 0.3727(9) 0.4057(8)
H19_3 H 0.4611 0.3836 0.3927
C21_3 C 0.5232(7) 0.3669(8) 0.4707(7)
H20_4 H 0.4883 0.3784 0.5006
C22_3 C 0.5474(13) 0.3727(14) 0.2922(8)
H21_3 H 0.5878 0.3972 0.2747
H22_3 H 0.5458 0.3298 0.2710
C23_3 C 0.3757(10) 0.4182(9) 0.2553(8)
H23_3 H 0.3278 0.4089 0.2461
C24_3 C 0.4622(8) 0.4720(9) 0.2795(8)
H24_2 H 0.4937 0.5066 0.2887
H30_4 H 0.2287 0.0092 0.6405
C35_4 C 0.3693(11) 0.0231(7) 0.7386(8)
C36_4 C 0.3033(7) 0.1056(7) 0.7504(6)
H36_4 H 0.2891 0.1499 0.7504
N1_4 N 0.4110(5) 0.0977(5) 0.6046(5)
N2_4 N 0.3311(6) 0.0641(6) 0.5320(5)
N3_4 N 0.3918(6) 0.0267(6) 0.5292(6)
N7_4 N 0.5294(5) 0.1934(4) 0.6344(4)
N8_4 N 0.6208(6) 0.2168(5) 0.5671(5)
N9_4 N 0.5863(5) 0.2707(5) 0.5845(5)
N10_3 N 0.3962(7) 0.4796(7) 0.2663(6)
H49_2 H 0.3713 0.5156 0.2650
N11_3 N 0.4223(11) 0.3716(8) 0.2573(8)
N12_3 N 0.4805(10) 0.4090(9) 0.2784(7)
N16_4 N 0.3707(5) 0.0890(5) 0.7348(5)
N17_4 N 0.2582(8) 0.0596(8) 0.7653(6)
N18_4 N 0.2997(10) 0.0062(8) 0.7519(7)
O1_4 O 0.2667(4) 0.2825(4) 0.6229(4)
O2_4 O 0.3798(4) 0.2211(3) 0.6748(3)
O3_4 O 0.3960(4) 0.3467(4) 0.6281(4)
O4_4 O 0.2782(4) 0.2785(3) 0.7546(3)
O5_4 O 0.4100(4) 0.3177(3) 0.7717(3)
O6_4 O 0.3087(4) 0.3985(3) 0.7002(3)
O7_4 O 0.2338(4) 0.2827(5) 0.8811(4)
O8_4 O 0.3526(4) 0.2156(4) 0.8541(4)
O9_4 O 0.3667(4) 0.3423(4) 0.9011(4)
O10_4 O 0.2893(4) 0.3989(4) 0.8194(3)
O12_4 O 0.4332(4) 0.4498(5) 0.9530(4)
O13_4 O 0.3629(5) 0.5215(5) 0.8593(4)
O15_4 O 0.3560(5) 0.6208(4) 0.7658(4)
O16_4 O 0.4262(5) 0.4348(5) 0.8116(5)
O17_4 O 0.4809(5) 0.3997(5) 0.7085(5)
O18_4 O 0.2838(4) 0.5040(3) 0.7566(4)
O19_4 O 0.4071(5) 0.5150(5) 0.6911(4)
O20_4 O 0.4862(4) 0.4551(4) 0.5967(4)
O21_2 O 0.3452(4) 0.4676(4) 0.5835(3)
O22_4 O 0.5293(5) 0.3567(6) 0.8110(5)
O23_4 O 0.1874(4) 0.4198(4) 0.7431(5)
O24_4 O 0.4847(4) 0.1892(5) 0.7698(4)
H50_4 H 0.450339 0.179803 0.80506
H51_4 H 0.533198 0.172521 0.781684
C3_4 C 0.3963(10) 0.9669(9) 0.4871(9)
H3_4 H 0.3848 0.9793 0.4434
H4_4 H 0.4450 0.9495 0.4877
C4_4 C 0.3451(12) 0.9145(8) 0.5094(10)
C5_4 C 0.2929(10) 0.8913(11) 0.4703(9)
H5_4 H 0.2878 0.9087 0.4293
C6_4 C 0.2484(11) 0.8436(10) 0.4904(12)
H6_4 H 0.2117 0.8287 0.4637
C7_4 C 0.2567(13) 0.8156(8) 0.5518(12)
C8_4 C 0.3098(15) 0.8376(9) 0.5917(14)
H7_4 H 0.3164 0.8202 0.6325
C9_4 C 0.3536(14) 0.8876(11) 0.5673(13)
H8_4 H 0.3909 0.9033 0.5928
C10_4 C 0.2020(12) 0.7647(9) 0.5752(11)
H9_4 H 0.1829 0.7795 0.6160
H10_4 H 0.1623 0.7633 0.5450
C11_4 C 0.2723(8) 0.6125(7) 0.6231(6)
H11_4 H 0.2919 0.5836 0.6532
C12_4 C 0.2447(9) 0.6523(7) 0.5380(7)
H12_4 H 0.2382 0.6607 0.4946
C27_4 C 0.0501(7) 0.8946(8) 0.5572(8)
H27_4 H 0.0701 0.9107 0.5172
H28_4 H 0.0517 0.8465 0.5557
C28_4 C 0.0979(8) 0.9167(9) 0.6094(7)
C29_4 C 0.1433(8) 0.9670(11) 0.6015(9)
H29_4 H 0.1396 0.9952 0.5664
C30_4 C 0.1946(13) 0.9757(14) 0.6459(10)
C31_4 C 0.1973(11) 0.9376(12) 0.6968(13)
C32_4 C 0.1455(11) 0.8927(14) 0.7081(12)
H31_4 H 0.1458 0.8683 0.7459
C33_4 C 0.0942(8) 0.8834(11) 0.6656(9)
H32_4 H 0.0563 0.8545 0.6740
C34_4 C 0.259(2) 0.9422(10) 0.7440(13)
H33_4 H 0.2935 0.9082 0.7324
H34_4 H 0.2399 0.9302 0.7857
H35_4 H 0.4080 0.9943 0.7332
C37_4 C 0.2761(6) 0.4054(7) 0.4017(5)
H37_4 H 0.2628 0.4385 0.3731
C38_4 C 0.3082(6) 0.3587(6) 0.4837(5)
H38_4 H 0.3235 0.3499 0.5252
C39_4 C 0.3109(7) 0.2432(6) 0.4450(7)
H39_4 H 0.2733 0.2217 0.4203
H40_4 H 0.3048 0.2300 0.4894
C40_4 C 0.3841(6) 0.2177(6) 0.4215(7)
C41_4 C 0.4376(8) 0.2046(9) 0.4622(7)
H41_4 H 0.4312 0.2133 0.5055
C42_4 C 0.5028(8) 0.1783(7) 0.4412(6)
H42_4 H 0.5370 0.1646 0.4708
C43_4 C 0.5170(7) 0.1722(7) 0.3758(7)
C44_4 C 0.4638(9) 0.1953(9) 0.3360(6)
H43_4 H 0.4723 0.1938 0.2921
C45_4 C 0.4002(9) 0.2201(10) 0.3560(7)
H44_4 H 0.3677 0.2383 0.3270
C46_4 C 0.5877(7) 0.1501(8) 0.3519(7)
H45_4 H 0.5834 0.1391 0.3069
H46_4 H 0.6216 0.1866 0.3555
C47_4 C 0.6798(7) 0.0897(7) 0.4141(6)
H47_4 H 0.7123 0.1247 0.4173
N4_4 N 0.2684(5) 0.5954(5) 0.5610(4)
N5_4 N 0.2479(7) 0.6707(5) 0.6402(5)
N6_4 N 0.2311(7) 0.6957(6) 0.5831(6)
N19_4 N 0.2905(5) 0.4197(5) 0.4621(4)
N20_4 N 0.2808(5) 0.3433(5) 0.3832(5)
N21_4 N 0.3015(5) 0.3149(5) 0.4404(4)
N23_4 N 0.5834(5) 0.0340(6) 0.3874(5)
N24_4 N 0.6169(5) 0.0923(6) 0.3862(5)
C48_4 C 0.6290(6) 0.9952(7) 0.4205(6)
H48_4 H 0.6197 0.9510 0.4305
C25_4 C 0.9351(6) 0.9521(7) 0.5194(6)
H25_4 H 0.9534 0.9744 0.4839
C26_4 C 0.8680(7) 0.9167(7) 0.5926(6)
H26_4 H 0.8268 0.9098 0.6171
N14_4 N 0.9319(6) 0.8931(6) 0.6074(6)
N15_4 N 0.9746(5) 0.9147(5) 0.5598(5)
H24_3 H 0.5063 0.0066 0.2113
H49_3 H 0.6287 0.0156 0.2350
H19_4 H 0.0389 0.6164 0.8927
C23_4 C 0.1243(10) 0.5818(9) 0.7553(8)
H23_4 H 0.1722 0.5911 0.7461
C24_4 C 0.0378(8) 0.5280(9) 0.7795(8)
H24_4 H 0.0063 0.4934 0.7887
N10_4 N 0.1038(7) 0.5204(7) 0.7663(6)
H49_4 H 0.1287 0.4844 0.7650
N11_4 N 0.0777(11) 0.6284(8) 0.7573(8)
N12_4 N 0.0195(10) 0.5910(9) 0.7784(7)
C16_4 C 0.9099(7) 0.6557(6) 0.9919(7)
C17_4 C 0.8580(9) 0.6699(10) 0.9439(8)
H17_4 H 0.8138 0.6874 0.9561
C18_4 C 0.8707(10) 0.6586(12) 0.8802(8)
H18_4 H 0.8345 0.6645 0.8500
C19_4 C 0.9409(10) 0.6375(10) 0.8614(7)
C20_4 C 0.9925(8) 0.6273(9) 0.9057(8)
C21_4 C 0.9768(7) 0.6331(8) 0.9707(7)
C22_4 C 0.9526(13) 0.6273(14) 0.7922(8)
H21_4 H 0.9122 0.6028 0.7747
H22_4 H 0.9542 0.6702 0.7710
loop_
_geom_bond_atom_site_label_1
_geom_bond_atom_site_label_2
_geom_bond_site_symmetry_1
_geom_bond_site_symmetry_2
C26 H26 1_555 1_555
N13 C25 1_555 1_555
N14 C26 1_555 1_555
N15 C25 1_555 1_555
C26 N13 1_555 1_555
N14 N15 1_555 1_555
Mo4 O13 1_555 1_555
O14 Mo4 1_555 1_555
O15 Mo4 1_555 1_555
O18 Mo4 1_555 1_555
O19 Mo4 1_555 1_555
Ni3 O14 1_555 1_555
C3 H3 1_555 1_555
H4 C3 1_555 1_555
H5 C5 1_555 1_555
C6 C5 1_555 1_555
H6 C6 1_555 1_555
C17 C16 1_555 1_555
H17 C17 1_555 1_555
C18 C17 1_555 1_555
H18 C18 1_555 1_555
C19 C18 1_555 1_555
C20 C19 1_555 1_555
H19 C20 1_555 1_555
C21 C16 1_555 1_555
C22 C19 1_555 1_555
H21 C22 1_555 1_555
H22 C22 1_555 1_555
C23 H23 1_555 1_555
N10 C23 1_555 1_555
N11 C23 1_555 1_555
N12 C22 1_555 1_555
C20 C21 1_555 1_555
C24 N10 1_555 1_555
C24 N12 1_555 1_555
N11 N12 1_555 1_555
Mo1 O1 1_555 1_555
Mo2 O4 1_555 1_555
Mo3 O9 1_555 1_555
Mo5 O3 1_555 1_555
Ni1 N1 1_555 1_555
Ni7 N4 1_555 1_555
P1 O6 1_555 1_555
P2 O5 1_555 1_555
C1 H1 1_555 1_555
C2 H2 1_555 1_555
C8 C7 1_555 1_555
H7 C8 1_555 1_555
C9 C4 1_555 1_555
H8 C9 1_555 1_555
C10 C7 1_555 1_555
H9 C10 1_555 1_555
H10 C10 1_555 1_555
C11 H11 1_555 1_555
C13 H13 1_555 1_555
C14 H14 1_555 1_555
C15 H15 1_555 1_555
H16 C15 1_555 1_555
C27 H27 1_555 1_555
H28 C27 1_555 1_555
C28 C27 1_555 1_555
C29 C28 1_555 1_555
H29 C29 1_555 1_555
C30 C29 1_555 1_555
H30 C30 1_555 1_555
C31 C30 1_555 1_555
C32 C31 1_555 1_555
H31 C32 1_555 1_555
C33 C28 1_555 1_555
H32 C33 1_555 1_555
C34 C31 1_555 1_555
H33 C34 1_555 1_555
H34 C34 1_555 1_555
C35 H35 1_555 1_555
C36 H36 1_555 1_555
N1 C1 1_555 1_555
N2 C1 1_555 1_555
N3 C2 1_555 1_555
N4 C11 1_555 1_555
N5 C11 1_555 1_555
N6 C10 1_555 1_555
N7 Ni1 1_555 1_555
N8 C14 1_555 1_555
N9 C13 1_555 1_555
N16 Ni1 1_555 1_555
N17 C36 1_555 1_555
N18 C34 1_555 1_555
O2 Mo1 1_555 1_555
O3 Mo1 1_555 1_555
O4 Mo1 1_555 1_555
O5 Mo1 1_555 1_555
O6 Mo1 1_555 1_555
O7 Mo2 1_555 1_555
O8 Mo2 1_555 1_555
O9 Mo2 1_555 1_555
O10 Mo2 1_555 1_555
O11 Mo3 1_555 1_555
O12 Mo3 1_555 1_555
O16 Mo3 1_555 1_555
O17 Mo5 1_555 1_555
O20 Mo5 1_555 1_555
O21 Mo5 1_555 1_555
O22 P2 1_555 1_555
O23 P1 1_555 1_555
O24 Ni1 1_555 1_555
Ni6 O11 1_555 1_555
O26 Ni1 1_555 1_555
Mo2 O5 1_555 1_555
Mo3 O10 1_555 1_555
Mo5 O6 1_555 1_555
Ni1 O2 1_555 1_555
P1 O10 1_555 1_555
P2 O16 1_555 1_555
P2 O17 1_555 1_555
C2 N1 1_555 1_555
C8 C9 1_555 1_555
C12 N4 1_555 1_555
C12 N6 1_555 1_555
C13 N7 1_555 1_555
C14 N7 1_555 1_555
C15 N9 1_555 1_555
C32 C33 1_555 1_555
C35 N16 1_555 1_555
C35 N18 1_555 1_555
C36 N16 1_555 1_555
N2 N3 1_555 1_555
N5 N6 1_555 1_555
N8 N9 1_555 1_555
N17 N18 1_555 1_555
O24 H50 1_555 1_555
O24 H51 1_555 1_555
C37 H37 1_555 1_555
C39 H39 1_555 1_555
H40 C39 1_555 1_555
C40 C39 1_555 1_555
C41 C40 1_555 1_555
C42 C41 1_555 1_555
H42 C42 1_555 1_555
C43 C42 1_555 1_555
C44 C43 1_555 1_555
H43 C44 1_555 1_555
C45 C40 1_555 1_555
H44 C45 1_555 1_555
C46 C43 1_555 1_555
H45 C46 1_555 1_555
H46 C46 1_555 1_555
C47 H47 1_555 1_555
C48 H48 1_555 1_555
N20 C37 1_555 1_555
N21 C38 1_555 1_555
N22 C47 1_555 1_555
N23 C48 1_555 1_555
N24 C46 1_555 1_555
Ni4 N22 1_555 1_555
C37 N19 1_555 1_555
C38 N19 1_555 1_555
C39 N21 1_555 1_555
C44 C45 1_555 1_555
C47 N24 1_555 1_555
C48 N22 1_555 1_555
N20 N21 1_555 1_555
N23 N24 1_555 1_555
H42_2 C42_2 1_555 1_555
C43_2 C42_2 1_555 1_555
C46_2 C43_2 1_555 1_555
H45_2 C46_2 1_555 1_555
H46_2 C46_2 1_555 1_555
C47_2 H47_2 1_555 1_555
C48_2 H48_2 1_555 1_555
N22_2 C47_2 1_555 1_555
N23_2 C48_2 1_555 1_555
N24_2 C46_2 1_555 1_555
Ni5 N22_2 1_555 1_555
C47_2 N24_2 1_555 1_555
C48_2 N22_2 1_555 1_555
N23_2 N24_2 1_555 1_555
C13_2 H13_2 1_555 1_555
C14_2 H14_2 1_555 1_555
C15_2 H15_2 1_555 1_555
H16_2 C15_2 1_555 1_555
C16_2 C15_2 1_555 1_555
C17_2 C16_2 1_555 1_555
H17_2 C17_2 1_555 1_555
C18_2 C17_2 1_555 1_555
H18_2 C18_2 1_555 1_555
C19_2 C18_2 1_555 1_555
C20_2 C19_2 1_555 1_555
C21_2 C16_2 1_555 1_555
C22_2 C19_2 1_555 1_555
H21_2 C22_2 1_555 1_555
H22_2 C22_2 1_555 1_555
N8_2 C14_2 1_555 1_555
N9_2 C13_2 1_555 1_555
C13_2 N7_2 1_555 1_555
C14_2 N7_2 1_555 1_555
C15_2 N9_2 1_555 1_555
C20_2 C21_2 1_555 1_555
N8_2 N9_2 1_555 1_555
C37_2 H37_2 1_555 1_555
C38_2 H38_2 1_555 1_555
C39_2 H39_2 1_555 1_555
H40_2 C39_2 1_555 1_555
C40_2 C39_2 1_555 1_555
C41_2 C40_2 1_555 1_555
H41_2 C41_2 1_555 1_555
H43_2 C44_2 1_555 1_555
C45_2 C40_2 1_555 1_555
H44_2 C45_2 1_555 1_555
N20_2 C37_2 1_555 1_555
N21_2 C38_2 1_555 1_555
C37_2 N19_2 1_555 1_555
C38_2 N19_2 1_555 1_555
C39_2 N21_2 1_555 1_555
C44_2 C45_2 1_555 1_555
N20_2 N21_2 1_555 1_555
Mo1_2 O1_2 1_555 1_555
Mo2_2 O4_2 1_555 1_555
Mo3_2 O9_2 1_555 1_555
Mo5_2 O3_2 1_555 1_555
Ni1_2 N1_2 1_555 1_555
Ni6 N4_2 1_555 1_555
P1_2 O6_2 1_555 1_555
P2_2 O5_2 1_555 1_555
C1_2 H1_2 1_555 1_555
C2_2 H2_2 1_555 1_555
C3_2 H3_2 1_555 1_555
H4_2 C3_2 1_555 1_555
C4_2 C3_2 1_555 1_555
C5_2 C4_2 1_555 1_555
H5_2 C5_2 1_555 1_555
C6_2 C5_2 1_555 1_555
H6_2 C6_2 1_555 1_555
C7_2 C6_2 1_555 1_555
C8_2 C7_2 1_555 1_555
H7_2 C8_2 1_555 1_555
C9_2 C4_2 1_555 1_555
H8_2 C9_2 1_555 1_555
C10_2 C7_2 1_555 1_555
H9_2 C10_2 1_555 1_555
H10_2 C10_2 1_555 1_555
C11_2 H11_2 1_555 1_555
C12_2 H12_2 1_555 1_555
C23_2 H23_2 1_555 1_555
C25_2 H25_2 1_555 1_555
C26_2 H26_2 1_555 1_555
C27_2 H27_2 1_555 1_555
H28_2 C27_2 1_555 1_555
C28_2 C27_2 1_555 1_555
C29_2 C28_2 1_555 1_555
H29_2 C29_2 1_555 1_555
C30_2 C29_2 1_555 1_555
H30_2 C30_2 1_555 1_555
C31_2 C30_2 1_555 1_555
C32_2 C31_2 1_555 1_555
H31_2 C32_2 1_555 1_555
C33_2 C28_2 1_555 1_555
H32_2 C33_2 1_555 1_555
C34_2 C31_2 1_555 1_555
H33_2 C34_2 1_555 1_555
H34_2 C34_2 1_555 1_555
C35_2 H35_2 1_555 1_555
C36_2 H36_2 1_555 1_555
N1_2 C1_2 1_555 1_555
N2_2 C1_2 1_555 1_555
N3_2 C2_2 1_555 1_555
N4_2 C11_2 1_555 1_555
N5_2 C11_2 1_555 1_555
N6_2 C10_2 1_555 1_555
N10_2 C23_2 1_555 1_555
N11_2 C23_2 1_555 1_555
N13_2 C25_2 1_555 1_555
N14_2 C26_2 1_555 1_555
N15_2 C25_2 1_555 1_555
N16_2 Ni1_2 1_555 1_555
N17_2 C36_2 1_555 1_555
N18_2 C34_2 1_555 1_555
O2_2 Mo1_2 1_555 1_555
O3_2 Mo1_2 1_555 1_555
O4_2 Mo1_2 1_555 1_555
O5_2 Mo1_2 1_555 1_555
O6_2 Mo1_2 1_555 1_555
O7_2 Mo2_2 1_555 1_555
O8_2 Mo2_2 1_555 1_555
O9_2 Mo2_2 1_555 1_555
O10_2 Mo2_2 1_555 1_555
O25 Mo3_2 1_555 1_555
O12_2 Mo3_2 1_555 1_555
O16_2 Mo3_2 1_555 1_555
O17_2 Mo5_2 1_555 1_555
O20_2 Mo5_2 1_555 1_555
O27 Mo5_2 1_555 1_555
O23_2 P1_2 1_555 1_555
O24_2 Ni1_2 1_555 1_555
Ni5 N13_2 1_555 1_555
N25_2 Ni6 1_555 1_555
Mo2_2 O5_2 1_555 1_555
Mo3_2 O10_2 1_555 1_555
Mo5_2 O6_2 1_555 1_555
Ni1_2 O2_2 1_555 1_555
P1_2 O10_2 1_555 1_555
P2_2 O16_2 1_555 1_555
P2_2 O17_2 1_555 1_555
C2_2 N1_2 1_555 1_555
C3_2 N3_2 1_555 1_555
C8_2 C9_2 1_555 1_555
C12_2 N4_2 1_555 1_555
C12_2 N6_2 1_555 1_555
C24_2 N10_2 1_555 1_555
C24_2 N12_2 1_555 1_555
C26_2 N13_2 1_555 1_555
C27_2 N15_2 1_555 1_555
C32_2 C33_2 1_555 1_555
C35_2 N16_2 1_555 1_555
C35_2 N18_2 1_555 1_555
C36_2 N16_2 1_555 1_555
N2_2 N3_2 1_555 1_555
N5_2 N6_2 1_555 1_555
N11_2 N12_2 1_555 1_555
N14_2 N15_2 1_555 1_555
N17_2 N18_2 1_555 1_555
O24_2 H50_2 1_555 1_555
Mo4_2 O13_2 1_555 1_555
O14_2 Mo4_2 1_555 1_555
O15_2 Mo4_2 1_555 1_555
O18_2 Mo4_2 1_555 1_555
O19_2 Mo4_2 1_555 1_555
Ni4 N4_3 1_555 1_555
C8_3 C7_3 1_555 1_555
H7_3 C8_3 1_555 1_555
C9_3 C4_3 1_555 1_555
H8_3 C9_3 1_555 1_555
C10_3 C7_3 1_555 1_555
H9_3 C10_3 1_555 1_555
H10_3 C10_3 1_555 1_555
C11_3 H11_3 1_555 1_555
C26_3 H26_3 1_555 1_555
C27_3 H27_3 1_555 1_555
H28_3 C27_3 1_555 1_555
C28_3 C27_3 1_555 1_555
C29_3 C28_3 1_555 1_555
H29_3 C29_3 1_555 1_555
C30_3 C29_3 1_555 1_555
C31_3 C30_3 1_555 1_555
C32_3 C31_3 1_555 1_555
H31_3 C32_3 1_555 1_555
C33_3 C28_3 1_555 1_555
H32_3 C33_3 1_555 1_555
C34_3 C31_3 1_555 1_555
H33_3 C34_3 1_555 1_555
H34_3 C34_3 1_555 1_555
N4_3 C11_3 1_555 1_555
N5_3 C11_3 1_555 1_555
N6_3 C10_3 1_555 1_555
N25 C25_3 1_555 1_555
N14_3 C26_3 1_555 1_555
N15_3 C25_3 1_555 1_555
O27_2 Ni4 1_555 1_555
C8_3 C9_3 1_555 1_555
C12_3 N4_3 1_555 1_555
C12_3 N6_3 1_555 1_555
C26_3 N25 1_555 1_555
C27_3 N15_3 1_555 1_555
C32_3 C33_3 1_555 1_555
N5_3 N6_3 1_555 1_555
N14_3 N15_3 1_555 1_555
C3_3 H3_3 1_555 1_555
H4_3 C3_3 1_555 1_555
H5_3 C5_3 1_555 1_555
C6_3 C5_3 1_555 1_555
H6_3 C6_3 1_555 1_555
C37_3 H37_3 1_555 1_555
C39_3 H39_3 1_555 1_555
H40_3 C39_3 1_555 1_555
C40_3 C39_3 1_555 1_555
C41_3 C40_3 1_555 1_555
H43_3 C44_3 1_555 1_555
C45_3 C40_3 1_555 1_555
H44_3 C45_3 1_555 1_555
N20_3 C37_3 1_555 1_555
N21_3 C38_3 1_555 1_555
C37_3 N19_3 1_555 1_555
C38_3 N19_3 1_555 1_555
C39_3 N21_3 1_555 1_555
C44_3 C45_3 1_555 1_555
N20_3 N21_3 1_555 1_555
Mo1_3 O1_3 1_555 1_555
Mo2_3 O4_3 1_555 1_555
Mo3_3 O9_3 1_555 1_555
Mo4_3 O13_3 1_555 1_555
Mo5_3 O3_3 1_555 1_555
Ni3_2 N1_3 1_555 1_555
P1_3 O6_3 1_555 1_555
P2_3 O5_3 1_555 1_555
C1_3 H1_3 1_555 1_555
C2_3 H2_3 1_555 1_555
C36_3 H36_3 1_555 1_555
N1_3 C1_3 1_555 1_555
N2_3 C1_3 1_555 1_555
N3_3 C2_3 1_555 1_555
N16_3 Ni3_2 1_555 1_555
N17_3 C36_3 1_555 1_555
O2_3 Mo1_3 1_555 1_555
O3_3 Mo1_3 1_555 1_555
O4_3 Mo1_3 1_555 1_555
O5_3 Mo1_3 1_555 1_555
O6_3 Mo1_3 1_555 1_555
O7_3 Mo2_3 1_555 1_555
O8_3 Mo2_3 1_555 1_555
O9_3 Mo2_3 1_555 1_555
O10_3 Mo2_3 1_555 1_555
O11_2 Mo3_3 1_555 1_555
O12_3 Mo3_3 1_555 1_555
O13_3 Mo3_3 1_555 1_555
O26_2 Mo4_3 1_555 1_555
O15_3 Mo4_3 1_555 1_555
O16_3 Mo3_3 1_555 1_555
O17_3 Mo5_3 1_555 1_555
O18_3 Mo4_3 1_555 1_555
O19_3 Mo4_3 1_555 1_555
O20_3 Mo5_3 1_555 1_555
O27_2 Mo5_3 1_555 1_555
O23_3 P1_3 1_555 1_555
O24_3 Ni3_2 1_555 1_555
Ni5 O11_2 1_555 1_555
Mo2_3 O5_3 1_555 1_555
Mo3_3 O10_3 1_555 1_555
Mo4_3 O16_3 1_555 1_555
Mo5_3 O6_3 1_555 1_555
Mo5_3 O19_3 1_555 1_555
Ni3_2 O2_3 1_555 1_555
P1_3 O10_3 1_555 1_555
P1_3 O18_3 1_555 1_555
P2_3 O16_3 1_555 1_555
P2_3 O17_3 1_555 1_555
C2_3 N1_3 1_555 1_555
C35_3 N16_3 1_555 1_555
C35_3 N18_3 1_555 1_555
C36_3 N16_3 1_555 1_555
N2_3 N3_3 1_555 1_555
N17_3 N18_3 1_555 1_555
O24_3 H50_3 1_555 1_555
C48_3 H48_3 1_555 1_555
H42_3 C42_3 1_555 1_555
C43_3 C42_3 1_555 1_555
C46_3 C43_3 1_555 1_555
H45_3 C46_3 1_555 1_555
H46_3 C46_3 1_555 1_555
C47_3 H47_3 1_555 1_555
N26 C47_3 1_555 1_555
N24_3 C46_3 1_555 1_555
C47_3 N24_3 1_555 1_555
N23_3 N24_3 1_555 1_555
C13_3 H13_3 1_555 1_555
C14_3 H14_3 1_555 1_555
C15_3 H15_3 1_555 1_555
H16_3 C15_3 1_555 1_555
N8_3 C14_3 1_555 1_555
N9_3 C13_3 1_555 1_555
C13_3 N7_3 1_555 1_555
C14_3 N7_3 1_555 1_555
C15_3 N9_3 1_555 1_555
N8_3 N9_3 1_555 1_555
Mo1_4 O1_4 1_555 1_555
Mo2_4 O4_4 1_555 1_555
Mo3_4 O9_4 1_555 1_555
Mo4_4 O13_4 1_555 1_555
Mo5_4 O3_4 1_555 1_555
Ni3 N1_4 1_555 1_555
P1_4 O6_4 1_555 1_555
P2_4 O5_4 1_555 1_555
C1_4 H1_4 1_555 1_555
C2_4 H2_4 1_555 1_555
C13_4 H13_4 1_555 1_555
C14_4 H14_4 1_555 1_555
C15_4 H15_4 1_555 1_555
H16_4 C15_4 1_555 1_555
C16_3 C15_4 1_555 1_555
C17_3 C16_3 1_555 1_555
H17_3 C17_3 1_555 1_555
C18_3 C17_3 1_555 1_555
H18_3 C18_3 1_555 1_555
C19_3 C18_3 1_555 1_555
C20_3 C19_3 1_555 1_555
H19_3 C20_3 1_555 1_555
C21_3 C16_3 1_555 1_555
H20_4 C21_3 1_555 1_555
C22_3 C19_3 1_555 1_555
H21_3 C22_3 1_555 1_555
H22_3 C22_3 1_555 1_555
C23_3 H23_3 1_555 1_555
C24_3 H24_2 1_555 1_555
C36_4 H36_4 1_555 1_555
N1_4 C1_4 1_555 1_555
N2_4 C1_4 1_555 1_555
N3_4 C2_4 1_555 1_555
N7_4 Ni3 1_555 1_555
N8_4 C14_4 1_555 1_555
N9_4 C13_4 1_555 1_555
N10_3 C23_3 1_555 1_555
H49_2 N10_3 1_555 1_555
N11_3 C23_3 1_555 1_555
N12_3 C22_3 1_555 1_555
N16_4 Ni3 1_555 1_555
N17_4 C36_4 1_555 1_555
O2_4 Mo1_4 1_555 1_555
O3_4 Mo1_4 1_555 1_555
O4_4 Mo1_4 1_555 1_555
O5_4 Mo1_4 1_555 1_555
O6_4 Mo1_4 1_555 1_555
O7_4 Mo2_4 1_555 1_555
O8_4 Mo2_4 1_555 1_555
O9_4 Mo2_4 1_555 1_555
O10_4 Mo2_4 1_555 1_555
O25_2 Mo3_4 1_555 1_555
O12_4 Mo3_4 1_555 1_555
O13_4 Mo3_4 1_555 1_555
O26 Mo4_4 1_555 1_555
O15_4 Mo4_4 1_555 1_555
O16_4 Mo3_4 1_555 1_555
O17_4 Mo5_4 1_555 1_555
O18_4 Mo4_4 1_555 1_555
O19_4 Mo4_4 1_555 1_555
O20_4 Mo5_4 1_555 1_555
O21_2 Mo5_4 1_555 1_555
O22_4 P2_4 1_555 1_555
O23_4 P1_4 1_555 1_555
O24_4 Ni3 1_555 1_555
Ni5 O21_2 1_555 1_555
Mo2_4 O5_4 1_555 1_555
Mo3_4 O10_4 1_555 1_555
Mo4_4 O16_4 1_555 1_555
Mo5_4 O6_4 1_555 1_555
Mo5_4 O19_4 1_555 1_555
Ni3 O2_4 1_555 1_555
P1_4 O10_4 1_555 1_555
P1_4 O18_4 1_555 1_555
P2_4 O16_4 1_555 1_555
P2_4 O17_4 1_555 1_555
C2_4 N1_4 1_555 1_555
C13_4 N7_4 1_555 1_555
C14_4 N7_4 1_555 1_555
C15_4 N9_4 1_555 1_555
C20_3 C21_3 1_555 1_555
C24_3 N10_3 1_555 1_555
C24_3 N12_3 1_555 1_555
C35_4 N16_4 1_555 1_555
C35_4 N18_4 1_555 1_555
C36_4 N16_4 1_555 1_555
N2_4 N3_4 1_555 1_555
N8_4 N9_4 1_555 1_555
N11_3 N12_3 1_555 1_555
N17_4 N18_4 1_555 1_555
O24_4 H50_4 1_555 1_555
O24_4 H51_4 1_555 1_555
Ni5 N4_4 1_555 1_555
C3_4 H3_4 1_555 1_555
H4_4 C3_4 1_555 1_555
C4_4 C3_4 1_555 1_555
C5_4 C4_4 1_555 1_555
H5_4 C5_4 1_555 1_555
C6_4 C5_4 1_555 1_555
H6_4 C6_4 1_555 1_555
C7_4 C6_4 1_555 1_555
C8_4 C7_4 1_555 1_555
H7_4 C8_4 1_555 1_555
C9_4 C4_4 1_555 1_555
H8_4 C9_4 1_555 1_555
C10_4 C7_4 1_555 1_555
H9_4 C10_4 1_555 1_555
H10_4 C10_4 1_555 1_555
C11_4 H11_4 1_555 1_555
C12_4 H12_4 1_555 1_555
C27_4 H27_4 1_555 1_555
H28_4 C27_4 1_555 1_555
C28_4 C27_4 1_555 1_555
C29_4 C28_4 1_555 1_555
H29_4 C29_4 1_555 1_555
C30_4 C29_4 1_555 1_555
C31_4 C30_4 1_555 1_555
C32_4 C31_4 1_555 1_555
H31_4 C32_4 1_555 1_555
C33_4 C28_4 1_555 1_555
H32_4 C33_4 1_555 1_555
C34_4 C31_4 1_555 1_555
H33_4 C34_4 1_555 1_555
H34_4 C34_4 1_555 1_555
C37_4 H37_4 1_555 1_555
C38_4 H38_4 1_555 1_555
C39_4 H39_4 1_555 1_555
H40_4 C39_4 1_555 1_555
C40_4 C39_4 1_555 1_555
C41_4 C40_4 1_555 1_555
H41_4 C41_4 1_555 1_555
C42_4 C41_4 1_555 1_555
H42_4 C42_4 1_555 1_555
C43_4 C42_4 1_555 1_555
C44_4 C43_4 1_555 1_555
H43_4 C44_4 1_555 1_555
C45_4 C40_4 1_555 1_555
H44_4 C45_4 1_555 1_555
C46_4 C43_4 1_555 1_555
H45_4 C46_4 1_555 1_555
H46_4 C46_4 1_555 1_555
C47_4 H47_4 1_555 1_555
N4_4 C11_4 1_555 1_555
N5_4 C11_4 1_555 1_555
N6_4 C10_4 1_555 1_555
N19_4 Ni5 1_555 1_555
N20_4 C37_4 1_555 1_555
N21_4 C38_4 1_555 1_555
N26_2 C47_4 1_555 1_555
N24_4 C46_4 1_555 1_555
C8_4 C9_4 1_555 1_555
C12_4 N4_4 1_555 1_555
C12_4 N6_4 1_555 1_555
C32_4 C33_4 1_555 1_555
C37_4 N19_4 1_555 1_555
C38_4 N19_4 1_555 1_555
C39_4 N21_4 1_555 1_555
C44_4 C45_4 1_555 1_555
C47_4 N24_4 1_555 1_555
N5_4 N6_4 1_555 1_555
N20_4 N21_4 1_555 1_555
N23_4 N24_4 1_555 1_555
C48_4 H48_4 1_555 1_555
C25_4 H25_4 1_555 1_555
C26_4 H26_4 1_555 1_555
N25_2 C25_4 1_555 1_555
N14_4 C26_4 1_555 1_555
N15_4 C25_4 1_555 1_555
C26_4 N25_2 1_555 1_555
N14_4 N15_4 1_555 1_555
C23_4 H23_4 1_555 1_555
C24_4 H24_4 1_555 1_555
N10_4 C23_4 1_555 1_555
H49_4 N10_4 1_555 1_555
N11_4 C23_4 1_555 1_555
C24_4 N10_4 1_555 1_555
C24_4 N12_4 1_555 1_555
N11_4 N12_4 1_555 1_555
C17_4 C16_4 1_555 1_555
H17_4 C17_4 1_555 1_555
C18_4 C17_4 1_555 1_555
H18_4 C18_4 1_555 1_555
C19_4 C18_4 1_555 1_555
C20_4 C19_4 1_555 1_555
C21_4 C16_4 1_555 1_555
C22_4 C19_4 1_555 1_555
H21_4 C22_4 1_555 1_555
H22_4 C22_4 1_555 1_555
C20_4 C21_4 1_555 1_555

#END
