
###############################################################################
#
# This file contains modified crystal structure data generated from the
# MOF subset of the Cambridge Structural Database (CSD) v543 
# hosted by the Cambridge Crystallographic Data Centre (CCDC).
#
# This work is licensed under the Creative Commons
# Attribution-NonCommercial-ShareAlike 4.0 International License.
# To view a copy of this license, visit
# http://creativecommons.org/licenses/by-nc-sa/4.0/
# or send a letter to
# Creative Commons, PO Box 1866, Mountain View, CA 94042, USA.
#
# CIF created using the CSD Python API on 29 September 2022
# The structure has been converted into the P1 space group
# The structure has a 3D framework
# The original CSD entry LOJQEI is in the monoclinic crystal system
# The framework has been calculated to contain at least 10.0% void space
# The void calculation uses a probe of radius 1.32A, grid spacing 0.4
#
###############################################################################

data_LOJQEI
_chemical_formula_moiety         '(C64 H44 N16 O16 Zn4)n'
_symmetry_cell_setting           triclinic
_symmetry_space_group_name_H-M   'P 1'
_symmetry_Int_Tables_number      1
_space_group_name_Hall           'P 1'
loop_
_symmetry_equiv_pos_site_id
_symmetry_equiv_pos_as_xyz
1 x,y,z
_cell_length_a                   9.806(2)
_cell_length_b                   15.893(3)
_cell_length_c                   12.212(5)
_cell_angle_alpha                90
_cell_angle_beta                 115.78(2)
_cell_angle_gamma                90
_cell_volume                     1713.78
loop_
_atom_site_label
_atom_site_type_symbol
_atom_site_fract_x
_atom_site_fract_y
_atom_site_fract_z
Zn5 Zn 0.09515(3) 0.886710(13) 0.16460(2)
O2 O 0.22054(19) 0.13497(11) 0.03895(15)
N6 N 0.2607(2) 0.05506(12) 0.45524(17)
H13 H 0.2603 0.1044 0.4840
N7 N 0.0077(2) 0.14822(11) 0.26709(17)
H17 H 0.4470 0.0179 0.6998
C28 C 0.1880(2) 0.03161(13) 0.3379(2)
C29 C 0.1021(3) 0.09122(13) 0.2362(2)
H18 H 0.0387 0.0594 0.1642
H19 H 0.1731 0.1238 0.2176
C30 C 0.0256(2) 0.23131(13) 0.2821(2)
H20 H 0.1021 0.2617 0.2745
O1 O 0.10441(16) 0.06663(10) 0.86368(14)
C1 C 0.2182(2) 0.08291(13) 0.96408(19)
C3 C 0.3623(2) 0.03665(12) 0.98405(18)
C5 C 0.4569(2) 0.07599(13) 0.94192(19)
H2 H 0.4275 0.1274 0.9022
O7 O 0.82567(16) 0.06660(10) 0.94466(14)
O8 O 0.62534(18) 0.14227(10) 0.82601(16)
C18 C 0.6866(2) 0.08784(13) 0.90462(19)
C20 C 0.5940(2) 0.04114(12) 0.95710(18)
Zn3 Zn 0.90485(3) 0.113290(13) 0.83540(2)
O3 O 0.17433(16) 0.93340(10) 0.05534(14)
O4 O 0.37466(18) 0.85773(10) 0.17399(16)
C2 C 0.3134(2) 0.91216(13) 0.09538(19)
C4 C 0.4060(2) 0.95886(12) 0.04290(18)
O5 O 0.89559(16) 0.93337(10) 0.13632(14)
C17 C 0.7818(2) 0.91709(13) 0.03592(19)
C19 C 0.6377(2) 0.96335(12) 0.01595(18)
C21 C 0.5431(2) 0.92401(13) 0.05808(19)
H12 H 0.5725 0.8726 0.0978
N5 N 0.20929(19) 0.95135(10) 0.32163(16)
C22 C 0.3050(2) 0.92061(13) 0.43645(19)
C23 C 0.3697(3) 0.84123(14) 0.4735(2)
H14 H 0.3506 0.7974 0.4183
C24 C 0.4629(3) 0.83073(16) 0.5952(2)
H15 H 0.5083 0.7787 0.6225
C25 C 0.4915(3) 0.89584(18) 0.6791(2)
H16 H 0.5546 0.8858 0.7607
C26 C 0.4287(3) 0.97444(17) 0.6441(2)
C27 C 0.3364(3) 0.98514(14) 0.5208(2)
N10 N 0.0790(2) 0.76466(11) 0.19106(18)
N4 N 0.0790(2) 0.73534(11) 0.69106(18)
C15 C 0.1689(3) 0.80081(15) 0.6904(3)
H10 H 0.2532 0.7963 0.6746
C16 C 0.1166(3) 0.87317(15) 0.7161(3)
H11 H 0.1571 0.9267 0.7214
O6 O 0.77946(19) 0.86503(11) 0.96105(15)
Zn4 Zn 0.09515(3) 0.613290(13) 0.66460(2)
N8 N 0.9210(2) 0.26466(11) 0.30894(18)
C31 C 0.8311(3) 0.19919(15) 0.3096(3)
H21 H 0.7468 0.2037 0.3254
C32 C 0.8834(3) 0.12683(15) 0.2839(3)
H22 H 0.8429 0.0733 0.2786
Zn6 Zn 0.90485(3) 0.386710(13) 0.33540(2)
N1 N 0.79071(19) 0.04865(10) 0.67837(16)
C6 C 0.6950(2) 0.07939(13) 0.56355(19)
C7 C 0.6303(3) 0.15877(14) 0.5265(2)
H3 H 0.6494 0.2026 0.5817
C8 C 0.5371(3) 0.16927(16) 0.4048(2)
H4 H 0.4917 0.2213 0.3775
C9 C 0.5085(3) 0.10416(18) 0.3209(2)
H5 H 0.4454 0.1142 0.2393
C10 C 0.5713(3) 0.02556(17) 0.3559(2)
C11 C 0.6636(3) 0.01486(14) 0.4792(2)
N9 N 0.9210(2) 0.23534(11) 0.80894(18)
N2 N 0.7393(2) 0.94494(12) 0.54476(17)
H1 H 0.7397 0.8956 0.5160
N3 N 0.9923(2) 0.85178(11) 0.73291(17)
H6 H 0.5530 0.9821 0.3002
C12 C 0.8120(2) 0.96839(13) 0.6621(2)
C13 C 0.8979(3) 0.90878(13) 0.7638(2)
H7 H 0.9613 0.9406 0.8358
H8 H 0.8269 0.8762 0.7824
C14 C 0.9744(2) 0.76869(13) 0.7179(2)
H9 H 0.8979 0.7383 0.7255
N1_2 N 0.20929(19) 0.54865(10) 0.82163(16)
N2_2 N 0.2607(2) 0.44494(12) 0.95524(17)
H1_2 H 0.2603 0.3956 0.9840
N3_2 N 0.0077(2) 0.35178(11) 0.76709(17)
C6_2 C 0.3050(2) 0.57939(13) 0.93645(19)
C7_2 C 0.3697(3) 0.65877(14) 0.9735(2)
H3_2 H 0.3506 0.7026 0.9183
C12_2 C 0.1880(2) 0.46839(13) 0.8379(2)
C13_2 C 0.1021(3) 0.40878(13) 0.7362(2)
H7_2 H 0.0387 0.4406 0.6642
H8_2 H 0.1731 0.3762 0.7176
C14_2 C 0.0256(2) 0.26869(13) 0.7821(2)
H9_2 H 0.1021 0.2383 0.7745
C31_2 C 0.1689(3) 0.69919(15) 0.1904(3)
H21_2 H 0.2532 0.7037 0.1746
C32_2 C 0.1166(3) 0.62683(15) 0.2161(3)
H22_2 H 0.1571 0.5733 0.2214
O9 O 0.10441(16) 0.43337(10) 0.36368(14)
O10 O 0.17433(16) 0.56660(10) 0.55534(14)
O1_2 O 0.89559(16) 0.56663(10) 0.63632(14)
O2_2 O 0.77946(19) 0.63497(11) 0.46105(15)
O3_2 O 0.82567(16) 0.43340(10) 0.44466(14)
O4_2 O 0.62534(18) 0.35773(10) 0.32601(16)
C1_2 C 0.7818(2) 0.58291(13) 0.53592(19)
C2_2 C 0.6866(2) 0.41216(13) 0.40462(19)
C3_2 C 0.6377(2) 0.53665(12) 0.51595(18)
C4_2 C 0.5940(2) 0.45886(12) 0.45710(18)
C5_2 C 0.5431(2) 0.57599(13) 0.55808(19)
H2_2 H 0.5725 0.6274 0.5978
C15_2 C 0.8311(3) 0.30081(15) 0.8096(3)
H10_2 H 0.7468 0.2963 0.8254
C16_2 C 0.8834(3) 0.37317(15) 0.7839(3)
H11_2 H 0.8429 0.4267 0.7786
O6_2 O 0.22054(19) 0.36503(11) 0.53895(15)
O8_2 O 0.37466(18) 0.64227(10) 0.67399(16)
C17_2 C 0.2182(2) 0.41709(13) 0.46408(19)
C18_2 C 0.3134(2) 0.58784(13) 0.59538(19)
C19_2 C 0.3623(2) 0.46335(12) 0.48405(18)
C20_2 C 0.4060(2) 0.54114(12) 0.54290(18)
C21_2 C 0.4569(2) 0.42401(13) 0.44192(19)
H12_2 H 0.4275 0.3726 0.4022
N5_2 N 0.79071(19) 0.45135(10) 0.17837(16)
N6_2 N 0.7393(2) 0.55506(12) 0.04476(17)
H13_2 H 0.7397 0.6044 0.0160
N7_2 N 0.9923(2) 0.64822(11) 0.23291(17)
C22_2 C 0.6950(2) 0.42061(13) 0.06355(19)
C23_2 C 0.6303(3) 0.34123(14) 0.0265(2)
H14_2 H 0.6494 0.2974 0.0817
C28_2 C 0.8120(2) 0.53161(13) 0.1621(2)
C29_2 C 0.8979(3) 0.59122(13) 0.2638(2)
H18_2 H 0.9613 0.5594 0.3358
H19_2 H 0.8269 0.6238 0.2824
C30_2 C 0.9744(2) 0.73131(13) 0.2179(2)
H20_2 H 0.8979 0.7617 0.2255
C8_2 C 0.4629(3) 0.66927(16) 0.0952(2)
H4_2 H 0.5083 0.7213 0.1225
C9_2 C 0.4915(3) 0.60416(18) 0.1791(2)
H5_2 H 0.5546 0.6142 0.2607
C10_2 C 0.4287(3) 0.52556(17) 0.1441(2)
H6_2 H 0.4470 0.4821 0.1998
C11_2 C 0.3364(3) 0.51486(14) 0.0208(2)
C24_2 C 0.5371(3) 0.33073(16) 0.9048(2)
H15_2 H 0.4917 0.2787 0.8775
C25_2 C 0.5085(3) 0.39584(18) 0.8209(2)
H16_2 H 0.4454 0.3858 0.7393
C26_2 C 0.5713(3) 0.47444(17) 0.8559(2)
H17_2 H 0.5530 0.5179 0.8002
C27_2 C 0.6636(3) 0.48514(14) 0.9792(2)
loop_
_geom_bond_atom_site_label_1
_geom_bond_atom_site_label_2
_geom_bond_site_symmetry_1
_geom_bond_site_symmetry_2
N6 H13 1_555 1_555
N7 C29 1_555 1_555
C29 C28 1_555 1_555
H18 C29 1_555 1_555
H19 C29 1_555 1_555
C30 N7 1_555 1_555
H20 C30 1_555 1_555
N6 C28 1_555 1_555
O1 C1 1_555 1_555
C1 C3 1_555 1_555
C5 C3 1_555 1_555
H2 C5 1_555 1_555
O7 C18 1_555 1_555
O8 C18 1_555 1_555
C18 C20 1_555 1_555
C20 C5 1_555 1_555
Zn3 O7 1_555 1_555
O3 C2 1_555 1_555
O4 C2 1_555 1_555
C2 C4 1_555 1_555
C4 C21 1_555 1_555
O5 C17 1_555 1_555
C17 C19 1_555 1_555
C21 C19 1_555 1_555
H12 C21 1_555 1_555
Zn5 O3 1_555 1_555
N5 Zn5 1_555 1_555
C22 N5 1_555 1_555
C23 C22 1_555 1_555
H14 C23 1_555 1_555
C24 C23 1_555 1_555
H15 C24 1_555 1_555
C25 C24 1_555 1_555
H16 C25 1_555 1_555
C26 C25 1_555 1_555
N10 Zn5 1_555 1_555
C22 C27 1_555 1_555
C26 C27 1_555 1_555
C15 N4 1_555 1_555
H10 C15 1_555 1_555
H11 C16 1_555 1_555
Zn4 N4 1_555 1_555
C15 C16 1_555 1_555
C31 N8 1_555 1_555
H21 C31 1_555 1_555
H22 C32 1_555 1_555
Zn6 N8 1_555 1_555
C31 C32 1_555 1_555
N1 Zn3 1_555 1_555
C6 N1 1_555 1_555
C7 C6 1_555 1_555
H3 C7 1_555 1_555
C8 C7 1_555 1_555
H4 C8 1_555 1_555
C9 C8 1_555 1_555
H5 C9 1_555 1_555
C10 C9 1_555 1_555
N9 Zn3 1_555 1_555
C6 C11 1_555 1_555
C10 C11 1_555 1_555
N2 H1 1_555 1_555
N3 C13 1_555 1_555
C13 C12 1_555 1_555
H7 C13 1_555 1_555
H8 C13 1_555 1_555
C14 N3 1_555 1_555
H9 C14 1_555 1_555
N2 C12 1_555 1_555
N1_2 Zn4 1_555 1_555
N2_2 H1_2 1_555 1_555
N3_2 C13_2 1_555 1_555
C6_2 N1_2 1_555 1_555
C7_2 C6_2 1_555 1_555
H3_2 C7_2 1_555 1_555
C12_2 N1_2 1_555 1_555
C13_2 C12_2 1_555 1_555
H7_2 C13_2 1_555 1_555
H8_2 C13_2 1_555 1_555
C14_2 N3_2 1_555 1_555
H9_2 C14_2 1_555 1_555
C31_2 N10 1_555 1_555
H21_2 C31_2 1_555 1_555
H22_2 C32_2 1_555 1_555
O10 Zn4 1_555 1_555
N2_2 C12_2 1_555 1_555
C31_2 C32_2 1_555 1_555
O1_2 C1_2 1_555 1_555
O2_2 C1_2 1_555 1_555
O3_2 C2_2 1_555 1_555
O4_2 C2_2 1_555 1_555
C1_2 C3_2 1_555 1_555
C2_2 C4_2 1_555 1_555
C3_2 C4_2 1_555 1_555
C4_2 C21_2 1_555 1_555
C5_2 C3_2 1_555 1_555
H2_2 C5_2 1_555 1_555
C15_2 N9 1_555 1_555
H10_2 C15_2 1_555 1_555
H11_2 C16_2 1_555 1_555
O9 C17_2 1_555 1_555
O6_2 C17_2 1_555 1_555
O10 C18_2 1_555 1_555
O8_2 C18_2 1_555 1_555
C17_2 C19_2 1_555 1_555
C18_2 C20_2 1_555 1_555
C19_2 C20_2 1_555 1_555
C20_2 C5_2 1_555 1_555
C21_2 C19_2 1_555 1_555
H12_2 C21_2 1_555 1_555
Zn6 O3_2 1_555 1_555
N5_2 Zn6 1_555 1_555
N6_2 H13_2 1_555 1_555
N7_2 C29_2 1_555 1_555
C22_2 N5_2 1_555 1_555
C23_2 C22_2 1_555 1_555
H14_2 C23_2 1_555 1_555
C28_2 N5_2 1_555 1_555
C29_2 C28_2 1_555 1_555
H18_2 C29_2 1_555 1_555
H19_2 C29_2 1_555 1_555
C30_2 N7_2 1_555 1_555
H20_2 C30_2 1_555 1_555
C15_2 C16_2 1_555 1_555
N6_2 C28_2 1_555 1_555
H4_2 C8_2 1_555 1_555
C9_2 C8_2 1_555 1_555
H5_2 C9_2 1_555 1_555
C10_2 C9_2 1_555 1_555
H6_2 C10_2 1_555 1_555
C10_2 C11_2 1_555 1_555
H15_2 C24_2 1_555 1_555
C25_2 C24_2 1_555 1_555
H16_2 C25_2 1_555 1_555
C26_2 C25_2 1_555 1_555
H17_2 C26_2 1_555 1_555
C26_2 C27_2 1_555 1_555

#END
