
###############################################################################
#
# This file contains modified crystal structure data generated from the
# MOF subset of the Cambridge Structural Database (CSD) v543 
# hosted by the Cambridge Crystallographic Data Centre (CCDC).
#
# This work is licensed under the Creative Commons
# Attribution-NonCommercial-ShareAlike 4.0 International License.
# To view a copy of this license, visit
# http://creativecommons.org/licenses/by-nc-sa/4.0/
# or send a letter to
# Creative Commons, PO Box 1866, Mountain View, CA 94042, USA.
#
# CIF created using the CSD Python API on 29 September 2022
# The structure has been converted into the P1 space group
# The structure has a 3D framework
# The original CSD entry LOLVEQ05 is in the trigonal crystal system
# The framework has been calculated to contain at least 10.0% void space
# The void calculation uses a probe of radius 1.32A, grid spacing 0.4
# The framework is charged, counterions have been retained in the structure
#
###############################################################################

data_LOLVEQ05
_chemical_formula_moiety         '(C12 H12 Mg13 O24 2-)n'
_symmetry_cell_setting           triclinic
_symmetry_space_group_name_H-M   'P 1'
_symmetry_Int_Tables_number      1
_space_group_name_Hall           'P 1'
loop_
_symmetry_equiv_pos_site_id
_symmetry_equiv_pos_as_xyz
1 x,y,z
_cell_length_a                   8.1906(3)
_cell_length_b                   8.1906(3)
_cell_length_c                   15.4952(7)
_cell_angle_alpha                90
_cell_angle_beta                 90
_cell_angle_gamma                120
_cell_volume                     900.242
loop_
_atom_site_label
_atom_site_type_symbol
_atom_site_fract_x
_atom_site_fract_y
_atom_site_fract_z
Mg1 Mg 0.0000 0.0000 0.0000
O1 O 0.20460(18) 0.21882(18) 0.07702(8)
C1 C 0.1968(3) 0.3203(3) 0.13295(11)
O2 O 0.32675(18) 0.45578(17) 0.17012(8)
H1 H 0.0761 0.2910 0.1496
Mg2 Mg 0.3333 0.6667 0.2500
O13 O 0.12903(25) 0.45578(17) 0.32988(8)
O14 O 0.54422(17) 0.87097(25) 0.17012(8)
O15 O 0.12903(25) 0.67325(18) 0.17012(8)
O16 O 0.54422(17) 0.67325(18) 0.32988(8)
O17 O 0.32675(18) 0.87097(25) 0.32988(8)
Mg1_2 Mg 0.0000 -0.0000 1.0000
O7 O 0.21882(18) 0.01422(25) 0.92298(8)
C6 C 0.3203(3) 0.1235(4) 0.86705(11)
O12 O 0.45578(17) 0.12903(25) 0.82988(8)
H6 H 0.2910 0.2149 0.8504
Mg7 Mg 0.6667 0.3333 0.7500
Mg1_3 Mg 0.0000 1.0000 0.0000
O4 O 0.01422(25) 0.79540(18) 0.07702(8)
C3 C 0.1235(4) 0.8032(3) 0.13295(11)
H3 H 0.2149 0.9239 0.1496
Mg1_4 Mg 1.0000 -0.0000 1.0000
O6 O 0.98578(25) 0.20460(18) 0.92298(8)
C5 C 0.8765(4) 0.1968(3) 0.86705(11)
O11 O 0.87097(25) 0.32675(18) 0.82988(8)
H5 H 0.7851 0.0761 0.8504
Mg1_5 Mg 1.0000 1.0000 0.0000
O3 O 0.78118(18) 0.98578(25) 0.07702(8)
C2 C 0.6797(3) 0.8765(4) 0.13295(11)
H2 H 0.7090 0.7851 0.1496
Mg1_6 Mg 1.0000 1.0000 1.0000
O5 O 0.79540(18) 0.78118(18) 0.92298(8)
C4 C 0.8032(3) 0.6797(3) 0.86705(11)
O10 O 0.67325(18) 0.54422(17) 0.82988(8)
H4 H 0.9239 0.7090 0.8504
Mg1_7 Mg 0.0000 -0.0000 0.5000
O3_2 O 0.01422(25) 0.21882(18) 0.42298(8)
O5_2 O 0.21882(18) 0.20460(18) 0.57702(8)
C2_2 C 0.1235(4) 0.3203(3) 0.36705(11)
C4_2 C 0.3203(3) 0.1968(3) 0.63295(11)
H2_2 H 0.2149 0.2910 0.3504
O10_2 O 0.45578(17) 0.32675(18) 0.67012(8)
H4_2 H 0.2910 0.0761 0.6496
Mg1_8 Mg 0.0000 1.0000 0.5000
O4_2 O 0.20460(18) 0.98578(25) 0.42298(8)
C3_2 C 0.1968(3) 0.8765(4) 0.36705(11)
H3_2 H 0.0761 0.7851 0.3504
Mg1_9 Mg 1.0000 -0.0000 0.5000
O6_2 O 0.79540(18) 0.01422(25) 0.57702(8)
C5_2 C 0.8032(3) 0.1235(4) 0.63295(11)
O11_2 O 0.67325(18) 0.12903(25) 0.67012(8)
H5_2 H 0.9239 0.2149 0.6496
Mg1_10 Mg 1.0000 1.0000 0.5000
O1_2 O 0.78118(18) 0.79540(18) 0.42298(8)
C1_2 C 0.6797(3) 0.8032(3) 0.36705(11)
H1_2 H 0.7090 0.9239 0.3504
O7_2 O 0.98578(25) 0.78118(18) 0.57702(8)
C6_2 C 0.8765(4) 0.6797(3) 0.63295(11)
O12_2 O 0.87097(25) 0.54422(17) 0.67012(8)
H6_2 H 0.7851 0.7090 0.6496
Mg1_11 Mg 0.0000 1.0000 1.0000
Mg1_12 Mg 1.0000 0.0000 0.0000
loop_
_geom_bond_atom_site_label_1
_geom_bond_atom_site_label_2
_geom_bond_site_symmetry_1
_geom_bond_site_symmetry_2
Mg1 O1 1_555 1_555
O1 C1 1_555 1_555
C1 O2 1_555 1_555
O2 Mg2 1_555 1_555
H1 C1 1_555 1_555
Mg2 O13 1_555 1_555
O14 Mg2 1_555 1_555
O15 Mg2 1_555 1_555
O16 Mg2 1_555 1_555
O17 Mg2 1_555 1_555
O7 Mg1_2 1_555 1_555
C6 O7 1_555 1_555
O12 C6 1_555 1_555
H6 C6 1_555 1_555
Mg7 O12 1_555 1_555
O4 Mg1_3 1_555 1_555
C3 O4 1_555 1_555
O15 C3 1_555 1_555
H3 C3 1_555 1_555
O6 Mg1_4 1_555 1_555
C5 O6 1_555 1_555
O11 C5 1_555 1_555
H5 C5 1_555 1_555
Mg7 O11 1_555 1_555
O3 Mg1_5 1_555 1_555
C2 O3 1_555 1_555
O14 C2 1_555 1_555
H2 C2 1_555 1_555
O5 Mg1_6 1_555 1_555
C4 O5 1_555 1_555
O10 C4 1_555 1_555
H4 C4 1_555 1_555
Mg7 O10 1_555 1_555
O3_2 Mg1_7 1_555 1_555
O5_2 Mg1_7 1_555 1_555
C2_2 O3_2 1_555 1_555
C4_2 O5_2 1_555 1_555
O13 C2_2 1_555 1_555
H2_2 C2_2 1_555 1_555
O10_2 C4_2 1_555 1_555
H4_2 C4_2 1_555 1_555
Mg7 O10_2 1_555 1_555
O4_2 Mg1_8 1_555 1_555
C3_2 O4_2 1_555 1_555
O17 C3_2 1_555 1_555
H3_2 C3_2 1_555 1_555
O6_2 Mg1_9 1_555 1_555
C5_2 O6_2 1_555 1_555
O11_2 C5_2 1_555 1_555
H5_2 C5_2 1_555 1_555
Mg7 O11_2 1_555 1_555
Mg1_10 O1_2 1_555 1_555
O1_2 C1_2 1_555 1_555
C1_2 O16 1_555 1_555
H1_2 C1_2 1_555 1_555
O7_2 Mg1_10 1_555 1_555
C6_2 O7_2 1_555 1_555
O12_2 C6_2 1_555 1_555
H6_2 C6_2 1_555 1_555
Mg7 O12_2 1_555 1_555

#END
