
###############################################################################
#
# This file contains modified crystal structure data generated from the
# MOF subset of the Cambridge Structural Database (CSD) v543 
# hosted by the Cambridge Crystallographic Data Centre (CCDC).
#
# This work is licensed under the Creative Commons
# Attribution-NonCommercial-ShareAlike 4.0 International License.
# To view a copy of this license, visit
# http://creativecommons.org/licenses/by-nc-sa/4.0/
# or send a letter to
# Creative Commons, PO Box 1866, Mountain View, CA 94042, USA.
#
# CIF created using the CSD Python API on 29 September 2022
# The structure has been converted into the P1 space group
# The structure has a 3D framework
# The original CSD entry LOLVEQ06 is in the trigonal crystal system
# The framework has been calculated to contain at least 10.0% void space
# The void calculation uses a probe of radius 1.32A, grid spacing 0.4
# The framework is charged, counterions have been retained in the structure
#
###############################################################################

data_LOLVEQ06
_chemical_formula_moiety         '(C12 H12 Mg13 O24 2-)n'
_symmetry_cell_setting           triclinic
_symmetry_space_group_name_H-M   'P 1'
_symmetry_Int_Tables_number      1
_space_group_name_Hall           'P 1'
loop_
_symmetry_equiv_pos_site_id
_symmetry_equiv_pos_as_xyz
1 x,y,z
_cell_length_a                   8.1239(3)
_cell_length_b                   8.1239(3)
_cell_length_c                   15.5938(6)
_cell_angle_alpha                90
_cell_angle_beta                 90
_cell_angle_gamma                120
_cell_volume                     891.275
loop_
_atom_site_label
_atom_site_type_symbol
_atom_site_fract_x
_atom_site_fract_y
_atom_site_fract_z
Mg1 Mg 0.0000 0.0000 0.0000
O1 O 0.20713(14) 0.21891(14) 0.07667(6)
C1 C 0.1966(2) 0.3189(2) 0.13360(9)
O2 O 0.32911(14) 0.45618(14) 0.17055(6)
H1 H 0.0747 0.2873 0.1508
Mg2 Mg 0.3333 0.6667 0.2500
O13 O 0.12707(20) 0.45618(14) 0.32945(6)
O14 O 0.54382(14) 0.87293(20) 0.17055(6)
O15 O 0.12707(20) 0.67089(14) 0.17055(6)
O16 O 0.54382(14) 0.67089(14) 0.32945(6)
O17 O 0.32911(14) 0.87293(20) 0.32945(6)
Mg1_2 Mg 0.0000 0.0000 1.0000
O7 O 0.21891(14) 0.01178(20) 0.92333(6)
C6 C 0.3189(2) 0.1223(3) 0.86640(9)
O12 O 0.45618(14) 0.12707(20) 0.82945(6)
H6 H 0.2873 0.2126 0.8492
Mg7 Mg 0.6667 0.3333 0.7500
Mg1_3 Mg 0.0000 1.0000 0.0000
O4 O 0.01178(20) 0.79287(14) 0.07667(6)
C3 C 0.1223(3) 0.8034(2) 0.13360(9)
H3 H 0.2126 0.9253 0.1508
Mg1_4 Mg 1.0000 0.0000 1.0000
O6 O 0.98822(20) 0.20713(14) 0.92333(6)
C5 C 0.8777(3) 0.1966(2) 0.86640(9)
O11 O 0.87293(20) 0.32911(14) 0.82945(6)
H5 H 0.7874 0.0747 0.8492
Mg1_5 Mg 1.0000 1.0000 0.0000
O3 O 0.78109(14) 0.98822(20) 0.07667(6)
C2 C 0.6811(2) 0.8777(3) 0.13360(9)
H2 H 0.7127 0.7874 0.1508
Mg1_6 Mg 1.0000 1.0000 1.0000
O5 O 0.79287(14) 0.78109(14) 0.92333(6)
C4 C 0.8034(2) 0.6811(2) 0.86640(9)
O10 O 0.67089(14) 0.54382(14) 0.82945(6)
H4 H 0.9253 0.7127 0.8492
Mg1_7 Mg 0.0000 0.0000 0.5000
O3_2 O 0.01178(20) 0.21891(14) 0.42333(6)
O5_2 O 0.21891(14) 0.20713(14) 0.57667(6)
C2_2 C 0.1223(3) 0.3189(2) 0.36640(9)
C4_2 C 0.3189(2) 0.1966(2) 0.63360(9)
H2_2 H 0.2126 0.2873 0.3492
O10_2 O 0.45618(14) 0.32911(14) 0.67055(6)
H4_2 H 0.2873 0.0747 0.6508
Mg1_8 Mg 0.0000 1.0000 0.5000
O4_2 O 0.20713(14) 0.98822(20) 0.42333(6)
C3_2 C 0.1966(2) 0.8777(3) 0.36640(9)
H3_2 H 0.0747 0.7874 0.3492
Mg1_9 Mg 1.0000 0.0000 0.5000
O6_2 O 0.79287(14) 0.01178(20) 0.57667(6)
C5_2 C 0.8034(2) 0.1223(3) 0.63360(9)
O11_2 O 0.67089(14) 0.12707(20) 0.67055(6)
H5_2 H 0.9253 0.2126 0.6508
Mg1_10 Mg 1.0000 1.0000 0.5000
O1_2 O 0.78109(14) 0.79287(14) 0.42333(6)
C1_2 C 0.6811(2) 0.8034(2) 0.36640(9)
H1_2 H 0.7127 0.9253 0.3492
O7_2 O 0.98822(20) 0.78109(14) 0.57667(6)
C6_2 C 0.8777(3) 0.6811(2) 0.63360(9)
O12_2 O 0.87293(20) 0.54382(14) 0.67055(6)
H6_2 H 0.7874 0.7127 0.6508
Mg1_11 Mg 0.0000 1.0000 1.0000
Mg1_12 Mg 1.0000 0.0000 0.0000
loop_
_geom_bond_atom_site_label_1
_geom_bond_atom_site_label_2
_geom_bond_site_symmetry_1
_geom_bond_site_symmetry_2
Mg1 O1 1_555 1_555
O1 C1 1_555 1_555
C1 O2 1_555 1_555
O2 Mg2 1_555 1_555
H1 C1 1_555 1_555
Mg2 O13 1_555 1_555
O14 Mg2 1_555 1_555
O15 Mg2 1_555 1_555
O16 Mg2 1_555 1_555
O17 Mg2 1_555 1_555
O7 Mg1_2 1_555 1_555
C6 O7 1_555 1_555
O12 C6 1_555 1_555
H6 C6 1_555 1_555
Mg7 O12 1_555 1_555
O4 Mg1_3 1_555 1_555
C3 O4 1_555 1_555
O15 C3 1_555 1_555
H3 C3 1_555 1_555
O6 Mg1_4 1_555 1_555
C5 O6 1_555 1_555
O11 C5 1_555 1_555
H5 C5 1_555 1_555
Mg7 O11 1_555 1_555
O3 Mg1_5 1_555 1_555
C2 O3 1_555 1_555
O14 C2 1_555 1_555
H2 C2 1_555 1_555
O5 Mg1_6 1_555 1_555
C4 O5 1_555 1_555
O10 C4 1_555 1_555
H4 C4 1_555 1_555
Mg7 O10 1_555 1_555
O3_2 Mg1_7 1_555 1_555
O5_2 Mg1_7 1_555 1_555
C2_2 O3_2 1_555 1_555
C4_2 O5_2 1_555 1_555
O13 C2_2 1_555 1_555
H2_2 C2_2 1_555 1_555
O10_2 C4_2 1_555 1_555
H4_2 C4_2 1_555 1_555
Mg7 O10_2 1_555 1_555
O4_2 Mg1_8 1_555 1_555
C3_2 O4_2 1_555 1_555
O17 C3_2 1_555 1_555
H3_2 C3_2 1_555 1_555
O6_2 Mg1_9 1_555 1_555
C5_2 O6_2 1_555 1_555
O11_2 C5_2 1_555 1_555
H5_2 C5_2 1_555 1_555
Mg7 O11_2 1_555 1_555
Mg1_10 O1_2 1_555 1_555
O1_2 C1_2 1_555 1_555
C1_2 O16 1_555 1_555
H1_2 C1_2 1_555 1_555
O7_2 Mg1_10 1_555 1_555
C6_2 O7_2 1_555 1_555
O12_2 C6_2 1_555 1_555
H6_2 C6_2 1_555 1_555
Mg7 O12_2 1_555 1_555

#END
