
###############################################################################
#
# This file contains modified crystal structure data generated from the
# MOF subset of the Cambridge Structural Database (CSD) v543 
# hosted by the Cambridge Crystallographic Data Centre (CCDC).
#
# This work is licensed under the Creative Commons
# Attribution-NonCommercial-ShareAlike 4.0 International License.
# To view a copy of this license, visit
# http://creativecommons.org/licenses/by-nc-sa/4.0/
# or send a letter to
# Creative Commons, PO Box 1866, Mountain View, CA 94042, USA.
#
# CIF created using the CSD Python API on 29 September 2022
# The structure has been converted into the P1 space group
# The structure has a 3D framework
# The original CSD entry LOLVAJ is in the tetragonal crystal system
# The framework has been calculated to contain at least 10.0% void space
# The void calculation uses a probe of radius 1.32A, grid spacing 0.4
#
###############################################################################

data_LOLVAJ
_chemical_formula_moiety         '(C320 H256 Br32 Cu29 N64 Se64)n'
_symmetry_cell_setting           triclinic
_symmetry_space_group_name_H-M   'P 1'
_symmetry_Int_Tables_number      1
_space_group_name_Hall           'P 1'
loop_
_symmetry_equiv_pos_site_id
_symmetry_equiv_pos_as_xyz
1 x,y,z
_cell_length_a                   21.858(3)
_cell_length_b                   21.858(3)
_cell_length_c                   25.131(7)
_cell_angle_alpha                90
_cell_angle_beta                 90
_cell_angle_gamma                90
_cell_volume                     12006.9
loop_
_atom_site_label
_atom_site_type_symbol
_atom_site_fract_x
_atom_site_fract_y
_atom_site_fract_z
Br2 Br 0.08039(4) 0.04768(4) 0.48768(4)
Cu1 Cu 0.02536(5) 0.94152(5) 0.47572(4)
Se2 Se 0.13698(4) 0.94871(5) 0.40152(4)
N1 N 0.0672(3) 0.8856(3) 0.5283(3)
C1 C 0.0531(4) 0.8260(4) 0.5297(4)
C2 C 0.0768(4) 0.7861(4) 0.5675(4)
H1 H 0.0661 0.7440 0.5671
C3 C 0.1162(5) 0.8091(4) 0.6057(4)
H2 H 0.1334 0.7829 0.6319
C4 C 0.1301(4) 0.8712(5) 0.6049(4)
H3 H 0.1570 0.8882 0.6307
C5 C 0.1049(4) 0.9070(4) 0.5671(3)
H4 H 0.1140 0.9495 0.5676
N2 N 0.0117(3) 0.9357(3) 0.3954(3)
C6 C 0.0611(4) 0.9390(4) 0.3646(4)
C7 C 0.0542(6) 0.9354(5) 0.3107(4)
H5 H 0.0889 0.9380 0.2881
Se3 Se 0.00367(5) 0.69688(4) 0.47466(4)
Se4 Se 0.19871(5) 0.88698(4) 0.34848(4)
C16 C 0.1890(4) 0.8111(4) 0.3854(4)
N4 N 0.1857(3) 0.7617(3) 0.3546(3)
C17 C 0.1782(4) 0.7063(4) 0.3752(4)
C18 C 0.1741(5) 0.6975(5) 0.4297(4)
C19 C 0.1781(5) 0.7466(7) 0.4609(4)
C20 C 0.1854(5) 0.8042(6) 0.4393(4)
H13 H 0.1880 0.8389 0.4619
H14 H 0.1758 0.7419 0.4984
H15 H 0.1688 0.6578 0.4443
H16 H 0.1755 0.6719 0.3522
Cu4 Cu 0.19152(5) 0.77536(5) 0.27428(4)
Cu2 Cu 0.97464(5) 0.05848(5) 0.52428(4)
N5 N 0.9328(3) 0.1144(3) 0.4717(3)
N6 N 0.9883(3) 0.0643(3) 0.6046(3)
Br1 Br 0.91961(4) 0.95232(4) 0.51232(4)
Se1 Se 0.99633(5) 0.80312(4) 0.47466(4)
C8 C 0.9966(7) 0.9281(5) 0.2891(4)
H6 H 0.9919 0.9258 0.2516
C9 C 0.9475(5) 0.9241(5) 0.3203(4)
H7 H 0.9078 0.9188 0.3057
C10 C 0.9563(4) 0.9282(4) 0.3748(4)
H8 H 0.9219 0.9255 0.3978
C11 C 0.9469(4) 0.6740(4) 0.5297(4)
N3 N 0.9328(3) 0.6144(3) 0.5283(3)
C12 C 0.8951(4) 0.5930(4) 0.5671(3)
C13 C 0.8699(4) 0.6288(5) 0.6049(4)
C14 C 0.8838(5) 0.6909(4) 0.6057(4)
C15 C 0.9232(4) 0.7139(4) 0.5675(4)
H9 H 0.9339 0.7560 0.5671
H10 H 0.8666 0.7171 0.6319
H11 H 0.8430 0.6118 0.6307
H12 H 0.8860 0.5505 0.5676
Cu3 Cu 0.97464(5) 0.55848(5) 0.47572(4)
Br1_2 Br 0.20232(4) 0.66961(4) 0.23768(4)
Se1_2 Se 0.05312(4) 0.74633(5) 0.27534(4)
N1_2 N 0.1356(3) 0.8172(3) 0.2217(3)
C1_2 C 0.0760(4) 0.8031(4) 0.2203(4)
C2_2 C 0.0361(4) 0.8268(4) 0.1825(4)
C3_2 C 0.0591(4) 0.8662(5) 0.1443(4)
H2_2 H 0.0329 0.8834 0.1181
C4_2 C 0.1212(5) 0.8801(4) 0.1451(4)
H3_2 H 0.1382 0.9070 0.1193
C5_2 C 0.1570(4) 0.8549(4) 0.1829(3)
H4_2 H 0.1995 0.8640 0.1824
H9_2 H 0.0060 0.6839 0.1829
Br2_2 Br 0.29768(4) 0.83039(4) 0.26232(4)
Cu2_2 Cu 0.30848(5) 0.72464(5) 0.22572(4)
N5_2 N 0.3644(3) 0.6828(3) 0.2783(3)
N6_2 N 0.3143(3) 0.7383(3) 0.1454(3)
H1_2 H 0.9940 0.8161 0.1829
Se3_2 Se 0.94688(4) 0.75367(5) 0.27534(4)
C11_2 C 0.9240(4) 0.6969(4) 0.2203(4)
N3_2 N 0.8644(3) 0.6828(3) 0.2217(3)
C12_2 C 0.8430(4) 0.6451(4) 0.1829(3)
C13_2 C 0.8788(5) 0.6199(4) 0.1451(4)
C14_2 C 0.9409(4) 0.6338(5) 0.1443(4)
C15_2 C 0.9639(4) 0.6732(4) 0.1825(4)
H10_2 H 0.9671 0.6166 0.1181
H11_2 H 0.8618 0.5930 0.1193
H12_2 H 0.8005 0.6360 0.1824
Cu3_2 Cu 0.80848(5) 0.72464(5) 0.27428(4)
Cu1_2 Cu 0.30848(5) 0.22464(5) 0.77428(4)
Br1_3 Br 0.29768(4) 0.33039(4) 0.73768(4)
Se1_3 Se 0.44688(4) 0.25367(5) 0.77534(4)
Se2_2 Se 0.30129(5) 0.11302(4) 0.84848(4)
N1_3 N 0.3644(3) 0.1828(3) 0.7217(3)
C1_3 C 0.4240(4) 0.1969(4) 0.7203(4)
C2_3 C 0.4639(4) 0.1732(4) 0.6825(4)
H1_3 H 0.5060 0.1839 0.6829
C3_3 C 0.4409(4) 0.1338(5) 0.6443(4)
H2_3 H 0.4671 0.1166 0.6181
C4_3 C 0.3788(5) 0.1199(4) 0.6451(4)
H3_3 H 0.3618 0.0930 0.6193
C5_3 C 0.3430(4) 0.1451(4) 0.6829(3)
H4_3 H 0.3005 0.1360 0.6824
N2_2 N 0.3143(3) 0.2383(3) 0.8546(3)
C6_2 C 0.3110(4) 0.1889(4) 0.8854(4)
C7_2 C 0.3146(5) 0.1958(6) 0.9393(4)
H5_2 H 0.3120 0.1611 0.9619
C8_2 C 0.3219(5) 0.2534(7) 0.9609(4)
H6_2 H 0.3242 0.2581 0.9984
C9_2 C 0.3259(5) 0.3025(5) 0.9297(4)
H7_2 H 0.3312 0.3422 0.9443
C10_2 C 0.3218(4) 0.2937(4) 0.8752(4)
H8_2 H 0.3245 0.3281 0.8522
Se3_3 Se 0.55312(4) 0.24633(5) 0.77534(4)
C11_3 C 0.5760(4) 0.3031(4) 0.7203(4)
N3_3 N 0.6356(3) 0.3172(3) 0.7217(3)
C12_3 C 0.6570(4) 0.3549(4) 0.6829(3)
C13_3 C 0.6212(5) 0.3801(4) 0.6451(4)
C14_3 C 0.5591(4) 0.3662(5) 0.6443(4)
C15_3 C 0.5361(4) 0.3268(4) 0.6825(4)
H9_3 H 0.4940 0.3161 0.6829
H10_3 H 0.5329 0.3834 0.6181
H11_3 H 0.6382 0.4070 0.6193
H12_3 H 0.6995 0.3640 0.6824
Se4_2 Se 0.36302(4) 0.05129(5) 0.90152(4)
C16_2 C 0.4389(4) 0.0610(4) 0.8646(4)
N4_2 N 0.4883(3) 0.0643(3) 0.8954(3)
C17_2 C 0.5437(4) 0.0718(4) 0.8748(4)
C18_2 C 0.5525(5) 0.0759(5) 0.8203(4)
C19_2 C 0.5034(7) 0.0719(5) 0.7891(4)
C20_2 C 0.4458(6) 0.0646(5) 0.8107(4)
H13_2 H 0.4111 0.0620 0.7881
H14_2 H 0.5081 0.0742 0.7516
H15_2 H 0.5922 0.0812 0.8057
H16_2 H 0.5781 0.0745 0.8978
Br2_3 Br 0.20232(4) 0.16961(4) 0.76232(4)
Cu2_3 Cu 0.19152(5) 0.27536(5) 0.72572(4)
Cu3_3 Cu 0.69152(5) 0.27536(5) 0.77428(4)
Cu4_2 Cu 0.47464(5) 0.05848(5) 0.97572(4)
N5_3 N 0.1356(3) 0.3172(3) 0.7783(3)
N6_3 N 0.1857(3) 0.2617(3) 0.6454(3)
Br1_4 Br 0.41961(4) 0.45232(4) 0.01232(4)
N1_4 N 0.5672(3) 0.3856(3) 0.0283(3)
C1_4 C 0.5531(4) 0.3260(4) 0.0297(4)
C2_4 C 0.5768(4) 0.2861(4) 0.0675(4)
H1_4 H 0.5661 0.2440 0.0671
C3_4 C 0.6162(5) 0.3091(4) 0.1057(4)
H2_4 H 0.6334 0.2829 0.1319
C4_4 C 0.6301(4) 0.3712(5) 0.1049(4)
H3_4 H 0.6570 0.3882 0.1307
C5_4 C 0.6049(4) 0.4070(4) 0.0671(3)
H4_4 H 0.6140 0.4495 0.0676
C11_4 C 0.4469(4) 0.1740(4) 0.0297(4)
N3_4 N 0.4328(3) 0.1144(3) 0.0283(3)
C12_4 C 0.3951(4) 0.0930(4) 0.0671(3)
C13_4 C 0.3699(4) 0.1288(5) 0.1049(4)
C14_4 C 0.3838(5) 0.1909(4) 0.1057(4)
C15_4 C 0.4232(4) 0.2139(4) 0.0675(4)
H9_4 H 0.4339 0.2560 0.0671
H10_4 H 0.3666 0.2171 0.1319
H11_4 H 0.3430 0.1118 0.1307
H12_4 H 0.3860 0.0505 0.0676
Cu2_4 Cu 0.47464(5) 0.55848(5) 0.02428(4)
N6_4 N 0.4883(3) 0.5643(3) 0.1046(3)
Cu1_3 Cu 0.52536(5) 0.44152(5) 0.97572(4)
Se1_4 Se 0.49633(5) 0.30312(4) 0.97466(4)
Se2_3 Se 0.63698(4) 0.44871(5) 0.90152(4)
N2_3 N 0.5117(3) 0.4357(3) 0.8954(3)
C6_3 C 0.5611(4) 0.4390(4) 0.8646(4)
C7_3 C 0.5542(6) 0.4354(5) 0.8107(4)
H5_3 H 0.5889 0.4380 0.7881
C8_3 C 0.4966(7) 0.4281(5) 0.7891(4)
H6_3 H 0.4919 0.4258 0.7516
C9_3 C 0.4475(5) 0.4241(5) 0.8203(4)
H7_3 H 0.4078 0.4188 0.8057
C10_3 C 0.4563(4) 0.4282(4) 0.8748(4)
H8_3 H 0.4219 0.4255 0.8978
Se3_4 Se 0.50367(5) 0.19688(4) 0.97466(4)
Se4_3 Se 0.69871(5) 0.38698(4) 0.84848(4)
C16_3 C 0.6890(4) 0.3111(4) 0.8854(4)
N4_3 N 0.6857(3) 0.2617(3) 0.8546(3)
C17_3 C 0.6782(4) 0.2063(4) 0.8752(4)
C18_3 C 0.6741(5) 0.1975(5) 0.9297(4)
C19_3 C 0.6781(5) 0.2466(7) 0.9609(4)
C20_3 C 0.6854(5) 0.3042(6) 0.9393(4)
H13_3 H 0.6880 0.3389 0.9619
H14_3 H 0.6758 0.2419 0.9984
H15_3 H 0.6688 0.1578 0.9443
H16_3 H 0.6755 0.1719 0.8522
Br2_4 Br 0.58039(4) 0.54768(4) 0.98768(4)
N5_4 N 0.4328(3) 0.6144(3) 0.9717(3)
Br1_5 Br 0.70232(4) 0.16961(4) 0.73768(4)
Br2_5 Br 0.79768(4) 0.33039(4) 0.76232(4)
Cu2_5 Cu 0.80848(5) 0.22464(5) 0.72572(4)
N5_5 N 0.8644(3) 0.1828(3) 0.7783(3)
N6_5 N 0.8143(3) 0.2383(3) 0.6454(3)
Br2_6 Br 0.58039(4) 0.04768(4) 0.01232(4)
Cu1_4 Cu 0.52536(5) 0.94152(5) 0.02428(4)
Se1_5 Se 0.49633(5) 0.80312(4) 0.02534(4)
Se2_4 Se 0.63698(4) 0.94871(5) 0.09848(4)
N2_4 N 0.5117(3) 0.9357(3) 0.1046(3)
C6_4 C 0.5611(4) 0.9390(4) 0.1354(4)
C7_4 C 0.5542(6) 0.9354(5) 0.1893(4)
H5_4 H 0.5889 0.9380 0.2119
C8_4 C 0.4966(7) 0.9281(5) 0.2109(4)
H6_4 H 0.4919 0.9258 0.2484
C9_4 C 0.4475(5) 0.9241(5) 0.1797(4)
H7_4 H 0.4078 0.9188 0.1943
C10_4 C 0.4563(4) 0.9282(4) 0.1252(4)
H8_4 H 0.4219 0.9255 0.1022
Se3_5 Se 0.50367(5) 0.69688(4) 0.02534(4)
Se4_4 Se 0.69871(5) 0.88698(4) 0.15152(4)
C16_4 C 0.6890(4) 0.8111(4) 0.1146(4)
N4_4 N 0.6857(3) 0.7617(3) 0.1454(3)
C17_4 C 0.6782(4) 0.7063(4) 0.1248(4)
C18_4 C 0.6741(5) 0.6975(5) 0.0703(4)
C19_4 C 0.6781(5) 0.7466(7) 0.0391(4)
C20_4 C 0.6854(5) 0.8042(6) 0.0607(4)
H13_4 H 0.6880 0.8389 0.0381
H14_4 H 0.6758 0.7419 0.0016
H15_4 H 0.6688 0.6578 0.0557
H16_4 H 0.6755 0.6719 0.1478
Cu4_3 Cu 0.69152(5) 0.77536(5) 0.22572(4)
Br1_6 Br 0.41961(4) 0.95232(4) 0.98768(4)
N1_5 N 0.5672(3) 0.8856(3) 0.9717(3)
C1_5 C 0.5531(4) 0.8260(4) 0.9703(4)
C2_5 C 0.5768(4) 0.7861(4) 0.9325(4)
H1_5 H 0.5661 0.7440 0.9329
C3_5 C 0.6162(5) 0.8091(4) 0.8943(4)
H2_5 H 0.6334 0.7829 0.8681
C4_5 C 0.6301(4) 0.8712(5) 0.8951(4)
H3_5 H 0.6570 0.8882 0.8693
C5_5 C 0.6049(4) 0.9070(4) 0.9329(3)
H4_5 H 0.6140 0.9495 0.9324
C11_5 C 0.4469(4) 0.6740(4) 0.9703(4)
C12_5 C 0.3951(4) 0.5930(4) 0.9329(3)
C13_5 C 0.3699(4) 0.6288(5) 0.8951(4)
C14_5 C 0.3838(5) 0.6909(4) 0.8943(4)
C15_5 C 0.4232(4) 0.7139(4) 0.9325(4)
H9_5 H 0.4339 0.7560 0.9329
H10_5 H 0.3666 0.7171 0.8681
H11_5 H 0.3430 0.6118 0.8693
H12_5 H 0.3860 0.5505 0.9324
Cu1_5 Cu 0.02536(5) 0.44152(5) 0.52428(4)
Se2_5 Se 0.13698(4) 0.44871(5) 0.59848(4)
N1_6 N 0.0672(3) 0.3856(3) 0.4717(3)
C1_6 C 0.0531(4) 0.3260(4) 0.4703(4)
C2_6 C 0.0768(4) 0.2861(4) 0.4325(4)
H1_6 H 0.0661 0.2440 0.4329
C3_6 C 0.1162(5) 0.3091(4) 0.3943(4)
H2_6 H 0.1334 0.2829 0.3681
C4_6 C 0.1301(4) 0.3712(5) 0.3951(4)
H3_6 H 0.1570 0.3882 0.3693
C5_6 C 0.1049(4) 0.4070(4) 0.4329(3)
H4_6 H 0.1140 0.4495 0.4324
N2_5 N 0.0117(3) 0.4357(3) 0.6046(3)
C6_5 C 0.0611(4) 0.4390(4) 0.6354(4)
C7_5 C 0.0542(6) 0.4354(5) 0.6893(4)
H5_5 H 0.0889 0.4380 0.7119
Se3_6 Se 0.00367(5) 0.19688(4) 0.52534(4)
Se4_5 Se 0.19871(5) 0.38698(4) 0.65152(4)
C16_5 C 0.1890(4) 0.3111(4) 0.6146(4)
C17_5 C 0.1782(4) 0.2063(4) 0.6248(4)
C18_5 C 0.1741(5) 0.1975(5) 0.5703(4)
C19_5 C 0.1781(5) 0.2466(7) 0.5391(4)
C20_5 C 0.1854(5) 0.3042(6) 0.5607(4)
H13_5 H 0.1880 0.3389 0.5381
H14_5 H 0.1758 0.2419 0.5016
H15_5 H 0.1688 0.1578 0.5557
H16_5 H 0.1755 0.1719 0.6478
Br2_7 Br 0.08039(4) 0.54768(4) 0.51232(4)
Br1_7 Br 0.91961(4) 0.45232(4) 0.48768(4)
Se1_6 Se 0.99633(5) 0.30312(4) 0.52534(4)
C8_5 C 0.9966(7) 0.4281(5) 0.7109(4)
H6_5 H 0.9919 0.4258 0.7484
C9_5 C 0.9475(5) 0.4241(5) 0.6797(4)
H7_5 H 0.9078 0.4188 0.6943
C10_5 C 0.9563(4) 0.4282(4) 0.6252(4)
H8_5 H 0.9219 0.4255 0.6022
C11_6 C 0.9469(4) 0.1740(4) 0.4703(4)
C12_6 C 0.8951(4) 0.0930(4) 0.4329(3)
C13_6 C 0.8699(4) 0.1288(5) 0.3951(4)
C14_6 C 0.8838(5) 0.1909(4) 0.3943(4)
C15_6 C 0.9232(4) 0.2139(4) 0.4325(4)
H9_6 H 0.9339 0.2560 0.4329
H10_6 H 0.8666 0.2171 0.3681
H11_6 H 0.8430 0.1118 0.3693
H12_6 H 0.8860 0.0505 0.4324
N6_6 N 0.9883(3) 0.5643(3) 0.3954(3)
Se1_7 Se 0.05312(4) 0.24633(5) 0.72466(4)
C1_7 C 0.0760(4) 0.3031(4) 0.7797(4)
C2_7 C 0.0361(4) 0.3268(4) 0.8175(4)
C3_7 C 0.0591(4) 0.3662(5) 0.8557(4)
H2_7 H 0.0329 0.3834 0.8819
C4_7 C 0.1212(5) 0.3801(4) 0.8549(4)
H3_7 H 0.1382 0.4070 0.8807
C5_7 C 0.1570(4) 0.3549(4) 0.8171(3)
H4_7 H 0.1995 0.3640 0.8176
H9_7 H 0.0060 0.1839 0.8171
H1_7 H 0.9940 0.3161 0.8171
Se3_7 Se 0.94688(4) 0.25367(5) 0.72466(4)
C11_7 C 0.9240(4) 0.1969(4) 0.7797(4)
C12_7 C 0.8430(4) 0.1451(4) 0.8171(3)
C13_7 C 0.8788(5) 0.1199(4) 0.8549(4)
C14_7 C 0.9409(4) 0.1338(5) 0.8557(4)
C15_7 C 0.9639(4) 0.1732(4) 0.8175(4)
H10_7 H 0.9671 0.1166 0.8819
H11_7 H 0.8618 0.0930 0.8807
H12_7 H 0.8005 0.1360 0.8176
C8_6 C 0.0034(7) 0.0719(5) 0.7109(4)
H6_6 H 0.0081 0.0742 0.7484
C9_6 C 0.0525(5) 0.0759(5) 0.6797(4)
H7_6 H 0.0922 0.0812 0.6943
C10_6 C 0.0437(4) 0.0718(4) 0.6252(4)
H8_6 H 0.0781 0.0745 0.6022
Se2_6 Se 0.86302(4) 0.05129(5) 0.59848(4)
C6_6 C 0.9389(4) 0.0610(4) 0.6354(4)
C7_6 C 0.9458(6) 0.0646(5) 0.6893(4)
H5_6 H 0.9111 0.0620 0.7119
Se4_6 Se 0.80129(5) 0.11302(4) 0.65152(4)
C16_6 C 0.8110(4) 0.1889(4) 0.6146(4)
C17_6 C 0.8218(4) 0.2937(4) 0.6248(4)
C18_6 C 0.8259(5) 0.3025(5) 0.5703(4)
C19_6 C 0.8219(5) 0.2534(7) 0.5391(4)
C20_6 C 0.8146(5) 0.1958(6) 0.5607(4)
H13_6 H 0.8120 0.1611 0.5381
H14_6 H 0.8242 0.2581 0.5016
H15_6 H 0.8312 0.3422 0.5557
H16_6 H 0.8245 0.3281 0.6478
Br1_8 Br 0.70232(4) 0.66961(4) 0.26232(4)
Se1_8 Se 0.55312(4) 0.74633(5) 0.22466(4)
N1_7 N 0.6356(3) 0.8172(3) 0.2783(3)
C1_8 C 0.5760(4) 0.8031(4) 0.2797(4)
C2_8 C 0.5361(4) 0.8268(4) 0.3175(4)
H1_8 H 0.4940 0.8161 0.3171
C3_8 C 0.5591(4) 0.8662(5) 0.3557(4)
H2_8 H 0.5329 0.8834 0.3819
C4_8 C 0.6212(5) 0.8801(4) 0.3549(4)
H3_8 H 0.6382 0.9070 0.3807
C5_8 C 0.6570(4) 0.8549(4) 0.3171(3)
H4_8 H 0.6995 0.8640 0.3176
Se3_8 Se 0.44688(4) 0.75367(5) 0.22466(4)
C11_8 C 0.4240(4) 0.6969(4) 0.2797(4)
C12_8 C 0.3430(4) 0.6451(4) 0.3171(3)
C13_8 C 0.3788(5) 0.6199(4) 0.3549(4)
C14_8 C 0.4409(4) 0.6338(5) 0.3557(4)
C15_8 C 0.4639(4) 0.6732(4) 0.3175(4)
H9_8 H 0.5060 0.6839 0.3171
H10_8 H 0.4671 0.6166 0.3819
H11_8 H 0.3618 0.5930 0.3807
H12_8 H 0.3005 0.6360 0.3176
Br2_8 Br 0.79768(4) 0.83039(4) 0.23768(4)
N6_7 N 0.8143(3) 0.7383(3) 0.3546(3)
Se2_7 Se 0.36302(4) 0.55129(5) 0.09848(4)
C6_7 C 0.4389(4) 0.5610(4) 0.1354(4)
C7_7 C 0.4458(6) 0.5646(5) 0.1893(4)
H5_7 H 0.4111 0.5620 0.2119
C8_7 C 0.5034(7) 0.5719(5) 0.2109(4)
H6_7 H 0.5081 0.5742 0.2484
C9_7 C 0.5525(5) 0.5759(5) 0.1797(4)
H7_7 H 0.5922 0.5812 0.1943
C10_7 C 0.5437(4) 0.5718(4) 0.1252(4)
H8_7 H 0.5781 0.5745 0.1022
Se4_7 Se 0.30129(5) 0.61302(4) 0.15152(4)
C16_7 C 0.3110(4) 0.6889(4) 0.1146(4)
C17_7 C 0.3218(4) 0.7937(4) 0.1248(4)
C18_7 C 0.3259(5) 0.8025(5) 0.0703(4)
C19_7 C 0.3219(5) 0.7534(7) 0.0391(4)
C20_7 C 0.3146(5) 0.6958(6) 0.0607(4)
H13_7 H 0.3120 0.6611 0.0381
H14_7 H 0.3242 0.7581 0.0016
H15_7 H 0.3312 0.8422 0.0557
H16_7 H 0.3245 0.8281 0.1478
C8_8 C 0.0034(7) 0.5719(5) 0.2891(4)
H6_8 H 0.0081 0.5742 0.2516
C9_8 C 0.0525(5) 0.5759(5) 0.3203(4)
H7_8 H 0.0922 0.5812 0.3057
C10_8 C 0.0437(4) 0.5718(4) 0.3748(4)
H8_8 H 0.0781 0.5745 0.3978
Se2_8 Se 0.86302(4) 0.55129(5) 0.40152(4)
C6_8 C 0.9389(4) 0.5610(4) 0.3646(4)
C7_8 C 0.9458(6) 0.5646(5) 0.3107(4)
H5_8 H 0.9111 0.5620 0.2881
Se4_8 Se 0.80129(5) 0.61302(4) 0.34848(4)
C16_8 C 0.8110(4) 0.6889(4) 0.3854(4)
C17_8 C 0.8218(4) 0.7937(4) 0.3752(4)
C18_8 C 0.8259(5) 0.8025(5) 0.4297(4)
C19_8 C 0.8219(5) 0.7534(7) 0.4609(4)
C20_8 C 0.8146(5) 0.6958(6) 0.4393(4)
H13_8 H 0.8120 0.6611 0.4619
H14_8 H 0.8242 0.7581 0.4984
H15_8 H 0.8312 0.8422 0.4443
H16_8 H 0.8245 0.8281 0.3522
Cu1_6 Cu 0.30848(5) 0.77536(5) 0.72572(4)
Br1_9 Br 0.29768(4) 0.66961(4) 0.76232(4)
Se1_9 Se 0.44688(4) 0.74633(5) 0.72466(4)
Se2_9 Se 0.30129(5) 0.88698(4) 0.65152(4)
N1_8 N 0.3644(3) 0.8172(3) 0.7783(3)
C1_9 C 0.4240(4) 0.8031(4) 0.7797(4)
C2_9 C 0.4639(4) 0.8268(4) 0.8175(4)
H1_9 H 0.5060 0.8161 0.8171
C3_9 C 0.4409(4) 0.8662(5) 0.8557(4)
H2_9 H 0.4671 0.8834 0.8819
C4_9 C 0.3788(5) 0.8801(4) 0.8549(4)
H3_9 H 0.3618 0.9070 0.8807
C5_9 C 0.3430(4) 0.8549(4) 0.8171(3)
H4_9 H 0.3005 0.8640 0.8176
N2_6 N 0.3143(3) 0.7617(3) 0.6454(3)
C6_9 C 0.3110(4) 0.8111(4) 0.6146(4)
C7_9 C 0.3146(5) 0.8042(6) 0.5607(4)
H5_9 H 0.3120 0.8389 0.5381
C8_9 C 0.3219(5) 0.7466(7) 0.5391(4)
H6_9 H 0.3242 0.7419 0.5016
C9_9 C 0.3259(5) 0.6975(5) 0.5703(4)
H7_9 H 0.3312 0.6578 0.5557
C10_9 C 0.3218(4) 0.7063(4) 0.6248(4)
H8_9 H 0.3245 0.6719 0.6478
Se3_9 Se 0.55312(4) 0.75367(5) 0.72466(4)
C11_9 C 0.5760(4) 0.6969(4) 0.7797(4)
N3_5 N 0.6356(3) 0.6828(3) 0.7783(3)
C12_9 C 0.6570(4) 0.6451(4) 0.8171(3)
C13_9 C 0.6212(5) 0.6199(4) 0.8549(4)
C14_9 C 0.5591(4) 0.6338(5) 0.8557(4)
C15_9 C 0.5361(4) 0.6732(4) 0.8175(4)
H9_9 H 0.4940 0.6839 0.8171
H10_9 H 0.5329 0.6166 0.8819
H11_9 H 0.6382 0.5930 0.8807
H12_9 H 0.6995 0.6360 0.8176
Se4_9 Se 0.36302(4) 0.94871(5) 0.59848(4)
C16_9 C 0.4389(4) 0.9390(4) 0.6354(4)
N4_5 N 0.4883(3) 0.9357(3) 0.6046(3)
C17_9 C 0.5437(4) 0.9282(4) 0.6252(4)
C18_9 C 0.5525(5) 0.9241(5) 0.6797(4)
C19_9 C 0.5034(7) 0.9281(5) 0.7109(4)
C20_9 C 0.4458(6) 0.9354(5) 0.6893(4)
H13_9 H 0.4111 0.9380 0.7119
H14_9 H 0.5081 0.9258 0.7484
H15_9 H 0.5922 0.9188 0.6943
H16_9 H 0.5781 0.9255 0.6022
Br2_9 Br 0.20232(4) 0.83039(4) 0.73768(4)
Cu2_6 Cu 0.19152(5) 0.72464(5) 0.77428(4)
Cu3_4 Cu 0.69152(5) 0.72464(5) 0.72572(4)
Cu4_4 Cu 0.47464(5) 0.94152(5) 0.52428(4)
N5_6 N 0.1356(3) 0.6828(3) 0.7217(3)
N6_8 N 0.1857(3) 0.7383(3) 0.8546(3)
Cu1_7 Cu 0.19152(5) 0.22464(5) 0.22572(4)
Br1_10 Br 0.20232(4) 0.33039(4) 0.26232(4)
Se1_10 Se 0.05312(4) 0.25367(5) 0.22466(4)
Se2_10 Se 0.19871(5) 0.11302(4) 0.15152(4)
N1_9 N 0.1356(3) 0.1828(3) 0.2783(3)
C1_10 C 0.0760(4) 0.1969(4) 0.2797(4)
C2_10 C 0.0361(4) 0.1732(4) 0.3175(4)
C3_10 C 0.0591(4) 0.1338(5) 0.3557(4)
H2_10 H 0.0329 0.1166 0.3819
C4_10 C 0.1212(5) 0.1199(4) 0.3549(4)
H3_10 H 0.1382 0.0930 0.3807
C5_10 C 0.1570(4) 0.1451(4) 0.3171(3)
H4_10 H 0.1995 0.1360 0.3176
N2_7 N 0.1857(3) 0.2383(3) 0.1454(3)
C6_10 C 0.1890(4) 0.1889(4) 0.1146(4)
C7_10 C 0.1854(5) 0.1958(6) 0.0607(4)
H5_10 H 0.1880 0.1611 0.0381
C8_10 C 0.1781(5) 0.2534(7) 0.0391(4)
H6_10 H 0.1758 0.2581 0.0016
C9_10 C 0.1741(5) 0.3025(5) 0.0703(4)
H7_10 H 0.1688 0.3422 0.0557
C10_10 C 0.1782(4) 0.2937(4) 0.1248(4)
H8_10 H 0.1755 0.3281 0.1478
H9_10 H 0.0060 0.3161 0.3171
Se4_10 Se 0.13698(4) 0.05129(5) 0.09848(4)
C16_10 C 0.0611(4) 0.0610(4) 0.1354(4)
N4_6 N 0.0117(3) 0.0643(3) 0.1046(3)
C20_10 C 0.0542(6) 0.0646(5) 0.1893(4)
H13_10 H 0.0889 0.0620 0.2119
Br2_10 Br 0.29768(4) 0.16961(4) 0.23768(4)
Cu2_7 Cu 0.30848(5) 0.27536(5) 0.27428(4)
Cu4_5 Cu 0.02536(5) 0.05848(5) 0.02428(4)
N5_7 N 0.3644(3) 0.3172(3) 0.2217(3)
N6_9 N 0.3143(3) 0.2617(3) 0.3546(3)
H1_10 H 0.9940 0.1839 0.3171
Se3_10 Se 0.94688(4) 0.24633(5) 0.22466(4)
C11_10 C 0.9240(4) 0.3031(4) 0.2797(4)
N3_6 N 0.8644(3) 0.3172(3) 0.2783(3)
C12_10 C 0.8430(4) 0.3549(4) 0.3171(3)
C13_10 C 0.8788(5) 0.3801(4) 0.3549(4)
C14_10 C 0.9409(4) 0.3662(5) 0.3557(4)
C15_10 C 0.9639(4) 0.3268(4) 0.3175(4)
H10_10 H 0.9671 0.3834 0.3819
H11_10 H 0.8618 0.4070 0.3807
H12_10 H 0.8005 0.3640 0.3176
C17_10 C 0.9563(4) 0.0718(4) 0.1252(4)
C18_10 C 0.9475(5) 0.0759(5) 0.1797(4)
C19_10 C 0.9966(7) 0.0719(5) 0.2109(4)
H14_10 H 0.9919 0.0742 0.2484
H15_10 H 0.9078 0.0812 0.1943
H16_10 H 0.9219 0.0745 0.1022
Cu3_5 Cu 0.80848(5) 0.27536(5) 0.22572(4)
C17_11 C 0.0437(4) 0.4282(4) 0.1252(4)
C18_11 C 0.0525(5) 0.4241(5) 0.1797(4)
C19_11 C 0.0034(7) 0.4281(5) 0.2109(4)
H14_11 H 0.0081 0.4258 0.2484
H15_11 H 0.0922 0.4188 0.1943
H16_11 H 0.0781 0.4255 0.1022
Br1_11 Br 0.79768(4) 0.16961(4) 0.26232(4)
Se2_11 Se 0.80129(5) 0.38698(4) 0.15152(4)
N2_8 N 0.8143(3) 0.2617(3) 0.1454(3)
C6_11 C 0.8110(4) 0.3111(4) 0.1146(4)
C7_11 C 0.8146(5) 0.3042(6) 0.0607(4)
H5_11 H 0.8120 0.3389 0.0381
C8_11 C 0.8219(5) 0.2466(7) 0.0391(4)
H6_11 H 0.8242 0.2419 0.0016
C9_11 C 0.8259(5) 0.1975(5) 0.0703(4)
H7_11 H 0.8312 0.1578 0.0557
C10_11 C 0.8218(4) 0.2063(4) 0.1248(4)
H8_11 H 0.8245 0.1719 0.1478
Se4_11 Se 0.86302(4) 0.44871(5) 0.09848(4)
C16_11 C 0.9389(4) 0.4390(4) 0.1354(4)
N4_7 N 0.9883(3) 0.4357(3) 0.1046(3)
C20_11 C 0.9458(6) 0.4354(5) 0.1893(4)
H13_11 H 0.9111 0.4380 0.2119
Br2_11 Br 0.70232(4) 0.33039(4) 0.23768(4)
Cu2_8 Cu 0.69152(5) 0.22464(5) 0.27428(4)
Cu4_6 Cu 0.97464(5) 0.44152(5) 0.02428(4)
N5_8 N 0.6356(3) 0.1828(3) 0.2217(3)
N6_10 N 0.6857(3) 0.2383(3) 0.3546(3)
Br1_12 Br 0.70232(4) 0.83039(4) 0.76232(4)
Se2_12 Se 0.69871(5) 0.61302(4) 0.65152(4)
N2_9 N 0.6857(3) 0.7383(3) 0.6454(3)
C6_12 C 0.6890(4) 0.6889(4) 0.6146(4)
C7_12 C 0.6854(5) 0.6958(6) 0.5607(4)
H5_12 H 0.6880 0.6611 0.5381
C8_12 C 0.6781(5) 0.7534(7) 0.5391(4)
H6_12 H 0.6758 0.7581 0.5016
C9_12 C 0.6741(5) 0.8025(5) 0.5703(4)
H7_12 H 0.6688 0.8422 0.5557
C10_12 C 0.6782(4) 0.7937(4) 0.6248(4)
H8_12 H 0.6755 0.8281 0.6478
Se4_12 Se 0.63698(4) 0.55129(5) 0.59848(4)
C16_12 C 0.5611(4) 0.5610(4) 0.6354(4)
N4_8 N 0.5117(3) 0.5643(3) 0.6046(3)
C17_12 C 0.4563(4) 0.5718(4) 0.6252(4)
C18_12 C 0.4475(5) 0.5759(5) 0.6797(4)
C19_12 C 0.4966(7) 0.5719(5) 0.7109(4)
C20_12 C 0.5542(6) 0.5646(5) 0.6893(4)
H13_12 H 0.5889 0.5620 0.7119
H14_12 H 0.4919 0.5742 0.7484
H15_12 H 0.4078 0.5812 0.6943
H16_12 H 0.4219 0.5745 0.6022
Br2_12 Br 0.79768(4) 0.66961(4) 0.73768(4)
Cu2_9 Cu 0.80848(5) 0.77536(5) 0.77428(4)
Cu4_7 Cu 0.52536(5) 0.55848(5) 0.52428(4)
N5_9 N 0.8644(3) 0.8172(3) 0.7217(3)
N6_11 N 0.8143(3) 0.7617(3) 0.8546(3)
Cu1_8 Cu 0.52536(5) 0.05848(5) 0.47572(4)
Br1_13 Br 0.41961(4) 0.04768(4) 0.51232(4)
Se1_11 Se 0.49633(5) 0.19688(4) 0.47466(4)
Se2_13 Se 0.63698(4) 0.05129(5) 0.40152(4)
N1_10 N 0.5672(3) 0.1144(3) 0.5283(3)
C1_11 C 0.5531(4) 0.1740(4) 0.5297(4)
C2_11 C 0.5768(4) 0.2139(4) 0.5675(4)
H1_11 H 0.5661 0.2560 0.5671
C3_11 C 0.6162(5) 0.1909(4) 0.6057(4)
H2_11 H 0.6334 0.2171 0.6319
C4_11 C 0.6301(4) 0.1288(5) 0.6049(4)
H3_11 H 0.6570 0.1118 0.6307
C5_11 C 0.6049(4) 0.0930(4) 0.5671(3)
H4_11 H 0.6140 0.0505 0.5676
N2_10 N 0.5117(3) 0.0643(3) 0.3954(3)
C6_13 C 0.5611(4) 0.0610(4) 0.3646(4)
C7_13 C 0.5542(6) 0.0646(5) 0.3107(4)
H5_13 H 0.5889 0.0620 0.2881
C8_13 C 0.4966(7) 0.0719(5) 0.2891(4)
H6_13 H 0.4919 0.0742 0.2516
C9_13 C 0.4475(5) 0.0759(5) 0.3203(4)
H7_13 H 0.4078 0.0812 0.3057
C10_13 C 0.4563(4) 0.0718(4) 0.3748(4)
H8_13 H 0.4219 0.0745 0.3978
Se3_11 Se 0.50367(5) 0.30312(4) 0.47466(4)
C11_11 C 0.4469(4) 0.3260(4) 0.5297(4)
N3_7 N 0.4328(3) 0.3856(3) 0.5283(3)
C12_11 C 0.3951(4) 0.4070(4) 0.5671(3)
C13_11 C 0.3699(4) 0.3712(5) 0.6049(4)
C14_11 C 0.3838(5) 0.3091(4) 0.6057(4)
C15_11 C 0.4232(4) 0.2861(4) 0.5675(4)
H9_11 H 0.4339 0.2440 0.5671
H10_11 H 0.3666 0.2829 0.6319
H11_11 H 0.3430 0.3882 0.6307
H12_11 H 0.3860 0.4495 0.5676
Se4_13 Se 0.69871(5) 0.11302(4) 0.34848(4)
C16_13 C 0.6890(4) 0.1889(4) 0.3854(4)
C17_13 C 0.6782(4) 0.2937(4) 0.3752(4)
C18_13 C 0.6741(5) 0.3025(5) 0.4297(4)
C19_13 C 0.6781(5) 0.2534(7) 0.4609(4)
C20_13 C 0.6854(5) 0.1958(6) 0.4393(4)
H13_13 H 0.6880 0.1611 0.4619
H14_13 H 0.6758 0.2581 0.4984
H15_13 H 0.6688 0.3422 0.4443
H16_13 H 0.6755 0.3281 0.3522
Cu3_6 Cu 0.47464(5) 0.44152(5) 0.47572(4)
Br2_13 Br 0.58039(4) 0.95232(4) 0.48768(4)
N5_10 N 0.4328(3) 0.8856(3) 0.4717(3)
N5_11 N 0.0672(3) 0.1144(3) 0.9717(3)
Br1_14 Br 0.08039(4) 0.95232(4) 0.01232(4)
C11_12 C 0.0531(4) 0.6740(4) 0.0297(4)
N3_8 N 0.0672(3) 0.6144(3) 0.0283(3)
C12_12 C 0.1049(4) 0.5930(4) 0.0671(3)
C13_12 C 0.1301(4) 0.6288(5) 0.1049(4)
C14_12 C 0.1162(5) 0.6909(4) 0.1057(4)
C15_12 C 0.0768(4) 0.7139(4) 0.0675(4)
H9_12 H 0.0661 0.7560 0.0671
H10_12 H 0.1334 0.7171 0.1319
H11_12 H 0.1570 0.6118 0.1307
H12_12 H 0.1140 0.5505 0.0676
Se1_12 Se 0.00367(5) 0.80312(4) 0.97466(4)
C8_14 C 0.0034(7) 0.9281(5) 0.7891(4)
H6_14 H 0.0081 0.9258 0.7516
C9_14 C 0.0525(5) 0.9241(5) 0.8203(4)
H7_14 H 0.0922 0.9188 0.8057
C10_14 C 0.0437(4) 0.9282(4) 0.8748(4)
H8_14 H 0.0781 0.9255 0.8978
Cu3_7 Cu 0.02536(5) 0.55848(5) 0.97572(4)
Br2_14 Br 0.91961(4) 0.04768(4) 0.98768(4)
N1_11 N 0.9328(3) 0.8856(3) 0.0283(3)
C1_12 C 0.9469(4) 0.8260(4) 0.0297(4)
C2_12 C 0.9232(4) 0.7861(4) 0.0675(4)
H1_12 H 0.9339 0.7440 0.0671
C3_12 C 0.8838(5) 0.8091(4) 0.1057(4)
H2_12 H 0.8666 0.7829 0.1319
C4_12 C 0.8699(4) 0.8712(5) 0.1049(4)
H3_12 H 0.8430 0.8882 0.1307
C5_12 C 0.8951(4) 0.9070(4) 0.0671(3)
H4_12 H 0.8860 0.9495 0.0676
Cu1_9 Cu 0.97464(5) 0.94152(5) 0.97572(4)
Se2_14 Se 0.86302(4) 0.94871(5) 0.90152(4)
N2_11 N 0.9883(3) 0.9357(3) 0.8954(3)
C6_14 C 0.9389(4) 0.9390(4) 0.8646(4)
C7_14 C 0.9458(6) 0.9354(5) 0.8107(4)
H5_14 H 0.9111 0.9380 0.7881
Se3_12 Se 0.99633(5) 0.69688(4) 0.97466(4)
Se4_14 Se 0.80129(5) 0.88698(4) 0.84848(4)
C16_14 C 0.8110(4) 0.8111(4) 0.8854(4)
C17_14 C 0.8218(4) 0.7063(4) 0.8752(4)
C18_14 C 0.8259(5) 0.6975(5) 0.9297(4)
C19_14 C 0.8219(5) 0.7466(7) 0.9609(4)
C20_14 C 0.8146(5) 0.8042(6) 0.9393(4)
H13_14 H 0.8120 0.8389 0.9619
H14_14 H 0.8242 0.7419 0.9984
H15_14 H 0.8312 0.6578 0.9443
H16_14 H 0.8245 0.6719 0.8522
Se2_15 Se 0.13698(4) 0.55129(5) 0.90152(4)
N2_12 N 0.0117(3) 0.5643(3) 0.8954(3)
C6_15 C 0.0611(4) 0.5610(4) 0.8646(4)
C7_15 C 0.0542(6) 0.5646(5) 0.8107(4)
H5_15 H 0.0889 0.5620 0.7881
Se4_15 Se 0.19871(5) 0.61302(4) 0.84848(4)
C16_15 C 0.1890(4) 0.6889(4) 0.8854(4)
C17_15 C 0.1782(4) 0.7937(4) 0.8752(4)
C18_15 C 0.1741(5) 0.8025(5) 0.9297(4)
C19_15 C 0.1781(5) 0.7534(7) 0.9609(4)
C20_15 C 0.1854(5) 0.6958(6) 0.9393(4)
H13_15 H 0.1880 0.6611 0.9619
H14_15 H 0.1758 0.7581 0.9984
H15_15 H 0.1688 0.8422 0.9443
H16_15 H 0.1755 0.8281 0.8522
Br2_15 Br 0.08039(4) 0.45232(4) 0.98768(4)
Br1_15 Br 0.91961(4) 0.54768(4) 0.01232(4)
C8_15 C 0.9966(7) 0.5719(5) 0.7891(4)
H6_15 H 0.9919 0.5742 0.7516
C9_15 C 0.9475(5) 0.5759(5) 0.8203(4)
H7_15 H 0.9078 0.5812 0.8057
C10_15 C 0.9563(4) 0.5718(4) 0.8748(4)
H8_15 H 0.9219 0.5745 0.8978
N5_12 N 0.9328(3) 0.3856(3) 0.9717(3)
Br1_16 Br 0.58039(4) 0.45232(4) 0.51232(4)
Se2_16 Se 0.36302(4) 0.44871(5) 0.40152(4)
N2_13 N 0.4883(3) 0.4357(3) 0.3954(3)
C6_16 C 0.4389(4) 0.4390(4) 0.3646(4)
C7_16 C 0.4458(6) 0.4354(5) 0.3107(4)
H5_16 H 0.4111 0.4380 0.2881
C8_16 C 0.5034(7) 0.4281(5) 0.2891(4)
H6_16 H 0.5081 0.4258 0.2516
C9_16 C 0.5525(5) 0.4241(5) 0.3203(4)
H7_16 H 0.5922 0.4188 0.3057
C10_16 C 0.5437(4) 0.4282(4) 0.3748(4)
H8_16 H 0.5781 0.4255 0.3978
Se4_16 Se 0.30129(5) 0.38698(4) 0.34848(4)
C16_16 C 0.3110(4) 0.3111(4) 0.3854(4)
C17_16 C 0.3218(4) 0.2063(4) 0.3752(4)
C18_16 C 0.3259(5) 0.1975(5) 0.4297(4)
C19_16 C 0.3219(5) 0.2466(7) 0.4609(4)
C20_16 C 0.3146(5) 0.3042(6) 0.4393(4)
H13_16 H 0.3120 0.3389 0.4619
H14_16 H 0.3242 0.2419 0.4984
H15_16 H 0.3312 0.1578 0.4443
H16_16 H 0.3245 0.1719 0.3522
Br2_16 Br 0.41961(4) 0.54768(4) 0.48768(4)
N5_13 N 0.5672(3) 0.6144(3) 0.4717(3)
Se1_13 Se 0.55312(4) 0.25367(5) 0.27534(4)
C1_13 C 0.5760(4) 0.1969(4) 0.2203(4)
C2_13 C 0.5361(4) 0.1732(4) 0.1825(4)
H1_13 H 0.4940 0.1839 0.1829
C3_13 C 0.5591(4) 0.1338(5) 0.1443(4)
H2_13 H 0.5329 0.1166 0.1181
C4_13 C 0.6212(5) 0.1199(4) 0.1451(4)
H3_13 H 0.6382 0.0930 0.1193
C5_13 C 0.6570(4) 0.1451(4) 0.1829(3)
H4_13 H 0.6995 0.1360 0.1824
Se3_13 Se 0.44688(4) 0.24633(5) 0.27534(4)
C11_13 C 0.4240(4) 0.3031(4) 0.2203(4)
C12_13 C 0.3430(4) 0.3549(4) 0.1829(3)
C13_13 C 0.3788(5) 0.3801(4) 0.1451(4)
C14_13 C 0.4409(4) 0.3662(5) 0.1443(4)
C15_13 C 0.4639(4) 0.3268(4) 0.1825(4)
H9_13 H 0.5060 0.3161 0.1829
H10_13 H 0.4671 0.3834 0.1181
H11_13 H 0.3618 0.4070 0.1193
H12_13 H 0.3005 0.3640 0.1824
H1_14 H 0.0060 0.8161 0.6829
Se3_14 Se 0.05312(4) 0.75367(5) 0.77534(4)
C11_14 C 0.0760(4) 0.6969(4) 0.7203(4)
C12_14 C 0.1570(4) 0.6451(4) 0.6829(3)
C13_14 C 0.1212(5) 0.6199(4) 0.6451(4)
C14_14 C 0.0591(4) 0.6338(5) 0.6443(4)
C15_14 C 0.0361(4) 0.6732(4) 0.6825(4)
H10_14 H 0.0329 0.6166 0.6181
H11_14 H 0.1382 0.5930 0.6193
H12_14 H 0.1995 0.6360 0.6824
Se1_14 Se 0.94688(4) 0.74633(5) 0.77534(4)
C1_14 C 0.9240(4) 0.8031(4) 0.7203(4)
C2_14 C 0.9639(4) 0.8268(4) 0.6825(4)
C3_14 C 0.9409(4) 0.8662(5) 0.6443(4)
H2_14 H 0.9671 0.8834 0.6181
C4_14 C 0.8788(5) 0.8801(4) 0.6451(4)
H3_14 H 0.8618 0.9070 0.6193
C5_14 C 0.8430(4) 0.8549(4) 0.6829(3)
H4_14 H 0.8005 0.8640 0.6824
H9_14 H 0.9940 0.6839 0.6829
Se1_15 Se 0.50367(5) 0.80312(4) 0.52534(4)
C1_15 C 0.4469(4) 0.8260(4) 0.4703(4)
C2_15 C 0.4232(4) 0.7861(4) 0.4325(4)
H1_15 H 0.4339 0.7440 0.4329
C3_15 C 0.3838(5) 0.8091(4) 0.3943(4)
H2_15 H 0.3666 0.7829 0.3681
C4_15 C 0.3699(4) 0.8712(5) 0.3951(4)
H3_15 H 0.3430 0.8882 0.3693
C5_15 C 0.3951(4) 0.9070(4) 0.4329(3)
H4_15 H 0.3860 0.9495 0.4324
Se3_15 Se 0.49633(5) 0.69688(4) 0.52534(4)
C11_15 C 0.5531(4) 0.6740(4) 0.4703(4)
C12_15 C 0.6049(4) 0.5930(4) 0.4329(3)
C13_15 C 0.6301(4) 0.6288(5) 0.3951(4)
C14_15 C 0.6162(5) 0.6909(4) 0.3943(4)
C15_15 C 0.5768(4) 0.7139(4) 0.4325(4)
H9_15 H 0.5661 0.7560 0.4329
H10_15 H 0.6334 0.7171 0.3681
H11_15 H 0.6570 0.6118 0.3693
H12_15 H 0.6140 0.5505 0.4324
Se3_16 Se 0.00367(5) 0.30312(4) 0.02534(4)
C1_16 C 0.0531(4) 0.1740(4) 0.9703(4)
C2_16 C 0.0768(4) 0.2139(4) 0.9325(4)
H1_16 H 0.0661 0.2560 0.9329
C3_16 C 0.1162(5) 0.1909(4) 0.8943(4)
H2_16 H 0.1334 0.2171 0.8681
C4_16 C 0.1301(4) 0.1288(5) 0.8951(4)
H3_16 H 0.1570 0.1118 0.8693
C5_16 C 0.1049(4) 0.0930(4) 0.9329(3)
H4_16 H 0.1140 0.0505 0.9324
Se1_16 Se 0.99633(5) 0.19688(4) 0.02534(4)
C11_16 C 0.9469(4) 0.3260(4) 0.9703(4)
C12_16 C 0.8951(4) 0.4070(4) 0.9329(3)
C13_16 C 0.8699(4) 0.3712(5) 0.8951(4)
C14_16 C 0.8838(5) 0.3091(4) 0.8943(4)
C15_16 C 0.9232(4) 0.2861(4) 0.9325(4)
H9_16 H 0.9339 0.2440 0.9329
H10_16 H 0.8666 0.2829 0.8681
H11_16 H 0.8430 0.3882 0.8693
H12_16 H 0.8860 0.4495 0.9324
loop_
_geom_bond_atom_site_label_1
_geom_bond_atom_site_label_2
_geom_bond_site_symmetry_1
_geom_bond_site_symmetry_2
Se2 C6 1_555 1_555
N1 Cu1 1_555 1_555
C1 N1 1_555 1_555
C2 C1 1_555 1_555
H1 C2 1_555 1_555
C3 C2 1_555 1_555
H2 C3 1_555 1_555
C4 C3 1_555 1_555
H3 C4 1_555 1_555
C5 N1 1_555 1_555
H4 C5 1_555 1_555
N2 Cu1 1_555 1_555
C6 N2 1_555 1_555
C7 C6 1_555 1_555
H5 C7 1_555 1_555
Se4 Se2 1_555 1_555
C16 Se4 1_555 1_555
N4 C16 1_555 1_555
C17 N4 1_555 1_555
C18 C17 1_555 1_555
C19 C18 1_555 1_555
C20 C16 1_555 1_555
H13 C20 1_555 1_555
H14 C19 1_555 1_555
H15 C18 1_555 1_555
H16 C17 1_555 1_555
Cu4 N4 1_555 1_555
C4 C5 1_555 1_555
C19 C20 1_555 1_555
N5 Cu2 1_555 1_555
N6 Cu2 1_555 1_555
H6 C8 1_555 1_555
C9 C8 1_555 1_555
H7 C9 1_555 1_555
H8 C10 1_555 1_555
N3 C11 1_555 1_555
C12 N3 1_555 1_555
C13 C12 1_555 1_555
C14 C13 1_555 1_555
C15 C11 1_555 1_555
H9 C15 1_555 1_555
H10 C14 1_555 1_555
H11 C13 1_555 1_555
H12 C12 1_555 1_555
Cu3 N3 1_555 1_555
C9 C10 1_555 1_555
C14 C15 1_555 1_555
Cu4 Br1_2 1_555 1_555
Br1_2 Cu2_2 1_555 1_555
Se1_2 C1_2 1_555 1_555
N1_2 Cu4 1_555 1_555
C1_2 N1_2 1_555 1_555
C2_2 C1_2 1_555 1_555
C3_2 C2_2 1_555 1_555
H2_2 C3_2 1_555 1_555
C4_2 C3_2 1_555 1_555
H3_2 C4_2 1_555 1_555
C5_2 N1_2 1_555 1_555
H4_2 C5_2 1_555 1_555
Br2_2 Cu4 1_555 1_555
Cu2_2 Br2_2 1_555 1_555
N5_2 Cu2_2 1_555 1_555
N6_2 Cu2_2 1_555 1_555
C4_2 C5_2 1_555 1_555
C11_2 Se3_2 1_555 1_555
N3_2 C11_2 1_555 1_555
C12_2 N3_2 1_555 1_555
C13_2 C12_2 1_555 1_555
C14_2 C13_2 1_555 1_555
C15_2 C11_2 1_555 1_555
H10_2 C14_2 1_555 1_555
H11_2 C13_2 1_555 1_555
H12_2 C12_2 1_555 1_555
Cu3_2 N3_2 1_555 1_555
C14_2 C15_2 1_555 1_555
Cu1_2 Br1_3 1_555 1_555
Br1_3 Cu2_3 1_555 1_555
Se1_3 C1_3 1_555 1_555
Se2_2 C6_2 1_555 1_555
N1_3 Cu1_2 1_555 1_555
C1_3 N1_3 1_555 1_555
C2_3 C1_3 1_555 1_555
H1_3 C2_3 1_555 1_555
C3_3 C2_3 1_555 1_555
H2_3 C3_3 1_555 1_555
C4_3 C3_3 1_555 1_555
H3_3 C4_3 1_555 1_555
C5_3 N1_3 1_555 1_555
H4_3 C5_3 1_555 1_555
N2_2 Cu1_2 1_555 1_555
C6_2 N2_2 1_555 1_555
C7_2 C6_2 1_555 1_555
H5_2 C7_2 1_555 1_555
C8_2 C7_2 1_555 1_555
H6_2 C8_2 1_555 1_555
C9_2 C8_2 1_555 1_555
H7_2 C9_2 1_555 1_555
C10_2 N2_2 1_555 1_555
H8_2 C10_2 1_555 1_555
Se3_3 Se1_3 1_555 1_555
C11_3 Se3_3 1_555 1_555
N3_3 C11_3 1_555 1_555
C12_3 N3_3 1_555 1_555
C13_3 C12_3 1_555 1_555
C14_3 C13_3 1_555 1_555
C15_3 C11_3 1_555 1_555
H9_3 C15_3 1_555 1_555
H10_3 C14_3 1_555 1_555
H11_3 C13_3 1_555 1_555
H12_3 C12_3 1_555 1_555
Se4_2 Se2_2 1_555 1_555
C16_2 Se4_2 1_555 1_555
N4_2 C16_2 1_555 1_555
C17_2 N4_2 1_555 1_555
C18_2 C17_2 1_555 1_555
C19_2 C18_2 1_555 1_555
C20_2 C16_2 1_555 1_555
H13_2 C20_2 1_555 1_555
H14_2 C19_2 1_555 1_555
H15_2 C18_2 1_555 1_555
H16_2 C17_2 1_555 1_555
Br2_3 Cu1_2 1_555 1_555
Cu2_3 Br2_3 1_555 1_555
Cu3_3 N3_3 1_555 1_555
Cu4_2 N4_2 1_555 1_555
N5_3 Cu2_3 1_555 1_555
N6_3 Cu2_3 1_555 1_555
C4_3 C5_3 1_555 1_555
C9_2 C10_2 1_555 1_555
C14_3 C15_3 1_555 1_555
C19_2 C20_2 1_555 1_555
Br1_4 Cu2_4 1_555 1_555
C1_4 N1_4 1_555 1_555
C2_4 C1_4 1_555 1_555
H1_4 C2_4 1_555 1_555
C3_4 C2_4 1_555 1_555
H2_4 C3_4 1_555 1_555
C4_4 C3_4 1_555 1_555
H3_4 C4_4 1_555 1_555
C5_4 N1_4 1_555 1_555
H4_4 C5_4 1_555 1_555
N3_4 C11_4 1_555 1_555
C12_4 N3_4 1_555 1_555
C13_4 C12_4 1_555 1_555
C14_4 C13_4 1_555 1_555
C15_4 C11_4 1_555 1_555
H9_4 C15_4 1_555 1_555
H10_4 C14_4 1_555 1_555
H11_4 C13_4 1_555 1_555
H12_4 C12_4 1_555 1_555
N6_4 Cu2_4 1_555 1_555
C4_4 C5_4 1_555 1_555
C14_4 C15_4 1_555 1_555
Se2_3 C6_3 1_555 1_555
N2_3 Cu1_3 1_555 1_555
C6_3 N2_3 1_555 1_555
C7_3 C6_3 1_555 1_555
H5_3 C7_3 1_555 1_555
C8_3 C7_3 1_555 1_555
H6_3 C8_3 1_555 1_555
C9_3 C8_3 1_555 1_555
H7_3 C9_3 1_555 1_555
C10_3 N2_3 1_555 1_555
H8_3 C10_3 1_555 1_555
Se3_4 Se1_4 1_555 1_555
Se4_3 Se2_3 1_555 1_555
C16_3 Se4_3 1_555 1_555
N4_3 C16_3 1_555 1_555
C17_3 N4_3 1_555 1_555
C18_3 C17_3 1_555 1_555
C19_3 C18_3 1_555 1_555
C20_3 C16_3 1_555 1_555
H13_3 C20_3 1_555 1_555
H14_3 C19_3 1_555 1_555
H15_3 C18_3 1_555 1_555
H16_3 C17_3 1_555 1_555
Br2_4 Cu1_3 1_555 1_555
Cu3_3 N4_3 1_555 1_555
C9_3 C10_3 1_555 1_555
C19_3 C20_3 1_555 1_555
Cu3_3 Br1_5 1_555 1_555
Br1_5 Cu2_5 1_555 1_555
Br2_5 Cu3_3 1_555 1_555
Cu2_5 Br2_5 1_555 1_555
N5_5 Cu2_5 1_555 1_555
N6_5 Cu2_5 1_555 1_555
Se2_4 C6_4 1_555 1_555
N2_4 Cu1_4 1_555 1_555
C6_4 N2_4 1_555 1_555
C7_4 C6_4 1_555 1_555
H5_4 C7_4 1_555 1_555
C8_4 C7_4 1_555 1_555
H6_4 C8_4 1_555 1_555
C9_4 C8_4 1_555 1_555
H7_4 C9_4 1_555 1_555
C10_4 N2_4 1_555 1_555
H8_4 C10_4 1_555 1_555
Se3_5 Se1_5 1_555 1_555
Se4_4 Se2_4 1_555 1_555
C16_4 Se4_4 1_555 1_555
N4_4 C16_4 1_555 1_555
C17_4 N4_4 1_555 1_555
C18_4 C17_4 1_555 1_555
C19_4 C18_4 1_555 1_555
C20_4 C16_4 1_555 1_555
H13_4 C20_4 1_555 1_555
H14_4 C19_4 1_555 1_555
H15_4 C18_4 1_555 1_555
H16_4 C17_4 1_555 1_555
Cu4_3 N4_4 1_555 1_555
C9_4 C10_4 1_555 1_555
C19_4 C20_4 1_555 1_555
C1_5 N1_5 1_555 1_555
C2_5 C1_5 1_555 1_555
H1_5 C2_5 1_555 1_555
C3_5 C2_5 1_555 1_555
H2_5 C3_5 1_555 1_555
C4_5 C3_5 1_555 1_555
H3_5 C4_5 1_555 1_555
C5_5 N1_5 1_555 1_555
H4_5 C5_5 1_555 1_555
N5_4 C11_5 1_555 1_555
C12_5 N5_4 1_555 1_555
C13_5 C12_5 1_555 1_555
C14_5 C13_5 1_555 1_555
C15_5 C11_5 1_555 1_555
H9_5 C15_5 1_555 1_555
H10_5 C14_5 1_555 1_555
H11_5 C13_5 1_555 1_555
H12_5 C12_5 1_555 1_555
C4_5 C5_5 1_555 1_555
C14_5 C15_5 1_555 1_555
Se2_5 C6_5 1_555 1_555
N1_6 Cu1_5 1_555 1_555
C1_6 N1_6 1_555 1_555
C2_6 C1_6 1_555 1_555
H1_6 C2_6 1_555 1_555
C3_6 C2_6 1_555 1_555
H2_6 C3_6 1_555 1_555
C4_6 C3_6 1_555 1_555
H3_6 C4_6 1_555 1_555
C5_6 N1_6 1_555 1_555
H4_6 C5_6 1_555 1_555
N2_5 Cu1_5 1_555 1_555
C6_5 N2_5 1_555 1_555
C7_5 C6_5 1_555 1_555
H5_5 C7_5 1_555 1_555
Se4_5 Se2_5 1_555 1_555
C16_5 Se4_5 1_555 1_555
N6_3 C16_5 1_555 1_555
C17_5 N6_3 1_555 1_555
C18_5 C17_5 1_555 1_555
C19_5 C18_5 1_555 1_555
C20_5 C16_5 1_555 1_555
H13_5 C20_5 1_555 1_555
H14_5 C19_5 1_555 1_555
H15_5 C18_5 1_555 1_555
H16_5 C17_5 1_555 1_555
Br2_7 Cu1_5 1_555 1_555
C4_6 C5_6 1_555 1_555
C19_5 C20_5 1_555 1_555
Br1_7 Cu3 1_555 1_555
H6_5 C8_5 1_555 1_555
C9_5 C8_5 1_555 1_555
H7_5 C9_5 1_555 1_555
H8_5 C10_5 1_555 1_555
N5 C11_6 1_555 1_555
C12_6 N5 1_555 1_555
C13_6 C12_6 1_555 1_555
C14_6 C13_6 1_555 1_555
C15_6 C11_6 1_555 1_555
H9_6 C15_6 1_555 1_555
H10_6 C14_6 1_555 1_555
H11_6 C13_6 1_555 1_555
H12_6 C12_6 1_555 1_555
N6_6 Cu3 1_555 1_555
C9_5 C10_5 1_555 1_555
C14_6 C15_6 1_555 1_555
Se1_7 C1_7 1_555 1_555
C1_7 N5_3 1_555 1_555
C2_7 C1_7 1_555 1_555
C3_7 C2_7 1_555 1_555
H2_7 C3_7 1_555 1_555
C4_7 C3_7 1_555 1_555
H3_7 C4_7 1_555 1_555
C5_7 N5_3 1_555 1_555
H4_7 C5_7 1_555 1_555
C4_7 C5_7 1_555 1_555
C11_7 Se3_7 1_555 1_555
N5_5 C11_7 1_555 1_555
C12_7 N5_5 1_555 1_555
C13_7 C12_7 1_555 1_555
C14_7 C13_7 1_555 1_555
C15_7 C11_7 1_555 1_555
H10_7 C14_7 1_555 1_555
H11_7 C13_7 1_555 1_555
H12_7 C12_7 1_555 1_555
C14_7 C15_7 1_555 1_555
H6_6 C8_6 1_555 1_555
C9_6 C8_6 1_555 1_555
H7_6 C9_6 1_555 1_555
H8_6 C10_6 1_555 1_555
C9_6 C10_6 1_555 1_555
Se2_6 C6_6 1_555 1_555
C6_6 N6 1_555 1_555
C7_6 C6_6 1_555 1_555
H5_6 C7_6 1_555 1_555
Se4_6 Se2_6 1_555 1_555
C16_6 Se4_6 1_555 1_555
N6_5 C16_6 1_555 1_555
C17_6 N6_5 1_555 1_555
C18_6 C17_6 1_555 1_555
C19_6 C18_6 1_555 1_555
C20_6 C16_6 1_555 1_555
H13_6 C20_6 1_555 1_555
H14_6 C19_6 1_555 1_555
H15_6 C18_6 1_555 1_555
H16_6 C17_6 1_555 1_555
C19_6 C20_6 1_555 1_555
Cu4_3 Br1_8 1_555 1_555
Br1_8 Cu3_2 1_555 1_555
Se1_8 C1_8 1_555 1_555
N1_7 Cu4_3 1_555 1_555
C1_8 N1_7 1_555 1_555
C2_8 C1_8 1_555 1_555
H1_8 C2_8 1_555 1_555
C3_8 C2_8 1_555 1_555
H2_8 C3_8 1_555 1_555
C4_8 C3_8 1_555 1_555
H3_8 C4_8 1_555 1_555
C5_8 N1_7 1_555 1_555
H4_8 C5_8 1_555 1_555
Se3_8 Se1_8 1_555 1_555
C11_8 Se3_8 1_555 1_555
N5_2 C11_8 1_555 1_555
C12_8 N5_2 1_555 1_555
C13_8 C12_8 1_555 1_555
C14_8 C13_8 1_555 1_555
C15_8 C11_8 1_555 1_555
H9_8 C15_8 1_555 1_555
H10_8 C14_8 1_555 1_555
H11_8 C13_8 1_555 1_555
H12_8 C12_8 1_555 1_555
Br2_8 Cu4_3 1_555 1_555
Cu3_2 Br2_8 1_555 1_555
N6_7 Cu3_2 1_555 1_555
C4_8 C5_8 1_555 1_555
C14_8 C15_8 1_555 1_555
Se2_7 C6_7 1_555 1_555
C6_7 N6_4 1_555 1_555
C7_7 C6_7 1_555 1_555
H5_7 C7_7 1_555 1_555
C8_7 C7_7 1_555 1_555
H6_7 C8_7 1_555 1_555
C9_7 C8_7 1_555 1_555
H7_7 C9_7 1_555 1_555
C10_7 N6_4 1_555 1_555
H8_7 C10_7 1_555 1_555
Se4_7 Se2_7 1_555 1_555
C16_7 Se4_7 1_555 1_555
N6_2 C16_7 1_555 1_555
C17_7 N6_2 1_555 1_555
C18_7 C17_7 1_555 1_555
C19_7 C18_7 1_555 1_555
C20_7 C16_7 1_555 1_555
H13_7 C20_7 1_555 1_555
H14_7 C19_7 1_555 1_555
H15_7 C18_7 1_555 1_555
H16_7 C17_7 1_555 1_555
C9_7 C10_7 1_555 1_555
C19_7 C20_7 1_555 1_555
H6_8 C8_8 1_555 1_555
C9_8 C8_8 1_555 1_555
H7_8 C9_8 1_555 1_555
H8_8 C10_8 1_555 1_555
C9_8 C10_8 1_555 1_555
Se2_8 C6_8 1_555 1_555
C6_8 N6_6 1_555 1_555
C7_8 C6_8 1_555 1_555
H5_8 C7_8 1_555 1_555
Se4_8 Se2_8 1_555 1_555
C16_8 Se4_8 1_555 1_555
N6_7 C16_8 1_555 1_555
C17_8 N6_7 1_555 1_555
C18_8 C17_8 1_555 1_555
C19_8 C18_8 1_555 1_555
C20_8 C16_8 1_555 1_555
H13_8 C20_8 1_555 1_555
H14_8 C19_8 1_555 1_555
H15_8 C18_8 1_555 1_555
H16_8 C17_8 1_555 1_555
C19_8 C20_8 1_555 1_555
Cu1_6 Br1_9 1_555 1_555
Br1_9 Cu2_6 1_555 1_555
Se1_9 C1_9 1_555 1_555
Se2_9 C6_9 1_555 1_555
N1_8 Cu1_6 1_555 1_555
C1_9 N1_8 1_555 1_555
C2_9 C1_9 1_555 1_555
H1_9 C2_9 1_555 1_555
C3_9 C2_9 1_555 1_555
H2_9 C3_9 1_555 1_555
C4_9 C3_9 1_555 1_555
H3_9 C4_9 1_555 1_555
C5_9 N1_8 1_555 1_555
H4_9 C5_9 1_555 1_555
N2_6 Cu1_6 1_555 1_555
C6_9 N2_6 1_555 1_555
C7_9 C6_9 1_555 1_555
H5_9 C7_9 1_555 1_555
C8_9 C7_9 1_555 1_555
H6_9 C8_9 1_555 1_555
C9_9 C8_9 1_555 1_555
H7_9 C9_9 1_555 1_555
C10_9 N2_6 1_555 1_555
H8_9 C10_9 1_555 1_555
Se3_9 Se1_9 1_555 1_555
C11_9 Se3_9 1_555 1_555
N3_5 C11_9 1_555 1_555
C12_9 N3_5 1_555 1_555
C13_9 C12_9 1_555 1_555
C14_9 C13_9 1_555 1_555
C15_9 C11_9 1_555 1_555
H9_9 C15_9 1_555 1_555
H10_9 C14_9 1_555 1_555
H11_9 C13_9 1_555 1_555
H12_9 C12_9 1_555 1_555
Se4_9 Se2_9 1_555 1_555
C16_9 Se4_9 1_555 1_555
N4_5 C16_9 1_555 1_555
C17_9 N4_5 1_555 1_555
C18_9 C17_9 1_555 1_555
C19_9 C18_9 1_555 1_555
C20_9 C16_9 1_555 1_555
H13_9 C20_9 1_555 1_555
H14_9 C19_9 1_555 1_555
H15_9 C18_9 1_555 1_555
H16_9 C17_9 1_555 1_555
Br2_9 Cu1_6 1_555 1_555
Cu2_6 Br2_9 1_555 1_555
Cu3_4 N3_5 1_555 1_555
Cu4_4 N4_5 1_555 1_555
N5_6 Cu2_6 1_555 1_555
N6_8 Cu2_6 1_555 1_555
C4_9 C5_9 1_555 1_555
C9_9 C10_9 1_555 1_555
C14_9 C15_9 1_555 1_555
C19_9 C20_9 1_555 1_555
Cu1_7 Br1_10 1_555 1_555
Br1_10 Cu2_7 1_555 1_555
Se1_10 C1_10 1_555 1_555
Se2_10 C6_10 1_555 1_555
N1_9 Cu1_7 1_555 1_555
C1_10 N1_9 1_555 1_555
C2_10 C1_10 1_555 1_555
C3_10 C2_10 1_555 1_555
H2_10 C3_10 1_555 1_555
C4_10 C3_10 1_555 1_555
H3_10 C4_10 1_555 1_555
C5_10 N1_9 1_555 1_555
H4_10 C5_10 1_555 1_555
N2_7 Cu1_7 1_555 1_555
C6_10 N2_7 1_555 1_555
C7_10 C6_10 1_555 1_555
H5_10 C7_10 1_555 1_555
C8_10 C7_10 1_555 1_555
H6_10 C8_10 1_555 1_555
C9_10 C8_10 1_555 1_555
H7_10 C9_10 1_555 1_555
C10_10 N2_7 1_555 1_555
H8_10 C10_10 1_555 1_555
Se4_10 Se2_10 1_555 1_555
C16_10 Se4_10 1_555 1_555
N4_6 C16_10 1_555 1_555
C20_10 C16_10 1_555 1_555
H13_10 C20_10 1_555 1_555
Br2_10 Cu1_7 1_555 1_555
Cu2_7 Br2_10 1_555 1_555
Cu4_5 N4_6 1_555 1_555
N5_7 Cu2_7 1_555 1_555
N6_9 Cu2_7 1_555 1_555
C4_10 C5_10 1_555 1_555
C9_10 C10_10 1_555 1_555
C11_10 Se3_10 1_555 1_555
N3_6 C11_10 1_555 1_555
C12_10 N3_6 1_555 1_555
C13_10 C12_10 1_555 1_555
C14_10 C13_10 1_555 1_555
C15_10 C11_10 1_555 1_555
H10_10 C14_10 1_555 1_555
H11_10 C13_10 1_555 1_555
H12_10 C12_10 1_555 1_555
C18_10 C17_10 1_555 1_555
C19_10 C18_10 1_555 1_555
H14_10 C19_10 1_555 1_555
H15_10 C18_10 1_555 1_555
H16_10 C17_10 1_555 1_555
Cu3_5 N3_6 1_555 1_555
C14_10 C15_10 1_555 1_555
C18_11 C17_11 1_555 1_555
C19_11 C18_11 1_555 1_555
H14_11 C19_11 1_555 1_555
H15_11 C18_11 1_555 1_555
H16_11 C17_11 1_555 1_555
Cu3_5 Br1_11 1_555 1_555
Br1_11 Cu2_8 1_555 1_555
Se2_11 C6_11 1_555 1_555
N2_8 Cu3_5 1_555 1_555
C6_11 N2_8 1_555 1_555
C7_11 C6_11 1_555 1_555
H5_11 C7_11 1_555 1_555
C8_11 C7_11 1_555 1_555
H6_11 C8_11 1_555 1_555
C9_11 C8_11 1_555 1_555
H7_11 C9_11 1_555 1_555
C10_11 N2_8 1_555 1_555
H8_11 C10_11 1_555 1_555
Se4_11 Se2_11 1_555 1_555
C16_11 Se4_11 1_555 1_555
N4_7 C16_11 1_555 1_555
C20_11 C16_11 1_555 1_555
H13_11 C20_11 1_555 1_555
Br2_11 Cu3_5 1_555 1_555
Cu2_8 Br2_11 1_555 1_555
Cu4_6 N4_7 1_555 1_555
N5_8 Cu2_8 1_555 1_555
N6_10 Cu2_8 1_555 1_555
C9_11 C10_11 1_555 1_555
Cu3_4 Br1_12 1_555 1_555
Br1_12 Cu2_9 1_555 1_555
Se2_12 C6_12 1_555 1_555
N2_9 Cu3_4 1_555 1_555
C6_12 N2_9 1_555 1_555
C7_12 C6_12 1_555 1_555
H5_12 C7_12 1_555 1_555
C8_12 C7_12 1_555 1_555
H6_12 C8_12 1_555 1_555
C9_12 C8_12 1_555 1_555
H7_12 C9_12 1_555 1_555
C10_12 N2_9 1_555 1_555
H8_12 C10_12 1_555 1_555
Se4_12 Se2_12 1_555 1_555
C16_12 Se4_12 1_555 1_555
N4_8 C16_12 1_555 1_555
C17_12 N4_8 1_555 1_555
C18_12 C17_12 1_555 1_555
C19_12 C18_12 1_555 1_555
C20_12 C16_12 1_555 1_555
H13_12 C20_12 1_555 1_555
H14_12 C19_12 1_555 1_555
H15_12 C18_12 1_555 1_555
H16_12 C17_12 1_555 1_555
Br2_12 Cu3_4 1_555 1_555
Cu2_9 Br2_12 1_555 1_555
Cu4_7 N4_8 1_555 1_555
N5_9 Cu2_9 1_555 1_555
N6_11 Cu2_9 1_555 1_555
C9_12 C10_12 1_555 1_555
C19_12 C20_12 1_555 1_555
Cu1_8 Br1_13 1_555 1_555
Se1_11 C1_11 1_555 1_555
Se2_13 C6_13 1_555 1_555
N1_10 Cu1_8 1_555 1_555
C1_11 N1_10 1_555 1_555
C2_11 C1_11 1_555 1_555
H1_11 C2_11 1_555 1_555
C3_11 C2_11 1_555 1_555
H2_11 C3_11 1_555 1_555
C4_11 C3_11 1_555 1_555
H3_11 C4_11 1_555 1_555
C5_11 N1_10 1_555 1_555
H4_11 C5_11 1_555 1_555
N2_10 Cu1_8 1_555 1_555
C6_13 N2_10 1_555 1_555
C7_13 C6_13 1_555 1_555
H5_13 C7_13 1_555 1_555
C8_13 C7_13 1_555 1_555
H6_13 C8_13 1_555 1_555
C9_13 C8_13 1_555 1_555
H7_13 C9_13 1_555 1_555
C10_13 N2_10 1_555 1_555
H8_13 C10_13 1_555 1_555
Se3_11 Se1_11 1_555 1_555
C11_11 Se3_11 1_555 1_555
N3_7 C11_11 1_555 1_555
C12_11 N3_7 1_555 1_555
C13_11 C12_11 1_555 1_555
C14_11 C13_11 1_555 1_555
C15_11 C11_11 1_555 1_555
H9_11 C15_11 1_555 1_555
H10_11 C14_11 1_555 1_555
H11_11 C13_11 1_555 1_555
H12_11 C12_11 1_555 1_555
Se4_13 Se2_13 1_555 1_555
C16_13 Se4_13 1_555 1_555
N6_10 C16_13 1_555 1_555
C17_13 N6_10 1_555 1_555
C18_13 C17_13 1_555 1_555
C19_13 C18_13 1_555 1_555
C20_13 C16_13 1_555 1_555
H13_13 C20_13 1_555 1_555
H14_13 C19_13 1_555 1_555
H15_13 C18_13 1_555 1_555
H16_13 C17_13 1_555 1_555
Cu3_6 N3_7 1_555 1_555
C4_11 C5_11 1_555 1_555
C9_13 C10_13 1_555 1_555
C14_11 C15_11 1_555 1_555
C19_13 C20_13 1_555 1_555
Cu4_4 Br2_13 1_555 1_555
N5_10 Cu4_4 1_555 1_555
N3_8 C11_12 1_555 1_555
C12_12 N3_8 1_555 1_555
C13_12 C12_12 1_555 1_555
C14_12 C13_12 1_555 1_555
C15_12 C11_12 1_555 1_555
H9_12 C15_12 1_555 1_555
H10_12 C14_12 1_555 1_555
H11_12 C13_12 1_555 1_555
H12_12 C12_12 1_555 1_555
C14_12 C15_12 1_555 1_555
H6_14 C8_14 1_555 1_555
C9_14 C8_14 1_555 1_555
H7_14 C9_14 1_555 1_555
H8_14 C10_14 1_555 1_555
C9_14 C10_14 1_555 1_555
C1_12 N1_11 1_555 1_555
C2_12 C1_12 1_555 1_555
H1_12 C2_12 1_555 1_555
C3_12 C2_12 1_555 1_555
H2_12 C3_12 1_555 1_555
C4_12 C3_12 1_555 1_555
H3_12 C4_12 1_555 1_555
C5_12 N1_11 1_555 1_555
H4_12 C5_12 1_555 1_555
C4_12 C5_12 1_555 1_555
Se2_14 C6_14 1_555 1_555
N2_11 Cu1_9 1_555 1_555
C6_14 N2_11 1_555 1_555
C7_14 C6_14 1_555 1_555
H5_14 C7_14 1_555 1_555
Se4_14 Se2_14 1_555 1_555
C16_14 Se4_14 1_555 1_555
N6_11 C16_14 1_555 1_555
C17_14 N6_11 1_555 1_555
C18_14 C17_14 1_555 1_555
C19_14 C18_14 1_555 1_555
C20_14 C16_14 1_555 1_555
H13_14 C20_14 1_555 1_555
H14_14 C19_14 1_555 1_555
H15_14 C18_14 1_555 1_555
H16_14 C17_14 1_555 1_555
C19_14 C20_14 1_555 1_555
Se2_15 C6_15 1_555 1_555
N2_12 Cu3_7 1_555 1_555
C6_15 N2_12 1_555 1_555
C7_15 C6_15 1_555 1_555
H5_15 C7_15 1_555 1_555
Se4_15 Se2_15 1_555 1_555
C16_15 Se4_15 1_555 1_555
N6_8 C16_15 1_555 1_555
C17_15 N6_8 1_555 1_555
C18_15 C17_15 1_555 1_555
C19_15 C18_15 1_555 1_555
C20_15 C16_15 1_555 1_555
H13_15 C20_15 1_555 1_555
H14_15 C19_15 1_555 1_555
H15_15 C18_15 1_555 1_555
H16_15 C17_15 1_555 1_555
Br2_15 Cu3_7 1_555 1_555
C19_15 C20_15 1_555 1_555
Br1_15 Cu4_6 1_555 1_555
H6_15 C8_15 1_555 1_555
C9_15 C8_15 1_555 1_555
H7_15 C9_15 1_555 1_555
H8_15 C10_15 1_555 1_555
C9_15 C10_15 1_555 1_555
Cu3_6 Br1_16 1_555 1_555
Br1_16 Cu4_7 1_555 1_555
Se2_16 C6_16 1_555 1_555
N2_13 Cu3_6 1_555 1_555
C6_16 N2_13 1_555 1_555
C7_16 C6_16 1_555 1_555
H5_16 C7_16 1_555 1_555
C8_16 C7_16 1_555 1_555
H6_16 C8_16 1_555 1_555
C9_16 C8_16 1_555 1_555
H7_16 C9_16 1_555 1_555
C10_16 N2_13 1_555 1_555
H8_16 C10_16 1_555 1_555
Se4_16 Se2_16 1_555 1_555
C16_16 Se4_16 1_555 1_555
N6_9 C16_16 1_555 1_555
C17_16 N6_9 1_555 1_555
C18_16 C17_16 1_555 1_555
C19_16 C18_16 1_555 1_555
C20_16 C16_16 1_555 1_555
H13_16 C20_16 1_555 1_555
H14_16 C19_16 1_555 1_555
H15_16 C18_16 1_555 1_555
H16_16 C17_16 1_555 1_555
Br2_16 Cu3_6 1_555 1_555
Cu4_7 Br2_16 1_555 1_555
N5_13 Cu4_7 1_555 1_555
C9_16 C10_16 1_555 1_555
C19_16 C20_16 1_555 1_555
Se1_13 C1_13 1_555 1_555
C1_13 N5_8 1_555 1_555
C2_13 C1_13 1_555 1_555
H1_13 C2_13 1_555 1_555
C3_13 C2_13 1_555 1_555
H2_13 C3_13 1_555 1_555
C4_13 C3_13 1_555 1_555
H3_13 C4_13 1_555 1_555
C5_13 N5_8 1_555 1_555
H4_13 C5_13 1_555 1_555
Se3_13 Se1_13 1_555 1_555
C11_13 Se3_13 1_555 1_555
N5_7 C11_13 1_555 1_555
C12_13 N5_7 1_555 1_555
C13_13 C12_13 1_555 1_555
C14_13 C13_13 1_555 1_555
C15_13 C11_13 1_555 1_555
H9_13 C15_13 1_555 1_555
H10_13 C14_13 1_555 1_555
H11_13 C13_13 1_555 1_555
H12_13 C12_13 1_555 1_555
C4_13 C5_13 1_555 1_555
C14_13 C15_13 1_555 1_555
C11_14 Se3_14 1_555 1_555
N5_6 C11_14 1_555 1_555
C12_14 N5_6 1_555 1_555
C13_14 C12_14 1_555 1_555
C14_14 C13_14 1_555 1_555
C15_14 C11_14 1_555 1_555
H10_14 C14_14 1_555 1_555
H11_14 C13_14 1_555 1_555
H12_14 C12_14 1_555 1_555
C14_14 C15_14 1_555 1_555
Se1_14 C1_14 1_555 1_555
C1_14 N5_9 1_555 1_555
C2_14 C1_14 1_555 1_555
C3_14 C2_14 1_555 1_555
H2_14 C3_14 1_555 1_555
C4_14 C3_14 1_555 1_555
H3_14 C4_14 1_555 1_555
C5_14 N5_9 1_555 1_555
H4_14 C5_14 1_555 1_555
C4_14 C5_14 1_555 1_555
Se1_15 C1_15 1_555 1_555
C1_15 N5_10 1_555 1_555
C2_15 C1_15 1_555 1_555
H1_15 C2_15 1_555 1_555
C3_15 C2_15 1_555 1_555
H2_15 C3_15 1_555 1_555
C4_15 C3_15 1_555 1_555
H3_15 C4_15 1_555 1_555
C5_15 N5_10 1_555 1_555
H4_15 C5_15 1_555 1_555
Se3_15 Se1_15 1_555 1_555
C11_15 Se3_15 1_555 1_555
N5_13 C11_15 1_555 1_555
C12_15 N5_13 1_555 1_555
C13_15 C12_15 1_555 1_555
C14_15 C13_15 1_555 1_555
C15_15 C11_15 1_555 1_555
H9_15 C15_15 1_555 1_555
H10_15 C14_15 1_555 1_555
H11_15 C13_15 1_555 1_555
H12_15 C12_15 1_555 1_555
C4_15 C5_15 1_555 1_555
C14_15 C15_15 1_555 1_555
C1_16 N5_11 1_555 1_555
C2_16 C1_16 1_555 1_555
H1_16 C2_16 1_555 1_555
C3_16 C2_16 1_555 1_555
H2_16 C3_16 1_555 1_555
C4_16 C3_16 1_555 1_555
H3_16 C4_16 1_555 1_555
C5_16 N5_11 1_555 1_555
H4_16 C5_16 1_555 1_555
C4_16 C5_16 1_555 1_555
N5_12 C11_16 1_555 1_555
C12_16 N5_12 1_555 1_555
C13_16 C12_16 1_555 1_555
C14_16 C13_16 1_555 1_555
C15_16 C11_16 1_555 1_555
H9_16 C15_16 1_555 1_555
H10_16 C14_16 1_555 1_555
H11_16 C13_16 1_555 1_555
H12_16 C12_16 1_555 1_555
C14_16 C15_16 1_555 1_555

#END
