
###############################################################################
#
# This file contains modified crystal structure data generated from the
# MOF subset of the Cambridge Structural Database (CSD) v543 
# hosted by the Cambridge Crystallographic Data Centre (CCDC).
#
# This work is licensed under the Creative Commons
# Attribution-NonCommercial-ShareAlike 4.0 International License.
# To view a copy of this license, visit
# http://creativecommons.org/licenses/by-nc-sa/4.0/
# or send a letter to
# Creative Commons, PO Box 1866, Mountain View, CA 94042, USA.
#
# CIF created using the CSD Python API on 29 September 2022
# The structure has been converted into the P1 space group
# The structure has a 3D framework
# The original CSD entry LOLVEQ07 is in the trigonal crystal system
# The framework has been calculated to contain at least 10.0% void space
# The void calculation uses a probe of radius 1.32A, grid spacing 0.4
# The framework is charged, counterions have been retained in the structure
#
###############################################################################

data_LOLVEQ07
_chemical_formula_moiety         '(C12 H12 Mg13 O24 2-)n'
_symmetry_cell_setting           triclinic
_symmetry_space_group_name_H-M   'P 1'
_symmetry_Int_Tables_number      1
_space_group_name_Hall           'P 1'
loop_
_symmetry_equiv_pos_site_id
_symmetry_equiv_pos_as_xyz
1 x,y,z
_cell_length_a                   8.1489(3)
_cell_length_b                   8.1489(3)
_cell_length_c                   15.5553(7)
_cell_angle_alpha                90
_cell_angle_beta                 90
_cell_angle_gamma                120
_cell_volume                     894.555
loop_
_atom_site_label
_atom_site_type_symbol
_atom_site_fract_x
_atom_site_fract_y
_atom_site_fract_z
Mg1 Mg 0.0000 0.0000 0.0000
O1 O 0.20624(16) 0.21887(16) 0.07681(7)
C1 C 0.1968(2) 0.3195(2) 0.13337(10)
O2 O 0.32819(15) 0.45594(15) 0.17040(6)
H1 H 0.0753 0.2890 0.1503
Mg2 Mg 0.3333 0.6667 0.2500
O13 O 0.12775(21) 0.45594(15) 0.32960(6)
O14 O 0.54406(15) 0.87225(21) 0.17040(6)
O15 O 0.12775(21) 0.67181(15) 0.17040(6)
O16 O 0.54406(15) 0.67181(15) 0.32960(6)
O17 O 0.32819(15) 0.87225(21) 0.32960(6)
Mg1_2 Mg 0.0000 -0.0000 1.0000
O7 O 0.21887(16) 0.01263(23) 0.92319(7)
C6 C 0.3195(2) 0.1227(3) 0.86663(10)
O12 O 0.45594(15) 0.12775(21) 0.82960(6)
H6 H 0.2890 0.2137 0.8497
Mg7 Mg 0.6667 0.3333 0.7500
Mg1_3 Mg -0.0000 1.0000 0.0000
O4 O 0.01263(23) 0.79376(16) 0.07681(7)
C3 C 0.1227(3) 0.8032(2) 0.13337(10)
H3 H 0.2137 0.9247 0.1503
Mg1_4 Mg 1.0000 -0.0000 1.0000
O6 O 0.98737(23) 0.20624(16) 0.92319(7)
C5 C 0.8773(3) 0.1968(2) 0.86663(10)
O11 O 0.87225(21) 0.32819(15) 0.82960(6)
H5 H 0.7863 0.0753 0.8497
Mg1_5 Mg 1.0000 1.0000 0.0000
O3 O 0.78113(16) 0.98737(23) 0.07681(7)
C2 C 0.6805(2) 0.8773(3) 0.13337(10)
H2 H 0.7110 0.7863 0.1503
Mg1_6 Mg 1.0000 1.0000 1.0000
O5 O 0.79376(16) 0.78113(16) 0.92319(7)
C4 C 0.8032(2) 0.6805(2) 0.86663(10)
O10 O 0.67181(15) 0.54406(15) 0.82960(6)
H4 H 0.9247 0.7110 0.8497
Mg1_7 Mg 0.0000 -0.0000 0.5000
O3_2 O 0.01263(23) 0.21887(16) 0.42319(7)
O5_2 O 0.21887(16) 0.20624(16) 0.57681(7)
C2_2 C 0.1227(3) 0.3195(2) 0.36663(10)
C4_2 C 0.3195(2) 0.1968(2) 0.63337(10)
H2_2 H 0.2137 0.2890 0.3497
O10_2 O 0.45594(15) 0.32819(15) 0.67040(6)
H4_2 H 0.2890 0.0753 0.6503
Mg1_8 Mg -0.0000 1.0000 0.5000
O4_2 O 0.20624(16) 0.98737(23) 0.42319(7)
C3_2 C 0.1968(2) 0.8773(3) 0.36663(10)
H3_2 H 0.0753 0.7863 0.3497
Mg1_9 Mg 1.0000 -0.0000 0.5000
O6_2 O 0.79376(16) 0.01263(23) 0.57681(7)
C5_2 C 0.8032(2) 0.1227(3) 0.63337(10)
O11_2 O 0.67181(15) 0.12775(21) 0.67040(6)
H5_2 H 0.9247 0.2137 0.6503
Mg1_10 Mg 1.0000 1.0000 0.5000
O1_2 O 0.78113(16) 0.79376(16) 0.42319(7)
C1_2 C 0.6805(2) 0.8032(2) 0.36663(10)
H1_2 H 0.7110 0.9247 0.3497
O7_2 O 0.98737(23) 0.78113(16) 0.57681(7)
C6_2 C 0.8773(3) 0.6805(2) 0.63337(10)
O12_2 O 0.87225(21) 0.54406(15) 0.67040(6)
H6_2 H 0.7863 0.7110 0.6503
Mg1_11 Mg -0.0000 1.0000 1.0000
Mg1_12 Mg 1.0000 0.0000 0.0000
loop_
_geom_bond_atom_site_label_1
_geom_bond_atom_site_label_2
_geom_bond_site_symmetry_1
_geom_bond_site_symmetry_2
Mg1 O1 1_555 1_555
O1 C1 1_555 1_555
C1 O2 1_555 1_555
O2 Mg2 1_555 1_555
H1 C1 1_555 1_555
Mg2 O13 1_555 1_555
O14 Mg2 1_555 1_555
O15 Mg2 1_555 1_555
O16 Mg2 1_555 1_555
O17 Mg2 1_555 1_555
O7 Mg1_2 1_555 1_555
C6 O7 1_555 1_555
O12 C6 1_555 1_555
H6 C6 1_555 1_555
Mg7 O12 1_555 1_555
O4 Mg1_3 1_555 1_555
C3 O4 1_555 1_555
O15 C3 1_555 1_555
H3 C3 1_555 1_555
O6 Mg1_4 1_555 1_555
C5 O6 1_555 1_555
O11 C5 1_555 1_555
H5 C5 1_555 1_555
Mg7 O11 1_555 1_555
O3 Mg1_5 1_555 1_555
C2 O3 1_555 1_555
O14 C2 1_555 1_555
H2 C2 1_555 1_555
O5 Mg1_6 1_555 1_555
C4 O5 1_555 1_555
O10 C4 1_555 1_555
H4 C4 1_555 1_555
Mg7 O10 1_555 1_555
O3_2 Mg1_7 1_555 1_555
O5_2 Mg1_7 1_555 1_555
C2_2 O3_2 1_555 1_555
C4_2 O5_2 1_555 1_555
O13 C2_2 1_555 1_555
H2_2 C2_2 1_555 1_555
O10_2 C4_2 1_555 1_555
H4_2 C4_2 1_555 1_555
Mg7 O10_2 1_555 1_555
O4_2 Mg1_8 1_555 1_555
C3_2 O4_2 1_555 1_555
O17 C3_2 1_555 1_555
H3_2 C3_2 1_555 1_555
O6_2 Mg1_9 1_555 1_555
C5_2 O6_2 1_555 1_555
O11_2 C5_2 1_555 1_555
H5_2 C5_2 1_555 1_555
Mg7 O11_2 1_555 1_555
Mg1_10 O1_2 1_555 1_555
O1_2 C1_2 1_555 1_555
C1_2 O16 1_555 1_555
H1_2 C1_2 1_555 1_555
O7_2 Mg1_10 1_555 1_555
C6_2 O7_2 1_555 1_555
O12_2 C6_2 1_555 1_555
H6_2 C6_2 1_555 1_555
Mg7 O12_2 1_555 1_555

#END
