
###############################################################################
#
# This file contains modified crystal structure data generated from the
# MOF subset of the Cambridge Structural Database (CSD) v543 
# hosted by the Cambridge Crystallographic Data Centre (CCDC).
#
# This work is licensed under the Creative Commons
# Attribution-NonCommercial-ShareAlike 4.0 International License.
# To view a copy of this license, visit
# http://creativecommons.org/licenses/by-nc-sa/4.0/
# or send a letter to
# Creative Commons, PO Box 1866, Mountain View, CA 94042, USA.
#
# CIF created using the CSD Python API on 29 September 2022
# The structure has been converted into the P1 space group
# The structure has a 3D framework
# The original CSD entry LOMFIC is in the rhombohedral crystal system
# The framework has been calculated to contain at least 10.0% void space
# The void calculation uses a probe of radius 1.32A, grid spacing 0.4
#
###############################################################################

data_LOMFIC
_chemical_formula_moiety         '(C288 H216 Cd18 N72 O108)n'
_symmetry_cell_setting           triclinic
_symmetry_space_group_name_H-M   'P 1'
_symmetry_Int_Tables_number      1
_space_group_name_Hall           'P 1'
loop_
_symmetry_equiv_pos_site_id
_symmetry_equiv_pos_as_xyz
1 x,y,z
_cell_length_a                   36.42(8)
_cell_length_b                   36.42(8)
_cell_length_c                   7.799(15)
_cell_angle_alpha                90
_cell_angle_beta                 90
_cell_angle_gamma                120.00
_cell_volume                     8958.79
loop_
_atom_site_label
_atom_site_type_symbol
_atom_site_fract_x
_atom_site_fract_y
_atom_site_fract_z
N3 N 0.3105(5) 0.2306(4) 0.427(2)
C1 C 0.3427(6) 0.2543(6) 0.327(3)
H1 H 0.3456 0.2798 0.2883
C2 C 0.3729(6) 0.2437(6) 0.275(2)
H2 H 0.3951 0.2618 0.2036
C3 C 0.3696(5) 0.2066(5) 0.329(2)
C4 C 0.3363(6) 0.1818(6) 0.433(3)
H3 H 0.3326 0.1561 0.4741
C5 C 0.3077(6) 0.1950(6) 0.479(3)
H4 H 0.2852 0.1775 0.5507
C6 C 0.3993(5) 0.1918(5) 0.271(2)
C7 C 0.4363(6) 0.2183(6) 0.182(2)
H5 H 0.4429 0.2460 0.1592
C8 C 0.4640(6) 0.2048(6) 0.126(2)
H6 H 0.4886 0.2231 0.0669
C9 C 0.4541(6) 0.1638(5) 0.160(2)
C10 C 0.4179(6) 0.1363(6) 0.248(2)
H7 H 0.4115 0.1087 0.2708
C11 C 0.3908(5) 0.1507(6) 0.302(2)
H8 H 0.3663 0.1322 0.3615
C12 C 0.4837(7) 0.1487(7) 0.098(3)
C13 C 0.5255(7) 0.1712(8) 0.147(3)
H9 H 0.5359 0.1960 0.2109
C14 C 0.5527(8) 0.1552(9) 0.098(3)
H10 H 0.5812 0.1694 0.1283
C15 C 0.5366(8) 0.1202(9) 0.009(3)
N4 N 0.4684(6) 0.1137(6) 0.009(2)
Cd3 Cd 0.25830(6) 0.24415(5) 0.4962(3)
Cd2 Cd 0.07504(6) 0.42251(10) 0.1704(3)
N3_2 N 0.9201(6) 0.6895(5) 0.427(2)
C1_2 C 0.9116(8) 0.6573(6) 0.327(3)
H1_2 H 0.9342 0.6544 0.2883
C2_2 C 0.8708(8) 0.6271(6) 0.275(2)
H2_2 H 0.8667 0.6049 0.2036
C3_2 C 0.8370(7) 0.6304(5) 0.329(2)
C4_2 C 0.8455(8) 0.6637(6) 0.433(3)
H3_2 H 0.8235 0.6674 0.4741
C5_2 C 0.8873(8) 0.6923(6) 0.479(3)
H4_2 H 0.8923 0.7148 0.5507
C6_2 C 0.7925(7) 0.6007(5) 0.271(2)
C7_2 C 0.7820(8) 0.5637(6) 0.182(2)
H5_2 H 0.8031 0.5571 0.1592
C8_2 C 0.7408(8) 0.5360(6) 0.126(2)
H6_2 H 0.7345 0.5114 0.0669
C9_2 C 0.7097(8) 0.5459(6) 0.160(2)
C10_2 C 0.7184(8) 0.5821(6) 0.248(2)
H7_2 H 0.6972 0.5885 0.2708
C11_2 C 0.7599(8) 0.6092(5) 0.302(2)
H8_2 H 0.7659 0.6337 0.3615
C12_2 C 0.6650(10) 0.5163(7) 0.098(3)
C13_2 C 0.6457(11) 0.4745(7) 0.147(3)
H9_2 H 0.6601 0.4641 0.2109
C14_2 C 0.6025(12) 0.4473(8) 0.098(3)
H10_2 H 0.5882 0.4188 0.1283
C15_2 C 0.5836(12) 0.4634(8) 0.009(3)
N4_2 N 0.6453(8) 0.5316(6) 0.009(2)
Cd2_2 Cd 0.57749(10) 0.65252(8) 0.1704(3)
Cd3_2 Cd 0.98586(8) 0.74170(6) 0.4962(3)
Cd1 Cd 0.68081(8) 0.59163(6) 0.8371(3)
N1 N 0.6222(11) 0.6195(8) 0.896(3)
O1 O 0.6173(7) 0.5931(5) 0.781(2)
O2 O 0.5966(7) 0.6335(5) 0.897(2)
O3 O 0.6509(7) 0.6312(5) 0.999(2)
N2 N 0.6800(8) 0.5282(6) 0.630(3)
O4 O 0.7112(7) 0.5515(5) 0.725(2)
O5 O 0.6793(8) 0.4987(6) 0.549(3)
O6 O 0.6521(7) 0.5373(5) 0.619(2)
H11 H 0.5555 0.4462 0.9759
C16 C 0.6046(11) 0.5049(8) 0.965(3)
H12 H 0.5904 0.5155 0.9014
O7 O 0.6998(9) 0.6298(5) 0.564(2)
N5 N 0.7466(6) 0.6438(5) 0.906(2)
N1_2 N 0.0472(8) 0.3360(7) 0.229(3)
O1_2 O 0.0736(5) 0.3575(5) 0.114(2)
O2_2 O 0.0332(5) 0.2964(5) 0.230(2)
O3_2 O 0.0355(5) 0.3530(5) 0.332(2)
O4_2 O 0.1152(5) 0.4930(5) 0.058(2)
C1_3 C 0.0094(6) 0.5876(6) 0.660(3)
H1_3 H 0.0123 0.6131 0.6216
C2_3 C 0.0396(6) 0.5770(6) 0.608(2)
H2_3 H 0.0618 0.5951 0.5369
C3_3 C 0.0363(5) 0.5399(5) 0.662(2)
C4_3 C 0.0030(6) 0.5151(6) 0.766(3)
C6_3 C 0.0660(5) 0.5251(5) 0.604(2)
C7_3 C 0.1030(6) 0.5516(6) 0.515(2)
H5_3 H 0.1096 0.5793 0.4925
C8_3 C 0.1307(6) 0.5381(6) 0.459(2)
H6_3 H 0.1553 0.5564 0.4002
C9_3 C 0.1208(6) 0.4971(5) 0.493(2)
C10_3 C 0.0846(6) 0.4696(6) 0.581(2)
H7_3 H 0.0782 0.4420 0.6041
C11_3 C 0.0575(5) 0.4840(6) 0.635(2)
H8_3 H 0.0330 0.4655 0.6948
C12_3 C 0.1504(7) 0.4820(7) 0.431(3)
C13_3 C 0.1922(7) 0.5045(8) 0.480(3)
H9_3 H 0.2026 0.5293 0.5442
C14_3 C 0.2194(8) 0.4885(9) 0.431(3)
H10_3 H 0.2479 0.5027 0.4616
C15_3 C 0.2033(8) 0.4535(9) 0.342(3)
H11_2 H 0.2205 0.4426 0.3092
C16_2 C 0.1618(8) 0.4330(8) 0.298(3)
H12_2 H 0.1512 0.4082 0.2347
N4_3 N 0.1351(6) 0.4470(6) 0.342(2)
Cd2_3 Cd 0.01414(8) 0.25830(6) 0.5038(3)
N5_2 N 0.0228(5) 0.4361(4) 0.240(2)
N3_3 N 0.9772(5) 0.5639(4) 0.760(2)
H3_3 H 0.9993 0.4894 0.8074
C5_3 C 0.9744(6) 0.5283(6) 0.812(3)
H4_3 H 0.9519 0.5108 0.8840
Cd3_3 Cd 0.92496(6) 0.57749(5) 0.8296(3)
N1_3 N 0.6640(7) 0.7111(11) 0.229(3)
O1_3 O 0.6425(5) 0.7160(7) 0.114(2)
O2_3 O 0.7036(5) 0.7367(7) 0.230(2)
O3_3 O 0.6470(5) 0.6824(7) 0.332(2)
O4_3 O 0.5070(5) 0.6221(7) 0.058(2)
N3_4 N 0.4361(4) 0.4132(6) 0.760(2)
C1_4 C 0.4124(6) 0.4217(8) 0.660(3)
H1_4 H 0.3869 0.3991 0.6216
C2_4 C 0.4230(6) 0.4625(8) 0.608(2)
H2_4 H 0.4049 0.4666 0.5369
C3_4 C 0.4601(5) 0.4963(7) 0.662(2)
C4_4 C 0.4849(6) 0.4878(8) 0.766(3)
H3_4 H 0.5106 0.5098 0.8074
C5_4 C 0.4717(6) 0.4460(8) 0.812(3)
H4_4 H 0.4892 0.4410 0.8840
C6_4 C 0.4749(5) 0.5408(7) 0.604(2)
C7_4 C 0.4484(6) 0.5513(8) 0.515(2)
H5_4 H 0.4207 0.5302 0.4925
C8_4 C 0.4619(6) 0.5925(8) 0.459(2)
H6_4 H 0.4436 0.5988 0.4002
C9_4 C 0.5029(5) 0.6236(8) 0.493(2)
C10_4 C 0.5304(6) 0.6149(8) 0.581(2)
H7_4 H 0.5580 0.6361 0.6041
C11_4 C 0.5160(6) 0.5734(8) 0.635(2)
H8_4 H 0.5345 0.5674 0.6948
C12_4 C 0.5180(7) 0.6683(10) 0.431(3)
C13_4 C 0.4955(8) 0.6876(11) 0.480(3)
H9_4 H 0.4707 0.6732 0.5442
C14_4 C 0.5115(9) 0.7308(12) 0.431(3)
H10_4 H 0.4973 0.7451 0.4616
C15_4 C 0.5465(9) 0.7497(12) 0.342(3)
H11_3 H 0.5574 0.7778 0.3092
C16_3 C 0.5670(8) 0.7287(11) 0.298(3)
H12_3 H 0.5918 0.7429 0.2347
N4_4 N 0.5530(6) 0.6880(8) 0.342(2)
Cd2_4 Cd 0.74170(6) 0.75585(10) 0.5038(3)
Cd3_4 Cd 0.42251(5) 0.34748(8) 0.8296(3)
N5_3 N 0.5639(4) 0.5868(6) 0.240(2)
N2_2 N 0.5149(6) 0.6533(8) 0.963(3)
O5_2 O 0.4861(6) 0.6540(8) 0.882(3)
O6_2 O 0.5519(5) 0.6812(7) 0.952(2)
N1_4 N 0.7138(8) 0.6694(7) 0.563(3)
O1_4 O 0.7402(5) 0.6909(5) 0.448(2)
O3_4 O 0.7021(5) 0.6864(5) 0.666(2)
N2_3 N 0.8051(6) 0.8185(6) 0.297(3)
O4_4 O 0.7818(5) 0.8264(5) 0.392(2)
O5_3 O 0.8346(6) 0.8473(6) 0.216(3)
O6_3 O 0.7960(5) 0.7815(5) 0.286(2)
C1_5 C 0.6760(6) 0.9210(6) 0.994(3)
H1_5 H 0.6789 0.9465 0.9550
C2_5 C 0.7062(6) 0.9104(6) 0.942(2)
H2_5 H 0.7284 0.9285 0.8703
C3_5 C 0.7029(5) 0.8733(5) 0.996(2)
C6_5 C 0.7326(5) 0.8585(5) 0.938(2)
C7_5 C 0.7696(6) 0.8850(6) 0.849(2)
H5_5 H 0.7762 0.9127 0.8259
C8_5 C 0.7973(6) 0.8715(6) 0.793(2)
H6_5 H 0.8219 0.8898 0.7336
C9_5 C 0.7874(6) 0.8305(5) 0.827(2)
C10_5 C 0.7512(6) 0.8030(6) 0.915(2)
H7_5 H 0.7448 0.7754 0.9375
C11_5 C 0.7241(5) 0.8174(6) 0.969(2)
C12_5 C 0.8170(7) 0.8154(7) 0.765(3)
C13_5 C 0.8588(7) 0.8379(8) 0.814(3)
H9_5 H 0.8692 0.8627 0.8776
C14_5 C 0.8860(8) 0.8219(9) 0.765(3)
H10_5 H 0.9145 0.8361 0.7950
C15_5 C 0.8699(8) 0.7869(9) 0.676(3)
H11_4 H 0.8871 0.7760 0.6426
C16_4 C 0.8284(8) 0.7664(8) 0.632(3)
H12_4 H 0.8178 0.7416 0.5681
N4_5 N 0.8017(6) 0.7804(6) 0.676(2)
N5_4 N 0.6895(5) 0.7694(4) 0.573(2)
N2_4 N 0.9867(8) 0.8051(6) 0.703(3)
O4_5 O 0.9555(7) 0.7818(5) 0.608(2)
O5_4 O 0.9874(8) 0.8346(6) 0.784(3)
C1_6 C 0.7551(8) 0.6760(6) 0.006(3)
H1_6 H 0.7325 0.6789 0.0450
C2_6 C 0.7959(8) 0.7062(6) 0.058(2)
H2_6 H 0.8000 0.7284 0.1297
C3_6 C 0.8297(7) 0.7029(5) 0.004(2)
C6_6 C 0.8742(7) 0.7326(5) 0.062(2)
C7_6 C 0.8847(8) 0.7696(6) 0.151(2)
H5_6 H 0.8636 0.7762 0.1741
C8_6 C 0.9259(8) 0.7973(6) 0.207(2)
H6_6 H 0.9322 0.8219 0.2664
C9_6 C 0.9570(8) 0.7874(6) 0.173(2)
C10_6 C 0.9483(8) 0.7512(6) 0.085(2)
H7_6 H 0.9695 0.7448 0.0625
C11_6 C 0.9068(8) 0.7241(5) 0.031(2)
O7_2 O 0.9668(9) 0.7036(5) 0.770(2)
C4_5 C 0.8212(8) 0.6696(6) 0.900(3)
H3_5 H 0.8432 0.6659 0.8592
C5_5 C 0.7794(8) 0.6410(6) 0.854(3)
H4_5 H 0.7744 0.6185 0.7826
H8_5 H 0.9008 0.6996 0.9718
C1_7 C 0.6573(6) 0.7457(6) 0.673(3)
H1_7 H 0.6544 0.7202 0.7117
C2_7 C 0.6271(6) 0.7563(6) 0.725(2)
H2_7 H 0.6049 0.7382 0.7964
C3_7 C 0.6304(5) 0.7934(5) 0.671(2)
C4_6 C 0.6637(6) 0.8182(6) 0.567(3)
H3_6 H 0.6674 0.8439 0.5259
C5_6 C 0.6923(6) 0.8050(6) 0.521(3)
H4_6 H 0.7148 0.8225 0.4493
C6_7 C 0.6007(5) 0.8082(5) 0.729(2)
C7_7 C 0.5637(6) 0.7817(6) 0.818(2)
H5_7 H 0.5571 0.7540 0.8408
C8_7 C 0.5360(6) 0.7952(6) 0.874(2)
H6_7 H 0.5114 0.7769 0.9331
C9_7 C 0.5459(6) 0.8362(5) 0.840(2)
C10_7 C 0.5821(6) 0.8637(6) 0.752(2)
H7_7 H 0.5885 0.8913 0.7292
C11_7 C 0.6092(5) 0.8493(6) 0.698(2)
H8_6 H 0.6337 0.8678 0.6385
C12_6 C 0.5163(7) 0.8513(7) 0.902(3)
C13_6 C 0.4745(7) 0.8288(8) 0.853(3)
H9_6 H 0.4641 0.8040 0.7891
C14_6 C 0.4473(8) 0.8448(9) 0.902(3)
H10_6 H 0.4188 0.8306 0.8717
C15_6 C 0.4634(8) 0.8798(9) 0.991(3)
N4_6 N 0.5316(6) 0.8863(6) 0.991(2)
Cd1_2 Cd 0.31919(8) 0.40837(6) 0.1629(3)
N1_5 N 0.3778(11) 0.3805(8) 0.104(3)
O1_5 O 0.3827(7) 0.4069(5) 0.219(2)
O2_4 O 0.4034(7) 0.3665(5) 0.103(2)
O3_5 O 0.3491(7) 0.3688(5) 0.001(2)
N2_5 N 0.3200(8) 0.4718(6) 0.370(3)
O4_6 O 0.2888(7) 0.4485(5) 0.275(2)
O5_5 O 0.3207(8) 0.5013(6) 0.451(3)
O6_4 O 0.3479(7) 0.4627(5) 0.381(2)
H11_5 H 0.4445 0.5538 0.0241
C16_5 C 0.3954(11) 0.4951(8) 0.035(3)
H12_5 H 0.4096 0.4845 0.0986
O7_3 O 0.3002(9) 0.3702(5) 0.436(2)
N5_5 N 0.2534(6) 0.3562(5) 0.094(2)
N3_5 N 0.0799(6) 0.3105(5) 0.573(2)
C1_8 C 0.0884(8) 0.3427(6) 0.673(3)
H1_8 H 0.0658 0.3456 0.7117
C2_8 C 0.1292(8) 0.3729(6) 0.725(2)
H2_8 H 0.1333 0.3951 0.7964
C3_8 C 0.1630(7) 0.3696(5) 0.671(2)
C4_7 C 0.1545(8) 0.3363(6) 0.567(3)
H3_7 H 0.1765 0.3326 0.5259
C5_7 C 0.1127(8) 0.3077(6) 0.521(3)
H4_7 H 0.1077 0.2852 0.4493
C6_8 C 0.2075(7) 0.3993(5) 0.729(2)
C7_8 C 0.2180(8) 0.4363(6) 0.818(2)
H5_8 H 0.1969 0.4429 0.8408
C8_8 C 0.2592(8) 0.4640(6) 0.874(2)
H6_8 H 0.2655 0.4886 0.9331
C9_8 C 0.2903(8) 0.4541(6) 0.840(2)
C10_8 C 0.2816(8) 0.4179(6) 0.752(2)
H7_8 H 0.3028 0.4115 0.7292
C11_8 C 0.2401(8) 0.3908(5) 0.698(2)
H8_7 H 0.2341 0.3663 0.6385
C12_7 C 0.3350(10) 0.4837(7) 0.902(3)
C13_7 C 0.3543(11) 0.5255(7) 0.853(3)
H9_7 H 0.3399 0.5359 0.7891
C14_7 C 0.3975(12) 0.5527(8) 0.902(3)
H10_7 H 0.4118 0.5812 0.8717
C15_7 C 0.4164(12) 0.5366(8) 0.991(3)
N4_7 N 0.3547(8) 0.4684(6) 0.991(2)
H3_8 H 0.0007 0.5106 0.1926
C5_8 C 0.0256(6) 0.4717(6) 0.188(3)
H4_8 H 0.0481 0.4892 0.1160
N1_6 N 0.9528(8) 0.6640(7) 0.771(3)
O1_6 O 0.9264(5) 0.6425(5) 0.886(2)
O3_6 O 0.9645(5) 0.6470(5) 0.668(2)
O4_7 O 0.8848(5) 0.5070(5) 0.942(2)
C1_9 C 0.9906(6) 0.4124(6) 0.340(3)
H1_9 H 0.9877 0.3869 0.3784
C2_9 C 0.9604(6) 0.4230(6) 0.392(2)
H2_9 H 0.9382 0.4049 0.4631
C3_9 C 0.9637(5) 0.4601(5) 0.338(2)
C4_8 C 0.9970(6) 0.4849(6) 0.234(3)
C6_9 C 0.9340(5) 0.4749(5) 0.396(2)
C7_9 C 0.8970(6) 0.4484(6) 0.485(2)
H5_9 H 0.8904 0.4207 0.5075
C8_9 C 0.8693(6) 0.4619(6) 0.541(2)
H6_9 H 0.8447 0.4436 0.5998
C9_9 C 0.8792(6) 0.5029(5) 0.507(2)
C10_9 C 0.9154(6) 0.5304(6) 0.419(2)
H7_9 H 0.9218 0.5580 0.3959
C11_9 C 0.9425(5) 0.5160(6) 0.365(2)
H8_8 H 0.9670 0.5345 0.3052
C12_8 C 0.8496(7) 0.5180(7) 0.569(3)
C13_8 C 0.8078(7) 0.4955(8) 0.520(3)
H9_8 H 0.7974 0.4707 0.4558
C14_8 C 0.7806(8) 0.5115(9) 0.569(3)
H10_8 H 0.7521 0.4973 0.5384
C15_8 C 0.7967(8) 0.5465(9) 0.658(3)
H11_6 H 0.7795 0.5574 0.6908
C16_6 C 0.8382(8) 0.5670(8) 0.702(3)
H12_6 H 0.8488 0.5918 0.7653
N4_8 N 0.8649(6) 0.5530(6) 0.658(2)
N2_6 N 0.4851(6) 0.3467(8) 0.037(3)
O5_6 O 0.5139(6) 0.3460(8) 0.118(3)
O6_5 O 0.4481(5) 0.3188(7) 0.048(2)
N1_7 N 0.3360(7) 0.2889(11) 0.771(3)
O1_7 O 0.3575(5) 0.2840(7) 0.886(2)
O2_5 O 0.2964(5) 0.2633(7) 0.770(2)
O3_7 O 0.3530(5) 0.3176(7) 0.668(2)
O4_8 O 0.4930(5) 0.3779(7) 0.942(2)
C1_10 C 0.5876(6) 0.5783(8) 0.340(3)
H1_10 H 0.6131 0.6009 0.3784
C2_10 C 0.5770(6) 0.5375(8) 0.392(2)
H2_10 H 0.5951 0.5334 0.4631
C3_10 C 0.5399(5) 0.5037(7) 0.338(2)
C4_9 C 0.5151(6) 0.5122(8) 0.234(3)
H3_9 H 0.4894 0.4902 0.1926
C5_9 C 0.5283(6) 0.5540(8) 0.188(3)
H4_9 H 0.5108 0.5590 0.1160
C6_10 C 0.5251(5) 0.4592(7) 0.396(2)
C7_10 C 0.5516(6) 0.4487(8) 0.485(2)
H5_10 H 0.5793 0.4698 0.5075
C8_10 C 0.5381(6) 0.4075(8) 0.541(2)
H6_10 H 0.5564 0.4012 0.5998
C9_10 C 0.4971(5) 0.3764(8) 0.507(2)
C10_10 C 0.4696(6) 0.3851(8) 0.419(2)
H7_10 H 0.4420 0.3639 0.3959
C11_10 C 0.4840(6) 0.4266(8) 0.365(2)
H8_9 H 0.4655 0.4326 0.3052
C12_9 C 0.4820(7) 0.3317(10) 0.569(3)
C13_9 C 0.5045(8) 0.3124(11) 0.520(3)
H9_9 H 0.5293 0.3268 0.4558
C14_9 C 0.4885(9) 0.2692(12) 0.569(3)
H10_9 H 0.5027 0.2549 0.5384
C15_9 C 0.4535(9) 0.2503(12) 0.658(3)
H11_7 H 0.4426 0.2222 0.6908
C16_7 C 0.4330(8) 0.2713(11) 0.702(3)
H12_7 H 0.4082 0.2571 0.7653
N4_9 N 0.4470(6) 0.3120(8) 0.658(2)
N1_8 N 0.2862(8) 0.3306(7) 0.437(3)
O1_8 O 0.2598(5) 0.3091(5) 0.552(2)
O3_8 O 0.2979(5) 0.3136(5) 0.334(2)
N2_7 N 0.1949(6) 0.1815(6) 0.703(3)
O4_9 O 0.2182(5) 0.1736(5) 0.608(2)
O5_7 O 0.1654(6) 0.1527(6) 0.784(3)
O6_6 O 0.2040(5) 0.2185(5) 0.714(2)
C1_11 C 0.3240(6) 0.0790(6) 0.006(3)
H1_11 H 0.3211 0.0535 0.0450
C2_11 C 0.2938(6) 0.0896(6) 0.058(2)
H2_11 H 0.2716 0.0715 0.1297
C3_11 C 0.2971(5) 0.1267(5) 0.004(2)
C6_11 C 0.2674(5) 0.1415(5) 0.062(2)
C7_11 C 0.2304(6) 0.1150(6) 0.151(2)
H5_11 H 0.2238 0.0873 0.1741
C8_11 C 0.2027(6) 0.1285(6) 0.207(2)
H6_11 H 0.1781 0.1102 0.2664
C9_11 C 0.2126(6) 0.1695(5) 0.173(2)
C10_11 C 0.2488(6) 0.1970(6) 0.085(2)
H7_11 H 0.2552 0.2246 0.0625
C11_11 C 0.2759(5) 0.1826(6) 0.031(2)
C12_10 C 0.1830(7) 0.1846(7) 0.235(3)
C13_10 C 0.1412(7) 0.1621(8) 0.186(3)
H9_10 H 0.1308 0.1373 0.1224
C14_10 C 0.1140(8) 0.1781(9) 0.235(3)
H10_10 H 0.0855 0.1639 0.2050
C15_10 C 0.1301(8) 0.2131(9) 0.324(3)
H11_8 H 0.1129 0.2240 0.3574
C16_8 C 0.1716(8) 0.2336(8) 0.368(3)
H12_8 H 0.1822 0.2584 0.4319
N4_10 N 0.1983(6) 0.2196(6) 0.324(2)
C4_10 C 0.1788(8) 0.3304(6) 0.100(3)
H3_10 H 0.1568 0.3341 0.1408
C5_10 C 0.2206(8) 0.3590(6) 0.146(3)
H4_10 H 0.2256 0.3815 0.2174
H8_10 H 0.0992 0.3004 0.0282
N2_8 N 0.0133(8) 0.1949(6) 0.297(3)
O4_10 O 0.0445(7) 0.2182(5) 0.392(2)
O5_8 O 0.0126(8) 0.1654(6) 0.216(3)
C1_12 C 0.2449(8) 0.3240(6) 0.994(3)
H1_12 H 0.2675 0.3211 0.9550
C2_12 C 0.2041(8) 0.2938(6) 0.942(2)
H2_12 H 0.2000 0.2716 0.8703
C3_12 C 0.1703(7) 0.2971(5) 0.996(2)
C6_12 C 0.1258(7) 0.2674(5) 0.938(2)
C7_12 C 0.1153(8) 0.2304(6) 0.849(2)
H5_12 H 0.1364 0.2238 0.8259
C8_12 C 0.0741(8) 0.2027(6) 0.793(2)
H6_12 H 0.0678 0.1781 0.7336
C9_12 C 0.0430(8) 0.2126(6) 0.827(2)
C10_12 C 0.0517(8) 0.2488(6) 0.915(2)
H7_12 H 0.0305 0.2552 0.9375
C11_12 C 0.0932(8) 0.2759(5) 0.969(2)
Cd1_3 Cd 0.40837(6) 0.08918(5) 0.8371(3)
N1_9 N 0.3805(8) 0.0027(7) 0.896(3)
O1_9 O 0.4069(5) 0.0242(5) 0.781(2)
O3_9 O 0.3688(5) 0.0197(5) 0.999(2)
N2_9 N 0.4718(6) 0.1518(6) 0.630(3)
O4_11 O 0.4485(5) 0.1597(5) 0.725(2)
O5_9 O 0.5013(6) 0.1806(6) 0.549(3)
O6_7 O 0.4627(5) 0.1148(5) 0.619(2)
H11_9 H 0.5538 0.1093 0.9759
C16_9 C 0.4951(8) 0.0997(8) 0.965(3)
H12_9 H 0.4845 0.0749 0.9014
O7_4 O 0.3702(5) 0.0701(7) 0.564(2)
N5_6 N 0.3562(5) 0.1027(4) 0.906(2)
C4_11 C 0.3304(6) 0.1515(6) 0.900(3)
H3_11 H 0.3341 0.1772 0.8592
C5_11 C 0.3590(6) 0.1383(6) 0.854(3)
H4_11 H 0.3815 0.1558 0.7826
H8_11 H 0.3004 0.2011 0.9718
N1_10 N 0.3306(7) 0.0445(11) 0.563(3)
O1_10 O 0.3091(5) 0.0494(7) 0.448(2)
O3_10 O 0.3136(5) 0.0158(7) 0.666(2)
O6_8 O 0.2185(5) 0.0146(7) 0.286(2)
C12_11 C 0.1846(7) 0.0017(10) 0.765(3)
C13_11 C 0.1621(8) 0.0210(11) 0.814(3)
H9_11 H 0.1373 0.0066 0.8776
C14_11 C 0.1781(9) 0.0642(12) 0.765(3)
H10_11 H 0.1639 0.0785 0.7950
C15_11 C 0.2131(9) 0.0831(12) 0.676(3)
H11_10 H 0.2240 0.1112 0.6426
C16_10 C 0.2336(8) 0.0621(11) 0.632(3)
H12_10 H 0.2584 0.0763 0.5681
N4_11 N 0.2196(6) 0.0214(8) 0.676(2)
Cd2_5 Cd 0.34748(8) 0.92496(6) 0.1704(3)
N1_11 N 0.2889(11) 0.9528(8) 0.229(3)
O1_11 O 0.2840(7) 0.9264(5) 0.114(2)
O2_6 O 0.2633(7) 0.9668(5) 0.230(2)
O3_11 O 0.3176(7) 0.9645(5) 0.332(2)
O4_12 O 0.3779(7) 0.8848(5) 0.058(2)
C1_13 C 0.5783(8) 0.9906(6) 0.660(3)
H1_13 H 0.6009 0.9877 0.6216
C2_13 C 0.5375(8) 0.9604(6) 0.608(2)
H2_13 H 0.5334 0.9382 0.5369
C3_13 C 0.5037(7) 0.9637(5) 0.662(2)
C4_12 C 0.5122(8) 0.9970(6) 0.766(3)
C6_13 C 0.4592(7) 0.9340(5) 0.604(2)
C7_13 C 0.4487(8) 0.8970(6) 0.515(2)
H5_13 H 0.4698 0.8904 0.4925
C8_13 C 0.4075(8) 0.8693(6) 0.459(2)
H6_13 H 0.4012 0.8447 0.4002
C9_13 C 0.3764(8) 0.8792(6) 0.493(2)
C10_13 C 0.3851(8) 0.9154(6) 0.581(2)
H7_13 H 0.3639 0.9218 0.6041
C11_13 C 0.4266(8) 0.9425(5) 0.635(2)
H8_12 H 0.4326 0.9670 0.6948
C12_12 C 0.3317(10) 0.8496(7) 0.431(3)
C13_12 C 0.3124(11) 0.8078(7) 0.480(3)
H9_12 H 0.3268 0.7974 0.5442
C14_12 C 0.2692(12) 0.7806(8) 0.431(3)
H10_12 H 0.2549 0.7521 0.4616
C15_12 C 0.2503(12) 0.7967(8) 0.342(3)
H11_11 H 0.2222 0.7795 0.3092
C16_11 C 0.2713(11) 0.8382(8) 0.298(3)
H12_11 H 0.2571 0.8488 0.2347
N4_12 N 0.3120(8) 0.8649(6) 0.342(2)
Cd2_6 Cd 0.24415(10) 0.98586(8) 0.5038(3)
N5_7 N 0.4132(6) 0.9772(5) 0.240(2)
N3_6 N 0.2306(4) 0.9201(6) 0.573(2)
C1_14 C 0.2543(6) 0.9116(8) 0.673(3)
H1_14 H 0.2798 0.9342 0.7117
C2_14 C 0.2437(6) 0.8708(8) 0.725(2)
H2_14 H 0.2618 0.8667 0.7964
C3_14 C 0.2066(5) 0.8370(7) 0.671(2)
C4_13 C 0.1818(6) 0.8455(8) 0.567(3)
H3_12 H 0.1561 0.8235 0.5259
C5_12 C 0.1950(6) 0.8873(8) 0.521(3)
H4_12 H 0.1775 0.8923 0.4493
C6_14 C 0.1918(5) 0.7925(7) 0.729(2)
C7_14 C 0.2183(6) 0.7820(8) 0.818(2)
H5_14 H 0.2460 0.8031 0.8408
C8_14 C 0.2048(6) 0.7408(8) 0.874(2)
H6_14 H 0.2231 0.7345 0.9331
C9_14 C 0.1638(5) 0.7097(8) 0.840(2)
C10_14 C 0.1363(6) 0.7184(8) 0.752(2)
H7_14 H 0.1087 0.6972 0.7292
C11_14 C 0.1507(6) 0.7599(8) 0.698(2)
H8_13 H 0.1322 0.7659 0.6385
C12_13 C 0.1487(7) 0.6650(10) 0.902(3)
C13_13 C 0.1712(8) 0.6457(11) 0.853(3)
H9_13 H 0.1960 0.6601 0.7891
C14_13 C 0.1552(9) 0.6025(12) 0.902(3)
H10_13 H 0.1694 0.5882 0.8717
C15_13 C 0.1202(9) 0.5836(12) 0.991(3)
N4_13 N 0.1137(6) 0.6453(8) 0.991(2)
H3_13 H 0.5098 0.9993 0.1926
C5_13 C 0.4460(8) 0.9744(6) 0.188(3)
H4_13 H 0.4410 0.9519 0.1160
N2_10 N 0.1815(6) 0.9867(8) 0.297(3)
O4_13 O 0.1736(5) 0.9555(7) 0.392(2)
O5_10 O 0.1527(6) 0.9874(8) 0.216(3)
C1_15 C 0.0790(6) 0.7551(8) 0.994(3)
H1_15 H 0.0535 0.7325 0.9550
C2_15 C 0.0896(6) 0.7959(8) 0.942(2)
H2_15 H 0.0715 0.8000 0.8703
C3_15 C 0.1267(5) 0.8297(7) 0.996(2)
C6_15 C 0.1415(5) 0.8742(7) 0.938(2)
C7_15 C 0.1150(6) 0.8847(8) 0.849(2)
H5_15 H 0.0873 0.8636 0.8259
C8_15 C 0.1285(6) 0.9259(8) 0.793(2)
H6_15 H 0.1102 0.9322 0.7336
C9_15 C 0.1695(5) 0.9570(8) 0.827(2)
C10_15 C 0.1970(6) 0.9483(8) 0.915(2)
H7_15 H 0.2246 0.9695 0.9375
C11_15 C 0.1826(6) 0.9068(8) 0.969(2)
O2_7 O 0.3665(5) 0.9631(5) 0.897(2)
N2_11 N 0.3467(8) 0.8615(6) 0.963(3)
O5_11 O 0.3460(8) 0.8320(6) 0.882(3)
O6_9 O 0.3188(7) 0.8706(5) 0.952(2)
O2_8 O 0.0369(5) 0.4034(7) 0.897(2)
N2_12 N 0.1385(6) 0.4851(6) 0.963(3)
O5_12 O 0.1680(6) 0.5139(6) 0.882(3)
O6_10 O 0.1294(5) 0.4481(5) 0.952(2)
N3_7 N 0.7694(4) 0.0799(6) 0.427(2)
C1_16 C 0.7457(6) 0.0884(8) 0.327(3)
H1_16 H 0.7202 0.0658 0.2883
C2_16 C 0.7563(6) 0.1292(8) 0.275(2)
H2_16 H 0.7382 0.1333 0.2036
C3_16 C 0.7934(5) 0.1630(7) 0.329(2)
C4_14 C 0.8182(6) 0.1545(8) 0.433(3)
H3_14 H 0.8439 0.1765 0.4741
C5_14 C 0.8050(6) 0.1127(8) 0.479(3)
H4_14 H 0.8225 0.1077 0.5507
C6_16 C 0.8082(5) 0.2075(7) 0.271(2)
C7_16 C 0.7817(6) 0.2180(8) 0.182(2)
H5_16 H 0.7540 0.1969 0.1592
C8_16 C 0.7952(6) 0.2592(8) 0.126(2)
H6_16 H 0.7769 0.2655 0.0669
C9_16 C 0.8362(5) 0.2903(8) 0.160(2)
C10_16 C 0.8637(6) 0.2816(8) 0.248(2)
H7_16 H 0.8913 0.3028 0.2708
C11_16 C 0.8493(6) 0.2401(8) 0.302(2)
H8_14 H 0.8678 0.2341 0.3615
C12_14 C 0.8513(7) 0.3350(10) 0.098(3)
C13_14 C 0.8288(8) 0.3543(11) 0.147(3)
H9_14 H 0.8040 0.3399 0.2109
C14_14 C 0.8448(9) 0.3975(12) 0.098(3)
H10_14 H 0.8306 0.4118 0.1283
C15_14 C 0.8798(9) 0.4164(12) 0.009(3)
N4_14 N 0.8863(6) 0.3547(8) 0.009(2)
Cd3_5 Cd 0.75585(5) 0.01414(8) 0.4962(3)
N3_8 N 0.5868(6) 0.0228(5) 0.760(2)
H3_15 H 0.4902 0.0007 0.8074
C5_15 C 0.5540(8) 0.0256(6) 0.812(3)
H4_15 H 0.5590 0.0481 0.8840
Cd3_6 Cd 0.65252(8) 0.07504(6) 0.8296(3)
N2_13 N 0.8185(6) 0.0133(8) 0.703(3)
O4_14 O 0.8264(5) 0.0445(7) 0.608(2)
O5_13 O 0.8473(6) 0.0126(8) 0.784(3)
C1_17 C 0.9210(6) 0.2449(8) 0.006(3)
H1_17 H 0.9465 0.2675 0.0450
C2_17 C 0.9104(6) 0.2041(8) 0.058(2)
H2_17 H 0.9285 0.2000 0.1297
C3_17 C 0.8733(5) 0.1703(7) 0.004(2)
C6_17 C 0.8585(5) 0.1258(7) 0.062(2)
C7_17 C 0.8850(6) 0.1153(8) 0.151(2)
H5_17 H 0.9127 0.1364 0.1741
C8_17 C 0.8715(6) 0.0741(8) 0.207(2)
H6_17 H 0.8898 0.0678 0.2664
C9_17 C 0.8305(5) 0.0430(8) 0.173(2)
C10_17 C 0.8030(6) 0.0517(8) 0.085(2)
H7_17 H 0.7754 0.0305 0.0625
C11_17 C 0.8174(6) 0.0932(8) 0.031(2)
O7_5 O 0.7367(7) 0.0332(9) 0.770(2)
N1_12 N 0.7111(11) 0.0472(8) 0.771(3)
O1_12 O 0.7160(7) 0.0736(5) 0.886(2)
O3_12 O 0.6824(7) 0.0355(5) 0.668(2)
O4_15 O 0.6221(7) 0.1152(5) 0.942(2)
C1_18 C 0.4217(8) 0.0094(6) 0.340(3)
H1_18 H 0.3991 0.0123 0.3784
C2_18 C 0.4625(8) 0.0396(6) 0.392(2)
H2_18 H 0.4666 0.0618 0.4631
C3_18 C 0.4963(7) 0.0363(5) 0.338(2)
C4_15 C 0.4878(8) 0.0030(6) 0.234(3)
C6_18 C 0.5408(7) 0.0660(5) 0.396(2)
C7_18 C 0.5513(8) 0.1030(6) 0.485(2)
H5_18 H 0.5302 0.1096 0.5075
C8_18 C 0.5925(8) 0.1307(6) 0.541(2)
H6_18 H 0.5988 0.1553 0.5998
C9_18 C 0.6236(8) 0.1208(6) 0.507(2)
C10_18 C 0.6149(8) 0.0846(6) 0.419(2)
H7_18 H 0.6361 0.0782 0.3959
C11_18 C 0.5734(8) 0.0575(5) 0.365(2)
H8_15 H 0.5674 0.0330 0.3052
C12_15 C 0.6683(10) 0.1504(7) 0.569(3)
C13_15 C 0.6876(11) 0.1922(7) 0.520(3)
H9_15 H 0.6732 0.2026 0.4558
C14_15 C 0.7308(12) 0.2194(8) 0.569(3)
H10_15 H 0.7451 0.2479 0.5384
C15_15 C 0.7497(12) 0.2033(8) 0.658(3)
H11_12 H 0.7778 0.2205 0.6908
C16_12 C 0.7287(11) 0.1618(8) 0.702(3)
H12_12 H 0.7429 0.1512 0.7653
N4_15 N 0.6880(8) 0.1351(6) 0.658(2)
Cd1_4 Cd 0.91082(5) 0.31919(8) 0.8371(3)
N1_13 N 0.9973(7) 0.3778(11) 0.896(3)
O1_13 O 0.9758(5) 0.3827(7) 0.781(2)
O3_13 O 0.9803(5) 0.3491(7) 0.999(2)
N2_14 N 0.8482(6) 0.3200(8) 0.630(3)
O4_16 O 0.8403(5) 0.2888(7) 0.725(2)
O5_14 O 0.8194(6) 0.3207(8) 0.549(3)
O6_11 O 0.8852(5) 0.3479(7) 0.619(2)
H11_13 H 0.8907 0.4445 0.9759
C16_13 C 0.9003(8) 0.3954(11) 0.965(3)
H12_13 H 0.9251 0.4096 0.9014
O7_6 O 0.9299(7) 0.3002(9) 0.564(2)
N5_8 N 0.8973(4) 0.2534(6) 0.906(2)
C4_16 C 0.8485(6) 0.1788(8) 0.900(3)
H3_16 H 0.8228 0.1568 0.8592
C5_16 C 0.8617(6) 0.2206(8) 0.854(3)
H4_16 H 0.8442 0.2256 0.7826
H8_16 H 0.7989 0.0992 0.9718
N1_14 N 0.9555(11) 0.2862(8) 0.563(3)
O1_14 O 0.9506(7) 0.2598(5) 0.448(2)
O3_14 O 0.9842(7) 0.2979(5) 0.666(2)
O6_12 O 0.9854(7) 0.2040(5) 0.286(2)
C12_16 C 0.9983(10) 0.1830(7) 0.765(3)
C13_16 C 0.9790(11) 0.1412(7) 0.814(3)
H9_16 H 0.9934 0.1308 0.8776
C14_16 C 0.9358(12) 0.1140(8) 0.765(3)
H10_16 H 0.9215 0.0855 0.7950
C15_16 C 0.9169(12) 0.1301(8) 0.676(3)
H11_14 H 0.8888 0.1129 0.6426
C16_14 C 0.9379(11) 0.1716(8) 0.632(3)
H12_14 H 0.9237 0.1822 0.5681
N4_16 N 0.9786(8) 0.1983(6) 0.676(2)
N3_9 N 0.6438(5) 0.8973(4) 0.094(2)
C4_17 C 0.6696(6) 0.8485(6) 0.100(3)
H3_17 H 0.6659 0.8228 0.1408
C5_17 C 0.6410(6) 0.8617(6) 0.146(3)
H4_17 H 0.6185 0.8442 0.2174
H8_17 H 0.6996 0.7989 0.0282
Cd3_7 Cd 0.59163(6) 0.91082(5) 0.1629(3)
N1_15 N 0.6694(7) 0.9555(11) 0.437(3)
O1_15 O 0.6909(5) 0.9506(7) 0.552(2)
O2_9 O 0.6298(5) 0.9299(7) 0.436(2)
O3_15 O 0.6864(5) 0.9842(7) 0.334(2)
O6_13 O 0.7815(5) 0.9854(7) 0.714(2)
C12_17 C 0.8154(7) 0.9983(10) 0.235(3)
C13_17 C 0.8379(8) 0.9790(11) 0.186(3)
H9_17 H 0.8627 0.9934 0.1224
C14_17 C 0.8219(9) 0.9358(12) 0.235(3)
H10_17 H 0.8361 0.9215 0.2050
C15_17 C 0.7869(9) 0.9169(12) 0.324(3)
H11_15 H 0.7760 0.8888 0.3574
C16_15 C 0.7664(8) 0.9379(11) 0.368(3)
H12_15 H 0.7416 0.9237 0.4319
N4_17 N 0.7804(6) 0.9786(8) 0.324(2)
N1_16 N 0.6195(8) 0.9973(7) 0.104(3)
O1_16 O 0.5931(5) 0.9758(5) 0.219(2)
O3_16 O 0.6312(5) 0.9803(5) 0.001(2)
N2_15 N 0.5282(6) 0.8482(6) 0.370(3)
O4_17 O 0.5515(5) 0.8403(5) 0.275(2)
O5_15 O 0.4987(6) 0.8194(6) 0.451(3)
O6_14 O 0.5373(5) 0.8852(5) 0.381(2)
H11_16 H 0.4462 0.8907 0.0241
C16_16 C 0.5049(8) 0.9003(8) 0.035(3)
H12_16 H 0.5155 0.9251 0.0986
N1_17 N 0.0445(11) 0.7138(8) 0.437(3)
O1_17 O 0.0494(7) 0.7402(5) 0.552(2)
O2_10 O 0.0701(7) 0.6998(5) 0.436(2)
O3_17 O 0.0158(7) 0.7021(5) 0.334(2)
O6_15 O 0.0146(7) 0.7960(5) 0.714(2)
C12_18 C 0.0017(10) 0.8170(7) 0.235(3)
C13_18 C 0.0210(11) 0.8588(7) 0.186(3)
H9_18 H 0.0066 0.8692 0.1224
C14_18 C 0.0642(12) 0.8860(8) 0.235(3)
H10_18 H 0.0785 0.9145 0.2050
C15_18 C 0.0831(12) 0.8699(8) 0.324(3)
H11_17 H 0.1112 0.8871 0.3574
C16_17 C 0.0621(11) 0.8284(8) 0.368(3)
H12_17 H 0.0763 0.8178 0.4319
N4_18 N 0.0214(8) 0.8017(6) 0.324(2)
Cd2_7 Cd 0.08918(10) 0.68081(8) 0.1629(3)
N1_18 N 0.0027(7) 0.6222(11) 0.104(3)
O1_18 O 0.0242(5) 0.6173(7) 0.219(2)
O3_18 O 0.0197(5) 0.6509(7) 0.001(2)
N2_16 N 0.1518(6) 0.6800(8) 0.370(3)
O4_18 O 0.1597(5) 0.7112(7) 0.275(2)
O5_16 O 0.1806(6) 0.6793(8) 0.451(3)
O6_16 O 0.1148(5) 0.6521(7) 0.381(2)
H11_18 H 0.1093 0.5555 0.0241
C16_18 C 0.0997(8) 0.6046(11) 0.035(3)
H12_18 H 0.0749 0.5904 0.0986
N5_9 N 0.1027(4) 0.7466(6) 0.094(2)
C4_18 C 0.1515(6) 0.8212(8) 0.100(3)
H3_18 H 0.1772 0.8432 0.1408
C5_18 C 0.1383(6) 0.7794(8) 0.146(3)
H4_18 H 0.1558 0.7744 0.2174
H8_18 H 0.2011 0.9008 0.0282
O2_11 O 0.6335(5) 0.0369(5) 0.103(2)
N2_17 N 0.6533(8) 0.1385(6) 0.037(3)
O5_17 O 0.6540(8) 0.1680(6) 0.118(3)
O6_17 O 0.6812(7) 0.1294(5) 0.048(2)
O2_12 O 0.9631(5) 0.5966(7) 0.103(2)
N2_18 N 0.8615(6) 0.5149(6) 0.037(3)
O5_18 O 0.8320(6) 0.4861(6) 0.118(3)
O6_18 O 0.8706(5) 0.5519(5) 0.048(2)
loop_
_geom_bond_atom_site_label_1
_geom_bond_atom_site_label_2
_geom_bond_site_symmetry_1
_geom_bond_site_symmetry_2
N3 C1 1_555 1_555
C1 H1 1_555 1_555
C2 C1 1_555 1_555
H2 C2 1_555 1_555
C3 C2 1_555 1_555
C4 C3 1_555 1_555
H3 C4 1_555 1_555
C5 N3 1_555 1_555
H4 C5 1_555 1_555
C6 C3 1_555 1_555
C7 C6 1_555 1_555
H5 C7 1_555 1_555
C8 C7 1_555 1_555
H6 C8 1_555 1_555
C9 C8 1_555 1_555
C10 C9 1_555 1_555
H7 C10 1_555 1_555
C11 C6 1_555 1_555
H8 C11 1_555 1_555
C12 C9 1_555 1_555
C13 C12 1_555 1_555
H9 C13 1_555 1_555
C14 C13 1_555 1_555
H10 C14 1_555 1_555
C15 C14 1_555 1_555
Cd3 N3 1_555 1_555
C4 C5 1_555 1_555
C10 C11 1_555 1_555
C12 N4 1_555 1_555
N3_2 C1_2 1_555 1_555
C1_2 H1_2 1_555 1_555
C2_2 C1_2 1_555 1_555
H2_2 C2_2 1_555 1_555
C3_2 C2_2 1_555 1_555
C4_2 C3_2 1_555 1_555
H3_2 C4_2 1_555 1_555
C5_2 N3_2 1_555 1_555
H4_2 C5_2 1_555 1_555
C6_2 C3_2 1_555 1_555
C7_2 C6_2 1_555 1_555
H5_2 C7_2 1_555 1_555
C8_2 C7_2 1_555 1_555
H6_2 C8_2 1_555 1_555
C9_2 C8_2 1_555 1_555
C10_2 C9_2 1_555 1_555
H7_2 C10_2 1_555 1_555
C11_2 C6_2 1_555 1_555
H8_2 C11_2 1_555 1_555
C12_2 C9_2 1_555 1_555
C13_2 C12_2 1_555 1_555
H9_2 C13_2 1_555 1_555
C14_2 C13_2 1_555 1_555
H10_2 C14_2 1_555 1_555
C15_2 C14_2 1_555 1_555
Cd3_2 N3_2 1_555 1_555
C4_2 C5_2 1_555 1_555
C10_2 C11_2 1_555 1_555
C12_2 N4_2 1_555 1_555
Cd1 O1 1_555 1_555
N1 O1 1_555 1_555
O2 N1 1_555 1_555
O3 Cd1 1_555 1_555
N2 O4 1_555 1_555
O4 Cd1 1_555 1_555
O5 N2 1_555 1_555
O6 Cd1 1_555 1_555
H12 C16 1_555 1_555
O7 Cd1 1_555 1_555
N5 Cd1 1_555 1_555
N1 O3 1_555 1_555
N2 O6 1_555 1_555
Cd2 O1_2 1_555 1_555
N1_2 O1_2 1_555 1_555
O2_2 N1_2 1_555 1_555
O3_2 Cd2 1_555 1_555
O4_2 Cd2 1_555 1_555
C1_3 H1_3 1_555 1_555
C2_3 C1_3 1_555 1_555
H2_3 C2_3 1_555 1_555
C3_3 C2_3 1_555 1_555
C4_3 C3_3 1_555 1_555
C6_3 C3_3 1_555 1_555
C7_3 C6_3 1_555 1_555
H5_3 C7_3 1_555 1_555
C8_3 C7_3 1_555 1_555
H6_3 C8_3 1_555 1_555
C9_3 C8_3 1_555 1_555
C10_3 C9_3 1_555 1_555
H7_3 C10_3 1_555 1_555
C11_3 C6_3 1_555 1_555
H8_3 C11_3 1_555 1_555
C12_3 C9_3 1_555 1_555
C13_3 C12_3 1_555 1_555
H9_3 C13_3 1_555 1_555
C14_3 C13_3 1_555 1_555
H10_3 C14_3 1_555 1_555
C15_3 C14_3 1_555 1_555
H11_2 C15_3 1_555 1_555
C16_2 C15_3 1_555 1_555
H12_2 C16_2 1_555 1_555
N4_3 Cd2 1_555 1_555
Cd2_3 O2_2 1_555 1_555
N5_2 Cd2 1_555 1_555
N1_2 O3_2 1_555 1_555
C10_3 C11_3 1_555 1_555
C12_3 N4_3 1_555 1_555
C16_2 N4_3 1_555 1_555
C5_3 N3_3 1_555 1_555
H4_3 C5_3 1_555 1_555
Cd3_3 N3_3 1_555 1_555
Cd2_2 O1_3 1_555 1_555
N1_3 O1_3 1_555 1_555
O2_3 N1_3 1_555 1_555
O3_3 Cd2_2 1_555 1_555
O4_3 Cd2_2 1_555 1_555
N3_4 C1_4 1_555 1_555
C1_4 H1_4 1_555 1_555
C2_4 C1_4 1_555 1_555
H2_4 C2_4 1_555 1_555
C3_4 C2_4 1_555 1_555
C4_4 C3_4 1_555 1_555
H3_4 C4_4 1_555 1_555
C5_4 N3_4 1_555 1_555
H4_4 C5_4 1_555 1_555
C6_4 C3_4 1_555 1_555
C7_4 C6_4 1_555 1_555
H5_4 C7_4 1_555 1_555
C8_4 C7_4 1_555 1_555
H6_4 C8_4 1_555 1_555
C9_4 C8_4 1_555 1_555
C10_4 C9_4 1_555 1_555
H7_4 C10_4 1_555 1_555
C11_4 C6_4 1_555 1_555
H8_4 C11_4 1_555 1_555
C12_4 C9_4 1_555 1_555
C13_4 C12_4 1_555 1_555
H9_4 C13_4 1_555 1_555
C14_4 C13_4 1_555 1_555
H10_4 C14_4 1_555 1_555
C15_4 C14_4 1_555 1_555
H11_3 C15_4 1_555 1_555
C16_3 C15_4 1_555 1_555
H12_3 C16_3 1_555 1_555
N4_4 Cd2_2 1_555 1_555
Cd2_4 O2_3 1_555 1_555
Cd3_4 N3_4 1_555 1_555
N5_3 Cd2_2 1_555 1_555
N1_3 O3_3 1_555 1_555
C4_4 C5_4 1_555 1_555
C10_4 C11_4 1_555 1_555
C12_4 N4_4 1_555 1_555
C16_3 N4_4 1_555 1_555
O5_2 N2_2 1_555 1_555
N2_2 O6_2 1_555 1_555
Cd2_4 O1_4 1_555 1_555
N1_4 O1_4 1_555 1_555
O7 N1_4 1_555 1_555
O3_4 Cd2_4 1_555 1_555
N2_3 O4_4 1_555 1_555
O4_4 Cd2_4 1_555 1_555
O5_3 N2_3 1_555 1_555
O6_3 Cd2_4 1_555 1_555
C1_5 H1_5 1_555 1_555
C2_5 C1_5 1_555 1_555
H2_5 C2_5 1_555 1_555
C3_5 C2_5 1_555 1_555
C6_5 C3_5 1_555 1_555
C7_5 C6_5 1_555 1_555
H5_5 C7_5 1_555 1_555
C8_5 C7_5 1_555 1_555
H6_5 C8_5 1_555 1_555
C9_5 C8_5 1_555 1_555
C10_5 C9_5 1_555 1_555
H7_5 C10_5 1_555 1_555
C11_5 C6_5 1_555 1_555
C12_5 C9_5 1_555 1_555
C13_5 C12_5 1_555 1_555
H9_5 C13_5 1_555 1_555
C14_5 C13_5 1_555 1_555
H10_5 C14_5 1_555 1_555
C15_5 C14_5 1_555 1_555
H11_4 C15_5 1_555 1_555
C16_4 C15_5 1_555 1_555
H12_4 C16_4 1_555 1_555
N4_5 Cd2_4 1_555 1_555
N5_4 Cd2_4 1_555 1_555
N1_4 O3_4 1_555 1_555
N2_3 O6_3 1_555 1_555
C10_5 C11_5 1_555 1_555
C12_5 N4_5 1_555 1_555
C16_4 N4_5 1_555 1_555
N2_4 O4_5 1_555 1_555
O4_5 Cd3_2 1_555 1_555
O5_4 N2_4 1_555 1_555
C1_6 H1_6 1_555 1_555
C2_6 C1_6 1_555 1_555
H2_6 C2_6 1_555 1_555
C3_6 C2_6 1_555 1_555
C6_6 C3_6 1_555 1_555
C7_6 C6_6 1_555 1_555
H5_6 C7_6 1_555 1_555
C8_6 C7_6 1_555 1_555
H6_6 C8_6 1_555 1_555
C9_6 C8_6 1_555 1_555
C10_6 C9_6 1_555 1_555
H7_6 C10_6 1_555 1_555
C11_6 C6_6 1_555 1_555
O7_2 Cd3_2 1_555 1_555
C10_6 C11_6 1_555 1_555
H3_5 C4_5 1_555 1_555
C5_5 N5 1_555 1_555
H4_5 C5_5 1_555 1_555
C4_5 C5_5 1_555 1_555
N5_4 C1_7 1_555 1_555
C1_7 H1_7 1_555 1_555
C2_7 C1_7 1_555 1_555
H2_7 C2_7 1_555 1_555
C3_7 C2_7 1_555 1_555
C4_6 C3_7 1_555 1_555
H3_6 C4_6 1_555 1_555
C5_6 N5_4 1_555 1_555
H4_6 C5_6 1_555 1_555
C6_7 C3_7 1_555 1_555
C7_7 C6_7 1_555 1_555
H5_7 C7_7 1_555 1_555
C8_7 C7_7 1_555 1_555
H6_7 C8_7 1_555 1_555
C9_7 C8_7 1_555 1_555
C10_7 C9_7 1_555 1_555
H7_7 C10_7 1_555 1_555
C11_7 C6_7 1_555 1_555
H8_6 C11_7 1_555 1_555
C12_6 C9_7 1_555 1_555
C13_6 C12_6 1_555 1_555
H9_6 C13_6 1_555 1_555
C14_6 C13_6 1_555 1_555
H10_6 C14_6 1_555 1_555
C15_6 C14_6 1_555 1_555
C4_6 C5_6 1_555 1_555
C10_7 C11_7 1_555 1_555
C12_6 N4_6 1_555 1_555
Cd1_2 O1_5 1_555 1_555
N1_5 O1_5 1_555 1_555
O2_4 N1_5 1_555 1_555
O3_5 Cd1_2 1_555 1_555
N2_5 O4_6 1_555 1_555
O4_6 Cd1_2 1_555 1_555
O5_5 N2_5 1_555 1_555
O6_4 Cd1_2 1_555 1_555
H12_5 C16_5 1_555 1_555
O7_3 Cd1_2 1_555 1_555
N5_5 Cd1_2 1_555 1_555
N1_5 O3_5 1_555 1_555
N2_5 O6_4 1_555 1_555
N3_5 C1_8 1_555 1_555
C1_8 H1_8 1_555 1_555
C2_8 C1_8 1_555 1_555
H2_8 C2_8 1_555 1_555
C3_8 C2_8 1_555 1_555
C4_7 C3_8 1_555 1_555
H3_7 C4_7 1_555 1_555
C5_7 N3_5 1_555 1_555
H4_7 C5_7 1_555 1_555
C6_8 C3_8 1_555 1_555
C7_8 C6_8 1_555 1_555
H5_8 C7_8 1_555 1_555
C8_8 C7_8 1_555 1_555
H6_8 C8_8 1_555 1_555
C9_8 C8_8 1_555 1_555
C10_8 C9_8 1_555 1_555
H7_8 C10_8 1_555 1_555
C11_8 C6_8 1_555 1_555
H8_7 C11_8 1_555 1_555
C12_7 C9_8 1_555 1_555
C13_7 C12_7 1_555 1_555
H9_7 C13_7 1_555 1_555
C14_7 C13_7 1_555 1_555
H10_7 C14_7 1_555 1_555
C15_7 C14_7 1_555 1_555
Cd2_3 N3_5 1_555 1_555
C4_7 C5_7 1_555 1_555
C10_8 C11_8 1_555 1_555
C12_7 N4_7 1_555 1_555
C5_8 N5_2 1_555 1_555
H4_8 C5_8 1_555 1_555
Cd3_3 O1_6 1_555 1_555
N1_6 O1_6 1_555 1_555
O7_2 N1_6 1_555 1_555
O3_6 Cd3_3 1_555 1_555
O4_7 Cd3_3 1_555 1_555
C1_9 H1_9 1_555 1_555
C2_9 C1_9 1_555 1_555
H2_9 C2_9 1_555 1_555
C3_9 C2_9 1_555 1_555
C4_8 C3_9 1_555 1_555
C6_9 C3_9 1_555 1_555
C7_9 C6_9 1_555 1_555
H5_9 C7_9 1_555 1_555
C8_9 C7_9 1_555 1_555
H6_9 C8_9 1_555 1_555
C9_9 C8_9 1_555 1_555
C10_9 C9_9 1_555 1_555
H7_9 C10_9 1_555 1_555
C11_9 C6_9 1_555 1_555
H8_8 C11_9 1_555 1_555
C12_8 C9_9 1_555 1_555
C13_8 C12_8 1_555 1_555
H9_8 C13_8 1_555 1_555
C14_8 C13_8 1_555 1_555
H10_8 C14_8 1_555 1_555
C15_8 C14_8 1_555 1_555
H11_6 C15_8 1_555 1_555
C16_6 C15_8 1_555 1_555
H12_6 C16_6 1_555 1_555
N4_8 Cd3_3 1_555 1_555
N1_6 O3_6 1_555 1_555
C10_9 C11_9 1_555 1_555
C12_8 N4_8 1_555 1_555
C16_6 N4_8 1_555 1_555
O5_6 N2_6 1_555 1_555
N2_6 O6_5 1_555 1_555
Cd3_4 O1_7 1_555 1_555
N1_7 O1_7 1_555 1_555
O2_5 N1_7 1_555 1_555
O3_7 Cd3_4 1_555 1_555
O4_8 Cd3_4 1_555 1_555
N5_3 C1_10 1_555 1_555
C1_10 H1_10 1_555 1_555
C2_10 C1_10 1_555 1_555
H2_10 C2_10 1_555 1_555
C3_10 C2_10 1_555 1_555
C4_9 C3_10 1_555 1_555
H3_9 C4_9 1_555 1_555
C5_9 N5_3 1_555 1_555
H4_9 C5_9 1_555 1_555
C6_10 C3_10 1_555 1_555
C7_10 C6_10 1_555 1_555
H5_10 C7_10 1_555 1_555
C8_10 C7_10 1_555 1_555
H6_10 C8_10 1_555 1_555
C9_10 C8_10 1_555 1_555
C10_10 C9_10 1_555 1_555
H7_10 C10_10 1_555 1_555
C11_10 C6_10 1_555 1_555
H8_9 C11_10 1_555 1_555
C12_9 C9_10 1_555 1_555
C13_9 C12_9 1_555 1_555
H9_9 C13_9 1_555 1_555
C14_9 C13_9 1_555 1_555
H10_9 C14_9 1_555 1_555
C15_9 C14_9 1_555 1_555
H11_7 C15_9 1_555 1_555
C16_7 C15_9 1_555 1_555
H12_7 C16_7 1_555 1_555
N4_9 Cd3_4 1_555 1_555
Cd3 O2_5 1_555 1_555
N1_7 O3_7 1_555 1_555
C4_9 C5_9 1_555 1_555
C10_10 C11_10 1_555 1_555
C12_9 N4_9 1_555 1_555
C16_7 N4_9 1_555 1_555
Cd3 O1_8 1_555 1_555
N1_8 O1_8 1_555 1_555
O7_3 N1_8 1_555 1_555
O3_8 Cd3 1_555 1_555
N2_7 O4_9 1_555 1_555
O4_9 Cd3 1_555 1_555
O5_7 N2_7 1_555 1_555
O6_6 Cd3 1_555 1_555
C1_11 H1_11 1_555 1_555
C2_11 C1_11 1_555 1_555
H2_11 C2_11 1_555 1_555
C3_11 C2_11 1_555 1_555
C6_11 C3_11 1_555 1_555
C7_11 C6_11 1_555 1_555
H5_11 C7_11 1_555 1_555
C8_11 C7_11 1_555 1_555
H6_11 C8_11 1_555 1_555
C9_11 C8_11 1_555 1_555
C10_11 C9_11 1_555 1_555
H7_11 C10_11 1_555 1_555
C11_11 C6_11 1_555 1_555
C12_10 C9_11 1_555 1_555
C13_10 C12_10 1_555 1_555
H9_10 C13_10 1_555 1_555
C14_10 C13_10 1_555 1_555
H10_10 C14_10 1_555 1_555
C15_10 C14_10 1_555 1_555
H11_8 C15_10 1_555 1_555
C16_8 C15_10 1_555 1_555
H12_8 C16_8 1_555 1_555
N4_10 Cd3 1_555 1_555
N1_8 O3_8 1_555 1_555
N2_7 O6_6 1_555 1_555
C10_11 C11_11 1_555 1_555
C12_10 N4_10 1_555 1_555
C16_8 N4_10 1_555 1_555
H3_10 C4_10 1_555 1_555
C5_10 N5_5 1_555 1_555
H4_10 C5_10 1_555 1_555
C4_10 C5_10 1_555 1_555
N2_8 O4_10 1_555 1_555
O4_10 Cd2_3 1_555 1_555
O5_8 N2_8 1_555 1_555
C1_12 H1_12 1_555 1_555
C2_12 C1_12 1_555 1_555
H2_12 C2_12 1_555 1_555
C3_12 C2_12 1_555 1_555
C6_12 C3_12 1_555 1_555
C7_12 C6_12 1_555 1_555
H5_12 C7_12 1_555 1_555
C8_12 C7_12 1_555 1_555
H6_12 C8_12 1_555 1_555
C9_12 C8_12 1_555 1_555
C10_12 C9_12 1_555 1_555
H7_12 C10_12 1_555 1_555
C11_12 C6_12 1_555 1_555
C10_12 C11_12 1_555 1_555
Cd1_3 O1_9 1_555 1_555
N1_9 O1_9 1_555 1_555
O3_9 Cd1_3 1_555 1_555
N2_9 O4_11 1_555 1_555
O4_11 Cd1_3 1_555 1_555
O5_9 N2_9 1_555 1_555
O6_7 Cd1_3 1_555 1_555
H12_9 C16_9 1_555 1_555
O7_4 Cd1_3 1_555 1_555
N5_6 Cd1_3 1_555 1_555
N1_9 O3_9 1_555 1_555
N2_9 O6_7 1_555 1_555
H3_11 C4_11 1_555 1_555
C5_11 N5_6 1_555 1_555
H4_11 C5_11 1_555 1_555
C4_11 C5_11 1_555 1_555
N1_10 O1_10 1_555 1_555
O7_4 N1_10 1_555 1_555
C13_11 C12_11 1_555 1_555
H9_11 C13_11 1_555 1_555
C14_11 C13_11 1_555 1_555
H10_11 C14_11 1_555 1_555
C15_11 C14_11 1_555 1_555
H11_10 C15_11 1_555 1_555
C16_10 C15_11 1_555 1_555
H12_10 C16_10 1_555 1_555
N1_10 O3_10 1_555 1_555
C12_11 N4_11 1_555 1_555
C16_10 N4_11 1_555 1_555
Cd2_5 O1_11 1_555 1_555
N1_11 O1_11 1_555 1_555
O2_6 N1_11 1_555 1_555
O3_11 Cd2_5 1_555 1_555
O4_12 Cd2_5 1_555 1_555
C1_13 H1_13 1_555 1_555
C2_13 C1_13 1_555 1_555
H2_13 C2_13 1_555 1_555
C3_13 C2_13 1_555 1_555
C4_12 C3_13 1_555 1_555
C6_13 C3_13 1_555 1_555
C7_13 C6_13 1_555 1_555
H5_13 C7_13 1_555 1_555
C8_13 C7_13 1_555 1_555
H6_13 C8_13 1_555 1_555
C9_13 C8_13 1_555 1_555
C10_13 C9_13 1_555 1_555
H7_13 C10_13 1_555 1_555
C11_13 C6_13 1_555 1_555
H8_12 C11_13 1_555 1_555
C12_12 C9_13 1_555 1_555
C13_12 C12_12 1_555 1_555
H9_12 C13_12 1_555 1_555
C14_12 C13_12 1_555 1_555
H10_12 C14_12 1_555 1_555
C15_12 C14_12 1_555 1_555
H11_11 C15_12 1_555 1_555
C16_11 C15_12 1_555 1_555
H12_11 C16_11 1_555 1_555
N4_12 Cd2_5 1_555 1_555
Cd2_6 O2_6 1_555 1_555
N5_7 Cd2_5 1_555 1_555
N1_11 O3_11 1_555 1_555
C10_13 C11_13 1_555 1_555
C12_12 N4_12 1_555 1_555
C16_11 N4_12 1_555 1_555
N3_6 C1_14 1_555 1_555
C1_14 H1_14 1_555 1_555
C2_14 C1_14 1_555 1_555
H2_14 C2_14 1_555 1_555
C3_14 C2_14 1_555 1_555
C4_13 C3_14 1_555 1_555
H3_12 C4_13 1_555 1_555
C5_12 N3_6 1_555 1_555
H4_12 C5_12 1_555 1_555
C6_14 C3_14 1_555 1_555
C7_14 C6_14 1_555 1_555
H5_14 C7_14 1_555 1_555
C8_14 C7_14 1_555 1_555
H6_14 C8_14 1_555 1_555
C9_14 C8_14 1_555 1_555
C10_14 C9_14 1_555 1_555
H7_14 C10_14 1_555 1_555
C11_14 C6_14 1_555 1_555
H8_13 C11_14 1_555 1_555
C12_13 C9_14 1_555 1_555
C13_13 C12_13 1_555 1_555
H9_13 C13_13 1_555 1_555
C14_13 C13_13 1_555 1_555
H10_13 C14_13 1_555 1_555
C15_13 C14_13 1_555 1_555
Cd2_6 N3_6 1_555 1_555
C4_13 C5_12 1_555 1_555
C10_14 C11_14 1_555 1_555
C12_13 N4_13 1_555 1_555
C5_13 N5_7 1_555 1_555
H4_13 C5_13 1_555 1_555
N2_10 O4_13 1_555 1_555
O4_13 Cd2_6 1_555 1_555
O5_10 N2_10 1_555 1_555
C1_15 H1_15 1_555 1_555
C2_15 C1_15 1_555 1_555
H2_15 C2_15 1_555 1_555
C3_15 C2_15 1_555 1_555
C6_15 C3_15 1_555 1_555
C7_15 C6_15 1_555 1_555
H5_15 C7_15 1_555 1_555
C8_15 C7_15 1_555 1_555
H6_15 C8_15 1_555 1_555
C9_15 C8_15 1_555 1_555
C10_15 C9_15 1_555 1_555
H7_15 C10_15 1_555 1_555
C11_15 C6_15 1_555 1_555
C10_15 C11_15 1_555 1_555
O5_11 N2_11 1_555 1_555
N2_11 O6_9 1_555 1_555
O5_12 N2_12 1_555 1_555
N2_12 O6_10 1_555 1_555
N3_7 C1_16 1_555 1_555
C1_16 H1_16 1_555 1_555
C2_16 C1_16 1_555 1_555
H2_16 C2_16 1_555 1_555
C3_16 C2_16 1_555 1_555
C4_14 C3_16 1_555 1_555
H3_14 C4_14 1_555 1_555
C5_14 N3_7 1_555 1_555
H4_14 C5_14 1_555 1_555
C6_16 C3_16 1_555 1_555
C7_16 C6_16 1_555 1_555
H5_16 C7_16 1_555 1_555
C8_16 C7_16 1_555 1_555
H6_16 C8_16 1_555 1_555
C9_16 C8_16 1_555 1_555
C10_16 C9_16 1_555 1_555
H7_16 C10_16 1_555 1_555
C11_16 C6_16 1_555 1_555
H8_14 C11_16 1_555 1_555
C12_14 C9_16 1_555 1_555
C13_14 C12_14 1_555 1_555
H9_14 C13_14 1_555 1_555
C14_14 C13_14 1_555 1_555
H10_14 C14_14 1_555 1_555
C15_14 C14_14 1_555 1_555
Cd3_5 N3_7 1_555 1_555
C4_14 C5_14 1_555 1_555
C10_16 C11_16 1_555 1_555
C12_14 N4_14 1_555 1_555
C5_15 N3_8 1_555 1_555
H4_15 C5_15 1_555 1_555
Cd3_6 N3_8 1_555 1_555
N2_13 O4_14 1_555 1_555
O4_14 Cd3_5 1_555 1_555
O5_13 N2_13 1_555 1_555
C1_17 H1_17 1_555 1_555
C2_17 C1_17 1_555 1_555
H2_17 C2_17 1_555 1_555
C3_17 C2_17 1_555 1_555
C6_17 C3_17 1_555 1_555
C7_17 C6_17 1_555 1_555
H5_17 C7_17 1_555 1_555
C8_17 C7_17 1_555 1_555
H6_17 C8_17 1_555 1_555
C9_17 C8_17 1_555 1_555
C10_17 C9_17 1_555 1_555
H7_17 C10_17 1_555 1_555
C11_17 C6_17 1_555 1_555
O7_5 Cd3_5 1_555 1_555
C10_17 C11_17 1_555 1_555
Cd3_6 O1_12 1_555 1_555
N1_12 O1_12 1_555 1_555
O7_5 N1_12 1_555 1_555
O3_12 Cd3_6 1_555 1_555
O4_15 Cd3_6 1_555 1_555
C1_18 H1_18 1_555 1_555
C2_18 C1_18 1_555 1_555
H2_18 C2_18 1_555 1_555
C3_18 C2_18 1_555 1_555
C4_15 C3_18 1_555 1_555
C6_18 C3_18 1_555 1_555
C7_18 C6_18 1_555 1_555
H5_18 C7_18 1_555 1_555
C8_18 C7_18 1_555 1_555
H6_18 C8_18 1_555 1_555
C9_18 C8_18 1_555 1_555
C10_18 C9_18 1_555 1_555
H7_18 C10_18 1_555 1_555
C11_18 C6_18 1_555 1_555
H8_15 C11_18 1_555 1_555
C12_15 C9_18 1_555 1_555
C13_15 C12_15 1_555 1_555
H9_15 C13_15 1_555 1_555
C14_15 C13_15 1_555 1_555
H10_15 C14_15 1_555 1_555
C15_15 C14_15 1_555 1_555
H11_12 C15_15 1_555 1_555
C16_12 C15_15 1_555 1_555
H12_12 C16_12 1_555 1_555
N4_15 Cd3_6 1_555 1_555
N1_12 O3_12 1_555 1_555
C10_18 C11_18 1_555 1_555
C12_15 N4_15 1_555 1_555
C16_12 N4_15 1_555 1_555
Cd1_4 O1_13 1_555 1_555
N1_13 O1_13 1_555 1_555
O3_13 Cd1_4 1_555 1_555
N2_14 O4_16 1_555 1_555
O4_16 Cd1_4 1_555 1_555
O5_14 N2_14 1_555 1_555
O6_11 Cd1_4 1_555 1_555
H12_13 C16_13 1_555 1_555
O7_6 Cd1_4 1_555 1_555
N5_8 Cd1_4 1_555 1_555
N1_13 O3_13 1_555 1_555
N2_14 O6_11 1_555 1_555
H3_16 C4_16 1_555 1_555
C5_16 N5_8 1_555 1_555
H4_16 C5_16 1_555 1_555
C4_16 C5_16 1_555 1_555
N1_14 O1_14 1_555 1_555
O7_6 N1_14 1_555 1_555
C13_16 C12_16 1_555 1_555
H9_16 C13_16 1_555 1_555
C14_16 C13_16 1_555 1_555
H10_16 C14_16 1_555 1_555
C15_16 C14_16 1_555 1_555
H11_14 C15_16 1_555 1_555
C16_14 C15_16 1_555 1_555
H12_14 C16_14 1_555 1_555
N1_14 O3_14 1_555 1_555
C12_16 N4_16 1_555 1_555
C16_14 N4_16 1_555 1_555
H3_17 C4_17 1_555 1_555
C5_17 N3_9 1_555 1_555
H4_17 C5_17 1_555 1_555
Cd3_7 N3_9 1_555 1_555
C4_17 C5_17 1_555 1_555
N1_15 O1_15 1_555 1_555
O2_9 N1_15 1_555 1_555
C13_17 C12_17 1_555 1_555
H9_17 C13_17 1_555 1_555
C14_17 C13_17 1_555 1_555
H10_17 C14_17 1_555 1_555
C15_17 C14_17 1_555 1_555
H11_15 C15_17 1_555 1_555
C16_15 C15_17 1_555 1_555
H12_15 C16_15 1_555 1_555
Cd3_7 O2_9 1_555 1_555
N1_15 O3_15 1_555 1_555
C12_17 N4_17 1_555 1_555
C16_15 N4_17 1_555 1_555
Cd3_7 O1_16 1_555 1_555
N1_16 O1_16 1_555 1_555
O3_16 Cd3_7 1_555 1_555
N2_15 O4_17 1_555 1_555
O4_17 Cd3_7 1_555 1_555
O5_15 N2_15 1_555 1_555
O6_14 Cd3_7 1_555 1_555
H12_16 C16_16 1_555 1_555
N1_16 O3_16 1_555 1_555
N2_15 O6_14 1_555 1_555
N1_17 O1_17 1_555 1_555
O2_10 N1_17 1_555 1_555
C13_18 C12_18 1_555 1_555
H9_18 C13_18 1_555 1_555
C14_18 C13_18 1_555 1_555
H10_18 C14_18 1_555 1_555
C15_18 C14_18 1_555 1_555
H11_17 C15_18 1_555 1_555
C16_17 C15_18 1_555 1_555
H12_17 C16_17 1_555 1_555
Cd2_7 O2_10 1_555 1_555
N1_17 O3_17 1_555 1_555
C12_18 N4_18 1_555 1_555
C16_17 N4_18 1_555 1_555
Cd2_7 O1_18 1_555 1_555
N1_18 O1_18 1_555 1_555
O3_18 Cd2_7 1_555 1_555
N2_16 O4_18 1_555 1_555
O4_18 Cd2_7 1_555 1_555
O5_16 N2_16 1_555 1_555
O6_16 Cd2_7 1_555 1_555
H12_18 C16_18 1_555 1_555
N5_9 Cd2_7 1_555 1_555
N1_18 O3_18 1_555 1_555
N2_16 O6_16 1_555 1_555
H3_18 C4_18 1_555 1_555
C5_18 N5_9 1_555 1_555
H4_18 C5_18 1_555 1_555
C4_18 C5_18 1_555 1_555
O5_17 N2_17 1_555 1_555
N2_17 O6_17 1_555 1_555
O5_18 N2_18 1_555 1_555
N2_18 O6_18 1_555 1_555

#END
