
###############################################################################
#
# This file contains modified crystal structure data generated from the
# MOF subset of the Cambridge Structural Database (CSD) v543 
# hosted by the Cambridge Crystallographic Data Centre (CCDC).
#
# This work is licensed under the Creative Commons
# Attribution-NonCommercial-ShareAlike 4.0 International License.
# To view a copy of this license, visit
# http://creativecommons.org/licenses/by-nc-sa/4.0/
# or send a letter to
# Creative Commons, PO Box 1866, Mountain View, CA 94042, USA.
#
# CIF created using the CSD Python API on 29 September 2022
# The structure has been converted into the P1 space group
# The structure has a 3D framework
# The original CSD entry LOMFEY is in the rhombohedral crystal system
# The framework has been calculated to contain at least 10.0% void space
# The void calculation uses a probe of radius 1.32A, grid spacing 0.4
#
###############################################################################

data_LOMFEY
_chemical_formula_moiety         '(C288 H216 Cd18 N72 O108)n'
_symmetry_cell_setting           triclinic
_symmetry_space_group_name_H-M   'P 1'
_symmetry_Int_Tables_number      1
_space_group_name_Hall           'P 1'
loop_
_symmetry_equiv_pos_site_id
_symmetry_equiv_pos_as_xyz
1 x,y,z
_cell_length_a                   36.475(9)
_cell_length_b                   36.475(9)
_cell_length_c                   7.570(3)
_cell_angle_alpha                90
_cell_angle_beta                 90
_cell_angle_gamma                120.00
_cell_volume                     8722.02
loop_
_atom_site_label
_atom_site_type_symbol
_atom_site_fract_x
_atom_site_fract_y
_atom_site_fract_z
Cd1 Cd 0.258080(16) 0.013670(17) 0.49479(8)
N1 N 0.1939(2) 0.0138(2) 0.7035(10)
O1 O 0.21804(18) 0.04491(18) 0.6058(8)
C1 C 0.4181(2) 0.2809(2) 0.2482(11)
H1 H 0.4113 0.3025 0.2705
O5 O 0.16373(19) 0.0123(2) 0.7801(10)
C2 C 0.4552(2) 0.2909(2) 0.1603(10)
C3 C 0.3906(2) 0.2398(2) 0.3040(10)
H2 H 0.3654 0.2337 0.3648
C4 C 0.3697(2) 0.1636(2) 0.3307(10)
C5 C 0.3995(2) 0.2076(2) 0.2726(10)
C6 C 0.3352(3) 0.1540(3) 0.4373(13)
H3 H 0.3309 0.1760 0.4803
N3 N 0.31037(19) 0.07952(19) 0.4259(9)
C7 C 0.4370(2) 0.2174(2) 0.1870(11)
H4 H 0.4436 0.1957 0.1657
C8 C 0.4651(2) 0.2587(2) 0.1317(13)
H5 H 0.4908 0.2650 0.0749
C9 C 0.3434(2) 0.0884(3) 0.3245(12)
H6 H 0.3467 0.0656 0.2837
C10 C 0.3067(3) 0.1121(3) 0.4820(12)
H7 H 0.2834 0.1065 0.5562
C11 C 0.4851(3) 0.3352(2) 0.1054(11)
N4 N 0.4682(2) 0.35494(19) 0.0114(10)
C12 C 0.5271(3) 0.3552(3) 0.1489(13)
H8 H 0.5377 0.3402 0.2142
C13 C 0.5542(3) 0.3965(3) 0.0993(14)
H9 H 0.5834 0.4106 0.1299
C14 C 0.5373(3) 0.4170(3) 0.0029(14)
C16 C 0.3733(3) 0.1292(3) 0.2749(12)
H12 H 0.3964 0.1336 0.2024
O7 O 0.29684(25) 0.03300(17) 0.7733(8)
H10 H 0.5549 0.4453 0.9648
C15 C 0.4947(3) 0.3957(3) 0.9630(13)
H11 H 0.4835 0.4103 0.8990
Cd3 Cd 0.408587(16) 0.319663(17) 0.83854(8)
Cd1_2 Cd 0.755590(23) 0.741920(16) 0.49479(8)
N1_2 N 0.8199(3) 0.8061(2) 0.7035(10)
N2 N 0.6691(3) 0.7135(2) 0.4387(9)
O1_2 O 0.82687(25) 0.78196(18) 0.6058(8)
O2 O 0.68654(24) 0.70148(17) 0.3291(8)
O3 O 0.78159(24) 0.79695(16) 0.7198(8)
O4 O 0.69162(25) 0.74051(17) 0.5538(8)
C1_2 C 0.8628(3) 0.5819(2) 0.2482(11)
H1_2 H 0.8912 0.5887 0.2705
O5_2 O 0.84857(28) 0.83627(19) 0.7801(10)
O6 O 0.63017(25) 0.69967(17) 0.4400(8)
C2_2 C 0.8357(3) 0.5448(2) 0.1603(10)
C3_2 C 0.8492(3) 0.6094(2) 0.3040(10)
H2_2 H 0.8683 0.6346 0.3648
C4_2 C 0.7939(3) 0.6303(2) 0.3307(10)
C5_2 C 0.8081(3) 0.6005(2) 0.2726(10)
C6_2 C 0.8188(4) 0.6648(3) 0.4373(13)
H3_2 H 0.8451 0.6691 0.4803
N3_2 N 0.76915(27) 0.68963(19) 0.4259(9)
C7_2 C 0.7804(3) 0.5630(2) 0.1870(11)
H4_2 H 0.7521 0.5564 0.1657
C8_2 C 0.7936(3) 0.5349(2) 0.1317(13)
H5_2 H 0.7742 0.5092 0.0749
C9_2 C 0.7450(4) 0.6566(2) 0.3245(12)
H6_2 H 0.7189 0.6533 0.2837
C10_2 C 0.8054(4) 0.6933(3) 0.4820(12)
H7_2 H 0.8231 0.7166 0.5562
C11_2 C 0.8501(4) 0.5149(3) 0.1054(11)
N4_2 N 0.88674(28) 0.5318(2) 0.0114(10)
C12_2 C 0.8281(4) 0.4729(3) 0.1489(13)
H8_2 H 0.8025 0.4623 0.2142
C13_2 C 0.8423(4) 0.4458(3) 0.0993(14)
H9_2 H 0.8272 0.4166 0.1299
C14_2 C 0.8797(4) 0.4627(3) 0.0029(14)
C16_2 C 0.7559(4) 0.6267(3) 0.2749(12)
H12_2 H 0.7372 0.6036 0.2024
Cd2 Cd 0.591413(29) 0.680337(17) 0.16146(8)
O7_2 O 0.73617(30) 0.70316(25) 0.7733(8)
N5 N 0.77993(28) 0.8015(2) 0.3219(10)
N1_3 N 0.6529(2) 0.5134(3) 0.0368(10)
O3_2 O 0.68203(18) 0.55174(24) 0.0531(8)
O5_3 O 0.6544(2) 0.48476(28) 0.1134(10)
O7_3 O 0.63366(17) 0.59717(30) 0.1067(8)
Cd1_3 Cd 0.652997(17) 0.577743(23) 0.82812(8)
N2_2 N 0.7111(2) 0.6642(3) 0.7720(9)
O1_3 O 0.62176(18) 0.50646(25) 0.9391(8)
O2_2 O 0.68161(17) 0.64679(24) 0.6624(8)
O4_2 O 0.71556(18) 0.64171(25) 0.8871(8)
C1_3 C 0.3858(2) 0.4705(3) 0.5815(11)
H1_3 H 0.3642 0.4421 0.6038
C2_3 C 0.3758(2) 0.4976(3) 0.4936(10)
C3_3 C 0.4269(2) 0.4841(3) 0.6373(10)
H2_3 H 0.4330 0.4650 0.6981
C4_3 C 0.5031(2) 0.5394(3) 0.6640(10)
C5_3 C 0.4591(2) 0.5252(3) 0.6059(10)
C6_3 C 0.5127(3) 0.5145(4) 0.7706(13)
H3_3 H 0.4907 0.4882 0.8136
N3_3 N 0.58715(19) 0.56418(27) 0.7592(9)
C7_3 C 0.4493(2) 0.5529(3) 0.5203(11)
H4_3 H 0.4710 0.5812 0.4990
C8_3 C 0.4080(2) 0.5397(3) 0.4650(13)
H5_3 H 0.4017 0.5591 0.4082
C9_3 C 0.5783(3) 0.5883(4) 0.6578(12)
H6_3 H 0.6011 0.6144 0.6170
C10_3 C 0.5546(3) 0.5279(4) 0.8153(12)
H7_3 H 0.5602 0.5102 0.8895
C11_3 C 0.3315(2) 0.4832(4) 0.4387(11)
N4_3 N 0.31173(19) 0.44659(28) 0.3447(10)
C12_3 C 0.3115(3) 0.5052(4) 0.4822(13)
H8_3 H 0.3265 0.5308 0.5475
C13_3 C 0.2702(3) 0.4910(4) 0.4326(14)
H9_3 H 0.2561 0.5061 0.4632
C14_3 C 0.2497(3) 0.4536(4) 0.3362(14)
H10_2 H 0.2214 0.4429 0.2981
C15_2 C 0.2710(3) 0.4323(4) 0.2963(13)
H11_2 H 0.2564 0.4065 0.2323
C16_3 C 0.5375(3) 0.5774(4) 0.6082(12)
H12_3 H 0.5331 0.5961 0.5357
Cd3_2 Cd 0.347003(17) 0.422257(23) 0.17188(8)
N5_2 N 0.68827(19) 0.55341(28) 0.6553(10)
Cd1_4 Cd 0.422257(23) 0.075253(16) 0.82812(8)
N2_3 N 0.3358(3) 0.0468(2) 0.7720(9)
O1_4 O 0.49354(25) 0.11529(18) 0.9391(8)
O2_3 O 0.35321(24) 0.03481(17) 0.6624(8)
O4_3 O 0.35829(25) 0.07384(17) 0.8871(8)
H3_4 H 0.5118 0.0024 0.8136
N3_4 N 0.43582(27) 0.02296(19) 0.7592(9)
C10_4 C 0.4721(4) 0.0266(3) 0.8153(12)
H7_4 H 0.4898 0.0499 0.8895
N5_3 N 0.44659(28) 0.1349(2) 0.6553(10)
C1_4 C 0.5295(3) 0.9152(2) 0.5815(11)
H1_4 H 0.5579 0.9220 0.6038
C2_4 C 0.5024(3) 0.8781(2) 0.4936(10)
C3_4 C 0.5159(3) 0.9427(2) 0.6373(10)
H2_4 H 0.5350 0.9679 0.6981
C4_4 C 0.4606(3) 0.9636(2) 0.6640(10)
C5_4 C 0.4748(3) 0.9338(2) 0.6059(10)
C6_4 C 0.4855(4) 0.9981(3) 0.7706(13)
C7_4 C 0.4471(3) 0.8963(2) 0.5203(11)
H4_4 H 0.4188 0.8897 0.4990
C8_4 C 0.4603(3) 0.8682(2) 0.4650(13)
H5_4 H 0.4409 0.8425 0.4082
C9_4 C 0.4117(4) 0.9899(2) 0.6578(12)
H6_4 H 0.3856 0.9866 0.6170
C11_4 C 0.5168(4) 0.8482(3) 0.4387(11)
N4_4 N 0.55341(28) 0.8651(2) 0.3447(10)
C12_4 C 0.4948(4) 0.8062(3) 0.4822(13)
H8_4 H 0.4692 0.7956 0.5475
C13_4 C 0.5090(4) 0.7791(3) 0.4326(14)
H9_4 H 0.4939 0.7499 0.4632
C14_4 C 0.5464(4) 0.7960(3) 0.3362(14)
H10_3 H 0.5571 0.7784 0.2981
C15_3 C 0.5677(4) 0.8386(3) 0.2963(13)
H11_3 H 0.5935 0.8498 0.2323
C16_4 C 0.4226(4) 0.9600(3) 0.6082(12)
H12_4 H 0.4039 0.9369 0.5357
Cd3_3 Cd 0.577743(23) 0.924747(16) 0.17188(8)
N1_4 N 0.5272(2) 0.6805(2) 0.3702(10)
N2_4 N 0.6198(2) 0.6223(2) 0.1054(9)
O1_5 O 0.55137(18) 0.71158(18) 0.2725(8)
O3_3 O 0.53638(16) 0.65131(18) 0.3865(8)
O4_4 O 0.59282(17) 0.61778(18) 0.2205(8)
O5_4 O 0.49706(19) 0.6790(2) 0.4468(10)
H2_5 H 0.6987 0.9004 0.0315
C6_5 C 0.6685(3) 0.8207(3) 0.1040(13)
H3_5 H 0.6642 0.8427 0.1470
N3_5 N 0.64370(19) 0.74619(19) 0.0926(9)
C10_5 C 0.6400(3) 0.7788(3) 0.1487(12)
H7_5 H 0.6167 0.7732 0.2229
O2_4 O 0.63185(17) 0.65173(17) 0.9958(8)
C1_5 C 0.7514(2) 0.9476(2) 0.9149(11)
H1_5 H 0.7446 0.9692 0.9372
C2_5 C 0.7885(2) 0.9576(2) 0.8270(10)
C3_5 C 0.7239(2) 0.9065(2) 0.9707(10)
C4_5 C 0.7030(2) 0.8303(2) 0.9974(10)
C5_5 C 0.7328(2) 0.8743(2) 0.9393(10)
C7_5 C 0.7703(2) 0.8841(2) 0.8537(11)
H4_5 H 0.7769 0.8624 0.8324
C8_5 C 0.7984(2) 0.9254(2) 0.7984(13)
H5_5 H 0.8241 0.9317 0.7416
C9_5 C 0.6767(2) 0.7551(3) 0.9912(12)
H6_5 H 0.6800 0.7323 0.9504
C16_5 C 0.7066(3) 0.7959(3) 0.9416(12)
H12_5 H 0.7297 0.8003 0.8691
Cd3_4 Cd 0.741920(16) 0.986330(17) 0.50521(8)
N5_4 N 0.5318(2) 0.64506(19) 0.9886(10)
O2_5 O 0.98013(24) 0.63185(17) 0.0042(8)
C1_6 C 0.8039(3) 0.7514(2) 0.0851(11)
H1_6 H 0.7755 0.7446 0.0628
C2_6 C 0.8310(3) 0.7885(2) 0.1730(10)
C3_6 C 0.8175(3) 0.7239(2) 0.0293(10)
C4_6 C 0.8728(3) 0.7030(2) 0.0026(10)
C5_6 C 0.8586(3) 0.7328(2) 0.0607(10)
C7_6 C 0.8863(3) 0.7703(2) 0.1463(11)
H4_6 H 0.9146 0.7769 0.1676
C8_6 C 0.8731(3) 0.7984(2) 0.2016(13)
H5_6 H 0.8925 0.8241 0.2584
C9_6 C 0.9217(4) 0.6767(2) 0.0088(12)
H6_6 H 0.9478 0.6800 0.0496
C11_5 C 0.8166(4) 0.8184(3) 0.2279(11)
C12_5 C 0.8386(4) 0.8604(3) 0.1844(13)
H8_5 H 0.8642 0.8710 0.1191
C13_5 C 0.8244(4) 0.8875(3) 0.2340(14)
H9_5 H 0.8395 0.9167 0.2034
C14_5 C 0.7870(4) 0.8706(3) 0.3304(14)
H10_4 H 0.7763 0.8882 0.3685
C15_4 C 0.7657(4) 0.8280(3) 0.3703(13)
H11_4 H 0.7399 0.8168 0.4343
C16_6 C 0.9108(4) 0.7066(3) 0.0584(12)
H12_6 H 0.9295 0.7297 0.1309
H10_5 H 0.4451 0.5547 0.0352
C15_5 C 0.5053(3) 0.6043(3) 0.0370(13)
H11_5 H 0.5165 0.5897 0.1010
N1_5 N 0.8061(2) 0.9862(2) 0.2965(10)
O1_6 O 0.78196(18) 0.95509(18) 0.3942(8)
C1_7 C 0.5819(2) 0.7191(2) 0.7518(11)
H1_7 H 0.5887 0.6975 0.7295
O5_5 O 0.83627(19) 0.9877(2) 0.2199(10)
C2_7 C 0.5448(2) 0.7091(2) 0.8397(10)
C3_7 C 0.6094(2) 0.7602(2) 0.6960(10)
H2_6 H 0.6346 0.7663 0.6352
C4_7 C 0.6303(2) 0.8364(2) 0.6693(10)
C5_7 C 0.6005(2) 0.7924(2) 0.7274(10)
C6_6 C 0.6648(3) 0.8460(3) 0.5627(13)
H3_6 H 0.6691 0.8240 0.5197
N3_6 N 0.68963(19) 0.92048(19) 0.5741(9)
C7_7 C 0.5630(2) 0.7826(2) 0.8130(11)
H4_7 H 0.5564 0.8043 0.8343
C8_7 C 0.5349(2) 0.7413(2) 0.8683(13)
H5_7 H 0.5092 0.7350 0.9251
C9_7 C 0.6566(2) 0.9116(3) 0.6755(12)
H6_7 H 0.6533 0.9344 0.7163
C10_6 C 0.6933(3) 0.8879(3) 0.5180(12)
H7_6 H 0.7166 0.8935 0.4438
C11_6 C 0.5149(3) 0.6648(2) 0.8946(11)
C12_6 C 0.4729(3) 0.6448(3) 0.8511(13)
H8_6 H 0.4623 0.6598 0.7858
C13_6 C 0.4458(3) 0.6035(3) 0.9007(14)
H9_6 H 0.4166 0.5894 0.8701
C14_6 C 0.4627(3) 0.5830(3) 0.9971(14)
C16_7 C 0.6267(3) 0.8708(3) 0.7251(12)
H12_7 H 0.6036 0.8664 0.7976
O7_4 O 0.70316(25) 0.96700(17) 0.2267(8)
Cd1_5 Cd 0.244410(23) 0.258080(16) 0.50521(8)
N1_6 N 0.1801(3) 0.1939(2) 0.2965(10)
N2_5 N 0.3309(3) 0.2865(2) 0.5613(9)
O1_7 O 0.17313(25) 0.21804(18) 0.3942(8)
O2_6 O 0.31346(24) 0.29852(17) 0.6709(8)
O3_4 O 0.21841(24) 0.20305(16) 0.2802(8)
O4_5 O 0.30838(25) 0.25949(17) 0.4462(8)
C1_8 C 0.1372(3) 0.4181(2) 0.7518(11)
H1_8 H 0.1088 0.4113 0.7295
O5_6 O 0.15143(28) 0.16373(19) 0.2199(10)
O6_2 O 0.36983(25) 0.30033(17) 0.5600(8)
C2_8 C 0.1643(3) 0.4552(2) 0.8397(10)
C3_8 C 0.1508(3) 0.3906(2) 0.6960(10)
H2_7 H 0.1317 0.3654 0.6352
C4_8 C 0.2061(3) 0.3697(2) 0.6693(10)
C5_8 C 0.1919(3) 0.3995(2) 0.7274(10)
C6_7 C 0.1812(4) 0.3352(3) 0.5627(13)
H3_7 H 0.1549 0.3309 0.5197
N3_7 N 0.23085(27) 0.31037(19) 0.5741(9)
C7_8 C 0.2196(3) 0.4370(2) 0.8130(11)
H4_8 H 0.2479 0.4436 0.8343
C8_8 C 0.2064(3) 0.4651(2) 0.8683(13)
H5_8 H 0.2258 0.4908 0.9251
C9_8 C 0.2550(4) 0.3434(2) 0.6755(12)
H6_8 H 0.2811 0.3467 0.7163
C10_7 C 0.1946(4) 0.3067(3) 0.5180(12)
H7_7 H 0.1769 0.2834 0.4438
C11_7 C 0.1499(4) 0.4851(3) 0.8946(11)
N4_5 N 0.11326(28) 0.4682(2) 0.9886(10)
C12_7 C 0.1719(4) 0.5271(3) 0.8511(13)
H8_7 H 0.1975 0.5377 0.7858
C13_7 C 0.1577(4) 0.5542(3) 0.9007(14)
H9_7 H 0.1728 0.5834 0.8701
C14_7 C 0.1203(4) 0.5373(3) 0.9971(14)
C16_8 C 0.2441(4) 0.3733(3) 0.7251(12)
H12_8 H 0.2628 0.3964 0.7976
O7_5 O 0.26383(30) 0.29684(25) 0.2267(8)
N5_5 N 0.22007(28) 0.1985(2) 0.6781(10)
N2_6 N 0.2889(2) 0.3358(3) 0.2280(9)
O1_8 O 0.37824(18) 0.49354(25) 0.0609(8)
O2_7 O 0.31839(17) 0.35321(24) 0.3376(8)
O4_6 O 0.28444(18) 0.35829(25) 0.1129(8)
C1_9 C 0.6142(2) 0.5295(3) 0.4185(11)
H1_9 H 0.6358 0.5579 0.3962
C2_9 C 0.6242(2) 0.5024(3) 0.5064(10)
C3_9 C 0.5731(2) 0.5159(3) 0.3627(10)
H2_8 H 0.5670 0.5350 0.3019
C4_9 C 0.4969(2) 0.4606(3) 0.3360(10)
C5_9 C 0.5409(2) 0.4748(3) 0.3941(10)
C6_8 C 0.4873(3) 0.4855(4) 0.2294(13)
H3_8 H 0.5093 0.5118 0.1864
N3_8 N 0.41285(19) 0.43582(27) 0.2408(9)
C7_9 C 0.5507(2) 0.4471(3) 0.4797(11)
H4_9 H 0.5290 0.4188 0.5010
C8_9 C 0.5920(2) 0.4603(3) 0.5350(13)
H5_9 H 0.5983 0.4409 0.5918
C9_9 C 0.4217(3) 0.4117(4) 0.3422(12)
H6_9 H 0.3989 0.3856 0.3830
C10_8 C 0.4454(3) 0.4721(4) 0.1847(12)
H7_8 H 0.4398 0.4898 0.1105
C11_8 C 0.6685(2) 0.5168(4) 0.5613(11)
C12_8 C 0.6885(3) 0.4948(4) 0.5178(13)
H8_8 H 0.6735 0.4692 0.4525
C13_8 C 0.7298(3) 0.5090(4) 0.5674(14)
H9_8 H 0.7439 0.4939 0.5368
C14_8 C 0.7503(3) 0.5464(4) 0.6638(14)
H10_6 H 0.7786 0.5571 0.7019
C15_6 C 0.7290(3) 0.5677(4) 0.7037(13)
H11_6 H 0.7436 0.5935 0.7677
C16_9 C 0.4625(3) 0.4226(4) 0.3918(12)
H12_9 H 0.4669 0.4039 0.4643
N1_7 N 0.3471(2) 0.4866(3) 0.9632(10)
O3_5 O 0.31797(18) 0.44826(24) 0.9469(8)
O5_7 O 0.3456(2) 0.51524(28) 0.8866(10)
O7_6 O 0.36634(17) 0.40283(30) 0.8933(8)
C1_10 C 0.4705(3) 0.0848(2) 0.4185(11)
H1_10 H 0.4421 0.0780 0.3962
C2_10 C 0.4976(3) 0.1219(2) 0.5064(10)
C3_10 C 0.4841(3) 0.0573(2) 0.3627(10)
H2_9 H 0.4650 0.0321 0.3019
C4_10 C 0.5394(3) 0.0364(2) 0.3360(10)
C5_10 C 0.5252(3) 0.0662(2) 0.3941(10)
C6_9 C 0.5145(4) 0.0019(3) 0.2294(13)
C7_10 C 0.5529(3) 0.1037(2) 0.4797(11)
H4_10 H 0.5812 0.1103 0.5010
C8_10 C 0.5397(3) 0.1318(2) 0.5350(13)
H5_10 H 0.5591 0.1575 0.5918
C9_10 C 0.5883(4) 0.0101(2) 0.3422(12)
H6_10 H 0.6144 0.0134 0.3830
C11_9 C 0.4832(4) 0.1518(3) 0.5613(11)
C12_9 C 0.5052(4) 0.1938(3) 0.5178(13)
H8_9 H 0.5308 0.2044 0.4525
C13_9 C 0.4910(4) 0.2209(3) 0.5674(14)
H9_9 H 0.5061 0.2501 0.5368
C14_9 C 0.4536(4) 0.2040(3) 0.6638(14)
H10_7 H 0.4429 0.2216 0.7019
C15_7 C 0.4323(4) 0.1614(3) 0.7037(13)
H11_7 H 0.4065 0.1502 0.7677
C16_10 C 0.5774(4) 0.0400(3) 0.3918(12)
H12_10 H 0.5961 0.0631 0.4643
N2_7 N 0.6642(3) 0.9532(2) 0.2280(9)
O1_9 O 0.50646(25) 0.88471(18) 0.0609(8)
O2_8 O 0.64679(24) 0.96519(17) 0.3376(8)
O4_7 O 0.64171(25) 0.92616(17) 0.1129(8)
H3_9 H 0.4882 0.9976 0.1864
N3_9 N 0.56418(27) 0.97704(19) 0.2408(9)
C10_9 C 0.5279(4) 0.9734(3) 0.1847(12)
H7_9 H 0.5102 0.9501 0.1105
O2_9 O 0.36815(17) 0.34827(17) 0.0042(8)
C1_11 C 0.2486(2) 0.0524(2) 0.0851(11)
H1_11 H 0.2554 0.0308 0.0628
C2_11 C 0.2115(2) 0.0424(2) 0.1730(10)
C3_11 C 0.2761(2) 0.0935(2) 0.0293(10)
C4_11 C 0.2970(2) 0.1697(2) 0.0026(10)
C5_11 C 0.2672(2) 0.1257(2) 0.0607(10)
C7_11 C 0.2297(2) 0.1159(2) 0.1463(11)
H4_11 H 0.2231 0.1376 0.1676
C8_11 C 0.2016(2) 0.0746(2) 0.2016(13)
H5_11 H 0.1759 0.0683 0.2584
C9_11 C 0.3233(2) 0.2449(3) 0.0088(12)
H6_11 H 0.3200 0.2677 0.0496
C16_11 C 0.2934(3) 0.2041(3) 0.0584(12)
H12_11 H 0.2703 0.1997 0.1309
N1_8 N 0.4728(2) 0.3195(2) 0.6298(10)
N2_8 N 0.3802(2) 0.3777(2) 0.8946(9)
O1_10 O 0.44863(18) 0.28842(18) 0.7275(8)
O3_6 O 0.46362(16) 0.34869(18) 0.6135(8)
O4_8 O 0.40718(17) 0.38222(18) 0.7795(8)
O5_8 O 0.50294(19) 0.3210(2) 0.5532(10)
H2_10 H 0.3013 0.0996 0.9685
C6_10 C 0.3315(3) 0.1793(3) 0.8960(13)
H3_10 H 0.3358 0.1573 0.8530
N3_10 N 0.35630(19) 0.25381(19) 0.9074(9)
C10_10 C 0.3600(3) 0.2212(3) 0.8513(12)
H7_10 H 0.3833 0.2268 0.7771
O2_10 O 0.01987(24) 0.36815(17) 0.9958(8)
C1_12 C 0.1961(3) 0.2486(2) 0.9149(11)
H1_12 H 0.2245 0.2554 0.9372
C2_12 C 0.1690(3) 0.2115(2) 0.8270(10)
C3_12 C 0.1825(3) 0.2761(2) 0.9707(10)
C4_12 C 0.1272(3) 0.2970(2) 0.9974(10)
C5_12 C 0.1414(3) 0.2672(2) 0.9393(10)
C7_12 C 0.1137(3) 0.2297(2) 0.8537(11)
H4_12 H 0.0854 0.2231 0.8324
C8_12 C 0.1269(3) 0.2016(2) 0.7984(13)
H5_12 H 0.1075 0.1759 0.7416
C9_12 C 0.0783(4) 0.3233(2) 0.9912(12)
H6_12 H 0.0522 0.3200 0.9504
C11_10 C 0.1834(4) 0.1816(3) 0.7721(11)
C12_10 C 0.1614(4) 0.1396(3) 0.8156(13)
H8_10 H 0.1358 0.1290 0.8809
C13_10 C 0.1756(4) 0.1125(3) 0.7660(14)
H9_10 H 0.1605 0.0833 0.7966
C14_10 C 0.2130(4) 0.1294(3) 0.6696(14)
H10_8 H 0.2237 0.1118 0.6315
C15_8 C 0.2343(4) 0.1720(3) 0.6297(13)
H11_8 H 0.2601 0.1832 0.5657
C16_12 C 0.0892(4) 0.2934(3) 0.9416(12)
H12_12 H 0.0705 0.2703 0.8691
N2_9 N 0.2865(2) 0.9556(2) 0.4387(9)
O2_11 O 0.29852(17) 0.98506(17) 0.3291(8)
O3_7 O 0.20305(16) 0.98464(18) 0.7198(8)
O4_9 O 0.25949(17) 0.95111(18) 0.5538(8)
O6_3 O 0.30033(17) 0.93050(19) 0.4400(8)
Cd2_2 Cd 0.319663(17) 0.911077(23) 0.16146(8)
N5_6 N 0.1985(2) 0.97839(19) 0.3219(10)
H10_9 H 0.4453 0.8904 0.0352
C15_9 C 0.3957(3) 0.9010(4) 0.0370(13)
H11_9 H 0.4103 0.9268 0.1010
C11_11 C 0.1816(3) 0.9981(2) 0.2279(11)
C12_11 C 0.1396(3) 0.9781(3) 0.1844(13)
H8_11 H 0.1290 0.9931 0.1191
C13_11 C 0.1125(3) 0.9368(3) 0.2340(14)
H9_11 H 0.0833 0.9227 0.2034
C14_11 C 0.1294(3) 0.9163(3) 0.3304(14)
H10_10 H 0.1118 0.8880 0.3685
C15_10 C 0.1720(3) 0.9376(3) 0.3703(13)
H11_10 H 0.1832 0.9230 0.4343
N1_9 N 0.3195(2) 0.8468(3) 0.3702(10)
N2_10 N 0.3777(2) 0.9976(3) 0.1054(9)
O1_11 O 0.28842(18) 0.83980(25) 0.2725(8)
O3_8 O 0.34869(18) 0.88508(24) 0.3865(8)
O4_10 O 0.38222(18) 0.97505(25) 0.2205(8)
O5_9 O 0.3210(2) 0.81810(28) 0.4468(10)
H2_11 H 0.0996 0.7984 0.0315
C6_11 C 0.1793(3) 0.8479(4) 0.1040(13)
H3_11 H 0.1573 0.8216 0.1470
N3_11 N 0.25381(19) 0.89752(27) 0.0926(9)
C10_11 C 0.2212(3) 0.8613(4) 0.1487(12)
H7_11 H 0.2268 0.8436 0.2229
N2_11 N 0.0444(2) 0.3309(3) 0.4387(9)
O2_12 O 0.01494(17) 0.31346(24) 0.3291(8)
O3_9 O 0.01536(18) 0.21841(24) 0.7198(8)
O4_11 O 0.04889(18) 0.30838(25) 0.5538(8)
O6_4 O 0.06950(19) 0.36983(25) 0.4400(8)
Cd2_3 Cd 0.088923(23) 0.408587(29) 0.16146(8)
N5_7 N 0.02161(19) 0.22007(28) 0.3219(10)
C11_12 C 0.0019(2) 0.1834(4) 0.2279(11)
C12_12 C 0.0219(3) 0.1614(4) 0.1844(13)
H8_12 H 0.0069 0.1358 0.1191
C13_12 C 0.0632(3) 0.1756(4) 0.2340(14)
H9_12 H 0.0773 0.1605 0.2034
C14_12 C 0.0837(3) 0.2130(4) 0.3304(14)
H10_11 H 0.1120 0.2237 0.3685
C15_11 C 0.0624(3) 0.2343(4) 0.3703(13)
H11_11 H 0.0770 0.2601 0.4343
H10_12 H 0.1096 0.5549 0.0352
C15_12 C 0.0990(4) 0.4947(3) 0.0370(13)
H11_12 H 0.0732 0.4835 0.1010
N1_10 N 0.1532(3) 0.4728(2) 0.3702(10)
N2_12 N 0.0024(3) 0.3802(2) 0.1054(9)
O1_12 O 0.16020(25) 0.44863(18) 0.2725(8)
O3_10 O 0.11492(24) 0.46362(16) 0.3865(8)
O4_12 O 0.02495(25) 0.40718(17) 0.2205(8)
O5_10 O 0.18190(28) 0.50294(19) 0.4468(10)
H2_12 H 0.2016 0.3013 0.0315
C6_12 C 0.1521(4) 0.3315(3) 0.1040(13)
H3_12 H 0.1784 0.3358 0.1470
N3_12 N 0.10248(27) 0.35630(19) 0.0926(9)
C10_12 C 0.1387(4) 0.3600(3) 0.1487(12)
H7_12 H 0.1564 0.3833 0.2229
Cd1_6 Cd 0.986330(17) 0.244410(23) 0.49479(8)
N1_11 N 0.9862(2) 0.1801(3) 0.7035(10)
O1_13 O 0.95509(18) 0.17313(25) 0.6058(8)
C1_13 C 0.7191(2) 0.1372(3) 0.2482(11)
H1_13 H 0.6975 0.1088 0.2705
O5_11 O 0.9877(2) 0.15143(28) 0.7801(10)
C2_13 C 0.7091(2) 0.1643(3) 0.1603(10)
C3_13 C 0.7602(2) 0.1508(3) 0.3040(10)
H2_13 H 0.7663 0.1317 0.3648
C4_13 C 0.8364(2) 0.2061(3) 0.3307(10)
C5_13 C 0.7924(2) 0.1919(3) 0.2726(10)
C6_13 C 0.8460(3) 0.1812(4) 0.4373(13)
H3_13 H 0.8240 0.1549 0.4803
N3_13 N 0.92048(19) 0.23085(27) 0.4259(9)
C7_13 C 0.7826(2) 0.2196(3) 0.1870(11)
H4_13 H 0.8043 0.2479 0.1657
C8_13 C 0.7413(2) 0.2064(3) 0.1317(13)
H5_13 H 0.7350 0.2258 0.0749
C9_13 C 0.9116(3) 0.2550(4) 0.3245(12)
H6_13 H 0.9344 0.2811 0.2837
C10_13 C 0.8879(3) 0.1946(4) 0.4820(12)
H7_13 H 0.8935 0.1769 0.5562
C11_13 C 0.6648(2) 0.1499(4) 0.1054(11)
N4_6 N 0.64506(19) 0.11326(28) 0.0114(10)
C12_13 C 0.6448(3) 0.1719(4) 0.1489(13)
H8_13 H 0.6598 0.1975 0.2142
C13_13 C 0.6035(3) 0.1577(4) 0.0993(14)
H9_13 H 0.5894 0.1728 0.1299
C14_13 C 0.5830(3) 0.1203(4) 0.0029(14)
C16_13 C 0.8708(3) 0.2441(4) 0.2749(12)
H12_13 H 0.8664 0.2628 0.2024
O7_7 O 0.96700(17) 0.26383(30) 0.7733(8)
Cd1_7 Cd 0.924747(16) 0.347003(17) 0.82812(8)
N2_13 N 0.9532(2) 0.2889(2) 0.7720(9)
O1_14 O 0.88471(18) 0.37824(18) 0.9391(8)
O2_13 O 0.96519(17) 0.31839(17) 0.6624(8)
O4_13 O 0.92616(17) 0.28444(18) 0.8871(8)
H3_14 H 0.9976 0.5093 0.8136
N3_14 N 0.97704(19) 0.41285(19) 0.7592(9)
C10_14 C 0.9734(3) 0.4454(3) 0.8153(12)
H7_14 H 0.9501 0.4398 0.8895
N5_8 N 0.8651(2) 0.31173(19) 0.6553(10)
O2_14 O 0.65173(17) 0.01987(24) 0.0042(8)
C1_14 C 0.9476(2) 0.1961(3) 0.0851(11)
H1_14 H 0.9692 0.2245 0.0628
C2_14 C 0.9576(2) 0.1690(3) 0.1730(10)
C3_14 C 0.9065(2) 0.1825(3) 0.0293(10)
C4_14 C 0.8303(2) 0.1272(3) 0.0026(10)
C5_14 C 0.8743(2) 0.1414(3) 0.0607(10)
C7_14 C 0.8841(2) 0.1137(3) 0.1463(11)
H4_14 H 0.8624 0.0854 0.1676
C8_14 C 0.9254(2) 0.1269(3) 0.2016(13)
H5_14 H 0.9317 0.1075 0.2584
C9_14 C 0.7551(3) 0.0783(4) 0.0088(12)
H6_14 H 0.7323 0.0522 0.0496
C16_14 C 0.7959(3) 0.0892(4) 0.0584(12)
H12_14 H 0.8003 0.0705 0.1309
C1_15 C 0.9152(2) 0.3858(2) 0.4185(11)
H1_15 H 0.9220 0.3642 0.3962
C2_15 C 0.8781(2) 0.3758(2) 0.5064(10)
C3_15 C 0.9427(2) 0.4269(2) 0.3627(10)
H2_14 H 0.9679 0.4330 0.3019
C4_15 C 0.9636(2) 0.5031(2) 0.3360(10)
C5_15 C 0.9338(2) 0.4591(2) 0.3941(10)
C6_14 C 0.9981(3) 0.5127(3) 0.2294(13)
C7_15 C 0.8963(2) 0.4493(2) 0.4797(11)
H4_15 H 0.8897 0.4710 0.5010
C8_15 C 0.8682(2) 0.4080(2) 0.5350(13)
H5_15 H 0.8425 0.4017 0.5918
C9_15 C 0.9899(2) 0.5783(3) 0.3422(12)
H6_15 H 0.9866 0.6011 0.3830
C11_14 C 0.8482(3) 0.3315(2) 0.5613(11)
C12_14 C 0.8062(3) 0.3115(3) 0.5178(13)
H8_14 H 0.7956 0.3265 0.4525
C13_14 C 0.7791(3) 0.2702(3) 0.5674(14)
H9_14 H 0.7499 0.2561 0.5368
C14_14 C 0.7960(3) 0.2497(3) 0.6638(14)
H10_13 H 0.7784 0.2214 0.7019
C15_13 C 0.8386(3) 0.2710(3) 0.7037(13)
H11_13 H 0.8498 0.2564 0.7677
C16_15 C 0.9600(3) 0.5375(3) 0.3918(12)
H12_15 H 0.9369 0.5331 0.4643
H10_14 H 0.5547 0.1096 0.9648
C15_14 C 0.6043(3) 0.0990(4) 0.9630(13)
H11_14 H 0.5897 0.0732 0.8990
Cd3_5 Cd 0.680337(17) 0.088923(23) 0.83854(8)
C11_15 C 0.8184(3) 0.0019(2) 0.7721(11)
N4_7 N 0.8015(2) 0.02161(19) 0.6781(10)
C12_15 C 0.8604(3) 0.0219(3) 0.8156(13)
H8_15 H 0.8710 0.0069 0.8809
C13_15 C 0.8875(3) 0.0632(3) 0.7660(14)
H9_15 H 0.9167 0.0773 0.7966
C14_15 C 0.8706(3) 0.0837(3) 0.6696(14)
H10_15 H 0.8882 0.1120 0.6315
C15_15 C 0.8280(3) 0.0624(3) 0.6297(13)
H11_15 H 0.8168 0.0770 0.5657
N1_12 N 0.6805(2) 0.1532(3) 0.6298(10)
N2_14 N 0.6223(2) 0.0024(3) 0.8946(9)
O1_15 O 0.71158(18) 0.16020(25) 0.7275(8)
O3_11 O 0.65131(18) 0.11492(24) 0.6135(8)
O4_14 O 0.61778(18) 0.02495(25) 0.7795(8)
O5_12 O 0.6790(2) 0.18190(28) 0.5532(10)
H2_15 H 0.9004 0.2016 0.9685
C6_15 C 0.8207(3) 0.1521(4) 0.8960(13)
H3_15 H 0.8427 0.1784 0.8530
N3_15 N 0.74619(19) 0.10248(27) 0.9074(9)
C10_15 C 0.7788(3) 0.1387(4) 0.8513(12)
H7_15 H 0.7732 0.1564 0.7771
O7_8 O 0.69967(17) 0.06950(30) 0.5600(8)
N2_15 N 0.7135(2) 0.0444(2) 0.5613(9)
O2_15 O 0.70148(17) 0.01494(17) 0.6709(8)
O3_12 O 0.79695(16) 0.01536(18) 0.2802(8)
O4_15 O 0.74051(17) 0.04889(18) 0.4462(8)
H10_16 H 0.8904 0.4451 0.9648
C15_16 C 0.9010(4) 0.5053(3) 0.9630(13)
H11_16 H 0.9268 0.5165 0.8990
Cd3_6 Cd 0.911077(23) 0.591413(16) 0.83854(8)
N1_13 N 0.8468(3) 0.5272(2) 0.6298(10)
N2_16 N 0.9976(3) 0.6198(2) 0.8946(9)
O1_16 O 0.83980(25) 0.55137(18) 0.7275(8)
O3_13 O 0.88508(24) 0.53638(16) 0.6135(8)
O4_16 O 0.97505(25) 0.59282(17) 0.7795(8)
O5_13 O 0.81810(28) 0.49706(19) 0.5532(10)
H2_16 H 0.7984 0.6987 0.9685
C6_16 C 0.8479(4) 0.6685(3) 0.8960(13)
H3_16 H 0.8216 0.6642 0.8530
N3_16 N 0.89752(27) 0.64370(19) 0.9074(9)
C10_16 C 0.8613(4) 0.6400(3) 0.8513(12)
H7_16 H 0.8436 0.6167 0.7771
O7_9 O 0.93050(30) 0.63017(25) 0.5600(8)
N2_17 N 0.9556(2) 0.6691(3) 0.5613(9)
O2_16 O 0.98506(17) 0.68654(24) 0.6709(8)
O3_14 O 0.98464(18) 0.78159(24) 0.2802(8)
O4_17 O 0.95111(18) 0.69162(25) 0.4462(8)
N5_9 N 0.97839(19) 0.77993(28) 0.6781(10)
C11_16 C 0.9981(2) 0.8166(4) 0.7721(11)
C12_16 C 0.9781(3) 0.8386(4) 0.8156(13)
H8_16 H 0.9931 0.8642 0.8809
C13_16 C 0.9368(3) 0.8244(4) 0.7660(14)
H9_16 H 0.9227 0.8395 0.7966
C14_16 C 0.9163(3) 0.7870(4) 0.6696(14)
H10_17 H 0.8880 0.7763 0.6315
C15_17 C 0.9376(3) 0.7657(4) 0.6297(13)
H11_17 H 0.9230 0.7399 0.5657
C1_16 C 0.0848(2) 0.6142(2) 0.5815(11)
H1_16 H 0.0780 0.6358 0.6038
C2_16 C 0.1219(2) 0.6242(2) 0.4936(10)
C3_16 C 0.0573(2) 0.5731(2) 0.6373(10)
H2_17 H 0.0321 0.5670 0.6981
C4_16 C 0.0364(2) 0.4969(2) 0.6640(10)
C5_16 C 0.0662(2) 0.5409(2) 0.6059(10)
C6_17 C 0.0019(3) 0.4873(3) 0.7706(13)
C7_16 C 0.1037(2) 0.5507(2) 0.5203(11)
H4_16 H 0.1103 0.5290 0.4990
C8_16 C 0.1318(2) 0.5920(2) 0.4650(13)
H5_16 H 0.1575 0.5983 0.4082
C9_16 C 0.0101(2) 0.4217(3) 0.6578(12)
H6_16 H 0.0134 0.3989 0.6170
C11_17 C 0.1518(3) 0.6685(2) 0.4387(11)
N4_8 N 0.1349(2) 0.68827(19) 0.3447(10)
C12_17 C 0.1938(3) 0.6885(3) 0.4822(13)
H8_17 H 0.2044 0.6735 0.5475
C13_17 C 0.2209(3) 0.7298(3) 0.4326(14)
H9_17 H 0.2501 0.7439 0.4632
C14_17 C 0.2040(3) 0.7503(3) 0.3362(14)
H10_18 H 0.2216 0.7786 0.2981
C15_18 C 0.1614(3) 0.7290(3) 0.2963(13)
H11_18 H 0.1502 0.7436 0.2323
C16_16 C 0.0400(3) 0.4625(3) 0.6082(12)
H12_16 H 0.0631 0.4669 0.5357
Cd3_7 Cd 0.075253(16) 0.652997(17) 0.17188(8)
Cd1_8 Cd 0.013670(17) 0.755590(23) 0.50521(8)
N1_14 N 0.0138(2) 0.8199(3) 0.2965(10)
O1_17 O 0.04491(18) 0.82687(25) 0.3942(8)
C1_17 C 0.2809(2) 0.8628(3) 0.7518(11)
H1_17 H 0.3025 0.8912 0.7295
O5_14 O 0.0123(2) 0.84857(28) 0.2199(10)
C2_17 C 0.2909(2) 0.8357(3) 0.8397(10)
C3_17 C 0.2398(2) 0.8492(3) 0.6960(10)
H2_18 H 0.2337 0.8683 0.6352
C4_17 C 0.1636(2) 0.7939(3) 0.6693(10)
C5_17 C 0.2076(2) 0.8081(3) 0.7274(10)
C6_18 C 0.1540(3) 0.8188(4) 0.5627(13)
H3_17 H 0.1760 0.8451 0.5197
N3_17 N 0.07952(19) 0.76915(27) 0.5741(9)
C7_17 C 0.2174(2) 0.7804(3) 0.8130(11)
H4_17 H 0.1957 0.7521 0.8343
C8_17 C 0.2587(2) 0.7936(3) 0.8683(13)
H5_17 H 0.2650 0.7742 0.9251
C9_17 C 0.0884(3) 0.7450(4) 0.6755(12)
H6_17 H 0.0656 0.7189 0.7163
C10_17 C 0.1121(3) 0.8054(4) 0.5180(12)
H7_17 H 0.1065 0.8231 0.4438
C11_18 C 0.3352(2) 0.8501(4) 0.8946(11)
N4_9 N 0.35494(19) 0.88674(28) 0.9886(10)
C12_18 C 0.3552(3) 0.8281(4) 0.8511(13)
H8_18 H 0.3402 0.8025 0.7858
C13_18 C 0.3965(3) 0.8423(4) 0.9007(14)
H9_18 H 0.4106 0.8272 0.8701
C14_18 C 0.4170(3) 0.8797(4) 0.9971(14)
C16_17 C 0.1292(3) 0.7559(4) 0.7251(12)
H12_17 H 0.1336 0.7372 0.7976
O7_10 O 0.03300(17) 0.73617(30) 0.2267(8)
N2_18 N 0.0468(2) 0.7111(2) 0.2280(9)
O1_18 O 0.11529(18) 0.62176(18) 0.0609(8)
O2_17 O 0.03481(17) 0.68161(17) 0.3376(8)
O4_18 O 0.07384(17) 0.71556(18) 0.1129(8)
H3_18 H 0.0024 0.4907 0.1864
N3_18 N 0.02296(19) 0.58715(19) 0.2408(9)
C10_18 C 0.0266(3) 0.5546(3) 0.1847(12)
H7_18 H 0.0499 0.5602 0.1105
O2_18 O 0.34827(17) 0.98013(24) 0.9958(8)
C1_18 C 0.0524(2) 0.8039(3) 0.9149(11)
H1_18 H 0.0308 0.7755 0.9372
C2_18 C 0.0424(2) 0.8310(3) 0.8270(10)
C3_18 C 0.0935(2) 0.8175(3) 0.9707(10)
C4_18 C 0.1697(2) 0.8728(3) 0.9974(10)
C5_18 C 0.1257(2) 0.8586(3) 0.9393(10)
C7_18 C 0.1159(2) 0.8863(3) 0.8537(11)
H4_18 H 0.1376 0.9146 0.8324
C8_18 C 0.0746(2) 0.8731(3) 0.7984(13)
H5_18 H 0.0683 0.8925 0.7416
C9_18 C 0.2449(3) 0.9217(4) 0.9912(12)
H6_18 H 0.2677 0.9478 0.9504
C16_18 C 0.2041(3) 0.9108(4) 0.9416(12)
H12_18 H 0.1997 0.9295 0.8691
N1_15 N 0.8606(2) 0.3471(2) 0.0368(10)
O3_15 O 0.86972(16) 0.31797(18) 0.0531(8)
O5_15 O 0.83040(19) 0.3456(2) 0.1134(10)
O7_11 O 0.96350(25) 0.36634(17) 0.1067(8)
N1_16 N 0.4866(3) 0.1394(2) 0.0368(10)
O3_16 O 0.44826(24) 0.13028(16) 0.0531(8)
O5_16 O 0.51524(28) 0.16960(19) 0.1134(10)
O7_12 O 0.40283(30) 0.03650(25) 0.1067(8)
O6_5 O 0.59717(19) 0.96350(25) 0.8933(8)
N1_17 N 0.5134(3) 0.8606(2) 0.9632(10)
O3_17 O 0.55174(24) 0.86972(16) 0.9469(8)
O5_17 O 0.48476(28) 0.83040(19) 0.8866(10)
O6_6 O 0.03650(25) 0.63366(17) 0.8933(8)
N1_18 N 0.1394(2) 0.6529(2) 0.9632(10)
O3_18 O 0.13028(16) 0.68203(18) 0.9469(8)
O5_18 O 0.16960(19) 0.6544(2) 0.8866(10)
loop_
_geom_bond_atom_site_label_1
_geom_bond_atom_site_label_2
_geom_bond_site_symmetry_1
_geom_bond_site_symmetry_2
Cd1 O1 1_555 1_555
N1 O1 1_555 1_555
C1 H1 1_555 1_555
O5 N1 1_555 1_555
C2 C1 1_555 1_555
C3 C1 1_555 1_555
H2 C3 1_555 1_555
C4 C5 1_555 1_555
C5 C3 1_555 1_555
C6 C4 1_555 1_555
H3 C6 1_555 1_555
N3 Cd1 1_555 1_555
C7 C5 1_555 1_555
H4 C7 1_555 1_555
C8 C2 1_555 1_555
H5 C8 1_555 1_555
C9 N3 1_555 1_555
H6 C9 1_555 1_555
C10 C6 1_555 1_555
H7 C10 1_555 1_555
C11 C2 1_555 1_555
N4 C11 1_555 1_555
C12 C11 1_555 1_555
H8 C12 1_555 1_555
C13 C12 1_555 1_555
H9 C13 1_555 1_555
C14 C13 1_555 1_555
C16 C4 1_555 1_555
H12 C16 1_555 1_555
O7 Cd1 1_555 1_555
N3 C10 1_555 1_555
C7 C8 1_555 1_555
C9 C16 1_555 1_555
H11 C15 1_555 1_555
Cd1_2 O1_2 1_555 1_555
N1_2 O1_2 1_555 1_555
N2 O2 1_555 1_555
O2 Cd1_2 1_555 1_555
O3 Cd1_2 1_555 1_555
O4 Cd1_2 1_555 1_555
C1_2 H1_2 1_555 1_555
O5_2 N1_2 1_555 1_555
O6 N2 1_555 1_555
C2_2 C1_2 1_555 1_555
C3_2 C1_2 1_555 1_555
H2_2 C3_2 1_555 1_555
C4_2 C5_2 1_555 1_555
C5_2 C3_2 1_555 1_555
C6_2 C4_2 1_555 1_555
H3_2 C6_2 1_555 1_555
N3_2 Cd1_2 1_555 1_555
C7_2 C5_2 1_555 1_555
H4_2 C7_2 1_555 1_555
C8_2 C2_2 1_555 1_555
H5_2 C8_2 1_555 1_555
C9_2 N3_2 1_555 1_555
H6_2 C9_2 1_555 1_555
C10_2 C6_2 1_555 1_555
H7_2 C10_2 1_555 1_555
C11_2 C2_2 1_555 1_555
N4_2 C11_2 1_555 1_555
C12_2 C11_2 1_555 1_555
H8_2 C12_2 1_555 1_555
C13_2 C12_2 1_555 1_555
H9_2 C13_2 1_555 1_555
C14_2 C13_2 1_555 1_555
C16_2 C4_2 1_555 1_555
H12_2 C16_2 1_555 1_555
Cd2 O6 1_555 1_555
O7_2 Cd1_2 1_555 1_555
N5 Cd1_2 1_555 1_555
N1_2 O3 1_555 1_555
N2 O4 1_555 1_555
N3_2 C10_2 1_555 1_555
C7_2 C8_2 1_555 1_555
C9_2 C16_2 1_555 1_555
O5_3 N1_3 1_555 1_555
N1_3 O3_2 1_555 1_555
Cd1_3 O1_3 1_555 1_555
N2_2 O2_2 1_555 1_555
O2_2 Cd1_3 1_555 1_555
O4_2 Cd1_3 1_555 1_555
C1_3 H1_3 1_555 1_555
O7_2 N2_2 1_555 1_555
C2_3 C1_3 1_555 1_555
C3_3 C1_3 1_555 1_555
H2_3 C3_3 1_555 1_555
C4_3 C5_3 1_555 1_555
C5_3 C3_3 1_555 1_555
C6_3 C4_3 1_555 1_555
H3_3 C6_3 1_555 1_555
N3_3 Cd1_3 1_555 1_555
C7_3 C5_3 1_555 1_555
H4_3 C7_3 1_555 1_555
C8_3 C2_3 1_555 1_555
H5_3 C8_3 1_555 1_555
C9_3 N3_3 1_555 1_555
H6_3 C9_3 1_555 1_555
C10_3 C6_3 1_555 1_555
H7_3 C10_3 1_555 1_555
C11_3 C2_3 1_555 1_555
N4_3 C11_3 1_555 1_555
C12_3 C11_3 1_555 1_555
H8_3 C12_3 1_555 1_555
C13_3 C12_3 1_555 1_555
H9_3 C13_3 1_555 1_555
C14_3 C13_3 1_555 1_555
H10_2 C14_3 1_555 1_555
C15_2 N4_3 1_555 1_555
H11_2 C15_2 1_555 1_555
C16_3 C4_3 1_555 1_555
H12_3 C16_3 1_555 1_555
Cd3_2 N4_3 1_555 1_555
N5_2 Cd1_3 1_555 1_555
N2_2 O4_2 1_555 1_555
N3_3 C10_3 1_555 1_555
C7_3 C8_3 1_555 1_555
C9_3 C16_3 1_555 1_555
C14_3 C15_2 1_555 1_555
Cd1_4 O1_4 1_555 1_555
N2_3 O2_3 1_555 1_555
O2_3 Cd1_4 1_555 1_555
O4_3 Cd1_4 1_555 1_555
O7 N2_3 1_555 1_555
N3_4 Cd1_4 1_555 1_555
H7_4 C10_4 1_555 1_555
N5_3 Cd1_4 1_555 1_555
N2_3 O4_3 1_555 1_555
N3_4 C10_4 1_555 1_555
C1_4 H1_4 1_555 1_555
C2_4 C1_4 1_555 1_555
C3_4 C1_4 1_555 1_555
H2_4 C3_4 1_555 1_555
C4_4 C5_4 1_555 1_555
C5_4 C3_4 1_555 1_555
C6_4 C4_4 1_555 1_555
C7_4 C5_4 1_555 1_555
H4_4 C7_4 1_555 1_555
C8_4 C2_4 1_555 1_555
H5_4 C8_4 1_555 1_555
H6_4 C9_4 1_555 1_555
C11_4 C2_4 1_555 1_555
N4_4 C11_4 1_555 1_555
C12_4 C11_4 1_555 1_555
H8_4 C12_4 1_555 1_555
C13_4 C12_4 1_555 1_555
H9_4 C13_4 1_555 1_555
C14_4 C13_4 1_555 1_555
H10_3 C14_4 1_555 1_555
C15_3 N4_4 1_555 1_555
H11_3 C15_3 1_555 1_555
C16_4 C4_4 1_555 1_555
H12_4 C16_4 1_555 1_555
Cd3_3 N4_4 1_555 1_555
C7_4 C8_4 1_555 1_555
C9_4 C16_4 1_555 1_555
C14_4 C15_3 1_555 1_555
Cd2 O1_5 1_555 1_555
N1_4 O1_5 1_555 1_555
O3_3 Cd2 1_555 1_555
O4_4 Cd2 1_555 1_555
O5_4 N1_4 1_555 1_555
O7_3 N2_4 1_555 1_555
H3_5 C6_5 1_555 1_555
N3_5 Cd2 1_555 1_555
C10_5 C6_5 1_555 1_555
H7_5 C10_5 1_555 1_555
N1_4 O3_3 1_555 1_555
N2_4 O4_4 1_555 1_555
N3_5 C10_5 1_555 1_555
C1_5 H1_5 1_555 1_555
C2_5 C1_5 1_555 1_555
C3_5 C1_5 1_555 1_555
C4_5 C5_5 1_555 1_555
C5_5 C3_5 1_555 1_555
C7_5 C5_5 1_555 1_555
H4_5 C7_5 1_555 1_555
C8_5 C2_5 1_555 1_555
H5_5 C8_5 1_555 1_555
H6_5 C9_5 1_555 1_555
C16_5 C4_5 1_555 1_555
H12_5 C16_5 1_555 1_555
C7_5 C8_5 1_555 1_555
C9_5 C16_5 1_555 1_555
C1_6 H1_6 1_555 1_555
C2_6 C1_6 1_555 1_555
C3_6 C1_6 1_555 1_555
C4_6 C5_6 1_555 1_555
C5_6 C3_6 1_555 1_555
C7_6 C5_6 1_555 1_555
H4_6 C7_6 1_555 1_555
C8_6 C2_6 1_555 1_555
H5_6 C8_6 1_555 1_555
H6_6 C9_6 1_555 1_555
C11_5 C2_6 1_555 1_555
N5 C11_5 1_555 1_555
C12_5 C11_5 1_555 1_555
H8_5 C12_5 1_555 1_555
C13_5 C12_5 1_555 1_555
H9_5 C13_5 1_555 1_555
C14_5 C13_5 1_555 1_555
H10_4 C14_5 1_555 1_555
C15_4 N5 1_555 1_555
H11_4 C15_4 1_555 1_555
C16_6 C4_6 1_555 1_555
H12_6 C16_6 1_555 1_555
C7_6 C8_6 1_555 1_555
C9_6 C16_6 1_555 1_555
C14_5 C15_4 1_555 1_555
H11_5 C15_5 1_555 1_555
Cd3_4 O1_6 1_555 1_555
N1_5 O1_6 1_555 1_555
C1_7 H1_7 1_555 1_555
O5_5 N1_5 1_555 1_555
C2_7 C1_7 1_555 1_555
C3_7 C1_7 1_555 1_555
H2_6 C3_7 1_555 1_555
C4_7 C5_7 1_555 1_555
C5_7 C3_7 1_555 1_555
C6_6 C4_7 1_555 1_555
H3_6 C6_6 1_555 1_555
N3_6 Cd3_4 1_555 1_555
C7_7 C5_7 1_555 1_555
H4_7 C7_7 1_555 1_555
C8_7 C2_7 1_555 1_555
H5_7 C8_7 1_555 1_555
C9_7 N3_6 1_555 1_555
H6_7 C9_7 1_555 1_555
C10_6 C6_6 1_555 1_555
H7_6 C10_6 1_555 1_555
C11_6 C2_7 1_555 1_555
N5_4 C11_6 1_555 1_555
C12_6 C11_6 1_555 1_555
H8_6 C12_6 1_555 1_555
C13_6 C12_6 1_555 1_555
H9_6 C13_6 1_555 1_555
C14_6 C13_6 1_555 1_555
C16_7 C4_7 1_555 1_555
H12_7 C16_7 1_555 1_555
O7_4 Cd3_4 1_555 1_555
N3_6 C10_6 1_555 1_555
C7_7 C8_7 1_555 1_555
C9_7 C16_7 1_555 1_555
Cd1_5 O1_7 1_555 1_555
N1_6 O1_7 1_555 1_555
N2_5 O2_6 1_555 1_555
O2_6 Cd1_5 1_555 1_555
O3_4 Cd1_5 1_555 1_555
O4_5 Cd1_5 1_555 1_555
C1_8 H1_8 1_555 1_555
O5_6 N1_6 1_555 1_555
O6_2 N2_5 1_555 1_555
C2_8 C1_8 1_555 1_555
C3_8 C1_8 1_555 1_555
H2_7 C3_8 1_555 1_555
C4_8 C5_8 1_555 1_555
C5_8 C3_8 1_555 1_555
C6_7 C4_8 1_555 1_555
H3_7 C6_7 1_555 1_555
N3_7 Cd1_5 1_555 1_555
C7_8 C5_8 1_555 1_555
H4_8 C7_8 1_555 1_555
C8_8 C2_8 1_555 1_555
H5_8 C8_8 1_555 1_555
C9_8 N3_7 1_555 1_555
H6_8 C9_8 1_555 1_555
C10_7 C6_7 1_555 1_555
H7_7 C10_7 1_555 1_555
C11_7 C2_8 1_555 1_555
N4_5 C11_7 1_555 1_555
C12_7 C11_7 1_555 1_555
H8_7 C12_7 1_555 1_555
C13_7 C12_7 1_555 1_555
H9_7 C13_7 1_555 1_555
C14_7 C13_7 1_555 1_555
C16_8 C4_8 1_555 1_555
H12_8 C16_8 1_555 1_555
Cd3 O6_2 1_555 1_555
O7_5 Cd1_5 1_555 1_555
N5_5 Cd1_5 1_555 1_555
N1_6 O3_4 1_555 1_555
N2_5 O4_5 1_555 1_555
N3_7 C10_7 1_555 1_555
C7_8 C8_8 1_555 1_555
C9_8 C16_8 1_555 1_555
Cd3_2 O1_8 1_555 1_555
N2_6 O2_7 1_555 1_555
O2_7 Cd3_2 1_555 1_555
O4_6 Cd3_2 1_555 1_555
C1_9 H1_9 1_555 1_555
O7_5 N2_6 1_555 1_555
C2_9 C1_9 1_555 1_555
C3_9 C1_9 1_555 1_555
H2_8 C3_9 1_555 1_555
C4_9 C5_9 1_555 1_555
C5_9 C3_9 1_555 1_555
C6_8 C4_9 1_555 1_555
H3_8 C6_8 1_555 1_555
N3_8 Cd3_2 1_555 1_555
C7_9 C5_9 1_555 1_555
H4_9 C7_9 1_555 1_555
C8_9 C2_9 1_555 1_555
H5_9 C8_9 1_555 1_555
C9_9 N3_8 1_555 1_555
H6_9 C9_9 1_555 1_555
C10_8 C6_8 1_555 1_555
H7_8 C10_8 1_555 1_555
C11_8 C2_9 1_555 1_555
N5_2 C11_8 1_555 1_555
C12_8 C11_8 1_555 1_555
H8_8 C12_8 1_555 1_555
C13_8 C12_8 1_555 1_555
H9_8 C13_8 1_555 1_555
C14_8 C13_8 1_555 1_555
H10_6 C14_8 1_555 1_555
C15_6 N5_2 1_555 1_555
H11_6 C15_6 1_555 1_555
C16_9 C4_9 1_555 1_555
H12_9 C16_9 1_555 1_555
N2_6 O4_6 1_555 1_555
N3_8 C10_8 1_555 1_555
C7_9 C8_9 1_555 1_555
C9_9 C16_9 1_555 1_555
C14_8 C15_6 1_555 1_555
O5_7 N1_7 1_555 1_555
N1_7 O3_5 1_555 1_555
C1_10 H1_10 1_555 1_555
C2_10 C1_10 1_555 1_555
C3_10 C1_10 1_555 1_555
H2_9 C3_10 1_555 1_555
C4_10 C5_10 1_555 1_555
C5_10 C3_10 1_555 1_555
C6_9 C4_10 1_555 1_555
C7_10 C5_10 1_555 1_555
H4_10 C7_10 1_555 1_555
C8_10 C2_10 1_555 1_555
H5_10 C8_10 1_555 1_555
H6_10 C9_10 1_555 1_555
C11_9 C2_10 1_555 1_555
N5_3 C11_9 1_555 1_555
C12_9 C11_9 1_555 1_555
H8_9 C12_9 1_555 1_555
C13_9 C12_9 1_555 1_555
H9_9 C13_9 1_555 1_555
C14_9 C13_9 1_555 1_555
H10_7 C14_9 1_555 1_555
C15_7 N5_3 1_555 1_555
H11_7 C15_7 1_555 1_555
C16_10 C4_10 1_555 1_555
H12_10 C16_10 1_555 1_555
C7_10 C8_10 1_555 1_555
C9_10 C16_10 1_555 1_555
C14_9 C15_7 1_555 1_555
Cd3_3 O1_9 1_555 1_555
N2_7 O2_8 1_555 1_555
O2_8 Cd3_3 1_555 1_555
O4_7 Cd3_3 1_555 1_555
O7_4 N2_7 1_555 1_555
N3_9 Cd3_3 1_555 1_555
H7_9 C10_9 1_555 1_555
N2_7 O4_7 1_555 1_555
N3_9 C10_9 1_555 1_555
C1_11 H1_11 1_555 1_555
C2_11 C1_11 1_555 1_555
C3_11 C1_11 1_555 1_555
C4_11 C5_11 1_555 1_555
C5_11 C3_11 1_555 1_555
C7_11 C5_11 1_555 1_555
H4_11 C7_11 1_555 1_555
C8_11 C2_11 1_555 1_555
H5_11 C8_11 1_555 1_555
H6_11 C9_11 1_555 1_555
C16_11 C4_11 1_555 1_555
H12_11 C16_11 1_555 1_555
C7_11 C8_11 1_555 1_555
C9_11 C16_11 1_555 1_555
Cd3 O1_10 1_555 1_555
N1_8 O1_10 1_555 1_555
O3_6 Cd3 1_555 1_555
O4_8 Cd3 1_555 1_555
O5_8 N1_8 1_555 1_555
O7_6 N2_8 1_555 1_555
H3_10 C6_10 1_555 1_555
N3_10 Cd3 1_555 1_555
C10_10 C6_10 1_555 1_555
H7_10 C10_10 1_555 1_555
N1_8 O3_6 1_555 1_555
N2_8 O4_8 1_555 1_555
N3_10 C10_10 1_555 1_555
C1_12 H1_12 1_555 1_555
C2_12 C1_12 1_555 1_555
C3_12 C1_12 1_555 1_555
C4_12 C5_12 1_555 1_555
C5_12 C3_12 1_555 1_555
C7_12 C5_12 1_555 1_555
H4_12 C7_12 1_555 1_555
C8_12 C2_12 1_555 1_555
H5_12 C8_12 1_555 1_555
H6_12 C9_12 1_555 1_555
C11_10 C2_12 1_555 1_555
N5_5 C11_10 1_555 1_555
C12_10 C11_10 1_555 1_555
H8_10 C12_10 1_555 1_555
C13_10 C12_10 1_555 1_555
H9_10 C13_10 1_555 1_555
C14_10 C13_10 1_555 1_555
H10_8 C14_10 1_555 1_555
C15_8 N5_5 1_555 1_555
H11_8 C15_8 1_555 1_555
C16_12 C4_12 1_555 1_555
H12_12 C16_12 1_555 1_555
C7_12 C8_12 1_555 1_555
C9_12 C16_12 1_555 1_555
C14_10 C15_8 1_555 1_555
N2_9 O2_11 1_555 1_555
O6_3 N2_9 1_555 1_555
Cd2_2 O6_3 1_555 1_555
N2_9 O4_9 1_555 1_555
H11_9 C15_9 1_555 1_555
N5_6 C11_11 1_555 1_555
C12_11 C11_11 1_555 1_555
H8_11 C12_11 1_555 1_555
C13_11 C12_11 1_555 1_555
H9_11 C13_11 1_555 1_555
C14_11 C13_11 1_555 1_555
H10_10 C14_11 1_555 1_555
C15_10 N5_6 1_555 1_555
H11_10 C15_10 1_555 1_555
C14_11 C15_10 1_555 1_555
Cd2_2 O1_11 1_555 1_555
N1_9 O1_11 1_555 1_555
O3_8 Cd2_2 1_555 1_555
O4_10 Cd2_2 1_555 1_555
O5_9 N1_9 1_555 1_555
H3_11 C6_11 1_555 1_555
N3_11 Cd2_2 1_555 1_555
C10_11 C6_11 1_555 1_555
H7_11 C10_11 1_555 1_555
N1_9 O3_8 1_555 1_555
N2_10 O4_10 1_555 1_555
N3_11 C10_11 1_555 1_555
N2_11 O2_12 1_555 1_555
O6_4 N2_11 1_555 1_555
Cd2_3 O6_4 1_555 1_555
N2_11 O4_11 1_555 1_555
N5_7 C11_12 1_555 1_555
C12_12 C11_12 1_555 1_555
H8_12 C12_12 1_555 1_555
C13_12 C12_12 1_555 1_555
H9_12 C13_12 1_555 1_555
C14_12 C13_12 1_555 1_555
H10_11 C14_12 1_555 1_555
C15_11 N5_7 1_555 1_555
H11_11 C15_11 1_555 1_555
C14_12 C15_11 1_555 1_555
H11_12 C15_12 1_555 1_555
Cd2_3 O1_12 1_555 1_555
N1_10 O1_12 1_555 1_555
O3_10 Cd2_3 1_555 1_555
O4_12 Cd2_3 1_555 1_555
O5_10 N1_10 1_555 1_555
H3_12 C6_12 1_555 1_555
N3_12 Cd2_3 1_555 1_555
C10_12 C6_12 1_555 1_555
H7_12 C10_12 1_555 1_555
N1_10 O3_10 1_555 1_555
N2_12 O4_12 1_555 1_555
N3_12 C10_12 1_555 1_555
Cd1_6 O1_13 1_555 1_555
N1_11 O1_13 1_555 1_555
C1_13 H1_13 1_555 1_555
O5_11 N1_11 1_555 1_555
C2_13 C1_13 1_555 1_555
C3_13 C1_13 1_555 1_555
H2_13 C3_13 1_555 1_555
C4_13 C5_13 1_555 1_555
C5_13 C3_13 1_555 1_555
C6_13 C4_13 1_555 1_555
H3_13 C6_13 1_555 1_555
N3_13 Cd1_6 1_555 1_555
C7_13 C5_13 1_555 1_555
H4_13 C7_13 1_555 1_555
C8_13 C2_13 1_555 1_555
H5_13 C8_13 1_555 1_555
C9_13 N3_13 1_555 1_555
H6_13 C9_13 1_555 1_555
C10_13 C6_13 1_555 1_555
H7_13 C10_13 1_555 1_555
C11_13 C2_13 1_555 1_555
N4_6 C11_13 1_555 1_555
C12_13 C11_13 1_555 1_555
H8_13 C12_13 1_555 1_555
C13_13 C12_13 1_555 1_555
H9_13 C13_13 1_555 1_555
C14_13 C13_13 1_555 1_555
C16_13 C4_13 1_555 1_555
H12_13 C16_13 1_555 1_555
O7_7 Cd1_6 1_555 1_555
N3_13 C10_13 1_555 1_555
C7_13 C8_13 1_555 1_555
C9_13 C16_13 1_555 1_555
Cd1_7 O1_14 1_555 1_555
N2_13 O2_13 1_555 1_555
O2_13 Cd1_7 1_555 1_555
O4_13 Cd1_7 1_555 1_555
O7_7 N2_13 1_555 1_555
N3_14 Cd1_7 1_555 1_555
H7_14 C10_14 1_555 1_555
N5_8 Cd1_7 1_555 1_555
N2_13 O4_13 1_555 1_555
N3_14 C10_14 1_555 1_555
C1_14 H1_14 1_555 1_555
C2_14 C1_14 1_555 1_555
C3_14 C1_14 1_555 1_555
C4_14 C5_14 1_555 1_555
C5_14 C3_14 1_555 1_555
C7_14 C5_14 1_555 1_555
H4_14 C7_14 1_555 1_555
C8_14 C2_14 1_555 1_555
H5_14 C8_14 1_555 1_555
H6_14 C9_14 1_555 1_555
C16_14 C4_14 1_555 1_555
H12_14 C16_14 1_555 1_555
C7_14 C8_14 1_555 1_555
C9_14 C16_14 1_555 1_555
C1_15 H1_15 1_555 1_555
C2_15 C1_15 1_555 1_555
C3_15 C1_15 1_555 1_555
H2_14 C3_15 1_555 1_555
C4_15 C5_15 1_555 1_555
C5_15 C3_15 1_555 1_555
C6_14 C4_15 1_555 1_555
C7_15 C5_15 1_555 1_555
H4_15 C7_15 1_555 1_555
C8_15 C2_15 1_555 1_555
H5_15 C8_15 1_555 1_555
H6_15 C9_15 1_555 1_555
C11_14 C2_15 1_555 1_555
N5_8 C11_14 1_555 1_555
C12_14 C11_14 1_555 1_555
H8_14 C12_14 1_555 1_555
C13_14 C12_14 1_555 1_555
H9_14 C13_14 1_555 1_555
C14_14 C13_14 1_555 1_555
H10_13 C14_14 1_555 1_555
C15_13 N5_8 1_555 1_555
H11_13 C15_13 1_555 1_555
C16_15 C4_15 1_555 1_555
H12_15 C16_15 1_555 1_555
C7_15 C8_15 1_555 1_555
C9_15 C16_15 1_555 1_555
C14_14 C15_13 1_555 1_555
H11_14 C15_14 1_555 1_555
N4_7 C11_15 1_555 1_555
C12_15 C11_15 1_555 1_555
H8_15 C12_15 1_555 1_555
C13_15 C12_15 1_555 1_555
H9_15 C13_15 1_555 1_555
C14_15 C13_15 1_555 1_555
H10_15 C14_15 1_555 1_555
C15_15 N4_7 1_555 1_555
H11_15 C15_15 1_555 1_555
C14_15 C15_15 1_555 1_555
Cd3_5 O1_15 1_555 1_555
N1_12 O1_15 1_555 1_555
O3_11 Cd3_5 1_555 1_555
O4_14 Cd3_5 1_555 1_555
O5_12 N1_12 1_555 1_555
H3_15 C6_15 1_555 1_555
N3_15 Cd3_5 1_555 1_555
C10_15 C6_15 1_555 1_555
H7_15 C10_15 1_555 1_555
O7_8 Cd3_5 1_555 1_555
N1_12 O3_11 1_555 1_555
N2_14 O4_14 1_555 1_555
N3_15 C10_15 1_555 1_555
N2_15 O2_15 1_555 1_555
O7_8 N2_15 1_555 1_555
N2_15 O4_15 1_555 1_555
H11_16 C15_16 1_555 1_555
Cd3_6 O1_16 1_555 1_555
N1_13 O1_16 1_555 1_555
O3_13 Cd3_6 1_555 1_555
O4_16 Cd3_6 1_555 1_555
O5_13 N1_13 1_555 1_555
H3_16 C6_16 1_555 1_555
N3_16 Cd3_6 1_555 1_555
C10_16 C6_16 1_555 1_555
H7_16 C10_16 1_555 1_555
O7_9 Cd3_6 1_555 1_555
N1_13 O3_13 1_555 1_555
N2_16 O4_16 1_555 1_555
N3_16 C10_16 1_555 1_555
N2_17 O2_16 1_555 1_555
O7_9 N2_17 1_555 1_555
N2_17 O4_17 1_555 1_555
N5_9 C11_16 1_555 1_555
C12_16 C11_16 1_555 1_555
H8_16 C12_16 1_555 1_555
C13_16 C12_16 1_555 1_555
H9_16 C13_16 1_555 1_555
C14_16 C13_16 1_555 1_555
H10_17 C14_16 1_555 1_555
C15_17 N5_9 1_555 1_555
H11_17 C15_17 1_555 1_555
C14_16 C15_17 1_555 1_555
C1_16 H1_16 1_555 1_555
C2_16 C1_16 1_555 1_555
C3_16 C1_16 1_555 1_555
H2_17 C3_16 1_555 1_555
C4_16 C5_16 1_555 1_555
C5_16 C3_16 1_555 1_555
C6_17 C4_16 1_555 1_555
C7_16 C5_16 1_555 1_555
H4_16 C7_16 1_555 1_555
C8_16 C2_16 1_555 1_555
H5_16 C8_16 1_555 1_555
H6_16 C9_16 1_555 1_555
C11_17 C2_16 1_555 1_555
N4_8 C11_17 1_555 1_555
C12_17 C11_17 1_555 1_555
H8_17 C12_17 1_555 1_555
C13_17 C12_17 1_555 1_555
H9_17 C13_17 1_555 1_555
C14_17 C13_17 1_555 1_555
H10_18 C14_17 1_555 1_555
C15_18 N4_8 1_555 1_555
H11_18 C15_18 1_555 1_555
C16_16 C4_16 1_555 1_555
H12_16 C16_16 1_555 1_555
Cd3_7 N4_8 1_555 1_555
C7_16 C8_16 1_555 1_555
C9_16 C16_16 1_555 1_555
C14_17 C15_18 1_555 1_555
Cd1_8 O1_17 1_555 1_555
N1_14 O1_17 1_555 1_555
C1_17 H1_17 1_555 1_555
O5_14 N1_14 1_555 1_555
C2_17 C1_17 1_555 1_555
C3_17 C1_17 1_555 1_555
H2_18 C3_17 1_555 1_555
C4_17 C5_17 1_555 1_555
C5_17 C3_17 1_555 1_555
C6_18 C4_17 1_555 1_555
H3_17 C6_18 1_555 1_555
N3_17 Cd1_8 1_555 1_555
C7_17 C5_17 1_555 1_555
H4_17 C7_17 1_555 1_555
C8_17 C2_17 1_555 1_555
H5_17 C8_17 1_555 1_555
C9_17 N3_17 1_555 1_555
H6_17 C9_17 1_555 1_555
C10_17 C6_18 1_555 1_555
H7_17 C10_17 1_555 1_555
C11_18 C2_17 1_555 1_555
N4_9 C11_18 1_555 1_555
C12_18 C11_18 1_555 1_555
H8_18 C12_18 1_555 1_555
C13_18 C12_18 1_555 1_555
H9_18 C13_18 1_555 1_555
C14_18 C13_18 1_555 1_555
C16_17 C4_17 1_555 1_555
H12_17 C16_17 1_555 1_555
O7_10 Cd1_8 1_555 1_555
N3_17 C10_17 1_555 1_555
C7_17 C8_17 1_555 1_555
C9_17 C16_17 1_555 1_555
Cd3_7 O1_18 1_555 1_555
N2_18 O2_17 1_555 1_555
O2_17 Cd3_7 1_555 1_555
O4_18 Cd3_7 1_555 1_555
O7_10 N2_18 1_555 1_555
N3_18 Cd3_7 1_555 1_555
H7_18 C10_18 1_555 1_555
N2_18 O4_18 1_555 1_555
N3_18 C10_18 1_555 1_555
C1_18 H1_18 1_555 1_555
C2_18 C1_18 1_555 1_555
C3_18 C1_18 1_555 1_555
C4_18 C5_18 1_555 1_555
C5_18 C3_18 1_555 1_555
C7_18 C5_18 1_555 1_555
H4_18 C7_18 1_555 1_555
C8_18 C2_18 1_555 1_555
H5_18 C8_18 1_555 1_555
H6_18 C9_18 1_555 1_555
C16_18 C4_18 1_555 1_555
H12_18 C16_18 1_555 1_555
C7_18 C8_18 1_555 1_555
C9_18 C16_18 1_555 1_555
O5_15 N1_15 1_555 1_555
N1_15 O3_15 1_555 1_555
O5_16 N1_16 1_555 1_555
N1_16 O3_16 1_555 1_555
O5_17 N1_17 1_555 1_555
N1_17 O3_17 1_555 1_555
O5_18 N1_18 1_555 1_555
N1_18 O3_18 1_555 1_555

#END
