
###############################################################################
#
# This file contains modified crystal structure data generated from the
# MOF subset of the Cambridge Structural Database (CSD) v543 
# hosted by the Cambridge Crystallographic Data Centre (CCDC).
#
# This work is licensed under the Creative Commons
# Attribution-NonCommercial-ShareAlike 4.0 International License.
# To view a copy of this license, visit
# http://creativecommons.org/licenses/by-nc-sa/4.0/
# or send a letter to
# Creative Commons, PO Box 1866, Mountain View, CA 94042, USA.
#
# CIF created using the CSD Python API on 29 September 2022
# The structure has been converted into the P1 space group
# The structure has a 3D framework
# The original CSD entry LOMGIG06 is in the trigonal crystal system
# The framework has been calculated to contain at least 10.0% void space
# The void calculation uses a probe of radius 1.32A, grid spacing 0.4
# The framework is charged, counterions have been retained in the structure
#
###############################################################################

data_LOMGIG06
_chemical_formula_moiety         '(C12 H12 Co10 O24 2-)n'
_symmetry_cell_setting           triclinic
_symmetry_space_group_name_H-M   'P 1'
_symmetry_Int_Tables_number      1
_space_group_name_Hall           'P 1'
loop_
_symmetry_equiv_pos_site_id
_symmetry_equiv_pos_as_xyz
1 x,y,z
_cell_length_a                   8.1560(3)
_cell_length_b                   8.1560(3)
_cell_length_c                   15.4874(6)
_cell_angle_alpha                90
_cell_angle_beta                 90
_cell_angle_gamma                120
_cell_volume                     892.203
loop_
_atom_site_label
_atom_site_type_symbol
_atom_site_fract_x
_atom_site_fract_y
_atom_site_fract_z
Co1 Co 0.0000 0.0000 0.0000
Co2 Co 0.3333 0.6667 0.2500
O1 O 0.21195(17) 0.21794(17) 0.07723(7)
O2 O 0.33323(16) 0.45665(16) 0.16980(7)
C1 C 0.1999(2) 0.3210(2) 0.13249(9)
H1 H 0.0785 0.2940 0.1475
O7 O 0.00599(24) 0.21794(17) 0.42277(7)
O8 O 0.12342(23) 0.45665(16) 0.33020(7)
C4 C 0.1211(3) 0.3210(2) 0.36751(9)
H4 H 0.2155 0.2940 0.3525
Co3 Co -0.0000 -0.0000 0.5000
O14 O 0.54335(16) 0.87658(23) 0.16980(7)
O15 O 0.12342(23) 0.66677(16) 0.16980(7)
O16 O 0.54335(16) 0.66677(16) 0.33020(7)
O17 O 0.33323(16) 0.87658(23) 0.33020(7)
Co1_2 Co -0.0000 -0.0000 1.0000
O13 O 0.21794(17) 0.00599(24) 0.92277(7)
Co1_3 Co 0.0000 1.0000 0.0000
O5 O 0.00599(24) 0.78805(17) 0.07723(7)
C3 C 0.1211(3) 0.8001(2) 0.13249(9)
H3 H 0.2155 0.9215 0.1475
Co3_2 Co 0.0000 1.0000 0.5000
Co1_4 Co -0.0000 1.0000 1.0000
Co1_5 Co 1.0000 0.0000 0.0000
Co3_3 Co 1.0000 -0.0000 0.5000
Co1_6 Co 1.0000 -0.0000 1.0000
O11 O 0.99401(24) 0.21195(17) 0.92277(7)
O12 O 0.87658(23) 0.33323(16) 0.83020(7)
C6 C 0.8789(3) 0.1999(2) 0.86751(9)
H6 H 0.7845 0.0785 0.8525
Co7 Co 0.6667 0.3333 0.7500
Co1_7 Co 1.0000 1.0000 0.0000
O3 O 0.78206(17) 0.99401(24) 0.07723(7)
C2 C 0.6790(2) 0.8789(3) 0.13249(9)
H2 H 0.7060 0.7845 0.1475
Co3_4 Co 1.0000 1.0000 0.5000
Co1_8 Co 1.0000 1.0000 1.0000
O9 O 0.78805(17) 0.78206(17) 0.92277(7)
O10 O 0.66677(16) 0.54335(16) 0.83020(7)
C5 C 0.8001(2) 0.6790(2) 0.86751(9)
H5 H 0.9215 0.7060 0.8525
O10_2 O 0.45665(16) 0.12342(23) 0.83020(7)
C5_2 C 0.3210(2) 0.1211(3) 0.86751(9)
H5_2 H 0.2940 0.2155 0.8525
O7_2 O 0.78206(17) 0.78805(29) 0.42277(7)
C4_2 C 0.6790(2) 0.8001(4) 0.36751(9)
H4_2 H 0.7060 0.9215 0.3525
O7_3 O 0.21195(29) 0.99401(24) 0.42277(7)
C4_3 C 0.1999(4) 0.8789(3) 0.36751(9)
H4_3 H 0.0785 0.7845 0.3525
O9_2 O 0.21794(17) 0.21195(17) 0.57723(7)
O10_3 O 0.45665(16) 0.33323(16) 0.66980(7)
C5_3 C 0.3210(2) 0.1999(2) 0.63249(9)
H5_3 H 0.2940 0.0785 0.6475
O11_2 O 0.78805(17) 0.00599(24) 0.57723(7)
O12_2 O 0.66677(16) 0.12342(23) 0.66980(7)
C6_2 C 0.8001(2) 0.1211(3) 0.63249(9)
H6_2 H 0.9215 0.2155 0.6475
O13_2 O 0.99401(24) 0.78206(17) 0.57723(7)
O10_4 O 0.87658(23) 0.54335(16) 0.66980(7)
C5_4 C 0.8789(3) 0.6790(2) 0.63249(9)
H5_4 H 0.7845 0.7060 0.6475
loop_
_geom_bond_atom_site_label_1
_geom_bond_atom_site_label_2
_geom_bond_site_symmetry_1
_geom_bond_site_symmetry_2
Co1 O1 1_555 1_555
Co2 O2 1_555 1_555
O1 C1 1_555 1_555
O2 C1 1_555 1_555
C1 H1 1_555 1_555
O7 C4 1_555 1_555
O8 Co2 1_555 1_555
C4 O8 1_555 1_555
H4 C4 1_555 1_555
Co3 O7 1_555 1_555
O14 Co2 1_555 1_555
O15 Co2 1_555 1_555
O16 Co2 1_555 1_555
O17 Co2 1_555 1_555
O13 Co1_2 1_555 1_555
O5 Co1_3 1_555 1_555
O15 C3 1_555 1_555
C3 O5 1_555 1_555
H3 C3 1_555 1_555
O11 Co1_6 1_555 1_555
O12 C6 1_555 1_555
C6 O11 1_555 1_555
H6 C6 1_555 1_555
Co7 O12 1_555 1_555
O3 Co1_7 1_555 1_555
O14 C2 1_555 1_555
C2 O3 1_555 1_555
H2 C2 1_555 1_555
O9 Co1_8 1_555 1_555
O10 C5 1_555 1_555
C5 O9 1_555 1_555
H5 C5 1_555 1_555
Co7 O10 1_555 1_555
O10_2 C5_2 1_555 1_555
C5_2 O13 1_555 1_555
H5_2 C5_2 1_555 1_555
Co7 O10_2 1_555 1_555
O7_2 C4_2 1_555 1_555
C4_2 O16 1_555 1_555
H4_2 C4_2 1_555 1_555
Co3_4 O7_2 1_555 1_555
O7_3 C4_3 1_555 1_555
C4_3 O17 1_555 1_555
H4_3 C4_3 1_555 1_555
Co3_2 O7_3 1_555 1_555
O9_2 Co3 1_555 1_555
O10_3 C5_3 1_555 1_555
C5_3 O9_2 1_555 1_555
H5_3 C5_3 1_555 1_555
Co7 O10_3 1_555 1_555
O11_2 Co3_3 1_555 1_555
O12_2 C6_2 1_555 1_555
C6_2 O11_2 1_555 1_555
H6_2 C6_2 1_555 1_555
Co7 O12_2 1_555 1_555
O13_2 Co3_4 1_555 1_555
O10_4 C5_4 1_555 1_555
C5_4 O13_2 1_555 1_555
H5_4 C5_4 1_555 1_555
Co7 O10_4 1_555 1_555

#END
