
###############################################################################
#
# This file contains modified crystal structure data generated from the
# MOF subset of the Cambridge Structural Database (CSD) v543 
# hosted by the Cambridge Crystallographic Data Centre (CCDC).
#
# This work is licensed under the Creative Commons
# Attribution-NonCommercial-ShareAlike 4.0 International License.
# To view a copy of this license, visit
# http://creativecommons.org/licenses/by-nc-sa/4.0/
# or send a letter to
# Creative Commons, PO Box 1866, Mountain View, CA 94042, USA.
#
# CIF created using the CSD Python API on 29 September 2022
# The structure has been converted into the P1 space group
# The structure has a 3D framework
# The original CSD entry LOMHON04 is in the trigonal crystal system
# The framework has been calculated to contain at least 10.0% void space
# The void calculation uses a probe of radius 1.32A, grid spacing 0.4
# The framework is charged, counterions have been retained in the structure
#
###############################################################################

data_LOMHON04
_chemical_formula_moiety         '(C12 H12 O24 Zn13 4-)n'
_symmetry_cell_setting           triclinic
_symmetry_space_group_name_H-M   'P 1'
_symmetry_Int_Tables_number      1
_space_group_name_Hall           'P 1'
loop_
_symmetry_equiv_pos_site_id
_symmetry_equiv_pos_as_xyz
1 x,y,z
_cell_length_a                   8.1494(3)
_cell_length_b                   8.1494(3)
_cell_length_c                   15.4662(7)
_cell_angle_alpha                90
_cell_angle_beta                 90
_cell_angle_gamma                120
_cell_volume                     889.54
loop_
_atom_site_label
_atom_site_type_symbol
_atom_site_fract_x
_atom_site_fract_y
_atom_site_fract_z
Zn1 Zn 0.0000 0.0000 0.0000
O1 O 0.2121(2) 0.2179(2) 0.07730(9)
C1 C 0.2002(3) 0.3209(3) 0.13245(12)
O2 O 0.3328(2) 0.4561(2) 0.16970(8)
H1 H 0.0787 0.2938 0.1475
Zn2 Zn 0.3333 0.6667 0.2500
O13 O 0.1233(3) 0.4561(2) 0.33030(8)
O14 O 0.5439(2) 0.8767(3) 0.16970(8)
O15 O 0.1233(3) 0.6672(2) 0.16970(8)
O16 O 0.5439(2) 0.6672(2) 0.33030(8)
O17 O 0.3328(2) 0.8767(3) 0.33030(8)
Zn1_2 Zn 0.0000 0.0000 1.0000
O7 O 0.2179(2) 0.0058(3) 0.92270(9)
C6 C 0.3209(3) 0.1207(4) 0.86755(12)
O12 O 0.4561(2) 0.1233(3) 0.83030(8)
H6 H 0.2938 0.2151 0.8525
Zn7 Zn 0.6667 0.3333 0.7500
Zn1_3 Zn 0.0000 1.0000 0.0000
O4 O 0.0058(3) 0.7879(2) 0.07730(9)
C3 C 0.1207(4) 0.7998(3) 0.13245(12)
H3 H 0.2151 0.9213 0.1475
Zn1_4 Zn 1.0000 0.0000 1.0000
O6 O 0.9942(3) 0.2121(2) 0.92270(9)
C5 C 0.8793(4) 0.2002(3) 0.86755(12)
O11 O 0.8767(3) 0.3328(2) 0.83030(8)
H5 H 0.7849 0.0787 0.8525
Zn1_5 Zn 1.0000 1.0000 0.0000
O3 O 0.7821(2) 0.9942(3) 0.07730(9)
C2 C 0.6791(3) 0.8793(4) 0.13245(12)
H2 H 0.7062 0.7849 0.1475
Zn1_6 Zn 1.0000 1.0000 1.0000
O5 O 0.7879(2) 0.7821(2) 0.92270(9)
C4 C 0.7998(3) 0.6791(3) 0.86755(12)
O10 O 0.6672(2) 0.5439(2) 0.83030(8)
H4 H 0.9213 0.7062 0.8525
Zn1_7 Zn 0.0000 0.0000 0.5000
O3_2 O 0.0058(3) 0.2179(2) 0.42270(9)
O5_2 O 0.2179(2) 0.2121(2) 0.57730(9)
C2_2 C 0.1207(4) 0.3209(3) 0.36755(12)
C4_2 C 0.3209(3) 0.2002(3) 0.63245(12)
H2_2 H 0.2151 0.2938 0.3525
O10_2 O 0.4561(2) 0.3328(2) 0.66970(8)
H4_2 H 0.2938 0.0787 0.6475
Zn1_8 Zn 0.0000 1.0000 0.5000
O4_2 O 0.2121(2) 0.9942(3) 0.42270(9)
C3_2 C 0.2002(3) 0.8793(4) 0.36755(12)
H3_2 H 0.0787 0.7849 0.3525
Zn1_9 Zn 1.0000 0.0000 0.5000
O6_2 O 0.7879(2) 0.0058(3) 0.57730(9)
C5_2 C 0.7998(3) 0.1207(4) 0.63245(12)
O11_2 O 0.6672(2) 0.1233(3) 0.66970(8)
H5_2 H 0.9213 0.2151 0.6475
Zn1_10 Zn 1.0000 1.0000 0.5000
O1_2 O 0.7821(2) 0.7879(2) 0.42270(9)
C1_2 C 0.6791(3) 0.7998(3) 0.36755(12)
H1_2 H 0.7062 0.9213 0.3525
O7_2 O 0.9942(3) 0.7821(2) 0.57730(9)
C6_2 C 0.8793(4) 0.6791(3) 0.63245(12)
O12_2 O 0.8767(3) 0.5439(2) 0.66970(8)
H6_2 H 0.7849 0.7062 0.6475
Zn1_11 Zn -0.0000 1.0000 1.0000
Zn1_12 Zn 1.0000 0.0000 0.0000
loop_
_geom_bond_atom_site_label_1
_geom_bond_atom_site_label_2
_geom_bond_site_symmetry_1
_geom_bond_site_symmetry_2
Zn1 O1 1_555 1_555
O1 C1 1_555 1_555
C1 O2 1_555 1_555
O2 Zn2 1_555 1_555
H1 C1 1_555 1_555
Zn2 O13 1_555 1_555
O14 Zn2 1_555 1_555
O15 Zn2 1_555 1_555
O16 Zn2 1_555 1_555
O17 Zn2 1_555 1_555
O7 Zn1_2 1_555 1_555
C6 O7 1_555 1_555
O12 C6 1_555 1_555
H6 C6 1_555 1_555
Zn7 O12 1_555 1_555
O4 Zn1_3 1_555 1_555
C3 O4 1_555 1_555
O15 C3 1_555 1_555
H3 C3 1_555 1_555
O6 Zn1_4 1_555 1_555
C5 O6 1_555 1_555
O11 C5 1_555 1_555
H5 C5 1_555 1_555
Zn7 O11 1_555 1_555
O3 Zn1_5 1_555 1_555
C2 O3 1_555 1_555
O14 C2 1_555 1_555
H2 C2 1_555 1_555
O5 Zn1_6 1_555 1_555
C4 O5 1_555 1_555
O10 C4 1_555 1_555
H4 C4 1_555 1_555
Zn7 O10 1_555 1_555
O3_2 Zn1_7 1_555 1_555
O5_2 Zn1_7 1_555 1_555
C2_2 O3_2 1_555 1_555
C4_2 O5_2 1_555 1_555
O13 C2_2 1_555 1_555
H2_2 C2_2 1_555 1_555
O10_2 C4_2 1_555 1_555
H4_2 C4_2 1_555 1_555
Zn7 O10_2 1_555 1_555
O4_2 Zn1_8 1_555 1_555
C3_2 O4_2 1_555 1_555
O17 C3_2 1_555 1_555
H3_2 C3_2 1_555 1_555
O6_2 Zn1_9 1_555 1_555
C5_2 O6_2 1_555 1_555
O11_2 C5_2 1_555 1_555
H5_2 C5_2 1_555 1_555
Zn7 O11_2 1_555 1_555
Zn1_10 O1_2 1_555 1_555
O1_2 C1_2 1_555 1_555
C1_2 O16 1_555 1_555
H1_2 C1_2 1_555 1_555
O7_2 Zn1_10 1_555 1_555
C6_2 O7_2 1_555 1_555
O12_2 C6_2 1_555 1_555
H6_2 C6_2 1_555 1_555
Zn7 O12_2 1_555 1_555

#END
