
###############################################################################
#
# This file contains modified crystal structure data generated from the
# MOF subset of the Cambridge Structural Database (CSD) v543 
# hosted by the Cambridge Crystallographic Data Centre (CCDC).
#
# This work is licensed under the Creative Commons
# Attribution-NonCommercial-ShareAlike 4.0 International License.
# To view a copy of this license, visit
# http://creativecommons.org/licenses/by-nc-sa/4.0/
# or send a letter to
# Creative Commons, PO Box 1866, Mountain View, CA 94042, USA.
#
# CIF created using the CSD Python API on 29 September 2022
# The structure has been converted into the P1 space group
# The structure has a 3D framework
# The original CSD entry LOMHON05 is in the trigonal crystal system
# The framework has been calculated to contain at least 10.0% void space
# The void calculation uses a probe of radius 1.32A, grid spacing 0.4
# The framework is charged, counterions have been retained in the structure
#
###############################################################################

data_LOMHON05
_chemical_formula_moiety         '(C12 H12 O24 Zn13 4-)n'
_symmetry_cell_setting           triclinic
_symmetry_space_group_name_H-M   'P 1'
_symmetry_Int_Tables_number      1
_space_group_name_Hall           'P 1'
loop_
_symmetry_equiv_pos_site_id
_symmetry_equiv_pos_as_xyz
1 x,y,z
_cell_length_a                   8.1587(4)
_cell_length_b                   8.1587(4)
_cell_length_c                   15.4682(10)
_cell_angle_alpha                90
_cell_angle_beta                 90
_cell_angle_gamma                120
_cell_volume                     891.687
loop_
_atom_site_label
_atom_site_type_symbol
_atom_site_fract_x
_atom_site_fract_y
_atom_site_fract_z
Zn1 Zn 0.0000 0.0000 0.0000
O1 O 0.2119(2) 0.2177(2) 0.07734(10)
C1 C 0.2003(3) 0.3212(3) 0.13234(13)
O2 O 0.3328(2) 0.4562(2) 0.16973(9)
H1 H 0.0790 0.2948 0.1471
Zn2 Zn 0.3333 0.6667 0.2500
O13 O 0.1234(3) 0.4562(2) 0.33027(9)
O14 O 0.5438(2) 0.8766(3) 0.16973(9)
O15 O 0.1234(3) 0.6672(2) 0.16973(9)
O16 O 0.5438(2) 0.6672(2) 0.33027(9)
O17 O 0.3328(2) 0.8766(3) 0.33027(9)
Zn1_2 Zn 0.0000 0.0000 1.0000
O7 O 0.2177(2) 0.0058(3) 0.92266(10)
C6 C 0.3212(3) 0.1209(4) 0.86766(13)
H6 H 0.2948 0.2158 0.8529
O12 O 0.4562(2) 0.1234(3) 0.83027(9)
Zn7 Zn 0.6667 0.3333 0.7500
Zn1_3 Zn 0.0000 1.0000 0.0000
O4 O 0.0058(3) 0.7881(2) 0.07734(10)
C3 C 0.1209(4) 0.7997(3) 0.13234(13)
H3 H 0.2158 0.9210 0.1471
Zn1_4 Zn 1.0000 0.0000 1.0000
O6 O 0.9942(3) 0.2119(2) 0.92266(10)
C5 C 0.8791(4) 0.2003(3) 0.86766(13)
O11 O 0.8766(3) 0.3328(2) 0.83027(9)
H5 H 0.7842 0.0790 0.8529
Zn1_5 Zn 1.0000 1.0000 0.0000
O3 O 0.7823(2) 0.9942(3) 0.07734(10)
C2 C 0.6788(3) 0.8791(4) 0.13234(13)
H2 H 0.7052 0.7842 0.1471
Zn1_6 Zn 1.0000 1.0000 1.0000
O5 O 0.7881(2) 0.7823(2) 0.92266(10)
C4 C 0.7997(3) 0.6788(3) 0.86766(13)
O10 O 0.6672(2) 0.5438(2) 0.83027(9)
H4 H 0.9210 0.7052 0.8529
Zn1_7 Zn 0.0000 0.0000 0.5000
O3_2 O 0.0058(3) 0.2177(2) 0.42266(10)
O5_2 O 0.2177(2) 0.2119(2) 0.57734(10)
C2_2 C 0.1209(4) 0.3212(3) 0.36766(13)
C4_2 C 0.3212(3) 0.2003(3) 0.63234(13)
H2_2 H 0.2158 0.2948 0.3529
O10_2 O 0.4562(2) 0.3328(2) 0.66973(9)
H4_2 H 0.2948 0.0790 0.6471
Zn1_8 Zn 0.0000 1.0000 0.5000
O4_2 O 0.2119(2) 0.9942(3) 0.42266(10)
C3_2 C 0.2003(3) 0.8791(4) 0.36766(13)
H3_2 H 0.0790 0.7842 0.3529
Zn1_9 Zn 1.0000 0.0000 0.5000
O6_2 O 0.7881(2) 0.0058(3) 0.57734(10)
C5_2 C 0.7997(3) 0.1209(4) 0.63234(13)
O11_2 O 0.6672(2) 0.1234(3) 0.66973(9)
H5_2 H 0.9210 0.2158 0.6471
Zn1_10 Zn 1.0000 1.0000 0.5000
O1_2 O 0.7823(2) 0.7881(2) 0.42266(10)
C1_2 C 0.6788(3) 0.7997(3) 0.36766(13)
H1_2 H 0.7052 0.9210 0.3529
O7_2 O 0.9942(3) 0.7823(2) 0.57734(10)
C6_2 C 0.8791(4) 0.6788(3) 0.63234(13)
H6_2 H 0.7842 0.7052 0.6471
O12_2 O 0.8766(3) 0.5438(2) 0.66973(9)
Zn1_11 Zn 0.0000 1.0000 1.0000
Zn1_12 Zn 1.0000 0.0000 0.0000
loop_
_geom_bond_atom_site_label_1
_geom_bond_atom_site_label_2
_geom_bond_site_symmetry_1
_geom_bond_site_symmetry_2
Zn1 O1 1_555 1_555
O1 C1 1_555 1_555
C1 O2 1_555 1_555
O2 Zn2 1_555 1_555
H1 C1 1_555 1_555
Zn2 O13 1_555 1_555
O14 Zn2 1_555 1_555
O15 Zn2 1_555 1_555
O16 Zn2 1_555 1_555
O17 Zn2 1_555 1_555
O7 Zn1_2 1_555 1_555
C6 O7 1_555 1_555
H6 C6 1_555 1_555
O12 C6 1_555 1_555
Zn7 O12 1_555 1_555
O4 Zn1_3 1_555 1_555
C3 O4 1_555 1_555
O15 C3 1_555 1_555
H3 C3 1_555 1_555
O6 Zn1_4 1_555 1_555
C5 O6 1_555 1_555
O11 C5 1_555 1_555
H5 C5 1_555 1_555
Zn7 O11 1_555 1_555
O3 Zn1_5 1_555 1_555
C2 O3 1_555 1_555
O14 C2 1_555 1_555
H2 C2 1_555 1_555
O5 Zn1_6 1_555 1_555
C4 O5 1_555 1_555
O10 C4 1_555 1_555
H4 C4 1_555 1_555
Zn7 O10 1_555 1_555
O3_2 Zn1_7 1_555 1_555
O5_2 Zn1_7 1_555 1_555
C2_2 O3_2 1_555 1_555
C4_2 O5_2 1_555 1_555
O13 C2_2 1_555 1_555
H2_2 C2_2 1_555 1_555
O10_2 C4_2 1_555 1_555
H4_2 C4_2 1_555 1_555
Zn7 O10_2 1_555 1_555
O4_2 Zn1_8 1_555 1_555
C3_2 O4_2 1_555 1_555
O17 C3_2 1_555 1_555
H3_2 C3_2 1_555 1_555
O6_2 Zn1_9 1_555 1_555
C5_2 O6_2 1_555 1_555
O11_2 C5_2 1_555 1_555
H5_2 C5_2 1_555 1_555
Zn7 O11_2 1_555 1_555
Zn1_10 O1_2 1_555 1_555
O1_2 C1_2 1_555 1_555
C1_2 O16 1_555 1_555
H1_2 C1_2 1_555 1_555
O7_2 Zn1_10 1_555 1_555
C6_2 O7_2 1_555 1_555
H6_2 C6_2 1_555 1_555
O12_2 C6_2 1_555 1_555
Zn7 O12_2 1_555 1_555

#END
