
###############################################################################
#
# This file contains modified crystal structure data generated from the
# MOF subset of the Cambridge Structural Database (CSD) v543 
# hosted by the Cambridge Crystallographic Data Centre (CCDC).
#
# This work is licensed under the Creative Commons
# Attribution-NonCommercial-ShareAlike 4.0 International License.
# To view a copy of this license, visit
# http://creativecommons.org/licenses/by-nc-sa/4.0/
# or send a letter to
# Creative Commons, PO Box 1866, Mountain View, CA 94042, USA.
#
# CIF created using the CSD Python API on 29 September 2022
# The structure has been converted into the P1 space group
# The structure has a 3D framework
# The original CSD entry LONHON is in the orthorhombic crystal system
# The original CSD entry LONHON is in a Sohncke space group
# The framework has been calculated to contain at least 10.0% void space
# The void calculation uses a probe of radius 1.32A, grid spacing 0.4
#
###############################################################################

data_LONHON
_chemical_formula_moiety         '(C76 H60 N4 O43 Pb13)n'
_symmetry_cell_setting           triclinic
_symmetry_space_group_name_H-M   'P 1'
_symmetry_Int_Tables_number      1
_space_group_name_Hall           'P 1'
loop_
_symmetry_equiv_pos_site_id
_symmetry_equiv_pos_as_xyz
1 x,y,z
_cell_length_a                   10.7932(12)
_cell_length_b                   12.1372(11)
_cell_length_c                   22.132(2)
_cell_angle_alpha                90
_cell_angle_beta                 90
_cell_angle_gamma                90
_cell_volume                     2899.27
loop_
_atom_site_label
_atom_site_type_symbol
_atom_site_fract_x
_atom_site_fract_y
_atom_site_fract_z
Pb10 Pb 0.08432(5) 0.64551(4) 0.07061(2)
C5 C 0.3281(15) 0.0513(14) 0.7094(7)
C6 C 0.2314(15) 0.0784(15) 0.7482(6)
H3 H 0.1830 0.1402 0.7405
C7 C 0.2071(14) 0.0131(13) 0.7984(7)
H4 H 0.1424 0.0312 0.8243
C8 C 0.3536(13) 0.1265(12) 0.6571(6)
C14 C 0.0290(14) 0.3091(13) 0.9712(7)
H7 H 0.1023 0.3302 0.9900
H8 H 0.0383 0.1525 0.9942
O3 O 0.4252(11) 0.0766(9) 0.6163(4)
O4 O 0.3082(10) 0.2215(9) 0.6521(5)
O8 O 0.0842(10) 0.5331(8) 0.9746(5)
Pb5 Pb 0.33182(5) 0.10000(4) 0.50750(2)
Pb11 Pb 0.41568(5) 0.35449(4) 0.57061(2)
Pb1 Pb 0.16818(5) 0.90000(4) 0.00750(2)
O13 O 0.0748(11) 0.9234(9) 0.1163(4)
O14 O 0.1918(10) 0.7785(9) 0.1521(5)
O15 O 0.2696(10) 0.4833(9) 0.1016(5)
O17 O 0.3972(10) 0.9238(8) 0.0693(5)
O19 O 0.2495(10) 0.7305(8) 0.0220(5)
C1 C 0.2548(14) 0.8579(14) 0.8670(7)
C2 C 0.2794(16) 0.9207(14) 0.8099(7)
C3 C 0.3761(14) 0.8935(12) 0.7711(6)
H1 H 0.4244 0.8316 0.7787
C4 C 0.4004(14) 0.9589(12) 0.7209(6)
H2 H 0.4651 0.9408 0.6950
C17 C 0.0849(17) 0.5609(13) 0.8170(7)
H9 H 0.0149 0.5218 0.8289
C18 C 0.1288(14) 0.4050(13) 0.7427(7)
H10 H 0.2035 0.3738 0.7265
H11 H 0.0697 0.4151 0.7108
H12 H 0.0950 0.3562 0.7726
C19 C 0.2730(15) 0.5702(17) 0.7547(8)
H13 H 0.2978 0.6179 0.7871
H14 H 0.2602 0.6129 0.7187
H15 H 0.3366 0.5165 0.7476
N1 N 0.1572(13) 0.5139(10) 0.7711(5)
O1 O 0.1570(11) 0.8703(9) 0.8974(4)
O2 O 0.3443(9) 0.7939(7) 0.8823(4)
O11 O 0.1050(10) 0.6495(9) 0.8433(4)
Pb9 Pb 0.33282(5) 0.63229(4) 0.94540(2)
Pb13 Pb 0.58432(5) 0.85449(4) 0.92939(2)
C9 C 0.8569(13) 0.0443(11) 0.9302(6)
C10 C 0.8979(14) 0.1620(12) 0.9353(7)
C11 C 0.8239(17) 0.2404(13) 0.9033(6)
H5 H 0.7574 0.2166 0.8800
C12 C 0.8524(15) 0.3574(13) 0.9072(7)
H6 H 0.8063 0.4103 0.8867
C13 C 0.9550(13) 0.3858(12) 0.9443(9)
C15 C 0.9947(16) 0.2020(13) 0.9702(7)
C16 C 0.9836(13) 0.5065(11) 0.9480(6)
O6 O 0.7696(10) 0.0167(9) 0.8984(5)
O7 O 0.8972(10) 0.5762(8) 0.9307(5)
Pb7 Pb 0.66818(5) 0.60000(4) 0.99250(2)
Pb8 Pb 0.92562(5) 0.76918(4) 0.91495(2)
O9 O 0.9994(10) 0.7832(8) 0.0120(4)
Pb3 Pb 0.83282(5) 0.86771(4) 0.05460(2)
O12 O 0.8443(9) 0.7061(7) 0.1177(4)
O5 O 0.9282(9) 0.9792(8) 0.9624(5)
O10 O 0.7495(10) 0.7695(8) 0.9780(5)
C1_2 C 0.2452(14) 0.1421(14) 0.3670(7)
C2_2 C 0.2206(16) 0.0793(14) 0.3099(7)
C3_2 C 0.1239(14) 0.1065(12) 0.2711(6)
H1_2 H 0.0756 0.1684 0.2787
C4_2 C 0.0996(14) 0.0411(12) 0.2209(6)
H2_2 H 0.0349 0.0592 0.1950
C17_2 C 0.4151(17) 0.4391(13) 0.3170(7)
H9_2 H 0.4851 0.4782 0.3289
C18_2 C 0.3712(14) 0.5950(13) 0.2427(7)
H10_2 H 0.2965 0.6262 0.2265
H11_2 H 0.4303 0.5849 0.2108
H12_2 H 0.4050 0.6438 0.2726
C19_2 C 0.2270(15) 0.4298(17) 0.2547(8)
H13_2 H 0.2022 0.3821 0.2871
H14_2 H 0.2398 0.3871 0.2187
H15_2 H 0.1634 0.4835 0.2476
N1_2 N 0.3428(13) 0.4861(10) 0.2711(5)
O1_2 O 0.3430(11) 0.1297(9) 0.3974(4)
O2_2 O 0.1557(9) 0.2061(7) 0.3823(4)
O5_2 O 0.5718(9) 0.0208(8) 0.4624(5)
O9_2 O 0.5006(10) 0.2168(8) 0.5120(4)
O10_2 O 0.7505(10) 0.2305(8) 0.4780(5)
O11_2 O 0.3950(10) 0.3505(9) 0.3433(4)
Pb2 Pb 0.57438(5) 0.23082(4) 0.41495(2)
Pb3_2 Pb 0.66718(5) 0.13229(4) 0.55460(2)
O12_2 O 0.6557(9) 0.2939(7) 0.6177(4)
O15_2 O 0.2304(10) 0.5167(9) 0.6016(5)
O16 O 0.6028(10) 0.4238(8) 0.4307(5)
O17_2 O 0.1028(10) 0.0762(8) 0.5693(5)
O18 O 0.4158(10) 0.4669(8) 0.4746(5)
O19_2 O 0.2505(10) 0.2695(8) 0.5220(5)
Pb6 Pb 0.83182(5) 0.40000(4) 0.49250(2)
Pb9_2 Pb 0.16718(5) 0.36771(4) 0.44540(2)
Pb12 Pb 0.91568(5) 0.14551(4) 0.42939(2)
C5_2 C 0.1719(15) 0.9487(14) 0.2094(7)
C6_2 C 0.2686(15) 0.9216(15) 0.2482(6)
H3_2 H 0.3170 0.8598 0.2405
C7_2 C 0.2929(14) 0.9869(13) 0.2984(7)
H4_2 H 0.3576 0.9688 0.3243
C8_2 C 0.1464(13) 0.8735(12) 0.1571(6)
C9_2 C 0.6431(13) 0.9557(11) 0.4302(6)
C10_2 C 0.6021(14) 0.8380(12) 0.4353(7)
C11_2 C 0.6761(17) 0.7596(13) 0.4033(6)
H5_2 H 0.7426 0.7834 0.3800
C12_2 C 0.6476(15) 0.6426(13) 0.4072(7)
H6_2 H 0.6937 0.5897 0.3867
C13_2 C 0.5450(13) 0.6142(12) 0.4443(9)
C14_2 C 0.4710(14) 0.6909(13) 0.4712(7)
H7_2 H 0.3977 0.6698 0.4900
C15_2 C 0.5053(16) 0.7980(13) 0.4702(7)
H8_2 H 0.4617 0.8475 0.4942
C16_2 C 0.5164(13) 0.4935(11) 0.4480(6)
O6_2 O 0.7304(10) 0.9833(9) 0.3984(5)
C1_3 C 0.7548(14) 0.6421(14) 0.1330(7)
C2_3 C 0.7794(16) 0.5793(14) 0.1901(7)
C3_3 C 0.8761(14) 0.6065(12) 0.2289(6)
H1_3 H 0.9244 0.6684 0.2213
C4_3 C 0.9004(14) 0.5411(12) 0.2791(6)
H2_3 H 0.9651 0.5592 0.3050
C5_3 C 0.8281(15) 0.4487(14) 0.2906(7)
C6_3 C 0.7314(15) 0.4216(15) 0.2518(6)
H3_3 H 0.6830 0.3598 0.2595
C7_3 C 0.7071(14) 0.4869(13) 0.2016(7)
H4_3 H 0.6424 0.4688 0.1757
C8_3 C 0.8536(13) 0.3735(12) 0.3429(6)
C9_3 C 0.3569(13) 0.4557(11) 0.0698(6)
C10_3 C 0.3979(14) 0.3380(12) 0.0647(7)
C11_3 C 0.3239(17) 0.2596(13) 0.0967(6)
H5_3 H 0.2574 0.2834 0.1200
C12_3 C 0.3524(15) 0.1426(13) 0.0928(7)
H6_3 H 0.3063 0.0897 0.1133
C13_3 C 0.4550(13) 0.1142(12) 0.0557(9)
C14_3 C 0.5290(14) 0.1909(13) 0.0288(7)
H7_3 H 0.6023 0.1698 0.0100
C15_3 C 0.4947(16) 0.2980(13) 0.0298(7)
H8_3 H 0.5383 0.3475 0.0058
C17_3 C 0.5849(17) 0.9391(13) 0.1830(7)
H9_3 H 0.5149 0.9782 0.1711
C19_3 C 0.7730(15) 0.9298(17) 0.2453(8)
H13_3 H 0.7978 0.8821 0.2129
H14_3 H 0.7602 0.8871 0.2813
H15_3 H 0.8366 0.9835 0.2524
N1_3 N 0.6572(13) 0.9861(10) 0.2289(5)
O1_3 O 0.6570(11) 0.6297(9) 0.1026(4)
O3_2 O 0.9252(11) 0.4234(9) 0.3837(4)
O4_2 O 0.8082(10) 0.2785(9) 0.3479(5)
O5_3 O 0.4282(9) 0.5208(8) 0.0376(5)
O11_3 O 0.6050(10) 0.8505(9) 0.1567(4)
Pb2_2 Pb 0.42562(5) 0.73082(4) 0.08505(2)
O18_2 O 0.5842(10) 0.9669(8) 0.0254(5)
O9_3 O 0.4994(10) 0.7168(8) 0.9880(4)
O13_2 O 0.5748(11) 0.5766(9) 0.8837(4)
O14_2 O 0.6918(10) 0.7215(9) 0.8479(5)
C16_3 C 0.4836(13) 0.9935(11) 0.0520(6)
C16_4 C 0.0164(13) 0.0065(11) 0.5520(6)
Pb8_2 Pb 0.07438(5) 0.26918(4) 0.58505(2)
C9_4 C 0.1431(13) 0.5443(11) 0.5698(6)
C10_4 C 0.1021(14) 0.6620(12) 0.5647(7)
C11_4 C 0.1761(17) 0.7404(13) 0.5967(6)
H5_4 H 0.2426 0.7166 0.6200
C12_4 C 0.1476(15) 0.8574(13) 0.5928(7)
H6_4 H 0.1937 0.9103 0.6133
C13_4 C 0.0450(13) 0.8858(12) 0.5557(9)
C15_4 C 0.0053(16) 0.7020(13) 0.5298(7)
O5_4 O 0.0718(9) 0.4792(8) 0.5376(5)
O9_4 O 0.0006(10) 0.2832(8) 0.4880(4)
O8_2 O 0.9158(10) 0.0331(8) 0.5254(5)
C1_4 C 0.7452(14) 0.3579(14) 0.6330(7)
C2_4 C 0.7206(16) 0.4207(14) 0.6901(7)
C3_4 C 0.6239(14) 0.3935(12) 0.7289(6)
H1_4 H 0.5756 0.3316 0.7213
C4_4 C 0.5996(14) 0.4589(12) 0.7791(6)
H2_4 H 0.5349 0.4408 0.8050
C5_4 C 0.6719(15) 0.5513(14) 0.7906(7)
C6_4 C 0.7686(15) 0.5784(15) 0.7518(6)
H3_4 H 0.8170 0.6402 0.7595
C7_4 C 0.7929(14) 0.5131(13) 0.7016(7)
H4_4 H 0.8576 0.5312 0.6757
C8_4 C 0.6464(13) 0.6265(12) 0.8429(6)
C14_4 C 0.9710(14) 0.8091(13) 0.5288(7)
H7_4 H 0.8977 0.8302 0.5100
H8_4 H 0.9617 0.6525 0.5058
C17_4 C 0.9151(17) 0.0609(13) 0.6830(7)
H9_4 H 0.9851 0.0218 0.6711
C19_4 C 0.7270(15) 0.0702(17) 0.7453(8)
H13_4 H 0.7022 0.1179 0.7129
H14_4 H 0.7398 0.1129 0.7813
H15_4 H 0.6634 0.0165 0.7524
N1_4 N 0.8428(13) 0.0139(10) 0.7289(5)
O1_4 O 0.8430(11) 0.3703(9) 0.6026(4)
O11_4 O 0.8950(10) 0.1495(9) 0.6567(4)
C18_3 C 0.8712(14) 0.9050(13) 0.7573(7)
H10_3 H 0.7965 0.8738 0.7735
H11_3 H 0.9303 0.9151 0.7892
H12_3 H 0.9050 0.8562 0.7274
C18_4 C 0.6288(14) 0.0950(13) 0.2573(7)
H10_4 H 0.7035 0.1262 0.2735
H11_4 H 0.5697 0.0849 0.2892
H12_4 H 0.5950 0.1438 0.2274
loop_
_geom_bond_atom_site_label_1
_geom_bond_atom_site_label_2
_geom_bond_site_symmetry_1
_geom_bond_site_symmetry_2
C6 C5 1_555 1_555
H3 C6 1_555 1_555
H4 C7 1_555 1_555
C8 C5 1_555 1_555
H7 C14 1_555 1_555
O3 C8 1_555 1_555
O4 C8 1_555 1_555
Pb5 O3 1_555 1_555
Pb11 O4 1_555 1_555
C6 C7 1_555 1_555
O13 Pb1 1_555 1_555
O14 Pb10 1_555 1_555
O15 Pb10 1_555 1_555
O17 Pb1 1_555 1_555
O19 Pb1 1_555 1_555
Pb10 O19 1_555 1_555
C1 C2 1_555 1_555
C2 C3 1_555 1_555
C3 H1 1_555 1_555
C4 C3 1_555 1_555
H2 C4 1_555 1_555
C17 H9 1_555 1_555
C18 H10 1_555 1_555
H11 C18 1_555 1_555
H12 C18 1_555 1_555
C19 H13 1_555 1_555
H14 C19 1_555 1_555
H15 C19 1_555 1_555
N1 C17 1_555 1_555
O1 C1 1_555 1_555
O2 C1 1_555 1_555
O11 C17 1_555 1_555
Pb9 O2 1_555 1_555
Pb13 O2 1_555 1_555
C18 N1 1_555 1_555
C19 N1 1_555 1_555
C9 C10 1_555 1_555
C10 C11 1_555 1_555
C11 H5 1_555 1_555
C12 C11 1_555 1_555
H6 C12 1_555 1_555
C13 C12 1_555 1_555
C15 C10 1_555 1_555
C16 C13 1_555 1_555
O6 C9 1_555 1_555
O7 C16 1_555 1_555
Pb7 O7 1_555 1_555
Pb8 O7 1_555 1_555
O12 Pb3 1_555 1_555
O9 Pb3 1_555 1_555
O10 Pb8 1_555 1_555
Pb7 O10 1_555 1_555
O5 Pb8 1_555 1_555
O10 Pb13 1_555 1_555
C1_2 C2_2 1_555 1_555
C2_2 C3_2 1_555 1_555
C3_2 H1_2 1_555 1_555
C4_2 C3_2 1_555 1_555
H2_2 C4_2 1_555 1_555
C17_2 H9_2 1_555 1_555
C18_2 H10_2 1_555 1_555
H11_2 C18_2 1_555 1_555
H12_2 C18_2 1_555 1_555
C19_2 H13_2 1_555 1_555
H14_2 C19_2 1_555 1_555
H15_2 C19_2 1_555 1_555
N1_2 C17_2 1_555 1_555
O1_2 C1_2 1_555 1_555
O2_2 C1_2 1_555 1_555
O9_2 Pb5 1_555 1_555
O10_2 Pb2 1_555 1_555
O11_2 C17_2 1_555 1_555
Pb5 O1_2 1_555 1_555
Pb2 O1_2 1_555 1_555
Pb3_2 O5_2 1_555 1_555
Pb11 O9_2 1_555 1_555
O12_2 Pb3_2 1_555 1_555
O15_2 Pb11 1_555 1_555
O16 Pb2 1_555 1_555
O17_2 Pb5 1_555 1_555
O18 Pb11 1_555 1_555
O19_2 Pb5 1_555 1_555
Pb6 O10_2 1_555 1_555
Pb9_2 O2_2 1_555 1_555
C18_2 N1_2 1_555 1_555
C19_2 N1_2 1_555 1_555
O5_2 Pb2 1_555 1_555
O9_2 Pb2 1_555 1_555
O9_2 Pb3_2 1_555 1_555
O10_2 Pb3_2 1_555 1_555
O10_2 Pb12 1_555 1_555
O11_2 Pb2 1_555 1_555
Pb11 O12_2 1_555 1_555
Pb11 O19_2 1_555 1_555
O16 Pb6 1_555 1_555
O19_2 Pb9_2 1_555 1_555
C6_2 C5_2 1_555 1_555
H3_2 C6_2 1_555 1_555
H4_2 C7_2 1_555 1_555
C8_2 C5_2 1_555 1_555
C9_2 C10_2 1_555 1_555
C10_2 C11_2 1_555 1_555
C11_2 H5_2 1_555 1_555
C12_2 C11_2 1_555 1_555
H6_2 C12_2 1_555 1_555
C13_2 C12_2 1_555 1_555
C14_2 C13_2 1_555 1_555
H7_2 C14_2 1_555 1_555
C15_2 C10_2 1_555 1_555
H8_2 C15_2 1_555 1_555
C16_2 C13_2 1_555 1_555
O13 C8_2 1_555 1_555
O14 C8_2 1_555 1_555
O6_2 C9_2 1_555 1_555
O16 C16_2 1_555 1_555
O18 C16_2 1_555 1_555
C6_2 C7_2 1_555 1_555
C14_2 C15_2 1_555 1_555
C1_3 C2_3 1_555 1_555
C2_3 C3_3 1_555 1_555
C3_3 H1_3 1_555 1_555
C4_3 C3_3 1_555 1_555
H2_3 C4_3 1_555 1_555
C5_3 C4_3 1_555 1_555
C6_3 C5_3 1_555 1_555
H3_3 C6_3 1_555 1_555
C7_3 C2_3 1_555 1_555
H4_3 C7_3 1_555 1_555
C8_3 C5_3 1_555 1_555
C9_3 C10_3 1_555 1_555
C10_3 C11_3 1_555 1_555
C11_3 H5_3 1_555 1_555
C12_3 C11_3 1_555 1_555
H6_3 C12_3 1_555 1_555
C13_3 C12_3 1_555 1_555
C14_3 C13_3 1_555 1_555
H7_3 C14_3 1_555 1_555
C15_3 C10_3 1_555 1_555
H8_3 C15_3 1_555 1_555
C17_3 H9_3 1_555 1_555
C19_3 H13_3 1_555 1_555
H14_3 C19_3 1_555 1_555
H15_3 C19_3 1_555 1_555
N1_3 C17_3 1_555 1_555
O1_3 C1_3 1_555 1_555
O12 C1_3 1_555 1_555
O3_2 C8_3 1_555 1_555
O4_2 C8_3 1_555 1_555
O5_3 C9_3 1_555 1_555
O15 C9_3 1_555 1_555
O19 Pb2_2 1_555 1_555
O11_3 C17_3 1_555 1_555
Pb2_2 O1_3 1_555 1_555
O17 Pb2_2 1_555 1_555
Pb6 O3_2 1_555 1_555
Pb12 O4_2 1_555 1_555
C6_3 C7_3 1_555 1_555
C14_3 C15_3 1_555 1_555
C19_3 N1_3 1_555 1_555
O5_3 Pb2_2 1_555 1_555
O11_3 Pb2_2 1_555 1_555
O9_3 Pb7 1_555 1_555
Pb13 O9_3 1_555 1_555
O13_2 Pb7 1_555 1_555
O14_2 Pb13 1_555 1_555
O9_3 Pb9 1_555 1_555
O17 C16_3 1_555 1_555
O18_2 C16_3 1_555 1_555
O17_2 C16_4 1_555 1_555
Pb8_2 O17_2 1_555 1_555
C9_4 C10_4 1_555 1_555
C10_4 C11_4 1_555 1_555
C11_4 H5_4 1_555 1_555
C12_4 C11_4 1_555 1_555
H6_4 C12_4 1_555 1_555
C13_4 C12_4 1_555 1_555
C15_4 C10_4 1_555 1_555
O5_4 C9_4 1_555 1_555
O15_2 C9_4 1_555 1_555
O19_2 Pb8_2 1_555 1_555
Pb9_2 O5_4 1_555 1_555
O5_4 Pb8_2 1_555 1_555
O9_4 Pb8_2 1_555 1_555
O9_4 Pb9_2 1_555 1_555
Pb12 O8_2 1_555 1_555
C1_4 C2_4 1_555 1_555
C2_4 C3_4 1_555 1_555
C3_4 H1_4 1_555 1_555
C4_4 C3_4 1_555 1_555
H2_4 C4_4 1_555 1_555
C5_4 C4_4 1_555 1_555
C6_4 C5_4 1_555 1_555
H3_4 C6_4 1_555 1_555
C7_4 C2_4 1_555 1_555
H4_4 C7_4 1_555 1_555
C8_4 C5_4 1_555 1_555
H7_4 C14_4 1_555 1_555
C17_4 H9_4 1_555 1_555
C19_4 H13_4 1_555 1_555
H14_4 C19_4 1_555 1_555
H15_4 C19_4 1_555 1_555
N1_4 C17_4 1_555 1_555
O1_4 C1_4 1_555 1_555
O12_2 C1_4 1_555 1_555
O13_2 C8_4 1_555 1_555
O14_2 C8_4 1_555 1_555
O11_4 C17_4 1_555 1_555
Pb6 O1_4 1_555 1_555
C6_4 C7_4 1_555 1_555
C19_4 N1_4 1_555 1_555
C18_3 H10_3 1_555 1_555
H11_3 C18_3 1_555 1_555
H12_3 C18_3 1_555 1_555
C18_4 H10_4 1_555 1_555
H11_4 C18_4 1_555 1_555
H12_4 C18_4 1_555 1_555

#END
