
###############################################################################
#
# This file contains modified crystal structure data generated from the
# MOF subset of the Cambridge Structural Database (CSD) v543 
# hosted by the Cambridge Crystallographic Data Centre (CCDC).
#
# This work is licensed under the Creative Commons
# Attribution-NonCommercial-ShareAlike 4.0 International License.
# To view a copy of this license, visit
# http://creativecommons.org/licenses/by-nc-sa/4.0/
# or send a letter to
# Creative Commons, PO Box 1866, Mountain View, CA 94042, USA.
#
# CIF created using the CSD Python API on 29 September 2022
# The structure has been converted into the P1 space group
# The structure has a 3D framework
# The original CSD entry LONJOP is in the hexagonal crystal system
# The original CSD entry LONJOP is in a Sohncke space group
# The framework has been calculated to contain at least 10.0% void space
# The void calculation uses a probe of radius 1.32A, grid spacing 0.4
# The framework is charged, counterions have been retained in the structure
#
###############################################################################

data_LONJOP
_chemical_formula_moiety         '(C120 H216 Ag20 N36 4+)n'
_symmetry_cell_setting           triclinic
_symmetry_space_group_name_H-M   'P 1'
_symmetry_Int_Tables_number      1
_space_group_name_Hall           'P 1'
loop_
_symmetry_equiv_pos_site_id
_symmetry_equiv_pos_as_xyz
1 x,y,z
_cell_length_a                   21.420(3)
_cell_length_b                   21.420(3)
_cell_length_c                   14.320(3)
_cell_angle_alpha                90
_cell_angle_beta                 90
_cell_angle_gamma                120
_cell_volume                     5690
loop_
_atom_site_label
_atom_site_type_symbol
_atom_site_fract_x
_atom_site_fract_y
_atom_site_fract_z
Ag11 Ag 0.53073(7) -0.0000 -0.0000
Ag7 Ag 0.46927(7) -0.0000 0.5000
H50 H 0.3935 0.0031 0.7730
H51 H 0.4036 0.0246 0.6671
H68 H 0.6096 0.0031 0.7270
H69 H 0.6210 0.0246 0.8329
Ag11_2 Ag 0.53073(7) -0.0000 1.0000
N19 N 0.5190(3) 0.0986(2) 0.4340(3)
C33 C 0.3684(4) 0.8374(3) 0.0318(6)
C34 C 0.2900(4) 0.7758(6) 0.0200(10)
H55 H 0.2577 0.7942 0.0293
H56 H 0.2799 0.7388 0.0651
C35 C 0.3640(6) 0.9069(4) 0.0430(11)
H59 H 0.3850 0.9293 0.1017
H60 H 0.3144 0.8950 0.0414
C36 C 0.4025(6) 0.8314(6) 0.1233(7)
H61 H 0.3726 0.7846 0.1502
H62 H 0.4068 0.8678 0.1661
H63 H 0.4494 0.8380 0.1106
C43 C 0.4690(5) 0.6316(4) 0.0318(6)
C44 C 0.4858(7) 0.7100(4) 0.0200(10)
H73 H 0.5365 0.7423 0.0293
H74 H 0.4589 0.7201 0.0651
C45 C 0.5429(7) 0.6360(6) 0.0430(11)
H77 H 0.5443 0.6150 0.1017
H78 H 0.5806 0.6856 0.0414
C46 C 0.4289(8) 0.5975(6) 0.1233(7)
H79 H 0.4120 0.6274 0.1502
H80 H 0.4610 0.5932 0.1661
H81 H 0.3886 0.5506 0.1106
C53 C 0.1626(3) 0.5310(5) 0.0318(6)
C54 C 0.2242(6) 0.5142(7) 0.0200(10)
H91 H 0.2058 0.4635 0.0293
H92 H 0.2612 0.5411 0.0651
C55 C 0.0931(4) 0.4571(7) 0.0430(11)
H95 H 0.0707 0.4557 0.1017
H96 H 0.1050 0.4194 0.0414
C56 C 0.1686(6) 0.5711(8) 0.1233(7)
H97 H 0.2154 0.5880 0.1502
H98 H 0.1322 0.5390 0.1661
H99 H 0.1620 0.6114 0.1106
Ag9 Ag -0.0000 0.53073(7) -0.0000
Ag10 Ag 0.46927(7) 0.46927(7) -0.0000
Ag11_3 Ag 0.53073(7) 1.0000 -0.0000
Ag1 Ag 0.3333 0.6667 0.60124(8)
Ag2 Ag 0.27111(2) 0.72889(2) 0.7500
Ag3 Ag -0.0000 0.46927(7) 0.5000
C1 C 0.1597(2) 0.5861(2) 0.5421(3)
N1 N 0.0986(2) 0.5190(3) 0.5660(3)
C2 C 0.1178(3) 0.4899(3) 0.6426(4)
N2 N 0.1907(3) 0.5390(3) 0.6660(3)
N3 N 0.2166(2) 0.5985(3) 0.6039(3)
C3 C 0.1626(3) 0.6316(4) 0.4682(6)
C4 C 0.2242(6) 0.7100(4) 0.4800(10)
H1 H 0.2058 0.7423 0.4707
H2 H 0.2612 0.7201 0.4349
H3 H 0.2439 0.7164 0.5418
C5 C 0.0931(4) 0.6360(6) 0.4570(11)
H4 H 0.0604 0.6102 0.5070
H5 H 0.0707 0.6150 0.3983
H6 H 0.1050 0.6856 0.4586
C6 C 0.1686(6) 0.5975(6) 0.3767(7)
H7 H 0.2154 0.6274 0.3498
H8 H 0.1322 0.5932 0.3339
H9 H 0.1620 0.5506 0.3894
C7 C 0.0846(3) 0.4231(4) 0.6866(5)
C8 C 0.0757(6) 0.3632(5) 0.6183(7)
H10 H 0.0963 0.3842 0.5589
H11 H 0.0254 0.3289 0.6105
H12 H 0.0998 0.3392 0.6430
C9 C 0.0101(4) 0.4111(6) 0.7117(9)
H13 H 0.0111 0.4564 0.7108
C10 C 0.1206(5) 0.4116(7) 0.7737(7)
H16 H 0.1293 0.3724 0.7624
H17 H 0.0892 0.4005 0.8266
H18 H 0.1655 0.4547 0.7860
Ag4 Ag 0.27111(2) 0.54222(3) 0.7500
Ag5 Ag 0.53073(7) 0.53073(7) 0.5000
C11 C 0.4139(2) 0.5736(3) 0.5421(3)
N4 N 0.4810(3) 0.5796(4) 0.5660(3)
C12 C 0.5101(3) 0.6279(4) 0.6426(4)
N5 N 0.4610(3) 0.6517(4) 0.6660(3)
N6 N 0.4015(3) 0.6181(4) 0.6039(3)
C13 C 0.3684(4) 0.5310(5) 0.4682(6)
C14 C 0.2900(4) 0.5142(7) 0.4800(10)
H19 H 0.2577 0.4635 0.4707
H20 H 0.2799 0.5411 0.4349
H21 H 0.2836 0.5275 0.5418
C15 C 0.3640(6) 0.4571(7) 0.4570(11)
H22 H 0.3898 0.4502 0.5070
H23 H 0.3850 0.4557 0.3983
H24 H 0.3144 0.4194 0.4586
C16 C 0.4025(6) 0.5711(8) 0.3767(7)
H25 H 0.3726 0.5880 0.3498
H26 H 0.4068 0.5390 0.3339
H27 H 0.4494 0.6114 0.3894
C17 C 0.5769(4) 0.6615(5) 0.6866(5)
C18 C 0.6368(5) 0.7125(8) 0.6183(7)
H28 H 0.6158 0.7121 0.5589
H29 H 0.6711 0.6965 0.6105
H30 H 0.6608 0.7606 0.6430
C19 C 0.5889(6) 0.5990(7) 0.7117(9)
H31 H 0.5436 0.5547 0.7108
H32 H 0.6096 0.6065 0.7730
H33 H 0.6210 0.5964 0.6671
C20 C 0.5884(7) 0.7090(9) 0.7737(7)
H34 H 0.6276 0.7569 0.7624
H35 H 0.5995 0.6887 0.8266
H36 H 0.5453 0.7108 0.7860
Ag6 Ag 0.45778(3) 0.72889(2) 0.7500
Ag7_2 Ag 0.46927(7) 1.0000 0.5000
C21 C 0.4264(3) 0.8403(2) 0.5421(3)
N7 N 0.4204(4) 0.9014(2) 0.5660(3)
C22 C 0.3721(4) 0.8822(3) 0.6426(4)
N8 N 0.3483(4) 0.8093(3) 0.6660(3)
N9 N 0.3819(4) 0.7834(2) 0.6039(3)
C23 C 0.4690(5) 0.8374(3) 0.4682(6)
C24 C 0.4858(7) 0.7758(6) 0.4800(10)
H37 H 0.5365 0.7942 0.4707
H38 H 0.4589 0.7388 0.4349
H39 H 0.4725 0.7561 0.5418
C25 C 0.5429(7) 0.9069(4) 0.4570(11)
H40 H 0.5498 0.9396 0.5070
H41 H 0.5443 0.9293 0.3983
H42 H 0.5806 0.8950 0.4586
C26 C 0.4289(8) 0.8314(6) 0.3767(7)
H43 H 0.4120 0.7846 0.3498
H44 H 0.4610 0.8678 0.3339
H45 H 0.3886 0.8380 0.3894
C27 C 0.3385(5) 0.9154(3) 0.6866(5)
C28 C 0.2875(8) 0.9243(6) 0.6183(7)
H46 H 0.2879 0.9037 0.5589
H47 H 0.3035 0.9746 0.6105
H48 H 0.2394 0.9002 0.6430
C29 C 0.4010(7) 0.9899(4) 0.7117(9)
H49 H 0.4453 0.9889 0.7108
C30 C 0.2910(9) 0.8794(5) 0.7737(7)
H52 H 0.2431 0.8707 0.7624
H53 H 0.3113 0.9108 0.8266
H54 H 0.2892 0.8345 0.7860
Ag8 Ag 0.3333 0.6667 0.89876(8)
C31 C 0.4139(2) 0.8403(2) 0.9579(3)
N10 N 0.4810(3) 0.9014(2) 0.9340(3)
C32 C 0.5101(3) 0.8822(3) 0.8574(4)
N11 N 0.4610(3) 0.8093(3) 0.8340(3)
N12 N 0.4015(3) 0.7834(2) 0.8961(3)
H57 H 0.2836 0.7561 0.9582
H58 H 0.3898 0.9396 0.9930
C37 C 0.5769(4) 0.9154(3) 0.8134(5)
C38 C 0.6368(5) 0.9243(6) 0.8817(7)
H64 H 0.6158 0.9037 0.9411
H65 H 0.6711 0.9746 0.8895
H66 H 0.6608 0.9002 0.8570
C39 C 0.5889(6) 0.9899(4) 0.7883(9)
H67 H 0.5436 0.9889 0.7892
C40 C 0.5884(7) 0.8794(5) 0.7263(7)
H70 H 0.6276 0.8707 0.7376
H71 H 0.5995 0.9108 0.6734
H72 H 0.5453 0.8345 0.7140
C41 C 0.4264(3) 0.5861(2) 0.9579(3)
N13 N 0.4204(4) 0.5190(3) 0.9340(3)
C42 C 0.3721(4) 0.4899(3) 0.8574(4)
N14 N 0.3483(4) 0.5390(3) 0.8340(3)
N15 N 0.3819(4) 0.5985(3) 0.8961(3)
H75 H 0.4725 0.7164 0.9582
H76 H 0.5498 0.6102 0.9930
C47 C 0.3385(5) 0.4231(4) 0.8134(5)
C48 C 0.2875(8) 0.3632(5) 0.8817(7)
H82 H 0.2879 0.3842 0.9411
H83 H 0.3035 0.3289 0.8895
H84 H 0.2394 0.3392 0.8570
C49 C 0.4010(7) 0.4111(6) 0.7883(9)
H85 H 0.4453 0.4564 0.7892
H86 H 0.3935 0.3904 0.7270
H87 H 0.4036 0.3790 0.8329
C50 C 0.2910(9) 0.4116(7) 0.7263(7)
H88 H 0.2431 0.3724 0.7376
H89 H 0.3113 0.4005 0.6734
H90 H 0.2892 0.4547 0.7140
C51 C 0.1597(2) 0.5736(3) 0.9579(3)
N16 N 0.0986(2) 0.5796(4) 0.9340(3)
C52 C 0.1178(3) 0.6279(4) 0.8574(4)
N17 N 0.1907(3) 0.6517(4) 0.8340(3)
N18 N 0.2166(2) 0.6181(4) 0.8961(3)
H93 H 0.2439 0.5275 0.9582
H94 H 0.0604 0.4502 0.9930
C57 C 0.0846(3) 0.6615(5) 0.8134(5)
C58 C 0.0757(6) 0.7125(8) 0.8817(7)
H100 H 0.0963 0.7121 0.9411
H101 H 0.0254 0.6965 0.8895
H102 H 0.0998 0.7606 0.8570
C59 C 0.0101(4) 0.5990(7) 0.7883(9)
H103 H 0.0111 0.5547 0.7892
C60 C 0.1206(5) 0.7090(9) 0.7263(7)
H106 H 0.1293 0.7569 0.7376
H107 H 0.0892 0.6887 0.6734
H108 H 0.1655 0.7108 0.7140
Ag9_2 Ag -0.0000 0.53073(7) 1.0000
Ag10_2 Ag 0.46927(7) 0.46927(7) 1.0000
Ag11_4 Ag 0.53073(7) 1.0000 1.0000
N20 N 0.5796(4) 0.4810(3) 0.4340(3)
Ag9_3 Ag 1.0000 0.53073(7) -0.0000
Ag3_2 Ag 1.0000 0.46927(7) 0.5000
H14 H 0.9969 0.3904 0.7730
H15 H 0.9754 0.3790 0.6671
H104 H 0.9969 0.6065 0.7270
H105 H 0.9754 0.5964 0.8329
Ag9_4 Ag 1.0000 0.53073(7) 1.0000
N21 N 0.9014(2) 0.4204(4) 0.4340(3)
H14_2 H 0.0031 0.6096 0.2730
H15_2 H 0.0246 0.6210 0.1671
H104_2 H 0.0031 0.3935 0.2270
H105_2 H 0.0246 0.4036 0.3329
Ag1_2 Ag 0.6667 0.3333 0.10124(8)
Ag2_2 Ag 0.72889(2) 0.27111(2) 0.2500
C1_2 C 0.8403(2) 0.4139(2) 0.0421(3)
N1_2 N 0.9014(2) 0.4810(3) 0.0660(3)
C2_2 C 0.8822(3) 0.5101(3) 0.1426(4)
N2_2 N 0.8093(3) 0.4610(3) 0.1660(3)
N3_2 N 0.7834(2) 0.4015(3) 0.1039(3)
H3_2 H 0.7561 0.2836 0.0418
H4_2 H 0.9396 0.3898 0.0070
C7_2 C 0.9154(3) 0.5769(4) 0.1866(5)
C8_2 C 0.9243(6) 0.6368(5) 0.1183(7)
H10_2 H 0.9037 0.6158 0.0589
H11_2 H 0.9746 0.6711 0.1105
H12_2 H 0.9002 0.6608 0.1430
C9_2 C 0.9899(4) 0.5889(6) 0.2117(9)
H13_2 H 0.9889 0.5436 0.2108
C10_2 C 0.8794(5) 0.5884(7) 0.2737(7)
H16_2 H 0.8707 0.6276 0.2624
H17_2 H 0.9108 0.5995 0.3266
H18_2 H 0.8345 0.5453 0.2860
Ag4_2 Ag 0.72889(2) 0.45778(3) 0.2500
C11_2 C 0.5861(2) 0.4264(3) 0.0421(3)
N4_2 N 0.5190(3) 0.4204(4) 0.0660(3)
C12_2 C 0.4899(3) 0.3721(4) 0.1426(4)
N5_2 N 0.5390(3) 0.3483(4) 0.1660(3)
N6_2 N 0.5985(3) 0.3819(4) 0.1039(3)
H21_2 H 0.7164 0.4725 0.0418
H22_2 H 0.6102 0.5498 0.0070
C17_2 C 0.4231(4) 0.3385(5) 0.1866(5)
C18_2 C 0.3632(5) 0.2875(8) 0.1183(7)
H28_2 H 0.3842 0.2879 0.0589
H29_2 H 0.3289 0.3035 0.1105
H30_2 H 0.3392 0.2394 0.1430
C19_2 C 0.4111(6) 0.4010(7) 0.2117(9)
H31_2 H 0.4564 0.4453 0.2108
H32_2 H 0.3904 0.3935 0.2730
H33_2 H 0.3790 0.4036 0.1671
C20_2 C 0.4116(7) 0.2910(9) 0.2737(7)
H34_2 H 0.3724 0.2431 0.2624
H35_2 H 0.4005 0.3113 0.3266
H36_2 H 0.4547 0.2892 0.2860
Ag6_2 Ag 0.54222(3) 0.27111(2) 0.2500
C21_2 C 0.5736(3) 0.1597(2) 0.0421(3)
N7_2 N 0.5796(4) 0.0986(2) 0.0660(3)
C22_2 C 0.6279(4) 0.1178(3) 0.1426(4)
N8_2 N 0.6517(4) 0.1907(3) 0.1660(3)
N9_2 N 0.6181(4) 0.2166(2) 0.1039(3)
H39_2 H 0.5275 0.2439 0.0418
H40_2 H 0.4502 0.0604 0.0070
C27_2 C 0.6615(5) 0.0846(3) 0.1866(5)
C28_2 C 0.7125(8) 0.0757(6) 0.1183(7)
H46_2 H 0.7121 0.0963 0.0589
H47_2 H 0.6965 0.0254 0.1105
H48_2 H 0.7606 0.0998 0.1430
C29_2 C 0.5990(7) 0.0101(4) 0.2117(9)
H49_2 H 0.5547 0.0111 0.2108
C30_2 C 0.7090(9) 0.1206(5) 0.2737(7)
H52_2 H 0.7569 0.1293 0.2624
H53_2 H 0.6887 0.0892 0.3266
H54_2 H 0.7108 0.1655 0.2860
Ag8_2 Ag 0.6667 0.3333 0.39876(8)
C31_2 C 0.5861(2) 0.1597(2) 0.4579(3)
C32_2 C 0.4899(3) 0.1178(3) 0.3574(4)
N11_2 N 0.5390(3) 0.1907(3) 0.3340(3)
N12_2 N 0.5985(3) 0.2166(2) 0.3961(3)
C33_2 C 0.6316(4) 0.1626(3) 0.5318(6)
C34_2 C 0.7100(4) 0.2242(6) 0.5200(10)
H55_2 H 0.7423 0.2058 0.5293
H56_2 H 0.7201 0.2612 0.5651
H57_2 H 0.7164 0.2439 0.4582
C35_2 C 0.6360(6) 0.0931(4) 0.5430(11)
H58_2 H 0.6102 0.0604 0.4930
H59_2 H 0.6150 0.0707 0.6017
H60_2 H 0.6856 0.1050 0.5414
C36_2 C 0.5975(6) 0.1686(6) 0.6233(7)
H61_2 H 0.6274 0.2154 0.6502
H62_2 H 0.5932 0.1322 0.6661
H63_2 H 0.5506 0.1620 0.6106
C37_2 C 0.4231(4) 0.0846(3) 0.3134(5)
C38_2 C 0.3632(5) 0.0757(6) 0.3817(7)
H64_2 H 0.3842 0.0963 0.4411
H65_2 H 0.3289 0.0254 0.3895
H66_2 H 0.3392 0.0998 0.3570
C39_2 C 0.4111(6) 0.0101(4) 0.2883(9)
H67_2 H 0.4564 0.0111 0.2892
C40_2 C 0.4116(7) 0.1206(5) 0.2263(7)
H70_2 H 0.3724 0.1293 0.2376
H71_2 H 0.4005 0.0892 0.1734
H72_2 H 0.4547 0.1655 0.2140
C41_2 C 0.5736(3) 0.4139(2) 0.4579(3)
C42_2 C 0.6279(4) 0.5101(3) 0.3574(4)
N14_2 N 0.6517(4) 0.4610(3) 0.3340(3)
N15_2 N 0.6181(4) 0.4015(3) 0.3961(3)
C43_2 C 0.5310(5) 0.3684(4) 0.5318(6)
C44_2 C 0.5142(7) 0.2900(4) 0.5200(10)
H73_2 H 0.4635 0.2577 0.5293
H74_2 H 0.5411 0.2799 0.5651
H75_2 H 0.5275 0.2836 0.4582
C45_2 C 0.4571(7) 0.3640(6) 0.5430(11)
H76_2 H 0.4502 0.3898 0.4930
H77_2 H 0.4557 0.3850 0.6017
H78_2 H 0.4194 0.3144 0.5414
C46_2 C 0.5711(8) 0.4025(6) 0.6233(7)
H79_2 H 0.5880 0.3726 0.6502
H80_2 H 0.5390 0.4068 0.6661
H81_2 H 0.6114 0.4494 0.6106
C47_2 C 0.6615(5) 0.5769(4) 0.3134(5)
C48_2 C 0.7125(8) 0.6368(5) 0.3817(7)
H82_2 H 0.7121 0.6158 0.4411
H83_2 H 0.6965 0.6711 0.3895
H84_2 H 0.7606 0.6608 0.3570
C49_2 C 0.5990(7) 0.5889(6) 0.2883(9)
H85_2 H 0.5547 0.5436 0.2892
H86_2 H 0.6065 0.6096 0.2270
H87_2 H 0.5964 0.6210 0.3329
C50_2 C 0.7090(9) 0.5884(7) 0.2263(7)
H88_2 H 0.7569 0.6276 0.2376
H89_2 H 0.6887 0.5995 0.1734
H90_2 H 0.7108 0.5453 0.2140
C51_2 C 0.8403(2) 0.4264(3) 0.4579(3)
C52_2 C 0.8822(3) 0.3721(4) 0.3574(4)
N17_2 N 0.8093(3) 0.3483(4) 0.3340(3)
N18_2 N 0.7834(2) 0.3819(4) 0.3961(3)
C53_2 C 0.8374(3) 0.4690(5) 0.5318(6)
C54_2 C 0.7758(6) 0.4858(7) 0.5200(10)
H91_2 H 0.7942 0.5365 0.5293
H92_2 H 0.7388 0.4589 0.5651
H93_2 H 0.7561 0.4725 0.4582
C55_2 C 0.9069(4) 0.5429(7) 0.5430(11)
H94_2 H 0.9396 0.5498 0.4930
H95_2 H 0.9293 0.5443 0.6017
H96_2 H 0.8950 0.5806 0.5414
C56_2 C 0.8314(6) 0.4289(8) 0.6233(7)
H97_2 H 0.7846 0.4120 0.6502
H98_2 H 0.8678 0.4610 0.6661
H99_2 H 0.8380 0.3886 0.6106
C57_2 C 0.9154(3) 0.3385(5) 0.3134(5)
C58_2 C 0.9243(6) 0.2875(8) 0.3817(7)
H100_2 H 0.9037 0.2879 0.4411
H101_2 H 0.9746 0.3035 0.3895
H102_2 H 0.9002 0.2394 0.3570
C59_2 C 0.9899(4) 0.4010(7) 0.2883(9)
H103_2 H 0.9889 0.4453 0.2892
C60_2 C 0.8794(5) 0.2910(9) 0.2263(7)
H106_2 H 0.8707 0.2431 0.2376
H107_2 H 0.9108 0.3113 0.1734
H108_2 H 0.8345 0.2892 0.2140
C3_2 C 0.8374(3) 0.3684(4) 0.9682(6)
C4_2 C 0.7758(6) 0.2900(4) 0.9800(10)
H1_2 H 0.7942 0.2577 0.9707
H2_2 H 0.7388 0.2799 0.9349
C5_2 C 0.9069(4) 0.3640(6) 0.9570(11)
H5_2 H 0.9293 0.3850 0.8983
H6_2 H 0.8950 0.3144 0.9586
C6_2 C 0.8314(6) 0.4025(6) 0.8767(7)
H7_2 H 0.7846 0.3726 0.8498
H8_2 H 0.8678 0.4068 0.8339
H9_2 H 0.8380 0.4494 0.8894
C13_2 C 0.6316(4) 0.4690(5) 0.9682(6)
C14_2 C 0.7100(4) 0.4858(7) 0.9800(10)
H19_2 H 0.7423 0.5365 0.9707
H20_2 H 0.7201 0.4589 0.9349
C15_2 C 0.6360(6) 0.5429(7) 0.9570(11)
H23_2 H 0.6150 0.5443 0.8983
H24_2 H 0.6856 0.5806 0.9586
C16_2 C 0.5975(6) 0.4289(8) 0.8767(7)
H25_2 H 0.6274 0.4120 0.8498
H26_2 H 0.5932 0.4610 0.8339
H27_2 H 0.5506 0.3886 0.8894
C23_2 C 0.5310(5) 0.1626(3) 0.9682(6)
C24_2 C 0.5142(7) 0.2242(6) 0.9800(10)
H37_2 H 0.4635 0.2058 0.9707
H38_2 H 0.5411 0.2612 0.9349
C25_2 C 0.4571(7) 0.0931(4) 0.9570(11)
H41_2 H 0.4557 0.0707 0.8983
H42_2 H 0.4194 0.1050 0.9586
C26_2 C 0.5711(8) 0.1686(6) 0.8767(7)
H43_2 H 0.5880 0.2154 0.8498
H44_2 H 0.5390 0.1322 0.8339
H45_2 H 0.6114 0.1620 0.8894
H50_2 H 0.6065 0.9969 0.2730
H51_2 H 0.5964 0.9754 0.1671
H68_2 H 0.3904 0.9969 0.2270
H69_2 H 0.3790 0.9754 0.3329
loop_
_geom_bond_atom_site_label_1
_geom_bond_atom_site_label_2
_geom_bond_site_symmetry_1
_geom_bond_site_symmetry_2
N19 Ag7 1_555 1_555
C34 C33 1_555 1_555
H55 C34 1_555 1_555
H56 C34 1_555 1_555
C35 C33 1_555 1_555
H59 C35 1_555 1_555
H60 C35 1_555 1_555
C36 C33 1_555 1_555
H61 C36 1_555 1_555
H62 C36 1_555 1_555
H63 C36 1_555 1_555
C44 C43 1_555 1_555
H73 C44 1_555 1_555
H74 C44 1_555 1_555
C45 C43 1_555 1_555
H77 C45 1_555 1_555
H78 C45 1_555 1_555
C46 C43 1_555 1_555
H79 C46 1_555 1_555
H80 C46 1_555 1_555
H81 C46 1_555 1_555
C54 C53 1_555 1_555
H91 C54 1_555 1_555
H92 C54 1_555 1_555
C55 C53 1_555 1_555
H95 C55 1_555 1_555
H96 C55 1_555 1_555
C56 C53 1_555 1_555
H97 C56 1_555 1_555
H98 C56 1_555 1_555
H99 C56 1_555 1_555
Ag1 Ag2 1_555 1_555
Ag2 N8 1_555 1_555
Ag3 N1 1_555 1_555
C1 N1 1_555 1_555
N1 C2 1_555 1_555
C2 N2 1_555 1_555
N2 N3 1_555 1_555
N3 Ag1 1_555 1_555
C3 C1 1_555 1_555
C4 C3 1_555 1_555
H1 C4 1_555 1_555
H2 C4 1_555 1_555
H3 C4 1_555 1_555
C5 C3 1_555 1_555
H4 C5 1_555 1_555
H5 C5 1_555 1_555
H6 C5 1_555 1_555
C6 C3 1_555 1_555
H7 C6 1_555 1_555
H8 C6 1_555 1_555
H9 C6 1_555 1_555
C7 C2 1_555 1_555
C8 C7 1_555 1_555
H10 C8 1_555 1_555
H11 C8 1_555 1_555
H12 C8 1_555 1_555
C9 C7 1_555 1_555
H13 C9 1_555 1_555
C10 C7 1_555 1_555
H16 C10 1_555 1_555
H17 C10 1_555 1_555
H18 C10 1_555 1_555
Ag4 Ag1 1_555 1_555
Ag5 N4 1_555 1_555
C11 N4 1_555 1_555
N4 C12 1_555 1_555
C12 N5 1_555 1_555
N5 N6 1_555 1_555
N6 Ag1 1_555 1_555
C13 C11 1_555 1_555
C14 C13 1_555 1_555
H19 C14 1_555 1_555
H20 C14 1_555 1_555
H21 C14 1_555 1_555
C15 C13 1_555 1_555
H22 C15 1_555 1_555
H23 C15 1_555 1_555
H24 C15 1_555 1_555
C16 C13 1_555 1_555
H25 C16 1_555 1_555
H26 C16 1_555 1_555
H27 C16 1_555 1_555
C17 C12 1_555 1_555
C18 C17 1_555 1_555
H28 C18 1_555 1_555
H29 C18 1_555 1_555
H30 C18 1_555 1_555
C19 C17 1_555 1_555
H31 C19 1_555 1_555
H32 C19 1_555 1_555
H33 C19 1_555 1_555
C20 C17 1_555 1_555
H34 C20 1_555 1_555
H35 C20 1_555 1_555
H36 C20 1_555 1_555
Ag6 Ag1 1_555 1_555
Ag7_2 N7 1_555 1_555
C21 N7 1_555 1_555
N7 C22 1_555 1_555
C22 N8 1_555 1_555
N8 N9 1_555 1_555
N9 Ag1 1_555 1_555
C23 C21 1_555 1_555
C24 C23 1_555 1_555
H37 C24 1_555 1_555
H38 C24 1_555 1_555
H39 C24 1_555 1_555
C25 C23 1_555 1_555
H40 C25 1_555 1_555
H41 C25 1_555 1_555
H42 C25 1_555 1_555
C26 C23 1_555 1_555
H43 C26 1_555 1_555
H44 C26 1_555 1_555
H45 C26 1_555 1_555
C27 C22 1_555 1_555
C28 C27 1_555 1_555
H46 C28 1_555 1_555
H47 C28 1_555 1_555
H48 C28 1_555 1_555
C29 C27 1_555 1_555
H49 C29 1_555 1_555
C30 C27 1_555 1_555
H52 C30 1_555 1_555
H53 C30 1_555 1_555
H54 C30 1_555 1_555
Ag8 Ag2 1_555 1_555
C31 N10 1_555 1_555
N10 C32 1_555 1_555
C32 N11 1_555 1_555
N11 Ag6 1_555 1_555
N12 Ag8 1_555 1_555
C37 C32 1_555 1_555
C38 C37 1_555 1_555
H64 C38 1_555 1_555
H65 C38 1_555 1_555
H66 C38 1_555 1_555
C39 C37 1_555 1_555
H67 C39 1_555 1_555
C40 C37 1_555 1_555
H70 C40 1_555 1_555
H71 C40 1_555 1_555
H72 C40 1_555 1_555
C41 N13 1_555 1_555
N13 C42 1_555 1_555
C42 N14 1_555 1_555
N14 Ag4 1_555 1_555
N15 Ag8 1_555 1_555
C47 C42 1_555 1_555
C48 C47 1_555 1_555
H82 C48 1_555 1_555
H83 C48 1_555 1_555
H84 C48 1_555 1_555
C49 C47 1_555 1_555
H85 C49 1_555 1_555
H86 C49 1_555 1_555
H87 C49 1_555 1_555
C50 C47 1_555 1_555
H88 C50 1_555 1_555
H89 C50 1_555 1_555
H90 C50 1_555 1_555
C51 N16 1_555 1_555
N16 C52 1_555 1_555
C52 N17 1_555 1_555
N17 Ag2 1_555 1_555
N18 Ag8 1_555 1_555
C57 C52 1_555 1_555
C58 C57 1_555 1_555
H100 C58 1_555 1_555
H101 C58 1_555 1_555
H102 C58 1_555 1_555
C59 C57 1_555 1_555
H103 C59 1_555 1_555
C60 C57 1_555 1_555
H106 C60 1_555 1_555
H107 C60 1_555 1_555
H108 C60 1_555 1_555
Ag9_2 N16 1_555 1_555
Ag10_2 N13 1_555 1_555
Ag11_4 N10 1_555 1_555
N20 Ag5 1_555 1_555
C1 N3 1_555 1_555
N2 Ag4 1_555 1_555
Ag4 Ag8 1_555 1_555
C11 N6 1_555 1_555
N5 Ag6 1_555 1_555
Ag6 Ag8 1_555 1_555
C21 N9 1_555 1_555
C31 N12 1_555 1_555
N11 N12 1_555 1_555
C41 N15 1_555 1_555
N14 N15 1_555 1_555
C51 N18 1_555 1_555
N17 N18 1_555 1_555
N21 Ag3_2 1_555 1_555
Ag1_2 Ag2_2 1_555 1_555
Ag2_2 N8_2 1_555 1_555
Ag9_3 N1_2 1_555 1_555
C1_2 N1_2 1_555 1_555
N1_2 C2_2 1_555 1_555
C2_2 N2_2 1_555 1_555
N2_2 N3_2 1_555 1_555
N3_2 Ag1_2 1_555 1_555
C7_2 C2_2 1_555 1_555
C8_2 C7_2 1_555 1_555
H10_2 C8_2 1_555 1_555
H11_2 C8_2 1_555 1_555
H12_2 C8_2 1_555 1_555
C9_2 C7_2 1_555 1_555
H13_2 C9_2 1_555 1_555
C10_2 C7_2 1_555 1_555
H16_2 C10_2 1_555 1_555
H17_2 C10_2 1_555 1_555
H18_2 C10_2 1_555 1_555
Ag4_2 Ag1_2 1_555 1_555
Ag10 N4_2 1_555 1_555
C11_2 N4_2 1_555 1_555
N4_2 C12_2 1_555 1_555
C12_2 N5_2 1_555 1_555
N5_2 N6_2 1_555 1_555
N6_2 Ag1_2 1_555 1_555
C17_2 C12_2 1_555 1_555
C18_2 C17_2 1_555 1_555
H28_2 C18_2 1_555 1_555
H29_2 C18_2 1_555 1_555
H30_2 C18_2 1_555 1_555
C19_2 C17_2 1_555 1_555
H31_2 C19_2 1_555 1_555
H32_2 C19_2 1_555 1_555
H33_2 C19_2 1_555 1_555
C20_2 C17_2 1_555 1_555
H34_2 C20_2 1_555 1_555
H35_2 C20_2 1_555 1_555
H36_2 C20_2 1_555 1_555
Ag6_2 Ag1_2 1_555 1_555
Ag11 N7_2 1_555 1_555
C21_2 N7_2 1_555 1_555
N7_2 C22_2 1_555 1_555
C22_2 N8_2 1_555 1_555
N8_2 N9_2 1_555 1_555
N9_2 Ag1_2 1_555 1_555
C27_2 C22_2 1_555 1_555
C28_2 C27_2 1_555 1_555
H46_2 C28_2 1_555 1_555
H47_2 C28_2 1_555 1_555
H48_2 C28_2 1_555 1_555
C29_2 C27_2 1_555 1_555
H49_2 C29_2 1_555 1_555
C30_2 C27_2 1_555 1_555
H52_2 C30_2 1_555 1_555
H53_2 C30_2 1_555 1_555
H54_2 C30_2 1_555 1_555
Ag8_2 Ag2_2 1_555 1_555
C31_2 N19 1_555 1_555
N19 C32_2 1_555 1_555
C32_2 N11_2 1_555 1_555
N11_2 Ag6_2 1_555 1_555
N12_2 Ag8_2 1_555 1_555
C33_2 C31_2 1_555 1_555
C34_2 C33_2 1_555 1_555
H55_2 C34_2 1_555 1_555
H56_2 C34_2 1_555 1_555
H57_2 C34_2 1_555 1_555
C35_2 C33_2 1_555 1_555
H58_2 C35_2 1_555 1_555
H59_2 C35_2 1_555 1_555
H60_2 C35_2 1_555 1_555
C36_2 C33_2 1_555 1_555
H61_2 C36_2 1_555 1_555
H62_2 C36_2 1_555 1_555
H63_2 C36_2 1_555 1_555
C37_2 C32_2 1_555 1_555
C38_2 C37_2 1_555 1_555
H64_2 C38_2 1_555 1_555
H65_2 C38_2 1_555 1_555
H66_2 C38_2 1_555 1_555
C39_2 C37_2 1_555 1_555
H67_2 C39_2 1_555 1_555
C40_2 C37_2 1_555 1_555
H70_2 C40_2 1_555 1_555
H71_2 C40_2 1_555 1_555
H72_2 C40_2 1_555 1_555
C41_2 N20 1_555 1_555
N20 C42_2 1_555 1_555
C42_2 N14_2 1_555 1_555
N14_2 Ag4_2 1_555 1_555
N15_2 Ag8_2 1_555 1_555
C43_2 C41_2 1_555 1_555
C44_2 C43_2 1_555 1_555
H73_2 C44_2 1_555 1_555
H74_2 C44_2 1_555 1_555
H75_2 C44_2 1_555 1_555
C45_2 C43_2 1_555 1_555
H76_2 C45_2 1_555 1_555
H77_2 C45_2 1_555 1_555
H78_2 C45_2 1_555 1_555
C46_2 C43_2 1_555 1_555
H79_2 C46_2 1_555 1_555
H80_2 C46_2 1_555 1_555
H81_2 C46_2 1_555 1_555
C47_2 C42_2 1_555 1_555
C48_2 C47_2 1_555 1_555
H82_2 C48_2 1_555 1_555
H83_2 C48_2 1_555 1_555
H84_2 C48_2 1_555 1_555
C49_2 C47_2 1_555 1_555
H85_2 C49_2 1_555 1_555
H86_2 C49_2 1_555 1_555
H87_2 C49_2 1_555 1_555
C50_2 C47_2 1_555 1_555
H88_2 C50_2 1_555 1_555
H89_2 C50_2 1_555 1_555
H90_2 C50_2 1_555 1_555
C51_2 N21 1_555 1_555
N21 C52_2 1_555 1_555
C52_2 N17_2 1_555 1_555
N17_2 Ag2_2 1_555 1_555
N18_2 Ag8_2 1_555 1_555
C53_2 C51_2 1_555 1_555
C54_2 C53_2 1_555 1_555
H91_2 C54_2 1_555 1_555
H92_2 C54_2 1_555 1_555
H93_2 C54_2 1_555 1_555
C55_2 C53_2 1_555 1_555
H94_2 C55_2 1_555 1_555
H95_2 C55_2 1_555 1_555
H96_2 C55_2 1_555 1_555
C56_2 C53_2 1_555 1_555
H97_2 C56_2 1_555 1_555
H98_2 C56_2 1_555 1_555
H99_2 C56_2 1_555 1_555
C57_2 C52_2 1_555 1_555
C58_2 C57_2 1_555 1_555
H100_2 C58_2 1_555 1_555
H101_2 C58_2 1_555 1_555
H102_2 C58_2 1_555 1_555
C59_2 C57_2 1_555 1_555
H103_2 C59_2 1_555 1_555
C60_2 C57_2 1_555 1_555
H106_2 C60_2 1_555 1_555
H107_2 C60_2 1_555 1_555
H108_2 C60_2 1_555 1_555
C1_2 N3_2 1_555 1_555
N2_2 Ag4_2 1_555 1_555
Ag4_2 Ag8_2 1_555 1_555
C11_2 N6_2 1_555 1_555
N5_2 Ag6_2 1_555 1_555
Ag6_2 Ag8_2 1_555 1_555
C21_2 N9_2 1_555 1_555
C31_2 N12_2 1_555 1_555
N11_2 N12_2 1_555 1_555
C41_2 N15_2 1_555 1_555
N14_2 N15_2 1_555 1_555
C51_2 N18_2 1_555 1_555
N17_2 N18_2 1_555 1_555
C4_2 C3_2 1_555 1_555
H1_2 C4_2 1_555 1_555
H2_2 C4_2 1_555 1_555
C5_2 C3_2 1_555 1_555
H5_2 C5_2 1_555 1_555
H6_2 C5_2 1_555 1_555
C6_2 C3_2 1_555 1_555
H7_2 C6_2 1_555 1_555
H8_2 C6_2 1_555 1_555
H9_2 C6_2 1_555 1_555
C14_2 C13_2 1_555 1_555
H19_2 C14_2 1_555 1_555
H20_2 C14_2 1_555 1_555
C15_2 C13_2 1_555 1_555
H23_2 C15_2 1_555 1_555
H24_2 C15_2 1_555 1_555
C16_2 C13_2 1_555 1_555
H25_2 C16_2 1_555 1_555
H26_2 C16_2 1_555 1_555
H27_2 C16_2 1_555 1_555
C24_2 C23_2 1_555 1_555
H37_2 C24_2 1_555 1_555
H38_2 C24_2 1_555 1_555
C25_2 C23_2 1_555 1_555
H41_2 C25_2 1_555 1_555
H42_2 C25_2 1_555 1_555
C26_2 C23_2 1_555 1_555
H43_2 C26_2 1_555 1_555
H44_2 C26_2 1_555 1_555
H45_2 C26_2 1_555 1_555

#END
