
###############################################################################
#
# This file contains modified crystal structure data generated from the
# MOF subset of the Cambridge Structural Database (CSD) v543 
# hosted by the Cambridge Crystallographic Data Centre (CCDC).
#
# This work is licensed under the Creative Commons
# Attribution-NonCommercial-ShareAlike 4.0 International License.
# To view a copy of this license, visit
# http://creativecommons.org/licenses/by-nc-sa/4.0/
# or send a letter to
# Creative Commons, PO Box 1866, Mountain View, CA 94042, USA.
#
# CIF created using the CSD Python API on 29 September 2022
# The structure has been converted into the P1 space group
# The structure has a 3D framework
# The original CSD entry LONVIV is in the rhombohedral crystal system
# The framework has been calculated to contain at least 10.0% void space
# The void calculation uses a probe of radius 1.32A, grid spacing 0.4
#
###############################################################################

data_LONVIV
_chemical_formula_moiety         '(C54 H54 Cl9 Mn32 N60 O32)n'
_symmetry_cell_setting           triclinic
_symmetry_space_group_name_H-M   'P 1'
_symmetry_Int_Tables_number      1
_space_group_name_Hall           'P 1'
loop_
_symmetry_equiv_pos_site_id
_symmetry_equiv_pos_as_xyz
1 x,y,z
_cell_length_a                   24.4992
_cell_length_b                   24.4992
_cell_length_c                   8.3379
_cell_angle_alpha                90
_cell_angle_beta                 90
_cell_angle_gamma                120
_cell_volume                     4334.02
loop_
_atom_site_label
_atom_site_type_symbol
_atom_site_fract_x
_atom_site_fract_y
_atom_site_fract_z
_atom_site_U_iso_or_equiv
_atom_site_thermal_displace_type
Mn6 Mn -0.00000 0.28221 0.00000 0.0466 Uiso
Cl1 Cl -0.00000 0.42296 0.50000 0.0466 Uiso
Mn3 Mn 0.05112 0.38445 0.66667 0.0466 Uiso
Mn6_2 Mn -0.00000 0.28221 1.00000 0.0466 Uiso
N9 N 0.03529 0.33334 0.33333 0.0466 Uiso
Mn6_3 Mn 1.00000 0.28221 0.00000 0.0466 Uiso
Mn7 Mn 0.71779 0.00000 0.00000 0.0466 Uiso
N1 N 0.92629 0.27787 0.54022 0.0466 Uiso
C1 C 0.87607 0.22162 0.58427 0.0466 Uiso
H1 H 0.85480 0.33571 0.43456 0.0466 Uiso
Mn1 Mn 0.94888 0.33333 0.33333 0.0466 Uiso
O1 O 0.86776 0.33333 0.33333 0.0466 Uiso
Cl1_2 Cl 1.00000 0.42296 0.50000 0.0466 Uiso
N2 N 0.96471 0.29805 0.66667 0.0466 Uiso
C2 C 0.82062 0.17938 0.50045 0.0466 Uiso
H2 H 0.81086 0.18914 0.38127 0.0466 Uiso
N3 N 0.72213 0.07371 0.54022 0.0466 Uiso
C3 C 0.77838 0.12393 0.58427 0.0466 Uiso
N4 N 0.70195 0.03529 0.66667 0.0466 Uiso
N5 N 0.94454 0.25962 0.79311 0.0466 Uiso
C4 C 0.88829 0.20940 0.74906 0.0466 Uiso
C5 C 0.84605 0.15395 0.83288 0.0466 Uiso
H3 H 0.85581 0.14419 0.95206 0.0466 Uiso
N6 N 0.74038 0.05546 0.79311 0.0466 Uiso
C6 C 0.79060 0.11171 0.74906 0.0466 Uiso
H4 H 0.85242 0.33096 0.23211 0.0466 Uiso
H5 H 0.66429 0.14520 0.43456 0.0466 Uiso
Mn2 Mn 0.66667 0.05112 0.33333 0.0466 Uiso
O2 O 0.66667 0.13224 0.33333 0.0466 Uiso
H6 H 0.66904 0.14758 0.23211 0.0466 Uiso
Cl2 Cl 0.91037 0.24371 0.16667 0.0466 Uiso
N7 N 0.98175 0.38880 0.12645 0.0466 Uiso
N8 N 0.61120 0.01825 0.12645 0.0466 Uiso
Mn6_4 Mn 1.00000 0.28221 1.00000 0.0466 Uiso
Mn7_2 Mn 0.71779 0.00000 1.00000 0.0466 Uiso
Cl3 Cl 0.57704 0.00000 0.50000 0.0466 Uiso
Cl4 Cl 0.75629 0.08963 0.16667 0.0466 Uiso
Mn7_3 Mn 0.71779 1.00000 0.00000 0.0466 Uiso
Mn4 Mn 0.61555 0.94888 0.66667 0.0466 Uiso
Mn7_4 Mn 0.71779 1.00000 1.00000 0.0466 Uiso
Cl3_2 Cl 0.57704 1.00000 0.50000 0.0466 Uiso
N10 N 0.66666 0.96471 0.33333 0.0466 Uiso
Mn7_5 Mn -0.00000 0.71778 0.00000 0.0466 Uiso
Mn4_2 Mn 0.05112 0.66667 0.66667 0.0466 Uiso
Mn7_6 Mn -0.00000 0.71778 1.00000 0.0466 Uiso
Cl3_3 Cl 0.00000 0.57704 0.50000 0.0466 Uiso
N10_2 N 0.03529 0.70195 0.33333 0.0466 Uiso
Mn6_5 Mn 0.71779 0.71778 0.00000 0.0466 Uiso
Mn7_7 Mn 1.00000 0.71778 0.00000 0.0466 Uiso
N1_2 N 0.72213 0.64842 0.54022 0.0466 Uiso
C1_2 C 0.77838 0.65445 0.58427 0.0466 Uiso
H1_2 H 0.66429 0.51909 0.43456 0.0466 Uiso
Mn1_2 Mn 0.66667 0.61555 0.33333 0.0466 Uiso
O1_2 O 0.66667 0.53443 0.33333 0.0466 Uiso
Cl1_3 Cl 0.57704 0.57704 0.50000 0.0466 Uiso
N2_2 N 0.70195 0.66666 0.66667 0.0466 Uiso
C2_2 C 0.82062 0.64124 0.50045 0.0466 Uiso
H2_2 H 0.81086 0.62172 0.38127 0.0466 Uiso
N3_2 N 0.92629 0.64842 0.54022 0.0466 Uiso
C3_2 C 0.87607 0.65445 0.58427 0.0466 Uiso
N4_2 N 0.96471 0.66666 0.66667 0.0466 Uiso
N5_2 N 0.74038 0.68491 0.79311 0.0466 Uiso
C4_2 C 0.79060 0.67888 0.74906 0.0466 Uiso
C5_2 C 0.84605 0.69209 0.83288 0.0466 Uiso
H3_2 H 0.85581 0.71161 0.95206 0.0466 Uiso
N6_2 N 0.94454 0.68491 0.79311 0.0466 Uiso
C6_2 C 0.88829 0.67888 0.74906 0.0466 Uiso
H4_2 H 0.66904 0.52147 0.23211 0.0466 Uiso
H5_2 H 0.85480 0.51909 0.43456 0.0466 Uiso
Mn2_2 Mn 0.94888 0.61555 0.33333 0.0466 Uiso
O2_2 O 0.86776 0.53443 0.33333 0.0466 Uiso
H6_2 H 0.85242 0.52147 0.23211 0.0466 Uiso
Cl2_2 Cl 0.75629 0.66667 0.16667 0.0466 Uiso
N7_2 N 0.61120 0.59296 0.12645 0.0466 Uiso
N8_2 N 0.98175 0.59296 0.12645 0.0466 Uiso
Mn3_2 Mn 0.61555 0.66667 0.66667 0.0466 Uiso
Mn6_6 Mn 0.71779 0.71778 1.00000 0.0466 Uiso
Mn7_8 Mn 1.00000 0.71778 1.00000 0.0466 Uiso
Cl3_4 Cl 1.00000 0.57704 0.50000 0.0466 Uiso
Cl4_2 Cl 0.91037 0.66667 0.16667 0.0466 Uiso
N9_2 N 0.66666 0.70195 0.33333 0.0466 Uiso
Mn6_7 Mn 0.28222 0.00000 0.00000 0.0466 Uiso
Mn7_9 Mn 0.28222 0.28221 0.00000 0.0466 Uiso
N1_3 N 0.35158 0.07371 0.54022 0.0466 Uiso
C1_3 C 0.34555 0.12393 0.58427 0.0466 Uiso
H1_3 H 0.48091 0.14520 0.43456 0.0466 Uiso
Mn1_3 Mn 0.38445 0.05112 0.33333 0.0466 Uiso
O1_3 O 0.46557 0.13224 0.33333 0.0466 Uiso
Cl1_4 Cl 0.42296 0.00000 0.50000 0.0466 Uiso
N2_3 N 0.33334 0.03529 0.66667 0.0466 Uiso
C2_3 C 0.35876 0.17938 0.50045 0.0466 Uiso
H2_3 H 0.37828 0.18914 0.38127 0.0466 Uiso
N3_3 N 0.35158 0.27787 0.54022 0.0466 Uiso
C3_3 C 0.34555 0.22162 0.58427 0.0466 Uiso
N4_3 N 0.33334 0.29805 0.66667 0.0466 Uiso
N5_3 N 0.31509 0.05546 0.79311 0.0466 Uiso
C4_3 C 0.32112 0.11171 0.74906 0.0466 Uiso
C5_3 C 0.30791 0.15395 0.83288 0.0466 Uiso
H3_3 H 0.28839 0.14419 0.95206 0.0466 Uiso
N6_3 N 0.31509 0.25962 0.79311 0.0466 Uiso
C6_3 C 0.32112 0.20940 0.74906 0.0466 Uiso
H4_3 H 0.47853 0.14758 0.23211 0.0466 Uiso
H5_3 H 0.48091 0.33571 0.43456 0.0466 Uiso
Mn2_3 Mn 0.38445 0.33333 0.33333 0.0466 Uiso
O2_3 O 0.46557 0.33333 0.33333 0.0466 Uiso
H6_3 H 0.47853 0.33096 0.23211 0.0466 Uiso
Cl2_3 Cl 0.33333 0.08963 0.16667 0.0466 Uiso
N7_3 N 0.40704 0.01825 0.12645 0.0466 Uiso
N8_3 N 0.40704 0.38880 0.12645 0.0466 Uiso
Mn4_3 Mn 0.33333 0.38445 0.66667 0.0466 Uiso
Mn6_8 Mn 0.28222 0.00000 1.00000 0.0466 Uiso
Mn7_10 Mn 0.28222 0.28221 1.00000 0.0466 Uiso
Cl3_5 Cl 0.42296 0.42296 0.50000 0.0466 Uiso
Cl4_3 Cl 0.33333 0.24371 0.16667 0.0466 Uiso
N10_3 N 0.29805 0.33334 0.33333 0.0466 Uiso
Mn6_9 Mn 0.28222 1.00000 0.00000 0.0466 Uiso
Cl1_5 Cl 0.42296 1.00000 0.50000 0.0466 Uiso
Mn3_3 Mn 0.33333 0.94888 0.66667 0.0466 Uiso
Mn6_10 Mn 0.28222 1.00000 1.00000 0.0466 Uiso
N9_3 N 0.29805 0.96471 0.33333 0.0466 Uiso
N1_4 N 0.27787 0.92629 0.45978 0.0466 Uiso
C1_4 C 0.22162 0.87607 0.41573 0.0466 Uiso
H1_4 H 0.33571 0.85480 0.56544 0.0466 Uiso
O1_4 O 0.33333 0.86776 0.66667 0.0466 Uiso
C2_4 C 0.17938 0.82062 0.49955 0.0466 Uiso
H2_4 H 0.18914 0.81086 0.61873 0.0466 Uiso
N3_4 N 0.07371 0.72213 0.45978 0.0466 Uiso
C3_4 C 0.12393 0.77838 0.41573 0.0466 Uiso
N5_4 N 0.25962 0.94454 0.20689 0.0466 Uiso
C4_4 C 0.20940 0.88829 0.25094 0.0466 Uiso
C5_4 C 0.15395 0.84605 0.16712 0.0466 Uiso
H3_4 H 0.14419 0.85581 0.04794 0.0466 Uiso
N6_4 N 0.05546 0.74038 0.20689 0.0466 Uiso
C6_4 C 0.11171 0.79060 0.25094 0.0466 Uiso
H4_4 H 0.33096 0.85242 0.76789 0.0466 Uiso
H5_4 H 0.14520 0.66429 0.56544 0.0466 Uiso
O2_4 O 0.13224 0.66667 0.66667 0.0466 Uiso
H6_4 H 0.14758 0.66904 0.76789 0.0466 Uiso
Cl2_4 Cl 0.24371 0.91037 0.83333 0.0466 Uiso
N7_4 N 0.38880 0.98175 0.87355 0.0466 Uiso
N8_4 N 0.01825 0.61120 0.87355 0.0466 Uiso
Cl4_4 Cl 0.08963 0.75629 0.83333 0.0466 Uiso
N1_5 N 0.64842 0.72213 0.45978 0.0466 Uiso
C1_5 C 0.65445 0.77838 0.41573 0.0466 Uiso
H1_5 H 0.51909 0.66429 0.56544 0.0466 Uiso
O1_5 O 0.53443 0.66667 0.66667 0.0466 Uiso
C2_5 C 0.64124 0.82062 0.49955 0.0466 Uiso
H2_5 H 0.62172 0.81086 0.61873 0.0466 Uiso
N3_5 N 0.64842 0.92629 0.45978 0.0466 Uiso
C3_5 C 0.65445 0.87607 0.41573 0.0466 Uiso
N5_5 N 0.68491 0.74038 0.20689 0.0466 Uiso
C4_5 C 0.67888 0.79060 0.25094 0.0466 Uiso
C5_5 C 0.69209 0.84605 0.16712 0.0466 Uiso
H3_5 H 0.71161 0.85581 0.04794 0.0466 Uiso
N6_5 N 0.68491 0.94454 0.20689 0.0466 Uiso
C6_5 C 0.67888 0.88829 0.25094 0.0466 Uiso
H4_5 H 0.52147 0.66904 0.76789 0.0466 Uiso
H5_5 H 0.51909 0.85480 0.56544 0.0466 Uiso
O2_5 O 0.53443 0.86776 0.66667 0.0466 Uiso
H6_5 H 0.52147 0.85242 0.76789 0.0466 Uiso
Cl2_5 Cl 0.66667 0.75629 0.83333 0.0466 Uiso
N7_5 N 0.59296 0.61120 0.87355 0.0466 Uiso
N8_5 N 0.59296 0.98175 0.87355 0.0466 Uiso
Cl4_5 Cl 0.66667 0.91037 0.83333 0.0466 Uiso
N1_6 N 0.07371 0.35158 0.45978 0.0466 Uiso
C1_6 C 0.12393 0.34555 0.41573 0.0466 Uiso
H1_6 H 0.14520 0.48091 0.56544 0.0466 Uiso
O1_6 O 0.13224 0.46557 0.66667 0.0466 Uiso
C2_6 C 0.17938 0.35876 0.49955 0.0466 Uiso
H2_6 H 0.18914 0.37828 0.61873 0.0466 Uiso
N3_6 N 0.27787 0.35158 0.45978 0.0466 Uiso
C3_6 C 0.22162 0.34555 0.41573 0.0466 Uiso
N5_6 N 0.05546 0.31509 0.20689 0.0466 Uiso
C4_6 C 0.11171 0.32112 0.25094 0.0466 Uiso
C5_6 C 0.15395 0.30791 0.16712 0.0466 Uiso
H3_6 H 0.14419 0.28839 0.04794 0.0466 Uiso
N6_6 N 0.25962 0.31509 0.20689 0.0466 Uiso
C6_6 C 0.20940 0.32112 0.25094 0.0466 Uiso
H4_6 H 0.14758 0.47853 0.76789 0.0466 Uiso
H5_6 H 0.33571 0.48091 0.56544 0.0466 Uiso
O2_6 O 0.33333 0.46557 0.66667 0.0466 Uiso
H6_6 H 0.33096 0.47853 0.76789 0.0466 Uiso
Cl2_6 Cl 0.08963 0.33333 0.83333 0.0466 Uiso
N7_6 N 0.01825 0.40704 0.87355 0.0466 Uiso
N8_6 N 0.38880 0.40704 0.87355 0.0466 Uiso
Cl4_6 Cl 0.24371 0.33333 0.83333 0.0466 Uiso
N2_4 N 0.63138 0.63138 0.00000 0.0466 Uiso
N4_4 N 0.36862 0.36862 0.00000 0.0466 Uiso
C4_7 C 0.55495 0.54274 0.08240 0.0466 Uiso
C5_7 C 0.51271 0.48729 0.16622 0.0466 Uiso
H3_7 H 0.52247 0.47753 0.28540 0.0466 Uiso
C6_7 C 0.45726 0.44505 0.08240 0.0466 Uiso
C1_7 C 0.54274 0.55495 0.91760 0.0466 Uiso
N2_5 N 0.63138 0.63138 1.00000 0.0466 Uiso
C2_7 C 0.48729 0.51271 0.83378 0.0466 Uiso
H2_7 H 0.47753 0.52247 0.71460 0.0466 Uiso
C3_7 C 0.44505 0.45726 0.91760 0.0466 Uiso
N4_5 N 0.36862 0.36862 1.00000 0.0466 Uiso
N2_6 N 0.36862 -0.00001 0.00000 0.0466 Uiso
N4_6 N 0.63138 -0.00001 0.00000 0.0466 Uiso
C4_8 C 0.45726 0.01222 0.08240 0.0466 Uiso
C5_8 C 0.51271 0.02543 0.16622 0.0466 Uiso
H3_8 H 0.52247 0.04495 0.28540 0.0466 Uiso
C6_8 C 0.55495 0.01222 0.08240 0.0466 Uiso
N2_7 N 0.36862 -0.00001 1.00000 0.0466 Uiso
N4_7 N 0.63138 -0.00001 1.00000 0.0466 Uiso
N2_8 N 0.36862 0.99999 0.00000 0.0466 Uiso
N4_8 N 0.63138 0.99999 0.00000 0.0466 Uiso
C1_8 C 0.44505 0.98778 0.91760 0.0466 Uiso
N2_9 N 0.36862 0.99999 1.00000 0.0466 Uiso
C2_8 C 0.48729 0.97457 0.83378 0.0466 Uiso
H2_8 H 0.47753 0.95505 0.71460 0.0466 Uiso
C3_8 C 0.54274 0.98778 0.91760 0.0466 Uiso
N4_9 N 0.63138 0.99999 1.00000 0.0466 Uiso
N2_10 N 0.00001 0.36862 0.00000 0.0466 Uiso
N4_10 N 0.00001 0.63138 0.00000 0.0466 Uiso
C1_9 C 0.01222 0.45726 0.91760 0.0466 Uiso
N2_11 N 0.00001 0.36862 1.00000 0.0466 Uiso
C2_9 C 0.02543 0.51271 0.83378 0.0466 Uiso
H2_9 H 0.04495 0.52247 0.71460 0.0466 Uiso
C3_9 C 0.01222 0.55495 0.91760 0.0466 Uiso
N4_11 N 0.00001 0.63138 1.00000 0.0466 Uiso
N2_12 N 1.00001 0.36862 0.00000 0.0466 Uiso
N4_12 N 1.00001 0.63138 0.00000 0.0466 Uiso
C4_9 C 0.98778 0.44505 0.08240 0.0466 Uiso
C5_9 C 0.97457 0.48729 0.16622 0.0466 Uiso
H3_9 H 0.95505 0.47753 0.28540 0.0466 Uiso
C6_9 C 0.98778 0.54274 0.08240 0.0466 Uiso
N2_13 N 1.00001 0.36862 1.00000 0.0466 Uiso
N4_13 N 1.00001 0.63138 1.00000 0.0466 Uiso
O1_7 O -0.00000 0.20109 0.00000 0.0466 Uiso
H1_7 H 0.00238 0.18813 0.89877 0.0466 Uiso
O1_8 O -0.00000 0.20109 1.00000 0.0466 Uiso
O1_9 O 1.00000 0.20109 0.00000 0.0466 Uiso
H4_7 H 0.99762 0.18576 0.10123 0.0466 Uiso
O2_7 O 0.79891 0.00000 0.00000 0.0466 Uiso
H6_7 H 0.81424 0.00238 0.10123 0.0466 Uiso
O1_10 O 1.00000 0.20109 1.00000 0.0466 Uiso
O2_8 O 0.79891 0.00000 1.00000 0.0466 Uiso
O2_9 O 0.79891 1.00000 0.00000 0.0466 Uiso
H5_7 H 0.81187 0.99762 0.89877 0.0466 Uiso
O2_10 O 0.79891 1.00000 1.00000 0.0466 Uiso
O1_11 O 0.20110 0.00000 0.00000 0.0466 Uiso
H4_8 H 0.18813 0.00238 0.10123 0.0466 Uiso
O2_11 O 0.20110 0.20109 0.00000 0.0466 Uiso
H6_8 H 0.18813 0.18576 0.10123 0.0466 Uiso
O1_12 O 0.20110 0.00000 1.00000 0.0466 Uiso
H5_8 H 0.18576 0.18813 0.89877 0.0466 Uiso
O2_12 O 0.20110 0.20109 1.00000 0.0466 Uiso
O1_13 O 0.20110 1.00000 0.00000 0.0466 Uiso
H1_8 H 0.18576 0.99762 0.89877 0.0466 Uiso
O1_14 O 0.20110 1.00000 1.00000 0.0466 Uiso
O2_13 O -0.00000 0.79890 0.00000 0.0466 Uiso
H5_9 H 0.00238 0.81424 0.89877 0.0466 Uiso
O2_14 O -0.00000 0.79890 1.00000 0.0466 Uiso
O1_15 O 0.79891 0.79890 0.00000 0.0466 Uiso
H4_9 H 0.81424 0.81187 0.10123 0.0466 Uiso
O2_15 O 1.00000 0.79890 0.00000 0.0466 Uiso
H6_9 H 0.99762 0.81187 0.10123 0.0466 Uiso
H1_9 H 0.81187 0.81424 0.89877 0.0466 Uiso
O1_16 O 0.79891 0.79890 1.00000 0.0466 Uiso
O2_16 O 1.00000 0.79890 1.00000 0.0466 Uiso
loop_
_geom_bond_atom_site_label_1
_geom_bond_atom_site_label_2
_geom_bond_site_symmetry_1
_geom_bond_site_symmetry_2
Mn3 Cl1 1_555 1_555
N1 C1 1_555 1_555
C1 C2 1_555 1_555
H1 O1 1_555 1_555
Mn1 N1 1_555 1_555
O1 Mn1 1_555 1_555
Cl1_2 Mn1 1_555 1_555
N2 N1 1_555 1_555
C2 H2 1_555 1_555
N3 C3 1_555 1_555
C3 C2 1_555 1_555
N4 N3 1_555 1_555
N5 N2 1_555 1_555
C4 C1 1_555 1_555
C5 C4 1_555 1_555
H3 C5 1_555 1_555
N6 N4 1_555 1_555
C6 C3 1_555 1_555
H4 O1 1_555 1_555
H5 O2 1_555 1_555
Mn2 N3 1_555 1_555
O2 Mn2 1_555 1_555
H6 O2 1_555 1_555
Cl2 Mn1 1_555 1_555
N7 Mn1 1_555 1_555
N8 Mn2 1_555 1_555
Mn6_3 Cl2 1_555 1_555
Mn6_4 N5 1_555 1_555
Mn7_2 N6 1_555 1_555
Cl3 Mn2 1_555 1_555
Cl4 Mn2 1_555 1_555
N5 C4 1_555 1_555
C5 C6 1_555 1_555
N6 C6 1_555 1_555
Mn4 Cl3_2 1_555 1_555
Mn4_2 Cl3_3 1_555 1_555
N1_2 C1_2 1_555 1_555
C1_2 C2_2 1_555 1_555
H1_2 O1_2 1_555 1_555
Mn1_2 N1_2 1_555 1_555
O1_2 Mn1_2 1_555 1_555
Cl1_3 Mn1_2 1_555 1_555
N2_2 N1_2 1_555 1_555
C2_2 H2_2 1_555 1_555
N3_2 C3_2 1_555 1_555
C3_2 C2_2 1_555 1_555
N4_2 N3_2 1_555 1_555
N5_2 N2_2 1_555 1_555
C4_2 C1_2 1_555 1_555
C5_2 C4_2 1_555 1_555
H3_2 C5_2 1_555 1_555
N6_2 N4_2 1_555 1_555
C6_2 C3_2 1_555 1_555
H4_2 O1_2 1_555 1_555
H5_2 O2_2 1_555 1_555
Mn2_2 N3_2 1_555 1_555
O2_2 Mn2_2 1_555 1_555
H6_2 O2_2 1_555 1_555
Cl2_2 Mn1_2 1_555 1_555
N7_2 Mn1_2 1_555 1_555
N8_2 Mn2_2 1_555 1_555
Mn3_2 Cl1_3 1_555 1_555
Mn6_5 Cl2_2 1_555 1_555
Mn6_6 N5_2 1_555 1_555
Mn7_8 N6_2 1_555 1_555
Cl3_4 Mn2_2 1_555 1_555
Cl4_2 Mn2_2 1_555 1_555
N9_2 Mn1_2 1_555 1_555
N2_2 Mn3_2 1_555 1_555
N5_2 C4_2 1_555 1_555
C5_2 C6_2 1_555 1_555
N6_2 C6_2 1_555 1_555
N1_3 C1_3 1_555 1_555
C1_3 C2_3 1_555 1_555
H1_3 O1_3 1_555 1_555
Mn1_3 N1_3 1_555 1_555
O1_3 Mn1_3 1_555 1_555
Cl1_4 Mn1_3 1_555 1_555
N2_3 N1_3 1_555 1_555
C2_3 H2_3 1_555 1_555
N3_3 C3_3 1_555 1_555
C3_3 C2_3 1_555 1_555
N4_3 N3_3 1_555 1_555
N5_3 N2_3 1_555 1_555
C4_3 C1_3 1_555 1_555
C5_3 C4_3 1_555 1_555
H3_3 C5_3 1_555 1_555
N6_3 N4_3 1_555 1_555
C6_3 C3_3 1_555 1_555
H4_3 O1_3 1_555 1_555
H5_3 O2_3 1_555 1_555
Mn2_3 N3_3 1_555 1_555
O2_3 Mn2_3 1_555 1_555
H6_3 O2_3 1_555 1_555
Cl2_3 Mn1_3 1_555 1_555
N7_3 Mn1_3 1_555 1_555
N8_3 Mn2_3 1_555 1_555
Mn4_3 N4_3 1_555 1_555
Mn6_7 Cl2_3 1_555 1_555
Mn6_8 N5_3 1_555 1_555
Mn7_10 N6_3 1_555 1_555
Cl3_5 Mn2_3 1_555 1_555
Cl4_3 Mn2_3 1_555 1_555
N10_3 Mn2_3 1_555 1_555
N5_3 C4_3 1_555 1_555
C5_3 C6_3 1_555 1_555
N6_3 C6_3 1_555 1_555
Mn4_3 Cl3_5 1_555 1_555
Mn3_3 Cl1_5 1_555 1_555
N1_4 C1_4 1_555 1_555
C1_4 C2_4 1_555 1_555
H1_4 O1_4 1_555 1_555
Mn3_3 N1_4 1_555 1_555
O1_4 Mn3_3 1_555 1_555
N9_3 N1_4 1_555 1_555
C2_4 H2_4 1_555 1_555
N3_4 C3_4 1_555 1_555
C3_4 C2_4 1_555 1_555
N10_2 N3_4 1_555 1_555
N5_4 N9_3 1_555 1_555
C4_4 C1_4 1_555 1_555
C5_4 C4_4 1_555 1_555
H3_4 C5_4 1_555 1_555
N6_4 N10_2 1_555 1_555
C6_4 C3_4 1_555 1_555
H4_4 O1_4 1_555 1_555
H5_4 O2_4 1_555 1_555
Mn4_2 N3_4 1_555 1_555
O2_4 Mn4_2 1_555 1_555
H6_4 O2_4 1_555 1_555
Cl2_4 Mn3_3 1_555 1_555
N7_4 Mn3_3 1_555 1_555
N8_4 Mn4_2 1_555 1_555
Mn6_10 Cl2_4 1_555 1_555
Mn6_9 N5_4 1_555 1_555
Mn7_5 N6_4 1_555 1_555
Cl4_4 Mn4_2 1_555 1_555
N5_4 C4_4 1_555 1_555
C5_4 C6_4 1_555 1_555
N6_4 C6_4 1_555 1_555
N1_5 C1_5 1_555 1_555
C1_5 C2_5 1_555 1_555
H1_5 O1_5 1_555 1_555
Mn3_2 N1_5 1_555 1_555
O1_5 Mn3_2 1_555 1_555
N9_2 N1_5 1_555 1_555
C2_5 H2_5 1_555 1_555
N3_5 C3_5 1_555 1_555
C3_5 C2_5 1_555 1_555
N10 N3_5 1_555 1_555
N5_5 N9_2 1_555 1_555
C4_5 C1_5 1_555 1_555
C5_5 C4_5 1_555 1_555
H3_5 C5_5 1_555 1_555
N6_5 N10 1_555 1_555
C6_5 C3_5 1_555 1_555
H4_5 O1_5 1_555 1_555
H5_5 O2_5 1_555 1_555
Mn4 N3_5 1_555 1_555
O2_5 Mn4 1_555 1_555
H6_5 O2_5 1_555 1_555
Cl2_5 Mn3_2 1_555 1_555
N7_5 Mn3_2 1_555 1_555
N8_5 Mn4 1_555 1_555
Mn6_6 Cl2_5 1_555 1_555
Mn6_5 N5_5 1_555 1_555
Mn7_3 N6_5 1_555 1_555
Cl4_5 Mn4 1_555 1_555
N5_5 C4_5 1_555 1_555
C5_5 C6_5 1_555 1_555
N6_5 C6_5 1_555 1_555
N1_6 C1_6 1_555 1_555
C1_6 C2_6 1_555 1_555
H1_6 O1_6 1_555 1_555
Mn3 N1_6 1_555 1_555
O1_6 Mn3 1_555 1_555
N9 N1_6 1_555 1_555
C2_6 H2_6 1_555 1_555
N3_6 C3_6 1_555 1_555
C3_6 C2_6 1_555 1_555
N10_3 N3_6 1_555 1_555
N5_6 N9 1_555 1_555
C4_6 C1_6 1_555 1_555
C5_6 C4_6 1_555 1_555
H3_6 C5_6 1_555 1_555
N6_6 N10_3 1_555 1_555
C6_6 C3_6 1_555 1_555
H4_6 O1_6 1_555 1_555
H5_6 O2_6 1_555 1_555
Mn4_3 N3_6 1_555 1_555
O2_6 Mn4_3 1_555 1_555
H6_6 O2_6 1_555 1_555
Cl2_6 Mn3 1_555 1_555
N7_6 Mn3 1_555 1_555
N8_6 Mn4_3 1_555 1_555
Mn6_2 Cl2_6 1_555 1_555
Mn6 N5_6 1_555 1_555
Mn7_9 N6_6 1_555 1_555
Cl4_6 Mn4_3 1_555 1_555
N5_6 C4_6 1_555 1_555
C5_6 C6_6 1_555 1_555
N6_6 C6_6 1_555 1_555
N7_2 N2_4 1_555 1_555
C5_7 C4_7 1_555 1_555
H3_7 C5_7 1_555 1_555
N8_3 N4_4 1_555 1_555
Mn7_9 N4_4 1_555 1_555
N2_4 Mn6_5 1_555 1_555
N7_2 C4_7 1_555 1_555
C5_7 C6_7 1_555 1_555
N8_3 C6_7 1_555 1_555
N7_5 C1_7 1_555 1_555
C1_7 C2_7 1_555 1_555
N2_5 N7_5 1_555 1_555
C2_7 H2_7 1_555 1_555
N8_6 C3_7 1_555 1_555
C3_7 C2_7 1_555 1_555
N4_5 N8_6 1_555 1_555
Mn7_10 N4_5 1_555 1_555
N2_5 Mn6_6 1_555 1_555
Mn7_10 Cl4_6 1_555 1_555
N7_3 N2_6 1_555 1_555
C5_8 C4_8 1_555 1_555
H3_8 C5_8 1_555 1_555
N8 N4_6 1_555 1_555
Mn7 N4_6 1_555 1_555
N2_6 Mn6_7 1_555 1_555
N7_3 C4_8 1_555 1_555
C5_8 C6_8 1_555 1_555
N8 C6_8 1_555 1_555
Mn7_2 N4_7 1_555 1_555
N2_7 Mn6_8 1_555 1_555
Mn7_3 N4_8 1_555 1_555
N2_8 Mn6_9 1_555 1_555
N7_4 C1_8 1_555 1_555
C1_8 C2_8 1_555 1_555
N2_9 N7_4 1_555 1_555
C2_8 H2_8 1_555 1_555
N8_5 C3_8 1_555 1_555
C3_8 C2_8 1_555 1_555
N4_9 N8_5 1_555 1_555
Mn7_4 N4_9 1_555 1_555
N2_9 Mn6_10 1_555 1_555
Mn7_4 Cl4_5 1_555 1_555
Mn7_5 N4_10 1_555 1_555
N2_10 Mn6 1_555 1_555
N7_6 C1_9 1_555 1_555
C1_9 C2_9 1_555 1_555
N2_11 N7_6 1_555 1_555
C2_9 H2_9 1_555 1_555
N8_4 C3_9 1_555 1_555
C3_9 C2_9 1_555 1_555
N4_11 N8_4 1_555 1_555
Mn7_6 N4_11 1_555 1_555
N2_11 Mn6_2 1_555 1_555
Mn7_6 Cl4_4 1_555 1_555
N7 N2_12 1_555 1_555
C5_9 C4_9 1_555 1_555
H3_9 C5_9 1_555 1_555
N8_2 N4_12 1_555 1_555
Mn7_7 N4_12 1_555 1_555
N2_12 Mn6_3 1_555 1_555
N7 C4_9 1_555 1_555
C5_9 C6_9 1_555 1_555
N8_2 C6_9 1_555 1_555
Mn7_8 N4_13 1_555 1_555
N2_13 Mn6_4 1_555 1_555
O1_7 Mn6 1_555 1_555
H1_7 O1_8 1_555 1_555
O1_8 Mn6_2 1_555 1_555
O1_9 Mn6_3 1_555 1_555
H4_7 O1_9 1_555 1_555
O2_7 Mn7 1_555 1_555
H6_7 O2_7 1_555 1_555
Cl4 Mn7 1_555 1_555
O1_10 Mn6_4 1_555 1_555
O2_8 Mn7_2 1_555 1_555
O2_9 Mn7_3 1_555 1_555
H5_7 O2_10 1_555 1_555
O2_10 Mn7_4 1_555 1_555
O1_11 Mn6_7 1_555 1_555
H4_8 O1_11 1_555 1_555
O2_11 Mn7_9 1_555 1_555
H6_8 O2_11 1_555 1_555
Cl4_3 Mn7_9 1_555 1_555
O1_12 Mn6_8 1_555 1_555
H5_8 O2_12 1_555 1_555
O2_12 Mn7_10 1_555 1_555
O1_13 Mn6_9 1_555 1_555
H1_8 O1_14 1_555 1_555
O1_14 Mn6_10 1_555 1_555
O2_13 Mn7_5 1_555 1_555
H5_9 O2_14 1_555 1_555
O2_14 Mn7_6 1_555 1_555
O1_15 Mn6_5 1_555 1_555
H4_9 O1_15 1_555 1_555
O2_15 Mn7_7 1_555 1_555
H6_9 O2_15 1_555 1_555
Cl4_2 Mn7_7 1_555 1_555
H1_9 O1_16 1_555 1_555
O1_16 Mn6_6 1_555 1_555
O2_16 Mn7_8 1_555 1_555

#END
