
###############################################################################
#
# This file contains modified crystal structure data generated from the
# MOF subset of the Cambridge Structural Database (CSD) v543 
# hosted by the Cambridge Crystallographic Data Centre (CCDC).
#
# This work is licensed under the Creative Commons
# Attribution-NonCommercial-ShareAlike 4.0 International License.
# To view a copy of this license, visit
# http://creativecommons.org/licenses/by-nc-sa/4.0/
# or send a letter to
# Creative Commons, PO Box 1866, Mountain View, CA 94042, USA.
#
# CIF created using the CSD Python API on 29 September 2022
# The structure has been converted into the P1 space group
# The structure has a 3D framework
# The original CSD entry LONVER is in the rhombohedral crystal system
# The framework has been calculated to contain at least 10.0% void space
# The void calculation uses a probe of radius 1.32A, grid spacing 0.4
#
###############################################################################

data_LONVER
_chemical_formula_moiety         '(C54 H18 Cl9 Mn12 N60)n'
_symmetry_cell_setting           triclinic
_symmetry_space_group_name_H-M   'P 1'
_symmetry_Int_Tables_number      1
_space_group_name_Hall           'P 1'
loop_
_symmetry_equiv_pos_site_id
_symmetry_equiv_pos_as_xyz
1 x,y,z
_cell_length_a                   25.458(3)
_cell_length_b                   25.458(3)
_cell_length_c                   8.4044(9)
_cell_angle_alpha                90
_cell_angle_beta                 90
_cell_angle_gamma                120
_cell_volume                     4717.22
loop_
_atom_site_label
_atom_site_type_symbol
_atom_site_fract_x
_atom_site_fract_y
_atom_site_fract_z
Mn5 Mn -0.0000 0.28778(3) 0.0000
Cl1 Cl -0.0000 0.42520(5) 0.5000
Mn3 Mn 0.04555(3) 0.37885(3) 0.6667
Mn5_2 Mn -0.0000 0.28778(3) 1.0000
N9 N 0.04029(15) 0.33333(21) 0.3333
Mn5_3 Mn 1.0000 0.28778(3) 0.0000
Mn7 Mn 0.71222(3) 0.0000 0.0000
Mn1 Mn 0.95445(3) 0.3333 0.3333
Cl1_2 Cl 1.0000 0.42520(5) 0.5000
N1 N 0.91956(12) 0.27584(12) 0.5493(3)
N2 N 0.95971(15) 0.29304(15) 0.6667
C1 C 0.87195(15) 0.21984(15) 0.5911(4)
C2 C 0.81814(11) 0.18186(11) 0.5095(5)
H1 H 0.8084 0.1916 0.4087
N3 N 0.94251(12) 0.25289(12) 0.7840(3)
C3 C 0.88651(15) 0.20528(15) 0.7422(4)
C4 C 0.84853(11) 0.15147(11) 0.8238(5)
H2 H 0.8583 0.1417 0.9246
N4 N 0.72416(12) 0.08044(12) 0.5493(3)
N5 N 0.70696(15) 0.04029(15) 0.6667
C5 C 0.78016(15) 0.12805(15) 0.5911(4)
N6 N 0.74711(12) 0.05749(12) 0.7840(3)
C6 C 0.79472(15) 0.11349(15) 0.7422(4)
Mn2 Mn 0.6667 0.04555(3) 0.3333
Cl2 Cl 0.90813(5) 0.24147(5) 0.1667
Mn5_4 Mn 1.0000 0.28778(3) 1.0000
Mn7_2 Mn 0.71222(3) 0.0000 1.0000
Cl3 Cl 0.57480(5) -0.0000 0.5000
Cl4 Cl 0.75853(5) 0.09187(5) 0.1667
N7 N 0.97705(17) 0.39083(12) 0.1174(3)
N8 N 0.60917(12) 0.02295(17) 0.1174(3)
Mn7_3 Mn 0.71222(3) 1.0000 0.0000
Mn6 Mn 0.62115(3) 0.95445(3) 0.6667
Mn7_4 Mn 0.71222(3) 1.0000 1.0000
Cl3_2 Cl 0.57480(5) 1.0000 0.5000
N10 N 0.66667(21) 0.95971(15) 0.3333
Mn7_5 Mn -0.0000 0.71218(3) 0.0000
Mn6_2 Mn 0.04555(3) 0.66670(4) 0.6667
Mn7_6 Mn -0.0000 0.71218(3) 1.0000
Cl3_3 Cl 0.0000 0.57480(5) 0.5000
N10_2 N 0.04029(15) 0.70696(26) 0.3333
Mn5_5 Mn 0.71222(3) 0.71218(3) 0.0000
Mn7_7 Mn 1.0000 0.71218(3) 0.0000
Mn1_2 Mn 0.6667 0.62115(3) 0.3333
Cl1_3 Cl 0.57480(5) 0.57480(5) 0.5000
N1_2 N 0.72416(12) 0.64372(17) 0.5493(3)
N2_2 N 0.70696(15) 0.66667(21) 0.6667
C1_2 C 0.78016(15) 0.65211(21) 0.5911(4)
C2_2 C 0.81814(11) 0.63628(16) 0.5095(5)
H1_2 H 0.8084 0.6168 0.4087
N3_2 N 0.74711(12) 0.68961(17) 0.7840(3)
C3_2 C 0.79472(15) 0.68122(21) 0.7422(4)
C4_2 C 0.84853(11) 0.69705(16) 0.8238(5)
H2_2 H 0.8583 0.7165 0.9246
N4_2 N 0.91956(12) 0.64372(17) 0.5493(3)
N5_2 N 0.95971(15) 0.66667(21) 0.6667
C5_2 C 0.87195(15) 0.65211(21) 0.5911(4)
N6_2 N 0.94251(12) 0.68961(17) 0.7840(3)
C6_2 C 0.88651(15) 0.68122(21) 0.7422(4)
Mn2_2 Mn 0.95445(3) 0.62115(3) 0.3333
Cl2_2 Cl 0.75853(5) 0.66667(7) 0.1667
Mn3_2 Mn 0.62115(3) 0.66670(4) 0.6667
Mn5_6 Mn 0.71222(3) 0.71218(3) 1.0000
Mn7_8 Mn 1.0000 0.71218(3) 1.0000
Cl3_4 Cl 1.0000 0.57480(5) 0.5000
Cl4_2 Cl 0.90813(5) 0.66667(7) 0.1667
N7_2 N 0.60917(12) 0.58623(21) 0.1174(3)
N8_2 N 0.97705(17) 0.58623(21) 0.1174(3)
N9_2 N 0.66667(21) 0.70696(26) 0.3333
Mn5_7 Mn 0.28782(3) 0.0000 0.0000
Mn7_9 Mn 0.28782(3) 0.28778(3) 0.0000
Mn1_3 Mn 0.37885(3) 0.04555(3) 0.3333
Cl1_4 Cl 0.42520(5) -0.0000 0.5000
N1_3 N 0.35628(17) 0.08044(12) 0.5493(3)
N2_3 N 0.33333(21) 0.04029(15) 0.6667
C1_3 C 0.34789(21) 0.12805(15) 0.5911(4)
C2_3 C 0.36372(16) 0.18186(11) 0.5095(5)
H1_3 H 0.3832 0.1916 0.4087
N3_3 N 0.31039(17) 0.05749(12) 0.7840(3)
C3_3 C 0.31878(21) 0.11349(15) 0.7422(4)
C4_3 C 0.30295(16) 0.15147(11) 0.8238(5)
H2_3 H 0.2835 0.1417 0.9246
N4_3 N 0.35628(17) 0.27584(12) 0.5493(3)
N5_3 N 0.33333(21) 0.29304(15) 0.6667
C5_3 C 0.34789(21) 0.21984(15) 0.5911(4)
N6_3 N 0.31039(17) 0.25289(12) 0.7840(3)
C6_3 C 0.31878(21) 0.20528(15) 0.7422(4)
Mn2_3 Mn 0.37885(3) 0.3333 0.3333
Cl2_3 Cl 0.33333(7) 0.09187(5) 0.1667
Mn5_8 Mn 0.28782(3) 0.0000 1.0000
Mn6_3 Mn 0.33330(4) 0.37885(3) 0.6667
Mn7_10 Mn 0.28782(3) 0.28778(3) 1.0000
Cl3_5 Cl 0.42520(5) 0.42520(5) 0.5000
Cl4_3 Cl 0.33333(7) 0.24147(5) 0.1667
N7_3 N 0.41377(21) 0.02295(17) 0.1174(3)
N8_3 N 0.41377(21) 0.39083(12) 0.1174(3)
N10_3 N 0.29304(26) 0.33333(21) 0.3333
Mn5_9 Mn 0.28782(3) 1.0000 0.0000
Cl1_5 Cl 0.42520(5) 1.0000 0.5000
Mn3_3 Mn 0.33330(4) 0.95445(3) 0.6667
Mn5_10 Mn 0.28782(3) 1.0000 1.0000
N9_3 N 0.29304(26) 0.95971(15) 0.3333
N1_4 N 0.27584(12) 0.91956(12) 0.4507(3)
C1_4 C 0.21984(15) 0.87195(15) 0.4089(4)
C2_4 C 0.18186(11) 0.81814(11) 0.4905(5)
H1_4 H 0.1916 0.8084 0.5913
N3_4 N 0.25289(12) 0.94251(12) 0.2160(3)
C3_4 C 0.20528(15) 0.88651(15) 0.2578(4)
C4_4 C 0.15147(11) 0.84853(11) 0.1762(5)
H2_4 H 0.1417 0.8583 0.0754
N4_4 N 0.08044(12) 0.72416(12) 0.4507(3)
C5_4 C 0.12805(15) 0.78016(15) 0.4089(4)
N6_4 N 0.05749(12) 0.74711(12) 0.2160(3)
C6_4 C 0.11349(15) 0.79472(15) 0.2578(4)
Cl2_4 Cl 0.24147(5) 0.90813(5) 0.8333
Cl4_4 Cl 0.09187(5) 0.75853(5) 0.8333
N7_4 N 0.39083(12) 0.97705(17) 0.8826(3)
N8_4 N 0.02295(17) 0.60917(12) 0.8826(3)
N1_5 N 0.64372(17) 0.72416(12) 0.4507(3)
C1_5 C 0.65211(21) 0.78016(15) 0.4089(4)
C2_5 C 0.63628(16) 0.81814(11) 0.4905(5)
H1_5 H 0.6168 0.8084 0.5913
N3_5 N 0.68961(17) 0.74711(12) 0.2160(3)
C3_5 C 0.68122(21) 0.79472(15) 0.2578(4)
C4_5 C 0.69705(16) 0.84853(11) 0.1762(5)
H2_5 H 0.7165 0.8583 0.0754
N4_5 N 0.64372(17) 0.91956(12) 0.4507(3)
C5_5 C 0.65211(21) 0.87195(15) 0.4089(4)
N6_5 N 0.68961(17) 0.94251(12) 0.2160(3)
C6_5 C 0.68122(21) 0.88651(15) 0.2578(4)
Cl2_5 Cl 0.66667(7) 0.75853(5) 0.8333
Cl4_5 Cl 0.66667(7) 0.90813(5) 0.8333
N7_5 N 0.58623(21) 0.60917(12) 0.8826(3)
N8_5 N 0.58623(21) 0.97705(17) 0.8826(3)
N1_6 N 0.08044(12) 0.35628(17) 0.4507(3)
C1_6 C 0.12805(15) 0.34789(21) 0.4089(4)
C2_6 C 0.18186(11) 0.36372(16) 0.4905(5)
H1_6 H 0.1916 0.3832 0.5913
N3_6 N 0.05749(12) 0.31039(17) 0.2160(3)
C3_6 C 0.11349(15) 0.31878(21) 0.2578(4)
C4_6 C 0.15147(11) 0.30295(16) 0.1762(5)
H2_6 H 0.1417 0.2835 0.0754
N4_6 N 0.27584(12) 0.35628(17) 0.4507(3)
C5_6 C 0.21984(15) 0.34789(21) 0.4089(4)
N6_6 N 0.25289(12) 0.31039(17) 0.2160(3)
C6_6 C 0.20528(15) 0.31878(21) 0.2578(4)
Cl2_6 Cl 0.09187(5) 0.33333(7) 0.8333
Cl4_6 Cl 0.24147(5) 0.33333(7) 0.8333
N7_6 N 0.02295(17) 0.41377(21) 0.8826(3)
N8_6 N 0.39083(12) 0.41377(21) 0.8826(3)
N2_4 N 0.62638(15) 0.62637(15) 0.0000
C3_7 C 0.55317(15) 0.53862(15) 0.0756(4)
C4_7 C 0.51519(11) 0.48481(11) 0.1572(5)
H2_7 H 0.5249 0.4751 0.2580
N5_4 N 0.37363(15) 0.37362(15) 0.0000
C6_7 C 0.46138(15) 0.44683(15) 0.0756(4)
N2_5 N 0.62638(15) 0.62637(15) 1.0000
C1_7 C 0.53862(15) 0.55317(15) 0.9244(4)
C2_7 C 0.48481(11) 0.51519(11) 0.8428(5)
H1_7 H 0.4751 0.5249 0.7420
N5_5 N 0.37363(15) 0.37362(15) 1.0000
C5_7 C 0.44683(15) 0.46138(15) 0.9244(4)
N2_6 N 0.37363(15) 0.00000(21) 0.0000
C3_8 C 0.46138(15) 0.01456(21) 0.0756(4)
C4_8 C 0.51519(11) 0.03039(16) 0.1572(5)
H2_8 H 0.5249 0.0499 0.2580
N5_6 N 0.62638(15) 0.00000(21) 0.0000
C6_8 C 0.55317(15) 0.01456(21) 0.0756(4)
N2_7 N 0.37363(15) 0.00000(21) 1.0000
N5_7 N 0.62638(15) 0.00000(21) 1.0000
N2_8 N 0.37363(15) 1.00000(21) 0.0000
N5_8 N 0.62638(15) 1.00000(21) 0.0000
N2_9 N 0.37363(15) 1.00000(21) 1.0000
C1_8 C 0.44683(15) 0.98544(21) 0.9244(4)
C2_8 C 0.48481(11) 0.96961(16) 0.8428(5)
H1_8 H 0.4751 0.9501 0.7420
N5_9 N 0.62638(15) 1.00000(21) 1.0000
C5_8 C 0.53862(15) 0.98544(21) 0.9244(4)
N2_10 N -0.00000(21) 0.37362(15) 0.0000
N5_10 N -0.00000(21) 0.62637(15) 0.0000
N2_11 N -0.00000(21) 0.37362(15) 1.0000
C1_9 C 0.01456(21) 0.46138(15) 0.9244(4)
C2_9 C 0.03039(16) 0.51519(11) 0.8428(5)
H1_9 H 0.0499 0.5249 0.7420
N5_11 N -0.00000(21) 0.62637(15) 1.0000
C5_9 C 0.01456(21) 0.55317(15) 0.9244(4)
N2_12 N 1.00000(21) 0.37362(15) 0.0000
C3_9 C 0.98544(21) 0.44683(15) 0.0756(4)
C4_9 C 0.96961(16) 0.48481(11) 0.1572(5)
H2_9 H 0.9501 0.4751 0.2580
N5_12 N 1.00000(21) 0.62637(15) 0.0000
C6_9 C 0.98544(21) 0.53862(15) 0.0756(4)
N2_13 N 1.00000(21) 0.37362(15) 1.0000
N5_13 N 1.00000(21) 0.62637(15) 1.0000
loop_
_geom_bond_atom_site_label_1
_geom_bond_atom_site_label_2
_geom_bond_site_symmetry_1
_geom_bond_site_symmetry_2
Cl1 Mn3 1_555 1_555
Mn1 Cl1_2 1_555 1_555
N1 Mn1 1_555 1_555
N2 N1 1_555 1_555
C1 N1 1_555 1_555
C2 C1 1_555 1_555
H1 C2 1_555 1_555
N3 N2 1_555 1_555
C3 C1 1_555 1_555
C4 C3 1_555 1_555
H2 C4 1_555 1_555
N4 N5 1_555 1_555
N5 N6 1_555 1_555
C5 C2 1_555 1_555
N6 C6 1_555 1_555
C6 C4 1_555 1_555
Mn2 N4 1_555 1_555
Cl2 Mn1 1_555 1_555
Mn5_3 Cl2 1_555 1_555
Mn5_4 N3 1_555 1_555
Mn7_2 N6 1_555 1_555
Cl3 Mn2 1_555 1_555
Cl4 Mn2 1_555 1_555
N7 Mn1 1_555 1_555
N8 Mn2 1_555 1_555
N3 C3 1_555 1_555
N4 C5 1_555 1_555
C5 C6 1_555 1_555
Mn6 Cl3_2 1_555 1_555
Mn6_2 Cl3_3 1_555 1_555
Mn1_2 Cl1_3 1_555 1_555
Cl1_3 Mn3_2 1_555 1_555
N1_2 Mn1_2 1_555 1_555
N2_2 N1_2 1_555 1_555
C1_2 N1_2 1_555 1_555
C2_2 C1_2 1_555 1_555
H1_2 C2_2 1_555 1_555
N3_2 N2_2 1_555 1_555
C3_2 C1_2 1_555 1_555
C4_2 C3_2 1_555 1_555
H2_2 C4_2 1_555 1_555
N4_2 N5_2 1_555 1_555
N5_2 N6_2 1_555 1_555
C5_2 C2_2 1_555 1_555
N6_2 C6_2 1_555 1_555
C6_2 C4_2 1_555 1_555
Mn2_2 N4_2 1_555 1_555
Cl2_2 Mn1_2 1_555 1_555
Mn3_2 N2_2 1_555 1_555
Mn5_5 Cl2_2 1_555 1_555
Mn5_6 N3_2 1_555 1_555
Mn7_8 N6_2 1_555 1_555
Cl3_4 Mn2_2 1_555 1_555
Cl4_2 Mn2_2 1_555 1_555
N7_2 Mn1_2 1_555 1_555
N8_2 Mn2_2 1_555 1_555
N9_2 Mn1_2 1_555 1_555
N3_2 C3_2 1_555 1_555
N4_2 C5_2 1_555 1_555
C5_2 C6_2 1_555 1_555
Mn1_3 Cl1_4 1_555 1_555
N1_3 Mn1_3 1_555 1_555
N2_3 N1_3 1_555 1_555
C1_3 N1_3 1_555 1_555
C2_3 C1_3 1_555 1_555
H1_3 C2_3 1_555 1_555
N3_3 N2_3 1_555 1_555
C3_3 C1_3 1_555 1_555
C4_3 C3_3 1_555 1_555
H2_3 C4_3 1_555 1_555
N4_3 N5_3 1_555 1_555
N5_3 N6_3 1_555 1_555
C5_3 C2_3 1_555 1_555
N6_3 C6_3 1_555 1_555
C6_3 C4_3 1_555 1_555
Mn2_3 N4_3 1_555 1_555
Cl2_3 Mn1_3 1_555 1_555
Mn5_7 Cl2_3 1_555 1_555
Mn5_8 N3_3 1_555 1_555
Mn6_3 N5_3 1_555 1_555
Mn7_10 N6_3 1_555 1_555
Cl3_5 Mn2_3 1_555 1_555
Cl4_3 Mn2_3 1_555 1_555
N7_3 Mn1_3 1_555 1_555
N8_3 Mn2_3 1_555 1_555
N10_3 Mn2_3 1_555 1_555
N3_3 C3_3 1_555 1_555
N4_3 C5_3 1_555 1_555
C5_3 C6_3 1_555 1_555
Mn6_3 Cl3_5 1_555 1_555
Cl1_5 Mn3_3 1_555 1_555
N1_4 Mn3_3 1_555 1_555
N9_3 N1_4 1_555 1_555
C1_4 N1_4 1_555 1_555
C2_4 C1_4 1_555 1_555
H1_4 C2_4 1_555 1_555
N3_4 N9_3 1_555 1_555
C3_4 C1_4 1_555 1_555
C4_4 C3_4 1_555 1_555
H2_4 C4_4 1_555 1_555
N4_4 N10_2 1_555 1_555
N10_2 N6_4 1_555 1_555
C5_4 C2_4 1_555 1_555
N6_4 C6_4 1_555 1_555
C6_4 C4_4 1_555 1_555
Mn6_2 N4_4 1_555 1_555
Cl2_4 Mn3_3 1_555 1_555
Mn5_10 Cl2_4 1_555 1_555
Mn5_9 N3_4 1_555 1_555
Mn7_5 N6_4 1_555 1_555
Cl4_4 Mn6_2 1_555 1_555
N7_4 Mn3_3 1_555 1_555
N8_4 Mn6_2 1_555 1_555
N3_4 C3_4 1_555 1_555
N4_4 C5_4 1_555 1_555
C5_4 C6_4 1_555 1_555
N1_5 Mn3_2 1_555 1_555
N9_2 N1_5 1_555 1_555
C1_5 N1_5 1_555 1_555
C2_5 C1_5 1_555 1_555
H1_5 C2_5 1_555 1_555
N3_5 N9_2 1_555 1_555
C3_5 C1_5 1_555 1_555
C4_5 C3_5 1_555 1_555
H2_5 C4_5 1_555 1_555
N4_5 N10 1_555 1_555
N10 N6_5 1_555 1_555
C5_5 C2_5 1_555 1_555
N6_5 C6_5 1_555 1_555
C6_5 C4_5 1_555 1_555
Mn6 N4_5 1_555 1_555
Cl2_5 Mn3_2 1_555 1_555
Mn5_6 Cl2_5 1_555 1_555
Mn5_5 N3_5 1_555 1_555
Mn7_3 N6_5 1_555 1_555
Cl4_5 Mn6 1_555 1_555
N7_5 Mn3_2 1_555 1_555
N8_5 Mn6 1_555 1_555
N3_5 C3_5 1_555 1_555
N4_5 C5_5 1_555 1_555
C5_5 C6_5 1_555 1_555
N1_6 Mn3 1_555 1_555
N9 N1_6 1_555 1_555
C1_6 N1_6 1_555 1_555
C2_6 C1_6 1_555 1_555
H1_6 C2_6 1_555 1_555
N3_6 N9 1_555 1_555
C3_6 C1_6 1_555 1_555
C4_6 C3_6 1_555 1_555
H2_6 C4_6 1_555 1_555
N4_6 N10_3 1_555 1_555
N10_3 N6_6 1_555 1_555
C5_6 C2_6 1_555 1_555
N6_6 C6_6 1_555 1_555
C6_6 C4_6 1_555 1_555
Mn6_3 N4_6 1_555 1_555
Cl2_6 Mn3 1_555 1_555
Mn5_2 Cl2_6 1_555 1_555
Mn5 N3_6 1_555 1_555
Mn7_9 N6_6 1_555 1_555
Cl4_6 Mn6_3 1_555 1_555
N7_6 Mn3 1_555 1_555
N8_6 Mn6_3 1_555 1_555
N3_6 C3_6 1_555 1_555
N4_6 C5_6 1_555 1_555
C5_6 C6_6 1_555 1_555
N7_2 N2_4 1_555 1_555
C4_7 C3_7 1_555 1_555
H2_7 C4_7 1_555 1_555
N5_4 N8_3 1_555 1_555
N8_3 C6_7 1_555 1_555
C6_7 C4_7 1_555 1_555
Mn5_5 N2_4 1_555 1_555
Mn7_9 N5_4 1_555 1_555
N7_2 C3_7 1_555 1_555
N2_5 N7_5 1_555 1_555
C1_7 N7_5 1_555 1_555
C2_7 C1_7 1_555 1_555
H1_7 C2_7 1_555 1_555
N8_6 N5_5 1_555 1_555
C5_7 C2_7 1_555 1_555
Mn5_6 N2_5 1_555 1_555
Mn7_10 N5_5 1_555 1_555
N8_6 C5_7 1_555 1_555
Mn7_10 Cl4_6 1_555 1_555
N7_3 N2_6 1_555 1_555
C4_8 C3_8 1_555 1_555
H2_8 C4_8 1_555 1_555
N5_6 N8 1_555 1_555
N8 C6_8 1_555 1_555
C6_8 C4_8 1_555 1_555
Mn5_7 N2_6 1_555 1_555
Mn7 N5_6 1_555 1_555
N7_3 C3_8 1_555 1_555
Mn5_8 N2_7 1_555 1_555
Mn7_2 N5_7 1_555 1_555
Mn5_9 N2_8 1_555 1_555
Mn7_3 N5_8 1_555 1_555
N2_9 N7_4 1_555 1_555
C1_8 N7_4 1_555 1_555
C2_8 C1_8 1_555 1_555
H1_8 C2_8 1_555 1_555
N8_5 N5_9 1_555 1_555
C5_8 C2_8 1_555 1_555
Mn5_10 N2_9 1_555 1_555
Mn7_4 N5_9 1_555 1_555
N8_5 C5_8 1_555 1_555
Mn7_4 Cl4_5 1_555 1_555
Mn5 N2_10 1_555 1_555
Mn7_5 N5_10 1_555 1_555
N2_11 N7_6 1_555 1_555
C1_9 N7_6 1_555 1_555
C2_9 C1_9 1_555 1_555
H1_9 C2_9 1_555 1_555
N8_4 N5_11 1_555 1_555
C5_9 C2_9 1_555 1_555
Mn5_2 N2_11 1_555 1_555
Mn7_6 N5_11 1_555 1_555
N8_4 C5_9 1_555 1_555
Mn7_6 Cl4_4 1_555 1_555
N7 N2_12 1_555 1_555
C4_9 C3_9 1_555 1_555
H2_9 C4_9 1_555 1_555
N5_12 N8_2 1_555 1_555
N8_2 C6_9 1_555 1_555
C6_9 C4_9 1_555 1_555
Mn5_3 N2_12 1_555 1_555
Mn7_7 N5_12 1_555 1_555
N7 C3_9 1_555 1_555
Mn5_4 N2_13 1_555 1_555
Mn7_8 N5_13 1_555 1_555
Cl4 Mn7 1_555 1_555
Cl4_3 Mn7_9 1_555 1_555
Cl4_2 Mn7_7 1_555 1_555

#END
