
###############################################################################
#
# This file contains modified crystal structure data generated from the
# MOF subset of the Cambridge Structural Database (CSD) v543 
# hosted by the Cambridge Crystallographic Data Centre (CCDC).
#
# This work is licensed under the Creative Commons
# Attribution-NonCommercial-ShareAlike 4.0 International License.
# To view a copy of this license, visit
# http://creativecommons.org/licenses/by-nc-sa/4.0/
# or send a letter to
# Creative Commons, PO Box 1866, Mountain View, CA 94042, USA.
#
# CIF created using the CSD Python API on 29 September 2022
# The structure has been converted into the P1 space group
# The structure has a 3D framework
# The original CSD entry LOPJOS is in the monoclinic crystal system
# The framework has been calculated to contain at least 10.0% void space
# The void calculation uses a probe of radius 1.32A, grid spacing 0.4
# H atom positions have been added when not included in the experimental data
#
###############################################################################

data_LOPJOS
_chemical_formula_moiety         '(C308 H248 Cd16 N104 O64)n'
_symmetry_cell_setting           triclinic
_symmetry_space_group_name_H-M   'P 1'
_symmetry_Int_Tables_number      1
_space_group_name_Hall           'P 1'
loop_
_symmetry_equiv_pos_site_id
_symmetry_equiv_pos_as_xyz
1 x,y,z
_cell_length_a                   38.990(2)
_cell_length_b                   21.8182(14)
_cell_length_c                   21.818
_cell_angle_alpha                90
_cell_angle_beta                 124.03
_cell_angle_gamma                90
_cell_volume                     15381.8
loop_
_atom_site_label
_atom_site_type_symbol
_atom_site_fract_x
_atom_site_fract_y
_atom_site_fract_z
O2 O 0.6297(5) 0.6332(5) 0.1460(8)
O6 O 0.5679(4) 0.6131(5) 0.1120(7)
C16 C 0.5932(7) 0.6327(9) 0.0963(12)
C24 C 0.6018(5) 0.6981(12) 0.0141(13)
C25 C 0.5806(7) 0.6506(11) 0.0216(9)
C26 C 0.6499(7) 0.7287(15) 0.0764(17)
Cd6 Cd 0.62485(4) 0.62784(5) 0.24706(7)
H22 H 0.646759 0.777044 0.0847699
H23 H 0.664222 0.704482 0.128866
H24 H 0.669178 0.723952 0.0550161
Cd1 Cd 0.37515(4) 0.62784(5) 0.75294(7)
Cd2 Cd 0.37507(4) 0.62776(6) 0.49721(7)
N1 N 0.3866(4) 0.500000 0.5102(8)
N2 N 0.3634(3) 0.6242(5) 0.6143(6)
C1 C 0.3432(7) 0.500000 0.4631(12)
N3 N 0.3278(4) 0.5548(6) 0.4429(8)
N4 N 0.3290(4) 0.5576(6) 0.7159(7)
C2 C 0.4019(2) 0.6274(4) 0.6510(5)
N5 N 0.4223(3) 0.6385(5) 0.7264(5)
C3 C 0.4639(3) 0.6543(5) 0.7679(4)
N6 N 0.4853(2) 0.6589(5) 0.7341(5)
C4 C 0.4649(3) 0.6478(5) 0.6588(6)
N7 N 0.4232(3) 0.6320(4) 0.6172(4)
O1 O 0.1196(4) 0.7669(6) 0.2353(7)
N8 N 0.2659(5) 0.500000 0.6744(9)
N9 N 0.3882(5) 0.500000 0.7619(8)
O3 O 0.6309(5) 0.6346(6) 0.6143(8)
O4 O 0.1192(5) 0.7660(7) 0.5042(8)
O5 O 0.1828(4) 0.7934(6) 0.3193(7)
O7 O 0.5683(4) 0.6185(5) 0.5260(7)
O8 O 0.1800(4) 0.7943(7) 0.5518(8)
N10 N 0.2664(6) 0.500000 0.3568(11)
C5 C 0.2871(6) 0.5447(9) 0.3895(11)
N11 N 0.4828(5) 0.6538(8) 0.8402(9)
N12 N 0.2699(5) 0.6023(8) 0.6757(9)
N13 N 0.2696(5) 0.6076(8) 0.3616(10)
N14 N 0.4830(6) 0.6526(9) 0.6273(10)
C6 C 0.2897(5) 0.5508(8) 0.6891(9)
C7 C 0.5951(7) 0.6335(9) 0.5866(12)
C8 C 0.1542(7) 0.7575(10) 0.2694(11)
C9 C 0.2099(9) 0.6776(12) 0.3235(13)
C10 C 0.2292(7) 0.6270(13) 0.3108(15)
C11 C 0.2074(11) 0.5963(11) 0.240(2)
C12 C 0.1661(11) 0.6162(14) 0.1814(15)
C13 C 0.1468(7) 0.6668(14) 0.1942(16)
C14 C 0.1688(10) 0.6975(10) 0.2652(19)
C15 C 0.1534(6) 0.7503(9) 0.5410(11)
C17 C 0.3458(6) 0.500000 0.7256(11)
C18 C 0.0901(10) 0.6590(15) 0.5110(18)
C19 C 0.1023(11) 0.6864(15) 0.1286(19)
C20 C 0.5413(7) 0.6341(8) 0.9622(13)
C21 C 0.5232(5) 0.6651(10) 0.8954(10)
C22 C 0.5444(9) 0.7127(10) 0.8879(12)
C23 C 0.5836(8) 0.7291(9) 0.9472(18)
C27 C 0.5548(12) 0.6783(12) 0.7370(15)
C28 C 0.5261(7) 0.6543(12) 0.6630(18)
C29 C 0.5387(8) 0.6481(10) 0.6122(11)
C30 C 0.5802(9) 0.6659(11) 0.6353(16)
C31 C 0.6092(6) 0.6899(12) 0.7092(19)
C32 C 0.5964(10) 0.6961(11) 0.7601(12)
C33 C 0.6581(12) 0.6982(18) 0.729(2)
C34 C 0.1500(7) 0.5852(10) 0.5546(12)
C35 C 0.1917(9) 0.5693(7) 0.5951(12)
C36 C 0.2218(5) 0.6146(12) 0.6215(11)
C37 C 0.2102(7) 0.6759(10) 0.6073(11)
C38 C 0.1685(9) 0.6919(7) 0.5668(12)
C39 C 0.1385(5) 0.6465(12) 0.5404(11)
N15 N 0.3278(4) 0.4452(6) 0.4429(8)
O9 O 0.1196(4) 0.2331(6) 0.2353(7)
O10 O 0.1828(4) 0.2066(6) 0.3193(7)
C40 C 0.2871(6) 0.4553(9) 0.3895(11)
N16 N 0.2696(5) 0.3924(8) 0.3616(10)
C41 C 0.1542(7) 0.2425(10) 0.2694(11)
C42 C 0.2099(9) 0.3224(12) 0.3235(13)
C43 C 0.2292(7) 0.3730(13) 0.3108(15)
C44 C 0.2074(11) 0.4037(11) 0.240(2)
C45 C 0.1661(11) 0.3838(14) 0.1814(15)
C46 C 0.1468(7) 0.3332(14) 0.1942(16)
C47 C 0.1688(10) 0.3025(10) 0.2652(19)
C48 C 0.1023(11) 0.3136(15) 0.1286(19)
N17 N 0.3290(4) 0.4424(6) 0.7159(7)
O11 O 0.1192(5) 0.2340(7) 0.5042(8)
O12 O 0.1800(4) 0.2057(7) 0.5518(8)
N18 N 0.2699(5) 0.3977(8) 0.6757(9)
C49 C 0.2897(5) 0.4492(8) 0.6891(9)
C50 C 0.1534(6) 0.2497(9) 0.5410(11)
C51 C 0.0901(10) 0.3410(15) 0.5110(18)
C52 C 0.1500(7) 0.4148(10) 0.5546(12)
C53 C 0.1917(9) 0.4307(7) 0.5951(12)
C54 C 0.2218(5) 0.3854(12) 0.6215(11)
C55 C 0.2102(7) 0.3241(10) 0.6073(11)
C56 C 0.1685(9) 0.3081(7) 0.5668(12)
C57 C 0.1385(5) 0.3535(12) 0.5404(11)
Cd4 Cd 0.62493(4) 0.62776(6) 0.50279(7)
N19 N 0.6366(3) 0.6242(5) 0.3857(6)
C58 C 0.5981(2) 0.6274(4) 0.3490(5)
N20 N 0.5777(3) 0.6385(5) 0.2736(5)
C59 C 0.5361(3) 0.6543(5) 0.2321(4)
N21 N 0.5147(2) 0.6589(5) 0.2659(5)
C60 C 0.5351(3) 0.6478(5) 0.3412(6)
N22 N 0.5768(3) 0.6320(4) 0.3828(4)
O14 O 0.3691(5) 0.6346(6) 0.3857(8)
O16 O 0.4317(4) 0.6185(5) 0.4740(7)
N23 N 0.5172(5) 0.6538(8) 0.1598(9)
N24 N 0.5170(6) 0.6526(9) 0.3727(10)
C61 C 0.4049(7) 0.6335(9) 0.4134(12)
C63 C 0.4587(7) 0.6341(8) 0.0378(13)
C64 C 0.4768(5) 0.6651(10) 0.1046(10)
C65 C 0.4556(9) 0.7127(10) 0.1121(12)
C66 C 0.4164(8) 0.7291(9) 0.0528(18)
C70 C 0.4452(12) 0.6783(12) 0.2630(15)
C71 C 0.4739(7) 0.6543(12) 0.3370(18)
C72 C 0.4613(8) 0.6481(10) 0.3878(11)
C73 C 0.4198(9) 0.6659(11) 0.3647(16)
C74 C 0.3908(6) 0.6899(12) 0.2908(19)
C75 C 0.4036(10) 0.6961(11) 0.2399(12)
C76 C 0.3419(12) 0.6982(18) 0.271(2)
Cd7 Cd 0.12485(4) 0.12784(5) 0.24706(7)
Cd8 Cd 0.37515(4) 0.37216(5) 0.75294(7)
Cd9 Cd 0.12485(4) 0.87216(5) 0.24706(7)
Cd10 Cd 0.12493(4) 0.12776(6) 0.50279(7)
Cd11 Cd 0.37507(4) 0.37224(6) 0.49721(7)
Cd12 Cd 0.12493(4) 0.87224(6) 0.50279(7)
N25 N 0.6134(4) 0.500000 0.4898(8)
N26 N 0.6722(4) 0.5548(6) 0.5571(8)
N27 N 0.6710(4) 0.5576(6) 0.2841(7)
O17 O 0.3804(4) 0.7331(6) 0.7647(7)
O18 O 0.6196(4) 0.7331(6) 0.2353(7)
O20 O 0.3703(5) 0.6332(5) 0.8540(8)
O21 O 0.3808(5) 0.7340(7) 0.4958(8)
O22 O 0.6192(5) 0.7340(7) 0.5042(8)
O23 O 0.3172(4) 0.7066(6) 0.6807(7)
O24 O 0.6828(4) 0.7066(6) 0.3193(7)
O26 O 0.4321(4) 0.6131(5) 0.8880(7)
O27 O 0.3200(4) 0.7057(7) 0.4482(8)
O28 O 0.6800(4) 0.7057(7) 0.5518(8)
H1 H 0.339454 0.621559 0.56036
H2 H 0.465337 0.655541 0.571278
H3 H 0.221938 0.558199 0.230539
H4 H 0.530216 0.737025 0.835527
H5 H 0.600151 0.766347 0.941323
H6 H 0.287567 0.639382 0.703591
H7 H 0.464357 0.643298 0.85792
H8 H 0.0848759 0.643542 0.5526
H9 H 0.0834857 0.707835 0.501153
H10 H 0.0698151 0.633919 0.459734
H11 H 0.290886 0.641804 0.38356
H12 H 0.226306 0.700673 0.376902
H13 H 0.149701 0.593129 0.127997
H14 H 0.524729 0.596883 0.968074
H15 H 0.0811464 0.647921 0.112845
H16 H 0.0916961 0.724684 0.145905
H17 H 0.103175 0.700197 0.0815243
H18 H 0.40362 0.459843 0.771837
H19 H 0.404044 0.540157 0.77873
H20 H 0.200749 0.52126 0.606114
H21 H 0.126426 0.549661 0.534076
H25 H 0.233766 0.711457 0.627886
H26 H 0.517095 0.630121 0.556767
H27 H 0.290886 0.358196 0.38356
H28 H 0.221938 0.441801 0.230539
H29 H 0.149701 0.406871 0.127997
H30 H 0.617979 0.714082 0.815542
H31 H 0.226306 0.299327 0.376902
H32 H 0.103175 0.299803 0.0815243
H33 H 0.0916961 0.275316 0.145905
H34 H 0.0811464 0.352079 0.112845
H35 H 0.545234 0.682962 0.775066
H36 H 0.657351 0.729802 0.689633
H37 H 0.678487 0.716252 0.784797
H38 H 0.669558 0.653824 0.725161
H39 H 0.660546 0.621559 0.43964
H40 H 0.535643 0.643298 0.14208
H41 H 0.399849 0.766347 0.0586773
H42 H 0.534663 0.655541 0.428722
H43 H 0.0698151 0.366081 0.459734
H44 H 0.0834857 0.292165 0.501153
H45 H 0.0848759 0.356458 0.5526
H46 H 0.287567 0.360618 0.703591
H47 H 0.233766 0.288543 0.627886
H48 H 0.126426 0.450339 0.534076
H49 H 0.475271 0.596883 0.0319262
H50 H 0.469784 0.737025 0.164473
H51 H 0.200749 0.47874 0.606114
H52 H 0.382021 0.714082 0.184458
H56 H 0.482905 0.630121 0.443233
H57 H 0.342649 0.729802 0.310367
H58 H 0.321513 0.716252 0.215203
H59 H 0.330442 0.653824 0.274839
H60 H 0.454766 0.682962 0.224934
C62 C 0.4068(7) 0.6327(9) 0.9037(12)
C67 C 0.3982(5) 0.6981(12) 0.9859(13)
C68 C 0.4194(7) 0.6506(11) 0.9784(9)
C69 C 0.3501(7) 0.7287(15) 0.9236(17)
H53 H 0.353241 0.777044 0.91523
H54 H 0.335778 0.704482 0.871134
H55 H 0.330822 0.723952 0.944984
C1_2 C 0.6568(7) 0.500000 0.5369(12)
O1_2 O 0.8804(4) 0.7669(6) 0.7647(7)
N8_2 N 0.7341(5) 0.500000 0.3256(9)
N9_2 N 0.6118(5) 0.500000 0.2381(8)
O4_2 O 0.8808(5) 0.7660(7) 0.4958(8)
O5_2 O 0.8172(4) 0.7934(6) 0.6807(7)
O8_2 O 0.8200(4) 0.7943(7) 0.4482(8)
N10_2 N 0.7336(6) 0.500000 0.6432(11)
C5_2 C 0.7129(6) 0.5447(9) 0.6105(11)
N12_2 N 0.7301(5) 0.6023(8) 0.3243(9)
N13_2 N 0.7304(5) 0.6076(8) 0.6384(10)
C6_2 C 0.7103(5) 0.5508(8) 0.3109(9)
C8_2 C 0.8458(7) 0.7575(10) 0.7306(11)
C9_2 C 0.7901(9) 0.6776(12) 0.6765(13)
C10_2 C 0.7708(7) 0.6270(13) 0.6892(15)
C11_2 C 0.7926(11) 0.5963(11) 0.760(2)
C12_2 C 0.8339(11) 0.6162(14) 0.8186(15)
C13_2 C 0.8532(7) 0.6668(14) 0.8058(16)
C14_2 C 0.8312(10) 0.6975(10) 0.7348(19)
C15_2 C 0.8466(6) 0.7503(9) 0.4590(11)
C17_2 C 0.6542(6) 0.500000 0.2744(11)
C18_2 C 0.9099(10) 0.6590(15) 0.4890(18)
C19_2 C 0.8977(11) 0.6864(15) 0.8714(19)
C34_2 C 0.8500(7) 0.5852(10) 0.4454(12)
C35_2 C 0.8083(9) 0.5693(7) 0.4049(12)
C36_2 C 0.7782(5) 0.6146(12) 0.3785(11)
C37_2 C 0.7898(7) 0.6759(10) 0.3927(11)
C38_2 C 0.8315(9) 0.6919(7) 0.4332(12)
C39_2 C 0.8615(5) 0.6465(12) 0.4596(11)
N15_2 N 0.6722(4) 0.4452(6) 0.5571(8)
O9_2 O 0.8804(4) 0.2331(6) 0.7647(7)
O10_2 O 0.8172(4) 0.2066(6) 0.6807(7)
C40_2 C 0.7129(6) 0.4553(9) 0.6105(11)
N16_2 N 0.7304(5) 0.3924(8) 0.6384(10)
C41_2 C 0.8458(7) 0.2425(10) 0.7306(11)
C42_2 C 0.7901(9) 0.3224(12) 0.6765(13)
C43_2 C 0.7708(7) 0.3730(13) 0.6892(15)
C44_2 C 0.7926(11) 0.4037(11) 0.760(2)
C45_2 C 0.8339(11) 0.3838(14) 0.8186(15)
C46_2 C 0.8532(7) 0.3332(14) 0.8058(16)
C47_2 C 0.8312(10) 0.3025(10) 0.7348(19)
C48_2 C 0.8977(11) 0.3136(15) 0.8714(19)
N17_2 N 0.6710(4) 0.4424(6) 0.2841(7)
O11_2 O 0.8808(5) 0.2340(7) 0.4958(8)
O12_2 O 0.8200(4) 0.2057(7) 0.4482(8)
N18_2 N 0.7301(5) 0.3977(8) 0.3243(9)
C49_2 C 0.7103(5) 0.4492(8) 0.3109(9)
C50_2 C 0.8466(6) 0.2497(9) 0.4590(11)
C51_2 C 0.9099(10) 0.3410(15) 0.4890(18)
C52_2 C 0.8500(7) 0.4148(10) 0.4454(12)
C53_2 C 0.8083(9) 0.4307(7) 0.4049(12)
C54_2 C 0.7782(5) 0.3854(12) 0.3785(11)
C55_2 C 0.7898(7) 0.3241(10) 0.3927(11)
C56_2 C 0.8315(9) 0.3081(7) 0.4332(12)
C57_2 C 0.8615(5) 0.3535(12) 0.4596(11)
Cd7_2 Cd 0.87515(4) 0.12784(5) 0.75294(7)
Cd8_2 Cd 0.62485(4) 0.37216(5) 0.24706(7)
Cd9_2 Cd 0.87515(4) 0.87216(5) 0.75294(7)
Cd10_2 Cd 0.87507(4) 0.12776(6) 0.49721(7)
Cd11_2 Cd 0.62493(4) 0.37224(6) 0.50279(7)
Cd12_2 Cd 0.87507(4) 0.87224(6) 0.49721(7)
H3_2 H 0.778062 0.558199 0.769461
H6_2 H 0.712433 0.639382 0.296409
H8_2 H 0.915124 0.643542 0.4474
H9_2 H 0.916514 0.707835 0.498847
H10_2 H 0.930185 0.633919 0.540266
H11_2 H 0.709114 0.641804 0.61644
H12_2 H 0.773694 0.700673 0.623098
H13_2 H 0.850299 0.593129 0.872003
H15_2 H 0.918854 0.647921 0.887155
H16_2 H 0.908304 0.724684 0.854095
H17_2 H 0.896825 0.700197 0.918476
H18_2 H 0.59638 0.459843 0.228163
H19_2 H 0.595956 0.540157 0.22127
H20_2 H 0.799251 0.52126 0.393886
H21_2 H 0.873574 0.549661 0.465924
H25_2 H 0.766234 0.711457 0.372114
H27_2 H 0.709114 0.358196 0.61644
H28_2 H 0.778062 0.441801 0.769461
H29_2 H 0.850299 0.406871 0.872003
H31_2 H 0.773694 0.299327 0.623098
H32_2 H 0.896825 0.299803 0.918476
H33_2 H 0.908304 0.275316 0.854095
H34_2 H 0.918854 0.352079 0.887155
H43_2 H 0.930185 0.366081 0.540266
H44_2 H 0.916514 0.292165 0.498847
H45_2 H 0.915124 0.356458 0.4474
H46_2 H 0.712433 0.360618 0.296409
H47_2 H 0.766234 0.288543 0.372114
H48_2 H 0.873574 0.450339 0.465924
H51_2 H 0.799251 0.47874 0.393886
O2_2 O 0.1297(5) 0.1332(5) 0.1460(8)
O6_2 O 0.0679(4) 0.1131(5) 0.1120(7)
C16_2 C 0.0932(7) 0.1327(9) 0.0963(12)
C24_2 C 0.1018(5) 0.1981(12) 0.0141(13)
C25_2 C 0.0806(7) 0.1506(11) 0.0216(9)
C26_2 C 0.1499(7) 0.2287(15) 0.0764(17)
H22_2 H 0.146759 0.277044 0.0847699
H23_2 H 0.164222 0.204482 0.128866
H24_2 H 0.169178 0.223952 0.0550161
O3_2 O 0.1309(5) 0.1346(6) 0.6143(8)
O7_2 O 0.0683(4) 0.1185(5) 0.5260(7)
C7_2 C 0.0951(7) 0.1335(9) 0.5866(12)
C20_2 C 0.0413(7) 0.1341(8) 0.9622(13)
C21_2 C 0.0232(5) 0.1651(10) 0.8954(10)
C22_2 C 0.0444(9) 0.2127(10) 0.8879(12)
C23_2 C 0.0836(8) 0.2291(9) 0.9472(18)
C27_2 C 0.0548(12) 0.1783(12) 0.7370(15)
C28_2 C 0.0261(7) 0.1543(12) 0.6630(18)
C29_2 C 0.0387(8) 0.1481(10) 0.6122(11)
C30_2 C 0.0802(9) 0.1659(11) 0.6353(16)
C31_2 C 0.1092(6) 0.1899(12) 0.7092(19)
C32_2 C 0.0964(10) 0.1961(11) 0.7601(12)
C33_2 C 0.1581(12) 0.1982(18) 0.729(2)
N19_2 N 0.1366(3) 0.1242(5) 0.3857(6)
C58_2 C 0.0981(2) 0.1274(4) 0.3490(5)
N20_2 N 0.0777(3) 0.1385(5) 0.2736(5)
C59_2 C 0.0361(3) 0.1543(5) 0.2321(4)
N21_2 N 0.0147(2) 0.1589(5) 0.2659(5)
C60_2 C 0.0351(3) 0.1478(5) 0.3412(6)
N22_2 N 0.0768(3) 0.1320(4) 0.3828(4)
N23_2 N 0.0172(5) 0.1538(8) 0.1598(9)
N24_2 N 0.0170(6) 0.1526(9) 0.3727(10)
N25_2 N 0.1134(4) -0.000000 0.4898(8)
N26_2 N 0.1722(4) 0.0548(6) 0.5571(8)
N27_2 N 0.1710(4) 0.0576(6) 0.2841(7)
H4_2 H 0.0302157 0.237025 0.835527
H5_2 H 0.100151 0.266347 0.941323
H14_2 H 0.0247286 0.0968832 0.968074
H26_2 H 0.0170955 0.130121 0.556767
H30_2 H 0.117979 0.214082 0.815542
H35_2 H 0.0452342 0.182962 0.775066
H36_2 H 0.157351 0.229802 0.689633
H37_2 H 0.178487 0.216252 0.784797
H38_2 H 0.169558 0.153824 0.725161
H39_2 H 0.160546 0.121559 0.43964
H40_2 H 0.0356431 0.143298 0.14208
H42_2 H 0.0346629 0.155541 0.428722
N25_3 N 0.1134(4) 1.000000 0.4898(8)
N1_2 N 0.8866(4) -0.000000 0.5102(8)
N2_2 N 0.8634(3) 0.1242(5) 0.6143(6)
C1_3 C 0.8432(7) -0.000000 0.4631(12)
N3_2 N 0.8278(4) 0.0548(6) 0.4429(8)
N4_2 N 0.8290(4) 0.0576(6) 0.7159(7)
C2_2 C 0.9019(2) 0.1274(4) 0.6510(5)
N5_2 N 0.9223(3) 0.1385(5) 0.7264(5)
C3_2 C 0.9639(3) 0.1543(5) 0.7679(4)
N6_2 N 0.9853(2) 0.1589(5) 0.7341(5)
C4_2 C 0.9649(3) 0.1478(5) 0.6588(6)
N7_2 N 0.9232(3) 0.1320(4) 0.6172(4)
O1_3 O 0.6196(4) 0.2669(6) 0.2353(7)
N8_3 N 0.7659(5) -0.000000 0.6744(9)
N9_3 N 0.8882(5) -0.000000 0.7619(8)
O4_3 O 0.6192(5) 0.2660(7) 0.5042(8)
O5_3 O 0.6828(4) 0.2934(6) 0.3193(7)
O8_3 O 0.6800(4) 0.2943(7) 0.5518(8)
N10_3 N 0.7664(6) -0.000000 0.3568(11)
C5_3 C 0.7871(6) 0.0447(9) 0.3895(11)
N11_2 N 0.9828(5) 0.1538(8) 0.8402(9)
N12_3 N 0.7699(5) 0.1023(8) 0.6757(9)
N13_3 N 0.7696(5) 0.1076(8) 0.3616(10)
N14_2 N 0.9830(6) 0.1526(9) 0.6273(10)
C6_3 C 0.7897(5) 0.0508(8) 0.6891(9)
C8_3 C 0.6542(7) 0.2575(10) 0.2694(11)
C9_3 C 0.7099(9) 0.1776(12) 0.3235(13)
C10_3 C 0.7292(7) 0.1270(13) 0.3108(15)
C11_3 C 0.7074(11) 0.0963(11) 0.240(2)
C12_3 C 0.6661(11) 0.1162(14) 0.1814(15)
C13_3 C 0.6468(7) 0.1668(14) 0.1942(16)
C14_3 C 0.6688(10) 0.1975(10) 0.2652(19)
C15_3 C 0.6534(6) 0.2503(9) 0.5410(11)
C17_3 C 0.8458(6) -0.000000 0.7256(11)
C18_3 C 0.5901(10) 0.1590(15) 0.5110(18)
C19_3 C 0.6023(11) 0.1864(15) 0.1286(19)
C34_3 C 0.6500(7) 0.0852(10) 0.5546(12)
C35_3 C 0.6917(9) 0.0693(7) 0.5951(12)
C36_3 C 0.7218(5) 0.1146(12) 0.6215(11)
C37_3 C 0.7102(7) 0.1759(10) 0.6073(11)
C38_3 C 0.6685(9) 0.1919(7) 0.5668(12)
C39_3 C 0.6385(5) 0.1465(12) 0.5404(11)
O14_2 O 0.8691(5) 0.1346(6) 0.3857(8)
O16_2 O 0.9317(4) 0.1185(5) 0.4740(7)
C61_2 C 0.9049(7) 0.1335(9) 0.4134(12)
C63_2 C 0.9587(7) 0.1341(8) 0.0378(13)
C64_2 C 0.9768(5) 0.1651(10) 0.1046(10)
C65_2 C 0.9556(9) 0.2127(10) 0.1121(12)
C66_2 C 0.9164(8) 0.2291(9) 0.0528(18)
C70_2 C 0.9452(12) 0.1783(12) 0.2630(15)
C71_2 C 0.9739(7) 0.1543(12) 0.3370(18)
C72_2 C 0.9613(8) 0.1481(10) 0.3878(11)
C73_2 C 0.9198(9) 0.1659(11) 0.3647(16)
C74_2 C 0.8908(6) 0.1899(12) 0.2908(19)
C75_2 C 0.9036(10) 0.1961(11) 0.2399(12)
C76_2 C 0.8419(12) 0.1982(18) 0.271(2)
O20_2 O 0.8703(5) 0.1332(5) 0.8540(8)
O26_2 O 0.9321(4) 0.1131(5) 0.8880(7)
H1_2 H 0.839454 0.121559 0.56036
H2_2 H 0.965337 0.155541 0.571278
H3_3 H 0.721938 0.0581987 0.230539
H6_3 H 0.787567 0.139382 0.703591
H7_2 H 0.964357 0.143298 0.85792
H8_3 H 0.584876 0.143542 0.5526
H9_3 H 0.583486 0.207835 0.501153
H10_3 H 0.569815 0.133919 0.459734
H11_3 H 0.790886 0.141804 0.38356
H12_3 H 0.726306 0.200673 0.376902
H13_3 H 0.649701 0.0931295 0.127997
H15_3 H 0.581146 0.147921 0.112845
H16_3 H 0.591696 0.224684 0.145905
H17_3 H 0.603175 0.200197 0.0815243
H19_3 H 0.904044 0.0401569 0.77873
H20_3 H 0.700749 0.0212603 0.606114
H21_3 H 0.626426 0.049661 0.534076
H25_3 H 0.733766 0.211457 0.627886
H41_2 H 0.899849 0.266347 0.0586773
H49_2 H 0.975271 0.0968832 0.0319262
H50_2 H 0.969784 0.237025 0.164473
H52_2 H 0.882021 0.214082 0.184458
H56_2 H 0.982905 0.130121 0.443233
H57_2 H 0.842649 0.229802 0.310367
H58_2 H 0.821513 0.216252 0.215203
H59_2 H 0.830442 0.153824 0.274839
H60_2 H 0.954766 0.182962 0.224934
C62_2 C 0.9068(7) 0.1327(9) 0.9037(12)
C67_2 C 0.8982(5) 0.1981(12) 0.9859(13)
C68_2 C 0.9194(7) 0.1506(11) 0.9784(9)
C69_2 C 0.8501(7) 0.2287(15) 0.9236(17)
H53_2 H 0.853241 0.277044 0.91523
H54_2 H 0.835778 0.204482 0.871134
H55_2 H 0.830822 0.223952 0.944984
N1_3 N 0.8866(4) 1.000000 0.5102(8)
C1_4 C 0.8432(7) 1.000000 0.4631(12)
N8_4 N 0.7659(5) 1.000000 0.6744(9)
N9_4 N 0.8882(5) 1.000000 0.7619(8)
N10_4 N 0.7664(6) 1.000000 0.3568(11)
C17_4 C 0.8458(6) 1.000000 0.7256(11)
N15_3 N 0.8278(4) 0.9452(6) 0.4429(8)
C40_3 C 0.7871(6) 0.9553(9) 0.3895(11)
N16_3 N 0.7696(5) 0.8924(8) 0.3616(10)
C41_3 C 0.6542(7) 0.7425(10) 0.2694(11)
C42_3 C 0.7099(9) 0.8224(12) 0.3235(13)
C43_3 C 0.7292(7) 0.8730(13) 0.3108(15)
C44_3 C 0.7074(11) 0.9037(11) 0.240(2)
C45_3 C 0.6661(11) 0.8838(14) 0.1814(15)
C46_3 C 0.6468(7) 0.8332(14) 0.1942(16)
C47_3 C 0.6688(10) 0.8025(10) 0.2652(19)
C48_3 C 0.6023(11) 0.8136(15) 0.1286(19)
N17_3 N 0.8290(4) 0.9424(6) 0.7159(7)
N18_3 N 0.7699(5) 0.8977(8) 0.6757(9)
C49_3 C 0.7897(5) 0.9492(8) 0.6891(9)
C50_3 C 0.6534(6) 0.7497(9) 0.5410(11)
C51_3 C 0.5901(10) 0.8410(15) 0.5110(18)
C52_3 C 0.6500(7) 0.9148(10) 0.5546(12)
C53_3 C 0.6917(9) 0.9307(7) 0.5951(12)
C54_3 C 0.7218(5) 0.8854(12) 0.6215(11)
C55_3 C 0.7102(7) 0.8241(10) 0.6073(11)
C56_3 C 0.6685(9) 0.8081(7) 0.5668(12)
C57_3 C 0.6385(5) 0.8535(12) 0.5404(11)
H18_3 H 0.90362 0.959843 0.771837
H27_3 H 0.790886 0.858196 0.38356
H28_3 H 0.721938 0.941801 0.230539
H29_3 H 0.649701 0.906871 0.127997
H31_3 H 0.726306 0.799327 0.376902
H32_3 H 0.603175 0.799803 0.0815243
H33_3 H 0.591696 0.775316 0.145905
H34_3 H 0.581146 0.852079 0.112845
H43_3 H 0.569815 0.866081 0.459734
H44_3 H 0.583486 0.792165 0.501153
H45_3 H 0.584876 0.856458 0.5526
H46_3 H 0.787567 0.860618 0.703591
H47_3 H 0.733766 0.788543 0.627886
H48_3 H 0.626426 0.950339 0.534076
H51_3 H 0.700749 0.97874 0.606114
C1_5 C 0.1568(7) -0.000000 0.5369(12)
O1_4 O 0.3804(4) 0.2669(6) 0.7647(7)
N8_5 N 0.2341(5) -0.000000 0.3256(9)
N9_5 N 0.1118(5) -0.000000 0.2381(8)
O4_4 O 0.3808(5) 0.2660(7) 0.4958(8)
O5_4 O 0.3172(4) 0.2934(6) 0.6807(7)
O8_4 O 0.3200(4) 0.2943(7) 0.4482(8)
N10_5 N 0.2336(6) -0.000000 0.6432(11)
C5_4 C 0.2129(6) 0.0447(9) 0.6105(11)
N12_4 N 0.2301(5) 0.1023(8) 0.3243(9)
N13_4 N 0.2304(5) 0.1076(8) 0.6384(10)
C6_4 C 0.2103(5) 0.0508(8) 0.3109(9)
C8_4 C 0.3458(7) 0.2575(10) 0.7306(11)
C9_4 C 0.2901(9) 0.1776(12) 0.6765(13)
C10_4 C 0.2708(7) 0.1270(13) 0.6892(15)
C11_4 C 0.2926(11) 0.0963(11) 0.760(2)
C12_4 C 0.3339(11) 0.1162(14) 0.8186(15)
C13_4 C 0.3532(7) 0.1668(14) 0.8058(16)
C14_4 C 0.3312(10) 0.1975(10) 0.7348(19)
C15_4 C 0.3466(6) 0.2503(9) 0.4590(11)
C17_5 C 0.1542(6) -0.000000 0.2744(11)
C18_4 C 0.4099(10) 0.1590(15) 0.4890(18)
C19_4 C 0.3977(11) 0.1864(15) 0.8714(19)
C34_4 C 0.3500(7) 0.0852(10) 0.4454(12)
C35_4 C 0.3083(9) 0.0693(7) 0.4049(12)
C36_4 C 0.2782(5) 0.1146(12) 0.3785(11)
C37_4 C 0.2898(7) 0.1759(10) 0.3927(11)
C38_4 C 0.3315(9) 0.1919(7) 0.4332(12)
C39_4 C 0.3615(5) 0.1465(12) 0.4596(11)
H3_4 H 0.278062 0.0581987 0.769461
H6_4 H 0.212433 0.139382 0.296409
H8_4 H 0.415124 0.143542 0.4474
H9_4 H 0.416514 0.207835 0.498847
H10_4 H 0.430185 0.133919 0.540266
H11_4 H 0.209114 0.141804 0.61644
H12_4 H 0.273694 0.200673 0.623098
H13_4 H 0.350299 0.0931295 0.872003
H15_4 H 0.418854 0.147921 0.887155
H16_4 H 0.408304 0.224684 0.854095
H17_4 H 0.396825 0.200197 0.918476
H19_4 H 0.0959555 0.0401569 0.22127
H20_4 H 0.299251 0.0212603 0.393886
H21_4 H 0.373574 0.049661 0.465924
H25_4 H 0.266234 0.211457 0.372114
C1_6 C 0.1568(7) 1.000000 0.5369(12)
N8_6 N 0.2341(5) 1.000000 0.3256(9)
N9_6 N 0.1118(5) 1.000000 0.2381(8)
N10_6 N 0.2336(6) 1.000000 0.6432(11)
C17_6 C 0.1542(6) 1.000000 0.2744(11)
N15_4 N 0.1722(4) 0.9452(6) 0.5571(8)
C40_4 C 0.2129(6) 0.9553(9) 0.6105(11)
N16_4 N 0.2304(5) 0.8924(8) 0.6384(10)
C41_4 C 0.3458(7) 0.7425(10) 0.7306(11)
C42_4 C 0.2901(9) 0.8224(12) 0.6765(13)
C43_4 C 0.2708(7) 0.8730(13) 0.6892(15)
C44_4 C 0.2926(11) 0.9037(11) 0.760(2)
C45_4 C 0.3339(11) 0.8838(14) 0.8186(15)
C46_4 C 0.3532(7) 0.8332(14) 0.8058(16)
C47_4 C 0.3312(10) 0.8025(10) 0.7348(19)
C48_4 C 0.3977(11) 0.8136(15) 0.8714(19)
N17_4 N 0.1710(4) 0.9424(6) 0.2841(7)
N18_4 N 0.2301(5) 0.8977(8) 0.3243(9)
C49_4 C 0.2103(5) 0.9492(8) 0.3109(9)
C50_4 C 0.3466(6) 0.7497(9) 0.4590(11)
C51_4 C 0.4099(10) 0.8410(15) 0.4890(18)
C52_4 C 0.3500(7) 0.9148(10) 0.4454(12)
C53_4 C 0.3083(9) 0.9307(7) 0.4049(12)
C54_4 C 0.2782(5) 0.8854(12) 0.3785(11)
C55_4 C 0.2898(7) 0.8241(10) 0.3927(11)
C56_4 C 0.3315(9) 0.8081(7) 0.4332(12)
C57_4 C 0.3615(5) 0.8535(12) 0.4596(11)
H18_4 H 0.0963801 0.959843 0.228163
H27_4 H 0.209114 0.858196 0.61644
H28_4 H 0.278062 0.941801 0.769461
H29_4 H 0.350299 0.906871 0.872003
H31_4 H 0.273694 0.799327 0.623098
H32_4 H 0.396825 0.799803 0.918476
H33_4 H 0.408304 0.775316 0.854095
H34_4 H 0.418854 0.852079 0.887155
H43_4 H 0.430185 0.866081 0.540266
H44_4 H 0.416514 0.792165 0.498847
H45_4 H 0.415124 0.856458 0.4474
H46_4 H 0.212433 0.860618 0.296409
H47_4 H 0.266234 0.788543 0.372114
H48_4 H 0.373574 0.950339 0.465924
H51_4 H 0.299251 0.97874 0.393886
O13 O 0.6297(5) 0.3668(5) 0.1460(8)
O15 O 0.5679(4) 0.3869(5) 0.1120(7)
C62_3 C 0.5932(7) 0.3673(9) 0.0963(12)
C67_3 C 0.6018(5) 0.3019(12) 0.0141(13)
C68_3 C 0.5806(7) 0.3494(11) 0.0216(9)
C69_3 C 0.6499(7) 0.2713(15) 0.0764(17)
H53_3 H 0.646759 0.222956 0.0847699
H54_3 H 0.664222 0.295518 0.128866
H55_3 H 0.669178 0.276048 0.0550161
N2_3 N 0.6366(3) 0.3758(5) 0.3857(6)
C2_3 C 0.5981(2) 0.3726(4) 0.3490(5)
N5_3 N 0.5777(3) 0.3615(5) 0.2736(5)
C3_3 C 0.5361(3) 0.3457(5) 0.2321(4)
N6_3 N 0.5147(2) 0.3411(5) 0.2659(5)
C4_3 C 0.5351(3) 0.3522(5) 0.3412(6)
N7_3 N 0.5768(3) 0.3680(4) 0.3828(4)
O3_3 O 0.3691(5) 0.3654(6) 0.3857(8)
O7_3 O 0.4317(4) 0.3815(5) 0.4740(7)
N11_3 N 0.5172(5) 0.3462(8) 0.1598(9)
N14_3 N 0.5170(6) 0.3474(9) 0.3727(10)
C7_3 C 0.4049(7) 0.3665(9) 0.4134(12)
C20_3 C 0.4587(7) 0.3659(8) 0.0378(13)
C21_3 C 0.4768(5) 0.3349(10) 0.1046(10)
C22_3 C 0.4556(9) 0.2873(10) 0.1121(12)
C23_3 C 0.4164(8) 0.2709(9) 0.0528(18)
C27_3 C 0.4452(12) 0.3217(12) 0.2630(15)
C28_3 C 0.4739(7) 0.3457(12) 0.3370(18)
C29_3 C 0.4613(8) 0.3519(10) 0.3878(11)
C30_3 C 0.4198(9) 0.3341(11) 0.3647(16)
C31_3 C 0.3908(6) 0.3101(12) 0.2908(19)
C32_3 C 0.4036(10) 0.3039(11) 0.2399(12)
C33_3 C 0.3419(12) 0.3018(18) 0.271(2)
N19_3 N 0.3634(3) 0.3758(5) 0.6143(6)
C58_3 C 0.4019(2) 0.3726(4) 0.6510(5)
N20_3 N 0.4223(3) 0.3615(5) 0.7264(5)
C59_3 C 0.4639(3) 0.3457(5) 0.7679(4)
N21_3 N 0.4853(2) 0.3411(5) 0.7341(5)
C60_3 C 0.4649(3) 0.3522(5) 0.6588(6)
N22_3 N 0.4232(3) 0.3680(4) 0.6172(4)
O14_3 O 0.6309(5) 0.3654(6) 0.6143(8)
O16_3 O 0.5683(4) 0.3815(5) 0.5260(7)
N23_3 N 0.4828(5) 0.3462(8) 0.8402(9)
N24_3 N 0.4830(6) 0.3474(9) 0.6273(10)
C61_3 C 0.5951(7) 0.3665(9) 0.5866(12)
C63_3 C 0.5413(7) 0.3659(8) 0.9622(13)
C64_3 C 0.5232(5) 0.3349(10) 0.8954(10)
C65_3 C 0.5444(9) 0.2873(10) 0.8879(12)
C66_3 C 0.5836(8) 0.2709(9) 0.9472(18)
C70_3 C 0.5548(12) 0.3217(12) 0.7370(15)
C71_3 C 0.5261(7) 0.3457(12) 0.6630(18)
C72_3 C 0.5387(8) 0.3519(10) 0.6122(11)
C73_3 C 0.5802(9) 0.3341(11) 0.6353(16)
C74_3 C 0.6092(6) 0.3101(12) 0.7092(19)
C75_3 C 0.5964(10) 0.3039(11) 0.7601(12)
C76_3 C 0.6581(12) 0.3018(18) 0.729(2)
O19 O 0.3703(5) 0.3668(5) 0.8540(8)
O25 O 0.4321(4) 0.3869(5) 0.8880(7)
H1_3 H 0.660546 0.378441 0.43964
H2_3 H 0.534663 0.344459 0.428722
H4_3 H 0.469784 0.262975 0.164473
H5_3 H 0.399849 0.233653 0.0586773
H7_3 H 0.535643 0.356702 0.14208
H14_3 H 0.475271 0.403117 0.0319262
H18_5 H 0.59638 0.540157 0.228163
H19_5 H 0.595956 0.459843 0.22127
H26_3 H 0.482905 0.369879 0.443233
H30_3 H 0.382021 0.285918 0.184458
H35_3 H 0.454766 0.317038 0.224934
H36_3 H 0.342649 0.270198 0.310367
H37_3 H 0.321513 0.283748 0.215203
H38_3 H 0.330442 0.346176 0.274839
H39_3 H 0.339454 0.378441 0.56036
H40_3 H 0.464357 0.356702 0.85792
H41_3 H 0.600151 0.233653 0.941323
H42_3 H 0.465337 0.344459 0.571278
H49_3 H 0.524729 0.403117 0.968074
H50_3 H 0.530216 0.262975 0.835527
H52_3 H 0.617979 0.285918 0.815542
H56_3 H 0.517095 0.369879 0.556767
H57_3 H 0.657351 0.270198 0.689633
H58_3 H 0.678487 0.283748 0.784797
H59_3 H 0.669558 0.346176 0.725161
H60_3 H 0.545234 0.317038 0.775066
C16_3 C 0.4068(7) 0.3673(9) 0.9037(12)
C24_3 C 0.3982(5) 0.3019(12) 0.9859(13)
C25_3 C 0.4194(7) 0.3494(11) 0.9784(9)
C26_3 C 0.3501(7) 0.2713(15) 0.9236(17)
H22_3 H 0.353241 0.222956 0.91523
H23_3 H 0.335778 0.295518 0.871134
H24_3 H 0.330822 0.276048 0.944984
H18_6 H 0.40362 0.540157 0.771837
H19_6 H 0.404044 0.459843 0.77873
H18_7 H 0.0963801 0.0401569 0.228163
O13_2 O 0.1297(5) 0.8668(5) 0.1460(8)
O15_2 O 0.0679(4) 0.8869(5) 0.1120(7)
C62_4 C 0.0932(7) 0.8673(9) 0.0963(12)
C67_4 C 0.1018(5) 0.8019(12) 0.0141(13)
C68_4 C 0.0806(7) 0.8494(11) 0.0216(9)
C69_4 C 0.1499(7) 0.7713(15) 0.0764(17)
H53_4 H 0.146759 0.722956 0.0847699
H54_4 H 0.164222 0.795518 0.128866
H55_4 H 0.169178 0.776048 0.0550161
N2_4 N 0.1366(3) 0.8758(5) 0.3857(6)
C2_4 C 0.0981(2) 0.8726(4) 0.3490(5)
N5_4 N 0.0777(3) 0.8615(5) 0.2736(5)
C3_4 C 0.0361(3) 0.8457(5) 0.2321(4)
N6_4 N 0.0147(2) 0.8411(5) 0.2659(5)
C4_4 C 0.0351(3) 0.8522(5) 0.3412(6)
N7_4 N 0.0768(3) 0.8680(4) 0.3828(4)
N11_4 N 0.0172(5) 0.8462(8) 0.1598(9)
N14_4 N 0.0170(6) 0.8474(9) 0.3727(10)
O14_4 O 0.1309(5) 0.8654(6) 0.6143(8)
O16_4 O 0.0683(4) 0.8815(5) 0.5260(7)
C61_4 C 0.0951(7) 0.8665(9) 0.5866(12)
C63_4 C 0.0413(7) 0.8659(8) 0.9622(13)
C64_4 C 0.0232(5) 0.8349(10) 0.8954(10)
C65_4 C 0.0444(9) 0.7873(10) 0.8879(12)
C66_4 C 0.0836(8) 0.7709(9) 0.9472(18)
C70_4 C 0.0548(12) 0.8217(12) 0.7370(15)
C71_4 C 0.0261(7) 0.8457(12) 0.6630(18)
C72_4 C 0.0387(8) 0.8519(10) 0.6122(11)
C73_4 C 0.0802(9) 0.8341(11) 0.6353(16)
C74_4 C 0.1092(6) 0.8101(12) 0.7092(19)
C75_4 C 0.0964(10) 0.8039(11) 0.7601(12)
C76_4 C 0.1581(12) 0.8018(18) 0.729(2)
H1_4 H 0.160546 0.878441 0.43964
H2_4 H 0.0346629 0.844459 0.428722
H7_4 H 0.0356431 0.856702 0.14208
H19_7 H 0.0959555 0.959843 0.22127
H41_4 H 0.100151 0.733653 0.941323
H49_4 H 0.0247286 0.903117 0.968074
H50_4 H 0.0302157 0.762975 0.835527
H52_4 H 0.117979 0.785918 0.815542
H56_4 H 0.0170955 0.869879 0.556767
H57_4 H 0.157351 0.770198 0.689633
H58_4 H 0.178487 0.783748 0.784797
H59_4 H 0.169558 0.846176 0.725161
H60_4 H 0.0452342 0.817038 0.775066
O3_4 O 0.8691(5) 0.8654(6) 0.3857(8)
O7_4 O 0.9317(4) 0.8815(5) 0.4740(7)
C7_4 C 0.9049(7) 0.8665(9) 0.4134(12)
C20_4 C 0.9587(7) 0.8659(8) 0.0378(13)
C21_4 C 0.9768(5) 0.8349(10) 0.1046(10)
C22_4 C 0.9556(9) 0.7873(10) 0.1121(12)
C23_4 C 0.9164(8) 0.7709(9) 0.0528(18)
C27_4 C 0.9452(12) 0.8217(12) 0.2630(15)
C28_4 C 0.9739(7) 0.8457(12) 0.3370(18)
C29_4 C 0.9613(8) 0.8519(10) 0.3878(11)
C30_4 C 0.9198(9) 0.8341(11) 0.3647(16)
C31_4 C 0.8908(6) 0.8101(12) 0.2908(19)
C32_4 C 0.9036(10) 0.8039(11) 0.2399(12)
C33_4 C 0.8419(12) 0.8018(18) 0.271(2)
N19_4 N 0.8634(3) 0.8758(5) 0.6143(6)
C58_4 C 0.9019(2) 0.8726(4) 0.6510(5)
N20_4 N 0.9223(3) 0.8615(5) 0.7264(5)
C59_4 C 0.9639(3) 0.8457(5) 0.7679(4)
N21_4 N 0.9853(2) 0.8411(5) 0.7341(5)
C60_4 C 0.9649(3) 0.8522(5) 0.6588(6)
N22_4 N 0.9232(3) 0.8680(4) 0.6172(4)
N23_4 N 0.9828(5) 0.8462(8) 0.8402(9)
N24_4 N 0.9830(6) 0.8474(9) 0.6273(10)
O19_2 O 0.8703(5) 0.8668(5) 0.8540(8)
O25_2 O 0.9321(4) 0.8869(5) 0.8880(7)
H4_4 H 0.969784 0.762975 0.164473
H5_4 H 0.899849 0.733653 0.0586773
H14_4 H 0.975271 0.903117 0.0319262
H26_4 H 0.982905 0.869879 0.443233
H30_4 H 0.882021 0.785918 0.184458
H35_4 H 0.954766 0.817038 0.224934
H36_4 H 0.842649 0.770198 0.310367
H37_4 H 0.821513 0.783748 0.215203
H38_4 H 0.830442 0.846176 0.274839
H39_4 H 0.839454 0.878441 0.56036
H40_4 H 0.964357 0.856702 0.85792
H42_4 H 0.965337 0.844459 0.571278
C16_4 C 0.9068(7) 0.8673(9) 0.9037(12)
C24_4 C 0.8982(5) 0.8019(12) 0.9859(13)
C25_4 C 0.9194(7) 0.8494(11) 0.9784(9)
C26_4 C 0.8501(7) 0.7713(15) 0.9236(17)
H22_4 H 0.853241 0.722956 0.91523
H23_4 H 0.835778 0.795518 0.871134
H24_4 H 0.830822 0.776048 0.944984
H18_8 H 0.90362 0.0401569 0.771837
H19_8 H 0.904044 0.959843 0.77873
loop_
_geom_bond_atom_site_label_1
_geom_bond_atom_site_label_2
_geom_bond_site_symmetry_1
_geom_bond_site_symmetry_2
O2 C16 1_555 1_555
O6 C16 1_555 1_555
C16 C25 1_555 1_555
C26 C24 1_555 1_555
Cd6 O2 1_555 1_555
O6 Cd6 1_555 1_555
C24 C25 1_555 1_555
C26 H22 1_555 1_555
C26 H23 1_555 1_555
C26 H24 1_555 1_555
Cd1 N2 1_555 1_555
Cd2 N1 1_555 1_555
N1 C1 1_555 1_555
N2 C2 1_555 1_555
C1 N3 1_555 1_555
N3 Cd2 1_555 1_555
N4 Cd1 1_555 1_555
C2 N5 1_555 1_555
N5 Cd1 1_555 1_555
C3 N5 1_555 1_555
N6 C3 1_555 1_555
C4 N6 1_555 1_555
N7 Cd2 1_555 1_555
O1 C8 1_555 1_555
N8 C6 1_555 1_555
N9 C17 1_555 1_555
O3 C7 1_555 1_555
O4 C15 1_555 1_555
O5 C8 1_555 1_555
O7 C7 1_555 1_555
O8 C15 1_555 1_555
N10 C5 1_555 1_555
C5 N3 1_555 1_555
N11 C3 1_555 1_555
N12 C6 1_555 1_555
N13 C5 1_555 1_555
N14 C4 1_555 1_555
C6 N4 1_555 1_555
C7 C30 1_555 1_555
C8 C14 1_555 1_555
C9 C10 1_555 1_555
C10 N13 1_555 1_555
C11 C10 1_555 1_555
C12 C11 1_555 1_555
C13 C12 1_555 1_555
C14 C9 1_555 1_555
C15 C38 1_555 1_555
C17 N4 1_555 1_555
C18 C39 1_555 1_555
C19 C13 1_555 1_555
C20 C21 1_555 1_555
C21 N11 1_555 1_555
C22 C21 1_555 1_555
C23 C22 1_555 1_555
C27 C28 1_555 1_555
C28 N14 1_555 1_555
C29 C28 1_555 1_555
C30 C29 1_555 1_555
C31 C30 1_555 1_555
C32 C27 1_555 1_555
C33 C31 1_555 1_555
C34 C35 1_555 1_555
C35 C36 1_555 1_555
C36 N12 1_555 1_555
C37 C36 1_555 1_555
C38 C37 1_555 1_555
C39 C34 1_555 1_555
N15 C1 1_555 1_555
O9 C41 1_555 1_555
O10 C41 1_555 1_555
C40 N10 1_555 1_555
N16 C40 1_555 1_555
C41 C47 1_555 1_555
C42 C43 1_555 1_555
C43 N16 1_555 1_555
C44 C43 1_555 1_555
C45 C44 1_555 1_555
C46 C45 1_555 1_555
C47 C42 1_555 1_555
C48 C46 1_555 1_555
N17 C17 1_555 1_555
O11 C50 1_555 1_555
O12 C50 1_555 1_555
N18 C49 1_555 1_555
C49 N8 1_555 1_555
C50 C56 1_555 1_555
C51 C57 1_555 1_555
C52 C53 1_555 1_555
C53 C54 1_555 1_555
C54 N18 1_555 1_555
C55 C54 1_555 1_555
C56 C55 1_555 1_555
C57 C52 1_555 1_555
Cd6 N19 1_555 1_555
Cd4 O3 1_555 1_555
N19 C58 1_555 1_555
C58 N20 1_555 1_555
N20 Cd6 1_555 1_555
C59 N20 1_555 1_555
N21 C59 1_555 1_555
C60 N21 1_555 1_555
N22 Cd4 1_555 1_555
O14 Cd2 1_555 1_555
O16 Cd2 1_555 1_555
N23 C59 1_555 1_555
N24 C60 1_555 1_555
C61 O14 1_555 1_555
C63 C64 1_555 1_555
C64 N23 1_555 1_555
C65 C64 1_555 1_555
C66 C65 1_555 1_555
C70 C71 1_555 1_555
C71 N24 1_555 1_555
C72 C71 1_555 1_555
C73 C61 1_555 1_555
C74 C73 1_555 1_555
C75 C70 1_555 1_555
C76 C74 1_555 1_555
Cd7 O9 1_555 1_555
Cd8 N17 1_555 1_555
Cd9 O1 1_555 1_555
Cd10 O11 1_555 1_555
Cd11 N1 1_555 1_555
Cd12 O4 1_555 1_555
N25 Cd4 1_555 1_555
N26 Cd4 1_555 1_555
N27 Cd6 1_555 1_555
O17 Cd1 1_555 1_555
O18 Cd6 1_555 1_555
O20 Cd1 1_555 1_555
O21 Cd2 1_555 1_555
O22 Cd4 1_555 1_555
O23 Cd1 1_555 1_555
O24 Cd6 1_555 1_555
O26 Cd1 1_555 1_555
O27 Cd2 1_555 1_555
O28 Cd4 1_555 1_555
C2 N7 1_555 1_555
C4 N7 1_555 1_555
O5 Cd9 1_555 1_555
O7 Cd4 1_555 1_555
O8 Cd12 1_555 1_555
C13 C14 1_555 1_555
C31 C32 1_555 1_555
C38 C39 1_555 1_555
N15 C40 1_555 1_555
N15 Cd11 1_555 1_555
O10 Cd7 1_555 1_555
C46 C47 1_555 1_555
N17 C49 1_555 1_555
O12 Cd10 1_555 1_555
C56 C57 1_555 1_555
C58 N22 1_555 1_555
C60 N22 1_555 1_555
O16 C61 1_555 1_555
C72 C73 1_555 1_555
C74 C75 1_555 1_555
N2 H1 1_555 1_555
N14 H2 1_555 1_555
C11 H3 1_555 1_555
C22 H4 1_555 1_555
C23 H5 1_555 1_555
N12 H6 1_555 1_555
N11 H7 1_555 1_555
C18 H8 1_555 1_555
C18 H9 1_555 1_555
C18 H10 1_555 1_555
N13 H11 1_555 1_555
C9 H12 1_555 1_555
C12 H13 1_555 1_555
C20 H14 1_555 1_555
C19 H15 1_555 1_555
C19 H16 1_555 1_555
C19 H17 1_555 1_555
N9 H18 1_555 1_555
N9 H19 1_555 1_555
C35 H20 1_555 1_555
C34 H21 1_555 1_555
C37 H25 1_555 1_555
C29 H26 1_555 1_555
N16 H27 1_555 1_555
C44 H28 1_555 1_555
C45 H29 1_555 1_555
C32 H30 1_555 1_555
C42 H31 1_555 1_555
C48 H32 1_555 1_555
C48 H33 1_555 1_555
C48 H34 1_555 1_555
C27 H35 1_555 1_555
C33 H36 1_555 1_555
C33 H37 1_555 1_555
C33 H38 1_555 1_555
N19 H39 1_555 1_555
N23 H40 1_555 1_555
C66 H41 1_555 1_555
N24 H42 1_555 1_555
C51 H43 1_555 1_555
C51 H44 1_555 1_555
C51 H45 1_555 1_555
N18 H46 1_555 1_555
C55 H47 1_555 1_555
C52 H48 1_555 1_555
C63 H49 1_555 1_555
C65 H50 1_555 1_555
C53 H51 1_555 1_555
C75 H52 1_555 1_555
C72 H56 1_555 1_555
C76 H57 1_555 1_555
C76 H58 1_555 1_555
C76 H59 1_555 1_555
C70 H60 1_555 1_555
O20 C62 1_555 1_555
O26 C62 1_555 1_555
C62 C68 1_555 1_555
C69 C67 1_555 1_555
C67 C68 1_555 1_555
C69 H53 1_555 1_555
C69 H54 1_555 1_555
C69 H55 1_555 1_555
N25 C1_2 1_555 1_555
C1_2 N26 1_555 1_555
O1_2 C8_2 1_555 1_555
N8_2 C6_2 1_555 1_555
N9_2 C17_2 1_555 1_555
O4_2 C15_2 1_555 1_555
O5_2 C8_2 1_555 1_555
O8_2 C15_2 1_555 1_555
N10_2 C5_2 1_555 1_555
C5_2 N26 1_555 1_555
N12_2 C6_2 1_555 1_555
N13_2 C5_2 1_555 1_555
C6_2 N27 1_555 1_555
C8_2 C14_2 1_555 1_555
C9_2 C10_2 1_555 1_555
C10_2 N13_2 1_555 1_555
C11_2 C10_2 1_555 1_555
C12_2 C11_2 1_555 1_555
C13_2 C12_2 1_555 1_555
C14_2 C9_2 1_555 1_555
C15_2 C38_2 1_555 1_555
C17_2 N27 1_555 1_555
C18_2 C39_2 1_555 1_555
C19_2 C13_2 1_555 1_555
C34_2 C35_2 1_555 1_555
C35_2 C36_2 1_555 1_555
C36_2 N12_2 1_555 1_555
C37_2 C36_2 1_555 1_555
C38_2 C37_2 1_555 1_555
C39_2 C34_2 1_555 1_555
N15_2 C1_2 1_555 1_555
O9_2 C41_2 1_555 1_555
O10_2 C41_2 1_555 1_555
C40_2 N10_2 1_555 1_555
N16_2 C40_2 1_555 1_555
C41_2 C47_2 1_555 1_555
C42_2 C43_2 1_555 1_555
C43_2 N16_2 1_555 1_555
C44_2 C43_2 1_555 1_555
C45_2 C44_2 1_555 1_555
C46_2 C45_2 1_555 1_555
C47_2 C42_2 1_555 1_555
C48_2 C46_2 1_555 1_555
N17_2 C17_2 1_555 1_555
O11_2 C50_2 1_555 1_555
O12_2 C50_2 1_555 1_555
N18_2 C49_2 1_555 1_555
C49_2 N8_2 1_555 1_555
C50_2 C56_2 1_555 1_555
C51_2 C57_2 1_555 1_555
C52_2 C53_2 1_555 1_555
C53_2 C54_2 1_555 1_555
C54_2 N18_2 1_555 1_555
C55_2 C54_2 1_555 1_555
C56_2 C55_2 1_555 1_555
C57_2 C52_2 1_555 1_555
Cd7_2 O9_2 1_555 1_555
Cd8_2 N17_2 1_555 1_555
Cd9_2 O1_2 1_555 1_555
Cd10_2 O11_2 1_555 1_555
Cd11_2 N25 1_555 1_555
Cd12_2 O4_2 1_555 1_555
O5_2 Cd9_2 1_555 1_555
O8_2 Cd12_2 1_555 1_555
C13_2 C14_2 1_555 1_555
C38_2 C39_2 1_555 1_555
N15_2 C40_2 1_555 1_555
N15_2 Cd11_2 1_555 1_555
O10_2 Cd7_2 1_555 1_555
C46_2 C47_2 1_555 1_555
N17_2 C49_2 1_555 1_555
O12_2 Cd10_2 1_555 1_555
C56_2 C57_2 1_555 1_555
C11_2 H3_2 1_555 1_555
N12_2 H6_2 1_555 1_555
C18_2 H8_2 1_555 1_555
C18_2 H9_2 1_555 1_555
C18_2 H10_2 1_555 1_555
N13_2 H11_2 1_555 1_555
C9_2 H12_2 1_555 1_555
C12_2 H13_2 1_555 1_555
C19_2 H15_2 1_555 1_555
C19_2 H16_2 1_555 1_555
C19_2 H17_2 1_555 1_555
N9_2 H18_2 1_555 1_555
N9_2 H19_2 1_555 1_555
C35_2 H20_2 1_555 1_555
C34_2 H21_2 1_555 1_555
C37_2 H25_2 1_555 1_555
N16_2 H27_2 1_555 1_555
C44_2 H28_2 1_555 1_555
C45_2 H29_2 1_555 1_555
C42_2 H31_2 1_555 1_555
C48_2 H32_2 1_555 1_555
C48_2 H33_2 1_555 1_555
C48_2 H34_2 1_555 1_555
C51_2 H43_2 1_555 1_555
C51_2 H44_2 1_555 1_555
C51_2 H45_2 1_555 1_555
N18_2 H46_2 1_555 1_555
C55_2 H47_2 1_555 1_555
C52_2 H48_2 1_555 1_555
C53_2 H51_2 1_555 1_555
O2_2 C16_2 1_555 1_555
O6_2 C16_2 1_555 1_555
C16_2 C25_2 1_555 1_555
C26_2 C24_2 1_555 1_555
Cd7 O2_2 1_555 1_555
O6_2 Cd7 1_555 1_555
C24_2 C25_2 1_555 1_555
C26_2 H22_2 1_555 1_555
C26_2 H23_2 1_555 1_555
C26_2 H24_2 1_555 1_555
O3_2 C7_2 1_555 1_555
O7_2 C7_2 1_555 1_555
C7_2 C30_2 1_555 1_555
C20_2 C21_2 1_555 1_555
C22_2 C21_2 1_555 1_555
C23_2 C22_2 1_555 1_555
C27_2 C28_2 1_555 1_555
C29_2 C28_2 1_555 1_555
C30_2 C29_2 1_555 1_555
C31_2 C30_2 1_555 1_555
C32_2 C27_2 1_555 1_555
C33_2 C31_2 1_555 1_555
Cd7 N19_2 1_555 1_555
Cd10 O3_2 1_555 1_555
N19_2 C58_2 1_555 1_555
C58_2 N20_2 1_555 1_555
N20_2 Cd7 1_555 1_555
C59_2 N20_2 1_555 1_555
N21_2 C59_2 1_555 1_555
C60_2 N21_2 1_555 1_555
N22_2 Cd10 1_555 1_555
N23_2 C59_2 1_555 1_555
N24_2 C60_2 1_555 1_555
N25_2 Cd10 1_555 1_555
N26_2 Cd10 1_555 1_555
N27_2 Cd7 1_555 1_555
O7_2 Cd10 1_555 1_555
C31_2 C32_2 1_555 1_555
C58_2 N22_2 1_555 1_555
C60_2 N22_2 1_555 1_555
C22_2 H4_2 1_555 1_555
C23_2 H5_2 1_555 1_555
C20_2 H14_2 1_555 1_555
C29_2 H26_2 1_555 1_555
C32_2 H30_2 1_555 1_555
C27_2 H35_2 1_555 1_555
C33_2 H36_2 1_555 1_555
C33_2 H37_2 1_555 1_555
C33_2 H38_2 1_555 1_555
N19_2 H39_2 1_555 1_555
N23_2 H40_2 1_555 1_555
N24_2 H42_2 1_555 1_555
Cd7_2 N2_2 1_555 1_555
Cd10_2 N1_2 1_555 1_555
N1_2 C1_3 1_555 1_555
N2_2 C2_2 1_555 1_555
C1_3 N3_2 1_555 1_555
N3_2 Cd10_2 1_555 1_555
N4_2 Cd7_2 1_555 1_555
C2_2 N5_2 1_555 1_555
N5_2 Cd7_2 1_555 1_555
C3_2 N5_2 1_555 1_555
N6_2 C3_2 1_555 1_555
C4_2 N6_2 1_555 1_555
N7_2 Cd10_2 1_555 1_555
O1_3 C8_3 1_555 1_555
N8_3 C6_3 1_555 1_555
N9_3 C17_3 1_555 1_555
O4_3 C15_3 1_555 1_555
O5_3 C8_3 1_555 1_555
O8_3 C15_3 1_555 1_555
N10_3 C5_3 1_555 1_555
C5_3 N3_2 1_555 1_555
N11_2 C3_2 1_555 1_555
N12_3 C6_3 1_555 1_555
N13_3 C5_3 1_555 1_555
N14_2 C4_2 1_555 1_555
C6_3 N4_2 1_555 1_555
C8_3 C14_3 1_555 1_555
C9_3 C10_3 1_555 1_555
C10_3 N13_3 1_555 1_555
C11_3 C10_3 1_555 1_555
C12_3 C11_3 1_555 1_555
C13_3 C12_3 1_555 1_555
C14_3 C9_3 1_555 1_555
C15_3 C38_3 1_555 1_555
C17_3 N4_2 1_555 1_555
C18_3 C39_3 1_555 1_555
C19_3 C13_3 1_555 1_555
C34_3 C35_3 1_555 1_555
C35_3 C36_3 1_555 1_555
C36_3 N12_3 1_555 1_555
C37_3 C36_3 1_555 1_555
C38_3 C37_3 1_555 1_555
C39_3 C34_3 1_555 1_555
O14_2 Cd10_2 1_555 1_555
O16_2 Cd10_2 1_555 1_555
C61_2 O14_2 1_555 1_555
C63_2 C64_2 1_555 1_555
C65_2 C64_2 1_555 1_555
C66_2 C65_2 1_555 1_555
C70_2 C71_2 1_555 1_555
C72_2 C71_2 1_555 1_555
C73_2 C61_2 1_555 1_555
C74_2 C73_2 1_555 1_555
C75_2 C70_2 1_555 1_555
C76_2 C74_2 1_555 1_555
Cd8_2 O1_3 1_555 1_555
Cd11_2 O4_3 1_555 1_555
O20_2 Cd7_2 1_555 1_555
O26_2 Cd7_2 1_555 1_555
C2_2 N7_2 1_555 1_555
C4_2 N7_2 1_555 1_555
O5_3 Cd8_2 1_555 1_555
O8_3 Cd11_2 1_555 1_555
C13_3 C14_3 1_555 1_555
C38_3 C39_3 1_555 1_555
O16_2 C61_2 1_555 1_555
C72_2 C73_2 1_555 1_555
C74_2 C75_2 1_555 1_555
N2_2 H1_2 1_555 1_555
N14_2 H2_2 1_555 1_555
C11_3 H3_3 1_555 1_555
N12_3 H6_3 1_555 1_555
N11_2 H7_2 1_555 1_555
C18_3 H8_3 1_555 1_555
C18_3 H9_3 1_555 1_555
C18_3 H10_3 1_555 1_555
N13_3 H11_3 1_555 1_555
C9_3 H12_3 1_555 1_555
C12_3 H13_3 1_555 1_555
C19_3 H15_3 1_555 1_555
C19_3 H16_3 1_555 1_555
C19_3 H17_3 1_555 1_555
N9_3 H19_3 1_555 1_555
C35_3 H20_3 1_555 1_555
C34_3 H21_3 1_555 1_555
C37_3 H25_3 1_555 1_555
C66_2 H41_2 1_555 1_555
C63_2 H49_2 1_555 1_555
C65_2 H50_2 1_555 1_555
C75_2 H52_2 1_555 1_555
C72_2 H56_2 1_555 1_555
C76_2 H57_2 1_555 1_555
C76_2 H58_2 1_555 1_555
C76_2 H59_2 1_555 1_555
C70_2 H60_2 1_555 1_555
O20_2 C62_2 1_555 1_555
O26_2 C62_2 1_555 1_555
C62_2 C68_2 1_555 1_555
C69_2 C67_2 1_555 1_555
C67_2 C68_2 1_555 1_555
C69_2 H53_2 1_555 1_555
C69_2 H54_2 1_555 1_555
C69_2 H55_2 1_555 1_555
N1_3 C1_4 1_555 1_555
N9_4 C17_4 1_555 1_555
N15_3 C1_4 1_555 1_555
O18 C41_3 1_555 1_555
O24 C41_3 1_555 1_555
C40_3 N10_4 1_555 1_555
N16_3 C40_3 1_555 1_555
C41_3 C47_3 1_555 1_555
C42_3 C43_3 1_555 1_555
C43_3 N16_3 1_555 1_555
C44_3 C43_3 1_555 1_555
C45_3 C44_3 1_555 1_555
C46_3 C45_3 1_555 1_555
C47_3 C42_3 1_555 1_555
C48_3 C46_3 1_555 1_555
N17_3 C17_4 1_555 1_555
O22 C50_3 1_555 1_555
O28 C50_3 1_555 1_555
N18_3 C49_3 1_555 1_555
C49_3 N8_4 1_555 1_555
C50_3 C56_3 1_555 1_555
C51_3 C57_3 1_555 1_555
C52_3 C53_3 1_555 1_555
C53_3 C54_3 1_555 1_555
C54_3 N18_3 1_555 1_555
C55_3 C54_3 1_555 1_555
C56_3 C55_3 1_555 1_555
C57_3 C52_3 1_555 1_555
Cd9_2 N17_3 1_555 1_555
Cd12_2 N1_3 1_555 1_555
N15_3 C40_3 1_555 1_555
N15_3 Cd12_2 1_555 1_555
C46_3 C47_3 1_555 1_555
N17_3 C49_3 1_555 1_555
C56_3 C57_3 1_555 1_555
N9_4 H18_3 1_555 1_555
N16_3 H27_3 1_555 1_555
C44_3 H28_3 1_555 1_555
C45_3 H29_3 1_555 1_555
C42_3 H31_3 1_555 1_555
C48_3 H32_3 1_555 1_555
C48_3 H33_3 1_555 1_555
C48_3 H34_3 1_555 1_555
C51_3 H43_3 1_555 1_555
C51_3 H44_3 1_555 1_555
C51_3 H45_3 1_555 1_555
N18_3 H46_3 1_555 1_555
C55_3 H47_3 1_555 1_555
C52_3 H48_3 1_555 1_555
C53_3 H51_3 1_555 1_555
N25_2 C1_5 1_555 1_555
C1_5 N26_2 1_555 1_555
O1_4 C8_4 1_555 1_555
N8_5 C6_4 1_555 1_555
N9_5 C17_5 1_555 1_555
O4_4 C15_4 1_555 1_555
O5_4 C8_4 1_555 1_555
O8_4 C15_4 1_555 1_555
N10_5 C5_4 1_555 1_555
C5_4 N26_2 1_555 1_555
N12_4 C6_4 1_555 1_555
N13_4 C5_4 1_555 1_555
C6_4 N27_2 1_555 1_555
C8_4 C14_4 1_555 1_555
C9_4 C10_4 1_555 1_555
C10_4 N13_4 1_555 1_555
C11_4 C10_4 1_555 1_555
C12_4 C11_4 1_555 1_555
C13_4 C12_4 1_555 1_555
C14_4 C9_4 1_555 1_555
C15_4 C38_4 1_555 1_555
C17_5 N27_2 1_555 1_555
C18_4 C39_4 1_555 1_555
C19_4 C13_4 1_555 1_555
C34_4 C35_4 1_555 1_555
C35_4 C36_4 1_555 1_555
C36_4 N12_4 1_555 1_555
C37_4 C36_4 1_555 1_555
C38_4 C37_4 1_555 1_555
C39_4 C34_4 1_555 1_555
Cd8 O1_4 1_555 1_555
Cd11 O4_4 1_555 1_555
O5_4 Cd8 1_555 1_555
O8_4 Cd11 1_555 1_555
C13_4 C14_4 1_555 1_555
C38_4 C39_4 1_555 1_555
C11_4 H3_4 1_555 1_555
N12_4 H6_4 1_555 1_555
C18_4 H8_4 1_555 1_555
C18_4 H9_4 1_555 1_555
C18_4 H10_4 1_555 1_555
N13_4 H11_4 1_555 1_555
C9_4 H12_4 1_555 1_555
C12_4 H13_4 1_555 1_555
C19_4 H15_4 1_555 1_555
C19_4 H16_4 1_555 1_555
C19_4 H17_4 1_555 1_555
N9_5 H19_4 1_555 1_555
C35_4 H20_4 1_555 1_555
C34_4 H21_4 1_555 1_555
C37_4 H25_4 1_555 1_555
N25_3 C1_6 1_555 1_555
N9_6 C17_6 1_555 1_555
N15_4 C1_6 1_555 1_555
O17 C41_4 1_555 1_555
O23 C41_4 1_555 1_555
C40_4 N10_6 1_555 1_555
N16_4 C40_4 1_555 1_555
C41_4 C47_4 1_555 1_555
C42_4 C43_4 1_555 1_555
C43_4 N16_4 1_555 1_555
C44_4 C43_4 1_555 1_555
C45_4 C44_4 1_555 1_555
C46_4 C45_4 1_555 1_555
C47_4 C42_4 1_555 1_555
C48_4 C46_4 1_555 1_555
N17_4 C17_6 1_555 1_555
O21 C50_4 1_555 1_555
O27 C50_4 1_555 1_555
N18_4 C49_4 1_555 1_555
C49_4 N8_6 1_555 1_555
C50_4 C56_4 1_555 1_555
C51_4 C57_4 1_555 1_555
C52_4 C53_4 1_555 1_555
C53_4 C54_4 1_555 1_555
C54_4 N18_4 1_555 1_555
C55_4 C54_4 1_555 1_555
C56_4 C55_4 1_555 1_555
C57_4 C52_4 1_555 1_555
Cd9 N17_4 1_555 1_555
Cd12 N25_3 1_555 1_555
N15_4 C40_4 1_555 1_555
N15_4 Cd12 1_555 1_555
C46_4 C47_4 1_555 1_555
N17_4 C49_4 1_555 1_555
C56_4 C57_4 1_555 1_555
N9_6 H18_4 1_555 1_555
N16_4 H27_4 1_555 1_555
C44_4 H28_4 1_555 1_555
C45_4 H29_4 1_555 1_555
C42_4 H31_4 1_555 1_555
C48_4 H32_4 1_555 1_555
C48_4 H33_4 1_555 1_555
C48_4 H34_4 1_555 1_555
C51_4 H43_4 1_555 1_555
C51_4 H44_4 1_555 1_555
C51_4 H45_4 1_555 1_555
N18_4 H46_4 1_555 1_555
C55_4 H47_4 1_555 1_555
C52_4 H48_4 1_555 1_555
C53_4 H51_4 1_555 1_555
O13 C62_3 1_555 1_555
O15 C62_3 1_555 1_555
C62_3 C68_3 1_555 1_555
C69_3 C67_3 1_555 1_555
Cd8_2 O13 1_555 1_555
O15 Cd8_2 1_555 1_555
C67_3 C68_3 1_555 1_555
C69_3 H53_3 1_555 1_555
C69_3 H54_3 1_555 1_555
C69_3 H55_3 1_555 1_555
Cd8_2 N2_3 1_555 1_555
N2_3 C2_3 1_555 1_555
C2_3 N5_3 1_555 1_555
N5_3 Cd8_2 1_555 1_555
C3_3 N5_3 1_555 1_555
N6_3 C3_3 1_555 1_555
C4_3 N6_3 1_555 1_555
N7_3 Cd11_2 1_555 1_555
O3_3 C7_3 1_555 1_555
O7_3 C7_3 1_555 1_555
N11_3 C3_3 1_555 1_555
N14_3 C4_3 1_555 1_555
C7_3 C30_3 1_555 1_555
C20_3 C21_3 1_555 1_555
C21_3 N11_3 1_555 1_555
C22_3 C21_3 1_555 1_555
C23_3 C22_3 1_555 1_555
C27_3 C28_3 1_555 1_555
C28_3 N14_3 1_555 1_555
C29_3 C28_3 1_555 1_555
C30_3 C29_3 1_555 1_555
C31_3 C30_3 1_555 1_555
C32_3 C27_3 1_555 1_555
C33_3 C31_3 1_555 1_555
Cd8 N19_3 1_555 1_555
Cd11 O3_3 1_555 1_555
N19_3 C58_3 1_555 1_555
C58_3 N20_3 1_555 1_555
N20_3 Cd8 1_555 1_555
C59_3 N20_3 1_555 1_555
N21_3 C59_3 1_555 1_555
C60_3 N21_3 1_555 1_555
N22_3 Cd11 1_555 1_555
O14_3 Cd11_2 1_555 1_555
O16_3 Cd11_2 1_555 1_555
N23_3 C59_3 1_555 1_555
N24_3 C60_3 1_555 1_555
C61_3 O14_3 1_555 1_555
C63_3 C64_3 1_555 1_555
C64_3 N23_3 1_555 1_555
C65_3 C64_3 1_555 1_555
C66_3 C65_3 1_555 1_555
C70_3 C71_3 1_555 1_555
C71_3 N24_3 1_555 1_555
C72_3 C71_3 1_555 1_555
C73_3 C61_3 1_555 1_555
C74_3 C73_3 1_555 1_555
C75_3 C70_3 1_555 1_555
C76_3 C74_3 1_555 1_555
O19 Cd8 1_555 1_555
O25 Cd8 1_555 1_555
C2_3 N7_3 1_555 1_555
C4_3 N7_3 1_555 1_555
O7_3 Cd11 1_555 1_555
C31_3 C32_3 1_555 1_555
C58_3 N22_3 1_555 1_555
C60_3 N22_3 1_555 1_555
O16_3 C61_3 1_555 1_555
C72_3 C73_3 1_555 1_555
C74_3 C75_3 1_555 1_555
N2_3 H1_3 1_555 1_555
N14_3 H2_3 1_555 1_555
C22_3 H4_3 1_555 1_555
C23_3 H5_3 1_555 1_555
N11_3 H7_3 1_555 1_555
C20_3 H14_3 1_555 1_555
N9_2 H18_5 1_555 1_555
N9_2 H19_5 1_555 1_555
C29_3 H26_3 1_555 1_555
C32_3 H30_3 1_555 1_555
C27_3 H35_3 1_555 1_555
C33_3 H36_3 1_555 1_555
C33_3 H37_3 1_555 1_555
C33_3 H38_3 1_555 1_555
N19_3 H39_3 1_555 1_555
N23_3 H40_3 1_555 1_555
C66_3 H41_3 1_555 1_555
N24_3 H42_3 1_555 1_555
C63_3 H49_3 1_555 1_555
C65_3 H50_3 1_555 1_555
C75_3 H52_3 1_555 1_555
C72_3 H56_3 1_555 1_555
C76_3 H57_3 1_555 1_555
C76_3 H58_3 1_555 1_555
C76_3 H59_3 1_555 1_555
C70_3 H60_3 1_555 1_555
O19 C16_3 1_555 1_555
O25 C16_3 1_555 1_555
C16_3 C25_3 1_555 1_555
C26_3 C24_3 1_555 1_555
C24_3 C25_3 1_555 1_555
C26_3 H22_3 1_555 1_555
C26_3 H23_3 1_555 1_555
C26_3 H24_3 1_555 1_555
N9 H18_6 1_555 1_555
N9 H19_6 1_555 1_555
N9_5 H18_7 1_555 1_555
O13_2 C62_4 1_555 1_555
O15_2 C62_4 1_555 1_555
C62_4 C68_4 1_555 1_555
C69_4 C67_4 1_555 1_555
Cd9 O13_2 1_555 1_555
O15_2 Cd9 1_555 1_555
C67_4 C68_4 1_555 1_555
C69_4 H53_4 1_555 1_555
C69_4 H54_4 1_555 1_555
C69_4 H55_4 1_555 1_555
Cd9 N2_4 1_555 1_555
N2_4 C2_4 1_555 1_555
C2_4 N5_4 1_555 1_555
N5_4 Cd9 1_555 1_555
C3_4 N5_4 1_555 1_555
N6_4 C3_4 1_555 1_555
C4_4 N6_4 1_555 1_555
N7_4 Cd12 1_555 1_555
N11_4 C3_4 1_555 1_555
N14_4 C4_4 1_555 1_555
O14_4 Cd12 1_555 1_555
O16_4 Cd12 1_555 1_555
C61_4 O14_4 1_555 1_555
C63_4 C64_4 1_555 1_555
C65_4 C64_4 1_555 1_555
C66_4 C65_4 1_555 1_555
C70_4 C71_4 1_555 1_555
C72_4 C71_4 1_555 1_555
C73_4 C61_4 1_555 1_555
C74_4 C73_4 1_555 1_555
C75_4 C70_4 1_555 1_555
C76_4 C74_4 1_555 1_555
C2_4 N7_4 1_555 1_555
C4_4 N7_4 1_555 1_555
O16_4 C61_4 1_555 1_555
C72_4 C73_4 1_555 1_555
C74_4 C75_4 1_555 1_555
N2_4 H1_4 1_555 1_555
N14_4 H2_4 1_555 1_555
N11_4 H7_4 1_555 1_555
N9_6 H19_7 1_555 1_555
C66_4 H41_4 1_555 1_555
C63_4 H49_4 1_555 1_555
C65_4 H50_4 1_555 1_555
C75_4 H52_4 1_555 1_555
C72_4 H56_4 1_555 1_555
C76_4 H57_4 1_555 1_555
C76_4 H58_4 1_555 1_555
C76_4 H59_4 1_555 1_555
C70_4 H60_4 1_555 1_555
O3_4 C7_4 1_555 1_555
O7_4 C7_4 1_555 1_555
C7_4 C30_4 1_555 1_555
C20_4 C21_4 1_555 1_555
C22_4 C21_4 1_555 1_555
C23_4 C22_4 1_555 1_555
C27_4 C28_4 1_555 1_555
C29_4 C28_4 1_555 1_555
C30_4 C29_4 1_555 1_555
C31_4 C30_4 1_555 1_555
C32_4 C27_4 1_555 1_555
C33_4 C31_4 1_555 1_555
Cd9_2 N19_4 1_555 1_555
Cd12_2 O3_4 1_555 1_555
N19_4 C58_4 1_555 1_555
C58_4 N20_4 1_555 1_555
N20_4 Cd9_2 1_555 1_555
C59_4 N20_4 1_555 1_555
N21_4 C59_4 1_555 1_555
C60_4 N21_4 1_555 1_555
N22_4 Cd12_2 1_555 1_555
N23_4 C59_4 1_555 1_555
N24_4 C60_4 1_555 1_555
O19_2 Cd9_2 1_555 1_555
O25_2 Cd9_2 1_555 1_555
O7_4 Cd12_2 1_555 1_555
C31_4 C32_4 1_555 1_555
C58_4 N22_4 1_555 1_555
C60_4 N22_4 1_555 1_555
C22_4 H4_4 1_555 1_555
C23_4 H5_4 1_555 1_555
C20_4 H14_4 1_555 1_555
C29_4 H26_4 1_555 1_555
C32_4 H30_4 1_555 1_555
C27_4 H35_4 1_555 1_555
C33_4 H36_4 1_555 1_555
C33_4 H37_4 1_555 1_555
C33_4 H38_4 1_555 1_555
N19_4 H39_4 1_555 1_555
N23_4 H40_4 1_555 1_555
N24_4 H42_4 1_555 1_555
O19_2 C16_4 1_555 1_555
O25_2 C16_4 1_555 1_555
C16_4 C25_4 1_555 1_555
C26_4 C24_4 1_555 1_555
C24_4 C25_4 1_555 1_555
C26_4 H22_4 1_555 1_555
C26_4 H23_4 1_555 1_555
C26_4 H24_4 1_555 1_555
N9_3 H18_8 1_555 1_555
N9_4 H19_8 1_555 1_555

#END
