
###############################################################################
#
# This file contains modified crystal structure data generated from the
# MOF subset of the Cambridge Structural Database (CSD) v543 
# hosted by the Cambridge Crystallographic Data Centre (CCDC).
#
# This work is licensed under the Creative Commons
# Attribution-NonCommercial-ShareAlike 4.0 International License.
# To view a copy of this license, visit
# http://creativecommons.org/licenses/by-nc-sa/4.0/
# or send a letter to
# Creative Commons, PO Box 1866, Mountain View, CA 94042, USA.
#
# CIF created using the CSD Python API on 29 September 2022
# The structure has been converted into the P1 space group
# The structure has a 3D framework
# The original CSD entry LOQLIN is in the orthorhombic crystal system
# The framework has been calculated to contain at least 10.0% void space
# The void calculation uses a probe of radius 1.32A, grid spacing 0.4
#
###############################################################################

data_LOQLIN
_chemical_formula_moiety         '(C96 H48 Ga13 O59)n'
_symmetry_cell_setting           triclinic
_symmetry_space_group_name_H-M   'P 1'
_symmetry_Int_Tables_number      1
_space_group_name_Hall           'P 1'
loop_
_symmetry_equiv_pos_site_id
_symmetry_equiv_pos_as_xyz
1 x,y,z
_cell_length_a                   21.176(4)
_cell_length_b                   36.703(8)
_cell_length_c                   6.7423(4)
_cell_angle_alpha                90
_cell_angle_beta                 90
_cell_angle_gamma                90
_cell_volume                     5240.27
loop_
_atom_site_label
_atom_site_type_symbol
_atom_site_fract_x
_atom_site_fract_y
_atom_site_fract_z
Ga4 Ga 0.25000 0.25000 0.00000
Ga1 Ga 0.25000 0.25000 0.50000
O1 O 0.2730(12) 0.22700(51) 0.25000
O2 O 0.166464 0.265266 0.410558
O3 O 0.265468 0.299409 0.410558
C1 C 0.136949 0.265266 0.25000
C2 C 0.281215 0.313812 0.25000
C3 C 0.066113 0.265266 0.25000
C4 C 0.319006 0.348378 0.25000
C5 C 0.033057 0.265266 0.429825
C6 C 0.336642 0.364509 0.429825
H1 H 0.056196 0.265266 0.555702
H2 H 0.324297 0.353217 0.555702
C7 C 0.371914 0.396771 0.429825
H3 H 0.384259 0.408062 0.555702
C8 C 0.389550 0.412902 0.25000
C9 C 0.427341 0.447468 0.25000
O4 O 0.443087 0.461871 0.410558
Ga2 Ga 0.50000 0.50000 0.50000
O5 O 0.50000 0.52563(80) 0.25000
O7 O 0.166464 0.265266 0.089442
C13 C 0.033057 0.265266 0.070175
O9 O 0.265468 0.299409 0.089442
C15 C 0.336642 0.364509 0.070175
C16 C 0.371914 0.396771 0.070175
O10 O 0.443087 0.461871 0.089442
O11 O 0.734532 0.299409 0.410558
C17 C 0.718785 0.313812 0.25000
C18 C 0.680994 0.348378 0.25000
C19 C 0.663358 0.364509 0.429825
H9 H 0.675703 0.353217 0.555702
C20 C 0.628086 0.396771 0.429825
H10 H 0.615741 0.408062 0.555702
C21 C 0.610450 0.412902 0.25000
C22 C 0.572659 0.447468 0.25000
O12 O 0.556913 0.461871 0.410558
O13 O 0.734532 0.299409 0.089442
C23 C 0.663358 0.364509 0.070175
C24 C 0.628086 0.396771 0.070175
O14 O 0.556913 0.461871 0.089442
O15 O 0.2270(12) 0.27300(51) 0.75000
Ga4_2 Ga 0.25000 0.25000 1.00000
Ga6 Ga 0.75000 0.25000 0.50000
Ga8 Ga 0.75000 0.25000 0.00000
O18 O 0.333536 0.234734 0.589442
O20 O 0.234532 0.200591 0.589442
O21 O 0.443087 0.538129 0.589442
O22 O 0.556913 0.538129 0.589442
Ga9 Ga 0.50000 0.50000 0.00000
O23 O 0.50000 0.47437(80) 0.75000
H5 H 0.056196 0.265266 0.944298
H7 H 0.324297 0.353217 0.944298
H8 H 0.384259 0.408062 0.944298
H11 H 0.675703 0.353217 0.944298
H12 H 0.615741 0.408062 0.944298
Ga8_2 Ga 0.75000 0.25000 1.00000
O17 O 0.333536 0.234734 0.910558
O19 O 0.234532 0.200591 0.910558
Ga9_2 Ga 0.50000 0.50000 1.00000
O6 O 0.833536 0.265266 0.410558
C10 C 0.863051 0.265266 0.25000
C11 C 0.933887 0.265266 0.25000
C12 C 0.966943 0.265266 0.429825
H4 H 0.943804 0.265266 0.555702
O8 O 0.833536 0.265266 0.089442
C14 C 0.966943 0.265266 0.070175
H6 H 0.943804 0.265266 0.944298
Ga2_2 Ga 0.00000 -0.00000 0.50000
O5_2 O 0.00000 0.02563(80) 0.25000
O22_2 O 0.056913 0.038129 0.589442
Ga9_3 Ga 0.00000 -0.00000 0.00000
Ga9_4 Ga 0.00000 -0.00000 1.00000
Ga2_3 Ga 0.00000 1.00000 0.50000
O11_2 O 0.234532 0.799409 0.410558
C17_2 C 0.218785 0.813812 0.25000
C18_2 C 0.180994 0.848378 0.25000
C19_2 C 0.163358 0.864509 0.429825
H9_2 H 0.175703 0.853217 0.555702
C20_2 C 0.128086 0.896771 0.429825
H10_2 H 0.115741 0.908062 0.555702
C21_2 C 0.110450 0.912902 0.25000
C22_2 C 0.072659 0.947468 0.25000
O12_2 O 0.056913 0.961871 0.410558
O13_2 O 0.234532 0.799409 0.089442
C23_2 C 0.163358 0.864509 0.070175
C24_2 C 0.128086 0.896771 0.070175
O14_2 O 0.056913 0.961871 0.089442
Ga6_2 Ga 0.25000 0.75000 0.50000
Ga8_3 Ga 0.25000 0.75000 0.00000
Ga9_5 Ga 0.00000 1.00000 0.00000
O23_2 O 0.00000 0.97437(80) 0.75000
H11_2 H 0.175703 0.853217 0.944298
H12_2 H 0.115741 0.908062 0.944298
Ga8_4 Ga 0.25000 0.75000 1.00000
Ga9_6 Ga 0.00000 1.00000 1.00000
Ga2_4 Ga 1.00000 -0.00000 0.50000
O5_3 O 1.00000 0.02563(80) 0.25000
O21_2 O 0.943087 0.038129 0.589442
Ga9_7 Ga 1.00000 -0.00000 0.00000
Ga9_8 Ga 1.00000 -0.00000 1.00000
Ga4_3 Ga 0.75000 0.75000 0.00000
Ga1_2 Ga 0.75000 0.75000 0.50000
O1_2 O 0.7730(12) 0.72700(51) 0.25000
O2_2 O 0.666464 0.765266 0.410558
O3_2 O 0.765468 0.799409 0.410558
C1_2 C 0.636949 0.765266 0.25000
C2_2 C 0.781215 0.813812 0.25000
C3_2 C 0.566113 0.765266 0.25000
C4_2 C 0.819006 0.848378 0.25000
C5_2 C 0.533057 0.765266 0.429825
C6_2 C 0.836642 0.864509 0.429825
H1_2 H 0.556196 0.765266 0.555702
H2_2 H 0.824297 0.853217 0.555702
C7_2 C 0.871914 0.896771 0.429825
H3_2 H 0.884259 0.908062 0.555702
C8_2 C 0.889550 0.912902 0.25000
C9_2 C 0.927341 0.947468 0.25000
O4_2 O 0.943087 0.961871 0.410558
Ga2_5 Ga 1.00000 1.00000 0.50000
O6_2 O 0.333536 0.765266 0.410558
C10_2 C 0.363051 0.765266 0.25000
C11_2 C 0.433887 0.765266 0.25000
C12_2 C 0.466943 0.765266 0.429825
H4_2 H 0.443804 0.765266 0.555702
O7_2 O 0.666464 0.765266 0.089442
C13_2 C 0.533057 0.765266 0.070175
O8_2 O 0.333536 0.765266 0.089442
C14_2 C 0.466943 0.765266 0.070175
O9_2 O 0.765468 0.799409 0.089442
C15_2 C 0.836642 0.864509 0.070175
C16_2 C 0.871914 0.896771 0.070175
O10_2 O 0.943087 0.961871 0.089442
O15_2 O 0.7270(12) 0.77300(51) 0.75000
Ga4_4 Ga 0.75000 0.75000 1.00000
O18_2 O 0.833536 0.734734 0.589442
O20_2 O 0.734532 0.700591 0.589442
Ga9_9 Ga 1.00000 1.00000 0.00000
O23_3 O 1.00000 0.97437(80) 0.75000
H5_2 H 0.556196 0.765266 0.944298
H6_2 H 0.443804 0.765266 0.944298
H7_2 H 0.824297 0.853217 0.944298
H8_2 H 0.884259 0.908062 0.944298
O17_2 O 0.833536 0.734734 0.910558
O19_2 O 0.734532 0.700591 0.910558
Ga9_10 Ga 1.00000 1.00000 1.00000
H5_3 H 0.056196 0.734734 0.055702
H7_3 H 0.324297 0.646783 0.055702
H8_3 H 0.384259 0.591938 0.055702
H11_3 H 0.675703 0.646783 0.055702
H12_3 H 0.615741 0.591938 0.055702
O16 O 0.2270(12) 0.72700(51) 0.25000
O1_3 O 0.2730(12) 0.77300(51) 0.75000
O2_3 O 0.166464 0.734734 0.589442
O3_3 O 0.265468 0.700591 0.589442
C1_3 C 0.136949 0.734734 0.75000
C2_3 C 0.281215 0.686188 0.75000
C3_3 C 0.066113 0.734734 0.75000
C4_3 C 0.319006 0.651622 0.75000
C5_3 C 0.033057 0.734734 0.570175
C6_3 C 0.336642 0.635491 0.570175
H1_3 H 0.056196 0.734734 0.444298
H2_3 H 0.324297 0.646783 0.444298
C7_3 C 0.371914 0.603229 0.570175
H3_3 H 0.384259 0.591938 0.444298
C8_3 C 0.389550 0.587098 0.75000
C9_3 C 0.427341 0.552532 0.75000
O7_3 O 0.166464 0.734734 0.910558
C13_3 C 0.033057 0.734734 0.929825
O9_3 O 0.265468 0.700591 0.910558
C15_3 C 0.336642 0.635491 0.929825
C16_3 C 0.371914 0.603229 0.929825
O10_3 O 0.443087 0.538129 0.910558
C17_3 C 0.718785 0.686188 0.75000
C18_3 C 0.680994 0.651622 0.75000
C19_3 C 0.663358 0.635491 0.570175
H9_3 H 0.675703 0.646783 0.444298
C20_3 C 0.628086 0.603229 0.570175
H10_3 H 0.615741 0.591938 0.444298
C21_3 C 0.610450 0.587098 0.75000
C22_3 C 0.572659 0.552532 0.75000
C23_3 C 0.663358 0.635491 0.929825
C24_3 C 0.628086 0.603229 0.929825
O14_3 O 0.556913 0.538129 0.910558
H6_3 H 0.943804 0.734734 0.055702
C10_3 C 0.863051 0.734734 0.75000
C11_3 C 0.933887 0.734734 0.75000
C12_3 C 0.966943 0.734734 0.570175
H4_3 H 0.943804 0.734734 0.444298
C14_3 C 0.966943 0.734734 0.929825
O21_3 O 0.056913 0.038129 0.910558
O22_3 O 0.943087 0.038129 0.910558
H1_4 H 0.443804 0.234734 0.055702
H2_4 H 0.175703 0.146783 0.055702
H3_4 H 0.115741 0.091938 0.055702
H4_4 H 0.556196 0.234734 0.055702
C1_4 C 0.363051 0.234734 0.75000
C2_4 C 0.218785 0.186188 0.75000
C3_4 C 0.433887 0.234734 0.75000
C4_4 C 0.180994 0.151622 0.75000
C5_4 C 0.466943 0.234734 0.929825
C6_4 C 0.163358 0.135491 0.929825
C7_4 C 0.128086 0.103229 0.929825
C8_4 C 0.110450 0.087098 0.75000
C9_4 C 0.072659 0.052532 0.75000
O6_3 O 0.666464 0.234734 0.910558
C10_4 C 0.636949 0.234734 0.75000
C11_4 C 0.566113 0.234734 0.75000
C12_4 C 0.533057 0.234734 0.929825
C13_4 C 0.466943 0.234734 0.570175
H5_4 H 0.443804 0.234734 0.444298
O8_3 O 0.666464 0.234734 0.589442
C14_4 C 0.533057 0.234734 0.570175
H6_4 H 0.556196 0.234734 0.444298
C15_4 C 0.163358 0.135491 0.570175
H7_4 H 0.175703 0.146783 0.444298
C16_4 C 0.128086 0.103229 0.570175
H8_4 H 0.115741 0.091938 0.444298
H9_4 H 0.824297 0.146783 0.055702
H10_4 H 0.884259 0.091938 0.055702
O11_3 O 0.765468 0.200591 0.910558
C17_4 C 0.781215 0.186188 0.75000
C18_4 C 0.819006 0.151622 0.75000
C19_4 C 0.836642 0.135491 0.929825
C20_4 C 0.871914 0.103229 0.929825
C21_4 C 0.889550 0.087098 0.75000
C22_4 C 0.927341 0.052532 0.75000
O13_3 O 0.765468 0.200591 0.589442
C23_4 C 0.836642 0.135491 0.570175
H11_4 H 0.824297 0.146783 0.444298
C24_4 C 0.871914 0.103229 0.570175
H12_4 H 0.884259 0.091938 0.444298
O16_2 O 0.7270(12) 0.22700(51) 0.25000
O1_4 O 0.7730(12) 0.27300(51) 0.75000
loop_
_geom_bond_atom_site_label_1
_geom_bond_atom_site_label_2
_geom_bond_site_symmetry_1
_geom_bond_site_symmetry_2
Ga1 O1 1_555 1_555
O1 Ga4 1_555 1_555
O2 Ga1 1_555 1_555
O3 Ga1 1_555 1_555
C1 O2 1_555 1_555
C2 O3 1_555 1_555
C3 C1 1_555 1_555
C4 C2 1_555 1_555
C5 C3 1_555 1_555
C6 C4 1_555 1_555
H1 C5 1_555 1_555
H2 C6 1_555 1_555
C7 C6 1_555 1_555
H3 C7 1_555 1_555
C8 C7 1_555 1_555
C9 C8 1_555 1_555
O4 C9 1_555 1_555
Ga2 O4 1_555 1_555
O5 Ga2 1_555 1_555
O7 C1 1_555 1_555
C13 C3 1_555 1_555
O9 C2 1_555 1_555
C15 C4 1_555 1_555
C16 C8 1_555 1_555
O10 C9 1_555 1_555
O11 C17 1_555 1_555
C17 C18 1_555 1_555
C18 C19 1_555 1_555
C19 H9 1_555 1_555
C20 C19 1_555 1_555
H10 C20 1_555 1_555
C21 C20 1_555 1_555
C22 C21 1_555 1_555
O12 Ga2 1_555 1_555
O13 C17 1_555 1_555
C23 C18 1_555 1_555
C24 C21 1_555 1_555
O14 C22 1_555 1_555
Ga4 O7 1_555 1_555
O15 Ga1 1_555 1_555
Ga4_2 O15 1_555 1_555
Ga6 O11 1_555 1_555
Ga8 O13 1_555 1_555
O18 Ga1 1_555 1_555
O20 Ga1 1_555 1_555
O21 Ga2 1_555 1_555
O22 Ga2 1_555 1_555
Ga9 O5 1_555 1_555
O23 Ga2 1_555 1_555
O9 Ga4 1_555 1_555
C15 C16 1_555 1_555
O10 Ga9 1_555 1_555
C22 O12 1_555 1_555
C23 C24 1_555 1_555
O14 Ga9 1_555 1_555
O17 Ga4_2 1_555 1_555
O19 Ga4_2 1_555 1_555
O6 C10 1_555 1_555
C10 C11 1_555 1_555
C11 C12 1_555 1_555
H4 C12 1_555 1_555
O8 C10 1_555 1_555
C14 C11 1_555 1_555
Ga6 O6 1_555 1_555
Ga8 O8 1_555 1_555
O5_2 Ga2_2 1_555 1_555
O22_2 Ga2_2 1_555 1_555
Ga9_3 O5_2 1_555 1_555
O11_2 C17_2 1_555 1_555
C17_2 C18_2 1_555 1_555
C18_2 C19_2 1_555 1_555
C19_2 H9_2 1_555 1_555
C20_2 C19_2 1_555 1_555
H10_2 C20_2 1_555 1_555
C21_2 C20_2 1_555 1_555
C22_2 C21_2 1_555 1_555
O12_2 Ga2_3 1_555 1_555
O13_2 C17_2 1_555 1_555
C23_2 C18_2 1_555 1_555
C24_2 C21_2 1_555 1_555
O14_2 C22_2 1_555 1_555
Ga6_2 O11_2 1_555 1_555
Ga8_3 O13_2 1_555 1_555
O23_2 Ga2_3 1_555 1_555
C22_2 O12_2 1_555 1_555
C23_2 C24_2 1_555 1_555
O14_2 Ga9_5 1_555 1_555
O5_3 Ga2_4 1_555 1_555
O21_2 Ga2_4 1_555 1_555
Ga9_7 O5_3 1_555 1_555
Ga1_2 O1_2 1_555 1_555
O1_2 Ga4_3 1_555 1_555
O2_2 Ga1_2 1_555 1_555
O3_2 Ga1_2 1_555 1_555
C1_2 O2_2 1_555 1_555
C2_2 O3_2 1_555 1_555
C3_2 C1_2 1_555 1_555
C4_2 C2_2 1_555 1_555
C5_2 C3_2 1_555 1_555
C6_2 C4_2 1_555 1_555
H1_2 C5_2 1_555 1_555
H2_2 C6_2 1_555 1_555
C7_2 C6_2 1_555 1_555
H3_2 C7_2 1_555 1_555
C8_2 C7_2 1_555 1_555
C9_2 C8_2 1_555 1_555
O4_2 C9_2 1_555 1_555
Ga2_5 O4_2 1_555 1_555
O6_2 C10_2 1_555 1_555
C10_2 C11_2 1_555 1_555
C11_2 C12_2 1_555 1_555
C12_2 C5_2 1_555 1_555
H4_2 C12_2 1_555 1_555
O7_2 C1_2 1_555 1_555
C13_2 C3_2 1_555 1_555
O8_2 C10_2 1_555 1_555
C14_2 C11_2 1_555 1_555
O9_2 C2_2 1_555 1_555
C15_2 C4_2 1_555 1_555
C16_2 C8_2 1_555 1_555
O10_2 C9_2 1_555 1_555
Ga4_3 O7_2 1_555 1_555
O15_2 Ga1_2 1_555 1_555
Ga4_4 O15_2 1_555 1_555
Ga6_2 O6_2 1_555 1_555
Ga8_3 O8_2 1_555 1_555
O18_2 Ga1_2 1_555 1_555
O20_2 Ga1_2 1_555 1_555
O23_3 Ga2_5 1_555 1_555
C13_2 C14_2 1_555 1_555
O9_2 Ga4_3 1_555 1_555
C15_2 C16_2 1_555 1_555
O10_2 Ga9_9 1_555 1_555
O17_2 Ga4_4 1_555 1_555
O19_2 Ga4_4 1_555 1_555
O16 Ga8_3 1_555 1_555
Ga6_2 O1_3 1_555 1_555
O1_3 Ga8_4 1_555 1_555
O2_3 Ga6_2 1_555 1_555
O3_3 Ga6_2 1_555 1_555
C1_3 O2_3 1_555 1_555
C2_3 O3_3 1_555 1_555
C3_3 C1_3 1_555 1_555
C4_3 C2_3 1_555 1_555
C5_3 C3_3 1_555 1_555
C6_3 C4_3 1_555 1_555
H1_3 C5_3 1_555 1_555
H2_3 C6_3 1_555 1_555
C7_3 C6_3 1_555 1_555
H3_3 C7_3 1_555 1_555
C8_3 C7_3 1_555 1_555
C9_3 C8_3 1_555 1_555
O21 C9_3 1_555 1_555
O7_3 C1_3 1_555 1_555
C13_3 C3_3 1_555 1_555
O9_3 C2_3 1_555 1_555
C15_3 C4_3 1_555 1_555
C16_3 C8_3 1_555 1_555
O10_3 C9_3 1_555 1_555
O20_2 C17_3 1_555 1_555
C17_3 C18_3 1_555 1_555
C18_3 C19_3 1_555 1_555
C19_3 H9_3 1_555 1_555
C20_3 C19_3 1_555 1_555
H10_3 C20_3 1_555 1_555
C21_3 C20_3 1_555 1_555
C22_3 C21_3 1_555 1_555
O19_2 C17_3 1_555 1_555
C23_3 C18_3 1_555 1_555
C24_3 C21_3 1_555 1_555
O14_3 C22_3 1_555 1_555
Ga8_4 O7_3 1_555 1_555
O16 Ga6_2 1_555 1_555
Ga9_2 O23 1_555 1_555
O9_3 Ga8_4 1_555 1_555
C15_3 C16_3 1_555 1_555
O10_3 Ga9_2 1_555 1_555
C22_3 O22 1_555 1_555
C23_3 C24_3 1_555 1_555
O14_3 Ga9_2 1_555 1_555
O18_2 C10_3 1_555 1_555
C10_3 C11_3 1_555 1_555
C11_3 C12_3 1_555 1_555
H4_3 C12_3 1_555 1_555
O17_2 C10_3 1_555 1_555
C14_3 C11_3 1_555 1_555
O21_3 Ga9_4 1_555 1_555
O23_2 Ga9_6 1_555 1_555
O22_3 Ga9_8 1_555 1_555
O23_3 Ga9_10 1_555 1_555
C1_4 O17 1_555 1_555
C2_4 O19 1_555 1_555
C3_4 C1_4 1_555 1_555
C4_4 C2_4 1_555 1_555
C5_4 C3_4 1_555 1_555
C6_4 C4_4 1_555 1_555
C7_4 C6_4 1_555 1_555
C8_4 C7_4 1_555 1_555
C9_4 C8_4 1_555 1_555
O21_3 C9_4 1_555 1_555
O6_3 C10_4 1_555 1_555
C10_4 C11_4 1_555 1_555
C11_4 C12_4 1_555 1_555
C12_4 C5_4 1_555 1_555
O18 C1_4 1_555 1_555
C13_4 C3_4 1_555 1_555
H5_4 C13_4 1_555 1_555
O8_3 C10_4 1_555 1_555
C14_4 C11_4 1_555 1_555
H6_4 C14_4 1_555 1_555
O20 C2_4 1_555 1_555
C15_4 C4_4 1_555 1_555
H7_4 C15_4 1_555 1_555
C16_4 C8_4 1_555 1_555
H8_4 C16_4 1_555 1_555
O22_2 C9_4 1_555 1_555
Ga8_2 O6_3 1_555 1_555
Ga6 O8_3 1_555 1_555
C13_4 C14_4 1_555 1_555
C15_4 C16_4 1_555 1_555
O11_3 C17_4 1_555 1_555
C17_4 C18_4 1_555 1_555
C18_4 C19_4 1_555 1_555
C20_4 C19_4 1_555 1_555
C21_4 C20_4 1_555 1_555
C22_4 C21_4 1_555 1_555
O13_3 C17_4 1_555 1_555
C23_4 C18_4 1_555 1_555
H11_4 C23_4 1_555 1_555
C24_4 C21_4 1_555 1_555
H12_4 C24_4 1_555 1_555
O21_2 C22_4 1_555 1_555
Ga8_2 O11_3 1_555 1_555
Ga6 O13_3 1_555 1_555
C22_4 O22_3 1_555 1_555
C23_4 C24_4 1_555 1_555
O16_2 Ga8 1_555 1_555
Ga6 O1_4 1_555 1_555
O1_4 Ga8_2 1_555 1_555
O16_2 Ga6 1_555 1_555

#END
