####################################################################### 
# 
# This file contains crystal structure data downloaded from the 
# Cambridge Structural Database (CSD) hosted by the Cambridge 
# Crystallographic Data Centre (CCDC).
# 
# Full information about CCDC data access policies and citation 
# guidelines are available at http://www.ccdc.cam.ac.uk/access/V1 
# 
# Audit and citation data items may have been added by the CCDC. 
# Please retain this information to preserve the provenance of 
# this file and to allow appropriate attribution of the data. 
# 
#######################################################################

data_1
_audit_block_doi                 10.5517/ccr6pby
_database_code_depnum_ccdc_archive 'CCDC 691620'
loop_
_citation_id
_citation_doi
_citation_year
1 10.1021/ic801624v 2008
_audit_update_record             
;
2008-06-13 deposited with the CCDC.	2024-07-11 downloaded from the CCDC.
;
_chemical_name_mineral           ?Structure?
_cell_length_a                   21.176(4)
_cell_length_b                   36.703(8)
_cell_length_c                   6.7423(4)
_cell_angle_alpha                90
_cell_angle_beta                 90
_cell_angle_gamma                90
_cell_volume                     5240(2)
loop_
_symmetry_equiv_pos_as_xyz
'-x, -y, -z'
'-x, -y, z+1/2'
'-x, y, -z+1/2'
'-x, y, z'
'-x+1/2, -y+1/2, -z'
'-x+1/2, -y+1/2, z+1/2'
'-x+1/2, y+1/2, -z+1/2'
'-x+1/2, y+1/2, z'
'x, -y, -z'
'x, -y, z+1/2'
'x, y, -z+1/2'
'x, y, z'
'x+1/2, -y+1/2, -z'
'x+1/2, -y+1/2, z+1/2'
'x+1/2, y+1/2, -z+1/2'
'x+1/2, y+1/2, z'
loop_
_atom_site_label
_atom_site_type_symbol
_atom_site_symmetry_multiplicity
_atom_site_fract_x
_atom_site_fract_y
_atom_site_fract_z
_atom_site_occupancy
_atom_site_B_iso_or_equiv
Ga1 Ga+3 8 0.25 0.25 0.5 1 0.3
Ga2 Ga+3 4 0 0 0.5 1 0.3
O1 O 8 0.2270(12) 0.27300(51) 0.75 1 0.3
O5 O 4 0 -0.02563(80) 0.75 1 0.3
O2 O-2 16 0.1664636 0.2652664 0.4105576 1 0.3
C1 C 8 0.1369488 0.2652664 0.25 1 0.3
C2 C 8 0.0661132 0.2652664 0.25 1 0.3
C3 C 16 0.0330566 0.2652664 0.4298245 1 0.3
H3 H 16 0.05619622 0.2652664 0.5557017 1 1
O3 O-2 16 0.2654683 0.299409 0.4105576 1 0.3
O4 O-2 16 0.4430871 0.4618705 0.4105576 1 0.3
C4 C 8 0.2812147 0.3138116 0.25 1 0.3
C5 C 8 0.3190059 0.3483779 0.25 1 0.3
C6 C 16 0.3366418 0.3645088 0.4298245 1 0.3
H6 H 16 0.3242967 0.3532172 0.5557017 1 1
C7 C 16 0.3719136 0.3967707 0.4298245 1 0.3
H7 H 16 0.3842588 0.4080623 0.5557017 1 1
C8 C 8 0.3895495 0.4129016 0.25 1 0.3
C9 C 8 0.4273408 0.4474679 0.25 1 0.3






