
###############################################################################
#
# This file contains modified crystal structure data generated from the
# MOF subset of the Cambridge Structural Database (CSD) v543 
# hosted by the Cambridge Crystallographic Data Centre (CCDC).
#
# This work is licensed under the Creative Commons
# Attribution-NonCommercial-ShareAlike 4.0 International License.
# To view a copy of this license, visit
# http://creativecommons.org/licenses/by-nc-sa/4.0/
# or send a letter to
# Creative Commons, PO Box 1866, Mountain View, CA 94042, USA.
#
# CIF created using the CSD Python API on 29 September 2022
# The structure has been converted into the P1 space group
# The structure has a 3D framework
# The original CSD entry LOQLEJ is in the orthorhombic crystal system
# The framework has been calculated to contain at least 10.0% void space
# The void calculation uses a probe of radius 1.32A, grid spacing 0.4
#
###############################################################################

data_LOQLEJ
_chemical_formula_moiety         '(C96 H48 In16 O59)n'
_symmetry_cell_setting           triclinic
_symmetry_space_group_name_H-M   'P 1'
_symmetry_Int_Tables_number      1
_space_group_name_Hall           'P 1'
loop_
_symmetry_equiv_pos_site_id
_symmetry_equiv_pos_as_xyz
1 x,y,z
_cell_length_a                   21.7739(6)
_cell_length_b                   37.6772(10)
_cell_length_c                   7.23300(10)
_cell_angle_alpha                90
_cell_angle_beta                 90
_cell_angle_gamma                90
_cell_volume                     5933.81
loop_
_atom_site_label
_atom_site_type_symbol
_atom_site_fract_x
_atom_site_fract_y
_atom_site_fract_z
In2 In 0.0000 0.0000 0.0000
O5 O -0.0000 0.02416(8) 0.2500
In9 In 0.0000 0.0000 0.5000
In2_2 In 0.0000 0.0000 1.0000
O21 O 0.06617(7) 0.03799(3) 0.90353(19)
In1 In 0.2500 0.7500 0.0000
In2_3 In 0.0000 1.0000 0.0000
O1 O 0.22628(9) 0.72511(5) 0.2500
O2 O 0.34179(5) 0.76107(4) 0.09565(16)
O3 O 0.22136(7) 0.80131(3) 0.09806(19)
O4 O 0.06617(7) 0.96201(3) 0.09647(19)
C1 C 0.36763(11) 0.76167(7) 0.2500
C2 C 0.43722(10) 0.76492(8) 0.2500
C3 C 0.46837(7) 0.76370(8) 0.4144(2)
H1 H 0.4469 0.7629 0.5255
C4 C 0.20819(12) 0.81433(7) 0.2500
C5 C 0.17818(12) 0.85063(6) 0.2500
C6 C 0.16312(11) 0.86729(5) 0.0861(2)
C7 C 0.13249(10) 0.89841(5) 0.0858(2)
C8 C 0.11691(13) 0.91442(6) 0.2500
C9 C 0.08025(12) 0.94900(6) 0.2500
In3 In 0.2500 0.7500 0.5000
In4 In 0.7500 0.7500 0.0000
In5 In 0.7500 0.7500 0.5000
In9_2 In 0.0000 1.0000 0.5000
O7 O 0.27372(9) 0.77489(5) 0.7500
O8 O 0.34179(5) 0.76107(4) 0.40435(16)
O9 O 0.65821(5) 0.76107(4) 0.09565(16)
O10 O 0.65821(5) 0.76107(4) 0.40435(16)
O12 O 0.15821(5) 0.73893(4) 0.59565(16)
O13 O 0.22136(7) 0.80131(3) 0.40194(19)
O17 O 0.27864(7) 0.69869(3) 0.59806(19)
O18 O 0.06617(7) 0.96201(3) 0.40353(19)
C10 C 0.63237(11) 0.76167(7) 0.2500
C11 C 0.56278(10) 0.76492(8) 0.2500
C12 C 0.53163(7) 0.76370(8) 0.4144(2)
C13 C 0.53163(7) 0.76370(8) 0.0856(2)
C14 C 0.46837(7) 0.76370(8) 0.0856(2)
H6 H 0.5531 0.7629 0.5255
C17 C 0.16312(11) 0.86729(5) 0.4139(2)
H7 H 0.1742 0.8569 0.5257
C20 C 0.13249(10) 0.89841(5) 0.4142(2)
H10 H 0.1219 0.9091 0.5257
In1_2 In 0.2500 0.7500 1.0000
In2_4 In 0.0000 1.0000 1.0000
H2 H 0.1742 0.8569 0.9743
H3 H 0.1219 0.9091 0.9743
In4_2 In 0.7500 0.7500 1.0000
O11 O 0.15821(5) 0.73893(4) 0.90435(16)
O16 O 0.27864(7) 0.69869(3) 0.90194(19)
O23 O 0.0000 0.97584(8) 0.7500
H4 H 0.5531 0.7629 0.9745
H5 H 0.4469 0.7629 0.9745
In2_5 In 1.0000 0.0000 0.0000
O5_2 O 1.0000 0.02416(8) 0.2500
In6 In 0.7500 0.2500 0.0000
In9_3 In 1.0000 0.0000 0.5000
H8 H 0.8258 0.1431 0.0257
H11 H 0.8781 0.0909 0.0257
In2_6 In 1.0000 0.0000 1.0000
In6_2 In 0.7500 0.2500 1.0000
In7 In 0.7500 0.2500 0.5000
O14 O 0.77864(7) 0.19869(3) 0.90194(19)
O15 O 0.77864(7) 0.19869(3) 0.59806(19)
O19 O 0.93383(7) 0.03799(3) 0.90353(19)
O20 O 0.93383(7) 0.03799(3) 0.59647(19)
C15 C 0.79181(12) 0.18567(7) 0.7500
C16 C 0.82182(12) 0.14937(6) 0.7500
C18 C 0.83688(11) 0.13271(5) 0.9139(2)
C19 C 0.83688(11) 0.13271(5) 0.5861(2)
H9 H 0.8258 0.1431 0.4743
C21 C 0.86751(10) 0.10159(5) 0.9142(2)
C22 C 0.86751(10) 0.10159(5) 0.5858(2)
H12 H 0.8781 0.0909 0.4743
C23 C 0.88309(13) 0.08558(6) 0.7500
C24 C 0.91975(12) 0.05100(6) 0.7500
In2_7 In 1.0000 1.0000 0.0000
In9_4 In 1.0000 1.0000 0.5000
O22 O 0.93383(7) 0.96201(3) 0.09647(19)
In2_8 In 1.0000 1.0000 1.0000
O23_2 O 1.0000 0.97584(8) 0.7500
O22_2 O 0.06617(7) 0.03799(3) 0.59647(19)
H1_2 H 0.5531 0.2371 0.0255
In5_2 In 0.2500 0.2500 0.0000
O7_2 O 0.72628(9) 0.22511(5) 0.2500
O12_2 O 0.84179(5) 0.26107(4) 0.09565(16)
O17_2 O 0.72136(7) 0.30131(3) 0.09806(19)
H6_2 H 0.4469 0.2371 0.0255
O1_2 O 0.77372(9) 0.27489(5) 0.7500
O2_2 O 0.65821(5) 0.23893(4) 0.59565(16)
C1_2 C 0.63237(11) 0.23833(7) 0.7500
C2_2 C 0.56278(10) 0.23508(8) 0.7500
C3_2 C 0.53163(7) 0.23630(8) 0.9144(2)
In4_3 In 0.2500 0.2500 0.5000
In5_3 In 0.2500 0.2500 1.0000
O8_2 O 0.65821(5) 0.23893(4) 0.90435(16)
O9_2 O 0.34179(5) 0.23893(4) 0.59565(16)
O10_2 O 0.34179(5) 0.23893(4) 0.90435(16)
O11_2 O 0.84179(5) 0.26107(4) 0.40435(16)
O16_2 O 0.72136(7) 0.30131(3) 0.40194(19)
C10_2 C 0.36763(11) 0.23833(7) 0.7500
C11_2 C 0.43722(10) 0.23508(8) 0.7500
C12_2 C 0.46837(7) 0.23630(8) 0.9144(2)
C13_2 C 0.46837(7) 0.23630(8) 0.5856(2)
C14_2 C 0.53163(7) 0.23630(8) 0.5856(2)
H4_2 H 0.4469 0.2371 0.4745
H5_2 H 0.5531 0.2371 0.4745
O21_2 O 0.93383(7) 0.96201(3) 0.40353(19)
H9_2 H 0.1742 0.1431 0.0257
H12_2 H 0.1219 0.0909 0.0257
O14_2 O 0.22136(7) 0.19869(3) 0.59806(19)
O15_2 O 0.22136(7) 0.19869(3) 0.90194(19)
C15_2 C 0.20819(12) 0.18567(7) 0.7500
C16_2 C 0.17818(12) 0.14937(6) 0.7500
C18_2 C 0.16312(11) 0.13271(5) 0.5861(2)
C19_2 C 0.16312(11) 0.13271(5) 0.9139(2)
H8_2 H 0.1742 0.1431 0.4743
C21_2 C 0.13249(10) 0.10159(5) 0.5858(2)
C22_2 C 0.13249(10) 0.10159(5) 0.9142(2)
H11_2 H 0.1219 0.0909 0.4743
C23_2 C 0.11691(13) 0.08558(6) 0.7500
C24_2 C 0.08025(12) 0.05100(6) 0.7500
O1_3 O 0.77372(9) 0.72511(5) 0.2500
O3_2 O 0.77864(7) 0.80131(3) 0.40194(19)
C4_2 C 0.79181(12) 0.81433(7) 0.2500
C5_2 C 0.82182(12) 0.85063(6) 0.2500
C6_2 C 0.83688(11) 0.86729(5) 0.4139(2)
H2_2 H 0.8258 0.8569 0.5257
C7_2 C 0.86751(10) 0.89841(5) 0.4142(2)
H3_2 H 0.8781 0.9091 0.5257
C8_2 C 0.88309(13) 0.91442(6) 0.2500
C9_2 C 0.91975(12) 0.94900(6) 0.2500
O6 O 0.72628(9) 0.77489(5) 0.7500
O11_3 O 0.84179(5) 0.73893(4) 0.59565(16)
O13_2 O 0.77864(7) 0.80131(3) 0.09806(19)
O16_3 O 0.72136(7) 0.69869(3) 0.59806(19)
C17_2 C 0.83688(11) 0.86729(5) 0.0861(2)
C20_2 C 0.86751(10) 0.89841(5) 0.0858(2)
O12_3 O 0.84179(5) 0.73893(4) 0.90435(16)
O17_3 O 0.72136(7) 0.69869(3) 0.90194(19)
H7_2 H 0.8258 0.8569 0.9743
H10_2 H 0.8781 0.9091 0.9743
O6_2 O 0.27372(9) 0.22511(5) 0.2500
O11_4 O 0.15821(5) 0.26107(4) 0.09565(16)
O16_4 O 0.27864(7) 0.30131(3) 0.09806(19)
O1_4 O 0.22628(9) 0.27489(5) 0.7500
O12_4 O 0.15821(5) 0.26107(4) 0.40435(16)
O17_4 O 0.27864(7) 0.30131(3) 0.40194(19)
C10_3 C 0.13237(11) 0.26167(7) 0.2500
C11_3 C 0.06278(10) 0.26492(8) 0.2500
C12_3 C 0.03163(7) 0.26370(8) 0.4144(2)
C13_3 C 0.03163(7) 0.26370(8) 0.0856(2)
H6_3 H 0.0531 0.2629 0.5255
H4_3 H 0.0531 0.2629 0.9745
In2_9 In 0.5000 0.5000 0.0000
O4_2 O 0.56617(7) 0.46201(3) 0.09647(19)
O5_3 O 0.5000 0.52416(8) 0.2500
C1_3 C 0.86763(11) 0.26167(7) 0.2500
C2_3 C 0.93722(10) 0.26492(8) 0.2500
C3_3 C 0.96837(7) 0.26370(8) 0.4144(2)
H1_3 H 0.9469 0.2629 0.5255
C4_3 C 0.70819(12) 0.31433(7) 0.2500
C5_3 C 0.67818(12) 0.35063(6) 0.2500
C6_3 C 0.66312(11) 0.36729(5) 0.0861(2)
C7_3 C 0.63249(10) 0.39841(5) 0.0858(2)
C8_3 C 0.61691(13) 0.41442(6) 0.2500
C9_3 C 0.58025(12) 0.44900(6) 0.2500
In9_5 In 0.5000 0.5000 0.5000
O18_2 O 0.56617(7) 0.46201(3) 0.40353(19)
O22_3 O 0.43383(7) 0.46201(3) 0.09647(19)
C14_3 C 0.96837(7) 0.26370(8) 0.0856(2)
C17_3 C 0.66312(11) 0.36729(5) 0.4139(2)
H7_3 H 0.6742 0.3569 0.5257
H8_3 H 0.3258 0.6431 0.0257
C20_3 C 0.63249(10) 0.39841(5) 0.4142(2)
H10_3 H 0.6219 0.4091 0.5257
H11_3 H 0.3781 0.5909 0.0257
In2_10 In 0.5000 0.5000 1.0000
H2_3 H 0.6742 0.3569 0.9743
H3_3 H 0.6219 0.4091 0.9743
O19_2 O 0.43383(7) 0.53799(3) 0.90353(19)
O20_2 O 0.43383(7) 0.53799(3) 0.59647(19)
O21_3 O 0.56617(7) 0.53799(3) 0.90353(19)
O23_3 O 0.5000 0.47584(8) 0.7500
H5_3 H 0.9469 0.2629 0.9745
C15_3 C 0.29181(12) 0.68567(7) 0.7500
C16_3 C 0.32182(12) 0.64937(6) 0.7500
C18_3 C 0.33688(11) 0.63271(5) 0.9139(2)
C19_3 C 0.33688(11) 0.63271(5) 0.5861(2)
H9_3 H 0.3258 0.6431 0.4743
C21_3 C 0.36751(10) 0.60159(5) 0.9142(2)
C22_3 C 0.36751(10) 0.60159(5) 0.5858(2)
H12_3 H 0.3781 0.5909 0.4743
C23_3 C 0.38309(13) 0.58558(6) 0.7500
C24_3 C 0.41975(12) 0.55100(6) 0.7500
H1_4 H 0.0531 0.7371 0.0255
C1_4 C 0.13237(11) 0.73833(7) 0.7500
C2_4 C 0.06278(10) 0.73508(8) 0.7500
C3_4 C 0.03163(7) 0.73630(8) 0.9144(2)
O21_4 O 0.43383(7) 0.46201(3) 0.40353(19)
O22_4 O 0.56617(7) 0.53799(3) 0.59647(19)
C14_4 C 0.03163(7) 0.73630(8) 0.5856(2)
H5_4 H 0.0531 0.7371 0.4745
H6_4 H 0.9469 0.7371 0.0255
C10_4 C 0.86763(11) 0.73833(7) 0.7500
C11_4 C 0.93722(10) 0.73508(8) 0.7500
C12_4 C 0.96837(7) 0.73630(8) 0.9144(2)
C13_4 C 0.96837(7) 0.73630(8) 0.5856(2)
H4_4 H 0.9469 0.7371 0.4745
H9_4 H 0.6742 0.6431 0.0257
H12_4 H 0.6219 0.5909 0.0257
C4_4 C 0.29181(12) 0.31433(7) 0.2500
C5_4 C 0.32182(12) 0.35063(6) 0.2500
C6_4 C 0.33688(11) 0.36729(5) 0.4139(2)
H2_4 H 0.3258 0.3569 0.5257
C7_4 C 0.36751(10) 0.39841(5) 0.4142(2)
H3_4 H 0.3781 0.4091 0.5257
C8_4 C 0.38309(13) 0.41442(6) 0.2500
C9_4 C 0.41975(12) 0.44900(6) 0.2500
C15_4 C 0.70819(12) 0.68567(7) 0.7500
C16_4 C 0.67818(12) 0.64937(6) 0.7500
C17_4 C 0.33688(11) 0.36729(5) 0.0861(2)
C18_4 C 0.66312(11) 0.63271(5) 0.5861(2)
C19_4 C 0.66312(11) 0.63271(5) 0.9139(2)
H8_4 H 0.6742 0.6431 0.4743
C20_4 C 0.36751(10) 0.39841(5) 0.0858(2)
C21_4 C 0.63249(10) 0.60159(5) 0.5858(2)
C22_4 C 0.63249(10) 0.60159(5) 0.9142(2)
H11_4 H 0.6219 0.5909 0.4743
C23_4 C 0.61691(13) 0.58558(6) 0.7500
C24_4 C 0.58025(12) 0.55100(6) 0.7500
H7_4 H 0.3258 0.3569 0.9743
H10_4 H 0.3781 0.4091 0.9743
loop_
_geom_bond_atom_site_label_1
_geom_bond_atom_site_label_2
_geom_bond_site_symmetry_1
_geom_bond_site_symmetry_2
O5 In2 1_555 1_555
In9 O5 1_555 1_555
O21 In2_2 1_555 1_555
In1 O1 1_555 1_555
In2_3 O4 1_555 1_555
O1 In3 1_555 1_555
O2 In1 1_555 1_555
O3 In1 1_555 1_555
O4 C9 1_555 1_555
C1 O2 1_555 1_555
C2 C1 1_555 1_555
C3 C2 1_555 1_555
H1 C3 1_555 1_555
C4 O3 1_555 1_555
C5 C4 1_555 1_555
C6 C5 1_555 1_555
C7 C6 1_555 1_555
C8 C7 1_555 1_555
C9 C8 1_555 1_555
In3 O7 1_555 1_555
In4 O9 1_555 1_555
In5 O10 1_555 1_555
O8 C1 1_555 1_555
O9 C10 1_555 1_555
O10 C10 1_555 1_555
O12 In3 1_555 1_555
O13 C4 1_555 1_555
O17 In3 1_555 1_555
O18 C9 1_555 1_555
C10 C11 1_555 1_555
C11 C12 1_555 1_555
C12 C3 1_555 1_555
C13 C11 1_555 1_555
C14 C2 1_555 1_555
H6 C12 1_555 1_555
C17 C5 1_555 1_555
H7 C17 1_555 1_555
C20 C8 1_555 1_555
H10 C20 1_555 1_555
In3 O8 1_555 1_555
In3 O13 1_555 1_555
In9_2 O18 1_555 1_555
C13 C14 1_555 1_555
C17 C20 1_555 1_555
O7 In1_2 1_555 1_555
O11 In1_2 1_555 1_555
O16 In1_2 1_555 1_555
O23 In2_4 1_555 1_555
In9_2 O23 1_555 1_555
O5_2 In2_5 1_555 1_555
In9_3 O5_2 1_555 1_555
In6_2 O14 1_555 1_555
In7 O15 1_555 1_555
In9_3 O20 1_555 1_555
O14 C15 1_555 1_555
O15 C15 1_555 1_555
O19 In2_6 1_555 1_555
O20 C24 1_555 1_555
C15 C16 1_555 1_555
C16 C18 1_555 1_555
C19 C16 1_555 1_555
H9 C19 1_555 1_555
C21 C18 1_555 1_555
C22 C19 1_555 1_555
H12 C22 1_555 1_555
C23 C21 1_555 1_555
C24 O19 1_555 1_555
C22 C23 1_555 1_555
C23 C24 1_555 1_555
O22 In2_7 1_555 1_555
O23_2 In2_8 1_555 1_555
In9_4 O23_2 1_555 1_555
O22_2 In9 1_555 1_555
In6 O7_2 1_555 1_555
O12_2 In6 1_555 1_555
O17_2 In6 1_555 1_555
In7 O1_2 1_555 1_555
O1_2 In6_2 1_555 1_555
O2_2 In7 1_555 1_555
C1_2 O2_2 1_555 1_555
C2_2 C1_2 1_555 1_555
C3_2 C2_2 1_555 1_555
In4_3 O9_2 1_555 1_555
In5_3 O10_2 1_555 1_555
O7_2 In7 1_555 1_555
O8_2 C1_2 1_555 1_555
O9_2 C10_2 1_555 1_555
O10_2 C10_2 1_555 1_555
O11_2 In7 1_555 1_555
O16_2 In7 1_555 1_555
C10_2 C11_2 1_555 1_555
C11_2 C12_2 1_555 1_555
C12_2 C3_2 1_555 1_555
C13_2 C11_2 1_555 1_555
C14_2 C2_2 1_555 1_555
H4_2 C13_2 1_555 1_555
H5_2 C14_2 1_555 1_555
In6_2 O8_2 1_555 1_555
C13_2 C14_2 1_555 1_555
O21_2 In9_4 1_555 1_555
In4_3 O14_2 1_555 1_555
In5_3 O15_2 1_555 1_555
O14_2 C15_2 1_555 1_555
O15_2 C15_2 1_555 1_555
O21 C24_2 1_555 1_555
C15_2 C16_2 1_555 1_555
C16_2 C18_2 1_555 1_555
C18_2 H8_2 1_555 1_555
C19_2 C16_2 1_555 1_555
C21_2 C18_2 1_555 1_555
C22_2 C19_2 1_555 1_555
H11_2 C21_2 1_555 1_555
C23_2 C21_2 1_555 1_555
C24_2 O22_2 1_555 1_555
C22_2 C23_2 1_555 1_555
C23_2 C24_2 1_555 1_555
In5 O1_3 1_555 1_555
O1_3 In4 1_555 1_555
O3_2 In5 1_555 1_555
O21_2 C9_2 1_555 1_555
C4_2 O3_2 1_555 1_555
C5_2 C4_2 1_555 1_555
C6_2 C5_2 1_555 1_555
H2_2 C6_2 1_555 1_555
C7_2 C6_2 1_555 1_555
H3_2 C7_2 1_555 1_555
C8_2 C7_2 1_555 1_555
C9_2 C8_2 1_555 1_555
In4_2 O6 1_555 1_555
O6 In5 1_555 1_555
O11_3 In5 1_555 1_555
O13_2 C4_2 1_555 1_555
O16_3 In5 1_555 1_555
O22 C9_2 1_555 1_555
C17_2 C5_2 1_555 1_555
C20_2 C8_2 1_555 1_555
In4 O13_2 1_555 1_555
C17_2 C20_2 1_555 1_555
O12_3 In4_2 1_555 1_555
O17_3 In4_2 1_555 1_555
In4_3 O6_2 1_555 1_555
O6_2 In5_2 1_555 1_555
O11_4 In5_2 1_555 1_555
O16_4 In5_2 1_555 1_555
In5_3 O1_4 1_555 1_555
O1_4 In4_3 1_555 1_555
O12_4 In4_3 1_555 1_555
O17_4 In4_3 1_555 1_555
O11_4 C10_3 1_555 1_555
O12_4 C10_3 1_555 1_555
C10_3 C11_3 1_555 1_555
C11_3 C12_3 1_555 1_555
C13_3 C11_3 1_555 1_555
H6_3 C12_3 1_555 1_555
In2_9 O4_2 1_555 1_555
O4_2 C9_3 1_555 1_555
O5_3 In2_9 1_555 1_555
C1_3 O12_2 1_555 1_555
C2_3 C1_3 1_555 1_555
C3_3 C2_3 1_555 1_555
H1_3 C3_3 1_555 1_555
C4_3 O17_2 1_555 1_555
C5_3 C4_3 1_555 1_555
C6_3 C5_3 1_555 1_555
C7_3 C6_3 1_555 1_555
C8_3 C7_3 1_555 1_555
C9_3 C8_3 1_555 1_555
In9_5 O5_3 1_555 1_555
O11_2 C1_3 1_555 1_555
O16_2 C4_3 1_555 1_555
O18_2 C9_3 1_555 1_555
O22_3 In2_9 1_555 1_555
C14_3 C2_3 1_555 1_555
C17_3 C5_3 1_555 1_555
H7_3 C17_3 1_555 1_555
C20_3 C8_3 1_555 1_555
H10_3 C20_3 1_555 1_555
In9_5 O18_2 1_555 1_555
C17_3 C20_3 1_555 1_555
In9_5 O20_2 1_555 1_555
O16 C15_3 1_555 1_555
O17 C15_3 1_555 1_555
O19_2 In2_10 1_555 1_555
O20_2 C24_3 1_555 1_555
O21_3 In2_10 1_555 1_555
O23_3 In2_10 1_555 1_555
C15_3 C16_3 1_555 1_555
C16_3 C18_3 1_555 1_555
C19_3 C16_3 1_555 1_555
H9_3 C19_3 1_555 1_555
C21_3 C18_3 1_555 1_555
C22_3 C19_3 1_555 1_555
H12_3 C22_3 1_555 1_555
C23_3 C21_3 1_555 1_555
C24_3 O19_2 1_555 1_555
In9_5 O23_3 1_555 1_555
C22_3 C23_3 1_555 1_555
C23_3 C24_3 1_555 1_555
C1_4 O12 1_555 1_555
C2_4 C1_4 1_555 1_555
C3_4 C2_4 1_555 1_555
O11 C1_4 1_555 1_555
O21_4 In9_5 1_555 1_555
O22_4 In9_5 1_555 1_555
C14_4 C2_4 1_555 1_555
H5_4 C14_4 1_555 1_555
O11_3 C10_4 1_555 1_555
O12_3 C10_4 1_555 1_555
C10_4 C11_4 1_555 1_555
C11_4 C12_4 1_555 1_555
C13_4 C11_4 1_555 1_555
H4_4 C13_4 1_555 1_555
O21_4 C9_4 1_555 1_555
C4_4 O17_4 1_555 1_555
C5_4 C4_4 1_555 1_555
C6_4 C5_4 1_555 1_555
H2_4 C6_4 1_555 1_555
C7_4 C6_4 1_555 1_555
H3_4 C7_4 1_555 1_555
C8_4 C7_4 1_555 1_555
C9_4 C8_4 1_555 1_555
O16_4 C4_4 1_555 1_555
O16_3 C15_4 1_555 1_555
O17_3 C15_4 1_555 1_555
O22_3 C9_4 1_555 1_555
O21_3 C24_4 1_555 1_555
C15_4 C16_4 1_555 1_555
C16_4 C18_4 1_555 1_555
C17_4 C5_4 1_555 1_555
C18_4 H8_4 1_555 1_555
C19_4 C16_4 1_555 1_555
C20_4 C8_4 1_555 1_555
C21_4 C18_4 1_555 1_555
C22_4 C19_4 1_555 1_555
H11_4 C21_4 1_555 1_555
C23_4 C21_4 1_555 1_555
C24_4 O22_4 1_555 1_555
C17_4 C20_4 1_555 1_555
C22_4 C23_4 1_555 1_555
C23_4 C24_4 1_555 1_555

#END
