
###############################################################################
#
# This file contains modified crystal structure data generated from the
# MOF subset of the Cambridge Structural Database (CSD) v543 
# hosted by the Cambridge Crystallographic Data Centre (CCDC).
#
# This work is licensed under the Creative Commons
# Attribution-NonCommercial-ShareAlike 4.0 International License.
# To view a copy of this license, visit
# http://creativecommons.org/licenses/by-nc-sa/4.0/
# or send a letter to
# Creative Commons, PO Box 1866, Mountain View, CA 94042, USA.
#
# CIF created using the CSD Python API on 29 September 2022
# The structure has been converted into the P1 space group
# The structure has a 3D framework
# The original CSD entry LOQSIU is in the rhombohedral crystal system
# The framework has been calculated to contain at least 10.0% void space
# The void calculation uses a probe of radius 1.32A, grid spacing 0.4
#
###############################################################################

data_LOQSIU
_chemical_formula_moiety         '(C1098 H1008 Eu28 N144 O360)n'
_symmetry_cell_setting           triclinic
_symmetry_space_group_name_H-M   'P 1'
_symmetry_Int_Tables_number      1
_space_group_name_Hall           'P 1'
loop_
_symmetry_equiv_pos_site_id
_symmetry_equiv_pos_as_xyz
1 x,y,z
_cell_length_a                   39.604(9)
_cell_length_b                   39.604(9)
_cell_length_c                   24.300(15)
_cell_angle_alpha                90
_cell_angle_beta                 90
_cell_angle_gamma                120
_cell_volume                     33007.7
loop_
_atom_site_label
_atom_site_type_symbol
_atom_site_fract_x
_atom_site_fract_y
_atom_site_fract_z
H122 H 0.0086 0.3163 0.8400
H124 H 0.0056 0.3697 0.8115
H36 H 0.6422 0.4752 0.0029
C39 C 0.6873(7) 0.5261(6) 0.0278(7)
H37 H 0.6787 0.5245 0.0639
C40 C 0.7221(8) 0.5555(6) 0.0139(7)
H38 H 0.7387 0.5717 0.0412
Eu5 Eu 0.31712(3) 0.13425(2) 0.03473(6)
Eu6 Eu 0.81713(4) 0.68288(3) 0.03473(6)
Eu7 Eu 0.86575(2) 0.18287(4) 0.03473(6)
H127 H 0.5248 0.1670 0.0029
H128 H 0.8330 0.3578 0.0029
C138 C 0.4739(6) 0.1612(9) 0.0278(7)
C139 C 0.8388(9) 0.3127(7) 0.0278(7)
H129 H 0.4755 0.1542 0.0639
H130 H 0.8458 0.3213 0.0639
C140 C 0.4445(6) 0.1666(10) 0.0139(7)
C141 C 0.8334(10) 0.2779(8) 0.0139(7)
H131 H 0.4283 0.1670 0.0412
H132 H 0.8330 0.2613 0.0412
Eu1 Eu 0.86575(2) 0.68288(3) 0.53473(6)
Eu2 Eu 0.6667 0.3333 0.63695(7)
N1 N 0.7526(7) 0.6046(7) 0.6060(11)
H1 H 0.7321 0.5942 0.6265
N2 N 0.5991(6) 0.5491(6) 0.7939(10)
H2 H 0.6176 0.5620 0.7708
N3 N 0.7940(7) 0.5945(6) 0.9046(9)
H3 H 0.7873 0.5731 0.8875
N4 N 0.6860(7) 0.4184(6) 0.7638(11)
H4 H 0.6959 0.4385 0.7849
N5 N 0.8886(7) 0.7413(6) 0.6191(8)
N6 N 0.9291(5) 0.7266(6) 0.4626(9)
N7 N 0.8998(5) 0.6413(6) 0.5859(9)
N8 N 0.6214(7) 0.3561(6) 0.5752(9)
O1 O 0.7361(4) 0.6020(4) 0.7189(7)
O2 O 0.6418(4) 0.5182(4) 0.7402(7)
O3 O 0.7209(4) 0.5458(4) 0.8672(7)
O4 O 0.7352(4) 0.4997(4) 0.7450(7)
O5 O 0.8082(5) 0.6557(4) 0.5860(8)
O6 O 0.5385(4) 0.4975(4) 0.8107(7)
O7 O 0.7921(5) 0.6264(5) 0.9806(8)
O8 O 0.6949(4) 0.3871(4) 0.6973(7)
O9 O 0.8958(6) 0.7142(5) 0.6257(8)
O10 O 0.8692(5) 0.7411(5) 0.5785(6)
O11 O 0.8915(7) 0.7629(6) 0.6595(8)
O12 O 0.9030(4) 0.6939(4) 0.4485(7)
O13 O 0.9273(5) 0.7420(5) 0.5063(7)
O14 O 0.9607(6) 0.7424(7) 0.4353(11)
O15 O 0.9170(5) 0.6641(5) 0.5467(8)
O16 O 0.8648(4) 0.6325(5) 0.5972(7)
O17 O 0.9124(6) 0.6202(7) 0.6038(10)
O18 O 0.6412(5) 0.3765(4) 0.6150(7)
O19 O 0.6194(7) 0.3240(5) 0.5661(9)
O20 O 0.6123(8) 0.3717(6) 0.5377(10)
C1 C 0.7076(5) 0.5407(5) 0.7693(9)
C2 C 0.7166(7) 0.5834(6) 0.7718(10)
H5 H 0.6927 0.5842 0.7761
H6 H 0.7336 0.5968 0.8027
C3 C 0.6781(6) 0.5208(6) 0.7239(10)
H7 H 0.6874 0.5356 0.6901
H8 H 0.6742 0.4949 0.7176
C4 C 0.6905(7) 0.5206(7) 0.8214(10)
H9 H 0.6864 0.4944 0.8208
H10 H 0.6657 0.5193 0.8280
C5 C 0.7479(6) 0.5426(6) 0.7593(11)
H11 H 0.7621 0.5600 0.7291
H12 H 0.7640 0.5512 0.7921
C6 C 0.7787(8) 0.6378(7) 0.6150(12)
C7 C 0.7747(7) 0.6607(6) 0.6722(10)
C8 C 0.7526(7) 0.6435(6) 0.7169(8)
C9 C 0.7503(7) 0.6643(5) 0.7582(10)
H13 H 0.7366 0.6520 0.7900
C10 C 0.7682(7) 0.7035(6) 0.7536(10)
H14 H 0.7649 0.7184 0.7804
C11 C 0.7905(8) 0.7202(7) 0.7103(9)
H15 H 0.8054 0.7473 0.7089
C12 C 0.7922(7) 0.6994(6) 0.6683(10)
H16 H 0.8057 0.7119 0.6365
C13 C 0.7557(8) 0.5846(6) 0.5649(14)
H17 H 0.7811 0.5865 0.5669
H18 H 0.7546 0.5965 0.5306
C14 C 0.7245(6) 0.5416(5) 0.5637(12)
C15 C 0.7294(6) 0.5124(7) 0.5867(13)
H19 H 0.7533 0.5180 0.6015
C16 C 0.6988(8) 0.4755(6) 0.5872(13)
H20 H 0.7006 0.4565 0.6073
C17 C 0.6657(7) 0.4657(6) 0.5595(13)
H21 H 0.6448 0.4403 0.5609
C18 C 0.6631(7) 0.4933(7) 0.5296(13)
H22 H 0.6429 0.4864 0.5048
C19 C 0.6906(7) 0.5308(6) 0.5368(12)
H23 H 0.6862 0.5501 0.5227
C20 C 0.5695(6) 0.5126(7) 0.7833(12)
C21 C 0.5742(7) 0.4902(6) 0.7310(10)
C22 C 0.6081(7) 0.4944(6) 0.7102(9)
C23 C 0.6085(7) 0.4761(7) 0.6641(10)
H24 H 0.6320 0.4794 0.6505
C24 C 0.5748(7) 0.4530(7) 0.6377(11)
H25 H 0.5749 0.4411 0.6047
C25 C 0.5422(7) 0.4475(7) 0.6587(10)
H26 H 0.5189 0.4299 0.6419
C26 C 0.5414(6) 0.4663(7) 0.7034(9)
H27 H 0.5176 0.4628 0.7158
C27 C 0.5973(8) 0.5652(9) 0.8477(11)
H28 H 0.5899 0.5455 0.8761
H29 H 0.5781 0.5736 0.8469
C28 C 0.6374(6) 0.5995(8) 0.8597(12)
C29 C 0.6624(6) 0.5978(8) 0.8974(12)
H30 H 0.6564 0.5744 0.9144
C30 C 0.6960(7) 0.6310(8) 0.9092(12)
H31 H 0.7151 0.6296 0.9297
C31 C 0.7024(6) 0.6662(9) 0.8915(13)
H32 H 0.7235 0.6889 0.9052
C32 C 0.6785(6) 0.6684(8) 0.8543(13)
H33 H 0.6837 0.6923 0.8400
C33 C 0.6466(7) 0.6348(7) 0.8383(11)
H34 H 0.6303 0.6359 0.8115
C34 C 0.7754(8) 0.5964(7) 0.9499(10)
C35 C 0.7338(8) 0.5622(6) 0.9596(8)
C36 C 0.7086(7) 0.5359(6) 0.9219(7)
C37 C 0.6733(8) 0.5060(6) 0.9361(7)
H35 H 0.6555 0.4907 0.9091
C38 C 0.6637(8) 0.4983(6) 0.9914(8)
C41 C 0.8265(8) 0.6322(6) 0.8871(10)
H39 H 0.8171 0.6501 0.8793
H40 H 0.8458 0.6432 0.9162
C42 C 0.8441(7) 0.6259(7) 0.8369(8)
C43 C 0.8378(6) 0.6444(8) 0.7938(11)
H41 H 0.8238 0.6573 0.7992
C44 C 0.8520(7) 0.6439(8) 0.7438(9)
H42 H 0.8487 0.6574 0.7150
C45 C 0.8712(8) 0.6238(9) 0.7347(9)
H43 H 0.8769 0.6198 0.6990
C46 C 0.8822(6) 0.6099(9) 0.7784(11)
H44 H 0.8998 0.6010 0.7739
C47 C 0.8669(7) 0.6093(8) 0.8283(9)
H45 H 0.8720 0.5974 0.8576
C48 C 0.7059(7) 0.4142(7) 0.7268(12)
C49 C 0.7506(6) 0.4548(5) 0.7117(11)
C50 C 0.7632(6) 0.4929(5) 0.7233(11)
C51 C 0.7994(6) 0.5209(6) 0.7129(12)
H46 H 0.8072 0.5470 0.7188
C52 C 0.8243(7) 0.5101(6) 0.6934(12)
H47 H 0.8508 0.5283 0.6926
C53 C 0.8124(6) 0.4742(5) 0.6753(11)
H48 H 0.8281 0.4687 0.6530
C54 C 0.7770(6) 0.4467(6) 0.6903(10)
H49 H 0.7703 0.4208 0.6859
C55 C 0.6477(9) 0.3892(8) 0.7690(14)
H50 H 0.6466 0.3647 0.7775
H51 H 0.6341 0.3861 0.7346
C56 C 0.6280(8) 0.4000(8) 0.8159(10)
C57 C 0.6033(8) 0.4136(8) 0.8005(9)
H52 H 0.6000 0.4172 0.7635
C58 C 0.5842(7) 0.4214(8) 0.8387(12)
H53 H 0.5674 0.4301 0.8277
C59 C 0.5884(8) 0.4172(8) 0.8929(11)
H54 H 0.5766 0.4251 0.9189
C60 C 0.6104(9) 0.4012(8) 0.9090(9)
H55 H 0.6114 0.3954 0.9458
C61 C 0.6305(8) 0.3940(8) 0.8708(12)
H56 H 0.6468 0.3847 0.8822
Eu3 Eu 0.31712(3) 0.18287(4) 0.53473(6)
Eu4 Eu 0.81713(4) 0.13425(2) 0.53473(6)
Eu8 Eu 0.53242(2) 0.01621(3) 0.86806(6)
Eu9 Eu 0.98379(3) 0.51620(4) 0.86806(6)
Eu10 Eu 0.48380(4) 0.46758(2) 0.86806(6)
N9 N 0.3954(7) 0.1480(10) 0.6060(11)
N10 N 0.8520(10) 0.2474(7) 0.6060(11)
H57 H 0.4058 0.1379 0.6265
H58 H 0.8621 0.2679 0.6265
N11 N 0.4509(6) 0.0500(8) 0.7939(10)
N12 N 0.9500(8) 0.4009(6) 0.7939(10)
H59 H 0.4380 0.0556 0.7708
H60 H 0.9444 0.3824 0.7708
N13 N 0.4055(6) 0.1995(9) 0.9046(9)
N14 N 0.8005(9) 0.2060(7) 0.9046(9)
H61 H 0.4269 0.2142 0.8875
H62 H 0.7858 0.2127 0.8875
N15 N 0.5816(6) 0.2676(9) 0.7638(11)
N16 N 0.7324(9) 0.3140(7) 0.7638(11)
H63 H 0.5615 0.2574 0.7849
H64 H 0.7426 0.3041 0.7849
N17 N 0.2587(6) 0.1473(9) 0.6191(8)
N18 N 0.8527(9) 0.1114(7) 0.6191(8)
N19 N 0.2734(6) 0.2025(8) 0.4626(9)
N20 N 0.7975(8) 0.0709(5) 0.4626(9)
N21 N 0.3587(6) 0.2585(8) 0.5859(9)
N22 N 0.7415(8) 0.1002(5) 0.5859(9)
N23 N 0.6439(6) 0.2653(9) 0.5752(9)
N24 N 0.7347(9) 0.3786(7) 0.5752(9)
O21 O 0.3980(4) 0.1341(6) 0.7189(7)
O22 O 0.8659(6) 0.2639(4) 0.7189(7)
O23 O 0.4818(4) 0.1236(6) 0.7402(7)
O24 O 0.8764(6) 0.3582(4) 0.7402(7)
O25 O 0.4542(4) 0.1751(6) 0.8672(7)
O26 O 0.8249(6) 0.2791(4) 0.8672(7)
O27 O 0.5003(4) 0.2355(6) 0.7450(7)
O28 O 0.7645(6) 0.2648(4) 0.7450(7)
O29 O 0.3443(4) 0.1525(6) 0.5860(8)
O30 O 0.8475(6) 0.1918(5) 0.5860(8)
O31 O 0.5025(4) 0.0410(6) 0.8107(7)
O32 O 0.9590(6) 0.4615(4) 0.8107(7)
O33 O 0.8718(4) 0.1642(4) 0.4774(7)
O34 O 0.8358(4) 0.7077(6) 0.4774(7)
O35 O 0.2923(6) 0.1282(4) 0.4774(7)
O36 O 0.3736(5) 0.1657(7) 0.9806(8)
O37 O 0.8343(7) 0.2079(5) 0.9806(8)
O38 O 0.3736(5) 0.2079(5) 0.4806(8)
O39 O 0.8343(7) 0.6264(5) 0.4806(8)
O40 O 0.7921(5) 0.1657(7) 0.4806(8)
O41 O 0.6129(4) 0.3078(6) 0.6973(7)
O42 O 0.6922(6) 0.3051(4) 0.6973(7)
O43 O 0.2858(5) 0.1816(8) 0.6257(8)
O44 O 0.8184(8) 0.1042(6) 0.6257(8)
O45 O 0.2589(5) 0.1281(7) 0.5785(6)
O46 O 0.8719(7) 0.1308(5) 0.5785(6)
O47 O 0.2371(6) 0.1286(9) 0.6595(8)
O48 O 0.8714(9) 0.1085(7) 0.6595(8)
O49 O 0.3061(4) 0.2091(6) 0.4485(7)
O50 O 0.7909(6) 0.0970(4) 0.4485(7)
O51 O 0.2580(5) 0.1853(7) 0.5063(7)
O52 O 0.8147(7) 0.0727(5) 0.5063(7)
O53 O 0.2576(7) 0.2183(9) 0.4353(11)
O54 O 0.7817(9) 0.0393(6) 0.4353(11)
O55 O 0.3359(5) 0.2529(7) 0.5467(8)
O56 O 0.7471(7) 0.0830(5) 0.5467(8)
O57 O 0.3675(5) 0.2323(6) 0.5972(7)
O58 O 0.7677(6) 0.1352(4) 0.5972(7)
O59 O 0.3798(7) 0.2922(9) 0.6038(10)
O60 O 0.7078(9) 0.0876(6) 0.6038(10)
O61 O 0.6235(4) 0.2647(6) 0.6150(7)
O62 O 0.7353(6) 0.3588(5) 0.6150(7)
O63 O 0.6760(5) 0.2954(9) 0.5661(9)
O64 O 0.7046(9) 0.3806(7) 0.5661(9)
O65 O 0.6283(6) 0.2406(10) 0.5377(10)
O66 O 0.7594(10) 0.3877(8) 0.5377(10)
C62 C 0.4593(5) 0.1669(7) 0.7693(9)
C63 C 0.8331(7) 0.2924(5) 0.7693(9)
C64 C 0.4166(6) 0.1332(9) 0.7718(10)
C65 C 0.8668(9) 0.2834(7) 0.7718(10)
H65 H 0.4158 0.1085 0.7761
H66 H 0.8915 0.3073 0.7761
H67 H 0.4032 0.1368 0.8027
H68 H 0.8632 0.2664 0.8027
C66 C 0.4792(6) 0.1573(8) 0.7239(10)
C67 C 0.8427(8) 0.3219(6) 0.7239(10)
H69 H 0.4644 0.1518 0.6901
H70 H 0.8482 0.3126 0.6901
H71 H 0.5051 0.1793 0.7176
H72 H 0.8207 0.3258 0.7176
C68 C 0.4794(7) 0.1699(10) 0.8214(10)
C69 C 0.8301(10) 0.3095(7) 0.8214(10)
H73 H 0.5056 0.1920 0.8208
H74 H 0.8080 0.3136 0.8208
H75 H 0.4807 0.1464 0.8280
H76 H 0.8536 0.3343 0.8280
C70 C 0.4574(6) 0.2053(8) 0.7593(11)
C71 C 0.7947(8) 0.2521(6) 0.7593(11)
H77 H 0.4400 0.2021 0.7291
H78 H 0.7979 0.2379 0.7291
H79 H 0.4488 0.2128 0.7921
H80 H 0.7872 0.2360 0.7921
C72 C 0.3622(7) 0.1409(11) 0.6150(12)
C73 C 0.8591(11) 0.2213(8) 0.6150(12)
C74 C 0.3393(6) 0.1140(9) 0.6722(10)
C75 C 0.8860(9) 0.2253(7) 0.6722(10)
C76 C 0.3565(6) 0.1091(9) 0.7169(8)
C77 C 0.8909(9) 0.2474(7) 0.7169(8)
C78 C 0.3357(5) 0.0860(9) 0.7582(10)
C79 C 0.9140(9) 0.2497(7) 0.7582(10)
H81 H 0.3480 0.0846 0.7900
H82 H 0.9154 0.2634 0.7900
C80 C 0.2965(6) 0.0647(9) 0.7536(10)
C81 C 0.9353(9) 0.2318(7) 0.7536(10)
H83 H 0.2816 0.0465 0.7804
H84 H 0.9535 0.2351 0.7804
C82 C 0.2798(7) 0.0703(11) 0.7103(9)
C83 C 0.9297(11) 0.2095(8) 0.7103(9)
H85 H 0.2527 0.0581 0.7089
H86 H 0.9419 0.1946 0.7089
C84 C 0.3006(6) 0.0928(9) 0.6683(10)
C85 C 0.9072(9) 0.2078(7) 0.6683(10)
H87 H 0.2881 0.0938 0.6365
H88 H 0.9062 0.1943 0.6365
C86 C 0.4154(6) 0.1711(10) 0.5649(14)
C87 C 0.8289(10) 0.2443(8) 0.5649(14)
H89 H 0.4135 0.1946 0.5669
H90 H 0.8054 0.2189 0.5669
H91 H 0.4035 0.1581 0.5306
H92 H 0.8419 0.2454 0.5306
C88 C 0.4584(5) 0.1829(8) 0.5637(12)
C89 C 0.8171(8) 0.2755(6) 0.5637(12)
C90 C 0.4876(7) 0.2170(9) 0.5867(13)
C91 C 0.7830(9) 0.2706(6) 0.5867(13)
H93 H 0.4820 0.2353 0.6015
H94 H 0.7647 0.2467 0.6015
C92 C 0.5245(6) 0.2233(10) 0.5872(13)
C93 C 0.7767(10) 0.3012(8) 0.5872(13)
H95 H 0.5435 0.2441 0.6073
H96 H 0.7559 0.2994 0.6073
C94 C 0.5343(6) 0.2000(9) 0.5595(13)
C95 C 0.8000(9) 0.3343(7) 0.5595(13)
H97 H 0.5597 0.2045 0.5609
H98 H 0.7955 0.3552 0.5609
C96 C 0.5067(7) 0.1698(10) 0.5296(13)
C97 C 0.8302(10) 0.3369(7) 0.5296(13)
H99 H 0.5136 0.1565 0.5048
H100 H 0.8435 0.3571 0.5048
C98 C 0.4692(6) 0.1598(9) 0.5368(12)
C99 C 0.8402(9) 0.3094(7) 0.5368(12)
H101 H 0.4499 0.1361 0.5227
H102 H 0.8639 0.3138 0.5227
C100 C 0.4874(7) 0.0569(9) 0.7833(12)
C101 C 0.9431(9) 0.4305(6) 0.7833(12)
C102 C 0.5098(6) 0.0840(9) 0.7310(10)
C103 C 0.9160(9) 0.4258(7) 0.7310(10)
C104 C 0.5056(6) 0.1137(9) 0.7102(9)
C105 C 0.8863(9) 0.3919(7) 0.7102(9)
C106 C 0.5239(7) 0.1324(10) 0.6641(10)
C107 C 0.8676(10) 0.3915(7) 0.6641(10)
H103 H 0.5206 0.1526 0.6505
H104 H 0.8474 0.3680 0.6505
C108 C 0.5470(7) 0.1218(10) 0.6377(11)
C109 C 0.8782(10) 0.4252(7) 0.6377(11)
H105 H 0.5589 0.1338 0.6047
H106 H 0.8662 0.4251 0.6047
C110 C 0.5525(7) 0.0947(10) 0.6587(10)
C111 C 0.9053(10) 0.4578(7) 0.6587(10)
H107 H 0.5701 0.0890 0.6419
H108 H 0.9110 0.4811 0.6419
C112 C 0.5337(7) 0.0751(9) 0.7034(9)
C113 C 0.9249(9) 0.4586(6) 0.7034(9)
H109 H 0.5372 0.0548 0.7158
H110 H 0.9452 0.4824 0.7158
C114 C 0.4348(9) 0.0321(12) 0.8477(11)
C115 C 0.9679(12) 0.4027(8) 0.8477(11)
H111 H 0.4545 0.0444 0.8761
H112 H 0.9556 0.4101 0.8761
H113 H 0.4264 0.0045 0.8469
H114 H 0.9955 0.4219 0.8469
C116 C 0.4005(8) 0.0379(10) 0.8597(12)
C117 C 0.9621(10) 0.3626(6) 0.8597(12)
C118 C 0.4022(8) 0.0646(10) 0.8974(12)
C119 C 0.9354(10) 0.3376(6) 0.8974(12)
H115 H 0.4256 0.0820 0.9144
H116 H 0.9180 0.3436 0.9144
C120 C 0.3690(8) 0.0650(11) 0.9092(12)
C121 C 0.9350(11) 0.3040(7) 0.9092(12)
H117 H 0.3704 0.0855 0.9297
H118 H 0.9145 0.2849 0.9297
C122 C 0.3338(9) 0.0362(11) 0.8915(13)
C123 C 0.9638(11) 0.2976(6) 0.8915(13)
H119 H 0.3111 0.0346 0.9052
H120 H 0.9654 0.2765 0.9052
C124 C 0.3316(8) 0.0101(10) 0.8543(13)
C125 C 0.9899(10) 0.3215(6) 0.8543(13)
C126 C 0.3652(7) 0.0118(10) 0.8383(11)
C127 C 0.9882(10) 0.3534(7) 0.8383(11)
C128 C 0.4036(7) 0.1790(11) 0.9499(10)
C129 C 0.8210(11) 0.2246(8) 0.9499(10)
C130 C 0.4378(6) 0.1716(10) 0.9596(8)
C131 C 0.8284(10) 0.2662(8) 0.9596(8)
C132 C 0.4641(6) 0.1727(9) 0.9219(7)
C133 C 0.8273(9) 0.2914(7) 0.9219(7)
C134 C 0.4940(6) 0.1673(10) 0.9361(7)
C135 C 0.8327(10) 0.3267(8) 0.9361(7)
H125 H 0.5093 0.1648 0.9091
H126 H 0.8352 0.3445 0.9091
C136 C 0.5017(6) 0.1654(10) 0.9914(8)
C137 C 0.8346(10) 0.3363(8) 0.9914(8)
C142 C 0.3678(6) 0.1943(10) 0.8871(10)
C143 C 0.8057(10) 0.1735(8) 0.8871(10)
H133 H 0.3499 0.1670 0.8793
H134 H 0.8330 0.1829 0.8793
H135 H 0.3568 0.2026 0.9162
H136 H 0.7974 0.1542 0.9162
C144 C 0.3741(7) 0.2182(10) 0.8369(8)
C145 C 0.7818(10) 0.1559(7) 0.8369(8)
C146 C 0.3556(8) 0.1934(10) 0.7938(11)
C147 C 0.8066(10) 0.1622(6) 0.7938(11)
H137 H 0.3427 0.1665 0.7992
H138 H 0.8335 0.1762 0.7992
C148 C 0.3561(8) 0.2081(11) 0.7438(9)
C149 C 0.7919(11) 0.1480(7) 0.7438(9)
H139 H 0.3426 0.1913 0.7150
H140 H 0.8087 0.1513 0.7150
C150 C 0.3762(9) 0.2474(12) 0.7347(9)
C151 C 0.7526(12) 0.1288(8) 0.7347(9)
H141 H 0.3802 0.2571 0.6990
H142 H 0.7429 0.1231 0.6990
C152 C 0.3901(9) 0.2723(11) 0.7784(11)
C153 C 0.7277(11) 0.1178(6) 0.7784(11)
H143 H 0.3990 0.2988 0.7739
H144 H 0.7012 0.1002 0.7739
C154 C 0.3907(8) 0.2576(11) 0.8283(9)
C155 C 0.7424(11) 0.1331(7) 0.8283(9)
H145 H 0.4026 0.2746 0.8576
H146 H 0.7254 0.1280 0.8576
C156 C 0.5858(7) 0.2917(10) 0.7268(12)
C157 C 0.7083(10) 0.2941(7) 0.7268(12)
C158 C 0.5452(5) 0.2958(8) 0.7117(11)
C159 C 0.7042(8) 0.2494(6) 0.7117(11)
C160 C 0.5071(5) 0.2703(8) 0.7233(11)
C161 C 0.7297(8) 0.2368(6) 0.7233(11)
C162 C 0.4791(6) 0.2785(8) 0.7129(12)
C163 C 0.7215(8) 0.2006(6) 0.7129(12)
H147 H 0.4530 0.2602 0.7188
H148 H 0.7398 0.1928 0.7188
C164 C 0.4899(6) 0.3142(9) 0.6934(12)
C165 C 0.6858(9) 0.1757(7) 0.6934(12)
H149 H 0.4717 0.3225 0.6926
H150 H 0.6775 0.1492 0.6926
C166 C 0.5258(5) 0.3382(8) 0.6753(11)
C167 C 0.6618(8) 0.1876(6) 0.6753(11)
H151 H 0.5313 0.3594 0.6530
H152 H 0.6406 0.1719 0.6530
C168 C 0.5533(6) 0.3303(8) 0.6903(10)
C169 C 0.6697(8) 0.2230(6) 0.6903(10)
H153 H 0.5792 0.3495 0.6859
H154 H 0.6505 0.2297 0.6859
C170 C 0.6108(8) 0.2585(12) 0.7690(14)
C171 C 0.7415(12) 0.3523(9) 0.7690(14)
H155 H 0.6353 0.2819 0.7775
H156 H 0.7181 0.3534 0.7775
H157 H 0.6139 0.2480 0.7346
H158 H 0.7520 0.3659 0.7346
C172 C 0.6000(8) 0.2280(11) 0.8159(10)
C173 C 0.7720(11) 0.3720(8) 0.8159(10)
C174 C 0.5864(8) 0.1897(11) 0.8005(9)
C175 C 0.8103(11) 0.3967(8) 0.8005(9)
H159 H 0.5828 0.1828 0.7635
H160 H 0.8172 0.4000 0.7635
C176 C 0.5786(8) 0.1628(11) 0.8387(12)
C177 C 0.8372(11) 0.4158(7) 0.8387(12)
H161 H 0.5699 0.1373 0.8277
H162 H 0.8627 0.4326 0.8277
C178 C 0.5828(8) 0.1712(11) 0.8929(11)
C179 C 0.8288(11) 0.4116(8) 0.8929(11)
H163 H 0.5749 0.1515 0.9189
H164 H 0.8485 0.4234 0.9189
C180 C 0.5988(8) 0.2092(12) 0.9090(9)
C181 C 0.7908(12) 0.3896(9) 0.9090(9)
H165 H 0.6046 0.2160 0.9458
H166 H 0.7840 0.3886 0.9458
C182 C 0.6060(8) 0.2365(11) 0.8708(12)
C183 C 0.7635(11) 0.3695(8) 0.8708(12)
H167 H 0.6153 0.2621 0.8822
H168 H 0.7379 0.3532 0.8822
Eu2_2 Eu 0.6667 0.3333 0.13695(7)
N1_2 N 0.3954(7) 0.2474(7) 0.1060(11)
H1_2 H 0.4058 0.2679 0.1265
N2_2 N 0.4509(6) 0.4009(6) 0.2939(10)
H2_2 H 0.4380 0.3824 0.2708
N3_2 N 0.4055(6) 0.2060(7) 0.4046(9)
H3_2 H 0.4269 0.2127 0.3875
N4_2 N 0.5816(6) 0.3140(7) 0.2638(11)
H4_2 H 0.5615 0.3041 0.2849
N5_2 N 0.2587(6) 0.1114(7) 0.1191(8)
N7_2 N 0.3587(6) 0.1002(5) 0.0859(9)
N8_2 N 0.6439(6) 0.3786(7) 0.0752(9)
O1_2 O 0.3980(4) 0.2639(4) 0.2189(7)
O2_2 O 0.4818(4) 0.3582(4) 0.2402(7)
O3_2 O 0.4542(4) 0.2791(4) 0.3672(7)
O4_2 O 0.5003(4) 0.2648(4) 0.2450(7)
O5_2 O 0.3443(4) 0.1918(5) 0.0860(8)
O6_2 O 0.5025(4) 0.4615(4) 0.3107(7)
O8_2 O 0.6129(4) 0.3051(4) 0.1973(7)
O9_2 O 0.2858(5) 0.1042(6) 0.1257(8)
O10_2 O 0.2589(5) 0.1308(5) 0.0785(6)
O11_2 O 0.2371(6) 0.1085(7) 0.1595(8)
O13_2 O 0.2580(5) 0.0727(5) 0.0063(7)
O15_2 O 0.3359(5) 0.0830(5) 0.0467(8)
O16_2 O 0.3675(5) 0.1352(4) 0.0972(7)
O17_2 O 0.3798(7) 0.0876(6) 0.1038(10)
O18_2 O 0.6235(4) 0.3588(5) 0.1150(7)
O19_2 O 0.6760(5) 0.3806(7) 0.0661(9)
O20_2 O 0.6283(6) 0.3877(8) 0.0377(10)
C1_2 C 0.4593(5) 0.2924(5) 0.2693(9)
C2_2 C 0.4166(6) 0.2834(7) 0.2718(10)
H5_2 H 0.4158 0.3073 0.2761
H6_2 H 0.4032 0.2664 0.3027
C3_2 C 0.4792(6) 0.3219(6) 0.2239(10)
H7_2 H 0.4644 0.3126 0.1901
H8_2 H 0.5051 0.3258 0.2176
C4_2 C 0.4794(7) 0.3095(7) 0.3214(10)
H9_2 H 0.5056 0.3136 0.3208
H10_2 H 0.4807 0.3343 0.3280
C5_2 C 0.4574(6) 0.2521(6) 0.2593(11)
H11_2 H 0.4400 0.2379 0.2291
H12_2 H 0.4488 0.2360 0.2921
C6_2 C 0.3622(7) 0.2213(8) 0.1150(12)
C7_2 C 0.3393(6) 0.2253(7) 0.1722(10)
C8_2 C 0.3565(6) 0.2474(7) 0.2169(8)
C9_2 C 0.3357(5) 0.2497(7) 0.2582(10)
H13_2 H 0.3480 0.2634 0.2900
C10_2 C 0.2965(6) 0.2318(7) 0.2536(10)
H14_2 H 0.2816 0.2351 0.2804
C11_2 C 0.2798(7) 0.2095(8) 0.2103(9)
H15_2 H 0.2527 0.1946 0.2089
C12_2 C 0.3006(6) 0.2078(7) 0.1683(10)
H16_2 H 0.2881 0.1943 0.1365
C13_2 C 0.4154(6) 0.2443(8) 0.0649(14)
H17_2 H 0.4135 0.2189 0.0669
H18_2 H 0.4035 0.2454 0.0306
C14_2 C 0.4584(5) 0.2755(6) 0.0637(12)
C15_2 C 0.4876(7) 0.2706(6) 0.0867(13)
H19_2 H 0.4820 0.2467 0.1015
C16_2 C 0.5245(6) 0.3012(8) 0.0872(13)
H20_2 H 0.5435 0.2994 0.1073
C17_2 C 0.5343(6) 0.3343(7) 0.0595(13)
H21_2 H 0.5597 0.3552 0.0609
C18_2 C 0.5067(7) 0.3369(7) 0.0296(13)
H22_2 H 0.5136 0.3571 0.0048
C19_2 C 0.4692(6) 0.3094(7) 0.0368(12)
H23_2 H 0.4499 0.3138 0.0227
C20_2 C 0.4874(7) 0.4305(6) 0.2833(12)
C21_2 C 0.5098(6) 0.4258(7) 0.2310(10)
C22_2 C 0.5056(6) 0.3919(7) 0.2102(9)
C23_2 C 0.5239(7) 0.3915(7) 0.1641(10)
H24_2 H 0.5206 0.3680 0.1505
C24_2 C 0.5470(7) 0.4252(7) 0.1377(11)
H25_2 H 0.5589 0.4251 0.1047
C25_2 C 0.5525(7) 0.4578(7) 0.1587(10)
H26_2 H 0.5701 0.4811 0.1419
C26_2 C 0.5337(7) 0.4586(6) 0.2034(9)
H27_2 H 0.5372 0.4824 0.2158
C27_2 C 0.4348(9) 0.4027(8) 0.3477(11)
H28_2 H 0.4545 0.4101 0.3761
H29_2 H 0.4264 0.4219 0.3469
C28_2 C 0.4005(8) 0.3626(6) 0.3597(12)
C29_2 C 0.4022(8) 0.3376(6) 0.3974(12)
H30_2 H 0.4256 0.3436 0.4144
C30_2 C 0.3690(8) 0.3040(7) 0.4092(12)
H31_2 H 0.3704 0.2849 0.4297
C31_2 C 0.3338(9) 0.2976(6) 0.3915(13)
H32_2 H 0.3111 0.2765 0.4052
C32_2 C 0.3316(8) 0.3215(6) 0.3543(13)
H33_2 H 0.3077 0.3163 0.3400
C33_2 C 0.3652(7) 0.3534(7) 0.3383(11)
H34_2 H 0.3641 0.3697 0.3115
C34_2 C 0.4036(7) 0.2246(8) 0.4499(10)
C35_2 C 0.4378(6) 0.2662(8) 0.4596(8)
C36_2 C 0.4641(6) 0.2914(7) 0.4219(7)
C37_2 C 0.4940(6) 0.3267(8) 0.4361(7)
H35_2 H 0.5093 0.3445 0.4091
C38_2 C 0.5017(6) 0.3363(8) 0.4914(8)
H36_2 H 0.5248 0.3578 0.5029
C39_2 C 0.4739(6) 0.3127(7) 0.5278(7)
H37_2 H 0.4755 0.3213 0.5639
C40_2 C 0.4445(6) 0.2779(8) 0.5139(7)
H38_2 H 0.4283 0.2613 0.5412
C41_2 C 0.3678(6) 0.1735(8) 0.3871(10)
H39_2 H 0.3499 0.1829 0.3793
H40_2 H 0.3568 0.1542 0.4162
C42_2 C 0.3741(7) 0.1559(7) 0.3369(8)
C43_2 C 0.3556(8) 0.1622(6) 0.2938(11)
H41_2 H 0.3427 0.1762 0.2992
C44_2 C 0.3561(8) 0.1480(7) 0.2438(9)
H42_2 H 0.3426 0.1513 0.2150
C45_2 C 0.3762(9) 0.1288(8) 0.2347(9)
H43_2 H 0.3802 0.1231 0.1990
C46_2 C 0.3901(9) 0.1178(6) 0.2784(11)
H44_2 H 0.3990 0.1002 0.2739
C47_2 C 0.3907(8) 0.1331(7) 0.3283(9)
H45_2 H 0.4026 0.1280 0.3576
C48_2 C 0.5858(7) 0.2941(7) 0.2268(12)
C49_2 C 0.5452(5) 0.2494(6) 0.2117(11)
C50_2 C 0.5071(5) 0.2368(6) 0.2233(11)
C51_2 C 0.4791(6) 0.2006(6) 0.2129(12)
H46_2 H 0.4530 0.1928 0.2188
C52_2 C 0.4899(6) 0.1757(7) 0.1934(12)
H47_2 H 0.4717 0.1492 0.1926
C53_2 C 0.5258(5) 0.1876(6) 0.1753(11)
H48_2 H 0.5313 0.1719 0.1530
C54_2 C 0.5533(6) 0.2230(6) 0.1903(10)
H49_2 H 0.5792 0.2297 0.1859
C55_2 C 0.6108(8) 0.3523(9) 0.2690(14)
H50_2 H 0.6353 0.3534 0.2775
H51_2 H 0.6139 0.3659 0.2346
C56_2 C 0.6000(8) 0.3720(8) 0.3159(10)
C57_2 C 0.5864(8) 0.3967(8) 0.3005(9)
H52_2 H 0.5828 0.4000 0.2635
C58_2 C 0.5786(8) 0.4158(7) 0.3387(12)
H53_2 H 0.5699 0.4326 0.3277
C59_2 C 0.5828(8) 0.4116(8) 0.3929(11)
H54_2 H 0.5749 0.4234 0.4189
C60_2 C 0.5988(8) 0.3896(9) 0.4090(9)
H55_2 H 0.6046 0.3886 0.4458
C61_2 C 0.6060(8) 0.3695(8) 0.3708(12)
H56_2 H 0.6153 0.3532 0.3822
Eu8_2 Eu 0.98379(3) 0.46758(2) 0.36806(6)
Eu9_2 Eu 0.48380(4) 0.01621(3) 0.36806(6)
Eu10_2 Eu 0.53242(2) 0.51620(4) 0.36806(6)
N9_2 N 0.8520(10) 0.6046(7) 0.1060(11)
N10_2 N 0.7526(7) 0.1480(10) 0.1060(11)
H57_2 H 0.8621 0.5942 0.1265
H58_2 H 0.7321 0.1379 0.1265
N11_2 N 0.9500(8) 0.5491(6) 0.2939(10)
N12_2 N 0.5991(6) 0.0500(8) 0.2939(10)
H59_2 H 0.9444 0.5620 0.2708
H60_2 H 0.6176 0.0556 0.2708
N13_2 N 0.8005(9) 0.5945(6) 0.4046(9)
N14_2 N 0.7940(7) 0.1995(9) 0.4046(9)
H61_2 H 0.7858 0.5731 0.3875
H62_2 H 0.7873 0.2142 0.3875
N15_2 N 0.7324(9) 0.4184(6) 0.2638(11)
N16_2 N 0.6860(7) 0.2676(9) 0.2638(11)
H63_2 H 0.7426 0.4385 0.2849
H64_2 H 0.6959 0.2574 0.2849
N17_2 N 0.8527(9) 0.7413(6) 0.1191(8)
N18_2 N 0.8886(7) 0.1473(9) 0.1191(8)
N21_2 N 0.7415(8) 0.6413(6) 0.0859(9)
N22_2 N 0.8998(5) 0.2585(8) 0.0859(9)
N23_2 N 0.7347(9) 0.3561(6) 0.0752(9)
N24_2 N 0.6214(7) 0.2653(9) 0.0752(9)
O21_2 O 0.8659(6) 0.6020(4) 0.2189(7)
O22_2 O 0.7361(4) 0.1341(6) 0.2189(7)
O23_2 O 0.8764(6) 0.5182(4) 0.2402(7)
O24_2 O 0.6418(4) 0.1236(6) 0.2402(7)
O25_2 O 0.8249(6) 0.5458(4) 0.3672(7)
O26_2 O 0.7209(4) 0.1751(6) 0.3672(7)
O27_2 O 0.7645(6) 0.4997(4) 0.2450(7)
O28_2 O 0.7352(4) 0.2355(6) 0.2450(7)
O29_2 O 0.8475(6) 0.6557(4) 0.0860(8)
O30_2 O 0.8082(5) 0.1525(6) 0.0860(8)
O31_2 O 0.9590(6) 0.4975(4) 0.3107(7)
O32_2 O 0.5385(4) 0.0410(6) 0.3107(7)
O41_2 O 0.6922(6) 0.3871(4) 0.1973(7)
O42_2 O 0.6949(4) 0.3078(6) 0.1973(7)
O43_2 O 0.8184(8) 0.7142(5) 0.1257(8)
O44_2 O 0.8958(6) 0.1816(8) 0.1257(8)
O45_2 O 0.8719(7) 0.7411(5) 0.0785(6)
O46_2 O 0.8692(5) 0.1281(7) 0.0785(6)
O47_2 O 0.8714(9) 0.7629(6) 0.1595(8)
O48_2 O 0.8915(7) 0.1286(9) 0.1595(8)
O51_2 O 0.8147(7) 0.7420(5) 0.0063(7)
O52_2 O 0.9273(5) 0.1853(7) 0.0063(7)
O55_2 O 0.7471(7) 0.6641(5) 0.0467(8)
O56_2 O 0.9170(5) 0.2529(7) 0.0467(8)
O57_2 O 0.7677(6) 0.6325(5) 0.0972(7)
O58_2 O 0.8648(4) 0.2323(6) 0.0972(7)
O59_2 O 0.7078(9) 0.6202(7) 0.1038(10)
O60_2 O 0.9124(6) 0.2922(9) 0.1038(10)
O61_2 O 0.7353(6) 0.3765(4) 0.1150(7)
O62_2 O 0.6412(5) 0.2647(6) 0.1150(7)
O63_2 O 0.7046(9) 0.3240(5) 0.0661(9)
O64_2 O 0.6194(7) 0.2954(9) 0.0661(9)
O65_2 O 0.7594(10) 0.3717(6) 0.0377(10)
O66_2 O 0.6123(8) 0.2406(10) 0.0377(10)
C62_2 C 0.8331(7) 0.5407(5) 0.2693(9)
C63_2 C 0.7076(5) 0.1669(7) 0.2693(9)
C64_2 C 0.8668(9) 0.5834(6) 0.2718(10)
C65_2 C 0.7166(7) 0.1332(9) 0.2718(10)
H65_2 H 0.8915 0.5842 0.2761
H66_2 H 0.6927 0.1085 0.2761
H67_2 H 0.8632 0.5968 0.3027
H68_2 H 0.7336 0.1368 0.3027
C66_2 C 0.8427(8) 0.5208(6) 0.2239(10)
C67_2 C 0.6781(6) 0.1573(8) 0.2239(10)
H69_2 H 0.8482 0.5356 0.1901
H70_2 H 0.6874 0.1518 0.1901
H71_2 H 0.8207 0.4949 0.2176
H72_2 H 0.6742 0.1793 0.2176
C68_2 C 0.8301(10) 0.5206(7) 0.3214(10)
C69_2 C 0.6905(7) 0.1699(10) 0.3214(10)
H73_2 H 0.8080 0.4944 0.3208
H74_2 H 0.6864 0.1920 0.3208
H75_2 H 0.8536 0.5193 0.3280
H76_2 H 0.6657 0.1464 0.3280
C70_2 C 0.7947(8) 0.5426(6) 0.2593(11)
C71_2 C 0.7479(6) 0.2053(8) 0.2593(11)
H77_2 H 0.7979 0.5600 0.2291
H78_2 H 0.7621 0.2021 0.2291
H79_2 H 0.7872 0.5512 0.2921
H80_2 H 0.7640 0.2128 0.2921
C72_2 C 0.8591(11) 0.6378(7) 0.1150(12)
C73_2 C 0.7787(8) 0.1409(11) 0.1150(12)
C74_2 C 0.8860(9) 0.6607(6) 0.1722(10)
C75_2 C 0.7747(7) 0.1140(9) 0.1722(10)
C76_2 C 0.8909(9) 0.6435(6) 0.2169(8)
C77_2 C 0.7526(7) 0.1091(9) 0.2169(8)
C78_2 C 0.9140(9) 0.6643(5) 0.2582(10)
C79_2 C 0.7503(7) 0.0860(9) 0.2582(10)
H81_2 H 0.9154 0.6520 0.2900
H82_2 H 0.7366 0.0846 0.2900
C80_2 C 0.9353(9) 0.7035(6) 0.2536(10)
C81_2 C 0.7682(7) 0.0647(9) 0.2536(10)
H83_2 H 0.9535 0.7184 0.2804
H84_2 H 0.7649 0.0465 0.2804
C82_2 C 0.9297(11) 0.7202(7) 0.2103(9)
C83_2 C 0.7905(8) 0.0703(11) 0.2103(9)
H85_2 H 0.9419 0.7473 0.2089
H86_2 H 0.8054 0.0581 0.2089
C84_2 C 0.9072(9) 0.6994(6) 0.1683(10)
C85_2 C 0.7922(7) 0.0928(9) 0.1683(10)
H87_2 H 0.9062 0.7119 0.1365
H88_2 H 0.8057 0.0938 0.1365
C86_2 C 0.8289(10) 0.5846(6) 0.0649(14)
C87_2 C 0.7557(8) 0.1711(10) 0.0649(14)
H89_2 H 0.8054 0.5865 0.0669
H90_2 H 0.7811 0.1946 0.0669
H91_2 H 0.8419 0.5965 0.0306
H92_2 H 0.7546 0.1581 0.0306
C88_2 C 0.8171(8) 0.5416(5) 0.0637(12)
C89_2 C 0.7245(6) 0.1829(8) 0.0637(12)
C90_2 C 0.7830(9) 0.5124(7) 0.0867(13)
C91_2 C 0.7294(6) 0.2170(9) 0.0867(13)
H93_2 H 0.7647 0.5180 0.1015
H94_2 H 0.7533 0.2353 0.1015
C92_2 C 0.7767(10) 0.4755(6) 0.0872(13)
C93_2 C 0.6988(8) 0.2233(10) 0.0872(13)
H95_2 H 0.7559 0.4565 0.1073
H96_2 H 0.7006 0.2441 0.1073
C94_2 C 0.8000(9) 0.4657(6) 0.0595(13)
C95_2 C 0.6657(7) 0.2000(9) 0.0595(13)
H97_2 H 0.7955 0.4403 0.0609
H98_2 H 0.6448 0.2045 0.0609
C96_2 C 0.8302(10) 0.4933(7) 0.0296(13)
C97_2 C 0.6631(7) 0.1698(10) 0.0296(13)
H99_2 H 0.8435 0.4864 0.0048
H100_2 H 0.6429 0.1565 0.0048
C98_2 C 0.8402(9) 0.5308(6) 0.0368(12)
C99_2 C 0.6906(7) 0.1598(9) 0.0368(12)
H101_2 H 0.8639 0.5501 0.0227
H102_2 H 0.6862 0.1361 0.0227
C100_2 C 0.9431(9) 0.5126(7) 0.2833(12)
C101_2 C 0.5695(6) 0.0569(9) 0.2833(12)
C102_2 C 0.9160(9) 0.4902(6) 0.2310(10)
C103_2 C 0.5742(7) 0.0840(9) 0.2310(10)
C104_2 C 0.8863(9) 0.4944(6) 0.2102(9)
C105_2 C 0.6081(7) 0.1137(9) 0.2102(9)
C106_2 C 0.8676(10) 0.4761(7) 0.1641(10)
C107_2 C 0.6085(7) 0.1324(10) 0.1641(10)
H103_2 H 0.8474 0.4794 0.1505
H104_2 H 0.6320 0.1526 0.1505
C108_2 C 0.8782(10) 0.4530(7) 0.1377(11)
C109_2 C 0.5748(7) 0.1218(10) 0.1377(11)
H105_2 H 0.8662 0.4411 0.1047
H106_2 H 0.5749 0.1338 0.1047
C110_2 C 0.9053(10) 0.4475(7) 0.1587(10)
C111_2 C 0.5422(7) 0.0947(10) 0.1587(10)
H107_2 H 0.9110 0.4299 0.1419
H108_2 H 0.5189 0.0890 0.1419
C112_2 C 0.9249(9) 0.4663(7) 0.2034(9)
C113_2 C 0.5414(6) 0.0751(9) 0.2034(9)
H109_2 H 0.9452 0.4628 0.2158
H110_2 H 0.5176 0.0548 0.2158
C114_2 C 0.9679(12) 0.5652(9) 0.3477(11)
C115_2 C 0.5973(8) 0.0321(12) 0.3477(11)
H111_2 H 0.9556 0.5455 0.3761
H112_2 H 0.5899 0.0444 0.3761
H113_2 H 0.9955 0.5736 0.3469
H114_2 H 0.5781 0.0045 0.3469
C116_2 C 0.9621(10) 0.5995(8) 0.3597(12)
C117_2 C 0.6374(6) 0.0379(10) 0.3597(12)
C118_2 C 0.9354(10) 0.5978(8) 0.3974(12)
C119_2 C 0.6624(6) 0.0646(10) 0.3974(12)
H115_2 H 0.9180 0.5744 0.4144
H116_2 H 0.6564 0.0820 0.4144
C120_2 C 0.9350(11) 0.6310(8) 0.4092(12)
C121_2 C 0.6960(7) 0.0650(11) 0.4092(12)
H117_2 H 0.9145 0.6296 0.4297
H118_2 H 0.7151 0.0855 0.4297
C122_2 C 0.9638(11) 0.6662(9) 0.3915(13)
C123_2 C 0.7024(6) 0.0362(11) 0.3915(13)
H119_2 H 0.9654 0.6889 0.4052
H120_2 H 0.7235 0.0346 0.4052
C124_2 C 0.9899(10) 0.6684(8) 0.3543(13)
C125_2 C 0.6785(6) 0.0101(10) 0.3543(13)
C126_2 C 0.9882(10) 0.6348(7) 0.3383(11)
C127_2 C 0.6466(7) 0.0118(10) 0.3383(11)
C128_2 C 0.8210(11) 0.5964(7) 0.4499(10)
C129_2 C 0.7754(8) 0.1790(11) 0.4499(10)
C130_2 C 0.8284(10) 0.5622(6) 0.4596(8)
C131_2 C 0.7338(8) 0.1716(10) 0.4596(8)
C132_2 C 0.8273(9) 0.5359(6) 0.4219(7)
C133_2 C 0.7086(7) 0.1727(9) 0.4219(7)
C134_2 C 0.8327(10) 0.5060(6) 0.4361(7)
C135_2 C 0.6733(8) 0.1673(10) 0.4361(7)
H125_2 H 0.8352 0.4907 0.4091
H126_2 H 0.6555 0.1648 0.4091
C136_2 C 0.8346(10) 0.4983(6) 0.4914(8)
C137_2 C 0.6637(8) 0.1654(10) 0.4914(8)
H127_2 H 0.8330 0.4752 0.5029
H128_2 H 0.6422 0.1670 0.5029
C138_2 C 0.8388(9) 0.5261(6) 0.5278(7)
C139_2 C 0.6873(7) 0.1612(9) 0.5278(7)
H129_2 H 0.8458 0.5245 0.5639
H130_2 H 0.6787 0.1542 0.5639
C140_2 C 0.8334(10) 0.5555(6) 0.5139(7)
C141_2 C 0.7221(8) 0.1666(10) 0.5139(7)
H131_2 H 0.8330 0.5717 0.5412
H132_2 H 0.7387 0.1670 0.5412
C142_2 C 0.8057(10) 0.6322(6) 0.3871(10)
C143_2 C 0.8265(8) 0.1943(10) 0.3871(10)
H133_2 H 0.8330 0.6501 0.3793
H134_2 H 0.8171 0.1670 0.3793
H135_2 H 0.7974 0.6432 0.4162
H136_2 H 0.8458 0.2026 0.4162
C144_2 C 0.7818(10) 0.6259(7) 0.3369(8)
C145_2 C 0.8441(7) 0.2182(10) 0.3369(8)
C146_2 C 0.8066(10) 0.6444(8) 0.2938(11)
C147_2 C 0.8378(6) 0.1934(10) 0.2938(11)
H137_2 H 0.8335 0.6573 0.2992
H138_2 H 0.8238 0.1665 0.2992
C148_2 C 0.7919(11) 0.6439(8) 0.2438(9)
C149_2 C 0.8520(7) 0.2081(11) 0.2438(9)
H139_2 H 0.8087 0.6574 0.2150
H140_2 H 0.8487 0.1913 0.2150
C150_2 C 0.7526(12) 0.6238(9) 0.2347(9)
C151_2 C 0.8712(8) 0.2474(12) 0.2347(9)
H141_2 H 0.7429 0.6198 0.1990
H142_2 H 0.8769 0.2571 0.1990
C152_2 C 0.7277(11) 0.6099(9) 0.2784(11)
C153_2 C 0.8822(6) 0.2723(11) 0.2784(11)
H143_2 H 0.7012 0.6010 0.2739
H144_2 H 0.8998 0.2988 0.2739
C154_2 C 0.7424(11) 0.6093(8) 0.3283(9)
C155_2 C 0.8669(7) 0.2576(11) 0.3283(9)
H145_2 H 0.7254 0.5974 0.3576
H146_2 H 0.8720 0.2746 0.3576
C156_2 C 0.7083(10) 0.4142(7) 0.2268(12)
C157_2 C 0.7059(7) 0.2917(10) 0.2268(12)
C158_2 C 0.7042(8) 0.4548(5) 0.2117(11)
C159_2 C 0.7506(6) 0.2958(8) 0.2117(11)
C160_2 C 0.7297(8) 0.4929(5) 0.2233(11)
C161_2 C 0.7632(6) 0.2703(8) 0.2233(11)
C162_2 C 0.7215(8) 0.5209(6) 0.2129(12)
C163_2 C 0.7994(6) 0.2785(8) 0.2129(12)
H147_2 H 0.7398 0.5470 0.2188
H148_2 H 0.8072 0.2602 0.2188
C164_2 C 0.6858(9) 0.5101(6) 0.1934(12)
C165_2 C 0.8243(7) 0.3142(9) 0.1934(12)
H149_2 H 0.6775 0.5283 0.1926
H150_2 H 0.8508 0.3225 0.1926
C166_2 C 0.6618(8) 0.4742(5) 0.1753(11)
C167_2 C 0.8124(6) 0.3382(8) 0.1753(11)
H151_2 H 0.6406 0.4687 0.1530
H152_2 H 0.8281 0.3594 0.1530
C168_2 C 0.6697(8) 0.4467(6) 0.1903(10)
C169_2 C 0.7770(6) 0.3303(8) 0.1903(10)
H153_2 H 0.6505 0.4208 0.1859
H154_2 H 0.7703 0.3495 0.1859
C170_2 C 0.7415(12) 0.3892(8) 0.2690(14)
C171_2 C 0.6477(9) 0.2585(12) 0.2690(14)
H155_2 H 0.7181 0.3647 0.2775
H156_2 H 0.6466 0.2819 0.2775
H157_2 H 0.7520 0.3861 0.2346
H158_2 H 0.6341 0.2480 0.2346
C172_2 C 0.7720(11) 0.4000(8) 0.3159(10)
C173_2 C 0.6280(8) 0.2280(11) 0.3159(10)
C174_2 C 0.8103(11) 0.4136(8) 0.3005(9)
C175_2 C 0.6033(8) 0.1897(11) 0.3005(9)
H159_2 H 0.8172 0.4172 0.2635
H160_2 H 0.6000 0.1828 0.2635
C176_2 C 0.8372(11) 0.4214(8) 0.3387(12)
C177_2 C 0.5842(7) 0.1628(11) 0.3387(12)
H161_2 H 0.8627 0.4301 0.3277
H162_2 H 0.5674 0.1373 0.3277
C178_2 C 0.8288(11) 0.4172(8) 0.3929(11)
C179_2 C 0.5884(8) 0.1712(11) 0.3929(11)
H163_2 H 0.8485 0.4251 0.4189
H164_2 H 0.5766 0.1515 0.4189
C180_2 C 0.7908(12) 0.4012(8) 0.4090(9)
C181_2 C 0.6104(9) 0.2092(12) 0.4090(9)
H165_2 H 0.7840 0.3954 0.4458
H166_2 H 0.6114 0.2160 0.4458
C182_2 C 0.7635(11) 0.3940(8) 0.3708(12)
C183_2 C 0.6305(8) 0.2365(11) 0.3708(12)
H167_2 H 0.7379 0.3847 0.3822
H168_2 H 0.6468 0.2621 0.3822
N6_2 N 0.2734(6) 0.0709(5) 0.9626(9)
O12_2 O 0.3061(4) 0.0970(4) 0.9485(7)
O14_2 O 0.2576(7) 0.0393(6) 0.9353(11)
N19_2 N 0.7975(8) 0.7266(6) 0.9626(9)
N20_2 N 0.9291(5) 0.2025(8) 0.9626(9)
O33_2 O 0.8358(4) 0.1282(4) 0.9774(7)
O34_2 O 0.2923(6) 0.1642(4) 0.9774(7)
O35_2 O 0.8718(4) 0.7077(6) 0.9774(7)
O49_2 O 0.7909(6) 0.6939(4) 0.9485(7)
O50_2 O 0.9030(4) 0.2091(6) 0.9485(7)
O53_2 O 0.7817(9) 0.7424(7) 0.9353(11)
O54_2 O 0.9607(6) 0.2183(9) 0.9353(11)
C10_3 C 0.4349(7) 0.0368(6) 0.0869(10)
H14_3 H 0.4316 0.0517 0.1137
C11_3 C 0.4572(8) 0.0535(7) 0.0436(9)
H15_3 H 0.4721 0.0806 0.0422
C12_3 C 0.4589(7) 0.0327(6) 0.0016(10)
H32_3 H 0.3902 0.0222 0.2385
C32_3 C 0.3452(6) 0.0017(8) 0.1876(13)
H33_3 H 0.3504 0.0256 0.1733
N5_3 N 0.5553(7) 0.0746(6) 0.9524(8)
N6_3 N 0.5958(5) 0.0599(6) 0.7959(9)
O9_3 O 0.5625(6) 0.0475(5) 0.9590(8)
O10_3 O 0.5359(5) 0.0744(5) 0.9118(6)
O11_3 O 0.5582(7) 0.0962(6) 0.9928(8)
O12_3 O 0.5697(4) 0.0272(4) 0.7818(7)
O13_3 O 0.5940(5) 0.0753(5) 0.8396(7)
O14_3 O 0.6274(6) 0.0757(7) 0.7686(11)
H16_3 H 0.4724 0.0452 0.9698
N2_3 N 0.2658(6) 0.8824(6) 0.1272(10)
H2_3 H 0.2843 0.8953 0.1041
N3_3 N 0.4607(7) 0.9278(6) 0.2379(9)
H3_3 H 0.4540 0.9064 0.2208
N4_3 N 0.3527(7) 0.7517(6) 0.0971(11)
H4_3 H 0.3626 0.7718 0.1182
O1_3 O 0.4028(4) 0.9353(4) 0.0522(7)
O2_3 O 0.3085(4) 0.8515(4) 0.0735(7)
O3_3 O 0.3876(4) 0.8791(4) 0.2005(7)
O4_3 O 0.4019(4) 0.8330(4) 0.0783(7)
O6_3 O 0.2052(4) 0.8308(4) 0.1440(7)
O7_2 O 0.4588(5) 0.9597(5) 0.3139(8)
O8_3 O 0.3616(4) 0.7204(4) 0.0306(7)
C1_3 C 0.3743(5) 0.8740(5) 0.1026(9)
C2_3 C 0.3833(7) 0.9167(6) 0.1051(10)
H5_3 H 0.3594 0.9175 0.1094
H6_3 H 0.4003 0.9301 0.1360
C3_3 C 0.3448(6) 0.8541(6) 0.0572(10)
H7_3 H 0.3541 0.8689 0.0234
H8_3 H 0.3409 0.8282 0.0509
C4_3 C 0.3572(7) 0.8539(7) 0.1547(10)
H9_3 H 0.3531 0.8277 0.1541
H10_3 H 0.3324 0.8526 0.1613
C5_3 C 0.4146(6) 0.8759(6) 0.0926(11)
H11_3 H 0.4288 0.8933 0.0624
H12_3 H 0.4307 0.8845 0.1254
C7_3 C 0.4414(7) 0.9940(6) 0.0055(10)
C8_3 C 0.4193(7) 0.9768(6) 0.0502(8)
C9_3 C 0.4170(7) 0.9976(5) 0.0915(10)
H13_3 H 0.4033 0.9853 0.1233
C20_3 C 0.2362(6) 0.8459(7) 0.1166(12)
C21_3 C 0.2409(7) 0.8235(6) 0.0643(10)
C22_3 C 0.2748(7) 0.8277(6) 0.0435(9)
C26_3 C 0.2081(6) 0.7996(7) 0.0367(9)
H27_3 H 0.1843 0.7961 0.0491
C27_3 C 0.2640(8) 0.8985(9) 0.1810(11)
H28_3 H 0.2566 0.8788 0.2094
H29_3 H 0.2448 0.9069 0.1802
C28_3 C 0.3041(6) 0.9328(8) 0.1930(12)
C29_3 C 0.3291(6) 0.9311(8) 0.2307(12)
H30_3 H 0.3231 0.9077 0.2477
C30_3 C 0.3627(7) 0.9643(8) 0.2425(12)
H31_3 H 0.3818 0.9629 0.2630
C31_3 C 0.3691(6) 0.9995(9) 0.2248(13)
C33_3 C 0.3133(7) 0.9681(7) 0.1716(11)
H34_3 H 0.2970 0.9692 0.1448
C34_3 C 0.4421(8) 0.9297(7) 0.2832(10)
C35_3 C 0.4005(8) 0.8955(6) 0.2929(8)
C36_3 C 0.3753(7) 0.8692(6) 0.2552(7)
C37_3 C 0.3400(8) 0.8393(6) 0.2694(7)
H35_3 H 0.3222 0.8240 0.2424
C38_3 C 0.3304(8) 0.8316(6) 0.3247(8)
H36_3 H 0.3089 0.8085 0.3362
C39_3 C 0.3540(7) 0.8594(6) 0.3611(7)
H37_3 H 0.3454 0.8578 0.3972
C40_3 C 0.3888(8) 0.8888(6) 0.3472(7)
H38_3 H 0.4054 0.9050 0.3745
C41_3 C 0.4932(8) 0.9655(6) 0.2204(10)
H39_3 H 0.4838 0.9834 0.2126
H40_3 H 0.5125 0.9765 0.2495
C42_3 C 0.5108(7) 0.9592(7) 0.1702(8)
C43_3 C 0.5045(6) 0.9777(8) 0.1271(11)
H41_3 H 0.4905 0.9906 0.1325
C44_3 C 0.5187(7) 0.9772(8) 0.0771(9)
H42_3 H 0.5154 0.9907 0.0483
C45_3 C 0.5379(8) 0.9571(9) 0.0680(9)
H43_3 H 0.5436 0.9531 0.0323
C46_3 C 0.5489(6) 0.9432(9) 0.1117(11)
H44_3 H 0.5665 0.9343 0.1072
C47_3 C 0.5336(7) 0.9426(8) 0.1616(9)
H45_3 H 0.5387 0.9307 0.1909
C48_3 C 0.3726(7) 0.7475(7) 0.0601(12)
C49_3 C 0.4173(6) 0.7881(5) 0.0450(11)
C50_3 C 0.4299(6) 0.8262(5) 0.0566(11)
C51_3 C 0.4661(6) 0.8542(6) 0.0462(12)
H46_3 H 0.4739 0.8803 0.0521
C52_3 C 0.4910(7) 0.8434(6) 0.0267(12)
H47_3 H 0.5175 0.8616 0.0259
C53_3 C 0.4791(6) 0.8075(5) 0.0086(11)
C54_3 C 0.4437(6) 0.7800(6) 0.0236(10)
H49_3 H 0.4370 0.7541 0.0192
C55_3 C 0.3144(9) 0.7225(8) 0.1023(14)
H50_3 H 0.3133 0.6980 0.1108
H51_3 H 0.3008 0.7194 0.0679
C56_3 C 0.2947(8) 0.7333(8) 0.1492(10)
C57_3 C 0.2700(8) 0.7469(8) 0.1338(9)
H52_3 H 0.2667 0.7505 0.0968
C58_3 C 0.2509(7) 0.7547(8) 0.1720(12)
H53_3 H 0.2341 0.7634 0.1610
C59_3 C 0.2551(8) 0.7505(8) 0.2262(11)
H54_3 H 0.2433 0.7584 0.2522
C60_3 C 0.2771(9) 0.7345(8) 0.2423(9)
H55_3 H 0.2781 0.7287 0.2791
C61_3 C 0.2972(8) 0.7273(8) 0.2041(12)
H56_3 H 0.3135 0.7180 0.2155
Eu8_3 Eu 0.19908(2) 0.34955(3) 0.20140(6)
Eu9_3 Eu 0.65045(3) 0.84954(4) 0.20140(6)
Eu10_3 Eu 0.15046(4) 0.80092(2) 0.20140(6)
N11_3 N 0.1176(6) 0.3833(8) 0.1272(10)
N12_3 N 0.6167(8) 0.7342(6) 0.1272(10)
H59_3 H 0.1047 0.3889 0.1041
H60_3 H 0.6111 0.7157 0.1041
N13_3 N 0.0722(6) 0.5328(9) 0.2379(9)
N14_3 N 0.4672(9) 0.5393(7) 0.2379(9)
H61_3 H 0.0936 0.5475 0.2208
H62_3 H 0.4525 0.5460 0.2208
N15_3 N 0.2483(6) 0.6009(9) 0.0971(11)
N16_3 N 0.3991(9) 0.6473(7) 0.0971(11)
H63_3 H 0.2282 0.5907 0.1182
H64_3 H 0.4093 0.6374 0.1182
O21_3 O 0.0647(4) 0.4674(6) 0.0522(7)
O22_3 O 0.5326(6) 0.5972(4) 0.0522(7)
O23_3 O 0.1485(4) 0.4569(6) 0.0735(7)
O24_3 O 0.5431(6) 0.6915(4) 0.0735(7)
O25_3 O 0.1209(4) 0.5084(6) 0.2005(7)
O26_3 O 0.4916(6) 0.6124(4) 0.2005(7)
O27_3 O 0.1670(4) 0.5688(6) 0.0783(7)
O28_3 O 0.4312(6) 0.5981(4) 0.0783(7)
O31_3 O 0.1692(4) 0.3743(6) 0.1440(7)
O32_3 O 0.6257(6) 0.7948(4) 0.1440(7)
O36_2 O 0.0403(5) 0.4990(7) 0.3139(8)
O37_2 O 0.5010(7) 0.5412(5) 0.3139(8)
O41_3 O 0.2796(4) 0.6411(6) 0.0306(7)
O42_3 O 0.3589(6) 0.6384(4) 0.0306(7)
C62_3 C 0.1260(5) 0.5002(7) 0.1026(9)
C63_3 C 0.4998(7) 0.6257(5) 0.1026(9)
C64_3 C 0.0833(6) 0.4665(9) 0.1051(10)
C65_3 C 0.5335(9) 0.6167(7) 0.1051(10)
H65_3 H 0.0825 0.4418 0.1094
H66_3 H 0.5582 0.6406 0.1094
H67_3 H 0.0699 0.4701 0.1360
H68_3 H 0.5299 0.5997 0.1360
C66_3 C 0.1459(6) 0.4906(8) 0.0572(10)
C67_3 C 0.5094(8) 0.6552(6) 0.0572(10)
H69_3 H 0.1311 0.4851 0.0234
H70_3 H 0.5149 0.6459 0.0234
H71_3 H 0.1718 0.5126 0.0509
H72_3 H 0.4874 0.6591 0.0509
C68_3 C 0.1461(7) 0.5032(10) 0.1547(10)
C69_3 C 0.4968(10) 0.6428(7) 0.1547(10)
H73_3 H 0.1723 0.5253 0.1541
H74_3 H 0.4747 0.6469 0.1541
H75_3 H 0.1474 0.4797 0.1613
H76_3 H 0.5203 0.6676 0.1613
C70_3 C 0.1241(6) 0.5386(8) 0.0926(11)
C71_3 C 0.4614(8) 0.5854(6) 0.0926(11)
H77_3 H 0.1067 0.5354 0.0624
H78_3 H 0.4646 0.5712 0.0624
H79_3 H 0.1155 0.5461 0.1254
H80_3 H 0.4539 0.5693 0.1254
C74_3 C 0.0060(6) 0.4473(9) 0.0055(10)
C75_3 C 0.5527(9) 0.5586(7) 0.0055(10)
C76_3 C 0.0232(6) 0.4424(9) 0.0502(8)
C77_3 C 0.5576(9) 0.5807(7) 0.0502(8)
C78_3 C 0.0024(5) 0.4193(9) 0.0915(10)
C79_3 C 0.5807(9) 0.5830(7) 0.0915(10)
H81_3 H 0.0147 0.4179 0.1233
H82_3 H 0.5821 0.5967 0.1233
C81_3 C 0.6020(9) 0.5651(7) 0.0869(10)
H84_3 H 0.6202 0.5684 0.1137
C83_3 C 0.5964(11) 0.5428(8) 0.0436(9)
H86_3 H 0.6086 0.5279 0.0422
C85_3 C 0.5739(9) 0.5411(7) 0.0016(10)
C100_3 C 0.1541(7) 0.3902(9) 0.1166(12)
C101_3 C 0.6098(9) 0.7638(6) 0.1166(12)
C102_3 C 0.1765(6) 0.4173(9) 0.0643(10)
C103_3 C 0.5827(9) 0.7591(7) 0.0643(10)
C104_3 C 0.1723(6) 0.4470(9) 0.0435(9)
C105_3 C 0.5530(9) 0.7252(7) 0.0435(9)
C112_3 C 0.2004(7) 0.4084(9) 0.0367(9)
C113_3 C 0.5916(9) 0.7919(6) 0.0367(9)
H109_3 H 0.2039 0.3881 0.0491
H110_3 H 0.6119 0.8157 0.0491
C114_3 C 0.1015(9) 0.3654(12) 0.1810(11)
C115_3 C 0.6346(12) 0.7360(8) 0.1810(11)
H111_3 H 0.1212 0.3777 0.2094
H112_3 H 0.6223 0.7434 0.2094
H113_3 H 0.0931 0.3378 0.1802
H114_3 H 0.6622 0.7552 0.1802
C116_3 C 0.0672(8) 0.3712(10) 0.1930(12)
C117_3 C 0.6288(10) 0.6959(6) 0.1930(12)
C118_3 C 0.0689(8) 0.3979(10) 0.2307(12)
C119_3 C 0.6021(10) 0.6709(6) 0.2307(12)
H115_3 H 0.0923 0.4153 0.2477
H116_3 H 0.5847 0.6769 0.2477
C120_3 C 0.0357(8) 0.3983(11) 0.2425(12)
C121_3 C 0.6017(11) 0.6373(7) 0.2425(12)
H117_3 H 0.0371 0.4188 0.2630
H118_3 H 0.5812 0.6182 0.2630
C122_3 C 0.0005(9) 0.3695(11) 0.2248(13)
C123_3 C 0.6305(11) 0.6309(6) 0.2248(13)
H120_3 H 0.6321 0.6098 0.2385
C125_3 C 0.6566(10) 0.6548(6) 0.1876(13)
H122_2 H 0.6753 0.6496 0.1733
C126_3 C 0.0319(7) 0.3451(10) 0.1716(11)
C127_3 C 0.6549(10) 0.6867(7) 0.1716(11)
H123 H 0.0308 0.3277 0.1448
H124_2 H 0.6723 0.7030 0.1448
C128_3 C 0.0703(7) 0.5123(11) 0.2832(10)
C129_3 C 0.4877(11) 0.5579(8) 0.2832(10)
C130_3 C 0.1045(6) 0.5049(10) 0.2929(8)
C131_3 C 0.4951(10) 0.5995(8) 0.2929(8)
C132_3 C 0.1308(6) 0.5060(9) 0.2552(7)
C133_3 C 0.4940(9) 0.6247(7) 0.2552(7)
C134_3 C 0.1607(6) 0.5006(10) 0.2694(7)
C135_3 C 0.4994(10) 0.6600(8) 0.2694(7)
H125_3 H 0.1760 0.4981 0.2424
H126_3 H 0.5019 0.6778 0.2424
C136_3 C 0.1684(6) 0.4987(10) 0.3247(8)
C137_3 C 0.5013(10) 0.6696(8) 0.3247(8)
H127_3 H 0.1915 0.5003 0.3362
H128_3 H 0.4997 0.6911 0.3362
C138_3 C 0.1406(6) 0.4945(9) 0.3611(7)
C139_3 C 0.5055(9) 0.6460(7) 0.3611(7)
H129_3 H 0.1422 0.4875 0.3972
H130_3 H 0.5125 0.6546 0.3972
C140_3 C 0.1112(6) 0.4999(10) 0.3472(7)
C141_3 C 0.5001(10) 0.6112(8) 0.3472(7)
H131_3 H 0.0950 0.5003 0.3745
H132_3 H 0.4997 0.5946 0.3745
C142_3 C 0.0345(6) 0.5276(10) 0.2204(10)
C143_3 C 0.4724(10) 0.5068(8) 0.2204(10)
H133_3 H 0.0166 0.5003 0.2126
H134_3 H 0.4997 0.5162 0.2126
H135_3 H 0.0235 0.5359 0.2495
H136_3 H 0.4641 0.4875 0.2495
C144_3 C 0.0408(7) 0.5515(10) 0.1702(8)
C145_3 C 0.4485(10) 0.4892(7) 0.1702(8)
C146_3 C 0.0223(8) 0.5267(10) 0.1271(11)
C147_3 C 0.4733(10) 0.4955(6) 0.1271(11)
H137_3 H 0.0094 0.4998 0.1325
H138_3 H 0.5002 0.5095 0.1325
C148_3 C 0.0228(8) 0.5414(11) 0.0771(9)
C149_3 C 0.4586(11) 0.4813(7) 0.0771(9)
H139_3 H 0.0093 0.5246 0.0483
H140_3 H 0.4754 0.4846 0.0483
C150_3 C 0.0429(9) 0.5807(12) 0.0680(9)
C151_3 C 0.4193(12) 0.4621(8) 0.0680(9)
H141_3 H 0.0469 0.5904 0.0323
H142_3 H 0.4096 0.4564 0.0323
C152_3 C 0.0568(9) 0.6056(11) 0.1117(11)
C153_3 C 0.3944(11) 0.4511(6) 0.1117(11)
H143_3 H 0.0657 0.6321 0.1072
H144_3 H 0.3679 0.4335 0.1072
C154_3 C 0.0574(8) 0.5909(11) 0.1616(9)
C155_3 C 0.4091(11) 0.4664(7) 0.1616(9)
H145_3 H 0.0693 0.6079 0.1909
H146_3 H 0.3921 0.4613 0.1909
C156_3 C 0.2525(7) 0.6250(10) 0.0601(12)
C157_3 C 0.3750(10) 0.6274(7) 0.0601(12)
C158_3 C 0.2119(5) 0.6291(8) 0.0450(11)
C159_3 C 0.3709(8) 0.5827(6) 0.0450(11)
C160_3 C 0.1738(5) 0.6036(8) 0.0566(11)
C161_3 C 0.3964(8) 0.5701(6) 0.0566(11)
C162_3 C 0.1458(6) 0.6118(8) 0.0462(12)
C163_3 C 0.3882(8) 0.5339(6) 0.0462(12)
H147_3 H 0.1197 0.5935 0.0521
H148_3 H 0.4065 0.5261 0.0521
C164_3 C 0.1566(6) 0.6475(9) 0.0267(12)
C165_3 C 0.3525(9) 0.5090(7) 0.0267(12)
H149_3 H 0.1384 0.6558 0.0259
H150_3 H 0.3442 0.4825 0.0259
C166_3 C 0.1925(5) 0.6715(8) 0.0086(11)
C167_3 C 0.3285(8) 0.5209(6) 0.0086(11)
C168_3 C 0.2200(6) 0.6636(8) 0.0236(10)
C169_3 C 0.3364(8) 0.5563(6) 0.0236(10)
H153_3 H 0.2459 0.6828 0.0192
H154_3 H 0.3172 0.5630 0.0192
C170_3 C 0.2775(8) 0.5918(12) 0.1023(14)
C171_3 C 0.4082(12) 0.6856(9) 0.1023(14)
H155_3 H 0.3020 0.6152 0.1108
H156_3 H 0.3848 0.6867 0.1108
H157_3 H 0.2806 0.5813 0.0679
H158_3 H 0.4187 0.6992 0.0679
C172_3 C 0.2667(8) 0.5613(11) 0.1492(10)
C173_3 C 0.4387(11) 0.7053(8) 0.1492(10)
C174_3 C 0.2531(8) 0.5230(11) 0.1338(9)
C175_3 C 0.4770(11) 0.7300(8) 0.1338(9)
H159_3 H 0.2495 0.5161 0.0968
H160_3 H 0.4839 0.7333 0.0968
C176_3 C 0.2453(8) 0.4961(11) 0.1720(12)
C177_3 C 0.5039(11) 0.7491(7) 0.1720(12)
H161_3 H 0.2366 0.4706 0.1610
H162_3 H 0.5294 0.7659 0.1610
C178_3 C 0.2495(8) 0.5045(11) 0.2262(11)
C179_3 C 0.4955(11) 0.7449(8) 0.2262(11)
H163_3 H 0.2416 0.4848 0.2522
H164_3 H 0.5152 0.7567 0.2522
C180_3 C 0.2655(8) 0.5425(12) 0.2423(9)
C181_3 C 0.4575(12) 0.7229(9) 0.2423(9)
H165_3 H 0.2713 0.5493 0.2791
H166_3 H 0.4507 0.7219 0.2791
C182_3 C 0.2727(8) 0.5698(11) 0.2041(12)
C183_3 C 0.4302(11) 0.7028(8) 0.2041(12)
H167_3 H 0.2820 0.5954 0.2155
H168_3 H 0.4046 0.6865 0.2155
Eu2_3 Eu 0.3334 0.6666 0.97028(7)
N1_3 N 0.4193(7) 0.9379(7) 0.9393(11)
H1_3 H 0.3988 0.9275 0.9598
N7_3 N 0.5665(5) 0.9746(6) 0.9192(9)
N8_3 N 0.2881(7) 0.6894(6) 0.9085(9)
O5_3 O 0.4749(5) 0.9890(4) 0.9193(8)
O15_3 O 0.5837(5) 0.9974(5) 0.8800(8)
O16_3 O 0.5315(4) 0.9658(5) 0.9305(7)
O17_3 O 0.5791(6) 0.9535(7) 0.9371(10)
O18_3 O 0.3079(5) 0.7098(4) 0.9483(7)
O19_3 O 0.2861(7) 0.6573(5) 0.8994(9)
O20_3 O 0.2790(8) 0.7050(6) 0.8710(10)
C6_3 C 0.4454(8) 0.9711(7) 0.9483(12)
C13_3 C 0.4224(8) 0.9179(6) 0.8982(14)
H17_3 H 0.4478 0.9198 0.9002
H18_3 H 0.4213 0.9298 0.8639
C14_3 C 0.3912(6) 0.8749(5) 0.8970(12)
C15_3 C 0.3961(6) 0.8457(7) 0.9200(13)
H19_3 H 0.4200 0.8513 0.9348
C16_3 C 0.3655(8) 0.8088(6) 0.9205(13)
H20_3 H 0.3673 0.7898 0.9406
C17_3 C 0.3324(7) 0.7990(6) 0.8928(13)
H21_3 H 0.3115 0.7736 0.8942
C18_3 C 0.3298(7) 0.8266(7) 0.8629(13)
H22_3 H 0.3096 0.8197 0.8381
C19_3 C 0.3573(7) 0.8641(6) 0.8701(12)
H23_3 H 0.3529 0.8834 0.8560
C23_3 C 0.2752(7) 0.8094(7) 0.9974(10)
H24_3 H 0.2987 0.8127 0.9838
C24_3 C 0.2415(7) 0.7863(7) 0.9710(11)
H25_3 H 0.2416 0.7744 0.9380
C25_3 C 0.2089(7) 0.7808(7) 0.9920(10)
H26_3 H 0.1856 0.7632 0.9752
H48_3 H 0.4948 0.8020 0.9863
N9_3 N 0.0621(7) 0.4813(10) 0.9393(11)
N10_3 N 0.5187(10) 0.5807(7) 0.9393(11)
H57_3 H 0.0725 0.4712 0.9598
H58_3 H 0.5288 0.6012 0.9598
N18_3 N 0.5194(9) 0.4447(7) 0.9524(8)
N20_3 N 0.4642(8) 0.4042(5) 0.7959(9)
N21_3 N 0.0254(6) 0.5918(8) 0.9192(9)
N22_3 N 0.4082(8) 0.4335(5) 0.9192(9)
N23_3 N 0.3106(6) 0.5986(9) 0.9085(9)
N24_3 N 0.4014(9) 0.7119(7) 0.9085(9)
O29_3 O 0.0110(4) 0.4858(6) 0.9193(8)
O30_3 O 0.5142(6) 0.5251(5) 0.9193(8)
O38_2 O 0.0403(5) 0.5412(5) 0.8139(8)
O39_2 O 0.5010(7) 0.9597(5) 0.8139(8)
O40_2 O 0.4588(5) 0.4990(7) 0.8139(8)
O44_3 O 0.4851(8) 0.4375(6) 0.9590(8)
O46_3 O 0.5386(7) 0.4641(5) 0.9118(6)
O48_3 O 0.5381(9) 0.4418(7) 0.9928(8)
O50_3 O 0.4576(6) 0.4303(4) 0.7818(7)
O52_3 O 0.4814(7) 0.4060(5) 0.8396(7)
O54_3 O 0.4484(9) 0.3726(6) 0.7686(11)
O55_3 O 0.0026(5) 0.5862(7) 0.8800(8)
O56_3 O 0.4138(7) 0.4163(5) 0.8800(8)
O57_3 O 0.0342(5) 0.5656(6) 0.9305(7)
O58_3 O 0.4344(6) 0.4685(4) 0.9305(7)
O59_3 O 0.0465(7) 0.6255(9) 0.9371(10)
O60_3 O 0.3745(9) 0.4209(6) 0.9371(10)
O61_3 O 0.2902(4) 0.5980(6) 0.9483(7)
O62_3 O 0.4020(6) 0.6921(5) 0.9483(7)
O63_3 O 0.3427(5) 0.6287(9) 0.8994(9)
O64_3 O 0.3713(9) 0.7139(7) 0.8994(9)
O65_3 O 0.2950(6) 0.5739(10) 0.8710(10)
O66_3 O 0.4261(10) 0.7210(8) 0.8710(10)
C72_3 C 0.0289(7) 0.4742(11) 0.9483(12)
C73_3 C 0.5258(11) 0.5546(8) 0.9483(12)
H88_3 H 0.5729 0.5276 0.9698
C86_3 C 0.0821(6) 0.5044(10) 0.8982(14)
C87_3 C 0.4956(10) 0.5776(8) 0.8982(14)
H89_3 H 0.0802 0.5279 0.9002
H90_3 H 0.4721 0.5522 0.9002
H91_3 H 0.0702 0.4914 0.8639
H92_3 H 0.5086 0.5787 0.8639
C88_3 C 0.1251(5) 0.5162(8) 0.8970(12)
C89_3 C 0.4838(8) 0.6088(6) 0.8970(12)
C90_3 C 0.1543(7) 0.5503(9) 0.9200(13)
C91_3 C 0.4497(9) 0.6039(6) 0.9200(13)
H93_3 H 0.1487 0.5686 0.9348
H94_3 H 0.4314 0.5800 0.9348
C92_3 C 0.1912(6) 0.5566(10) 0.9205(13)
C93_3 C 0.4434(10) 0.6345(8) 0.9205(13)
H95_3 H 0.2102 0.5774 0.9406
H96_3 H 0.4226 0.6327 0.9406
C94_3 C 0.2010(6) 0.5333(9) 0.8928(13)
C95_3 C 0.4667(9) 0.6676(7) 0.8928(13)
H97_3 H 0.2264 0.5378 0.8942
H98_3 H 0.4622 0.6885 0.8942
C96_3 C 0.1734(7) 0.5031(10) 0.8629(13)
C97_3 C 0.4969(10) 0.6702(7) 0.8629(13)
H99_3 H 0.1803 0.4898 0.8381
H100_3 H 0.5102 0.6904 0.8381
C98_3 C 0.1359(6) 0.4931(9) 0.8701(12)
C99_3 C 0.5069(9) 0.6427(7) 0.8701(12)
H101_3 H 0.1166 0.4694 0.8560
H102_3 H 0.5306 0.6471 0.8560
C106_3 C 0.1906(7) 0.4657(10) 0.9974(10)
C107_3 C 0.5343(10) 0.7248(7) 0.9974(10)
H103_3 H 0.1873 0.4859 0.9838
H104_3 H 0.5141 0.7013 0.9838
C108_3 C 0.2137(7) 0.4551(10) 0.9710(11)
C109_3 C 0.5449(10) 0.7585(7) 0.9710(11)
H105_3 H 0.2256 0.4671 0.9380
H106_3 H 0.5329 0.7584 0.9380
C110_3 C 0.2192(7) 0.4280(10) 0.9920(10)
C111_3 C 0.5720(10) 0.7911(7) 0.9920(10)
H107_3 H 0.2368 0.4223 0.9752
H108_3 H 0.5777 0.8144 0.9752
H151_3 H 0.1980 0.6927 0.9863
H152_3 H 0.3073 0.5052 0.9863
C80_3 C 0.9632(6) 0.3980(9) 0.0869(10)
H83_3 H 0.9483 0.3798 0.1137
C82_3 C 0.9465(7) 0.4036(11) 0.0436(9)
H85_3 H 0.9194 0.3914 0.0422
C84_3 C 0.9673(6) 0.4261(9) 0.0016(10)
H119_3 H 0.9778 0.3679 0.2385
C124_3 C 0.9983(8) 0.3434(10) 0.1876(13)
H121 H 0.9744 0.3247 0.1733
N17_3 N 0.9254(6) 0.4806(9) 0.9524(8)
N19_3 N 0.9401(6) 0.5358(8) 0.7959(9)
O43_3 O 0.9525(5) 0.5149(8) 0.9590(8)
O45_3 O 0.9256(5) 0.4614(7) 0.9118(6)
O47_3 O 0.9038(6) 0.4619(9) 0.9928(8)
O49_3 O 0.9728(4) 0.5424(6) 0.7818(7)
O51_3 O 0.9247(5) 0.5186(7) 0.8396(7)
O53_3 O 0.9243(7) 0.5516(9) 0.7686(11)
H87_3 H 0.9548 0.4271 0.9698
N17_4 N 0.5194(9) 0.0746(6) 0.4524(8)
N19_4 N 0.4642(8) 0.0599(6) 0.2959(9)
O43_4 O 0.4851(8) 0.0475(5) 0.4590(8)
O45_4 O 0.5386(7) 0.0744(5) 0.4118(6)
O47_4 O 0.5381(9) 0.0962(6) 0.4928(8)
O49_4 O 0.4576(6) 0.0272(4) 0.2818(7)
O51_4 O 0.4814(7) 0.0753(5) 0.3396(7)
O53_4 O 0.4484(9) 0.0757(7) 0.2686(11)
C80_4 C 0.6020(9) 0.0368(6) 0.5869(10)
H83_4 H 0.6202 0.0517 0.6137
C82_4 C 0.5964(11) 0.0535(7) 0.5436(9)
H85_4 H 0.6086 0.0806 0.5422
C84_4 C 0.5739(9) 0.0327(6) 0.5016(10)
H87_4 H 0.5729 0.0452 0.4698
H119_4 H 0.6321 0.0222 0.7385
C124_4 C 0.6566(10) 0.0017(8) 0.6876(13)
H121_2 H 0.6753 0.0256 0.6733
Eu2_4 Eu 0.3334 0.6666 0.47028(7)
N1_4 N 0.0621(7) 0.5807(7) 0.4393(11)
H1_4 H 0.0725 0.6012 0.4598
N2_4 N 0.1176(6) 0.7342(6) 0.6272(10)
H2_4 H 0.1047 0.7157 0.6041
N3_4 N 0.0722(6) 0.5393(7) 0.7379(9)
H3_4 H 0.0936 0.5460 0.7208
N4_4 N 0.2483(6) 0.6473(7) 0.5971(11)
H4_4 H 0.2282 0.6374 0.6182
N7_4 N 0.0254(6) 0.4335(5) 0.4192(9)
N8_4 N 0.3106(6) 0.7119(7) 0.4085(9)
O1_4 O 0.0647(4) 0.5972(4) 0.5522(7)
O2_4 O 0.1485(4) 0.6915(4) 0.5735(7)
O3_4 O 0.1209(4) 0.6124(4) 0.7005(7)
O4_4 O 0.1670(4) 0.5981(4) 0.5783(7)
O5_4 O 0.0110(4) 0.5251(5) 0.4193(8)
O6_4 O 0.1692(4) 0.7948(4) 0.6440(7)
O8_4 O 0.2796(4) 0.6384(4) 0.5306(7)
O15_4 O 0.0026(5) 0.4163(5) 0.3800(8)
O16_4 O 0.0342(5) 0.4685(4) 0.4305(7)
O17_4 O 0.0465(7) 0.4209(6) 0.4371(10)
O18_4 O 0.2902(4) 0.6921(5) 0.4483(7)
O19_4 O 0.3427(5) 0.7139(7) 0.3994(9)
O20_4 O 0.2950(6) 0.7210(8) 0.3710(10)
C1_4 C 0.1260(5) 0.6257(5) 0.6026(9)
C2_4 C 0.0833(6) 0.6167(7) 0.6051(10)
H5_4 H 0.0825 0.6406 0.6094
H6_4 H 0.0699 0.5997 0.6360
C3_4 C 0.1459(6) 0.6552(6) 0.5572(10)
H7_4 H 0.1311 0.6459 0.5234
H8_4 H 0.1718 0.6591 0.5509
C4_4 C 0.1461(7) 0.6428(7) 0.6547(10)
H9_4 H 0.1723 0.6469 0.6541
H10_4 H 0.1474 0.6676 0.6613
C5_4 C 0.1241(6) 0.5854(6) 0.5926(11)
H11_4 H 0.1067 0.5712 0.5624
H12_4 H 0.1155 0.5693 0.6254
C6_4 C 0.0289(7) 0.5546(8) 0.4483(12)
C7_4 C 0.0060(6) 0.5586(7) 0.5055(10)
C8_4 C 0.0232(6) 0.5807(7) 0.5502(8)
C9_4 C 0.0024(5) 0.5830(7) 0.5915(10)
H13_4 H 0.0147 0.5967 0.6233
C13_4 C 0.0821(6) 0.5776(8) 0.3982(14)
H17_4 H 0.0802 0.5522 0.4002
H18_4 H 0.0702 0.5787 0.3639
C14_4 C 0.1251(5) 0.6088(6) 0.3970(12)
C15_4 C 0.1543(7) 0.6039(6) 0.4200(13)
H19_4 H 0.1487 0.5800 0.4348
C16_4 C 0.1912(6) 0.6345(8) 0.4205(13)
H20_4 H 0.2102 0.6327 0.4406
C17_4 C 0.2010(6) 0.6676(7) 0.3928(13)
H21_4 H 0.2264 0.6885 0.3942
C18_4 C 0.1734(7) 0.6702(7) 0.3629(13)
H22_4 H 0.1803 0.6904 0.3381
C19_4 C 0.1359(6) 0.6427(7) 0.3701(12)
H23_4 H 0.1166 0.6471 0.3560
C20_4 C 0.1541(7) 0.7638(6) 0.6166(12)
C21_4 C 0.1765(6) 0.7591(7) 0.5643(10)
C22_4 C 0.1723(6) 0.7252(7) 0.5435(9)
C23_4 C 0.1906(7) 0.7248(7) 0.4974(10)
H24_4 H 0.1873 0.7013 0.4838
C24_4 C 0.2137(7) 0.7585(7) 0.4710(11)
H25_4 H 0.2256 0.7584 0.4380
C25_4 C 0.2192(7) 0.7911(7) 0.4920(10)
H26_4 H 0.2368 0.8144 0.4752
C26_4 C 0.2004(7) 0.7919(6) 0.5367(9)
H27_4 H 0.2039 0.8157 0.5491
C27_4 C 0.1015(9) 0.7360(8) 0.6810(11)
H28_4 H 0.1212 0.7434 0.7094
H29_4 H 0.0931 0.7552 0.6802
C28_4 C 0.0672(8) 0.6959(6) 0.6930(12)
C29_4 C 0.0689(8) 0.6709(6) 0.7307(12)
H30_4 H 0.0923 0.6769 0.7477
C30_4 C 0.0357(8) 0.6373(7) 0.7425(12)
H31_4 H 0.0371 0.6182 0.7630
C31_4 C 0.0005(9) 0.6309(6) 0.7248(13)
C33_4 C 0.0319(7) 0.6867(7) 0.6716(11)
H34_4 H 0.0308 0.7030 0.6448
C34_4 C 0.0703(7) 0.5579(8) 0.7832(10)
C35_4 C 0.1045(6) 0.5995(8) 0.7929(8)
C36_4 C 0.1308(6) 0.6247(7) 0.7552(7)
C37_4 C 0.1607(6) 0.6600(8) 0.7694(7)
H35_4 H 0.1760 0.6778 0.7424
C38_4 C 0.1684(6) 0.6696(8) 0.8247(8)
H36_4 H 0.1915 0.6911 0.8362
C39_4 C 0.1406(6) 0.6460(7) 0.8611(7)
H37_4 H 0.1422 0.6546 0.8972
C40_4 C 0.1112(6) 0.6112(8) 0.8472(7)
H38_4 H 0.0950 0.5946 0.8745
C41_4 C 0.0345(6) 0.5068(8) 0.7204(10)
H39_4 H 0.0166 0.5162 0.7126
H40_4 H 0.0235 0.4875 0.7495
C42_4 C 0.0408(7) 0.4892(7) 0.6702(8)
C43_4 C 0.0223(8) 0.4955(6) 0.6271(11)
H41_4 H 0.0094 0.5095 0.6325
C44_4 C 0.0228(8) 0.4813(7) 0.5771(9)
H42_4 H 0.0093 0.4846 0.5483
C45_4 C 0.0429(9) 0.4621(8) 0.5680(9)
H43_4 H 0.0469 0.4564 0.5323
C46_4 C 0.0568(9) 0.4511(6) 0.6117(11)
H44_4 H 0.0657 0.4335 0.6072
C47_4 C 0.0574(8) 0.4664(7) 0.6616(9)
H45_4 H 0.0693 0.4613 0.6909
C48_4 C 0.2525(7) 0.6274(7) 0.5601(12)
C49_4 C 0.2119(5) 0.5827(6) 0.5450(11)
C50_4 C 0.1738(5) 0.5701(6) 0.5566(11)
C51_4 C 0.1458(6) 0.5339(6) 0.5462(12)
H46_4 H 0.1197 0.5261 0.5521
C52_4 C 0.1566(6) 0.5090(7) 0.5267(12)
H47_4 H 0.1384 0.4825 0.5259
C53_4 C 0.1925(5) 0.5209(6) 0.5086(11)
H48_4 H 0.1980 0.5052 0.4863
C54_4 C 0.2200(6) 0.5563(6) 0.5236(10)
H49_4 H 0.2459 0.5630 0.5192
C55_4 C 0.2775(8) 0.6856(9) 0.6023(14)
H50_4 H 0.3020 0.6867 0.6108
H51_4 H 0.2806 0.6992 0.5679
C56_4 C 0.2667(8) 0.7053(8) 0.6492(10)
C57_4 C 0.2531(8) 0.7300(8) 0.6338(9)
H52_4 H 0.2495 0.7333 0.5968
C58_4 C 0.2453(8) 0.7491(7) 0.6720(12)
H53_4 H 0.2366 0.7659 0.6610
C59_4 C 0.2495(8) 0.7449(8) 0.7262(11)
H54_4 H 0.2416 0.7567 0.7522
C60_4 C 0.2655(8) 0.7229(9) 0.7423(9)
H55_4 H 0.2713 0.7219 0.7791
C61_4 C 0.2727(8) 0.7028(8) 0.7041(12)
H56_4 H 0.2820 0.6865 0.7155
Eu8_4 Eu 0.65045(3) 0.80092(2) 0.70140(6)
Eu9_4 Eu 0.15046(4) 0.34955(3) 0.70140(6)
Eu10_4 Eu 0.19908(2) 0.84954(4) 0.70140(6)
N9_4 N 0.5187(10) 0.9379(7) 0.4393(11)
N10_4 N 0.4193(7) 0.4813(10) 0.4393(11)
H57_4 H 0.5288 0.9275 0.4598
H58_4 H 0.3988 0.4712 0.4598
N11_4 N 0.6167(8) 0.8824(6) 0.6272(10)
N12_4 N 0.2658(6) 0.3833(8) 0.6272(10)
H59_4 H 0.6111 0.8953 0.6041
H60_4 H 0.2843 0.3889 0.6041
N13_4 N 0.4672(9) 0.9278(6) 0.7379(9)
N14_4 N 0.4607(7) 0.5328(9) 0.7379(9)
H61_4 H 0.4525 0.9064 0.7208
H62_4 H 0.4540 0.5475 0.7208
N15_4 N 0.3991(9) 0.7517(6) 0.5971(11)
N16_4 N 0.3527(7) 0.6009(9) 0.5971(11)
H63_4 H 0.4093 0.7718 0.6182
H64_4 H 0.3626 0.5907 0.6182
N18_4 N 0.5553(7) 0.4806(9) 0.4524(8)
N20_4 N 0.5958(5) 0.5358(8) 0.2959(9)
N21_4 N 0.4082(8) 0.9746(6) 0.4192(9)
N22_4 N 0.5665(5) 0.5918(8) 0.4192(9)
N23_4 N 0.4014(9) 0.6894(6) 0.4085(9)
N24_4 N 0.2881(7) 0.5986(9) 0.4085(9)
O21_4 O 0.5326(6) 0.9353(4) 0.5522(7)
O22_4 O 0.4028(4) 0.4674(6) 0.5522(7)
O23_4 O 0.5431(6) 0.8515(4) 0.5735(7)
O24_4 O 0.3085(4) 0.4569(6) 0.5735(7)
O25_4 O 0.4916(6) 0.8791(4) 0.7005(7)
O26_4 O 0.3876(4) 0.5084(6) 0.7005(7)
O27_4 O 0.4312(6) 0.8330(4) 0.5783(7)
O28_4 O 0.4019(4) 0.5688(6) 0.5783(7)
O29_4 O 0.5142(6) 0.9890(4) 0.4193(8)
O30_4 O 0.4749(5) 0.4858(6) 0.4193(8)
O31_4 O 0.6257(6) 0.8308(4) 0.6440(7)
O32_4 O 0.2052(4) 0.3743(6) 0.6440(7)
O41_4 O 0.3589(6) 0.7204(4) 0.5306(7)
O42_4 O 0.3616(4) 0.6411(6) 0.5306(7)
O44_4 O 0.5625(6) 0.5149(8) 0.4590(8)
O46_4 O 0.5359(5) 0.4614(7) 0.4118(6)
O48_4 O 0.5582(7) 0.4619(9) 0.4928(8)
O50_4 O 0.5697(4) 0.5424(6) 0.2818(7)
O52_4 O 0.5940(5) 0.5186(7) 0.3396(7)
O54_4 O 0.6274(6) 0.5516(9) 0.2686(11)
O55_4 O 0.4138(7) 0.9974(5) 0.3800(8)
O56_4 O 0.5837(5) 0.5862(7) 0.3800(8)
O57_4 O 0.4344(6) 0.9658(5) 0.4305(7)
O58_4 O 0.5315(4) 0.5656(6) 0.4305(7)
O59_4 O 0.3745(9) 0.9535(7) 0.4371(10)
O60_4 O 0.5791(6) 0.6255(9) 0.4371(10)
O61_4 O 0.4020(6) 0.7098(4) 0.4483(7)
O62_4 O 0.3079(5) 0.5980(6) 0.4483(7)
O63_4 O 0.3713(9) 0.6573(5) 0.3994(9)
O64_4 O 0.2861(7) 0.6287(9) 0.3994(9)
O65_4 O 0.4261(10) 0.7050(6) 0.3710(10)
O66_4 O 0.2790(8) 0.5739(10) 0.3710(10)
C62_4 C 0.4998(7) 0.8740(5) 0.6026(9)
C63_4 C 0.3743(5) 0.5002(7) 0.6026(9)
C64_4 C 0.5335(9) 0.9167(6) 0.6051(10)
C65_4 C 0.3833(7) 0.4665(9) 0.6051(10)
H65_4 H 0.5582 0.9175 0.6094
H66_4 H 0.3594 0.4418 0.6094
H67_4 H 0.5299 0.9301 0.6360
H68_4 H 0.4003 0.4701 0.6360
C66_4 C 0.5094(8) 0.8541(6) 0.5572(10)
C67_4 C 0.3448(6) 0.4906(8) 0.5572(10)
H69_4 H 0.5149 0.8689 0.5234
H70_4 H 0.3541 0.4851 0.5234
H71_4 H 0.4874 0.8282 0.5509
H72_4 H 0.3409 0.5126 0.5509
C68_4 C 0.4968(10) 0.8539(7) 0.6547(10)
C69_4 C 0.3572(7) 0.5032(10) 0.6547(10)
H73_4 H 0.4747 0.8277 0.6541
H74_4 H 0.3531 0.5253 0.6541
H75_4 H 0.5203 0.8526 0.6613
H76_4 H 0.3324 0.4797 0.6613
C70_4 C 0.4614(8) 0.8759(6) 0.5926(11)
C71_4 C 0.4146(6) 0.5386(8) 0.5926(11)
H77_4 H 0.4646 0.8933 0.5624
H78_4 H 0.4288 0.5354 0.5624
H79_4 H 0.4539 0.8845 0.6254
H80_4 H 0.4307 0.5461 0.6254
C72_4 C 0.5258(11) 0.9711(7) 0.4483(12)
C73_4 C 0.4454(8) 0.4742(11) 0.4483(12)
C74_4 C 0.5527(9) 0.9940(6) 0.5055(10)
C75_4 C 0.4414(7) 0.4473(9) 0.5055(10)
C76_4 C 0.5576(9) 0.9768(6) 0.5502(8)
C77_4 C 0.4193(7) 0.4424(9) 0.5502(8)
C78_4 C 0.5807(9) 0.9976(5) 0.5915(10)
C79_4 C 0.4170(7) 0.4193(9) 0.5915(10)
H81_4 H 0.5821 0.9853 0.6233
H82_4 H 0.4033 0.4179 0.6233
C81_4 C 0.4349(7) 0.3980(9) 0.5869(10)
H84_4 H 0.4316 0.3798 0.6137
C83_4 C 0.4572(8) 0.4036(11) 0.5436(9)
H86_4 H 0.4721 0.3914 0.5422
C85_4 C 0.4589(7) 0.4261(9) 0.5016(10)
H88_4 H 0.4724 0.4271 0.4698
C86_4 C 0.4956(10) 0.9179(6) 0.3982(14)
C87_4 C 0.4224(8) 0.5044(10) 0.3982(14)
H89_4 H 0.4721 0.9198 0.4002
H90_4 H 0.4478 0.5279 0.4002
H91_4 H 0.5086 0.9298 0.3639
H92_4 H 0.4213 0.4914 0.3639
C88_4 C 0.4838(8) 0.8749(5) 0.3970(12)
C89_4 C 0.3912(6) 0.5162(8) 0.3970(12)
C90_4 C 0.4497(9) 0.8457(7) 0.4200(13)
C91_4 C 0.3961(6) 0.5503(9) 0.4200(13)
H93_4 H 0.4314 0.8513 0.4348
H94_4 H 0.4200 0.5686 0.4348
C92_4 C 0.4434(10) 0.8088(6) 0.4205(13)
C93_4 C 0.3655(8) 0.5566(10) 0.4205(13)
H95_4 H 0.4226 0.7898 0.4406
H96_4 H 0.3673 0.5774 0.4406
C94_4 C 0.4667(9) 0.7990(6) 0.3928(13)
C95_4 C 0.3324(7) 0.5333(9) 0.3928(13)
H97_4 H 0.4622 0.7736 0.3942
H98_4 H 0.3115 0.5378 0.3942
C96_4 C 0.4969(10) 0.8266(7) 0.3629(13)
C97_4 C 0.3298(7) 0.5031(10) 0.3629(13)
H99_4 H 0.5102 0.8197 0.3381
H100_4 H 0.3096 0.4898 0.3381
C98_4 C 0.5069(9) 0.8641(6) 0.3701(12)
C99_4 C 0.3573(7) 0.4931(9) 0.3701(12)
H101_4 H 0.5306 0.8834 0.3560
H102_4 H 0.3529 0.4694 0.3560
C100_4 C 0.6098(9) 0.8459(7) 0.6166(12)
C101_4 C 0.2362(6) 0.3902(9) 0.6166(12)
C102_4 C 0.5827(9) 0.8235(6) 0.5643(10)
C103_4 C 0.2409(7) 0.4173(9) 0.5643(10)
C104_4 C 0.5530(9) 0.8277(6) 0.5435(9)
C105_4 C 0.2748(7) 0.4470(9) 0.5435(9)
C106_4 C 0.5343(10) 0.8094(7) 0.4974(10)
C107_4 C 0.2752(7) 0.4657(10) 0.4974(10)
H103_4 H 0.5141 0.8127 0.4838
H104_4 H 0.2987 0.4859 0.4838
C108_4 C 0.5449(10) 0.7863(7) 0.4710(11)
C109_4 C 0.2415(7) 0.4551(10) 0.4710(11)
H105_4 H 0.5329 0.7744 0.4380
H106_4 H 0.2416 0.4671 0.4380
C110_4 C 0.5720(10) 0.7808(7) 0.4920(10)
C111_4 C 0.2089(7) 0.4280(10) 0.4920(10)
H107_4 H 0.5777 0.7632 0.4752
H108_4 H 0.1856 0.4223 0.4752
C112_4 C 0.5916(9) 0.7996(7) 0.5367(9)
C113_4 C 0.2081(6) 0.4084(9) 0.5367(9)
H109_4 H 0.6119 0.7961 0.5491
H110_4 H 0.1843 0.3881 0.5491
C114_4 C 0.6346(12) 0.8985(9) 0.6810(11)
C115_4 C 0.2640(8) 0.3654(12) 0.6810(11)
H111_4 H 0.6223 0.8788 0.7094
H112_4 H 0.2566 0.3777 0.7094
H113_4 H 0.6622 0.9069 0.6802
H114_4 H 0.2448 0.3378 0.6802
C116_4 C 0.6288(10) 0.9328(8) 0.6930(12)
C117_4 C 0.3041(6) 0.3712(10) 0.6930(12)
C118_4 C 0.6021(10) 0.9311(8) 0.7307(12)
C119_4 C 0.3291(6) 0.3979(10) 0.7307(12)
H115_4 H 0.5847 0.9077 0.7477
H116_4 H 0.3231 0.4153 0.7477
C120_4 C 0.6017(11) 0.9643(8) 0.7425(12)
C121_4 C 0.3627(7) 0.3983(11) 0.7425(12)
H117_4 H 0.5812 0.9629 0.7630
H118_4 H 0.3818 0.4188 0.7630
C122_4 C 0.6305(11) 0.9995(9) 0.7248(13)
C123_4 C 0.3691(6) 0.3695(11) 0.7248(13)
H120_4 H 0.3902 0.3679 0.7385
C125_4 C 0.3452(6) 0.3434(10) 0.6876(13)
H122_3 H 0.3504 0.3247 0.6733
C126_4 C 0.6549(10) 0.9681(7) 0.6716(11)
C127_4 C 0.3133(7) 0.3451(10) 0.6716(11)
H123_2 H 0.6723 0.9692 0.6448
H124_3 H 0.2970 0.3277 0.6448
C128_4 C 0.4877(11) 0.9297(7) 0.7832(10)
C129_4 C 0.4421(8) 0.5123(11) 0.7832(10)
C130_4 C 0.4951(10) 0.8955(6) 0.7929(8)
C131_4 C 0.4005(8) 0.5049(10) 0.7929(8)
C132_4 C 0.4940(9) 0.8692(6) 0.7552(7)
C133_4 C 0.3753(7) 0.5060(9) 0.7552(7)
C134_4 C 0.4994(10) 0.8393(6) 0.7694(7)
C135_4 C 0.3400(8) 0.5006(10) 0.7694(7)
H125_4 H 0.5019 0.8240 0.7424
H126_4 H 0.3222 0.4981 0.7424
C136_4 C 0.5013(10) 0.8316(6) 0.8247(8)
C137_4 C 0.3304(8) 0.4987(10) 0.8247(8)
H127_4 H 0.4997 0.8085 0.8362
H128_4 H 0.3089 0.5003 0.8362
C138_4 C 0.5055(9) 0.8594(6) 0.8611(7)
C139_4 C 0.3540(7) 0.4945(9) 0.8611(7)
H129_4 H 0.5125 0.8578 0.8972
H130_4 H 0.3454 0.4875 0.8972
C140_4 C 0.5001(10) 0.8888(6) 0.8472(7)
C141_4 C 0.3888(8) 0.4999(10) 0.8472(7)
H131_4 H 0.4997 0.9050 0.8745
H132_4 H 0.4054 0.5003 0.8745
C142_4 C 0.4724(10) 0.9655(6) 0.7204(10)
C143_4 C 0.4932(8) 0.5276(10) 0.7204(10)
H133_4 H 0.4997 0.9834 0.7126
H134_4 H 0.4838 0.5003 0.7126
H135_4 H 0.4641 0.9765 0.7495
H136_4 H 0.5125 0.5359 0.7495
C144_4 C 0.4485(10) 0.9592(7) 0.6702(8)
C145_4 C 0.5108(7) 0.5515(10) 0.6702(8)
C146_4 C 0.4733(10) 0.9777(8) 0.6271(11)
C147_4 C 0.5045(6) 0.5267(10) 0.6271(11)
H137_4 H 0.5002 0.9906 0.6325
H138_4 H 0.4905 0.4998 0.6325
C148_4 C 0.4586(11) 0.9772(8) 0.5771(9)
C149_4 C 0.5187(7) 0.5414(11) 0.5771(9)
H139_4 H 0.4754 0.9907 0.5483
H140_4 H 0.5154 0.5246 0.5483
C150_4 C 0.4193(12) 0.9571(9) 0.5680(9)
C151_4 C 0.5379(8) 0.5807(12) 0.5680(9)
H141_4 H 0.4096 0.9531 0.5323
H142_4 H 0.5436 0.5904 0.5323
C152_4 C 0.3944(11) 0.9432(9) 0.6117(11)
C153_4 C 0.5489(6) 0.6056(11) 0.6117(11)
H143_4 H 0.3679 0.9343 0.6072
H144_4 H 0.5665 0.6321 0.6072
C154_4 C 0.4091(11) 0.9426(8) 0.6616(9)
C155_4 C 0.5336(7) 0.5909(11) 0.6616(9)
H145_4 H 0.3921 0.9307 0.6909
H146_4 H 0.5387 0.6079 0.6909
C156_4 C 0.3750(10) 0.7475(7) 0.5601(12)
C157_4 C 0.3726(7) 0.6250(10) 0.5601(12)
C158_4 C 0.3709(8) 0.7881(5) 0.5450(11)
C159_4 C 0.4173(6) 0.6291(8) 0.5450(11)
C160_4 C 0.3964(8) 0.8262(5) 0.5566(11)
C161_4 C 0.4299(6) 0.6036(8) 0.5566(11)
C162_4 C 0.3882(8) 0.8542(6) 0.5462(12)
C163_4 C 0.4661(6) 0.6118(8) 0.5462(12)
H147_4 H 0.4065 0.8803 0.5521
H148_4 H 0.4739 0.5935 0.5521
C164_4 C 0.3525(9) 0.8434(6) 0.5267(12)
C165_4 C 0.4910(7) 0.6475(9) 0.5267(12)
H149_4 H 0.3442 0.8616 0.5259
H150_4 H 0.5175 0.6558 0.5259
C166_4 C 0.3285(8) 0.8075(5) 0.5086(11)
C167_4 C 0.4791(6) 0.6715(8) 0.5086(11)
H151_4 H 0.3073 0.8020 0.4863
H152_4 H 0.4948 0.6927 0.4863
C168_4 C 0.3364(8) 0.7800(6) 0.5236(10)
C169_4 C 0.4437(6) 0.6636(8) 0.5236(10)
H153_4 H 0.3172 0.7541 0.5192
H154_4 H 0.4370 0.6828 0.5192
C170_4 C 0.4082(12) 0.7225(8) 0.6023(14)
C171_4 C 0.3144(9) 0.5918(12) 0.6023(14)
H155_4 H 0.3848 0.6980 0.6108
H156_4 H 0.3133 0.6152 0.6108
H157_4 H 0.4187 0.7194 0.5679
H158_4 H 0.3008 0.5813 0.5679
C172_4 C 0.4387(11) 0.7333(8) 0.6492(10)
C173_4 C 0.2947(8) 0.5613(11) 0.6492(10)
C174_4 C 0.4770(11) 0.7469(8) 0.6338(9)
C175_4 C 0.2700(8) 0.5230(11) 0.6338(9)
H159_4 H 0.4839 0.7505 0.5968
H160_4 H 0.2667 0.5161 0.5968
C176_4 C 0.5039(11) 0.7547(8) 0.6720(12)
C177_4 C 0.2509(7) 0.4961(11) 0.6720(12)
H161_4 H 0.5294 0.7634 0.6610
H162_4 H 0.2341 0.4706 0.6610
C178_4 C 0.4955(11) 0.7505(8) 0.7262(11)
C179_4 C 0.2551(8) 0.5045(11) 0.7262(11)
H163_4 H 0.5152 0.7584 0.7522
H164_4 H 0.2433 0.4848 0.7522
C180_4 C 0.4575(12) 0.7345(8) 0.7423(9)
C181_4 C 0.2771(9) 0.5425(12) 0.7423(9)
H165_4 H 0.4507 0.7287 0.7791
H166_4 H 0.2781 0.5493 0.7791
C182_4 C 0.4302(11) 0.7273(8) 0.7041(12)
C183_4 C 0.2972(8) 0.5698(11) 0.7041(12)
H167_4 H 0.4046 0.7180 0.7155
H168_4 H 0.3135 0.5954 0.7155
N5_4 N 0.9254(6) 0.4447(7) 0.4524(8)
N6_4 N 0.9401(6) 0.4042(5) 0.2959(9)
O9_4 O 0.9525(5) 0.4375(6) 0.4590(8)
O10_4 O 0.9256(5) 0.4641(5) 0.4118(6)
O11_4 O 0.9038(6) 0.4418(7) 0.4928(8)
O12_4 O 0.9728(4) 0.4303(4) 0.2818(7)
O13_4 O 0.9247(5) 0.4060(5) 0.3396(7)
O14_4 O 0.9243(7) 0.3726(6) 0.2686(11)
C10_4 C 0.9632(6) 0.5651(7) 0.5869(10)
H14_4 H 0.9483 0.5684 0.6137
C11_4 C 0.9465(7) 0.5428(8) 0.5436(9)
H15_4 H 0.9194 0.5279 0.5422
C12_4 C 0.9673(6) 0.5411(7) 0.5016(10)
H16_4 H 0.9548 0.5276 0.4698
H32_4 H 0.9778 0.6098 0.7385
C32_4 C 0.9983(8) 0.6548(6) 0.6876(13)
H33_4 H 0.9744 0.6496 0.6733
N1_5 N 0.0859(7) 0.2713(7) 0.2727(11)
H1_5 H 0.0654 0.2609 0.2932
N3_5 N 0.1273(7) 0.2612(6) 0.5713(9)
H3_5 H 0.1206 0.2398 0.5542
N4_5 N 0.0193(7) 0.0851(6) 0.4305(11)
H4_5 H 0.0292 0.1052 0.4516
N5_5 N 0.2219(7) 0.4080(6) 0.2858(8)
N6_5 N 0.2624(5) 0.3933(6) 0.1293(9)
N7_5 N 0.2331(5) 0.3080(6) 0.2526(9)
O1_5 O 0.0694(4) 0.2687(4) 0.3856(7)
O3_5 O 0.0542(4) 0.2125(4) 0.5339(7)
O4_5 O 0.0685(4) 0.1664(4) 0.4117(7)
O5_5 O 0.1415(5) 0.3224(4) 0.2527(8)
O7_3 O 0.1254(5) 0.2931(5) 0.6473(8)
O8_5 O 0.0282(4) 0.0538(4) 0.3640(7)
O9_5 O 0.2291(6) 0.3809(5) 0.2924(8)
O10_5 O 0.2025(5) 0.4078(5) 0.2452(6)
O11_5 O 0.2248(7) 0.4296(6) 0.3262(8)
O12_5 O 0.2363(4) 0.3606(4) 0.1152(7)
O13_5 O 0.2606(5) 0.4087(5) 0.1730(7)
O14_5 O 0.2940(6) 0.4091(7) 0.1020(11)
O15_5 O 0.2503(5) 0.3308(5) 0.2134(8)
O16_5 O 0.1981(4) 0.2992(5) 0.2639(7)
O17_5 O 0.2457(6) 0.2869(7) 0.2705(10)
C1_5 C 0.0409(5) 0.2074(5) 0.4360(9)
C2_5 C 0.0499(7) 0.2501(6) 0.4385(10)
H5_5 H 0.0260 0.2509 0.4428
H6_5 H 0.0669 0.2635 0.4694
C3_5 C 0.0114(6) 0.1875(6) 0.3906(10)
H7_5 H 0.0207 0.2023 0.3568
H8_5 H 0.0075 0.1616 0.3843
C4_5 C 0.0238(7) 0.1873(7) 0.4881(10)
H9_5 H 0.0197 0.1611 0.4875
C5_5 C 0.0812(6) 0.2093(6) 0.4260(11)
H11_5 H 0.0954 0.2267 0.3958
H12_5 H 0.0973 0.2179 0.4588
C6_5 C 0.1120(8) 0.3045(7) 0.2817(12)
C7_5 C 0.1080(7) 0.3274(6) 0.3389(10)
C8_5 C 0.0859(7) 0.3102(6) 0.3836(8)
C9_5 C 0.0836(7) 0.3310(5) 0.4249(10)
H13_5 H 0.0699 0.3187 0.4567
C10_5 C 0.1015(7) 0.3702(6) 0.4203(10)
H14_5 H 0.0982 0.3851 0.4471
C11_5 C 0.1238(8) 0.3869(7) 0.3770(9)
H15_5 H 0.1387 0.4140 0.3756
C12_5 C 0.1255(7) 0.3661(6) 0.3350(10)
H16_5 H 0.1390 0.3786 0.3032
C13_5 C 0.0890(8) 0.2513(6) 0.2316(14)
H17_5 H 0.1144 0.2532 0.2336
H18_5 H 0.0879 0.2632 0.1973
C14_5 C 0.0578(6) 0.2083(5) 0.2304(12)
C15_5 C 0.0627(6) 0.1791(7) 0.2534(13)
H19_5 H 0.0866 0.1847 0.2682
C16_5 C 0.0321(8) 0.1422(6) 0.2539(13)
H20_5 H 0.0339 0.1232 0.2740
C19_5 C 0.0239(7) 0.1975(6) 0.2035(12)
H23_5 H 0.0195 0.2168 0.1894
C30_5 C 0.0293(7) 0.2977(8) 0.5759(12)
H31_5 H 0.0484 0.2963 0.5964
C31_5 C 0.0357(6) 0.3329(9) 0.5582(13)
H32_5 H 0.0568 0.3556 0.5719
C32_5 C 0.0118(6) 0.3351(8) 0.5210(13)
H33_5 H 0.0170 0.3590 0.5067
C34_5 C 0.1087(8) 0.2631(7) 0.6166(10)
C35_5 C 0.0671(8) 0.2289(6) 0.6263(8)
C36_5 C 0.0419(7) 0.2026(6) 0.5886(7)
C37_5 C 0.0066(8) 0.1727(6) 0.6028(7)
C39_5 C 0.0206(7) 0.1928(6) 0.6945(7)
H37_5 H 0.0120 0.1912 0.7306
C40_5 C 0.0554(8) 0.2222(6) 0.6806(7)
H38_5 H 0.0720 0.2384 0.7079
C41_5 C 0.1598(8) 0.2989(6) 0.5538(10)
H39_5 H 0.1504 0.3168 0.5460
H40_5 H 0.1791 0.3099 0.5829
C42_5 C 0.1774(7) 0.2926(7) 0.5036(8)
C43_5 C 0.1711(6) 0.3111(8) 0.4605(11)
H41_5 H 0.1571 0.3240 0.4659
C44_5 C 0.1853(7) 0.3106(8) 0.4105(9)
H42_5 H 0.1820 0.3241 0.3817
C45_5 C 0.2045(8) 0.2905(9) 0.4014(9)
H43_5 H 0.2102 0.2865 0.3657
C46_5 C 0.2155(6) 0.2766(9) 0.4451(11)
H44_5 H 0.2331 0.2677 0.4406
C47_5 C 0.2002(7) 0.2760(8) 0.4950(9)
H45_5 H 0.2053 0.2641 0.5243
C48_5 C 0.0392(7) 0.0809(7) 0.3935(12)
C49_5 C 0.0839(6) 0.1215(5) 0.3784(11)
C50_5 C 0.0965(6) 0.1596(5) 0.3900(11)
C51_5 C 0.1327(6) 0.1876(6) 0.3796(12)
H46_5 H 0.1405 0.2137 0.3855
C52_5 C 0.1576(7) 0.1768(6) 0.3601(12)
H47_5 H 0.1841 0.1950 0.3593
C53_5 C 0.1457(6) 0.1409(5) 0.3420(11)
H48_5 H 0.1614 0.1354 0.3197
C54_5 C 0.1103(6) 0.1134(6) 0.3570(10)
H49_5 H 0.1036 0.0875 0.3526
N12_5 N 0.2833(8) 0.0676(6) 0.4606(10)
H60_5 H 0.2777 0.0491 0.4375
N24_5 N 0.0680(9) 0.0453(7) 0.2419(9)
O24_5 O 0.2097(6) 0.0249(4) 0.4069(7)
O39_3 O 0.1676(7) 0.2931(5) 0.1473(8)
O62_5 O 0.0686(6) 0.0255(5) 0.2817(7)
O64_5 O 0.0379(9) 0.0473(7) 0.2328(9)
O66_5 O 0.0927(10) 0.0544(8) 0.2044(10)
H76_5 H 0.1869 0.0010 0.4947
C95_5 C 0.1333(9) 0.0010(7) 0.2262(13)
H98_5 H 0.1288 0.0219 0.2276
C97_5 C 0.1635(10) 0.0036(7) 0.1963(13)
H100_5 H 0.1768 0.0238 0.1715
C101_5 C 0.2764(9) 0.0972(6) 0.4500(12)
C103_5 C 0.2493(9) 0.0925(7) 0.3977(10)
C105_5 C 0.2196(9) 0.0586(7) 0.3769(9)
C107_5 C 0.2009(10) 0.0582(7) 0.3308(10)
H104_5 H 0.1807 0.0347 0.3172
C109_5 C 0.2115(10) 0.0919(7) 0.3044(11)
H106_5 H 0.1995 0.0918 0.2714
C111_5 C 0.2386(10) 0.1245(7) 0.3254(10)
H108_5 H 0.2443 0.1478 0.3086
C113_5 C 0.2582(9) 0.1253(6) 0.3701(9)
H110_5 H 0.2785 0.1491 0.3825
C115_5 C 0.3012(12) 0.0694(8) 0.5144(11)
H112_5 H 0.2889 0.0768 0.5428
H114_5 H 0.3288 0.0886 0.5136
C117_5 C 0.2954(10) 0.0293(6) 0.5264(12)
C119_5 C 0.2687(10) 0.0043(6) 0.5641(12)
H116_5 H 0.2513 0.0103 0.5811
C127_5 C 0.3215(10) 0.0201(7) 0.5050(11)
H124_4 H 0.3389 0.0364 0.4782
H126_5 H 0.1685 0.0112 0.5758
C137_5 C 0.1679(10) 0.0030(8) 0.6581(8)
H128_5 H 0.1663 0.0245 0.6696
C171_5 C 0.0748(12) 0.0190(9) 0.4357(14)
H156_5 H 0.0514 0.0201 0.4442
H158_5 H 0.0853 0.0326 0.4013
C173_5 C 0.1053(11) 0.0387(8) 0.4826(10)
C175_5 C 0.1436(11) 0.0634(8) 0.4672(9)
H160_5 H 0.1505 0.0667 0.4302
C177_5 C 0.1705(11) 0.0825(7) 0.5054(12)
H162_5 H 0.1960 0.0993 0.4944
C179_5 C 0.1621(11) 0.0783(8) 0.5596(11)
H164_5 H 0.1818 0.0901 0.5856
C181_5 C 0.1241(12) 0.0563(9) 0.5757(9)
H166_5 H 0.1173 0.0553 0.6125
C183_5 C 0.0968(11) 0.0362(8) 0.5375(12)
H168_5 H 0.0712 0.0199 0.5489
Eu2_5 Eu 0.0000 1.0000 0.30362(7)
N10_5 N 0.1853(10) 0.9141(7) 0.2727(11)
H58_5 H 0.1954 0.9346 0.2932
N14_5 N 0.1338(9) 0.8727(7) 0.5713(9)
H62_5 H 0.1191 0.8794 0.5542
N16_5 N 0.0657(9) 0.9807(7) 0.4305(11)
H64_5 H 0.0759 0.9708 0.4516
N18_5 N 0.1860(9) 0.7781(7) 0.2858(8)
N20_5 N 0.1308(8) 0.7376(5) 0.1293(9)
N22_5 N 0.0748(8) 0.7669(5) 0.2526(9)
O22_5 O 0.1992(6) 0.9306(4) 0.3856(7)
O26_5 O 0.1582(6) 0.9458(4) 0.5339(7)
O28_5 O 0.0978(6) 0.9315(4) 0.4117(7)
O30_5 O 0.1808(6) 0.8585(5) 0.2527(8)
O37_3 O 0.1676(7) 0.8746(5) 0.6473(8)
O40_3 O 0.1254(5) 0.8324(7) 0.1473(8)
O42_5 O 0.0255(6) 0.9718(4) 0.3640(7)
O44_5 O 0.1517(8) 0.7709(6) 0.2924(8)
O46_5 O 0.2052(7) 0.7975(5) 0.2452(6)
O48_5 O 0.2047(9) 0.7752(7) 0.3262(8)
O50_5 O 0.1242(6) 0.7637(4) 0.1152(7)
O52_5 O 0.1480(7) 0.7394(5) 0.1730(7)
O54_5 O 0.1150(9) 0.7060(6) 0.1020(11)
O56_5 O 0.0804(7) 0.7497(5) 0.2134(8)
O58_5 O 0.1010(6) 0.8019(4) 0.2639(7)
O60_5 O 0.0411(9) 0.7543(6) 0.2705(10)
O63_5 O 0.0093(5) 0.9621(9) 0.2328(9)
C63_5 C 0.1664(7) 0.9591(5) 0.4360(9)
C65_5 C 0.2001(9) 0.9501(7) 0.4385(10)
H66_5 H 0.2248 0.9740 0.4428
H68_5 H 0.1965 0.9331 0.4694
C67_5 C 0.1760(8) 0.9886(6) 0.3906(10)
H70_5 H 0.1815 0.9793 0.3568
H72_5 H 0.1540 0.9925 0.3843
C69_5 C 0.1634(10) 0.9762(7) 0.4881(10)
H74_5 H 0.1413 0.9803 0.4875
C71_5 C 0.1280(8) 0.9188(6) 0.4260(11)
H78_5 H 0.1312 0.9046 0.3958
H80_5 H 0.1205 0.9027 0.4588
C73_5 C 0.1924(11) 0.8880(8) 0.2817(12)
C75_5 C 0.2193(9) 0.8920(7) 0.3389(10)
C77_5 C 0.2242(9) 0.9141(7) 0.3836(8)
C79_5 C 0.2473(9) 0.9164(7) 0.4249(10)
H82_5 H 0.2487 0.9301 0.4567
C81_5 C 0.2686(9) 0.8985(7) 0.4203(10)
H84_5 H 0.2868 0.9018 0.4471
C83_5 C 0.2630(11) 0.8762(8) 0.3770(9)
H86_5 H 0.2752 0.8613 0.3756
C85_5 C 0.2405(9) 0.8745(7) 0.3350(10)
H88_5 H 0.2395 0.8610 0.3032
C87_5 C 0.1622(10) 0.9110(8) 0.2316(14)
H90_5 H 0.1387 0.8856 0.2336
H92_5 H 0.1752 0.9121 0.1973
C89_5 C 0.1504(8) 0.9422(6) 0.2304(12)
C91_5 C 0.1163(9) 0.9373(6) 0.2534(13)
H94_5 H 0.0980 0.9134 0.2682
C93_5 C 0.1100(10) 0.9679(8) 0.2539(13)
H96_5 H 0.0892 0.9661 0.2740
C99_5 C 0.1735(9) 0.9761(7) 0.2035(12)
H102_5 H 0.1972 0.9805 0.1894
C121_5 C 0.2683(11) 0.9707(7) 0.5759(12)
H118_5 H 0.2478 0.9516 0.5964
C123_5 C 0.2971(11) 0.9643(6) 0.5582(13)
H120_5 H 0.2987 0.9432 0.5719
C125_5 C 0.3232(10) 0.9882(6) 0.5210(13)
H122_4 H 0.3419 0.9830 0.5067
C129_5 C 0.1543(11) 0.8913(8) 0.6166(10)
C131_5 C 0.1617(10) 0.9329(8) 0.6263(8)
C133_5 C 0.1606(9) 0.9581(7) 0.5886(7)
C135_5 C 0.1660(10) 0.9934(8) 0.6028(7)
C139_5 C 0.1721(9) 0.9794(7) 0.6945(7)
H130_5 H 0.1791 0.9880 0.7306
C141_5 C 0.1667(10) 0.9446(8) 0.6806(7)
H132_5 H 0.1663 0.9280 0.7079
C143_5 C 0.1390(10) 0.8402(8) 0.5538(10)
H134_5 H 0.1663 0.8496 0.5460
H136_5 H 0.1307 0.8209 0.5829
C145_5 C 0.1151(10) 0.8226(7) 0.5036(8)
C147_5 C 0.1399(10) 0.8289(6) 0.4605(11)
H138_5 H 0.1668 0.8429 0.4659
C149_5 C 0.1252(11) 0.8147(7) 0.4105(9)
H140_5 H 0.1420 0.8180 0.3817
C151_5 C 0.0859(12) 0.7955(8) 0.4014(9)
H142_5 H 0.0762 0.7898 0.3657
C153_5 C 0.0610(11) 0.7845(6) 0.4451(11)
H144_5 H 0.0345 0.7669 0.4406
C155_5 C 0.0757(11) 0.7998(7) 0.4950(9)
H146_5 H 0.0587 0.7947 0.5243
C157_5 C 0.0416(10) 0.9608(7) 0.3935(12)
C159_5 C 0.0375(8) 0.9161(6) 0.3784(11)
C161_5 C 0.0630(8) 0.9035(6) 0.3900(11)
C163_5 C 0.0548(8) 0.8673(6) 0.3796(12)
H148_5 H 0.0731 0.8595 0.3855
C165_5 C 0.0191(9) 0.8424(7) 0.3601(12)
H150_5 H 0.0108 0.8159 0.3593
C169_5 C 0.0030(8) 0.8897(6) 0.3570(10)
N2_5 N 0.9324(6) 0.2158(6) 0.4606(10)
H2_5 H 0.9509 0.2287 0.4375
N8_5 N 0.9547(7) 0.0228(6) 0.2419(9)
O2_5 O 0.9751(4) 0.1849(4) 0.4069(7)
O18_5 O 0.9745(5) 0.0432(4) 0.2817(7)
O20_5 O 0.9456(8) 0.0384(6) 0.2044(10)
H10_5 H 0.9990 0.1860 0.4947
C17_5 C 0.9990(7) 0.1324(6) 0.2262(13)
H21_5 H 0.9781 0.1070 0.2276
C18_5 C 0.9964(7) 0.1600(7) 0.1963(13)
H22_5 H 0.9762 0.1531 0.1715
C20_5 C 0.9028(6) 0.1793(7) 0.4500(12)
C21_5 C 0.9075(7) 0.1569(6) 0.3977(10)
C22_5 C 0.9414(7) 0.1611(6) 0.3769(9)
C23_5 C 0.9418(7) 0.1428(7) 0.3308(10)
H24_5 H 0.9653 0.1461 0.3172
C24_5 C 0.9081(7) 0.1197(7) 0.3044(11)
H25_5 H 0.9082 0.1078 0.2714
C25_5 C 0.8755(7) 0.1142(7) 0.3254(10)
H26_5 H 0.8522 0.0966 0.3086
C26_5 C 0.8747(6) 0.1330(7) 0.3701(9)
H27_5 H 0.8509 0.1295 0.3825
C27_5 C 0.9306(8) 0.2319(9) 0.5144(11)
H28_5 H 0.9232 0.2122 0.5428
H29_5 H 0.9114 0.2403 0.5136
C28_5 C 0.9707(6) 0.2662(8) 0.5264(12)
C29_5 C 0.9957(6) 0.2645(8) 0.5641(12)
H30_5 H 0.9897 0.2411 0.5811
C33_5 C 0.9799(7) 0.3015(7) 0.5050(11)
H34_5 H 0.9636 0.3026 0.4782
H35_5 H 0.9888 0.1574 0.5758
C38_5 C 0.9970(8) 0.1650(6) 0.6581(8)
H36_5 H 0.9755 0.1419 0.6696
C55_5 C 0.9810(9) 0.0559(8) 0.4357(14)
H50_5 H 0.9799 0.0314 0.4442
H51_5 H 0.9674 0.0528 0.4013
C56_5 C 0.9613(8) 0.0667(8) 0.4826(10)
C57_5 C 0.9366(8) 0.0803(8) 0.4672(9)
H52_5 H 0.9333 0.0839 0.4302
C58_5 C 0.9175(7) 0.0881(8) 0.5054(12)
H53_5 H 0.9007 0.0968 0.4944
C59_5 C 0.9217(8) 0.0839(8) 0.5596(11)
H54_5 H 0.9099 0.0918 0.5856
C60_5 C 0.9437(9) 0.0679(8) 0.5757(9)
H55_5 H 0.9447 0.0621 0.6125
C61_5 C 0.9638(8) 0.0607(8) 0.5375(12)
H56_5 H 0.9801 0.0514 0.5489
C166_5 C 0.8591(5) 0.0049(8) 0.3420(11)
H151_5 H 0.8646 0.0261 0.3197
H153_5 H 0.9125 0.0162 0.3526
O19_5 O 0.9527(7) 0.9907(5) 0.2328(9)
N9_5 N 0.7287(7) 0.8147(10) 0.2727(11)
H57_5 H 0.7391 0.8046 0.2932
N11_5 N 0.7842(6) 0.7167(8) 0.4606(10)
H59_5 H 0.7713 0.7223 0.4375
N13_5 N 0.7388(6) 0.8662(9) 0.5713(9)
H61_5 H 0.7602 0.8809 0.5542
N15_5 N 0.9149(6) 0.9343(9) 0.4305(11)
H63_5 H 0.8948 0.9241 0.4516
N17_5 N 0.5920(6) 0.8140(9) 0.2858(8)
N19_5 N 0.6067(6) 0.8692(8) 0.1293(9)
N21_5 N 0.6920(6) 0.9252(8) 0.2526(9)
N23_5 N 0.9772(6) 0.9320(9) 0.2419(9)
O21_5 O 0.7313(4) 0.8008(6) 0.3856(7)
O23_5 O 0.8151(4) 0.7903(6) 0.4069(7)
O25_5 O 0.7875(4) 0.8418(6) 0.5339(7)
O27_5 O 0.8336(4) 0.9022(6) 0.4117(7)
O29_5 O 0.6776(4) 0.8192(6) 0.2527(8)
O36_3 O 0.7069(5) 0.8324(7) 0.6473(8)
O38_3 O 0.7069(5) 0.8746(5) 0.1473(8)
O41_5 O 0.9462(4) 0.9745(6) 0.3640(7)
O43_5 O 0.6191(5) 0.8483(8) 0.2924(8)
O45_5 O 0.5922(5) 0.7948(7) 0.2452(6)
O47_5 O 0.5704(6) 0.7953(9) 0.3262(8)
O49_5 O 0.6394(4) 0.8758(6) 0.1152(7)
O51_5 O 0.5913(5) 0.8520(7) 0.1730(7)
O53_5 O 0.5909(7) 0.8850(9) 0.1020(11)
O55_5 O 0.6692(5) 0.9196(7) 0.2134(8)
O57_5 O 0.7008(5) 0.8990(6) 0.2639(7)
O59_5 O 0.7131(7) 0.9589(9) 0.2705(10)
O61_5 O 0.9568(4) 0.9314(6) 0.2817(7)
O65_5 O 0.9616(6) 0.9073(10) 0.2044(10)
C62_5 C 0.7926(5) 0.8336(7) 0.4360(9)
C64_5 C 0.7499(6) 0.7999(9) 0.4385(10)
H65_5 H 0.7491 0.7752 0.4428
H67_5 H 0.7365 0.8035 0.4694
C66_5 C 0.8125(6) 0.8240(8) 0.3906(10)
H69_5 H 0.7977 0.8185 0.3568
H71_5 H 0.8384 0.8460 0.3843
C68_5 C 0.8127(7) 0.8366(10) 0.4881(10)
H73_5 H 0.8389 0.8587 0.4875
H75_5 H 0.8140 0.8131 0.4947
C70_5 C 0.7907(6) 0.8720(8) 0.4260(11)
H77_5 H 0.7733 0.8688 0.3958
H79_5 H 0.7821 0.8795 0.4588
C72_5 C 0.6955(7) 0.8076(11) 0.2817(12)
C74_5 C 0.6726(6) 0.7807(9) 0.3389(10)
C76_5 C 0.6898(6) 0.7758(9) 0.3836(8)
C78_5 C 0.6690(5) 0.7527(9) 0.4249(10)
H81_5 H 0.6813 0.7513 0.4567
C80_5 C 0.6298(6) 0.7314(9) 0.4203(10)
H83_5 H 0.6149 0.7132 0.4471
C82_5 C 0.6131(7) 0.7370(11) 0.3770(9)
H85_5 H 0.5860 0.7248 0.3756
C84_5 C 0.6339(6) 0.7595(9) 0.3350(10)
H87_5 H 0.6214 0.7605 0.3032
C86_5 C 0.7487(6) 0.8378(10) 0.2316(14)
H89_5 H 0.7468 0.8613 0.2336
H91_5 H 0.7368 0.8248 0.1973
C88_5 C 0.7917(5) 0.8496(8) 0.2304(12)
C90_5 C 0.8209(7) 0.8837(9) 0.2534(13)
H93_5 H 0.8153 0.9020 0.2682
C92_5 C 0.8578(6) 0.8900(10) 0.2539(13)
H95_5 H 0.8768 0.9108 0.2740
C94_5 C 0.8676(6) 0.8667(9) 0.2262(13)
H97_5 H 0.8930 0.8712 0.2276
C96_5 C 0.8400(7) 0.8365(10) 0.1963(13)
H99_5 H 0.8469 0.8232 0.1715
C98_5 C 0.8025(6) 0.8265(9) 0.2035(12)
H101_5 H 0.7832 0.8028 0.1894
C100_5 C 0.8207(7) 0.7236(9) 0.4500(12)
C102_5 C 0.8431(6) 0.7507(9) 0.3977(10)
C104_5 C 0.8389(6) 0.7804(9) 0.3769(9)
C106_5 C 0.8572(7) 0.7991(10) 0.3308(10)
H103_5 H 0.8539 0.8193 0.3172
C108_5 C 0.8803(7) 0.7885(10) 0.3044(11)
H105_5 H 0.8922 0.8005 0.2714
C110_5 C 0.8858(7) 0.7614(10) 0.3254(10)
H107_5 H 0.9034 0.7557 0.3086
C112_5 C 0.8670(7) 0.7418(9) 0.3701(9)
H109_5 H 0.8705 0.7215 0.3825
C114_5 C 0.7681(9) 0.6988(12) 0.5144(11)
H111_5 H 0.7878 0.7111 0.5428
H113_5 H 0.7597 0.6712 0.5136
C116_5 C 0.7338(8) 0.7046(10) 0.5264(12)
C118_5 C 0.7355(8) 0.7313(10) 0.5641(12)
H115_5 H 0.7589 0.7487 0.5811
C120_5 C 0.7023(8) 0.7317(11) 0.5759(12)
H117_5 H 0.7037 0.7522 0.5964
C122_5 C 0.6671(9) 0.7029(11) 0.5582(13)
H119_5 H 0.6444 0.7013 0.5719
C124_5 C 0.6649(8) 0.6768(10) 0.5210(13)
H121_3 H 0.6410 0.6581 0.5067
C126_5 C 0.6985(7) 0.6785(10) 0.5050(11)
H123_3 H 0.6974 0.6611 0.4782
C128_5 C 0.7369(7) 0.8457(11) 0.6166(10)
C130_5 C 0.7711(6) 0.8383(10) 0.6263(8)
C132_5 C 0.7974(6) 0.8394(9) 0.5886(7)
C134_5 C 0.8273(6) 0.8340(10) 0.6028(7)
H125_5 H 0.8426 0.8315 0.5758
C136_5 C 0.8350(6) 0.8321(10) 0.6581(8)
H127_5 H 0.8581 0.8337 0.6696
C138_5 C 0.8072(6) 0.8279(9) 0.6945(7)
H129_5 H 0.8088 0.8209 0.7306
C140_5 C 0.7778(6) 0.8333(10) 0.6806(7)
H131_5 H 0.7616 0.8337 0.7079
C142_5 C 0.7011(6) 0.8610(10) 0.5538(10)
H133_5 H 0.6832 0.8337 0.5460
H135_5 H 0.6901 0.8693 0.5829
C144_5 C 0.7074(7) 0.8849(10) 0.5036(8)
C146_5 C 0.6889(8) 0.8601(10) 0.4605(11)
H137_5 H 0.6760 0.8332 0.4659
C148_5 C 0.6894(8) 0.8748(11) 0.4105(9)
H139_5 H 0.6759 0.8580 0.3817
C150_5 C 0.7095(9) 0.9141(12) 0.4014(9)
H141_5 H 0.7135 0.9238 0.3657
C152_5 C 0.7234(9) 0.9390(11) 0.4451(11)
H143_5 H 0.7323 0.9655 0.4406
C154_5 C 0.7240(8) 0.9243(11) 0.4950(9)
H145_5 H 0.7359 0.9413 0.5243
C156_5 C 0.9191(7) 0.9584(10) 0.3935(12)
C158_5 C 0.8785(5) 0.9625(8) 0.3784(11)
C160_5 C 0.8404(5) 0.9370(8) 0.3900(11)
C162_5 C 0.8124(6) 0.9452(8) 0.3796(12)
H147_5 H 0.7863 0.9269 0.3855
C164_5 C 0.8232(6) 0.9809(9) 0.3601(12)
H149_5 H 0.8050 0.9892 0.3593
C167_5 C 0.9951(8) 0.8543(6) 0.3420(11)
H152_5 H 0.9739 0.8386 0.3197
C168_5 C 0.8866(6) 0.9970(8) 0.3570(10)
H154_5 H 0.9838 0.8964 0.3526
C170_5 C 0.9441(8) 0.9252(12) 0.4357(14)
H155_5 H 0.9686 0.9486 0.4442
H157_5 H 0.9472 0.9147 0.4013
C172_5 C 0.9333(8) 0.8947(11) 0.4826(10)
C174_5 C 0.9197(8) 0.8564(11) 0.4672(9)
H159_5 H 0.9161 0.8495 0.4302
C176_5 C 0.9119(8) 0.8295(11) 0.5054(12)
H161_5 H 0.9032 0.8040 0.4944
C178_5 C 0.9161(8) 0.8379(11) 0.5596(11)
H163_5 H 0.9082 0.8182 0.5856
C180_5 C 0.9321(8) 0.8759(12) 0.5757(9)
H165_5 H 0.9379 0.8827 0.6125
C182_5 C 0.9393(8) 0.9032(11) 0.5375(12)
H167_5 H 0.9486 0.9288 0.5489
Eu2_6 Eu 0.0000 0.0001 0.30362(7)
Eu2_7 Eu 0.9999 1.0000 0.30362(7)
N13_6 N 0.1338(9) 0.2612(6) 0.0713(9)
H61_6 H 0.1191 0.2398 0.0542
O25_6 O 0.1582(6) 0.2125(4) 0.0339(7)
C114_6 C 0.3012(12) 0.2319(9) 0.0144(11)
H111_6 H 0.2889 0.2122 0.0428
H113_6 H 0.3288 0.2403 0.0136
C116_6 C 0.2954(10) 0.2662(8) 0.0264(12)
C118_6 C 0.2687(10) 0.2645(8) 0.0641(12)
H115_6 H 0.2513 0.2411 0.0811
C120_6 C 0.2683(11) 0.2977(8) 0.0759(12)
H117_6 H 0.2478 0.2963 0.0964
C122_6 C 0.2971(11) 0.3329(9) 0.0582(13)
H119_6 H 0.2987 0.3556 0.0719
C124_6 C 0.3232(10) 0.3351(8) 0.0210(13)
H121_4 H 0.3419 0.3590 0.0067
C126_6 C 0.3215(10) 0.3015(7) 0.0050(11)
C128_6 C 0.1543(11) 0.2631(7) 0.1166(10)
C130_6 C 0.1617(10) 0.2289(6) 0.1263(8)
C132_6 C 0.1606(9) 0.2026(6) 0.0886(7)
C134_6 C 0.1660(10) 0.1727(6) 0.1028(7)
H125_6 H 0.1685 0.1574 0.0758
C136_6 C 0.1679(10) 0.1650(6) 0.1581(8)
H127_6 H 0.1663 0.1419 0.1696
C138_6 C 0.1721(9) 0.1928(6) 0.1945(7)
H129_6 H 0.1791 0.1912 0.2306
C140_6 C 0.1667(10) 0.2222(6) 0.1806(7)
H131_6 H 0.1663 0.2384 0.2079
C142_6 C 0.1390(10) 0.2989(6) 0.0538(10)
H133_6 H 0.1663 0.3168 0.0460
H135_6 H 0.1307 0.3099 0.0829
C144_6 C 0.1151(10) 0.2926(7) 0.0036(8)
H145_6 H 0.0587 0.2641 0.0243
C176_6 C 0.1705(11) 0.0881(8) 0.0054(12)
C178_6 C 0.1621(11) 0.0839(8) 0.0596(11)
H163_6 H 0.1818 0.0918 0.0856
C180_6 C 0.1241(12) 0.0679(8) 0.0757(9)
H165_6 H 0.1173 0.0621 0.1125
C182_6 C 0.0968(11) 0.0607(8) 0.0375(12)
H167_6 H 0.0712 0.0514 0.0489
O19_6 O 0.0093(5) 0.0473(7) 0.7328(9)
N9_6 N 0.1853(10) 0.2713(7) 0.7727(11)
H57_6 H 0.1954 0.2609 0.7932
N11_6 N 0.2833(8) 0.2158(6) 0.9606(10)
H59_6 H 0.2777 0.2287 0.9375
N15_6 N 0.0657(9) 0.0851(6) 0.9305(11)
H63_6 H 0.0759 0.1052 0.9516
N17_6 N 0.1860(9) 0.4080(6) 0.7858(8)
N19_6 N 0.1308(8) 0.3933(6) 0.6293(9)
N21_6 N 0.0748(8) 0.3080(6) 0.7526(9)
N23_6 N 0.0680(9) 0.0228(6) 0.7419(9)
O21_6 O 0.1992(6) 0.2687(4) 0.8856(7)
O23_6 O 0.2097(6) 0.1849(4) 0.9069(7)
O27_6 O 0.0978(6) 0.1664(4) 0.9117(7)
O29_6 O 0.1808(6) 0.3224(4) 0.7527(8)
O41_6 O 0.0255(6) 0.0538(4) 0.8640(7)
O43_6 O 0.1517(8) 0.3809(5) 0.7924(8)
O45_6 O 0.2052(7) 0.4078(5) 0.7452(6)
O47_6 O 0.2047(9) 0.4296(6) 0.8262(8)
O49_6 O 0.1242(6) 0.3606(4) 0.6152(7)
O51_6 O 0.1480(7) 0.4087(5) 0.6730(7)
O53_6 O 0.1150(9) 0.4091(7) 0.6020(11)
O55_6 O 0.0804(7) 0.3308(5) 0.7134(8)
O57_6 O 0.1010(6) 0.2992(5) 0.7639(7)
O59_6 O 0.0411(9) 0.2869(7) 0.7705(10)
O61_6 O 0.0686(6) 0.0432(4) 0.7817(7)
O65_6 O 0.0927(10) 0.0384(6) 0.7044(10)
C62_6 C 0.1664(7) 0.2074(5) 0.9360(9)
C64_6 C 0.2001(9) 0.2501(6) 0.9385(10)
H65_6 H 0.2248 0.2509 0.9428
H67_6 H 0.1965 0.2635 0.9694
C66_6 C 0.1760(8) 0.1875(6) 0.8906(10)
H69_6 H 0.1815 0.2023 0.8568
H71_6 H 0.1540 0.1616 0.8843
C68_6 C 0.1634(10) 0.1873(7) 0.9881(10)
H73_6 H 0.1413 0.1611 0.9875
H75_6 H 0.1869 0.1860 0.9947
C70_6 C 0.1280(8) 0.2093(6) 0.9260(11)
H77_6 H 0.1312 0.2267 0.8958
H79_6 H 0.1205 0.2179 0.9588
C72_6 C 0.1924(11) 0.3045(7) 0.7817(12)
C74_6 C 0.2193(9) 0.3274(6) 0.8389(10)
C76_6 C 0.2242(9) 0.3102(6) 0.8836(8)
C78_6 C 0.2473(9) 0.3310(5) 0.9249(10)
H81_6 H 0.2487 0.3187 0.9567
C80_6 C 0.2686(9) 0.3702(6) 0.9203(10)
H83_6 H 0.2868 0.3851 0.9471
C82_6 C 0.2630(11) 0.3869(7) 0.8770(9)
H85_6 H 0.2752 0.4140 0.8756
C84_6 C 0.2405(9) 0.3661(6) 0.8350(10)
H87_6 H 0.2395 0.3786 0.8032
C86_6 C 0.1622(10) 0.2513(6) 0.7316(14)
H89_6 H 0.1387 0.2532 0.7336
H91_6 H 0.1752 0.2632 0.6973
C88_6 C 0.1504(8) 0.2083(5) 0.7304(12)
C90_6 C 0.1163(9) 0.1791(7) 0.7534(13)
H93_6 H 0.0980 0.1847 0.7682
C92_6 C 0.1100(10) 0.1422(6) 0.7539(13)
H95_6 H 0.0892 0.1232 0.7740
C94_6 C 0.1333(9) 0.1324(6) 0.7262(13)
H97_6 H 0.1288 0.1070 0.7276
C96_6 C 0.1635(10) 0.1600(7) 0.6963(13)
H99_6 H 0.1768 0.1531 0.6715
C98_6 C 0.1735(9) 0.1975(6) 0.7035(12)
H101_6 H 0.1972 0.2168 0.6894
C100_6 C 0.2764(9) 0.1793(7) 0.9500(12)
C102_6 C 0.2493(9) 0.1569(6) 0.8977(10)
C104_6 C 0.2196(9) 0.1611(6) 0.8769(9)
C106_6 C 0.2009(10) 0.1428(7) 0.8308(10)
H103_6 H 0.1807 0.1461 0.8172
C108_6 C 0.2115(10) 0.1197(7) 0.8044(11)
H105_6 H 0.1995 0.1078 0.7714
C110_6 C 0.2386(10) 0.1142(7) 0.8254(10)
H107_6 H 0.2443 0.0966 0.8086
C112_6 C 0.2582(9) 0.1330(7) 0.8701(9)
H109_6 H 0.2785 0.1295 0.8825
H123_4 H 0.3389 0.3026 0.9782
C146_6 C 0.1399(10) 0.3111(8) 0.9605(11)
H137_6 H 0.1668 0.3240 0.9659
C148_6 C 0.1252(11) 0.3106(8) 0.9105(9)
H139_6 H 0.1420 0.3241 0.8817
C150_6 C 0.0859(12) 0.2905(9) 0.9014(9)
H141_6 H 0.0762 0.2865 0.8657
C152_6 C 0.0610(11) 0.2766(9) 0.9451(11)
H143_6 H 0.0345 0.2677 0.9406
C154_6 C 0.0757(11) 0.2760(8) 0.9950(9)
C156_6 C 0.0416(10) 0.0809(7) 0.8935(12)
C158_6 C 0.0375(8) 0.1215(5) 0.8784(11)
C160_6 C 0.0630(8) 0.1596(5) 0.8900(11)
C162_6 C 0.0548(8) 0.1876(6) 0.8796(12)
H147_6 H 0.0731 0.2137 0.8855
C164_6 C 0.0191(9) 0.1768(6) 0.8601(12)
H149_6 H 0.0108 0.1950 0.8593
C167_6 C 0.1457(6) 0.0049(8) 0.8420(11)
H152_6 H 0.1614 0.0261 0.8197
C168_6 C 0.0030(8) 0.1134(6) 0.8570(10)
H154_6 H 0.1036 0.0162 0.8526
C170_6 C 0.0748(12) 0.0559(8) 0.9357(14)
H155_6 H 0.0514 0.0314 0.9442
H157_6 H 0.0853 0.0528 0.9013
C172_6 C 0.1053(11) 0.0667(8) 0.9826(10)
C174_6 C 0.1436(11) 0.0803(8) 0.9672(9)
H159_6 H 0.1505 0.0839 0.9302
H161_6 H 0.1960 0.0968 0.9944
N14_6 N 0.1273(7) 0.8662(9) 0.0713(9)
H62_6 H 0.1206 0.8809 0.0542
O26_6 O 0.0542(4) 0.8418(6) 0.0339(7)
C121_6 C 0.0293(7) 0.7317(11) 0.0759(12)
H118_6 H 0.0484 0.7522 0.0964
C123_6 C 0.0357(6) 0.7029(11) 0.0582(13)
H120_6 H 0.0568 0.7013 0.0719
C125_6 C 0.0118(6) 0.6768(10) 0.0210(13)
H122_5 H 0.0170 0.6581 0.0067
C129_6 C 0.1087(8) 0.8457(11) 0.1166(10)
C131_6 C 0.0671(8) 0.8383(10) 0.1263(8)
C133_6 C 0.0419(7) 0.8394(9) 0.0886(7)
C135_6 C 0.0066(8) 0.8340(10) 0.1028(7)
C139_6 C 0.0206(7) 0.8279(9) 0.1945(7)
H130_6 H 0.0120 0.8209 0.2306
C141_6 C 0.0554(8) 0.8333(10) 0.1806(7)
H132_6 H 0.0720 0.8337 0.2079
C143_6 C 0.1598(8) 0.8610(10) 0.0538(10)
H134_6 H 0.1504 0.8337 0.0460
H136_6 H 0.1791 0.8693 0.0829
C145_6 C 0.1774(7) 0.8849(10) 0.0036(8)
H146_6 H 0.2053 0.9413 0.0243
Eu2_8 Eu 0.0000 1.0000 0.80362(7)
N10_6 N 0.0859(7) 0.8147(10) 0.7727(11)
H58_6 H 0.0654 0.8046 0.7932
N16_6 N 0.0193(7) 0.9343(9) 0.9305(11)
H64_6 H 0.0292 0.9241 0.9516
N18_6 N 0.2219(7) 0.8140(9) 0.7858(8)
N20_6 N 0.2624(5) 0.8692(8) 0.6293(9)
N22_6 N 0.2331(5) 0.9252(8) 0.7526(9)
O22_6 O 0.0694(4) 0.8008(6) 0.8856(7)
O28_6 O 0.0685(4) 0.9022(6) 0.9117(7)
O30_6 O 0.1415(5) 0.8192(6) 0.7527(8)
O42_6 O 0.0282(4) 0.9745(6) 0.8640(7)
O44_6 O 0.2291(6) 0.8483(8) 0.7924(8)
O46_6 O 0.2025(5) 0.7948(7) 0.7452(6)
O48_6 O 0.2248(7) 0.7953(9) 0.8262(8)
O50_6 O 0.2363(4) 0.8758(6) 0.6152(7)
O52_6 O 0.2606(5) 0.8520(7) 0.6730(7)
O54_6 O 0.2940(6) 0.8850(9) 0.6020(11)
O56_6 O 0.2503(5) 0.9196(7) 0.7134(8)
O58_6 O 0.1981(4) 0.8990(6) 0.7639(7)
O60_6 O 0.2457(6) 0.9589(9) 0.7705(10)
O63_6 O 0.0379(9) 0.9907(5) 0.7328(9)
C63_6 C 0.0409(5) 0.8336(7) 0.9360(9)
C65_6 C 0.0499(7) 0.7999(9) 0.9385(10)
H66_6 H 0.0260 0.7752 0.9428
H68_6 H 0.0669 0.8035 0.9694
C67_6 C 0.0114(6) 0.8240(8) 0.8906(10)
H70_6 H 0.0207 0.8185 0.8568
H72_6 H 0.0075 0.8460 0.8843
C69_6 C 0.0238(7) 0.8366(10) 0.9881(10)
H74_6 H 0.0197 0.8587 0.9875
C71_6 C 0.0812(6) 0.8720(8) 0.9260(11)
H78_6 H 0.0954 0.8688 0.8958
H80_6 H 0.0973 0.8795 0.9588
C73_6 C 0.1120(8) 0.8076(11) 0.7817(12)
C75_6 C 0.1080(7) 0.7807(9) 0.8389(10)
C77_6 C 0.0859(7) 0.7758(9) 0.8836(8)
C79_6 C 0.0836(7) 0.7527(9) 0.9249(10)
H82_6 H 0.0699 0.7513 0.9567
C81_6 C 0.1015(7) 0.7314(9) 0.9203(10)
H84_6 H 0.0982 0.7132 0.9471
C83_6 C 0.1238(8) 0.7370(11) 0.8770(9)
H86_6 H 0.1387 0.7248 0.8756
C85_6 C 0.1255(7) 0.7595(9) 0.8350(10)
H88_6 H 0.1390 0.7605 0.8032
C87_6 C 0.0890(8) 0.8378(10) 0.7316(14)
H90_6 H 0.1144 0.8613 0.7336
H92_6 H 0.0879 0.8248 0.6973
C89_6 C 0.0578(6) 0.8496(8) 0.7304(12)
C91_6 C 0.0627(6) 0.8837(9) 0.7534(13)
H94_6 H 0.0866 0.9020 0.7682
C93_6 C 0.0321(8) 0.8900(10) 0.7539(13)
H96_6 H 0.0339 0.9108 0.7740
C99_6 C 0.0239(7) 0.8265(9) 0.7035(12)
H102_6 H 0.0195 0.8028 0.6894
C147_6 C 0.1711(6) 0.8601(10) 0.9605(11)
H138_6 H 0.1571 0.8332 0.9659
C149_6 C 0.1853(7) 0.8748(11) 0.9105(9)
H140_6 H 0.1820 0.8580 0.8817
C151_6 C 0.2045(8) 0.9141(12) 0.9014(9)
H142_6 H 0.2102 0.9238 0.8657
C153_6 C 0.2155(6) 0.9390(11) 0.9451(11)
H144_6 H 0.2331 0.9655 0.9406
C155_6 C 0.2002(7) 0.9243(11) 0.9950(9)
C157_6 C 0.0392(7) 0.9584(10) 0.8935(12)
C159_6 C 0.0839(6) 0.9625(8) 0.8784(11)
C161_6 C 0.0965(6) 0.9370(8) 0.8900(11)
C163_6 C 0.1327(6) 0.9452(8) 0.8796(12)
H148_6 H 0.1405 0.9269 0.8855
C165_6 C 0.1576(7) 0.9809(9) 0.8601(12)
H150_6 H 0.1841 0.9892 0.8593
C169_6 C 0.1103(6) 0.9970(8) 0.8570(10)
C27_6 C 0.7681(9) 0.0694(8) 0.0144(11)
H28_6 H 0.7878 0.0768 0.0428
H29_6 H 0.7597 0.0886 0.0136
C28_6 C 0.7338(8) 0.0293(6) 0.0264(12)
C29_6 C 0.7355(8) 0.0043(6) 0.0641(12)
H30_6 H 0.7589 0.0103 0.0811
C33_6 C 0.6985(7) 0.0201(7) 0.0050(11)
H35_6 H 0.8426 0.0112 0.0758
C38_6 C 0.8350(6) 0.0030(8) 0.1581(8)
H36_6 H 0.8581 0.0245 0.1696
C58_6 C 0.9119(8) 0.0825(7) 0.0054(12)
C59_6 C 0.9161(8) 0.0783(8) 0.0596(11)
H54_6 H 0.9082 0.0901 0.0856
C60_6 C 0.9321(8) 0.0563(9) 0.0757(9)
H55_6 H 0.9379 0.0553 0.1125
C61_6 C 0.9393(8) 0.0362(8) 0.0375(12)
H56_6 H 0.9486 0.0199 0.0489
N2_6 N 0.7842(6) 0.0676(6) 0.9606(10)
H2_6 H 0.7713 0.0491 0.9375
N8_6 N 0.9772(6) 0.0453(7) 0.7419(9)
O2_6 O 0.8151(4) 0.0249(4) 0.9069(7)
O18_6 O 0.9568(4) 0.0255(5) 0.7817(7)
O20_6 O 0.9616(6) 0.0544(8) 0.7044(10)
H10_6 H 0.8140 0.0010 0.9947
C17_6 C 0.8676(6) 0.0010(7) 0.7262(13)
H21_6 H 0.8930 0.0219 0.7276
C18_6 C 0.8400(7) 0.0036(7) 0.6963(13)
H22_6 H 0.8469 0.0238 0.6715
C20_6 C 0.8207(7) 0.0972(6) 0.9500(12)
C21_6 C 0.8431(6) 0.0925(7) 0.8977(10)
C22_6 C 0.8389(6) 0.0586(7) 0.8769(9)
C23_6 C 0.8572(7) 0.0582(7) 0.8308(10)
H24_6 H 0.8539 0.0347 0.8172
C24_6 C 0.8803(7) 0.0919(7) 0.8044(11)
H25_6 H 0.8922 0.0918 0.7714
C25_6 C 0.8858(7) 0.1245(7) 0.8254(10)
H26_6 H 0.9034 0.1478 0.8086
C26_6 C 0.8670(7) 0.1253(6) 0.8701(9)
H27_6 H 0.8705 0.1491 0.8825
H34_6 H 0.6974 0.0364 0.9782
C55_6 C 0.9441(8) 0.0190(9) 0.9357(14)
H50_6 H 0.9686 0.0201 0.9442
H51_6 H 0.9472 0.0326 0.9013
C56_6 C 0.9333(8) 0.0387(8) 0.9826(10)
C57_6 C 0.9197(8) 0.0634(8) 0.9672(9)
H52_6 H 0.9161 0.0667 0.9302
H53_6 H 0.9032 0.0993 0.9944
C166_6 C 0.9951(8) 0.1409(5) 0.8420(11)
H151_6 H 0.9739 0.1354 0.8197
H153_6 H 0.9838 0.0875 0.8526
N3_6 N 0.7388(6) 0.8727(7) 0.0713(9)
H3_6 H 0.7602 0.8794 0.0542
O3_6 O 0.7875(4) 0.9458(4) 0.0339(7)
C30_6 C 0.7023(8) 0.9707(7) 0.0759(12)
H31_6 H 0.7037 0.9516 0.0964
C31_6 C 0.6671(9) 0.9643(6) 0.0582(13)
H32_6 H 0.6444 0.9432 0.0719
C32_6 C 0.6649(8) 0.9882(6) 0.0210(13)
H33_6 H 0.6410 0.9830 0.0067
C34_6 C 0.7369(7) 0.8913(8) 0.1166(10)
C35_6 C 0.7711(6) 0.9329(8) 0.1263(8)
C36_6 C 0.7974(6) 0.9581(7) 0.0886(7)
C37_6 C 0.8273(6) 0.9934(8) 0.1028(7)
C39_6 C 0.8072(6) 0.9794(7) 0.1945(7)
H37_6 H 0.8088 0.9880 0.2306
C40_6 C 0.7778(6) 0.9446(8) 0.1806(7)
H38_6 H 0.7616 0.9280 0.2079
C41_6 C 0.7011(6) 0.8402(8) 0.0538(10)
H39_6 H 0.6832 0.8496 0.0460
H40_6 H 0.6901 0.8209 0.0829
C42_6 C 0.7074(7) 0.8226(7) 0.0036(8)
H45_6 H 0.7359 0.7947 0.0243
C115_6 C 0.9306(8) 0.6988(12) 0.0144(11)
H112_6 H 0.9232 0.7111 0.0428
H114_6 H 0.9114 0.6712 0.0136
C117_6 C 0.9707(6) 0.7046(10) 0.0264(12)
C119_6 C 0.9957(6) 0.7313(10) 0.0641(12)
H116_6 H 0.9897 0.7487 0.0811
C127_6 C 0.9799(7) 0.6785(10) 0.0050(11)
H126_6 H 0.9888 0.8315 0.0758
C137_6 C 0.9970(8) 0.8321(10) 0.1581(8)
H128_6 H 0.9755 0.8337 0.1696
C177_6 C 0.9175(7) 0.8295(11) 0.0054(12)
C179_6 C 0.9217(8) 0.8379(11) 0.0596(11)
H164_6 H 0.9099 0.8182 0.0856
C181_6 C 0.9437(9) 0.8759(12) 0.0757(9)
H166_6 H 0.9447 0.8827 0.1125
C183_6 C 0.9638(8) 0.9032(11) 0.0375(12)
H168_6 H 0.9801 0.9288 0.0489
N1_6 N 0.7287(7) 0.9141(7) 0.7727(11)
H1_6 H 0.7391 0.9346 0.7932
N4_6 N 0.9149(6) 0.9807(7) 0.9305(11)
H4_6 H 0.8948 0.9708 0.9516
N5_6 N 0.5920(6) 0.7781(7) 0.7858(8)
N6_6 N 0.6067(6) 0.7376(5) 0.6293(9)
N7_6 N 0.6920(6) 0.7669(5) 0.7526(9)
O1_6 O 0.7313(4) 0.9306(4) 0.8856(7)
O4_6 O 0.8336(4) 0.9315(4) 0.9117(7)
O5_6 O 0.6776(4) 0.8585(5) 0.7527(8)
O8_6 O 0.9462(4) 0.9718(4) 0.8640(7)
O9_6 O 0.6191(5) 0.7709(6) 0.7924(8)
O10_6 O 0.5922(5) 0.7975(5) 0.7452(6)
O11_6 O 0.5704(6) 0.7752(7) 0.8262(8)
O12_6 O 0.6394(4) 0.7637(4) 0.6152(7)
O13_6 O 0.5913(5) 0.7394(5) 0.6730(7)
O14_6 O 0.5909(7) 0.7060(6) 0.6020(11)
O15_6 O 0.6692(5) 0.7497(5) 0.7134(8)
O16_6 O 0.7008(5) 0.8019(4) 0.7639(7)
O17_6 O 0.7131(7) 0.7543(6) 0.7705(10)
C1_6 C 0.7926(5) 0.9591(5) 0.9360(9)
C2_6 C 0.7499(6) 0.9501(7) 0.9385(10)
H5_6 H 0.7491 0.9740 0.9428
H6_6 H 0.7365 0.9331 0.9694
C3_6 C 0.8125(6) 0.9886(6) 0.8906(10)
H7_6 H 0.7977 0.9793 0.8568
H8_6 H 0.8384 0.9925 0.8843
C4_6 C 0.8127(7) 0.9762(7) 0.9881(10)
H9_6 H 0.8389 0.9803 0.9875
C5_6 C 0.7907(6) 0.9188(6) 0.9260(11)
H11_6 H 0.7733 0.9046 0.8958
H12_6 H 0.7821 0.9027 0.9588
C6_6 C 0.6955(7) 0.8880(8) 0.7817(12)
C7_6 C 0.6726(6) 0.8920(7) 0.8389(10)
C8_6 C 0.6898(6) 0.9141(7) 0.8836(8)
C9_6 C 0.6690(5) 0.9164(7) 0.9249(10)
H13_6 H 0.6813 0.9301 0.9567
C10_6 C 0.6298(6) 0.8985(7) 0.9203(10)
H14_6 H 0.6149 0.9018 0.9471
C11_6 C 0.6131(7) 0.8762(8) 0.8770(9)
H15_6 H 0.5860 0.8613 0.8756
C12_6 C 0.6339(6) 0.8745(7) 0.8350(10)
H16_6 H 0.6214 0.8610 0.8032
C13_6 C 0.7487(6) 0.9110(8) 0.7316(14)
H17_6 H 0.7468 0.8856 0.7336
H18_6 H 0.7368 0.9121 0.6973
C14_6 C 0.7917(5) 0.9422(6) 0.7304(12)
C15_6 C 0.8209(7) 0.9373(6) 0.7534(13)
H19_6 H 0.8153 0.9134 0.7682
C16_6 C 0.8578(6) 0.9679(8) 0.7539(13)
H20_6 H 0.8768 0.9661 0.7740
C19_6 C 0.8025(6) 0.9761(7) 0.7035(12)
H23_6 H 0.7832 0.9805 0.6894
C43_6 C 0.6889(8) 0.8289(6) 0.9605(11)
H41_6 H 0.6760 0.8429 0.9659
C44_6 C 0.6894(8) 0.8147(7) 0.9105(9)
H42_6 H 0.6759 0.8180 0.8817
C45_6 C 0.7095(9) 0.7955(8) 0.9014(9)
H43_6 H 0.7135 0.7898 0.8657
C46_6 C 0.7234(9) 0.7845(6) 0.9451(11)
H44_6 H 0.7323 0.7669 0.9406
C47_6 C 0.7240(8) 0.7998(7) 0.9950(9)
C48_6 C 0.9191(7) 0.9608(7) 0.8935(12)
C49_6 C 0.8785(5) 0.9161(6) 0.8784(11)
C50_6 C 0.8404(5) 0.9035(6) 0.8900(11)
C51_6 C 0.8124(6) 0.8673(6) 0.8796(12)
H46_6 H 0.7863 0.8595 0.8855
C52_6 C 0.8232(6) 0.8424(7) 0.8601(12)
H47_6 H 0.8050 0.8159 0.8593
C53_6 C 0.8591(5) 0.8543(6) 0.8420(11)
H48_6 H 0.8646 0.8386 0.8197
C54_6 C 0.8866(6) 0.8897(6) 0.8570(10)
H49_6 H 0.9125 0.8964 0.8526
N12_6 N 0.9324(6) 0.7167(8) 0.9606(10)
H60_6 H 0.9509 0.7223 0.9375
N24_6 N 0.9547(7) 0.9320(9) 0.7419(9)
O24_6 O 0.9751(4) 0.7903(6) 0.9069(7)
O62_6 O 0.9745(5) 0.9314(6) 0.7817(7)
O64_6 O 0.9527(7) 0.9621(9) 0.7328(9)
O66_6 O 0.9456(8) 0.9073(10) 0.7044(10)
H76_6 H 0.9990 0.8131 0.9947
C95_6 C 0.9990(7) 0.8667(9) 0.7262(13)
H98_6 H 0.9781 0.8712 0.7276
C97_6 C 0.9964(7) 0.8365(10) 0.6963(13)
H100_6 H 0.9762 0.8232 0.6715
C101_6 C 0.9028(6) 0.7236(9) 0.9500(12)
C103_6 C 0.9075(7) 0.7507(9) 0.8977(10)
C105_6 C 0.9414(7) 0.7804(9) 0.8769(9)
C107_6 C 0.9418(7) 0.7991(10) 0.8308(10)
H104_6 H 0.9653 0.8193 0.8172
C109_6 C 0.9081(7) 0.7885(10) 0.8044(11)
H106_6 H 0.9082 0.8005 0.7714
C111_6 C 0.8755(7) 0.7614(10) 0.8254(10)
H108_6 H 0.8522 0.7557 0.8086
C113_6 C 0.8747(6) 0.7418(9) 0.8701(9)
H110_6 H 0.8509 0.7215 0.8825
H124_5 H 0.9636 0.6611 0.9782
C171_6 C 0.9810(9) 0.9252(12) 0.9357(14)
H156_6 H 0.9799 0.9486 0.9442
H158_6 H 0.9674 0.9147 0.9013
C173_6 C 0.9613(8) 0.8947(11) 0.9826(10)
C175_6 C 0.9366(8) 0.8564(11) 0.9672(9)
H160_6 H 0.9333 0.8495 0.9302
H162_6 H 0.9007 0.8040 0.9944
Eu2_9 Eu 0.9999 1.0000 0.80362(7)
Eu2_10 Eu 0.0000 0.0001 0.80362(7)
H121_5 H 0.3077 0.9914 0.8400
H123_5 H 0.3641 0.9944 0.8115
H121_6 H 0.0086 0.6923 0.3400
H123_6 H 0.0056 0.6359 0.3115
H122_6 H 0.6837 0.9914 0.3400
H124_6 H 0.6303 0.9944 0.3115
loop_
_geom_bond_atom_site_label_1
_geom_bond_atom_site_label_2
_geom_bond_site_symmetry_1
_geom_bond_site_symmetry_2
H37 C39 1_555 1_555
H38 C40 1_555 1_555
H129 C138 1_555 1_555
H130 C139 1_555 1_555
H131 C140 1_555 1_555
H132 C141 1_555 1_555
C39 C40 1_555 1_555
C138 C140 1_555 1_555
C139 C141 1_555 1_555
Eu1 O5 1_555 1_555
Eu2 O8 1_555 1_555
N1 H1 1_555 1_555
N2 H2 1_555 1_555
N3 H3 1_555 1_555
N4 H4 1_555 1_555
N5 O9 1_555 1_555
N6 O12 1_555 1_555
N7 O15 1_555 1_555
N8 O18 1_555 1_555
O1 C2 1_555 1_555
O2 C3 1_555 1_555
O3 C4 1_555 1_555
O4 C5 1_555 1_555
O5 C6 1_555 1_555
O6 C20 1_555 1_555
O7 C34 1_555 1_555
O8 C48 1_555 1_555
O9 Eu1 1_555 1_555
O10 Eu1 1_555 1_555
O11 N5 1_555 1_555
O12 Eu1 1_555 1_555
O13 Eu1 1_555 1_555
O14 N6 1_555 1_555
O15 Eu1 1_555 1_555
O16 Eu1 1_555 1_555
O17 N7 1_555 1_555
O18 Eu2 1_555 1_555
O19 Eu2 1_555 1_555
O20 N8 1_555 1_555
C1 C2 1_555 1_555
C2 H5 1_555 1_555
H6 C2 1_555 1_555
C3 C1 1_555 1_555
H7 C3 1_555 1_555
H8 C3 1_555 1_555
C4 C1 1_555 1_555
H9 C4 1_555 1_555
H10 C4 1_555 1_555
C5 C1 1_555 1_555
H11 C5 1_555 1_555
H12 C5 1_555 1_555
C6 N1 1_555 1_555
C7 C6 1_555 1_555
C8 O1 1_555 1_555
C9 C8 1_555 1_555
H13 C9 1_555 1_555
C10 C9 1_555 1_555
H14 C10 1_555 1_555
C11 C10 1_555 1_555
H15 C11 1_555 1_555
C12 C7 1_555 1_555
H16 C12 1_555 1_555
C13 N1 1_555 1_555
H17 C13 1_555 1_555
H18 C13 1_555 1_555
C14 C13 1_555 1_555
C15 C14 1_555 1_555
H19 C15 1_555 1_555
C16 C15 1_555 1_555
H20 C16 1_555 1_555
C17 C16 1_555 1_555
H21 C17 1_555 1_555
C18 C17 1_555 1_555
H22 C18 1_555 1_555
C19 C14 1_555 1_555
H23 C19 1_555 1_555
C20 N2 1_555 1_555
C21 C20 1_555 1_555
C22 O2 1_555 1_555
C23 C22 1_555 1_555
H24 C23 1_555 1_555
C24 C23 1_555 1_555
H25 C24 1_555 1_555
C25 C24 1_555 1_555
H26 C25 1_555 1_555
C26 C21 1_555 1_555
H27 C26 1_555 1_555
C27 N2 1_555 1_555
H28 C27 1_555 1_555
H29 C27 1_555 1_555
C28 C27 1_555 1_555
C29 C28 1_555 1_555
H30 C29 1_555 1_555
C30 C29 1_555 1_555
H31 C30 1_555 1_555
C31 C30 1_555 1_555
H32 C31 1_555 1_555
C32 C31 1_555 1_555
H33 C32 1_555 1_555
C33 C28 1_555 1_555
H34 C33 1_555 1_555
C34 N3 1_555 1_555
C35 C34 1_555 1_555
C36 O3 1_555 1_555
C37 C36 1_555 1_555
H35 C37 1_555 1_555
C38 C37 1_555 1_555
C41 N3 1_555 1_555
H39 C41 1_555 1_555
H40 C41 1_555 1_555
C42 C41 1_555 1_555
C43 C42 1_555 1_555
H41 C43 1_555 1_555
C44 C43 1_555 1_555
H42 C44 1_555 1_555
C45 C44 1_555 1_555
H43 C45 1_555 1_555
C46 C45 1_555 1_555
H44 C46 1_555 1_555
C47 C42 1_555 1_555
H45 C47 1_555 1_555
C48 N4 1_555 1_555
C49 C48 1_555 1_555
C50 O4 1_555 1_555
C51 C50 1_555 1_555
H46 C51 1_555 1_555
C52 C51 1_555 1_555
H47 C52 1_555 1_555
C53 C52 1_555 1_555
H48 C53 1_555 1_555
C54 C49 1_555 1_555
H49 C54 1_555 1_555
C55 N4 1_555 1_555
H50 C55 1_555 1_555
H51 C55 1_555 1_555
C56 C55 1_555 1_555
C57 C56 1_555 1_555
H52 C57 1_555 1_555
C58 C57 1_555 1_555
H53 C58 1_555 1_555
C59 C58 1_555 1_555
H54 C59 1_555 1_555
C60 C59 1_555 1_555
H55 C60 1_555 1_555
C61 C56 1_555 1_555
H56 C61 1_555 1_555
Eu3 O29 1_555 1_555
Eu4 O30 1_555 1_555
Eu8 O31 1_555 1_555
Eu9 O32 1_555 1_555
Eu10 O6 1_555 1_555
N9 H57 1_555 1_555
N10 H58 1_555 1_555
N11 H59 1_555 1_555
N12 H60 1_555 1_555
N13 H61 1_555 1_555
N14 H62 1_555 1_555
N15 H63 1_555 1_555
N16 H64 1_555 1_555
N17 O43 1_555 1_555
N18 O44 1_555 1_555
N19 O49 1_555 1_555
N20 O50 1_555 1_555
N21 O55 1_555 1_555
N22 O56 1_555 1_555
N23 O61 1_555 1_555
N24 O62 1_555 1_555
O21 C64 1_555 1_555
O22 C65 1_555 1_555
O23 C66 1_555 1_555
O24 C67 1_555 1_555
O25 C68 1_555 1_555
O26 C69 1_555 1_555
O27 C70 1_555 1_555
O28 C71 1_555 1_555
O29 C72 1_555 1_555
O30 C73 1_555 1_555
O31 C100 1_555 1_555
O32 C101 1_555 1_555
O33 Eu4 1_555 1_555
O34 Eu1 1_555 1_555
O35 Eu3 1_555 1_555
O36 C128 1_555 1_555
O37 C129 1_555 1_555
O38 Eu3 1_555 1_555
O39 Eu1 1_555 1_555
O40 Eu4 1_555 1_555
O41 Eu2 1_555 1_555
O42 Eu2 1_555 1_555
O43 Eu3 1_555 1_555
O44 Eu4 1_555 1_555
O45 Eu3 1_555 1_555
O46 Eu4 1_555 1_555
O47 N17 1_555 1_555
O48 N18 1_555 1_555
O49 Eu3 1_555 1_555
O50 Eu4 1_555 1_555
O51 Eu3 1_555 1_555
O52 Eu4 1_555 1_555
O53 N19 1_555 1_555
O54 N20 1_555 1_555
O55 Eu3 1_555 1_555
O56 Eu4 1_555 1_555
O57 Eu3 1_555 1_555
O58 Eu4 1_555 1_555
O59 N21 1_555 1_555
O60 N22 1_555 1_555
O61 Eu2 1_555 1_555
O62 Eu2 1_555 1_555
O63 Eu2 1_555 1_555
O64 Eu2 1_555 1_555
O65 N23 1_555 1_555
O66 N24 1_555 1_555
C62 C64 1_555 1_555
C63 C65 1_555 1_555
C64 H65 1_555 1_555
C65 H66 1_555 1_555
H67 C64 1_555 1_555
H68 C65 1_555 1_555
C66 C62 1_555 1_555
C67 C63 1_555 1_555
H69 C66 1_555 1_555
H70 C67 1_555 1_555
H71 C66 1_555 1_555
H72 C67 1_555 1_555
C68 C62 1_555 1_555
C69 C63 1_555 1_555
H73 C68 1_555 1_555
H74 C69 1_555 1_555
H75 C68 1_555 1_555
H76 C69 1_555 1_555
C70 C62 1_555 1_555
C71 C63 1_555 1_555
H77 C70 1_555 1_555
H78 C71 1_555 1_555
H79 C70 1_555 1_555
H80 C71 1_555 1_555
C72 N9 1_555 1_555
C73 N10 1_555 1_555
C74 C72 1_555 1_555
C75 C73 1_555 1_555
C76 O21 1_555 1_555
C77 O22 1_555 1_555
C78 C76 1_555 1_555
C79 C77 1_555 1_555
H81 C78 1_555 1_555
H82 C79 1_555 1_555
C80 C78 1_555 1_555
C81 C79 1_555 1_555
H83 C80 1_555 1_555
H84 C81 1_555 1_555
C82 C80 1_555 1_555
C83 C81 1_555 1_555
H85 C82 1_555 1_555
H86 C83 1_555 1_555
C84 C74 1_555 1_555
C85 C75 1_555 1_555
H87 C84 1_555 1_555
H88 C85 1_555 1_555
C86 N9 1_555 1_555
C87 N10 1_555 1_555
H89 C86 1_555 1_555
H90 C87 1_555 1_555
H91 C86 1_555 1_555
H92 C87 1_555 1_555
C88 C86 1_555 1_555
C89 C87 1_555 1_555
C90 C88 1_555 1_555
C91 C89 1_555 1_555
H93 C90 1_555 1_555
H94 C91 1_555 1_555
C92 C90 1_555 1_555
C93 C91 1_555 1_555
H95 C92 1_555 1_555
H96 C93 1_555 1_555
C94 C92 1_555 1_555
C95 C93 1_555 1_555
H97 C94 1_555 1_555
H98 C95 1_555 1_555
C96 C94 1_555 1_555
C97 C95 1_555 1_555
H99 C96 1_555 1_555
H100 C97 1_555 1_555
C98 C88 1_555 1_555
C99 C89 1_555 1_555
H101 C98 1_555 1_555
H102 C99 1_555 1_555
C100 N11 1_555 1_555
C101 N12 1_555 1_555
C102 C100 1_555 1_555
C103 C101 1_555 1_555
C104 O23 1_555 1_555
C105 O24 1_555 1_555
C106 C104 1_555 1_555
C107 C105 1_555 1_555
H103 C106 1_555 1_555
H104 C107 1_555 1_555
C108 C106 1_555 1_555
C109 C107 1_555 1_555
H105 C108 1_555 1_555
H106 C109 1_555 1_555
C110 C108 1_555 1_555
C111 C109 1_555 1_555
H107 C110 1_555 1_555
H108 C111 1_555 1_555
C112 C102 1_555 1_555
C113 C103 1_555 1_555
H109 C112 1_555 1_555
H110 C113 1_555 1_555
C114 N11 1_555 1_555
C115 N12 1_555 1_555
H111 C114 1_555 1_555
H112 C115 1_555 1_555
H113 C114 1_555 1_555
H114 C115 1_555 1_555
C116 C114 1_555 1_555
C117 C115 1_555 1_555
C118 C116 1_555 1_555
C119 C117 1_555 1_555
H115 C118 1_555 1_555
H116 C119 1_555 1_555
C120 C118 1_555 1_555
C121 C119 1_555 1_555
H117 C120 1_555 1_555
H118 C121 1_555 1_555
C122 C120 1_555 1_555
C123 C121 1_555 1_555
H119 C122 1_555 1_555
H120 C123 1_555 1_555
C124 C122 1_555 1_555
C125 C123 1_555 1_555
C126 C116 1_555 1_555
C127 C117 1_555 1_555
C128 N13 1_555 1_555
C129 N14 1_555 1_555
C130 C128 1_555 1_555
C131 C129 1_555 1_555
C132 O25 1_555 1_555
C133 O26 1_555 1_555
C134 C132 1_555 1_555
C135 C133 1_555 1_555
H125 C134 1_555 1_555
H126 C135 1_555 1_555
C136 C134 1_555 1_555
C137 C135 1_555 1_555
C142 N13 1_555 1_555
C143 N14 1_555 1_555
H133 C142 1_555 1_555
H134 C143 1_555 1_555
H135 C142 1_555 1_555
H136 C143 1_555 1_555
C144 C142 1_555 1_555
C145 C143 1_555 1_555
C146 C144 1_555 1_555
C147 C145 1_555 1_555
H137 C146 1_555 1_555
H138 C147 1_555 1_555
C148 C146 1_555 1_555
C149 C147 1_555 1_555
H139 C148 1_555 1_555
H140 C149 1_555 1_555
C150 C148 1_555 1_555
C151 C149 1_555 1_555
H141 C150 1_555 1_555
H142 C151 1_555 1_555
C152 C150 1_555 1_555
C153 C151 1_555 1_555
H143 C152 1_555 1_555
H144 C153 1_555 1_555
C154 C144 1_555 1_555
C155 C145 1_555 1_555
H145 C154 1_555 1_555
H146 C155 1_555 1_555
C156 N15 1_555 1_555
C157 N16 1_555 1_555
C158 C156 1_555 1_555
C159 C157 1_555 1_555
C160 O27 1_555 1_555
C161 O28 1_555 1_555
C162 C160 1_555 1_555
C163 C161 1_555 1_555
H147 C162 1_555 1_555
H148 C163 1_555 1_555
C164 C162 1_555 1_555
C165 C163 1_555 1_555
H149 C164 1_555 1_555
H150 C165 1_555 1_555
C166 C164 1_555 1_555
C167 C165 1_555 1_555
H151 C166 1_555 1_555
H152 C167 1_555 1_555
C168 C158 1_555 1_555
C169 C159 1_555 1_555
H153 C168 1_555 1_555
H154 C169 1_555 1_555
C170 N15 1_555 1_555
C171 N16 1_555 1_555
H155 C170 1_555 1_555
H156 C171 1_555 1_555
H157 C170 1_555 1_555
H158 C171 1_555 1_555
C172 C170 1_555 1_555
C173 C171 1_555 1_555
C174 C172 1_555 1_555
C175 C173 1_555 1_555
H159 C174 1_555 1_555
H160 C175 1_555 1_555
C176 C174 1_555 1_555
C177 C175 1_555 1_555
H161 C176 1_555 1_555
H162 C177 1_555 1_555
C178 C176 1_555 1_555
C179 C177 1_555 1_555
H163 C178 1_555 1_555
H164 C179 1_555 1_555
C180 C178 1_555 1_555
C181 C179 1_555 1_555
H165 C180 1_555 1_555
H166 C181 1_555 1_555
C182 C172 1_555 1_555
C183 C173 1_555 1_555
H167 C182 1_555 1_555
H168 C183 1_555 1_555
N5 O10 1_555 1_555
N6 O13 1_555 1_555
N7 O16 1_555 1_555
N8 O19 1_555 1_555
C7 C8 1_555 1_555
C11 C12 1_555 1_555
C18 C19 1_555 1_555
C21 C22 1_555 1_555
C25 C26 1_555 1_555
C32 C33 1_555 1_555
C35 C36 1_555 1_555
C46 C47 1_555 1_555
C49 C50 1_555 1_555
C53 C54 1_555 1_555
C60 C61 1_555 1_555
N17 O45 1_555 1_555
N18 O46 1_555 1_555
N19 O51 1_555 1_555
N20 O52 1_555 1_555
N21 O57 1_555 1_555
N22 O58 1_555 1_555
N23 O63 1_555 1_555
N24 O64 1_555 1_555
O41 C156 1_555 1_555
O42 C157 1_555 1_555
C74 C76 1_555 1_555
C75 C77 1_555 1_555
C82 C84 1_555 1_555
C83 C85 1_555 1_555
C96 C98 1_555 1_555
C97 C99 1_555 1_555
C102 C104 1_555 1_555
C103 C105 1_555 1_555
C110 C112 1_555 1_555
C111 C113 1_555 1_555
C124 C126 1_555 1_555
C125 C127 1_555 1_555
C130 C132 1_555 1_555
C131 C133 1_555 1_555
C152 C154 1_555 1_555
C153 C155 1_555 1_555
C158 C160 1_555 1_555
C159 C161 1_555 1_555
C166 C168 1_555 1_555
C167 C169 1_555 1_555
C180 C182 1_555 1_555
C181 C183 1_555 1_555
Eu5 O5_2 1_555 1_555
Eu2_2 O8_2 1_555 1_555
N1_2 H1_2 1_555 1_555
N2_2 H2_2 1_555 1_555
N3_2 H3_2 1_555 1_555
N4_2 H4_2 1_555 1_555
N5_2 O9_2 1_555 1_555
N7_2 O15_2 1_555 1_555
N8_2 O18_2 1_555 1_555
O1_2 C2_2 1_555 1_555
O2_2 C3_2 1_555 1_555
O3_2 C4_2 1_555 1_555
O4_2 C5_2 1_555 1_555
O5_2 C6_2 1_555 1_555
O6_2 C20_2 1_555 1_555
O38 C34_2 1_555 1_555
O8_2 C48_2 1_555 1_555
O9_2 Eu5 1_555 1_555
O10_2 Eu5 1_555 1_555
O11_2 N5_2 1_555 1_555
O13_2 Eu5 1_555 1_555
O15_2 Eu5 1_555 1_555
O16_2 Eu5 1_555 1_555
O17_2 N7_2 1_555 1_555
O18_2 Eu2_2 1_555 1_555
O19_2 Eu2_2 1_555 1_555
O20_2 N8_2 1_555 1_555
C1_2 C2_2 1_555 1_555
C2_2 H5_2 1_555 1_555
H6_2 C2_2 1_555 1_555
C3_2 C1_2 1_555 1_555
H7_2 C3_2 1_555 1_555
H8_2 C3_2 1_555 1_555
C4_2 C1_2 1_555 1_555
H9_2 C4_2 1_555 1_555
H10_2 C4_2 1_555 1_555
C5_2 C1_2 1_555 1_555
H11_2 C5_2 1_555 1_555
H12_2 C5_2 1_555 1_555
C6_2 N1_2 1_555 1_555
C7_2 C6_2 1_555 1_555
C8_2 O1_2 1_555 1_555
C9_2 C8_2 1_555 1_555
H13_2 C9_2 1_555 1_555
C10_2 C9_2 1_555 1_555
H14_2 C10_2 1_555 1_555
C11_2 C10_2 1_555 1_555
H15_2 C11_2 1_555 1_555
C12_2 C7_2 1_555 1_555
H16_2 C12_2 1_555 1_555
C13_2 N1_2 1_555 1_555
H17_2 C13_2 1_555 1_555
H18_2 C13_2 1_555 1_555
C14_2 C13_2 1_555 1_555
C15_2 C14_2 1_555 1_555
H19_2 C15_2 1_555 1_555
C16_2 C15_2 1_555 1_555
H20_2 C16_2 1_555 1_555
C17_2 C16_2 1_555 1_555
H21_2 C17_2 1_555 1_555
C18_2 C17_2 1_555 1_555
H22_2 C18_2 1_555 1_555
C19_2 C14_2 1_555 1_555
H23_2 C19_2 1_555 1_555
C20_2 N2_2 1_555 1_555
C21_2 C20_2 1_555 1_555
C22_2 O2_2 1_555 1_555
C23_2 C22_2 1_555 1_555
H24_2 C23_2 1_555 1_555
C24_2 C23_2 1_555 1_555
H25_2 C24_2 1_555 1_555
C25_2 C24_2 1_555 1_555
H26_2 C25_2 1_555 1_555
C26_2 C21_2 1_555 1_555
H27_2 C26_2 1_555 1_555
C27_2 N2_2 1_555 1_555
H28_2 C27_2 1_555 1_555
H29_2 C27_2 1_555 1_555
C28_2 C27_2 1_555 1_555
C29_2 C28_2 1_555 1_555
H30_2 C29_2 1_555 1_555
C30_2 C29_2 1_555 1_555
H31_2 C30_2 1_555 1_555
C31_2 C30_2 1_555 1_555
H32_2 C31_2 1_555 1_555
C32_2 C31_2 1_555 1_555
H33_2 C32_2 1_555 1_555
C33_2 C28_2 1_555 1_555
H34_2 C33_2 1_555 1_555
C34_2 N3_2 1_555 1_555
C35_2 C34_2 1_555 1_555
C36_2 O3_2 1_555 1_555
C37_2 C36_2 1_555 1_555
H35_2 C37_2 1_555 1_555
C38_2 C37_2 1_555 1_555
H36_2 C38_2 1_555 1_555
C39_2 C38_2 1_555 1_555
H37_2 C39_2 1_555 1_555
C40_2 C35_2 1_555 1_555
H38_2 C40_2 1_555 1_555
C41_2 N3_2 1_555 1_555
H39_2 C41_2 1_555 1_555
H40_2 C41_2 1_555 1_555
C42_2 C41_2 1_555 1_555
C43_2 C42_2 1_555 1_555
H41_2 C43_2 1_555 1_555
C44_2 C43_2 1_555 1_555
H42_2 C44_2 1_555 1_555
C45_2 C44_2 1_555 1_555
H43_2 C45_2 1_555 1_555
C46_2 C45_2 1_555 1_555
H44_2 C46_2 1_555 1_555
C47_2 C42_2 1_555 1_555
H45_2 C47_2 1_555 1_555
C48_2 N4_2 1_555 1_555
C49_2 C48_2 1_555 1_555
C50_2 O4_2 1_555 1_555
C51_2 C50_2 1_555 1_555
H46_2 C51_2 1_555 1_555
C52_2 C51_2 1_555 1_555
H47_2 C52_2 1_555 1_555
C53_2 C52_2 1_555 1_555
H48_2 C53_2 1_555 1_555
C54_2 C49_2 1_555 1_555
H49_2 C54_2 1_555 1_555
C55_2 N4_2 1_555 1_555
H50_2 C55_2 1_555 1_555
H51_2 C55_2 1_555 1_555
C56_2 C55_2 1_555 1_555
C57_2 C56_2 1_555 1_555
H52_2 C57_2 1_555 1_555
C58_2 C57_2 1_555 1_555
H53_2 C58_2 1_555 1_555
C59_2 C58_2 1_555 1_555
H54_2 C59_2 1_555 1_555
C60_2 C59_2 1_555 1_555
H55_2 C60_2 1_555 1_555
C61_2 C56_2 1_555 1_555
H56_2 C61_2 1_555 1_555
Eu6 O29_2 1_555 1_555
Eu7 O30_2 1_555 1_555
Eu8_2 O31_2 1_555 1_555
Eu9_2 O32_2 1_555 1_555
Eu10_2 O6_2 1_555 1_555
N9_2 H57_2 1_555 1_555
N10_2 H58_2 1_555 1_555
N11_2 H59_2 1_555 1_555
N12_2 H60_2 1_555 1_555
N13_2 H61_2 1_555 1_555
N14_2 H62_2 1_555 1_555
N15_2 H63_2 1_555 1_555
N16_2 H64_2 1_555 1_555
N17_2 O43_2 1_555 1_555
N18_2 O44_2 1_555 1_555
N21_2 O55_2 1_555 1_555
N22_2 O56_2 1_555 1_555
N23_2 O61_2 1_555 1_555
N24_2 O62_2 1_555 1_555
O21_2 C64_2 1_555 1_555
O22_2 C65_2 1_555 1_555
O23_2 C66_2 1_555 1_555
O24_2 C67_2 1_555 1_555
O25_2 C68_2 1_555 1_555
O26_2 C69_2 1_555 1_555
O27_2 C70_2 1_555 1_555
O28_2 C71_2 1_555 1_555
O29_2 C72_2 1_555 1_555
O30_2 C73_2 1_555 1_555
O31_2 C100_2 1_555 1_555
O32_2 C101_2 1_555 1_555
O39 C128_2 1_555 1_555
O40 C129_2 1_555 1_555
O41_2 Eu2_2 1_555 1_555
O42_2 Eu2_2 1_555 1_555
O43_2 Eu6 1_555 1_555
O44_2 Eu7 1_555 1_555
O45_2 Eu6 1_555 1_555
O46_2 Eu7 1_555 1_555
O47_2 N17_2 1_555 1_555
O48_2 N18_2 1_555 1_555
O51_2 Eu6 1_555 1_555
O52_2 Eu7 1_555 1_555
O55_2 Eu6 1_555 1_555
O56_2 Eu7 1_555 1_555
O57_2 Eu6 1_555 1_555
O58_2 Eu7 1_555 1_555
O59_2 N21_2 1_555 1_555
O60_2 N22_2 1_555 1_555
O61_2 Eu2_2 1_555 1_555
O62_2 Eu2_2 1_555 1_555
O63_2 Eu2_2 1_555 1_555
O64_2 Eu2_2 1_555 1_555
O65_2 N23_2 1_555 1_555
O66_2 N24_2 1_555 1_555
C62_2 C64_2 1_555 1_555
C63_2 C65_2 1_555 1_555
C64_2 H65_2 1_555 1_555
C65_2 H66_2 1_555 1_555
H67_2 C64_2 1_555 1_555
H68_2 C65_2 1_555 1_555
C66_2 C62_2 1_555 1_555
C67_2 C63_2 1_555 1_555
H69_2 C66_2 1_555 1_555
H70_2 C67_2 1_555 1_555
H71_2 C66_2 1_555 1_555
H72_2 C67_2 1_555 1_555
C68_2 C62_2 1_555 1_555
C69_2 C63_2 1_555 1_555
H73_2 C68_2 1_555 1_555
H74_2 C69_2 1_555 1_555
H75_2 C68_2 1_555 1_555
H76_2 C69_2 1_555 1_555
C70_2 C62_2 1_555 1_555
C71_2 C63_2 1_555 1_555
H77_2 C70_2 1_555 1_555
H78_2 C71_2 1_555 1_555
H79_2 C70_2 1_555 1_555
H80_2 C71_2 1_555 1_555
C72_2 N9_2 1_555 1_555
C73_2 N10_2 1_555 1_555
C74_2 C72_2 1_555 1_555
C75_2 C73_2 1_555 1_555
C76_2 O21_2 1_555 1_555
C77_2 O22_2 1_555 1_555
C78_2 C76_2 1_555 1_555
C79_2 C77_2 1_555 1_555
H81_2 C78_2 1_555 1_555
H82_2 C79_2 1_555 1_555
C80_2 C78_2 1_555 1_555
C81_2 C79_2 1_555 1_555
H83_2 C80_2 1_555 1_555
H84_2 C81_2 1_555 1_555
C82_2 C80_2 1_555 1_555
C83_2 C81_2 1_555 1_555
H85_2 C82_2 1_555 1_555
H86_2 C83_2 1_555 1_555
C84_2 C74_2 1_555 1_555
C85_2 C75_2 1_555 1_555
H87_2 C84_2 1_555 1_555
H88_2 C85_2 1_555 1_555
C86_2 N9_2 1_555 1_555
C87_2 N10_2 1_555 1_555
H89_2 C86_2 1_555 1_555
H90_2 C87_2 1_555 1_555
H91_2 C86_2 1_555 1_555
H92_2 C87_2 1_555 1_555
C88_2 C86_2 1_555 1_555
C89_2 C87_2 1_555 1_555
C90_2 C88_2 1_555 1_555
C91_2 C89_2 1_555 1_555
H93_2 C90_2 1_555 1_555
H94_2 C91_2 1_555 1_555
C92_2 C90_2 1_555 1_555
C93_2 C91_2 1_555 1_555
H95_2 C92_2 1_555 1_555
H96_2 C93_2 1_555 1_555
C94_2 C92_2 1_555 1_555
C95_2 C93_2 1_555 1_555
H97_2 C94_2 1_555 1_555
H98_2 C95_2 1_555 1_555
C96_2 C94_2 1_555 1_555
C97_2 C95_2 1_555 1_555
H99_2 C96_2 1_555 1_555
H100_2 C97_2 1_555 1_555
C98_2 C88_2 1_555 1_555
C99_2 C89_2 1_555 1_555
H101_2 C98_2 1_555 1_555
H102_2 C99_2 1_555 1_555
C100_2 N11_2 1_555 1_555
C101_2 N12_2 1_555 1_555
C102_2 C100_2 1_555 1_555
C103_2 C101_2 1_555 1_555
C104_2 O23_2 1_555 1_555
C105_2 O24_2 1_555 1_555
C106_2 C104_2 1_555 1_555
C107_2 C105_2 1_555 1_555
H103_2 C106_2 1_555 1_555
H104_2 C107_2 1_555 1_555
C108_2 C106_2 1_555 1_555
C109_2 C107_2 1_555 1_555
H105_2 C108_2 1_555 1_555
H106_2 C109_2 1_555 1_555
C110_2 C108_2 1_555 1_555
C111_2 C109_2 1_555 1_555
H107_2 C110_2 1_555 1_555
H108_2 C111_2 1_555 1_555
C112_2 C102_2 1_555 1_555
C113_2 C103_2 1_555 1_555
H109_2 C112_2 1_555 1_555
H110_2 C113_2 1_555 1_555
C114_2 N11_2 1_555 1_555
C115_2 N12_2 1_555 1_555
H111_2 C114_2 1_555 1_555
H112_2 C115_2 1_555 1_555
H113_2 C114_2 1_555 1_555
H114_2 C115_2 1_555 1_555
C116_2 C114_2 1_555 1_555
C117_2 C115_2 1_555 1_555
C118_2 C116_2 1_555 1_555
C119_2 C117_2 1_555 1_555
H115_2 C118_2 1_555 1_555
H116_2 C119_2 1_555 1_555
C120_2 C118_2 1_555 1_555
C121_2 C119_2 1_555 1_555
H117_2 C120_2 1_555 1_555
H118_2 C121_2 1_555 1_555
C122_2 C120_2 1_555 1_555
C123_2 C121_2 1_555 1_555
H119_2 C122_2 1_555 1_555
H120_2 C123_2 1_555 1_555
C124_2 C122_2 1_555 1_555
C125_2 C123_2 1_555 1_555
C126_2 C116_2 1_555 1_555
C127_2 C117_2 1_555 1_555
C128_2 N13_2 1_555 1_555
C129_2 N14_2 1_555 1_555
C130_2 C128_2 1_555 1_555
C131_2 C129_2 1_555 1_555
C132_2 O25_2 1_555 1_555
C133_2 O26_2 1_555 1_555
C134_2 C132_2 1_555 1_555
C135_2 C133_2 1_555 1_555
H125_2 C134_2 1_555 1_555
H126_2 C135_2 1_555 1_555
C136_2 C134_2 1_555 1_555
C137_2 C135_2 1_555 1_555
H127_2 C136_2 1_555 1_555
H128_2 C137_2 1_555 1_555
C138_2 C136_2 1_555 1_555
C139_2 C137_2 1_555 1_555
H129_2 C138_2 1_555 1_555
H130_2 C139_2 1_555 1_555
C140_2 C130_2 1_555 1_555
C141_2 C131_2 1_555 1_555
H131_2 C140_2 1_555 1_555
H132_2 C141_2 1_555 1_555
C142_2 N13_2 1_555 1_555
C143_2 N14_2 1_555 1_555
H133_2 C142_2 1_555 1_555
H134_2 C143_2 1_555 1_555
H135_2 C142_2 1_555 1_555
H136_2 C143_2 1_555 1_555
C144_2 C142_2 1_555 1_555
C145_2 C143_2 1_555 1_555
C146_2 C144_2 1_555 1_555
C147_2 C145_2 1_555 1_555
H137_2 C146_2 1_555 1_555
H138_2 C147_2 1_555 1_555
C148_2 C146_2 1_555 1_555
C149_2 C147_2 1_555 1_555
H139_2 C148_2 1_555 1_555
H140_2 C149_2 1_555 1_555
C150_2 C148_2 1_555 1_555
C151_2 C149_2 1_555 1_555
H141_2 C150_2 1_555 1_555
H142_2 C151_2 1_555 1_555
C152_2 C150_2 1_555 1_555
C153_2 C151_2 1_555 1_555
H143_2 C152_2 1_555 1_555
H144_2 C153_2 1_555 1_555
C154_2 C144_2 1_555 1_555
C155_2 C145_2 1_555 1_555
H145_2 C154_2 1_555 1_555
H146_2 C155_2 1_555 1_555
C156_2 N15_2 1_555 1_555
C157_2 N16_2 1_555 1_555
C158_2 C156_2 1_555 1_555
C159_2 C157_2 1_555 1_555
C160_2 O27_2 1_555 1_555
C161_2 O28_2 1_555 1_555
C162_2 C160_2 1_555 1_555
C163_2 C161_2 1_555 1_555
H147_2 C162_2 1_555 1_555
H148_2 C163_2 1_555 1_555
C164_2 C162_2 1_555 1_555
C165_2 C163_2 1_555 1_555
H149_2 C164_2 1_555 1_555
H150_2 C165_2 1_555 1_555
C166_2 C164_2 1_555 1_555
C167_2 C165_2 1_555 1_555
H151_2 C166_2 1_555 1_555
H152_2 C167_2 1_555 1_555
C168_2 C158_2 1_555 1_555
C169_2 C159_2 1_555 1_555
H153_2 C168_2 1_555 1_555
H154_2 C169_2 1_555 1_555
C170_2 N15_2 1_555 1_555
C171_2 N16_2 1_555 1_555
H155_2 C170_2 1_555 1_555
H156_2 C171_2 1_555 1_555
H157_2 C170_2 1_555 1_555
H158_2 C171_2 1_555 1_555
C172_2 C170_2 1_555 1_555
C173_2 C171_2 1_555 1_555
C174_2 C172_2 1_555 1_555
C175_2 C173_2 1_555 1_555
H159_2 C174_2 1_555 1_555
H160_2 C175_2 1_555 1_555
C176_2 C174_2 1_555 1_555
C177_2 C175_2 1_555 1_555
H161_2 C176_2 1_555 1_555
H162_2 C177_2 1_555 1_555
C178_2 C176_2 1_555 1_555
C179_2 C177_2 1_555 1_555
H163_2 C178_2 1_555 1_555
H164_2 C179_2 1_555 1_555
C180_2 C178_2 1_555 1_555
C181_2 C179_2 1_555 1_555
H165_2 C180_2 1_555 1_555
H166_2 C181_2 1_555 1_555
C182_2 C172_2 1_555 1_555
C183_2 C173_2 1_555 1_555
H167_2 C182_2 1_555 1_555
H168_2 C183_2 1_555 1_555
N5_2 O10_2 1_555 1_555
N7_2 O16_2 1_555 1_555
N8_2 O19_2 1_555 1_555
C7_2 C8_2 1_555 1_555
C11_2 C12_2 1_555 1_555
C18_2 C19_2 1_555 1_555
C21_2 C22_2 1_555 1_555
C25_2 C26_2 1_555 1_555
C32_2 C33_2 1_555 1_555
C35_2 C36_2 1_555 1_555
C39_2 C40_2 1_555 1_555
C46_2 C47_2 1_555 1_555
C49_2 C50_2 1_555 1_555
C53_2 C54_2 1_555 1_555
C60_2 C61_2 1_555 1_555
N17_2 O45_2 1_555 1_555
N18_2 O46_2 1_555 1_555
N21_2 O57_2 1_555 1_555
N22_2 O58_2 1_555 1_555
N23_2 O63_2 1_555 1_555
N24_2 O64_2 1_555 1_555
O41_2 C156_2 1_555 1_555
O42_2 C157_2 1_555 1_555
C74_2 C76_2 1_555 1_555
C75_2 C77_2 1_555 1_555
C82_2 C84_2 1_555 1_555
C83_2 C85_2 1_555 1_555
C96_2 C98_2 1_555 1_555
C97_2 C99_2 1_555 1_555
C102_2 C104_2 1_555 1_555
C103_2 C105_2 1_555 1_555
C110_2 C112_2 1_555 1_555
C111_2 C113_2 1_555 1_555
C124_2 C126_2 1_555 1_555
C125_2 C127_2 1_555 1_555
C130_2 C132_2 1_555 1_555
C131_2 C133_2 1_555 1_555
C138_2 C140_2 1_555 1_555
C139_2 C141_2 1_555 1_555
C152_2 C154_2 1_555 1_555
C153_2 C155_2 1_555 1_555
C158_2 C160_2 1_555 1_555
C159_2 C161_2 1_555 1_555
C166_2 C168_2 1_555 1_555
C167_2 C169_2 1_555 1_555
C180_2 C182_2 1_555 1_555
C181_2 C183_2 1_555 1_555
N6_2 O12_2 1_555 1_555
O14_2 N6_2 1_555 1_555
N19_2 O49_2 1_555 1_555
N20_2 O50_2 1_555 1_555
O53_2 N19_2 1_555 1_555
O54_2 N20_2 1_555 1_555
H14_3 C10_3 1_555 1_555
C11_3 C10_3 1_555 1_555
H15_3 C11_3 1_555 1_555
H33_3 C32_3 1_555 1_555
C11_3 C12_3 1_555 1_555
N5_3 O9_3 1_555 1_555
N6_3 O12_3 1_555 1_555
O9_3 Eu8 1_555 1_555
O10_3 Eu8 1_555 1_555
O11_3 N5_3 1_555 1_555
O12_3 Eu8 1_555 1_555
O13_3 Eu8 1_555 1_555
O14_3 N6_3 1_555 1_555
N5_3 O10_3 1_555 1_555
N6_3 O13_3 1_555 1_555
N2_3 H2_3 1_555 1_555
N3_3 H3_3 1_555 1_555
N4_3 H4_3 1_555 1_555
O1_3 C2_3 1_555 1_555
O2_3 C3_3 1_555 1_555
O3_3 C4_3 1_555 1_555
O4_3 C5_3 1_555 1_555
O6_3 C20_3 1_555 1_555
O7_2 C34_3 1_555 1_555
O8_3 C48_3 1_555 1_555
C1_3 C2_3 1_555 1_555
C2_3 H5_3 1_555 1_555
H6_3 C2_3 1_555 1_555
C3_3 C1_3 1_555 1_555
H7_3 C3_3 1_555 1_555
H8_3 C3_3 1_555 1_555
C4_3 C1_3 1_555 1_555
H9_3 C4_3 1_555 1_555
H10_3 C4_3 1_555 1_555
C5_3 C1_3 1_555 1_555
H11_3 C5_3 1_555 1_555
H12_3 C5_3 1_555 1_555
C8_3 O1_3 1_555 1_555
C9_3 C8_3 1_555 1_555
H13_3 C9_3 1_555 1_555
C20_3 N2_3 1_555 1_555
C21_3 C20_3 1_555 1_555
C22_3 O2_3 1_555 1_555
C26_3 C21_3 1_555 1_555
H27_3 C26_3 1_555 1_555
C27_3 N2_3 1_555 1_555
H28_3 C27_3 1_555 1_555
H29_3 C27_3 1_555 1_555
C28_3 C27_3 1_555 1_555
C29_3 C28_3 1_555 1_555
H30_3 C29_3 1_555 1_555
C30_3 C29_3 1_555 1_555
H31_3 C30_3 1_555 1_555
C31_3 C30_3 1_555 1_555
C33_3 C28_3 1_555 1_555
H34_3 C33_3 1_555 1_555
C34_3 N3_3 1_555 1_555
C35_3 C34_3 1_555 1_555
C36_3 O3_3 1_555 1_555
C37_3 C36_3 1_555 1_555
H35_3 C37_3 1_555 1_555
C38_3 C37_3 1_555 1_555
H36_3 C38_3 1_555 1_555
C39_3 C38_3 1_555 1_555
H37_3 C39_3 1_555 1_555
C40_3 C35_3 1_555 1_555
H38_3 C40_3 1_555 1_555
C41_3 N3_3 1_555 1_555
H39_3 C41_3 1_555 1_555
H40_3 C41_3 1_555 1_555
C42_3 C41_3 1_555 1_555
C43_3 C42_3 1_555 1_555
H41_3 C43_3 1_555 1_555
C44_3 C43_3 1_555 1_555
H42_3 C44_3 1_555 1_555
C45_3 C44_3 1_555 1_555
H43_3 C45_3 1_555 1_555
C46_3 C45_3 1_555 1_555
H44_3 C46_3 1_555 1_555
C47_3 C42_3 1_555 1_555
H45_3 C47_3 1_555 1_555
C48_3 N4_3 1_555 1_555
C49_3 C48_3 1_555 1_555
C50_3 O4_3 1_555 1_555
C51_3 C50_3 1_555 1_555
H46_3 C51_3 1_555 1_555
C52_3 C51_3 1_555 1_555
H47_3 C52_3 1_555 1_555
C53_3 C52_3 1_555 1_555
C54_3 C49_3 1_555 1_555
H49_3 C54_3 1_555 1_555
C55_3 N4_3 1_555 1_555
H50_3 C55_3 1_555 1_555
H51_3 C55_3 1_555 1_555
C56_3 C55_3 1_555 1_555
C57_3 C56_3 1_555 1_555
H52_3 C57_3 1_555 1_555
C58_3 C57_3 1_555 1_555
H53_3 C58_3 1_555 1_555
C59_3 C58_3 1_555 1_555
H54_3 C59_3 1_555 1_555
C60_3 C59_3 1_555 1_555
H55_3 C60_3 1_555 1_555
C61_3 C56_3 1_555 1_555
H56_3 C61_3 1_555 1_555
Eu10_2 O37_2 1_555 1_555
Eu8_3 O31_3 1_555 1_555
Eu9_3 O32_3 1_555 1_555
Eu10_3 O6_3 1_555 1_555
N11_3 H59_3 1_555 1_555
N12_3 H60_3 1_555 1_555
N13_3 H61_3 1_555 1_555
N14_3 H62_3 1_555 1_555
N15_3 H63_3 1_555 1_555
N16_3 H64_3 1_555 1_555
O21_3 C64_3 1_555 1_555
O22_3 C65_3 1_555 1_555
O23_3 C66_3 1_555 1_555
O24_3 C67_3 1_555 1_555
O25_3 C68_3 1_555 1_555
O26_3 C69_3 1_555 1_555
O27_3 C70_3 1_555 1_555
O28_3 C71_3 1_555 1_555
O31_3 C100_3 1_555 1_555
O32_3 C101_3 1_555 1_555
O36_2 C128_3 1_555 1_555
O37_2 C129_3 1_555 1_555
C62_3 C64_3 1_555 1_555
C63_3 C65_3 1_555 1_555
C64_3 H65_3 1_555 1_555
C65_3 H66_3 1_555 1_555
H67_3 C64_3 1_555 1_555
H68_3 C65_3 1_555 1_555
C66_3 C62_3 1_555 1_555
C67_3 C63_3 1_555 1_555
H69_3 C66_3 1_555 1_555
H70_3 C67_3 1_555 1_555
H71_3 C66_3 1_555 1_555
H72_3 C67_3 1_555 1_555
C68_3 C62_3 1_555 1_555
C69_3 C63_3 1_555 1_555
H73_3 C68_3 1_555 1_555
H74_3 C69_3 1_555 1_555
H75_3 C68_3 1_555 1_555
H76_3 C69_3 1_555 1_555
C70_3 C62_3 1_555 1_555
C71_3 C63_3 1_555 1_555
H77_3 C70_3 1_555 1_555
H78_3 C71_3 1_555 1_555
H79_3 C70_3 1_555 1_555
H80_3 C71_3 1_555 1_555
C76_3 O21_3 1_555 1_555
C77_3 O22_3 1_555 1_555
C78_3 C76_3 1_555 1_555
C79_3 C77_3 1_555 1_555
H81_3 C78_3 1_555 1_555
H82_3 C79_3 1_555 1_555
C81_3 C79_3 1_555 1_555
H84_3 C81_3 1_555 1_555
C83_3 C81_3 1_555 1_555
H86_3 C83_3 1_555 1_555
C85_3 C75_3 1_555 1_555
C100_3 N11_3 1_555 1_555
C101_3 N12_3 1_555 1_555
C102_3 C100_3 1_555 1_555
C103_3 C101_3 1_555 1_555
C104_3 O23_3 1_555 1_555
C105_3 O24_3 1_555 1_555
C112_3 C102_3 1_555 1_555
C113_3 C103_3 1_555 1_555
H109_3 C112_3 1_555 1_555
H110_3 C113_3 1_555 1_555
C114_3 N11_3 1_555 1_555
C115_3 N12_3 1_555 1_555
H111_3 C114_3 1_555 1_555
H112_3 C115_3 1_555 1_555
H113_3 C114_3 1_555 1_555
H114_3 C115_3 1_555 1_555
C116_3 C114_3 1_555 1_555
C117_3 C115_3 1_555 1_555
C118_3 C116_3 1_555 1_555
C119_3 C117_3 1_555 1_555
H115_3 C118_3 1_555 1_555
H116_3 C119_3 1_555 1_555
C120_3 C118_3 1_555 1_555
C121_3 C119_3 1_555 1_555
H117_3 C120_3 1_555 1_555
H118_3 C121_3 1_555 1_555
C122_3 C120_3 1_555 1_555
C123_3 C121_3 1_555 1_555
H120_3 C123_3 1_555 1_555
C125_3 C123_3 1_555 1_555
H122_2 C125_3 1_555 1_555
C126_3 C116_3 1_555 1_555
C127_3 C117_3 1_555 1_555
H123 C126_3 1_555 1_555
H124_2 C127_3 1_555 1_555
C128_3 N13_3 1_555 1_555
C129_3 N14_3 1_555 1_555
C130_3 C128_3 1_555 1_555
C131_3 C129_3 1_555 1_555
C132_3 O25_3 1_555 1_555
C133_3 O26_3 1_555 1_555
C134_3 C132_3 1_555 1_555
C135_3 C133_3 1_555 1_555
H125_3 C134_3 1_555 1_555
H126_3 C135_3 1_555 1_555
C136_3 C134_3 1_555 1_555
C137_3 C135_3 1_555 1_555
H127_3 C136_3 1_555 1_555
H128_3 C137_3 1_555 1_555
C138_3 C136_3 1_555 1_555
C139_3 C137_3 1_555 1_555
H129_3 C138_3 1_555 1_555
H130_3 C139_3 1_555 1_555
C140_3 C130_3 1_555 1_555
C141_3 C131_3 1_555 1_555
H131_3 C140_3 1_555 1_555
H132_3 C141_3 1_555 1_555
C142_3 N13_3 1_555 1_555
C143_3 N14_3 1_555 1_555
H133_3 C142_3 1_555 1_555
H134_3 C143_3 1_555 1_555
H135_3 C142_3 1_555 1_555
H136_3 C143_3 1_555 1_555
C144_3 C142_3 1_555 1_555
C145_3 C143_3 1_555 1_555
C146_3 C144_3 1_555 1_555
C147_3 C145_3 1_555 1_555
H137_3 C146_3 1_555 1_555
H138_3 C147_3 1_555 1_555
C148_3 C146_3 1_555 1_555
C149_3 C147_3 1_555 1_555
H139_3 C148_3 1_555 1_555
H140_3 C149_3 1_555 1_555
C150_3 C148_3 1_555 1_555
C151_3 C149_3 1_555 1_555
H141_3 C150_3 1_555 1_555
H142_3 C151_3 1_555 1_555
C152_3 C150_3 1_555 1_555
C153_3 C151_3 1_555 1_555
H143_3 C152_3 1_555 1_555
H144_3 C153_3 1_555 1_555
C154_3 C144_3 1_555 1_555
C155_3 C145_3 1_555 1_555
H145_3 C154_3 1_555 1_555
H146_3 C155_3 1_555 1_555
C156_3 N15_3 1_555 1_555
C157_3 N16_3 1_555 1_555
C158_3 C156_3 1_555 1_555
C159_3 C157_3 1_555 1_555
C160_3 O27_3 1_555 1_555
C161_3 O28_3 1_555 1_555
C162_3 C160_3 1_555 1_555
C163_3 C161_3 1_555 1_555
H147_3 C162_3 1_555 1_555
H148_3 C163_3 1_555 1_555
C164_3 C162_3 1_555 1_555
C165_3 C163_3 1_555 1_555
H149_3 C164_3 1_555 1_555
H150_3 C165_3 1_555 1_555
C166_3 C164_3 1_555 1_555
C167_3 C165_3 1_555 1_555
C168_3 C158_3 1_555 1_555
C169_3 C159_3 1_555 1_555
H153_3 C168_3 1_555 1_555
H154_3 C169_3 1_555 1_555
C170_3 N15_3 1_555 1_555
C171_3 N16_3 1_555 1_555
H155_3 C170_3 1_555 1_555
H156_3 C171_3 1_555 1_555
H157_3 C170_3 1_555 1_555
H158_3 C171_3 1_555 1_555
C172_3 C170_3 1_555 1_555
C173_3 C171_3 1_555 1_555
C174_3 C172_3 1_555 1_555
C175_3 C173_3 1_555 1_555
H159_3 C174_3 1_555 1_555
H160_3 C175_3 1_555 1_555
C176_3 C174_3 1_555 1_555
C177_3 C175_3 1_555 1_555
H161_3 C176_3 1_555 1_555
H162_3 C177_3 1_555 1_555
C178_3 C176_3 1_555 1_555
C179_3 C177_3 1_555 1_555
H163_3 C178_3 1_555 1_555
H164_3 C179_3 1_555 1_555
C180_3 C178_3 1_555 1_555
C181_3 C179_3 1_555 1_555
H165_3 C180_3 1_555 1_555
H166_3 C181_3 1_555 1_555
C182_3 C172_3 1_555 1_555
C183_3 C173_3 1_555 1_555
H167_3 C182_3 1_555 1_555
H168_3 C183_3 1_555 1_555
C7_3 C8_3 1_555 1_555
C21_3 C22_3 1_555 1_555
C35_3 C36_3 1_555 1_555
C39_3 C40_3 1_555 1_555
C46_3 C47_3 1_555 1_555
C49_3 C50_3 1_555 1_555
C53_3 C54_3 1_555 1_555
C60_3 C61_3 1_555 1_555
O41_3 C156_3 1_555 1_555
O42_3 C157_3 1_555 1_555
C74_3 C76_3 1_555 1_555
C75_3 C77_3 1_555 1_555
C83_3 C85_3 1_555 1_555
C102_3 C104_3 1_555 1_555
C103_3 C105_3 1_555 1_555
C125_3 C127_3 1_555 1_555
C130_3 C132_3 1_555 1_555
C131_3 C133_3 1_555 1_555
C138_3 C140_3 1_555 1_555
C139_3 C141_3 1_555 1_555
C152_3 C154_3 1_555 1_555
C153_3 C155_3 1_555 1_555
C158_3 C160_3 1_555 1_555
C159_3 C161_3 1_555 1_555
C166_3 C168_3 1_555 1_555
C167_3 C169_3 1_555 1_555
C180_3 C182_3 1_555 1_555
C181_3 C183_3 1_555 1_555
N1_3 H1_3 1_555 1_555
N7_3 O15_3 1_555 1_555
N8_3 O18_3 1_555 1_555
O5_3 C6_3 1_555 1_555
O17_3 N7_3 1_555 1_555
O18_3 Eu2_3 1_555 1_555
O19_3 Eu2_3 1_555 1_555
O20_3 N8_3 1_555 1_555
C6_3 N1_3 1_555 1_555
C13_3 N1_3 1_555 1_555
H17_3 C13_3 1_555 1_555
H18_3 C13_3 1_555 1_555
C14_3 C13_3 1_555 1_555
C15_3 C14_3 1_555 1_555
H19_3 C15_3 1_555 1_555
C16_3 C15_3 1_555 1_555
H20_3 C16_3 1_555 1_555
C17_3 C16_3 1_555 1_555
H21_3 C17_3 1_555 1_555
C18_3 C17_3 1_555 1_555
H22_3 C18_3 1_555 1_555
C19_3 C14_3 1_555 1_555
H23_3 C19_3 1_555 1_555
H24_3 C23_3 1_555 1_555
C24_3 C23_3 1_555 1_555
H25_3 C24_3 1_555 1_555
C25_3 C24_3 1_555 1_555
H26_3 C25_3 1_555 1_555
Eu10 O30_3 1_555 1_555
N9_3 H57_3 1_555 1_555
N10_3 H58_3 1_555 1_555
N18_3 O44_3 1_555 1_555
N20_3 O50_3 1_555 1_555
N21_3 O55_3 1_555 1_555
N22_3 O56_3 1_555 1_555
N23_3 O61_3 1_555 1_555
N24_3 O62_3 1_555 1_555
O29_3 C72_3 1_555 1_555
O30_3 C73_3 1_555 1_555
O40_2 Eu10 1_555 1_555
O44_3 Eu10 1_555 1_555
O46_3 Eu10 1_555 1_555
O48_3 N18_3 1_555 1_555
O50_3 Eu10 1_555 1_555
O52_3 Eu10 1_555 1_555
O54_3 N20_3 1_555 1_555
O56_3 Eu10 1_555 1_555
O58_3 Eu10 1_555 1_555
O59_3 N21_3 1_555 1_555
O60_3 N22_3 1_555 1_555
O61_3 Eu2_3 1_555 1_555
O62_3 Eu2_3 1_555 1_555
O63_3 Eu2_3 1_555 1_555
O64_3 Eu2_3 1_555 1_555
O65_3 N23_3 1_555 1_555
O66_3 N24_3 1_555 1_555
C72_3 N9_3 1_555 1_555
C73_3 N10_3 1_555 1_555
C86_3 N9_3 1_555 1_555
C87_3 N10_3 1_555 1_555
H89_3 C86_3 1_555 1_555
H90_3 C87_3 1_555 1_555
H91_3 C86_3 1_555 1_555
H92_3 C87_3 1_555 1_555
C88_3 C86_3 1_555 1_555
C89_3 C87_3 1_555 1_555
C90_3 C88_3 1_555 1_555
C91_3 C89_3 1_555 1_555
H93_3 C90_3 1_555 1_555
H94_3 C91_3 1_555 1_555
C92_3 C90_3 1_555 1_555
C93_3 C91_3 1_555 1_555
H95_3 C92_3 1_555 1_555
H96_3 C93_3 1_555 1_555
C94_3 C92_3 1_555 1_555
C95_3 C93_3 1_555 1_555
H97_3 C94_3 1_555 1_555
H98_3 C95_3 1_555 1_555
C96_3 C94_3 1_555 1_555
C97_3 C95_3 1_555 1_555
H99_3 C96_3 1_555 1_555
H100_3 C97_3 1_555 1_555
C98_3 C88_3 1_555 1_555
C99_3 C89_3 1_555 1_555
H101_3 C98_3 1_555 1_555
H102_3 C99_3 1_555 1_555
H103_3 C106_3 1_555 1_555
H104_3 C107_3 1_555 1_555
C108_3 C106_3 1_555 1_555
C109_3 C107_3 1_555 1_555
H105_3 C108_3 1_555 1_555
H106_3 C109_3 1_555 1_555
C110_3 C108_3 1_555 1_555
C111_3 C109_3 1_555 1_555
H107_3 C110_3 1_555 1_555
H108_3 C111_3 1_555 1_555
N7_3 O16_3 1_555 1_555
N8_3 O19_3 1_555 1_555
C18_3 C19_3 1_555 1_555
N18_3 O46_3 1_555 1_555
N20_3 O52_3 1_555 1_555
N21_3 O57_3 1_555 1_555
N22_3 O58_3 1_555 1_555
N23_3 O63_3 1_555 1_555
N24_3 O64_3 1_555 1_555
C96_3 C98_3 1_555 1_555
C97_3 C99_3 1_555 1_555
H83_3 C80_3 1_555 1_555
C82_3 C80_3 1_555 1_555
H85_3 C82_3 1_555 1_555
H121 C124_3 1_555 1_555
C82_3 C84_3 1_555 1_555
N17_3 O43_3 1_555 1_555
N19_3 O49_3 1_555 1_555
O43_3 Eu9 1_555 1_555
O45_3 Eu9 1_555 1_555
O47_3 N17_3 1_555 1_555
O49_3 Eu9 1_555 1_555
O51_3 Eu9 1_555 1_555
O53_3 N19_3 1_555 1_555
N17_3 O45_3 1_555 1_555
N19_3 O51_3 1_555 1_555
N17_4 O43_4 1_555 1_555
N19_4 O49_4 1_555 1_555
O43_4 Eu9_2 1_555 1_555
O45_4 Eu9_2 1_555 1_555
O47_4 N17_4 1_555 1_555
O49_4 Eu9_2 1_555 1_555
O51_4 Eu9_2 1_555 1_555
O53_4 N19_4 1_555 1_555
H83_4 C80_4 1_555 1_555
C82_4 C80_4 1_555 1_555
H85_4 C82_4 1_555 1_555
H87_4 C84_4 1_555 1_555
H121_2 C124_4 1_555 1_555
N17_4 O45_4 1_555 1_555
N19_4 O51_4 1_555 1_555
C82_4 C84_4 1_555 1_555
Eu2_4 O8_4 1_555 1_555
N1_4 H1_4 1_555 1_555
N2_4 H2_4 1_555 1_555
N3_4 H3_4 1_555 1_555
N4_4 H4_4 1_555 1_555
N7_4 O15_4 1_555 1_555
N8_4 O18_4 1_555 1_555
O1_4 C2_4 1_555 1_555
O2_4 C3_4 1_555 1_555
O3_4 C4_4 1_555 1_555
O4_4 C5_4 1_555 1_555
O5_4 C6_4 1_555 1_555
O6_4 C20_4 1_555 1_555
O38_2 C34_4 1_555 1_555
O8_4 C48_4 1_555 1_555
O17_4 N7_4 1_555 1_555
O18_4 Eu2_4 1_555 1_555
O19_4 Eu2_4 1_555 1_555
O20_4 N8_4 1_555 1_555
C1_4 C2_4 1_555 1_555
C2_4 H5_4 1_555 1_555
H6_4 C2_4 1_555 1_555
C3_4 C1_4 1_555 1_555
H7_4 C3_4 1_555 1_555
H8_4 C3_4 1_555 1_555
C4_4 C1_4 1_555 1_555
H9_4 C4_4 1_555 1_555
H10_4 C4_4 1_555 1_555
C5_4 C1_4 1_555 1_555
H11_4 C5_4 1_555 1_555
H12_4 C5_4 1_555 1_555
C6_4 N1_4 1_555 1_555
C7_4 C6_4 1_555 1_555
C8_4 O1_4 1_555 1_555
C9_4 C8_4 1_555 1_555
H13_4 C9_4 1_555 1_555
C13_4 N1_4 1_555 1_555
H17_4 C13_4 1_555 1_555
H18_4 C13_4 1_555 1_555
C14_4 C13_4 1_555 1_555
C15_4 C14_4 1_555 1_555
H19_4 C15_4 1_555 1_555
C16_4 C15_4 1_555 1_555
H20_4 C16_4 1_555 1_555
C17_4 C16_4 1_555 1_555
H21_4 C17_4 1_555 1_555
C18_4 C17_4 1_555 1_555
H22_4 C18_4 1_555 1_555
C19_4 C14_4 1_555 1_555
H23_4 C19_4 1_555 1_555
C20_4 N2_4 1_555 1_555
C21_4 C20_4 1_555 1_555
C22_4 O2_4 1_555 1_555
C23_4 C22_4 1_555 1_555
H24_4 C23_4 1_555 1_555
C24_4 C23_4 1_555 1_555
H25_4 C24_4 1_555 1_555
C25_4 C24_4 1_555 1_555
H26_4 C25_4 1_555 1_555
C26_4 C21_4 1_555 1_555
H27_4 C26_4 1_555 1_555
C27_4 N2_4 1_555 1_555
H28_4 C27_4 1_555 1_555
H29_4 C27_4 1_555 1_555
C28_4 C27_4 1_555 1_555
C29_4 C28_4 1_555 1_555
H30_4 C29_4 1_555 1_555
C30_4 C29_4 1_555 1_555
H31_4 C30_4 1_555 1_555
C31_4 C30_4 1_555 1_555
C33_4 C28_4 1_555 1_555
H34_4 C33_4 1_555 1_555
C34_4 N3_4 1_555 1_555
C35_4 C34_4 1_555 1_555
C36_4 O3_4 1_555 1_555
C37_4 C36_4 1_555 1_555
H35_4 C37_4 1_555 1_555
C38_4 C37_4 1_555 1_555
H36_4 C38_4 1_555 1_555
C39_4 C38_4 1_555 1_555
H37_4 C39_4 1_555 1_555
C40_4 C35_4 1_555 1_555
H38_4 C40_4 1_555 1_555
C41_4 N3_4 1_555 1_555
H39_4 C41_4 1_555 1_555
H40_4 C41_4 1_555 1_555
C42_4 C41_4 1_555 1_555
C43_4 C42_4 1_555 1_555
H41_4 C43_4 1_555 1_555
C44_4 C43_4 1_555 1_555
H42_4 C44_4 1_555 1_555
C45_4 C44_4 1_555 1_555
H43_4 C45_4 1_555 1_555
C46_4 C45_4 1_555 1_555
H44_4 C46_4 1_555 1_555
C47_4 C42_4 1_555 1_555
H45_4 C47_4 1_555 1_555
C48_4 N4_4 1_555 1_555
C49_4 C48_4 1_555 1_555
C50_4 O4_4 1_555 1_555
C51_4 C50_4 1_555 1_555
H46_4 C51_4 1_555 1_555
C52_4 C51_4 1_555 1_555
H47_4 C52_4 1_555 1_555
C53_4 C52_4 1_555 1_555
H48_4 C53_4 1_555 1_555
C54_4 C49_4 1_555 1_555
H49_4 C54_4 1_555 1_555
C55_4 N4_4 1_555 1_555
H50_4 C55_4 1_555 1_555
H51_4 C55_4 1_555 1_555
C56_4 C55_4 1_555 1_555
C57_4 C56_4 1_555 1_555
H52_4 C57_4 1_555 1_555
C58_4 C57_4 1_555 1_555
H53_4 C58_4 1_555 1_555
C59_4 C58_4 1_555 1_555
H54_4 C59_4 1_555 1_555
C60_4 C59_4 1_555 1_555
H55_4 C60_4 1_555 1_555
C61_4 C56_4 1_555 1_555
H56_4 C61_4 1_555 1_555
Eu10_2 O30_4 1_555 1_555
Eu8_4 O31_4 1_555 1_555
Eu9_4 O32_4 1_555 1_555
Eu10_4 O6_4 1_555 1_555
N9_4 H57_4 1_555 1_555
N10_4 H58_4 1_555 1_555
N11_4 H59_4 1_555 1_555
N12_4 H60_4 1_555 1_555
N13_4 H61_4 1_555 1_555
N14_4 H62_4 1_555 1_555
N15_4 H63_4 1_555 1_555
N16_4 H64_4 1_555 1_555
N18_4 O44_4 1_555 1_555
N20_4 O50_4 1_555 1_555
N21_4 O55_4 1_555 1_555
N22_4 O56_4 1_555 1_555
N23_4 O61_4 1_555 1_555
N24_4 O62_4 1_555 1_555
O21_4 C64_4 1_555 1_555
O22_4 C65_4 1_555 1_555
O23_4 C66_4 1_555 1_555
O24_4 C67_4 1_555 1_555
O25_4 C68_4 1_555 1_555
O26_4 C69_4 1_555 1_555
O27_4 C70_4 1_555 1_555
O28_4 C71_4 1_555 1_555
O29_4 C72_4 1_555 1_555
O30_4 C73_4 1_555 1_555
O31_4 C100_4 1_555 1_555
O32_4 C101_4 1_555 1_555
O39_2 C128_4 1_555 1_555
O40_2 C129_4 1_555 1_555
O41_4 Eu2_4 1_555 1_555
O42_4 Eu2_4 1_555 1_555
O44_4 Eu10_2 1_555 1_555
O46_4 Eu10_2 1_555 1_555
O48_4 N18_4 1_555 1_555
O50_4 Eu10_2 1_555 1_555
O52_4 Eu10_2 1_555 1_555
O54_4 N20_4 1_555 1_555
O56_4 Eu10_2 1_555 1_555
O58_4 Eu10_2 1_555 1_555
O59_4 N21_4 1_555 1_555
O60_4 N22_4 1_555 1_555
O61_4 Eu2_4 1_555 1_555
O62_4 Eu2_4 1_555 1_555
O63_4 Eu2_4 1_555 1_555
O64_4 Eu2_4 1_555 1_555
O65_4 N23_4 1_555 1_555
O66_4 N24_4 1_555 1_555
C62_4 C64_4 1_555 1_555
C63_4 C65_4 1_555 1_555
C64_4 H65_4 1_555 1_555
C65_4 H66_4 1_555 1_555
H67_4 C64_4 1_555 1_555
H68_4 C65_4 1_555 1_555
C66_4 C62_4 1_555 1_555
C67_4 C63_4 1_555 1_555
H69_4 C66_4 1_555 1_555
H70_4 C67_4 1_555 1_555
H71_4 C66_4 1_555 1_555
H72_4 C67_4 1_555 1_555
C68_4 C62_4 1_555 1_555
C69_4 C63_4 1_555 1_555
H73_4 C68_4 1_555 1_555
H74_4 C69_4 1_555 1_555
H75_4 C68_4 1_555 1_555
H76_4 C69_4 1_555 1_555
C70_4 C62_4 1_555 1_555
C71_4 C63_4 1_555 1_555
H77_4 C70_4 1_555 1_555
H78_4 C71_4 1_555 1_555
H79_4 C70_4 1_555 1_555
H80_4 C71_4 1_555 1_555
C72_4 N9_4 1_555 1_555
C73_4 N10_4 1_555 1_555
C74_4 C72_4 1_555 1_555
C75_4 C73_4 1_555 1_555
C76_4 O21_4 1_555 1_555
C77_4 O22_4 1_555 1_555
C78_4 C76_4 1_555 1_555
C79_4 C77_4 1_555 1_555
H81_4 C78_4 1_555 1_555
H82_4 C79_4 1_555 1_555
C81_4 C79_4 1_555 1_555
H84_4 C81_4 1_555 1_555
C83_4 C81_4 1_555 1_555
H86_4 C83_4 1_555 1_555
C85_4 C75_4 1_555 1_555
H88_4 C85_4 1_555 1_555
C86_4 N9_4 1_555 1_555
C87_4 N10_4 1_555 1_555
H89_4 C86_4 1_555 1_555
H90_4 C87_4 1_555 1_555
H91_4 C86_4 1_555 1_555
H92_4 C87_4 1_555 1_555
C88_4 C86_4 1_555 1_555
C89_4 C87_4 1_555 1_555
C90_4 C88_4 1_555 1_555
C91_4 C89_4 1_555 1_555
H93_4 C90_4 1_555 1_555
H94_4 C91_4 1_555 1_555
C92_4 C90_4 1_555 1_555
C93_4 C91_4 1_555 1_555
H95_4 C92_4 1_555 1_555
H96_4 C93_4 1_555 1_555
C94_4 C92_4 1_555 1_555
C95_4 C93_4 1_555 1_555
H97_4 C94_4 1_555 1_555
H98_4 C95_4 1_555 1_555
C96_4 C94_4 1_555 1_555
C97_4 C95_4 1_555 1_555
H99_4 C96_4 1_555 1_555
H100_4 C97_4 1_555 1_555
C98_4 C88_4 1_555 1_555
C99_4 C89_4 1_555 1_555
H101_4 C98_4 1_555 1_555
H102_4 C99_4 1_555 1_555
C100_4 N11_4 1_555 1_555
C101_4 N12_4 1_555 1_555
C102_4 C100_4 1_555 1_555
C103_4 C101_4 1_555 1_555
C104_4 O23_4 1_555 1_555
C105_4 O24_4 1_555 1_555
C106_4 C104_4 1_555 1_555
C107_4 C105_4 1_555 1_555
H103_4 C106_4 1_555 1_555
H104_4 C107_4 1_555 1_555
C108_4 C106_4 1_555 1_555
C109_4 C107_4 1_555 1_555
H105_4 C108_4 1_555 1_555
H106_4 C109_4 1_555 1_555
C110_4 C108_4 1_555 1_555
C111_4 C109_4 1_555 1_555
H107_4 C110_4 1_555 1_555
H108_4 C111_4 1_555 1_555
C112_4 C102_4 1_555 1_555
C113_4 C103_4 1_555 1_555
H109_4 C112_4 1_555 1_555
H110_4 C113_4 1_555 1_555
C114_4 N11_4 1_555 1_555
C115_4 N12_4 1_555 1_555
H111_4 C114_4 1_555 1_555
H112_4 C115_4 1_555 1_555
H113_4 C114_4 1_555 1_555
H114_4 C115_4 1_555 1_555
C116_4 C114_4 1_555 1_555
C117_4 C115_4 1_555 1_555
C118_4 C116_4 1_555 1_555
C119_4 C117_4 1_555 1_555
H115_4 C118_4 1_555 1_555
H116_4 C119_4 1_555 1_555
C120_4 C118_4 1_555 1_555
C121_4 C119_4 1_555 1_555
H117_4 C120_4 1_555 1_555
H118_4 C121_4 1_555 1_555
C122_4 C120_4 1_555 1_555
C123_4 C121_4 1_555 1_555
H120_4 C123_4 1_555 1_555
C125_4 C123_4 1_555 1_555
H122_3 C125_4 1_555 1_555
C126_4 C116_4 1_555 1_555
C127_4 C117_4 1_555 1_555
H123_2 C126_4 1_555 1_555
H124_3 C127_4 1_555 1_555
C128_4 N13_4 1_555 1_555
C129_4 N14_4 1_555 1_555
C130_4 C128_4 1_555 1_555
C131_4 C129_4 1_555 1_555
C132_4 O25_4 1_555 1_555
C133_4 O26_4 1_555 1_555
C134_4 C132_4 1_555 1_555
C135_4 C133_4 1_555 1_555
H125_4 C134_4 1_555 1_555
H126_4 C135_4 1_555 1_555
C136_4 C134_4 1_555 1_555
C137_4 C135_4 1_555 1_555
H127_4 C136_4 1_555 1_555
H128_4 C137_4 1_555 1_555
C138_4 C136_4 1_555 1_555
C139_4 C137_4 1_555 1_555
H129_4 C138_4 1_555 1_555
H130_4 C139_4 1_555 1_555
C140_4 C130_4 1_555 1_555
C141_4 C131_4 1_555 1_555
H131_4 C140_4 1_555 1_555
H132_4 C141_4 1_555 1_555
C142_4 N13_4 1_555 1_555
C143_4 N14_4 1_555 1_555
H133_4 C142_4 1_555 1_555
H134_4 C143_4 1_555 1_555
H135_4 C142_4 1_555 1_555
H136_4 C143_4 1_555 1_555
C144_4 C142_4 1_555 1_555
C145_4 C143_4 1_555 1_555
C146_4 C144_4 1_555 1_555
C147_4 C145_4 1_555 1_555
H137_4 C146_4 1_555 1_555
H138_4 C147_4 1_555 1_555
C148_4 C146_4 1_555 1_555
C149_4 C147_4 1_555 1_555
H139_4 C148_4 1_555 1_555
H140_4 C149_4 1_555 1_555
C150_4 C148_4 1_555 1_555
C151_4 C149_4 1_555 1_555
H141_4 C150_4 1_555 1_555
H142_4 C151_4 1_555 1_555
C152_4 C150_4 1_555 1_555
C153_4 C151_4 1_555 1_555
H143_4 C152_4 1_555 1_555
H144_4 C153_4 1_555 1_555
C154_4 C144_4 1_555 1_555
C155_4 C145_4 1_555 1_555
H145_4 C154_4 1_555 1_555
H146_4 C155_4 1_555 1_555
C156_4 N15_4 1_555 1_555
C157_4 N16_4 1_555 1_555
C158_4 C156_4 1_555 1_555
C159_4 C157_4 1_555 1_555
C160_4 O27_4 1_555 1_555
C161_4 O28_4 1_555 1_555
C162_4 C160_4 1_555 1_555
C163_4 C161_4 1_555 1_555
H147_4 C162_4 1_555 1_555
H148_4 C163_4 1_555 1_555
C164_4 C162_4 1_555 1_555
C165_4 C163_4 1_555 1_555
H149_4 C164_4 1_555 1_555
H150_4 C165_4 1_555 1_555
C166_4 C164_4 1_555 1_555
C167_4 C165_4 1_555 1_555
H151_4 C166_4 1_555 1_555
H152_4 C167_4 1_555 1_555
C168_4 C158_4 1_555 1_555
C169_4 C159_4 1_555 1_555
H153_4 C168_4 1_555 1_555
H154_4 C169_4 1_555 1_555
C170_4 N15_4 1_555 1_555
C171_4 N16_4 1_555 1_555
H155_4 C170_4 1_555 1_555
H156_4 C171_4 1_555 1_555
H157_4 C170_4 1_555 1_555
H158_4 C171_4 1_555 1_555
C172_4 C170_4 1_555 1_555
C173_4 C171_4 1_555 1_555
C174_4 C172_4 1_555 1_555
C175_4 C173_4 1_555 1_555
H159_4 C174_4 1_555 1_555
H160_4 C175_4 1_555 1_555
C176_4 C174_4 1_555 1_555
C177_4 C175_4 1_555 1_555
H161_4 C176_4 1_555 1_555
H162_4 C177_4 1_555 1_555
C178_4 C176_4 1_555 1_555
C179_4 C177_4 1_555 1_555
H163_4 C178_4 1_555 1_555
H164_4 C179_4 1_555 1_555
C180_4 C178_4 1_555 1_555
C181_4 C179_4 1_555 1_555
H165_4 C180_4 1_555 1_555
H166_4 C181_4 1_555 1_555
C182_4 C172_4 1_555 1_555
C183_4 C173_4 1_555 1_555
H167_4 C182_4 1_555 1_555
H168_4 C183_4 1_555 1_555
N7_4 O16_4 1_555 1_555
N8_4 O19_4 1_555 1_555
C7_4 C8_4 1_555 1_555
C18_4 C19_4 1_555 1_555
C21_4 C22_4 1_555 1_555
C25_4 C26_4 1_555 1_555
C35_4 C36_4 1_555 1_555
C39_4 C40_4 1_555 1_555
C46_4 C47_4 1_555 1_555
C49_4 C50_4 1_555 1_555
C53_4 C54_4 1_555 1_555
C60_4 C61_4 1_555 1_555
N18_4 O46_4 1_555 1_555
N20_4 O52_4 1_555 1_555
N21_4 O57_4 1_555 1_555
N22_4 O58_4 1_555 1_555
N23_4 O63_4 1_555 1_555
N24_4 O64_4 1_555 1_555
O41_4 C156_4 1_555 1_555
O42_4 C157_4 1_555 1_555
C74_4 C76_4 1_555 1_555
C75_4 C77_4 1_555 1_555
C83_4 C85_4 1_555 1_555
C96_4 C98_4 1_555 1_555
C97_4 C99_4 1_555 1_555
C102_4 C104_4 1_555 1_555
C103_4 C105_4 1_555 1_555
C110_4 C112_4 1_555 1_555
C111_4 C113_4 1_555 1_555
C125_4 C127_4 1_555 1_555
C130_4 C132_4 1_555 1_555
C131_4 C133_4 1_555 1_555
C138_4 C140_4 1_555 1_555
C139_4 C141_4 1_555 1_555
C152_4 C154_4 1_555 1_555
C153_4 C155_4 1_555 1_555
C158_4 C160_4 1_555 1_555
C159_4 C161_4 1_555 1_555
C166_4 C168_4 1_555 1_555
C167_4 C169_4 1_555 1_555
C180_4 C182_4 1_555 1_555
C181_4 C183_4 1_555 1_555
N5_4 O9_4 1_555 1_555
N6_4 O12_4 1_555 1_555
O9_4 Eu8_2 1_555 1_555
O10_4 Eu8_2 1_555 1_555
O11_4 N5_4 1_555 1_555
O12_4 Eu8_2 1_555 1_555
O13_4 Eu8_2 1_555 1_555
O14_4 N6_4 1_555 1_555
H14_4 C10_4 1_555 1_555
C11_4 C10_4 1_555 1_555
H15_4 C11_4 1_555 1_555
H16_4 C12_4 1_555 1_555
H33_4 C32_4 1_555 1_555
N5_4 O10_4 1_555 1_555
N6_4 O13_4 1_555 1_555
C11_4 C12_4 1_555 1_555
Eu8_3 O5_5 1_555 1_555
N1_5 H1_5 1_555 1_555
N3_5 H3_5 1_555 1_555
N4_5 H4_5 1_555 1_555
N5_5 O9_5 1_555 1_555
N6_5 O12_5 1_555 1_555
N7_5 O15_5 1_555 1_555
O1_5 C2_5 1_555 1_555
O3_5 C4_5 1_555 1_555
O4_5 C5_5 1_555 1_555
O5_5 C6_5 1_555 1_555
O7_3 C34_5 1_555 1_555
O8_5 C48_5 1_555 1_555
O9_5 Eu8_3 1_555 1_555
O10_5 Eu8_3 1_555 1_555
O11_5 N5_5 1_555 1_555
O12_5 Eu8_3 1_555 1_555
O13_5 Eu8_3 1_555 1_555
O14_5 N6_5 1_555 1_555
O15_5 Eu8_3 1_555 1_555
O16_5 Eu8_3 1_555 1_555
O17_5 N7_5 1_555 1_555
C1_5 C2_5 1_555 1_555
C2_5 H5_5 1_555 1_555
H6_5 C2_5 1_555 1_555
C3_5 C1_5 1_555 1_555
H7_5 C3_5 1_555 1_555
H8_5 C3_5 1_555 1_555
C4_5 C1_5 1_555 1_555
H9_5 C4_5 1_555 1_555
C5_5 C1_5 1_555 1_555
H11_5 C5_5 1_555 1_555
H12_5 C5_5 1_555 1_555
C6_5 N1_5 1_555 1_555
C7_5 C6_5 1_555 1_555
C8_5 O1_5 1_555 1_555
C9_5 C8_5 1_555 1_555
H13_5 C9_5 1_555 1_555
C10_5 C9_5 1_555 1_555
H14_5 C10_5 1_555 1_555
C11_5 C10_5 1_555 1_555
H15_5 C11_5 1_555 1_555
C12_5 C7_5 1_555 1_555
H16_5 C12_5 1_555 1_555
C13_5 N1_5 1_555 1_555
H17_5 C13_5 1_555 1_555
H18_5 C13_5 1_555 1_555
C14_5 C13_5 1_555 1_555
C15_5 C14_5 1_555 1_555
H19_5 C15_5 1_555 1_555
C16_5 C15_5 1_555 1_555
H20_5 C16_5 1_555 1_555
C19_5 C14_5 1_555 1_555
H23_5 C19_5 1_555 1_555
H31_5 C30_5 1_555 1_555
C31_5 C30_5 1_555 1_555
H32_5 C31_5 1_555 1_555
C32_5 C31_5 1_555 1_555
H33_5 C32_5 1_555 1_555
C34_5 N3_5 1_555 1_555
C35_5 C34_5 1_555 1_555
C36_5 O3_5 1_555 1_555
C37_5 C36_5 1_555 1_555
H37_5 C39_5 1_555 1_555
C40_5 C35_5 1_555 1_555
H38_5 C40_5 1_555 1_555
C41_5 N3_5 1_555 1_555
H39_5 C41_5 1_555 1_555
H40_5 C41_5 1_555 1_555
C42_5 C41_5 1_555 1_555
C43_5 C42_5 1_555 1_555
H41_5 C43_5 1_555 1_555
C44_5 C43_5 1_555 1_555
H42_5 C44_5 1_555 1_555
C45_5 C44_5 1_555 1_555
H43_5 C45_5 1_555 1_555
C46_5 C45_5 1_555 1_555
H44_5 C46_5 1_555 1_555
C47_5 C42_5 1_555 1_555
H45_5 C47_5 1_555 1_555
C48_5 N4_5 1_555 1_555
C49_5 C48_5 1_555 1_555
C50_5 O4_5 1_555 1_555
C51_5 C50_5 1_555 1_555
H46_5 C51_5 1_555 1_555
C52_5 C51_5 1_555 1_555
H47_5 C52_5 1_555 1_555
C53_5 C52_5 1_555 1_555
H48_5 C53_5 1_555 1_555
C54_5 C49_5 1_555 1_555
H49_5 C54_5 1_555 1_555
Eu9_4 O7_3 1_555 1_555
N12_5 H60_5 1_555 1_555
N24_5 O62_5 1_555 1_555
O35 C101_5 1_555 1_555
O39_3 Eu8_3 1_555 1_555
O66_5 N24_5 1_555 1_555
H98_5 C95_5 1_555 1_555
C97_5 C95_5 1_555 1_555
H100_5 C97_5 1_555 1_555
C101_5 N12_5 1_555 1_555
C103_5 C101_5 1_555 1_555
C105_5 O24_5 1_555 1_555
C107_5 C105_5 1_555 1_555
H104_5 C107_5 1_555 1_555
C109_5 C107_5 1_555 1_555
H106_5 C109_5 1_555 1_555
C111_5 C109_5 1_555 1_555
H108_5 C111_5 1_555 1_555
C113_5 C103_5 1_555 1_555
H110_5 C113_5 1_555 1_555
C115_5 N12_5 1_555 1_555
H112_5 C115_5 1_555 1_555
H114_5 C115_5 1_555 1_555
C117_5 C115_5 1_555 1_555
C119_5 C117_5 1_555 1_555
H116_5 C119_5 1_555 1_555
C127_5 C117_5 1_555 1_555
H124_4 C127_5 1_555 1_555
H128_5 C137_5 1_555 1_555
H156_5 C171_5 1_555 1_555
H158_5 C171_5 1_555 1_555
C173_5 C171_5 1_555 1_555
C175_5 C173_5 1_555 1_555
H160_5 C175_5 1_555 1_555
C177_5 C175_5 1_555 1_555
H162_5 C177_5 1_555 1_555
C179_5 C177_5 1_555 1_555
H164_5 C179_5 1_555 1_555
C181_5 C179_5 1_555 1_555
H166_5 C181_5 1_555 1_555
C183_5 C173_5 1_555 1_555
H168_5 C183_5 1_555 1_555
N5_5 O10_5 1_555 1_555
N6_5 O13_5 1_555 1_555
N7_5 O16_5 1_555 1_555
C7_5 C8_5 1_555 1_555
C11_5 C12_5 1_555 1_555
C35_5 C36_5 1_555 1_555
C39_5 C40_5 1_555 1_555
C46_5 C47_5 1_555 1_555
C49_5 C50_5 1_555 1_555
C53_5 C54_5 1_555 1_555
N24_5 O64_5 1_555 1_555
C103_5 C105_5 1_555 1_555
C111_5 C113_5 1_555 1_555
C181_5 C183_5 1_555 1_555
Eu10_3 O30_5 1_555 1_555
Eu10_4 O37_3 1_555 1_555
N10_5 H58_5 1_555 1_555
N14_5 H62_5 1_555 1_555
N16_5 H64_5 1_555 1_555
N18_5 O44_5 1_555 1_555
N20_5 O50_5 1_555 1_555
N22_5 O56_5 1_555 1_555
O22_5 C65_5 1_555 1_555
O26_5 C69_5 1_555 1_555
O28_5 C71_5 1_555 1_555
O30_5 C73_5 1_555 1_555
O37_3 C129_5 1_555 1_555
O40_3 Eu10_3 1_555 1_555
O42_5 Eu2_5 1_555 1_555
O44_5 Eu10_3 1_555 1_555
O46_5 Eu10_3 1_555 1_555
O48_5 N18_5 1_555 1_555
O50_5 Eu10_3 1_555 1_555
O52_5 Eu10_3 1_555 1_555
O54_5 N20_5 1_555 1_555
O56_5 Eu10_3 1_555 1_555
O58_5 Eu10_3 1_555 1_555
O60_5 N22_5 1_555 1_555
O63_5 Eu2_5 1_555 1_555
C63_5 C65_5 1_555 1_555
C65_5 H66_5 1_555 1_555
H68_5 C65_5 1_555 1_555
C67_5 C63_5 1_555 1_555
H70_5 C67_5 1_555 1_555
H72_5 C67_5 1_555 1_555
C69_5 C63_5 1_555 1_555
H74_5 C69_5 1_555 1_555
C71_5 C63_5 1_555 1_555
H78_5 C71_5 1_555 1_555
H80_5 C71_5 1_555 1_555
C73_5 N10_5 1_555 1_555
C75_5 C73_5 1_555 1_555
C77_5 O22_5 1_555 1_555
C79_5 C77_5 1_555 1_555
H82_5 C79_5 1_555 1_555
C81_5 C79_5 1_555 1_555
H84_5 C81_5 1_555 1_555
C83_5 C81_5 1_555 1_555
H86_5 C83_5 1_555 1_555
C85_5 C75_5 1_555 1_555
H88_5 C85_5 1_555 1_555
C87_5 N10_5 1_555 1_555
H90_5 C87_5 1_555 1_555
H92_5 C87_5 1_555 1_555
C89_5 C87_5 1_555 1_555
C91_5 C89_5 1_555 1_555
H94_5 C91_5 1_555 1_555
C93_5 C91_5 1_555 1_555
H96_5 C93_5 1_555 1_555
C99_5 C89_5 1_555 1_555
H102_5 C99_5 1_555 1_555
H118_5 C121_5 1_555 1_555
C123_5 C121_5 1_555 1_555
H120_5 C123_5 1_555 1_555
C125_5 C123_5 1_555 1_555
H122_4 C125_5 1_555 1_555
C129_5 N14_5 1_555 1_555
C131_5 C129_5 1_555 1_555
C133_5 O26_5 1_555 1_555
C135_5 C133_5 1_555 1_555
H130_5 C139_5 1_555 1_555
C141_5 C131_5 1_555 1_555
H132_5 C141_5 1_555 1_555
C143_5 N14_5 1_555 1_555
H134_5 C143_5 1_555 1_555
H136_5 C143_5 1_555 1_555
C145_5 C143_5 1_555 1_555
C147_5 C145_5 1_555 1_555
H138_5 C147_5 1_555 1_555
C149_5 C147_5 1_555 1_555
H140_5 C149_5 1_555 1_555
C151_5 C149_5 1_555 1_555
H142_5 C151_5 1_555 1_555
C153_5 C151_5 1_555 1_555
H144_5 C153_5 1_555 1_555
C155_5 C145_5 1_555 1_555
H146_5 C155_5 1_555 1_555
C157_5 N16_5 1_555 1_555
C159_5 C157_5 1_555 1_555
C161_5 O28_5 1_555 1_555
C163_5 C161_5 1_555 1_555
H148_5 C163_5 1_555 1_555
C165_5 C163_5 1_555 1_555
H150_5 C165_5 1_555 1_555
C169_5 C159_5 1_555 1_555
N18_5 O46_5 1_555 1_555
N20_5 O52_5 1_555 1_555
N22_5 O58_5 1_555 1_555
O42_5 C157_5 1_555 1_555
C75_5 C77_5 1_555 1_555
C83_5 C85_5 1_555 1_555
C131_5 C133_5 1_555 1_555
C139_5 C141_5 1_555 1_555
C153_5 C155_5 1_555 1_555
C159_5 C161_5 1_555 1_555
N2_5 H2_5 1_555 1_555
N8_5 O18_5 1_555 1_555
O33 C20_5 1_555 1_555
O20_5 N8_5 1_555 1_555
H21_5 C17_5 1_555 1_555
C18_5 C17_5 1_555 1_555
H22_5 C18_5 1_555 1_555
C20_5 N2_5 1_555 1_555
C21_5 C20_5 1_555 1_555
C22_5 O2_5 1_555 1_555
C23_5 C22_5 1_555 1_555
H24_5 C23_5 1_555 1_555
C24_5 C23_5 1_555 1_555
H25_5 C24_5 1_555 1_555
C25_5 C24_5 1_555 1_555
H26_5 C25_5 1_555 1_555
C26_5 C21_5 1_555 1_555
H27_5 C26_5 1_555 1_555
C27_5 N2_5 1_555 1_555
H28_5 C27_5 1_555 1_555
H29_5 C27_5 1_555 1_555
C28_5 C27_5 1_555 1_555
C29_5 C28_5 1_555 1_555
H30_5 C29_5 1_555 1_555
C33_5 C28_5 1_555 1_555
H34_5 C33_5 1_555 1_555
H36_5 C38_5 1_555 1_555
H50_5 C55_5 1_555 1_555
H51_5 C55_5 1_555 1_555
C56_5 C55_5 1_555 1_555
C57_5 C56_5 1_555 1_555
H52_5 C57_5 1_555 1_555
C58_5 C57_5 1_555 1_555
H53_5 C58_5 1_555 1_555
C59_5 C58_5 1_555 1_555
H54_5 C59_5 1_555 1_555
C60_5 C59_5 1_555 1_555
H55_5 C60_5 1_555 1_555
C61_5 C56_5 1_555 1_555
H56_5 C61_5 1_555 1_555
H151_5 C166_5 1_555 1_555
C21_5 C22_5 1_555 1_555
C25_5 C26_5 1_555 1_555
C60_5 C61_5 1_555 1_555
Eu9_3 O29_5 1_555 1_555
Eu8_4 O36_3 1_555 1_555
N9_5 H57_5 1_555 1_555
N11_5 H59_5 1_555 1_555
N13_5 H61_5 1_555 1_555
N15_5 H63_5 1_555 1_555
N17_5 O43_5 1_555 1_555
N19_5 O49_5 1_555 1_555
N21_5 O55_5 1_555 1_555
N23_5 O61_5 1_555 1_555
O21_5 C64_5 1_555 1_555
O23_5 C66_5 1_555 1_555
O25_5 C68_5 1_555 1_555
O27_5 C70_5 1_555 1_555
O29_5 C72_5 1_555 1_555
O34 C100_5 1_555 1_555
O36_3 C128_5 1_555 1_555
O38_3 Eu9_3 1_555 1_555
O43_5 Eu9_3 1_555 1_555
O45_5 Eu9_3 1_555 1_555
O47_5 N17_5 1_555 1_555
O49_5 Eu9_3 1_555 1_555
O51_5 Eu9_3 1_555 1_555
O53_5 N19_5 1_555 1_555
O55_5 Eu9_3 1_555 1_555
O57_5 Eu9_3 1_555 1_555
O59_5 N21_5 1_555 1_555
O65_5 N23_5 1_555 1_555
C62_5 C64_5 1_555 1_555
C64_5 H65_5 1_555 1_555
H67_5 C64_5 1_555 1_555
C66_5 C62_5 1_555 1_555
H69_5 C66_5 1_555 1_555
H71_5 C66_5 1_555 1_555
C68_5 C62_5 1_555 1_555
H73_5 C68_5 1_555 1_555
H75_5 C68_5 1_555 1_555
C70_5 C62_5 1_555 1_555
H77_5 C70_5 1_555 1_555
H79_5 C70_5 1_555 1_555
C72_5 N9_5 1_555 1_555
C74_5 C72_5 1_555 1_555
C76_5 O21_5 1_555 1_555
C78_5 C76_5 1_555 1_555
H81_5 C78_5 1_555 1_555
C80_5 C78_5 1_555 1_555
H83_5 C80_5 1_555 1_555
C82_5 C80_5 1_555 1_555
H85_5 C82_5 1_555 1_555
C84_5 C74_5 1_555 1_555
H87_5 C84_5 1_555 1_555
C86_5 N9_5 1_555 1_555
H89_5 C86_5 1_555 1_555
H91_5 C86_5 1_555 1_555
C88_5 C86_5 1_555 1_555
C90_5 C88_5 1_555 1_555
H93_5 C90_5 1_555 1_555
C92_5 C90_5 1_555 1_555
H95_5 C92_5 1_555 1_555
C94_5 C92_5 1_555 1_555
H97_5 C94_5 1_555 1_555
C96_5 C94_5 1_555 1_555
H99_5 C96_5 1_555 1_555
C98_5 C88_5 1_555 1_555
H101_5 C98_5 1_555 1_555
C100_5 N11_5 1_555 1_555
C102_5 C100_5 1_555 1_555
C104_5 O23_5 1_555 1_555
C106_5 C104_5 1_555 1_555
H103_5 C106_5 1_555 1_555
C108_5 C106_5 1_555 1_555
H105_5 C108_5 1_555 1_555
C110_5 C108_5 1_555 1_555
H107_5 C110_5 1_555 1_555
C112_5 C102_5 1_555 1_555
H109_5 C112_5 1_555 1_555
C114_5 N11_5 1_555 1_555
H111_5 C114_5 1_555 1_555
H113_5 C114_5 1_555 1_555
C116_5 C114_5 1_555 1_555
C118_5 C116_5 1_555 1_555
H115_5 C118_5 1_555 1_555
C120_5 C118_5 1_555 1_555
H117_5 C120_5 1_555 1_555
C122_5 C120_5 1_555 1_555
H119_5 C122_5 1_555 1_555
C124_5 C122_5 1_555 1_555
H121_3 C124_5 1_555 1_555
C126_5 C116_5 1_555 1_555
H123_3 C126_5 1_555 1_555
C128_5 N13_5 1_555 1_555
C130_5 C128_5 1_555 1_555
C132_5 O25_5 1_555 1_555
C134_5 C132_5 1_555 1_555
H125_5 C134_5 1_555 1_555
C136_5 C134_5 1_555 1_555
H127_5 C136_5 1_555 1_555
C138_5 C136_5 1_555 1_555
H129_5 C138_5 1_555 1_555
C140_5 C130_5 1_555 1_555
H131_5 C140_5 1_555 1_555
C142_5 N13_5 1_555 1_555
H133_5 C142_5 1_555 1_555
H135_5 C142_5 1_555 1_555
C144_5 C142_5 1_555 1_555
C146_5 C144_5 1_555 1_555
H137_5 C146_5 1_555 1_555
C148_5 C146_5 1_555 1_555
H139_5 C148_5 1_555 1_555
C150_5 C148_5 1_555 1_555
H141_5 C150_5 1_555 1_555
C152_5 C150_5 1_555 1_555
H143_5 C152_5 1_555 1_555
C154_5 C144_5 1_555 1_555
H145_5 C154_5 1_555 1_555
C156_5 N15_5 1_555 1_555
C158_5 C156_5 1_555 1_555
C160_5 O27_5 1_555 1_555
C162_5 C160_5 1_555 1_555
H147_5 C162_5 1_555 1_555
C164_5 C162_5 1_555 1_555
H149_5 C164_5 1_555 1_555
H152_5 C167_5 1_555 1_555
C168_5 C158_5 1_555 1_555
C170_5 N15_5 1_555 1_555
H155_5 C170_5 1_555 1_555
H157_5 C170_5 1_555 1_555
C172_5 C170_5 1_555 1_555
C174_5 C172_5 1_555 1_555
H159_5 C174_5 1_555 1_555
C176_5 C174_5 1_555 1_555
H161_5 C176_5 1_555 1_555
C178_5 C176_5 1_555 1_555
H163_5 C178_5 1_555 1_555
C180_5 C178_5 1_555 1_555
H165_5 C180_5 1_555 1_555
C182_5 C172_5 1_555 1_555
H167_5 C182_5 1_555 1_555
N17_5 O45_5 1_555 1_555
N19_5 O51_5 1_555 1_555
N21_5 O57_5 1_555 1_555
O41_5 C156_5 1_555 1_555
C74_5 C76_5 1_555 1_555
C82_5 C84_5 1_555 1_555
C96_5 C98_5 1_555 1_555
C102_5 C104_5 1_555 1_555
C110_5 C112_5 1_555 1_555
C124_5 C126_5 1_555 1_555
C130_5 C132_5 1_555 1_555
C138_5 C140_5 1_555 1_555
C152_5 C154_5 1_555 1_555
C158_5 C160_5 1_555 1_555
C180_5 C182_5 1_555 1_555
O8_5 Eu2_6 1_555 1_555
O62_5 Eu2_6 1_555 1_555
O64_5 Eu2_6 1_555 1_555
O41_5 Eu2_7 1_555 1_555
O61_5 Eu2_7 1_555 1_555
O19_5 Eu2_7 1_555 1_555
N13_6 H61_6 1_555 1_555
O39_3 C128_6 1_555 1_555
H111_6 C114_6 1_555 1_555
H113_6 C114_6 1_555 1_555
C116_6 C114_6 1_555 1_555
C118_6 C116_6 1_555 1_555
H115_6 C118_6 1_555 1_555
C120_6 C118_6 1_555 1_555
H117_6 C120_6 1_555 1_555
C122_6 C120_6 1_555 1_555
H119_6 C122_6 1_555 1_555
C124_6 C122_6 1_555 1_555
H121_4 C124_6 1_555 1_555
C126_6 C116_6 1_555 1_555
C128_6 N13_6 1_555 1_555
C130_6 C128_6 1_555 1_555
C132_6 O25_6 1_555 1_555
C134_6 C132_6 1_555 1_555
H125_6 C134_6 1_555 1_555
C136_6 C134_6 1_555 1_555
H127_6 C136_6 1_555 1_555
C138_6 C136_6 1_555 1_555
H129_6 C138_6 1_555 1_555
C140_6 C130_6 1_555 1_555
H131_6 C140_6 1_555 1_555
C142_6 N13_6 1_555 1_555
H133_6 C142_6 1_555 1_555
H135_6 C142_6 1_555 1_555
C144_6 C142_6 1_555 1_555
C178_6 C176_6 1_555 1_555
H163_6 C178_6 1_555 1_555
C180_6 C178_6 1_555 1_555
H165_6 C180_6 1_555 1_555
H167_6 C182_6 1_555 1_555
C124_6 C126_6 1_555 1_555
C130_6 C132_6 1_555 1_555
C138_6 C140_6 1_555 1_555
C180_6 C182_6 1_555 1_555
Eu9_4 O29_6 1_555 1_555
N9_6 H57_6 1_555 1_555
N11_6 H59_6 1_555 1_555
N15_6 H63_6 1_555 1_555
N17_6 O43_6 1_555 1_555
N19_6 O49_6 1_555 1_555
N21_6 O55_6 1_555 1_555
N23_6 O61_6 1_555 1_555
O21_6 C64_6 1_555 1_555
O23_6 C66_6 1_555 1_555
O27_6 C70_6 1_555 1_555
O29_6 C72_6 1_555 1_555
O34_2 C100_6 1_555 1_555
O43_6 Eu9_4 1_555 1_555
O45_6 Eu9_4 1_555 1_555
O47_6 N17_6 1_555 1_555
O49_6 Eu9_4 1_555 1_555
O51_6 Eu9_4 1_555 1_555
O53_6 N19_6 1_555 1_555
O55_6 Eu9_4 1_555 1_555
O57_6 Eu9_4 1_555 1_555
O59_6 N21_6 1_555 1_555
O65_6 N23_6 1_555 1_555
C62_6 C64_6 1_555 1_555
C64_6 H65_6 1_555 1_555
H67_6 C64_6 1_555 1_555
C66_6 C62_6 1_555 1_555
H69_6 C66_6 1_555 1_555
H71_6 C66_6 1_555 1_555
C68_6 C62_6 1_555 1_555
H73_6 C68_6 1_555 1_555
H75_6 C68_6 1_555 1_555
C70_6 C62_6 1_555 1_555
H77_6 C70_6 1_555 1_555
H79_6 C70_6 1_555 1_555
C72_6 N9_6 1_555 1_555
C74_6 C72_6 1_555 1_555
C76_6 O21_6 1_555 1_555
C78_6 C76_6 1_555 1_555
H81_6 C78_6 1_555 1_555
C80_6 C78_6 1_555 1_555
H83_6 C80_6 1_555 1_555
C82_6 C80_6 1_555 1_555
H85_6 C82_6 1_555 1_555
C84_6 C74_6 1_555 1_555
H87_6 C84_6 1_555 1_555
C86_6 N9_6 1_555 1_555
H89_6 C86_6 1_555 1_555
H91_6 C86_6 1_555 1_555
C88_6 C86_6 1_555 1_555
C90_6 C88_6 1_555 1_555
H93_6 C90_6 1_555 1_555
C92_6 C90_6 1_555 1_555
H95_6 C92_6 1_555 1_555
C94_6 C92_6 1_555 1_555
H97_6 C94_6 1_555 1_555
C96_6 C94_6 1_555 1_555
H99_6 C96_6 1_555 1_555
C98_6 C88_6 1_555 1_555
H101_6 C98_6 1_555 1_555
C100_6 N11_6 1_555 1_555
C102_6 C100_6 1_555 1_555
C104_6 O23_6 1_555 1_555
C106_6 C104_6 1_555 1_555
H103_6 C106_6 1_555 1_555
C108_6 C106_6 1_555 1_555
H105_6 C108_6 1_555 1_555
C110_6 C108_6 1_555 1_555
H107_6 C110_6 1_555 1_555
C112_6 C102_6 1_555 1_555
H109_6 C112_6 1_555 1_555
H137_6 C146_6 1_555 1_555
C148_6 C146_6 1_555 1_555
H139_6 C148_6 1_555 1_555
C150_6 C148_6 1_555 1_555
H141_6 C150_6 1_555 1_555
C152_6 C150_6 1_555 1_555
H143_6 C152_6 1_555 1_555
C156_6 N15_6 1_555 1_555
C158_6 C156_6 1_555 1_555
C160_6 O27_6 1_555 1_555
C162_6 C160_6 1_555 1_555
H147_6 C162_6 1_555 1_555
C164_6 C162_6 1_555 1_555
H149_6 C164_6 1_555 1_555
H152_6 C167_6 1_555 1_555
C168_6 C158_6 1_555 1_555
C170_6 N15_6 1_555 1_555
H155_6 C170_6 1_555 1_555
H157_6 C170_6 1_555 1_555
C172_6 C170_6 1_555 1_555
C174_6 C172_6 1_555 1_555
H159_6 C174_6 1_555 1_555
N17_6 O45_6 1_555 1_555
N19_6 O51_6 1_555 1_555
N21_6 O57_6 1_555 1_555
O41_6 C156_6 1_555 1_555
C74_6 C76_6 1_555 1_555
C82_6 C84_6 1_555 1_555
C96_6 C98_6 1_555 1_555
C102_6 C104_6 1_555 1_555
C110_6 C112_6 1_555 1_555
C152_6 C154_6 1_555 1_555
C158_6 C160_6 1_555 1_555
N14_6 H62_6 1_555 1_555
O40_3 C129_6 1_555 1_555
H118_6 C121_6 1_555 1_555
C123_6 C121_6 1_555 1_555
H120_6 C123_6 1_555 1_555
C125_6 C123_6 1_555 1_555
H122_5 C125_6 1_555 1_555
C129_6 N14_6 1_555 1_555
C131_6 C129_6 1_555 1_555
C133_6 O26_6 1_555 1_555
C135_6 C133_6 1_555 1_555
H130_6 C139_6 1_555 1_555
C141_6 C131_6 1_555 1_555
H132_6 C141_6 1_555 1_555
C143_6 N14_6 1_555 1_555
H134_6 C143_6 1_555 1_555
H136_6 C143_6 1_555 1_555
C145_6 C143_6 1_555 1_555
C131_6 C133_6 1_555 1_555
C139_6 C141_6 1_555 1_555
Eu10_4 O30_6 1_555 1_555
N10_6 H58_6 1_555 1_555
N16_6 H64_6 1_555 1_555
N18_6 O44_6 1_555 1_555
N20_6 O50_6 1_555 1_555
N22_6 O56_6 1_555 1_555
O22_6 C65_6 1_555 1_555
O28_6 C71_6 1_555 1_555
O30_6 C73_6 1_555 1_555
O42_6 Eu2_8 1_555 1_555
O44_6 Eu10_4 1_555 1_555
O46_6 Eu10_4 1_555 1_555
O48_6 N18_6 1_555 1_555
O50_6 Eu10_4 1_555 1_555
O52_6 Eu10_4 1_555 1_555
O54_6 N20_6 1_555 1_555
O56_6 Eu10_4 1_555 1_555
O58_6 Eu10_4 1_555 1_555
O60_6 N22_6 1_555 1_555
O63_6 Eu2_8 1_555 1_555
C63_6 C65_6 1_555 1_555
C65_6 H66_6 1_555 1_555
H68_6 C65_6 1_555 1_555
C67_6 C63_6 1_555 1_555
H70_6 C67_6 1_555 1_555
H72_6 C67_6 1_555 1_555
C69_6 C63_6 1_555 1_555
H74_6 C69_6 1_555 1_555
C71_6 C63_6 1_555 1_555
H78_6 C71_6 1_555 1_555
H80_6 C71_6 1_555 1_555
C73_6 N10_6 1_555 1_555
C75_6 C73_6 1_555 1_555
C77_6 O22_6 1_555 1_555
C79_6 C77_6 1_555 1_555
H82_6 C79_6 1_555 1_555
C81_6 C79_6 1_555 1_555
H84_6 C81_6 1_555 1_555
C83_6 C81_6 1_555 1_555
H86_6 C83_6 1_555 1_555
C85_6 C75_6 1_555 1_555
H88_6 C85_6 1_555 1_555
C87_6 N10_6 1_555 1_555
H90_6 C87_6 1_555 1_555
H92_6 C87_6 1_555 1_555
C89_6 C87_6 1_555 1_555
C91_6 C89_6 1_555 1_555
H94_6 C91_6 1_555 1_555
C93_6 C91_6 1_555 1_555
H96_6 C93_6 1_555 1_555
C99_6 C89_6 1_555 1_555
H102_6 C99_6 1_555 1_555
H138_6 C147_6 1_555 1_555
C149_6 C147_6 1_555 1_555
H140_6 C149_6 1_555 1_555
C151_6 C149_6 1_555 1_555
H142_6 C151_6 1_555 1_555
C153_6 C151_6 1_555 1_555
H144_6 C153_6 1_555 1_555
C157_6 N16_6 1_555 1_555
C159_6 C157_6 1_555 1_555
C161_6 O28_6 1_555 1_555
C163_6 C161_6 1_555 1_555
H148_6 C163_6 1_555 1_555
C165_6 C163_6 1_555 1_555
H150_6 C165_6 1_555 1_555
C169_6 C159_6 1_555 1_555
N18_6 O46_6 1_555 1_555
N20_6 O52_6 1_555 1_555
N22_6 O58_6 1_555 1_555
O42_6 C157_6 1_555 1_555
C75_6 C77_6 1_555 1_555
C83_6 C85_6 1_555 1_555
C153_6 C155_6 1_555 1_555
C159_6 C161_6 1_555 1_555
H28_6 C27_6 1_555 1_555
H29_6 C27_6 1_555 1_555
C28_6 C27_6 1_555 1_555
C29_6 C28_6 1_555 1_555
H30_6 C29_6 1_555 1_555
C33_6 C28_6 1_555 1_555
H36_6 C38_6 1_555 1_555
C59_6 C58_6 1_555 1_555
H54_6 C59_6 1_555 1_555
C60_6 C59_6 1_555 1_555
H55_6 C60_6 1_555 1_555
H56_6 C61_6 1_555 1_555
C60_6 C61_6 1_555 1_555
N2_6 H2_6 1_555 1_555
N8_6 O18_6 1_555 1_555
O33_2 C20_6 1_555 1_555
O20_6 N8_6 1_555 1_555
H21_6 C17_6 1_555 1_555
C18_6 C17_6 1_555 1_555
H22_6 C18_6 1_555 1_555
C20_6 N2_6 1_555 1_555
C21_6 C20_6 1_555 1_555
C22_6 O2_6 1_555 1_555
C23_6 C22_6 1_555 1_555
H24_6 C23_6 1_555 1_555
C24_6 C23_6 1_555 1_555
H25_6 C24_6 1_555 1_555
C25_6 C24_6 1_555 1_555
H26_6 C25_6 1_555 1_555
C26_6 C21_6 1_555 1_555
H27_6 C26_6 1_555 1_555
H50_6 C55_6 1_555 1_555
H51_6 C55_6 1_555 1_555
C56_6 C55_6 1_555 1_555
C57_6 C56_6 1_555 1_555
H52_6 C57_6 1_555 1_555
H151_6 C166_6 1_555 1_555
C21_6 C22_6 1_555 1_555
C25_6 C26_6 1_555 1_555
N3_6 H3_6 1_555 1_555
O38_3 C34_6 1_555 1_555
H31_6 C30_6 1_555 1_555
C31_6 C30_6 1_555 1_555
H32_6 C31_6 1_555 1_555
C32_6 C31_6 1_555 1_555
H33_6 C32_6 1_555 1_555
C34_6 N3_6 1_555 1_555
C35_6 C34_6 1_555 1_555
C36_6 O3_6 1_555 1_555
C37_6 C36_6 1_555 1_555
H37_6 C39_6 1_555 1_555
C40_6 C35_6 1_555 1_555
H38_6 C40_6 1_555 1_555
C41_6 N3_6 1_555 1_555
H39_6 C41_6 1_555 1_555
H40_6 C41_6 1_555 1_555
C42_6 C41_6 1_555 1_555
H112_6 C115_6 1_555 1_555
H114_6 C115_6 1_555 1_555
C117_6 C115_6 1_555 1_555
C119_6 C117_6 1_555 1_555
H116_6 C119_6 1_555 1_555
C127_6 C117_6 1_555 1_555
H128_6 C137_6 1_555 1_555
C179_6 C177_6 1_555 1_555
H164_6 C179_6 1_555 1_555
C181_6 C179_6 1_555 1_555
H166_6 C181_6 1_555 1_555
H168_6 C183_6 1_555 1_555
C35_6 C36_6 1_555 1_555
C39_6 C40_6 1_555 1_555
C181_6 C183_6 1_555 1_555
Eu8_4 O5_6 1_555 1_555
N1_6 H1_6 1_555 1_555
N4_6 H4_6 1_555 1_555
N5_6 O9_6 1_555 1_555
N6_6 O12_6 1_555 1_555
N7_6 O15_6 1_555 1_555
O1_6 C2_6 1_555 1_555
O4_6 C5_6 1_555 1_555
O5_6 C6_6 1_555 1_555
O8_6 C48_6 1_555 1_555
O9_6 Eu8_4 1_555 1_555
O10_6 Eu8_4 1_555 1_555
O11_6 N5_6 1_555 1_555
O12_6 Eu8_4 1_555 1_555
O13_6 Eu8_4 1_555 1_555
O14_6 N6_6 1_555 1_555
O15_6 Eu8_4 1_555 1_555
O16_6 Eu8_4 1_555 1_555
O17_6 N7_6 1_555 1_555
C1_6 C2_6 1_555 1_555
C2_6 H5_6 1_555 1_555
H6_6 C2_6 1_555 1_555
C3_6 C1_6 1_555 1_555
H7_6 C3_6 1_555 1_555
H8_6 C3_6 1_555 1_555
C4_6 C1_6 1_555 1_555
H9_6 C4_6 1_555 1_555
C5_6 C1_6 1_555 1_555
H11_6 C5_6 1_555 1_555
H12_6 C5_6 1_555 1_555
C6_6 N1_6 1_555 1_555
C7_6 C6_6 1_555 1_555
C8_6 O1_6 1_555 1_555
C9_6 C8_6 1_555 1_555
H13_6 C9_6 1_555 1_555
C10_6 C9_6 1_555 1_555
H14_6 C10_6 1_555 1_555
C11_6 C10_6 1_555 1_555
H15_6 C11_6 1_555 1_555
C12_6 C7_6 1_555 1_555
H16_6 C12_6 1_555 1_555
C13_6 N1_6 1_555 1_555
H17_6 C13_6 1_555 1_555
H18_6 C13_6 1_555 1_555
C14_6 C13_6 1_555 1_555
C15_6 C14_6 1_555 1_555
H19_6 C15_6 1_555 1_555
C16_6 C15_6 1_555 1_555
H20_6 C16_6 1_555 1_555
C19_6 C14_6 1_555 1_555
H23_6 C19_6 1_555 1_555
H41_6 C43_6 1_555 1_555
C44_6 C43_6 1_555 1_555
H42_6 C44_6 1_555 1_555
C45_6 C44_6 1_555 1_555
H43_6 C45_6 1_555 1_555
C46_6 C45_6 1_555 1_555
H44_6 C46_6 1_555 1_555
C48_6 N4_6 1_555 1_555
C49_6 C48_6 1_555 1_555
C50_6 O4_6 1_555 1_555
C51_6 C50_6 1_555 1_555
H46_6 C51_6 1_555 1_555
C52_6 C51_6 1_555 1_555
H47_6 C52_6 1_555 1_555
C53_6 C52_6 1_555 1_555
H48_6 C53_6 1_555 1_555
C54_6 C49_6 1_555 1_555
H49_6 C54_6 1_555 1_555
N12_6 H60_6 1_555 1_555
N24_6 O62_6 1_555 1_555
O35_2 C101_6 1_555 1_555
O66_6 N24_6 1_555 1_555
H98_6 C95_6 1_555 1_555
C97_6 C95_6 1_555 1_555
H100_6 C97_6 1_555 1_555
C101_6 N12_6 1_555 1_555
C103_6 C101_6 1_555 1_555
C105_6 O24_6 1_555 1_555
C107_6 C105_6 1_555 1_555
H104_6 C107_6 1_555 1_555
C109_6 C107_6 1_555 1_555
H106_6 C109_6 1_555 1_555
C111_6 C109_6 1_555 1_555
H108_6 C111_6 1_555 1_555
C113_6 C103_6 1_555 1_555
H110_6 C113_6 1_555 1_555
H156_6 C171_6 1_555 1_555
H158_6 C171_6 1_555 1_555
C173_6 C171_6 1_555 1_555
C175_6 C173_6 1_555 1_555
H160_6 C175_6 1_555 1_555
N5_6 O10_6 1_555 1_555
N6_6 O13_6 1_555 1_555
N7_6 O16_6 1_555 1_555
C7_6 C8_6 1_555 1_555
C11_6 C12_6 1_555 1_555
C46_6 C47_6 1_555 1_555
C49_6 C50_6 1_555 1_555
C53_6 C54_6 1_555 1_555
N24_6 O64_6 1_555 1_555
C103_6 C105_6 1_555 1_555
C111_6 C113_6 1_555 1_555
O8_6 Eu2_9 1_555 1_555
O62_6 Eu2_9 1_555 1_555
O64_6 Eu2_9 1_555 1_555
O41_6 Eu2_10 1_555 1_555
O61_6 Eu2_10 1_555 1_555
O19_6 Eu2_10 1_555 1_555

#END
