
###############################################################################
#
# This file contains modified crystal structure data generated from the
# MOF subset of the Cambridge Structural Database (CSD) v543 
# hosted by the Cambridge Crystallographic Data Centre (CCDC).
#
# This work is licensed under the Creative Commons
# Attribution-NonCommercial-ShareAlike 4.0 International License.
# To view a copy of this license, visit
# http://creativecommons.org/licenses/by-nc-sa/4.0/
# or send a letter to
# Creative Commons, PO Box 1866, Mountain View, CA 94042, USA.
#
# CIF created using the CSD Python API on 29 September 2022
# The structure has been converted into the P1 space group
# The structure has a 3D framework
# The original CSD entry LOQSOA is in the rhombohedral crystal system
# The framework has been calculated to contain at least 10.0% void space
# The void calculation uses a probe of radius 1.32A, grid spacing 0.4
#
###############################################################################

data_LOQSOA
_chemical_formula_moiety         '(C1098 H1008 N144 O360 Tb28)n'
_symmetry_cell_setting           triclinic
_symmetry_space_group_name_H-M   'P 1'
_symmetry_Int_Tables_number      1
_space_group_name_Hall           'P 1'
loop_
_symmetry_equiv_pos_site_id
_symmetry_equiv_pos_as_xyz
1 x,y,z
_cell_length_a                   39.560(2)
_cell_length_b                   39.560(2)
_cell_length_c                   24.2198(14)
_cell_angle_alpha                90
_cell_angle_beta                 90
_cell_angle_gamma                120
_cell_volume                     32825.7
loop_
_atom_site_label
_atom_site_type_symbol
_atom_site_fract_x
_atom_site_fract_y
_atom_site_fract_z
H114 H 0.0011 0.4219 0.8387
H122 H 0.0064 0.3159 0.8354
H124 H 0.0078 0.3729 0.8143
H36 H 0.6439 0.4739 0.0019
C39 C 0.6879(2) 0.52566(19) 0.0284(3)
H37 H 0.6787 0.5242 0.0642
C40 C 0.7241(2) 0.5554(2) 0.0145(3)
H38 H 0.7418 0.5698 0.0422
Tb6 Tb 0.817207(13) 0.682711(10) 0.03452(2)
Tb8 Tb 0.317289(10) 0.134496(9) 0.03452(2)
Tb10 Tb 0.865504(9) 0.182793(13) 0.03452(2)
H127 H 0.5261 0.1700 0.0019
H128 H 0.8300 0.3561 0.0019
C138 C 0.47434(19) 0.16224(28) 0.0284(3)
C139 C 0.83776(28) 0.3121(2) 0.0284(3)
H129 H 0.4758 0.1545 0.0642
H130 H 0.8455 0.3213 0.0642
C140 C 0.4446(2) 0.1687(3) 0.0145(3)
C141 C 0.8313(3) 0.2759(2) 0.0145(3)
H131 H 0.4302 0.1720 0.0422
H132 H 0.8280 0.2582 0.0422
Tb1 Tb 0.865504(9) 0.682711(10) 0.53452(2)
Tb2 Tb 0.6667 0.3333 0.63674(3)
N1 N 0.7520(3) 0.6040(3) 0.6089(5)
H1 H 0.7318 0.5936 0.6300
N2 N 0.6011(2) 0.5500(2) 0.7998(4)
H2 H 0.6229 0.5617 0.7821
N3 N 0.7949(2) 0.5930(2) 0.9070(3)
H3 H 0.7903 0.5713 0.8924
N4 N 0.6878(3) 0.4171(3) 0.7679(5)
H4 H 0.7014 0.4331 0.7937
N5 N 0.8890(2) 0.7415(2) 0.6174(3)
N6 N 0.9282(2) 0.7272(2) 0.4650(3)
N7 N 0.89981(18) 0.6424(2) 0.5854(3)
N8 N 0.6209(2) 0.35542(19) 0.5752(3)
O1 O 0.7369(2) 0.6024(2) 0.7192(3)
O2 O 0.64223(17) 0.51863(19) 0.7408(3)
O3 O 0.7200(2) 0.5451(2) 0.8668(3)
O4 O 0.7350(2) 0.49933(19) 0.7487(3)
O5 O 0.80721(18) 0.65528(18) 0.5839(3)
O6 O 0.53712(16) 0.49864(17) 0.8105(3)
O7 O 0.79333(19) 0.62677(19) 0.9806(3)
O8 O 0.69494(16) 0.38711(15) 0.6963(3)
O9 O 0.89740(19) 0.71515(18) 0.6233(3)
O10 O 0.86878(18) 0.74110(19) 0.5779(3)
O11 O 0.8937(3) 0.7644(2) 0.6566(3)
O12 O 0.90140(18) 0.69474(18) 0.4491(3)
O13 O 0.9260(2) 0.7412(2) 0.5099(3)
O14 O 0.96003(19) 0.7423(3) 0.4383(4)
O15 O 0.91685(19) 0.6652(2) 0.5455(3)
O16 O 0.86491(14) 0.63319(19) 0.5967(3)
O17 O 0.91176(19) 0.6203(2) 0.6027(4)
O18 O 0.63876(19) 0.37459(17) 0.6169(3)
O19 O 0.6201(2) 0.32436(17) 0.5643(3)
O20 O 0.6070(2) 0.3690(2) 0.5416(4)
C1 C 0.70807(19) 0.5406(2) 0.7694(4)
C2 C 0.7142(2) 0.5822(2) 0.7728(4)
H5 H 0.7292 0.5957 0.8053
H6 H 0.6894 0.5815 0.7740
C3 C 0.6797(2) 0.5204(2) 0.7223(4)
H7 H 0.6757 0.4944 0.7164
H8 H 0.6893 0.5353 0.6884
C4 C 0.6935(3) 0.5203(3) 0.8200(4)
H9 H 0.6929 0.4955 0.8187
H10 H 0.6671 0.5152 0.8262
C5 C 0.7456(3) 0.5424(3) 0.7589(5)
H11 H 0.7628 0.5532 0.7906
H12 H 0.7584 0.5584 0.7269
C6 C 0.7797(3) 0.6381(3) 0.6166(5)
C7 C 0.7763(3) 0.6591(2) 0.6698(4)
C8 C 0.7534(2) 0.6431(2) 0.7177(3)
C9 C 0.7525(3) 0.6648(2) 0.7609(4)
H13 H 0.7420 0.6531 0.7947
C10 C 0.7678(3) 0.7053(2) 0.7536(4)
H14 H 0.7617 0.7200 0.7775
C11 C 0.7922(3) 0.7218(3) 0.7092(4)
H15 H 0.8066 0.7489 0.7068
C12 C 0.7964(3) 0.7001(2) 0.6679(4)
H16 H 0.8128 0.7129 0.6382
C13 C 0.7559(4) 0.5848(3) 0.5657(6)
H17 H 0.7816 0.5875 0.5671
H18 H 0.7542 0.5969 0.5318
C14 C 0.72541(11) 0.54141(14) 0.56395(15)
C15 C 0.73214(11) 0.51396(16) 0.59067(14)
H19 H 0.7553 0.5218 0.6099
C16 C 0.70404(15) 0.47538(18) 0.5880(2)
H20 H 0.7083 0.4569 0.6055
C17 C 0.67018(19) 0.4634(2) 0.5604(3)
H21 H 0.6515 0.4371 0.5599
C18 C 0.6630(2) 0.4899(2) 0.5331(3)
H22 H 0.6402 0.4817 0.5131
C19 C 0.69065(19) 0.5287(2) 0.5364(3)
H23 H 0.6858 0.5470 0.5195
C20 C 0.5716(2) 0.5141(3) 0.7843(5)
C21 C 0.5751(2) 0.4921(2) 0.7344(4)
C22 C 0.6087(2) 0.4942(2) 0.7111(4)
C23 C 0.6103(2) 0.4752(3) 0.6644(4)
H24 H 0.6337 0.4777 0.6517
C24 C 0.5748(2) 0.4519(2) 0.6370(5)
H25 H 0.5745 0.4406 0.6032
C25 C 0.5408(3) 0.4457(2) 0.6596(4)
H26 H 0.5171 0.4274 0.6438
C26 C 0.5408(2) 0.4659(3) 0.7051(4)
H27 H 0.5170 0.4624 0.7176
C27 C 0.5938(2) 0.5675(3) 0.8479(4)
H28 H 0.5813 0.5486 0.8774
H29 H 0.5781 0.5792 0.8387
C28 C 0.63470(15) 0.59781(10) 0.86276(15)
C29 C 0.66068(18) 0.59603(10) 0.89903(14)
H30 H 0.6551 0.5725 0.9153
C30 C 0.69520(19) 0.62978(14) 0.9106(2)
H31 H 0.7128 0.6288 0.9351
C31 C 0.70401(19) 0.6647(2) 0.8867(3)
H32 H 0.7276 0.6870 0.8948
C32 C 0.67837(19) 0.6668(2) 0.8512(3)
H33 H 0.6841 0.6905 0.8354
C33 C 0.64442(19) 0.63367(19) 0.8391(3)
H34 H 0.6271 0.6349 0.8143
C34 C 0.7733(2) 0.5956(3) 0.9485(4)
C35 C 0.7348(2) 0.56434(18) 0.9591(3)
C36 C 0.7084(2) 0.53803(18) 0.9200(3)
C37 C 0.6731(2) 0.50714(19) 0.9350(3)
H35 H 0.6548 0.4923 0.9081
C38 C 0.6646(3) 0.49794(19) 0.9907(3)
C41 C 0.8272(3) 0.6311(2) 0.8897(4)
H39 H 0.8180 0.6495 0.8848
H40 H 0.8476 0.6414 0.9175
C42 C 0.84293(12) 0.62573(8) 0.8365(2)
C43 C 0.83573(13) 0.64224(7) 0.7900(3)
H41 H 0.8202 0.6537 0.7930
C44 C 0.85146(16) 0.64142(11) 0.7405(3)
H42 H 0.8466 0.6526 0.7100
C45 C 0.8742(2) 0.6248(2) 0.7341(3)
H43 H 0.8843 0.6244 0.6996
C46 C 0.8822(2) 0.6085(2) 0.7794(3)
H44 H 0.8980 0.5974 0.7759
C47 C 0.86622(19) 0.60902(19) 0.8295(3)
H45 H 0.8713 0.5978 0.8598
C48 C 0.7025(3) 0.4135(3) 0.7252(5)
C49 C 0.74612(14) 0.45216(16) 0.71186(14)
C50 C 0.76253(14) 0.49264(16) 0.72429(13)
C51 C 0.80060(17) 0.5226(2) 0.71538(18)
H46 H 0.8081 0.5482 0.7251
C52 C 0.8274(2) 0.5137(2) 0.6915(3)
H47 H 0.8531 0.5329 0.6853
C53 C 0.8141(2) 0.4754(2) 0.6776(3)
H48 H 0.8311 0.4687 0.6608
C54 C 0.7760(2) 0.4466(3) 0.6880(3)
H49 H 0.7692 0.4212 0.6786
C55 C 0.6487(4) 0.3940(4) 0.7711(7)
H50 H 0.6432 0.3673 0.7738
H51 H 0.6379 0.3963 0.7363
C56 C 0.62781(13) 0.39951(10) 0.8131(3)
C57 C 0.60356(13) 0.41496(9) 0.8014(3)
H52 H 0.5998 0.4202 0.7652
C58 C 0.58548(16) 0.42213(13) 0.8441(3)
H53 H 0.5694 0.4324 0.8364
C59 C 0.5904(2) 0.4146(2) 0.8986(3)
H54 H 0.5778 0.4198 0.9270
C60 C 0.6142(2) 0.3993(2) 0.9100(3)
H55 H 0.6178 0.3939 0.9462
C61 C 0.6323(2) 0.3923(2) 0.8679(3)
H56 H 0.6484 0.3822 0.8760
Tb3 Tb 0.317289(10) 0.182793(13) 0.53452(2)
Tb4 Tb 0.817207(13) 0.134496(9) 0.53452(2)
Tb5 Tb 0.483874(13) 0.467829(9) 0.86785(2)
Tb7 Tb 0.532171(9) 0.016044(10) 0.86785(2)
Tb9 Tb 0.983956(10) 0.516126(13) 0.86785(2)
N9 N 0.3960(3) 0.1480(4) 0.6089(5)
N10 N 0.8520(4) 0.2480(3) 0.6089(5)
H57 H 0.4064 0.1382 0.6300
H58 H 0.8618 0.2682 0.6300
N11 N 0.4500(2) 0.0511(3) 0.7998(4)
N12 N 0.9489(3) 0.3989(2) 0.7998(4)
H59 H 0.4383 0.0612 0.7821
H60 H 0.9388 0.3771 0.7821
N13 N 0.4070(2) 0.2019(3) 0.9070(3)
N14 N 0.7981(3) 0.2051(2) 0.9070(3)
H61 H 0.4287 0.2190 0.8924
H62 H 0.7810 0.2097 0.8924
N15 N 0.5829(3) 0.2707(4) 0.7679(5)
N16 N 0.7293(4) 0.3122(3) 0.7679(5)
H63 H 0.5669 0.2683 0.7937
H64 H 0.7317 0.2986 0.7937
N17 N 0.2585(2) 0.1475(3) 0.6174(3)
N18 N 0.8525(3) 0.1110(2) 0.6174(3)
N19 N 0.2728(2) 0.2010(3) 0.4650(3)
N20 N 0.7990(3) 0.0718(2) 0.4650(3)
N21 N 0.3576(2) 0.25741(27) 0.5854(3)
N22 N 0.74259(27) 0.10019(18) 0.5854(3)
N23 N 0.64458(19) 0.26548(28) 0.5752(3)
N24 N 0.73452(28) 0.3791(2) 0.5752(3)
O21 O 0.3976(2) 0.1345(3) 0.7192(3)
O22 O 0.8655(3) 0.2631(2) 0.7192(3)
O23 O 0.48137(19) 0.12360(25) 0.7408(3)
O24 O 0.87640(25) 0.35777(17) 0.7408(3)
O25 O 0.4549(2) 0.1749(3) 0.8668(3)
O26 O 0.8251(3) 0.2800(2) 0.8668(3)
O27 O 0.50067(19) 0.23567(28) 0.7487(3)
O28 O 0.76433(28) 0.2650(2) 0.7487(3)
O29 O 0.34472(18) 0.15193(25) 0.5839(3)
O30 O 0.84807(25) 0.19279(18) 0.5839(3)
O31 O 0.50136(17) 0.03848(23) 0.8105(3)
O32 O 0.96152(23) 0.46288(16) 0.8105(3)
O33 O 0.83469(17) 0.70515(23) 0.4772(3)
O34 O 0.29485(23) 0.12955(16) 0.4772(3)
O35 O 0.87045(16) 0.16531(17) 0.4772(3)
O36 O 0.37323(19) 0.16656(27) 0.9806(3)
O37 O 0.83344(27) 0.20667(19) 0.9806(3)
O38 O 0.83344(27) 0.62677(19) 0.4806(3)
O39 O 0.37323(19) 0.20667(19) 0.4806(3)
O40 O 0.79333(19) 0.16656(27) 0.4806(3)
O41 O 0.61289(15) 0.30783(22) 0.6963(3)
O42 O 0.69217(22) 0.30506(16) 0.6963(3)
O43 O 0.28485(18) 0.18225(26) 0.6233(3)
O44 O 0.81775(26) 0.10260(19) 0.6233(3)
O45 O 0.25890(19) 0.12768(26) 0.5779(3)
O46 O 0.87232(26) 0.13122(18) 0.5779(3)
O47 O 0.2356(2) 0.1293(4) 0.6566(3)
O48 O 0.8707(4) 0.1063(3) 0.6566(3)
O49 O 0.30526(18) 0.20666(25) 0.4491(3)
O50 O 0.79334(25) 0.09860(18) 0.4491(3)
O51 O 0.2588(2) 0.1848(3) 0.5099(3)
O52 O 0.8152(3) 0.0740(2) 0.5099(3)
O53 O 0.2577(3) 0.21773(36) 0.4383(4)
O54 O 0.78227(36) 0.03997(19) 0.4383(4)
O55 O 0.3348(2) 0.25165(28) 0.5455(3)
O56 O 0.74835(28) 0.08315(19) 0.5455(3)
O57 O 0.36681(19) 0.23172(24) 0.5967(3)
O58 O 0.76828(24) 0.13509(14) 0.5967(3)
O59 O 0.3797(2) 0.29146(28) 0.6027(4)
O60 O 0.70854(28) 0.08824(19) 0.6027(4)
O61 O 0.62541(17) 0.26417(25) 0.6169(3)
O62 O 0.73583(25) 0.36124(19) 0.6169(3)
O63 O 0.67564(17) 0.29574(26) 0.5643(3)
O64 O 0.70426(26) 0.3799(2) 0.5643(3)
O65 O 0.7620(3) 0.3930(2) 0.5416(4)
O66 O 0.6310(2) 0.2380(3) 0.5416(4)
C62 C 0.4594(2) 0.16747(28) 0.7694(4)
C63 C 0.83253(28) 0.29193(19) 0.7694(4)
C64 C 0.4178(2) 0.1320(3) 0.7728(4)
C65 C 0.8680(3) 0.2858(2) 0.7728(4)
H65 H 0.4043 0.1335 0.8053
H66 H 0.8665 0.2708 0.8053
H67 H 0.4185 0.1079 0.7740
H68 H 0.8921 0.3106 0.7740
C66 C 0.4796(2) 0.1593(3) 0.7223(4)
C67 C 0.8407(3) 0.3203(2) 0.7223(4)
H69 H 0.5056 0.1813 0.7164
H70 H 0.8187 0.3243 0.7164
H71 H 0.4647 0.1540 0.6884
H72 H 0.8460 0.3107 0.6884
C68 C 0.4797(3) 0.1732(4) 0.8200(4)
C69 C 0.8268(4) 0.3065(3) 0.8200(4)
H73 H 0.5045 0.1974 0.8187
H74 H 0.8026 0.3071 0.8187
H75 H 0.4848 0.1519 0.8262
H76 H 0.8481 0.3329 0.8262
C70 C 0.4576(3) 0.2032(4) 0.7589(5)
C71 C 0.7968(4) 0.2544(3) 0.7589(5)
H77 H 0.4468 0.2096 0.7906
H78 H 0.7904 0.2372 0.7906
H79 H 0.4416 0.2000 0.7269
H80 H 0.8000 0.2416 0.7269
C72 C 0.3619(3) 0.1416(4) 0.6166(5)
C73 C 0.8584(4) 0.2203(3) 0.6166(5)
C74 C 0.3409(2) 0.1172(4) 0.6698(4)
C75 C 0.8828(4) 0.2237(3) 0.6698(4)
C76 C 0.3569(2) 0.1103(3) 0.7177(3)
C77 C 0.8897(3) 0.2466(2) 0.7177(3)
C78 C 0.3352(2) 0.0877(4) 0.7609(4)
C79 C 0.9123(4) 0.2475(3) 0.7609(4)
H81 H 0.3469 0.0889 0.7947
H82 H 0.9111 0.2580 0.7947
C80 C 0.2947(2) 0.0625(4) 0.7536(4)
C81 C 0.9375(4) 0.2322(3) 0.7536(4)
H83 H 0.2800 0.0417 0.7775
H84 H 0.9583 0.2383 0.7775
C82 C 0.2782(3) 0.0704(4) 0.7092(4)
C83 C 0.9296(4) 0.2078(3) 0.7092(4)
H85 H 0.2511 0.0577 0.7068
H86 H 0.9423 0.1934 0.7068
C84 C 0.2999(2) 0.0963(4) 0.6679(4)
C85 C 0.9037(4) 0.2036(3) 0.6679(4)
H87 H 0.2871 0.0999 0.6382
H88 H 0.9001 0.1872 0.6382
C86 C 0.4152(3) 0.1711(5) 0.5657(6)
C87 C 0.8289(5) 0.2441(4) 0.5657(6)
H89 H 0.4125 0.1941 0.5671
H90 H 0.8059 0.2184 0.5671
H91 H 0.4031 0.1573 0.5318
H92 H 0.8427 0.2458 0.5318
C88 C 0.45859(14) 0.18400(18) 0.56395(15)
C89 C 0.81600(18) 0.27459(11) 0.56395(15)
C90 C 0.48604(16) 0.21818(19) 0.59067(14)
C91 C 0.78182(19) 0.26786(11) 0.59067(14)
H93 H 0.4782 0.2335 0.6099
H94 H 0.7665 0.2447 0.6099
C92 C 0.52462(18) 0.22866(23) 0.5880(2)
C93 C 0.77134(23) 0.29596(15) 0.5880(2)
H95 H 0.5431 0.2514 0.6055
H96 H 0.7486 0.2917 0.6055
C94 C 0.5366(2) 0.20678(28) 0.5604(3)
C95 C 0.79322(28) 0.32982(19) 0.5604(3)
H97 H 0.5629 0.2144 0.5599
H98 H 0.7856 0.3485 0.5599
C96 C 0.5101(2) 0.1731(3) 0.5331(3)
C97 C 0.8269(3) 0.3370(2) 0.5331(3)
H99 H 0.5183 0.1585 0.5131
H100 H 0.8415 0.3598 0.5131
C98 C 0.4713(2) 0.16195(28) 0.5364(3)
C99 C 0.83805(28) 0.30935(19) 0.5364(3)
H101 H 0.4530 0.1388 0.5195
H102 H 0.8612 0.3142 0.5195
C100 C 0.4859(3) 0.0575(4) 0.7843(5)
C101 C 0.9425(4) 0.4284(2) 0.7843(5)
C102 C 0.5079(2) 0.0830(3) 0.7344(4)
C103 C 0.9170(3) 0.4249(2) 0.7344(4)
C104 C 0.5058(2) 0.1145(3) 0.7111(4)
C105 C 0.8855(3) 0.3913(2) 0.7111(4)
C106 C 0.5248(3) 0.1351(4) 0.6644(4)
C107 C 0.8649(4) 0.3897(2) 0.6644(4)
H103 H 0.5223 0.1560 0.6517
H104 H 0.8440 0.3663 0.6517
C108 C 0.5481(2) 0.1229(3) 0.6370(5)
C109 C 0.8771(3) 0.4252(2) 0.6370(5)
H105 H 0.5594 0.1339 0.6032
H106 H 0.8661 0.4255 0.6032
C110 C 0.5543(2) 0.0951(4) 0.6596(4)
C111 C 0.9049(4) 0.4592(3) 0.6596(4)
H107 H 0.5726 0.0897 0.6438
H108 H 0.9103 0.4829 0.6438
C112 C 0.5341(3) 0.0749(4) 0.7051(4)
C113 C 0.9251(4) 0.4592(2) 0.7051(4)
H109 H 0.5376 0.0546 0.7176
H110 H 0.9454 0.4830 0.7176
C114 C 0.4325(3) 0.0263(4) 0.8479(4)
C115 C 0.9737(4) 0.4062(2) 0.8479(4)
H111 H 0.4514 0.0327 0.8774
H112 H 0.9673 0.4187 0.8774
C116 C 0.40219(10) 0.03689(18) 0.86276(15)
C117 C 0.96311(18) 0.36530(15) 0.86276(15)
C118 C 0.40397(10) 0.06465(21) 0.89903(14)
C119 C 0.93535(21) 0.33932(18) 0.89903(14)
H115 H 0.4275 0.0826 0.9153
H116 H 0.9174 0.3449 0.9153
C120 C 0.37022(14) 0.06542(24) 0.9106(2)
C121 C 0.93458(24) 0.30480(19) 0.9106(2)
H117 H 0.3712 0.0840 0.9351
H118 H 0.9160 0.2872 0.9351
C122 C 0.3353(2) 0.03931(28) 0.8867(3)
C123 C 0.96069(28) 0.29599(19) 0.8867(3)
H119 H 0.3130 0.0406 0.8948
H120 H 0.9594 0.2724 0.8948
C124 C 0.3332(2) 0.01157(28) 0.8512(3)
C125 C 0.98843(28) 0.32163(19) 0.8512(3)
C126 C 0.36633(19) 0.01075(27) 0.8391(3)
C127 C 0.98925(27) 0.35558(19) 0.8391(3)
C128 C 0.4044(3) 0.1777(4) 0.9485(4)
C129 C 0.8223(4) 0.2267(2) 0.9485(4)
C130 C 0.43566(18) 0.17046(27) 0.9591(3)
C131 C 0.82954(27) 0.2652(2) 0.9591(3)
C132 C 0.46197(18) 0.17037(27) 0.9200(3)
C133 C 0.82963(27) 0.2916(2) 0.9200(3)
C134 C 0.49286(19) 0.16596(28) 0.9350(3)
C135 C 0.83404(28) 0.3269(2) 0.9350(3)
H125 H 0.5077 0.1625 0.9081
H126 H 0.8375 0.3452 0.9081
C136 C 0.50206(19) 0.16666(36) 0.9907(3)
C137 C 0.83334(36) 0.3354(3) 0.9907(3)
C142 C 0.3689(2) 0.1961(4) 0.8897(4)
C143 C 0.8039(4) 0.1728(3) 0.8897(4)
H133 H 0.3505 0.1685 0.8848
H134 H 0.8315 0.1820 0.8848
H135 H 0.3586 0.2062 0.9175
H136 H 0.7938 0.1524 0.9175
C144 C 0.37427(8) 0.21720(14) 0.8365(2)
C145 C 0.78280(14) 0.15707(12) 0.8365(2)
C146 C 0.35776(7) 0.19349(15) 0.7900(3)
C147 C 0.80651(15) 0.16427(13) 0.7900(3)
H137 H 0.3463 0.1665 0.7930
H138 H 0.8335 0.1798 0.7930
C148 C 0.35858(11) 0.21004(19) 0.7405(3)
C149 C 0.78996(19) 0.14854(16) 0.7405(3)
H139 H 0.3474 0.1940 0.7100
H140 H 0.8060 0.1534 0.7100
C150 C 0.3752(2) 0.2494(3) 0.7341(3)
C151 C 0.7506(3) 0.1258(2) 0.7341(3)
H141 H 0.3756 0.2599 0.6996
H142 H 0.7401 0.1157 0.6996
C152 C 0.3915(2) 0.2737(3) 0.7794(3)
C153 C 0.7263(3) 0.1178(2) 0.7794(3)
H143 H 0.4026 0.3006 0.7759
H144 H 0.6994 0.1020 0.7759
C154 C 0.39098(19) 0.25720(27) 0.8295(3)
C155 C 0.74280(27) 0.13378(19) 0.8295(3)
H145 H 0.4022 0.2735 0.8598
H146 H 0.7265 0.1287 0.8598
C156 C 0.5865(3) 0.2890(4) 0.7252(5)
C157 C 0.7110(4) 0.2975(3) 0.7252(5)
C158 C 0.54784(16) 0.29396(21) 0.71186(14)
C159 C 0.70604(21) 0.25388(14) 0.71186(14)
C160 C 0.50736(16) 0.26989(21) 0.72429(13)
C161 C 0.73011(21) 0.23747(14) 0.72429(13)
C162 C 0.4774(2) 0.27800(26) 0.71538(18)
C163 C 0.72200(26) 0.19940(17) 0.71538(18)
H147 H 0.4518 0.2599 0.7251
H148 H 0.7401 0.1919 0.7251
C164 C 0.4863(2) 0.3137(3) 0.6915(3)
C165 C 0.6863(3) 0.1726(2) 0.6915(3)
H149 H 0.4671 0.3202 0.6853
H150 H 0.6798 0.1469 0.6853
C166 C 0.5246(2) 0.3387(3) 0.6776(3)
C167 C 0.6613(3) 0.1859(2) 0.6776(3)
H151 H 0.5313 0.3624 0.6608
H152 H 0.6376 0.1689 0.6608
C168 C 0.5534(3) 0.3294(4) 0.6880(3)
C169 C 0.6706(4) 0.2240(2) 0.6880(3)
H153 H 0.5788 0.3480 0.6786
H154 H 0.6520 0.2308 0.6786
C170 C 0.6060(4) 0.2547(6) 0.7711(7)
C171 C 0.7453(6) 0.3513(4) 0.7711(7)
H155 H 0.6327 0.2759 0.7738
H156 H 0.7241 0.3568 0.7738
H157 H 0.6037 0.2416 0.7363
H158 H 0.7584 0.3621 0.7363
C172 C 0.60049(10) 0.22830(16) 0.8131(3)
C173 C 0.77170(16) 0.37219(13) 0.8131(3)
C174 C 0.58504(9) 0.18860(16) 0.8014(3)
C175 C 0.81140(16) 0.39644(13) 0.8014(3)
H159 H 0.5798 0.1796 0.7652
H160 H 0.8204 0.4002 0.7652
C176 C 0.57787(13) 0.16335(21) 0.8441(3)
C177 C 0.83665(21) 0.41452(16) 0.8441(3)
H161 H 0.5676 0.1370 0.8364
H162 H 0.8630 0.4306 0.8364
C178 C 0.5854(2) 0.1758(3) 0.8986(3)
C179 C 0.8242(3) 0.4096(2) 0.8986(3)
H163 H 0.5802 0.1580 0.9270
H164 H 0.8420 0.4222 0.9270
C180 C 0.6007(2) 0.2149(3) 0.9100(3)
C181 C 0.7851(3) 0.3858(2) 0.9100(3)
H165 H 0.6061 0.2239 0.9462
H166 H 0.7761 0.3822 0.9462
C182 C 0.6077(2) 0.2400(3) 0.8679(3)
C183 C 0.7600(3) 0.3677(2) 0.8679(3)
H167 H 0.6178 0.2662 0.8760
H168 H 0.7338 0.3516 0.8760
Tb2_2 Tb 0.6667 0.3333 0.13674(3)
N1_2 N 0.3960(3) 0.2480(3) 0.1089(5)
H1_2 H 0.4064 0.2682 0.1300
N2_2 N 0.4500(2) 0.3989(2) 0.2998(4)
H2_2 H 0.4383 0.3771 0.2821
N3_2 N 0.4070(2) 0.2051(2) 0.4070(3)
H3_2 H 0.4287 0.2097 0.3924
N4_2 N 0.5829(3) 0.3122(3) 0.2679(5)
H4_2 H 0.5669 0.2986 0.2937
N5_2 N 0.2585(2) 0.1110(2) 0.1174(3)
N7_2 N 0.3576(2) 0.10019(18) 0.0854(3)
N8_2 N 0.64458(19) 0.3791(2) 0.0752(3)
O1_2 O 0.3976(2) 0.2631(2) 0.2192(3)
O2_2 O 0.48137(19) 0.35777(17) 0.2408(3)
O3_2 O 0.4549(2) 0.2800(2) 0.3668(3)
O4_2 O 0.50067(19) 0.2650(2) 0.2487(3)
O5_2 O 0.34472(18) 0.19279(18) 0.0839(3)
O6_2 O 0.50136(17) 0.46288(16) 0.3105(3)
O8_2 O 0.61289(15) 0.30506(16) 0.1963(3)
O9_2 O 0.28485(18) 0.10260(19) 0.1233(3)
O10_2 O 0.25890(19) 0.13122(18) 0.0779(3)
O11_2 O 0.2356(2) 0.1063(3) 0.1566(3)
O13_2 O 0.2588(2) 0.0740(2) 0.0099(3)
O15_2 O 0.3348(2) 0.08315(19) 0.0455(3)
O16_2 O 0.36681(19) 0.13509(14) 0.0967(3)
O17_2 O 0.3797(2) 0.08824(19) 0.1027(4)
O18_2 O 0.62541(17) 0.36124(19) 0.1169(3)
O19_2 O 0.67564(17) 0.3799(2) 0.0643(3)
O20_2 O 0.6310(2) 0.3930(2) 0.0416(4)
C1_2 C 0.4594(2) 0.29193(19) 0.2694(4)
C2_2 C 0.4178(2) 0.2858(2) 0.2728(4)
H5_2 H 0.4043 0.2708 0.3053
H6_2 H 0.4185 0.3106 0.2740
C3_2 C 0.4796(2) 0.3203(2) 0.2223(4)
H7_2 H 0.5056 0.3243 0.2164
H8_2 H 0.4647 0.3107 0.1884
C4_2 C 0.4797(3) 0.3065(3) 0.3200(4)
H9_2 H 0.5045 0.3071 0.3187
H10_2 H 0.4848 0.3329 0.3262
C5_2 C 0.4576(3) 0.2544(3) 0.2589(5)
H11_2 H 0.4468 0.2372 0.2906
H12_2 H 0.4416 0.2416 0.2269
C6_2 C 0.3619(3) 0.2203(3) 0.1166(5)
C7_2 C 0.3409(2) 0.2237(3) 0.1698(4)
C8_2 C 0.3569(2) 0.2466(2) 0.2177(3)
C9_2 C 0.3352(2) 0.2475(3) 0.2609(4)
H13_2 H 0.3469 0.2580 0.2947
C10_2 C 0.2947(2) 0.2322(3) 0.2536(4)
H14_2 H 0.2800 0.2383 0.2775
C11_2 C 0.2782(3) 0.2078(3) 0.2092(4)
H15_2 H 0.2511 0.1934 0.2068
C12_2 C 0.2999(2) 0.2036(3) 0.1679(4)
H16_2 H 0.2871 0.1872 0.1382
C13_2 C 0.4152(3) 0.2441(4) 0.0657(6)
H17_2 H 0.4125 0.2184 0.0671
H18_2 H 0.4031 0.2458 0.0318
C14_2 C 0.45859(14) 0.27459(11) 0.06395(15)
C15_2 C 0.48604(16) 0.26786(11) 0.09067(14)
H19_2 H 0.4782 0.2447 0.1099
C16_2 C 0.52462(18) 0.29596(15) 0.0880(2)
H20_2 H 0.5431 0.2917 0.1055
C17_2 C 0.5366(2) 0.32982(19) 0.0604(3)
H21_2 H 0.5629 0.3485 0.0599
C18_2 C 0.5101(2) 0.3370(2) 0.0331(3)
H22_2 H 0.5183 0.3598 0.0131
C19_2 C 0.4713(2) 0.30935(19) 0.0364(3)
H23_2 H 0.4530 0.3142 0.0195
C20_2 C 0.4859(3) 0.4284(2) 0.2843(5)
C21_2 C 0.5079(2) 0.4249(2) 0.2344(4)
C22_2 C 0.5058(2) 0.3913(2) 0.2111(4)
C23_2 C 0.5248(3) 0.3897(2) 0.1644(4)
H24_2 H 0.5223 0.3663 0.1517
C24_2 C 0.5481(2) 0.4252(2) 0.1370(5)
H25_2 H 0.5594 0.4255 0.1032
C25_2 C 0.5543(2) 0.4592(3) 0.1596(4)
H26_2 H 0.5726 0.4829 0.1438
C26_2 C 0.5341(3) 0.4592(2) 0.2051(4)
H27_2 H 0.5376 0.4830 0.2176
C27_2 C 0.4325(3) 0.4062(2) 0.3479(4)
H28_2 H 0.4514 0.4187 0.3774
H29_2 H 0.4208 0.4219 0.3387
C28_2 C 0.40219(10) 0.36530(15) 0.36276(15)
C29_2 C 0.40397(10) 0.33932(18) 0.39903(14)
H30_2 H 0.4275 0.3449 0.4153
C30_2 C 0.37022(14) 0.30480(19) 0.4106(2)
H31_2 H 0.3712 0.2872 0.4351
C31_2 C 0.3353(2) 0.29599(19) 0.3867(3)
H32_2 H 0.3130 0.2724 0.3948
C32_2 C 0.3332(2) 0.32163(19) 0.3512(3)
H33_2 H 0.3095 0.3159 0.3354
C33_2 C 0.36633(19) 0.35558(19) 0.3391(3)
H34_2 H 0.3651 0.3729 0.3143
C34_2 C 0.4044(3) 0.2267(2) 0.4485(4)
C35_2 C 0.43566(18) 0.2652(2) 0.4591(3)
C36_2 C 0.46197(18) 0.2916(2) 0.4200(3)
C37_2 C 0.49286(19) 0.3269(2) 0.4350(3)
H35_2 H 0.5077 0.3452 0.4081
C38_2 C 0.50206(19) 0.3354(3) 0.4907(3)
H36_2 H 0.5261 0.3561 0.5019
C39_2 C 0.47434(19) 0.3121(2) 0.5284(3)
H37_2 H 0.4758 0.3213 0.5642
C40_2 C 0.4446(2) 0.2759(2) 0.5145(3)
H38_2 H 0.4302 0.2582 0.5422
C41_2 C 0.3689(2) 0.1728(3) 0.3897(4)
H39_2 H 0.3505 0.1820 0.3848
H40_2 H 0.3586 0.1524 0.4175
C42_2 C 0.37427(8) 0.15707(12) 0.3365(2)
C43_2 C 0.35776(7) 0.16427(13) 0.2900(3)
H41_2 H 0.3463 0.1798 0.2930
C44_2 C 0.35858(11) 0.14854(16) 0.2405(3)
H42_2 H 0.3474 0.1534 0.2100
C45_2 C 0.3752(2) 0.1258(2) 0.2341(3)
H43_2 H 0.3756 0.1157 0.1996
C46_2 C 0.3915(2) 0.1178(2) 0.2794(3)
H44_2 H 0.4026 0.1020 0.2759
C47_2 C 0.39098(19) 0.13378(19) 0.3295(3)
H45_2 H 0.4022 0.1287 0.3598
C48_2 C 0.5865(3) 0.2975(3) 0.2252(5)
C49_2 C 0.54784(16) 0.25388(14) 0.21186(14)
C50_2 C 0.50736(16) 0.23747(14) 0.22429(13)
C51_2 C 0.4774(2) 0.19940(17) 0.21538(18)
H46_2 H 0.4518 0.1919 0.2251
C52_2 C 0.4863(2) 0.1726(2) 0.1915(3)
H47_2 H 0.4671 0.1469 0.1853
C53_2 C 0.5246(2) 0.1859(2) 0.1776(3)
H48_2 H 0.5313 0.1689 0.1608
C54_2 C 0.5534(3) 0.2240(2) 0.1880(3)
H49_2 H 0.5788 0.2308 0.1786
C55_2 C 0.6060(4) 0.3513(4) 0.2711(7)
H50_2 H 0.6327 0.3568 0.2738
H51_2 H 0.6037 0.3621 0.2363
C56_2 C 0.60049(10) 0.37219(13) 0.3131(3)
C57_2 C 0.58504(9) 0.39644(13) 0.3014(3)
H52_2 H 0.5798 0.4002 0.2652
C58_2 C 0.57787(13) 0.41452(16) 0.3441(3)
H53_2 H 0.5676 0.4306 0.3364
C59_2 C 0.5854(2) 0.4096(2) 0.3986(3)
H54_2 H 0.5802 0.4222 0.4270
C60_2 C 0.6007(2) 0.3858(2) 0.4100(3)
H55_2 H 0.6061 0.3822 0.4462
C61_2 C 0.6077(2) 0.3677(2) 0.3679(3)
H56_2 H 0.6178 0.3516 0.3760
Tb5_2 Tb 0.532171(9) 0.516126(13) 0.36785(2)
Tb7_2 Tb 0.983956(10) 0.467829(9) 0.36785(2)
Tb9_2 Tb 0.483874(13) 0.016044(10) 0.36785(2)
N9_2 N 0.8520(4) 0.6040(3) 0.1089(5)
N10_2 N 0.7520(3) 0.1480(4) 0.1089(5)
H57_2 H 0.8618 0.5936 0.1300
H58_2 H 0.7318 0.1382 0.1300
N11_2 N 0.9489(3) 0.5500(2) 0.2998(4)
N12_2 N 0.6011(2) 0.0511(3) 0.2998(4)
H59_2 H 0.9388 0.5617 0.2821
H60_2 H 0.6229 0.0612 0.2821
N13_2 N 0.7981(3) 0.5930(2) 0.4070(3)
N14_2 N 0.7949(2) 0.2019(3) 0.4070(3)
H61_2 H 0.7810 0.5713 0.3924
H62_2 H 0.7903 0.2190 0.3924
N15_2 N 0.7293(4) 0.4171(3) 0.2679(5)
N16_2 N 0.6878(3) 0.2707(4) 0.2679(5)
H63_2 H 0.7317 0.4331 0.2937
H64_2 H 0.7014 0.2683 0.2937
N17_2 N 0.8525(3) 0.7415(2) 0.1174(3)
N18_2 N 0.8890(2) 0.1475(3) 0.1174(3)
N21_2 N 0.74259(27) 0.6424(2) 0.0854(3)
N22_2 N 0.89981(18) 0.25741(27) 0.0854(3)
N23_2 N 0.73452(28) 0.35542(19) 0.0752(3)
N24_2 N 0.6209(2) 0.26548(28) 0.0752(3)
O21_2 O 0.8655(3) 0.6024(2) 0.2192(3)
O22_2 O 0.7369(2) 0.1345(3) 0.2192(3)
O23_2 O 0.87640(25) 0.51863(19) 0.2408(3)
O24_2 O 0.64223(17) 0.12360(25) 0.2408(3)
O25_2 O 0.8251(3) 0.5451(2) 0.3668(3)
O26_2 O 0.7200(2) 0.1749(3) 0.3668(3)
O27_2 O 0.76433(28) 0.49933(19) 0.2487(3)
O28_2 O 0.7350(2) 0.23567(28) 0.2487(3)
O29_2 O 0.84807(25) 0.65528(18) 0.0839(3)
O30_2 O 0.80721(18) 0.15193(25) 0.0839(3)
O31_2 O 0.96152(23) 0.49864(17) 0.3105(3)
O32_2 O 0.53712(16) 0.03848(23) 0.3105(3)
O41_2 O 0.69217(22) 0.38711(15) 0.1963(3)
O42_2 O 0.69494(16) 0.30783(22) 0.1963(3)
O43_2 O 0.81775(26) 0.71515(18) 0.1233(3)
O44_2 O 0.89740(19) 0.18225(26) 0.1233(3)
O45_2 O 0.87232(26) 0.74110(19) 0.0779(3)
O46_2 O 0.86878(18) 0.12768(26) 0.0779(3)
O47_2 O 0.8707(4) 0.7644(2) 0.1566(3)
O48_2 O 0.8937(3) 0.1293(4) 0.1566(3)
O51_2 O 0.8152(3) 0.7412(2) 0.0099(3)
O52_2 O 0.9260(2) 0.1848(3) 0.0099(3)
O55_2 O 0.74835(28) 0.6652(2) 0.0455(3)
O56_2 O 0.91685(19) 0.25165(28) 0.0455(3)
O57_2 O 0.76828(24) 0.63319(19) 0.0967(3)
O58_2 O 0.86491(14) 0.23172(24) 0.0967(3)
O59_2 O 0.70854(28) 0.6203(2) 0.1027(4)
O60_2 O 0.91176(19) 0.29146(28) 0.1027(4)
O61_2 O 0.73583(25) 0.37459(17) 0.1169(3)
O62_2 O 0.63876(19) 0.26417(25) 0.1169(3)
O63_2 O 0.70426(26) 0.32436(17) 0.0643(3)
O64_2 O 0.6201(2) 0.29574(26) 0.0643(3)
O65_2 O 0.6070(2) 0.2380(3) 0.0416(4)
O66_2 O 0.7620(3) 0.3690(2) 0.0416(4)
C62_2 C 0.83253(28) 0.5406(2) 0.2694(4)
C63_2 C 0.70807(19) 0.16747(28) 0.2694(4)
C64_2 C 0.8680(3) 0.5822(2) 0.2728(4)
C65_2 C 0.7142(2) 0.1320(3) 0.2728(4)
H65_2 H 0.8665 0.5957 0.3053
H66_2 H 0.7292 0.1335 0.3053
H67_2 H 0.8921 0.5815 0.2740
H68_2 H 0.6894 0.1079 0.2740
C66_2 C 0.8407(3) 0.5204(2) 0.2223(4)
C67_2 C 0.6797(2) 0.1593(3) 0.2223(4)
H69_2 H 0.8187 0.4944 0.2164
H70_2 H 0.6757 0.1813 0.2164
H71_2 H 0.8460 0.5353 0.1884
H72_2 H 0.6893 0.1540 0.1884
C68_2 C 0.8268(4) 0.5203(3) 0.3200(4)
C69_2 C 0.6935(3) 0.1732(4) 0.3200(4)
H73_2 H 0.8026 0.4955 0.3187
H74_2 H 0.6929 0.1974 0.3187
H75_2 H 0.8481 0.5152 0.3262
H76_2 H 0.6671 0.1519 0.3262
C70_2 C 0.7968(4) 0.5424(3) 0.2589(5)
C71_2 C 0.7456(3) 0.2032(4) 0.2589(5)
H77_2 H 0.7904 0.5532 0.2906
H78_2 H 0.7628 0.2096 0.2906
H79_2 H 0.8000 0.5584 0.2269
H80_2 H 0.7584 0.2000 0.2269
C72_2 C 0.8584(4) 0.6381(3) 0.1166(5)
C73_2 C 0.7797(3) 0.1416(4) 0.1166(5)
C74_2 C 0.8828(4) 0.6591(2) 0.1698(4)
C75_2 C 0.7763(3) 0.1172(4) 0.1698(4)
C76_2 C 0.8897(3) 0.6431(2) 0.2177(3)
C77_2 C 0.7534(2) 0.1103(3) 0.2177(3)
C78_2 C 0.9123(4) 0.6648(2) 0.2609(4)
C79_2 C 0.7525(3) 0.0877(4) 0.2609(4)
H81_2 H 0.9111 0.6531 0.2947
H82_2 H 0.7420 0.0889 0.2947
C80_2 C 0.9375(4) 0.7053(2) 0.2536(4)
C81_2 C 0.7678(3) 0.0625(4) 0.2536(4)
H83_2 H 0.9583 0.7200 0.2775
H84_2 H 0.7617 0.0417 0.2775
C82_2 C 0.9296(4) 0.7218(3) 0.2092(4)
C83_2 C 0.7922(3) 0.0704(4) 0.2092(4)
H85_2 H 0.9423 0.7489 0.2068
H86_2 H 0.8066 0.0577 0.2068
C84_2 C 0.9037(4) 0.7001(2) 0.1679(4)
C85_2 C 0.7964(3) 0.0963(4) 0.1679(4)
H87_2 H 0.9001 0.7129 0.1382
H88_2 H 0.8128 0.0999 0.1382
C86_2 C 0.8289(5) 0.5848(3) 0.0657(6)
C87_2 C 0.7559(4) 0.1711(5) 0.0657(6)
H89_2 H 0.8059 0.5875 0.0671
H90_2 H 0.7816 0.1941 0.0671
H91_2 H 0.8427 0.5969 0.0318
H92_2 H 0.7542 0.1573 0.0318
C88_2 C 0.81600(18) 0.54141(14) 0.06395(15)
C89_2 C 0.72541(11) 0.18400(18) 0.06395(15)
C90_2 C 0.78182(19) 0.51396(16) 0.09067(14)
C91_2 C 0.73214(11) 0.21818(19) 0.09067(14)
H93_2 H 0.7665 0.5218 0.1099
H94_2 H 0.7553 0.2335 0.1099
C92_2 C 0.77134(23) 0.47538(18) 0.0880(2)
C93_2 C 0.70404(15) 0.22866(23) 0.0880(2)
H95_2 H 0.7486 0.4569 0.1055
H96_2 H 0.7083 0.2514 0.1055
C94_2 C 0.79322(28) 0.4634(2) 0.0604(3)
C95_2 C 0.67018(19) 0.20678(28) 0.0604(3)
H97_2 H 0.7856 0.4371 0.0599
H98_2 H 0.6515 0.2144 0.0599
C96_2 C 0.8269(3) 0.4899(2) 0.0331(3)
C97_2 C 0.6630(2) 0.1731(3) 0.0331(3)
H99_2 H 0.8415 0.4817 0.0131
H100_2 H 0.6402 0.1585 0.0131
C98_2 C 0.83805(28) 0.5287(2) 0.0364(3)
C99_2 C 0.69065(19) 0.16195(28) 0.0364(3)
H101_2 H 0.8612 0.5470 0.0195
H102_2 H 0.6858 0.1388 0.0195
C100_2 C 0.9425(4) 0.5141(3) 0.2843(5)
C101_2 C 0.5716(2) 0.0575(4) 0.2843(5)
C102_2 C 0.9170(3) 0.4921(2) 0.2344(4)
C103_2 C 0.5751(2) 0.0830(3) 0.2344(4)
C104_2 C 0.8855(3) 0.4942(2) 0.2111(4)
C105_2 C 0.6087(2) 0.1145(3) 0.2111(4)
C106_2 C 0.8649(4) 0.4752(3) 0.1644(4)
C107_2 C 0.6103(2) 0.1351(4) 0.1644(4)
H103_2 H 0.8440 0.4777 0.1517
H104_2 H 0.6337 0.1560 0.1517
C108_2 C 0.8771(3) 0.4519(2) 0.1370(5)
C109_2 C 0.5748(2) 0.1229(3) 0.1370(5)
H105_2 H 0.8661 0.4406 0.1032
H106_2 H 0.5745 0.1339 0.1032
C110_2 C 0.9049(4) 0.4457(2) 0.1596(4)
C111_2 C 0.5408(3) 0.0951(4) 0.1596(4)
H107_2 H 0.9103 0.4274 0.1438
H108_2 H 0.5171 0.0897 0.1438
C112_2 C 0.9251(4) 0.4659(3) 0.2051(4)
C113_2 C 0.5408(2) 0.0749(4) 0.2051(4)
H109_2 H 0.9454 0.4624 0.2176
H110_2 H 0.5170 0.0546 0.2176
C114_2 C 0.9737(4) 0.5675(3) 0.3479(4)
C115_2 C 0.5938(2) 0.0263(4) 0.3479(4)
H111_2 H 0.9673 0.5486 0.3774
H112_2 H 0.5813 0.0327 0.3774
C116_2 C 0.96311(18) 0.59781(10) 0.36276(15)
C117_2 C 0.63470(15) 0.03689(18) 0.36276(15)
C118_2 C 0.93535(21) 0.59603(10) 0.39903(14)
C119_2 C 0.66068(18) 0.06465(21) 0.39903(14)
H115_2 H 0.9174 0.5725 0.4153
H116_2 H 0.6551 0.0826 0.4153
C120_2 C 0.93458(24) 0.62978(14) 0.4106(2)
C121_2 C 0.69520(19) 0.06542(24) 0.4106(2)
H117_2 H 0.9160 0.6288 0.4351
H118_2 H 0.7128 0.0840 0.4351
C122_2 C 0.96069(28) 0.6647(2) 0.3867(3)
C123_2 C 0.70401(19) 0.03931(28) 0.3867(3)
H119_2 H 0.9594 0.6870 0.3948
H120_2 H 0.7276 0.0406 0.3948
C124_2 C 0.98843(28) 0.6668(2) 0.3512(3)
C125_2 C 0.67837(19) 0.01157(28) 0.3512(3)
C126_2 C 0.98925(27) 0.63367(19) 0.3391(3)
C127_2 C 0.64442(19) 0.01075(27) 0.3391(3)
C128_2 C 0.8223(4) 0.5956(3) 0.4485(4)
C129_2 C 0.7733(2) 0.1777(4) 0.4485(4)
C130_2 C 0.82954(27) 0.56434(18) 0.4591(3)
C131_2 C 0.7348(2) 0.17046(27) 0.4591(3)
C132_2 C 0.82963(27) 0.53803(18) 0.4200(3)
C133_2 C 0.7084(2) 0.17037(27) 0.4200(3)
C134_2 C 0.83404(28) 0.50714(19) 0.4350(3)
C135_2 C 0.6731(2) 0.16596(28) 0.4350(3)
H125_2 H 0.8375 0.4923 0.4081
H126_2 H 0.6548 0.1625 0.4081
C136_2 C 0.83334(36) 0.49794(19) 0.4907(3)
C137_2 C 0.6646(3) 0.16666(36) 0.4907(3)
H127_2 H 0.8300 0.4739 0.5019
H128_2 H 0.6439 0.1700 0.5019
C138_2 C 0.83776(28) 0.52566(19) 0.5284(3)
C139_2 C 0.6879(2) 0.16224(28) 0.5284(3)
H129_2 H 0.8455 0.5242 0.5642
H130_2 H 0.6787 0.1545 0.5642
C140_2 C 0.8313(3) 0.5554(2) 0.5145(3)
C141_2 C 0.7241(2) 0.1687(3) 0.5145(3)
H131_2 H 0.8280 0.5698 0.5422
H132_2 H 0.7418 0.1720 0.5422
C142_2 C 0.8039(4) 0.6311(2) 0.3897(4)
C143_2 C 0.8272(3) 0.1961(4) 0.3897(4)
H133_2 H 0.8315 0.6495 0.3848
H134_2 H 0.8180 0.1685 0.3848
H135_2 H 0.7938 0.6414 0.4175
H136_2 H 0.8476 0.2062 0.4175
C144_2 C 0.78280(14) 0.62573(8) 0.3365(2)
C145_2 C 0.84293(12) 0.21720(14) 0.3365(2)
C146_2 C 0.80651(15) 0.64224(7) 0.2900(3)
C147_2 C 0.83573(13) 0.19349(15) 0.2900(3)
H137_2 H 0.8335 0.6537 0.2930
H138_2 H 0.8202 0.1665 0.2930
C148_2 C 0.78996(19) 0.64142(11) 0.2405(3)
C149_2 C 0.85146(16) 0.21004(19) 0.2405(3)
H139_2 H 0.8060 0.6526 0.2100
H140_2 H 0.8466 0.1940 0.2100
C150_2 C 0.7506(3) 0.6248(2) 0.2341(3)
C151_2 C 0.8742(2) 0.2494(3) 0.2341(3)
H141_2 H 0.7401 0.6244 0.1996
H142_2 H 0.8843 0.2599 0.1996
C152_2 C 0.7263(3) 0.6085(2) 0.2794(3)
C153_2 C 0.8822(2) 0.2737(3) 0.2794(3)
H143_2 H 0.6994 0.5974 0.2759
H144_2 H 0.8980 0.3006 0.2759
C154_2 C 0.74280(27) 0.60902(19) 0.3295(3)
C155_2 C 0.86622(19) 0.25720(27) 0.3295(3)
H145_2 H 0.7265 0.5978 0.3598
H146_2 H 0.8713 0.2735 0.3598
C156_2 C 0.7110(4) 0.4135(3) 0.2252(5)
C157_2 C 0.7025(3) 0.2890(4) 0.2252(5)
C158_2 C 0.70604(21) 0.45216(16) 0.21186(14)
C159_2 C 0.74612(14) 0.29396(21) 0.21186(14)
C160_2 C 0.73011(21) 0.49264(16) 0.22429(13)
C161_2 C 0.76253(14) 0.26989(21) 0.22429(13)
C162_2 C 0.72200(26) 0.5226(2) 0.21538(18)
C163_2 C 0.80060(17) 0.27800(26) 0.21538(18)
H147_2 H 0.7401 0.5482 0.2251
H148_2 H 0.8081 0.2599 0.2251
C164_2 C 0.6863(3) 0.5137(2) 0.1915(3)
C165_2 C 0.8274(2) 0.3137(3) 0.1915(3)
H149_2 H 0.6798 0.5329 0.1853
H150_2 H 0.8531 0.3202 0.1853
C166_2 C 0.6613(3) 0.4754(2) 0.1776(3)
C167_2 C 0.8141(2) 0.3387(3) 0.1776(3)
H151_2 H 0.6376 0.4687 0.1608
H152_2 H 0.8311 0.3624 0.1608
C168_2 C 0.6706(4) 0.4466(3) 0.1880(3)
C169_2 C 0.7760(2) 0.3294(4) 0.1880(3)
H153_2 H 0.6520 0.4212 0.1786
H154_2 H 0.7692 0.3480 0.1786
C170_2 C 0.7453(6) 0.3940(4) 0.2711(7)
C171_2 C 0.6487(4) 0.2547(6) 0.2711(7)
H155_2 H 0.7241 0.3673 0.2738
H156_2 H 0.6432 0.2759 0.2738
H157_2 H 0.7584 0.3963 0.2363
H158_2 H 0.6379 0.2416 0.2363
C172_2 C 0.77170(16) 0.39951(10) 0.3131(3)
C173_2 C 0.62781(13) 0.22830(16) 0.3131(3)
C174_2 C 0.81140(16) 0.41496(9) 0.3014(3)
C175_2 C 0.60356(13) 0.18860(16) 0.3014(3)
H159_2 H 0.8204 0.4202 0.2652
H160_2 H 0.5998 0.1796 0.2652
C176_2 C 0.83665(21) 0.42213(13) 0.3441(3)
C177_2 C 0.58548(16) 0.16335(21) 0.3441(3)
H161_2 H 0.8630 0.4324 0.3364
H162_2 H 0.5694 0.1370 0.3364
C178_2 C 0.8242(3) 0.4146(2) 0.3986(3)
C179_2 C 0.5904(2) 0.1758(3) 0.3986(3)
H163_2 H 0.8420 0.4198 0.4270
H164_2 H 0.5778 0.1580 0.4270
C180_2 C 0.7851(3) 0.3993(2) 0.4100(3)
C181_2 C 0.6142(2) 0.2149(3) 0.4100(3)
H165_2 H 0.7761 0.3939 0.4462
H166_2 H 0.6178 0.2239 0.4462
C182_2 C 0.7600(3) 0.3923(2) 0.3679(3)
C183_2 C 0.6323(2) 0.2400(3) 0.3679(3)
H167_2 H 0.7338 0.3822 0.3760
H168_2 H 0.6484 0.2662 0.3760
N6_2 N 0.2728(2) 0.0718(2) 0.9650(3)
O12_2 O 0.30526(18) 0.09860(18) 0.9491(3)
O14_2 O 0.2577(3) 0.03997(19) 0.9383(4)
N19_2 N 0.7990(3) 0.7272(2) 0.9650(3)
N20_2 N 0.9282(2) 0.2010(3) 0.9650(3)
O33_2 O 0.29485(23) 0.16531(17) 0.9772(3)
O34_2 O 0.87045(16) 0.70515(23) 0.9772(3)
O35_2 O 0.83469(17) 0.12955(16) 0.9772(3)
O49_2 O 0.79334(25) 0.69474(18) 0.9491(3)
O50_2 O 0.90140(18) 0.20666(25) 0.9491(3)
O53_2 O 0.78227(36) 0.7423(3) 0.9383(4)
O54_2 O 0.96003(19) 0.21773(36) 0.9383(4)
C10_3 C 0.4345(3) 0.0386(2) 0.0869(4)
H14_3 H 0.4284 0.0533 0.1108
C11_3 C 0.4589(3) 0.0551(3) 0.0425(4)
H15_3 H 0.4733 0.0822 0.0401
C12_3 C 0.4631(3) 0.0334(2) 0.0012(4)
H32_3 H 0.3943 0.0203 0.2281
C32_3 C 0.34504(19) 0.0001(2) 0.1845(3)
H33_3 H 0.3508 0.0238 0.1687
N5_3 N 0.5557(2) 0.0748(2) 0.9507(3)
N6_3 N 0.5949(2) 0.0605(2) 0.7983(3)
O9_3 O 0.56407(19) 0.04848(18) 0.9566(3)
O10_3 O 0.53545(18) 0.07443(19) 0.9112(3)
O11_3 O 0.5604(3) 0.0977(2) 0.9899(3)
O12_3 O 0.56807(18) 0.02807(18) 0.7824(3)
O13_3 O 0.5927(2) 0.0745(2) 0.8432(3)
O14_3 O 0.62670(19) 0.0756(3) 0.7716(4)
H16_3 H 0.4795 0.0462 0.9715
N2_3 N 0.2678(2) 0.8833(2) 0.1331(4)
H2_3 H 0.2896 0.8950 0.1154
N3_3 N 0.4616(2) 0.9263(2) 0.2403(3)
H3_3 H 0.4570 0.9046 0.2257
N4_3 N 0.3545(3) 0.7504(3) 0.1012(5)
H4_3 H 0.3681 0.7664 0.1270
O1_3 O 0.4036(2) 0.9357(2) 0.0525(3)
O2_3 O 0.30890(17) 0.85196(19) 0.0741(3)
O3_3 O 0.3867(2) 0.8784(2) 0.2001(3)
O4_3 O 0.4017(2) 0.83266(19) 0.0820(3)
O6_3 O 0.20379(16) 0.83197(17) 0.1438(3)
O7_2 O 0.46000(19) 0.96010(19) 0.3139(3)
O8_3 O 0.36161(16) 0.72044(15) 0.0296(3)
C1_3 C 0.37474(19) 0.8739(2) 0.1027(4)
C2_3 C 0.3809(2) 0.9155(2) 0.1061(4)
H5_3 H 0.3959 0.9290 0.1386
H6_3 H 0.3561 0.9148 0.1073
C3_3 C 0.3464(2) 0.8537(2) 0.0556(4)
H7_3 H 0.3424 0.8277 0.0497
H8_3 H 0.3560 0.8686 0.0217
C4_3 C 0.3602(3) 0.8536(3) 0.1533(4)
H9_3 H 0.3596 0.8288 0.1520
H10_3 H 0.3338 0.8485 0.1595
C5_3 C 0.4123(3) 0.8757(3) 0.0922(5)
H11_3 H 0.4295 0.8865 0.1239
H12_3 H 0.4251 0.8917 0.0602
C7_3 C 0.4430(3) 0.9924(2) 0.0031(4)
C8_3 C 0.4201(2) 0.9764(2) 0.0510(3)
C9_3 C 0.4192(3) 0.9981(2) 0.0942(4)
H13_3 H 0.4087 0.9864 0.1280
C20_3 C 0.2383(2) 0.8474(3) 0.1176(5)
C21_3 C 0.2418(2) 0.8254(2) 0.0677(4)
C22_3 C 0.2754(2) 0.8275(2) 0.0444(4)
C26_3 C 0.2075(2) 0.7992(3) 0.0384(4)
H27_3 H 0.1837 0.7957 0.0509
C27_3 C 0.2605(2) 0.9008(3) 0.1812(4)
H28_3 H 0.2480 0.8819 0.2107
H29_3 H 0.2448 0.9125 0.1720
C28_3 C 0.30137(15) 0.93114(10) 0.19609(15)
C29_3 C 0.32735(18) 0.92936(10) 0.23236(14)
H30_3 H 0.3218 0.9058 0.2486
C30_3 C 0.36187(19) 0.96311(14) 0.2439(2)
H31_3 H 0.3795 0.9621 0.2684
C31_3 C 0.37068(19) 0.9980(2) 0.2200(3)
C33_3 C 0.31109(19) 0.96700(19) 0.1724(3)
H34_3 H 0.2938 0.9682 0.1476
C34_3 C 0.4400(2) 0.9289(3) 0.2818(4)
C35_3 C 0.4015(2) 0.89767(18) 0.2924(3)
C36_3 C 0.3751(2) 0.87136(18) 0.2533(3)
C37_3 C 0.3398(2) 0.84047(19) 0.2683(3)
H35_3 H 0.3215 0.8256 0.2414
C38_3 C 0.3313(3) 0.83127(19) 0.3240(3)
H36_3 H 0.3106 0.8072 0.3352
C39_3 C 0.3546(2) 0.85899(19) 0.3617(3)
H37_3 H 0.3454 0.8575 0.3975
C40_3 C 0.3908(2) 0.8887(2) 0.3478(3)
H38_3 H 0.4085 0.9031 0.3755
C41_3 C 0.4939(3) 0.9644(2) 0.2230(4)
H39_3 H 0.4847 0.9828 0.2181
H40_3 H 0.5143 0.9747 0.2508
C42_3 C 0.50960(12) 0.95906(8) 0.1698(2)
C43_3 C 0.50240(13) 0.97557(7) 0.1233(3)
H41_3 H 0.4869 0.9870 0.1263
C44_3 C 0.51813(16) 0.97475(11) 0.0738(3)
H42_3 H 0.5133 0.9859 0.0433
C45_3 C 0.5409(2) 0.9581(2) 0.0674(3)
H43_3 H 0.5510 0.9577 0.0329
C46_3 C 0.5489(2) 0.9418(2) 0.1127(3)
H44_3 H 0.5647 0.9307 0.1092
C47_3 C 0.53289(19) 0.94235(19) 0.1628(3)
H45_3 H 0.5380 0.9311 0.1931
C48_3 C 0.3692(3) 0.7468(3) 0.0585(5)
C49_3 C 0.41279(14) 0.78549(16) 0.04519(14)
C50_3 C 0.42920(14) 0.82597(16) 0.05762(13)
C51_3 C 0.46727(17) 0.8559(2) 0.04871(18)
H46_3 H 0.4748 0.8815 0.0584
C52_3 C 0.4941(2) 0.8470(2) 0.0248(3)
H47_3 H 0.5198 0.8662 0.0186
C53_3 C 0.4808(2) 0.8087(2) 0.0109(3)
C54_3 C 0.4427(2) 0.7799(3) 0.0213(3)
H49_3 H 0.4359 0.7545 0.0119
C55_3 C 0.3154(4) 0.7273(4) 0.1044(7)
H50_3 H 0.3099 0.7006 0.1071
H51_3 H 0.3046 0.7296 0.0696
C56_3 C 0.29448(13) 0.73284(10) 0.1464(3)
C57_3 C 0.27023(13) 0.74829(9) 0.1347(3)
H52_3 H 0.2665 0.7535 0.0985
C58_3 C 0.25215(16) 0.75546(13) 0.1774(3)
H53_3 H 0.2361 0.7657 0.1697
C59_3 C 0.2571(2) 0.7479(2) 0.2319(3)
H54_3 H 0.2445 0.7531 0.2603
C60_3 C 0.2809(2) 0.7326(2) 0.2433(3)
H55_3 H 0.2845 0.7272 0.2795
C61_3 C 0.2990(2) 0.7256(2) 0.2012(3)
H56_3 H 0.3151 0.7155 0.2093
Tb5_3 Tb 0.150540(13) 0.801163(9) 0.20119(2)
Tb7_3 Tb 0.198837(9) 0.349378(10) 0.20119(2)
Tb9_3 Tb 0.650622(10) 0.849460(13) 0.20119(2)
N11_3 N 0.1167(2) 0.3844(3) 0.1331(4)
N12_3 N 0.6156(3) 0.7322(2) 0.1331(4)
H59_3 H 0.1050 0.3945 0.1154
H60_3 H 0.6055 0.7104 0.1154
N13_3 N 0.0737(2) 0.5352(3) 0.2403(3)
N14_3 N 0.4648(3) 0.5384(2) 0.2403(3)
H61_3 H 0.0954 0.5523 0.2257
H62_3 H 0.4477 0.5430 0.2257
N15_3 N 0.2496(3) 0.6040(4) 0.1012(5)
N16_3 N 0.3960(4) 0.6455(3) 0.1012(5)
H63_3 H 0.2336 0.6016 0.1270
H64_3 H 0.3984 0.6319 0.1270
O21_3 O 0.0643(2) 0.4678(3) 0.0525(3)
O22_3 O 0.5322(3) 0.5964(2) 0.0525(3)
O23_3 O 0.14804(19) 0.45693(25) 0.0741(3)
O24_3 O 0.54307(25) 0.69110(17) 0.0741(3)
O25_3 O 0.1216(2) 0.5082(3) 0.2001(3)
O26_3 O 0.4918(3) 0.6133(2) 0.2001(3)
O27_3 O 0.16734(19) 0.56900(28) 0.0820(3)
O28_3 O 0.43100(28) 0.5983(2) 0.0820(3)
O31_3 O 0.16803(17) 0.37181(23) 0.1438(3)
O32_3 O 0.62819(23) 0.79621(16) 0.1438(3)
O36_2 O 0.03990(19) 0.49989(27) 0.3139(3)
O37_2 O 0.50011(27) 0.54000(19) 0.3139(3)
O41_3 O 0.27956(15) 0.64116(22) 0.0296(3)
O42_3 O 0.35884(22) 0.63839(16) 0.0296(3)
C62_3 C 0.1261(2) 0.50080(28) 0.1027(4)
C63_3 C 0.49920(28) 0.62526(19) 0.1027(4)
C64_3 C 0.0845(2) 0.4653(3) 0.1061(4)
C65_3 C 0.5347(3) 0.6191(2) 0.1061(4)
H65_3 H 0.0710 0.4668 0.1386
H66_3 H 0.5332 0.6041 0.1386
H67_3 H 0.0852 0.4412 0.1073
H68_3 H 0.5588 0.6439 0.1073
C66_3 C 0.1463(2) 0.4926(3) 0.0556(4)
C67_3 C 0.5074(3) 0.6536(2) 0.0556(4)
H69_3 H 0.1723 0.5146 0.0497
H70_3 H 0.4854 0.6576 0.0497
H71_3 H 0.1314 0.4873 0.0217
H72_3 H 0.5127 0.6440 0.0217
C68_3 C 0.1464(3) 0.5065(4) 0.1533(4)
C69_3 C 0.4935(4) 0.6398(3) 0.1533(4)
H73_3 H 0.1712 0.5307 0.1520
H74_3 H 0.4693 0.6404 0.1520
H75_3 H 0.1515 0.4852 0.1595
H76_3 H 0.5148 0.6662 0.1595
C70_3 C 0.1243(3) 0.5365(4) 0.0922(5)
C71_3 C 0.4635(4) 0.5877(3) 0.0922(5)
H77_3 H 0.1135 0.5429 0.1239
H78_3 H 0.4571 0.5705 0.1239
H79_3 H 0.1083 0.5333 0.0602
H80_3 H 0.4667 0.5749 0.0602
C74_3 C 0.0076(2) 0.4505(4) 0.0031(4)
C75_3 C 0.5495(4) 0.5570(3) 0.0031(4)
C76_3 C 0.0236(2) 0.4436(3) 0.0510(3)
C77_3 C 0.5564(3) 0.5799(2) 0.0510(3)
C78_3 C 0.0019(2) 0.4210(4) 0.0942(4)
C79_3 C 0.5790(4) 0.5808(3) 0.0942(4)
H81_3 H 0.0136 0.4222 0.1280
H82_3 H 0.5778 0.5913 0.1280
C81_3 C 0.6042(4) 0.5655(3) 0.0869(4)
H84_3 H 0.6250 0.5716 0.1108
C83_3 C 0.5963(4) 0.5411(3) 0.0425(4)
H86_3 H 0.6090 0.5267 0.0401
C85_3 C 0.5704(4) 0.5369(3) 0.0012(4)
C100_3 C 0.1526(3) 0.3908(4) 0.1176(5)
C101_3 C 0.6092(4) 0.7617(2) 0.1176(5)
C102_3 C 0.1746(2) 0.4163(3) 0.0677(4)
C103_3 C 0.5837(3) 0.7582(2) 0.0677(4)
C104_3 C 0.1725(2) 0.4478(3) 0.0444(4)
C105_3 C 0.5522(3) 0.7246(2) 0.0444(4)
C112_3 C 0.2008(3) 0.4082(4) 0.0384(4)
C113_3 C 0.5918(4) 0.7925(2) 0.0384(4)
H109_3 H 0.2043 0.3879 0.0509
H110_3 H 0.6121 0.8163 0.0509
C114_3 C 0.0992(3) 0.3596(4) 0.1812(4)
C115_3 C 0.6404(4) 0.7395(2) 0.1812(4)
H111_3 H 0.1181 0.3660 0.2107
H112_3 H 0.6340 0.7520 0.2107
H113 H 0.0875 0.3322 0.1720
H114_2 H 0.6678 0.7552 0.1720
C116_3 C 0.06886(10) 0.37022(18) 0.19609(15)
C117_3 C 0.62978(18) 0.69863(15) 0.19609(15)
C118_3 C 0.07064(10) 0.39798(21) 0.23236(14)
C119_3 C 0.60202(21) 0.67265(18) 0.23236(14)
H115_3 H 0.0942 0.4159 0.2486
H116_3 H 0.5841 0.6782 0.2486
C120_3 C 0.03689(14) 0.39875(24) 0.2439(2)
C121_3 C 0.60125(24) 0.63813(19) 0.2439(2)
H117_3 H 0.0379 0.4173 0.2684
H118_3 H 0.5827 0.6205 0.2684
C122_3 C 0.0020(2) 0.37264(28) 0.2200(3)
C123_3 C 0.62736(28) 0.62932(19) 0.2200(3)
H120_3 H 0.6261 0.6057 0.2281
C125_3 C 0.65510(28) 0.65496(19) 0.1845(3)
H122_2 H 0.6731 0.6492 0.1687
C126_3 C 0.03300(19) 0.34408(27) 0.1724(3)
C127_3 C 0.65592(27) 0.68891(19) 0.1724(3)
H123 H 0.0318 0.3255 0.1476
H124_2 H 0.6745 0.7062 0.1476
C128_3 C 0.0711(3) 0.5110(4) 0.2818(4)
C129_3 C 0.4890(4) 0.5600(2) 0.2818(4)
C130_3 C 0.10233(18) 0.50379(27) 0.2924(3)
C131_3 C 0.49621(27) 0.5985(2) 0.2924(3)
C132_3 C 0.12864(18) 0.50370(27) 0.2533(3)
C133_3 C 0.49630(27) 0.6249(2) 0.2533(3)
C134_3 C 0.15953(19) 0.49929(28) 0.2683(3)
C135_3 C 0.50071(28) 0.6602(2) 0.2683(3)
H125_3 H 0.1744 0.4958 0.2414
H126_3 H 0.5042 0.6785 0.2414
C136_3 C 0.16873(19) 0.49999(36) 0.3240(3)
C137_3 C 0.50001(36) 0.6687(3) 0.3240(3)
H127_3 H 0.1928 0.5033 0.3352
H128_3 H 0.4967 0.6894 0.3352
C138_3 C 0.14101(19) 0.49557(28) 0.3617(3)
C139_3 C 0.50443(28) 0.6454(2) 0.3617(3)
H129_3 H 0.1425 0.4878 0.3975
H130_3 H 0.5122 0.6546 0.3975
C140_3 C 0.1113(2) 0.5020(3) 0.3478(3)
C141_3 C 0.4980(3) 0.6092(2) 0.3478(3)
H131_3 H 0.0969 0.5053 0.3755
H132_3 H 0.4947 0.5915 0.3755
C142_3 C 0.0356(2) 0.5294(4) 0.2230(4)
C143_3 C 0.4706(4) 0.5061(3) 0.2230(4)
H133_3 H 0.0172 0.5018 0.2181
H134_3 H 0.4982 0.5153 0.2181
H135_3 H 0.0253 0.5395 0.2508
H136_3 H 0.4605 0.4857 0.2508
C144_3 C 0.04094(8) 0.55053(14) 0.1698(2)
C145_3 C 0.44947(14) 0.49040(12) 0.1698(2)
C146_3 C 0.02443(7) 0.52682(15) 0.1233(3)
C147_3 C 0.47318(15) 0.49760(13) 0.1233(3)
H137_3 H 0.0130 0.4998 0.1263
H138_3 H 0.5002 0.5131 0.1263
C148_3 C 0.02525(11) 0.54337(19) 0.0738(3)
C149_3 C 0.45663(19) 0.48187(16) 0.0738(3)
H139_3 H 0.0141 0.5273 0.0433
H140_3 H 0.4727 0.4867 0.0433
C150_3 C 0.0419(2) 0.5827(3) 0.0674(3)
C151_3 C 0.4173(3) 0.4591(2) 0.0674(3)
H141_3 H 0.0423 0.5932 0.0329
H142_3 H 0.4068 0.4490 0.0329
C152_3 C 0.0582(2) 0.6070(3) 0.1127(3)
C153_3 C 0.3930(3) 0.4511(2) 0.1127(3)
H143_3 H 0.0693 0.6339 0.1092
H144_3 H 0.3661 0.4353 0.1092
C154_3 C 0.05765(19) 0.59053(27) 0.1628(3)
C155_3 C 0.40947(27) 0.46711(19) 0.1628(3)
H145_3 H 0.0689 0.6068 0.1931
H146_3 H 0.3932 0.4620 0.1931
C156_3 C 0.2532(3) 0.6223(4) 0.0585(5)
C157_3 C 0.3777(4) 0.6308(3) 0.0585(5)
C158_3 C 0.21451(16) 0.62729(21) 0.04519(14)
C159_3 C 0.37271(21) 0.58721(14) 0.04519(14)
C160_3 C 0.17403(16) 0.60322(21) 0.05762(13)
C161_3 C 0.39678(21) 0.57080(14) 0.05762(13)
C162_3 C 0.1441(2) 0.61133(26) 0.04871(18)
C163_3 C 0.38867(26) 0.53273(17) 0.04871(18)
H147_3 H 0.1185 0.5932 0.0584
H148_3 H 0.4068 0.5252 0.0584
C164_3 C 0.1530(2) 0.6470(3) 0.0248(3)
C165_3 C 0.3530(3) 0.5059(2) 0.0248(3)
H149_3 H 0.1338 0.6535 0.0186
H150_3 H 0.3465 0.4802 0.0186
C166_3 C 0.1913(2) 0.6720(3) 0.0109(3)
C167_3 C 0.3280(3) 0.5192(2) 0.0109(3)
C168_3 C 0.2201(3) 0.6627(4) 0.0213(3)
C169_3 C 0.3373(4) 0.5573(2) 0.0213(3)
H153_3 H 0.2455 0.6813 0.0119
H154_3 H 0.3187 0.5641 0.0119
C170_3 C 0.2727(4) 0.5880(6) 0.1044(7)
C171_3 C 0.4120(6) 0.6846(4) 0.1044(7)
H155_3 H 0.2994 0.6092 0.1071
H156_3 H 0.3908 0.6901 0.1071
H157_3 H 0.2704 0.5749 0.0696
H158_3 H 0.4251 0.6954 0.0696
C172_3 C 0.26716(10) 0.56163(16) 0.1464(3)
C173_3 C 0.43837(16) 0.70552(13) 0.1464(3)
C174_3 C 0.25171(9) 0.52193(16) 0.1347(3)
C175_3 C 0.47807(16) 0.72977(13) 0.1347(3)
H159_3 H 0.2465 0.5129 0.0985
H160_3 H 0.4871 0.7335 0.0985
C176_3 C 0.24454(13) 0.49668(21) 0.1774(3)
C177_3 C 0.50332(21) 0.74785(16) 0.1774(3)
H161_3 H 0.2343 0.4703 0.1697
H162_3 H 0.5297 0.7639 0.1697
C178_3 C 0.2521(2) 0.5091(3) 0.2319(3)
C179_3 C 0.4909(3) 0.7429(2) 0.2319(3)
H163_3 H 0.2469 0.4913 0.2603
H164_3 H 0.5087 0.7555 0.2603
C180_3 C 0.2674(2) 0.5482(3) 0.2433(3)
C181_3 C 0.4518(3) 0.7191(2) 0.2433(3)
H165_3 H 0.2728 0.5572 0.2795
H166_3 H 0.4428 0.7155 0.2795
C182_3 C 0.2744(2) 0.5733(3) 0.2012(3)
C183_3 C 0.4267(3) 0.7010(2) 0.2012(3)
H167_3 H 0.2845 0.5995 0.2093
H168_3 H 0.4005 0.6849 0.2093
Tb2_3 Tb 0.3334 0.6666 0.97007(3)
N1_3 N 0.4187(3) 0.9373(3) 0.9422(5)
H1_3 H 0.3985 0.9269 0.9633
N7_3 N 0.56648(18) 0.9757(2) 0.9187(3)
N8_3 N 0.2876(2) 0.68875(19) 0.9085(3)
O5_3 O 0.47388(18) 0.98861(18) 0.9172(3)
O15_3 O 0.58352(19) 0.9985(2) 0.8788(3)
O16_3 O 0.53158(14) 0.96652(19) 0.9300(3)
O17_3 O 0.57843(19) 0.9536(2) 0.9360(4)
O18_3 O 0.30543(19) 0.70792(17) 0.9502(3)
O19_3 O 0.2868(2) 0.65769(17) 0.8976(3)
O20_3 O 0.2737(2) 0.7023(2) 0.8749(4)
C6_3 C 0.4464(3) 0.9714(3) 0.9499(5)
C13_3 C 0.4226(4) 0.9181(3) 0.8990(6)
H17_3 H 0.4483 0.9208 0.9004
H18_3 H 0.4209 0.9302 0.8651
C14_3 C 0.39208(11) 0.87474(14) 0.89728(15)
C15_3 C 0.39881(11) 0.84729(16) 0.92400(14)
H19_3 H 0.4220 0.8551 0.9432
C16_3 C 0.37071(15) 0.80871(18) 0.9213(2)
H20_3 H 0.3750 0.7902 0.9388
C17_3 C 0.33685(19) 0.7967(2) 0.8937(3)
H21_3 H 0.3182 0.7704 0.8932
C18_3 C 0.3297(2) 0.8232(2) 0.8664(3)
H22_3 H 0.3069 0.8150 0.8464
C19_3 C 0.35732(19) 0.8620(2) 0.8697(3)
H23_3 H 0.3525 0.8803 0.8528
C23_3 C 0.2770(2) 0.8085(3) 0.9977(4)
H24_3 H 0.3004 0.8110 0.9850
C24_3 C 0.2415(2) 0.7852(2) 0.9703(5)
H25_3 H 0.2412 0.7739 0.9365
C25_3 C 0.2075(3) 0.7790(2) 0.9929(4)
H26_3 H 0.1838 0.7607 0.9771
H48_3 H 0.4978 0.8020 0.9941
N9_3 N 0.0627(3) 0.4813(4) 0.9422(5)
N10_3 N 0.5187(4) 0.5813(3) 0.9422(5)
H57_3 H 0.0731 0.4715 0.9633
H58_3 H 0.5285 0.6015 0.9633
N18_3 N 0.5192(3) 0.4443(2) 0.9507(3)
N20_3 N 0.4657(3) 0.4051(2) 0.7983(3)
N21_3 N 0.0243(2) 0.59074(27) 0.9187(3)
N22_3 N 0.40926(27) 0.43352(18) 0.9187(3)
N23_3 N 0.31125(19) 0.59881(28) 0.9085(3)
N24_3 N 0.40119(28) 0.7124(2) 0.9085(3)
O29_3 O 0.01139(18) 0.48526(25) 0.9172(3)
O30_3 O 0.51474(25) 0.52612(18) 0.9172(3)
O38_2 O 0.50011(27) 0.96010(19) 0.8139(3)
O39_2 O 0.03990(19) 0.54000(19) 0.8139(3)
O40_2 O 0.46000(19) 0.49989(27) 0.8139(3)
O44_3 O 0.48442(26) 0.43593(19) 0.9566(3)
O46_3 O 0.53899(26) 0.46455(18) 0.9112(3)
O48_3 O 0.5374(4) 0.4396(3) 0.9899(3)
O50_3 O 0.46001(25) 0.43193(18) 0.7824(3)
O52_3 O 0.4819(3) 0.4073(2) 0.8432(3)
O54_3 O 0.44894(36) 0.37330(19) 0.7716(4)
O55_3 O 0.0015(2) 0.58498(28) 0.8788(3)
O56_3 O 0.41502(28) 0.41648(19) 0.8788(3)
O57_3 O 0.03348(19) 0.56505(24) 0.9300(3)
O58_3 O 0.43495(24) 0.46842(14) 0.9300(3)
O59_3 O 0.0464(2) 0.62479(28) 0.9360(4)
O60_3 O 0.37521(28) 0.42157(19) 0.9360(4)
O61_3 O 0.29208(17) 0.59750(25) 0.9502(3)
O62_3 O 0.40250(25) 0.69457(19) 0.9502(3)
O63_3 O 0.34231(17) 0.62907(26) 0.8976(3)
O64_3 O 0.37093(26) 0.7132(2) 0.8976(3)
O65_3 O 0.4287(3) 0.7263(2) 0.8749(4)
O66_3 O 0.2977(2) 0.5713(3) 0.8749(4)
C72_3 C 0.0286(3) 0.4749(4) 0.9499(5)
C73_3 C 0.5251(4) 0.5536(3) 0.9499(5)
H88_3 H 0.5668 0.5205 0.9715
C86_3 C 0.0819(3) 0.5044(5) 0.8990(6)
C87_3 C 0.4956(5) 0.5774(4) 0.8990(6)
H89_3 H 0.0792 0.5274 0.9004
H90_3 H 0.4726 0.5517 0.9004
H91_3 H 0.0698 0.4906 0.8651
H92_3 H 0.5094 0.5791 0.8651
C88_3 C 0.12526(14) 0.51733(18) 0.89728(15)
C89_3 C 0.48267(18) 0.60792(11) 0.89728(15)
C90_3 C 0.15271(16) 0.55151(19) 0.92400(14)
C91_3 C 0.44849(19) 0.60119(11) 0.92400(14)
H93_3 H 0.1449 0.5668 0.9432
H94_3 H 0.4332 0.5780 0.9432
C92_3 C 0.19129(18) 0.56199(23) 0.9213(2)
C93_3 C 0.43801(23) 0.62929(15) 0.9213(2)
H95_3 H 0.2098 0.5847 0.9388
H96_3 H 0.4153 0.6250 0.9388
C94_3 C 0.2033(2) 0.54011(28) 0.8937(3)
C95_3 C 0.45989(28) 0.66315(19) 0.8937(3)
H97_3 H 0.2296 0.5477 0.8932
H98_3 H 0.4523 0.6818 0.8932
C96_3 C 0.1768(2) 0.5064(3) 0.8664(3)
C97_3 C 0.4936(3) 0.6703(2) 0.8664(3)
H99_3 H 0.1850 0.4918 0.8464
H100_3 H 0.5082 0.6931 0.8464
C98_3 C 0.1380(2) 0.49528(28) 0.8697(3)
C99_3 C 0.50472(28) 0.64268(19) 0.8697(3)
H101_3 H 0.1197 0.4721 0.8528
H102_3 H 0.5279 0.6475 0.8528
C106_3 C 0.1915(3) 0.4684(4) 0.9977(4)
C107_3 C 0.5316(4) 0.7230(2) 0.9977(4)
H103_3 H 0.1890 0.4893 0.9850
H104_3 H 0.5107 0.6996 0.9850
C108_3 C 0.2148(2) 0.4562(3) 0.9703(5)
C109_3 C 0.5438(3) 0.7585(2) 0.9703(5)
H105_3 H 0.2261 0.4672 0.9365
H106_3 H 0.5328 0.7588 0.9365
C110_3 C 0.2210(2) 0.4284(4) 0.9929(4)
C111_3 C 0.5716(4) 0.7925(3) 0.9929(4)
H107_3 H 0.2393 0.4230 0.9771
H108_3 H 0.5770 0.8162 0.9771
H151_3 H 0.1980 0.6957 0.9941
H152_3 H 0.3043 0.5022 0.9941
C80_3 C 0.9614(2) 0.3958(4) 0.0869(4)
H83_3 H 0.9467 0.3750 0.1108
C82_3 C 0.9449(3) 0.4037(4) 0.0425(4)
H85_3 H 0.9178 0.3910 0.0401
C84_3 C 0.9666(2) 0.4296(4) 0.0012(4)
H119_3 H 0.9797 0.3739 0.2281
C124_3 C 0.9999(2) 0.34490(28) 0.1845(3)
H121 H 0.9762 0.3269 0.1687
N17_3 N 0.9252(2) 0.4808(3) 0.9507(3)
N19_3 N 0.9395(2) 0.5343(3) 0.7983(3)
O43_3 O 0.95152(18) 0.51558(26) 0.9566(3)
O45_3 O 0.92557(19) 0.46101(26) 0.9112(3)
O47_3 O 0.9023(2) 0.4626(4) 0.9899(3)
O49_3 O 0.97193(18) 0.53999(25) 0.7824(3)
O51_3 O 0.9255(2) 0.5181(3) 0.8432(3)
O53_3 O 0.9244(3) 0.55106(36) 0.7716(4)
H87_3 H 0.9538 0.4332 0.9715
N17_4 N 0.5192(3) 0.0748(2) 0.4507(3)
N19_4 N 0.4657(3) 0.0605(2) 0.2983(3)
O43_4 O 0.48442(26) 0.04848(18) 0.4566(3)
O45_4 O 0.53899(26) 0.07443(19) 0.4112(3)
O47_4 O 0.5374(4) 0.0977(2) 0.4899(3)
O49_4 O 0.46001(25) 0.02807(18) 0.2824(3)
O51_4 O 0.4819(3) 0.0745(2) 0.3432(3)
O53_4 O 0.44894(36) 0.0756(3) 0.2716(4)
C80_4 C 0.6042(4) 0.0386(2) 0.5869(4)
H83_4 H 0.6250 0.0533 0.6108
C82_4 C 0.5963(4) 0.0551(3) 0.5425(4)
H85_4 H 0.6090 0.0822 0.5401
C84_4 C 0.5704(4) 0.0334(2) 0.5012(4)
H87_4 H 0.5668 0.0462 0.4715
H119_4 H 0.6261 0.0203 0.7281
C124_4 C 0.65510(28) 0.0001(2) 0.6845(3)
H121_2 H 0.6731 0.0238 0.6687
Tb2_4 Tb 0.3334 0.6666 0.47007(3)
N1_4 N 0.0627(3) 0.5813(3) 0.4422(5)
H1_4 H 0.0731 0.6015 0.4633
N2_4 N 0.1167(2) 0.7322(2) 0.6331(4)
H2_4 H 0.1050 0.7104 0.6154
N3_4 N 0.0737(2) 0.5384(2) 0.7403(3)
H3_4 H 0.0954 0.5430 0.7257
N4_4 N 0.2496(3) 0.6455(3) 0.6012(5)
H4_4 H 0.2336 0.6319 0.6270
N7_4 N 0.0243(2) 0.43352(18) 0.4187(3)
N8_4 N 0.31125(19) 0.7124(2) 0.4085(3)
O1_4 O 0.0643(2) 0.5964(2) 0.5525(3)
O2_4 O 0.14804(19) 0.69110(17) 0.5741(3)
O3_4 O 0.1216(2) 0.6133(2) 0.7001(3)
O4_4 O 0.16734(19) 0.5983(2) 0.5820(3)
O5_4 O 0.01139(18) 0.52612(18) 0.4172(3)
O6_4 O 0.16803(17) 0.79621(16) 0.6438(3)
O8_4 O 0.27956(15) 0.63839(16) 0.5296(3)
O15_4 O 0.0015(2) 0.41648(19) 0.3788(3)
O16_4 O 0.03348(19) 0.46842(14) 0.4300(3)
O17_4 O 0.0464(2) 0.42157(19) 0.4360(4)
O18_4 O 0.29208(17) 0.69457(19) 0.4502(3)
O19_4 O 0.34231(17) 0.7132(2) 0.3976(3)
O20_4 O 0.2977(2) 0.7263(2) 0.3749(4)
C1_4 C 0.1261(2) 0.62526(19) 0.6027(4)
C2_4 C 0.0845(2) 0.6191(2) 0.6061(4)
H5_4 H 0.0710 0.6041 0.6386
H6_4 H 0.0852 0.6439 0.6073
C3_4 C 0.1463(2) 0.6536(2) 0.5556(4)
H7_4 H 0.1723 0.6576 0.5497
H8_4 H 0.1314 0.6440 0.5217
C4_4 C 0.1464(3) 0.6398(3) 0.6533(4)
H9_4 H 0.1712 0.6404 0.6520
H10_4 H 0.1515 0.6662 0.6595
C5_4 C 0.1243(3) 0.5877(3) 0.5922(5)
H11_4 H 0.1135 0.5705 0.6239
H12_4 H 0.1083 0.5749 0.5602
C6_4 C 0.0286(3) 0.5536(3) 0.4499(5)
C7_4 C 0.0076(2) 0.5570(3) 0.5031(4)
C8_4 C 0.0236(2) 0.5799(2) 0.5510(3)
C9_4 C 0.0019(2) 0.5808(3) 0.5942(4)
H13_4 H 0.0136 0.5913 0.6280
C13_4 C 0.0819(3) 0.5774(4) 0.3990(6)
H17_4 H 0.0792 0.5517 0.4004
H18_4 H 0.0698 0.5791 0.3651
C14_4 C 0.12526(14) 0.60792(11) 0.39728(15)
C15_4 C 0.15271(16) 0.60119(11) 0.42400(14)
H19_4 H 0.1449 0.5780 0.4432
C16_4 C 0.19129(18) 0.62929(15) 0.4213(2)
H20_4 H 0.2098 0.6250 0.4388
C17_4 C 0.2033(2) 0.66315(19) 0.3937(3)
H21_4 H 0.2296 0.6818 0.3932
C18_4 C 0.1768(2) 0.6703(2) 0.3664(3)
H22_4 H 0.1850 0.6931 0.3464
C19_4 C 0.1380(2) 0.64268(19) 0.3697(3)
H23_4 H 0.1197 0.6475 0.3528
C20_4 C 0.1526(3) 0.7617(2) 0.6176(5)
C21_4 C 0.1746(2) 0.7582(2) 0.5677(4)
C22_4 C 0.1725(2) 0.7246(2) 0.5444(4)
C23_4 C 0.1915(3) 0.7230(2) 0.4977(4)
H24_4 H 0.1890 0.6996 0.4850
C24_4 C 0.2148(2) 0.7585(2) 0.4703(5)
H25_4 H 0.2261 0.7588 0.4365
C25_4 C 0.2210(2) 0.7925(3) 0.4929(4)
H26_4 H 0.2393 0.8162 0.4771
C26_4 C 0.2008(3) 0.7925(2) 0.5384(4)
H27_4 H 0.2043 0.8163 0.5509
C27_4 C 0.0992(3) 0.7395(2) 0.6812(4)
H28_4 H 0.1181 0.7520 0.7107
H29_4 H 0.0875 0.7552 0.6720
C28_4 C 0.06886(10) 0.69863(15) 0.69609(15)
C29_4 C 0.07064(10) 0.67265(18) 0.73236(14)
H30_4 H 0.0942 0.6782 0.7486
C30_4 C 0.03689(14) 0.63813(19) 0.7439(2)
H31_4 H 0.0379 0.6205 0.7684
C31_4 C 0.0020(2) 0.62932(19) 0.7200(3)
C33_4 C 0.03300(19) 0.68891(19) 0.6724(3)
H34_4 H 0.0318 0.7062 0.6476
C34_4 C 0.0711(3) 0.5600(2) 0.7818(4)
C35_4 C 0.10233(18) 0.5985(2) 0.7924(3)
C36_4 C 0.12864(18) 0.6249(2) 0.7533(3)
C37_4 C 0.15953(19) 0.6602(2) 0.7683(3)
H35_4 H 0.1744 0.6785 0.7414
C38_4 C 0.16873(19) 0.6687(3) 0.8240(3)
H36_4 H 0.1928 0.6894 0.8352
C39_4 C 0.14101(19) 0.6454(2) 0.8617(3)
H37_4 H 0.1425 0.6546 0.8975
C40_4 C 0.1113(2) 0.6092(2) 0.8478(3)
H38_4 H 0.0969 0.5915 0.8755
C41_4 C 0.0356(2) 0.5061(3) 0.7230(4)
H39_4 H 0.0172 0.5153 0.7181
H40_4 H 0.0253 0.4857 0.7508
C42_4 C 0.04094(8) 0.49040(12) 0.6698(2)
C43_4 C 0.02443(7) 0.49760(13) 0.6233(3)
H41_4 H 0.0130 0.5131 0.6263
C44_4 C 0.02525(11) 0.48187(16) 0.5738(3)
H42_4 H 0.0141 0.4867 0.5433
C45_4 C 0.0419(2) 0.4591(2) 0.5674(3)
H43_4 H 0.0423 0.4490 0.5329
C46_4 C 0.0582(2) 0.4511(2) 0.6127(3)
H44_4 H 0.0693 0.4353 0.6092
C47_4 C 0.05765(19) 0.46711(19) 0.6628(3)
H45_4 H 0.0689 0.4620 0.6931
C48_4 C 0.2532(3) 0.6308(3) 0.5585(5)
C49_4 C 0.21451(16) 0.58721(14) 0.54519(14)
C50_4 C 0.17403(16) 0.57080(14) 0.55762(13)
C51_4 C 0.1441(2) 0.53273(17) 0.54871(18)
H46_4 H 0.1185 0.5252 0.5584
C52_4 C 0.1530(2) 0.5059(2) 0.5248(3)
H47_4 H 0.1338 0.4802 0.5186
C53_4 C 0.1913(2) 0.5192(2) 0.5109(3)
H48_4 H 0.1980 0.5022 0.4941
C54_4 C 0.2201(3) 0.5573(2) 0.5213(3)
H49_4 H 0.2455 0.5641 0.5119
C55_4 C 0.2727(4) 0.6846(4) 0.6044(7)
H50_4 H 0.2994 0.6901 0.6071
H51_4 H 0.2704 0.6954 0.5696
C56_4 C 0.26716(10) 0.70552(13) 0.6464(3)
C57_4 C 0.25171(9) 0.72977(13) 0.6347(3)
H52_4 H 0.2465 0.7335 0.5985
C58_4 C 0.24454(13) 0.74785(16) 0.6774(3)
H53_4 H 0.2343 0.7639 0.6697
C59_4 C 0.2521(2) 0.7429(2) 0.7319(3)
H54_4 H 0.2469 0.7555 0.7603
C60_4 C 0.2674(2) 0.7191(2) 0.7433(3)
H55_4 H 0.2728 0.7155 0.7795
C61_4 C 0.2744(2) 0.7010(2) 0.7012(3)
H56_4 H 0.2845 0.6849 0.7093
Tb5_4 Tb 0.198837(9) 0.849460(13) 0.70119(2)
Tb7_4 Tb 0.650622(10) 0.801163(9) 0.70119(2)
Tb9_4 Tb 0.150540(13) 0.349378(10) 0.70119(2)
N9_4 N 0.5187(4) 0.9373(3) 0.4422(5)
N10_4 N 0.4187(3) 0.4813(4) 0.4422(5)
H57_4 H 0.5285 0.9269 0.4633
H58_4 H 0.3985 0.4715 0.4633
N11_4 N 0.6156(3) 0.8833(2) 0.6331(4)
N12_4 N 0.2678(2) 0.3844(3) 0.6331(4)
H59_4 H 0.6055 0.8950 0.6154
H60_4 H 0.2896 0.3945 0.6154
N13_4 N 0.4648(3) 0.9263(2) 0.7403(3)
N14_4 N 0.4616(2) 0.5352(3) 0.7403(3)
H61_4 H 0.4477 0.9046 0.7257
H62_4 H 0.4570 0.5523 0.7257
N15_4 N 0.3960(4) 0.7504(3) 0.6012(5)
N16_4 N 0.3545(3) 0.6040(4) 0.6012(5)
H63_4 H 0.3984 0.7664 0.6270
H64_4 H 0.3681 0.6016 0.6270
N18_4 N 0.5557(2) 0.4808(3) 0.4507(3)
N20_4 N 0.5949(2) 0.5343(3) 0.2983(3)
N21_4 N 0.40926(27) 0.9757(2) 0.4187(3)
N22_4 N 0.56648(18) 0.59074(27) 0.4187(3)
N23_4 N 0.40119(28) 0.68875(19) 0.4085(3)
N24_4 N 0.2876(2) 0.59881(28) 0.4085(3)
O21_4 O 0.5322(3) 0.9357(2) 0.5525(3)
O22_4 O 0.4036(2) 0.4678(3) 0.5525(3)
O23_4 O 0.54307(25) 0.85196(19) 0.5741(3)
O24_4 O 0.30890(17) 0.45693(25) 0.5741(3)
O25_4 O 0.4918(3) 0.8784(2) 0.7001(3)
O26_4 O 0.3867(2) 0.5082(3) 0.7001(3)
O27_4 O 0.43100(28) 0.83266(19) 0.5820(3)
O28_4 O 0.4017(2) 0.56900(28) 0.5820(3)
O29_4 O 0.51474(25) 0.98861(18) 0.4172(3)
O30_4 O 0.47388(18) 0.48526(25) 0.4172(3)
O31_4 O 0.62819(23) 0.83197(17) 0.6438(3)
O32_4 O 0.20379(16) 0.37181(23) 0.6438(3)
O41_4 O 0.35884(22) 0.72044(15) 0.5296(3)
O42_4 O 0.36161(16) 0.64116(22) 0.5296(3)
O44_4 O 0.56407(19) 0.51558(26) 0.4566(3)
O46_4 O 0.53545(18) 0.46101(26) 0.4112(3)
O48_4 O 0.5604(3) 0.4626(4) 0.4899(3)
O50_4 O 0.56807(18) 0.53999(25) 0.2824(3)
O52_4 O 0.5927(2) 0.5181(3) 0.3432(3)
O54_4 O 0.62670(19) 0.55106(36) 0.2716(4)
O55_4 O 0.41502(28) 0.9985(2) 0.3788(3)
O56_4 O 0.58352(19) 0.58498(28) 0.3788(3)
O57_4 O 0.43495(24) 0.96652(19) 0.4300(3)
O58_4 O 0.53158(14) 0.56505(24) 0.4300(3)
O59_4 O 0.37521(28) 0.9536(2) 0.4360(4)
O60_4 O 0.57843(19) 0.62479(28) 0.4360(4)
O61_4 O 0.40250(25) 0.70792(17) 0.4502(3)
O62_4 O 0.30543(19) 0.59750(25) 0.4502(3)
O63_4 O 0.37093(26) 0.65769(17) 0.3976(3)
O64_4 O 0.2868(2) 0.62907(26) 0.3976(3)
O65_4 O 0.2737(2) 0.5713(3) 0.3749(4)
O66_4 O 0.4287(3) 0.7023(2) 0.3749(4)
C62_4 C 0.49920(28) 0.8739(2) 0.6027(4)
C63_4 C 0.37474(19) 0.50080(28) 0.6027(4)
C64_4 C 0.5347(3) 0.9155(2) 0.6061(4)
C65_4 C 0.3809(2) 0.4653(3) 0.6061(4)
H65_4 H 0.5332 0.9290 0.6386
H66_4 H 0.3959 0.4668 0.6386
H67_4 H 0.5588 0.9148 0.6073
H68_4 H 0.3561 0.4412 0.6073
C66_4 C 0.5074(3) 0.8537(2) 0.5556(4)
C67_4 C 0.3464(2) 0.4926(3) 0.5556(4)
H69_4 H 0.4854 0.8277 0.5497
H70_4 H 0.3424 0.5146 0.5497
H71_4 H 0.5127 0.8686 0.5217
H72_4 H 0.3560 0.4873 0.5217
C68_4 C 0.4935(4) 0.8536(3) 0.6533(4)
C69_4 C 0.3602(3) 0.5065(4) 0.6533(4)
H73_4 H 0.4693 0.8288 0.6520
H74_4 H 0.3596 0.5307 0.6520
H75_4 H 0.5148 0.8485 0.6595
H76_4 H 0.3338 0.4852 0.6595
C70_4 C 0.4635(4) 0.8757(3) 0.5922(5)
C71_4 C 0.4123(3) 0.5365(4) 0.5922(5)
H77_4 H 0.4571 0.8865 0.6239
H78_4 H 0.4295 0.5429 0.6239
H79_4 H 0.4667 0.8917 0.5602
H80_4 H 0.4251 0.5333 0.5602
C72_4 C 0.5251(4) 0.9714(3) 0.4499(5)
C73_4 C 0.4464(3) 0.4749(4) 0.4499(5)
C74_4 C 0.5495(4) 0.9924(2) 0.5031(4)
C75_4 C 0.4430(3) 0.4505(4) 0.5031(4)
C76_4 C 0.5564(3) 0.9764(2) 0.5510(3)
C77_4 C 0.4201(2) 0.4436(3) 0.5510(3)
C78_4 C 0.5790(4) 0.9981(2) 0.5942(4)
C79_4 C 0.4192(3) 0.4210(4) 0.5942(4)
H81_4 H 0.5778 0.9864 0.6280
H82_4 H 0.4087 0.4222 0.6280
C81_4 C 0.4345(3) 0.3958(4) 0.5869(4)
H84_4 H 0.4284 0.3750 0.6108
C83_4 C 0.4589(3) 0.4037(4) 0.5425(4)
H86_4 H 0.4733 0.3910 0.5401
C85_4 C 0.4631(3) 0.4296(4) 0.5012(4)
H88_4 H 0.4795 0.4332 0.4715
C86_4 C 0.4956(5) 0.9181(3) 0.3990(6)
C87_4 C 0.4226(4) 0.5044(5) 0.3990(6)
H89_4 H 0.4726 0.9208 0.4004
H90_4 H 0.4483 0.5274 0.4004
H91_4 H 0.5094 0.9302 0.3651
H92_4 H 0.4209 0.4906 0.3651
C88_4 C 0.48267(18) 0.87474(14) 0.39728(15)
C89_4 C 0.39208(11) 0.51733(18) 0.39728(15)
C90_4 C 0.44849(19) 0.84729(16) 0.42400(14)
C91_4 C 0.39881(11) 0.55151(19) 0.42400(14)
H93_4 H 0.4332 0.8551 0.4432
H94_4 H 0.4220 0.5668 0.4432
C92_4 C 0.43801(23) 0.80871(18) 0.4213(2)
C93_4 C 0.37071(15) 0.56199(23) 0.4213(2)
H95_4 H 0.4153 0.7902 0.4388
H96_4 H 0.3750 0.5847 0.4388
C94_4 C 0.45989(28) 0.7967(2) 0.3937(3)
C95_4 C 0.33685(19) 0.54011(28) 0.3937(3)
H97_4 H 0.4523 0.7704 0.3932
H98_4 H 0.3182 0.5477 0.3932
C96_4 C 0.4936(3) 0.8232(2) 0.3664(3)
C97_4 C 0.3297(2) 0.5064(3) 0.3664(3)
H99_4 H 0.5082 0.8150 0.3464
H100_4 H 0.3069 0.4918 0.3464
C98_4 C 0.50472(28) 0.8620(2) 0.3697(3)
C99_4 C 0.35732(19) 0.49528(28) 0.3697(3)
H101_4 H 0.5279 0.8803 0.3528
H102_4 H 0.3525 0.4721 0.3528
C100_4 C 0.6092(4) 0.8474(3) 0.6176(5)
C101_4 C 0.2383(2) 0.3908(4) 0.6176(5)
C102_4 C 0.5837(3) 0.8254(2) 0.5677(4)
C103_4 C 0.2418(2) 0.4163(3) 0.5677(4)
C104_4 C 0.5522(3) 0.8275(2) 0.5444(4)
C105_4 C 0.2754(2) 0.4478(3) 0.5444(4)
C106_4 C 0.5316(4) 0.8085(3) 0.4977(4)
C107_4 C 0.2770(2) 0.4684(4) 0.4977(4)
H103_4 H 0.5107 0.8110 0.4850
H104_4 H 0.3004 0.4893 0.4850
C108_4 C 0.5438(3) 0.7852(2) 0.4703(5)
C109_4 C 0.2415(2) 0.4562(3) 0.4703(5)
H105_4 H 0.5328 0.7739 0.4365
H106_4 H 0.2412 0.4672 0.4365
C110_4 C 0.5716(4) 0.7790(2) 0.4929(4)
C111_4 C 0.2075(3) 0.4284(4) 0.4929(4)
H107_4 H 0.5770 0.7607 0.4771
H108_4 H 0.1838 0.4230 0.4771
C112_4 C 0.5918(4) 0.7992(3) 0.5384(4)
C113_4 C 0.2075(2) 0.4082(4) 0.5384(4)
H109_4 H 0.6121 0.7957 0.5509
H110_4 H 0.1837 0.3879 0.5509
C114_4 C 0.6404(4) 0.9008(3) 0.6812(4)
C115_4 C 0.2605(2) 0.3596(4) 0.6812(4)
H111_4 H 0.6340 0.8819 0.7107
H112_4 H 0.2480 0.3660 0.7107
H113_2 H 0.6678 0.9125 0.6720
H114_3 H 0.2448 0.3322 0.6720
C116_4 C 0.62978(18) 0.93114(10) 0.69609(15)
C117_4 C 0.30137(15) 0.37022(18) 0.69609(15)
C118_4 C 0.60202(21) 0.92936(10) 0.73236(14)
C119_4 C 0.32735(18) 0.39798(21) 0.73236(14)
H115_4 H 0.5841 0.9058 0.7486
H116_4 H 0.3218 0.4159 0.7486
C120_4 C 0.60125(24) 0.96311(14) 0.7439(2)
C121_4 C 0.36187(19) 0.39875(24) 0.7439(2)
H117_4 H 0.5827 0.9621 0.7684
H118_4 H 0.3795 0.4173 0.7684
C122_4 C 0.62736(28) 0.9980(2) 0.7200(3)
C123_4 C 0.37068(19) 0.37264(28) 0.7200(3)
H120_4 H 0.3943 0.3739 0.7281
C125_4 C 0.34504(19) 0.34490(28) 0.6845(3)
H122_3 H 0.3508 0.3269 0.6687
C126_4 C 0.65592(27) 0.96700(19) 0.6724(3)
C127_4 C 0.31109(19) 0.34408(27) 0.6724(3)
H123_2 H 0.6745 0.9682 0.6476
H124_3 H 0.2938 0.3255 0.6476
C128_4 C 0.4890(4) 0.9289(3) 0.7818(4)
C129_4 C 0.4400(2) 0.5110(4) 0.7818(4)
C130_4 C 0.49621(27) 0.89767(18) 0.7924(3)
C131_4 C 0.4015(2) 0.50379(27) 0.7924(3)
C132_4 C 0.49630(27) 0.87136(18) 0.7533(3)
C133_4 C 0.3751(2) 0.50370(27) 0.7533(3)
C134_4 C 0.50071(28) 0.84047(19) 0.7683(3)
C135_4 C 0.3398(2) 0.49929(28) 0.7683(3)
H125_4 H 0.5042 0.8256 0.7414
H126_4 H 0.3215 0.4958 0.7414
C136_4 C 0.50001(36) 0.83127(19) 0.8240(3)
C137_4 C 0.3313(3) 0.49999(36) 0.8240(3)
H127_4 H 0.4967 0.8072 0.8352
H128_4 H 0.3106 0.5033 0.8352
C138_4 C 0.50443(28) 0.85899(19) 0.8617(3)
C139_4 C 0.3546(2) 0.49557(28) 0.8617(3)
H129_4 H 0.5122 0.8575 0.8975
H130_4 H 0.3454 0.4878 0.8975
C140_4 C 0.4980(3) 0.8887(2) 0.8478(3)
C141_4 C 0.3908(2) 0.5020(3) 0.8478(3)
H131_4 H 0.4947 0.9031 0.8755
H132_4 H 0.4085 0.5053 0.8755
C142_4 C 0.4706(4) 0.9644(2) 0.7230(4)
C143_4 C 0.4939(3) 0.5294(4) 0.7230(4)
H133_4 H 0.4982 0.9828 0.7181
H134_4 H 0.4847 0.5018 0.7181
H135_4 H 0.4605 0.9747 0.7508
H136_4 H 0.5143 0.5395 0.7508
C144_4 C 0.44947(14) 0.95906(8) 0.6698(2)
C145_4 C 0.50960(12) 0.55053(14) 0.6698(2)
C146_4 C 0.47318(15) 0.97557(7) 0.6233(3)
C147_4 C 0.50240(13) 0.52682(15) 0.6233(3)
H137_4 H 0.5002 0.9870 0.6263
H138_4 H 0.4869 0.4998 0.6263
C148_4 C 0.45663(19) 0.97475(11) 0.5738(3)
C149_4 C 0.51813(16) 0.54337(19) 0.5738(3)
H139_4 H 0.4727 0.9859 0.5433
H140_4 H 0.5133 0.5273 0.5433
C150_4 C 0.4173(3) 0.9581(2) 0.5674(3)
C151_4 C 0.5409(2) 0.5827(3) 0.5674(3)
H141_4 H 0.4068 0.9577 0.5329
H142_4 H 0.5510 0.5932 0.5329
C152_4 C 0.3930(3) 0.9418(2) 0.6127(3)
C153_4 C 0.5489(2) 0.6070(3) 0.6127(3)
H143_4 H 0.3661 0.9307 0.6092
H144_4 H 0.5647 0.6339 0.6092
C154_4 C 0.40947(27) 0.94235(19) 0.6628(3)
C155_4 C 0.53289(19) 0.59053(27) 0.6628(3)
H145_4 H 0.3932 0.9311 0.6931
H146_4 H 0.5380 0.6068 0.6931
C156_4 C 0.3777(4) 0.7468(3) 0.5585(5)
C157_4 C 0.3692(3) 0.6223(4) 0.5585(5)
C158_4 C 0.37271(21) 0.78549(16) 0.54519(14)
C159_4 C 0.41279(14) 0.62729(21) 0.54519(14)
C160_4 C 0.39678(21) 0.82597(16) 0.55762(13)
C161_4 C 0.42920(14) 0.60322(21) 0.55762(13)
C162_4 C 0.38867(26) 0.8559(2) 0.54871(18)
C163_4 C 0.46727(17) 0.61133(26) 0.54871(18)
H147_4 H 0.4068 0.8815 0.5584
H148_4 H 0.4748 0.5932 0.5584
C164_4 C 0.3530(3) 0.8470(2) 0.5248(3)
C165_4 C 0.4941(2) 0.6470(3) 0.5248(3)
H149_4 H 0.3465 0.8662 0.5186
H150_4 H 0.5198 0.6535 0.5186
C166_4 C 0.3280(3) 0.8087(2) 0.5109(3)
C167_4 C 0.4808(2) 0.6720(3) 0.5109(3)
H151_4 H 0.3043 0.8020 0.4941
H152_4 H 0.4978 0.6957 0.4941
C168_4 C 0.3373(4) 0.7799(3) 0.5213(3)
C169_4 C 0.4427(2) 0.6627(4) 0.5213(3)
H153_4 H 0.3187 0.7545 0.5119
H154_4 H 0.4359 0.6813 0.5119
C170_4 C 0.4120(6) 0.7273(4) 0.6044(7)
C171_4 C 0.3154(4) 0.5880(6) 0.6044(7)
H155_4 H 0.3908 0.7006 0.6071
H156_4 H 0.3099 0.6092 0.6071
H157_4 H 0.4251 0.7296 0.5696
H158_4 H 0.3046 0.5749 0.5696
C172_4 C 0.43837(16) 0.73284(10) 0.6464(3)
C173_4 C 0.29448(13) 0.56163(16) 0.6464(3)
C174_4 C 0.47807(16) 0.74829(9) 0.6347(3)
C175_4 C 0.27023(13) 0.52193(16) 0.6347(3)
H159_4 H 0.4871 0.7535 0.5985
H160_4 H 0.2665 0.5129 0.5985
C176_4 C 0.50332(21) 0.75546(13) 0.6774(3)
C177_4 C 0.25215(16) 0.49668(21) 0.6774(3)
H161_4 H 0.5297 0.7657 0.6697
H162_4 H 0.2361 0.4703 0.6697
C178_4 C 0.4909(3) 0.7479(2) 0.7319(3)
C179_4 C 0.2571(2) 0.5091(3) 0.7319(3)
H163_4 H 0.5087 0.7531 0.7603
H164_4 H 0.2445 0.4913 0.7603
C180_4 C 0.4518(3) 0.7326(2) 0.7433(3)
C181_4 C 0.2809(2) 0.5482(3) 0.7433(3)
H165_4 H 0.4428 0.7272 0.7795
H166_4 H 0.2845 0.5572 0.7795
C182_4 C 0.4267(3) 0.7256(2) 0.7012(3)
C183_4 C 0.2990(2) 0.5733(3) 0.7012(3)
H167_4 H 0.4005 0.7155 0.7093
H168_4 H 0.3151 0.5995 0.7093
N5_4 N 0.9252(2) 0.4443(2) 0.4507(3)
N6_4 N 0.9395(2) 0.4051(2) 0.2983(3)
O9_4 O 0.95152(18) 0.43593(19) 0.4566(3)
O10_4 O 0.92557(19) 0.46455(18) 0.4112(3)
O11_4 O 0.9023(2) 0.4396(3) 0.4899(3)
O12_4 O 0.97193(18) 0.43193(18) 0.2824(3)
O13_4 O 0.9255(2) 0.4073(2) 0.3432(3)
O14_4 O 0.9244(3) 0.37330(19) 0.2716(4)
C10_4 C 0.9614(2) 0.5655(3) 0.5869(4)
H14_4 H 0.9467 0.5716 0.6108
C11_4 C 0.9449(3) 0.5411(3) 0.5425(4)
H15_4 H 0.9178 0.5267 0.5401
C12_4 C 0.9666(2) 0.5369(3) 0.5012(4)
H16_4 H 0.9538 0.5205 0.4715
H32_4 H 0.9797 0.6057 0.7281
C32_4 C 0.9999(2) 0.65496(19) 0.6845(3)
H33_4 H 0.9762 0.6492 0.6687
N1_5 N 0.0853(3) 0.2707(3) 0.2756(5)
H1_5 H 0.0651 0.2603 0.2967
N3_5 N 0.1282(2) 0.2597(2) 0.5737(3)
H3_5 H 0.1236 0.2380 0.5591
N4_5 N 0.0211(3) 0.0838(3) 0.4346(5)
H4_5 H 0.0347 0.0998 0.4604
N5_5 N 0.2223(2) 0.4082(2) 0.2841(3)
N6_5 N 0.2615(2) 0.3939(2) 0.1317(3)
N7_5 N 0.23314(18) 0.3091(2) 0.2521(3)
O1_5 O 0.0702(2) 0.2691(2) 0.3859(3)
O3_5 O 0.0533(2) 0.2118(2) 0.5335(3)
O4_5 O 0.0683(2) 0.16600(19) 0.4154(3)
O5_5 O 0.14054(18) 0.32195(18) 0.2506(3)
O7_3 O 0.12666(19) 0.29344(19) 0.6473(3)
O8_5 O 0.02827(16) 0.05378(15) 0.3630(3)
O9_5 O 0.23073(19) 0.38182(18) 0.2900(3)
O10_5 O 0.20211(18) 0.40777(19) 0.2446(3)
O11_5 O 0.2270(3) 0.4311(2) 0.3233(3)
O12_5 O 0.23473(18) 0.36141(18) 0.1158(3)
O13_5 O 0.2593(2) 0.4079(2) 0.1766(3)
O14_5 O 0.29336(19) 0.4090(3) 0.1050(4)
O15_5 O 0.25018(19) 0.3319(2) 0.2122(3)
O16_5 O 0.19824(14) 0.29986(19) 0.2634(3)
O17_5 O 0.24509(19) 0.2870(2) 0.2694(4)
C1_5 C 0.04140(19) 0.2073(2) 0.4361(4)
C2_5 C 0.0475(2) 0.2489(2) 0.4395(4)
H5_5 H 0.0625 0.2624 0.4720
H6_5 H 0.0227 0.2482 0.4407
C3_5 C 0.0130(2) 0.1871(2) 0.3890(4)
H7_5 H 0.0090 0.1611 0.3831
H8_5 H 0.0226 0.2020 0.3551
C4_5 C 0.0268(3) 0.1870(3) 0.4867(4)
H9_5 H 0.0262 0.1622 0.4854
H10_5 H 0.0004 0.1819 0.4929
C5_5 C 0.0789(3) 0.2091(3) 0.4256(5)
H11_5 H 0.0961 0.2199 0.4573
H12_5 H 0.0917 0.2251 0.3936
C6_5 C 0.1130(3) 0.3048(3) 0.2833(5)
C7_5 C 0.1096(3) 0.3258(2) 0.3365(4)
C8_5 C 0.0867(2) 0.3098(2) 0.3844(3)
C9_5 C 0.0858(3) 0.3315(2) 0.4276(4)
H13_5 H 0.0753 0.3198 0.4614
C10_5 C 0.1011(3) 0.3720(2) 0.4203(4)
H14_5 H 0.0950 0.3867 0.4442
C11_5 C 0.1255(3) 0.3885(3) 0.3759(4)
H15_5 H 0.1399 0.4156 0.3735
C12_5 C 0.1297(3) 0.3668(2) 0.3346(4)
H16_5 H 0.1461 0.3796 0.3049
C13_5 C 0.0892(4) 0.2515(3) 0.2324(6)
H17_5 H 0.1149 0.2542 0.2338
H18_5 H 0.0875 0.2636 0.1985
C14_5 C 0.05874(11) 0.20808(14) 0.23062(15)
C15_5 C 0.06547(11) 0.18063(16) 0.25734(14)
H19_5 H 0.0886 0.1885 0.2766
C16_5 C 0.03737(15) 0.14205(18) 0.2547(2)
H20_5 H 0.0416 0.1236 0.2722
C17_5 C 0.00351(19) 0.1301(2) 0.2271(3)
C19_5 C 0.02398(19) 0.1954(2) 0.2031(3)
H23_5 H 0.0191 0.2137 0.1862
C30_5 C 0.02853(19) 0.29645(14) 0.5773(2)
H31_5 H 0.0461 0.2955 0.6018
C31_5 C 0.03734(19) 0.3314(2) 0.5534(3)
H32_5 H 0.0609 0.3537 0.5615
C32_5 C 0.01170(19) 0.3335(2) 0.5179(3)
H33_5 H 0.0174 0.3572 0.5021
C34_5 C 0.1066(2) 0.2623(3) 0.6152(4)
C35_5 C 0.0681(2) 0.23101(18) 0.6258(3)
C36_5 C 0.0417(2) 0.20470(18) 0.5867(3)
C37_5 C 0.0064(2) 0.17381(19) 0.6017(3)
C39_5 C 0.0212(2) 0.19233(19) 0.6951(3)
H37_5 H 0.0120 0.1909 0.7309
C40_5 C 0.0574(2) 0.2221(2) 0.6812(3)
H38_5 H 0.0751 0.2365 0.7089
C41_5 C 0.1605(3) 0.2978(2) 0.5564(4)
H39_5 H 0.1513 0.3162 0.5515
H40_5 H 0.1809 0.3081 0.5842
C42_5 C 0.17626(12) 0.29240(8) 0.5032(2)
C43_5 C 0.16906(13) 0.30891(7) 0.4567(3)
H41_5 H 0.1535 0.3204 0.4597
C44_5 C 0.18479(16) 0.30809(11) 0.4072(3)
H42_5 H 0.1799 0.3193 0.3767
C45_5 C 0.2075(2) 0.2915(2) 0.4008(3)
H43_5 H 0.2176 0.2911 0.3663
C46_5 C 0.2155(2) 0.2752(2) 0.4461(3)
H44_5 H 0.2313 0.2641 0.4426
C47_5 C 0.19955(19) 0.27569(19) 0.4962(3)
H45_5 H 0.2046 0.2645 0.5265
C48_5 C 0.0358(3) 0.0802(3) 0.3919(5)
C49_5 C 0.07945(14) 0.11883(16) 0.37853(14)
C50_5 C 0.09586(14) 0.15931(16) 0.39096(13)
C51_5 C 0.13393(17) 0.1893(2) 0.38205(18)
H46_5 H 0.1414 0.2149 0.3918
C52_5 C 0.1607(2) 0.1804(2) 0.3582(3)
H47_5 H 0.1864 0.1996 0.3520
C53_5 C 0.1474(2) 0.1421(2) 0.3443(3)
H48_5 H 0.1644 0.1354 0.3275
C54_5 C 0.1093(2) 0.1133(3) 0.3547(3)
H49_5 H 0.1025 0.0879 0.3453
N12_5 N 0.2822(3) 0.0656(2) 0.4665(4)
H60_5 H 0.2721 0.0438 0.4488
N24_5 N 0.06785(28) 0.0458(2) 0.2419(3)
O24_5 O 0.20973(25) 0.02444(17) 0.4075(3)
O38_3 O 0.16677(27) 0.29344(19) 0.1473(3)
O62_5 O 0.06916(25) 0.02791(19) 0.2836(3)
O64_5 O 0.03759(26) 0.0466(2) 0.2310(3)
O65_5 O 0.0953(3) 0.0597(2) 0.2083(4)
H98_5 H 0.1189 0.0152 0.2266
C97_5 C 0.1602(3) 0.0037(2) 0.1998(3)
H100_5 H 0.1748 0.0265 0.1798
C101_5 C 0.2758(4) 0.0951(2) 0.4510(5)
C103_5 C 0.2503(3) 0.0916(2) 0.4011(4)
C105_5 C 0.2188(3) 0.0580(2) 0.3778(4)
C107_5 C 0.1982(4) 0.0564(2) 0.3311(4)
H104_5 H 0.1773 0.0330 0.3184
C109_5 C 0.2104(3) 0.0919(2) 0.3037(5)
H106_5 H 0.1994 0.0922 0.2699
C111_5 C 0.2382(4) 0.1259(3) 0.3263(4)
H108_5 H 0.2436 0.1496 0.3105
C113_5 C 0.2584(4) 0.1259(2) 0.3718(4)
H110_5 H 0.2787 0.1497 0.3843
C115_5 C 0.3070(4) 0.0729(2) 0.5146(4)
H112_5 H 0.3006 0.0854 0.5441
H114_4 H 0.3344 0.0886 0.5054
C117_5 C 0.29644(18) 0.03197(15) 0.52943(15)
C119_5 C 0.26868(21) 0.00599(18) 0.56570(14)
H116_5 H 0.2507 0.0116 0.5820
C127_5 C 0.32258(27) 0.02225(19) 0.5058(3)
H124_4 H 0.3411 0.0396 0.4810
H126_5 H 0.1708 0.0119 0.5748
C137_5 C 0.16667(36) 0.0021(3) 0.6574(3)
H128_5 H 0.1633 0.0228 0.6686
C171_5 C 0.0786(6) 0.0180(4) 0.4378(7)
H156_5 H 0.0574 0.0235 0.4405
H158_5 H 0.0917 0.0288 0.4030
C173_5 C 0.10503(16) 0.03886(13) 0.4798(3)
C175_5 C 0.14473(16) 0.06311(13) 0.4681(3)
H160_5 H 0.1537 0.0669 0.4319
C177_5 C 0.16998(21) 0.08119(16) 0.5108(3)
H162_5 H 0.1963 0.0973 0.5031
C179_5 C 0.1575(3) 0.0763(2) 0.5653(3)
H164_5 H 0.1753 0.0889 0.5937
C181_5 C 0.1184(3) 0.0525(2) 0.5767(3)
H166_5 H 0.1094 0.0489 0.6129
C183_5 C 0.0933(3) 0.0344(2) 0.5346(3)
H168_5 H 0.0671 0.0183 0.5427
Tb2_5 Tb 0.0000 1.0000 0.30341(3)
N10_5 N 0.1853(4) 0.9147(3) 0.2756(5)
H58_5 H 0.1951 0.9349 0.2967
N14_5 N 0.1314(3) 0.8718(2) 0.5737(3)
H62_5 H 0.1143 0.8764 0.5591
N16_5 N 0.0626(4) 0.9789(3) 0.4346(5)
H64_5 H 0.0650 0.9653 0.4604
N18_5 N 0.1858(3) 0.7777(2) 0.2841(3)
N20_5 N 0.1323(3) 0.7385(2) 0.1317(3)
N22_5 N 0.07592(27) 0.76686(18) 0.2521(3)
O22_5 O 0.1988(3) 0.9298(2) 0.3859(3)
O26_5 O 0.1584(3) 0.9467(2) 0.5335(3)
O28_5 O 0.09766(28) 0.9317(2) 0.4154(3)
O30_5 O 0.18140(25) 0.85946(18) 0.2506(3)
O37_3 O 0.16677(27) 0.87334(19) 0.6473(3)
O40_3 O 0.12666(19) 0.83323(27) 0.1473(3)
O42_5 O 0.02550(22) 0.97173(16) 0.3630(3)
O44_5 O 0.15108(26) 0.76927(19) 0.2900(3)
O46_5 O 0.20565(26) 0.79789(18) 0.2446(3)
O48_5 O 0.2040(4) 0.7730(3) 0.3233(3)
O50_5 O 0.12667(25) 0.76527(18) 0.1158(3)
O52_5 O 0.1485(3) 0.7407(2) 0.1766(3)
O54_5 O 0.11560(36) 0.70664(19) 0.1050(4)
O56_5 O 0.08168(28) 0.74982(19) 0.2122(3)
O58_5 O 0.10161(24) 0.80176(14) 0.2634(3)
O60_5 O 0.04187(28) 0.75491(19) 0.2694(4)
O63_5 O 0.00897(17) 0.96241(26) 0.2310(3)
C63_5 C 0.16586(28) 0.95860(19) 0.4361(4)
C65_5 C 0.2013(3) 0.9525(2) 0.4395(4)
H66_5 H 0.1998 0.9375 0.4720
H68_5 H 0.2254 0.9773 0.4407
C67_5 C 0.1740(3) 0.9870(2) 0.3890(4)
H70_5 H 0.1520 0.9910 0.3831
H72_5 H 0.1793 0.9774 0.3551
C69_5 C 0.1601(4) 0.9732(3) 0.4867(4)
H74_5 H 0.1359 0.9738 0.4854
H76_5 H 0.1814 0.9996 0.4929
C71_5 C 0.1301(4) 0.9211(3) 0.4256(5)
H78_5 H 0.1237 0.9039 0.4573
H80_5 H 0.1333 0.9083 0.3936
C73_5 C 0.1917(4) 0.8870(3) 0.2833(5)
C75_5 C 0.2161(4) 0.8904(3) 0.3365(4)
C77_5 C 0.2230(3) 0.9133(2) 0.3844(3)
C79_5 C 0.2456(4) 0.9142(3) 0.4276(4)
H82_5 H 0.2444 0.9247 0.4614
C81_5 C 0.2708(4) 0.8989(3) 0.4203(4)
H84_5 H 0.2916 0.9050 0.4442
C83_5 C 0.2629(4) 0.8745(3) 0.3759(4)
H86_5 H 0.2756 0.8601 0.3735
C85_5 C 0.2370(4) 0.8703(3) 0.3346(4)
H88_5 H 0.2334 0.8539 0.3049
C87_5 C 0.1622(5) 0.9108(4) 0.2324(6)
H90_5 H 0.1392 0.8851 0.2338
H92_5 H 0.1760 0.9125 0.1985
C89_5 C 0.14933(18) 0.94126(11) 0.23062(15)
C91_5 C 0.11515(19) 0.93453(11) 0.25734(14)
H94_5 H 0.0998 0.9114 0.2766
C93_5 C 0.10467(23) 0.96263(15) 0.2547(2)
H96_5 H 0.0819 0.9584 0.2722
C95_5 C 0.12655(28) 0.99649(19) 0.2271(3)
C99_5 C 0.17138(28) 0.97602(19) 0.2031(3)
H102_5 H 0.1945 0.9809 0.1862
C121_5 C 0.26791(24) 0.97147(19) 0.5773(2)
H118_5 H 0.2493 0.9539 0.6018
C123_5 C 0.29402(28) 0.96266(19) 0.5534(3)
H120_5 H 0.2927 0.9391 0.5615
C125_5 C 0.32176(28) 0.98830(19) 0.5179(3)
H122_4 H 0.3397 0.9826 0.5021
C129_5 C 0.1556(4) 0.8934(2) 0.6152(4)
C131_5 C 0.16287(27) 0.9319(2) 0.6258(3)
C133_5 C 0.16296(27) 0.9583(2) 0.5867(3)
C135_5 C 0.16737(28) 0.9936(2) 0.6017(3)
C139_5 C 0.17109(28) 0.9788(2) 0.6951(3)
H130_5 H 0.1788 0.9880 0.7309
C141_5 C 0.1646(3) 0.9426(2) 0.6812(3)
H132_5 H 0.1613 0.9249 0.7089
C143_5 C 0.1372(4) 0.8395(3) 0.5564(4)
H134_5 H 0.1648 0.8487 0.5515
H136_5 H 0.1271 0.8191 0.5842
C145_5 C 0.11613(14) 0.82374(12) 0.5032(2)
C147_5 C 0.13984(15) 0.83094(13) 0.4567(3)
H138_5 H 0.1668 0.8465 0.4597
C149_5 C 0.12329(19) 0.81521(16) 0.4072(3)
H140_5 H 0.1393 0.8201 0.3767
C151_5 C 0.0839(3) 0.7925(2) 0.4008(3)
H142_5 H 0.0734 0.7824 0.3663
C153_5 C 0.0596(3) 0.7845(2) 0.4461(3)
H144_5 H 0.0327 0.7687 0.4426
C155_5 C 0.07613(27) 0.80045(19) 0.4962(3)
H146_5 H 0.0598 0.7954 0.5265
C157_5 C 0.0443(4) 0.9642(3) 0.3919(5)
C159_5 C 0.03937(21) 0.92055(14) 0.37853(14)
C161_5 C 0.06344(21) 0.90414(14) 0.39096(13)
C163_5 C 0.05533(26) 0.86607(17) 0.38205(18)
H148_5 H 0.0734 0.8586 0.3918
C165_5 C 0.0196(3) 0.8393(2) 0.3582(3)
H150_5 H 0.0131 0.8136 0.3520
C169_5 C 0.0039(4) 0.8907(2) 0.3547(3)
N2_5 N 0.9344(2) 0.2167(2) 0.4665(4)
H2_5 H 0.9562 0.2284 0.4488
N8_5 N 0.9542(2) 0.02209(19) 0.2419(3)
O2_5 O 0.97556(17) 0.18530(19) 0.4075(3)
O18_5 O 0.97209(19) 0.04126(17) 0.2836(3)
O20_5 O 0.9403(2) 0.0357(2) 0.2083(4)
H21_5 H 0.9848 0.1038 0.2266
C18_5 C 0.9963(2) 0.1566(2) 0.1998(3)
H22_5 H 0.9735 0.1484 0.1798
C20_5 C 0.9049(2) 0.1808(3) 0.4510(5)
C21_5 C 0.9084(2) 0.1588(2) 0.4011(4)
C22_5 C 0.9420(2) 0.1609(2) 0.3778(4)
C23_5 C 0.9436(2) 0.1419(3) 0.3311(4)
H24_5 H 0.9670 0.1444 0.3184
C24_5 C 0.9081(2) 0.1186(2) 0.3037(5)
H25_5 H 0.9078 0.1073 0.2699
C25_5 C 0.8741(3) 0.1124(2) 0.3263(4)
H26_5 H 0.8504 0.0941 0.3105
C26_5 C 0.8741(2) 0.1326(3) 0.3718(4)
H27_5 H 0.8503 0.1291 0.3843
C27_5 C 0.9271(2) 0.2342(3) 0.5146(4)
H28_5 H 0.9146 0.2153 0.5441
H29_5 H 0.9114 0.2459 0.5054
C28_5 C 0.96803(15) 0.26448(10) 0.52943(15)
C29_5 C 0.99401(18) 0.26270(10) 0.56570(14)
H30_5 H 0.9884 0.2392 0.5820
C33_5 C 0.97775(19) 0.30034(19) 0.5058(3)
H34_5 H 0.9604 0.3016 0.4810
H35_5 H 0.9881 0.1590 0.5748
C38_5 C 0.9979(3) 0.16461(19) 0.6574(3)
H36_5 H 0.9772 0.1406 0.6686
C55_5 C 0.9820(4) 0.0607(4) 0.4378(7)
H50_5 H 0.9765 0.0340 0.4405
H51_5 H 0.9712 0.0630 0.4030
C56_5 C 0.96114(13) 0.06618(10) 0.4798(3)
C57_5 C 0.93689(13) 0.08163(9) 0.4681(3)
H52_5 H 0.9331 0.0869 0.4319
C58_5 C 0.91881(16) 0.08880(13) 0.5108(3)
H53_5 H 0.9027 0.0991 0.5031
C59_5 C 0.9237(2) 0.0813(2) 0.5653(3)
H54_5 H 0.9111 0.0865 0.5937
C60_5 C 0.9475(2) 0.0660(2) 0.5767(3)
H55_5 H 0.9511 0.0606 0.6129
C61_5 C 0.9656(2) 0.0590(2) 0.5346(3)
H56_5 H 0.9817 0.0489 0.5427
C166_5 C 0.8579(2) 0.0054(3) 0.3443(3)
H151_5 H 0.8646 0.0291 0.3275
H153_5 H 0.9121 0.0147 0.3453
O19_5 O 0.9534(2) 0.99103(17) 0.2310(3)
N9_5 N 0.7293(3) 0.8147(4) 0.2756(5)
H57_5 H 0.7397 0.8049 0.2967
N11_5 N 0.7833(2) 0.7178(3) 0.4665(4)
H59_5 H 0.7716 0.7279 0.4488
N13_5 N 0.7403(2) 0.8686(3) 0.5737(3)
H61_5 H 0.7620 0.8857 0.5591
N15_5 N 0.9162(3) 0.9374(4) 0.4346(5)
H63_5 H 0.9002 0.9350 0.4604
N17_5 N 0.5918(2) 0.8142(3) 0.2841(3)
N19_5 N 0.6061(2) 0.8677(3) 0.1317(3)
N21_5 N 0.6909(2) 0.92408(27) 0.2521(3)
N23_5 N 0.97791(19) 0.93215(28) 0.2419(3)
O21_5 O 0.7309(2) 0.8012(3) 0.3859(3)
O23_5 O 0.81470(19) 0.79027(25) 0.4075(3)
O25_5 O 0.7882(2) 0.8416(3) 0.5335(3)
O27_5 O 0.83400(19) 0.90234(28) 0.4154(3)
O29_5 O 0.67805(18) 0.81860(25) 0.2506(3)
O36_3 O 0.70656(19) 0.83323(27) 0.6473(3)
O39_3 O 0.70656(19) 0.87334(19) 0.1473(3)
O41_5 O 0.94622(15) 0.97450(22) 0.3630(3)
O43_5 O 0.61818(18) 0.84892(26) 0.2900(3)
O45_5 O 0.59223(19) 0.79435(26) 0.2446(3)
O47_5 O 0.5689(2) 0.7960(4) 0.3233(3)
O49_5 O 0.63859(18) 0.87333(25) 0.1158(3)
O51_5 O 0.5921(2) 0.8515(3) 0.1766(3)
O53_5 O 0.5910(3) 0.88440(36) 0.1050(4)
O55_5 O 0.6681(2) 0.91832(28) 0.2122(3)
O57_5 O 0.70014(19) 0.89839(24) 0.2634(3)
O59_5 O 0.7130(2) 0.95813(28) 0.2694(4)
O61_5 O 0.95874(17) 0.93084(25) 0.2836(3)
O66_5 O 0.9643(2) 0.9047(3) 0.2083(4)
C62_5 C 0.7927(2) 0.83414(28) 0.4361(4)
C64_5 C 0.7511(2) 0.7987(3) 0.4395(4)
H65_5 H 0.7376 0.8002 0.4720
H67_5 H 0.7518 0.7746 0.4407
C66_5 C 0.8129(2) 0.8260(3) 0.3890(4)
H69_5 H 0.8389 0.8480 0.3831
H71_5 H 0.7980 0.8207 0.3551
C68_5 C 0.8130(3) 0.8399(4) 0.4867(4)
H73_5 H 0.8378 0.8641 0.4854
H75_5 H 0.8181 0.8186 0.4929
C70_5 C 0.7909(3) 0.8699(4) 0.4256(5)
H77_5 H 0.7801 0.8763 0.4573
H79_5 H 0.7749 0.8667 0.3936
C72_5 C 0.6952(3) 0.8083(4) 0.2833(5)
C74_5 C 0.6742(2) 0.7839(4) 0.3365(4)
C76_5 C 0.6902(2) 0.7770(3) 0.3844(3)
C78_5 C 0.6685(2) 0.7544(4) 0.4276(4)
H81_5 H 0.6802 0.7556 0.4614
C80_5 C 0.6280(2) 0.7292(4) 0.4203(4)
H83_5 H 0.6133 0.7084 0.4442
C82_5 C 0.6115(3) 0.7371(4) 0.3759(4)
H85_5 H 0.5844 0.7244 0.3735
C84_5 C 0.6332(2) 0.7630(4) 0.3346(4)
H87_5 H 0.6204 0.7666 0.3049
C86_5 C 0.7485(3) 0.8378(5) 0.2324(6)
H89_5 H 0.7458 0.8608 0.2338
H91_5 H 0.7364 0.8240 0.1985
C88_5 C 0.79192(14) 0.85067(18) 0.23062(15)
C90_5 C 0.81937(16) 0.88485(19) 0.25734(14)
H93_5 H 0.8115 0.9002 0.2766
C92_5 C 0.85795(18) 0.89533(23) 0.2547(2)
H95_5 H 0.8764 0.9181 0.2722
C94_5 C 0.8699(2) 0.87345(28) 0.2271(3)
H97_5 H 0.8962 0.8811 0.2266
C96_5 C 0.8434(2) 0.8398(3) 0.1998(3)
H99_5 H 0.8516 0.8252 0.1798
C98_5 C 0.8046(2) 0.82862(28) 0.2031(3)
H101_5 H 0.7863 0.8055 0.1862
C100_5 C 0.8192(3) 0.7242(4) 0.4510(5)
C102_5 C 0.8412(2) 0.7497(3) 0.4011(4)
C104_5 C 0.8391(2) 0.7812(3) 0.3778(4)
C106_5 C 0.8581(3) 0.8018(4) 0.3311(4)
H103_5 H 0.8556 0.8227 0.3184
C108_5 C 0.8814(2) 0.7896(3) 0.3037(5)
H105_5 H 0.8927 0.8006 0.2699
C110_5 C 0.8876(2) 0.7618(4) 0.3263(4)
H107_5 H 0.9059 0.7564 0.3105
C112_5 C 0.8674(3) 0.7416(4) 0.3718(4)
H109_5 H 0.8709 0.7213 0.3843
C114_5 C 0.7658(3) 0.6930(4) 0.5146(4)
H111_5 H 0.7847 0.6994 0.5441
H113_3 H 0.7541 0.6656 0.5054
C116_5 C 0.73552(10) 0.70356(18) 0.52943(15)
C118_5 C 0.73730(10) 0.73132(21) 0.56570(14)
H115_5 H 0.7608 0.7493 0.5820
C120_5 C 0.70355(14) 0.73209(24) 0.5773(2)
H117_5 H 0.7045 0.7507 0.6018
C122_5 C 0.6686(2) 0.70598(28) 0.5534(3)
H119_5 H 0.6463 0.7073 0.5615
C124_5 C 0.6665(2) 0.67824(28) 0.5179(3)
H121_3 H 0.6428 0.6603 0.5021
C126_5 C 0.69966(19) 0.67742(27) 0.5058(3)
H123_3 H 0.6984 0.6589 0.4810
C128_5 C 0.7377(3) 0.8444(4) 0.6152(4)
C130_5 C 0.76899(18) 0.83713(27) 0.6258(3)
C132_5 C 0.79530(18) 0.83704(27) 0.5867(3)
C134_5 C 0.82619(19) 0.83263(28) 0.6017(3)
H125_5 H 0.8410 0.8292 0.5748
C136_5 C 0.83539(19) 0.83333(36) 0.6574(3)
H127_5 H 0.8594 0.8367 0.6686
C138_5 C 0.80767(19) 0.82891(28) 0.6951(3)
H129_5 H 0.8091 0.8212 0.7309
C140_5 C 0.7779(2) 0.8354(3) 0.6812(3)
H131_5 H 0.7635 0.8387 0.7089
C142_5 C 0.7022(2) 0.8628(4) 0.5564(4)
H133_5 H 0.6838 0.8352 0.5515
H135_5 H 0.6919 0.8729 0.5842
C144_5 C 0.70760(8) 0.88387(14) 0.5032(2)
C146_5 C 0.69109(7) 0.86016(15) 0.4567(3)
H137_5 H 0.6796 0.8332 0.4597
C148_5 C 0.69191(11) 0.87671(19) 0.4072(3)
H139_5 H 0.6807 0.8607 0.3767
C150_5 C 0.7085(2) 0.9161(3) 0.4008(3)
H141_5 H 0.7089 0.9266 0.3663
C152_5 C 0.7248(2) 0.9404(3) 0.4461(3)
H143_5 H 0.7359 0.9673 0.4426
C154_5 C 0.72431(19) 0.92387(27) 0.4962(3)
H145_5 H 0.7355 0.9402 0.5265
C156_5 C 0.9198(3) 0.9557(4) 0.3919(5)
C158_5 C 0.88117(16) 0.96063(21) 0.37853(14)
C160_5 C 0.84069(16) 0.93656(21) 0.39096(13)
C162_5 C 0.8107(2) 0.94467(26) 0.38205(18)
H147_5 H 0.7851 0.9266 0.3918
C164_5 C 0.8196(2) 0.9804(3) 0.3582(3)
H149_5 H 0.8004 0.9869 0.3520
C167_5 C 0.9946(3) 0.8526(2) 0.3443(3)
H152_5 H 0.9709 0.8356 0.3275
C168_5 C 0.8867(3) 0.9961(4) 0.3547(3)
H154_5 H 0.9853 0.8975 0.3453
C170_5 C 0.9393(4) 0.9214(6) 0.4378(7)
H155_5 H 0.9660 0.9426 0.4405
H157_5 H 0.9370 0.9083 0.4030
C172_5 C 0.93382(10) 0.89497(16) 0.4798(3)
C174_5 C 0.91837(9) 0.85527(16) 0.4681(3)
H159_5 H 0.9131 0.8463 0.4319
C176_5 C 0.91120(13) 0.83002(21) 0.5108(3)
H161_5 H 0.9009 0.8037 0.5031
C178_5 C 0.9187(2) 0.8425(3) 0.5653(3)
H163_5 H 0.9135 0.8247 0.5937
C180_5 C 0.9340(2) 0.8816(3) 0.5767(3)
H165_5 H 0.9394 0.8906 0.6129
C182_5 C 0.9410(2) 0.9067(3) 0.5346(3)
H167_5 H 0.9511 0.9329 0.5427
Tb2_6 Tb 0.0000 0.0001 0.30341(3)
Tb2_7 Tb 0.9999 1.0000 0.30341(3)
N13_6 N 0.1314(3) 0.2597(2) 0.0737(3)
H61_6 H 0.1143 0.2380 0.0591
O25_6 O 0.1584(3) 0.2118(2) 0.0335(3)
C114_6 C 0.3070(4) 0.2342(3) 0.0146(4)
H111_6 H 0.3006 0.2153 0.0441
H113_4 H 0.3344 0.2459 0.0054
C116_6 C 0.29644(18) 0.26448(10) 0.02943(15)
C118_6 C 0.26868(21) 0.26270(10) 0.06570(14)
H115_6 H 0.2507 0.2392 0.0820
C120_6 C 0.26791(24) 0.29645(14) 0.0773(2)
H117_6 H 0.2493 0.2955 0.1018
C122_6 C 0.29402(28) 0.3314(2) 0.0534(3)
H119_6 H 0.2927 0.3537 0.0615
C124_6 C 0.32176(28) 0.3335(2) 0.0179(3)
H121_4 H 0.3397 0.3572 0.0021
C126_6 C 0.32258(27) 0.30034(19) 0.0058(3)
C128_6 C 0.1556(4) 0.2623(3) 0.1152(4)
C130_6 C 0.16287(27) 0.23101(18) 0.1258(3)
C132_6 C 0.16296(27) 0.20470(18) 0.0867(3)
C134_6 C 0.16737(28) 0.17381(19) 0.1017(3)
H125_6 H 0.1708 0.1590 0.0748
C136_6 C 0.16667(36) 0.16461(19) 0.1574(3)
H127_6 H 0.1633 0.1406 0.1686
C138_6 C 0.17109(28) 0.19233(19) 0.1951(3)
H129_6 H 0.1788 0.1909 0.2309
C140_6 C 0.1646(3) 0.2221(2) 0.1812(3)
H131_6 H 0.1613 0.2365 0.2089
C142_6 C 0.1372(4) 0.2978(2) 0.0564(4)
H133_6 H 0.1648 0.3162 0.0515
H135_6 H 0.1271 0.3081 0.0842
C144_6 C 0.11613(14) 0.29240(8) 0.0032(2)
H145_6 H 0.0598 0.2645 0.0265
C176_6 C 0.16998(21) 0.08880(13) 0.0108(3)
H161_6 H 0.1963 0.0991 0.0031
C178_6 C 0.1575(3) 0.0813(2) 0.0653(3)
H163_6 H 0.1753 0.0865 0.0937
C180_6 C 0.1184(3) 0.0660(2) 0.0767(3)
H165_6 H 0.1094 0.0606 0.1129
C182_6 C 0.0933(3) 0.0590(2) 0.0346(3)
H167_6 H 0.0671 0.0489 0.0427
O19_6 O 0.00897(17) 0.0466(2) 0.7310(3)
N9_6 N 0.1853(4) 0.2707(3) 0.7756(5)
H57_6 H 0.1951 0.2603 0.7967
N11_6 N 0.2822(3) 0.2167(2) 0.9665(4)
H59_6 H 0.2721 0.2284 0.9488
N15_6 N 0.0626(4) 0.0838(3) 0.9346(5)
H63_6 H 0.0650 0.0998 0.9604
N17_6 N 0.1858(3) 0.4082(2) 0.7841(3)
N19_6 N 0.1323(3) 0.3939(2) 0.6317(3)
N21_6 N 0.07592(27) 0.3091(2) 0.7521(3)
N23_6 N 0.06785(28) 0.02209(19) 0.7419(3)
O21_6 O 0.1988(3) 0.2691(2) 0.8859(3)
O23_6 O 0.20973(25) 0.18530(19) 0.9075(3)
O27_6 O 0.09766(28) 0.16600(19) 0.9154(3)
O29_6 O 0.18140(25) 0.32195(18) 0.7506(3)
O41_6 O 0.02550(22) 0.05378(15) 0.8630(3)
O43_6 O 0.15108(26) 0.38182(18) 0.7900(3)
O45_6 O 0.20565(26) 0.40777(19) 0.7446(3)
O47_6 O 0.2040(4) 0.4311(2) 0.8233(3)
O49_6 O 0.12667(25) 0.36141(18) 0.6158(3)
O51_6 O 0.1485(3) 0.4079(2) 0.6766(3)
O53_6 O 0.11560(36) 0.4090(3) 0.6050(4)
O55_6 O 0.08168(28) 0.3319(2) 0.7122(3)
O57_6 O 0.10161(24) 0.29986(19) 0.7634(3)
O59_6 O 0.04187(28) 0.2870(2) 0.7694(4)
O61_6 O 0.06916(25) 0.04126(17) 0.7836(3)
O66_6 O 0.0953(3) 0.0357(2) 0.7083(4)
C62_6 C 0.16586(28) 0.2073(2) 0.9361(4)
C64_6 C 0.2013(3) 0.2489(2) 0.9395(4)
H65_6 H 0.1998 0.2624 0.9720
H67_6 H 0.2254 0.2482 0.9407
C66_6 C 0.1740(3) 0.1871(2) 0.8890(4)
H69_6 H 0.1520 0.1611 0.8831
H71_6 H 0.1793 0.2020 0.8551
C68_6 C 0.1601(4) 0.1870(3) 0.9867(4)
H73_6 H 0.1359 0.1622 0.9854
H75_6 H 0.1814 0.1819 0.9929
C70_6 C 0.1301(4) 0.2091(3) 0.9256(5)
H77_6 H 0.1237 0.2199 0.9573
H79_6 H 0.1333 0.2251 0.8936
C72_6 C 0.1917(4) 0.3048(3) 0.7833(5)
C74_6 C 0.2161(4) 0.3258(2) 0.8365(4)
C76_6 C 0.2230(3) 0.3098(2) 0.8844(3)
C78_6 C 0.2456(4) 0.3315(2) 0.9276(4)
H81_6 H 0.2444 0.3198 0.9614
C80_6 C 0.2708(4) 0.3720(2) 0.9203(4)
H83_6 H 0.2916 0.3867 0.9442
C82_6 C 0.2629(4) 0.3885(3) 0.8759(4)
H85_6 H 0.2756 0.4156 0.8735
C84_6 C 0.2370(4) 0.3668(2) 0.8346(4)
H87_6 H 0.2334 0.3796 0.8049
C86_6 C 0.1622(5) 0.2515(3) 0.7324(6)
H89_6 H 0.1392 0.2542 0.7338
H91_6 H 0.1760 0.2636 0.6985
C88_6 C 0.14933(18) 0.20808(14) 0.73062(15)
C90_6 C 0.11515(19) 0.18063(16) 0.75734(14)
H93_6 H 0.0998 0.1885 0.7766
C92_6 C 0.10467(23) 0.14205(18) 0.7547(2)
H95_6 H 0.0819 0.1236 0.7722
C94_6 C 0.12655(28) 0.1301(2) 0.7271(3)
H97_6 H 0.1189 0.1038 0.7266
C96_6 C 0.1602(3) 0.1566(2) 0.6998(3)
H99_6 H 0.1748 0.1484 0.6798
C98_6 C 0.17138(28) 0.1954(2) 0.7031(3)
H101_6 H 0.1945 0.2137 0.6862
C100_6 C 0.2758(4) 0.1808(3) 0.9510(5)
C102_6 C 0.2503(3) 0.1588(2) 0.9011(4)
C104_6 C 0.2188(3) 0.1609(2) 0.8778(4)
C106_6 C 0.1982(4) 0.1419(3) 0.8311(4)
H103_6 H 0.1773 0.1444 0.8184
C108_6 C 0.2104(3) 0.1186(2) 0.8037(5)
H105_6 H 0.1994 0.1073 0.7699
C110_6 C 0.2382(4) 0.1124(2) 0.8263(4)
H107_6 H 0.2436 0.0941 0.8105
C112_6 C 0.2584(4) 0.1326(3) 0.8718(4)
H109_6 H 0.2787 0.1291 0.8843
H123_4 H 0.3411 0.3016 0.9810
C146_6 C 0.13984(15) 0.30891(7) 0.9567(3)
H137_6 H 0.1668 0.3204 0.9597
C148_6 C 0.12329(19) 0.30809(11) 0.9072(3)
H139_6 H 0.1393 0.3193 0.8767
C150_6 C 0.0839(3) 0.2915(2) 0.9008(3)
H141_6 H 0.0734 0.2911 0.8663
C152_6 C 0.0596(3) 0.2752(2) 0.9461(3)
H143_6 H 0.0327 0.2641 0.9426
C154_6 C 0.07613(27) 0.27569(19) 0.9962(3)
C156_6 C 0.0443(4) 0.0802(3) 0.8919(5)
C158_6 C 0.03937(21) 0.11883(16) 0.87853(14)
C160_6 C 0.06344(21) 0.15931(16) 0.89096(13)
C162_6 C 0.05533(26) 0.1893(2) 0.88205(18)
H147_6 H 0.0734 0.2149 0.8918
C164_6 C 0.0196(3) 0.1804(2) 0.8582(3)
H149_6 H 0.0131 0.1996 0.8520
C167_6 C 0.1474(2) 0.0054(3) 0.8443(3)
H152_6 H 0.1644 0.0291 0.8275
C168_6 C 0.0039(4) 0.1133(3) 0.8547(3)
H154_6 H 0.1025 0.0147 0.8453
C170_6 C 0.0786(6) 0.0607(4) 0.9378(7)
H155_6 H 0.0574 0.0340 0.9405
H157_6 H 0.0917 0.0630 0.9030
C172_6 C 0.10503(16) 0.06618(10) 0.9798(3)
C174_6 C 0.14473(16) 0.08163(9) 0.9681(3)
H159_6 H 0.1537 0.0869 0.9319
N14_6 N 0.1282(2) 0.8686(3) 0.0737(3)
H62_6 H 0.1236 0.8857 0.0591
O26_6 O 0.0533(2) 0.8416(3) 0.0335(3)
C121_6 C 0.02853(19) 0.73209(24) 0.0773(2)
H118_6 H 0.0461 0.7507 0.1018
C123_6 C 0.03734(19) 0.70598(28) 0.0534(3)
H120_6 H 0.0609 0.7073 0.0615
C125_6 C 0.01170(19) 0.67824(28) 0.0179(3)
H122_5 H 0.0174 0.6603 0.0021
C129_6 C 0.1066(2) 0.8444(4) 0.1152(4)
C131_6 C 0.0681(2) 0.83713(27) 0.1258(3)
C133_6 C 0.0417(2) 0.83704(27) 0.0867(3)
C135_6 C 0.0064(2) 0.83263(28) 0.1017(3)
C139_6 C 0.0212(2) 0.82891(28) 0.1951(3)
H130_6 H 0.0120 0.8212 0.2309
C141_6 C 0.0574(2) 0.8354(3) 0.1812(3)
H132_6 H 0.0751 0.8387 0.2089
C143_6 C 0.1605(3) 0.8628(4) 0.0564(4)
H134_6 H 0.1513 0.8352 0.0515
H136_6 H 0.1809 0.8729 0.0842
C145_6 C 0.17626(12) 0.88387(14) 0.0032(2)
H146_6 H 0.2046 0.9402 0.0265
Tb2_8 Tb 0.0000 1.0000 0.80341(3)
N10_6 N 0.0853(3) 0.8147(4) 0.7756(5)
H58_6 H 0.0651 0.8049 0.7967
N16_6 N 0.0211(3) 0.9374(4) 0.9346(5)
H64_6 H 0.0347 0.9350 0.9604
N18_6 N 0.2223(2) 0.8142(3) 0.7841(3)
N20_6 N 0.2615(2) 0.8677(3) 0.6317(3)
N22_6 N 0.23314(18) 0.92408(27) 0.7521(3)
O22_6 O 0.0702(2) 0.8012(3) 0.8859(3)
O28_6 O 0.0683(2) 0.90234(28) 0.9154(3)
O30_6 O 0.14054(18) 0.81860(25) 0.7506(3)
O42_6 O 0.02827(16) 0.97450(22) 0.8630(3)
O44_6 O 0.23073(19) 0.84892(26) 0.7900(3)
O46_6 O 0.20211(18) 0.79435(26) 0.7446(3)
O48_6 O 0.2270(3) 0.7960(4) 0.8233(3)
O50_6 O 0.23473(18) 0.87333(25) 0.6158(3)
O52_6 O 0.2593(2) 0.8515(3) 0.6766(3)
O54_6 O 0.29336(19) 0.88440(36) 0.6050(4)
O56_6 O 0.25018(19) 0.91832(28) 0.7122(3)
O58_6 O 0.19824(14) 0.89839(24) 0.7634(3)
O60_6 O 0.24509(19) 0.95813(28) 0.7694(4)
O63_6 O 0.03759(26) 0.99103(17) 0.7310(3)
C63_6 C 0.04140(19) 0.83414(28) 0.9361(4)
C65_6 C 0.0475(2) 0.7987(3) 0.9395(4)
H66_6 H 0.0625 0.8002 0.9720
H68_6 H 0.0227 0.7746 0.9407
C67_6 C 0.0130(2) 0.8260(3) 0.8890(4)
H70_6 H 0.0090 0.8480 0.8831
H72_6 H 0.0226 0.8207 0.8551
C69_6 C 0.0268(3) 0.8399(4) 0.9867(4)
H74_6 H 0.0262 0.8641 0.9854
H76_6 H 0.0004 0.8186 0.9929
C71_6 C 0.0789(3) 0.8699(4) 0.9256(5)
H78_6 H 0.0961 0.8763 0.9573
H80_6 H 0.0917 0.8667 0.8936
C73_6 C 0.1130(3) 0.8083(4) 0.7833(5)
C75_6 C 0.1096(3) 0.7839(4) 0.8365(4)
C77_6 C 0.0867(2) 0.7770(3) 0.8844(3)
C79_6 C 0.0858(3) 0.7544(4) 0.9276(4)
H82_6 H 0.0753 0.7556 0.9614
C81_6 C 0.1011(3) 0.7292(4) 0.9203(4)
H84_6 H 0.0950 0.7084 0.9442
C83_6 C 0.1255(3) 0.7371(4) 0.8759(4)
H86_6 H 0.1399 0.7244 0.8735
C85_6 C 0.1297(3) 0.7630(4) 0.8346(4)
H88_6 H 0.1461 0.7666 0.8049
C87_6 C 0.0892(4) 0.8378(5) 0.7324(6)
H90_6 H 0.1149 0.8608 0.7338
H92_6 H 0.0875 0.8240 0.6985
C89_6 C 0.05874(11) 0.85067(18) 0.73062(15)
C91_6 C 0.06547(11) 0.88485(19) 0.75734(14)
H94_6 H 0.0886 0.9002 0.7766
C93_6 C 0.03737(15) 0.89533(23) 0.7547(2)
H96_6 H 0.0416 0.9181 0.7722
C95_6 C 0.00351(19) 0.87345(28) 0.7271(3)
C99_6 C 0.02398(19) 0.82862(28) 0.7031(3)
H102_6 H 0.0191 0.8055 0.6862
C147_6 C 0.16906(13) 0.86016(15) 0.9567(3)
H138_6 H 0.1535 0.8332 0.9597
C149_6 C 0.18479(16) 0.87671(19) 0.9072(3)
H140_6 H 0.1799 0.8607 0.8767
C151_6 C 0.2075(2) 0.9161(3) 0.9008(3)
H142_6 H 0.2176 0.9266 0.8663
C153_6 C 0.2155(2) 0.9404(3) 0.9461(3)
H144_6 H 0.2313 0.9673 0.9426
C155_6 C 0.19955(19) 0.92387(27) 0.9962(3)
C157_6 C 0.0358(3) 0.9557(4) 0.8919(5)
C159_6 C 0.07945(14) 0.96063(21) 0.87853(14)
C161_6 C 0.09586(14) 0.93656(21) 0.89096(13)
C163_6 C 0.13393(17) 0.94467(26) 0.88205(18)
H148_6 H 0.1414 0.9266 0.8918
C165_6 C 0.1607(2) 0.9804(3) 0.8582(3)
H150_6 H 0.1864 0.9869 0.8520
C169_6 C 0.1093(2) 0.9961(4) 0.8547(3)
C27_6 C 0.7658(3) 0.0729(2) 0.0146(4)
H28_6 H 0.7847 0.0854 0.0441
H29_6 H 0.7541 0.0886 0.0054
C28_6 C 0.73552(10) 0.03197(15) 0.02943(15)
C29_6 C 0.73730(10) 0.00599(18) 0.06570(14)
H30_6 H 0.7608 0.0116 0.0820
C33_6 C 0.69966(19) 0.02225(19) 0.0058(3)
H35_6 H 0.8410 0.0119 0.0748
C38_6 C 0.83539(19) 0.0021(3) 0.1574(3)
H36_6 H 0.8594 0.0228 0.1686
C58_6 C 0.91120(13) 0.08119(16) 0.0108(3)
H53_6 H 0.9009 0.0973 0.0031
C59_6 C 0.9187(2) 0.0763(2) 0.0653(3)
H54_6 H 0.9135 0.0889 0.0937
C60_6 C 0.9340(2) 0.0525(2) 0.0767(3)
H55_6 H 0.9394 0.0489 0.1129
C61_6 C 0.9410(2) 0.0344(2) 0.0346(3)
H56_6 H 0.9511 0.0183 0.0427
N2_6 N 0.7833(2) 0.0656(2) 0.9665(4)
H2_6 H 0.7716 0.0438 0.9488
N8_6 N 0.97791(19) 0.0458(2) 0.7419(3)
O2_6 O 0.81470(19) 0.02444(17) 0.9075(3)
O18_6 O 0.95874(17) 0.02791(19) 0.7836(3)
O20_6 O 0.9643(2) 0.0597(2) 0.7083(4)
H21_6 H 0.8962 0.0152 0.7266
C18_6 C 0.8434(2) 0.0037(2) 0.6998(3)
H22_6 H 0.8516 0.0265 0.6798
C20_6 C 0.8192(3) 0.0951(2) 0.9510(5)
C21_6 C 0.8412(2) 0.0916(2) 0.9011(4)
C22_6 C 0.8391(2) 0.0580(2) 0.8778(4)
C23_6 C 0.8581(3) 0.0564(2) 0.8311(4)
H24_6 H 0.8556 0.0330 0.8184
C24_6 C 0.8814(2) 0.0919(2) 0.8037(5)
H25_6 H 0.8927 0.0922 0.7699
C25_6 C 0.8876(2) 0.1259(3) 0.8263(4)
H26_6 H 0.9059 0.1496 0.8105
C26_6 C 0.8674(3) 0.1259(2) 0.8718(4)
H27_6 H 0.8709 0.1497 0.8843
H34_6 H 0.6984 0.0396 0.9810
C55_6 C 0.9393(4) 0.0180(4) 0.9378(7)
H50_6 H 0.9660 0.0235 0.9405
H51_6 H 0.9370 0.0288 0.9030
C56_6 C 0.93382(10) 0.03886(13) 0.9798(3)
C57_6 C 0.91837(9) 0.06311(13) 0.9681(3)
H52_6 H 0.9131 0.0669 0.9319
C166_6 C 0.9946(3) 0.1421(2) 0.8443(3)
H151_6 H 0.9709 0.1354 0.8275
H153_6 H 0.9853 0.0879 0.8453
N3_6 N 0.7403(2) 0.8718(2) 0.0737(3)
H3_6 H 0.7620 0.8764 0.0591
O3_6 O 0.7882(2) 0.9467(2) 0.0335(3)
C30_6 C 0.70355(14) 0.97147(19) 0.0773(2)
H31_6 H 0.7045 0.9539 0.1018
C31_6 C 0.6686(2) 0.96266(19) 0.0534(3)
H32_6 H 0.6463 0.9391 0.0615
C32_6 C 0.6665(2) 0.98830(19) 0.0179(3)
H33_6 H 0.6428 0.9826 0.0021
C34_6 C 0.7377(3) 0.8934(2) 0.1152(4)
C35_6 C 0.76899(18) 0.9319(2) 0.1258(3)
C36_6 C 0.79530(18) 0.9583(2) 0.0867(3)
C37_6 C 0.82619(19) 0.9936(2) 0.1017(3)
C39_6 C 0.80767(19) 0.9788(2) 0.1951(3)
H37_6 H 0.8091 0.9880 0.2309
C40_6 C 0.7779(2) 0.9426(2) 0.1812(3)
H38_6 H 0.7635 0.9249 0.2089
C41_6 C 0.7022(2) 0.8395(3) 0.0564(4)
H39_6 H 0.6838 0.8487 0.0515
H40_6 H 0.6919 0.8191 0.0842
C42_6 C 0.70760(8) 0.82374(12) 0.0032(2)
H45_6 H 0.7355 0.7954 0.0265
C115_6 C 0.9271(2) 0.6930(4) 0.0146(4)
H112_6 H 0.9146 0.6994 0.0441
H114_5 H 0.9114 0.6656 0.0054
C117_6 C 0.96803(15) 0.70356(18) 0.02943(15)
C119_6 C 0.99401(18) 0.73132(21) 0.06570(14)
H116_6 H 0.9884 0.7493 0.0820
C127_6 C 0.97775(19) 0.67742(27) 0.0058(3)
H126_6 H 0.9881 0.8292 0.0748
C137_6 C 0.9979(3) 0.83333(36) 0.1574(3)
H128_6 H 0.9772 0.8367 0.1686
C177_6 C 0.91881(16) 0.83002(21) 0.0108(3)
H162_6 H 0.9027 0.8037 0.0031
C179_6 C 0.9237(2) 0.8425(3) 0.0653(3)
H164_6 H 0.9111 0.8247 0.0937
C181_6 C 0.9475(2) 0.8816(3) 0.0767(3)
H166_6 H 0.9511 0.8906 0.1129
C183_6 C 0.9656(2) 0.9067(3) 0.0346(3)
H168_6 H 0.9817 0.9329 0.0427
N1_6 N 0.7293(3) 0.9147(3) 0.7756(5)
H1_6 H 0.7397 0.9349 0.7967
N4_6 N 0.9162(3) 0.9789(3) 0.9346(5)
H4_6 H 0.9002 0.9653 0.9604
N5_6 N 0.5918(2) 0.7777(2) 0.7841(3)
N6_6 N 0.6061(2) 0.7385(2) 0.6317(3)
N7_6 N 0.6909(2) 0.76686(18) 0.7521(3)
O1_6 O 0.7309(2) 0.9298(2) 0.8859(3)
O4_6 O 0.83400(19) 0.9317(2) 0.9154(3)
O5_6 O 0.67805(18) 0.85946(18) 0.7506(3)
O8_6 O 0.94622(15) 0.97173(16) 0.8630(3)
O9_6 O 0.61818(18) 0.76927(19) 0.7900(3)
O10_6 O 0.59223(19) 0.79789(18) 0.7446(3)
O11_6 O 0.5689(2) 0.7730(3) 0.8233(3)
O12_6 O 0.63859(18) 0.76527(18) 0.6158(3)
O13_6 O 0.5921(2) 0.7407(2) 0.6766(3)
O14_6 O 0.5910(3) 0.70664(19) 0.6050(4)
O15_6 O 0.6681(2) 0.74982(19) 0.7122(3)
O16_6 O 0.70014(19) 0.80176(14) 0.7634(3)
O17_6 O 0.7130(2) 0.75491(19) 0.7694(4)
C1_6 C 0.7927(2) 0.95860(19) 0.9361(4)
C2_6 C 0.7511(2) 0.9525(2) 0.9395(4)
H5_6 H 0.7376 0.9375 0.9720
H6_6 H 0.7518 0.9773 0.9407
C3_6 C 0.8129(2) 0.9870(2) 0.8890(4)
H7_6 H 0.8389 0.9910 0.8831
H8_6 H 0.7980 0.9774 0.8551
C4_6 C 0.8130(3) 0.9732(3) 0.9867(4)
H9_6 H 0.8378 0.9738 0.9854
H10_6 H 0.8181 0.9996 0.9929
C5_6 C 0.7909(3) 0.9211(3) 0.9256(5)
H11_6 H 0.7801 0.9039 0.9573
H12_6 H 0.7749 0.9083 0.8936
C6_6 C 0.6952(3) 0.8870(3) 0.7833(5)
C7_6 C 0.6742(2) 0.8904(3) 0.8365(4)
C8_6 C 0.6902(2) 0.9133(2) 0.8844(3)
C9_6 C 0.6685(2) 0.9142(3) 0.9276(4)
H13_6 H 0.6802 0.9247 0.9614
C10_6 C 0.6280(2) 0.8989(3) 0.9203(4)
H14_6 H 0.6133 0.9050 0.9442
C11_6 C 0.6115(3) 0.8745(3) 0.8759(4)
H15_6 H 0.5844 0.8601 0.8735
C12_6 C 0.6332(2) 0.8703(3) 0.8346(4)
H16_6 H 0.6204 0.8539 0.8049
C13_6 C 0.7485(3) 0.9108(4) 0.7324(6)
H17_6 H 0.7458 0.8851 0.7338
H18_6 H 0.7364 0.9125 0.6985
C14_6 C 0.79192(14) 0.94126(11) 0.73062(15)
C15_6 C 0.81937(16) 0.93453(11) 0.75734(14)
H19_6 H 0.8115 0.9114 0.7766
C16_6 C 0.85795(18) 0.96263(15) 0.7547(2)
H20_6 H 0.8764 0.9584 0.7722
C17_6 C 0.8699(2) 0.99649(19) 0.7271(3)
C19_6 C 0.8046(2) 0.97602(19) 0.7031(3)
H23_6 H 0.7863 0.9809 0.6862
C43_6 C 0.69109(7) 0.83094(13) 0.9567(3)
H41_6 H 0.6796 0.8465 0.9597
C44_6 C 0.69191(11) 0.81521(16) 0.9072(3)
H42_6 H 0.6807 0.8201 0.8767
C45_6 C 0.7085(2) 0.7925(2) 0.9008(3)
H43_6 H 0.7089 0.7824 0.8663
C46_6 C 0.7248(2) 0.7845(2) 0.9461(3)
H44_6 H 0.7359 0.7687 0.9426
C47_6 C 0.72431(19) 0.80045(19) 0.9962(3)
C48_6 C 0.9198(3) 0.9642(3) 0.8919(5)
C49_6 C 0.88117(16) 0.92055(14) 0.87853(14)
C50_6 C 0.84069(16) 0.90414(14) 0.89096(13)
C51_6 C 0.8107(2) 0.86607(17) 0.88205(18)
H46_6 H 0.7851 0.8586 0.8918
C52_6 C 0.8196(2) 0.8393(2) 0.8582(3)
H47_6 H 0.8004 0.8136 0.8520
C53_6 C 0.8579(2) 0.8526(2) 0.8443(3)
H48_6 H 0.8646 0.8356 0.8275
C54_6 C 0.8867(3) 0.8907(2) 0.8547(3)
H49_6 H 0.9121 0.8975 0.8453
N12_6 N 0.9344(2) 0.7178(3) 0.9665(4)
H60_6 H 0.9562 0.7279 0.9488
N24_6 N 0.9542(2) 0.93215(28) 0.7419(3)
O24_6 O 0.97556(17) 0.79027(25) 0.9075(3)
O62_6 O 0.97209(19) 0.93084(25) 0.7836(3)
O64_6 O 0.9534(2) 0.96241(26) 0.7310(3)
O65_6 O 0.9403(2) 0.9047(3) 0.7083(4)
H98_6 H 0.9848 0.8811 0.7266
C97_6 C 0.9963(2) 0.8398(3) 0.6998(3)
H100_6 H 0.9735 0.8252 0.6798
C101_6 C 0.9049(2) 0.7242(4) 0.9510(5)
C103_6 C 0.9084(2) 0.7497(3) 0.9011(4)
C105_6 C 0.9420(2) 0.7812(3) 0.8778(4)
C107_6 C 0.9436(2) 0.8018(4) 0.8311(4)
H104_6 H 0.9670 0.8227 0.8184
C109_6 C 0.9081(2) 0.7896(3) 0.8037(5)
H106_6 H 0.9078 0.8006 0.7699
C111_6 C 0.8741(3) 0.7618(4) 0.8263(4)
H108_6 H 0.8504 0.7564 0.8105
C113_6 C 0.8741(2) 0.7416(4) 0.8718(4)
H110_6 H 0.8503 0.7213 0.8843
H124_5 H 0.9604 0.6589 0.9810
C171_6 C 0.9820(4) 0.9214(6) 0.9378(7)
H156_6 H 0.9765 0.9426 0.9405
H158_6 H 0.9712 0.9083 0.9030
C173_6 C 0.96114(13) 0.89497(16) 0.9798(3)
C175_6 C 0.93689(13) 0.85527(16) 0.9681(3)
H160_6 H 0.9331 0.8463 0.9319
Tb2_9 Tb 0.9999 1.0000 0.80341(3)
Tb2_10 Tb 0.0000 0.0001 0.80341(3)
H113_5 H 0.4208 0.9989 0.8387
H121_5 H 0.3095 0.9936 0.8354
H123_5 H 0.3651 0.9922 0.8143
H113_6 H 0.0011 0.5792 0.3387
H121_6 H 0.0064 0.6905 0.3354
H123_6 H 0.0078 0.6349 0.3143
H114_6 H 0.5781 0.9989 0.3387
H122_6 H 0.6841 0.9936 0.3354
H124_6 H 0.6271 0.9922 0.3143
loop_
_geom_bond_atom_site_label_1
_geom_bond_atom_site_label_2
_geom_bond_site_symmetry_1
_geom_bond_site_symmetry_2
H37 C39 1_555 1_555
H38 C40 1_555 1_555
H129 C138 1_555 1_555
H130 C139 1_555 1_555
H131 C140 1_555 1_555
H132 C141 1_555 1_555
C39 C40 1_555 1_555
C138 C140 1_555 1_555
C139 C141 1_555 1_555
Tb1 O5 1_555 1_555
Tb2 O8 1_555 1_555
N1 H1 1_555 1_555
N2 H2 1_555 1_555
N3 H3 1_555 1_555
N4 H4 1_555 1_555
N5 O9 1_555 1_555
N6 O12 1_555 1_555
N7 O15 1_555 1_555
N8 O18 1_555 1_555
O1 C2 1_555 1_555
O2 C3 1_555 1_555
O3 C4 1_555 1_555
O4 C5 1_555 1_555
O5 C6 1_555 1_555
O6 C20 1_555 1_555
O7 C34 1_555 1_555
O8 C48 1_555 1_555
O9 Tb1 1_555 1_555
O10 Tb1 1_555 1_555
O11 N5 1_555 1_555
O12 Tb1 1_555 1_555
O13 Tb1 1_555 1_555
O14 N6 1_555 1_555
O15 Tb1 1_555 1_555
O16 Tb1 1_555 1_555
O17 N7 1_555 1_555
O18 Tb2 1_555 1_555
O19 Tb2 1_555 1_555
O20 N8 1_555 1_555
C1 C2 1_555 1_555
C2 H5 1_555 1_555
H6 C2 1_555 1_555
C3 C1 1_555 1_555
H7 C3 1_555 1_555
H8 C3 1_555 1_555
C4 C1 1_555 1_555
H9 C4 1_555 1_555
H10 C4 1_555 1_555
C5 C1 1_555 1_555
H11 C5 1_555 1_555
H12 C5 1_555 1_555
C6 N1 1_555 1_555
C7 C6 1_555 1_555
C8 O1 1_555 1_555
C9 C8 1_555 1_555
H13 C9 1_555 1_555
C10 C9 1_555 1_555
H14 C10 1_555 1_555
C11 C10 1_555 1_555
H15 C11 1_555 1_555
C12 C7 1_555 1_555
H16 C12 1_555 1_555
C13 N1 1_555 1_555
H17 C13 1_555 1_555
H18 C13 1_555 1_555
C14 C13 1_555 1_555
C15 C14 1_555 1_555
H19 C15 1_555 1_555
C16 C15 1_555 1_555
H20 C16 1_555 1_555
C17 C16 1_555 1_555
H21 C17 1_555 1_555
C18 C17 1_555 1_555
H22 C18 1_555 1_555
C19 C14 1_555 1_555
H23 C19 1_555 1_555
C20 N2 1_555 1_555
C21 C20 1_555 1_555
C22 O2 1_555 1_555
C23 C22 1_555 1_555
H24 C23 1_555 1_555
C24 C23 1_555 1_555
H25 C24 1_555 1_555
C25 C24 1_555 1_555
H26 C25 1_555 1_555
C26 C21 1_555 1_555
H27 C26 1_555 1_555
C27 N2 1_555 1_555
H28 C27 1_555 1_555
H29 C27 1_555 1_555
C28 C27 1_555 1_555
C29 C28 1_555 1_555
H30 C29 1_555 1_555
C30 C29 1_555 1_555
H31 C30 1_555 1_555
C31 C30 1_555 1_555
H32 C31 1_555 1_555
C32 C31 1_555 1_555
H33 C32 1_555 1_555
C33 C28 1_555 1_555
H34 C33 1_555 1_555
C34 N3 1_555 1_555
C35 C34 1_555 1_555
C36 O3 1_555 1_555
C37 C36 1_555 1_555
H35 C37 1_555 1_555
C38 C37 1_555 1_555
C41 N3 1_555 1_555
H39 C41 1_555 1_555
H40 C41 1_555 1_555
C42 C41 1_555 1_555
C43 C42 1_555 1_555
H41 C43 1_555 1_555
C44 C43 1_555 1_555
H42 C44 1_555 1_555
C45 C44 1_555 1_555
H43 C45 1_555 1_555
C46 C45 1_555 1_555
H44 C46 1_555 1_555
C47 C42 1_555 1_555
H45 C47 1_555 1_555
C48 N4 1_555 1_555
C49 C48 1_555 1_555
C50 O4 1_555 1_555
C51 C50 1_555 1_555
H46 C51 1_555 1_555
C52 C51 1_555 1_555
H47 C52 1_555 1_555
C53 C52 1_555 1_555
H48 C53 1_555 1_555
C54 C49 1_555 1_555
H49 C54 1_555 1_555
C55 N4 1_555 1_555
H50 C55 1_555 1_555
H51 C55 1_555 1_555
C56 C55 1_555 1_555
C57 C56 1_555 1_555
H52 C57 1_555 1_555
C58 C57 1_555 1_555
H53 C58 1_555 1_555
C59 C58 1_555 1_555
H54 C59 1_555 1_555
C60 C59 1_555 1_555
H55 C60 1_555 1_555
C61 C56 1_555 1_555
H56 C61 1_555 1_555
Tb3 O29 1_555 1_555
Tb4 O30 1_555 1_555
Tb5 O6 1_555 1_555
Tb7 O31 1_555 1_555
Tb9 O32 1_555 1_555
N9 H57 1_555 1_555
N10 H58 1_555 1_555
N11 H59 1_555 1_555
N12 H60 1_555 1_555
N13 H61 1_555 1_555
N14 H62 1_555 1_555
N15 H63 1_555 1_555
N16 H64 1_555 1_555
N17 O43 1_555 1_555
N18 O44 1_555 1_555
N19 O49 1_555 1_555
N20 O50 1_555 1_555
N21 O55 1_555 1_555
N22 O56 1_555 1_555
N23 O61 1_555 1_555
N24 O62 1_555 1_555
O21 C64 1_555 1_555
O22 C65 1_555 1_555
O23 C66 1_555 1_555
O24 C67 1_555 1_555
O25 C68 1_555 1_555
O26 C69 1_555 1_555
O27 C70 1_555 1_555
O28 C71 1_555 1_555
O29 C72 1_555 1_555
O30 C73 1_555 1_555
O31 C100 1_555 1_555
O32 C101 1_555 1_555
O33 Tb1 1_555 1_555
O34 Tb3 1_555 1_555
O35 Tb4 1_555 1_555
O36 C128 1_555 1_555
O37 C129 1_555 1_555
O38 Tb1 1_555 1_555
O39 Tb3 1_555 1_555
O40 Tb4 1_555 1_555
O41 Tb2 1_555 1_555
O42 Tb2 1_555 1_555
O43 Tb3 1_555 1_555
O44 Tb4 1_555 1_555
O45 Tb3 1_555 1_555
O46 Tb4 1_555 1_555
O47 N17 1_555 1_555
O48 N18 1_555 1_555
O49 Tb3 1_555 1_555
O50 Tb4 1_555 1_555
O51 Tb3 1_555 1_555
O52 Tb4 1_555 1_555
O53 N19 1_555 1_555
O54 N20 1_555 1_555
O55 Tb3 1_555 1_555
O56 Tb4 1_555 1_555
O57 Tb3 1_555 1_555
O58 Tb4 1_555 1_555
O59 N21 1_555 1_555
O60 N22 1_555 1_555
O61 Tb2 1_555 1_555
O62 Tb2 1_555 1_555
O63 Tb2 1_555 1_555
O64 Tb2 1_555 1_555
O65 N24 1_555 1_555
O66 N23 1_555 1_555
C62 C64 1_555 1_555
C63 C65 1_555 1_555
C64 H65 1_555 1_555
C65 H66 1_555 1_555
H67 C64 1_555 1_555
H68 C65 1_555 1_555
C66 C62 1_555 1_555
C67 C63 1_555 1_555
H69 C66 1_555 1_555
H70 C67 1_555 1_555
H71 C66 1_555 1_555
H72 C67 1_555 1_555
C68 C62 1_555 1_555
C69 C63 1_555 1_555
H73 C68 1_555 1_555
H74 C69 1_555 1_555
H75 C68 1_555 1_555
H76 C69 1_555 1_555
C70 C62 1_555 1_555
C71 C63 1_555 1_555
H77 C70 1_555 1_555
H78 C71 1_555 1_555
H79 C70 1_555 1_555
H80 C71 1_555 1_555
C72 N9 1_555 1_555
C73 N10 1_555 1_555
C74 C72 1_555 1_555
C75 C73 1_555 1_555
C76 O21 1_555 1_555
C77 O22 1_555 1_555
C78 C76 1_555 1_555
C79 C77 1_555 1_555
H81 C78 1_555 1_555
H82 C79 1_555 1_555
C80 C78 1_555 1_555
C81 C79 1_555 1_555
H83 C80 1_555 1_555
H84 C81 1_555 1_555
C82 C80 1_555 1_555
C83 C81 1_555 1_555
H85 C82 1_555 1_555
H86 C83 1_555 1_555
C84 C74 1_555 1_555
C85 C75 1_555 1_555
H87 C84 1_555 1_555
H88 C85 1_555 1_555
C86 N9 1_555 1_555
C87 N10 1_555 1_555
H89 C86 1_555 1_555
H90 C87 1_555 1_555
H91 C86 1_555 1_555
H92 C87 1_555 1_555
C88 C86 1_555 1_555
C89 C87 1_555 1_555
C90 C88 1_555 1_555
C91 C89 1_555 1_555
H93 C90 1_555 1_555
H94 C91 1_555 1_555
C92 C90 1_555 1_555
C93 C91 1_555 1_555
H95 C92 1_555 1_555
H96 C93 1_555 1_555
C94 C92 1_555 1_555
C95 C93 1_555 1_555
H97 C94 1_555 1_555
H98 C95 1_555 1_555
C96 C94 1_555 1_555
C97 C95 1_555 1_555
H99 C96 1_555 1_555
H100 C97 1_555 1_555
C98 C88 1_555 1_555
C99 C89 1_555 1_555
H101 C98 1_555 1_555
H102 C99 1_555 1_555
C100 N11 1_555 1_555
C101 N12 1_555 1_555
C102 C100 1_555 1_555
C103 C101 1_555 1_555
C104 O23 1_555 1_555
C105 O24 1_555 1_555
C106 C104 1_555 1_555
C107 C105 1_555 1_555
H103 C106 1_555 1_555
H104 C107 1_555 1_555
C108 C106 1_555 1_555
C109 C107 1_555 1_555
H105 C108 1_555 1_555
H106 C109 1_555 1_555
C110 C108 1_555 1_555
C111 C109 1_555 1_555
H107 C110 1_555 1_555
H108 C111 1_555 1_555
C112 C102 1_555 1_555
C113 C103 1_555 1_555
H109 C112 1_555 1_555
H110 C113 1_555 1_555
C114 N11 1_555 1_555
C115 N12 1_555 1_555
H111 C114 1_555 1_555
H112 C115 1_555 1_555
C116 C114 1_555 1_555
C117 C115 1_555 1_555
C118 C116 1_555 1_555
C119 C117 1_555 1_555
H115 C118 1_555 1_555
H116 C119 1_555 1_555
C120 C118 1_555 1_555
C121 C119 1_555 1_555
H117 C120 1_555 1_555
H118 C121 1_555 1_555
C122 C120 1_555 1_555
C123 C121 1_555 1_555
H119 C122 1_555 1_555
H120 C123 1_555 1_555
C124 C122 1_555 1_555
C125 C123 1_555 1_555
C126 C116 1_555 1_555
C127 C117 1_555 1_555
C128 N13 1_555 1_555
C129 N14 1_555 1_555
C130 C128 1_555 1_555
C131 C129 1_555 1_555
C132 O25 1_555 1_555
C133 O26 1_555 1_555
C134 C132 1_555 1_555
C135 C133 1_555 1_555
H125 C134 1_555 1_555
H126 C135 1_555 1_555
C136 C134 1_555 1_555
C137 C135 1_555 1_555
C142 N13 1_555 1_555
C143 N14 1_555 1_555
H133 C142 1_555 1_555
H134 C143 1_555 1_555
H135 C142 1_555 1_555
H136 C143 1_555 1_555
C144 C142 1_555 1_555
C145 C143 1_555 1_555
C146 C144 1_555 1_555
C147 C145 1_555 1_555
H137 C146 1_555 1_555
H138 C147 1_555 1_555
C148 C146 1_555 1_555
C149 C147 1_555 1_555
H139 C148 1_555 1_555
H140 C149 1_555 1_555
C150 C148 1_555 1_555
C151 C149 1_555 1_555
H141 C150 1_555 1_555
H142 C151 1_555 1_555
C152 C150 1_555 1_555
C153 C151 1_555 1_555
H143 C152 1_555 1_555
H144 C153 1_555 1_555
C154 C144 1_555 1_555
C155 C145 1_555 1_555
H145 C154 1_555 1_555
H146 C155 1_555 1_555
C156 N15 1_555 1_555
C157 N16 1_555 1_555
C158 C156 1_555 1_555
C159 C157 1_555 1_555
C160 O27 1_555 1_555
C161 O28 1_555 1_555
C162 C160 1_555 1_555
C163 C161 1_555 1_555
H147 C162 1_555 1_555
H148 C163 1_555 1_555
C164 C162 1_555 1_555
C165 C163 1_555 1_555
H149 C164 1_555 1_555
H150 C165 1_555 1_555
C166 C164 1_555 1_555
C167 C165 1_555 1_555
H151 C166 1_555 1_555
H152 C167 1_555 1_555
C168 C158 1_555 1_555
C169 C159 1_555 1_555
H153 C168 1_555 1_555
H154 C169 1_555 1_555
C170 N15 1_555 1_555
C171 N16 1_555 1_555
H155 C170 1_555 1_555
H156 C171 1_555 1_555
H157 C170 1_555 1_555
H158 C171 1_555 1_555
C172 C170 1_555 1_555
C173 C171 1_555 1_555
C174 C172 1_555 1_555
C175 C173 1_555 1_555
H159 C174 1_555 1_555
H160 C175 1_555 1_555
C176 C174 1_555 1_555
C177 C175 1_555 1_555
H161 C176 1_555 1_555
H162 C177 1_555 1_555
C178 C176 1_555 1_555
C179 C177 1_555 1_555
H163 C178 1_555 1_555
H164 C179 1_555 1_555
C180 C178 1_555 1_555
C181 C179 1_555 1_555
H165 C180 1_555 1_555
H166 C181 1_555 1_555
C182 C172 1_555 1_555
C183 C173 1_555 1_555
H167 C182 1_555 1_555
H168 C183 1_555 1_555
N5 O10 1_555 1_555
N6 O13 1_555 1_555
N7 O16 1_555 1_555
N8 O19 1_555 1_555
C7 C8 1_555 1_555
C11 C12 1_555 1_555
C18 C19 1_555 1_555
C21 C22 1_555 1_555
C25 C26 1_555 1_555
C32 C33 1_555 1_555
C35 C36 1_555 1_555
C46 C47 1_555 1_555
C49 C50 1_555 1_555
C53 C54 1_555 1_555
C60 C61 1_555 1_555
N17 O45 1_555 1_555
N18 O46 1_555 1_555
N19 O51 1_555 1_555
N20 O52 1_555 1_555
N21 O57 1_555 1_555
N22 O58 1_555 1_555
N23 O63 1_555 1_555
N24 O64 1_555 1_555
O41 C156 1_555 1_555
O42 C157 1_555 1_555
C74 C76 1_555 1_555
C75 C77 1_555 1_555
C82 C84 1_555 1_555
C83 C85 1_555 1_555
C96 C98 1_555 1_555
C97 C99 1_555 1_555
C102 C104 1_555 1_555
C103 C105 1_555 1_555
C110 C112 1_555 1_555
C111 C113 1_555 1_555
C124 C126 1_555 1_555
C125 C127 1_555 1_555
C130 C132 1_555 1_555
C131 C133 1_555 1_555
C152 C154 1_555 1_555
C153 C155 1_555 1_555
C158 C160 1_555 1_555
C159 C161 1_555 1_555
C166 C168 1_555 1_555
C167 C169 1_555 1_555
C180 C182 1_555 1_555
C181 C183 1_555 1_555
Tb8 O5_2 1_555 1_555
Tb2_2 O8_2 1_555 1_555
N1_2 H1_2 1_555 1_555
N2_2 H2_2 1_555 1_555
N3_2 H3_2 1_555 1_555
N4_2 H4_2 1_555 1_555
N5_2 O9_2 1_555 1_555
N7_2 O15_2 1_555 1_555
N8_2 O18_2 1_555 1_555
O1_2 C2_2 1_555 1_555
O2_2 C3_2 1_555 1_555
O3_2 C4_2 1_555 1_555
O4_2 C5_2 1_555 1_555
O5_2 C6_2 1_555 1_555
O6_2 C20_2 1_555 1_555
O39 C34_2 1_555 1_555
O8_2 C48_2 1_555 1_555
O9_2 Tb8 1_555 1_555
O10_2 Tb8 1_555 1_555
O11_2 N5_2 1_555 1_555
O13_2 Tb8 1_555 1_555
O15_2 Tb8 1_555 1_555
O16_2 Tb8 1_555 1_555
O17_2 N7_2 1_555 1_555
O18_2 Tb2_2 1_555 1_555
O19_2 Tb2_2 1_555 1_555
O20_2 N8_2 1_555 1_555
C1_2 C2_2 1_555 1_555
C2_2 H5_2 1_555 1_555
H6_2 C2_2 1_555 1_555
C3_2 C1_2 1_555 1_555
H7_2 C3_2 1_555 1_555
H8_2 C3_2 1_555 1_555
C4_2 C1_2 1_555 1_555
H9_2 C4_2 1_555 1_555
H10_2 C4_2 1_555 1_555
C5_2 C1_2 1_555 1_555
H11_2 C5_2 1_555 1_555
H12_2 C5_2 1_555 1_555
C6_2 N1_2 1_555 1_555
C7_2 C6_2 1_555 1_555
C8_2 O1_2 1_555 1_555
C9_2 C8_2 1_555 1_555
H13_2 C9_2 1_555 1_555
C10_2 C9_2 1_555 1_555
H14_2 C10_2 1_555 1_555
C11_2 C10_2 1_555 1_555
H15_2 C11_2 1_555 1_555
C12_2 C7_2 1_555 1_555
H16_2 C12_2 1_555 1_555
C13_2 N1_2 1_555 1_555
H17_2 C13_2 1_555 1_555
H18_2 C13_2 1_555 1_555
C14_2 C13_2 1_555 1_555
C15_2 C14_2 1_555 1_555
H19_2 C15_2 1_555 1_555
C16_2 C15_2 1_555 1_555
H20_2 C16_2 1_555 1_555
C17_2 C16_2 1_555 1_555
H21_2 C17_2 1_555 1_555
C18_2 C17_2 1_555 1_555
H22_2 C18_2 1_555 1_555
C19_2 C14_2 1_555 1_555
H23_2 C19_2 1_555 1_555
C20_2 N2_2 1_555 1_555
C21_2 C20_2 1_555 1_555
C22_2 O2_2 1_555 1_555
C23_2 C22_2 1_555 1_555
H24_2 C23_2 1_555 1_555
C24_2 C23_2 1_555 1_555
H25_2 C24_2 1_555 1_555
C25_2 C24_2 1_555 1_555
H26_2 C25_2 1_555 1_555
C26_2 C21_2 1_555 1_555
H27_2 C26_2 1_555 1_555
C27_2 N2_2 1_555 1_555
H28_2 C27_2 1_555 1_555
H29_2 C27_2 1_555 1_555
C28_2 C27_2 1_555 1_555
C29_2 C28_2 1_555 1_555
H30_2 C29_2 1_555 1_555
C30_2 C29_2 1_555 1_555
H31_2 C30_2 1_555 1_555
C31_2 C30_2 1_555 1_555
H32_2 C31_2 1_555 1_555
C32_2 C31_2 1_555 1_555
H33_2 C32_2 1_555 1_555
C33_2 C28_2 1_555 1_555
H34_2 C33_2 1_555 1_555
C34_2 N3_2 1_555 1_555
C35_2 C34_2 1_555 1_555
C36_2 O3_2 1_555 1_555
C37_2 C36_2 1_555 1_555
H35_2 C37_2 1_555 1_555
C38_2 C37_2 1_555 1_555
H36_2 C38_2 1_555 1_555
C39_2 C38_2 1_555 1_555
H37_2 C39_2 1_555 1_555
C40_2 C35_2 1_555 1_555
H38_2 C40_2 1_555 1_555
C41_2 N3_2 1_555 1_555
H39_2 C41_2 1_555 1_555
H40_2 C41_2 1_555 1_555
C42_2 C41_2 1_555 1_555
C43_2 C42_2 1_555 1_555
H41_2 C43_2 1_555 1_555
C44_2 C43_2 1_555 1_555
H42_2 C44_2 1_555 1_555
C45_2 C44_2 1_555 1_555
H43_2 C45_2 1_555 1_555
C46_2 C45_2 1_555 1_555
H44_2 C46_2 1_555 1_555
C47_2 C42_2 1_555 1_555
H45_2 C47_2 1_555 1_555
C48_2 N4_2 1_555 1_555
C49_2 C48_2 1_555 1_555
C50_2 O4_2 1_555 1_555
C51_2 C50_2 1_555 1_555
H46_2 C51_2 1_555 1_555
C52_2 C51_2 1_555 1_555
H47_2 C52_2 1_555 1_555
C53_2 C52_2 1_555 1_555
H48_2 C53_2 1_555 1_555
C54_2 C49_2 1_555 1_555
H49_2 C54_2 1_555 1_555
C55_2 N4_2 1_555 1_555
H50_2 C55_2 1_555 1_555
H51_2 C55_2 1_555 1_555
C56_2 C55_2 1_555 1_555
C57_2 C56_2 1_555 1_555
H52_2 C57_2 1_555 1_555
C58_2 C57_2 1_555 1_555
H53_2 C58_2 1_555 1_555
C59_2 C58_2 1_555 1_555
H54_2 C59_2 1_555 1_555
C60_2 C59_2 1_555 1_555
H55_2 C60_2 1_555 1_555
C61_2 C56_2 1_555 1_555
H56_2 C61_2 1_555 1_555
Tb6 O29_2 1_555 1_555
Tb10 O30_2 1_555 1_555
Tb5_2 O6_2 1_555 1_555
Tb7_2 O31_2 1_555 1_555
Tb9_2 O32_2 1_555 1_555
N9_2 H57_2 1_555 1_555
N10_2 H58_2 1_555 1_555
N11_2 H59_2 1_555 1_555
N12_2 H60_2 1_555 1_555
N13_2 H61_2 1_555 1_555
N14_2 H62_2 1_555 1_555
N15_2 H63_2 1_555 1_555
N16_2 H64_2 1_555 1_555
N17_2 O43_2 1_555 1_555
N18_2 O44_2 1_555 1_555
N21_2 O55_2 1_555 1_555
N22_2 O56_2 1_555 1_555
N23_2 O61_2 1_555 1_555
N24_2 O62_2 1_555 1_555
O21_2 C64_2 1_555 1_555
O22_2 C65_2 1_555 1_555
O23_2 C66_2 1_555 1_555
O24_2 C67_2 1_555 1_555
O25_2 C68_2 1_555 1_555
O26_2 C69_2 1_555 1_555
O27_2 C70_2 1_555 1_555
O28_2 C71_2 1_555 1_555
O29_2 C72_2 1_555 1_555
O30_2 C73_2 1_555 1_555
O31_2 C100_2 1_555 1_555
O32_2 C101_2 1_555 1_555
O38 C128_2 1_555 1_555
O40 C129_2 1_555 1_555
O41_2 Tb2_2 1_555 1_555
O42_2 Tb2_2 1_555 1_555
O43_2 Tb6 1_555 1_555
O44_2 Tb10 1_555 1_555
O45_2 Tb6 1_555 1_555
O46_2 Tb10 1_555 1_555
O47_2 N17_2 1_555 1_555
O48_2 N18_2 1_555 1_555
O51_2 Tb6 1_555 1_555
O52_2 Tb10 1_555 1_555
O55_2 Tb6 1_555 1_555
O56_2 Tb10 1_555 1_555
O57_2 Tb6 1_555 1_555
O58_2 Tb10 1_555 1_555
O59_2 N21_2 1_555 1_555
O60_2 N22_2 1_555 1_555
O61_2 Tb2_2 1_555 1_555
O62_2 Tb2_2 1_555 1_555
O63_2 Tb2_2 1_555 1_555
O64_2 Tb2_2 1_555 1_555
O65_2 N24_2 1_555 1_555
O66_2 N23_2 1_555 1_555
C62_2 C64_2 1_555 1_555
C63_2 C65_2 1_555 1_555
C64_2 H65_2 1_555 1_555
C65_2 H66_2 1_555 1_555
H67_2 C64_2 1_555 1_555
H68_2 C65_2 1_555 1_555
C66_2 C62_2 1_555 1_555
C67_2 C63_2 1_555 1_555
H69_2 C66_2 1_555 1_555
H70_2 C67_2 1_555 1_555
H71_2 C66_2 1_555 1_555
H72_2 C67_2 1_555 1_555
C68_2 C62_2 1_555 1_555
C69_2 C63_2 1_555 1_555
H73_2 C68_2 1_555 1_555
H74_2 C69_2 1_555 1_555
H75_2 C68_2 1_555 1_555
H76_2 C69_2 1_555 1_555
C70_2 C62_2 1_555 1_555
C71_2 C63_2 1_555 1_555
H77_2 C70_2 1_555 1_555
H78_2 C71_2 1_555 1_555
H79_2 C70_2 1_555 1_555
H80_2 C71_2 1_555 1_555
C72_2 N9_2 1_555 1_555
C73_2 N10_2 1_555 1_555
C74_2 C72_2 1_555 1_555
C75_2 C73_2 1_555 1_555
C76_2 O21_2 1_555 1_555
C77_2 O22_2 1_555 1_555
C78_2 C76_2 1_555 1_555
C79_2 C77_2 1_555 1_555
H81_2 C78_2 1_555 1_555
H82_2 C79_2 1_555 1_555
C80_2 C78_2 1_555 1_555
C81_2 C79_2 1_555 1_555
H83_2 C80_2 1_555 1_555
H84_2 C81_2 1_555 1_555
C82_2 C80_2 1_555 1_555
C83_2 C81_2 1_555 1_555
H85_2 C82_2 1_555 1_555
H86_2 C83_2 1_555 1_555
C84_2 C74_2 1_555 1_555
C85_2 C75_2 1_555 1_555
H87_2 C84_2 1_555 1_555
H88_2 C85_2 1_555 1_555
C86_2 N9_2 1_555 1_555
C87_2 N10_2 1_555 1_555
H89_2 C86_2 1_555 1_555
H90_2 C87_2 1_555 1_555
H91_2 C86_2 1_555 1_555
H92_2 C87_2 1_555 1_555
C88_2 C86_2 1_555 1_555
C89_2 C87_2 1_555 1_555
C90_2 C88_2 1_555 1_555
C91_2 C89_2 1_555 1_555
H93_2 C90_2 1_555 1_555
H94_2 C91_2 1_555 1_555
C92_2 C90_2 1_555 1_555
C93_2 C91_2 1_555 1_555
H95_2 C92_2 1_555 1_555
H96_2 C93_2 1_555 1_555
C94_2 C92_2 1_555 1_555
C95_2 C93_2 1_555 1_555
H97_2 C94_2 1_555 1_555
H98_2 C95_2 1_555 1_555
C96_2 C94_2 1_555 1_555
C97_2 C95_2 1_555 1_555
H99_2 C96_2 1_555 1_555
H100_2 C97_2 1_555 1_555
C98_2 C88_2 1_555 1_555
C99_2 C89_2 1_555 1_555
H101_2 C98_2 1_555 1_555
H102_2 C99_2 1_555 1_555
C100_2 N11_2 1_555 1_555
C101_2 N12_2 1_555 1_555
C102_2 C100_2 1_555 1_555
C103_2 C101_2 1_555 1_555
C104_2 O23_2 1_555 1_555
C105_2 O24_2 1_555 1_555
C106_2 C104_2 1_555 1_555
C107_2 C105_2 1_555 1_555
H103_2 C106_2 1_555 1_555
H104_2 C107_2 1_555 1_555
C108_2 C106_2 1_555 1_555
C109_2 C107_2 1_555 1_555
H105_2 C108_2 1_555 1_555
H106_2 C109_2 1_555 1_555
C110_2 C108_2 1_555 1_555
C111_2 C109_2 1_555 1_555
H107_2 C110_2 1_555 1_555
H108_2 C111_2 1_555 1_555
C112_2 C102_2 1_555 1_555
C113_2 C103_2 1_555 1_555
H109_2 C112_2 1_555 1_555
H110_2 C113_2 1_555 1_555
C114_2 N11_2 1_555 1_555
C115_2 N12_2 1_555 1_555
H111_2 C114_2 1_555 1_555
H112_2 C115_2 1_555 1_555
C116_2 C114_2 1_555 1_555
C117_2 C115_2 1_555 1_555
C118_2 C116_2 1_555 1_555
C119_2 C117_2 1_555 1_555
H115_2 C118_2 1_555 1_555
H116_2 C119_2 1_555 1_555
C120_2 C118_2 1_555 1_555
C121_2 C119_2 1_555 1_555
H117_2 C120_2 1_555 1_555
H118_2 C121_2 1_555 1_555
C122_2 C120_2 1_555 1_555
C123_2 C121_2 1_555 1_555
H119_2 C122_2 1_555 1_555
H120_2 C123_2 1_555 1_555
C124_2 C122_2 1_555 1_555
C125_2 C123_2 1_555 1_555
C126_2 C116_2 1_555 1_555
C127_2 C117_2 1_555 1_555
C128_2 N13_2 1_555 1_555
C129_2 N14_2 1_555 1_555
C130_2 C128_2 1_555 1_555
C131_2 C129_2 1_555 1_555
C132_2 O25_2 1_555 1_555
C133_2 O26_2 1_555 1_555
C134_2 C132_2 1_555 1_555
C135_2 C133_2 1_555 1_555
H125_2 C134_2 1_555 1_555
H126_2 C135_2 1_555 1_555
C136_2 C134_2 1_555 1_555
C137_2 C135_2 1_555 1_555
H127_2 C136_2 1_555 1_555
H128_2 C137_2 1_555 1_555
C138_2 C136_2 1_555 1_555
C139_2 C137_2 1_555 1_555
H129_2 C138_2 1_555 1_555
H130_2 C139_2 1_555 1_555
C140_2 C130_2 1_555 1_555
C141_2 C131_2 1_555 1_555
H131_2 C140_2 1_555 1_555
H132_2 C141_2 1_555 1_555
C142_2 N13_2 1_555 1_555
C143_2 N14_2 1_555 1_555
H133_2 C142_2 1_555 1_555
H134_2 C143_2 1_555 1_555
H135_2 C142_2 1_555 1_555
H136_2 C143_2 1_555 1_555
C144_2 C142_2 1_555 1_555
C145_2 C143_2 1_555 1_555
C146_2 C144_2 1_555 1_555
C147_2 C145_2 1_555 1_555
H137_2 C146_2 1_555 1_555
H138_2 C147_2 1_555 1_555
C148_2 C146_2 1_555 1_555
C149_2 C147_2 1_555 1_555
H139_2 C148_2 1_555 1_555
H140_2 C149_2 1_555 1_555
C150_2 C148_2 1_555 1_555
C151_2 C149_2 1_555 1_555
H141_2 C150_2 1_555 1_555
H142_2 C151_2 1_555 1_555
C152_2 C150_2 1_555 1_555
C153_2 C151_2 1_555 1_555
H143_2 C152_2 1_555 1_555
H144_2 C153_2 1_555 1_555
C154_2 C144_2 1_555 1_555
C155_2 C145_2 1_555 1_555
H145_2 C154_2 1_555 1_555
H146_2 C155_2 1_555 1_555
C156_2 N15_2 1_555 1_555
C157_2 N16_2 1_555 1_555
C158_2 C156_2 1_555 1_555
C159_2 C157_2 1_555 1_555
C160_2 O27_2 1_555 1_555
C161_2 O28_2 1_555 1_555
C162_2 C160_2 1_555 1_555
C163_2 C161_2 1_555 1_555
H147_2 C162_2 1_555 1_555
H148_2 C163_2 1_555 1_555
C164_2 C162_2 1_555 1_555
C165_2 C163_2 1_555 1_555
H149_2 C164_2 1_555 1_555
H150_2 C165_2 1_555 1_555
C166_2 C164_2 1_555 1_555
C167_2 C165_2 1_555 1_555
H151_2 C166_2 1_555 1_555
H152_2 C167_2 1_555 1_555
C168_2 C158_2 1_555 1_555
C169_2 C159_2 1_555 1_555
H153_2 C168_2 1_555 1_555
H154_2 C169_2 1_555 1_555
C170_2 N15_2 1_555 1_555
C171_2 N16_2 1_555 1_555
H155_2 C170_2 1_555 1_555
H156_2 C171_2 1_555 1_555
H157_2 C170_2 1_555 1_555
H158_2 C171_2 1_555 1_555
C172_2 C170_2 1_555 1_555
C173_2 C171_2 1_555 1_555
C174_2 C172_2 1_555 1_555
C175_2 C173_2 1_555 1_555
H159_2 C174_2 1_555 1_555
H160_2 C175_2 1_555 1_555
C176_2 C174_2 1_555 1_555
C177_2 C175_2 1_555 1_555
H161_2 C176_2 1_555 1_555
H162_2 C177_2 1_555 1_555
C178_2 C176_2 1_555 1_555
C179_2 C177_2 1_555 1_555
H163_2 C178_2 1_555 1_555
H164_2 C179_2 1_555 1_555
C180_2 C178_2 1_555 1_555
C181_2 C179_2 1_555 1_555
H165_2 C180_2 1_555 1_555
H166_2 C181_2 1_555 1_555
C182_2 C172_2 1_555 1_555
C183_2 C173_2 1_555 1_555
H167_2 C182_2 1_555 1_555
H168_2 C183_2 1_555 1_555
N5_2 O10_2 1_555 1_555
N7_2 O16_2 1_555 1_555
N8_2 O19_2 1_555 1_555
C7_2 C8_2 1_555 1_555
C11_2 C12_2 1_555 1_555
C18_2 C19_2 1_555 1_555
C21_2 C22_2 1_555 1_555
C25_2 C26_2 1_555 1_555
C32_2 C33_2 1_555 1_555
C35_2 C36_2 1_555 1_555
C39_2 C40_2 1_555 1_555
C46_2 C47_2 1_555 1_555
C49_2 C50_2 1_555 1_555
C53_2 C54_2 1_555 1_555
C60_2 C61_2 1_555 1_555
N17_2 O45_2 1_555 1_555
N18_2 O46_2 1_555 1_555
N21_2 O57_2 1_555 1_555
N22_2 O58_2 1_555 1_555
N23_2 O63_2 1_555 1_555
N24_2 O64_2 1_555 1_555
O41_2 C156_2 1_555 1_555
O42_2 C157_2 1_555 1_555
C74_2 C76_2 1_555 1_555
C75_2 C77_2 1_555 1_555
C82_2 C84_2 1_555 1_555
C83_2 C85_2 1_555 1_555
C96_2 C98_2 1_555 1_555
C97_2 C99_2 1_555 1_555
C102_2 C104_2 1_555 1_555
C103_2 C105_2 1_555 1_555
C110_2 C112_2 1_555 1_555
C111_2 C113_2 1_555 1_555
C124_2 C126_2 1_555 1_555
C125_2 C127_2 1_555 1_555
C130_2 C132_2 1_555 1_555
C131_2 C133_2 1_555 1_555
C138_2 C140_2 1_555 1_555
C139_2 C141_2 1_555 1_555
C152_2 C154_2 1_555 1_555
C153_2 C155_2 1_555 1_555
C158_2 C160_2 1_555 1_555
C159_2 C161_2 1_555 1_555
C166_2 C168_2 1_555 1_555
C167_2 C169_2 1_555 1_555
C180_2 C182_2 1_555 1_555
C181_2 C183_2 1_555 1_555
N6_2 O12_2 1_555 1_555
O14_2 N6_2 1_555 1_555
N19_2 O49_2 1_555 1_555
N20_2 O50_2 1_555 1_555
O53_2 N19_2 1_555 1_555
O54_2 N20_2 1_555 1_555
H14_3 C10_3 1_555 1_555
C11_3 C10_3 1_555 1_555
H15_3 C11_3 1_555 1_555
H33_3 C32_3 1_555 1_555
C11_3 C12_3 1_555 1_555
N5_3 O9_3 1_555 1_555
N6_3 O12_3 1_555 1_555
O9_3 Tb7 1_555 1_555
O10_3 Tb7 1_555 1_555
O11_3 N5_3 1_555 1_555
O12_3 Tb7 1_555 1_555
O13_3 Tb7 1_555 1_555
O14_3 N6_3 1_555 1_555
N5_3 O10_3 1_555 1_555
N6_3 O13_3 1_555 1_555
N2_3 H2_3 1_555 1_555
N3_3 H3_3 1_555 1_555
N4_3 H4_3 1_555 1_555
O1_3 C2_3 1_555 1_555
O2_3 C3_3 1_555 1_555
O3_3 C4_3 1_555 1_555
O4_3 C5_3 1_555 1_555
O6_3 C20_3 1_555 1_555
O7_2 C34_3 1_555 1_555
O8_3 C48_3 1_555 1_555
C1_3 C2_3 1_555 1_555
C2_3 H5_3 1_555 1_555
H6_3 C2_3 1_555 1_555
C3_3 C1_3 1_555 1_555
H7_3 C3_3 1_555 1_555
H8_3 C3_3 1_555 1_555
C4_3 C1_3 1_555 1_555
H9_3 C4_3 1_555 1_555
H10_3 C4_3 1_555 1_555
C5_3 C1_3 1_555 1_555
H11_3 C5_3 1_555 1_555
H12_3 C5_3 1_555 1_555
C8_3 O1_3 1_555 1_555
C9_3 C8_3 1_555 1_555
H13_3 C9_3 1_555 1_555
C20_3 N2_3 1_555 1_555
C21_3 C20_3 1_555 1_555
C22_3 O2_3 1_555 1_555
C26_3 C21_3 1_555 1_555
H27_3 C26_3 1_555 1_555
C27_3 N2_3 1_555 1_555
H28_3 C27_3 1_555 1_555
H29_3 C27_3 1_555 1_555
C28_3 C27_3 1_555 1_555
C29_3 C28_3 1_555 1_555
H30_3 C29_3 1_555 1_555
C30_3 C29_3 1_555 1_555
H31_3 C30_3 1_555 1_555
C31_3 C30_3 1_555 1_555
C33_3 C28_3 1_555 1_555
H34_3 C33_3 1_555 1_555
C34_3 N3_3 1_555 1_555
C35_3 C34_3 1_555 1_555
C36_3 O3_3 1_555 1_555
C37_3 C36_3 1_555 1_555
H35_3 C37_3 1_555 1_555
C38_3 C37_3 1_555 1_555
H36_3 C38_3 1_555 1_555
C39_3 C38_3 1_555 1_555
H37_3 C39_3 1_555 1_555
C40_3 C35_3 1_555 1_555
H38_3 C40_3 1_555 1_555
C41_3 N3_3 1_555 1_555
H39_3 C41_3 1_555 1_555
H40_3 C41_3 1_555 1_555
C42_3 C41_3 1_555 1_555
C43_3 C42_3 1_555 1_555
H41_3 C43_3 1_555 1_555
C44_3 C43_3 1_555 1_555
H42_3 C44_3 1_555 1_555
C45_3 C44_3 1_555 1_555
H43_3 C45_3 1_555 1_555
C46_3 C45_3 1_555 1_555
H44_3 C46_3 1_555 1_555
C47_3 C42_3 1_555 1_555
H45_3 C47_3 1_555 1_555
C48_3 N4_3 1_555 1_555
C49_3 C48_3 1_555 1_555
C50_3 O4_3 1_555 1_555
C51_3 C50_3 1_555 1_555
H46_3 C51_3 1_555 1_555
C52_3 C51_3 1_555 1_555
H47_3 C52_3 1_555 1_555
C53_3 C52_3 1_555 1_555
C54_3 C49_3 1_555 1_555
H49_3 C54_3 1_555 1_555
C55_3 N4_3 1_555 1_555
H50_3 C55_3 1_555 1_555
H51_3 C55_3 1_555 1_555
C56_3 C55_3 1_555 1_555
C57_3 C56_3 1_555 1_555
H52_3 C57_3 1_555 1_555
C58_3 C57_3 1_555 1_555
H53_3 C58_3 1_555 1_555
C59_3 C58_3 1_555 1_555
H54_3 C59_3 1_555 1_555
C60_3 C59_3 1_555 1_555
H55_3 C60_3 1_555 1_555
C61_3 C56_3 1_555 1_555
H56_3 C61_3 1_555 1_555
Tb5_3 O6_3 1_555 1_555
Tb7_3 O31_3 1_555 1_555
Tb9_3 O32_3 1_555 1_555
Tb5_2 O37_2 1_555 1_555
N11_3 H59_3 1_555 1_555
N12_3 H60_3 1_555 1_555
N13_3 H61_3 1_555 1_555
N14_3 H62_3 1_555 1_555
N15_3 H63_3 1_555 1_555
N16_3 H64_3 1_555 1_555
O21_3 C64_3 1_555 1_555
O22_3 C65_3 1_555 1_555
O23_3 C66_3 1_555 1_555
O24_3 C67_3 1_555 1_555
O25_3 C68_3 1_555 1_555
O26_3 C69_3 1_555 1_555
O27_3 C70_3 1_555 1_555
O28_3 C71_3 1_555 1_555
O31_3 C100_3 1_555 1_555
O32_3 C101_3 1_555 1_555
O36_2 C128_3 1_555 1_555
O37_2 C129_3 1_555 1_555
C62_3 C64_3 1_555 1_555
C63_3 C65_3 1_555 1_555
C64_3 H65_3 1_555 1_555
C65_3 H66_3 1_555 1_555
H67_3 C64_3 1_555 1_555
H68_3 C65_3 1_555 1_555
C66_3 C62_3 1_555 1_555
C67_3 C63_3 1_555 1_555
H69_3 C66_3 1_555 1_555
H70_3 C67_3 1_555 1_555
H71_3 C66_3 1_555 1_555
H72_3 C67_3 1_555 1_555
C68_3 C62_3 1_555 1_555
C69_3 C63_3 1_555 1_555
H73_3 C68_3 1_555 1_555
H74_3 C69_3 1_555 1_555
H75_3 C68_3 1_555 1_555
H76_3 C69_3 1_555 1_555
C70_3 C62_3 1_555 1_555
C71_3 C63_3 1_555 1_555
H77_3 C70_3 1_555 1_555
H78_3 C71_3 1_555 1_555
H79_3 C70_3 1_555 1_555
H80_3 C71_3 1_555 1_555
C76_3 O21_3 1_555 1_555
C77_3 O22_3 1_555 1_555
C78_3 C76_3 1_555 1_555
C79_3 C77_3 1_555 1_555
H81_3 C78_3 1_555 1_555
H82_3 C79_3 1_555 1_555
C81_3 C79_3 1_555 1_555
H84_3 C81_3 1_555 1_555
C83_3 C81_3 1_555 1_555
H86_3 C83_3 1_555 1_555
C85_3 C75_3 1_555 1_555
C100_3 N11_3 1_555 1_555
C101_3 N12_3 1_555 1_555
C102_3 C100_3 1_555 1_555
C103_3 C101_3 1_555 1_555
C104_3 O23_3 1_555 1_555
C105_3 O24_3 1_555 1_555
C112_3 C102_3 1_555 1_555
C113_3 C103_3 1_555 1_555
H109_3 C112_3 1_555 1_555
H110_3 C113_3 1_555 1_555
C114_3 N11_3 1_555 1_555
C115_3 N12_3 1_555 1_555
H111_3 C114_3 1_555 1_555
H112_3 C115_3 1_555 1_555
H113 C114_3 1_555 1_555
H114_2 C115_3 1_555 1_555
C116_3 C114_3 1_555 1_555
C117_3 C115_3 1_555 1_555
C118_3 C116_3 1_555 1_555
C119_3 C117_3 1_555 1_555
H115_3 C118_3 1_555 1_555
H116_3 C119_3 1_555 1_555
C120_3 C118_3 1_555 1_555
C121_3 C119_3 1_555 1_555
H117_3 C120_3 1_555 1_555
H118_3 C121_3 1_555 1_555
C122_3 C120_3 1_555 1_555
C123_3 C121_3 1_555 1_555
H120_3 C123_3 1_555 1_555
C125_3 C123_3 1_555 1_555
H122_2 C125_3 1_555 1_555
C126_3 C116_3 1_555 1_555
C127_3 C117_3 1_555 1_555
H123 C126_3 1_555 1_555
H124_2 C127_3 1_555 1_555
C128_3 N13_3 1_555 1_555
C129_3 N14_3 1_555 1_555
C130_3 C128_3 1_555 1_555
C131_3 C129_3 1_555 1_555
C132_3 O25_3 1_555 1_555
C133_3 O26_3 1_555 1_555
C134_3 C132_3 1_555 1_555
C135_3 C133_3 1_555 1_555
H125_3 C134_3 1_555 1_555
H126_3 C135_3 1_555 1_555
C136_3 C134_3 1_555 1_555
C137_3 C135_3 1_555 1_555
H127_3 C136_3 1_555 1_555
H128_3 C137_3 1_555 1_555
C138_3 C136_3 1_555 1_555
C139_3 C137_3 1_555 1_555
H129_3 C138_3 1_555 1_555
H130_3 C139_3 1_555 1_555
C140_3 C130_3 1_555 1_555
C141_3 C131_3 1_555 1_555
H131_3 C140_3 1_555 1_555
H132_3 C141_3 1_555 1_555
C142_3 N13_3 1_555 1_555
C143_3 N14_3 1_555 1_555
H133_3 C142_3 1_555 1_555
H134_3 C143_3 1_555 1_555
H135_3 C142_3 1_555 1_555
H136_3 C143_3 1_555 1_555
C144_3 C142_3 1_555 1_555
C145_3 C143_3 1_555 1_555
C146_3 C144_3 1_555 1_555
C147_3 C145_3 1_555 1_555
H137_3 C146_3 1_555 1_555
H138_3 C147_3 1_555 1_555
C148_3 C146_3 1_555 1_555
C149_3 C147_3 1_555 1_555
H139_3 C148_3 1_555 1_555
H140_3 C149_3 1_555 1_555
C150_3 C148_3 1_555 1_555
C151_3 C149_3 1_555 1_555
H141_3 C150_3 1_555 1_555
H142_3 C151_3 1_555 1_555
C152_3 C150_3 1_555 1_555
C153_3 C151_3 1_555 1_555
H143_3 C152_3 1_555 1_555
H144_3 C153_3 1_555 1_555
C154_3 C144_3 1_555 1_555
C155_3 C145_3 1_555 1_555
H145_3 C154_3 1_555 1_555
H146_3 C155_3 1_555 1_555
C156_3 N15_3 1_555 1_555
C157_3 N16_3 1_555 1_555
C158_3 C156_3 1_555 1_555
C159_3 C157_3 1_555 1_555
C160_3 O27_3 1_555 1_555
C161_3 O28_3 1_555 1_555
C162_3 C160_3 1_555 1_555
C163_3 C161_3 1_555 1_555
H147_3 C162_3 1_555 1_555
H148_3 C163_3 1_555 1_555
C164_3 C162_3 1_555 1_555
C165_3 C163_3 1_555 1_555
H149_3 C164_3 1_555 1_555
H150_3 C165_3 1_555 1_555
C166_3 C164_3 1_555 1_555
C167_3 C165_3 1_555 1_555
C168_3 C158_3 1_555 1_555
C169_3 C159_3 1_555 1_555
H153_3 C168_3 1_555 1_555
H154_3 C169_3 1_555 1_555
C170_3 N15_3 1_555 1_555
C171_3 N16_3 1_555 1_555
H155_3 C170_3 1_555 1_555
H156_3 C171_3 1_555 1_555
H157_3 C170_3 1_555 1_555
H158_3 C171_3 1_555 1_555
C172_3 C170_3 1_555 1_555
C173_3 C171_3 1_555 1_555
C174_3 C172_3 1_555 1_555
C175_3 C173_3 1_555 1_555
H159_3 C174_3 1_555 1_555
H160_3 C175_3 1_555 1_555
C176_3 C174_3 1_555 1_555
C177_3 C175_3 1_555 1_555
H161_3 C176_3 1_555 1_555
H162_3 C177_3 1_555 1_555
C178_3 C176_3 1_555 1_555
C179_3 C177_3 1_555 1_555
H163_3 C178_3 1_555 1_555
H164_3 C179_3 1_555 1_555
C180_3 C178_3 1_555 1_555
C181_3 C179_3 1_555 1_555
H165_3 C180_3 1_555 1_555
H166_3 C181_3 1_555 1_555
C182_3 C172_3 1_555 1_555
C183_3 C173_3 1_555 1_555
H167_3 C182_3 1_555 1_555
H168_3 C183_3 1_555 1_555
C7_3 C8_3 1_555 1_555
C21_3 C22_3 1_555 1_555
C35_3 C36_3 1_555 1_555
C39_3 C40_3 1_555 1_555
C46_3 C47_3 1_555 1_555
C49_3 C50_3 1_555 1_555
C53_3 C54_3 1_555 1_555
C60_3 C61_3 1_555 1_555
O41_3 C156_3 1_555 1_555
O42_3 C157_3 1_555 1_555
C74_3 C76_3 1_555 1_555
C75_3 C77_3 1_555 1_555
C83_3 C85_3 1_555 1_555
C102_3 C104_3 1_555 1_555
C103_3 C105_3 1_555 1_555
C125_3 C127_3 1_555 1_555
C130_3 C132_3 1_555 1_555
C131_3 C133_3 1_555 1_555
C138_3 C140_3 1_555 1_555
C139_3 C141_3 1_555 1_555
C152_3 C154_3 1_555 1_555
C153_3 C155_3 1_555 1_555
C158_3 C160_3 1_555 1_555
C159_3 C161_3 1_555 1_555
C166_3 C168_3 1_555 1_555
C167_3 C169_3 1_555 1_555
C180_3 C182_3 1_555 1_555
C181_3 C183_3 1_555 1_555
N1_3 H1_3 1_555 1_555
N7_3 O15_3 1_555 1_555
N8_3 O18_3 1_555 1_555
O5_3 C6_3 1_555 1_555
O17_3 N7_3 1_555 1_555
O18_3 Tb2_3 1_555 1_555
O19_3 Tb2_3 1_555 1_555
O20_3 N8_3 1_555 1_555
C6_3 N1_3 1_555 1_555
C13_3 N1_3 1_555 1_555
H17_3 C13_3 1_555 1_555
H18_3 C13_3 1_555 1_555
C14_3 C13_3 1_555 1_555
C15_3 C14_3 1_555 1_555
H19_3 C15_3 1_555 1_555
C16_3 C15_3 1_555 1_555
H20_3 C16_3 1_555 1_555
C17_3 C16_3 1_555 1_555
H21_3 C17_3 1_555 1_555
C18_3 C17_3 1_555 1_555
H22_3 C18_3 1_555 1_555
C19_3 C14_3 1_555 1_555
H23_3 C19_3 1_555 1_555
H24_3 C23_3 1_555 1_555
C24_3 C23_3 1_555 1_555
H25_3 C24_3 1_555 1_555
C25_3 C24_3 1_555 1_555
H26_3 C25_3 1_555 1_555
Tb5 O30_3 1_555 1_555
N9_3 H57_3 1_555 1_555
N10_3 H58_3 1_555 1_555
N18_3 O44_3 1_555 1_555
N20_3 O50_3 1_555 1_555
N21_3 O55_3 1_555 1_555
N22_3 O56_3 1_555 1_555
N23_3 O61_3 1_555 1_555
N24_3 O62_3 1_555 1_555
O29_3 C72_3 1_555 1_555
O30_3 C73_3 1_555 1_555
O40_2 Tb5 1_555 1_555
O44_3 Tb5 1_555 1_555
O46_3 Tb5 1_555 1_555
O48_3 N18_3 1_555 1_555
O50_3 Tb5 1_555 1_555
O52_3 Tb5 1_555 1_555
O54_3 N20_3 1_555 1_555
O56_3 Tb5 1_555 1_555
O58_3 Tb5 1_555 1_555
O59_3 N21_3 1_555 1_555
O60_3 N22_3 1_555 1_555
O61_3 Tb2_3 1_555 1_555
O62_3 Tb2_3 1_555 1_555
O63_3 Tb2_3 1_555 1_555
O64_3 Tb2_3 1_555 1_555
O65_3 N24_3 1_555 1_555
O66_3 N23_3 1_555 1_555
C72_3 N9_3 1_555 1_555
C73_3 N10_3 1_555 1_555
C86_3 N9_3 1_555 1_555
C87_3 N10_3 1_555 1_555
H89_3 C86_3 1_555 1_555
H90_3 C87_3 1_555 1_555
H91_3 C86_3 1_555 1_555
H92_3 C87_3 1_555 1_555
C88_3 C86_3 1_555 1_555
C89_3 C87_3 1_555 1_555
C90_3 C88_3 1_555 1_555
C91_3 C89_3 1_555 1_555
H93_3 C90_3 1_555 1_555
H94_3 C91_3 1_555 1_555
C92_3 C90_3 1_555 1_555
C93_3 C91_3 1_555 1_555
H95_3 C92_3 1_555 1_555
H96_3 C93_3 1_555 1_555
C94_3 C92_3 1_555 1_555
C95_3 C93_3 1_555 1_555
H97_3 C94_3 1_555 1_555
H98_3 C95_3 1_555 1_555
C96_3 C94_3 1_555 1_555
C97_3 C95_3 1_555 1_555
H99_3 C96_3 1_555 1_555
H100_3 C97_3 1_555 1_555
C98_3 C88_3 1_555 1_555
C99_3 C89_3 1_555 1_555
H101_3 C98_3 1_555 1_555
H102_3 C99_3 1_555 1_555
H103_3 C106_3 1_555 1_555
H104_3 C107_3 1_555 1_555
C108_3 C106_3 1_555 1_555
C109_3 C107_3 1_555 1_555
H105_3 C108_3 1_555 1_555
H106_3 C109_3 1_555 1_555
C110_3 C108_3 1_555 1_555
C111_3 C109_3 1_555 1_555
H107_3 C110_3 1_555 1_555
H108_3 C111_3 1_555 1_555
N7_3 O16_3 1_555 1_555
N8_3 O19_3 1_555 1_555
C18_3 C19_3 1_555 1_555
N18_3 O46_3 1_555 1_555
N20_3 O52_3 1_555 1_555
N21_3 O57_3 1_555 1_555
N22_3 O58_3 1_555 1_555
N23_3 O63_3 1_555 1_555
N24_3 O64_3 1_555 1_555
C96_3 C98_3 1_555 1_555
C97_3 C99_3 1_555 1_555
H83_3 C80_3 1_555 1_555
C82_3 C80_3 1_555 1_555
H85_3 C82_3 1_555 1_555
H121 C124_3 1_555 1_555
C82_3 C84_3 1_555 1_555
N17_3 O43_3 1_555 1_555
N19_3 O49_3 1_555 1_555
O43_3 Tb9 1_555 1_555
O45_3 Tb9 1_555 1_555
O47_3 N17_3 1_555 1_555
O49_3 Tb9 1_555 1_555
O51_3 Tb9 1_555 1_555
O53_3 N19_3 1_555 1_555
N17_3 O45_3 1_555 1_555
N19_3 O51_3 1_555 1_555
N17_4 O43_4 1_555 1_555
N19_4 O49_4 1_555 1_555
O43_4 Tb9_2 1_555 1_555
O45_4 Tb9_2 1_555 1_555
O47_4 N17_4 1_555 1_555
O49_4 Tb9_2 1_555 1_555
O51_4 Tb9_2 1_555 1_555
O53_4 N19_4 1_555 1_555
H83_4 C80_4 1_555 1_555
C82_4 C80_4 1_555 1_555
H85_4 C82_4 1_555 1_555
H87_4 C84_4 1_555 1_555
H121_2 C124_4 1_555 1_555
N17_4 O45_4 1_555 1_555
N19_4 O51_4 1_555 1_555
C82_4 C84_4 1_555 1_555
Tb2_4 O8_4 1_555 1_555
N1_4 H1_4 1_555 1_555
N2_4 H2_4 1_555 1_555
N3_4 H3_4 1_555 1_555
N4_4 H4_4 1_555 1_555
N7_4 O15_4 1_555 1_555
N8_4 O18_4 1_555 1_555
O1_4 C2_4 1_555 1_555
O2_4 C3_4 1_555 1_555
O3_4 C4_4 1_555 1_555
O4_4 C5_4 1_555 1_555
O5_4 C6_4 1_555 1_555
O6_4 C20_4 1_555 1_555
O39_2 C34_4 1_555 1_555
O8_4 C48_4 1_555 1_555
O17_4 N7_4 1_555 1_555
O18_4 Tb2_4 1_555 1_555
O19_4 Tb2_4 1_555 1_555
O20_4 N8_4 1_555 1_555
C1_4 C2_4 1_555 1_555
C2_4 H5_4 1_555 1_555
H6_4 C2_4 1_555 1_555
C3_4 C1_4 1_555 1_555
H7_4 C3_4 1_555 1_555
H8_4 C3_4 1_555 1_555
C4_4 C1_4 1_555 1_555
H9_4 C4_4 1_555 1_555
H10_4 C4_4 1_555 1_555
C5_4 C1_4 1_555 1_555
H11_4 C5_4 1_555 1_555
H12_4 C5_4 1_555 1_555
C6_4 N1_4 1_555 1_555
C7_4 C6_4 1_555 1_555
C8_4 O1_4 1_555 1_555
C9_4 C8_4 1_555 1_555
H13_4 C9_4 1_555 1_555
C13_4 N1_4 1_555 1_555
H17_4 C13_4 1_555 1_555
H18_4 C13_4 1_555 1_555
C14_4 C13_4 1_555 1_555
C15_4 C14_4 1_555 1_555
H19_4 C15_4 1_555 1_555
C16_4 C15_4 1_555 1_555
H20_4 C16_4 1_555 1_555
C17_4 C16_4 1_555 1_555
H21_4 C17_4 1_555 1_555
C18_4 C17_4 1_555 1_555
H22_4 C18_4 1_555 1_555
C19_4 C14_4 1_555 1_555
H23_4 C19_4 1_555 1_555
C20_4 N2_4 1_555 1_555
C21_4 C20_4 1_555 1_555
C22_4 O2_4 1_555 1_555
C23_4 C22_4 1_555 1_555
H24_4 C23_4 1_555 1_555
C24_4 C23_4 1_555 1_555
H25_4 C24_4 1_555 1_555
C25_4 C24_4 1_555 1_555
H26_4 C25_4 1_555 1_555
C26_4 C21_4 1_555 1_555
H27_4 C26_4 1_555 1_555
C27_4 N2_4 1_555 1_555
H28_4 C27_4 1_555 1_555
H29_4 C27_4 1_555 1_555
C28_4 C27_4 1_555 1_555
C29_4 C28_4 1_555 1_555
H30_4 C29_4 1_555 1_555
C30_4 C29_4 1_555 1_555
H31_4 C30_4 1_555 1_555
C31_4 C30_4 1_555 1_555
C33_4 C28_4 1_555 1_555
H34_4 C33_4 1_555 1_555
C34_4 N3_4 1_555 1_555
C35_4 C34_4 1_555 1_555
C36_4 O3_4 1_555 1_555
C37_4 C36_4 1_555 1_555
H35_4 C37_4 1_555 1_555
C38_4 C37_4 1_555 1_555
H36_4 C38_4 1_555 1_555
C39_4 C38_4 1_555 1_555
H37_4 C39_4 1_555 1_555
C40_4 C35_4 1_555 1_555
H38_4 C40_4 1_555 1_555
C41_4 N3_4 1_555 1_555
H39_4 C41_4 1_555 1_555
H40_4 C41_4 1_555 1_555
C42_4 C41_4 1_555 1_555
C43_4 C42_4 1_555 1_555
H41_4 C43_4 1_555 1_555
C44_4 C43_4 1_555 1_555
H42_4 C44_4 1_555 1_555
C45_4 C44_4 1_555 1_555
H43_4 C45_4 1_555 1_555
C46_4 C45_4 1_555 1_555
H44_4 C46_4 1_555 1_555
C47_4 C42_4 1_555 1_555
H45_4 C47_4 1_555 1_555
C48_4 N4_4 1_555 1_555
C49_4 C48_4 1_555 1_555
C50_4 O4_4 1_555 1_555
C51_4 C50_4 1_555 1_555
H46_4 C51_4 1_555 1_555
C52_4 C51_4 1_555 1_555
H47_4 C52_4 1_555 1_555
C53_4 C52_4 1_555 1_555
H48_4 C53_4 1_555 1_555
C54_4 C49_4 1_555 1_555
H49_4 C54_4 1_555 1_555
C55_4 N4_4 1_555 1_555
H50_4 C55_4 1_555 1_555
H51_4 C55_4 1_555 1_555
C56_4 C55_4 1_555 1_555
C57_4 C56_4 1_555 1_555
H52_4 C57_4 1_555 1_555
C58_4 C57_4 1_555 1_555
H53_4 C58_4 1_555 1_555
C59_4 C58_4 1_555 1_555
H54_4 C59_4 1_555 1_555
C60_4 C59_4 1_555 1_555
H55_4 C60_4 1_555 1_555
C61_4 C56_4 1_555 1_555
H56_4 C61_4 1_555 1_555
Tb5_2 O30_4 1_555 1_555
Tb5_4 O6_4 1_555 1_555
Tb7_4 O31_4 1_555 1_555
Tb9_4 O32_4 1_555 1_555
N9_4 H57_4 1_555 1_555
N10_4 H58_4 1_555 1_555
N11_4 H59_4 1_555 1_555
N12_4 H60_4 1_555 1_555
N13_4 H61_4 1_555 1_555
N14_4 H62_4 1_555 1_555
N15_4 H63_4 1_555 1_555
N16_4 H64_4 1_555 1_555
N18_4 O44_4 1_555 1_555
N20_4 O50_4 1_555 1_555
N21_4 O55_4 1_555 1_555
N22_4 O56_4 1_555 1_555
N23_4 O61_4 1_555 1_555
N24_4 O62_4 1_555 1_555
O21_4 C64_4 1_555 1_555
O22_4 C65_4 1_555 1_555
O23_4 C66_4 1_555 1_555
O24_4 C67_4 1_555 1_555
O25_4 C68_4 1_555 1_555
O26_4 C69_4 1_555 1_555
O27_4 C70_4 1_555 1_555
O28_4 C71_4 1_555 1_555
O29_4 C72_4 1_555 1_555
O30_4 C73_4 1_555 1_555
O31_4 C100_4 1_555 1_555
O32_4 C101_4 1_555 1_555
O38_2 C128_4 1_555 1_555
O40_2 C129_4 1_555 1_555
O41_4 Tb2_4 1_555 1_555
O42_4 Tb2_4 1_555 1_555
O44_4 Tb5_2 1_555 1_555
O46_4 Tb5_2 1_555 1_555
O48_4 N18_4 1_555 1_555
O50_4 Tb5_2 1_555 1_555
O52_4 Tb5_2 1_555 1_555
O54_4 N20_4 1_555 1_555
O56_4 Tb5_2 1_555 1_555
O58_4 Tb5_2 1_555 1_555
O59_4 N21_4 1_555 1_555
O60_4 N22_4 1_555 1_555
O61_4 Tb2_4 1_555 1_555
O62_4 Tb2_4 1_555 1_555
O63_4 Tb2_4 1_555 1_555
O64_4 Tb2_4 1_555 1_555
O65_4 N24_4 1_555 1_555
O66_4 N23_4 1_555 1_555
C62_4 C64_4 1_555 1_555
C63_4 C65_4 1_555 1_555
C64_4 H65_4 1_555 1_555
C65_4 H66_4 1_555 1_555
H67_4 C64_4 1_555 1_555
H68_4 C65_4 1_555 1_555
C66_4 C62_4 1_555 1_555
C67_4 C63_4 1_555 1_555
H69_4 C66_4 1_555 1_555
H70_4 C67_4 1_555 1_555
H71_4 C66_4 1_555 1_555
H72_4 C67_4 1_555 1_555
C68_4 C62_4 1_555 1_555
C69_4 C63_4 1_555 1_555
H73_4 C68_4 1_555 1_555
H74_4 C69_4 1_555 1_555
H75_4 C68_4 1_555 1_555
H76_4 C69_4 1_555 1_555
C70_4 C62_4 1_555 1_555
C71_4 C63_4 1_555 1_555
H77_4 C70_4 1_555 1_555
H78_4 C71_4 1_555 1_555
H79_4 C70_4 1_555 1_555
H80_4 C71_4 1_555 1_555
C72_4 N9_4 1_555 1_555
C73_4 N10_4 1_555 1_555
C74_4 C72_4 1_555 1_555
C75_4 C73_4 1_555 1_555
C76_4 O21_4 1_555 1_555
C77_4 O22_4 1_555 1_555
C78_4 C76_4 1_555 1_555
C79_4 C77_4 1_555 1_555
H81_4 C78_4 1_555 1_555
H82_4 C79_4 1_555 1_555
C81_4 C79_4 1_555 1_555
H84_4 C81_4 1_555 1_555
C83_4 C81_4 1_555 1_555
H86_4 C83_4 1_555 1_555
C85_4 C75_4 1_555 1_555
H88_4 C85_4 1_555 1_555
C86_4 N9_4 1_555 1_555
C87_4 N10_4 1_555 1_555
H89_4 C86_4 1_555 1_555
H90_4 C87_4 1_555 1_555
H91_4 C86_4 1_555 1_555
H92_4 C87_4 1_555 1_555
C88_4 C86_4 1_555 1_555
C89_4 C87_4 1_555 1_555
C90_4 C88_4 1_555 1_555
C91_4 C89_4 1_555 1_555
H93_4 C90_4 1_555 1_555
H94_4 C91_4 1_555 1_555
C92_4 C90_4 1_555 1_555
C93_4 C91_4 1_555 1_555
H95_4 C92_4 1_555 1_555
H96_4 C93_4 1_555 1_555
C94_4 C92_4 1_555 1_555
C95_4 C93_4 1_555 1_555
H97_4 C94_4 1_555 1_555
H98_4 C95_4 1_555 1_555
C96_4 C94_4 1_555 1_555
C97_4 C95_4 1_555 1_555
H99_4 C96_4 1_555 1_555
H100_4 C97_4 1_555 1_555
C98_4 C88_4 1_555 1_555
C99_4 C89_4 1_555 1_555
H101_4 C98_4 1_555 1_555
H102_4 C99_4 1_555 1_555
C100_4 N11_4 1_555 1_555
C101_4 N12_4 1_555 1_555
C102_4 C100_4 1_555 1_555
C103_4 C101_4 1_555 1_555
C104_4 O23_4 1_555 1_555
C105_4 O24_4 1_555 1_555
C106_4 C104_4 1_555 1_555
C107_4 C105_4 1_555 1_555
H103_4 C106_4 1_555 1_555
H104_4 C107_4 1_555 1_555
C108_4 C106_4 1_555 1_555
C109_4 C107_4 1_555 1_555
H105_4 C108_4 1_555 1_555
H106_4 C109_4 1_555 1_555
C110_4 C108_4 1_555 1_555
C111_4 C109_4 1_555 1_555
H107_4 C110_4 1_555 1_555
H108_4 C111_4 1_555 1_555
C112_4 C102_4 1_555 1_555
C113_4 C103_4 1_555 1_555
H109_4 C112_4 1_555 1_555
H110_4 C113_4 1_555 1_555
C114_4 N11_4 1_555 1_555
C115_4 N12_4 1_555 1_555
H111_4 C114_4 1_555 1_555
H112_4 C115_4 1_555 1_555
H113_2 C114_4 1_555 1_555
H114_3 C115_4 1_555 1_555
C116_4 C114_4 1_555 1_555
C117_4 C115_4 1_555 1_555
C118_4 C116_4 1_555 1_555
C119_4 C117_4 1_555 1_555
H115_4 C118_4 1_555 1_555
H116_4 C119_4 1_555 1_555
C120_4 C118_4 1_555 1_555
C121_4 C119_4 1_555 1_555
H117_4 C120_4 1_555 1_555
H118_4 C121_4 1_555 1_555
C122_4 C120_4 1_555 1_555
C123_4 C121_4 1_555 1_555
H120_4 C123_4 1_555 1_555
C125_4 C123_4 1_555 1_555
H122_3 C125_4 1_555 1_555
C126_4 C116_4 1_555 1_555
C127_4 C117_4 1_555 1_555
H123_2 C126_4 1_555 1_555
H124_3 C127_4 1_555 1_555
C128_4 N13_4 1_555 1_555
C129_4 N14_4 1_555 1_555
C130_4 C128_4 1_555 1_555
C131_4 C129_4 1_555 1_555
C132_4 O25_4 1_555 1_555
C133_4 O26_4 1_555 1_555
C134_4 C132_4 1_555 1_555
C135_4 C133_4 1_555 1_555
H125_4 C134_4 1_555 1_555
H126_4 C135_4 1_555 1_555
C136_4 C134_4 1_555 1_555
C137_4 C135_4 1_555 1_555
H127_4 C136_4 1_555 1_555
H128_4 C137_4 1_555 1_555
C138_4 C136_4 1_555 1_555
C139_4 C137_4 1_555 1_555
H129_4 C138_4 1_555 1_555
H130_4 C139_4 1_555 1_555
C140_4 C130_4 1_555 1_555
C141_4 C131_4 1_555 1_555
H131_4 C140_4 1_555 1_555
H132_4 C141_4 1_555 1_555
C142_4 N13_4 1_555 1_555
C143_4 N14_4 1_555 1_555
H133_4 C142_4 1_555 1_555
H134_4 C143_4 1_555 1_555
H135_4 C142_4 1_555 1_555
H136_4 C143_4 1_555 1_555
C144_4 C142_4 1_555 1_555
C145_4 C143_4 1_555 1_555
C146_4 C144_4 1_555 1_555
C147_4 C145_4 1_555 1_555
H137_4 C146_4 1_555 1_555
H138_4 C147_4 1_555 1_555
C148_4 C146_4 1_555 1_555
C149_4 C147_4 1_555 1_555
H139_4 C148_4 1_555 1_555
H140_4 C149_4 1_555 1_555
C150_4 C148_4 1_555 1_555
C151_4 C149_4 1_555 1_555
H141_4 C150_4 1_555 1_555
H142_4 C151_4 1_555 1_555
C152_4 C150_4 1_555 1_555
C153_4 C151_4 1_555 1_555
H143_4 C152_4 1_555 1_555
H144_4 C153_4 1_555 1_555
C154_4 C144_4 1_555 1_555
C155_4 C145_4 1_555 1_555
H145_4 C154_4 1_555 1_555
H146_4 C155_4 1_555 1_555
C156_4 N15_4 1_555 1_555
C157_4 N16_4 1_555 1_555
C158_4 C156_4 1_555 1_555
C159_4 C157_4 1_555 1_555
C160_4 O27_4 1_555 1_555
C161_4 O28_4 1_555 1_555
C162_4 C160_4 1_555 1_555
C163_4 C161_4 1_555 1_555
H147_4 C162_4 1_555 1_555
H148_4 C163_4 1_555 1_555
C164_4 C162_4 1_555 1_555
C165_4 C163_4 1_555 1_555
H149_4 C164_4 1_555 1_555
H150_4 C165_4 1_555 1_555
C166_4 C164_4 1_555 1_555
C167_4 C165_4 1_555 1_555
H151_4 C166_4 1_555 1_555
H152_4 C167_4 1_555 1_555
C168_4 C158_4 1_555 1_555
C169_4 C159_4 1_555 1_555
H153_4 C168_4 1_555 1_555
H154_4 C169_4 1_555 1_555
C170_4 N15_4 1_555 1_555
C171_4 N16_4 1_555 1_555
H155_4 C170_4 1_555 1_555
H156_4 C171_4 1_555 1_555
H157_4 C170_4 1_555 1_555
H158_4 C171_4 1_555 1_555
C172_4 C170_4 1_555 1_555
C173_4 C171_4 1_555 1_555
C174_4 C172_4 1_555 1_555
C175_4 C173_4 1_555 1_555
H159_4 C174_4 1_555 1_555
H160_4 C175_4 1_555 1_555
C176_4 C174_4 1_555 1_555
C177_4 C175_4 1_555 1_555
H161_4 C176_4 1_555 1_555
H162_4 C177_4 1_555 1_555
C178_4 C176_4 1_555 1_555
C179_4 C177_4 1_555 1_555
H163_4 C178_4 1_555 1_555
H164_4 C179_4 1_555 1_555
C180_4 C178_4 1_555 1_555
C181_4 C179_4 1_555 1_555
H165_4 C180_4 1_555 1_555
H166_4 C181_4 1_555 1_555
C182_4 C172_4 1_555 1_555
C183_4 C173_4 1_555 1_555
H167_4 C182_4 1_555 1_555
H168_4 C183_4 1_555 1_555
N7_4 O16_4 1_555 1_555
N8_4 O19_4 1_555 1_555
C7_4 C8_4 1_555 1_555
C18_4 C19_4 1_555 1_555
C21_4 C22_4 1_555 1_555
C25_4 C26_4 1_555 1_555
C35_4 C36_4 1_555 1_555
C39_4 C40_4 1_555 1_555
C46_4 C47_4 1_555 1_555
C49_4 C50_4 1_555 1_555
C53_4 C54_4 1_555 1_555
C60_4 C61_4 1_555 1_555
N18_4 O46_4 1_555 1_555
N20_4 O52_4 1_555 1_555
N21_4 O57_4 1_555 1_555
N22_4 O58_4 1_555 1_555
N23_4 O63_4 1_555 1_555
N24_4 O64_4 1_555 1_555
O41_4 C156_4 1_555 1_555
O42_4 C157_4 1_555 1_555
C74_4 C76_4 1_555 1_555
C75_4 C77_4 1_555 1_555
C83_4 C85_4 1_555 1_555
C96_4 C98_4 1_555 1_555
C97_4 C99_4 1_555 1_555
C102_4 C104_4 1_555 1_555
C103_4 C105_4 1_555 1_555
C110_4 C112_4 1_555 1_555
C111_4 C113_4 1_555 1_555
C125_4 C127_4 1_555 1_555
C130_4 C132_4 1_555 1_555
C131_4 C133_4 1_555 1_555
C138_4 C140_4 1_555 1_555
C139_4 C141_4 1_555 1_555
C152_4 C154_4 1_555 1_555
C153_4 C155_4 1_555 1_555
C158_4 C160_4 1_555 1_555
C159_4 C161_4 1_555 1_555
C166_4 C168_4 1_555 1_555
C167_4 C169_4 1_555 1_555
C180_4 C182_4 1_555 1_555
C181_4 C183_4 1_555 1_555
N5_4 O9_4 1_555 1_555
N6_4 O12_4 1_555 1_555
O9_4 Tb7_2 1_555 1_555
O10_4 Tb7_2 1_555 1_555
O11_4 N5_4 1_555 1_555
O12_4 Tb7_2 1_555 1_555
O13_4 Tb7_2 1_555 1_555
O14_4 N6_4 1_555 1_555
H14_4 C10_4 1_555 1_555
C11_4 C10_4 1_555 1_555
H15_4 C11_4 1_555 1_555
H16_4 C12_4 1_555 1_555
H33_4 C32_4 1_555 1_555
N5_4 O10_4 1_555 1_555
N6_4 O13_4 1_555 1_555
C11_4 C12_4 1_555 1_555
Tb7_3 O5_5 1_555 1_555
N1_5 H1_5 1_555 1_555
N3_5 H3_5 1_555 1_555
N4_5 H4_5 1_555 1_555
N5_5 O9_5 1_555 1_555
N6_5 O12_5 1_555 1_555
N7_5 O15_5 1_555 1_555
O1_5 C2_5 1_555 1_555
O3_5 C4_5 1_555 1_555
O4_5 C5_5 1_555 1_555
O5_5 C6_5 1_555 1_555
O7_3 C34_5 1_555 1_555
O8_5 C48_5 1_555 1_555
O9_5 Tb7_3 1_555 1_555
O10_5 Tb7_3 1_555 1_555
O11_5 N5_5 1_555 1_555
O12_5 Tb7_3 1_555 1_555
O13_5 Tb7_3 1_555 1_555
O14_5 N6_5 1_555 1_555
O15_5 Tb7_3 1_555 1_555
O16_5 Tb7_3 1_555 1_555
O17_5 N7_5 1_555 1_555
C1_5 C2_5 1_555 1_555
C2_5 H5_5 1_555 1_555
H6_5 C2_5 1_555 1_555
C3_5 C1_5 1_555 1_555
H7_5 C3_5 1_555 1_555
H8_5 C3_5 1_555 1_555
C4_5 C1_5 1_555 1_555
H9_5 C4_5 1_555 1_555
H10_5 C4_5 1_555 1_555
C5_5 C1_5 1_555 1_555
H11_5 C5_5 1_555 1_555
H12_5 C5_5 1_555 1_555
C6_5 N1_5 1_555 1_555
C7_5 C6_5 1_555 1_555
C8_5 O1_5 1_555 1_555
C9_5 C8_5 1_555 1_555
H13_5 C9_5 1_555 1_555
C10_5 C9_5 1_555 1_555
H14_5 C10_5 1_555 1_555
C11_5 C10_5 1_555 1_555
H15_5 C11_5 1_555 1_555
C12_5 C7_5 1_555 1_555
H16_5 C12_5 1_555 1_555
C13_5 N1_5 1_555 1_555
H17_5 C13_5 1_555 1_555
H18_5 C13_5 1_555 1_555
C14_5 C13_5 1_555 1_555
C15_5 C14_5 1_555 1_555
H19_5 C15_5 1_555 1_555
C16_5 C15_5 1_555 1_555
H20_5 C16_5 1_555 1_555
C17_5 C16_5 1_555 1_555
C19_5 C14_5 1_555 1_555
H23_5 C19_5 1_555 1_555
H31_5 C30_5 1_555 1_555
C31_5 C30_5 1_555 1_555
H32_5 C31_5 1_555 1_555
C32_5 C31_5 1_555 1_555
H33_5 C32_5 1_555 1_555
C34_5 N3_5 1_555 1_555
C35_5 C34_5 1_555 1_555
C36_5 O3_5 1_555 1_555
C37_5 C36_5 1_555 1_555
H37_5 C39_5 1_555 1_555
C40_5 C35_5 1_555 1_555
H38_5 C40_5 1_555 1_555
C41_5 N3_5 1_555 1_555
H39_5 C41_5 1_555 1_555
H40_5 C41_5 1_555 1_555
C42_5 C41_5 1_555 1_555
C43_5 C42_5 1_555 1_555
H41_5 C43_5 1_555 1_555
C44_5 C43_5 1_555 1_555
H42_5 C44_5 1_555 1_555
C45_5 C44_5 1_555 1_555
H43_5 C45_5 1_555 1_555
C46_5 C45_5 1_555 1_555
H44_5 C46_5 1_555 1_555
C47_5 C42_5 1_555 1_555
H45_5 C47_5 1_555 1_555
C48_5 N4_5 1_555 1_555
C49_5 C48_5 1_555 1_555
C50_5 O4_5 1_555 1_555
C51_5 C50_5 1_555 1_555
H46_5 C51_5 1_555 1_555
C52_5 C51_5 1_555 1_555
H47_5 C52_5 1_555 1_555
C53_5 C52_5 1_555 1_555
H48_5 C53_5 1_555 1_555
C54_5 C49_5 1_555 1_555
H49_5 C54_5 1_555 1_555
Tb9_4 O7_3 1_555 1_555
N12_5 H60_5 1_555 1_555
N24_5 O62_5 1_555 1_555
O34 C101_5 1_555 1_555
O38_3 Tb7_3 1_555 1_555
O65_5 N24_5 1_555 1_555
H100_5 C97_5 1_555 1_555
C101_5 N12_5 1_555 1_555
C103_5 C101_5 1_555 1_555
C105_5 O24_5 1_555 1_555
C107_5 C105_5 1_555 1_555
H104_5 C107_5 1_555 1_555
C109_5 C107_5 1_555 1_555
H106_5 C109_5 1_555 1_555
C111_5 C109_5 1_555 1_555
H108_5 C111_5 1_555 1_555
C113_5 C103_5 1_555 1_555
H110_5 C113_5 1_555 1_555
C115_5 N12_5 1_555 1_555
H112_5 C115_5 1_555 1_555
H114_4 C115_5 1_555 1_555
C117_5 C115_5 1_555 1_555
C119_5 C117_5 1_555 1_555
H116_5 C119_5 1_555 1_555
C127_5 C117_5 1_555 1_555
H124_4 C127_5 1_555 1_555
H128_5 C137_5 1_555 1_555
H156_5 C171_5 1_555 1_555
H158_5 C171_5 1_555 1_555
C173_5 C171_5 1_555 1_555
C175_5 C173_5 1_555 1_555
H160_5 C175_5 1_555 1_555
C177_5 C175_5 1_555 1_555
H162_5 C177_5 1_555 1_555
C179_5 C177_5 1_555 1_555
H164_5 C179_5 1_555 1_555
C181_5 C179_5 1_555 1_555
H166_5 C181_5 1_555 1_555
C183_5 C173_5 1_555 1_555
H168_5 C183_5 1_555 1_555
N5_5 O10_5 1_555 1_555
N6_5 O13_5 1_555 1_555
N7_5 O16_5 1_555 1_555
C7_5 C8_5 1_555 1_555
C11_5 C12_5 1_555 1_555
C35_5 C36_5 1_555 1_555
C39_5 C40_5 1_555 1_555
C46_5 C47_5 1_555 1_555
C49_5 C50_5 1_555 1_555
C53_5 C54_5 1_555 1_555
N24_5 O64_5 1_555 1_555
C103_5 C105_5 1_555 1_555
C111_5 C113_5 1_555 1_555
C181_5 C183_5 1_555 1_555
Tb5_3 O30_5 1_555 1_555
Tb5_4 O37_3 1_555 1_555
N10_5 H58_5 1_555 1_555
N14_5 H62_5 1_555 1_555
N16_5 H64_5 1_555 1_555
N18_5 O44_5 1_555 1_555
N20_5 O50_5 1_555 1_555
N22_5 O56_5 1_555 1_555
O22_5 C65_5 1_555 1_555
O26_5 C69_5 1_555 1_555
O28_5 C71_5 1_555 1_555
O30_5 C73_5 1_555 1_555
O37_3 C129_5 1_555 1_555
O40_3 Tb5_3 1_555 1_555
O42_5 Tb2_5 1_555 1_555
O44_5 Tb5_3 1_555 1_555
O46_5 Tb5_3 1_555 1_555
O48_5 N18_5 1_555 1_555
O50_5 Tb5_3 1_555 1_555
O52_5 Tb5_3 1_555 1_555
O54_5 N20_5 1_555 1_555
O56_5 Tb5_3 1_555 1_555
O58_5 Tb5_3 1_555 1_555
O60_5 N22_5 1_555 1_555
O63_5 Tb2_5 1_555 1_555
C63_5 C65_5 1_555 1_555
C65_5 H66_5 1_555 1_555
H68_5 C65_5 1_555 1_555
C67_5 C63_5 1_555 1_555
H70_5 C67_5 1_555 1_555
H72_5 C67_5 1_555 1_555
C69_5 C63_5 1_555 1_555
H74_5 C69_5 1_555 1_555
H76_5 C69_5 1_555 1_555
C71_5 C63_5 1_555 1_555
H78_5 C71_5 1_555 1_555
H80_5 C71_5 1_555 1_555
C73_5 N10_5 1_555 1_555
C75_5 C73_5 1_555 1_555
C77_5 O22_5 1_555 1_555
C79_5 C77_5 1_555 1_555
H82_5 C79_5 1_555 1_555
C81_5 C79_5 1_555 1_555
H84_5 C81_5 1_555 1_555
C83_5 C81_5 1_555 1_555
H86_5 C83_5 1_555 1_555
C85_5 C75_5 1_555 1_555
H88_5 C85_5 1_555 1_555
C87_5 N10_5 1_555 1_555
H90_5 C87_5 1_555 1_555
H92_5 C87_5 1_555 1_555
C89_5 C87_5 1_555 1_555
C91_5 C89_5 1_555 1_555
H94_5 C91_5 1_555 1_555
C93_5 C91_5 1_555 1_555
H96_5 C93_5 1_555 1_555
C95_5 C93_5 1_555 1_555
C99_5 C89_5 1_555 1_555
H102_5 C99_5 1_555 1_555
H118_5 C121_5 1_555 1_555
C123_5 C121_5 1_555 1_555
H120_5 C123_5 1_555 1_555
C125_5 C123_5 1_555 1_555
H122_4 C125_5 1_555 1_555
C129_5 N14_5 1_555 1_555
C131_5 C129_5 1_555 1_555
C133_5 O26_5 1_555 1_555
C135_5 C133_5 1_555 1_555
H130_5 C139_5 1_555 1_555
C141_5 C131_5 1_555 1_555
H132_5 C141_5 1_555 1_555
C143_5 N14_5 1_555 1_555
H134_5 C143_5 1_555 1_555
H136_5 C143_5 1_555 1_555
C145_5 C143_5 1_555 1_555
C147_5 C145_5 1_555 1_555
H138_5 C147_5 1_555 1_555
C149_5 C147_5 1_555 1_555
H140_5 C149_5 1_555 1_555
C151_5 C149_5 1_555 1_555
H142_5 C151_5 1_555 1_555
C153_5 C151_5 1_555 1_555
H144_5 C153_5 1_555 1_555
C155_5 C145_5 1_555 1_555
H146_5 C155_5 1_555 1_555
C157_5 N16_5 1_555 1_555
C159_5 C157_5 1_555 1_555
C161_5 O28_5 1_555 1_555
C163_5 C161_5 1_555 1_555
H148_5 C163_5 1_555 1_555
C165_5 C163_5 1_555 1_555
H150_5 C165_5 1_555 1_555
C169_5 C159_5 1_555 1_555
N18_5 O46_5 1_555 1_555
N20_5 O52_5 1_555 1_555
N22_5 O58_5 1_555 1_555
O42_5 C157_5 1_555 1_555
C75_5 C77_5 1_555 1_555
C83_5 C85_5 1_555 1_555
C131_5 C133_5 1_555 1_555
C139_5 C141_5 1_555 1_555
C153_5 C155_5 1_555 1_555
C159_5 C161_5 1_555 1_555
N2_5 H2_5 1_555 1_555
N8_5 O18_5 1_555 1_555
O35 C20_5 1_555 1_555
O20_5 N8_5 1_555 1_555
H22_5 C18_5 1_555 1_555
C20_5 N2_5 1_555 1_555
C21_5 C20_5 1_555 1_555
C22_5 O2_5 1_555 1_555
C23_5 C22_5 1_555 1_555
H24_5 C23_5 1_555 1_555
C24_5 C23_5 1_555 1_555
H25_5 C24_5 1_555 1_555
C25_5 C24_5 1_555 1_555
H26_5 C25_5 1_555 1_555
C26_5 C21_5 1_555 1_555
H27_5 C26_5 1_555 1_555
C27_5 N2_5 1_555 1_555
H28_5 C27_5 1_555 1_555
H29_5 C27_5 1_555 1_555
C28_5 C27_5 1_555 1_555
C29_5 C28_5 1_555 1_555
H30_5 C29_5 1_555 1_555
C33_5 C28_5 1_555 1_555
H34_5 C33_5 1_555 1_555
H36_5 C38_5 1_555 1_555
H50_5 C55_5 1_555 1_555
H51_5 C55_5 1_555 1_555
C56_5 C55_5 1_555 1_555
C57_5 C56_5 1_555 1_555
H52_5 C57_5 1_555 1_555
C58_5 C57_5 1_555 1_555
H53_5 C58_5 1_555 1_555
C59_5 C58_5 1_555 1_555
H54_5 C59_5 1_555 1_555
C60_5 C59_5 1_555 1_555
H55_5 C60_5 1_555 1_555
C61_5 C56_5 1_555 1_555
H56_5 C61_5 1_555 1_555
H151_5 C166_5 1_555 1_555
C21_5 C22_5 1_555 1_555
C25_5 C26_5 1_555 1_555
C60_5 C61_5 1_555 1_555
Tb9_3 O29_5 1_555 1_555
Tb7_4 O36_3 1_555 1_555
N9_5 H57_5 1_555 1_555
N11_5 H59_5 1_555 1_555
N13_5 H61_5 1_555 1_555
N15_5 H63_5 1_555 1_555
N17_5 O43_5 1_555 1_555
N19_5 O49_5 1_555 1_555
N21_5 O55_5 1_555 1_555
N23_5 O61_5 1_555 1_555
O21_5 C64_5 1_555 1_555
O23_5 C66_5 1_555 1_555
O25_5 C68_5 1_555 1_555
O27_5 C70_5 1_555 1_555
O29_5 C72_5 1_555 1_555
O33 C100_5 1_555 1_555
O36_3 C128_5 1_555 1_555
O39_3 Tb9_3 1_555 1_555
O43_5 Tb9_3 1_555 1_555
O45_5 Tb9_3 1_555 1_555
O47_5 N17_5 1_555 1_555
O49_5 Tb9_3 1_555 1_555
O51_5 Tb9_3 1_555 1_555
O53_5 N19_5 1_555 1_555
O55_5 Tb9_3 1_555 1_555
O57_5 Tb9_3 1_555 1_555
O59_5 N21_5 1_555 1_555
O66_5 N23_5 1_555 1_555
C62_5 C64_5 1_555 1_555
C64_5 H65_5 1_555 1_555
H67_5 C64_5 1_555 1_555
C66_5 C62_5 1_555 1_555
H69_5 C66_5 1_555 1_555
H71_5 C66_5 1_555 1_555
C68_5 C62_5 1_555 1_555
H73_5 C68_5 1_555 1_555
H75_5 C68_5 1_555 1_555
C70_5 C62_5 1_555 1_555
H77_5 C70_5 1_555 1_555
H79_5 C70_5 1_555 1_555
C72_5 N9_5 1_555 1_555
C74_5 C72_5 1_555 1_555
C76_5 O21_5 1_555 1_555
C78_5 C76_5 1_555 1_555
H81_5 C78_5 1_555 1_555
C80_5 C78_5 1_555 1_555
H83_5 C80_5 1_555 1_555
C82_5 C80_5 1_555 1_555
H85_5 C82_5 1_555 1_555
C84_5 C74_5 1_555 1_555
H87_5 C84_5 1_555 1_555
C86_5 N9_5 1_555 1_555
H89_5 C86_5 1_555 1_555
H91_5 C86_5 1_555 1_555
C88_5 C86_5 1_555 1_555
C90_5 C88_5 1_555 1_555
H93_5 C90_5 1_555 1_555
C92_5 C90_5 1_555 1_555
H95_5 C92_5 1_555 1_555
C94_5 C92_5 1_555 1_555
H97_5 C94_5 1_555 1_555
C96_5 C94_5 1_555 1_555
H99_5 C96_5 1_555 1_555
C98_5 C88_5 1_555 1_555
H101_5 C98_5 1_555 1_555
C100_5 N11_5 1_555 1_555
C102_5 C100_5 1_555 1_555
C104_5 O23_5 1_555 1_555
C106_5 C104_5 1_555 1_555
H103_5 C106_5 1_555 1_555
C108_5 C106_5 1_555 1_555
H105_5 C108_5 1_555 1_555
C110_5 C108_5 1_555 1_555
H107_5 C110_5 1_555 1_555
C112_5 C102_5 1_555 1_555
H109_5 C112_5 1_555 1_555
C114_5 N11_5 1_555 1_555
H111_5 C114_5 1_555 1_555
H113_3 C114_5 1_555 1_555
C116_5 C114_5 1_555 1_555
C118_5 C116_5 1_555 1_555
H115_5 C118_5 1_555 1_555
C120_5 C118_5 1_555 1_555
H117_5 C120_5 1_555 1_555
C122_5 C120_5 1_555 1_555
H119_5 C122_5 1_555 1_555
C124_5 C122_5 1_555 1_555
H121_3 C124_5 1_555 1_555
C126_5 C116_5 1_555 1_555
H123_3 C126_5 1_555 1_555
C128_5 N13_5 1_555 1_555
C130_5 C128_5 1_555 1_555
C132_5 O25_5 1_555 1_555
C134_5 C132_5 1_555 1_555
H125_5 C134_5 1_555 1_555
C136_5 C134_5 1_555 1_555
H127_5 C136_5 1_555 1_555
C138_5 C136_5 1_555 1_555
H129_5 C138_5 1_555 1_555
C140_5 C130_5 1_555 1_555
H131_5 C140_5 1_555 1_555
C142_5 N13_5 1_555 1_555
H133_5 C142_5 1_555 1_555
H135_5 C142_5 1_555 1_555
C144_5 C142_5 1_555 1_555
C146_5 C144_5 1_555 1_555
H137_5 C146_5 1_555 1_555
C148_5 C146_5 1_555 1_555
H139_5 C148_5 1_555 1_555
C150_5 C148_5 1_555 1_555
H141_5 C150_5 1_555 1_555
C152_5 C150_5 1_555 1_555
H143_5 C152_5 1_555 1_555
C154_5 C144_5 1_555 1_555
H145_5 C154_5 1_555 1_555
C156_5 N15_5 1_555 1_555
C158_5 C156_5 1_555 1_555
C160_5 O27_5 1_555 1_555
C162_5 C160_5 1_555 1_555
H147_5 C162_5 1_555 1_555
C164_5 C162_5 1_555 1_555
H149_5 C164_5 1_555 1_555
H152_5 C167_5 1_555 1_555
C168_5 C158_5 1_555 1_555
C170_5 N15_5 1_555 1_555
H155_5 C170_5 1_555 1_555
H157_5 C170_5 1_555 1_555
C172_5 C170_5 1_555 1_555
C174_5 C172_5 1_555 1_555
H159_5 C174_5 1_555 1_555
C176_5 C174_5 1_555 1_555
H161_5 C176_5 1_555 1_555
C178_5 C176_5 1_555 1_555
H163_5 C178_5 1_555 1_555
C180_5 C178_5 1_555 1_555
H165_5 C180_5 1_555 1_555
C182_5 C172_5 1_555 1_555
H167_5 C182_5 1_555 1_555
N17_5 O45_5 1_555 1_555
N19_5 O51_5 1_555 1_555
N21_5 O57_5 1_555 1_555
O41_5 C156_5 1_555 1_555
C74_5 C76_5 1_555 1_555
C82_5 C84_5 1_555 1_555
C96_5 C98_5 1_555 1_555
C102_5 C104_5 1_555 1_555
C110_5 C112_5 1_555 1_555
C124_5 C126_5 1_555 1_555
C130_5 C132_5 1_555 1_555
C138_5 C140_5 1_555 1_555
C152_5 C154_5 1_555 1_555
C158_5 C160_5 1_555 1_555
C180_5 C182_5 1_555 1_555
O8_5 Tb2_6 1_555 1_555
O62_5 Tb2_6 1_555 1_555
O64_5 Tb2_6 1_555 1_555
O41_5 Tb2_7 1_555 1_555
O61_5 Tb2_7 1_555 1_555
O19_5 Tb2_7 1_555 1_555
N13_6 H61_6 1_555 1_555
O38_3 C128_6 1_555 1_555
H111_6 C114_6 1_555 1_555
H113_4 C114_6 1_555 1_555
C116_6 C114_6 1_555 1_555
C118_6 C116_6 1_555 1_555
H115_6 C118_6 1_555 1_555
C120_6 C118_6 1_555 1_555
H117_6 C120_6 1_555 1_555
C122_6 C120_6 1_555 1_555
H119_6 C122_6 1_555 1_555
C124_6 C122_6 1_555 1_555
H121_4 C124_6 1_555 1_555
C126_6 C116_6 1_555 1_555
C128_6 N13_6 1_555 1_555
C130_6 C128_6 1_555 1_555
C132_6 O25_6 1_555 1_555
C134_6 C132_6 1_555 1_555
H125_6 C134_6 1_555 1_555
C136_6 C134_6 1_555 1_555
H127_6 C136_6 1_555 1_555
C138_6 C136_6 1_555 1_555
H129_6 C138_6 1_555 1_555
C140_6 C130_6 1_555 1_555
H131_6 C140_6 1_555 1_555
C142_6 N13_6 1_555 1_555
H133_6 C142_6 1_555 1_555
H135_6 C142_6 1_555 1_555
C144_6 C142_6 1_555 1_555
H161_6 C176_6 1_555 1_555
C178_6 C176_6 1_555 1_555
H163_6 C178_6 1_555 1_555
C180_6 C178_6 1_555 1_555
H165_6 C180_6 1_555 1_555
H167_6 C182_6 1_555 1_555
C124_6 C126_6 1_555 1_555
C130_6 C132_6 1_555 1_555
C138_6 C140_6 1_555 1_555
C180_6 C182_6 1_555 1_555
Tb9_4 O29_6 1_555 1_555
N9_6 H57_6 1_555 1_555
N11_6 H59_6 1_555 1_555
N15_6 H63_6 1_555 1_555
N17_6 O43_6 1_555 1_555
N19_6 O49_6 1_555 1_555
N21_6 O55_6 1_555 1_555
N23_6 O61_6 1_555 1_555
O21_6 C64_6 1_555 1_555
O23_6 C66_6 1_555 1_555
O27_6 C70_6 1_555 1_555
O29_6 C72_6 1_555 1_555
O33_2 C100_6 1_555 1_555
O43_6 Tb9_4 1_555 1_555
O45_6 Tb9_4 1_555 1_555
O47_6 N17_6 1_555 1_555
O49_6 Tb9_4 1_555 1_555
O51_6 Tb9_4 1_555 1_555
O53_6 N19_6 1_555 1_555
O55_6 Tb9_4 1_555 1_555
O57_6 Tb9_4 1_555 1_555
O59_6 N21_6 1_555 1_555
O66_6 N23_6 1_555 1_555
C62_6 C64_6 1_555 1_555
C64_6 H65_6 1_555 1_555
H67_6 C64_6 1_555 1_555
C66_6 C62_6 1_555 1_555
H69_6 C66_6 1_555 1_555
H71_6 C66_6 1_555 1_555
C68_6 C62_6 1_555 1_555
H73_6 C68_6 1_555 1_555
H75_6 C68_6 1_555 1_555
C70_6 C62_6 1_555 1_555
H77_6 C70_6 1_555 1_555
H79_6 C70_6 1_555 1_555
C72_6 N9_6 1_555 1_555
C74_6 C72_6 1_555 1_555
C76_6 O21_6 1_555 1_555
C78_6 C76_6 1_555 1_555
H81_6 C78_6 1_555 1_555
C80_6 C78_6 1_555 1_555
H83_6 C80_6 1_555 1_555
C82_6 C80_6 1_555 1_555
H85_6 C82_6 1_555 1_555
C84_6 C74_6 1_555 1_555
H87_6 C84_6 1_555 1_555
C86_6 N9_6 1_555 1_555
H89_6 C86_6 1_555 1_555
H91_6 C86_6 1_555 1_555
C88_6 C86_6 1_555 1_555
C90_6 C88_6 1_555 1_555
H93_6 C90_6 1_555 1_555
C92_6 C90_6 1_555 1_555
H95_6 C92_6 1_555 1_555
C94_6 C92_6 1_555 1_555
H97_6 C94_6 1_555 1_555
C96_6 C94_6 1_555 1_555
H99_6 C96_6 1_555 1_555
C98_6 C88_6 1_555 1_555
H101_6 C98_6 1_555 1_555
C100_6 N11_6 1_555 1_555
C102_6 C100_6 1_555 1_555
C104_6 O23_6 1_555 1_555
C106_6 C104_6 1_555 1_555
H103_6 C106_6 1_555 1_555
C108_6 C106_6 1_555 1_555
H105_6 C108_6 1_555 1_555
C110_6 C108_6 1_555 1_555
H107_6 C110_6 1_555 1_555
C112_6 C102_6 1_555 1_555
H109_6 C112_6 1_555 1_555
H137_6 C146_6 1_555 1_555
C148_6 C146_6 1_555 1_555
H139_6 C148_6 1_555 1_555
C150_6 C148_6 1_555 1_555
H141_6 C150_6 1_555 1_555
C152_6 C150_6 1_555 1_555
H143_6 C152_6 1_555 1_555
C156_6 N15_6 1_555 1_555
C158_6 C156_6 1_555 1_555
C160_6 O27_6 1_555 1_555
C162_6 C160_6 1_555 1_555
H147_6 C162_6 1_555 1_555
C164_6 C162_6 1_555 1_555
H149_6 C164_6 1_555 1_555
H152_6 C167_6 1_555 1_555
C168_6 C158_6 1_555 1_555
C170_6 N15_6 1_555 1_555
H155_6 C170_6 1_555 1_555
H157_6 C170_6 1_555 1_555
C172_6 C170_6 1_555 1_555
C174_6 C172_6 1_555 1_555
H159_6 C174_6 1_555 1_555
N17_6 O45_6 1_555 1_555
N19_6 O51_6 1_555 1_555
N21_6 O57_6 1_555 1_555
O41_6 C156_6 1_555 1_555
C74_6 C76_6 1_555 1_555
C82_6 C84_6 1_555 1_555
C96_6 C98_6 1_555 1_555
C102_6 C104_6 1_555 1_555
C110_6 C112_6 1_555 1_555
C152_6 C154_6 1_555 1_555
C158_6 C160_6 1_555 1_555
N14_6 H62_6 1_555 1_555
O40_3 C129_6 1_555 1_555
H118_6 C121_6 1_555 1_555
C123_6 C121_6 1_555 1_555
H120_6 C123_6 1_555 1_555
C125_6 C123_6 1_555 1_555
H122_5 C125_6 1_555 1_555
C129_6 N14_6 1_555 1_555
C131_6 C129_6 1_555 1_555
C133_6 O26_6 1_555 1_555
C135_6 C133_6 1_555 1_555
H130_6 C139_6 1_555 1_555
C141_6 C131_6 1_555 1_555
H132_6 C141_6 1_555 1_555
C143_6 N14_6 1_555 1_555
H134_6 C143_6 1_555 1_555
H136_6 C143_6 1_555 1_555
C145_6 C143_6 1_555 1_555
C131_6 C133_6 1_555 1_555
C139_6 C141_6 1_555 1_555
Tb5_4 O30_6 1_555 1_555
N10_6 H58_6 1_555 1_555
N16_6 H64_6 1_555 1_555
N18_6 O44_6 1_555 1_555
N20_6 O50_6 1_555 1_555
N22_6 O56_6 1_555 1_555
O22_6 C65_6 1_555 1_555
O28_6 C71_6 1_555 1_555
O30_6 C73_6 1_555 1_555
O42_6 Tb2_8 1_555 1_555
O44_6 Tb5_4 1_555 1_555
O46_6 Tb5_4 1_555 1_555
O48_6 N18_6 1_555 1_555
O50_6 Tb5_4 1_555 1_555
O52_6 Tb5_4 1_555 1_555
O54_6 N20_6 1_555 1_555
O56_6 Tb5_4 1_555 1_555
O58_6 Tb5_4 1_555 1_555
O60_6 N22_6 1_555 1_555
O63_6 Tb2_8 1_555 1_555
C63_6 C65_6 1_555 1_555
C65_6 H66_6 1_555 1_555
H68_6 C65_6 1_555 1_555
C67_6 C63_6 1_555 1_555
H70_6 C67_6 1_555 1_555
H72_6 C67_6 1_555 1_555
C69_6 C63_6 1_555 1_555
H74_6 C69_6 1_555 1_555
H76_6 C69_6 1_555 1_555
C71_6 C63_6 1_555 1_555
H78_6 C71_6 1_555 1_555
H80_6 C71_6 1_555 1_555
C73_6 N10_6 1_555 1_555
C75_6 C73_6 1_555 1_555
C77_6 O22_6 1_555 1_555
C79_6 C77_6 1_555 1_555
H82_6 C79_6 1_555 1_555
C81_6 C79_6 1_555 1_555
H84_6 C81_6 1_555 1_555
C83_6 C81_6 1_555 1_555
H86_6 C83_6 1_555 1_555
C85_6 C75_6 1_555 1_555
H88_6 C85_6 1_555 1_555
C87_6 N10_6 1_555 1_555
H90_6 C87_6 1_555 1_555
H92_6 C87_6 1_555 1_555
C89_6 C87_6 1_555 1_555
C91_6 C89_6 1_555 1_555
H94_6 C91_6 1_555 1_555
C93_6 C91_6 1_555 1_555
H96_6 C93_6 1_555 1_555
C95_6 C93_6 1_555 1_555
C99_6 C89_6 1_555 1_555
H102_6 C99_6 1_555 1_555
H138_6 C147_6 1_555 1_555
C149_6 C147_6 1_555 1_555
H140_6 C149_6 1_555 1_555
C151_6 C149_6 1_555 1_555
H142_6 C151_6 1_555 1_555
C153_6 C151_6 1_555 1_555
H144_6 C153_6 1_555 1_555
C157_6 N16_6 1_555 1_555
C159_6 C157_6 1_555 1_555
C161_6 O28_6 1_555 1_555
C163_6 C161_6 1_555 1_555
H148_6 C163_6 1_555 1_555
C165_6 C163_6 1_555 1_555
H150_6 C165_6 1_555 1_555
C169_6 C159_6 1_555 1_555
N18_6 O46_6 1_555 1_555
N20_6 O52_6 1_555 1_555
N22_6 O58_6 1_555 1_555
O42_6 C157_6 1_555 1_555
C75_6 C77_6 1_555 1_555
C83_6 C85_6 1_555 1_555
C153_6 C155_6 1_555 1_555
C159_6 C161_6 1_555 1_555
H28_6 C27_6 1_555 1_555
H29_6 C27_6 1_555 1_555
C28_6 C27_6 1_555 1_555
C29_6 C28_6 1_555 1_555
H30_6 C29_6 1_555 1_555
C33_6 C28_6 1_555 1_555
H36_6 C38_6 1_555 1_555
H53_6 C58_6 1_555 1_555
C59_6 C58_6 1_555 1_555
H54_6 C59_6 1_555 1_555
C60_6 C59_6 1_555 1_555
H55_6 C60_6 1_555 1_555
H56_6 C61_6 1_555 1_555
C60_6 C61_6 1_555 1_555
N2_6 H2_6 1_555 1_555
N8_6 O18_6 1_555 1_555
O35_2 C20_6 1_555 1_555
O20_6 N8_6 1_555 1_555
H22_6 C18_6 1_555 1_555
C20_6 N2_6 1_555 1_555
C21_6 C20_6 1_555 1_555
C22_6 O2_6 1_555 1_555
C23_6 C22_6 1_555 1_555
H24_6 C23_6 1_555 1_555
C24_6 C23_6 1_555 1_555
H25_6 C24_6 1_555 1_555
C25_6 C24_6 1_555 1_555
H26_6 C25_6 1_555 1_555
C26_6 C21_6 1_555 1_555
H27_6 C26_6 1_555 1_555
H50_6 C55_6 1_555 1_555
H51_6 C55_6 1_555 1_555
C56_6 C55_6 1_555 1_555
C57_6 C56_6 1_555 1_555
H52_6 C57_6 1_555 1_555
H151_6 C166_6 1_555 1_555
C21_6 C22_6 1_555 1_555
C25_6 C26_6 1_555 1_555
N3_6 H3_6 1_555 1_555
O39_3 C34_6 1_555 1_555
H31_6 C30_6 1_555 1_555
C31_6 C30_6 1_555 1_555
H32_6 C31_6 1_555 1_555
C32_6 C31_6 1_555 1_555
H33_6 C32_6 1_555 1_555
C34_6 N3_6 1_555 1_555
C35_6 C34_6 1_555 1_555
C36_6 O3_6 1_555 1_555
C37_6 C36_6 1_555 1_555
H37_6 C39_6 1_555 1_555
C40_6 C35_6 1_555 1_555
H38_6 C40_6 1_555 1_555
C41_6 N3_6 1_555 1_555
H39_6 C41_6 1_555 1_555
H40_6 C41_6 1_555 1_555
C42_6 C41_6 1_555 1_555
H112_6 C115_6 1_555 1_555
H114_5 C115_6 1_555 1_555
C117_6 C115_6 1_555 1_555
C119_6 C117_6 1_555 1_555
H116_6 C119_6 1_555 1_555
C127_6 C117_6 1_555 1_555
H128_6 C137_6 1_555 1_555
H162_6 C177_6 1_555 1_555
C179_6 C177_6 1_555 1_555
H164_6 C179_6 1_555 1_555
C181_6 C179_6 1_555 1_555
H166_6 C181_6 1_555 1_555
H168_6 C183_6 1_555 1_555
C35_6 C36_6 1_555 1_555
C39_6 C40_6 1_555 1_555
C181_6 C183_6 1_555 1_555
Tb7_4 O5_6 1_555 1_555
N1_6 H1_6 1_555 1_555
N4_6 H4_6 1_555 1_555
N5_6 O9_6 1_555 1_555
N6_6 O12_6 1_555 1_555
N7_6 O15_6 1_555 1_555
O1_6 C2_6 1_555 1_555
O4_6 C5_6 1_555 1_555
O5_6 C6_6 1_555 1_555
O8_6 C48_6 1_555 1_555
O9_6 Tb7_4 1_555 1_555
O10_6 Tb7_4 1_555 1_555
O11_6 N5_6 1_555 1_555
O12_6 Tb7_4 1_555 1_555
O13_6 Tb7_4 1_555 1_555
O14_6 N6_6 1_555 1_555
O15_6 Tb7_4 1_555 1_555
O16_6 Tb7_4 1_555 1_555
O17_6 N7_6 1_555 1_555
C1_6 C2_6 1_555 1_555
C2_6 H5_6 1_555 1_555
H6_6 C2_6 1_555 1_555
C3_6 C1_6 1_555 1_555
H7_6 C3_6 1_555 1_555
H8_6 C3_6 1_555 1_555
C4_6 C1_6 1_555 1_555
H9_6 C4_6 1_555 1_555
H10_6 C4_6 1_555 1_555
C5_6 C1_6 1_555 1_555
H11_6 C5_6 1_555 1_555
H12_6 C5_6 1_555 1_555
C6_6 N1_6 1_555 1_555
C7_6 C6_6 1_555 1_555
C8_6 O1_6 1_555 1_555
C9_6 C8_6 1_555 1_555
H13_6 C9_6 1_555 1_555
C10_6 C9_6 1_555 1_555
H14_6 C10_6 1_555 1_555
C11_6 C10_6 1_555 1_555
H15_6 C11_6 1_555 1_555
C12_6 C7_6 1_555 1_555
H16_6 C12_6 1_555 1_555
C13_6 N1_6 1_555 1_555
H17_6 C13_6 1_555 1_555
H18_6 C13_6 1_555 1_555
C14_6 C13_6 1_555 1_555
C15_6 C14_6 1_555 1_555
H19_6 C15_6 1_555 1_555
C16_6 C15_6 1_555 1_555
H20_6 C16_6 1_555 1_555
C17_6 C16_6 1_555 1_555
C19_6 C14_6 1_555 1_555
H23_6 C19_6 1_555 1_555
H41_6 C43_6 1_555 1_555
C44_6 C43_6 1_555 1_555
H42_6 C44_6 1_555 1_555
C45_6 C44_6 1_555 1_555
H43_6 C45_6 1_555 1_555
C46_6 C45_6 1_555 1_555
H44_6 C46_6 1_555 1_555
C48_6 N4_6 1_555 1_555
C49_6 C48_6 1_555 1_555
C50_6 O4_6 1_555 1_555
C51_6 C50_6 1_555 1_555
H46_6 C51_6 1_555 1_555
C52_6 C51_6 1_555 1_555
H47_6 C52_6 1_555 1_555
C53_6 C52_6 1_555 1_555
H48_6 C53_6 1_555 1_555
C54_6 C49_6 1_555 1_555
H49_6 C54_6 1_555 1_555
N12_6 H60_6 1_555 1_555
N24_6 O62_6 1_555 1_555
O34_2 C101_6 1_555 1_555
O65_6 N24_6 1_555 1_555
H100_6 C97_6 1_555 1_555
C101_6 N12_6 1_555 1_555
C103_6 C101_6 1_555 1_555
C105_6 O24_6 1_555 1_555
C107_6 C105_6 1_555 1_555
H104_6 C107_6 1_555 1_555
C109_6 C107_6 1_555 1_555
H106_6 C109_6 1_555 1_555
C111_6 C109_6 1_555 1_555
H108_6 C111_6 1_555 1_555
C113_6 C103_6 1_555 1_555
H110_6 C113_6 1_555 1_555
H156_6 C171_6 1_555 1_555
H158_6 C171_6 1_555 1_555
C173_6 C171_6 1_555 1_555
C175_6 C173_6 1_555 1_555
H160_6 C175_6 1_555 1_555
N5_6 O10_6 1_555 1_555
N6_6 O13_6 1_555 1_555
N7_6 O16_6 1_555 1_555
C7_6 C8_6 1_555 1_555
C11_6 C12_6 1_555 1_555
C46_6 C47_6 1_555 1_555
C49_6 C50_6 1_555 1_555
C53_6 C54_6 1_555 1_555
N24_6 O64_6 1_555 1_555
C103_6 C105_6 1_555 1_555
C111_6 C113_6 1_555 1_555
O8_6 Tb2_9 1_555 1_555
O62_6 Tb2_9 1_555 1_555
O64_6 Tb2_9 1_555 1_555
O41_6 Tb2_10 1_555 1_555
O61_6 Tb2_10 1_555 1_555
O19_6 Tb2_10 1_555 1_555

#END
