
###############################################################################
#
# This file contains modified crystal structure data generated from the
# MOF subset of the Cambridge Structural Database (CSD) v543 
# hosted by the Cambridge Crystallographic Data Centre (CCDC).
#
# This work is licensed under the Creative Commons
# Attribution-NonCommercial-ShareAlike 4.0 International License.
# To view a copy of this license, visit
# http://creativecommons.org/licenses/by-nc-sa/4.0/
# or send a letter to
# Creative Commons, PO Box 1866, Mountain View, CA 94042, USA.
#
# CIF created using the CSD Python API on 29 September 2022
# The structure has been converted into the P1 space group
# The structure has a 3D framework
# The original CSD entry LOQSUG is in the rhombohedral crystal system
# The framework has been calculated to contain at least 10.0% void space
# The void calculation uses a probe of radius 1.32A, grid spacing 0.4
#
###############################################################################

data_LOQSUG
_chemical_formula_moiety         '(C1098 H1008 Er28 N144 O360)n'
_symmetry_cell_setting           triclinic
_symmetry_space_group_name_H-M   'P 1'
_symmetry_Int_Tables_number      1
_space_group_name_Hall           'P 1'
loop_
_symmetry_equiv_pos_site_id
_symmetry_equiv_pos_as_xyz
1 x,y,z
_cell_length_a                   39.386(2)
_cell_length_b                   39.386(2)
_cell_length_c                   24.133(3)
_cell_angle_alpha                90
_cell_angle_beta                 90
_cell_angle_gamma                120
_cell_volume                     32420.9
loop_
_atom_site_label
_atom_site_type_symbol
_atom_site_fract_x
_atom_site_fract_y
_atom_site_fract_z
H121 H 0.6923 0.0166 0.1612
H123 H 0.6347 0.0130 0.1831
Er1 Er 0.13370(2) 0.31685(2) 0.46478(5)
Er2 Er 0.3333 0.6667 0.36384(6)
N1 N 0.2463(7) 0.3978(6) 0.3987(10)
H1 H 0.2687 0.4096 0.3823
N2 N 0.4008(5) 0.4524(6) 0.2038(9)
H2 H 0.3825 0.4397 0.2275
N3 N 0.2058(6) 0.4032(5) 0.0952(8)
H3 H 0.2157 0.4238 0.1158
N4 N 0.3141(7) 0.5843(7) 0.2368(10)
H4 H 0.3047 0.5657 0.2128
N5 N 0.1074(6) 0.2571(6) 0.3840(8)
N6 N 0.0711(5) 0.2725(6) 0.5362(8)
N7 N 0.1021(5) 0.3591(6) 0.4152(8)
N8 N 0.3807(7) 0.6458(6) 0.4244(10)
O1 O 0.2623(4) 0.3963(4) 0.2824(7)
O2 O 0.3595(4) 0.4827(5) 0.2569(7)
O3 O 0.2784(5) 0.4552(5) 0.1324(7)
O4 O 0.2659(5) 0.5005(4) 0.2537(7)
O5 O 0.1907(5) 0.3441(4) 0.4141(7)
O6 O 0.4635(4) 0.5025(4) 0.1883(7)
O7 O 0.2065(5) 0.3720(5) 0.0157(7)
O8 O 0.3039(4) 0.6130(4) 0.3058(6)
O9 O 0.1032(5) 0.2865(5) 0.3771(7)
O10 O 0.1309(5) 0.2590(4) 0.4217(6)
O11 O 0.0991(8) 0.2327(5) 0.3465(8)
O12 O 0.0971(4) 0.3058(4) 0.5504(7)
O13 O 0.0732(5) 0.2593(5) 0.4891(7)
O14 O 0.0411(6) 0.2531(7) 0.5657(10)
O15 O 0.0844(5) 0.3350(5) 0.4537(7)
O16 O 0.1365(4) 0.3672(5) 0.4029(7)
O17 O 0.0865(6) 0.3757(7) 0.3910(9)
O18 O 0.3616(5) 0.6257(4) 0.3832(7)
O19 O 0.3796(6) 0.6765(5) 0.4354(9)
O20 O 0.4063(7) 0.6396(6) 0.4452(10)
C1 C 0.2923(6) 0.4590(6) 0.2317(9)
C2 C 0.2846(7) 0.4183(6) 0.2289(9)
H5 H 0.3092 0.4182 0.2262
H6 H 0.2690 0.4052 0.1965
C3 C 0.3203(7) 0.4792(7) 0.2769(10)
H7 H 0.3115 0.4642 0.3109
H8 H 0.3235 0.5049 0.2833
C4 C 0.3071(7) 0.4769(7) 0.1736(10)
H9 H 0.3129 0.5039 0.1734
H10 H 0.3311 0.4767 0.1652
C5 C 0.2567(7) 0.4616(7) 0.2451(11)
H11 H 0.2381 0.4503 0.2150
H12 H 0.2445 0.4463 0.2782
C6 C 0.2211(7) 0.3604(7) 0.3834(11)
C7 C 0.2226(6) 0.3403(6) 0.3316(9)
C8 C 0.2437(6) 0.3552(6) 0.2842(8)
C9 C 0.2484(7) 0.3343(6) 0.2441(10)
H13 H 0.2636 0.3466 0.2130
C10 C 0.2307(7) 0.2958(6) 0.2501(10)
H14 H 0.2354 0.2813 0.2239
C11 C 0.2067(7) 0.2771(7) 0.2918(9)
H15 H 0.1901 0.2500 0.2931
C12 C 0.2092(7) 0.3015(6) 0.3311(10)
H16 H 0.1998 0.2894 0.3653
C13 C 0.2397(7) 0.4167(6) 0.4348(12)
H17 H 0.2374 0.4049 0.4709
H18 H 0.2153 0.4160 0.4266
C14 C 0.2737(6) 0.4595(5) 0.4354(11)
C15 C 0.2700(6) 0.4889(7) 0.4113(12)
H19 H 0.2459 0.4840 0.3974
C16 C 0.3019(7) 0.5254(6) 0.4080(11)
H20 H 0.3018 0.5438 0.3840
C17 C 0.3340(7) 0.5351(6) 0.4395(12)
H21 H 0.3547 0.5608 0.4400
C18 C 0.3359(6) 0.5073(7) 0.4702(12)
H22 H 0.3565 0.5140 0.4948
C19 C 0.3072(6) 0.4695(6) 0.4645(11)
H23 H 0.3104 0.4498 0.4806
C20 C 0.4324(5) 0.4888(6) 0.2108(10)
C21 C 0.4269(7) 0.5118(7) 0.2644(10)
C22 C 0.3939(7) 0.5080(6) 0.2868(9)
C23 C 0.3926(7) 0.5251(7) 0.3340(9)
H24 H 0.3686 0.5207 0.3478
C24 C 0.4259(7) 0.5486(7) 0.3613(11)
H25 H 0.4253 0.5599 0.3949
C25 C 0.4596(7) 0.5556(7) 0.3403(9)
H26 H 0.4834 0.5743 0.3554
C26 C 0.4578(7) 0.5342(7) 0.2957(9)
H27 H 0.4812 0.5354 0.2857
C27 C 0.4038(6) 0.4388(8) 0.1485(10)
H28 H 0.4257 0.4341 0.1465
H29 H 0.4073 0.4580 0.1205
C28 C 0.3645(5) 0.4003(7) 0.1402(12)
C29 C 0.3367(6) 0.3990(7) 0.1057(12)
H30 H 0.3414 0.4215 0.0866
C30 C 0.3022(7) 0.3652(7) 0.0986(12)
H31 H 0.2818 0.3656 0.0796
C31 C 0.2971(6) 0.3309(8) 0.1191(13)
H32 H 0.2738 0.3075 0.1129
C32 C 0.3267(6) 0.3312(7) 0.1490(13)
H33 H 0.3243 0.3077 0.1612
C33 C 0.3591(7) 0.3653(7) 0.1606(11)
H34 H 0.3783 0.3653 0.1831
C34 C 0.2227(7) 0.4003(7) 0.0486(9)
C35 C 0.2648(8) 0.4357(6) 0.0413(7)
C36 C 0.2907(7) 0.4621(6) 0.0790(7)
C37 C 0.3232(8) 0.4947(5) 0.0620(7)
H35 H 0.3382 0.5140 0.0877
C38 C 0.3346(7) 0.5000(6) 0.0077(7)
C41 C 0.1684(8) 0.3672(6) 0.1073(8)
H39 H 0.1494 0.3623 0.0784
H40 H 0.1723 0.3448 0.1098
C42 C 0.1546(6) 0.3742(7) 0.1617(7)
C43 C 0.1608(6) 0.3576(8) 0.2068(9)
H41 H 0.1743 0.3439 0.2034
C44 C 0.1475(7) 0.3611(8) 0.2567(8)
H42 H 0.1511 0.3489 0.2873
C45 C 0.1287(7) 0.3818(8) 0.2634(8)
H43 H 0.1253 0.3896 0.2983
C46 C 0.1150(6) 0.3910(8) 0.2170(9)
H44 H 0.0959 0.3982 0.2195
C47 C 0.1300(6) 0.3894(7) 0.1674(8)
H45 H 0.1235 0.3988 0.1362
C48 C 0.2929(8) 0.5838(8) 0.2726(11)
C49 C 0.2523(6) 0.5478(6) 0.2893(10)
C50 C 0.2375(6) 0.5090(5) 0.2797(11)
C51 C 0.2001(6) 0.4802(7) 0.2839(11)
H46 H 0.1922 0.4552 0.2706
C52 C 0.1744(7) 0.4883(7) 0.3077(11)
H47 H 0.1487 0.4693 0.3155
C53 C 0.1885(7) 0.5251(6) 0.3188(12)
H48 H 0.1712 0.5319 0.3343
C54 C 0.2244(6) 0.5538(6) 0.3108(10)
H49 H 0.2306 0.5792 0.3203
C55 C 0.3515(8) 0.6121(8) 0.2318(13)
H50 H 0.3651 0.6151 0.2666
H51 H 0.3533 0.6369 0.2227
C56 C 0.3715(8) 0.5997(8) 0.1837(10)
C57 C 0.3957(9) 0.5861(8) 0.2001(9)
H52 H 0.4007 0.5851 0.2375
C58 C 0.4121(8) 0.5742(8) 0.1615(11)
H53 H 0.4246 0.5604 0.1721
C59 C 0.4107(8) 0.5822(9) 0.1077(10)
H54 H 0.4208 0.5726 0.0810
C60 C 0.3944(8) 0.6042(8) 0.0920(9)
H55 H 0.3983 0.6147 0.0565
C61 C 0.3725(8) 0.6106(8) 0.1295(11)
H56 H 0.3582 0.6224 0.1184
Er3 Er 0.68315(2) 0.81685(3) 0.46478(5)
Er4 Er 0.18315(3) 0.86630(2) 0.46478(5)
Er5 Er 0.51648(3) 0.53297(2) 0.13145(5)
Er7 Er 0.46703(2) 0.98352(2) 0.13145(5)
Er9 Er 0.01648(2) 0.48352(3) 0.13145(5)
N9 N 0.6022(6) 0.8485(9) 0.3987(10)
N10 N 0.1515(9) 0.7537(7) 0.3987(10)
H57 H 0.5904 0.8591 0.3823
H58 H 0.1409 0.7313 0.3823
N11 N 0.5476(6) 0.9484(8) 0.2038(9)
N12 N 0.0516(8) 0.5992(5) 0.2038(9)
H59 H 0.5603 0.9428 0.2275
H60 H 0.0572 0.6175 0.2275
N13 N 0.5968(5) 0.8026(8) 0.0952(8)
N14 N 0.1974(8) 0.7942(6) 0.0952(8)
H61 H 0.5762 0.7919 0.1158
H62 H 0.2081 0.7843 0.1158
N15 N 0.4157(7) 0.7298(10) 0.2368(10)
N16 N 0.2702(10) 0.6859(7) 0.2368(10)
H63 H 0.4343 0.7390 0.2128
H64 H 0.2610 0.6953 0.2128
N17 N 0.7429(6) 0.8503(8) 0.3840(8)
N18 N 0.1497(8) 0.8926(6) 0.3840(8)
N19 N 0.7275(6) 0.7986(8) 0.5362(8)
N20 N 0.2014(8) 0.9289(5) 0.5362(8)
N21 N 0.6409(6) 0.7430(8) 0.4152(8)
N22 N 0.2570(8) 0.8979(5) 0.4152(8)
N23 N 0.3542(6) 0.7349(9) 0.4244(10)
N24 N 0.2651(9) 0.6193(7) 0.4244(10)
O21 O 0.6037(4) 0.8660(6) 0.2824(7)
O22 O 0.1340(6) 0.7377(4) 0.2824(7)
O23 O 0.5173(5) 0.8768(6) 0.2569(7)
O24 O 0.1232(6) 0.6405(4) 0.2569(7)
O25 O 0.5448(5) 0.8232(7) 0.1324(7)
O26 O 0.1768(7) 0.7216(5) 0.1324(7)
O27 O 0.4995(4) 0.7654(6) 0.2537(7)
O28 O 0.2346(6) 0.7341(5) 0.2537(7)
O29 O 0.6559(4) 0.8466(6) 0.4141(7)
O30 O 0.1534(6) 0.8093(5) 0.4141(7)
O31 O 0.4975(4) 0.9610(6) 0.1883(7)
O32 O 0.0390(6) 0.5365(4) 0.1883(7)
O33 O 0.1642(4) 0.2943(6) 0.5216(7)
O34 O 0.7057(6) 0.8698(4) 0.5216(7)
O35 O 0.1302(4) 0.8358(4) 0.5216(7)
O36 O 0.6280(5) 0.8345(7) 0.0157(7)
O37 O 0.1655(7) 0.7935(5) 0.0157(7)
O38 O 0.1655(7) 0.3720(5) 0.5157(7)
O39 O 0.6280(5) 0.7935(5) 0.5157(7)
O40 O 0.2065(5) 0.8345(7) 0.5157(7)
O41 O 0.3870(4) 0.6909(6) 0.3058(6)
O42 O 0.3091(6) 0.6961(4) 0.3058(6)
O43 O 0.7135(5) 0.8167(7) 0.3771(7)
O44 O 0.1833(7) 0.8968(5) 0.3771(7)
O45 O 0.7410(4) 0.8719(6) 0.4217(6)
O46 O 0.1281(6) 0.8691(5) 0.4217(6)
O47 O 0.7673(5) 0.8664(9) 0.3465(8)
O48 O 0.1336(9) 0.9009(8) 0.3465(8)
O49 O 0.6942(4) 0.7913(6) 0.5504(7)
O50 O 0.2087(6) 0.9029(4) 0.5504(7)
O51 O 0.7407(5) 0.8139(7) 0.4891(7)
O52 O 0.1861(7) 0.9268(5) 0.4891(7)
O53 O 0.7469(7) 0.7880(9) 0.5657(10)
O54 O 0.2120(9) 0.9589(6) 0.5657(10)
O55 O 0.6650(5) 0.7494(7) 0.4537(7)
O56 O 0.2506(7) 0.9156(5) 0.4537(7)
O57 O 0.6328(5) 0.7693(6) 0.4029(7)
O58 O 0.2307(6) 0.8635(4) 0.4029(7)
O59 O 0.6243(7) 0.7108(9) 0.3910(9)
O60 O 0.2892(9) 0.9135(6) 0.3910(9)
O61 O 0.3743(4) 0.7359(6) 0.3832(7)
O62 O 0.2641(6) 0.6384(5) 0.3832(7)
O63 O 0.3235(5) 0.7031(8) 0.4354(9)
O64 O 0.2969(8) 0.6204(6) 0.4354(9)
O65 O 0.2333(9) 0.5937(7) 0.4452(10)
O66 O 0.3604(6) 0.7667(9) 0.4452(10)
C62 C 0.5410(6) 0.8333(8) 0.2317(9)
C63 C 0.1667(8) 0.7077(6) 0.2317(9)
C64 C 0.5817(6) 0.8663(9) 0.2289(9)
C65 C 0.1337(9) 0.7154(7) 0.2289(9)
H65 H 0.5818 0.8910 0.2262
H66 H 0.1090 0.6908 0.2262
H67 H 0.5948 0.8638 0.1965
H68 H 0.1362 0.7310 0.1965
C66 C 0.5208(7) 0.8411(10) 0.2769(10)
C67 C 0.1589(10) 0.6797(7) 0.2769(10)
H69 H 0.5358 0.8473 0.3109
H70 H 0.1527 0.6885 0.3109
H71 H 0.4951 0.8186 0.2833
H72 H 0.1814 0.6765 0.2833
C68 C 0.5231(7) 0.8302(10) 0.1736(10)
C69 C 0.1698(10) 0.6929(7) 0.1736(10)
H73 H 0.4961 0.8090 0.1734
H74 H 0.1910 0.6871 0.1734
H75 H 0.5233 0.8544 0.1652
H76 H 0.1456 0.6689 0.1652
C70 C 0.5384(7) 0.7951(10) 0.2451(11)
C71 C 0.2049(10) 0.7433(7) 0.2451(11)
H77 H 0.5497 0.7878 0.2150
H78 H 0.2122 0.7619 0.2150
H79 H 0.5537 0.7982 0.2782
H80 H 0.2018 0.7555 0.2782
C72 C 0.6396(7) 0.8607(10) 0.3834(11)
C73 C 0.1393(10) 0.7789(7) 0.3834(11)
C74 C 0.6597(6) 0.8823(8) 0.3316(9)
C75 C 0.1177(8) 0.7774(6) 0.3316(9)
C76 C 0.6448(6) 0.8885(8) 0.2842(8)
C77 C 0.1115(8) 0.7563(6) 0.2842(8)
C78 C 0.6657(6) 0.9141(9) 0.2441(10)
C79 C 0.0859(9) 0.7516(7) 0.2441(10)
H81 H 0.6534 0.9170 0.2130
H82 H 0.0830 0.7364 0.2130
C80 C 0.7042(6) 0.9349(9) 0.2501(10)
C81 C 0.0651(9) 0.7693(7) 0.2501(10)
H83 H 0.7187 0.9541 0.2239
H84 H 0.0459 0.7646 0.2239
C82 C 0.7229(7) 0.9296(10) 0.2918(9)
C83 C 0.0704(10) 0.7933(7) 0.2918(9)
H85 H 0.7500 0.9401 0.2931
H86 H 0.0599 0.8099 0.2931
C84 C 0.6985(6) 0.9077(9) 0.3311(10)
C85 C 0.0923(9) 0.7908(7) 0.3311(10)
H87 H 0.7106 0.9104 0.3653
H88 H 0.0896 0.8002 0.3653
C86 C 0.5833(6) 0.8230(9) 0.4348(12)
C87 C 0.1770(9) 0.7603(7) 0.4348(12)
H89 H 0.5951 0.8325 0.4709
H90 H 0.1675 0.7626 0.4709
H91 H 0.5840 0.7993 0.4266
H92 H 0.2007 0.7847 0.4266
C88 C 0.5405(5) 0.8142(8) 0.4354(11)
C89 C 0.1858(8) 0.7263(6) 0.4354(11)
C90 C 0.5111(7) 0.7811(9) 0.4113(12)
C91 C 0.2189(9) 0.7300(6) 0.4113(12)
H93 H 0.5160 0.7619 0.3974
H94 H 0.2381 0.7541 0.3974
C92 C 0.4746(6) 0.7765(9) 0.4080(11)
C93 C 0.2235(9) 0.6981(7) 0.4080(11)
H95 H 0.4562 0.7580 0.3840
H96 H 0.2420 0.6982 0.3840
C94 C 0.4649(6) 0.7989(9) 0.4395(12)
C95 C 0.2011(9) 0.6660(7) 0.4395(12)
H97 H 0.4392 0.7939 0.4400
H98 H 0.2061 0.6453 0.4400
C96 C 0.4927(7) 0.8286(9) 0.4702(12)
C97 C 0.1714(9) 0.6641(6) 0.4702(12)
H99 H 0.4860 0.8425 0.4948
H100 H 0.1575 0.6435 0.4948
C98 C 0.5305(6) 0.8377(8) 0.4645(11)
C99 C 0.1623(8) 0.6928(6) 0.4645(11)
H101 H 0.5502 0.8606 0.4806
H102 H 0.1394 0.6896 0.4806
C100 C 0.5112(6) 0.9436(8) 0.2108(10)
C101 C 0.0564(8) 0.5676(5) 0.2108(10)
C102 C 0.4882(7) 0.9151(10) 0.2644(10)
C103 C 0.0849(10) 0.5731(7) 0.2644(10)
C104 C 0.4920(6) 0.8859(9) 0.2868(9)
C105 C 0.1141(9) 0.6061(7) 0.2868(9)
C106 C 0.4749(7) 0.8675(10) 0.3340(9)
C107 C 0.1325(10) 0.6074(7) 0.3340(9)
H103 H 0.4793 0.8479 0.3478
H104 H 0.1521 0.6314 0.3478
C108 C 0.4514(7) 0.8773(10) 0.3613(11)
C109 C 0.1227(10) 0.5741(7) 0.3613(11)
H105 H 0.4401 0.8654 0.3949
H106 H 0.1346 0.5747 0.3949
C110 C 0.4444(7) 0.9040(10) 0.3403(9)
C111 C 0.0960(10) 0.5404(7) 0.3403(9)
H107 H 0.4257 0.9091 0.3554
H108 H 0.0909 0.5166 0.3554
C112 C 0.4658(7) 0.9236(10) 0.2957(9)
C113 C 0.0764(10) 0.5422(7) 0.2957(9)
H109 H 0.4646 0.9458 0.2857
H110 H 0.0542 0.5188 0.2857
C114 C 0.5612(8) 0.9650(10) 0.1485(10)
C115 C 0.0350(10) 0.5962(6) 0.1485(10)
H111 H 0.5659 0.9916 0.1465
H112 H 0.0084 0.5743 0.1465
H113 H 0.5420 0.9493 0.1205
H114 H 0.0507 0.5927 0.1205
C116 C 0.5997(7) 0.9642(9) 0.1402(12)
C117 C 0.0358(9) 0.6355(5) 0.1402(12)
C118 C 0.6010(7) 0.9377(9) 0.1057(12)
C119 C 0.0623(9) 0.6633(6) 0.1057(12)
H115 H 0.5785 0.9199 0.0866
H116 H 0.0801 0.6586 0.0866
C120 C 0.6348(7) 0.9370(10) 0.0986(12)
C121 C 0.0630(10) 0.6978(7) 0.0986(12)
H117 H 0.6344 0.9162 0.0796
H118 H 0.0838 0.7182 0.0796
C122 C 0.6691(8) 0.9662(10) 0.1191(13)
C123 C 0.0338(10) 0.7029(6) 0.1191(13)
H119 H 0.6925 0.9663 0.1129
H120 H 0.0337 0.7262 0.1129
C124 C 0.6688(7) 0.9955(9) 0.1490(13)
C125 C 0.0045(9) 0.6733(6) 0.1490(13)
C126 C 0.6347(7) 0.9938(10) 0.1606(11)
C127 C 0.0062(10) 0.6409(7) 0.1606(11)
C128 C 0.5997(7) 0.8224(10) 0.0486(9)
C129 C 0.1776(10) 0.7773(7) 0.0486(9)
C130 C 0.5643(6) 0.8291(10) 0.0413(7)
C131 C 0.1709(10) 0.7352(8) 0.0413(7)
C132 C 0.5379(6) 0.8286(9) 0.0790(7)
C133 C 0.1714(9) 0.7093(7) 0.0790(7)
C134 C 0.5053(5) 0.8285(9) 0.0620(7)
C135 C 0.1715(9) 0.6768(8) 0.0620(7)
H125 H 0.4860 0.8242 0.0877
H126 H 0.1758 0.6618 0.0877
C136 C 0.5000(6) 0.8346(9) 0.0077(7)
C137 C 0.1654(9) 0.6654(7) 0.0077(7)
C142 C 0.6328(6) 0.8012(10) 0.1073(8)
C143 C 0.1988(10) 0.8316(8) 0.1073(8)
H133 H 0.6377 0.7871 0.0784
H134 H 0.2129 0.8506 0.0784
H135 H 0.6552 0.8275 0.1098
H136 H 0.1725 0.8277 0.1098
C144 C 0.6258(7) 0.7804(9) 0.1617(7)
C145 C 0.2196(9) 0.8454(6) 0.1617(7)
C146 C 0.6424(8) 0.8032(10) 0.2068(9)
C147 C 0.1968(10) 0.8392(6) 0.2068(9)
H137 H 0.6561 0.8304 0.2034
H138 H 0.1696 0.8257 0.2034
C148 C 0.6389(8) 0.7864(11) 0.2567(8)
C149 C 0.2136(11) 0.8525(7) 0.2567(8)
H139 H 0.6511 0.8022 0.2873
H140 H 0.1978 0.8489 0.2873
C150 C 0.6182(8) 0.7469(11) 0.2634(8)
C151 C 0.2531(11) 0.8713(7) 0.2634(8)
H141 H 0.6104 0.7357 0.2983
H142 H 0.2643 0.8747 0.2983
C152 C 0.6090(8) 0.7240(10) 0.2170(9)
C153 C 0.2760(10) 0.8850(6) 0.2170(9)
H143 H 0.6018 0.6977 0.2195
H144 H 0.3023 0.9041 0.2195
C154 C 0.6106(7) 0.7406(9) 0.1674(8)
C155 C 0.2594(9) 0.8700(6) 0.1674(8)
H145 H 0.6012 0.7247 0.1362
H146 H 0.2753 0.8765 0.1362
C156 C 0.4162(8) 0.7091(11) 0.2726(11)
C157 C 0.2909(11) 0.7071(8) 0.2726(11)
C158 C 0.4522(6) 0.7045(8) 0.2893(10)
C159 C 0.2955(8) 0.7477(6) 0.2893(10)
C160 C 0.4910(5) 0.7285(8) 0.2797(11)
C161 C 0.2715(8) 0.7625(6) 0.2797(11)
C162 C 0.5198(7) 0.7199(9) 0.2839(11)
C163 C 0.2801(9) 0.7999(6) 0.2839(11)
H147 H 0.5448 0.7370 0.2706
H148 H 0.2630 0.8078 0.2706
C164 C 0.5117(7) 0.6861(10) 0.3077(11)
C165 C 0.3139(10) 0.8256(7) 0.3077(11)
H149 H 0.5307 0.6794 0.3155
H150 H 0.3206 0.8513 0.3155
C166 C 0.4749(6) 0.6634(9) 0.3188(12)
C167 C 0.3366(9) 0.8115(7) 0.3188(12)
H151 H 0.4681 0.6393 0.3343
H152 H 0.3607 0.8288 0.3343
C168 C 0.4462(6) 0.6706(8) 0.3108(10)
C169 C 0.3294(8) 0.7756(6) 0.3108(10)
H153 H 0.4208 0.6514 0.3203
H154 H 0.3486 0.7694 0.3203
C170 C 0.3879(8) 0.7394(11) 0.2318(13)
C171 C 0.2606(11) 0.6485(8) 0.2318(13)
H155 H 0.3849 0.7500 0.2666
H156 H 0.2500 0.6349 0.2666
H157 H 0.3631 0.7164 0.2227
H158 H 0.2836 0.6467 0.2227
C172 C 0.4003(8) 0.7718(11) 0.1837(10)
C173 C 0.2282(11) 0.6285(8) 0.1837(10)
C174 C 0.4139(8) 0.8096(12) 0.2001(9)
C175 C 0.1904(12) 0.6043(9) 0.2001(9)
H159 H 0.4149 0.8156 0.2375
H160 H 0.1844 0.5993 0.2375
C176 C 0.4258(8) 0.8379(11) 0.1615(11)
C177 C 0.1621(11) 0.5879(8) 0.1615(11)
H161 H 0.4396 0.8642 0.1721
H162 H 0.1358 0.5754 0.1721
C178 C 0.4178(9) 0.8285(12) 0.1077(10)
C179 C 0.1715(12) 0.5893(8) 0.1077(10)
H163 H 0.4274 0.8482 0.0810
H164 H 0.1518 0.5792 0.0810
C180 C 0.3958(8) 0.7902(11) 0.0920(9)
C181 C 0.2098(11) 0.6056(8) 0.0920(9)
H165 H 0.3853 0.7836 0.0565
H166 H 0.2164 0.6017 0.0565
C182 C 0.3894(8) 0.7619(11) 0.1295(11)
C183 C 0.2381(11) 0.6275(8) 0.1295(11)
H167 H 0.3776 0.7358 0.1184
H168 H 0.2642 0.6418 0.1184
H36 H 0.3579 0.5219 0.9964
C39 C 0.3108(8) 0.4723(6) 0.9708(7)
H37 H 0.3189 0.4736 0.9342
C40 C 0.2755(8) 0.4429(6) 0.9870(7)
H38 H 0.2578 0.4269 0.9601
Er6 Er 0.18315(3) 0.31685(2) 0.96478(5)
Er8 Er 0.68315(2) 0.86630(2) 0.96478(5)
Er10 Er 0.13370(2) 0.81685(3) 0.96478(5)
H127 H 0.4781 0.8360 0.9964
H128 H 0.1640 0.6421 0.9964
C138 C 0.5277(6) 0.8385(10) 0.9708(7)
C139 C 0.1615(10) 0.6892(8) 0.9708(7)
H129 H 0.5264 0.8453 0.9342
H130 H 0.1547 0.6811 0.9342
C140 C 0.5571(6) 0.8326(10) 0.9870(7)
C141 C 0.1674(10) 0.7245(8) 0.9870(7)
H131 H 0.5731 0.8309 0.9601
H132 H 0.1691 0.7422 0.9601
N6_2 N 0.7275(6) 0.9289(5) 0.0362(8)
O12_2 O 0.6942(4) 0.9029(4) 0.0504(7)
O14_2 O 0.7469(7) 0.9589(6) 0.0657(10)
N19_2 N 0.2014(8) 0.2725(6) 0.0362(8)
N20_2 N 0.0711(5) 0.7986(8) 0.0362(8)
O33_2 O 0.7057(6) 0.8358(4) 0.0216(7)
O34_2 O 0.1302(4) 0.2943(6) 0.0216(7)
O35_2 O 0.1642(4) 0.8698(4) 0.0216(7)
O49_2 O 0.2087(6) 0.3058(4) 0.0504(7)
O50_2 O 0.0971(4) 0.7913(6) 0.0504(7)
O53_2 O 0.2120(9) 0.2531(7) 0.0657(10)
O54_2 O 0.0411(6) 0.7880(9) 0.0657(10)
Er2_2 Er 0.3333 0.6667 0.86384(6)
N1_2 N 0.6022(6) 0.7537(7) 0.8987(10)
H1_2 H 0.5904 0.7313 0.8823
N2_2 N 0.5476(6) 0.5992(5) 0.7038(9)
H2_2 H 0.5603 0.6175 0.7275
N3_2 N 0.5968(5) 0.7942(6) 0.5952(8)
H3_2 H 0.5762 0.7843 0.6158
N4_2 N 0.4157(7) 0.6859(7) 0.7368(10)
H4_2 H 0.4343 0.6953 0.7128
N5_2 N 0.7429(6) 0.8926(6) 0.8840(8)
N7_2 N 0.6409(6) 0.8979(5) 0.9152(8)
N8_2 N 0.3542(6) 0.6193(7) 0.9244(10)
O1_2 O 0.6037(4) 0.7377(4) 0.7824(7)
O2_2 O 0.5173(5) 0.6405(4) 0.7569(7)
O3_2 O 0.5448(5) 0.7216(5) 0.6324(7)
O4_2 O 0.4995(4) 0.7341(5) 0.7537(7)
O5_2 O 0.6559(4) 0.8093(5) 0.9141(7)
O6_2 O 0.4975(4) 0.5365(4) 0.6883(7)
O8_2 O 0.3870(4) 0.6961(4) 0.8058(6)
O9_2 O 0.7135(5) 0.8968(5) 0.8771(7)
O10_2 O 0.7410(4) 0.8691(5) 0.9217(6)
O11_2 O 0.7673(5) 0.9009(8) 0.8465(8)
O13_2 O 0.7407(5) 0.9268(5) 0.9891(7)
O15_2 O 0.6650(5) 0.9156(5) 0.9537(7)
O16_2 O 0.6328(5) 0.8635(4) 0.9029(7)
O17_2 O 0.6243(7) 0.9135(6) 0.8910(9)
O18_2 O 0.3743(4) 0.6384(5) 0.8832(7)
O19_2 O 0.3235(5) 0.6204(6) 0.9354(9)
O20_2 O 0.3604(6) 0.5937(7) 0.9452(10)
C1_2 C 0.5410(6) 0.7077(6) 0.7317(9)
C2_2 C 0.5817(6) 0.7154(7) 0.7289(9)
H5_2 H 0.5818 0.6908 0.7262
H6_2 H 0.5948 0.7310 0.6965
C3_2 C 0.5208(7) 0.6797(7) 0.7769(10)
H7_2 H 0.5358 0.6885 0.8109
H8_2 H 0.4951 0.6765 0.7833
C4_2 C 0.5231(7) 0.6929(7) 0.6736(10)
H9_2 H 0.4961 0.6871 0.6734
H10_2 H 0.5233 0.6689 0.6652
C5_2 C 0.5384(7) 0.7433(7) 0.7451(11)
H11_2 H 0.5497 0.7619 0.7150
H12_2 H 0.5537 0.7555 0.7782
C6_2 C 0.6396(7) 0.7789(7) 0.8834(11)
C7_2 C 0.6597(6) 0.7774(6) 0.8316(9)
C8_2 C 0.6448(6) 0.7563(6) 0.7842(8)
C9_2 C 0.6657(6) 0.7516(7) 0.7441(10)
H13_2 H 0.6534 0.7364 0.7130
C10_2 C 0.7042(6) 0.7693(7) 0.7501(10)
H14_2 H 0.7187 0.7646 0.7239
C11_2 C 0.7229(7) 0.7933(7) 0.7918(9)
H15_2 H 0.7500 0.8099 0.7931
C12_2 C 0.6985(6) 0.7908(7) 0.8311(10)
H16_2 H 0.7106 0.8002 0.8653
C13_2 C 0.5833(6) 0.7603(7) 0.9348(12)
H17_2 H 0.5951 0.7626 0.9709
H18_2 H 0.5840 0.7847 0.9266
C14_2 C 0.5405(5) 0.7263(6) 0.9354(11)
C15_2 C 0.5111(7) 0.7300(6) 0.9113(12)
H19_2 H 0.5160 0.7541 0.8974
C16_2 C 0.4746(6) 0.6981(7) 0.9080(11)
H20_2 H 0.4562 0.6982 0.8840
C17_2 C 0.4649(6) 0.6660(7) 0.9395(12)
H21_2 H 0.4392 0.6453 0.9400
C18_2 C 0.4927(7) 0.6641(6) 0.9702(12)
H22_2 H 0.4860 0.6435 0.9948
C19_2 C 0.5305(6) 0.6928(6) 0.9645(11)
H23_2 H 0.5502 0.6896 0.9806
C20_2 C 0.5112(6) 0.5676(5) 0.7108(10)
C21_2 C 0.4882(7) 0.5731(7) 0.7644(10)
C22_2 C 0.4920(6) 0.6061(7) 0.7868(9)
C23_2 C 0.4749(7) 0.6074(7) 0.8340(9)
H24_2 H 0.4793 0.6314 0.8478
C24_2 C 0.4514(7) 0.5741(7) 0.8613(11)
H25_2 H 0.4401 0.5747 0.8949
C25_2 C 0.4444(7) 0.5404(7) 0.8403(9)
H26_2 H 0.4257 0.5166 0.8554
C26_2 C 0.4658(7) 0.5422(7) 0.7957(9)
H27_2 H 0.4646 0.5188 0.7857
C27_2 C 0.5612(8) 0.5962(6) 0.6485(10)
H28_2 H 0.5659 0.5743 0.6465
H29_2 H 0.5420 0.5927 0.6205
C28_2 C 0.5997(7) 0.6355(5) 0.6402(12)
C29_2 C 0.6010(7) 0.6633(6) 0.6057(12)
H30_2 H 0.5785 0.6586 0.5866
C30_2 C 0.6348(7) 0.6978(7) 0.5986(12)
H31_2 H 0.6344 0.7182 0.5796
C31_2 C 0.6691(8) 0.7029(6) 0.6191(13)
H32_2 H 0.6925 0.7262 0.6129
C32_2 C 0.6688(7) 0.6733(6) 0.6490(13)
H33_2 H 0.6923 0.6757 0.6612
C33_2 C 0.6347(7) 0.6409(7) 0.6606(11)
H34_2 H 0.6347 0.6217 0.6831
C34_2 C 0.5997(7) 0.7773(7) 0.5486(9)
C35_2 C 0.5643(6) 0.7352(8) 0.5413(7)
C36_2 C 0.5379(6) 0.7093(7) 0.5790(7)
C37_2 C 0.5053(5) 0.6768(8) 0.5620(7)
H35_2 H 0.4860 0.6618 0.5877
C38_2 C 0.5000(6) 0.6654(7) 0.5077(7)
H36_2 H 0.4781 0.6421 0.4964
C39_2 C 0.5277(6) 0.6892(8) 0.4708(7)
H37_2 H 0.5264 0.6811 0.4342
C40_2 C 0.5571(6) 0.7245(8) 0.4870(7)
H38_2 H 0.5731 0.7422 0.4601
C41_2 C 0.6328(6) 0.8316(8) 0.6073(8)
H39_2 H 0.6377 0.8506 0.5784
H40_2 H 0.6552 0.8277 0.6098
C42_2 C 0.6258(7) 0.8454(6) 0.6617(7)
C43_2 C 0.6424(8) 0.8392(6) 0.7068(9)
H41_2 H 0.6561 0.8257 0.7034
C44_2 C 0.6389(8) 0.8525(7) 0.7567(8)
H42_2 H 0.6511 0.8489 0.7873
C45_2 C 0.6182(8) 0.8713(7) 0.7634(8)
H43_2 H 0.6104 0.8747 0.7983
C46_2 C 0.6090(8) 0.8850(6) 0.7170(9)
H44_2 H 0.6018 0.9041 0.7195
C47_2 C 0.6106(7) 0.8700(6) 0.6674(8)
H45_2 H 0.6012 0.8765 0.6362
C48_2 C 0.4162(8) 0.7071(8) 0.7726(11)
C49_2 C 0.4522(6) 0.7477(6) 0.7893(10)
C50_2 C 0.4910(5) 0.7625(6) 0.7797(11)
C51_2 C 0.5198(7) 0.7999(6) 0.7839(11)
H46_2 H 0.5448 0.8078 0.7706
C52_2 C 0.5117(7) 0.8256(7) 0.8077(11)
H47_2 H 0.5307 0.8513 0.8155
C53_2 C 0.4749(6) 0.8115(7) 0.8188(12)
H48_2 H 0.4681 0.8288 0.8343
C54_2 C 0.4462(6) 0.7756(6) 0.8108(10)
H49_2 H 0.4208 0.7694 0.8203
C55_2 C 0.3879(8) 0.6485(8) 0.7318(13)
H50_2 H 0.3849 0.6349 0.7666
H51_2 H 0.3631 0.6467 0.7227
C56_2 C 0.4003(8) 0.6285(8) 0.6837(10)
C57_2 C 0.4139(8) 0.6043(9) 0.7001(9)
H52_2 H 0.4149 0.5993 0.7375
C58_2 C 0.4258(8) 0.5879(8) 0.6615(11)
H53_2 H 0.4396 0.5754 0.6721
C59_2 C 0.4178(9) 0.5893(8) 0.6077(10)
H54_2 H 0.4274 0.5792 0.5810
C60_2 C 0.3958(8) 0.6056(8) 0.5920(9)
H55_2 H 0.3853 0.6017 0.5565
C61_2 C 0.3894(8) 0.6275(8) 0.6295(11)
H56_2 H 0.3776 0.6418 0.6184
Er5_2 Er 0.46703(2) 0.48352(3) 0.63145(5)
Er7_2 Er 0.01648(2) 0.53297(2) 0.63145(5)
Er9_2 Er 0.51648(3) 0.98352(2) 0.63145(5)
N9_2 N 0.1515(9) 0.3978(6) 0.8987(10)
N10_2 N 0.2463(7) 0.8485(9) 0.8987(10)
H57_2 H 0.1409 0.4096 0.8823
H58_2 H 0.2687 0.8591 0.8823
N11_2 N 0.0516(8) 0.4524(6) 0.7038(9)
N12_2 N 0.4008(5) 0.9484(8) 0.7038(9)
H59_2 H 0.0572 0.4397 0.7275
H60_2 H 0.3825 0.9428 0.7275
N13_2 N 0.1974(8) 0.4032(5) 0.5952(8)
N14_2 N 0.2058(6) 0.8026(8) 0.5952(8)
H61_2 H 0.2081 0.4238 0.6158
H62_2 H 0.2157 0.7919 0.6158
N15_2 N 0.2702(10) 0.5843(7) 0.7368(10)
N16_2 N 0.3141(7) 0.7298(10) 0.7368(10)
H63_2 H 0.2610 0.5657 0.7128
H64_2 H 0.3047 0.7390 0.7128
N17_2 N 0.1497(8) 0.2571(6) 0.8840(8)
N18_2 N 0.1074(6) 0.8503(8) 0.8840(8)
N21_2 N 0.2570(8) 0.3591(6) 0.9152(8)
N22_2 N 0.1021(5) 0.7430(8) 0.9152(8)
N23_2 N 0.2651(9) 0.6458(6) 0.9244(10)
N24_2 N 0.3807(7) 0.7349(9) 0.9244(10)
O21_2 O 0.1340(6) 0.3963(4) 0.7824(7)
O22_2 O 0.2623(4) 0.8660(6) 0.7824(7)
O23_2 O 0.1232(6) 0.4827(5) 0.7569(7)
O24_2 O 0.3595(4) 0.8768(6) 0.7569(7)
O25_2 O 0.1768(7) 0.4552(5) 0.6324(7)
O26_2 O 0.2784(5) 0.8232(7) 0.6324(7)
O27_2 O 0.2346(6) 0.5005(4) 0.7537(7)
O28_2 O 0.2659(5) 0.7654(6) 0.7537(7)
O29_2 O 0.1534(6) 0.3441(4) 0.9141(7)
O30_2 O 0.1907(5) 0.8466(6) 0.9141(7)
O31_2 O 0.0390(6) 0.5025(4) 0.6883(7)
O32_2 O 0.4635(4) 0.9610(6) 0.6883(7)
O41_2 O 0.3091(6) 0.6130(4) 0.8058(6)
O42_2 O 0.3039(4) 0.6909(6) 0.8058(6)
O43_2 O 0.1833(7) 0.2865(5) 0.8771(7)
O44_2 O 0.1032(5) 0.8167(7) 0.8771(7)
O45_2 O 0.1281(6) 0.2590(4) 0.9217(6)
O46_2 O 0.1309(5) 0.8719(6) 0.9217(6)
O47_2 O 0.1336(9) 0.2327(5) 0.8465(8)
O48_2 O 0.0991(8) 0.8664(9) 0.8465(8)
O51_2 O 0.1861(7) 0.2593(5) 0.9891(7)
O52_2 O 0.0732(5) 0.8139(7) 0.9891(7)
O55_2 O 0.2506(7) 0.3350(5) 0.9537(7)
O56_2 O 0.0844(5) 0.7494(7) 0.9537(7)
O57_2 O 0.2307(6) 0.3672(5) 0.9029(7)
O58_2 O 0.1365(4) 0.7693(6) 0.9029(7)
O59_2 O 0.2892(9) 0.3757(7) 0.8910(9)
O60_2 O 0.0865(6) 0.7108(9) 0.8910(9)
O61_2 O 0.2641(6) 0.6257(4) 0.8832(7)
O62_2 O 0.3616(5) 0.7359(6) 0.8832(7)
O63_2 O 0.2969(8) 0.6765(5) 0.9354(9)
O64_2 O 0.3796(6) 0.7031(8) 0.9354(9)
O65_2 O 0.4063(7) 0.7667(9) 0.9452(10)
O66_2 O 0.2333(9) 0.6396(6) 0.9452(10)
C62_2 C 0.1667(8) 0.4590(6) 0.7317(9)
C63_2 C 0.2923(6) 0.8333(8) 0.7317(9)
C64_2 C 0.1337(9) 0.4183(6) 0.7289(9)
C65_2 C 0.2846(7) 0.8663(9) 0.7289(9)
H65_2 H 0.1090 0.4182 0.7262
H66_2 H 0.3092 0.8910 0.7262
H67_2 H 0.1362 0.4052 0.6965
H68_2 H 0.2690 0.8638 0.6965
C66_2 C 0.1589(10) 0.4792(7) 0.7769(10)
C67_2 C 0.3203(7) 0.8411(10) 0.7769(10)
H69_2 H 0.1527 0.4642 0.8109
H70_2 H 0.3115 0.8473 0.8109
H71_2 H 0.1814 0.5049 0.7833
H72_2 H 0.3235 0.8186 0.7833
C68_2 C 0.1698(10) 0.4769(7) 0.6736(10)
C69_2 C 0.3071(7) 0.8302(10) 0.6736(10)
H73_2 H 0.1910 0.5039 0.6734
H74_2 H 0.3129 0.8090 0.6734
H75_2 H 0.1456 0.4767 0.6652
H76_2 H 0.3311 0.8544 0.6652
C70_2 C 0.2049(10) 0.4616(7) 0.7451(11)
C71_2 C 0.2567(7) 0.7951(10) 0.7451(11)
H77_2 H 0.2122 0.4503 0.7150
H78_2 H 0.2381 0.7878 0.7150
H79_2 H 0.2018 0.4463 0.7782
H80_2 H 0.2445 0.7982 0.7782
C72_2 C 0.1393(10) 0.3604(7) 0.8834(11)
C73_2 C 0.2211(7) 0.8607(10) 0.8834(11)
C74_2 C 0.1177(8) 0.3403(6) 0.8316(9)
C75_2 C 0.2226(6) 0.8823(8) 0.8316(9)
C76_2 C 0.1115(8) 0.3552(6) 0.7842(8)
C77_2 C 0.2437(6) 0.8885(8) 0.7842(8)
C78_2 C 0.0859(9) 0.3343(6) 0.7441(10)
C79_2 C 0.2484(7) 0.9141(9) 0.7441(10)
H81_2 H 0.0830 0.3466 0.7130
H82_2 H 0.2636 0.9170 0.7130
C80_2 C 0.0651(9) 0.2958(6) 0.7501(10)
C81_2 C 0.2307(7) 0.9349(9) 0.7501(10)
H83_2 H 0.0459 0.2813 0.7239
H84_2 H 0.2354 0.9541 0.7239
C82_2 C 0.0704(10) 0.2771(7) 0.7918(9)
C83_2 C 0.2067(7) 0.9296(10) 0.7918(9)
H85_2 H 0.0599 0.2500 0.7931
H86_2 H 0.1901 0.9401 0.7931
C84_2 C 0.0923(9) 0.3015(6) 0.8311(10)
C85_2 C 0.2092(7) 0.9077(9) 0.8311(10)
H87_2 H 0.0896 0.2894 0.8653
H88_2 H 0.1998 0.9104 0.8653
C86_2 C 0.1770(9) 0.4167(6) 0.9348(12)
C87_2 C 0.2397(7) 0.8230(9) 0.9348(12)
H89_2 H 0.1675 0.4049 0.9709
H90_2 H 0.2374 0.8325 0.9709
H91_2 H 0.2007 0.4160 0.9266
H92_2 H 0.2153 0.7993 0.9266
C88_2 C 0.1858(8) 0.4595(5) 0.9354(11)
C89_2 C 0.2737(6) 0.8142(8) 0.9354(11)
C90_2 C 0.2189(9) 0.4889(7) 0.9113(12)
C91_2 C 0.2700(6) 0.7811(9) 0.9113(12)
H93_2 H 0.2381 0.4840 0.8974
H94_2 H 0.2459 0.7619 0.8974
C92_2 C 0.2235(9) 0.5254(6) 0.9080(11)
C93_2 C 0.3019(7) 0.7765(9) 0.9080(11)
H95_2 H 0.2420 0.5438 0.8840
H96_2 H 0.3018 0.7580 0.8840
C94_2 C 0.2011(9) 0.5351(6) 0.9395(12)
C95_2 C 0.3340(7) 0.7989(9) 0.9395(12)
H97_2 H 0.2061 0.5608 0.9400
H98_2 H 0.3547 0.7939 0.9400
C96_2 C 0.1714(9) 0.5073(7) 0.9702(12)
C97_2 C 0.3359(6) 0.8286(9) 0.9702(12)
H99_2 H 0.1575 0.5140 0.9948
H100_2 H 0.3565 0.8425 0.9948
C98_2 C 0.1623(8) 0.4695(6) 0.9645(11)
C99_2 C 0.3072(6) 0.8377(8) 0.9645(11)
H101_2 H 0.1394 0.4498 0.9806
H102_2 H 0.3104 0.8606 0.9806
C100_2 C 0.0564(8) 0.4888(6) 0.7108(10)
C101_2 C 0.4324(5) 0.9436(8) 0.7108(10)
C102_2 C 0.0849(10) 0.5118(7) 0.7644(10)
C103_2 C 0.4269(7) 0.9151(10) 0.7644(10)
C104_2 C 0.1141(9) 0.5080(6) 0.7868(9)
C105_2 C 0.3939(7) 0.8859(9) 0.7868(9)
C106_2 C 0.1325(10) 0.5251(7) 0.8340(9)
C107_2 C 0.3926(7) 0.8675(10) 0.8340(9)
H103_2 H 0.1521 0.5207 0.8478
H104_2 H 0.3686 0.8479 0.8478
C108_2 C 0.1227(10) 0.5486(7) 0.8613(11)
C109_2 C 0.4259(7) 0.8773(10) 0.8613(11)
H105_2 H 0.1346 0.5599 0.8949
H106_2 H 0.4253 0.8654 0.8949
C110_2 C 0.0960(10) 0.5556(7) 0.8403(9)
C111_2 C 0.4596(7) 0.9040(10) 0.8403(9)
H107_2 H 0.0909 0.5743 0.8554
H108_2 H 0.4834 0.9091 0.8554
C112_2 C 0.0764(10) 0.5342(7) 0.7957(9)
C113_2 C 0.4578(7) 0.9236(10) 0.7957(9)
H109_2 H 0.0542 0.5354 0.7857
H110_2 H 0.4812 0.9458 0.7857
C114_2 C 0.0350(10) 0.4388(8) 0.6485(10)
C115_2 C 0.4038(6) 0.9650(10) 0.6485(10)
H111_2 H 0.0084 0.4341 0.6465
H112_2 H 0.4257 0.9916 0.6465
H113_2 H 0.0507 0.4580 0.6205
H114_2 H 0.4073 0.9493 0.6205
C116_2 C 0.0358(9) 0.4003(7) 0.6402(12)
C117_2 C 0.3645(5) 0.9642(9) 0.6402(12)
C118_2 C 0.0623(9) 0.3990(7) 0.6057(12)
C119_2 C 0.3367(6) 0.9377(9) 0.6057(12)
H115_2 H 0.0801 0.4215 0.5866
H116_2 H 0.3414 0.9199 0.5866
C120_2 C 0.0630(10) 0.3652(7) 0.5986(12)
C121_2 C 0.3022(7) 0.9370(10) 0.5986(12)
H117_2 H 0.0838 0.3656 0.5796
H118_2 H 0.2818 0.9162 0.5796
C122_2 C 0.0338(10) 0.3309(8) 0.6191(13)
C123_2 C 0.2971(6) 0.9662(10) 0.6191(13)
H119_2 H 0.0337 0.3075 0.6129
H120_2 H 0.2738 0.9663 0.6129
C124_2 C 0.0045(9) 0.3312(7) 0.6490(13)
C125_2 C 0.3267(6) 0.9955(9) 0.6490(13)
C126_2 C 0.0062(10) 0.3653(7) 0.6606(11)
C127_2 C 0.3591(7) 0.9938(10) 0.6606(11)
C128_2 C 0.1776(10) 0.4003(7) 0.5486(9)
C129_2 C 0.2227(7) 0.8224(10) 0.5486(9)
C130_2 C 0.1709(10) 0.4357(6) 0.5413(7)
C131_2 C 0.2648(8) 0.8291(10) 0.5413(7)
C132_2 C 0.1714(9) 0.4621(6) 0.5790(7)
C133_2 C 0.2907(7) 0.8286(9) 0.5790(7)
C134_2 C 0.1715(9) 0.4947(5) 0.5620(7)
C135_2 C 0.3232(8) 0.8285(9) 0.5620(7)
H125_2 H 0.1758 0.5140 0.5877
H126_2 H 0.3382 0.8242 0.5877
C136_2 C 0.1654(9) 0.5000(6) 0.5077(7)
C137_2 C 0.3346(7) 0.8346(9) 0.5077(7)
H127_2 H 0.1640 0.5219 0.4964
H128_2 H 0.3579 0.8360 0.4964
C138_2 C 0.1615(10) 0.4723(6) 0.4708(7)
C139_2 C 0.3108(8) 0.8385(10) 0.4708(7)
H129_2 H 0.1547 0.4736 0.4342
H130_2 H 0.3189 0.8453 0.4342
C140_2 C 0.1674(10) 0.4429(6) 0.4870(7)
C141_2 C 0.2755(8) 0.8326(10) 0.4870(7)
H131_2 H 0.1691 0.4269 0.4601
H132_2 H 0.2578 0.8309 0.4601
C142_2 C 0.1988(10) 0.3672(6) 0.6073(8)
C143_2 C 0.1684(8) 0.8012(10) 0.6073(8)
H133_2 H 0.2129 0.3623 0.5784
H134_2 H 0.1494 0.7871 0.5784
H135_2 H 0.1725 0.3448 0.6098
H136_2 H 0.1723 0.8275 0.6098
C144_2 C 0.2196(9) 0.3742(7) 0.6617(7)
C145_2 C 0.1546(6) 0.7804(9) 0.6617(7)
C146_2 C 0.1968(10) 0.3576(8) 0.7068(9)
C147_2 C 0.1608(6) 0.8032(10) 0.7068(9)
H137_2 H 0.1696 0.3439 0.7034
H138_2 H 0.1743 0.8304 0.7034
C148_2 C 0.2136(11) 0.3611(8) 0.7567(8)
C149_2 C 0.1475(7) 0.7864(11) 0.7567(8)
H139_2 H 0.1978 0.3489 0.7873
H140_2 H 0.1511 0.8022 0.7873
C150_2 C 0.2531(11) 0.3818(8) 0.7634(8)
C151_2 C 0.1287(7) 0.7469(11) 0.7634(8)
H141_2 H 0.2643 0.3896 0.7983
H142_2 H 0.1253 0.7357 0.7983
C152_2 C 0.2760(10) 0.3910(8) 0.7170(9)
C153_2 C 0.1150(6) 0.7240(10) 0.7170(9)
H143_2 H 0.3023 0.3982 0.7195
H144_2 H 0.0959 0.6977 0.7195
C154_2 C 0.2594(9) 0.3894(7) 0.6674(8)
C155_2 C 0.1300(6) 0.7406(9) 0.6674(8)
H145_2 H 0.2753 0.3988 0.6362
H146_2 H 0.1235 0.7247 0.6362
C156_2 C 0.2909(11) 0.5838(8) 0.7726(11)
C157_2 C 0.2929(8) 0.7091(11) 0.7726(11)
C158_2 C 0.2955(8) 0.5478(6) 0.7893(10)
C159_2 C 0.2523(6) 0.7045(8) 0.7893(10)
C160_2 C 0.2715(8) 0.5090(5) 0.7797(11)
C161_2 C 0.2375(6) 0.7285(8) 0.7797(11)
C162_2 C 0.2801(9) 0.4802(7) 0.7839(11)
C163_2 C 0.2001(6) 0.7199(9) 0.7839(11)
H147_2 H 0.2630 0.4552 0.7706
H148_2 H 0.1922 0.7370 0.7706
C164_2 C 0.3139(10) 0.4883(7) 0.8077(11)
C165_2 C 0.1744(7) 0.6861(10) 0.8077(11)
H149_2 H 0.3206 0.4693 0.8155
H150_2 H 0.1487 0.6794 0.8155
C166_2 C 0.3366(9) 0.5251(6) 0.8188(12)
C167_2 C 0.1885(7) 0.6634(9) 0.8188(12)
H151_2 H 0.3607 0.5319 0.8343
H152_2 H 0.1712 0.6393 0.8343
C168_2 C 0.3294(8) 0.5538(6) 0.8108(10)
C169_2 C 0.2244(6) 0.6706(8) 0.8108(10)
H153_2 H 0.3486 0.5792 0.8203
H154_2 H 0.2306 0.6514 0.8203
C170_2 C 0.2606(11) 0.6121(8) 0.7318(13)
C171_2 C 0.3515(8) 0.7394(11) 0.7318(13)
H155_2 H 0.2500 0.6151 0.7666
H156_2 H 0.3651 0.7500 0.7666
H157_2 H 0.2836 0.6369 0.7227
H158_2 H 0.3533 0.7164 0.7227
C172_2 C 0.2282(11) 0.5997(8) 0.6837(10)
C173_2 C 0.3715(8) 0.7718(11) 0.6837(10)
C174_2 C 0.1904(12) 0.5861(8) 0.7001(9)
C175_2 C 0.3957(9) 0.8096(12) 0.7001(9)
H159_2 H 0.1844 0.5851 0.7375
H160_2 H 0.4007 0.8156 0.7375
C176_2 C 0.1621(11) 0.5742(8) 0.6615(11)
C177_2 C 0.4121(8) 0.8379(11) 0.6615(11)
H161_2 H 0.1358 0.5604 0.6721
H162_2 H 0.4246 0.8642 0.6721
C178_2 C 0.1715(12) 0.5822(9) 0.6077(10)
C179_2 C 0.4107(8) 0.8285(12) 0.6077(10)
H163_2 H 0.1518 0.5726 0.5810
H164_2 H 0.4208 0.8482 0.5810
C180_2 C 0.2098(11) 0.6042(8) 0.5920(9)
C181_2 C 0.3944(8) 0.7902(11) 0.5920(9)
H165_2 H 0.2164 0.6147 0.5565
H166_2 H 0.3983 0.7836 0.5565
C182_2 C 0.2381(11) 0.6106(8) 0.6295(11)
C183_2 C 0.3725(8) 0.7619(11) 0.6295(11)
H167_2 H 0.2642 0.6224 0.6184
H168_2 H 0.3582 0.7358 0.6184
O19_3 O 0.0463(6) 0.0098(5) 0.7687(9)
Er3_2 Er 0.34982(2) 0.15018(3) 0.79811(5)
Er8_2 Er 0.34982(2) 0.19963(2) 0.29811(5)
N9_3 N 0.2689(6) 0.1818(9) 0.7320(10)
H57_3 H 0.2571 0.1924 0.7156
N11_3 N 0.2143(6) 0.2817(8) 0.5371(9)
H59_3 H 0.2270 0.2761 0.5608
N13_3 N 0.2635(5) 0.1359(8) 0.4285(8)
H61_3 H 0.2429 0.1252 0.4491
N15_3 N 0.0824(7) 0.0631(10) 0.5701(10)
H63_3 H 0.1010 0.0723 0.5461
N17_3 N 0.4096(6) 0.1836(8) 0.7173(8)
N19_3 N 0.3942(6) 0.1319(8) 0.8695(8)
N21_3 N 0.3076(6) 0.0763(8) 0.7485(8)
N23_3 N 0.0209(6) 0.0682(9) 0.7577(10)
O21_3 O 0.2704(4) 0.1993(6) 0.6157(7)
O23_3 O 0.1840(5) 0.2101(6) 0.5902(7)
O25_3 O 0.2115(5) 0.1565(7) 0.4657(7)
O27_3 O 0.1662(4) 0.0987(6) 0.5870(7)
O29_3 O 0.3226(4) 0.1799(6) 0.7474(7)
O34_3 O 0.3723(6) 0.2032(4) 0.8550(7)
O36_2 O 0.2947(5) 0.1678(7) 0.3490(7)
O39_2 O 0.2947(5) 0.1268(5) 0.8490(7)
O41_3 O 0.0537(4) 0.0242(6) 0.6391(6)
O43_3 O 0.3802(5) 0.1500(7) 0.7104(7)
O45_3 O 0.4077(4) 0.2052(6) 0.7550(6)
O47_3 O 0.4340(5) 0.1997(9) 0.6798(8)
O49_3 O 0.3609(4) 0.1246(6) 0.8837(7)
O51_3 O 0.4074(5) 0.1472(7) 0.8224(7)
O53_3 O 0.4136(7) 0.1213(9) 0.8990(10)
O55_3 O 0.3317(5) 0.0827(7) 0.7870(7)
O57_3 O 0.2995(5) 0.1026(6) 0.7362(7)
O59_3 O 0.2910(7) 0.0441(9) 0.7243(9)
O61_3 O 0.0410(4) 0.0692(6) 0.7165(7)
O66_3 O 0.0271(6) 0.1000(9) 0.7785(10)
C62_3 C 0.2077(6) 0.1666(8) 0.5650(9)
C64_3 C 0.2484(6) 0.1996(9) 0.5622(9)
H65_3 H 0.2485 0.2243 0.5595
H67_3 H 0.2615 0.1971 0.5298
C66_3 C 0.1875(7) 0.1744(10) 0.6102(10)
H69_3 H 0.2025 0.1806 0.6442
H71_3 H 0.1618 0.1519 0.6166
C68_3 C 0.1898(7) 0.1635(10) 0.5069(10)
H73_3 H 0.1628 0.1423 0.5067
H75_3 H 0.1900 0.1877 0.4985
C70_3 C 0.2051(7) 0.1284(10) 0.5784(11)
H77_3 H 0.2164 0.1211 0.5483
H79_3 H 0.2204 0.1315 0.6115
C72_3 C 0.3063(7) 0.1940(10) 0.7167(11)
C74_3 C 0.3264(6) 0.2156(8) 0.6649(9)
C76_3 C 0.3115(6) 0.2218(8) 0.6175(8)
C78_3 C 0.3324(6) 0.2474(9) 0.5774(10)
H81_3 H 0.3201 0.2503 0.5463
C80_3 C 0.3709(6) 0.2682(9) 0.5834(10)
H83_3 H 0.3854 0.2874 0.5572
C82_3 C 0.3896(7) 0.2629(10) 0.6251(9)
H85_3 H 0.4167 0.2734 0.6264
C84_3 C 0.3652(6) 0.2410(9) 0.6644(10)
H87_3 H 0.3773 0.2437 0.6986
C86_3 C 0.2500(6) 0.1563(9) 0.7681(12)
H89_3 H 0.2618 0.1658 0.8042
H91_3 H 0.2507 0.1326 0.7599
C88_3 C 0.2072(5) 0.1475(8) 0.7687(11)
C90_3 C 0.1778(7) 0.1144(9) 0.7446(12)
H93_3 H 0.1827 0.0952 0.7307
C92_3 C 0.1413(6) 0.1098(9) 0.7413(11)
H95_3 H 0.1229 0.0913 0.7173
C94_3 C 0.1316(6) 0.1322(9) 0.7728(12)
H97_3 H 0.1059 0.1272 0.7733
C96_3 C 0.1594(7) 0.1619(9) 0.8035(12)
H99_3 H 0.1527 0.1758 0.8281
C98_3 C 0.1972(6) 0.1710(8) 0.7978(11)
H101_3 H 0.2169 0.1939 0.8139
C100_3 C 0.1779(6) 0.2769(8) 0.5441(10)
C102_3 C 0.1549(7) 0.2484(10) 0.5977(10)
C104_3 C 0.1587(6) 0.2192(9) 0.6201(9)
C106_3 C 0.1416(7) 0.2008(10) 0.6673(9)
H103_3 H 0.1460 0.1812 0.6811
C108_3 C 0.1181(7) 0.2106(10) 0.6946(11)
H105_3 H 0.1068 0.1987 0.7282
C110_3 C 0.1111(7) 0.2373(10) 0.6736(9)
H107_3 H 0.0924 0.2424 0.6887
C112_3 C 0.1325(7) 0.2569(10) 0.6290(9)
H109_3 H 0.1313 0.2791 0.6190
C114_3 C 0.2279(8) 0.2983(10) 0.4818(10)
H111_3 H 0.2326 0.3249 0.4798
H113_3 H 0.2087 0.2826 0.4538
C116_3 C 0.2664(7) 0.2975(9) 0.4735(12)
C118_3 C 0.2677(7) 0.2710(9) 0.4390(12)
H115_3 H 0.2452 0.2532 0.4199
C120_3 C 0.3015(7) 0.2703(10) 0.4319(12)
H117_3 H 0.3011 0.2495 0.4129
C122_3 C 0.3358(8) 0.2995(10) 0.4524(13)
H119_3 H 0.3592 0.2996 0.4462
C124_3 C 0.3355(7) 0.3288(9) 0.4823(13)
H121_2 H 0.3590 0.3499 0.4945
C126_3 C 0.3014(7) 0.3271(10) 0.4939(11)
H123_2 H 0.3014 0.3463 0.5164
C128_3 C 0.2664(7) 0.1557(10) 0.3819(9)
C130_3 C 0.2310(6) 0.1624(10) 0.3746(7)
C132_3 C 0.2046(6) 0.1619(9) 0.4123(7)
C134_3 C 0.1720(5) 0.1618(9) 0.3953(7)
H125_3 H 0.1527 0.1575 0.4210
C136_3 C 0.1667(6) 0.1679(9) 0.3410(7)
H127_3 H 0.1448 0.1693 0.3297
C138_3 C 0.1944(6) 0.1718(10) 0.3041(7)
H129_3 H 0.1931 0.1786 0.2675
C140_3 C 0.2238(6) 0.1659(10) 0.3203(7)
H131_3 H 0.2398 0.1642 0.2934
C142_3 C 0.2995(6) 0.1345(10) 0.4406(8)
H133_3 H 0.3044 0.1204 0.4117
H135_3 H 0.3219 0.1608 0.4431
C144_3 C 0.2925(7) 0.1137(9) 0.4950(7)
C146_3 C 0.3091(8) 0.1365(10) 0.5401(9)
H137_3 H 0.3228 0.1637 0.5367
C148_3 C 0.3056(8) 0.1197(11) 0.5900(8)
H139_3 H 0.3178 0.1355 0.6206
C150_3 C 0.2849(8) 0.0802(11) 0.5967(8)
H141_3 H 0.2771 0.0690 0.6316
C152_3 C 0.2757(8) 0.0573(10) 0.5503(9)
H143_3 H 0.2685 0.0310 0.5528
C154_3 C 0.2773(7) 0.0739(9) 0.5007(8)
H145_3 H 0.2679 0.0580 0.4695
C156_3 C 0.0829(8) 0.0424(11) 0.6059(11)
C158_3 C 0.1189(6) 0.0378(8) 0.6226(10)
C160_3 C 0.1577(5) 0.0618(8) 0.6130(11)
C162_3 C 0.1865(7) 0.0532(9) 0.6172(11)
H147_3 H 0.2115 0.0703 0.6039
C164_3 C 0.1784(7) 0.0194(10) 0.6410(11)
H149_3 H 0.1974 0.0127 0.6488
C167_3 C 0.0033(9) 0.1448(7) 0.6521(12)
H152_3 H 0.0274 0.1621 0.6676
C168_3 C 0.1129(6) 0.0039(8) 0.6441(10)
H154_3 H 0.0153 0.1027 0.6536
C170_3 C 0.0546(8) 0.0727(11) 0.5651(13)
H155_3 H 0.0516 0.0833 0.5999
H157_3 H 0.0298 0.0497 0.5560
C172_3 C 0.0670(8) 0.1051(11) 0.5170(10)
C174_3 C 0.0806(8) 0.1429(12) 0.5334(9)
H159_3 H 0.0816 0.1489 0.5708
C176_3 C 0.0925(8) 0.1712(11) 0.4948(11)
H161_3 H 0.1063 0.1975 0.5054
C178_3 C 0.0845(9) 0.1618(12) 0.4410(10)
H163_3 H 0.0941 0.1815 0.4143
C180_3 C 0.0625(8) 0.1235(11) 0.4253(9)
H165_3 H 0.0520 0.1169 0.3898
C182_3 C 0.0561(8) 0.0952(11) 0.4628(11)
H167_3 H 0.0443 0.0691 0.4517
N2_3 N 0.0675(5) 0.7857(6) 0.5371(9)
H2_3 H 0.0492 0.7730 0.5608
N8_3 N 0.0474(7) 0.9791(6) 0.7577(10)
O2_3 O 0.0262(4) 0.8160(5) 0.5902(7)
O18_3 O 0.0283(5) 0.9590(4) 0.7165(7)
O20_3 O 0.0730(7) 0.9729(6) 0.7785(10)
C17_3 C 0.0007(7) 0.8684(6) 0.7728(12)
H21_3 H 0.0214 0.8941 0.7733
C18_3 C 0.0026(6) 0.8406(7) 0.8035(12)
H22_3 H 0.0232 0.8473 0.8281
C20_3 C 0.0991(5) 0.8221(6) 0.5441(10)
C21_3 C 0.0936(7) 0.8451(7) 0.5977(10)
C22_3 C 0.0606(7) 0.8413(6) 0.6201(9)
C23_3 C 0.0593(7) 0.8584(7) 0.6673(9)
H24_3 H 0.0353 0.8540 0.6811
C24_3 C 0.0926(7) 0.8819(7) 0.6946(11)
H25_3 H 0.0920 0.8932 0.7282
C25_3 C 0.1263(7) 0.8889(7) 0.6736(9)
H26_3 H 0.1501 0.9076 0.6887
C26_3 C 0.1245(7) 0.8675(7) 0.6290(9)
H27_3 H 0.1479 0.8687 0.6190
C27_3 C 0.0705(6) 0.7721(8) 0.4818(10)
H28_3 H 0.0924 0.7674 0.4798
H29_3 H 0.0740 0.7913 0.4538
C28_3 C 0.0312(5) 0.7336(7) 0.4735(12)
C29_3 C 0.0034(6) 0.7323(7) 0.4390(12)
H30_3 H 0.0081 0.7548 0.4199
C33_3 C 0.0258(7) 0.6986(7) 0.4939(11)
H34_3 H 0.0450 0.6986 0.5164
H35_3 H 0.0049 0.8473 0.4210
C38_3 C 0.0013(7) 0.8333(6) 0.3410(7)
H36_3 H 0.0246 0.8552 0.3297
C55_3 C 0.0182(8) 0.9454(8) 0.5651(13)
H50_3 H 0.0318 0.9484 0.5999
H51_3 H 0.0200 0.9702 0.5560
C56_3 C 0.0382(8) 0.9330(8) 0.5170(10)
C57_3 C 0.0624(9) 0.9194(8) 0.5334(9)
H52_3 H 0.0674 0.9184 0.5708
C58_3 C 0.0788(8) 0.9075(8) 0.4948(11)
H53_3 H 0.0913 0.8937 0.5054
C59_3 C 0.0774(8) 0.9155(9) 0.4410(10)
H54_3 H 0.0875 0.9059 0.4143
C60_3 C 0.0611(8) 0.9375(8) 0.4253(9)
H55_3 H 0.0650 0.9480 0.3898
C61_3 C 0.0392(8) 0.9439(8) 0.4628(11)
H56_3 H 0.0249 0.9557 0.4517
C166_3 C 0.1416(6) 0.9967(9) 0.6521(12)
H151_3 H 0.1348 0.9726 0.6676
H153_3 H 0.0875 0.9847 0.6536
Er2_3 Er 1.0000 0.0000 0.69717(6)
Er4_2 Er 0.84982(3) 0.19963(2) 0.79811(5)
Er10_2 Er 0.80037(2) 0.15018(3) 0.29811(5)
N10_3 N 0.8182(9) 0.0870(7) 0.7320(10)
H58_3 H 0.8076 0.0646 0.7156
N14_3 N 0.8641(8) 0.1275(6) 0.4285(8)
H62_3 H 0.8748 0.1176 0.4491
N16_3 N 0.9369(10) 0.0192(7) 0.5701(10)
H64_3 H 0.9277 0.0286 0.5461
N18_3 N 0.8164(8) 0.2259(6) 0.7173(8)
N20_3 N 0.8681(8) 0.2622(5) 0.8695(8)
N22_3 N 0.9237(8) 0.2312(5) 0.7485(8)
O22_3 O 0.8007(6) 0.0710(4) 0.6157(7)
O26_3 O 0.8435(7) 0.0549(5) 0.4657(7)
O28_3 O 0.9013(6) 0.0674(5) 0.5870(7)
O30_3 O 0.8201(6) 0.1426(5) 0.7474(7)
O35_3 O 0.7968(4) 0.1692(4) 0.8550(7)
O37_2 O 0.8322(7) 0.1268(5) 0.3490(7)
O40_2 O 0.8732(5) 0.1678(7) 0.8490(7)
O42_3 O 0.9758(6) 0.0294(4) 0.6391(6)
O44_3 O 0.8500(7) 0.2301(5) 0.7104(7)
O46_3 O 0.7948(6) 0.2024(5) 0.7550(6)
O48_3 O 0.8003(9) 0.2342(8) 0.6798(8)
O50_3 O 0.8754(6) 0.2362(4) 0.8837(7)
O52_3 O 0.8528(7) 0.2601(5) 0.8224(7)
O54_3 O 0.8787(9) 0.2922(6) 0.8990(10)
O56_3 O 0.9173(7) 0.2489(5) 0.7870(7)
O58_3 O 0.8974(6) 0.1968(4) 0.7362(7)
O60_3 O 0.9559(9) 0.2468(6) 0.7243(9)
O63_3 O 0.9902(5) 0.0364(8) 0.7687(9)
C63_3 C 0.8334(8) 0.0410(6) 0.5650(9)
C65_3 C 0.8004(9) 0.0487(7) 0.5622(9)
H66_3 H 0.7757 0.0241 0.5595
H68_3 H 0.8029 0.0643 0.5298
C67_3 C 0.8256(10) 0.0130(7) 0.6102(10)
H70_3 H 0.8194 0.0218 0.6442
H72_3 H 0.8481 0.0098 0.6166
C69_3 C 0.8365(10) 0.0262(7) 0.5069(10)
H74_3 H 0.8577 0.0204 0.5067
H76_3 H 0.8123 0.0022 0.4985
C71_3 C 0.8716(10) 0.0766(7) 0.5784(11)
H78_3 H 0.8789 0.0952 0.5483
H80_3 H 0.8685 0.0888 0.6115
C73_3 C 0.8060(10) 0.1122(7) 0.7167(11)
C75_3 C 0.7844(8) 0.1107(6) 0.6649(9)
C77_3 C 0.7782(8) 0.0896(6) 0.6175(8)
C79_3 C 0.7526(9) 0.0849(7) 0.5774(10)
H82_3 H 0.7497 0.0697 0.5463
C81_3 C 0.7318(9) 0.1026(7) 0.5834(10)
H84_3 H 0.7126 0.0979 0.5572
C83_3 C 0.7371(10) 0.1266(7) 0.6251(9)
H86_3 H 0.7266 0.1432 0.6264
C85_3 C 0.7590(9) 0.1241(7) 0.6644(10)
H88_3 H 0.7563 0.1335 0.6986
C87_3 C 0.8437(9) 0.0936(7) 0.7681(12)
H90_3 H 0.8342 0.0959 0.8042
H92_3 H 0.8674 0.1180 0.7599
C89_3 C 0.8525(8) 0.0596(6) 0.7687(11)
C91_3 C 0.8856(9) 0.0633(6) 0.7446(12)
H94_3 H 0.9048 0.0874 0.7307
C93_3 C 0.8902(9) 0.0314(7) 0.7413(11)
H96_3 H 0.9087 0.0315 0.7173
C99_3 C 0.8290(8) 0.0261(6) 0.7978(11)
H102_3 H 0.8061 0.0229 0.8139
C121_3 C 0.7297(10) 0.0311(7) 0.4319(12)
H118_3 H 0.7505 0.0515 0.4129
C123_3 C 0.7005(10) 0.0362(6) 0.4524(13)
H120_3 H 0.7004 0.0595 0.4462
C125_3 C 0.6712(9) 0.0066(6) 0.4823(13)
H122 H 0.6501 0.0090 0.4945
C129_3 C 0.8443(10) 0.1106(7) 0.3819(9)
C131_3 C 0.8376(10) 0.0685(8) 0.3746(7)
C133_3 C 0.8381(9) 0.0426(7) 0.4123(7)
C135_3 C 0.8382(9) 0.0101(8) 0.3953(7)
C139_3 C 0.8282(10) 0.0225(8) 0.3041(7)
H130_3 H 0.8214 0.0144 0.2675
C141_3 C 0.8341(10) 0.0578(8) 0.3203(7)
H132_3 H 0.8358 0.0755 0.2934
C143_3 C 0.8655(10) 0.1649(8) 0.4406(8)
H134_3 H 0.8796 0.1839 0.4117
H136_3 H 0.8392 0.1610 0.4431
C145_3 C 0.8863(9) 0.1787(6) 0.4950(7)
C147_3 C 0.8635(10) 0.1725(6) 0.5401(9)
H138_3 H 0.8363 0.1590 0.5367
C149_3 C 0.8803(11) 0.1858(7) 0.5900(8)
H140_3 H 0.8645 0.1822 0.6206
C151_3 C 0.9198(11) 0.2046(7) 0.5967(8)
H142_3 H 0.9310 0.2080 0.6316
C153_3 C 0.9427(10) 0.2183(6) 0.5503(9)
H144_3 H 0.9690 0.2374 0.5528
C155_3 C 0.9261(9) 0.2033(6) 0.5007(8)
H146_3 H 0.9420 0.2098 0.4695
C157_3 C 0.9576(11) 0.0404(8) 0.6059(11)
C159_3 C 0.9622(8) 0.0810(6) 0.6226(10)
C161_3 C 0.9382(8) 0.0958(6) 0.6130(11)
C163_3 C 0.9468(9) 0.1332(6) 0.6172(11)
H148_3 H 0.9297 0.1411 0.6039
C165_3 C 0.9806(10) 0.1589(7) 0.6410(11)
H150_3 H 0.9873 0.1846 0.6488
C169_3 C 0.9961(8) 0.1089(6) 0.6441(10)
Er1_2 Er 0.80037(2) 0.65018(2) 0.79811(5)
N1_3 N 0.9130(7) 0.7311(6) 0.7320(10)
H1_3 H 0.9354 0.7429 0.7156
N3_3 N 0.8725(6) 0.7365(5) 0.4285(8)
H3_3 H 0.8824 0.7571 0.4491
N4_3 N 0.9808(7) 0.9176(7) 0.5701(10)
H4_3 H 0.9714 0.8990 0.5461
N5_3 N 0.7741(6) 0.5904(6) 0.7173(8)
N6_3 N 0.7378(5) 0.6058(6) 0.8695(8)
N7_3 N 0.7688(5) 0.6924(6) 0.7485(8)
O1_3 O 0.9290(4) 0.7296(4) 0.6157(7)
O3_3 O 0.9451(5) 0.7885(5) 0.4657(7)
O4_3 O 0.9326(5) 0.8338(4) 0.5870(7)
O5_3 O 0.8574(5) 0.6774(4) 0.7474(7)
O7_2 O 0.8732(5) 0.7053(5) 0.3490(7)
O8_3 O 0.9706(4) 0.9463(4) 0.6391(6)
O9_3 O 0.7699(5) 0.6198(5) 0.7104(7)
O10_3 O 0.7976(5) 0.5923(4) 0.7550(6)
O11_3 O 0.7658(8) 0.5660(5) 0.6798(8)
O12_3 O 0.7638(4) 0.6391(4) 0.8837(7)
O13_3 O 0.7399(5) 0.5926(5) 0.8224(7)
O14_3 O 0.7078(6) 0.5864(7) 0.8990(10)
O15_3 O 0.7511(5) 0.6683(5) 0.7870(7)
O16_3 O 0.8032(4) 0.7005(5) 0.7362(7)
O17_3 O 0.7532(6) 0.7090(7) 0.7243(9)
C1_3 C 0.9590(6) 0.7923(6) 0.5650(9)
C2_3 C 0.9513(7) 0.7516(6) 0.5622(9)
H5_3 H 0.9759 0.7515 0.5595
H6_3 H 0.9357 0.7385 0.5298
C3_3 C 0.9870(7) 0.8125(7) 0.6102(10)
H7_3 H 0.9782 0.7975 0.6442
H8_3 H 0.9902 0.8382 0.6166
C4_3 C 0.9738(7) 0.8102(7) 0.5069(10)
H9_3 H 0.9796 0.8372 0.5067
H10_3 H 0.9978 0.8100 0.4985
C5_3 C 0.9234(7) 0.7949(7) 0.5784(11)
H11_3 H 0.9048 0.7836 0.5483
H12_3 H 0.9112 0.7796 0.6115
C6_3 C 0.8878(7) 0.6937(7) 0.7167(11)
C7_3 C 0.8893(6) 0.6736(6) 0.6649(9)
C8_3 C 0.9104(6) 0.6885(6) 0.6175(8)
C9_3 C 0.9151(7) 0.6676(6) 0.5774(10)
H13_3 H 0.9303 0.6799 0.5463
C10_3 C 0.8974(7) 0.6291(6) 0.5834(10)
H14_3 H 0.9021 0.6146 0.5572
C11_3 C 0.8734(7) 0.6104(7) 0.6251(9)
H15_3 H 0.8568 0.5833 0.6264
C12_3 C 0.8759(7) 0.6348(6) 0.6644(10)
H16_3 H 0.8665 0.6227 0.6986
C13_3 C 0.9064(7) 0.7500(6) 0.7681(12)
H17_3 H 0.9041 0.7382 0.8042
H18_3 H 0.8820 0.7493 0.7599
C14_3 C 0.9404(6) 0.7928(5) 0.7687(11)
C15_3 C 0.9367(6) 0.8222(7) 0.7446(12)
H19_3 H 0.9126 0.8173 0.7307
C16_3 C 0.9686(7) 0.8587(6) 0.7413(11)
H20_3 H 0.9685 0.8771 0.7173
C19_3 C 0.9739(6) 0.8028(6) 0.7978(11)
H23_3 H 0.9771 0.7831 0.8139
C30_3 C 0.9689(7) 0.6985(7) 0.4319(12)
H31_3 H 0.9485 0.6989 0.4129
C31_3 C 0.9638(6) 0.6642(8) 0.4524(13)
H32_3 H 0.9405 0.6408 0.4462
C32_3 C 0.9934(6) 0.6645(7) 0.4823(13)
H33_3 H 0.9910 0.6410 0.4945
C34_3 C 0.8894(7) 0.7336(7) 0.3819(9)
C35_3 C 0.9315(8) 0.7690(6) 0.3746(7)
C36_3 C 0.9574(7) 0.7954(6) 0.4123(7)
C37_3 C 0.9899(8) 0.8280(5) 0.3953(7)
C39_3 C 0.9775(8) 0.8056(6) 0.3041(7)
H37_3 H 0.9856 0.8069 0.2675
C40_3 C 0.9422(8) 0.7762(6) 0.3203(7)
H38_3 H 0.9245 0.7602 0.2934
C41_3 C 0.8351(8) 0.7005(6) 0.4406(8)
H39_3 H 0.8161 0.6956 0.4117
H40_3 H 0.8390 0.6781 0.4431
C42_3 C 0.8213(6) 0.7075(7) 0.4950(7)
C43_3 C 0.8275(6) 0.6909(8) 0.5401(9)
H41_3 H 0.8410 0.6772 0.5367
C44_3 C 0.8142(7) 0.6944(8) 0.5900(8)
H42_3 H 0.8178 0.6822 0.6206
C45_3 C 0.7954(7) 0.7151(8) 0.5967(8)
H43_3 H 0.7920 0.7229 0.6316
C46_3 C 0.7817(6) 0.7243(8) 0.5503(9)
H44_3 H 0.7626 0.7315 0.5528
C47_3 C 0.7967(6) 0.7227(7) 0.5007(8)
H45_3 H 0.7902 0.7321 0.4695
C48_3 C 0.9596(8) 0.9171(8) 0.6059(11)
C49_3 C 0.9190(6) 0.8811(6) 0.6226(10)
C50_3 C 0.9042(6) 0.8423(5) 0.6130(11)
C51_3 C 0.8668(6) 0.8135(7) 0.6172(11)
H46_3 H 0.8589 0.7885 0.6039
C52_3 C 0.8411(7) 0.8216(7) 0.6410(11)
H47_3 H 0.8154 0.8026 0.6488
C53_3 C 0.8552(7) 0.8584(6) 0.6521(12)
H48_3 H 0.8379 0.8652 0.6676
C54_3 C 0.8911(6) 0.8871(6) 0.6441(10)
H49_3 H 0.8973 0.9125 0.6536
Er6_2 Er 0.84982(3) 0.65018(2) 0.29811(5)
N12_3 N 0.7183(8) 0.9325(5) 0.5371(9)
H60_3 H 0.7239 0.9508 0.5608
N24_3 N 0.9318(9) 0.9526(7) 0.7577(10)
O24_3 O 0.7899(6) 0.9738(4) 0.5902(7)
O33_3 O 0.8308(4) 0.6277(6) 0.8550(7)
O38_2 O 0.8322(7) 0.7053(5) 0.8490(7)
O62_3 O 0.9308(6) 0.9717(5) 0.7165(7)
O64_3 O 0.9636(8) 0.9537(6) 0.7687(9)
O65_3 O 0.9000(9) 0.9270(7) 0.7785(10)
C95_3 C 0.8678(9) 0.9993(7) 0.7728(12)
H98_3 H 0.8728 0.9786 0.7733
C97_3 C 0.8381(9) 0.9974(6) 0.8035(12)
H100_3 H 0.8242 0.9768 0.8281
C101_3 C 0.7231(8) 0.9009(5) 0.5441(10)
C103_3 C 0.7516(10) 0.9064(7) 0.5977(10)
C105_3 C 0.7808(9) 0.9394(7) 0.6201(9)
C107_3 C 0.7992(10) 0.9407(7) 0.6673(9)
H104_3 H 0.8188 0.9647 0.6811
C109_3 C 0.7894(10) 0.9074(7) 0.6946(11)
H106_3 H 0.8013 0.9080 0.7282
C111_3 C 0.7627(10) 0.8737(7) 0.6736(9)
H108_3 H 0.7576 0.8499 0.6887
C113_3 C 0.7431(10) 0.8755(7) 0.6290(9)
H110_3 H 0.7209 0.8521 0.6190
C115_3 C 0.7017(10) 0.9295(6) 0.4818(10)
H112_3 H 0.6751 0.9076 0.4798
H114_3 H 0.7174 0.9260 0.4538
C117_3 C 0.7025(9) 0.9688(5) 0.4735(12)
C119_3 C 0.7290(9) 0.9966(6) 0.4390(12)
H116_3 H 0.7468 0.9919 0.4199
C127_3 C 0.6729(10) 0.9742(7) 0.4939(11)
H124 H 0.6537 0.9550 0.5164
H126_3 H 0.8425 0.9951 0.4210
C137_3 C 0.8321(9) 0.9987(7) 0.3410(7)
H128_3 H 0.8307 0.9754 0.3297
C171_3 C 0.9273(11) 0.9818(8) 0.5651(13)
H156_3 H 0.9167 0.9682 0.5999
H158_3 H 0.9503 0.9800 0.5560
C173_3 C 0.8949(11) 0.9618(8) 0.5170(10)
C175_3 C 0.8571(12) 0.9376(9) 0.5334(9)
H160_3 H 0.8511 0.9326 0.5708
C177_3 C 0.8288(11) 0.9212(8) 0.4948(11)
H162_3 H 0.8025 0.9087 0.5054
C179_3 C 0.8382(12) 0.9226(8) 0.4410(10)
H164_3 H 0.8185 0.9125 0.4143
C181_3 C 0.8765(11) 0.9389(8) 0.4253(9)
H166_3 H 0.8831 0.9350 0.3898
C183_3 C 0.9048(11) 0.9608(8) 0.4628(11)
H168_3 H 0.9309 0.9751 0.4517
Er2_4 Er 1.0000 0.9999 0.69717(6)
Er2_5 Er 0.0001 0.0000 0.69717(6)
N1_4 N 0.2689(6) 0.0870(7) 0.2320(10)
H1_4 H 0.2571 0.0646 0.2156
N4_4 N 0.0824(7) 0.0192(7) 0.0701(10)
H4_4 H 0.1010 0.0286 0.0461
N5_4 N 0.4096(6) 0.2259(6) 0.2173(8)
N6_4 N 0.3942(6) 0.2622(5) 0.3695(8)
N7_4 N 0.3076(6) 0.2312(5) 0.2485(8)
O1_4 O 0.2704(4) 0.0710(4) 0.1157(7)
O4_4 O 0.1662(4) 0.0674(5) 0.0870(7)
O5_4 O 0.3226(4) 0.1426(5) 0.2474(7)
O8_4 O 0.0537(4) 0.0294(4) 0.1391(6)
O9_4 O 0.3802(5) 0.2301(5) 0.2104(7)
O10_4 O 0.4077(4) 0.2024(5) 0.2550(6)
O11_4 O 0.4340(5) 0.2342(8) 0.1798(8)
O12_4 O 0.3609(4) 0.2362(4) 0.3837(7)
O13_4 O 0.4074(5) 0.2601(5) 0.3224(7)
O14_4 O 0.4136(7) 0.2922(6) 0.3990(10)
O15_4 O 0.3317(5) 0.2489(5) 0.2870(7)
O16_4 O 0.2995(5) 0.1968(4) 0.2362(7)
O17_4 O 0.2910(7) 0.2468(6) 0.2243(9)
C1_4 C 0.2077(6) 0.0410(6) 0.0650(9)
C2_4 C 0.2484(6) 0.0487(7) 0.0622(9)
H5_4 H 0.2485 0.0241 0.0595
H6_4 H 0.2615 0.0643 0.0298
C3_4 C 0.1875(7) 0.0130(7) 0.1102(10)
H7_4 H 0.2025 0.0218 0.1442
H8_4 H 0.1618 0.0098 0.1166
C4_4 C 0.1898(7) 0.0262(7) 0.0069(10)
H9_4 H 0.1628 0.0204 0.0067
C5_4 C 0.2051(7) 0.0766(7) 0.0784(11)
H11_4 H 0.2164 0.0952 0.0483
H12_4 H 0.2204 0.0888 0.1115
C6_4 C 0.3063(7) 0.1122(7) 0.2167(11)
C7_4 C 0.3264(6) 0.1107(6) 0.1649(9)
C8_4 C 0.3115(6) 0.0896(6) 0.1175(8)
C9_4 C 0.3324(6) 0.0849(7) 0.0774(10)
H13_4 H 0.3201 0.0697 0.0463
C10_4 C 0.3709(6) 0.1026(7) 0.0834(10)
H14_4 H 0.3854 0.0979 0.0572
C11_4 C 0.3896(7) 0.1266(7) 0.1251(9)
H15_4 H 0.4167 0.1432 0.1264
C12_4 C 0.3652(6) 0.1241(7) 0.1644(10)
H16_4 H 0.3773 0.1335 0.1986
C13_4 C 0.2500(6) 0.0936(7) 0.2681(12)
H17_4 H 0.2618 0.0959 0.3042
H18_4 H 0.2507 0.1180 0.2599
C14_4 C 0.2072(5) 0.0596(6) 0.2687(11)
C15_4 C 0.1778(7) 0.0633(6) 0.2446(12)
H19_4 H 0.1827 0.0874 0.2307
C16_4 C 0.1413(6) 0.0314(7) 0.2413(11)
H20_4 H 0.1229 0.0315 0.2173
C19_4 C 0.1972(6) 0.0261(6) 0.2978(11)
H23_4 H 0.2169 0.0229 0.3139
C43_4 C 0.3091(8) 0.1725(6) 0.0401(9)
H41_4 H 0.3228 0.1590 0.0367
C44_4 C 0.3056(8) 0.1858(7) 0.0900(8)
H42_4 H 0.3178 0.1822 0.1206
C45_4 C 0.2849(8) 0.2046(7) 0.0967(8)
H43_4 H 0.2771 0.2080 0.1316
C46_4 C 0.2757(8) 0.2183(6) 0.0503(9)
H44_4 H 0.2685 0.2374 0.0528
C47_4 C 0.2773(7) 0.2033(6) 0.0007(8)
C48_4 C 0.0829(8) 0.0404(8) 0.1059(11)
C49_4 C 0.1189(6) 0.0810(6) 0.1226(10)
C50_4 C 0.1577(5) 0.0958(6) 0.1130(11)
C51_4 C 0.1865(7) 0.1332(6) 0.1172(11)
H46_4 H 0.2115 0.1411 0.1039
C52_4 C 0.1784(7) 0.1589(7) 0.1410(11)
H47_4 H 0.1974 0.1846 0.1488
C53_4 C 0.1416(6) 0.1448(7) 0.1521(12)
H48_4 H 0.1348 0.1621 0.1676
C54_4 C 0.1129(6) 0.1089(6) 0.1441(10)
H49_4 H 0.0875 0.1027 0.1536
N12_4 N 0.0675(5) 0.2817(8) 0.0371(9)
H60_4 H 0.0492 0.2761 0.0608
N24_4 N 0.0474(7) 0.0682(9) 0.2577(10)
O24_4 O 0.0262(4) 0.2101(6) 0.0902(7)
O33_4 O 0.3723(6) 0.1692(4) 0.3550(7)
O62_4 O 0.0283(5) 0.0692(6) 0.2165(7)
O64_4 O 0.0463(6) 0.0364(8) 0.2687(9)
O65_4 O 0.0730(7) 0.1000(9) 0.2785(10)
C95_4 C 0.0007(7) 0.1322(9) 0.2728(12)
H98_4 H 0.0214 0.1272 0.2733
C97_4 C 0.0026(6) 0.1619(9) 0.3035(12)
H100_4 H 0.0232 0.1758 0.3281
C101_4 C 0.0991(5) 0.2769(8) 0.0441(10)
C103_4 C 0.0936(7) 0.2484(10) 0.0977(10)
C105_4 C 0.0606(7) 0.2192(9) 0.1201(9)
C107_4 C 0.0593(7) 0.2008(10) 0.1673(9)
H104_4 H 0.0353 0.1812 0.1811
C109_4 C 0.0926(7) 0.2106(10) 0.1946(11)
H106_4 H 0.0920 0.1987 0.2282
C111_4 C 0.1263(7) 0.2373(10) 0.1736(9)
H108_4 H 0.1501 0.2424 0.1887
C113_4 C 0.1245(7) 0.2569(10) 0.1290(9)
H110_4 H 0.1479 0.2791 0.1190
H124_2 H 0.0450 0.3463 0.0164
C171_4 C 0.0182(8) 0.0727(11) 0.0651(13)
H156_4 H 0.0318 0.0833 0.0999
H158_4 H 0.0200 0.0497 0.0560
C173_4 C 0.0382(8) 0.1051(11) 0.0170(10)
C175_4 C 0.0624(9) 0.1429(12) 0.0334(9)
H160_4 H 0.0674 0.1489 0.0708
H162_4 H 0.0913 0.1975 0.0054
N3_4 N 0.2635(5) 0.1275(6) 0.9285(8)
H3_4 H 0.2429 0.1176 0.9491
O3_4 O 0.2115(5) 0.0549(5) 0.9657(7)
H10_4 H 0.1900 0.0022 0.9985
C30_4 C 0.3015(7) 0.0311(7) 0.9319(12)
H31_4 H 0.3011 0.0515 0.9129
C31_4 C 0.3358(8) 0.0362(6) 0.9524(13)
H32_4 H 0.3592 0.0595 0.9462
C32_4 C 0.3355(7) 0.0066(6) 0.9823(13)
H33_4 H 0.3590 0.0090 0.9945
C34_4 C 0.2664(7) 0.1106(7) 0.8819(9)
C35_4 C 0.2310(6) 0.0685(8) 0.8746(7)
C36_4 C 0.2046(6) 0.0426(7) 0.9123(7)
C37_4 C 0.1720(5) 0.0101(8) 0.8953(7)
C39_4 C 0.1944(6) 0.0225(8) 0.8041(7)
H37_4 H 0.1931 0.0144 0.7675
C40_4 C 0.2238(6) 0.0578(8) 0.8203(7)
H38_4 H 0.2398 0.0755 0.7934
C41_4 C 0.2995(6) 0.1649(8) 0.9406(8)
H39_4 H 0.3044 0.1839 0.9117
H40_4 H 0.3219 0.1610 0.9431
C42_4 C 0.2925(7) 0.1787(6) 0.9950(7)
H45_4 H 0.2679 0.2098 0.9695
C115_4 C 0.0705(6) 0.2983(10) 0.9818(10)
H112_4 H 0.0924 0.3249 0.9798
H114_4 H 0.0740 0.2826 0.9538
C117_4 C 0.0312(5) 0.2975(9) 0.9735(12)
C119_4 C 0.0034(6) 0.2710(9) 0.9390(12)
H116_4 H 0.0081 0.2532 0.9199
C127_4 C 0.0258(7) 0.3271(10) 0.9939(11)
H126_4 H 0.0049 0.1575 0.9210
C137_4 C 0.0013(7) 0.1679(9) 0.8410(7)
H128_4 H 0.0246 0.1693 0.8297
C177_4 C 0.0788(8) 0.1712(11) 0.9948(11)
C179_4 C 0.0774(8) 0.1618(12) 0.9410(10)
H164_4 H 0.0875 0.1815 0.9143
C181_4 C 0.0611(8) 0.1235(11) 0.9253(9)
H166_4 H 0.0650 0.1169 0.8898
C183_4 C 0.0392(8) 0.0952(11) 0.9628(11)
H168_4 H 0.0249 0.0691 0.9517
N2_4 N 0.2143(6) 0.9325(5) 0.0371(9)
H2_4 H 0.2270 0.9508 0.0608
N8_4 N 0.0209(6) 0.9526(7) 0.2577(10)
O2_4 O 0.1840(5) 0.9738(4) 0.0902(7)
O18_4 O 0.0410(4) 0.9717(5) 0.2165(7)
O20_4 O 0.0271(6) 0.9270(7) 0.2785(10)
C17_4 C 0.1316(6) 0.9993(7) 0.2728(12)
H21_4 H 0.1059 0.9786 0.2733
C18_4 C 0.1594(7) 0.9974(6) 0.3035(12)
H22_4 H 0.1527 0.9768 0.3281
C20_4 C 0.1779(6) 0.9009(5) 0.0441(10)
C21_4 C 0.1549(7) 0.9064(7) 0.0977(10)
C22_4 C 0.1587(6) 0.9394(7) 0.1201(9)
C23_4 C 0.1416(7) 0.9407(7) 0.1673(9)
H24_4 H 0.1460 0.9647 0.1811
C24_4 C 0.1181(7) 0.9074(7) 0.1946(11)
H25_4 H 0.1068 0.9080 0.2282
C25_4 C 0.1111(7) 0.8737(7) 0.1736(9)
H26_4 H 0.0924 0.8499 0.1887
C26_4 C 0.1325(7) 0.8755(7) 0.1290(9)
H27_4 H 0.1313 0.8521 0.1190
H34_4 H 0.3014 0.9550 0.0164
C55_4 C 0.0546(8) 0.9818(8) 0.0651(13)
H50_4 H 0.0516 0.9682 0.0999
H51_4 H 0.0298 0.9800 0.0560
C56_4 C 0.0670(8) 0.9618(8) 0.0170(10)
C57_4 C 0.0806(8) 0.9376(9) 0.0334(9)
H52_4 H 0.0816 0.9326 0.0708
H53_4 H 0.1063 0.9087 0.0054
C166_4 C 0.0033(9) 0.8584(6) 0.1521(12)
H151_4 H 0.0274 0.8652 0.1676
H153_4 H 0.0153 0.9125 0.1536
C27_4 C 0.2279(8) 0.9295(6) 0.9818(10)
H28_4 H 0.2326 0.9076 0.9798
H29_4 H 0.2087 0.9260 0.9538
C28_4 C 0.2664(7) 0.9688(5) 0.9735(12)
C29_4 C 0.2677(7) 0.9966(6) 0.9390(12)
H30_4 H 0.2452 0.9919 0.9199
C33_4 C 0.3014(7) 0.9742(7) 0.9939(11)
H35_4 H 0.1527 0.9951 0.9210
C38_4 C 0.1667(6) 0.9987(7) 0.8410(7)
H36_4 H 0.1448 0.9754 0.8297
C58_4 C 0.0925(8) 0.9212(8) 0.9948(11)
C59_4 C 0.0845(9) 0.9226(8) 0.9410(10)
H54_4 H 0.0941 0.9125 0.9143
C60_4 C 0.0625(8) 0.9389(8) 0.9253(9)
H55_4 H 0.0520 0.9350 0.8898
C61_4 C 0.0561(8) 0.9608(8) 0.9628(11)
H56_4 H 0.0443 0.9751 0.9517
Er2_6 Er 1.0000 0.0000 0.19717(6)
N10_4 N 0.9130(7) 0.1818(9) 0.2320(10)
H58_4 H 0.9354 0.1924 0.2156
N16_4 N 0.9808(7) 0.0631(10) 0.0701(10)
H64_4 H 0.9714 0.0723 0.0461
N18_4 N 0.7741(6) 0.1836(8) 0.2173(8)
N20_4 N 0.7378(5) 0.1319(8) 0.3695(8)
N22_4 N 0.7688(5) 0.0763(8) 0.2485(8)
O22_4 O 0.9290(4) 0.1993(6) 0.1157(7)
O28_4 O 0.9326(5) 0.0987(6) 0.0870(7)
O30_4 O 0.8574(5) 0.1799(6) 0.2474(7)
O35_4 O 0.8308(4) 0.2032(4) 0.3550(7)
O42_4 O 0.9706(4) 0.0242(6) 0.1391(6)
O44_4 O 0.7699(5) 0.1500(7) 0.2104(7)
O46_4 O 0.7976(5) 0.2052(6) 0.2550(6)
O48_4 O 0.7658(8) 0.1997(9) 0.1798(8)
O50_4 O 0.7638(4) 0.1246(6) 0.3837(7)
O52_4 O 0.7399(5) 0.1472(7) 0.3224(7)
O54_4 O 0.7078(6) 0.1213(9) 0.3990(10)
O56_4 O 0.7511(5) 0.0827(7) 0.2870(7)
O58_4 O 0.8032(4) 0.1026(6) 0.2362(7)
O60_4 O 0.7532(6) 0.0441(9) 0.2243(9)
O63_4 O 0.9636(8) 0.0098(5) 0.2687(9)
C63_4 C 0.9590(6) 0.1666(8) 0.0650(9)
C65_4 C 0.9513(7) 0.1996(9) 0.0622(9)
H66_4 H 0.9759 0.2243 0.0595
H68_4 H 0.9357 0.1971 0.0298
C67_4 C 0.9870(7) 0.1744(10) 0.1102(10)
H70_4 H 0.9782 0.1806 0.1442
H72_4 H 0.9902 0.1519 0.1166
C69_4 C 0.9738(7) 0.1635(10) 0.0069(10)
H74_4 H 0.9796 0.1423 0.0067
C71_4 C 0.9234(7) 0.1284(10) 0.0784(11)
H78_4 H 0.9048 0.1211 0.0483
H80_4 H 0.9112 0.1315 0.1115
C73_4 C 0.8878(7) 0.1940(10) 0.2167(11)
C75_4 C 0.8893(6) 0.2156(8) 0.1649(9)
C77_4 C 0.9104(6) 0.2218(8) 0.1175(8)
C79_4 C 0.9151(7) 0.2474(9) 0.0774(10)
H82_4 H 0.9303 0.2503 0.0463
C81_4 C 0.8974(7) 0.2682(9) 0.0834(10)
H84_4 H 0.9021 0.2874 0.0572
C83_4 C 0.8734(7) 0.2629(10) 0.1251(9)
H86_4 H 0.8568 0.2734 0.1264
C85_4 C 0.8759(7) 0.2410(9) 0.1644(10)
H88_4 H 0.8665 0.2437 0.1986
C87_4 C 0.9064(7) 0.1563(9) 0.2681(12)
H90_4 H 0.9041 0.1658 0.3042
H92_4 H 0.8820 0.1326 0.2599
C89_4 C 0.9404(6) 0.1475(8) 0.2687(11)
C91_4 C 0.9367(6) 0.1144(9) 0.2446(12)
H94_4 H 0.9126 0.0952 0.2307
C93_4 C 0.9686(7) 0.1098(9) 0.2413(11)
H96_4 H 0.9685 0.0913 0.2173
C99_4 C 0.9739(6) 0.1710(8) 0.2978(11)
H102_4 H 0.9771 0.1939 0.3139
C147_4 C 0.8275(6) 0.1365(10) 0.0401(9)
H138_4 H 0.8410 0.1637 0.0367
C149_4 C 0.8142(7) 0.1197(11) 0.0900(8)
H140_4 H 0.8178 0.1355 0.1206
C151_4 C 0.7954(7) 0.0802(11) 0.0967(8)
H142_4 H 0.7920 0.0690 0.1316
C153_4 C 0.7817(6) 0.0573(10) 0.0503(9)
H144_4 H 0.7626 0.0310 0.0528
C155_4 C 0.7967(6) 0.0739(9) 0.0007(8)
C157_4 C 0.9596(8) 0.0424(11) 0.1059(11)
C159_4 C 0.9190(6) 0.0378(8) 0.1226(10)
C161_4 C 0.9042(6) 0.0618(8) 0.1130(11)
C163_4 C 0.8668(6) 0.0532(9) 0.1172(11)
H148_4 H 0.8589 0.0703 0.1039
C165_4 C 0.8411(7) 0.0194(10) 0.1410(11)
H150_4 H 0.8154 0.0127 0.1488
C169_4 C 0.8911(6) 0.0039(8) 0.1441(10)
N14_4 N 0.8725(6) 0.1359(8) 0.9285(8)
H62_4 H 0.8824 0.1252 0.9491
O26_4 O 0.9451(5) 0.1565(7) 0.9657(7)
H76_4 H 0.9978 0.1877 0.9985
C121_4 C 0.9689(7) 0.2703(10) 0.9319(12)
H118_4 H 0.9485 0.2495 0.9129
C123_4 C 0.9638(6) 0.2995(10) 0.9524(13)
H120_4 H 0.9405 0.2996 0.9462
C125_4 C 0.9934(6) 0.3288(9) 0.9823(13)
H122_2 H 0.9910 0.3499 0.9945
C129_4 C 0.8894(7) 0.1557(10) 0.8819(9)
C131_4 C 0.9315(8) 0.1624(10) 0.8746(7)
C133_4 C 0.9574(7) 0.1619(9) 0.9123(7)
C135_4 C 0.9899(8) 0.1618(9) 0.8953(7)
C139_4 C 0.9775(8) 0.1718(10) 0.8041(7)
H130_4 H 0.9856 0.1786 0.7675
C141_4 C 0.9422(8) 0.1659(10) 0.8203(7)
H132_4 H 0.9245 0.1642 0.7934
C143_4 C 0.8351(8) 0.1345(10) 0.9406(8)
H134_4 H 0.8161 0.1204 0.9117
H136_4 H 0.8390 0.1608 0.9431
C145_4 C 0.8213(6) 0.1137(9) 0.9950(7)
H146_4 H 0.7902 0.0580 0.9695
O19_4 O 0.9902(5) 0.9537(6) 0.2687(9)
N9_4 N 0.8182(9) 0.7311(6) 0.2320(10)
H57_4 H 0.8076 0.7429 0.2156
N11_4 N 0.7183(8) 0.7857(6) 0.0371(9)
H59_4 H 0.7239 0.7730 0.0608
N15_4 N 0.9369(10) 0.9176(7) 0.0701(10)
H63_4 H 0.9277 0.8990 0.0461
N17_4 N 0.8164(8) 0.5904(6) 0.2173(8)
N19_4 N 0.8681(8) 0.6058(6) 0.3695(8)
N21_4 N 0.9237(8) 0.6924(6) 0.2485(8)
N23_4 N 0.9318(9) 0.9791(6) 0.2577(10)
O21_4 O 0.8007(6) 0.7296(4) 0.1157(7)
O23_4 O 0.7899(6) 0.8160(5) 0.0902(7)
O27_4 O 0.9013(6) 0.8338(4) 0.0870(7)
O29_4 O 0.8201(6) 0.6774(4) 0.2474(7)
O34_4 O 0.7968(4) 0.6277(6) 0.3550(7)
O41_4 O 0.9758(6) 0.9463(4) 0.1391(6)
O43_4 O 0.8500(7) 0.6198(5) 0.2104(7)
O45_4 O 0.7948(6) 0.5923(4) 0.2550(6)
O47_4 O 0.8003(9) 0.5660(5) 0.1798(8)
O49_4 O 0.8754(6) 0.6391(4) 0.3837(7)
O51_4 O 0.8528(7) 0.5926(5) 0.3224(7)
O53_4 O 0.8787(9) 0.5864(7) 0.3990(10)
O55_4 O 0.9173(7) 0.6683(5) 0.2870(7)
O57_4 O 0.8974(6) 0.7005(5) 0.2362(7)
O59_4 O 0.9559(9) 0.7090(7) 0.2243(9)
O61_4 O 0.9308(6) 0.9590(4) 0.2165(7)
O66_4 O 0.9000(9) 0.9729(6) 0.2785(10)
C62_4 C 0.8334(8) 0.7923(6) 0.0650(9)
C64_4 C 0.8004(9) 0.7516(6) 0.0622(9)
H65_4 H 0.7757 0.7515 0.0595
H67_4 H 0.8029 0.7385 0.0298
C66_4 C 0.8256(10) 0.8125(7) 0.1102(10)
H69_4 H 0.8194 0.7975 0.1442
H71_4 H 0.8481 0.8382 0.1166
C68_4 C 0.8365(10) 0.8102(7) 0.0069(10)
H73_4 H 0.8577 0.8372 0.0067
C70_4 C 0.8716(10) 0.7949(7) 0.0784(11)
H77_4 H 0.8789 0.7836 0.0483
H79_4 H 0.8685 0.7796 0.1115
C72_4 C 0.8060(10) 0.6937(7) 0.2167(11)
C74_4 C 0.7844(8) 0.6736(6) 0.1649(9)
C76_4 C 0.7782(8) 0.6885(6) 0.1175(8)
C78_4 C 0.7526(9) 0.6676(6) 0.0774(10)
H81_4 H 0.7497 0.6799 0.0463
C80_4 C 0.7318(9) 0.6291(6) 0.0834(10)
H83_4 H 0.7126 0.6146 0.0572
C82_4 C 0.7371(10) 0.6104(7) 0.1251(9)
H85_4 H 0.7266 0.5833 0.1264
C84_4 C 0.7590(9) 0.6348(6) 0.1644(10)
H87_4 H 0.7563 0.6227 0.1986
C86_4 C 0.8437(9) 0.7500(6) 0.2681(12)
H89_4 H 0.8342 0.7382 0.3042
H91_4 H 0.8674 0.7493 0.2599
C88_4 C 0.8525(8) 0.7928(5) 0.2687(11)
C90_4 C 0.8856(9) 0.8222(7) 0.2446(12)
H93_4 H 0.9048 0.8173 0.2307
C92_4 C 0.8902(9) 0.8587(6) 0.2413(11)
H95_4 H 0.9087 0.8771 0.2173
C94_4 C 0.8678(9) 0.8684(6) 0.2728(12)
H97_4 H 0.8728 0.8941 0.2733
C96_4 C 0.8381(9) 0.8406(7) 0.3035(12)
H99_4 H 0.8242 0.8473 0.3281
C98_4 C 0.8290(8) 0.8028(6) 0.2978(11)
H101_4 H 0.8061 0.7831 0.3139
C100_4 C 0.7231(8) 0.8221(6) 0.0441(10)
C102_4 C 0.7516(10) 0.8451(7) 0.0977(10)
C104_4 C 0.7808(9) 0.8413(6) 0.1201(9)
C106_4 C 0.7992(10) 0.8584(7) 0.1673(9)
H103_4 H 0.8188 0.8540 0.1811
C108_4 C 0.7894(10) 0.8819(7) 0.1946(11)
H105_4 H 0.8013 0.8932 0.2282
C110_4 C 0.7627(10) 0.8889(7) 0.1736(9)
H107_4 H 0.7576 0.9076 0.1887
C112_4 C 0.7431(10) 0.8675(7) 0.1290(9)
H109_4 H 0.7209 0.8687 0.1190
H123_3 H 0.6537 0.6986 0.0164
C146_4 C 0.8635(10) 0.6909(8) 0.0401(9)
H137_4 H 0.8363 0.6772 0.0367
C148_4 C 0.8803(11) 0.6944(8) 0.0900(8)
H139_4 H 0.8645 0.6822 0.1206
C150_4 C 0.9198(11) 0.7151(8) 0.0967(8)
H141_4 H 0.9310 0.7229 0.1316
C152_4 C 0.9427(10) 0.7243(8) 0.0503(9)
H143_4 H 0.9690 0.7315 0.0528
C154_4 C 0.9261(9) 0.7227(7) 0.0007(8)
C156_4 C 0.9576(11) 0.9171(8) 0.1059(11)
C158_4 C 0.9622(8) 0.8811(6) 0.1226(10)
C160_4 C 0.9382(8) 0.8423(5) 0.1130(11)
C162_4 C 0.9468(9) 0.8135(7) 0.1172(11)
H147_4 H 0.9297 0.7885 0.1039
C164_4 C 0.9806(10) 0.8216(7) 0.1410(11)
H149_4 H 0.9873 0.8026 0.1488
C167_4 C 0.8552(7) 0.9967(9) 0.1521(12)
H152_4 H 0.8379 0.9726 0.1676
C168_4 C 0.9961(8) 0.8871(6) 0.1441(10)
H154_4 H 0.8973 0.9847 0.1536
C170_4 C 0.9273(11) 0.9454(8) 0.0651(13)
H155_4 H 0.9167 0.9484 0.0999
H157_4 H 0.9503 0.9702 0.0560
C172_4 C 0.8949(11) 0.9330(8) 0.0170(10)
C174_4 C 0.8571(12) 0.9194(8) 0.0334(9)
H159_4 H 0.8511 0.9184 0.0708
H161_4 H 0.8025 0.8937 0.0054
N13_4 N 0.8641(8) 0.7365(5) 0.9285(8)
H61_4 H 0.8748 0.7571 0.9491
O25_4 O 0.8435(7) 0.7885(5) 0.9657(7)
H75_4 H 0.8123 0.8100 0.9985
C114_4 C 0.7017(10) 0.7721(8) 0.9818(10)
H111_4 H 0.6751 0.7674 0.9798
H113_4 H 0.7174 0.7913 0.9538
C116_4 C 0.7025(9) 0.7336(7) 0.9735(12)
C118_4 C 0.7290(9) 0.7323(7) 0.9390(12)
H115_4 H 0.7468 0.7548 0.9199
C120_4 C 0.7297(10) 0.6985(7) 0.9319(12)
H117_4 H 0.7505 0.6989 0.9129
C122_4 C 0.7005(10) 0.6642(8) 0.9524(13)
H119_4 H 0.7004 0.6408 0.9462
C124_4 C 0.6712(9) 0.6645(7) 0.9823(13)
H121_3 H 0.6501 0.6410 0.9945
C126_4 C 0.6729(10) 0.6986(7) 0.9939(11)
C128_4 C 0.8443(10) 0.7336(7) 0.8819(9)
C130_4 C 0.8376(10) 0.7690(6) 0.8746(7)
C132_4 C 0.8381(9) 0.7954(6) 0.9123(7)
C134_4 C 0.8382(9) 0.8280(5) 0.8953(7)
H125_4 H 0.8425 0.8473 0.9210
C136_4 C 0.8321(9) 0.8333(6) 0.8410(7)
H127_4 H 0.8307 0.8552 0.8297
C138_4 C 0.8282(10) 0.8056(6) 0.8041(7)
H129_4 H 0.8214 0.8069 0.7675
C140_4 C 0.8341(10) 0.7762(6) 0.8203(7)
H131_4 H 0.8358 0.7602 0.7934
C142_4 C 0.8655(10) 0.7005(6) 0.9406(8)
H133_4 H 0.8796 0.6956 0.9117
H135_4 H 0.8392 0.6781 0.9431
C144_4 C 0.8863(9) 0.7075(7) 0.9950(7)
H145_4 H 0.9420 0.7321 0.9695
C176_4 C 0.8288(11) 0.9075(8) 0.9948(11)
C178_4 C 0.8382(12) 0.9155(9) 0.9410(10)
H163_4 H 0.8185 0.9059 0.9143
C180_4 C 0.8765(11) 0.9375(8) 0.9253(9)
H165_4 H 0.8831 0.9480 0.8898
C182_4 C 0.9048(11) 0.9439(8) 0.9628(11)
H167_4 H 0.9309 0.9557 0.9517
Er2_7 Er 0.0001 0.0000 0.19717(6)
Er2_8 Er 1.0000 0.9999 0.19717(6)
N17_5 N 0.0762(6) 0.5170(8) 0.0507(8)
N19_5 N 0.0608(6) 0.4653(8) 0.2029(8)
O43_5 O 0.0468(5) 0.4834(7) 0.0438(7)
O45_5 O 0.0743(4) 0.5386(6) 0.0884(6)
O47_5 O 0.1006(5) 0.5331(9) 0.0132(8)
O49_5 O 0.0275(4) 0.4580(6) 0.2171(7)
O51_5 O 0.0740(5) 0.4806(7) 0.1558(7)
O53_5 O 0.0802(7) 0.4547(9) 0.2324(10)
H87_5 H 0.0439 0.5771 0.0320
C80_5 C 0.0375(6) 0.6016(9) 0.9168(10)
H83_5 H 0.0520 0.6208 0.8906
C82_5 C 0.0562(7) 0.5963(10) 0.9585(9)
H85_5 H 0.0833 0.6068 0.9598
C84_5 C 0.0318(6) 0.5744(9) 0.9978(10)
C122_5 C 0.0024(8) 0.6329(10) 0.7858(13)
H119_5 H 0.0258 0.6330 0.7796
C124_5 C 0.0021(7) 0.6622(9) 0.8157(13)
H121_4 H 0.0256 0.6833 0.8279
Er2_9 Er 0.6666 0.3334 0.03051(6)
N1_5 N 0.5796(7) 0.0645(6) 0.0654(10)
H1_5 H 0.6020 0.0763 0.0490
N7_5 N 0.4354(5) 0.0258(6) 0.0819(8)
N8_5 N 0.7140(7) 0.3125(6) 0.0911(10)
O5_5 O 0.5240(5) 0.0108(4) 0.0808(7)
O15_5 O 0.4177(5) 0.0017(5) 0.1204(7)
O16_5 O 0.4698(4) 0.0339(5) 0.0696(7)
O17_5 O 0.4198(6) 0.0424(7) 0.0577(9)
O18_5 O 0.6949(5) 0.2924(4) 0.0499(7)
O19_5 O 0.7129(6) 0.3432(5) 0.1021(9)
O20_5 O 0.7396(7) 0.3063(6) 0.1119(10)
C6_5 C 0.5544(7) 0.0271(7) 0.0501(11)
C13_5 C 0.5730(7) 0.0834(6) 0.1015(12)
H17_5 H 0.5707 0.0716 0.1376
H18_5 H 0.5486 0.0827 0.0933
C14_5 C 0.6070(6) 0.1262(5) 0.1021(11)
C15_5 C 0.6033(6) 0.1556(7) 0.0780(12)
H19_5 H 0.5792 0.1507 0.0641
C16_5 C 0.6352(7) 0.1921(6) 0.0747(11)
H20_5 H 0.6351 0.2105 0.0507
C17_5 C 0.6673(7) 0.2018(6) 0.1062(12)
H21_5 H 0.6880 0.2275 0.1067
C18_5 C 0.6692(6) 0.1740(7) 0.1369(12)
H22_5 H 0.6898 0.1807 0.1615
C19_5 C 0.6405(6) 0.1362(6) 0.1312(11)
H23_5 H 0.6437 0.1165 0.1473
C23_5 C 0.7259(7) 0.1918(7) 0.0007(9)
H24_5 H 0.7019 0.1874 0.0145
C24_5 C 0.7592(7) 0.2153(7) 0.0280(11)
H25_5 H 0.7586 0.2266 0.0616
C25_5 C 0.7929(7) 0.2223(7) 0.0070(9)
H26_5 H 0.8167 0.2410 0.0221
H48_5 H 0.5045 0.1986 0.0010
N9_5 N 0.9355(6) 0.5152(9) 0.0654(10)
N10_5 N 0.4848(9) 0.4204(7) 0.0654(10)
H57_5 H 0.9237 0.5258 0.0490
H58_5 H 0.4742 0.3980 0.0490
N18_5 N 0.4830(8) 0.5593(6) 0.0507(8)
N20_5 N 0.5347(8) 0.5956(5) 0.2029(8)
N21_5 N 0.9742(6) 0.4097(8) 0.0819(8)
N22_5 N 0.5903(8) 0.5646(5) 0.0819(8)
N23_5 N 0.6875(6) 0.4016(9) 0.0911(10)
N24_5 N 0.5984(9) 0.2860(7) 0.0911(10)
O29_5 O 0.9892(4) 0.5133(6) 0.0808(7)
O30_5 O 0.4867(6) 0.4760(5) 0.0808(7)
O38_3 O 0.4988(7) 0.0387(5) 0.1824(7)
O39_3 O 0.9613(5) 0.4602(5) 0.1824(7)
O40_3 O 0.5398(5) 0.5012(7) 0.1824(7)
O44_5 O 0.5166(7) 0.5635(5) 0.0438(7)
O46_5 O 0.4614(6) 0.5358(5) 0.0884(6)
O48_5 O 0.4669(9) 0.5676(8) 0.0132(8)
O50_5 O 0.5420(6) 0.5696(4) 0.2171(7)
O52_5 O 0.5194(7) 0.5935(5) 0.1558(7)
O54_5 O 0.5453(9) 0.6256(6) 0.2324(10)
O55_5 O 0.9983(5) 0.4161(7) 0.1204(7)
O56_5 O 0.5839(7) 0.5823(5) 0.1204(7)
O57_5 O 0.9661(5) 0.4360(6) 0.0696(7)
O58_5 O 0.5640(6) 0.5302(4) 0.0696(7)
O59_5 O 0.9576(7) 0.3775(9) 0.0577(9)
O60_5 O 0.6225(9) 0.5802(6) 0.0577(9)
O61_5 O 0.7076(4) 0.4026(6) 0.0499(7)
O62_5 O 0.5974(6) 0.3051(5) 0.0499(7)
O63_5 O 0.6568(5) 0.3698(8) 0.1021(9)
O64_5 O 0.6302(8) 0.2871(6) 0.1021(9)
O65_5 O 0.5666(9) 0.2604(7) 0.1119(10)
O66_5 O 0.6937(6) 0.4334(9) 0.1119(10)
C72_5 C 0.9729(7) 0.5274(10) 0.0501(11)
C73_5 C 0.4726(10) 0.4456(7) 0.0501(11)
H88_5 H 0.4229 0.4669 0.0320
C86_5 C 0.9166(6) 0.4897(9) 0.1015(12)
C87_5 C 0.5103(9) 0.4270(7) 0.1015(12)
H89_5 H 0.9284 0.4992 0.1376
H90_5 H 0.5008 0.4293 0.1376
H91_5 H 0.9173 0.4660 0.0933
H92_5 H 0.5340 0.4514 0.0933
C88_5 C 0.8738(5) 0.4809(8) 0.1021(11)
C89_5 C 0.5191(8) 0.3930(6) 0.1021(11)
C90_5 C 0.8444(7) 0.4478(9) 0.0780(12)
C91_5 C 0.5522(9) 0.3967(6) 0.0780(12)
H93_5 H 0.8493 0.4286 0.0641
H94_5 H 0.5714 0.4208 0.0641
C92_5 C 0.8079(6) 0.4432(9) 0.0747(11)
C93_5 C 0.5568(9) 0.3648(7) 0.0747(11)
H95_5 H 0.7895 0.4247 0.0507
H96_5 H 0.5753 0.3649 0.0507
C94_5 C 0.7982(6) 0.4656(9) 0.1062(12)
C95_5 C 0.5344(9) 0.3327(7) 0.1062(12)
H97_5 H 0.7725 0.4606 0.1067
H98_5 H 0.5394 0.3120 0.1067
C96_5 C 0.8260(7) 0.4953(9) 0.1369(12)
C97_5 C 0.5047(9) 0.3308(6) 0.1369(12)
H99_5 H 0.8193 0.5092 0.1615
H100_5 H 0.4908 0.3102 0.1615
C98_5 C 0.8638(6) 0.5044(8) 0.1312(11)
C99_5 C 0.4956(8) 0.3595(6) 0.1312(11)
H101_5 H 0.8835 0.5273 0.1473
H102_5 H 0.4727 0.3563 0.1473
C106_5 C 0.8082(7) 0.5342(10) 0.0007(9)
C107_5 C 0.4658(10) 0.2741(7) 0.0007(9)
H103_5 H 0.8126 0.5146 0.0145
H104_5 H 0.4854 0.2981 0.0145
C108_5 C 0.7847(7) 0.5440(10) 0.0280(11)
C109_5 C 0.4560(10) 0.2408(7) 0.0280(11)
H105_5 H 0.7734 0.5321 0.0616
H106_5 H 0.4679 0.2414 0.0616
C110_5 C 0.7777(7) 0.5707(10) 0.0070(9)
C111_5 C 0.4293(10) 0.2071(7) 0.0070(9)
H107_5 H 0.7590 0.5758 0.0221
H108_5 H 0.4242 0.1833 0.0221
H151_5 H 0.8014 0.3060 0.0010
H152_5 H 0.6940 0.4955 0.0010
N2_5 N 0.7341(5) 0.1191(6) 0.8705(9)
H2_5 H 0.7158 0.1064 0.8942
N3_5 N 0.5391(6) 0.0699(5) 0.7619(8)
H3_5 H 0.5490 0.0905 0.7825
N4_5 N 0.6474(7) 0.2510(7) 0.9035(10)
H4_5 H 0.6380 0.2324 0.8795
O1_5 O 0.5956(4) 0.0630(4) 0.9491(7)
O2_5 O 0.6928(4) 0.1494(5) 0.9236(7)
O3_5 O 0.6117(5) 0.1219(5) 0.7991(7)
O4_5 O 0.5992(5) 0.1672(4) 0.9204(7)
O7_3 O 0.5398(5) 0.0387(5) 0.6824(7)
O8_5 O 0.6372(4) 0.2797(4) 0.9725(6)
C1_5 C 0.6256(6) 0.1257(6) 0.8984(9)
C2_5 C 0.6179(7) 0.0850(6) 0.8956(9)
H5_5 H 0.6425 0.0849 0.8929
H6_5 H 0.6023 0.0719 0.8632
C3_5 C 0.6536(7) 0.1459(7) 0.9436(10)
H7_5 H 0.6448 0.1309 0.9776
H8_5 H 0.6568 0.1716 0.9500
C4_5 C 0.6404(7) 0.1436(7) 0.8403(10)
H9_5 H 0.6462 0.1706 0.8401
H10_5 H 0.6644 0.1434 0.8319
C5_5 C 0.5900(7) 0.1283(7) 0.9118(11)
H11_5 H 0.5714 0.1170 0.8817
H12_5 H 0.5778 0.1130 0.9449
C7_5 C 0.5559(6) 0.0070(6) 0.9983(9)
C8_5 C 0.5770(6) 0.0219(6) 0.9509(8)
C9_5 C 0.5817(7) 0.0010(6) 0.9108(10)
H13_5 H 0.5969 0.0133 0.8797
C20_5 C 0.7657(5) 0.1555(6) 0.8775(10)
C21_5 C 0.7602(7) 0.1785(7) 0.9311(10)
C22_5 C 0.7272(7) 0.1747(6) 0.9535(9)
C26_5 C 0.7911(7) 0.2009(7) 0.9624(9)
H27_5 H 0.8145 0.2021 0.9524
C27_5 C 0.7371(6) 0.1055(8) 0.8152(10)
H28_5 H 0.7590 0.1008 0.8132
H29_5 H 0.7406 0.1247 0.7872
C28_5 C 0.6978(5) 0.0670(7) 0.8069(12)
C29_5 C 0.6700(6) 0.0657(7) 0.7724(12)
H30_5 H 0.6747 0.0882 0.7533
C30_5 C 0.6355(7) 0.0319(7) 0.7653(12)
H31_5 H 0.6151 0.0323 0.7463
C33_5 C 0.6924(7) 0.0320(7) 0.8273(11)
H34_5 H 0.7116 0.0320 0.8498
C34_5 C 0.5560(7) 0.0670(7) 0.7153(9)
C35_5 C 0.5981(8) 0.1024(6) 0.7080(7)
C36_5 C 0.6240(7) 0.1288(6) 0.7457(7)
C37_5 C 0.6565(8) 0.1614(5) 0.7287(7)
H35_5 H 0.6715 0.1807 0.7544
C38_5 C 0.6679(7) 0.1667(6) 0.6744(7)
H36_5 H 0.6912 0.1886 0.6631
C39_5 C 0.6441(8) 0.1390(6) 0.6375(7)
H37_5 H 0.6522 0.1403 0.6009
C40_5 C 0.6088(8) 0.1096(6) 0.6537(7)
H38_5 H 0.5911 0.0936 0.6268
C41_5 C 0.5017(8) 0.0339(6) 0.7740(8)
H39_5 H 0.4827 0.0290 0.7451
H40_5 H 0.5056 0.0115 0.7765
C42_5 C 0.4879(6) 0.0409(7) 0.8284(7)
C43_5 C 0.4941(6) 0.0243(8) 0.8735(9)
H41_5 H 0.5076 0.0106 0.8701
C44_5 C 0.4808(7) 0.0278(8) 0.9234(8)
H42_5 H 0.4844 0.0156 0.9540
C45_5 C 0.4620(7) 0.0485(8) 0.9301(8)
H43_5 H 0.4586 0.0563 0.9650
C46_5 C 0.4483(6) 0.0577(8) 0.8837(9)
H44_5 H 0.4292 0.0649 0.8862
C47_5 C 0.4633(6) 0.0561(7) 0.8341(8)
H45_5 H 0.4568 0.0655 0.8029
C48_5 C 0.6262(8) 0.2505(8) 0.9393(11)
C49_5 C 0.5856(6) 0.2145(6) 0.9560(10)
C50_5 C 0.5708(6) 0.1757(5) 0.9464(11)
C51_5 C 0.5334(6) 0.1469(7) 0.9506(11)
H46_5 H 0.5255 0.1219 0.9373
C52_5 C 0.5077(7) 0.1550(7) 0.9744(11)
H47_5 H 0.4820 0.1360 0.9822
C53_5 C 0.5218(7) 0.1918(6) 0.9855(12)
C54_5 C 0.5577(6) 0.2205(6) 0.9775(10)
H49_5 H 0.5639 0.2459 0.9870
C55_5 C 0.6848(8) 0.2788(8) 0.8985(13)
H50_5 H 0.6984 0.2818 0.9333
H51_5 H 0.6866 0.3036 0.8894
C56_5 C 0.7048(8) 0.2664(8) 0.8504(10)
C57_5 C 0.7290(9) 0.2528(8) 0.8668(9)
H52_5 H 0.7340 0.2518 0.9042
C58_5 C 0.7454(8) 0.2409(8) 0.8282(11)
H53_5 H 0.7579 0.2271 0.8388
C59_5 C 0.7440(8) 0.2489(9) 0.7744(10)
H54_5 H 0.7541 0.2393 0.7477
C60_5 C 0.7277(8) 0.2709(8) 0.7587(9)
H55_5 H 0.7316 0.2814 0.7232
C61_5 C 0.7058(8) 0.2773(8) 0.7962(11)
H56_5 H 0.6915 0.2891 0.7851
N11_5 N 0.8809(6) 0.6151(8) 0.8705(9)
N12_5 N 0.3849(8) 0.2659(5) 0.8705(9)
H59_5 H 0.8936 0.6095 0.8942
H60_5 H 0.3905 0.2842 0.8942
N13_5 N 0.9301(5) 0.4693(8) 0.7619(8)
N14_5 N 0.5307(8) 0.4609(6) 0.7619(8)
H61_5 H 0.9095 0.4586 0.7825
H62_5 H 0.5414 0.4510 0.7825
N15_5 N 0.7490(7) 0.3965(10) 0.9035(10)
N16_5 N 0.6035(10) 0.3526(7) 0.9035(10)
H63_5 H 0.7676 0.4057 0.8795
H64_5 H 0.5943 0.3620 0.8795
O21_5 O 0.9370(4) 0.5327(6) 0.9491(7)
O22_5 O 0.4673(6) 0.4044(4) 0.9491(7)
O23_5 O 0.8506(5) 0.5435(6) 0.9236(7)
O24_5 O 0.4565(6) 0.3072(4) 0.9236(7)
O25_5 O 0.8781(5) 0.4899(7) 0.7991(7)
O26_5 O 0.5101(7) 0.3883(5) 0.7991(7)
O27_5 O 0.8328(4) 0.4321(6) 0.9204(7)
O28_5 O 0.5679(6) 0.4008(5) 0.9204(7)
O36_3 O 0.9613(5) 0.5012(7) 0.6824(7)
O37_3 O 0.4988(7) 0.4602(5) 0.6824(7)
O41_5 O 0.7203(4) 0.3576(6) 0.9725(6)
O42_5 O 0.6424(6) 0.3628(4) 0.9725(6)
C62_5 C 0.8743(6) 0.5000(8) 0.8984(9)
C63_5 C 0.5000(8) 0.3744(6) 0.8984(9)
C64_5 C 0.9150(6) 0.5330(9) 0.8956(9)
C65_5 C 0.4670(9) 0.3821(7) 0.8956(9)
H65_5 H 0.9151 0.5577 0.8929
H66_5 H 0.4423 0.3575 0.8929
H67_5 H 0.9281 0.5305 0.8632
H68_5 H 0.4695 0.3977 0.8632
C66_5 C 0.8541(7) 0.5078(10) 0.9436(10)
C67_5 C 0.4922(10) 0.3464(7) 0.9436(10)
H69_5 H 0.8691 0.5140 0.9776
H70_5 H 0.4860 0.3552 0.9776
H71_5 H 0.8284 0.4853 0.9500
H72_5 H 0.5147 0.3432 0.9500
C68_5 C 0.8564(7) 0.4969(10) 0.8403(10)
C69_5 C 0.5031(10) 0.3596(7) 0.8403(10)
H73_5 H 0.8294 0.4757 0.8401
H74_5 H 0.5243 0.3538 0.8401
H75_5 H 0.8566 0.5211 0.8319
H76_5 H 0.4789 0.3356 0.8319
C70_5 C 0.8717(7) 0.4618(10) 0.9118(11)
C71_5 C 0.5382(10) 0.4100(7) 0.9118(11)
H77_5 H 0.8830 0.4545 0.8817
H78_5 H 0.5455 0.4286 0.8817
H79_5 H 0.8870 0.4649 0.9449
H80_5 H 0.5351 0.4222 0.9449
C74_5 C 0.9930(6) 0.5490(8) 0.9983(9)
C75_5 C 0.4510(8) 0.4441(6) 0.9983(9)
C76_5 C 0.9781(6) 0.5552(8) 0.9509(8)
C77_5 C 0.4448(8) 0.4230(6) 0.9509(8)
C78_5 C 0.9990(6) 0.5808(9) 0.9108(10)
C79_5 C 0.4192(9) 0.4183(7) 0.9108(10)
H81_5 H 0.9867 0.5837 0.8797
H82_5 H 0.4163 0.4031 0.8797
C81_5 C 0.3984(9) 0.4360(7) 0.9168(10)
H84_5 H 0.3792 0.4313 0.8906
C83_5 C 0.4037(10) 0.4600(7) 0.9585(9)
H86_5 H 0.3932 0.4766 0.9598
C85_5 C 0.4256(9) 0.4575(7) 0.9978(10)
C100_5 C 0.8445(6) 0.6103(8) 0.8775(10)
C101_5 C 0.3897(8) 0.2343(5) 0.8775(10)
C102_5 C 0.8215(7) 0.5818(10) 0.9311(10)
C103_5 C 0.4182(10) 0.2398(7) 0.9311(10)
C104_5 C 0.8253(6) 0.5526(9) 0.9535(9)
C105_5 C 0.4474(9) 0.2728(7) 0.9535(9)
C112_5 C 0.7991(7) 0.5903(10) 0.9624(9)
C113_5 C 0.4097(10) 0.2089(7) 0.9624(9)
H109_5 H 0.7979 0.6125 0.9524
H110_5 H 0.3875 0.1855 0.9524
C114_5 C 0.8945(8) 0.6317(10) 0.8152(10)
C115_5 C 0.3683(10) 0.2629(6) 0.8152(10)
H111_5 H 0.8992 0.6583 0.8132
H112_5 H 0.3417 0.2410 0.8132
H113_5 H 0.8753 0.6160 0.7872
H114_5 H 0.3840 0.2594 0.7872
C116_5 C 0.9330(7) 0.6309(9) 0.8069(12)
C117_5 C 0.3691(9) 0.3022(5) 0.8069(12)
C118_5 C 0.9343(7) 0.6044(9) 0.7724(12)
C119_5 C 0.3956(9) 0.3300(6) 0.7724(12)
H115_5 H 0.9118 0.5866 0.7533
H116_5 H 0.4134 0.3253 0.7533
C120_5 C 0.9681(7) 0.6037(10) 0.7653(12)
C121_5 C 0.3963(10) 0.3645(7) 0.7653(12)
H117_5 H 0.9677 0.5829 0.7463
H118_5 H 0.4171 0.3849 0.7463
C123_5 C 0.3671(10) 0.3696(6) 0.7858(13)
H120_5 H 0.3670 0.3929 0.7796
C125_5 C 0.3378(9) 0.3400(6) 0.8157(13)
H122_3 H 0.3167 0.3424 0.8279
C126_5 C 0.9680(7) 0.6605(10) 0.8273(11)
C127_5 C 0.3395(10) 0.3076(7) 0.8273(11)
H123_4 H 0.9680 0.6797 0.8498
H124_3 H 0.3203 0.2884 0.8498
C128_5 C 0.9330(7) 0.4891(10) 0.7153(9)
C129_5 C 0.5109(10) 0.4440(7) 0.7153(9)
C130_5 C 0.8976(6) 0.4958(10) 0.7080(7)
C131_5 C 0.5042(10) 0.4019(8) 0.7080(7)
C132_5 C 0.8712(6) 0.4953(9) 0.7457(7)
C133_5 C 0.5047(9) 0.3760(7) 0.7457(7)
C134_5 C 0.8386(5) 0.4952(9) 0.7287(7)
C135_5 C 0.5048(9) 0.3435(8) 0.7287(7)
H125_5 H 0.8193 0.4909 0.7544
H126_5 H 0.5091 0.3285 0.7544
C136_5 C 0.8333(6) 0.5013(9) 0.6744(7)
C137_5 C 0.4987(9) 0.3321(7) 0.6744(7)
H127_5 H 0.8114 0.5027 0.6631
H128_5 H 0.4973 0.3088 0.6631
C138_5 C 0.8610(6) 0.5052(10) 0.6375(7)
C139_5 C 0.4948(10) 0.3559(8) 0.6375(7)
H129_5 H 0.8597 0.5120 0.6009
H130_5 H 0.4880 0.3478 0.6009
C140_5 C 0.8904(6) 0.4993(10) 0.6537(7)
C141_5 C 0.5007(10) 0.3912(8) 0.6537(7)
H131_5 H 0.9064 0.4976 0.6268
H132_5 H 0.5024 0.4089 0.6268
C142_5 C 0.9661(6) 0.4679(10) 0.7740(8)
C143_5 C 0.5321(10) 0.4983(8) 0.7740(8)
H133_5 H 0.9710 0.4538 0.7451
H134_5 H 0.5462 0.5173 0.7451
H135_5 H 0.9885 0.4942 0.7765
H136_5 H 0.5058 0.4944 0.7765
C144_5 C 0.9591(7) 0.4471(9) 0.8284(7)
C145_5 C 0.5529(9) 0.5121(6) 0.8284(7)
C146_5 C 0.9757(8) 0.4699(10) 0.8735(9)
C147_5 C 0.5301(10) 0.5059(6) 0.8735(9)
H137_5 H 0.9894 0.4971 0.8701
H138_5 H 0.5029 0.4924 0.8701
C148_5 C 0.9722(8) 0.4531(11) 0.9234(8)
C149_5 C 0.5469(11) 0.5192(7) 0.9234(8)
H139_5 H 0.9844 0.4689 0.9540
H140_5 H 0.5311 0.5156 0.9540
C150_5 C 0.9515(8) 0.4136(11) 0.9301(8)
C151_5 C 0.5864(11) 0.5380(7) 0.9301(8)
H141_5 H 0.9437 0.4024 0.9650
H142_5 H 0.5976 0.5414 0.9650
C152_5 C 0.9423(8) 0.3907(10) 0.8837(9)
C153_5 C 0.6093(10) 0.5517(6) 0.8837(9)
H143_5 H 0.9351 0.3644 0.8862
H144_5 H 0.6356 0.5708 0.8862
C154_5 C 0.9439(7) 0.4073(9) 0.8341(8)
C155_5 C 0.5927(9) 0.5367(6) 0.8341(8)
H145_5 H 0.9345 0.3914 0.8029
H146_5 H 0.6086 0.5432 0.8029
C156_5 C 0.7495(8) 0.3758(11) 0.9393(11)
C157_5 C 0.6242(11) 0.3738(8) 0.9393(11)
C158_5 C 0.7855(6) 0.3712(8) 0.9560(10)
C159_5 C 0.6288(8) 0.4144(6) 0.9560(10)
C160_5 C 0.8243(5) 0.3952(8) 0.9464(11)
C161_5 C 0.6048(8) 0.4292(6) 0.9464(11)
C162_5 C 0.8531(7) 0.3866(9) 0.9506(11)
C163_5 C 0.6134(9) 0.4666(6) 0.9506(11)
H147_5 H 0.8781 0.4037 0.9373
H148_5 H 0.5963 0.4745 0.9373
C164_5 C 0.8450(7) 0.3528(10) 0.9744(11)
C165_5 C 0.6472(10) 0.4923(7) 0.9744(11)
H149_5 H 0.8640 0.3461 0.9822
H150_5 H 0.6539 0.5180 0.9822
C166_5 C 0.8082(6) 0.3301(9) 0.9855(12)
C167_5 C 0.6699(9) 0.4782(7) 0.9855(12)
C168_5 C 0.7795(6) 0.3373(8) 0.9775(10)
C169_5 C 0.6627(8) 0.4423(6) 0.9775(10)
H153_5 H 0.7541 0.3181 0.9870
H154_5 H 0.6819 0.4361 0.9870
C170_5 C 0.7212(8) 0.4061(11) 0.8985(13)
C171_5 C 0.5939(11) 0.3152(8) 0.8985(13)
H155_5 H 0.7182 0.4167 0.9333
H156_5 H 0.5833 0.3016 0.9333
H157_5 H 0.6964 0.3831 0.8894
H158_5 H 0.6169 0.3134 0.8894
C172_5 C 0.7336(8) 0.4385(11) 0.8504(10)
C173_5 C 0.5615(11) 0.2952(8) 0.8504(10)
C174_5 C 0.7472(8) 0.4763(12) 0.8668(9)
C175_5 C 0.5237(12) 0.2710(9) 0.8668(9)
H159_5 H 0.7482 0.4823 0.9042
H160_5 H 0.5177 0.2660 0.9042
C176_5 C 0.7591(8) 0.5046(11) 0.8282(11)
C177_5 C 0.4954(11) 0.2546(8) 0.8282(11)
H161_5 H 0.7729 0.5309 0.8388
H162_5 H 0.4691 0.2421 0.8388
C178_5 C 0.7511(9) 0.4952(12) 0.7744(10)
C179_5 C 0.5048(12) 0.2560(8) 0.7744(10)
H163_5 H 0.7607 0.5149 0.7477
H164_5 H 0.4851 0.2459 0.7477
C180_5 C 0.7291(8) 0.4569(11) 0.7587(9)
C181_5 C 0.5431(11) 0.2723(8) 0.7587(9)
H165_5 H 0.7186 0.4503 0.7232
H166_5 H 0.5497 0.2684 0.7232
C182_5 C 0.7227(8) 0.4286(11) 0.7962(11)
C183_5 C 0.5714(11) 0.2942(8) 0.7962(11)
H167_5 H 0.7109 0.4025 0.7851
H168_5 H 0.5975 0.3085 0.7851
N5_5 N 0.4407(6) 0.9238(6) 0.0507(8)
N6_5 N 0.4044(5) 0.9392(6) 0.2029(8)
O9_5 O 0.4365(5) 0.9532(5) 0.0438(7)
O10_5 O 0.4642(5) 0.9257(4) 0.0884(6)
O11_5 O 0.4324(8) 0.8994(5) 0.0132(8)
O12_5 O 0.4304(4) 0.9725(4) 0.2171(7)
O13_5 O 0.4065(5) 0.9260(5) 0.1558(7)
O14_5 O 0.3744(6) 0.9198(7) 0.2324(10)
H16_5 H 0.5331 0.9561 0.0320
C10_5 C 0.5640(7) 0.9625(6) 0.9168(10)
H14_5 H 0.5687 0.9480 0.8906
C11_5 C 0.5400(7) 0.9438(7) 0.9585(9)
H15_5 H 0.5234 0.9167 0.9598
C12_5 C 0.5425(7) 0.9682(6) 0.9978(10)
C31_5 C 0.6304(6) 0.9976(8) 0.7858(13)
H32_5 H 0.6071 0.9742 0.7796
C32_5 C 0.6600(6) 0.9979(7) 0.8157(13)
H33_5 H 0.6576 0.9744 0.8279
N5_6 N 0.0762(6) 0.5593(6) 0.5507(8)
N6_6 N 0.0608(6) 0.5956(5) 0.7029(8)
O9_6 O 0.0468(5) 0.5635(5) 0.5438(7)
O10_6 O 0.0743(4) 0.5358(5) 0.5884(6)
O11_6 O 0.1006(5) 0.5676(8) 0.5132(8)
O12_6 O 0.0275(4) 0.5696(4) 0.7171(7)
O13_6 O 0.0740(5) 0.5935(5) 0.6558(7)
O14_6 O 0.0802(7) 0.6256(6) 0.7324(10)
C10_6 C 0.0375(6) 0.4360(7) 0.4168(10)
H14_6 H 0.0520 0.4313 0.3906
C11_6 C 0.0562(7) 0.4600(7) 0.4585(9)
H15_6 H 0.0833 0.4766 0.4598
C12_6 C 0.0318(6) 0.4575(7) 0.4978(10)
H16_6 H 0.0439 0.4669 0.5320
C31_6 C 0.0024(8) 0.3696(6) 0.2858(13)
H32_6 H 0.0258 0.3929 0.2796
C32_6 C 0.0021(7) 0.3400(6) 0.3157(13)
H33_6 H 0.0256 0.3424 0.3279
Er2_10 Er 0.6666 0.3334 0.53051(6)
N1_6 N 0.9355(6) 0.4204(7) 0.5654(10)
H1_6 H 0.9237 0.3980 0.5490
N2_6 N 0.8809(6) 0.2659(5) 0.3705(9)
H2_6 H 0.8936 0.2842 0.3942
N3_6 N 0.9301(5) 0.4609(6) 0.2619(8)
H3_6 H 0.9095 0.4510 0.2825
N4_6 N 0.7490(7) 0.3526(7) 0.4035(10)
H4_6 H 0.7676 0.3620 0.3795
N7_6 N 0.9742(6) 0.5646(5) 0.5819(8)
N8_6 N 0.6875(6) 0.2860(7) 0.5911(10)
O1_6 O 0.9370(4) 0.4044(4) 0.4491(7)
O2_6 O 0.8506(5) 0.3072(4) 0.4236(7)
O3_6 O 0.8781(5) 0.3883(5) 0.2991(7)
O4_6 O 0.8328(4) 0.4008(5) 0.4204(7)
O5_6 O 0.9892(4) 0.4760(5) 0.5808(7)
O8_6 O 0.7203(4) 0.3628(4) 0.4725(6)
O15_6 O 0.9983(5) 0.5823(5) 0.6204(7)
O16_6 O 0.9661(5) 0.5302(4) 0.5696(7)
O17_6 O 0.9576(7) 0.5802(6) 0.5577(9)
O18_6 O 0.7076(4) 0.3051(5) 0.5499(7)
O19_6 O 0.6568(5) 0.2871(6) 0.6021(9)
O20_6 O 0.6937(6) 0.2604(7) 0.6119(10)
C1_6 C 0.8743(6) 0.3744(6) 0.3984(9)
C2_6 C 0.9150(6) 0.3821(7) 0.3956(9)
H5_6 H 0.9151 0.3575 0.3929
H6_6 H 0.9281 0.3977 0.3632
C3_6 C 0.8541(7) 0.3464(7) 0.4436(10)
H7_6 H 0.8691 0.3552 0.4776
H8_6 H 0.8284 0.3432 0.4500
C4_6 C 0.8564(7) 0.3596(7) 0.3403(10)
H9_6 H 0.8294 0.3538 0.3401
H10_6 H 0.8566 0.3356 0.3319
C5_6 C 0.8717(7) 0.4100(7) 0.4118(11)
H11_6 H 0.8830 0.4286 0.3817
H12_6 H 0.8870 0.4222 0.4449
C6_6 C 0.9729(7) 0.4456(7) 0.5501(11)
C7_6 C 0.9930(6) 0.4441(6) 0.4983(9)
C8_6 C 0.9781(6) 0.4230(6) 0.4509(8)
C9_6 C 0.9990(6) 0.4183(7) 0.4108(10)
H13_6 H 0.9867 0.4031 0.3797
C13_6 C 0.9166(6) 0.4270(7) 0.6015(12)
H17_6 H 0.9284 0.4293 0.6376
H18_6 H 0.9173 0.4514 0.5933
C14_6 C 0.8738(5) 0.3930(6) 0.6021(11)
C15_6 C 0.8444(7) 0.3967(6) 0.5780(12)
H19_6 H 0.8493 0.4208 0.5641
C16_6 C 0.8079(6) 0.3648(7) 0.5747(11)
H20_6 H 0.7895 0.3649 0.5507
C17_6 C 0.7982(6) 0.3327(7) 0.6062(12)
H21_6 H 0.7725 0.3120 0.6067
C18_6 C 0.8260(7) 0.3308(6) 0.6369(12)
H22_6 H 0.8193 0.3102 0.6615
C19_6 C 0.8638(6) 0.3595(6) 0.6312(11)
H23_6 H 0.8835 0.3563 0.6473
C20_6 C 0.8445(6) 0.2343(5) 0.3775(10)
C21_6 C 0.8215(7) 0.2398(7) 0.4311(10)
C22_6 C 0.8253(6) 0.2728(7) 0.4535(9)
C23_6 C 0.8082(7) 0.2741(7) 0.5007(9)
H24_6 H 0.8126 0.2981 0.5145
C24_6 C 0.7847(7) 0.2408(7) 0.5280(11)
H25_6 H 0.7734 0.2414 0.5616
C25_6 C 0.7777(7) 0.2071(7) 0.5070(9)
H26_6 H 0.7590 0.1833 0.5221
C26_6 C 0.7991(7) 0.2089(7) 0.4624(9)
H27_6 H 0.7979 0.1855 0.4524
C27_6 C 0.8945(8) 0.2629(6) 0.3152(10)
H28_6 H 0.8992 0.2410 0.3132
H29_6 H 0.8753 0.2594 0.2872
C28_6 C 0.9330(7) 0.3022(5) 0.3069(12)
C29_6 C 0.9343(7) 0.3300(6) 0.2724(12)
H30_6 H 0.9118 0.3253 0.2533
C30_6 C 0.9681(7) 0.3645(7) 0.2653(12)
H31_6 H 0.9677 0.3849 0.2463
C33_6 C 0.9680(7) 0.3076(7) 0.3273(11)
H34_6 H 0.9680 0.2884 0.3498
C34_6 C 0.9330(7) 0.4440(7) 0.2153(9)
C35_6 C 0.8976(6) 0.4019(8) 0.2080(7)
C36_6 C 0.8712(6) 0.3760(7) 0.2457(7)
C37_6 C 0.8386(5) 0.3435(8) 0.2287(7)
H35_6 H 0.8193 0.3285 0.2544
C38_6 C 0.8333(6) 0.3321(7) 0.1744(7)
H36_6 H 0.8114 0.3088 0.1631
C39_6 C 0.8610(6) 0.3559(8) 0.1375(7)
H37_6 H 0.8597 0.3478 0.1009
C40_6 C 0.8904(6) 0.3912(8) 0.1537(7)
H38_6 H 0.9064 0.4089 0.1268
C41_6 C 0.9661(6) 0.4983(8) 0.2740(8)
H39_6 H 0.9710 0.5173 0.2451
H40_6 H 0.9885 0.4944 0.2765
C42_6 C 0.9591(7) 0.5121(6) 0.3284(7)
C43_6 C 0.9757(8) 0.5059(6) 0.3735(9)
H41_6 H 0.9894 0.4924 0.3701
C44_6 C 0.9722(8) 0.5192(7) 0.4234(8)
H42_6 H 0.9844 0.5156 0.4540
C45_6 C 0.9515(8) 0.5380(7) 0.4301(8)
H43_6 H 0.9437 0.5414 0.4650
C46_6 C 0.9423(8) 0.5517(6) 0.3837(9)
H44_6 H 0.9351 0.5708 0.3862
C47_6 C 0.9439(7) 0.5367(6) 0.3341(8)
H45_6 H 0.9345 0.5432 0.3029
C48_6 C 0.7495(8) 0.3738(8) 0.4393(11)
C49_6 C 0.7855(6) 0.4144(6) 0.4560(10)
C50_6 C 0.8243(5) 0.4292(6) 0.4464(11)
C51_6 C 0.8531(7) 0.4666(6) 0.4506(11)
H46_6 H 0.8781 0.4745 0.4373
C52_6 C 0.8450(7) 0.4923(7) 0.4744(11)
H47_6 H 0.8640 0.5180 0.4822
C53_6 C 0.8082(6) 0.4782(7) 0.4855(12)
H48_6 H 0.8014 0.4955 0.5010
C54_6 C 0.7795(6) 0.4423(6) 0.4775(10)
H49_6 H 0.7541 0.4361 0.4870
C55_6 C 0.7212(8) 0.3152(8) 0.3985(13)
H50_6 H 0.7182 0.3016 0.4333
H51_6 H 0.6964 0.3134 0.3894
C56_6 C 0.7336(8) 0.2952(8) 0.3504(10)
C57_6 C 0.7472(8) 0.2710(9) 0.3668(9)
H52_6 H 0.7482 0.2660 0.4042
C58_6 C 0.7591(8) 0.2546(8) 0.3282(11)
H53_6 H 0.7729 0.2421 0.3388
C59_6 C 0.7511(9) 0.2560(8) 0.2744(10)
H54_6 H 0.7607 0.2459 0.2477
C60_6 C 0.7291(8) 0.2723(8) 0.2587(9)
H55_6 H 0.7186 0.2684 0.2232
C61_6 C 0.7227(8) 0.2942(8) 0.2962(11)
H56_6 H 0.7109 0.3085 0.2851
N9_6 N 0.4848(9) 0.0645(6) 0.5654(10)
N10_6 N 0.5796(7) 0.5152(9) 0.5654(10)
H57_6 H 0.4742 0.0763 0.5490
H58_6 H 0.6020 0.5258 0.5490
N11_6 N 0.3849(8) 0.1191(6) 0.3705(9)
N12_6 N 0.7341(5) 0.6151(8) 0.3705(9)
H59_6 H 0.3905 0.1064 0.3942
H60_6 H 0.7158 0.6095 0.3942
N13_6 N 0.5307(8) 0.0699(5) 0.2619(8)
N14_6 N 0.5391(6) 0.4693(8) 0.2619(8)
H61_6 H 0.5414 0.0905 0.2825
H62_6 H 0.5490 0.4586 0.2825
N15_6 N 0.6035(10) 0.2510(7) 0.4035(10)
N16_6 N 0.6474(7) 0.3965(10) 0.4035(10)
H63_6 H 0.5943 0.2324 0.3795
H64_6 H 0.6380 0.4057 0.3795
N18_6 N 0.4407(6) 0.5170(8) 0.5507(8)
N20_6 N 0.4044(5) 0.4653(8) 0.7029(8)
N21_6 N 0.5903(8) 0.0258(6) 0.5819(8)
N22_6 N 0.4354(5) 0.4097(8) 0.5819(8)
N23_6 N 0.5984(9) 0.3125(6) 0.5911(10)
N24_6 N 0.7140(7) 0.4016(9) 0.5911(10)
O21_6 O 0.4673(6) 0.0630(4) 0.4491(7)
O22_6 O 0.5956(4) 0.5327(6) 0.4491(7)
O23_6 O 0.4565(6) 0.1494(5) 0.4236(7)
O24_6 O 0.6928(4) 0.5435(6) 0.4236(7)
O25_6 O 0.5101(7) 0.1219(5) 0.2991(7)
O26_6 O 0.6117(5) 0.4899(7) 0.2991(7)
O27_6 O 0.5679(6) 0.1672(4) 0.4204(7)
O28_6 O 0.5992(5) 0.4321(6) 0.4204(7)
O29_6 O 0.4867(6) 0.0108(4) 0.5808(7)
O30_6 O 0.5240(5) 0.5133(6) 0.5808(7)
O41_6 O 0.6424(6) 0.2797(4) 0.4725(6)
O42_6 O 0.6372(4) 0.3576(6) 0.4725(6)
O44_6 O 0.4365(5) 0.4834(7) 0.5438(7)
O46_6 O 0.4642(5) 0.5386(6) 0.5884(6)
O48_6 O 0.4324(8) 0.5331(9) 0.5132(8)
O50_6 O 0.4304(4) 0.4580(6) 0.7171(7)
O52_6 O 0.4065(5) 0.4806(7) 0.6558(7)
O54_6 O 0.3744(6) 0.4547(9) 0.7324(10)
O55_6 O 0.5839(7) 0.0017(5) 0.6204(7)
O56_6 O 0.4177(5) 0.4161(7) 0.6204(7)
O57_6 O 0.5640(6) 0.0339(5) 0.5696(7)
O58_6 O 0.4698(4) 0.4360(6) 0.5696(7)
O59_6 O 0.6225(9) 0.0424(7) 0.5577(9)
O60_6 O 0.4198(6) 0.3775(9) 0.5577(9)
O61_6 O 0.5974(6) 0.2924(4) 0.5499(7)
O62_6 O 0.6949(5) 0.4026(6) 0.5499(7)
O63_6 O 0.6302(8) 0.3432(5) 0.6021(9)
O64_6 O 0.7129(6) 0.3698(8) 0.6021(9)
O65_6 O 0.7396(7) 0.4334(9) 0.6119(10)
O66_6 O 0.5666(9) 0.3063(6) 0.6119(10)
C62_6 C 0.5000(8) 0.1257(6) 0.3984(9)
C63_6 C 0.6256(6) 0.5000(8) 0.3984(9)
C64_6 C 0.4670(9) 0.0850(6) 0.3956(9)
C65_6 C 0.6179(7) 0.5330(9) 0.3956(9)
H65_6 H 0.4423 0.0849 0.3929
H66_6 H 0.6425 0.5577 0.3929
H67_6 H 0.4695 0.0719 0.3632
H68_6 H 0.6023 0.5305 0.3632
C66_6 C 0.4922(10) 0.1459(7) 0.4436(10)
C67_6 C 0.6536(7) 0.5078(10) 0.4436(10)
H69_6 H 0.4860 0.1309 0.4776
H70_6 H 0.6448 0.5140 0.4776
H71_6 H 0.5147 0.1716 0.4500
H72_6 H 0.6568 0.4853 0.4500
C68_6 C 0.5031(10) 0.1436(7) 0.3403(10)
C69_6 C 0.6404(7) 0.4969(10) 0.3403(10)
H73_6 H 0.5243 0.1706 0.3401
H74_6 H 0.6462 0.4757 0.3401
H75_6 H 0.4789 0.1434 0.3319
H76_6 H 0.6644 0.5211 0.3319
C70_6 C 0.5382(10) 0.1283(7) 0.4118(11)
C71_6 C 0.5900(7) 0.4618(10) 0.4118(11)
H77_6 H 0.5455 0.1170 0.3817
H78_6 H 0.5714 0.4545 0.3817
H79_6 H 0.5351 0.1130 0.4449
H80_6 H 0.5778 0.4649 0.4449
C72_6 C 0.4726(10) 0.0271(7) 0.5501(11)
C73_6 C 0.5544(7) 0.5274(10) 0.5501(11)
C74_6 C 0.4510(8) 0.0070(6) 0.4983(9)
C75_6 C 0.5559(6) 0.5490(8) 0.4983(9)
C76_6 C 0.4448(8) 0.0219(6) 0.4509(8)
C77_6 C 0.5770(6) 0.5552(8) 0.4509(8)
C78_6 C 0.4192(9) 0.0010(6) 0.4108(10)
C79_6 C 0.5817(7) 0.5808(9) 0.4108(10)
H81_6 H 0.4163 0.0133 0.3797
H82_6 H 0.5969 0.5837 0.3797
C81_6 C 0.5640(7) 0.6016(9) 0.4168(10)
H84_6 H 0.5687 0.6208 0.3906
C83_6 C 0.5400(7) 0.5963(10) 0.4585(9)
H86_6 H 0.5234 0.6068 0.4598
C85_6 C 0.5425(7) 0.5744(9) 0.4978(10)
H88_6 H 0.5331 0.5771 0.5320
C86_6 C 0.5103(9) 0.0834(6) 0.6015(12)
C87_6 C 0.5730(7) 0.4897(9) 0.6015(12)
H89_6 H 0.5008 0.0716 0.6376
H90_6 H 0.5707 0.4992 0.6376
H91_6 H 0.5340 0.0827 0.5933
H92_6 H 0.5486 0.4660 0.5933
C88_6 C 0.5191(8) 0.1262(5) 0.6021(11)
C89_6 C 0.6070(6) 0.4809(8) 0.6021(11)
C90_6 C 0.5522(9) 0.1556(7) 0.5780(12)
C91_6 C 0.6033(6) 0.4478(9) 0.5780(12)
H93_6 H 0.5714 0.1507 0.5641
H94_6 H 0.5792 0.4286 0.5641
C92_6 C 0.5568(9) 0.1921(6) 0.5747(11)
C93_6 C 0.6352(7) 0.4432(9) 0.5747(11)
H95_6 H 0.5753 0.2105 0.5507
H96_6 H 0.6351 0.4247 0.5507
C94_6 C 0.5344(9) 0.2018(6) 0.6062(12)
C95_6 C 0.6673(7) 0.4656(9) 0.6062(12)
H97_6 H 0.5394 0.2275 0.6067
H98_6 H 0.6880 0.4606 0.6067
C96_6 C 0.5047(9) 0.1740(7) 0.6369(12)
C97_6 C 0.6692(6) 0.4953(9) 0.6369(12)
H99_6 H 0.4908 0.1807 0.6615
H100_6 H 0.6898 0.5092 0.6615
C98_6 C 0.4956(8) 0.1362(6) 0.6312(11)
C99_6 C 0.6405(6) 0.5044(8) 0.6312(11)
H101_6 H 0.4727 0.1165 0.6473
H102_6 H 0.6437 0.5273 0.6473
C100_6 C 0.3897(8) 0.1555(6) 0.3775(10)
C101_6 C 0.7657(5) 0.6103(8) 0.3775(10)
C102_6 C 0.4182(10) 0.1785(7) 0.4311(10)
C103_6 C 0.7602(7) 0.5818(10) 0.4311(10)
C104_6 C 0.4474(9) 0.1747(6) 0.4535(9)
C105_6 C 0.7272(7) 0.5526(9) 0.4535(9)
C106_6 C 0.4658(10) 0.1918(7) 0.5007(9)
C107_6 C 0.7259(7) 0.5342(10) 0.5007(9)
H103_6 H 0.4854 0.1874 0.5145
H104_6 H 0.7019 0.5146 0.5145
C108_6 C 0.4560(10) 0.2153(7) 0.5280(11)
C109_6 C 0.7592(7) 0.5440(10) 0.5280(11)
H105_6 H 0.4679 0.2266 0.5616
H106_6 H 0.7586 0.5321 0.5616
C110_6 C 0.4293(10) 0.2223(7) 0.5070(9)
C111_6 C 0.7929(7) 0.5707(10) 0.5070(9)
H107_6 H 0.4242 0.2410 0.5221
H108_6 H 0.8167 0.5758 0.5221
C112_6 C 0.4097(10) 0.2009(7) 0.4624(9)
C113_6 C 0.7911(7) 0.5903(10) 0.4624(9)
H109_6 H 0.3875 0.2021 0.4524
H110_6 H 0.8145 0.6125 0.4524
C114_6 C 0.3683(10) 0.1055(8) 0.3152(10)
C115_6 C 0.7371(6) 0.6317(10) 0.3152(10)
H111_6 H 0.3417 0.1008 0.3132
H112_6 H 0.7590 0.6583 0.3132
H113_6 H 0.3840 0.1247 0.2872
H114_6 H 0.7406 0.6160 0.2872
C116_6 C 0.3691(9) 0.0670(7) 0.3069(12)
C117_6 C 0.6978(5) 0.6309(9) 0.3069(12)
C118_6 C 0.3956(9) 0.0657(7) 0.2724(12)
C119_6 C 0.6700(6) 0.6044(9) 0.2724(12)
H115_6 H 0.4134 0.0882 0.2533
H116_6 H 0.6747 0.5866 0.2533
C120_6 C 0.3963(10) 0.0319(7) 0.2653(12)
C121_6 C 0.6355(7) 0.6037(10) 0.2653(12)
H117_6 H 0.4171 0.0323 0.2463
H118_6 H 0.6151 0.5829 0.2463
C123_6 C 0.6304(6) 0.6329(10) 0.2858(13)
H120_6 H 0.6071 0.6330 0.2796
C125_6 C 0.6600(6) 0.6622(9) 0.3157(13)
H122_4 H 0.6576 0.6833 0.3279
C126_6 C 0.3395(10) 0.0320(7) 0.3273(11)
C127_6 C 0.6924(7) 0.6605(10) 0.3273(11)
H123_5 H 0.3203 0.0320 0.3498
H124_4 H 0.7116 0.6797 0.3498
C128_6 C 0.5109(10) 0.0670(7) 0.2153(9)
C129_6 C 0.5560(7) 0.4891(10) 0.2153(9)
C130_6 C 0.5042(10) 0.1024(6) 0.2080(7)
C131_6 C 0.5981(8) 0.4958(10) 0.2080(7)
C132_6 C 0.5047(9) 0.1288(6) 0.2457(7)
C133_6 C 0.6240(7) 0.4953(9) 0.2457(7)
C134_6 C 0.5048(9) 0.1614(5) 0.2287(7)
C135_6 C 0.6565(8) 0.4952(9) 0.2287(7)
H125_6 H 0.5091 0.1807 0.2544
H126_6 H 0.6715 0.4909 0.2544
C136_6 C 0.4987(9) 0.1667(6) 0.1744(7)
C137_6 C 0.6679(7) 0.5013(9) 0.1744(7)
H127_6 H 0.4973 0.1886 0.1631
H128_6 H 0.6912 0.5027 0.1631
C138_6 C 0.4948(10) 0.1390(6) 0.1375(7)
C139_6 C 0.6441(8) 0.5052(10) 0.1375(7)
H129_6 H 0.4880 0.1403 0.1009
H130_6 H 0.6522 0.5120 0.1009
C140_6 C 0.5007(10) 0.1096(6) 0.1537(7)
C141_6 C 0.6088(8) 0.4993(10) 0.1537(7)
H131_6 H 0.5024 0.0936 0.1268
H132_6 H 0.5911 0.4976 0.1268
C142_6 C 0.5321(10) 0.0339(6) 0.2740(8)
C143_6 C 0.5017(8) 0.4679(10) 0.2740(8)
H133_6 H 0.5462 0.0290 0.2451
H134_6 H 0.4827 0.4538 0.2451
H135_6 H 0.5058 0.0115 0.2765
H136_6 H 0.5056 0.4942 0.2765
C144_6 C 0.5529(9) 0.0409(7) 0.3284(7)
C145_6 C 0.4879(6) 0.4471(9) 0.3284(7)
C146_6 C 0.5301(10) 0.0243(8) 0.3735(9)
C147_6 C 0.4941(6) 0.4699(10) 0.3735(9)
H137_6 H 0.5029 0.0106 0.3701
H138_6 H 0.5076 0.4971 0.3701
C148_6 C 0.5469(11) 0.0278(8) 0.4234(8)
C149_6 C 0.4808(7) 0.4531(11) 0.4234(8)
H139_6 H 0.5311 0.0156 0.4540
H140_6 H 0.4844 0.4689 0.4540
C150_6 C 0.5864(11) 0.0485(8) 0.4301(8)
C151_6 C 0.4620(7) 0.4136(11) 0.4301(8)
H141_6 H 0.5976 0.0563 0.4650
H142_6 H 0.4586 0.4024 0.4650
C152_6 C 0.6093(10) 0.0577(8) 0.3837(9)
C153_6 C 0.4483(6) 0.3907(10) 0.3837(9)
H143_6 H 0.6356 0.0649 0.3862
H144_6 H 0.4292 0.3644 0.3862
C154_6 C 0.5927(9) 0.0561(7) 0.3341(8)
C155_6 C 0.4633(6) 0.4073(9) 0.3341(8)
H145_6 H 0.6086 0.0655 0.3029
H146_6 H 0.4568 0.3914 0.3029
C156_6 C 0.6242(11) 0.2505(8) 0.4393(11)
C157_6 C 0.6262(8) 0.3758(11) 0.4393(11)
C158_6 C 0.6288(8) 0.2145(6) 0.4560(10)
C159_6 C 0.5856(6) 0.3712(8) 0.4560(10)
C160_6 C 0.6048(8) 0.1757(5) 0.4464(11)
C161_6 C 0.5708(6) 0.3952(8) 0.4464(11)
C162_6 C 0.6134(9) 0.1469(7) 0.4506(11)
C163_6 C 0.5334(6) 0.3866(9) 0.4506(11)
H147_6 H 0.5963 0.1219 0.4373
H148_6 H 0.5255 0.4037 0.4373
C164_6 C 0.6472(10) 0.1550(7) 0.4744(11)
C165_6 C 0.5077(7) 0.3528(10) 0.4744(11)
H149_6 H 0.6539 0.1360 0.4822
H150_6 H 0.4820 0.3461 0.4822
C166_6 C 0.6699(9) 0.1918(6) 0.4855(12)
C167_6 C 0.5218(7) 0.3301(9) 0.4855(12)
H151_6 H 0.6940 0.1986 0.5010
H152_6 H 0.5045 0.3060 0.5010
C168_6 C 0.6627(8) 0.2205(6) 0.4775(10)
C169_6 C 0.5577(6) 0.3373(8) 0.4775(10)
H153_6 H 0.6819 0.2459 0.4870
H154_6 H 0.5639 0.3181 0.4870
C170_6 C 0.5939(11) 0.2788(8) 0.3985(13)
C171_6 C 0.6848(8) 0.4061(11) 0.3985(13)
H155_6 H 0.5833 0.2818 0.4333
H156_6 H 0.6984 0.4167 0.4333
H157_6 H 0.6169 0.3036 0.3894
H158_6 H 0.6866 0.3831 0.3894
C172_6 C 0.5615(11) 0.2664(8) 0.3504(10)
C173_6 C 0.7048(8) 0.4385(11) 0.3504(10)
C174_6 C 0.5237(12) 0.2528(8) 0.3668(9)
C175_6 C 0.7290(9) 0.4763(12) 0.3668(9)
H159_6 H 0.5177 0.2518 0.4042
H160_6 H 0.7340 0.4823 0.4042
C176_6 C 0.4954(11) 0.2409(8) 0.3282(11)
C177_6 C 0.7454(8) 0.5046(11) 0.3282(11)
H161_6 H 0.4691 0.2271 0.3388
H162_6 H 0.7579 0.5309 0.3388
C178_6 C 0.5048(12) 0.2489(9) 0.2744(10)
C179_6 C 0.7440(8) 0.4952(12) 0.2744(10)
H163_6 H 0.4851 0.2393 0.2477
H164_6 H 0.7541 0.5149 0.2477
C180_6 C 0.5431(11) 0.2709(8) 0.2587(9)
C181_6 C 0.7277(8) 0.4569(11) 0.2587(9)
H165_6 H 0.5497 0.2814 0.2232
H166_6 H 0.7316 0.4503 0.2232
C182_6 C 0.5714(11) 0.2773(8) 0.2962(11)
C183_6 C 0.7058(8) 0.4286(11) 0.2962(11)
H167_6 H 0.5975 0.2891 0.2851
H168_6 H 0.6915 0.4025 0.2851
N17_6 N 0.4830(8) 0.9238(6) 0.5507(8)
N19_6 N 0.5347(8) 0.9392(6) 0.7029(8)
O43_6 O 0.5166(7) 0.9532(5) 0.5438(7)
O45_6 O 0.4614(6) 0.9257(4) 0.5884(6)
O47_6 O 0.4669(9) 0.8994(5) 0.5132(8)
O49_6 O 0.5420(6) 0.9725(4) 0.7171(7)
O51_6 O 0.5194(7) 0.9260(5) 0.6558(7)
O53_6 O 0.5453(9) 0.9198(7) 0.7324(10)
C80_6 C 0.3984(9) 0.9625(6) 0.4168(10)
H83_6 H 0.3792 0.9480 0.3906
C82_6 C 0.4037(10) 0.9438(7) 0.4585(9)
H85_6 H 0.3932 0.9167 0.4598
C84_6 C 0.4256(9) 0.9682(6) 0.4978(10)
H87_6 H 0.4229 0.9561 0.5320
C122_6 C 0.3671(10) 0.9976(8) 0.2858(13)
H119_6 H 0.3670 0.9742 0.2796
C124_6 C 0.3378(9) 0.9979(7) 0.3157(13)
H121_5 H 0.3167 0.9744 0.3279
H122_5 H 0.9834 0.6757 0.1612
H124_5 H 0.9870 0.6217 0.1831
H122_6 H 0.3243 0.0166 0.6612
H124_6 H 0.3783 0.0130 0.6831
H121_6 H 0.9834 0.3077 0.6612
H123_6 H 0.9870 0.3653 0.6831
loop_
_geom_bond_atom_site_label_1
_geom_bond_atom_site_label_2
_geom_bond_site_symmetry_1
_geom_bond_site_symmetry_2
Er1 O5 1_555 1_555
Er2 O8 1_555 1_555
N1 H1 1_555 1_555
N2 H2 1_555 1_555
N3 H3 1_555 1_555
N4 H4 1_555 1_555
N5 O9 1_555 1_555
N6 O12 1_555 1_555
N7 O15 1_555 1_555
N8 O18 1_555 1_555
O1 C2 1_555 1_555
O2 C3 1_555 1_555
O3 C4 1_555 1_555
O4 C5 1_555 1_555
O5 C6 1_555 1_555
O6 C20 1_555 1_555
O7 C34 1_555 1_555
O8 C48 1_555 1_555
O9 Er1 1_555 1_555
O10 Er1 1_555 1_555
O11 N5 1_555 1_555
O12 Er1 1_555 1_555
O13 Er1 1_555 1_555
O14 N6 1_555 1_555
O15 Er1 1_555 1_555
O16 Er1 1_555 1_555
O17 N7 1_555 1_555
O18 Er2 1_555 1_555
O19 Er2 1_555 1_555
O20 N8 1_555 1_555
C1 C2 1_555 1_555
C2 H5 1_555 1_555
H6 C2 1_555 1_555
C3 C1 1_555 1_555
H7 C3 1_555 1_555
H8 C3 1_555 1_555
C4 C1 1_555 1_555
H9 C4 1_555 1_555
H10 C4 1_555 1_555
C5 C1 1_555 1_555
H11 C5 1_555 1_555
H12 C5 1_555 1_555
C6 N1 1_555 1_555
C7 C6 1_555 1_555
C8 O1 1_555 1_555
C9 C8 1_555 1_555
H13 C9 1_555 1_555
C10 C9 1_555 1_555
H14 C10 1_555 1_555
C11 C10 1_555 1_555
H15 C11 1_555 1_555
C12 C7 1_555 1_555
H16 C12 1_555 1_555
C13 N1 1_555 1_555
H17 C13 1_555 1_555
H18 C13 1_555 1_555
C14 C13 1_555 1_555
C15 C14 1_555 1_555
H19 C15 1_555 1_555
C16 C15 1_555 1_555
H20 C16 1_555 1_555
C17 C16 1_555 1_555
H21 C17 1_555 1_555
C18 C17 1_555 1_555
H22 C18 1_555 1_555
C19 C14 1_555 1_555
H23 C19 1_555 1_555
C20 N2 1_555 1_555
C21 C20 1_555 1_555
C22 O2 1_555 1_555
C23 C22 1_555 1_555
H24 C23 1_555 1_555
C24 C23 1_555 1_555
H25 C24 1_555 1_555
C25 C24 1_555 1_555
H26 C25 1_555 1_555
C26 C21 1_555 1_555
H27 C26 1_555 1_555
C27 N2 1_555 1_555
H28 C27 1_555 1_555
H29 C27 1_555 1_555
C28 C27 1_555 1_555
C29 C28 1_555 1_555
H30 C29 1_555 1_555
C30 C29 1_555 1_555
H31 C30 1_555 1_555
C31 C30 1_555 1_555
H32 C31 1_555 1_555
C32 C31 1_555 1_555
H33 C32 1_555 1_555
C33 C28 1_555 1_555
H34 C33 1_555 1_555
C34 N3 1_555 1_555
C35 C34 1_555 1_555
C36 O3 1_555 1_555
C37 C36 1_555 1_555
H35 C37 1_555 1_555
C38 C37 1_555 1_555
C41 N3 1_555 1_555
H39 C41 1_555 1_555
H40 C41 1_555 1_555
C42 C41 1_555 1_555
C43 C42 1_555 1_555
H41 C43 1_555 1_555
C44 C43 1_555 1_555
H42 C44 1_555 1_555
C45 C44 1_555 1_555
H43 C45 1_555 1_555
C46 C45 1_555 1_555
H44 C46 1_555 1_555
C47 C42 1_555 1_555
H45 C47 1_555 1_555
C48 N4 1_555 1_555
C49 C48 1_555 1_555
C50 O4 1_555 1_555
C51 C50 1_555 1_555
H46 C51 1_555 1_555
C52 C51 1_555 1_555
H47 C52 1_555 1_555
C53 C52 1_555 1_555
H48 C53 1_555 1_555
C54 C49 1_555 1_555
H49 C54 1_555 1_555
C55 N4 1_555 1_555
H50 C55 1_555 1_555
H51 C55 1_555 1_555
C56 C55 1_555 1_555
C57 C56 1_555 1_555
H52 C57 1_555 1_555
C58 C57 1_555 1_555
H53 C58 1_555 1_555
C59 C58 1_555 1_555
H54 C59 1_555 1_555
C60 C59 1_555 1_555
H55 C60 1_555 1_555
C61 C56 1_555 1_555
H56 C61 1_555 1_555
Er3 O29 1_555 1_555
Er4 O30 1_555 1_555
Er5 O6 1_555 1_555
Er7 O31 1_555 1_555
Er9 O32 1_555 1_555
N9 H57 1_555 1_555
N10 H58 1_555 1_555
N11 H59 1_555 1_555
N12 H60 1_555 1_555
N13 H61 1_555 1_555
N14 H62 1_555 1_555
N15 H63 1_555 1_555
N16 H64 1_555 1_555
N17 O43 1_555 1_555
N18 O44 1_555 1_555
N19 O49 1_555 1_555
N20 O50 1_555 1_555
N21 O55 1_555 1_555
N22 O56 1_555 1_555
N23 O61 1_555 1_555
N24 O62 1_555 1_555
O21 C64 1_555 1_555
O22 C65 1_555 1_555
O23 C66 1_555 1_555
O24 C67 1_555 1_555
O25 C68 1_555 1_555
O26 C69 1_555 1_555
O27 C70 1_555 1_555
O28 C71 1_555 1_555
O29 C72 1_555 1_555
O30 C73 1_555 1_555
O31 C100 1_555 1_555
O32 C101 1_555 1_555
O33 Er1 1_555 1_555
O34 Er3 1_555 1_555
O35 Er4 1_555 1_555
O36 C128 1_555 1_555
O37 C129 1_555 1_555
O38 Er1 1_555 1_555
O39 Er3 1_555 1_555
O40 Er4 1_555 1_555
O41 Er2 1_555 1_555
O42 Er2 1_555 1_555
O43 Er3 1_555 1_555
O44 Er4 1_555 1_555
O45 Er3 1_555 1_555
O46 Er4 1_555 1_555
O47 N17 1_555 1_555
O48 N18 1_555 1_555
O49 Er3 1_555 1_555
O50 Er4 1_555 1_555
O51 Er3 1_555 1_555
O52 Er4 1_555 1_555
O53 N19 1_555 1_555
O54 N20 1_555 1_555
O55 Er3 1_555 1_555
O56 Er4 1_555 1_555
O57 Er3 1_555 1_555
O58 Er4 1_555 1_555
O59 N21 1_555 1_555
O60 N22 1_555 1_555
O61 Er2 1_555 1_555
O62 Er2 1_555 1_555
O63 Er2 1_555 1_555
O64 Er2 1_555 1_555
O65 N24 1_555 1_555
O66 N23 1_555 1_555
C62 C64 1_555 1_555
C63 C65 1_555 1_555
C64 H65 1_555 1_555
C65 H66 1_555 1_555
H67 C64 1_555 1_555
H68 C65 1_555 1_555
C66 C62 1_555 1_555
C67 C63 1_555 1_555
H69 C66 1_555 1_555
H70 C67 1_555 1_555
H71 C66 1_555 1_555
H72 C67 1_555 1_555
C68 C62 1_555 1_555
C69 C63 1_555 1_555
H73 C68 1_555 1_555
H74 C69 1_555 1_555
H75 C68 1_555 1_555
H76 C69 1_555 1_555
C70 C62 1_555 1_555
C71 C63 1_555 1_555
H77 C70 1_555 1_555
H78 C71 1_555 1_555
H79 C70 1_555 1_555
H80 C71 1_555 1_555
C72 N9 1_555 1_555
C73 N10 1_555 1_555
C74 C72 1_555 1_555
C75 C73 1_555 1_555
C76 O21 1_555 1_555
C77 O22 1_555 1_555
C78 C76 1_555 1_555
C79 C77 1_555 1_555
H81 C78 1_555 1_555
H82 C79 1_555 1_555
C80 C78 1_555 1_555
C81 C79 1_555 1_555
H83 C80 1_555 1_555
H84 C81 1_555 1_555
C82 C80 1_555 1_555
C83 C81 1_555 1_555
H85 C82 1_555 1_555
H86 C83 1_555 1_555
C84 C74 1_555 1_555
C85 C75 1_555 1_555
H87 C84 1_555 1_555
H88 C85 1_555 1_555
C86 N9 1_555 1_555
C87 N10 1_555 1_555
H89 C86 1_555 1_555
H90 C87 1_555 1_555
H91 C86 1_555 1_555
H92 C87 1_555 1_555
C88 C86 1_555 1_555
C89 C87 1_555 1_555
C90 C88 1_555 1_555
C91 C89 1_555 1_555
H93 C90 1_555 1_555
H94 C91 1_555 1_555
C92 C90 1_555 1_555
C93 C91 1_555 1_555
H95 C92 1_555 1_555
H96 C93 1_555 1_555
C94 C92 1_555 1_555
C95 C93 1_555 1_555
H97 C94 1_555 1_555
H98 C95 1_555 1_555
C96 C94 1_555 1_555
C97 C95 1_555 1_555
H99 C96 1_555 1_555
H100 C97 1_555 1_555
C98 C88 1_555 1_555
C99 C89 1_555 1_555
H101 C98 1_555 1_555
H102 C99 1_555 1_555
C100 N11 1_555 1_555
C101 N12 1_555 1_555
C102 C100 1_555 1_555
C103 C101 1_555 1_555
C104 O23 1_555 1_555
C105 O24 1_555 1_555
C106 C104 1_555 1_555
C107 C105 1_555 1_555
H103 C106 1_555 1_555
H104 C107 1_555 1_555
C108 C106 1_555 1_555
C109 C107 1_555 1_555
H105 C108 1_555 1_555
H106 C109 1_555 1_555
C110 C108 1_555 1_555
C111 C109 1_555 1_555
H107 C110 1_555 1_555
H108 C111 1_555 1_555
C112 C102 1_555 1_555
C113 C103 1_555 1_555
H109 C112 1_555 1_555
H110 C113 1_555 1_555
C114 N11 1_555 1_555
C115 N12 1_555 1_555
H111 C114 1_555 1_555
H112 C115 1_555 1_555
H113 C114 1_555 1_555
H114 C115 1_555 1_555
C116 C114 1_555 1_555
C117 C115 1_555 1_555
C118 C116 1_555 1_555
C119 C117 1_555 1_555
H115 C118 1_555 1_555
H116 C119 1_555 1_555
C120 C118 1_555 1_555
C121 C119 1_555 1_555
H117 C120 1_555 1_555
H118 C121 1_555 1_555
C122 C120 1_555 1_555
C123 C121 1_555 1_555
H119 C122 1_555 1_555
H120 C123 1_555 1_555
C124 C122 1_555 1_555
C125 C123 1_555 1_555
C126 C116 1_555 1_555
C127 C117 1_555 1_555
C128 N13 1_555 1_555
C129 N14 1_555 1_555
C130 C128 1_555 1_555
C131 C129 1_555 1_555
C132 O25 1_555 1_555
C133 O26 1_555 1_555
C134 C132 1_555 1_555
C135 C133 1_555 1_555
H125 C134 1_555 1_555
H126 C135 1_555 1_555
C136 C134 1_555 1_555
C137 C135 1_555 1_555
C142 N13 1_555 1_555
C143 N14 1_555 1_555
H133 C142 1_555 1_555
H134 C143 1_555 1_555
H135 C142 1_555 1_555
H136 C143 1_555 1_555
C144 C142 1_555 1_555
C145 C143 1_555 1_555
C146 C144 1_555 1_555
C147 C145 1_555 1_555
H137 C146 1_555 1_555
H138 C147 1_555 1_555
C148 C146 1_555 1_555
C149 C147 1_555 1_555
H139 C148 1_555 1_555
H140 C149 1_555 1_555
C150 C148 1_555 1_555
C151 C149 1_555 1_555
H141 C150 1_555 1_555
H142 C151 1_555 1_555
C152 C150 1_555 1_555
C153 C151 1_555 1_555
H143 C152 1_555 1_555
H144 C153 1_555 1_555
C154 C144 1_555 1_555
C155 C145 1_555 1_555
H145 C154 1_555 1_555
H146 C155 1_555 1_555
C156 N15 1_555 1_555
C157 N16 1_555 1_555
C158 C156 1_555 1_555
C159 C157 1_555 1_555
C160 O27 1_555 1_555
C161 O28 1_555 1_555
C162 C160 1_555 1_555
C163 C161 1_555 1_555
H147 C162 1_555 1_555
H148 C163 1_555 1_555
C164 C162 1_555 1_555
C165 C163 1_555 1_555
H149 C164 1_555 1_555
H150 C165 1_555 1_555
C166 C164 1_555 1_555
C167 C165 1_555 1_555
H151 C166 1_555 1_555
H152 C167 1_555 1_555
C168 C158 1_555 1_555
C169 C159 1_555 1_555
H153 C168 1_555 1_555
H154 C169 1_555 1_555
C170 N15 1_555 1_555
C171 N16 1_555 1_555
H155 C170 1_555 1_555
H156 C171 1_555 1_555
H157 C170 1_555 1_555
H158 C171 1_555 1_555
C172 C170 1_555 1_555
C173 C171 1_555 1_555
C174 C172 1_555 1_555
C175 C173 1_555 1_555
H159 C174 1_555 1_555
H160 C175 1_555 1_555
C176 C174 1_555 1_555
C177 C175 1_555 1_555
H161 C176 1_555 1_555
H162 C177 1_555 1_555
C178 C176 1_555 1_555
C179 C177 1_555 1_555
H163 C178 1_555 1_555
H164 C179 1_555 1_555
C180 C178 1_555 1_555
C181 C179 1_555 1_555
H165 C180 1_555 1_555
H166 C181 1_555 1_555
C182 C172 1_555 1_555
C183 C173 1_555 1_555
H167 C182 1_555 1_555
H168 C183 1_555 1_555
N5 O10 1_555 1_555
N6 O13 1_555 1_555
N7 O16 1_555 1_555
N8 O19 1_555 1_555
C7 C8 1_555 1_555
C11 C12 1_555 1_555
C18 C19 1_555 1_555
C21 C22 1_555 1_555
C25 C26 1_555 1_555
C32 C33 1_555 1_555
C35 C36 1_555 1_555
C46 C47 1_555 1_555
C49 C50 1_555 1_555
C53 C54 1_555 1_555
C60 C61 1_555 1_555
N17 O45 1_555 1_555
N18 O46 1_555 1_555
N19 O51 1_555 1_555
N20 O52 1_555 1_555
N21 O57 1_555 1_555
N22 O58 1_555 1_555
N23 O63 1_555 1_555
N24 O64 1_555 1_555
O41 C156 1_555 1_555
O42 C157 1_555 1_555
C74 C76 1_555 1_555
C75 C77 1_555 1_555
C82 C84 1_555 1_555
C83 C85 1_555 1_555
C96 C98 1_555 1_555
C97 C99 1_555 1_555
C102 C104 1_555 1_555
C103 C105 1_555 1_555
C110 C112 1_555 1_555
C111 C113 1_555 1_555
C124 C126 1_555 1_555
C125 C127 1_555 1_555
C130 C132 1_555 1_555
C131 C133 1_555 1_555
C152 C154 1_555 1_555
C153 C155 1_555 1_555
C158 C160 1_555 1_555
C159 C161 1_555 1_555
C166 C168 1_555 1_555
C167 C169 1_555 1_555
C180 C182 1_555 1_555
C181 C183 1_555 1_555
H37 C39 1_555 1_555
H38 C40 1_555 1_555
H129 C138 1_555 1_555
H130 C139 1_555 1_555
H131 C140 1_555 1_555
H132 C141 1_555 1_555
C39 C40 1_555 1_555
C138 C140 1_555 1_555
C139 C141 1_555 1_555
N6_2 O12_2 1_555 1_555
O14_2 N6_2 1_555 1_555
N19_2 O49_2 1_555 1_555
N20_2 O50_2 1_555 1_555
O53_2 N19_2 1_555 1_555
O54_2 N20_2 1_555 1_555
Er8 O5_2 1_555 1_555
Er2_2 O8_2 1_555 1_555
N1_2 H1_2 1_555 1_555
N2_2 H2_2 1_555 1_555
N3_2 H3_2 1_555 1_555
N4_2 H4_2 1_555 1_555
N5_2 O9_2 1_555 1_555
N7_2 O15_2 1_555 1_555
N8_2 O18_2 1_555 1_555
O1_2 C2_2 1_555 1_555
O2_2 C3_2 1_555 1_555
O3_2 C4_2 1_555 1_555
O4_2 C5_2 1_555 1_555
O5_2 C6_2 1_555 1_555
O6_2 C20_2 1_555 1_555
O39 C34_2 1_555 1_555
O8_2 C48_2 1_555 1_555
O9_2 Er8 1_555 1_555
O10_2 Er8 1_555 1_555
O11_2 N5_2 1_555 1_555
O13_2 Er8 1_555 1_555
O15_2 Er8 1_555 1_555
O16_2 Er8 1_555 1_555
O17_2 N7_2 1_555 1_555
O18_2 Er2_2 1_555 1_555
O19_2 Er2_2 1_555 1_555
O20_2 N8_2 1_555 1_555
C1_2 C2_2 1_555 1_555
C2_2 H5_2 1_555 1_555
H6_2 C2_2 1_555 1_555
C3_2 C1_2 1_555 1_555
H7_2 C3_2 1_555 1_555
H8_2 C3_2 1_555 1_555
C4_2 C1_2 1_555 1_555
H9_2 C4_2 1_555 1_555
H10_2 C4_2 1_555 1_555
C5_2 C1_2 1_555 1_555
H11_2 C5_2 1_555 1_555
H12_2 C5_2 1_555 1_555
C6_2 N1_2 1_555 1_555
C7_2 C6_2 1_555 1_555
C8_2 O1_2 1_555 1_555
C9_2 C8_2 1_555 1_555
H13_2 C9_2 1_555 1_555
C10_2 C9_2 1_555 1_555
H14_2 C10_2 1_555 1_555
C11_2 C10_2 1_555 1_555
H15_2 C11_2 1_555 1_555
C12_2 C7_2 1_555 1_555
H16_2 C12_2 1_555 1_555
C13_2 N1_2 1_555 1_555
H17_2 C13_2 1_555 1_555
H18_2 C13_2 1_555 1_555
C14_2 C13_2 1_555 1_555
C15_2 C14_2 1_555 1_555
H19_2 C15_2 1_555 1_555
C16_2 C15_2 1_555 1_555
H20_2 C16_2 1_555 1_555
C17_2 C16_2 1_555 1_555
H21_2 C17_2 1_555 1_555
C18_2 C17_2 1_555 1_555
H22_2 C18_2 1_555 1_555
C19_2 C14_2 1_555 1_555
H23_2 C19_2 1_555 1_555
C20_2 N2_2 1_555 1_555
C21_2 C20_2 1_555 1_555
C22_2 O2_2 1_555 1_555
C23_2 C22_2 1_555 1_555
H24_2 C23_2 1_555 1_555
C24_2 C23_2 1_555 1_555
H25_2 C24_2 1_555 1_555
C25_2 C24_2 1_555 1_555
H26_2 C25_2 1_555 1_555
C26_2 C21_2 1_555 1_555
H27_2 C26_2 1_555 1_555
C27_2 N2_2 1_555 1_555
H28_2 C27_2 1_555 1_555
H29_2 C27_2 1_555 1_555
C28_2 C27_2 1_555 1_555
C29_2 C28_2 1_555 1_555
H30_2 C29_2 1_555 1_555
C30_2 C29_2 1_555 1_555
H31_2 C30_2 1_555 1_555
C31_2 C30_2 1_555 1_555
H32_2 C31_2 1_555 1_555
C32_2 C31_2 1_555 1_555
H33_2 C32_2 1_555 1_555
C33_2 C28_2 1_555 1_555
H34_2 C33_2 1_555 1_555
C34_2 N3_2 1_555 1_555
C35_2 C34_2 1_555 1_555
C36_2 O3_2 1_555 1_555
C37_2 C36_2 1_555 1_555
H35_2 C37_2 1_555 1_555
C38_2 C37_2 1_555 1_555
H36_2 C38_2 1_555 1_555
C39_2 C38_2 1_555 1_555
H37_2 C39_2 1_555 1_555
C40_2 C35_2 1_555 1_555
H38_2 C40_2 1_555 1_555
C41_2 N3_2 1_555 1_555
H39_2 C41_2 1_555 1_555
H40_2 C41_2 1_555 1_555
C42_2 C41_2 1_555 1_555
C43_2 C42_2 1_555 1_555
H41_2 C43_2 1_555 1_555
C44_2 C43_2 1_555 1_555
H42_2 C44_2 1_555 1_555
C45_2 C44_2 1_555 1_555
H43_2 C45_2 1_555 1_555
C46_2 C45_2 1_555 1_555
H44_2 C46_2 1_555 1_555
C47_2 C42_2 1_555 1_555
H45_2 C47_2 1_555 1_555
C48_2 N4_2 1_555 1_555
C49_2 C48_2 1_555 1_555
C50_2 O4_2 1_555 1_555
C51_2 C50_2 1_555 1_555
H46_2 C51_2 1_555 1_555
C52_2 C51_2 1_555 1_555
H47_2 C52_2 1_555 1_555
C53_2 C52_2 1_555 1_555
H48_2 C53_2 1_555 1_555
C54_2 C49_2 1_555 1_555
H49_2 C54_2 1_555 1_555
C55_2 N4_2 1_555 1_555
H50_2 C55_2 1_555 1_555
H51_2 C55_2 1_555 1_555
C56_2 C55_2 1_555 1_555
C57_2 C56_2 1_555 1_555
H52_2 C57_2 1_555 1_555
C58_2 C57_2 1_555 1_555
H53_2 C58_2 1_555 1_555
C59_2 C58_2 1_555 1_555
H54_2 C59_2 1_555 1_555
C60_2 C59_2 1_555 1_555
H55_2 C60_2 1_555 1_555
C61_2 C56_2 1_555 1_555
H56_2 C61_2 1_555 1_555
Er6 O29_2 1_555 1_555
Er10 O30_2 1_555 1_555
Er5_2 O6_2 1_555 1_555
Er7_2 O31_2 1_555 1_555
Er9_2 O32_2 1_555 1_555
N9_2 H57_2 1_555 1_555
N10_2 H58_2 1_555 1_555
N11_2 H59_2 1_555 1_555
N12_2 H60_2 1_555 1_555
N13_2 H61_2 1_555 1_555
N14_2 H62_2 1_555 1_555
N15_2 H63_2 1_555 1_555
N16_2 H64_2 1_555 1_555
N17_2 O43_2 1_555 1_555
N18_2 O44_2 1_555 1_555
N21_2 O55_2 1_555 1_555
N22_2 O56_2 1_555 1_555
N23_2 O61_2 1_555 1_555
N24_2 O62_2 1_555 1_555
O21_2 C64_2 1_555 1_555
O22_2 C65_2 1_555 1_555
O23_2 C66_2 1_555 1_555
O24_2 C67_2 1_555 1_555
O25_2 C68_2 1_555 1_555
O26_2 C69_2 1_555 1_555
O27_2 C70_2 1_555 1_555
O28_2 C71_2 1_555 1_555
O29_2 C72_2 1_555 1_555
O30_2 C73_2 1_555 1_555
O31_2 C100_2 1_555 1_555
O32_2 C101_2 1_555 1_555
O38 C128_2 1_555 1_555
O40 C129_2 1_555 1_555
O41_2 Er2_2 1_555 1_555
O42_2 Er2_2 1_555 1_555
O43_2 Er6 1_555 1_555
O44_2 Er10 1_555 1_555
O45_2 Er6 1_555 1_555
O46_2 Er10 1_555 1_555
O47_2 N17_2 1_555 1_555
O48_2 N18_2 1_555 1_555
O51_2 Er6 1_555 1_555
O52_2 Er10 1_555 1_555
O55_2 Er6 1_555 1_555
O56_2 Er10 1_555 1_555
O57_2 Er6 1_555 1_555
O58_2 Er10 1_555 1_555
O59_2 N21_2 1_555 1_555
O60_2 N22_2 1_555 1_555
O61_2 Er2_2 1_555 1_555
O62_2 Er2_2 1_555 1_555
O63_2 Er2_2 1_555 1_555
O64_2 Er2_2 1_555 1_555
O65_2 N24_2 1_555 1_555
O66_2 N23_2 1_555 1_555
C62_2 C64_2 1_555 1_555
C63_2 C65_2 1_555 1_555
C64_2 H65_2 1_555 1_555
C65_2 H66_2 1_555 1_555
H67_2 C64_2 1_555 1_555
H68_2 C65_2 1_555 1_555
C66_2 C62_2 1_555 1_555
C67_2 C63_2 1_555 1_555
H69_2 C66_2 1_555 1_555
H70_2 C67_2 1_555 1_555
H71_2 C66_2 1_555 1_555
H72_2 C67_2 1_555 1_555
C68_2 C62_2 1_555 1_555
C69_2 C63_2 1_555 1_555
H73_2 C68_2 1_555 1_555
H74_2 C69_2 1_555 1_555
H75_2 C68_2 1_555 1_555
H76_2 C69_2 1_555 1_555
C70_2 C62_2 1_555 1_555
C71_2 C63_2 1_555 1_555
H77_2 C70_2 1_555 1_555
H78_2 C71_2 1_555 1_555
H79_2 C70_2 1_555 1_555
H80_2 C71_2 1_555 1_555
C72_2 N9_2 1_555 1_555
C73_2 N10_2 1_555 1_555
C74_2 C72_2 1_555 1_555
C75_2 C73_2 1_555 1_555
C76_2 O21_2 1_555 1_555
C77_2 O22_2 1_555 1_555
C78_2 C76_2 1_555 1_555
C79_2 C77_2 1_555 1_555
H81_2 C78_2 1_555 1_555
H82_2 C79_2 1_555 1_555
C80_2 C78_2 1_555 1_555
C81_2 C79_2 1_555 1_555
H83_2 C80_2 1_555 1_555
H84_2 C81_2 1_555 1_555
C82_2 C80_2 1_555 1_555
C83_2 C81_2 1_555 1_555
H85_2 C82_2 1_555 1_555
H86_2 C83_2 1_555 1_555
C84_2 C74_2 1_555 1_555
C85_2 C75_2 1_555 1_555
H87_2 C84_2 1_555 1_555
H88_2 C85_2 1_555 1_555
C86_2 N9_2 1_555 1_555
C87_2 N10_2 1_555 1_555
H89_2 C86_2 1_555 1_555
H90_2 C87_2 1_555 1_555
H91_2 C86_2 1_555 1_555
H92_2 C87_2 1_555 1_555
C88_2 C86_2 1_555 1_555
C89_2 C87_2 1_555 1_555
C90_2 C88_2 1_555 1_555
C91_2 C89_2 1_555 1_555
H93_2 C90_2 1_555 1_555
H94_2 C91_2 1_555 1_555
C92_2 C90_2 1_555 1_555
C93_2 C91_2 1_555 1_555
H95_2 C92_2 1_555 1_555
H96_2 C93_2 1_555 1_555
C94_2 C92_2 1_555 1_555
C95_2 C93_2 1_555 1_555
H97_2 C94_2 1_555 1_555
H98_2 C95_2 1_555 1_555
C96_2 C94_2 1_555 1_555
C97_2 C95_2 1_555 1_555
H99_2 C96_2 1_555 1_555
H100_2 C97_2 1_555 1_555
C98_2 C88_2 1_555 1_555
C99_2 C89_2 1_555 1_555
H101_2 C98_2 1_555 1_555
H102_2 C99_2 1_555 1_555
C100_2 N11_2 1_555 1_555
C101_2 N12_2 1_555 1_555
C102_2 C100_2 1_555 1_555
C103_2 C101_2 1_555 1_555
C104_2 O23_2 1_555 1_555
C105_2 O24_2 1_555 1_555
C106_2 C104_2 1_555 1_555
C107_2 C105_2 1_555 1_555
H103_2 C106_2 1_555 1_555
H104_2 C107_2 1_555 1_555
C108_2 C106_2 1_555 1_555
C109_2 C107_2 1_555 1_555
H105_2 C108_2 1_555 1_555
H106_2 C109_2 1_555 1_555
C110_2 C108_2 1_555 1_555
C111_2 C109_2 1_555 1_555
H107_2 C110_2 1_555 1_555
H108_2 C111_2 1_555 1_555
C112_2 C102_2 1_555 1_555
C113_2 C103_2 1_555 1_555
H109_2 C112_2 1_555 1_555
H110_2 C113_2 1_555 1_555
C114_2 N11_2 1_555 1_555
C115_2 N12_2 1_555 1_555
H111_2 C114_2 1_555 1_555
H112_2 C115_2 1_555 1_555
H113_2 C114_2 1_555 1_555
H114_2 C115_2 1_555 1_555
C116_2 C114_2 1_555 1_555
C117_2 C115_2 1_555 1_555
C118_2 C116_2 1_555 1_555
C119_2 C117_2 1_555 1_555
H115_2 C118_2 1_555 1_555
H116_2 C119_2 1_555 1_555
C120_2 C118_2 1_555 1_555
C121_2 C119_2 1_555 1_555
H117_2 C120_2 1_555 1_555
H118_2 C121_2 1_555 1_555
C122_2 C120_2 1_555 1_555
C123_2 C121_2 1_555 1_555
H119_2 C122_2 1_555 1_555
H120_2 C123_2 1_555 1_555
C124_2 C122_2 1_555 1_555
C125_2 C123_2 1_555 1_555
C126_2 C116_2 1_555 1_555
C127_2 C117_2 1_555 1_555
C128_2 N13_2 1_555 1_555
C129_2 N14_2 1_555 1_555
C130_2 C128_2 1_555 1_555
C131_2 C129_2 1_555 1_555
C132_2 O25_2 1_555 1_555
C133_2 O26_2 1_555 1_555
C134_2 C132_2 1_555 1_555
C135_2 C133_2 1_555 1_555
H125_2 C134_2 1_555 1_555
H126_2 C135_2 1_555 1_555
C136_2 C134_2 1_555 1_555
C137_2 C135_2 1_555 1_555
H127_2 C136_2 1_555 1_555
H128_2 C137_2 1_555 1_555
C138_2 C136_2 1_555 1_555
C139_2 C137_2 1_555 1_555
H129_2 C138_2 1_555 1_555
H130_2 C139_2 1_555 1_555
C140_2 C130_2 1_555 1_555
C141_2 C131_2 1_555 1_555
H131_2 C140_2 1_555 1_555
H132_2 C141_2 1_555 1_555
C142_2 N13_2 1_555 1_555
C143_2 N14_2 1_555 1_555
H133_2 C142_2 1_555 1_555
H134_2 C143_2 1_555 1_555
H135_2 C142_2 1_555 1_555
H136_2 C143_2 1_555 1_555
C144_2 C142_2 1_555 1_555
C145_2 C143_2 1_555 1_555
C146_2 C144_2 1_555 1_555
C147_2 C145_2 1_555 1_555
H137_2 C146_2 1_555 1_555
H138_2 C147_2 1_555 1_555
C148_2 C146_2 1_555 1_555
C149_2 C147_2 1_555 1_555
H139_2 C148_2 1_555 1_555
H140_2 C149_2 1_555 1_555
C150_2 C148_2 1_555 1_555
C151_2 C149_2 1_555 1_555
H141_2 C150_2 1_555 1_555
H142_2 C151_2 1_555 1_555
C152_2 C150_2 1_555 1_555
C153_2 C151_2 1_555 1_555
H143_2 C152_2 1_555 1_555
H144_2 C153_2 1_555 1_555
C154_2 C144_2 1_555 1_555
C155_2 C145_2 1_555 1_555
H145_2 C154_2 1_555 1_555
H146_2 C155_2 1_555 1_555
C156_2 N15_2 1_555 1_555
C157_2 N16_2 1_555 1_555
C158_2 C156_2 1_555 1_555
C159_2 C157_2 1_555 1_555
C160_2 O27_2 1_555 1_555
C161_2 O28_2 1_555 1_555
C162_2 C160_2 1_555 1_555
C163_2 C161_2 1_555 1_555
H147_2 C162_2 1_555 1_555
H148_2 C163_2 1_555 1_555
C164_2 C162_2 1_555 1_555
C165_2 C163_2 1_555 1_555
H149_2 C164_2 1_555 1_555
H150_2 C165_2 1_555 1_555
C166_2 C164_2 1_555 1_555
C167_2 C165_2 1_555 1_555
H151_2 C166_2 1_555 1_555
H152_2 C167_2 1_555 1_555
C168_2 C158_2 1_555 1_555
C169_2 C159_2 1_555 1_555
H153_2 C168_2 1_555 1_555
H154_2 C169_2 1_555 1_555
C170_2 N15_2 1_555 1_555
C171_2 N16_2 1_555 1_555
H155_2 C170_2 1_555 1_555
H156_2 C171_2 1_555 1_555
H157_2 C170_2 1_555 1_555
H158_2 C171_2 1_555 1_555
C172_2 C170_2 1_555 1_555
C173_2 C171_2 1_555 1_555
C174_2 C172_2 1_555 1_555
C175_2 C173_2 1_555 1_555
H159_2 C174_2 1_555 1_555
H160_2 C175_2 1_555 1_555
C176_2 C174_2 1_555 1_555
C177_2 C175_2 1_555 1_555
H161_2 C176_2 1_555 1_555
H162_2 C177_2 1_555 1_555
C178_2 C176_2 1_555 1_555
C179_2 C177_2 1_555 1_555
H163_2 C178_2 1_555 1_555
H164_2 C179_2 1_555 1_555
C180_2 C178_2 1_555 1_555
C181_2 C179_2 1_555 1_555
H165_2 C180_2 1_555 1_555
H166_2 C181_2 1_555 1_555
C182_2 C172_2 1_555 1_555
C183_2 C173_2 1_555 1_555
H167_2 C182_2 1_555 1_555
H168_2 C183_2 1_555 1_555
N5_2 O10_2 1_555 1_555
N7_2 O16_2 1_555 1_555
N8_2 O19_2 1_555 1_555
C7_2 C8_2 1_555 1_555
C11_2 C12_2 1_555 1_555
C18_2 C19_2 1_555 1_555
C21_2 C22_2 1_555 1_555
C25_2 C26_2 1_555 1_555
C32_2 C33_2 1_555 1_555
C35_2 C36_2 1_555 1_555
C39_2 C40_2 1_555 1_555
C46_2 C47_2 1_555 1_555
C49_2 C50_2 1_555 1_555
C53_2 C54_2 1_555 1_555
C60_2 C61_2 1_555 1_555
N17_2 O45_2 1_555 1_555
N18_2 O46_2 1_555 1_555
N21_2 O57_2 1_555 1_555
N22_2 O58_2 1_555 1_555
N23_2 O63_2 1_555 1_555
N24_2 O64_2 1_555 1_555
O41_2 C156_2 1_555 1_555
O42_2 C157_2 1_555 1_555
C74_2 C76_2 1_555 1_555
C75_2 C77_2 1_555 1_555
C82_2 C84_2 1_555 1_555
C83_2 C85_2 1_555 1_555
C96_2 C98_2 1_555 1_555
C97_2 C99_2 1_555 1_555
C102_2 C104_2 1_555 1_555
C103_2 C105_2 1_555 1_555
C110_2 C112_2 1_555 1_555
C111_2 C113_2 1_555 1_555
C124_2 C126_2 1_555 1_555
C125_2 C127_2 1_555 1_555
C130_2 C132_2 1_555 1_555
C131_2 C133_2 1_555 1_555
C138_2 C140_2 1_555 1_555
C139_2 C141_2 1_555 1_555
C152_2 C154_2 1_555 1_555
C153_2 C155_2 1_555 1_555
C158_2 C160_2 1_555 1_555
C159_2 C161_2 1_555 1_555
C166_2 C168_2 1_555 1_555
C167_2 C169_2 1_555 1_555
C180_2 C182_2 1_555 1_555
C181_2 C183_2 1_555 1_555
Er3_2 O29_3 1_555 1_555
Er8_2 O36_2 1_555 1_555
N9_3 H57_3 1_555 1_555
N11_3 H59_3 1_555 1_555
N13_3 H61_3 1_555 1_555
N15_3 H63_3 1_555 1_555
N17_3 O43_3 1_555 1_555
N19_3 O49_3 1_555 1_555
N21_3 O55_3 1_555 1_555
N23_3 O61_3 1_555 1_555
O21_3 C64_3 1_555 1_555
O23_3 C66_3 1_555 1_555
O25_3 C68_3 1_555 1_555
O27_3 C70_3 1_555 1_555
O29_3 C72_3 1_555 1_555
O33 C100_3 1_555 1_555
O34_3 Er3_2 1_555 1_555
O36_2 C128_3 1_555 1_555
O39_2 Er3_2 1_555 1_555
O43_3 Er3_2 1_555 1_555
O45_3 Er3_2 1_555 1_555
O47_3 N17_3 1_555 1_555
O49_3 Er3_2 1_555 1_555
O51_3 Er3_2 1_555 1_555
O53_3 N19_3 1_555 1_555
O55_3 Er3_2 1_555 1_555
O57_3 Er3_2 1_555 1_555
O59_3 N21_3 1_555 1_555
O66_3 N23_3 1_555 1_555
C62_3 C64_3 1_555 1_555
C64_3 H65_3 1_555 1_555
H67_3 C64_3 1_555 1_555
C66_3 C62_3 1_555 1_555
H69_3 C66_3 1_555 1_555
H71_3 C66_3 1_555 1_555
C68_3 C62_3 1_555 1_555
H73_3 C68_3 1_555 1_555
H75_3 C68_3 1_555 1_555
C70_3 C62_3 1_555 1_555
H77_3 C70_3 1_555 1_555
H79_3 C70_3 1_555 1_555
C72_3 N9_3 1_555 1_555
C74_3 C72_3 1_555 1_555
C76_3 O21_3 1_555 1_555
C78_3 C76_3 1_555 1_555
H81_3 C78_3 1_555 1_555
C80_3 C78_3 1_555 1_555
H83_3 C80_3 1_555 1_555
C82_3 C80_3 1_555 1_555
H85_3 C82_3 1_555 1_555
C84_3 C74_3 1_555 1_555
H87_3 C84_3 1_555 1_555
C86_3 N9_3 1_555 1_555
H89_3 C86_3 1_555 1_555
H91_3 C86_3 1_555 1_555
C88_3 C86_3 1_555 1_555
C90_3 C88_3 1_555 1_555
H93_3 C90_3 1_555 1_555
C92_3 C90_3 1_555 1_555
H95_3 C92_3 1_555 1_555
C94_3 C92_3 1_555 1_555
H97_3 C94_3 1_555 1_555
C96_3 C94_3 1_555 1_555
H99_3 C96_3 1_555 1_555
C98_3 C88_3 1_555 1_555
H101_3 C98_3 1_555 1_555
C100_3 N11_3 1_555 1_555
C102_3 C100_3 1_555 1_555
C104_3 O23_3 1_555 1_555
C106_3 C104_3 1_555 1_555
H103_3 C106_3 1_555 1_555
C108_3 C106_3 1_555 1_555
H105_3 C108_3 1_555 1_555
C110_3 C108_3 1_555 1_555
H107_3 C110_3 1_555 1_555
C112_3 C102_3 1_555 1_555
H109_3 C112_3 1_555 1_555
C114_3 N11_3 1_555 1_555
H111_3 C114_3 1_555 1_555
H113_3 C114_3 1_555 1_555
C116_3 C114_3 1_555 1_555
C118_3 C116_3 1_555 1_555
H115_3 C118_3 1_555 1_555
C120_3 C118_3 1_555 1_555
H117_3 C120_3 1_555 1_555
C122_3 C120_3 1_555 1_555
H119_3 C122_3 1_555 1_555
C124_3 C122_3 1_555 1_555
H121_2 C124_3 1_555 1_555
C126_3 C116_3 1_555 1_555
H123_2 C126_3 1_555 1_555
C128_3 N13_3 1_555 1_555
C130_3 C128_3 1_555 1_555
C132_3 O25_3 1_555 1_555
C134_3 C132_3 1_555 1_555
H125_3 C134_3 1_555 1_555
C136_3 C134_3 1_555 1_555
H127_3 C136_3 1_555 1_555
C138_3 C136_3 1_555 1_555
H129_3 C138_3 1_555 1_555
C140_3 C130_3 1_555 1_555
H131_3 C140_3 1_555 1_555
C142_3 N13_3 1_555 1_555
H133_3 C142_3 1_555 1_555
H135_3 C142_3 1_555 1_555
C144_3 C142_3 1_555 1_555
C146_3 C144_3 1_555 1_555
H137_3 C146_3 1_555 1_555
C148_3 C146_3 1_555 1_555
H139_3 C148_3 1_555 1_555
C150_3 C148_3 1_555 1_555
H141_3 C150_3 1_555 1_555
C152_3 C150_3 1_555 1_555
H143_3 C152_3 1_555 1_555
C154_3 C144_3 1_555 1_555
H145_3 C154_3 1_555 1_555
C156_3 N15_3 1_555 1_555
C158_3 C156_3 1_555 1_555
C160_3 O27_3 1_555 1_555
C162_3 C160_3 1_555 1_555
H147_3 C162_3 1_555 1_555
C164_3 C162_3 1_555 1_555
H149_3 C164_3 1_555 1_555
H152_3 C167_3 1_555 1_555
C168_3 C158_3 1_555 1_555
C170_3 N15_3 1_555 1_555
H155_3 C170_3 1_555 1_555
H157_3 C170_3 1_555 1_555
C172_3 C170_3 1_555 1_555
C174_3 C172_3 1_555 1_555
H159_3 C174_3 1_555 1_555
C176_3 C174_3 1_555 1_555
H161_3 C176_3 1_555 1_555
C178_3 C176_3 1_555 1_555
H163_3 C178_3 1_555 1_555
C180_3 C178_3 1_555 1_555
H165_3 C180_3 1_555 1_555
C182_3 C172_3 1_555 1_555
H167_3 C182_3 1_555 1_555
N17_3 O45_3 1_555 1_555
N19_3 O51_3 1_555 1_555
N21_3 O57_3 1_555 1_555
O41_3 C156_3 1_555 1_555
C74_3 C76_3 1_555 1_555
C82_3 C84_3 1_555 1_555
C96_3 C98_3 1_555 1_555
C102_3 C104_3 1_555 1_555
C110_3 C112_3 1_555 1_555
C124_3 C126_3 1_555 1_555
C130_3 C132_3 1_555 1_555
C138_3 C140_3 1_555 1_555
C152_3 C154_3 1_555 1_555
C158_3 C160_3 1_555 1_555
C180_3 C182_3 1_555 1_555
N2_3 H2_3 1_555 1_555
N8_3 O18_3 1_555 1_555
O35 C20_3 1_555 1_555
O20_3 N8_3 1_555 1_555
H21_3 C17_3 1_555 1_555
C18_3 C17_3 1_555 1_555
H22_3 C18_3 1_555 1_555
C20_3 N2_3 1_555 1_555
C21_3 C20_3 1_555 1_555
C22_3 O2_3 1_555 1_555
C23_3 C22_3 1_555 1_555
H24_3 C23_3 1_555 1_555
C24_3 C23_3 1_555 1_555
H25_3 C24_3 1_555 1_555
C25_3 C24_3 1_555 1_555
H26_3 C25_3 1_555 1_555
C26_3 C21_3 1_555 1_555
H27_3 C26_3 1_555 1_555
C27_3 N2_3 1_555 1_555
H28_3 C27_3 1_555 1_555
H29_3 C27_3 1_555 1_555
C28_3 C27_3 1_555 1_555
C29_3 C28_3 1_555 1_555
H30_3 C29_3 1_555 1_555
C33_3 C28_3 1_555 1_555
H34_3 C33_3 1_555 1_555
H36_3 C38_3 1_555 1_555
H50_3 C55_3 1_555 1_555
H51_3 C55_3 1_555 1_555
C56_3 C55_3 1_555 1_555
C57_3 C56_3 1_555 1_555
H52_3 C57_3 1_555 1_555
C58_3 C57_3 1_555 1_555
H53_3 C58_3 1_555 1_555
C59_3 C58_3 1_555 1_555
H54_3 C59_3 1_555 1_555
C60_3 C59_3 1_555 1_555
H55_3 C60_3 1_555 1_555
C61_3 C56_3 1_555 1_555
H56_3 C61_3 1_555 1_555
H151_3 C166_3 1_555 1_555
C21_3 C22_3 1_555 1_555
C25_3 C26_3 1_555 1_555
C60_3 C61_3 1_555 1_555
Er4_2 O30_3 1_555 1_555
Er10_2 O37_2 1_555 1_555
N10_3 H58_3 1_555 1_555
N14_3 H62_3 1_555 1_555
N16_3 H64_3 1_555 1_555
N18_3 O44_3 1_555 1_555
N20_3 O50_3 1_555 1_555
N22_3 O56_3 1_555 1_555
O22_3 C65_3 1_555 1_555
O26_3 C69_3 1_555 1_555
O28_3 C71_3 1_555 1_555
O30_3 C73_3 1_555 1_555
O35_3 Er4_2 1_555 1_555
O37_2 C129_3 1_555 1_555
O40_2 Er4_2 1_555 1_555
O42_3 Er2_3 1_555 1_555
O44_3 Er4_2 1_555 1_555
O46_3 Er4_2 1_555 1_555
O48_3 N18_3 1_555 1_555
O50_3 Er4_2 1_555 1_555
O52_3 Er4_2 1_555 1_555
O54_3 N20_3 1_555 1_555
O56_3 Er4_2 1_555 1_555
O58_3 Er4_2 1_555 1_555
O60_3 N22_3 1_555 1_555
O63_3 Er2_3 1_555 1_555
C63_3 C65_3 1_555 1_555
C65_3 H66_3 1_555 1_555
H68_3 C65_3 1_555 1_555
C67_3 C63_3 1_555 1_555
H70_3 C67_3 1_555 1_555
H72_3 C67_3 1_555 1_555
C69_3 C63_3 1_555 1_555
H74_3 C69_3 1_555 1_555
H76_3 C69_3 1_555 1_555
C71_3 C63_3 1_555 1_555
H78_3 C71_3 1_555 1_555
H80_3 C71_3 1_555 1_555
C73_3 N10_3 1_555 1_555
C75_3 C73_3 1_555 1_555
C77_3 O22_3 1_555 1_555
C79_3 C77_3 1_555 1_555
H82_3 C79_3 1_555 1_555
C81_3 C79_3 1_555 1_555
H84_3 C81_3 1_555 1_555
C83_3 C81_3 1_555 1_555
H86_3 C83_3 1_555 1_555
C85_3 C75_3 1_555 1_555
H88_3 C85_3 1_555 1_555
C87_3 N10_3 1_555 1_555
H90_3 C87_3 1_555 1_555
H92_3 C87_3 1_555 1_555
C89_3 C87_3 1_555 1_555
C91_3 C89_3 1_555 1_555
H94_3 C91_3 1_555 1_555
C93_3 C91_3 1_555 1_555
H96_3 C93_3 1_555 1_555
C99_3 C89_3 1_555 1_555
H102_3 C99_3 1_555 1_555
H118_3 C121_3 1_555 1_555
C123_3 C121_3 1_555 1_555
H120_3 C123_3 1_555 1_555
C125_3 C123_3 1_555 1_555
H122 C125_3 1_555 1_555
C129_3 N14_3 1_555 1_555
C131_3 C129_3 1_555 1_555
C133_3 O26_3 1_555 1_555
C135_3 C133_3 1_555 1_555
H130_3 C139_3 1_555 1_555
C141_3 C131_3 1_555 1_555
H132_3 C141_3 1_555 1_555
C143_3 N14_3 1_555 1_555
H134_3 C143_3 1_555 1_555
H136_3 C143_3 1_555 1_555
C145_3 C143_3 1_555 1_555
C147_3 C145_3 1_555 1_555
H138_3 C147_3 1_555 1_555
C149_3 C147_3 1_555 1_555
H140_3 C149_3 1_555 1_555
C151_3 C149_3 1_555 1_555
H142_3 C151_3 1_555 1_555
C153_3 C151_3 1_555 1_555
H144_3 C153_3 1_555 1_555
C155_3 C145_3 1_555 1_555
H146_3 C155_3 1_555 1_555
C157_3 N16_3 1_555 1_555
C159_3 C157_3 1_555 1_555
C161_3 O28_3 1_555 1_555
C163_3 C161_3 1_555 1_555
H148_3 C163_3 1_555 1_555
C165_3 C163_3 1_555 1_555
H150_3 C165_3 1_555 1_555
C169_3 C159_3 1_555 1_555
N18_3 O46_3 1_555 1_555
N20_3 O52_3 1_555 1_555
N22_3 O58_3 1_555 1_555
O42_3 C157_3 1_555 1_555
C75_3 C77_3 1_555 1_555
C83_3 C85_3 1_555 1_555
C131_3 C133_3 1_555 1_555
C139_3 C141_3 1_555 1_555
C153_3 C155_3 1_555 1_555
C159_3 C161_3 1_555 1_555
Er1_2 O5_3 1_555 1_555
N1_3 H1_3 1_555 1_555
N3_3 H3_3 1_555 1_555
N4_3 H4_3 1_555 1_555
N5_3 O9_3 1_555 1_555
N6_3 O12_3 1_555 1_555
N7_3 O15_3 1_555 1_555
O1_3 C2_3 1_555 1_555
O3_3 C4_3 1_555 1_555
O4_3 C5_3 1_555 1_555
O5_3 C6_3 1_555 1_555
O7_2 C34_3 1_555 1_555
O8_3 C48_3 1_555 1_555
O9_3 Er1_2 1_555 1_555
O10_3 Er1_2 1_555 1_555
O11_3 N5_3 1_555 1_555
O12_3 Er1_2 1_555 1_555
O13_3 Er1_2 1_555 1_555
O14_3 N6_3 1_555 1_555
O15_3 Er1_2 1_555 1_555
O16_3 Er1_2 1_555 1_555
O17_3 N7_3 1_555 1_555
C1_3 C2_3 1_555 1_555
C2_3 H5_3 1_555 1_555
H6_3 C2_3 1_555 1_555
C3_3 C1_3 1_555 1_555
H7_3 C3_3 1_555 1_555
H8_3 C3_3 1_555 1_555
C4_3 C1_3 1_555 1_555
H9_3 C4_3 1_555 1_555
H10_3 C4_3 1_555 1_555
C5_3 C1_3 1_555 1_555
H11_3 C5_3 1_555 1_555
H12_3 C5_3 1_555 1_555
C6_3 N1_3 1_555 1_555
C7_3 C6_3 1_555 1_555
C8_3 O1_3 1_555 1_555
C9_3 C8_3 1_555 1_555
H13_3 C9_3 1_555 1_555
C10_3 C9_3 1_555 1_555
H14_3 C10_3 1_555 1_555
C11_3 C10_3 1_555 1_555
H15_3 C11_3 1_555 1_555
C12_3 C7_3 1_555 1_555
H16_3 C12_3 1_555 1_555
C13_3 N1_3 1_555 1_555
H17_3 C13_3 1_555 1_555
H18_3 C13_3 1_555 1_555
C14_3 C13_3 1_555 1_555
C15_3 C14_3 1_555 1_555
H19_3 C15_3 1_555 1_555
C16_3 C15_3 1_555 1_555
H20_3 C16_3 1_555 1_555
C19_3 C14_3 1_555 1_555
H23_3 C19_3 1_555 1_555
H31_3 C30_3 1_555 1_555
C31_3 C30_3 1_555 1_555
H32_3 C31_3 1_555 1_555
C32_3 C31_3 1_555 1_555
H33_3 C32_3 1_555 1_555
C34_3 N3_3 1_555 1_555
C35_3 C34_3 1_555 1_555
C36_3 O3_3 1_555 1_555
C37_3 C36_3 1_555 1_555
H37_3 C39_3 1_555 1_555
C40_3 C35_3 1_555 1_555
H38_3 C40_3 1_555 1_555
C41_3 N3_3 1_555 1_555
H39_3 C41_3 1_555 1_555
H40_3 C41_3 1_555 1_555
C42_3 C41_3 1_555 1_555
C43_3 C42_3 1_555 1_555
H41_3 C43_3 1_555 1_555
C44_3 C43_3 1_555 1_555
H42_3 C44_3 1_555 1_555
C45_3 C44_3 1_555 1_555
H43_3 C45_3 1_555 1_555
C46_3 C45_3 1_555 1_555
H44_3 C46_3 1_555 1_555
C47_3 C42_3 1_555 1_555
H45_3 C47_3 1_555 1_555
C48_3 N4_3 1_555 1_555
C49_3 C48_3 1_555 1_555
C50_3 O4_3 1_555 1_555
C51_3 C50_3 1_555 1_555
H46_3 C51_3 1_555 1_555
C52_3 C51_3 1_555 1_555
H47_3 C52_3 1_555 1_555
C53_3 C52_3 1_555 1_555
H48_3 C53_3 1_555 1_555
C54_3 C49_3 1_555 1_555
H49_3 C54_3 1_555 1_555
Er6_2 O7_2 1_555 1_555
N12_3 H60_3 1_555 1_555
N24_3 O62_3 1_555 1_555
O34 C101_3 1_555 1_555
O33_3 Er1_2 1_555 1_555
O38_2 Er1_2 1_555 1_555
O65_3 N24_3 1_555 1_555
H98_3 C95_3 1_555 1_555
C97_3 C95_3 1_555 1_555
H100_3 C97_3 1_555 1_555
C101_3 N12_3 1_555 1_555
C103_3 C101_3 1_555 1_555
C105_3 O24_3 1_555 1_555
C107_3 C105_3 1_555 1_555
H104_3 C107_3 1_555 1_555
C109_3 C107_3 1_555 1_555
H106_3 C109_3 1_555 1_555
C111_3 C109_3 1_555 1_555
H108_3 C111_3 1_555 1_555
C113_3 C103_3 1_555 1_555
H110_3 C113_3 1_555 1_555
C115_3 N12_3 1_555 1_555
H112_3 C115_3 1_555 1_555
H114_3 C115_3 1_555 1_555
C117_3 C115_3 1_555 1_555
C119_3 C117_3 1_555 1_555
H116_3 C119_3 1_555 1_555
C127_3 C117_3 1_555 1_555
H124 C127_3 1_555 1_555
H128_3 C137_3 1_555 1_555
H156_3 C171_3 1_555 1_555
H158_3 C171_3 1_555 1_555
C173_3 C171_3 1_555 1_555
C175_3 C173_3 1_555 1_555
H160_3 C175_3 1_555 1_555
C177_3 C175_3 1_555 1_555
H162_3 C177_3 1_555 1_555
C179_3 C177_3 1_555 1_555
H164_3 C179_3 1_555 1_555
C181_3 C179_3 1_555 1_555
H166_3 C181_3 1_555 1_555
C183_3 C173_3 1_555 1_555
H168_3 C183_3 1_555 1_555
N5_3 O10_3 1_555 1_555
N6_3 O13_3 1_555 1_555
N7_3 O16_3 1_555 1_555
C7_3 C8_3 1_555 1_555
C11_3 C12_3 1_555 1_555
C35_3 C36_3 1_555 1_555
C39_3 C40_3 1_555 1_555
C46_3 C47_3 1_555 1_555
C49_3 C50_3 1_555 1_555
C53_3 C54_3 1_555 1_555
N24_3 O64_3 1_555 1_555
C103_3 C105_3 1_555 1_555
C111_3 C113_3 1_555 1_555
C181_3 C183_3 1_555 1_555
O8_3 Er2_4 1_555 1_555
O62_3 Er2_4 1_555 1_555
O64_3 Er2_4 1_555 1_555
O41_3 Er2_5 1_555 1_555
O61_3 Er2_5 1_555 1_555
O19_3 Er2_5 1_555 1_555
Er8_2 O5_4 1_555 1_555
N1_4 H1_4 1_555 1_555
N4_4 H4_4 1_555 1_555
N5_4 O9_4 1_555 1_555
N6_4 O12_4 1_555 1_555
N7_4 O15_4 1_555 1_555
O1_4 C2_4 1_555 1_555
O4_4 C5_4 1_555 1_555
O5_4 C6_4 1_555 1_555
O8_4 C48_4 1_555 1_555
O9_4 Er8_2 1_555 1_555
O10_4 Er8_2 1_555 1_555
O11_4 N5_4 1_555 1_555
O12_4 Er8_2 1_555 1_555
O13_4 Er8_2 1_555 1_555
O14_4 N6_4 1_555 1_555
O15_4 Er8_2 1_555 1_555
O16_4 Er8_2 1_555 1_555
O17_4 N7_4 1_555 1_555
C1_4 C2_4 1_555 1_555
C2_4 H5_4 1_555 1_555
H6_4 C2_4 1_555 1_555
C3_4 C1_4 1_555 1_555
H7_4 C3_4 1_555 1_555
H8_4 C3_4 1_555 1_555
C4_4 C1_4 1_555 1_555
H9_4 C4_4 1_555 1_555
C5_4 C1_4 1_555 1_555
H11_4 C5_4 1_555 1_555
H12_4 C5_4 1_555 1_555
C6_4 N1_4 1_555 1_555
C7_4 C6_4 1_555 1_555
C8_4 O1_4 1_555 1_555
C9_4 C8_4 1_555 1_555
H13_4 C9_4 1_555 1_555
C10_4 C9_4 1_555 1_555
H14_4 C10_4 1_555 1_555
C11_4 C10_4 1_555 1_555
H15_4 C11_4 1_555 1_555
C12_4 C7_4 1_555 1_555
H16_4 C12_4 1_555 1_555
C13_4 N1_4 1_555 1_555
H17_4 C13_4 1_555 1_555
H18_4 C13_4 1_555 1_555
C14_4 C13_4 1_555 1_555
C15_4 C14_4 1_555 1_555
H19_4 C15_4 1_555 1_555
C16_4 C15_4 1_555 1_555
H20_4 C16_4 1_555 1_555
C19_4 C14_4 1_555 1_555
H23_4 C19_4 1_555 1_555
H41_4 C43_4 1_555 1_555
C44_4 C43_4 1_555 1_555
H42_4 C44_4 1_555 1_555
C45_4 C44_4 1_555 1_555
H43_4 C45_4 1_555 1_555
C46_4 C45_4 1_555 1_555
H44_4 C46_4 1_555 1_555
C48_4 N4_4 1_555 1_555
C49_4 C48_4 1_555 1_555
C50_4 O4_4 1_555 1_555
C51_4 C50_4 1_555 1_555
H46_4 C51_4 1_555 1_555
C52_4 C51_4 1_555 1_555
H47_4 C52_4 1_555 1_555
C53_4 C52_4 1_555 1_555
H48_4 C53_4 1_555 1_555
C54_4 C49_4 1_555 1_555
H49_4 C54_4 1_555 1_555
N12_4 H60_4 1_555 1_555
N24_4 O62_4 1_555 1_555
O34_2 C101_4 1_555 1_555
O33_4 Er8_2 1_555 1_555
O65_4 N24_4 1_555 1_555
H98_4 C95_4 1_555 1_555
C97_4 C95_4 1_555 1_555
H100_4 C97_4 1_555 1_555
C101_4 N12_4 1_555 1_555
C103_4 C101_4 1_555 1_555
C105_4 O24_4 1_555 1_555
C107_4 C105_4 1_555 1_555
H104_4 C107_4 1_555 1_555
C109_4 C107_4 1_555 1_555
H106_4 C109_4 1_555 1_555
C111_4 C109_4 1_555 1_555
H108_4 C111_4 1_555 1_555
C113_4 C103_4 1_555 1_555
H110_4 C113_4 1_555 1_555
H156_4 C171_4 1_555 1_555
H158_4 C171_4 1_555 1_555
C173_4 C171_4 1_555 1_555
C175_4 C173_4 1_555 1_555
H160_4 C175_4 1_555 1_555
N5_4 O10_4 1_555 1_555
N6_4 O13_4 1_555 1_555
N7_4 O16_4 1_555 1_555
C7_4 C8_4 1_555 1_555
C11_4 C12_4 1_555 1_555
C46_4 C47_4 1_555 1_555
C49_4 C50_4 1_555 1_555
C53_4 C54_4 1_555 1_555
N24_4 O64_4 1_555 1_555
C103_4 C105_4 1_555 1_555
C111_4 C113_4 1_555 1_555
N3_4 H3_4 1_555 1_555
O39_2 C34_4 1_555 1_555
H31_4 C30_4 1_555 1_555
C31_4 C30_4 1_555 1_555
H32_4 C31_4 1_555 1_555
C32_4 C31_4 1_555 1_555
H33_4 C32_4 1_555 1_555
C34_4 N3_4 1_555 1_555
C35_4 C34_4 1_555 1_555
C36_4 O3_4 1_555 1_555
C37_4 C36_4 1_555 1_555
H37_4 C39_4 1_555 1_555
C40_4 C35_4 1_555 1_555
H38_4 C40_4 1_555 1_555
C41_4 N3_4 1_555 1_555
H39_4 C41_4 1_555 1_555
H40_4 C41_4 1_555 1_555
C42_4 C41_4 1_555 1_555
H112_4 C115_4 1_555 1_555
H114_4 C115_4 1_555 1_555
C117_4 C115_4 1_555 1_555
C119_4 C117_4 1_555 1_555
H116_4 C119_4 1_555 1_555
C127_4 C117_4 1_555 1_555
H128_4 C137_4 1_555 1_555
C179_4 C177_4 1_555 1_555
H164_4 C179_4 1_555 1_555
C181_4 C179_4 1_555 1_555
H166_4 C181_4 1_555 1_555
H168_4 C183_4 1_555 1_555
C35_4 C36_4 1_555 1_555
C39_4 C40_4 1_555 1_555
C181_4 C183_4 1_555 1_555
N2_4 H2_4 1_555 1_555
N8_4 O18_4 1_555 1_555
O35_2 C20_4 1_555 1_555
O20_4 N8_4 1_555 1_555
H21_4 C17_4 1_555 1_555
C18_4 C17_4 1_555 1_555
H22_4 C18_4 1_555 1_555
C20_4 N2_4 1_555 1_555
C21_4 C20_4 1_555 1_555
C22_4 O2_4 1_555 1_555
C23_4 C22_4 1_555 1_555
H24_4 C23_4 1_555 1_555
C24_4 C23_4 1_555 1_555
H25_4 C24_4 1_555 1_555
C25_4 C24_4 1_555 1_555
H26_4 C25_4 1_555 1_555
C26_4 C21_4 1_555 1_555
H27_4 C26_4 1_555 1_555
H50_4 C55_4 1_555 1_555
H51_4 C55_4 1_555 1_555
C56_4 C55_4 1_555 1_555
C57_4 C56_4 1_555 1_555
H52_4 C57_4 1_555 1_555
H151_4 C166_4 1_555 1_555
C21_4 C22_4 1_555 1_555
C25_4 C26_4 1_555 1_555
H28_4 C27_4 1_555 1_555
H29_4 C27_4 1_555 1_555
C28_4 C27_4 1_555 1_555
C29_4 C28_4 1_555 1_555
H30_4 C29_4 1_555 1_555
C33_4 C28_4 1_555 1_555
H36_4 C38_4 1_555 1_555
C59_4 C58_4 1_555 1_555
H54_4 C59_4 1_555 1_555
C60_4 C59_4 1_555 1_555
H55_4 C60_4 1_555 1_555
H56_4 C61_4 1_555 1_555
C60_4 C61_4 1_555 1_555
Er10_2 O30_4 1_555 1_555
N10_4 H58_4 1_555 1_555
N16_4 H64_4 1_555 1_555
N18_4 O44_4 1_555 1_555
N20_4 O50_4 1_555 1_555
N22_4 O56_4 1_555 1_555
O22_4 C65_4 1_555 1_555
O28_4 C71_4 1_555 1_555
O30_4 C73_4 1_555 1_555
O35_4 Er10_2 1_555 1_555
O42_4 Er2_6 1_555 1_555
O44_4 Er10_2 1_555 1_555
O46_4 Er10_2 1_555 1_555
O48_4 N18_4 1_555 1_555
O50_4 Er10_2 1_555 1_555
O52_4 Er10_2 1_555 1_555
O54_4 N20_4 1_555 1_555
O56_4 Er10_2 1_555 1_555
O58_4 Er10_2 1_555 1_555
O60_4 N22_4 1_555 1_555
O63_4 Er2_6 1_555 1_555
C63_4 C65_4 1_555 1_555
C65_4 H66_4 1_555 1_555
H68_4 C65_4 1_555 1_555
C67_4 C63_4 1_555 1_555
H70_4 C67_4 1_555 1_555
H72_4 C67_4 1_555 1_555
C69_4 C63_4 1_555 1_555
H74_4 C69_4 1_555 1_555
C71_4 C63_4 1_555 1_555
H78_4 C71_4 1_555 1_555
H80_4 C71_4 1_555 1_555
C73_4 N10_4 1_555 1_555
C75_4 C73_4 1_555 1_555
C77_4 O22_4 1_555 1_555
C79_4 C77_4 1_555 1_555
H82_4 C79_4 1_555 1_555
C81_4 C79_4 1_555 1_555
H84_4 C81_4 1_555 1_555
C83_4 C81_4 1_555 1_555
H86_4 C83_4 1_555 1_555
C85_4 C75_4 1_555 1_555
H88_4 C85_4 1_555 1_555
C87_4 N10_4 1_555 1_555
H90_4 C87_4 1_555 1_555
H92_4 C87_4 1_555 1_555
C89_4 C87_4 1_555 1_555
C91_4 C89_4 1_555 1_555
H94_4 C91_4 1_555 1_555
C93_4 C91_4 1_555 1_555
H96_4 C93_4 1_555 1_555
C99_4 C89_4 1_555 1_555
H102_4 C99_4 1_555 1_555
H138_4 C147_4 1_555 1_555
C149_4 C147_4 1_555 1_555
H140_4 C149_4 1_555 1_555
C151_4 C149_4 1_555 1_555
H142_4 C151_4 1_555 1_555
C153_4 C151_4 1_555 1_555
H144_4 C153_4 1_555 1_555
C157_4 N16_4 1_555 1_555
C159_4 C157_4 1_555 1_555
C161_4 O28_4 1_555 1_555
C163_4 C161_4 1_555 1_555
H148_4 C163_4 1_555 1_555
C165_4 C163_4 1_555 1_555
H150_4 C165_4 1_555 1_555
C169_4 C159_4 1_555 1_555
N18_4 O46_4 1_555 1_555
N20_4 O52_4 1_555 1_555
N22_4 O58_4 1_555 1_555
O42_4 C157_4 1_555 1_555
C75_4 C77_4 1_555 1_555
C83_4 C85_4 1_555 1_555
C153_4 C155_4 1_555 1_555
C159_4 C161_4 1_555 1_555
N14_4 H62_4 1_555 1_555
O40_2 C129_4 1_555 1_555
H118_4 C121_4 1_555 1_555
C123_4 C121_4 1_555 1_555
H120_4 C123_4 1_555 1_555
C125_4 C123_4 1_555 1_555
H122_2 C125_4 1_555 1_555
C129_4 N14_4 1_555 1_555
C131_4 C129_4 1_555 1_555
C133_4 O26_4 1_555 1_555
C135_4 C133_4 1_555 1_555
H130_4 C139_4 1_555 1_555
C141_4 C131_4 1_555 1_555
H132_4 C141_4 1_555 1_555
C143_4 N14_4 1_555 1_555
H134_4 C143_4 1_555 1_555
H136_4 C143_4 1_555 1_555
C145_4 C143_4 1_555 1_555
C131_4 C133_4 1_555 1_555
C139_4 C141_4 1_555 1_555
Er6_2 O29_4 1_555 1_555
N9_4 H57_4 1_555 1_555
N11_4 H59_4 1_555 1_555
N15_4 H63_4 1_555 1_555
N17_4 O43_4 1_555 1_555
N19_4 O49_4 1_555 1_555
N21_4 O55_4 1_555 1_555
N23_4 O61_4 1_555 1_555
O21_4 C64_4 1_555 1_555
O23_4 C66_4 1_555 1_555
O27_4 C70_4 1_555 1_555
O29_4 C72_4 1_555 1_555
O33_2 C100_4 1_555 1_555
O34_4 Er6_2 1_555 1_555
O43_4 Er6_2 1_555 1_555
O45_4 Er6_2 1_555 1_555
O47_4 N17_4 1_555 1_555
O49_4 Er6_2 1_555 1_555
O51_4 Er6_2 1_555 1_555
O53_4 N19_4 1_555 1_555
O55_4 Er6_2 1_555 1_555
O57_4 Er6_2 1_555 1_555
O59_4 N21_4 1_555 1_555
O66_4 N23_4 1_555 1_555
C62_4 C64_4 1_555 1_555
C64_4 H65_4 1_555 1_555
H67_4 C64_4 1_555 1_555
C66_4 C62_4 1_555 1_555
H69_4 C66_4 1_555 1_555
H71_4 C66_4 1_555 1_555
C68_4 C62_4 1_555 1_555
H73_4 C68_4 1_555 1_555
C70_4 C62_4 1_555 1_555
H77_4 C70_4 1_555 1_555
H79_4 C70_4 1_555 1_555
C72_4 N9_4 1_555 1_555
C74_4 C72_4 1_555 1_555
C76_4 O21_4 1_555 1_555
C78_4 C76_4 1_555 1_555
H81_4 C78_4 1_555 1_555
C80_4 C78_4 1_555 1_555
H83_4 C80_4 1_555 1_555
C82_4 C80_4 1_555 1_555
H85_4 C82_4 1_555 1_555
C84_4 C74_4 1_555 1_555
H87_4 C84_4 1_555 1_555
C86_4 N9_4 1_555 1_555
H89_4 C86_4 1_555 1_555
H91_4 C86_4 1_555 1_555
C88_4 C86_4 1_555 1_555
C90_4 C88_4 1_555 1_555
H93_4 C90_4 1_555 1_555
C92_4 C90_4 1_555 1_555
H95_4 C92_4 1_555 1_555
C94_4 C92_4 1_555 1_555
H97_4 C94_4 1_555 1_555
C96_4 C94_4 1_555 1_555
H99_4 C96_4 1_555 1_555
C98_4 C88_4 1_555 1_555
H101_4 C98_4 1_555 1_555
C100_4 N11_4 1_555 1_555
C102_4 C100_4 1_555 1_555
C104_4 O23_4 1_555 1_555
C106_4 C104_4 1_555 1_555
H103_4 C106_4 1_555 1_555
C108_4 C106_4 1_555 1_555
H105_4 C108_4 1_555 1_555
C110_4 C108_4 1_555 1_555
H107_4 C110_4 1_555 1_555
C112_4 C102_4 1_555 1_555
H109_4 C112_4 1_555 1_555
H137_4 C146_4 1_555 1_555
C148_4 C146_4 1_555 1_555
H139_4 C148_4 1_555 1_555
C150_4 C148_4 1_555 1_555
H141_4 C150_4 1_555 1_555
C152_4 C150_4 1_555 1_555
H143_4 C152_4 1_555 1_555
C156_4 N15_4 1_555 1_555
C158_4 C156_4 1_555 1_555
C160_4 O27_4 1_555 1_555
C162_4 C160_4 1_555 1_555
H147_4 C162_4 1_555 1_555
C164_4 C162_4 1_555 1_555
H149_4 C164_4 1_555 1_555
H152_4 C167_4 1_555 1_555
C168_4 C158_4 1_555 1_555
C170_4 N15_4 1_555 1_555
H155_4 C170_4 1_555 1_555
H157_4 C170_4 1_555 1_555
C172_4 C170_4 1_555 1_555
C174_4 C172_4 1_555 1_555
H159_4 C174_4 1_555 1_555
N17_4 O45_4 1_555 1_555
N19_4 O51_4 1_555 1_555
N21_4 O57_4 1_555 1_555
O41_4 C156_4 1_555 1_555
C74_4 C76_4 1_555 1_555
C82_4 C84_4 1_555 1_555
C96_4 C98_4 1_555 1_555
C102_4 C104_4 1_555 1_555
C110_4 C112_4 1_555 1_555
C152_4 C154_4 1_555 1_555
C158_4 C160_4 1_555 1_555
N13_4 H61_4 1_555 1_555
O38_2 C128_4 1_555 1_555
H111_4 C114_4 1_555 1_555
H113_4 C114_4 1_555 1_555
C116_4 C114_4 1_555 1_555
C118_4 C116_4 1_555 1_555
H115_4 C118_4 1_555 1_555
C120_4 C118_4 1_555 1_555
H117_4 C120_4 1_555 1_555
C122_4 C120_4 1_555 1_555
H119_4 C122_4 1_555 1_555
C124_4 C122_4 1_555 1_555
H121_3 C124_4 1_555 1_555
C126_4 C116_4 1_555 1_555
C128_4 N13_4 1_555 1_555
C130_4 C128_4 1_555 1_555
C132_4 O25_4 1_555 1_555
C134_4 C132_4 1_555 1_555
H125_4 C134_4 1_555 1_555
C136_4 C134_4 1_555 1_555
H127_4 C136_4 1_555 1_555
C138_4 C136_4 1_555 1_555
H129_4 C138_4 1_555 1_555
C140_4 C130_4 1_555 1_555
H131_4 C140_4 1_555 1_555
C142_4 N13_4 1_555 1_555
H133_4 C142_4 1_555 1_555
H135_4 C142_4 1_555 1_555
C144_4 C142_4 1_555 1_555
C178_4 C176_4 1_555 1_555
H163_4 C178_4 1_555 1_555
C180_4 C178_4 1_555 1_555
H165_4 C180_4 1_555 1_555
H167_4 C182_4 1_555 1_555
C124_4 C126_4 1_555 1_555
C130_4 C132_4 1_555 1_555
C138_4 C140_4 1_555 1_555
C180_4 C182_4 1_555 1_555
O8_4 Er2_7 1_555 1_555
O62_4 Er2_7 1_555 1_555
O64_4 Er2_7 1_555 1_555
O41_4 Er2_8 1_555 1_555
O61_4 Er2_8 1_555 1_555
O19_4 Er2_8 1_555 1_555
N17_5 O43_5 1_555 1_555
N19_5 O49_5 1_555 1_555
O43_5 Er9 1_555 1_555
O45_5 Er9 1_555 1_555
O47_5 N17_5 1_555 1_555
O49_5 Er9 1_555 1_555
O51_5 Er9 1_555 1_555
O53_5 N19_5 1_555 1_555
N17_5 O45_5 1_555 1_555
N19_5 O51_5 1_555 1_555
H83_5 C80_5 1_555 1_555
C82_5 C80_5 1_555 1_555
H85_5 C82_5 1_555 1_555
H119_5 C122_5 1_555 1_555
C124_5 C122_5 1_555 1_555
H121_4 C124_5 1_555 1_555
C82_5 C84_5 1_555 1_555
N1_5 H1_5 1_555 1_555
N7_5 O15_5 1_555 1_555
N8_5 O18_5 1_555 1_555
O5_5 C6_5 1_555 1_555
O17_5 N7_5 1_555 1_555
O18_5 Er2_9 1_555 1_555
O19_5 Er2_9 1_555 1_555
O20_5 N8_5 1_555 1_555
C6_5 N1_5 1_555 1_555
C13_5 N1_5 1_555 1_555
H17_5 C13_5 1_555 1_555
H18_5 C13_5 1_555 1_555
C14_5 C13_5 1_555 1_555
C15_5 C14_5 1_555 1_555
H19_5 C15_5 1_555 1_555
C16_5 C15_5 1_555 1_555
H20_5 C16_5 1_555 1_555
C17_5 C16_5 1_555 1_555
H21_5 C17_5 1_555 1_555
C18_5 C17_5 1_555 1_555
H22_5 C18_5 1_555 1_555
C19_5 C14_5 1_555 1_555
H23_5 C19_5 1_555 1_555
H24_5 C23_5 1_555 1_555
C24_5 C23_5 1_555 1_555
H25_5 C24_5 1_555 1_555
C25_5 C24_5 1_555 1_555
H26_5 C25_5 1_555 1_555
Er5 O30_5 1_555 1_555
N9_5 H57_5 1_555 1_555
N10_5 H58_5 1_555 1_555
N18_5 O44_5 1_555 1_555
N20_5 O50_5 1_555 1_555
N21_5 O55_5 1_555 1_555
N22_5 O56_5 1_555 1_555
N23_5 O61_5 1_555 1_555
N24_5 O62_5 1_555 1_555
O29_5 C72_5 1_555 1_555
O30_5 C73_5 1_555 1_555
O40_3 Er5 1_555 1_555
O44_5 Er5 1_555 1_555
O46_5 Er5 1_555 1_555
O48_5 N18_5 1_555 1_555
O50_5 Er5 1_555 1_555
O52_5 Er5 1_555 1_555
O54_5 N20_5 1_555 1_555
O56_5 Er5 1_555 1_555
O58_5 Er5 1_555 1_555
O59_5 N21_5 1_555 1_555
O60_5 N22_5 1_555 1_555
O61_5 Er2_9 1_555 1_555
O62_5 Er2_9 1_555 1_555
O63_5 Er2_9 1_555 1_555
O64_5 Er2_9 1_555 1_555
O65_5 N24_5 1_555 1_555
O66_5 N23_5 1_555 1_555
C72_5 N9_5 1_555 1_555
C73_5 N10_5 1_555 1_555
C86_5 N9_5 1_555 1_555
C87_5 N10_5 1_555 1_555
H89_5 C86_5 1_555 1_555
H90_5 C87_5 1_555 1_555
H91_5 C86_5 1_555 1_555
H92_5 C87_5 1_555 1_555
C88_5 C86_5 1_555 1_555
C89_5 C87_5 1_555 1_555
C90_5 C88_5 1_555 1_555
C91_5 C89_5 1_555 1_555
H93_5 C90_5 1_555 1_555
H94_5 C91_5 1_555 1_555
C92_5 C90_5 1_555 1_555
C93_5 C91_5 1_555 1_555
H95_5 C92_5 1_555 1_555
H96_5 C93_5 1_555 1_555
C94_5 C92_5 1_555 1_555
C95_5 C93_5 1_555 1_555
H97_5 C94_5 1_555 1_555
H98_5 C95_5 1_555 1_555
C96_5 C94_5 1_555 1_555
C97_5 C95_5 1_555 1_555
H99_5 C96_5 1_555 1_555
H100_5 C97_5 1_555 1_555
C98_5 C88_5 1_555 1_555
C99_5 C89_5 1_555 1_555
H101_5 C98_5 1_555 1_555
H102_5 C99_5 1_555 1_555
H103_5 C106_5 1_555 1_555
H104_5 C107_5 1_555 1_555
C108_5 C106_5 1_555 1_555
C109_5 C107_5 1_555 1_555
H105_5 C108_5 1_555 1_555
H106_5 C109_5 1_555 1_555
C110_5 C108_5 1_555 1_555
C111_5 C109_5 1_555 1_555
H107_5 C110_5 1_555 1_555
H108_5 C111_5 1_555 1_555
N7_5 O16_5 1_555 1_555
N8_5 O19_5 1_555 1_555
C18_5 C19_5 1_555 1_555
N18_5 O46_5 1_555 1_555
N20_5 O52_5 1_555 1_555
N21_5 O57_5 1_555 1_555
N22_5 O58_5 1_555 1_555
N23_5 O63_5 1_555 1_555
N24_5 O64_5 1_555 1_555
C96_5 C98_5 1_555 1_555
C97_5 C99_5 1_555 1_555
N2_5 H2_5 1_555 1_555
N3_5 H3_5 1_555 1_555
N4_5 H4_5 1_555 1_555
O1_5 C2_5 1_555 1_555
O2_5 C3_5 1_555 1_555
O3_5 C4_5 1_555 1_555
O4_5 C5_5 1_555 1_555
O35_3 C20_5 1_555 1_555
O7_3 C34_5 1_555 1_555
O8_5 C48_5 1_555 1_555
C1_5 C2_5 1_555 1_555
C2_5 H5_5 1_555 1_555
H6_5 C2_5 1_555 1_555
C3_5 C1_5 1_555 1_555
H7_5 C3_5 1_555 1_555
H8_5 C3_5 1_555 1_555
C4_5 C1_5 1_555 1_555
H9_5 C4_5 1_555 1_555
H10_5 C4_5 1_555 1_555
C5_5 C1_5 1_555 1_555
H11_5 C5_5 1_555 1_555
H12_5 C5_5 1_555 1_555
C8_5 O1_5 1_555 1_555
C9_5 C8_5 1_555 1_555
H13_5 C9_5 1_555 1_555
C20_5 N2_5 1_555 1_555
C21_5 C20_5 1_555 1_555
C22_5 O2_5 1_555 1_555
C26_5 C21_5 1_555 1_555
H27_5 C26_5 1_555 1_555
C27_5 N2_5 1_555 1_555
H28_5 C27_5 1_555 1_555
H29_5 C27_5 1_555 1_555
C28_5 C27_5 1_555 1_555
C29_5 C28_5 1_555 1_555
H30_5 C29_5 1_555 1_555
C30_5 C29_5 1_555 1_555
H31_5 C30_5 1_555 1_555
C33_5 C28_5 1_555 1_555
H34_5 C33_5 1_555 1_555
C34_5 N3_5 1_555 1_555
C35_5 C34_5 1_555 1_555
C36_5 O3_5 1_555 1_555
C37_5 C36_5 1_555 1_555
H35_5 C37_5 1_555 1_555
C38_5 C37_5 1_555 1_555
H36_5 C38_5 1_555 1_555
C39_5 C38_5 1_555 1_555
H37_5 C39_5 1_555 1_555
C40_5 C35_5 1_555 1_555
H38_5 C40_5 1_555 1_555
C41_5 N3_5 1_555 1_555
H39_5 C41_5 1_555 1_555
H40_5 C41_5 1_555 1_555
C42_5 C41_5 1_555 1_555
C43_5 C42_5 1_555 1_555
H41_5 C43_5 1_555 1_555
C44_5 C43_5 1_555 1_555
H42_5 C44_5 1_555 1_555
C45_5 C44_5 1_555 1_555
H43_5 C45_5 1_555 1_555
C46_5 C45_5 1_555 1_555
H44_5 C46_5 1_555 1_555
C47_5 C42_5 1_555 1_555
H45_5 C47_5 1_555 1_555
C48_5 N4_5 1_555 1_555
C49_5 C48_5 1_555 1_555
C50_5 O4_5 1_555 1_555
C51_5 C50_5 1_555 1_555
H46_5 C51_5 1_555 1_555
C52_5 C51_5 1_555 1_555
H47_5 C52_5 1_555 1_555
C53_5 C52_5 1_555 1_555
C54_5 C49_5 1_555 1_555
H49_5 C54_5 1_555 1_555
C55_5 N4_5 1_555 1_555
H50_5 C55_5 1_555 1_555
H51_5 C55_5 1_555 1_555
C56_5 C55_5 1_555 1_555
C57_5 C56_5 1_555 1_555
H52_5 C57_5 1_555 1_555
C58_5 C57_5 1_555 1_555
H53_5 C58_5 1_555 1_555
C59_5 C58_5 1_555 1_555
H54_5 C59_5 1_555 1_555
C60_5 C59_5 1_555 1_555
H55_5 C60_5 1_555 1_555
C61_5 C56_5 1_555 1_555
H56_5 C61_5 1_555 1_555
Er5_2 O37_3 1_555 1_555
N11_5 H59_5 1_555 1_555
N12_5 H60_5 1_555 1_555
N13_5 H61_5 1_555 1_555
N14_5 H62_5 1_555 1_555
N15_5 H63_5 1_555 1_555
N16_5 H64_5 1_555 1_555
O21_5 C64_5 1_555 1_555
O22_5 C65_5 1_555 1_555
O23_5 C66_5 1_555 1_555
O24_5 C67_5 1_555 1_555
O25_5 C68_5 1_555 1_555
O26_5 C69_5 1_555 1_555
O27_5 C70_5 1_555 1_555
O28_5 C71_5 1_555 1_555
O33_3 C100_5 1_555 1_555
O34_3 C101_5 1_555 1_555
O36_3 C128_5 1_555 1_555
O37_3 C129_5 1_555 1_555
C62_5 C64_5 1_555 1_555
C63_5 C65_5 1_555 1_555
C64_5 H65_5 1_555 1_555
C65_5 H66_5 1_555 1_555
H67_5 C64_5 1_555 1_555
H68_5 C65_5 1_555 1_555
C66_5 C62_5 1_555 1_555
C67_5 C63_5 1_555 1_555
H69_5 C66_5 1_555 1_555
H70_5 C67_5 1_555 1_555
H71_5 C66_5 1_555 1_555
H72_5 C67_5 1_555 1_555
C68_5 C62_5 1_555 1_555
C69_5 C63_5 1_555 1_555
H73_5 C68_5 1_555 1_555
H74_5 C69_5 1_555 1_555
H75_5 C68_5 1_555 1_555
H76_5 C69_5 1_555 1_555
C70_5 C62_5 1_555 1_555
C71_5 C63_5 1_555 1_555
H77_5 C70_5 1_555 1_555
H78_5 C71_5 1_555 1_555
H79_5 C70_5 1_555 1_555
H80_5 C71_5 1_555 1_555
C76_5 O21_5 1_555 1_555
C77_5 O22_5 1_555 1_555
C78_5 C76_5 1_555 1_555
C79_5 C77_5 1_555 1_555
H81_5 C78_5 1_555 1_555
H82_5 C79_5 1_555 1_555
C81_5 C79_5 1_555 1_555
H84_5 C81_5 1_555 1_555
C83_5 C81_5 1_555 1_555
H86_5 C83_5 1_555 1_555
C85_5 C75_5 1_555 1_555
C100_5 N11_5 1_555 1_555
C101_5 N12_5 1_555 1_555
C102_5 C100_5 1_555 1_555
C103_5 C101_5 1_555 1_555
C104_5 O23_5 1_555 1_555
C105_5 O24_5 1_555 1_555
C112_5 C102_5 1_555 1_555
C113_5 C103_5 1_555 1_555
H109_5 C112_5 1_555 1_555
H110_5 C113_5 1_555 1_555
C114_5 N11_5 1_555 1_555
C115_5 N12_5 1_555 1_555
H111_5 C114_5 1_555 1_555
H112_5 C115_5 1_555 1_555
H113_5 C114_5 1_555 1_555
H114_5 C115_5 1_555 1_555
C116_5 C114_5 1_555 1_555
C117_5 C115_5 1_555 1_555
C118_5 C116_5 1_555 1_555
C119_5 C117_5 1_555 1_555
H115_5 C118_5 1_555 1_555
H116_5 C119_5 1_555 1_555
C120_5 C118_5 1_555 1_555
C121_5 C119_5 1_555 1_555
H117_5 C120_5 1_555 1_555
H118_5 C121_5 1_555 1_555
C123_5 C121_5 1_555 1_555
H120_5 C123_5 1_555 1_555
C125_5 C123_5 1_555 1_555
H122_3 C125_5 1_555 1_555
C126_5 C116_5 1_555 1_555
C127_5 C117_5 1_555 1_555
H123_4 C126_5 1_555 1_555
H124_3 C127_5 1_555 1_555
C128_5 N13_5 1_555 1_555
C129_5 N14_5 1_555 1_555
C130_5 C128_5 1_555 1_555
C131_5 C129_5 1_555 1_555
C132_5 O25_5 1_555 1_555
C133_5 O26_5 1_555 1_555
C134_5 C132_5 1_555 1_555
C135_5 C133_5 1_555 1_555
H125_5 C134_5 1_555 1_555
H126_5 C135_5 1_555 1_555
C136_5 C134_5 1_555 1_555
C137_5 C135_5 1_555 1_555
H127_5 C136_5 1_555 1_555
H128_5 C137_5 1_555 1_555
C138_5 C136_5 1_555 1_555
C139_5 C137_5 1_555 1_555
H129_5 C138_5 1_555 1_555
H130_5 C139_5 1_555 1_555
C140_5 C130_5 1_555 1_555
C141_5 C131_5 1_555 1_555
H131_5 C140_5 1_555 1_555
H132_5 C141_5 1_555 1_555
C142_5 N13_5 1_555 1_555
C143_5 N14_5 1_555 1_555
H133_5 C142_5 1_555 1_555
H134_5 C143_5 1_555 1_555
H135_5 C142_5 1_555 1_555
H136_5 C143_5 1_555 1_555
C144_5 C142_5 1_555 1_555
C145_5 C143_5 1_555 1_555
C146_5 C144_5 1_555 1_555
C147_5 C145_5 1_555 1_555
H137_5 C146_5 1_555 1_555
H138_5 C147_5 1_555 1_555
C148_5 C146_5 1_555 1_555
C149_5 C147_5 1_555 1_555
H139_5 C148_5 1_555 1_555
H140_5 C149_5 1_555 1_555
C150_5 C148_5 1_555 1_555
C151_5 C149_5 1_555 1_555
H141_5 C150_5 1_555 1_555
H142_5 C151_5 1_555 1_555
C152_5 C150_5 1_555 1_555
C153_5 C151_5 1_555 1_555
H143_5 C152_5 1_555 1_555
H144_5 C153_5 1_555 1_555
C154_5 C144_5 1_555 1_555
C155_5 C145_5 1_555 1_555
H145_5 C154_5 1_555 1_555
H146_5 C155_5 1_555 1_555
C156_5 N15_5 1_555 1_555
C157_5 N16_5 1_555 1_555
C158_5 C156_5 1_555 1_555
C159_5 C157_5 1_555 1_555
C160_5 O27_5 1_555 1_555
C161_5 O28_5 1_555 1_555
C162_5 C160_5 1_555 1_555
C163_5 C161_5 1_555 1_555
H147_5 C162_5 1_555 1_555
H148_5 C163_5 1_555 1_555
C164_5 C162_5 1_555 1_555
C165_5 C163_5 1_555 1_555
H149_5 C164_5 1_555 1_555
H150_5 C165_5 1_555 1_555
C166_5 C164_5 1_555 1_555
C167_5 C165_5 1_555 1_555
C168_5 C158_5 1_555 1_555
C169_5 C159_5 1_555 1_555
H153_5 C168_5 1_555 1_555
H154_5 C169_5 1_555 1_555
C170_5 N15_5 1_555 1_555
C171_5 N16_5 1_555 1_555
H155_5 C170_5 1_555 1_555
H156_5 C171_5 1_555 1_555
H157_5 C170_5 1_555 1_555
H158_5 C171_5 1_555 1_555
C172_5 C170_5 1_555 1_555
C173_5 C171_5 1_555 1_555
C174_5 C172_5 1_555 1_555
C175_5 C173_5 1_555 1_555
H159_5 C174_5 1_555 1_555
H160_5 C175_5 1_555 1_555
C176_5 C174_5 1_555 1_555
C177_5 C175_5 1_555 1_555
H161_5 C176_5 1_555 1_555
H162_5 C177_5 1_555 1_555
C178_5 C176_5 1_555 1_555
C179_5 C177_5 1_555 1_555
H163_5 C178_5 1_555 1_555
H164_5 C179_5 1_555 1_555
C180_5 C178_5 1_555 1_555
C181_5 C179_5 1_555 1_555
H165_5 C180_5 1_555 1_555
H166_5 C181_5 1_555 1_555
C182_5 C172_5 1_555 1_555
C183_5 C173_5 1_555 1_555
H167_5 C182_5 1_555 1_555
H168_5 C183_5 1_555 1_555
C7_5 C8_5 1_555 1_555
C21_5 C22_5 1_555 1_555
C35_5 C36_5 1_555 1_555
C39_5 C40_5 1_555 1_555
C46_5 C47_5 1_555 1_555
C49_5 C50_5 1_555 1_555
C53_5 C54_5 1_555 1_555
C60_5 C61_5 1_555 1_555
O41_5 C156_5 1_555 1_555
O42_5 C157_5 1_555 1_555
C74_5 C76_5 1_555 1_555
C75_5 C77_5 1_555 1_555
C83_5 C85_5 1_555 1_555
C102_5 C104_5 1_555 1_555
C103_5 C105_5 1_555 1_555
C125_5 C127_5 1_555 1_555
C130_5 C132_5 1_555 1_555
C131_5 C133_5 1_555 1_555
C138_5 C140_5 1_555 1_555
C139_5 C141_5 1_555 1_555
C152_5 C154_5 1_555 1_555
C153_5 C155_5 1_555 1_555
C158_5 C160_5 1_555 1_555
C159_5 C161_5 1_555 1_555
C166_5 C168_5 1_555 1_555
C167_5 C169_5 1_555 1_555
C180_5 C182_5 1_555 1_555
C181_5 C183_5 1_555 1_555
N5_5 O9_5 1_555 1_555
N6_5 O12_5 1_555 1_555
O9_5 Er7 1_555 1_555
O10_5 Er7 1_555 1_555
O11_5 N5_5 1_555 1_555
O12_5 Er7 1_555 1_555
O13_5 Er7 1_555 1_555
O14_5 N6_5 1_555 1_555
N5_5 O10_5 1_555 1_555
N6_5 O13_5 1_555 1_555
H14_5 C10_5 1_555 1_555
C11_5 C10_5 1_555 1_555
H15_5 C11_5 1_555 1_555
H32_5 C31_5 1_555 1_555
C32_5 C31_5 1_555 1_555
H33_5 C32_5 1_555 1_555
C11_5 C12_5 1_555 1_555
N5_6 O9_6 1_555 1_555
N6_6 O12_6 1_555 1_555
O9_6 Er7_2 1_555 1_555
O10_6 Er7_2 1_555 1_555
O11_6 N5_6 1_555 1_555
O12_6 Er7_2 1_555 1_555
O13_6 Er7_2 1_555 1_555
O14_6 N6_6 1_555 1_555
H14_6 C10_6 1_555 1_555
C11_6 C10_6 1_555 1_555
H15_6 C11_6 1_555 1_555
H16_6 C12_6 1_555 1_555
H32_6 C31_6 1_555 1_555
C32_6 C31_6 1_555 1_555
H33_6 C32_6 1_555 1_555
N5_6 O10_6 1_555 1_555
N6_6 O13_6 1_555 1_555
C11_6 C12_6 1_555 1_555
Er2_10 O8_6 1_555 1_555
N1_6 H1_6 1_555 1_555
N2_6 H2_6 1_555 1_555
N3_6 H3_6 1_555 1_555
N4_6 H4_6 1_555 1_555
N7_6 O15_6 1_555 1_555
N8_6 O18_6 1_555 1_555
O1_6 C2_6 1_555 1_555
O2_6 C3_6 1_555 1_555
O3_6 C4_6 1_555 1_555
O4_6 C5_6 1_555 1_555
O5_6 C6_6 1_555 1_555
O35_4 C20_6 1_555 1_555
O39_3 C34_6 1_555 1_555
O8_6 C48_6 1_555 1_555
O17_6 N7_6 1_555 1_555
O18_6 Er2_10 1_555 1_555
O19_6 Er2_10 1_555 1_555
O20_6 N8_6 1_555 1_555
C1_6 C2_6 1_555 1_555
C2_6 H5_6 1_555 1_555
H6_6 C2_6 1_555 1_555
C3_6 C1_6 1_555 1_555
H7_6 C3_6 1_555 1_555
H8_6 C3_6 1_555 1_555
C4_6 C1_6 1_555 1_555
H9_6 C4_6 1_555 1_555
H10_6 C4_6 1_555 1_555
C5_6 C1_6 1_555 1_555
H11_6 C5_6 1_555 1_555
H12_6 C5_6 1_555 1_555
C6_6 N1_6 1_555 1_555
C7_6 C6_6 1_555 1_555
C8_6 O1_6 1_555 1_555
C9_6 C8_6 1_555 1_555
H13_6 C9_6 1_555 1_555
C13_6 N1_6 1_555 1_555
H17_6 C13_6 1_555 1_555
H18_6 C13_6 1_555 1_555
C14_6 C13_6 1_555 1_555
C15_6 C14_6 1_555 1_555
H19_6 C15_6 1_555 1_555
C16_6 C15_6 1_555 1_555
H20_6 C16_6 1_555 1_555
C17_6 C16_6 1_555 1_555
H21_6 C17_6 1_555 1_555
C18_6 C17_6 1_555 1_555
H22_6 C18_6 1_555 1_555
C19_6 C14_6 1_555 1_555
H23_6 C19_6 1_555 1_555
C20_6 N2_6 1_555 1_555
C21_6 C20_6 1_555 1_555
C22_6 O2_6 1_555 1_555
C23_6 C22_6 1_555 1_555
H24_6 C23_6 1_555 1_555
C24_6 C23_6 1_555 1_555
H25_6 C24_6 1_555 1_555
C25_6 C24_6 1_555 1_555
H26_6 C25_6 1_555 1_555
C26_6 C21_6 1_555 1_555
H27_6 C26_6 1_555 1_555
C27_6 N2_6 1_555 1_555
H28_6 C27_6 1_555 1_555
H29_6 C27_6 1_555 1_555
C28_6 C27_6 1_555 1_555
C29_6 C28_6 1_555 1_555
H30_6 C29_6 1_555 1_555
C30_6 C29_6 1_555 1_555
H31_6 C30_6 1_555 1_555
C33_6 C28_6 1_555 1_555
H34_6 C33_6 1_555 1_555
C34_6 N3_6 1_555 1_555
C35_6 C34_6 1_555 1_555
C36_6 O3_6 1_555 1_555
C37_6 C36_6 1_555 1_555
H35_6 C37_6 1_555 1_555
C38_6 C37_6 1_555 1_555
H36_6 C38_6 1_555 1_555
C39_6 C38_6 1_555 1_555
H37_6 C39_6 1_555 1_555
C40_6 C35_6 1_555 1_555
H38_6 C40_6 1_555 1_555
C41_6 N3_6 1_555 1_555
H39_6 C41_6 1_555 1_555
H40_6 C41_6 1_555 1_555
C42_6 C41_6 1_555 1_555
C43_6 C42_6 1_555 1_555
H41_6 C43_6 1_555 1_555
C44_6 C43_6 1_555 1_555
H42_6 C44_6 1_555 1_555
C45_6 C44_6 1_555 1_555
H43_6 C45_6 1_555 1_555
C46_6 C45_6 1_555 1_555
H44_6 C46_6 1_555 1_555
C47_6 C42_6 1_555 1_555
H45_6 C47_6 1_555 1_555
C48_6 N4_6 1_555 1_555
C49_6 C48_6 1_555 1_555
C50_6 O4_6 1_555 1_555
C51_6 C50_6 1_555 1_555
H46_6 C51_6 1_555 1_555
C52_6 C51_6 1_555 1_555
H47_6 C52_6 1_555 1_555
C53_6 C52_6 1_555 1_555
H48_6 C53_6 1_555 1_555
C54_6 C49_6 1_555 1_555
H49_6 C54_6 1_555 1_555
C55_6 N4_6 1_555 1_555
H50_6 C55_6 1_555 1_555
H51_6 C55_6 1_555 1_555
C56_6 C55_6 1_555 1_555
C57_6 C56_6 1_555 1_555
H52_6 C57_6 1_555 1_555
C58_6 C57_6 1_555 1_555
H53_6 C58_6 1_555 1_555
C59_6 C58_6 1_555 1_555
H54_6 C59_6 1_555 1_555
C60_6 C59_6 1_555 1_555
H55_6 C60_6 1_555 1_555
C61_6 C56_6 1_555 1_555
H56_6 C61_6 1_555 1_555
Er5_2 O30_6 1_555 1_555
N9_6 H57_6 1_555 1_555
N10_6 H58_6 1_555 1_555
N11_6 H59_6 1_555 1_555
N12_6 H60_6 1_555 1_555
N13_6 H61_6 1_555 1_555
N14_6 H62_6 1_555 1_555
N15_6 H63_6 1_555 1_555
N16_6 H64_6 1_555 1_555
N18_6 O44_6 1_555 1_555
N20_6 O50_6 1_555 1_555
N21_6 O55_6 1_555 1_555
N22_6 O56_6 1_555 1_555
N23_6 O61_6 1_555 1_555
N24_6 O62_6 1_555 1_555
O21_6 C64_6 1_555 1_555
O22_6 C65_6 1_555 1_555
O23_6 C66_6 1_555 1_555
O24_6 C67_6 1_555 1_555
O25_6 C68_6 1_555 1_555
O26_6 C69_6 1_555 1_555
O27_6 C70_6 1_555 1_555
O28_6 C71_6 1_555 1_555
O29_6 C72_6 1_555 1_555
O30_6 C73_6 1_555 1_555
O33_4 C100_6 1_555 1_555
O34_4 C101_6 1_555 1_555
O38_3 C128_6 1_555 1_555
O40_3 C129_6 1_555 1_555
O41_6 Er2_10 1_555 1_555
O42_6 Er2_10 1_555 1_555
O44_6 Er5_2 1_555 1_555
O46_6 Er5_2 1_555 1_555
O48_6 N18_6 1_555 1_555
O50_6 Er5_2 1_555 1_555
O52_6 Er5_2 1_555 1_555
O54_6 N20_6 1_555 1_555
O56_6 Er5_2 1_555 1_555
O58_6 Er5_2 1_555 1_555
O59_6 N21_6 1_555 1_555
O60_6 N22_6 1_555 1_555
O61_6 Er2_10 1_555 1_555
O62_6 Er2_10 1_555 1_555
O63_6 Er2_10 1_555 1_555
O64_6 Er2_10 1_555 1_555
O65_6 N24_6 1_555 1_555
O66_6 N23_6 1_555 1_555
C62_6 C64_6 1_555 1_555
C63_6 C65_6 1_555 1_555
C64_6 H65_6 1_555 1_555
C65_6 H66_6 1_555 1_555
H67_6 C64_6 1_555 1_555
H68_6 C65_6 1_555 1_555
C66_6 C62_6 1_555 1_555
C67_6 C63_6 1_555 1_555
H69_6 C66_6 1_555 1_555
H70_6 C67_6 1_555 1_555
H71_6 C66_6 1_555 1_555
H72_6 C67_6 1_555 1_555
C68_6 C62_6 1_555 1_555
C69_6 C63_6 1_555 1_555
H73_6 C68_6 1_555 1_555
H74_6 C69_6 1_555 1_555
H75_6 C68_6 1_555 1_555
H76_6 C69_6 1_555 1_555
C70_6 C62_6 1_555 1_555
C71_6 C63_6 1_555 1_555
H77_6 C70_6 1_555 1_555
H78_6 C71_6 1_555 1_555
H79_6 C70_6 1_555 1_555
H80_6 C71_6 1_555 1_555
C72_6 N9_6 1_555 1_555
C73_6 N10_6 1_555 1_555
C74_6 C72_6 1_555 1_555
C75_6 C73_6 1_555 1_555
C76_6 O21_6 1_555 1_555
C77_6 O22_6 1_555 1_555
C78_6 C76_6 1_555 1_555
C79_6 C77_6 1_555 1_555
H81_6 C78_6 1_555 1_555
H82_6 C79_6 1_555 1_555
C81_6 C79_6 1_555 1_555
H84_6 C81_6 1_555 1_555
C83_6 C81_6 1_555 1_555
H86_6 C83_6 1_555 1_555
C85_6 C75_6 1_555 1_555
H88_6 C85_6 1_555 1_555
C86_6 N9_6 1_555 1_555
C87_6 N10_6 1_555 1_555
H89_6 C86_6 1_555 1_555
H90_6 C87_6 1_555 1_555
H91_6 C86_6 1_555 1_555
H92_6 C87_6 1_555 1_555
C88_6 C86_6 1_555 1_555
C89_6 C87_6 1_555 1_555
C90_6 C88_6 1_555 1_555
C91_6 C89_6 1_555 1_555
H93_6 C90_6 1_555 1_555
H94_6 C91_6 1_555 1_555
C92_6 C90_6 1_555 1_555
C93_6 C91_6 1_555 1_555
H95_6 C92_6 1_555 1_555
H96_6 C93_6 1_555 1_555
C94_6 C92_6 1_555 1_555
C95_6 C93_6 1_555 1_555
H97_6 C94_6 1_555 1_555
H98_6 C95_6 1_555 1_555
C96_6 C94_6 1_555 1_555
C97_6 C95_6 1_555 1_555
H99_6 C96_6 1_555 1_555
H100_6 C97_6 1_555 1_555
C98_6 C88_6 1_555 1_555
C99_6 C89_6 1_555 1_555
H101_6 C98_6 1_555 1_555
H102_6 C99_6 1_555 1_555
C100_6 N11_6 1_555 1_555
C101_6 N12_6 1_555 1_555
C102_6 C100_6 1_555 1_555
C103_6 C101_6 1_555 1_555
C104_6 O23_6 1_555 1_555
C105_6 O24_6 1_555 1_555
C106_6 C104_6 1_555 1_555
C107_6 C105_6 1_555 1_555
H103_6 C106_6 1_555 1_555
H104_6 C107_6 1_555 1_555
C108_6 C106_6 1_555 1_555
C109_6 C107_6 1_555 1_555
H105_6 C108_6 1_555 1_555
H106_6 C109_6 1_555 1_555
C110_6 C108_6 1_555 1_555
C111_6 C109_6 1_555 1_555
H107_6 C110_6 1_555 1_555
H108_6 C111_6 1_555 1_555
C112_6 C102_6 1_555 1_555
C113_6 C103_6 1_555 1_555
H109_6 C112_6 1_555 1_555
H110_6 C113_6 1_555 1_555
C114_6 N11_6 1_555 1_555
C115_6 N12_6 1_555 1_555
H111_6 C114_6 1_555 1_555
H112_6 C115_6 1_555 1_555
H113_6 C114_6 1_555 1_555
H114_6 C115_6 1_555 1_555
C116_6 C114_6 1_555 1_555
C117_6 C115_6 1_555 1_555
C118_6 C116_6 1_555 1_555
C119_6 C117_6 1_555 1_555
H115_6 C118_6 1_555 1_555
H116_6 C119_6 1_555 1_555
C120_6 C118_6 1_555 1_555
C121_6 C119_6 1_555 1_555
H117_6 C120_6 1_555 1_555
H118_6 C121_6 1_555 1_555
C123_6 C121_6 1_555 1_555
H120_6 C123_6 1_555 1_555
C125_6 C123_6 1_555 1_555
H122_4 C125_6 1_555 1_555
C126_6 C116_6 1_555 1_555
C127_6 C117_6 1_555 1_555
H123_5 C126_6 1_555 1_555
H124_4 C127_6 1_555 1_555
C128_6 N13_6 1_555 1_555
C129_6 N14_6 1_555 1_555
C130_6 C128_6 1_555 1_555
C131_6 C129_6 1_555 1_555
C132_6 O25_6 1_555 1_555
C133_6 O26_6 1_555 1_555
C134_6 C132_6 1_555 1_555
C135_6 C133_6 1_555 1_555
H125_6 C134_6 1_555 1_555
H126_6 C135_6 1_555 1_555
C136_6 C134_6 1_555 1_555
C137_6 C135_6 1_555 1_555
H127_6 C136_6 1_555 1_555
H128_6 C137_6 1_555 1_555
C138_6 C136_6 1_555 1_555
C139_6 C137_6 1_555 1_555
H129_6 C138_6 1_555 1_555
H130_6 C139_6 1_555 1_555
C140_6 C130_6 1_555 1_555
C141_6 C131_6 1_555 1_555
H131_6 C140_6 1_555 1_555
H132_6 C141_6 1_555 1_555
C142_6 N13_6 1_555 1_555
C143_6 N14_6 1_555 1_555
H133_6 C142_6 1_555 1_555
H134_6 C143_6 1_555 1_555
H135_6 C142_6 1_555 1_555
H136_6 C143_6 1_555 1_555
C144_6 C142_6 1_555 1_555
C145_6 C143_6 1_555 1_555
C146_6 C144_6 1_555 1_555
C147_6 C145_6 1_555 1_555
H137_6 C146_6 1_555 1_555
H138_6 C147_6 1_555 1_555
C148_6 C146_6 1_555 1_555
C149_6 C147_6 1_555 1_555
H139_6 C148_6 1_555 1_555
H140_6 C149_6 1_555 1_555
C150_6 C148_6 1_555 1_555
C151_6 C149_6 1_555 1_555
H141_6 C150_6 1_555 1_555
H142_6 C151_6 1_555 1_555
C152_6 C150_6 1_555 1_555
C153_6 C151_6 1_555 1_555
H143_6 C152_6 1_555 1_555
H144_6 C153_6 1_555 1_555
C154_6 C144_6 1_555 1_555
C155_6 C145_6 1_555 1_555
H145_6 C154_6 1_555 1_555
H146_6 C155_6 1_555 1_555
C156_6 N15_6 1_555 1_555
C157_6 N16_6 1_555 1_555
C158_6 C156_6 1_555 1_555
C159_6 C157_6 1_555 1_555
C160_6 O27_6 1_555 1_555
C161_6 O28_6 1_555 1_555
C162_6 C160_6 1_555 1_555
C163_6 C161_6 1_555 1_555
H147_6 C162_6 1_555 1_555
H148_6 C163_6 1_555 1_555
C164_6 C162_6 1_555 1_555
C165_6 C163_6 1_555 1_555
H149_6 C164_6 1_555 1_555
H150_6 C165_6 1_555 1_555
C166_6 C164_6 1_555 1_555
C167_6 C165_6 1_555 1_555
H151_6 C166_6 1_555 1_555
H152_6 C167_6 1_555 1_555
C168_6 C158_6 1_555 1_555
C169_6 C159_6 1_555 1_555
H153_6 C168_6 1_555 1_555
H154_6 C169_6 1_555 1_555
C170_6 N15_6 1_555 1_555
C171_6 N16_6 1_555 1_555
H155_6 C170_6 1_555 1_555
H156_6 C171_6 1_555 1_555
H157_6 C170_6 1_555 1_555
H158_6 C171_6 1_555 1_555
C172_6 C170_6 1_555 1_555
C173_6 C171_6 1_555 1_555
C174_6 C172_6 1_555 1_555
C175_6 C173_6 1_555 1_555
H159_6 C174_6 1_555 1_555
H160_6 C175_6 1_555 1_555
C176_6 C174_6 1_555 1_555
C177_6 C175_6 1_555 1_555
H161_6 C176_6 1_555 1_555
H162_6 C177_6 1_555 1_555
C178_6 C176_6 1_555 1_555
C179_6 C177_6 1_555 1_555
H163_6 C178_6 1_555 1_555
H164_6 C179_6 1_555 1_555
C180_6 C178_6 1_555 1_555
C181_6 C179_6 1_555 1_555
H165_6 C180_6 1_555 1_555
H166_6 C181_6 1_555 1_555
C182_6 C172_6 1_555 1_555
C183_6 C173_6 1_555 1_555
H167_6 C182_6 1_555 1_555
H168_6 C183_6 1_555 1_555
N7_6 O16_6 1_555 1_555
N8_6 O19_6 1_555 1_555
C7_6 C8_6 1_555 1_555
C18_6 C19_6 1_555 1_555
C21_6 C22_6 1_555 1_555
C25_6 C26_6 1_555 1_555
C35_6 C36_6 1_555 1_555
C39_6 C40_6 1_555 1_555
C46_6 C47_6 1_555 1_555
C49_6 C50_6 1_555 1_555
C53_6 C54_6 1_555 1_555
C60_6 C61_6 1_555 1_555
N18_6 O46_6 1_555 1_555
N20_6 O52_6 1_555 1_555
N21_6 O57_6 1_555 1_555
N22_6 O58_6 1_555 1_555
N23_6 O63_6 1_555 1_555
N24_6 O64_6 1_555 1_555
O41_6 C156_6 1_555 1_555
O42_6 C157_6 1_555 1_555
C74_6 C76_6 1_555 1_555
C75_6 C77_6 1_555 1_555
C83_6 C85_6 1_555 1_555
C96_6 C98_6 1_555 1_555
C97_6 C99_6 1_555 1_555
C102_6 C104_6 1_555 1_555
C103_6 C105_6 1_555 1_555
C110_6 C112_6 1_555 1_555
C111_6 C113_6 1_555 1_555
C125_6 C127_6 1_555 1_555
C130_6 C132_6 1_555 1_555
C131_6 C133_6 1_555 1_555
C138_6 C140_6 1_555 1_555
C139_6 C141_6 1_555 1_555
C152_6 C154_6 1_555 1_555
C153_6 C155_6 1_555 1_555
C158_6 C160_6 1_555 1_555
C159_6 C161_6 1_555 1_555
C166_6 C168_6 1_555 1_555
C167_6 C169_6 1_555 1_555
C180_6 C182_6 1_555 1_555
C181_6 C183_6 1_555 1_555
N17_6 O43_6 1_555 1_555
N19_6 O49_6 1_555 1_555
O43_6 Er9_2 1_555 1_555
O45_6 Er9_2 1_555 1_555
O47_6 N17_6 1_555 1_555
O49_6 Er9_2 1_555 1_555
O51_6 Er9_2 1_555 1_555
O53_6 N19_6 1_555 1_555
H83_6 C80_6 1_555 1_555
C82_6 C80_6 1_555 1_555
H85_6 C82_6 1_555 1_555
H87_6 C84_6 1_555 1_555
H119_6 C122_6 1_555 1_555
C124_6 C122_6 1_555 1_555
H121_5 C124_6 1_555 1_555
N17_6 O45_6 1_555 1_555
N19_6 O51_6 1_555 1_555
C82_6 C84_6 1_555 1_555

#END
