
###############################################################################
#
# This file contains modified crystal structure data generated from the
# MOF subset of the Cambridge Structural Database (CSD) v543 
# hosted by the Cambridge Crystallographic Data Centre (CCDC).
#
# This work is licensed under the Creative Commons
# Attribution-NonCommercial-ShareAlike 4.0 International License.
# To view a copy of this license, visit
# http://creativecommons.org/licenses/by-nc-sa/4.0/
# or send a letter to
# Creative Commons, PO Box 1866, Mountain View, CA 94042, USA.
#
# CIF created using the CSD Python API on 29 September 2022
# The structure has been converted into the P1 space group
# The structure has a 3D framework
# The original CSD entry LOQSEQ is in the rhombohedral crystal system
# The framework has been calculated to contain at least 10.0% void space
# The void calculation uses a probe of radius 1.32A, grid spacing 0.4
#
###############################################################################

data_LOQSEQ
_chemical_formula_moiety         '(C1098 H1008 N144 O360 Pr28)n'
_symmetry_cell_setting           triclinic
_symmetry_space_group_name_H-M   'P 1'
_symmetry_Int_Tables_number      1
_space_group_name_Hall           'P 1'
loop_
_symmetry_equiv_pos_site_id
_symmetry_equiv_pos_as_xyz
1 x,y,z
_cell_length_a                   39.597(2)
_cell_length_b                   39.597(2)
_cell_length_c                   24.266(3)
_cell_angle_alpha                90
_cell_angle_beta                 90
_cell_angle_gamma                120
_cell_volume                     32949.8
loop_
_atom_site_label
_atom_site_type_symbol
_atom_site_fract_x
_atom_site_fract_y
_atom_site_fract_z
H121 H 0.6855 0.0111 0.1659
H123 H 0.6270 0.0057 0.1914
Pr1 Pr 0.13271(4) 0.31618(4) 0.4657(2)
Pr2 Pr 0.3333 0.6667 0.3673(2)
N1 N 0.2484(7) 0.3961(6) 0.3990(10)
H1 H 0.2733 0.4073 0.3946
N2 N 0.3980(6) 0.4563(6) 0.2126(10)
H2 H 0.3806 0.4428 0.2368
N3 N 0.2075(7) 0.4049(5) 0.0942(9)
H3 H 0.2118 0.4252 0.1127
N4 N 0.3078(6) 0.5845(6) 0.2269(10)
H4 H 0.2966 0.5741 0.1961
N5 N 0.1061(7) 0.2589(7) 0.3827(10)
N6 N 0.0694(6) 0.2754(7) 0.5393(10)
N7 N 0.1046(6) 0.3573(6) 0.4082(10)
N8 N 0.3694(7) 0.6380(6) 0.4258(10)
O1 O 0.2637(5) 0.3974(5) 0.2778(8)
O2 O 0.3581(6) 0.4865(5) 0.2583(9)
O3 O 0.2809(5) 0.4544(5) 0.1323(8)
O4 O 0.2658(5) 0.5016(5) 0.2551(9)
O5 O 0.1912(6) 0.3447(6) 0.4200(9)
O6 O 0.4628(5) 0.5008(5) 0.1937(9)
O7 O 0.2048(5) 0.3732(5) 0.0148(9)
O8 O 0.3068(6) 0.6161(5) 0.3022(9)
O9 O 0.0983(5) 0.2853(5) 0.3810(8)
O10 O 0.1302(6) 0.2594(5) 0.4181(8)
O11 O 0.1029(6) 0.2394(6) 0.3395(9)
O12 O 0.0969(5) 0.3043(5) 0.5619(8)
O13 O 0.0752(5) 0.2588(5) 0.4983(7)
O14 O 0.0378(5) 0.2593(5) 0.5656(8)
O15 O 0.0865(5) 0.3333(5) 0.4443(8)
O16 O 0.1400(5) 0.3707(5) 0.3979(9)
O17 O 0.0900(5) 0.3777(6) 0.3899(10)
O18 O 0.3597(5) 0.6255(5) 0.3788(9)
O19 O 0.3716(6) 0.6705(5) 0.4384(8)
O20 O 0.3932(7) 0.6297(6) 0.4479(10)
C1 C 0.2898(9) 0.4581(9) 0.2310(13)
C2 C 0.2839(7) 0.4188(5) 0.2299(9)
H5 H 0.2691 0.4053 0.1974
H6 H 0.3091 0.4201 0.2278
C3 C 0.3219(6) 0.4806(7) 0.2777(9)
H7 H 0.3238 0.5055 0.2857
H8 H 0.3146 0.4653 0.3113
C4 C 0.3062(7) 0.4807(6) 0.1737(8)
H9 H 0.3054 0.5048 0.1733
H10 H 0.3329 0.4867 0.1678
C5 C 0.2560(6) 0.4632(6) 0.2436(10)
H11 H 0.2383 0.4541 0.2124
H12 H 0.2422 0.4471 0.2750
C6 C 0.2240(6) 0.3582(7) 0.3865(9)
C7 C 0.2257(4) 0.3379(6) 0.3375(8)
C8 C 0.2469(5) 0.3576(5) 0.2927(9)
C9 C 0.2479(5) 0.3372(6) 0.2471(8)
H13 H 0.2628 0.3505 0.2166
C10 C 0.2265(6) 0.2966(6) 0.2468(9)
H14 H 0.2265 0.2828 0.2157
C11 C 0.2056(5) 0.2771(5) 0.2923(10)
H15 H 0.1917 0.2500 0.2926
C12 C 0.2049(5) 0.2980(5) 0.3386(8)
H16 H 0.1905 0.2849 0.3696
C13 C 0.2292(7) 0.4161(6) 0.4203(10)
H17 H 0.2175 0.4059 0.4560
H18 H 0.2094 0.4143 0.3951
C14 C 0.2625(6) 0.4572(6) 0.4247(7)
C15 C 0.2699(7) 0.4924(8) 0.4064(8)
H19 H 0.2511 0.4943 0.3858
C16 C 0.3050(8) 0.5257(6) 0.4181(9)
H20 H 0.3101 0.5499 0.4049
C17 C 0.3321(6) 0.5224(6) 0.4492(10)
H21 H 0.3555 0.5446 0.4581
C18 C 0.3248(7) 0.4865(8) 0.4676(9)
H22 H 0.3437 0.4845 0.4877
C19 C 0.2895(8) 0.4532(6) 0.4563(8)
H23 H 0.2841 0.4290 0.4696
C20 C 0.4281(6) 0.4942(7) 0.2182(9)
C21 C 0.4234(5) 0.5110(6) 0.2714(7)
C22 C 0.3896(5) 0.5066(6) 0.2915(10)
C23 C 0.3869(6) 0.5229(5) 0.3410(10)
H24 H 0.3633 0.5195 0.3538
C24 C 0.4220(5) 0.5449(6) 0.3706(8)
H25 H 0.4215 0.5560 0.4041
C25 C 0.4559(6) 0.5499(6) 0.3510(9)
H26 H 0.4788 0.5651 0.3706
C26 C 0.4572(6) 0.5322(5) 0.3006(9)
H27 H 0.4805 0.5349 0.2878
C27 C 0.4018(6) 0.4440(7) 0.1581(10)
H28 H 0.4247 0.4412 0.1569
H29 H 0.4055 0.4640 0.1318
C28 C 0.3680(6) 0.4073(5) 0.1419(7)
C29 C 0.3430(6) 0.4071(5) 0.1037(7)
H30 H 0.3472 0.4303 0.0881
C30 C 0.3115(7) 0.3726(7) 0.0883(8)
H31 H 0.2946 0.3724 0.0615
C31 C 0.3043(6) 0.3378(7) 0.1119(10)
H32 H 0.2823 0.3145 0.1018
C32 C 0.3298(6) 0.3378(6) 0.1503(10)
H33 H 0.3256 0.3145 0.1659
C33 C 0.3615(6) 0.3727(5) 0.1652(8)
H34 H 0.3787 0.3730 0.1914
C34 C 0.2267(8) 0.4059(6) 0.0472(10)
C35 C 0.2680(8) 0.4391(6) 0.0423(11)
C36 C 0.2908(8) 0.4652(7) 0.0826(9)
C37 C 0.3275(8) 0.4944(7) 0.0680(10)
H35 H 0.3458 0.5085 0.0952
C38 C 0.3375(8) 0.5029(6) 0.0124(11)
H36 H 0.3616 0.5240 0.0028
C41 C 0.1780(8) 0.3640(5) 0.1095(10)
H39 H 0.1585 0.3517 0.0808
H40 H 0.1903 0.3484 0.1160
C42 C 0.1600(7) 0.3687(4) 0.1618(10)
C43 C 0.1624(6) 0.3643(5) 0.2170(12)
H41 H 0.1791 0.3558 0.2297
C44 C 0.1417(8) 0.3719(6) 0.2538(8)
H42 H 0.1445 0.3694 0.2914
C45 C 0.1155(7) 0.3836(6) 0.2343(11)
H43 H 0.1002 0.3883 0.2588
C46 C 0.1131(6) 0.3881(6) 0.1789(13)
H44 H 0.0964 0.3964 0.1656
C47 C 0.1352(9) 0.3805(6) 0.1423(9)
H45 H 0.1332 0.3834 0.1046
C48 C 0.2874(7) 0.5816(7) 0.2741(8)
C49 C 0.2504(5) 0.5432(6) 0.2839(5)
C50 C 0.2406(7) 0.5044(8) 0.2810(8)
C51 C 0.2033(8) 0.4760(6) 0.2930(9)
H46 H 0.1970 0.4500 0.2912
C52 C 0.1748(6) 0.4846(6) 0.3076(9)
H47 H 0.1496 0.4648 0.3154
C53 C 0.1844(6) 0.5234(7) 0.3106(10)
H48 H 0.1657 0.5300 0.3201
C54 C 0.2228(7) 0.5525(5) 0.2989(8)
H49 H 0.2296 0.5786 0.3013
C55 C 0.3491(6) 0.6059(6) 0.2328(9)
H50 H 0.3557 0.5992 0.2681
H51 H 0.3573 0.6334 0.2338
C56 C 0.3718(4) 0.5998(4) 0.1899(9)
C57 C 0.3934(5) 0.5834(5) 0.2042(9)
H52 H 0.3940 0.5761 0.2405
C58 C 0.4149(6) 0.5777(6) 0.1630(11)
H53 H 0.4298 0.5663 0.1717
C59 C 0.4138(6) 0.5888(5) 0.1103(10)
H54 H 0.4284 0.5853 0.0832
C60 C 0.3913(6) 0.6053(6) 0.0965(8)
H55 H 0.3906 0.6127 0.0603
C61 C 0.3701(6) 0.6108(5) 0.1370(9)
H56 H 0.3549 0.6218 0.1284
Pr3 Pr 0.68382(4) 0.81653(6) 0.4657(2)
Pr4 Pr 0.18347(6) 0.86729(4) 0.4657(2)
Pr5 Pr 0.51680(6) 0.53396(4) 0.1324(2)
Pr7 Pr 0.46604(4) 0.98285(4) 0.1324(2)
Pr9 Pr 0.01715(4) 0.48320(6) 0.1324(2)
N9 N 0.6039(6) 0.8523(9) 0.3990(10)
N10 N 0.1477(9) 0.7516(7) 0.3990(10)
H57 H 0.5927 0.8660 0.3946
H58 H 0.1340 0.7267 0.3946
N11 N 0.5437(6) 0.9417(8) 0.2126(10)
N12 N 0.0583(8) 0.6020(6) 0.2126(10)
H59 H 0.5572 0.9378 0.2368
H60 H 0.0622 0.6194 0.2368
N13 N 0.5951(5) 0.8026(9) 0.0942(9)
N14 N 0.1974(9) 0.7925(7) 0.0942(9)
H61 H 0.5748 0.7866 0.1127
H62 H 0.2134 0.7882 0.1127
N15 N 0.4155(6) 0.7233(8) 0.2269(10)
N16 N 0.2767(8) 0.6922(6) 0.2269(10)
H63 H 0.4259 0.7225 0.1961
H64 H 0.2775 0.7034 0.1961
N17 N 0.7411(7) 0.8472(10) 0.3827(10)
N18 N 0.1528(10) 0.8939(7) 0.3827(10)
N19 N 0.7246(7) 0.7940(9) 0.5393(10)
N20 N 0.2060(9) 0.9306(6) 0.5393(10)
N21 N 0.6427(6) 0.7473(8) 0.4082(10)
N22 N 0.2527(8) 0.8954(6) 0.4082(10)
N23 N 0.3620(6) 0.7314(9) 0.4258(10)
N24 N 0.2686(9) 0.6306(7) 0.4258(10)
O21 O 0.6026(5) 0.8663(7) 0.2778(8)
O22 O 0.1337(7) 0.7363(5) 0.2778(8)
O23 O 0.5135(5) 0.8716(8) 0.2583(9)
O24 O 0.1284(8) 0.6419(6) 0.2583(9)
O25 O 0.5456(5) 0.8265(7) 0.1323(8)
O26 O 0.1735(7) 0.7191(5) 0.1323(8)
O27 O 0.4984(5) 0.7642(7) 0.2551(9)
O28 O 0.2358(7) 0.7342(5) 0.2551(9)
O29 O 0.6553(6) 0.8465(8) 0.4200(9)
O30 O 0.1535(8) 0.8088(6) 0.4200(9)
O31 O 0.4992(5) 0.9620(7) 0.1937(9)
O32 O 0.0380(7) 0.5372(5) 0.1937(9)
O33 O 0.1659(5) 0.2953(7) 0.5270(9)
O34 O 0.7047(7) 0.8705(5) 0.5270(9)
O35 O 0.1295(5) 0.8341(5) 0.5270(9)
O36 O 0.6268(5) 0.8316(7) 0.0148(9)
O37 O 0.1684(7) 0.7952(5) 0.0148(9)
O38 O 0.1684(7) 0.3732(5) 0.5148(9)
O39 O 0.6268(5) 0.7952(5) 0.5148(9)
O40 O 0.2048(5) 0.8316(7) 0.5148(9)
O41 O 0.3839(5) 0.6907(8) 0.3022(9)
O42 O 0.3093(8) 0.6932(6) 0.3022(9)
O43 O 0.7147(5) 0.8130(7) 0.3810(8)
O44 O 0.1870(7) 0.9017(5) 0.3810(8)
O45 O 0.7406(5) 0.8708(8) 0.4181(8)
O46 O 0.1292(8) 0.8698(6) 0.4181(8)
O47 O 0.7606(6) 0.8635(8) 0.3395(9)
O48 O 0.1365(8) 0.8971(6) 0.3395(9)
O49 O 0.6957(5) 0.7926(7) 0.5619(8)
O50 O 0.2074(7) 0.9031(5) 0.5619(8)
O51 O 0.7412(5) 0.8164(7) 0.4983(7)
O52 O 0.1836(7) 0.9248(5) 0.4983(7)
O53 O 0.7407(5) 0.7785(7) 0.5656(8)
O54 O 0.2215(7) 0.9622(5) 0.5656(8)
O55 O 0.6667(5) 0.7532(7) 0.4443(8)
O56 O 0.2468(7) 0.9135(5) 0.4443(8)
O57 O 0.6293(5) 0.7693(7) 0.3979(9)
O58 O 0.2307(7) 0.8600(5) 0.3979(9)
O59 O 0.6223(6) 0.7123(8) 0.3899(10)
O60 O 0.2877(8) 0.9100(5) 0.3899(10)
O61 O 0.3745(5) 0.7342(7) 0.3788(9)
O62 O 0.2658(7) 0.6403(5) 0.3788(9)
O63 O 0.3295(5) 0.7011(8) 0.4384(8)
O64 O 0.2989(8) 0.6284(6) 0.4384(8)
O65 O 0.2365(9) 0.6068(7) 0.4479(10)
O66 O 0.3703(6) 0.7635(9) 0.4479(10)
C62 C 0.5419(9) 0.8317(13) 0.2310(13)
C63 C 0.1683(13) 0.7102(9) 0.2310(13)
C64 C 0.5812(5) 0.8651(9) 0.2299(9)
C65 C 0.1349(9) 0.7161(7) 0.2299(9)
H65 H 0.5947 0.8638 0.1974
H66 H 0.1362 0.7309 0.1974
H67 H 0.5799 0.8890 0.2278
H68 H 0.1110 0.6909 0.2278
C66 C 0.5194(7) 0.8413(9) 0.2777(9)
C67 C 0.1587(9) 0.6781(6) 0.2777(9)
H69 H 0.4945 0.8183 0.2857
H70 H 0.1817 0.6762 0.2857
H71 H 0.5347 0.8493 0.3113
H72 H 0.1507 0.6854 0.3113
C68 C 0.5193(6) 0.8255(9) 0.1737(8)
C69 C 0.1745(9) 0.6938(7) 0.1737(8)
H73 H 0.4952 0.8006 0.1733
H74 H 0.1994 0.6946 0.1733
H75 H 0.5133 0.8462 0.1678
H76 H 0.1538 0.6671 0.1678
C70 C 0.5368(6) 0.7928(8) 0.2436(10)
C71 C 0.2072(8) 0.7440(6) 0.2436(10)
H77 H 0.5459 0.7842 0.2124
H78 H 0.2158 0.7617 0.2124
H79 H 0.5529 0.7951 0.2750
H80 H 0.2049 0.7578 0.2750
C72 C 0.6418(7) 0.8658(9) 0.3865(9)
C73 C 0.1342(9) 0.7760(6) 0.3865(9)
C74 C 0.6621(6) 0.8878(7) 0.3375(8)
C75 C 0.1122(7) 0.7743(4) 0.3375(8)
C76 C 0.6424(5) 0.8893(7) 0.2927(9)
C77 C 0.1107(7) 0.7531(5) 0.2927(9)
C78 C 0.6628(6) 0.9107(8) 0.2471(8)
C79 C 0.0893(8) 0.7521(5) 0.2471(8)
H81 H 0.6495 0.9123 0.2166
H82 H 0.0877 0.7372 0.2166
C80 C 0.7034(6) 0.9299(8) 0.2468(9)
C81 C 0.0701(8) 0.7735(6) 0.2468(9)
H83 H 0.7172 0.9437 0.2157
H84 H 0.0563 0.7735 0.2157
C82 C 0.7229(5) 0.9285(7) 0.2923(10)
C83 C 0.0715(7) 0.7944(5) 0.2923(10)
H85 H 0.7500 0.9417 0.2926
H86 H 0.0583 0.8083 0.2926
C84 C 0.7020(5) 0.9069(7) 0.3386(8)
C85 C 0.0931(7) 0.7951(5) 0.3386(8)
H87 H 0.7151 0.9056 0.3696
H88 H 0.0944 0.8095 0.3696
C86 C 0.5839(6) 0.8131(9) 0.4203(10)
C87 C 0.1869(9) 0.7708(7) 0.4203(10)
H89 H 0.5941 0.8116 0.4560
H90 H 0.1884 0.7825 0.4560
H91 H 0.5857 0.7951 0.3951
H92 H 0.2049 0.7906 0.3951
C88 C 0.5428(6) 0.8053(8) 0.4247(7)
C89 C 0.1947(8) 0.7375(6) 0.4247(7)
C90 C 0.5076(8) 0.7775(11) 0.4064(8)
C91 C 0.2225(11) 0.7301(7) 0.4064(8)
H93 H 0.5057 0.7568 0.3858
H94 H 0.2432 0.7489 0.3858
C92 C 0.4743(6) 0.7793(10) 0.4181(9)
C93 C 0.2207(10) 0.6950(8) 0.4181(9)
H95 H 0.4501 0.7602 0.4049
H96 H 0.2398 0.6899 0.4049
C94 C 0.4776(6) 0.8097(8) 0.4492(10)
C95 C 0.1903(8) 0.6679(6) 0.4492(10)
H97 H 0.4554 0.8109 0.4581
H98 H 0.1891 0.6445 0.4581
C96 C 0.5135(8) 0.8383(11) 0.4676(9)
C97 C 0.1617(11) 0.6752(7) 0.4676(9)
H99 H 0.5155 0.8592 0.4877
H100 H 0.1408 0.6563 0.4877
C98 C 0.5468(6) 0.8363(10) 0.4563(8)
C99 C 0.1637(10) 0.7105(8) 0.4563(8)
H101 H 0.5710 0.8551 0.4696
H102 H 0.1449 0.7159 0.4696
C100 C 0.5058(7) 0.9339(9) 0.2182(9)
C101 C 0.0661(9) 0.5719(6) 0.2182(9)
C102 C 0.4890(6) 0.9124(8) 0.2714(7)
C103 C 0.0876(8) 0.5766(5) 0.2714(7)
C104 C 0.4934(6) 0.8830(8) 0.2915(10)
C105 C 0.1170(8) 0.6104(5) 0.2915(10)
C106 C 0.4771(5) 0.8640(8) 0.3410(10)
C107 C 0.1360(8) 0.6131(6) 0.3410(10)
H103 H 0.4805 0.8438 0.3538
H104 H 0.1562 0.6367 0.3538
C108 C 0.4551(6) 0.8771(8) 0.3706(8)
C109 C 0.1229(8) 0.5780(5) 0.3706(8)
H105 H 0.4440 0.8655 0.4041
H106 H 0.1345 0.5785 0.4041
C110 C 0.4501(6) 0.9060(8) 0.3510(9)
C111 C 0.0940(8) 0.5441(6) 0.3510(9)
H107 H 0.4349 0.9137 0.3706
H108 H 0.0863 0.5212 0.3706
C112 C 0.4678(5) 0.9250(8) 0.3006(9)
C113 C 0.0750(8) 0.5428(6) 0.3006(9)
H109 H 0.4651 0.9456 0.2878
H110 H 0.0544 0.5195 0.2878
C114 C 0.5560(7) 0.9578(9) 0.1581(10)
C115 C 0.0422(9) 0.5982(6) 0.1581(10)
H111 H 0.5588 0.9835 0.1569
H112 H 0.0165 0.5753 0.1569
H113 H 0.5360 0.9415 0.1318
H114 H 0.0585 0.5945 0.1318
C116 C 0.5927(5) 0.9607(8) 0.1419(7)
C117 C 0.0393(8) 0.6320(6) 0.1419(7)
C118 C 0.5929(5) 0.9359(8) 0.1037(7)
C119 C 0.0641(8) 0.6570(6) 0.1037(7)
H115 H 0.5697 0.9169 0.0881
H116 H 0.0831 0.6528 0.0881
C120 C 0.6274(7) 0.9389(10) 0.0883(8)
C121 C 0.0611(10) 0.6885(7) 0.0883(8)
H117 H 0.6276 0.9222 0.0615
H118 H 0.0778 0.7054 0.0615
C122 C 0.6622(7) 0.9665(9) 0.1119(10)
C123 C 0.0335(9) 0.6957(6) 0.1119(10)
H119 H 0.6855 0.9678 0.1018
H120 H 0.0322 0.7177 0.1018
C124 C 0.6622(6) 0.9920(8) 0.1503(10)
C125 C 0.0080(8) 0.6702(6) 0.1503(10)
C126 C 0.6273(5) 0.9888(8) 0.1652(8)
C127 C 0.0112(8) 0.6385(6) 0.1652(8)
C128 C 0.5941(6) 0.8208(10) 0.0472(10)
C129 C 0.1792(10) 0.7733(8) 0.0472(10)
C130 C 0.5609(6) 0.8289(10) 0.0423(11)
C131 C 0.1711(10) 0.7320(8) 0.0423(11)
C132 C 0.5348(7) 0.8256(11) 0.0826(9)
C133 C 0.1744(11) 0.7092(8) 0.0826(9)
C134 C 0.5056(7) 0.8331(11) 0.0680(10)
C135 C 0.1669(11) 0.6725(8) 0.0680(10)
H125 H 0.4915 0.8373 0.0952
H126 H 0.1627 0.6542 0.0952
C136 C 0.4971(6) 0.8346(10) 0.0124(11)
C137 C 0.1654(10) 0.6625(8) 0.0124(11)
H127 H 0.4760 0.8376 0.0028
H128 H 0.1624 0.6384 0.0028
C142 C 0.6360(5) 0.8140(9) 0.1095(10)
C143 C 0.1860(9) 0.8220(8) 0.1095(10)
H133 H 0.6483 0.8068 0.0808
H134 H 0.1932 0.8415 0.0808
H135 H 0.6516 0.8419 0.1160
H136 H 0.1581 0.8097 0.1160
C144 C 0.6313(4) 0.7913(8) 0.1618(10)
C145 C 0.2087(8) 0.8400(7) 0.1618(10)
C146 C 0.6357(5) 0.7981(8) 0.2170(12)
C147 C 0.2019(8) 0.8376(6) 0.2170(12)
H137 H 0.6442 0.8233 0.2297
H138 H 0.1767 0.8209 0.2297
C148 C 0.6281(6) 0.7698(10) 0.2538(8)
C149 C 0.2302(10) 0.8583(8) 0.2538(8)
H139 H 0.6306 0.7751 0.2914
H140 H 0.2249 0.8555 0.2914
C150 C 0.6164(6) 0.7319(9) 0.2343(11)
C151 C 0.2681(9) 0.8845(7) 0.2343(11)
H141 H 0.6117 0.7119 0.2588
H142 H 0.2881 0.8998 0.2588
C152 C 0.6119(6) 0.7250(8) 0.1789(13)
C153 C 0.2750(8) 0.8869(6) 0.1789(13)
H143 H 0.6036 0.7000 0.1656
H144 H 0.3000 0.9036 0.1656
C154 C 0.6195(6) 0.7547(11) 0.1423(9)
C155 C 0.2453(11) 0.8648(9) 0.1423(9)
H145 H 0.6166 0.7498 0.1046
H146 H 0.2502 0.8668 0.1046
C156 C 0.4184(7) 0.7058(10) 0.2741(8)
C157 C 0.2942(10) 0.7126(7) 0.2741(8)
C158 C 0.4568(6) 0.7072(8) 0.2839(5)
C159 C 0.2928(8) 0.7496(5) 0.2839(5)
C160 C 0.4956(8) 0.7362(11) 0.2810(8)
C161 C 0.2638(11) 0.7594(7) 0.2810(8)
C162 C 0.5240(6) 0.7273(10) 0.2930(9)
C163 C 0.2727(10) 0.7967(8) 0.2930(9)
H147 H 0.5500 0.7470 0.2912
H148 H 0.2530 0.8030 0.2912
C164 C 0.5154(6) 0.6902(8) 0.3076(9)
C165 C 0.3098(8) 0.8252(6) 0.3076(9)
H149 H 0.5352 0.6848 0.3154
H150 H 0.3152 0.8504 0.3154
C166 C 0.4766(7) 0.6610(9) 0.3106(10)
C167 C 0.3390(9) 0.8156(6) 0.3106(10)
H151 H 0.4700 0.6357 0.3201
H152 H 0.3643 0.8343 0.3201
C168 C 0.4475(5) 0.6703(9) 0.2989(8)
C169 C 0.3297(9) 0.7772(7) 0.2989(8)
H153 H 0.4214 0.6510 0.3013
H154 H 0.3490 0.7704 0.3013
C170 C 0.3941(6) 0.7432(8) 0.2328(9)
C171 C 0.2568(8) 0.6509(6) 0.2328(9)
H155 H 0.4008 0.7565 0.2681
H156 H 0.2435 0.6443 0.2681
H157 H 0.3666 0.7239 0.2338
H158 H 0.2761 0.6427 0.2338
C172 C 0.4002(4) 0.7720(6) 0.1899(9)
C173 C 0.2280(6) 0.6282(4) 0.1899(9)
C174 C 0.4166(5) 0.8100(7) 0.2042(9)
C175 C 0.1900(7) 0.6066(5) 0.2042(9)
H159 H 0.4239 0.8179 0.2405
H160 H 0.1821 0.6060 0.2405
C176 C 0.4223(6) 0.8372(8) 0.1630(11)
C177 C 0.1628(8) 0.5851(6) 0.1630(11)
H161 H 0.4337 0.8635 0.1717
H162 H 0.1365 0.5702 0.1717
C178 C 0.4112(5) 0.8250(8) 0.1103(10)
C179 C 0.1750(8) 0.5862(6) 0.1103(10)
H163 H 0.4147 0.8431 0.0832
H164 H 0.1569 0.5716 0.0832
C180 C 0.3947(6) 0.7860(8) 0.0965(8)
C181 C 0.2140(8) 0.6087(6) 0.0965(8)
H165 H 0.3873 0.7779 0.0603
H166 H 0.2221 0.6094 0.0603
C182 C 0.3892(5) 0.7593(8) 0.1370(9)
C183 C 0.2407(8) 0.6299(6) 0.1370(9)
H167 H 0.3782 0.7331 0.1284
H168 H 0.2669 0.6451 0.1284
C39 C 0.3121(7) 0.4805(7) 0.9723(9)
H37 H 0.3176 0.4874 0.9353
C40 C 0.2777(7) 0.4471(7) 0.9877(10)
H38 H 0.2613 0.4301 0.9608
Pr6 Pr 0.18347(6) 0.31618(4) 0.9657(2)
Pr8 Pr 0.68382(4) 0.86729(4) 0.9657(2)
Pr10 Pr 0.13271(4) 0.81653(6) 0.9657(2)
C138 C 0.5195(7) 0.8316(10) 0.9723(9)
C139 C 0.1684(10) 0.6879(7) 0.9723(9)
H129 H 0.5126 0.8302 0.9353
H130 H 0.1698 0.6824 0.9353
C140 C 0.5529(7) 0.8306(10) 0.9877(10)
C141 C 0.1694(10) 0.7223(7) 0.9877(10)
H131 H 0.5699 0.8312 0.9608
H132 H 0.1688 0.7387 0.9608
N6_2 N 0.7246(7) 0.9306(6) 0.0393(10)
O12_2 O 0.6957(5) 0.9031(5) 0.0619(8)
O14_2 O 0.7407(5) 0.9622(5) 0.0656(8)
N19_2 N 0.2060(9) 0.2754(7) 0.0393(10)
N20_2 N 0.0694(6) 0.7940(9) 0.0393(10)
O33_2 O 0.7047(7) 0.8341(5) 0.0270(9)
O34_2 O 0.1295(5) 0.2953(7) 0.0270(9)
O35_2 O 0.1659(5) 0.8705(5) 0.0270(9)
O49_2 O 0.2074(7) 0.3043(5) 0.0619(8)
O50_2 O 0.0969(5) 0.7926(7) 0.0619(8)
O53_2 O 0.2215(7) 0.2593(5) 0.0656(8)
O54_2 O 0.0378(5) 0.7785(7) 0.0656(8)
Pr2_2 Pr 0.3333 0.6667 0.8673(2)
N1_2 N 0.6039(6) 0.7516(7) 0.8990(10)
H1_2 H 0.5927 0.7267 0.8946
N2_2 N 0.5437(6) 0.6020(6) 0.7126(10)
H2_2 H 0.5572 0.6194 0.7368
N3_2 N 0.5951(5) 0.7925(7) 0.5942(9)
H3_2 H 0.5748 0.7882 0.6127
N4_2 N 0.4155(6) 0.6922(6) 0.7269(10)
H4_2 H 0.4259 0.7034 0.6961
N5_2 N 0.7411(7) 0.8939(7) 0.8827(10)
N7_2 N 0.6427(6) 0.8954(6) 0.9082(10)
N8_2 N 0.3620(6) 0.6306(7) 0.9258(10)
O1_2 O 0.6026(5) 0.7363(5) 0.7778(8)
O2_2 O 0.5135(5) 0.6419(6) 0.7583(9)
O3_2 O 0.5456(5) 0.7191(5) 0.6323(8)
O4_2 O 0.4984(5) 0.7342(5) 0.7551(9)
O5_2 O 0.6553(6) 0.8088(6) 0.9200(9)
O6_2 O 0.4992(5) 0.5372(5) 0.6937(9)
O8_2 O 0.3839(5) 0.6932(6) 0.8022(9)
O9_2 O 0.7147(5) 0.9017(5) 0.8810(8)
O10_2 O 0.7406(5) 0.8698(6) 0.9181(8)
O11_2 O 0.7606(6) 0.8971(6) 0.8395(9)
O13_2 O 0.7412(5) 0.9248(5) 0.9983(7)
O15_2 O 0.6667(5) 0.9135(5) 0.9443(8)
O16_2 O 0.6293(5) 0.8600(5) 0.8979(9)
O17_2 O 0.6223(6) 0.9100(5) 0.8899(10)
O18_2 O 0.3745(5) 0.6403(5) 0.8788(9)
O19_2 O 0.3295(5) 0.6284(6) 0.9384(8)
O20_2 O 0.3703(6) 0.6068(7) 0.9479(10)
C1_2 C 0.5419(9) 0.7102(9) 0.7310(13)
C2_2 C 0.5812(5) 0.7161(7) 0.7299(9)
H5_2 H 0.5947 0.7309 0.6974
H6_2 H 0.5799 0.6909 0.7278
C3_2 C 0.5194(7) 0.6781(6) 0.7777(9)
H7_2 H 0.4945 0.6762 0.7857
H8_2 H 0.5347 0.6854 0.8113
C4_2 C 0.5193(6) 0.6938(7) 0.6737(8)
H9_2 H 0.4952 0.6946 0.6733
H10_2 H 0.5133 0.6671 0.6678
C5_2 C 0.5368(6) 0.7440(6) 0.7436(10)
H11_2 H 0.5459 0.7617 0.7124
H12_2 H 0.5529 0.7578 0.7750
C6_2 C 0.6418(7) 0.7760(6) 0.8865(9)
C7_2 C 0.6621(6) 0.7743(4) 0.8375(8)
C8_2 C 0.6424(5) 0.7531(5) 0.7927(9)
C9_2 C 0.6628(6) 0.7521(5) 0.7471(8)
H13_2 H 0.6495 0.7372 0.7166
C10_2 C 0.7034(6) 0.7735(6) 0.7468(9)
H14_2 H 0.7172 0.7735 0.7157
C11_2 C 0.7229(5) 0.7944(5) 0.7923(10)
H15_2 H 0.7500 0.8083 0.7926
C12_2 C 0.7020(5) 0.7951(5) 0.8386(8)
H16_2 H 0.7151 0.8095 0.8696
C13_2 C 0.5839(6) 0.7708(7) 0.9203(10)
H17_2 H 0.5941 0.7825 0.9560
H18_2 H 0.5857 0.7906 0.8951
C14_2 C 0.5428(6) 0.7375(6) 0.9247(7)
C15_2 C 0.5076(8) 0.7301(7) 0.9064(8)
H19_2 H 0.5057 0.7489 0.8858
C16_2 C 0.4743(6) 0.6950(8) 0.9181(9)
H20_2 H 0.4501 0.6899 0.9049
C17_2 C 0.4776(6) 0.6679(6) 0.9492(10)
H21_2 H 0.4554 0.6445 0.9581
C18_2 C 0.5135(8) 0.6752(7) 0.9676(9)
H22_2 H 0.5155 0.6563 0.9877
C19_2 C 0.5468(6) 0.7105(8) 0.9563(8)
H23_2 H 0.5710 0.7159 0.9696
C20_2 C 0.5058(7) 0.5719(6) 0.7182(9)
C21_2 C 0.4890(6) 0.5766(5) 0.7714(7)
C22_2 C 0.4934(6) 0.6104(5) 0.7915(10)
C23_2 C 0.4771(5) 0.6131(6) 0.8410(10)
H24_2 H 0.4805 0.6367 0.8538
C24_2 C 0.4551(6) 0.5780(5) 0.8706(8)
H25_2 H 0.4440 0.5785 0.9041
C25_2 C 0.4501(6) 0.5441(6) 0.8510(9)
H26_2 H 0.4349 0.5212 0.8706
C26_2 C 0.4678(5) 0.5428(6) 0.8006(9)
H27_2 H 0.4651 0.5195 0.7878
C27_2 C 0.5560(7) 0.5982(6) 0.6581(10)
H28_2 H 0.5588 0.5753 0.6569
H29_2 H 0.5360 0.5945 0.6318
C28_2 C 0.5927(5) 0.6320(6) 0.6419(7)
C29_2 C 0.5929(5) 0.6570(6) 0.6037(7)
H30_2 H 0.5697 0.6528 0.5881
C30_2 C 0.6274(7) 0.6885(7) 0.5883(8)
H31_2 H 0.6276 0.7054 0.5615
C31_2 C 0.6622(7) 0.6957(6) 0.6119(10)
H32_2 H 0.6855 0.7177 0.6018
C32_2 C 0.6622(6) 0.6702(6) 0.6503(10)
H33_2 H 0.6855 0.6744 0.6659
C33_2 C 0.6273(5) 0.6385(6) 0.6652(8)
H34_2 H 0.6270 0.6213 0.6914
C34_2 C 0.5941(6) 0.7733(8) 0.5472(10)
C35_2 C 0.5609(6) 0.7320(8) 0.5423(11)
C36_2 C 0.5348(7) 0.7092(8) 0.5826(9)
C37_2 C 0.5056(7) 0.6725(8) 0.5680(10)
H35_2 H 0.4915 0.6542 0.5952
C38_2 C 0.4971(6) 0.6625(8) 0.5124(11)
H36_2 H 0.4760 0.6384 0.5028
C39_2 C 0.5195(7) 0.6879(7) 0.4723(9)
H37_2 H 0.5126 0.6824 0.4353
C40_2 C 0.5529(7) 0.7223(7) 0.4877(10)
H38_2 H 0.5699 0.7387 0.4608
C41_2 C 0.6360(5) 0.8220(8) 0.6095(10)
H39_2 H 0.6483 0.8415 0.5808
H40_2 H 0.6516 0.8097 0.6160
C42_2 C 0.6313(4) 0.8400(7) 0.6618(10)
C43_2 C 0.6357(5) 0.8376(6) 0.7170(12)
H41_2 H 0.6442 0.8209 0.7297
C44_2 C 0.6281(6) 0.8583(8) 0.7538(8)
H42_2 H 0.6306 0.8555 0.7914
C45_2 C 0.6164(6) 0.8845(7) 0.7343(11)
H43_2 H 0.6117 0.8998 0.7588
C46_2 C 0.6119(6) 0.8869(6) 0.6789(13)
H44_2 H 0.6036 0.9036 0.6656
C47_2 C 0.6195(6) 0.8648(9) 0.6423(9)
H45_2 H 0.6166 0.8668 0.6046
C48_2 C 0.4184(7) 0.7126(7) 0.7741(8)
C49_2 C 0.4568(6) 0.7496(5) 0.7839(5)
C50_2 C 0.4956(8) 0.7594(7) 0.7810(8)
C51_2 C 0.5240(6) 0.7967(8) 0.7930(9)
H46_2 H 0.5500 0.8030 0.7912
C52_2 C 0.5154(6) 0.8252(6) 0.8076(9)
H47_2 H 0.5352 0.8504 0.8154
C53_2 C 0.4766(7) 0.8156(6) 0.8106(10)
H48_2 H 0.4700 0.8343 0.8201
C54_2 C 0.4475(5) 0.7772(7) 0.7989(8)
H49_2 H 0.4214 0.7704 0.8013
C55_2 C 0.3941(6) 0.6509(6) 0.7328(9)
H50_2 H 0.4008 0.6443 0.7681
H51_2 H 0.3666 0.6427 0.7338
C56_2 C 0.4002(4) 0.6282(4) 0.6899(9)
C57_2 C 0.4166(5) 0.6066(5) 0.7042(9)
H52_2 H 0.4239 0.6060 0.7405
C58_2 C 0.4223(6) 0.5851(6) 0.6630(11)
H53_2 H 0.4337 0.5702 0.6717
C59_2 C 0.4112(5) 0.5862(6) 0.6103(10)
H54_2 H 0.4147 0.5716 0.5832
C60_2 C 0.3947(6) 0.6087(6) 0.5965(8)
H55_2 H 0.3873 0.6094 0.5603
C61_2 C 0.3892(5) 0.6299(6) 0.6370(9)
H56_2 H 0.3782 0.6451 0.6284
Pr5_2 Pr 0.46604(4) 0.48320(6) 0.6324(2)
Pr7_2 Pr 0.01715(4) 0.53396(4) 0.6324(2)
Pr9_2 Pr 0.51680(6) 0.98285(4) 0.6324(2)
N9_2 N 0.1477(9) 0.3961(6) 0.8990(10)
N10_2 N 0.2484(7) 0.8523(9) 0.8990(10)
H57_2 H 0.1340 0.4073 0.8946
H58_2 H 0.2733 0.8660 0.8946
N11_2 N 0.0583(8) 0.4563(6) 0.7126(10)
N12_2 N 0.3980(6) 0.9417(8) 0.7126(10)
H59_2 H 0.0622 0.4428 0.7368
H60_2 H 0.3806 0.9378 0.7368
N13_2 N 0.1974(9) 0.4049(5) 0.5942(9)
N14_2 N 0.2075(7) 0.8026(9) 0.5942(9)
H61_2 H 0.2134 0.4252 0.6127
H62_2 H 0.2118 0.7866 0.6127
N15_2 N 0.2767(8) 0.5845(6) 0.7269(10)
N16_2 N 0.3078(6) 0.7233(8) 0.7269(10)
H63_2 H 0.2775 0.5741 0.6961
H64_2 H 0.2966 0.7225 0.6961
N17_2 N 0.1528(10) 0.2589(7) 0.8827(10)
N18_2 N 0.1061(7) 0.8472(10) 0.8827(10)
N21_2 N 0.2527(8) 0.3573(6) 0.9082(10)
N22_2 N 0.1046(6) 0.7473(8) 0.9082(10)
N23_2 N 0.2686(9) 0.6380(6) 0.9258(10)
N24_2 N 0.3694(7) 0.7314(9) 0.9258(10)
O21_2 O 0.1337(7) 0.3974(5) 0.7778(8)
O22_2 O 0.2637(5) 0.8663(7) 0.7778(8)
O23_2 O 0.1284(8) 0.4865(5) 0.7583(9)
O24_2 O 0.3581(6) 0.8716(8) 0.7583(9)
O25_2 O 0.1735(7) 0.4544(5) 0.6323(8)
O26_2 O 0.2809(5) 0.8265(7) 0.6323(8)
O27_2 O 0.2358(7) 0.5016(5) 0.7551(9)
O28_2 O 0.2658(5) 0.7642(7) 0.7551(9)
O29_2 O 0.1535(8) 0.3447(6) 0.9200(9)
O30_2 O 0.1912(6) 0.8465(8) 0.9200(9)
O31_2 O 0.0380(7) 0.5008(5) 0.6937(9)
O32_2 O 0.4628(5) 0.9620(7) 0.6937(9)
O41_2 O 0.3093(8) 0.6161(5) 0.8022(9)
O42_2 O 0.3068(6) 0.6907(8) 0.8022(9)
O43_2 O 0.1870(7) 0.2853(5) 0.8810(8)
O44_2 O 0.0983(5) 0.8130(7) 0.8810(8)
O45_2 O 0.1292(8) 0.2594(5) 0.9181(8)
O46_2 O 0.1302(6) 0.8708(8) 0.9181(8)
O47_2 O 0.1365(8) 0.2394(6) 0.8395(9)
O48_2 O 0.1029(6) 0.8635(8) 0.8395(9)
O51_2 O 0.1836(7) 0.2588(5) 0.9983(7)
O52_2 O 0.0752(5) 0.8164(7) 0.9983(7)
O55_2 O 0.2468(7) 0.3333(5) 0.9443(8)
O56_2 O 0.0865(5) 0.7532(7) 0.9443(8)
O57_2 O 0.2307(7) 0.3707(5) 0.8979(9)
O58_2 O 0.1400(5) 0.7693(7) 0.8979(9)
O59_2 O 0.2877(8) 0.3777(6) 0.8899(10)
O60_2 O 0.0900(5) 0.7123(8) 0.8899(10)
O61_2 O 0.2658(7) 0.6255(5) 0.8788(9)
O62_2 O 0.3597(5) 0.7342(7) 0.8788(9)
O63_2 O 0.2989(8) 0.6705(5) 0.9384(8)
O64_2 O 0.3716(6) 0.7011(8) 0.9384(8)
O65_2 O 0.3932(7) 0.7635(9) 0.9479(10)
O66_2 O 0.2365(9) 0.6297(6) 0.9479(10)
C62_2 C 0.1683(13) 0.4581(9) 0.7310(13)
C63_2 C 0.2898(9) 0.8317(13) 0.7310(13)
C64_2 C 0.1349(9) 0.4188(5) 0.7299(9)
C65_2 C 0.2839(7) 0.8651(9) 0.7299(9)
H65_2 H 0.1362 0.4053 0.6974
H66_2 H 0.2691 0.8638 0.6974
H67_2 H 0.1110 0.4201 0.7278
H68_2 H 0.3091 0.8890 0.7278
C66_2 C 0.1587(9) 0.4806(7) 0.7777(9)
C67_2 C 0.3219(6) 0.8413(9) 0.7777(9)
H69_2 H 0.1817 0.5055 0.7857
H70_2 H 0.3238 0.8183 0.7857
H71_2 H 0.1507 0.4653 0.8113
H72_2 H 0.3146 0.8493 0.8113
C68_2 C 0.1745(9) 0.4807(6) 0.6737(8)
C69_2 C 0.3062(7) 0.8255(9) 0.6737(8)
H73_2 H 0.1994 0.5048 0.6733
H74_2 H 0.3054 0.8006 0.6733
H75_2 H 0.1538 0.4867 0.6678
H76_2 H 0.3329 0.8462 0.6678
C70_2 C 0.2072(8) 0.4632(6) 0.7436(10)
C71_2 C 0.2560(6) 0.7928(8) 0.7436(10)
H77_2 H 0.2158 0.4541 0.7124
H78_2 H 0.2383 0.7842 0.7124
H79_2 H 0.2049 0.4471 0.7750
H80_2 H 0.2422 0.7951 0.7750
C72_2 C 0.1342(9) 0.3582(7) 0.8865(9)
C73_2 C 0.2240(6) 0.8658(9) 0.8865(9)
C74_2 C 0.1122(7) 0.3379(6) 0.8375(8)
C75_2 C 0.2257(4) 0.8878(7) 0.8375(8)
C76_2 C 0.1107(7) 0.3576(5) 0.7927(9)
C77_2 C 0.2469(5) 0.8893(7) 0.7927(9)
C78_2 C 0.0893(8) 0.3372(6) 0.7471(8)
C79_2 C 0.2479(5) 0.9107(8) 0.7471(8)
H81_2 H 0.0877 0.3505 0.7166
H82_2 H 0.2628 0.9123 0.7166
C80_2 C 0.0701(8) 0.2966(6) 0.7468(9)
C81_2 C 0.2265(6) 0.9299(8) 0.7468(9)
H83_2 H 0.0563 0.2828 0.7157
H84_2 H 0.2265 0.9437 0.7157
C82_2 C 0.0715(7) 0.2771(5) 0.7923(10)
C83_2 C 0.2056(5) 0.9285(7) 0.7923(10)
H85_2 H 0.0583 0.2500 0.7926
H86_2 H 0.1917 0.9417 0.7926
C84_2 C 0.0931(7) 0.2980(5) 0.8386(8)
C85_2 C 0.2049(5) 0.9069(7) 0.8386(8)
H87_2 H 0.0944 0.2849 0.8696
H88_2 H 0.1905 0.9056 0.8696
C86_2 C 0.1869(9) 0.4161(6) 0.9203(10)
C87_2 C 0.2292(7) 0.8131(9) 0.9203(10)
H89_2 H 0.1884 0.4059 0.9560
H90_2 H 0.2175 0.8116 0.9560
H91_2 H 0.2049 0.4143 0.8951
H92_2 H 0.2094 0.7951 0.8951
C88_2 C 0.1947(8) 0.4572(6) 0.9247(7)
C89_2 C 0.2625(6) 0.8053(8) 0.9247(7)
C90_2 C 0.2225(11) 0.4924(8) 0.9064(8)
C91_2 C 0.2699(7) 0.7775(11) 0.9064(8)
H93_2 H 0.2432 0.4943 0.8858
H94_2 H 0.2511 0.7568 0.8858
C92_2 C 0.2207(10) 0.5257(6) 0.9181(9)
C93_2 C 0.3050(8) 0.7793(10) 0.9181(9)
H95_2 H 0.2398 0.5499 0.9049
H96_2 H 0.3101 0.7602 0.9049
C94_2 C 0.1903(8) 0.5224(6) 0.9492(10)
C95_2 C 0.3321(6) 0.8097(8) 0.9492(10)
H97_2 H 0.1891 0.5446 0.9581
H98_2 H 0.3555 0.8109 0.9581
C96_2 C 0.1617(11) 0.4865(8) 0.9676(9)
C97_2 C 0.3248(7) 0.8383(11) 0.9676(9)
H99_2 H 0.1408 0.4845 0.9877
H100_2 H 0.3437 0.8592 0.9877
C98_2 C 0.1637(10) 0.4532(6) 0.9563(8)
C99_2 C 0.2895(8) 0.8363(10) 0.9563(8)
H101_2 H 0.1449 0.4290 0.9696
H102_2 H 0.2841 0.8551 0.9696
C100_2 C 0.0661(9) 0.4942(7) 0.7182(9)
C101_2 C 0.4281(6) 0.9339(9) 0.7182(9)
C102_2 C 0.0876(8) 0.5110(6) 0.7714(7)
C103_2 C 0.4234(5) 0.9124(8) 0.7714(7)
C104_2 C 0.1170(8) 0.5066(6) 0.7915(10)
C105_2 C 0.3896(5) 0.8830(8) 0.7915(10)
C106_2 C 0.1360(8) 0.5229(5) 0.8410(10)
C107_2 C 0.3869(6) 0.8640(8) 0.8410(10)
H103_2 H 0.1562 0.5195 0.8538
H104_2 H 0.3633 0.8438 0.8538
C108_2 C 0.1229(8) 0.5449(6) 0.8706(8)
C109_2 C 0.4220(5) 0.8771(8) 0.8706(8)
H105_2 H 0.1345 0.5560 0.9041
H106_2 H 0.4215 0.8655 0.9041
C110_2 C 0.0940(8) 0.5499(6) 0.8510(9)
C111_2 C 0.4559(6) 0.9060(8) 0.8510(9)
H107_2 H 0.0863 0.5651 0.8706
H108_2 H 0.4788 0.9137 0.8706
C112_2 C 0.0750(8) 0.5322(5) 0.8006(9)
C113_2 C 0.4572(6) 0.9250(8) 0.8006(9)
H109_2 H 0.0544 0.5349 0.7878
H110_2 H 0.4805 0.9456 0.7878
C114_2 C 0.0422(9) 0.4440(7) 0.6581(10)
C115_2 C 0.4018(6) 0.9578(9) 0.6581(10)
H111_2 H 0.0165 0.4412 0.6569
H112_2 H 0.4247 0.9835 0.6569
H113_2 H 0.0585 0.4640 0.6318
H114_2 H 0.4055 0.9415 0.6318
C116_2 C 0.0393(8) 0.4073(5) 0.6419(7)
C117_2 C 0.3680(6) 0.9607(8) 0.6419(7)
C118_2 C 0.0641(8) 0.4071(5) 0.6037(7)
C119_2 C 0.3430(6) 0.9359(8) 0.6037(7)
H115_2 H 0.0831 0.4303 0.5881
H116_2 H 0.3472 0.9169 0.5881
C120_2 C 0.0611(10) 0.3726(7) 0.5883(8)
C121_2 C 0.3115(7) 0.9389(10) 0.5883(8)
H117_2 H 0.0778 0.3724 0.5615
H118_2 H 0.2946 0.9222 0.5615
C122_2 C 0.0335(9) 0.3378(7) 0.6119(10)
C123_2 C 0.3043(6) 0.9665(9) 0.6119(10)
H119_2 H 0.0322 0.3145 0.6018
H120_2 H 0.2823 0.9678 0.6018
C124_2 C 0.0080(8) 0.3378(6) 0.6503(10)
C125_2 C 0.3298(6) 0.9920(8) 0.6503(10)
C126_2 C 0.0112(8) 0.3727(5) 0.6652(8)
C127_2 C 0.3615(6) 0.9888(8) 0.6652(8)
C128_2 C 0.1792(10) 0.4059(6) 0.5472(10)
C129_2 C 0.2267(8) 0.8208(10) 0.5472(10)
C130_2 C 0.1711(10) 0.4391(6) 0.5423(11)
C131_2 C 0.2680(8) 0.8289(10) 0.5423(11)
C132_2 C 0.1744(11) 0.4652(7) 0.5826(9)
C133_2 C 0.2908(8) 0.8256(11) 0.5826(9)
C134_2 C 0.1669(11) 0.4944(7) 0.5680(10)
C135_2 C 0.3275(8) 0.8331(11) 0.5680(10)
H125_2 H 0.1627 0.5085 0.5952
H126_2 H 0.3458 0.8373 0.5952
C136_2 C 0.1654(10) 0.5029(6) 0.5124(11)
C137_2 C 0.3375(8) 0.8346(10) 0.5124(11)
H127_2 H 0.1624 0.5240 0.5028
H128_2 H 0.3616 0.8376 0.5028
C138_2 C 0.1684(10) 0.4805(7) 0.4723(9)
C139_2 C 0.3121(7) 0.8316(10) 0.4723(9)
H129_2 H 0.1698 0.4874 0.4353
H130_2 H 0.3176 0.8302 0.4353
C140_2 C 0.1694(10) 0.4471(7) 0.4877(10)
C141_2 C 0.2777(7) 0.8306(10) 0.4877(10)
H131_2 H 0.1688 0.4301 0.4608
H132_2 H 0.2613 0.8312 0.4608
C142_2 C 0.1860(9) 0.3640(5) 0.6095(10)
C143_2 C 0.1780(8) 0.8140(9) 0.6095(10)
H133_2 H 0.1932 0.3517 0.5808
H134_2 H 0.1585 0.8068 0.5808
H135_2 H 0.1581 0.3484 0.6160
H136_2 H 0.1903 0.8419 0.6160
C144_2 C 0.2087(8) 0.3687(4) 0.6618(10)
C145_2 C 0.1600(7) 0.7913(8) 0.6618(10)
C146_2 C 0.2019(8) 0.3643(5) 0.7170(12)
C147_2 C 0.1624(6) 0.7981(8) 0.7170(12)
H137_2 H 0.1767 0.3558 0.7297
H138_2 H 0.1791 0.8233 0.7297
C148_2 C 0.2302(10) 0.3719(6) 0.7538(8)
C149_2 C 0.1417(8) 0.7698(10) 0.7538(8)
H139_2 H 0.2249 0.3694 0.7914
H140_2 H 0.1445 0.7751 0.7914
C150_2 C 0.2681(9) 0.3836(6) 0.7343(11)
C151_2 C 0.1155(7) 0.7319(9) 0.7343(11)
H141_2 H 0.2881 0.3883 0.7588
H142_2 H 0.1002 0.7119 0.7588
C152_2 C 0.2750(8) 0.3881(6) 0.6789(13)
C153_2 C 0.1131(6) 0.7250(8) 0.6789(13)
H143_2 H 0.3000 0.3964 0.6656
H144_2 H 0.0964 0.7000 0.6656
C154_2 C 0.2453(11) 0.3805(6) 0.6423(9)
C155_2 C 0.1352(9) 0.7547(11) 0.6423(9)
H145_2 H 0.2502 0.3834 0.6046
H146_2 H 0.1332 0.7498 0.6046
C156_2 C 0.2942(10) 0.5816(7) 0.7741(8)
C157_2 C 0.2874(7) 0.7058(10) 0.7741(8)
C158_2 C 0.2928(8) 0.5432(6) 0.7839(5)
C159_2 C 0.2504(5) 0.7072(8) 0.7839(5)
C160_2 C 0.2638(11) 0.5044(8) 0.7810(8)
C161_2 C 0.2406(7) 0.7362(11) 0.7810(8)
C162_2 C 0.2727(10) 0.4760(6) 0.7930(9)
C163_2 C 0.2033(8) 0.7273(10) 0.7930(9)
H147_2 H 0.2530 0.4500 0.7912
H148_2 H 0.1970 0.7470 0.7912
C164_2 C 0.3098(8) 0.4846(6) 0.8076(9)
C165_2 C 0.1748(6) 0.6902(8) 0.8076(9)
H149_2 H 0.3152 0.4648 0.8154
H150_2 H 0.1496 0.6848 0.8154
C166_2 C 0.3390(9) 0.5234(7) 0.8106(10)
C167_2 C 0.1844(6) 0.6610(9) 0.8106(10)
H151_2 H 0.3643 0.5300 0.8201
H152_2 H 0.1657 0.6357 0.8201
C168_2 C 0.3297(9) 0.5525(5) 0.7989(8)
C169_2 C 0.2228(7) 0.6703(9) 0.7989(8)
H153_2 H 0.3490 0.5786 0.8013
H154_2 H 0.2296 0.6510 0.8013
C170_2 C 0.2568(8) 0.6059(6) 0.7328(9)
C171_2 C 0.3491(6) 0.7432(8) 0.7328(9)
H155_2 H 0.2435 0.5992 0.7681
H156_2 H 0.3557 0.7565 0.7681
H157_2 H 0.2761 0.6334 0.7338
H158_2 H 0.3573 0.7239 0.7338
C172_2 C 0.2280(6) 0.5998(4) 0.6899(9)
C173_2 C 0.3718(4) 0.7720(6) 0.6899(9)
C174_2 C 0.1900(7) 0.5834(5) 0.7042(9)
C175_2 C 0.3934(5) 0.8100(7) 0.7042(9)
H159_2 H 0.1821 0.5761 0.7405
H160_2 H 0.3940 0.8179 0.7405
C176_2 C 0.1628(8) 0.5777(6) 0.6630(11)
C177_2 C 0.4149(6) 0.8372(8) 0.6630(11)
H161_2 H 0.1365 0.5663 0.6717
H162_2 H 0.4298 0.8635 0.6717
C178_2 C 0.1750(8) 0.5888(5) 0.6103(10)
C179_2 C 0.4138(6) 0.8250(8) 0.6103(10)
H163_2 H 0.1569 0.5853 0.5832
H164_2 H 0.4284 0.8431 0.5832
C180_2 C 0.2140(8) 0.6053(6) 0.5965(8)
C181_2 C 0.3913(6) 0.7860(8) 0.5965(8)
H165_2 H 0.2221 0.6127 0.5603
H166_2 H 0.3906 0.7779 0.5603
C182_2 C 0.2407(8) 0.6108(5) 0.6370(9)
C183_2 C 0.3701(6) 0.7593(8) 0.6370(9)
H167_2 H 0.2669 0.6218 0.6284
H168_2 H 0.3549 0.7331 0.6284
O19_3 O 0.0383(6) 0.0038(5) 0.7717(8)
Pr3_2 Pr 0.35049(4) 0.14986(6) 0.7990(2)
Pr8_2 Pr 0.35049(4) 0.20062(4) 0.2990(2)
N9_3 N 0.2706(6) 0.1856(9) 0.7323(10)
H57_3 H 0.2594 0.1993 0.7279
N11_3 N 0.2104(6) 0.2750(8) 0.5459(10)
H59_3 H 0.2239 0.2711 0.5701
N13_3 N 0.2618(5) 0.1359(9) 0.4275(9)
H61_3 H 0.2415 0.1199 0.4460
N15_3 N 0.0822(6) 0.0566(8) 0.5602(10)
H63_3 H 0.0926 0.0558 0.5294
N17_3 N 0.4078(7) 0.1805(10) 0.7160(10)
N19_3 N 0.3913(7) 0.1273(9) 0.8726(10)
N21_3 N 0.3094(6) 0.0806(8) 0.7415(10)
N23_3 N 0.0287(6) 0.0647(9) 0.7591(10)
O21_3 O 0.2693(5) 0.1996(7) 0.6111(8)
O23_3 O 0.1802(5) 0.2049(8) 0.5916(9)
O25_3 O 0.2123(5) 0.1598(7) 0.4656(8)
O27_3 O 0.1651(5) 0.0975(7) 0.5884(9)
O29_3 O 0.3220(6) 0.1798(8) 0.7533(9)
O34_3 O 0.3713(7) 0.2039(5) 0.8604(9)
O36_2 O 0.2935(5) 0.1649(7) 0.3481(9)
O39_2 O 0.2935(5) 0.1285(5) 0.8481(9)
O41_3 O 0.0506(5) 0.0240(8) 0.6355(9)
O43_3 O 0.3814(5) 0.1463(7) 0.7143(8)
O45_3 O 0.4073(5) 0.2041(8) 0.7514(8)
O47_3 O 0.4273(6) 0.1968(8) 0.6728(9)
O49_3 O 0.3624(5) 0.1259(7) 0.8952(8)
O51_3 O 0.4079(5) 0.1497(7) 0.8316(7)
O53_3 O 0.4074(5) 0.1118(7) 0.8989(8)
O55_3 O 0.3334(5) 0.0865(7) 0.7776(8)
O57_3 O 0.2960(5) 0.1026(7) 0.7312(9)
O59_3 O 0.2890(6) 0.0456(8) 0.7232(10)
O61_3 O 0.0412(5) 0.0675(7) 0.7121(9)
O66_3 O 0.0370(6) 0.0968(9) 0.7812(10)
C62_3 C 0.2086(9) 0.1650(13) 0.5643(13)
C64_3 C 0.2479(5) 0.1984(9) 0.5632(9)
H65_3 H 0.2614 0.1971 0.5307
H67_3 H 0.2466 0.2223 0.5611
C66_3 C 0.1861(7) 0.1746(9) 0.6110(9)
H69_3 H 0.1612 0.1516 0.6190
H71_3 H 0.2014 0.1826 0.6446
C68_3 C 0.1860(6) 0.1588(9) 0.5070(8)
H73_3 H 0.1619 0.1339 0.5066
H75_3 H 0.1800 0.1795 0.5011
C70_3 C 0.2035(6) 0.1261(8) 0.5769(10)
H77_3 H 0.2126 0.1175 0.5457
H79_3 H 0.2196 0.1284 0.6083
C72_3 C 0.3085(7) 0.1991(9) 0.7198(9)
C74_3 C 0.3288(6) 0.2211(7) 0.6708(8)
C76_3 C 0.3091(5) 0.2226(7) 0.6260(9)
C78_3 C 0.3295(6) 0.2440(8) 0.5804(8)
H81_3 H 0.3162 0.2456 0.5499
C80_3 C 0.3701(6) 0.2632(8) 0.5801(9)
H83_3 H 0.3839 0.2770 0.5490
C82_3 C 0.3896(5) 0.2618(7) 0.6256(10)
H85_3 H 0.4167 0.2750 0.6259
C84_3 C 0.3687(5) 0.2402(7) 0.6719(8)
H87_3 H 0.3818 0.2389 0.7029
C86_3 C 0.2506(6) 0.1464(9) 0.7536(10)
H89_3 H 0.2608 0.1449 0.7893
H91_3 H 0.2524 0.1284 0.7284
C88_3 C 0.2095(6) 0.1386(8) 0.7580(7)
C90_3 C 0.1743(8) 0.1108(11) 0.7397(8)
H93_3 H 0.1724 0.0901 0.7191
C92_3 C 0.1410(6) 0.1126(10) 0.7514(9)
H95_3 H 0.1168 0.0935 0.7382
C94_3 C 0.1443(6) 0.1430(8) 0.7825(10)
H97_3 H 0.1221 0.1442 0.7914
C96_3 C 0.1802(8) 0.1716(11) 0.8009(9)
H99_3 H 0.1822 0.1925 0.8210
C98_3 C 0.2135(6) 0.1696(10) 0.7896(8)
H101_3 H 0.2377 0.1884 0.8029
C100_3 C 0.1725(7) 0.2672(9) 0.5515(9)
C102_3 C 0.1557(6) 0.2457(8) 0.6047(7)
C104_3 C 0.1601(6) 0.2163(8) 0.6248(10)
C106_3 C 0.1438(5) 0.1973(8) 0.6743(10)
H103_3 H 0.1472 0.1771 0.6871
C108_3 C 0.1218(6) 0.2104(8) 0.7039(8)
H105_3 H 0.1107 0.1988 0.7374
C110_3 C 0.1168(6) 0.2393(8) 0.6843(9)
H107_3 H 0.1016 0.2470 0.7039
C112_3 C 0.1345(5) 0.2583(8) 0.6339(9)
H109_3 H 0.1318 0.2789 0.6211
C114_3 C 0.2227(7) 0.2911(9) 0.4914(10)
H111_3 H 0.2255 0.3168 0.4902
H113_3 H 0.2027 0.2748 0.4651
C116_3 C 0.2594(5) 0.2940(8) 0.4752(7)
C118_3 C 0.2596(5) 0.2692(8) 0.4370(7)
H115_3 H 0.2364 0.2502 0.4214
C120_3 C 0.2941(7) 0.2722(10) 0.4216(8)
H117_3 H 0.2943 0.2555 0.3948
C122_3 C 0.3289(7) 0.2998(9) 0.4452(10)
H119_3 H 0.3522 0.3011 0.4351
C124_3 C 0.3289(6) 0.3253(8) 0.4836(10)
H121_2 H 0.3522 0.3444 0.4992
C126_3 C 0.2940(5) 0.3221(8) 0.4985(8)
H123_2 H 0.2937 0.3390 0.5247
C128_3 C 0.2608(6) 0.1541(10) 0.3805(10)
C130_3 C 0.2276(6) 0.1622(10) 0.3756(11)
C132_3 C 0.2015(7) 0.1589(11) 0.4159(9)
C134_3 C 0.1723(7) 0.1664(11) 0.4013(10)
H125_3 H 0.1582 0.1706 0.4285
C136_3 C 0.1638(6) 0.1679(10) 0.3457(11)
H127_3 H 0.1427 0.1709 0.3361
C138_3 C 0.1862(7) 0.1649(10) 0.3056(9)
H129_3 H 0.1793 0.1635 0.2686
C140_3 C 0.2196(7) 0.1639(10) 0.3210(10)
H131_3 H 0.2366 0.1645 0.2941
C142_3 C 0.3027(5) 0.1473(9) 0.4428(10)
H133_3 H 0.3150 0.1401 0.4141
H135_3 H 0.3183 0.1752 0.4493
C144_3 C 0.2980(4) 0.1246(8) 0.4951(10)
C146_3 C 0.3024(5) 0.1314(8) 0.5503(12)
H137_3 H 0.3109 0.1566 0.5630
C148_3 C 0.2948(6) 0.1031(10) 0.5871(8)
H139_3 H 0.2973 0.1084 0.6247
C150_3 C 0.2831(6) 0.0652(9) 0.5676(11)
H141_3 H 0.2784 0.0452 0.5921
C152_3 C 0.2786(6) 0.0583(8) 0.5122(13)
H143_3 H 0.2703 0.0333 0.4989
C154_3 C 0.2862(6) 0.0880(11) 0.4756(9)
H145_3 H 0.2833 0.0831 0.4379
C156_3 C 0.0851(7) 0.0391(10) 0.6074(8)
C158_3 C 0.1235(6) 0.0405(8) 0.6172(5)
C160_3 C 0.1623(8) 0.0695(11) 0.6143(8)
C162_3 C 0.1907(6) 0.0606(10) 0.6263(9)
H147_3 H 0.2167 0.0803 0.6245
C164_3 C 0.1821(6) 0.0235(8) 0.6409(9)
H149_3 H 0.2019 0.0181 0.6487
C167_3 C 0.0057(9) 0.1489(6) 0.6439(10)
H152_3 H 0.0310 0.1676 0.6534
C168_3 C 0.1142(5) 0.0036(9) 0.6322(8)
H154_3 H 0.0157 0.1037 0.6346
C170_3 C 0.0608(6) 0.0765(8) 0.5661(9)
H155_3 H 0.0675 0.0898 0.6014
H157_3 H 0.0333 0.0572 0.5671
C172_3 C 0.0669(4) 0.1053(6) 0.5232(9)
C174_3 C 0.0833(5) 0.1433(7) 0.5375(9)
H159_3 H 0.0906 0.1512 0.5738
C176_3 C 0.0890(6) 0.1705(8) 0.4963(11)
H161_3 H 0.1004 0.1968 0.5050
C178_3 C 0.0779(5) 0.1583(8) 0.4436(10)
H163_3 H 0.0814 0.1764 0.4165
C180_3 C 0.0614(6) 0.1193(8) 0.4298(8)
H165_3 H 0.0540 0.1112 0.3936
C182_3 C 0.0559(5) 0.0926(8) 0.4703(9)
H167_3 H 0.0449 0.0664 0.4617
N2_3 N 0.0647(6) 0.7896(6) 0.5459(10)
H2_3 H 0.0473 0.7761 0.5701
N8_3 N 0.0361(7) 0.9713(6) 0.7591(10)
O2_3 O 0.0248(6) 0.8198(5) 0.5916(9)
O18_3 O 0.0264(5) 0.9588(5) 0.7121(9)
O20_3 O 0.0599(7) 0.9630(6) 0.7812(10)
H21_3 H 0.0222 0.8779 0.7914
H22_3 H 0.0104 0.8178 0.8210
C20_3 C 0.0948(6) 0.8275(7) 0.5515(9)
C21_3 C 0.0901(5) 0.8443(6) 0.6047(7)
C22_3 C 0.0563(5) 0.8399(6) 0.6248(10)
C23_3 C 0.0536(6) 0.8562(5) 0.6743(10)
H24_3 H 0.0300 0.8528 0.6871
C24_3 C 0.0887(5) 0.8782(6) 0.7039(8)
H25_3 H 0.0882 0.8893 0.7374
C25_3 C 0.1226(6) 0.8832(6) 0.6843(9)
H26_3 H 0.1455 0.8984 0.7039
C26_3 C 0.1239(6) 0.8655(5) 0.6339(9)
H27_3 H 0.1472 0.8682 0.6211
C27_3 C 0.0685(6) 0.7773(7) 0.4914(10)
H28_3 H 0.0914 0.7745 0.4902
H29_3 H 0.0722 0.7973 0.4651
C28_3 C 0.0347(6) 0.7406(5) 0.4752(7)
C29_3 C 0.0097(6) 0.7404(5) 0.4370(7)
H30_3 H 0.0139 0.7636 0.4214
C33_3 C 0.0282(6) 0.7060(5) 0.4985(8)
H34_3 H 0.0454 0.7063 0.5247
H35_3 H 0.0125 0.8418 0.4285
C38_3 C 0.0042(8) 0.8362(6) 0.3457(11)
H36_3 H 0.0283 0.8573 0.3361
C55_3 C 0.0158(6) 0.9392(6) 0.5661(9)
H50_3 H 0.0224 0.9325 0.6014
H51_3 H 0.0240 0.9667 0.5671
C56_3 C 0.0385(4) 0.9331(4) 0.5232(9)
C57_3 C 0.0601(5) 0.9167(5) 0.5375(9)
H52_3 H 0.0607 0.9094 0.5738
C58_3 C 0.0816(6) 0.9110(6) 0.4963(11)
H53_3 H 0.0965 0.8996 0.5050
C59_3 C 0.0805(6) 0.9221(5) 0.4436(10)
H54_3 H 0.0951 0.9186 0.4165
C60_3 C 0.0580(6) 0.9386(6) 0.4298(8)
H55_3 H 0.0573 0.9460 0.3936
C61_3 C 0.0368(6) 0.9441(5) 0.4703(9)
H56_3 H 0.0216 0.9551 0.4617
C166_3 C 0.1433(7) 0.9943(9) 0.6439(10)
H151_3 H 0.1367 0.9690 0.6534
H153_3 H 0.0881 0.9843 0.6346
Pr2_3 Pr 1.0000 0.0000 0.7006(2)
Pr4_2 Pr 0.85014(6) 0.20062(4) 0.7990(2)
Pr10_2 Pr 0.79938(4) 0.14986(6) 0.2990(2)
N10_3 N 0.8144(9) 0.0849(7) 0.7323(10)
H58_3 H 0.8007 0.0600 0.7279
N14_3 N 0.8641(9) 0.1258(7) 0.4275(9)
H62_3 H 0.8801 0.1215 0.4460
N16_3 N 0.9434(8) 0.0255(6) 0.5602(10)
H64_3 H 0.9442 0.0367 0.5294
N18_3 N 0.8195(10) 0.2272(7) 0.7160(10)
N20_3 N 0.8727(9) 0.2639(6) 0.8726(10)
N22_3 N 0.9194(8) 0.2287(6) 0.7415(10)
O22_3 O 0.8004(7) 0.0696(5) 0.6111(8)
O26_3 O 0.8402(7) 0.0524(5) 0.4656(8)
O28_3 O 0.9025(7) 0.0675(5) 0.5884(9)
O30_3 O 0.8202(8) 0.1421(6) 0.7533(9)
O35_3 O 0.7961(5) 0.1675(5) 0.8604(9)
O37_2 O 0.8351(7) 0.1285(5) 0.3481(9)
O40_2 O 0.8715(5) 0.1649(7) 0.8481(9)
O42_3 O 0.9760(8) 0.0265(6) 0.6355(9)
O44_3 O 0.8537(7) 0.2350(5) 0.7143(8)
O46_3 O 0.7959(8) 0.2031(6) 0.7514(8)
O48_3 O 0.8032(8) 0.2304(6) 0.6728(9)
O50_3 O 0.8741(7) 0.2364(5) 0.8952(8)
O52_3 O 0.8503(7) 0.2581(5) 0.8316(7)
O54_3 O 0.8882(7) 0.2955(5) 0.8989(8)
O56_3 O 0.9135(7) 0.2468(5) 0.7776(8)
O58_3 O 0.8974(7) 0.1933(5) 0.7312(9)
O60_3 O 0.9544(8) 0.2433(5) 0.7232(10)
O63_3 O 0.9962(5) 0.0344(8) 0.7717(8)
C63_3 C 0.8350(13) 0.0435(9) 0.5643(13)
C65_3 C 0.8016(9) 0.0494(7) 0.5632(9)
H66_3 H 0.8029 0.0642 0.5307
H68_3 H 0.7777 0.0242 0.5611
C67_3 C 0.8254(9) 0.0114(6) 0.6110(9)
H70_3 H 0.8484 0.0095 0.6190
H72_3 H 0.8174 0.0187 0.6446
C69_3 C 0.8412(9) 0.0271(7) 0.5070(8)
H74_3 H 0.8661 0.0279 0.5066
H76_3 H 0.8205 0.0004 0.5011
C71_3 C 0.8739(8) 0.0773(6) 0.5769(10)
H78_3 H 0.8825 0.0950 0.5457
H80_3 H 0.8716 0.0911 0.6083
C73_3 C 0.8009(9) 0.1093(6) 0.7198(9)
C75_3 C 0.7789(7) 0.1076(4) 0.6708(8)
C77_3 C 0.7774(7) 0.0864(5) 0.6260(9)
C79_3 C 0.7560(8) 0.0854(5) 0.5804(8)
H82_3 H 0.7544 0.0705 0.5499
C81_3 C 0.7368(8) 0.1068(6) 0.5801(9)
H84_3 H 0.7230 0.1068 0.5490
C83_3 C 0.7382(7) 0.1277(5) 0.6256(10)
H86_3 H 0.7250 0.1416 0.6259
C85_3 C 0.7598(7) 0.1284(5) 0.6719(8)
H88_3 H 0.7611 0.1428 0.7029
C87_3 C 0.8536(9) 0.1041(7) 0.7536(10)
H90_3 H 0.8551 0.1158 0.7893
H92_3 H 0.8716 0.1239 0.7284
C89_3 C 0.8614(8) 0.0708(6) 0.7580(7)
C91_3 C 0.8892(11) 0.0634(7) 0.7397(8)
H94_3 H 0.9099 0.0822 0.7191
C93_3 C 0.8874(10) 0.0283(8) 0.7514(9)
H96_3 H 0.9065 0.0232 0.7382
C95_3 C 0.8570(8) 0.0012(6) 0.7825(10)
C97_3 C 0.8284(11) 0.0085(7) 0.8009(9)
C99_3 C 0.8304(10) 0.0438(8) 0.7896(8)
H102_3 H 0.8116 0.0492 0.8029
C121_3 C 0.7278(10) 0.0218(7) 0.4216(8)
H118_3 H 0.7445 0.0387 0.3948
C123_3 C 0.7002(9) 0.0290(6) 0.4452(10)
H120_3 H 0.6989 0.0510 0.4351
C125_3 C 0.6747(8) 0.0035(6) 0.4836(10)
H122 H 0.6556 0.0077 0.4992
C129_3 C 0.8459(10) 0.1066(8) 0.3805(10)
C131_3 C 0.8378(10) 0.0653(8) 0.3756(11)
C133_3 C 0.8411(11) 0.0425(8) 0.4159(9)
C135_3 C 0.8336(11) 0.0058(8) 0.4013(10)
C139_3 C 0.8351(10) 0.0212(7) 0.3056(9)
H130_3 H 0.8365 0.0157 0.2686
C141_3 C 0.8361(10) 0.0556(7) 0.3210(10)
H132_3 H 0.8355 0.0720 0.2941
C143_3 C 0.8527(9) 0.1553(8) 0.4428(10)
H134_3 H 0.8599 0.1748 0.4141
H136_3 H 0.8248 0.1430 0.4493
C145_3 C 0.8754(8) 0.1733(7) 0.4951(10)
C147_3 C 0.8686(8) 0.1709(6) 0.5503(12)
H138_3 H 0.8434 0.1542 0.5630
C149_3 C 0.8969(10) 0.1916(8) 0.5871(8)
H140_3 H 0.8916 0.1888 0.6247
C151_3 C 0.9348(9) 0.2178(7) 0.5676(11)
H142_3 H 0.9548 0.2331 0.5921
C153_3 C 0.9417(8) 0.2202(6) 0.5122(13)
H144_3 H 0.9667 0.2369 0.4989
C155_3 C 0.9120(11) 0.1981(9) 0.4756(9)
H146_3 H 0.9169 0.2001 0.4379
C157_3 C 0.9609(10) 0.0459(7) 0.6074(8)
C159_3 C 0.9595(8) 0.0829(5) 0.6172(5)
C161_3 C 0.9305(11) 0.0927(7) 0.6143(8)
C163_3 C 0.9394(10) 0.1300(8) 0.6263(9)
H148_3 H 0.9197 0.1363 0.6245
C165_3 C 0.9765(8) 0.1585(6) 0.6409(9)
H150_3 H 0.9819 0.1837 0.6487
C169_3 C 0.9964(9) 0.1105(7) 0.6322(8)
Pr1_2 Pr 0.79938(4) 0.64951(4) 0.7990(2)
N1_3 N 0.9151(7) 0.7294(6) 0.7323(10)
H1_3 H 0.9400 0.7406 0.7279
N3_3 N 0.8742(7) 0.7382(5) 0.4275(9)
H3_3 H 0.8785 0.7585 0.4460
N4_3 N 0.9745(6) 0.9178(6) 0.5602(10)
H4_3 H 0.9633 0.9074 0.5294
N5_3 N 0.7728(7) 0.5922(7) 0.7160(10)
N6_3 N 0.7361(6) 0.6087(7) 0.8726(10)
N7_3 N 0.7713(6) 0.6906(6) 0.7415(10)
O1_3 O 0.9304(5) 0.7307(5) 0.6111(8)
O3_3 O 0.9476(5) 0.7877(5) 0.4656(8)
O4_3 O 0.9325(5) 0.8349(5) 0.5884(9)
O5_3 O 0.8579(6) 0.6780(6) 0.7533(9)
O7_2 O 0.8715(5) 0.7065(5) 0.3481(9)
O8_3 O 0.9735(6) 0.9494(5) 0.6355(9)
O9_3 O 0.7650(5) 0.6186(5) 0.7143(8)
O10_3 O 0.7969(6) 0.5927(5) 0.7514(8)
O11_3 O 0.7696(6) 0.5727(6) 0.6728(9)
O12_3 O 0.7636(5) 0.6376(5) 0.8952(8)
O13_3 O 0.7419(5) 0.5921(5) 0.8316(7)
O14_3 O 0.7045(5) 0.5926(5) 0.8989(8)
O15_3 O 0.7532(5) 0.6666(5) 0.7776(8)
O16_3 O 0.8067(5) 0.7040(5) 0.7312(9)
O17_3 O 0.7567(5) 0.7110(6) 0.7232(10)
C1_3 C 0.9565(9) 0.7914(9) 0.5643(13)
C2_3 C 0.9506(7) 0.7521(5) 0.5632(9)
H5_3 H 0.9358 0.7386 0.5307
H6_3 H 0.9758 0.7534 0.5611
C3_3 C 0.9886(6) 0.8139(7) 0.6110(9)
H7_3 H 0.9905 0.8388 0.6190
H8_3 H 0.9813 0.7986 0.6446
C4_3 C 0.9729(7) 0.8140(6) 0.5070(8)
H9_3 H 0.9721 0.8381 0.5066
H10_3 H 0.9996 0.8200 0.5011
C5_3 C 0.9227(6) 0.7965(6) 0.5769(10)
H11_3 H 0.9050 0.7874 0.5457
H12_3 H 0.9089 0.7804 0.6083
C6_3 C 0.8907(6) 0.6915(7) 0.7198(9)
C7_3 C 0.8924(4) 0.6712(6) 0.6708(8)
C8_3 C 0.9136(5) 0.6909(5) 0.6260(9)
C9_3 C 0.9146(5) 0.6705(6) 0.5804(8)
H13_3 H 0.9295 0.6838 0.5499
C10_3 C 0.8932(6) 0.6299(6) 0.5801(9)
H14_3 H 0.8932 0.6161 0.5490
C11_3 C 0.8723(5) 0.6104(5) 0.6256(10)
H15_3 H 0.8584 0.5833 0.6259
C12_3 C 0.8716(5) 0.6313(5) 0.6719(8)
H16_3 H 0.8572 0.6182 0.7029
C13_3 C 0.8959(7) 0.7494(6) 0.7536(10)
H17_3 H 0.8842 0.7392 0.7893
H18_3 H 0.8761 0.7476 0.7284
C14_3 C 0.9292(6) 0.7905(6) 0.7580(7)
C15_3 C 0.9366(7) 0.8257(8) 0.7397(8)
H19_3 H 0.9178 0.8276 0.7191
C16_3 C 0.9717(8) 0.8590(6) 0.7514(9)
H20_3 H 0.9768 0.8832 0.7382
C17_3 C 0.9988(6) 0.8557(6) 0.7825(10)
C18_3 C 0.9915(7) 0.8198(8) 0.8009(9)
C19_3 C 0.9562(8) 0.7865(6) 0.7896(8)
H23_3 H 0.9508 0.7623 0.8029
C30_3 C 0.9782(7) 0.7059(7) 0.4216(8)
H31_3 H 0.9613 0.7057 0.3948
C31_3 C 0.9710(6) 0.6711(7) 0.4452(10)
H32_3 H 0.9490 0.6478 0.4351
C32_3 C 0.9965(6) 0.6711(6) 0.4836(10)
H33_3 H 0.9923 0.6478 0.4992
C34_3 C 0.8934(8) 0.7392(6) 0.3805(10)
C35_3 C 0.9347(8) 0.7724(6) 0.3756(11)
C36_3 C 0.9575(8) 0.7985(7) 0.4159(9)
C37_3 C 0.9942(8) 0.8277(7) 0.4013(10)
C39_3 C 0.9788(7) 0.8138(7) 0.3056(9)
H37_3 H 0.9843 0.8207 0.2686
C40_3 C 0.9444(7) 0.7804(7) 0.3210(10)
H38_3 H 0.9280 0.7634 0.2941
C41_3 C 0.8447(8) 0.6973(5) 0.4428(10)
H39_3 H 0.8252 0.6850 0.4141
H40_3 H 0.8570 0.6817 0.4493
C42_3 C 0.8267(7) 0.7020(4) 0.4951(10)
C43_3 C 0.8291(6) 0.6976(5) 0.5503(12)
H41_3 H 0.8458 0.6891 0.5630
C44_3 C 0.8084(8) 0.7052(6) 0.5871(8)
H42_3 H 0.8112 0.7027 0.6247
C45_3 C 0.7822(7) 0.7169(6) 0.5676(11)
H43_3 H 0.7669 0.7216 0.5921
C46_3 C 0.7798(6) 0.7214(6) 0.5122(13)
H44_3 H 0.7631 0.7297 0.4989
C47_3 C 0.8019(9) 0.7138(6) 0.4756(9)
H45_3 H 0.7999 0.7167 0.4379
C48_3 C 0.9541(7) 0.9149(7) 0.6074(8)
C49_3 C 0.9171(5) 0.8765(6) 0.6172(5)
C50_3 C 0.9073(7) 0.8377(8) 0.6143(8)
C51_3 C 0.8700(8) 0.8093(6) 0.6263(9)
H46_3 H 0.8637 0.7833 0.6245
C52_3 C 0.8415(6) 0.8179(6) 0.6409(9)
H47_3 H 0.8163 0.7981 0.6487
C53_3 C 0.8511(6) 0.8567(7) 0.6439(10)
H48_3 H 0.8324 0.8633 0.6534
C54_3 C 0.8895(7) 0.8858(5) 0.6322(8)
H49_3 H 0.8963 0.9119 0.6346
Pr6_2 Pr 0.85014(6) 0.64951(4) 0.2990(2)
N12_3 N 0.7250(8) 0.9353(6) 0.5459(10)
H60_3 H 0.7289 0.9527 0.5701
N24_3 N 0.9353(9) 0.9639(7) 0.7591(10)
O24_3 O 0.7951(8) 0.9752(6) 0.5916(9)
O33_3 O 0.8325(5) 0.6287(7) 0.8604(9)
O38_2 O 0.8351(7) 0.7065(5) 0.8481(9)
O62_3 O 0.9325(7) 0.9736(5) 0.7121(9)
O64_3 O 0.9656(8) 0.9617(6) 0.7717(8)
O65_3 O 0.9032(9) 0.9401(7) 0.7812(10)
H98_3 H 0.8558 0.9778 0.7914
H100_3 H 0.8075 0.9896 0.8210
C101_3 C 0.7328(9) 0.9052(6) 0.5515(9)
C103_3 C 0.7543(8) 0.9099(5) 0.6047(7)
C105_3 C 0.7837(8) 0.9437(5) 0.6248(10)
C107_3 C 0.8027(8) 0.9464(6) 0.6743(10)
H104_3 H 0.8229 0.9700 0.6871
C109_3 C 0.7896(8) 0.9113(5) 0.7039(8)
H106_3 H 0.8012 0.9118 0.7374
C111_3 C 0.7607(8) 0.8774(6) 0.6843(9)
H108_3 H 0.7530 0.8545 0.7039
C113_3 C 0.7417(8) 0.8761(6) 0.6339(9)
H110_3 H 0.7211 0.8528 0.6211
C115_3 C 0.7089(9) 0.9315(6) 0.4914(10)
H112_3 H 0.6832 0.9086 0.4902
H114_3 H 0.7252 0.9278 0.4651
C117_3 C 0.7060(8) 0.9653(6) 0.4752(7)
C119_3 C 0.7308(8) 0.9903(6) 0.4370(7)
H116_3 H 0.7498 0.9861 0.4214
C127_3 C 0.6779(8) 0.9718(6) 0.4985(8)
H124 H 0.6610 0.9546 0.5247
H126_3 H 0.8294 0.9875 0.4285
C137_3 C 0.8321(10) 0.9958(8) 0.3457(11)
H128_3 H 0.8291 0.9717 0.3361
C171_3 C 0.9235(8) 0.9842(6) 0.5661(9)
H156_3 H 0.9102 0.9776 0.6014
H158_3 H 0.9428 0.9760 0.5671
C173_3 C 0.8947(6) 0.9615(4) 0.5232(9)
C175_3 C 0.8567(7) 0.9399(5) 0.5375(9)
H160_3 H 0.8488 0.9393 0.5738
C177_3 C 0.8295(8) 0.9184(6) 0.4963(11)
H162_3 H 0.8032 0.9035 0.5050
C179_3 C 0.8417(8) 0.9195(6) 0.4436(10)
H164_3 H 0.8236 0.9049 0.4165
C181_3 C 0.8807(8) 0.9420(6) 0.4298(8)
H166_3 H 0.8888 0.9427 0.3936
C183_3 C 0.9074(8) 0.9632(6) 0.4703(9)
H168_3 H 0.9336 0.9784 0.4617
Pr2_4 Pr 1.0000 0.9999 0.7006(2)
Pr2_5 Pr 0.0001 0.0000 0.7006(2)
N1_4 N 0.2706(6) 0.0849(7) 0.2323(10)
H1_4 H 0.2594 0.0600 0.2279
N4_4 N 0.0822(6) 0.0255(6) 0.0602(10)
H4_4 H 0.0926 0.0367 0.0294
N5_4 N 0.4078(7) 0.2272(7) 0.2160(10)
N6_4 N 0.3913(7) 0.2639(6) 0.3726(10)
N7_4 N 0.3094(6) 0.2287(6) 0.2415(10)
O1_4 O 0.2693(5) 0.0696(5) 0.1111(8)
O4_4 O 0.1651(5) 0.0675(5) 0.0884(9)
O5_4 O 0.3220(6) 0.1421(6) 0.2533(9)
O8_4 O 0.0506(5) 0.0265(6) 0.1355(9)
O9_4 O 0.3814(5) 0.2350(5) 0.2143(8)
O10_4 O 0.4073(5) 0.2031(6) 0.2514(8)
O11_4 O 0.4273(6) 0.2304(6) 0.1728(9)
O12_4 O 0.3624(5) 0.2364(5) 0.3952(8)
O13_4 O 0.4079(5) 0.2581(5) 0.3316(7)
O14_4 O 0.4074(5) 0.2955(5) 0.3989(8)
O15_4 O 0.3334(5) 0.2468(5) 0.2776(8)
O16_4 O 0.2960(5) 0.1933(5) 0.2312(9)
O17_4 O 0.2890(6) 0.2433(5) 0.2232(10)
C1_4 C 0.2086(9) 0.0435(9) 0.0643(13)
C2_4 C 0.2479(5) 0.0494(7) 0.0632(9)
H5_4 H 0.2614 0.0642 0.0307
H6_4 H 0.2466 0.0242 0.0611
C3_4 C 0.1861(7) 0.0114(6) 0.1110(9)
H7_4 H 0.1612 0.0095 0.1190
H8_4 H 0.2014 0.0187 0.1446
C4_4 C 0.1860(6) 0.0271(7) 0.0070(8)
H9_4 H 0.1619 0.0279 0.0066
H10_4 H 0.1800 0.0004 0.0011
C5_4 C 0.2035(6) 0.0773(6) 0.0769(10)
H11_4 H 0.2126 0.0950 0.0457
H12_4 H 0.2196 0.0911 0.1083
C6_4 C 0.3085(7) 0.1093(6) 0.2198(9)
C7_4 C 0.3288(6) 0.1076(4) 0.1708(8)
C8_4 C 0.3091(5) 0.0864(5) 0.1260(9)
C9_4 C 0.3295(6) 0.0854(5) 0.0804(8)
H13_4 H 0.3162 0.0705 0.0499
C10_4 C 0.3701(6) 0.1068(6) 0.0801(9)
H14_4 H 0.3839 0.1068 0.0490
C11_4 C 0.3896(5) 0.1277(5) 0.1256(10)
H15_4 H 0.4167 0.1416 0.1259
C12_4 C 0.3687(5) 0.1284(5) 0.1719(8)
H16_4 H 0.3818 0.1428 0.2029
C13_4 C 0.2506(6) 0.1041(7) 0.2536(10)
H17_4 H 0.2608 0.1158 0.2893
H18_4 H 0.2524 0.1239 0.2284
C14_4 C 0.2095(6) 0.0708(6) 0.2580(7)
C15_4 C 0.1743(8) 0.0634(7) 0.2397(8)
H19_4 H 0.1724 0.0822 0.2191
C16_4 C 0.1410(6) 0.0283(8) 0.2514(9)
H20_4 H 0.1168 0.0232 0.2382
C17_4 C 0.1443(6) 0.0012(6) 0.2825(10)
C18_4 C 0.1802(8) 0.0085(7) 0.3009(9)
C19_4 C 0.2135(6) 0.0438(8) 0.2896(8)
H23_4 H 0.2377 0.0492 0.3029
C43_4 C 0.3024(5) 0.1709(6) 0.0503(12)
H41_4 H 0.3109 0.1542 0.0630
C44_4 C 0.2948(6) 0.1916(8) 0.0871(8)
H42_4 H 0.2973 0.1888 0.1247
C45_4 C 0.2831(6) 0.2178(7) 0.0676(11)
H43_4 H 0.2784 0.2331 0.0921
C46_4 C 0.2786(6) 0.2202(6) 0.0122(13)
C48_4 C 0.0851(7) 0.0459(7) 0.1074(8)
C49_4 C 0.1235(6) 0.0829(5) 0.1172(5)
C50_4 C 0.1623(8) 0.0927(7) 0.1143(8)
C51_4 C 0.1907(6) 0.1300(8) 0.1263(9)
H46_4 H 0.2167 0.1363 0.1245
C52_4 C 0.1821(6) 0.1585(6) 0.1409(9)
H47_4 H 0.2019 0.1837 0.1487
C53_4 C 0.1433(7) 0.1489(6) 0.1439(10)
H48_4 H 0.1367 0.1676 0.1534
C54_4 C 0.1142(5) 0.1105(7) 0.1322(8)
H49_4 H 0.0881 0.1037 0.1346
N12_4 N 0.0647(6) 0.2750(8) 0.0459(10)
H60_4 H 0.0473 0.2711 0.0701
N24_4 N 0.0361(7) 0.0647(9) 0.2591(10)
O24_4 O 0.0248(6) 0.2049(8) 0.0916(9)
O33_4 O 0.3713(7) 0.1675(5) 0.3604(9)
O62_4 O 0.0264(5) 0.0675(7) 0.2121(9)
O64_4 O 0.0383(6) 0.0344(8) 0.2717(8)
O65_4 O 0.0599(7) 0.0968(9) 0.2812(10)
H98_4 H 0.0222 0.1442 0.2914
H100_4 H 0.0104 0.1925 0.3210
C101_4 C 0.0948(6) 0.2672(9) 0.0515(9)
C103_4 C 0.0901(5) 0.2457(8) 0.1047(7)
C105_4 C 0.0563(5) 0.2163(8) 0.1248(10)
C107_4 C 0.0536(6) 0.1973(8) 0.1743(10)
H104_4 H 0.0300 0.1771 0.1871
C109_4 C 0.0887(5) 0.2104(8) 0.2039(8)
H106_4 H 0.0882 0.1988 0.2374
C111_4 C 0.1226(6) 0.2393(8) 0.1843(9)
H108_4 H 0.1455 0.2470 0.2039
C113_4 C 0.1239(6) 0.2583(8) 0.1339(9)
H110_4 H 0.1472 0.2789 0.1211
H124_2 H 0.0454 0.3390 0.0247
C171_4 C 0.0158(6) 0.0765(8) 0.0661(9)
H156_4 H 0.0224 0.0898 0.1014
H158_4 H 0.0240 0.0572 0.0671
C173_4 C 0.0385(4) 0.1053(6) 0.0232(9)
C175_4 C 0.0601(5) 0.1433(7) 0.0375(9)
H160_4 H 0.0607 0.1512 0.0738
H162_4 H 0.0965 0.1968 0.0050
N3_4 N 0.2618(5) 0.1258(7) 0.9275(9)
H3_4 H 0.2415 0.1215 0.9460
O3_4 O 0.2123(5) 0.0524(5) 0.9656(8)
C30_4 C 0.2941(7) 0.0218(7) 0.9216(8)
H31_4 H 0.2943 0.0387 0.8948
C31_4 C 0.3289(7) 0.0290(6) 0.9452(10)
H32_4 H 0.3522 0.0510 0.9351
C32_4 C 0.3289(6) 0.0035(6) 0.9836(10)
H33_4 H 0.3522 0.0077 0.9992
C34_4 C 0.2608(6) 0.1066(8) 0.8805(10)
C35_4 C 0.2276(6) 0.0653(8) 0.8756(11)
C36_4 C 0.2015(7) 0.0425(8) 0.9159(9)
C37_4 C 0.1723(7) 0.0058(8) 0.9013(10)
C39_4 C 0.1862(7) 0.0212(7) 0.8056(9)
H37_4 H 0.1793 0.0157 0.7686
C40_4 C 0.2196(7) 0.0556(7) 0.8210(10)
H38_4 H 0.2366 0.0720 0.7941
C41_4 C 0.3027(5) 0.1553(8) 0.9428(10)
H39_4 H 0.3150 0.1748 0.9141
H40_4 H 0.3183 0.1430 0.9493
C42_4 C 0.2980(4) 0.1733(7) 0.9951(10)
H44_4 H 0.2703 0.2369 0.9989
C47_4 C 0.2862(6) 0.1981(9) 0.9756(9)
H45_4 H 0.2833 0.2001 0.9379
C115_4 C 0.0685(6) 0.2911(9) 0.9914(10)
H112_4 H 0.0914 0.3168 0.9902
H114_4 H 0.0722 0.2748 0.9651
C117_4 C 0.0347(6) 0.2940(8) 0.9752(7)
C119_4 C 0.0097(6) 0.2692(8) 0.9370(7)
H116_4 H 0.0139 0.2502 0.9214
C127_4 C 0.0282(6) 0.3221(8) 0.9985(8)
H126_4 H 0.0125 0.1706 0.9285
C137_4 C 0.0042(8) 0.1679(10) 0.8457(11)
H128_4 H 0.0283 0.1709 0.8361
C177_4 C 0.0816(6) 0.1705(8) 0.9963(11)
C179_4 C 0.0805(6) 0.1583(8) 0.9436(10)
H164_4 H 0.0951 0.1764 0.9165
C181_4 C 0.0580(6) 0.1193(8) 0.9298(8)
H166_4 H 0.0573 0.1112 0.8936
C183_4 C 0.0368(6) 0.0926(8) 0.9703(9)
H168_4 H 0.0216 0.0664 0.9617
N2_4 N 0.2104(6) 0.9353(6) 0.0459(10)
H2_4 H 0.2239 0.9527 0.0701
N8_4 N 0.0287(6) 0.9639(7) 0.2591(10)
O2_4 O 0.1802(5) 0.9752(6) 0.0916(9)
O18_4 O 0.0412(5) 0.9736(5) 0.2121(9)
O20_4 O 0.0370(6) 0.9401(7) 0.2812(10)
H21_4 H 0.1221 0.9778 0.2914
H22_4 H 0.1822 0.9896 0.3210
C20_4 C 0.1725(7) 0.9052(6) 0.0515(9)
C21_4 C 0.1557(6) 0.9099(5) 0.1047(7)
C22_4 C 0.1601(6) 0.9437(5) 0.1248(10)
C23_4 C 0.1438(5) 0.9464(6) 0.1743(10)
H24_4 H 0.1472 0.9700 0.1871
C24_4 C 0.1218(6) 0.9113(5) 0.2039(8)
H25_4 H 0.1107 0.9118 0.2374
C25_4 C 0.1168(6) 0.8774(6) 0.1843(9)
H26_4 H 0.1016 0.8545 0.2039
C26_4 C 0.1345(5) 0.8761(6) 0.1339(9)
H27_4 H 0.1318 0.8528 0.1211
H34_4 H 0.2937 0.9546 0.0247
C55_4 C 0.0608(6) 0.9842(6) 0.0661(9)
H50_4 H 0.0675 0.9776 0.1014
H51_4 H 0.0333 0.9760 0.0671
C56_4 C 0.0669(4) 0.9615(4) 0.0232(9)
C57_4 C 0.0833(5) 0.9399(5) 0.0375(9)
H52_4 H 0.0906 0.9393 0.0738
H53_4 H 0.1004 0.9035 0.0050
C166_4 C 0.0057(9) 0.8567(7) 0.1439(10)
H151_4 H 0.0310 0.8633 0.1534
H153_4 H 0.0157 0.9119 0.1346
C27_4 C 0.2227(7) 0.9315(6) 0.9914(10)
H28_4 H 0.2255 0.9086 0.9902
H29_4 H 0.2027 0.9278 0.9651
C28_4 C 0.2594(5) 0.9653(6) 0.9752(7)
C29_4 C 0.2596(5) 0.9903(6) 0.9370(7)
H30_4 H 0.2364 0.9861 0.9214
C33_4 C 0.2940(5) 0.9718(6) 0.9985(8)
H35_4 H 0.1582 0.9875 0.9285
C38_4 C 0.1638(6) 0.9958(8) 0.8457(11)
H36_4 H 0.1427 0.9717 0.8361
C58_4 C 0.0890(6) 0.9184(6) 0.9963(11)
C59_4 C 0.0779(5) 0.9195(6) 0.9436(10)
H54_4 H 0.0814 0.9049 0.9165
C60_4 C 0.0614(6) 0.9420(6) 0.9298(8)
H55_4 H 0.0540 0.9427 0.8936
C61_4 C 0.0559(5) 0.9632(6) 0.9703(9)
H56_4 H 0.0449 0.9784 0.9617
Pr2_6 Pr 1.0000 0.0000 0.2006(2)
N10_4 N 0.9151(7) 0.1856(9) 0.2323(10)
H58_4 H 0.9400 0.1993 0.2279
N16_4 N 0.9745(6) 0.0566(8) 0.0602(10)
H64_4 H 0.9633 0.0558 0.0294
N18_4 N 0.7728(7) 0.1805(10) 0.2160(10)
N20_4 N 0.7361(6) 0.1273(9) 0.3726(10)
N22_4 N 0.7713(6) 0.0806(8) 0.2415(10)
O22_4 O 0.9304(5) 0.1996(7) 0.1111(8)
O28_4 O 0.9325(5) 0.0975(7) 0.0884(9)
O30_4 O 0.8579(6) 0.1798(8) 0.2533(9)
O35_4 O 0.8325(5) 0.2039(5) 0.3604(9)
O42_4 O 0.9735(6) 0.0240(8) 0.1355(9)
O44_4 O 0.7650(5) 0.1463(7) 0.2143(8)
O46_4 O 0.7969(6) 0.2041(8) 0.2514(8)
O48_4 O 0.7696(6) 0.1968(8) 0.1728(9)
O50_4 O 0.7636(5) 0.1259(7) 0.3952(8)
O52_4 O 0.7419(5) 0.1497(7) 0.3316(7)
O54_4 O 0.7045(5) 0.1118(7) 0.3989(8)
O56_4 O 0.7532(5) 0.0865(7) 0.2776(8)
O58_4 O 0.8067(5) 0.1026(7) 0.2312(9)
O60_4 O 0.7567(5) 0.0456(8) 0.2232(10)
O63_4 O 0.9656(8) 0.0038(5) 0.2717(8)
C63_4 C 0.9565(9) 0.1650(13) 0.0643(13)
C65_4 C 0.9506(7) 0.1984(9) 0.0632(9)
H66_4 H 0.9358 0.1971 0.0307
H68_4 H 0.9758 0.2223 0.0611
C67_4 C 0.9886(6) 0.1746(9) 0.1110(9)
H70_4 H 0.9905 0.1516 0.1190
H72_4 H 0.9813 0.1826 0.1446
C69_4 C 0.9729(7) 0.1588(9) 0.0070(8)
H74_4 H 0.9721 0.1339 0.0066
H76_4 H 0.9996 0.1795 0.0011
C71_4 C 0.9227(6) 0.1261(8) 0.0769(10)
H78_4 H 0.9050 0.1175 0.0457
H80_4 H 0.9089 0.1284 0.1083
C73_4 C 0.8907(6) 0.1991(9) 0.2198(9)
C75_4 C 0.8924(4) 0.2211(7) 0.1708(8)
C77_4 C 0.9136(5) 0.2226(7) 0.1260(9)
C79_4 C 0.9146(5) 0.2440(8) 0.0804(8)
H82_4 H 0.9295 0.2456 0.0499
C81_4 C 0.8932(6) 0.2632(8) 0.0801(9)
H84_4 H 0.8932 0.2770 0.0490
C83_4 C 0.8723(5) 0.2618(7) 0.1256(10)
H86_4 H 0.8584 0.2750 0.1259
C85_4 C 0.8716(5) 0.2402(7) 0.1719(8)
H88_4 H 0.8572 0.2389 0.2029
C87_4 C 0.8959(7) 0.1464(9) 0.2536(10)
H90_4 H 0.8842 0.1449 0.2893
H92_4 H 0.8761 0.1284 0.2284
C89_4 C 0.9292(6) 0.1386(8) 0.2580(7)
C91_4 C 0.9366(7) 0.1108(11) 0.2397(8)
H94_4 H 0.9178 0.0901 0.2191
C93_4 C 0.9717(8) 0.1126(10) 0.2514(9)
H96_4 H 0.9768 0.0935 0.2382
C95_4 C 0.9988(6) 0.1430(8) 0.2825(10)
C97_4 C 0.9915(7) 0.1716(11) 0.3009(9)
C99_4 C 0.9562(8) 0.1696(10) 0.2896(8)
H102_4 H 0.9508 0.1884 0.3029
C147_4 C 0.8291(6) 0.1314(8) 0.0503(12)
H138_4 H 0.8458 0.1566 0.0630
C149_4 C 0.8084(8) 0.1031(10) 0.0871(8)
H140_4 H 0.8112 0.1084 0.1247
C151_4 C 0.7822(7) 0.0652(9) 0.0676(11)
H142_4 H 0.7669 0.0452 0.0921
C153_4 C 0.7798(6) 0.0583(8) 0.0122(13)
C157_4 C 0.9541(7) 0.0391(10) 0.1074(8)
C159_4 C 0.9171(5) 0.0405(8) 0.1172(5)
C161_4 C 0.9073(7) 0.0695(11) 0.1143(8)
C163_4 C 0.8700(8) 0.0606(10) 0.1263(9)
H148_4 H 0.8637 0.0803 0.1245
C165_4 C 0.8415(6) 0.0235(8) 0.1409(9)
H150_4 H 0.8163 0.0181 0.1487
C169_4 C 0.8895(7) 0.0036(9) 0.1322(8)
N14_4 N 0.8742(7) 0.1359(9) 0.9275(9)
H62_4 H 0.8785 0.1199 0.9460
O26_4 O 0.9476(5) 0.1598(7) 0.9656(8)
C121_4 C 0.9782(7) 0.2722(10) 0.9216(8)
H118_4 H 0.9613 0.2555 0.8948
C123_4 C 0.9710(6) 0.2998(9) 0.9452(10)
H120_4 H 0.9490 0.3011 0.9351
C125_4 C 0.9965(6) 0.3253(8) 0.9836(10)
H122_2 H 0.9923 0.3444 0.9992
C129_4 C 0.8934(8) 0.1541(10) 0.8805(10)
C131_4 C 0.9347(8) 0.1622(10) 0.8756(11)
C133_4 C 0.9575(8) 0.1589(11) 0.9159(9)
C135_4 C 0.9942(8) 0.1664(11) 0.9013(10)
C139_4 C 0.9788(7) 0.1649(10) 0.8056(9)
H130_4 H 0.9843 0.1635 0.7686
C141_4 C 0.9444(7) 0.1639(10) 0.8210(10)
H132_4 H 0.9280 0.1645 0.7941
C143_4 C 0.8447(8) 0.1473(9) 0.9428(10)
H134_4 H 0.8252 0.1401 0.9141
H136_4 H 0.8570 0.1752 0.9493
C145_4 C 0.8267(7) 0.1246(8) 0.9951(10)
H144_4 H 0.7631 0.0333 0.9989
C155_4 C 0.8019(9) 0.0880(11) 0.9756(9)
H146_4 H 0.7999 0.0831 0.9379
O19_4 O 0.9962(5) 0.9617(6) 0.2717(8)
N9_4 N 0.8144(9) 0.7294(6) 0.2323(10)
H57_4 H 0.8007 0.7406 0.2279
N11_4 N 0.7250(8) 0.7896(6) 0.0459(10)
H59_4 H 0.7289 0.7761 0.0701
N15_4 N 0.9434(8) 0.9178(6) 0.0602(10)
H63_4 H 0.9442 0.9074 0.0294
N17_4 N 0.8195(10) 0.5922(7) 0.2160(10)
N19_4 N 0.8727(9) 0.6087(7) 0.3726(10)
N21_4 N 0.9194(8) 0.6906(6) 0.2415(10)
N23_4 N 0.9353(9) 0.9713(6) 0.2591(10)
O21_4 O 0.8004(7) 0.7307(5) 0.1111(8)
O23_4 O 0.7951(8) 0.8198(5) 0.0916(9)
O27_4 O 0.9025(7) 0.8349(5) 0.0884(9)
O29_4 O 0.8202(8) 0.6780(6) 0.2533(9)
O34_4 O 0.7961(5) 0.6287(7) 0.3604(9)
O41_4 O 0.9760(8) 0.9494(5) 0.1355(9)
O43_4 O 0.8537(7) 0.6186(5) 0.2143(8)
O45_4 O 0.7959(8) 0.5927(5) 0.2514(8)
O47_4 O 0.8032(8) 0.5727(6) 0.1728(9)
O49_4 O 0.8741(7) 0.6376(5) 0.3952(8)
O51_4 O 0.8503(7) 0.5921(5) 0.3316(7)
O53_4 O 0.8882(7) 0.5926(5) 0.3989(8)
O55_4 O 0.9135(7) 0.6666(5) 0.2776(8)
O57_4 O 0.8974(7) 0.7040(5) 0.2312(9)
O59_4 O 0.9544(8) 0.7110(6) 0.2232(10)
O61_4 O 0.9325(7) 0.9588(5) 0.2121(9)
O66_4 O 0.9032(9) 0.9630(6) 0.2812(10)
C62_4 C 0.8350(13) 0.7914(9) 0.0643(13)
C64_4 C 0.8016(9) 0.7521(5) 0.0632(9)
H65_4 H 0.8029 0.7386 0.0307
H67_4 H 0.7777 0.7534 0.0611
C66_4 C 0.8254(9) 0.8139(7) 0.1110(9)
H69_4 H 0.8484 0.8388 0.1190
H71_4 H 0.8174 0.7986 0.1446
C68_4 C 0.8412(9) 0.8140(6) 0.0070(8)
H73_4 H 0.8661 0.8381 0.0066
H75_4 H 0.8205 0.8200 0.0011
C70_4 C 0.8739(8) 0.7965(6) 0.0769(10)
H77_4 H 0.8825 0.7874 0.0457
H79_4 H 0.8716 0.7804 0.1083
C72_4 C 0.8009(9) 0.6915(7) 0.2198(9)
C74_4 C 0.7789(7) 0.6712(6) 0.1708(8)
C76_4 C 0.7774(7) 0.6909(5) 0.1260(9)
C78_4 C 0.7560(8) 0.6705(6) 0.0804(8)
H81_4 H 0.7544 0.6838 0.0499
C80_4 C 0.7368(8) 0.6299(6) 0.0801(9)
H83_4 H 0.7230 0.6161 0.0490
C82_4 C 0.7382(7) 0.6104(5) 0.1256(10)
H85_4 H 0.7250 0.5833 0.1259
C84_4 C 0.7598(7) 0.6313(5) 0.1719(8)
H87_4 H 0.7611 0.6182 0.2029
C86_4 C 0.8536(9) 0.7494(6) 0.2536(10)
H89_4 H 0.8551 0.7392 0.2893
H91_4 H 0.8716 0.7476 0.2284
C88_4 C 0.8614(8) 0.7905(6) 0.2580(7)
C90_4 C 0.8892(11) 0.8257(8) 0.2397(8)
H93_4 H 0.9099 0.8276 0.2191
C92_4 C 0.8874(10) 0.8590(6) 0.2514(9)
H95_4 H 0.9065 0.8832 0.2382
C94_4 C 0.8570(8) 0.8557(6) 0.2825(10)
H97_4 H 0.8558 0.8779 0.2914
C96_4 C 0.8284(11) 0.8198(8) 0.3009(9)
H99_4 H 0.8075 0.8178 0.3210
C98_4 C 0.8304(10) 0.7865(6) 0.2896(8)
H101_4 H 0.8116 0.7623 0.3029
C100_4 C 0.7328(9) 0.8275(7) 0.0515(9)
C102_4 C 0.7543(8) 0.8443(6) 0.1047(7)
C104_4 C 0.7837(8) 0.8399(6) 0.1248(10)
C106_4 C 0.8027(8) 0.8562(5) 0.1743(10)
H103_4 H 0.8229 0.8528 0.1871
C108_4 C 0.7896(8) 0.8782(6) 0.2039(8)
H105_4 H 0.8012 0.8893 0.2374
C110_4 C 0.7607(8) 0.8832(6) 0.1843(9)
H107_4 H 0.7530 0.8984 0.2039
C112_4 C 0.7417(8) 0.8655(5) 0.1339(9)
H109_4 H 0.7211 0.8682 0.1211
H123_3 H 0.6610 0.7063 0.0247
C146_4 C 0.8686(8) 0.6976(5) 0.0503(12)
H137_4 H 0.8434 0.6891 0.0630
C148_4 C 0.8969(10) 0.7052(6) 0.0871(8)
H139_4 H 0.8916 0.7027 0.1247
C150_4 C 0.9348(9) 0.7169(6) 0.0676(11)
H141_4 H 0.9548 0.7216 0.0921
C152_4 C 0.9417(8) 0.7214(6) 0.0122(13)
C156_4 C 0.9609(10) 0.9149(7) 0.1074(8)
C158_4 C 0.9595(8) 0.8765(6) 0.1172(5)
C160_4 C 0.9305(11) 0.8377(8) 0.1143(8)
C162_4 C 0.9394(10) 0.8093(6) 0.1263(9)
H147_4 H 0.9197 0.7833 0.1245
C164_4 C 0.9765(8) 0.8179(6) 0.1409(9)
H149_4 H 0.9819 0.7981 0.1487
C167_4 C 0.8511(6) 0.9943(9) 0.1439(10)
H152_4 H 0.8324 0.9690 0.1534
C168_4 C 0.9964(9) 0.8858(5) 0.1322(8)
H154_4 H 0.8963 0.9843 0.1346
C170_4 C 0.9235(8) 0.9392(6) 0.0661(9)
H155_4 H 0.9102 0.9325 0.1014
H157_4 H 0.9428 0.9667 0.0671
C172_4 C 0.8947(6) 0.9331(4) 0.0232(9)
C174_4 C 0.8567(7) 0.9167(5) 0.0375(9)
H159_4 H 0.8488 0.9094 0.0738
H161_4 H 0.8032 0.8996 0.0050
N13_4 N 0.8641(9) 0.7382(5) 0.9275(9)
H61_4 H 0.8801 0.7585 0.9460
O25_4 O 0.8402(7) 0.7877(5) 0.9656(8)
C114_4 C 0.7089(9) 0.7773(7) 0.9914(10)
H111_4 H 0.6832 0.7745 0.9902
H113_4 H 0.7252 0.7973 0.9651
C116_4 C 0.7060(8) 0.7406(5) 0.9752(7)
C118_4 C 0.7308(8) 0.7404(5) 0.9370(7)
H115_4 H 0.7498 0.7636 0.9214
C120_4 C 0.7278(10) 0.7059(7) 0.9216(8)
H117_4 H 0.7445 0.7057 0.8948
C122_4 C 0.7002(9) 0.6711(7) 0.9452(10)
H119_4 H 0.6989 0.6478 0.9351
C124_4 C 0.6747(8) 0.6711(6) 0.9836(10)
H121_3 H 0.6556 0.6478 0.9992
C126_4 C 0.6779(8) 0.7060(5) 0.9985(8)
C128_4 C 0.8459(10) 0.7392(6) 0.8805(10)
C130_4 C 0.8378(10) 0.7724(6) 0.8756(11)
C132_4 C 0.8411(11) 0.7985(7) 0.9159(9)
C134_4 C 0.8336(11) 0.8277(7) 0.9013(10)
H125_4 H 0.8294 0.8418 0.9285
C136_4 C 0.8321(10) 0.8362(6) 0.8457(11)
H127_4 H 0.8291 0.8573 0.8361
C138_4 C 0.8351(10) 0.8138(7) 0.8056(9)
H129_4 H 0.8365 0.8207 0.7686
C140_4 C 0.8361(10) 0.7804(7) 0.8210(10)
H131_4 H 0.8355 0.7634 0.7941
C142_4 C 0.8527(9) 0.6973(5) 0.9428(10)
H133_4 H 0.8599 0.6850 0.9141
H135_4 H 0.8248 0.6817 0.9493
C144_4 C 0.8754(8) 0.7020(4) 0.9951(10)
H143_4 H 0.9667 0.7297 0.9989
C154_4 C 0.9120(11) 0.7138(6) 0.9756(9)
H145_4 H 0.9169 0.7167 0.9379
C176_4 C 0.8295(8) 0.9110(6) 0.9963(11)
C178_4 C 0.8417(8) 0.9221(5) 0.9436(10)
H163_4 H 0.8236 0.9186 0.9165
C180_4 C 0.8807(8) 0.9386(6) 0.9298(8)
H165_4 H 0.8888 0.9460 0.8936
C182_4 C 0.9074(8) 0.9441(5) 0.9703(9)
H167_4 H 0.9336 0.9551 0.9617
Pr2_7 Pr 0.0001 0.0000 0.2006(2)
Pr2_8 Pr 1.0000 0.9999 0.2006(2)
N17_5 N 0.0744(7) 0.5139(10) 0.0494(10)
N19_5 N 0.0579(7) 0.4607(9) 0.2060(10)
O43_5 O 0.0480(5) 0.4797(7) 0.0477(8)
O45_5 O 0.0739(5) 0.5375(8) 0.0848(8)
O47_5 O 0.0939(6) 0.5302(8) 0.0062(9)
O49_5 O 0.0290(5) 0.4593(7) 0.2286(8)
O51_5 O 0.0745(5) 0.4831(7) 0.1650(7)
O53_5 O 0.0740(5) 0.4452(7) 0.2323(8)
O55_5 O 0.0000(5) 0.4199(7) 0.1110(8)
C84_5 C 0.0353(5) 0.5736(7) 0.0053(8)
H87_5 H 0.0484 0.5723 0.0363
C80_5 C 0.0367(6) 0.5966(8) 0.9135(9)
H83_5 H 0.0505 0.6104 0.8824
C82_5 C 0.0562(5) 0.5952(7) 0.9590(10)
H85_5 H 0.0833 0.6084 0.9593
H119_5 H 0.0188 0.6345 0.7685
H121_4 H 0.0188 0.6778 0.8326
Pr2_9 Pr 0.6666 0.3334 0.0340(2)
N1_5 N 0.5817(7) 0.0628(6) 0.0657(10)
H1_5 H 0.6066 0.0740 0.0613
N7_5 N 0.4379(6) 0.0240(6) 0.0749(10)
N8_5 N 0.7027(7) 0.3047(6) 0.0925(10)
O5_5 O 0.5245(6) 0.0114(6) 0.0867(9)
O16_5 O 0.4733(5) 0.0374(5) 0.0646(9)
O17_5 O 0.4233(5) 0.0444(6) 0.0566(10)
O18_5 O 0.6930(5) 0.2922(5) 0.0455(9)
O19_5 O 0.7049(6) 0.3372(5) 0.1051(8)
O20_5 O 0.7265(7) 0.2964(6) 0.1146(10)
C6_5 C 0.5573(6) 0.0249(7) 0.0532(9)
C7_5 C 0.5590(4) 0.0046(6) 0.0042(8)
C13_5 C 0.5625(7) 0.0828(6) 0.0870(10)
H17_5 H 0.5508 0.0726 0.1227
H18_5 H 0.5427 0.0810 0.0618
C14_5 C 0.5958(6) 0.1239(6) 0.0914(7)
C15_5 C 0.6032(7) 0.1591(8) 0.0731(8)
H19_5 H 0.5844 0.1610 0.0525
C16_5 C 0.6383(8) 0.1924(6) 0.0848(9)
H20_5 H 0.6434 0.2166 0.0716
C17_5 C 0.6654(6) 0.1891(6) 0.1159(10)
H21_5 H 0.6888 0.2113 0.1248
C18_5 C 0.6581(7) 0.1532(8) 0.1343(9)
H22_5 H 0.6770 0.1512 0.1544
C19_5 C 0.6228(8) 0.1199(6) 0.1230(8)
H23_5 H 0.6174 0.0957 0.1363
C23_5 C 0.7202(6) 0.1896(5) 0.0077(10)
H24_5 H 0.6966 0.1862 0.0205
C24_5 C 0.7553(5) 0.2116(6) 0.0373(8)
H25_5 H 0.7548 0.2227 0.0708
C25_5 C 0.7892(6) 0.2166(6) 0.0177(9)
H26_5 H 0.8121 0.2318 0.0373
N9_5 N 0.9372(6) 0.5190(9) 0.0657(10)
N10_5 N 0.4810(9) 0.4183(7) 0.0657(10)
H57_5 H 0.9260 0.5327 0.0613
H58_5 H 0.4673 0.3934 0.0613
N18_5 N 0.4861(10) 0.5606(7) 0.0494(10)
N20_5 N 0.5393(9) 0.5973(6) 0.2060(10)
N21_5 N 0.9760(6) 0.4140(8) 0.0749(10)
N22_5 N 0.5860(8) 0.5621(6) 0.0749(10)
N23_5 N 0.6953(6) 0.3981(9) 0.0925(10)
N24_5 N 0.6019(9) 0.2973(7) 0.0925(10)
O29_5 O 0.9886(6) 0.5132(8) 0.0867(9)
O30_5 O 0.4868(8) 0.4755(6) 0.0867(9)
O38_3 O 0.5017(7) 0.0399(5) 0.1815(9)
O39_3 O 0.9601(5) 0.4619(5) 0.1815(9)
O40_3 O 0.5381(5) 0.4983(7) 0.1815(9)
O44_5 O 0.5203(7) 0.5684(5) 0.0477(8)
O46_5 O 0.4625(8) 0.5365(6) 0.0848(8)
O48_5 O 0.4698(8) 0.5638(6) 0.0062(9)
O50_5 O 0.5407(7) 0.5698(5) 0.2286(8)
O52_5 O 0.5169(7) 0.5915(5) 0.1650(7)
O54_5 O 0.5548(7) 0.6289(5) 0.2323(8)
O56_5 O 0.5801(7) 0.5802(5) 0.1110(8)
O57_5 O 0.9626(5) 0.4360(7) 0.0646(9)
O58_5 O 0.5640(7) 0.5267(5) 0.0646(9)
O59_5 O 0.9556(6) 0.3790(8) 0.0566(10)
O60_5 O 0.6210(8) 0.5767(5) 0.0566(10)
O61_5 O 0.7078(5) 0.4009(7) 0.0455(9)
O62_5 O 0.5991(7) 0.3070(5) 0.0455(9)
O63_5 O 0.6628(5) 0.3678(8) 0.1051(8)
O64_5 O 0.6322(8) 0.2951(6) 0.1051(8)
O65_5 O 0.5698(9) 0.2735(7) 0.1146(10)
O66_5 O 0.7036(6) 0.4302(9) 0.1146(10)
C72_5 C 0.9751(7) 0.5325(9) 0.0532(9)
C73_5 C 0.4675(9) 0.4427(6) 0.0532(9)
C74_5 C 0.9954(6) 0.5545(7) 0.0042(8)
C75_5 C 0.4455(7) 0.4410(4) 0.0042(8)
C85_5 C 0.4264(7) 0.4618(5) 0.0053(8)
H88_5 H 0.4277 0.4762 0.0363
C86_5 C 0.9172(6) 0.4798(9) 0.0870(10)
C87_5 C 0.5202(9) 0.4375(7) 0.0870(10)
H89_5 H 0.9274 0.4783 0.1227
H90_5 H 0.5217 0.4492 0.1227
H91_5 H 0.9190 0.4618 0.0618
H92_5 H 0.5382 0.4573 0.0618
C88_5 C 0.8761(6) 0.4720(8) 0.0914(7)
C89_5 C 0.5280(8) 0.4042(6) 0.0914(7)
C90_5 C 0.8409(8) 0.4442(11) 0.0731(8)
C91_5 C 0.5558(11) 0.3968(7) 0.0731(8)
H93_5 H 0.8390 0.4235 0.0525
H94_5 H 0.5765 0.4156 0.0525
C92_5 C 0.8076(6) 0.4460(10) 0.0848(9)
C93_5 C 0.5540(10) 0.3617(8) 0.0848(9)
H95_5 H 0.7834 0.4269 0.0716
H96_5 H 0.5731 0.3566 0.0716
C94_5 C 0.8109(6) 0.4764(8) 0.1159(10)
C95_5 C 0.5236(8) 0.3346(6) 0.1159(10)
H97_5 H 0.7887 0.4776 0.1248
H98_5 H 0.5224 0.3112 0.1248
C96_5 C 0.8468(8) 0.5050(11) 0.1343(9)
C97_5 C 0.4950(11) 0.3419(7) 0.1343(9)
H99_5 H 0.8488 0.5259 0.1544
H100_5 H 0.4741 0.3230 0.1544
C98_5 C 0.8801(6) 0.5030(10) 0.1230(8)
C99_5 C 0.4970(10) 0.3772(8) 0.1230(8)
H101_5 H 0.9043 0.5218 0.1363
H102_5 H 0.4782 0.3826 0.1363
C106_5 C 0.8104(5) 0.5307(8) 0.0077(10)
C107_5 C 0.4693(8) 0.2798(6) 0.0077(10)
H103_5 H 0.8138 0.5105 0.0205
H104_5 H 0.4895 0.3034 0.0205
C108_5 C 0.7884(6) 0.5438(8) 0.0373(8)
C109_5 C 0.4562(8) 0.2447(5) 0.0373(8)
H105_5 H 0.7773 0.5322 0.0708
H106_5 H 0.4678 0.2452 0.0708
C110_5 C 0.7834(6) 0.5727(8) 0.0177(9)
C111_5 C 0.4273(8) 0.2108(6) 0.0177(9)
H107_5 H 0.7682 0.5804 0.0373
H108_5 H 0.4196 0.1879 0.0373
N2_5 N 0.7313(6) 0.1230(6) 0.8793(10)
H2_5 H 0.7139 0.1095 0.9035
N3_5 N 0.5408(7) 0.0716(5) 0.7609(9)
H3_5 H 0.5451 0.0919 0.7794
N4_5 N 0.6411(6) 0.2512(6) 0.8936(10)
H4_5 H 0.6299 0.2408 0.8628
O1_5 O 0.5970(5) 0.0641(5) 0.9445(8)
O2_5 O 0.6914(6) 0.1532(5) 0.9250(9)
O3_5 O 0.6142(5) 0.1211(5) 0.7990(8)
O4_5 O 0.5991(5) 0.1683(5) 0.9218(9)
O7_3 O 0.5381(5) 0.0399(5) 0.6815(9)
O8_5 O 0.6401(6) 0.2828(5) 0.9689(9)
C1_5 C 0.6231(9) 0.1248(9) 0.8977(13)
C2_5 C 0.6172(7) 0.0855(5) 0.8966(9)
H5_5 H 0.6024 0.0720 0.8641
H6_5 H 0.6424 0.0868 0.8945
C3_5 C 0.6552(6) 0.1473(7) 0.9444(9)
H7_5 H 0.6571 0.1722 0.9524
H8_5 H 0.6479 0.1320 0.9780
C4_5 C 0.6395(7) 0.1474(6) 0.8404(8)
H9_5 H 0.6387 0.1715 0.8400
H10_5 H 0.6662 0.1534 0.8345
C5_5 C 0.5893(6) 0.1299(6) 0.9103(10)
H11_5 H 0.5716 0.1208 0.8791
H12_5 H 0.5755 0.1138 0.9417
C8_5 C 0.5802(5) 0.0243(5) 0.9594(9)
C9_5 C 0.5812(5) 0.0039(6) 0.9138(8)
H13_5 H 0.5961 0.0172 0.8833
C20_5 C 0.7614(6) 0.1609(7) 0.8849(9)
C21_5 C 0.7567(5) 0.1777(6) 0.9381(7)
C22_5 C 0.7229(5) 0.1733(6) 0.9582(10)
C26_5 C 0.7905(6) 0.1989(5) 0.9673(9)
H27_5 H 0.8138 0.2016 0.9545
C27_5 C 0.7351(6) 0.1107(7) 0.8248(10)
H28_5 H 0.7580 0.1079 0.8236
H29_5 H 0.7388 0.1307 0.7985
C28_5 C 0.7013(6) 0.0740(5) 0.8086(7)
C29_5 C 0.6763(6) 0.0738(5) 0.7704(7)
H30_5 H 0.6805 0.0970 0.7548
C30_5 C 0.6448(7) 0.0393(7) 0.7550(8)
H31_5 H 0.6279 0.0391 0.7282
C31_5 C 0.6376(6) 0.0045(7) 0.7786(10)
C32_5 C 0.6631(6) 0.0045(6) 0.8170(10)
C33_5 C 0.6948(6) 0.0394(5) 0.8319(8)
H34_5 H 0.7120 0.0397 0.8581
C34_5 C 0.5600(8) 0.0726(6) 0.7139(10)
C35_5 C 0.6013(8) 0.1058(6) 0.7090(11)
C36_5 C 0.6241(8) 0.1319(7) 0.7493(9)
C37_5 C 0.6608(8) 0.1611(7) 0.7347(10)
H35_5 H 0.6791 0.1752 0.7619
C38_5 C 0.6708(8) 0.1696(6) 0.6791(11)
H36_5 H 0.6949 0.1907 0.6695
C39_5 C 0.6454(7) 0.1472(7) 0.6390(9)
H37_5 H 0.6509 0.1541 0.6020
C40_5 C 0.6110(7) 0.1138(7) 0.6544(10)
H38_5 H 0.5946 0.0968 0.6275
C41_5 C 0.5113(8) 0.0307(5) 0.7762(10)
H39_5 H 0.4918 0.0184 0.7475
H40_5 H 0.5236 0.0151 0.7827
C42_5 C 0.4933(7) 0.0354(4) 0.8285(10)
C43_5 C 0.4957(6) 0.0310(5) 0.8837(12)
H41_5 H 0.5124 0.0225 0.8964
C44_5 C 0.4750(8) 0.0386(6) 0.9205(8)
H42_5 H 0.4778 0.0361 0.9581
C45_5 C 0.4488(7) 0.0503(6) 0.9010(11)
H43_5 H 0.4335 0.0550 0.9255
C46_5 C 0.4464(6) 0.0548(6) 0.8456(13)
H44_5 H 0.4297 0.0631 0.8323
C47_5 C 0.4685(9) 0.0472(6) 0.8090(9)
H45_5 H 0.4665 0.0501 0.7713
C48_5 C 0.6207(7) 0.2483(7) 0.9408(8)
C49_5 C 0.5837(5) 0.2099(6) 0.9506(5)
C50_5 C 0.5739(7) 0.1711(8) 0.9477(8)
C51_5 C 0.5366(8) 0.1427(6) 0.9597(9)
H46_5 H 0.5303 0.1167 0.9579
C52_5 C 0.5081(6) 0.1513(6) 0.9743(9)
H47_5 H 0.4829 0.1315 0.9821
C53_5 C 0.5177(6) 0.1901(7) 0.9773(10)
H48_5 H 0.4990 0.1967 0.9868
C54_5 C 0.5561(7) 0.2192(5) 0.9656(8)
H49_5 H 0.5629 0.2453 0.9680
C55_5 C 0.6824(6) 0.2726(6) 0.8995(9)
H50_5 H 0.6890 0.2659 0.9348
H51_5 H 0.6906 0.3001 0.9005
C56_5 C 0.7051(4) 0.2665(4) 0.8566(9)
C57_5 C 0.7267(5) 0.2501(5) 0.8709(9)
H52_5 H 0.7273 0.2428 0.9072
C58_5 C 0.7482(6) 0.2444(6) 0.8297(11)
H53_5 H 0.7631 0.2330 0.8384
C59_5 C 0.7471(6) 0.2555(5) 0.7770(10)
H54_5 H 0.7617 0.2520 0.7499
C60_5 C 0.7246(6) 0.2720(6) 0.7632(8)
H55_5 H 0.7239 0.2794 0.7270
C61_5 C 0.7034(6) 0.2775(5) 0.8037(9)
H56_5 H 0.6882 0.2885 0.7951
N11_5 N 0.8770(6) 0.6084(8) 0.8793(10)
N12_5 N 0.3916(8) 0.2687(6) 0.8793(10)
H59_5 H 0.8905 0.6045 0.9035
H60_5 H 0.3955 0.2861 0.9035
N13_5 N 0.9284(5) 0.4693(9) 0.7609(9)
N14_5 N 0.5307(9) 0.4592(7) 0.7609(9)
H61_5 H 0.9081 0.4533 0.7794
H62_5 H 0.5467 0.4549 0.7794
N15_5 N 0.7488(6) 0.3900(8) 0.8936(10)
N16_5 N 0.6100(8) 0.3589(6) 0.8936(10)
H63_5 H 0.7592 0.3892 0.8628
H64_5 H 0.6108 0.3701 0.8628
O21_5 O 0.9359(5) 0.5330(7) 0.9445(8)
O22_5 O 0.4670(7) 0.4030(5) 0.9445(8)
O23_5 O 0.8468(5) 0.5383(8) 0.9250(9)
O24_5 O 0.4617(8) 0.3086(6) 0.9250(9)
O25_5 O 0.8789(5) 0.4932(7) 0.7990(8)
O26_5 O 0.5068(7) 0.3858(5) 0.7990(8)
O27_5 O 0.8317(5) 0.4309(7) 0.9218(9)
O28_5 O 0.5691(7) 0.4009(5) 0.9218(9)
O36_3 O 0.9601(5) 0.4983(7) 0.6815(9)
O37_3 O 0.5017(7) 0.4619(5) 0.6815(9)
O41_5 O 0.7172(5) 0.3574(8) 0.9689(9)
O42_5 O 0.6426(8) 0.3599(6) 0.9689(9)
C62_5 C 0.8752(9) 0.4984(13) 0.8977(13)
C63_5 C 0.5016(13) 0.3769(9) 0.8977(13)
C64_5 C 0.9145(5) 0.5318(9) 0.8966(9)
C65_5 C 0.4682(9) 0.3828(7) 0.8966(9)
H65_5 H 0.9280 0.5305 0.8641
H66_5 H 0.4695 0.3976 0.8641
H67_5 H 0.9132 0.5557 0.8945
H68_5 H 0.4443 0.3576 0.8945
C66_5 C 0.8527(7) 0.5080(9) 0.9444(9)
C67_5 C 0.4920(9) 0.3448(6) 0.9444(9)
H69_5 H 0.8278 0.4850 0.9524
H70_5 H 0.5150 0.3429 0.9524
H71_5 H 0.8680 0.5160 0.9780
H72_5 H 0.4840 0.3521 0.9780
C68_5 C 0.8526(6) 0.4922(9) 0.8404(8)
C69_5 C 0.5078(9) 0.3605(7) 0.8404(8)
H73_5 H 0.8285 0.4673 0.8400
H74_5 H 0.5327 0.3613 0.8400
H75_5 H 0.8466 0.5129 0.8345
H76_5 H 0.4871 0.3338 0.8345
C70_5 C 0.8701(6) 0.4595(8) 0.9103(10)
C71_5 C 0.5405(8) 0.4107(6) 0.9103(10)
H77_5 H 0.8792 0.4509 0.8791
H78_5 H 0.5491 0.4284 0.8791
H79_5 H 0.8862 0.4618 0.9417
H80_5 H 0.5382 0.4245 0.9417
C76_5 C 0.9757(5) 0.5560(7) 0.9594(9)
C77_5 C 0.4440(7) 0.4198(5) 0.9594(9)
C78_5 C 0.9961(6) 0.5774(8) 0.9138(8)
C79_5 C 0.4226(8) 0.4188(5) 0.9138(8)
H81_5 H 0.9828 0.5790 0.8833
H82_5 H 0.4210 0.4039 0.8833
C81_5 C 0.4034(8) 0.4402(6) 0.9135(9)
H84_5 H 0.3896 0.4402 0.8824
C83_5 C 0.4048(7) 0.4611(5) 0.9590(10)
H86_5 H 0.3916 0.4750 0.9593
C100_5 C 0.8391(7) 0.6006(9) 0.8849(9)
C101_5 C 0.3994(9) 0.2386(6) 0.8849(9)
C102_5 C 0.8223(6) 0.5791(8) 0.9381(7)
C103_5 C 0.4209(8) 0.2433(5) 0.9381(7)
C104_5 C 0.8267(6) 0.5497(8) 0.9582(10)
C105_5 C 0.4503(8) 0.2771(5) 0.9582(10)
C112_5 C 0.8011(5) 0.5917(8) 0.9673(9)
C113_5 C 0.4083(8) 0.2095(6) 0.9673(9)
H109_5 H 0.7984 0.6123 0.9545
H110_5 H 0.3877 0.1862 0.9545
C114_5 C 0.8893(7) 0.6245(9) 0.8248(10)
C115_5 C 0.3755(9) 0.2649(6) 0.8248(10)
H111_5 H 0.8921 0.6502 0.8236
H112_5 H 0.3498 0.2420 0.8236
H113_5 H 0.8693 0.6082 0.7985
H114_5 H 0.3918 0.2612 0.7985
C116_5 C 0.9260(5) 0.6274(8) 0.8086(7)
C117_5 C 0.3726(8) 0.2987(6) 0.8086(7)
C118_5 C 0.9262(5) 0.6026(8) 0.7704(7)
C119_5 C 0.3974(8) 0.3237(6) 0.7704(7)
H115_5 H 0.9030 0.5836 0.7548
H116_5 H 0.4164 0.3195 0.7548
C120_5 C 0.9607(7) 0.6056(10) 0.7550(8)
C121_5 C 0.3944(10) 0.3552(7) 0.7550(8)
H117_5 H 0.9609 0.5889 0.7282
H118_5 H 0.4111 0.3721 0.7282
C122_5 C 0.9955(7) 0.6332(9) 0.7786(10)
C123_5 C 0.3668(9) 0.3624(6) 0.7786(10)
H120_5 H 0.3655 0.3844 0.7685
C124_5 C 0.9955(6) 0.6587(8) 0.8170(10)
C125_5 C 0.3413(8) 0.3369(6) 0.8170(10)
H122_3 H 0.3222 0.3411 0.8326
C126_5 C 0.9606(5) 0.6555(8) 0.8319(8)
C127_5 C 0.3445(8) 0.3052(6) 0.8319(8)
H123_4 H 0.9603 0.6724 0.8581
H124_3 H 0.3276 0.2880 0.8581
C128_5 C 0.9274(6) 0.4875(10) 0.7139(10)
C129_5 C 0.5125(10) 0.4400(8) 0.7139(10)
C130_5 C 0.8942(6) 0.4956(10) 0.7090(11)
C131_5 C 0.5044(10) 0.3987(8) 0.7090(11)
C132_5 C 0.8681(7) 0.4923(11) 0.7493(9)
C133_5 C 0.5077(11) 0.3759(8) 0.7493(9)
C134_5 C 0.8389(7) 0.4998(11) 0.7347(10)
C135_5 C 0.5002(11) 0.3392(8) 0.7347(10)
H125_5 H 0.8248 0.5040 0.7619
H126_5 H 0.4960 0.3209 0.7619
C136_5 C 0.8304(6) 0.5013(10) 0.6791(11)
C137_5 C 0.4987(10) 0.3292(8) 0.6791(11)
H127_5 H 0.8093 0.5043 0.6695
H128_5 H 0.4957 0.3051 0.6695
C138_5 C 0.8528(7) 0.4983(10) 0.6390(9)
C139_5 C 0.5017(10) 0.3546(7) 0.6390(9)
H129_5 H 0.8459 0.4969 0.6020
H130_5 H 0.5031 0.3491 0.6020
C140_5 C 0.8862(7) 0.4973(10) 0.6544(10)
C141_5 C 0.5027(10) 0.3890(7) 0.6544(10)
H131_5 H 0.9032 0.4979 0.6275
H132_5 H 0.5021 0.4054 0.6275
C142_5 C 0.9693(5) 0.4807(9) 0.7762(10)
C143_5 C 0.5193(9) 0.4887(8) 0.7762(10)
H133_5 H 0.9816 0.4735 0.7475
H134_5 H 0.5265 0.5082 0.7475
H135_5 H 0.9849 0.5086 0.7827
H136_5 H 0.4914 0.4764 0.7827
C144_5 C 0.9646(4) 0.4580(8) 0.8285(10)
C145_5 C 0.5420(8) 0.5067(7) 0.8285(10)
C146_5 C 0.9690(5) 0.4648(8) 0.8837(12)
C147_5 C 0.5352(8) 0.5043(6) 0.8837(12)
H137_5 H 0.9775 0.4900 0.8964
H138_5 H 0.5100 0.4876 0.8964
C148_5 C 0.9614(6) 0.4365(10) 0.9205(8)
C149_5 C 0.5635(10) 0.5250(8) 0.9205(8)
H139_5 H 0.9639 0.4418 0.9581
H140_5 H 0.5582 0.5222 0.9581
C150_5 C 0.9497(6) 0.3986(9) 0.9010(11)
C151_5 C 0.6014(9) 0.5512(7) 0.9010(11)
H141_5 H 0.9450 0.3786 0.9255
H142_5 H 0.6214 0.5665 0.9255
C152_5 C 0.9452(6) 0.3917(8) 0.8456(13)
C153_5 C 0.6083(8) 0.5536(6) 0.8456(13)
H143_5 H 0.9369 0.3667 0.8323
H144_5 H 0.6333 0.5703 0.8323
C154_5 C 0.9528(6) 0.4214(11) 0.8090(9)
C155_5 C 0.5786(11) 0.5315(9) 0.8090(9)
H145_5 H 0.9499 0.4165 0.7713
H146_5 H 0.5835 0.5335 0.7713
C156_5 C 0.7517(7) 0.3725(10) 0.9408(8)
C157_5 C 0.6275(10) 0.3793(7) 0.9408(8)
C158_5 C 0.7901(6) 0.3739(8) 0.9506(5)
C159_5 C 0.6261(8) 0.4163(5) 0.9506(5)
C160_5 C 0.8289(8) 0.4029(11) 0.9477(8)
C161_5 C 0.5971(11) 0.4261(7) 0.9477(8)
C162_5 C 0.8573(6) 0.3940(10) 0.9597(9)
C163_5 C 0.6060(10) 0.4634(8) 0.9597(9)
H147_5 H 0.8833 0.4137 0.9579
H148_5 H 0.5863 0.4697 0.9579
C164_5 C 0.8487(6) 0.3569(8) 0.9743(9)
C165_5 C 0.6431(8) 0.4919(6) 0.9743(9)
H149_5 H 0.8685 0.3515 0.9821
H150_5 H 0.6485 0.5171 0.9821
C166_5 C 0.8099(7) 0.3277(9) 0.9773(10)
C167_5 C 0.6723(9) 0.4823(6) 0.9773(10)
H151_5 H 0.8033 0.3024 0.9868
H152_5 H 0.6976 0.5010 0.9868
C168_5 C 0.7808(5) 0.3370(9) 0.9656(8)
C169_5 C 0.6630(9) 0.4439(7) 0.9656(8)
H153_5 H 0.7547 0.3177 0.9680
H154_5 H 0.6823 0.4371 0.9680
C170_5 C 0.7274(6) 0.4099(8) 0.8995(9)
C171_5 C 0.5901(8) 0.3176(6) 0.8995(9)
H155_5 H 0.7341 0.4232 0.9348
H156_5 H 0.5768 0.3110 0.9348
H157_5 H 0.6999 0.3906 0.9005
H158_5 H 0.6094 0.3094 0.9005
C172_5 C 0.7335(4) 0.4387(6) 0.8566(9)
C173_5 C 0.5613(6) 0.2949(4) 0.8566(9)
C174_5 C 0.7499(5) 0.4767(7) 0.8709(9)
C175_5 C 0.5233(7) 0.2733(5) 0.8709(9)
H159_5 H 0.7572 0.4846 0.9072
H160_5 H 0.5154 0.2727 0.9072
C176_5 C 0.7556(6) 0.5039(8) 0.8297(11)
C177_5 C 0.4961(8) 0.2518(6) 0.8297(11)
H161_5 H 0.7670 0.5302 0.8384
H162_5 H 0.4698 0.2369 0.8384
C178_5 C 0.7445(5) 0.4917(8) 0.7770(10)
C179_5 C 0.5083(8) 0.2529(6) 0.7770(10)
H163_5 H 0.7480 0.5098 0.7499
H164_5 H 0.4902 0.2383 0.7499
C180_5 C 0.7280(6) 0.4527(8) 0.7632(8)
C181_5 C 0.5473(8) 0.2754(6) 0.7632(8)
H165_5 H 0.7206 0.4446 0.7270
H166_5 H 0.5554 0.2761 0.7270
C182_5 C 0.7225(5) 0.4260(8) 0.8037(9)
C183_5 C 0.5740(8) 0.2966(6) 0.8037(9)
H167_5 H 0.7115 0.3998 0.7951
H168_5 H 0.6002 0.3118 0.7951
N5_5 N 0.4394(7) 0.9256(7) 0.0494(10)
N6_5 N 0.4027(6) 0.9421(7) 0.2060(10)
O9_5 O 0.4316(5) 0.9520(5) 0.0477(8)
O10_5 O 0.4635(6) 0.9261(5) 0.0848(8)
O11_5 O 0.4362(6) 0.9061(6) 0.0062(9)
O12_5 O 0.4302(5) 0.9710(5) 0.2286(8)
O13_5 O 0.4085(5) 0.9255(5) 0.1650(7)
O14_5 O 0.3711(5) 0.9260(5) 0.2323(8)
O15_5 O 0.4198(5) 1.0000(5) 0.1110(8)
C12_5 C 0.5382(5) 0.9647(5) 0.0053(8)
H16_5 H 0.5238 0.9516 0.0363
C10_5 C 0.5598(6) 0.9633(6) 0.9135(9)
H14_5 H 0.5598 0.9495 0.8824
C11_5 C 0.5389(5) 0.9438(5) 0.9590(10)
H15_5 H 0.5250 0.9167 0.9593
H32_5 H 0.6156 0.9812 0.7685
H33_5 H 0.6589 0.9812 0.8326
N5_6 N 0.0744(7) 0.5606(7) 0.5494(10)
N6_6 N 0.0579(7) 0.5973(6) 0.7060(10)
O9_6 O 0.0480(5) 0.5684(5) 0.5477(8)
O10_6 O 0.0739(5) 0.5365(6) 0.5848(8)
O11_6 O 0.0939(6) 0.5638(6) 0.5062(9)
O12_6 O 0.0290(5) 0.5698(5) 0.7286(8)
O13_6 O 0.0745(5) 0.5915(5) 0.6650(7)
O14_6 O 0.0740(5) 0.6289(5) 0.7323(8)
O15_6 O 0.0000(5) 0.5802(5) 0.6110(8)
C10_6 C 0.0367(6) 0.4402(6) 0.4135(9)
H14_6 H 0.0505 0.4402 0.3824
C11_6 C 0.0562(5) 0.4611(5) 0.4590(10)
H15_6 H 0.0833 0.4750 0.4593
C12_6 C 0.0353(5) 0.4618(5) 0.5053(8)
H16_6 H 0.0484 0.4762 0.5363
H32_6 H 0.0188 0.3844 0.2685
H33_6 H 0.0188 0.3411 0.3326
Pr2_10 Pr 0.6666 0.3334 0.5340(2)
N1_6 N 0.9372(6) 0.4183(7) 0.5657(10)
H1_6 H 0.9260 0.3934 0.5613
N2_6 N 0.8770(6) 0.2687(6) 0.3793(10)
H2_6 H 0.8905 0.2861 0.4035
N3_6 N 0.9284(5) 0.4592(7) 0.2609(9)
H3_6 H 0.9081 0.4549 0.2794
N4_6 N 0.7488(6) 0.3589(6) 0.3936(10)
H4_6 H 0.7592 0.3701 0.3628
N7_6 N 0.9760(6) 0.5621(6) 0.5749(10)
N8_6 N 0.6953(6) 0.2973(7) 0.5925(10)
O1_6 O 0.9359(5) 0.4030(5) 0.4445(8)
O2_6 O 0.8468(5) 0.3086(6) 0.4250(9)
O3_6 O 0.8789(5) 0.3858(5) 0.2990(8)
O4_6 O 0.8317(5) 0.4009(5) 0.4218(9)
O5_6 O 0.9886(6) 0.4755(6) 0.5867(9)
O8_6 O 0.7172(5) 0.3599(6) 0.4689(9)
O16_6 O 0.9626(5) 0.5267(5) 0.5646(9)
O17_6 O 0.9556(6) 0.5767(5) 0.5566(10)
O18_6 O 0.7078(5) 0.3070(5) 0.5455(9)
O19_6 O 0.6628(5) 0.2951(6) 0.6051(8)
O20_6 O 0.7036(6) 0.2735(7) 0.6146(10)
C1_6 C 0.8752(9) 0.3769(9) 0.3977(13)
C2_6 C 0.9145(5) 0.3828(7) 0.3966(9)
H5_6 H 0.9280 0.3976 0.3641
H6_6 H 0.9132 0.3576 0.3945
C3_6 C 0.8527(7) 0.3448(6) 0.4444(9)
H7_6 H 0.8278 0.3429 0.4524
H8_6 H 0.8680 0.3521 0.4780
C4_6 C 0.8526(6) 0.3605(7) 0.3404(8)
H9_6 H 0.8285 0.3613 0.3400
H10_6 H 0.8466 0.3338 0.3345
C5_6 C 0.8701(6) 0.4107(6) 0.4103(10)
H11_6 H 0.8792 0.4284 0.3791
H12_6 H 0.8862 0.4245 0.4417
C6_6 C 0.9751(7) 0.4427(6) 0.5532(9)
C7_6 C 0.9954(6) 0.4410(4) 0.5042(8)
C8_6 C 0.9757(5) 0.4198(5) 0.4594(9)
C9_6 C 0.9961(6) 0.4188(5) 0.4138(8)
H13_6 H 0.9828 0.4039 0.3833
C13_6 C 0.9172(6) 0.4375(7) 0.5870(10)
H17_6 H 0.9274 0.4492 0.6227
H18_6 H 0.9190 0.4573 0.5618
C14_6 C 0.8761(6) 0.4042(6) 0.5914(7)
C15_6 C 0.8409(8) 0.3968(7) 0.5731(8)
H19_6 H 0.8390 0.4156 0.5525
C16_6 C 0.8076(6) 0.3617(8) 0.5848(9)
H20_6 H 0.7834 0.3566 0.5716
C17_6 C 0.8109(6) 0.3346(6) 0.6159(10)
H21_6 H 0.7887 0.3112 0.6248
C18_6 C 0.8468(8) 0.3419(7) 0.6343(9)
H22_6 H 0.8488 0.3230 0.6544
C19_6 C 0.8801(6) 0.3772(8) 0.6230(8)
H23_6 H 0.9043 0.3826 0.6363
C20_6 C 0.8391(7) 0.2386(6) 0.3849(9)
C21_6 C 0.8223(6) 0.2433(5) 0.4381(7)
C22_6 C 0.8267(6) 0.2771(5) 0.4582(10)
C23_6 C 0.8104(5) 0.2798(6) 0.5077(10)
H24_6 H 0.8138 0.3034 0.5205
C24_6 C 0.7884(6) 0.2447(5) 0.5373(8)
H25_6 H 0.7773 0.2452 0.5708
C25_6 C 0.7834(6) 0.2108(6) 0.5177(9)
H26_6 H 0.7682 0.1879 0.5373
C26_6 C 0.8011(5) 0.2095(6) 0.4673(9)
H27_6 H 0.7984 0.1862 0.4545
C27_6 C 0.8893(7) 0.2649(6) 0.3248(10)
H28_6 H 0.8921 0.2420 0.3236
H29_6 H 0.8693 0.2612 0.2985
C28_6 C 0.9260(5) 0.2987(6) 0.3086(7)
C29_6 C 0.9262(5) 0.3237(6) 0.2704(7)
H30_6 H 0.9030 0.3195 0.2548
C30_6 C 0.9607(7) 0.3552(7) 0.2550(8)
H31_6 H 0.9609 0.3721 0.2282
C31_6 C 0.9955(7) 0.3624(6) 0.2786(10)
C32_6 C 0.9955(6) 0.3369(6) 0.3170(10)
C33_6 C 0.9606(5) 0.3052(6) 0.3319(8)
H34_6 H 0.9603 0.2880 0.3581
C34_6 C 0.9274(6) 0.4400(8) 0.2139(10)
C35_6 C 0.8942(6) 0.3987(8) 0.2090(11)
C36_6 C 0.8681(7) 0.3759(8) 0.2493(9)
C37_6 C 0.8389(7) 0.3392(8) 0.2347(10)
H35_6 H 0.8248 0.3209 0.2619
C38_6 C 0.8304(6) 0.3292(8) 0.1791(11)
H36_6 H 0.8093 0.3051 0.1695
C39_6 C 0.8528(7) 0.3546(7) 0.1390(9)
H37_6 H 0.8459 0.3491 0.1020
C40_6 C 0.8862(7) 0.3890(7) 0.1544(10)
H38_6 H 0.9032 0.4054 0.1275
C41_6 C 0.9693(5) 0.4887(8) 0.2762(10)
H39_6 H 0.9816 0.5082 0.2475
H40_6 H 0.9849 0.4764 0.2827
C42_6 C 0.9646(4) 0.5067(7) 0.3285(10)
C43_6 C 0.9690(5) 0.5043(6) 0.3837(12)
H41_6 H 0.9775 0.4876 0.3964
C44_6 C 0.9614(6) 0.5250(8) 0.4205(8)
H42_6 H 0.9639 0.5222 0.4581
C45_6 C 0.9497(6) 0.5512(7) 0.4010(11)
H43_6 H 0.9450 0.5665 0.4255
C46_6 C 0.9452(6) 0.5536(6) 0.3456(13)
H44_6 H 0.9369 0.5703 0.3323
C47_6 C 0.9528(6) 0.5315(9) 0.3090(9)
H45_6 H 0.9499 0.5335 0.2713
C48_6 C 0.7517(7) 0.3793(7) 0.4408(8)
C49_6 C 0.7901(6) 0.4163(5) 0.4506(5)
C50_6 C 0.8289(8) 0.4261(7) 0.4477(8)
C51_6 C 0.8573(6) 0.4634(8) 0.4597(9)
H46_6 H 0.8833 0.4697 0.4579
C52_6 C 0.8487(6) 0.4919(6) 0.4743(9)
H47_6 H 0.8685 0.5171 0.4821
C53_6 C 0.8099(7) 0.4823(6) 0.4773(10)
H48_6 H 0.8033 0.5010 0.4868
C54_6 C 0.7808(5) 0.4439(7) 0.4656(8)
H49_6 H 0.7547 0.4371 0.4680
C55_6 C 0.7274(6) 0.3176(6) 0.3995(9)
H50_6 H 0.7341 0.3110 0.4348
H51_6 H 0.6999 0.3094 0.4005
C56_6 C 0.7335(4) 0.2949(4) 0.3566(9)
C57_6 C 0.7499(5) 0.2733(5) 0.3709(9)
H52_6 H 0.7572 0.2727 0.4072
C58_6 C 0.7556(6) 0.2518(6) 0.3297(11)
H53_6 H 0.7670 0.2369 0.3384
C59_6 C 0.7445(5) 0.2529(6) 0.2770(10)
H54_6 H 0.7480 0.2383 0.2499
C60_6 C 0.7280(6) 0.2754(6) 0.2632(8)
H55_6 H 0.7206 0.2761 0.2270
C61_6 C 0.7225(5) 0.2966(6) 0.3037(9)
H56_6 H 0.7115 0.3118 0.2951
N9_6 N 0.4810(9) 0.0628(6) 0.5657(10)
N10_6 N 0.5817(7) 0.5190(9) 0.5657(10)
H57_6 H 0.4673 0.0740 0.5613
H58_6 H 0.6066 0.5327 0.5613
N11_6 N 0.3916(8) 0.1230(6) 0.3793(10)
N12_6 N 0.7313(6) 0.6084(8) 0.3793(10)
H59_6 H 0.3955 0.1095 0.4035
H60_6 H 0.7139 0.6045 0.4035
N13_6 N 0.5307(9) 0.0716(5) 0.2609(9)
N14_6 N 0.5408(7) 0.4693(9) 0.2609(9)
H61_6 H 0.5467 0.0919 0.2794
H62_6 H 0.5451 0.4533 0.2794
N15_6 N 0.6100(8) 0.2512(6) 0.3936(10)
N16_6 N 0.6411(6) 0.3900(8) 0.3936(10)
H63_6 H 0.6108 0.2408 0.3628
H64_6 H 0.6299 0.3892 0.3628
N18_6 N 0.4394(7) 0.5139(10) 0.5494(10)
N20_6 N 0.4027(6) 0.4607(9) 0.7060(10)
N21_6 N 0.5860(8) 0.0240(6) 0.5749(10)
N22_6 N 0.4379(6) 0.4140(8) 0.5749(10)
N23_6 N 0.6019(9) 0.3047(6) 0.5925(10)
N24_6 N 0.7027(7) 0.3981(9) 0.5925(10)
O21_6 O 0.4670(7) 0.0641(5) 0.4445(8)
O22_6 O 0.5970(5) 0.5330(7) 0.4445(8)
O23_6 O 0.4617(8) 0.1532(5) 0.4250(9)
O24_6 O 0.6914(6) 0.5383(8) 0.4250(9)
O25_6 O 0.5068(7) 0.1211(5) 0.2990(8)
O26_6 O 0.6142(5) 0.4932(7) 0.2990(8)
O27_6 O 0.5691(7) 0.1683(5) 0.4218(9)
O28_6 O 0.5991(5) 0.4309(7) 0.4218(9)
O29_6 O 0.4868(8) 0.0114(6) 0.5867(9)
O30_6 O 0.5245(6) 0.5132(8) 0.5867(9)
O41_6 O 0.6426(8) 0.2828(5) 0.4689(9)
O42_6 O 0.6401(6) 0.3574(8) 0.4689(9)
O44_6 O 0.4316(5) 0.4797(7) 0.5477(8)
O46_6 O 0.4635(6) 0.5375(8) 0.5848(8)
O48_6 O 0.4362(6) 0.5302(8) 0.5062(9)
O50_6 O 0.4302(5) 0.4593(7) 0.7286(8)
O52_6 O 0.4085(5) 0.4831(7) 0.6650(7)
O54_6 O 0.3711(5) 0.4452(7) 0.7323(8)
O56_6 O 0.4198(5) 0.4199(7) 0.6110(8)
O57_6 O 0.5640(7) 0.0374(5) 0.5646(9)
O58_6 O 0.4733(5) 0.4360(7) 0.5646(9)
O59_6 O 0.6210(8) 0.0444(6) 0.5566(10)
O60_6 O 0.4233(5) 0.3790(8) 0.5566(10)
O61_6 O 0.5991(7) 0.2922(5) 0.5455(9)
O62_6 O 0.6930(5) 0.4009(7) 0.5455(9)
O63_6 O 0.6322(8) 0.3372(5) 0.6051(8)
O64_6 O 0.7049(6) 0.3678(8) 0.6051(8)
O65_6 O 0.7265(7) 0.4302(9) 0.6146(10)
O66_6 O 0.5698(9) 0.2964(6) 0.6146(10)
C62_6 C 0.5016(13) 0.1248(9) 0.3977(13)
C63_6 C 0.6231(9) 0.4984(13) 0.3977(13)
C64_6 C 0.4682(9) 0.0855(5) 0.3966(9)
C65_6 C 0.6172(7) 0.5318(9) 0.3966(9)
H65_6 H 0.4695 0.0720 0.3641
H66_6 H 0.6024 0.5305 0.3641
H67_6 H 0.4443 0.0868 0.3945
H68_6 H 0.6424 0.5557 0.3945
C66_6 C 0.4920(9) 0.1473(7) 0.4444(9)
C67_6 C 0.6552(6) 0.5080(9) 0.4444(9)
H69_6 H 0.5150 0.1722 0.4524
H70_6 H 0.6571 0.4850 0.4524
H71_6 H 0.4840 0.1320 0.4780
H72_6 H 0.6479 0.5160 0.4780
C68_6 C 0.5078(9) 0.1474(6) 0.3404(8)
C69_6 C 0.6395(7) 0.4922(9) 0.3404(8)
H73_6 H 0.5327 0.1715 0.3400
H74_6 H 0.6387 0.4673 0.3400
H75_6 H 0.4871 0.1534 0.3345
H76_6 H 0.6662 0.5129 0.3345
C70_6 C 0.5405(8) 0.1299(6) 0.4103(10)
C71_6 C 0.5893(6) 0.4595(8) 0.4103(10)
H77_6 H 0.5491 0.1208 0.3791
H78_6 H 0.5716 0.4509 0.3791
H79_6 H 0.5382 0.1138 0.4417
H80_6 H 0.5755 0.4618 0.4417
C72_6 C 0.4675(9) 0.0249(7) 0.5532(9)
C73_6 C 0.5573(6) 0.5325(9) 0.5532(9)
C74_6 C 0.4455(7) 0.0046(6) 0.5042(8)
C75_6 C 0.5590(4) 0.5545(7) 0.5042(8)
C76_6 C 0.4440(7) 0.0243(5) 0.4594(9)
C77_6 C 0.5802(5) 0.5560(7) 0.4594(9)
C78_6 C 0.4226(8) 0.0039(6) 0.4138(8)
C79_6 C 0.5812(5) 0.5774(8) 0.4138(8)
H81_6 H 0.4210 0.0172 0.3833
H82_6 H 0.5961 0.5790 0.3833
C81_6 C 0.5598(6) 0.5966(8) 0.4135(9)
H84_6 H 0.5598 0.6104 0.3824
C83_6 C 0.5389(5) 0.5952(7) 0.4590(10)
H86_6 H 0.5250 0.6084 0.4593
C85_6 C 0.5382(5) 0.5736(7) 0.5053(8)
H88_6 H 0.5238 0.5723 0.5363
C86_6 C 0.5202(9) 0.0828(6) 0.5870(10)
C87_6 C 0.5625(7) 0.4798(9) 0.5870(10)
H89_6 H 0.5217 0.0726 0.6227
H90_6 H 0.5508 0.4783 0.6227
H91_6 H 0.5382 0.0810 0.5618
H92_6 H 0.5427 0.4618 0.5618
C88_6 C 0.5280(8) 0.1239(6) 0.5914(7)
C89_6 C 0.5958(6) 0.4720(8) 0.5914(7)
C90_6 C 0.5558(11) 0.1591(8) 0.5731(8)
C91_6 C 0.6032(7) 0.4442(11) 0.5731(8)
H93_6 H 0.5765 0.1610 0.5525
H94_6 H 0.5844 0.4235 0.5525
C92_6 C 0.5540(10) 0.1924(6) 0.5848(9)
C93_6 C 0.6383(8) 0.4460(10) 0.5848(9)
H95_6 H 0.5731 0.2166 0.5716
H96_6 H 0.6434 0.4269 0.5716
C94_6 C 0.5236(8) 0.1891(6) 0.6159(10)
C95_6 C 0.6654(6) 0.4764(8) 0.6159(10)
H97_6 H 0.5224 0.2113 0.6248
H98_6 H 0.6888 0.4776 0.6248
C96_6 C 0.4950(11) 0.1532(8) 0.6343(9)
C97_6 C 0.6581(7) 0.5050(11) 0.6343(9)
H99_6 H 0.4741 0.1512 0.6544
H100_6 H 0.6770 0.5259 0.6544
C98_6 C 0.4970(10) 0.1199(6) 0.6230(8)
C99_6 C 0.6228(8) 0.5030(10) 0.6230(8)
H101_6 H 0.4782 0.0957 0.6363
H102_6 H 0.6174 0.5218 0.6363
C100_6 C 0.3994(9) 0.1609(7) 0.3849(9)
C101_6 C 0.7614(6) 0.6006(9) 0.3849(9)
C102_6 C 0.4209(8) 0.1777(6) 0.4381(7)
C103_6 C 0.7567(5) 0.5791(8) 0.4381(7)
C104_6 C 0.4503(8) 0.1733(6) 0.4582(10)
C105_6 C 0.7229(5) 0.5497(8) 0.4582(10)
C106_6 C 0.4693(8) 0.1896(5) 0.5077(10)
C107_6 C 0.7202(6) 0.5307(8) 0.5077(10)
H103_6 H 0.4895 0.1862 0.5205
H104_6 H 0.6966 0.5105 0.5205
C108_6 C 0.4562(8) 0.2116(6) 0.5373(8)
C109_6 C 0.7553(5) 0.5438(8) 0.5373(8)
H105_6 H 0.4678 0.2227 0.5708
H106_6 H 0.7548 0.5322 0.5708
C110_6 C 0.4273(8) 0.2166(6) 0.5177(9)
C111_6 C 0.7892(6) 0.5727(8) 0.5177(9)
H107_6 H 0.4196 0.2318 0.5373
H108_6 H 0.8121 0.5804 0.5373
C112_6 C 0.4083(8) 0.1989(5) 0.4673(9)
C113_6 C 0.7905(6) 0.5917(8) 0.4673(9)
H109_6 H 0.3877 0.2016 0.4545
H110_6 H 0.8138 0.6123 0.4545
C114_6 C 0.3755(9) 0.1107(7) 0.3248(10)
C115_6 C 0.7351(6) 0.6245(9) 0.3248(10)
H111_6 H 0.3498 0.1079 0.3236
H112_6 H 0.7580 0.6502 0.3236
H113_6 H 0.3918 0.1307 0.2985
H114_6 H 0.7388 0.6082 0.2985
C116_6 C 0.3726(8) 0.0740(5) 0.3086(7)
C117_6 C 0.7013(6) 0.6274(8) 0.3086(7)
C118_6 C 0.3974(8) 0.0738(5) 0.2704(7)
C119_6 C 0.6763(6) 0.6026(8) 0.2704(7)
H115_6 H 0.4164 0.0970 0.2548
H116_6 H 0.6805 0.5836 0.2548
C120_6 C 0.3944(10) 0.0393(7) 0.2550(8)
C121_6 C 0.6448(7) 0.6056(10) 0.2550(8)
H117_6 H 0.4111 0.0391 0.2282
H118_6 H 0.6279 0.5889 0.2282
C122_6 C 0.3668(9) 0.0045(7) 0.2786(10)
C123_6 C 0.6376(6) 0.6332(9) 0.2786(10)
H120_6 H 0.6156 0.6345 0.2685
C124_6 C 0.3413(8) 0.0045(6) 0.3170(10)
C125_6 C 0.6631(6) 0.6587(8) 0.3170(10)
H122_4 H 0.6589 0.6778 0.3326
C126_6 C 0.3445(8) 0.0394(5) 0.3319(8)
C127_6 C 0.6948(6) 0.6555(8) 0.3319(8)
H123_5 H 0.3276 0.0397 0.3581
H124_4 H 0.7120 0.6724 0.3581
C128_6 C 0.5125(10) 0.0726(6) 0.2139(10)
C129_6 C 0.5600(8) 0.4875(10) 0.2139(10)
C130_6 C 0.5044(10) 0.1058(6) 0.2090(11)
C131_6 C 0.6013(8) 0.4956(10) 0.2090(11)
C132_6 C 0.5077(11) 0.1319(7) 0.2493(9)
C133_6 C 0.6241(8) 0.4923(11) 0.2493(9)
C134_6 C 0.5002(11) 0.1611(7) 0.2347(10)
C135_6 C 0.6608(8) 0.4998(11) 0.2347(10)
H125_6 H 0.4960 0.1752 0.2619
H126_6 H 0.6791 0.5040 0.2619
C136_6 C 0.4987(10) 0.1696(6) 0.1791(11)
C137_6 C 0.6708(8) 0.5013(10) 0.1791(11)
H127_6 H 0.4957 0.1907 0.1695
H128_6 H 0.6949 0.5043 0.1695
C138_6 C 0.5017(10) 0.1472(7) 0.1390(9)
C139_6 C 0.6454(7) 0.4983(10) 0.1390(9)
H129_6 H 0.5031 0.1541 0.1020
H130_6 H 0.6509 0.4969 0.1020
C140_6 C 0.5027(10) 0.1138(7) 0.1544(10)
C141_6 C 0.6110(7) 0.4973(10) 0.1544(10)
H131_6 H 0.5021 0.0968 0.1275
H132_6 H 0.5946 0.4979 0.1275
C142_6 C 0.5193(9) 0.0307(5) 0.2762(10)
C143_6 C 0.5113(8) 0.4807(9) 0.2762(10)
H133_6 H 0.5265 0.0184 0.2475
H134_6 H 0.4918 0.4735 0.2475
H135_6 H 0.4914 0.0151 0.2827
H136_6 H 0.5236 0.5086 0.2827
C144_6 C 0.5420(8) 0.0354(4) 0.3285(10)
C145_6 C 0.4933(7) 0.4580(8) 0.3285(10)
C146_6 C 0.5352(8) 0.0310(5) 0.3837(12)
C147_6 C 0.4957(6) 0.4648(8) 0.3837(12)
H137_6 H 0.5100 0.0225 0.3964
H138_6 H 0.5124 0.4900 0.3964
C148_6 C 0.5635(10) 0.0386(6) 0.4205(8)
C149_6 C 0.4750(8) 0.4365(10) 0.4205(8)
H139_6 H 0.5582 0.0361 0.4581
H140_6 H 0.4778 0.4418 0.4581
C150_6 C 0.6014(9) 0.0503(6) 0.4010(11)
C151_6 C 0.4488(7) 0.3986(9) 0.4010(11)
H141_6 H 0.6214 0.0550 0.4255
H142_6 H 0.4335 0.3786 0.4255
C152_6 C 0.6083(8) 0.0548(6) 0.3456(13)
C153_6 C 0.4464(6) 0.3917(8) 0.3456(13)
H143_6 H 0.6333 0.0631 0.3323
H144_6 H 0.4297 0.3667 0.3323
C154_6 C 0.5786(11) 0.0472(6) 0.3090(9)
C155_6 C 0.4685(9) 0.4214(11) 0.3090(9)
H145_6 H 0.5835 0.0501 0.2713
H146_6 H 0.4665 0.4165 0.2713
C156_6 C 0.6275(10) 0.2483(7) 0.4408(8)
C157_6 C 0.6207(7) 0.3725(10) 0.4408(8)
C158_6 C 0.6261(8) 0.2099(6) 0.4506(5)
C159_6 C 0.5837(5) 0.3739(8) 0.4506(5)
C160_6 C 0.5971(11) 0.1711(8) 0.4477(8)
C161_6 C 0.5739(7) 0.4029(11) 0.4477(8)
C162_6 C 0.6060(10) 0.1427(6) 0.4597(9)
C163_6 C 0.5366(8) 0.3940(10) 0.4597(9)
H147_6 H 0.5863 0.1167 0.4579
H148_6 H 0.5303 0.4137 0.4579
C164_6 C 0.6431(8) 0.1513(6) 0.4743(9)
C165_6 C 0.5081(6) 0.3569(8) 0.4743(9)
H149_6 H 0.6485 0.1315 0.4821
H150_6 H 0.4829 0.3515 0.4821
C166_6 C 0.6723(9) 0.1901(7) 0.4773(10)
C167_6 C 0.5177(6) 0.3277(9) 0.4773(10)
H151_6 H 0.6976 0.1967 0.4868
H152_6 H 0.4990 0.3024 0.4868
C168_6 C 0.6630(9) 0.2192(5) 0.4656(8)
C169_6 C 0.5561(7) 0.3370(9) 0.4656(8)
H153_6 H 0.6823 0.2453 0.4680
H154_6 H 0.5629 0.3177 0.4680
C170_6 C 0.5901(8) 0.2726(6) 0.3995(9)
C171_6 C 0.6824(6) 0.4099(8) 0.3995(9)
H155_6 H 0.5768 0.2659 0.4348
H156_6 H 0.6890 0.4232 0.4348
H157_6 H 0.6094 0.3001 0.4005
H158_6 H 0.6906 0.3906 0.4005
C172_6 C 0.5613(6) 0.2665(4) 0.3566(9)
C173_6 C 0.7051(4) 0.4387(6) 0.3566(9)
C174_6 C 0.5233(7) 0.2501(5) 0.3709(9)
C175_6 C 0.7267(5) 0.4767(7) 0.3709(9)
H159_6 H 0.5154 0.2428 0.4072
H160_6 H 0.7273 0.4846 0.4072
C176_6 C 0.4961(8) 0.2444(6) 0.3297(11)
C177_6 C 0.7482(6) 0.5039(8) 0.3297(11)
H161_6 H 0.4698 0.2330 0.3384
H162_6 H 0.7631 0.5302 0.3384
C178_6 C 0.5083(8) 0.2555(5) 0.2770(10)
C179_6 C 0.7471(6) 0.4917(8) 0.2770(10)
H163_6 H 0.4902 0.2520 0.2499
H164_6 H 0.7617 0.5098 0.2499
C180_6 C 0.5473(8) 0.2720(6) 0.2632(8)
C181_6 C 0.7246(6) 0.4527(8) 0.2632(8)
H165_6 H 0.5554 0.2794 0.2270
H166_6 H 0.7239 0.4446 0.2270
C182_6 C 0.5740(8) 0.2775(5) 0.3037(9)
C183_6 C 0.7034(6) 0.4260(8) 0.3037(9)
H167_6 H 0.6002 0.2885 0.2951
H168_6 H 0.6882 0.3998 0.2951
N17_6 N 0.4861(10) 0.9256(7) 0.5494(10)
N19_6 N 0.5393(9) 0.9421(7) 0.7060(10)
O43_6 O 0.5203(7) 0.9520(5) 0.5477(8)
O45_6 O 0.4625(8) 0.9261(5) 0.5848(8)
O47_6 O 0.4698(8) 0.9061(6) 0.5062(9)
O49_6 O 0.5407(7) 0.9710(5) 0.7286(8)
O51_6 O 0.5169(7) 0.9255(5) 0.6650(7)
O53_6 O 0.5548(7) 0.9260(5) 0.7323(8)
O55_6 O 0.5801(7) 1.0000(5) 0.6110(8)
C80_6 C 0.4034(8) 0.9633(6) 0.4135(9)
H83_6 H 0.3896 0.9495 0.3824
C82_6 C 0.4048(7) 0.9438(5) 0.4590(10)
H85_6 H 0.3916 0.9167 0.4593
C84_6 C 0.4264(7) 0.9647(5) 0.5053(8)
H87_6 H 0.4277 0.9516 0.5363
H119_6 H 0.3655 0.9812 0.2685
H121_5 H 0.3222 0.9812 0.3326
H122_5 H 0.9889 0.6744 0.1659
H124_5 H 0.9943 0.6213 0.1914
H122_6 H 0.3256 0.0111 0.6659
H124_6 H 0.3787 0.0057 0.6914
H121_6 H 0.9889 0.3145 0.6659
H123_6 H 0.9943 0.3730 0.6914
loop_
_geom_bond_atom_site_label_1
_geom_bond_atom_site_label_2
_geom_bond_site_symmetry_1
_geom_bond_site_symmetry_2
Pr1 O5 1_555 1_555
Pr2 O8 1_555 1_555
N1 H1 1_555 1_555
N2 H2 1_555 1_555
N3 H3 1_555 1_555
N4 H4 1_555 1_555
N5 O9 1_555 1_555
N6 O12 1_555 1_555
N7 O15 1_555 1_555
N8 O18 1_555 1_555
O1 C2 1_555 1_555
O2 C3 1_555 1_555
O3 C4 1_555 1_555
O4 C5 1_555 1_555
O5 C6 1_555 1_555
O6 C20 1_555 1_555
O7 C34 1_555 1_555
O8 C48 1_555 1_555
O9 Pr1 1_555 1_555
O10 Pr1 1_555 1_555
O11 N5 1_555 1_555
O12 Pr1 1_555 1_555
O13 Pr1 1_555 1_555
O14 N6 1_555 1_555
O15 Pr1 1_555 1_555
O16 Pr1 1_555 1_555
O17 N7 1_555 1_555
O18 Pr2 1_555 1_555
O19 Pr2 1_555 1_555
O20 N8 1_555 1_555
C1 C2 1_555 1_555
C2 H5 1_555 1_555
H6 C2 1_555 1_555
C3 C1 1_555 1_555
H7 C3 1_555 1_555
H8 C3 1_555 1_555
C4 C1 1_555 1_555
H9 C4 1_555 1_555
H10 C4 1_555 1_555
C5 C1 1_555 1_555
H11 C5 1_555 1_555
H12 C5 1_555 1_555
C6 N1 1_555 1_555
C7 C6 1_555 1_555
C8 O1 1_555 1_555
C9 C8 1_555 1_555
H13 C9 1_555 1_555
C10 C9 1_555 1_555
H14 C10 1_555 1_555
C11 C10 1_555 1_555
H15 C11 1_555 1_555
C12 C7 1_555 1_555
H16 C12 1_555 1_555
C13 N1 1_555 1_555
H17 C13 1_555 1_555
H18 C13 1_555 1_555
C14 C13 1_555 1_555
C15 C14 1_555 1_555
H19 C15 1_555 1_555
C16 C15 1_555 1_555
H20 C16 1_555 1_555
C17 C16 1_555 1_555
H21 C17 1_555 1_555
C18 C17 1_555 1_555
H22 C18 1_555 1_555
C19 C14 1_555 1_555
H23 C19 1_555 1_555
C20 N2 1_555 1_555
C21 C20 1_555 1_555
C22 O2 1_555 1_555
C23 C22 1_555 1_555
H24 C23 1_555 1_555
C24 C23 1_555 1_555
H25 C24 1_555 1_555
C25 C24 1_555 1_555
H26 C25 1_555 1_555
C26 C21 1_555 1_555
H27 C26 1_555 1_555
C27 N2 1_555 1_555
H28 C27 1_555 1_555
H29 C27 1_555 1_555
C28 C27 1_555 1_555
C29 C28 1_555 1_555
H30 C29 1_555 1_555
C30 C29 1_555 1_555
H31 C30 1_555 1_555
C31 C30 1_555 1_555
H32 C31 1_555 1_555
C32 C31 1_555 1_555
H33 C32 1_555 1_555
C33 C28 1_555 1_555
H34 C33 1_555 1_555
C34 N3 1_555 1_555
C35 C34 1_555 1_555
C36 O3 1_555 1_555
C37 C36 1_555 1_555
H35 C37 1_555 1_555
C38 C37 1_555 1_555
H36 C38 1_555 1_555
C41 N3 1_555 1_555
H39 C41 1_555 1_555
H40 C41 1_555 1_555
C42 C41 1_555 1_555
C43 C42 1_555 1_555
H41 C43 1_555 1_555
C44 C43 1_555 1_555
H42 C44 1_555 1_555
C45 C44 1_555 1_555
H43 C45 1_555 1_555
C46 C45 1_555 1_555
H44 C46 1_555 1_555
C47 C42 1_555 1_555
H45 C47 1_555 1_555
C48 N4 1_555 1_555
C49 C48 1_555 1_555
C50 O4 1_555 1_555
C51 C50 1_555 1_555
H46 C51 1_555 1_555
C52 C51 1_555 1_555
H47 C52 1_555 1_555
C53 C52 1_555 1_555
H48 C53 1_555 1_555
C54 C49 1_555 1_555
H49 C54 1_555 1_555
C55 N4 1_555 1_555
H50 C55 1_555 1_555
H51 C55 1_555 1_555
C56 C55 1_555 1_555
C57 C56 1_555 1_555
H52 C57 1_555 1_555
C58 C57 1_555 1_555
H53 C58 1_555 1_555
C59 C58 1_555 1_555
H54 C59 1_555 1_555
C60 C59 1_555 1_555
H55 C60 1_555 1_555
C61 C56 1_555 1_555
H56 C61 1_555 1_555
Pr3 O29 1_555 1_555
Pr4 O30 1_555 1_555
Pr5 O6 1_555 1_555
Pr7 O31 1_555 1_555
Pr9 O32 1_555 1_555
N9 H57 1_555 1_555
N10 H58 1_555 1_555
N11 H59 1_555 1_555
N12 H60 1_555 1_555
N13 H61 1_555 1_555
N14 H62 1_555 1_555
N15 H63 1_555 1_555
N16 H64 1_555 1_555
N17 O43 1_555 1_555
N18 O44 1_555 1_555
N19 O49 1_555 1_555
N20 O50 1_555 1_555
N21 O55 1_555 1_555
N22 O56 1_555 1_555
N23 O61 1_555 1_555
N24 O62 1_555 1_555
O21 C64 1_555 1_555
O22 C65 1_555 1_555
O23 C66 1_555 1_555
O24 C67 1_555 1_555
O25 C68 1_555 1_555
O26 C69 1_555 1_555
O27 C70 1_555 1_555
O28 C71 1_555 1_555
O29 C72 1_555 1_555
O30 C73 1_555 1_555
O31 C100 1_555 1_555
O32 C101 1_555 1_555
O33 Pr1 1_555 1_555
O34 Pr3 1_555 1_555
O35 Pr4 1_555 1_555
O36 C128 1_555 1_555
O37 C129 1_555 1_555
O38 Pr1 1_555 1_555
O39 Pr3 1_555 1_555
O40 Pr4 1_555 1_555
O41 Pr2 1_555 1_555
O42 Pr2 1_555 1_555
O43 Pr3 1_555 1_555
O44 Pr4 1_555 1_555
O45 Pr3 1_555 1_555
O46 Pr4 1_555 1_555
O47 N17 1_555 1_555
O48 N18 1_555 1_555
O49 Pr3 1_555 1_555
O50 Pr4 1_555 1_555
O51 Pr3 1_555 1_555
O52 Pr4 1_555 1_555
O53 N19 1_555 1_555
O54 N20 1_555 1_555
O55 Pr3 1_555 1_555
O56 Pr4 1_555 1_555
O57 Pr3 1_555 1_555
O58 Pr4 1_555 1_555
O59 N21 1_555 1_555
O60 N22 1_555 1_555
O61 Pr2 1_555 1_555
O62 Pr2 1_555 1_555
O63 Pr2 1_555 1_555
O64 Pr2 1_555 1_555
O65 N24 1_555 1_555
O66 N23 1_555 1_555
C62 C64 1_555 1_555
C63 C65 1_555 1_555
C64 H65 1_555 1_555
C65 H66 1_555 1_555
H67 C64 1_555 1_555
H68 C65 1_555 1_555
C66 C62 1_555 1_555
C67 C63 1_555 1_555
H69 C66 1_555 1_555
H70 C67 1_555 1_555
H71 C66 1_555 1_555
H72 C67 1_555 1_555
C68 C62 1_555 1_555
C69 C63 1_555 1_555
H73 C68 1_555 1_555
H74 C69 1_555 1_555
H75 C68 1_555 1_555
H76 C69 1_555 1_555
C70 C62 1_555 1_555
C71 C63 1_555 1_555
H77 C70 1_555 1_555
H78 C71 1_555 1_555
H79 C70 1_555 1_555
H80 C71 1_555 1_555
C72 N9 1_555 1_555
C73 N10 1_555 1_555
C74 C72 1_555 1_555
C75 C73 1_555 1_555
C76 O21 1_555 1_555
C77 O22 1_555 1_555
C78 C76 1_555 1_555
C79 C77 1_555 1_555
H81 C78 1_555 1_555
H82 C79 1_555 1_555
C80 C78 1_555 1_555
C81 C79 1_555 1_555
H83 C80 1_555 1_555
H84 C81 1_555 1_555
C82 C80 1_555 1_555
C83 C81 1_555 1_555
H85 C82 1_555 1_555
H86 C83 1_555 1_555
C84 C74 1_555 1_555
C85 C75 1_555 1_555
H87 C84 1_555 1_555
H88 C85 1_555 1_555
C86 N9 1_555 1_555
C87 N10 1_555 1_555
H89 C86 1_555 1_555
H90 C87 1_555 1_555
H91 C86 1_555 1_555
H92 C87 1_555 1_555
C88 C86 1_555 1_555
C89 C87 1_555 1_555
C90 C88 1_555 1_555
C91 C89 1_555 1_555
H93 C90 1_555 1_555
H94 C91 1_555 1_555
C92 C90 1_555 1_555
C93 C91 1_555 1_555
H95 C92 1_555 1_555
H96 C93 1_555 1_555
C94 C92 1_555 1_555
C95 C93 1_555 1_555
H97 C94 1_555 1_555
H98 C95 1_555 1_555
C96 C94 1_555 1_555
C97 C95 1_555 1_555
H99 C96 1_555 1_555
H100 C97 1_555 1_555
C98 C88 1_555 1_555
C99 C89 1_555 1_555
H101 C98 1_555 1_555
H102 C99 1_555 1_555
C100 N11 1_555 1_555
C101 N12 1_555 1_555
C102 C100 1_555 1_555
C103 C101 1_555 1_555
C104 O23 1_555 1_555
C105 O24 1_555 1_555
C106 C104 1_555 1_555
C107 C105 1_555 1_555
H103 C106 1_555 1_555
H104 C107 1_555 1_555
C108 C106 1_555 1_555
C109 C107 1_555 1_555
H105 C108 1_555 1_555
H106 C109 1_555 1_555
C110 C108 1_555 1_555
C111 C109 1_555 1_555
H107 C110 1_555 1_555
H108 C111 1_555 1_555
C112 C102 1_555 1_555
C113 C103 1_555 1_555
H109 C112 1_555 1_555
H110 C113 1_555 1_555
C114 N11 1_555 1_555
C115 N12 1_555 1_555
H111 C114 1_555 1_555
H112 C115 1_555 1_555
H113 C114 1_555 1_555
H114 C115 1_555 1_555
C116 C114 1_555 1_555
C117 C115 1_555 1_555
C118 C116 1_555 1_555
C119 C117 1_555 1_555
H115 C118 1_555 1_555
H116 C119 1_555 1_555
C120 C118 1_555 1_555
C121 C119 1_555 1_555
H117 C120 1_555 1_555
H118 C121 1_555 1_555
C122 C120 1_555 1_555
C123 C121 1_555 1_555
H119 C122 1_555 1_555
H120 C123 1_555 1_555
C124 C122 1_555 1_555
C125 C123 1_555 1_555
C126 C116 1_555 1_555
C127 C117 1_555 1_555
C128 N13 1_555 1_555
C129 N14 1_555 1_555
C130 C128 1_555 1_555
C131 C129 1_555 1_555
C132 O25 1_555 1_555
C133 O26 1_555 1_555
C134 C132 1_555 1_555
C135 C133 1_555 1_555
H125 C134 1_555 1_555
H126 C135 1_555 1_555
C136 C134 1_555 1_555
C137 C135 1_555 1_555
H127 C136 1_555 1_555
H128 C137 1_555 1_555
C142 N13 1_555 1_555
C143 N14 1_555 1_555
H133 C142 1_555 1_555
H134 C143 1_555 1_555
H135 C142 1_555 1_555
H136 C143 1_555 1_555
C144 C142 1_555 1_555
C145 C143 1_555 1_555
C146 C144 1_555 1_555
C147 C145 1_555 1_555
H137 C146 1_555 1_555
H138 C147 1_555 1_555
C148 C146 1_555 1_555
C149 C147 1_555 1_555
H139 C148 1_555 1_555
H140 C149 1_555 1_555
C150 C148 1_555 1_555
C151 C149 1_555 1_555
H141 C150 1_555 1_555
H142 C151 1_555 1_555
C152 C150 1_555 1_555
C153 C151 1_555 1_555
H143 C152 1_555 1_555
H144 C153 1_555 1_555
C154 C144 1_555 1_555
C155 C145 1_555 1_555
H145 C154 1_555 1_555
H146 C155 1_555 1_555
C156 N15 1_555 1_555
C157 N16 1_555 1_555
C158 C156 1_555 1_555
C159 C157 1_555 1_555
C160 O27 1_555 1_555
C161 O28 1_555 1_555
C162 C160 1_555 1_555
C163 C161 1_555 1_555
H147 C162 1_555 1_555
H148 C163 1_555 1_555
C164 C162 1_555 1_555
C165 C163 1_555 1_555
H149 C164 1_555 1_555
H150 C165 1_555 1_555
C166 C164 1_555 1_555
C167 C165 1_555 1_555
H151 C166 1_555 1_555
H152 C167 1_555 1_555
C168 C158 1_555 1_555
C169 C159 1_555 1_555
H153 C168 1_555 1_555
H154 C169 1_555 1_555
C170 N15 1_555 1_555
C171 N16 1_555 1_555
H155 C170 1_555 1_555
H156 C171 1_555 1_555
H157 C170 1_555 1_555
H158 C171 1_555 1_555
C172 C170 1_555 1_555
C173 C171 1_555 1_555
C174 C172 1_555 1_555
C175 C173 1_555 1_555
H159 C174 1_555 1_555
H160 C175 1_555 1_555
C176 C174 1_555 1_555
C177 C175 1_555 1_555
H161 C176 1_555 1_555
H162 C177 1_555 1_555
C178 C176 1_555 1_555
C179 C177 1_555 1_555
H163 C178 1_555 1_555
H164 C179 1_555 1_555
C180 C178 1_555 1_555
C181 C179 1_555 1_555
H165 C180 1_555 1_555
H166 C181 1_555 1_555
C182 C172 1_555 1_555
C183 C173 1_555 1_555
H167 C182 1_555 1_555
H168 C183 1_555 1_555
N5 O10 1_555 1_555
N6 O13 1_555 1_555
N7 O16 1_555 1_555
N8 O19 1_555 1_555
C7 C8 1_555 1_555
C11 C12 1_555 1_555
C18 C19 1_555 1_555
C21 C22 1_555 1_555
C25 C26 1_555 1_555
C32 C33 1_555 1_555
C35 C36 1_555 1_555
C46 C47 1_555 1_555
C49 C50 1_555 1_555
C53 C54 1_555 1_555
C60 C61 1_555 1_555
N17 O45 1_555 1_555
N18 O46 1_555 1_555
N19 O51 1_555 1_555
N20 O52 1_555 1_555
N21 O57 1_555 1_555
N22 O58 1_555 1_555
N23 O63 1_555 1_555
N24 O64 1_555 1_555
O41 C156 1_555 1_555
O42 C157 1_555 1_555
C74 C76 1_555 1_555
C75 C77 1_555 1_555
C82 C84 1_555 1_555
C83 C85 1_555 1_555
C96 C98 1_555 1_555
C97 C99 1_555 1_555
C102 C104 1_555 1_555
C103 C105 1_555 1_555
C110 C112 1_555 1_555
C111 C113 1_555 1_555
C124 C126 1_555 1_555
C125 C127 1_555 1_555
C130 C132 1_555 1_555
C131 C133 1_555 1_555
C152 C154 1_555 1_555
C153 C155 1_555 1_555
C158 C160 1_555 1_555
C159 C161 1_555 1_555
C166 C168 1_555 1_555
C167 C169 1_555 1_555
C180 C182 1_555 1_555
C181 C183 1_555 1_555
H37 C39 1_555 1_555
H38 C40 1_555 1_555
H129 C138 1_555 1_555
H130 C139 1_555 1_555
H131 C140 1_555 1_555
H132 C141 1_555 1_555
C39 C40 1_555 1_555
C138 C140 1_555 1_555
C139 C141 1_555 1_555
N6_2 O12_2 1_555 1_555
O14_2 N6_2 1_555 1_555
N19_2 O49_2 1_555 1_555
N20_2 O50_2 1_555 1_555
O53_2 N19_2 1_555 1_555
O54_2 N20_2 1_555 1_555
Pr8 O5_2 1_555 1_555
Pr2_2 O8_2 1_555 1_555
N1_2 H1_2 1_555 1_555
N2_2 H2_2 1_555 1_555
N3_2 H3_2 1_555 1_555
N4_2 H4_2 1_555 1_555
N5_2 O9_2 1_555 1_555
N7_2 O15_2 1_555 1_555
N8_2 O18_2 1_555 1_555
O1_2 C2_2 1_555 1_555
O2_2 C3_2 1_555 1_555
O3_2 C4_2 1_555 1_555
O4_2 C5_2 1_555 1_555
O5_2 C6_2 1_555 1_555
O6_2 C20_2 1_555 1_555
O39 C34_2 1_555 1_555
O8_2 C48_2 1_555 1_555
O9_2 Pr8 1_555 1_555
O10_2 Pr8 1_555 1_555
O11_2 N5_2 1_555 1_555
O13_2 Pr8 1_555 1_555
O15_2 Pr8 1_555 1_555
O16_2 Pr8 1_555 1_555
O17_2 N7_2 1_555 1_555
O18_2 Pr2_2 1_555 1_555
O19_2 Pr2_2 1_555 1_555
O20_2 N8_2 1_555 1_555
C1_2 C2_2 1_555 1_555
C2_2 H5_2 1_555 1_555
H6_2 C2_2 1_555 1_555
C3_2 C1_2 1_555 1_555
H7_2 C3_2 1_555 1_555
H8_2 C3_2 1_555 1_555
C4_2 C1_2 1_555 1_555
H9_2 C4_2 1_555 1_555
H10_2 C4_2 1_555 1_555
C5_2 C1_2 1_555 1_555
H11_2 C5_2 1_555 1_555
H12_2 C5_2 1_555 1_555
C6_2 N1_2 1_555 1_555
C7_2 C6_2 1_555 1_555
C8_2 O1_2 1_555 1_555
C9_2 C8_2 1_555 1_555
H13_2 C9_2 1_555 1_555
C10_2 C9_2 1_555 1_555
H14_2 C10_2 1_555 1_555
C11_2 C10_2 1_555 1_555
H15_2 C11_2 1_555 1_555
C12_2 C7_2 1_555 1_555
H16_2 C12_2 1_555 1_555
C13_2 N1_2 1_555 1_555
H17_2 C13_2 1_555 1_555
H18_2 C13_2 1_555 1_555
C14_2 C13_2 1_555 1_555
C15_2 C14_2 1_555 1_555
H19_2 C15_2 1_555 1_555
C16_2 C15_2 1_555 1_555
H20_2 C16_2 1_555 1_555
C17_2 C16_2 1_555 1_555
H21_2 C17_2 1_555 1_555
C18_2 C17_2 1_555 1_555
H22_2 C18_2 1_555 1_555
C19_2 C14_2 1_555 1_555
H23_2 C19_2 1_555 1_555
C20_2 N2_2 1_555 1_555
C21_2 C20_2 1_555 1_555
C22_2 O2_2 1_555 1_555
C23_2 C22_2 1_555 1_555
H24_2 C23_2 1_555 1_555
C24_2 C23_2 1_555 1_555
H25_2 C24_2 1_555 1_555
C25_2 C24_2 1_555 1_555
H26_2 C25_2 1_555 1_555
C26_2 C21_2 1_555 1_555
H27_2 C26_2 1_555 1_555
C27_2 N2_2 1_555 1_555
H28_2 C27_2 1_555 1_555
H29_2 C27_2 1_555 1_555
C28_2 C27_2 1_555 1_555
C29_2 C28_2 1_555 1_555
H30_2 C29_2 1_555 1_555
C30_2 C29_2 1_555 1_555
H31_2 C30_2 1_555 1_555
C31_2 C30_2 1_555 1_555
H32_2 C31_2 1_555 1_555
C32_2 C31_2 1_555 1_555
H33_2 C32_2 1_555 1_555
C33_2 C28_2 1_555 1_555
H34_2 C33_2 1_555 1_555
C34_2 N3_2 1_555 1_555
C35_2 C34_2 1_555 1_555
C36_2 O3_2 1_555 1_555
C37_2 C36_2 1_555 1_555
H35_2 C37_2 1_555 1_555
C38_2 C37_2 1_555 1_555
H36_2 C38_2 1_555 1_555
C39_2 C38_2 1_555 1_555
H37_2 C39_2 1_555 1_555
C40_2 C35_2 1_555 1_555
H38_2 C40_2 1_555 1_555
C41_2 N3_2 1_555 1_555
H39_2 C41_2 1_555 1_555
H40_2 C41_2 1_555 1_555
C42_2 C41_2 1_555 1_555
C43_2 C42_2 1_555 1_555
H41_2 C43_2 1_555 1_555
C44_2 C43_2 1_555 1_555
H42_2 C44_2 1_555 1_555
C45_2 C44_2 1_555 1_555
H43_2 C45_2 1_555 1_555
C46_2 C45_2 1_555 1_555
H44_2 C46_2 1_555 1_555
C47_2 C42_2 1_555 1_555
H45_2 C47_2 1_555 1_555
C48_2 N4_2 1_555 1_555
C49_2 C48_2 1_555 1_555
C50_2 O4_2 1_555 1_555
C51_2 C50_2 1_555 1_555
H46_2 C51_2 1_555 1_555
C52_2 C51_2 1_555 1_555
H47_2 C52_2 1_555 1_555
C53_2 C52_2 1_555 1_555
H48_2 C53_2 1_555 1_555
C54_2 C49_2 1_555 1_555
H49_2 C54_2 1_555 1_555
C55_2 N4_2 1_555 1_555
H50_2 C55_2 1_555 1_555
H51_2 C55_2 1_555 1_555
C56_2 C55_2 1_555 1_555
C57_2 C56_2 1_555 1_555
H52_2 C57_2 1_555 1_555
C58_2 C57_2 1_555 1_555
H53_2 C58_2 1_555 1_555
C59_2 C58_2 1_555 1_555
H54_2 C59_2 1_555 1_555
C60_2 C59_2 1_555 1_555
H55_2 C60_2 1_555 1_555
C61_2 C56_2 1_555 1_555
H56_2 C61_2 1_555 1_555
Pr6 O29_2 1_555 1_555
Pr10 O30_2 1_555 1_555
Pr5_2 O6_2 1_555 1_555
Pr7_2 O31_2 1_555 1_555
Pr9_2 O32_2 1_555 1_555
N9_2 H57_2 1_555 1_555
N10_2 H58_2 1_555 1_555
N11_2 H59_2 1_555 1_555
N12_2 H60_2 1_555 1_555
N13_2 H61_2 1_555 1_555
N14_2 H62_2 1_555 1_555
N15_2 H63_2 1_555 1_555
N16_2 H64_2 1_555 1_555
N17_2 O43_2 1_555 1_555
N18_2 O44_2 1_555 1_555
N21_2 O55_2 1_555 1_555
N22_2 O56_2 1_555 1_555
N23_2 O61_2 1_555 1_555
N24_2 O62_2 1_555 1_555
O21_2 C64_2 1_555 1_555
O22_2 C65_2 1_555 1_555
O23_2 C66_2 1_555 1_555
O24_2 C67_2 1_555 1_555
O25_2 C68_2 1_555 1_555
O26_2 C69_2 1_555 1_555
O27_2 C70_2 1_555 1_555
O28_2 C71_2 1_555 1_555
O29_2 C72_2 1_555 1_555
O30_2 C73_2 1_555 1_555
O31_2 C100_2 1_555 1_555
O32_2 C101_2 1_555 1_555
O38 C128_2 1_555 1_555
O40 C129_2 1_555 1_555
O41_2 Pr2_2 1_555 1_555
O42_2 Pr2_2 1_555 1_555
O43_2 Pr6 1_555 1_555
O44_2 Pr10 1_555 1_555
O45_2 Pr6 1_555 1_555
O46_2 Pr10 1_555 1_555
O47_2 N17_2 1_555 1_555
O48_2 N18_2 1_555 1_555
O51_2 Pr6 1_555 1_555
O52_2 Pr10 1_555 1_555
O55_2 Pr6 1_555 1_555
O56_2 Pr10 1_555 1_555
O57_2 Pr6 1_555 1_555
O58_2 Pr10 1_555 1_555
O59_2 N21_2 1_555 1_555
O60_2 N22_2 1_555 1_555
O61_2 Pr2_2 1_555 1_555
O62_2 Pr2_2 1_555 1_555
O63_2 Pr2_2 1_555 1_555
O64_2 Pr2_2 1_555 1_555
O65_2 N24_2 1_555 1_555
O66_2 N23_2 1_555 1_555
C62_2 C64_2 1_555 1_555
C63_2 C65_2 1_555 1_555
C64_2 H65_2 1_555 1_555
C65_2 H66_2 1_555 1_555
H67_2 C64_2 1_555 1_555
H68_2 C65_2 1_555 1_555
C66_2 C62_2 1_555 1_555
C67_2 C63_2 1_555 1_555
H69_2 C66_2 1_555 1_555
H70_2 C67_2 1_555 1_555
H71_2 C66_2 1_555 1_555
H72_2 C67_2 1_555 1_555
C68_2 C62_2 1_555 1_555
C69_2 C63_2 1_555 1_555
H73_2 C68_2 1_555 1_555
H74_2 C69_2 1_555 1_555
H75_2 C68_2 1_555 1_555
H76_2 C69_2 1_555 1_555
C70_2 C62_2 1_555 1_555
C71_2 C63_2 1_555 1_555
H77_2 C70_2 1_555 1_555
H78_2 C71_2 1_555 1_555
H79_2 C70_2 1_555 1_555
H80_2 C71_2 1_555 1_555
C72_2 N9_2 1_555 1_555
C73_2 N10_2 1_555 1_555
C74_2 C72_2 1_555 1_555
C75_2 C73_2 1_555 1_555
C76_2 O21_2 1_555 1_555
C77_2 O22_2 1_555 1_555
C78_2 C76_2 1_555 1_555
C79_2 C77_2 1_555 1_555
H81_2 C78_2 1_555 1_555
H82_2 C79_2 1_555 1_555
C80_2 C78_2 1_555 1_555
C81_2 C79_2 1_555 1_555
H83_2 C80_2 1_555 1_555
H84_2 C81_2 1_555 1_555
C82_2 C80_2 1_555 1_555
C83_2 C81_2 1_555 1_555
H85_2 C82_2 1_555 1_555
H86_2 C83_2 1_555 1_555
C84_2 C74_2 1_555 1_555
C85_2 C75_2 1_555 1_555
H87_2 C84_2 1_555 1_555
H88_2 C85_2 1_555 1_555
C86_2 N9_2 1_555 1_555
C87_2 N10_2 1_555 1_555
H89_2 C86_2 1_555 1_555
H90_2 C87_2 1_555 1_555
H91_2 C86_2 1_555 1_555
H92_2 C87_2 1_555 1_555
C88_2 C86_2 1_555 1_555
C89_2 C87_2 1_555 1_555
C90_2 C88_2 1_555 1_555
C91_2 C89_2 1_555 1_555
H93_2 C90_2 1_555 1_555
H94_2 C91_2 1_555 1_555
C92_2 C90_2 1_555 1_555
C93_2 C91_2 1_555 1_555
H95_2 C92_2 1_555 1_555
H96_2 C93_2 1_555 1_555
C94_2 C92_2 1_555 1_555
C95_2 C93_2 1_555 1_555
H97_2 C94_2 1_555 1_555
H98_2 C95_2 1_555 1_555
C96_2 C94_2 1_555 1_555
C97_2 C95_2 1_555 1_555
H99_2 C96_2 1_555 1_555
H100_2 C97_2 1_555 1_555
C98_2 C88_2 1_555 1_555
C99_2 C89_2 1_555 1_555
H101_2 C98_2 1_555 1_555
H102_2 C99_2 1_555 1_555
C100_2 N11_2 1_555 1_555
C101_2 N12_2 1_555 1_555
C102_2 C100_2 1_555 1_555
C103_2 C101_2 1_555 1_555
C104_2 O23_2 1_555 1_555
C105_2 O24_2 1_555 1_555
C106_2 C104_2 1_555 1_555
C107_2 C105_2 1_555 1_555
H103_2 C106_2 1_555 1_555
H104_2 C107_2 1_555 1_555
C108_2 C106_2 1_555 1_555
C109_2 C107_2 1_555 1_555
H105_2 C108_2 1_555 1_555
H106_2 C109_2 1_555 1_555
C110_2 C108_2 1_555 1_555
C111_2 C109_2 1_555 1_555
H107_2 C110_2 1_555 1_555
H108_2 C111_2 1_555 1_555
C112_2 C102_2 1_555 1_555
C113_2 C103_2 1_555 1_555
H109_2 C112_2 1_555 1_555
H110_2 C113_2 1_555 1_555
C114_2 N11_2 1_555 1_555
C115_2 N12_2 1_555 1_555
H111_2 C114_2 1_555 1_555
H112_2 C115_2 1_555 1_555
H113_2 C114_2 1_555 1_555
H114_2 C115_2 1_555 1_555
C116_2 C114_2 1_555 1_555
C117_2 C115_2 1_555 1_555
C118_2 C116_2 1_555 1_555
C119_2 C117_2 1_555 1_555
H115_2 C118_2 1_555 1_555
H116_2 C119_2 1_555 1_555
C120_2 C118_2 1_555 1_555
C121_2 C119_2 1_555 1_555
H117_2 C120_2 1_555 1_555
H118_2 C121_2 1_555 1_555
C122_2 C120_2 1_555 1_555
C123_2 C121_2 1_555 1_555
H119_2 C122_2 1_555 1_555
H120_2 C123_2 1_555 1_555
C124_2 C122_2 1_555 1_555
C125_2 C123_2 1_555 1_555
C126_2 C116_2 1_555 1_555
C127_2 C117_2 1_555 1_555
C128_2 N13_2 1_555 1_555
C129_2 N14_2 1_555 1_555
C130_2 C128_2 1_555 1_555
C131_2 C129_2 1_555 1_555
C132_2 O25_2 1_555 1_555
C133_2 O26_2 1_555 1_555
C134_2 C132_2 1_555 1_555
C135_2 C133_2 1_555 1_555
H125_2 C134_2 1_555 1_555
H126_2 C135_2 1_555 1_555
C136_2 C134_2 1_555 1_555
C137_2 C135_2 1_555 1_555
H127_2 C136_2 1_555 1_555
H128_2 C137_2 1_555 1_555
C138_2 C136_2 1_555 1_555
C139_2 C137_2 1_555 1_555
H129_2 C138_2 1_555 1_555
H130_2 C139_2 1_555 1_555
C140_2 C130_2 1_555 1_555
C141_2 C131_2 1_555 1_555
H131_2 C140_2 1_555 1_555
H132_2 C141_2 1_555 1_555
C142_2 N13_2 1_555 1_555
C143_2 N14_2 1_555 1_555
H133_2 C142_2 1_555 1_555
H134_2 C143_2 1_555 1_555
H135_2 C142_2 1_555 1_555
H136_2 C143_2 1_555 1_555
C144_2 C142_2 1_555 1_555
C145_2 C143_2 1_555 1_555
C146_2 C144_2 1_555 1_555
C147_2 C145_2 1_555 1_555
H137_2 C146_2 1_555 1_555
H138_2 C147_2 1_555 1_555
C148_2 C146_2 1_555 1_555
C149_2 C147_2 1_555 1_555
H139_2 C148_2 1_555 1_555
H140_2 C149_2 1_555 1_555
C150_2 C148_2 1_555 1_555
C151_2 C149_2 1_555 1_555
H141_2 C150_2 1_555 1_555
H142_2 C151_2 1_555 1_555
C152_2 C150_2 1_555 1_555
C153_2 C151_2 1_555 1_555
H143_2 C152_2 1_555 1_555
H144_2 C153_2 1_555 1_555
C154_2 C144_2 1_555 1_555
C155_2 C145_2 1_555 1_555
H145_2 C154_2 1_555 1_555
H146_2 C155_2 1_555 1_555
C156_2 N15_2 1_555 1_555
C157_2 N16_2 1_555 1_555
C158_2 C156_2 1_555 1_555
C159_2 C157_2 1_555 1_555
C160_2 O27_2 1_555 1_555
C161_2 O28_2 1_555 1_555
C162_2 C160_2 1_555 1_555
C163_2 C161_2 1_555 1_555
H147_2 C162_2 1_555 1_555
H148_2 C163_2 1_555 1_555
C164_2 C162_2 1_555 1_555
C165_2 C163_2 1_555 1_555
H149_2 C164_2 1_555 1_555
H150_2 C165_2 1_555 1_555
C166_2 C164_2 1_555 1_555
C167_2 C165_2 1_555 1_555
H151_2 C166_2 1_555 1_555
H152_2 C167_2 1_555 1_555
C168_2 C158_2 1_555 1_555
C169_2 C159_2 1_555 1_555
H153_2 C168_2 1_555 1_555
H154_2 C169_2 1_555 1_555
C170_2 N15_2 1_555 1_555
C171_2 N16_2 1_555 1_555
H155_2 C170_2 1_555 1_555
H156_2 C171_2 1_555 1_555
H157_2 C170_2 1_555 1_555
H158_2 C171_2 1_555 1_555
C172_2 C170_2 1_555 1_555
C173_2 C171_2 1_555 1_555
C174_2 C172_2 1_555 1_555
C175_2 C173_2 1_555 1_555
H159_2 C174_2 1_555 1_555
H160_2 C175_2 1_555 1_555
C176_2 C174_2 1_555 1_555
C177_2 C175_2 1_555 1_555
H161_2 C176_2 1_555 1_555
H162_2 C177_2 1_555 1_555
C178_2 C176_2 1_555 1_555
C179_2 C177_2 1_555 1_555
H163_2 C178_2 1_555 1_555
H164_2 C179_2 1_555 1_555
C180_2 C178_2 1_555 1_555
C181_2 C179_2 1_555 1_555
H165_2 C180_2 1_555 1_555
H166_2 C181_2 1_555 1_555
C182_2 C172_2 1_555 1_555
C183_2 C173_2 1_555 1_555
H167_2 C182_2 1_555 1_555
H168_2 C183_2 1_555 1_555
N5_2 O10_2 1_555 1_555
N7_2 O16_2 1_555 1_555
N8_2 O19_2 1_555 1_555
C7_2 C8_2 1_555 1_555
C11_2 C12_2 1_555 1_555
C18_2 C19_2 1_555 1_555
C21_2 C22_2 1_555 1_555
C25_2 C26_2 1_555 1_555
C32_2 C33_2 1_555 1_555
C35_2 C36_2 1_555 1_555
C39_2 C40_2 1_555 1_555
C46_2 C47_2 1_555 1_555
C49_2 C50_2 1_555 1_555
C53_2 C54_2 1_555 1_555
C60_2 C61_2 1_555 1_555
N17_2 O45_2 1_555 1_555
N18_2 O46_2 1_555 1_555
N21_2 O57_2 1_555 1_555
N22_2 O58_2 1_555 1_555
N23_2 O63_2 1_555 1_555
N24_2 O64_2 1_555 1_555
O41_2 C156_2 1_555 1_555
O42_2 C157_2 1_555 1_555
C74_2 C76_2 1_555 1_555
C75_2 C77_2 1_555 1_555
C82_2 C84_2 1_555 1_555
C83_2 C85_2 1_555 1_555
C96_2 C98_2 1_555 1_555
C97_2 C99_2 1_555 1_555
C102_2 C104_2 1_555 1_555
C103_2 C105_2 1_555 1_555
C110_2 C112_2 1_555 1_555
C111_2 C113_2 1_555 1_555
C124_2 C126_2 1_555 1_555
C125_2 C127_2 1_555 1_555
C130_2 C132_2 1_555 1_555
C131_2 C133_2 1_555 1_555
C138_2 C140_2 1_555 1_555
C139_2 C141_2 1_555 1_555
C152_2 C154_2 1_555 1_555
C153_2 C155_2 1_555 1_555
C158_2 C160_2 1_555 1_555
C159_2 C161_2 1_555 1_555
C166_2 C168_2 1_555 1_555
C167_2 C169_2 1_555 1_555
C180_2 C182_2 1_555 1_555
C181_2 C183_2 1_555 1_555
Pr3_2 O29_3 1_555 1_555
Pr8_2 O36_2 1_555 1_555
N9_3 H57_3 1_555 1_555
N11_3 H59_3 1_555 1_555
N13_3 H61_3 1_555 1_555
N15_3 H63_3 1_555 1_555
N17_3 O43_3 1_555 1_555
N19_3 O49_3 1_555 1_555
N21_3 O55_3 1_555 1_555
N23_3 O61_3 1_555 1_555
O21_3 C64_3 1_555 1_555
O23_3 C66_3 1_555 1_555
O25_3 C68_3 1_555 1_555
O27_3 C70_3 1_555 1_555
O29_3 C72_3 1_555 1_555
O33 C100_3 1_555 1_555
O34_3 Pr3_2 1_555 1_555
O36_2 C128_3 1_555 1_555
O39_2 Pr3_2 1_555 1_555
O43_3 Pr3_2 1_555 1_555
O45_3 Pr3_2 1_555 1_555
O47_3 N17_3 1_555 1_555
O49_3 Pr3_2 1_555 1_555
O51_3 Pr3_2 1_555 1_555
O53_3 N19_3 1_555 1_555
O55_3 Pr3_2 1_555 1_555
O57_3 Pr3_2 1_555 1_555
O59_3 N21_3 1_555 1_555
O66_3 N23_3 1_555 1_555
C62_3 C64_3 1_555 1_555
C64_3 H65_3 1_555 1_555
H67_3 C64_3 1_555 1_555
C66_3 C62_3 1_555 1_555
H69_3 C66_3 1_555 1_555
H71_3 C66_3 1_555 1_555
C68_3 C62_3 1_555 1_555
H73_3 C68_3 1_555 1_555
H75_3 C68_3 1_555 1_555
C70_3 C62_3 1_555 1_555
H77_3 C70_3 1_555 1_555
H79_3 C70_3 1_555 1_555
C72_3 N9_3 1_555 1_555
C74_3 C72_3 1_555 1_555
C76_3 O21_3 1_555 1_555
C78_3 C76_3 1_555 1_555
H81_3 C78_3 1_555 1_555
C80_3 C78_3 1_555 1_555
H83_3 C80_3 1_555 1_555
C82_3 C80_3 1_555 1_555
H85_3 C82_3 1_555 1_555
C84_3 C74_3 1_555 1_555
H87_3 C84_3 1_555 1_555
C86_3 N9_3 1_555 1_555
H89_3 C86_3 1_555 1_555
H91_3 C86_3 1_555 1_555
C88_3 C86_3 1_555 1_555
C90_3 C88_3 1_555 1_555
H93_3 C90_3 1_555 1_555
C92_3 C90_3 1_555 1_555
H95_3 C92_3 1_555 1_555
C94_3 C92_3 1_555 1_555
H97_3 C94_3 1_555 1_555
C96_3 C94_3 1_555 1_555
H99_3 C96_3 1_555 1_555
C98_3 C88_3 1_555 1_555
H101_3 C98_3 1_555 1_555
C100_3 N11_3 1_555 1_555
C102_3 C100_3 1_555 1_555
C104_3 O23_3 1_555 1_555
C106_3 C104_3 1_555 1_555
H103_3 C106_3 1_555 1_555
C108_3 C106_3 1_555 1_555
H105_3 C108_3 1_555 1_555
C110_3 C108_3 1_555 1_555
H107_3 C110_3 1_555 1_555
C112_3 C102_3 1_555 1_555
H109_3 C112_3 1_555 1_555
C114_3 N11_3 1_555 1_555
H111_3 C114_3 1_555 1_555
H113_3 C114_3 1_555 1_555
C116_3 C114_3 1_555 1_555
C118_3 C116_3 1_555 1_555
H115_3 C118_3 1_555 1_555
C120_3 C118_3 1_555 1_555
H117_3 C120_3 1_555 1_555
C122_3 C120_3 1_555 1_555
H119_3 C122_3 1_555 1_555
C124_3 C122_3 1_555 1_555
H121_2 C124_3 1_555 1_555
C126_3 C116_3 1_555 1_555
H123_2 C126_3 1_555 1_555
C128_3 N13_3 1_555 1_555
C130_3 C128_3 1_555 1_555
C132_3 O25_3 1_555 1_555
C134_3 C132_3 1_555 1_555
H125_3 C134_3 1_555 1_555
C136_3 C134_3 1_555 1_555
H127_3 C136_3 1_555 1_555
C138_3 C136_3 1_555 1_555
H129_3 C138_3 1_555 1_555
C140_3 C130_3 1_555 1_555
H131_3 C140_3 1_555 1_555
C142_3 N13_3 1_555 1_555
H133_3 C142_3 1_555 1_555
H135_3 C142_3 1_555 1_555
C144_3 C142_3 1_555 1_555
C146_3 C144_3 1_555 1_555
H137_3 C146_3 1_555 1_555
C148_3 C146_3 1_555 1_555
H139_3 C148_3 1_555 1_555
C150_3 C148_3 1_555 1_555
H141_3 C150_3 1_555 1_555
C152_3 C150_3 1_555 1_555
H143_3 C152_3 1_555 1_555
C154_3 C144_3 1_555 1_555
H145_3 C154_3 1_555 1_555
C156_3 N15_3 1_555 1_555
C158_3 C156_3 1_555 1_555
C160_3 O27_3 1_555 1_555
C162_3 C160_3 1_555 1_555
H147_3 C162_3 1_555 1_555
C164_3 C162_3 1_555 1_555
H149_3 C164_3 1_555 1_555
H152_3 C167_3 1_555 1_555
C168_3 C158_3 1_555 1_555
C170_3 N15_3 1_555 1_555
H155_3 C170_3 1_555 1_555
H157_3 C170_3 1_555 1_555
C172_3 C170_3 1_555 1_555
C174_3 C172_3 1_555 1_555
H159_3 C174_3 1_555 1_555
C176_3 C174_3 1_555 1_555
H161_3 C176_3 1_555 1_555
C178_3 C176_3 1_555 1_555
H163_3 C178_3 1_555 1_555
C180_3 C178_3 1_555 1_555
H165_3 C180_3 1_555 1_555
C182_3 C172_3 1_555 1_555
H167_3 C182_3 1_555 1_555
N17_3 O45_3 1_555 1_555
N19_3 O51_3 1_555 1_555
N21_3 O57_3 1_555 1_555
O41_3 C156_3 1_555 1_555
C74_3 C76_3 1_555 1_555
C82_3 C84_3 1_555 1_555
C96_3 C98_3 1_555 1_555
C102_3 C104_3 1_555 1_555
C110_3 C112_3 1_555 1_555
C124_3 C126_3 1_555 1_555
C130_3 C132_3 1_555 1_555
C138_3 C140_3 1_555 1_555
C152_3 C154_3 1_555 1_555
C158_3 C160_3 1_555 1_555
C180_3 C182_3 1_555 1_555
N2_3 H2_3 1_555 1_555
N8_3 O18_3 1_555 1_555
O35 C20_3 1_555 1_555
O20_3 N8_3 1_555 1_555
C20_3 N2_3 1_555 1_555
C21_3 C20_3 1_555 1_555
C22_3 O2_3 1_555 1_555
C23_3 C22_3 1_555 1_555
H24_3 C23_3 1_555 1_555
C24_3 C23_3 1_555 1_555
H25_3 C24_3 1_555 1_555
C25_3 C24_3 1_555 1_555
H26_3 C25_3 1_555 1_555
C26_3 C21_3 1_555 1_555
H27_3 C26_3 1_555 1_555
C27_3 N2_3 1_555 1_555
H28_3 C27_3 1_555 1_555
H29_3 C27_3 1_555 1_555
C28_3 C27_3 1_555 1_555
C29_3 C28_3 1_555 1_555
H30_3 C29_3 1_555 1_555
C33_3 C28_3 1_555 1_555
H34_3 C33_3 1_555 1_555
H36_3 C38_3 1_555 1_555
H50_3 C55_3 1_555 1_555
H51_3 C55_3 1_555 1_555
C56_3 C55_3 1_555 1_555
C57_3 C56_3 1_555 1_555
H52_3 C57_3 1_555 1_555
C58_3 C57_3 1_555 1_555
H53_3 C58_3 1_555 1_555
C59_3 C58_3 1_555 1_555
H54_3 C59_3 1_555 1_555
C60_3 C59_3 1_555 1_555
H55_3 C60_3 1_555 1_555
C61_3 C56_3 1_555 1_555
H56_3 C61_3 1_555 1_555
H151_3 C166_3 1_555 1_555
C21_3 C22_3 1_555 1_555
C25_3 C26_3 1_555 1_555
C60_3 C61_3 1_555 1_555
Pr4_2 O30_3 1_555 1_555
Pr10_2 O37_2 1_555 1_555
N10_3 H58_3 1_555 1_555
N14_3 H62_3 1_555 1_555
N16_3 H64_3 1_555 1_555
N18_3 O44_3 1_555 1_555
N20_3 O50_3 1_555 1_555
N22_3 O56_3 1_555 1_555
O22_3 C65_3 1_555 1_555
O26_3 C69_3 1_555 1_555
O28_3 C71_3 1_555 1_555
O30_3 C73_3 1_555 1_555
O35_3 Pr4_2 1_555 1_555
O37_2 C129_3 1_555 1_555
O40_2 Pr4_2 1_555 1_555
O42_3 Pr2_3 1_555 1_555
O44_3 Pr4_2 1_555 1_555
O46_3 Pr4_2 1_555 1_555
O48_3 N18_3 1_555 1_555
O50_3 Pr4_2 1_555 1_555
O52_3 Pr4_2 1_555 1_555
O54_3 N20_3 1_555 1_555
O56_3 Pr4_2 1_555 1_555
O58_3 Pr4_2 1_555 1_555
O60_3 N22_3 1_555 1_555
O63_3 Pr2_3 1_555 1_555
C63_3 C65_3 1_555 1_555
C65_3 H66_3 1_555 1_555
H68_3 C65_3 1_555 1_555
C67_3 C63_3 1_555 1_555
H70_3 C67_3 1_555 1_555
H72_3 C67_3 1_555 1_555
C69_3 C63_3 1_555 1_555
H74_3 C69_3 1_555 1_555
H76_3 C69_3 1_555 1_555
C71_3 C63_3 1_555 1_555
H78_3 C71_3 1_555 1_555
H80_3 C71_3 1_555 1_555
C73_3 N10_3 1_555 1_555
C75_3 C73_3 1_555 1_555
C77_3 O22_3 1_555 1_555
C79_3 C77_3 1_555 1_555
H82_3 C79_3 1_555 1_555
C81_3 C79_3 1_555 1_555
H84_3 C81_3 1_555 1_555
C83_3 C81_3 1_555 1_555
H86_3 C83_3 1_555 1_555
C85_3 C75_3 1_555 1_555
H88_3 C85_3 1_555 1_555
C87_3 N10_3 1_555 1_555
H90_3 C87_3 1_555 1_555
H92_3 C87_3 1_555 1_555
C89_3 C87_3 1_555 1_555
C91_3 C89_3 1_555 1_555
H94_3 C91_3 1_555 1_555
C93_3 C91_3 1_555 1_555
H96_3 C93_3 1_555 1_555
C95_3 C93_3 1_555 1_555
C97_3 C95_3 1_555 1_555
C99_3 C89_3 1_555 1_555
H102_3 C99_3 1_555 1_555
H118_3 C121_3 1_555 1_555
C123_3 C121_3 1_555 1_555
H120_3 C123_3 1_555 1_555
C125_3 C123_3 1_555 1_555
H122 C125_3 1_555 1_555
C129_3 N14_3 1_555 1_555
C131_3 C129_3 1_555 1_555
C133_3 O26_3 1_555 1_555
C135_3 C133_3 1_555 1_555
H130_3 C139_3 1_555 1_555
C141_3 C131_3 1_555 1_555
H132_3 C141_3 1_555 1_555
C143_3 N14_3 1_555 1_555
H134_3 C143_3 1_555 1_555
H136_3 C143_3 1_555 1_555
C145_3 C143_3 1_555 1_555
C147_3 C145_3 1_555 1_555
H138_3 C147_3 1_555 1_555
C149_3 C147_3 1_555 1_555
H140_3 C149_3 1_555 1_555
C151_3 C149_3 1_555 1_555
H142_3 C151_3 1_555 1_555
C153_3 C151_3 1_555 1_555
H144_3 C153_3 1_555 1_555
C155_3 C145_3 1_555 1_555
H146_3 C155_3 1_555 1_555
C157_3 N16_3 1_555 1_555
C159_3 C157_3 1_555 1_555
C161_3 O28_3 1_555 1_555
C163_3 C161_3 1_555 1_555
H148_3 C163_3 1_555 1_555
C165_3 C163_3 1_555 1_555
H150_3 C165_3 1_555 1_555
C169_3 C159_3 1_555 1_555
N18_3 O46_3 1_555 1_555
N20_3 O52_3 1_555 1_555
N22_3 O58_3 1_555 1_555
O42_3 C157_3 1_555 1_555
C75_3 C77_3 1_555 1_555
C83_3 C85_3 1_555 1_555
C97_3 C99_3 1_555 1_555
C131_3 C133_3 1_555 1_555
C139_3 C141_3 1_555 1_555
C153_3 C155_3 1_555 1_555
C159_3 C161_3 1_555 1_555
Pr1_2 O5_3 1_555 1_555
N1_3 H1_3 1_555 1_555
N3_3 H3_3 1_555 1_555
N4_3 H4_3 1_555 1_555
N5_3 O9_3 1_555 1_555
N6_3 O12_3 1_555 1_555
N7_3 O15_3 1_555 1_555
O1_3 C2_3 1_555 1_555
O3_3 C4_3 1_555 1_555
O4_3 C5_3 1_555 1_555
O5_3 C6_3 1_555 1_555
O7_2 C34_3 1_555 1_555
O8_3 C48_3 1_555 1_555
O9_3 Pr1_2 1_555 1_555
O10_3 Pr1_2 1_555 1_555
O11_3 N5_3 1_555 1_555
O12_3 Pr1_2 1_555 1_555
O13_3 Pr1_2 1_555 1_555
O14_3 N6_3 1_555 1_555
O15_3 Pr1_2 1_555 1_555
O16_3 Pr1_2 1_555 1_555
O17_3 N7_3 1_555 1_555
C1_3 C2_3 1_555 1_555
C2_3 H5_3 1_555 1_555
H6_3 C2_3 1_555 1_555
C3_3 C1_3 1_555 1_555
H7_3 C3_3 1_555 1_555
H8_3 C3_3 1_555 1_555
C4_3 C1_3 1_555 1_555
H9_3 C4_3 1_555 1_555
H10_3 C4_3 1_555 1_555
C5_3 C1_3 1_555 1_555
H11_3 C5_3 1_555 1_555
H12_3 C5_3 1_555 1_555
C6_3 N1_3 1_555 1_555
C7_3 C6_3 1_555 1_555
C8_3 O1_3 1_555 1_555
C9_3 C8_3 1_555 1_555
H13_3 C9_3 1_555 1_555
C10_3 C9_3 1_555 1_555
H14_3 C10_3 1_555 1_555
C11_3 C10_3 1_555 1_555
H15_3 C11_3 1_555 1_555
C12_3 C7_3 1_555 1_555
H16_3 C12_3 1_555 1_555
C13_3 N1_3 1_555 1_555
H17_3 C13_3 1_555 1_555
H18_3 C13_3 1_555 1_555
C14_3 C13_3 1_555 1_555
C15_3 C14_3 1_555 1_555
H19_3 C15_3 1_555 1_555
C16_3 C15_3 1_555 1_555
H20_3 C16_3 1_555 1_555
C17_3 C16_3 1_555 1_555
C18_3 C17_3 1_555 1_555
C19_3 C14_3 1_555 1_555
H23_3 C19_3 1_555 1_555
H31_3 C30_3 1_555 1_555
C31_3 C30_3 1_555 1_555
H32_3 C31_3 1_555 1_555
C32_3 C31_3 1_555 1_555
H33_3 C32_3 1_555 1_555
C34_3 N3_3 1_555 1_555
C35_3 C34_3 1_555 1_555
C36_3 O3_3 1_555 1_555
C37_3 C36_3 1_555 1_555
H37_3 C39_3 1_555 1_555
C40_3 C35_3 1_555 1_555
H38_3 C40_3 1_555 1_555
C41_3 N3_3 1_555 1_555
H39_3 C41_3 1_555 1_555
H40_3 C41_3 1_555 1_555
C42_3 C41_3 1_555 1_555
C43_3 C42_3 1_555 1_555
H41_3 C43_3 1_555 1_555
C44_3 C43_3 1_555 1_555
H42_3 C44_3 1_555 1_555
C45_3 C44_3 1_555 1_555
H43_3 C45_3 1_555 1_555
C46_3 C45_3 1_555 1_555
H44_3 C46_3 1_555 1_555
C47_3 C42_3 1_555 1_555
H45_3 C47_3 1_555 1_555
C48_3 N4_3 1_555 1_555
C49_3 C48_3 1_555 1_555
C50_3 O4_3 1_555 1_555
C51_3 C50_3 1_555 1_555
H46_3 C51_3 1_555 1_555
C52_3 C51_3 1_555 1_555
H47_3 C52_3 1_555 1_555
C53_3 C52_3 1_555 1_555
H48_3 C53_3 1_555 1_555
C54_3 C49_3 1_555 1_555
H49_3 C54_3 1_555 1_555
Pr6_2 O7_2 1_555 1_555
N12_3 H60_3 1_555 1_555
N24_3 O62_3 1_555 1_555
O34 C101_3 1_555 1_555
O33_3 Pr1_2 1_555 1_555
O38_2 Pr1_2 1_555 1_555
O65_3 N24_3 1_555 1_555
C101_3 N12_3 1_555 1_555
C103_3 C101_3 1_555 1_555
C105_3 O24_3 1_555 1_555
C107_3 C105_3 1_555 1_555
H104_3 C107_3 1_555 1_555
C109_3 C107_3 1_555 1_555
H106_3 C109_3 1_555 1_555
C111_3 C109_3 1_555 1_555
H108_3 C111_3 1_555 1_555
C113_3 C103_3 1_555 1_555
H110_3 C113_3 1_555 1_555
C115_3 N12_3 1_555 1_555
H112_3 C115_3 1_555 1_555
H114_3 C115_3 1_555 1_555
C117_3 C115_3 1_555 1_555
C119_3 C117_3 1_555 1_555
H116_3 C119_3 1_555 1_555
C127_3 C117_3 1_555 1_555
H124 C127_3 1_555 1_555
H128_3 C137_3 1_555 1_555
H156_3 C171_3 1_555 1_555
H158_3 C171_3 1_555 1_555
C173_3 C171_3 1_555 1_555
C175_3 C173_3 1_555 1_555
H160_3 C175_3 1_555 1_555
C177_3 C175_3 1_555 1_555
H162_3 C177_3 1_555 1_555
C179_3 C177_3 1_555 1_555
H164_3 C179_3 1_555 1_555
C181_3 C179_3 1_555 1_555
H166_3 C181_3 1_555 1_555
C183_3 C173_3 1_555 1_555
H168_3 C183_3 1_555 1_555
N5_3 O10_3 1_555 1_555
N6_3 O13_3 1_555 1_555
N7_3 O16_3 1_555 1_555
C7_3 C8_3 1_555 1_555
C11_3 C12_3 1_555 1_555
C18_3 C19_3 1_555 1_555
C35_3 C36_3 1_555 1_555
C39_3 C40_3 1_555 1_555
C46_3 C47_3 1_555 1_555
C49_3 C50_3 1_555 1_555
C53_3 C54_3 1_555 1_555
N24_3 O64_3 1_555 1_555
C103_3 C105_3 1_555 1_555
C111_3 C113_3 1_555 1_555
C181_3 C183_3 1_555 1_555
O8_3 Pr2_4 1_555 1_555
O62_3 Pr2_4 1_555 1_555
O64_3 Pr2_4 1_555 1_555
O41_3 Pr2_5 1_555 1_555
O61_3 Pr2_5 1_555 1_555
O19_3 Pr2_5 1_555 1_555
Pr8_2 O5_4 1_555 1_555
N1_4 H1_4 1_555 1_555
N4_4 H4_4 1_555 1_555
N5_4 O9_4 1_555 1_555
N6_4 O12_4 1_555 1_555
N7_4 O15_4 1_555 1_555
O1_4 C2_4 1_555 1_555
O4_4 C5_4 1_555 1_555
O5_4 C6_4 1_555 1_555
O8_4 C48_4 1_555 1_555
O9_4 Pr8_2 1_555 1_555
O10_4 Pr8_2 1_555 1_555
O11_4 N5_4 1_555 1_555
O12_4 Pr8_2 1_555 1_555
O13_4 Pr8_2 1_555 1_555
O14_4 N6_4 1_555 1_555
O15_4 Pr8_2 1_555 1_555
O16_4 Pr8_2 1_555 1_555
O17_4 N7_4 1_555 1_555
C1_4 C2_4 1_555 1_555
C2_4 H5_4 1_555 1_555
H6_4 C2_4 1_555 1_555
C3_4 C1_4 1_555 1_555
H7_4 C3_4 1_555 1_555
H8_4 C3_4 1_555 1_555
C4_4 C1_4 1_555 1_555
H9_4 C4_4 1_555 1_555
H10_4 C4_4 1_555 1_555
C5_4 C1_4 1_555 1_555
H11_4 C5_4 1_555 1_555
H12_4 C5_4 1_555 1_555
C6_4 N1_4 1_555 1_555
C7_4 C6_4 1_555 1_555
C8_4 O1_4 1_555 1_555
C9_4 C8_4 1_555 1_555
H13_4 C9_4 1_555 1_555
C10_4 C9_4 1_555 1_555
H14_4 C10_4 1_555 1_555
C11_4 C10_4 1_555 1_555
H15_4 C11_4 1_555 1_555
C12_4 C7_4 1_555 1_555
H16_4 C12_4 1_555 1_555
C13_4 N1_4 1_555 1_555
H17_4 C13_4 1_555 1_555
H18_4 C13_4 1_555 1_555
C14_4 C13_4 1_555 1_555
C15_4 C14_4 1_555 1_555
H19_4 C15_4 1_555 1_555
C16_4 C15_4 1_555 1_555
H20_4 C16_4 1_555 1_555
C17_4 C16_4 1_555 1_555
C18_4 C17_4 1_555 1_555
C19_4 C14_4 1_555 1_555
H23_4 C19_4 1_555 1_555
H41_4 C43_4 1_555 1_555
C44_4 C43_4 1_555 1_555
H42_4 C44_4 1_555 1_555
C45_4 C44_4 1_555 1_555
H43_4 C45_4 1_555 1_555
C46_4 C45_4 1_555 1_555
C48_4 N4_4 1_555 1_555
C49_4 C48_4 1_555 1_555
C50_4 O4_4 1_555 1_555
C51_4 C50_4 1_555 1_555
H46_4 C51_4 1_555 1_555
C52_4 C51_4 1_555 1_555
H47_4 C52_4 1_555 1_555
C53_4 C52_4 1_555 1_555
H48_4 C53_4 1_555 1_555
C54_4 C49_4 1_555 1_555
H49_4 C54_4 1_555 1_555
N12_4 H60_4 1_555 1_555
N24_4 O62_4 1_555 1_555
O34_2 C101_4 1_555 1_555
O33_4 Pr8_2 1_555 1_555
O65_4 N24_4 1_555 1_555
C101_4 N12_4 1_555 1_555
C103_4 C101_4 1_555 1_555
C105_4 O24_4 1_555 1_555
C107_4 C105_4 1_555 1_555
H104_4 C107_4 1_555 1_555
C109_4 C107_4 1_555 1_555
H106_4 C109_4 1_555 1_555
C111_4 C109_4 1_555 1_555
H108_4 C111_4 1_555 1_555
C113_4 C103_4 1_555 1_555
H110_4 C113_4 1_555 1_555
H156_4 C171_4 1_555 1_555
H158_4 C171_4 1_555 1_555
C173_4 C171_4 1_555 1_555
C175_4 C173_4 1_555 1_555
H160_4 C175_4 1_555 1_555
N5_4 O10_4 1_555 1_555
N6_4 O13_4 1_555 1_555
N7_4 O16_4 1_555 1_555
C7_4 C8_4 1_555 1_555
C11_4 C12_4 1_555 1_555
C18_4 C19_4 1_555 1_555
C49_4 C50_4 1_555 1_555
C53_4 C54_4 1_555 1_555
N24_4 O64_4 1_555 1_555
C103_4 C105_4 1_555 1_555
C111_4 C113_4 1_555 1_555
N3_4 H3_4 1_555 1_555
O39_2 C34_4 1_555 1_555
H31_4 C30_4 1_555 1_555
C31_4 C30_4 1_555 1_555
H32_4 C31_4 1_555 1_555
C32_4 C31_4 1_555 1_555
H33_4 C32_4 1_555 1_555
C34_4 N3_4 1_555 1_555
C35_4 C34_4 1_555 1_555
C36_4 O3_4 1_555 1_555
C37_4 C36_4 1_555 1_555
H37_4 C39_4 1_555 1_555
C40_4 C35_4 1_555 1_555
H38_4 C40_4 1_555 1_555
C41_4 N3_4 1_555 1_555
H39_4 C41_4 1_555 1_555
H40_4 C41_4 1_555 1_555
C42_4 C41_4 1_555 1_555
C47_4 C42_4 1_555 1_555
H45_4 C47_4 1_555 1_555
H112_4 C115_4 1_555 1_555
H114_4 C115_4 1_555 1_555
C117_4 C115_4 1_555 1_555
C119_4 C117_4 1_555 1_555
H116_4 C119_4 1_555 1_555
C127_4 C117_4 1_555 1_555
H128_4 C137_4 1_555 1_555
C179_4 C177_4 1_555 1_555
H164_4 C179_4 1_555 1_555
C181_4 C179_4 1_555 1_555
H166_4 C181_4 1_555 1_555
H168_4 C183_4 1_555 1_555
C35_4 C36_4 1_555 1_555
C39_4 C40_4 1_555 1_555
C181_4 C183_4 1_555 1_555
N2_4 H2_4 1_555 1_555
N8_4 O18_4 1_555 1_555
O35_2 C20_4 1_555 1_555
O20_4 N8_4 1_555 1_555
C20_4 N2_4 1_555 1_555
C21_4 C20_4 1_555 1_555
C22_4 O2_4 1_555 1_555
C23_4 C22_4 1_555 1_555
H24_4 C23_4 1_555 1_555
C24_4 C23_4 1_555 1_555
H25_4 C24_4 1_555 1_555
C25_4 C24_4 1_555 1_555
H26_4 C25_4 1_555 1_555
C26_4 C21_4 1_555 1_555
H27_4 C26_4 1_555 1_555
H50_4 C55_4 1_555 1_555
H51_4 C55_4 1_555 1_555
C56_4 C55_4 1_555 1_555
C57_4 C56_4 1_555 1_555
H52_4 C57_4 1_555 1_555
H151_4 C166_4 1_555 1_555
C21_4 C22_4 1_555 1_555
C25_4 C26_4 1_555 1_555
H28_4 C27_4 1_555 1_555
H29_4 C27_4 1_555 1_555
C28_4 C27_4 1_555 1_555
C29_4 C28_4 1_555 1_555
H30_4 C29_4 1_555 1_555
C33_4 C28_4 1_555 1_555
H36_4 C38_4 1_555 1_555
C59_4 C58_4 1_555 1_555
H54_4 C59_4 1_555 1_555
C60_4 C59_4 1_555 1_555
H55_4 C60_4 1_555 1_555
H56_4 C61_4 1_555 1_555
C60_4 C61_4 1_555 1_555
Pr10_2 O30_4 1_555 1_555
N10_4 H58_4 1_555 1_555
N16_4 H64_4 1_555 1_555
N18_4 O44_4 1_555 1_555
N20_4 O50_4 1_555 1_555
N22_4 O56_4 1_555 1_555
O22_4 C65_4 1_555 1_555
O28_4 C71_4 1_555 1_555
O30_4 C73_4 1_555 1_555
O35_4 Pr10_2 1_555 1_555
O42_4 Pr2_6 1_555 1_555
O44_4 Pr10_2 1_555 1_555
O46_4 Pr10_2 1_555 1_555
O48_4 N18_4 1_555 1_555
O50_4 Pr10_2 1_555 1_555
O52_4 Pr10_2 1_555 1_555
O54_4 N20_4 1_555 1_555
O56_4 Pr10_2 1_555 1_555
O58_4 Pr10_2 1_555 1_555
O60_4 N22_4 1_555 1_555
O63_4 Pr2_6 1_555 1_555
C63_4 C65_4 1_555 1_555
C65_4 H66_4 1_555 1_555
H68_4 C65_4 1_555 1_555
C67_4 C63_4 1_555 1_555
H70_4 C67_4 1_555 1_555
H72_4 C67_4 1_555 1_555
C69_4 C63_4 1_555 1_555
H74_4 C69_4 1_555 1_555
H76_4 C69_4 1_555 1_555
C71_4 C63_4 1_555 1_555
H78_4 C71_4 1_555 1_555
H80_4 C71_4 1_555 1_555
C73_4 N10_4 1_555 1_555
C75_4 C73_4 1_555 1_555
C77_4 O22_4 1_555 1_555
C79_4 C77_4 1_555 1_555
H82_4 C79_4 1_555 1_555
C81_4 C79_4 1_555 1_555
H84_4 C81_4 1_555 1_555
C83_4 C81_4 1_555 1_555
H86_4 C83_4 1_555 1_555
C85_4 C75_4 1_555 1_555
H88_4 C85_4 1_555 1_555
C87_4 N10_4 1_555 1_555
H90_4 C87_4 1_555 1_555
H92_4 C87_4 1_555 1_555
C89_4 C87_4 1_555 1_555
C91_4 C89_4 1_555 1_555
H94_4 C91_4 1_555 1_555
C93_4 C91_4 1_555 1_555
H96_4 C93_4 1_555 1_555
C95_4 C93_4 1_555 1_555
C97_4 C95_4 1_555 1_555
C99_4 C89_4 1_555 1_555
H102_4 C99_4 1_555 1_555
H138_4 C147_4 1_555 1_555
C149_4 C147_4 1_555 1_555
H140_4 C149_4 1_555 1_555
C151_4 C149_4 1_555 1_555
H142_4 C151_4 1_555 1_555
C153_4 C151_4 1_555 1_555
C157_4 N16_4 1_555 1_555
C159_4 C157_4 1_555 1_555
C161_4 O28_4 1_555 1_555
C163_4 C161_4 1_555 1_555
H148_4 C163_4 1_555 1_555
C165_4 C163_4 1_555 1_555
H150_4 C165_4 1_555 1_555
C169_4 C159_4 1_555 1_555
N18_4 O46_4 1_555 1_555
N20_4 O52_4 1_555 1_555
N22_4 O58_4 1_555 1_555
O42_4 C157_4 1_555 1_555
C75_4 C77_4 1_555 1_555
C83_4 C85_4 1_555 1_555
C97_4 C99_4 1_555 1_555
C159_4 C161_4 1_555 1_555
N14_4 H62_4 1_555 1_555
O40_2 C129_4 1_555 1_555
H118_4 C121_4 1_555 1_555
C123_4 C121_4 1_555 1_555
H120_4 C123_4 1_555 1_555
C125_4 C123_4 1_555 1_555
H122_2 C125_4 1_555 1_555
C129_4 N14_4 1_555 1_555
C131_4 C129_4 1_555 1_555
C133_4 O26_4 1_555 1_555
C135_4 C133_4 1_555 1_555
H130_4 C139_4 1_555 1_555
C141_4 C131_4 1_555 1_555
H132_4 C141_4 1_555 1_555
C143_4 N14_4 1_555 1_555
H134_4 C143_4 1_555 1_555
H136_4 C143_4 1_555 1_555
C145_4 C143_4 1_555 1_555
C155_4 C145_4 1_555 1_555
H146_4 C155_4 1_555 1_555
C131_4 C133_4 1_555 1_555
C139_4 C141_4 1_555 1_555
Pr6_2 O29_4 1_555 1_555
N9_4 H57_4 1_555 1_555
N11_4 H59_4 1_555 1_555
N15_4 H63_4 1_555 1_555
N17_4 O43_4 1_555 1_555
N19_4 O49_4 1_555 1_555
N21_4 O55_4 1_555 1_555
N23_4 O61_4 1_555 1_555
O21_4 C64_4 1_555 1_555
O23_4 C66_4 1_555 1_555
O27_4 C70_4 1_555 1_555
O29_4 C72_4 1_555 1_555
O33_2 C100_4 1_555 1_555
O34_4 Pr6_2 1_555 1_555
O43_4 Pr6_2 1_555 1_555
O45_4 Pr6_2 1_555 1_555
O47_4 N17_4 1_555 1_555
O49_4 Pr6_2 1_555 1_555
O51_4 Pr6_2 1_555 1_555
O53_4 N19_4 1_555 1_555
O55_4 Pr6_2 1_555 1_555
O57_4 Pr6_2 1_555 1_555
O59_4 N21_4 1_555 1_555
O66_4 N23_4 1_555 1_555
C62_4 C64_4 1_555 1_555
C64_4 H65_4 1_555 1_555
H67_4 C64_4 1_555 1_555
C66_4 C62_4 1_555 1_555
H69_4 C66_4 1_555 1_555
H71_4 C66_4 1_555 1_555
C68_4 C62_4 1_555 1_555
H73_4 C68_4 1_555 1_555
H75_4 C68_4 1_555 1_555
C70_4 C62_4 1_555 1_555
H77_4 C70_4 1_555 1_555
H79_4 C70_4 1_555 1_555
C72_4 N9_4 1_555 1_555
C74_4 C72_4 1_555 1_555
C76_4 O21_4 1_555 1_555
C78_4 C76_4 1_555 1_555
H81_4 C78_4 1_555 1_555
C80_4 C78_4 1_555 1_555
H83_4 C80_4 1_555 1_555
C82_4 C80_4 1_555 1_555
H85_4 C82_4 1_555 1_555
C84_4 C74_4 1_555 1_555
H87_4 C84_4 1_555 1_555
C86_4 N9_4 1_555 1_555
H89_4 C86_4 1_555 1_555
H91_4 C86_4 1_555 1_555
C88_4 C86_4 1_555 1_555
C90_4 C88_4 1_555 1_555
H93_4 C90_4 1_555 1_555
C92_4 C90_4 1_555 1_555
H95_4 C92_4 1_555 1_555
C94_4 C92_4 1_555 1_555
H97_4 C94_4 1_555 1_555
C96_4 C94_4 1_555 1_555
H99_4 C96_4 1_555 1_555
C98_4 C88_4 1_555 1_555
H101_4 C98_4 1_555 1_555
C100_4 N11_4 1_555 1_555
C102_4 C100_4 1_555 1_555
C104_4 O23_4 1_555 1_555
C106_4 C104_4 1_555 1_555
H103_4 C106_4 1_555 1_555
C108_4 C106_4 1_555 1_555
H105_4 C108_4 1_555 1_555
C110_4 C108_4 1_555 1_555
H107_4 C110_4 1_555 1_555
C112_4 C102_4 1_555 1_555
H109_4 C112_4 1_555 1_555
H137_4 C146_4 1_555 1_555
C148_4 C146_4 1_555 1_555
H139_4 C148_4 1_555 1_555
C150_4 C148_4 1_555 1_555
H141_4 C150_4 1_555 1_555
C152_4 C150_4 1_555 1_555
C156_4 N15_4 1_555 1_555
C158_4 C156_4 1_555 1_555
C160_4 O27_4 1_555 1_555
C162_4 C160_4 1_555 1_555
H147_4 C162_4 1_555 1_555
C164_4 C162_4 1_555 1_555
H149_4 C164_4 1_555 1_555
H152_4 C167_4 1_555 1_555
C168_4 C158_4 1_555 1_555
C170_4 N15_4 1_555 1_555
H155_4 C170_4 1_555 1_555
H157_4 C170_4 1_555 1_555
C172_4 C170_4 1_555 1_555
C174_4 C172_4 1_555 1_555
H159_4 C174_4 1_555 1_555
N17_4 O45_4 1_555 1_555
N19_4 O51_4 1_555 1_555
N21_4 O57_4 1_555 1_555
O41_4 C156_4 1_555 1_555
C74_4 C76_4 1_555 1_555
C82_4 C84_4 1_555 1_555
C96_4 C98_4 1_555 1_555
C102_4 C104_4 1_555 1_555
C110_4 C112_4 1_555 1_555
C158_4 C160_4 1_555 1_555
N13_4 H61_4 1_555 1_555
O38_2 C128_4 1_555 1_555
H111_4 C114_4 1_555 1_555
H113_4 C114_4 1_555 1_555
C116_4 C114_4 1_555 1_555
C118_4 C116_4 1_555 1_555
H115_4 C118_4 1_555 1_555
C120_4 C118_4 1_555 1_555
H117_4 C120_4 1_555 1_555
C122_4 C120_4 1_555 1_555
H119_4 C122_4 1_555 1_555
C124_4 C122_4 1_555 1_555
H121_3 C124_4 1_555 1_555
C126_4 C116_4 1_555 1_555
C128_4 N13_4 1_555 1_555
C130_4 C128_4 1_555 1_555
C132_4 O25_4 1_555 1_555
C134_4 C132_4 1_555 1_555
H125_4 C134_4 1_555 1_555
C136_4 C134_4 1_555 1_555
H127_4 C136_4 1_555 1_555
C138_4 C136_4 1_555 1_555
H129_4 C138_4 1_555 1_555
C140_4 C130_4 1_555 1_555
H131_4 C140_4 1_555 1_555
C142_4 N13_4 1_555 1_555
H133_4 C142_4 1_555 1_555
H135_4 C142_4 1_555 1_555
C144_4 C142_4 1_555 1_555
C154_4 C144_4 1_555 1_555
H145_4 C154_4 1_555 1_555
C178_4 C176_4 1_555 1_555
H163_4 C178_4 1_555 1_555
C180_4 C178_4 1_555 1_555
H165_4 C180_4 1_555 1_555
H167_4 C182_4 1_555 1_555
C124_4 C126_4 1_555 1_555
C130_4 C132_4 1_555 1_555
C138_4 C140_4 1_555 1_555
C180_4 C182_4 1_555 1_555
O8_4 Pr2_7 1_555 1_555
O62_4 Pr2_7 1_555 1_555
O64_4 Pr2_7 1_555 1_555
O41_4 Pr2_8 1_555 1_555
O61_4 Pr2_8 1_555 1_555
O19_4 Pr2_8 1_555 1_555
N17_5 O43_5 1_555 1_555
N19_5 O49_5 1_555 1_555
O43_5 Pr9 1_555 1_555
O45_5 Pr9 1_555 1_555
O47_5 N17_5 1_555 1_555
O49_5 Pr9 1_555 1_555
O51_5 Pr9 1_555 1_555
O53_5 N19_5 1_555 1_555
O55_5 Pr9 1_555 1_555
H87_5 C84_5 1_555 1_555
N17_5 O45_5 1_555 1_555
N19_5 O51_5 1_555 1_555
H83_5 C80_5 1_555 1_555
C82_5 C80_5 1_555 1_555
H85_5 C82_5 1_555 1_555
N1_5 H1_5 1_555 1_555
N8_5 O18_5 1_555 1_555
O5_5 C6_5 1_555 1_555
O17_5 N7_5 1_555 1_555
O18_5 Pr2_9 1_555 1_555
O19_5 Pr2_9 1_555 1_555
O20_5 N8_5 1_555 1_555
C6_5 N1_5 1_555 1_555
C7_5 C6_5 1_555 1_555
C13_5 N1_5 1_555 1_555
H17_5 C13_5 1_555 1_555
H18_5 C13_5 1_555 1_555
C14_5 C13_5 1_555 1_555
C15_5 C14_5 1_555 1_555
H19_5 C15_5 1_555 1_555
C16_5 C15_5 1_555 1_555
H20_5 C16_5 1_555 1_555
C17_5 C16_5 1_555 1_555
H21_5 C17_5 1_555 1_555
C18_5 C17_5 1_555 1_555
H22_5 C18_5 1_555 1_555
C19_5 C14_5 1_555 1_555
H23_5 C19_5 1_555 1_555
H24_5 C23_5 1_555 1_555
C24_5 C23_5 1_555 1_555
H25_5 C24_5 1_555 1_555
C25_5 C24_5 1_555 1_555
H26_5 C25_5 1_555 1_555
Pr5 O30_5 1_555 1_555
N9_5 H57_5 1_555 1_555
N10_5 H58_5 1_555 1_555
N18_5 O44_5 1_555 1_555
N20_5 O50_5 1_555 1_555
N22_5 O56_5 1_555 1_555
N23_5 O61_5 1_555 1_555
N24_5 O62_5 1_555 1_555
O29_5 C72_5 1_555 1_555
O30_5 C73_5 1_555 1_555
O40_3 Pr5 1_555 1_555
O44_5 Pr5 1_555 1_555
O46_5 Pr5 1_555 1_555
O48_5 N18_5 1_555 1_555
O50_5 Pr5 1_555 1_555
O52_5 Pr5 1_555 1_555
O54_5 N20_5 1_555 1_555
O56_5 Pr5 1_555 1_555
O58_5 Pr5 1_555 1_555
O59_5 N21_5 1_555 1_555
O60_5 N22_5 1_555 1_555
O61_5 Pr2_9 1_555 1_555
O62_5 Pr2_9 1_555 1_555
O63_5 Pr2_9 1_555 1_555
O64_5 Pr2_9 1_555 1_555
O65_5 N24_5 1_555 1_555
O66_5 N23_5 1_555 1_555
C72_5 N9_5 1_555 1_555
C73_5 N10_5 1_555 1_555
C74_5 C72_5 1_555 1_555
C75_5 C73_5 1_555 1_555
C85_5 C75_5 1_555 1_555
H88_5 C85_5 1_555 1_555
C86_5 N9_5 1_555 1_555
C87_5 N10_5 1_555 1_555
H89_5 C86_5 1_555 1_555
H90_5 C87_5 1_555 1_555
H91_5 C86_5 1_555 1_555
H92_5 C87_5 1_555 1_555
C88_5 C86_5 1_555 1_555
C89_5 C87_5 1_555 1_555
C90_5 C88_5 1_555 1_555
C91_5 C89_5 1_555 1_555
H93_5 C90_5 1_555 1_555
H94_5 C91_5 1_555 1_555
C92_5 C90_5 1_555 1_555
C93_5 C91_5 1_555 1_555
H95_5 C92_5 1_555 1_555
H96_5 C93_5 1_555 1_555
C94_5 C92_5 1_555 1_555
C95_5 C93_5 1_555 1_555
H97_5 C94_5 1_555 1_555
H98_5 C95_5 1_555 1_555
C96_5 C94_5 1_555 1_555
C97_5 C95_5 1_555 1_555
H99_5 C96_5 1_555 1_555
H100_5 C97_5 1_555 1_555
C98_5 C88_5 1_555 1_555
C99_5 C89_5 1_555 1_555
H101_5 C98_5 1_555 1_555
H102_5 C99_5 1_555 1_555
H103_5 C106_5 1_555 1_555
H104_5 C107_5 1_555 1_555
C108_5 C106_5 1_555 1_555
C109_5 C107_5 1_555 1_555
H105_5 C108_5 1_555 1_555
H106_5 C109_5 1_555 1_555
C110_5 C108_5 1_555 1_555
C111_5 C109_5 1_555 1_555
H107_5 C110_5 1_555 1_555
H108_5 C111_5 1_555 1_555
N7_5 O16_5 1_555 1_555
N8_5 O19_5 1_555 1_555
C18_5 C19_5 1_555 1_555
N18_5 O46_5 1_555 1_555
N20_5 O52_5 1_555 1_555
N21_5 O57_5 1_555 1_555
N22_5 O58_5 1_555 1_555
N23_5 O63_5 1_555 1_555
N24_5 O64_5 1_555 1_555
C96_5 C98_5 1_555 1_555
C97_5 C99_5 1_555 1_555
N2_5 H2_5 1_555 1_555
N3_5 H3_5 1_555 1_555
N4_5 H4_5 1_555 1_555
O1_5 C2_5 1_555 1_555
O2_5 C3_5 1_555 1_555
O3_5 C4_5 1_555 1_555
O4_5 C5_5 1_555 1_555
O35_3 C20_5 1_555 1_555
O7_3 C34_5 1_555 1_555
O8_5 C48_5 1_555 1_555
C1_5 C2_5 1_555 1_555
C2_5 H5_5 1_555 1_555
H6_5 C2_5 1_555 1_555
C3_5 C1_5 1_555 1_555
H7_5 C3_5 1_555 1_555
H8_5 C3_5 1_555 1_555
C4_5 C1_5 1_555 1_555
H9_5 C4_5 1_555 1_555
H10_5 C4_5 1_555 1_555
C5_5 C1_5 1_555 1_555
H11_5 C5_5 1_555 1_555
H12_5 C5_5 1_555 1_555
C8_5 O1_5 1_555 1_555
C9_5 C8_5 1_555 1_555
H13_5 C9_5 1_555 1_555
C20_5 N2_5 1_555 1_555
C21_5 C20_5 1_555 1_555
C22_5 O2_5 1_555 1_555
C26_5 C21_5 1_555 1_555
H27_5 C26_5 1_555 1_555
C27_5 N2_5 1_555 1_555
H28_5 C27_5 1_555 1_555
H29_5 C27_5 1_555 1_555
C28_5 C27_5 1_555 1_555
C29_5 C28_5 1_555 1_555
H30_5 C29_5 1_555 1_555
C30_5 C29_5 1_555 1_555
H31_5 C30_5 1_555 1_555
C31_5 C30_5 1_555 1_555
C32_5 C31_5 1_555 1_555
C33_5 C28_5 1_555 1_555
H34_5 C33_5 1_555 1_555
C34_5 N3_5 1_555 1_555
C35_5 C34_5 1_555 1_555
C36_5 O3_5 1_555 1_555
C37_5 C36_5 1_555 1_555
H35_5 C37_5 1_555 1_555
C38_5 C37_5 1_555 1_555
H36_5 C38_5 1_555 1_555
C39_5 C38_5 1_555 1_555
H37_5 C39_5 1_555 1_555
C40_5 C35_5 1_555 1_555
H38_5 C40_5 1_555 1_555
C41_5 N3_5 1_555 1_555
H39_5 C41_5 1_555 1_555
H40_5 C41_5 1_555 1_555
C42_5 C41_5 1_555 1_555
C43_5 C42_5 1_555 1_555
H41_5 C43_5 1_555 1_555
C44_5 C43_5 1_555 1_555
H42_5 C44_5 1_555 1_555
C45_5 C44_5 1_555 1_555
H43_5 C45_5 1_555 1_555
C46_5 C45_5 1_555 1_555
H44_5 C46_5 1_555 1_555
C47_5 C42_5 1_555 1_555
H45_5 C47_5 1_555 1_555
C48_5 N4_5 1_555 1_555
C49_5 C48_5 1_555 1_555
C50_5 O4_5 1_555 1_555
C51_5 C50_5 1_555 1_555
H46_5 C51_5 1_555 1_555
C52_5 C51_5 1_555 1_555
H47_5 C52_5 1_555 1_555
C53_5 C52_5 1_555 1_555
H48_5 C53_5 1_555 1_555
C54_5 C49_5 1_555 1_555
H49_5 C54_5 1_555 1_555
C55_5 N4_5 1_555 1_555
H50_5 C55_5 1_555 1_555
H51_5 C55_5 1_555 1_555
C56_5 C55_5 1_555 1_555
C57_5 C56_5 1_555 1_555
H52_5 C57_5 1_555 1_555
C58_5 C57_5 1_555 1_555
H53_5 C58_5 1_555 1_555
C59_5 C58_5 1_555 1_555
H54_5 C59_5 1_555 1_555
C60_5 C59_5 1_555 1_555
H55_5 C60_5 1_555 1_555
C61_5 C56_5 1_555 1_555
H56_5 C61_5 1_555 1_555
Pr5_2 O37_3 1_555 1_555
N11_5 H59_5 1_555 1_555
N12_5 H60_5 1_555 1_555
N13_5 H61_5 1_555 1_555
N14_5 H62_5 1_555 1_555
N15_5 H63_5 1_555 1_555
N16_5 H64_5 1_555 1_555
O21_5 C64_5 1_555 1_555
O22_5 C65_5 1_555 1_555
O23_5 C66_5 1_555 1_555
O24_5 C67_5 1_555 1_555
O25_5 C68_5 1_555 1_555
O26_5 C69_5 1_555 1_555
O27_5 C70_5 1_555 1_555
O28_5 C71_5 1_555 1_555
O33_3 C100_5 1_555 1_555
O34_3 C101_5 1_555 1_555
O36_3 C128_5 1_555 1_555
O37_3 C129_5 1_555 1_555
C62_5 C64_5 1_555 1_555
C63_5 C65_5 1_555 1_555
C64_5 H65_5 1_555 1_555
C65_5 H66_5 1_555 1_555
H67_5 C64_5 1_555 1_555
H68_5 C65_5 1_555 1_555
C66_5 C62_5 1_555 1_555
C67_5 C63_5 1_555 1_555
H69_5 C66_5 1_555 1_555
H70_5 C67_5 1_555 1_555
H71_5 C66_5 1_555 1_555
H72_5 C67_5 1_555 1_555
C68_5 C62_5 1_555 1_555
C69_5 C63_5 1_555 1_555
H73_5 C68_5 1_555 1_555
H74_5 C69_5 1_555 1_555
H75_5 C68_5 1_555 1_555
H76_5 C69_5 1_555 1_555
C70_5 C62_5 1_555 1_555
C71_5 C63_5 1_555 1_555
H77_5 C70_5 1_555 1_555
H78_5 C71_5 1_555 1_555
H79_5 C70_5 1_555 1_555
H80_5 C71_5 1_555 1_555
C76_5 O21_5 1_555 1_555
C77_5 O22_5 1_555 1_555
C78_5 C76_5 1_555 1_555
C79_5 C77_5 1_555 1_555
H81_5 C78_5 1_555 1_555
H82_5 C79_5 1_555 1_555
C81_5 C79_5 1_555 1_555
H84_5 C81_5 1_555 1_555
C83_5 C81_5 1_555 1_555
H86_5 C83_5 1_555 1_555
C100_5 N11_5 1_555 1_555
C101_5 N12_5 1_555 1_555
C102_5 C100_5 1_555 1_555
C103_5 C101_5 1_555 1_555
C104_5 O23_5 1_555 1_555
C105_5 O24_5 1_555 1_555
C112_5 C102_5 1_555 1_555
C113_5 C103_5 1_555 1_555
H109_5 C112_5 1_555 1_555
H110_5 C113_5 1_555 1_555
C114_5 N11_5 1_555 1_555
C115_5 N12_5 1_555 1_555
H111_5 C114_5 1_555 1_555
H112_5 C115_5 1_555 1_555
H113_5 C114_5 1_555 1_555
H114_5 C115_5 1_555 1_555
C116_5 C114_5 1_555 1_555
C117_5 C115_5 1_555 1_555
C118_5 C116_5 1_555 1_555
C119_5 C117_5 1_555 1_555
H115_5 C118_5 1_555 1_555
H116_5 C119_5 1_555 1_555
C120_5 C118_5 1_555 1_555
C121_5 C119_5 1_555 1_555
H117_5 C120_5 1_555 1_555
H118_5 C121_5 1_555 1_555
C122_5 C120_5 1_555 1_555
C123_5 C121_5 1_555 1_555
H120_5 C123_5 1_555 1_555
C124_5 C122_5 1_555 1_555
C125_5 C123_5 1_555 1_555
H122_3 C125_5 1_555 1_555
C126_5 C116_5 1_555 1_555
C127_5 C117_5 1_555 1_555
H123_4 C126_5 1_555 1_555
H124_3 C127_5 1_555 1_555
C128_5 N13_5 1_555 1_555
C129_5 N14_5 1_555 1_555
C130_5 C128_5 1_555 1_555
C131_5 C129_5 1_555 1_555
C132_5 O25_5 1_555 1_555
C133_5 O26_5 1_555 1_555
C134_5 C132_5 1_555 1_555
C135_5 C133_5 1_555 1_555
H125_5 C134_5 1_555 1_555
H126_5 C135_5 1_555 1_555
C136_5 C134_5 1_555 1_555
C137_5 C135_5 1_555 1_555
H127_5 C136_5 1_555 1_555
H128_5 C137_5 1_555 1_555
C138_5 C136_5 1_555 1_555
C139_5 C137_5 1_555 1_555
H129_5 C138_5 1_555 1_555
H130_5 C139_5 1_555 1_555
C140_5 C130_5 1_555 1_555
C141_5 C131_5 1_555 1_555
H131_5 C140_5 1_555 1_555
H132_5 C141_5 1_555 1_555
C142_5 N13_5 1_555 1_555
C143_5 N14_5 1_555 1_555
H133_5 C142_5 1_555 1_555
H134_5 C143_5 1_555 1_555
H135_5 C142_5 1_555 1_555
H136_5 C143_5 1_555 1_555
C144_5 C142_5 1_555 1_555
C145_5 C143_5 1_555 1_555
C146_5 C144_5 1_555 1_555
C147_5 C145_5 1_555 1_555
H137_5 C146_5 1_555 1_555
H138_5 C147_5 1_555 1_555
C148_5 C146_5 1_555 1_555
C149_5 C147_5 1_555 1_555
H139_5 C148_5 1_555 1_555
H140_5 C149_5 1_555 1_555
C150_5 C148_5 1_555 1_555
C151_5 C149_5 1_555 1_555
H141_5 C150_5 1_555 1_555
H142_5 C151_5 1_555 1_555
C152_5 C150_5 1_555 1_555
C153_5 C151_5 1_555 1_555
H143_5 C152_5 1_555 1_555
H144_5 C153_5 1_555 1_555
C154_5 C144_5 1_555 1_555
C155_5 C145_5 1_555 1_555
H145_5 C154_5 1_555 1_555
H146_5 C155_5 1_555 1_555
C156_5 N15_5 1_555 1_555
C157_5 N16_5 1_555 1_555
C158_5 C156_5 1_555 1_555
C159_5 C157_5 1_555 1_555
C160_5 O27_5 1_555 1_555
C161_5 O28_5 1_555 1_555
C162_5 C160_5 1_555 1_555
C163_5 C161_5 1_555 1_555
H147_5 C162_5 1_555 1_555
H148_5 C163_5 1_555 1_555
C164_5 C162_5 1_555 1_555
C165_5 C163_5 1_555 1_555
H149_5 C164_5 1_555 1_555
H150_5 C165_5 1_555 1_555
C166_5 C164_5 1_555 1_555
C167_5 C165_5 1_555 1_555
H151_5 C166_5 1_555 1_555
H152_5 C167_5 1_555 1_555
C168_5 C158_5 1_555 1_555
C169_5 C159_5 1_555 1_555
H153_5 C168_5 1_555 1_555
H154_5 C169_5 1_555 1_555
C170_5 N15_5 1_555 1_555
C171_5 N16_5 1_555 1_555
H155_5 C170_5 1_555 1_555
H156_5 C171_5 1_555 1_555
H157_5 C170_5 1_555 1_555
H158_5 C171_5 1_555 1_555
C172_5 C170_5 1_555 1_555
C173_5 C171_5 1_555 1_555
C174_5 C172_5 1_555 1_555
C175_5 C173_5 1_555 1_555
H159_5 C174_5 1_555 1_555
H160_5 C175_5 1_555 1_555
C176_5 C174_5 1_555 1_555
C177_5 C175_5 1_555 1_555
H161_5 C176_5 1_555 1_555
H162_5 C177_5 1_555 1_555
C178_5 C176_5 1_555 1_555
C179_5 C177_5 1_555 1_555
H163_5 C178_5 1_555 1_555
H164_5 C179_5 1_555 1_555
C180_5 C178_5 1_555 1_555
C181_5 C179_5 1_555 1_555
H165_5 C180_5 1_555 1_555
H166_5 C181_5 1_555 1_555
C182_5 C172_5 1_555 1_555
C183_5 C173_5 1_555 1_555
H167_5 C182_5 1_555 1_555
H168_5 C183_5 1_555 1_555
C21_5 C22_5 1_555 1_555
C32_5 C33_5 1_555 1_555
C35_5 C36_5 1_555 1_555
C39_5 C40_5 1_555 1_555
C46_5 C47_5 1_555 1_555
C49_5 C50_5 1_555 1_555
C53_5 C54_5 1_555 1_555
C60_5 C61_5 1_555 1_555
O41_5 C156_5 1_555 1_555
O42_5 C157_5 1_555 1_555
C102_5 C104_5 1_555 1_555
C103_5 C105_5 1_555 1_555
C124_5 C126_5 1_555 1_555
C125_5 C127_5 1_555 1_555
C130_5 C132_5 1_555 1_555
C131_5 C133_5 1_555 1_555
C138_5 C140_5 1_555 1_555
C139_5 C141_5 1_555 1_555
C152_5 C154_5 1_555 1_555
C153_5 C155_5 1_555 1_555
C158_5 C160_5 1_555 1_555
C159_5 C161_5 1_555 1_555
C166_5 C168_5 1_555 1_555
C167_5 C169_5 1_555 1_555
C180_5 C182_5 1_555 1_555
C181_5 C183_5 1_555 1_555
N5_5 O9_5 1_555 1_555
N6_5 O12_5 1_555 1_555
O9_5 Pr7 1_555 1_555
O10_5 Pr7 1_555 1_555
O11_5 N5_5 1_555 1_555
O12_5 Pr7 1_555 1_555
O13_5 Pr7 1_555 1_555
O14_5 N6_5 1_555 1_555
O15_5 Pr7 1_555 1_555
H16_5 C12_5 1_555 1_555
N5_5 O10_5 1_555 1_555
N6_5 O13_5 1_555 1_555
H14_5 C10_5 1_555 1_555
C11_5 C10_5 1_555 1_555
H15_5 C11_5 1_555 1_555
N5_6 O9_6 1_555 1_555
N6_6 O12_6 1_555 1_555
O9_6 Pr7_2 1_555 1_555
O10_6 Pr7_2 1_555 1_555
O11_6 N5_6 1_555 1_555
O12_6 Pr7_2 1_555 1_555
O13_6 Pr7_2 1_555 1_555
O14_6 N6_6 1_555 1_555
O15_6 Pr7_2 1_555 1_555
H14_6 C10_6 1_555 1_555
C11_6 C10_6 1_555 1_555
H15_6 C11_6 1_555 1_555
H16_6 C12_6 1_555 1_555
N5_6 O10_6 1_555 1_555
N6_6 O13_6 1_555 1_555
C11_6 C12_6 1_555 1_555
Pr2_10 O8_6 1_555 1_555
N1_6 H1_6 1_555 1_555
N2_6 H2_6 1_555 1_555
N3_6 H3_6 1_555 1_555
N4_6 H4_6 1_555 1_555
N8_6 O18_6 1_555 1_555
O1_6 C2_6 1_555 1_555
O2_6 C3_6 1_555 1_555
O3_6 C4_6 1_555 1_555
O4_6 C5_6 1_555 1_555
O5_6 C6_6 1_555 1_555
O35_4 C20_6 1_555 1_555
O39_3 C34_6 1_555 1_555
O8_6 C48_6 1_555 1_555
O17_6 N7_6 1_555 1_555
O18_6 Pr2_10 1_555 1_555
O19_6 Pr2_10 1_555 1_555
O20_6 N8_6 1_555 1_555
C1_6 C2_6 1_555 1_555
C2_6 H5_6 1_555 1_555
H6_6 C2_6 1_555 1_555
C3_6 C1_6 1_555 1_555
H7_6 C3_6 1_555 1_555
H8_6 C3_6 1_555 1_555
C4_6 C1_6 1_555 1_555
H9_6 C4_6 1_555 1_555
H10_6 C4_6 1_555 1_555
C5_6 C1_6 1_555 1_555
H11_6 C5_6 1_555 1_555
H12_6 C5_6 1_555 1_555
C6_6 N1_6 1_555 1_555
C7_6 C6_6 1_555 1_555
C8_6 O1_6 1_555 1_555
C9_6 C8_6 1_555 1_555
H13_6 C9_6 1_555 1_555
C13_6 N1_6 1_555 1_555
H17_6 C13_6 1_555 1_555
H18_6 C13_6 1_555 1_555
C14_6 C13_6 1_555 1_555
C15_6 C14_6 1_555 1_555
H19_6 C15_6 1_555 1_555
C16_6 C15_6 1_555 1_555
H20_6 C16_6 1_555 1_555
C17_6 C16_6 1_555 1_555
H21_6 C17_6 1_555 1_555
C18_6 C17_6 1_555 1_555
H22_6 C18_6 1_555 1_555
C19_6 C14_6 1_555 1_555
H23_6 C19_6 1_555 1_555
C20_6 N2_6 1_555 1_555
C21_6 C20_6 1_555 1_555
C22_6 O2_6 1_555 1_555
C23_6 C22_6 1_555 1_555
H24_6 C23_6 1_555 1_555
C24_6 C23_6 1_555 1_555
H25_6 C24_6 1_555 1_555
C25_6 C24_6 1_555 1_555
H26_6 C25_6 1_555 1_555
C26_6 C21_6 1_555 1_555
H27_6 C26_6 1_555 1_555
C27_6 N2_6 1_555 1_555
H28_6 C27_6 1_555 1_555
H29_6 C27_6 1_555 1_555
C28_6 C27_6 1_555 1_555
C29_6 C28_6 1_555 1_555
H30_6 C29_6 1_555 1_555
C30_6 C29_6 1_555 1_555
H31_6 C30_6 1_555 1_555
C31_6 C30_6 1_555 1_555
C32_6 C31_6 1_555 1_555
C33_6 C28_6 1_555 1_555
H34_6 C33_6 1_555 1_555
C34_6 N3_6 1_555 1_555
C35_6 C34_6 1_555 1_555
C36_6 O3_6 1_555 1_555
C37_6 C36_6 1_555 1_555
H35_6 C37_6 1_555 1_555
C38_6 C37_6 1_555 1_555
H36_6 C38_6 1_555 1_555
C39_6 C38_6 1_555 1_555
H37_6 C39_6 1_555 1_555
C40_6 C35_6 1_555 1_555
H38_6 C40_6 1_555 1_555
C41_6 N3_6 1_555 1_555
H39_6 C41_6 1_555 1_555
H40_6 C41_6 1_555 1_555
C42_6 C41_6 1_555 1_555
C43_6 C42_6 1_555 1_555
H41_6 C43_6 1_555 1_555
C44_6 C43_6 1_555 1_555
H42_6 C44_6 1_555 1_555
C45_6 C44_6 1_555 1_555
H43_6 C45_6 1_555 1_555
C46_6 C45_6 1_555 1_555
H44_6 C46_6 1_555 1_555
C47_6 C42_6 1_555 1_555
H45_6 C47_6 1_555 1_555
C48_6 N4_6 1_555 1_555
C49_6 C48_6 1_555 1_555
C50_6 O4_6 1_555 1_555
C51_6 C50_6 1_555 1_555
H46_6 C51_6 1_555 1_555
C52_6 C51_6 1_555 1_555
H47_6 C52_6 1_555 1_555
C53_6 C52_6 1_555 1_555
H48_6 C53_6 1_555 1_555
C54_6 C49_6 1_555 1_555
H49_6 C54_6 1_555 1_555
C55_6 N4_6 1_555 1_555
H50_6 C55_6 1_555 1_555
H51_6 C55_6 1_555 1_555
C56_6 C55_6 1_555 1_555
C57_6 C56_6 1_555 1_555
H52_6 C57_6 1_555 1_555
C58_6 C57_6 1_555 1_555
H53_6 C58_6 1_555 1_555
C59_6 C58_6 1_555 1_555
H54_6 C59_6 1_555 1_555
C60_6 C59_6 1_555 1_555
H55_6 C60_6 1_555 1_555
C61_6 C56_6 1_555 1_555
H56_6 C61_6 1_555 1_555
Pr5_2 O30_6 1_555 1_555
N9_6 H57_6 1_555 1_555
N10_6 H58_6 1_555 1_555
N11_6 H59_6 1_555 1_555
N12_6 H60_6 1_555 1_555
N13_6 H61_6 1_555 1_555
N14_6 H62_6 1_555 1_555
N15_6 H63_6 1_555 1_555
N16_6 H64_6 1_555 1_555
N18_6 O44_6 1_555 1_555
N20_6 O50_6 1_555 1_555
N22_6 O56_6 1_555 1_555
N23_6 O61_6 1_555 1_555
N24_6 O62_6 1_555 1_555
O21_6 C64_6 1_555 1_555
O22_6 C65_6 1_555 1_555
O23_6 C66_6 1_555 1_555
O24_6 C67_6 1_555 1_555
O25_6 C68_6 1_555 1_555
O26_6 C69_6 1_555 1_555
O27_6 C70_6 1_555 1_555
O28_6 C71_6 1_555 1_555
O29_6 C72_6 1_555 1_555
O30_6 C73_6 1_555 1_555
O33_4 C100_6 1_555 1_555
O34_4 C101_6 1_555 1_555
O38_3 C128_6 1_555 1_555
O40_3 C129_6 1_555 1_555
O41_6 Pr2_10 1_555 1_555
O42_6 Pr2_10 1_555 1_555
O44_6 Pr5_2 1_555 1_555
O46_6 Pr5_2 1_555 1_555
O48_6 N18_6 1_555 1_555
O50_6 Pr5_2 1_555 1_555
O52_6 Pr5_2 1_555 1_555
O54_6 N20_6 1_555 1_555
O56_6 Pr5_2 1_555 1_555
O58_6 Pr5_2 1_555 1_555
O59_6 N21_6 1_555 1_555
O60_6 N22_6 1_555 1_555
O61_6 Pr2_10 1_555 1_555
O62_6 Pr2_10 1_555 1_555
O63_6 Pr2_10 1_555 1_555
O64_6 Pr2_10 1_555 1_555
O65_6 N24_6 1_555 1_555
O66_6 N23_6 1_555 1_555
C62_6 C64_6 1_555 1_555
C63_6 C65_6 1_555 1_555
C64_6 H65_6 1_555 1_555
C65_6 H66_6 1_555 1_555
H67_6 C64_6 1_555 1_555
H68_6 C65_6 1_555 1_555
C66_6 C62_6 1_555 1_555
C67_6 C63_6 1_555 1_555
H69_6 C66_6 1_555 1_555
H70_6 C67_6 1_555 1_555
H71_6 C66_6 1_555 1_555
H72_6 C67_6 1_555 1_555
C68_6 C62_6 1_555 1_555
C69_6 C63_6 1_555 1_555
H73_6 C68_6 1_555 1_555
H74_6 C69_6 1_555 1_555
H75_6 C68_6 1_555 1_555
H76_6 C69_6 1_555 1_555
C70_6 C62_6 1_555 1_555
C71_6 C63_6 1_555 1_555
H77_6 C70_6 1_555 1_555
H78_6 C71_6 1_555 1_555
H79_6 C70_6 1_555 1_555
H80_6 C71_6 1_555 1_555
C72_6 N9_6 1_555 1_555
C73_6 N10_6 1_555 1_555
C74_6 C72_6 1_555 1_555
C75_6 C73_6 1_555 1_555
C76_6 O21_6 1_555 1_555
C77_6 O22_6 1_555 1_555
C78_6 C76_6 1_555 1_555
C79_6 C77_6 1_555 1_555
H81_6 C78_6 1_555 1_555
H82_6 C79_6 1_555 1_555
C81_6 C79_6 1_555 1_555
H84_6 C81_6 1_555 1_555
C83_6 C81_6 1_555 1_555
H86_6 C83_6 1_555 1_555
C85_6 C75_6 1_555 1_555
H88_6 C85_6 1_555 1_555
C86_6 N9_6 1_555 1_555
C87_6 N10_6 1_555 1_555
H89_6 C86_6 1_555 1_555
H90_6 C87_6 1_555 1_555
H91_6 C86_6 1_555 1_555
H92_6 C87_6 1_555 1_555
C88_6 C86_6 1_555 1_555
C89_6 C87_6 1_555 1_555
C90_6 C88_6 1_555 1_555
C91_6 C89_6 1_555 1_555
H93_6 C90_6 1_555 1_555
H94_6 C91_6 1_555 1_555
C92_6 C90_6 1_555 1_555
C93_6 C91_6 1_555 1_555
H95_6 C92_6 1_555 1_555
H96_6 C93_6 1_555 1_555
C94_6 C92_6 1_555 1_555
C95_6 C93_6 1_555 1_555
H97_6 C94_6 1_555 1_555
H98_6 C95_6 1_555 1_555
C96_6 C94_6 1_555 1_555
C97_6 C95_6 1_555 1_555
H99_6 C96_6 1_555 1_555
H100_6 C97_6 1_555 1_555
C98_6 C88_6 1_555 1_555
C99_6 C89_6 1_555 1_555
H101_6 C98_6 1_555 1_555
H102_6 C99_6 1_555 1_555
C100_6 N11_6 1_555 1_555
C101_6 N12_6 1_555 1_555
C102_6 C100_6 1_555 1_555
C103_6 C101_6 1_555 1_555
C104_6 O23_6 1_555 1_555
C105_6 O24_6 1_555 1_555
C106_6 C104_6 1_555 1_555
C107_6 C105_6 1_555 1_555
H103_6 C106_6 1_555 1_555
H104_6 C107_6 1_555 1_555
C108_6 C106_6 1_555 1_555
C109_6 C107_6 1_555 1_555
H105_6 C108_6 1_555 1_555
H106_6 C109_6 1_555 1_555
C110_6 C108_6 1_555 1_555
C111_6 C109_6 1_555 1_555
H107_6 C110_6 1_555 1_555
H108_6 C111_6 1_555 1_555
C112_6 C102_6 1_555 1_555
C113_6 C103_6 1_555 1_555
H109_6 C112_6 1_555 1_555
H110_6 C113_6 1_555 1_555
C114_6 N11_6 1_555 1_555
C115_6 N12_6 1_555 1_555
H111_6 C114_6 1_555 1_555
H112_6 C115_6 1_555 1_555
H113_6 C114_6 1_555 1_555
H114_6 C115_6 1_555 1_555
C116_6 C114_6 1_555 1_555
C117_6 C115_6 1_555 1_555
C118_6 C116_6 1_555 1_555
C119_6 C117_6 1_555 1_555
H115_6 C118_6 1_555 1_555
H116_6 C119_6 1_555 1_555
C120_6 C118_6 1_555 1_555
C121_6 C119_6 1_555 1_555
H117_6 C120_6 1_555 1_555
H118_6 C121_6 1_555 1_555
C122_6 C120_6 1_555 1_555
C123_6 C121_6 1_555 1_555
H120_6 C123_6 1_555 1_555
C124_6 C122_6 1_555 1_555
C125_6 C123_6 1_555 1_555
H122_4 C125_6 1_555 1_555
C126_6 C116_6 1_555 1_555
C127_6 C117_6 1_555 1_555
H123_5 C126_6 1_555 1_555
H124_4 C127_6 1_555 1_555
C128_6 N13_6 1_555 1_555
C129_6 N14_6 1_555 1_555
C130_6 C128_6 1_555 1_555
C131_6 C129_6 1_555 1_555
C132_6 O25_6 1_555 1_555
C133_6 O26_6 1_555 1_555
C134_6 C132_6 1_555 1_555
C135_6 C133_6 1_555 1_555
H125_6 C134_6 1_555 1_555
H126_6 C135_6 1_555 1_555
C136_6 C134_6 1_555 1_555
C137_6 C135_6 1_555 1_555
H127_6 C136_6 1_555 1_555
H128_6 C137_6 1_555 1_555
C138_6 C136_6 1_555 1_555
C139_6 C137_6 1_555 1_555
H129_6 C138_6 1_555 1_555
H130_6 C139_6 1_555 1_555
C140_6 C130_6 1_555 1_555
C141_6 C131_6 1_555 1_555
H131_6 C140_6 1_555 1_555
H132_6 C141_6 1_555 1_555
C142_6 N13_6 1_555 1_555
C143_6 N14_6 1_555 1_555
H133_6 C142_6 1_555 1_555
H134_6 C143_6 1_555 1_555
H135_6 C142_6 1_555 1_555
H136_6 C143_6 1_555 1_555
C144_6 C142_6 1_555 1_555
C145_6 C143_6 1_555 1_555
C146_6 C144_6 1_555 1_555
C147_6 C145_6 1_555 1_555
H137_6 C146_6 1_555 1_555
H138_6 C147_6 1_555 1_555
C148_6 C146_6 1_555 1_555
C149_6 C147_6 1_555 1_555
H139_6 C148_6 1_555 1_555
H140_6 C149_6 1_555 1_555
C150_6 C148_6 1_555 1_555
C151_6 C149_6 1_555 1_555
H141_6 C150_6 1_555 1_555
H142_6 C151_6 1_555 1_555
C152_6 C150_6 1_555 1_555
C153_6 C151_6 1_555 1_555
H143_6 C152_6 1_555 1_555
H144_6 C153_6 1_555 1_555
C154_6 C144_6 1_555 1_555
C155_6 C145_6 1_555 1_555
H145_6 C154_6 1_555 1_555
H146_6 C155_6 1_555 1_555
C156_6 N15_6 1_555 1_555
C157_6 N16_6 1_555 1_555
C158_6 C156_6 1_555 1_555
C159_6 C157_6 1_555 1_555
C160_6 O27_6 1_555 1_555
C161_6 O28_6 1_555 1_555
C162_6 C160_6 1_555 1_555
C163_6 C161_6 1_555 1_555
H147_6 C162_6 1_555 1_555
H148_6 C163_6 1_555 1_555
C164_6 C162_6 1_555 1_555
C165_6 C163_6 1_555 1_555
H149_6 C164_6 1_555 1_555
H150_6 C165_6 1_555 1_555
C166_6 C164_6 1_555 1_555
C167_6 C165_6 1_555 1_555
H151_6 C166_6 1_555 1_555
H152_6 C167_6 1_555 1_555
C168_6 C158_6 1_555 1_555
C169_6 C159_6 1_555 1_555
H153_6 C168_6 1_555 1_555
H154_6 C169_6 1_555 1_555
C170_6 N15_6 1_555 1_555
C171_6 N16_6 1_555 1_555
H155_6 C170_6 1_555 1_555
H156_6 C171_6 1_555 1_555
H157_6 C170_6 1_555 1_555
H158_6 C171_6 1_555 1_555
C172_6 C170_6 1_555 1_555
C173_6 C171_6 1_555 1_555
C174_6 C172_6 1_555 1_555
C175_6 C173_6 1_555 1_555
H159_6 C174_6 1_555 1_555
H160_6 C175_6 1_555 1_555
C176_6 C174_6 1_555 1_555
C177_6 C175_6 1_555 1_555
H161_6 C176_6 1_555 1_555
H162_6 C177_6 1_555 1_555
C178_6 C176_6 1_555 1_555
C179_6 C177_6 1_555 1_555
H163_6 C178_6 1_555 1_555
H164_6 C179_6 1_555 1_555
C180_6 C178_6 1_555 1_555
C181_6 C179_6 1_555 1_555
H165_6 C180_6 1_555 1_555
H166_6 C181_6 1_555 1_555
C182_6 C172_6 1_555 1_555
C183_6 C173_6 1_555 1_555
H167_6 C182_6 1_555 1_555
H168_6 C183_6 1_555 1_555
N7_6 O16_6 1_555 1_555
N8_6 O19_6 1_555 1_555
C7_6 C8_6 1_555 1_555
C18_6 C19_6 1_555 1_555
C21_6 C22_6 1_555 1_555
C25_6 C26_6 1_555 1_555
C32_6 C33_6 1_555 1_555
C35_6 C36_6 1_555 1_555
C39_6 C40_6 1_555 1_555
C46_6 C47_6 1_555 1_555
C49_6 C50_6 1_555 1_555
C53_6 C54_6 1_555 1_555
C60_6 C61_6 1_555 1_555
N18_6 O46_6 1_555 1_555
N20_6 O52_6 1_555 1_555
N21_6 O57_6 1_555 1_555
N22_6 O58_6 1_555 1_555
N23_6 O63_6 1_555 1_555
N24_6 O64_6 1_555 1_555
O41_6 C156_6 1_555 1_555
O42_6 C157_6 1_555 1_555
C74_6 C76_6 1_555 1_555
C75_6 C77_6 1_555 1_555
C83_6 C85_6 1_555 1_555
C96_6 C98_6 1_555 1_555
C97_6 C99_6 1_555 1_555
C102_6 C104_6 1_555 1_555
C103_6 C105_6 1_555 1_555
C110_6 C112_6 1_555 1_555
C111_6 C113_6 1_555 1_555
C124_6 C126_6 1_555 1_555
C125_6 C127_6 1_555 1_555
C130_6 C132_6 1_555 1_555
C131_6 C133_6 1_555 1_555
C138_6 C140_6 1_555 1_555
C139_6 C141_6 1_555 1_555
C152_6 C154_6 1_555 1_555
C153_6 C155_6 1_555 1_555
C158_6 C160_6 1_555 1_555
C159_6 C161_6 1_555 1_555
C166_6 C168_6 1_555 1_555
C167_6 C169_6 1_555 1_555
C180_6 C182_6 1_555 1_555
C181_6 C183_6 1_555 1_555
N17_6 O43_6 1_555 1_555
N19_6 O49_6 1_555 1_555
O43_6 Pr9_2 1_555 1_555
O45_6 Pr9_2 1_555 1_555
O47_6 N17_6 1_555 1_555
O49_6 Pr9_2 1_555 1_555
O51_6 Pr9_2 1_555 1_555
O53_6 N19_6 1_555 1_555
O55_6 Pr9_2 1_555 1_555
H83_6 C80_6 1_555 1_555
C82_6 C80_6 1_555 1_555
H85_6 C82_6 1_555 1_555
H87_6 C84_6 1_555 1_555
N17_6 O45_6 1_555 1_555
N19_6 O51_6 1_555 1_555
C82_6 C84_6 1_555 1_555

#END
