
###############################################################################
#
# This file contains modified crystal structure data generated from the
# MOF subset of the Cambridge Structural Database (CSD) v543 
# hosted by the Cambridge Crystallographic Data Centre (CCDC).
#
# This work is licensed under the Creative Commons
# Attribution-NonCommercial-ShareAlike 4.0 International License.
# To view a copy of this license, visit
# http://creativecommons.org/licenses/by-nc-sa/4.0/
# or send a letter to
# Creative Commons, PO Box 1866, Mountain View, CA 94042, USA.
#
# CIF created using the CSD Python API on 29 September 2022
# The structure has been converted into the P1 space group
# The structure has a 3D framework
# The original CSD entry LORMOW is in the triclinic crystal system
# The framework has been calculated to contain at least 10.0% void space
# The void calculation uses a probe of radius 1.32A, grid spacing 0.4
#
###############################################################################

data_LORMOW
_chemical_formula_moiety         '(C72 H45 Cd8 N4 O14)n'
_symmetry_cell_setting           triclinic
_symmetry_space_group_name_H-M   'P 1'
_symmetry_Int_Tables_number      1
_space_group_name_Hall           'P 1'
loop_
_symmetry_equiv_pos_site_id
_symmetry_equiv_pos_as_xyz
1 x,y,z
_cell_length_a                   7.6690(4)
_cell_length_b                   15.5888(10)
_cell_length_c                   16.7319(9)
_cell_angle_alpha                69.948(5)
_cell_angle_beta                 80.155(4)
_cell_angle_gamma                81.116(5)
_cell_volume                     1841.44
loop_
_atom_site_label
_atom_site_type_symbol
_atom_site_fract_x
_atom_site_fract_y
_atom_site_fract_z
Cd3 Cd 0.0000 0.0000 0.0000
O26 O 0.0074(5) 0.1090(3) 0.0615(2)
Cd3_2 Cd 0.0000 0.0000 1.0000
N4 N 0.4531(6) 0.0098(4) 0.2711(3)
C45 C 0.2035(9) 0.0146(5) 0.4131(4)
C46 C 0.3741(11) 0.0430(7) 0.4010(5)
H31 H 0.4067 0.0657 0.4404
C47 C 0.4925(9) 0.0373(6) 0.3313(4)
H32 H 0.6064 0.0538 0.3262
C48 C 0.0796(10) 0.0134(7) 0.4900(5)
H33 H 0.1187 0.0340 0.5293
Cd12 Cd 0.63221(5) 0.00739(3) 0.14247(2)
O23 O 0.1038(5) 0.1001(3) 0.8662(2)
Cd3_3 Cd 0.0000 1.0000 0.0000
O4 O 0.1345(5) 0.8242(3) 0.1942(2)
H2 H 0.0512 0.8169 0.3500
Cd6 Cd 0.38490(5) 0.82345(3) 0.08737(2)
O29 O 0.2888(4) 0.9594(2) 0.0015(2)
Cd3_4 Cd 0.0000 1.0000 1.0000
O8 O 0.1962(6) 0.9133(3) 0.8231(3)
C14 C 0.0572(7) 0.8799(4) 0.8685(4)
H12 H 0.0631 0.7130 0.6973
C23 C 0.0657(8) 0.7901(5) 0.7702(4)
H13 H 0.1804 0.8062 0.7484
C43 C 0.2899(8) 0.9864(5) 0.2815(4)
H29 H 0.2595 0.9664 0.2399
C44 C 0.1632(9) 0.9894(5) 0.3484(4)
H30 H 0.0496 0.9743 0.3501
Cd9 Cd 0.36779(5) 0.99261(3) 0.85753(2)
Cd3_5 Cd 1.0000 0.0000 0.0000
Cd3_6 Cd 1.0000 0.0000 1.0000
C31 C 0.7101(8) 0.0136(5) 0.7185(4)
H19 H 0.7405 0.0336 0.7601
C32 C 0.8368(9) 0.0106(5) 0.6516(4)
H20 H 0.9504 0.0257 0.6499
O20 O 0.4773(5) 0.1279(3) 0.8292(2)
O30 O 0.7112(4) 0.0406(2) 0.9985(2)
Cd3_7 Cd 1.0000 1.0000 0.0000
N1 N 0.2676(6) 0.7018(3) 0.0809(3)
O1 O 0.5227(5) 0.8721(3) 0.1708(2)
O2 O 0.5844(6) 0.7234(3) 0.2044(3)
O3 O 0.8962(5) 0.8999(3) 0.1338(2)
O6 O 0.6348(5) 0.7812(3) 0.0045(3)
H1 H 0.3229 0.9946 0.0209
C1 C 0.5965(7) 0.7962(4) 0.2161(4)
C2 C 0.9725(7) 0.8480(4) 0.1975(4)
C3 C 0.6860(7) 0.7944(4) 0.2899(3)
C4 C 0.8582(7) 0.8157(4) 0.2816(3)
C5 C 0.9323(9) 0.8076(5) 0.3553(4)
C6 C 0.8357(10) 0.7867(7) 0.4338(4)
H3 H 0.8866 0.7857 0.4807
C7 C 0.6614(10) 0.7668(7) 0.4449(4)
C8 C 0.5582(12) 0.7438(10) 0.5269(5)
H4 H 0.6044 0.7461 0.5740
C9 C 0.3924(13) 0.7186(9) 0.5366(6)
H5 H 0.3274 0.7017 0.5909
C10 C 0.3154(12) 0.7175(8) 0.4651(6)
H6 H 0.2029 0.6983 0.4730
C11 C 0.4081(9) 0.7447(6) 0.3856(5)
H7 H 0.3540 0.7488 0.3385
C12 C 0.5842(8) 0.7669(5) 0.3726(4)
C25 C 0.0962(8) 0.7094(4) 0.0692(4)
H14 H 0.0225 0.7615 0.0732
C26 C 0.0257(9) 0.6430(4) 0.0515(4)
C27 C 0.1322(8) 0.5638(4) 0.0448(4)
C28 C 0.3051(8) 0.5552(4) 0.0622(4)
H16 H 0.3795 0.5019 0.0629
C29 C 0.3676(8) 0.6244(4) 0.0784(4)
H17 H 0.4856 0.6172 0.0881
C30 C 0.0702(10) 0.4942(4) 0.0204(5)
H18 H 0.1342 0.4364 0.0345
Cd3_8 Cd 1.0000 1.0000 1.0000
N2 N 0.5469(6) 0.9902(4) 0.7289(3)
O5 O 0.6289(5) 0.9227(3) 0.9107(3)
O7 O 0.9926(5) 0.8910(3) 0.9385(2)
C13 C 0.6824(7) 0.8361(4) 0.9349(4)
C15 C 0.7967(7) 0.8012(4) 0.8665(3)
C16 C 0.7164(7) 0.7457(4) 0.8340(4)
C17 C 0.5396(8) 0.7230(4) 0.8604(4)
H8 H 0.4695 0.7456 0.9015
C18 C 0.4685(9) 0.6694(5) 0.8279(5)
H9 H 0.3524 0.6546 0.8476
C19 C 0.5706(12) 0.6363(5) 0.7644(5)
H10 H 0.5216 0.6002 0.7416
C20 C 0.7407(11) 0.6568(5) 0.7363(5)
H11 H 0.8072 0.6341 0.6946
C21 C 0.8180(9) 0.7112(4) 0.7689(4)
C22 C 0.9948(9) 0.7353(5) 0.7390(5)
C24 C 0.9681(7) 0.8232(4) 0.8352(4)
C33 C 0.7965(9) 0.9854(5) 0.5869(4)
C34 C 0.6259(11) 0.9570(7) 0.5990(5)
H21 H 0.5933 0.9343 0.5596
C35 C 0.5075(9) 0.9627(6) 0.6687(4)
H22 H 0.3936 0.9462 0.6738
C36 C 0.9204(10) 0.9866(7) 0.5100(5)
H23 H 0.8813 0.9660 0.4707
H25 H 0.0937 0.3492 0.9561
H15 H 0.9063 0.6508 0.0439
O14 O 0.3711(5) 0.0773(3) 0.0893(3)
C61 C 0.3176(7) 0.1639(4) 0.0651(4)
C63 C 0.2033(7) 0.1988(4) 0.1335(3)
C64 C 0.2836(7) 0.2543(4) 0.1660(4)
C65 C 0.4604(8) 0.2770(4) 0.1396(4)
H41 H 0.5305 0.2544 0.0985
C66 C 0.5315(9) 0.3306(5) 0.1721(5)
H42 H 0.6476 0.3454 0.1524
C67 C 0.4294(12) 0.3637(5) 0.2356(5)
H43 H 0.4784 0.3998 0.2584
C68 C 0.2593(11) 0.3432(5) 0.2637(5)
H44 H 0.1928 0.3659 0.3054
C69 C 0.1820(9) 0.2888(4) 0.2311(4)
C70 C 0.0052(9) 0.2647(5) 0.2610(5)
C72 C 0.0319(7) 0.1768(4) 0.1648(4)
O28 O 0.8038(6) 0.0867(3) 0.1769(3)
N3 N 0.7324(6) 0.2982(3) 0.9191(3)
C37 C 0.9038(8) 0.2906(4) 0.9308(4)
H24 H 0.9775 0.2385 0.9268
C38 C 0.9743(9) 0.3570(4) 0.9485(4)
C39 C 0.8678(8) 0.4362(4) 0.9552(4)
C40 C 0.6949(8) 0.4448(4) 0.9378(4)
H26 H 0.6205 0.4981 0.9371
C41 C 0.6324(8) 0.3756(4) 0.9216(4)
H27 H 0.5144 0.3828 0.9119
C42 C 0.9298(10) 0.5058(4) 0.9796(5)
H28 H 0.8658 0.5636 0.9655
Cd4 Cd 0.61510(5) 0.17655(3) 0.91263(2)
O11 O 0.4156(6) 0.2766(3) 0.7956(3)
O15 O 0.3652(5) 0.2188(3) 0.9955(3)
H34 H 0.6771 0.0054 0.9791
C49 C 0.4035(7) 0.2038(4) 0.7839(4)
C50 C 0.0275(7) 0.1520(4) 0.8025(4)
C51 C 0.3140(7) 0.2056(4) 0.7101(3)
C52 C 0.1418(7) 0.1843(4) 0.7184(3)
C53 C 0.0677(9) 0.1924(5) 0.6447(4)
C54 C 0.1643(10) 0.2133(7) 0.5662(4)
H36 H 0.1134 0.2143 0.5193
C55 C 0.3386(10) 0.2332(7) 0.5551(4)
C56 C 0.4418(12) 0.2562(10) 0.4731(5)
H37 H 0.3956 0.2539 0.4260
C57 C 0.6076(13) 0.2814(9) 0.4634(6)
H38 H 0.6726 0.2983 0.4091
C58 C 0.6846(12) 0.2825(8) 0.5349(6)
H39 H 0.7971 0.3017 0.5270
C59 C 0.5919(9) 0.2553(6) 0.6144(5)
H40 H 0.6460 0.2512 0.6615
C60 C 0.4158(8) 0.2331(5) 0.6274(4)
O25 O 0.8655(5) 0.1758(3) 0.8058(2)
C62 C 0.9428(7) 0.1201(4) 0.1315(4)
H45 H 0.9369 0.2870 0.3027
C71 C 0.9343(8) 0.2099(5) 0.2298(4)
H46 H 0.8196 0.1938 0.2516
H35 H 0.9488 0.1831 0.6500
loop_
_geom_bond_atom_site_label_1
_geom_bond_atom_site_label_2
_geom_bond_site_symmetry_1
_geom_bond_site_symmetry_2
O26 Cd3 1_555 1_555
C46 C45 1_555 1_555
H31 C46 1_555 1_555
C47 N4 1_555 1_555
H32 C47 1_555 1_555
H33 C48 1_555 1_555
Cd12 N4 1_555 1_555
O23 Cd3_2 1_555 1_555
C45 C48 1_555 1_555
C46 C47 1_555 1_555
Cd6 O4 1_555 1_555
O29 Cd3_3 1_555 1_555
Cd6 O29 1_555 1_555
O8 C14 1_555 1_555
H13 C23 1_555 1_555
C43 H29 1_555 1_555
C44 C43 1_555 1_555
H30 C44 1_555 1_555
Cd9 O8 1_555 1_555
C31 H19 1_555 1_555
C32 C31 1_555 1_555
H20 C32 1_555 1_555
O30 Cd3_6 1_555 1_555
Cd6 N1 1_555 1_555
Cd3_7 O3 1_555 1_555
N1 C25 1_555 1_555
O1 Cd6 1_555 1_555
O2 Cd6 1_555 1_555
O3 C2 1_555 1_555
O6 Cd6 1_555 1_555
H1 O29 1_555 1_555
C1 O1 1_555 1_555
C2 C4 1_555 1_555
C3 C1 1_555 1_555
C4 C3 1_555 1_555
C5 C4 1_555 1_555
C6 C5 1_555 1_555
H3 C6 1_555 1_555
C7 C6 1_555 1_555
C8 C7 1_555 1_555
H4 C8 1_555 1_555
C9 C8 1_555 1_555
H5 C9 1_555 1_555
C10 C9 1_555 1_555
H6 C10 1_555 1_555
C11 C10 1_555 1_555
H7 C11 1_555 1_555
C12 C3 1_555 1_555
C25 H14 1_555 1_555
C26 C25 1_555 1_555
C27 C26 1_555 1_555
C28 C27 1_555 1_555
H16 C28 1_555 1_555
C29 N1 1_555 1_555
H17 C29 1_555 1_555
C30 C27 1_555 1_555
H18 C30 1_555 1_555
O2 C1 1_555 1_555
C7 C12 1_555 1_555
C11 C12 1_555 1_555
C28 C29 1_555 1_555
Cd9 N2 1_555 1_555
O5 Cd9 1_555 1_555
O7 Cd3_8 1_555 1_555
C13 O5 1_555 1_555
C15 C13 1_555 1_555
C16 C15 1_555 1_555
C17 C16 1_555 1_555
H8 C17 1_555 1_555
C18 C17 1_555 1_555
H9 C18 1_555 1_555
C19 C18 1_555 1_555
H10 C19 1_555 1_555
C20 C19 1_555 1_555
H11 C20 1_555 1_555
C21 C16 1_555 1_555
C22 C21 1_555 1_555
C34 C33 1_555 1_555
H21 C34 1_555 1_555
C35 N2 1_555 1_555
H22 C35 1_555 1_555
C36 C33 1_555 1_555
H23 C36 1_555 1_555
C15 C24 1_555 1_555
C20 C21 1_555 1_555
C34 C35 1_555 1_555
Cd12 O14 1_555 1_555
O14 C61 1_555 1_555
C63 C61 1_555 1_555
C64 C63 1_555 1_555
C65 C64 1_555 1_555
H41 C65 1_555 1_555
C66 C65 1_555 1_555
H42 C66 1_555 1_555
C67 C66 1_555 1_555
H43 C67 1_555 1_555
C68 C67 1_555 1_555
H44 C68 1_555 1_555
C69 C64 1_555 1_555
C70 C69 1_555 1_555
C72 C63 1_555 1_555
O28 Cd12 1_555 1_555
C68 C69 1_555 1_555
N3 C37 1_555 1_555
C37 H24 1_555 1_555
C38 C37 1_555 1_555
C39 C38 1_555 1_555
C40 C39 1_555 1_555
H26 C40 1_555 1_555
C41 N3 1_555 1_555
H27 C41 1_555 1_555
H28 C42 1_555 1_555
Cd4 N3 1_555 1_555
O20 Cd4 1_555 1_555
O11 Cd4 1_555 1_555
O23 C50 1_555 1_555
O15 Cd4 1_555 1_555
O30 Cd4 1_555 1_555
H34 O30 1_555 1_555
C49 O20 1_555 1_555
C50 C52 1_555 1_555
C51 C49 1_555 1_555
C52 C51 1_555 1_555
C53 C52 1_555 1_555
C54 C53 1_555 1_555
H36 C54 1_555 1_555
C55 C54 1_555 1_555
C56 C55 1_555 1_555
H37 C56 1_555 1_555
C57 C56 1_555 1_555
H38 C57 1_555 1_555
C58 C57 1_555 1_555
H39 C58 1_555 1_555
C59 C58 1_555 1_555
H40 C59 1_555 1_555
C60 C51 1_555 1_555
O25 Cd4 1_555 1_555
C39 C42 1_555 1_555
C40 C41 1_555 1_555
O11 C49 1_555 1_555
C55 C60 1_555 1_555
C59 C60 1_555 1_555
O28 C62 1_555 1_555
H46 C71 1_555 1_555

#END
