
###############################################################################
#
# This file contains modified crystal structure data generated from the
# MOF subset of the Cambridge Structural Database (CSD) v543 
# hosted by the Cambridge Crystallographic Data Centre (CCDC).
#
# This work is licensed under the Creative Commons
# Attribution-NonCommercial-ShareAlike 4.0 International License.
# To view a copy of this license, visit
# http://creativecommons.org/licenses/by-nc-sa/4.0/
# or send a letter to
# Creative Commons, PO Box 1866, Mountain View, CA 94042, USA.
#
# CIF created using the CSD Python API on 29 September 2022
# The structure has been converted into the P1 space group
# The structure has a 3D framework
# The original CSD entry LORROB is in the monoclinic crystal system
# The framework has been calculated to contain at least 10.0% void space
# The void calculation uses a probe of radius 1.32A, grid spacing 0.4
# H atom positions have been added when not included in the experimental data
#
###############################################################################

data_LORROB
_chemical_formula_moiety         '(C304 H208 Eu12 N28 O64)n'
_symmetry_cell_setting           triclinic
_symmetry_space_group_name_H-M   'P 1'
_symmetry_Int_Tables_number      1
_space_group_name_Hall           'P 1'
loop_
_symmetry_equiv_pos_site_id
_symmetry_equiv_pos_as_xyz
1 x,y,z
_cell_length_a                   14.6534(5)
_cell_length_b                   17.7687(6)
_cell_length_c                   31.9462(10)
_cell_angle_alpha                90
_cell_angle_beta                 90.2920(10)
_cell_angle_gamma                90
_cell_volume                     8317.78
loop_
_atom_site_label
_atom_site_type_symbol
_atom_site_fract_x
_atom_site_fract_y
_atom_site_fract_z
O27 O 0.0682(2) 0.05341(17) 0.99400(10)
C18 C 0.0009(3) 0.8657(3) 0.11367(15)
C19 C 0.0768(3) 0.8252(3) 0.13611(16)
C20 C 0.1663(4) 0.8403(3) 0.12515(17)
H11 H 0.1792 0.8763 0.1040
C21 C 0.2370(4) 0.8026(3) 0.14516(17)
H12 H 0.2982 0.8137 0.1378
C22 C 0.2199(4) 0.7491(3) 0.17570(16)
C23 C 0.1291(4) 0.7358(3) 0.18690(18)
H13 H 0.1158 0.7006 0.2084
C24 C 0.0584(4) 0.7733(3) 0.16694(17)
C25 C 0.2962(4) 0.7079(3) 0.19663(17)
C26 C 0.3812(4) 0.7030(3) 0.17833(17)
H15 H 0.3913 0.7244 0.1515
C27 C 0.4520(4) 0.6668(3) 0.19939(17)
C28 C 0.4324(4) 0.6337(3) 0.23748(16)
H16 H 0.4785 0.6074 0.2525
C29 C 0.3445(4) 0.6391(3) 0.25365(16)
C30 C 0.3201(4) 0.6074(3) 0.29550(16)
C31 C 0.3801(4) 0.5607(3) 0.31734(16)
H17 H 0.4362 0.5462 0.3050
C32 C 0.3580(3) 0.5352(3) 0.35731(15)
H18 H 0.3992 0.5029 0.3717
C33 C 0.2777(3) 0.5560(3) 0.37620(15)
C34 C 0.2166(4) 0.6017(3) 0.35391(17)
H19 H 0.1598 0.6150 0.3660
C35 C 0.2384(4) 0.6275(3) 0.31469(17)
H20 H 0.1969 0.6596 0.3003
C36 C 0.2551(3) 0.5316(3) 0.41936(15)
C37 C 0.5457(4) 0.6665(3) 0.18207(17)
C38 C 0.6089(4) 0.6119(4) 0.1934(2)
H21 H 0.5921 0.5725 0.2119
C39 C 0.6966(5) 0.6151(4) 0.1775(3)
H22 H 0.7390 0.5775 0.1859
C40 C 0.6650(4) 0.7188(4) 0.1400(2)
H23 H 0.6832 0.7566 0.1207
C41 C 0.5759(4) 0.7203(4) 0.15499(19)
H24 H 0.5357 0.7593 0.1463
C67 C 0.0276(10) 0.6083(8) 0.0350(5)
C69 C 0.0292(5) 0.7446(5) 0.0206(3)
N3 N 0.7244(4) 0.6683(3) 0.15110(18)
N4 N 0.2768(3) 0.6758(2) 0.23374(13)
N7 N 0.0296(5) 0.6754(4) 0.0050(2)
O4 O 0.0180(2) 0.89907(19) 0.07915(10)
O6 O 0.1769(2) 0.54672(19) 0.43344(10)
O7 O 0.3158(2) 0.49743(18) 0.44055(10)
Eu2 Eu 0.094230(15) 0.924572(12) 0.012380(7)
O19 O 0.2112(2) 0.83568(18) 0.02813(12)
O21 O 0.1842(2) 0.99743(18) 0.05945(10)
Eu5 Eu 0.405770(15) 0.424572(12) 0.487620(7)
Eu11 Eu 0.141874(15) 0.502581(12) 0.501418(7)
H46 H 0.0963466 0.585959 0.0388069
H47 H 0.00184796 0.626458 0.0652796
H52 H 0.0243743 0.751172 0.0544084
O1 O 0.0340(3) 0.8020(2) 0.99889(12)
C68 C 0.0613(13) 0.6603(11) 0.9648(6)
O24 O 0.0484(2) 0.93438(19) 0.93810(11)
O26 O 0.2203(2) 0.96265(17) 0.96780(10)
H49 H 0.0178613 0.618071 0.950092
H50 H 0.0597778 0.711729 0.946268
H51 H 0.131026 0.639304 0.966634
C66 C 0.5312(4) 0.1042(3) 0.04912(19)
H39 H 0.4937 0.1326 0.0675
O12 O 0.4937(2) 0.06646(18) 0.02047(11)
O13 O 0.6143(3) 0.1058(2) 0.05431(15)
O14 O 0.7797(2) 0.03735(17) 0.03220(10)
H40 H 0.779(14) 0.0610(16) 0.0564(9)
O22 O 0.8750(3) 0.0377(2) 0.11900(11)
O23 O 0.9516(2) 0.06562(19) 0.06190(11)
O18 O 0.6558(2) 0.10669(18) 0.96238(12)
Eu7 Eu 0.905770(15) 0.075428(12) 0.987620(7)
Eu10 Eu 0.358126(15) 0.002581(12) 0.998582(7)
H14 H 0.9970 0.7633 0.1746
C42 C 0.6310(4) 0.9338(3) 0.09884(18)
C43 C 0.5712(4) 0.9263(3) 0.13679(17)
C44 C 0.4776(4) 0.9365(3) 0.13390(18)
H25 H 0.4506 0.9506 0.1080
C45 C 0.4235(4) 0.9260(3) 0.16888(18)
H26 H 0.3595 0.9338 0.1669
C46 C 0.4621(4) 0.9041(3) 0.20698(17)
C47 C 0.5561(4) 0.8956(4) 0.20948(19)
H27 H 0.5838 0.8815 0.2352
C48 C 0.6092(4) 0.9076(4) 0.17473(18)
H28 H 0.6737 0.9029 0.1770
C49 C 0.4050(4) 0.8838(3) 0.24380(17)
C50 C 0.3153(4) 0.9052(3) 0.24825(17)
H29 H 0.2870 0.9369 0.2280
C51 C 0.2664(4) 0.8799(3) 0.28271(17)
C52 C 0.3098(4) 0.8339(3) 0.31120(18)
H30 H 0.2777 0.8154 0.3348
C53 C 0.4011(4) 0.8146(3) 0.30515(17)
C54 C 0.4514(4) 0.7625(3) 0.33351(17)
C55 C 0.4206(4) 0.7444(3) 0.37316(18)
H31 H 0.3703 0.7709 0.3847
C56 C 0.4626(4) 0.6880(3) 0.39607(16)
H32 H 0.4411 0.6762 0.4233
C57 C 0.5357(3) 0.6486(3) 0.37969(16)
C58 C 0.5697(4) 0.6689(3) 0.34049(17)
H33 H 0.6210 0.6433 0.3293
C59 C 0.5295(4) 0.7256(3) 0.31812(18)
H34 H 0.5543 0.7403 0.2920
C60 C 0.5730(3) 0.5810(3) 0.40067(16)
C61 C 0.1687(4) 0.8985(4) 0.2870(2)
C62 C 0.1120(4) 0.9050(4) 0.2525(2)
H35 H 0.1360 0.8982 0.2252
C63 C 0.0210(5) 0.9212(4) 0.2575(3)
C64 C 0.0363(7) 0.9285(6) 0.3264(3)
H37 H 0.0101 0.9371 0.3531
C65 C 0.1299(6) 0.9111(5) 0.3257(3)
H38 H 0.1650 0.9081 0.3507
N6 N 0.4476(3) 0.8395(3) 0.27186(14)
O5 O 0.9218(2) 0.8665(2) 0.12837(12)
O8 O 0.5918(3) 0.9444(2) 0.06423(12)
O9 O 0.7154(2) 0.9272(2) 0.10423(12)
O10 O 0.6250(3) 0.5377(2) 0.38100(11)
O11 O 0.5484(2) 0.56562(19) 0.43810(11)
O15 O 0.9318(2) 0.94659(17) 0.00600(10)
C70 C 0.7623(3) 0.8210(3) 0.02239(16)
C71 C 0.7132(4) 0.7584(3) 0.00142(18)
H44 H 0.6922 0.5759 0.0021
C76 C 0.7296(4) 0.6845(3) 0.0130(2)
H45 H 0.7755 0.6733 0.0332
O16 O 0.7427(2) 0.88857(17) 0.01343(11)
O17 O 0.8238(3) 0.8073(2) 0.04957(12)
Eu1 Eu 0.853165(15) 0.938129(13) 0.069392(7)
Eu3 Eu 0.641874(15) 0.997419(12) 0.001418(7)
Eu4 Eu 0.646835(15) 0.438129(13) 0.430608(7)
Eu8 Eu 0.594230(15) 0.575428(12) 0.512380(7)
H48 H 0.983182 0.564726 0.0222652
C1 C 0.5480(4) 0.5808(3) 0.95251(19)
C2 C 0.4589(4) 0.5942(3) 0.93935(18)
H1 H 0.4354 0.6440 0.9398
C3 C 0.4044(4) 0.5357(3) 0.92568(18)
C4 C 0.4417(4) 0.4634(3) 0.92654(18)
H2 H 0.4073 0.4216 0.9168
C5 C 0.5306(4) 0.4533(3) 0.94200(18)
C6 C 0.5733(3) 0.3782(3) 0.94584(17)
C7 C 0.5235(4) 0.3117(3) 0.94462(19)
H3 H 0.4595 0.3136 0.9399
C8 C 0.5660(3) 0.2422(3) 0.95016(18)
H4 H 0.5309 0.1972 0.9492
C9 C 0.6589(3) 0.2386(3) 0.95708(17)
C10 C 0.7091(4) 0.3041(3) 0.9587(3)
H5 H 0.7730 0.3020 0.9638
C11 C 0.6664(4) 0.3732(3) 0.9530(3)
H6 H 0.7019 0.4180 0.9541
C12 C 0.7046(3) 0.1643(3) 0.96426(15)
C13 C 0.3098(4) 0.5488(3) 0.9101(2)
C14 C 0.2436(4) 0.4925(3) 0.9103(2)
H7 H 0.2576 0.4440 0.9211
C15 C 0.1579(5) 0.5075(4) 0.8946(3)
H8 H 0.1143 0.4680 0.8951
C16 C 0.1959(5) 0.6282(5) 0.8792(3)
H9 H 0.1799 0.6762 0.8684
C17 C 0.2830(5) 0.6182(4) 0.8945(3)
H10 H 0.3250 0.6589 0.8943
N1 N 0.1317(4) 0.5733(4) 0.8789(3)
N2 N 0.5826(3) 0.5116(2) 0.95425(15)
O3 O 0.7888(2) 0.16432(18) 0.97187(12)
H41 H 0.915(14) 0.918(10) 0.986(4)
C72 C 0.6486(4) 0.7732(3) 0.9711(2)
H42 H 0.6398 0.8234 0.9617
C73 C 0.5961(4) 0.7157(3) 0.9541(2)
H43 H 0.5517 0.7269 0.9333
C74 C 0.6078(4) 0.6422(3) 0.96725(18)
C75 C 0.6786(4) 0.6267(3) 0.9951(2)
O20 O 0.6769(2) 0.95328(19) 0.93344(10)
O25 O 0.5063(2) 0.93354(18) 0.97953(11)
C2_2 C 0.0411(4) 0.0942(3) 0.56065(18)
H1_2 H 0.0646 0.1440 0.5602
C3_2 C 0.0956(4) 0.0357(3) 0.57432(18)
C13_2 C 0.1902(4) 0.0488(3) 0.5899(2)
C15_2 C 0.3421(5) 0.0075(4) 0.6054(3)
C16_2 C 0.3041(5) 0.1282(5) 0.6208(3)
H9_2 H 0.3201 0.1762 0.6316
C17_2 C 0.2170(5) 0.1182(4) 0.6055(3)
H10_2 H 0.1750 0.1589 0.6057
C44_2 C 0.0224(4) 0.4365(3) 0.36610(18)
H25_2 H 0.0494 0.4506 0.3920
C45_2 C 0.0765(4) 0.4260(3) 0.33112(18)
H26_2 H 0.1405 0.4338 0.3331
C46_2 C 0.0379(4) 0.4041(3) 0.29302(17)
C49_2 C 0.0950(4) 0.3838(3) 0.25620(17)
C50_2 C 0.1847(4) 0.4052(3) 0.25175(17)
H29_2 H 0.2130 0.4369 0.2720
C51_2 C 0.2336(4) 0.3799(3) 0.21729(17)
C52_2 C 0.1902(4) 0.3339(3) 0.18880(18)
H30_2 H 0.2223 0.3154 0.1652
C53_2 C 0.0989(4) 0.3146(3) 0.19485(17)
C54_2 C 0.0486(4) 0.2625(3) 0.16649(17)
C55_2 C 0.0794(4) 0.2444(3) 0.12684(18)
H31_2 H 0.1297 0.2709 0.1153
C56_2 C 0.0374(4) 0.1880(3) 0.10393(16)
H32_2 H 0.0589 0.1762 0.0767
C61_2 C 0.3313(4) 0.3985(4) 0.2130(2)
C62_2 C 0.3880(4) 0.4050(4) 0.2475(2)
H35_2 H 0.3640 0.3982 0.2748
C63_2 C 0.4790(5) 0.4212(4) 0.2425(3)
H36 H 0.5163 0.4234 0.2669
C64_2 C 0.4637(7) 0.4285(6) 0.1736(3)
H37_2 H 0.4899 0.4371 0.1469
C65_2 C 0.3701(6) 0.4111(5) 0.1743(3)
H38_2 H 0.3350 0.4081 0.1493
H39_2 H 0.0063 0.6326 0.4325
N1_2 N 0.3683(4) 0.0733(4) 0.6211(3)
N5 N 0.5181(5) 0.4339(5) 0.2058(3)
N6_2 N 0.0524(3) 0.3395(3) 0.22814(14)
O12_2 O 0.0063(2) 0.56646(18) 0.47953(11)
C1_2 C 0.9520(4) 0.0808(3) 0.54749(19)
C18_2 C 0.4991(3) 0.3657(3) 0.38633(15)
C19_2 C 0.4232(3) 0.3252(3) 0.36389(16)
C20_2 C 0.3337(4) 0.3403(3) 0.37485(17)
H11_2 H 0.3208 0.3763 0.3960
C21_2 C 0.2630(4) 0.3026(3) 0.35484(17)
H12_2 H 0.2018 0.3137 0.3622
C22_2 C 0.2801(4) 0.2491(3) 0.32430(16)
C23_2 C 0.3709(4) 0.2358(3) 0.31310(18)
H13_2 H 0.3842 0.2006 0.2916
C24_2 C 0.4416(4) 0.2733(3) 0.33306(17)
H14_2 H 0.5030 0.2633 0.3254
C25_2 C 0.2038(4) 0.2079(3) 0.30337(17)
C26_2 C 0.1188(4) 0.2030(3) 0.32167(17)
H15_2 H 0.1087 0.2244 0.3485
C27_2 C 0.0480(4) 0.1668(3) 0.30061(17)
C28_2 C 0.0676(4) 0.1337(3) 0.26252(16)
H16_2 H 0.0215 0.1074 0.2475
C29_2 C 0.1555(4) 0.1391(3) 0.24635(16)
C30_2 C 0.1799(4) 0.1074(3) 0.20450(16)
C31_2 C 0.1199(4) 0.0607(3) 0.18266(16)
H17_2 H 0.0638 0.0462 0.1950
C32_2 C 0.1420(3) 0.0352(3) 0.14269(15)
H18_2 H 0.1008 0.0029 0.1283
C33_2 C 0.2223(3) 0.0560(3) 0.12380(15)
C34_2 C 0.2834(4) 0.1017(3) 0.14609(17)
H19_2 H 0.3402 0.1150 0.1340
C35_2 C 0.2616(4) 0.1275(3) 0.18531(17)
H20_2 H 0.3031 0.1596 0.1997
C36_2 C 0.2449(3) 0.0316(3) 0.08064(15)
C42_2 C 0.8690(4) 0.4338(3) 0.40116(18)
C43_2 C 0.9288(4) 0.4263(3) 0.36321(17)
C47_2 C 0.9439(4) 0.3956(4) 0.29052(19)
H27_2 H 0.9162 0.3815 0.2648
C48_2 C 0.8908(4) 0.4076(4) 0.32527(18)
H28_2 H 0.8263 0.4029 0.3230
C57_2 C 0.9643(3) 0.1486(3) 0.12031(16)
C58_2 C 0.9303(4) 0.1689(3) 0.15951(17)
H33_2 H 0.8790 0.1433 0.1707
C59_2 C 0.9705(4) 0.2256(3) 0.18188(18)
H34_2 H 0.9457 0.2403 0.2080
C60_2 C 0.9270(3) 0.0810(3) 0.09933(16)
C66_2 C 0.9688(4) 0.6042(3) 0.45088(19)
O1_2 O 0.4660(3) 0.3020(2) 0.50111(12)
C67_2 C 0.4724(10) 0.1083(8) 0.4650(5)
C68_2 C 0.4387(13) 0.1603(11) 0.5352(6)
C69_2 C 0.4708(5) 0.2446(5) 0.4794(3)
N2_2 N 0.9174(3) 0.0116(2) 0.54575(15)
N4_2 N 0.2232(3) 0.1758(2) 0.26626(13)
N7_2 N 0.4704(5) 0.1754(4) 0.4950(2)
O4_2 O 0.4820(2) 0.39907(19) 0.42085(10)
O5_2 O 0.5782(2) 0.3665(2) 0.37163(12)
O6_2 O 0.3231(2) 0.04672(19) 0.06656(10)
O8_2 O 0.9082(3) 0.4444(2) 0.43577(12)
O9_2 O 0.7846(2) 0.4272(2) 0.39577(12)
O13_2 O 0.8857(3) 0.6058(2) 0.44569(15)
O14_2 O 0.7203(2) 0.53735(17) 0.46780(10)
O15_2 O 0.5682(2) 0.44659(17) 0.49400(10)
H40_2 H 0.721(14) 0.5610(16) 0.4436(9)
H41_2 H 0.585(14) 0.418(10) 0.514(4)
C70_2 C 0.7377(3) 0.3210(3) 0.47761(16)
C71_2 C 0.7868(4) 0.2584(3) 0.49858(18)
C72_2 C 0.8514(4) 0.2732(3) 0.5289(2)
H42_2 H 0.8602 0.3234 0.5383
C73_2 C 0.9039(4) 0.2157(3) 0.5459(2)
H43_2 H 0.9483 0.2269 0.5667
C74_2 C 0.8922(4) 0.1422(3) 0.53275(18)
C75_2 C 0.8214(4) 0.1267(3) 0.5049(2)
H44_2 H 0.8078 0.0759 0.4979
C76_2 C 0.7704(4) 0.1845(3) 0.4870(2)
H45_2 H 0.7245 0.1733 0.4668
O16_2 O 0.7573(2) 0.38857(17) 0.48657(11)
O17_2 O 0.6762(3) 0.3073(2) 0.45043(12)
Eu3_2 Eu 0.858126(15) 0.497419(12) 0.498582(7)
O18_2 O 0.8442(2) 0.60669(18) 0.53762(12)
O19_2 O 0.2888(2) 0.33568(18) 0.47187(12)
O20_2 O 0.8231(2) 0.45328(19) 0.56656(10)
O24_2 O 0.4516(2) 0.43438(19) 0.56190(11)
O25_2 O 0.9937(2) 0.43354(18) 0.52047(11)
O26_2 O 0.2797(2) 0.46265(17) 0.53220(10)
O27_2 O 0.4318(2) 0.55341(17) 0.50600(10)
H46_2 H 0.403653 0.0859593 0.461193
H47_2 H 0.498152 0.126458 0.43472
H48_2 H 0.516818 0.0647259 0.477735
H49_2 H 0.482139 0.118071 0.549908
H50_2 H 0.440222 0.211729 0.553732
H51_2 H 0.368974 0.139304 0.533366
H52_2 H 0.475626 0.251172 0.445592
C5_2 C 0.9694(4) 0.9533(3) 0.55800(18)
C6_2 C 0.9267(3) 0.8782(3) 0.55416(17)
C7_2 C 0.9765(4) 0.8117(3) 0.55538(19)
C8_2 C 0.9340(3) 0.7422(3) 0.54984(18)
H4_2 H 0.9691 0.6972 0.5508
C9_2 C 0.8411(3) 0.7386(3) 0.54292(17)
C10_2 C 0.7909(4) 0.8041(3) 0.5413(3)
H5_2 H 0.7270 0.8020 0.5362
C11_2 C 0.8336(4) 0.8732(3) 0.5470(3)
H6_2 H 0.7981 0.9180 0.5459
C12_2 C 0.7954(3) 0.6643(3) 0.53574(15)
O3_2 O 0.7112(2) 0.66432(18) 0.52813(12)
C1_3 C 0.4520(4) 0.4192(3) 0.04749(19)
C2_3 C 0.5411(4) 0.4058(3) 0.06065(18)
H1_3 H 0.5646 0.3560 0.0602
C3_3 C 0.5956(4) 0.4643(3) 0.07432(18)
C4_2 C 0.5583(4) 0.5366(3) 0.07346(18)
H2_2 H 0.5927 0.5784 0.0832
C5_3 C 0.4694(4) 0.5467(3) 0.05800(18)
C6_3 C 0.4267(3) 0.6218(3) 0.05416(17)
C7_3 C 0.4765(4) 0.6883(3) 0.05538(19)
H3_2 H 0.5405 0.6864 0.0601
C8_3 C 0.4340(3) 0.7578(3) 0.04984(18)
H4_3 H 0.4691 0.8028 0.0508
C9_3 C 0.3411(3) 0.7614(3) 0.04292(17)
C10_3 C 0.2909(4) 0.6959(3) 0.0413(3)
H5_3 H 0.2270 0.6980 0.0362
C11_3 C 0.3336(4) 0.6268(3) 0.0470(3)
H6_3 H 0.2981 0.5820 0.0459
C12_3 C 0.2954(3) 0.8357(3) 0.03574(15)
C13_3 C 0.6902(4) 0.4512(3) 0.0899(2)
C14_2 C 0.7564(4) 0.5075(3) 0.0897(2)
H7_2 H 0.7424 0.5560 0.0789
C15_3 C 0.8421(5) 0.4925(4) 0.1054(3)
H8_2 H 0.8857 0.5320 0.1049
C16_3 C 0.8041(5) 0.3718(5) 0.1208(3)
H9_3 H 0.8201 0.3238 0.1316
C17_3 C 0.7170(5) 0.3818(4) 0.1055(3)
H10_3 H 0.6750 0.3411 0.1057
N1_3 N 0.8683(4) 0.4267(4) 0.1211(3)
N2_3 N 0.4174(3) 0.4884(2) 0.04575(15)
O2 O 0.3442(2) 0.89331(18) 0.03762(12)
H41_3 H 0.085(14) 0.082(10) 0.014(4)
C72_3 C 0.3514(4) 0.2268(3) 0.0289(2)
H42_3 H 0.3602 0.1766 0.0383
C73_3 C 0.4039(4) 0.2843(3) 0.0459(2)
H43_3 H 0.4483 0.2731 0.0667
C74_3 C 0.3922(4) 0.3578(3) 0.03275(18)
C75_3 C 0.3214(4) 0.3733(3) 0.0049(2)
H14_3 H 0.0030 0.2367 0.8254
C42_3 C 0.3690(4) 0.0662(3) 0.90116(18)
C43_3 C 0.4288(4) 0.0737(3) 0.86321(17)
C44_3 C 0.5224(4) 0.0635(3) 0.86610(18)
H25_3 H 0.5494 0.0494 0.8920
C45_3 C 0.5765(4) 0.0740(3) 0.83112(18)
H26_3 H 0.6405 0.0662 0.8331
C46_3 C 0.5379(4) 0.0959(3) 0.79302(17)
C47_3 C 0.4439(4) 0.1044(4) 0.79052(19)
H27_3 H 0.4162 0.1185 0.7648
C48_3 C 0.3908(4) 0.0924(4) 0.82527(18)
H28_3 H 0.3263 0.0971 0.8230
C49_3 C 0.5950(4) 0.1162(3) 0.75620(17)
C50_3 C 0.6847(4) 0.0948(3) 0.75175(17)
H29_3 H 0.7130 0.0631 0.7720
C51_3 C 0.7336(4) 0.1201(3) 0.71729(17)
C52_3 C 0.6902(4) 0.1661(3) 0.68880(18)
H30_3 H 0.7223 0.1846 0.6652
C53_3 C 0.5989(4) 0.1854(3) 0.69485(17)
C54_3 C 0.5486(4) 0.2375(3) 0.66649(17)
C55_3 C 0.5794(4) 0.2556(3) 0.62684(18)
H31_3 H 0.6297 0.2291 0.6153
C56_3 C 0.5374(4) 0.3120(3) 0.60393(16)
H32_3 H 0.5589 0.3238 0.5767
C57_3 C 0.4643(3) 0.3514(3) 0.62031(16)
C58_3 C 0.4303(4) 0.3311(3) 0.65951(17)
H33_3 H 0.3790 0.3567 0.6707
C59_3 C 0.4705(4) 0.2744(3) 0.68188(18)
H34_3 H 0.4457 0.2597 0.7080
C60_3 C 0.4270(3) 0.4190(3) 0.59933(16)
C61_3 C 0.8313(4) 0.1015(4) 0.7130(2)
C62_3 C 0.8880(4) 0.0950(4) 0.7475(2)
H35_3 H 0.8640 0.1018 0.7748
C63_3 C 0.9790(5) 0.0788(4) 0.7425(3)
C64_3 C 0.9637(7) 0.0715(6) 0.6736(3)
H37_3 H 0.9899 0.0629 0.6469
C65_3 C 0.8701(6) 0.0889(5) 0.6743(3)
H38_3 H 0.8350 0.0919 0.6493
N6_3 N 0.5524(3) 0.1605(3) 0.72814(14)
O5_3 O 0.0782(2) 0.1335(2) 0.87163(12)
O8_3 O 0.4082(3) 0.0556(2) 0.93577(12)
O9_3 O 0.2846(2) 0.0728(2) 0.89577(12)
O10_2 O 0.3750(3) 0.4623(2) 0.61900(11)
C70_3 C 0.2377(3) 0.1790(3) 0.97761(16)
C71_3 C 0.2868(4) 0.2416(3) 0.99858(18)
H44_3 H 0.3078 0.4241 0.9979
C76_3 C 0.2704(4) 0.3155(3) 0.9870(2)
H45_3 H 0.2245 0.3267 0.9668
O16_3 O 0.2573(2) 0.11143(17) 0.98657(11)
O17_3 O 0.1762(3) 0.1927(2) 0.95043(12)
Eu1_2 Eu 0.146835(15) 0.061871(13) 0.930608(7)
Eu4_2 Eu 0.353165(15) 0.561871(13) 0.569392(7)
H48_3 H 0.016818 0.435274 0.977735
C66_3 C 0.4688(4) 0.8958(3) 0.95088(19)
H39_3 H 0.5063 0.8674 0.9325
O13_3 O 0.3857(3) 0.8942(2) 0.94569(15)
H40_3 H 0.221(14) 0.9390(16) 0.9436(9)
O22_2 O 0.1250(3) 0.9623(2) 0.88100(11)
O1_3 O 0.9660(3) 0.1980(2) 0.00111(12)
C68_3 C 0.9387(13) 0.3397(11) 0.0352(6)
H49_3 H 0.982139 0.381929 0.0499077
H50_3 H 0.940222 0.288271 0.0537318
H51_3 H 0.868974 0.360696 0.033366
C18_3 C 0.9991(3) 0.1343(3) 0.88633(15)
C19_3 C 0.9232(3) 0.1748(3) 0.86389(16)
C20_3 C 0.8337(4) 0.1597(3) 0.87485(17)
H11_3 H 0.8208 0.1237 0.8960
C21_3 C 0.7630(4) 0.1974(3) 0.85484(17)
H12_3 H 0.7018 0.1863 0.8622
C22_3 C 0.7801(4) 0.2509(3) 0.82430(16)
C23_3 C 0.8709(4) 0.2642(3) 0.81310(18)
H13_3 H 0.8842 0.2994 0.7916
C24_3 C 0.9416(4) 0.2267(3) 0.83306(17)
C25_3 C 0.7038(4) 0.2921(3) 0.80337(17)
C26_3 C 0.6188(4) 0.2970(3) 0.82167(17)
H15_3 H 0.6087 0.2756 0.8485
C27_3 C 0.5480(4) 0.3332(3) 0.80061(17)
C28_3 C 0.5676(4) 0.3663(3) 0.76252(16)
H16_3 H 0.5215 0.3926 0.7475
C29_3 C 0.6555(4) 0.3609(3) 0.74635(16)
C30_3 C 0.6799(4) 0.3926(3) 0.70450(16)
C31_3 C 0.6199(4) 0.4393(3) 0.68266(16)
H17_3 H 0.5638 0.4538 0.6950
C32_3 C 0.6420(3) 0.4648(3) 0.64269(15)
H18_3 H 0.6008 0.4971 0.6283
C33_3 C 0.7223(3) 0.4440(3) 0.62380(15)
C34_3 C 0.7834(4) 0.3983(3) 0.64609(17)
H19_3 H 0.8402 0.3850 0.6340
C35_3 C 0.7616(4) 0.3725(3) 0.68531(17)
H20_3 H 0.8031 0.3404 0.6997
C36_3 C 0.7449(3) 0.4684(3) 0.58064(15)
C37_2 C 0.4543(4) 0.3335(3) 0.81793(17)
C38_2 C 0.3911(4) 0.3881(4) 0.8066(2)
H21_2 H 0.4079 0.4275 0.7881
C39_2 C 0.3034(5) 0.3849(4) 0.8225(3)
H22_2 H 0.2610 0.4225 0.8141
C40_2 C 0.3350(4) 0.2812(4) 0.8600(2)
H23_2 H 0.3168 0.2434 0.8793
C41_2 C 0.4241(4) 0.2797(4) 0.84501(19)
H24_2 H 0.4643 0.2407 0.8537
C67_3 C 0.9724(10) 0.3917(8) 0.9650(5)
C69_3 C 0.9708(5) 0.2554(5) 0.9794(3)
N3_2 N 0.2756(4) 0.3317(3) 0.84890(18)
N4_3 N 0.7232(3) 0.3242(2) 0.76626(13)
N7_3 N 0.9704(5) 0.3246(4) 0.9950(2)
O4_3 O 0.9820(2) 0.10093(19) 0.92085(10)
O7_2 O 0.6842(2) 0.50257(18) 0.55945(10)
O21_2 O 0.8158(2) 0.00257(18) 0.94055(10)
H46_3 H 0.903653 0.414041 0.961193
H47_3 H 0.998152 0.373542 0.93472
H52_3 H 0.975626 0.248828 0.945592
C5_4 C 0.0306(4) 0.0467(3) 0.44200(18)
C6_4 C 0.0733(3) 0.1218(3) 0.44584(17)
C7_4 C 0.0235(4) 0.1883(3) 0.44462(19)
C8_4 C 0.0660(3) 0.2578(3) 0.45016(18)
H4_4 H 0.0309 0.3028 0.4492
C9_4 C 0.1589(3) 0.2614(3) 0.45708(17)
C10_4 C 0.2091(4) 0.1959(3) 0.4587(3)
H5_4 H 0.2730 0.1980 0.4638
C11_4 C 0.1664(4) 0.1268(3) 0.4530(3)
H6_4 H 0.2019 0.0820 0.4541
C12_4 C 0.2046(3) 0.3357(3) 0.46426(15)
O2_2 O 0.1558(2) 0.39331(18) 0.46238(12)
C1_4 C 0.0480(4) 0.9192(3) 0.45251(19)
C18_4 C 0.5009(3) 0.6343(3) 0.61367(15)
C19_4 C 0.5768(3) 0.6748(3) 0.63611(16)
C20_4 C 0.6663(4) 0.6597(3) 0.62515(17)
H11_4 H 0.6792 0.6237 0.6040
C21_4 C 0.7370(4) 0.6974(3) 0.64516(17)
H12_4 H 0.7982 0.6863 0.6378
C22_4 C 0.7199(4) 0.7509(3) 0.67570(16)
C23_4 C 0.6291(4) 0.7642(3) 0.68690(18)
H13_4 H 0.6158 0.7994 0.7084
C24_4 C 0.5584(4) 0.7267(3) 0.66694(17)
H14_4 H 0.4970 0.7367 0.6746
C25_4 C 0.7962(4) 0.7921(3) 0.69663(17)
C26_4 C 0.8812(4) 0.7970(3) 0.67833(17)
H15_4 H 0.8913 0.7756 0.6515
C27_4 C 0.9520(4) 0.8332(3) 0.69939(17)
C28_4 C 0.9324(4) 0.8663(3) 0.73748(16)
H16_4 H 0.9785 0.8926 0.7525
C29_4 C 0.8445(4) 0.8609(3) 0.75365(16)
C30_4 C 0.8201(4) 0.8926(3) 0.79550(16)
C31_4 C 0.8801(4) 0.9393(3) 0.81734(16)
H17_4 H 0.9362 0.9538 0.8050
C32_4 C 0.8580(3) 0.9648(3) 0.85731(15)
H18_4 H 0.8992 0.9971 0.8717
C33_4 C 0.7777(3) 0.9440(3) 0.87620(15)
C34_4 C 0.7166(4) 0.8983(3) 0.85391(17)
H19_4 H 0.6598 0.8850 0.8660
C35_4 C 0.7384(4) 0.8725(3) 0.81469(17)
H20_4 H 0.6969 0.8404 0.8003
C36_4 C 0.7551(3) 0.9684(3) 0.91936(15)
C42_4 C 0.1310(4) 0.5662(3) 0.59884(18)
C43_4 C 0.0712(4) 0.5737(3) 0.63679(17)
C47_4 C 0.0561(4) 0.6044(4) 0.70948(19)
H27_4 H 0.0838 0.6185 0.7352
C48_4 C 0.1092(4) 0.5924(4) 0.67473(18)
H28_4 H 0.1737 0.5971 0.6770
C57_4 C 0.0357(3) 0.8514(3) 0.87969(16)
C58_4 C 0.0697(4) 0.8311(3) 0.84049(17)
H33_4 H 0.1210 0.8567 0.8293
C59_4 C 0.0295(4) 0.7744(3) 0.81812(18)
H34_4 H 0.0543 0.7597 0.7920
C60_4 C 0.0730(3) 0.9190(3) 0.90067(16)
C66_4 C 0.0312(4) 0.3958(3) 0.54912(19)
O1_4 O 0.5340(3) 0.6980(2) 0.49889(12)
C67_4 C 0.5276(10) 0.8917(8) 0.5350(5)
C68_4 C 0.5613(13) 0.8397(11) 0.4648(6)
C69_4 C 0.5292(5) 0.7554(5) 0.5206(3)
N2_4 N 0.0826(3) 0.9884(2) 0.45425(15)
N4_4 N 0.7768(3) 0.8242(2) 0.73374(13)
N7_4 N 0.5296(5) 0.8246(4) 0.5050(2)
O4_4 O 0.5180(2) 0.60093(19) 0.57915(10)
O5_4 O 0.4218(2) 0.6335(2) 0.62837(12)
O8_4 O 0.0918(3) 0.5556(2) 0.56423(12)
O9_4 O 0.2154(2) 0.5728(2) 0.60423(12)
O13_4 O 0.1143(3) 0.3942(2) 0.55431(15)
H40_4 H 0.279(14) 0.4390(16) 0.5564(9)
H41_4 H 0.415(14) 0.582(10) 0.486(4)
C70_4 C 0.2623(3) 0.6790(3) 0.52239(16)
C71_4 C 0.2132(4) 0.7416(3) 0.50142(18)
C72_4 C 0.1486(4) 0.7268(3) 0.4711(2)
H42_4 H 0.1398 0.6766 0.4617
C73_4 C 0.0961(4) 0.7843(3) 0.4541(2)
H43_4 H 0.0517 0.7731 0.4333
C74_4 C 0.1078(4) 0.8578(3) 0.46725(18)
C75_4 C 0.1786(4) 0.8733(3) 0.4951(2)
H44_4 H 0.1922 0.9241 0.5021
C76_4 C 0.2296(4) 0.8155(3) 0.5130(2)
H45_4 H 0.2755 0.8267 0.5332
O16_4 O 0.2427(2) 0.61143(17) 0.51343(11)
O17_4 O 0.3238(3) 0.6927(2) 0.54957(12)
H46_4 H 0.596347 0.914041 0.538807
H47_4 H 0.501848 0.873542 0.56528
H48_4 H 0.483182 0.935274 0.522265
H49_4 H 0.517861 0.881929 0.450092
H50_4 H 0.559778 0.788271 0.446268
H51_4 H 0.631026 0.860696 0.466634
H52_4 H 0.524374 0.748828 0.554408
C2_4 C 0.9589(4) 0.9058(3) 0.43935(18)
H1_4 H 0.9354 0.8560 0.4398
C3_4 C 0.9044(4) 0.9643(3) 0.42568(18)
C13_4 C 0.8098(4) 0.9512(3) 0.4101(2)
C15_4 C 0.6579(5) 0.9925(4) 0.3946(3)
C16_4 C 0.6959(5) 0.8718(5) 0.3792(3)
H9_4 H 0.6799 0.8238 0.3684
C17_4 C 0.7830(5) 0.8818(4) 0.3945(3)
H10_4 H 0.8250 0.8411 0.3943
C44_4 C 0.9776(4) 0.5635(3) 0.63390(18)
H25_4 H 0.9506 0.5494 0.6080
C45_4 C 0.9235(4) 0.5740(3) 0.66888(18)
H26_4 H 0.8595 0.5662 0.6669
C46_4 C 0.9621(4) 0.5959(3) 0.70698(17)
C49_4 C 0.9050(4) 0.6162(3) 0.74380(17)
C50_4 C 0.8153(4) 0.5948(3) 0.74825(17)
H29_4 H 0.7870 0.5631 0.7280
C51_4 C 0.7664(4) 0.6201(3) 0.78271(17)
C52_4 C 0.8098(4) 0.6661(3) 0.81120(18)
H30_4 H 0.7777 0.6846 0.8348
C53_4 C 0.9011(4) 0.6854(3) 0.80515(17)
C54_4 C 0.9514(4) 0.7375(3) 0.83351(17)
C55_4 C 0.9206(4) 0.7556(3) 0.87316(18)
H31_4 H 0.8703 0.7291 0.8847
C56_4 C 0.9626(4) 0.8120(3) 0.89607(16)
H32_4 H 0.9411 0.8238 0.9233
C61_4 C 0.6687(4) 0.6015(4) 0.7870(2)
C62_4 C 0.6120(4) 0.5950(4) 0.7525(2)
H35_4 H 0.6360 0.6018 0.7252
C63_4 C 0.5210(5) 0.5788(4) 0.7575(3)
H36_2 H 0.4837 0.5766 0.7331
C64_4 C 0.5363(7) 0.5715(6) 0.8264(3)
H37_4 H 0.5101 0.5629 0.8531
C65_4 C 0.6299(6) 0.5889(5) 0.8257(3)
H38_4 H 0.6650 0.5919 0.8507
H39_4 H 0.9937 0.3674 0.5675
N1_4 N 0.6317(4) 0.9267(4) 0.3789(3)
N5_2 N 0.4819(5) 0.5661(5) 0.7942(3)
N6_4 N 0.9476(3) 0.6605(3) 0.77186(14)
H36_3 H 0.9837 0.9234 0.2331
N5_3 N 0.9819(5) 0.9339(5) 0.2942(3)
C4_3 C 0.0583(4) 0.9634(3) 0.57346(18)
H2_3 H 0.0927 0.9216 0.5832
H3_3 H 0.0405 0.8136 0.5601
C14_3 C 0.2564(4) 0.9925(3) 0.5897(2)
H7_3 H 0.2424 0.9440 0.5789
H8_3 H 0.3857 0.9680 0.6049
C37_3 C 0.9543(4) 0.1665(3) 0.31793(17)
C38_3 C 0.8911(4) 0.1119(4) 0.3066(2)
H21_3 H 0.9079 0.0725 0.2881
C39_3 C 0.8034(5) 0.1151(4) 0.3225(3)
H22_3 H 0.7610 0.0775 0.3141
C40_3 C 0.8350(4) 0.2188(4) 0.3600(2)
H23_3 H 0.8168 0.2566 0.3793
C41_3 C 0.9241(4) 0.2203(4) 0.34501(19)
H24_3 H 0.9643 0.2593 0.3537
N3_3 N 0.7756(4) 0.1683(3) 0.34890(18)
H36_4 H 0.0163 0.0766 0.7669
N5_4 N 0.0181(5) 0.0661(5) 0.7058(3)
C37_4 C 0.0457(4) 0.8335(3) 0.68207(17)
C38_4 C 0.1089(4) 0.8881(4) 0.6934(2)
H21_4 H 0.0921 0.9275 0.7119
C39_4 C 0.1966(5) 0.8849(4) 0.6775(3)
H22_4 H 0.2390 0.9225 0.6859
C40_4 C 0.1650(4) 0.7812(4) 0.6400(2)
H23_4 H 0.1832 0.7434 0.6207
C41_4 C 0.0759(4) 0.7797(4) 0.65499(19)
H24_4 H 0.0357 0.7407 0.6463
N3_4 N 0.2244(4) 0.8317(3) 0.65110(18)
C4_4 C 0.9417(4) 0.0366(3) 0.42654(18)
H2_4 H 0.9073 0.0784 0.4168
H3_4 H 0.9595 0.1864 0.4399
C14_4 C 0.7436(4) 0.0075(3) 0.4103(2)
H7_4 H 0.7576 0.0560 0.4211
H8_4 H 0.6143 0.0320 0.3951
loop_
_geom_bond_atom_site_label_1
_geom_bond_atom_site_label_2
_geom_bond_site_symmetry_1
_geom_bond_site_symmetry_2
C18 C19 1_555 1_555
C19 C20 1_555 1_555
C20 H11 1_555 1_555
C21 C20 1_555 1_555
H12 C21 1_555 1_555
C22 C21 1_555 1_555
C23 C22 1_555 1_555
H13 C23 1_555 1_555
C24 C19 1_555 1_555
C25 C22 1_555 1_555
C26 C25 1_555 1_555
H15 C26 1_555 1_555
C27 C26 1_555 1_555
C28 C27 1_555 1_555
H16 C28 1_555 1_555
C29 C28 1_555 1_555
C30 C29 1_555 1_555
C31 C30 1_555 1_555
H17 C31 1_555 1_555
C32 C31 1_555 1_555
H18 C32 1_555 1_555
C33 C32 1_555 1_555
C34 C33 1_555 1_555
H19 C34 1_555 1_555
C35 C30 1_555 1_555
H20 C35 1_555 1_555
C36 C33 1_555 1_555
C37 C27 1_555 1_555
C38 C37 1_555 1_555
H21 C38 1_555 1_555
C39 C38 1_555 1_555
H22 C39 1_555 1_555
C40 H23 1_555 1_555
C41 C37 1_555 1_555
H24 C41 1_555 1_555
C67 N7 1_555 1_555
C69 N7 1_555 1_555
N3 C39 1_555 1_555
N4 C25 1_555 1_555
O4 C18 1_555 1_555
O6 C36 1_555 1_555
O7 C36 1_555 1_555
O19 Eu2 1_555 1_555
O21 Eu2 1_555 1_555
Eu5 O7 1_555 1_555
Eu11 O6 1_555 1_555
C23 C24 1_555 1_555
C29 N4 1_555 1_555
C34 C35 1_555 1_555
C40 C41 1_555 1_555
C40 N3 1_555 1_555
O4 Eu2 1_555 1_555
C67 H46 1_555 1_555
C67 H47 1_555 1_555
C69 H52 1_555 1_555
C68 H49 1_555 1_555
C68 H50 1_555 1_555
C68 H51 1_555 1_555
C66 H39 1_555 1_555
O12 C66 1_555 1_555
O13 C66 1_555 1_555
O14 H40 1_555 1_555
C42 C43 1_555 1_555
C43 C44 1_555 1_555
C44 H25 1_555 1_555
C45 C44 1_555 1_555
H26 C45 1_555 1_555
C46 C45 1_555 1_555
C47 C46 1_555 1_555
H27 C47 1_555 1_555
C48 C43 1_555 1_555
H28 C48 1_555 1_555
C49 C46 1_555 1_555
C50 C49 1_555 1_555
H29 C50 1_555 1_555
C51 C50 1_555 1_555
C52 C51 1_555 1_555
H30 C52 1_555 1_555
C53 C52 1_555 1_555
C54 C53 1_555 1_555
C55 C54 1_555 1_555
H31 C55 1_555 1_555
C56 C55 1_555 1_555
H32 C56 1_555 1_555
C57 C56 1_555 1_555
C58 C57 1_555 1_555
H33 C58 1_555 1_555
C59 C54 1_555 1_555
H34 C59 1_555 1_555
C60 C57 1_555 1_555
C61 C51 1_555 1_555
C62 C61 1_555 1_555
H35 C62 1_555 1_555
C63 C62 1_555 1_555
C64 H37 1_555 1_555
C65 C61 1_555 1_555
H38 C65 1_555 1_555
N6 C49 1_555 1_555
O8 C42 1_555 1_555
O9 C42 1_555 1_555
O10 C60 1_555 1_555
O11 C60 1_555 1_555
C70 C71 1_555 1_555
C76 C71 1_555 1_555
H45 C76 1_555 1_555
O16 C70 1_555 1_555
O17 C70 1_555 1_555
Eu3 O8 1_555 1_555
Eu4 O10 1_555 1_555
Eu8 O11 1_555 1_555
C47 C48 1_555 1_555
C53 N6 1_555 1_555
C58 C59 1_555 1_555
C64 C65 1_555 1_555
O5 Eu1 1_555 1_555
O9 Eu1 1_555 1_555
O11 Eu4 1_555 1_555
O15 Eu1 1_555 1_555
O16 Eu1 1_555 1_555
O16 Eu3 1_555 1_555
O17 Eu1 1_555 1_555
C1 C2 1_555 1_555
C2 H1 1_555 1_555
C3 C2 1_555 1_555
C4 C3 1_555 1_555
H2 C4 1_555 1_555
C5 C4 1_555 1_555
C6 C5 1_555 1_555
C7 C6 1_555 1_555
H3 C7 1_555 1_555
C8 C7 1_555 1_555
H4 C8 1_555 1_555
C9 C8 1_555 1_555
C10 C9 1_555 1_555
H5 C10 1_555 1_555
C11 C6 1_555 1_555
H6 C11 1_555 1_555
C12 C9 1_555 1_555
C13 C3 1_555 1_555
C14 C13 1_555 1_555
H7 C14 1_555 1_555
C15 C14 1_555 1_555
H8 C15 1_555 1_555
C16 H9 1_555 1_555
C17 C13 1_555 1_555
H10 C17 1_555 1_555
N1 C15 1_555 1_555
N2 C1 1_555 1_555
O18 C12 1_555 1_555
O3 C12 1_555 1_555
C72 H42 1_555 1_555
C73 C72 1_555 1_555
H43 C73 1_555 1_555
C74 C1 1_555 1_555
C75 C74 1_555 1_555
Eu7 O3 1_555 1_555
C5 N2 1_555 1_555
C10 C11 1_555 1_555
C16 C17 1_555 1_555
C16 N1 1_555 1_555
C73 C74 1_555 1_555
C2_2 H1_2 1_555 1_555
C3_2 C2_2 1_555 1_555
C13_2 C3_2 1_555 1_555
C16_2 H9_2 1_555 1_555
C17_2 C13_2 1_555 1_555
H10_2 C17_2 1_555 1_555
C44_2 H25_2 1_555 1_555
C45_2 C44_2 1_555 1_555
H26_2 C45_2 1_555 1_555
C46_2 C45_2 1_555 1_555
C49_2 C46_2 1_555 1_555
C50_2 C49_2 1_555 1_555
H29_2 C50_2 1_555 1_555
C51_2 C50_2 1_555 1_555
C52_2 C51_2 1_555 1_555
H30_2 C52_2 1_555 1_555
C53_2 C52_2 1_555 1_555
C54_2 C53_2 1_555 1_555
C55_2 C54_2 1_555 1_555
H31_2 C55_2 1_555 1_555
C56_2 C55_2 1_555 1_555
H32_2 C56_2 1_555 1_555
C61_2 C51_2 1_555 1_555
C62_2 C61_2 1_555 1_555
H35_2 C62_2 1_555 1_555
C63_2 C62_2 1_555 1_555
H36 C63_2 1_555 1_555
C64_2 H37_2 1_555 1_555
C65_2 C61_2 1_555 1_555
H38_2 C65_2 1_555 1_555
N1_2 C15_2 1_555 1_555
N5 C63_2 1_555 1_555
N6_2 C49_2 1_555 1_555
Eu11 O12_2 1_555 1_555
C16_2 C17_2 1_555 1_555
C16_2 N1_2 1_555 1_555
C53_2 N6_2 1_555 1_555
C64_2 C65_2 1_555 1_555
C64_2 N5 1_555 1_555
C18_2 C19_2 1_555 1_555
C19_2 C20_2 1_555 1_555
C20_2 H11_2 1_555 1_555
C21_2 C20_2 1_555 1_555
H12_2 C21_2 1_555 1_555
C22_2 C21_2 1_555 1_555
C23_2 C22_2 1_555 1_555
H13_2 C23_2 1_555 1_555
C24_2 C19_2 1_555 1_555
H14_2 C24_2 1_555 1_555
C25_2 C22_2 1_555 1_555
C26_2 C25_2 1_555 1_555
H15_2 C26_2 1_555 1_555
C27_2 C26_2 1_555 1_555
C28_2 C27_2 1_555 1_555
H16_2 C28_2 1_555 1_555
C29_2 C28_2 1_555 1_555
C30_2 C29_2 1_555 1_555
C31_2 C30_2 1_555 1_555
H17_2 C31_2 1_555 1_555
C32_2 C31_2 1_555 1_555
H18_2 C32_2 1_555 1_555
C33_2 C32_2 1_555 1_555
C34_2 C33_2 1_555 1_555
H19_2 C34_2 1_555 1_555
C35_2 C30_2 1_555 1_555
H20_2 C35_2 1_555 1_555
C36_2 C33_2 1_555 1_555
C42_2 C43_2 1_555 1_555
H27_2 C47_2 1_555 1_555
C48_2 C43_2 1_555 1_555
H28_2 C48_2 1_555 1_555
C58_2 C57_2 1_555 1_555
H33_2 C58_2 1_555 1_555
H34_2 C59_2 1_555 1_555
C60_2 C57_2 1_555 1_555
O1_2 C69_2 1_555 1_555
C67_2 N7_2 1_555 1_555
C68_2 N7_2 1_555 1_555
C69_2 N7_2 1_555 1_555
N2_2 C1_2 1_555 1_555
N4_2 C25_2 1_555 1_555
O4_2 C18_2 1_555 1_555
O5_2 C18_2 1_555 1_555
O6_2 C36_2 1_555 1_555
O8_2 C42_2 1_555 1_555
O9_2 C42_2 1_555 1_555
O22 C60_2 1_555 1_555
O23 C60_2 1_555 1_555
O13_2 C66_2 1_555 1_555
O14_2 H40_2 1_555 1_555
O15_2 H41_2 1_555 1_555
C70_2 C71_2 1_555 1_555
C71_2 C72_2 1_555 1_555
C72_2 H42_2 1_555 1_555
C73_2 C72_2 1_555 1_555
H43_2 C73_2 1_555 1_555
C74_2 C1_2 1_555 1_555
C75_2 C74_2 1_555 1_555
H44_2 C75_2 1_555 1_555
C76_2 C71_2 1_555 1_555
H45_2 C76_2 1_555 1_555
O16_2 C70_2 1_555 1_555
O17_2 C70_2 1_555 1_555
Eu4 O4_2 1_555 1_555
Eu5 O1_2 1_555 1_555
Eu3_2 O8_2 1_555 1_555
O18_2 Eu3_2 1_555 1_555
O19_2 Eu5 1_555 1_555
O20_2 Eu3_2 1_555 1_555
O24_2 Eu5 1_555 1_555
O25_2 Eu3_2 1_555 1_555
O26_2 Eu5 1_555 1_555
O27_2 Eu5 1_555 1_555
Eu8 O14_2 1_555 1_555
C23_2 C24_2 1_555 1_555
C29_2 N4_2 1_555 1_555
C34_2 C35_2 1_555 1_555
C47_2 C48_2 1_555 1_555
C58_2 C59_2 1_555 1_555
O4_2 Eu5 1_555 1_555
O5_2 Eu4 1_555 1_555
O9_2 Eu4 1_555 1_555
O13_2 Eu3_2 1_555 1_555
O14_2 Eu4 1_555 1_555
O14_2 Eu3_2 1_555 1_555
O15_2 Eu4 1_555 1_555
O15_2 Eu5 1_555 1_555
O15_2 Eu8 1_555 1_555
C73_2 C74_2 1_555 1_555
C75_2 C76_2 1_555 1_555
O16_2 Eu4 1_555 1_555
O16_2 Eu3_2 1_555 1_555
O17_2 Eu4 1_555 1_555
O27_2 Eu8 1_555 1_555
C67_2 H46_2 1_555 1_555
C67_2 H47_2 1_555 1_555
C67_2 H48_2 1_555 1_555
C68_2 H49_2 1_555 1_555
C68_2 H50_2 1_555 1_555
C68_2 H51_2 1_555 1_555
C69_2 H52_2 1_555 1_555
C6_2 C5_2 1_555 1_555
C7_2 C6_2 1_555 1_555
C8_2 C7_2 1_555 1_555
H4_2 C8_2 1_555 1_555
C9_2 C8_2 1_555 1_555
C10_2 C9_2 1_555 1_555
H5_2 C10_2 1_555 1_555
C11_2 C6_2 1_555 1_555
H6_2 C11_2 1_555 1_555
C12_2 C9_2 1_555 1_555
O18_2 C12_2 1_555 1_555
O3_2 C12_2 1_555 1_555
Eu8 O3_2 1_555 1_555
C10_2 C11_2 1_555 1_555
C1_3 C2_3 1_555 1_555
C2_3 H1_3 1_555 1_555
C3_3 C2_3 1_555 1_555
C4_2 C3_3 1_555 1_555
H2_2 C4_2 1_555 1_555
C5_3 C4_2 1_555 1_555
C6_3 C5_3 1_555 1_555
C7_3 C6_3 1_555 1_555
H3_2 C7_3 1_555 1_555
C8_3 C7_3 1_555 1_555
H4_3 C8_3 1_555 1_555
C9_3 C8_3 1_555 1_555
C10_3 C9_3 1_555 1_555
H5_3 C10_3 1_555 1_555
C11_3 C6_3 1_555 1_555
H6_3 C11_3 1_555 1_555
C12_3 C9_3 1_555 1_555
C13_3 C3_3 1_555 1_555
C14_2 C13_3 1_555 1_555
H7_2 C14_2 1_555 1_555
C15_3 C14_2 1_555 1_555
H8_2 C15_3 1_555 1_555
C16_3 H9_3 1_555 1_555
C17_3 C13_3 1_555 1_555
H10_3 C17_3 1_555 1_555
N1_3 C15_3 1_555 1_555
N2_3 C1_3 1_555 1_555
O2 C12_3 1_555 1_555
O19 C12_3 1_555 1_555
C72_3 H42_3 1_555 1_555
C73_3 C72_3 1_555 1_555
H43_3 C73_3 1_555 1_555
C74_3 C1_3 1_555 1_555
C75_3 C74_3 1_555 1_555
C5_3 N2_3 1_555 1_555
C10_3 C11_3 1_555 1_555
C16_3 C17_3 1_555 1_555
C16_3 N1_3 1_555 1_555
C73_3 C74_3 1_555 1_555
C42_3 C43_3 1_555 1_555
C43_3 C44_3 1_555 1_555
C44_3 H25_3 1_555 1_555
C45_3 C44_3 1_555 1_555
H26_3 C45_3 1_555 1_555
C46_3 C45_3 1_555 1_555
C47_3 C46_3 1_555 1_555
H27_3 C47_3 1_555 1_555
C48_3 C43_3 1_555 1_555
H28_3 C48_3 1_555 1_555
C49_3 C46_3 1_555 1_555
C50_3 C49_3 1_555 1_555
H29_3 C50_3 1_555 1_555
C51_3 C50_3 1_555 1_555
C52_3 C51_3 1_555 1_555
H30_3 C52_3 1_555 1_555
C53_3 C52_3 1_555 1_555
C54_3 C53_3 1_555 1_555
C55_3 C54_3 1_555 1_555
H31_3 C55_3 1_555 1_555
C56_3 C55_3 1_555 1_555
H32_3 C56_3 1_555 1_555
C57_3 C56_3 1_555 1_555
C58_3 C57_3 1_555 1_555
H33_3 C58_3 1_555 1_555
C59_3 C54_3 1_555 1_555
H34_3 C59_3 1_555 1_555
C60_3 C57_3 1_555 1_555
C61_3 C51_3 1_555 1_555
C62_3 C61_3 1_555 1_555
H35_3 C62_3 1_555 1_555
C63_3 C62_3 1_555 1_555
C64_3 H37_3 1_555 1_555
C65_3 C61_3 1_555 1_555
H38_3 C65_3 1_555 1_555
N6_3 C49_3 1_555 1_555
O8_3 C42_3 1_555 1_555
O9_3 C42_3 1_555 1_555
O10_2 C60_3 1_555 1_555
O24_2 C60_3 1_555 1_555
C70_3 C71_3 1_555 1_555
C76_3 C71_3 1_555 1_555
H45_3 C76_3 1_555 1_555
O16_3 C70_3 1_555 1_555
O17_3 C70_3 1_555 1_555
Eu10 O8_3 1_555 1_555
Eu4_2 O10_2 1_555 1_555
C47_3 C48_3 1_555 1_555
C53_3 N6_3 1_555 1_555
C58_3 C59_3 1_555 1_555
C64_3 C65_3 1_555 1_555
O5_3 Eu1_2 1_555 1_555
O9_3 Eu1_2 1_555 1_555
O24_2 Eu4_2 1_555 1_555
O27 Eu1_2 1_555 1_555
O16_3 Eu1_2 1_555 1_555
O16_3 Eu10 1_555 1_555
O17_3 Eu1_2 1_555 1_555
C66_3 H39_3 1_555 1_555
O25 C66_3 1_555 1_555
O13_3 C66_3 1_555 1_555
O26 H40_3 1_555 1_555
C68_3 H49_3 1_555 1_555
C68_3 H50_3 1_555 1_555
C68_3 H51_3 1_555 1_555
C18_3 C19_3 1_555 1_555
C19_3 C20_3 1_555 1_555
C20_3 H11_3 1_555 1_555
C21_3 C20_3 1_555 1_555
H12_3 C21_3 1_555 1_555
C22_3 C21_3 1_555 1_555
C23_3 C22_3 1_555 1_555
H13_3 C23_3 1_555 1_555
C24_3 C19_3 1_555 1_555
C25_3 C22_3 1_555 1_555
C26_3 C25_3 1_555 1_555
H15_3 C26_3 1_555 1_555
C27_3 C26_3 1_555 1_555
C28_3 C27_3 1_555 1_555
H16_3 C28_3 1_555 1_555
C29_3 C28_3 1_555 1_555
C30_3 C29_3 1_555 1_555
C31_3 C30_3 1_555 1_555
H17_3 C31_3 1_555 1_555
C32_3 C31_3 1_555 1_555
H18_3 C32_3 1_555 1_555
C33_3 C32_3 1_555 1_555
C34_3 C33_3 1_555 1_555
H19_3 C34_3 1_555 1_555
C35_3 C30_3 1_555 1_555
H20_3 C35_3 1_555 1_555
C36_3 C33_3 1_555 1_555
C37_2 C27_3 1_555 1_555
C38_2 C37_2 1_555 1_555
H21_2 C38_2 1_555 1_555
C39_2 C38_2 1_555 1_555
H22_2 C39_2 1_555 1_555
C40_2 H23_2 1_555 1_555
C41_2 C37_2 1_555 1_555
H24_2 C41_2 1_555 1_555
C67_3 N7_3 1_555 1_555
C69_3 N7_3 1_555 1_555
N3_2 C39_2 1_555 1_555
N4_3 C25_3 1_555 1_555
O4_3 C18_3 1_555 1_555
O20_2 C36_3 1_555 1_555
O7_2 C36_3 1_555 1_555
O21_2 Eu7 1_555 1_555
Eu8 O7_2 1_555 1_555
C23_3 C24_3 1_555 1_555
C29_3 N4_3 1_555 1_555
C34_3 C35_3 1_555 1_555
C40_2 C41_2 1_555 1_555
C40_2 N3_2 1_555 1_555
O4_3 Eu7 1_555 1_555
C67_3 H46_3 1_555 1_555
C67_3 H47_3 1_555 1_555
C69_3 H52_3 1_555 1_555
C6_4 C5_4 1_555 1_555
C7_4 C6_4 1_555 1_555
C8_4 C7_4 1_555 1_555
H4_4 C8_4 1_555 1_555
C9_4 C8_4 1_555 1_555
C10_4 C9_4 1_555 1_555
H5_4 C10_4 1_555 1_555
C11_4 C6_4 1_555 1_555
H6_4 C11_4 1_555 1_555
C12_4 C9_4 1_555 1_555
O2_2 C12_4 1_555 1_555
O19_2 C12_4 1_555 1_555
Eu11 O2_2 1_555 1_555
C10_4 C11_4 1_555 1_555
C18_4 C19_4 1_555 1_555
C19_4 C20_4 1_555 1_555
C20_4 H11_4 1_555 1_555
C21_4 C20_4 1_555 1_555
H12_4 C21_4 1_555 1_555
C22_4 C21_4 1_555 1_555
C23_4 C22_4 1_555 1_555
H13_4 C23_4 1_555 1_555
C24_4 C19_4 1_555 1_555
H14_4 C24_4 1_555 1_555
C25_4 C22_4 1_555 1_555
C26_4 C25_4 1_555 1_555
H15_4 C26_4 1_555 1_555
C27_4 C26_4 1_555 1_555
C28_4 C27_4 1_555 1_555
H16_4 C28_4 1_555 1_555
C29_4 C28_4 1_555 1_555
C30_4 C29_4 1_555 1_555
C31_4 C30_4 1_555 1_555
H17_4 C31_4 1_555 1_555
C32_4 C31_4 1_555 1_555
H18_4 C32_4 1_555 1_555
C33_4 C32_4 1_555 1_555
C34_4 C33_4 1_555 1_555
H19_4 C34_4 1_555 1_555
C35_4 C30_4 1_555 1_555
H20_4 C35_4 1_555 1_555
C36_4 C33_4 1_555 1_555
C42_4 C43_4 1_555 1_555
H27_4 C47_4 1_555 1_555
C48_4 C43_4 1_555 1_555
H28_4 C48_4 1_555 1_555
C58_4 C57_4 1_555 1_555
H33_4 C58_4 1_555 1_555
H34_4 C59_4 1_555 1_555
C60_4 C57_4 1_555 1_555
O1_4 C69_4 1_555 1_555
C67_4 N7_4 1_555 1_555
C68_4 N7_4 1_555 1_555
C69_4 N7_4 1_555 1_555
N2_4 C1_4 1_555 1_555
N4_4 C25_4 1_555 1_555
O4_4 C18_4 1_555 1_555
O5_4 C18_4 1_555 1_555
O20 C36_4 1_555 1_555
O8_4 C42_4 1_555 1_555
O9_4 C42_4 1_555 1_555
O22_2 C60_4 1_555 1_555
O24 C60_4 1_555 1_555
O13_4 C66_4 1_555 1_555
O26_2 H40_4 1_555 1_555
O27_2 H41_4 1_555 1_555
C70_4 C71_4 1_555 1_555
C71_4 C72_4 1_555 1_555
C72_4 H42_4 1_555 1_555
C73_4 C72_4 1_555 1_555
H43_4 C73_4 1_555 1_555
C74_4 C1_4 1_555 1_555
C75_4 C74_4 1_555 1_555
H44_4 C75_4 1_555 1_555
C76_4 C71_4 1_555 1_555
H45_4 C76_4 1_555 1_555
O16_4 C70_4 1_555 1_555
O17_4 C70_4 1_555 1_555
Eu4_2 O4_4 1_555 1_555
Eu8 O1_4 1_555 1_555
Eu11 O8_4 1_555 1_555
C23_4 C24_4 1_555 1_555
C29_4 N4_4 1_555 1_555
C34_4 C35_4 1_555 1_555
C47_4 C48_4 1_555 1_555
C58_4 C59_4 1_555 1_555
O4_4 Eu8 1_555 1_555
O5_4 Eu4_2 1_555 1_555
O9_4 Eu4_2 1_555 1_555
O13_4 Eu11 1_555 1_555
O26_2 Eu4_2 1_555 1_555
O26_2 Eu11 1_555 1_555
O27_2 Eu4_2 1_555 1_555
C73_4 C74_4 1_555 1_555
C75_4 C76_4 1_555 1_555
O16_4 Eu4_2 1_555 1_555
O16_4 Eu11 1_555 1_555
O17_4 Eu4_2 1_555 1_555
C67_4 H46_4 1_555 1_555
C67_4 H47_4 1_555 1_555
C67_4 H48_4 1_555 1_555
C68_4 H49_4 1_555 1_555
C68_4 H50_4 1_555 1_555
C68_4 H51_4 1_555 1_555
C69_4 H52_4 1_555 1_555
C2_4 H1_4 1_555 1_555
C3_4 C2_4 1_555 1_555
C13_4 C3_4 1_555 1_555
C16_4 H9_4 1_555 1_555
C17_4 C13_4 1_555 1_555
H10_4 C17_4 1_555 1_555
C44_4 H25_4 1_555 1_555
C45_4 C44_4 1_555 1_555
H26_4 C45_4 1_555 1_555
C46_4 C45_4 1_555 1_555
C49_4 C46_4 1_555 1_555
C50_4 C49_4 1_555 1_555
H29_4 C50_4 1_555 1_555
C51_4 C50_4 1_555 1_555
C52_4 C51_4 1_555 1_555
H30_4 C52_4 1_555 1_555
C53_4 C52_4 1_555 1_555
C54_4 C53_4 1_555 1_555
C55_4 C54_4 1_555 1_555
H31_4 C55_4 1_555 1_555
C56_4 C55_4 1_555 1_555
H32_4 C56_4 1_555 1_555
C61_4 C51_4 1_555 1_555
C62_4 C61_4 1_555 1_555
H35_4 C62_4 1_555 1_555
C63_4 C62_4 1_555 1_555
H36_2 C63_4 1_555 1_555
C64_4 H37_4 1_555 1_555
C65_4 C61_4 1_555 1_555
H38_4 C65_4 1_555 1_555
N1_4 C15_4 1_555 1_555
N5_2 C63_4 1_555 1_555
N6_4 C49_4 1_555 1_555
C16_4 C17_4 1_555 1_555
C16_4 N1_4 1_555 1_555
C53_4 N6_4 1_555 1_555
C64_4 C65_4 1_555 1_555
C64_4 N5_2 1_555 1_555
H2_3 C4_3 1_555 1_555
H7_3 C14_3 1_555 1_555
C38_3 C37_3 1_555 1_555
H21_3 C38_3 1_555 1_555
C39_3 C38_3 1_555 1_555
H22_3 C39_3 1_555 1_555
C40_3 H23_3 1_555 1_555
C41_3 C37_3 1_555 1_555
H24_3 C41_3 1_555 1_555
N3_3 C39_3 1_555 1_555
C40_3 C41_3 1_555 1_555
C40_3 N3_3 1_555 1_555
C38_4 C37_4 1_555 1_555
H21_4 C38_4 1_555 1_555
C39_4 C38_4 1_555 1_555
H22_4 C39_4 1_555 1_555
C40_4 H23_4 1_555 1_555
C41_4 C37_4 1_555 1_555
H24_4 C41_4 1_555 1_555
N3_4 C39_4 1_555 1_555
C40_4 C41_4 1_555 1_555
C40_4 N3_4 1_555 1_555
H2_4 C4_4 1_555 1_555
H7_4 C14_4 1_555 1_555

#END
