
###############################################################################
#
# This file contains modified crystal structure data generated from the
# MOF subset of the Cambridge Structural Database (CSD) v543 
# hosted by the Cambridge Crystallographic Data Centre (CCDC).
#
# This work is licensed under the Creative Commons
# Attribution-NonCommercial-ShareAlike 4.0 International License.
# To view a copy of this license, visit
# http://creativecommons.org/licenses/by-nc-sa/4.0/
# or send a letter to
# Creative Commons, PO Box 1866, Mountain View, CA 94042, USA.
#
# CIF created using the CSD Python API on 29 September 2022
# The structure has been converted into the P1 space group
# The structure has a 3D framework
# The original CSD entry LORRUH is in the monoclinic crystal system
# The framework has been calculated to contain at least 10.0% void space
# The void calculation uses a probe of radius 1.32A, grid spacing 0.4
# H atom positions have been added when not included in the experimental data
#
###############################################################################

data_LORRUH
_chemical_formula_moiety         '(C292 H180 Eu10 N24 O61)n'
_symmetry_cell_setting           triclinic
_symmetry_space_group_name_H-M   'P 1'
_symmetry_Int_Tables_number      1
_space_group_name_Hall           'P 1'
loop_
_symmetry_equiv_pos_site_id
_symmetry_equiv_pos_as_xyz
1 x,y,z
_cell_length_a                   14.5551(5)
_cell_length_b                   17.8237(7)
_cell_length_c                   31.7548(11)
_cell_angle_alpha                90
_cell_angle_beta                 90.9390(10)
_cell_angle_gamma                90
_cell_volume                     8236.91
loop_
_atom_site_label
_atom_site_type_symbol
_atom_site_fract_x
_atom_site_fract_y
_atom_site_fract_z
C1 C 0.0045(4) 0.3571(4) 0.11131(19)
C2 C 0.0797(4) 0.3152(4) 0.13292(18)
C3 C 0.0625(5) 0.2632(6) 0.1632(2)
H1 H 0.0023 0.2542 0.1712
C4 C 0.1338(6) 0.2235(6) 0.1823(2)
H2 H 0.1203 0.1871 0.2023
C5 C 0.2230(5) 0.2367(4) 0.1725(2)
C6 C 0.2412(5) 0.2930(4) 0.1428(2)
H3 H 0.3014 0.3051 0.1362
C7 C 0.1689(5) 0.3301(4) 0.1235(2)
H4 H 0.1814 0.3665 0.1035
C8 C 0.3007(5) 0.1969(4) 0.1935(2)
C9 C 0.3865(5) 0.1933(4) 0.1769(2)
H5 H 0.3967 0.2143 0.1506
C10 C 0.4591(5) 0.1587(4) 0.1984(2)
C11 C 0.4374(5) 0.1248(5) 0.2365(2)
H6 H 0.4825 0.0990 0.2516
C12 C 0.3488(5) 0.1292(4) 0.25199(19)
C13 C 0.3232(5) 0.0976(4) 0.2933(2)
C14 C 0.3819(5) 0.0520(4) 0.31632(19)
H7 H 0.4377 0.0376 0.3049
C15 C 0.3595(4) 0.0274(4) 0.35584(19)
C16 C 0.2785(4) 0.0495(4) 0.37418(18)
C17 C 0.2163(5) 0.0927(4) 0.3507(2)
H9 H 0.1592 0.1050 0.3614
C18 C 0.2412(5) 0.1168(5) 0.3114(2)
H10 H 0.2008 0.1475 0.2964
C19 C 0.2556(4) 0.0265(4) 0.41853(17)
C20 C 0.5523(5) 0.1587(4) 0.1823(2)
C21 C 0.6135(6) 0.1012(5) 0.1912(3)
H11 H 0.5961 0.0605 0.2076
C22 C 0.7007(7) 0.1057(6) 0.1753(3)
H12 H 0.7415 0.0672 0.1822
C23 C 0.6720(6) 0.2133(6) 0.1430(3)
H13 H 0.6899 0.2532 0.1261
C24 C 0.5845(5) 0.2144(5) 0.1577(2)
H14 H 0.5461 0.2544 0.1507
C25 C 0.2971(4) 0.3349(3) 0.03370(18)
C26 C 0.3425(4) 0.2611(3) 0.0414(2)
C27 C 0.2938(5) 0.1951(4) 0.0394(3)
H15 H 0.2311 0.1967 0.0333
C28 C 0.3353(5) 0.1264(4) 0.0460(3)
H16 H 0.3002 0.0828 0.0446
C29 C 0.4274(5) 0.1219(3) 0.0546(2)
C30 C 0.4757(5) 0.1877(4) 0.0571(3)
H17 H 0.5385 0.1863 0.0628
C31 C 0.4329(5) 0.2559(4) 0.0515(2)
H18 H 0.4672 0.2996 0.0548
C32 C 0.4724(5) 0.0468(4) 0.0593(2)
C33 C 0.5622(5) 0.0389(4) 0.0730(2)
H19 H 0.5972 0.0807 0.0802
C45 C 0.7669(8) 0.0062(7) 0.0783(6)
H25 H 0.7534 0.0480 0.0619
H26 H 0.9010 0.0253 0.0822
N1 N 0.7320(5) 0.1613(5) 0.1505(3)
N2 N 0.2808(4) 0.1646(4) 0.23062(16)
O2 O 0.1777(3) 0.0424(2) 0.43157(12)
O4 O 0.2130(3) 0.3354(2) 0.02465(14)
O5 O 0.3463(3) 0.3912(2) 0.03626(13)
O17 O 0.0200(3) 0.3929(2) 0.07771(12)
Eu1 Eu 0.094793(19) 0.423296(16) 0.011305(8)
O18 O 0.3223(3) 0.5424(2) 0.06843(12)
O19 O 0.1837(3) 0.4933(2) 0.05997(12)
O27 O 0.4949(3) 0.5641(2) 0.02363(13)
Eu8 Eu 0.141692(18) 0.003240(16) 0.500416(8)
Eu9 Eu 0.641692(18) 0.496760(16) 0.000416(8)
H44 H 0.0348231 0.267102 0.0231832
C49 C 0.0701(5) 0.4237(4) 0.8998(2)
C50 C 0.0338(5) 0.3545(4) 0.8789(2)
C54 C 0.0309(5) 0.2730(4) 0.8186(2)
H31 H 0.0571 0.2565 0.7938
C55 C 0.0721(5) 0.3301(5) 0.8410(2)
H32 H 0.1253 0.3524 0.8311
C64 C 0.0747(5) 0.0772(4) 0.6365(2)
C65 C 0.1123(5) 0.0930(5) 0.6753(2)
H37 H 0.1759 0.0958 0.6784
C66 C 0.0582(5) 0.1046(5) 0.7095(2)
H38 H 0.0850 0.1167 0.7354
C67 C 0.1337(5) 0.0705(4) 0.59838(19)
C73 C 0.4637(5) 0.3995(4) 0.9465(2)
H43 H 0.4982 0.3749 0.9264
O1 O 0.0308(4) 0.2979(3) 0.99716(16)
O8 O 0.0456(3) 0.4387(3) 0.93679(13)
O9 O 0.1219(4) 0.4669(3) 0.88015(14)
O10 O 0.0958(3) 0.0583(3) 0.56412(13)
O11 O 0.2187(3) 0.0789(3) 0.60424(13)
O12 O 0.3803(3) 0.3968(3) 0.94440(16)
O13 O 0.5051(3) 0.4359(2) 0.97637(13)
O14 O 0.2196(2) 0.4653(2) 0.96688(11)
Eu2 Eu 0.358308(18) 0.503240(16) 0.999584(8)
O21 O 0.2599(3) 0.6129(2) 0.98884(12)
O25 O 0.4042(3) 0.5583(3) 0.93588(13)
O29 O 0.0685(2) 0.5529(2) 0.99493(11)
Eu11 Eu 0.14471(2) 0.566477(17) 0.931095(9)
Eu12 Eu 0.35529(2) 0.066477(17) 0.568905(9)
H8 H 0.3994 0.9956 0.3704
C34 C 0.5994(5) 0.9677(4) 0.0759(3)
C35 C 0.5447(5) 0.9081(4) 0.0650(3)
H20 H 0.5684 0.8597 0.0664
C36 C 0.4549(5) 0.9188(4) 0.0518(2)
C37 C 0.3948(6) 0.8578(4) 0.0380(3)
C38 C 0.4141(6) 0.7860(4) 0.0434(3)
H21 H 0.4663 0.7733 0.0591
C39 C 0.3595(6) 0.7274(4) 0.0265(3)
H22 H 0.3759 0.6779 0.0318
C40 C 0.2879(6) 0.7413(4) 0.0040(3)
C42 C 0.3149(6) 0.8719(4) 0.0163(3)
H24 H 0.2933 0.9209 0.0149
C44 C 0.6994(9) 0.9575(8) 0.0883(6)
C46 C 0.8554(9) 0.9940(7) 0.0924(6)
C47 C 0.8130(8) 0.8975(7) 0.1365(6)
H27 H 0.8250 0.8675 0.1598
C48 C 0.7222(8) 0.9001(7) 0.1168(6)
H28 H 0.6791 0.8635 0.1231
N3 N 0.8804(7) 0.9412(6) 0.1193(5)
N4 N 0.4197(4) 0.9877(3) 0.04938(19)
O3 O 0.3163(3) 0.9933(2) 0.44003(12)
Eu4 Eu 0.405207(19) 0.923296(16) 0.488695(8)
C41 C 0.2636(6) 0.8147(4) 0.9958(3)
H23 H 0.2152 0.8263 0.9775
C43 C 0.2382(4) 0.6804(4) 0.9818(2)
O6 O 0.1708(4) 0.6944(3) 0.95584(17)
O15 O 0.9315(2) 0.4471(2) 0.00507(11)
O16 O 0.9256(3) 0.3581(3) 0.12646(14)
Eu3 Eu 0.85529(2) 0.433523(17) 0.068905(9)
O20 O 0.8292(4) 0.3056(3) 0.04416(17)
O22 O 0.7401(3) 0.3871(2) 0.01116(12)
O23 O 0.9544(3) 0.5613(3) 0.06321(13)
O24 O 0.8781(4) 0.5331(3) 0.11985(14)
O26 O 0.7187(3) 0.4211(3) 0.10424(13)
O28 O 0.7804(2) 0.5347(2) 0.03312(11)
C51 C 0.9572(5) 0.3189(4) 0.8943(2)
H29 H 0.9333 0.3335 0.9200
C52 C 0.9156(6) 0.2612(5) 0.8714(2)
H30 H 0.8644 0.2370 0.8820
C53 C 0.9504(5) 0.2396(4) 0.8325(2)
C56 C 0.9007(6) 0.1849(4) 0.8048(2)
C57 C 0.8086(5) 0.1669(5) 0.8094(2)
H33 H 0.7766 0.1848 0.8325
C58 C 0.7644(5) 0.1224(5) 0.7797(2)
C59 C 0.8135(5) 0.0986(5) 0.7461(2)
H34 H 0.7854 0.0693 0.7253
C60 C 0.9054(5) 0.1179(4) 0.7427(2)
C61 C 0.9636(5) 0.0983(4) 0.7057(2)
C62 C 0.9250(5) 0.0796(4) 0.6670(2)
H35 H 0.8617 0.0734 0.6641
C63 C 0.9799(4) 0.0701(4) 0.6330(2)
H36 H 0.9533 0.0587 0.6069
C68 C 0.6653(6) 0.1056(6) 0.7830(3)
C69 C 0.6085(7) 0.1085(6) 0.7487(4)
H39 H 0.6321 0.1192 0.7223
C70 C 0.5147(8) 0.0953(8) 0.7532(5)
H40 H 0.4766 0.0978 0.7295
C71 C 0.5316(9) 0.0740(10) 0.8216(5)
H41 H 0.5063 0.0598 0.8471
C72 C 0.6258(8) 0.0880(8) 0.8206(4)
H42 H 0.6614 0.0854 0.8451
N5 N 0.4784(7) 0.0795(7) 0.7895(4)
N6 N 0.9477(4) 0.1615(4) 0.77212(17)
Eu5 Eu 0.905207(19) 0.576704(16) 0.988695(8)
H45 H 0.965482 0.302671 0.988034
O21_2 O 0.2401(3) 0.1129(2) 0.51116(12)
O23_2 O 0.5456(3) 0.0613(3) 0.43679(13)
O24_2 O 0.6219(4) 0.0331(3) 0.38015(14)
O27_2 O 0.0051(3) 0.0641(2) 0.47637(13)
O28_2 O 0.7196(2) 0.0347(2) 0.46688(11)
O29_2 O 0.4315(2) 0.0529(2) 0.50507(11)
Eu5_2 Eu 0.594793(19) 0.076704(16) 0.511305(8)
C1_2 C 0.4955(4) 0.8571(4) 0.38869(19)
C2_2 C 0.4203(4) 0.8152(4) 0.36708(18)
C3_2 C 0.4375(5) 0.7632(6) 0.3368(2)
H1_2 H 0.4977 0.7542 0.3288
C4_2 C 0.3662(6) 0.7235(6) 0.3177(2)
H2_2 H 0.3797 0.6871 0.2977
C5_2 C 0.2770(5) 0.7367(4) 0.3275(2)
C6_2 C 0.2588(5) 0.7930(4) 0.3572(2)
H3_2 H 0.1986 0.8051 0.3638
C7_2 C 0.3311(5) 0.8301(4) 0.3765(2)
H4_2 H 0.3186 0.8665 0.3965
C8_2 C 0.1993(5) 0.6969(4) 0.3065(2)
C9_2 C 0.1135(5) 0.6933(4) 0.3231(2)
H5_2 H 0.1033 0.7143 0.3494
C10_2 C 0.0409(5) 0.6587(4) 0.3016(2)
C11_2 C 0.0626(5) 0.6248(5) 0.2635(2)
H6_2 H 0.0175 0.5990 0.2484
C12_2 C 0.1512(5) 0.6292(4) 0.24801(19)
C13_2 C 0.1768(5) 0.5976(4) 0.2067(2)
C14_2 C 0.1181(5) 0.5520(4) 0.18368(19)
H7_2 H 0.0623 0.5376 0.1951
C15_2 C 0.1405(4) 0.5274(4) 0.14416(19)
H8_2 H 0.1006 0.4956 0.1296
C16_2 C 0.2215(4) 0.5495(4) 0.12582(18)
C17_2 C 0.2837(5) 0.5927(4) 0.1493(2)
H9_2 H 0.3408 0.6050 0.1386
C18_2 C 0.2588(5) 0.6168(5) 0.1886(2)
H10_2 H 0.2992 0.6475 0.2036
C19_2 C 0.2444(4) 0.5265(4) 0.08147(17)
C25_2 C 0.2029(4) 0.8349(3) 0.46630(18)
C26_2 C 0.1575(4) 0.7611(3) 0.4586(2)
C27_2 C 0.2062(5) 0.6951(4) 0.4606(3)
H15_2 H 0.2689 0.6967 0.4667
C28_2 C 0.1647(5) 0.6264(4) 0.4540(3)
H16_2 H 0.1998 0.5828 0.4554
C29_2 C 0.0726(5) 0.6219(3) 0.4454(2)
C30_2 C 0.0243(5) 0.6877(4) 0.4429(3)
C31_2 C 0.0671(5) 0.7559(4) 0.4485(2)
H18_2 H 0.0328 0.7996 0.4452
C32_2 C 0.0276(5) 0.5468(4) 0.4407(2)
C36_2 C 0.0451(5) 0.4188(4) 0.4482(2)
C37_2 C 0.1052(6) 0.3578(4) 0.4620(3)
C38_2 C 0.0859(6) 0.2860(4) 0.4566(3)
H21_2 H 0.0337 0.2733 0.4409
C39_2 C 0.1405(6) 0.2274(4) 0.4735(3)
H22_2 H 0.1241 0.1779 0.4682
C40_2 C 0.2121(6) 0.2413(4) 0.4960(3)
C41_2 C 0.2364(6) 0.3147(4) 0.5042(3)
H23_2 H 0.2848 0.3263 0.5225
C42_2 C 0.1851(6) 0.3719(4) 0.4837(3)
H24_2 H 0.2067 0.4209 0.4851
C43_2 C 0.2618(4) 0.1804(4) 0.5182(2)
C49_2 C 0.4299(5) 0.9237(4) 0.6002(2)
C50_2 C 0.4662(5) 0.8545(4) 0.6211(2)
C51_2 C 0.5428(5) 0.8189(4) 0.6057(2)
H29_2 H 0.5667 0.8335 0.5800
C52_2 C 0.5844(6) 0.7612(5) 0.6286(2)
H30_2 H 0.6356 0.7370 0.6180
C53_2 C 0.5496(5) 0.7396(4) 0.6675(2)
C54_2 C 0.4691(5) 0.7730(4) 0.6814(2)
H31_2 H 0.4429 0.7565 0.7062
C55_2 C 0.4279(5) 0.8301(5) 0.6590(2)
H32_2 H 0.3747 0.8524 0.6689
C56_2 C 0.5993(6) 0.6849(4) 0.6952(2)
C57_2 C 0.6914(5) 0.6669(5) 0.6906(2)
H33_2 H 0.7234 0.6848 0.6675
C58_2 C 0.7356(5) 0.6224(5) 0.7203(2)
C59_2 C 0.6865(5) 0.5986(5) 0.7539(2)
H34_2 H 0.7146 0.5693 0.7747
C60_2 C 0.5946(5) 0.6179(4) 0.7573(2)
C61_2 C 0.5364(5) 0.5983(4) 0.7943(2)
C62_2 C 0.5750(5) 0.5796(4) 0.8330(2)
H35_2 H 0.6383 0.5734 0.8359
C63_2 C 0.5201(4) 0.5701(4) 0.8670(2)
H36_2 H 0.5467 0.5587 0.8931
C64_2 C 0.4253(5) 0.5772(4) 0.8635(2)
C65_2 C 0.3877(5) 0.5930(5) 0.8247(2)
H37_2 H 0.3241 0.5958 0.8216
C66_2 C 0.4418(5) 0.6046(5) 0.7905(2)
H38_2 H 0.4150 0.6167 0.7646
C67_2 C 0.3663(5) 0.5705(4) 0.90162(19)
C68_2 C 0.8347(6) 0.6056(6) 0.7170(3)
C69_2 C 0.8915(7) 0.6085(6) 0.7513(4)
H39_2 H 0.8679 0.6192 0.7777
C70_2 C 0.9853(8) 0.5953(8) 0.7468(5)
C71_2 C 0.9684(9) 0.5740(10) 0.6784(5)
H41_2 H 0.9937 0.5598 0.6529
C72_2 C 0.8742(8) 0.5880(8) 0.6794(4)
H42_2 H 0.8386 0.5854 0.6549
C73_2 C 0.0363(5) 0.8995(4) 0.5535(2)
H43_2 H 0.0018 0.8749 0.5736
N2_2 N 0.2192(4) 0.6646(4) 0.26938(16)
N4_2 N 0.0803(4) 0.4877(3) 0.45062(19)
N6_2 N 0.5523(4) 0.6615(4) 0.72788(17)
O1_2 O 0.4692(4) 0.7979(3) 0.50284(16)
O4_2 O 0.2870(3) 0.8354(2) 0.47535(14)
O5_2 O 0.1537(3) 0.8912(2) 0.46374(13)
O6_2 O 0.3292(4) 0.1944(3) 0.54416(17)
O8_2 O 0.4544(3) 0.9387(3) 0.56321(13)
O9_2 O 0.3781(4) 0.9669(3) 0.61985(14)
O11_2 O 0.2813(3) 0.5789(3) 0.89576(13)
O12_2 O 0.1197(3) 0.8968(3) 0.55560(16)
O14_2 O 0.2804(2) 0.9653(2) 0.53312(11)
O15_2 O 0.5685(2) 0.9471(2) 0.49493(11)
O16_2 O 0.5744(3) 0.8581(3) 0.37354(14)
O17_2 O 0.4800(3) 0.8929(2) 0.42229(12)
Eu3_2 Eu 0.64471(2) 0.933523(17) 0.431095(9)
O20_2 O 0.6708(4) 0.8056(3) 0.45584(17)
O22_2 O 0.7599(3) 0.8871(2) 0.48884(12)
O26_2 O 0.7813(3) 0.9211(3) 0.39576(13)
H44_2 H 0.465177 0.767102 0.476817
H45_2 H 0.534518 0.802671 0.511966
C20_2 C 0.9477(5) 0.6587(4) 0.3177(2)
C21_2 C 0.8865(6) 0.6012(5) 0.3088(3)
H11_2 H 0.9039 0.5605 0.2924
C22_2 C 0.7993(7) 0.6057(6) 0.3247(3)
H12_2 H 0.7585 0.5672 0.3178
C23_2 C 0.8280(6) 0.7133(6) 0.3570(3)
H13_2 H 0.8101 0.7532 0.3739
C24_2 C 0.9155(5) 0.7144(5) 0.3423(2)
H14_2 H 0.9539 0.7544 0.3493
H17_2 H 0.9615 0.6863 0.4372
C33_2 C 0.9378(5) 0.5389(4) 0.4270(2)
H19_2 H 0.9028 0.5807 0.4198
C34_2 C 0.9006(5) 0.4677(4) 0.4241(3)
C35_2 C 0.9553(5) 0.4081(4) 0.4350(3)
H20_2 H 0.9316 0.3597 0.4336
C44_2 C 0.8006(9) 0.4575(8) 0.4117(6)
C45_2 C 0.7331(8) 0.5062(7) 0.4217(6)
H25_2 H 0.7466 0.5480 0.4381
C46_2 C 0.6446(9) 0.4940(7) 0.4076(6)
H26_2 H 0.5990 0.5253 0.4178
C47_2 C 0.6870(8) 0.3975(7) 0.3635(6)
H27_2 H 0.6750 0.3675 0.3402
C48_2 C 0.7778(8) 0.4001(7) 0.3832(6)
H28_2 H 0.8209 0.3635 0.3769
N1_2 N 0.7680(5) 0.6613(5) 0.3495(3)
N3_2 N 0.6196(7) 0.4412(6) 0.3807(5)
O13_2 O 0.9949(3) 0.9359(2) 0.52363(13)
Eu9_2 Eu 0.858308(18) 0.996760(16) 0.499584(8)
C51_3 C 0.0428(5) 0.6811(4) 0.1057(2)
H29_3 H 0.0667 0.6665 0.0800
C52_3 C 0.0844(6) 0.7388(5) 0.1286(2)
H30_3 H 0.1356 0.7630 0.1180
C53_3 C 0.0496(5) 0.7604(4) 0.1675(2)
C56_3 C 0.0993(6) 0.8151(4) 0.1952(2)
C57_3 C 0.1914(5) 0.8331(5) 0.1906(2)
H33_3 H 0.2234 0.8152 0.1675
C58_3 C 0.2356(5) 0.8776(5) 0.2203(2)
C59_3 C 0.1865(5) 0.9014(5) 0.2539(2)
H34_3 H 0.2146 0.9307 0.2747
C60_3 C 0.0946(5) 0.8821(4) 0.2573(2)
C61_3 C 0.0364(5) 0.9017(4) 0.2943(2)
C62_3 C 0.0750(5) 0.9204(4) 0.3330(2)
H35_3 H 0.1383 0.9266 0.3359
C63_3 C 0.0201(4) 0.9299(4) 0.3670(2)
H36_3 H 0.0467 0.9413 0.3931
C68_3 C 0.3347(6) 0.8944(6) 0.2170(3)
C69_3 C 0.3915(7) 0.8915(6) 0.2513(4)
H39_3 H 0.3679 0.8808 0.2777
C70_3 C 0.4853(8) 0.9047(8) 0.2468(5)
H40_2 H 0.5234 0.9022 0.2705
C71_3 C 0.4684(9) 0.9260(10) 0.1784(5)
H41_3 H 0.4937 0.9402 0.1529
C72_3 C 0.3742(8) 0.9120(8) 0.1794(4)
H42_3 H 0.3386 0.9146 0.1549
N5_2 N 0.5216(7) 0.9205(7) 0.2105(4)
N6_3 N 0.0523(4) 0.8385(4) 0.22788(17)
H45_3 H 0.0345184 0.697329 0.0119664
O16_3 O 0.0744(3) 0.6419(3) 0.87354(14)
C41_3 C 0.7364(6) 0.1853(4) 0.0042(3)
H23_3 H 0.7848 0.1737 0.0225
C43_3 C 0.7618(4) 0.3196(4) 0.0182(2)
H8_3 H 0.6006 0.0044 0.6296
C34_3 C 0.4006(5) 0.0323(4) 0.9241(3)
C35_3 C 0.4553(5) 0.0919(4) 0.9350(3)
H20_3 H 0.4316 0.1403 0.9336
C36_3 C 0.5451(5) 0.0812(4) 0.9482(2)
C37_3 C 0.6052(6) 0.1422(4) 0.9620(3)
C38_3 C 0.5859(6) 0.2140(4) 0.9566(3)
H21_3 H 0.5337 0.2267 0.9409
C39_3 C 0.6405(6) 0.2726(4) 0.9735(3)
H22_3 H 0.6241 0.3221 0.9682
C40_3 C 0.7121(6) 0.2587(4) 0.9960(3)
C42_3 C 0.6851(6) 0.1281(4) 0.9837(3)
H24_3 H 0.7067 0.0791 0.9851
C44_3 C 0.3006(9) 0.0425(8) 0.9117(6)
C46_3 C 0.1446(9) 0.0060(7) 0.9076(6)
C47_3 C 0.1870(8) 0.1025(7) 0.8635(6)
H27_3 H 0.1750 0.1325 0.8402
C48_3 C 0.2778(8) 0.0999(7) 0.8832(6)
H28_3 H 0.3209 0.1365 0.8769
N3_3 N 0.1196(7) 0.0588(6) 0.8807(5)
N4_3 N 0.5803(4) 0.0123(3) 0.95062(19)
O3_2 O 0.6837(3) 0.0067(2) 0.55997(12)
C49_3 C 0.9299(5) 0.5763(4) 0.1002(2)
C50_3 C 0.9662(5) 0.6455(4) 0.1211(2)
C54_3 C 0.9691(5) 0.7270(4) 0.1814(2)
H31_3 H 0.9429 0.7435 0.2062
C55_3 C 0.9279(5) 0.6699(5) 0.1590(2)
H32_3 H 0.8747 0.6476 0.1689
C64_3 C 0.9253(5) 0.9228(4) 0.3635(2)
C65_3 C 0.8877(5) 0.9070(5) 0.3247(2)
H37_3 H 0.8241 0.9042 0.3216
C66_3 C 0.9418(5) 0.8954(5) 0.2905(2)
H38_3 H 0.9150 0.8833 0.2646
C67_3 C 0.8663(5) 0.9295(4) 0.40162(19)
C73_3 C 0.5363(5) 0.6005(4) 0.0535(2)
H43_3 H 0.5018 0.6251 0.0736
O1_3 O 0.9692(4) 0.7021(3) 0.00284(16)
O10_2 O 0.9042(3) 0.9417(3) 0.43588(13)
O12_3 O 0.6197(3) 0.6032(3) 0.05560(16)
O25_2 O 0.5958(3) 0.4417(3) 0.06412(13)
C1_3 C 0.9955(4) 0.6429(4) 0.88869(19)
C2_3 C 0.9203(4) 0.6848(4) 0.86708(18)
C3_3 C 0.9375(5) 0.7368(6) 0.8368(2)
H1_3 H 0.9977 0.7458 0.8288
C4_3 C 0.8662(6) 0.7765(6) 0.8177(2)
H2_3 H 0.8797 0.8129 0.7977
C5_3 C 0.7770(5) 0.7633(4) 0.8275(2)
C6_3 C 0.7588(5) 0.7070(4) 0.8572(2)
H3_3 H 0.6986 0.6949 0.8638
C7_3 C 0.8311(5) 0.6699(4) 0.8765(2)
H4_3 H 0.8186 0.6335 0.8965
C8_3 C 0.6993(5) 0.8031(4) 0.8065(2)
C9_3 C 0.6135(5) 0.8067(4) 0.8231(2)
H5_3 H 0.6033 0.7857 0.8494
C10_3 C 0.5409(5) 0.8413(4) 0.8016(2)
C11_3 C 0.5626(5) 0.8752(5) 0.7635(2)
H6_3 H 0.5175 0.9010 0.7484
C12_3 C 0.6512(5) 0.8708(4) 0.74801(19)
C13_3 C 0.6768(5) 0.9024(4) 0.7067(2)
C14_3 C 0.6181(5) 0.9480(4) 0.68368(19)
H7_3 H 0.5623 0.9624 0.6951
C15_3 C 0.6405(4) 0.9726(4) 0.64416(19)
C16_3 C 0.7215(4) 0.9505(4) 0.62582(18)
C17_3 C 0.7837(5) 0.9073(4) 0.6493(2)
H9_3 H 0.8408 0.8950 0.6386
C18_3 C 0.7588(5) 0.8832(5) 0.6886(2)
H10_3 H 0.7992 0.8525 0.7036
C19_3 C 0.7444(4) 0.9735(4) 0.58147(17)
C20_3 C 0.4477(5) 0.8413(4) 0.8177(2)
C21_3 C 0.3865(6) 0.8988(5) 0.8088(3)
H11_3 H 0.4039 0.9395 0.7924
C22_3 C 0.2993(7) 0.8943(6) 0.8247(3)
H12_3 H 0.2585 0.9328 0.8178
C23_3 C 0.3280(6) 0.7867(6) 0.8570(3)
H13_3 H 0.3101 0.7468 0.8739
C24_3 C 0.4155(5) 0.7856(5) 0.8423(2)
H14_3 H 0.4539 0.7456 0.8493
C25_3 C 0.7029(4) 0.6651(3) 0.96630(18)
C26_3 C 0.6575(4) 0.7389(3) 0.9586(2)
C27_3 C 0.7062(5) 0.8049(4) 0.9606(3)
H15_3 H 0.7689 0.8033 0.9667
C28_3 C 0.6647(5) 0.8736(4) 0.9540(3)
H16_3 H 0.6998 0.9172 0.9554
C29_3 C 0.5726(5) 0.8781(3) 0.9454(2)
C30_3 C 0.5243(5) 0.8123(4) 0.9429(3)
H17_3 H 0.4615 0.8137 0.9372
C31_3 C 0.5671(5) 0.7441(4) 0.9485(2)
H18_3 H 0.5328 0.7004 0.9452
C32_3 C 0.5276(5) 0.9532(4) 0.9407(2)
C33_3 C 0.4378(5) 0.9611(4) 0.9270(2)
H19_3 H 0.4028 0.9193 0.9198
C45_3 C 0.2331(8) 0.9938(7) 0.9217(6)
H25_3 H 0.2466 0.9520 0.9381
H26_3 H 0.0990 0.9747 0.9178
N1_3 N 0.2680(5) 0.8387(5) 0.8495(3)
N2_3 N 0.7192(4) 0.8354(4) 0.76938(16)
O2_2 O 0.8223(3) 0.9576(2) 0.56843(12)
O4_3 O 0.7870(3) 0.6646(2) 0.97535(14)
O5_3 O 0.6537(3) 0.6088(2) 0.96374(13)
O17_3 O 0.9800(3) 0.6071(2) 0.92229(12)
O18_2 O 0.6777(3) 0.4576(2) 0.93157(12)
O19_2 O 0.8163(3) 0.5067(2) 0.94003(12)
H44_3 H 0.965177 0.732898 0.976817
C20_4 C 0.0523(5) 0.3413(4) 0.6823(2)
C21_4 C 0.1135(6) 0.3988(5) 0.6912(3)
H11_4 H 0.0961 0.4395 0.7076
C22_4 C 0.2007(7) 0.3943(6) 0.6753(3)
H12_4 H 0.2415 0.4328 0.6822
C23_4 C 0.1720(6) 0.2867(6) 0.6430(3)
H13_4 H 0.1899 0.2468 0.6261
C24_4 C 0.0845(5) 0.2856(5) 0.6577(2)
H14_4 H 0.0461 0.2456 0.6507
H17_4 H 0.0385 0.3137 0.5628
C33_4 C 0.0622(5) 0.4611(4) 0.5730(2)
H19_4 H 0.0972 0.4193 0.5802
C34_4 C 0.0994(5) 0.5323(4) 0.5759(3)
C35_4 C 0.0447(5) 0.5919(4) 0.5650(3)
H20_4 H 0.0684 0.6403 0.5664
C44_4 C 0.1994(9) 0.5425(8) 0.5883(6)
C45_4 C 0.2669(8) 0.4938(7) 0.5783(6)
H25_4 H 0.2534 0.4520 0.5619
C46_4 C 0.3554(9) 0.5060(7) 0.5924(6)
H26_4 H 0.4010 0.4747 0.5822
C47_4 C 0.3130(8) 0.6025(7) 0.6365(6)
H27_4 H 0.3250 0.6325 0.6598
C48_4 C 0.2222(8) 0.5999(7) 0.6168(6)
H28_4 H 0.1791 0.6365 0.6231
N1_4 N 0.2320(5) 0.3387(5) 0.6505(3)
N3_4 N 0.3804(7) 0.5588(6) 0.6193(5)
C1_4 C 0.5045(4) 0.1429(4) 0.61131(19)
C2_4 C 0.5797(4) 0.1848(4) 0.63292(18)
C3_4 C 0.5625(5) 0.2368(6) 0.6632(2)
H1_4 H 0.5023 0.2458 0.6712
C4_4 C 0.6338(6) 0.2765(6) 0.6823(2)
H2_4 H 0.6203 0.3129 0.7023
C5_4 C 0.7230(5) 0.2633(4) 0.6725(2)
C6_4 C 0.7412(5) 0.2070(4) 0.6428(2)
H3_4 H 0.8014 0.1949 0.6362
C7_4 C 0.6689(5) 0.1699(4) 0.6235(2)
H4_4 H 0.6814 0.1335 0.6035
C8_4 C 0.8007(5) 0.3031(4) 0.6935(2)
C9_4 C 0.8865(5) 0.3067(4) 0.6769(2)
H5_4 H 0.8967 0.2857 0.6506
C10_4 C 0.9591(5) 0.3413(4) 0.6984(2)
C11_4 C 0.9374(5) 0.3752(5) 0.7365(2)
H6_4 H 0.9825 0.4010 0.7516
C12_4 C 0.8488(5) 0.3708(4) 0.75199(19)
C13_4 C 0.8232(5) 0.4024(4) 0.7933(2)
C14_4 C 0.8819(5) 0.4480(4) 0.81632(19)
H7_4 H 0.9377 0.4624 0.8049
C15_4 C 0.8595(4) 0.4726(4) 0.85584(19)
H8_4 H 0.8994 0.5044 0.8704
C16_4 C 0.7785(4) 0.4505(4) 0.87418(18)
C17_4 C 0.7163(5) 0.4073(4) 0.8507(2)
H9_4 H 0.6592 0.3950 0.8614
C18_4 C 0.7412(5) 0.3832(5) 0.8114(2)
H10_4 H 0.7008 0.3525 0.7964
C19_4 C 0.7556(4) 0.4735(4) 0.91853(17)
C25_4 C 0.7971(4) 0.1651(3) 0.53370(18)
C26_4 C 0.8425(4) 0.2389(3) 0.5414(2)
C27_4 C 0.7938(5) 0.3049(4) 0.5394(3)
H15_4 H 0.7311 0.3033 0.5333
C28_4 C 0.8353(5) 0.3736(4) 0.5460(3)
H16_4 H 0.8002 0.4172 0.5446
C29_4 C 0.9274(5) 0.3781(3) 0.5546(2)
C30_4 C 0.9757(5) 0.3123(4) 0.5571(3)
C31_4 C 0.9329(5) 0.2441(4) 0.5515(2)
H18_4 H 0.9672 0.2004 0.5548
C32_4 C 0.9724(5) 0.4532(4) 0.5593(2)
C36_4 C 0.9549(5) 0.5812(4) 0.5518(2)
C37_4 C 0.8948(6) 0.6422(4) 0.5380(3)
C38_4 C 0.9141(6) 0.7140(4) 0.5434(3)
H21_4 H 0.9663 0.7267 0.5591
C39_4 C 0.8595(6) 0.7726(4) 0.5265(3)
H22_4 H 0.8759 0.8221 0.5318
C40_4 C 0.7879(6) 0.7587(4) 0.5040(3)
C41_4 C 0.7636(6) 0.6853(4) 0.4958(3)
H23_4 H 0.7152 0.6737 0.4775
C42_4 C 0.8149(6) 0.6281(4) 0.5163(3)
H24_4 H 0.7933 0.5791 0.5149
C43_4 C 0.7382(4) 0.8196(4) 0.4818(2)
C49_4 C 0.5701(5) 0.0763(4) 0.3998(2)
C50_4 C 0.5338(5) 0.1455(4) 0.3789(2)
C51_4 C 0.4572(5) 0.1811(4) 0.3943(2)
H29_4 H 0.4333 0.1665 0.4200
C52_4 C 0.4156(6) 0.2388(5) 0.3714(2)
H30_4 H 0.3644 0.2630 0.3820
C53_4 C 0.4504(5) 0.2604(4) 0.3325(2)
C54_4 C 0.5309(5) 0.2270(4) 0.3186(2)
H31_4 H 0.5571 0.2435 0.2938
C55_4 C 0.5721(5) 0.1699(5) 0.3410(2)
H32_4 H 0.6253 0.1476 0.3311
C56_4 C 0.4007(6) 0.3151(4) 0.3048(2)
C57_4 C 0.3086(5) 0.3331(5) 0.3094(2)
H33_4 H 0.2766 0.3152 0.3325
C58_4 C 0.2644(5) 0.3776(5) 0.2797(2)
C59_4 C 0.3135(5) 0.4014(5) 0.2461(2)
H34_4 H 0.2854 0.4307 0.2253
C60_4 C 0.4054(5) 0.3821(4) 0.2427(2)
C61_4 C 0.4636(5) 0.4017(4) 0.2057(2)
C62_4 C 0.4250(5) 0.4204(4) 0.1670(2)
H35_4 H 0.3617 0.4266 0.1641
C63_4 C 0.4799(4) 0.4299(4) 0.1330(2)
H36_4 H 0.4533 0.4413 0.1069
C64_4 C 0.5747(5) 0.4228(4) 0.1365(2)
C65_4 C 0.6123(5) 0.4070(5) 0.1753(2)
H37_4 H 0.6759 0.4042 0.1784
C66_4 C 0.5582(5) 0.3954(5) 0.2095(2)
H38_4 H 0.5850 0.3833 0.2354
C67_4 C 0.6337(5) 0.4295(4) 0.09838(19)
C68_4 C 0.1653(6) 0.3944(6) 0.2830(3)
C69_4 C 0.1085(7) 0.3915(6) 0.2487(4)
H39_4 H 0.1321 0.3808 0.2223
C70_4 C 0.0147(8) 0.4047(8) 0.2532(5)
C71_4 C 0.0316(9) 0.4260(10) 0.3216(5)
H41_4 H 0.0063 0.4402 0.3471
C72_4 C 0.1258(8) 0.4120(8) 0.3206(4)
H42_4 H 0.1614 0.4146 0.3451
C73_4 C 0.9637(5) 0.1005(4) 0.4465(2)
H43_4 H 0.9982 0.1251 0.4264
N2_4 N 0.7808(4) 0.3354(4) 0.73062(16)
N4_4 N 0.9197(4) 0.5123(3) 0.54938(19)
N6_4 N 0.4477(4) 0.3385(4) 0.27212(17)
O1_4 O 0.5308(4) 0.2021(3) 0.49716(16)
O4_4 O 0.7130(3) 0.1646(2) 0.52465(14)
O5_4 O 0.8463(3) 0.1088(2) 0.53626(13)
O12_4 O 0.8803(3) 0.1032(3) 0.44440(16)
O16_4 O 0.4256(3) 0.1419(3) 0.62646(14)
O17_4 O 0.5200(3) 0.1071(2) 0.57771(12)
H44_4 H 0.534823 0.232898 0.523183
H45_4 H 0.465482 0.197329 0.488034
H40_3 H 0.0234 0.5978 0.7705
N5_3 N 0.0216(7) 0.5795(7) 0.7105(4)
H40_4 H 0.9766 0.4022 0.2295
N5_4 N 0.9784(7) 0.4205(7) 0.2895(4)
loop_
_geom_bond_atom_site_label_1
_geom_bond_atom_site_label_2
_geom_bond_site_symmetry_1
_geom_bond_site_symmetry_2
C1 C2 1_555 1_555
C2 C3 1_555 1_555
C3 H1 1_555 1_555
C4 C3 1_555 1_555
H2 C4 1_555 1_555
C5 C4 1_555 1_555
C6 C5 1_555 1_555
H3 C6 1_555 1_555
C7 C2 1_555 1_555
H4 C7 1_555 1_555
C8 C5 1_555 1_555
C9 C8 1_555 1_555
H5 C9 1_555 1_555
C10 C9 1_555 1_555
C11 C10 1_555 1_555
H6 C11 1_555 1_555
C12 C11 1_555 1_555
C13 C12 1_555 1_555
C14 C13 1_555 1_555
H7 C14 1_555 1_555
C15 C14 1_555 1_555
C16 C15 1_555 1_555
C17 C16 1_555 1_555
H9 C17 1_555 1_555
C18 C13 1_555 1_555
H10 C18 1_555 1_555
C19 C16 1_555 1_555
C20 C10 1_555 1_555
C21 C20 1_555 1_555
H11 C21 1_555 1_555
C22 C21 1_555 1_555
H12 C22 1_555 1_555
C23 H13 1_555 1_555
C24 C20 1_555 1_555
H14 C24 1_555 1_555
C25 C26 1_555 1_555
C26 C27 1_555 1_555
C27 H15 1_555 1_555
C28 C27 1_555 1_555
H16 C28 1_555 1_555
C29 C28 1_555 1_555
C30 C29 1_555 1_555
H17 C30 1_555 1_555
C31 C26 1_555 1_555
H18 C31 1_555 1_555
C32 C29 1_555 1_555
C33 C32 1_555 1_555
H19 C33 1_555 1_555
H25 C45 1_555 1_555
N1 C22 1_555 1_555
N2 C8 1_555 1_555
O2 C19 1_555 1_555
O4 C25 1_555 1_555
O5 C25 1_555 1_555
O17 C1 1_555 1_555
Eu1 O4 1_555 1_555
O19 Eu1 1_555 1_555
Eu8 O2 1_555 1_555
C6 C7 1_555 1_555
C12 N2 1_555 1_555
C17 C18 1_555 1_555
C23 C24 1_555 1_555
C23 N1 1_555 1_555
C30 C31 1_555 1_555
O17 Eu1 1_555 1_555
O27 Eu9 1_555 1_555
C49 C50 1_555 1_555
H31 C54 1_555 1_555
C55 C50 1_555 1_555
H32 C55 1_555 1_555
C65 C64 1_555 1_555
H37 C65 1_555 1_555
H38 C66 1_555 1_555
C67 C64 1_555 1_555
C73 H43 1_555 1_555
O8 C49 1_555 1_555
O9 C49 1_555 1_555
O10 C67 1_555 1_555
O11 C67 1_555 1_555
O12 C73 1_555 1_555
O13 C73 1_555 1_555
O21 Eu2 1_555 1_555
O25 Eu2 1_555 1_555
Eu8 O10 1_555 1_555
Eu11 O8 1_555 1_555
Eu12 O11 1_555 1_555
C54 C55 1_555 1_555
C65 C66 1_555 1_555
O9 Eu11 1_555 1_555
O12 Eu2 1_555 1_555
O13 Eu2 1_555 1_555
O14 Eu2 1_555 1_555
O14 Eu11 1_555 1_555
O21 Eu11 1_555 1_555
O29 Eu11 1_555 1_555
C35 C34 1_555 1_555
H20 C35 1_555 1_555
C36 C35 1_555 1_555
C37 C36 1_555 1_555
C38 C37 1_555 1_555
H21 C38 1_555 1_555
C39 C38 1_555 1_555
H22 C39 1_555 1_555
C40 C39 1_555 1_555
C42 C37 1_555 1_555
H24 C42 1_555 1_555
C44 C34 1_555 1_555
C47 H27 1_555 1_555
C48 C44 1_555 1_555
H28 C48 1_555 1_555
N3 C46 1_555 1_555
Eu4 O3 1_555 1_555
C36 N4 1_555 1_555
C47 C48 1_555 1_555
C47 N3 1_555 1_555
H23 C41 1_555 1_555
O6 C43 1_555 1_555
O21 C43 1_555 1_555
Eu11 O6 1_555 1_555
Eu3 O15 1_555 1_555
O20 Eu3 1_555 1_555
O22 Eu3 1_555 1_555
O23 Eu3 1_555 1_555
O24 Eu3 1_555 1_555
O26 Eu3 1_555 1_555
O28 Eu3 1_555 1_555
O16 Eu3 1_555 1_555
C51 H29 1_555 1_555
C52 C51 1_555 1_555
H30 C52 1_555 1_555
C53 C52 1_555 1_555
C56 C53 1_555 1_555
C57 C56 1_555 1_555
H33 C57 1_555 1_555
C58 C57 1_555 1_555
C59 C58 1_555 1_555
H34 C59 1_555 1_555
C60 C59 1_555 1_555
C61 C60 1_555 1_555
C62 C61 1_555 1_555
H35 C62 1_555 1_555
C63 C62 1_555 1_555
H36 C63 1_555 1_555
C68 C58 1_555 1_555
C69 C68 1_555 1_555
H39 C69 1_555 1_555
C70 C69 1_555 1_555
H40 C70 1_555 1_555
C71 H41 1_555 1_555
C72 C68 1_555 1_555
H42 C72 1_555 1_555
N5 C70 1_555 1_555
N6 C56 1_555 1_555
C60 N6 1_555 1_555
C71 C72 1_555 1_555
C71 N5 1_555 1_555
O21_2 Eu8 1_555 1_555
O27_2 Eu8 1_555 1_555
O21_2 Eu12 1_555 1_555
O23_2 Eu5_2 1_555 1_555
O28_2 Eu5_2 1_555 1_555
O29_2 Eu5_2 1_555 1_555
O29_2 Eu12 1_555 1_555
C1_2 C2_2 1_555 1_555
C2_2 C3_2 1_555 1_555
C3_2 H1_2 1_555 1_555
C4_2 C3_2 1_555 1_555
H2_2 C4_2 1_555 1_555
C5_2 C4_2 1_555 1_555
C6_2 C5_2 1_555 1_555
H3_2 C6_2 1_555 1_555
C7_2 C2_2 1_555 1_555
H4_2 C7_2 1_555 1_555
C8_2 C5_2 1_555 1_555
C9_2 C8_2 1_555 1_555
H5_2 C9_2 1_555 1_555
C10_2 C9_2 1_555 1_555
C11_2 C10_2 1_555 1_555
H6_2 C11_2 1_555 1_555
C12_2 C11_2 1_555 1_555
C13_2 C12_2 1_555 1_555
C14_2 C13_2 1_555 1_555
H7_2 C14_2 1_555 1_555
C15_2 C14_2 1_555 1_555
H8_2 C15_2 1_555 1_555
C16_2 C15_2 1_555 1_555
C17_2 C16_2 1_555 1_555
H9_2 C17_2 1_555 1_555
C18_2 C13_2 1_555 1_555
H10_2 C18_2 1_555 1_555
C19_2 C16_2 1_555 1_555
C25_2 C26_2 1_555 1_555
C26_2 C27_2 1_555 1_555
C27_2 H15_2 1_555 1_555
C28_2 C27_2 1_555 1_555
H16_2 C28_2 1_555 1_555
C29_2 C28_2 1_555 1_555
C30_2 C29_2 1_555 1_555
C31_2 C26_2 1_555 1_555
H18_2 C31_2 1_555 1_555
C32_2 C29_2 1_555 1_555
C37_2 C36_2 1_555 1_555
C38_2 C37_2 1_555 1_555
H21_2 C38_2 1_555 1_555
C39_2 C38_2 1_555 1_555
H22_2 C39_2 1_555 1_555
C40_2 C39_2 1_555 1_555
C41_2 C40_2 1_555 1_555
H23_2 C41_2 1_555 1_555
C42_2 C37_2 1_555 1_555
H24_2 C42_2 1_555 1_555
C43_2 C40_2 1_555 1_555
C49_2 C50_2 1_555 1_555
C50_2 C51_2 1_555 1_555
C51_2 H29_2 1_555 1_555
C52_2 C51_2 1_555 1_555
H30_2 C52_2 1_555 1_555
C53_2 C52_2 1_555 1_555
C54_2 C53_2 1_555 1_555
H31_2 C54_2 1_555 1_555
C55_2 C50_2 1_555 1_555
H32_2 C55_2 1_555 1_555
C56_2 C53_2 1_555 1_555
C57_2 C56_2 1_555 1_555
H33_2 C57_2 1_555 1_555
C58_2 C57_2 1_555 1_555
C59_2 C58_2 1_555 1_555
H34_2 C59_2 1_555 1_555
C60_2 C59_2 1_555 1_555
C61_2 C60_2 1_555 1_555
C62_2 C61_2 1_555 1_555
H35_2 C62_2 1_555 1_555
C63_2 C62_2 1_555 1_555
H36_2 C63_2 1_555 1_555
C64_2 C63_2 1_555 1_555
C65_2 C64_2 1_555 1_555
H37_2 C65_2 1_555 1_555
C66_2 C61_2 1_555 1_555
H38_2 C66_2 1_555 1_555
C67_2 C64_2 1_555 1_555
C68_2 C58_2 1_555 1_555
C69_2 C68_2 1_555 1_555
H39_2 C69_2 1_555 1_555
C70_2 C69_2 1_555 1_555
C71_2 H41_2 1_555 1_555
C72_2 C68_2 1_555 1_555
H42_2 C72_2 1_555 1_555
C73_2 H43_2 1_555 1_555
N2_2 C8_2 1_555 1_555
N4_2 C32_2 1_555 1_555
N6_2 C56_2 1_555 1_555
O1_2 Eu4 1_555 1_555
O18 C19_2 1_555 1_555
O19 C19_2 1_555 1_555
O4_2 C25_2 1_555 1_555
O5_2 C25_2 1_555 1_555
O6_2 C43_2 1_555 1_555
O21_2 C43_2 1_555 1_555
O8_2 C49_2 1_555 1_555
O9_2 C49_2 1_555 1_555
O25 C67_2 1_555 1_555
O11_2 C67_2 1_555 1_555
O12_2 C73_2 1_555 1_555
O14_2 Eu4 1_555 1_555
O15_2 Eu4 1_555 1_555
O16_2 C1_2 1_555 1_555
O17_2 C1_2 1_555 1_555
Eu4 O4_2 1_555 1_555
Eu3_2 O15_2 1_555 1_555
O20_2 Eu3_2 1_555 1_555
O22_2 Eu3_2 1_555 1_555
O26_2 Eu3_2 1_555 1_555
Eu12 O6_2 1_555 1_555
Eu11 O11_2 1_555 1_555
C6_2 C7_2 1_555 1_555
C12_2 N2_2 1_555 1_555
C17_2 C18_2 1_555 1_555
C30_2 C31_2 1_555 1_555
C36_2 N4_2 1_555 1_555
C41_2 C42_2 1_555 1_555
C54_2 C55_2 1_555 1_555
C60_2 N6_2 1_555 1_555
C65_2 C66_2 1_555 1_555
C71_2 C72_2 1_555 1_555
O8_2 Eu4 1_555 1_555
O16_2 Eu3_2 1_555 1_555
O17_2 Eu4 1_555 1_555
O17_2 Eu3_2 1_555 1_555
O1_2 H44_2 1_555 1_555
O1_2 H45_2 1_555 1_555
C21_2 C20_2 1_555 1_555
H11_2 C21_2 1_555 1_555
C22_2 C21_2 1_555 1_555
H12_2 C22_2 1_555 1_555
C23_2 H13_2 1_555 1_555
C24_2 C20_2 1_555 1_555
H14_2 C24_2 1_555 1_555
H19_2 C33_2 1_555 1_555
C34_2 C33_2 1_555 1_555
C35_2 C34_2 1_555 1_555
H20_2 C35_2 1_555 1_555
C44_2 C34_2 1_555 1_555
C45_2 C44_2 1_555 1_555
H25_2 C45_2 1_555 1_555
C46_2 C45_2 1_555 1_555
H26_2 C46_2 1_555 1_555
C47_2 H27_2 1_555 1_555
C48_2 C44_2 1_555 1_555
H28_2 C48_2 1_555 1_555
N1_2 C22_2 1_555 1_555
N3_2 C46_2 1_555 1_555
Eu9_2 O13_2 1_555 1_555
C23_2 C24_2 1_555 1_555
C23_2 N1_2 1_555 1_555
C47_2 C48_2 1_555 1_555
C47_2 N3_2 1_555 1_555
C51_3 H29_3 1_555 1_555
C52_3 C51_3 1_555 1_555
H30_3 C52_3 1_555 1_555
C53_3 C52_3 1_555 1_555
C56_3 C53_3 1_555 1_555
C57_3 C56_3 1_555 1_555
H33_3 C57_3 1_555 1_555
C58_3 C57_3 1_555 1_555
C59_3 C58_3 1_555 1_555
H34_3 C59_3 1_555 1_555
C60_3 C59_3 1_555 1_555
C61_3 C60_3 1_555 1_555
C62_3 C61_3 1_555 1_555
H35_3 C62_3 1_555 1_555
C63_3 C62_3 1_555 1_555
H36_3 C63_3 1_555 1_555
C68_3 C58_3 1_555 1_555
C69_3 C68_3 1_555 1_555
H39_3 C69_3 1_555 1_555
C70_3 C69_3 1_555 1_555
H40_2 C70_3 1_555 1_555
C71_3 H41_3 1_555 1_555
C72_3 C68_3 1_555 1_555
H42_3 C72_3 1_555 1_555
N5_2 C70_3 1_555 1_555
N6_3 C56_3 1_555 1_555
C60_3 N6_3 1_555 1_555
C71_3 C72_3 1_555 1_555
C71_3 N5_2 1_555 1_555
O16_3 Eu11 1_555 1_555
H23_3 C41_3 1_555 1_555
O20 C43_3 1_555 1_555
O22 C43_3 1_555 1_555
Eu9 O22 1_555 1_555
C35_3 C34_3 1_555 1_555
H20_3 C35_3 1_555 1_555
C36_3 C35_3 1_555 1_555
C37_3 C36_3 1_555 1_555
C38_3 C37_3 1_555 1_555
H21_3 C38_3 1_555 1_555
C39_3 C38_3 1_555 1_555
H22_3 C39_3 1_555 1_555
C40_3 C39_3 1_555 1_555
C42_3 C37_3 1_555 1_555
H24_3 C42_3 1_555 1_555
C44_3 C34_3 1_555 1_555
C47_3 H27_3 1_555 1_555
C48_3 C44_3 1_555 1_555
H28_3 C48_3 1_555 1_555
N3_3 C46_3 1_555 1_555
Eu5_2 O3_2 1_555 1_555
C36_3 N4_3 1_555 1_555
C47_3 C48_3 1_555 1_555
C47_3 N3_3 1_555 1_555
C49_3 C50_3 1_555 1_555
H31_3 C54_3 1_555 1_555
C55_3 C50_3 1_555 1_555
H32_3 C55_3 1_555 1_555
C65_3 C64_3 1_555 1_555
H37_3 C65_3 1_555 1_555
H38_3 C66_3 1_555 1_555
C67_3 C64_3 1_555 1_555
C73_3 H43_3 1_555 1_555
O23 C49_3 1_555 1_555
O24 C49_3 1_555 1_555
O10_2 C67_3 1_555 1_555
O26_2 C67_3 1_555 1_555
O12_3 C73_3 1_555 1_555
O27 C73_3 1_555 1_555
O25_2 Eu9 1_555 1_555
Eu9_2 O10_2 1_555 1_555
C54_3 C55_3 1_555 1_555
C65_3 C66_3 1_555 1_555
O12_3 Eu9 1_555 1_555
O28 Eu9 1_555 1_555
C1_3 C2_3 1_555 1_555
C2_3 C3_3 1_555 1_555
C3_3 H1_3 1_555 1_555
C4_3 C3_3 1_555 1_555
H2_3 C4_3 1_555 1_555
C5_3 C4_3 1_555 1_555
C6_3 C5_3 1_555 1_555
H3_3 C6_3 1_555 1_555
C7_3 C2_3 1_555 1_555
H4_3 C7_3 1_555 1_555
C8_3 C5_3 1_555 1_555
C9_3 C8_3 1_555 1_555
H5_3 C9_3 1_555 1_555
C10_3 C9_3 1_555 1_555
C11_3 C10_3 1_555 1_555
H6_3 C11_3 1_555 1_555
C12_3 C11_3 1_555 1_555
C13_3 C12_3 1_555 1_555
C14_3 C13_3 1_555 1_555
H7_3 C14_3 1_555 1_555
C15_3 C14_3 1_555 1_555
C16_3 C15_3 1_555 1_555
C17_3 C16_3 1_555 1_555
H9_3 C17_3 1_555 1_555
C18_3 C13_3 1_555 1_555
H10_3 C18_3 1_555 1_555
C19_3 C16_3 1_555 1_555
C20_3 C10_3 1_555 1_555
C21_3 C20_3 1_555 1_555
H11_3 C21_3 1_555 1_555
C22_3 C21_3 1_555 1_555
H12_3 C22_3 1_555 1_555
C23_3 H13_3 1_555 1_555
C24_3 C20_3 1_555 1_555
H14_3 C24_3 1_555 1_555
C25_3 C26_3 1_555 1_555
C26_3 C27_3 1_555 1_555
C27_3 H15_3 1_555 1_555
C28_3 C27_3 1_555 1_555
H16_3 C28_3 1_555 1_555
C29_3 C28_3 1_555 1_555
C30_3 C29_3 1_555 1_555
H17_3 C30_3 1_555 1_555
C31_3 C26_3 1_555 1_555
H18_3 C31_3 1_555 1_555
C32_3 C29_3 1_555 1_555
C33_3 C32_3 1_555 1_555
H19_3 C33_3 1_555 1_555
H25_3 C45_3 1_555 1_555
N1_3 C22_3 1_555 1_555
N2_3 C8_3 1_555 1_555
O2_2 C19_3 1_555 1_555
O4_3 C25_3 1_555 1_555
O5_3 C25_3 1_555 1_555
O17_3 C1_3 1_555 1_555
Eu5 O4_3 1_555 1_555
O19_2 Eu5 1_555 1_555
Eu9_2 O2_2 1_555 1_555
C6_3 C7_3 1_555 1_555
C12_3 N2_3 1_555 1_555
C17_3 C18_3 1_555 1_555
C23_3 C24_3 1_555 1_555
C23_3 N1_3 1_555 1_555
C30_3 C31_3 1_555 1_555
O17_3 Eu5 1_555 1_555
C21_4 C20_4 1_555 1_555
H11_4 C21_4 1_555 1_555
C22_4 C21_4 1_555 1_555
H12_4 C22_4 1_555 1_555
C23_4 H13_4 1_555 1_555
C24_4 C20_4 1_555 1_555
H14_4 C24_4 1_555 1_555
H19_4 C33_4 1_555 1_555
C34_4 C33_4 1_555 1_555
C35_4 C34_4 1_555 1_555
H20_4 C35_4 1_555 1_555
C44_4 C34_4 1_555 1_555
C45_4 C44_4 1_555 1_555
H25_4 C45_4 1_555 1_555
C46_4 C45_4 1_555 1_555
H26_4 C46_4 1_555 1_555
C47_4 H27_4 1_555 1_555
C48_4 C44_4 1_555 1_555
H28_4 C48_4 1_555 1_555
N1_4 C22_4 1_555 1_555
N3_4 C46_4 1_555 1_555
C23_4 C24_4 1_555 1_555
C23_4 N1_4 1_555 1_555
C47_4 C48_4 1_555 1_555
C47_4 N3_4 1_555 1_555
C1_4 C2_4 1_555 1_555
C2_4 C3_4 1_555 1_555
C3_4 H1_4 1_555 1_555
C4_4 C3_4 1_555 1_555
H2_4 C4_4 1_555 1_555
C5_4 C4_4 1_555 1_555
C6_4 C5_4 1_555 1_555
H3_4 C6_4 1_555 1_555
C7_4 C2_4 1_555 1_555
H4_4 C7_4 1_555 1_555
C8_4 C5_4 1_555 1_555
C9_4 C8_4 1_555 1_555
H5_4 C9_4 1_555 1_555
C10_4 C9_4 1_555 1_555
C11_4 C10_4 1_555 1_555
H6_4 C11_4 1_555 1_555
C12_4 C11_4 1_555 1_555
C13_4 C12_4 1_555 1_555
C14_4 C13_4 1_555 1_555
H7_4 C14_4 1_555 1_555
C15_4 C14_4 1_555 1_555
H8_4 C15_4 1_555 1_555
C16_4 C15_4 1_555 1_555
C17_4 C16_4 1_555 1_555
H9_4 C17_4 1_555 1_555
C18_4 C13_4 1_555 1_555
H10_4 C18_4 1_555 1_555
C19_4 C16_4 1_555 1_555
C25_4 C26_4 1_555 1_555
C26_4 C27_4 1_555 1_555
C27_4 H15_4 1_555 1_555
C28_4 C27_4 1_555 1_555
H16_4 C28_4 1_555 1_555
C29_4 C28_4 1_555 1_555
C30_4 C29_4 1_555 1_555
C31_4 C26_4 1_555 1_555
H18_4 C31_4 1_555 1_555
C32_4 C29_4 1_555 1_555
C37_4 C36_4 1_555 1_555
C38_4 C37_4 1_555 1_555
H21_4 C38_4 1_555 1_555
C39_4 C38_4 1_555 1_555
H22_4 C39_4 1_555 1_555
C40_4 C39_4 1_555 1_555
C41_4 C40_4 1_555 1_555
H23_4 C41_4 1_555 1_555
C42_4 C37_4 1_555 1_555
H24_4 C42_4 1_555 1_555
C43_4 C40_4 1_555 1_555
C49_4 C50_4 1_555 1_555
C50_4 C51_4 1_555 1_555
C51_4 H29_4 1_555 1_555
C52_4 C51_4 1_555 1_555
H30_4 C52_4 1_555 1_555
C53_4 C52_4 1_555 1_555
C54_4 C53_4 1_555 1_555
H31_4 C54_4 1_555 1_555
C55_4 C50_4 1_555 1_555
H32_4 C55_4 1_555 1_555
C56_4 C53_4 1_555 1_555
C57_4 C56_4 1_555 1_555
H33_4 C57_4 1_555 1_555
C58_4 C57_4 1_555 1_555
C59_4 C58_4 1_555 1_555
H34_4 C59_4 1_555 1_555
C60_4 C59_4 1_555 1_555
C61_4 C60_4 1_555 1_555
C62_4 C61_4 1_555 1_555
H35_4 C62_4 1_555 1_555
C63_4 C62_4 1_555 1_555
H36_4 C63_4 1_555 1_555
C64_4 C63_4 1_555 1_555
C65_4 C64_4 1_555 1_555
H37_4 C65_4 1_555 1_555
C66_4 C61_4 1_555 1_555
H38_4 C66_4 1_555 1_555
C67_4 C64_4 1_555 1_555
C68_4 C58_4 1_555 1_555
C69_4 C68_4 1_555 1_555
H39_4 C69_4 1_555 1_555
C70_4 C69_4 1_555 1_555
C71_4 H41_4 1_555 1_555
C72_4 C68_4 1_555 1_555
H42_4 C72_4 1_555 1_555
C73_4 H43_4 1_555 1_555
N2_4 C8_4 1_555 1_555
N4_4 C32_4 1_555 1_555
N6_4 C56_4 1_555 1_555
O1_4 Eu5_2 1_555 1_555
O18_2 C19_4 1_555 1_555
O19_2 C19_4 1_555 1_555
O4_4 C25_4 1_555 1_555
O5_4 C25_4 1_555 1_555
O20_2 C43_4 1_555 1_555
O22_2 C43_4 1_555 1_555
O23_2 C49_4 1_555 1_555
O24_2 C49_4 1_555 1_555
O25_2 C67_4 1_555 1_555
O26 C67_4 1_555 1_555
O12_4 C73_4 1_555 1_555
O16_4 C1_4 1_555 1_555
O17_4 C1_4 1_555 1_555
Eu5_2 O4_4 1_555 1_555
Eu9_2 O22_2 1_555 1_555
C6_4 C7_4 1_555 1_555
C12_4 N2_4 1_555 1_555
C17_4 C18_4 1_555 1_555
C30_4 C31_4 1_555 1_555
C36_4 N4_4 1_555 1_555
C41_4 C42_4 1_555 1_555
C54_4 C55_4 1_555 1_555
C60_4 N6_4 1_555 1_555
C65_4 C66_4 1_555 1_555
C71_4 C72_4 1_555 1_555
O16_4 Eu12 1_555 1_555
O17_4 Eu5_2 1_555 1_555
O17_4 Eu12 1_555 1_555
O1_4 H44_4 1_555 1_555
O1_4 H45_4 1_555 1_555

#END
