
###############################################################################
#
# This file contains modified crystal structure data generated from the
# MOF subset of the Cambridge Structural Database (CSD) v543 
# hosted by the Cambridge Crystallographic Data Centre (CCDC).
#
# This work is licensed under the Creative Commons
# Attribution-NonCommercial-ShareAlike 4.0 International License.
# To view a copy of this license, visit
# http://creativecommons.org/licenses/by-nc-sa/4.0/
# or send a letter to
# Creative Commons, PO Box 1866, Mountain View, CA 94042, USA.
#
# CIF created using the CSD Python API on 29 September 2022
# The structure has been converted into the P1 space group
# The structure has a 3D framework
# The original CSD entry LORZOK is in the tetragonal crystal system
# The framework has been calculated to contain at least 10.0% void space
# The void calculation uses a probe of radius 1.32A, grid spacing 0.4
# The framework is charged, counterions have been retained in the structure
#
###############################################################################

data_LORZOK
_chemical_formula_moiety         '(C192 H128 N24 O50 Zn7 4+)n'
_symmetry_cell_setting           triclinic
_symmetry_space_group_name_H-M   'P 1'
_symmetry_Int_Tables_number      1
_space_group_name_Hall           'P 1'
loop_
_symmetry_equiv_pos_site_id
_symmetry_equiv_pos_as_xyz
1 x,y,z
_cell_length_a                   32.6797(2)
_cell_length_b                   32.6797(2)
_cell_length_c                   13.5625(2)
_cell_angle_alpha                90
_cell_angle_beta                 90
_cell_angle_gamma                90
_cell_volume                     14484.2
loop_
_atom_site_label
_atom_site_type_symbol
_atom_site_fract_x
_atom_site_fract_y
_atom_site_fract_z
Zn3 Zn 0.000000 0.500000 0.250000
C8 C 0.66844(16) 0.5260(2) 0.9715(4)
H5 H 0.642873 0.514718 0.958425
C9 C 0.69585(16) 0.5310(2) 0.8968(4)
H6 H 0.688541 0.523561 0.832939
C10 C 0.73406(13) 0.54677(14) 0.9142(3)
O3 O 0.95923(11) 0.51422(11) 0.3534(3)
O4 O 0.91369(13) 0.47002(15) 0.3053(3)
N2 N 0.82212(11) 0.53702(11) 0.6874(3)
C13 C 0.92660(12) 0.49593(13) 0.3629(3)
C14 C 0.90001(12) 0.50649(12) 0.4511(3)
C15 C 0.91473(14) 0.52873(15) 0.5298(3)
H9 H 0.941916 0.537148 0.529830
C16 C 0.88989(14) 0.53876(16) 0.6085(3)
H10 H 0.900285 0.553202 0.662054
C17 C 0.84964(13) 0.52703(14) 0.6063(3)
C18 C 0.83411(14) 0.50365(18) 0.5297(3)
H11 H 0.806944 0.495174 0.530111
C19 C 0.85982(14) 0.49315(15) 0.4526(3)
H12 H 0.850000 0.476997 0.401322
C20 C 0.83156(16) 0.5260(2) 0.7785(4)
H13 H 0.857127 0.514718 0.791575
C21 C 0.80415(16) 0.5310(2) 0.8532(4)
H14 H 0.811459 0.523561 0.917061
C22 C 0.76594(13) 0.54677(14) 0.8358(3)
C23 C 0.75755(16) 0.5599(2) 0.7405(4)
H15 H 0.732540 0.572129 0.726233
C24 C 0.78586(17) 0.5549(2) 0.6683(4)
H16 H 0.780158 0.564023 0.604736
C32 C 0.33156(16) 0.4740(2) 0.9715(4)
H21 H 0.357127 0.485282 0.958425
C33 C 0.30415(16) 0.4690(2) 0.8968(4)
H22 H 0.311459 0.476439 0.832939
C34 C 0.26594(13) 0.45323(14) 0.9142(3)
O7 O 0.04077(11) 0.48578(11) 0.3534(3)
O8 O 0.08631(13) 0.52998(15) 0.3053(3)
N4 N 0.17788(11) 0.46298(11) 0.6874(3)
C37 C 0.07340(12) 0.50407(13) 0.3629(3)
C38 C 0.09999(12) 0.49351(12) 0.4511(3)
C39 C 0.08527(14) 0.47127(15) 0.5298(3)
H25 H 0.058084 0.462852 0.529830
C40 C 0.11011(14) 0.46124(16) 0.6085(3)
H26 H 0.099715 0.446798 0.662054
C41 C 0.15036(13) 0.47297(14) 0.6063(3)
C42 C 0.16589(14) 0.49635(18) 0.5297(3)
H27 H 0.193056 0.504826 0.530111
C43 C 0.14018(14) 0.50685(15) 0.4526(3)
H28 H 0.150000 0.523003 0.401322
C44 C 0.16844(16) 0.4740(2) 0.7785(4)
H29 H 0.142873 0.485282 0.791575
C45 C 0.19585(16) 0.4690(2) 0.8532(4)
H30 H 0.188541 0.476439 0.917061
C46 C 0.23406(13) 0.45323(14) 0.8358(3)
C47 C 0.24245(16) 0.4401(2) 0.7405(4)
H31 H 0.267460 0.427871 0.726233
C48 C 0.21414(17) 0.4451(2) 0.6683(4)
H32 H 0.219842 0.435977 0.604736
Zn3_2 Zn 1.000000 0.500000 0.250000
O10 O 0.01422(11) 0.54077(11) 0.1466(3)
O9 O 0.98578(11) 0.45923(11) 0.1466(3)
O2 O 0.02998(15) 0.41369(13) 0.1947(3)
C1 C 0.00407(13) 0.42660(12) 0.1371(3)
C7 C 0.00685(15) 0.35982(14) 0.0474(3)
H4 H 0.023003 0.350000 0.098678
C26 C 0.00649(12) 0.59999(12) 0.0489(3)
C2 C 0.99351(12) 0.40001(12) 0.0489(3)
O6 O 0.97002(15) 0.58631(13) 0.1947(3)
C25 C 0.99593(13) 0.57340(12) 0.1371(3)
C31 C 0.99315(15) 0.64018(14) 0.0474(3)
H20 H 0.976997 0.650000 0.098678
Zn1 Zn 0.500000 0.500000 0.500000
O1 O 0.54077(11) 0.51422(11) 0.3966(3)
O2_2 O 0.58631(13) 0.47002(15) 0.4447(3)
N1 N 0.67788(11) 0.53702(11) 0.0626(3)
C1_2 C 0.57340(12) 0.49593(13) 0.3871(3)
C2_2 C 0.59999(12) 0.50649(12) 0.2989(3)
C3 C 0.58527(14) 0.52873(15) 0.2202(3)
H1 H 0.558084 0.537148 0.220170
C4 C 0.61011(14) 0.53876(16) 0.1415(3)
H2 H 0.599715 0.553202 0.087946
C5 C 0.65036(13) 0.52703(14) 0.1437(3)
C6 C 0.66589(14) 0.50365(18) 0.2203(3)
H3 H 0.693056 0.495174 0.219889
C7_2 C 0.64018(14) 0.49315(15) 0.2974(3)
H4_2 H 0.650000 0.476997 0.348678
C11 C 0.74245(16) 0.5599(2) 0.0095(4)
H7 H 0.767460 0.572129 0.023767
C12 C 0.71414(17) 0.5549(2) 0.0817(4)
H8 H 0.719842 0.564023 0.145264
O5 O 0.45923(11) 0.48578(11) 0.3966(3)
O6_2 O 0.41369(13) 0.52998(15) 0.4447(3)
N3 N 0.32212(11) 0.46298(11) 0.0626(3)
C25_2 C 0.42660(12) 0.50407(13) 0.3871(3)
C26_2 C 0.40001(12) 0.49351(12) 0.2989(3)
C27 C 0.41473(14) 0.47127(15) 0.2202(3)
H17 H 0.441916 0.462852 0.220170
C28 C 0.38989(14) 0.46124(16) 0.1415(3)
H18 H 0.400285 0.446798 0.087946
C29 C 0.34964(13) 0.47297(14) 0.1437(3)
C30 C 0.33411(14) 0.49635(18) 0.2203(3)
H19 H 0.306944 0.504826 0.219889
C31_2 C 0.35982(14) 0.50685(15) 0.2974(3)
H20_2 H 0.350000 0.523003 0.348678
C35 C 0.25755(16) 0.4401(2) 0.0095(4)
H23 H 0.232540 0.427871 0.023767
C36 C 0.28586(17) 0.4451(2) 0.0817(4)
H24 H 0.280158 0.435977 0.145264
O9_2 O 0.51422(11) 0.45923(11) 0.6034(3)
O10_2 O 0.48578(11) 0.54077(11) 0.6034(3)
O2_3 O 0.47002(15) 0.41369(13) 0.5553(3)
N1_2 N 0.53702(11) 0.32212(11) 0.9374(3)
C1_3 C 0.49593(13) 0.42660(12) 0.6129(3)
C2_3 C 0.50649(12) 0.40001(12) 0.7011(3)
C3_2 C 0.52873(15) 0.41473(14) 0.7798(3)
H1_2 H 0.537148 0.441916 0.779830
C4_2 C 0.53876(16) 0.38989(14) 0.8585(3)
H2_2 H 0.553202 0.400285 0.912054
C5_2 C 0.52703(14) 0.34964(13) 0.8563(3)
C6_2 C 0.50365(18) 0.33411(14) 0.7797(3)
H3_2 H 0.495174 0.306944 0.780111
C7_3 C 0.49315(15) 0.35982(14) 0.7026(3)
H4_3 H 0.476997 0.350000 0.651322
C11_2 C 0.5599(2) 0.25755(16) 0.9905(4)
H7_2 H 0.572129 0.232540 0.976233
C12_2 C 0.5549(2) 0.28586(17) 0.9183(4)
H8_2 H 0.564023 0.280158 0.854736
O6_3 O 0.52998(15) 0.58631(13) 0.5553(3)
N3_2 N 0.46298(11) 0.67788(11) 0.9374(3)
C25_3 C 0.50407(13) 0.57340(12) 0.6129(3)
C26_3 C 0.49351(12) 0.59999(12) 0.7011(3)
C27_2 C 0.47127(15) 0.58527(14) 0.7798(3)
H17_2 H 0.462852 0.558084 0.779830
C28_2 C 0.46124(16) 0.61011(14) 0.8585(3)
H18_2 H 0.446798 0.599715 0.912054
C29_2 C 0.47297(14) 0.65036(13) 0.8563(3)
C30_2 C 0.49635(18) 0.66589(14) 0.7797(3)
H19_2 H 0.504826 0.693056 0.780111
C31_3 C 0.50685(15) 0.64018(14) 0.7026(3)
H20_3 H 0.523003 0.650000 0.651322
C35_2 C 0.4401(2) 0.74245(16) 0.9905(4)
H23_2 H 0.427871 0.767460 0.976233
C36_2 C 0.4451(2) 0.71414(17) 0.9183(4)
H24_2 H 0.435977 0.719842 0.854736
Zn2 Zn 0.500000 -0.000000 0.750000
C8_2 C 0.5260(2) 0.33156(16) 0.0285(4)
H5_2 H 0.514718 0.357127 0.041575
C9_2 C 0.5310(2) 0.30415(16) 0.1032(4)
H6_2 H 0.523561 0.311459 0.167061
C10_2 C 0.54677(14) 0.26594(13) 0.0858(3)
O3_2 O 0.51422(11) 0.04077(11) 0.6466(3)
O4_2 O 0.47002(15) 0.08631(13) 0.6947(3)
N2_2 N 0.53702(11) 0.17788(11) 0.3126(3)
C13_2 C 0.49593(13) 0.07340(12) 0.6371(3)
C14_2 C 0.50649(12) 0.09999(12) 0.5489(3)
C15_2 C 0.52873(15) 0.08527(14) 0.4702(3)
H9_2 H 0.537148 0.058084 0.470170
C16_2 C 0.53876(16) 0.11011(14) 0.3915(3)
H10_2 H 0.553202 0.099715 0.337946
C17_2 C 0.52703(14) 0.15036(13) 0.3937(3)
C18_2 C 0.50365(18) 0.16589(14) 0.4703(3)
H11_2 H 0.495174 0.193056 0.469889
C19_2 C 0.49315(15) 0.14018(14) 0.5474(3)
H12_2 H 0.476997 0.150000 0.598678
C20_2 C 0.5260(2) 0.16844(16) 0.2215(4)
H13_2 H 0.514718 0.142873 0.208425
C21_2 C 0.5310(2) 0.19585(16) 0.1468(4)
H14_2 H 0.523561 0.188541 0.082939
C22_2 C 0.54677(14) 0.23406(13) 0.1642(3)
C23_2 C 0.5599(2) 0.24245(16) 0.2595(4)
H15_2 H 0.572129 0.267460 0.273767
C24_2 C 0.5549(2) 0.21414(17) 0.3317(4)
H16_2 H 0.564023 0.219842 0.395264
C32_2 C 0.4740(2) 0.66844(16) 0.0285(4)
H21_2 H 0.485282 0.642873 0.041575
C33_2 C 0.4690(2) 0.69585(16) 0.1032(4)
H22_2 H 0.476439 0.688541 0.167061
C34_2 C 0.45323(14) 0.73406(13) 0.0858(3)
O7_2 O 0.48578(11) 0.95923(11) 0.6466(3)
O8_2 O 0.52998(15) 0.91369(13) 0.6947(3)
N4_2 N 0.46298(11) 0.82212(11) 0.3126(3)
C37_2 C 0.50407(13) 0.92660(12) 0.6371(3)
C38_2 C 0.49351(12) 0.90001(12) 0.5489(3)
C39_2 C 0.47127(15) 0.91473(14) 0.4702(3)
H25_2 H 0.462852 0.941916 0.470170
C40_2 C 0.46124(16) 0.88989(14) 0.3915(3)
H26_2 H 0.446798 0.900285 0.337946
C41_2 C 0.47297(14) 0.84964(13) 0.3937(3)
C42_2 C 0.49635(18) 0.83411(14) 0.4703(3)
H27_2 H 0.504826 0.806944 0.469889
C43_2 C 0.50685(15) 0.85982(14) 0.5474(3)
H28_2 H 0.523003 0.850000 0.598678
C44_2 C 0.4740(2) 0.83156(16) 0.2215(4)
H29_2 H 0.485282 0.857127 0.208425
C45_2 C 0.4690(2) 0.80415(16) 0.1468(4)
H30_2 H 0.476439 0.811459 0.082939
C46_2 C 0.45323(14) 0.76594(13) 0.1642(3)
C47_2 C 0.4401(2) 0.75755(16) 0.2595(4)
H31_2 H 0.427871 0.732540 0.273767
C48_2 C 0.4451(2) 0.78586(17) 0.3317(4)
H32_2 H 0.435977 0.780158 0.395264
Zn2_2 Zn 0.500000 1.000000 0.750000
O3_3 O 0.45923(11) 0.01422(11) 0.8534(3)
C14_3 C 0.40001(12) 0.00649(12) 0.9511(3)
O4_3 O 0.41369(13) 0.97002(15) 0.8053(3)
C13_3 C 0.42660(12) 0.99593(13) 0.8629(3)
C19_3 C 0.35982(14) 0.99315(15) 0.9526(3)
H12_3 H 0.350000 0.976997 0.901322
O8_3 O 0.58631(13) 0.02998(15) 0.8053(3)
C37_3 C 0.57340(12) 0.00407(13) 0.8629(3)
C43_3 C 0.64018(14) 0.00685(15) 0.9526(3)
H28_3 H 0.650000 0.023003 0.901322
O7_3 O 0.54077(11) 0.98578(11) 0.8534(3)
C38_3 C 0.59999(12) 0.99351(12) 0.9511(3)
Zn2_3 Zn 0.000000 -0.000000 0.000000
H3_3 H 0.004826 0.306944 0.969889
O4_4 O 0.02998(15) 0.08631(13) 0.0553(3)
C13_4 C 0.00407(13) 0.07340(12) 0.1129(3)
H11_3 H 0.004826 0.193056 0.280111
C19_4 C 0.00685(15) 0.14018(14) 0.2026(3)
H12_4 H 0.023003 0.150000 0.151322
N3_3 N 0.03702(11) 0.67788(11) 0.8126(3)
C27_3 C 0.02873(15) 0.58527(14) 0.9702(3)
H17_3 H 0.037148 0.558084 0.970170
C28_3 C 0.03876(16) 0.61011(14) 0.8915(3)
H18_3 H 0.053202 0.599715 0.837946
C29_3 C 0.02703(14) 0.65036(13) 0.8937(3)
C30_3 C 0.00365(18) 0.66589(14) 0.9703(3)
C32_3 C 0.0260(2) 0.66844(16) 0.7215(4)
H21_3 H 0.014718 0.642873 0.708425
C33_3 C 0.0310(2) 0.69585(16) 0.6468(4)
H22_3 H 0.023561 0.688541 0.582939
C34_3 C 0.04677(14) 0.73406(13) 0.6642(3)
C35_3 C 0.0599(2) 0.74245(16) 0.7595(4)
H23_3 H 0.072129 0.767460 0.773767
C36_3 C 0.0549(2) 0.71414(17) 0.8317(4)
H24_3 H 0.064023 0.719842 0.895264
O7_4 O 0.01422(11) 0.95923(11) 0.1034(3)
N4_3 N 0.03702(11) 0.82212(11) 0.4374(3)
C38_4 C 0.00649(12) 0.90001(12) 0.2011(3)
C39_3 C 0.02873(15) 0.91473(14) 0.2798(3)
H25_3 H 0.037148 0.941916 0.279830
C40_3 C 0.03876(16) 0.88989(14) 0.3585(3)
H26_3 H 0.053202 0.900285 0.412054
C41_3 C 0.02703(14) 0.84964(13) 0.3563(3)
C42_3 C 0.00365(18) 0.83411(14) 0.2797(3)
C44_3 C 0.0260(2) 0.83156(16) 0.5285(4)
H29_3 H 0.014718 0.857127 0.541575
C45_3 C 0.0310(2) 0.80415(16) 0.6032(4)
H30_3 H 0.023561 0.811459 0.667061
C46_3 C 0.04677(14) 0.76594(13) 0.5858(3)
C47_3 C 0.0599(2) 0.75755(16) 0.4905(4)
H31_3 H 0.072129 0.732540 0.476233
C48_3 C 0.0549(2) 0.78586(17) 0.4183(4)
H32_3 H 0.064023 0.780158 0.354736
Zn2_4 Zn 0.000000 1.000000 0.000000
Zn2_5 Zn 1.000000 -0.000000 0.000000
N1_3 N 0.96298(11) 0.32212(11) 0.8126(3)
C3_3 C 0.97127(15) 0.41473(14) 0.9702(3)
H1_3 H 0.962852 0.441916 0.970170
C4_3 C 0.96124(16) 0.38989(14) 0.8915(3)
H2_3 H 0.946798 0.400285 0.837946
C5_3 C 0.97297(14) 0.34964(13) 0.8937(3)
C6_3 C 0.99635(18) 0.33411(14) 0.9703(3)
C8_3 C 0.9740(2) 0.33156(16) 0.7215(4)
H5_3 H 0.985282 0.357127 0.708425
C9_3 C 0.9690(2) 0.30415(16) 0.6468(4)
H6_3 H 0.976439 0.311459 0.582939
C10_3 C 0.95323(14) 0.26594(13) 0.6642(3)
C11_3 C 0.9401(2) 0.25755(16) 0.7595(4)
H7_3 H 0.927871 0.232540 0.773767
C12_3 C 0.9451(2) 0.28586(17) 0.8317(4)
H8_3 H 0.935977 0.280158 0.895264
O3_4 O 0.98578(11) 0.04077(11) 0.1034(3)
N2_3 N 0.96298(11) 0.17788(11) 0.4374(3)
C14_4 C 0.99351(12) 0.09999(12) 0.2011(3)
C15_3 C 0.97127(15) 0.08527(14) 0.2798(3)
H9_3 H 0.962852 0.058084 0.279830
C16_3 C 0.96124(16) 0.11011(14) 0.3585(3)
H10_3 H 0.946798 0.099715 0.412054
C17_3 C 0.97297(14) 0.15036(13) 0.3563(3)
C18_3 C 0.99635(18) 0.16589(14) 0.2797(3)
C20_3 C 0.9740(2) 0.16844(16) 0.5285(4)
H13_3 H 0.985282 0.142873 0.541575
C21_3 C 0.9690(2) 0.19585(16) 0.6032(4)
H14_3 H 0.976439 0.188541 0.667061
C22_3 C 0.95323(14) 0.23406(13) 0.5858(3)
C23_3 C 0.9401(2) 0.24245(16) 0.4905(4)
H15_3 H 0.927871 0.267460 0.476233
C24_3 C 0.9451(2) 0.21414(17) 0.4183(4)
H16_3 H 0.935977 0.219842 0.354736
H19_3 H 0.995174 0.693056 0.969889
O8_4 O 0.97002(15) 0.91369(13) 0.0553(3)
C37_4 C 0.99593(13) 0.92660(12) 0.1129(3)
H27_3 H 0.995174 0.806944 0.280111
C43_4 C 0.99315(15) 0.85982(14) 0.2026(3)
H28_4 H 0.976997 0.850000 0.151322
Zn2_6 Zn 1.000000 1.000000 0.000000
Zn2_7 Zn 0.000000 -0.000000 1.000000
Zn2_8 Zn 0.000000 1.000000 1.000000
Zn2_9 Zn 1.000000 -0.000000 1.000000
Zn2_10 Zn 1.000000 1.000000 1.000000
O1_2 O 0.04077(11) 0.01422(11) 0.8966(3)
N1_4 N 0.17788(11) 0.03702(11) 0.5626(3)
C2_4 C 0.09999(12) 0.00649(12) 0.7989(3)
C3_4 C 0.08527(14) 0.02873(15) 0.7202(3)
H1_4 H 0.058084 0.037148 0.720170
C4_4 C 0.11011(14) 0.03876(16) 0.6415(3)
H2_4 H 0.099715 0.053202 0.587946
C5_4 C 0.15036(13) 0.02703(14) 0.6437(3)
C6_4 C 0.16589(14) 0.00365(18) 0.7203(3)
C8_4 C 0.16844(16) 0.0260(2) 0.4715(4)
H5_4 H 0.142873 0.014718 0.458425
C9_4 C 0.19585(16) 0.0310(2) 0.3968(4)
H6_4 H 0.188541 0.023561 0.332939
C10_4 C 0.23406(13) 0.04677(14) 0.4142(3)
C11_4 C 0.24245(16) 0.0599(2) 0.5095(4)
H7_4 H 0.267460 0.072129 0.523767
C12_4 C 0.21414(17) 0.0549(2) 0.5817(4)
H8_4 H 0.219842 0.064023 0.645264
N2_4 N 0.32212(11) 0.03702(11) 0.1874(3)
C15_4 C 0.41473(14) 0.02873(15) 0.0298(3)
H9_4 H 0.441916 0.037148 0.029830
C16_4 C 0.38989(14) 0.03876(16) 0.1085(3)
H10_4 H 0.400285 0.053202 0.162054
C17_4 C 0.34964(13) 0.02703(14) 0.1063(3)
C18_4 C 0.33411(14) 0.00365(18) 0.0297(3)
C20_4 C 0.33156(16) 0.0260(2) 0.2785(4)
H13_4 H 0.357127 0.014718 0.291575
C21_4 C 0.30415(16) 0.0310(2) 0.3532(4)
H14_4 H 0.311459 0.023561 0.417061
C22_4 C 0.26594(13) 0.04677(14) 0.3358(3)
C23_4 C 0.25755(16) 0.0599(2) 0.2405(4)
H15_4 H 0.232540 0.072129 0.226233
C24_4 C 0.28586(17) 0.0549(2) 0.1683(4)
H16_4 H 0.280158 0.064023 0.104736
O2_4 O 0.08631(13) 0.97002(15) 0.9447(3)
C1_4 C 0.07340(12) 0.99593(13) 0.8871(3)
H3_4 H 0.193056 0.995174 0.719889
C7_4 C 0.14018(14) 0.99315(15) 0.7974(3)
H4_4 H 0.150000 0.976997 0.848678
H11_4 H 0.306944 0.995174 0.030111
O6_4 O 0.91369(13) 0.02998(15) 0.9447(3)
C25_4 C 0.92660(12) 0.00407(13) 0.8871(3)
H19_4 H 0.806944 0.004826 0.719889
C31_4 C 0.85982(14) 0.00685(15) 0.7974(3)
H20_4 H 0.850000 0.023003 0.848678
H27_4 H 0.693056 0.004826 0.030111
O5_2 O 0.95923(11) 0.98578(11) 0.8966(3)
N3_4 N 0.82212(11) 0.96298(11) 0.5626(3)
C26_4 C 0.90001(12) 0.99351(12) 0.7989(3)
C27_4 C 0.91473(14) 0.97127(15) 0.7202(3)
H17_4 H 0.941916 0.962852 0.720170
C28_4 C 0.88989(14) 0.96124(16) 0.6415(3)
H18_4 H 0.900285 0.946798 0.587946
C29_4 C 0.84964(13) 0.97297(14) 0.6437(3)
C30_4 C 0.83411(14) 0.99635(18) 0.7203(3)
C32_4 C 0.83156(16) 0.9740(2) 0.4715(4)
H21_4 H 0.857127 0.985282 0.458425
C33_4 C 0.80415(16) 0.9690(2) 0.3968(4)
H22_4 H 0.811459 0.976439 0.332939
C34_4 C 0.76594(13) 0.95323(14) 0.4142(3)
C35_4 C 0.75755(16) 0.9401(2) 0.5095(4)
H23_4 H 0.732540 0.927871 0.523767
C36_4 C 0.78586(17) 0.9451(2) 0.5817(4)
H24_4 H 0.780158 0.935977 0.645264
N4_4 N 0.67788(11) 0.96298(11) 0.1874(3)
C39_4 C 0.58527(14) 0.97127(15) 0.0298(3)
H25_4 H 0.558084 0.962852 0.029830
C40_4 C 0.61011(14) 0.96124(16) 0.1085(3)
H26_4 H 0.599715 0.946798 0.162054
C41_4 C 0.65036(13) 0.97297(14) 0.1063(3)
C42_4 C 0.66589(14) 0.99635(18) 0.0297(3)
C44_4 C 0.66844(16) 0.9740(2) 0.2785(4)
H29_4 H 0.642873 0.985282 0.291575
C45_4 C 0.69585(16) 0.9690(2) 0.3532(4)
H30_4 H 0.688541 0.976439 0.417061
C46_4 C 0.73406(13) 0.95323(14) 0.3358(3)
C47_4 C 0.74245(16) 0.9401(2) 0.2405(4)
H31_4 H 0.767460 0.927871 0.226233
C48_4 C 0.71414(17) 0.9451(2) 0.1683(4)
H32_4 H 0.719842 0.935977 0.104736
O11 O 0.5867(5) 0.7198(4) 0.5863(9)
O12 O 0.5303(6) 0.750000 0.625000
N5 N 0.5698(4) 0.750000 0.625000
O13 O 0.5867(5) 0.7802(4) 0.6637(9)
O11_2 O 0.4133(5) 0.2802(4) 0.5863(9)
O12_2 O 0.4697(6) 0.250000 0.625000
N5_2 N 0.4302(4) 0.250000 0.625000
O13_2 O 0.4133(5) 0.2198(4) 0.6637(9)
O11_3 O 0.7198(4) 0.4133(5) 0.4137(9)
O12_3 O 0.750000 0.4697(6) 0.375000
N5_3 N 0.750000 0.4302(4) 0.375000
O13_3 O 0.7802(4) 0.4133(5) 0.3363(9)
O11_4 O 0.2802(4) 0.5867(5) 0.4137(9)
O12_4 O 0.250000 0.5303(6) 0.375000
N5_4 N 0.250000 0.5698(4) 0.375000
O13_4 O 0.2198(4) 0.5867(5) 0.3363(9)
O11_5 O 0.9133(5) 0.7198(4) 0.1637(9)
O12_5 O 0.9697(6) 0.750000 0.125000
N5_5 N 0.9302(4) 0.750000 0.125000
O13_5 O 0.9133(5) 0.7802(4) 0.0863(9)
O11_6 O 0.0867(5) 0.2802(4) 0.1637(9)
O12_6 O 0.0303(6) 0.250000 0.125000
N5_6 N 0.0698(4) 0.250000 0.125000
O13_6 O 0.0867(5) 0.2198(4) 0.0863(9)
O11_7 O 0.2198(4) 0.9133(5) 0.9137(9)
O12_7 O 0.250000 0.9697(6) 0.875000
N5_7 N 0.250000 0.9302(4) 0.875000
O13_7 O 0.2802(4) 0.9133(5) 0.8363(9)
O11_8 O 0.7802(4) 0.0867(5) 0.9137(9)
O12_8 O 0.750000 0.0303(6) 0.875000
N5_8 N 0.750000 0.0698(4) 0.875000
O13_8 O 0.7198(4) 0.0867(5) 0.8363(9)
loop_
_geom_bond_atom_site_label_1
_geom_bond_atom_site_label_2
_geom_bond_site_symmetry_1
_geom_bond_site_symmetry_2
H5 C8 1_555 1_555
C9 C8 1_555 1_555
H6 C9 1_555 1_555
C10 C9 1_555 1_555
O3 C13 1_555 1_555
O4 C13 1_555 1_555
N2 C17 1_555 1_555
C13 C14 1_555 1_555
C14 C15 1_555 1_555
C15 H9 1_555 1_555
C16 C15 1_555 1_555
H10 C16 1_555 1_555
C17 C16 1_555 1_555
C18 C17 1_555 1_555
H11 C18 1_555 1_555
C19 C14 1_555 1_555
H12 C19 1_555 1_555
C20 N2 1_555 1_555
H13 C20 1_555 1_555
C21 C20 1_555 1_555
H14 C21 1_555 1_555
C22 C10 1_555 1_555
C23 C22 1_555 1_555
H15 C23 1_555 1_555
C24 N2 1_555 1_555
H16 C24 1_555 1_555
H21 C32 1_555 1_555
C33 C32 1_555 1_555
H22 C33 1_555 1_555
C34 C33 1_555 1_555
O7 C37 1_555 1_555
O8 C37 1_555 1_555
N4 C41 1_555 1_555
C37 C38 1_555 1_555
C38 C39 1_555 1_555
C39 H25 1_555 1_555
C40 C39 1_555 1_555
H26 C40 1_555 1_555
C41 C40 1_555 1_555
C42 C41 1_555 1_555
H27 C42 1_555 1_555
C43 C38 1_555 1_555
H28 C43 1_555 1_555
C44 N4 1_555 1_555
H29 C44 1_555 1_555
C45 C44 1_555 1_555
H30 C45 1_555 1_555
C46 C34 1_555 1_555
C47 C46 1_555 1_555
H31 C47 1_555 1_555
C48 N4 1_555 1_555
H32 C48 1_555 1_555
Zn3 O7 1_555 1_555
Zn3_2 O3 1_555 1_555
C18 C19 1_555 1_555
C21 C22 1_555 1_555
C23 C24 1_555 1_555
C42 C43 1_555 1_555
C45 C46 1_555 1_555
C47 C48 1_555 1_555
O10 Zn3 1_555 1_555
O9 Zn3_2 1_555 1_555
O2 C1 1_555 1_555
H4 C7 1_555 1_555
O6 C25 1_555 1_555
H20 C31 1_555 1_555
Zn1 O1 1_555 1_555
O1 C1_2 1_555 1_555
O2_2 C1_2 1_555 1_555
N1 C5 1_555 1_555
C1_2 C2_2 1_555 1_555
C2_2 C3 1_555 1_555
C3 H1 1_555 1_555
C4 C3 1_555 1_555
H2 C4 1_555 1_555
C5 C4 1_555 1_555
C6 C5 1_555 1_555
H3 C6 1_555 1_555
C7_2 C2_2 1_555 1_555
H4_2 C7_2 1_555 1_555
H7 C11 1_555 1_555
C12 N1 1_555 1_555
H8 C12 1_555 1_555
O5 Zn1 1_555 1_555
O6_2 C25_2 1_555 1_555
N3 C29 1_555 1_555
C25_2 O5 1_555 1_555
C26_2 C25_2 1_555 1_555
C27 C26_2 1_555 1_555
H17 C27 1_555 1_555
C28 C27 1_555 1_555
H18 C28 1_555 1_555
C29 C28 1_555 1_555
C30 C29 1_555 1_555
H19 C30 1_555 1_555
C31_2 C26_2 1_555 1_555
H20_2 C31_2 1_555 1_555
H23 C35 1_555 1_555
C36 N3 1_555 1_555
H24 C36 1_555 1_555
O9_2 Zn1 1_555 1_555
O10_2 Zn1 1_555 1_555
C6 C7_2 1_555 1_555
C11 C12 1_555 1_555
C30 C31_2 1_555 1_555
C35 C36 1_555 1_555
O9_2 C1_3 1_555 1_555
O2_3 C1_3 1_555 1_555
N1_2 C5_2 1_555 1_555
C1_3 C2_3 1_555 1_555
C2_3 C3_2 1_555 1_555
C3_2 H1_2 1_555 1_555
C4_2 C3_2 1_555 1_555
H2_2 C4_2 1_555 1_555
C5_2 C4_2 1_555 1_555
C6_2 C5_2 1_555 1_555
H3_2 C6_2 1_555 1_555
C7_3 C2_3 1_555 1_555
H4_3 C7_3 1_555 1_555
H7_2 C11_2 1_555 1_555
C12_2 N1_2 1_555 1_555
H8_2 C12_2 1_555 1_555
O6_3 C25_3 1_555 1_555
N3_2 C29_2 1_555 1_555
C25_3 O10_2 1_555 1_555
C26_3 C25_3 1_555 1_555
C27_2 C26_3 1_555 1_555
H17_2 C27_2 1_555 1_555
C28_2 C27_2 1_555 1_555
H18_2 C28_2 1_555 1_555
C29_2 C28_2 1_555 1_555
C30_2 C29_2 1_555 1_555
H19_2 C30_2 1_555 1_555
C31_3 C26_3 1_555 1_555
H20_3 C31_3 1_555 1_555
H23_2 C35_2 1_555 1_555
C36_2 N3_2 1_555 1_555
H24_2 C36_2 1_555 1_555
C6_2 C7_3 1_555 1_555
C11_2 C12_2 1_555 1_555
C30_2 C31_3 1_555 1_555
C35_2 C36_2 1_555 1_555
H5_2 C8_2 1_555 1_555
C9_2 C8_2 1_555 1_555
H6_2 C9_2 1_555 1_555
C10_2 C9_2 1_555 1_555
O3_2 C13_2 1_555 1_555
O4_2 C13_2 1_555 1_555
N2_2 C17_2 1_555 1_555
C13_2 C14_2 1_555 1_555
C14_2 C15_2 1_555 1_555
C15_2 H9_2 1_555 1_555
C16_2 C15_2 1_555 1_555
H10_2 C16_2 1_555 1_555
C17_2 C16_2 1_555 1_555
C18_2 C17_2 1_555 1_555
H11_2 C18_2 1_555 1_555
C19_2 C14_2 1_555 1_555
H12_2 C19_2 1_555 1_555
C20_2 N2_2 1_555 1_555
H13_2 C20_2 1_555 1_555
C21_2 C20_2 1_555 1_555
H14_2 C21_2 1_555 1_555
C22_2 C10_2 1_555 1_555
C23_2 C22_2 1_555 1_555
H15_2 C23_2 1_555 1_555
C24_2 N2_2 1_555 1_555
H16_2 C24_2 1_555 1_555
H21_2 C32_2 1_555 1_555
C33_2 C32_2 1_555 1_555
H22_2 C33_2 1_555 1_555
C34_2 C33_2 1_555 1_555
O7_2 C37_2 1_555 1_555
O8_2 C37_2 1_555 1_555
N4_2 C41_2 1_555 1_555
C37_2 C38_2 1_555 1_555
C38_2 C39_2 1_555 1_555
C39_2 H25_2 1_555 1_555
C40_2 C39_2 1_555 1_555
H26_2 C40_2 1_555 1_555
C41_2 C40_2 1_555 1_555
C42_2 C41_2 1_555 1_555
H27_2 C42_2 1_555 1_555
C43_2 C38_2 1_555 1_555
H28_2 C43_2 1_555 1_555
C44_2 N4_2 1_555 1_555
H29_2 C44_2 1_555 1_555
C45_2 C44_2 1_555 1_555
H30_2 C45_2 1_555 1_555
C46_2 C34_2 1_555 1_555
C47_2 C46_2 1_555 1_555
H31_2 C47_2 1_555 1_555
C48_2 N4_2 1_555 1_555
H32_2 C48_2 1_555 1_555
Zn2_2 O7_2 1_555 1_555
Zn2 O3_2 1_555 1_555
C18_2 C19_2 1_555 1_555
C21_2 C22_2 1_555 1_555
C23_2 C24_2 1_555 1_555
C42_2 C43_2 1_555 1_555
C45_2 C46_2 1_555 1_555
C47_2 C48_2 1_555 1_555
Zn2 O3_3 1_555 1_555
O4_3 C13_3 1_555 1_555
H12_3 C19_3 1_555 1_555
O8_3 C37_3 1_555 1_555
H28_3 C43_3 1_555 1_555
Zn2_2 O7_3 1_555 1_555
O4_4 C13_4 1_555 1_555
H12_4 C19_4 1_555 1_555
N3_3 C29_3 1_555 1_555
H17_3 C27_3 1_555 1_555
C28_3 C27_3 1_555 1_555
H18_3 C28_3 1_555 1_555
C29_3 C28_3 1_555 1_555
C30_3 C29_3 1_555 1_555
C32_3 N3_3 1_555 1_555
H21_3 C32_3 1_555 1_555
C33_3 C32_3 1_555 1_555
H22_3 C33_3 1_555 1_555
C34_3 C33_3 1_555 1_555
C35_3 C34_3 1_555 1_555
H23_3 C35_3 1_555 1_555
C36_3 N3_3 1_555 1_555
H24_3 C36_3 1_555 1_555
N4_3 C41_3 1_555 1_555
C38_4 C39_3 1_555 1_555
C39_3 H25_3 1_555 1_555
C40_3 C39_3 1_555 1_555
H26_3 C40_3 1_555 1_555
C41_3 C40_3 1_555 1_555
C42_3 C41_3 1_555 1_555
C44_3 N4_3 1_555 1_555
H29_3 C44_3 1_555 1_555
C45_3 C44_3 1_555 1_555
H30_3 C45_3 1_555 1_555
C46_3 C34_3 1_555 1_555
C47_3 C46_3 1_555 1_555
H31_3 C47_3 1_555 1_555
C48_3 N4_3 1_555 1_555
H32_3 C48_3 1_555 1_555
Zn2_4 O7_4 1_555 1_555
C35_3 C36_3 1_555 1_555
C45_3 C46_3 1_555 1_555
C47_3 C48_3 1_555 1_555
N1_3 C5_3 1_555 1_555
C3_3 H1_3 1_555 1_555
C4_3 C3_3 1_555 1_555
H2_3 C4_3 1_555 1_555
C5_3 C4_3 1_555 1_555
C6_3 C5_3 1_555 1_555
C8_3 N1_3 1_555 1_555
H5_3 C8_3 1_555 1_555
C9_3 C8_3 1_555 1_555
H6_3 C9_3 1_555 1_555
C10_3 C9_3 1_555 1_555
C11_3 C10_3 1_555 1_555
H7_3 C11_3 1_555 1_555
C12_3 N1_3 1_555 1_555
H8_3 C12_3 1_555 1_555
N2_3 C17_3 1_555 1_555
C14_4 C15_3 1_555 1_555
C15_3 H9_3 1_555 1_555
C16_3 C15_3 1_555 1_555
H10_3 C16_3 1_555 1_555
C17_3 C16_3 1_555 1_555
C18_3 C17_3 1_555 1_555
C20_3 N2_3 1_555 1_555
H13_3 C20_3 1_555 1_555
C21_3 C20_3 1_555 1_555
H14_3 C21_3 1_555 1_555
C22_3 C10_3 1_555 1_555
C23_3 C22_3 1_555 1_555
H15_3 C23_3 1_555 1_555
C24_3 N2_3 1_555 1_555
H16_3 C24_3 1_555 1_555
O8_4 C37_4 1_555 1_555
H28_4 C43_4 1_555 1_555
Zn2_5 O3_4 1_555 1_555
C11_3 C12_3 1_555 1_555
C21_3 C22_3 1_555 1_555
C23_3 C24_3 1_555 1_555
Zn2_7 O1_2 1_555 1_555
N1_4 C5_4 1_555 1_555
C2_4 C3_4 1_555 1_555
C3_4 H1_4 1_555 1_555
C4_4 C3_4 1_555 1_555
H2_4 C4_4 1_555 1_555
C5_4 C4_4 1_555 1_555
C6_4 C5_4 1_555 1_555
C8_4 N1_4 1_555 1_555
H5_4 C8_4 1_555 1_555
C9_4 C8_4 1_555 1_555
H6_4 C9_4 1_555 1_555
C10_4 C9_4 1_555 1_555
C11_4 C10_4 1_555 1_555
H7_4 C11_4 1_555 1_555
C12_4 N1_4 1_555 1_555
H8_4 C12_4 1_555 1_555
N2_4 C17_4 1_555 1_555
C15_4 H9_4 1_555 1_555
C16_4 C15_4 1_555 1_555
H10_4 C16_4 1_555 1_555
C17_4 C16_4 1_555 1_555
C18_4 C17_4 1_555 1_555
C20_4 N2_4 1_555 1_555
H13_4 C20_4 1_555 1_555
C21_4 C20_4 1_555 1_555
H14_4 C21_4 1_555 1_555
C22_4 C10_4 1_555 1_555
C23_4 C22_4 1_555 1_555
H15_4 C23_4 1_555 1_555
C24_4 N2_4 1_555 1_555
H16_4 C24_4 1_555 1_555
C11_4 C12_4 1_555 1_555
C21_4 C22_4 1_555 1_555
C23_4 C24_4 1_555 1_555
O2_4 C1_4 1_555 1_555
H4_4 C7_4 1_555 1_555
O6_4 C25_4 1_555 1_555
H20_4 C31_4 1_555 1_555
O5_2 Zn2_10 1_555 1_555
N3_4 C29_4 1_555 1_555
C27_4 C26_4 1_555 1_555
H17_4 C27_4 1_555 1_555
C28_4 C27_4 1_555 1_555
H18_4 C28_4 1_555 1_555
C29_4 C28_4 1_555 1_555
C30_4 C29_4 1_555 1_555
C32_4 N3_4 1_555 1_555
H21_4 C32_4 1_555 1_555
C33_4 C32_4 1_555 1_555
H22_4 C33_4 1_555 1_555
C34_4 C33_4 1_555 1_555
C35_4 C34_4 1_555 1_555
H23_4 C35_4 1_555 1_555
C36_4 N3_4 1_555 1_555
H24_4 C36_4 1_555 1_555
N4_4 C41_4 1_555 1_555
C39_4 H25_4 1_555 1_555
C40_4 C39_4 1_555 1_555
H26_4 C40_4 1_555 1_555
C41_4 C40_4 1_555 1_555
C42_4 C41_4 1_555 1_555
C44_4 N4_4 1_555 1_555
H29_4 C44_4 1_555 1_555
C45_4 C44_4 1_555 1_555
H30_4 C45_4 1_555 1_555
C46_4 C34_4 1_555 1_555
C47_4 C46_4 1_555 1_555
H31_4 C47_4 1_555 1_555
C48_4 N4_4 1_555 1_555
H32_4 C48_4 1_555 1_555
C35_4 C36_4 1_555 1_555
C45_4 C46_4 1_555 1_555
C47_4 C48_4 1_555 1_555
O11 N5 1_555 1_555
O12 N5 1_555 1_555
N5 O13 1_555 1_555
O11_2 N5_2 1_555 1_555
O12_2 N5_2 1_555 1_555
N5_2 O13_2 1_555 1_555
O11_3 N5_3 1_555 1_555
O12_3 N5_3 1_555 1_555
N5_3 O13_3 1_555 1_555
O11_4 N5_4 1_555 1_555
O12_4 N5_4 1_555 1_555
N5_4 O13_4 1_555 1_555
O11_5 N5_5 1_555 1_555
O12_5 N5_5 1_555 1_555
N5_5 O13_5 1_555 1_555
O11_6 N5_6 1_555 1_555
O12_6 N5_6 1_555 1_555
N5_6 O13_6 1_555 1_555
O11_7 N5_7 1_555 1_555
O12_7 N5_7 1_555 1_555
N5_7 O13_7 1_555 1_555
O11_8 N5_8 1_555 1_555
O12_8 N5_8 1_555 1_555
N5_8 O13_8 1_555 1_555

#END
