
###############################################################################
#
# This file contains modified crystal structure data generated from the
# MOF subset of the Cambridge Structural Database (CSD) v543 
# hosted by the Cambridge Crystallographic Data Centre (CCDC).
#
# This work is licensed under the Creative Commons
# Attribution-NonCommercial-ShareAlike 4.0 International License.
# To view a copy of this license, visit
# http://creativecommons.org/licenses/by-nc-sa/4.0/
# or send a letter to
# Creative Commons, PO Box 1866, Mountain View, CA 94042, USA.
#
# CIF created using the CSD Python API on 29 September 2022
# The structure has been converted into the P1 space group
# The structure has a 3D framework
# The original CSD entry LOTDIJ is in the orthorhombic crystal system
# The framework has been calculated to contain at least 10.0% void space
# The void calculation uses a probe of radius 1.32A, grid spacing 0.4
#
###############################################################################

data_LOTDIJ
_chemical_formula_moiety         '(C216 H224 Co6 N32 O8 S8)n'
_symmetry_cell_setting           triclinic
_symmetry_space_group_name_H-M   'P 1'
_symmetry_Int_Tables_number      1
_space_group_name_Hall           'P 1'
loop_
_symmetry_equiv_pos_site_id
_symmetry_equiv_pos_as_xyz
1 x,y,z
_cell_length_a                   17.8916(15)
_cell_length_b                   19.6745(17)
_cell_length_c                   19.088(2)
_cell_angle_alpha                90
_cell_angle_beta                 90
_cell_angle_gamma                90
_cell_volume                     6719.13
loop_
_atom_site_label
_atom_site_type_symbol
_atom_site_fract_x
_atom_site_fract_y
_atom_site_fract_z
Co1 Co 0.18159(8) 0.50004(7) 0.23465(11)
S1 S 0.14759(17) 0.61424(14) 0.01389(15)
S2 S 0.27142(18) 0.40611(18) 0.44505(17)
N1 N 0.1122(4) 0.4245(4) 0.1816(5)
N5 N 0.2558(4) 0.0776(4) 0.7914(5)
N6 N 0.0861(4) 0.2632(4) 0.7790(5)
N7 N 0.1728(4) 0.5657(4) 0.1486(4)
N8 N 0.1916(4) 0.4393(4) 0.3233(4)
O1 O 0.1222(5) 0.2069(5) 0.3980(4)
C1 C 0.0937(7) 0.4321(6) 0.1164(6)
C2 C 0.0347(9) 0.3910(7) 0.0854(7)
C3 C 0.0052(7) 0.3365(6) 0.1276(7)
C4 C 0.0285(6) 0.3282(5) 0.1928(6)
C5 C 0.0828(6) 0.3732(5) 0.2175(6)
C6 C 0.0007(5) 0.2722(4) 0.2389(6)
C7 C 0.0101(5) 0.2676(5) 0.3082(6)
C16 C 0.0711(6) 0.2101(6) 0.4478(6)
C19 C 0.1965(8) 0.2209(8) 0.4156(7)
C20 C 0.2404(9) 0.2392(8) 0.3512(7)
C21 C 0.2475(10) 0.1733(9) 0.3071(7)
C22 C 0.2832(10) 0.1823(9) 0.2363(7)
C23 C 0.2395(10) 0.2276(10) 0.1846(9)
C24 C 0.2718(11) 0.2278(10) 0.1113(10)
C25 C 0.2360(11) 0.2745(11) 0.0568(10)
C26 C 0.1606(11) 0.2449(11) 0.0455(10)
C28 C 0.0267(7) 0.4564(6) 0.8626(6)
C29 C 0.0508(5) 0.3953(5) 0.8356(6)
C30 C 0.0117(5) 0.3679(4) 0.7779(5)
C32 C 0.0386(4) 0.3054(4) 0.7431(5)
C33 C 0.0178(5) 0.2913(5) 0.6744(5)
C34 C 0.0422(5) 0.2337(5) 0.6406(5)
C35 C 0.0257(5) 0.2222(4) 0.5672(5)
C36 C 0.0843(5) 0.2139(5) 0.5188(5)
C46 C 0.2646(5) 0.0866(5) 0.8572(6)
C47 C 0.2247(5) 0.1385(5) 0.8946(5)
C48 C 0.1768(6) 0.1782(6) 0.8590(6)
C49 C 0.1641(4) 0.1652(5) 0.7873(5)
C50 C 0.2074(5) 0.1166(4) 0.7549(5)
C51 C 0.1100(5) 0.2107(5) 0.7456(5)
C52 C 0.0913(5) 0.1911(5) 0.6795(5)
C53 C 0.1645(6) 0.5840(5) 0.0947(5)
C54 C 0.2204(6) 0.4251(5) 0.3727(6)
H1 H 0.1152 0.4679 0.0897
H2 H 0.0195 0.3970 0.0382
H4 H 0.0991 0.3677 0.2645
H5 H 0.0391 0.3014 0.3312
H12 H 0.1997 0.2574 0.4481
H13 H 0.2168 0.1810 0.4360
H14 H 0.2144 0.2730 0.3253
H15 H 0.2885 0.2558 0.3636
H16 H 0.1989 0.1548 0.3010
H17 H 0.2775 0.1422 0.3329
H18 H 0.3313 0.2018 0.2421
H19 H 0.2880 0.1380 0.2170
H20 H 0.2375 0.2727 0.2023
H21 H 0.1903 0.2099 0.1810
H22 H 0.3229 0.2399 0.1166
H23 H 0.2684 0.1831 0.0927
H24 H 0.2641 0.2714 0.0147
H25 H 0.2364 0.3202 0.0730
H26 H 0.1373 0.2726 0.0111
H27 H 0.1612 0.1990 0.0298
H28 H 0.1334 0.2478 0.0882
H30 H 0.0533 0.4780 0.8994
H31 H 0.0936 0.3732 0.8542
H34 H 0.1343 0.2107 0.5353
H50 H 0.0141 0.2596 0.9313
H52 H 0.2985 0.0587 0.8824
H53 H 0.2336 0.1460 0.9430
H54 H 0.1493 0.2126 0.8825
H55 H 0.2023 0.1099 0.7059
H56 H 0.1112 0.1511 0.6588
Co2 Co 0.31841(8) 0.00004(7) 0.73465(11)
N9 N 0.2840(4) 0.4550(4) 0.1892(4)
N10 N 0.0799(4) 0.5434(4) 0.2821(5)
N11 N 0.2442(4) 0.5776(4) 0.2914(5)
Co2_2 Co 0.31841(8) 1.00004(7) 0.73465(11)
N2 N 0.9607(4) 0.2234(4) 0.2021(5)
N3 N 0.7840(4) 0.0450(4) 0.1892(4)
N4 N 0.9201(4) 0.4566(4) 0.7821(5)
O2 O 0.8975(3) 0.2268(3) 0.5935(3)
C8 C 0.9823(5) 0.2171(5) 0.3472(5)
C9 C 0.9346(5) 0.1687(5) 0.3111(5)
C10 C 0.9296(5) 0.1741(5) 0.2411(6)
C11 C 0.8898(5) 0.1238(4) 0.1966(5)
C12 C 0.9067(6) 0.1121(6) 0.1294(6)
C13 C 0.8661(6) 0.0640(5) 0.0919(6)
C14 C 0.8052(6) 0.0322(6) 0.1219(6)
C15 C 0.8287(5) 0.0880(4) 0.2254(5)
C17 C 0.9943(6) 0.2145(4) 0.4255(6)
C18 C 0.9365(5) 0.2154(4) 0.4740(5)
C27 C 0.9605(6) 0.4854(6) 0.8364(6)
C31 C 0.9440(4) 0.4003(4) 0.7552(5)
C37 C 0.9511(5) 0.2192(4) 0.5427(6)
C38 C 0.8224(5) 0.2106(6) 0.5750(6)
C39 C 0.7703(7) 0.2279(7) 0.6326(6)
C40 C 0.7794(7) 0.1870(7) 0.7032(7)
C41 C 0.8390(6) 0.2114(7) 0.7505(7)
C42 C 0.8431(6) 0.1709(7) 0.8161(7)
C43 C 0.9085(8) 0.1863(8) 0.8684(8)
C44 C 0.9011(8) 0.2550(8) 0.8942(8)
C45 C 0.9652(12) 0.2656(14) 0.9498(12)
H3 H 0.9671 0.3078 0.1095
H6 H 0.9094 0.1335 0.3357
H7 H 0.9451 0.1379 0.1077
H8 H 0.8815 0.0527 0.0457
H9 H 0.7760 0.0017 0.0946
H10 H 0.8175 0.0951 0.2734
H11 H 0.8860 0.2133 0.4588
H29 H 0.9434 0.5271 0.8556
H32 H 0.9165 0.3802 0.7181
H33 H 0.9853 0.3215 0.6501
H35 H 0.8091 0.2353 0.5341
H36 H 0.8189 0.1633 0.5657
H37 H 0.7207 0.2206 0.6168
H38 H 0.7771 0.2747 0.6432
H39 H 0.7335 0.1882 0.7283
H40 H 0.7904 0.1415 0.6903
H41 H 0.8300 0.2576 0.7624
H42 H 0.8857 0.2077 0.7273
H43 H 0.7973 0.1777 0.8402
H44 H 0.8475 0.1245 0.8031
H45 H 0.9549 0.1815 0.8447
H46 H 0.9063 0.1550 0.9062
H47 H 0.9090 0.2864 0.8571
H48 H 0.8526 0.2615 0.9132
H49 H 0.9598 0.3108 0.9664
H51 H 0.9577 0.2347 0.9874
Co3 Co 0.68159(8) -0.00004(7) 0.23465(11)
Co4 Co 0.81841(8) 0.49996(7) 0.73465(11)
Co3_2 Co 0.68159(8) 0.99996(7) 0.23465(11)
H29_2 H 0.5566 0.0271 0.3556
S1_2 S 0.35241(17) 0.11424(14) 0.51389(15)
N7_2 N 0.3272(4) 0.0657(4) 0.6486(4)
C53_2 C 0.3355(6) 0.0840(5) 0.5947(5)
N10_2 N 0.4201(4) 0.0434(4) 0.7821(5)
N4_2 N 0.5799(4) 0.9566(4) 0.2821(5)
N6_2 N 0.4139(4) 0.7632(4) 0.2790(5)
O2_2 O 0.6025(3) 0.7268(3) 0.0935(3)
C27_2 C 0.5395(6) 0.9854(6) 0.3364(6)
C28_2 C 0.4733(7) 0.9564(6) 0.3626(6)
C29_2 C 0.4492(5) 0.8953(5) 0.3356(6)
C30_2 C 0.4883(5) 0.8679(4) 0.2779(5)
C31_2 C 0.5560(4) 0.9003(4) 0.2552(5)
C32_2 C 0.4614(4) 0.8054(4) 0.2431(5)
C33_2 C 0.4822(5) 0.7913(5) 0.1744(5)
C34_2 C 0.4578(5) 0.7337(5) 0.1406(5)
C35_2 C 0.4743(5) 0.7222(4) 0.0672(5)
C36_2 C 0.4157(5) 0.7139(5) 0.0188(5)
C37_2 C 0.5489(5) 0.7192(4) 0.0427(6)
C38_2 C 0.6776(5) 0.7106(6) 0.0750(6)
C39_2 C 0.7297(7) 0.7279(7) 0.1326(6)
C40_2 C 0.7206(7) 0.6870(7) 0.2032(7)
C41_2 C 0.6610(6) 0.7114(7) 0.2505(7)
C42_2 C 0.6569(6) 0.6709(7) 0.3161(7)
C43_2 C 0.5915(8) 0.6863(8) 0.3684(8)
C44_2 C 0.5989(8) 0.7550(8) 0.3942(8)
C45_2 C 0.5348(12) 0.7656(14) 0.4498(12)
C46_2 C 0.2354(5) 0.5866(5) 0.3572(6)
C47_2 C 0.2753(5) 0.6385(5) 0.3946(5)
C48_2 C 0.3232(6) 0.6782(6) 0.3590(6)
C49_2 C 0.3359(4) 0.6652(5) 0.2873(5)
C50_2 C 0.2926(5) 0.6166(4) 0.2549(5)
C51_2 C 0.3900(5) 0.7107(5) 0.2456(5)
C52_2 C 0.4087(5) 0.6911(5) 0.1795(5)
H30_2 H 0.4467 0.9780 0.3994
H31_2 H 0.4064 0.8732 0.3542
H32_2 H 0.5835 0.8802 0.2181
H33_2 H 0.5147 0.8215 0.1501
H34_2 H 0.3657 0.7107 0.0353
H35_2 H 0.6909 0.7353 0.0341
H36_2 H 0.6811 0.6633 0.0657
H37_2 H 0.7793 0.7206 0.1168
H38_2 H 0.7229 0.7747 0.1432
H39_2 H 0.7665 0.6882 0.2283
H40_2 H 0.7096 0.6415 0.1903
H41_2 H 0.6700 0.7576 0.2624
H42_2 H 0.6143 0.7077 0.2273
H43_2 H 0.7027 0.6777 0.3402
H44_2 H 0.6525 0.6245 0.3031
H45_2 H 0.5451 0.6815 0.3447
H46_2 H 0.5937 0.6550 0.4062
H47_2 H 0.5910 0.7864 0.3571
H48_2 H 0.6474 0.7615 0.4132
H49_2 H 0.5402 0.8108 0.4664
H50_2 H 0.4859 0.7596 0.4313
H51_2 H 0.5423 0.7347 0.4874
H52_2 H 0.2015 0.5587 0.3824
H53_2 H 0.2664 0.6460 0.4430
H54_2 H 0.3507 0.7126 0.3825
H55_2 H 0.2977 0.6099 0.2059
H56_2 H 0.3888 0.6511 0.1588
S2_2 S 0.22858(18) 0.90611(18) 0.94505(17)
N1_2 N 0.3878(4) 0.9245(4) 0.6816(5)
N2_2 N 0.5393(4) 0.7234(4) 0.7021(5)
N3_2 N 0.7160(4) 0.5450(4) 0.6892(4)
N8_2 N 0.3084(4) 0.9393(4) 0.8233(4)
O1_2 O 0.3778(5) 0.7069(5) 0.8980(4)
C1_2 C 0.4063(7) 0.9321(6) 0.6164(6)
C2_2 C 0.4653(9) 0.8910(7) 0.5854(7)
C3_2 C 0.4948(7) 0.8365(6) 0.6276(7)
C4_2 C 0.4715(6) 0.8282(5) 0.6928(6)
C5_2 C 0.4172(6) 0.8732(5) 0.7175(6)
C6_2 C 0.4993(5) 0.7722(4) 0.7389(6)
C7_2 C 0.4899(5) 0.7676(5) 0.8082(6)
C8_2 C 0.5177(5) 0.7171(5) 0.8472(5)
C9_2 C 0.5654(5) 0.6687(5) 0.8111(5)
C10_2 C 0.5704(5) 0.6741(5) 0.7411(6)
C11_2 C 0.6102(5) 0.6238(4) 0.6966(5)
C12_2 C 0.5933(6) 0.6121(6) 0.6294(6)
C13_2 C 0.6339(6) 0.5640(5) 0.5919(6)
C14_2 C 0.6948(6) 0.5322(6) 0.6219(6)
C15_2 C 0.6713(5) 0.5880(4) 0.7254(5)
C16_2 C 0.4289(6) 0.7101(6) 0.9478(6)
C17_2 C 0.5057(6) 0.7145(4) 0.9255(6)
C18_2 C 0.5635(5) 0.7154(4) 0.9740(5)
C19_2 C 0.3035(8) 0.7209(8) 0.9156(7)
C20_2 C 0.2596(9) 0.7392(8) 0.8512(7)
C21_2 C 0.2525(10) 0.6733(9) 0.8071(7)
C22_2 C 0.2168(10) 0.6823(9) 0.7363(7)
C23_2 C 0.2605(10) 0.7276(10) 0.6846(9)
C24_2 C 0.2282(11) 0.7278(10) 0.6113(10)
C25_2 C 0.2640(11) 0.7745(11) 0.5568(10)
C26_2 C 0.3394(11) 0.7449(11) 0.5455(10)
C54_2 C 0.2796(6) 0.9251(5) 0.8727(6)
H1_2 H 0.3848 0.9679 0.5897
H2_2 H 0.4805 0.8970 0.5382
H3_2 H 0.5329 0.8078 0.6095
H4_2 H 0.4009 0.8677 0.7645
H5_2 H 0.4609 0.8014 0.8312
H6_2 H 0.5906 0.6335 0.8357
H7_2 H 0.5549 0.6379 0.6077
H8_2 H 0.6185 0.5527 0.5457
H9_2 H 0.7240 0.5017 0.5946
H10_2 H 0.6825 0.5951 0.7734
H11_2 H 0.6140 0.7133 0.9588
H12_2 H 0.3003 0.7574 0.9481
H13_2 H 0.2832 0.6810 0.9360
H14_2 H 0.2856 0.7730 0.8253
H15_2 H 0.2115 0.7558 0.8636
H16_2 H 0.3011 0.6548 0.8010
H17_2 H 0.2225 0.6422 0.8329
H18_2 H 0.1687 0.7018 0.7421
H19_2 H 0.2120 0.6380 0.7170
H20_2 H 0.2625 0.7727 0.7023
H21_2 H 0.3097 0.7099 0.6810
H22_2 H 0.1771 0.7399 0.6166
H23_2 H 0.2316 0.6831 0.5927
H24_2 H 0.2359 0.7714 0.5147
H25_2 H 0.2636 0.8202 0.5730
H26_2 H 0.3627 0.7726 0.5111
H27_2 H 0.3388 0.6990 0.5298
H28_2 H 0.3666 0.7478 0.5882
N9_2 N 0.2160(4) 0.9550(4) 0.6892(4)
S2_3 S 0.77142(18) 0.09389(18) 0.44505(17)
N1_3 N 0.6122(4) 0.0755(4) 0.1816(5)
N2_3 N 0.4607(4) 0.2766(4) 0.2021(5)
N5_2 N 0.7558(4) 0.4224(4) 0.7914(5)
N6_3 N 0.5861(4) 0.2368(4) 0.7790(5)
N8_3 N 0.6916(4) 0.0607(4) 0.3233(4)
O1_3 O 0.6222(5) 0.2931(5) 0.3980(4)
O2_3 O 0.3975(3) 0.2732(3) 0.5935(3)
C1_3 C 0.5937(7) 0.0679(6) 0.1164(6)
C2_3 C 0.5347(9) 0.1090(7) 0.0854(7)
C3_3 C 0.5052(7) 0.1635(6) 0.1276(7)
C4_3 C 0.5285(6) 0.1718(5) 0.1928(6)
C5_3 C 0.5828(6) 0.1268(5) 0.2175(6)
C6_3 C 0.5007(5) 0.2278(4) 0.2389(6)
C7_3 C 0.5101(5) 0.2324(5) 0.3082(6)
C8_3 C 0.4823(5) 0.2829(5) 0.3472(5)
C9_3 C 0.4346(5) 0.3313(5) 0.3111(5)
C10_3 C 0.4296(5) 0.3259(5) 0.2411(6)
C11_3 C 0.3898(5) 0.3762(4) 0.1966(5)
C12_3 C 0.4067(6) 0.3879(6) 0.1294(6)
C13_3 C 0.3661(6) 0.4360(5) 0.0919(6)
C14_3 C 0.3052(6) 0.4678(6) 0.1219(6)
C15_3 C 0.3287(5) 0.4120(4) 0.2254(5)
C16_3 C 0.5711(6) 0.2899(6) 0.4478(6)
C17_3 C 0.4943(6) 0.2855(4) 0.4255(6)
C18_3 C 0.4365(5) 0.2846(4) 0.4740(5)
C19_3 C 0.6965(8) 0.2791(8) 0.4156(7)
C20_3 C 0.7404(9) 0.2608(8) 0.3512(7)
C21_3 C 0.7475(10) 0.3267(9) 0.3071(7)
C22_3 C 0.7832(10) 0.3177(9) 0.2363(7)
C23_3 C 0.7395(10) 0.2724(10) 0.1846(9)
C24_3 C 0.7718(11) 0.2722(10) 0.1113(10)
C25_3 C 0.7360(11) 0.2255(11) 0.0568(10)
C26_3 C 0.6606(11) 0.2551(11) 0.0455(10)
C27_3 C 0.4605(6) 0.0146(6) 0.8364(6)
C28_3 C 0.5267(7) 0.0436(6) 0.8626(6)
C29_3 C 0.5508(5) 0.1047(5) 0.8356(6)
C30_3 C 0.5117(5) 0.1321(4) 0.7779(5)
C31_3 C 0.4440(4) 0.0997(4) 0.7552(5)
C32_3 C 0.5386(4) 0.1946(4) 0.7431(5)
C33_3 C 0.5178(5) 0.2087(5) 0.6744(5)
C34_3 C 0.5422(5) 0.2663(5) 0.6406(5)
C35_3 C 0.5257(5) 0.2778(4) 0.5672(5)
C36_3 C 0.5843(5) 0.2861(5) 0.5188(5)
C37_3 C 0.4511(5) 0.2808(4) 0.5427(6)
C38_3 C 0.3224(5) 0.2894(6) 0.5750(6)
C39_3 C 0.2703(7) 0.2721(7) 0.6326(6)
C40_3 C 0.2794(7) 0.3130(7) 0.7032(7)
C41_3 C 0.3390(6) 0.2886(7) 0.7505(7)
C42_3 C 0.3431(6) 0.3291(7) 0.8161(7)
C43_3 C 0.4085(8) 0.3137(8) 0.8684(8)
C44_3 C 0.4011(8) 0.2450(8) 0.8942(8)
C45_3 C 0.4652(12) 0.2344(14) 0.9498(12)
C46_3 C 0.7646(5) 0.4134(5) 0.8572(6)
C47_3 C 0.7247(5) 0.3615(5) 0.8946(5)
C48_3 C 0.6768(6) 0.3218(6) 0.8590(6)
C49_3 C 0.6641(4) 0.3348(5) 0.7873(5)
C50_3 C 0.7074(5) 0.3834(4) 0.7549(5)
C51_3 C 0.6100(5) 0.2893(5) 0.7456(5)
C52_3 C 0.5913(5) 0.3089(5) 0.6795(5)
C54_3 C 0.7204(6) 0.0749(5) 0.3727(6)
H1_3 H 0.6152 0.0321 0.0897
H2_3 H 0.5195 0.1030 0.0382
H3_3 H 0.4671 0.1922 0.1095
H4_3 H 0.5991 0.1323 0.2645
H5_3 H 0.5391 0.1986 0.3312
H6_3 H 0.4094 0.3665 0.3357
H7_3 H 0.4451 0.3621 0.1077
H8_3 H 0.3815 0.4473 0.0457
H9_3 H 0.2760 0.4983 0.0946
H10_3 H 0.3175 0.4049 0.2734
H11_3 H 0.3860 0.2867 0.4588
H12_3 H 0.6997 0.2426 0.4481
H13_3 H 0.7168 0.3190 0.4360
H14_3 H 0.7144 0.2270 0.3253
H15_3 H 0.7885 0.2442 0.3636
H16_3 H 0.6989 0.3452 0.3010
H17_3 H 0.7775 0.3578 0.3329
H18_3 H 0.8313 0.2982 0.2421
H19_3 H 0.7880 0.3620 0.2170
H20_3 H 0.7375 0.2273 0.2023
H21_3 H 0.6903 0.2901 0.1810
H22_3 H 0.8229 0.2601 0.1166
H23_3 H 0.7684 0.3169 0.0927
H24_3 H 0.7641 0.2286 0.0147
H25_3 H 0.7364 0.1798 0.0730
H26_3 H 0.6373 0.2274 0.0111
H27_3 H 0.6612 0.3010 0.0298
H28_3 H 0.6334 0.2522 0.0882
H30_3 H 0.5533 0.0220 0.8994
H31_3 H 0.5936 0.1268 0.8542
H32_3 H 0.4165 0.1198 0.7181
H33_3 H 0.4853 0.1785 0.6501
H34_3 H 0.6343 0.2893 0.5353
H35_3 H 0.3091 0.2647 0.5341
H36_3 H 0.3189 0.3367 0.5657
H37_3 H 0.2207 0.2794 0.6168
H38_3 H 0.2771 0.2253 0.6432
H39_3 H 0.2335 0.3118 0.7283
H40_3 H 0.2904 0.3585 0.6903
H41_3 H 0.3300 0.2424 0.7624
H42_3 H 0.3857 0.2923 0.7273
H43_3 H 0.2973 0.3223 0.8402
H44_3 H 0.3475 0.3755 0.8031
H45_3 H 0.4549 0.3185 0.8447
H46_3 H 0.4063 0.3450 0.9062
H47_3 H 0.4090 0.2136 0.8571
H48_3 H 0.3526 0.2385 0.9132
H49_3 H 0.4598 0.1892 0.9664
H50_3 H 0.5141 0.2404 0.9313
H51_3 H 0.4577 0.2653 0.9874
H52_3 H 0.7985 0.4413 0.8824
H53_3 H 0.7336 0.3540 0.9430
H54_3 H 0.6493 0.2874 0.8825
H55_3 H 0.7023 0.3901 0.7059
H56_3 H 0.6112 0.3489 0.6588
S1_3 S 0.64759(17) 0.88576(14) 0.01389(15)
N7_3 N 0.6728(4) 0.9343(4) 0.1486(4)
C53_3 C 0.6645(6) 0.9160(5) 0.0947(5)
H29_3 H 0.4434 0.9729 0.8556
N11_2 N 0.7442(4) 0.9224(4) 0.2914(5)
O2_4 O 0.1025(3) 0.7732(3) 0.0935(3)
C27_4 C 0.0395(6) 0.5146(6) 0.3364(6)
C31_4 C 0.0560(4) 0.5997(4) 0.2552(5)
C37_4 C 0.0489(5) 0.7808(4) 0.0427(6)
C38_4 C 0.1776(5) 0.7894(6) 0.0750(6)
C39_4 C 0.2297(7) 0.7721(7) 0.1326(6)
C40_4 C 0.2206(7) 0.8130(7) 0.2032(7)
C41_4 C 0.1610(6) 0.7886(7) 0.2505(7)
C42_4 C 0.1569(6) 0.8291(7) 0.3161(7)
C43_4 C 0.0915(8) 0.8137(8) 0.3684(8)
C44_4 C 0.0989(8) 0.7450(8) 0.3942(8)
C45_4 C 0.0348(12) 0.7344(14) 0.4498(12)
H29_4 H 0.0566 0.4729 0.3556
H32_4 H 0.0835 0.6198 0.2181
H33_4 H 0.0147 0.6785 0.1501
H35_4 H 0.1909 0.7647 0.0341
H36_4 H 0.1811 0.8367 0.0657
H37_4 H 0.2793 0.7794 0.1168
H38_4 H 0.2229 0.7253 0.1432
H39_4 H 0.2665 0.8118 0.2283
H40_4 H 0.2096 0.8585 0.1903
H41_4 H 0.1700 0.7424 0.2624
H42_4 H 0.1143 0.7923 0.2273
H43_4 H 0.2027 0.8223 0.3402
H44_4 H 0.1525 0.8755 0.3031
H45_4 H 0.0451 0.8185 0.3447
H46_4 H 0.0937 0.8450 0.4062
H47_4 H 0.0910 0.7136 0.3571
H48_4 H 0.1474 0.7385 0.4132
H49_4 H 0.0402 0.6892 0.4664
H51_4 H 0.0423 0.7653 0.4874
N2_4 N 0.0393(4) 0.7766(4) 0.7021(5)
C8_4 C 0.0177(5) 0.7829(5) 0.8472(5)
C9_4 C 0.0654(5) 0.8313(5) 0.8111(5)
C10_4 C 0.0704(5) 0.8259(5) 0.7411(6)
C11_4 C 0.1102(5) 0.8762(4) 0.6966(5)
C12_4 C 0.0933(6) 0.8879(6) 0.6294(6)
C13_4 C 0.1339(6) 0.9360(5) 0.5919(6)
C14_4 C 0.1948(6) 0.9678(6) 0.6219(6)
C15_4 C 0.1713(5) 0.9120(4) 0.7254(5)
C17_4 C 0.0057(6) 0.7855(4) 0.9255(6)
C18_4 C 0.0635(5) 0.7846(4) 0.9740(5)
H3_4 H 0.0329 0.6922 0.6095
H6_4 H 0.0906 0.8665 0.8357
H7_4 H 0.0549 0.8621 0.6077
H8_4 H 0.1185 0.9473 0.5457
H9_4 H 0.2240 0.9983 0.5946
H10_4 H 0.1825 0.9049 0.7734
H11_4 H 0.1140 0.7867 0.9588
N6_4 N 0.9139(4) 0.7368(4) 0.2790(5)
C28_4 C 0.9733(7) 0.5436(6) 0.3626(6)
C29_4 C 0.9492(5) 0.6047(5) 0.3356(6)
C30_4 C 0.9883(5) 0.6321(4) 0.2779(5)
C32_4 C 0.9614(4) 0.6946(4) 0.2431(5)
C33_4 C 0.9822(5) 0.7087(5) 0.1744(5)
C34_4 C 0.9578(5) 0.7663(5) 0.1406(5)
C35_4 C 0.9743(5) 0.7778(4) 0.0672(5)
C36_4 C 0.9157(5) 0.7861(5) 0.0188(5)
C46_4 C 0.7354(5) 0.9134(5) 0.3572(6)
C47_4 C 0.7753(5) 0.8615(5) 0.3946(5)
C48_4 C 0.8232(6) 0.8218(6) 0.3590(6)
C49_4 C 0.8359(4) 0.8348(5) 0.2873(5)
C50_4 C 0.7926(5) 0.8834(4) 0.2549(5)
C51_4 C 0.8900(5) 0.7893(5) 0.2456(5)
C52_4 C 0.9087(5) 0.8089(5) 0.1795(5)
H30_4 H 0.9467 0.5220 0.3994
H31_4 H 0.9064 0.6268 0.3542
H34_4 H 0.8657 0.7893 0.0353
H50_4 H 0.9859 0.7404 0.4313
H52_4 H 0.7015 0.9413 0.3824
H53_4 H 0.7664 0.8540 0.4430
H54_4 H 0.8507 0.7874 0.3825
H55_4 H 0.7977 0.8901 0.2059
H56_4 H 0.8888 0.8489 0.1588
S1_4 S 0.85241(17) 0.38576(14) 0.51389(15)
S2_4 S 0.72858(18) 0.59389(18) 0.94505(17)
N1_4 N 0.8878(4) 0.5755(4) 0.6816(5)
N7_4 N 0.8272(4) 0.4343(4) 0.6486(4)
N8_4 N 0.8084(4) 0.5607(4) 0.8233(4)
O1_4 O 0.8778(5) 0.7931(5) 0.8980(4)
C1_4 C 0.9063(7) 0.5679(6) 0.6164(6)
C2_4 C 0.9653(9) 0.6090(7) 0.5854(7)
C3_4 C 0.9948(7) 0.6635(6) 0.6276(7)
C4_4 C 0.9715(6) 0.6718(5) 0.6928(6)
C5_4 C 0.9172(6) 0.6268(5) 0.7175(6)
C6_4 C 0.9993(5) 0.7278(4) 0.7389(6)
C7_4 C 0.9899(5) 0.7324(5) 0.8082(6)
C16_4 C 0.9289(6) 0.7899(6) 0.9478(6)
C19_4 C 0.8035(8) 0.7791(8) 0.9156(7)
C20_4 C 0.7596(9) 0.7608(8) 0.8512(7)
C21_4 C 0.7525(10) 0.8267(9) 0.8071(7)
C22_4 C 0.7168(10) 0.8177(9) 0.7363(7)
C23_4 C 0.7605(10) 0.7724(10) 0.6846(9)
C24_4 C 0.7282(11) 0.7722(10) 0.6113(10)
C25_4 C 0.7640(11) 0.7255(11) 0.5568(10)
C26_4 C 0.8394(11) 0.7551(11) 0.5455(10)
C53_4 C 0.8355(6) 0.4160(5) 0.5947(5)
C54_4 C 0.7796(6) 0.5749(5) 0.8727(6)
H1_4 H 0.8848 0.5321 0.5897
H2_4 H 0.9805 0.6030 0.5382
H4_4 H 0.9009 0.6323 0.7645
H5_4 H 0.9609 0.6986 0.8312
H12_4 H 0.8003 0.7426 0.9481
H13_4 H 0.7832 0.8190 0.9360
H14_4 H 0.7856 0.7270 0.8253
H15_4 H 0.7115 0.7442 0.8636
H16_4 H 0.8011 0.8452 0.8010
H17_4 H 0.7225 0.8578 0.8329
H18_4 H 0.6687 0.7982 0.7421
H19_4 H 0.7120 0.8620 0.7170
H20_4 H 0.7625 0.7273 0.7023
H21_4 H 0.8097 0.7901 0.6810
H22_4 H 0.6771 0.7601 0.6166
H23_4 H 0.7316 0.8169 0.5927
H24_4 H 0.7359 0.7286 0.5147
H25_4 H 0.7636 0.6798 0.5730
H26_4 H 0.8627 0.7274 0.5111
H27_4 H 0.8388 0.8010 0.5298
H28_4 H 0.8666 0.7522 0.5882
loop_
_geom_bond_atom_site_label_1
_geom_bond_atom_site_label_2
_geom_bond_site_symmetry_1
_geom_bond_site_symmetry_2
Co1 N1 1_555 1_555
S1 C53 1_555 1_555
S2 C54 1_555 1_555
N1 C1 1_555 1_555
N5 C46 1_555 1_555
N6 C32 1_555 1_555
N7 Co1 1_555 1_555
N8 Co1 1_555 1_555
O1 C16 1_555 1_555
C1 C2 1_555 1_555
C2 C3 1_555 1_555
C3 C4 1_555 1_555
C4 C5 1_555 1_555
C5 N1 1_555 1_555
C6 C4 1_555 1_555
C7 C6 1_555 1_555
C19 O1 1_555 1_555
C20 C19 1_555 1_555
C21 C20 1_555 1_555
C22 C21 1_555 1_555
C23 C22 1_555 1_555
C24 C23 1_555 1_555
C25 C24 1_555 1_555
C26 C25 1_555 1_555
C28 C29 1_555 1_555
C29 C30 1_555 1_555
C32 C30 1_555 1_555
C33 C32 1_555 1_555
C34 C33 1_555 1_555
C35 C34 1_555 1_555
C36 C16 1_555 1_555
C46 C47 1_555 1_555
C47 C48 1_555 1_555
C48 C49 1_555 1_555
C49 C50 1_555 1_555
C50 N5 1_555 1_555
C51 N6 1_555 1_555
C52 C34 1_555 1_555
C53 N7 1_555 1_555
C54 N8 1_555 1_555
H1 C1 1_555 1_555
H2 C2 1_555 1_555
H4 C5 1_555 1_555
H5 C7 1_555 1_555
H12 C19 1_555 1_555
H13 C19 1_555 1_555
H14 C20 1_555 1_555
H15 C20 1_555 1_555
H16 C21 1_555 1_555
H17 C21 1_555 1_555
H18 C22 1_555 1_555
H19 C22 1_555 1_555
H20 C23 1_555 1_555
H21 C23 1_555 1_555
H22 C24 1_555 1_555
H23 C24 1_555 1_555
H24 C25 1_555 1_555
H25 C25 1_555 1_555
H26 C26 1_555 1_555
H27 C26 1_555 1_555
H28 C26 1_555 1_555
H30 C28 1_555 1_555
H31 C29 1_555 1_555
H34 C36 1_555 1_555
H52 C46 1_555 1_555
H53 C47 1_555 1_555
H54 C48 1_555 1_555
H55 C50 1_555 1_555
H56 C52 1_555 1_555
Co2 N5 1_555 1_555
N9 Co1 1_555 1_555
N10 Co1 1_555 1_555
N11 Co1 1_555 1_555
C35 C36 1_555 1_555
C49 C51 1_555 1_555
C51 C52 1_555 1_555
N3 C14 1_555 1_555
N4 C27 1_555 1_555
O2 C37 1_555 1_555
C9 C8 1_555 1_555
C10 N2 1_555 1_555
C11 C10 1_555 1_555
C12 C11 1_555 1_555
C13 C12 1_555 1_555
C14 C13 1_555 1_555
C15 N3 1_555 1_555
C17 C8 1_555 1_555
C18 C17 1_555 1_555
C31 N4 1_555 1_555
C37 C18 1_555 1_555
C38 O2 1_555 1_555
C39 C38 1_555 1_555
C40 C39 1_555 1_555
C41 C40 1_555 1_555
C42 C41 1_555 1_555
C43 C42 1_555 1_555
C44 C43 1_555 1_555
C45 C44 1_555 1_555
H6 C9 1_555 1_555
H7 C12 1_555 1_555
H8 C13 1_555 1_555
H9 C14 1_555 1_555
H10 C15 1_555 1_555
H11 C18 1_555 1_555
H29 C27 1_555 1_555
H32 C31 1_555 1_555
H35 C38 1_555 1_555
H36 C38 1_555 1_555
H37 C39 1_555 1_555
H38 C39 1_555 1_555
H39 C40 1_555 1_555
H40 C40 1_555 1_555
H41 C41 1_555 1_555
H42 C41 1_555 1_555
H43 C42 1_555 1_555
H44 C42 1_555 1_555
H45 C43 1_555 1_555
H46 C43 1_555 1_555
H47 C44 1_555 1_555
H48 C44 1_555 1_555
H49 C45 1_555 1_555
H51 C45 1_555 1_555
Co3 N3 1_555 1_555
Co4 N4 1_555 1_555
C9 C10 1_555 1_555
C11 C15 1_555 1_555
S1_2 C53_2 1_555 1_555
N7_2 Co2 1_555 1_555
C53_2 N7_2 1_555 1_555
N10_2 Co2 1_555 1_555
N4_2 C27_2 1_555 1_555
N11 C46_2 1_555 1_555
N6_2 C32_2 1_555 1_555
O2_2 C37_2 1_555 1_555
C27_2 C28_2 1_555 1_555
C28_2 C29_2 1_555 1_555
C29_2 C30_2 1_555 1_555
C30_2 C31_2 1_555 1_555
C31_2 N4_2 1_555 1_555
C32_2 C30_2 1_555 1_555
C33_2 C32_2 1_555 1_555
C34_2 C33_2 1_555 1_555
C35_2 C34_2 1_555 1_555
C38_2 O2_2 1_555 1_555
C39_2 C38_2 1_555 1_555
C40_2 C39_2 1_555 1_555
C41_2 C40_2 1_555 1_555
C42_2 C41_2 1_555 1_555
C43_2 C42_2 1_555 1_555
C44_2 C43_2 1_555 1_555
C45_2 C44_2 1_555 1_555
C46_2 C47_2 1_555 1_555
C47_2 C48_2 1_555 1_555
C48_2 C49_2 1_555 1_555
C49_2 C50_2 1_555 1_555
C50_2 N11 1_555 1_555
C51_2 N6_2 1_555 1_555
C52_2 C34_2 1_555 1_555
H30_2 C28_2 1_555 1_555
H31_2 C29_2 1_555 1_555
H32_2 C31_2 1_555 1_555
H33_2 C33_2 1_555 1_555
H34_2 C36_2 1_555 1_555
H35_2 C38_2 1_555 1_555
H36_2 C38_2 1_555 1_555
H37_2 C39_2 1_555 1_555
H38_2 C39_2 1_555 1_555
H39_2 C40_2 1_555 1_555
H40_2 C40_2 1_555 1_555
H41_2 C41_2 1_555 1_555
H42_2 C41_2 1_555 1_555
H43_2 C42_2 1_555 1_555
H44_2 C42_2 1_555 1_555
H45_2 C43_2 1_555 1_555
H46_2 C43_2 1_555 1_555
H47_2 C44_2 1_555 1_555
H48_2 C44_2 1_555 1_555
H49_2 C45_2 1_555 1_555
H50_2 C45_2 1_555 1_555
H51_2 C45_2 1_555 1_555
H52_2 C46_2 1_555 1_555
H53_2 C47_2 1_555 1_555
H54_2 C48_2 1_555 1_555
H55_2 C50_2 1_555 1_555
H56_2 C52_2 1_555 1_555
Co3_2 N4_2 1_555 1_555
C35_2 C36_2 1_555 1_555
C35_2 C37_2 1_555 1_555
C49_2 C51_2 1_555 1_555
C51_2 C52_2 1_555 1_555
Co2_2 N1_2 1_555 1_555
S2_2 C54_2 1_555 1_555
N1_2 C1_2 1_555 1_555
N2_2 C6_2 1_555 1_555
N3_2 C14_2 1_555 1_555
N8_2 Co2_2 1_555 1_555
O1_2 C16_2 1_555 1_555
C1_2 C2_2 1_555 1_555
C2_2 C3_2 1_555 1_555
C3_2 C4_2 1_555 1_555
C4_2 C5_2 1_555 1_555
C5_2 N1_2 1_555 1_555
C6_2 C4_2 1_555 1_555
C7_2 C6_2 1_555 1_555
C8_2 C7_2 1_555 1_555
C9_2 C8_2 1_555 1_555
C10_2 N2_2 1_555 1_555
C11_2 C10_2 1_555 1_555
C12_2 C11_2 1_555 1_555
C13_2 C12_2 1_555 1_555
C14_2 C13_2 1_555 1_555
C15_2 N3_2 1_555 1_555
C16_2 C17_2 1_555 1_555
C17_2 C8_2 1_555 1_555
C18_2 C17_2 1_555 1_555
C19_2 O1_2 1_555 1_555
C20_2 C19_2 1_555 1_555
C21_2 C20_2 1_555 1_555
C22_2 C21_2 1_555 1_555
C23_2 C22_2 1_555 1_555
C24_2 C23_2 1_555 1_555
C25_2 C24_2 1_555 1_555
C26_2 C25_2 1_555 1_555
C54_2 N8_2 1_555 1_555
H1_2 C1_2 1_555 1_555
H2_2 C2_2 1_555 1_555
H3_2 C3_2 1_555 1_555
H4_2 C5_2 1_555 1_555
H5_2 C7_2 1_555 1_555
H6_2 C9_2 1_555 1_555
H7_2 C12_2 1_555 1_555
H8_2 C13_2 1_555 1_555
H9_2 C14_2 1_555 1_555
H10_2 C15_2 1_555 1_555
H11_2 C18_2 1_555 1_555
H12_2 C19_2 1_555 1_555
H13_2 C19_2 1_555 1_555
H14_2 C20_2 1_555 1_555
H15_2 C20_2 1_555 1_555
H16_2 C21_2 1_555 1_555
H17_2 C21_2 1_555 1_555
H18_2 C22_2 1_555 1_555
H19_2 C22_2 1_555 1_555
H20_2 C23_2 1_555 1_555
H21_2 C23_2 1_555 1_555
H22_2 C24_2 1_555 1_555
H23_2 C24_2 1_555 1_555
H24_2 C25_2 1_555 1_555
H25_2 C25_2 1_555 1_555
H26_2 C26_2 1_555 1_555
H27_2 C26_2 1_555 1_555
H28_2 C26_2 1_555 1_555
Co4 N3_2 1_555 1_555
N9_2 Co2_2 1_555 1_555
C9_2 C10_2 1_555 1_555
C11_2 C15_2 1_555 1_555
Co3 N1_3 1_555 1_555
S2_3 C54_3 1_555 1_555
N1_3 C1_3 1_555 1_555
N2_3 C6_3 1_555 1_555
N9 C14_3 1_555 1_555
N10_2 C27_3 1_555 1_555
N5_2 C46_3 1_555 1_555
N6_3 C32_3 1_555 1_555
N8_3 Co3 1_555 1_555
O1_3 C16_3 1_555 1_555
O2_3 C37_3 1_555 1_555
C1_3 C2_3 1_555 1_555
C2_3 C3_3 1_555 1_555
C3_3 C4_3 1_555 1_555
C4_3 C5_3 1_555 1_555
C5_3 N1_3 1_555 1_555
C6_3 C4_3 1_555 1_555
C7_3 C6_3 1_555 1_555
C8_3 C7_3 1_555 1_555
C9_3 C8_3 1_555 1_555
C10_3 N2_3 1_555 1_555
C11_3 C10_3 1_555 1_555
C12_3 C11_3 1_555 1_555
C13_3 C12_3 1_555 1_555
C14_3 C13_3 1_555 1_555
C15_3 N9 1_555 1_555
C16_3 C17_3 1_555 1_555
C17_3 C8_3 1_555 1_555
C18_3 C17_3 1_555 1_555
C19_3 O1_3 1_555 1_555
C20_3 C19_3 1_555 1_555
C21_3 C20_3 1_555 1_555
C22_3 C21_3 1_555 1_555
C23_3 C22_3 1_555 1_555
C24_3 C23_3 1_555 1_555
C25_3 C24_3 1_555 1_555
C26_3 C25_3 1_555 1_555
C27_3 C28_3 1_555 1_555
C28_3 C29_3 1_555 1_555
C29_3 C30_3 1_555 1_555
C30_3 C31_3 1_555 1_555
C31_3 N10_2 1_555 1_555
C32_3 C30_3 1_555 1_555
C33_3 C32_3 1_555 1_555
C34_3 C33_3 1_555 1_555
C35_3 C34_3 1_555 1_555
C36_3 C16_3 1_555 1_555
C37_3 C18_3 1_555 1_555
C38_3 O2_3 1_555 1_555
C39_3 C38_3 1_555 1_555
C40_3 C39_3 1_555 1_555
C41_3 C40_3 1_555 1_555
C42_3 C41_3 1_555 1_555
C43_3 C42_3 1_555 1_555
C44_3 C43_3 1_555 1_555
C45_3 C44_3 1_555 1_555
C46_3 C47_3 1_555 1_555
C47_3 C48_3 1_555 1_555
C48_3 C49_3 1_555 1_555
C49_3 C50_3 1_555 1_555
C50_3 N5_2 1_555 1_555
C51_3 N6_3 1_555 1_555
C52_3 C34_3 1_555 1_555
C54_3 N8_3 1_555 1_555
H1_3 C1_3 1_555 1_555
H2_3 C2_3 1_555 1_555
H3_3 C3_3 1_555 1_555
H4_3 C5_3 1_555 1_555
H5_3 C7_3 1_555 1_555
H6_3 C9_3 1_555 1_555
H7_3 C12_3 1_555 1_555
H8_3 C13_3 1_555 1_555
H9_3 C14_3 1_555 1_555
H10_3 C15_3 1_555 1_555
H11_3 C18_3 1_555 1_555
H12_3 C19_3 1_555 1_555
H13_3 C19_3 1_555 1_555
H14_3 C20_3 1_555 1_555
H15_3 C20_3 1_555 1_555
H16_3 C21_3 1_555 1_555
H17_3 C21_3 1_555 1_555
H18_3 C22_3 1_555 1_555
H19_3 C22_3 1_555 1_555
H20_3 C23_3 1_555 1_555
H21_3 C23_3 1_555 1_555
H22_3 C24_3 1_555 1_555
H23_3 C24_3 1_555 1_555
H24_3 C25_3 1_555 1_555
H25_3 C25_3 1_555 1_555
H26_3 C26_3 1_555 1_555
H27_3 C26_3 1_555 1_555
H28_3 C26_3 1_555 1_555
H30_3 C28_3 1_555 1_555
H31_3 C29_3 1_555 1_555
H32_3 C31_3 1_555 1_555
H33_3 C33_3 1_555 1_555
H34_3 C36_3 1_555 1_555
H35_3 C38_3 1_555 1_555
H36_3 C38_3 1_555 1_555
H37_3 C39_3 1_555 1_555
H38_3 C39_3 1_555 1_555
H39_3 C40_3 1_555 1_555
H40_3 C40_3 1_555 1_555
H41_3 C41_3 1_555 1_555
H42_3 C41_3 1_555 1_555
H43_3 C42_3 1_555 1_555
H44_3 C42_3 1_555 1_555
H45_3 C43_3 1_555 1_555
H46_3 C43_3 1_555 1_555
H47_3 C44_3 1_555 1_555
H48_3 C44_3 1_555 1_555
H49_3 C45_3 1_555 1_555
H50_3 C45_3 1_555 1_555
H51_3 C45_3 1_555 1_555
H52_3 C46_3 1_555 1_555
H53_3 C47_3 1_555 1_555
H54_3 C48_3 1_555 1_555
H55_3 C50_3 1_555 1_555
H56_3 C52_3 1_555 1_555
Co4 N5_2 1_555 1_555
C9_3 C10_3 1_555 1_555
C11_3 C15_3 1_555 1_555
C35_3 C36_3 1_555 1_555
C35_3 C37_3 1_555 1_555
C49_3 C51_3 1_555 1_555
C51_3 C52_3 1_555 1_555
S1_3 C53_3 1_555 1_555
N7_3 Co3_2 1_555 1_555
C53_3 N7_3 1_555 1_555
N11_2 Co3_2 1_555 1_555
N10 C27_4 1_555 1_555
O2_4 C37_4 1_555 1_555
C31_4 N10 1_555 1_555
C38_4 O2_4 1_555 1_555
C39_4 C38_4 1_555 1_555
C40_4 C39_4 1_555 1_555
C41_4 C40_4 1_555 1_555
C42_4 C41_4 1_555 1_555
C43_4 C42_4 1_555 1_555
C44_4 C43_4 1_555 1_555
C45_4 C44_4 1_555 1_555
H29_4 C27_4 1_555 1_555
H32_4 C31_4 1_555 1_555
H35_4 C38_4 1_555 1_555
H36_4 C38_4 1_555 1_555
H37_4 C39_4 1_555 1_555
H38_4 C39_4 1_555 1_555
H39_4 C40_4 1_555 1_555
H40_4 C40_4 1_555 1_555
H41_4 C41_4 1_555 1_555
H42_4 C41_4 1_555 1_555
H43_4 C42_4 1_555 1_555
H44_4 C42_4 1_555 1_555
H45_4 C43_4 1_555 1_555
H46_4 C43_4 1_555 1_555
H47_4 C44_4 1_555 1_555
H48_4 C44_4 1_555 1_555
H49_4 C45_4 1_555 1_555
H51_4 C45_4 1_555 1_555
N9_2 C14_4 1_555 1_555
C9_4 C8_4 1_555 1_555
C10_4 N2_4 1_555 1_555
C11_4 C10_4 1_555 1_555
C12_4 C11_4 1_555 1_555
C13_4 C12_4 1_555 1_555
C14_4 C13_4 1_555 1_555
C15_4 N9_2 1_555 1_555
C17_4 C8_4 1_555 1_555
C18_4 C17_4 1_555 1_555
H6_4 C9_4 1_555 1_555
H7_4 C12_4 1_555 1_555
H8_4 C13_4 1_555 1_555
H9_4 C14_4 1_555 1_555
H10_4 C15_4 1_555 1_555
H11_4 C18_4 1_555 1_555
C9_4 C10_4 1_555 1_555
C11_4 C15_4 1_555 1_555
N11_2 C46_4 1_555 1_555
N6_4 C32_4 1_555 1_555
C28_4 C29_4 1_555 1_555
C29_4 C30_4 1_555 1_555
C32_4 C30_4 1_555 1_555
C33_4 C32_4 1_555 1_555
C34_4 C33_4 1_555 1_555
C35_4 C34_4 1_555 1_555
C46_4 C47_4 1_555 1_555
C47_4 C48_4 1_555 1_555
C48_4 C49_4 1_555 1_555
C49_4 C50_4 1_555 1_555
C50_4 N11_2 1_555 1_555
C51_4 N6_4 1_555 1_555
C52_4 C34_4 1_555 1_555
H30_4 C28_4 1_555 1_555
H31_4 C29_4 1_555 1_555
H34_4 C36_4 1_555 1_555
H52_4 C46_4 1_555 1_555
H53_4 C47_4 1_555 1_555
H54_4 C48_4 1_555 1_555
H55_4 C50_4 1_555 1_555
H56_4 C52_4 1_555 1_555
C35_4 C36_4 1_555 1_555
C49_4 C51_4 1_555 1_555
C51_4 C52_4 1_555 1_555
Co4 N1_4 1_555 1_555
S1_4 C53_4 1_555 1_555
S2_4 C54_4 1_555 1_555
N1_4 C1_4 1_555 1_555
N7_4 Co4 1_555 1_555
N8_4 Co4 1_555 1_555
O1_4 C16_4 1_555 1_555
C1_4 C2_4 1_555 1_555
C2_4 C3_4 1_555 1_555
C3_4 C4_4 1_555 1_555
C4_4 C5_4 1_555 1_555
C5_4 N1_4 1_555 1_555
C6_4 C4_4 1_555 1_555
C7_4 C6_4 1_555 1_555
C19_4 O1_4 1_555 1_555
C20_4 C19_4 1_555 1_555
C21_4 C20_4 1_555 1_555
C22_4 C21_4 1_555 1_555
C23_4 C22_4 1_555 1_555
C24_4 C23_4 1_555 1_555
C25_4 C24_4 1_555 1_555
C26_4 C25_4 1_555 1_555
C53_4 N7_4 1_555 1_555
C54_4 N8_4 1_555 1_555
H1_4 C1_4 1_555 1_555
H2_4 C2_4 1_555 1_555
H4_4 C5_4 1_555 1_555
H5_4 C7_4 1_555 1_555
H12_4 C19_4 1_555 1_555
H13_4 C19_4 1_555 1_555
H14_4 C20_4 1_555 1_555
H15_4 C20_4 1_555 1_555
H16_4 C21_4 1_555 1_555
H17_4 C21_4 1_555 1_555
H18_4 C22_4 1_555 1_555
H19_4 C22_4 1_555 1_555
H20_4 C23_4 1_555 1_555
H21_4 C23_4 1_555 1_555
H22_4 C24_4 1_555 1_555
H23_4 C24_4 1_555 1_555
H24_4 C25_4 1_555 1_555
H25_4 C25_4 1_555 1_555
H26_4 C26_4 1_555 1_555
H27_4 C26_4 1_555 1_555
H28_4 C26_4 1_555 1_555

#END
