
###############################################################################
#
# This file contains modified crystal structure data generated from the
# MOF subset of the Cambridge Structural Database (CSD) v543 
# hosted by the Cambridge Crystallographic Data Centre (CCDC).
#
# This work is licensed under the Creative Commons
# Attribution-NonCommercial-ShareAlike 4.0 International License.
# To view a copy of this license, visit
# http://creativecommons.org/licenses/by-nc-sa/4.0/
# or send a letter to
# Creative Commons, PO Box 1866, Mountain View, CA 94042, USA.
#
# CIF created using the CSD Python API on 29 September 2022
# The structure has been converted into the P1 space group
# The structure has a 3D framework
# The original CSD entry LOTPER is in the monoclinic crystal system
# The framework has been calculated to contain at least 10.0% void space
# The void calculation uses a probe of radius 1.32A, grid spacing 0.4
#
###############################################################################

data_LOTPER
_chemical_formula_moiety         '(C240 H192 Cu24 Mo96 N48 O320 P8)n'
_symmetry_cell_setting           triclinic
_symmetry_space_group_name_H-M   'P 1'
_symmetry_Int_Tables_number      1
_space_group_name_Hall           'P 1'
loop_
_symmetry_equiv_pos_site_id
_symmetry_equiv_pos_as_xyz
1 x,y,z
_cell_length_a                   23.402(2)
_cell_length_b                   21.760(2)
_cell_length_c                   26.461(3)
_cell_angle_alpha                90
_cell_angle_beta                 116.239(2)
_cell_angle_gamma                90
_cell_volume                     12086.2
loop_
_atom_site_label
_atom_site_type_symbol
_atom_site_fract_x
_atom_site_fract_y
_atom_site_fract_z
C15 C 0.8015(4) 0.0292(3) 0.2904(3)
C16 C 0.6974(4) 0.0278(3) 0.2135(3)
C19 C 0.7993(5) 0.0916(4) 0.2878(4)
H13 H 0.8374 0.0095 0.3172
H14 H 0.6621 0.0071 0.1871
C20 C 0.6982(5) 0.0900(4) 0.2141(4)
H15 H 0.8342 0.1137 0.3132
H16 H 0.6625 0.1110 0.1886
C23 C 0.3098(5) 0.0189(4) 0.1501(4)
C24 C 0.4188(6) 0.0175(5) 0.1974(10)
C27 C 0.3130(5) 0.0825(4) 0.1536(4)
C28 C 0.4174(7) 0.0809(6) 0.1981(11)
N5 N 0.3655(5) 0.1138(4) 0.1768(5)
H21 H 0.2748 0.1042 0.1383
H22 H 0.4561 0.1015 0.2149
Cu3 Cu 0.36703(8) 0.20093(5) 0.18293(8)
N7 N 0.7487(4) 0.1228(3) 0.2500(3)
Cu6 Cu 0.74673(7) 0.21047(5) 0.24764(5)
Mo1 Mo 0.61735(3) 0.87139(3) 0.06260(3)
O1 O 0.6739(3) 0.8112(2) 0.1072(2)
O2 O 0.5661(2) 0.8687(2) 0.0984(2)
O3 O 0.6467(3) 0.8510(2) 0.0039(2)
O5 O 0.5735(2) 0.7710(2) 0.0223(2)
O6 O 0.6614(2) 0.9343(2) 0.0877(2)
Mo2 Mo 0.66343(3) 0.72207(3) 0.09611(3)
Mo3 Mo 0.48131(4) 0.85631(3) 0.09545(3)
P1 P 0.50347(8) 0.75129(7) 0.00200(7)
O7 O 0.6840(3) 0.7344(2) 0.0346(2)
O8 O 0.6143(2) 0.7254(2) 0.1383(2)
O9 O 0.7347(3) 0.7017(2) 0.1457(2)
O10 O 0.6244(3) 0.6488(2) 0.0677(2)
O11 O 0.4076(3) 0.8138(2) 0.0815(2)
O12 O 0.4788(3) 0.9140(3) 0.1364(3)
O13 O 0.4856(2) 0.7589(2) 0.0506(2)
O14 O 0.4497(3) 0.8907(3) 0.0249(2)
O15 O 0.5275(3) 0.7942(2) 0.1550(2)
Mo6 Mo 0.53725(4) 0.71141(3) 0.14307(3)
Cu1 Cu 0.75327(7) 0.71047(5) 0.25236(5)
Mo7 Mo 0.54782(3) 0.59678(3) 0.04442(3)
Mo8 Mo 0.38213(4) 0.73139(3) 0.04641(3)
O24 O 0.5334(3) 0.6372(3) 0.0991(2)
O25 O 0.4465(3) 0.7000(3) 0.1159(2)
O26 O 0.5633(3) 0.6833(3) 0.2080(2)
N1 N 0.7521(4) 0.7982(3) 0.2535(3)
O27 O 0.7686(2) 0.7074(2) 0.3632(2)
N2 N 0.7513(4) 0.6228(3) 0.2500(3)
O28 O 0.5799(3) 0.5311(3) 0.0764(3)
O30 O 0.4618(2) 0.5764(2) 0.0030(2)
O31 O 0.3872(3) 0.6630(2) 0.0074(2)
O33 O 0.3174(3) 0.7179(3) 0.0559(3)
C1 C 0.8055(4) 0.8298(4) 0.2799(3)
C2 C 0.6979(4) 0.8293(4) 0.2268(3)
Cu2 Cu 0.35284(6) 0.70048(4) 0.16891(5)
H1 H 0.8436 0.8084 0.2984
C3 C 0.8069(4) 0.8936(3) 0.2810(3)
C4 C 0.6949(4) 0.8922(3) 0.2259(3)
H2 H 0.6604 0.8073 0.2077
N3 N 0.3568(3) 0.7878(3) 0.1730(3)
N4 N 0.3564(4) 0.6132(3) 0.1687(3)
H3 H 0.8454 0.9143 0.3002
C5 C 0.7503(3) 0.9265(3) 0.2531(3)
H4 H 0.6558 0.9119 0.2072
C6 C 0.3102(4) 0.8216(3) 0.1345(3)
C7 C 0.4069(4) 0.8181(3) 0.2126(4)
C8 C 0.3029(4) 0.5789(3) 0.1521(3)
C9 C 0.4107(5) 0.5828(4) 0.1863(4)
C10 C 0.7498(3) 0.9944(3) 0.2528(3)
C11 C 0.3117(4) 0.8848(3) 0.1344(4)
H5 H 0.2753 0.8016 0.1068
H6 H 0.4402 0.7952 0.2392
C12 C 0.4110(4) 0.8811(4) 0.2157(4)
H7 H 0.2640 0.5993 0.1387
C13 C 0.3028(4) 0.5158(3) 0.1538(3)
C14 C 0.4157(4) 0.5196(4) 0.1899(4)
H8 H 0.4480 0.6055 0.1970
C17 C 0.3622(4) 0.9170(3) 0.1756(4)
H9 H 0.2786 0.9063 0.1063
H10 H 0.4461 0.8999 0.2443
H11 H 0.2646 0.4942 0.1413
C18 C 0.3612(4) 0.4843(3) 0.1748(3)
H12 H 0.4553 0.5008 0.2024
C21 C 0.3637(4) 0.9847(3) 0.1754(4)
C22 C 0.3634(4) 0.4168(3) 0.1793(3)
C25 C 0.3171(4) 0.3814(3) 0.1385(3)
C26 C 0.4128(4) 0.3862(3) 0.2231(3)
H17 H 0.2706 0.9996 0.1303
H18 H 0.4577 0.9972 0.2120
H19 H 0.2835 0.4000 0.1083
C29 C 0.3209(4) 0.3176(4) 0.1430(4)
C30 C 0.4139(4) 0.3226(4) 0.2256(4)
H20 H 0.4453 0.4086 0.2510
N6 N 0.3681(4) 0.2883(3) 0.1841(3)
H23 H 0.2885 0.2944 0.1158
H24 H 0.4462 0.3029 0.2560
O42 O 0.2314(2) 0.7074(2) 0.1368(2)
O4 O 0.5429(2) 0.9008(2) 0.9960(2)
Mo4 Mo 0.62994(3) 0.77569(3) 0.96446(3)
Mo5 Mo 0.45525(3) 0.90358(3) 0.95310(3)
O16 O 0.5538(2) 0.8039(2) 0.9075(2)
O17 O 0.5930(3) 0.6942(2) 0.9396(2)
O18 O 0.6797(3) 0.7829(3) 0.9351(2)
O19 O 0.4406(3) 0.9785(3) 0.9421(3)
O20 O 0.3681(2) 0.8708(2) 0.9191(2)
O21 O 0.4595(3) 0.8809(2) 0.8862(2)
O22 O 0.4609(2) 0.7914(2) 0.9528(2)
O23 O 0.4967(2) 0.6845(2) 0.9838(2)
Mo9 Mo 0.46280(3) 0.79581(3) 0.86092(3)
Mo10 Mo 0.52325(3) 0.64147(3) 0.91152(3)
Mo11 Mo 0.34618(3) 0.78768(3) 0.90565(3)
Mo12 Mo 0.39635(3) 0.62713(3) 0.94251(3)
O29 O 0.5569(3) 0.5884(3) 0.9737(2)
O32 O 0.3492(3) 0.7754(2) 0.9764(2)
O34 O 0.4559(3) 0.8099(3) 0.7965(2)
O35 O 0.4745(2) 0.7121(2) 0.8679(2)
O36 O 0.3767(2) 0.7893(2) 0.8475(2)
O37 O 0.5330(3) 0.6004(3) 0.8628(2)
O38 O 0.4380(3) 0.6108(2) 0.8982(2)
O39 O 0.3612(3) 0.6998(2) 0.9069(2)
O40 O 0.3361(2) 0.5776(2) 0.9172(2)
O41 O 0.2686(2) 0.7926(2) 0.8632(2)
Cu4 Cu 0.25327(7) 0.78953(5) 0.75236(5)
Cu5 Cu 0.14716(6) 0.79952(4) 0.83109(5)
C15_2 C 0.1985(4) 0.0292(3) 0.2096(3)
C16_2 C 0.3026(4) 0.0278(3) 0.2865(3)
C19_2 C 0.2007(5) 0.0916(4) 0.2122(4)
H13_2 H 0.1626 0.0095 0.1828
H14_2 H 0.3379 0.0071 0.3129
C20_2 C 0.3018(5) 0.0900(4) 0.2859(4)
H15_2 H 0.1658 0.1137 0.1868
H16_2 H 0.3375 0.1110 0.3114
C23_2 C 0.6902(5) 0.0189(4) 0.3499(4)
C24_2 C 0.5812(6) 0.0175(5) 0.3026(10)
C27_2 C 0.6870(5) 0.0825(4) 0.3464(4)
C28_2 C 0.5826(7) 0.0809(6) 0.3019(11)
N5_2 N 0.6345(5) 0.1138(4) 0.3232(5)
H21_2 H 0.7252 0.1042 0.3617
H22_2 H 0.5439 0.1015 0.2851
Cu3_2 Cu 0.63297(8) 0.20093(5) 0.31707(8)
N7_2 N 0.2513(4) 0.1228(3) 0.2500(3)
Cu6_2 Cu 0.25327(7) 0.21047(5) 0.25236(5)
Mo1_2 Mo 0.38265(3) 0.87139(3) 0.43740(3)
O1_2 O 0.3261(3) 0.8112(2) 0.3928(2)
O2_2 O 0.4339(2) 0.8687(2) 0.4016(2)
O3_2 O 0.3533(3) 0.8510(2) 0.4961(2)
O4_2 O 0.4571(2) 0.9008(2) 0.5040(2)
O5_2 O 0.4265(2) 0.7710(2) 0.4777(2)
O6_2 O 0.3386(2) 0.9343(2) 0.4123(2)
Mo2_2 Mo 0.33657(3) 0.72207(3) 0.40389(3)
Mo3_2 Mo 0.51869(4) 0.85631(3) 0.40455(3)
Mo4_2 Mo 0.37006(3) 0.77569(3) 0.53554(3)
Mo5_2 Mo 0.54475(3) 0.90358(3) 0.54690(3)
P1_2 P 0.49653(8) 0.75129(7) 0.49800(7)
O7_2 O 0.3160(3) 0.7344(2) 0.4654(2)
O8_2 O 0.3857(2) 0.7254(2) 0.3617(2)
O9_2 O 0.2653(3) 0.7017(2) 0.3543(2)
O10_2 O 0.3756(3) 0.6488(2) 0.4323(2)
O11_2 O 0.5924(3) 0.8138(2) 0.4185(2)
O12_2 O 0.5212(3) 0.9140(3) 0.3636(3)
O13_2 O 0.5144(2) 0.7589(2) 0.4494(2)
O14_2 O 0.5503(3) 0.8907(3) 0.4751(2)
O15_2 O 0.4725(3) 0.7942(2) 0.3450(2)
O16_2 O 0.4462(2) 0.8039(2) 0.5925(2)
O17_2 O 0.4070(3) 0.6942(2) 0.5604(2)
O18_2 O 0.3203(3) 0.7829(3) 0.5649(2)
O19_2 O 0.5594(3) 0.9785(3) 0.5579(3)
O20_2 O 0.6319(2) 0.8708(2) 0.5809(2)
O21_2 O 0.5405(3) 0.8809(2) 0.6138(2)
O22_2 O 0.5391(2) 0.7914(2) 0.5472(2)
O23_2 O 0.5033(2) 0.6845(2) 0.5162(2)
Mo6_2 Mo 0.46275(4) 0.71141(3) 0.35693(3)
Cu1_2 Cu 0.24673(7) 0.71047(5) 0.24764(5)
Mo7_2 Mo 0.45218(3) 0.59678(3) 0.45558(3)
Mo8_2 Mo 0.61787(4) 0.73139(3) 0.45359(3)
Mo9_2 Mo 0.53720(3) 0.79581(3) 0.63908(3)
Mo10_2 Mo 0.47675(3) 0.64147(3) 0.58848(3)
Mo11_2 Mo 0.65382(3) 0.78768(3) 0.59435(3)
Mo12_2 Mo 0.60365(3) 0.62713(3) 0.55749(3)
O24_2 O 0.4666(3) 0.6372(3) 0.4009(2)
O25_2 O 0.5535(3) 0.7000(3) 0.3841(2)
O26_2 O 0.4367(3) 0.6833(3) 0.2920(2)
N1_2 N 0.2479(4) 0.7982(3) 0.2465(3)
N2_2 N 0.2487(4) 0.6228(3) 0.2500(3)
O28_2 O 0.4201(3) 0.5311(3) 0.4236(3)
O29_2 O 0.4431(3) 0.5884(3) 0.5263(2)
O30_2 O 0.5382(2) 0.5764(2) 0.4970(2)
O31_2 O 0.6128(3) 0.6630(2) 0.4926(2)
O32_2 O 0.6508(3) 0.7754(2) 0.5236(2)
O33_2 O 0.6826(3) 0.7179(3) 0.4441(3)
O34_2 O 0.5441(3) 0.8099(3) 0.7035(2)
O35_2 O 0.5255(2) 0.7121(2) 0.6321(2)
O36_2 O 0.6233(2) 0.7893(2) 0.6525(2)
O37_2 O 0.4670(3) 0.6004(3) 0.6372(2)
O38_2 O 0.5620(3) 0.6108(2) 0.6018(2)
O39_2 O 0.6388(3) 0.6998(2) 0.5931(2)
O40_2 O 0.6639(2) 0.5776(2) 0.5828(2)
C1_2 C 0.1945(4) 0.8298(4) 0.2201(3)
C2_2 C 0.3021(4) 0.8293(4) 0.2732(3)
Cu2_2 Cu 0.64716(6) 0.70048(4) 0.33109(5)
H1_2 H 0.1564 0.8084 0.2016
C3_2 C 0.1931(4) 0.8936(3) 0.2190(3)
C4_2 C 0.3051(4) 0.8922(3) 0.2741(3)
H2_2 H 0.3396 0.8073 0.2923
N3_2 N 0.6432(3) 0.7878(3) 0.3270(3)
N4_2 N 0.6436(4) 0.6132(3) 0.3313(3)
H3_2 H 0.1546 0.9143 0.1998
C5_2 C 0.2497(3) 0.9265(3) 0.2469(3)
H4_2 H 0.3442 0.9119 0.2928
C6_2 C 0.6898(4) 0.8216(3) 0.3655(3)
C7_2 C 0.5931(4) 0.8181(3) 0.2874(4)
C8_2 C 0.6971(4) 0.5789(3) 0.3479(3)
C9_2 C 0.5893(5) 0.5828(4) 0.3137(4)
C10_2 C 0.2502(3) 0.9944(3) 0.2472(3)
C11_2 C 0.6883(4) 0.8848(3) 0.3656(4)
H5_2 H 0.7247 0.8016 0.3932
H6_2 H 0.5598 0.7952 0.2608
C12_2 C 0.5890(4) 0.8811(4) 0.2843(4)
H7_2 H 0.7360 0.5993 0.3613
C13_2 C 0.6972(4) 0.5158(3) 0.3462(3)
C14_2 C 0.5843(4) 0.5196(4) 0.3101(4)
H8_2 H 0.5520 0.6055 0.3030
C17_2 C 0.6378(4) 0.9170(3) 0.3244(4)
H9_2 H 0.7214 0.9063 0.3937
H10_2 H 0.5539 0.8999 0.2557
H11_2 H 0.7354 0.4942 0.3587
C18_2 C 0.6388(4) 0.4843(3) 0.3252(3)
H12_2 H 0.5447 0.5008 0.2976
C21_2 C 0.6363(4) 0.9847(3) 0.3246(4)
C22_2 C 0.6366(4) 0.4168(3) 0.3207(3)
C25_2 C 0.6829(4) 0.3814(3) 0.3615(3)
C26_2 C 0.5872(4) 0.3862(3) 0.2769(3)
H17_2 H 0.7294 0.9996 0.3697
H18_2 H 0.5423 0.9972 0.2880
H19_2 H 0.7165 0.4000 0.3917
C29_2 C 0.6791(4) 0.3176(4) 0.3570(4)
C30_2 C 0.5861(4) 0.3226(4) 0.2744(4)
H20_2 H 0.5547 0.4086 0.2490
N6_2 N 0.6319(4) 0.2883(3) 0.3159(3)
H23_2 H 0.7115 0.2944 0.3842
H24_2 H 0.5538 0.3029 0.2440
O41_2 O 0.7314(2) 0.7926(2) 0.6368(2)
Cu4_2 Cu 0.74673(7) 0.78953(5) 0.74764(5)
Cu5_2 Cu 0.85284(6) 0.79952(4) 0.66891(5)
Mo1_3 Mo 0.11735(3) 0.37139(3) 0.06260(3)
O1_3 O 0.1739(3) 0.3112(2) 0.1072(2)
O2_3 O 0.0661(2) 0.3687(2) 0.0984(2)
O3_3 O 0.1467(3) 0.3510(2) 0.0039(2)
O5_3 O 0.0735(2) 0.2710(2) 0.0223(2)
O6_3 O 0.1614(2) 0.4343(2) 0.0877(2)
Mo2_3 Mo 0.16343(3) 0.22207(3) 0.09611(3)
P1_3 P 0.00347(8) 0.25129(7) 0.00200(7)
O7_3 O 0.1840(3) 0.2344(2) 0.0346(2)
O8_3 O 0.1143(2) 0.2254(2) 0.1383(2)
O9_3 O 0.2347(3) 0.2017(2) 0.1457(2)
O10_3 O 0.1244(3) 0.1488(2) 0.0677(2)
O15_3 O 0.0275(3) 0.2942(2) 0.1550(2)
Mo6_3 Mo 0.03725(4) 0.21141(3) 0.14307(3)
Mo7_3 Mo 0.04782(3) 0.09678(3) 0.04442(3)
O24_3 O 0.0334(3) 0.1372(3) 0.0991(2)
O26_3 O 0.0633(3) 0.1833(3) 0.2080(2)
N1_3 N 0.2521(4) 0.2982(3) 0.2535(3)
O27_2 O 0.2686(2) 0.2074(2) 0.3632(2)
O28_3 O 0.0799(3) 0.0311(3) 0.0764(3)
C1_3 C 0.3055(4) 0.3298(4) 0.2799(3)
C2_3 C 0.1979(4) 0.3293(4) 0.2268(3)
H1_3 H 0.3436 0.3084 0.2984
C3_3 C 0.3069(4) 0.3936(3) 0.2810(3)
C4_3 C 0.1949(4) 0.3922(3) 0.2259(3)
H2_3 H 0.1604 0.3073 0.2077
H3_3 H 0.3454 0.4143 0.3002
C5_3 C 0.2503(3) 0.4265(3) 0.2531(3)
H4_3 H 0.1558 0.4119 0.2072
C10_3 C 0.2498(3) 0.4944(3) 0.2528(3)
C15_3 C 0.3015(4) 0.5292(3) 0.2904(3)
C16_3 C 0.1974(4) 0.5278(3) 0.2135(3)
C19_3 C 0.2993(5) 0.5916(4) 0.2878(4)
H13_3 H 0.3374 0.5095 0.3172
H14_3 H 0.1621 0.5071 0.1871
C20_3 C 0.1982(5) 0.5900(4) 0.2141(4)
H15_3 H 0.3342 0.6137 0.3132
H16_3 H 0.1625 0.6110 0.1886
Mo3_3 Mo 0.98131(4) 0.35631(3) 0.09545(3)
O11_3 O 0.9076(3) 0.3138(2) 0.0815(2)
O12_3 O 0.9788(3) 0.4140(3) 0.1364(3)
O13_3 O 0.9856(2) 0.2589(2) 0.0506(2)
O14_3 O 0.9497(3) 0.3907(3) 0.0249(2)
Mo8_3 Mo 0.88213(4) 0.23139(3) 0.04641(3)
O25_3 O 0.9465(3) 0.2000(3) 0.1159(2)
O30_3 O 0.9618(2) 0.0764(2) 0.0030(2)
O31_3 O 0.8872(3) 0.1630(2) 0.0074(2)
O33_3 O 0.8174(3) 0.2179(3) 0.0559(3)
Cu2_3 Cu 0.85284(6) 0.20048(4) 0.16891(5)
N3_3 N 0.8568(3) 0.2878(3) 0.1730(3)
N4_3 N 0.8564(4) 0.1132(3) 0.1687(3)
C6_3 C 0.8102(4) 0.3216(3) 0.1345(3)
C7_3 C 0.9069(4) 0.3181(3) 0.2126(4)
C8_3 C 0.8029(4) 0.0789(3) 0.1521(3)
C9_3 C 0.9107(5) 0.0828(4) 0.1863(4)
C11_3 C 0.8117(4) 0.3848(3) 0.1344(4)
H5_3 H 0.7753 0.3016 0.1068
H6_3 H 0.9402 0.2952 0.2392
C12_3 C 0.9110(4) 0.3811(4) 0.2157(4)
H7_3 H 0.7640 0.0993 0.1387
C13_3 C 0.8028(4) 0.0158(3) 0.1538(3)
C14_3 C 0.9157(4) 0.0196(4) 0.1899(4)
H8_3 H 0.9480 0.1055 0.1970
C17_3 C 0.8622(4) 0.4170(3) 0.1756(4)
H9_3 H 0.7786 0.4063 0.1063
H10_3 H 0.9461 0.3999 0.2443
H12_3 H 0.9553 0.0008 0.2024
C21_3 C 0.8637(4) 0.4847(3) 0.1754(4)
C23_3 C 0.8098(5) 0.5189(4) 0.1501(4)
C24_3 C 0.9188(6) 0.5175(5) 0.1974(10)
C27_3 C 0.8130(5) 0.5825(4) 0.1536(4)
H17_3 H 0.7706 0.4996 0.1303
H18_3 H 0.9577 0.4972 0.2120
C28_3 C 0.9174(7) 0.5809(6) 0.1981(11)
N5_3 N 0.8655(5) 0.6138(4) 0.1768(5)
H21_3 H 0.7748 0.6042 0.1383
H22_3 H 0.9561 0.6015 0.2149
Cu3_3 Cu 0.86703(8) 0.70093(5) 0.18293(8)
O42_2 O 0.7314(2) 0.2074(2) 0.1368(2)
Mo5_3 Mo 0.95525(3) 0.40358(3) 0.95310(3)
O19_3 O 0.9406(3) 0.4785(3) 0.9421(3)
O20_3 O 0.8681(2) 0.3708(2) 0.9191(2)
O21_3 O 0.9595(3) 0.3809(2) 0.8862(2)
O22_3 O 0.9609(2) 0.2914(2) 0.9528(2)
O23_3 O 0.9967(2) 0.1845(2) 0.9838(2)
Mo9_3 Mo 0.96280(3) 0.29581(3) 0.86092(3)
Mo11_3 Mo 0.84618(3) 0.28768(3) 0.90565(3)
Mo12_3 Mo 0.89635(3) 0.12713(3) 0.94251(3)
O32_3 O 0.8492(3) 0.2754(2) 0.9764(2)
O34_3 O 0.9559(3) 0.3099(3) 0.7965(2)
O35_3 O 0.9745(2) 0.2121(2) 0.8679(2)
O36_3 O 0.8767(2) 0.2893(2) 0.8475(2)
O38_3 O 0.9380(3) 0.1108(2) 0.8982(2)
O39_3 O 0.8612(3) 0.1998(2) 0.9069(2)
O40_3 O 0.8361(2) 0.0776(2) 0.9172(2)
O41_3 O 0.7686(2) 0.2926(2) 0.8632(2)
Cu4_3 Cu 0.75327(7) 0.28953(5) 0.75236(5)
Cu5_3 Cu 0.64716(6) 0.29952(4) 0.83109(5)
H11_3 H 0.7646 0.9942 0.1413
C18_3 C 0.8612(4) 0.9843(3) 0.1748(3)
C22_3 C 0.8634(4) 0.9168(3) 0.1793(3)
C25_3 C 0.8171(4) 0.8814(3) 0.1385(3)
C26_3 C 0.9128(4) 0.8862(3) 0.2231(3)
H19_3 H 0.7835 0.9000 0.1083
C29_3 C 0.8209(4) 0.8176(4) 0.1430(4)
C30_3 C 0.9139(4) 0.8226(4) 0.2256(4)
H20_3 H 0.9453 0.9086 0.2510
N6_3 N 0.8681(4) 0.7883(3) 0.1841(3)
H23_3 H 0.7885 0.7944 0.1158
H24_3 H 0.9462 0.8029 0.2560
Mo3_4 Mo 0.01869(4) 0.35631(3) 0.40455(3)
Mo5_4 Mo 0.04475(3) 0.40358(3) 0.54690(3)
O11_4 O 0.0924(3) 0.3138(2) 0.4185(2)
O12_4 O 0.0212(3) 0.4140(3) 0.3636(3)
O13_4 O 0.0144(2) 0.2589(2) 0.4494(2)
O14_4 O 0.0503(3) 0.3907(3) 0.4751(2)
O19_4 O 0.0594(3) 0.4785(3) 0.5579(3)
O20_4 O 0.1319(2) 0.3708(2) 0.5809(2)
O21_4 O 0.0405(3) 0.3809(2) 0.6138(2)
O22_4 O 0.0391(2) 0.2914(2) 0.5472(2)
O23_4 O 0.0033(2) 0.1845(2) 0.5162(2)
Mo8_4 Mo 0.11787(4) 0.23139(3) 0.45359(3)
Mo9_4 Mo 0.03720(3) 0.29581(3) 0.63908(3)
Mo11_4 Mo 0.15382(3) 0.28768(3) 0.59435(3)
Mo12_4 Mo 0.10365(3) 0.12713(3) 0.55749(3)
O25_4 O 0.0535(3) 0.2000(3) 0.3841(2)
O30_4 O 0.0382(2) 0.0764(2) 0.4970(2)
O31_4 O 0.1128(3) 0.1630(2) 0.4926(2)
O32_4 O 0.1508(3) 0.2754(2) 0.5236(2)
O33_4 O 0.1826(3) 0.2179(3) 0.4441(3)
O34_4 O 0.0441(3) 0.3099(3) 0.7035(2)
O35_4 O 0.0255(2) 0.2121(2) 0.6321(2)
O36_4 O 0.1233(2) 0.2893(2) 0.6525(2)
O38_4 O 0.0620(3) 0.1108(2) 0.6018(2)
O39_4 O 0.1388(3) 0.1998(2) 0.5931(2)
O40_4 O 0.1639(2) 0.0776(2) 0.5828(2)
Cu2_4 Cu 0.14716(6) 0.20048(4) 0.33109(5)
N3_4 N 0.1432(3) 0.2878(3) 0.3270(3)
N4_4 N 0.1436(4) 0.1132(3) 0.3313(3)
C6_4 C 0.1898(4) 0.3216(3) 0.3655(3)
C7_4 C 0.0931(4) 0.3181(3) 0.2874(4)
C8_4 C 0.1971(4) 0.0789(3) 0.3479(3)
C9_4 C 0.0893(5) 0.0828(4) 0.3137(4)
C11_4 C 0.1883(4) 0.3848(3) 0.3656(4)
H5_4 H 0.2247 0.3016 0.3932
H6_4 H 0.0598 0.2952 0.2608
C12_4 C 0.0890(4) 0.3811(4) 0.2843(4)
H7_4 H 0.2360 0.0993 0.3613
C13_4 C 0.1972(4) 0.0158(3) 0.3462(3)
C14_4 C 0.0843(4) 0.0196(4) 0.3101(4)
H8_4 H 0.0520 0.1055 0.3030
C17_4 C 0.1378(4) 0.4170(3) 0.3244(4)
H9_4 H 0.2214 0.4063 0.3937
H10_4 H 0.0539 0.3999 0.2557
H12_4 H 0.0447 0.0008 0.2976
C21_4 C 0.1363(4) 0.4847(3) 0.3246(4)
C23_4 C 0.1902(5) 0.5189(4) 0.3499(4)
C24_4 C 0.0812(6) 0.5175(5) 0.3026(10)
C27_4 C 0.1870(5) 0.5825(4) 0.3464(4)
H17_4 H 0.2294 0.4996 0.3697
H18_4 H 0.0423 0.4972 0.2880
C28_4 C 0.0826(7) 0.5809(6) 0.3019(11)
N5_4 N 0.1345(5) 0.6138(4) 0.3232(5)
H21_4 H 0.2252 0.6042 0.3617
H22_4 H 0.0439 0.6015 0.2851
Cu3_4 Cu 0.13297(8) 0.70093(5) 0.31707(8)
O41_4 O 0.2314(2) 0.2926(2) 0.6368(2)
Cu4_4 Cu 0.24673(7) 0.28953(5) 0.74764(5)
Cu5_4 Cu 0.35284(6) 0.29952(4) 0.66891(5)
H11_4 H 0.2354 0.9942 0.3587
C18_4 C 0.1388(4) 0.9843(3) 0.3252(3)
C22_4 C 0.1366(4) 0.9168(3) 0.3207(3)
C25_4 C 0.1829(4) 0.8814(3) 0.3615(3)
C26_4 C 0.0872(4) 0.8862(3) 0.2769(3)
H19_4 H 0.2165 0.9000 0.3917
C29_4 C 0.1791(4) 0.8176(4) 0.3570(4)
C30_4 C 0.0861(4) 0.8226(4) 0.2744(4)
H20_4 H 0.0547 0.9086 0.2490
N6_4 N 0.1319(4) 0.7883(3) 0.3159(3)
H23_4 H 0.2115 0.7944 0.3842
H24_4 H 0.0538 0.8029 0.2440
Mo1_4 Mo 0.88265(3) 0.37139(3) 0.43740(3)
O1_4 O 0.8261(3) 0.3112(2) 0.3928(2)
O2_4 O 0.9339(2) 0.3687(2) 0.4016(2)
O3_4 O 0.8533(3) 0.3510(2) 0.4961(2)
O4_3 O 0.9571(2) 0.4008(2) 0.5040(2)
O5_4 O 0.9265(2) 0.2710(2) 0.4777(2)
O6_4 O 0.8386(2) 0.4343(2) 0.4123(2)
Mo2_4 Mo 0.83657(3) 0.22207(3) 0.40389(3)
Mo4_3 Mo 0.87006(3) 0.27569(3) 0.53554(3)
P1_4 P 0.99653(8) 0.25129(7) 0.49800(7)
O7_4 O 0.8160(3) 0.2344(2) 0.4654(2)
O8_4 O 0.8857(2) 0.2254(2) 0.3617(2)
O9_4 O 0.7653(3) 0.2017(2) 0.3543(2)
O10_4 O 0.8756(3) 0.1488(2) 0.4323(2)
O15_4 O 0.9725(3) 0.2942(2) 0.3450(2)
O16_3 O 0.9462(2) 0.3039(2) 0.5925(2)
O17_3 O 0.9070(3) 0.1942(2) 0.5604(2)
O18_3 O 0.8203(3) 0.2829(3) 0.5649(2)
Mo6_4 Mo 0.96275(4) 0.21141(3) 0.35693(3)
Mo7_4 Mo 0.95218(3) 0.09678(3) 0.45558(3)
Mo10_3 Mo 0.97675(3) 0.14147(3) 0.58848(3)
O24_4 O 0.9666(3) 0.1372(3) 0.4009(2)
O26_4 O 0.9367(3) 0.1833(3) 0.2920(2)
N1_4 N 0.7479(4) 0.2982(3) 0.2465(3)
O28_4 O 0.9201(3) 0.0311(3) 0.4236(3)
O29_3 O 0.9431(3) 0.0884(3) 0.5263(2)
O37_3 O 0.9670(3) 0.1004(3) 0.6372(2)
C1_4 C 0.6945(4) 0.3298(4) 0.2201(3)
C2_4 C 0.8021(4) 0.3293(4) 0.2732(3)
H1_4 H 0.6564 0.3084 0.2016
C3_4 C 0.6931(4) 0.3936(3) 0.2190(3)
C4_4 C 0.8051(4) 0.3922(3) 0.2741(3)
H2_4 H 0.8396 0.3073 0.2923
H3_4 H 0.6546 0.4143 0.1998
C5_4 C 0.7497(3) 0.4265(3) 0.2469(3)
H4_4 H 0.8442 0.4119 0.2928
C10_4 C 0.7502(3) 0.4944(3) 0.2472(3)
C15_4 C 0.6985(4) 0.5292(3) 0.2096(3)
C16_4 C 0.8026(4) 0.5278(3) 0.2865(3)
C19_4 C 0.7007(5) 0.5916(4) 0.2122(4)
H13_4 H 0.6626 0.5095 0.1828
H14_4 H 0.8379 0.5071 0.3129
C20_4 C 0.8018(5) 0.5900(4) 0.2859(4)
H15_4 H 0.6658 0.6137 0.1868
H16_4 H 0.8375 0.6110 0.3114
O4_4 O 0.4571(2) 0.0992(2) 0.0040(2)
Mo4_4 Mo 0.37006(3) 0.22431(3) 0.03554(3)
Mo5_5 Mo 0.54475(3) 0.09642(3) 0.04690(3)
O16_4 O 0.4462(2) 0.1961(2) 0.0925(2)
O17_4 O 0.4070(3) 0.3058(2) 0.0604(2)
O18_4 O 0.3203(3) 0.2171(3) 0.0649(2)
O19_5 O 0.5594(3) 0.0215(3) 0.0579(3)
O20_5 O 0.6319(2) 0.1292(2) 0.0809(2)
O21_5 O 0.5405(3) 0.1191(2) 0.1138(2)
O22_5 O 0.5391(2) 0.2086(2) 0.0472(2)
O23_5 O 0.5033(2) 0.3155(2) 0.0162(2)
Mo9_5 Mo 0.53720(3) 0.20419(3) 0.13908(3)
Mo10_4 Mo 0.47675(3) 0.35853(3) 0.08848(3)
Mo11_5 Mo 0.65382(3) 0.21232(3) 0.09435(3)
Mo12_5 Mo 0.60365(3) 0.37287(3) 0.05749(3)
O29_4 O 0.4431(3) 0.4116(3) 0.0263(2)
O32_5 O 0.6508(3) 0.2246(2) 0.0236(2)
O34_5 O 0.5441(3) 0.1901(3) 0.2035(2)
O35_5 O 0.5255(2) 0.2879(2) 0.1321(2)
O36_5 O 0.6233(2) 0.2107(2) 0.1525(2)
O37_4 O 0.4670(3) 0.3996(3) 0.1372(2)
O38_5 O 0.5620(3) 0.3892(2) 0.1018(2)
O39_5 O 0.6388(3) 0.3002(2) 0.0931(2)
O40_5 O 0.6639(2) 0.4224(2) 0.0828(2)
Mo1_5 Mo 0.38265(3) 0.12861(3) 0.93740(3)
O1_5 O 0.3261(3) 0.1888(2) 0.8928(2)
O2_5 O 0.4339(2) 0.1313(2) 0.9016(2)
O3_5 O 0.3533(3) 0.1490(2) 0.9961(2)
O5_5 O 0.4265(2) 0.2290(2) 0.9777(2)
O6_5 O 0.3386(2) 0.0657(2) 0.9123(2)
Mo2_5 Mo 0.33657(3) 0.27793(3) 0.90389(3)
Mo3_5 Mo 0.51869(4) 0.14369(3) 0.90455(3)
P1_5 P 0.49653(8) 0.24871(7) 0.99800(7)
O7_5 O 0.3160(3) 0.2656(2) 0.9654(2)
O8_5 O 0.3857(2) 0.2746(2) 0.8617(2)
O9_5 O 0.2653(3) 0.2983(2) 0.8543(2)
O10_5 O 0.3756(3) 0.3512(2) 0.9323(2)
O11_5 O 0.5924(3) 0.1862(2) 0.9185(2)
O12_5 O 0.5212(3) 0.0860(3) 0.8636(3)
O13_5 O 0.5144(2) 0.2411(2) 0.9494(2)
O14_5 O 0.5503(3) 0.1093(3) 0.9751(2)
O15_5 O 0.4725(3) 0.2058(2) 0.8450(2)
Mo6_5 Mo 0.46275(4) 0.28859(3) 0.85693(3)
Mo7_5 Mo 0.45218(3) 0.40322(3) 0.95558(3)
Mo8_5 Mo 0.61787(4) 0.26861(3) 0.95359(3)
O24_5 O 0.4666(3) 0.3628(3) 0.9009(2)
O25_5 O 0.5535(3) 0.3000(3) 0.8841(2)
O26_5 O 0.4367(3) 0.3167(3) 0.7920(2)
N1_5 N 0.2479(4) 0.2018(3) 0.7465(3)
N2_3 N 0.2487(4) 0.3772(3) 0.7500(3)
O28_5 O 0.4201(3) 0.4689(3) 0.9236(3)
O30_5 O 0.5382(2) 0.4236(2) 0.9970(2)
O31_5 O 0.6128(3) 0.3370(2) 0.9926(2)
O33_5 O 0.6826(3) 0.2821(3) 0.9441(3)
C1_5 C 0.1945(4) 0.1702(4) 0.7201(3)
C2_5 C 0.3021(4) 0.1707(4) 0.7732(3)
H1_5 H 0.1564 0.1916 0.7016
C3_5 C 0.1931(4) 0.1064(3) 0.7190(3)
C4_5 C 0.3051(4) 0.1078(3) 0.7741(3)
H2_5 H 0.3396 0.1927 0.7923
N3_5 N 0.6432(3) 0.2122(3) 0.8270(3)
N4_5 N 0.6436(4) 0.3868(3) 0.8313(3)
H3_5 H 0.1546 0.0857 0.6998
C5_5 C 0.2497(3) 0.0735(3) 0.7469(3)
H4_5 H 0.3442 0.0881 0.7928
C6_5 C 0.6898(4) 0.1784(3) 0.8655(3)
C7_5 C 0.5931(4) 0.1819(3) 0.7874(4)
C8_5 C 0.6971(4) 0.4211(3) 0.8479(3)
C9_5 C 0.5893(5) 0.4172(4) 0.8137(4)
C10_5 C 0.2502(3) 0.0056(3) 0.7472(3)
C11_5 C 0.6883(4) 0.1152(3) 0.8656(4)
H5_5 H 0.7247 0.1984 0.8932
H6_5 H 0.5598 0.2048 0.7608
C12_5 C 0.5890(4) 0.1189(4) 0.7843(4)
H7_5 H 0.7360 0.4007 0.8613
C13_5 C 0.6972(4) 0.4842(3) 0.8462(3)
C14_5 C 0.5843(4) 0.4804(4) 0.8101(4)
H8_5 H 0.5520 0.3945 0.8030
C17_5 C 0.6378(4) 0.0830(3) 0.8244(4)
H9_5 H 0.7214 0.0937 0.8937
H10_5 H 0.5539 0.1001 0.7557
H11_5 H 0.7354 0.5058 0.8587
C18_5 C 0.6388(4) 0.5157(3) 0.8252(3)
H12_5 H 0.5447 0.4992 0.7976
C21_5 C 0.6363(4) 0.0153(3) 0.8246(4)
C22_5 C 0.6366(4) 0.5832(3) 0.8207(3)
C25_5 C 0.6829(4) 0.6186(3) 0.8615(3)
C26_5 C 0.5872(4) 0.6138(3) 0.7769(3)
H17_5 H 0.7294 0.0004 0.8697
H18_5 H 0.5423 0.0028 0.7880
H19_5 H 0.7165 0.6000 0.8917
C29_5 C 0.6791(4) 0.6824(4) 0.8570(4)
C30_5 C 0.5861(4) 0.6774(4) 0.7744(4)
H20_5 H 0.5547 0.5914 0.7490
N6_5 N 0.6319(4) 0.7117(3) 0.8159(3)
H23_5 H 0.7115 0.7056 0.8842
H24_5 H 0.5538 0.6971 0.7440
Cu7 Cu 0.63297(8) 0.79907(5) 0.81707(8)
N8 N 0.6345(5) 0.8862(4) 0.8232(5)
C15_5 C 0.1985(4) 0.9708(3) 0.7096(3)
C16_5 C 0.3026(4) 0.9722(3) 0.7865(3)
C19_5 C 0.2007(5) 0.9084(4) 0.7122(4)
H13_5 H 0.1626 0.9905 0.6828
H14_5 H 0.3379 0.9929 0.8129
C20_5 C 0.3018(5) 0.9100(4) 0.7859(4)
H15_5 H 0.1658 0.8863 0.6868
H16_5 H 0.3375 0.8890 0.8114
C23_5 C 0.6902(5) 0.9811(4) 0.8499(4)
C24_5 C 0.5812(6) 0.9825(5) 0.8026(10)
C27_5 C 0.6870(5) 0.9175(4) 0.8464(4)
C28_5 C 0.5826(7) 0.9191(6) 0.8019(11)
H21_5 H 0.7252 0.8958 0.8617
H22_5 H 0.5439 0.8985 0.7851
N7_3 N 0.2513(4) 0.8772(3) 0.7500(3)
Mo1_6 Mo 0.61735(3) 0.12861(3) 0.56260(3)
O1_6 O 0.6739(3) 0.1888(2) 0.6072(2)
O2_6 O 0.5661(2) 0.1313(2) 0.5984(2)
O3_6 O 0.6467(3) 0.1490(2) 0.5039(2)
O4_5 O 0.5429(2) 0.0992(2) 0.4960(2)
O5_6 O 0.5735(2) 0.2290(2) 0.5223(2)
O6_6 O 0.6614(2) 0.0657(2) 0.5877(2)
Mo2_6 Mo 0.66343(3) 0.27793(3) 0.59611(3)
Mo3_6 Mo 0.48131(4) 0.14369(3) 0.59545(3)
Mo4_5 Mo 0.62994(3) 0.22431(3) 0.46446(3)
Mo5_6 Mo 0.45525(3) 0.09642(3) 0.45310(3)
P1_6 P 0.50347(8) 0.24871(7) 0.50200(7)
O7_6 O 0.6840(3) 0.2656(2) 0.5346(2)
O8_6 O 0.6143(2) 0.2746(2) 0.6383(2)
O9_6 O 0.7347(3) 0.2983(2) 0.6457(2)
O10_6 O 0.6244(3) 0.3512(2) 0.5677(2)
O11_6 O 0.4076(3) 0.1862(2) 0.5815(2)
O12_6 O 0.4788(3) 0.0860(3) 0.6364(3)
O13_6 O 0.4856(2) 0.2411(2) 0.5506(2)
O14_6 O 0.4497(3) 0.1093(3) 0.5249(2)
O15_6 O 0.5275(3) 0.2058(2) 0.6550(2)
O16_5 O 0.5538(2) 0.1961(2) 0.4075(2)
O17_5 O 0.5930(3) 0.3058(2) 0.4396(2)
O18_5 O 0.6797(3) 0.2171(3) 0.4351(2)
O19_6 O 0.4406(3) 0.0215(3) 0.4421(3)
O20_6 O 0.3681(2) 0.1292(2) 0.4191(2)
O21_6 O 0.4595(3) 0.1191(2) 0.3862(2)
O22_6 O 0.4609(2) 0.2086(2) 0.4528(2)
O23_6 O 0.4967(2) 0.3155(2) 0.4838(2)
Mo6_6 Mo 0.53725(4) 0.28859(3) 0.64307(3)
Mo7_6 Mo 0.54782(3) 0.40322(3) 0.54442(3)
Mo8_6 Mo 0.38213(4) 0.26861(3) 0.54641(3)
Mo9_6 Mo 0.46280(3) 0.20419(3) 0.36092(3)
Mo10_5 Mo 0.52325(3) 0.35853(3) 0.41152(3)
Mo11_6 Mo 0.34618(3) 0.21232(3) 0.40565(3)
Mo12_6 Mo 0.39635(3) 0.37287(3) 0.44251(3)
O24_6 O 0.5334(3) 0.3628(3) 0.5991(2)
O25_6 O 0.4465(3) 0.3000(3) 0.6159(2)
O26_6 O 0.5633(3) 0.3167(3) 0.7080(2)
N1_6 N 0.7521(4) 0.2018(3) 0.7535(3)
N2_4 N 0.7513(4) 0.3772(3) 0.7500(3)
O28_6 O 0.5799(3) 0.4689(3) 0.5764(3)
O29_5 O 0.5569(3) 0.4116(3) 0.4737(2)
O30_6 O 0.4618(2) 0.4236(2) 0.5030(2)
O31_6 O 0.3872(3) 0.3370(2) 0.5074(2)
O32_6 O 0.3492(3) 0.2246(2) 0.4764(2)
O33_6 O 0.3174(3) 0.2821(3) 0.5559(3)
O34_6 O 0.4559(3) 0.1901(3) 0.2965(2)
O35_6 O 0.4745(2) 0.2879(2) 0.3679(2)
O36_6 O 0.3767(2) 0.2107(2) 0.3475(2)
O37_5 O 0.5330(3) 0.3996(3) 0.3628(2)
O38_6 O 0.4380(3) 0.3892(2) 0.3982(2)
O39_6 O 0.3612(3) 0.3002(2) 0.4069(2)
O40_6 O 0.3361(2) 0.4224(2) 0.4172(2)
C1_6 C 0.8055(4) 0.1702(4) 0.7799(3)
C2_6 C 0.6979(4) 0.1707(4) 0.7268(3)
H1_6 H 0.8436 0.1916 0.7984
C3_6 C 0.8069(4) 0.1064(3) 0.7810(3)
C4_6 C 0.6949(4) 0.1078(3) 0.7259(3)
H2_6 H 0.6604 0.1927 0.7077
N3_6 N 0.3568(3) 0.2122(3) 0.6730(3)
N4_6 N 0.3564(4) 0.3868(3) 0.6687(3)
H3_6 H 0.8454 0.0857 0.8002
C5_6 C 0.7503(3) 0.0735(3) 0.7531(3)
H4_6 H 0.6558 0.0881 0.7072
C6_6 C 0.3102(4) 0.1784(3) 0.6345(3)
C7_6 C 0.4069(4) 0.1819(3) 0.7126(4)
C8_6 C 0.3029(4) 0.4211(3) 0.6521(3)
C9_6 C 0.4107(5) 0.4172(4) 0.6863(4)
C10_6 C 0.7498(3) 0.0056(3) 0.7528(3)
C11_6 C 0.3117(4) 0.1152(3) 0.6344(4)
H5_6 H 0.2753 0.1984 0.6068
H6_6 H 0.4402 0.2048 0.7392
C12_6 C 0.4110(4) 0.1189(4) 0.7157(4)
H7_6 H 0.2640 0.4007 0.6387
C13_6 C 0.3028(4) 0.4842(3) 0.6538(3)
C14_6 C 0.4157(4) 0.4804(4) 0.6899(4)
H8_6 H 0.4480 0.3945 0.6970
C17_6 C 0.3622(4) 0.0830(3) 0.6756(4)
H9_6 H 0.2786 0.0937 0.6063
H10_6 H 0.4461 0.1001 0.7443
H11_6 H 0.2646 0.5058 0.6413
C18_6 C 0.3612(4) 0.5157(3) 0.6748(3)
H12_6 H 0.4553 0.4992 0.7024
C21_6 C 0.3637(4) 0.0153(3) 0.6754(4)
C22_6 C 0.3634(4) 0.5832(3) 0.6793(3)
C25_6 C 0.3171(4) 0.6186(3) 0.6385(3)
C26_6 C 0.4128(4) 0.6138(3) 0.7231(3)
H17_6 H 0.2706 0.0004 0.6303
H18_6 H 0.4577 0.0028 0.7120
H19_6 H 0.2835 0.6000 0.6083
C29_6 C 0.3209(4) 0.6824(4) 0.6430(4)
C30_6 C 0.4139(4) 0.6774(4) 0.7256(4)
H20_6 H 0.4453 0.5914 0.7510
N6_6 N 0.3681(4) 0.7117(3) 0.6841(3)
H23_6 H 0.2885 0.7056 0.6158
H24_6 H 0.4462 0.6971 0.7560
Cu7_2 Cu 0.36703(8) 0.79907(5) 0.68293(8)
N8_2 N 0.3655(5) 0.8862(4) 0.6768(5)
C15_6 C 0.8015(4) 0.9708(3) 0.7904(3)
C16_6 C 0.6974(4) 0.9722(3) 0.7135(3)
C19_6 C 0.7993(5) 0.9084(4) 0.7878(4)
H13_6 H 0.8374 0.9905 0.8172
H14_6 H 0.6621 0.9929 0.6871
C20_6 C 0.6982(5) 0.9100(4) 0.7141(4)
H15_6 H 0.8342 0.8863 0.8132
H16_6 H 0.6625 0.8890 0.6886
C23_6 C 0.3098(5) 0.9811(4) 0.6501(4)
C24_6 C 0.4188(6) 0.9825(5) 0.6974(10)
C27_6 C 0.3130(5) 0.9175(4) 0.6536(4)
C28_6 C 0.4174(7) 0.9191(6) 0.6981(11)
H21_6 H 0.2748 0.8958 0.6383
H22_6 H 0.4561 0.8985 0.7149
N7_4 N 0.7487(4) 0.8772(3) 0.7500(3)
H11_7 H 0.2354 0.0058 0.8587
C18_7 C 0.1388(4) 0.0157(3) 0.8252(3)
C22_7 C 0.1366(4) 0.0832(3) 0.8207(3)
C25_7 C 0.1829(4) 0.1186(3) 0.8615(3)
C26_7 C 0.0872(4) 0.1138(3) 0.7769(3)
H19_7 H 0.2165 0.1000 0.8917
C29_7 C 0.1791(4) 0.1824(4) 0.8570(4)
C30_7 C 0.0861(4) 0.1774(4) 0.7744(4)
H20_7 H 0.0547 0.0914 0.7490
N6_7 N 0.1319(4) 0.2117(3) 0.8159(3)
H23_7 H 0.2115 0.2056 0.8842
H24_7 H 0.0538 0.1971 0.7440
Cu7_3 Cu 0.13297(8) 0.29907(5) 0.81707(8)
N8_3 N 0.1345(5) 0.3862(4) 0.8232(5)
Mo5_7 Mo 0.04475(3) 0.59642(3) 0.04690(3)
O19_7 O 0.0594(3) 0.5215(3) 0.0579(3)
O20_7 O 0.1319(2) 0.6292(2) 0.0809(2)
O21_7 O 0.0405(3) 0.6191(2) 0.1138(2)
O22_7 O 0.0391(2) 0.7086(2) 0.0472(2)
O23_7 O 0.0033(2) 0.8155(2) 0.0162(2)
Mo9_7 Mo 0.03720(3) 0.70419(3) 0.13908(3)
Mo11_7 Mo 0.15382(3) 0.71232(3) 0.09435(3)
Mo12_7 Mo 0.10365(3) 0.87287(3) 0.05749(3)
O32_7 O 0.1508(3) 0.7246(2) 0.0236(2)
O34_7 O 0.0441(3) 0.6901(3) 0.2035(2)
O35_7 O 0.0255(2) 0.7879(2) 0.1321(2)
O36_7 O 0.1233(2) 0.7107(2) 0.1525(2)
O38_7 O 0.0620(3) 0.8892(2) 0.1018(2)
O39_7 O 0.1388(3) 0.8002(2) 0.0931(2)
O40_7 O 0.1639(2) 0.9224(2) 0.0828(2)
Mo3_7 Mo 0.01869(4) 0.64369(3) 0.90455(3)
O11_7 O 0.0924(3) 0.6862(2) 0.9185(2)
O12_7 O 0.0212(3) 0.5860(3) 0.8636(3)
O13_7 O 0.0144(2) 0.7411(2) 0.9494(2)
O14_7 O 0.0503(3) 0.6093(3) 0.9751(2)
Mo8_7 Mo 0.11787(4) 0.76861(3) 0.95359(3)
O25_7 O 0.0535(3) 0.8000(3) 0.8841(2)
O30_7 O 0.0382(2) 0.9236(2) 0.9970(2)
O31_7 O 0.1128(3) 0.8370(2) 0.9926(2)
O33_7 O 0.1826(3) 0.7821(3) 0.9441(3)
N3_7 N 0.1432(3) 0.7122(3) 0.8270(3)
N4_7 N 0.1436(4) 0.8868(3) 0.8313(3)
C6_7 C 0.1898(4) 0.6784(3) 0.8655(3)
C7_7 C 0.0931(4) 0.6819(3) 0.7874(4)
C8_7 C 0.1971(4) 0.9211(3) 0.8479(3)
C9_7 C 0.0893(5) 0.9172(4) 0.8137(4)
C11_7 C 0.1883(4) 0.6152(3) 0.8656(4)
H5_7 H 0.2247 0.6984 0.8932
H6_7 H 0.0598 0.7048 0.7608
C12_7 C 0.0890(4) 0.6189(4) 0.7843(4)
H7_7 H 0.2360 0.9007 0.8613
C13_7 C 0.1972(4) 0.9842(3) 0.8462(3)
C14_7 C 0.0843(4) 0.9804(4) 0.8101(4)
H8_7 H 0.0520 0.8945 0.8030
C17_7 C 0.1378(4) 0.5830(3) 0.8244(4)
H9_7 H 0.2214 0.5937 0.8937
H10_7 H 0.0539 0.6001 0.7557
H12_7 H 0.0447 0.9992 0.7976
C21_7 C 0.1363(4) 0.5153(3) 0.8246(4)
C23_7 C 0.1902(5) 0.4811(4) 0.8499(4)
C24_7 C 0.0812(6) 0.4825(5) 0.8026(10)
C27_7 C 0.1870(5) 0.4175(4) 0.8464(4)
H17_7 H 0.2294 0.5004 0.8697
H18_7 H 0.0423 0.5028 0.7880
C28_7 C 0.0826(7) 0.4191(6) 0.8019(11)
H21_7 H 0.2252 0.3958 0.8617
H22_7 H 0.0439 0.3985 0.7851
Mo1_7 Mo 0.88265(3) 0.62861(3) 0.93740(3)
O1_7 O 0.8261(3) 0.6888(2) 0.8928(2)
O2_7 O 0.9339(2) 0.6313(2) 0.9016(2)
O3_7 O 0.8533(3) 0.6490(2) 0.9961(2)
O5_7 O 0.9265(2) 0.7290(2) 0.9777(2)
O6_7 O 0.8386(2) 0.5657(2) 0.9123(2)
Mo2_7 Mo 0.83657(3) 0.77793(3) 0.90389(3)
P1_7 P 0.99653(8) 0.74871(7) 0.99800(7)
O7_7 O 0.8160(3) 0.7656(2) 0.9654(2)
O8_7 O 0.8857(2) 0.7746(2) 0.8617(2)
O9_7 O 0.7653(3) 0.7983(2) 0.8543(2)
O10_7 O 0.8756(3) 0.8512(2) 0.9323(2)
O15_7 O 0.9725(3) 0.7058(2) 0.8450(2)
Mo6_7 Mo 0.96275(4) 0.78859(3) 0.85693(3)
Mo7_7 Mo 0.95218(3) 0.90322(3) 0.95558(3)
O24_7 O 0.9666(3) 0.8628(3) 0.9009(2)
O26_7 O 0.9367(3) 0.8167(3) 0.7920(2)
N1_7 N 0.7479(4) 0.7018(3) 0.7465(3)
O28_7 O 0.9201(3) 0.9689(3) 0.9236(3)
C1_7 C 0.6945(4) 0.6702(4) 0.7201(3)
C2_7 C 0.8021(4) 0.6707(4) 0.7732(3)
H1_7 H 0.6564 0.6916 0.7016
C3_7 C 0.6931(4) 0.6064(3) 0.7190(3)
C4_7 C 0.8051(4) 0.6078(3) 0.7741(3)
H2_7 H 0.8396 0.6927 0.7923
H3_7 H 0.6546 0.5857 0.6998
C5_7 C 0.7497(3) 0.5735(3) 0.7469(3)
H4_7 H 0.8442 0.5881 0.7928
C10_7 C 0.7502(3) 0.5056(3) 0.7472(3)
C15_7 C 0.6985(4) 0.4708(3) 0.7096(3)
C16_7 C 0.8026(4) 0.4722(3) 0.7865(3)
C19_7 C 0.7007(5) 0.4084(4) 0.7122(4)
H13_7 H 0.6626 0.4905 0.6828
H14_7 H 0.8379 0.4929 0.8129
C20_7 C 0.8018(5) 0.4100(4) 0.7859(4)
H15_7 H 0.6658 0.3863 0.6868
H16_7 H 0.8375 0.3890 0.8114
Mo1_8 Mo 0.11735(3) 0.62861(3) 0.56260(3)
O1_8 O 0.1739(3) 0.6888(2) 0.6072(2)
O2_8 O 0.0661(2) 0.6313(2) 0.5984(2)
O3_8 O 0.1467(3) 0.6490(2) 0.5039(2)
O4_6 O 0.0429(2) 0.5992(2) 0.4960(2)
O5_8 O 0.0735(2) 0.7290(2) 0.5223(2)
O6_8 O 0.1614(2) 0.5657(2) 0.5877(2)
Mo2_8 Mo 0.16343(3) 0.77793(3) 0.59611(3)
Mo4_6 Mo 0.12994(3) 0.72431(3) 0.46446(3)
P1_8 P 0.00347(8) 0.74871(7) 0.50200(7)
O7_8 O 0.1840(3) 0.7656(2) 0.5346(2)
O8_8 O 0.1143(2) 0.7746(2) 0.6383(2)
O9_8 O 0.2347(3) 0.7983(2) 0.6457(2)
O10_8 O 0.1244(3) 0.8512(2) 0.5677(2)
O15_8 O 0.0275(3) 0.7058(2) 0.6550(2)
O16_6 O 0.0538(2) 0.6961(2) 0.4075(2)
O17_6 O 0.0930(3) 0.8058(2) 0.4396(2)
O18_6 O 0.1797(3) 0.7171(3) 0.4351(2)
Mo6_8 Mo 0.03725(4) 0.78859(3) 0.64307(3)
Mo7_8 Mo 0.04782(3) 0.90322(3) 0.54442(3)
Mo10_6 Mo 0.02325(3) 0.85853(3) 0.41152(3)
O24_8 O 0.0334(3) 0.8628(3) 0.5991(2)
O26_8 O 0.0633(3) 0.8167(3) 0.7080(2)
N1_8 N 0.2521(4) 0.7018(3) 0.7535(3)
O28_8 O 0.0799(3) 0.9689(3) 0.5764(3)
O29_6 O 0.0569(3) 0.9116(3) 0.4737(2)
O37_6 O 0.0330(3) 0.8996(3) 0.3628(2)
C1_8 C 0.3055(4) 0.6702(4) 0.7799(3)
C2_8 C 0.1979(4) 0.6707(4) 0.7268(3)
H1_8 H 0.3436 0.6916 0.7984
C3_8 C 0.3069(4) 0.6064(3) 0.7810(3)
C4_8 C 0.1949(4) 0.6078(3) 0.7259(3)
H2_8 H 0.1604 0.6927 0.7077
H3_8 H 0.3454 0.5857 0.8002
C5_8 C 0.2503(3) 0.5735(3) 0.7531(3)
H4_8 H 0.1558 0.5881 0.7072
C10_8 C 0.2498(3) 0.5056(3) 0.7528(3)
C15_8 C 0.3015(4) 0.4708(3) 0.7904(3)
C16_8 C 0.1974(4) 0.4722(3) 0.7135(3)
C19_8 C 0.2993(5) 0.4084(4) 0.7878(4)
H13_8 H 0.3374 0.4905 0.8172
H14_8 H 0.1621 0.4929 0.6871
C20_8 C 0.1982(5) 0.4100(4) 0.7141(4)
H15_8 H 0.3342 0.3863 0.8132
H16_8 H 0.1625 0.3890 0.6886
H11_8 H 0.7646 0.0058 0.6413
C18_8 C 0.8612(4) 0.0157(3) 0.6748(3)
C22_8 C 0.8634(4) 0.0832(3) 0.6793(3)
C25_8 C 0.8171(4) 0.1186(3) 0.6385(3)
C26_8 C 0.9128(4) 0.1138(3) 0.7231(3)
H19_8 H 0.7835 0.1000 0.6083
C29_8 C 0.8209(4) 0.1824(4) 0.6430(4)
C30_8 C 0.9139(4) 0.1774(4) 0.7256(4)
H20_8 H 0.9453 0.0914 0.7510
N6_8 N 0.8681(4) 0.2117(3) 0.6841(3)
H23_8 H 0.7885 0.2056 0.6158
H24_8 H 0.9462 0.1971 0.7560
Cu7_4 Cu 0.86703(8) 0.29907(5) 0.68293(8)
N8_4 N 0.8655(5) 0.3862(4) 0.6768(5)
Mo3_8 Mo 0.98131(4) 0.64369(3) 0.59545(3)
Mo5_8 Mo 0.95525(3) 0.59642(3) 0.45310(3)
O11_8 O 0.9076(3) 0.6862(2) 0.5815(2)
O12_8 O 0.9788(3) 0.5860(3) 0.6364(3)
O13_8 O 0.9856(2) 0.7411(2) 0.5506(2)
O14_8 O 0.9497(3) 0.6093(3) 0.5249(2)
O19_8 O 0.9406(3) 0.5215(3) 0.4421(3)
O20_8 O 0.8681(2) 0.6292(2) 0.4191(2)
O21_8 O 0.9595(3) 0.6191(2) 0.3862(2)
O22_8 O 0.9609(2) 0.7086(2) 0.4528(2)
O23_8 O 0.9967(2) 0.8155(2) 0.4838(2)
Mo8_8 Mo 0.88213(4) 0.76861(3) 0.54641(3)
Mo9_8 Mo 0.96280(3) 0.70419(3) 0.36092(3)
Mo11_8 Mo 0.84618(3) 0.71232(3) 0.40565(3)
Mo12_8 Mo 0.89635(3) 0.87287(3) 0.44251(3)
O25_8 O 0.9465(3) 0.8000(3) 0.6159(2)
O30_8 O 0.9618(2) 0.9236(2) 0.5030(2)
O31_8 O 0.8872(3) 0.8370(2) 0.5074(2)
O32_8 O 0.8492(3) 0.7246(2) 0.4764(2)
O33_8 O 0.8174(3) 0.7821(3) 0.5559(3)
O34_8 O 0.9559(3) 0.6901(3) 0.2965(2)
O35_8 O 0.9745(2) 0.7879(2) 0.3679(2)
O36_8 O 0.8767(2) 0.7107(2) 0.3475(2)
O38_8 O 0.9380(3) 0.8892(2) 0.3982(2)
O39_8 O 0.8612(3) 0.8002(2) 0.4069(2)
O40_8 O 0.8361(2) 0.9224(2) 0.4172(2)
N3_8 N 0.8568(3) 0.7122(3) 0.6730(3)
N4_8 N 0.8564(4) 0.8868(3) 0.6687(3)
C6_8 C 0.8102(4) 0.6784(3) 0.6345(3)
C7_8 C 0.9069(4) 0.6819(3) 0.7126(4)
C8_8 C 0.8029(4) 0.9211(3) 0.6521(3)
C9_8 C 0.9107(5) 0.9172(4) 0.6863(4)
C11_8 C 0.8117(4) 0.6152(3) 0.6344(4)
H5_8 H 0.7753 0.6984 0.6068
H6_8 H 0.9402 0.7048 0.7392
C12_8 C 0.9110(4) 0.6189(4) 0.7157(4)
H7_8 H 0.7640 0.9007 0.6387
C13_8 C 0.8028(4) 0.9842(3) 0.6538(3)
C14_8 C 0.9157(4) 0.9804(4) 0.6899(4)
H8_8 H 0.9480 0.8945 0.6970
C17_8 C 0.8622(4) 0.5830(3) 0.6756(4)
H9_8 H 0.7786 0.5937 0.6063
H10_8 H 0.9461 0.6001 0.7443
H12_8 H 0.9553 0.9992 0.7024
C21_8 C 0.8637(4) 0.5153(3) 0.6754(4)
C23_8 C 0.8098(5) 0.4811(4) 0.6501(4)
C24_8 C 0.9188(6) 0.4825(5) 0.6974(10)
C27_8 C 0.8130(5) 0.4175(4) 0.6536(4)
H17_8 H 0.7706 0.5004 0.6303
H18_8 H 0.9577 0.5028 0.7120
C28_8 C 0.9174(7) 0.4191(6) 0.6981(11)
H21_8 H 0.7748 0.3958 0.6383
H22_8 H 0.9561 0.3985 0.7149
O4_7 O 0.0429(2) 0.4008(2) 0.9960(2)
Mo4_7 Mo 0.12994(3) 0.27569(3) 0.96446(3)
O16_7 O 0.0538(2) 0.3039(2) 0.9075(2)
O17_7 O 0.0930(3) 0.1942(2) 0.9396(2)
O18_7 O 0.1797(3) 0.2829(3) 0.9351(2)
Mo10_7 Mo 0.02325(3) 0.14147(3) 0.91152(3)
O29_7 O 0.0569(3) 0.0884(3) 0.9737(2)
O37_7 O 0.0330(3) 0.1004(3) 0.8628(2)
O4_8 O 0.9571(2) 0.5992(2) 0.0040(2)
Mo4_8 Mo 0.87006(3) 0.72431(3) 0.03554(3)
O16_8 O 0.9462(2) 0.6961(2) 0.0925(2)
O17_8 O 0.9070(3) 0.8058(2) 0.0604(2)
O18_8 O 0.8203(3) 0.7171(3) 0.0649(2)
Mo10_8 Mo 0.97675(3) 0.85853(3) 0.08848(3)
O29_8 O 0.9431(3) 0.9116(3) 0.0263(2)
O37_8 O 0.9670(3) 0.8996(3) 0.1372(2)
loop_
_geom_bond_atom_site_label_1
_geom_bond_atom_site_label_2
_geom_bond_site_symmetry_1
_geom_bond_site_symmetry_2
C19 C15 1_555 1_555
H13 C15 1_555 1_555
H14 C16 1_555 1_555
C20 C16 1_555 1_555
H15 C19 1_555 1_555
H16 C20 1_555 1_555
C27 C23 1_555 1_555
C28 C24 1_555 1_555
N5 C27 1_555 1_555
H21 C27 1_555 1_555
H22 C28 1_555 1_555
Cu3 N5 1_555 1_555
N7 C19 1_555 1_555
Cu6 N7 1_555 1_555
C20 N7 1_555 1_555
C28 N5 1_555 1_555
Mo1 O1 1_555 1_555
O1 Mo2 1_555 1_555
O2 Mo1 1_555 1_555
O3 Mo1 1_555 1_555
O5 Mo1 1_555 1_555
O6 Mo1 1_555 1_555
Mo2 O5 1_555 1_555
Mo3 O2 1_555 1_555
P1 O5 1_555 1_555
O7 Mo2 1_555 1_555
O8 Mo2 1_555 1_555
O9 Mo2 1_555 1_555
O10 Mo2 1_555 1_555
O11 Mo3 1_555 1_555
O12 Mo3 1_555 1_555
O13 Mo3 1_555 1_555
O14 Mo3 1_555 1_555
O15 Mo3 1_555 1_555
Mo6 O8 1_555 1_555
Cu1 O9 1_555 1_555
Mo7 O10 1_555 1_555
Mo8 O11 1_555 1_555
O24 Mo6 1_555 1_555
O25 Mo6 1_555 1_555
O26 Mo6 1_555 1_555
N1 Cu1 1_555 1_555
O27 Cu1 1_555 1_555
N2 Cu1 1_555 1_555
O28 Mo7 1_555 1_555
O30 Mo7 1_555 1_555
O31 Mo8 1_555 1_555
O33 Mo8 1_555 1_555
C1 N1 1_555 1_555
C2 N1 1_555 1_555
Cu2 O33 1_555 1_555
H1 C1 1_555 1_555
C3 C1 1_555 1_555
C4 C2 1_555 1_555
H2 C2 1_555 1_555
N3 Cu2 1_555 1_555
N4 Cu2 1_555 1_555
H3 C3 1_555 1_555
C5 C3 1_555 1_555
H4 C4 1_555 1_555
C6 N3 1_555 1_555
C7 N3 1_555 1_555
C8 N4 1_555 1_555
C9 N4 1_555 1_555
C10 C5 1_555 1_555
C11 C6 1_555 1_555
H5 C6 1_555 1_555
H6 C7 1_555 1_555
C12 C7 1_555 1_555
H7 C8 1_555 1_555
C13 C8 1_555 1_555
C14 C9 1_555 1_555
H8 C9 1_555 1_555
C17 C11 1_555 1_555
H9 C11 1_555 1_555
H10 C12 1_555 1_555
H11 C13 1_555 1_555
C18 C13 1_555 1_555
H12 C14 1_555 1_555
C21 C17 1_555 1_555
C22 C18 1_555 1_555
C25 C22 1_555 1_555
C26 C22 1_555 1_555
H19 C25 1_555 1_555
C29 C25 1_555 1_555
C30 C26 1_555 1_555
H20 C26 1_555 1_555
N6 C29 1_555 1_555
H23 C29 1_555 1_555
H24 C30 1_555 1_555
O42 Cu2 1_555 1_555
Cu3 N6 1_555 1_555
P1 O13 1_555 1_555
O13 Mo6 1_555 1_555
O13 Mo8 1_555 1_555
O15 Mo6 1_555 1_555
Mo7 O24 1_555 1_555
Mo8 O25 1_555 1_555
C4 C5 1_555 1_555
C12 C17 1_555 1_555
C14 C18 1_555 1_555
C30 N6 1_555 1_555
Mo5 O4 1_555 1_555
O16 Mo4 1_555 1_555
O17 Mo4 1_555 1_555
O18 Mo4 1_555 1_555
O19 Mo5 1_555 1_555
O20 Mo5 1_555 1_555
O21 Mo5 1_555 1_555
O22 Mo5 1_555 1_555
Mo9 O16 1_555 1_555
Mo10 O17 1_555 1_555
Mo11 O20 1_555 1_555
Mo12 O23 1_555 1_555
O34 Mo9 1_555 1_555
O35 Mo9 1_555 1_555
O36 Mo9 1_555 1_555
O37 Mo10 1_555 1_555
O38 Mo10 1_555 1_555
O39 Mo11 1_555 1_555
O40 Mo12 1_555 1_555
O41 Mo11 1_555 1_555
Cu4 O41 1_555 1_555
Cu5 O41 1_555 1_555
O21 Mo9 1_555 1_555
O22 Mo9 1_555 1_555
O22 Mo11 1_555 1_555
O23 Mo10 1_555 1_555
Mo10 O29 1_555 1_555
Mo10 O35 1_555 1_555
Mo11 O32 1_555 1_555
Mo11 O36 1_555 1_555
Mo12 O38 1_555 1_555
Mo12 O39 1_555 1_555
C19_2 C15_2 1_555 1_555
H13_2 C15_2 1_555 1_555
H14_2 C16_2 1_555 1_555
C20_2 C16_2 1_555 1_555
H15_2 C19_2 1_555 1_555
H16_2 C20_2 1_555 1_555
C27_2 C23_2 1_555 1_555
C28_2 C24_2 1_555 1_555
N5_2 C27_2 1_555 1_555
H21_2 C27_2 1_555 1_555
H22_2 C28_2 1_555 1_555
Cu3_2 N5_2 1_555 1_555
N7_2 C19_2 1_555 1_555
Cu6_2 N7_2 1_555 1_555
C20_2 N7_2 1_555 1_555
C28_2 N5_2 1_555 1_555
Mo1_2 O1_2 1_555 1_555
O1_2 Mo2_2 1_555 1_555
O2_2 Mo1_2 1_555 1_555
O3_2 Mo1_2 1_555 1_555
O4_2 Mo1_2 1_555 1_555
O5_2 Mo1_2 1_555 1_555
O6_2 Mo1_2 1_555 1_555
Mo2_2 O5_2 1_555 1_555
Mo3_2 O2_2 1_555 1_555
Mo4_2 O3_2 1_555 1_555
Mo5_2 O4_2 1_555 1_555
P1_2 O5_2 1_555 1_555
O7_2 Mo2_2 1_555 1_555
O8_2 Mo2_2 1_555 1_555
O9_2 Mo2_2 1_555 1_555
O10_2 Mo2_2 1_555 1_555
O11_2 Mo3_2 1_555 1_555
O12_2 Mo3_2 1_555 1_555
O13_2 Mo3_2 1_555 1_555
O14_2 Mo3_2 1_555 1_555
O15_2 Mo3_2 1_555 1_555
O16_2 Mo4_2 1_555 1_555
O17_2 Mo4_2 1_555 1_555
O18_2 Mo4_2 1_555 1_555
O19_2 Mo5_2 1_555 1_555
O20_2 Mo5_2 1_555 1_555
O21_2 Mo5_2 1_555 1_555
O22_2 Mo5_2 1_555 1_555
O23_2 P1_2 1_555 1_555
Mo6_2 O8_2 1_555 1_555
Cu1_2 O9_2 1_555 1_555
Mo7_2 O10_2 1_555 1_555
Mo8_2 O11_2 1_555 1_555
Mo9_2 O16_2 1_555 1_555
Mo10_2 O17_2 1_555 1_555
Mo11_2 O20_2 1_555 1_555
Mo12_2 O23_2 1_555 1_555
O24_2 Mo6_2 1_555 1_555
O25_2 Mo6_2 1_555 1_555
O26_2 Mo6_2 1_555 1_555
N1_2 Cu1_2 1_555 1_555
O42 Cu1_2 1_555 1_555
N2_2 Cu1_2 1_555 1_555
O28_2 Mo7_2 1_555 1_555
O29_2 Mo7_2 1_555 1_555
O30_2 Mo7_2 1_555 1_555
O31_2 Mo8_2 1_555 1_555
O32_2 Mo8_2 1_555 1_555
O33_2 Mo8_2 1_555 1_555
O34_2 Mo9_2 1_555 1_555
O35_2 Mo9_2 1_555 1_555
O36_2 Mo9_2 1_555 1_555
O37_2 Mo10_2 1_555 1_555
O38_2 Mo10_2 1_555 1_555
O39_2 Mo11_2 1_555 1_555
O40_2 Mo12_2 1_555 1_555
C1_2 N1_2 1_555 1_555
C2_2 N1_2 1_555 1_555
Cu2_2 O33_2 1_555 1_555
H1_2 C1_2 1_555 1_555
C3_2 C1_2 1_555 1_555
C4_2 C2_2 1_555 1_555
H2_2 C2_2 1_555 1_555
N3_2 Cu2_2 1_555 1_555
N4_2 Cu2_2 1_555 1_555
H3_2 C3_2 1_555 1_555
C5_2 C3_2 1_555 1_555
H4_2 C4_2 1_555 1_555
C6_2 N3_2 1_555 1_555
C7_2 N3_2 1_555 1_555
C8_2 N4_2 1_555 1_555
C9_2 N4_2 1_555 1_555
C10_2 C5_2 1_555 1_555
C11_2 C6_2 1_555 1_555
H5_2 C6_2 1_555 1_555
H6_2 C7_2 1_555 1_555
C12_2 C7_2 1_555 1_555
H7_2 C8_2 1_555 1_555
C13_2 C8_2 1_555 1_555
C14_2 C9_2 1_555 1_555
H8_2 C9_2 1_555 1_555
C17_2 C11_2 1_555 1_555
H9_2 C11_2 1_555 1_555
H10_2 C12_2 1_555 1_555
H11_2 C13_2 1_555 1_555
C18_2 C13_2 1_555 1_555
H12_2 C14_2 1_555 1_555
C21_2 C17_2 1_555 1_555
C22_2 C18_2 1_555 1_555
C25_2 C22_2 1_555 1_555
C26_2 C22_2 1_555 1_555
H19_2 C25_2 1_555 1_555
C29_2 C25_2 1_555 1_555
C30_2 C26_2 1_555 1_555
H20_2 C26_2 1_555 1_555
N6_2 C29_2 1_555 1_555
H23_2 C29_2 1_555 1_555
H24_2 C30_2 1_555 1_555
O41_2 Mo11_2 1_555 1_555
Cu4_2 O41_2 1_555 1_555
Cu5_2 O41_2 1_555 1_555
O27 Cu2_2 1_555 1_555
Cu3_2 N6_2 1_555 1_555
O5_2 Mo4_2 1_555 1_555
Mo4_2 O7_2 1_555 1_555
Mo5_2 O14_2 1_555 1_555
P1_2 O13_2 1_555 1_555
P1_2 O22_2 1_555 1_555
O13_2 Mo6_2 1_555 1_555
O13_2 Mo8_2 1_555 1_555
O15_2 Mo6_2 1_555 1_555
O21_2 Mo9_2 1_555 1_555
O22_2 Mo9_2 1_555 1_555
O22_2 Mo11_2 1_555 1_555
O23_2 Mo7_2 1_555 1_555
O23_2 Mo10_2 1_555 1_555
Mo7_2 O24_2 1_555 1_555
Mo8_2 O25_2 1_555 1_555
Mo10_2 O29_2 1_555 1_555
Mo10_2 O35_2 1_555 1_555
Mo11_2 O32_2 1_555 1_555
Mo11_2 O36_2 1_555 1_555
Mo12_2 O30_2 1_555 1_555
Mo12_2 O31_2 1_555 1_555
Mo12_2 O38_2 1_555 1_555
Mo12_2 O39_2 1_555 1_555
C4_2 C5_2 1_555 1_555
C12_2 C17_2 1_555 1_555
C14_2 C18_2 1_555 1_555
C30_2 N6_2 1_555 1_555
Mo1_3 O1_3 1_555 1_555
O1_3 Mo2_3 1_555 1_555
O2_3 Mo1_3 1_555 1_555
O3_3 Mo1_3 1_555 1_555
O5_3 Mo1_3 1_555 1_555
O6_3 Mo1_3 1_555 1_555
Mo2_3 O5_3 1_555 1_555
P1_3 O5_3 1_555 1_555
O7_3 Mo2_3 1_555 1_555
O8_3 Mo2_3 1_555 1_555
O9_3 Mo2_3 1_555 1_555
O10_3 Mo2_3 1_555 1_555
Mo6_3 O8_3 1_555 1_555
Cu6_2 O9_3 1_555 1_555
Mo7_3 O10_3 1_555 1_555
O24_3 Mo6_3 1_555 1_555
O26_3 Mo6_3 1_555 1_555
N1_3 Cu6_2 1_555 1_555
O27_2 Cu6_2 1_555 1_555
O28_3 Mo7_3 1_555 1_555
C1_3 N1_3 1_555 1_555
C2_3 N1_3 1_555 1_555
H1_3 C1_3 1_555 1_555
C3_3 C1_3 1_555 1_555
C4_3 C2_3 1_555 1_555
H2_3 C2_3 1_555 1_555
H3_3 C3_3 1_555 1_555
C5_3 C3_3 1_555 1_555
H4_3 C4_3 1_555 1_555
C10_3 C5_3 1_555 1_555
C15_3 C10_3 1_555 1_555
C16_3 C10_3 1_555 1_555
C19_3 C15_3 1_555 1_555
H13_3 C15_3 1_555 1_555
H14_3 C16_3 1_555 1_555
C20_3 C16_3 1_555 1_555
H15_3 C19_3 1_555 1_555
H16_3 C20_3 1_555 1_555
N2_2 C19_3 1_555 1_555
O15_3 Mo6_3 1_555 1_555
Mo7_3 O24_3 1_555 1_555
C4_3 C5_3 1_555 1_555
C20_3 N2_2 1_555 1_555
O11_3 Mo3_3 1_555 1_555
O12_3 Mo3_3 1_555 1_555
O13_3 Mo3_3 1_555 1_555
O14_3 Mo3_3 1_555 1_555
Mo8_3 O11_3 1_555 1_555
O31_3 Mo8_3 1_555 1_555
O33_3 Mo8_3 1_555 1_555
Cu2_3 O33_3 1_555 1_555
N3_3 Cu2_3 1_555 1_555
N4_3 Cu2_3 1_555 1_555
C6_3 N3_3 1_555 1_555
C7_3 N3_3 1_555 1_555
C8_3 N4_3 1_555 1_555
C9_3 N4_3 1_555 1_555
C11_3 C6_3 1_555 1_555
H5_3 C6_3 1_555 1_555
H6_3 C7_3 1_555 1_555
C12_3 C7_3 1_555 1_555
H7_3 C8_3 1_555 1_555
C13_3 C8_3 1_555 1_555
C14_3 C9_3 1_555 1_555
H8_3 C9_3 1_555 1_555
C17_3 C11_3 1_555 1_555
H9_3 C11_3 1_555 1_555
H10_3 C12_3 1_555 1_555
H12_3 C14_3 1_555 1_555
C21_3 C17_3 1_555 1_555
C23_3 C21_3 1_555 1_555
C24_3 C21_3 1_555 1_555
C27_3 C23_3 1_555 1_555
H17_3 C23_3 1_555 1_555
H18_3 C24_3 1_555 1_555
C28_3 C24_3 1_555 1_555
N5_3 C27_3 1_555 1_555
H21_3 C27_3 1_555 1_555
H22_3 C28_3 1_555 1_555
Cu3_3 N5_3 1_555 1_555
O42_2 Cu2_3 1_555 1_555
O13_3 Mo8_3 1_555 1_555
Mo8_3 O25_3 1_555 1_555
C12_3 C17_3 1_555 1_555
C28_3 N5_3 1_555 1_555
O19_3 Mo5_3 1_555 1_555
O20_3 Mo5_3 1_555 1_555
O21_3 Mo5_3 1_555 1_555
O22_3 Mo5_3 1_555 1_555
Mo11_3 O20_3 1_555 1_555
Mo12_3 O23_3 1_555 1_555
O34_3 Mo9_3 1_555 1_555
O35_3 Mo9_3 1_555 1_555
O36_3 Mo9_3 1_555 1_555
O39_3 Mo11_3 1_555 1_555
O40_3 Mo12_3 1_555 1_555
O41_3 Mo11_3 1_555 1_555
Cu4_3 O41_3 1_555 1_555
Cu5_3 O41_3 1_555 1_555
O21_3 Mo9_3 1_555 1_555
O22_3 Mo9_3 1_555 1_555
O22_3 Mo11_3 1_555 1_555
Mo11_3 O32_3 1_555 1_555
Mo11_3 O36_3 1_555 1_555
Mo12_3 O38_3 1_555 1_555
Mo12_3 O39_3 1_555 1_555
C22_3 C18_3 1_555 1_555
C25_3 C22_3 1_555 1_555
C26_3 C22_3 1_555 1_555
H19_3 C25_3 1_555 1_555
C29_3 C25_3 1_555 1_555
C30_3 C26_3 1_555 1_555
H20_3 C26_3 1_555 1_555
N6_3 C29_3 1_555 1_555
H23_3 C29_3 1_555 1_555
H24_3 C30_3 1_555 1_555
Cu3_3 N6_3 1_555 1_555
C30_3 N6_3 1_555 1_555
O11_4 Mo3_4 1_555 1_555
O12_4 Mo3_4 1_555 1_555
O13_4 Mo3_4 1_555 1_555
O14_4 Mo3_4 1_555 1_555
O19_4 Mo5_4 1_555 1_555
O20_4 Mo5_4 1_555 1_555
O21_4 Mo5_4 1_555 1_555
O22_4 Mo5_4 1_555 1_555
Mo8_4 O11_4 1_555 1_555
Mo11_4 O20_4 1_555 1_555
Mo12_4 O23_4 1_555 1_555
O31_4 Mo8_4 1_555 1_555
O32_4 Mo8_4 1_555 1_555
O33_4 Mo8_4 1_555 1_555
O34_4 Mo9_4 1_555 1_555
O35_4 Mo9_4 1_555 1_555
O36_4 Mo9_4 1_555 1_555
O39_4 Mo11_4 1_555 1_555
O40_4 Mo12_4 1_555 1_555
Cu2_4 O33_4 1_555 1_555
N3_4 Cu2_4 1_555 1_555
N4_4 Cu2_4 1_555 1_555
C6_4 N3_4 1_555 1_555
C7_4 N3_4 1_555 1_555
C8_4 N4_4 1_555 1_555
C9_4 N4_4 1_555 1_555
C11_4 C6_4 1_555 1_555
H5_4 C6_4 1_555 1_555
H6_4 C7_4 1_555 1_555
C12_4 C7_4 1_555 1_555
H7_4 C8_4 1_555 1_555
C13_4 C8_4 1_555 1_555
C14_4 C9_4 1_555 1_555
H8_4 C9_4 1_555 1_555
C17_4 C11_4 1_555 1_555
H9_4 C11_4 1_555 1_555
H10_4 C12_4 1_555 1_555
H12_4 C14_4 1_555 1_555
C21_4 C17_4 1_555 1_555
C23_4 C21_4 1_555 1_555
C24_4 C21_4 1_555 1_555
C27_4 C23_4 1_555 1_555
H17_4 C23_4 1_555 1_555
H18_4 C24_4 1_555 1_555
C28_4 C24_4 1_555 1_555
N5_4 C27_4 1_555 1_555
H21_4 C27_4 1_555 1_555
H22_4 C28_4 1_555 1_555
Cu3_4 N5_4 1_555 1_555
O41_4 Mo11_4 1_555 1_555
Cu4_4 O41_4 1_555 1_555
Cu5_4 O41_4 1_555 1_555
O27_2 Cu2_4 1_555 1_555
Mo5_4 O14_4 1_555 1_555
O13_4 Mo8_4 1_555 1_555
O21_4 Mo9_4 1_555 1_555
O22_4 Mo9_4 1_555 1_555
O22_4 Mo11_4 1_555 1_555
Mo8_4 O25_4 1_555 1_555
Mo11_4 O32_4 1_555 1_555
Mo11_4 O36_4 1_555 1_555
Mo12_4 O30_4 1_555 1_555
Mo12_4 O31_4 1_555 1_555
Mo12_4 O38_4 1_555 1_555
Mo12_4 O39_4 1_555 1_555
C12_4 C17_4 1_555 1_555
C28_4 N5_4 1_555 1_555
C22_4 C18_4 1_555 1_555
C25_4 C22_4 1_555 1_555
C26_4 C22_4 1_555 1_555
H19_4 C25_4 1_555 1_555
C29_4 C25_4 1_555 1_555
C30_4 C26_4 1_555 1_555
H20_4 C26_4 1_555 1_555
N6_4 C29_4 1_555 1_555
H23_4 C29_4 1_555 1_555
H24_4 C30_4 1_555 1_555
Cu3_4 N6_4 1_555 1_555
C30_4 N6_4 1_555 1_555
Mo1_4 O1_4 1_555 1_555
O1_4 Mo2_4 1_555 1_555
O2_4 Mo1_4 1_555 1_555
O3_4 Mo1_4 1_555 1_555
O4_3 Mo1_4 1_555 1_555
O5_4 Mo1_4 1_555 1_555
O6_4 Mo1_4 1_555 1_555
Mo2_4 O5_4 1_555 1_555
Mo4_3 O3_4 1_555 1_555
P1_4 O5_4 1_555 1_555
O7_4 Mo2_4 1_555 1_555
O8_4 Mo2_4 1_555 1_555
O9_4 Mo2_4 1_555 1_555
O10_4 Mo2_4 1_555 1_555
O16_3 Mo4_3 1_555 1_555
O17_3 Mo4_3 1_555 1_555
O18_3 Mo4_3 1_555 1_555
Mo6_4 O8_4 1_555 1_555
Cu6 O9_4 1_555 1_555
Mo7_4 O10_4 1_555 1_555
Mo10_3 O17_3 1_555 1_555
O24_4 Mo6_4 1_555 1_555
O26_4 Mo6_4 1_555 1_555
N1_4 Cu6 1_555 1_555
O42_2 Cu6 1_555 1_555
O28_4 Mo7_4 1_555 1_555
O29_3 Mo7_4 1_555 1_555
O37_3 Mo10_3 1_555 1_555
C1_4 N1_4 1_555 1_555
C2_4 N1_4 1_555 1_555
H1_4 C1_4 1_555 1_555
C3_4 C1_4 1_555 1_555
C4_4 C2_4 1_555 1_555
H2_4 C2_4 1_555 1_555
H3_4 C3_4 1_555 1_555
C5_4 C3_4 1_555 1_555
H4_4 C4_4 1_555 1_555
C10_4 C5_4 1_555 1_555
C15_4 C10_4 1_555 1_555
C16_4 C10_4 1_555 1_555
C19_4 C15_4 1_555 1_555
H13_4 C15_4 1_555 1_555
H14_4 C16_4 1_555 1_555
C20_4 C16_4 1_555 1_555
H15_4 C19_4 1_555 1_555
H16_4 C20_4 1_555 1_555
N2 C19_4 1_555 1_555
O5_4 Mo4_3 1_555 1_555
Mo4_3 O7_4 1_555 1_555
O15_4 Mo6_4 1_555 1_555
Mo7_4 O24_4 1_555 1_555
Mo10_3 O29_3 1_555 1_555
C4_4 C5_4 1_555 1_555
C20_4 N2 1_555 1_555
Mo5_5 O4_4 1_555 1_555
O16_4 Mo4_4 1_555 1_555
O17_4 Mo4_4 1_555 1_555
O18_4 Mo4_4 1_555 1_555
O19_5 Mo5_5 1_555 1_555
O20_5 Mo5_5 1_555 1_555
O21_5 Mo5_5 1_555 1_555
O22_5 Mo5_5 1_555 1_555
Mo9_5 O16_4 1_555 1_555
Mo10_4 O17_4 1_555 1_555
Mo11_5 O20_5 1_555 1_555
Mo12_5 O23_5 1_555 1_555
O34_5 Mo9_5 1_555 1_555
O35_5 Mo9_5 1_555 1_555
O36_5 Mo9_5 1_555 1_555
O37_4 Mo10_4 1_555 1_555
O38_5 Mo10_4 1_555 1_555
O39_5 Mo11_5 1_555 1_555
O40_5 Mo12_5 1_555 1_555
O42_2 Mo11_5 1_555 1_555
O21_5 Mo9_5 1_555 1_555
O22_5 Mo9_5 1_555 1_555
O22_5 Mo11_5 1_555 1_555
O23_5 Mo10_4 1_555 1_555
Mo10_4 O29_4 1_555 1_555
Mo10_4 O35_5 1_555 1_555
Mo11_5 O32_5 1_555 1_555
Mo11_5 O36_5 1_555 1_555
Mo12_5 O38_5 1_555 1_555
Mo12_5 O39_5 1_555 1_555
Mo1_5 O1_5 1_555 1_555
O1_5 Mo2_5 1_555 1_555
O2_5 Mo1_5 1_555 1_555
O3_5 Mo1_5 1_555 1_555
O5_5 Mo1_5 1_555 1_555
O6_5 Mo1_5 1_555 1_555
Mo2_5 O5_5 1_555 1_555
Mo3_5 O2_5 1_555 1_555
P1_5 O5_5 1_555 1_555
O7_5 Mo2_5 1_555 1_555
O8_5 Mo2_5 1_555 1_555
O9_5 Mo2_5 1_555 1_555
O10_5 Mo2_5 1_555 1_555
O11_5 Mo3_5 1_555 1_555
O12_5 Mo3_5 1_555 1_555
O13_5 Mo3_5 1_555 1_555
O14_5 Mo3_5 1_555 1_555
O15_5 Mo3_5 1_555 1_555
Mo6_5 O8_5 1_555 1_555
Cu4_4 O9_5 1_555 1_555
Mo7_5 O10_5 1_555 1_555
Mo8_5 O11_5 1_555 1_555
O24_5 Mo6_5 1_555 1_555
O25_5 Mo6_5 1_555 1_555
O26_5 Mo6_5 1_555 1_555
N1_5 Cu4_4 1_555 1_555
N2_3 Cu4_4 1_555 1_555
O28_5 Mo7_5 1_555 1_555
O30_5 Mo7_5 1_555 1_555
O31_5 Mo8_5 1_555 1_555
O33_5 Mo8_5 1_555 1_555
C1_5 N1_5 1_555 1_555
C2_5 N1_5 1_555 1_555
Cu5_3 O33_5 1_555 1_555
H1_5 C1_5 1_555 1_555
C3_5 C1_5 1_555 1_555
C4_5 C2_5 1_555 1_555
H2_5 C2_5 1_555 1_555
N3_5 Cu5_3 1_555 1_555
N4_5 Cu5_3 1_555 1_555
H3_5 C3_5 1_555 1_555
C5_5 C3_5 1_555 1_555
H4_5 C4_5 1_555 1_555
C6_5 N3_5 1_555 1_555
C7_5 N3_5 1_555 1_555
C8_5 N4_5 1_555 1_555
C9_5 N4_5 1_555 1_555
C10_5 C5_5 1_555 1_555
C11_5 C6_5 1_555 1_555
H5_5 C6_5 1_555 1_555
H6_5 C7_5 1_555 1_555
C12_5 C7_5 1_555 1_555
H7_5 C8_5 1_555 1_555
C13_5 C8_5 1_555 1_555
C14_5 C9_5 1_555 1_555
H8_5 C9_5 1_555 1_555
C17_5 C11_5 1_555 1_555
H9_5 C11_5 1_555 1_555
H10_5 C12_5 1_555 1_555
H11_5 C13_5 1_555 1_555
C18_5 C13_5 1_555 1_555
H12_5 C14_5 1_555 1_555
C21_5 C17_5 1_555 1_555
C22_5 C18_5 1_555 1_555
C25_5 C22_5 1_555 1_555
C26_5 C22_5 1_555 1_555
H19_5 C25_5 1_555 1_555
C29_5 C25_5 1_555 1_555
C30_5 C26_5 1_555 1_555
H20_5 C26_5 1_555 1_555
N6_5 C29_5 1_555 1_555
H23_5 C29_5 1_555 1_555
H24_5 C30_5 1_555 1_555
Cu7 N6_5 1_555 1_555
N8 Cu7 1_555 1_555
P1_5 O13_5 1_555 1_555
O13_5 Mo6_5 1_555 1_555
O13_5 Mo8_5 1_555 1_555
O15_5 Mo6_5 1_555 1_555
Mo7_5 O24_5 1_555 1_555
Mo8_5 O25_5 1_555 1_555
C4_5 C5_5 1_555 1_555
C12_5 C17_5 1_555 1_555
C14_5 C18_5 1_555 1_555
C30_5 N6_5 1_555 1_555
C19_5 C15_5 1_555 1_555
H13_5 C15_5 1_555 1_555
H14_5 C16_5 1_555 1_555
C20_5 C16_5 1_555 1_555
H15_5 C19_5 1_555 1_555
H16_5 C20_5 1_555 1_555
C27_5 C23_5 1_555 1_555
C28_5 C24_5 1_555 1_555
N8 C27_5 1_555 1_555
H21_5 C27_5 1_555 1_555
H22_5 C28_5 1_555 1_555
N7_3 C19_5 1_555 1_555
Cu4 N7_3 1_555 1_555
C20_5 N7_3 1_555 1_555
C28_5 N8 1_555 1_555
Mo1_6 O1_6 1_555 1_555
O1_6 Mo2_6 1_555 1_555
O2_6 Mo1_6 1_555 1_555
O3_6 Mo1_6 1_555 1_555
O4_5 Mo1_6 1_555 1_555
O5_6 Mo1_6 1_555 1_555
O6_6 Mo1_6 1_555 1_555
Mo2_6 O5_6 1_555 1_555
Mo3_6 O2_6 1_555 1_555
Mo4_5 O3_6 1_555 1_555
Mo5_6 O4_5 1_555 1_555
P1_6 O5_6 1_555 1_555
O7_6 Mo2_6 1_555 1_555
O8_6 Mo2_6 1_555 1_555
O9_6 Mo2_6 1_555 1_555
O10_6 Mo2_6 1_555 1_555
O11_6 Mo3_6 1_555 1_555
O12_6 Mo3_6 1_555 1_555
O13_6 Mo3_6 1_555 1_555
O14_6 Mo3_6 1_555 1_555
O15_6 Mo3_6 1_555 1_555
O16_5 Mo4_5 1_555 1_555
O17_5 Mo4_5 1_555 1_555
O18_5 Mo4_5 1_555 1_555
O19_6 Mo5_6 1_555 1_555
O20_6 Mo5_6 1_555 1_555
O21_6 Mo5_6 1_555 1_555
O22_6 Mo5_6 1_555 1_555
O23_6 P1_6 1_555 1_555
Mo6_6 O8_6 1_555 1_555
Cu4_3 O9_6 1_555 1_555
Mo7_6 O10_6 1_555 1_555
Mo8_6 O11_6 1_555 1_555
Mo9_6 O16_5 1_555 1_555
Mo10_5 O17_5 1_555 1_555
Mo11_6 O20_6 1_555 1_555
Mo12_6 O23_6 1_555 1_555
O24_6 Mo6_6 1_555 1_555
O25_6 Mo6_6 1_555 1_555
O26_6 Mo6_6 1_555 1_555
N1_6 Cu4_3 1_555 1_555
N2_4 Cu4_3 1_555 1_555
O28_6 Mo7_6 1_555 1_555
O29_5 Mo7_6 1_555 1_555
O30_6 Mo7_6 1_555 1_555
O31_6 Mo8_6 1_555 1_555
O32_6 Mo8_6 1_555 1_555
O33_6 Mo8_6 1_555 1_555
O34_6 Mo9_6 1_555 1_555
O35_6 Mo9_6 1_555 1_555
O36_6 Mo9_6 1_555 1_555
O37_5 Mo10_5 1_555 1_555
O38_6 Mo10_5 1_555 1_555
O39_6 Mo11_6 1_555 1_555
O40_6 Mo12_6 1_555 1_555
C1_6 N1_6 1_555 1_555
C2_6 N1_6 1_555 1_555
Cu5_4 O33_6 1_555 1_555
H1_6 C1_6 1_555 1_555
C3_6 C1_6 1_555 1_555
C4_6 C2_6 1_555 1_555
H2_6 C2_6 1_555 1_555
N3_6 Cu5_4 1_555 1_555
N4_6 Cu5_4 1_555 1_555
H3_6 C3_6 1_555 1_555
C5_6 C3_6 1_555 1_555
H4_6 C4_6 1_555 1_555
C6_6 N3_6 1_555 1_555
C7_6 N3_6 1_555 1_555
C8_6 N4_6 1_555 1_555
C9_6 N4_6 1_555 1_555
C10_6 C5_6 1_555 1_555
C11_6 C6_6 1_555 1_555
H5_6 C6_6 1_555 1_555
H6_6 C7_6 1_555 1_555
C12_6 C7_6 1_555 1_555
H7_6 C8_6 1_555 1_555
C13_6 C8_6 1_555 1_555
C14_6 C9_6 1_555 1_555
H8_6 C9_6 1_555 1_555
C17_6 C11_6 1_555 1_555
H9_6 C11_6 1_555 1_555
H10_6 C12_6 1_555 1_555
H11_6 C13_6 1_555 1_555
C18_6 C13_6 1_555 1_555
H12_6 C14_6 1_555 1_555
C21_6 C17_6 1_555 1_555
C22_6 C18_6 1_555 1_555
C25_6 C22_6 1_555 1_555
C26_6 C22_6 1_555 1_555
H19_6 C25_6 1_555 1_555
C29_6 C25_6 1_555 1_555
C30_6 C26_6 1_555 1_555
H20_6 C26_6 1_555 1_555
N6_6 C29_6 1_555 1_555
H23_6 C29_6 1_555 1_555
H24_6 C30_6 1_555 1_555
O27_2 Mo11_6 1_555 1_555
Cu7_2 N6_6 1_555 1_555
N8_2 Cu7_2 1_555 1_555
O5_6 Mo4_5 1_555 1_555
Mo4_5 O7_6 1_555 1_555
Mo5_6 O14_6 1_555 1_555
P1_6 O13_6 1_555 1_555
P1_6 O22_6 1_555 1_555
O13_6 Mo6_6 1_555 1_555
O13_6 Mo8_6 1_555 1_555
O15_6 Mo6_6 1_555 1_555
O21_6 Mo9_6 1_555 1_555
O22_6 Mo9_6 1_555 1_555
O22_6 Mo11_6 1_555 1_555
O23_6 Mo7_6 1_555 1_555
O23_6 Mo10_5 1_555 1_555
Mo7_6 O24_6 1_555 1_555
Mo8_6 O25_6 1_555 1_555
Mo10_5 O29_5 1_555 1_555
Mo10_5 O35_6 1_555 1_555
Mo11_6 O32_6 1_555 1_555
Mo11_6 O36_6 1_555 1_555
Mo12_6 O30_6 1_555 1_555
Mo12_6 O31_6 1_555 1_555
Mo12_6 O38_6 1_555 1_555
Mo12_6 O39_6 1_555 1_555
C4_6 C5_6 1_555 1_555
C12_6 C17_6 1_555 1_555
C14_6 C18_6 1_555 1_555
C30_6 N6_6 1_555 1_555
C19_6 C15_6 1_555 1_555
H13_6 C15_6 1_555 1_555
H14_6 C16_6 1_555 1_555
C20_6 C16_6 1_555 1_555
H15_6 C19_6 1_555 1_555
H16_6 C20_6 1_555 1_555
C27_6 C23_6 1_555 1_555
C28_6 C24_6 1_555 1_555
N8_2 C27_6 1_555 1_555
H21_6 C27_6 1_555 1_555
H22_6 C28_6 1_555 1_555
N7_4 C19_6 1_555 1_555
Cu4_2 N7_4 1_555 1_555
C20_6 N7_4 1_555 1_555
C28_6 N8_2 1_555 1_555
C22_7 C18_7 1_555 1_555
C25_7 C22_7 1_555 1_555
C26_7 C22_7 1_555 1_555
H19_7 C25_7 1_555 1_555
C29_7 C25_7 1_555 1_555
C30_7 C26_7 1_555 1_555
H20_7 C26_7 1_555 1_555
N6_7 C29_7 1_555 1_555
H23_7 C29_7 1_555 1_555
H24_7 C30_7 1_555 1_555
Cu7_3 N6_7 1_555 1_555
N8_3 Cu7_3 1_555 1_555
C30_7 N6_7 1_555 1_555
O19_7 Mo5_7 1_555 1_555
O20_7 Mo5_7 1_555 1_555
O21_7 Mo5_7 1_555 1_555
O22_7 Mo5_7 1_555 1_555
Mo11_7 O20_7 1_555 1_555
Mo12_7 O23_7 1_555 1_555
O34_7 Mo9_7 1_555 1_555
O35_7 Mo9_7 1_555 1_555
O36_7 Mo9_7 1_555 1_555
O39_7 Mo11_7 1_555 1_555
O40_7 Mo12_7 1_555 1_555
O42 Mo11_7 1_555 1_555
O21_7 Mo9_7 1_555 1_555
O22_7 Mo9_7 1_555 1_555
O22_7 Mo11_7 1_555 1_555
Mo11_7 O32_7 1_555 1_555
Mo11_7 O36_7 1_555 1_555
Mo12_7 O38_7 1_555 1_555
Mo12_7 O39_7 1_555 1_555
O11_7 Mo3_7 1_555 1_555
O12_7 Mo3_7 1_555 1_555
O13_7 Mo3_7 1_555 1_555
O14_7 Mo3_7 1_555 1_555
Mo8_7 O11_7 1_555 1_555
O31_7 Mo8_7 1_555 1_555
O33_7 Mo8_7 1_555 1_555
Cu5 O33_7 1_555 1_555
N3_7 Cu5 1_555 1_555
N4_7 Cu5 1_555 1_555
C6_7 N3_7 1_555 1_555
C7_7 N3_7 1_555 1_555
C8_7 N4_7 1_555 1_555
C9_7 N4_7 1_555 1_555
C11_7 C6_7 1_555 1_555
H5_7 C6_7 1_555 1_555
H6_7 C7_7 1_555 1_555
C12_7 C7_7 1_555 1_555
H7_7 C8_7 1_555 1_555
C13_7 C8_7 1_555 1_555
C14_7 C9_7 1_555 1_555
H8_7 C9_7 1_555 1_555
C17_7 C11_7 1_555 1_555
H9_7 C11_7 1_555 1_555
H10_7 C12_7 1_555 1_555
H12_7 C14_7 1_555 1_555
C21_7 C17_7 1_555 1_555
C23_7 C21_7 1_555 1_555
C24_7 C21_7 1_555 1_555
C27_7 C23_7 1_555 1_555
H17_7 C23_7 1_555 1_555
H18_7 C24_7 1_555 1_555
C28_7 C24_7 1_555 1_555
N8_3 C27_7 1_555 1_555
H21_7 C27_7 1_555 1_555
H22_7 C28_7 1_555 1_555
O13_7 Mo8_7 1_555 1_555
Mo8_7 O25_7 1_555 1_555
C12_7 C17_7 1_555 1_555
C28_7 N8_3 1_555 1_555
Mo1_7 O1_7 1_555 1_555
O1_7 Mo2_7 1_555 1_555
O2_7 Mo1_7 1_555 1_555
O3_7 Mo1_7 1_555 1_555
O5_7 Mo1_7 1_555 1_555
O6_7 Mo1_7 1_555 1_555
Mo2_7 O5_7 1_555 1_555
P1_7 O5_7 1_555 1_555
O7_7 Mo2_7 1_555 1_555
O8_7 Mo2_7 1_555 1_555
O9_7 Mo2_7 1_555 1_555
O10_7 Mo2_7 1_555 1_555
Mo6_7 O8_7 1_555 1_555
Cu4_2 O9_7 1_555 1_555
Mo7_7 O10_7 1_555 1_555
O24_7 Mo6_7 1_555 1_555
O26_7 Mo6_7 1_555 1_555
N1_7 Cu4_2 1_555 1_555
O28_7 Mo7_7 1_555 1_555
C1_7 N1_7 1_555 1_555
C2_7 N1_7 1_555 1_555
H1_7 C1_7 1_555 1_555
C3_7 C1_7 1_555 1_555
C4_7 C2_7 1_555 1_555
H2_7 C2_7 1_555 1_555
H3_7 C3_7 1_555 1_555
C5_7 C3_7 1_555 1_555
H4_7 C4_7 1_555 1_555
C10_7 C5_7 1_555 1_555
C15_7 C10_7 1_555 1_555
C16_7 C10_7 1_555 1_555
C19_7 C15_7 1_555 1_555
H13_7 C15_7 1_555 1_555
H14_7 C16_7 1_555 1_555
C20_7 C16_7 1_555 1_555
H15_7 C19_7 1_555 1_555
H16_7 C20_7 1_555 1_555
N2_4 C19_7 1_555 1_555
O15_7 Mo6_7 1_555 1_555
Mo7_7 O24_7 1_555 1_555
C4_7 C5_7 1_555 1_555
C20_7 N2_4 1_555 1_555
Mo1_8 O1_8 1_555 1_555
O1_8 Mo2_8 1_555 1_555
O2_8 Mo1_8 1_555 1_555
O3_8 Mo1_8 1_555 1_555
O4_6 Mo1_8 1_555 1_555
O5_8 Mo1_8 1_555 1_555
O6_8 Mo1_8 1_555 1_555
Mo2_8 O5_8 1_555 1_555
Mo4_6 O3_8 1_555 1_555
P1_8 O5_8 1_555 1_555
O7_8 Mo2_8 1_555 1_555
O8_8 Mo2_8 1_555 1_555
O9_8 Mo2_8 1_555 1_555
O10_8 Mo2_8 1_555 1_555
O16_6 Mo4_6 1_555 1_555
O17_6 Mo4_6 1_555 1_555
O18_6 Mo4_6 1_555 1_555
Mo6_8 O8_8 1_555 1_555
Cu4 O9_8 1_555 1_555
Mo7_8 O10_8 1_555 1_555
Mo10_6 O17_6 1_555 1_555
O24_8 Mo6_8 1_555 1_555
O26_8 Mo6_8 1_555 1_555
N1_8 Cu4 1_555 1_555
O28_8 Mo7_8 1_555 1_555
O29_6 Mo7_8 1_555 1_555
O37_6 Mo10_6 1_555 1_555
C1_8 N1_8 1_555 1_555
C2_8 N1_8 1_555 1_555
H1_8 C1_8 1_555 1_555
C3_8 C1_8 1_555 1_555
C4_8 C2_8 1_555 1_555
H2_8 C2_8 1_555 1_555
H3_8 C3_8 1_555 1_555
C5_8 C3_8 1_555 1_555
H4_8 C4_8 1_555 1_555
C10_8 C5_8 1_555 1_555
C15_8 C10_8 1_555 1_555
C16_8 C10_8 1_555 1_555
C19_8 C15_8 1_555 1_555
H13_8 C15_8 1_555 1_555
H14_8 C16_8 1_555 1_555
C20_8 C16_8 1_555 1_555
H15_8 C19_8 1_555 1_555
H16_8 C20_8 1_555 1_555
N2_3 C19_8 1_555 1_555
O5_8 Mo4_6 1_555 1_555
Mo4_6 O7_8 1_555 1_555
O15_8 Mo6_8 1_555 1_555
Mo7_8 O24_8 1_555 1_555
Mo10_6 O29_6 1_555 1_555
C4_8 C5_8 1_555 1_555
C20_8 N2_3 1_555 1_555
C22_8 C18_8 1_555 1_555
C25_8 C22_8 1_555 1_555
C26_8 C22_8 1_555 1_555
H19_8 C25_8 1_555 1_555
C29_8 C25_8 1_555 1_555
C30_8 C26_8 1_555 1_555
H20_8 C26_8 1_555 1_555
N6_8 C29_8 1_555 1_555
H23_8 C29_8 1_555 1_555
H24_8 C30_8 1_555 1_555
Cu7_4 N6_8 1_555 1_555
N8_4 Cu7_4 1_555 1_555
C30_8 N6_8 1_555 1_555
O11_8 Mo3_8 1_555 1_555
O12_8 Mo3_8 1_555 1_555
O13_8 Mo3_8 1_555 1_555
O14_8 Mo3_8 1_555 1_555
O19_8 Mo5_8 1_555 1_555
O20_8 Mo5_8 1_555 1_555
O21_8 Mo5_8 1_555 1_555
O22_8 Mo5_8 1_555 1_555
Mo8_8 O11_8 1_555 1_555
Mo11_8 O20_8 1_555 1_555
Mo12_8 O23_8 1_555 1_555
O31_8 Mo8_8 1_555 1_555
O32_8 Mo8_8 1_555 1_555
O33_8 Mo8_8 1_555 1_555
O34_8 Mo9_8 1_555 1_555
O35_8 Mo9_8 1_555 1_555
O36_8 Mo9_8 1_555 1_555
O39_8 Mo11_8 1_555 1_555
O40_8 Mo12_8 1_555 1_555
Cu5_2 O33_8 1_555 1_555
N3_8 Cu5_2 1_555 1_555
N4_8 Cu5_2 1_555 1_555
C6_8 N3_8 1_555 1_555
C7_8 N3_8 1_555 1_555
C8_8 N4_8 1_555 1_555
C9_8 N4_8 1_555 1_555
C11_8 C6_8 1_555 1_555
H5_8 C6_8 1_555 1_555
H6_8 C7_8 1_555 1_555
C12_8 C7_8 1_555 1_555
H7_8 C8_8 1_555 1_555
C13_8 C8_8 1_555 1_555
C14_8 C9_8 1_555 1_555
H8_8 C9_8 1_555 1_555
C17_8 C11_8 1_555 1_555
H9_8 C11_8 1_555 1_555
H10_8 C12_8 1_555 1_555
H12_8 C14_8 1_555 1_555
C21_8 C17_8 1_555 1_555
C23_8 C21_8 1_555 1_555
C24_8 C21_8 1_555 1_555
C27_8 C23_8 1_555 1_555
H17_8 C23_8 1_555 1_555
H18_8 C24_8 1_555 1_555
C28_8 C24_8 1_555 1_555
N8_4 C27_8 1_555 1_555
H21_8 C27_8 1_555 1_555
H22_8 C28_8 1_555 1_555
O27 Mo11_8 1_555 1_555
Mo5_8 O14_8 1_555 1_555
O13_8 Mo8_8 1_555 1_555
O21_8 Mo9_8 1_555 1_555
O22_8 Mo9_8 1_555 1_555
O22_8 Mo11_8 1_555 1_555
Mo8_8 O25_8 1_555 1_555
Mo11_8 O32_8 1_555 1_555
Mo11_8 O36_8 1_555 1_555
Mo12_8 O30_8 1_555 1_555
Mo12_8 O31_8 1_555 1_555
Mo12_8 O38_8 1_555 1_555
Mo12_8 O39_8 1_555 1_555
C12_8 C17_8 1_555 1_555
C28_8 N8_4 1_555 1_555
O16_7 Mo4_7 1_555 1_555
O17_7 Mo4_7 1_555 1_555
O18_7 Mo4_7 1_555 1_555
Mo10_7 O17_7 1_555 1_555
O37_7 Mo10_7 1_555 1_555
Mo10_7 O29_7 1_555 1_555
O16_8 Mo4_8 1_555 1_555
O17_8 Mo4_8 1_555 1_555
O18_8 Mo4_8 1_555 1_555
Mo10_8 O17_8 1_555 1_555
O37_8 Mo10_8 1_555 1_555
Mo10_8 O29_8 1_555 1_555

#END
