
###############################################################################
#
# This file contains modified crystal structure data generated from the
# MOF subset of the Cambridge Structural Database (CSD) v543 
# hosted by the Cambridge Crystallographic Data Centre (CCDC).
#
# This work is licensed under the Creative Commons
# Attribution-NonCommercial-ShareAlike 4.0 International License.
# To view a copy of this license, visit
# http://creativecommons.org/licenses/by-nc-sa/4.0/
# or send a letter to
# Creative Commons, PO Box 1866, Mountain View, CA 94042, USA.
#
# CIF created using the CSD Python API on 29 September 2022
# The structure has been converted into the P1 space group
# The structure has a 3D framework
# The original CSD entry LOTZOM is in the monoclinic crystal system
# The framework has been calculated to contain at least 10.0% void space
# The void calculation uses a probe of radius 1.32A, grid spacing 0.4
#
###############################################################################

data_LOTZOM
_chemical_formula_moiety         '(C280 H160 N16 O84 Zn24)n'
_symmetry_cell_setting           triclinic
_symmetry_space_group_name_H-M   'P 1'
_symmetry_Int_Tables_number      1
_space_group_name_Hall           'P 1'
loop_
_symmetry_equiv_pos_site_id
_symmetry_equiv_pos_as_xyz
1 x,y,z
_cell_length_a                   29.021(3)
_cell_length_b                   15.1844(15)
_cell_length_c                   21.2695(18)
_cell_angle_alpha                90
_cell_angle_beta                 127.401(4)
_cell_angle_gamma                90
_cell_volume                     7445.75
loop_
_atom_site_label
_atom_site_type_symbol
_atom_site_fract_x
_atom_site_fract_y
_atom_site_fract_z
Zn1 Zn 0.21903(4) 0.18231(7) 0.12390(7)
Zn2 Zn 0.32739(4) 0.06133(7) 0.18241(7)
Zn3 Zn 0.32319(4) 0.26550(7) 0.11863(7)
O3 O 0.2812(3) 0.1565(4) 0.1028(4)
N1 N 0.1573(3) 0.2275(5) 0.1378(5)
H4 H 0.085086 0.099163 0.014173
C19 C 0.0188(4) 0.3069(8) 0.1458(7)
H7 H 0.005844 0.266776 0.165034
H8 H 0.001379 0.092609 0.003498
C24 C 0.0998(5) 0.2058(8) 0.1841(7)
H11 H 0.092294 0.171587 0.213181
C26 C 0.1238(4) 0.2967(7) 0.0960(7)
H12 H 0.131229 0.327930 0.065398
C28 C 0.1457(4) 0.1868(7) 0.1816(6)
H14 H 0.170342 0.141196 0.213786
C31 C 0.0661(4) 0.2779(8) 0.1413(7)
C33 C 0.0777(4) 0.3241(7) 0.0968(7)
H17 H 0.055456 0.372873 0.067582
H19 H 0.005927 0.417922 0.100852
H20 H 0.264(3) 0.147(4) 0.054(4)
O12 O 0.3908(2) 0.2630(4) 0.1197(4)
O13 O 0.2727(2) 0.3685(4) 0.0621(3)
O14 O 0.2813(3) 0.1660(4) 0.2442(4)
O15 O 0.1951(2) 0.0514(4) 0.1210(4)
O16 O 0.2340(2) 0.3238(4) 0.1215(4)
O18 O 0.3332(3) 0.0395(4) 0.2783(4)
O19 O 0.4023(2) 0.1586(4) 0.2641(4)
O20 O 0.3654(3) 0.2947(4) 0.2318(4)
O1 O 0.1092(2) 0.2370(4) 0.8803(4)
O4 O 0.1602(3) 0.1828(4) 0.9998(4)
C11 C 0.0533(4) 0.1330(5) 0.9760(5)
C13 C 0.0069(4) 0.2327(6) 0.8657(5)
H6 H 0.008249 0.267904 0.831078
C16 C 0.0577(4) 0.1889(6) 0.9274(5)
C18 C 0.1128(4) 0.2030(6) 0.9366(7)
C20 C 0.0023(4) 0.1273(6) 0.9682(6)
Zn11 Zn 0.17681(4) 0.23450(7) 0.88137(7)
O17 O 0.2590(3) 0.9696(4) 0.1182(4)
N3 N 0.3807(3) 0.9986(5) 0.1653(5)
N2 N 0.8807(3) 0.4986(5) 0.1653(5)
C25 C 0.9529(4) 0.4209(8) 0.1350(7)
C27 C 0.9447(5) 0.5077(8) 0.1299(8)
H13 H 0.963730 0.543507 0.116796
C30 C 0.8870(4) 0.4101(7) 0.1685(6)
H15 H 0.866658 0.375748 0.180374
C32 C 0.9227(4) 0.3690(7) 0.1549(6)
H16 H 0.926875 0.308089 0.158639
C34 C 0.9082(4) 0.5454(7) 0.1437(7)
H18 H 0.902461 0.605953 0.137766
C35 C 0.9952(5) 0.3819(8) 0.1254(8)
Zn7 Zn 0.82739(4) 0.56133(7) 0.18241(7)
C1 C 0.7727(3) 0.5243(6) 0.9094(5)
C2 C 0.7737(4) 0.4570(6) 0.9547(6)
H1 H 0.762976 0.468566 0.987129
C3 C 0.8059(4) 0.3515(6) 0.9026(6)
C4 C 0.8020(4) 0.4185(6) 0.8550(6)
O2 O 0.7273(2) 0.6315(4) 0.9379(3)
O5 O 0.7813(3) 0.3340(4) 0.7442(4)
C5 C 0.8267(3) 0.2615(6) 0.9021(5)
O7 O 0.7660(2) 0.6762(4) 0.8785(4)
O8 O 0.7410(3) 0.0304(4) 0.8818(4)
C6 C 0.8001(4) 0.1856(5) 0.8985(5)
H2 H 0.767830 0.188800 0.897981
C7 C 0.9517(4) 0.1729(6) 0.9079(6)
O9 O 0.8332(3) 0.4605(4) 0.7783(4)
C8 C 0.8781(4) 0.2544(6) 0.9070(5)
H3 H 0.897819 0.305285 0.911899
C9 C 0.7547(4) 0.6176(7) 0.9091(5)
C10 C 0.8987(4) 0.1744(5) 0.9046(5)
O10 O 0.9023(2) 0.3414(4) 0.7641(4)
C12 C 0.8701(3) 0.0988(6) 0.8986(5)
H5 H 0.883716 0.044268 0.896573
C14 C 0.8061(4) 0.4009(7) 0.7879(6)
C15 C 0.7869(4) 0.0214(6) 0.8862(6)
O11 O 0.8654(3) 0.2053(4) 0.7318(4)
C17 C 0.9547(3) 0.2246(5) 0.8552(5)
C21 C 0.7874(4) 0.5034(6) 0.8604(5)
H9 H 0.787384 0.547641 0.830223
C22 C 0.8199(4) 0.1036(6) 0.8956(5)
C23 C 0.7906(4) 0.3725(6) 0.9515(5)
H10 H 0.791827 0.328743 0.983028
C29 C 0.9028(4) 0.2619(7) 0.7784(6)
Zn5 Zn 0.78097(4) 0.81769(7) 0.87610(7)
Zn6 Zn 0.71903(4) 0.31769(7) 0.62390(7)
Zn9 Zn 0.82739(4) 0.43867(7) 0.68241(7)
Zn10 Zn 0.67681(4) 0.73450(7) 0.88137(7)
Zn12 Zn 0.82319(4) 0.23450(7) 0.61863(7)
O6 O 0.8049(2) 0.9486(4) 0.8790(4)
Zn8 Zn 0.67261(4) 0.93867(7) 0.81759(7)
C1_2 C 0.2273(3) 0.5243(6) 0.5906(5)
C2_2 C 0.2263(4) 0.4570(6) 0.5453(6)
H1_2 H 0.237024 0.468566 0.512871
C3_2 C 0.1941(4) 0.3515(6) 0.5974(6)
C4_2 C 0.1980(4) 0.4185(6) 0.6450(6)
O2_2 O 0.2727(2) 0.6315(4) 0.5621(3)
O5_2 O 0.2187(3) 0.3340(4) 0.7558(4)
C5_2 C 0.1733(3) 0.2615(6) 0.5979(5)
O7_2 O 0.2340(2) 0.6762(4) 0.6215(4)
O8_2 O 0.2590(3) 0.0304(4) 0.6182(4)
C6_2 C 0.1999(4) 0.1856(5) 0.6015(5)
H2_2 H 0.232170 0.188800 0.602019
C7_2 C 0.0483(4) 0.1729(6) 0.5921(6)
O9_2 O 0.1668(3) 0.4605(4) 0.7217(4)
C8_2 C 0.1219(4) 0.2544(6) 0.5930(5)
H3_2 H 0.102181 0.305285 0.588101
N2_2 N 0.1193(3) 0.4986(5) 0.3347(5)
C9_2 C 0.2453(4) 0.6176(7) 0.5909(5)
C10_2 C 0.1013(4) 0.1744(5) 0.5954(5)
O10_2 O 0.0977(2) 0.3414(4) 0.7359(4)
C12_2 C 0.1299(3) 0.0988(6) 0.6014(5)
H5_2 H 0.116284 0.044268 0.603427
C14_2 C 0.1939(4) 0.4009(7) 0.7121(6)
C15_2 C 0.2131(4) 0.0214(6) 0.6138(6)
O11_2 O 0.1346(3) 0.2053(4) 0.7682(4)
C17_2 C 0.0453(3) 0.2246(5) 0.6448(5)
C21_2 C 0.2126(4) 0.5034(6) 0.6396(5)
H9_2 H 0.212616 0.547641 0.669777
C22_2 C 0.1801(4) 0.1036(6) 0.6044(5)
C23_2 C 0.2094(4) 0.3725(6) 0.5485(5)
H10_2 H 0.208173 0.328743 0.516972
C25_2 C 0.0471(4) 0.4209(8) 0.3650(7)
C27_2 C 0.0553(5) 0.5077(8) 0.3701(8)
H13_2 H 0.036270 0.543507 0.383204
C29_2 C 0.0972(4) 0.2619(7) 0.7216(6)
C30_2 C 0.1130(4) 0.4101(7) 0.3315(6)
H15_2 H 0.133342 0.375748 0.319626
C32_2 C 0.0773(4) 0.3690(7) 0.3451(6)
H16_2 H 0.073125 0.308089 0.341361
C34_2 C 0.0918(4) 0.5454(7) 0.3563(7)
H18_2 H 0.097539 0.605953 0.362234
C35_2 C 0.0048(5) 0.3819(8) 0.3746(8)
Zn5_2 Zn 0.21903(4) 0.81769(7) 0.62390(7)
Zn6_2 Zn 0.28097(4) 0.31769(7) 0.87610(7)
Zn7_2 Zn 0.17261(4) 0.56133(7) 0.31759(7)
Zn9_2 Zn 0.17261(4) 0.43867(7) 0.81759(7)
Zn10_2 Zn 0.32319(4) 0.73450(7) 0.61863(7)
O6_2 O 0.1951(2) 0.9486(4) 0.6210(4)
Zn8_2 Zn 0.32739(4) 0.93867(7) 0.68241(7)
O1_2 O 0.8908(2) 0.2370(4) 0.6197(4)
Zn1_2 Zn 0.78097(4) 0.18231(7) 0.37610(7)
Zn2_2 Zn 0.67261(4) 0.06133(7) 0.31759(7)
Zn3_2 Zn 0.67681(4) 0.26550(7) 0.38137(7)
O3_2 O 0.7188(3) 0.1565(4) 0.3972(4)
O4_2 O 0.8398(3) 0.1828(4) 0.5002(4)
N1_2 N 0.8427(3) 0.2275(5) 0.3622(5)
C11_2 C 0.9467(4) 0.1330(5) 0.5240(5)
H4_2 H 0.914914 0.099163 0.485827
C13_2 C 0.9931(4) 0.2327(6) 0.6343(5)
H6_2 H 0.991751 0.267904 0.668922
C16_2 C 0.9423(4) 0.1889(6) 0.5726(5)
C18_2 C 0.8872(4) 0.2030(6) 0.5634(7)
C19_2 C 0.9812(4) 0.3069(8) 0.3542(7)
H7_2 H 0.994156 0.266776 0.334966
C20_2 C 0.9977(4) 0.1273(6) 0.5318(6)
H8_2 H 0.998621 0.092609 0.496502
C24_2 C 0.9002(5) 0.2058(8) 0.3159(7)
H11_2 H 0.907706 0.171587 0.286819
C26_2 C 0.8762(4) 0.2967(7) 0.4040(7)
H12_2 H 0.868771 0.327930 0.434602
C28_2 C 0.8543(4) 0.1868(7) 0.3184(6)
H14_2 H 0.829658 0.141196 0.286214
C31_2 C 0.9339(4) 0.2779(8) 0.3587(7)
C33_2 C 0.9223(4) 0.3241(7) 0.4032(7)
H17_2 H 0.944544 0.372873 0.432418
H19_2 H 0.994073 0.417922 0.399148
H20_2 H 0.736(3) 0.147(4) 0.446(4)
O12_2 O 0.6092(2) 0.2630(4) 0.3803(4)
O13_2 O 0.7273(2) 0.3685(4) 0.4379(3)
O14_2 O 0.7187(3) 0.1660(4) 0.2558(4)
O15_2 O 0.8049(2) 0.0514(4) 0.3790(4)
O16_2 O 0.7660(2) 0.3238(4) 0.3785(4)
O18_2 O 0.6668(3) 0.0395(4) 0.2217(4)
O19_2 O 0.5977(2) 0.1586(4) 0.2359(4)
O20_2 O 0.6346(3) 0.2947(4) 0.2682(4)
O17_2 O 0.7410(3) 0.9696(4) 0.3818(4)
N3_2 N 0.6193(3) 0.9986(5) 0.3347(5)
C27_3 C 0.4447(5) 0.0077(8) 0.1299(8)
H13_3 H 0.463730 0.043507 0.116796
C34_3 C 0.4082(4) 0.0454(7) 0.1437(7)
H18_3 H 0.402461 0.105953 0.137766
C1_3 C 0.2727(3) 0.0243(6) 0.9094(5)
O2_3 O 0.2273(2) 0.1315(4) 0.9379(3)
O7_3 O 0.2660(2) 0.1762(4) 0.8785(4)
C9_3 C 0.2547(4) 0.1176(7) 0.9091(5)
C21_3 C 0.2874(4) 0.0034(6) 0.8604(5)
H9_3 H 0.287384 0.047641 0.830223
Zn1_3 Zn 0.71903(4) 0.68231(7) 0.12390(7)
Zn3_3 Zn 0.82319(4) 0.76550(7) 0.11863(7)
O3_3 O 0.7812(3) 0.6565(4) 0.1028(4)
N1_3 N 0.6573(3) 0.7275(5) 0.1378(5)
H4_3 H 0.585086 0.599163 0.014173
C19_3 C 0.5188(4) 0.8069(8) 0.1458(7)
H7_3 H 0.505844 0.766776 0.165034
H8_3 H 0.501379 0.592609 0.003498
C24_3 C 0.5998(5) 0.7058(8) 0.1841(7)
H11_3 H 0.592294 0.671587 0.213181
C25_3 C 0.4529(4) 0.9209(8) 0.1350(7)
C26_3 C 0.6238(4) 0.7967(7) 0.0960(7)
H12_3 H 0.631229 0.827930 0.065398
C28_3 C 0.6457(4) 0.6868(7) 0.1816(6)
H14_3 H 0.670342 0.641196 0.213786
C30_3 C 0.3870(4) 0.9101(7) 0.1685(6)
H15_3 H 0.366658 0.875748 0.180374
C31_3 C 0.5661(4) 0.7779(8) 0.1413(7)
C32_3 C 0.4227(4) 0.8690(7) 0.1549(6)
H16_3 H 0.426875 0.808089 0.158639
C33_3 C 0.5777(4) 0.8241(7) 0.0968(7)
H17_3 H 0.555456 0.872873 0.067582
C35_3 C 0.4952(5) 0.8819(8) 0.1254(8)
H19_3 H 0.505927 0.917922 0.100852
H20_3 H 0.764(3) 0.647(4) 0.054(4)
O12_3 O 0.8908(2) 0.7630(4) 0.1197(4)
O13_3 O 0.7727(2) 0.8685(4) 0.0621(3)
O14_3 O 0.7813(3) 0.6660(4) 0.2442(4)
O15_3 O 0.6951(2) 0.5514(4) 0.1210(4)
O16_3 O 0.7340(2) 0.8238(4) 0.1215(4)
O17_3 O 0.7590(3) 0.4696(4) 0.1182(4)
O18_3 O 0.8332(3) 0.5395(4) 0.2783(4)
O19_3 O 0.9023(2) 0.6586(4) 0.2641(4)
O20_3 O 0.8654(3) 0.7947(4) 0.2318(4)
C2_3 C 0.2737(4) 0.9570(6) 0.9547(6)
H1_3 H 0.262976 0.968566 0.987129
C3_3 C 0.3059(4) 0.8515(6) 0.9026(6)
C4_3 C 0.3020(4) 0.9185(6) 0.8550(6)
O1_3 O 0.6092(2) 0.7370(4) 0.8803(4)
O4_3 O 0.6602(3) 0.6828(4) 0.9998(4)
O5_3 O 0.2813(3) 0.8340(4) 0.7442(4)
O6_3 O 0.3049(2) 0.4486(4) 0.8790(4)
C5_3 C 0.3267(3) 0.7615(6) 0.9021(5)
O8_3 O 0.2410(3) 0.5304(4) 0.8818(4)
C6_3 C 0.3001(4) 0.6856(5) 0.8985(5)
H2_3 H 0.267830 0.688800 0.897981
C7_3 C 0.4517(4) 0.6729(6) 0.9079(6)
O9_3 O 0.3332(3) 0.9605(4) 0.7783(4)
C8_3 C 0.3781(4) 0.7544(6) 0.9070(5)
H3_3 H 0.397819 0.805285 0.911899
C10_3 C 0.3987(4) 0.6744(5) 0.9046(5)
C11_3 C 0.5533(4) 0.6330(5) 0.9760(5)
O10_3 O 0.4023(2) 0.8414(4) 0.7641(4)
C12_3 C 0.3701(3) 0.5988(6) 0.8986(5)
H5_3 H 0.383716 0.544268 0.896573
C13_3 C 0.5069(4) 0.7327(6) 0.8657(5)
H6_3 H 0.508249 0.767904 0.831078
C14_3 C 0.3061(4) 0.9009(7) 0.7879(6)
C15_3 C 0.2869(4) 0.5214(6) 0.8862(6)
O11_3 O 0.3654(3) 0.7053(4) 0.7318(4)
C16_3 C 0.5577(4) 0.6889(6) 0.9274(5)
C17_3 C 0.4547(3) 0.7246(5) 0.8552(5)
C18_3 C 0.6128(4) 0.7030(6) 0.9366(7)
C20_3 C 0.5023(4) 0.6273(6) 0.9682(6)
C22_3 C 0.3199(4) 0.6036(6) 0.8956(5)
C23_3 C 0.2906(4) 0.8725(6) 0.9515(5)
H10_3 H 0.291827 0.828743 0.983028
C29_3 C 0.4028(4) 0.7619(7) 0.7784(6)
C1_4 C 0.7273(3) 0.0243(6) 0.5906(5)
O2_4 O 0.7727(2) 0.1315(4) 0.5621(3)
O7_4 O 0.7340(2) 0.1762(4) 0.6215(4)
C9_4 C 0.7453(4) 0.1176(7) 0.5909(5)
C21_4 C 0.7126(4) 0.0034(6) 0.6396(5)
H9_4 H 0.712616 0.047641 0.669777
C27_4 C 0.5553(5) 0.0077(8) 0.3701(8)
H13_4 H 0.536270 0.043507 0.383204
C34_4 C 0.5918(4) 0.0454(7) 0.3563(7)
H18_4 H 0.597539 0.105953 0.362234
C2_4 C 0.7263(4) 0.9570(6) 0.5453(6)
H1_4 H 0.737024 0.968566 0.512871
C3_4 C 0.6941(4) 0.8515(6) 0.5974(6)
C4_4 C 0.6980(4) 0.9185(6) 0.6450(6)
O1_4 O 0.3908(2) 0.7370(4) 0.6197(4)
Zn1_4 Zn 0.28097(4) 0.68231(7) 0.37610(7)
Zn3_4 Zn 0.17681(4) 0.76550(7) 0.38137(7)
O3_4 O 0.2188(3) 0.6565(4) 0.3972(4)
O4_4 O 0.3398(3) 0.6828(4) 0.5002(4)
O5_4 O 0.7187(3) 0.8340(4) 0.7558(4)
O6_4 O 0.6951(2) 0.4486(4) 0.6210(4)
C5_4 C 0.6733(3) 0.7615(6) 0.5979(5)
O8_4 O 0.7590(3) 0.5304(4) 0.6182(4)
C6_4 C 0.6999(4) 0.6856(5) 0.6015(5)
H2_4 H 0.732170 0.688800 0.602019
C7_4 C 0.5483(4) 0.6729(6) 0.5921(6)
N1_4 N 0.3427(3) 0.7275(5) 0.3622(5)
O9_4 O 0.6668(3) 0.9605(4) 0.7217(4)
C8_4 C 0.6219(4) 0.7544(6) 0.5930(5)
H3_4 H 0.602181 0.805285 0.588101
C10_4 C 0.6013(4) 0.6744(5) 0.5954(5)
C11_4 C 0.4467(4) 0.6330(5) 0.5240(5)
H4_4 H 0.414914 0.599163 0.485827
O10_4 O 0.5977(2) 0.8414(4) 0.7359(4)
C12_4 C 0.6299(3) 0.5988(6) 0.6014(5)
H5_4 H 0.616284 0.544268 0.603427
C13_4 C 0.4931(4) 0.7327(6) 0.6343(5)
H6_4 H 0.491751 0.767904 0.668922
C14_4 C 0.6939(4) 0.9009(7) 0.7121(6)
C15_4 C 0.7131(4) 0.5214(6) 0.6138(6)
O11_4 O 0.6346(3) 0.7053(4) 0.7682(4)
C16_4 C 0.4423(4) 0.6889(6) 0.5726(5)
C17_4 C 0.5453(3) 0.7246(5) 0.6448(5)
C18_4 C 0.3872(4) 0.7030(6) 0.5634(7)
C19_4 C 0.4812(4) 0.8069(8) 0.3542(7)
H7_4 H 0.494156 0.766776 0.334966
C20_4 C 0.4977(4) 0.6273(6) 0.5318(6)
H8_4 H 0.498621 0.592609 0.496502
C22_4 C 0.6801(4) 0.6036(6) 0.6044(5)
C23_4 C 0.7094(4) 0.8725(6) 0.5485(5)
H10_4 H 0.708173 0.828743 0.516972
C24_4 C 0.4002(5) 0.7058(8) 0.3159(7)
H11_4 H 0.407706 0.671587 0.286819
C25_4 C 0.5471(4) 0.9209(8) 0.3650(7)
C26_4 C 0.3762(4) 0.7967(7) 0.4040(7)
H12_4 H 0.368771 0.827930 0.434602
C28_4 C 0.3543(4) 0.6868(7) 0.3184(6)
H14_4 H 0.329658 0.641196 0.286214
C29_4 C 0.5972(4) 0.7619(7) 0.7216(6)
C30_4 C 0.6130(4) 0.9101(7) 0.3315(6)
H15_4 H 0.633342 0.875748 0.319626
C31_4 C 0.4339(4) 0.7779(8) 0.3587(7)
C32_4 C 0.5773(4) 0.8690(7) 0.3451(6)
H16_4 H 0.573125 0.808089 0.341361
C33_4 C 0.4223(4) 0.8241(7) 0.4032(7)
H17_4 H 0.444544 0.872873 0.432418
C35_4 C 0.5048(5) 0.8819(8) 0.3746(8)
H19_4 H 0.494073 0.917922 0.399148
H20_4 H 0.236(3) 0.647(4) 0.446(4)
O12_4 O 0.1092(2) 0.7630(4) 0.3803(4)
O13_4 O 0.2273(2) 0.8685(4) 0.4379(3)
O14_4 O 0.2187(3) 0.6660(4) 0.2558(4)
O15_4 O 0.3049(2) 0.5514(4) 0.3790(4)
O16_4 O 0.2660(2) 0.8238(4) 0.3785(4)
O17_4 O 0.2410(3) 0.4696(4) 0.3818(4)
O18_4 O 0.1668(3) 0.5395(4) 0.2217(4)
O19_4 O 0.0977(2) 0.6586(4) 0.2359(4)
O20_4 O 0.1346(3) 0.7947(4) 0.2682(4)
C1_5 C 0.2273(3) 0.4757(6) 0.0906(5)
C2_5 C 0.2263(4) 0.5430(6) 0.0453(6)
H1_5 H 0.237024 0.531434 0.012871
C3_5 C 0.1941(4) 0.6485(6) 0.0974(6)
C4_5 C 0.1980(4) 0.5815(6) 0.1450(6)
C5_5 C 0.1733(3) 0.7385(6) 0.0979(5)
C6_5 C 0.1999(4) 0.8144(5) 0.1015(5)
H2_5 H 0.232170 0.811200 0.102019
C7_5 C 0.0483(4) 0.8271(6) 0.0921(6)
C8_5 C 0.1219(4) 0.7456(6) 0.0930(5)
H3_5 H 0.102181 0.694715 0.088101
C9_5 C 0.2453(4) 0.3824(7) 0.0909(5)
C10_5 C 0.1013(4) 0.8256(5) 0.0954(5)
C12_5 C 0.1299(3) 0.9012(6) 0.1014(5)
H5_5 H 0.116284 0.955732 0.103427
C14_5 C 0.1939(4) 0.5991(7) 0.2121(6)
C15_5 C 0.2131(4) 0.9786(6) 0.1138(6)
C17_5 C 0.0453(3) 0.7754(5) 0.1448(5)
C21_5 C 0.2126(4) 0.4966(6) 0.1396(5)
H9_5 H 0.212616 0.452359 0.169777
C22_5 C 0.1801(4) 0.8964(6) 0.1044(5)
C23_5 C 0.2094(4) 0.6275(6) 0.0485(5)
H10_5 H 0.208173 0.671257 0.016972
C29_5 C 0.0972(4) 0.7381(7) 0.2216(6)
N2_3 N 0.1193(3) 0.5014(5) 0.8347(5)
C25_5 C 0.0471(4) 0.5791(8) 0.8650(7)
C27_5 C 0.0553(5) 0.4923(8) 0.8701(8)
H13_5 H 0.036270 0.456493 0.883204
C30_5 C 0.1130(4) 0.5899(7) 0.8315(6)
H15_5 H 0.133342 0.624252 0.819626
C32_5 C 0.0773(4) 0.6310(7) 0.8451(6)
H16_5 H 0.073125 0.691911 0.841361
C34_5 C 0.0918(4) 0.4546(7) 0.8563(7)
H18_5 H 0.097539 0.394047 0.862234
C35_5 C 0.0048(5) 0.6181(8) 0.8746(8)
N3_3 N 0.6193(3) 0.0014(5) 0.8347(5)
O4_5 O 0.8398(3) 0.8172(4) 0.0002(4)
C11_5 C 0.9467(4) 0.8670(5) 0.0240(5)
C13_5 C 0.9931(4) 0.7673(6) 0.1343(5)
H6_5 H 0.991751 0.732096 0.168922
C16_5 C 0.9423(4) 0.8111(6) 0.0726(5)
C18_5 C 0.8872(4) 0.7970(6) 0.0634(7)
C20_5 C 0.9977(4) 0.8727(6) 0.0318(6)
O3_5 O 0.7188(3) 0.8435(4) 0.8972(4)
N1_5 N 0.8427(3) 0.7725(5) 0.8622(5)
H4_5 H 0.914914 0.900837 0.985827
C19_5 C 0.9812(4) 0.6931(8) 0.8542(7)
H7_5 H 0.994156 0.733224 0.834966
H8_5 H 0.998621 0.907391 0.996502
C24_5 C 0.9002(5) 0.7942(8) 0.8159(7)
H11_5 H 0.907706 0.828413 0.786819
C26_5 C 0.8762(4) 0.7033(7) 0.9040(7)
H12_5 H 0.868771 0.672070 0.934602
C28_5 C 0.8543(4) 0.8132(7) 0.8184(6)
H14_5 H 0.829658 0.858804 0.786214
C31_5 C 0.9339(4) 0.7221(8) 0.8587(7)
C33_5 C 0.9223(4) 0.6759(7) 0.9032(7)
H17_5 H 0.944544 0.627127 0.932418
H19_5 H 0.994073 0.582078 0.899148
H20_5 H 0.736(3) 0.853(4) 0.946(4)
N3_4 N 0.3807(3) 0.0014(5) 0.6653(5)
O3_6 O 0.2812(3) 0.8435(4) 0.6028(4)
O4_6 O 0.1602(3) 0.8172(4) 0.4998(4)
N1_6 N 0.1573(3) 0.7725(5) 0.6378(5)
C11_6 C 0.0533(4) 0.8670(5) 0.4760(5)
H4_6 H 0.085086 0.900837 0.514173
C13_6 C 0.0069(4) 0.7673(6) 0.3657(5)
H6_6 H 0.008249 0.732096 0.331078
C16_6 C 0.0577(4) 0.8111(6) 0.4274(5)
C18_6 C 0.1128(4) 0.7970(6) 0.4366(7)
C19_6 C 0.0188(4) 0.6931(8) 0.6458(7)
H7_6 H 0.005844 0.733224 0.665034
C20_6 C 0.0023(4) 0.8727(6) 0.4682(6)
H8_6 H 0.001379 0.907391 0.503498
C24_6 C 0.0998(5) 0.7942(8) 0.6841(7)
H11_6 H 0.092294 0.828413 0.713181
C26_6 C 0.1238(4) 0.7033(7) 0.5960(7)
H12_6 H 0.131229 0.672070 0.565398
C28_6 C 0.1457(4) 0.8132(7) 0.6816(6)
H14_6 H 0.170342 0.858804 0.713786
C31_6 C 0.0661(4) 0.7221(8) 0.6413(7)
C33_6 C 0.0777(4) 0.6759(7) 0.5968(7)
H17_6 H 0.055456 0.627127 0.567582
H19_6 H 0.005927 0.582078 0.600852
H20_6 H 0.264(3) 0.853(4) 0.554(4)
C1_6 C 0.7727(3) 0.4757(6) 0.4094(5)
C2_6 C 0.7737(4) 0.5430(6) 0.4547(6)
H1_6 H 0.762976 0.531434 0.487129
C3_6 C 0.8059(4) 0.6485(6) 0.4026(6)
C4_6 C 0.8020(4) 0.5815(6) 0.3550(6)
C5_6 C 0.8267(3) 0.7385(6) 0.4021(5)
C6_6 C 0.8001(4) 0.8144(5) 0.3985(5)
H2_6 H 0.767830 0.811200 0.397981
C7_6 C 0.9517(4) 0.8271(6) 0.4079(6)
C8_6 C 0.8781(4) 0.7456(6) 0.4070(5)
H3_6 H 0.897819 0.694715 0.411899
N2_4 N 0.8807(3) 0.5014(5) 0.6653(5)
C9_6 C 0.7547(4) 0.3824(7) 0.4091(5)
C10_6 C 0.8987(4) 0.8256(5) 0.4046(5)
C12_6 C 0.8701(3) 0.9012(6) 0.3986(5)
H5_6 H 0.883716 0.955732 0.396573
C14_6 C 0.8061(4) 0.5991(7) 0.2879(6)
C15_6 C 0.7869(4) 0.9786(6) 0.3862(6)
C17_6 C 0.9547(3) 0.7754(5) 0.3552(5)
C21_6 C 0.7874(4) 0.4966(6) 0.3604(5)
H9_6 H 0.787384 0.452359 0.330223
C22_6 C 0.8199(4) 0.8964(6) 0.3956(5)
C23_6 C 0.7906(4) 0.6275(6) 0.4515(5)
H10_6 H 0.791827 0.671257 0.483028
C25_6 C 0.9529(4) 0.5791(8) 0.6350(7)
C27_6 C 0.9447(5) 0.4923(8) 0.6299(8)
H13_6 H 0.963730 0.456493 0.616796
C29_6 C 0.9028(4) 0.7381(7) 0.2784(6)
C30_6 C 0.8870(4) 0.5899(7) 0.6685(6)
H15_6 H 0.866658 0.624252 0.680374
C32_6 C 0.9227(4) 0.6310(7) 0.6549(6)
H16_6 H 0.926875 0.691911 0.658639
C34_6 C 0.9082(4) 0.4546(7) 0.6437(7)
H18_6 H 0.902461 0.394047 0.637766
C35_6 C 0.9952(5) 0.6181(8) 0.6254(8)
C2_7 C 0.7263(4) 0.0430(6) 0.0453(6)
H1_7 H 0.737024 0.031434 0.012871
C3_7 C 0.6941(4) 0.1485(6) 0.0974(6)
C4_7 C 0.6980(4) 0.0815(6) 0.1450(6)
O4_7 O 0.3398(3) 0.3172(4) 0.0002(4)
C5_7 C 0.6733(3) 0.2385(6) 0.0979(5)
C6_7 C 0.6999(4) 0.3144(5) 0.1015(5)
H2_7 H 0.732170 0.311200 0.102019
C7_7 C 0.5483(4) 0.3271(6) 0.0921(6)
C8_7 C 0.6219(4) 0.2456(6) 0.0930(5)
H3_7 H 0.602181 0.194715 0.088101
C10_7 C 0.6013(4) 0.3256(5) 0.0954(5)
C11_7 C 0.4467(4) 0.3670(5) 0.0240(5)
C12_7 C 0.6299(3) 0.4012(6) 0.1014(5)
H5_7 H 0.616284 0.455732 0.103427
C13_7 C 0.4931(4) 0.2673(6) 0.1343(5)
H6_7 H 0.491751 0.232096 0.168922
C14_7 C 0.6939(4) 0.0991(7) 0.2121(6)
C15_7 C 0.7131(4) 0.4786(6) 0.1138(6)
C16_7 C 0.4423(4) 0.3111(6) 0.0726(5)
C17_7 C 0.5453(3) 0.2754(5) 0.1448(5)
C18_7 C 0.3872(4) 0.2970(6) 0.0634(7)
C20_7 C 0.4977(4) 0.3727(6) 0.0318(6)
C22_7 C 0.6801(4) 0.3964(6) 0.1044(5)
C23_7 C 0.7094(4) 0.1275(6) 0.0485(5)
H10_7 H 0.708173 0.171257 0.016972
C29_7 C 0.5972(4) 0.2381(7) 0.2216(6)
O3_7 O 0.2188(3) 0.3435(4) 0.8972(4)
N1_7 N 0.3427(3) 0.2725(5) 0.8622(5)
H4_7 H 0.414914 0.400837 0.985827
C19_7 C 0.4812(4) 0.1931(8) 0.8542(7)
H7_7 H 0.494156 0.233224 0.834966
H8_7 H 0.498621 0.407391 0.996502
C24_7 C 0.4002(5) 0.2942(8) 0.8159(7)
H11_7 H 0.407706 0.328413 0.786819
C25_7 C 0.5471(4) 0.0791(8) 0.8650(7)
C26_7 C 0.3762(4) 0.2033(7) 0.9040(7)
H12_7 H 0.368771 0.172070 0.934602
C28_7 C 0.3543(4) 0.3132(7) 0.8184(6)
H14_7 H 0.329658 0.358804 0.786214
C30_7 C 0.6130(4) 0.0899(7) 0.8315(6)
H15_7 H 0.633342 0.124252 0.819626
C31_7 C 0.4339(4) 0.2221(8) 0.8587(7)
C32_7 C 0.5773(4) 0.1310(7) 0.8451(6)
H16_7 H 0.573125 0.191911 0.841361
C33_7 C 0.4223(4) 0.1759(7) 0.9032(7)
H17_7 H 0.444544 0.127127 0.932418
C35_7 C 0.5048(5) 0.1181(8) 0.8746(8)
H19_7 H 0.494073 0.082078 0.899148
H20_7 H 0.236(3) 0.353(4) 0.946(4)
C1_7 C 0.7273(3) 0.9757(6) 0.0906(5)
C9_7 C 0.7453(4) 0.8824(7) 0.0909(5)
C21_7 C 0.7126(4) 0.9966(6) 0.1396(5)
H9_7 H 0.712616 0.952359 0.169777
C27_7 C 0.5553(5) 0.9923(8) 0.8701(8)
H13_7 H 0.536270 0.956493 0.883204
C34_7 C 0.5918(4) 0.9546(7) 0.8563(7)
H18_7 H 0.597539 0.894047 0.862234
C2_8 C 0.2737(4) 0.0430(6) 0.4547(6)
H1_8 H 0.262976 0.031434 0.487129
C3_8 C 0.3059(4) 0.1485(6) 0.4026(6)
C4_8 C 0.3020(4) 0.0815(6) 0.3550(6)
O3_8 O 0.7812(3) 0.3435(4) 0.6028(4)
O4_8 O 0.6602(3) 0.3172(4) 0.4998(4)
C5_8 C 0.3267(3) 0.2385(6) 0.4021(5)
C6_8 C 0.3001(4) 0.3144(5) 0.3985(5)
H2_8 H 0.267830 0.311200 0.397981
C7_8 C 0.4517(4) 0.3271(6) 0.4079(6)
N1_8 N 0.6573(3) 0.2725(5) 0.6378(5)
C8_8 C 0.3781(4) 0.2456(6) 0.4070(5)
H3_8 H 0.397819 0.194715 0.411899
C10_8 C 0.3987(4) 0.3256(5) 0.4046(5)
C11_8 C 0.5533(4) 0.3670(5) 0.4760(5)
H4_8 H 0.585086 0.400837 0.514173
C12_8 C 0.3701(3) 0.4012(6) 0.3986(5)
H5_8 H 0.383716 0.455732 0.396573
C13_8 C 0.5069(4) 0.2673(6) 0.3657(5)
H6_8 H 0.508249 0.232096 0.331078
C14_8 C 0.3061(4) 0.0991(7) 0.2879(6)
C15_8 C 0.2869(4) 0.4786(6) 0.3862(6)
C16_8 C 0.5577(4) 0.3111(6) 0.4274(5)
C17_8 C 0.4547(3) 0.2754(5) 0.3552(5)
C18_8 C 0.6128(4) 0.2970(6) 0.4366(7)
C19_8 C 0.5188(4) 0.1931(8) 0.6458(7)
H7_8 H 0.505844 0.233224 0.665034
C20_8 C 0.5023(4) 0.3727(6) 0.4682(6)
H8_8 H 0.501379 0.407391 0.503498
C22_8 C 0.3199(4) 0.3964(6) 0.3956(5)
C23_8 C 0.2906(4) 0.1275(6) 0.4515(5)
H10_8 H 0.291827 0.171257 0.483028
C24_8 C 0.5998(5) 0.2942(8) 0.6841(7)
H11_8 H 0.592294 0.328413 0.713181
C25_8 C 0.4529(4) 0.0791(8) 0.6350(7)
C26_8 C 0.6238(4) 0.2033(7) 0.5960(7)
H12_8 H 0.631229 0.172070 0.565398
C28_8 C 0.6457(4) 0.3132(7) 0.6816(6)
H14_8 H 0.670342 0.358804 0.713786
C29_8 C 0.4028(4) 0.2381(7) 0.2784(6)
C30_8 C 0.3870(4) 0.0899(7) 0.6685(6)
H15_8 H 0.366658 0.124252 0.680374
C31_8 C 0.5661(4) 0.2221(8) 0.6413(7)
C32_8 C 0.4227(4) 0.1310(7) 0.6549(6)
H16_8 H 0.426875 0.191911 0.658639
C33_8 C 0.5777(4) 0.1759(7) 0.5968(7)
H17_8 H 0.555456 0.127127 0.567582
C35_8 C 0.4952(5) 0.1181(8) 0.6254(8)
H19_8 H 0.505927 0.082078 0.600852
H20_8 H 0.764(3) 0.353(4) 0.554(4)
C1_8 C 0.2727(3) 0.9757(6) 0.4094(5)
C9_8 C 0.2547(4) 0.8824(7) 0.4091(5)
C21_8 C 0.2874(4) 0.9966(6) 0.3604(5)
H9_8 H 0.287384 0.952359 0.330223
C27_8 C 0.4447(5) 0.9923(8) 0.6299(8)
H13_8 H 0.463730 0.956493 0.616796
C34_8 C 0.4082(4) 0.9546(7) 0.6437(7)
H18_8 H 0.402461 0.894047 0.637766
loop_
_geom_bond_atom_site_label_1
_geom_bond_atom_site_label_2
_geom_bond_site_symmetry_1
_geom_bond_site_symmetry_2
Zn1 O3 1_555 1_555
Zn2 O3 1_555 1_555
Zn3 O3 1_555 1_555
O3 H20 1_555 1_555
N1 Zn1 1_555 1_555
C19 H7 1_555 1_555
C24 H11 1_555 1_555
C26 N1 1_555 1_555
H12 C26 1_555 1_555
C28 N1 1_555 1_555
H14 C28 1_555 1_555
C31 C19 1_555 1_555
C33 C26 1_555 1_555
H17 C33 1_555 1_555
O12 Zn3 1_555 1_555
O13 Zn3 1_555 1_555
O14 Zn1 1_555 1_555
O15 Zn1 1_555 1_555
O16 Zn1 1_555 1_555
O18 Zn2 1_555 1_555
O19 Zn2 1_555 1_555
O20 Zn3 1_555 1_555
C24 C28 1_555 1_555
C24 C31 1_555 1_555
C31 C33 1_555 1_555
O1 C18 1_555 1_555
C13 H6 1_555 1_555
C16 C11 1_555 1_555
C18 O4 1_555 1_555
Zn11 O1 1_555 1_555
C11 C20 1_555 1_555
C13 C16 1_555 1_555
C16 C18 1_555 1_555
N2 C30 1_555 1_555
C25 C27 1_555 1_555
C27 H13 1_555 1_555
C30 H15 1_555 1_555
C32 C25 1_555 1_555
H16 C32 1_555 1_555
C34 N2 1_555 1_555
H18 C34 1_555 1_555
Zn7 N2 1_555 1_555
C25 C35 1_555 1_555
C27 C34 1_555 1_555
C30 C32 1_555 1_555
C1 C2 1_555 1_555
C2 H1 1_555 1_555
C3 C4 1_555 1_555
C4 C14 1_555 1_555
O2 C9 1_555 1_555
O5 C14 1_555 1_555
C5 C3 1_555 1_555
O7 C9 1_555 1_555
O8 C15 1_555 1_555
C6 C5 1_555 1_555
H2 C6 1_555 1_555
C7 C10 1_555 1_555
O9 C14 1_555 1_555
C8 C5 1_555 1_555
H3 C8 1_555 1_555
C9 C1 1_555 1_555
C10 C8 1_555 1_555
O10 C29 1_555 1_555
C12 C10 1_555 1_555
H5 C12 1_555 1_555
C15 C22 1_555 1_555
O11 C29 1_555 1_555
C17 C7 1_555 1_555
C21 C1 1_555 1_555
H9 C21 1_555 1_555
C22 C6 1_555 1_555
C23 C2 1_555 1_555
H10 C23 1_555 1_555
C29 C17 1_555 1_555
Zn5 O7 1_555 1_555
Zn6 O5 1_555 1_555
Zn9 O9 1_555 1_555
Zn10 O2 1_555 1_555
Zn12 O11 1_555 1_555
C3 C23 1_555 1_555
C4 C21 1_555 1_555
O10 Zn9 1_555 1_555
C12 C22 1_555 1_555
Zn5 O6 1_555 1_555
C1_2 C2_2 1_555 1_555
C2_2 H1_2 1_555 1_555
C3_2 C4_2 1_555 1_555
C4_2 C14_2 1_555 1_555
O2_2 C9_2 1_555 1_555
O5_2 C14_2 1_555 1_555
C5_2 C3_2 1_555 1_555
O7_2 C9_2 1_555 1_555
O8_2 C15_2 1_555 1_555
C6_2 C5_2 1_555 1_555
H2_2 C6_2 1_555 1_555
C7_2 C10_2 1_555 1_555
O9_2 C14_2 1_555 1_555
C8_2 C5_2 1_555 1_555
H3_2 C8_2 1_555 1_555
N2_2 C30_2 1_555 1_555
C9_2 C1_2 1_555 1_555
C10_2 C8_2 1_555 1_555
O10_2 C29_2 1_555 1_555
C12_2 C10_2 1_555 1_555
H5_2 C12_2 1_555 1_555
C15_2 C22_2 1_555 1_555
O11_2 C29_2 1_555 1_555
C17_2 C7_2 1_555 1_555
C21_2 C1_2 1_555 1_555
H9_2 C21_2 1_555 1_555
C22_2 C6_2 1_555 1_555
C23_2 C2_2 1_555 1_555
H10_2 C23_2 1_555 1_555
C25_2 C27_2 1_555 1_555
C27_2 H13_2 1_555 1_555
C29_2 C17_2 1_555 1_555
C30_2 H15_2 1_555 1_555
C32_2 C25_2 1_555 1_555
H16_2 C32_2 1_555 1_555
C34_2 N2_2 1_555 1_555
H18_2 C34_2 1_555 1_555
Zn5_2 O7_2 1_555 1_555
Zn6_2 O5_2 1_555 1_555
Zn7_2 N2_2 1_555 1_555
Zn9_2 O9_2 1_555 1_555
Zn10_2 O2_2 1_555 1_555
Zn11 O11_2 1_555 1_555
C3_2 C23_2 1_555 1_555
C4_2 C21_2 1_555 1_555
O10_2 Zn9_2 1_555 1_555
C12_2 C22_2 1_555 1_555
C25_2 C35_2 1_555 1_555
C27_2 C34_2 1_555 1_555
C30_2 C32_2 1_555 1_555
Zn5_2 O6_2 1_555 1_555
O1_2 C18_2 1_555 1_555
Zn1_2 O3_2 1_555 1_555
Zn2_2 O3_2 1_555 1_555
Zn3_2 O3_2 1_555 1_555
O3_2 H20_2 1_555 1_555
O4_2 Zn1_2 1_555 1_555
N1_2 Zn1_2 1_555 1_555
C11_2 H4_2 1_555 1_555
C13_2 H6_2 1_555 1_555
C16_2 C11_2 1_555 1_555
C18_2 O4_2 1_555 1_555
C19_2 H7_2 1_555 1_555
H8_2 C20_2 1_555 1_555
C24_2 H11_2 1_555 1_555
C26_2 N1_2 1_555 1_555
H12_2 C26_2 1_555 1_555
C28_2 N1_2 1_555 1_555
H14_2 C28_2 1_555 1_555
C31_2 C19_2 1_555 1_555
C33_2 C26_2 1_555 1_555
H17_2 C33_2 1_555 1_555
O12_2 Zn3_2 1_555 1_555
Zn12 O1_2 1_555 1_555
O13_2 Zn3_2 1_555 1_555
O14_2 Zn1_2 1_555 1_555
O15_2 Zn1_2 1_555 1_555
O16_2 Zn1_2 1_555 1_555
O18_2 Zn2_2 1_555 1_555
O19_2 Zn2_2 1_555 1_555
O20_2 Zn3_2 1_555 1_555
C11_2 C20_2 1_555 1_555
C13_2 C16_2 1_555 1_555
C16_2 C18_2 1_555 1_555
C24_2 C28_2 1_555 1_555
C24_2 C31_2 1_555 1_555
C31_2 C33_2 1_555 1_555
C27_3 H13_3 1_555 1_555
H18_3 C34_3 1_555 1_555
C27_3 C34_3 1_555 1_555
O2_3 C9_3 1_555 1_555
O7_3 C9_3 1_555 1_555
C9_3 C1_3 1_555 1_555
C21_3 C1_3 1_555 1_555
H9_3 C21_3 1_555 1_555
Zn6_2 O7_3 1_555 1_555
Zn11 O2_3 1_555 1_555
Zn1_3 O3_3 1_555 1_555
Zn7 O3_3 1_555 1_555
Zn3_3 O3_3 1_555 1_555
O3_3 H20_3 1_555 1_555
N1_3 Zn1_3 1_555 1_555
N3 C30_3 1_555 1_555
C19_3 H7_3 1_555 1_555
C24_3 H11_3 1_555 1_555
C26_3 N1_3 1_555 1_555
H12_3 C26_3 1_555 1_555
C28_3 N1_3 1_555 1_555
H14_3 C28_3 1_555 1_555
C30_3 H15_3 1_555 1_555
C31_3 C19_3 1_555 1_555
C32_3 C25_3 1_555 1_555
H16_3 C32_3 1_555 1_555
C33_3 C26_3 1_555 1_555
H17_3 C33_3 1_555 1_555
C35_3 C19_3 1_555 1_555
H19_3 C35_3 1_555 1_555
O12_3 Zn3_3 1_555 1_555
O13_3 Zn3_3 1_555 1_555
O14_3 Zn1_3 1_555 1_555
O15_3 Zn1_3 1_555 1_555
O16_3 Zn1_3 1_555 1_555
O17_3 Zn7 1_555 1_555
O18_3 Zn7 1_555 1_555
O19_3 Zn7 1_555 1_555
O20_3 Zn3_3 1_555 1_555
C24_3 C28_3 1_555 1_555
C24_3 C31_3 1_555 1_555
C25_3 C35_3 1_555 1_555
C30_3 C32_3 1_555 1_555
C31_3 C33_3 1_555 1_555
C2_3 H1_3 1_555 1_555
C3_3 C4_3 1_555 1_555
C4_3 C14_3 1_555 1_555
O1_3 C18_3 1_555 1_555
O5_3 C14_3 1_555 1_555
O6_3 C15_3 1_555 1_555
C5_3 C3_3 1_555 1_555
O8_3 C15_3 1_555 1_555
C6_3 C5_3 1_555 1_555
H2_3 C6_3 1_555 1_555
C7_3 C10_3 1_555 1_555
O9_3 C14_3 1_555 1_555
C8_3 C5_3 1_555 1_555
H3_3 C8_3 1_555 1_555
C10_3 C8_3 1_555 1_555
O10_3 C29_3 1_555 1_555
C12_3 C10_3 1_555 1_555
H5_3 C12_3 1_555 1_555
C13_3 H6_3 1_555 1_555
C15_3 C22_3 1_555 1_555
O11_3 C29_3 1_555 1_555
C16_3 C11_3 1_555 1_555
C17_3 C7_3 1_555 1_555
C18_3 O4_3 1_555 1_555
C20_3 C7_3 1_555 1_555
C22_3 C6_3 1_555 1_555
C23_3 C2_3 1_555 1_555
H10_3 C23_3 1_555 1_555
C29_3 C17_3 1_555 1_555
Zn6_2 O6_3 1_555 1_555
Zn5_2 O5_3 1_555 1_555
Zn9_2 O8_3 1_555 1_555
Zn8_2 O9_3 1_555 1_555
Zn10 O1_3 1_555 1_555
Zn10_2 O11_3 1_555 1_555
C3_3 C23_3 1_555 1_555
C11_3 C20_3 1_555 1_555
O10_3 Zn8_2 1_555 1_555
C12_3 C22_3 1_555 1_555
C13_3 C16_3 1_555 1_555
C13_3 C17_3 1_555 1_555
C16_3 C18_3 1_555 1_555
O2_4 C9_4 1_555 1_555
O7_4 C9_4 1_555 1_555
C9_4 C1_4 1_555 1_555
C21_4 C1_4 1_555 1_555
H9_4 C21_4 1_555 1_555
C27_4 H13_4 1_555 1_555
H18_4 C34_4 1_555 1_555
Zn6 O7_4 1_555 1_555
Zn12 O2_4 1_555 1_555
C27_4 C34_4 1_555 1_555
C2_4 H1_4 1_555 1_555
C3_4 C4_4 1_555 1_555
C4_4 C14_4 1_555 1_555
O1_4 C18_4 1_555 1_555
Zn1_4 O3_4 1_555 1_555
Zn7_2 O3_4 1_555 1_555
Zn3_4 O3_4 1_555 1_555
O3_4 H20_4 1_555 1_555
O4_4 Zn1_4 1_555 1_555
O5_4 C14_4 1_555 1_555
O6_4 C15_4 1_555 1_555
C5_4 C3_4 1_555 1_555
O8_4 C15_4 1_555 1_555
C6_4 C5_4 1_555 1_555
H2_4 C6_4 1_555 1_555
C7_4 C10_4 1_555 1_555
N1_4 Zn1_4 1_555 1_555
O9_4 C14_4 1_555 1_555
C8_4 C5_4 1_555 1_555
H3_4 C8_4 1_555 1_555
N3_2 C30_4 1_555 1_555
C10_4 C8_4 1_555 1_555
C11_4 H4_4 1_555 1_555
O10_4 C29_4 1_555 1_555
C12_4 C10_4 1_555 1_555
H5_4 C12_4 1_555 1_555
C13_4 H6_4 1_555 1_555
C15_4 C22_4 1_555 1_555
O11_4 C29_4 1_555 1_555
C16_4 C11_4 1_555 1_555
C17_4 C7_4 1_555 1_555
C18_4 O4_4 1_555 1_555
C19_4 H7_4 1_555 1_555
C20_4 C7_4 1_555 1_555
H8_4 C20_4 1_555 1_555
C22_4 C6_4 1_555 1_555
C23_4 C2_4 1_555 1_555
H10_4 C23_4 1_555 1_555
C24_4 H11_4 1_555 1_555
C26_4 N1_4 1_555 1_555
H12_4 C26_4 1_555 1_555
C28_4 N1_4 1_555 1_555
H14_4 C28_4 1_555 1_555
C29_4 C17_4 1_555 1_555
C30_4 H15_4 1_555 1_555
C31_4 C19_4 1_555 1_555
C32_4 C25_4 1_555 1_555
H16_4 C32_4 1_555 1_555
C33_4 C26_4 1_555 1_555
H17_4 C33_4 1_555 1_555
C35_4 C19_4 1_555 1_555
H19_4 C35_4 1_555 1_555
O12_4 Zn3_4 1_555 1_555
Zn6 O6_4 1_555 1_555
Zn5 O5_4 1_555 1_555
Zn9 O8_4 1_555 1_555
Zn8 O9_4 1_555 1_555
Zn10_2 O1_4 1_555 1_555
Zn10 O11_4 1_555 1_555
O13_4 Zn3_4 1_555 1_555
O14_4 Zn1_4 1_555 1_555
O15_4 Zn1_4 1_555 1_555
O16_4 Zn1_4 1_555 1_555
O17_4 Zn7_2 1_555 1_555
O18_4 Zn7_2 1_555 1_555
O19_4 Zn7_2 1_555 1_555
O20_4 Zn3_4 1_555 1_555
C3_4 C23_4 1_555 1_555
C11_4 C20_4 1_555 1_555
O10_4 Zn8 1_555 1_555
C12_4 C22_4 1_555 1_555
C13_4 C16_4 1_555 1_555
C13_4 C17_4 1_555 1_555
C16_4 C18_4 1_555 1_555
C24_4 C28_4 1_555 1_555
C24_4 C31_4 1_555 1_555
C25_4 C35_4 1_555 1_555
C30_4 C32_4 1_555 1_555
C31_4 C33_4 1_555 1_555
C1_5 C2_5 1_555 1_555
C2_5 H1_5 1_555 1_555
C3_5 C4_5 1_555 1_555
C4_5 C14_5 1_555 1_555
O13 C9_5 1_555 1_555
O14_4 C14_5 1_555 1_555
C5_5 C3_5 1_555 1_555
O16 C9_5 1_555 1_555
O17 C15_5 1_555 1_555
C6_5 C5_5 1_555 1_555
H2_5 C6_5 1_555 1_555
C7_5 C10_5 1_555 1_555
O18_4 C14_5 1_555 1_555
C8_5 C5_5 1_555 1_555
H3_5 C8_5 1_555 1_555
C9_5 C1_5 1_555 1_555
C10_5 C8_5 1_555 1_555
O19_4 C29_5 1_555 1_555
C12_5 C10_5 1_555 1_555
H5_5 C12_5 1_555 1_555
C15_5 C22_5 1_555 1_555
O20_4 C29_5 1_555 1_555
C17_5 C7_5 1_555 1_555
C21_5 C1_5 1_555 1_555
H9_5 C21_5 1_555 1_555
C22_5 C6_5 1_555 1_555
C23_5 C2_5 1_555 1_555
H10_5 C23_5 1_555 1_555
C29_5 C17_5 1_555 1_555
C3_5 C23_5 1_555 1_555
C4_5 C21_5 1_555 1_555
C12_5 C22_5 1_555 1_555
N2_3 C30_5 1_555 1_555
C25_5 C27_5 1_555 1_555
C27_5 H13_5 1_555 1_555
C30_5 H15_5 1_555 1_555
C32_5 C25_5 1_555 1_555
H16_5 C32_5 1_555 1_555
C34_5 N2_3 1_555 1_555
H18_5 C34_5 1_555 1_555
Zn9_2 N2_3 1_555 1_555
C25_5 C35_5 1_555 1_555
C27_5 C34_5 1_555 1_555
C30_5 C32_5 1_555 1_555
O12_3 C18_5 1_555 1_555
C13_5 H6_5 1_555 1_555
C16_5 C11_5 1_555 1_555
C18_5 O4_5 1_555 1_555
C11_5 C20_5 1_555 1_555
C13_5 C16_5 1_555 1_555
C16_5 C18_5 1_555 1_555
Zn5 O3_5 1_555 1_555
Zn8 O3_5 1_555 1_555
Zn10 O3_5 1_555 1_555
O3_5 H20_5 1_555 1_555
N1_5 Zn5 1_555 1_555
C19_5 H7_5 1_555 1_555
C24_5 H11_5 1_555 1_555
C26_5 N1_5 1_555 1_555
H12_5 C26_5 1_555 1_555
C28_5 N1_5 1_555 1_555
H14_5 C28_5 1_555 1_555
C31_5 C19_5 1_555 1_555
C33_5 C26_5 1_555 1_555
H17_5 C33_5 1_555 1_555
C24_5 C28_5 1_555 1_555
C24_5 C31_5 1_555 1_555
C31_5 C33_5 1_555 1_555
O12_4 C18_6 1_555 1_555
Zn5_2 O3_6 1_555 1_555
Zn8_2 O3_6 1_555 1_555
Zn10_2 O3_6 1_555 1_555
O3_6 H20_6 1_555 1_555
O4_6 Zn5_2 1_555 1_555
N1_6 Zn5_2 1_555 1_555
C11_6 H4_6 1_555 1_555
C13_6 H6_6 1_555 1_555
C16_6 C11_6 1_555 1_555
C18_6 O4_6 1_555 1_555
C19_6 H7_6 1_555 1_555
H8_6 C20_6 1_555 1_555
C24_6 H11_6 1_555 1_555
C26_6 N1_6 1_555 1_555
H12_6 C26_6 1_555 1_555
C28_6 N1_6 1_555 1_555
H14_6 C28_6 1_555 1_555
C31_6 C19_6 1_555 1_555
C33_6 C26_6 1_555 1_555
H17_6 C33_6 1_555 1_555
C11_6 C20_6 1_555 1_555
C13_6 C16_6 1_555 1_555
C16_6 C18_6 1_555 1_555
C24_6 C28_6 1_555 1_555
C24_6 C31_6 1_555 1_555
C31_6 C33_6 1_555 1_555
C1_6 C2_6 1_555 1_555
C2_6 H1_6 1_555 1_555
C3_6 C4_6 1_555 1_555
C4_6 C14_6 1_555 1_555
O13_2 C9_6 1_555 1_555
O14_3 C14_6 1_555 1_555
C5_6 C3_6 1_555 1_555
O16_2 C9_6 1_555 1_555
O17_2 C15_6 1_555 1_555
C6_6 C5_6 1_555 1_555
H2_6 C6_6 1_555 1_555
C7_6 C10_6 1_555 1_555
O18_3 C14_6 1_555 1_555
C8_6 C5_6 1_555 1_555
H3_6 C8_6 1_555 1_555
N2_4 C30_6 1_555 1_555
C9_6 C1_6 1_555 1_555
C10_6 C8_6 1_555 1_555
O19_3 C29_6 1_555 1_555
C12_6 C10_6 1_555 1_555
H5_6 C12_6 1_555 1_555
C15_6 C22_6 1_555 1_555
O20_3 C29_6 1_555 1_555
C17_6 C7_6 1_555 1_555
C21_6 C1_6 1_555 1_555
H9_6 C21_6 1_555 1_555
C22_6 C6_6 1_555 1_555
C23_6 C2_6 1_555 1_555
H10_6 C23_6 1_555 1_555
C25_6 C27_6 1_555 1_555
C27_6 H13_6 1_555 1_555
C29_6 C17_6 1_555 1_555
C30_6 H15_6 1_555 1_555
C32_6 C25_6 1_555 1_555
H16_6 C32_6 1_555 1_555
C34_6 N2_4 1_555 1_555
H18_6 C34_6 1_555 1_555
Zn9 N2_4 1_555 1_555
C3_6 C23_6 1_555 1_555
C4_6 C21_6 1_555 1_555
C12_6 C22_6 1_555 1_555
C25_6 C35_6 1_555 1_555
C27_6 C34_6 1_555 1_555
C30_6 C32_6 1_555 1_555
C2_7 H1_7 1_555 1_555
C3_7 C4_7 1_555 1_555
C4_7 C14_7 1_555 1_555
O12 C18_7 1_555 1_555
O14_2 C14_7 1_555 1_555
O15_3 C15_7 1_555 1_555
C5_7 C3_7 1_555 1_555
O17_3 C15_7 1_555 1_555
C6_7 C5_7 1_555 1_555
H2_7 C6_7 1_555 1_555
C7_7 C10_7 1_555 1_555
O18_2 C14_7 1_555 1_555
C8_7 C5_7 1_555 1_555
H3_7 C8_7 1_555 1_555
C10_7 C8_7 1_555 1_555
O19_2 C29_7 1_555 1_555
C12_7 C10_7 1_555 1_555
H5_7 C12_7 1_555 1_555
C13_7 H6_7 1_555 1_555
C15_7 C22_7 1_555 1_555
O20_2 C29_7 1_555 1_555
C16_7 C11_7 1_555 1_555
C17_7 C7_7 1_555 1_555
C18_7 O4_7 1_555 1_555
C20_7 C7_7 1_555 1_555
C22_7 C6_7 1_555 1_555
C23_7 C2_7 1_555 1_555
H10_7 C23_7 1_555 1_555
C29_7 C17_7 1_555 1_555
C3_7 C23_7 1_555 1_555
C11_7 C20_7 1_555 1_555
C12_7 C22_7 1_555 1_555
C13_7 C16_7 1_555 1_555
C13_7 C17_7 1_555 1_555
C16_7 C18_7 1_555 1_555
Zn6_2 O3_7 1_555 1_555
Zn9_2 O3_7 1_555 1_555
Zn11 O3_7 1_555 1_555
O3_7 H20_7 1_555 1_555
N1_7 Zn6_2 1_555 1_555
N3_3 C30_7 1_555 1_555
C19_7 H7_7 1_555 1_555
C24_7 H11_7 1_555 1_555
C26_7 N1_7 1_555 1_555
H12_7 C26_7 1_555 1_555
C28_7 N1_7 1_555 1_555
H14_7 C28_7 1_555 1_555
C30_7 H15_7 1_555 1_555
C31_7 C19_7 1_555 1_555
C32_7 C25_7 1_555 1_555
H16_7 C32_7 1_555 1_555
C33_7 C26_7 1_555 1_555
H17_7 C33_7 1_555 1_555
C35_7 C19_7 1_555 1_555
H19_7 C35_7 1_555 1_555
C24_7 C28_7 1_555 1_555
C24_7 C31_7 1_555 1_555
C25_7 C35_7 1_555 1_555
C30_7 C32_7 1_555 1_555
C31_7 C33_7 1_555 1_555
O13_3 C9_7 1_555 1_555
O16_3 C9_7 1_555 1_555
C9_7 C1_7 1_555 1_555
C21_7 C1_7 1_555 1_555
H9_7 C21_7 1_555 1_555
C27_7 H13_7 1_555 1_555
H18_7 C34_7 1_555 1_555
C27_7 C34_7 1_555 1_555
C2_8 H1_8 1_555 1_555
C3_8 C4_8 1_555 1_555
C4_8 C14_8 1_555 1_555
O12_2 C18_8 1_555 1_555
Zn6 O3_8 1_555 1_555
Zn9 O3_8 1_555 1_555
Zn12 O3_8 1_555 1_555
O3_8 H20_8 1_555 1_555
O4_8 Zn6 1_555 1_555
O14 C14_8 1_555 1_555
O15_4 C15_8 1_555 1_555
C5_8 C3_8 1_555 1_555
O17_4 C15_8 1_555 1_555
C6_8 C5_8 1_555 1_555
H2_8 C6_8 1_555 1_555
C7_8 C10_8 1_555 1_555
N1_8 Zn6 1_555 1_555
O18 C14_8 1_555 1_555
C8_8 C5_8 1_555 1_555
H3_8 C8_8 1_555 1_555
N3_4 C30_8 1_555 1_555
C10_8 C8_8 1_555 1_555
C11_8 H4_8 1_555 1_555
O19 C29_8 1_555 1_555
C12_8 C10_8 1_555 1_555
H5_8 C12_8 1_555 1_555
C13_8 H6_8 1_555 1_555
C15_8 C22_8 1_555 1_555
O20 C29_8 1_555 1_555
C16_8 C11_8 1_555 1_555
C17_8 C7_8 1_555 1_555
C18_8 O4_8 1_555 1_555
C19_8 H7_8 1_555 1_555
C20_8 C7_8 1_555 1_555
H8_8 C20_8 1_555 1_555
C22_8 C6_8 1_555 1_555
C23_8 C2_8 1_555 1_555
H10_8 C23_8 1_555 1_555
C24_8 H11_8 1_555 1_555
C26_8 N1_8 1_555 1_555
H12_8 C26_8 1_555 1_555
C28_8 N1_8 1_555 1_555
H14_8 C28_8 1_555 1_555
C29_8 C17_8 1_555 1_555
C30_8 H15_8 1_555 1_555
C31_8 C19_8 1_555 1_555
C32_8 C25_8 1_555 1_555
H16_8 C32_8 1_555 1_555
C33_8 C26_8 1_555 1_555
H17_8 C33_8 1_555 1_555
C35_8 C19_8 1_555 1_555
H19_8 C35_8 1_555 1_555
C3_8 C23_8 1_555 1_555
C11_8 C20_8 1_555 1_555
C12_8 C22_8 1_555 1_555
C13_8 C16_8 1_555 1_555
C13_8 C17_8 1_555 1_555
C16_8 C18_8 1_555 1_555
C24_8 C28_8 1_555 1_555
C24_8 C31_8 1_555 1_555
C25_8 C35_8 1_555 1_555
C30_8 C32_8 1_555 1_555
C31_8 C33_8 1_555 1_555
O13_4 C9_8 1_555 1_555
O16_4 C9_8 1_555 1_555
C9_8 C1_8 1_555 1_555
C21_8 C1_8 1_555 1_555
H9_8 C21_8 1_555 1_555
C27_8 H13_8 1_555 1_555
H18_8 C34_8 1_555 1_555
C27_8 C34_8 1_555 1_555

#END
