
###############################################################################
#
# This file contains modified crystal structure data generated from the
# MOF subset of the Cambridge Structural Database (CSD) v543 
# hosted by the Cambridge Crystallographic Data Centre (CCDC).
#
# This work is licensed under the Creative Commons
# Attribution-NonCommercial-ShareAlike 4.0 International License.
# To view a copy of this license, visit
# http://creativecommons.org/licenses/by-nc-sa/4.0/
# or send a letter to
# Creative Commons, PO Box 1866, Mountain View, CA 94042, USA.
#
# CIF created using the CSD Python API on 29 September 2022
# The structure has been converted into the P1 space group
# The structure has a 3D framework
# The original CSD entry LOVVAV is in the monoclinic crystal system
# The framework has been calculated to contain at least 10.0% void space
# The void calculation uses a probe of radius 1.32A, grid spacing 0.4
# The framework is charged, counterions have been retained in the structure
#
###############################################################################

data_LOVVAV
_chemical_formula_moiety         '(C52 H32 Co8 N4 O14)n'
_symmetry_cell_setting           triclinic
_symmetry_space_group_name_H-M   'P 1'
_symmetry_Int_Tables_number      1
_space_group_name_Hall           'P 1'
loop_
_symmetry_equiv_pos_site_id
_symmetry_equiv_pos_as_xyz
1 x,y,z
_cell_length_a                   11.3517(12)
_cell_length_b                   11.3956(10)
_cell_length_c                   13.2806(12)
_cell_angle_alpha                90
_cell_angle_beta                 110.274(11)
_cell_angle_gamma                90
_cell_volume                     1611.54
loop_
_atom_site_label
_atom_site_type_symbol
_atom_site_fract_x
_atom_site_fract_y
_atom_site_fract_z
Co5 Co 0.0000 0.0000 0.0000
Co5_2 Co 0.0000 0.0000 1.0000
Co4 Co 0.0000 0.88190(7) 0.2500
Co5_3 Co 0.0000 1.0000 0.0000
Co5_4 Co 0.0000 1.0000 1.0000
Co7 Co 0.0000 -0.0000 0.5000
O11 O 0.0475(3) 0.0219(3) 0.1681(2)
Co5_5 Co 1.0000 0.0000 0.0000
O15 O 0.0085(3) 0.1814(2) 0.0020(2)
Co1 Co 0.0000 0.11810(7) 0.7500
C6 C 0.2333(4) 0.0458(4) 0.9499(3)
O3 O 0.1811(3) 0.1047(3) 0.8680(2)
C7 C 0.3731(4) 0.0240(4) 0.9787(3)
C9 C 0.4396(4) 0.0812(4) 0.9228(3)
H6 H 0.3993 0.1358 0.8701
O4 O 0.0629(3) 0.2393(3) 0.6701(2)
C10 C 0.0231(4) 0.2569(4) 0.5714(4)
C11 C 0.0111(4) 0.3839(4) 0.5349(3)
C12 C 0.0849(5) 0.4694(4) 0.5974(4)
H7 H 0.1426 0.4502 0.6645
O7 O 0.8156(3) 0.0019(3) 0.9881(2)
C21 C 0.5647(4) 0.0570(5) 0.9451(3)
H13 H 0.6082 0.0966 0.9077
O10 O 0.0085(3) 0.8186(2) 0.5020(2)
C26 C 0.0747(5) 0.5849(4) 0.5620(4)
H16 H 0.1271 0.6419 0.6050
Co5_6 Co 1.0000 0.0000 1.0000
Co7_2 Co 0.0000 1.0000 0.5000
O2 O 0.1844(3) 0.9981(3) 0.0119(2)
C8 C 0.4353(4) 0.9430(5) 0.0549(3)
H5 H 0.3918 0.9034 0.0923
C19 C 0.7667(4) 0.9542(4) 0.0501(3)
O8 O 0.8189(3) 0.8953(3) 0.1320(2)
C20 C 0.6269(4) 0.9760(4) 0.0213(3)
C22 C 0.5604(4) 0.9188(4) 0.0772(3)
H14 H 0.6007 0.8642 0.1299
Co4_2 Co 1.0000 0.88190(7) 0.2500
Co5_7 Co 1.0000 1.0000 0.0000
O6 O 0.0475(3) 0.9781(3) 0.6681(2)
N2 N 0.1202(4) 0.8925(4) 0.7223(3)
C14 C 0.2437(5) 0.8942(5) 0.7381(4)
H9 H 0.2772 0.9548 0.7095
C15 C 0.3199(5) 0.8075(5) 0.7958(4)
H10 H 0.4053 0.8088 0.8067
C16 C 0.2706(6) 0.7187(5) 0.8379(4)
H11 H 0.3223 0.6591 0.8771
C17 C 0.1454(6) 0.7175(5) 0.8221(4)
H12 H 0.1119 0.6575 0.8514
C18 C 0.0683(4) 0.8052(4) 0.7630(4)
Co5_8 Co 1.0000 1.0000 1.0000
Co7_3 Co 1.0000 -0.0000 0.5000
Co1_2 Co 1.0000 0.11810(7) 0.7500
O5 O 0.9915(3) 0.1814(2) 0.4980(2)
C13 C 0.9253(5) 0.4151(4) 0.4380(4)
H8 H 0.8729 0.3581 0.3950
O9 O 0.9371(3) 0.7607(3) 0.3299(2)
C23 C 0.9769(4) 0.7431(4) 0.4286(4)
C24 C 0.9889(4) 0.6161(4) 0.4651(3)
C25 C 0.9151(5) 0.5306(4) 0.4026(4)
H15 H 0.8574 0.5498 0.3355
Co7_4 Co 1.0000 1.0000 0.5000
O13 O 0.8189(3) 0.1047(3) 0.6320(2)
O14 O 0.9371(3) 0.2393(3) 0.8299(2)
O1 O 0.9525(3) 0.9781(3) 0.8319(2)
N1 N 0.8798(4) 0.8925(4) 0.7777(3)
C1 C 0.7563(5) 0.8942(5) 0.7619(4)
H1 H 0.7228 0.9548 0.7905
C2 C 0.6801(5) 0.8075(5) 0.7042(4)
H2 H 0.5947 0.8088 0.6933
C3 C 0.7294(6) 0.7187(5) 0.6621(4)
H3 H 0.6777 0.6591 0.6229
C4 C 0.8546(6) 0.7175(5) 0.6779(4)
H4 H 0.8881 0.6575 0.6486
C5 C 0.9317(4) 0.8052(4) 0.7370(4)
O16 O 0.9915(3) 0.8186(2) 0.9980(2)
C13_2 C 0.0747(5) 0.4151(4) 0.0620(4)
H8_2 H 0.1271 0.3581 0.1050
O9_2 O 0.0629(3) 0.7607(3) 0.1701(2)
C23_2 C 0.0231(4) 0.7431(4) 0.0714(4)
C24_2 C 0.0111(4) 0.6161(4) 0.0349(3)
C25_2 C 0.0849(5) 0.5306(4) 0.0974(4)
H15_2 H 0.1426 0.5498 0.1645
O12 O 0.1844(3) 0.0019(3) 0.5119(2)
C6_2 C 0.7667(4) 0.0458(4) 0.5501(3)
C7_2 C 0.6269(4) 0.0240(4) 0.5213(3)
C9_2 C 0.5604(4) 0.0812(4) 0.5772(3)
H6_2 H 0.6007 0.1358 0.6299
C10_2 C 0.9769(4) 0.2569(4) 0.9286(4)
C11_2 C 0.9889(4) 0.3839(4) 0.9651(3)
C12_2 C 0.9151(5) 0.4694(4) 0.9026(4)
H7_2 H 0.8574 0.4502 0.8355
C21_2 C 0.4353(4) 0.0570(5) 0.5549(3)
H13_2 H 0.3918 0.0966 0.5923
C26_2 C 0.9253(5) 0.5849(4) 0.9380(4)
H16_2 H 0.8729 0.6419 0.8950
O11_2 O 0.9525(3) 0.0219(3) 0.3319(2)
O2_2 O 0.8156(3) 0.9981(3) 0.4881(2)
C8_2 C 0.5647(4) 0.9430(5) 0.4451(3)
H5_2 H 0.6082 0.9034 0.4077
C19_2 C 0.2333(4) 0.9542(4) 0.4499(3)
O8_2 O 0.1811(3) 0.8953(3) 0.3680(2)
C20_2 C 0.3731(4) 0.9760(4) 0.4787(3)
C22_2 C 0.4396(4) 0.9188(4) 0.4228(3)
H14_2 H 0.3993 0.8642 0.3701
N1_2 N 0.1202(4) 0.1075(4) 0.2223(3)
C1_2 C 0.2437(5) 0.1058(5) 0.2381(4)
H1_2 H 0.2772 0.0452 0.2095
C2_2 C 0.3199(5) 0.1925(5) 0.2958(4)
H2_2 H 0.4053 0.1912 0.3067
C3_2 C 0.2706(6) 0.2813(5) 0.3379(4)
H3_2 H 0.3223 0.3409 0.3771
C4_2 C 0.1454(6) 0.2825(5) 0.3221(4)
H4_2 H 0.1119 0.3425 0.3514
C5_2 C 0.0683(4) 0.1948(4) 0.2630(4)
N2_2 N 0.8798(4) 0.1075(4) 0.2777(3)
C14_2 C 0.7563(5) 0.1058(5) 0.2619(4)
H9_2 H 0.7228 0.0452 0.2905
C15_2 C 0.6801(5) 0.1925(5) 0.2042(4)
H10_2 H 0.5947 0.1912 0.1933
C16_2 C 0.7294(6) 0.2813(5) 0.1621(4)
H11_2 H 0.6777 0.3409 0.1229
C17_2 C 0.8546(6) 0.2825(5) 0.1779(4)
H12_2 H 0.8881 0.3425 0.1486
C18_2 C 0.9317(4) 0.1948(4) 0.2370(4)
loop_
_geom_bond_atom_site_label_1
_geom_bond_atom_site_label_2
_geom_bond_site_symmetry_1
_geom_bond_site_symmetry_2
O11 Co5 1_555 1_555
O15 Co5 1_555 1_555
C6 O3 1_555 1_555
O3 Co1 1_555 1_555
C7 C6 1_555 1_555
C9 C7 1_555 1_555
H6 C9 1_555 1_555
O4 Co1 1_555 1_555
C10 O4 1_555 1_555
C11 C10 1_555 1_555
C12 C11 1_555 1_555
H7 C12 1_555 1_555
C21 C9 1_555 1_555
H13 C21 1_555 1_555
O10 Co7_2 1_555 1_555
C26 C12 1_555 1_555
H16 C26 1_555 1_555
Co5_6 O7 1_555 1_555
Co5_3 O2 1_555 1_555
H5 C8 1_555 1_555
C19 O8 1_555 1_555
O8 Co4_2 1_555 1_555
C20 C19 1_555 1_555
C22 C8 1_555 1_555
H14 C22 1_555 1_555
C20 C22 1_555 1_555
N2 O6 1_555 1_555
C14 N2 1_555 1_555
H9 C14 1_555 1_555
C15 C14 1_555 1_555
H10 C15 1_555 1_555
C16 C15 1_555 1_555
H11 C16 1_555 1_555
C17 C16 1_555 1_555
H12 C17 1_555 1_555
O6 Co7_2 1_555 1_555
N2 C18 1_555 1_555
C17 C18 1_555 1_555
H8 C13 1_555 1_555
O9 C23 1_555 1_555
C24 C23 1_555 1_555
C25 C13 1_555 1_555
H15 C25 1_555 1_555
Co4_2 O9 1_555 1_555
Co7_3 O5 1_555 1_555
O13 Co1_2 1_555 1_555
O14 Co1_2 1_555 1_555
C24 C25 1_555 1_555
O1 Co5_8 1_555 1_555
N1 O1 1_555 1_555
C1 N1 1_555 1_555
H1 C1 1_555 1_555
C2 C1 1_555 1_555
H2 C2 1_555 1_555
C3 C2 1_555 1_555
H3 C3 1_555 1_555
C4 C3 1_555 1_555
H4 C4 1_555 1_555
C5 N1 1_555 1_555
O16 Co5_8 1_555 1_555
C4 C5 1_555 1_555
H8_2 C13_2 1_555 1_555
O9_2 C23_2 1_555 1_555
C24_2 C23_2 1_555 1_555
C25_2 C13_2 1_555 1_555
H15_2 C25_2 1_555 1_555
Co4 O9_2 1_555 1_555
C24_2 C25_2 1_555 1_555
O12 Co7 1_555 1_555
C6_2 O13 1_555 1_555
C7_2 C6_2 1_555 1_555
C9_2 C7_2 1_555 1_555
H6_2 C9_2 1_555 1_555
C10_2 O14 1_555 1_555
C11_2 C10_2 1_555 1_555
C12_2 C11_2 1_555 1_555
H7_2 C12_2 1_555 1_555
C21_2 C9_2 1_555 1_555
H13_2 C21_2 1_555 1_555
C26_2 C12_2 1_555 1_555
H16_2 C26_2 1_555 1_555
O11_2 Co7_3 1_555 1_555
Co7_4 O2_2 1_555 1_555
H5_2 C8_2 1_555 1_555
C19_2 O8_2 1_555 1_555
O8_2 Co4 1_555 1_555
C20_2 C19_2 1_555 1_555
C22_2 C8_2 1_555 1_555
H14_2 C22_2 1_555 1_555
C20_2 C22_2 1_555 1_555
N1_2 O11 1_555 1_555
C1_2 N1_2 1_555 1_555
H1_2 C1_2 1_555 1_555
C2_2 C1_2 1_555 1_555
H2_2 C2_2 1_555 1_555
C3_2 C2_2 1_555 1_555
H3_2 C3_2 1_555 1_555
C4_2 C3_2 1_555 1_555
H4_2 C4_2 1_555 1_555
C5_2 N1_2 1_555 1_555
C4_2 C5_2 1_555 1_555
N2_2 O11_2 1_555 1_555
C14_2 N2_2 1_555 1_555
H9_2 C14_2 1_555 1_555
C15_2 C14_2 1_555 1_555
H10_2 C15_2 1_555 1_555
C16_2 C15_2 1_555 1_555
H11_2 C16_2 1_555 1_555
C17_2 C16_2 1_555 1_555
H12_2 C17_2 1_555 1_555
N2_2 C18_2 1_555 1_555
C17_2 C18_2 1_555 1_555

#END
