
###############################################################################
#
# This file contains modified crystal structure data generated from the
# MOF subset of the Cambridge Structural Database (CSD) v543 
# hosted by the Cambridge Crystallographic Data Centre (CCDC).
#
# This work is licensed under the Creative Commons
# Attribution-NonCommercial-ShareAlike 4.0 International License.
# To view a copy of this license, visit
# http://creativecommons.org/licenses/by-nc-sa/4.0/
# or send a letter to
# Creative Commons, PO Box 1866, Mountain View, CA 94042, USA.
#
# CIF created using the CSD Python API on 29 September 2022
# The structure has been converted into the P1 space group
# The structure has a 3D framework
# The original CSD entry LOVVEZ is in the triclinic crystal system
# The framework has been calculated to contain at least 10.0% void space
# The void calculation uses a probe of radius 1.32A, grid spacing 0.4
# The framework is charged, counterions have been retained in the structure
#
###############################################################################

data_LOVVEZ
_chemical_formula_moiety         '(C88 H56 Co9 N8 O28)n'
_symmetry_cell_setting           triclinic
_symmetry_space_group_name_H-M   'P 1'
_symmetry_Int_Tables_number      1
_space_group_name_Hall           'P 1'
loop_
_symmetry_equiv_pos_site_id
_symmetry_equiv_pos_as_xyz
1 x,y,z
_cell_length_a                   9.650(6)
_cell_length_b                   17.270(12)
_cell_length_c                   18.274(12)
_cell_angle_alpha                99.057(11)
_cell_angle_beta                 90.485(9)
_cell_angle_gamma                106.122(10)
_cell_volume                     2884.84
loop_
_atom_site_label
_atom_site_type_symbol
_atom_site_fract_x
_atom_site_fract_y
_atom_site_fract_z
H12 H 0.0017 0.9395 0.5996
C23 C 0.0082(9) 0.8806(5) 0.4946(5)
H13 H 0.1032 0.8756 0.5001
Co2 Co 0.0000 -0.0000 0.0000
O37 O 0.1983(5) 0.0971(3) 0.0260(3)
Co1 Co 0.5000 -0.0000 0.5000
Co2_2 Co 0.0000 -0.0000 1.0000
H1 H 0.1903 0.0018 0.7899
H8 H 0.2937 0.0022 0.2938
O30 O 0.6546(5) 0.0707(3) 0.4469(2)
O31 O 0.6183(5) 0.0424(3) 0.5998(3)
O36 O 0.3989(5) 0.0975(3) 0.5295(2)
Co2_3 Co 0.0000 1.0000 0.0000
O32 O 0.0833(5) 0.9268(3) 0.0520(3)
Co1_2 Co 0.5000 1.0000 0.5000
Co2_4 Co -0.0000 1.0000 1.0000
Co4 Co 0.45115(10) 0.78930(5) 0.45201(5)
O1 O 0.0200(5) 0.8207(3) 0.8947(2)
O2 O 0.0704(5) 0.9566(3) 0.8997(2)
C1 C 0.0725(7) 0.8866(4) 0.8697(4)
C2 C 0.1437(7) 0.8799(4) 0.7962(4)
C3 C 0.1972(7) 0.9506(4) 0.7647(4)
C4 C 0.2603(7) 0.9459(4) 0.6964(4)
H2 H 0.2965 0.9939 0.6751
C5 C 0.2704(7) 0.8704(4) 0.6593(4)
C6 C 0.2243(7) 0.8016(4) 0.6921(3)
H3 H 0.2374 0.7512 0.6687
C7 C 0.1587(7) 0.8060(4) 0.7595(4)
H4 H 0.1238 0.7579 0.7808
O3 O 0.3454(5) 0.9293(3) 0.5531(2)
C8 C 0.3356(7) 0.8672(4) 0.5864(4)
O4 O 0.3734(5) 0.8056(3) 0.5578(3)
O5 O 0.2981(5) 0.8211(3) 0.3961(2)
O6 O 0.3817(5) 0.9576(3) 0.4002(3)
C9 C 0.3094(7) 0.8864(4) 0.3709(3)
C10 C 0.2320(7) 0.8796(4) 0.2968(4)
C11 C 0.1528(8) 0.8032(4) 0.2560(4)
H5 H 0.1472 0.7549 0.2759
C12 C 0.0847(8) 0.7972(4) 0.1895(4)
H6 H 0.0288 0.7455 0.1639
C13 C 0.0974(7) 0.8675(4) 0.1591(4)
C14 C 0.1765(8) 0.9449(4) 0.1975(3)
H7 H 0.1848 0.9927 0.1763
C15 C 0.2420(8) 0.9503(4) 0.2668(4)
C16 C 0.0313(8) 0.8644(4) 0.0829(4)
O11 O 0.6011(5) 0.9025(3) 0.4705(2)
N1 N 0.7361(6) 0.8965(3) 0.4769(3)
C21 C 0.8120(8) 0.9265(5) 0.5429(4)
H11 H 0.7703 0.9532 0.5825
C22 C 0.9491(8) 0.9188(5) 0.5531(5)
C24 C 0.9305(8) 0.8502(5) 0.4293(5)
H14 H 0.9718 0.8234 0.3895
C25 C 0.7925(8) 0.8570(4) 0.4188(4)
C26 C 0.7054(8) 0.8221(4) 0.3472(4)
C27 C 0.7737(9) 0.8289(5) 0.2798(4)
H15 H 0.8724 0.8591 0.2802
C28 C 0.6992(10) 0.7927(5) 0.2143(4)
H16 H 0.7449 0.7964 0.1686
C29 C 0.5540(9) 0.7498(5) 0.2158(4)
H17 H 0.4992 0.7237 0.1708
C30 C 0.4894(9) 0.7453(4) 0.2834(4)
H18 H 0.3909 0.7150 0.2840
N2 N 0.5640(6) 0.7833(3) 0.3488(3)
O13 O 0.3645(5) 0.6614(3) 0.4413(3)
O14 O 0.5839(5) 0.7208(3) 0.4949(3)
C41 C 0.4792(8) 0.6581(4) 0.4734(4)
C42 C 0.4912(8) 0.5764(4) 0.4870(4)
C43 C 0.3886(9) 0.5031(4) 0.4489(4)
H27 H 0.3159 0.5063 0.4151
C44 C 0.6020(9) 0.5729(5) 0.5375(4)
H28 H 0.6691 0.6218 0.5617
O17 O 0.6355(5) 0.3386(3) 0.5587(3)
O18 O 0.4161(5) 0.2792(3) 0.5051(3)
C49 C 0.5208(8) 0.3419(4) 0.5266(4)
C50 C 0.5088(8) 0.4236(4) 0.5130(4)
C51 C 0.6114(9) 0.4969(4) 0.5511(4)
H31 H 0.6841 0.4937 0.5849
C52 C 0.3980(9) 0.4271(5) 0.4625(4)
H32 H 0.3309 0.3782 0.4383
Co13 Co 0.54885(10) 0.21070(5) 0.54799(5)
Co2_5 Co 1.0000 -0.0000 0.0000
O29 O 0.9296(5) 0.0434(3) 0.1003(2)
Co2_6 Co 1.0000 -0.0000 1.0000
O33 O 0.9167(5) 0.0732(3) 0.9480(3)
Co12 Co 0.16403(10) 0.21059(5) 0.04927(5)
Co2_7 Co 1.0000 1.0000 0.0000
C20 C 0.4519(9) 0.5704(5) 0.0185(5)
H10 H 0.4192 0.6178 0.0298
C31 C 0.6188(10) 0.9250(7) 0.0497(5)
H19 H 0.6876 0.9489 0.0903
C32 C 0.4722(11) 0.9154(8) 0.0581(6)
H20 H 0.4399 0.9329 0.1052
H21 H 0.2740 0.8746 0.0056
O15 O 0.2077(5) 0.3385(3) 0.0636(3)
O16 O 0.3661(5) 0.2795(3) 0.0076(3)
C45 C 0.3248(9) 0.3421(5) 0.0277(4)
C46 C 0.4166(9) 0.4248(4) 0.0114(4)
C47 C 0.3663(9) 0.4942(5) 0.0323(5)
H29 H 0.2769 0.4896 0.0551
O26 O 0.0715(5) 0.1978(3) 0.9442(3)
N7 N 0.3390(7) 0.1015(4) 0.0196(4)
C81 C 0.6260(11) 0.1188(8) 0.0006(6)
C82 C 0.5782(9) 0.1438(8) 0.0690(5)
H52 H 0.6466 0.1661 0.1100
C83 C 0.4347(8) 0.1374(5) 0.0797(4)
C84 C 0.3831(8) 0.1691(5) 0.1514(4)
C85 C 0.4443(8) 0.1577(5) 0.2173(4)
H53 H 0.5134 0.1276 0.2157
C86 C 0.4034(8) 0.1905(5) 0.2841(4)
H54 H 0.4452 0.1852 0.3296
C87 C 0.2993(9) 0.2315(5) 0.2830(4)
H55 H 0.2668 0.2534 0.3284
C88 C 0.2433(8) 0.2408(4) 0.2180(4)
H56 H 0.1747 0.2711 0.2194
N8 N 0.2804(6) 0.2089(3) 0.1508(3)
O34 O 0.9285(5) 0.8022(3) 0.0558(3)
Co2_8 Co 1.0000 1.0000 1.0000
Co3 Co 0.83597(10) 0.78941(5) 0.95073(5)
O9 O 0.7923(5) 0.6615(3) 0.9364(3)
O10 O 0.6339(5) 0.7205(3) 0.9924(3)
C17 C 0.6752(9) 0.6579(5) 0.9723(4)
C18 C 0.5834(9) 0.5752(4) 0.9886(4)
C19 C 0.6337(9) 0.5058(5) 0.9677(5)
H9 H 0.7231 0.5104 0.9449
O12 O 0.8017(5) 0.9029(3) 0.9740(3)
N3 N 0.6610(7) 0.8985(4) 0.9804(4)
C33 C 0.3740(11) 0.8812(8) 0.9994(6)
C34 C 0.4218(9) 0.8562(8) 0.9310(5)
H22 H 0.3534 0.8339 0.8900
C35 C 0.5653(8) 0.8626(5) 0.9203(4)
C36 C 0.6169(8) 0.8309(5) 0.8486(4)
C37 C 0.5557(8) 0.8423(5) 0.7827(4)
H23 H 0.4866 0.8724 0.7843
C38 C 0.5966(8) 0.8095(5) 0.7159(4)
H24 H 0.5548 0.8148 0.6704
C39 C 0.7007(9) 0.7685(5) 0.7170(4)
H25 H 0.7332 0.7466 0.6716
C40 C 0.7567(8) 0.7592(4) 0.7820(4)
H26 H 0.8253 0.7289 0.7806
N4 N 0.7196(6) 0.7911(3) 0.8492(3)
C48 C 0.5481(9) 0.4296(5) 0.9815(5)
H30 H 0.5808 0.3822 0.9702
C79 C 0.3812(10) 0.0750(7) 0.9503(5)
H49 H 0.3124 0.0511 0.9097
C80 C 0.5278(11) 0.0846(8) 0.9419(6)
H50 H 0.5601 0.0671 0.8948
H51 H 0.7260 0.1254 0.9944
O19 O 0.9800(5) 0.1793(3) 0.1053(2)
C53 C 0.9275(7) 0.1134(4) 0.1303(4)
C54 C 0.8563(7) 0.1201(4) 0.2038(4)
C55 C 0.8028(7) 0.0494(4) 0.2353(4)
C56 C 0.7397(7) 0.0541(4) 0.3036(4)
H34 H 0.7035 0.0061 0.3249
C57 C 0.7296(7) 0.1296(4) 0.3407(4)
C58 C 0.7757(7) 0.1984(4) 0.3079(3)
H35 H 0.7626 0.2488 0.3313
C59 C 0.8413(7) 0.1940(4) 0.2405(4)
H36 H 0.8762 0.2421 0.2192
C60 C 0.6644(7) 0.1328(4) 0.4136(4)
O22 O 0.6266(5) 0.1944(3) 0.4422(3)
O23 O 0.7019(5) 0.1789(3) 0.6039(2)
C61 C 0.6906(7) 0.1136(4) 0.6291(3)
C62 C 0.7680(7) 0.1204(4) 0.7032(4)
C63 C 0.8472(8) 0.1968(4) 0.7440(4)
H37 H 0.8528 0.2451 0.7241
C64 C 0.9153(8) 0.2028(4) 0.8105(4)
H38 H 0.9712 0.2545 0.8361
C65 C 0.9026(7) 0.1325(4) 0.8409(4)
C66 C 0.8235(8) 0.0551(4) 0.8025(3)
H39 H 0.8152 0.0073 0.8237
C67 C 0.7580(8) 0.0497(4) 0.7332(4)
C68 C 0.9687(8) 0.1356(4) 0.9171(4)
N5 N 0.2639(6) 0.1035(3) 0.5231(3)
C69 C 0.1880(8) 0.0735(5) 0.4571(4)
H41 H 0.2297 0.0468 0.4175
C70 C 0.0509(8) 0.0812(5) 0.4469(5)
C72 C 0.0695(8) 0.1498(5) 0.5707(5)
H44 H 0.0282 0.1766 0.6105
C73 C 0.2075(8) 0.1430(4) 0.5812(4)
C74 C 0.2946(8) 0.1779(4) 0.6528(4)
C75 C 0.2263(9) 0.1711(5) 0.7202(4)
H45 H 0.1276 0.1409 0.7198
C76 C 0.3008(10) 0.2073(5) 0.7857(4)
H46 H 0.2551 0.2036 0.8314
C77 C 0.4460(9) 0.2502(5) 0.7842(4)
H47 H 0.5008 0.2763 0.8292
C78 C 0.5106(9) 0.2547(4) 0.7166(4)
H48 H 0.6091 0.2850 0.7160
N6 N 0.4360(6) 0.2167(3) 0.6512(3)
H33 H 0.8097 0.9982 0.2101
H40 H 0.7063 0.9978 0.7062
H42 H 0.9983 0.0605 0.4004
C71 C 0.9918(9) 0.1194(5) 0.5054(5)
H43 H 0.8968 0.1244 0.4999
loop_
_geom_bond_atom_site_label_1
_geom_bond_atom_site_label_2
_geom_bond_site_symmetry_1
_geom_bond_site_symmetry_2
H13 C23 1_555 1_555
O37 Co2 1_555 1_555
O30 Co1 1_555 1_555
O31 Co1 1_555 1_555
O36 Co1 1_555 1_555
O32 Co2_3 1_555 1_555
Co1_2 O3 1_555 1_555
Co2_4 O2 1_555 1_555
Co4 O4 1_555 1_555
O1 C1 1_555 1_555
O2 C1 1_555 1_555
C1 C2 1_555 1_555
C2 C3 1_555 1_555
C4 C3 1_555 1_555
H2 C4 1_555 1_555
C5 C4 1_555 1_555
C6 C5 1_555 1_555
H3 C6 1_555 1_555
C7 C2 1_555 1_555
H4 C7 1_555 1_555
O3 C8 1_555 1_555
C8 C5 1_555 1_555
O4 C8 1_555 1_555
O5 Co4 1_555 1_555
O6 Co1_2 1_555 1_555
C9 O5 1_555 1_555
C10 C9 1_555 1_555
C11 C10 1_555 1_555
H5 C11 1_555 1_555
C12 C11 1_555 1_555
H6 C12 1_555 1_555
C13 C12 1_555 1_555
C14 C13 1_555 1_555
H7 C14 1_555 1_555
C15 C10 1_555 1_555
O32 C16 1_555 1_555
C16 C13 1_555 1_555
O11 Co1_2 1_555 1_555
N1 O11 1_555 1_555
C21 N1 1_555 1_555
H11 C21 1_555 1_555
C22 C21 1_555 1_555
H14 C24 1_555 1_555
C25 N1 1_555 1_555
C26 C25 1_555 1_555
C27 C26 1_555 1_555
H15 C27 1_555 1_555
C28 C27 1_555 1_555
H16 C28 1_555 1_555
C29 C28 1_555 1_555
H17 C29 1_555 1_555
C30 C29 1_555 1_555
H18 C30 1_555 1_555
N2 Co4 1_555 1_555
O13 Co4 1_555 1_555
O14 Co4 1_555 1_555
C41 O13 1_555 1_555
C42 C41 1_555 1_555
C43 C42 1_555 1_555
H27 C43 1_555 1_555
C44 C42 1_555 1_555
H28 C44 1_555 1_555
O17 C49 1_555 1_555
O18 C49 1_555 1_555
C49 C50 1_555 1_555
C50 C51 1_555 1_555
C51 C44 1_555 1_555
H31 C51 1_555 1_555
C52 C43 1_555 1_555
H32 C52 1_555 1_555
Co13 O17 1_555 1_555
Co4 O11 1_555 1_555
C6 C7 1_555 1_555
O6 C9 1_555 1_555
C14 C15 1_555 1_555
C24 C25 1_555 1_555
C26 N2 1_555 1_555
C30 N2 1_555 1_555
O14 C41 1_555 1_555
O18 Co13 1_555 1_555
C50 C52 1_555 1_555
O29 Co2_5 1_555 1_555
O33 Co2_6 1_555 1_555
H10 C20 1_555 1_555
H19 C31 1_555 1_555
C32 C31 1_555 1_555
H20 C32 1_555 1_555
O15 C45 1_555 1_555
O16 C45 1_555 1_555
C45 C46 1_555 1_555
C46 C47 1_555 1_555
C47 C20 1_555 1_555
H29 C47 1_555 1_555
Co12 O15 1_555 1_555
O37 Co12 1_555 1_555
N7 O37 1_555 1_555
C82 C81 1_555 1_555
H52 C82 1_555 1_555
C83 N7 1_555 1_555
C84 C83 1_555 1_555
C85 C84 1_555 1_555
H53 C85 1_555 1_555
C86 C85 1_555 1_555
H54 C86 1_555 1_555
C87 C86 1_555 1_555
H55 C87 1_555 1_555
C88 C87 1_555 1_555
H56 C88 1_555 1_555
N8 Co12 1_555 1_555
O16 Co12 1_555 1_555
C82 C83 1_555 1_555
C84 N8 1_555 1_555
C88 N8 1_555 1_555
O9 Co3 1_555 1_555
O10 Co3 1_555 1_555
C17 O9 1_555 1_555
C18 C17 1_555 1_555
C19 C18 1_555 1_555
H9 C19 1_555 1_555
O12 Co2_8 1_555 1_555
N3 O12 1_555 1_555
C34 C33 1_555 1_555
H22 C34 1_555 1_555
C35 N3 1_555 1_555
C36 C35 1_555 1_555
C37 C36 1_555 1_555
H23 C37 1_555 1_555
C38 C37 1_555 1_555
H24 C38 1_555 1_555
C39 C38 1_555 1_555
H25 C39 1_555 1_555
C40 C39 1_555 1_555
H26 C40 1_555 1_555
N4 Co3 1_555 1_555
C48 C19 1_555 1_555
H30 C48 1_555 1_555
H49 C79 1_555 1_555
C80 C79 1_555 1_555
H50 C80 1_555 1_555
Co3 O12 1_555 1_555
O10 C17 1_555 1_555
C34 C35 1_555 1_555
C36 N4 1_555 1_555
C40 N4 1_555 1_555
Co13 O22 1_555 1_555
O29 C53 1_555 1_555
C53 O19 1_555 1_555
C54 C53 1_555 1_555
C55 C54 1_555 1_555
C56 C55 1_555 1_555
H34 C56 1_555 1_555
C57 C56 1_555 1_555
C58 C57 1_555 1_555
H35 C58 1_555 1_555
C59 C54 1_555 1_555
H36 C59 1_555 1_555
O30 C60 1_555 1_555
C60 C57 1_555 1_555
O22 C60 1_555 1_555
O23 Co13 1_555 1_555
O31 C61 1_555 1_555
C61 O23 1_555 1_555
C62 C61 1_555 1_555
C63 C62 1_555 1_555
H37 C63 1_555 1_555
C64 C63 1_555 1_555
H38 C64 1_555 1_555
C65 C64 1_555 1_555
C66 C65 1_555 1_555
H39 C66 1_555 1_555
C67 C62 1_555 1_555
O33 C68 1_555 1_555
C68 C65 1_555 1_555
O36 Co13 1_555 1_555
N5 O36 1_555 1_555
C69 N5 1_555 1_555
H41 C69 1_555 1_555
C70 C69 1_555 1_555
H44 C72 1_555 1_555
C73 N5 1_555 1_555
C74 C73 1_555 1_555
C75 C74 1_555 1_555
H45 C75 1_555 1_555
C76 C75 1_555 1_555
H46 C76 1_555 1_555
C77 C76 1_555 1_555
H47 C77 1_555 1_555
C78 C77 1_555 1_555
H48 C78 1_555 1_555
N6 Co13 1_555 1_555
C58 C59 1_555 1_555
C66 C67 1_555 1_555
C72 C73 1_555 1_555
C74 N6 1_555 1_555
C78 N6 1_555 1_555
H43 C71 1_555 1_555

#END
