
###############################################################################
#
# This file contains modified crystal structure data generated from the
# MOF subset of the Cambridge Structural Database (CSD) v543 
# hosted by the Cambridge Crystallographic Data Centre (CCDC).
#
# This work is licensed under the Creative Commons
# Attribution-NonCommercial-ShareAlike 4.0 International License.
# To view a copy of this license, visit
# http://creativecommons.org/licenses/by-nc-sa/4.0/
# or send a letter to
# Creative Commons, PO Box 1866, Mountain View, CA 94042, USA.
#
# CIF created using the CSD Python API on 29 September 2022
# The structure has been converted into the P1 space group
# The structure has a 3D framework
# The original CSD entry LOVZAA is in the monoclinic crystal system
# The original CSD entry LOVZAA is in a Sohncke space group
# The framework has been calculated to contain at least 10.0% void space
# The void calculation uses a probe of radius 1.32A, grid spacing 0.4
# The framework is charged, counterions have been retained in the structure
# H atom positions have been added when not included in the experimental data
#
###############################################################################

data_LOVZAA
_chemical_formula_moiety         '(C216 H132 In2 O48 P4 11-)n'
_symmetry_cell_setting           triclinic
_symmetry_space_group_name_H-M   'P 1'
_symmetry_Int_Tables_number      1
_space_group_name_Hall           'P 1'
loop_
_symmetry_equiv_pos_site_id
_symmetry_equiv_pos_as_xyz
1 x,y,z
_cell_length_a                   19.034(4)
_cell_length_b                   33.969(7)
_cell_length_c                   17.466(4)
_cell_angle_alpha                90
_cell_angle_beta                 100.34(3)
_cell_angle_gamma                90
_cell_volume                     11109.5
loop_
_atom_site_label
_atom_site_type_symbol
_atom_site_fract_x
_atom_site_fract_y
_atom_site_fract_z
In13 In 0.5000 0.27341(15) 0.0000
In2 In -0.0000 0.77341(15) 0.0000
P2 P 0.34019(14) 0.53987(6) 0.51708(13)
O14 O 0.8026(5) 0.69642(15) 0.9027(4)
C55 C 0.3585(3) 0.44717(12) 0.53395(17)
C56 C 0.3443(3) 0.41413(11) 0.5756(2)
C57 C 0.3740(3) 0.41076(11) 0.6541(2)
C58 C 0.4179(3) 0.44042(13) 0.69085(18)
H33 H 0.4382 0.4381 0.7445
C59 C 0.4320(3) 0.47346(12) 0.6492(2)
C60 C 0.4023(3) 0.47683(11) 0.5707(2)
O16 O 0.3599(3) 0.57159(14) 0.4622(3)
O17 O 0.2738(4) 0.51154(14) 0.4750(3)
O18 O 0.4104(3) 0.51128(13) 0.5321(3)
C61 C 0.6920(4) 0.66241(16) 0.8757(4)
C62 C 0.7016(4) 0.64966(19) 0.8026(4)
H34 H 0.7363 0.6619 0.7777
C63 C 0.6603(4) 0.6190(2) 0.7660(3)
H35 H 0.6668 0.6103 0.7160
C64 C 0.6095(4) 0.60107(18) 0.8024(4)
C65 C 0.5999(4) 0.6138(2) 0.8754(4)
H36 H 0.5652 0.6016 0.9003
C66 C 0.6412(4) 0.6445(2) 0.9121(3)
H37 H 0.6347 0.6532 0.9620
C67 C 0.2971(3) 0.37060(13) 0.7262(3)
H38 H 0.2568 0.3858 0.7035
C68 C 0.3628(3) 0.37682(12) 0.7040(2)
C69 C 0.4217(3) 0.35458(15) 0.7372(3)
H39 H 0.4666 0.3588 0.7220
C70 C 0.4150(3) 0.32613(13) 0.7926(3)
H40 H 0.4553 0.3109 0.8153
C71 C 0.3493(3) 0.31991(11) 0.8148(2)
C72 C 0.2904(3) 0.34215(14) 0.7816(3)
H41 H 0.2455 0.3379 0.7968
C73 C 0.2560(3) 0.48695(11) 0.3445(2)
C74 C 0.2683(3) 0.45820(13) 0.29180(16)
H42 H 0.2459 0.4601 0.2388
C75 C 0.3132(3) 0.42672(11) 0.31671(19)
C76 C 0.3460(3) 0.42399(11) 0.3943(2)
C77 C 0.3338(3) 0.45274(11) 0.44704(16)
C78 C 0.2888(3) 0.48422(10) 0.42213(18)
C79 C 0.0816(3) 0.64148(15) 0.1744(4)
H43 H 0.1318 0.6439 0.1775
C80 C 0.0539(3) 0.60989(14) 0.2099(4)
C84 C 0.0360(3) 0.66948(13) 0.1342(3)
H46 H 0.0549 0.6911 0.1100
C85 C 0.1993(3) 0.51941(12) 0.3160(3)
C86 C 0.1347(3) 0.50896(10) 0.2697(3)
H47 H 0.1226 0.4820 0.2615
C87 C 0.0880(2) 0.53800(14) 0.2353(3)
H48 H 0.0439 0.5309 0.2036
C88 C 0.1058(3) 0.57748(12) 0.2473(3)
C89 C 0.1704(3) 0.58793(10) 0.2936(3)
H49 H 0.1825 0.6149 0.3017
C90 C 0.2171(2) 0.55890(14) 0.3279(3)
H50 H 0.2612 0.5660 0.3596
O19 O 0.4115(5) 0.3060(2) 0.0642(3)
O20 O 0.3032(4) 0.27980(13) 0.0780(3)
C91 C 0.4058(5) 0.3932(2) 0.4167(4)
H51 H 0.3892 0.3675 0.3953
H52 H 0.4183 0.3914 0.4736
H53 H 0.4480 0.4012 0.3956
C92 C 0.3522(6) 0.3050(2) 0.0946(5)
O21 O 0.3155(3) 0.54909(16) 0.5887(3)
O22 O 0.7252(4) 0.71423(18) 0.9678(3)
C94 C 0.3253(3) 0.39681(14) 0.2559(3)
C95 C 0.3845(3) 0.39754(15) 0.2194(3)
H54 H 0.4189 0.4179 0.2309
C96 C 0.3932(3) 0.36845(18) 0.1659(3)
H55 H 0.4336 0.3689 0.1409
C97 C 0.3428(4) 0.33861(14) 0.1490(3)
C98 C 0.2837(3) 0.33788(15) 0.1856(4)
H56 H 0.2493 0.3175 0.1740
C99 C 0.2750(3) 0.36697(17) 0.2390(3)
H57 H 0.2346 0.3665 0.2640
C100 C 0.5646(3) 0.56686(16) 0.7624(3)
C101 C 0.5815(3) 0.54867(17) 0.6968(3)
H58 H 0.6225 0.5567 0.6769
C102 C 0.5384(3) 0.51865(16) 0.6603(3)
H59 H 0.5499 0.5062 0.6154
C103 C 0.4784(3) 0.50682(14) 0.6894(3)
C104 C 0.4615(3) 0.52502(19) 0.7550(3)
H60 H 0.4205 0.5169 0.7749
C105 C 0.5046(4) 0.55503(18) 0.7915(3)
H61 H 0.4931 0.5675 0.8364
C106 C 0.2957(6) 0.3810(2) 0.5371(5)
H62 H 0.2690 0.3901 0.4870
H63 H 0.2621 0.3735 0.5710
H64 H 0.3248 0.3581 0.5287
O23 O 0.3926(3) 0.27029(12) 0.9093(3)
C107 C 0.7438(6) 0.6918(3) 0.9159(5)
C108 C 0.3381(5) 0.2915(2) 0.8804(5)
O24 O 0.2830(4) 0.28851(18) 0.9047(4)
In5 In 0.32830(3) 0.24082(2) 0.99319(2)
In7 In 0.17170(3) 0.74082(2) 0.00681(2)
In9 In 0.82830(3) 0.74082(2) 0.99319(2)
O26 O 0.3453(4) 0.19294(15) 0.0859(4)
O30 O 0.4308(3) 0.22141(14) 0.0423(3)
O37 O 0.1074(3) 0.77029(12) 0.0907(3)
In13_2 In 0.5000 0.27341(15) 1.0000
H66 H 0.317858 0.588718 0.444433
O1 O 0.1547(4) 0.69294(15) 0.9141(4)
O3 O 0.0692(3) 0.72141(14) 0.9577(3)
C27 C 0.0195(3) 0.60628(15) 0.7948(4)
H12 H 0.0384 0.5847 0.7705
C28 C 0.0652(3) 0.63427(17) 0.8349(4)
H13 H 0.1153 0.6318 0.8381
C29 C 0.0374(3) 0.66587(14) 0.8704(3)
C39 C 0.0873(6) 0.6936(2) 0.9169(4)
In2_2 In -0.0000 0.77341(15) 1.0000
O28 O 0.3026(5) 0.19642(15) 0.9027(4)
O31 O 0.0885(5) 0.8060(2) 0.9358(3)
O34 O 0.2252(4) 0.21423(18) 0.9678(3)
In1 In 0.67170(3) 0.24082(2) 0.00681(2)
In2_3 In 1.0000 0.77341(15) 0.0000
O13 O 0.8453(4) 0.69294(15) 0.0859(4)
O15 O 0.9308(3) 0.72141(14) 0.0423(3)
C81 C 0.9805(3) 0.60628(15) 0.2052(4)
H44 H 0.9616 0.5847 0.2295
C82 C 0.9348(3) 0.63427(17) 0.1651(4)
H45 H 0.8847 0.6318 0.1619
C83 C 0.9626(3) 0.66587(14) 0.1296(3)
C93 C 0.9127(6) 0.6936(2) 0.0831(4)
O27 O 0.6974(5) 0.19642(15) 0.0973(4)
O32 O 0.9115(5) 0.8060(2) 0.0642(3)
O33 O 0.7748(4) 0.21423(18) 0.0322(3)
O35 O 0.6074(3) 0.27029(12) 0.0907(3)
O39 O 0.7170(4) 0.28851(18) 0.0953(4)
P1 P 0.65981(14) 0.53987(6) 0.48292(13)
O2 O 0.1974(5) 0.69642(15) 0.0973(4)
C1 C 0.6415(3) 0.44717(12) 0.46605(17)
C2 C 0.6557(3) 0.41413(11) 0.4244(2)
C3 C 0.6260(3) 0.41076(11) 0.3459(2)
C4 C 0.5821(3) 0.44042(13) 0.30915(18)
H1 H 0.5618 0.4381 0.2555
C5 C 0.5680(3) 0.47346(12) 0.3508(2)
C6 C 0.5977(3) 0.47683(11) 0.4293(2)
O4 O 0.6401(3) 0.57159(14) 0.5378(3)
O5 O 0.7262(4) 0.51154(14) 0.5250(3)
O6 O 0.5896(3) 0.51128(13) 0.4679(3)
C7 C 0.3080(4) 0.66241(16) 0.1243(4)
C8 C 0.2984(4) 0.64966(19) 0.1974(4)
H2 H 0.2637 0.6619 0.2223
C9 C 0.3397(4) 0.6190(2) 0.2340(3)
H3 H 0.3332 0.6103 0.2840
C10 C 0.3905(4) 0.60107(18) 0.1976(4)
C11 C 0.4001(4) 0.6138(2) 0.1246(4)
H4 H 0.4348 0.6016 0.0997
C12 C 0.3588(4) 0.6445(2) 0.0879(3)
H5 H 0.3653 0.6532 0.0380
C13 C 0.7029(3) 0.37060(13) 0.2738(3)
H6 H 0.7432 0.3858 0.2965
C14 C 0.6372(3) 0.37682(12) 0.2960(2)
C15 C 0.5783(3) 0.35458(15) 0.2628(3)
H7 H 0.5334 0.3588 0.2780
C16 C 0.5850(3) 0.32613(13) 0.2074(3)
H8 H 0.5447 0.3109 0.1847
C17 C 0.6507(3) 0.31991(11) 0.1852(2)
C18 C 0.7096(3) 0.34215(14) 0.2184(3)
H9 H 0.7545 0.3379 0.2032
C19 C 0.7440(3) 0.48695(11) 0.6555(2)
C20 C 0.7317(3) 0.45820(13) 0.70820(16)
H10 H 0.7541 0.4601 0.7612
C21 C 0.6868(3) 0.42672(11) 0.68329(19)
C22 C 0.6540(3) 0.42399(11) 0.6057(2)
C23 C 0.6662(3) 0.45274(11) 0.55296(16)
C24 C 0.7112(3) 0.48422(10) 0.57787(18)
C25 C 0.9184(3) 0.64148(15) 0.8256(4)
H11 H 0.8682 0.6439 0.8225
C26 C 0.9461(3) 0.60989(14) 0.7901(4)
C30 C 0.9640(3) 0.66948(13) 0.8658(3)
H14 H 0.9451 0.6911 0.8900
C31 C 0.8007(3) 0.51941(12) 0.6840(3)
C32 C 0.8653(3) 0.50896(10) 0.7303(3)
H15 H 0.8774 0.4820 0.7385
C33 C 0.9120(2) 0.53800(14) 0.7647(3)
H16 H 0.9561 0.5309 0.7964
C34 C 0.8942(3) 0.57748(12) 0.7527(3)
C35 C 0.8296(3) 0.58793(10) 0.7064(3)
H17 H 0.8175 0.6149 0.6983
C36 C 0.7829(2) 0.55890(14) 0.6721(3)
H18 H 0.7388 0.5660 0.6404
O7 O 0.5885(5) 0.3060(2) 0.9358(3)
O8 O 0.6968(4) 0.27980(13) 0.9220(3)
C37 C 0.5942(5) 0.3932(2) 0.5833(4)
H19 H 0.6108 0.3675 0.6047
H20 H 0.5817 0.3914 0.5264
H21 H 0.5520 0.4012 0.6044
C38 C 0.6478(6) 0.3050(2) 0.9054(5)
O9 O 0.6845(3) 0.54909(16) 0.4113(3)
O10 O 0.2748(4) 0.71423(18) 0.0322(3)
C40 C 0.6747(3) 0.39681(14) 0.7441(3)
C41 C 0.6155(3) 0.39754(15) 0.7806(3)
H22 H 0.5811 0.4179 0.7691
C42 C 0.6068(3) 0.36845(18) 0.8341(3)
H23 H 0.5664 0.3689 0.8591
C43 C 0.6572(4) 0.33861(14) 0.8510(3)
C44 C 0.7163(3) 0.33788(15) 0.8144(4)
H24 H 0.7507 0.3175 0.8260
C45 C 0.7250(3) 0.36697(17) 0.7610(3)
H25 H 0.7654 0.3665 0.7360
C46 C 0.4354(3) 0.56686(16) 0.2376(3)
C47 C 0.4185(3) 0.54867(17) 0.3032(3)
H26 H 0.3775 0.5567 0.3231
C48 C 0.4616(3) 0.51865(16) 0.3397(3)
H27 H 0.4501 0.5062 0.3846
C49 C 0.5216(3) 0.50682(14) 0.3106(3)
C50 C 0.5385(3) 0.52502(19) 0.2450(3)
H28 H 0.5795 0.5169 0.2251
C51 C 0.4954(4) 0.55503(18) 0.2085(3)
H29 H 0.5069 0.5675 0.1636
C52 C 0.7043(6) 0.3810(2) 0.4629(5)
H30 H 0.7310 0.3901 0.5130
H31 H 0.7379 0.3735 0.4290
H32 H 0.6752 0.3581 0.4713
C53 C 0.2562(6) 0.6918(3) 0.0841(5)
C54 C 0.6619(5) 0.2915(2) 0.1196(5)
In2_4 In 1.0000 0.77341(15) 1.0000
O25 O 0.6547(4) 0.19294(15) 0.9141(4)
O29 O 0.5692(3) 0.22141(14) 0.9577(3)
O38 O 0.8926(3) 0.77029(12) 0.9093(3)
H65 H 0.682142 0.588718 0.555567
C61_2 C 0.1920(4) 0.16241(16) 0.8757(4)
C62_2 C 0.2016(4) 0.14966(19) 0.8026(4)
H34_2 H 0.2363 0.1619 0.7777
C63_2 C 0.1603(4) 0.1190(2) 0.7660(3)
H35_2 H 0.1668 0.1103 0.7160
C64_2 C 0.1095(4) 0.10107(18) 0.8024(4)
C65_2 C 0.0999(4) 0.1138(2) 0.8754(4)
H36_2 H 0.0652 0.1016 0.9003
C66_2 C 0.1412(4) 0.1445(2) 0.9121(3)
H37_2 H 0.1347 0.1532 0.9620
C100_2 C 0.0646(3) 0.06686(16) 0.7624(3)
C101_2 C 0.0815(3) 0.04867(17) 0.6968(3)
H58_2 H 0.1225 0.0567 0.6769
C102_2 C 0.0384(3) 0.01865(16) 0.6603(3)
H59_2 H 0.0499 0.0062 0.6154
C105_2 C 0.0046(4) 0.05503(18) 0.7915(3)
C107_2 C 0.2438(6) 0.1918(3) 0.9159(5)
P2_2 P 0.84019(14) 0.03987(6) 0.51708(13)
O16_2 O 0.8599(3) 0.07159(14) 0.4622(3)
O17_2 O 0.7738(4) 0.01154(14) 0.4750(3)
O18_2 O 0.9104(3) 0.01128(13) 0.5321(3)
C79_2 C 0.5816(3) 0.14148(15) 0.1744(4)
H43_2 H 0.6318 0.1439 0.1775
C80_2 C 0.5539(3) 0.10989(14) 0.2099(4)
C81_2 C 0.4805(3) 0.10628(15) 0.2052(4)
H44_2 H 0.4616 0.0847 0.2295
C82_2 C 0.4348(3) 0.13427(17) 0.1651(4)
H45_2 H 0.3847 0.1318 0.1619
C83_2 C 0.4626(3) 0.16587(14) 0.1296(3)
C84_2 C 0.5360(3) 0.16948(13) 0.1342(3)
H46_2 H 0.5549 0.1911 0.1100
C85_2 C 0.6993(3) 0.01941(12) 0.3160(3)
C86_2 C 0.6347(3) 0.00896(10) 0.2697(3)
C87_2 C 0.5880(2) 0.03800(14) 0.2353(3)
H48_2 H 0.5439 0.0309 0.2036
C88_2 C 0.6058(3) 0.07748(12) 0.2473(3)
C89_2 C 0.6704(3) 0.08793(10) 0.2936(3)
H49_2 H 0.6825 0.1149 0.3017
C90_2 C 0.7171(2) 0.05890(14) 0.3279(3)
H50_2 H 0.7612 0.0660 0.3596
O21_2 O 0.8155(3) 0.04909(16) 0.5887(3)
C93_2 C 0.4127(6) 0.1936(2) 0.0831(4)
C103_2 C 0.9784(3) 0.00682(14) 0.6894(3)
C104_2 C 0.9615(3) 0.02502(19) 0.7550(3)
H60_2 H 0.9205 0.0169 0.7749
H61_2 H 0.9931 0.0675 0.8364
H66_2 H 0.817858 0.0887181 0.444433
P1_2 P 0.15981(14) 0.03987(6) 0.48292(13)
O4_2 O 0.1401(3) 0.07159(14) 0.5378(3)
O5_2 O 0.2262(4) 0.01154(14) 0.5250(3)
O6_2 O 0.0896(3) 0.01128(13) 0.4679(3)
C25_2 C 0.4184(3) 0.14148(15) 0.8256(4)
H11_2 H 0.3682 0.1439 0.8225
C26_2 C 0.4461(3) 0.10989(14) 0.7901(4)
C27_2 C 0.5195(3) 0.10628(15) 0.7948(4)
H12_2 H 0.5384 0.0847 0.7705
C28_2 C 0.5652(3) 0.13427(17) 0.8349(4)
H13_2 H 0.6153 0.1318 0.8381
C29_2 C 0.5374(3) 0.16587(14) 0.8704(3)
C30_2 C 0.4640(3) 0.16948(13) 0.8658(3)
H14_2 H 0.4451 0.1911 0.8900
C31_2 C 0.3007(3) 0.01941(12) 0.6840(3)
C32_2 C 0.3653(3) 0.00896(10) 0.7303(3)
C33_2 C 0.4120(2) 0.03800(14) 0.7647(3)
H16_2 H 0.4561 0.0309 0.7964
C34_2 C 0.3942(3) 0.07748(12) 0.7527(3)
C35_2 C 0.3296(3) 0.08793(10) 0.7064(3)
H17_2 H 0.3175 0.1149 0.6983
C36_2 C 0.2829(2) 0.05890(14) 0.6721(3)
H18_2 H 0.2388 0.0660 0.6404
O9_2 O 0.1845(3) 0.04909(16) 0.4113(3)
C39_2 C 0.5873(6) 0.1936(2) 0.9169(4)
C49_2 C 0.0216(3) 0.00682(14) 0.3106(3)
C50_2 C 0.0385(3) 0.02502(19) 0.2450(3)
H28_2 H 0.0795 0.0169 0.2251
H29_2 H 0.0069 0.0675 0.1636
H65_2 H 0.182142 0.0887181 0.555567
C55_2 C 0.8585(3) 0.94717(12) 0.53395(17)
C56_2 C 0.8443(3) 0.91413(11) 0.5756(2)
C57_2 C 0.8740(3) 0.91076(11) 0.6541(2)
C58_2 C 0.9179(3) 0.94042(13) 0.69085(18)
H33_2 H 0.9382 0.9381 0.7445
C59_2 C 0.9320(3) 0.97346(12) 0.6492(2)
C60_2 C 0.9023(3) 0.97683(11) 0.5707(2)
C67_2 C 0.7971(3) 0.87060(13) 0.7262(3)
H38_2 H 0.7568 0.8858 0.7035
C68_2 C 0.8628(3) 0.87682(12) 0.7040(2)
C69_2 C 0.9217(3) 0.85458(15) 0.7372(3)
H39_2 H 0.9666 0.8588 0.7220
C70_2 C 0.9150(3) 0.82613(13) 0.7926(3)
H40_2 H 0.9553 0.8109 0.8153
C71_2 C 0.8493(3) 0.81991(11) 0.8148(2)
C72_2 C 0.7904(3) 0.84215(14) 0.7816(3)
H41_2 H 0.7455 0.8379 0.7968
C73_2 C 0.7560(3) 0.98695(11) 0.3445(2)
C74_2 C 0.7683(3) 0.95820(13) 0.29180(16)
H42_2 H 0.7459 0.9601 0.2388
C75_2 C 0.8132(3) 0.92672(11) 0.31671(19)
C76_2 C 0.8460(3) 0.92399(11) 0.3943(2)
C77_2 C 0.8338(3) 0.95274(11) 0.44704(16)
C78_2 C 0.7888(3) 0.98422(10) 0.42213(18)
H47_2 H 0.6226 0.9820 0.2615
O20_2 O 0.8032(4) 0.77980(13) 0.0780(3)
C91_2 C 0.9058(5) 0.8932(2) 0.4167(4)
H51_2 H 0.8892 0.8675 0.3953
H52_2 H 0.9183 0.8914 0.4736
H53_2 H 0.9480 0.9012 0.3956
C92_2 C 0.8522(6) 0.8050(2) 0.0946(5)
C94_2 C 0.8253(3) 0.89681(14) 0.2559(3)
C95_2 C 0.8845(3) 0.89754(15) 0.2194(3)
H54_2 H 0.9189 0.9179 0.2309
C96_2 C 0.8932(3) 0.86845(18) 0.1659(3)
H55_2 H 0.9336 0.8689 0.1409
C97_2 C 0.8428(4) 0.83861(14) 0.1490(3)
C98_2 C 0.7837(3) 0.83788(15) 0.1856(4)
H56_2 H 0.7493 0.8175 0.1740
C99_2 C 0.7750(3) 0.86697(17) 0.2390(3)
H57_2 H 0.7346 0.8665 0.2640
C106_2 C 0.7957(6) 0.8810(2) 0.5371(5)
H62_2 H 0.7690 0.8901 0.4870
H63_2 H 0.7621 0.8735 0.5710
H64_2 H 0.8248 0.8581 0.5287
C108_2 C 0.8381(5) 0.7915(2) 0.8804(5)
O24_2 O 0.7830(4) 0.78851(18) 0.9047(4)
O39_2 O 0.2170(4) 0.78851(18) 0.0953(4)
C1_2 C 0.1415(3) 0.94717(12) 0.46605(17)
C2_2 C 0.1557(3) 0.91413(11) 0.4244(2)
C3_2 C 0.1260(3) 0.91076(11) 0.3459(2)
C4_2 C 0.0821(3) 0.94042(13) 0.30915(18)
H1_2 H 0.0618 0.9381 0.2555
C5_2 C 0.0680(3) 0.97346(12) 0.3508(2)
C6_2 C 0.0977(3) 0.97683(11) 0.4293(2)
C13_2 C 0.2029(3) 0.87060(13) 0.2738(3)
H6_2 H 0.2432 0.8858 0.2965
C14_2 C 0.1372(3) 0.87682(12) 0.2960(2)
C15_2 C 0.0783(3) 0.85458(15) 0.2628(3)
H7_2 H 0.0334 0.8588 0.2780
C16_2 C 0.0850(3) 0.82613(13) 0.2074(3)
H8_2 H 0.0447 0.8109 0.1847
C17_2 C 0.1507(3) 0.81991(11) 0.1852(2)
C18_2 C 0.2096(3) 0.84215(14) 0.2184(3)
H9_2 H 0.2545 0.8379 0.2032
C19_2 C 0.2440(3) 0.98695(11) 0.6555(2)
C20_2 C 0.2317(3) 0.95820(13) 0.70820(16)
H10_2 H 0.2541 0.9601 0.7612
C21_2 C 0.1868(3) 0.92672(11) 0.68329(19)
C22_2 C 0.1540(3) 0.92399(11) 0.6057(2)
C23_2 C 0.1662(3) 0.95274(11) 0.55296(16)
C24_2 C 0.2112(3) 0.98422(10) 0.57787(18)
H15_2 H 0.3774 0.9820 0.7385
O8_2 O 0.1968(4) 0.77980(13) 0.9220(3)
C37_2 C 0.0942(5) 0.8932(2) 0.5833(4)
H19_2 H 0.1108 0.8675 0.6047
H20_2 H 0.0817 0.8914 0.5264
H21_2 H 0.0520 0.9012 0.6044
C38_2 C 0.1478(6) 0.8050(2) 0.9054(5)
C40_2 C 0.1747(3) 0.89681(14) 0.7441(3)
C41_2 C 0.1155(3) 0.89754(15) 0.7806(3)
H22_2 H 0.0811 0.9179 0.7691
C42_2 C 0.1068(3) 0.86845(18) 0.8341(3)
H23_2 H 0.0664 0.8689 0.8591
C43_2 C 0.1572(4) 0.83861(14) 0.8510(3)
C44_2 C 0.2163(3) 0.83788(15) 0.8144(4)
H24_2 H 0.2507 0.8175 0.8260
C45_2 C 0.2250(3) 0.86697(17) 0.7610(3)
H25_2 H 0.2654 0.8665 0.7360
C52_2 C 0.2043(6) 0.8810(2) 0.4629(5)
H30_2 H 0.2310 0.8901 0.5130
H31_2 H 0.2379 0.8735 0.4290
H32_2 H 0.1752 0.8581 0.4713
C54_2 C 0.1619(5) 0.7915(2) 0.1196(5)
C7_2 C 0.8080(4) 0.16241(16) 0.1243(4)
C8_2 C 0.7984(4) 0.14966(19) 0.1974(4)
H2_2 H 0.7637 0.1619 0.2223
C9_2 C 0.8397(4) 0.1190(2) 0.2340(3)
H3_2 H 0.8332 0.1103 0.2840
C10_2 C 0.8905(4) 0.10107(18) 0.1976(4)
C11_2 C 0.9001(4) 0.1138(2) 0.1246(4)
H4_2 H 0.9348 0.1016 0.0997
C12_2 C 0.8588(4) 0.1445(2) 0.0879(3)
H5_2 H 0.8653 0.1532 0.0380
C46_2 C 0.9354(3) 0.06686(16) 0.2376(3)
C47_2 C 0.9185(3) 0.04867(17) 0.3032(3)
H26_2 H 0.8775 0.0567 0.3231
C48_2 C 0.9616(3) 0.01865(16) 0.3397(3)
H27_2 H 0.9501 0.0062 0.3846
C51_2 C 0.9954(4) 0.05503(18) 0.2085(3)
C53_2 C 0.7562(6) 0.1918(3) 0.0841(5)
loop_
_geom_bond_atom_site_label_1
_geom_bond_atom_site_label_2
_geom_bond_site_symmetry_1
_geom_bond_site_symmetry_2
P2 O16 1_555 1_555
O14 C107 1_555 1_555
C55 C56 1_555 1_555
C56 C57 1_555 1_555
C57 C58 1_555 1_555
C58 H33 1_555 1_555
C59 C58 1_555 1_555
C60 C55 1_555 1_555
O17 P2 1_555 1_555
O18 P2 1_555 1_555
C61 C62 1_555 1_555
C62 H34 1_555 1_555
C63 C62 1_555 1_555
H35 C63 1_555 1_555
C64 C63 1_555 1_555
C65 C64 1_555 1_555
H36 C65 1_555 1_555
C66 C61 1_555 1_555
H37 C66 1_555 1_555
C67 H38 1_555 1_555
C68 C57 1_555 1_555
C69 C68 1_555 1_555
H39 C69 1_555 1_555
C70 C69 1_555 1_555
H40 C70 1_555 1_555
C71 C70 1_555 1_555
C72 C67 1_555 1_555
H41 C72 1_555 1_555
C73 C74 1_555 1_555
C74 H42 1_555 1_555
C75 C74 1_555 1_555
C76 C75 1_555 1_555
C77 C55 1_555 1_555
C78 O17 1_555 1_555
C79 H43 1_555 1_555
C80 C79 1_555 1_555
C84 C79 1_555 1_555
H46 C84 1_555 1_555
C85 C73 1_555 1_555
C86 C85 1_555 1_555
H47 C86 1_555 1_555
C87 C86 1_555 1_555
H48 C87 1_555 1_555
C88 C80 1_555 1_555
C89 C88 1_555 1_555
H49 C89 1_555 1_555
C90 C85 1_555 1_555
H50 C90 1_555 1_555
O19 C92 1_555 1_555
O20 C92 1_555 1_555
C91 C76 1_555 1_555
H51 C91 1_555 1_555
H52 C91 1_555 1_555
H53 C91 1_555 1_555
C92 C97 1_555 1_555
O21 P2 1_555 1_555
O22 C107 1_555 1_555
C94 C75 1_555 1_555
C95 C94 1_555 1_555
H54 C95 1_555 1_555
C96 C95 1_555 1_555
H55 C96 1_555 1_555
C97 C96 1_555 1_555
C98 C97 1_555 1_555
H56 C98 1_555 1_555
C99 C94 1_555 1_555
H57 C99 1_555 1_555
C100 C64 1_555 1_555
C101 C100 1_555 1_555
H58 C101 1_555 1_555
C102 C101 1_555 1_555
H59 C102 1_555 1_555
C103 C59 1_555 1_555
C104 C103 1_555 1_555
H60 C104 1_555 1_555
C105 C100 1_555 1_555
H61 C105 1_555 1_555
C106 C56 1_555 1_555
H62 C106 1_555 1_555
H63 C106 1_555 1_555
H64 C106 1_555 1_555
O23 C108 1_555 1_555
C107 C61 1_555 1_555
C108 C71 1_555 1_555
O24 C108 1_555 1_555
In5 O23 1_555 1_555
In9 O14 1_555 1_555
O37 In2 1_555 1_555
In13 O19 1_555 1_555
In13_2 O23 1_555 1_555
C59 C60 1_555 1_555
C60 O18 1_555 1_555
C65 C66 1_555 1_555
C67 C68 1_555 1_555
C71 C72 1_555 1_555
C73 C78 1_555 1_555
C76 C77 1_555 1_555
C77 C78 1_555 1_555
C87 C88 1_555 1_555
C89 C90 1_555 1_555
O22 In9 1_555 1_555
C98 C99 1_555 1_555
C102 C103 1_555 1_555
C104 C105 1_555 1_555
O24 In5 1_555 1_555
In7 O37 1_555 1_555
O30 In13 1_555 1_555
O16 H66 1_555 1_555
O1 C39 1_555 1_555
O3 C39 1_555 1_555
H12 C27 1_555 1_555
C28 C27 1_555 1_555
H13 C28 1_555 1_555
C29 C28 1_555 1_555
C39 C29 1_555 1_555
In2_2 O3 1_555 1_555
O28 In5 1_555 1_555
O31 In2_2 1_555 1_555
O34 In5 1_555 1_555
O13 C93 1_555 1_555
O15 In2_3 1_555 1_555
H44 C81 1_555 1_555
C82 C81 1_555 1_555
H45 C82 1_555 1_555
C83 C82 1_555 1_555
C93 O15 1_555 1_555
O27 In1 1_555 1_555
O32 In2_3 1_555 1_555
O33 In1 1_555 1_555
O35 In1 1_555 1_555
O39 In1 1_555 1_555
C83 C93 1_555 1_555
O35 In13 1_555 1_555
P1 O4 1_555 1_555
O2 C53 1_555 1_555
C1 C2 1_555 1_555
C2 C3 1_555 1_555
C3 C4 1_555 1_555
C4 H1 1_555 1_555
C5 C4 1_555 1_555
C6 C1 1_555 1_555
O5 P1 1_555 1_555
O6 P1 1_555 1_555
C7 C8 1_555 1_555
C8 H2 1_555 1_555
C9 C8 1_555 1_555
H3 C9 1_555 1_555
C10 C9 1_555 1_555
C11 C10 1_555 1_555
H4 C11 1_555 1_555
C12 C7 1_555 1_555
H5 C12 1_555 1_555
C13 H6 1_555 1_555
C14 C3 1_555 1_555
C15 C14 1_555 1_555
H7 C15 1_555 1_555
C16 C15 1_555 1_555
H8 C16 1_555 1_555
C17 C16 1_555 1_555
C18 C13 1_555 1_555
H9 C18 1_555 1_555
C19 C20 1_555 1_555
C20 H10 1_555 1_555
C21 C20 1_555 1_555
C22 C21 1_555 1_555
C23 C1 1_555 1_555
C24 O5 1_555 1_555
C25 H11 1_555 1_555
C26 C25 1_555 1_555
C30 C25 1_555 1_555
H14 C30 1_555 1_555
C31 C19 1_555 1_555
C32 C31 1_555 1_555
H15 C32 1_555 1_555
C33 C32 1_555 1_555
H16 C33 1_555 1_555
C34 C26 1_555 1_555
C35 C34 1_555 1_555
H17 C35 1_555 1_555
C36 C31 1_555 1_555
H18 C36 1_555 1_555
O7 C38 1_555 1_555
O8 C38 1_555 1_555
C37 C22 1_555 1_555
H19 C37 1_555 1_555
H20 C37 1_555 1_555
H21 C37 1_555 1_555
C38 C43 1_555 1_555
O9 P1 1_555 1_555
O10 C53 1_555 1_555
C40 C21 1_555 1_555
C41 C40 1_555 1_555
H22 C41 1_555 1_555
C42 C41 1_555 1_555
H23 C42 1_555 1_555
C43 C42 1_555 1_555
C44 C43 1_555 1_555
H24 C44 1_555 1_555
C45 C40 1_555 1_555
H25 C45 1_555 1_555
C46 C10 1_555 1_555
C47 C46 1_555 1_555
H26 C47 1_555 1_555
C48 C47 1_555 1_555
H27 C48 1_555 1_555
C49 C5 1_555 1_555
C50 C49 1_555 1_555
H28 C50 1_555 1_555
C51 C46 1_555 1_555
H29 C51 1_555 1_555
C52 C2 1_555 1_555
H30 C52 1_555 1_555
H31 C52 1_555 1_555
H32 C52 1_555 1_555
O35 C54 1_555 1_555
C53 C7 1_555 1_555
C54 C17 1_555 1_555
O39 C54 1_555 1_555
In7 O2 1_555 1_555
O38 In2_4 1_555 1_555
In13_2 O7 1_555 1_555
C5 C6 1_555 1_555
C6 O6 1_555 1_555
C11 C12 1_555 1_555
C13 C14 1_555 1_555
C17 C18 1_555 1_555
C19 C24 1_555 1_555
C22 C23 1_555 1_555
C23 C24 1_555 1_555
C33 C34 1_555 1_555
C35 C36 1_555 1_555
O10 In7 1_555 1_555
C44 C45 1_555 1_555
C48 C49 1_555 1_555
C50 C51 1_555 1_555
In9 O38 1_555 1_555
O29 In13_2 1_555 1_555
O4 H65 1_555 1_555
O28 C107_2 1_555 1_555
C61_2 C62_2 1_555 1_555
C62_2 H34_2 1_555 1_555
C63_2 C62_2 1_555 1_555
H35_2 C63_2 1_555 1_555
C64_2 C63_2 1_555 1_555
C65_2 C64_2 1_555 1_555
H36_2 C65_2 1_555 1_555
C66_2 C61_2 1_555 1_555
H37_2 C66_2 1_555 1_555
O34 C107_2 1_555 1_555
C100_2 C64_2 1_555 1_555
C101_2 C100_2 1_555 1_555
H58_2 C101_2 1_555 1_555
C102_2 C101_2 1_555 1_555
H59_2 C102_2 1_555 1_555
C105_2 C100_2 1_555 1_555
C107_2 C61_2 1_555 1_555
C65_2 C66_2 1_555 1_555
P2_2 O16_2 1_555 1_555
O26 C93_2 1_555 1_555
O17_2 P2_2 1_555 1_555
O18_2 P2_2 1_555 1_555
C79_2 H43_2 1_555 1_555
C80_2 C79_2 1_555 1_555
C81_2 C80_2 1_555 1_555
H44_2 C81_2 1_555 1_555
C82_2 C81_2 1_555 1_555
H45_2 C82_2 1_555 1_555
C83_2 C82_2 1_555 1_555
C84_2 C79_2 1_555 1_555
H46_2 C84_2 1_555 1_555
C86_2 C85_2 1_555 1_555
C87_2 C86_2 1_555 1_555
H48_2 C87_2 1_555 1_555
C88_2 C80_2 1_555 1_555
C89_2 C88_2 1_555 1_555
H49_2 C89_2 1_555 1_555
C90_2 C85_2 1_555 1_555
H50_2 C90_2 1_555 1_555
O21_2 P2_2 1_555 1_555
C93_2 O30 1_555 1_555
C104_2 C103_2 1_555 1_555
H60_2 C104_2 1_555 1_555
C83_2 C84_2 1_555 1_555
C83_2 C93_2 1_555 1_555
C87_2 C88_2 1_555 1_555
C89_2 C90_2 1_555 1_555
O16_2 H66_2 1_555 1_555
P1_2 O4_2 1_555 1_555
O25 C39_2 1_555 1_555
O29 C39_2 1_555 1_555
O5_2 P1_2 1_555 1_555
O6_2 P1_2 1_555 1_555
C25_2 H11_2 1_555 1_555
C26_2 C25_2 1_555 1_555
C27_2 C26_2 1_555 1_555
H12_2 C27_2 1_555 1_555
C28_2 C27_2 1_555 1_555
H13_2 C28_2 1_555 1_555
C29_2 C28_2 1_555 1_555
C30_2 C25_2 1_555 1_555
H14_2 C30_2 1_555 1_555
C32_2 C31_2 1_555 1_555
C33_2 C32_2 1_555 1_555
H16_2 C33_2 1_555 1_555
C34_2 C26_2 1_555 1_555
C35_2 C34_2 1_555 1_555
H17_2 C35_2 1_555 1_555
C36_2 C31_2 1_555 1_555
H18_2 C36_2 1_555 1_555
O9_2 P1_2 1_555 1_555
C39_2 C29_2 1_555 1_555
C50_2 C49_2 1_555 1_555
H28_2 C50_2 1_555 1_555
C29_2 C30_2 1_555 1_555
C33_2 C34_2 1_555 1_555
C35_2 C36_2 1_555 1_555
O4_2 H65_2 1_555 1_555
C55_2 C56_2 1_555 1_555
C56_2 C57_2 1_555 1_555
C57_2 C58_2 1_555 1_555
C58_2 H33_2 1_555 1_555
C59_2 C58_2 1_555 1_555
C60_2 C55_2 1_555 1_555
C67_2 H38_2 1_555 1_555
C68_2 C57_2 1_555 1_555
C69_2 C68_2 1_555 1_555
H39_2 C69_2 1_555 1_555
C70_2 C69_2 1_555 1_555
H40_2 C70_2 1_555 1_555
C71_2 C70_2 1_555 1_555
C72_2 C67_2 1_555 1_555
H41_2 C72_2 1_555 1_555
C73_2 C74_2 1_555 1_555
C74_2 H42_2 1_555 1_555
C75_2 C74_2 1_555 1_555
C76_2 C75_2 1_555 1_555
C77_2 C55_2 1_555 1_555
O32 C92_2 1_555 1_555
O20_2 C92_2 1_555 1_555
C91_2 C76_2 1_555 1_555
H51_2 C91_2 1_555 1_555
H52_2 C91_2 1_555 1_555
H53_2 C91_2 1_555 1_555
C92_2 C97_2 1_555 1_555
C94_2 C75_2 1_555 1_555
C95_2 C94_2 1_555 1_555
H54_2 C95_2 1_555 1_555
C96_2 C95_2 1_555 1_555
H55_2 C96_2 1_555 1_555
C97_2 C96_2 1_555 1_555
C98_2 C97_2 1_555 1_555
H56_2 C98_2 1_555 1_555
C99_2 C94_2 1_555 1_555
H57_2 C99_2 1_555 1_555
C106_2 C56_2 1_555 1_555
H62_2 C106_2 1_555 1_555
H63_2 C106_2 1_555 1_555
H64_2 C106_2 1_555 1_555
O38 C108_2 1_555 1_555
C108_2 C71_2 1_555 1_555
O24_2 C108_2 1_555 1_555
O39_2 In7 1_555 1_555
C59_2 C60_2 1_555 1_555
C67_2 C68_2 1_555 1_555
C71_2 C72_2 1_555 1_555
C73_2 C78_2 1_555 1_555
C76_2 C77_2 1_555 1_555
C77_2 C78_2 1_555 1_555
C98_2 C99_2 1_555 1_555
O24_2 In9 1_555 1_555
C1_2 C2_2 1_555 1_555
C2_2 C3_2 1_555 1_555
C3_2 C4_2 1_555 1_555
C4_2 H1_2 1_555 1_555
C5_2 C4_2 1_555 1_555
C6_2 C1_2 1_555 1_555
C13_2 H6_2 1_555 1_555
C14_2 C3_2 1_555 1_555
C15_2 C14_2 1_555 1_555
H7_2 C15_2 1_555 1_555
C16_2 C15_2 1_555 1_555
H8_2 C16_2 1_555 1_555
C17_2 C16_2 1_555 1_555
C18_2 C13_2 1_555 1_555
H9_2 C18_2 1_555 1_555
C19_2 C20_2 1_555 1_555
C20_2 H10_2 1_555 1_555
C21_2 C20_2 1_555 1_555
C22_2 C21_2 1_555 1_555
C23_2 C1_2 1_555 1_555
O31 C38_2 1_555 1_555
O8_2 C38_2 1_555 1_555
C37_2 C22_2 1_555 1_555
H19_2 C37_2 1_555 1_555
H20_2 C37_2 1_555 1_555
H21_2 C37_2 1_555 1_555
C38_2 C43_2 1_555 1_555
C40_2 C21_2 1_555 1_555
C41_2 C40_2 1_555 1_555
H22_2 C41_2 1_555 1_555
C42_2 C41_2 1_555 1_555
H23_2 C42_2 1_555 1_555
C43_2 C42_2 1_555 1_555
C44_2 C43_2 1_555 1_555
H24_2 C44_2 1_555 1_555
C45_2 C40_2 1_555 1_555
H25_2 C45_2 1_555 1_555
C52_2 C2_2 1_555 1_555
H30_2 C52_2 1_555 1_555
H31_2 C52_2 1_555 1_555
H32_2 C52_2 1_555 1_555
O37 C54_2 1_555 1_555
C54_2 C17_2 1_555 1_555
O39_2 C54_2 1_555 1_555
C5_2 C6_2 1_555 1_555
C13_2 C14_2 1_555 1_555
C17_2 C18_2 1_555 1_555
C19_2 C24_2 1_555 1_555
C22_2 C23_2 1_555 1_555
C23_2 C24_2 1_555 1_555
C44_2 C45_2 1_555 1_555
O27 C53_2 1_555 1_555
C7_2 C8_2 1_555 1_555
C8_2 H2_2 1_555 1_555
C9_2 C8_2 1_555 1_555
H3_2 C9_2 1_555 1_555
C10_2 C9_2 1_555 1_555
C11_2 C10_2 1_555 1_555
H4_2 C11_2 1_555 1_555
C12_2 C7_2 1_555 1_555
H5_2 C12_2 1_555 1_555
O33 C53_2 1_555 1_555
C46_2 C10_2 1_555 1_555
C47_2 C46_2 1_555 1_555
H26_2 C47_2 1_555 1_555
C48_2 C47_2 1_555 1_555
H27_2 C48_2 1_555 1_555
C51_2 C46_2 1_555 1_555
C53_2 C7_2 1_555 1_555
C11_2 C12_2 1_555 1_555

#END
