
###############################################################################
#
# This file contains modified crystal structure data generated from the
# MOF subset of the Cambridge Structural Database (CSD) v543 
# hosted by the Cambridge Crystallographic Data Centre (CCDC).
#
# This work is licensed under the Creative Commons
# Attribution-NonCommercial-ShareAlike 4.0 International License.
# To view a copy of this license, visit
# http://creativecommons.org/licenses/by-nc-sa/4.0/
# or send a letter to
# Creative Commons, PO Box 1866, Mountain View, CA 94042, USA.
#
# CIF created using the CSD Python API on 29 September 2022
# The structure has been converted into the P1 space group
# The structure has a 3D framework
# The original CSD entry LOWKUF is in the cubic crystal system
# The framework has been calculated to contain at least 10.0% void space
# The void calculation uses a probe of radius 1.32A, grid spacing 0.4
# The framework is charged, counterions have been retained in the structure
#
###############################################################################

data_LOWKUF
_chemical_formula_moiety         '(C96 H48 N48 O56 Zn24 8-)n'
_symmetry_cell_setting           triclinic
_symmetry_space_group_name_H-M   'P 1'
_symmetry_Int_Tables_number      1
_space_group_name_Hall           'P 1'
loop_
_symmetry_equiv_pos_site_id
_symmetry_equiv_pos_as_xyz
1 x,y,z
_cell_length_a                   20.0770(2)
_cell_length_b                   20.0770(2)
_cell_length_c                   20.0770(2)
_cell_angle_alpha                90
_cell_angle_beta                 90
_cell_angle_gamma                90
_cell_volume                     8092.76
loop_
_atom_site_label
_atom_site_type_symbol
_atom_site_fract_x
_atom_site_fract_y
_atom_site_fract_z
Zn1 Zn 0.25274(4) 0.27345(4) 0.14823(4)
N1 N 0.2185(3) 0.3524(3) 0.1970(3)
O1 O 0.2038(2) 0.2038(2) 0.2038(2)
O2 O 0.2411(3) 0.5580(3) 0.2187(3)
N2 N 0.1731(4) 0.3441(3) 0.2461(3)
C1 C 0.1966(4) 0.4524(4) 0.2393(4)
O3 O 0.1624(4) 0.5510(3) 0.2937(4)
C2 C 0.1592(4) 0.4046(4) 0.2717(4)
H1 H 0.1290 0.4129 0.3059
C3 C 0.1985(5) 0.5245(4) 0.2527(4)
C4 C 0.2330(4) 0.4171(4) 0.1920(4)
H2 H 0.2627 0.4356 0.1618
Zn2 Zn 0.14823(4) 0.25274(4) 0.27345(4)
N3 N 0.1970(3) 0.2185(3) 0.3524(3)
O4 O 0.2187(3) 0.2411(3) 0.5580(3)
N4 N 0.2461(3) 0.1731(4) 0.3441(3)
C5 C 0.2393(4) 0.1966(4) 0.4524(4)
O5 O 0.2937(4) 0.1624(4) 0.5510(3)
C6 C 0.2717(4) 0.1592(4) 0.4046(4)
H3 H 0.3059 0.1290 0.4129
C7 C 0.2527(4) 0.1985(5) 0.5245(4)
C8 C 0.1920(4) 0.2330(4) 0.4171(4)
H4 H 0.1618 0.2627 0.4356
Zn3 Zn 0.27345(4) 0.14823(4) 0.25274(4)
N5 N 0.3524(3) 0.1970(3) 0.2185(3)
O6 O 0.5580(3) 0.2187(3) 0.2411(3)
N6 N 0.3441(3) 0.2461(3) 0.1731(4)
C9 C 0.4524(4) 0.2393(4) 0.1966(4)
O7 O 0.5510(3) 0.2937(4) 0.1624(4)
C10 C 0.4046(4) 0.2717(4) 0.1592(4)
H5 H 0.4129 0.3059 0.1290
C11 C 0.5245(4) 0.2527(4) 0.1985(5)
C12 C 0.4171(4) 0.1920(4) 0.2330(4)
H6 H 0.4356 0.1618 0.2627
Zn4 Zn 0.25274(4) 0.22655(4) 0.64823(4)
Zn5 Zn 0.64823(4) 0.25274(4) 0.22655(4)
Zn6 Zn 0.22655(4) 0.64823(4) 0.25274(4)
O8 O 0.2589(3) 0.0580(3) 0.2187(3)
O9 O 0.2187(3) 0.2589(3) 0.0580(3)
O10 O 0.0580(3) 0.2187(3) 0.2589(3)
O11 O 0.3376(4) 0.0510(3) 0.2937(4)
O12 O 0.2937(4) 0.3376(4) 0.0510(3)
O13 O 0.0510(3) 0.2937(4) 0.3376(4)
O4_2 O 0.2813(3) 0.7589(3) 0.0580(3)
O5_2 O 0.2063(4) 0.8376(4) 0.0510(3)
C7_2 C 0.2473(4) 0.8015(5) 0.0245(4)
Zn4_2 Zn 0.24726(4) 0.77345(4) 0.14823(4)
Zn1_2 Zn 0.24726(4) 0.72655(4) 0.64823(4)
N1_2 N 0.2815(3) 0.6476(3) 0.6970(3)
O1_2 O 0.2962(2) 0.7962(2) 0.7038(2)
O2_2 O 0.2589(3) 0.4420(3) 0.7187(3)
N2_2 N 0.3269(4) 0.6559(3) 0.7461(3)
C1_2 C 0.3034(4) 0.5476(4) 0.7393(4)
O3_2 O 0.3376(4) 0.4490(3) 0.7937(4)
C2_2 C 0.3408(4) 0.5954(4) 0.7717(4)
H1_2 H 0.3710 0.5871 0.8059
C3_2 C 0.3015(5) 0.4755(4) 0.7527(4)
C4_2 C 0.2670(4) 0.5829(4) 0.6920(4)
H2_2 H 0.2373 0.5644 0.6618
Zn2_2 Zn 0.35177(4) 0.74726(4) 0.77345(4)
N3_2 N 0.3030(3) 0.7815(3) 0.8524(3)
N4_2 N 0.2539(3) 0.8269(4) 0.8441(3)
C5_2 C 0.2607(4) 0.8034(4) 0.9524(4)
C6_2 C 0.2283(4) 0.8408(4) 0.9046(4)
H3_2 H 0.1941 0.8710 0.9129
C8_2 C 0.3080(4) 0.7670(4) 0.9171(4)
H4_2 H 0.3382 0.7373 0.9356
Zn3_2 Zn 0.22655(4) 0.85177(4) 0.75274(4)
N5_2 N 0.1476(3) 0.8030(3) 0.7185(3)
N6_2 N 0.1559(3) 0.7539(3) 0.6731(4)
C9_2 C 0.0476(4) 0.7607(4) 0.6966(4)
C10_2 C 0.0954(4) 0.7283(4) 0.6592(4)
H5_2 H 0.0871 0.6941 0.6290
C12_2 C 0.0829(4) 0.8080(4) 0.7330(4)
H6_2 H 0.0644 0.8382 0.7627
Zn6_2 Zn 0.27345(4) 0.35177(4) 0.75274(4)
O8_2 O 0.2411(3) 0.9420(3) 0.7187(3)
O9_2 O 0.2813(3) 0.7411(3) 0.5580(3)
O10_2 O 0.4420(3) 0.7813(3) 0.7589(3)
O11_2 O 0.1624(4) 0.9490(3) 0.7937(4)
O12_2 O 0.2063(4) 0.6624(4) 0.5510(3)
O13_2 O 0.4490(3) 0.7063(4) 0.8376(4)
O6_2 O 0.9420(3) 0.7813(3) 0.7411(3)
O7_2 O 0.9490(3) 0.7063(4) 0.6624(4)
C11_2 C 0.9755(4) 0.7473(4) 0.6985(5)
Zn5_2 Zn 0.85177(4) 0.74726(4) 0.72655(4)
O2_3 O 0.7589(3) 0.0580(3) 0.2813(3)
O3_3 O 0.8376(4) 0.0510(3) 0.2063(4)
C3_3 C 0.8015(5) 0.0245(4) 0.2473(4)
Zn6_3 Zn 0.77345(4) 0.14823(4) 0.24726(4)
Zn1_3 Zn 0.74726(4) 0.77345(4) 0.35177(4)
N1_3 N 0.7815(3) 0.8524(3) 0.3030(3)
O1_3 O 0.7962(2) 0.7038(2) 0.2962(2)
N2_3 N 0.8269(4) 0.8441(3) 0.2539(3)
C1_3 C 0.8034(4) 0.9524(4) 0.2607(4)
C2_3 C 0.8408(4) 0.9046(4) 0.2283(4)
H1_3 H 0.8710 0.9129 0.1941
C4_3 C 0.7670(4) 0.9171(4) 0.3080(4)
H2_3 H 0.7373 0.9356 0.3382
Zn2_3 Zn 0.85177(4) 0.75274(4) 0.22655(4)
N3_3 N 0.8030(3) 0.7185(3) 0.1476(3)
N4_3 N 0.7539(3) 0.6731(4) 0.1559(3)
C5_3 C 0.7607(4) 0.6966(4) 0.0476(4)
C6_3 C 0.7283(4) 0.6592(4) 0.0954(4)
H3_3 H 0.6941 0.6290 0.0871
C8_3 C 0.8080(4) 0.7330(4) 0.0829(4)
H4_3 H 0.8382 0.7627 0.0644
Zn3_3 Zn 0.72655(4) 0.64823(4) 0.24726(4)
N5_3 N 0.6476(3) 0.6970(3) 0.2815(3)
O6_3 O 0.4420(3) 0.7187(3) 0.2589(3)
N6_3 N 0.6559(3) 0.7461(3) 0.3269(4)
C9_3 C 0.5476(4) 0.7393(4) 0.3034(4)
O7_3 O 0.4490(3) 0.7937(4) 0.3376(4)
C10_3 C 0.5954(4) 0.7717(4) 0.3408(4)
H5_3 H 0.5871 0.8059 0.3710
C11_3 C 0.4755(4) 0.7527(4) 0.3015(5)
C12_3 C 0.5829(4) 0.6920(4) 0.2670(4)
H6_3 H 0.5644 0.6618 0.2373
Zn5_3 Zn 0.35177(4) 0.75274(4) 0.27345(4)
O8_3 O 0.7411(3) 0.5580(3) 0.2813(3)
O9_3 O 0.7813(3) 0.7589(3) 0.4420(3)
O10_3 O 0.9420(3) 0.7187(3) 0.2411(3)
O11_3 O 0.6624(4) 0.5510(3) 0.2063(4)
O12_3 O 0.7063(4) 0.8376(4) 0.4490(3)
O13_3 O 0.9490(3) 0.7937(4) 0.1624(4)
O4_3 O 0.7813(3) 0.7411(3) 0.9420(3)
O5_3 O 0.7063(4) 0.6624(4) 0.9490(3)
C7_3 C 0.7473(4) 0.6985(5) 0.9755(4)
Zn4_3 Zn 0.74726(4) 0.72655(4) 0.85177(4)
O6_4 O 0.0580(3) 0.2813(3) 0.7589(3)
O7_4 O 0.0510(3) 0.2063(4) 0.8376(4)
C11_4 C 0.0245(4) 0.2473(4) 0.8015(5)
Zn5_4 Zn 0.14823(4) 0.24726(4) 0.77345(4)
Zn1_4 Zn 0.75274(4) 0.22655(4) 0.85177(4)
N1_4 N 0.7185(3) 0.1476(3) 0.8030(3)
O1_4 O 0.7038(2) 0.2962(2) 0.7962(2)
N2_4 N 0.6731(4) 0.1559(3) 0.7539(3)
C1_4 C 0.6966(4) 0.0476(4) 0.7607(4)
C2_4 C 0.6592(4) 0.0954(4) 0.7283(4)
H1_4 H 0.6290 0.0871 0.6941
C4_4 C 0.7330(4) 0.0829(4) 0.8080(4)
H2_4 H 0.7627 0.0644 0.8382
Zn2_4 Zn 0.64823(4) 0.24726(4) 0.72655(4)
N3_4 N 0.6970(3) 0.2815(3) 0.6476(3)
O4_4 O 0.7187(3) 0.2589(3) 0.4420(3)
N4_4 N 0.7461(3) 0.3269(4) 0.6559(3)
C5_4 C 0.7393(4) 0.3034(4) 0.5476(4)
O5_4 O 0.7937(4) 0.3376(4) 0.4490(3)
C6_4 C 0.7717(4) 0.3408(4) 0.5954(4)
H3_4 H 0.8059 0.3710 0.5871
C7_4 C 0.7527(4) 0.3015(5) 0.4755(4)
C8_4 C 0.6920(4) 0.2670(4) 0.5829(4)
H4_4 H 0.6618 0.2373 0.5644
Zn3_4 Zn 0.77345(4) 0.35177(4) 0.74726(4)
N5_4 N 0.8524(3) 0.3030(3) 0.7815(3)
N6_4 N 0.8441(3) 0.2539(3) 0.8269(4)
C9_4 C 0.9524(4) 0.2607(4) 0.8034(4)
C10_4 C 0.9046(4) 0.2283(4) 0.8408(4)
H5_4 H 0.9129 0.1941 0.8710
C12_4 C 0.9171(4) 0.3080(4) 0.7670(4)
H6_4 H 0.9356 0.3382 0.7373
Zn4_4 Zn 0.75274(4) 0.27345(4) 0.35177(4)
O8_4 O 0.7589(3) 0.4420(3) 0.7813(3)
O9_4 O 0.7187(3) 0.2411(3) 0.9420(3)
O10_4 O 0.5580(3) 0.2813(3) 0.7411(3)
O11_4 O 0.8376(4) 0.4490(3) 0.7063(4)
O12_4 O 0.7937(4) 0.1624(4) 0.9490(3)
O13_4 O 0.5510(3) 0.2063(4) 0.6624(4)
O2_4 O 0.7411(3) 0.9420(3) 0.7813(3)
O3_4 O 0.6624(4) 0.9490(3) 0.7063(4)
C3_4 C 0.6985(5) 0.9755(4) 0.7473(4)
Zn6_4 Zn 0.72655(4) 0.85177(4) 0.74726(4)
N1_5 N 0.7815(3) 0.6476(3) 0.8030(3)
O1_5 O 0.7962(2) 0.7962(2) 0.7962(2)
N2_5 N 0.8269(4) 0.6559(3) 0.7539(3)
C1_5 C 0.8034(4) 0.5476(4) 0.7607(4)
C2_5 C 0.8408(4) 0.5954(4) 0.7283(4)
H1_5 H 0.8710 0.5871 0.6941
C3_5 C 0.8015(5) 0.4755(4) 0.7473(4)
C4_5 C 0.7670(4) 0.5829(4) 0.8080(4)
H2_5 H 0.7373 0.5644 0.8382
N3_5 N 0.8030(3) 0.7815(3) 0.6476(3)
N4_5 N 0.7539(3) 0.8269(4) 0.6559(3)
C5_5 C 0.7607(4) 0.8034(4) 0.5476(4)
C6_5 C 0.7283(4) 0.8408(4) 0.5954(4)
H3_5 H 0.6941 0.8710 0.5871
C7_5 C 0.7473(4) 0.8015(5) 0.4755(4)
C8_5 C 0.8080(4) 0.7670(4) 0.5829(4)
H4_5 H 0.8382 0.7373 0.5644
N5_5 N 0.6476(3) 0.8030(3) 0.7815(3)
N6_5 N 0.6559(3) 0.7539(3) 0.8269(4)
C9_5 C 0.5476(4) 0.7607(4) 0.8034(4)
C10_5 C 0.5954(4) 0.7283(4) 0.8408(4)
H5_5 H 0.5871 0.6941 0.8710
C11_5 C 0.4755(4) 0.7473(4) 0.8015(5)
C12_5 C 0.5829(4) 0.8080(4) 0.7670(4)
H6_5 H 0.5644 0.8382 0.7373
C11_6 C 0.0245(4) 0.2527(4) 0.3015(5)
N1_6 N 0.7185(3) 0.3524(3) 0.3030(3)
O1_6 O 0.7038(2) 0.2038(2) 0.2962(2)
N2_6 N 0.6731(4) 0.3441(3) 0.2539(3)
C1_6 C 0.6966(4) 0.4524(4) 0.2607(4)
C2_6 C 0.6592(4) 0.4046(4) 0.2283(4)
H1_6 H 0.6290 0.4129 0.1941
C3_6 C 0.6985(5) 0.5245(4) 0.2473(4)
C4_6 C 0.7330(4) 0.4171(4) 0.3080(4)
H2_6 H 0.7627 0.4356 0.3382
N3_6 N 0.6970(3) 0.2185(3) 0.1476(3)
N4_6 N 0.7461(3) 0.1731(4) 0.1559(3)
C5_6 C 0.7393(4) 0.1966(4) 0.0476(4)
C6_6 C 0.7717(4) 0.1592(4) 0.0954(4)
H3_6 H 0.8059 0.1290 0.0871
C8_6 C 0.6920(4) 0.2330(4) 0.0829(4)
H4_6 H 0.6618 0.2627 0.0644
N5_6 N 0.8524(3) 0.1970(3) 0.2815(3)
N6_6 N 0.8441(3) 0.2461(3) 0.3269(4)
C9_6 C 0.9524(4) 0.2393(4) 0.3034(4)
C10_6 C 0.9046(4) 0.2717(4) 0.3408(4)
H5_6 H 0.9129 0.3059 0.3710
C12_6 C 0.9171(4) 0.1920(4) 0.2670(4)
H6_6 H 0.9356 0.1618 0.2373
C7_6 C 0.7527(4) 0.1985(5) 0.9755(4)
C7_7 C 0.2527(4) 0.3015(5) 0.0245(4)
N1_7 N 0.2185(3) 0.1476(3) 0.6970(3)
O1_7 O 0.2038(2) 0.2962(2) 0.7038(2)
N2_7 N 0.1731(4) 0.1559(3) 0.7461(3)
C1_7 C 0.1966(4) 0.0476(4) 0.7393(4)
C2_7 C 0.1592(4) 0.0954(4) 0.7717(4)
H1_7 H 0.1290 0.0871 0.8059
C4_7 C 0.2330(4) 0.0829(4) 0.6920(4)
H2_7 H 0.2627 0.0644 0.6618
N3_7 N 0.1970(3) 0.2815(3) 0.8524(3)
N4_7 N 0.2461(3) 0.3269(4) 0.8441(3)
C5_7 C 0.2393(4) 0.3034(4) 0.9524(4)
C6_7 C 0.2717(4) 0.3408(4) 0.9046(4)
H3_7 H 0.3059 0.3710 0.9129
C8_7 C 0.1920(4) 0.2670(4) 0.9171(4)
H4_7 H 0.1618 0.2373 0.9356
N5_7 N 0.3524(3) 0.3030(3) 0.7185(3)
N6_7 N 0.3441(3) 0.2539(3) 0.6731(4)
C9_7 C 0.4524(4) 0.2607(4) 0.6966(4)
C10_7 C 0.4046(4) 0.2283(4) 0.6592(4)
H5_7 H 0.4129 0.1941 0.6290
C11_7 C 0.5245(4) 0.2473(4) 0.6985(5)
C12_7 C 0.4171(4) 0.3080(4) 0.7330(4)
H6_7 H 0.4356 0.3382 0.7627
C3_7 C 0.1985(5) 0.9755(4) 0.7527(4)
C3_8 C 0.3015(5) 0.0245(4) 0.2527(4)
N1_8 N 0.2815(3) 0.8524(3) 0.1970(3)
O1_8 O 0.2962(2) 0.7038(2) 0.2038(2)
N2_8 N 0.3269(4) 0.8441(3) 0.2461(3)
C1_8 C 0.3034(4) 0.9524(4) 0.2393(4)
C2_8 C 0.3408(4) 0.9046(4) 0.2717(4)
H1_8 H 0.3710 0.9129 0.3059
C4_8 C 0.2670(4) 0.9171(4) 0.1920(4)
H2_8 H 0.2373 0.9356 0.1618
N3_8 N 0.3030(3) 0.7185(3) 0.3524(3)
N4_8 N 0.2539(3) 0.6731(4) 0.3441(3)
C5_8 C 0.2607(4) 0.6966(4) 0.4524(4)
C6_8 C 0.2283(4) 0.6592(4) 0.4046(4)
H3_8 H 0.1941 0.6290 0.4129
C7_8 C 0.2473(4) 0.6985(5) 0.5245(4)
C8_8 C 0.3080(4) 0.7330(4) 0.4171(4)
H4_8 H 0.3382 0.7627 0.4356
N5_8 N 0.1476(3) 0.6970(3) 0.2185(3)
N6_8 N 0.1559(3) 0.7461(3) 0.1731(4)
C9_8 C 0.0476(4) 0.7393(4) 0.1966(4)
C10_8 C 0.0954(4) 0.7717(4) 0.1592(4)
H5_8 H 0.0871 0.8059 0.1290
C12_8 C 0.0829(4) 0.6920(4) 0.2330(4)
H6_8 H 0.0644 0.6618 0.2627
C11_8 C 0.9755(4) 0.7527(4) 0.1985(5)
loop_
_geom_bond_atom_site_label_1
_geom_bond_atom_site_label_2
_geom_bond_site_symmetry_1
_geom_bond_site_symmetry_2
Zn1 N1 1_555 1_555
N1 N2 1_555 1_555
O1 Zn1 1_555 1_555
O2 C3 1_555 1_555
N2 C2 1_555 1_555
C1 C2 1_555 1_555
O3 C3 1_555 1_555
C2 H1 1_555 1_555
C3 C1 1_555 1_555
C4 N1 1_555 1_555
H2 C4 1_555 1_555
Zn2 O1 1_555 1_555
N3 Zn2 1_555 1_555
O4 C7 1_555 1_555
N4 N3 1_555 1_555
C5 C6 1_555 1_555
O5 C7 1_555 1_555
C6 N4 1_555 1_555
H3 C6 1_555 1_555
C7 C5 1_555 1_555
C8 N3 1_555 1_555
H4 C8 1_555 1_555
Zn3 O1 1_555 1_555
N5 Zn3 1_555 1_555
O6 C11 1_555 1_555
N6 Zn1 1_555 1_555
C9 C10 1_555 1_555
O7 C11 1_555 1_555
C10 N6 1_555 1_555
H5 C10 1_555 1_555
C11 C9 1_555 1_555
C12 N5 1_555 1_555
H6 C12 1_555 1_555
Zn4 O4 1_555 1_555
Zn5 O6 1_555 1_555
Zn6 O2 1_555 1_555
O8 Zn3 1_555 1_555
O9 Zn1 1_555 1_555
O10 Zn2 1_555 1_555
O11 Zn3 1_555 1_555
O12 Zn1 1_555 1_555
O13 Zn2 1_555 1_555
N2 Zn2 1_555 1_555
C1 C4 1_555 1_555
O3 Zn6 1_555 1_555
N4 Zn3 1_555 1_555
C5 C8 1_555 1_555
O5 Zn4 1_555 1_555
N5 N6 1_555 1_555
C9 C12 1_555 1_555
O7 Zn5 1_555 1_555
O4_2 C7_2 1_555 1_555
O5_2 C7_2 1_555 1_555
Zn4_2 O4_2 1_555 1_555
O5_2 Zn4_2 1_555 1_555
Zn1_2 N1_2 1_555 1_555
N1_2 N2_2 1_555 1_555
O1_2 Zn1_2 1_555 1_555
O2_2 C3_2 1_555 1_555
N2_2 C2_2 1_555 1_555
C1_2 C2_2 1_555 1_555
O3_2 C3_2 1_555 1_555
C2_2 H1_2 1_555 1_555
C3_2 C1_2 1_555 1_555
C4_2 N1_2 1_555 1_555
H2_2 C4_2 1_555 1_555
Zn2_2 O1_2 1_555 1_555
N3_2 Zn2_2 1_555 1_555
N4_2 N3_2 1_555 1_555
C5_2 C6_2 1_555 1_555
C6_2 N4_2 1_555 1_555
H3_2 C6_2 1_555 1_555
C8_2 N3_2 1_555 1_555
H4_2 C8_2 1_555 1_555
Zn3_2 O1_2 1_555 1_555
N5_2 Zn3_2 1_555 1_555
N6_2 Zn1_2 1_555 1_555
C9_2 C10_2 1_555 1_555
C10_2 N6_2 1_555 1_555
H5_2 C10_2 1_555 1_555
C12_2 N5_2 1_555 1_555
H6_2 C12_2 1_555 1_555
Zn6_2 O2_2 1_555 1_555
O8_2 Zn3_2 1_555 1_555
O9_2 Zn1_2 1_555 1_555
O10_2 Zn2_2 1_555 1_555
O11_2 Zn3_2 1_555 1_555
O12_2 Zn1_2 1_555 1_555
O13_2 Zn2_2 1_555 1_555
N2_2 Zn2_2 1_555 1_555
C1_2 C4_2 1_555 1_555
O3_2 Zn6_2 1_555 1_555
N4_2 Zn3_2 1_555 1_555
C5_2 C8_2 1_555 1_555
N5_2 N6_2 1_555 1_555
C9_2 C12_2 1_555 1_555
O6_2 C11_2 1_555 1_555
O7_2 C11_2 1_555 1_555
Zn5_2 O6_2 1_555 1_555
O7_2 Zn5_2 1_555 1_555
O2_3 C3_3 1_555 1_555
O3_3 C3_3 1_555 1_555
Zn6_3 O2_3 1_555 1_555
O3_3 Zn6_3 1_555 1_555
Zn1_3 N1_3 1_555 1_555
N1_3 N2_3 1_555 1_555
O1_3 Zn1_3 1_555 1_555
N2_3 C2_3 1_555 1_555
C1_3 C2_3 1_555 1_555
C2_3 H1_3 1_555 1_555
C4_3 N1_3 1_555 1_555
H2_3 C4_3 1_555 1_555
Zn2_3 O1_3 1_555 1_555
N3_3 Zn2_3 1_555 1_555
N4_3 N3_3 1_555 1_555
C5_3 C6_3 1_555 1_555
C6_3 N4_3 1_555 1_555
H3_3 C6_3 1_555 1_555
C8_3 N3_3 1_555 1_555
H4_3 C8_3 1_555 1_555
Zn3_3 O1_3 1_555 1_555
N5_3 Zn3_3 1_555 1_555
O6_3 C11_3 1_555 1_555
N6_3 Zn1_3 1_555 1_555
C9_3 C10_3 1_555 1_555
O7_3 C11_3 1_555 1_555
C10_3 N6_3 1_555 1_555
H5_3 C10_3 1_555 1_555
C11_3 C9_3 1_555 1_555
C12_3 N5_3 1_555 1_555
H6_3 C12_3 1_555 1_555
Zn5_3 O6_3 1_555 1_555
O8_3 Zn3_3 1_555 1_555
O9_3 Zn1_3 1_555 1_555
O10_3 Zn2_3 1_555 1_555
O11_3 Zn3_3 1_555 1_555
O12_3 Zn1_3 1_555 1_555
O13_3 Zn2_3 1_555 1_555
N2_3 Zn2_3 1_555 1_555
C1_3 C4_3 1_555 1_555
N4_3 Zn3_3 1_555 1_555
C5_3 C8_3 1_555 1_555
N5_3 N6_3 1_555 1_555
C9_3 C12_3 1_555 1_555
O7_3 Zn5_3 1_555 1_555
O4_3 C7_3 1_555 1_555
O5_3 C7_3 1_555 1_555
Zn4_3 O4_3 1_555 1_555
O5_3 Zn4_3 1_555 1_555
O6_4 C11_4 1_555 1_555
O7_4 C11_4 1_555 1_555
Zn5_4 O6_4 1_555 1_555
O7_4 Zn5_4 1_555 1_555
Zn1_4 N1_4 1_555 1_555
N1_4 N2_4 1_555 1_555
O1_4 Zn1_4 1_555 1_555
N2_4 C2_4 1_555 1_555
C1_4 C2_4 1_555 1_555
C2_4 H1_4 1_555 1_555
C4_4 N1_4 1_555 1_555
H2_4 C4_4 1_555 1_555
Zn2_4 O1_4 1_555 1_555
N3_4 Zn2_4 1_555 1_555
O4_4 C7_4 1_555 1_555
N4_4 N3_4 1_555 1_555
C5_4 C6_4 1_555 1_555
O5_4 C7_4 1_555 1_555
C6_4 N4_4 1_555 1_555
H3_4 C6_4 1_555 1_555
C7_4 C5_4 1_555 1_555
C8_4 N3_4 1_555 1_555
H4_4 C8_4 1_555 1_555
Zn3_4 O1_4 1_555 1_555
N5_4 Zn3_4 1_555 1_555
N6_4 Zn1_4 1_555 1_555
C9_4 C10_4 1_555 1_555
C10_4 N6_4 1_555 1_555
H5_4 C10_4 1_555 1_555
C12_4 N5_4 1_555 1_555
H6_4 C12_4 1_555 1_555
Zn4_4 O4_4 1_555 1_555
O8_4 Zn3_4 1_555 1_555
O9_4 Zn1_4 1_555 1_555
O10_4 Zn2_4 1_555 1_555
O11_4 Zn3_4 1_555 1_555
O12_4 Zn1_4 1_555 1_555
O13_4 Zn2_4 1_555 1_555
N2_4 Zn2_4 1_555 1_555
C1_4 C4_4 1_555 1_555
N4_4 Zn3_4 1_555 1_555
C5_4 C8_4 1_555 1_555
O5_4 Zn4_4 1_555 1_555
N5_4 N6_4 1_555 1_555
C9_4 C12_4 1_555 1_555
O2_4 C3_4 1_555 1_555
O3_4 C3_4 1_555 1_555
Zn6_4 O2_4 1_555 1_555
O3_4 Zn6_4 1_555 1_555
Zn4_3 N1_5 1_555 1_555
N1_5 N2_5 1_555 1_555
O1_5 Zn4_3 1_555 1_555
O8_4 C3_5 1_555 1_555
N2_5 C2_5 1_555 1_555
C1_5 C2_5 1_555 1_555
O11_4 C3_5 1_555 1_555
C2_5 H1_5 1_555 1_555
C3_5 C1_5 1_555 1_555
C4_5 N1_5 1_555 1_555
H2_5 C4_5 1_555 1_555
Zn5_2 O1_5 1_555 1_555
N3_5 Zn5_2 1_555 1_555
O9_3 C7_5 1_555 1_555
N4_5 N3_5 1_555 1_555
C5_5 C6_5 1_555 1_555
O12_3 C7_5 1_555 1_555
C6_5 N4_5 1_555 1_555
H3_5 C6_5 1_555 1_555
C7_5 C5_5 1_555 1_555
C8_5 N3_5 1_555 1_555
H4_5 C8_5 1_555 1_555
Zn6_4 O1_5 1_555 1_555
N5_5 Zn6_4 1_555 1_555
O10_2 C11_5 1_555 1_555
N6_5 Zn4_3 1_555 1_555
C9_5 C10_5 1_555 1_555
O13_2 C11_5 1_555 1_555
C10_5 N6_5 1_555 1_555
H5_5 C10_5 1_555 1_555
C11_5 C9_5 1_555 1_555
C12_5 N5_5 1_555 1_555
H6_5 C12_5 1_555 1_555
N2_5 Zn5_2 1_555 1_555
C1_5 C4_5 1_555 1_555
N4_5 Zn6_4 1_555 1_555
C5_5 C8_5 1_555 1_555
N5_5 N6_5 1_555 1_555
C9_5 C12_5 1_555 1_555
O10 C11_6 1_555 1_555
O13 C11_6 1_555 1_555
Zn4_4 N1_6 1_555 1_555
N1_6 N2_6 1_555 1_555
O1_6 Zn4_4 1_555 1_555
O8_3 C3_6 1_555 1_555
N2_6 C2_6 1_555 1_555
C1_6 C2_6 1_555 1_555
O11_3 C3_6 1_555 1_555
C2_6 H1_6 1_555 1_555
C3_6 C1_6 1_555 1_555
C4_6 N1_6 1_555 1_555
H2_6 C4_6 1_555 1_555
Zn5 O1_6 1_555 1_555
N3_6 Zn5 1_555 1_555
N4_6 N3_6 1_555 1_555
C5_6 C6_6 1_555 1_555
C6_6 N4_6 1_555 1_555
H3_6 C6_6 1_555 1_555
C8_6 N3_6 1_555 1_555
H4_6 C8_6 1_555 1_555
Zn6_3 O1_6 1_555 1_555
N5_6 Zn6_3 1_555 1_555
N6_6 Zn4_4 1_555 1_555
C9_6 C10_6 1_555 1_555
C10_6 N6_6 1_555 1_555
H5_6 C10_6 1_555 1_555
C12_6 N5_6 1_555 1_555
H6_6 C12_6 1_555 1_555
N2_6 Zn5 1_555 1_555
C1_6 C4_6 1_555 1_555
N4_6 Zn6_3 1_555 1_555
C5_6 C8_6 1_555 1_555
N5_6 N6_6 1_555 1_555
C9_6 C12_6 1_555 1_555
O9_4 C7_6 1_555 1_555
O12_4 C7_6 1_555 1_555
O9 C7_7 1_555 1_555
O12 C7_7 1_555 1_555
Zn4 N1_7 1_555 1_555
N1_7 N2_7 1_555 1_555
O1_7 Zn4 1_555 1_555
N2_7 C2_7 1_555 1_555
C1_7 C2_7 1_555 1_555
C2_7 H1_7 1_555 1_555
C4_7 N1_7 1_555 1_555
H2_7 C4_7 1_555 1_555
Zn5_4 O1_7 1_555 1_555
N3_7 Zn5_4 1_555 1_555
N4_7 N3_7 1_555 1_555
C5_7 C6_7 1_555 1_555
C6_7 N4_7 1_555 1_555
H3_7 C6_7 1_555 1_555
C8_7 N3_7 1_555 1_555
H4_7 C8_7 1_555 1_555
Zn6_2 O1_7 1_555 1_555
N5_7 Zn6_2 1_555 1_555
O10_4 C11_7 1_555 1_555
N6_7 Zn4 1_555 1_555
C9_7 C10_7 1_555 1_555
O13_4 C11_7 1_555 1_555
C10_7 N6_7 1_555 1_555
H5_7 C10_7 1_555 1_555
C11_7 C9_7 1_555 1_555
C12_7 N5_7 1_555 1_555
H6_7 C12_7 1_555 1_555
N2_7 Zn5_4 1_555 1_555
C1_7 C4_7 1_555 1_555
N4_7 Zn6_2 1_555 1_555
C5_7 C8_7 1_555 1_555
N5_7 N6_7 1_555 1_555
C9_7 C12_7 1_555 1_555
O8_2 C3_7 1_555 1_555
O11_2 C3_7 1_555 1_555
O8 C3_8 1_555 1_555
O11 C3_8 1_555 1_555
Zn4_2 N1_8 1_555 1_555
N1_8 N2_8 1_555 1_555
O1_8 Zn4_2 1_555 1_555
N2_8 C2_8 1_555 1_555
C1_8 C2_8 1_555 1_555
C2_8 H1_8 1_555 1_555
C4_8 N1_8 1_555 1_555
H2_8 C4_8 1_555 1_555
Zn5_3 O1_8 1_555 1_555
N3_8 Zn5_3 1_555 1_555
O9_2 C7_8 1_555 1_555
N4_8 N3_8 1_555 1_555
C5_8 C6_8 1_555 1_555
O12_2 C7_8 1_555 1_555
C6_8 N4_8 1_555 1_555
H3_8 C6_8 1_555 1_555
C7_8 C5_8 1_555 1_555
C8_8 N3_8 1_555 1_555
H4_8 C8_8 1_555 1_555
Zn6 O1_8 1_555 1_555
N5_8 Zn6 1_555 1_555
N6_8 Zn4_2 1_555 1_555
C9_8 C10_8 1_555 1_555
C10_8 N6_8 1_555 1_555
H5_8 C10_8 1_555 1_555
C12_8 N5_8 1_555 1_555
H6_8 C12_8 1_555 1_555
N2_8 Zn5_3 1_555 1_555
C1_8 C4_8 1_555 1_555
N4_8 Zn6 1_555 1_555
C5_8 C8_8 1_555 1_555
N5_8 N6_8 1_555 1_555
C9_8 C12_8 1_555 1_555
O10_3 C11_8 1_555 1_555
O13_3 C11_8 1_555 1_555

#END
