
###############################################################################
#
# This file contains modified crystal structure data generated from the
# MOF subset of the Cambridge Structural Database (CSD) v543 
# hosted by the Cambridge Crystallographic Data Centre (CCDC).
#
# This work is licensed under the Creative Commons
# Attribution-NonCommercial-ShareAlike 4.0 International License.
# To view a copy of this license, visit
# http://creativecommons.org/licenses/by-nc-sa/4.0/
# or send a letter to
# Creative Commons, PO Box 1866, Mountain View, CA 94042, USA.
#
# CIF created using the CSD Python API on 29 September 2022
# The structure has been converted into the P1 space group
# The structure has a 3D framework
# The original CSD entry LOXBEH is in the cubic crystal system
# The original CSD entry LOXBEH is in a Sohncke space group
# The framework has been calculated to contain at least 10.0% void space
# The void calculation uses a probe of radius 1.32A, grid spacing 0.4
# H atom positions have been added when not included in the experimental data
# Generated hydrogen atom positions removed from atoms on special positions
#
###############################################################################

data_LOXBEH
_chemical_formula_moiety         '(C576 H672 Cd36 N120 O204)n'
_symmetry_cell_setting           triclinic
_symmetry_space_group_name_H-M   'P 1'
_symmetry_Int_Tables_number      1
_space_group_name_Hall           'P 1'
loop_
_symmetry_equiv_pos_site_id
_symmetry_equiv_pos_as_xyz
1 x,y,z
_cell_length_a                   29.59550(10)
_cell_length_b                   29.59550(10)
_cell_length_c                   29.59550(10)
_cell_angle_alpha                90
_cell_angle_beta                 90
_cell_angle_gamma                90
_cell_volume                     25922.5
loop_
_atom_site_label
_atom_site_type_symbol
_atom_site_fract_x
_atom_site_fract_y
_atom_site_fract_z
C5 C 0.0552(3) 0.1194(3) 0.0800(3)
C8 C 0.0501(3) 0.0904(3) 0.1165(3)
H4 H 0.0275 0.0947 0.1379
N3 N 0.0261(3) 0.1569(3) 0.0730(3)
C12 C 0.0198(4) 0.1843(4) 0.0355(4)
H6 H 0.0351 0.1812 0.0082
C35 C 0.0800(3) 0.0552(3) 0.1194(3)
C36 C 0.1165(3) 0.0501(3) 0.0904(3)
H27 H 0.1379 0.0275 0.0947
N10 N 0.0730(3) 0.0261(3) 0.1569(3)
C37 C 0.0355(4) 0.0198(4) 0.1843(4)
H28 H 0.0082 0.0351 0.1812
C40 C 0.1194(3) 0.0800(3) 0.0552(3)
C41 C 0.0904(3) 0.1165(3) 0.0501(3)
H31 H 0.0947 0.1379 0.0275
N12 N 0.1569(3) 0.0730(3) 0.0261(3)
C42 C 0.1843(4) 0.0355(4) 0.0198(4)
H32 H 0.1812 0.0082 0.0351
Cd7 Cd 0.00207(3) 0.47813(3) 0.22393(3)
O28 O 0.3131(3) 0.3127(3) 0.0228(3)
C73 C 0.0934(5) 0.4153(4) 0.1243(4)
O29 O 0.0011(3) 0.3280(3) 0.0576(3)
C74 C 0.1998(5) 0.3598(5) 0.0883(5)
O30 O 0.0573(3) 0.2974(3) 0.0165(3)
N16 N 0.2262(4) 0.3858(4) 0.0631(4)
C75 C 0.1199(3) 0.3448(4) 0.0696(3)
H55 H 0.1299 0.3227 0.0495
C76 C 0.0418(4) 0.3233(4) 0.0480(5)
C77 C 0.0764(4) 0.3515(4) 0.0743(3)
C78 C 0.1371(5) 0.4053(4) 0.1161(4)
H56 H 0.1588 0.4251 0.1272
C79 C 0.0602(5) 0.3878(4) 0.1012(4)
H57 H 0.0295 0.3937 0.1039
C80 C 0.2725(5) 0.3739(5) 0.0538(5)
H58 H 0.2891 0.3710 0.0823
C81 C 0.2128(5) 0.4253(6) 0.0407(7)
H59 H 0.2047 0.4487 0.0622
H60 H 0.1873 0.4196 0.0210
C82 C 0.2751(4) 0.3303(5) 0.0286(4)
C83 C 0.1511(4) 0.3697(4) 0.0936(3)
O31 O 0.2144(2) 0.3266(3) 0.1095(2)
O32 O 0.2402(3) 0.3155(3) 0.0092(3)
O33 O 0.0364(4) 0.4538(5) 0.1630(3)
O34 O 0.1032(6) 0.4838(4) 0.1610(4)
C84 C 0.0733(6) 0.4553(6) 0.1501(5)
C85 C 0.2905(6) 0.4142(6) 0.0279(9)
H61 H 0.3098 0.4324 0.0471
H62 H 0.3079 0.4042 0.0020
C86 C 0.2536(9) 0.4388(10) 0.0140(9)
H64 H 0.2594 0.4708 0.0182
H83 H 0.0179 0.7481 0.0665
C138 C 0.6757(5) 0.3949(5) 0.0024(6)
H103 H 0.6681 0.3645 0.0045
C139 C 0.7057(7) 0.4159(6) 0.0250(7)
H104 H 0.7196 0.4031 0.0501
N28 N 0.7157(3) 0.4561(4) 0.0113(3)
Cd12 Cd 0.47813(3) 0.22393(3) 0.00207(3)
Cd14 Cd 0.77607(3) 0.50207(3) 0.02187(3)
Cd16 Cd 0.02607(3) 0.77187(3) 0.24793(3)
Cd22 Cd 0.3750 0.31324(6) 0.06324(6)
O55 O 0.0627(3) 0.4369(3) 0.2728(3)
O61 O 0.3280(3) 0.0576(3) 0.0011(3)
O63 O 0.0576(3) 0.0011(3) 0.3280(3)
O64 O 0.2974(3) 0.0165(3) 0.0573(3)
O66 O 0.0165(3) 0.0573(3) 0.2974(3)
O69 O 0.0655(3) 0.5098(3) 0.2592(3)
C25 C 0.0180(3) 0.5172(4) 0.4528(3)
H19 H 0.0400 0.5191 0.4305
C26 C 0.0165(3) 0.5482(3) 0.4868(3)
C27 C 0.0721(5) 0.6014(5) 0.4559(5)
H20 H 0.0691 0.5933 0.4256
N6 N 0.0916(3) 0.6396(3) 0.5138(4)
N7 N 0.0482(3) 0.5824(3) 0.4904(3)
C28 C 0.1007(6) 0.6337(6) 0.4715(5)
H21 H 0.1227 0.6488 0.4549
C29 C 0.0591(4) 0.6108(5) 0.5248(4)
H22 H 0.0452 0.6101 0.5530
N8 N 0.0138(4) 0.4084(3) 0.3604(3)
C34 C 0.0248(4) 0.4409(4) 0.3892(5)
H26 H 0.0530 0.4548 0.3899
C43 C 0.1757(5) 0.1051(5) 0.9976(6)
H33 H 0.1681 0.1355 0.9955
C44 C 0.2057(7) 0.0841(6) 0.9750(7)
H34 H 0.2196 0.0969 0.9499
N13 N 0.2157(3) 0.0439(4) 0.9887(3)
Cd5 Cd 0.49793(3) 0.52187(3) 0.72393(3)
Cd6 Cd 0.1250 0.68676(6) 0.56324(6)
O19 O 0.1869(3) 0.6873(3) 0.5228(3)
C59 C 0.4066(5) 0.5847(4) 0.6243(4)
O20 O 0.4989(3) 0.6720(3) 0.5576(3)
C60 C 0.3002(5) 0.6402(5) 0.5883(5)
O21 O 0.4427(3) 0.7026(3) 0.5165(3)
N15 N 0.2738(4) 0.6142(4) 0.5631(4)
C61 C 0.3801(3) 0.6552(4) 0.5696(3)
H45 H 0.3701 0.6773 0.5495
C62 C 0.4582(4) 0.6767(4) 0.5480(5)
C63 C 0.4236(4) 0.6485(4) 0.5743(3)
C64 C 0.3629(5) 0.5947(4) 0.6161(4)
H46 H 0.3412 0.5749 0.6272
C65 C 0.4398(5) 0.6122(4) 0.6012(4)
H47 H 0.4705 0.6063 0.6039
C66 C 0.2275(5) 0.6261(5) 0.5538(5)
H48 H 0.2109 0.6290 0.5823
C67 C 0.2872(5) 0.5747(6) 0.5407(7)
H49 H 0.2953 0.5513 0.5622
H50 H 0.3127 0.5804 0.5210
C68 C 0.2249(4) 0.6697(5) 0.5286(4)
C69 C 0.3489(4) 0.6303(4) 0.5936(3)
O22 O 0.2856(2) 0.6734(3) 0.6095(2)
O23 O 0.2598(3) 0.6845(3) 0.5092(3)
O24 O 0.4636(4) 0.5462(5) 0.6630(3)
O25 O 0.3968(6) 0.5162(4) 0.6610(4)
C70 C 0.4267(6) 0.5447(6) 0.6501(5)
C71 C 0.2095(6) 0.5858(6) 0.5279(9)
H51 H 0.1902 0.5676 0.5471
H52 H 0.1921 0.5958 0.5020
C72 C 0.2464(9) 0.5612(10) 0.5140(9)
H53 H 0.2519 0.5665 0.4821
H54 H 0.2406 0.5292 0.5182
O26 O 0.5336(5) 0.5966(4) 0.7146(4)
O27 O 0.1250 0.6251(4) 0.6249(4)
H63 H 0.2481 0.4335 0.9821
O43 O 0.2854(4) 0.0336(5) 0.9034(4)
C130 C 0.5800(3) 0.4448(3) 0.8806(3)
C131 C 0.6165(3) 0.4499(3) 0.9096(3)
H97 H 0.6379 0.4725 0.9053
N25 N 0.5730(3) 0.4739(3) 0.8431(3)
C132 C 0.5355(4) 0.4802(4) 0.8157(4)
H98 H 0.5082 0.4649 0.8188
C133 C 0.6051(5) 0.5024(6) 0.8243(5)
H99 H 0.6355 0.5045 0.8319
C134 C 0.5841(6) 0.5250(7) 0.7943(7)
H100 H 0.5969 0.5501 0.7804
N26 N 0.5439(4) 0.5113(3) 0.7843(3)
C135 C 0.6194(3) 0.4200(3) 0.9448(3)
C136 C 0.5904(3) 0.3835(3) 0.9499(3)
H101 H 0.5947 0.3621 0.9725
N27 N 0.6569(3) 0.4270(3) 0.9739(3)
C137 C 0.6843(4) 0.4645(4) 0.9802(4)
H102 H 0.6812 0.4918 0.9649
C140 C 0.5552(3) 0.3806(3) 0.9200(3)
C141 C 0.5501(3) 0.4096(3) 0.8835(3)
H105 H 0.5275 0.4053 0.8621
N29 N 0.5261(3) 0.3431(3) 0.9270(3)
C142 C 0.5198(4) 0.3157(4) 0.9645(4)
H106 H 0.5351 0.3188 0.9918
C143 C 0.4976(6) 0.3243(5) 0.8949(5)
H107 H 0.4955 0.3319 0.8645
C144 C 0.4750(7) 0.2943(7) 0.9159(6)
H108 H 0.4499 0.2804 0.9031
N30 N 0.4887(3) 0.2843(3) 0.9561(4)
Cd10 Cd 0.52187(3) 0.72393(3) 0.49793(3)
Cd13 Cd 0.50207(3) 0.02187(3) 0.77607(3)
Cd17 Cd 0.22813(3) 0.74793(3) 0.47393(3)
Cd18 Cd 0.27187(3) 0.25207(3) 0.97393(3)
Cd26 Cd 0.06324(6) 0.3750 0.31324(6)
O57 O 0.4373(3) 0.5631(3) 0.7728(3)
O59 O 0.0631(3) 0.7272(3) 0.5627(3)
O62 O 0.5576(3) 0.4989(3) 0.6720(3)
N32 N 0.1584(3) 0.7362(4) 0.6104(3)
O65 O 0.5165(3) 0.4427(3) 0.7026(3)
O71 O 0.4345(3) 0.4902(3) 0.7592(3)
O72 O 0.0098(3) 0.2408(3) 0.9345(3)
C38 C 0.1051(5) 0.9976(6) 0.1757(5)
H29 H 0.1355 0.9955 0.1681
C39 C 0.0841(6) 0.9750(7) 0.2057(7)
H30 H 0.0969 0.9499 0.2196
N11 N 0.0439(4) 0.9887(3) 0.2157(3)
O17 O 0.0336(5) 0.9034(4) 0.2854(4)
Cd11 Cd 0.02187(3) 0.77607(3) 0.50207(3)
O68 O 0.2408(3) 0.9345(3) 0.0098(3)
Cd8 Cd 0.27607(3) 0.99793(3) 0.97813(3)
O36 O 0.4772(3) 0.6869(3) 0.8127(3)
C87 C 0.3757(4) 0.9066(5) 0.9153(4)
O37 O 0.4424(3) 0.9989(3) 0.8280(3)
C88 C 0.4117(5) 0.8002(5) 0.8598(5)
O38 O 0.4835(3) 0.9427(3) 0.7974(3)
N17 N 0.4369(4) 0.7738(4) 0.8858(4)
C89 C 0.4304(3) 0.8801(3) 0.8448(4)
H65 H 0.4505 0.8701 0.8227
C90 C 0.4520(5) 0.9582(4) 0.8233(4)
C91 C 0.4257(3) 0.9236(4) 0.8515(4)
C92 C 0.3839(4) 0.8629(5) 0.9053(4)
H66 H 0.3728 0.8412 0.9251
C93 C 0.3988(4) 0.9398(5) 0.8878(4)
H67 H 0.3961 0.9705 0.8937
C94 C 0.4462(5) 0.7275(5) 0.8739(5)
H68 H 0.4177 0.7109 0.8710
C95 C 0.4593(7) 0.7872(5) 0.9253(6)
H69 H 0.4378 0.7953 0.9487
H70 H 0.4790 0.8127 0.9196
C96 C 0.4714(4) 0.7249(4) 0.8303(5)
C97 C 0.4064(3) 0.8489(4) 0.8697(4)
O39 O 0.3905(2) 0.7856(2) 0.8266(3)
O40 O 0.4908(3) 0.7598(3) 0.8155(3)
O41 O 0.3370(3) 0.9636(4) 0.9538(5)
O42 O 0.3390(4) 0.8968(6) 0.9838(4)
C98 C 0.3499(5) 0.9267(6) 0.9553(6)
C99 C 0.4721(9) 0.7095(6) 0.9142(6)
H71 H 0.4529 0.6902 0.9324
H72 H 0.4980 0.6921 0.9042
C100 C 0.4860(9) 0.7464(9) 0.9388(10)
H73 H 0.5179 0.7519 0.9335
H74 H 0.4818 0.7406 0.9708
Cd15 Cd 0.52607(3) 0.72813(3) 0.75207(3)
Cd23 Cd 0.43676(6) 0.6250 0.81324(6)
O54 O 0.2272(3) 0.9373(3) 0.9369(3)
C21 C 0.9976(6) 0.1757(5) 0.1051(5)
H13 H 0.9955 0.1681 0.1355
C24 C 0.9750(7) 0.2057(7) 0.0841(6)
H18 H 0.9499 0.2196 0.0969
N5 N 0.9887(3) 0.2157(3) 0.0439(4)
O8 O 0.9034(4) 0.2854(4) 0.0336(5)
O35 O 0.9664(5) 0.4034(4) 0.2146(4)
O44 O 0.9772(3) 0.8131(3) 0.1873(3)
C101 C 0.8757(4) 0.5934(5) 0.0847(4)
O45 O 0.9424(3) 0.5011(3) 0.1720(3)
C102 C 0.9117(5) 0.6998(5) 0.1402(5)
O46 O 0.9835(3) 0.5573(3) 0.2026(3)
N18 N 0.9369(4) 0.7262(4) 0.1142(4)
C103 C 0.9304(3) 0.6199(3) 0.1552(4)
H75 H 0.9505 0.6299 0.1773
C104 C 0.9520(5) 0.5418(4) 0.1767(4)
C105 C 0.9257(3) 0.5764(4) 0.1485(4)
C106 C 0.8839(4) 0.6371(5) 0.0947(4)
H76 H 0.8728 0.6588 0.0749
C107 C 0.8988(4) 0.5602(5) 0.1122(4)
H77 H 0.8961 0.5295 0.1063
C108 C 0.9462(5) 0.7725(5) 0.1261(5)
H78 H 0.9177 0.7891 0.1290
C109 C 0.9593(7) 0.7128(5) 0.0747(6)
H79 H 0.9378 0.7047 0.0513
H80 H 0.9790 0.6873 0.0804
C110 C 0.9714(4) 0.7751(4) 0.1697(5)
C111 C 0.9064(3) 0.6511(4) 0.1303(4)
O47 O 0.8905(2) 0.7144(2) 0.1734(3)
O48 O 0.9908(3) 0.7402(3) 0.1845(3)
O49 O 0.8370(3) 0.5364(4) 0.0462(5)
O50 O 0.8390(4) 0.6032(6) 0.0162(4)
C112 C 0.8499(5) 0.5733(6) 0.0447(6)
C113 C 0.9721(9) 0.7905(6) 0.0858(6)
H81 H 0.9529 0.8098 0.0676
H82 H 0.9980 0.8079 0.0958
C114 C 0.9860(9) 0.7536(9) 0.0612(10)
H84 H 0.9818 0.7594 0.0292
O51 O 0.7854(4) 0.4664(5) 0.0966(4)
Cd25 Cd 0.93676(6) 0.8750 0.18676(6)
O52 O 0.7272(3) 0.5627(3) 0.0631(3)
O70 O 0.9345(3) 0.0098(3) 0.2408(3)
N34 N 0.9561(4) 0.4887(3) 0.2843(3)
Cd1 Cd 0.97813(3) 0.27607(3) 0.99793(3)
Cd2 Cd 0.81324(6) 0.43676(6) 0.6250
O1 O 0.8127(3) 0.4772(3) 0.6869(3)
C1 C 0.9828(4) 0.5472(3) 0.5180(3)
H1 H 0.9809 0.5695 0.5400
C2 C 0.9153(4) 0.3757(4) 0.9066(5)
C3 C 0.9518(3) 0.5132(3) 0.5165(3)
C4 C 0.8986(5) 0.5441(5) 0.5721(5)
H2 H 0.9067 0.5744 0.5691
O2 O 0.8280(3) 0.4424(3) 0.9989(3)
N1 N 0.8604(3) 0.4862(4) 0.5916(3)
C6 C 0.8598(5) 0.4117(5) 0.8002(5)
O3 O 0.7974(3) 0.4835(3) 0.9427(3)
N2 N 0.8858(4) 0.4369(4) 0.7738(4)
C7 C 0.8448(4) 0.4304(3) 0.8801(3)
H3 H 0.8227 0.4505 0.8701
C9 C 0.8233(4) 0.4520(5) 0.9582(4)
C10 C 0.8515(4) 0.4257(3) 0.9236(4)
N4 N 0.9176(3) 0.5096(3) 0.5482(3)
C11 C 0.9053(4) 0.3839(4) 0.8629(5)
H5 H 0.9251 0.3728 0.8412
C13 C 0.8663(6) 0.5285(5) 0.6007(6)
H7 H 0.8512 0.5451 0.6227
C14 C 0.8892(5) 0.4752(4) 0.5591(4)
H8 H 0.8899 0.4470 0.5452
C15 C 0.8878(4) 0.3988(4) 0.9398(5)
H9 H 0.8937 0.3961 0.9705
C16 C 0.8739(5) 0.4462(5) 0.7275(5)
H10 H 0.8710 0.4177 0.7109
C17 C 0.9253(6) 0.4593(7) 0.7872(5)
H11 H 0.9487 0.4378 0.7953
H12 H 0.9196 0.4790 0.8127
C18 C 0.8303(5) 0.4714(4) 0.7249(4)
C19 C 0.8697(4) 0.4064(3) 0.8489(4)
O4 O 0.8266(3) 0.3905(2) 0.7856(2)
O5 O 0.8155(3) 0.4908(3) 0.7598(3)
O6 O 0.9538(5) 0.3370(3) 0.9636(4)
O7 O 0.9838(4) 0.3390(4) 0.8968(6)
C20 C 0.9553(6) 0.3499(5) 0.9267(6)
C22 C 0.9142(6) 0.4721(9) 0.7095(6)
H14 H 0.9324 0.4529 0.6902
H15 H 0.9042 0.4980 0.6921
C23 C 0.9388(10) 0.4860(9) 0.7464(9)
H16 H 0.9335 0.5179 0.7519
H17 H 0.9708 0.4818 0.7406
O9 O 0.8749(4) 0.3751(4) 0.6250
C30 C 0.9528(3) 0.4820(3) 0.4828(4)
H23 H 0.9305 0.4600 0.4809
C31 C 0.9868(3) 0.4835(3) 0.4518(3)
C32 C 0.9559(5) 0.4279(5) 0.3986(5)
H24 H 0.9256 0.4309 0.4067
N9 N 0.9904(3) 0.4518(3) 0.4176(3)
C33 C 0.9715(5) 0.3993(6) 0.3663(6)
H25 H 0.9549 0.3773 0.3512
C115 C 0.7028(3) 0.2672(4) 0.7320(3)
H85 H 0.6805 0.2691 0.7100
C116 C 0.7368(3) 0.2982(3) 0.7335(3)
C117 C 0.7059(5) 0.3514(5) 0.6779(5)
H86 H 0.6756 0.3433 0.6809
N19 N 0.7638(4) 0.3896(3) 0.6584(3)
N20 N 0.7404(3) 0.3324(3) 0.7018(3)
C118 C 0.7215(5) 0.3837(6) 0.6493(6)
H87 H 0.7049 0.3988 0.6273
C119 C 0.7748(4) 0.3608(5) 0.6909(4)
H88 H 0.8030 0.3601 0.7048
C120 C 0.7328(4) 0.2320(3) 0.7972(3)
H89 H 0.7309 0.2100 0.8195
C121 C 0.7018(3) 0.2335(3) 0.7632(3)
C122 C 0.6486(5) 0.1779(5) 0.7941(5)
H90 H 0.6567 0.1809 0.8244
N21 N 0.6104(3) 0.1584(3) 0.7362(4)
N22 N 0.6676(3) 0.2018(3) 0.7596(3)
C123 C 0.6163(6) 0.1493(6) 0.7785(5)
H91 H 0.6012 0.1273 0.7951
C124 C 0.6392(5) 0.1909(4) 0.7252(4)
H92 H 0.6399 0.2048 0.6970
C125 C 0.7680(3) 0.2972(3) 0.7672(4)
H93 H 0.7900 0.3195 0.7691
C126 C 0.7665(3) 0.2632(3) 0.7982(3)
C127 C 0.8221(5) 0.2941(5) 0.8514(5)
H94 H 0.8191 0.3244 0.8433
N23 N 0.8416(3) 0.2362(4) 0.8896(3)
N24 N 0.7982(3) 0.2596(3) 0.8324(3)
C128 C 0.8507(6) 0.2785(5) 0.8837(6)
H95 H 0.8727 0.2951 0.8988
C129 C 0.8091(4) 0.2252(4) 0.8608(5)
H96 H 0.7952 0.1970 0.8601
Cd20 Cd 0.75207(3) 0.52607(3) 0.72813(3)
Cd21 Cd 0.8750 0.18676(6) 0.93676(6)
Cd24 Cd 0.56324(6) 0.1250 0.68676(6)
O53 O 0.7728(3) 0.4373(3) 0.5631(3)
O58 O 0.9369(3) 0.2272(3) 0.9373(3)
O67 O 0.7408(3) 0.5655(3) 0.9902(3)
Cd3 Cd 0.99793(3) 0.97813(3) 0.27607(3)
Cd4 Cd 0.6250 0.81324(6) 0.43676(6)
O10 O 0.6869(3) 0.8127(3) 0.4772(3)
C45 C 0.9066(5) 0.9153(4) 0.3757(4)
O11 O 0.9989(3) 0.8280(3) 0.4424(3)
C46 C 0.8002(5) 0.8598(5) 0.4117(5)
O12 O 0.9427(3) 0.7974(3) 0.4835(3)
N14 N 0.7738(4) 0.8858(4) 0.4369(4)
C47 C 0.8801(3) 0.8448(4) 0.4304(3)
H35 H 0.8701 0.8227 0.4505
C48 C 0.9582(4) 0.8233(4) 0.4520(5)
C49 C 0.9236(4) 0.8515(4) 0.4257(3)
C50 C 0.8629(5) 0.9053(4) 0.3839(4)
H36 H 0.8412 0.9251 0.3728
C51 C 0.9398(5) 0.8878(4) 0.3988(4)
H37 H 0.9705 0.8937 0.3961
C52 C 0.7275(5) 0.8739(5) 0.4462(5)
H38 H 0.7109 0.8710 0.4177
C53 C 0.7872(5) 0.9253(6) 0.4593(7)
H39 H 0.7953 0.9487 0.4378
H40 H 0.8127 0.9196 0.4790
C54 C 0.7249(4) 0.8303(5) 0.4714(4)
C55 C 0.8489(4) 0.8697(4) 0.4064(3)
O13 O 0.7856(2) 0.8266(3) 0.3905(2)
O14 O 0.7598(3) 0.8155(3) 0.4908(3)
O15 O 0.9636(4) 0.9538(5) 0.3370(3)
O16 O 0.8968(6) 0.9838(4) 0.3390(4)
C56 C 0.9267(6) 0.9553(6) 0.3499(5)
C57 C 0.7095(6) 0.9142(6) 0.4721(9)
H41 H 0.6902 0.9324 0.4529
H42 H 0.6921 0.9042 0.4980
C58 C 0.7464(9) 0.9388(10) 0.4860(9)
H43 H 0.7519 0.9335 0.5179
H44 H 0.7406 0.9708 0.4818
O18 O 0.6250 0.8749(4) 0.3751(4)
Cd19 Cd 0.72813(3) 0.75207(3) 0.52607(3)
O56 O 0.9373(3) 0.9369(3) 0.2272(3)
O60 O 0.5631(3) 0.7728(3) 0.4373(3)
N31 N 0.5916(3) 0.8604(3) 0.4862(4)
N33 N 0.6584(3) 0.7638(4) 0.3896(3)
H43_2 H 0.7481 0.0665 0.0179
Cd19_2 Cd 0.77187(3) 0.24793(3) 0.02607(3)
C38_2 C 0.3949(5) 0.0024(6) 0.6757(5)
H29_2 H 0.3645 0.0045 0.6681
C39_2 C 0.4159(6) 0.0250(7) 0.7057(7)
H30_2 H 0.4031 0.0501 0.7196
N11_2 N 0.4561(4) 0.0113(3) 0.7157(3)
O10_2 O 0.8131(3) 0.1873(3) 0.9772(3)
C45_2 C 0.5934(5) 0.0847(4) 0.8757(4)
O11_2 O 0.5011(3) 0.1720(3) 0.9424(3)
C46_2 C 0.6998(5) 0.1402(5) 0.9117(5)
O12_2 O 0.5573(3) 0.2026(3) 0.9835(3)
N14_2 N 0.7262(4) 0.1142(4) 0.9369(4)
C47_2 C 0.6199(3) 0.1552(4) 0.9304(3)
H35_2 H 0.6299 0.1773 0.9505
C48_2 C 0.5418(4) 0.1767(4) 0.9520(5)
C49_2 C 0.5764(4) 0.1485(4) 0.9257(3)
C50_2 C 0.6371(5) 0.0947(4) 0.8839(4)
H36_2 H 0.6588 0.0749 0.8728
C51_2 C 0.5602(5) 0.1122(4) 0.8988(4)
H37_2 H 0.5295 0.1063 0.8961
C52_2 C 0.7725(5) 0.1261(5) 0.9462(5)
H38_2 H 0.7891 0.1290 0.9177
C53_2 C 0.7128(5) 0.0747(6) 0.9593(7)
H39_2 H 0.7047 0.0513 0.9378
H40_2 H 0.6873 0.0804 0.9790
C54_2 C 0.7751(4) 0.1697(5) 0.9714(4)
C55_2 C 0.6511(4) 0.1303(4) 0.9064(3)
O13_2 O 0.7144(2) 0.1734(3) 0.8905(2)
O14_2 O 0.7402(3) 0.1845(3) 0.9908(3)
O15_2 O 0.5364(4) 0.0462(5) 0.8370(3)
O16_2 O 0.6032(6) 0.0162(4) 0.8390(4)
C56_2 C 0.5733(6) 0.0447(6) 0.8499(5)
C57_2 C 0.7905(6) 0.0858(6) 0.9721(9)
H41_2 H 0.8098 0.0676 0.9529
H42_2 H 0.8079 0.0958 0.9980
C58_2 C 0.7536(9) 0.0612(10) 0.9860(9)
H44_2 H 0.7594 0.0292 0.9818
O17_2 O 0.4664(5) 0.0966(4) 0.7854(4)
O18_2 O 0.8750 0.1251(4) 0.8751(4)
Cd8_2 Cd 0.22393(3) 0.00207(3) 0.47813(3)
O36_2 O 0.0228(3) 0.3131(3) 0.3127(3)
C87_2 C 0.1243(4) 0.0934(5) 0.4153(4)
C88_2 C 0.0883(5) 0.1998(5) 0.3598(5)
N17_2 N 0.0631(4) 0.2262(4) 0.3858(4)
C89_2 C 0.0696(3) 0.1199(3) 0.3448(4)
H65_2 H 0.0495 0.1299 0.3227
C90_2 C 0.0480(5) 0.0418(4) 0.3233(4)
C91_2 C 0.0743(3) 0.0764(4) 0.3515(4)
C92_2 C 0.1161(4) 0.1371(5) 0.4053(4)
H66_2 H 0.1272 0.1588 0.4251
C93_2 C 0.1012(4) 0.0602(5) 0.3878(4)
H67_2 H 0.1039 0.0295 0.3937
C94_2 C 0.0538(5) 0.2725(5) 0.3739(5)
H68_2 H 0.0823 0.2891 0.3710
C95_2 C 0.0407(7) 0.2128(5) 0.4253(6)
H69_2 H 0.0622 0.2047 0.4487
H70_2 H 0.0210 0.1873 0.4196
C96_2 C 0.0286(4) 0.2751(4) 0.3303(5)
C97_2 C 0.0936(3) 0.1511(4) 0.3697(4)
O39_2 O 0.1095(2) 0.2144(2) 0.3266(3)
O40_2 O 0.0092(3) 0.2402(3) 0.3155(3)
O41_2 O 0.1630(3) 0.0364(4) 0.4538(5)
O42_2 O 0.1610(4) 0.1032(6) 0.4838(4)
C98_2 C 0.1501(5) 0.0733(6) 0.4553(6)
C99_2 C 0.0279(9) 0.2905(6) 0.4142(6)
H71_2 H 0.0471 0.3098 0.4324
H72_2 H 0.0020 0.3079 0.4042
C100_2 C 0.0140(9) 0.2536(9) 0.4388(10)
H74_2 H 0.0182 0.2594 0.4708
O54_2 O 0.2728(3) 0.0627(3) 0.4369(3)
O56_2 O 0.5627(3) 0.0631(3) 0.7272(3)
N31_2 N 0.9084(3) 0.1396(3) 0.9862(4)
O68_2 O 0.2592(3) 0.0655(3) 0.5098(3)
Cd2_2 Cd 0.68676(6) 0.56324(6) 0.1250
O1_2 O 0.6873(3) 0.5228(3) 0.1869(3)
C1_2 C 0.5172(4) 0.4528(3) 0.0180(3)
H1_2 H 0.5191 0.4305 0.0400
C2_2 C 0.5847(4) 0.6243(4) 0.4066(5)
C3_2 C 0.5482(3) 0.4868(3) 0.0165(3)
C4_2 C 0.6014(5) 0.4559(5) 0.0721(5)
H2_2 H 0.5933 0.4256 0.0691
O2_2 O 0.6720(3) 0.5576(3) 0.4989(3)
N1_2 N 0.6396(3) 0.5138(4) 0.0916(3)
C5_2 C 0.4448(3) 0.8806(3) 0.5800(3)
C6_2 C 0.6402(5) 0.5883(5) 0.3002(5)
O3_2 O 0.7026(3) 0.5165(3) 0.4427(3)
N2_2 N 0.6142(4) 0.5631(4) 0.2738(4)
C7_2 C 0.6552(4) 0.5696(3) 0.3801(3)
H3_2 H 0.6773 0.5495 0.3701
C8_2 C 0.4499(3) 0.9096(3) 0.6165(3)
H4_2 H 0.4725 0.9053 0.6379
C9_2 C 0.6767(4) 0.5480(5) 0.4582(4)
C10_2 C 0.6485(4) 0.5743(3) 0.4236(4)
N3_2 N 0.4739(3) 0.8431(3) 0.5730(3)
N4_2 N 0.5824(3) 0.4904(3) 0.0482(3)
C11_2 C 0.5947(4) 0.6161(4) 0.3629(5)
H5_2 H 0.5749 0.6272 0.3412
C12_2 C 0.4802(4) 0.8157(4) 0.5355(4)
H6_2 H 0.4649 0.8188 0.5082
C13_2 C 0.6337(6) 0.4715(5) 0.1007(6)
H7_2 H 0.6488 0.4549 0.1227
C14_2 C 0.6108(5) 0.5248(4) 0.0591(4)
H8_2 H 0.6101 0.5530 0.0452
C15_2 C 0.6122(4) 0.6012(4) 0.4398(5)
H9_2 H 0.6063 0.6039 0.4705
C16_2 C 0.6261(5) 0.5538(5) 0.2275(5)
H10_2 H 0.6290 0.5823 0.2109
C17_2 C 0.5747(6) 0.5407(7) 0.2872(5)
H11_2 H 0.5513 0.5622 0.2953
H12_2 H 0.5804 0.5210 0.3127
C18_2 C 0.6697(5) 0.5286(4) 0.2249(4)
C19_2 C 0.6303(4) 0.5936(3) 0.3489(4)
O4_2 O 0.6734(3) 0.6095(2) 0.2856(2)
O5_2 O 0.6845(3) 0.5092(3) 0.2598(3)
O6_2 O 0.5462(5) 0.6630(3) 0.4636(4)
O7_2 O 0.5162(4) 0.6610(4) 0.3968(6)
C20_2 C 0.5447(6) 0.6501(5) 0.4267(6)
C21_2 C 0.5024(6) 0.8243(5) 0.6051(5)
H13_2 H 0.5045 0.8319 0.6355
C22_2 C 0.5858(6) 0.5279(9) 0.2095(6)
H14_2 H 0.5676 0.5471 0.1902
H15_2 H 0.5958 0.5020 0.1921
C23_2 C 0.5612(10) 0.5140(9) 0.2464(9)
H16_2 H 0.5665 0.4821 0.2519
H17_2 H 0.5292 0.5182 0.2406
C24_2 C 0.5250(7) 0.7943(7) 0.5841(6)
H18_2 H 0.5501 0.7804 0.5969
N5_2 N 0.5113(3) 0.7843(3) 0.5439(4)
O8_2 O 0.5966(4) 0.7146(4) 0.5336(5)
O9_2 O 0.6251(4) 0.6249(4) 0.1250
N6_2 N 0.4084(3) 0.3604(3) 0.0138(4)
C29_2 C 0.4409(4) 0.3892(5) 0.0248(4)
H22_2 H 0.4548 0.3899 0.0530
C35_2 C 0.4200(3) 0.9448(3) 0.6194(3)
C36_2 C 0.3835(3) 0.9499(3) 0.5904(3)
H27_2 H 0.3621 0.9725 0.5947
N10_2 N 0.4270(3) 0.9739(3) 0.6569(3)
C37_2 C 0.4645(4) 0.9802(4) 0.6843(4)
H28_2 H 0.4918 0.9649 0.6812
C40_2 C 0.3806(3) 0.9200(3) 0.5552(3)
C41_2 C 0.4096(3) 0.8835(3) 0.5501(3)
H31_2 H 0.4053 0.8621 0.5275
N12_2 N 0.3431(3) 0.9270(3) 0.5261(3)
C42_2 C 0.3157(4) 0.9645(4) 0.5198(4)
H32_2 H 0.3188 0.9918 0.5351
C43_2 C 0.3243(5) 0.8949(5) 0.4976(6)
H33_2 H 0.3319 0.8645 0.4955
C44_2 C 0.2943(7) 0.9159(6) 0.4750(7)
H34_2 H 0.2804 0.9031 0.4499
N13_2 N 0.2843(3) 0.9561(4) 0.4887(3)
O27_2 O 0.3750 0.3749(4) 0.1249(4)
O43_2 O 0.2146(4) 0.9664(5) 0.4034(4)
Cd9 Cd 0.72393(3) 0.49793(3) 0.52187(3)
O44_2 O 0.5228(3) 0.1869(3) 0.6873(3)
C101_2 C 0.6243(4) 0.4066(5) 0.5847(4)
C102_2 C 0.5883(5) 0.3002(5) 0.6402(5)
N18_2 N 0.5631(4) 0.2738(4) 0.6142(4)
C103_2 C 0.5696(3) 0.3801(3) 0.6552(4)
H75_2 H 0.5495 0.3701 0.6773
C104_2 C 0.5480(5) 0.4582(4) 0.6767(4)
C105_2 C 0.5743(3) 0.4236(4) 0.6485(4)
C106_2 C 0.6161(4) 0.3629(5) 0.5947(4)
H76_2 H 0.6272 0.3412 0.5749
C107_2 C 0.6012(4) 0.4398(5) 0.6122(4)
H77_2 H 0.6039 0.4705 0.6063
C108_2 C 0.5538(5) 0.2275(5) 0.6261(5)
H78_2 H 0.5823 0.2109 0.6290
C109_2 C 0.5407(7) 0.2872(5) 0.5747(6)
H79_2 H 0.5622 0.2953 0.5513
H80_2 H 0.5210 0.3127 0.5804
C110_2 C 0.5286(4) 0.2249(4) 0.6697(5)
C111_2 C 0.5936(3) 0.3489(4) 0.6303(4)
O47_2 O 0.6095(2) 0.2856(2) 0.6734(3)
O48_2 O 0.5092(3) 0.2598(3) 0.6845(3)
O49_2 O 0.6630(3) 0.4636(4) 0.5462(5)
O50_2 O 0.6610(4) 0.3968(6) 0.5162(4)
C112_2 C 0.6501(5) 0.4267(6) 0.5447(6)
C113_2 C 0.5279(9) 0.2095(6) 0.5858(6)
H81_2 H 0.5471 0.1902 0.5676
H82_2 H 0.5020 0.1921 0.5958
C114_2 C 0.5140(9) 0.2464(9) 0.5612(10)
H83_2 H 0.4821 0.2519 0.5665
H84_2 H 0.5182 0.2406 0.5292
O51_2 O 0.7146(4) 0.5336(5) 0.5966(4)
C115_2 C 0.7972(3) 0.7328(4) 0.2320(3)
H85_2 H 0.8195 0.7309 0.2100
C116_2 C 0.7632(3) 0.7018(3) 0.2335(3)
C117_2 C 0.7941(5) 0.6486(5) 0.1779(5)
H86_2 H 0.8244 0.6567 0.1809
N19_2 N 0.7362(4) 0.6104(3) 0.1584(3)
N20_2 N 0.7596(3) 0.6676(3) 0.2018(3)
C118_2 C 0.7785(5) 0.6163(6) 0.1493(6)
H87_2 H 0.7951 0.6012 0.1273
C119_2 C 0.7252(4) 0.6392(5) 0.1909(4)
H88_2 H 0.6970 0.6399 0.2048
C120_2 C 0.7672(4) 0.7680(3) 0.2972(3)
H89_2 H 0.7691 0.7900 0.3195
C121_2 C 0.7982(3) 0.7665(3) 0.2632(3)
C122_2 C 0.8514(5) 0.8221(5) 0.2941(5)
H90_2 H 0.8433 0.8191 0.3244
N21_2 N 0.8896(3) 0.8416(3) 0.2362(4)
N22_2 N 0.8324(3) 0.7982(3) 0.2596(3)
C123_2 C 0.8837(6) 0.8507(6) 0.2785(5)
H91_2 H 0.8988 0.8727 0.2951
C124_2 C 0.8608(5) 0.8091(4) 0.2252(4)
H92_2 H 0.8601 0.7952 0.1970
C125_2 C 0.7320(3) 0.7028(3) 0.2672(4)
H93_2 H 0.7100 0.6805 0.2691
C126_2 C 0.7335(3) 0.7368(3) 0.2982(3)
C127_2 C 0.6779(5) 0.7059(5) 0.3514(5)
H94_2 H 0.6809 0.6756 0.3433
N24_2 N 0.7018(3) 0.7404(3) 0.3324(3)
C128_2 C 0.6493(6) 0.7215(5) 0.3837(6)
H95_2 H 0.6273 0.7049 0.3988
C129_2 C 0.6909(4) 0.7748(4) 0.3608(5)
H96_2 H 0.7048 0.8030 0.3601
C143_2 C 0.0024(6) 0.6757(5) 0.3949(5)
H107_2 H 0.0045 0.6681 0.3645
C144_2 C 0.0250(7) 0.7057(7) 0.4159(6)
H108_2 H 0.0501 0.7196 0.4031
N30_2 N 0.0113(3) 0.7157(3) 0.4561(4)
Cd16_2 Cd 0.47393(3) 0.22813(3) 0.74793(3)
Cd20_2 Cd 0.74793(3) 0.47393(3) 0.22813(3)
O59_2 O 0.4369(3) 0.2728(3) 0.0627(3)
O61_2 O 0.1720(3) 0.9424(3) 0.5011(3)
N32_2 N 0.3416(3) 0.2638(4) 0.1104(3)
O64_2 O 0.2026(3) 0.9835(3) 0.5573(3)
O67_2 O 0.7592(3) 0.4345(3) 0.4902(3)
O70_2 O 0.5655(3) 0.9902(3) 0.7408(3)
O72_2 O 0.4902(3) 0.7592(3) 0.4345(3)
N35 N 0.7843(3) 0.5439(4) 0.5113(3)
C25_2 C 0.4820(3) 0.4828(4) 0.9528(3)
H19_2 H 0.4600 0.4809 0.9305
C26_2 C 0.4835(3) 0.4518(3) 0.9868(3)
C27_2 C 0.4279(5) 0.3986(5) 0.9559(5)
H20_2 H 0.4309 0.4067 0.9256
N7_2 N 0.4518(3) 0.4176(3) 0.9904(3)
C28_2 C 0.3993(6) 0.3663(6) 0.9715(5)
H21_2 H 0.3773 0.3512 0.9549
C30_2 C 0.5472(3) 0.5180(3) 0.9828(4)
H23_2 H 0.5695 0.5400 0.9809
C31_2 C 0.5132(3) 0.5165(3) 0.9518(3)
C32_2 C 0.5441(5) 0.5721(5) 0.8986(5)
H24_2 H 0.5744 0.5691 0.9067
N8_2 N 0.4862(4) 0.5916(3) 0.8604(3)
N9_2 N 0.5096(3) 0.5482(3) 0.9176(3)
C33_2 C 0.5285(5) 0.6007(6) 0.8663(6)
H25_2 H 0.5451 0.6227 0.8512
C34_2 C 0.4752(4) 0.5591(4) 0.8892(5)
H26_2 H 0.4470 0.5452 0.8899
H73_2 H 0.9821 0.2481 0.4335
Cd15_2 Cd 0.97393(3) 0.27187(3) 0.25207(3)
C130_2 C 0.9200(3) 0.5552(3) 0.3806(3)
C131_2 C 0.8835(3) 0.5501(3) 0.4096(3)
H97_2 H 0.8621 0.5275 0.4053
N25_2 N 0.9270(3) 0.5261(3) 0.3431(3)
C132_2 C 0.9645(4) 0.5198(4) 0.3157(4)
H98_2 H 0.9918 0.5351 0.3188
C133_2 C 0.8949(5) 0.4976(6) 0.3243(5)
H99_2 H 0.8645 0.4955 0.3319
C134_2 C 0.9159(6) 0.4750(7) 0.2943(7)
H100_2 H 0.9031 0.4499 0.2804
C135_2 C 0.8806(3) 0.5800(3) 0.4448(3)
C136_2 C 0.9096(3) 0.6165(3) 0.4499(3)
H101_2 H 0.9053 0.6379 0.4725
N27_2 N 0.8431(3) 0.5730(3) 0.4739(3)
C137_2 C 0.8157(4) 0.5355(4) 0.4802(4)
H102_2 H 0.8188 0.5082 0.4649
C138_2 C 0.8243(5) 0.6051(5) 0.5024(6)
H103_2 H 0.8319 0.6355 0.5045
C139_2 C 0.7943(7) 0.5841(6) 0.5250(7)
H104_2 H 0.7804 0.5969 0.5501
C140_2 C 0.9448(3) 0.6194(3) 0.4200(3)
C141_2 C 0.9499(3) 0.5904(3) 0.3835(3)
H105_2 H 0.9725 0.5947 0.3621
N29_2 N 0.9739(3) 0.6569(3) 0.4270(3)
C142_2 C 0.9802(4) 0.6843(4) 0.4645(4)
H106_2 H 0.9649 0.6812 0.4918
C1_3 C 0.0172(4) 0.0472(3) 0.9820(3)
H1_3 H 0.0191 0.0695 0.9600
C3_3 C 0.0482(3) 0.0132(3) 0.9835(3)
C4_3 C 0.1014(5) 0.0441(5) 0.9279(5)
H2_3 H 0.0933 0.0744 0.9309
N4_3 N 0.0824(3) 0.0096(3) 0.9518(3)
C13_3 C 0.1337(6) 0.0285(5) 0.8993(6)
H7_3 H 0.1488 0.0451 0.8773
H16_3 H 0.0665 0.0179 0.7481
Cd20_3 Cd 0.24793(3) 0.02607(3) 0.77187(3)
C30_3 C 0.0472(3) 0.9820(3) 0.0172(4)
H23_3 H 0.0695 0.9600 0.0191
C31_3 C 0.0132(3) 0.9835(3) 0.0482(3)
C32_3 C 0.0441(5) 0.9279(5) 0.1014(5)
H24_3 H 0.0744 0.9309 0.0933
N9_3 N 0.0096(3) 0.9518(3) 0.0824(3)
C33_3 C 0.0285(5) 0.8993(6) 0.1337(6)
H25_3 H 0.0451 0.8773 0.1488
Cd2_3 Cd 0.18676(6) 0.93676(6) 0.8750
O1_3 O 0.1873(3) 0.9772(3) 0.8131(3)
C2_3 C 0.0847(4) 0.8757(4) 0.5934(5)
N1_3 N 0.1396(3) 0.9862(4) 0.9084(3)
C6_3 C 0.1402(5) 0.9117(5) 0.6998(5)
N2_3 N 0.1142(4) 0.9369(4) 0.7262(4)
C7_3 C 0.1552(4) 0.9304(3) 0.6199(3)
H3_3 H 0.1773 0.9505 0.6299
C9_3 C 0.1767(4) 0.9520(5) 0.5418(4)
C10_3 C 0.1485(4) 0.9257(3) 0.5764(4)
C11_3 C 0.0947(4) 0.8839(4) 0.6371(5)
H5_3 H 0.0749 0.8728 0.6588
C14_3 C 0.1108(5) 0.9752(4) 0.9409(4)
H8_3 H 0.1101 0.9470 0.9548
C15_3 C 0.1122(4) 0.8988(4) 0.5602(5)
H9_3 H 0.1063 0.8961 0.5295
C16_3 C 0.1261(5) 0.9462(5) 0.7725(5)
H10_3 H 0.1290 0.9177 0.7891
C17_3 C 0.0747(6) 0.9593(7) 0.7128(5)
H11_3 H 0.0513 0.9378 0.7047
H12_3 H 0.0804 0.9790 0.6873
C18_3 C 0.1697(5) 0.9714(4) 0.7751(4)
C19_3 C 0.1303(4) 0.9064(3) 0.6511(4)
O4_3 O 0.1734(3) 0.8905(2) 0.7144(2)
O5_3 O 0.1845(3) 0.9908(3) 0.7402(3)
O6_3 O 0.0462(5) 0.8370(3) 0.5364(4)
O7_3 O 0.0162(4) 0.8390(4) 0.6032(6)
C20_3 C 0.0447(6) 0.8499(5) 0.5733(6)
C22_3 C 0.0858(6) 0.9721(9) 0.7905(6)
H14_3 H 0.0676 0.9529 0.8098
H15_3 H 0.0958 0.9980 0.8079
C23_3 C 0.0612(10) 0.9860(9) 0.7536(9)
H17_3 H 0.0292 0.9818 0.7594
O8_3 O 0.0966(4) 0.7854(4) 0.4664(5)
O9_3 O 0.1251(4) 0.8751(4) 0.8750
C115_3 C 0.2972(3) 0.7672(4) 0.7680(3)
H85_3 H 0.3195 0.7691 0.7900
C116_3 C 0.2632(3) 0.7982(3) 0.7665(3)
C117_3 C 0.2941(5) 0.8514(5) 0.8221(5)
H86_3 H 0.3244 0.8433 0.8191
N19_3 N 0.2362(4) 0.8896(3) 0.8416(3)
N20_3 N 0.2596(3) 0.8324(3) 0.7982(3)
C118_3 C 0.2785(5) 0.8837(6) 0.8507(6)
H87_3 H 0.2951 0.8988 0.8727
C119_3 C 0.2252(4) 0.8608(5) 0.8091(4)
H88_3 H 0.1970 0.8601 0.7952
C120_3 C 0.2672(4) 0.7320(3) 0.7028(3)
H89_3 H 0.2691 0.7100 0.6805
C121_3 C 0.2982(3) 0.7335(3) 0.7368(3)
C122_3 C 0.3514(5) 0.6779(5) 0.7059(5)
H90_3 H 0.3433 0.6809 0.6756
N21_3 N 0.3896(3) 0.6584(3) 0.7638(4)
N22_3 N 0.3324(3) 0.7018(3) 0.7404(3)
C123_3 C 0.3837(6) 0.6493(6) 0.7215(5)
H91_3 H 0.3988 0.6273 0.7049
C124_3 C 0.3608(5) 0.6909(4) 0.7748(4)
H92_3 H 0.3601 0.7048 0.8030
C125_3 C 0.2320(3) 0.7972(3) 0.7328(4)
H93_3 H 0.2100 0.8195 0.7309
C126_3 C 0.2335(3) 0.7632(3) 0.7018(3)
C127_3 C 0.1779(5) 0.7941(5) 0.6486(5)
H94_3 H 0.1809 0.8244 0.6567
N24_3 N 0.2018(3) 0.7596(3) 0.6676(3)
C128_3 C 0.1493(6) 0.7785(5) 0.6163(6)
H95_3 H 0.1273 0.7951 0.6012
C129_3 C 0.1909(4) 0.7252(4) 0.6392(5)
H96_3 H 0.2048 0.6970 0.6399
C25_3 C 0.9820(3) 0.0172(4) 0.0472(3)
H19_3 H 0.9600 0.0191 0.0695
C26_3 C 0.9835(3) 0.0482(3) 0.0132(3)
C27_3 C 0.9279(5) 0.1014(5) 0.0441(5)
H20_3 H 0.9309 0.0933 0.0744
N7_3 N 0.9518(3) 0.0824(3) 0.0096(3)
C28_3 C 0.8993(6) 0.1337(6) 0.0285(5)
H21_3 H 0.8773 0.1488 0.0451
C29_3 C 0.9409(4) 0.1108(5) 0.9752(4)
H22_3 H 0.9548 0.1101 0.9470
N8_3 N 0.9862(4) 0.9084(3) 0.1396(3)
C34_3 C 0.9752(4) 0.9409(4) 0.1108(5)
H26_3 H 0.9470 0.9548 0.1101
O72_3 O 0.9902(3) 0.7408(3) 0.5655(3)
Cd2_4 Cd 0.31324(6) 0.06324(6) 0.3750
O1_4 O 0.3127(3) 0.0228(3) 0.3131(3)
C2_4 C 0.4153(4) 0.1243(4) 0.0934(5)
N1_4 N 0.3604(3) 0.0138(4) 0.4084(3)
C6_4 C 0.3598(5) 0.0883(5) 0.1998(5)
N2_4 N 0.3858(4) 0.0631(4) 0.2262(4)
C7_4 C 0.3448(4) 0.0696(3) 0.1199(3)
H3_4 H 0.3227 0.0495 0.1299
C9_4 C 0.3233(4) 0.0480(5) 0.0418(4)
C10_4 C 0.3515(4) 0.0743(3) 0.0764(4)
C11_4 C 0.4053(4) 0.1161(4) 0.1371(5)
H5_4 H 0.4251 0.1272 0.1588
C14_4 C 0.3892(5) 0.0248(4) 0.4409(4)
H8_4 H 0.3899 0.0530 0.4548
C15_4 C 0.3878(4) 0.1012(4) 0.0602(5)
H9_4 H 0.3937 0.1039 0.0295
C16_4 C 0.3739(5) 0.0538(5) 0.2725(5)
H10_4 H 0.3710 0.0823 0.2891
C17_4 C 0.4253(6) 0.0407(7) 0.2128(5)
H11_4 H 0.4487 0.0622 0.2047
H12_4 H 0.4196 0.0210 0.1873
C18_4 C 0.3303(5) 0.0286(4) 0.2751(4)
C19_4 C 0.3697(4) 0.0936(3) 0.1511(4)
O4_4 O 0.3266(3) 0.1095(2) 0.2144(2)
O5_4 O 0.3155(3) 0.0092(3) 0.2402(3)
O6_4 O 0.4538(5) 0.1630(3) 0.0364(4)
O7_4 O 0.4838(4) 0.1610(4) 0.1032(6)
C20_4 C 0.4553(6) 0.1501(5) 0.0733(6)
C22_4 C 0.4142(6) 0.0279(9) 0.2905(6)
H14_4 H 0.4324 0.0471 0.3098
H15_4 H 0.4042 0.0020 0.3079
C23_4 C 0.4388(10) 0.0140(9) 0.2536(9)
H17_4 H 0.4708 0.0182 0.2594
O9_4 O 0.3749(4) 0.1249(4) 0.3750
C30_4 C 0.4528(3) 0.0180(3) 0.5172(4)
H23_4 H 0.4305 0.0400 0.5191
C31_4 C 0.4868(3) 0.0165(3) 0.5482(3)
C32_4 C 0.4559(5) 0.0721(5) 0.6014(5)
H24_4 H 0.4256 0.0691 0.5933
N8_4 N 0.5138(4) 0.0916(3) 0.6396(3)
N9_4 N 0.4904(3) 0.0482(3) 0.5824(3)
C33_4 C 0.4715(5) 0.1007(6) 0.6337(6)
H25_4 H 0.4549 0.1227 0.6488
C34_4 C 0.5248(4) 0.0591(4) 0.6108(5)
H26_4 H 0.5530 0.0452 0.6101
C115_4 C 0.2028(3) 0.2328(4) 0.2680(3)
H85_4 H 0.1805 0.2309 0.2900
C116_4 C 0.2368(3) 0.2018(3) 0.2665(3)
C117_4 C 0.2059(5) 0.1486(5) 0.3221(5)
H86_4 H 0.1756 0.1567 0.3191
N19_4 N 0.2638(4) 0.1104(3) 0.3416(3)
N20_4 N 0.2404(3) 0.1676(3) 0.2982(3)
C118_4 C 0.2215(5) 0.1163(6) 0.3507(6)
H87_4 H 0.2049 0.1012 0.3727
C119_4 C 0.2748(4) 0.1392(5) 0.3091(4)
H88_4 H 0.3030 0.1399 0.2952
C120_4 C 0.2328(4) 0.2680(3) 0.2028(3)
H89_4 H 0.2309 0.2900 0.1805
C121_4 C 0.2018(3) 0.2665(3) 0.2368(3)
C122_4 C 0.1486(5) 0.3221(5) 0.2059(5)
H90_4 H 0.1567 0.3191 0.1756
N21_4 N 0.1104(3) 0.3416(3) 0.2638(4)
N22_4 N 0.1676(3) 0.2982(3) 0.2404(3)
C123_4 C 0.1163(6) 0.3507(6) 0.2215(5)
H91_4 H 0.1012 0.3727 0.2049
C124_4 C 0.1392(5) 0.3091(4) 0.2748(4)
H92_4 H 0.1399 0.2952 0.3030
C125_4 C 0.2680(3) 0.2028(3) 0.2328(4)
H93_4 H 0.2900 0.1805 0.2309
C126_4 C 0.2665(3) 0.2368(3) 0.2018(3)
C127_4 C 0.3221(5) 0.2059(5) 0.1486(5)
H94_4 H 0.3191 0.1756 0.1567
N24_4 N 0.2982(3) 0.2404(3) 0.1676(3)
C128_4 C 0.3507(6) 0.2215(5) 0.1163(6)
H95_4 H 0.3727 0.2049 0.1012
C129_4 C 0.3091(4) 0.2748(4) 0.1392(5)
H96_4 H 0.2952 0.3030 0.1399
O72_4 O 0.5098(3) 0.2592(3) 0.0655(3)
O8_4 O 0.4034(4) 0.2146(4) 0.9664(5)
C1_4 C 0.4828(4) 0.9528(3) 0.4820(3)
H1_4 H 0.4809 0.9305 0.4600
C3_4 C 0.4518(3) 0.9868(3) 0.4835(3)
C4_4 C 0.3986(5) 0.9559(5) 0.4279(5)
H2_4 H 0.4067 0.9256 0.4309
N4_4 N 0.4176(3) 0.9904(3) 0.4518(3)
C13_4 C 0.3663(6) 0.9715(5) 0.3993(6)
H7_4 H 0.3512 0.9549 0.3773
H16_4 H 0.4335 0.9821 0.2481
C25_4 C 0.5180(3) 0.9828(4) 0.5472(3)
H19_4 H 0.5400 0.9809 0.5695
C26_4 C 0.5165(3) 0.9518(3) 0.5132(3)
C27_4 C 0.5721(5) 0.8986(5) 0.5441(5)
H20_4 H 0.5691 0.9067 0.5744
N7_4 N 0.5482(3) 0.9176(3) 0.5096(3)
C28_4 C 0.6007(6) 0.8663(6) 0.5285(5)
H21_4 H 0.6227 0.8512 0.5451
C29_4 C 0.5591(4) 0.8892(5) 0.4752(4)
H22_4 H 0.5452 0.8899 0.4470
Cd20_4 Cd 0.25207(3) 0.97393(3) 0.27187(3)
O18_3 O 0.3751(4) 0.6250 0.8749(4)
O27_3 O 0.6249(4) 0.1250 0.6251(4)
O18_4 O 0.8751(4) 0.8750 0.1251(4)
O27_4 O 0.1249(4) 0.3750 0.3749(4)
C108_3 C 0.0225(5) 0.6962(5) 0.6239(5)
H78_3 H 0.0391 0.6677 0.6210
C110_3 C 0.0251(4) 0.7214(4) 0.5803(5)
C113_3 C 0.0405(6) 0.7221(9) 0.6642(6)
H81_3 H 0.0598 0.7029 0.6824
H82_3 H 0.0579 0.7480 0.6542
C114_3 C 0.0036(9) 0.7360(9) 0.6888(10)
H84_3 H 0.0094 0.7318 0.7208
C59_2 C 0.8347(4) 0.1566(5) 0.1257(4)
O20_2 O 0.9220(3) 0.2489(3) 0.1924(3)
C60_2 C 0.8902(5) 0.0502(5) 0.1617(5)
O21_2 O 0.9526(3) 0.1927(3) 0.2335(3)
N15_2 N 0.8642(4) 0.0238(4) 0.1869(4)
C61_2 C 0.9052(4) 0.1301(3) 0.1804(3)
H45_2 H 0.9273 0.1201 0.2005
C62_2 C 0.9267(4) 0.2082(4) 0.2020(5)
C63_2 C 0.8985(4) 0.1736(4) 0.1757(3)
C64_2 C 0.8447(4) 0.1129(5) 0.1339(4)
H46_2 H 0.8249 0.0912 0.1228
C65_2 C 0.8622(4) 0.1898(5) 0.1488(4)
H47_2 H 0.8563 0.2205 0.1461
C67_2 C 0.8247(6) 0.0372(5) 0.2093(7)
H49_2 H 0.8013 0.0453 0.1878
H50_2 H 0.8304 0.0627 0.2290
C69_2 C 0.8803(4) 0.0989(4) 0.1564(3)
O22_2 O 0.9234(3) 0.0356(2) 0.1405(2)
O24_2 O 0.7962(5) 0.2136(4) 0.0870(3)
O25_2 O 0.7662(4) 0.1468(6) 0.0890(4)
C70_2 C 0.7947(6) 0.1767(6) 0.0999(5)
H53_2 H 0.8165 0.0019 0.2679
O26_2 O 0.8466(4) 0.2836(5) 0.0354(4)
O62_2 O 0.7489(3) 0.3076(3) 0.0780(3)
O65_2 O 0.6927(3) 0.2665(3) 0.0474(3)
C80_2 C 0.6239(5) 0.0225(5) 0.6962(5)
H58_2 H 0.6210 0.0391 0.6677
C82_2 C 0.5803(5) 0.0251(4) 0.7214(4)
C85_2 C 0.6642(6) 0.0405(6) 0.7221(9)
H61_2 H 0.6824 0.0598 0.7029
H62_2 H 0.6542 0.0579 0.7480
C86_2 C 0.6888(10) 0.0036(9) 0.7360(9)
H64_2 H 0.7208 0.0094 0.7318
C87_3 C 0.1566(5) 0.1257(4) 0.8347(4)
O37_2 O 0.2489(3) 0.1924(3) 0.9220(3)
C88_3 C 0.0502(5) 0.1617(5) 0.8902(5)
O38_2 O 0.1927(3) 0.2335(3) 0.9526(3)
N17_3 N 0.0238(4) 0.1869(4) 0.8642(4)
C89_3 C 0.1301(3) 0.1804(3) 0.9052(4)
H65_3 H 0.1201 0.2005 0.9273
C90_3 C 0.2082(4) 0.2020(5) 0.9267(4)
C91_3 C 0.1736(4) 0.1757(3) 0.8985(4)
C92_3 C 0.1129(5) 0.1339(4) 0.8447(4)
H66_3 H 0.0912 0.1228 0.8249
C93_3 C 0.1898(5) 0.1488(4) 0.8622(4)
H67_3 H 0.2205 0.1461 0.8563
C95_3 C 0.0372(5) 0.2093(7) 0.8247(6)
H69_3 H 0.0453 0.1878 0.8013
H70_3 H 0.0627 0.2290 0.8304
C97_3 C 0.0989(4) 0.1564(3) 0.8803(4)
O39_3 O 0.0356(2) 0.1405(2) 0.9234(3)
O41_3 O 0.2136(4) 0.0870(3) 0.7962(5)
O42_3 O 0.1468(6) 0.0890(4) 0.7662(4)
C98_3 C 0.1767(6) 0.0999(5) 0.7947(6)
H73_3 H 0.0019 0.2679 0.8165
O43_3 O 0.2836(5) 0.0354(4) 0.8466(4)
C130_3 C 0.6948(3) 0.3300(3) 0.8694(3)
C131_3 C 0.6999(3) 0.3665(3) 0.8404(3)
H97_3 H 0.7225 0.3879 0.8447
N25_3 N 0.7239(3) 0.3230(3) 0.9069(3)
C132_3 C 0.7302(4) 0.2855(4) 0.9343(4)
H98_3 H 0.7149 0.2582 0.9312
C133_3 C 0.7524(6) 0.3551(5) 0.9257(5)
H99_3 H 0.7545 0.3855 0.9181
C134_3 C 0.7750(7) 0.3341(6) 0.9557(7)
H100_3 H 0.8001 0.3469 0.9696
N26_2 N 0.7613(3) 0.2939(4) 0.9657(3)
C135_3 C 0.6700(3) 0.3694(3) 0.8052(3)
C136_3 C 0.6335(3) 0.3404(3) 0.8001(3)
H101_3 H 0.6121 0.3447 0.7775
N27_3 N 0.6770(3) 0.4069(3) 0.7761(3)
C137_3 C 0.7145(4) 0.4343(4) 0.7698(4)
H102_3 H 0.7418 0.4312 0.7851
C138_3 C 0.6449(5) 0.4257(5) 0.7476(6)
H103_3 H 0.6145 0.4181 0.7455
C139_3 C 0.6659(6) 0.4557(7) 0.7250(7)
H104_3 H 0.6531 0.4696 0.6999
N28_2 N 0.7061(4) 0.4657(3) 0.7387(3)
C140_3 C 0.6306(3) 0.3052(3) 0.8300(3)
C141_3 C 0.6596(3) 0.3001(3) 0.8665(3)
H105_3 H 0.6553 0.2775 0.8879
N29_3 N 0.5931(3) 0.2761(3) 0.8230(3)
C142_3 C 0.5657(4) 0.2698(4) 0.7855(4)
H106_3 H 0.5688 0.2851 0.7582
C143_3 C 0.5743(5) 0.2476(6) 0.8551(5)
H107_3 H 0.5819 0.2455 0.8855
C144_3 C 0.5443(7) 0.2250(7) 0.8341(6)
H108_3 H 0.5304 0.1999 0.8469
N30_3 N 0.5343(3) 0.2387(3) 0.7939(4)
O61_3 O 0.3076(3) 0.0780(3) 0.7489(3)
O64_3 O 0.2665(3) 0.0474(3) 0.6927(3)
C16_5 C 0.6962(5) 0.6239(5) 0.0225(5)
H10_5 H 0.6677 0.6210 0.0391
C18_5 C 0.7214(4) 0.5803(5) 0.0251(4)
C22_5 C 0.7221(9) 0.6642(6) 0.0405(6)
H14_5 H 0.7029 0.6824 0.0598
H15_5 H 0.7480 0.6542 0.0579
C23_5 C 0.7360(9) 0.6888(10) 0.0036(9)
H17_5 H 0.7318 0.7208 0.0094
C66_2 C 0.8761(5) 0.9775(5) 0.1962(5)
H48_2 H 0.8790 0.9609 0.1677
C68_2 C 0.9197(5) 0.9749(4) 0.2214(4)
C71_2 C 0.8358(6) 0.9595(6) 0.2221(9)
H51_2 H 0.8176 0.9402 0.2029
H52_2 H 0.8458 0.9421 0.2480
C72_2 C 0.8112(10) 0.9964(9) 0.2360(9)
H54_2 H 0.7792 0.9906 0.2318
C2_5 C 0.6257(4) 0.6653(4) 0.8434(5)
O2_3 O 0.6924(3) 0.5780(3) 0.7511(3)
C5_3 C 0.3694(3) 0.8052(3) 0.6700(3)
C6_5 C 0.6617(5) 0.6098(5) 0.9498(5)
O3_3 O 0.7335(3) 0.5474(3) 0.8073(3)
N2_5 N 0.6869(4) 0.6358(4) 0.9762(4)
C7_5 C 0.6804(3) 0.5948(4) 0.8699(3)
H3_5 H 0.7005 0.5727 0.8799
C8_3 C 0.3404(3) 0.8001(3) 0.6335(3)
H4_3 H 0.3447 0.7775 0.6121
C9_5 C 0.7020(5) 0.5733(4) 0.7918(4)
C10_5 C 0.6757(3) 0.6015(4) 0.8264(4)
N3_3 N 0.4069(3) 0.7761(3) 0.6770(3)
C11_5 C 0.6339(4) 0.6553(4) 0.8871(5)
H5_5 H 0.6228 0.6751 0.9088
C12_3 C 0.4343(4) 0.7698(4) 0.7145(4)
H6_3 H 0.4312 0.7851 0.7418
C15_5 C 0.6488(4) 0.6378(4) 0.8102(5)
H9_5 H 0.6461 0.6437 0.7795
C17_5 C 0.7093(7) 0.6753(6) 0.9628(5)
H11_5 H 0.6878 0.6987 0.9547
H12_5 H 0.7290 0.6696 0.9373
C19_5 C 0.6564(3) 0.6197(4) 0.9011(4)
O4_5 O 0.6405(2) 0.5766(3) 0.9644(2)
O6_5 O 0.5870(3) 0.7038(5) 0.7864(4)
O7_5 O 0.5890(4) 0.7338(4) 0.8532(6)
C20_5 C 0.5999(5) 0.7053(6) 0.8233(6)
C21_3 C 0.4257(5) 0.7476(6) 0.6449(5)
H13_3 H 0.4181 0.7455 0.6145
H16_5 H 0.7679 0.6835 0.9981
C24_3 C 0.4557(7) 0.7250(7) 0.6659(6)
H18_3 H 0.4696 0.6999 0.6531
N5_3 N 0.4657(3) 0.7387(3) 0.7061(4)
O8_5 O 0.5354(4) 0.6534(4) 0.7164(5)
C35_3 C 0.3052(3) 0.8300(3) 0.6306(3)
C36_3 C 0.3001(3) 0.8665(3) 0.6596(3)
H27_3 H 0.2775 0.8879 0.6553
N10_3 N 0.2761(3) 0.8230(3) 0.5931(3)
C37_3 C 0.2698(4) 0.7855(4) 0.5657(4)
H28_3 H 0.2851 0.7582 0.5688
C38_3 C 0.2476(6) 0.8551(5) 0.5743(5)
H29_3 H 0.2455 0.8855 0.5819
C39_3 C 0.2250(7) 0.8341(6) 0.5443(7)
H30_3 H 0.1999 0.8469 0.5304
N11_3 N 0.2387(3) 0.7939(4) 0.5343(3)
C40_3 C 0.3300(3) 0.8694(3) 0.6948(3)
C41_3 C 0.3665(3) 0.8404(3) 0.6999(3)
H31_3 H 0.3879 0.8447 0.7225
N12_3 N 0.3230(3) 0.9069(3) 0.7239(3)
C42_3 C 0.2855(4) 0.9343(4) 0.7302(4)
H32_3 H 0.2582 0.9312 0.7149
C43_3 C 0.3551(5) 0.9257(5) 0.7524(6)
H33_3 H 0.3855 0.9181 0.7545
C44_3 C 0.3341(6) 0.9557(7) 0.7750(7)
H34_3 H 0.3469 0.9696 0.8001
N13_3 N 0.2939(4) 0.9657(3) 0.7613(3)
C45_3 C 0.1653(4) 0.6566(5) 0.3743(4)
O11_3 O 0.0780(3) 0.7489(3) 0.3076(3)
C46_3 C 0.1098(5) 0.5502(5) 0.3383(5)
O12_3 O 0.0474(3) 0.6927(3) 0.2665(3)
N14_3 N 0.1358(4) 0.5238(4) 0.3131(4)
C47_3 C 0.0948(4) 0.6301(3) 0.3196(3)
H35_3 H 0.0727 0.6201 0.2995
C48_3 C 0.0733(4) 0.7082(4) 0.2980(5)
C49_3 C 0.1015(4) 0.6736(4) 0.3243(3)
C50_3 C 0.1553(4) 0.6129(5) 0.3661(4)
H36_3 H 0.1751 0.5912 0.3772
C51_3 C 0.1378(4) 0.6898(5) 0.3512(4)
H37_3 H 0.1437 0.7205 0.3539
C52_3 C 0.1239(5) 0.4775(5) 0.3038(5)
H38_3 H 0.1210 0.4609 0.3323
C53_3 C 0.1753(6) 0.5372(5) 0.2907(7)
H39_3 H 0.1987 0.5453 0.3122
H40_3 H 0.1696 0.5627 0.2710
C54_3 C 0.0803(5) 0.4749(4) 0.2786(4)
C55_3 C 0.1197(4) 0.5989(4) 0.3436(3)
O13_3 O 0.0766(3) 0.5356(2) 0.3595(2)
O15_3 O 0.2038(5) 0.7136(4) 0.4130(3)
O16_3 O 0.2338(4) 0.6468(6) 0.4110(4)
C56_3 C 0.2053(6) 0.6767(6) 0.4001(5)
C57_3 C 0.1642(6) 0.4595(6) 0.2779(9)
H41_3 H 0.1824 0.4402 0.2971
H42_3 H 0.1542 0.4421 0.2520
C58_3 C 0.1888(10) 0.4964(9) 0.2640(9)
H43_3 H 0.1835 0.5019 0.2321
H44_3 H 0.2208 0.4906 0.2682
O17_3 O 0.1534(4) 0.7836(5) 0.4646(4)
C73_2 C 0.6653(4) 0.8434(5) 0.6257(4)
O29_2 O 0.5780(3) 0.7511(3) 0.6924(3)
C74_2 C 0.6098(5) 0.9498(5) 0.6617(5)
O30_2 O 0.5474(3) 0.8073(3) 0.7335(3)
N16_2 N 0.6358(4) 0.9762(4) 0.6869(4)
C75_2 C 0.5948(4) 0.8699(3) 0.6804(3)
H55_2 H 0.5727 0.8799 0.7005
C76_2 C 0.5733(4) 0.7918(4) 0.7020(5)
C77_2 C 0.6015(4) 0.8264(4) 0.6757(3)
C78_2 C 0.6553(4) 0.8871(5) 0.6339(4)
H56_2 H 0.6751 0.9088 0.6228
C79_2 C 0.6378(4) 0.8102(5) 0.6488(4)
H57_2 H 0.6437 0.7795 0.6461
C81_2 C 0.6753(6) 0.9628(5) 0.7093(7)
H59_2 H 0.6987 0.9547 0.6878
H60_2 H 0.6696 0.9373 0.7290
C83_2 C 0.6197(4) 0.9011(4) 0.6564(3)
O31_2 O 0.5766(3) 0.9644(2) 0.6405(2)
O33_2 O 0.7038(5) 0.7864(4) 0.5870(3)
O34_2 O 0.7338(4) 0.8532(6) 0.5890(4)
C84_2 C 0.7053(6) 0.8233(6) 0.5999(5)
H63_2 H 0.6835 0.9981 0.7679
O35_2 O 0.6534(4) 0.7164(5) 0.5354(4)
C101_3 C 0.8434(5) 0.6257(4) 0.6653(4)
O45_2 O 0.7511(3) 0.6924(3) 0.5780(3)
C102_3 C 0.9498(5) 0.6617(5) 0.6098(5)
O46_2 O 0.8073(3) 0.7335(3) 0.5474(3)
N18_3 N 0.9762(4) 0.6869(4) 0.6358(4)
C103_3 C 0.8699(3) 0.6804(3) 0.5948(4)
H75_3 H 0.8799 0.7005 0.5727
C104_3 C 0.7918(4) 0.7020(5) 0.5733(4)
C105_3 C 0.8264(4) 0.6757(3) 0.6015(4)
C106_3 C 0.8871(5) 0.6339(4) 0.6553(4)
H76_3 H 0.9088 0.6228 0.6751
C107_3 C 0.8102(5) 0.6488(4) 0.6378(4)
H77_3 H 0.7795 0.6461 0.6437
C109_3 C 0.9628(5) 0.7093(7) 0.6753(6)
H79_3 H 0.9547 0.6878 0.6987
H80_3 H 0.9373 0.7290 0.6696
C111_3 C 0.9011(4) 0.6564(3) 0.6197(4)
O47_3 O 0.9644(2) 0.6405(2) 0.5766(3)
O49_3 O 0.7864(4) 0.5870(3) 0.7038(5)
O50_3 O 0.8532(6) 0.5890(4) 0.7338(4)
C112_3 C 0.8233(6) 0.5999(5) 0.7053(6)
H83_3 H 0.9981 0.7679 0.6835
O51_3 O 0.7164(5) 0.5354(4) 0.6534(4)
O63_2 O 0.2511(3) 0.8076(3) 0.4220(3)
O66_2 O 0.3073(3) 0.7665(3) 0.4526(3)
N34_2 N 0.7387(3) 0.7061(4) 0.4657(3)
C94_3 C 0.9775(5) 0.1962(5) 0.8761(5)
H68_3 H 0.9609 0.1677 0.8790
C96_3 C 0.9749(4) 0.2214(4) 0.9197(5)
C99_3 C 0.9595(6) 0.2221(9) 0.8358(6)
H71_3 H 0.9402 0.2029 0.8176
H72_3 H 0.9421 0.2480 0.8458
C100_3 C 0.9964(9) 0.2360(9) 0.8112(10)
H74_3 H 0.9906 0.2318 0.7792
C5_4 C 0.1306(3) 0.1948(3) 0.1700(3)
C8_4 C 0.1596(3) 0.1999(3) 0.1335(3)
H4_4 H 0.1553 0.2225 0.1121
N3_4 N 0.0931(3) 0.2239(3) 0.1770(3)
C12_4 C 0.0657(4) 0.2302(4) 0.2145(4)
H6_4 H 0.0688 0.2149 0.2418
C21_4 C 0.0743(5) 0.2524(6) 0.1449(5)
H13_4 H 0.0819 0.2545 0.1145
C24_4 C 0.0443(7) 0.2750(7) 0.1659(6)
H18_4 H 0.0304 0.3001 0.1531
N5_4 N 0.0343(3) 0.2613(3) 0.2061(4)
C35_4 C 0.1948(3) 0.1700(3) 0.1306(3)
C36_4 C 0.1999(3) 0.1335(3) 0.1596(3)
H27_4 H 0.2225 0.1121 0.1553
N10_4 N 0.2239(3) 0.1770(3) 0.0931(3)
C37_4 C 0.2302(4) 0.2145(4) 0.0657(4)
H28_4 H 0.2149 0.2418 0.0688
C38_4 C 0.2524(6) 0.1449(5) 0.0743(5)
H29_4 H 0.2545 0.1145 0.0819
C39_4 C 0.2750(7) 0.1659(6) 0.0443(7)
H30_4 H 0.3001 0.1531 0.0304
N11_4 N 0.2613(3) 0.2061(4) 0.0343(3)
C40_4 C 0.1700(3) 0.1306(3) 0.1948(3)
C41_4 C 0.1335(3) 0.1596(3) 0.1999(3)
H31_4 H 0.1121 0.1553 0.2225
N12_4 N 0.1770(3) 0.0931(3) 0.2239(3)
C42_4 C 0.2145(4) 0.0657(4) 0.2302(4)
H32_4 H 0.2418 0.0688 0.2149
C43_4 C 0.1449(5) 0.0743(5) 0.2524(6)
H33_4 H 0.1145 0.0819 0.2545
C44_4 C 0.1659(6) 0.0443(7) 0.2750(7)
H34_4 H 0.1531 0.0304 0.3001
N13_4 N 0.2061(4) 0.0343(3) 0.2613(3)
C45_4 C 0.3347(4) 0.3434(5) 0.8743(4)
O11_4 O 0.4220(3) 0.2511(3) 0.8076(3)
C46_4 C 0.3902(5) 0.4498(5) 0.8383(5)
O12_4 O 0.4526(3) 0.3073(3) 0.7665(3)
N14_4 N 0.3642(4) 0.4762(4) 0.8131(4)
C47_4 C 0.4052(4) 0.3699(3) 0.8196(3)
H35_4 H 0.4273 0.3799 0.7995
C48_4 C 0.4267(4) 0.2918(4) 0.7980(5)
C49_4 C 0.3985(4) 0.3264(4) 0.8243(3)
C50_4 C 0.3447(4) 0.3871(5) 0.8661(4)
H36_4 H 0.3249 0.4088 0.8772
C51_4 C 0.3622(4) 0.3102(5) 0.8512(4)
H37_4 H 0.3563 0.2795 0.8539
C52_4 C 0.3761(5) 0.5225(5) 0.8038(5)
H38_4 H 0.3790 0.5391 0.8323
C53_4 C 0.3247(6) 0.4628(5) 0.7907(7)
H39_4 H 0.3013 0.4547 0.8122
H40_4 H 0.3304 0.4373 0.7710
C54_4 C 0.4197(5) 0.5251(4) 0.7786(4)
C55_4 C 0.3803(4) 0.4011(4) 0.8436(3)
O13_4 O 0.4234(3) 0.4644(2) 0.8595(2)
O15_4 O 0.2962(5) 0.2864(4) 0.9130(3)
O16_4 O 0.2662(4) 0.3532(6) 0.9110(4)
C56_4 C 0.2947(6) 0.3233(6) 0.9001(5)
C57_4 C 0.3358(6) 0.5405(6) 0.7779(9)
H41_4 H 0.3176 0.5598 0.7971
H42_4 H 0.3458 0.5579 0.7520
C58_4 C 0.3112(10) 0.5036(9) 0.7640(9)
H43_4 H 0.3165 0.4981 0.7321
H44_4 H 0.2792 0.5094 0.7682
O17_4 O 0.3466(4) 0.2164(5) 0.9646(4)
C87_4 C 0.3434(5) 0.8743(4) 0.3347(4)
C88_4 C 0.4498(5) 0.8383(5) 0.3902(5)
N17_4 N 0.4762(4) 0.8131(4) 0.3642(4)
C89_4 C 0.3699(3) 0.8196(3) 0.4052(4)
H65_4 H 0.3799 0.7995 0.4273
C90_4 C 0.2918(4) 0.7980(5) 0.4267(4)
C91_4 C 0.3264(4) 0.8243(3) 0.3985(4)
C92_4 C 0.3871(5) 0.8661(4) 0.3447(4)
H66_4 H 0.4088 0.8772 0.3249
C93_4 C 0.3102(5) 0.8512(4) 0.3622(4)
H67_4 H 0.2795 0.8539 0.3563
C94_4 C 0.5225(5) 0.8038(5) 0.3761(5)
H68_4 H 0.5391 0.8323 0.3790
C95_4 C 0.4628(5) 0.7907(7) 0.3247(6)
H69_4 H 0.4547 0.8122 0.3013
H70_4 H 0.4373 0.7710 0.3304
C96_4 C 0.5251(4) 0.7786(4) 0.4197(5)
C97_4 C 0.4011(4) 0.8436(3) 0.3803(4)
O39_4 O 0.4644(2) 0.8595(2) 0.4234(3)
O41_4 O 0.2864(4) 0.9130(3) 0.2962(5)
O42_4 O 0.3532(6) 0.9110(4) 0.2662(4)
C98_4 C 0.3233(6) 0.9001(5) 0.2947(6)
C99_4 C 0.5405(6) 0.7779(9) 0.3358(6)
H71_4 H 0.5598 0.7971 0.3176
H72_4 H 0.5579 0.7520 0.3458
C100_4 C 0.5036(9) 0.7640(9) 0.3112(10)
H73_4 H 0.4981 0.7321 0.3165
H74_4 H 0.5094 0.7682 0.2792
O43_4 O 0.2164(5) 0.9646(4) 0.3466(4)
O61_4 O 0.1924(3) 0.9220(3) 0.2489(3)
O64_4 O 0.2335(3) 0.9526(3) 0.1927(3)
C2_6 C 0.8743(4) 0.3347(4) 0.3434(5)
O2_4 O 0.8076(3) 0.4220(3) 0.2511(3)
C6_6 C 0.8383(5) 0.3902(5) 0.4498(5)
O3_4 O 0.7665(3) 0.4526(3) 0.3073(3)
N2_6 N 0.8131(4) 0.3642(4) 0.4762(4)
C7_6 C 0.8196(3) 0.4052(4) 0.3699(3)
H3_6 H 0.7995 0.4273 0.3799
C9_6 C 0.7980(5) 0.4267(4) 0.2918(4)
C10_6 C 0.8243(3) 0.3985(4) 0.3264(4)
C11_6 C 0.8661(4) 0.3447(4) 0.3871(5)
H5_6 H 0.8772 0.3249 0.4088
C15_6 C 0.8512(4) 0.3622(4) 0.3102(5)
H9_6 H 0.8539 0.3563 0.2795
C16_6 C 0.8038(5) 0.3761(5) 0.5225(5)
H10_6 H 0.8323 0.3790 0.5391
C17_6 C 0.7907(7) 0.3247(6) 0.4628(5)
H11_6 H 0.8122 0.3013 0.4547
H12_6 H 0.7710 0.3304 0.4373
C18_6 C 0.7786(4) 0.4197(5) 0.5251(4)
C19_6 C 0.8436(3) 0.3803(4) 0.4011(4)
O4_6 O 0.8595(2) 0.4234(3) 0.4644(2)
O6_6 O 0.9130(3) 0.2962(5) 0.2864(4)
O7_6 O 0.9110(4) 0.2662(4) 0.3532(6)
C20_6 C 0.9001(5) 0.2947(6) 0.3233(6)
C22_6 C 0.7779(9) 0.3358(6) 0.5405(6)
H14_6 H 0.7971 0.3176 0.5598
H15_6 H 0.7520 0.3458 0.5579
C23_6 C 0.7640(9) 0.3112(10) 0.5036(9)
H16_6 H 0.7321 0.3165 0.4981
H17_6 H 0.7682 0.2792 0.5094
O8_6 O 0.9646(4) 0.3466(4) 0.2164(5)
C101_4 C 0.6566(5) 0.3743(4) 0.1653(4)
C102_4 C 0.5502(5) 0.3383(5) 0.1098(5)
N18_4 N 0.5238(4) 0.3131(4) 0.1358(4)
C103_4 C 0.6301(3) 0.3196(3) 0.0948(4)
H75_4 H 0.6201 0.2995 0.0727
C104_4 C 0.7082(4) 0.2980(5) 0.0733(4)
C105_4 C 0.6736(4) 0.3243(3) 0.1015(4)
C106_4 C 0.6129(5) 0.3661(4) 0.1553(4)
H76_4 H 0.5912 0.3772 0.1751
C107_4 C 0.6898(5) 0.3512(4) 0.1378(4)
H77_4 H 0.7205 0.3539 0.1437
C108_4 C 0.4775(5) 0.3038(5) 0.1239(5)
H78_4 H 0.4609 0.3323 0.1210
C109_4 C 0.5372(5) 0.2907(7) 0.1753(6)
H79_4 H 0.5453 0.3122 0.1987
H80_4 H 0.5627 0.2710 0.1696
C110_4 C 0.4749(4) 0.2786(4) 0.0803(5)
C111_4 C 0.5989(4) 0.3436(3) 0.1197(4)
O47_4 O 0.5356(2) 0.3595(2) 0.0766(3)
O49_4 O 0.7136(4) 0.4130(3) 0.2038(5)
O50_4 O 0.6468(6) 0.4110(4) 0.2338(4)
C112_4 C 0.6767(6) 0.4001(5) 0.2053(6)
C113_4 C 0.4595(6) 0.2779(9) 0.1642(6)
H81_4 H 0.4402 0.2971 0.1824
H82_4 H 0.4421 0.2520 0.1542
C114_4 C 0.4964(9) 0.2640(9) 0.1888(10)
H83_4 H 0.5019 0.2321 0.1835
H84_4 H 0.4906 0.2682 0.2208
O51_4 O 0.7836(5) 0.4646(4) 0.1534(4)
N35_2 N 0.7939(4) 0.5343(3) 0.2387(3)
C130_4 C 0.8052(3) 0.6700(3) 0.3694(3)
C131_4 C 0.8001(3) 0.6335(3) 0.3404(3)
H97_4 H 0.7775 0.6121 0.3447
N25_4 N 0.7761(3) 0.6770(3) 0.4069(3)
C132_4 C 0.7698(4) 0.7145(4) 0.4343(4)
H98_4 H 0.7851 0.7418 0.4312
C133_4 C 0.7476(6) 0.6449(5) 0.4257(5)
H99_4 H 0.7455 0.6145 0.4181
C134_4 C 0.7250(7) 0.6659(6) 0.4557(7)
H100_4 H 0.6999 0.6531 0.4696
C135_4 C 0.8300(3) 0.6306(3) 0.3052(3)
C136_4 C 0.8665(3) 0.6596(3) 0.3001(3)
H101_4 H 0.8879 0.6553 0.2775
N27_4 N 0.8230(3) 0.5931(3) 0.2761(3)
C137_4 C 0.7855(4) 0.5657(4) 0.2698(4)
H102_4 H 0.7582 0.5688 0.2851
C138_4 C 0.8551(5) 0.5743(5) 0.2476(6)
H103_4 H 0.8855 0.5819 0.2455
C139_4 C 0.8341(6) 0.5443(7) 0.2250(7)
H104_4 H 0.8469 0.5304 0.1999
C140_4 C 0.8694(3) 0.6948(3) 0.3300(3)
C141_4 C 0.8404(3) 0.6999(3) 0.3665(3)
H105_4 H 0.8447 0.7225 0.3879
N29_4 N 0.9069(3) 0.7239(3) 0.3230(3)
C142_4 C 0.9343(4) 0.7302(4) 0.2855(4)
H106_4 H 0.9312 0.7149 0.2582
C143_4 C 0.9257(5) 0.7524(6) 0.3551(5)
H107_4 H 0.9181 0.7545 0.3855
C144_4 C 0.9557(7) 0.7750(7) 0.3341(6)
H108_4 H 0.9696 0.8001 0.3469
N30_4 N 0.9657(3) 0.7613(3) 0.2939(4)
C2_7 C 0.1257(4) 0.8347(4) 0.1566(5)
C6_7 C 0.1617(5) 0.8902(5) 0.0502(5)
N2_7 N 0.1869(4) 0.8642(4) 0.0238(4)
C7_7 C 0.1804(3) 0.9052(4) 0.1301(3)
H3_7 H 0.2005 0.9273 0.1201
C9_7 C 0.2020(5) 0.9267(4) 0.2082(4)
C10_7 C 0.1757(3) 0.8985(4) 0.1736(4)
C11_7 C 0.1339(4) 0.8447(4) 0.1129(5)
H5_7 H 0.1228 0.8249 0.0912
C15_7 C 0.1488(4) 0.8622(4) 0.1898(5)
H9_7 H 0.1461 0.8563 0.2205
C17_7 C 0.2093(7) 0.8247(6) 0.0372(5)
H11_7 H 0.1878 0.8013 0.0453
H12_7 H 0.2290 0.8304 0.0627
C19_7 C 0.1564(3) 0.8803(4) 0.0989(4)
O4_7 O 0.1405(2) 0.9234(3) 0.0356(2)
O6_7 O 0.0870(3) 0.7962(5) 0.2136(4)
O7_7 O 0.0890(4) 0.7662(4) 0.1468(6)
C20_7 C 0.0999(5) 0.7947(6) 0.1767(6)
H16_7 H 0.2679 0.8165 0.0019
O8_7 O 0.0354(4) 0.8466(4) 0.2836(5)
C16_7 C 0.1962(5) 0.8761(5) 0.9775(5)
H10_7 H 0.1677 0.8790 0.9609
C18_7 C 0.2214(4) 0.9197(5) 0.9749(4)
C22_7 C 0.2221(9) 0.8358(6) 0.9595(6)
H14_7 H 0.2029 0.8176 0.9402
H15_7 H 0.2480 0.8458 0.9421
C23_7 C 0.2360(9) 0.8112(10) 0.9964(9)
H17_7 H 0.2318 0.7792 0.9906
C2_8 C 0.3743(4) 0.1653(4) 0.6566(5)
C6_8 C 0.3383(5) 0.1098(5) 0.5502(5)
N2_8 N 0.3131(4) 0.1358(4) 0.5238(4)
C7_8 C 0.3196(3) 0.0948(4) 0.6301(3)
H3_8 H 0.2995 0.0727 0.6201
C9_8 C 0.2980(5) 0.0733(4) 0.7082(4)
C10_8 C 0.3243(3) 0.1015(4) 0.6736(4)
C11_8 C 0.3661(4) 0.1553(4) 0.6129(5)
H5_8 H 0.3772 0.1751 0.5912
C15_8 C 0.3512(4) 0.1378(4) 0.6898(5)
H9_8 H 0.3539 0.1437 0.7205
C16_8 C 0.3038(5) 0.1239(5) 0.4775(5)
H10_8 H 0.3323 0.1210 0.4609
C17_8 C 0.2907(7) 0.1753(6) 0.5372(5)
H11_8 H 0.3122 0.1987 0.5453
H12_8 H 0.2710 0.1696 0.5627
C18_8 C 0.2786(4) 0.0803(5) 0.4749(4)
C19_8 C 0.3436(3) 0.1197(4) 0.5989(4)
O4_8 O 0.3595(2) 0.0766(3) 0.5356(2)
O6_8 O 0.4130(3) 0.2038(5) 0.7136(4)
O7_8 O 0.4110(4) 0.2338(4) 0.6468(6)
C20_8 C 0.4001(5) 0.2053(6) 0.6767(6)
C22_8 C 0.2779(9) 0.1642(6) 0.4595(6)
H14_8 H 0.2971 0.1824 0.4402
H15_8 H 0.2520 0.1542 0.4421
C23_8 C 0.2640(9) 0.1888(10) 0.4964(9)
H16_8 H 0.2321 0.1835 0.5019
H17_8 H 0.2682 0.2208 0.4906
O8_8 O 0.4646(4) 0.1534(4) 0.7836(5)
loop_
_geom_bond_atom_site_label_1
_geom_bond_atom_site_label_2
_geom_bond_site_symmetry_1
_geom_bond_site_symmetry_2
C5 C8 1_555 1_555
C8 H4 1_555 1_555
N3 C5 1_555 1_555
C12 N3 1_555 1_555
H6 C12 1_555 1_555
C35 C8 1_555 1_555
C36 C35 1_555 1_555
H27 C36 1_555 1_555
N10 C35 1_555 1_555
C37 N10 1_555 1_555
H28 C37 1_555 1_555
C40 C36 1_555 1_555
C41 C5 1_555 1_555
H31 C41 1_555 1_555
N12 C40 1_555 1_555
C42 N12 1_555 1_555
H32 C42 1_555 1_555
Cd7 O33 1_555 1_555
O28 C82 1_555 1_555
C73 C78 1_555 1_555
C74 N16 1_555 1_555
N16 C80 1_555 1_555
C75 H55 1_555 1_555
C76 O29 1_555 1_555
C77 C75 1_555 1_555
C78 H56 1_555 1_555
C79 C73 1_555 1_555
H57 C79 1_555 1_555
C80 H58 1_555 1_555
C81 N16 1_555 1_555
H59 C81 1_555 1_555
H60 C81 1_555 1_555
C82 C80 1_555 1_555
C83 C74 1_555 1_555
O31 C74 1_555 1_555
O32 C82 1_555 1_555
O33 C84 1_555 1_555
O34 C84 1_555 1_555
C84 C73 1_555 1_555
C85 C80 1_555 1_555
H61 C85 1_555 1_555
H62 C85 1_555 1_555
C86 C81 1_555 1_555
H64 C86 1_555 1_555
H103 C138 1_555 1_555
C139 C138 1_555 1_555
H104 C139 1_555 1_555
Cd14 N28 1_555 1_555
Cd22 O28 1_555 1_555
O55 Cd7 1_555 1_555
O69 Cd7 1_555 1_555
C40 C41 1_555 1_555
O30 C76 1_555 1_555
C75 C83 1_555 1_555
C76 C77 1_555 1_555
C77 C79 1_555 1_555
C78 C83 1_555 1_555
C85 C86 1_555 1_555
C139 N28 1_555 1_555
C25 H19 1_555 1_555
C27 H20 1_555 1_555
N6 C28 1_555 1_555
N7 C26 1_555 1_555
C28 C27 1_555 1_555
H21 C28 1_555 1_555
C29 N6 1_555 1_555
H22 C29 1_555 1_555
C34 N8 1_555 1_555
H26 C34 1_555 1_555
H33 C43 1_555 1_555
C44 C43 1_555 1_555
H34 C44 1_555 1_555
Cd5 O24 1_555 1_555
Cd6 N6 1_555 1_555
O19 Cd6 1_555 1_555
C59 C64 1_555 1_555
O20 C62 1_555 1_555
C60 N15 1_555 1_555
O21 C62 1_555 1_555
N15 C66 1_555 1_555
C61 H45 1_555 1_555
C62 C63 1_555 1_555
C63 C61 1_555 1_555
C64 H46 1_555 1_555
C65 C59 1_555 1_555
H47 C65 1_555 1_555
C66 H48 1_555 1_555
C67 N15 1_555 1_555
H49 C67 1_555 1_555
H50 C67 1_555 1_555
C68 O19 1_555 1_555
C69 C60 1_555 1_555
O22 C60 1_555 1_555
O23 C68 1_555 1_555
O24 C70 1_555 1_555
O25 C70 1_555 1_555
C70 C59 1_555 1_555
C71 C66 1_555 1_555
H51 C71 1_555 1_555
H52 C71 1_555 1_555
C72 C67 1_555 1_555
H53 C72 1_555 1_555
H54 C72 1_555 1_555
O26 Cd5 1_555 1_555
O27 Cd6 1_555 1_555
C130 C131 1_555 1_555
C131 H97 1_555 1_555
N25 C130 1_555 1_555
C132 N25 1_555 1_555
H98 C132 1_555 1_555
C133 N25 1_555 1_555
H99 C133 1_555 1_555
C134 C133 1_555 1_555
H100 C134 1_555 1_555
N26 Cd5 1_555 1_555
C135 C131 1_555 1_555
C136 C135 1_555 1_555
H101 C136 1_555 1_555
N27 C135 1_555 1_555
C137 N27 1_555 1_555
H102 C137 1_555 1_555
C140 C136 1_555 1_555
C141 C130 1_555 1_555
H105 C141 1_555 1_555
N29 C140 1_555 1_555
C142 N29 1_555 1_555
H106 C142 1_555 1_555
C143 N29 1_555 1_555
H107 C143 1_555 1_555
C144 C143 1_555 1_555
H108 C144 1_555 1_555
N30 C142 1_555 1_555
Cd10 O20 1_555 1_555
Cd17 O19 1_555 1_555
Cd26 N8 1_555 1_555
O57 Cd5 1_555 1_555
O59 Cd6 1_555 1_555
O62 Cd5 1_555 1_555
N32 Cd6 1_555 1_555
O65 Cd5 1_555 1_555
O71 Cd5 1_555 1_555
C25 C26 1_555 1_555
C27 N7 1_555 1_555
N7 C29 1_555 1_555
C44 N13 1_555 1_555
O21 Cd10 1_555 1_555
C61 C69 1_555 1_555
C63 C65 1_555 1_555
C64 C69 1_555 1_555
C66 C68 1_555 1_555
O23 Cd17 1_555 1_555
C71 C72 1_555 1_555
C132 N26 1_555 1_555
C134 N26 1_555 1_555
C140 C141 1_555 1_555
C144 N30 1_555 1_555
H29 C38 1_555 1_555
C39 C38 1_555 1_555
H30 C39 1_555 1_555
C39 N11 1_555 1_555
O36 C96 1_555 1_555
C87 C92 1_555 1_555
O37 C90 1_555 1_555
C88 N17 1_555 1_555
O38 C90 1_555 1_555
N17 C94 1_555 1_555
C89 H65 1_555 1_555
C90 C91 1_555 1_555
C91 C89 1_555 1_555
C92 H66 1_555 1_555
C93 C87 1_555 1_555
H67 C93 1_555 1_555
C94 H68 1_555 1_555
C95 N17 1_555 1_555
H69 C95 1_555 1_555
H70 C95 1_555 1_555
C96 C94 1_555 1_555
C97 C88 1_555 1_555
O39 C88 1_555 1_555
O40 C96 1_555 1_555
O41 Cd8 1_555 1_555
O42 C98 1_555 1_555
C98 C87 1_555 1_555
C99 C94 1_555 1_555
H71 C99 1_555 1_555
H72 C99 1_555 1_555
C100 C95 1_555 1_555
H73 C100 1_555 1_555
H74 C100 1_555 1_555
Cd15 O36 1_555 1_555
Cd23 O36 1_555 1_555
O54 Cd8 1_555 1_555
C89 C97 1_555 1_555
C91 C93 1_555 1_555
C92 C97 1_555 1_555
O40 Cd15 1_555 1_555
O41 C98 1_555 1_555
C99 C100 1_555 1_555
H13 C21 1_555 1_555
C24 C21 1_555 1_555
H18 C24 1_555 1_555
O44 C110 1_555 1_555
C101 C106 1_555 1_555
C102 N18 1_555 1_555
N18 C108 1_555 1_555
C103 H75 1_555 1_555
C104 O45 1_555 1_555
C105 C103 1_555 1_555
C106 H76 1_555 1_555
C107 C101 1_555 1_555
H77 C107 1_555 1_555
C108 H78 1_555 1_555
C109 N18 1_555 1_555
H79 C109 1_555 1_555
H80 C109 1_555 1_555
C110 C108 1_555 1_555
C111 C102 1_555 1_555
O47 C102 1_555 1_555
O48 C110 1_555 1_555
O49 Cd14 1_555 1_555
O50 C112 1_555 1_555
C112 C101 1_555 1_555
C113 C108 1_555 1_555
H81 C113 1_555 1_555
H82 C113 1_555 1_555
C114 C109 1_555 1_555
H84 C114 1_555 1_555
O51 Cd14 1_555 1_555
Cd25 O44 1_555 1_555
O52 Cd14 1_555 1_555
C24 N5 1_555 1_555
O46 C104 1_555 1_555
C103 C111 1_555 1_555
C104 C105 1_555 1_555
C105 C107 1_555 1_555
C106 C111 1_555 1_555
O49 C112 1_555 1_555
C113 C114 1_555 1_555
Cd1 O6 1_555 1_555
Cd2 O1 1_555 1_555
O1 C18 1_555 1_555
C1 H1 1_555 1_555
C2 C11 1_555 1_555
C3 C1 1_555 1_555
C4 H2 1_555 1_555
O2 C9 1_555 1_555
N1 Cd2 1_555 1_555
C6 N2 1_555 1_555
O3 C9 1_555 1_555
N2 C16 1_555 1_555
C7 H3 1_555 1_555
C9 C10 1_555 1_555
C10 C7 1_555 1_555
N4 C3 1_555 1_555
C11 H5 1_555 1_555
C13 C4 1_555 1_555
H7 C13 1_555 1_555
C14 N1 1_555 1_555
H8 C14 1_555 1_555
C15 C2 1_555 1_555
H9 C15 1_555 1_555
C16 H10 1_555 1_555
C17 N2 1_555 1_555
H11 C17 1_555 1_555
H12 C17 1_555 1_555
C18 C16 1_555 1_555
C19 C6 1_555 1_555
O4 C6 1_555 1_555
O5 C18 1_555 1_555
O6 C20 1_555 1_555
O7 C20 1_555 1_555
C20 C2 1_555 1_555
C22 C16 1_555 1_555
H14 C22 1_555 1_555
H15 C22 1_555 1_555
C23 C17 1_555 1_555
H16 C23 1_555 1_555
H17 C23 1_555 1_555
O9 Cd2 1_555 1_555
C30 C3 1_555 1_555
H23 C30 1_555 1_555
C32 H24 1_555 1_555
N9 C31 1_555 1_555
C33 C32 1_555 1_555
H25 C33 1_555 1_555
C115 H85 1_555 1_555
C116 C115 1_555 1_555
C117 H86 1_555 1_555
N19 Cd2 1_555 1_555
N20 C116 1_555 1_555
C118 C117 1_555 1_555
H87 C118 1_555 1_555
C119 N19 1_555 1_555
H88 C119 1_555 1_555
C120 H89 1_555 1_555
C121 C115 1_555 1_555
C122 H90 1_555 1_555
N21 C123 1_555 1_555
N22 C121 1_555 1_555
C123 C122 1_555 1_555
H91 C123 1_555 1_555
C124 N21 1_555 1_555
H92 C124 1_555 1_555
C125 C116 1_555 1_555
H93 C125 1_555 1_555
C126 C120 1_555 1_555
C127 H94 1_555 1_555
N23 C128 1_555 1_555
N24 C126 1_555 1_555
C128 C127 1_555 1_555
H95 C128 1_555 1_555
C129 N23 1_555 1_555
H96 C129 1_555 1_555
Cd20 O1 1_555 1_555
Cd21 N23 1_555 1_555
Cd24 N21 1_555 1_555
O53 Cd2 1_555 1_555
O58 Cd1 1_555 1_555
C4 N4 1_555 1_555
N1 C13 1_555 1_555
C7 C19 1_555 1_555
C10 C15 1_555 1_555
N4 C14 1_555 1_555
C11 C19 1_555 1_555
O5 Cd20 1_555 1_555
C22 C23 1_555 1_555
C30 C31 1_555 1_555
C32 N9 1_555 1_555
C117 N20 1_555 1_555
N19 C118 1_555 1_555
N20 C119 1_555 1_555
C120 C121 1_555 1_555
C122 N22 1_555 1_555
N22 C124 1_555 1_555
C125 C126 1_555 1_555
C127 N24 1_555 1_555
N24 C129 1_555 1_555
Cd21 O58 1_555 1_555
Cd4 O10 1_555 1_555
O10 C54 1_555 1_555
C45 C50 1_555 1_555
O11 C48 1_555 1_555
C46 N14 1_555 1_555
O12 C48 1_555 1_555
N14 C52 1_555 1_555
C47 H35 1_555 1_555
C48 C49 1_555 1_555
C49 C47 1_555 1_555
C50 H36 1_555 1_555
C51 C45 1_555 1_555
H37 C51 1_555 1_555
C52 H38 1_555 1_555
C53 N14 1_555 1_555
H39 C53 1_555 1_555
H40 C53 1_555 1_555
C54 C52 1_555 1_555
C55 C46 1_555 1_555
O13 C46 1_555 1_555
O14 C54 1_555 1_555
O15 Cd3 1_555 1_555
O16 C56 1_555 1_555
C56 C45 1_555 1_555
C57 C52 1_555 1_555
H41 C57 1_555 1_555
H42 C57 1_555 1_555
C58 C53 1_555 1_555
H43 C58 1_555 1_555
H44 C58 1_555 1_555
O18 Cd4 1_555 1_555
Cd19 O10 1_555 1_555
O56 Cd3 1_555 1_555
O60 Cd4 1_555 1_555
N31 Cd4 1_555 1_555
N33 Cd4 1_555 1_555
C47 C55 1_555 1_555
C49 C51 1_555 1_555
C50 C55 1_555 1_555
O14 Cd19 1_555 1_555
O15 C56 1_555 1_555
C57 C58 1_555 1_555
H29_2 C38_2 1_555 1_555
C39_2 C38_2 1_555 1_555
H30_2 C39_2 1_555 1_555
Cd13 N11_2 1_555 1_555
Cd21 O10_2 1_555 1_555
O10_2 C54_2 1_555 1_555
C45_2 C50_2 1_555 1_555
O11_2 C48_2 1_555 1_555
C46_2 N14_2 1_555 1_555
O12_2 C48_2 1_555 1_555
N14_2 C52_2 1_555 1_555
C47_2 H35_2 1_555 1_555
C48_2 C49_2 1_555 1_555
C49_2 C47_2 1_555 1_555
C50_2 H36_2 1_555 1_555
C51_2 C45_2 1_555 1_555
H37_2 C51_2 1_555 1_555
C52_2 H38_2 1_555 1_555
C53_2 N14_2 1_555 1_555
H39_2 C53_2 1_555 1_555
H40_2 C53_2 1_555 1_555
C54_2 C52_2 1_555 1_555
C55_2 C46_2 1_555 1_555
O13_2 C46_2 1_555 1_555
O14_2 C54_2 1_555 1_555
O15_2 Cd13 1_555 1_555
O16_2 C56_2 1_555 1_555
C56_2 C45_2 1_555 1_555
C57_2 C52_2 1_555 1_555
H41_2 C57_2 1_555 1_555
H42_2 C57_2 1_555 1_555
C58_2 C53_2 1_555 1_555
H44_2 C58_2 1_555 1_555
O17_2 Cd13 1_555 1_555
O18_2 Cd21 1_555 1_555
O36_2 C96_2 1_555 1_555
C87_2 C92_2 1_555 1_555
O63 C90_2 1_555 1_555
C88_2 N17_2 1_555 1_555
O66 C90_2 1_555 1_555
N17_2 C94_2 1_555 1_555
C89_2 H65_2 1_555 1_555
C90_2 C91_2 1_555 1_555
C91_2 C89_2 1_555 1_555
C92_2 H66_2 1_555 1_555
C93_2 C87_2 1_555 1_555
H67_2 C93_2 1_555 1_555
C94_2 H68_2 1_555 1_555
C95_2 N17_2 1_555 1_555
H69_2 C95_2 1_555 1_555
H70_2 C95_2 1_555 1_555
C96_2 C94_2 1_555 1_555
C97_2 C88_2 1_555 1_555
O39_2 C88_2 1_555 1_555
O40_2 C96_2 1_555 1_555
O41_2 Cd8_2 1_555 1_555
O42_2 C98_2 1_555 1_555
C98_2 C87_2 1_555 1_555
C99_2 C94_2 1_555 1_555
H71_2 C99_2 1_555 1_555
H72_2 C99_2 1_555 1_555
C100_2 C95_2 1_555 1_555
H74_2 C100_2 1_555 1_555
Cd26 O36_2 1_555 1_555
O54_2 Cd8_2 1_555 1_555
O56_2 Cd13 1_555 1_555
N31_2 Cd21 1_555 1_555
O68_2 Cd8_2 1_555 1_555
C39_2 N11_2 1_555 1_555
C47_2 C55_2 1_555 1_555
C49_2 C51_2 1_555 1_555
C50_2 C55_2 1_555 1_555
O15_2 C56_2 1_555 1_555
C57_2 C58_2 1_555 1_555
C89_2 C97_2 1_555 1_555
C91_2 C93_2 1_555 1_555
C92_2 C97_2 1_555 1_555
O41_2 C98_2 1_555 1_555
C99_2 C100_2 1_555 1_555
Cd10 O6_2 1_555 1_555
Cd2_2 O1_2 1_555 1_555
O1_2 C18_2 1_555 1_555
C1_2 H1_2 1_555 1_555
C2_2 C11_2 1_555 1_555
C3_2 C1_2 1_555 1_555
C4_2 H2_2 1_555 1_555
O2_2 C9_2 1_555 1_555
N1_2 Cd2_2 1_555 1_555
C5_2 C8_2 1_555 1_555
C6_2 N2_2 1_555 1_555
O3_2 C9_2 1_555 1_555
N2_2 C16_2 1_555 1_555
C7_2 H3_2 1_555 1_555
C8_2 H4_2 1_555 1_555
C9_2 C10_2 1_555 1_555
C10_2 C7_2 1_555 1_555
N3_2 C5_2 1_555 1_555
N4_2 C3_2 1_555 1_555
C11_2 H5_2 1_555 1_555
C12_2 N3_2 1_555 1_555
H6_2 C12_2 1_555 1_555
C13_2 C4_2 1_555 1_555
H7_2 C13_2 1_555 1_555
C14_2 N1_2 1_555 1_555
H8_2 C14_2 1_555 1_555
C15_2 C2_2 1_555 1_555
H9_2 C15_2 1_555 1_555
C16_2 H10_2 1_555 1_555
C17_2 N2_2 1_555 1_555
H11_2 C17_2 1_555 1_555
H12_2 C17_2 1_555 1_555
C18_2 C16_2 1_555 1_555
C19_2 C6_2 1_555 1_555
O4_2 C6_2 1_555 1_555
O5_2 C18_2 1_555 1_555
O6_2 C20_2 1_555 1_555
O7_2 C20_2 1_555 1_555
C20_2 C2_2 1_555 1_555
C21_2 N3_2 1_555 1_555
H13_2 C21_2 1_555 1_555
C22_2 C16_2 1_555 1_555
H14_2 C22_2 1_555 1_555
H15_2 C22_2 1_555 1_555
C23_2 C17_2 1_555 1_555
H16_2 C23_2 1_555 1_555
H17_2 C23_2 1_555 1_555
C24_2 C21_2 1_555 1_555
H18_2 C24_2 1_555 1_555
N5_2 Cd10 1_555 1_555
O8_2 Cd10 1_555 1_555
O9_2 Cd2_2 1_555 1_555
C29_2 N6_2 1_555 1_555
H22_2 C29_2 1_555 1_555
C35_2 C8_2 1_555 1_555
C36_2 C35_2 1_555 1_555
H27_2 C36_2 1_555 1_555
N10_2 C35_2 1_555 1_555
C37_2 N10_2 1_555 1_555
H28_2 C37_2 1_555 1_555
C40_2 C36_2 1_555 1_555
C41_2 C5_2 1_555 1_555
H31_2 C41_2 1_555 1_555
N12_2 C40_2 1_555 1_555
C42_2 N12_2 1_555 1_555
H32_2 C42_2 1_555 1_555
C43_2 N12_2 1_555 1_555
H33_2 C43_2 1_555 1_555
C44_2 C43_2 1_555 1_555
H34_2 C44_2 1_555 1_555
N13_2 C42_2 1_555 1_555
Cd22 N6_2 1_555 1_555
O27_2 Cd22 1_555 1_555
Cd9 O2_2 1_555 1_555
O44_2 C110_2 1_555 1_555
C101_2 C106_2 1_555 1_555
C102_2 N18_2 1_555 1_555
N18_2 C108_2 1_555 1_555
C103_2 H75_2 1_555 1_555
C104_2 O62 1_555 1_555
C105_2 C103_2 1_555 1_555
C106_2 H76_2 1_555 1_555
C107_2 C101_2 1_555 1_555
H77_2 C107_2 1_555 1_555
C108_2 H78_2 1_555 1_555
C109_2 N18_2 1_555 1_555
H79_2 C109_2 1_555 1_555
H80_2 C109_2 1_555 1_555
C110_2 C108_2 1_555 1_555
C111_2 C102_2 1_555 1_555
O47_2 C102_2 1_555 1_555
O48_2 C110_2 1_555 1_555
O49_2 Cd9 1_555 1_555
O50_2 C112_2 1_555 1_555
C112_2 C101_2 1_555 1_555
C113_2 C108_2 1_555 1_555
H81_2 C113_2 1_555 1_555
H82_2 C113_2 1_555 1_555
C114_2 C109_2 1_555 1_555
H83_2 C114_2 1_555 1_555
H84_2 C114_2 1_555 1_555
O51_2 Cd9 1_555 1_555
C115_2 H85_2 1_555 1_555
C116_2 C115_2 1_555 1_555
C117_2 H86_2 1_555 1_555
N19_2 Cd2_2 1_555 1_555
N20_2 C116_2 1_555 1_555
C118_2 C117_2 1_555 1_555
H87_2 C118_2 1_555 1_555
C119_2 N19_2 1_555 1_555
H88_2 C119_2 1_555 1_555
C120_2 H89_2 1_555 1_555
C121_2 C115_2 1_555 1_555
C122_2 H90_2 1_555 1_555
N21_2 C123_2 1_555 1_555
N22_2 C121_2 1_555 1_555
C123_2 C122_2 1_555 1_555
H91_2 C123_2 1_555 1_555
C124_2 N21_2 1_555 1_555
H92_2 C124_2 1_555 1_555
C125_2 C116_2 1_555 1_555
H93_2 C125_2 1_555 1_555
C126_2 C120_2 1_555 1_555
C127_2 H94_2 1_555 1_555
N33 C128_2 1_555 1_555
N24_2 C126_2 1_555 1_555
C128_2 C127_2 1_555 1_555
H95_2 C128_2 1_555 1_555
C129_2 N33 1_555 1_555
H96_2 C129_2 1_555 1_555
H107_2 C143_2 1_555 1_555
C144_2 C143_2 1_555 1_555
H108_2 C144_2 1_555 1_555
Cd11 N30_2 1_555 1_555
Cd16_2 O44_2 1_555 1_555
Cd20_2 O1_2 1_555 1_555
Cd25 N21_2 1_555 1_555
Cd24 O44_2 1_555 1_555
O53 Cd9 1_555 1_555
O52 Cd2_2 1_555 1_555
O60 Cd10 1_555 1_555
O59_2 Cd22 1_555 1_555
N32_2 Cd22 1_555 1_555
O67_2 Cd9 1_555 1_555
O72_2 Cd10 1_555 1_555
N35 Cd9 1_555 1_555
C4_2 N4_2 1_555 1_555
N1_2 C13_2 1_555 1_555
O3_2 Cd9 1_555 1_555
C7_2 C19_2 1_555 1_555
C10_2 C15_2 1_555 1_555
N4_2 C14_2 1_555 1_555
C11_2 C19_2 1_555 1_555
C12_2 N5_2 1_555 1_555
O5_2 Cd20_2 1_555 1_555
C22_2 C23_2 1_555 1_555
C24_2 N5_2 1_555 1_555
C40_2 C41_2 1_555 1_555
C44_2 N13_2 1_555 1_555
O65 C104_2 1_555 1_555
C103_2 C111_2 1_555 1_555
C104_2 C105_2 1_555 1_555
C105_2 C107_2 1_555 1_555
C106_2 C111_2 1_555 1_555
O48_2 Cd16_2 1_555 1_555
O49_2 C112_2 1_555 1_555
C113_2 C114_2 1_555 1_555
C117_2 N20_2 1_555 1_555
N19_2 C118_2 1_555 1_555
N20_2 C119_2 1_555 1_555
C120_2 C121_2 1_555 1_555
C122_2 N22_2 1_555 1_555
N22_2 C124_2 1_555 1_555
C125_2 C126_2 1_555 1_555
C127_2 N24_2 1_555 1_555
N24_2 C129_2 1_555 1_555
C144_2 N30_2 1_555 1_555
C25_2 H19_2 1_555 1_555
C27_2 H20_2 1_555 1_555
N7_2 C26_2 1_555 1_555
C28_2 C27_2 1_555 1_555
H21_2 C28_2 1_555 1_555
H23_2 C30_2 1_555 1_555
C31_2 C25_2 1_555 1_555
C32_2 H24_2 1_555 1_555
N8_2 C33_2 1_555 1_555
N9_2 C31_2 1_555 1_555
C33_2 C32_2 1_555 1_555
H25_2 C33_2 1_555 1_555
C34_2 N8_2 1_555 1_555
H26_2 C34_2 1_555 1_555
Cd23 N8_2 1_555 1_555
C25_2 C26_2 1_555 1_555
C27_2 N7_2 1_555 1_555
C30_2 C31_2 1_555 1_555
C32_2 N9_2 1_555 1_555
N9_2 C34_2 1_555 1_555
C130_2 C131_2 1_555 1_555
C131_2 H97_2 1_555 1_555
N25_2 C130_2 1_555 1_555
C132_2 N25_2 1_555 1_555
H98_2 C132_2 1_555 1_555
C133_2 N25_2 1_555 1_555
H99_2 C133_2 1_555 1_555
C134_2 C133_2 1_555 1_555
H100_2 C134_2 1_555 1_555
C135_2 C131_2 1_555 1_555
C136_2 C135_2 1_555 1_555
H101_2 C136_2 1_555 1_555
N27_2 C135_2 1_555 1_555
C137_2 N27_2 1_555 1_555
H102_2 C137_2 1_555 1_555
C138_2 N27_2 1_555 1_555
H103_2 C138_2 1_555 1_555
C139_2 C138_2 1_555 1_555
H104_2 C139_2 1_555 1_555
N35 C137_2 1_555 1_555
C140_2 C136_2 1_555 1_555
C141_2 C130_2 1_555 1_555
H105_2 C141_2 1_555 1_555
N29_2 C140_2 1_555 1_555
C142_2 N29_2 1_555 1_555
H106_2 C142_2 1_555 1_555
C132_2 N34 1_555 1_555
C134_2 N34 1_555 1_555
C139_2 N35 1_555 1_555
C140_2 C141_2 1_555 1_555
C1_3 H1_3 1_555 1_555
C3_3 C1_3 1_555 1_555
C4_3 H2_3 1_555 1_555
N4_3 C3_3 1_555 1_555
C13_3 C4_3 1_555 1_555
H7_3 C13_3 1_555 1_555
C4_3 N4_3 1_555 1_555
H23_3 C30_3 1_555 1_555
C32_3 H24_3 1_555 1_555
N9_3 C31_3 1_555 1_555
C33_3 C32_3 1_555 1_555
H25_3 C33_3 1_555 1_555
C30_3 C31_3 1_555 1_555
C32_3 N9_3 1_555 1_555
Cd11 O6_3 1_555 1_555
Cd2_3 O1_3 1_555 1_555
O1_3 C18_3 1_555 1_555
C2_3 C11_3 1_555 1_555
O61_2 C9_3 1_555 1_555
N1_3 Cd2_3 1_555 1_555
C6_3 N2_3 1_555 1_555
O64_2 C9_3 1_555 1_555
N2_3 C16_3 1_555 1_555
C7_3 H3_3 1_555 1_555
C9_3 C10_3 1_555 1_555
C10_3 C7_3 1_555 1_555
C11_3 H5_3 1_555 1_555
C14_3 N1_3 1_555 1_555
H8_3 C14_3 1_555 1_555
C15_3 C2_3 1_555 1_555
H9_3 C15_3 1_555 1_555
C16_3 H10_3 1_555 1_555
C17_3 N2_3 1_555 1_555
H11_3 C17_3 1_555 1_555
H12_3 C17_3 1_555 1_555
C18_3 C16_3 1_555 1_555
C19_3 C6_3 1_555 1_555
O4_3 C6_3 1_555 1_555
O5_3 C18_3 1_555 1_555
O6_3 C20_3 1_555 1_555
O7_3 C20_3 1_555 1_555
C20_3 C2_3 1_555 1_555
C22_3 C16_3 1_555 1_555
H14_3 C22_3 1_555 1_555
H15_3 C22_3 1_555 1_555
C23_3 C17_3 1_555 1_555
H17_3 C23_3 1_555 1_555
O8_3 Cd11 1_555 1_555
O9_3 Cd2_3 1_555 1_555
C115_3 H85_3 1_555 1_555
C116_3 C115_3 1_555 1_555
C117_3 H86_3 1_555 1_555
N19_3 Cd2_3 1_555 1_555
N20_3 C116_3 1_555 1_555
C118_3 C117_3 1_555 1_555
H87_3 C118_3 1_555 1_555
C119_3 N19_3 1_555 1_555
H88_3 C119_3 1_555 1_555
C120_3 H89_3 1_555 1_555
C121_3 C115_3 1_555 1_555
C122_3 H90_3 1_555 1_555
N21_3 C123_3 1_555 1_555
N22_3 C121_3 1_555 1_555
C123_3 C122_3 1_555 1_555
H91_3 C123_3 1_555 1_555
C124_3 N21_3 1_555 1_555
H92_3 C124_3 1_555 1_555
C125_3 C116_3 1_555 1_555
H93_3 C125_3 1_555 1_555
C126_3 C120_3 1_555 1_555
C127_3 H94_3 1_555 1_555
N32 C128_3 1_555 1_555
N24_3 C126_3 1_555 1_555
C128_3 C127_3 1_555 1_555
H95_3 C128_3 1_555 1_555
C129_3 N32 1_555 1_555
H96_3 C129_3 1_555 1_555
Cd23 N21_3 1_555 1_555
O54 Cd2_3 1_555 1_555
O59 Cd11 1_555 1_555
C7_3 C19_3 1_555 1_555
C10_3 C15_3 1_555 1_555
C11_3 C19_3 1_555 1_555
C22_3 C23_3 1_555 1_555
C117_3 N20_3 1_555 1_555
N19_3 C118_3 1_555 1_555
N20_3 C119_3 1_555 1_555
C120_3 C121_3 1_555 1_555
C122_3 N22_3 1_555 1_555
N22_3 C124_3 1_555 1_555
C125_3 C126_3 1_555 1_555
C127_3 N24_3 1_555 1_555
N24_3 C129_3 1_555 1_555
C25_3 H19_3 1_555 1_555
C27_3 H20_3 1_555 1_555
N7_3 C26_3 1_555 1_555
C28_3 C27_3 1_555 1_555
H21_3 C28_3 1_555 1_555
C25_3 C26_3 1_555 1_555
C27_3 N7_3 1_555 1_555
C29_3 N31_2 1_555 1_555
H22_3 C29_3 1_555 1_555
C34_3 N8_3 1_555 1_555
H26_3 C34_3 1_555 1_555
Cd25 N8_3 1_555 1_555
Cd12 O6_4 1_555 1_555
Cd2_4 O1_4 1_555 1_555
O1_4 C18_4 1_555 1_555
C2_4 C11_4 1_555 1_555
O61 C9_4 1_555 1_555
N1_4 Cd2_4 1_555 1_555
C6_4 N2_4 1_555 1_555
O64 C9_4 1_555 1_555
N2_4 C16_4 1_555 1_555
C7_4 H3_4 1_555 1_555
C9_4 C10_4 1_555 1_555
C10_4 C7_4 1_555 1_555
C11_4 H5_4 1_555 1_555
C14_4 N1_4 1_555 1_555
H8_4 C14_4 1_555 1_555
C15_4 C2_4 1_555 1_555
H9_4 C15_4 1_555 1_555
C16_4 H10_4 1_555 1_555
C17_4 N2_4 1_555 1_555
H11_4 C17_4 1_555 1_555
H12_4 C17_4 1_555 1_555
C18_4 C16_4 1_555 1_555
C19_4 C6_4 1_555 1_555
O4_4 C6_4 1_555 1_555
O5_4 C18_4 1_555 1_555
O6_4 C20_4 1_555 1_555
O7_4 C20_4 1_555 1_555
C20_4 C2_4 1_555 1_555
C22_4 C16_4 1_555 1_555
H14_4 C22_4 1_555 1_555
H15_4 C22_4 1_555 1_555
C23_4 C17_4 1_555 1_555
H17_4 C23_4 1_555 1_555
O9_4 Cd2_4 1_555 1_555
H23_4 C30_4 1_555 1_555
C32_4 H24_4 1_555 1_555
N8_4 C33_4 1_555 1_555
N9_4 C31_4 1_555 1_555
C33_4 C32_4 1_555 1_555
H25_4 C33_4 1_555 1_555
C34_4 N8_4 1_555 1_555
H26_4 C34_4 1_555 1_555
C115_4 H85_4 1_555 1_555
C116_4 C115_4 1_555 1_555
C117_4 H86_4 1_555 1_555
N19_4 Cd2_4 1_555 1_555
N20_4 C116_4 1_555 1_555
C118_4 C117_4 1_555 1_555
H87_4 C118_4 1_555 1_555
C119_4 N19_4 1_555 1_555
H88_4 C119_4 1_555 1_555
C120_4 H89_4 1_555 1_555
C121_4 C115_4 1_555 1_555
C122_4 H90_4 1_555 1_555
N21_4 C123_4 1_555 1_555
N22_4 C121_4 1_555 1_555
C123_4 C122_4 1_555 1_555
H91_4 C123_4 1_555 1_555
C124_4 N21_4 1_555 1_555
H92_4 C124_4 1_555 1_555
C125_4 C116_4 1_555 1_555
H93_4 C125_4 1_555 1_555
C126_4 C120_4 1_555 1_555
C127_4 H94_4 1_555 1_555
N32_2 C128_4 1_555 1_555
N24_4 C126_4 1_555 1_555
C128_4 C127_4 1_555 1_555
H95_4 C128_4 1_555 1_555
C129_4 N32_2 1_555 1_555
H96_4 C129_4 1_555 1_555
Cd26 N21_4 1_555 1_555
Cd24 N8_4 1_555 1_555
O54_2 Cd2_4 1_555 1_555
O59_2 Cd12 1_555 1_555
O72_4 Cd12 1_555 1_555
C7_4 C19_4 1_555 1_555
C10_4 C15_4 1_555 1_555
C11_4 C19_4 1_555 1_555
C22_4 C23_4 1_555 1_555
C30_4 C31_4 1_555 1_555
C32_4 N9_4 1_555 1_555
N9_4 C34_4 1_555 1_555
C117_4 N20_4 1_555 1_555
N19_4 C118_4 1_555 1_555
N20_4 C119_4 1_555 1_555
C120_4 C121_4 1_555 1_555
C122_4 N22_4 1_555 1_555
N22_4 C124_4 1_555 1_555
C125_4 C126_4 1_555 1_555
C127_4 N24_4 1_555 1_555
N24_4 C129_4 1_555 1_555
C1_4 H1_4 1_555 1_555
C3_4 C1_4 1_555 1_555
C4_4 H2_4 1_555 1_555
N4_4 C3_4 1_555 1_555
C13_4 C4_4 1_555 1_555
H7_4 C13_4 1_555 1_555
C25_4 H19_4 1_555 1_555
C26_4 C1_4 1_555 1_555
C27_4 H20_4 1_555 1_555
N31 C28_4 1_555 1_555
N7_4 C26_4 1_555 1_555
C28_4 C27_4 1_555 1_555
H21_4 C28_4 1_555 1_555
C29_4 N31 1_555 1_555
H22_4 C29_4 1_555 1_555
C4_4 N4_4 1_555 1_555
C25_4 C26_4 1_555 1_555
C27_4 N7_4 1_555 1_555
N7_4 C29_4 1_555 1_555
O18_3 Cd23 1_555 1_555
O57 Cd23 1_555 1_555
O27_3 Cd24 1_555 1_555
O56_2 Cd24 1_555 1_555
Cd25 O56 1_555 1_555
O18_4 Cd25 1_555 1_555
O27_4 Cd26 1_555 1_555
O55 Cd26 1_555 1_555
O59 C110_3 1_555 1_555
C108_3 H78_3 1_555 1_555
C110_3 C108_3 1_555 1_555
C113_3 C108_3 1_555 1_555
H81_3 C113_3 1_555 1_555
H82_3 C113_3 1_555 1_555
H84_3 C114_3 1_555 1_555
C113_3 C114_3 1_555 1_555
Cd19_2 O24_2 1_555 1_555
C59_2 C64_2 1_555 1_555
O20_2 C62_2 1_555 1_555
C60_2 N15_2 1_555 1_555
O21_2 C62_2 1_555 1_555
C61_2 H45_2 1_555 1_555
C62_2 C63_2 1_555 1_555
C63_2 C61_2 1_555 1_555
C64_2 H46_2 1_555 1_555
C65_2 C59_2 1_555 1_555
H47_2 C65_2 1_555 1_555
C67_2 N15_2 1_555 1_555
H49_2 C67_2 1_555 1_555
H50_2 C67_2 1_555 1_555
C69_2 C60_2 1_555 1_555
O22_2 C60_2 1_555 1_555
O24_2 C70_2 1_555 1_555
O25_2 C70_2 1_555 1_555
C70_2 C59_2 1_555 1_555
O26_2 Cd19_2 1_555 1_555
Cd15_2 O20_2 1_555 1_555
O62_2 Cd19_2 1_555 1_555
O65_2 Cd19_2 1_555 1_555
O21_2 Cd15_2 1_555 1_555
C61_2 C69_2 1_555 1_555
C63_2 C65_2 1_555 1_555
C64_2 C69_2 1_555 1_555
O56_2 C82_2 1_555 1_555
C80_2 H58_2 1_555 1_555
C82_2 C80_2 1_555 1_555
C85_2 C80_2 1_555 1_555
H61_2 C85_2 1_555 1_555
H62_2 C85_2 1_555 1_555
H64_2 C86_2 1_555 1_555
C87_3 C92_3 1_555 1_555
O37_2 C90_3 1_555 1_555
C88_3 N17_3 1_555 1_555
O38_2 C90_3 1_555 1_555
C89_3 H65_3 1_555 1_555
C90_3 C91_3 1_555 1_555
C91_3 C89_3 1_555 1_555
C92_3 H66_3 1_555 1_555
C93_3 C87_3 1_555 1_555
H67_3 C93_3 1_555 1_555
C95_3 N17_3 1_555 1_555
H69_3 C95_3 1_555 1_555
H70_3 C95_3 1_555 1_555
C97_3 C88_3 1_555 1_555
O39_3 C88_3 1_555 1_555
O41_3 Cd20_3 1_555 1_555
O42_3 C98_3 1_555 1_555
C98_3 C87_3 1_555 1_555
O43_3 Cd20_3 1_555 1_555
C130_3 C131_3 1_555 1_555
C131_3 H97_3 1_555 1_555
N25_3 C130_3 1_555 1_555
C132_3 N25_3 1_555 1_555
H98_3 C132_3 1_555 1_555
C133_3 N25_3 1_555 1_555
H99_3 C133_3 1_555 1_555
C134_3 C133_3 1_555 1_555
H100_3 C134_3 1_555 1_555
C135_3 C131_3 1_555 1_555
C136_3 C135_3 1_555 1_555
H101_3 C136_3 1_555 1_555
N27_3 C135_3 1_555 1_555
C137_3 N27_3 1_555 1_555
H102_3 C137_3 1_555 1_555
C138_3 N27_3 1_555 1_555
H103_3 C138_3 1_555 1_555
C139_3 C138_3 1_555 1_555
H104_3 C139_3 1_555 1_555
N28_2 C137_3 1_555 1_555
C140_3 C136_3 1_555 1_555
C141_3 C130_3 1_555 1_555
H105_3 C141_3 1_555 1_555
N29_3 C140_3 1_555 1_555
C142_3 N29_3 1_555 1_555
H106_3 C142_3 1_555 1_555
C143_3 N29_3 1_555 1_555
H107_3 C143_3 1_555 1_555
C144_3 C143_3 1_555 1_555
H108_3 C144_3 1_555 1_555
N30_3 C142_3 1_555 1_555
Cd16_2 N30_3 1_555 1_555
Cd18 O37_2 1_555 1_555
Cd20 N28_2 1_555 1_555
O61_3 Cd20_3 1_555 1_555
O64_3 Cd20_3 1_555 1_555
C85_2 C86_2 1_555 1_555
O38_2 Cd18 1_555 1_555
C89_3 C97_3 1_555 1_555
C91_3 C93_3 1_555 1_555
C92_3 C97_3 1_555 1_555
O41_3 C98_3 1_555 1_555
C132_3 N26_2 1_555 1_555
C134_3 N26_2 1_555 1_555
C139_3 N28_2 1_555 1_555
C140_3 C141_3 1_555 1_555
C144_3 N30_3 1_555 1_555
O52 C18_5 1_555 1_555
C16_5 H10_5 1_555 1_555
C18_5 C16_5 1_555 1_555
C22_5 C16_5 1_555 1_555
H14_5 C22_5 1_555 1_555
H15_5 C22_5 1_555 1_555
H17_5 C23_5 1_555 1_555
C66_2 H48_2 1_555 1_555
C68_2 O56 1_555 1_555
C71_2 C66_2 1_555 1_555
H51_2 C71_2 1_555 1_555
H52_2 C71_2 1_555 1_555
H54_2 C72_2 1_555 1_555
C22_5 C23_5 1_555 1_555
C66_2 C68_2 1_555 1_555
C71_2 C72_2 1_555 1_555
Cd15 O6_5 1_555 1_555
C2_5 C11_5 1_555 1_555
O2_3 C9_5 1_555 1_555
C5_3 C8_3 1_555 1_555
C6_5 N2_5 1_555 1_555
O3_3 C9_5 1_555 1_555
C7_5 H3_5 1_555 1_555
C8_3 H4_3 1_555 1_555
C9_5 C10_5 1_555 1_555
C10_5 C7_5 1_555 1_555
N3_3 C5_3 1_555 1_555
C11_5 H5_5 1_555 1_555
C12_3 N3_3 1_555 1_555
H6_3 C12_3 1_555 1_555
C15_5 C2_5 1_555 1_555
H9_5 C15_5 1_555 1_555
C17_5 N2_5 1_555 1_555
H11_5 C17_5 1_555 1_555
H12_5 C17_5 1_555 1_555
C19_5 C6_5 1_555 1_555
O4_5 C6_5 1_555 1_555
O6_5 C20_5 1_555 1_555
O7_5 C20_5 1_555 1_555
C20_5 C2_5 1_555 1_555
C21_3 N3_3 1_555 1_555
H13_3 C21_3 1_555 1_555
C24_3 C21_3 1_555 1_555
H18_3 C24_3 1_555 1_555
N5_3 Cd15 1_555 1_555
O8_5 Cd15 1_555 1_555
C35_3 C8_3 1_555 1_555
C36_3 C35_3 1_555 1_555
H27_3 C36_3 1_555 1_555
N10_3 C35_3 1_555 1_555
C37_3 N10_3 1_555 1_555
H28_3 C37_3 1_555 1_555
C38_3 N10_3 1_555 1_555
H29_3 C38_3 1_555 1_555
C39_3 C38_3 1_555 1_555
H30_3 C39_3 1_555 1_555
N11_3 C37_3 1_555 1_555
C40_3 C36_3 1_555 1_555
C41_3 C5_3 1_555 1_555
H31_3 C41_3 1_555 1_555
N12_3 C40_3 1_555 1_555
C42_3 N12_3 1_555 1_555
H32_3 C42_3 1_555 1_555
C43_3 N12_3 1_555 1_555
H33_3 C43_3 1_555 1_555
C44_3 C43_3 1_555 1_555
H34_3 C44_3 1_555 1_555
N13_3 C42_3 1_555 1_555
Cd17 N11_3 1_555 1_555
O55 C54_3 1_555 1_555
C45_3 C50_3 1_555 1_555
O11_3 C48_3 1_555 1_555
C46_3 N14_3 1_555 1_555
O12_3 C48_3 1_555 1_555
N14_3 C52_3 1_555 1_555
C47_3 H35_3 1_555 1_555
C48_3 C49_3 1_555 1_555
C49_3 C47_3 1_555 1_555
C50_3 H36_3 1_555 1_555
C51_3 C45_3 1_555 1_555
H37_3 C51_3 1_555 1_555
C52_3 H38_3 1_555 1_555
C53_3 N14_3 1_555 1_555
H39_3 C53_3 1_555 1_555
H40_3 C53_3 1_555 1_555
C54_3 C52_3 1_555 1_555
C55_3 C46_3 1_555 1_555
O13_3 C46_3 1_555 1_555
O69 C54_3 1_555 1_555
O15_3 Cd17 1_555 1_555
O16_3 C56_3 1_555 1_555
C56_3 C45_3 1_555 1_555
C57_3 C52_3 1_555 1_555
H41_3 C57_3 1_555 1_555
H42_3 C57_3 1_555 1_555
C58_3 C53_3 1_555 1_555
H43_3 C58_3 1_555 1_555
H44_3 C58_3 1_555 1_555
O17_3 Cd17 1_555 1_555
Cd19 O33_2 1_555 1_555
C73_2 C78_2 1_555 1_555
O29_2 Cd15 1_555 1_555
C74_2 N16_2 1_555 1_555
O30_2 Cd15 1_555 1_555
C75_2 H55_2 1_555 1_555
C76_2 O29_2 1_555 1_555
C77_2 C75_2 1_555 1_555
C78_2 H56_2 1_555 1_555
C79_2 C73_2 1_555 1_555
H57_2 C79_2 1_555 1_555
C81_2 N16_2 1_555 1_555
H59_2 C81_2 1_555 1_555
H60_2 C81_2 1_555 1_555
C83_2 C74_2 1_555 1_555
O31_2 C74_2 1_555 1_555
O33_2 C84_2 1_555 1_555
O34_2 C84_2 1_555 1_555
C84_2 C73_2 1_555 1_555
O35_2 Cd19 1_555 1_555
Cd20 O2_3 1_555 1_555
C101_3 C106_3 1_555 1_555
O45_2 Cd19 1_555 1_555
C102_3 N18_3 1_555 1_555
O46_2 Cd19 1_555 1_555
C103_3 H75_3 1_555 1_555
C104_3 O45_2 1_555 1_555
C105_3 C103_3 1_555 1_555
C106_3 H76_3 1_555 1_555
C107_3 C101_3 1_555 1_555
H77_3 C107_3 1_555 1_555
C109_3 N18_3 1_555 1_555
H79_3 C109_3 1_555 1_555
H80_3 C109_3 1_555 1_555
C111_3 C102_3 1_555 1_555
O47_3 C102_3 1_555 1_555
O49_3 Cd20 1_555 1_555
O50_3 C112_3 1_555 1_555
C112_3 C101_3 1_555 1_555
O51_3 Cd20 1_555 1_555
Cd16 O11_3 1_555 1_555
O63_2 Cd17 1_555 1_555
O66_2 Cd17 1_555 1_555
N34_2 Cd19 1_555 1_555
O3_3 Cd20 1_555 1_555
C7_5 C19_5 1_555 1_555
C10_5 C15_5 1_555 1_555
C11_5 C19_5 1_555 1_555
C12_3 N5_3 1_555 1_555
C24_3 N5_3 1_555 1_555
C39_3 N11_3 1_555 1_555
C40_3 C41_3 1_555 1_555
C44_3 N13_3 1_555 1_555
O12_3 Cd16 1_555 1_555
C47_3 C55_3 1_555 1_555
C49_3 C51_3 1_555 1_555
C50_3 C55_3 1_555 1_555
O15_3 C56_3 1_555 1_555
C57_3 C58_3 1_555 1_555
O30_2 C76_2 1_555 1_555
C75_2 C83_2 1_555 1_555
C76_2 C77_2 1_555 1_555
C77_2 C79_2 1_555 1_555
C78_2 C83_2 1_555 1_555
O46_2 C104_3 1_555 1_555
C103_3 C111_3 1_555 1_555
C104_3 C105_3 1_555 1_555
C105_3 C107_3 1_555 1_555
C106_3 C111_3 1_555 1_555
O49_3 C112_3 1_555 1_555
O58 C96_3 1_555 1_555
C94_3 H68_3 1_555 1_555
C96_3 C94_3 1_555 1_555
C99_3 C94_3 1_555 1_555
H71_3 C99_3 1_555 1_555
H72_3 C99_3 1_555 1_555
H74_3 C100_3 1_555 1_555
C99_3 C100_3 1_555 1_555
C5_4 C8_4 1_555 1_555
C8_4 H4_4 1_555 1_555
N3_4 C5_4 1_555 1_555
C12_4 N3_4 1_555 1_555
H6_4 C12_4 1_555 1_555
C21_4 N3_4 1_555 1_555
H13_4 C21_4 1_555 1_555
C24_4 C21_4 1_555 1_555
H18_4 C24_4 1_555 1_555
C35_4 C8_4 1_555 1_555
C36_4 C35_4 1_555 1_555
H27_4 C36_4 1_555 1_555
N10_4 C35_4 1_555 1_555
C37_4 N10_4 1_555 1_555
H28_4 C37_4 1_555 1_555
C38_4 N10_4 1_555 1_555
H29_4 C38_4 1_555 1_555
C39_4 C38_4 1_555 1_555
H30_4 C39_4 1_555 1_555
N11_4 C37_4 1_555 1_555
C40_4 C36_4 1_555 1_555
C41_4 C5_4 1_555 1_555
H31_4 C41_4 1_555 1_555
N12_4 C40_4 1_555 1_555
C42_4 N12_4 1_555 1_555
H32_4 C42_4 1_555 1_555
C43_4 N12_4 1_555 1_555
H33_4 C43_4 1_555 1_555
C44_4 C43_4 1_555 1_555
H34_4 C44_4 1_555 1_555
N13_4 C42_4 1_555 1_555
C12_4 N5_4 1_555 1_555
C24_4 N5_4 1_555 1_555
C39_4 N11_4 1_555 1_555
C40_4 C41_4 1_555 1_555
C44_4 N13_4 1_555 1_555
O57 C54_4 1_555 1_555
C45_4 C50_4 1_555 1_555
O11_4 C48_4 1_555 1_555
C46_4 N14_4 1_555 1_555
O12_4 C48_4 1_555 1_555
N14_4 C52_4 1_555 1_555
C47_4 H35_4 1_555 1_555
C48_4 C49_4 1_555 1_555
C49_4 C47_4 1_555 1_555
C50_4 H36_4 1_555 1_555
C51_4 C45_4 1_555 1_555
H37_4 C51_4 1_555 1_555
C52_4 H38_4 1_555 1_555
C53_4 N14_4 1_555 1_555
H39_4 C53_4 1_555 1_555
H40_4 C53_4 1_555 1_555
C54_4 C52_4 1_555 1_555
C55_4 C46_4 1_555 1_555
O13_4 C46_4 1_555 1_555
O71 C54_4 1_555 1_555
O15_4 Cd18 1_555 1_555
O16_4 C56_4 1_555 1_555
C56_4 C45_4 1_555 1_555
C57_4 C52_4 1_555 1_555
H41_4 C57_4 1_555 1_555
H42_4 C57_4 1_555 1_555
C58_4 C53_4 1_555 1_555
H43_4 C58_4 1_555 1_555
H44_4 C58_4 1_555 1_555
O17_4 Cd18 1_555 1_555
Cd16_2 O11_4 1_555 1_555
O12_4 Cd16_2 1_555 1_555
C47_4 C55_4 1_555 1_555
C49_4 C51_4 1_555 1_555
C50_4 C55_4 1_555 1_555
O15_4 C56_4 1_555 1_555
C57_4 C58_4 1_555 1_555
O60 C96_4 1_555 1_555
C87_4 C92_4 1_555 1_555
O63_2 C90_4 1_555 1_555
C88_4 N17_4 1_555 1_555
O66_2 C90_4 1_555 1_555
N17_4 C94_4 1_555 1_555
C89_4 H65_4 1_555 1_555
C90_4 C91_4 1_555 1_555
C91_4 C89_4 1_555 1_555
C92_4 H66_4 1_555 1_555
C93_4 C87_4 1_555 1_555
H67_4 C93_4 1_555 1_555
C94_4 H68_4 1_555 1_555
C95_4 N17_4 1_555 1_555
H69_4 C95_4 1_555 1_555
H70_4 C95_4 1_555 1_555
C96_4 C94_4 1_555 1_555
C97_4 C88_4 1_555 1_555
O39_4 C88_4 1_555 1_555
O72_2 C96_4 1_555 1_555
O41_4 Cd20_4 1_555 1_555
O42_4 C98_4 1_555 1_555
C98_4 C87_4 1_555 1_555
C99_4 C94_4 1_555 1_555
H71_4 C99_4 1_555 1_555
H72_4 C99_4 1_555 1_555
C100_4 C95_4 1_555 1_555
H73_4 C100_4 1_555 1_555
H74_4 C100_4 1_555 1_555
O43_4 Cd20_4 1_555 1_555
O61_4 Cd20_4 1_555 1_555
O64_4 Cd20_4 1_555 1_555
C89_4 C97_4 1_555 1_555
C91_4 C93_4 1_555 1_555
C92_4 C97_4 1_555 1_555
O41_4 C98_4 1_555 1_555
C99_4 C100_4 1_555 1_555
Cd15_2 O6_6 1_555 1_555
O53 C18_6 1_555 1_555
C2_6 C11_6 1_555 1_555
O2_4 C9_6 1_555 1_555
C6_6 N2_6 1_555 1_555
O3_4 C9_6 1_555 1_555
N2_6 C16_6 1_555 1_555
C7_6 H3_6 1_555 1_555
C9_6 C10_6 1_555 1_555
C10_6 C7_6 1_555 1_555
C11_6 H5_6 1_555 1_555
C15_6 C2_6 1_555 1_555
H9_6 C15_6 1_555 1_555
C16_6 H10_6 1_555 1_555
C17_6 N2_6 1_555 1_555
H11_6 C17_6 1_555 1_555
H12_6 C17_6 1_555 1_555
C18_6 C16_6 1_555 1_555
C19_6 C6_6 1_555 1_555
O4_6 C6_6 1_555 1_555
O67_2 C18_6 1_555 1_555
O6_6 C20_6 1_555 1_555
O7_6 C20_6 1_555 1_555
C20_6 C2_6 1_555 1_555
C22_6 C16_6 1_555 1_555
H14_6 C22_6 1_555 1_555
H15_6 C22_6 1_555 1_555
C23_6 C17_6 1_555 1_555
H16_6 C23_6 1_555 1_555
H17_6 C23_6 1_555 1_555
O8_6 Cd15_2 1_555 1_555
Cd20_2 O2_4 1_555 1_555
O59_2 C110_4 1_555 1_555
C101_4 C106_4 1_555 1_555
C102_4 N18_4 1_555 1_555
N18_4 C108_4 1_555 1_555
C103_4 H75_4 1_555 1_555
C104_4 O62_2 1_555 1_555
C105_4 C103_4 1_555 1_555
C106_4 H76_4 1_555 1_555
C107_4 C101_4 1_555 1_555
H77_4 C107_4 1_555 1_555
C108_4 H78_4 1_555 1_555
C109_4 N18_4 1_555 1_555
H79_4 C109_4 1_555 1_555
H80_4 C109_4 1_555 1_555
C110_4 C108_4 1_555 1_555
C111_4 C102_4 1_555 1_555
O47_4 C102_4 1_555 1_555
O72_4 C110_4 1_555 1_555
O49_4 Cd20_2 1_555 1_555
O50_4 C112_4 1_555 1_555
C112_4 C101_4 1_555 1_555
C113_4 C108_4 1_555 1_555
H81_4 C113_4 1_555 1_555
H82_4 C113_4 1_555 1_555
C114_4 C109_4 1_555 1_555
H83_4 C114_4 1_555 1_555
H84_4 C114_4 1_555 1_555
O51_4 Cd20_2 1_555 1_555
N35_2 Cd20_2 1_555 1_555
O3_4 Cd20_2 1_555 1_555
C7_6 C19_6 1_555 1_555
C10_6 C15_6 1_555 1_555
C11_6 C19_6 1_555 1_555
C22_6 C23_6 1_555 1_555
O65_2 C104_4 1_555 1_555
C103_4 C111_4 1_555 1_555
C104_4 C105_4 1_555 1_555
C105_4 C107_4 1_555 1_555
C106_4 C111_4 1_555 1_555
O49_4 C112_4 1_555 1_555
C113_4 C114_4 1_555 1_555
C130_4 C131_4 1_555 1_555
C131_4 H97_4 1_555 1_555
N25_4 C130_4 1_555 1_555
C132_4 N25_4 1_555 1_555
H98_4 C132_4 1_555 1_555
C133_4 N25_4 1_555 1_555
H99_4 C133_4 1_555 1_555
C134_4 C133_4 1_555 1_555
H100_4 C134_4 1_555 1_555
C135_4 C131_4 1_555 1_555
C136_4 C135_4 1_555 1_555
H101_4 C136_4 1_555 1_555
N27_4 C135_4 1_555 1_555
C137_4 N27_4 1_555 1_555
H102_4 C137_4 1_555 1_555
C138_4 N27_4 1_555 1_555
H103_4 C138_4 1_555 1_555
C139_4 C138_4 1_555 1_555
H104_4 C139_4 1_555 1_555
N35_2 C137_4 1_555 1_555
C140_4 C136_4 1_555 1_555
C141_4 C130_4 1_555 1_555
H105_4 C141_4 1_555 1_555
N29_4 C140_4 1_555 1_555
C142_4 N29_4 1_555 1_555
H106_4 C142_4 1_555 1_555
C143_4 N29_4 1_555 1_555
H107_4 C143_4 1_555 1_555
C144_4 C143_4 1_555 1_555
H108_4 C144_4 1_555 1_555
N30_4 C142_4 1_555 1_555
C132_4 N34_2 1_555 1_555
C134_4 N34_2 1_555 1_555
C139_4 N35_2 1_555 1_555
C140_4 C141_4 1_555 1_555
C144_4 N30_4 1_555 1_555
Cd16 O6_7 1_555 1_555
C2_7 C11_7 1_555 1_555
O61_4 C9_7 1_555 1_555
C6_7 N2_7 1_555 1_555
O64_4 C9_7 1_555 1_555
C7_7 H3_7 1_555 1_555
C9_7 C10_7 1_555 1_555
C10_7 C7_7 1_555 1_555
C11_7 H5_7 1_555 1_555
C15_7 C2_7 1_555 1_555
H9_7 C15_7 1_555 1_555
C17_7 N2_7 1_555 1_555
H11_7 C17_7 1_555 1_555
H12_7 C17_7 1_555 1_555
C19_7 C6_7 1_555 1_555
O4_7 C6_7 1_555 1_555
O6_7 C20_7 1_555 1_555
O7_7 C20_7 1_555 1_555
C20_7 C2_7 1_555 1_555
O8_7 Cd16 1_555 1_555
C7_7 C19_7 1_555 1_555
C10_7 C15_7 1_555 1_555
C11_7 C19_7 1_555 1_555
O54 C18_7 1_555 1_555
C16_7 H10_7 1_555 1_555
C18_7 C16_7 1_555 1_555
C22_7 C16_7 1_555 1_555
H14_7 C22_7 1_555 1_555
H15_7 C22_7 1_555 1_555
H17_7 C23_7 1_555 1_555
C22_7 C23_7 1_555 1_555
Cd16_2 O6_8 1_555 1_555
O54_2 C18_8 1_555 1_555
C2_8 C11_8 1_555 1_555
O61_3 C9_8 1_555 1_555
C6_8 N2_8 1_555 1_555
O64_3 C9_8 1_555 1_555
N2_8 C16_8 1_555 1_555
C7_8 H3_8 1_555 1_555
C9_8 C10_8 1_555 1_555
C10_8 C7_8 1_555 1_555
C11_8 H5_8 1_555 1_555
C15_8 C2_8 1_555 1_555
H9_8 C15_8 1_555 1_555
C16_8 H10_8 1_555 1_555
C17_8 N2_8 1_555 1_555
H11_8 C17_8 1_555 1_555
H12_8 C17_8 1_555 1_555
C18_8 C16_8 1_555 1_555
C19_8 C6_8 1_555 1_555
O4_8 C6_8 1_555 1_555
O68_2 C18_8 1_555 1_555
O6_8 C20_8 1_555 1_555
O7_8 C20_8 1_555 1_555
C20_8 C2_8 1_555 1_555
C22_8 C16_8 1_555 1_555
H14_8 C22_8 1_555 1_555
H15_8 C22_8 1_555 1_555
C23_8 C17_8 1_555 1_555
H16_8 C23_8 1_555 1_555
H17_8 C23_8 1_555 1_555
O8_8 Cd16_2 1_555 1_555
C7_8 C19_8 1_555 1_555
C10_8 C15_8 1_555 1_555
C11_8 C19_8 1_555 1_555
C22_8 C23_8 1_555 1_555

#END
