
###############################################################################
#
# This file contains modified crystal structure data generated from the
# MOF subset of the Cambridge Structural Database (CSD) v543 
# hosted by the Cambridge Crystallographic Data Centre (CCDC).
#
# This work is licensed under the Creative Commons
# Attribution-NonCommercial-ShareAlike 4.0 International License.
# To view a copy of this license, visit
# http://creativecommons.org/licenses/by-nc-sa/4.0/
# or send a letter to
# Creative Commons, PO Box 1866, Mountain View, CA 94042, USA.
#
# CIF created using the CSD Python API on 29 September 2022
# The structure has been converted into the P1 space group
# The structure has a 3D framework
# The original CSD entry LOXWEC is in the monoclinic crystal system
# The framework has been calculated to contain at least 10.0% void space
# The void calculation uses a probe of radius 1.32A, grid spacing 0.4
#
###############################################################################

data_LOXWEC
_chemical_formula_moiety         '(C88 H88 Cu8 N16 O32)n'
_symmetry_cell_setting           triclinic
_symmetry_space_group_name_H-M   'P 1'
_symmetry_Int_Tables_number      1
_space_group_name_Hall           'P 1'
loop_
_symmetry_equiv_pos_site_id
_symmetry_equiv_pos_as_xyz
1 x,y,z
_cell_length_a                   27.689(6)
_cell_length_b                   13.176(3)
_cell_length_c                   8.5800(19)
_cell_angle_alpha                90
_cell_angle_beta                 95.783(3)
_cell_angle_gamma                90
_cell_volume                     3114.31
loop_
_atom_site_label
_atom_site_type_symbol
_atom_site_fract_x
_atom_site_fract_y
_atom_site_fract_z
H2 H 0.8072 0.2326 0.0132
C6 C 0.79771(10) 0.38881(19) 0.0059(3)
H6 H 0.7623 0.3857 0.0139
H7 H 0.8141 0.3996 0.1125
N3 N 0.34846(8) 0.62921(16) 0.3602(2)
C12 C 0.41902(10) 0.6392(2) 0.2203(3)
H12 H 0.4441 0.6795 0.1842
C13 C 0.38471(10) 0.6824(2) 0.3061(3)
H13 H 0.3868 0.7531 0.3278
C14 C 0.34569(10) 0.5294(2) 0.3269(3)
H14 H 0.3200 0.4910 0.3628
C15 C 0.37896(9) 0.4804(2) 0.2422(3)
H15 H 0.3762 0.4096 0.2220
N4 N 0.48486(8) 0.5326(2) 0.0389(3)
C16 C 0.41621(9) 0.5357(2) 0.1876(3)
C17 C 0.45195(9) 0.4831(2) 0.0995(3)
H16 H 0.4504 0.4115 0.0880
Cu2 Cu 0.289340(11) 0.70461(2) 0.46247(3)
O5 O 0.25454(7) 0.42053(13) 0.0120(2)
O6 O 0.25270(7) 0.70583(14) 0.2530(2)
O7 O 0.18721(7) 0.34315(13) 0.0737(2)
O8 O 0.18459(7) 0.77947(15) 0.3160(2)
C18 C 0.21260(9) 0.42064(19) 0.0563(3)
C19 C 0.18543(10) 0.71185(18) 0.0585(3)
H17 H 0.1498 0.7097 0.0618
C20 C 0.20967(9) 0.73450(18) 0.2217(3)
C21 C 0.19124(10) 0.52194(18) 0.0984(3)
H19 H 0.2035 0.5386 0.2078
H20 H 0.1556 0.5144 0.0946
Cu4 Cu 0.210660(11) 0.79539(2) 0.53753(3)
Cu6 Cu 0.710660(11) 0.70461(2) 0.03753(3)
Cu8 Cu 0.210660(11) 0.20461(2) 0.03753(3)
O9 O 0.25454(7) 0.57947(13) 0.5120(2)
O12 O 0.31279(7) 0.84315(13) 0.4263(2)
O13 O 0.31541(7) 0.72053(15) 0.6840(2)
Cu1 Cu 0.710660(11) 0.29539(2) 0.53753(3)
O1 O 0.74546(7) 0.57947(13) 0.9880(2)
O2 O 0.74730(7) 0.29417(14) 0.7470(2)
O3 O 0.81279(7) 0.65685(13) 0.9263(2)
O4 O 0.81541(7) 0.22053(15) 0.6840(2)
N1 N 0.65154(8) 0.37079(16) 0.6398(2)
C1 C 0.78740(9) 0.57936(19) 0.9437(3)
C2 C 0.81457(10) 0.28815(18) 0.9415(3)
H1 H 0.8502 0.2903 0.9382
C3 C 0.58098(10) 0.3608(2) 0.7797(3)
H3 H 0.5559 0.3205 0.8158
C4 C 0.79033(9) 0.26550(18) 0.7783(3)
C5 C 0.80876(10) 0.47806(18) 0.9016(3)
H4 H 0.7965 0.4614 0.7922
H5 H 0.8444 0.4856 0.9054
C7 C 0.61529(10) 0.3176(2) 0.6939(3)
H8 H 0.6132 0.2469 0.6722
C8 C 0.65431(10) 0.4706(2) 0.6731(3)
H9 H 0.6800 0.5090 0.6372
C9 C 0.62104(9) 0.5196(2) 0.7578(3)
H10 H 0.6238 0.5904 0.7780
N2 N 0.51514(8) 0.4674(2) 0.9611(3)
C10 C 0.58379(9) 0.4643(2) 0.8124(3)
C11 C 0.54805(9) 0.5169(2) 0.9005(3)
H11 H 0.5496 0.5885 0.9120
H18 H 0.1928 0.7674 0.9868
C22 C 0.20229(10) 0.61119(19) 0.9941(3)
H21 H 0.2377 0.6143 0.9861
H22 H 0.1859 0.6004 0.8875
Cu3 Cu 0.289340(11) 0.29539(2) 0.96247(3)
Cu5 Cu 0.789340(11) 0.79539(2) 0.96247(3)
Cu7 Cu 0.789340(11) 0.20461(2) 0.46247(3)
O10 O 0.74546(7) 0.42053(13) 0.4880(2)
O11 O 0.68721(7) 0.15685(13) 0.5737(2)
O14 O 0.68459(7) 0.27947(15) 0.3160(2)
O14_2 O 0.31541(7) 0.27947(15) 0.1840(2)
O2_2 O 0.25270(7) 0.29417(14) 0.7530(2)
O3_2 O 0.18721(7) 0.65685(13) 0.5737(2)
O4_2 O 0.18459(7) 0.22053(15) 0.8160(2)
N1_2 N 0.34846(8) 0.37079(16) 0.8602(2)
C1_2 C 0.21260(9) 0.57936(19) 0.5563(3)
C2_2 C 0.18543(10) 0.28815(18) 0.5585(3)
H1_2 H 0.1498 0.2903 0.5618
H2_2 H 0.1928 0.2326 0.4868
C3_2 C 0.41902(10) 0.3608(2) 0.7203(3)
H3_2 H 0.4441 0.3205 0.6842
C4_2 C 0.20967(9) 0.26550(18) 0.7217(3)
C5_2 C 0.19124(10) 0.47806(18) 0.5984(3)
H4_2 H 0.2035 0.4614 0.7078
H5_2 H 0.1556 0.4856 0.5946
C6_2 C 0.20229(10) 0.38881(19) 0.4941(3)
H6_2 H 0.2377 0.3857 0.4861
H7_2 H 0.1859 0.3996 0.3875
C7_2 C 0.38471(10) 0.3176(2) 0.8061(3)
H8_2 H 0.3868 0.2469 0.8278
C8_2 C 0.34569(10) 0.4706(2) 0.8269(3)
H9_2 H 0.3200 0.5090 0.8628
C9_2 C 0.37896(9) 0.5196(2) 0.7422(3)
H10_2 H 0.3762 0.5904 0.7220
N2_2 N 0.48486(8) 0.4674(2) 0.5389(3)
C10_2 C 0.41621(9) 0.4643(2) 0.6876(3)
C11_2 C 0.45195(9) 0.5169(2) 0.5995(3)
H11_2 H 0.4504 0.5885 0.5880
N3_2 N 0.65154(8) 0.62921(16) 0.1398(2)
C12_2 C 0.58098(10) 0.6392(2) 0.2797(3)
H12_2 H 0.5559 0.6795 0.3158
C13_2 C 0.61529(10) 0.6824(2) 0.1939(3)
H13_2 H 0.6132 0.7531 0.1722
C14_2 C 0.65431(10) 0.5294(2) 0.1731(3)
H14_2 H 0.6800 0.4910 0.1372
C15_2 C 0.62104(9) 0.4804(2) 0.2578(3)
H15_2 H 0.6238 0.4096 0.2780
N4_2 N 0.51514(8) 0.5326(2) 0.4611(3)
C16_2 C 0.58379(9) 0.5357(2) 0.3124(3)
C17_2 C 0.54805(9) 0.4831(2) 0.4005(3)
H16_2 H 0.5496 0.4115 0.4120
O6_2 O 0.74730(7) 0.70583(14) 0.2470(2)
O7_2 O 0.81279(7) 0.34315(13) 0.4263(2)
O8_2 O 0.81541(7) 0.77947(15) 0.1840(2)
C18_2 C 0.78740(9) 0.42064(19) 0.4437(3)
C19_2 C 0.81457(10) 0.71185(18) 0.4415(3)
H17_2 H 0.8502 0.7097 0.4382
H18_2 H 0.8072 0.7674 0.5132
C20_2 C 0.79033(9) 0.73450(18) 0.2783(3)
C21_2 C 0.80876(10) 0.52194(18) 0.4016(3)
H19_2 H 0.7965 0.5386 0.2922
H20_2 H 0.8444 0.5144 0.4054
C22_2 C 0.79771(10) 0.61119(19) 0.5059(3)
H21_2 H 0.7623 0.6143 0.5139
H22_2 H 0.8141 0.6004 0.6125
O11_2 O 0.31279(7) 0.15685(13) 0.9263(2)
O12_2 O 0.68721(7) 0.84315(13) 0.0737(2)
O13_2 O 0.68459(7) 0.72053(15) 0.8160(2)
O1_2 O 0.24546(7) 0.07947(13) 0.9880(2)
C1_3 C 0.28740(9) 0.07936(19) 0.9437(3)
H9_3 H 0.1800 0.0090 0.6372
C9_3 C 0.12104(9) 0.0196(2) 0.7578(3)
H10_3 H 0.1238 0.0904 0.7780
C11_3 C 0.04805(9) 0.0169(2) 0.9005(3)
H11_3 H 0.0496 0.0885 0.9120
O2_3 O 0.24730(7) 0.79417(14) 0.7470(2)
N1_3 N 0.15154(8) 0.87079(16) 0.6398(2)
C2_3 C 0.31457(10) 0.78815(18) 0.9415(3)
H1_3 H 0.3502 0.7903 0.9382
C3_3 C 0.08098(10) 0.8608(2) 0.7797(3)
H3_3 H 0.0559 0.8205 0.8158
C4_3 C 0.29033(9) 0.76550(18) 0.7783(3)
C5_3 C 0.30876(10) 0.97806(18) 0.9016(3)
H4_3 H 0.2965 0.9614 0.7922
H5_3 H 0.3444 0.9856 0.9054
C7_3 C 0.11529(10) 0.8176(2) 0.6939(3)
H8_3 H 0.1132 0.7469 0.6722
C8_3 C 0.15431(10) 0.9706(2) 0.6731(3)
N2_3 N 0.01514(8) 0.9674(2) 0.9611(3)
C10_3 C 0.08379(9) 0.9643(2) 0.8124(3)
O10_2 O 0.24546(7) 0.92053(13) 0.4880(2)
N3_3 N 0.84846(8) 0.12921(16) 0.3602(2)
C12_3 C 0.91902(10) 0.1392(2) 0.2203(3)
H12_3 H 0.9441 0.1795 0.1842
C13_3 C 0.88471(10) 0.1824(2) 0.3061(3)
H13_3 H 0.8868 0.2531 0.3278
C14_3 C 0.84569(10) 0.0294(2) 0.3269(3)
N4_3 N 0.98486(8) 0.0326(2) 0.0389(3)
C16_3 C 0.91621(9) 0.0357(2) 0.1876(3)
O6_3 O 0.75270(7) 0.20583(14) 0.2530(2)
C19_3 C 0.68543(10) 0.21185(18) 0.0585(3)
H17_3 H 0.6498 0.2097 0.0618
C20_3 C 0.70967(9) 0.23450(18) 0.2217(3)
C21_3 C 0.69124(10) 0.02194(18) 0.0984(3)
H19_3 H 0.7035 0.0386 0.2078
H20_3 H 0.6556 0.0144 0.0946
O9_2 O 0.75454(7) 0.07947(13) 0.5120(2)
H14_3 H 0.8200 0.9910 0.3628
C15_3 C 0.87896(9) 0.9804(2) 0.2422(3)
H15_3 H 0.8762 0.9096 0.2220
C17_3 C 0.95195(9) 0.9831(2) 0.0995(3)
H16_3 H 0.9504 0.9115 0.0880
O5_2 O 0.75454(7) 0.92053(13) 0.0120(2)
C18_3 C 0.71260(9) 0.92064(19) 0.0563(3)
N3_4 N 0.15154(8) 0.12921(16) 0.1398(2)
C12_4 C 0.08098(10) 0.1392(2) 0.2797(3)
H12_4 H 0.0559 0.1795 0.3158
C13_4 C 0.11529(10) 0.1824(2) 0.1939(3)
H13_4 H 0.1132 0.2531 0.1722
C14_4 C 0.15431(10) 0.0294(2) 0.1731(3)
N4_4 N 0.01514(8) 0.0326(2) 0.4611(3)
C16_4 C 0.08379(9) 0.0357(2) 0.3124(3)
O6_4 O 0.24730(7) 0.20583(14) 0.2470(2)
C19_4 C 0.31457(10) 0.21185(18) 0.4415(3)
H17_4 H 0.3502 0.2097 0.4382
H18_3 H 0.3072 0.2674 0.5132
C20_4 C 0.29033(9) 0.23450(18) 0.2783(3)
C21_4 C 0.30876(10) 0.02194(18) 0.4016(3)
H19_4 H 0.2965 0.0386 0.2922
H20_4 H 0.3444 0.0144 0.4054
C22_3 C 0.29771(10) 0.11119(19) 0.5059(3)
H21_3 H 0.2623 0.1143 0.5139
H22_3 H 0.3141 0.1004 0.6125
H14_4 H 0.1800 0.9910 0.1372
C15_4 C 0.12104(9) 0.9804(2) 0.2578(3)
H15_4 H 0.1238 0.9096 0.2780
C17_4 C 0.04805(9) 0.9831(2) 0.4005(3)
H16_4 H 0.0496 0.9115 0.4120
C18_4 C 0.28740(9) 0.92064(19) 0.4437(3)
C1_4 C 0.71260(9) 0.07936(19) 0.5563(3)
H9_4 H 0.8200 0.0090 0.8628
C9_4 C 0.87896(9) 0.0196(2) 0.7422(3)
H10_4 H 0.8762 0.0904 0.7220
C11_4 C 0.95195(9) 0.0169(2) 0.5995(3)
H11_4 H 0.9504 0.0885 0.5880
O2_4 O 0.75270(7) 0.79417(14) 0.7530(2)
N1_4 N 0.84846(8) 0.87079(16) 0.8602(2)
C2_4 C 0.68543(10) 0.78815(18) 0.5585(3)
H1_4 H 0.6498 0.7903 0.5618
H2_3 H 0.6928 0.7326 0.4868
C3_4 C 0.91902(10) 0.8608(2) 0.7203(3)
H3_4 H 0.9441 0.8205 0.6842
C4_4 C 0.70967(9) 0.76550(18) 0.7217(3)
C5_4 C 0.69124(10) 0.97806(18) 0.5984(3)
H4_4 H 0.7035 0.9614 0.7078
H5_4 H 0.6556 0.9856 0.5946
C6_3 C 0.70229(10) 0.88881(19) 0.4941(3)
H6_3 H 0.7377 0.8857 0.4861
H7_3 H 0.6859 0.8996 0.3875
C7_4 C 0.88471(10) 0.8176(2) 0.8061(3)
H8_4 H 0.8868 0.7469 0.8278
C8_4 C 0.84569(10) 0.9706(2) 0.8269(3)
N2_4 N 0.98486(8) 0.9674(2) 0.5389(3)
C10_4 C 0.91621(9) 0.9643(2) 0.6876(3)
H2_4 H 0.3072 0.7326 0.0132
C6_4 C 0.29771(10) 0.88881(19) 0.0059(3)
H6_4 H 0.2623 0.8857 0.0139
H7_4 H 0.3141 0.8996 0.1125
H18_4 H 0.6928 0.2674 0.9868
C22_4 C 0.70229(10) 0.11119(19) 0.9941(3)
H21_4 H 0.7377 0.1143 0.9861
H22_4 H 0.6859 0.1004 0.8875
loop_
_geom_bond_atom_site_label_1
_geom_bond_atom_site_label_2
_geom_bond_site_symmetry_1
_geom_bond_site_symmetry_2
H6 C6 1_555 1_555
H7 C6 1_555 1_555
N3 C13 1_555 1_555
C12 H12 1_555 1_555
C13 C12 1_555 1_555
H13 C13 1_555 1_555
C14 N3 1_555 1_555
H14 C14 1_555 1_555
C15 C14 1_555 1_555
H15 C15 1_555 1_555
C16 C12 1_555 1_555
C17 N4 1_555 1_555
H16 C17 1_555 1_555
Cu2 N3 1_555 1_555
O5 C18 1_555 1_555
O6 Cu2 1_555 1_555
O7 C18 1_555 1_555
O8 C20 1_555 1_555
C18 C21 1_555 1_555
C19 H17 1_555 1_555
C20 O6 1_555 1_555
C21 H19 1_555 1_555
H20 C21 1_555 1_555
Cu4 Cu2 1_555 1_555
Cu8 O7 1_555 1_555
O9 Cu2 1_555 1_555
O12 Cu2 1_555 1_555
O13 Cu2 1_555 1_555
C15 C16 1_555 1_555
C16 C17 1_555 1_555
O8 Cu4 1_555 1_555
C19 C20 1_555 1_555
Cu1 O2 1_555 1_555
O1 C1 1_555 1_555
O2 C4 1_555 1_555
O3 C1 1_555 1_555
O4 C4 1_555 1_555
N1 Cu1 1_555 1_555
C1 C5 1_555 1_555
C2 H1 1_555 1_555
C3 H3 1_555 1_555
C4 C2 1_555 1_555
C5 H4 1_555 1_555
H5 C5 1_555 1_555
C7 N1 1_555 1_555
H8 C7 1_555 1_555
C8 N1 1_555 1_555
H9 C8 1_555 1_555
C9 C8 1_555 1_555
H10 C9 1_555 1_555
N2 C11 1_555 1_555
C10 C3 1_555 1_555
C11 C10 1_555 1_555
H11 C11 1_555 1_555
H21 C22 1_555 1_555
H22 C22 1_555 1_555
Cu5 O3 1_555 1_555
Cu7 Cu1 1_555 1_555
O10 Cu1 1_555 1_555
O11 Cu1 1_555 1_555
O14 Cu1 1_555 1_555
O4 Cu7 1_555 1_555
C3 C7 1_555 1_555
C9 C10 1_555 1_555
Cu3 O2_2 1_555 1_555
O9 C1_2 1_555 1_555
O2_2 C4_2 1_555 1_555
O3_2 C1_2 1_555 1_555
O4_2 C4_2 1_555 1_555
N1_2 Cu3 1_555 1_555
C1_2 C5_2 1_555 1_555
C2_2 H1_2 1_555 1_555
H2_2 C2_2 1_555 1_555
C3_2 H3_2 1_555 1_555
C4_2 C2_2 1_555 1_555
C5_2 H4_2 1_555 1_555
H5_2 C5_2 1_555 1_555
C6_2 C2_2 1_555 1_555
H6_2 C6_2 1_555 1_555
H7_2 C6_2 1_555 1_555
C7_2 N1_2 1_555 1_555
H8_2 C7_2 1_555 1_555
C8_2 N1_2 1_555 1_555
H9_2 C8_2 1_555 1_555
C9_2 C8_2 1_555 1_555
H10_2 C9_2 1_555 1_555
N2_2 C11_2 1_555 1_555
C10_2 C3_2 1_555 1_555
C11_2 C10_2 1_555 1_555
H11_2 C11_2 1_555 1_555
N3_2 C13_2 1_555 1_555
C12_2 H12_2 1_555 1_555
C13_2 C12_2 1_555 1_555
H13_2 C13_2 1_555 1_555
C14_2 N3_2 1_555 1_555
H14_2 C14_2 1_555 1_555
C15_2 C14_2 1_555 1_555
H15_2 C15_2 1_555 1_555
N4_2 N2_2 1_555 1_555
C16_2 C12_2 1_555 1_555
C17_2 N4_2 1_555 1_555
H16_2 C17_2 1_555 1_555
Cu6 N3_2 1_555 1_555
O10 C18_2 1_555 1_555
O6_2 Cu6 1_555 1_555
O7_2 C18_2 1_555 1_555
O8_2 C20_2 1_555 1_555
C18_2 C21_2 1_555 1_555
C19_2 H17_2 1_555 1_555
H18_2 C19_2 1_555 1_555
C20_2 O6_2 1_555 1_555
C21_2 H19_2 1_555 1_555
H20_2 C21_2 1_555 1_555
C22_2 C19_2 1_555 1_555
H21_2 C22_2 1_555 1_555
H22_2 C22_2 1_555 1_555
Cu4 O3_2 1_555 1_555
Cu7 O7_2 1_555 1_555
O11_2 Cu3 1_555 1_555
O12_2 Cu6 1_555 1_555
C3_2 C7_2 1_555 1_555
C5_2 C6_2 1_555 1_555
C9_2 C10_2 1_555 1_555
C15_2 C16_2 1_555 1_555
C16_2 C17_2 1_555 1_555
C19_2 C20_2 1_555 1_555
C21_2 C22_2 1_555 1_555
O1_2 C1_3 1_555 1_555
O11_2 C1_3 1_555 1_555
H10_3 C9_3 1_555 1_555
H11_3 C11_3 1_555 1_555
Cu4 O2_3 1_555 1_555
O2_3 C4_3 1_555 1_555
O13 C4_3 1_555 1_555
N1_3 Cu4 1_555 1_555
C2_3 H1_3 1_555 1_555
C3_3 H3_3 1_555 1_555
C4_3 C2_3 1_555 1_555
C5_3 H4_3 1_555 1_555
H5_3 C5_3 1_555 1_555
C7_3 N1_3 1_555 1_555
H8_3 C7_3 1_555 1_555
C8_3 N1_3 1_555 1_555
C10_3 C3_3 1_555 1_555
O10_2 Cu4 1_555 1_555
C3_3 C7_3 1_555 1_555
N3_3 C13_3 1_555 1_555
C12_3 H12_3 1_555 1_555
C13_3 C12_3 1_555 1_555
H13_3 C13_3 1_555 1_555
C14_3 N3_3 1_555 1_555
C16_3 C12_3 1_555 1_555
Cu7 N3_3 1_555 1_555
O6_3 Cu7 1_555 1_555
O14 C20_3 1_555 1_555
C19_3 H17_3 1_555 1_555
C20_3 O6_3 1_555 1_555
C21_3 H19_3 1_555 1_555
H20_3 C21_3 1_555 1_555
O9_2 Cu7 1_555 1_555
C19_3 C20_3 1_555 1_555
H15_3 C15_3 1_555 1_555
H16_3 C17_3 1_555 1_555
O5_2 C18_3 1_555 1_555
O12_2 C18_3 1_555 1_555
N3_4 C13_4 1_555 1_555
C12_4 H12_4 1_555 1_555
C13_4 C12_4 1_555 1_555
H13_4 C13_4 1_555 1_555
C14_4 N3_4 1_555 1_555
C16_4 C12_4 1_555 1_555
Cu8 N3_4 1_555 1_555
O6_4 Cu8 1_555 1_555
O14_2 C20_4 1_555 1_555
C19_4 H17_4 1_555 1_555
H18_3 C19_4 1_555 1_555
C20_4 O6_4 1_555 1_555
C21_4 H19_4 1_555 1_555
H20_4 C21_4 1_555 1_555
C22_3 C19_4 1_555 1_555
H21_3 C22_3 1_555 1_555
H22_3 C22_3 1_555 1_555
C19_4 C20_4 1_555 1_555
C21_4 C22_3 1_555 1_555
H15_4 C15_4 1_555 1_555
H16_4 C17_4 1_555 1_555
O10_2 C18_4 1_555 1_555
O12 C18_4 1_555 1_555
O9_2 C1_4 1_555 1_555
O11 C1_4 1_555 1_555
H10_4 C9_4 1_555 1_555
H11_4 C11_4 1_555 1_555
Cu5 O2_4 1_555 1_555
O2_4 C4_4 1_555 1_555
O13_2 C4_4 1_555 1_555
N1_4 Cu5 1_555 1_555
C2_4 H1_4 1_555 1_555
H2_3 C2_4 1_555 1_555
C3_4 H3_4 1_555 1_555
C4_4 C2_4 1_555 1_555
C5_4 H4_4 1_555 1_555
H5_4 C5_4 1_555 1_555
C6_3 C2_4 1_555 1_555
H6_3 C6_3 1_555 1_555
H7_3 C6_3 1_555 1_555
C7_4 N1_4 1_555 1_555
H8_4 C7_4 1_555 1_555
C8_4 N1_4 1_555 1_555
C10_4 C3_4 1_555 1_555
C3_4 C7_4 1_555 1_555
C5_4 C6_3 1_555 1_555
H6_4 C6_4 1_555 1_555
H7_4 C6_4 1_555 1_555
H21_4 C22_4 1_555 1_555
H22_4 C22_4 1_555 1_555

#END
