
###############################################################################
#
# This file contains modified crystal structure data generated from the
# MOF subset of the Cambridge Structural Database (CSD) v543 
# hosted by the Cambridge Crystallographic Data Centre (CCDC).
#
# This work is licensed under the Creative Commons
# Attribution-NonCommercial-ShareAlike 4.0 International License.
# To view a copy of this license, visit
# http://creativecommons.org/licenses/by-nc-sa/4.0/
# or send a letter to
# Creative Commons, PO Box 1866, Mountain View, CA 94042, USA.
#
# CIF created using the CSD Python API on 29 September 2022
# The structure has been converted into the P1 space group
# The structure has a 3D framework
# The original CSD entry LOXWAY is in the monoclinic crystal system
# The framework has been calculated to contain at least 10.0% void space
# The void calculation uses a probe of radius 1.32A, grid spacing 0.4
#
###############################################################################

data_LOXWAY
_chemical_formula_moiety         '(C88 H88 Cu8 N8 O32)n'
_symmetry_cell_setting           triclinic
_symmetry_space_group_name_H-M   'P 1'
_symmetry_Int_Tables_number      1
_space_group_name_Hall           'P 1'
loop_
_symmetry_equiv_pos_site_id
_symmetry_equiv_pos_as_xyz
1 x,y,z
_cell_length_a                   24.241(2)
_cell_length_b                   13.2483(11)
_cell_length_c                   8.5771(7)
_cell_angle_alpha                90
_cell_angle_beta                 90.0800(10)
_cell_angle_gamma                90
_cell_volume                     2754.55
loop_
_atom_site_label
_atom_site_type_symbol
_atom_site_fract_x
_atom_site_fract_y
_atom_site_fract_z
H7 H 0.7627 0.3871 0.0082
H8 H 0.8215 0.4032 0.0899
N2 N 0.36104(7) 0.62991(13) 0.32494(18)
C12 C 0.43863(9) 0.63898(16) 0.1524(2)
H12 H 0.4655 0.6795 0.1017
C13 C 0.35869(8) 0.53023(16) 0.2991(2)
H13 H 0.3305 0.4921 0.3486
C14 C 0.40010(9) 0.68250(16) 0.2502(2)
H14 H 0.4014 0.7535 0.2651
C15 C 0.43750(8) 0.53410(16) 0.1289(2)
C16 C 0.47778(9) 0.48016(16) 0.0323(2)
H15 H 0.4713 0.4104 0.0145
C17 C 0.39569(9) 0.48055(16) 0.2031(2)
H16 H 0.3925 0.4098 0.1879
Cu2 Cu 0.295450(10) 0.706031(17) 0.44992(2)
O5 O 0.25309(7) 0.70761(11) 0.25285(17)
O6 O 0.17826(6) 0.34391(11) 0.09440(18)
O7 O 0.25593(7) 0.41811(11) 0.01334(18)
O8 O 0.17436(7) 0.77585(12) 0.33773(17)
C18 C 0.17702(9) 0.70964(15) 0.0792(2)
H17 H 0.1365 0.7071 0.0921
H18 H 0.1856 0.7647 0.0050
C19 C 0.18521(9) 0.52112(15) 0.1212(2)
H19 H 0.1447 0.5147 0.1328
H20 H 0.2005 0.5377 0.2251
C20 C 0.20356(8) 0.73309(15) 0.2355(2)
C21 C 0.20812(8) 0.41980(15) 0.0710(2)
C22 C 0.19710(9) 0.60900(15) 0.0112(2)
Cu4 Cu 0.204550(10) 0.793969(17) 0.55008(2)
Cu6 Cu 0.704550(10) 0.706031(17) 0.05008(2)
Cu8 Cu 0.204550(10) 0.206031(17) 0.05008(2)
O10 O 0.32174(6) 0.84391(11) 0.40560(18)
O11 O 0.25593(7) 0.58189(11) 0.51334(18)
O13 O 0.32564(7) 0.72415(12) 0.66227(17)
Cu1 Cu 0.704550(10) 0.293969(17) 0.55008(2)
O1 O 0.74691(7) 0.29239(11) 0.74715(17)
O2 O 0.82174(6) 0.65609(11) 0.90560(18)
O3 O 0.74407(7) 0.58189(11) 0.98666(18)
O4 O 0.82564(7) 0.22415(12) 0.66227(17)
N1 N 0.63896(7) 0.37009(13) 0.67506(18)
C1 C 0.82298(9) 0.29036(15) 0.9208(2)
H1 H 0.8635 0.2929 0.9079
H2 H 0.8144 0.2353 0.9950
C2 C 0.81479(9) 0.47888(15) 0.8788(2)
H3 H 0.8553 0.4853 0.8672
H4 H 0.7995 0.4623 0.7749
C3 C 0.79644(8) 0.26691(15) 0.7645(2)
C4 C 0.56137(9) 0.36102(16) 0.8476(2)
H5 H 0.5345 0.3205 0.8983
C5 C 0.79188(8) 0.58020(15) 0.9290(2)
C6 C 0.64131(8) 0.46977(16) 0.7009(2)
H6 H 0.6695 0.5079 0.6514
C7 C 0.80290(9) 0.39100(15) 0.9888(2)
C8 C 0.59990(9) 0.31750(16) 0.7498(2)
H9 H 0.5986 0.2465 0.7349
C9 C 0.56250(8) 0.46590(16) 0.8711(2)
C10 C 0.52222(9) 0.51984(16) 0.9677(2)
H10 H 0.5287 0.5896 0.9855
C11 C 0.60431(9) 0.51945(16) 0.7969(2)
H11 H 0.6075 0.5902 0.8121
H21 H 0.2373 0.6129 0.9918
H22 H 0.1785 0.5968 0.9101
Cu3 Cu 0.295450(10) 0.293969(17) 0.94992(2)
Cu5 Cu 0.795450(10) 0.793969(17) 0.94992(2)
Cu7 Cu 0.795450(10) 0.206031(17) 0.44992(2)
O9 O 0.67826(6) 0.15609(11) 0.59440(18)
O12 O 0.74407(7) 0.41811(11) 0.48666(18)
O14 O 0.67436(7) 0.27585(12) 0.33773(17)
O14_2 O 0.32564(7) 0.27585(12) 0.16227(17)
O1_2 O 0.25309(7) 0.29239(11) 0.75285(17)
O2_2 O 0.17826(6) 0.65609(11) 0.59440(18)
O4_2 O 0.17436(7) 0.22415(12) 0.83773(17)
N1_2 N 0.36104(7) 0.37009(13) 0.82494(18)
C1_2 C 0.17702(9) 0.29036(15) 0.5792(2)
H1_2 H 0.1365 0.2929 0.5921
H2_2 H 0.1856 0.2353 0.5050
C2_2 C 0.18521(9) 0.47888(15) 0.6212(2)
H3_2 H 0.1447 0.4853 0.6328
H4_2 H 0.2005 0.4623 0.7251
C3_2 C 0.20356(8) 0.26691(15) 0.7355(2)
C4_2 C 0.43863(9) 0.36102(16) 0.6524(2)
H5_2 H 0.4655 0.3205 0.6017
C5_2 C 0.20812(8) 0.58020(15) 0.5710(2)
C6_2 C 0.35869(8) 0.46977(16) 0.7991(2)
H6_2 H 0.3305 0.5079 0.8486
C7_2 C 0.19710(9) 0.39100(15) 0.5112(2)
H7_2 H 0.2373 0.3871 0.4918
H8_2 H 0.1785 0.4032 0.4101
C8_2 C 0.40010(9) 0.31750(16) 0.7502(2)
H9_2 H 0.4014 0.2465 0.7651
C9_2 C 0.43750(8) 0.46590(16) 0.6289(2)
C10_2 C 0.47778(9) 0.51984(16) 0.5323(2)
H10_2 H 0.4713 0.5896 0.5145
C11_2 C 0.39569(9) 0.51945(16) 0.7031(2)
H11_2 H 0.3925 0.5902 0.6879
N2_2 N 0.63896(7) 0.62991(13) 0.17506(18)
C12_2 C 0.56137(9) 0.63898(16) 0.3476(2)
H12_2 H 0.5345 0.6795 0.3983
C13_2 C 0.64131(8) 0.53023(16) 0.2009(2)
H13_2 H 0.6695 0.4921 0.1514
C14_2 C 0.59990(9) 0.68250(16) 0.2498(2)
H14_2 H 0.5986 0.7535 0.2349
C15_2 C 0.56250(8) 0.53410(16) 0.3711(2)
C16_2 C 0.52222(9) 0.48016(16) 0.4677(2)
H15_2 H 0.5287 0.4104 0.4855
C17_2 C 0.60431(9) 0.48055(16) 0.2969(2)
H16_2 H 0.6075 0.4098 0.3121
O5_2 O 0.74691(7) 0.70761(11) 0.24715(17)
O6_2 O 0.82174(6) 0.34391(11) 0.40560(18)
O8_2 O 0.82564(7) 0.77585(12) 0.16227(17)
C18_2 C 0.82298(9) 0.70964(15) 0.4208(2)
H17_2 H 0.8635 0.7071 0.4079
H18_2 H 0.8144 0.7647 0.4950
C19_2 C 0.81479(9) 0.52112(15) 0.3788(2)
H19_2 H 0.8553 0.5147 0.3672
H20_2 H 0.7995 0.5377 0.2749
C20_2 C 0.79644(8) 0.73309(15) 0.2645(2)
C21_2 C 0.79188(8) 0.41980(15) 0.4290(2)
C22_2 C 0.80290(9) 0.60900(15) 0.4888(2)
H21_2 H 0.7627 0.6129 0.5082
H22_2 H 0.8215 0.5968 0.5899
O9_2 O 0.32174(6) 0.15609(11) 0.90560(18)
O10_2 O 0.67826(6) 0.84391(11) 0.09440(18)
O13_2 O 0.67436(7) 0.72415(12) 0.83773(17)
O3_2 O 0.24407(7) 0.08189(11) 0.98666(18)
C5_3 C 0.29188(8) 0.08020(15) 0.9290(2)
H6_3 H 0.1695 0.0079 0.6514
C10_3 C 0.02222(9) 0.01984(16) 0.9677(2)
H10_3 H 0.0287 0.0896 0.9855
C11_3 C 0.10431(9) 0.01945(16) 0.7969(2)
H11_3 H 0.1075 0.0902 0.8121
O1_3 O 0.24691(7) 0.79239(11) 0.74715(17)
N1_3 N 0.13896(7) 0.87009(13) 0.67506(18)
C1_3 C 0.32298(9) 0.79036(15) 0.9208(2)
H1_3 H 0.3635 0.7929 0.9079
H2_3 H 0.3144 0.7353 0.9950
C2_3 C 0.31479(9) 0.97888(15) 0.8788(2)
H3_3 H 0.3553 0.9853 0.8672
H4_3 H 0.2995 0.9623 0.7749
C3_3 C 0.29644(8) 0.76691(15) 0.7645(2)
C4_3 C 0.06137(9) 0.86102(16) 0.8476(2)
H5_3 H 0.0345 0.8205 0.8983
C6_3 C 0.14131(8) 0.96977(16) 0.7009(2)
C7_3 C 0.30290(9) 0.89100(15) 0.9888(2)
C8_3 C 0.09990(9) 0.81750(16) 0.7498(2)
H9_3 H 0.0986 0.7465 0.7349
C9_3 C 0.06250(8) 0.96590(16) 0.8711(2)
O12_2 O 0.24407(7) 0.91811(11) 0.48666(18)
N2_3 N 0.86104(7) 0.12991(13) 0.32494(18)
C12_3 C 0.93863(9) 0.13898(16) 0.1524(2)
H12_3 H 0.9655 0.1795 0.1017
C13_3 C 0.85869(8) 0.03023(16) 0.2991(2)
C14_3 C 0.90010(9) 0.18250(16) 0.2502(2)
H14_3 H 0.9014 0.2535 0.2651
C15_3 C 0.93750(8) 0.03410(16) 0.1289(2)
O5_3 O 0.75309(7) 0.20761(11) 0.25285(17)
C18_3 C 0.67702(9) 0.20964(15) 0.0792(2)
H17_3 H 0.6365 0.2071 0.0921
H18_3 H 0.6856 0.2647 0.0050
C19_3 C 0.68521(9) 0.02112(15) 0.1212(2)
H19_3 H 0.6447 0.0147 0.1328
H20_3 H 0.7005 0.0377 0.2251
C20_3 C 0.70356(8) 0.23309(15) 0.2355(2)
C22_3 C 0.69710(9) 0.10900(15) 0.0112(2)
O11_2 O 0.75593(7) 0.08189(11) 0.51334(18)
H13_3 H 0.8305 0.9921 0.3486
C16_3 C 0.97778(9) 0.98016(16) 0.0323(2)
H15_3 H 0.9713 0.9104 0.0145
C17_3 C 0.89569(9) 0.98055(16) 0.2031(2)
H16_3 H 0.8925 0.9098 0.1879
O7_2 O 0.75593(7) 0.91811(11) 0.01334(18)
C21_3 C 0.70812(8) 0.91980(15) 0.0710(2)
N2_4 N 0.13896(7) 0.12991(13) 0.17506(18)
C12_4 C 0.06137(9) 0.13898(16) 0.3476(2)
H12_4 H 0.0345 0.1795 0.3983
C13_4 C 0.14131(8) 0.03023(16) 0.2009(2)
C14_4 C 0.09990(9) 0.18250(16) 0.2498(2)
H14_4 H 0.0986 0.2535 0.2349
C15_4 C 0.06250(8) 0.03410(16) 0.3711(2)
O5_4 O 0.24691(7) 0.20761(11) 0.24715(17)
C18_4 C 0.32298(9) 0.20964(15) 0.4208(2)
H17_4 H 0.3635 0.2071 0.4079
H18_4 H 0.3144 0.2647 0.4950
C19_4 C 0.31479(9) 0.02112(15) 0.3788(2)
H19_4 H 0.3553 0.0147 0.3672
H20_4 H 0.2995 0.0377 0.2749
C20_4 C 0.29644(8) 0.23309(15) 0.2645(2)
C22_4 C 0.30290(9) 0.10900(15) 0.4888(2)
H21_3 H 0.2627 0.1129 0.5082
H22_3 H 0.3215 0.0968 0.5899
H13_4 H 0.1695 0.9921 0.1514
C16_4 C 0.02222(9) 0.98016(16) 0.4677(2)
H15_4 H 0.0287 0.9104 0.4855
C17_4 C 0.10431(9) 0.98055(16) 0.2969(2)
H16_4 H 0.1075 0.9098 0.3121
C21_4 C 0.29188(8) 0.91980(15) 0.4290(2)
C5_4 C 0.70812(8) 0.08020(15) 0.5710(2)
H6_4 H 0.8305 0.0079 0.8486
C10_4 C 0.97778(9) 0.01984(16) 0.5323(2)
H10_4 H 0.9713 0.0896 0.5145
C11_4 C 0.89569(9) 0.01945(16) 0.7031(2)
H11_4 H 0.8925 0.0902 0.6879
O1_4 O 0.75309(7) 0.79239(11) 0.75285(17)
N1_4 N 0.86104(7) 0.87009(13) 0.82494(18)
C1_4 C 0.67702(9) 0.79036(15) 0.5792(2)
H1_4 H 0.6365 0.7929 0.5921
H2_4 H 0.6856 0.7353 0.5050
C2_4 C 0.68521(9) 0.97888(15) 0.6212(2)
H3_4 H 0.6447 0.9853 0.6328
H4_4 H 0.7005 0.9623 0.7251
C3_4 C 0.70356(8) 0.76691(15) 0.7355(2)
C4_4 C 0.93863(9) 0.86102(16) 0.6524(2)
H5_4 H 0.9655 0.8205 0.6017
C6_4 C 0.85869(8) 0.96977(16) 0.7991(2)
C7_4 C 0.69710(9) 0.89100(15) 0.5112(2)
H7_3 H 0.7373 0.8871 0.4918
H8_3 H 0.6785 0.9032 0.4101
C8_4 C 0.90010(9) 0.81750(16) 0.7502(2)
H9_4 H 0.9014 0.7465 0.7651
C9_4 C 0.93750(8) 0.96590(16) 0.6289(2)
H7_4 H 0.2627 0.8871 0.0082
H8_4 H 0.3215 0.9032 0.0899
H21_4 H 0.7373 0.1129 0.9918
H22_4 H 0.6785 0.0968 0.9101
loop_
_geom_bond_atom_site_label_1
_geom_bond_atom_site_label_2
_geom_bond_site_symmetry_1
_geom_bond_site_symmetry_2
N2 C13 1_555 1_555
C12 H12 1_555 1_555
C13 H13 1_555 1_555
C14 N2 1_555 1_555
H14 C14 1_555 1_555
C15 C12 1_555 1_555
H15 C16 1_555 1_555
C17 C13 1_555 1_555
H16 C17 1_555 1_555
Cu2 N2 1_555 1_555
O5 Cu2 1_555 1_555
O6 C21 1_555 1_555
O7 C21 1_555 1_555
O8 C20 1_555 1_555
C18 H17 1_555 1_555
H18 C18 1_555 1_555
C19 H19 1_555 1_555
H20 C19 1_555 1_555
C20 O5 1_555 1_555
C21 C19 1_555 1_555
C22 C18 1_555 1_555
Cu4 Cu2 1_555 1_555
Cu8 O6 1_555 1_555
O10 Cu2 1_555 1_555
O11 Cu2 1_555 1_555
O13 Cu2 1_555 1_555
C12 C14 1_555 1_555
C15 C16 1_555 1_555
C15 C17 1_555 1_555
O8 Cu4 1_555 1_555
C18 C20 1_555 1_555
C19 C22 1_555 1_555
Cu1 O1 1_555 1_555
O1 C3 1_555 1_555
O2 C5 1_555 1_555
O3 C5 1_555 1_555
O4 C3 1_555 1_555
N1 Cu1 1_555 1_555
C1 H1 1_555 1_555
H2 C1 1_555 1_555
C2 H3 1_555 1_555
H4 C2 1_555 1_555
C3 C1 1_555 1_555
C4 H5 1_555 1_555
C5 C2 1_555 1_555
C6 N1 1_555 1_555
H6 C6 1_555 1_555
C7 C1 1_555 1_555
C8 N1 1_555 1_555
H9 C8 1_555 1_555
C9 C4 1_555 1_555
C10 C9 1_555 1_555
H10 C10 1_555 1_555
C11 C6 1_555 1_555
H11 C11 1_555 1_555
Cu5 O2 1_555 1_555
Cu7 Cu1 1_555 1_555
O9 Cu1 1_555 1_555
O12 Cu1 1_555 1_555
O14 Cu1 1_555 1_555
O4 Cu7 1_555 1_555
C2 C7 1_555 1_555
C4 C8 1_555 1_555
C9 C11 1_555 1_555
Cu3 O1_2 1_555 1_555
O1_2 C3_2 1_555 1_555
O2_2 C5_2 1_555 1_555
O11 C5_2 1_555 1_555
O4_2 C3_2 1_555 1_555
N1_2 Cu3 1_555 1_555
C1_2 H1_2 1_555 1_555
H2_2 C1_2 1_555 1_555
C2_2 H3_2 1_555 1_555
H4_2 C2_2 1_555 1_555
C3_2 C1_2 1_555 1_555
C4_2 H5_2 1_555 1_555
C5_2 C2_2 1_555 1_555
C6_2 N1_2 1_555 1_555
H6_2 C6_2 1_555 1_555
C7_2 C1_2 1_555 1_555
H7_2 C7_2 1_555 1_555
H8_2 C7_2 1_555 1_555
C8_2 N1_2 1_555 1_555
H9_2 C8_2 1_555 1_555
C9_2 C4_2 1_555 1_555
C10_2 C9_2 1_555 1_555
H10_2 C10_2 1_555 1_555
C11_2 C6_2 1_555 1_555
H11_2 C11_2 1_555 1_555
N2_2 C13_2 1_555 1_555
C12_2 H12_2 1_555 1_555
C13_2 H13_2 1_555 1_555
C14_2 N2_2 1_555 1_555
H14_2 C14_2 1_555 1_555
C15_2 C12_2 1_555 1_555
C16_2 C10_2 1_555 1_555
H15_2 C16_2 1_555 1_555
C17_2 C13_2 1_555 1_555
H16_2 C17_2 1_555 1_555
Cu6 N2_2 1_555 1_555
O5_2 Cu6 1_555 1_555
O6_2 C21_2 1_555 1_555
O12 C21_2 1_555 1_555
O8_2 C20_2 1_555 1_555
C18_2 H17_2 1_555 1_555
H18_2 C18_2 1_555 1_555
C19_2 H19_2 1_555 1_555
H20_2 C19_2 1_555 1_555
C20_2 O5_2 1_555 1_555
C21_2 C19_2 1_555 1_555
C22_2 C18_2 1_555 1_555
H21_2 C22_2 1_555 1_555
H22_2 C22_2 1_555 1_555
Cu4 O2_2 1_555 1_555
Cu7 O6_2 1_555 1_555
O9_2 Cu3 1_555 1_555
O10_2 Cu6 1_555 1_555
C2_2 C7_2 1_555 1_555
C4_2 C8_2 1_555 1_555
C9_2 C11_2 1_555 1_555
C12_2 C14_2 1_555 1_555
C15_2 C16_2 1_555 1_555
C15_2 C17_2 1_555 1_555
C18_2 C20_2 1_555 1_555
C19_2 C22_2 1_555 1_555
O9_2 C5_3 1_555 1_555
O3_2 C5_3 1_555 1_555
H10_3 C10_3 1_555 1_555
H11_3 C11_3 1_555 1_555
Cu4 O1_3 1_555 1_555
O1_3 C3_3 1_555 1_555
O13 C3_3 1_555 1_555
N1_3 Cu4 1_555 1_555
C1_3 H1_3 1_555 1_555
H2_3 C1_3 1_555 1_555
C2_3 H3_3 1_555 1_555
H4_3 C2_3 1_555 1_555
C3_3 C1_3 1_555 1_555
C4_3 H5_3 1_555 1_555
C6_3 N1_3 1_555 1_555
C7_3 C1_3 1_555 1_555
C8_3 N1_3 1_555 1_555
H9_3 C8_3 1_555 1_555
C9_3 C4_3 1_555 1_555
O12_2 Cu4 1_555 1_555
C2_3 C7_3 1_555 1_555
C4_3 C8_3 1_555 1_555
N2_3 C13_3 1_555 1_555
C12_3 H12_3 1_555 1_555
C14_3 N2_3 1_555 1_555
H14_3 C14_3 1_555 1_555
C15_3 C12_3 1_555 1_555
Cu7 N2_3 1_555 1_555
O5_3 Cu7 1_555 1_555
O14 C20_3 1_555 1_555
C18_3 H17_3 1_555 1_555
H18_3 C18_3 1_555 1_555
C19_3 H19_3 1_555 1_555
H20_3 C19_3 1_555 1_555
C20_3 O5_3 1_555 1_555
C22_3 C18_3 1_555 1_555
O11_2 Cu7 1_555 1_555
C12_3 C14_3 1_555 1_555
C18_3 C20_3 1_555 1_555
C19_3 C22_3 1_555 1_555
H15_3 C16_3 1_555 1_555
H16_3 C17_3 1_555 1_555
O10_2 C21_3 1_555 1_555
O7_2 C21_3 1_555 1_555
N2_4 C13_4 1_555 1_555
C12_4 H12_4 1_555 1_555
C14_4 N2_4 1_555 1_555
H14_4 C14_4 1_555 1_555
C15_4 C12_4 1_555 1_555
Cu8 N2_4 1_555 1_555
O5_4 Cu8 1_555 1_555
O14_2 C20_4 1_555 1_555
C18_4 H17_4 1_555 1_555
H18_4 C18_4 1_555 1_555
C19_4 H19_4 1_555 1_555
H20_4 C19_4 1_555 1_555
C20_4 O5_4 1_555 1_555
C22_4 C18_4 1_555 1_555
H21_3 C22_4 1_555 1_555
H22_3 C22_4 1_555 1_555
C12_4 C14_4 1_555 1_555
C18_4 C20_4 1_555 1_555
C19_4 C22_4 1_555 1_555
H15_4 C16_4 1_555 1_555
H16_4 C17_4 1_555 1_555
O10 C21_4 1_555 1_555
O12_2 C21_4 1_555 1_555
O9 C5_4 1_555 1_555
O11_2 C5_4 1_555 1_555
H10_4 C10_4 1_555 1_555
H11_4 C11_4 1_555 1_555
Cu5 O1_4 1_555 1_555
O1_4 C3_4 1_555 1_555
O13_2 C3_4 1_555 1_555
N1_4 Cu5 1_555 1_555
C1_4 H1_4 1_555 1_555
H2_4 C1_4 1_555 1_555
C2_4 H3_4 1_555 1_555
H4_4 C2_4 1_555 1_555
C3_4 C1_4 1_555 1_555
C4_4 H5_4 1_555 1_555
C6_4 N1_4 1_555 1_555
C7_4 C1_4 1_555 1_555
H7_3 C7_4 1_555 1_555
H8_3 C7_4 1_555 1_555
C8_4 N1_4 1_555 1_555
H9_4 C8_4 1_555 1_555
C9_4 C4_4 1_555 1_555
C2_4 C7_4 1_555 1_555
C4_4 C8_4 1_555 1_555

#END
