
###############################################################################
#
# This file contains modified crystal structure data generated from the
# MOF subset of the Cambridge Structural Database (CSD) v543 
# hosted by the Cambridge Crystallographic Data Centre (CCDC).
#
# This work is licensed under the Creative Commons
# Attribution-NonCommercial-ShareAlike 4.0 International License.
# To view a copy of this license, visit
# http://creativecommons.org/licenses/by-nc-sa/4.0/
# or send a letter to
# Creative Commons, PO Box 1866, Mountain View, CA 94042, USA.
#
# CIF created using the CSD Python API on 29 September 2022
# The structure has been converted into the P1 space group
# The structure has a 3D framework
# The original CSD entry LOXXOL01 is in the orthorhombic crystal system
# The framework has been calculated to contain at least 10.0% void space
# The void calculation uses a probe of radius 1.32A, grid spacing 0.4
# The framework is charged, counterions have been retained in the structure
#
###############################################################################

data_LOXXOL01
_chemical_formula_moiety         '(C160 H128 Ag6 N32 6+)n'
_symmetry_cell_setting           triclinic
_symmetry_space_group_name_H-M   'P 1'
_symmetry_Int_Tables_number      1
_space_group_name_Hall           'P 1'
loop_
_symmetry_equiv_pos_site_id
_symmetry_equiv_pos_as_xyz
1 x,y,z
_cell_length_a                   9.925(5)
_cell_length_b                   12.962(5)
_cell_length_c                   34.493(5)
_cell_angle_alpha                90
_cell_angle_beta                 90
_cell_angle_gamma                90
_cell_volume                     4437.45
loop_
_atom_site_label
_atom_site_type_symbol
_atom_site_fract_x
_atom_site_fract_y
_atom_site_fract_z
Ag1 Ag 0.1250 0.23981(3) 0.1250
C2 C 0.0245(3) 0.2330(3) 0.04083(10)
H2 H 0.1166 0.2305 0.0359
Ag2 Ag 0.1250 0.01019(3) 0.1250
N3 N 0.2668(3) 0.2310(2) 0.17240(8)
C1 C 0.3130(3) 0.0113(3) 0.00963(9)
N1 N 0.2668(3) 0.0190(2) 0.07760(8)
C2_2 C 0.2255(3) 0.0170(3) 0.04083(10)
H2_2 H 0.1334 0.0195 0.0359
C3 C 0.4932(3) 0.0086(3) 0.05453(9)
H3 H 0.5845 0.0058 0.0604
C4 C 0.4513(3) 0.0054(2) 0.01629(8)
C5 C 0.3992(4) 0.0159(3) 0.08399(10)
H4 H 0.4298 0.0189 0.1095
C6 C 0.6870(3) 0.9887(3) 0.99037(9)
N2 N 0.7332(3) 0.9810(2) 0.92240(8)
C7 C 0.7745(3) 0.9830(3) 0.95917(10)
H6 H 0.8666 0.9805 0.9641
C8 C 0.5068(3) 0.9914(3) 0.94547(9)
H7 H 0.4155 0.9942 0.9396
C9 C 0.5487(3) 0.9946(2) 0.98371(8)
C10 C 0.6008(4) 0.9841(3) 0.91601(10)
H8 H 0.5702 0.9811 0.8905
Ag3 Ag 0.8750 0.98981(3) 0.8750
C2_3 C 0.0245(3) 0.0170(3) 0.20917(10)
H2_3 H 0.1166 0.0195 0.2141
C1_2 C 0.3130(3) 0.2387(3) 0.24037(9)
H1 H 0.2798 0.2386 0.2656
C2_4 C 0.2255(3) 0.2330(3) 0.20917(10)
H2_4 H 0.1334 0.2305 0.2141
C3_2 C 0.4932(3) 0.2414(3) 0.19547(9)
H3_2 H 0.5845 0.2442 0.1896
C4_2 C 0.4513(3) 0.2446(2) 0.23371(8)
C5_2 C 0.3992(4) 0.2341(3) 0.16601(10)
H4_2 H 0.4298 0.2311 0.1405
C6_2 C 0.6870(3) 0.2613(3) 0.25963(9)
H5 H 0.7202 0.2614 0.2344
N2_2 N 0.7332(3) 0.2690(2) 0.32760(8)
C7_2 C 0.7745(3) 0.2670(3) 0.29083(10)
H6_2 H 0.8666 0.2695 0.2859
C8_2 C 0.5068(3) 0.2586(3) 0.30453(9)
H7_2 H 0.4155 0.2558 0.3104
C9_2 C 0.5487(3) 0.2554(2) 0.26629(8)
C10_2 C 0.6008(4) 0.2659(3) 0.33399(10)
H8_2 H 0.5702 0.2689 0.3595
Ag3_2 Ag 0.8750 0.26019(3) 0.3750
Ag1_2 Ag 0.1250 0.73981(3) 0.6250
C2_5 C 0.0245(3) 0.7330(3) 0.54083(10)
H2_5 H 0.1166 0.7305 0.5359
Ag2_2 Ag 0.1250 0.51019(3) 0.6250
N3_2 N 0.2668(3) 0.7310(2) 0.67240(8)
C1_3 C 0.3130(3) 0.5113(3) 0.50963(9)
H1_2 H 0.2798 0.5114 0.4844
N1_2 N 0.2668(3) 0.5190(2) 0.57760(8)
C2_6 C 0.2255(3) 0.5170(3) 0.54083(10)
H2_6 H 0.1334 0.5195 0.5359
C3_3 C 0.4932(3) 0.5086(3) 0.55453(9)
H3_3 H 0.5845 0.5058 0.5604
C4_3 C 0.4513(3) 0.5054(2) 0.51629(8)
C5_3 C 0.3992(4) 0.5159(3) 0.58399(10)
H4_3 H 0.4298 0.5189 0.6095
C6_3 C 0.6870(3) 0.4887(3) 0.49037(9)
H5_2 H 0.7202 0.4886 0.5156
N2_3 N 0.7332(3) 0.4810(2) 0.42240(8)
C7_3 C 0.7745(3) 0.4830(3) 0.45917(10)
H6_3 H 0.8666 0.4805 0.4641
C8_3 C 0.5068(3) 0.4914(3) 0.44547(9)
H7_3 H 0.4155 0.4942 0.4396
C9_3 C 0.5487(3) 0.4946(2) 0.48371(8)
C10_3 C 0.6008(4) 0.4841(3) 0.41601(10)
H8_3 H 0.5702 0.4811 0.3905
Ag3_3 Ag 0.8750 0.48981(3) 0.3750
C2_7 C 0.0245(3) 0.5170(3) 0.70917(10)
H2_7 H 0.1166 0.5195 0.7141
C1_4 C 0.3130(3) 0.7387(3) 0.74037(9)
H1_3 H 0.2798 0.7386 0.7656
C2_8 C 0.2255(3) 0.7330(3) 0.70917(10)
H2_8 H 0.1334 0.7305 0.7141
C3_4 C 0.4932(3) 0.7414(3) 0.69547(9)
H3_4 H 0.5845 0.7442 0.6896
C4_4 C 0.4513(3) 0.7446(2) 0.73371(8)
C5_4 C 0.3992(4) 0.7341(3) 0.66601(10)
H4_4 H 0.4298 0.7311 0.6405
C6_4 C 0.6870(3) 0.7613(3) 0.75963(9)
H5_3 H 0.7202 0.7614 0.7344
N2_4 N 0.7332(3) 0.7690(2) 0.82760(8)
C7_4 C 0.7745(3) 0.7670(3) 0.79083(10)
H6_4 H 0.8666 0.7695 0.7859
C8_4 C 0.5068(3) 0.7586(3) 0.80453(9)
H7_4 H 0.4155 0.7558 0.8104
C9_4 C 0.5487(3) 0.7554(2) 0.76629(8)
C10_4 C 0.6008(4) 0.7659(3) 0.83399(10)
H8_4 H 0.5702 0.7689 0.8595
Ag3_4 Ag 0.8750 0.76019(3) 0.8750
C7_5 C 0.9755(3) 0.2670(3) 0.45917(10)
H6_5 H 0.8834 0.2695 0.4641
C7_6 C 0.9755(3) 0.9830(3) 0.79083(10)
H6_6 H 0.8834 0.9805 0.7859
C7_7 C 0.9755(3) 0.7670(3) 0.95917(10)
H6_7 H 0.8834 0.7695 0.9641
C7_8 C 0.9755(3) 0.4830(3) 0.29083(10)
H6_8 H 0.8834 0.4805 0.2859
C1_5 C 0.9370(3) 0.2387(3) 0.00963(9)
N1_3 N 0.9832(3) 0.2310(2) 0.07760(8)
C3_5 C 0.7568(3) 0.2414(3) 0.05453(9)
H3_5 H 0.6655 0.2442 0.0604
C4_5 C 0.7987(3) 0.2446(2) 0.01629(8)
C5_5 C 0.8508(4) 0.2341(3) 0.08399(10)
H4_5 H 0.8202 0.2311 0.1095
H5_4 H 0.5298 0.2614 0.0156
H1_4 H 0.9702 0.2386 0.9844
C6_5 C 0.5630(3) 0.2613(3) 0.99037(9)
N2_5 N 0.5168(3) 0.2690(2) 0.92240(8)
C7_9 C 0.4755(3) 0.2670(3) 0.95917(10)
H6_9 H 0.3834 0.2695 0.9641
C8_5 C 0.7432(3) 0.2586(3) 0.94547(9)
H7_5 H 0.8345 0.2558 0.9396
C9_5 C 0.7013(3) 0.2554(2) 0.98371(8)
C10_5 C 0.6492(4) 0.2659(3) 0.91601(10)
H8_5 H 0.6798 0.2689 0.8905
Ag3_5 Ag 0.3750 0.26019(3) 0.8750
N3_3 N 0.9832(3) 0.5190(2) 0.67240(8)
C1_6 C 0.9370(3) 0.5113(3) 0.74037(9)
H1_5 H 0.9702 0.5114 0.7656
C3_6 C 0.7568(3) 0.5086(3) 0.69547(9)
H3_6 H 0.6655 0.5058 0.6896
C4_6 C 0.7987(3) 0.5054(2) 0.73371(8)
C5_6 C 0.8508(4) 0.5159(3) 0.66601(10)
H4_6 H 0.8202 0.5189 0.6405
C6_6 C 0.5630(3) 0.4887(3) 0.75963(9)
H5_5 H 0.5298 0.4886 0.7344
N2_6 N 0.5168(3) 0.4810(2) 0.82760(8)
C7_10 C 0.4755(3) 0.4830(3) 0.79083(10)
H6_10 H 0.3834 0.4805 0.7859
C8_6 C 0.7432(3) 0.4914(3) 0.80453(9)
H7_6 H 0.8345 0.4942 0.8104
C9_6 C 0.7013(3) 0.4946(2) 0.76629(8)
C10_6 C 0.6492(4) 0.4841(3) 0.83399(10)
H8_6 H 0.6798 0.4811 0.8595
Ag3_6 Ag 0.3750 0.48981(3) 0.8750
H3_7 H 0.0845 0.2442 0.6896
C6_7 C 0.1870(3) 0.2613(3) 0.75963(9)
H5_6 H 0.2202 0.2614 0.7344
N2_7 N 0.2332(3) 0.2690(2) 0.82760(8)
C7_11 C 0.2745(3) 0.2670(3) 0.79083(10)
H6_11 H 0.3666 0.2695 0.7859
C8_7 C 0.0068(3) 0.2586(3) 0.80453(9)
C9_7 C 0.0487(3) 0.2554(2) 0.76629(8)
C10_7 C 0.1008(4) 0.2659(3) 0.83399(10)
H8_7 H 0.0702 0.2689 0.8595
C6_8 C 0.1870(3) 0.4887(3) 0.99037(9)
N2_8 N 0.2332(3) 0.4810(2) 0.92240(8)
C7_12 C 0.2745(3) 0.4830(3) 0.95917(10)
H6_12 H 0.3666 0.4805 0.9641
C8_8 C 0.0068(3) 0.4914(3) 0.94547(9)
C9_8 C 0.0487(3) 0.4946(2) 0.98371(8)
C10_8 C 0.1008(4) 0.4841(3) 0.91601(10)
H8_8 H 0.0702 0.4811 0.8905
H1_6 H 0.2798 0.0114 0.9844
H5_7 H 0.7202 0.9886 0.0156
N3_4 N 0.9832(3) 0.0190(2) 0.17240(8)
C1_7 C 0.9370(3) 0.0113(3) 0.24037(9)
H1_7 H 0.9702 0.0114 0.2656
C3_7 C 0.7568(3) 0.0086(3) 0.19547(9)
H3_8 H 0.6655 0.0058 0.1896
C4_7 C 0.7987(3) 0.0054(2) 0.23371(8)
C5_7 C 0.8508(4) 0.0159(3) 0.16601(10)
H4_7 H 0.8202 0.0189 0.1405
C6_9 C 0.5630(3) 0.9887(3) 0.25963(9)
H5_8 H 0.5298 0.9886 0.2344
N2_9 N 0.5168(3) 0.9810(2) 0.32760(8)
C7_13 C 0.4755(3) 0.9830(3) 0.29083(10)
H6_13 H 0.3834 0.9805 0.2859
C8_9 C 0.7432(3) 0.9914(3) 0.30453(9)
H7_7 H 0.8345 0.9942 0.3104
C9_9 C 0.7013(3) 0.9946(2) 0.26629(8)
C10_9 C 0.6492(4) 0.9841(3) 0.33399(10)
H8_9 H 0.6798 0.9811 0.3595
Ag3_7 Ag 0.3750 0.98981(3) 0.3750
C1_8 C 0.9370(3) 0.7387(3) 0.50963(9)
H1_8 H 0.9702 0.7386 0.4844
N1_4 N 0.9832(3) 0.7310(2) 0.57760(8)
C3_8 C 0.7568(3) 0.7414(3) 0.55453(9)
H3_9 H 0.6655 0.7442 0.5604
C4_8 C 0.7987(3) 0.7446(2) 0.51629(8)
C5_8 C 0.8508(4) 0.7341(3) 0.58399(10)
H4_8 H 0.8202 0.7311 0.6095
C6_10 C 0.5630(3) 0.7613(3) 0.49037(9)
H5_9 H 0.5298 0.7614 0.5156
N2_10 N 0.5168(3) 0.7690(2) 0.42240(8)
C7_14 C 0.4755(3) 0.7670(3) 0.45917(10)
H6_14 H 0.3834 0.7695 0.4641
C8_10 C 0.7432(3) 0.7586(3) 0.44547(9)
H7_8 H 0.8345 0.7558 0.4396
C9_10 C 0.7013(3) 0.7554(2) 0.48371(8)
C10_10 C 0.6492(4) 0.7659(3) 0.41601(10)
H8_10 H 0.6798 0.7689 0.3905
Ag3_8 Ag 0.3750 0.76019(3) 0.3750
C6_11 C 0.1870(3) 0.9887(3) 0.49037(9)
H5_10 H 0.2202 0.9886 0.5156
N2_11 N 0.2332(3) 0.9810(2) 0.42240(8)
C7_15 C 0.2745(3) 0.9830(3) 0.45917(10)
H6_15 H 0.3666 0.9805 0.4641
C8_11 C 0.0068(3) 0.9914(3) 0.44547(9)
C9_11 C 0.0487(3) 0.9946(2) 0.48371(8)
C10_11 C 0.1008(4) 0.9841(3) 0.41601(10)
H8_11 H 0.0702 0.9811 0.3905
H3_10 H 0.0845 0.7442 0.1896
C6_12 C 0.1870(3) 0.7613(3) 0.25963(9)
H5_11 H 0.2202 0.7614 0.2344
N2_12 N 0.2332(3) 0.7690(2) 0.32760(8)
C7_16 C 0.2745(3) 0.7670(3) 0.29083(10)
H6_16 H 0.3666 0.7695 0.2859
C8_12 C 0.0068(3) 0.7586(3) 0.30453(9)
C9_12 C 0.0487(3) 0.7554(2) 0.26629(8)
C10_12 C 0.1008(4) 0.7659(3) 0.33399(10)
H8_12 H 0.0702 0.7689 0.3595
Ag1_3 Ag 0.6250 0.23981(3) 0.6250
C1_9 C 0.4370(3) 0.2387(3) 0.50963(9)
H1_9 H 0.4702 0.2386 0.4844
N1_5 N 0.4832(3) 0.2310(2) 0.57760(8)
C2_9 C 0.5245(3) 0.2330(3) 0.54083(10)
H2_9 H 0.6166 0.2305 0.5359
C3_9 C 0.2568(3) 0.2414(3) 0.55453(9)
H3_11 H 0.1655 0.2442 0.5604
C4_9 C 0.2987(3) 0.2446(2) 0.51629(8)
C5_9 C 0.3508(4) 0.2341(3) 0.58399(10)
H4_9 H 0.3202 0.2311 0.6095
C6_13 C 0.0630(3) 0.2613(3) 0.49037(9)
H5_12 H 0.0298 0.2614 0.5156
N2_13 N 0.0168(3) 0.2690(2) 0.42240(8)
C8_13 C 0.2432(3) 0.2586(3) 0.44547(9)
H7_9 H 0.3345 0.2558 0.4396
C9_13 C 0.2013(3) 0.2554(2) 0.48371(8)
C10_13 C 0.1492(4) 0.2659(3) 0.41601(10)
H8_13 H 0.1798 0.2689 0.3905
Ag2_3 Ag 0.6250 0.01019(3) 0.6250
N3_5 N 0.7668(3) 0.2310(2) 0.67240(8)
C1_10 C 0.8130(3) 0.0113(3) 0.50963(9)
H1_10 H 0.7798 0.0114 0.4844
N1_6 N 0.7668(3) 0.0190(2) 0.57760(8)
C2_10 C 0.7255(3) 0.0170(3) 0.54083(10)
H2_10 H 0.6334 0.0195 0.5359
C3_10 C 0.9932(3) 0.0086(3) 0.55453(9)
C4_10 C 0.9513(3) 0.0054(2) 0.51629(8)
C5_10 C 0.8992(4) 0.0159(3) 0.58399(10)
H4_10 H 0.9298 0.0189 0.6095
N3_6 N 0.4832(3) 0.0190(2) 0.67240(8)
C1_11 C 0.4370(3) 0.0113(3) 0.74037(9)
H1_11 H 0.4702 0.0114 0.7656
C2_11 C 0.5245(3) 0.0170(3) 0.70917(10)
H2_11 H 0.6166 0.0195 0.7141
C3_11 C 0.2568(3) 0.0086(3) 0.69547(9)
H3_12 H 0.1655 0.0058 0.6896
C4_11 C 0.2987(3) 0.0054(2) 0.73371(8)
C5_11 C 0.3508(4) 0.0159(3) 0.66601(10)
H4_11 H 0.3202 0.0189 0.6405
C1_12 C 0.8130(3) 0.2387(3) 0.74037(9)
H1_12 H 0.7798 0.2386 0.7656
C2_12 C 0.7255(3) 0.2330(3) 0.70917(10)
H2_12 H 0.6334 0.2305 0.7141
C3_12 C 0.9932(3) 0.2414(3) 0.69547(9)
C4_12 C 0.9513(3) 0.2446(2) 0.73371(8)
C5_12 C 0.8992(4) 0.2341(3) 0.66601(10)
H4_12 H 0.9298 0.2311 0.6405
H7_10 H 0.9155 0.2558 0.8104
H3_13 H 0.0845 0.0058 0.5604
H7_11 H 0.9155 0.9942 0.4396
C6_14 C 0.0630(3) 0.9887(3) 0.75963(9)
H5_13 H 0.0298 0.9886 0.7344
N2_14 N 0.0168(3) 0.9810(2) 0.82760(8)
C8_14 C 0.2432(3) 0.9914(3) 0.80453(9)
H7_12 H 0.3345 0.9942 0.8104
C9_14 C 0.2013(3) 0.9946(2) 0.76629(8)
C10_14 C 0.1492(4) 0.9841(3) 0.83399(10)
H8_14 H 0.1798 0.9811 0.8595
Ag1_4 Ag 0.6250 0.73981(3) 0.1250
C1_13 C 0.4370(3) 0.7387(3) 0.00963(9)
N1_7 N 0.4832(3) 0.7310(2) 0.07760(8)
C2_13 C 0.5245(3) 0.7330(3) 0.04083(10)
H2_13 H 0.6166 0.7305 0.0359
C3_13 C 0.2568(3) 0.7414(3) 0.05453(9)
H3_14 H 0.1655 0.7442 0.0604
C4_13 C 0.2987(3) 0.7446(2) 0.01629(8)
C5_13 C 0.3508(4) 0.7341(3) 0.08399(10)
H4_13 H 0.3202 0.7311 0.1095
H5_14 H 0.0298 0.7614 0.0156
Ag2_4 Ag 0.6250 0.51019(3) 0.1250
N3_7 N 0.7668(3) 0.7310(2) 0.17240(8)
C1_14 C 0.8130(3) 0.5113(3) 0.00963(9)
N1_8 N 0.7668(3) 0.5190(2) 0.07760(8)
C2_14 C 0.7255(3) 0.5170(3) 0.04083(10)
H2_14 H 0.6334 0.5195 0.0359
C3_14 C 0.9932(3) 0.5086(3) 0.05453(9)
C4_14 C 0.9513(3) 0.5054(2) 0.01629(8)
C5_14 C 0.8992(4) 0.5159(3) 0.08399(10)
H4_14 H 0.9298 0.5189 0.1095
N3_8 N 0.4832(3) 0.5190(2) 0.17240(8)
C1_15 C 0.4370(3) 0.5113(3) 0.24037(9)
H1_13 H 0.4702 0.5114 0.2656
C2_15 C 0.5245(3) 0.5170(3) 0.20917(10)
H2_15 H 0.6166 0.5195 0.2141
C3_15 C 0.2568(3) 0.5086(3) 0.19547(9)
H3_15 H 0.1655 0.5058 0.1896
C4_15 C 0.2987(3) 0.5054(2) 0.23371(8)
C5_15 C 0.3508(4) 0.5159(3) 0.16601(10)
H4_15 H 0.3202 0.5189 0.1405
C6_15 C 0.0630(3) 0.4887(3) 0.25963(9)
H5_15 H 0.0298 0.4886 0.2344
N2_15 N 0.0168(3) 0.4810(2) 0.32760(8)
C8_15 C 0.2432(3) 0.4914(3) 0.30453(9)
H7_13 H 0.3345 0.4942 0.3104
C9_15 C 0.2013(3) 0.4946(2) 0.26629(8)
C10_15 C 0.1492(4) 0.4841(3) 0.33399(10)
H8_15 H 0.1798 0.4811 0.3595
C1_16 C 0.8130(3) 0.7387(3) 0.24037(9)
H1_14 H 0.7798 0.7386 0.2656
C2_16 C 0.7255(3) 0.7330(3) 0.20917(10)
H2_16 H 0.6334 0.7305 0.2141
C3_16 C 0.9932(3) 0.7414(3) 0.19547(9)
C4_16 C 0.9513(3) 0.7446(2) 0.23371(8)
C5_16 C 0.8992(4) 0.7341(3) 0.16601(10)
H4_16 H 0.9298 0.7311 0.1405
H7_14 H 0.9155 0.7558 0.3104
H1_15 H 0.4702 0.7386 0.9844
C6_16 C 0.0630(3) 0.7613(3) 0.99037(9)
N2_16 N 0.0168(3) 0.7690(2) 0.92240(8)
C8_16 C 0.2432(3) 0.7586(3) 0.94547(9)
H7_15 H 0.3345 0.7558 0.9396
C9_16 C 0.2013(3) 0.7554(2) 0.98371(8)
C10_16 C 0.1492(4) 0.7659(3) 0.91601(10)
H8_16 H 0.1798 0.7689 0.8905
H3_16 H 0.0845 0.5058 0.0604
H5_16 H 0.2202 0.4886 0.0156
H1_16 H 0.7798 0.5114 0.9844
H7_16 H 0.9155 0.4942 0.9396
loop_
_geom_bond_atom_site_label_1
_geom_bond_atom_site_label_2
_geom_bond_site_symmetry_1
_geom_bond_site_symmetry_2
H2 C2 1_555 1_555
Ag2 Ag1 1_555 1_555
N3 Ag1 1_555 1_555
Ag2 N1 1_555 1_555
N1 C2_2 1_555 1_555
C2_2 C1 1_555 1_555
H2_2 C2_2 1_555 1_555
C3 H3 1_555 1_555
C4 C1 1_555 1_555
C5 N1 1_555 1_555
H4 C5 1_555 1_555
C3 C4 1_555 1_555
C3 C5 1_555 1_555
N2 C7 1_555 1_555
C7 C6 1_555 1_555
H6 C7 1_555 1_555
C8 H7 1_555 1_555
C10 N2 1_555 1_555
H8 C10 1_555 1_555
Ag3 N2 1_555 1_555
C6 C9 1_555 1_555
C8 C9 1_555 1_555
C8 C10 1_555 1_555
H2_3 C2_3 1_555 1_555
C1_2 H1 1_555 1_555
N3 C2_4 1_555 1_555
C2_4 C1_2 1_555 1_555
H2_4 C2_4 1_555 1_555
C3_2 H3_2 1_555 1_555
C4_2 C1_2 1_555 1_555
C5_2 N3 1_555 1_555
H4_2 C5_2 1_555 1_555
C6_2 H5 1_555 1_555
N2_2 C7_2 1_555 1_555
C7_2 C6_2 1_555 1_555
H6_2 C7_2 1_555 1_555
C8_2 H7_2 1_555 1_555
C9_2 C4_2 1_555 1_555
C10_2 N2_2 1_555 1_555
H8_2 C10_2 1_555 1_555
Ag3_2 N2_2 1_555 1_555
C3_2 C4_2 1_555 1_555
C3_2 C5_2 1_555 1_555
C6_2 C9_2 1_555 1_555
C8_2 C9_2 1_555 1_555
C8_2 C10_2 1_555 1_555
H2_5 C2_5 1_555 1_555
Ag2_2 Ag1_2 1_555 1_555
N3_2 Ag1_2 1_555 1_555
Ag2_2 N1_2 1_555 1_555
C1_3 H1_2 1_555 1_555
N1_2 C2_6 1_555 1_555
C2_6 C1_3 1_555 1_555
H2_6 C2_6 1_555 1_555
C3_3 H3_3 1_555 1_555
C4_3 C1_3 1_555 1_555
C5_3 N1_2 1_555 1_555
H4_3 C5_3 1_555 1_555
C6_3 H5_2 1_555 1_555
N2_3 C7_3 1_555 1_555
C7_3 C6_3 1_555 1_555
H6_3 C7_3 1_555 1_555
C8_3 H7_3 1_555 1_555
C9_3 C4_3 1_555 1_555
C10_3 N2_3 1_555 1_555
H8_3 C10_3 1_555 1_555
Ag3_3 N2_3 1_555 1_555
C3_3 C4_3 1_555 1_555
C3_3 C5_3 1_555 1_555
C6_3 C9_3 1_555 1_555
C8_3 C9_3 1_555 1_555
C8_3 C10_3 1_555 1_555
H2_7 C2_7 1_555 1_555
C1_4 H1_3 1_555 1_555
N3_2 C2_8 1_555 1_555
C2_8 C1_4 1_555 1_555
H2_8 C2_8 1_555 1_555
C3_4 H3_4 1_555 1_555
C4_4 C1_4 1_555 1_555
C5_4 N3_2 1_555 1_555
H4_4 C5_4 1_555 1_555
C6_4 H5_3 1_555 1_555
N2_4 C7_4 1_555 1_555
C7_4 C6_4 1_555 1_555
H6_4 C7_4 1_555 1_555
C8_4 H7_4 1_555 1_555
C9_4 C4_4 1_555 1_555
C10_4 N2_4 1_555 1_555
H8_4 C10_4 1_555 1_555
Ag3_4 N2_4 1_555 1_555
C3_4 C4_4 1_555 1_555
C3_4 C5_4 1_555 1_555
C6_4 C9_4 1_555 1_555
C8_4 C9_4 1_555 1_555
C8_4 C10_4 1_555 1_555
H6_5 C7_5 1_555 1_555
H6_6 C7_6 1_555 1_555
H6_7 C7_7 1_555 1_555
H6_8 C7_8 1_555 1_555
Ag3 Ag3_4 1_555 1_555
Ag3_3 Ag3_2 1_555 1_555
C3_5 H3_5 1_555 1_555
C4_5 C1_5 1_555 1_555
C5_5 N1_3 1_555 1_555
H4_5 C5_5 1_555 1_555
C3_5 C4_5 1_555 1_555
C3_5 C5_5 1_555 1_555
N2_5 C7_9 1_555 1_555
C7_9 C6_5 1_555 1_555
H6_9 C7_9 1_555 1_555
C8_5 H7_5 1_555 1_555
C10_5 N2_5 1_555 1_555
H8_5 C10_5 1_555 1_555
Ag3_5 N2_5 1_555 1_555
C6_5 C9_5 1_555 1_555
C8_5 C9_5 1_555 1_555
C8_5 C10_5 1_555 1_555
C1_6 H1_5 1_555 1_555
C3_6 H3_6 1_555 1_555
C4_6 C1_6 1_555 1_555
C5_6 N3_3 1_555 1_555
H4_6 C5_6 1_555 1_555
C6_6 H5_5 1_555 1_555
N2_6 C7_10 1_555 1_555
C7_10 C6_6 1_555 1_555
H6_10 C7_10 1_555 1_555
C8_6 H7_6 1_555 1_555
C9_6 C4_6 1_555 1_555
C10_6 N2_6 1_555 1_555
H8_6 C10_6 1_555 1_555
Ag3_6 N2_6 1_555 1_555
C3_6 C4_6 1_555 1_555
C3_6 C5_6 1_555 1_555
C6_6 C9_6 1_555 1_555
C8_6 C9_6 1_555 1_555
C8_6 C10_6 1_555 1_555
C6_7 H5_6 1_555 1_555
N2_7 C7_11 1_555 1_555
C7_11 C6_7 1_555 1_555
H6_11 C7_11 1_555 1_555
C10_7 N2_7 1_555 1_555
H8_7 C10_7 1_555 1_555
Ag3_5 N2_7 1_555 1_555
C6_7 C9_7 1_555 1_555
C8_7 C9_7 1_555 1_555
C8_7 C10_7 1_555 1_555
N2_8 C7_12 1_555 1_555
C7_12 C6_8 1_555 1_555
H6_12 C7_12 1_555 1_555
C10_8 N2_8 1_555 1_555
H8_8 C10_8 1_555 1_555
Ag3_6 N2_8 1_555 1_555
C6_8 C9_8 1_555 1_555
C8_8 C9_8 1_555 1_555
C8_8 C10_8 1_555 1_555
Ag3_6 Ag3_5 1_555 1_555
C1_7 H1_7 1_555 1_555
C3_7 H3_8 1_555 1_555
C4_7 C1_7 1_555 1_555
C5_7 N3_4 1_555 1_555
H4_7 C5_7 1_555 1_555
C3_7 C4_7 1_555 1_555
C3_7 C5_7 1_555 1_555
C6_9 H5_8 1_555 1_555
N2_9 C7_13 1_555 1_555
C7_13 C6_9 1_555 1_555
H6_13 C7_13 1_555 1_555
C8_9 H7_7 1_555 1_555
C10_9 N2_9 1_555 1_555
H8_9 C10_9 1_555 1_555
Ag3_7 N2_9 1_555 1_555
C6_9 C9_9 1_555 1_555
C8_9 C9_9 1_555 1_555
C8_9 C10_9 1_555 1_555
C1_8 H1_8 1_555 1_555
C3_8 H3_9 1_555 1_555
C4_8 C1_8 1_555 1_555
C5_8 N1_4 1_555 1_555
H4_8 C5_8 1_555 1_555
C6_10 H5_9 1_555 1_555
N2_10 C7_14 1_555 1_555
C7_14 C6_10 1_555 1_555
H6_14 C7_14 1_555 1_555
C8_10 H7_8 1_555 1_555
C9_10 C4_8 1_555 1_555
C10_10 N2_10 1_555 1_555
H8_10 C10_10 1_555 1_555
Ag3_8 N2_10 1_555 1_555
C3_8 C4_8 1_555 1_555
C3_8 C5_8 1_555 1_555
C6_10 C9_10 1_555 1_555
C8_10 C9_10 1_555 1_555
C8_10 C10_10 1_555 1_555
C6_11 H5_10 1_555 1_555
N2_11 C7_15 1_555 1_555
C7_15 C6_11 1_555 1_555
H6_15 C7_15 1_555 1_555
C10_11 N2_11 1_555 1_555
H8_11 C10_11 1_555 1_555
Ag3_7 N2_11 1_555 1_555
C6_11 C9_11 1_555 1_555
C8_11 C9_11 1_555 1_555
C8_11 C10_11 1_555 1_555
C6_12 H5_11 1_555 1_555
N2_12 C7_16 1_555 1_555
C7_16 C6_12 1_555 1_555
H6_16 C7_16 1_555 1_555
C10_12 N2_12 1_555 1_555
H8_12 C10_12 1_555 1_555
Ag3_8 N2_12 1_555 1_555
C6_12 C9_12 1_555 1_555
C8_12 C9_12 1_555 1_555
C8_12 C10_12 1_555 1_555
Ag3_7 Ag3_8 1_555 1_555
Ag1_3 N1_5 1_555 1_555
C1_9 H1_9 1_555 1_555
N1_5 C2_9 1_555 1_555
C2_9 C1_9 1_555 1_555
H2_9 C2_9 1_555 1_555
C3_9 H3_11 1_555 1_555
C4_9 C1_9 1_555 1_555
C5_9 N1_5 1_555 1_555
H4_9 C5_9 1_555 1_555
C6_13 H5_12 1_555 1_555
C8_13 H7_9 1_555 1_555
C9_13 C4_9 1_555 1_555
C10_13 N2_13 1_555 1_555
H8_13 C10_13 1_555 1_555
Ag2_3 Ag1_3 1_555 1_555
N3_5 Ag1_3 1_555 1_555
C3_9 C4_9 1_555 1_555
C3_9 C5_9 1_555 1_555
C6_13 C9_13 1_555 1_555
C8_13 C9_13 1_555 1_555
C8_13 C10_13 1_555 1_555
Ag2_3 N1_6 1_555 1_555
C1_10 H1_10 1_555 1_555
N1_6 C2_10 1_555 1_555
C2_10 C1_10 1_555 1_555
H2_10 C2_10 1_555 1_555
C4_10 C1_10 1_555 1_555
C5_10 N1_6 1_555 1_555
H4_10 C5_10 1_555 1_555
N3_6 Ag2_3 1_555 1_555
C3_10 C4_10 1_555 1_555
C3_10 C5_10 1_555 1_555
C1_11 H1_11 1_555 1_555
N3_6 C2_11 1_555 1_555
C2_11 C1_11 1_555 1_555
H2_11 C2_11 1_555 1_555
C3_11 H3_12 1_555 1_555
C4_11 C1_11 1_555 1_555
C5_11 N3_6 1_555 1_555
H4_11 C5_11 1_555 1_555
C3_11 C4_11 1_555 1_555
C3_11 C5_11 1_555 1_555
C1_12 H1_12 1_555 1_555
N3_5 C2_12 1_555 1_555
C2_12 C1_12 1_555 1_555
H2_12 C2_12 1_555 1_555
C4_12 C1_12 1_555 1_555
C5_12 N3_5 1_555 1_555
H4_12 C5_12 1_555 1_555
C3_12 C4_12 1_555 1_555
C3_12 C5_12 1_555 1_555
C6_14 H5_13 1_555 1_555
C8_14 H7_12 1_555 1_555
C10_14 N2_14 1_555 1_555
H8_14 C10_14 1_555 1_555
C6_14 C9_14 1_555 1_555
C8_14 C9_14 1_555 1_555
C8_14 C10_14 1_555 1_555
Ag1_4 N1_7 1_555 1_555
N1_7 C2_13 1_555 1_555
C2_13 C1_13 1_555 1_555
H2_13 C2_13 1_555 1_555
C3_13 H3_14 1_555 1_555
C4_13 C1_13 1_555 1_555
C5_13 N1_7 1_555 1_555
H4_13 C5_13 1_555 1_555
Ag2_4 Ag1_4 1_555 1_555
N3_7 Ag1_4 1_555 1_555
C3_13 C4_13 1_555 1_555
C3_13 C5_13 1_555 1_555
Ag2_4 N1_8 1_555 1_555
N1_8 C2_14 1_555 1_555
C2_14 C1_14 1_555 1_555
H2_14 C2_14 1_555 1_555
C4_14 C1_14 1_555 1_555
C5_14 N1_8 1_555 1_555
H4_14 C5_14 1_555 1_555
N3_8 Ag2_4 1_555 1_555
C3_14 C4_14 1_555 1_555
C3_14 C5_14 1_555 1_555
C1_15 H1_13 1_555 1_555
N3_8 C2_15 1_555 1_555
C2_15 C1_15 1_555 1_555
H2_15 C2_15 1_555 1_555
C3_15 H3_15 1_555 1_555
C4_15 C1_15 1_555 1_555
C5_15 N3_8 1_555 1_555
H4_15 C5_15 1_555 1_555
C6_15 H5_15 1_555 1_555
C8_15 H7_13 1_555 1_555
C9_15 C4_15 1_555 1_555
C10_15 N2_15 1_555 1_555
H8_15 C10_15 1_555 1_555
C3_15 C4_15 1_555 1_555
C3_15 C5_15 1_555 1_555
C6_15 C9_15 1_555 1_555
C8_15 C9_15 1_555 1_555
C8_15 C10_15 1_555 1_555
C1_16 H1_14 1_555 1_555
N3_7 C2_16 1_555 1_555
C2_16 C1_16 1_555 1_555
H2_16 C2_16 1_555 1_555
C4_16 C1_16 1_555 1_555
C5_16 N3_7 1_555 1_555
H4_16 C5_16 1_555 1_555
C3_16 C4_16 1_555 1_555
C3_16 C5_16 1_555 1_555
C8_16 H7_15 1_555 1_555
C10_16 N2_16 1_555 1_555
H8_16 C10_16 1_555 1_555
C6_16 C9_16 1_555 1_555
C8_16 C9_16 1_555 1_555
C8_16 C10_16 1_555 1_555

#END
