
###############################################################################
#
# This file contains modified crystal structure data generated from the
# MOF subset of the Cambridge Structural Database (CSD) v543 
# hosted by the Cambridge Crystallographic Data Centre (CCDC).
#
# This work is licensed under the Creative Commons
# Attribution-NonCommercial-ShareAlike 4.0 International License.
# To view a copy of this license, visit
# http://creativecommons.org/licenses/by-nc-sa/4.0/
# or send a letter to
# Creative Commons, PO Box 1866, Mountain View, CA 94042, USA.
#
# CIF created using the CSD Python API on 29 September 2022
# The structure has been converted into the P1 space group
# The structure has a 3D framework
# The original CSD entry LOZJUI is in the monoclinic crystal system
# The framework has been calculated to contain at least 10.0% void space
# The void calculation uses a probe of radius 1.32A, grid spacing 0.4
#
###############################################################################

data_LOZJUI
_chemical_formula_moiety         '(C184 H120 Cu8 N16 O48)n'
_symmetry_cell_setting           triclinic
_symmetry_space_group_name_H-M   'P 1'
_symmetry_Int_Tables_number      1
_space_group_name_Hall           'P 1'
loop_
_symmetry_equiv_pos_site_id
_symmetry_equiv_pos_as_xyz
1 x,y,z
_cell_length_a                   16.1139(12)
_cell_length_b                   15.7868(11)
_cell_length_c                   24.2833(18)
_cell_angle_alpha                90
_cell_angle_beta                 91.623(5)
_cell_angle_gamma                90
_cell_volume                     6174.88
loop_
_atom_site_label
_atom_site_type_symbol
_atom_site_fract_x
_atom_site_fract_y
_atom_site_fract_z
O7 O 0.0411(8) 0.5052(6) 0.4026(5)
O9 O 0.2455(6) 0.6248(6) 0.6144(4)
O11 O 0.1574(6) 0.7341(6) 0.6056(5)
C18 C 0.0234(11) 0.6210(10) 0.3404(8)
H11 H 0.0748 0.6448 0.3527
C24 C 0.0742(10) 0.5472(8) 0.4487(6)
C27 C 0.0432(11) 0.6227(10) 0.4659(7)
C30 C 0.0817(10) 0.6620(10) 0.5124(7)
H20 H 0.0633 0.7162 0.5239
C33 C 0.1456(9) 0.6223(8) 0.5410(6)
C36 C 0.1751(10) 0.5439(9) 0.5222(6)
H23 H 0.2190 0.5155 0.5416
C39 C 0.1398(11) 0.5092(10) 0.4757(7)
H25 H 0.1612 0.4576 0.4619
C42 C 0.1858(8) 0.6642(8) 0.5910(6)
Cu5 Cu 0.31566(9) 0.68455(9) 0.66946(6)
Cu7 Cu 0.20794(9) 0.81015(9) 0.66287(6)
Cu1 Cu 0.81566(9) 0.81545(9) 0.16946(6)
Cu2 Cu 0.70794(9) 0.68985(9) 0.16287(6)
O1 O 0.4796(7) 0.3125(7) 0.1073(6)
O2 O 0.0757(6) 0.1632(6) 0.2453(5)
O3 O 0.8747(6) 0.7404(6) 0.2207(5)
O4 O 0.7396(6) 0.8528(6) 0.2282(4)
O5 O 0.7794(6) 0.6363(6) 0.2210(4)
O6 O 0.6467(6) 0.7473(6) 0.2204(5)
O8 O 0.4883(10) 0.9672(7) 0.4071(6)
O10 O 0.3698(6) 0.7410(6) 0.6070(5)
O12 O 0.2811(6) 0.8521(6) 0.6068(4)
N1 N 0.6208(6) 0.5863(7) 0.1505(5)
N2 N 0.3815(9) 0.3830(9) 0.1547(8)
H1 H 0.367(13) 0.417(11) 0.182(6)
N3 N 0.1425(9) 0.1243(9) 0.1683(7)
H2 H 0.152(12) 0.078(7) 0.148(7)
C1 C 0.5437(8) 0.5964(9) 0.1613(7)
H3 H 0.5257 0.6507 0.1729
C2 C 0.4847(9) 0.5307(9) 0.1566(8)
H4 H 0.4285 0.5400 0.1659
C3 C 0.8469(8) 0.6696(8) 0.2370(6)
C4 C 0.6731(9) 0.8180(9) 0.2412(6)
C5 C 0.5107(9) 0.4517(9) 0.1381(7)
C6 C 0.9000(8) 0.6272(8) 0.2809(6)
C7 C 0.6253(9) 0.8548(8) 0.2854(6)
C8 C 0.5935(9) 0.4430(9) 0.1275(9)
H5 H 0.6147 0.3898 0.1163
C9 C 0.8743(10) 0.5497(10) 0.3046(7)
H6 H 0.8242 0.5240 0.2915
C10 C 0.6504(11) 0.9288(9) 0.3089(6)
H7 H 0.6992 0.9559 0.2966
C11 C 0.6462(9) 0.5118(10) 0.1332(9)
H8 H 0.7029 0.5050 0.1243
C12 C 0.9194(10) 0.5117(10) 0.3453(7)
H9 H 0.8996 0.4613 0.3618
C13 C 0.6047(12) 0.9658(10) 0.3512(7)
C14 C 0.4545(10) 0.3757(10) 0.1327(8)
C15 C 0.9942(10) 0.5460(10) 0.3630(7)
C16 C 0.5337(12) 0.9286(9) 0.3666(8)
C17 C 0.3262(9) 0.3125(10) 0.1600(8)
C19 C 0.5079(13) 0.8526(10) 0.3438(8)
H12 H 0.4594 0.8252 0.3563
C20 C 0.2869(15) 0.2955(15) 0.2076(10)
H13 H 0.3001 0.3295 0.2390
C21 C 0.9748(10) 0.6603(10) 0.2990(7)
H14 H 0.9941 0.7112 0.2829
C22 C 0.5538(11) 0.8171(10) 0.3024(8)
H15 H 0.5354 0.7659 0.2855
C23 C 0.2294(12) 0.2321(13) 0.2131(9)
H16 H 0.2070 0.2189 0.2478
C25 C 0.4513(13) 0.9231(10) 0.4485(8)
C26 C 0.2059(10) 0.1892(10) 0.1673(8)
H17 H 0.9971 0.6483 0.4472
C28 C 0.4878(14) 0.8555(11) 0.4729(9)
H18 H 0.5371 0.8323 0.4585
C29 C 0.2384(10) 0.2016(11) 0.1171(8)
H19 H 0.2203 0.1680 0.0866
C31 C 0.4525(11) 0.8195(12) 0.5197(9)
H21 H 0.4801 0.7737 0.5378
C32 C 0.2996(10) 0.2648(10) 0.1103(9)
H22 H 0.3225 0.2759 0.0754
C34 C 0.3809(9) 0.8480(9) 0.5395(7)
C35 C 0.0842(10) 0.1175(10) 0.2063(8)
C37 C 0.3477(13) 0.9228(11) 0.5149(8)
H24 H 0.2991 0.9477 0.5291
C38 C 0.0212(8) 0.0449(9) 0.1956(7)
C40 C 0.3850(15) 0.9592(13) 0.4710(9)
C43 C 0.3423(8) 0.8141(8) 0.5881(6)
O13 O 0.7455(6) 0.8752(6) 0.1144(4)
O14 O 0.8698(6) 0.7590(6) 0.1070(5)
O15 O 0.6574(6) 0.7659(6) 0.1056(5)
O16 O 0.7811(6) 0.6479(6) 0.1068(4)
N5 N 0.9066(7) 0.9143(7) 0.1835(5)
C44 C 0.8838(8) 0.9913(8) 0.1976(6)
C45 C 0.9880(8) 0.9014(9) 0.1770(6)
C30_2 C 0.5817(10) 0.8380(10) 0.0124(7)
H20_2 H 0.5633 0.7838 0.0239
C33_2 C 0.6456(9) 0.8777(8) 0.0410(6)
C36_2 C 0.6751(10) 0.9561(9) 0.0222(6)
H23_2 H 0.7190 0.9845 0.0416
C42_2 C 0.6858(8) 0.8358(8) 0.0910(6)
O3_2 O 0.3747(6) 0.7596(6) 0.7207(5)
O4_2 O 0.2396(6) 0.6472(6) 0.7282(4)
O5_2 O 0.2794(6) 0.8637(6) 0.7210(4)
O6_2 O 0.1467(6) 0.7527(6) 0.7204(5)
O7_2 O 0.5411(8) 0.9948(6) 0.9026(5)
N1_2 N 0.1208(6) 0.9137(7) 0.6505(5)
C1_2 C 0.0437(8) 0.9036(9) 0.6613(7)
H3_2 H 0.0257 0.8493 0.6729
C3_2 C 0.3469(8) 0.8304(8) 0.7370(6)
C4_2 C 0.1731(9) 0.6820(9) 0.7412(6)
C6_2 C 0.4000(8) 0.8728(8) 0.7809(6)
C7_2 C 0.1253(9) 0.6452(8) 0.7854(6)
C9_2 C 0.3743(10) 0.9503(10) 0.8046(7)
H6_2 H 0.3242 0.9760 0.7915
C10_2 C 0.1504(11) 0.5712(9) 0.8089(6)
H7_2 H 0.1992 0.5441 0.7966
C11_2 C 0.1462(9) 0.9882(10) 0.6332(9)
H8_2 H 0.2029 0.9950 0.6243
C12_2 C 0.4194(10) 0.9883(10) 0.8453(7)
C13_2 C 0.1047(12) 0.5342(10) 0.8512(7)
H10 H 0.1237 0.4837 0.8686
C15_2 C 0.4942(10) 0.9540(10) 0.8630(7)
C16_2 C 0.0337(12) 0.5714(9) 0.8666(8)
C18_2 C 0.5234(11) 0.8790(10) 0.8404(8)
H11_2 H 0.5748 0.8552 0.8527
C19_2 C 0.0079(13) 0.6474(10) 0.8438(8)
C21_2 C 0.4748(10) 0.8397(10) 0.7990(7)
H14_2 H 0.4941 0.7888 0.7829
C22_2 C 0.0538(11) 0.6829(10) 0.8024(8)
H15_2 H 0.0354 0.7341 0.7855
C24_2 C 0.5742(10) 0.9528(8) 0.9487(6)
C27_2 C 0.5432(11) 0.8773(10) 0.9659(7)
H17_2 H 0.4971 0.8517 0.9472
H18_2 H 0.0371 0.6677 0.9585
C39_2 C 0.6398(11) 0.9908(10) 0.9757(7)
N5_2 N 0.4066(7) 0.5857(7) 0.6835(5)
O1_2 O 0.9796(7) 0.1875(7) 0.6073(6)
O2_2 O 0.5757(6) 0.3368(6) 0.7453(5)
N2_2 N 0.8815(9) 0.1170(9) 0.6547(8)
H1_2 H 0.867(13) 0.083(11) 0.682(6)
N3_2 N 0.6425(9) 0.3757(9) 0.6683(7)
H2_2 H 0.652(12) 0.422(7) 0.648(7)
C14_2 C 0.9545(10) 0.1243(10) 0.6327(8)
C17_2 C 0.8262(9) 0.1875(10) 0.6600(8)
C20_2 C 0.7869(15) 0.2045(15) 0.7076(10)
H13_2 H 0.8001 0.1705 0.7390
C23_2 C 0.7294(12) 0.2679(13) 0.7131(9)
H16_2 H 0.7070 0.2811 0.7478
C26_2 C 0.7059(10) 0.3108(10) 0.6673(8)
C29_2 C 0.7384(10) 0.2984(11) 0.6171(8)
H19_2 H 0.7203 0.3320 0.5866
C32_2 C 0.7996(10) 0.2352(10) 0.6103(9)
H22_2 H 0.8225 0.2241 0.5754
C35_2 C 0.5842(10) 0.3825(10) 0.7063(8)
C38_2 C 0.5212(8) 0.4551(9) 0.6956(7)
C41 C 0.4412(9) 0.4411(9) 0.7054(7)
H27 H 0.4230 0.3870 0.7173
C44_2 C 0.3838(8) 0.5087(8) 0.6976(6)
H28 H 0.3265 0.4980 0.7029
C45_2 C 0.4880(8) 0.5986(9) 0.6770(6)
H29 H 0.5058 0.6544 0.6687
C46 C 0.5468(8) 0.5366(9) 0.6816(7)
H30 H 0.6036 0.5486 0.6754
C31_2 C 0.9525(11) 0.6805(12) 0.0197(9)
H21_2 H 0.9801 0.7263 0.0378
C34_2 C 0.8809(9) 0.6520(9) 0.0395(7)
C37_2 C 0.8477(13) 0.5772(11) 0.0149(8)
H24_2 H 0.7991 0.5523 0.0291
C43_2 C 0.8423(8) 0.6859(8) 0.0881(6)
H10_2 H 0.6237 0.0163 0.3686
H26 H 0.3636 0.0107 0.4561
H29_2 H 0.0058 0.8456 0.1687
C46_2 C 0.0468(8) 0.9634(9) 0.1816(7)
H30_2 H 0.1036 0.9514 0.1754
C41_2 C 0.9412(9) 0.0589(9) 0.2054(7)
H27_2 H 0.9230 0.1130 0.2173
H28_2 H 0.8265 0.0020 0.2029
O8_2 O 0.0117(10) 0.4672(7) 0.0929(6)
C2_2 C 0.0153(9) 0.0307(9) 0.3434(8)
H4_2 H 0.0715 0.0400 0.3341
H12_2 H 0.0406 0.3252 0.1437
C25_2 C 0.0487(13) 0.4231(10) 0.0515(8)
C28_2 C 0.0122(14) 0.3555(11) 0.0271(9)
C40_2 C 0.1150(15) 0.4592(13) 0.0290(9)
H26_2 H 0.1364 0.5107 0.0439
O10_2 O 0.1302(6) 0.2410(6) 0.8930(5)
O12_2 O 0.2189(6) 0.3521(6) 0.8932(4)
C31_3 C 0.0475(11) 0.3195(12) 0.9803(9)
H21_3 H 0.0199 0.2737 0.9622
C34_3 C 0.1191(9) 0.3480(9) 0.9605(7)
C37_3 C 0.1523(13) 0.4228(11) 0.9851(8)
H24_3 H 0.2009 0.4477 0.9709
C43_3 C 0.1577(8) 0.3141(8) 0.9119(6)
Cu4 Cu 0.18434(9) 0.18455(9) 0.83054(6)
Cu6 Cu 0.29206(9) 0.31015(9) 0.83713(6)
O1_3 O 0.0204(7) 0.8125(7) 0.3927(6)
O2_3 O 0.4243(6) 0.6632(6) 0.2547(5)
N2_3 N 0.1185(9) 0.8830(9) 0.3453(8)
H1_3 H 0.133(13) 0.917(11) 0.318(6)
N3_3 N 0.3575(9) 0.6243(9) 0.3317(7)
H2_3 H 0.348(12) 0.578(7) 0.352(7)
N4 N 0.5934(7) 0.4143(7) 0.3165(5)
C14_3 C 0.0455(10) 0.8757(10) 0.3673(8)
C17_3 C 0.1738(9) 0.8125(10) 0.3400(8)
C20_3 C 0.2131(15) 0.7955(15) 0.2924(10)
H13_3 H 0.1999 0.8295 0.2610
C23_3 C 0.2706(12) 0.7321(13) 0.2869(9)
H16_3 H 0.2930 0.7189 0.2522
C26_3 C 0.2941(10) 0.6892(10) 0.3327(8)
C29_3 C 0.2616(10) 0.7016(11) 0.3829(8)
H19_3 H 0.2797 0.6680 0.4134
C32_3 C 0.2004(10) 0.7648(10) 0.3897(9)
H22_3 H 0.1775 0.7759 0.4246
C35_3 C 0.4158(10) 0.6175(10) 0.2937(8)
C38_3 C 0.4788(8) 0.5449(9) 0.3044(7)
C41_3 C 0.5588(9) 0.5589(9) 0.2946(7)
H27_3 H 0.5770 0.6130 0.2827
C44_3 C 0.6162(8) 0.4913(8) 0.3024(6)
H28_3 H 0.6735 0.5020 0.2971
C45_3 C 0.5120(8) 0.4014(9) 0.3230(6)
H29_3 H 0.4942 0.3456 0.3313
C46_3 C 0.4532(8) 0.4634(9) 0.3184(7)
H30_3 H 0.3964 0.4514 0.3246
Cu3 Cu 0.68434(9) 0.31545(9) 0.33054(6)
Cu2_2 Cu 0.79206(9) 0.18985(9) 0.33713(6)
O3_3 O 0.6253(6) 0.2404(6) 0.2793(5)
O4_3 O 0.7604(6) 0.3528(6) 0.2718(4)
O5_3 O 0.7206(6) 0.1363(6) 0.2790(4)
O6_3 O 0.8533(6) 0.2473(6) 0.2796(5)
O7_3 O 0.4589(8) 0.0052(6) 0.0974(5)
N1_3 N 0.8792(6) 0.0863(7) 0.3495(5)
C1_3 C 0.9563(8) 0.0964(9) 0.3387(7)
H3_3 H 0.9743 0.1507 0.3271
C3_3 C 0.6531(8) 0.1696(8) 0.2630(6)
C4_3 C 0.8269(9) 0.3180(9) 0.2588(6)
C6_3 C 0.6000(8) 0.1272(8) 0.2191(6)
C7_3 C 0.8747(9) 0.3548(8) 0.2146(6)
C9_3 C 0.6257(10) 0.0497(10) 0.1954(7)
H6_3 H 0.6758 0.0240 0.2085
C10_3 C 0.8496(11) 0.4288(9) 0.1911(6)
H7_3 H 0.8008 0.4559 0.2034
C11_3 C 0.8538(9) 0.0118(10) 0.3668(9)
H8_3 H 0.7971 0.0050 0.3757
C12_3 C 0.5806(10) 0.0117(10) 0.1547(7)
C13_3 C 0.8953(12) 0.4658(10) 0.1488(7)
H10_3 H 0.8763 0.5163 0.1314
C15_3 C 0.5058(10) 0.0460(10) 0.1370(7)
C16_3 C 0.9663(12) 0.4286(9) 0.1334(8)
C18_3 C 0.4766(11) 0.1210(10) 0.1596(8)
H11_3 H 0.4252 0.1448 0.1473
C19_3 C 0.9921(13) 0.3526(10) 0.1562(8)
C21_3 C 0.5252(10) 0.1603(10) 0.2010(7)
H14_3 H 0.5059 0.2112 0.2171
C22_3 C 0.9462(11) 0.3171(10) 0.1976(8)
H15_3 H 0.9646 0.2659 0.2145
C24_3 C 0.4258(10) 0.0472(8) 0.0513(6)
C27_3 C 0.4568(11) 0.1227(10) 0.0341(7)
H17_3 H 0.5029 0.1483 0.0528
H18_3 H 0.9629 0.3323 0.0415
C39_3 C 0.3602(11) 0.0092(10) 0.0243(7)
O13_2 O 0.7545(6) 0.3752(6) 0.3856(4)
O14_2 O 0.6302(6) 0.2590(6) 0.3930(5)
O15_2 O 0.8426(6) 0.2659(6) 0.3944(5)
O16_2 O 0.7189(6) 0.1479(6) 0.3932(4)
O9_2 O 0.2545(6) 0.1248(6) 0.8856(4)
O11_2 O 0.3426(6) 0.2341(6) 0.8944(5)
C30_3 C 0.4183(10) 0.1620(10) 0.9876(7)
H20_3 H 0.4367 0.2162 0.9761
C33_3 C 0.3544(9) 0.1223(8) 0.9590(6)
C36_3 C 0.3249(10) 0.0439(9) 0.9778(6)
H23_3 H 0.2810 0.0155 0.9584
C42_3 C 0.3142(8) 0.1642(8) 0.9090(6)
N4_2 N 0.0934(7) 0.0857(7) 0.8165(5)
C44_4 C 0.1162(8) 0.0087(8) 0.8024(6)
C45_4 C 0.0120(8) 0.0986(9) 0.8230(6)
O1_4 O 0.5204(7) 0.6875(7) 0.8927(6)
O2_4 O 0.9243(6) 0.8368(6) 0.7547(5)
O3_4 O 0.1253(6) 0.2596(6) 0.7793(5)
O4_4 O 0.2604(6) 0.1472(6) 0.7718(4)
O5_4 O 0.2206(6) 0.3637(6) 0.7790(4)
O6_4 O 0.3533(6) 0.2527(6) 0.7796(5)
O8_3 O 0.5117(10) 0.0328(7) 0.5929(6)
N1_4 N 0.3792(6) 0.4137(7) 0.8495(5)
N2_4 N 0.6185(9) 0.6170(9) 0.8453(8)
H1_4 H 0.633(13) 0.583(11) 0.818(6)
N3_4 N 0.8575(9) 0.8757(9) 0.8317(7)
H2_4 H 0.848(12) 0.922(7) 0.852(7)
C1_4 C 0.4563(8) 0.4036(9) 0.8387(7)
H3_4 H 0.4743 0.3493 0.8271
C2_3 C 0.5153(9) 0.4693(9) 0.8434(8)
H4_3 H 0.5715 0.4600 0.8341
C3_4 C 0.1531(8) 0.3304(8) 0.7630(6)
C4_4 C 0.3269(9) 0.1820(9) 0.7588(6)
C5_2 C 0.4893(9) 0.5483(9) 0.8619(7)
C6_4 C 0.1000(8) 0.3728(8) 0.7191(6)
C7_4 C 0.3747(9) 0.1452(8) 0.7146(6)
C8_2 C 0.4065(9) 0.5570(9) 0.8725(9)
H5_2 H 0.3853 0.6102 0.8837
C9_4 C 0.1257(10) 0.4503(10) 0.6954(7)
H6_4 H 0.1758 0.4760 0.7085
C10_4 C 0.3496(11) 0.0712(9) 0.6911(6)
H7_4 H 0.3008 0.0441 0.7034
C11_4 C 0.3538(9) 0.4882(10) 0.8668(9)
H8_4 H 0.2971 0.4950 0.8757
C12_4 C 0.0806(10) 0.4883(10) 0.6547(7)
H9_2 H 0.1004 0.5387 0.6382
C13_4 C 0.3953(12) 0.0342(10) 0.6488(7)
C14_4 C 0.5455(10) 0.6243(10) 0.8673(8)
C15_4 C 0.0058(10) 0.4540(10) 0.6370(7)
C16_4 C 0.4663(12) 0.0714(9) 0.6334(8)
C17_4 C 0.6738(9) 0.6875(10) 0.8400(8)
C19_4 C 0.4921(13) 0.1474(10) 0.6562(8)
H12_3 H 0.5406 0.1748 0.6437
C20_4 C 0.7131(15) 0.7045(15) 0.7924(10)
H13_4 H 0.6999 0.6705 0.7610
C21_4 C 0.0252(10) 0.3397(10) 0.7010(7)
H14_4 H 0.0059 0.2888 0.7171
C22_4 C 0.4462(11) 0.1829(10) 0.6976(8)
H15_4 H 0.4646 0.2341 0.7145
C23_4 C 0.7706(12) 0.7679(13) 0.7869(9)
H16_4 H 0.7930 0.7811 0.7522
C25_3 C 0.5487(13) 0.0769(10) 0.5515(8)
C26_4 C 0.7941(10) 0.8108(10) 0.8327(8)
H17_4 H 0.0029 0.3517 0.5528
C28_3 C 0.5122(14) 0.1445(11) 0.5271(9)
H18_4 H 0.4629 0.1677 0.5415
C29_4 C 0.7616(10) 0.7984(11) 0.8829(8)
H19_4 H 0.7797 0.8320 0.9134
C31_4 C 0.5475(11) 0.1805(12) 0.4803(9)
H21_4 H 0.5199 0.2263 0.4622
C32_4 C 0.7004(10) 0.7352(10) 0.8897(9)
H22_4 H 0.6775 0.7241 0.9246
C34_4 C 0.6191(9) 0.1520(9) 0.4605(7)
C35_4 C 0.9158(10) 0.8825(10) 0.7937(8)
C37_4 C 0.6523(13) 0.0772(11) 0.4851(8)
H24_4 H 0.7009 0.0523 0.4709
C38_4 C 0.9788(8) 0.9551(9) 0.8044(7)
C40_3 C 0.6150(15) 0.0408(13) 0.5290(9)
C43_4 C 0.6577(8) 0.1859(8) 0.4119(6)
O7_4 O 0.9589(8) 0.4948(6) 0.5974(5)
C18_4 C 0.9766(11) 0.3790(10) 0.6596(8)
H11_4 H 0.9252 0.3552 0.6473
C24_4 C 0.9258(10) 0.4528(8) 0.5513(6)
C27_4 C 0.9568(11) 0.3773(10) 0.5341(7)
C30_4 C 0.9183(10) 0.3380(10) 0.4876(7)
H20_4 H 0.9367 0.2838 0.4761
C33_4 C 0.8544(9) 0.3777(8) 0.4590(6)
C36_4 C 0.8249(10) 0.4561(9) 0.4778(6)
H23_4 H 0.7810 0.4845 0.4584
C39_4 C 0.8602(11) 0.4908(10) 0.5243(7)
H25_2 H 0.8388 0.5424 0.5381
C42_4 C 0.8142(8) 0.3358(8) 0.4090(6)
C5_3 C 0.9893(9) 0.9517(9) 0.3619(7)
C8_3 C 0.9065(9) 0.9430(9) 0.3725(9)
H5_3 H 0.8853 0.8898 0.3837
H9_3 H 0.6004 0.9613 0.1382
H25_3 H 0.3388 0.9576 0.0381
C41_4 C 0.0588(9) 0.9411(9) 0.7946(7)
H27_4 H 0.0770 0.8870 0.7827
H28_4 H 0.1735 0.9980 0.7971
H29_4 H 0.9942 0.1544 0.8313
C46_4 C 0.9532(8) 0.0366(9) 0.8184(7)
H30_4 H 0.8964 0.0486 0.8246
H10_4 H 0.3763 0.9837 0.6314
H26_3 H 0.6364 0.9893 0.5439
C5_4 C 0.0107(9) 0.0483(9) 0.6381(7)
C8_4 C 0.0935(9) 0.0570(9) 0.6275(9)
H5_4 H 0.1147 0.1102 0.6163
H9_4 H 0.3996 0.0387 0.8618
H25_4 H 0.6612 0.0424 0.9619
O8_4 O 0.9883(10) 0.5328(7) 0.9071(6)
C2_4 C 0.9847(9) 0.9693(9) 0.6566(8)
H4_4 H 0.9285 0.9600 0.6659
H12_4 H 0.9594 0.6748 0.8563
C25_4 C 0.9513(13) 0.5769(10) 0.9485(8)
C28_4 C 0.9878(14) 0.6445(11) 0.9729(9)
C40_4 C 0.8850(15) 0.5408(13) 0.9710(9)
H26_4 H 0.8636 0.4893 0.9561
loop_
_geom_bond_atom_site_label_1
_geom_bond_atom_site_label_2
_geom_bond_site_symmetry_1
_geom_bond_site_symmetry_2
O9 C42 1_555 1_555
O11 C42 1_555 1_555
H11 C18 1_555 1_555
C24 O7 1_555 1_555
C27 C24 1_555 1_555
C30 C27 1_555 1_555
H20 C30 1_555 1_555
C33 C30 1_555 1_555
C36 C33 1_555 1_555
H23 C36 1_555 1_555
C39 C24 1_555 1_555
H25 C39 1_555 1_555
C42 C33 1_555 1_555
Cu5 O9 1_555 1_555
Cu7 O11 1_555 1_555
C36 C39 1_555 1_555
Cu1 O3 1_555 1_555
Cu2 O5 1_555 1_555
O1 C14 1_555 1_555
O2 C35 1_555 1_555
O3 C3 1_555 1_555
O4 Cu1 1_555 1_555
O5 C3 1_555 1_555
O6 Cu2 1_555 1_555
O8 C16 1_555 1_555
O10 C43 1_555 1_555
O12 C43 1_555 1_555
N1 Cu2 1_555 1_555
N2 H1 1_555 1_555
N3 H2 1_555 1_555
C1 N1 1_555 1_555
H3 C1 1_555 1_555
C2 C1 1_555 1_555
H4 C2 1_555 1_555
C3 C6 1_555 1_555
C4 O4 1_555 1_555
C5 C2 1_555 1_555
C6 C9 1_555 1_555
C7 C4 1_555 1_555
C8 C5 1_555 1_555
H5 C8 1_555 1_555
C9 H6 1_555 1_555
C10 C7 1_555 1_555
H7 C10 1_555 1_555
C11 N1 1_555 1_555
H8 C11 1_555 1_555
C12 C9 1_555 1_555
H9 C12 1_555 1_555
C13 C10 1_555 1_555
C14 N2 1_555 1_555
C15 C12 1_555 1_555
C16 C13 1_555 1_555
C17 N2 1_555 1_555
C19 C16 1_555 1_555
H12 C19 1_555 1_555
C20 C17 1_555 1_555
H13 C20 1_555 1_555
C21 C6 1_555 1_555
H14 C21 1_555 1_555
C22 C7 1_555 1_555
H15 C22 1_555 1_555
C23 C20 1_555 1_555
H16 C23 1_555 1_555
C25 O8 1_555 1_555
C26 N3 1_555 1_555
C28 C25 1_555 1_555
H18 C28 1_555 1_555
C29 C26 1_555 1_555
H19 C29 1_555 1_555
C31 C28 1_555 1_555
H21 C31 1_555 1_555
C32 C17 1_555 1_555
H22 C32 1_555 1_555
C34 C31 1_555 1_555
C35 N3 1_555 1_555
C37 C34 1_555 1_555
H24 C37 1_555 1_555
C38 C35 1_555 1_555
C40 C25 1_555 1_555
C43 C34 1_555 1_555
Cu5 O10 1_555 1_555
Cu7 O12 1_555 1_555
O13 Cu1 1_555 1_555
O14 Cu1 1_555 1_555
O15 Cu2 1_555 1_555
O16 Cu2 1_555 1_555
N5 Cu1 1_555 1_555
O6 C4 1_555 1_555
C5 C14 1_555 1_555
C8 C11 1_555 1_555
C19 C22 1_555 1_555
C23 C26 1_555 1_555
C29 C32 1_555 1_555
C37 C40 1_555 1_555
N5 C44 1_555 1_555
C45 N5 1_555 1_555
O13 C42_2 1_555 1_555
O15 C42_2 1_555 1_555
H20_2 C30_2 1_555 1_555
C33_2 C30_2 1_555 1_555
C36_2 C33_2 1_555 1_555
H23_2 C36_2 1_555 1_555
C42_2 C33_2 1_555 1_555
Cu5 O3_2 1_555 1_555
Cu7 O5_2 1_555 1_555
O3_2 C3_2 1_555 1_555
O4_2 Cu5 1_555 1_555
O5_2 C3_2 1_555 1_555
O6_2 Cu7 1_555 1_555
O7_2 C15_2 1_555 1_555
N1_2 Cu7 1_555 1_555
C1_2 N1_2 1_555 1_555
H3_2 C1_2 1_555 1_555
C3_2 C6_2 1_555 1_555
C4_2 O4_2 1_555 1_555
C6_2 C9_2 1_555 1_555
C7_2 C4_2 1_555 1_555
C9_2 H6_2 1_555 1_555
C10_2 C7_2 1_555 1_555
H7_2 C10_2 1_555 1_555
C11_2 N1_2 1_555 1_555
H8_2 C11_2 1_555 1_555
C12_2 C9_2 1_555 1_555
C13_2 C10_2 1_555 1_555
H10 C13_2 1_555 1_555
C15_2 C12_2 1_555 1_555
C16_2 C13_2 1_555 1_555
C18_2 C15_2 1_555 1_555
H11_2 C18_2 1_555 1_555
C19_2 C16_2 1_555 1_555
C21_2 C6_2 1_555 1_555
H14_2 C21_2 1_555 1_555
C22_2 C7_2 1_555 1_555
H15_2 C22_2 1_555 1_555
C24_2 O7_2 1_555 1_555
C27_2 C24_2 1_555 1_555
H17_2 C27_2 1_555 1_555
C39_2 C24_2 1_555 1_555
N5_2 Cu5 1_555 1_555
O6_2 C4_2 1_555 1_555
C18_2 C21_2 1_555 1_555
C19_2 C22_2 1_555 1_555
O1_2 C14_2 1_555 1_555
O2_2 C35_2 1_555 1_555
N2_2 H1_2 1_555 1_555
N3_2 H2_2 1_555 1_555
N5_2 C44_2 1_555 1_555
C14_2 N2_2 1_555 1_555
C17_2 N2_2 1_555 1_555
C20_2 C17_2 1_555 1_555
H13_2 C20_2 1_555 1_555
C23_2 C20_2 1_555 1_555
H16_2 C23_2 1_555 1_555
C26_2 N3_2 1_555 1_555
C29_2 C26_2 1_555 1_555
H19_2 C29_2 1_555 1_555
C32_2 C17_2 1_555 1_555
H22_2 C32_2 1_555 1_555
C35_2 N3_2 1_555 1_555
C38_2 C35_2 1_555 1_555
C41 C38_2 1_555 1_555
H27 C41 1_555 1_555
C44_2 C41 1_555 1_555
H28 C44_2 1_555 1_555
C45_2 N5_2 1_555 1_555
H29 C45_2 1_555 1_555
C46 C38_2 1_555 1_555
H30 C46 1_555 1_555
C23_2 C26_2 1_555 1_555
C29_2 C32_2 1_555 1_555
C45_2 C46 1_555 1_555
O14 C43_2 1_555 1_555
O16 C43_2 1_555 1_555
H21_2 C31_2 1_555 1_555
C34_2 C31_2 1_555 1_555
C37_2 C34_2 1_555 1_555
H24_2 C37_2 1_555 1_555
C43_2 C34_2 1_555 1_555
H30_2 C46_2 1_555 1_555
H27_2 C41_2 1_555 1_555
H4_2 C2_2 1_555 1_555
C25_2 O8_2 1_555 1_555
C28_2 C25_2 1_555 1_555
C40_2 C25_2 1_555 1_555
H26_2 C40_2 1_555 1_555
O10_2 C43_3 1_555 1_555
O12_2 C43_3 1_555 1_555
H21_3 C31_3 1_555 1_555
C34_3 C31_3 1_555 1_555
C37_3 C34_3 1_555 1_555
H24_3 C37_3 1_555 1_555
C43_3 C34_3 1_555 1_555
Cu4 O10_2 1_555 1_555
Cu6 O12_2 1_555 1_555
O1_3 C14_3 1_555 1_555
O2_3 C35_3 1_555 1_555
N2_3 H1_3 1_555 1_555
N3_3 H2_3 1_555 1_555
N4 C44_3 1_555 1_555
C14_3 N2_3 1_555 1_555
C17_3 N2_3 1_555 1_555
C20_3 C17_3 1_555 1_555
H13_3 C20_3 1_555 1_555
C23_3 C20_3 1_555 1_555
H16_3 C23_3 1_555 1_555
C26_3 N3_3 1_555 1_555
C29_3 C26_3 1_555 1_555
H19_3 C29_3 1_555 1_555
C32_3 C17_3 1_555 1_555
H22_3 C32_3 1_555 1_555
C35_3 N3_3 1_555 1_555
C38_3 C35_3 1_555 1_555
C41_3 C38_3 1_555 1_555
H27_3 C41_3 1_555 1_555
C44_3 C41_3 1_555 1_555
H28_3 C44_3 1_555 1_555
C45_3 N4 1_555 1_555
H29_3 C45_3 1_555 1_555
C46_3 C38_3 1_555 1_555
H30_3 C46_3 1_555 1_555
Cu3 N4 1_555 1_555
C23_3 C26_3 1_555 1_555
C29_3 C32_3 1_555 1_555
C45_3 C46_3 1_555 1_555
Cu3 O3_3 1_555 1_555
Cu2_2 O5_3 1_555 1_555
O3_3 C3_3 1_555 1_555
O4_3 Cu3 1_555 1_555
O5_3 C3_3 1_555 1_555
O6_3 Cu2_2 1_555 1_555
O7_3 C15_3 1_555 1_555
N1_3 Cu2_2 1_555 1_555
C1_3 N1_3 1_555 1_555
H3_3 C1_3 1_555 1_555
C3_3 C6_3 1_555 1_555
C4_3 O4_3 1_555 1_555
C6_3 C9_3 1_555 1_555
C7_3 C4_3 1_555 1_555
C9_3 H6_3 1_555 1_555
C10_3 C7_3 1_555 1_555
H7_3 C10_3 1_555 1_555
C11_3 N1_3 1_555 1_555
H8_3 C11_3 1_555 1_555
C12_3 C9_3 1_555 1_555
C13_3 C10_3 1_555 1_555
H10_3 C13_3 1_555 1_555
C15_3 C12_3 1_555 1_555
C16_3 C13_3 1_555 1_555
C18_3 C15_3 1_555 1_555
H11_3 C18_3 1_555 1_555
C19_3 C16_3 1_555 1_555
C21_3 C6_3 1_555 1_555
H14_3 C21_3 1_555 1_555
C22_3 C7_3 1_555 1_555
H15_3 C22_3 1_555 1_555
C24_3 O7_3 1_555 1_555
C27_3 C24_3 1_555 1_555
H17_3 C27_3 1_555 1_555
C39_3 C24_3 1_555 1_555
O13_2 Cu3 1_555 1_555
O14_2 Cu3 1_555 1_555
O15_2 Cu2_2 1_555 1_555
O16_2 Cu2_2 1_555 1_555
O6_3 C4_3 1_555 1_555
C18_3 C21_3 1_555 1_555
C19_3 C22_3 1_555 1_555
O9_2 C42_3 1_555 1_555
O11_2 C42_3 1_555 1_555
H20_3 C30_3 1_555 1_555
C33_3 C30_3 1_555 1_555
C36_3 C33_3 1_555 1_555
H23_3 C36_3 1_555 1_555
C42_3 C33_3 1_555 1_555
Cu4 O9_2 1_555 1_555
Cu6 O11_2 1_555 1_555
N4_2 C44_4 1_555 1_555
C45_4 N4_2 1_555 1_555
Cu4 N4_2 1_555 1_555
Cu4 O3_4 1_555 1_555
Cu6 O5_4 1_555 1_555
O1_4 C14_4 1_555 1_555
O2_4 C35_4 1_555 1_555
O3_4 C3_4 1_555 1_555
O4_4 Cu4 1_555 1_555
O5_4 C3_4 1_555 1_555
O6_4 Cu6 1_555 1_555
O8_3 C16_4 1_555 1_555
O14_2 C43_4 1_555 1_555
O16_2 C43_4 1_555 1_555
N1_4 Cu6 1_555 1_555
N2_4 H1_4 1_555 1_555
N3_4 H2_4 1_555 1_555
C1_4 N1_4 1_555 1_555
H3_4 C1_4 1_555 1_555
C2_3 C1_4 1_555 1_555
H4_3 C2_3 1_555 1_555
C3_4 C6_4 1_555 1_555
C4_4 O4_4 1_555 1_555
C5_2 C2_3 1_555 1_555
C6_4 C9_4 1_555 1_555
C7_4 C4_4 1_555 1_555
C8_2 C5_2 1_555 1_555
H5_2 C8_2 1_555 1_555
C9_4 H6_4 1_555 1_555
C10_4 C7_4 1_555 1_555
H7_4 C10_4 1_555 1_555
C11_4 N1_4 1_555 1_555
H8_4 C11_4 1_555 1_555
C12_4 C9_4 1_555 1_555
H9_2 C12_4 1_555 1_555
C13_4 C10_4 1_555 1_555
C14_4 N2_4 1_555 1_555
C15_4 C12_4 1_555 1_555
C16_4 C13_4 1_555 1_555
C17_4 N2_4 1_555 1_555
C19_4 C16_4 1_555 1_555
H12_3 C19_4 1_555 1_555
C20_4 C17_4 1_555 1_555
H13_4 C20_4 1_555 1_555
C21_4 C6_4 1_555 1_555
H14_4 C21_4 1_555 1_555
C22_4 C7_4 1_555 1_555
H15_4 C22_4 1_555 1_555
C23_4 C20_4 1_555 1_555
H16_4 C23_4 1_555 1_555
C25_3 O8_3 1_555 1_555
C26_4 N3_4 1_555 1_555
C28_3 C25_3 1_555 1_555
H18_4 C28_3 1_555 1_555
C29_4 C26_4 1_555 1_555
H19_4 C29_4 1_555 1_555
C31_4 C28_3 1_555 1_555
H21_4 C31_4 1_555 1_555
C32_4 C17_4 1_555 1_555
H22_4 C32_4 1_555 1_555
C34_4 C31_4 1_555 1_555
C35_4 N3_4 1_555 1_555
C37_4 C34_4 1_555 1_555
H24_4 C37_4 1_555 1_555
C38_4 C35_4 1_555 1_555
C40_3 C25_3 1_555 1_555
C43_4 C34_4 1_555 1_555
O6_4 C4_4 1_555 1_555
C5_2 C14_4 1_555 1_555
C8_2 C11_4 1_555 1_555
C19_4 C22_4 1_555 1_555
C23_4 C26_4 1_555 1_555
C29_4 C32_4 1_555 1_555
C37_4 C40_3 1_555 1_555
O13_2 C42_4 1_555 1_555
O15_2 C42_4 1_555 1_555
H11_4 C18_4 1_555 1_555
C24_4 O7_4 1_555 1_555
C27_4 C24_4 1_555 1_555
C30_4 C27_4 1_555 1_555
H20_4 C30_4 1_555 1_555
C33_4 C30_4 1_555 1_555
C36_4 C33_4 1_555 1_555
H23_4 C36_4 1_555 1_555
C39_4 C24_4 1_555 1_555
H25_2 C39_4 1_555 1_555
C42_4 C33_4 1_555 1_555
C36_4 C39_4 1_555 1_555
C8_3 C5_3 1_555 1_555
H5_3 C8_3 1_555 1_555
H27_4 C41_4 1_555 1_555
H30_4 C46_4 1_555 1_555
C8_4 C5_4 1_555 1_555
H5_4 C8_4 1_555 1_555
H4_4 C2_4 1_555 1_555
C25_4 O8_4 1_555 1_555
C28_4 C25_4 1_555 1_555
C40_4 C25_4 1_555 1_555
H26_4 C40_4 1_555 1_555

#END
