
###############################################################################
#
# This file contains modified crystal structure data generated from the
# MOF subset of the Cambridge Structural Database (CSD) v543 
# hosted by the Cambridge Crystallographic Data Centre (CCDC).
#
# This work is licensed under the Creative Commons
# Attribution-NonCommercial-ShareAlike 4.0 International License.
# To view a copy of this license, visit
# http://creativecommons.org/licenses/by-nc-sa/4.0/
# or send a letter to
# Creative Commons, PO Box 1866, Mountain View, CA 94042, USA.
#
# CIF created using the CSD Python API on 29 September 2022
# The structure has been converted into the P1 space group
# The structure has a 3D framework
# The original CSD entry LUBKAW is in the monoclinic crystal system
# The framework has been calculated to contain at least 10.0% void space
# The void calculation uses a probe of radius 1.32A, grid spacing 0.4
# The framework is charged, counterions have been retained in the structure
#
###############################################################################

data_LUBKAW
_chemical_formula_moiety         '(C96 H128 Cu24 N64 O88 S8)n'
_symmetry_cell_setting           triclinic
_symmetry_space_group_name_H-M   'P 1'
_symmetry_Int_Tables_number      1
_space_group_name_Hall           'P 1'
loop_
_symmetry_equiv_pos_site_id
_symmetry_equiv_pos_as_xyz
1 x,y,z
_cell_length_a                   23.989(6)
_cell_length_b                   15.168(4)
_cell_length_c                   14.285(4)
_cell_angle_alpha                90
_cell_angle_beta                 119.389(4)
_cell_angle_gamma                90
_cell_volume                     4528.9
loop_
_atom_site_label
_atom_site_type_symbol
_atom_site_fract_x
_atom_site_fract_y
_atom_site_fract_z
S1 S 0.58202(8) 0.16925(11) 0.12029(12)
O5 O 0.6362(3) 0.1265(6) 0.1256(4)
O6 O 0.5553(3) 0.1233(4) 0.1756(4)
O7 O 0.5926(3) 0.2602(4) 0.1539(4)
Cu5 Cu 0.70187(3) 0.06143(4) 0.04167(5)
Cu1 Cu 0.29935(3) 0.27323(4) 0.45487(4)
Cu2 Cu 0.29813(3) 0.06143(4) 0.45833(5)
Cu3 Cu 0.25347(3) 0.41456(4) 0.24542(5)
O1 O 0.36195(17) 0.0918(2) 0.6068(3)
O2 O 0.36802(15) 0.2393(2) 0.6007(2)
O3 O 0.34770(17) 0.3306(2) 0.7689(3)
O4 O 0.43505(18) 0.3973(2) 0.7852(3)
O8 O 0.25233(15) 0.1676(2) 0.4436(3)
H1 H 0.2215 0.1663 0.3795
O9 O 0.24185(17) 0.3145(2) 0.3140(3)
H2 H 0.2088 0.2865 0.2689
O10 O 0.23374(18) 0.0136(2) 0.3251(3)
H3 H 0.2081 0.0545 0.2883
O11 O 0.1992(2) 0.5118(3) 0.3048(4)
H4 H 0.1776 0.4730 0.3161
H5 H 0.1744 0.5486 0.2581
N5 N 0.3516(2) 0.3787(3) 0.4700(3)
N6 N 0.3346(2) 0.4343(3) 0.3847(3)
N7 N 0.4213(2) 0.4842(3) 0.5205(4)
N8 N 0.4730(2) 0.5407(3) 0.5790(4)
H8 H 0.5045 0.5009 0.6128
H9 H 0.4601 0.5652 0.6226
C3 C 0.3779(3) 0.4966(4) 0.4178(5)
H12 H 0.3783 0.5430 0.3756
C4 C 0.4043(3) 0.4103(3) 0.5517(4)
H13 H 0.4262 0.3854 0.6199
C5 C 0.4282(2) 0.1682(3) 0.7682(4)
C6 C 0.4421(2) 0.2464(3) 0.8289(4)
C7 C 0.4893(3) 0.2457(4) 0.9353(4)
H14 H 0.4992 0.2974 0.9754
C8 C 0.5216(3) 0.1695(4) 0.9826(4)
C9 C 0.5075(3) 0.0913(4) 0.9244(4)
H15 H 0.5290 0.0396 0.9573
C10 C 0.4613(3) 0.0915(4) 0.8176(4)
H16 H 0.4522 0.0397 0.7780
C11 C 0.3818(2) 0.1671(3) 0.6487(4)
C12 C 0.4055(3) 0.3315(3) 0.7887(4)
Cu4 Cu 0.20065(3) 0.22677(4) 0.54513(4)
O12 O 0.3638(3) 0.1265(6) 0.3744(4)
O13 O 0.24767(15) 0.3324(2) 0.5564(3)
O14 O 0.26626(18) 0.5136(2) 0.1749(3)
N9 N 0.1805(2) 0.3832(3) 0.0986(3)
N1 N 0.3406(2) 0.9431(3) 0.4836(3)
N2 N 0.3195(2) 0.8832(3) 0.4014(3)
N3 N 0.3911(2) 0.8205(3) 0.5471(4)
N4 N 0.4326(3) 0.7542(3) 0.6170(4)
H6 H 0.4724 0.7771 0.6493
H7 H 0.4186 0.7417 0.6636
C1 C 0.3507(3) 0.8099(4) 0.4421(5)
H10 H 0.3456 0.7582 0.4038
C2 C 0.3836(3) 0.9037(4) 0.5707(4)
H11 H 0.4056 0.9293 0.6384
Cu6 Cu 0.24653(3) 0.91456(4) 0.25458(5)
Cu1_2 Cu 0.70065(3) 0.27323(4) 0.04513(4)
Cu3_2 Cu 0.74653(3) 0.41456(4) 0.25458(5)
O8_2 O 0.74767(15) 0.1676(2) 0.0564(3)
H1_2 H 0.7785 0.1663 0.1205
O9_2 O 0.75815(17) 0.3145(2) 0.1860(3)
H2_2 H 0.7912 0.2865 0.2311
O10_2 O 0.76626(18) 0.0136(2) 0.1749(3)
H3_2 H 0.7919 0.0545 0.2117
O11_2 O 0.8008(2) 0.5118(3) 0.1952(4)
H4_2 H 0.8224 0.4730 0.1839
H5_2 H 0.8256 0.5486 0.2419
N5_2 N 0.6484(2) 0.3787(3) 0.0300(3)
N6_2 N 0.6654(2) 0.4343(3) 0.1153(3)
C3_2 C 0.6221(3) 0.4966(4) 0.0822(5)
H12_2 H 0.6217 0.5430 0.1244
O14_2 O 0.73374(18) 0.5136(2) 0.3251(3)
N9_2 N 0.8195(2) 0.3832(3) 0.4014(3)
S1_2 S 0.41798(8) 0.16925(11) 0.37971(12)
O1_2 O 0.63805(17) 0.0918(2) 0.8932(3)
O2_2 O 0.63198(15) 0.2393(2) 0.8993(2)
O3_2 O 0.65230(17) 0.3306(2) 0.7311(3)
O4_2 O 0.56495(18) 0.3973(2) 0.7148(3)
O6_2 O 0.4447(3) 0.1233(4) 0.3244(4)
O7_2 O 0.4074(3) 0.2602(4) 0.3461(4)
N7_2 N 0.5787(2) 0.4842(3) 0.9795(4)
N8_2 N 0.5270(2) 0.5407(3) 0.9210(4)
H8_2 H 0.4955 0.5009 0.8872
H9_2 H 0.5399 0.5652 0.8774
C4_2 C 0.5957(3) 0.4103(3) 0.9483(4)
H13_2 H 0.5738 0.3854 0.8801
C5_2 C 0.5718(2) 0.1682(3) 0.7318(4)
C6_2 C 0.5579(2) 0.2464(3) 0.6711(4)
C7_2 C 0.5107(3) 0.2457(4) 0.5647(4)
H14_2 H 0.5008 0.2974 0.5246
C8_2 C 0.4784(3) 0.1695(4) 0.5174(4)
C9_2 C 0.4925(3) 0.0913(4) 0.5756(4)
H15_2 H 0.4710 0.0396 0.5427
C10_2 C 0.5387(3) 0.0915(4) 0.6824(4)
H16_2 H 0.5478 0.0397 0.7220
C11_2 C 0.6182(2) 0.1671(3) 0.8513(4)
C12_2 C 0.5945(3) 0.3315(3) 0.7113(4)
Cu4_2 Cu 0.79935(3) 0.22677(4) 0.95487(4)
O13_2 O 0.75233(15) 0.3324(2) 0.9436(3)
N1_2 N 0.6594(2) 0.9431(3) 0.0164(3)
N2_2 N 0.6805(2) 0.8832(3) 0.0986(3)
C1_2 C 0.6493(3) 0.8099(4) 0.0579(5)
H10_2 H 0.6544 0.7582 0.0962
Cu6_2 Cu 0.75347(3) 0.91456(4) 0.24542(5)
S1_3 S 0.08202(8) 0.66925(11) 0.12029(12)
O5_2 O 0.1362(3) 0.6265(6) 0.1256(4)
O6_3 O 0.0553(3) 0.6233(4) 0.1756(4)
O7_3 O 0.0926(3) 0.7602(4) 0.1539(4)
Cu5_2 Cu 0.20187(3) 0.56143(4) 0.04167(5)
O11_3 O 0.6992(2) 0.0118(3) 0.3048(4)
H5_3 H 0.6744 0.0486 0.2581
N8_3 N 0.9730(2) 0.0407(3) 0.5790(4)
H9_3 H 0.9601 0.0652 0.6226
H12_3 H 0.8783 0.0430 0.3756
Cu1_3 Cu 0.79935(3) 0.77323(4) 0.45487(4)
Cu2_2 Cu 0.79813(3) 0.56143(4) 0.45833(5)
O1_3 O 0.86195(17) 0.5918(2) 0.6068(3)
O2_3 O 0.86802(15) 0.7393(2) 0.6007(2)
O3_3 O 0.84770(17) 0.8306(2) 0.7689(3)
O4_3 O 0.93505(18) 0.8973(2) 0.7852(3)
O8_3 O 0.75233(15) 0.6676(2) 0.4436(3)
H1_3 H 0.7215 0.6663 0.3795
O9_3 O 0.74185(17) 0.8145(2) 0.3140(3)
H2_3 H 0.7088 0.7865 0.2689
H3_3 H 0.7081 0.5545 0.2883
H4_3 H 0.6776 0.9730 0.3161
N1_3 N 0.8406(2) 0.4431(3) 0.4836(3)
N3_2 N 0.8911(2) 0.3205(3) 0.5471(4)
N4_2 N 0.9326(3) 0.2542(3) 0.6170(4)
H6_2 H 0.9724 0.2771 0.6493
H7_2 H 0.9186 0.2417 0.6636
N5_3 N 0.8516(2) 0.8787(3) 0.4700(3)
N6_3 N 0.8346(2) 0.9343(3) 0.3847(3)
N7_3 N 0.9213(2) 0.9842(3) 0.5205(4)
C1_3 C 0.8507(3) 0.3099(4) 0.4421(5)
H10_3 H 0.8456 0.2582 0.4038
C2_2 C 0.8836(3) 0.4037(4) 0.5707(4)
H11_2 H 0.9056 0.4293 0.6384
C3_3 C 0.8779(3) 0.9966(4) 0.4178(5)
C4_3 C 0.9043(3) 0.9103(3) 0.5517(4)
H13_3 H 0.9262 0.8854 0.6199
C5_3 C 0.9282(2) 0.6682(3) 0.7682(4)
C6_3 C 0.9421(2) 0.7464(3) 0.8289(4)
C7_3 C 0.9893(3) 0.7457(4) 0.9353(4)
H14_3 H 0.9992 0.7974 0.9754
C10_3 C 0.9613(3) 0.5915(4) 0.8176(4)
H16_3 H 0.9522 0.5397 0.7780
C11_3 C 0.8818(2) 0.6671(3) 0.6487(4)
C12_3 C 0.9055(3) 0.8315(3) 0.7887(4)
Cu4_3 Cu 0.70065(3) 0.72677(4) 0.54513(4)
O12_2 O 0.8638(3) 0.6265(6) 0.3744(4)
O13_3 O 0.74767(15) 0.8324(2) 0.5564(3)
O11_4 O 0.3008(2) 0.0118(3) 0.1952(4)
H5_4 H 0.3256 0.0486 0.2419
H12_4 H 0.1217 0.0430 0.1244
Cu1_4 Cu 0.20065(3) 0.77323(4) 0.04513(4)
O8_4 O 0.24767(15) 0.6676(2) 0.0564(3)
H1_4 H 0.2785 0.6663 0.1205
O9_4 O 0.25815(17) 0.8145(2) 0.1860(3)
H2_4 H 0.2912 0.7865 0.2311
H3_4 H 0.2919 0.5545 0.2117
H4_4 H 0.3224 0.9730 0.1839
N1_4 N 0.1594(2) 0.4431(3) 0.0164(3)
N5_4 N 0.1484(2) 0.8787(3) 0.0300(3)
N6_4 N 0.1654(2) 0.9343(3) 0.1153(3)
C1_4 C 0.1493(3) 0.3099(4) 0.0579(5)
H10_4 H 0.1544 0.2582 0.0962
C3_4 C 0.1221(3) 0.9966(4) 0.0822(5)
O1_4 O 0.13805(17) 0.5918(2) 0.8932(3)
O2_4 O 0.13198(15) 0.7393(2) 0.8993(2)
O3_4 O 0.15230(17) 0.8306(2) 0.7311(3)
O4_4 O 0.06495(18) 0.8973(2) 0.7148(3)
N3_3 N 0.1089(2) 0.3205(3) 0.9529(4)
N4_3 N 0.0674(3) 0.2542(3) 0.8830(4)
H6_3 H 0.0276 0.2771 0.8507
H7_3 H 0.0814 0.2417 0.8364
N7_4 N 0.0787(2) 0.9842(3) 0.9795(4)
C2_3 C 0.1164(3) 0.4037(4) 0.9293(4)
H11_3 H 0.0944 0.4293 0.8616
C4_4 C 0.0957(3) 0.9103(3) 0.9483(4)
H13_4 H 0.0738 0.8854 0.8801
C5_4 C 0.0718(2) 0.6682(3) 0.7318(4)
C6_4 C 0.0579(2) 0.7464(3) 0.6711(4)
C7_4 C 0.0107(3) 0.7457(4) 0.5647(4)
H14_4 H 0.0008 0.7974 0.5246
C10_4 C 0.0387(3) 0.5915(4) 0.6824(4)
H16_4 H 0.0478 0.5397 0.7220
C11_4 C 0.1182(2) 0.6671(3) 0.8513(4)
C12_4 C 0.0945(3) 0.8315(3) 0.7113(4)
Cu4_4 Cu 0.29935(3) 0.72677(4) 0.95487(4)
O13_4 O 0.25233(15) 0.8324(2) 0.9436(3)
S1_4 S 0.91798(8) 0.66925(11) 0.37971(12)
O6_4 O 0.9447(3) 0.6233(4) 0.3244(4)
O7_4 O 0.9074(3) 0.7602(4) 0.3461(4)
C8_3 C 0.9784(3) 0.6695(4) 0.5174(4)
C9_3 C 0.9925(3) 0.5913(4) 0.5756(4)
H15_3 H 0.9710 0.5396 0.5427
N1_5 N 0.6594(2) 0.0569(3) 0.5164(3)
N2_3 N 0.6805(2) 0.1168(3) 0.5986(3)
N3_4 N 0.6089(2) 0.1795(3) 0.4529(4)
N4_4 N 0.5674(3) 0.2458(3) 0.3830(4)
H6_4 H 0.5276 0.2229 0.3507
H7_4 H 0.5814 0.2583 0.3364
C1_5 C 0.6493(3) 0.1901(4) 0.5579(5)
H10_5 H 0.6544 0.2418 0.5962
C2_4 C 0.6164(3) 0.0963(4) 0.4293(4)
H11_4 H 0.5944 0.0707 0.3616
Cu6_3 Cu 0.75347(3) 0.08544(4) 0.74542(5)
Cu2_3 Cu 0.70187(3) 0.93857(4) 0.54167(5)
Cu3_3 Cu 0.74653(3) 0.58544(4) 0.75458(5)
O1_5 O 0.63805(17) 0.9082(2) 0.3932(3)
O2_5 O 0.63198(15) 0.7607(2) 0.3993(2)
O3_5 O 0.65230(17) 0.6694(2) 0.2311(3)
O4_5 O 0.56495(18) 0.6027(2) 0.2148(3)
H1_5 H 0.7785 0.8337 0.6205
O9_5 O 0.75815(17) 0.6855(2) 0.6860(3)
H2_5 H 0.7912 0.7135 0.7311
O10_3 O 0.76626(18) 0.9864(2) 0.6749(3)
H3_5 H 0.7919 0.9455 0.7117
O11_5 O 0.8008(2) 0.4882(3) 0.6952(4)
H4_5 H 0.8224 0.5270 0.6839
H5_5 H 0.8256 0.4514 0.7419
N5_5 N 0.6484(2) 0.6213(3) 0.5300(3)
N6_5 N 0.6654(2) 0.5657(3) 0.6153(3)
N7_5 N 0.5787(2) 0.5158(3) 0.4795(4)
N8_4 N 0.5270(2) 0.4593(3) 0.4210(4)
H8_3 H 0.4955 0.4991 0.3872
H9_4 H 0.5399 0.4348 0.3774
C3_5 C 0.6221(3) 0.5034(4) 0.5822(5)
H12_5 H 0.6217 0.4570 0.6244
C4_5 C 0.5957(3) 0.5897(3) 0.4483(4)
H13_5 H 0.5738 0.6146 0.3801
C5_5 C 0.5718(2) 0.8318(3) 0.2318(4)
C6_5 C 0.5579(2) 0.7536(3) 0.1711(4)
C7_5 C 0.5107(3) 0.7543(4) 0.0647(4)
H14_5 H 0.5008 0.7026 0.0246
C8_4 C 0.4784(3) 0.8305(4) 0.0174(4)
C9_4 C 0.4925(3) 0.9087(4) 0.0756(4)
H15_4 H 0.4710 0.9604 0.0427
C10_5 C 0.5387(3) 0.9085(4) 0.1824(4)
H16_5 H 0.5478 0.9603 0.2220
C11_5 C 0.6182(2) 0.8329(3) 0.3513(4)
C12_5 C 0.5945(3) 0.6685(3) 0.2113(4)
O12_3 O 0.6362(3) 0.8735(6) 0.6256(4)
O14_3 O 0.73374(18) 0.4864(2) 0.8251(3)
N9_3 N 0.8195(2) 0.6168(3) 0.9014(3)
S1_5 S 0.41798(8) 0.83075(11) 0.87971(12)
O5_3 O 0.3638(3) 0.8735(6) 0.8744(4)
O6_5 O 0.4447(3) 0.8767(4) 0.8244(4)
O7_5 O 0.4074(3) 0.7398(4) 0.8461(4)
Cu5_3 Cu 0.29813(3) 0.93857(4) 0.95833(5)
N1_6 N 0.3406(2) 0.0569(3) 0.9836(3)
N2_4 N 0.3195(2) 0.1168(3) 0.9014(3)
C1_6 C 0.3507(3) 0.1901(4) 0.9421(5)
H10_6 H 0.3456 0.2418 0.9038
Cu6_4 Cu 0.24653(3) 0.08544(4) 0.75458(5)
S1_6 S 0.58202(8) 0.83075(11) 0.62029(12)
O1_6 O 0.36195(17) 0.9082(2) 0.1068(3)
O2_6 O 0.36802(15) 0.7607(2) 0.1007(2)
O3_6 O 0.34770(17) 0.6694(2) 0.2689(3)
O4_6 O 0.43505(18) 0.6027(2) 0.2852(3)
O6_6 O 0.5553(3) 0.8767(4) 0.6756(4)
O7_6 O 0.5926(3) 0.7398(4) 0.6539(4)
N7_6 N 0.4213(2) 0.5158(3) 0.0205(4)
N8_5 N 0.4730(2) 0.4593(3) 0.0790(4)
H8_4 H 0.5045 0.4991 0.1128
H9_5 H 0.4601 0.4348 0.1226
C4_6 C 0.4043(3) 0.5897(3) 0.0517(4)
H13_6 H 0.4262 0.6146 0.1199
C5_6 C 0.4282(2) 0.8318(3) 0.2682(4)
C6_6 C 0.4421(2) 0.7536(3) 0.3289(4)
C7_6 C 0.4893(3) 0.7543(4) 0.4353(4)
H14_6 H 0.4992 0.7026 0.4754
C8_5 C 0.5216(3) 0.8305(4) 0.4826(4)
C9_5 C 0.5075(3) 0.9087(4) 0.4244(4)
H15_5 H 0.5290 0.9604 0.4573
C10_6 C 0.4613(3) 0.9085(4) 0.3176(4)
H16_6 H 0.4522 0.9603 0.2780
C11_6 C 0.3818(2) 0.8329(3) 0.1487(4)
C12_6 C 0.4055(3) 0.6685(3) 0.2887(4)
Cu3_4 Cu 0.25347(3) 0.58544(4) 0.74542(5)
H1_6 H 0.2215 0.8337 0.8795
O9_6 O 0.24185(17) 0.6855(2) 0.8140(3)
H2_6 H 0.2088 0.7135 0.7689
O10_4 O 0.23374(18) 0.9864(2) 0.8251(3)
H3_6 H 0.2081 0.9455 0.7883
O11_6 O 0.1992(2) 0.4882(3) 0.8048(4)
H4_6 H 0.1776 0.5270 0.8161
H5_6 H 0.1744 0.4514 0.7581
N5_6 N 0.3516(2) 0.6213(3) 0.9700(3)
N6_6 N 0.3346(2) 0.5657(3) 0.8847(3)
C3_6 C 0.3779(3) 0.5034(4) 0.9178(5)
H12_6 H 0.3783 0.4570 0.8756
O14_4 O 0.26626(18) 0.4864(2) 0.6749(3)
N9_4 N 0.1805(2) 0.6168(3) 0.5986(3)
Cu2_4 Cu 0.20187(3) 0.43857(4) 0.54167(5)
O1_7 O 0.13805(17) 0.4082(2) 0.3932(3)
O2_7 O 0.13198(15) 0.2607(2) 0.3993(2)
O3_7 O 0.15230(17) 0.1694(2) 0.2311(3)
O4_7 O 0.06495(18) 0.1027(2) 0.2148(3)
H1_7 H 0.2785 0.3337 0.6205
O9_7 O 0.25815(17) 0.1855(2) 0.6860(3)
H2_7 H 0.2912 0.2135 0.7311
H3_7 H 0.2919 0.4455 0.7117
H4_7 H 0.3224 0.0270 0.6839
N1_7 N 0.1594(2) 0.5569(3) 0.5164(3)
N3_5 N 0.1089(2) 0.6795(3) 0.4529(4)
N4_5 N 0.0674(3) 0.7458(3) 0.3830(4)
H6_5 H 0.0276 0.7229 0.3507
H7_5 H 0.0814 0.7583 0.3364
N5_7 N 0.1484(2) 0.1213(3) 0.5300(3)
N6_7 N 0.1654(2) 0.0657(3) 0.6153(3)
N7_7 N 0.0787(2) 0.0158(3) 0.4795(4)
C1_7 C 0.1493(3) 0.6901(4) 0.5579(5)
H10_7 H 0.1544 0.7418 0.5962
C2_5 C 0.1164(3) 0.5963(4) 0.4293(4)
H11_5 H 0.0944 0.5707 0.3616
C3_7 C 0.1221(3) 0.0034(4) 0.5822(5)
C4_7 C 0.0957(3) 0.0897(3) 0.4483(4)
H13_7 H 0.0738 0.1146 0.3801
C5_7 C 0.0718(2) 0.3318(3) 0.2318(4)
C6_7 C 0.0579(2) 0.2536(3) 0.1711(4)
C7_7 C 0.0107(3) 0.2543(4) 0.0647(4)
H14_7 H 0.0008 0.2026 0.0246
C10_7 C 0.0387(3) 0.4085(4) 0.1824(4)
H16_7 H 0.0478 0.4603 0.2220
C11_7 C 0.1182(2) 0.3329(3) 0.3513(4)
C12_7 C 0.0945(3) 0.1685(3) 0.2113(4)
O12_4 O 0.1362(3) 0.3735(6) 0.6256(4)
O11_7 O 0.3008(2) 0.9882(3) 0.6952(4)
H5_7 H 0.3256 0.9514 0.7419
N8_6 N 0.0270(2) 0.9593(3) 0.4210(4)
H9_6 H 0.0399 0.9348 0.3774
H12_7 H 0.1217 0.9570 0.6244
S1_7 S 0.91798(8) 0.33075(11) 0.87971(12)
O5_4 O 0.8638(3) 0.3735(6) 0.8744(4)
O6_7 O 0.9447(3) 0.3767(4) 0.8244(4)
O7_7 O 0.9074(3) 0.2398(4) 0.8461(4)
Cu5_4 Cu 0.79813(3) 0.43857(4) 0.95833(5)
S1_8 S 0.08202(8) 0.33075(11) 0.62029(12)
O6_8 O 0.0553(3) 0.3767(4) 0.6756(4)
O7_8 O 0.0926(3) 0.2398(4) 0.6539(4)
C8_6 C 0.0216(3) 0.3305(4) 0.4826(4)
C9_6 C 0.0075(3) 0.4087(4) 0.4244(4)
H15_6 H 0.0290 0.4604 0.4573
O1_8 O 0.86195(17) 0.4082(2) 0.1068(3)
O2_8 O 0.86802(15) 0.2607(2) 0.1007(2)
O3_8 O 0.84770(17) 0.1694(2) 0.2689(3)
O4_8 O 0.93505(18) 0.1027(2) 0.2852(3)
N3_6 N 0.8911(2) 0.6795(3) 0.0471(4)
N4_6 N 0.9326(3) 0.7458(3) 0.1170(4)
H6_6 H 0.9724 0.7229 0.1493
H7_6 H 0.9186 0.7583 0.1636
N7_8 N 0.9213(2) 0.0158(3) 0.0205(4)
C2_6 C 0.8836(3) 0.5963(4) 0.0707(4)
H11_6 H 0.9056 0.5707 0.1384
C4_8 C 0.9043(3) 0.0897(3) 0.0517(4)
H13_8 H 0.9262 0.1146 0.1199
C5_8 C 0.9282(2) 0.3318(3) 0.2682(4)
C6_8 C 0.9421(2) 0.2536(3) 0.3289(4)
C7_8 C 0.9893(3) 0.2543(4) 0.4353(4)
H14_8 H 0.9992 0.2026 0.4754
C10_8 C 0.9613(3) 0.4085(4) 0.3176(4)
H16_8 H 0.9522 0.4603 0.2780
C11_8 C 0.8818(2) 0.3329(3) 0.1487(4)
C12_8 C 0.9055(3) 0.1685(3) 0.2887(4)
H1_8 H 0.7215 0.3337 0.8795
O9_8 O 0.74185(17) 0.1855(2) 0.8140(3)
H2_8 H 0.7088 0.2135 0.7689
H3_8 H 0.7081 0.4455 0.7883
H4_8 H 0.6776 0.0270 0.8161
N1_8 N 0.8406(2) 0.5569(3) 0.9836(3)
N5_8 N 0.8516(2) 0.1213(3) 0.9700(3)
N6_8 N 0.8346(2) 0.0657(3) 0.8847(3)
C1_8 C 0.8507(3) 0.6901(4) 0.9421(5)
H10_8 H 0.8456 0.7418 0.9038
C3_8 C 0.8779(3) 0.0034(4) 0.9178(5)
O11_8 O 0.6992(2) 0.9882(3) 0.8048(4)
H5_8 H 0.6744 0.9514 0.7581
H12_8 H 0.8783 0.9570 0.8756
N3_7 N 0.6089(2) 0.8205(3) 0.9529(4)
N4_7 N 0.5674(3) 0.7542(3) 0.8830(4)
H6_7 H 0.5276 0.7771 0.8507
H7_7 H 0.5814 0.7417 0.8364
C2_7 C 0.6164(3) 0.9037(4) 0.9293(4)
H11_7 H 0.5944 0.9293 0.8616
H8_5 H 0.0045 0.0009 0.6128
C8_7 C 0.0216(3) 0.6695(4) 0.9826(4)
C9_7 C 0.0075(3) 0.5913(4) 0.9244(4)
H15_7 H 0.0290 0.5396 0.9573
N8_7 N 0.0270(2) 0.0407(3) 0.9210(4)
H9_7 H 0.0399 0.0652 0.8774
H8_6 H 0.9955 0.0009 0.8872
N3_8 N 0.3911(2) 0.1795(3) 0.0471(4)
N4_8 N 0.4326(3) 0.2458(3) 0.1170(4)
H6_8 H 0.4724 0.2229 0.1493
H7_8 H 0.4186 0.2583 0.1636
C2_8 C 0.3836(3) 0.0963(4) 0.0707(4)
H11_8 H 0.4056 0.0707 0.1384
C8_8 C 0.9784(3) 0.3305(4) 0.0174(4)
C9_8 C 0.9925(3) 0.4087(4) 0.0756(4)
H15_8 H 0.9710 0.4604 0.0427
H8_7 H 0.9955 0.9991 0.3872
H8_8 H 0.0045 0.9991 0.1128
N8_8 N 0.9730(2) 0.9593(3) 0.0790(4)
H9_8 H 0.9601 0.9348 0.1226
loop_
_geom_bond_atom_site_label_1
_geom_bond_atom_site_label_2
_geom_bond_site_symmetry_1
_geom_bond_site_symmetry_2
S1 O5 1_555 1_555
O5 Cu5 1_555 1_555
O6 S1 1_555 1_555
O7 S1 1_555 1_555
Cu1 O2 1_555 1_555
Cu2 O1 1_555 1_555
Cu3 O9 1_555 1_555
O1 C11 1_555 1_555
O2 C11 1_555 1_555
O3 C12 1_555 1_555
O4 C12 1_555 1_555
O8 Cu1 1_555 1_555
H1 O8 1_555 1_555
O9 Cu1 1_555 1_555
H2 O9 1_555 1_555
O10 Cu2 1_555 1_555
H3 O10 1_555 1_555
O11 Cu3 1_555 1_555
H4 O11 1_555 1_555
H5 O11 1_555 1_555
N5 Cu1 1_555 1_555
N6 Cu3 1_555 1_555
N7 N8 1_555 1_555
N8 H8 1_555 1_555
H9 N8 1_555 1_555
C3 N6 1_555 1_555
H12 C3 1_555 1_555
C4 N5 1_555 1_555
H13 C4 1_555 1_555
C5 C6 1_555 1_555
C6 C7 1_555 1_555
C7 H14 1_555 1_555
C9 C8 1_555 1_555
H15 C9 1_555 1_555
C10 C5 1_555 1_555
H16 C10 1_555 1_555
C11 C5 1_555 1_555
C12 C6 1_555 1_555
Cu4 O8 1_555 1_555
O12 Cu2 1_555 1_555
O13 Cu1 1_555 1_555
O14 Cu3 1_555 1_555
N9 Cu3 1_555 1_555
Cu2 O8 1_555 1_555
N5 N6 1_555 1_555
N7 C3 1_555 1_555
N7 C4 1_555 1_555
C7 C8 1_555 1_555
C9 C10 1_555 1_555
Cu4 O13 1_555 1_555
N2 N1 1_555 1_555
N3 N4 1_555 1_555
N4 H6 1_555 1_555
H7 N4 1_555 1_555
C1 N2 1_555 1_555
H10 C1 1_555 1_555
C2 N1 1_555 1_555
H11 C2 1_555 1_555
N2 Cu6 1_555 1_555
N3 C1 1_555 1_555
N3 C2 1_555 1_555
Cu3_2 O9_2 1_555 1_555
O8_2 Cu1_2 1_555 1_555
H1_2 O8_2 1_555 1_555
O9_2 Cu1_2 1_555 1_555
H2_2 O9_2 1_555 1_555
O10_2 Cu5 1_555 1_555
H3_2 O10_2 1_555 1_555
O11_2 Cu3_2 1_555 1_555
H4_2 O11_2 1_555 1_555
H5_2 O11_2 1_555 1_555
N5_2 Cu1_2 1_555 1_555
N6_2 Cu3_2 1_555 1_555
C3_2 N6_2 1_555 1_555
H12_2 C3_2 1_555 1_555
O14_2 Cu3_2 1_555 1_555
N9_2 Cu3_2 1_555 1_555
Cu5 O8_2 1_555 1_555
N5_2 N6_2 1_555 1_555
S1_2 O12 1_555 1_555
O1_2 C11_2 1_555 1_555
O2_2 C11_2 1_555 1_555
O3_2 C12_2 1_555 1_555
O4_2 C12_2 1_555 1_555
O6_2 S1_2 1_555 1_555
O7_2 S1_2 1_555 1_555
N7_2 N8_2 1_555 1_555
N8_2 H8_2 1_555 1_555
H9_2 N8_2 1_555 1_555
H13_2 C4_2 1_555 1_555
C5_2 C6_2 1_555 1_555
C6_2 C7_2 1_555 1_555
C7_2 H14_2 1_555 1_555
C8_2 S1_2 1_555 1_555
C9_2 C8_2 1_555 1_555
H15_2 C9_2 1_555 1_555
C10_2 C5_2 1_555 1_555
H16_2 C10_2 1_555 1_555
C11_2 C5_2 1_555 1_555
C12_2 C6_2 1_555 1_555
N7_2 C4_2 1_555 1_555
C7_2 C8_2 1_555 1_555
C9_2 C10_2 1_555 1_555
Cu4_2 O13_2 1_555 1_555
N2_2 N1_2 1_555 1_555
C1_2 N2_2 1_555 1_555
H10_2 C1_2 1_555 1_555
N2_2 Cu6_2 1_555 1_555
S1_3 O5_2 1_555 1_555
O5_2 Cu5_2 1_555 1_555
O6_3 S1_3 1_555 1_555
O7_3 S1_3 1_555 1_555
H5_3 O11_3 1_555 1_555
H9_3 N8_3 1_555 1_555
Cu1_3 O2_3 1_555 1_555
Cu2_2 O1_3 1_555 1_555
Cu6_2 O9_3 1_555 1_555
O1_3 C11_3 1_555 1_555
O2_3 C11_3 1_555 1_555
O3_3 C12_3 1_555 1_555
O4_3 C12_3 1_555 1_555
O8_3 Cu1_3 1_555 1_555
H1_3 O8_3 1_555 1_555
O9_3 Cu1_3 1_555 1_555
H2_3 O9_3 1_555 1_555
O14_2 Cu2_2 1_555 1_555
H3_3 O14_2 1_555 1_555
N1_3 Cu2_2 1_555 1_555
N9_2 N1_3 1_555 1_555
N3_2 N4_2 1_555 1_555
N4_2 H6_2 1_555 1_555
H7_2 N4_2 1_555 1_555
N5_3 Cu1_3 1_555 1_555
N6_3 Cu6_2 1_555 1_555
C1_3 N9_2 1_555 1_555
H10_3 C1_3 1_555 1_555
C2_2 N1_3 1_555 1_555
H11_2 C2_2 1_555 1_555
C3_3 N6_3 1_555 1_555
C4_3 N5_3 1_555 1_555
H13_3 C4_3 1_555 1_555
C5_3 C6_3 1_555 1_555
C6_3 C7_3 1_555 1_555
C7_3 H14_3 1_555 1_555
C10_3 C5_3 1_555 1_555
H16_3 C10_3 1_555 1_555
C11_3 C5_3 1_555 1_555
C12_3 C6_3 1_555 1_555
Cu4_3 O8_3 1_555 1_555
O12_2 Cu2_2 1_555 1_555
O13_3 Cu1_3 1_555 1_555
Cu2_2 O8_3 1_555 1_555
N3_2 C1_3 1_555 1_555
N3_2 C2_2 1_555 1_555
N5_3 N6_3 1_555 1_555
N7_3 C3_3 1_555 1_555
N7_3 C4_3 1_555 1_555
Cu4_3 O13_3 1_555 1_555
H5_4 O11_4 1_555 1_555
Cu6 O9_4 1_555 1_555
O8_4 Cu1_4 1_555 1_555
H1_4 O8_4 1_555 1_555
O9_4 Cu1_4 1_555 1_555
H2_4 O9_4 1_555 1_555
O14 Cu5_2 1_555 1_555
H3_4 O14 1_555 1_555
N1_4 Cu5_2 1_555 1_555
N9 N1_4 1_555 1_555
N5_4 Cu1_4 1_555 1_555
N6_4 Cu6 1_555 1_555
C1_4 N9 1_555 1_555
H10_4 C1_4 1_555 1_555
C3_4 N6_4 1_555 1_555
Cu5_2 O8_4 1_555 1_555
N5_4 N6_4 1_555 1_555
O1_4 C11_4 1_555 1_555
O2_4 C11_4 1_555 1_555
O3_4 C12_4 1_555 1_555
O4_4 C12_4 1_555 1_555
N3_3 N4_3 1_555 1_555
N4_3 H6_3 1_555 1_555
H7_3 N4_3 1_555 1_555
H11_3 C2_3 1_555 1_555
H13_4 C4_4 1_555 1_555
C5_4 C6_4 1_555 1_555
C6_4 C7_4 1_555 1_555
C7_4 H14_4 1_555 1_555
C10_4 C5_4 1_555 1_555
H16_4 C10_4 1_555 1_555
C11_4 C5_4 1_555 1_555
C12_4 C6_4 1_555 1_555
N3_3 C2_3 1_555 1_555
N7_4 C4_4 1_555 1_555
Cu4_4 O13_4 1_555 1_555
S1_4 O12_2 1_555 1_555
O6_4 S1_4 1_555 1_555
O7_4 S1_4 1_555 1_555
C8_3 S1_4 1_555 1_555
C9_3 C8_3 1_555 1_555
H15_3 C9_3 1_555 1_555
N2_3 N1_5 1_555 1_555
N3_4 N4_4 1_555 1_555
N4_4 H6_4 1_555 1_555
H7_4 N4_4 1_555 1_555
C1_5 N2_3 1_555 1_555
H10_5 C1_5 1_555 1_555
C2_4 N1_5 1_555 1_555
H11_4 C2_4 1_555 1_555
N2_3 Cu6_3 1_555 1_555
N3_4 C1_5 1_555 1_555
N3_4 C2_4 1_555 1_555
Cu4_3 O2_5 1_555 1_555
Cu2_3 O1_5 1_555 1_555
Cu3_3 O9_5 1_555 1_555
O1_5 C11_5 1_555 1_555
O2_5 C11_5 1_555 1_555
O3_5 C12_5 1_555 1_555
O4_5 C12_5 1_555 1_555
H1_5 O13_3 1_555 1_555
O9_5 Cu4_3 1_555 1_555
H2_5 O9_5 1_555 1_555
O10_3 Cu2_3 1_555 1_555
H3_5 O10_3 1_555 1_555
O11_5 Cu3_3 1_555 1_555
H4_5 O11_5 1_555 1_555
H5_5 O11_5 1_555 1_555
N5_5 Cu4_3 1_555 1_555
N6_5 Cu3_3 1_555 1_555
N7_5 N8_4 1_555 1_555
N8_4 H8_3 1_555 1_555
H9_4 N8_4 1_555 1_555
C3_5 N6_5 1_555 1_555
H12_5 C3_5 1_555 1_555
C4_5 N5_5 1_555 1_555
H13_5 C4_5 1_555 1_555
C5_5 C6_5 1_555 1_555
C6_5 C7_5 1_555 1_555
C7_5 H14_5 1_555 1_555
C9_4 C8_4 1_555 1_555
H15_4 C9_4 1_555 1_555
C10_5 C5_5 1_555 1_555
H16_5 C10_5 1_555 1_555
C11_5 C5_5 1_555 1_555
C12_5 C6_5 1_555 1_555
O12_3 Cu2_3 1_555 1_555
O14_3 Cu3_3 1_555 1_555
N9_3 Cu3_3 1_555 1_555
Cu2_3 O13_3 1_555 1_555
N5_5 N6_5 1_555 1_555
N7_5 C3_5 1_555 1_555
N7_5 C4_5 1_555 1_555
C7_5 C8_4 1_555 1_555
C9_4 C10_5 1_555 1_555
S1_5 O5_3 1_555 1_555
O5_3 Cu5_3 1_555 1_555
O6_5 S1_5 1_555 1_555
O7_5 S1_5 1_555 1_555
N2_4 N1_6 1_555 1_555
C1_6 N2_4 1_555 1_555
H10_6 C1_6 1_555 1_555
N2_4 Cu6_4 1_555 1_555
S1_6 O12_3 1_555 1_555
O1_6 C11_6 1_555 1_555
O2_6 C11_6 1_555 1_555
O3_6 C12_6 1_555 1_555
O4_6 C12_6 1_555 1_555
O6_6 S1_6 1_555 1_555
O7_6 S1_6 1_555 1_555
N7_6 N8_5 1_555 1_555
N8_5 H8_4 1_555 1_555
H9_5 N8_5 1_555 1_555
H13_6 C4_6 1_555 1_555
C5_6 C6_6 1_555 1_555
C6_6 C7_6 1_555 1_555
C7_6 H14_6 1_555 1_555
C8_5 S1_6 1_555 1_555
C9_5 C8_5 1_555 1_555
H15_5 C9_5 1_555 1_555
C10_6 C5_6 1_555 1_555
H16_6 C10_6 1_555 1_555
C11_6 C5_6 1_555 1_555
C12_6 C6_6 1_555 1_555
N7_6 C4_6 1_555 1_555
C7_6 C8_5 1_555 1_555
C9_5 C10_6 1_555 1_555
Cu3_4 O9_6 1_555 1_555
H1_6 O13_4 1_555 1_555
O9_6 Cu4_4 1_555 1_555
H2_6 O9_6 1_555 1_555
O10_4 Cu5_3 1_555 1_555
H3_6 O10_4 1_555 1_555
O11_6 Cu3_4 1_555 1_555
H4_6 O11_6 1_555 1_555
H5_6 O11_6 1_555 1_555
N5_6 Cu4_4 1_555 1_555
N6_6 Cu3_4 1_555 1_555
C3_6 N6_6 1_555 1_555
H12_6 C3_6 1_555 1_555
O14_4 Cu3_4 1_555 1_555
N9_4 Cu3_4 1_555 1_555
Cu5_3 O13_4 1_555 1_555
N5_6 N6_6 1_555 1_555
Cu4 O2_7 1_555 1_555
Cu2_4 O1_7 1_555 1_555
Cu6_4 O9_7 1_555 1_555
O1_7 C11_7 1_555 1_555
O2_7 C11_7 1_555 1_555
O3_7 C12_7 1_555 1_555
O4_7 C12_7 1_555 1_555
H1_7 O13 1_555 1_555
O9_7 Cu4 1_555 1_555
H2_7 O9_7 1_555 1_555
O14_4 Cu2_4 1_555 1_555
H3_7 O14_4 1_555 1_555
N1_7 Cu2_4 1_555 1_555
N9_4 N1_7 1_555 1_555
N3_5 N4_5 1_555 1_555
N4_5 H6_5 1_555 1_555
H7_5 N4_5 1_555 1_555
N5_7 Cu4 1_555 1_555
N6_7 Cu6_4 1_555 1_555
C1_7 N9_4 1_555 1_555
H10_7 C1_7 1_555 1_555
C2_5 N1_7 1_555 1_555
H11_5 C2_5 1_555 1_555
C3_7 N6_7 1_555 1_555
C4_7 N5_7 1_555 1_555
H13_7 C4_7 1_555 1_555
C5_7 C6_7 1_555 1_555
C6_7 C7_7 1_555 1_555
C7_7 H14_7 1_555 1_555
C10_7 C5_7 1_555 1_555
H16_7 C10_7 1_555 1_555
C11_7 C5_7 1_555 1_555
C12_7 C6_7 1_555 1_555
O12_4 Cu2_4 1_555 1_555
Cu2_4 O13 1_555 1_555
N3_5 C1_7 1_555 1_555
N3_5 C2_5 1_555 1_555
N5_7 N6_7 1_555 1_555
N7_7 C3_7 1_555 1_555
N7_7 C4_7 1_555 1_555
H5_7 O11_7 1_555 1_555
H9_6 N8_6 1_555 1_555
S1_7 O5_4 1_555 1_555
O5_4 Cu5_4 1_555 1_555
O6_7 S1_7 1_555 1_555
O7_7 S1_7 1_555 1_555
S1_8 O12_4 1_555 1_555
O6_8 S1_8 1_555 1_555
O7_8 S1_8 1_555 1_555
C8_6 S1_8 1_555 1_555
C9_6 C8_6 1_555 1_555
H15_6 C9_6 1_555 1_555
O1_8 C11_8 1_555 1_555
O2_8 C11_8 1_555 1_555
O3_8 C12_8 1_555 1_555
O4_8 C12_8 1_555 1_555
N3_6 N4_6 1_555 1_555
N4_6 H6_6 1_555 1_555
H7_6 N4_6 1_555 1_555
H11_6 C2_6 1_555 1_555
H13_8 C4_8 1_555 1_555
C5_8 C6_8 1_555 1_555
C6_8 C7_8 1_555 1_555
C7_8 H14_8 1_555 1_555
C10_8 C5_8 1_555 1_555
H16_8 C10_8 1_555 1_555
C11_8 C5_8 1_555 1_555
C12_8 C6_8 1_555 1_555
N3_6 C2_6 1_555 1_555
N7_8 C4_8 1_555 1_555
Cu6_3 O9_8 1_555 1_555
H1_8 O13_2 1_555 1_555
O9_8 Cu4_2 1_555 1_555
H2_8 O9_8 1_555 1_555
O14_3 Cu5_4 1_555 1_555
H3_8 O14_3 1_555 1_555
N1_8 Cu5_4 1_555 1_555
N9_3 N1_8 1_555 1_555
N5_8 Cu4_2 1_555 1_555
N6_8 Cu6_3 1_555 1_555
C1_8 N9_3 1_555 1_555
H10_8 C1_8 1_555 1_555
C3_8 N6_8 1_555 1_555
Cu5_4 O13_2 1_555 1_555
N5_8 N6_8 1_555 1_555
H5_8 O11_8 1_555 1_555
N3_7 N4_7 1_555 1_555
N4_7 H6_7 1_555 1_555
H7_7 N4_7 1_555 1_555
H11_7 C2_7 1_555 1_555
N3_7 C2_7 1_555 1_555
C9_7 C8_7 1_555 1_555
H15_7 C9_7 1_555 1_555
H9_7 N8_7 1_555 1_555
N3_8 N4_8 1_555 1_555
N4_8 H6_8 1_555 1_555
H7_8 N4_8 1_555 1_555
H11_8 C2_8 1_555 1_555
N3_8 C2_8 1_555 1_555
C9_8 C8_8 1_555 1_555
H15_8 C9_8 1_555 1_555
H9_8 N8_8 1_555 1_555

#END
