
###############################################################################
#
# This file contains modified crystal structure data generated from the
# MOF subset of the Cambridge Structural Database (CSD) v543 
# hosted by the Cambridge Crystallographic Data Centre (CCDC).
#
# This work is licensed under the Creative Commons
# Attribution-NonCommercial-ShareAlike 4.0 International License.
# To view a copy of this license, visit
# http://creativecommons.org/licenses/by-nc-sa/4.0/
# or send a letter to
# Creative Commons, PO Box 1866, Mountain View, CA 94042, USA.
#
# CIF created using the CSD Python API on 29 September 2022
# The structure has been converted into the P1 space group
# The structure has a 3D framework
# The original CSD entry LUBNAZ is in the tetragonal crystal system
# The framework has been calculated to contain at least 10.0% void space
# The void calculation uses a probe of radius 1.32A, grid spacing 0.4
# H atom positions have been added when not included in the experimental data
#
###############################################################################

data_LUBNAZ
_chemical_formula_moiety         '(C168 H104 Co16 N8 O108 Zn8)n'
_symmetry_cell_setting           triclinic
_symmetry_space_group_name_H-M   'P 1'
_symmetry_Int_Tables_number      1
_space_group_name_Hall           'P 1'
loop_
_symmetry_equiv_pos_site_id
_symmetry_equiv_pos_as_xyz
1 x,y,z
_cell_length_a                   20.796(3)
_cell_length_b                   20.796(3)
_cell_length_c                   17.869(4)
_cell_angle_alpha                90
_cell_angle_beta                 90
_cell_angle_gamma                90
_cell_volume                     7727.87
loop_
_atom_site_label
_atom_site_type_symbol
_atom_site_fract_x
_atom_site_fract_y
_atom_site_fract_z
Co2 Co 0.12247(2) 0.74471(2) 0.69928(4)
O9 O 0.06037(13) 0.66897(13) 0.83773(17)
O10 O 0.04108(15) 0.74616(18) 0.75362(16)
C13 C 0.02841(19) 0.71373(19) 0.8144(2)
Zn2 Zn 0.16067(2) 0.66067(2) 0.84495(4)
O16 O 0.17592(17) 0.81261(17) 0.74876(15)
O19 O 0.1292(2) 0.76666(17) 0.5942(2)
O20 O 0.16261(13) 0.66261(13) 0.7281(2)
O5 O 0.6895(2) 0.05321(19) 0.08400(17)
O6 O 0.76666(17) 0.1292(2) 0.0942(2)
C5 C 0.7279(2) 0.0871(2) 0.0569(2)
Co4 Co 0.74471(2) 0.12247(2) 0.19928(4)
O3 O 0.82408(17) 0.18739(17) 0.74876(15)
O4 O 0.8366(2) 0.23990(14) 0.86110(17)
C2 C 0.7332(2) 0.0342(2) 0.8555(2)
C3 C 0.7203(2) 0.0366(2) 0.9320(2)
H1 H 0.6985 0.0034 0.9559
C4 C 0.7409(3) 0.0901(3) 0.9709(2)
C6 C 0.7726(3) 0.1395(2) 0.9361(2)
H2 H 0.7871 0.1741 0.9644
C7 C 0.7837(2) 0.1391(2) 0.8578(2)
C8 C 0.8175(2) 0.1916(2) 0.8214(2)
C9 C 0.7640(2) 0.08360(19) 0.8186(2)
H3 H 0.7718 0.0803 0.7675
Zn3 Zn 0.83933(2) 0.33933(2) 0.84495(4)
Co3 Co 0.87753(2) 0.25529(2) 0.69928(4)
C10 C 0.6725(4) 0.8275(4) 0.0074(5)
H4 H 0.7038 0.7962 0.0005
C11 C 0.6992(7) 0.8008(7) 0.1337(10)
C12 C 0.6060(8) 0.8940(8) 0.0781(13)
N1 N 0.6542(6) 0.8458(6) 0.0780(6)
O13 O 0.94679(19) 0.6895(2) 0.08400(17)
O14 O 0.8708(2) 0.76666(17) 0.0942(2)
C17 C 0.9129(2) 0.7279(2) 0.0569(2)
Co5 Co 0.87753(2) 0.74471(2) 0.19928(4)
H8 H 0.749789 0.810677 0.122949
H9 H 0.688082 0.811918 0.191831
H10 H 0.689323 0.750211 0.122949
H11 H 0.563402 0.876131 0.0493966
H12 H 0.593701 0.906299 0.135584
H13 H 0.623869 0.936598 0.0493966
Zn1 Zn 0.66067(2) 0.83933(2) 0.84495(4)
Co1 Co 0.74471(2) 0.87753(2) 0.69928(4)
O1 O 0.66897(13) 0.93963(13) 0.83773(17)
O2 O 0.74616(18) 0.95892(15) 0.75362(16)
O7 O 0.66261(13) 0.83739(13) 0.7281(2)
O8 O 0.64915(18) 0.85085(18) 0.9589(2)
C1 C 0.71373(19) 0.97159(19) 0.8144(2)
O11 O 0.81261(17) 0.82408(17) 0.74876(15)
O12 O 0.76010(14) 0.8366(2) 0.86110(17)
C14 C 0.9658(2) 0.7332(2) 0.8555(2)
C15 C 0.9634(2) 0.7203(2) 0.9320(2)
H5 H 0.9966 0.6985 0.9559
C16 C 0.9099(3) 0.7409(3) 0.9709(2)
C18 C 0.8605(2) 0.7726(3) 0.9361(2)
H6 H 0.8259 0.7871 0.9644
C19 C 0.8609(2) 0.7837(2) 0.8578(2)
C20 C 0.8084(2) 0.8175(2) 0.8214(2)
C21 C 0.91640(19) 0.7640(2) 0.8186(2)
H7 H 0.9197 0.7718 0.7675
Co6 Co 0.62247(2) 0.75529(2) 0.69928(4)
O15 O 0.56037(13) 0.83103(13) 0.83773(17)
O17 O 0.6634(2) 0.73990(14) 0.86110(17)
O18 O 0.76666(17) 0.8708(2) 0.5942(2)
C10_2 C 0.3275(4) 0.1725(4) 0.0074(5)
H4_2 H 0.2962 0.2038 0.0005
C11_2 C 0.3008(7) 0.1992(7) 0.1337(10)
C12_2 C 0.3940(8) 0.1060(8) 0.0781(13)
N1_2 N 0.3458(6) 0.1542(6) 0.0780(6)
O13_2 O 0.05321(19) 0.3105(2) 0.08400(17)
O14_2 O 0.1292(2) 0.23334(17) 0.0942(2)
C17_2 C 0.0871(2) 0.2721(2) 0.0569(2)
Co5_2 Co 0.12247(2) 0.25529(2) 0.19928(4)
H8_2 H 0.250211 0.189323 0.122949
H9_2 H 0.311918 0.188082 0.191831
H10_2 H 0.310677 0.249789 0.122949
H11_2 H 0.436598 0.123869 0.0493966
H12_2 H 0.406299 0.0937013 0.135584
H13_2 H 0.376131 0.0634018 0.0493966
Zn1_2 Zn 0.33933(2) 0.16067(2) 0.84495(4)
Co1_2 Co 0.25529(2) 0.12247(2) 0.69928(4)
O1_2 O 0.33103(13) 0.06037(13) 0.83773(17)
O2_2 O 0.25384(18) 0.04108(15) 0.75362(16)
O7_2 O 0.33739(13) 0.16261(13) 0.7281(2)
O8_2 O 0.35085(18) 0.14915(18) 0.9589(2)
C1_2 C 0.28627(19) 0.02841(19) 0.8144(2)
O11_2 O 0.18739(17) 0.17592(17) 0.74876(15)
O12_2 O 0.23990(14) 0.1634(2) 0.86110(17)
C14_2 C 0.0342(2) 0.2668(2) 0.8555(2)
C15_2 C 0.0366(2) 0.2797(2) 0.9320(2)
H5_2 H 0.0034 0.3015 0.9559
C16_2 C 0.0901(3) 0.2591(3) 0.9709(2)
C18_2 C 0.1395(2) 0.2274(3) 0.9361(2)
H6_2 H 0.1741 0.2129 0.9644
C19_2 C 0.1391(2) 0.2163(2) 0.8578(2)
C20_2 C 0.1916(2) 0.1825(2) 0.8214(2)
C21_2 C 0.08360(19) 0.2360(2) 0.8186(2)
H7_2 H 0.0803 0.2282 0.7675
Co6_2 Co 0.37753(2) 0.24471(2) 0.69928(4)
O15_2 O 0.43963(13) 0.16897(13) 0.83773(17)
O17_2 O 0.3366(2) 0.26010(14) 0.86110(17)
O18_2 O 0.23334(17) 0.1292(2) 0.5942(2)
O5_2 O 0.3105(2) 0.94679(19) 0.08400(17)
O6_2 O 0.23334(17) 0.8708(2) 0.0942(2)
C5_2 C 0.2721(2) 0.9129(2) 0.0569(2)
Co4_2 Co 0.25529(2) 0.87753(2) 0.19928(4)
O4_2 O 0.1634(2) 0.76010(14) 0.86110(17)
C2_2 C 0.2668(2) 0.9658(2) 0.8555(2)
C3_2 C 0.2797(2) 0.9634(2) 0.9320(2)
H1_2 H 0.3015 0.9966 0.9559
C4_2 C 0.2591(3) 0.9099(3) 0.9709(2)
C6_2 C 0.2274(3) 0.8605(2) 0.9361(2)
H2_2 H 0.2129 0.8259 0.9644
C7_2 C 0.2163(2) 0.8609(2) 0.8578(2)
C8_2 C 0.1825(2) 0.8084(2) 0.8214(2)
C9_2 C 0.2360(2) 0.91640(19) 0.8186(2)
H3_2 H 0.2282 0.9197 0.7675
O9_2 O 0.93963(13) 0.33103(13) 0.83773(17)
O10_2 O 0.95892(15) 0.25384(18) 0.75362(16)
C13_2 C 0.97159(19) 0.28627(19) 0.8144(2)
O19_2 O 0.8708(2) 0.23334(17) 0.5942(2)
O20_2 O 0.83739(13) 0.33739(13) 0.7281(2)
C10_3 C 0.1725(4) 0.6725(4) 0.0074(5)
H4_3 H 0.2038 0.7038 0.0005
C11_3 C 0.1992(7) 0.6992(7) 0.1337(10)
C12_3 C 0.1060(8) 0.6060(8) 0.0781(13)
N1_3 N 0.1542(6) 0.6542(6) 0.0780(6)
H8_3 H 0.189323 0.749789 0.122949
H9_3 H 0.188082 0.688082 0.191831
H10_3 H 0.249789 0.689323 0.122949
H11_3 H 0.123869 0.563402 0.0493966
H12_3 H 0.0937013 0.593701 0.135584
H13_3 H 0.0634018 0.623869 0.0493966
O8_3 O 0.14915(18) 0.64915(18) 0.9589(2)
Co6_3 Co 0.24471(2) 0.62247(2) 0.69928(4)
O15_3 O 0.16897(13) 0.56037(13) 0.83773(17)
O17_3 O 0.26010(14) 0.6634(2) 0.86110(17)
C10_4 C 0.8275(4) 0.3275(4) 0.0074(5)
H4_4 H 0.7962 0.2962 0.0005
C11_4 C 0.8008(7) 0.3008(7) 0.1337(10)
C12_4 C 0.8940(8) 0.3940(8) 0.0781(13)
N1_4 N 0.8458(6) 0.3458(6) 0.0780(6)
H8_4 H 0.810677 0.250211 0.122949
H9_4 H 0.811918 0.311918 0.191831
H10_4 H 0.750211 0.310677 0.122949
H11_4 H 0.876131 0.436598 0.0493966
H12_4 H 0.906299 0.406299 0.135584
H13_4 H 0.936598 0.376131 0.0493966
O8_4 O 0.85085(18) 0.35085(18) 0.9589(2)
Co6_4 Co 0.75529(2) 0.37753(2) 0.69928(4)
O15_4 O 0.83103(13) 0.43963(13) 0.83773(17)
O17_4 O 0.73990(14) 0.3366(2) 0.86110(17)
O9_3 O 0.06037(13) 0.33103(13) 0.33773(17)
O10_3 O 0.04108(15) 0.25384(18) 0.25362(16)
C13_3 C 0.02841(19) 0.28627(19) 0.3144(2)
Zn2_2 Zn 0.16067(2) 0.33933(2) 0.34495(4)
O16_2 O 0.17592(17) 0.18739(17) 0.24876(15)
O20_3 O 0.16261(13) 0.33739(13) 0.2281(2)
Zn1_3 Zn 0.66067(2) 0.16067(2) 0.34495(4)
O1_3 O 0.66897(13) 0.06037(13) 0.33773(17)
O2_3 O 0.74616(18) 0.04108(15) 0.25362(16)
O7_3 O 0.66261(13) 0.16261(13) 0.2281(2)
O8_5 O 0.64915(18) 0.14915(18) 0.4589(2)
C1_3 C 0.71373(19) 0.02841(19) 0.3144(2)
C10_5 C 0.6725(4) 0.1725(4) 0.5074(5)
H4_5 H 0.7038 0.2038 0.5005
C11_5 C 0.6992(7) 0.1992(7) 0.6337(10)
C12_5 C 0.6060(8) 0.1060(8) 0.5781(13)
N1_5 N 0.6542(6) 0.1542(6) 0.5780(6)
O11_3 O 0.81261(17) 0.17592(17) 0.24876(15)
O12_3 O 0.76010(14) 0.1634(2) 0.36110(17)
O13_3 O 0.94679(19) 0.3105(2) 0.58400(17)
C14_3 C 0.9658(2) 0.2668(2) 0.3555(2)
C15_3 C 0.9634(2) 0.2797(2) 0.4320(2)
H5_3 H 0.9966 0.3015 0.4559
C16_3 C 0.9099(3) 0.2591(3) 0.4709(2)
C17_3 C 0.9129(2) 0.2721(2) 0.5569(2)
C18_3 C 0.8605(2) 0.2274(3) 0.4361(2)
H6_3 H 0.8259 0.2129 0.4644
C19_3 C 0.8609(2) 0.2163(2) 0.3578(2)
C20_3 C 0.8084(2) 0.1825(2) 0.3214(2)
C21_3 C 0.91640(19) 0.2360(2) 0.3186(2)
H7_3 H 0.9197 0.2282 0.2675
Co6_5 Co 0.62247(2) 0.24471(2) 0.19928(4)
O15_5 O 0.56037(13) 0.16897(13) 0.33773(17)
O17_5 O 0.6634(2) 0.26010(14) 0.36110(17)
H8_5 H 0.749789 0.189323 0.622949
H9_5 H 0.688082 0.188082 0.691831
H10_5 H 0.689323 0.249789 0.622949
H11_5 H 0.563402 0.123869 0.549397
H12_5 H 0.593701 0.0937013 0.635584
H13_5 H 0.623869 0.0634018 0.549397
O3_2 O 0.82408(17) 0.81261(17) 0.24876(15)
O4_3 O 0.8366(2) 0.76010(14) 0.36110(17)
O5_3 O 0.6895(2) 0.94679(19) 0.58400(17)
C2_3 C 0.7332(2) 0.9658(2) 0.3555(2)
C3_3 C 0.7203(2) 0.9634(2) 0.4320(2)
H1_3 H 0.6985 0.9966 0.4559
C4_3 C 0.7409(3) 0.9099(3) 0.4709(2)
C5_3 C 0.7279(2) 0.9129(2) 0.5569(2)
C6_3 C 0.7726(3) 0.8605(2) 0.4361(2)
H2_3 H 0.7871 0.8259 0.4644
C7_3 C 0.7837(2) 0.8609(2) 0.3578(2)
C8_3 C 0.8175(2) 0.8084(2) 0.3214(2)
C9_3 C 0.7640(2) 0.91640(19) 0.3186(2)
H3_3 H 0.7718 0.9197 0.2675
Zn3_2 Zn 0.83933(2) 0.66067(2) 0.34495(4)
O4_4 O 0.1634(2) 0.23990(14) 0.36110(17)
O5_4 O 0.3105(2) 0.05321(19) 0.58400(17)
C2_4 C 0.2668(2) 0.0342(2) 0.3555(2)
C3_4 C 0.2797(2) 0.0366(2) 0.4320(2)
H1_4 H 0.3015 0.0034 0.4559
C4_4 C 0.2591(3) 0.0901(3) 0.4709(2)
C5_4 C 0.2721(2) 0.0871(2) 0.5569(2)
C6_4 C 0.2274(3) 0.1395(2) 0.4361(2)
H2_4 H 0.2129 0.1741 0.4644
C7_4 C 0.2163(2) 0.1391(2) 0.3578(2)
C8_4 C 0.1825(2) 0.1916(2) 0.3214(2)
C9_4 C 0.2360(2) 0.08360(19) 0.3186(2)
H3_4 H 0.2282 0.0803 0.2675
Zn1_4 Zn 0.33933(2) 0.83933(2) 0.34495(4)
O1_4 O 0.33103(13) 0.93963(13) 0.33773(17)
O2_4 O 0.25384(18) 0.95892(15) 0.25362(16)
O7_4 O 0.33739(13) 0.83739(13) 0.2281(2)
O8_6 O 0.35085(18) 0.85085(18) 0.4589(2)
C1_4 C 0.28627(19) 0.97159(19) 0.3144(2)
C10_6 C 0.3275(4) 0.8275(4) 0.5074(5)
H4_6 H 0.2962 0.7962 0.5005
C11_6 C 0.3008(7) 0.8008(7) 0.6337(10)
C12_6 C 0.3940(8) 0.8940(8) 0.5781(13)
N1_6 N 0.3458(6) 0.8458(6) 0.5780(6)
O11_4 O 0.18739(17) 0.82408(17) 0.24876(15)
O12_4 O 0.23990(14) 0.8366(2) 0.36110(17)
O13_4 O 0.05321(19) 0.6895(2) 0.58400(17)
C14_4 C 0.0342(2) 0.7332(2) 0.3555(2)
C15_4 C 0.0366(2) 0.7203(2) 0.4320(2)
H5_4 H 0.0034 0.6985 0.4559
C16_4 C 0.0901(3) 0.7409(3) 0.4709(2)
C17_4 C 0.0871(2) 0.7279(2) 0.5569(2)
C18_4 C 0.1395(2) 0.7726(3) 0.4361(2)
H6_4 H 0.1741 0.7871 0.4644
C19_4 C 0.1391(2) 0.7837(2) 0.3578(2)
C20_4 C 0.1916(2) 0.8175(2) 0.3214(2)
C21_4 C 0.08360(19) 0.7640(2) 0.3186(2)
H7_4 H 0.0803 0.7718 0.2675
Co6_6 Co 0.37753(2) 0.75529(2) 0.19928(4)
O15_6 O 0.43963(13) 0.83103(13) 0.33773(17)
O17_6 O 0.3366(2) 0.73990(14) 0.36110(17)
H8_6 H 0.250211 0.810677 0.622949
H9_6 H 0.311918 0.811918 0.691831
H10_6 H 0.310677 0.750211 0.622949
H11_6 H 0.436598 0.876131 0.549397
H12_6 H 0.406299 0.906299 0.635584
H13_6 H 0.376131 0.936598 0.549397
O9_4 O 0.93963(13) 0.66897(13) 0.33773(17)
O10_4 O 0.95892(15) 0.74616(18) 0.25362(16)
C13_4 C 0.97159(19) 0.71373(19) 0.3144(2)
O20_4 O 0.83739(13) 0.66261(13) 0.2281(2)
O8_7 O 0.14915(18) 0.35085(18) 0.4589(2)
C10_7 C 0.1725(4) 0.3275(4) 0.5074(5)
H4_7 H 0.2038 0.2962 0.5005
C11_7 C 0.1992(7) 0.3008(7) 0.6337(10)
C12_7 C 0.1060(8) 0.3940(8) 0.5781(13)
N1_7 N 0.1542(6) 0.3458(6) 0.5780(6)
Co6_7 Co 0.24471(2) 0.37753(2) 0.19928(4)
O15_7 O 0.16897(13) 0.43963(13) 0.33773(17)
O17_7 O 0.26010(14) 0.3366(2) 0.36110(17)
H8_7 H 0.189323 0.250211 0.622949
H9_7 H 0.188082 0.311918 0.691831
H10_7 H 0.249789 0.310677 0.622949
H11_7 H 0.123869 0.436598 0.549397
H12_7 H 0.0937013 0.406299 0.635584
H13_7 H 0.0634018 0.376131 0.549397
O8_8 O 0.85085(18) 0.64915(18) 0.4589(2)
C10_8 C 0.8275(4) 0.6725(4) 0.5074(5)
H4_8 H 0.7962 0.7038 0.5005
C11_8 C 0.8008(7) 0.6992(7) 0.6337(10)
C12_8 C 0.8940(8) 0.6060(8) 0.5781(13)
N1_8 N 0.8458(6) 0.6542(6) 0.5780(6)
Co6_8 Co 0.75529(2) 0.62247(2) 0.19928(4)
O15_8 O 0.83103(13) 0.56037(13) 0.33773(17)
O17_8 O 0.73990(14) 0.6634(2) 0.36110(17)
H8_8 H 0.810677 0.749789 0.622949
H9_8 H 0.811918 0.688082 0.691831
H10_8 H 0.750211 0.689323 0.622949
H11_8 H 0.876131 0.563402 0.549397
H12_8 H 0.906299 0.593701 0.635584
H13_8 H 0.936598 0.623869 0.549397
O2_5 O 0.24616(18) 0.45892(15) 0.25362(16)
O3_3 O 0.32408(17) 0.68739(17) 0.24876(15)
O5_5 O 0.1895(2) 0.55321(19) 0.58400(17)
O6_3 O 0.26666(17) 0.6292(2) 0.5942(2)
C1_5 C 0.21373(19) 0.47159(19) 0.3144(2)
C2_5 C 0.2332(2) 0.5342(2) 0.3555(2)
C3_5 C 0.2203(2) 0.5366(2) 0.4320(2)
H1_5 H 0.1985 0.5034 0.4559
C4_5 C 0.2409(3) 0.5901(3) 0.4709(2)
C5_5 C 0.2279(2) 0.5871(2) 0.5569(2)
C6_5 C 0.2726(3) 0.6395(2) 0.4361(2)
H2_5 H 0.2871 0.6741 0.4644
C7_5 C 0.2837(2) 0.6391(2) 0.3578(2)
C8_5 C 0.3175(2) 0.6916(2) 0.3214(2)
C9_5 C 0.2640(2) 0.58360(19) 0.3186(2)
H3_5 H 0.2718 0.5803 0.2675
O10_5 O 0.54108(15) 0.24616(18) 0.25362(16)
O11_5 O 0.31261(17) 0.32408(17) 0.24876(15)
O13_5 O 0.44679(19) 0.1895(2) 0.58400(17)
O14_3 O 0.3708(2) 0.26666(17) 0.5942(2)
C13_5 C 0.52841(19) 0.21373(19) 0.3144(2)
C14_5 C 0.4658(2) 0.2332(2) 0.3555(2)
C15_5 C 0.4634(2) 0.2203(2) 0.4320(2)
H5_5 H 0.4966 0.1985 0.4559
C16_5 C 0.4099(3) 0.2409(3) 0.4709(2)
C17_5 C 0.4129(2) 0.2279(2) 0.5569(2)
C18_5 C 0.3605(2) 0.2726(3) 0.4361(2)
H6_5 H 0.3259 0.2871 0.4644
C19_5 C 0.3609(2) 0.2837(2) 0.3578(2)
C20_5 C 0.3084(2) 0.3175(2) 0.3214(2)
C21_5 C 0.41640(19) 0.2640(2) 0.3186(2)
H7_5 H 0.4197 0.2718 0.2675
O16_3 O 0.67592(17) 0.31261(17) 0.24876(15)
O18_3 O 0.26666(17) 0.3708(2) 0.0942(2)
O19_3 O 0.6292(2) 0.26666(17) 0.0942(2)
O2_6 O 0.75384(18) 0.54108(15) 0.25362(16)
O5_6 O 0.8105(2) 0.44679(19) 0.58400(17)
O6_4 O 0.73334(17) 0.3708(2) 0.5942(2)
C1_6 C 0.78627(19) 0.52841(19) 0.3144(2)
C2_6 C 0.7668(2) 0.4658(2) 0.3555(2)
C3_6 C 0.7797(2) 0.4634(2) 0.4320(2)
H1_6 H 0.8015 0.4966 0.4559
C4_6 C 0.7591(3) 0.4099(3) 0.4709(2)
C5_6 C 0.7721(2) 0.4129(2) 0.5569(2)
C6_6 C 0.7274(3) 0.3605(2) 0.4361(2)
H2_6 H 0.7129 0.3259 0.4644
C7_6 C 0.7163(2) 0.3609(2) 0.3578(2)
C8_6 C 0.6825(2) 0.3084(2) 0.3214(2)
C9_6 C 0.7360(2) 0.41640(19) 0.3186(2)
H3_6 H 0.7282 0.4197 0.2675
O10_6 O 0.45892(15) 0.75384(18) 0.25362(16)
O11_6 O 0.68739(17) 0.67592(17) 0.24876(15)
O13_6 O 0.55321(19) 0.8105(2) 0.58400(17)
O14_4 O 0.6292(2) 0.73334(17) 0.5942(2)
C13_6 C 0.47159(19) 0.78627(19) 0.3144(2)
C14_6 C 0.5342(2) 0.7668(2) 0.3555(2)
C15_6 C 0.5366(2) 0.7797(2) 0.4320(2)
H5_6 H 0.5034 0.8015 0.4559
C16_6 C 0.5901(3) 0.7591(3) 0.4709(2)
C17_6 C 0.5871(2) 0.7721(2) 0.5569(2)
C18_6 C 0.6395(2) 0.7274(3) 0.4361(2)
H6_6 H 0.6741 0.7129 0.4644
C19_6 C 0.6391(2) 0.7163(2) 0.3578(2)
C20_6 C 0.6916(2) 0.6825(2) 0.3214(2)
C21_6 C 0.58360(19) 0.7360(2) 0.3186(2)
H7_6 H 0.5803 0.7282 0.2675
O18_4 O 0.73334(17) 0.6292(2) 0.0942(2)
O19_4 O 0.3708(2) 0.73334(17) 0.0942(2)
O5_7 O 0.1895(2) 0.44679(19) 0.08400(17)
C5_7 C 0.2279(2) 0.4129(2) 0.0569(2)
O13_7 O 0.44679(19) 0.8105(2) 0.08400(17)
C17_7 C 0.4129(2) 0.7721(2) 0.0569(2)
O2_7 O 0.24616(18) 0.54108(15) 0.75362(16)
O3_4 O 0.32408(17) 0.31261(17) 0.74876(15)
C1_7 C 0.21373(19) 0.52841(19) 0.8144(2)
C2_7 C 0.2332(2) 0.4658(2) 0.8555(2)
C3_7 C 0.2203(2) 0.4634(2) 0.9320(2)
H1_7 H 0.1985 0.4966 0.9559
C4_7 C 0.2409(3) 0.4099(3) 0.9709(2)
C6_7 C 0.2726(3) 0.3605(2) 0.9361(2)
H2_7 H 0.2871 0.3259 0.9644
C7_7 C 0.2837(2) 0.3609(2) 0.8578(2)
C8_7 C 0.3175(2) 0.3084(2) 0.8214(2)
C9_7 C 0.2640(2) 0.41640(19) 0.8186(2)
H3_7 H 0.2718 0.4197 0.7675
O10_7 O 0.54108(15) 0.75384(18) 0.75362(16)
O11_7 O 0.31261(17) 0.67592(17) 0.74876(15)
C13_7 C 0.52841(19) 0.78627(19) 0.8144(2)
C14_7 C 0.4658(2) 0.7668(2) 0.8555(2)
C15_7 C 0.4634(2) 0.7797(2) 0.9320(2)
H5_7 H 0.4966 0.8015 0.9559
C16_7 C 0.4099(3) 0.7591(3) 0.9709(2)
C18_7 C 0.3605(2) 0.7274(3) 0.9361(2)
H6_7 H 0.3259 0.7129 0.9644
C19_7 C 0.3609(2) 0.7163(2) 0.8578(2)
C20_7 C 0.3084(2) 0.6825(2) 0.8214(2)
C21_7 C 0.41640(19) 0.7360(2) 0.8186(2)
H7_7 H 0.4197 0.7282 0.7675
O16_4 O 0.67592(17) 0.68739(17) 0.74876(15)
O5_8 O 0.8105(2) 0.55321(19) 0.08400(17)
C5_8 C 0.7721(2) 0.5871(2) 0.0569(2)
O13_8 O 0.55321(19) 0.1895(2) 0.08400(17)
C17_8 C 0.5871(2) 0.2279(2) 0.0569(2)
O2_8 O 0.75384(18) 0.45892(15) 0.75362(16)
C1_8 C 0.78627(19) 0.47159(19) 0.8144(2)
C2_8 C 0.7668(2) 0.5342(2) 0.8555(2)
C3_8 C 0.7797(2) 0.5366(2) 0.9320(2)
H1_8 H 0.8015 0.5034 0.9559
C4_8 C 0.7591(3) 0.5901(3) 0.9709(2)
C6_8 C 0.7274(3) 0.6395(2) 0.9361(2)
H2_8 H 0.7129 0.6741 0.9644
C7_8 C 0.7163(2) 0.6391(2) 0.8578(2)
C8_8 C 0.6825(2) 0.6916(2) 0.8214(2)
C9_8 C 0.7360(2) 0.58360(19) 0.8186(2)
H3_8 H 0.7282 0.5803 0.7675
O10_8 O 0.45892(15) 0.24616(18) 0.75362(16)
O11_8 O 0.68739(17) 0.32408(17) 0.74876(15)
C13_8 C 0.47159(19) 0.21373(19) 0.8144(2)
C14_8 C 0.5342(2) 0.2332(2) 0.8555(2)
C15_8 C 0.5366(2) 0.2203(2) 0.9320(2)
H5_8 H 0.5034 0.1985 0.9559
C16_8 C 0.5901(3) 0.2409(3) 0.9709(2)
C18_8 C 0.6395(2) 0.2726(3) 0.9361(2)
H6_8 H 0.6741 0.2871 0.9644
C19_8 C 0.6391(2) 0.2837(2) 0.8578(2)
C20_8 C 0.6916(2) 0.3175(2) 0.8214(2)
C21_8 C 0.58360(19) 0.2640(2) 0.8186(2)
H7_8 H 0.5803 0.2718 0.7675
loop_
_geom_bond_atom_site_label_1
_geom_bond_atom_site_label_2
_geom_bond_site_symmetry_1
_geom_bond_site_symmetry_2
Co2 O10 1_555 1_555
O9 C13 1_555 1_555
O10 C13 1_555 1_555
Zn2 O9 1_555 1_555
O16 Co2 1_555 1_555
O19 Co2 1_555 1_555
O20 Co2 1_555 1_555
Zn2 O20 1_555 1_555
O5 C5 1_555 1_555
O6 C5 1_555 1_555
Co4 O6 1_555 1_555
O3 C8 1_555 1_555
O4 C8 1_555 1_555
C2 C3 1_555 1_555
C3 H1 1_555 1_555
C4 C3 1_555 1_555
C6 C4 1_555 1_555
H2 C6 1_555 1_555
C7 C6 1_555 1_555
C8 C7 1_555 1_555
C9 C2 1_555 1_555
H3 C9 1_555 1_555
Zn3 O4 1_555 1_555
Co3 O3 1_555 1_555
C7 C9 1_555 1_555
H4 C10 1_555 1_555
C11 N1 1_555 1_555
C12 N1 1_555 1_555
N1 C10 1_555 1_555
O13 C17 1_555 1_555
O14 C17 1_555 1_555
Co5 O14 1_555 1_555
C11 H8 1_555 1_555
C11 H9 1_555 1_555
C11 H10 1_555 1_555
C12 H11 1_555 1_555
C12 H12 1_555 1_555
C12 H13 1_555 1_555
Zn1 O1 1_555 1_555
Co1 O2 1_555 1_555
O1 C1 1_555 1_555
O2 C1 1_555 1_555
O7 Zn1 1_555 1_555
O8 Zn1 1_555 1_555
O11 Co1 1_555 1_555
O12 Zn1 1_555 1_555
C14 C15 1_555 1_555
C15 H5 1_555 1_555
C16 C15 1_555 1_555
C18 C16 1_555 1_555
H6 C18 1_555 1_555
C19 C18 1_555 1_555
C20 O11 1_555 1_555
C21 C14 1_555 1_555
H7 C21 1_555 1_555
Co6 O7 1_555 1_555
O15 Zn1 1_555 1_555
O17 Zn1 1_555 1_555
O18 Co1 1_555 1_555
Co1 O7 1_555 1_555
O12 C20 1_555 1_555
C19 C20 1_555 1_555
C19 C21 1_555 1_555
H4_2 C10_2 1_555 1_555
C11_2 N1_2 1_555 1_555
C12_2 N1_2 1_555 1_555
N1_2 C10_2 1_555 1_555
O13_2 C17_2 1_555 1_555
O14_2 C17_2 1_555 1_555
Co5_2 O14_2 1_555 1_555
C11_2 H8_2 1_555 1_555
C11_2 H9_2 1_555 1_555
C11_2 H10_2 1_555 1_555
C12_2 H11_2 1_555 1_555
C12_2 H12_2 1_555 1_555
C12_2 H13_2 1_555 1_555
Zn1_2 O1_2 1_555 1_555
Co1_2 O2_2 1_555 1_555
O1_2 C1_2 1_555 1_555
O2_2 C1_2 1_555 1_555
O7_2 Zn1_2 1_555 1_555
O8_2 Zn1_2 1_555 1_555
O11_2 Co1_2 1_555 1_555
O12_2 Zn1_2 1_555 1_555
C14_2 C15_2 1_555 1_555
C15_2 H5_2 1_555 1_555
C16_2 C15_2 1_555 1_555
C18_2 C16_2 1_555 1_555
H6_2 C18_2 1_555 1_555
C19_2 C18_2 1_555 1_555
C20_2 O11_2 1_555 1_555
C21_2 C14_2 1_555 1_555
H7_2 C21_2 1_555 1_555
Co6_2 O7_2 1_555 1_555
O15_2 Zn1_2 1_555 1_555
O17_2 Zn1_2 1_555 1_555
O18_2 Co1_2 1_555 1_555
Co1_2 O7_2 1_555 1_555
O12_2 C20_2 1_555 1_555
C19_2 C20_2 1_555 1_555
C19_2 C21_2 1_555 1_555
O5_2 C5_2 1_555 1_555
O6_2 C5_2 1_555 1_555
Co4_2 O6_2 1_555 1_555
O16 C8_2 1_555 1_555
O4_2 C8_2 1_555 1_555
C2_2 C3_2 1_555 1_555
C3_2 H1_2 1_555 1_555
C4_2 C3_2 1_555 1_555
C6_2 C4_2 1_555 1_555
H2_2 C6_2 1_555 1_555
C7_2 C6_2 1_555 1_555
C8_2 C7_2 1_555 1_555
C9_2 C2_2 1_555 1_555
H3_2 C9_2 1_555 1_555
Zn2 O4_2 1_555 1_555
C7_2 C9_2 1_555 1_555
Co3 O10_2 1_555 1_555
O9_2 C13_2 1_555 1_555
O10_2 C13_2 1_555 1_555
Zn3 O9_2 1_555 1_555
O19_2 Co3 1_555 1_555
O20_2 Co3 1_555 1_555
Zn3 O20_2 1_555 1_555
H4_3 C10_3 1_555 1_555
C11_3 N1_3 1_555 1_555
C12_3 N1_3 1_555 1_555
N1_3 C10_3 1_555 1_555
C11_3 H8_3 1_555 1_555
C11_3 H9_3 1_555 1_555
C11_3 H10_3 1_555 1_555
C12_3 H11_3 1_555 1_555
C12_3 H12_3 1_555 1_555
C12_3 H13_3 1_555 1_555
O8_3 Zn2 1_555 1_555
Co6_3 O20 1_555 1_555
O15_3 Zn2 1_555 1_555
O17_3 Zn2 1_555 1_555
H4_4 C10_4 1_555 1_555
C11_4 N1_4 1_555 1_555
C12_4 N1_4 1_555 1_555
N1_4 C10_4 1_555 1_555
C11_4 H8_4 1_555 1_555
C11_4 H9_4 1_555 1_555
C11_4 H10_4 1_555 1_555
C12_4 H11_4 1_555 1_555
C12_4 H12_4 1_555 1_555
C12_4 H13_4 1_555 1_555
O8_4 Zn3 1_555 1_555
Co6_4 O20_2 1_555 1_555
O15_4 Zn3 1_555 1_555
O17_4 Zn3 1_555 1_555
Co5_2 O10_3 1_555 1_555
O9_3 C13_3 1_555 1_555
O10_3 C13_3 1_555 1_555
Zn2_2 O9_3 1_555 1_555
O16_2 Co5_2 1_555 1_555
O20_3 Co5_2 1_555 1_555
Zn2_2 O20_3 1_555 1_555
Zn1_3 O1_3 1_555 1_555
Co4 O2_3 1_555 1_555
O1_3 C1_3 1_555 1_555
O2_3 C1_3 1_555 1_555
O7_3 Zn1_3 1_555 1_555
O8_5 Zn1_3 1_555 1_555
C10_5 O8_5 1_555 1_555
H4_5 C10_5 1_555 1_555
C11_5 N1_5 1_555 1_555
C12_5 N1_5 1_555 1_555
N1_5 C10_5 1_555 1_555
O11_3 Co4 1_555 1_555
O12_3 Zn1_3 1_555 1_555
O13_3 C17_3 1_555 1_555
O19_2 C17_3 1_555 1_555
C14_3 C15_3 1_555 1_555
C15_3 H5_3 1_555 1_555
C16_3 C15_3 1_555 1_555
C17_3 C16_3 1_555 1_555
C18_3 C16_3 1_555 1_555
H6_3 C18_3 1_555 1_555
C19_3 C18_3 1_555 1_555
C20_3 O11_3 1_555 1_555
C21_3 C14_3 1_555 1_555
H7_3 C21_3 1_555 1_555
Co6_5 O7_3 1_555 1_555
O15_5 Zn1_3 1_555 1_555
O17_5 Zn1_3 1_555 1_555
Co4 O7_3 1_555 1_555
O12_3 C20_3 1_555 1_555
C19_3 C20_3 1_555 1_555
C19_3 C21_3 1_555 1_555
C11_5 H8_5 1_555 1_555
C11_5 H9_5 1_555 1_555
C11_5 H10_5 1_555 1_555
C12_5 H11_5 1_555 1_555
C12_5 H12_5 1_555 1_555
C12_5 H13_5 1_555 1_555
O3_2 C8_3 1_555 1_555
O4_3 C8_3 1_555 1_555
O5_3 C5_3 1_555 1_555
O18 C5_3 1_555 1_555
C2_3 C3_3 1_555 1_555
C3_3 H1_3 1_555 1_555
C4_3 C3_3 1_555 1_555
C5_3 C4_3 1_555 1_555
C6_3 C4_3 1_555 1_555
H2_3 C6_3 1_555 1_555
C7_3 C6_3 1_555 1_555
C8_3 C7_3 1_555 1_555
C9_3 C2_3 1_555 1_555
H3_3 C9_3 1_555 1_555
Zn3_2 O4_3 1_555 1_555
Co5 O3_2 1_555 1_555
C7_3 C9_3 1_555 1_555
O16_2 C8_4 1_555 1_555
O4_4 C8_4 1_555 1_555
O5_4 C5_4 1_555 1_555
O18_2 C5_4 1_555 1_555
C2_4 C3_4 1_555 1_555
C3_4 H1_4 1_555 1_555
C4_4 C3_4 1_555 1_555
C5_4 C4_4 1_555 1_555
C6_4 C4_4 1_555 1_555
H2_4 C6_4 1_555 1_555
C7_4 C6_4 1_555 1_555
C8_4 C7_4 1_555 1_555
C9_4 C2_4 1_555 1_555
H3_4 C9_4 1_555 1_555
Zn2_2 O4_4 1_555 1_555
C7_4 C9_4 1_555 1_555
Zn1_4 O1_4 1_555 1_555
Co4_2 O2_4 1_555 1_555
O1_4 C1_4 1_555 1_555
O2_4 C1_4 1_555 1_555
O7_4 Zn1_4 1_555 1_555
O8_6 Zn1_4 1_555 1_555
C10_6 O8_6 1_555 1_555
H4_6 C10_6 1_555 1_555
C11_6 N1_6 1_555 1_555
C12_6 N1_6 1_555 1_555
N1_6 C10_6 1_555 1_555
O11_4 Co4_2 1_555 1_555
O12_4 Zn1_4 1_555 1_555
O13_4 C17_4 1_555 1_555
O19 C17_4 1_555 1_555
C14_4 C15_4 1_555 1_555
C15_4 H5_4 1_555 1_555
C16_4 C15_4 1_555 1_555
C17_4 C16_4 1_555 1_555
C18_4 C16_4 1_555 1_555
H6_4 C18_4 1_555 1_555
C19_4 C18_4 1_555 1_555
C20_4 O11_4 1_555 1_555
C21_4 C14_4 1_555 1_555
H7_4 C21_4 1_555 1_555
Co6_6 O7_4 1_555 1_555
O15_6 Zn1_4 1_555 1_555
O17_6 Zn1_4 1_555 1_555
Co4_2 O7_4 1_555 1_555
O12_4 C20_4 1_555 1_555
C19_4 C20_4 1_555 1_555
C19_4 C21_4 1_555 1_555
C11_6 H8_6 1_555 1_555
C11_6 H9_6 1_555 1_555
C11_6 H10_6 1_555 1_555
C12_6 H11_6 1_555 1_555
C12_6 H12_6 1_555 1_555
C12_6 H13_6 1_555 1_555
Co5 O10_4 1_555 1_555
O9_4 C13_4 1_555 1_555
O10_4 C13_4 1_555 1_555
Zn3_2 O9_4 1_555 1_555
O20_4 Co5 1_555 1_555
Zn3_2 O20_4 1_555 1_555
O8_7 Zn2_2 1_555 1_555
C10_7 O8_7 1_555 1_555
H4_7 C10_7 1_555 1_555
C11_7 N1_7 1_555 1_555
C12_7 N1_7 1_555 1_555
N1_7 C10_7 1_555 1_555
Co6_7 O20_3 1_555 1_555
O15_7 Zn2_2 1_555 1_555
O17_7 Zn2_2 1_555 1_555
C11_7 H8_7 1_555 1_555
C11_7 H9_7 1_555 1_555
C11_7 H10_7 1_555 1_555
C12_7 H11_7 1_555 1_555
C12_7 H12_7 1_555 1_555
C12_7 H13_7 1_555 1_555
O8_8 Zn3_2 1_555 1_555
C10_8 O8_8 1_555 1_555
H4_8 C10_8 1_555 1_555
C11_8 N1_8 1_555 1_555
C12_8 N1_8 1_555 1_555
N1_8 C10_8 1_555 1_555
Co6_8 O20_4 1_555 1_555
O15_8 Zn3_2 1_555 1_555
O17_8 Zn3_2 1_555 1_555
C11_8 H8_8 1_555 1_555
C11_8 H9_8 1_555 1_555
C11_8 H10_8 1_555 1_555
C12_8 H11_8 1_555 1_555
C12_8 H12_8 1_555 1_555
C12_8 H13_8 1_555 1_555
Co6_7 O2_5 1_555 1_555
O15_7 C1_5 1_555 1_555
O2_5 C1_5 1_555 1_555
O3_3 C8_5 1_555 1_555
O17_6 C8_5 1_555 1_555
O5_5 C5_5 1_555 1_555
O6_3 C5_5 1_555 1_555
C1_5 C2_5 1_555 1_555
C2_5 C3_5 1_555 1_555
C3_5 H1_5 1_555 1_555
C4_5 C3_5 1_555 1_555
C5_5 C4_5 1_555 1_555
C6_5 C4_5 1_555 1_555
H2_5 C6_5 1_555 1_555
C7_5 C6_5 1_555 1_555
C8_5 C7_5 1_555 1_555
C9_5 C2_5 1_555 1_555
H3_5 C9_5 1_555 1_555
Co6_5 O10_5 1_555 1_555
O15_5 C13_5 1_555 1_555
O10_5 C13_5 1_555 1_555
O11_5 Co6_7 1_555 1_555
O13_5 C17_5 1_555 1_555
O14_3 C17_5 1_555 1_555
C13_5 C14_5 1_555 1_555
C14_5 C15_5 1_555 1_555
C15_5 H5_5 1_555 1_555
C16_5 C15_5 1_555 1_555
C17_5 C16_5 1_555 1_555
C18_5 C16_5 1_555 1_555
H6_5 C18_5 1_555 1_555
C19_5 C18_5 1_555 1_555
C20_5 O11_5 1_555 1_555
C21_5 C14_5 1_555 1_555
H7_5 C21_5 1_555 1_555
Co6_6 O3_3 1_555 1_555
Co6_3 O6_3 1_555 1_555
Co6_2 O14_3 1_555 1_555
O16_3 Co6_5 1_555 1_555
O18_3 Co6_7 1_555 1_555
O19_3 Co6_5 1_555 1_555
C7_5 C9_5 1_555 1_555
O17_7 C20_5 1_555 1_555
C19_5 C20_5 1_555 1_555
C19_5 C21_5 1_555 1_555
Co6_8 O2_6 1_555 1_555
O15_8 C1_6 1_555 1_555
O2_6 C1_6 1_555 1_555
O16_3 C8_6 1_555 1_555
O17_5 C8_6 1_555 1_555
O5_6 C5_6 1_555 1_555
O6_4 C5_6 1_555 1_555
C1_6 C2_6 1_555 1_555
C2_6 C3_6 1_555 1_555
C3_6 H1_6 1_555 1_555
C4_6 C3_6 1_555 1_555
C5_6 C4_6 1_555 1_555
C6_6 C4_6 1_555 1_555
H2_6 C6_6 1_555 1_555
C7_6 C6_6 1_555 1_555
C8_6 C7_6 1_555 1_555
C9_6 C2_6 1_555 1_555
H3_6 C9_6 1_555 1_555
Co6_6 O10_6 1_555 1_555
O15_6 C13_6 1_555 1_555
O10_6 C13_6 1_555 1_555
O11_6 Co6_8 1_555 1_555
O13_6 C17_6 1_555 1_555
O14_4 C17_6 1_555 1_555
C13_6 C14_6 1_555 1_555
C14_6 C15_6 1_555 1_555
C15_6 H5_6 1_555 1_555
C16_6 C15_6 1_555 1_555
C17_6 C16_6 1_555 1_555
C18_6 C16_6 1_555 1_555
H6_6 C18_6 1_555 1_555
C19_6 C18_6 1_555 1_555
C20_6 O11_6 1_555 1_555
C21_6 C14_6 1_555 1_555
H7_6 C21_6 1_555 1_555
Co6_4 O6_4 1_555 1_555
Co6 O14_4 1_555 1_555
O18_4 Co6_8 1_555 1_555
O19_4 Co6_6 1_555 1_555
C7_6 C9_6 1_555 1_555
O17_8 C20_6 1_555 1_555
C19_6 C20_6 1_555 1_555
C19_6 C21_6 1_555 1_555
O5_7 C5_7 1_555 1_555
O18_3 C5_7 1_555 1_555
O13_7 C17_7 1_555 1_555
O19_4 C17_7 1_555 1_555
Co6_3 O2_7 1_555 1_555
O15_3 C1_7 1_555 1_555
O2_7 C1_7 1_555 1_555
O3_4 C8_7 1_555 1_555
O17_2 C8_7 1_555 1_555
C1_7 C2_7 1_555 1_555
C2_7 C3_7 1_555 1_555
C3_7 H1_7 1_555 1_555
C4_7 C3_7 1_555 1_555
C6_7 C4_7 1_555 1_555
H2_7 C6_7 1_555 1_555
C7_7 C6_7 1_555 1_555
C8_7 C7_7 1_555 1_555
C9_7 C2_7 1_555 1_555
H3_7 C9_7 1_555 1_555
Co6 O10_7 1_555 1_555
O15 C13_7 1_555 1_555
O10_7 C13_7 1_555 1_555
O11_7 Co6_3 1_555 1_555
C13_7 C14_7 1_555 1_555
C14_7 C15_7 1_555 1_555
C15_7 H5_7 1_555 1_555
C16_7 C15_7 1_555 1_555
C18_7 C16_7 1_555 1_555
H6_7 C18_7 1_555 1_555
C19_7 C18_7 1_555 1_555
C20_7 O11_7 1_555 1_555
C21_7 C14_7 1_555 1_555
H7_7 C21_7 1_555 1_555
Co6_2 O3_4 1_555 1_555
O16_4 Co6 1_555 1_555
C7_7 C9_7 1_555 1_555
O17_3 C20_7 1_555 1_555
C19_7 C20_7 1_555 1_555
C19_7 C21_7 1_555 1_555
O5_8 C5_8 1_555 1_555
O18_4 C5_8 1_555 1_555
O13_8 C17_8 1_555 1_555
O19_3 C17_8 1_555 1_555
Co6_4 O2_8 1_555 1_555
O15_4 C1_8 1_555 1_555
O2_8 C1_8 1_555 1_555
O16_4 C8_8 1_555 1_555
O17 C8_8 1_555 1_555
C1_8 C2_8 1_555 1_555
C2_8 C3_8 1_555 1_555
C3_8 H1_8 1_555 1_555
C4_8 C3_8 1_555 1_555
C6_8 C4_8 1_555 1_555
H2_8 C6_8 1_555 1_555
C7_8 C6_8 1_555 1_555
C8_8 C7_8 1_555 1_555
C9_8 C2_8 1_555 1_555
H3_8 C9_8 1_555 1_555
Co6_2 O10_8 1_555 1_555
O15_2 C13_8 1_555 1_555
O10_8 C13_8 1_555 1_555
O11_8 Co6_4 1_555 1_555
C13_8 C14_8 1_555 1_555
C14_8 C15_8 1_555 1_555
C15_8 H5_8 1_555 1_555
C16_8 C15_8 1_555 1_555
C18_8 C16_8 1_555 1_555
H6_8 C18_8 1_555 1_555
C19_8 C18_8 1_555 1_555
C20_8 O11_8 1_555 1_555
C21_8 C14_8 1_555 1_555
H7_8 C21_8 1_555 1_555
C7_8 C9_8 1_555 1_555
O17_4 C20_8 1_555 1_555
C19_8 C20_8 1_555 1_555
C19_8 C21_8 1_555 1_555

#END
