
###############################################################################
#
# This file contains modified crystal structure data generated from the
# MOF subset of the Cambridge Structural Database (CSD) v543 
# hosted by the Cambridge Crystallographic Data Centre (CCDC).
#
# This work is licensed under the Creative Commons
# Attribution-NonCommercial-ShareAlike 4.0 International License.
# To view a copy of this license, visit
# http://creativecommons.org/licenses/by-nc-sa/4.0/
# or send a letter to
# Creative Commons, PO Box 1866, Mountain View, CA 94042, USA.
#
# CIF created using the CSD Python API on 29 September 2022
# The structure has been converted into the P1 space group
# The structure has a 3D framework
# The original CSD entry LUCDOE is in the rhombohedral crystal system
# The original CSD entry LUCDOE is in a Sohncke space group
# The framework has been calculated to contain at least 10.0% void space
# The void calculation uses a probe of radius 1.32A, grid spacing 0.4
# H atom positions have been added when not included in the experimental data
#
###############################################################################

data_LUCDOE
_chemical_formula_moiety         '(C504 H304 N34 O156 Zn53)n'
_symmetry_cell_setting           triclinic
_symmetry_space_group_name_H-M   'P 1'
_symmetry_Int_Tables_number      1
_space_group_name_Hall           'P 1'
loop_
_symmetry_equiv_pos_site_id
_symmetry_equiv_pos_as_xyz
1 x,y,z
_cell_length_a                   23.2738(11)
_cell_length_b                   23.2738(11)
_cell_length_c                   33.9318(14)
_cell_angle_alpha                90
_cell_angle_beta                 90
_cell_angle_gamma                120
_cell_volume                     15917.4
loop_
_atom_site_label
_atom_site_type_symbol
_atom_site_fract_x
_atom_site_fract_y
_atom_site_fract_z
C85 C 0.1164(3) 0.5708(4) 0.13436(16)
C86 C 0.0668(3) 0.5110(4) 0.11857(16)
C87 C 0.0614(3) 0.5042(4) 0.07784(16)
H49 H 0.0860 0.5407 0.0617
C88 C 0.0191(3) 0.4426(4) 0.06119(16)
H50 H 0.0154 0.4379 0.0339
C91 C 0.0300(3) 0.4563(4) 0.14266(16)
H52 H 0.0337 0.4610 0.1699
C94 C 0.0189(3) 0.2301(4) 0.10699(16)
H53 H 0.0611 0.2361 0.1110
C95 C 0.0113(3) 0.2804(4) 0.09030(16)
H54 H 0.0485 0.3202 0.0831
O28 O 0.14945(17) 0.62141(25) 0.11161(11)
O29 O 0.12300(17) 0.57372(25) 0.16953(10)
O31 O 0.0324(2) 0.12985(27) 0.14237(11)
Zn10 Zn 0.22802(3) 0.70134(4) 0.126620(18)
O55 O 0.2586(2) 0.6667(3) 0.1667
O63 O 0.25652(25) 0.75633(18) 0.08035(10)
O67 O 0.21595(18) 0.75961(25) 0.16380(10)
O79 O 0.0000 0.0000 0.18962(17)
Zn19 Zn -0.0000 0.0000 0.40751(3)
Zn29 Zn 0.19335(3) 0.63199(4) 0.206713(18)
Zn33 Zn 0.06954(3) 0.08485(3) 0.168420(18)
Zn40 Zn 0.0000 0.0000 0.24514(3)
O79_2 O 0.0000 1.0000 0.18962(17)
Zn19_2 Zn -0.0000 1.0000 0.40751(3)
Zn40_2 Zn 0.0000 1.0000 0.24514(3)
C3 C 0.5220(3) 0.1755(3) 0.00869(16)
H1 H 0.5680 0.1964 0.0092
C4 C 0.4850(3) 0.1330(2) 0.03908(16)
H2 H 0.5064 0.1254 0.0599
C5 C 0.4162(3) 0.1017(3) 0.03834(16)
C6 C 0.3843(3) 0.1129(3) 0.00721(16)
H3 H 0.3382 0.0920 0.0067
C12 C 0.4056(3) 0.0178(3) 0.08528(16)
C13 C 0.4071(3) 0.0123(3) 0.12601(15)
H7 H 0.3951 0.0370 0.1421
C15 C 0.1428(3) 0.0291(3) 0.13370(16)
C16 C 0.2072(3) 0.0367(3) 0.11769(16)
C19 C 0.3231(3) 0.0518(3) 0.08432(17)
C20 C 0.3191(3) 0.1074(3) 0.09503(17)
H11 H 0.3552 0.1496 0.0910
C21 C 0.2612(2) 0.0999(3) 0.11171(15)
H12 H 0.2585 0.1370 0.1189
C22 C 0.1173(3) 0.1277(3) 0.24958(16)
C23 C 0.1715(3) 0.1855(3) 0.27115(17)
C24 C 0.1899(3) 0.1732(3) 0.30775(16)
H13 H 0.1672 0.1308 0.3186
C25 C 0.2424(3) 0.2242(3) 0.32820(17)
H14 H 0.2547 0.2160 0.3527
C26 C 0.2764(3) 0.2875(3) 0.31205(18)
C27 C 0.2579(3) 0.2998(3) 0.27545(16)
H15 H 0.2806 0.3422 0.2646
C28 C 0.2054(3) 0.2488(3) 0.25500(16)
H16 H 0.1931 0.2570 0.2305
N1 N 0.3801(2) 0.0584(2) 0.07019(13)
N2 N 0.3313(3) 0.3333 0.3333
O6 O 0.13951(18) 0.07865(18) 0.14310(11)
O8 O 0.11230(19) 0.14083(19) 0.21396(12)
O9 O 0.0800(2) 0.0784(2) 0.26443(11)
C29 C 0.3229(4) 0.5390(3) 0.41709(16)
C30 C 0.3193(4) 0.4812(3) 0.39552(17)
C31 C 0.3500(4) 0.4935(3) 0.35892(16)
H17 H 0.3697 0.5359 0.3481
C32 C 0.3515(4) 0.4425(3) 0.33847(17)
H18 H 0.3720 0.4507 0.3140
C33 C 0.3222(4) 0.3792(3) 0.35462(18)
C34 C 0.2914(4) 0.3669(3) 0.39122(16)
H19 H 0.2717 0.3245 0.4021
C35 C 0.2899(4) 0.4179(3) 0.41167(16)
H20 H 0.2694 0.4097 0.4362
O11 O 0.30480(27) 0.52584(19) 0.45271(12)
O12 O 0.3349(3) 0.5883(2) 0.40224(11)
C80 C 0.8245(3) 0.3465(4) 0.00869(16)
H45 H 0.8036 0.3716 0.0092
C81 C 0.8670(2) 0.3520(4) 0.03908(16)
H46 H 0.8746 0.3810 0.0599
C82 C 0.8983(3) 0.3145(4) 0.03834(16)
C83 C 0.8871(3) 0.2714(4) 0.00721(16)
H47 H 0.9080 0.2462 0.0067
C89 C 0.9822(3) 0.3878(4) 0.08528(16)
C90 C 0.9877(3) 0.3948(4) 0.12601(15)
H51 H 0.9630 0.3581 0.1421
C92 C 0.9709(3) 0.1137(4) 0.13370(16)
C93 C 0.9633(3) 0.1705(4) 0.11769(16)
C96 C 0.9482(3) 0.2713(4) 0.08432(17)
C97 C 0.8926(3) 0.2117(4) 0.09503(17)
H55 H 0.8504 0.2056 0.0910
C98 C 0.9001(3) 0.1613(4) 0.11171(15)
H56 H 0.8630 0.1215 0.1189
C101 C 0.8268(3) 0.0167(4) 0.30775(16)
H57 H 0.8692 0.0364 0.3186
C102 C 0.7758(3) 0.0182(4) 0.32820(17)
H58 H 0.7840 0.0387 0.3527
N5 N 0.9416(2) 0.3217(3) 0.07019(13)
O30 O 0.92135(18) 0.06086(25) 0.14310(11)
O33 O 0.9216(2) 0.0016(3) 0.26443(11)
O53 O 0.3333 0.6667 0.47705(17)
Zn16 Zn 0.3333 0.6667 0.42153(3)
O76 O 0.4117(2) 0.7467(2) 0.40224(11)
O77 O 0.2533(2) 0.6651(3) 0.40224(11)
O79_3 O 1.0000 0.0000 0.18962(17)
Zn19_3 Zn 1.0000 0.0000 0.40751(3)
Zn36 Zn 0.41818(3) 0.73621(3) 0.498247(18)
Zn38 Zn 0.26379(3) 0.68198(4) 0.498247(18)
Zn39 Zn 0.31802(4) 0.58182(3) 0.498247(18)
Zn40_3 Zn 1.0000 0.0000 0.24514(3)
H97 H 0.374912 0.333301 0.333276
H98 H 0.666699 0.0416107 0.333276
C1 C 0.5295(3) 0.2335(3) 0.94771(17)
C2 C 0.4900(3) 0.1868(3) 0.97755(16)
C7 C 0.4212(3) 0.1555(2) 0.97682(15)
H4 H 0.3998 0.1630 0.9560
O2 O 0.59234(19) 0.26018(19) 0.95300(12)
O3 O 0.50019(18) 0.24367(18) 0.91965(10)
Zn1 Zn 0.6667 0.3333 0.92582(3)
C78 C 0.7665(3) 0.2960(4) 0.94771(17)
C79 C 0.8132(3) 0.3032(4) 0.97755(16)
C84 C 0.8445(2) 0.2657(4) 0.97682(15)
H48 H 0.8370 0.2368 0.9560
O26 O 0.73982(19) 0.33216(27) 0.95300(12)
O27 O 0.75633(18) 0.25652(25) 0.91965(10)
O58 O 0.66784(27) 0.40766(19) 0.95300(12)
Zn22 Zn 0.52668(3) 0.29866(4) 0.873380(18)
Zn25 Zn 0.70134(4) 0.22802(3) 0.873380(18)
C8 C 0.4544(3) 0.8836(3) 0.13436(16)
C9 C 0.4442(3) 0.9332(3) 0.11857(16)
C10 C 0.4428(3) 0.9386(3) 0.07784(16)
H5 H 0.4547 0.9140 0.0617
C11 C 0.4235(3) 0.9809(3) 0.06119(16)
H6 H 0.4225 0.9846 0.0339
C14 C 0.4263(3) 0.9700(3) 0.14266(16)
H8 H 0.4273 0.9663 0.1699
C17 C 0.2112(3) 0.9811(3) 0.10699(16)
H9 H 0.1750 0.9389 0.1110
C18 C 0.2691(2) 0.9887(3) 0.09030(16)
H10 H 0.2717 0.9515 0.0831
O1 O 0.4081(2) 0.7414(2) 0.1667
O4 O 0.47196(18) 0.85055(17) 0.11161(11)
O5 O 0.45072(18) 0.87700(17) 0.16953(10)
O7 O 0.09745(18) 0.9676(2) 0.14237(11)
Zn2 Zn 0.3333 0.6667 0.1667
Zn3 Zn 0.47332(3) 0.77198(3) 0.126620(18)
C99 C 0.8723(3) 0.9896(4) 0.24958(16)
C100 C 0.8145(3) 0.9860(4) 0.27115(17)
C103 C 0.7125(3) 0.9889(4) 0.31205(18)
C104 C 0.7002(3) 0.9581(4) 0.27545(16)
H59 H 0.6578 0.9384 0.2646
C105 C 0.7512(3) 0.9566(4) 0.25500(16)
H60 H 0.7430 0.9361 0.2305
N6 N 0.6667 0.9980(3) 0.3333
O32 O 0.85917(19) 0.97147(27) 0.21396(12)
Zn11 Zn 0.91515(3) 0.98469(4) 0.168420(18)
C106 C 0.4610(3) 0.7840(3) 0.41709(16)
C107 C 0.5188(3) 0.8382(3) 0.39552(17)
C108 C 0.5065(3) 0.8566(3) 0.35892(16)
H61 H 0.4641 0.8339 0.3481
C109 C 0.5575(3) 0.9091(3) 0.33847(17)
H62 H 0.5493 0.9214 0.3140
C110 C 0.6208(3) 0.9431(3) 0.35462(18)
C111 C 0.6331(3) 0.9246(3) 0.39122(16)
H63 H 0.6755 0.9473 0.4021
C112 C 0.5821(3) 0.8721(3) 0.41167(16)
H64 H 0.5903 0.8598 0.4362
O34 O 0.47416(19) 0.77897(19) 0.45271(12)
Zn13 Zn 0.01531(4) 0.93046(3) 0.168420(18)
O42 O 0.3333(3) 0.5919(2) 0.1667
C134 C 0.9002(3) 0.8628(3) 0.38562(17)
C135 C 0.8535(3) 0.8233(3) 0.35578(16)
C136 C 0.8422(3) 0.8553(3) 0.32464(16)
H77 H 0.8631 0.9013 0.3241
C137 C 0.7997(2) 0.8183(3) 0.29425(16)
H78 H 0.7921 0.8397 0.2734
C138 C 0.7684(3) 0.7495(3) 0.29499(16)
C139 C 0.7796(3) 0.7176(3) 0.32612(16)
H79 H 0.7587 0.6715 0.3266
C140 C 0.8222(2) 0.7545(3) 0.35651(15)
H80 H 0.8297 0.7331 0.3773
C141 C 0.5503(3) 0.7877(3) 0.19897(16)
C142 C 0.5999(3) 0.7775(3) 0.21476(16)
C143 C 0.6053(3) 0.7761(3) 0.25549(16)
H81 H 0.5807 0.7880 0.2716
C144 C 0.6476(3) 0.7568(3) 0.27214(16)
H82 H 0.6513 0.7558 0.2994
C145 C 0.6845(3) 0.7389(3) 0.24805(16)
C146 C 0.6790(3) 0.7404(3) 0.20732(15)
H83 H 0.7037 0.7284 0.1912
C147 C 0.6367(3) 0.7596(3) 0.19067(16)
H84 H 0.6330 0.7606 0.1634
C148 C 0.6958(3) 0.4761(3) 0.19963(16)
C149 C 0.7034(3) 0.5405(3) 0.21564(16)
C150 C 0.6478(3) 0.5445(3) 0.22634(16)
H85 H 0.6056 0.5083 0.2223
C151 C 0.6554(3) 0.6024(2) 0.24303(16)
H86 H 0.6182 0.6050 0.2502
C152 C 0.7185(3) 0.6564(3) 0.24901(17)
C153 C 0.7741(3) 0.6524(3) 0.23830(17)
H87 H 0.8163 0.6885 0.2423
C154 C 0.7666(3) 0.5945(2) 0.22162(15)
H88 H 0.8037 0.5918 0.2144
N8 N 0.7251(2) 0.7134(2) 0.26314(13)
O43 O 0.92685(19) 0.92567(19) 0.38033(12)
O44 O 0.91034(18) 0.83352(18) 0.41368(10)
O45 O 0.51722(17) 0.80529(18) 0.22172(11)
O46 O 0.54367(17) 0.78405(18) 0.16380(10)
O47 O 0.74532(18) 0.47284(18) 0.19023(11)
O48 O 0.6343(2) 0.43078(18) 0.19096(11)
Zn14 Zn 0.43865(3) 0.80665(3) 0.206713(18)
Zn15 Zn 0.75152(3) 0.40287(3) 0.164913(18)
C155 C 0.0104(4) 0.8827(3) 0.24958(16)
C156 C 0.0140(4) 0.8285(3) 0.27115(17)
C159 C 0.0111(4) 0.7236(3) 0.31205(18)
C160 C 0.0419(4) 0.7421(3) 0.27545(16)
H91 H 0.0616 0.7194 0.2646
C161 C 0.0434(4) 0.7946(3) 0.25500(16)
H92 H 0.0639 0.8069 0.2305
N9 N 0.0020(3) 0.6687(3) 0.3333
O49 O 0.02853(27) 0.88770(19) 0.21396(12)
C162 C 0.2160(3) 0.6771(4) 0.41709(16)
C163 C 0.1618(3) 0.6807(4) 0.39552(17)
C164 C 0.1434(3) 0.6500(4) 0.35892(16)
H93 H 0.1661 0.6303 0.3481
C165 C 0.0909(3) 0.6485(4) 0.33847(17)
H94 H 0.0786 0.6280 0.3140
C166 C 0.0569(3) 0.6778(4) 0.35462(18)
C167 C 0.0754(3) 0.7086(4) 0.39122(16)
H95 H 0.0527 0.7283 0.4021
C168 C 0.1279(3) 0.7101(4) 0.41167(16)
H96 H 0.1402 0.7306 0.4362
O51 O 0.22103(19) 0.69520(27) 0.45271(12)
O60 O 0.49981(18) 0.74348(25) 0.08035(10)
O64 O 0.41015(25) 0.83314(18) 0.25298(10)
O70 O 0.87015(27) 0.90255(18) 0.14237(11)
O71 O 0.79652(27) 0.3657(2) 0.19096(11)
O74 O 0.80750(19) 0.44563(19) 0.11937(12)
O79_4 O 1.0000 1.0000 0.18962(17)
O80 O 0.6667 0.3333 0.14371(17)
Zn19_4 Zn 1.0000 1.0000 0.40751(3)
Zn20 Zn 0.29866(4) 0.52668(3) 0.126620(18)
Zn26 Zn 0.96533(4) 0.86001(3) 0.459953(18)
Zn31 Zn 0.36801(4) 0.56135(3) 0.206713(18)
Zn34 Zn 0.59713(3) 0.34864(4) 0.164913(18)
Zn40_4 Zn 1.0000 1.0000 0.24514(3)
C115 C 0.6535(4) 0.4780(3) 0.00869(16)
H65 H 0.6284 0.4320 0.0092
C116 C 0.6480(4) 0.5150(3) 0.03908(16)
H66 H 0.6190 0.4936 0.0599
C117 C 0.6855(4) 0.5838(3) 0.03834(16)
C118 C 0.7286(4) 0.6157(3) 0.00721(16)
H67 H 0.7538 0.6618 0.0067
C120 C 0.4292(4) 0.5456(3) 0.13436(16)
C121 C 0.4890(4) 0.5558(3) 0.11857(16)
C122 C 0.4958(4) 0.5572(3) 0.07784(16)
H69 H 0.4593 0.5453 0.0617
C123 C 0.5574(4) 0.5765(3) 0.06119(16)
H70 H 0.5621 0.5775 0.0339
C124 C 0.6122(4) 0.5944(3) 0.08528(16)
C125 C 0.6052(4) 0.5929(3) 0.12601(15)
H71 H 0.6419 0.6049 0.1421
C126 C 0.5437(4) 0.5737(3) 0.14266(16)
H72 H 0.5390 0.5727 0.1699
C127 C 0.8863(4) 0.8572(3) 0.13370(16)
C128 C 0.8295(4) 0.7928(3) 0.11769(16)
C129 C 0.7699(4) 0.7888(3) 0.10699(16)
H73 H 0.7639 0.8250 0.1110
C130 C 0.7196(4) 0.7309(2) 0.09030(16)
H74 H 0.6798 0.7283 0.0831
C131 C 0.7287(4) 0.6769(3) 0.08432(17)
C132 C 0.7883(4) 0.6809(3) 0.09503(17)
H75 H 0.7944 0.6448 0.0910
C133 C 0.8387(4) 0.7388(2) 0.11171(15)
H76 H 0.8785 0.7415 0.1189
N7 N 0.6783(3) 0.6199(2) 0.07019(13)
O38 O 0.37859(25) 0.52804(18) 0.11161(11)
O39 O 0.42628(25) 0.54928(18) 0.16953(10)
O40 O 0.93914(25) 0.86049(18) 0.14310(11)
C157 C 0.9833(4) 0.8101(3) 0.30775(16)
H89 H 0.9636 0.8328 0.3186
C158 C 0.9818(4) 0.7576(3) 0.32820(17)
H90 H 0.9613 0.7453 0.3527
O50 O 0.9984(3) 0.9200(2) 0.26443(11)
O59 O 0.24367(18) 0.50019(18) 0.08035(10)
O68 O 0.24039(25) 0.45633(17) 0.16380(10)
H99 H 0.958389 0.625088 0.333276
C113 C 0.7040(4) 0.4705(3) 0.94771(17)
C114 C 0.6968(4) 0.5100(3) 0.97755(16)
C119 C 0.7343(4) 0.5788(3) 0.97682(15)
H68 H 0.7632 0.6002 0.9560
O37 O 0.74348(25) 0.49981(18) 0.91965(10)
Zn21 Zn 0.77198(3) 0.47332(3) 0.873380(18)
C134_2 C 0.1372(3) 0.0373(4) 0.38562(17)
C135_2 C 0.1767(3) 0.0301(4) 0.35578(16)
C138_2 C 0.2505(3) 0.0188(4) 0.29499(16)
C139_2 C 0.2824(3) 0.0619(4) 0.32612(16)
H79_2 H 0.3285 0.0871 0.3266
C140_2 C 0.2455(3) 0.0676(4) 0.35651(15)
H80_2 H 0.2669 0.0965 0.3773
C148_2 C 0.5239(3) 0.2196(4) 0.19963(16)
C149_2 C 0.4595(3) 0.1628(4) 0.21564(16)
C150_2 C 0.4555(3) 0.1032(4) 0.22634(16)
H85_2 H 0.4917 0.0972 0.2223
C151_2 C 0.3976(2) 0.0529(4) 0.24303(16)
H86_2 H 0.3950 0.0131 0.2502
C152_2 C 0.3436(3) 0.0620(4) 0.24901(17)
C153_2 C 0.3476(3) 0.1216(4) 0.23830(17)
H87_2 H 0.3115 0.1277 0.2423
C154_2 C 0.4055(2) 0.1720(4) 0.22162(15)
H88_2 H 0.4082 0.2118 0.2144
N8_2 N 0.2866(2) 0.0116(3) 0.26314(13)
O43_2 O 0.07433(19) 0.00117(27) 0.38033(12)
O44_2 O 0.16648(18) 0.07681(25) 0.41368(10)
O47_2 O 0.52716(18) 0.27247(25) 0.19023(11)
O48_2 O 0.56922(18) 0.20348(27) 0.19096(11)
O74_2 O 0.55437(19) 0.36186(27) 0.11937(12)
Zn26_2 Zn 0.13999(3) 0.10531(5) 0.459953(18)
Zn34_2 Zn 0.65136(4) 0.24848(5) 0.164913(18)
C136_2 C 0.1447(3) 0.9868(4) 0.32464(16)
H77_2 H 0.0987 0.9617 0.3241
C137_2 C 0.1817(3) 0.9813(4) 0.29425(16)
H78_2 H 0.1603 0.9523 0.2734
C141_2 C 0.2123(3) 0.7625(4) 0.19897(16)
C142_2 C 0.2225(3) 0.8223(4) 0.21476(16)
C143_2 C 0.2239(3) 0.8291(4) 0.25549(16)
H81_2 H 0.2120 0.7926 0.2716
C144_2 C 0.2432(3) 0.8907(4) 0.27214(16)
H82_2 H 0.2442 0.8954 0.2994
C145_2 C 0.2611(3) 0.9455(4) 0.24805(16)
C146_2 C 0.2596(3) 0.9385(4) 0.20732(15)
H83_2 H 0.2716 0.9752 0.1912
C147_2 C 0.2404(3) 0.8770(4) 0.19067(16)
H84_2 H 0.2394 0.8723 0.1634
O45_2 O 0.19471(18) 0.71192(25) 0.22172(11)
O64_2 O 0.16686(18) 0.57700(31) 0.25298(10)
C136_3 C 0.0132(4) 0.1578(3) 0.32464(16)
H77_3 H 0.0383 0.1369 0.3241
C137_3 C 0.0187(4) 0.2003(2) 0.29425(16)
H78_3 H 0.0477 0.2079 0.2734
C141_3 C 0.2375(4) 0.4497(3) 0.19897(16)
C142_3 C 0.1777(4) 0.4001(3) 0.21476(16)
C143_3 C 0.1709(4) 0.3947(3) 0.25549(16)
H81_3 H 0.2074 0.4193 0.2716
C144_3 C 0.1093(4) 0.3524(3) 0.27214(16)
H82_3 H 0.1046 0.3487 0.2994
C145_3 C 0.0545(4) 0.3155(3) 0.24805(16)
C146_3 C 0.0615(4) 0.3210(3) 0.20732(15)
H83_3 H 0.0248 0.2963 0.1912
C147_3 C 0.1230(4) 0.3633(3) 0.19067(16)
H84_3 H 0.1277 0.3670 0.1634
O45_3 O 0.28808(25) 0.48278(17) 0.22172(11)
O64_3 O 0.42300(31) 0.58985(25) 0.25298(10)
C134_3 C 0.9627(4) 0.0998(3) 0.38562(17)
C135_3 C 0.9699(4) 0.1465(3) 0.35578(16)
C138_3 C 0.9812(4) 0.2316(3) 0.29499(16)
C139_3 C 0.9381(4) 0.2204(3) 0.32612(16)
H79_3 H 0.9129 0.2413 0.3266
C140_3 C 0.9324(4) 0.1778(2) 0.35651(15)
H80_3 H 0.9035 0.1703 0.3773
C148_3 C 0.7804(4) 0.3042(3) 0.19963(16)
C149_3 C 0.8372(4) 0.2966(3) 0.21564(16)
C150_3 C 0.8968(4) 0.3522(3) 0.22634(16)
H85_3 H 0.9028 0.3944 0.2223
C151_3 C 0.9471(4) 0.3446(3) 0.24303(16)
H86_3 H 0.9869 0.3818 0.2502
C152_3 C 0.9380(4) 0.2815(3) 0.24901(17)
C153_3 C 0.8784(4) 0.2259(3) 0.23830(17)
H87_3 H 0.8723 0.1837 0.2423
C154_3 C 0.8280(4) 0.2334(3) 0.22162(15)
H88_3 H 0.7882 0.1963 0.2144
N8_3 N 0.9884(3) 0.2749(2) 0.26314(13)
O43_3 O 0.99883(27) 0.07315(19) 0.38033(12)
O44_3 O 0.92319(25) 0.08966(18) 0.41368(10)
O47_3 O 0.72753(25) 0.25468(18) 0.19023(11)
O74_3 O 0.63814(27) 0.19250(19) 0.11937(12)
Zn26_3 Zn 0.89469(5) 0.03467(4) 0.459953(18)
C85_2 C 0.5708(4) 0.1164(3) 0.86564(16)
C86_2 C 0.5110(4) 0.0668(3) 0.88143(16)
C87_2 C 0.5042(4) 0.0614(3) 0.92216(16)
H49_2 H 0.5407 0.0860 0.9383
C88_2 C 0.4426(4) 0.0191(3) 0.93881(16)
H50_2 H 0.4379 0.0154 0.9661
C91_2 C 0.4563(4) 0.0300(3) 0.85734(16)
H52_2 H 0.4610 0.0337 0.8301
C94_2 C 0.2301(4) 0.0189(3) 0.89301(16)
H53_2 H 0.2361 0.0611 0.8890
C95_2 C 0.2804(4) 0.0113(3) 0.90970(16)
H54_2 H 0.3202 0.0485 0.9169
O28_2 O 0.62141(25) 0.14945(17) 0.88839(11)
O29_2 O 0.57372(25) 0.12300(17) 0.83047(10)
O31_2 O 0.12985(27) 0.0324(2) 0.85763(11)
O55_2 O 0.6667(3) 0.2586(2) 0.8333
O67_2 O 0.75961(25) 0.21595(18) 0.83620(10)
O79_5 O -0.0000 -0.0000 0.81038(17)
Zn19_5 Zn 0.0000 -0.0000 0.59249(3)
Zn29_2 Zn 0.63199(4) 0.19335(3) 0.793287(18)
Zn33_2 Zn 0.08485(3) 0.06954(3) 0.831580(18)
Zn40_5 Zn 0.0000 -0.0000 0.75486(3)
C1_2 C 0.2335(3) 0.5295(3) 0.05229(17)
C2_2 C 0.1868(3) 0.4900(3) 0.02245(16)
C7_2 C 0.1555(2) 0.4212(3) 0.02318(15)
H4_2 H 0.1630 0.3998 0.0440
O2_2 O 0.26018(19) 0.59234(19) 0.04700(12)
Zn1_2 Zn 0.3333 0.6667 0.07418(3)
C78_2 C 0.2960(4) 0.7665(3) 0.05229(17)
C79_2 C 0.3032(4) 0.8132(3) 0.02245(16)
C84_2 C 0.2657(4) 0.8445(2) 0.02318(15)
H48_2 H 0.2368 0.8370 0.0440
O26_2 O 0.33216(27) 0.73982(19) 0.04700(12)
O58_2 O 0.40766(19) 0.66784(27) 0.04700(12)
C3_2 C 0.1755(3) 0.5220(3) 0.99131(16)
H1_2 H 0.1964 0.5680 0.9908
C4_2 C 0.1330(2) 0.4850(3) 0.96092(16)
H2_2 H 0.1254 0.5064 0.9401
C5_2 C 0.1017(3) 0.4162(3) 0.96166(16)
C6_2 C 0.1129(3) 0.3843(3) 0.99279(16)
H3_2 H 0.0920 0.3382 0.9933
C12_2 C 0.0178(3) 0.4056(3) 0.91472(16)
C13_2 C 0.0123(3) 0.4071(3) 0.87399(15)
H7_2 H 0.0370 0.3951 0.8579
C15_2 C 0.0291(3) 0.1428(3) 0.86630(16)
C16_2 C 0.0367(3) 0.2072(3) 0.88231(16)
C19_2 C 0.0518(3) 0.3231(3) 0.91568(17)
C20_2 C 0.1074(3) 0.3191(3) 0.90497(17)
H11_2 H 0.1496 0.3552 0.9090
C21_2 C 0.0999(3) 0.2612(2) 0.88829(15)
H12_2 H 0.1370 0.2585 0.8811
C22_2 C 0.1277(3) 0.1173(3) 0.75042(16)
C23_2 C 0.1855(3) 0.1715(3) 0.72885(17)
C24_2 C 0.1732(3) 0.1899(3) 0.69225(16)
H13_2 H 0.1308 0.1672 0.6814
C25_2 C 0.2242(3) 0.2424(3) 0.67180(17)
H14_2 H 0.2160 0.2547 0.6473
C26_2 C 0.2875(3) 0.2764(3) 0.68795(18)
C27_2 C 0.2998(3) 0.2579(3) 0.72455(16)
H15_2 H 0.3422 0.2806 0.7354
C28_2 C 0.2488(3) 0.2054(3) 0.74500(16)
H16_2 H 0.2570 0.1931 0.7695
N1_2 N 0.0584(2) 0.3801(2) 0.92981(13)
N2_2 N 0.3333 0.3313(3) 0.6667
O6_2 O 0.07865(18) 0.13951(18) 0.85690(11)
O8_2 O 0.14083(19) 0.11230(19) 0.78604(12)
O9_2 O 0.0784(2) 0.0800(2) 0.73557(11)
C29_2 C 0.5390(3) 0.3229(4) 0.58291(16)
C30_2 C 0.4812(3) 0.3193(4) 0.60448(17)
C31_2 C 0.4935(3) 0.3500(4) 0.64108(16)
H17_2 H 0.5359 0.3697 0.6519
C32_2 C 0.4425(3) 0.3515(4) 0.66153(17)
H18_2 H 0.4507 0.3720 0.6860
C33_2 C 0.3792(3) 0.3222(4) 0.64538(18)
C34_2 C 0.3669(3) 0.2914(4) 0.60878(16)
H19_2 H 0.3245 0.2717 0.5979
C35_2 C 0.4179(3) 0.2899(4) 0.58833(16)
H20_2 H 0.4097 0.2694 0.5638
O11_2 O 0.52584(19) 0.30480(27) 0.54729(12)
O12_2 O 0.5883(2) 0.3349(3) 0.59776(11)
C80_2 C 0.3465(4) 0.8245(3) 0.99131(16)
H45_2 H 0.3716 0.8036 0.9908
C81_2 C 0.3520(4) 0.8670(2) 0.96092(16)
H46_2 H 0.3810 0.8746 0.9401
C82_2 C 0.3145(4) 0.8983(3) 0.96166(16)
C83_2 C 0.2714(4) 0.8871(3) 0.99279(16)
H47_2 H 0.2462 0.9080 0.9933
C89_2 C 0.3878(4) 0.9822(3) 0.91472(16)
C90_2 C 0.3948(4) 0.9877(3) 0.87399(15)
H51_2 H 0.3581 0.9630 0.8579
C92_2 C 0.1137(4) 0.9709(3) 0.86630(16)
C93_2 C 0.1705(4) 0.9633(3) 0.88231(16)
C96_2 C 0.2713(4) 0.9482(3) 0.91568(17)
C97_2 C 0.2117(4) 0.8926(3) 0.90497(17)
H55_2 H 0.2056 0.8504 0.9090
C98_2 C 0.1613(4) 0.9001(3) 0.88829(15)
H56_2 H 0.1215 0.8630 0.8811
C101_2 C 0.0167(4) 0.8268(3) 0.69225(16)
H57_2 H 0.0364 0.8692 0.6814
C102_2 C 0.0182(4) 0.7758(3) 0.67180(17)
H58_2 H 0.0387 0.7840 0.6473
N5_2 N 0.3217(3) 0.9416(2) 0.92981(13)
O30_2 O 0.06086(25) 0.92135(18) 0.85690(11)
O33_2 O 0.0016(3) 0.9216(2) 0.73557(11)
O53_2 O 0.6667 0.3333 0.52295(17)
Zn16_2 Zn 0.6667 0.3333 0.57847(3)
O76_2 O 0.7467(2) 0.4117(2) 0.59776(11)
O77_2 O 0.6651(3) 0.2533(2) 0.59776(11)
O79_6 O 0.0000 1.0000 0.81038(17)
Zn19_6 Zn 0.0000 1.0000 0.59249(3)
Zn36_2 Zn 0.73621(3) 0.41818(3) 0.501753(18)
Zn38_2 Zn 0.68198(4) 0.26379(3) 0.501753(18)
Zn39_2 Zn 0.58182(3) 0.31802(4) 0.501753(18)
Zn40_6 Zn 0.0000 1.0000 0.75486(3)
H97_2 H 0.333301 0.374912 0.666724
H98_2 H 0.0416107 0.666699 0.666724
O79_7 O 1.0000 -0.0000 0.81038(17)
Zn19_7 Zn 1.0000 -0.0000 0.59249(3)
Zn40_7 Zn 1.0000 -0.0000 0.75486(3)
C8_2 C 0.8836(3) 0.4544(3) 0.86564(16)
C9_2 C 0.9332(3) 0.4442(3) 0.88143(16)
C10_2 C 0.9386(3) 0.4428(3) 0.92216(16)
H5_2 H 0.9140 0.4547 0.9383
C11_2 C 0.9809(3) 0.4235(3) 0.93881(16)
H6_2 H 0.9846 0.4225 0.9661
C14_2 C 0.9700(3) 0.4263(3) 0.85734(16)
H8_2 H 0.9663 0.4273 0.8301
C17_2 C 0.9811(3) 0.2112(3) 0.89301(16)
H9_2 H 0.9389 0.1750 0.8890
C18_2 C 0.9887(3) 0.2691(2) 0.90970(16)
H10_2 H 0.9515 0.2717 0.9169
O1_2 O 0.7414(2) 0.4081(2) 0.8333
O4_2 O 0.85055(17) 0.47196(18) 0.88839(11)
O5_2 O 0.87700(17) 0.45072(18) 0.83047(10)
O7_2 O 0.9676(2) 0.09745(18) 0.85763(11)
Zn2_2 Zn 0.6667 0.3333 0.8333
C99_2 C 0.9896(4) 0.8723(3) 0.75042(16)
C100_2 C 0.9860(4) 0.8145(3) 0.72885(17)
C103_2 C 0.9889(4) 0.7125(3) 0.68795(18)
C104_2 C 0.9581(4) 0.7002(3) 0.72455(16)
H59_2 H 0.9384 0.6578 0.7354
C105_2 C 0.9566(4) 0.7512(3) 0.74500(16)
H60_2 H 0.9361 0.7430 0.7695
N6_2 N 0.9980(3) 0.6667 0.6667
O32_2 O 0.97147(27) 0.85917(19) 0.78604(12)
Zn11_2 Zn 0.98469(4) 0.91515(3) 0.831580(18)
C106_2 C 0.7840(3) 0.4610(3) 0.58291(16)
C107_2 C 0.8382(3) 0.5188(3) 0.60448(17)
C108_2 C 0.8566(3) 0.5065(3) 0.64108(16)
H61_2 H 0.8339 0.4641 0.6519
C109_2 C 0.9091(3) 0.5575(3) 0.66153(17)
H62_2 H 0.9214 0.5493 0.6860
C110_2 C 0.9431(3) 0.6208(3) 0.64538(18)
C111_2 C 0.9246(3) 0.6331(3) 0.60878(16)
H63_2 H 0.9473 0.6755 0.5979
C112_2 C 0.8721(3) 0.5821(3) 0.58833(16)
H64_2 H 0.8598 0.5903 0.5638
O34_2 O 0.77897(19) 0.47416(19) 0.54729(12)
Zn13_2 Zn 0.93046(3) 0.01531(4) 0.831580(18)
O42_2 O 0.5919(2) 0.3333(3) 0.8333
C134_4 C 0.8628(3) 0.9002(3) 0.61438(17)
C135_4 C 0.8233(3) 0.8535(3) 0.64422(16)
C136_4 C 0.8553(3) 0.8422(3) 0.67536(16)
H77_4 H 0.9013 0.8631 0.6759
C137_4 C 0.8183(3) 0.7997(2) 0.70575(16)
H78_4 H 0.8397 0.7921 0.7266
C138_4 C 0.7495(3) 0.7684(3) 0.70501(16)
C139_4 C 0.7176(3) 0.7796(3) 0.67388(16)
H79_4 H 0.6715 0.7587 0.6734
C140_4 C 0.7545(3) 0.8222(2) 0.64349(15)
H80_4 H 0.7331 0.8297 0.6227
C141_4 C 0.7877(3) 0.5503(3) 0.80103(16)
C142_4 C 0.7775(3) 0.5999(3) 0.78524(16)
C143_4 C 0.7761(3) 0.6053(3) 0.74451(16)
H81_4 H 0.7880 0.5807 0.7284
C144_4 C 0.7568(3) 0.6476(3) 0.72786(16)
H82_4 H 0.7558 0.6513 0.7006
C145_4 C 0.7389(3) 0.6845(3) 0.75195(16)
C146_4 C 0.7404(3) 0.6790(3) 0.79268(15)
H83_4 H 0.7284 0.7037 0.8088
C147_4 C 0.7596(3) 0.6367(3) 0.80933(16)
H84_4 H 0.7606 0.6330 0.8366
C148_4 C 0.4761(3) 0.6958(3) 0.80037(16)
C149_4 C 0.5405(3) 0.7034(3) 0.78436(16)
C150_4 C 0.5445(3) 0.6478(3) 0.77366(16)
H85_4 H 0.5083 0.6056 0.7777
C151_4 C 0.6024(2) 0.6554(3) 0.75697(16)
H86_4 H 0.6050 0.6182 0.7498
C152_4 C 0.6564(3) 0.7185(3) 0.75099(17)
C153_4 C 0.6524(3) 0.7741(3) 0.76170(17)
H87_4 H 0.6885 0.8163 0.7577
C154_4 C 0.5945(2) 0.7666(3) 0.77838(15)
H88_4 H 0.5918 0.8037 0.7856
N8_4 N 0.7134(2) 0.7251(2) 0.73686(13)
O43_4 O 0.92567(19) 0.92685(19) 0.61967(12)
O44_4 O 0.83352(18) 0.91034(18) 0.58632(10)
O45_4 O 0.80529(18) 0.51722(17) 0.77828(11)
O46_2 O 0.78405(18) 0.54367(17) 0.83620(10)
O47_4 O 0.47284(18) 0.74532(18) 0.80977(11)
O48_3 O 0.43078(18) 0.6343(2) 0.80904(11)
Zn14_2 Zn 0.80665(3) 0.43865(3) 0.793287(18)
Zn15_2 Zn 0.40287(3) 0.75152(3) 0.835087(18)
C155_2 C 0.8827(3) 0.0104(4) 0.75042(16)
C156_2 C 0.8285(3) 0.0140(4) 0.72885(17)
C159_2 C 0.7236(3) 0.0111(4) 0.68795(18)
C160_2 C 0.7421(3) 0.0419(4) 0.72455(16)
H91_2 H 0.7194 0.0616 0.7354
C161_2 C 0.7946(3) 0.0434(4) 0.74500(16)
H92_2 H 0.8069 0.0639 0.7695
N9_2 N 0.6687(3) 0.0020(3) 0.6667
O49_2 O 0.88770(19) 0.02853(27) 0.78604(12)
C162_2 C 0.6771(4) 0.2160(3) 0.58291(16)
C163_2 C 0.6807(4) 0.1618(3) 0.60448(17)
C164_2 C 0.6500(4) 0.1434(3) 0.64108(16)
H93_2 H 0.6303 0.1661 0.6519
C165_2 C 0.6485(4) 0.0909(3) 0.66153(17)
H94_2 H 0.6280 0.0786 0.6860
C166_2 C 0.6778(4) 0.0569(3) 0.64538(18)
C167_2 C 0.7086(4) 0.0754(3) 0.60878(16)
H95_2 H 0.7283 0.0527 0.5979
C168_2 C 0.7101(4) 0.1279(3) 0.58833(16)
H96_2 H 0.7306 0.1402 0.5638
O51_2 O 0.69520(27) 0.22103(19) 0.54729(12)
O64_4 O 0.83314(18) 0.41015(25) 0.74702(10)
O70_2 O 0.90255(18) 0.87015(27) 0.85763(11)
O71_2 O 0.3657(2) 0.79652(27) 0.80904(11)
O74_4 O 0.44563(19) 0.80750(19) 0.88063(12)
O79_8 O 1.0000 1.0000 0.81038(17)
O80_2 O 0.3333 0.6667 0.85629(17)
Zn19_8 Zn 1.0000 1.0000 0.59249(3)
Zn26_4 Zn 0.86001(3) 0.96533(4) 0.540047(18)
Zn31_2 Zn 0.56135(3) 0.36801(4) 0.793287(18)
Zn34_3 Zn 0.34864(4) 0.59713(3) 0.835087(18)
Zn40_8 Zn 1.0000 1.0000 0.75486(3)
C113_2 C 0.4705(3) 0.7040(4) 0.05229(17)
C114_2 C 0.5100(3) 0.6968(4) 0.02245(16)
C119_2 C 0.5788(3) 0.7343(4) 0.02318(15)
H68_2 H 0.6002 0.7632 0.0440
C115_2 C 0.4780(3) 0.6535(4) 0.99131(16)
H65_2 H 0.4320 0.6284 0.9908
C116_2 C 0.5150(3) 0.6480(4) 0.96092(16)
H66_2 H 0.4936 0.6190 0.9401
C117_2 C 0.5838(3) 0.6855(4) 0.96166(16)
C118_2 C 0.6157(3) 0.7286(4) 0.99279(16)
H67_2 H 0.6618 0.7538 0.9933
C120_2 C 0.5456(3) 0.4292(4) 0.86564(16)
C121_2 C 0.5558(3) 0.4890(4) 0.88143(16)
C122_2 C 0.5572(3) 0.4958(4) 0.92216(16)
H69_2 H 0.5453 0.4593 0.9383
C123_2 C 0.5765(3) 0.5574(4) 0.93881(16)
H70_2 H 0.5775 0.5621 0.9661
C124_2 C 0.5944(3) 0.6122(4) 0.91472(16)
C125_2 C 0.5929(3) 0.6052(4) 0.87399(15)
H71_2 H 0.6049 0.6419 0.8579
C126_2 C 0.5737(3) 0.5437(4) 0.85734(16)
H72_2 H 0.5727 0.5390 0.8301
C127_2 C 0.8572(3) 0.8863(4) 0.86630(16)
C128_2 C 0.7928(3) 0.8295(4) 0.88231(16)
C129_2 C 0.7888(3) 0.7699(4) 0.89301(16)
H73_2 H 0.8250 0.7639 0.8890
C130_2 C 0.7309(2) 0.7196(4) 0.90970(16)
H74_2 H 0.7283 0.6798 0.9169
C131_2 C 0.6769(3) 0.7287(4) 0.91568(17)
C132_2 C 0.6809(3) 0.7883(4) 0.90497(17)
H75_2 H 0.6448 0.7944 0.9090
C133_2 C 0.7388(2) 0.8387(4) 0.88829(15)
H76_2 H 0.7415 0.8785 0.8811
N7_2 N 0.6199(2) 0.6783(3) 0.92981(13)
O38_2 O 0.52804(18) 0.37859(25) 0.88839(11)
O39_2 O 0.54928(18) 0.42628(25) 0.83047(10)
O40_2 O 0.86049(18) 0.93914(25) 0.85690(11)
C157_2 C 0.8101(3) 0.9833(4) 0.69225(16)
H89_2 H 0.8328 0.9636 0.6814
C158_2 C 0.7576(3) 0.9818(4) 0.67180(17)
H90_2 H 0.7453 0.9613 0.6473
O50_2 O 0.9200(2) 0.9984(3) 0.73557(11)
O68_2 O 0.45633(17) 0.24039(25) 0.83620(10)
H99_2 H 0.625088 0.958389 0.666724
C136_5 C 0.1578(3) 0.0132(4) 0.67536(16)
H77_5 H 0.1369 0.0383 0.6759
C137_5 C 0.2003(2) 0.0187(4) 0.70575(16)
H78_5 H 0.2079 0.0477 0.7266
C141_5 C 0.4497(3) 0.2375(4) 0.80103(16)
C142_5 C 0.4001(3) 0.1777(4) 0.78524(16)
C143_5 C 0.3947(3) 0.1709(4) 0.74451(16)
H81_5 H 0.4193 0.2074 0.7284
C144_5 C 0.3524(3) 0.1093(4) 0.72786(16)
H82_5 H 0.3487 0.1046 0.7006
C145_5 C 0.3155(3) 0.0545(4) 0.75195(16)
C146_5 C 0.3210(3) 0.0615(4) 0.79268(15)
H83_5 H 0.2963 0.0248 0.8088
C147_5 C 0.3633(3) 0.1230(4) 0.80933(16)
H84_5 H 0.3670 0.1277 0.8366
O45_5 O 0.48278(17) 0.28808(25) 0.77828(11)
O64_5 O 0.58985(25) 0.42300(31) 0.74702(10)
C134_5 C 0.0998(3) 0.9627(4) 0.61438(17)
C135_5 C 0.1465(3) 0.9699(4) 0.64422(16)
C138_5 C 0.2316(3) 0.9812(4) 0.70501(16)
C139_5 C 0.2204(3) 0.9381(4) 0.67388(16)
H79_5 H 0.2413 0.9129 0.6734
C140_5 C 0.1778(2) 0.9324(4) 0.64349(15)
H80_5 H 0.1703 0.9035 0.6227
C148_5 C 0.3042(3) 0.7804(4) 0.80037(16)
C149_5 C 0.2966(3) 0.8372(4) 0.78436(16)
C150_5 C 0.3522(3) 0.8968(4) 0.77366(16)
H85_5 H 0.3944 0.9028 0.7777
C151_5 C 0.3446(3) 0.9471(4) 0.75697(16)
H86_5 H 0.3818 0.9869 0.7498
C152_5 C 0.2815(3) 0.9380(4) 0.75099(17)
C153_5 C 0.2259(3) 0.8784(4) 0.76170(17)
H87_5 H 0.1837 0.8723 0.7577
C154_5 C 0.2334(3) 0.8280(4) 0.77838(15)
H88_5 H 0.1963 0.7882 0.7856
N8_5 N 0.2749(2) 0.9884(3) 0.73686(13)
O43_5 O 0.07315(19) 0.99883(27) 0.61967(12)
O44_5 O 0.08966(18) 0.92319(25) 0.58632(10)
O47_5 O 0.25468(18) 0.72753(25) 0.80977(11)
Zn15_3 Zn 0.24848(3) 0.65136(4) 0.835087(18)
O71_3 O 0.20348(27) 0.56922(34) 0.80904(11)
O74_5 O 0.19250(19) 0.63814(27) 0.88063(12)
Zn26_5 Zn 0.03467(4) 0.89469(5) 0.540047(18)
C134_6 C 0.0373(4) 0.1372(3) 0.61438(17)
C135_6 C 0.0301(4) 0.1767(3) 0.64422(16)
C138_6 C 0.0188(4) 0.2505(3) 0.70501(16)
C139_6 C 0.0619(4) 0.2824(3) 0.67388(16)
H79_6 H 0.0871 0.3285 0.6734
C140_6 C 0.0676(4) 0.2455(3) 0.64349(15)
H80_6 H 0.0965 0.2669 0.6227
C148_6 C 0.2196(4) 0.5239(3) 0.80037(16)
C149_6 C 0.1628(4) 0.4595(3) 0.78436(16)
C150_6 C 0.1032(4) 0.4555(3) 0.77366(16)
H85_6 H 0.0972 0.4917 0.7777
C151_6 C 0.0529(4) 0.3976(2) 0.75697(16)
H86_6 H 0.0131 0.3950 0.7498
C152_6 C 0.0620(4) 0.3436(3) 0.75099(17)
C153_6 C 0.1216(4) 0.3476(3) 0.76170(17)
H87_6 H 0.1277 0.3115 0.7577
C154_6 C 0.1720(4) 0.4055(2) 0.77838(15)
H88_6 H 0.2118 0.4082 0.7856
N8_6 N 0.0116(3) 0.2866(2) 0.73686(13)
O43_6 O 0.00117(27) 0.07433(19) 0.61967(12)
O44_6 O 0.07681(25) 0.16648(18) 0.58632(10)
O47_6 O 0.27247(25) 0.52716(18) 0.80977(11)
O74_6 O 0.36186(27) 0.55437(19) 0.88063(12)
Zn26_6 Zn 0.10531(5) 0.13999(3) 0.540047(18)
C136_6 C 0.9868(4) 0.1447(3) 0.67536(16)
H77_6 H 0.9617 0.0987 0.6759
C137_6 C 0.9813(4) 0.1817(3) 0.70575(16)
H78_6 H 0.9523 0.1603 0.7266
C141_6 C 0.7625(4) 0.2123(3) 0.80103(16)
C142_6 C 0.8223(4) 0.2225(3) 0.78524(16)
C143_6 C 0.8291(4) 0.2239(3) 0.74451(16)
H81_6 H 0.7926 0.2120 0.7284
C144_6 C 0.8907(4) 0.2432(3) 0.72786(16)
H82_6 H 0.8954 0.2442 0.7006
C145_6 C 0.9455(4) 0.2611(3) 0.75195(16)
C146_6 C 0.9385(4) 0.2596(3) 0.79268(15)
H83_6 H 0.9752 0.2716 0.8088
C147_6 C 0.8770(4) 0.2404(3) 0.80933(16)
H84_6 H 0.8723 0.2394 0.8366
O45_6 O 0.71192(25) 0.19471(18) 0.77828(11)
O64_6 O 0.57700(31) 0.16686(18) 0.74702(10)
O55_3 O 0.9253(2) 0.0000(3) 0.5000
O67_3 O 0.88261(18) 0.09295(25) 0.49714(10)
C1_3 C 0.1962(3) 0.5668(3) 0.28104(17)
C2_3 C 0.1567(3) 0.5201(3) 0.31088(16)
C3_3 C 0.1887(3) 0.5088(3) 0.34202(16)
H1_3 H 0.2347 0.5297 0.3425
C4_3 C 0.1517(3) 0.4663(2) 0.37241(16)
H2_3 H 0.1731 0.4587 0.3932
C5_3 C 0.0829(3) 0.4350(3) 0.37167(16)
C6_3 C 0.0510(3) 0.4462(3) 0.34054(16)
H3_3 H 0.0049 0.4253 0.3400
C7_3 C 0.0879(3) 0.4888(2) 0.31015(15)
H4_3 H 0.0665 0.4963 0.2893
C8_3 C 0.1211(3) 0.2169(3) 0.46769(16)
C9_3 C 0.1109(3) 0.2665(3) 0.45190(16)
C10_3 C 0.1095(3) 0.2719(3) 0.41117(16)
H5_3 H 0.1214 0.2473 0.3950
C11_3 C 0.0902(3) 0.3142(3) 0.39452(16)
H6_3 H 0.0892 0.3179 0.3672
C12_3 C 0.0723(3) 0.3511(3) 0.41861(16)
C13_3 C 0.0738(3) 0.3456(3) 0.45934(15)
H7_3 H 0.0618 0.3703 0.4754
C14_3 C 0.0930(3) 0.3033(3) 0.47599(16)
H8_3 H 0.0940 0.2996 0.5032
H11_3 H 0.0219 0.4829 0.4243
N1_3 N 0.0468(2) 0.3917(2) 0.40352(13)
O1_3 O 0.0748(2) 0.0747(2) 0.5000
O2_3 O 0.25901(19) 0.59351(19) 0.28633(12)
O4_3 O 0.13863(18) 0.18388(17) 0.44494(11)
O5_3 O 0.11739(18) 0.21033(17) 0.50286(10)
Zn1_3 Zn 0.3334 0.6666 0.25915(3)
Zn2_3 Zn -0.0000 0.0000 0.5000
C78_3 C 0.4332(3) 0.6293(4) 0.28104(17)
C79_3 C 0.4799(3) 0.6365(4) 0.31088(16)
C80_3 C 0.4912(3) 0.6798(4) 0.34202(16)
H45_3 H 0.4703 0.7049 0.3425
C81_3 C 0.5337(2) 0.6853(4) 0.37241(16)
H46_3 H 0.5413 0.7143 0.3932
C82_3 C 0.5650(3) 0.6478(4) 0.37167(16)
C83_3 C 0.5538(3) 0.6047(4) 0.34054(16)
H47_3 H 0.5747 0.5795 0.3400
C84_3 C 0.5112(2) 0.5990(4) 0.31015(15)
H48_3 H 0.5037 0.5701 0.2893
C85_3 C 0.7831(3) 0.9041(4) 0.46769(16)
C86_3 C 0.7335(3) 0.8443(4) 0.45190(16)
C87_3 C 0.7281(3) 0.8375(4) 0.41117(16)
H49_3 H 0.7527 0.8740 0.3950
C88_3 C 0.6858(3) 0.7759(4) 0.39452(16)
H50_3 H 0.6821 0.7712 0.3672
C89_3 C 0.6489(3) 0.7211(4) 0.41861(16)
C90_3 C 0.6544(3) 0.7281(4) 0.45934(15)
H51_3 H 0.6297 0.6914 0.4754
C91_3 C 0.6967(3) 0.7896(4) 0.47599(16)
H52_3 H 0.7004 0.7943 0.5032
C92_3 C 0.6376(3) 0.4470(4) 0.46703(16)
C93_3 C 0.6300(3) 0.5038(4) 0.45102(16)
C94_3 C 0.6856(3) 0.5634(4) 0.44032(16)
H53_3 H 0.7278 0.5694 0.4443
C95_3 C 0.6780(3) 0.6137(4) 0.42363(16)
H54_3 H 0.7152 0.6535 0.4164
C96_3 C 0.6149(3) 0.6046(4) 0.41765(17)
C97_3 C 0.5593(3) 0.5450(4) 0.42836(17)
H55_3 H 0.5171 0.5389 0.4243
C98_3 C 0.5668(3) 0.4946(4) 0.44504(15)
H56_3 H 0.5297 0.4548 0.4522
N5_3 N 0.6083(2) 0.6550(3) 0.40352(13)
O26_3 O 0.40649(19) 0.66549(27) 0.28633(12)
O28_3 O 0.81612(17) 0.95474(25) 0.44494(11)
O29_3 O 0.78967(17) 0.90705(25) 0.50286(10)
O30_3 O 0.58802(18) 0.39419(25) 0.47643(11)
O31_3 O 0.6991(2) 0.46318(27) 0.47570(11)
C134_7 C 0.5668(3) 0.1962(3) 0.71896(17)
C135_7 C 0.5201(3) 0.1567(3) 0.68912(16)
C136_7 C 0.5088(3) 0.1887(3) 0.65798(16)
H77_7 H 0.5297 0.2347 0.6575
C137_7 C 0.4663(2) 0.1517(3) 0.62759(16)
H78_7 H 0.4587 0.1731 0.6068
C138_7 C 0.4350(3) 0.0829(3) 0.62833(16)
C139_7 C 0.4462(3) 0.0510(3) 0.65946(16)
H79_7 H 0.4253 0.0049 0.6600
C140_7 C 0.4888(2) 0.0879(3) 0.68985(15)
H80_7 H 0.4963 0.0665 0.7107
C141_7 C 0.2169(3) 0.1211(3) 0.53231(16)
C142_7 C 0.2665(3) 0.1109(3) 0.54810(16)
C143_7 C 0.2719(3) 0.1095(3) 0.58883(16)
H81_7 H 0.2473 0.1214 0.6050
C144_7 C 0.3142(3) 0.0902(3) 0.60548(16)
H82_7 H 0.3179 0.0892 0.6328
C145_7 C 0.3511(3) 0.0723(3) 0.58139(16)
C146_7 C 0.3456(3) 0.0738(3) 0.54066(15)
H83_7 H 0.3703 0.0618 0.5246
C147_7 C 0.3033(3) 0.0930(3) 0.52401(16)
H84_7 H 0.2996 0.0940 0.4968
H87_7 H 0.4829 0.0219 0.5757
N8_7 N 0.3917(2) 0.0468(2) 0.59648(13)
O43_7 O 0.59351(19) 0.25901(19) 0.71367(12)
O45_7 O 0.18388(17) 0.13863(18) 0.55506(11)
O46_3 O 0.21033(17) 0.11739(18) 0.49714(10)
O55_4 O 0.9253(2) 1.0000(3) 0.5000
O58_3 O 0.33451(27) 0.74099(19) 0.28633(12)
O70_3 O 0.53682(27) 0.23588(18) 0.47570(11)
Zn19_9 Zn 0.6666 0.3334 0.74085(3)
Zn2_4 Zn -0.0000 1.0000 0.5000
O42_3 O -0.0000(3) 0.9252(2) 0.5000
C148_7 C 0.3624(3) 0.8095(3) 0.53297(16)
C149_7 C 0.3700(3) 0.8739(3) 0.54898(16)
C150_7 C 0.3144(3) 0.8779(3) 0.55968(16)
H85_7 H 0.2722 0.8417 0.5557
C151_7 C 0.3220(3) 0.9358(2) 0.57637(16)
H86_7 H 0.2848 0.9384 0.5836
C152_7 C 0.3851(3) 0.9898(3) 0.58235(17)
C153_7 C 0.4407(3) 0.9858(3) 0.57164(17)
C154_7 C 0.4332(3) 0.9279(2) 0.55496(15)
H88_7 H 0.4703 0.9252 0.5478
O47_7 O 0.41198(18) 0.80618(18) 0.52357(11)
O48_4 O 0.3009(2) 0.76412(18) 0.52430(11)
O71_4 O 0.46318(27) 0.6991(2) 0.52430(11)
C15_3 C 0.8095(3) 0.3624(3) 0.46703(16)
C16_3 C 0.8739(3) 0.3700(3) 0.45102(16)
C17_3 C 0.8779(3) 0.3144(3) 0.44032(16)
H9_3 H 0.8417 0.2722 0.4443
C18_3 C 0.9358(2) 0.3220(3) 0.42363(16)
H10_3 H 0.9384 0.2848 0.4164
C19_3 C 0.9898(3) 0.3851(3) 0.41765(17)
C20_3 C 0.9858(3) 0.4407(3) 0.42836(17)
C21_3 C 0.9279(2) 0.4332(3) 0.44504(15)
H12_3 H 0.9252 0.4703 0.4522
O6_3 O 0.80618(18) 0.41198(18) 0.47643(11)
O7_3 O 0.76412(18) 0.3009(2) 0.47570(11)
Zn2_5 Zn 1.0000 0.0000 0.5000
C127_3 C 0.5530(4) 0.1905(3) 0.46703(16)
C128_3 C 0.4962(4) 0.1261(3) 0.45102(16)
C129_3 C 0.4366(4) 0.1221(3) 0.44032(16)
H73_3 H 0.4306 0.1583 0.4443
C130_3 C 0.3863(4) 0.0642(2) 0.42363(16)
H74_3 H 0.3465 0.0616 0.4164
C131_3 C 0.3954(4) 0.0102(3) 0.41765(17)
C132_3 C 0.4550(4) 0.0142(3) 0.42836(17)
C133_3 C 0.5054(4) 0.0721(2) 0.44504(15)
H76_3 H 0.5452 0.0748 0.4522
O40_3 O 0.60581(25) 0.19382(18) 0.47643(11)
Zn2_6 Zn 1.0000 1.0000 0.5000
C113_3 C 0.3707(4) 0.8038(3) 0.28104(17)
C114_3 C 0.3635(4) 0.8433(3) 0.31088(16)
C115_3 C 0.3202(4) 0.8113(3) 0.34202(16)
H65_3 H 0.2951 0.7653 0.3425
C116_3 C 0.3147(4) 0.8483(3) 0.37241(16)
H66_3 H 0.2857 0.8269 0.3932
C117_3 C 0.3522(4) 0.9171(3) 0.37167(16)
C118_3 C 0.3953(4) 0.9490(3) 0.34054(16)
H67_3 H 0.4205 0.9951 0.3400
C119_3 C 0.4010(4) 0.9121(3) 0.31015(15)
H68_3 H 0.4299 0.9335 0.2893
C120_3 C 0.0959(4) 0.8789(3) 0.46769(16)
C121_3 C 0.1557(4) 0.8891(3) 0.45190(16)
C122_3 C 0.1625(4) 0.8905(3) 0.41117(16)
H69_3 H 0.1260 0.8786 0.3950
C123_3 C 0.2241(4) 0.9098(3) 0.39452(16)
H70_3 H 0.2288 0.9108 0.3672
C124_3 C 0.2789(4) 0.9277(3) 0.41861(16)
C125_3 C 0.2719(4) 0.9262(3) 0.45934(15)
H71_3 H 0.3086 0.9382 0.4754
C126_3 C 0.2104(4) 0.9070(3) 0.47599(16)
H72_3 H 0.2057 0.9060 0.5032
H75_3 H 0.4611 0.9781 0.4243
N7_3 N 0.3450(3) 0.9532(2) 0.40352(13)
O38_3 O 0.04526(25) 0.86137(18) 0.44494(11)
O39_3 O 0.09295(25) 0.88261(18) 0.50286(10)
O42_4 O 1.0000(3) 0.9252(2) 0.5000
O68_3 O 0.90705(25) 0.78967(17) 0.49714(10)
C148_8 C 0.1905(3) 0.5530(4) 0.53297(16)
C149_8 C 0.1261(3) 0.4962(4) 0.54898(16)
C150_8 C 0.1221(3) 0.4366(4) 0.55968(16)
H85_8 H 0.1583 0.4306 0.5557
C151_8 C 0.0642(2) 0.3863(4) 0.57637(16)
H86_8 H 0.0616 0.3465 0.5836
C152_8 C 0.0102(3) 0.3954(4) 0.58235(17)
C153_8 C 0.0142(3) 0.4550(4) 0.57164(17)
C154_8 C 0.0721(2) 0.5054(4) 0.55496(15)
H88_8 H 0.0748 0.5452 0.5478
O47_8 O 0.19382(18) 0.60581(25) 0.52357(11)
O48_5 O 0.23588(18) 0.53682(27) 0.52430(11)
C134_8 C 0.8038(3) 0.3707(4) 0.71896(17)
C135_8 C 0.8433(3) 0.3635(4) 0.68912(16)
C136_8 C 0.8113(3) 0.3202(4) 0.65798(16)
H77_8 H 0.7653 0.2951 0.6575
C137_8 C 0.8483(3) 0.3147(4) 0.62759(16)
H78_8 H 0.8269 0.2857 0.6068
C138_8 C 0.9171(3) 0.3522(4) 0.62833(16)
C139_8 C 0.9490(3) 0.3953(4) 0.65946(16)
H79_8 H 0.9951 0.4205 0.6600
C140_8 C 0.9121(3) 0.4010(4) 0.68985(15)
H80_8 H 0.9335 0.4299 0.7107
C141_8 C 0.8789(3) 0.0959(4) 0.53231(16)
C142_8 C 0.8891(3) 0.1557(4) 0.54810(16)
C143_8 C 0.8905(3) 0.1625(4) 0.58883(16)
H81_8 H 0.8786 0.1260 0.6050
C144_8 C 0.9098(3) 0.2241(4) 0.60548(16)
H82_8 H 0.9108 0.2288 0.6328
C145_8 C 0.9277(3) 0.2789(4) 0.58139(16)
C146_8 C 0.9262(3) 0.2719(4) 0.54066(15)
H83_8 H 0.9382 0.3086 0.5246
C147_8 C 0.9070(3) 0.2104(4) 0.52401(16)
H84_8 H 0.9060 0.2057 0.4968
H87_8 H 0.9781 0.4611 0.5757
N8_8 N 0.9532(2) 0.3450(3) 0.59648(13)
O43_8 O 0.74099(19) 0.33451(27) 0.71367(12)
O45_8 O 0.86137(18) 0.04526(25) 0.55506(11)
C134_9 C 0.6293(4) 0.4332(3) 0.71896(17)
C135_9 C 0.6365(4) 0.4799(3) 0.68912(16)
C136_9 C 0.6798(4) 0.4912(3) 0.65798(16)
H77_9 H 0.7049 0.4703 0.6575
C137_9 C 0.6853(4) 0.5337(2) 0.62759(16)
H78_9 H 0.7143 0.5413 0.6068
C138_9 C 0.6478(4) 0.5650(3) 0.62833(16)
C139_9 C 0.6047(4) 0.5538(3) 0.65946(16)
H79_9 H 0.5795 0.5747 0.6600
C140_9 C 0.5990(4) 0.5112(2) 0.68985(15)
H80_9 H 0.5701 0.5037 0.7107
C141_9 C 0.9041(4) 0.7831(3) 0.53231(16)
C142_9 C 0.8443(4) 0.7335(3) 0.54810(16)
C143_9 C 0.8375(4) 0.7281(3) 0.58883(16)
H81_9 H 0.8740 0.7527 0.6050
C144_9 C 0.7759(4) 0.6858(3) 0.60548(16)
H82_9 H 0.7712 0.6821 0.6328
C145_9 C 0.7211(4) 0.6489(3) 0.58139(16)
C146_9 C 0.7281(4) 0.6544(3) 0.54066(15)
H83_9 H 0.6914 0.6297 0.5246
C147_9 C 0.7896(4) 0.6967(3) 0.52401(16)
H84_9 H 0.7943 0.7004 0.4968
C148_9 C 0.4470(4) 0.6376(3) 0.53297(16)
C149_9 C 0.5038(4) 0.6300(3) 0.54898(16)
C150_9 C 0.5634(4) 0.6856(3) 0.55968(16)
H85_9 H 0.5694 0.7278 0.5557
C151_9 C 0.6137(4) 0.6780(3) 0.57637(16)
H86_9 H 0.6535 0.7152 0.5836
C152_9 C 0.6046(4) 0.6149(3) 0.58235(17)
C153_9 C 0.5450(4) 0.5593(3) 0.57164(17)
H87_9 H 0.5389 0.5171 0.5757
C154_9 C 0.4946(4) 0.5668(3) 0.55496(15)
H88_9 H 0.4548 0.5297 0.5478
N8_9 N 0.6550(3) 0.6083(2) 0.59648(13)
O43_9 O 0.66549(27) 0.40649(19) 0.71367(12)
O45_9 O 0.95474(25) 0.81612(17) 0.55506(11)
O47_9 O 0.39419(25) 0.58802(18) 0.52357(11)
H15_3 H 0.0089 0.6139 0.0687
N2_3 N -0.0000 0.6646(3) 0.0000
H18_3 H 0.1173 0.7054 0.0194
H97_3 H -3.22286e-05 0.708245 5.71534e-05
C29_3 C 0.2056(3) 0.6563(4) 0.91625(16)
C30_3 C 0.1478(3) 0.6527(4) 0.93782(17)
C31_3 C 0.1601(3) 0.6834(4) 0.97442(16)
H17_3 H 0.2025 0.7031 0.9853
C32_3 C 0.1091(3) 0.6849(4) 0.99487(17)
C33_3 C 0.0458(3) 0.6556(4) 0.97872(18)
C34_3 C 0.0335(3) 0.6248(4) 0.94212(16)
C35_3 C 0.0845(3) 0.6233(4) 0.92167(16)
H20_3 H 0.0763 0.6028 0.8972
O12_3 O 0.2549(2) 0.6683(3) 0.93110(11)
Zn16_3 Zn 0.3333 0.6667 0.91181(3)
O76_3 O 0.4133(2) 0.7451(2) 0.93110(11)
O77_3 O 0.3317(3) 0.5867(2) 0.93110(11)
C99_3 C 0.6563(4) 0.2056(3) 0.08375(16)
C100_3 C 0.6527(4) 0.1478(3) 0.06218(17)
C101_3 C 0.6834(4) 0.1601(3) 0.02558(16)
H57_3 H 0.7031 0.2025 0.0147
C102_3 C 0.6849(4) 0.1091(3) 0.00513(17)
C103_3 C 0.6556(4) 0.0458(3) 0.02128(18)
C104_3 C 0.6248(4) 0.0335(3) 0.05788(16)
C105_3 C 0.6233(4) 0.0845(3) 0.07833(16)
H60_3 H 0.6028 0.0763 0.1028
N6_3 N 0.6647(3) 0.0000 0.0000
O33_3 O 0.6683(3) 0.2549(2) 0.06890(11)
Zn40_9 Zn 0.6667 0.3333 0.08819(3)
H98_3 H 0.708277 3.22286e-05 5.71534e-05
H58_3 H 0.7054 0.1173 0.9806
H63_3 H 0.6139 0.0089 0.9313
C22_3 C 0.7944(3) 0.4506(3) 0.08375(16)
C23_3 C 0.8522(3) 0.5048(3) 0.06218(17)
C24_3 C 0.8399(3) 0.5232(3) 0.02558(16)
H13_3 H 0.7975 0.5005 0.0147
C25_3 C 0.8909(3) 0.5757(3) 0.00513(17)
C26_3 C 0.9542(3) 0.6097(3) 0.02128(18)
C27_3 C 0.9665(3) 0.5912(3) 0.05788(16)
C28_3 C 0.9155(3) 0.5387(3) 0.07833(16)
H16_3 H 0.9237 0.5264 0.1028
N2_4 N 1.0000 0.6646(3) 0.0000
O9_3 O 0.7451(2) 0.4133(2) 0.06890(11)
H59_3 H 0.6051 0.9911 0.0687
N6_4 N 0.6647(3) 1.0000 0.0000
H62_3 H 0.5880 0.8827 0.0194
C155_3 C 0.5494(3) 0.3437(4) 0.08375(16)
C156_3 C 0.4952(3) 0.3473(4) 0.06218(17)
C157_3 C 0.4768(3) 0.3166(4) 0.02558(16)
H89_3 H 0.4995 0.2969 0.0147
C158_3 C 0.4243(3) 0.3151(4) 0.00513(17)
C159_3 C 0.3903(3) 0.3444(4) 0.02128(18)
C160_3 C 0.4088(3) 0.3752(4) 0.05788(16)
H91_3 H 0.3861 0.3949 0.0687
C161_3 C 0.4613(3) 0.3767(4) 0.07833(16)
H92_3 H 0.4736 0.3972 0.1028
N9_3 N 0.3354(3) 0.3353(3) 0.0000
O50_3 O 0.5867(2) 0.3317(3) 0.06890(11)
H94_3 H 0.2946 0.4120 0.0194
H97_4 H 0.999968 0.708245 5.71534e-05
H98_4 H 0.708277 1.00003 5.71534e-05
H99_3 H 0.291755 0.291723 5.71534e-05
H14_3 H 0.8827 0.5880 0.9806
H19_3 H 0.9911 0.6051 0.9313
C106_3 C 0.4506(3) 0.7944(3) 0.91625(16)
C107_3 C 0.5048(3) 0.8522(3) 0.93782(17)
C108_3 C 0.5232(3) 0.8399(3) 0.97442(16)
H61_3 H 0.5005 0.7975 0.9853
C109_3 C 0.5757(3) 0.8909(3) 0.99487(17)
C110_3 C 0.6097(3) 0.9542(3) 0.97872(18)
C111_3 C 0.5912(3) 0.9665(3) 0.94212(16)
C112_3 C 0.5387(3) 0.9155(3) 0.92167(16)
H64_3 H 0.5264 0.9237 0.8972
H90_3 H 0.4120 0.2946 0.9806
C162_3 C 0.3437(4) 0.5494(3) 0.91625(16)
C163_3 C 0.3473(4) 0.4952(3) 0.93782(17)
C164_3 C 0.3166(4) 0.4768(3) 0.97442(16)
H93_3 H 0.2969 0.4995 0.9853
C165_3 C 0.3151(4) 0.4243(3) 0.99487(17)
C166_3 C 0.3444(4) 0.3903(3) 0.97872(18)
C167_3 C 0.3752(4) 0.4088(3) 0.94212(16)
H95_3 H 0.3949 0.3861 0.9313
C168_3 C 0.3767(4) 0.4613(3) 0.92167(16)
H96_3 H 0.3972 0.4736 0.8972
N6_5 N 0.0000 0.6647(3) 1.0000
H98_5 H 3.22286e-05 0.708277 0.999943
N2_5 N 0.6646(3) -0.0000 1.0000
H97_5 H 0.708245 -3.22286e-05 0.999943
N2_6 N 0.6646(3) 1.0000 1.0000
N6_6 N 1.0000 0.6647(3) 1.0000
N9_4 N 0.3353(3) 0.3354(3) 1.0000
H97_6 H 0.708245 0.999968 0.999943
H98_6 H 1.00003 0.708277 0.999943
H99_4 H 0.291723 0.291755 0.999943
loop_
_geom_bond_atom_site_label_1
_geom_bond_atom_site_label_2
_geom_bond_site_symmetry_1
_geom_bond_site_symmetry_2
C85 C86 1_555 1_555
C86 C87 1_555 1_555
C87 H49 1_555 1_555
C88 C87 1_555 1_555
H50 C88 1_555 1_555
C91 C86 1_555 1_555
H52 C91 1_555 1_555
C94 H53 1_555 1_555
C95 C94 1_555 1_555
H54 C95 1_555 1_555
O28 C85 1_555 1_555
O29 C85 1_555 1_555
Zn10 O28 1_555 1_555
O55 Zn10 1_555 1_555
O63 Zn10 1_555 1_555
O67 Zn10 1_555 1_555
Zn29 O29 1_555 1_555
Zn33 O31 1_555 1_555
O55 Zn29 1_555 1_555
O79 Zn33 1_555 1_555
O79 Zn40 1_555 1_555
O79_2 Zn40_2 1_555 1_555
C3 H1 1_555 1_555
C4 C3 1_555 1_555
H2 C4 1_555 1_555
C5 C4 1_555 1_555
C6 C5 1_555 1_555
H3 C6 1_555 1_555
C13 C12 1_555 1_555
H7 C13 1_555 1_555
C15 C16 1_555 1_555
C20 C19 1_555 1_555
H11 C20 1_555 1_555
C21 C16 1_555 1_555
H12 C21 1_555 1_555
C22 C23 1_555 1_555
C23 C24 1_555 1_555
C24 H13 1_555 1_555
C25 C24 1_555 1_555
H14 C25 1_555 1_555
C26 C25 1_555 1_555
C27 C26 1_555 1_555
H15 C27 1_555 1_555
C28 C23 1_555 1_555
H16 C28 1_555 1_555
N1 C5 1_555 1_555
N2 C26 1_555 1_555
O6 C15 1_555 1_555
O8 C22 1_555 1_555
O9 C22 1_555 1_555
Zn33 O6 1_555 1_555
Zn40 O9 1_555 1_555
C29 C30 1_555 1_555
C30 C31 1_555 1_555
C31 H17 1_555 1_555
C32 C31 1_555 1_555
H18 C32 1_555 1_555
C33 N2 1_555 1_555
C34 C33 1_555 1_555
H19 C34 1_555 1_555
C35 C30 1_555 1_555
H20 C35 1_555 1_555
O11 C29 1_555 1_555
O12 C29 1_555 1_555
C80 H45 1_555 1_555
C81 C80 1_555 1_555
H46 C81 1_555 1_555
C82 C81 1_555 1_555
C83 C82 1_555 1_555
H47 C83 1_555 1_555
C90 C89 1_555 1_555
H51 C90 1_555 1_555
C92 C93 1_555 1_555
C97 C96 1_555 1_555
H55 C97 1_555 1_555
C98 C93 1_555 1_555
H56 C98 1_555 1_555
C101 H57 1_555 1_555
C102 C101 1_555 1_555
H58 C102 1_555 1_555
N5 C82 1_555 1_555
O30 C92 1_555 1_555
O53 Zn16 1_555 1_555
Zn16 O12 1_555 1_555
O76 Zn16 1_555 1_555
O77 Zn16 1_555 1_555
Zn36 O53 1_555 1_555
Zn38 O53 1_555 1_555
Zn39 O11 1_555 1_555
Zn40_3 O33 1_555 1_555
C12 N1 1_555 1_555
C19 N1 1_555 1_555
C20 C21 1_555 1_555
C27 C28 1_555 1_555
O8 Zn33 1_555 1_555
C32 C33 1_555 1_555
C34 C35 1_555 1_555
C89 N5 1_555 1_555
C96 N5 1_555 1_555
C97 C98 1_555 1_555
O53 Zn39 1_555 1_555
O79_3 Zn40_3 1_555 1_555
N2 H97 1_555 1_555
C1 C2 1_555 1_555
C7 C2 1_555 1_555
H4 C7 1_555 1_555
O2 C1 1_555 1_555
O3 C1 1_555 1_555
Zn1 O2 1_555 1_555
C78 C79 1_555 1_555
C84 C79 1_555 1_555
H48 C84 1_555 1_555
O26 Zn1 1_555 1_555
O27 C78 1_555 1_555
O58 Zn1 1_555 1_555
Zn22 O3 1_555 1_555
Zn25 O27 1_555 1_555
C78 O26 1_555 1_555
C8 C9 1_555 1_555
C9 C10 1_555 1_555
C10 H5 1_555 1_555
C11 C10 1_555 1_555
H6 C11 1_555 1_555
C14 C9 1_555 1_555
H8 C14 1_555 1_555
C17 H9 1_555 1_555
C18 C17 1_555 1_555
H10 C18 1_555 1_555
O1 Zn2 1_555 1_555
O4 C8 1_555 1_555
O5 C8 1_555 1_555
Zn2 O55 1_555 1_555
Zn3 O1 1_555 1_555
C99 C100 1_555 1_555
C104 C103 1_555 1_555
H59 C104 1_555 1_555
C105 C100 1_555 1_555
H60 C105 1_555 1_555
N6 C103 1_555 1_555
O32 C99 1_555 1_555
C106 C107 1_555 1_555
C107 C108 1_555 1_555
C108 H61 1_555 1_555
C109 C108 1_555 1_555
H62 C109 1_555 1_555
C110 N6 1_555 1_555
C111 C110 1_555 1_555
H63 C111 1_555 1_555
C112 C107 1_555 1_555
H64 C112 1_555 1_555
O34 C106 1_555 1_555
O76 C106 1_555 1_555
Zn13 O7 1_555 1_555
O42 Zn2 1_555 1_555
C134 C135 1_555 1_555
C135 C136 1_555 1_555
C136 H77 1_555 1_555
C137 C136 1_555 1_555
H78 C137 1_555 1_555
C138 C137 1_555 1_555
C139 C138 1_555 1_555
H79 C139 1_555 1_555
C140 C135 1_555 1_555
H80 C140 1_555 1_555
C141 C142 1_555 1_555
C142 C143 1_555 1_555
C143 H81 1_555 1_555
C144 C143 1_555 1_555
H82 C144 1_555 1_555
C145 C144 1_555 1_555
C146 C145 1_555 1_555
H83 C146 1_555 1_555
C147 C142 1_555 1_555
H84 C147 1_555 1_555
C148 C149 1_555 1_555
C149 C150 1_555 1_555
C150 H85 1_555 1_555
C151 C150 1_555 1_555
H86 C151 1_555 1_555
C152 C151 1_555 1_555
C153 C152 1_555 1_555
H87 C153 1_555 1_555
C154 C149 1_555 1_555
H88 C154 1_555 1_555
N8 C138 1_555 1_555
O43 C134 1_555 1_555
O44 C134 1_555 1_555
O45 C141 1_555 1_555
O46 Zn3 1_555 1_555
O47 C148 1_555 1_555
O48 C148 1_555 1_555
Zn14 O1 1_555 1_555
Zn15 O47 1_555 1_555
C155 C156 1_555 1_555
C160 C159 1_555 1_555
H91 C160 1_555 1_555
C161 C156 1_555 1_555
H92 C161 1_555 1_555
N9 C159 1_555 1_555
O49 Zn13 1_555 1_555
C162 C163 1_555 1_555
C163 C164 1_555 1_555
C164 H93 1_555 1_555
C165 C164 1_555 1_555
H94 C165 1_555 1_555
C166 N9 1_555 1_555
C167 C166 1_555 1_555
H95 C167 1_555 1_555
C168 C163 1_555 1_555
H96 C168 1_555 1_555
O51 C162 1_555 1_555
O77 C162 1_555 1_555
O60 Zn3 1_555 1_555
O64 Zn14 1_555 1_555
O70 Zn11 1_555 1_555
O71 Zn15 1_555 1_555
O74 Zn15 1_555 1_555
O79_4 Zn11 1_555 1_555
O80 Zn15 1_555 1_555
Zn19_4 O43 1_555 1_555
Zn20 O42 1_555 1_555
Zn26 O44 1_555 1_555
Zn31 O42 1_555 1_555
Zn34 O48 1_555 1_555
Zn36 O34 1_555 1_555
Zn38 O51 1_555 1_555
O4 Zn3 1_555 1_555
O5 Zn14 1_555 1_555
O79_2 Zn13 1_555 1_555
C104 C105 1_555 1_555
O32 Zn11 1_555 1_555
C109 C110 1_555 1_555
C111 C112 1_555 1_555
C139 C140 1_555 1_555
C141 O46 1_555 1_555
C145 N8 1_555 1_555
C146 C147 1_555 1_555
C152 N8 1_555 1_555
C153 C154 1_555 1_555
O45 Zn14 1_555 1_555
C155 O49 1_555 1_555
C160 C161 1_555 1_555
C165 C166 1_555 1_555
C167 C168 1_555 1_555
O79_4 Zn40_4 1_555 1_555
O80 Zn34 1_555 1_555
C115 H65 1_555 1_555
C116 C115 1_555 1_555
H66 C116 1_555 1_555
C117 C116 1_555 1_555
C118 C117 1_555 1_555
H67 C118 1_555 1_555
C120 C121 1_555 1_555
C121 C122 1_555 1_555
C122 H69 1_555 1_555
C123 C122 1_555 1_555
H70 C123 1_555 1_555
C124 C123 1_555 1_555
C125 C124 1_555 1_555
H71 C125 1_555 1_555
C126 C121 1_555 1_555
H72 C126 1_555 1_555
C127 C128 1_555 1_555
C128 C129 1_555 1_555
C129 H73 1_555 1_555
C130 C129 1_555 1_555
H74 C130 1_555 1_555
C131 C130 1_555 1_555
C132 C131 1_555 1_555
H75 C132 1_555 1_555
C133 C128 1_555 1_555
H76 C133 1_555 1_555
N7 C117 1_555 1_555
O38 C120 1_555 1_555
O39 C120 1_555 1_555
O40 C127 1_555 1_555
Zn20 O38 1_555 1_555
C157 H89 1_555 1_555
C158 C157 1_555 1_555
H90 C158 1_555 1_555
O50 Zn40_4 1_555 1_555
O59 Zn20 1_555 1_555
O68 Zn20 1_555 1_555
Zn31 O39 1_555 1_555
C124 N7 1_555 1_555
C125 C126 1_555 1_555
C127 O70 1_555 1_555
C131 N7 1_555 1_555
C132 C133 1_555 1_555
C113 C114 1_555 1_555
C119 C114 1_555 1_555
H68 C119 1_555 1_555
O58 C113 1_555 1_555
O37 C113 1_555 1_555
Zn21 O37 1_555 1_555
C134_2 C135_2 1_555 1_555
C139_2 C138_2 1_555 1_555
H79_2 C139_2 1_555 1_555
C140_2 C135_2 1_555 1_555
H80_2 C140_2 1_555 1_555
C148_2 C149_2 1_555 1_555
C149_2 C150_2 1_555 1_555
C150_2 H85_2 1_555 1_555
C151_2 C150_2 1_555 1_555
H86_2 C151_2 1_555 1_555
C152_2 C151_2 1_555 1_555
C153_2 C152_2 1_555 1_555
H87_2 C153_2 1_555 1_555
C154_2 C149_2 1_555 1_555
H88_2 C154_2 1_555 1_555
N8_2 C138_2 1_555 1_555
O43_2 C134_2 1_555 1_555
O44_2 C134_2 1_555 1_555
O47_2 C148_2 1_555 1_555
O48_2 C148_2 1_555 1_555
Zn34 O47_2 1_555 1_555
O74_2 Zn34 1_555 1_555
Zn26_2 O44_2 1_555 1_555
Zn34_2 O48_2 1_555 1_555
C139_2 C140_2 1_555 1_555
C152_2 N8_2 1_555 1_555
C153_2 C154_2 1_555 1_555
O80 Zn34_2 1_555 1_555
C136_2 H77_2 1_555 1_555
C137_2 C136_2 1_555 1_555
H78_2 C137_2 1_555 1_555
C141_2 C142_2 1_555 1_555
C142_2 C143_2 1_555 1_555
C143_2 H81_2 1_555 1_555
C144_2 C143_2 1_555 1_555
H82_2 C144_2 1_555 1_555
C145_2 C144_2 1_555 1_555
C146_2 C145_2 1_555 1_555
H83_2 C146_2 1_555 1_555
C147_2 C142_2 1_555 1_555
H84_2 C147_2 1_555 1_555
O45_2 C141_2 1_555 1_555
O64_2 Zn29 1_555 1_555
C141_2 O67 1_555 1_555
C146_2 C147_2 1_555 1_555
O45_2 Zn29 1_555 1_555
C136_3 H77_3 1_555 1_555
C137_3 C136_3 1_555 1_555
H78_3 C137_3 1_555 1_555
C141_3 C142_3 1_555 1_555
C142_3 C143_3 1_555 1_555
C143_3 H81_3 1_555 1_555
C144_3 C143_3 1_555 1_555
H82_3 C144_3 1_555 1_555
C145_3 C144_3 1_555 1_555
C146_3 C145_3 1_555 1_555
H83_3 C146_3 1_555 1_555
C147_3 C142_3 1_555 1_555
H84_3 C147_3 1_555 1_555
O45_3 C141_3 1_555 1_555
O64_3 Zn31 1_555 1_555
C141_3 O68 1_555 1_555
C146_3 C147_3 1_555 1_555
O45_3 Zn31 1_555 1_555
C134_3 C135_3 1_555 1_555
C139_3 C138_3 1_555 1_555
H79_3 C139_3 1_555 1_555
C140_3 C135_3 1_555 1_555
H80_3 C140_3 1_555 1_555
C148_3 C149_3 1_555 1_555
C149_3 C150_3 1_555 1_555
C150_3 H85_3 1_555 1_555
C151_3 C150_3 1_555 1_555
H86_3 C151_3 1_555 1_555
C152_3 C151_3 1_555 1_555
C153_3 C152_3 1_555 1_555
H87_3 C153_3 1_555 1_555
C154_3 C149_3 1_555 1_555
H88_3 C154_3 1_555 1_555
N8_3 C138_3 1_555 1_555
O43_3 C134_3 1_555 1_555
O44_3 C134_3 1_555 1_555
O47_3 C148_3 1_555 1_555
O71 C148_3 1_555 1_555
Zn34_2 O47_3 1_555 1_555
O74_3 Zn34_2 1_555 1_555
Zn26_3 O44_3 1_555 1_555
C139_3 C140_3 1_555 1_555
C152_3 N8_3 1_555 1_555
C153_3 C154_3 1_555 1_555
C85_2 C86_2 1_555 1_555
C86_2 C87_2 1_555 1_555
C87_2 H49_2 1_555 1_555
C88_2 C87_2 1_555 1_555
H50_2 C88_2 1_555 1_555
C91_2 C86_2 1_555 1_555
H52_2 C91_2 1_555 1_555
C94_2 H53_2 1_555 1_555
C95_2 C94_2 1_555 1_555
H54_2 C95_2 1_555 1_555
O28_2 C85_2 1_555 1_555
O29_2 C85_2 1_555 1_555
Zn25 O28_2 1_555 1_555
O55_2 Zn25 1_555 1_555
O67_2 Zn25 1_555 1_555
Zn29_2 O29_2 1_555 1_555
Zn33_2 O31_2 1_555 1_555
O55_2 Zn29_2 1_555 1_555
O79_5 Zn33_2 1_555 1_555
O79_5 Zn40_5 1_555 1_555
C1_2 C2_2 1_555 1_555
C7_2 C2_2 1_555 1_555
H4_2 C7_2 1_555 1_555
O2_2 C1_2 1_555 1_555
O59 C1_2 1_555 1_555
Zn1_2 O2_2 1_555 1_555
C78_2 C79_2 1_555 1_555
C84_2 C79_2 1_555 1_555
H48_2 C84_2 1_555 1_555
O26_2 Zn1_2 1_555 1_555
O63 C78_2 1_555 1_555
O58_2 Zn1_2 1_555 1_555
C78_2 O26_2 1_555 1_555
C3_2 H1_2 1_555 1_555
C4_2 C3_2 1_555 1_555
H2_2 C4_2 1_555 1_555
C5_2 C4_2 1_555 1_555
C6_2 C5_2 1_555 1_555
H3_2 C6_2 1_555 1_555
C13_2 C12_2 1_555 1_555
H7_2 C13_2 1_555 1_555
C15_2 C16_2 1_555 1_555
C20_2 C19_2 1_555 1_555
H11_2 C20_2 1_555 1_555
C21_2 C16_2 1_555 1_555
H12_2 C21_2 1_555 1_555
C22_2 C23_2 1_555 1_555
C23_2 C24_2 1_555 1_555
C24_2 H13_2 1_555 1_555
C25_2 C24_2 1_555 1_555
H14_2 C25_2 1_555 1_555
C26_2 C25_2 1_555 1_555
C27_2 C26_2 1_555 1_555
H15_2 C27_2 1_555 1_555
C28_2 C23_2 1_555 1_555
H16_2 C28_2 1_555 1_555
N1_2 C5_2 1_555 1_555
N2_2 C26_2 1_555 1_555
O6_2 C15_2 1_555 1_555
O8_2 C22_2 1_555 1_555
O9_2 C22_2 1_555 1_555
Zn33_2 O6_2 1_555 1_555
Zn40_5 O9_2 1_555 1_555
C29_2 C30_2 1_555 1_555
C30_2 C31_2 1_555 1_555
C31_2 H17_2 1_555 1_555
C32_2 C31_2 1_555 1_555
H18_2 C32_2 1_555 1_555
C33_2 N2_2 1_555 1_555
C34_2 C33_2 1_555 1_555
H19_2 C34_2 1_555 1_555
C35_2 C30_2 1_555 1_555
H20_2 C35_2 1_555 1_555
O11_2 C29_2 1_555 1_555
O12_2 C29_2 1_555 1_555
C80_2 H45_2 1_555 1_555
C81_2 C80_2 1_555 1_555
H46_2 C81_2 1_555 1_555
C82_2 C81_2 1_555 1_555
C83_2 C82_2 1_555 1_555
H47_2 C83_2 1_555 1_555
C90_2 C89_2 1_555 1_555
H51_2 C90_2 1_555 1_555
C92_2 C93_2 1_555 1_555
C97_2 C96_2 1_555 1_555
H55_2 C97_2 1_555 1_555
C98_2 C93_2 1_555 1_555
H56_2 C98_2 1_555 1_555
C101_2 H57_2 1_555 1_555
C102_2 C101_2 1_555 1_555
H58_2 C102_2 1_555 1_555
N5_2 C82_2 1_555 1_555
O30_2 C92_2 1_555 1_555
O53_2 Zn16_2 1_555 1_555
Zn16_2 O12_2 1_555 1_555
O76_2 Zn16_2 1_555 1_555
O77_2 Zn16_2 1_555 1_555
Zn36_2 O53_2 1_555 1_555
Zn38_2 O53_2 1_555 1_555
Zn39_2 O11_2 1_555 1_555
Zn40_6 O33_2 1_555 1_555
C12_2 N1_2 1_555 1_555
C19_2 N1_2 1_555 1_555
C20_2 C21_2 1_555 1_555
C27_2 C28_2 1_555 1_555
O8_2 Zn33_2 1_555 1_555
C32_2 C33_2 1_555 1_555
C34_2 C35_2 1_555 1_555
C89_2 N5_2 1_555 1_555
C96_2 N5_2 1_555 1_555
C97_2 C98_2 1_555 1_555
O53_2 Zn39_2 1_555 1_555
O79_6 Zn40_6 1_555 1_555
N2_2 H97_2 1_555 1_555
O79_7 Zn40_7 1_555 1_555
C8_2 C9_2 1_555 1_555
C9_2 C10_2 1_555 1_555
C10_2 H5_2 1_555 1_555
C11_2 C10_2 1_555 1_555
H6_2 C11_2 1_555 1_555
C14_2 C9_2 1_555 1_555
H8_2 C14_2 1_555 1_555
C17_2 H9_2 1_555 1_555
C18_2 C17_2 1_555 1_555
H10_2 C18_2 1_555 1_555
O1_2 Zn2_2 1_555 1_555
O4_2 C8_2 1_555 1_555
O5_2 C8_2 1_555 1_555
Zn2_2 O55_2 1_555 1_555
Zn21 O1_2 1_555 1_555
C99_2 C100_2 1_555 1_555
C104_2 C103_2 1_555 1_555
H59_2 C104_2 1_555 1_555
C105_2 C100_2 1_555 1_555
H60_2 C105_2 1_555 1_555
N6_2 C103_2 1_555 1_555
O32_2 C99_2 1_555 1_555
C106_2 C107_2 1_555 1_555
C107_2 C108_2 1_555 1_555
C108_2 H61_2 1_555 1_555
C109_2 C108_2 1_555 1_555
H62_2 C109_2 1_555 1_555
C110_2 N6_2 1_555 1_555
C111_2 C110_2 1_555 1_555
H63_2 C111_2 1_555 1_555
C112_2 C107_2 1_555 1_555
H64_2 C112_2 1_555 1_555
O34_2 C106_2 1_555 1_555
O76_2 C106_2 1_555 1_555
Zn13_2 O7_2 1_555 1_555
O42_2 Zn2_2 1_555 1_555
C134_4 C135_4 1_555 1_555
C135_4 C136_4 1_555 1_555
C136_4 H77_4 1_555 1_555
C137_4 C136_4 1_555 1_555
H78_4 C137_4 1_555 1_555
C138_4 C137_4 1_555 1_555
C139_4 C138_4 1_555 1_555
H79_4 C139_4 1_555 1_555
C140_4 C135_4 1_555 1_555
H80_4 C140_4 1_555 1_555
C141_4 C142_4 1_555 1_555
C142_4 C143_4 1_555 1_555
C143_4 H81_4 1_555 1_555
C144_4 C143_4 1_555 1_555
H82_4 C144_4 1_555 1_555
C145_4 C144_4 1_555 1_555
C146_4 C145_4 1_555 1_555
H83_4 C146_4 1_555 1_555
C147_4 C142_4 1_555 1_555
H84_4 C147_4 1_555 1_555
C148_4 C149_4 1_555 1_555
C149_4 C150_4 1_555 1_555
C150_4 H85_4 1_555 1_555
C151_4 C150_4 1_555 1_555
H86_4 C151_4 1_555 1_555
C152_4 C151_4 1_555 1_555
C153_4 C152_4 1_555 1_555
H87_4 C153_4 1_555 1_555
C154_4 C149_4 1_555 1_555
H88_4 C154_4 1_555 1_555
N8_4 C138_4 1_555 1_555
O43_4 C134_4 1_555 1_555
O44_4 C134_4 1_555 1_555
O45_4 C141_4 1_555 1_555
O46_2 Zn21 1_555 1_555
O47_4 C148_4 1_555 1_555
O48_3 C148_4 1_555 1_555
Zn14_2 O1_2 1_555 1_555
Zn15_2 O47_4 1_555 1_555
C155_2 C156_2 1_555 1_555
C160_2 C159_2 1_555 1_555
H91_2 C160_2 1_555 1_555
C161_2 C156_2 1_555 1_555
H92_2 C161_2 1_555 1_555
N9_2 C159_2 1_555 1_555
O49_2 Zn13_2 1_555 1_555
C162_2 C163_2 1_555 1_555
C163_2 C164_2 1_555 1_555
C164_2 H93_2 1_555 1_555
C165_2 C164_2 1_555 1_555
H94_2 C165_2 1_555 1_555
C166_2 N9_2 1_555 1_555
C167_2 C166_2 1_555 1_555
H95_2 C167_2 1_555 1_555
C168_2 C163_2 1_555 1_555
H96_2 C168_2 1_555 1_555
O51_2 C162_2 1_555 1_555
O77_2 C162_2 1_555 1_555
O64_4 Zn14_2 1_555 1_555
O70_2 Zn11_2 1_555 1_555
O71_2 Zn15_2 1_555 1_555
O74_4 Zn15_2 1_555 1_555
O79_8 Zn11_2 1_555 1_555
O80_2 Zn15_2 1_555 1_555
Zn19_8 O43_4 1_555 1_555
Zn22 O42_2 1_555 1_555
Zn26_4 O44_4 1_555 1_555
Zn31_2 O42_2 1_555 1_555
Zn34_3 O48_3 1_555 1_555
Zn36_2 O34_2 1_555 1_555
Zn38_2 O51_2 1_555 1_555
O4_2 Zn21 1_555 1_555
O5_2 Zn14_2 1_555 1_555
O79_7 Zn13_2 1_555 1_555
C104_2 C105_2 1_555 1_555
O32_2 Zn11_2 1_555 1_555
C109_2 C110_2 1_555 1_555
C111_2 C112_2 1_555 1_555
C139_4 C140_4 1_555 1_555
C141_4 O46_2 1_555 1_555
C145_4 N8_4 1_555 1_555
C146_4 C147_4 1_555 1_555
C152_4 N8_4 1_555 1_555
C153_4 C154_4 1_555 1_555
O45_4 Zn14_2 1_555 1_555
C155_2 O49_2 1_555 1_555
C160_2 C161_2 1_555 1_555
C165_2 C166_2 1_555 1_555
C167_2 C168_2 1_555 1_555
O79_8 Zn40_8 1_555 1_555
O80_2 Zn34_3 1_555 1_555
C113_2 C114_2 1_555 1_555
C119_2 C114_2 1_555 1_555
H68_2 C119_2 1_555 1_555
O58_2 C113_2 1_555 1_555
O60 C113_2 1_555 1_555
C115_2 H65_2 1_555 1_555
C116_2 C115_2 1_555 1_555
H66_2 C116_2 1_555 1_555
C117_2 C116_2 1_555 1_555
C118_2 C117_2 1_555 1_555
H67_2 C118_2 1_555 1_555
C120_2 C121_2 1_555 1_555
C121_2 C122_2 1_555 1_555
C122_2 H69_2 1_555 1_555
C123_2 C122_2 1_555 1_555
H70_2 C123_2 1_555 1_555
C124_2 C123_2 1_555 1_555
C125_2 C124_2 1_555 1_555
H71_2 C125_2 1_555 1_555
C126_2 C121_2 1_555 1_555
H72_2 C126_2 1_555 1_555
C127_2 C128_2 1_555 1_555
C128_2 C129_2 1_555 1_555
C129_2 H73_2 1_555 1_555
C130_2 C129_2 1_555 1_555
H74_2 C130_2 1_555 1_555
C131_2 C130_2 1_555 1_555
C132_2 C131_2 1_555 1_555
H75_2 C132_2 1_555 1_555
C133_2 C128_2 1_555 1_555
H76_2 C133_2 1_555 1_555
N7_2 C117_2 1_555 1_555
O38_2 C120_2 1_555 1_555
O39_2 C120_2 1_555 1_555
O40_2 C127_2 1_555 1_555
Zn22 O38_2 1_555 1_555
C157_2 H89_2 1_555 1_555
C158_2 C157_2 1_555 1_555
H90_2 C158_2 1_555 1_555
O50_2 Zn40_8 1_555 1_555
O68_2 Zn22 1_555 1_555
Zn31_2 O39_2 1_555 1_555
C124_2 N7_2 1_555 1_555
C125_2 C126_2 1_555 1_555
C127_2 O70_2 1_555 1_555
C131_2 N7_2 1_555 1_555
C132_2 C133_2 1_555 1_555
C136_5 H77_5 1_555 1_555
C137_5 C136_5 1_555 1_555
H78_5 C137_5 1_555 1_555
C141_5 C142_5 1_555 1_555
C142_5 C143_5 1_555 1_555
C143_5 H81_5 1_555 1_555
C144_5 C143_5 1_555 1_555
H82_5 C144_5 1_555 1_555
C145_5 C144_5 1_555 1_555
C146_5 C145_5 1_555 1_555
H83_5 C146_5 1_555 1_555
C147_5 C142_5 1_555 1_555
H84_5 C147_5 1_555 1_555
O45_5 C141_5 1_555 1_555
O64_5 Zn31_2 1_555 1_555
C141_5 O68_2 1_555 1_555
C146_5 C147_5 1_555 1_555
O45_5 Zn31_2 1_555 1_555
C134_5 C135_5 1_555 1_555
C139_5 C138_5 1_555 1_555
H79_5 C139_5 1_555 1_555
C140_5 C135_5 1_555 1_555
H80_5 C140_5 1_555 1_555
C148_5 C149_5 1_555 1_555
C149_5 C150_5 1_555 1_555
C150_5 H85_5 1_555 1_555
C151_5 C150_5 1_555 1_555
H86_5 C151_5 1_555 1_555
C152_5 C151_5 1_555 1_555
C153_5 C152_5 1_555 1_555
H87_5 C153_5 1_555 1_555
C154_5 C149_5 1_555 1_555
H88_5 C154_5 1_555 1_555
N8_5 C138_5 1_555 1_555
O43_5 C134_5 1_555 1_555
O44_5 C134_5 1_555 1_555
O47_5 C148_5 1_555 1_555
O71_2 C148_5 1_555 1_555
Zn15_3 O47_5 1_555 1_555
O71_3 Zn15_3 1_555 1_555
O74_5 Zn15_3 1_555 1_555
O80_2 Zn15_3 1_555 1_555
Zn26_5 O44_5 1_555 1_555
C139_5 C140_5 1_555 1_555
C152_5 N8_5 1_555 1_555
C153_5 C154_5 1_555 1_555
C134_6 C135_6 1_555 1_555
C139_6 C138_6 1_555 1_555
H79_6 C139_6 1_555 1_555
C140_6 C135_6 1_555 1_555
H80_6 C140_6 1_555 1_555
C148_6 C149_6 1_555 1_555
C149_6 C150_6 1_555 1_555
C150_6 H85_6 1_555 1_555
C151_6 C150_6 1_555 1_555
H86_6 C151_6 1_555 1_555
C152_6 C151_6 1_555 1_555
C153_6 C152_6 1_555 1_555
H87_6 C153_6 1_555 1_555
C154_6 C149_6 1_555 1_555
H88_6 C154_6 1_555 1_555
N8_6 C138_6 1_555 1_555
O43_6 C134_6 1_555 1_555
O44_6 C134_6 1_555 1_555
O47_6 C148_6 1_555 1_555
O71_3 C148_6 1_555 1_555
Zn34_3 O47_6 1_555 1_555
O74_6 Zn34_3 1_555 1_555
Zn26_6 O44_6 1_555 1_555
C139_6 C140_6 1_555 1_555
C152_6 N8_6 1_555 1_555
C153_6 C154_6 1_555 1_555
C136_6 H77_6 1_555 1_555
C137_6 C136_6 1_555 1_555
H78_6 C137_6 1_555 1_555
C141_6 C142_6 1_555 1_555
C142_6 C143_6 1_555 1_555
C143_6 H81_6 1_555 1_555
C144_6 C143_6 1_555 1_555
H82_6 C144_6 1_555 1_555
C145_6 C144_6 1_555 1_555
C146_6 C145_6 1_555 1_555
H83_6 C146_6 1_555 1_555
C147_6 C142_6 1_555 1_555
H84_6 C147_6 1_555 1_555
O45_6 C141_6 1_555 1_555
O64_6 Zn29_2 1_555 1_555
C141_6 O67_2 1_555 1_555
C146_6 C147_6 1_555 1_555
O45_6 Zn29_2 1_555 1_555
O55_3 Zn26_3 1_555 1_555
O67_3 Zn26_3 1_555 1_555
C1_3 C2_3 1_555 1_555
C2_3 C3_3 1_555 1_555
C3_3 H1_3 1_555 1_555
C4_3 C3_3 1_555 1_555
H2_3 C4_3 1_555 1_555
C5_3 C4_3 1_555 1_555
C6_3 C5_3 1_555 1_555
H3_3 C6_3 1_555 1_555
C7_3 C2_3 1_555 1_555
H4_3 C7_3 1_555 1_555
C8_3 C9_3 1_555 1_555
C9_3 C10_3 1_555 1_555
C10_3 H5_3 1_555 1_555
C11_3 C10_3 1_555 1_555
H6_3 C11_3 1_555 1_555
C12_3 C11_3 1_555 1_555
C13_3 C12_3 1_555 1_555
H7_3 C13_3 1_555 1_555
C14_3 C9_3 1_555 1_555
H8_3 C14_3 1_555 1_555
N1_3 C5_3 1_555 1_555
O1_3 Zn2_3 1_555 1_555
O2_3 C1_3 1_555 1_555
O64_2 C1_3 1_555 1_555
O4_3 C8_3 1_555 1_555
O5_3 C8_3 1_555 1_555
Zn1_3 O2_3 1_555 1_555
Zn26_2 O1_3 1_555 1_555
C78_3 C79_3 1_555 1_555
C79_3 C80_3 1_555 1_555
C80_3 H45_3 1_555 1_555
C81_3 C80_3 1_555 1_555
H46_3 C81_3 1_555 1_555
C82_3 C81_3 1_555 1_555
C83_3 C82_3 1_555 1_555
H47_3 C83_3 1_555 1_555
C84_3 C79_3 1_555 1_555
H48_3 C84_3 1_555 1_555
C85_3 C86_3 1_555 1_555
C86_3 C87_3 1_555 1_555
C87_3 H49_3 1_555 1_555
C88_3 C87_3 1_555 1_555
H50_3 C88_3 1_555 1_555
C89_3 C88_3 1_555 1_555
C90_3 C89_3 1_555 1_555
H51_3 C90_3 1_555 1_555
C91_3 C86_3 1_555 1_555
H52_3 C91_3 1_555 1_555
C92_3 C93_3 1_555 1_555
C93_3 C94_3 1_555 1_555
C94_3 H53_3 1_555 1_555
C95_3 C94_3 1_555 1_555
H54_3 C95_3 1_555 1_555
C96_3 C95_3 1_555 1_555
C97_3 C96_3 1_555 1_555
H55_3 C97_3 1_555 1_555
C98_3 C93_3 1_555 1_555
H56_3 C98_3 1_555 1_555
N5_3 C82_3 1_555 1_555
O26_3 Zn1_3 1_555 1_555
O64_3 C78_3 1_555 1_555
O28_3 C85_3 1_555 1_555
O29_3 C85_3 1_555 1_555
O30_3 C92_3 1_555 1_555
O31_3 C92_3 1_555 1_555
Zn39_2 O30_3 1_555 1_555
C134_7 C135_7 1_555 1_555
C135_7 C136_7 1_555 1_555
C136_7 H77_7 1_555 1_555
C137_7 C136_7 1_555 1_555
H78_7 C137_7 1_555 1_555
C138_7 C137_7 1_555 1_555
C139_7 C138_7 1_555 1_555
H79_7 C139_7 1_555 1_555
C140_7 C135_7 1_555 1_555
H80_7 C140_7 1_555 1_555
C141_7 C142_7 1_555 1_555
C142_7 C143_7 1_555 1_555
C143_7 H81_7 1_555 1_555
C144_7 C143_7 1_555 1_555
H82_7 C144_7 1_555 1_555
C145_7 C144_7 1_555 1_555
C146_7 C145_7 1_555 1_555
H83_7 C146_7 1_555 1_555
C147_7 C142_7 1_555 1_555
H84_7 C147_7 1_555 1_555
N8_7 C138_7 1_555 1_555
O43_7 C134_7 1_555 1_555
O64_6 C134_7 1_555 1_555
O45_7 C141_7 1_555 1_555
O46_3 Zn26_2 1_555 1_555
Zn26_6 O1_3 1_555 1_555
O58_3 Zn1_3 1_555 1_555
O70_3 Zn39_2 1_555 1_555
Zn19_9 O43_7 1_555 1_555
Zn26_4 O29_3 1_555 1_555
Zn36_2 O31_3 1_555 1_555
C6_3 C7_3 1_555 1_555
C12_3 N1_3 1_555 1_555
C13_3 C14_3 1_555 1_555
O4_3 Zn26_2 1_555 1_555
O5_3 Zn26_6 1_555 1_555
C78_3 O26_3 1_555 1_555
C83_3 C84_3 1_555 1_555
C89_3 N5_3 1_555 1_555
C90_3 C91_3 1_555 1_555
C96_3 N5_3 1_555 1_555
C97_3 C98_3 1_555 1_555
C139_7 C140_7 1_555 1_555
C141_7 O46_3 1_555 1_555
C145_7 N8_7 1_555 1_555
C146_7 C147_7 1_555 1_555
O45_7 Zn26_6 1_555 1_555
O55_4 Zn26_4 1_555 1_555
O42_3 Zn2_4 1_555 1_555
C148_7 C149_7 1_555 1_555
C149_7 C150_7 1_555 1_555
C150_7 H85_7 1_555 1_555
C151_7 C150_7 1_555 1_555
H86_7 C151_7 1_555 1_555
C152_7 C151_7 1_555 1_555
C153_7 C152_7 1_555 1_555
C154_7 C149_7 1_555 1_555
H88_7 C154_7 1_555 1_555
O47_7 C148_7 1_555 1_555
O48_4 C148_7 1_555 1_555
Zn36 O47_7 1_555 1_555
O71_4 Zn36 1_555 1_555
Zn26_5 O42_3 1_555 1_555
Zn38 O48_4 1_555 1_555
C153_7 C154_7 1_555 1_555
C15_3 C16_3 1_555 1_555
C16_3 C17_3 1_555 1_555
C17_3 H9_3 1_555 1_555
C18_3 C17_3 1_555 1_555
H10_3 C18_3 1_555 1_555
C19_3 C18_3 1_555 1_555
C20_3 C19_3 1_555 1_555
C21_3 C16_3 1_555 1_555
H12_3 C21_3 1_555 1_555
O6_3 C15_3 1_555 1_555
O7_3 C15_3 1_555 1_555
Zn2_5 O55_3 1_555 1_555
Zn36_2 O6_3 1_555 1_555
C127_3 C128_3 1_555 1_555
C128_3 C129_3 1_555 1_555
C129_3 H73_3 1_555 1_555
C130_3 C129_3 1_555 1_555
H74_3 C130_3 1_555 1_555
C131_3 C130_3 1_555 1_555
C132_3 C131_3 1_555 1_555
C133_3 C128_3 1_555 1_555
H76_3 C133_3 1_555 1_555
O40_3 C127_3 1_555 1_555
Zn38_2 O7_3 1_555 1_555
C20_3 C21_3 1_555 1_555
C127_3 O70_3 1_555 1_555
C132_3 C133_3 1_555 1_555
O40_3 Zn38_2 1_555 1_555
Zn2_6 O55_4 1_555 1_555
C113_3 C114_3 1_555 1_555
C114_3 C115_3 1_555 1_555
C115_3 H65_3 1_555 1_555
C116_3 C115_3 1_555 1_555
H66_3 C116_3 1_555 1_555
C117_3 C116_3 1_555 1_555
C118_3 C117_3 1_555 1_555
H67_3 C118_3 1_555 1_555
C119_3 C114_3 1_555 1_555
H68_3 C119_3 1_555 1_555
C120_3 C121_3 1_555 1_555
C121_3 C122_3 1_555 1_555
C122_3 H69_3 1_555 1_555
C123_3 C122_3 1_555 1_555
H70_3 C123_3 1_555 1_555
C124_3 C123_3 1_555 1_555
C125_3 C124_3 1_555 1_555
H71_3 C125_3 1_555 1_555
C126_3 C121_3 1_555 1_555
H72_3 C126_3 1_555 1_555
N7_3 C117_3 1_555 1_555
O58_3 C113_3 1_555 1_555
O64 C113_3 1_555 1_555
O38_3 C120_3 1_555 1_555
O39_3 C120_3 1_555 1_555
O42_4 Zn2_6 1_555 1_555
Zn26 O42_4 1_555 1_555
Zn26_5 O39_3 1_555 1_555
C118_3 C119_3 1_555 1_555
C124_3 N7_3 1_555 1_555
C125_3 C126_3 1_555 1_555
O68_3 Zn26 1_555 1_555
C148_8 C149_8 1_555 1_555
C149_8 C150_8 1_555 1_555
C150_8 H85_8 1_555 1_555
C151_8 C150_8 1_555 1_555
H86_8 C151_8 1_555 1_555
C152_8 C151_8 1_555 1_555
C153_8 C152_8 1_555 1_555
C154_8 C149_8 1_555 1_555
H88_8 C154_8 1_555 1_555
O47_8 C148_8 1_555 1_555
O48_5 C148_8 1_555 1_555
Zn38 O47_8 1_555 1_555
Zn39 O48_5 1_555 1_555
C153_8 C154_8 1_555 1_555
C134_8 C135_8 1_555 1_555
C135_8 C136_8 1_555 1_555
C136_8 H77_8 1_555 1_555
C137_8 C136_8 1_555 1_555
H78_8 C137_8 1_555 1_555
C138_8 C137_8 1_555 1_555
C139_8 C138_8 1_555 1_555
H79_8 C139_8 1_555 1_555
C140_8 C135_8 1_555 1_555
H80_8 C140_8 1_555 1_555
C141_8 C142_8 1_555 1_555
C142_8 C143_8 1_555 1_555
C143_8 H81_8 1_555 1_555
C144_8 C143_8 1_555 1_555
H82_8 C144_8 1_555 1_555
C145_8 C144_8 1_555 1_555
C146_8 C145_8 1_555 1_555
H83_8 C146_8 1_555 1_555
C147_8 C142_8 1_555 1_555
H84_8 C147_8 1_555 1_555
N8_8 C138_8 1_555 1_555
O43_8 C134_8 1_555 1_555
O64_4 C134_8 1_555 1_555
O45_8 C141_8 1_555 1_555
Zn19_9 O43_8 1_555 1_555
C139_8 C140_8 1_555 1_555
C141_8 O67_3 1_555 1_555
C145_8 N8_8 1_555 1_555
C146_8 C147_8 1_555 1_555
C134_9 C135_9 1_555 1_555
C135_9 C136_9 1_555 1_555
C136_9 H77_9 1_555 1_555
C137_9 C136_9 1_555 1_555
H78_9 C137_9 1_555 1_555
C138_9 C137_9 1_555 1_555
C139_9 C138_9 1_555 1_555
H79_9 C139_9 1_555 1_555
C140_9 C135_9 1_555 1_555
H80_9 C140_9 1_555 1_555
C141_9 C142_9 1_555 1_555
C142_9 C143_9 1_555 1_555
C143_9 H81_9 1_555 1_555
C144_9 C143_9 1_555 1_555
H82_9 C144_9 1_555 1_555
C145_9 C144_9 1_555 1_555
C146_9 C145_9 1_555 1_555
H83_9 C146_9 1_555 1_555
C147_9 C142_9 1_555 1_555
H84_9 C147_9 1_555 1_555
C148_9 C149_9 1_555 1_555
C149_9 C150_9 1_555 1_555
C150_9 H85_9 1_555 1_555
C151_9 C150_9 1_555 1_555
H86_9 C151_9 1_555 1_555
C152_9 C151_9 1_555 1_555
C153_9 C152_9 1_555 1_555
H87_9 C153_9 1_555 1_555
C154_9 C149_9 1_555 1_555
H88_9 C154_9 1_555 1_555
N8_9 C138_9 1_555 1_555
O43_9 C134_9 1_555 1_555
O64_5 C134_9 1_555 1_555
O45_9 C141_9 1_555 1_555
O47_9 C148_9 1_555 1_555
O71_4 C148_9 1_555 1_555
Zn39 O47_9 1_555 1_555
Zn19_9 O43_9 1_555 1_555
C139_9 C140_9 1_555 1_555
C141_9 O68_3 1_555 1_555
C145_9 N8_9 1_555 1_555
C146_9 C147_9 1_555 1_555
C152_9 N8_9 1_555 1_555
C153_9 C154_9 1_555 1_555
O43_2 Zn19 1_555 1_555
N2_3 H97_3 1_555 1_555
C29_3 C30_3 1_555 1_555
C30_3 C31_3 1_555 1_555
C31_3 H17_3 1_555 1_555
C32_3 C31_3 1_555 1_555
C34_3 C33_3 1_555 1_555
C35_3 C30_3 1_555 1_555
H20_3 C35_3 1_555 1_555
O74_5 C29_3 1_555 1_555
O12_3 C29_3 1_555 1_555
O80_2 Zn16_3 1_555 1_555
Zn16_3 O12_3 1_555 1_555
O76_3 Zn16_3 1_555 1_555
O77_3 Zn16_3 1_555 1_555
C32_3 C33_3 1_555 1_555
C34_3 C35_3 1_555 1_555
C99_3 C100_3 1_555 1_555
C100_3 C101_3 1_555 1_555
C101_3 H57_3 1_555 1_555
C102_3 C101_3 1_555 1_555
C103_3 C102_3 1_555 1_555
C104_3 C103_3 1_555 1_555
C105_3 C100_3 1_555 1_555
H60_3 C105_3 1_555 1_555
N6_3 C103_3 1_555 1_555
O43_3 Zn19_3 1_555 1_555
O74_3 C99_3 1_555 1_555
O33_3 C99_3 1_555 1_555
Zn40_9 O33_3 1_555 1_555
C104_3 C105_3 1_555 1_555
O80 Zn40_9 1_555 1_555
N6_3 H98_3 1_555 1_555
C22_3 C23_3 1_555 1_555
C23_3 C24_3 1_555 1_555
C24_3 H13_3 1_555 1_555
C25_3 C24_3 1_555 1_555
C26_3 C25_3 1_555 1_555
C27_3 C26_3 1_555 1_555
C28_3 C23_3 1_555 1_555
H16_3 C28_3 1_555 1_555
N2_4 C26_3 1_555 1_555
O74 C22_3 1_555 1_555
O9_3 C22_3 1_555 1_555
Zn40_9 O9_3 1_555 1_555
C155_3 C156_3 1_555 1_555
C156_3 C157_3 1_555 1_555
C157_3 H89_3 1_555 1_555
C158_3 C157_3 1_555 1_555
C159_3 C158_3 1_555 1_555
C160_3 C159_3 1_555 1_555
H91_3 C160_3 1_555 1_555
C161_3 C156_3 1_555 1_555
H92_3 C161_3 1_555 1_555
N9_3 C159_3 1_555 1_555
O50_3 Zn40_9 1_555 1_555
C27_3 C28_3 1_555 1_555
C155_3 O74_2 1_555 1_555
C155_3 O50_3 1_555 1_555
C160_3 C161_3 1_555 1_555
N2_4 H97_4 1_555 1_555
N6_4 H98_4 1_555 1_555
N9_3 H99_3 1_555 1_555
C106_3 C107_3 1_555 1_555
C107_3 C108_3 1_555 1_555
C108_3 H61_3 1_555 1_555
C109_3 C108_3 1_555 1_555
C111_3 C110_3 1_555 1_555
C112_3 C107_3 1_555 1_555
H64_3 C112_3 1_555 1_555
O74_4 C106_3 1_555 1_555
O76_3 C106_3 1_555 1_555
C162_3 C163_3 1_555 1_555
C163_3 C164_3 1_555 1_555
C164_3 H93_3 1_555 1_555
C165_3 C164_3 1_555 1_555
C167_3 C166_3 1_555 1_555
H95_3 C167_3 1_555 1_555
C168_3 C163_3 1_555 1_555
H96_3 C168_3 1_555 1_555
O74_6 C162_3 1_555 1_555
O77_3 C162_3 1_555 1_555
C109_3 C110_3 1_555 1_555
C111_3 C112_3 1_555 1_555
C165_3 C166_3 1_555 1_555
C167_3 C168_3 1_555 1_555
O43_6 Zn19_5 1_555 1_555
N6_5 C33_3 1_555 1_555
O43_5 Zn19_6 1_555 1_555
N6_5 H98_5 1_555 1_555
N2_5 H97_5 1_555 1_555
N2_6 C110_3 1_555 1_555
N9_4 C166_3 1_555 1_555
N2_6 H97_6 1_555 1_555
N6_6 H98_6 1_555 1_555
N9_4 H99_4 1_555 1_555

#END
