
###############################################################################
#
# This file contains modified crystal structure data generated from the
# MOF subset of the Cambridge Structural Database (CSD) v543 
# hosted by the Cambridge Crystallographic Data Centre (CCDC).
#
# This work is licensed under the Creative Commons
# Attribution-NonCommercial-ShareAlike 4.0 International License.
# To view a copy of this license, visit
# http://creativecommons.org/licenses/by-nc-sa/4.0/
# or send a letter to
# Creative Commons, PO Box 1866, Mountain View, CA 94042, USA.
#
# CIF created using the CSD Python API on 29 September 2022
# The structure has been converted into the P1 space group
# The structure has a 3D framework
# The original CSD entry LUDVUB is in the orthorhombic crystal system
# The framework has been calculated to contain at least 10.0% void space
# The void calculation uses a probe of radius 1.32A, grid spacing 0.4
#
###############################################################################

data_LUDVUB
_chemical_formula_moiety         '(C288 H192 I48 N96 Zn29)n'
_symmetry_cell_setting           triclinic
_symmetry_space_group_name_H-M   'P 1'
_symmetry_Int_Tables_number      1
_space_group_name_Hall           'P 1'
loop_
_symmetry_equiv_pos_site_id
_symmetry_equiv_pos_as_xyz
1 x,y,z
_cell_length_a                   35.252(5)
_cell_length_b                   39.509(5)
_cell_length_c                   8.1530(11)
_cell_angle_alpha                90
_cell_angle_beta                 90
_cell_angle_gamma                90
_cell_volume                     11355.3
loop_
_atom_site_label
_atom_site_type_symbol
_atom_site_fract_x
_atom_site_fract_y
_atom_site_fract_z
Zn2 Zn 0.2500 0.2500 0.4632(3)
I3 I 0.29334(3) 0.21146(3) 0.62300(15)
N4 N 0.2176(3) 0.2267(2) 0.2818(11)
C4 C 0.1841(3) 0.2400(3) 0.2386(14)
H1 H 0.1717 0.2550 0.3124
C5 C 0.1668(3) 0.2326(3) 0.0904(13)
H2 H 0.1427 0.2421 0.0657
C7 C 0.2191(3) 0.1970(3) 0.0273(14)
C8 C 0.2354(3) 0.2047(3) 0.1754(13)
H4 H 0.2591 0.1950 0.2047
I4 I 0.20666(3) 0.28854(3) 0.62300(15)
N10 N 0.2824(3) 0.2733(2) 0.2818(11)
C22 C 0.3159(3) 0.2600(3) 0.2386(14)
H13 H 0.3283 0.2450 0.3124
C23 C 0.3332(3) 0.2674(3) 0.0904(13)
H14 H 0.3573 0.2579 0.0657
C25 C 0.2809(3) 0.3030(3) 0.0273(14)
C26 C 0.2646(3) 0.2953(3) 0.1754(13)
H16 H 0.2409 0.3050 0.2047
N1 N 0.1382(2) 0.2237(2) 0.7733(10)
N2 N 0.1392(2) 0.1955(2) 0.5145(11)
N3 N 0.1847(2) 0.1816(2) 0.7192(10)
C1 C 0.1681(3) 0.2051(2) 0.8143(12)
C2 C 0.1252(3) 0.2176(2) 0.6227(14)
C3 C 0.1699(3) 0.1779(3) 0.5734(13)
C6 C 0.1846(3) 0.2115(3) 0.9770(14)
H3 H 0.2315 0.1813 0.9567
N5 N 0.0361(2) 0.2826(2) 0.4556(11)
C9 C 0.0458(3) 0.2805(3) 0.6131(15)
H5 H 0.0319 0.2936 0.6902
C10 C 0.0745(3) 0.2605(3) 0.6697(12)
H6 H 0.0813 0.2609 0.7823
C11 C 0.0932(3) 0.2399(2) 0.5628(12)
C12 C 0.0821(3) 0.2400(3) 0.3997(15)
H7 H 0.0936 0.2249 0.3236
C13 C 0.0546(3) 0.2621(3) 0.3491(14)
H8 H 0.0482 0.2631 0.2360
N6 N 0.2260(2) 0.10859(19) 0.2563(11)
C14 C 0.1916(3) 0.1195(3) 0.2209(14)
H9 H 0.1799 0.1111 0.1243
C15 C 0.1713(3) 0.1425(3) 0.3148(12)
H10 H 0.1472 0.1506 0.2808
C16 C 0.1877(3) 0.1531(2) 0.4594(13)
C17 C 0.2239(3) 0.1418(2) 0.5003(14)
H11 H 0.2360 0.1491 0.5981
C18 C 0.2418(3) 0.1193(3) 0.3932(14)
H12 H 0.2665 0.1114 0.4203
N7 N 0.3618(2) 0.2763(2) 0.7733(10)
N8 N 0.3608(2) 0.3045(2) 0.5145(11)
N9 N 0.3153(2) 0.3184(2) 0.7192(10)
C19 C 0.3319(3) 0.2949(2) 0.8143(12)
C20 C 0.3748(3) 0.2824(2) 0.6227(14)
C21 C 0.3301(3) 0.3221(3) 0.5734(13)
C24 C 0.3154(3) 0.2885(3) 0.9770(14)
H15 H 0.2685 0.3187 0.9567
N11 N 0.4639(2) 0.2174(2) 0.4556(11)
C27 C 0.4542(3) 0.2195(3) 0.6131(15)
H17 H 0.4681 0.2064 0.6902
C28 C 0.4255(3) 0.2395(3) 0.6697(12)
H18 H 0.4187 0.2391 0.7823
C29 C 0.4068(3) 0.2601(2) 0.5628(12)
C30 C 0.4179(3) 0.2600(3) 0.3997(15)
H19 H 0.4064 0.2751 0.3236
C31 C 0.4454(3) 0.2379(3) 0.3491(14)
H20 H 0.4518 0.2369 0.2360
N12 N 0.2740(2) 0.39141(19) 0.2563(11)
C32 C 0.3084(3) 0.3805(3) 0.2209(14)
H21 H 0.3201 0.3889 0.1243
C33 C 0.3287(3) 0.3575(3) 0.3148(12)
H22 H 0.3528 0.3494 0.2808
C34 C 0.3123(3) 0.3469(2) 0.4594(13)
C35 C 0.2761(3) 0.3582(2) 0.5003(14)
H23 H 0.2640 0.3509 0.5981
C36 C 0.2582(3) 0.3807(3) 0.3932(14)
H24 H 0.2335 0.3886 0.4203
Zn3 Zn 0.50220(3) 0.18137(3) 0.37808(16)
I5 I 0.50205(3) 0.17753(2) 0.06645(12)
I6 I 0.56516(2) 0.19073(2) 0.51727(12)
N13 N 0.0240(2) 0.35859(19) 0.5063(11)
Zn4 Zn 0.25220(3) 0.06863(3) 0.12808(16)
Zn5 Zn 0.24780(3) 0.43137(3) 0.12808(16)
N14 N 0.4760(2) 0.14141(19) 0.5063(11)
Zn1 Zn 0.99780(3) 0.31863(3) 0.37808(16)
I1 I 0.99795(3) 0.32247(2) 0.06645(12)
I2 I 0.93484(2) 0.30927(2) 0.51727(12)
Zn1_2 Zn 0.00220(3) 0.68137(3) 0.37808(16)
I1_2 I 0.00205(3) 0.67753(2) 0.06645(12)
I2_2 I 0.06516(2) 0.69073(2) 0.51727(12)
N1_2 N 0.8618(2) 0.7763(2) 0.7733(10)
N2_2 N 0.8608(2) 0.8045(2) 0.5145(11)
N3_2 N 0.8153(2) 0.8184(2) 0.7192(10)
C1_2 C 0.8319(3) 0.7949(2) 0.8143(12)
C2_2 C 0.8748(3) 0.7824(2) 0.6227(14)
C3_2 C 0.8301(3) 0.8221(3) 0.5734(13)
C6_2 C 0.8154(3) 0.7885(3) 0.9770(14)
H3_2 H 0.7685 0.8187 0.9567
N5_2 N 0.9639(2) 0.7174(2) 0.4556(11)
C9_2 C 0.9542(3) 0.7195(3) 0.6131(15)
H5_2 H 0.9681 0.7064 0.6902
C10_2 C 0.9255(3) 0.7395(3) 0.6697(12)
H6_2 H 0.9187 0.7391 0.7823
C11_2 C 0.9068(3) 0.7601(2) 0.5628(12)
C12_2 C 0.9179(3) 0.7600(3) 0.3997(15)
H7_2 H 0.9064 0.7751 0.3236
C13_2 C 0.9454(3) 0.7379(3) 0.3491(14)
H8_2 H 0.9518 0.7369 0.2360
N6_2 N 0.7740(2) 0.89141(19) 0.2563(11)
C14_2 C 0.8084(3) 0.8805(3) 0.2209(14)
H9_2 H 0.8201 0.8889 0.1243
C15_2 C 0.8287(3) 0.8575(3) 0.3148(12)
H10_2 H 0.8528 0.8494 0.2808
C16_2 C 0.8123(3) 0.8469(2) 0.4594(13)
C17_2 C 0.7761(3) 0.8582(2) 0.5003(14)
H11_2 H 0.7640 0.8509 0.5981
C18_2 C 0.7582(3) 0.8807(3) 0.3932(14)
H12_2 H 0.7335 0.8886 0.4203
N7_2 N 0.6382(2) 0.7237(2) 0.7733(10)
N8_2 N 0.6392(2) 0.6955(2) 0.5145(11)
N9_2 N 0.6847(2) 0.6816(2) 0.7192(10)
C19_2 C 0.6681(3) 0.7051(2) 0.8143(12)
C20_2 C 0.6252(3) 0.7176(2) 0.6227(14)
C21_2 C 0.6699(3) 0.6779(3) 0.5734(13)
C24_2 C 0.6846(3) 0.7115(3) 0.9770(14)
H15_2 H 0.7315 0.6813 0.9567
N11_2 N 0.5361(2) 0.7826(2) 0.4556(11)
C27_2 C 0.5458(3) 0.7805(3) 0.6131(15)
H17_2 H 0.5319 0.7936 0.6902
C28_2 C 0.5745(3) 0.7605(3) 0.6697(12)
H18_2 H 0.5813 0.7609 0.7823
C29_2 C 0.5932(3) 0.7399(2) 0.5628(12)
C30_2 C 0.5821(3) 0.7400(3) 0.3997(15)
H19_2 H 0.5936 0.7249 0.3236
C31_2 C 0.5546(3) 0.7621(3) 0.3491(14)
H20_2 H 0.5482 0.7631 0.2360
N12_2 N 0.7260(2) 0.60859(19) 0.2563(11)
C32_2 C 0.6916(3) 0.6195(3) 0.2209(14)
H21_2 H 0.6799 0.6111 0.1243
C33_2 C 0.6713(3) 0.6425(3) 0.3148(12)
H22_2 H 0.6472 0.6506 0.2808
C34_2 C 0.6877(3) 0.6531(2) 0.4594(13)
C35_2 C 0.7239(3) 0.6418(2) 0.5003(14)
H23_2 H 0.7360 0.6491 0.5981
C36_2 C 0.7418(3) 0.6193(3) 0.3932(14)
H24_2 H 0.7665 0.6114 0.4203
Zn3_2 Zn 0.49780(3) 0.81863(3) 0.37808(16)
I5_2 I 0.49795(3) 0.82247(2) 0.06645(12)
I6_2 I 0.43484(2) 0.80927(2) 0.51727(12)
N13_2 N 0.9760(2) 0.64141(19) 0.5063(11)
Zn4_2 Zn 0.74780(3) 0.93137(3) 0.12808(16)
Zn5_2 Zn 0.75220(3) 0.56863(3) 0.12808(16)
N14_2 N 0.5240(2) 0.85859(19) 0.5063(11)
N2_3 N 0.3892(2) 0.0545(2) 0.7645(11)
N3_3 N 0.4347(2) 0.0684(2) 0.9692(10)
C2_3 C 0.3752(3) 0.0324(2) 0.8727(14)
C3_3 C 0.4199(3) 0.0721(3) 0.8234(13)
C11_3 C 0.3432(3) 0.0101(2) 0.8128(12)
C12_3 C 0.3321(3) 0.0100(3) 0.6497(15)
H7_3 H 0.3436 0.0251 0.5736
C14_3 C 0.4416(3) 0.1305(3) 0.4709(14)
H9_3 H 0.4299 0.1389 0.3743
C15_3 C 0.4213(3) 0.1075(3) 0.5648(12)
H10_3 H 0.3972 0.0994 0.5308
C16_3 C 0.4377(3) 0.0969(2) 0.7094(13)
C17_3 C 0.4739(3) 0.1082(2) 0.7503(14)
H11_3 H 0.4860 0.1009 0.8481
C18_3 C 0.4918(3) 0.1307(3) 0.6432(14)
H12_3 H 0.5165 0.1386 0.6703
N11_3 N 0.7139(2) 0.0326(2) 0.7056(11)
C27_3 C 0.7042(3) 0.0305(3) 0.8631(15)
H17_3 H 0.7181 0.0436 0.9402
C28_3 C 0.6755(3) 0.0105(3) 0.9197(12)
C31_3 C 0.6954(3) 0.0121(3) 0.5991(14)
H20_3 H 0.7018 0.0131 0.4860
Zn3_3 Zn 0.75220(3) 0.06863(3) 0.62808(16)
I5_3 I 0.75205(3) 0.07247(2) 0.31645(12)
I6_3 I 0.81516(2) 0.05927(2) 0.76727(12)
N14_3 N 0.7260(2) 0.10859(19) 0.7563(11)
Zn1_3 Zn 0.24780(3) 0.93137(3) 0.62808(16)
I1_3 I 0.24795(3) 0.92753(2) 0.31645(12)
I2_3 I 0.18484(2) 0.94073(2) 0.76727(12)
N5_3 N 0.2861(2) 0.9674(2) 0.7056(11)
C9_3 C 0.2958(3) 0.9695(3) 0.8631(15)
H5_3 H 0.2819 0.9564 0.9402
C10_3 C 0.3245(3) 0.9895(3) 0.9197(12)
C13_3 C 0.3046(3) 0.9879(3) 0.5991(14)
H8_3 H 0.2982 0.9869 0.4860
N8_3 N 0.6108(2) 0.9455(2) 0.7645(11)
N9_3 N 0.5653(2) 0.9316(2) 0.9692(10)
C20_3 C 0.6248(3) 0.9676(2) 0.8727(14)
C21_3 C 0.5801(3) 0.9279(3) 0.8234(13)
C29_3 C 0.6568(3) 0.9899(2) 0.8128(12)
C30_3 C 0.6679(3) 0.9900(3) 0.6497(15)
H19_3 H 0.6564 0.9749 0.5736
C32_3 C 0.5584(3) 0.8695(3) 0.4709(14)
H21_3 H 0.5701 0.8611 0.3743
C33_3 C 0.5787(3) 0.8925(3) 0.5648(12)
H22_3 H 0.6028 0.9006 0.5308
C34_3 C 0.5623(3) 0.9031(2) 0.7094(13)
C35_3 C 0.5261(3) 0.8918(2) 0.7503(14)
H23_3 H 0.5140 0.8991 0.8481
C36_3 C 0.5082(3) 0.8693(3) 0.6432(14)
H24_3 H 0.4835 0.8614 0.6703
N13_3 N 0.2740(2) 0.89141(19) 0.7563(11)
Zn1_4 Zn 0.25220(3) 0.56863(3) 0.62808(16)
I1_4 I 0.25205(3) 0.57247(2) 0.31645(12)
I2_4 I 0.31516(2) 0.55927(2) 0.76727(12)
N2_4 N 0.1108(2) 0.4455(2) 0.7645(11)
N3_4 N 0.0653(2) 0.4316(2) 0.9692(10)
C2_4 C 0.1248(3) 0.4676(2) 0.8727(14)
C3_4 C 0.0801(3) 0.4279(3) 0.8234(13)
N5_4 N 0.2139(2) 0.5326(2) 0.7056(11)
C9_4 C 0.2042(3) 0.5305(3) 0.8631(15)
H5_4 H 0.2181 0.5436 0.9402
C10_4 C 0.1755(3) 0.5105(3) 0.9197(12)
C11_4 C 0.1568(3) 0.4899(2) 0.8128(12)
C12_4 C 0.1679(3) 0.4900(3) 0.6497(15)
H7_4 H 0.1564 0.4749 0.5736
C13_4 C 0.1954(3) 0.5121(3) 0.5991(14)
H8_4 H 0.2018 0.5131 0.4860
C14_4 C 0.0584(3) 0.3695(3) 0.4709(14)
H9_4 H 0.0701 0.3611 0.3743
C15_4 C 0.0787(3) 0.3925(3) 0.5648(12)
H10_4 H 0.1028 0.4006 0.5308
C16_4 C 0.0623(3) 0.4031(2) 0.7094(13)
C17_4 C 0.0261(3) 0.3918(2) 0.7503(14)
H11_4 H 0.0140 0.3991 0.8481
C18_4 C 0.0082(3) 0.3693(3) 0.6432(14)
H24_4 H 0.0165 0.6386 0.6703
N13_4 N 0.2260(2) 0.60859(19) 0.7563(11)
H12_4 H 0.9835 0.3614 0.6703
N8_4 N 0.8892(2) 0.5545(2) 0.7645(11)
N9_4 N 0.9347(2) 0.5684(2) 0.9692(10)
C20_4 C 0.8752(3) 0.5324(2) 0.8727(14)
C21_4 C 0.9199(3) 0.5721(3) 0.8234(13)
N11_4 N 0.7861(2) 0.4674(2) 0.7056(11)
C27_4 C 0.7958(3) 0.4695(3) 0.8631(15)
H17_4 H 0.7819 0.4564 0.9402
C28_4 C 0.8245(3) 0.4895(3) 0.9197(12)
C29_4 C 0.8432(3) 0.5101(2) 0.8128(12)
C30_4 C 0.8321(3) 0.5100(3) 0.6497(15)
H19_4 H 0.8436 0.5251 0.5736
C31_4 C 0.8046(3) 0.4879(3) 0.5991(14)
H20_4 H 0.7982 0.4869 0.4860
C32_4 C 0.9416(3) 0.6305(3) 0.4709(14)
H21_4 H 0.9299 0.6389 0.3743
C33_4 C 0.9213(3) 0.6075(3) 0.5648(12)
H22_4 H 0.8972 0.5994 0.5308
C34_4 C 0.9377(3) 0.5969(2) 0.7094(13)
C35_4 C 0.9739(3) 0.6082(2) 0.7503(14)
H23_4 H 0.9860 0.6009 0.8481
C36_4 C 0.9918(3) 0.6307(3) 0.6432(14)
Zn3_4 Zn 0.74780(3) 0.43137(3) 0.62808(16)
I5_4 I 0.74795(3) 0.42753(2) 0.31645(12)
I6_4 I 0.68484(2) 0.44073(2) 0.76727(12)
N14_4 N 0.7740(2) 0.39141(19) 0.7563(11)
Zn2_2 Zn 0.2500 0.7500 0.9632(3)
N1_3 N 0.1382(2) 0.7237(2) 0.2733(10)
N2_5 N 0.1392(2) 0.6955(2) 0.0145(11)
N3_5 N 0.1847(2) 0.6816(2) 0.2192(10)
C1_3 C 0.1681(3) 0.7051(2) 0.3143(12)
C2_5 C 0.1252(3) 0.7176(2) 0.1227(14)
C3_5 C 0.1699(3) 0.6779(3) 0.0734(13)
N4_2 N 0.2176(3) 0.7267(2) 0.7818(11)
C4_2 C 0.1841(3) 0.7400(3) 0.7386(14)
H1_2 H 0.1717 0.7550 0.8124
C5_2 C 0.1668(3) 0.7326(3) 0.5904(13)
H2_2 H 0.1427 0.7421 0.5657
C6_3 C 0.1846(3) 0.7115(3) 0.4770(14)
C7_2 C 0.2191(3) 0.6970(3) 0.5273(14)
H3_3 H 0.2315 0.6813 0.4567
C8_2 C 0.2354(3) 0.7047(3) 0.6754(13)
H4_2 H 0.2591 0.6950 0.7047
C9_5 C 0.0458(3) 0.7805(3) 0.1131(15)
H5_5 H 0.0319 0.7936 0.1902
C10_5 C 0.0745(3) 0.7605(3) 0.1697(12)
H6_3 H 0.0813 0.7609 0.2823
C11_5 C 0.0932(3) 0.7399(2) 0.0628(12)
C17_5 C 0.2239(3) 0.6418(2) 0.0003(14)
H11_5 H 0.2360 0.6491 0.0981
N7_3 N 0.3618(2) 0.7763(2) 0.2733(10)
N8_5 N 0.3608(2) 0.8045(2) 0.0145(11)
N9_5 N 0.3153(2) 0.8184(2) 0.2192(10)
C19_3 C 0.3319(3) 0.7949(2) 0.3143(12)
C20_5 C 0.3748(3) 0.7824(2) 0.1227(14)
C21_5 C 0.3301(3) 0.8221(3) 0.0734(13)
N10_2 N 0.2824(3) 0.7733(2) 0.7818(11)
C22_2 C 0.3159(3) 0.7600(3) 0.7386(14)
H13_2 H 0.3283 0.7450 0.8124
C23_2 C 0.3332(3) 0.7674(3) 0.5904(13)
H14_2 H 0.3573 0.7579 0.5657
C24_3 C 0.3154(3) 0.7885(3) 0.4770(14)
C25_2 C 0.2809(3) 0.8030(3) 0.5273(14)
H15_3 H 0.2685 0.8187 0.4567
C26_2 C 0.2646(3) 0.7953(3) 0.6754(13)
H16_2 H 0.2409 0.8050 0.7047
C27_5 C 0.4542(3) 0.7195(3) 0.1131(15)
H17_5 H 0.4681 0.7064 0.1902
C28_5 C 0.4255(3) 0.7395(3) 0.1697(12)
H18_3 H 0.4187 0.7391 0.2823
C29_5 C 0.4068(3) 0.7601(2) 0.0628(12)
C35_5 C 0.2761(3) 0.8582(2) 0.0003(14)
H23_5 H 0.2640 0.8509 0.0981
I6_5 I 0.56516(2) 0.69073(2) 0.01727(12)
N13_5 N 0.0240(2) 0.85859(19) 0.0063(11)
N14_5 N 0.4760(2) 0.64141(19) 0.0063(11)
N5_5 N 0.0361(2) 0.7826(2) 0.9556(11)
C12_5 C 0.0821(3) 0.7400(3) 0.8997(15)
H7_5 H 0.0936 0.7249 0.8236
C13_5 C 0.0546(3) 0.7621(3) 0.8491(14)
H8_5 H 0.0482 0.7631 0.7360
C14_5 C 0.1916(3) 0.6195(3) 0.7209(14)
H9_5 H 0.1799 0.6111 0.6243
C15_5 C 0.1713(3) 0.6425(3) 0.8148(12)
H10_5 H 0.1472 0.6506 0.7808
C16_5 C 0.1877(3) 0.6531(2) 0.9594(13)
C18_5 C 0.2418(3) 0.6193(3) 0.8932(14)
H12_5 H 0.2665 0.6114 0.9203
N11_5 N 0.4639(2) 0.7174(2) 0.9556(11)
C30_5 C 0.4179(3) 0.7600(3) 0.8997(15)
H19_5 H 0.4064 0.7751 0.8236
C31_5 C 0.4454(3) 0.7379(3) 0.8491(14)
H20_5 H 0.4518 0.7369 0.7360
C32_5 C 0.3084(3) 0.8805(3) 0.7209(14)
H21_5 H 0.3201 0.8889 0.6243
C33_5 C 0.3287(3) 0.8575(3) 0.8148(12)
H22_5 H 0.3528 0.8494 0.7808
C34_5 C 0.3123(3) 0.8469(2) 0.9594(13)
C36_5 C 0.2582(3) 0.8807(3) 0.8932(14)
H24_5 H 0.2335 0.8886 0.9203
Zn3_5 Zn 0.50220(3) 0.68137(3) 0.87808(16)
I5_5 I 0.50205(3) 0.67753(2) 0.56645(12)
Zn2_3 Zn 0.7500 0.2500 0.9632(3)
N1_4 N 0.8618(2) 0.2763(2) 0.2733(10)
N2_6 N 0.8608(2) 0.3045(2) 0.0145(11)
N3_6 N 0.8153(2) 0.3184(2) 0.2192(10)
C1_4 C 0.8319(3) 0.2949(2) 0.3143(12)
C2_6 C 0.8748(3) 0.2824(2) 0.1227(14)
C3_6 C 0.8301(3) 0.3221(3) 0.0734(13)
N4_3 N 0.7824(3) 0.2733(2) 0.7818(11)
C4_3 C 0.8159(3) 0.2600(3) 0.7386(14)
H1_3 H 0.8283 0.2450 0.8124
C5_3 C 0.8332(3) 0.2674(3) 0.5904(13)
H2_3 H 0.8573 0.2579 0.5657
C6_4 C 0.8154(3) 0.2885(3) 0.4770(14)
C7_3 C 0.7809(3) 0.3030(3) 0.5273(14)
H3_4 H 0.7685 0.3187 0.4567
C8_3 C 0.7646(3) 0.2953(3) 0.6754(13)
H4_3 H 0.7409 0.3050 0.7047
C9_6 C 0.9542(3) 0.2195(3) 0.1131(15)
H5_6 H 0.9681 0.2064 0.1902
C10_6 C 0.9255(3) 0.2395(3) 0.1697(12)
H6_4 H 0.9187 0.2391 0.2823
C11_6 C 0.9068(3) 0.2601(2) 0.0628(12)
C17_6 C 0.7761(3) 0.3582(2) 0.0003(14)
H11_6 H 0.7640 0.3509 0.0981
N7_4 N 0.6382(2) 0.2237(2) 0.2733(10)
N8_6 N 0.6392(2) 0.1955(2) 0.0145(11)
N9_6 N 0.6847(2) 0.1816(2) 0.2192(10)
C19_4 C 0.6681(3) 0.2051(2) 0.3143(12)
C20_6 C 0.6252(3) 0.2176(2) 0.1227(14)
C21_6 C 0.6699(3) 0.1779(3) 0.0734(13)
N10_3 N 0.7176(3) 0.2267(2) 0.7818(11)
C22_3 C 0.6841(3) 0.2400(3) 0.7386(14)
H13_3 H 0.6717 0.2550 0.8124
C23_3 C 0.6668(3) 0.2326(3) 0.5904(13)
H14_3 H 0.6427 0.2421 0.5657
C24_4 C 0.6846(3) 0.2115(3) 0.4770(14)
C25_3 C 0.7191(3) 0.1970(3) 0.5273(14)
H15_4 H 0.7315 0.1813 0.4567
C26_3 C 0.7354(3) 0.2047(3) 0.6754(13)
H16_3 H 0.7591 0.1950 0.7047
C27_6 C 0.5458(3) 0.2805(3) 0.1131(15)
H17_6 H 0.5319 0.2936 0.1902
C28_6 C 0.5745(3) 0.2605(3) 0.1697(12)
H18_4 H 0.5813 0.2609 0.2823
C29_6 C 0.5932(3) 0.2399(2) 0.0628(12)
C35_6 C 0.7239(3) 0.1418(2) 0.0003(14)
H23_6 H 0.7360 0.1491 0.0981
I6_6 I 0.43484(2) 0.30927(2) 0.01727(12)
N13_6 N 0.9760(2) 0.14141(19) 0.0063(11)
N14_6 N 0.5240(2) 0.35859(19) 0.0063(11)
N5_6 N 0.9639(2) 0.2174(2) 0.9556(11)
C12_6 C 0.9179(3) 0.2600(3) 0.8997(15)
H7_6 H 0.9064 0.2751 0.8236
C13_6 C 0.9454(3) 0.2379(3) 0.8491(14)
H8_6 H 0.9518 0.2369 0.7360
C14_6 C 0.8084(3) 0.3805(3) 0.7209(14)
H9_6 H 0.8201 0.3889 0.6243
C15_6 C 0.8287(3) 0.3575(3) 0.8148(12)
H10_6 H 0.8528 0.3494 0.7808
C16_6 C 0.8123(3) 0.3469(2) 0.9594(13)
C18_6 C 0.7582(3) 0.3807(3) 0.8932(14)
H12_6 H 0.7335 0.3886 0.9203
N11_6 N 0.5361(2) 0.2826(2) 0.9556(11)
C30_6 C 0.5821(3) 0.2400(3) 0.8997(15)
H19_6 H 0.5936 0.2249 0.8236
C31_6 C 0.5546(3) 0.2621(3) 0.8491(14)
H20_6 H 0.5482 0.2631 0.7360
C32_6 C 0.6916(3) 0.1195(3) 0.7209(14)
H21_6 H 0.6799 0.1111 0.6243
C33_6 C 0.6713(3) 0.1425(3) 0.8148(12)
H22_6 H 0.6472 0.1506 0.7808
C34_6 C 0.6877(3) 0.1531(2) 0.9594(13)
C36_6 C 0.7418(3) 0.1193(3) 0.8932(14)
H24_6 H 0.7665 0.1114 0.9203
Zn3_6 Zn 0.49780(3) 0.31863(3) 0.87808(16)
I5_6 I 0.49795(3) 0.32247(2) 0.56645(12)
I2_5 I 0.18484(2) 0.44073(2) 0.26727(12)
N1_5 N 0.3882(2) 0.5263(2) 0.5233(10)
N2_7 N 0.3892(2) 0.5545(2) 0.2645(11)
N3_7 N 0.4347(2) 0.5684(2) 0.4692(10)
C1_5 C 0.4181(3) 0.5449(2) 0.5643(12)
C2_7 C 0.3752(3) 0.5324(2) 0.3727(14)
C3_7 C 0.4199(3) 0.5721(3) 0.3234(13)
C4_4 C 0.4341(3) 0.5100(3) 0.9886(14)
C5_4 C 0.4168(3) 0.5174(3) 0.8404(13)
H2_4 H 0.3927 0.5079 0.8157
C6_5 C 0.4346(3) 0.5385(3) 0.7270(14)
C7_4 C 0.4691(3) 0.5530(3) 0.7773(14)
H3_5 H 0.4815 0.5687 0.7067
C8_4 C 0.4854(3) 0.5453(3) 0.9254(13)
H4_4 H 0.5091 0.5550 0.9547
N5_7 N 0.2861(2) 0.4674(2) 0.2056(11)
C9_7 C 0.2958(3) 0.4695(3) 0.3631(15)
H5_7 H 0.2819 0.4564 0.4402
C10_7 C 0.3245(3) 0.4895(3) 0.4197(12)
H6_5 H 0.3313 0.4891 0.5323
C11_7 C 0.3432(3) 0.5101(2) 0.3128(12)
C12_7 C 0.3321(3) 0.5100(3) 0.1497(15)
H7_7 H 0.3436 0.5251 0.0736
C13_7 C 0.3046(3) 0.4879(3) 0.0991(14)
C15_7 C 0.4213(3) 0.6075(3) 0.0648(12)
H10_7 H 0.3972 0.5994 0.0308
C16_7 C 0.4377(3) 0.5969(2) 0.2094(13)
C17_7 C 0.4739(3) 0.6082(2) 0.2503(14)
H11_7 H 0.4860 0.6009 0.3481
C18_7 C 0.4918(3) 0.6307(3) 0.1432(14)
H12_7 H 0.5165 0.6386 0.1703
N7_5 N 0.6118(2) 0.4737(2) 0.5233(10)
N8_7 N 0.6108(2) 0.4455(2) 0.2645(11)
N9_7 N 0.5653(2) 0.4316(2) 0.4692(10)
C19_5 C 0.5819(3) 0.4551(2) 0.5643(12)
C20_7 C 0.6248(3) 0.4676(2) 0.3727(14)
C21_7 C 0.5801(3) 0.4279(3) 0.3234(13)
C22_4 C 0.5659(3) 0.4900(3) 0.9886(14)
C23_4 C 0.5832(3) 0.4826(3) 0.8404(13)
H14_4 H 0.6073 0.4921 0.8157
C24_5 C 0.5654(3) 0.4615(3) 0.7270(14)
C25_4 C 0.5309(3) 0.4470(3) 0.7773(14)
H15_5 H 0.5185 0.4313 0.7067
C26_4 C 0.5146(3) 0.4547(3) 0.9254(13)
H16_4 H 0.4909 0.4450 0.9547
N11_7 N 0.7139(2) 0.5326(2) 0.2056(11)
C27_7 C 0.7042(3) 0.5305(3) 0.3631(15)
H17_7 H 0.7181 0.5436 0.4402
C28_7 C 0.6755(3) 0.5105(3) 0.4197(12)
H18_5 H 0.6687 0.5109 0.5323
C29_7 C 0.6568(3) 0.4899(2) 0.3128(12)
C30_7 C 0.6679(3) 0.4900(3) 0.1497(15)
H19_7 H 0.6564 0.4749 0.0736
C31_7 C 0.6954(3) 0.5121(3) 0.0991(14)
C33_7 C 0.5787(3) 0.3925(3) 0.0648(12)
H22_7 H 0.6028 0.4006 0.0308
C34_7 C 0.5623(3) 0.4031(2) 0.2094(13)
C35_7 C 0.5261(3) 0.3918(2) 0.2503(14)
H23_7 H 0.5140 0.3991 0.3481
C36_7 C 0.5082(3) 0.3693(3) 0.1432(14)
H24_7 H 0.4835 0.3614 0.1703
I6_7 I 0.81516(2) 0.55927(2) 0.26727(12)
I1_5 I 0.24795(3) 0.42753(2) 0.81645(12)
H8_7 H 0.2982 0.4869 0.9860
C14_7 C 0.4416(3) 0.6305(3) 0.9709(14)
H9_7 H 0.4299 0.6389 0.8743
H20_7 H 0.7018 0.5131 0.9860
C32_7 C 0.5584(3) 0.3695(3) 0.9709(14)
H21_7 H 0.5701 0.3611 0.8743
I5_7 I 0.75205(3) 0.57247(2) 0.81645(12)
I2_6 I 0.31516(2) 0.05927(2) 0.26727(12)
N5_8 N 0.2139(2) 0.0326(2) 0.2056(11)
C9_8 C 0.2042(3) 0.0305(3) 0.3631(15)
H5_8 H 0.2181 0.0436 0.4402
C10_8 C 0.1755(3) 0.0105(3) 0.4197(12)
H6_6 H 0.1687 0.0109 0.5323
C13_8 C 0.1954(3) 0.0121(3) 0.0991(14)
H16_5 H 0.0091 0.0550 0.9547
H24_8 H 0.0165 0.1386 0.1703
N1_6 N 0.1118(2) 0.9737(2) 0.5233(10)
N2_8 N 0.1108(2) 0.9455(2) 0.2645(11)
N3_8 N 0.0653(2) 0.9316(2) 0.4692(10)
C1_6 C 0.0819(3) 0.9551(2) 0.5643(12)
C2_8 C 0.1248(3) 0.9676(2) 0.3727(14)
C3_8 C 0.0801(3) 0.9279(3) 0.3234(13)
C4_5 C 0.0659(3) 0.9900(3) 0.9886(14)
C5_5 C 0.0832(3) 0.9826(3) 0.8404(13)
H2_5 H 0.1073 0.9921 0.8157
C6_6 C 0.0654(3) 0.9615(3) 0.7270(14)
C7_5 C 0.0309(3) 0.9470(3) 0.7773(14)
H3_6 H 0.0185 0.9313 0.7067
C8_5 C 0.0146(3) 0.9547(3) 0.9254(13)
C11_8 C 0.1568(3) 0.9899(2) 0.3128(12)
C12_8 C 0.1679(3) 0.9900(3) 0.1497(15)
H7_8 H 0.1564 0.9749 0.0736
C15_8 C 0.0787(3) 0.8925(3) 0.0648(12)
H10_8 H 0.1028 0.9006 0.0308
C16_8 C 0.0623(3) 0.9031(2) 0.2094(13)
C17_8 C 0.0261(3) 0.8918(2) 0.2503(14)
H11_8 H 0.0140 0.8991 0.3481
C18_8 C 0.0082(3) 0.8693(3) 0.1432(14)
N7_6 N 0.8882(2) 0.0263(2) 0.5233(10)
N8_8 N 0.8892(2) 0.0545(2) 0.2645(11)
N9_8 N 0.9347(2) 0.0684(2) 0.4692(10)
C19_6 C 0.9181(3) 0.0449(2) 0.5643(12)
C20_8 C 0.8752(3) 0.0324(2) 0.3727(14)
C21_8 C 0.9199(3) 0.0721(3) 0.3234(13)
C22_5 C 0.9341(3) 0.0100(3) 0.9886(14)
C23_5 C 0.9168(3) 0.0174(3) 0.8404(13)
H14_5 H 0.8927 0.0079 0.8157
C24_6 C 0.9346(3) 0.0385(3) 0.7270(14)
C25_5 C 0.9691(3) 0.0530(3) 0.7773(14)
H15_6 H 0.9815 0.0687 0.7067
C26_5 C 0.9854(3) 0.0453(3) 0.9254(13)
C29_8 C 0.8432(3) 0.0101(2) 0.3128(12)
C30_8 C 0.8321(3) 0.0100(3) 0.1497(15)
H19_8 H 0.8436 0.0251 0.0736
C33_8 C 0.9213(3) 0.1075(3) 0.0648(12)
H22_8 H 0.8972 0.0994 0.0308
C34_8 C 0.9377(3) 0.0969(2) 0.2094(13)
C35_8 C 0.9739(3) 0.1082(2) 0.2503(14)
H23_8 H 0.9860 0.1009 0.3481
C36_8 C 0.9918(3) 0.1307(3) 0.1432(14)
H4_5 H 0.9909 0.9450 0.9547
H12_8 H 0.9835 0.8614 0.1703
N11_8 N 0.7861(2) 0.9674(2) 0.2056(11)
C27_8 C 0.7958(3) 0.9695(3) 0.3631(15)
H17_8 H 0.7819 0.9564 0.4402
C28_8 C 0.8245(3) 0.9895(3) 0.4197(12)
H18_6 H 0.8313 0.9891 0.5323
C31_8 C 0.8046(3) 0.9879(3) 0.0991(14)
I6_8 I 0.68484(2) 0.94073(2) 0.26727(12)
Zn2_4 Zn 0.7500 0.7500 0.4632(3)
I3_2 I 0.70666(3) 0.78854(3) 0.62300(15)
N4_4 N 0.7824(3) 0.7733(2) 0.2818(11)
C4_6 C 0.8159(3) 0.7600(3) 0.2386(14)
H1_4 H 0.8283 0.7450 0.3124
C5_6 C 0.8332(3) 0.7674(3) 0.0904(13)
H2_6 H 0.8573 0.7579 0.0657
C7_6 C 0.7809(3) 0.8030(3) 0.0273(14)
C8_6 C 0.7646(3) 0.7953(3) 0.1754(13)
H4_6 H 0.7409 0.8050 0.2047
I4_2 I 0.79334(3) 0.71146(3) 0.62300(15)
N10_4 N 0.7176(3) 0.7267(2) 0.2818(11)
C22_6 C 0.6841(3) 0.7400(3) 0.2386(14)
H13_4 H 0.6717 0.7550 0.3124
C23_6 C 0.6668(3) 0.7326(3) 0.0904(13)
H14_6 H 0.6427 0.7421 0.0657
C25_6 C 0.7191(3) 0.6970(3) 0.0273(14)
C26_6 C 0.7354(3) 0.7047(3) 0.1754(13)
H16_6 H 0.7591 0.6950 0.2047
Zn2_5 Zn 0.5000 0.0000 0.7132(3)
I3_3 I 0.54334(3) 0.03854(3) 0.87300(15)
N1_7 N 0.3882(2) 0.0263(2) 0.0233(10)
C1_7 C 0.4181(3) 0.0449(2) 0.0643(12)
N4_5 N 0.4676(3) 0.0233(2) 0.5318(11)
C4_7 C 0.4341(3) 0.0100(3) 0.4886(14)
C5_7 C 0.4168(3) 0.0174(3) 0.3404(13)
H2_7 H 0.3927 0.0079 0.3157
C6_7 C 0.4346(3) 0.0385(3) 0.2270(14)
C7_7 C 0.4691(3) 0.0530(3) 0.2773(14)
H3_7 H 0.4815 0.0687 0.2067
C8_7 C 0.4854(3) 0.0453(3) 0.4254(13)
H4_7 H 0.5091 0.0550 0.4547
H13_5 H 0.5783 0.0050 0.5624
H18_7 H 0.6687 0.0109 0.0323
Zn2_6 Zn 0.5000 1.0000 0.7132(3)
H1_5 H 0.4217 0.9950 0.5624
H6_7 H 0.3313 0.9891 0.0323
I4_3 I 0.45666(3) 0.96146(3) 0.87300(15)
N7_7 N 0.6118(2) 0.9737(2) 0.0233(10)
C19_7 C 0.5819(3) 0.9551(2) 0.0643(12)
N10_5 N 0.5324(3) 0.9767(2) 0.5318(11)
C22_7 C 0.5659(3) 0.9900(3) 0.4886(14)
C23_7 C 0.5832(3) 0.9826(3) 0.3404(13)
H14_7 H 0.6073 0.9921 0.3157
C24_7 C 0.5654(3) 0.9615(3) 0.2270(14)
C25_7 C 0.5309(3) 0.9470(3) 0.2773(14)
H15_7 H 0.5185 0.9313 0.2067
C26_7 C 0.5146(3) 0.9547(3) 0.4254(13)
H16_7 H 0.4909 0.9450 0.4547
Zn2_7 Zn 0.0000 0.5000 0.7132(3)
N1_8 N 0.1118(2) 0.4737(2) 0.0233(10)
C1_8 C 0.0819(3) 0.4551(2) 0.0643(12)
N4_6 N 0.0324(3) 0.4767(2) 0.5318(11)
C4_8 C 0.0659(3) 0.4900(3) 0.4886(14)
H1_6 H 0.0783 0.5050 0.5624
C5_8 C 0.0832(3) 0.4826(3) 0.3404(13)
H2_8 H 0.1073 0.4921 0.3157
C6_8 C 0.0654(3) 0.4615(3) 0.2270(14)
C7_8 C 0.0309(3) 0.4470(3) 0.2773(14)
H3_8 H 0.0185 0.4313 0.2067
C8_8 C 0.0146(3) 0.4547(3) 0.4254(13)
H6_8 H 0.1687 0.5109 0.0323
I4_4 I 0.04334(3) 0.53854(3) 0.87300(15)
H16_8 H 0.0091 0.5550 0.4547
Zn2_8 Zn 1.0000 0.5000 0.7132(3)
I3_4 I 0.95666(3) 0.46146(3) 0.87300(15)
H4_8 H 0.9909 0.4450 0.4547
N7_8 N 0.8882(2) 0.5263(2) 0.0233(10)
C19_8 C 0.9181(3) 0.5449(2) 0.0643(12)
N10_6 N 0.9676(3) 0.5233(2) 0.5318(11)
C22_8 C 0.9341(3) 0.5100(3) 0.4886(14)
H13_6 H 0.9217 0.4950 0.5624
C23_8 C 0.9168(3) 0.5174(3) 0.3404(13)
H14_8 H 0.8927 0.5079 0.3157
C24_8 C 0.9346(3) 0.5385(3) 0.2270(14)
C25_8 C 0.9691(3) 0.5530(3) 0.2773(14)
H15_8 H 0.9815 0.5687 0.2067
C26_8 C 0.9854(3) 0.5453(3) 0.4254(13)
H18_8 H 0.8313 0.4891 0.0323
I3_5 I 0.29334(3) 0.71146(3) 0.12300(15)
I4_5 I 0.20666(3) 0.78854(3) 0.12300(15)
I2_7 I 0.93484(2) 0.80927(2) 0.01727(12)
Zn1_5 Zn 0.99780(3) 0.81863(3) 0.87808(16)
I1_6 I 0.99795(3) 0.82247(2) 0.56645(12)
H20_8 H 0.7982 0.9869 0.9860
I5_8 I 0.74795(3) 0.92753(2) 0.81645(12)
I2_8 I 0.06516(2) 0.19073(2) 0.01727(12)
Zn1_6 Zn 0.00220(3) 0.18137(3) 0.87808(16)
I1_7 I 0.00205(3) 0.17753(2) 0.56645(12)
I1_8 I 0.25205(3) 0.07247(2) 0.81645(12)
H8_8 H 0.2018 0.0131 0.9860
I3_6 I 0.70666(3) 0.28854(3) 0.12300(15)
I4_6 I 0.79334(3) 0.21146(3) 0.12300(15)
Zn2_9 Zn 0.5000 0.5000 0.2132(3)
I3_7 I 0.54334(3) 0.53854(3) 0.37300(15)
N4_7 N 0.4676(3) 0.5233(2) 0.0318(11)
H1_7 H 0.4217 0.4950 0.0624
I4_7 I 0.45666(3) 0.46146(3) 0.37300(15)
N10_7 N 0.5324(3) 0.4767(2) 0.0318(11)
H13_7 H 0.5783 0.5050 0.0624
Zn2_10 Zn 0.0000 -0.0000 0.2132(3)
H1_8 H 0.0783 0.0050 0.0624
I4_8 I 0.04334(3) 0.03854(3) 0.37300(15)
Zn2_11 Zn 0.0000 1.0000 0.2132(3)
N4_8 N 0.0324(3) 0.9767(2) 0.0318(11)
C14_8 C 0.0584(3) 0.8695(3) 0.9709(14)
H9_8 H 0.0701 0.8611 0.8743
Zn2_12 Zn 1.0000 -0.0000 0.2132(3)
N10_8 N 0.9676(3) 0.0233(2) 0.0318(11)
C32_8 C 0.9416(3) 0.1305(3) 0.9709(14)
H21_8 H 0.9299 0.1389 0.8743
Zn2_13 Zn 1.0000 1.0000 0.2132(3)
I3_8 I 0.95666(3) 0.96146(3) 0.37300(15)
H13_8 H 0.9217 0.9950 0.0624
loop_
_geom_bond_atom_site_label_1
_geom_bond_atom_site_label_2
_geom_bond_site_symmetry_1
_geom_bond_site_symmetry_2
Zn2 I3 1_555 1_555
N4 Zn2 1_555 1_555
C4 N4 1_555 1_555
H1 C4 1_555 1_555
C5 C4 1_555 1_555
H2 C5 1_555 1_555
C8 N4 1_555 1_555
H4 C8 1_555 1_555
I4 Zn2 1_555 1_555
N10 Zn2 1_555 1_555
C22 N10 1_555 1_555
H13 C22 1_555 1_555
C23 C22 1_555 1_555
H14 C23 1_555 1_555
C26 N10 1_555 1_555
H16 C26 1_555 1_555
C7 C8 1_555 1_555
C25 C26 1_555 1_555
N1 C1 1_555 1_555
N2 C2 1_555 1_555
N3 C1 1_555 1_555
C1 C6 1_555 1_555
C2 N1 1_555 1_555
C3 N2 1_555 1_555
C9 N5 1_555 1_555
H5 C9 1_555 1_555
C10 C9 1_555 1_555
H6 C10 1_555 1_555
C11 C2 1_555 1_555
C12 C11 1_555 1_555
H7 C12 1_555 1_555
C13 N5 1_555 1_555
H8 C13 1_555 1_555
N6 C14 1_555 1_555
C14 H9 1_555 1_555
C15 C14 1_555 1_555
H10 C15 1_555 1_555
C16 C3 1_555 1_555
C17 C16 1_555 1_555
H11 C17 1_555 1_555
C18 N6 1_555 1_555
H12 C18 1_555 1_555
N7 C19 1_555 1_555
N8 C20 1_555 1_555
N9 C19 1_555 1_555
C19 C24 1_555 1_555
C20 N7 1_555 1_555
C21 N8 1_555 1_555
N11 C27 1_555 1_555
C27 H17 1_555 1_555
C28 C27 1_555 1_555
H18 C28 1_555 1_555
C29 C20 1_555 1_555
C30 C29 1_555 1_555
H19 C30 1_555 1_555
C31 N11 1_555 1_555
H20 C31 1_555 1_555
N12 C32 1_555 1_555
C32 H21 1_555 1_555
C33 C32 1_555 1_555
H22 C33 1_555 1_555
C34 C21 1_555 1_555
C35 C34 1_555 1_555
H23 C35 1_555 1_555
C36 N12 1_555 1_555
H24 C36 1_555 1_555
Zn3 N11 1_555 1_555
I5 Zn3 1_555 1_555
I6 Zn3 1_555 1_555
Zn4 N6 1_555 1_555
Zn5 N12 1_555 1_555
N14 Zn3 1_555 1_555
N3 C3 1_555 1_555
C10 C11 1_555 1_555
C12 C13 1_555 1_555
C15 C16 1_555 1_555
C17 C18 1_555 1_555
N9 C21 1_555 1_555
C28 C29 1_555 1_555
C30 C31 1_555 1_555
C33 C34 1_555 1_555
C35 C36 1_555 1_555
Zn1 I1 1_555 1_555
I2 Zn1 1_555 1_555
Zn1_2 I1_2 1_555 1_555
I2_2 Zn1_2 1_555 1_555
N1_2 C1_2 1_555 1_555
N2_2 C2_2 1_555 1_555
N3_2 C1_2 1_555 1_555
C1_2 C6_2 1_555 1_555
C2_2 N1_2 1_555 1_555
C3_2 N2_2 1_555 1_555
C9_2 N5_2 1_555 1_555
H5_2 C9_2 1_555 1_555
C10_2 C9_2 1_555 1_555
H6_2 C10_2 1_555 1_555
C11_2 C2_2 1_555 1_555
C12_2 C11_2 1_555 1_555
H7_2 C12_2 1_555 1_555
C13_2 N5_2 1_555 1_555
H8_2 C13_2 1_555 1_555
N6_2 C14_2 1_555 1_555
C14_2 H9_2 1_555 1_555
C15_2 C14_2 1_555 1_555
H10_2 C15_2 1_555 1_555
C16_2 C3_2 1_555 1_555
C17_2 C16_2 1_555 1_555
H11_2 C17_2 1_555 1_555
C18_2 N6_2 1_555 1_555
H12_2 C18_2 1_555 1_555
N7_2 C19_2 1_555 1_555
N8_2 C20_2 1_555 1_555
N9_2 C19_2 1_555 1_555
C19_2 C24_2 1_555 1_555
C20_2 N7_2 1_555 1_555
C21_2 N8_2 1_555 1_555
N11_2 C27_2 1_555 1_555
C27_2 H17_2 1_555 1_555
C28_2 C27_2 1_555 1_555
H18_2 C28_2 1_555 1_555
C29_2 C20_2 1_555 1_555
C30_2 C29_2 1_555 1_555
H19_2 C30_2 1_555 1_555
C31_2 N11_2 1_555 1_555
H20_2 C31_2 1_555 1_555
N12_2 C32_2 1_555 1_555
C32_2 H21_2 1_555 1_555
C33_2 C32_2 1_555 1_555
H22_2 C33_2 1_555 1_555
C34_2 C21_2 1_555 1_555
C35_2 C34_2 1_555 1_555
H23_2 C35_2 1_555 1_555
C36_2 N12_2 1_555 1_555
H24_2 C36_2 1_555 1_555
Zn3_2 N11_2 1_555 1_555
I5_2 Zn3_2 1_555 1_555
I6_2 Zn3_2 1_555 1_555
Zn4_2 N6_2 1_555 1_555
Zn5_2 N12_2 1_555 1_555
N14_2 Zn3_2 1_555 1_555
N3_2 C3_2 1_555 1_555
C10_2 C11_2 1_555 1_555
C12_2 C13_2 1_555 1_555
C15_2 C16_2 1_555 1_555
C17_2 C18_2 1_555 1_555
N9_2 C21_2 1_555 1_555
C28_2 C29_2 1_555 1_555
C30_2 C31_2 1_555 1_555
C33_2 C34_2 1_555 1_555
C35_2 C36_2 1_555 1_555
N2_3 C2_3 1_555 1_555
C3_3 N2_3 1_555 1_555
C11_3 C2_3 1_555 1_555
C12_3 C11_3 1_555 1_555
H7_3 C12_3 1_555 1_555
N14 C14_3 1_555 1_555
C14_3 H9_3 1_555 1_555
C15_3 C14_3 1_555 1_555
H10_3 C15_3 1_555 1_555
C16_3 C3_3 1_555 1_555
C17_3 C16_3 1_555 1_555
H11_3 C17_3 1_555 1_555
C18_3 N14 1_555 1_555
H12_3 C18_3 1_555 1_555
N11_3 C27_3 1_555 1_555
C27_3 H17_3 1_555 1_555
C28_3 C27_3 1_555 1_555
C31_3 N11_3 1_555 1_555
H20_3 C31_3 1_555 1_555
Zn3_3 N11_3 1_555 1_555
I5_3 Zn3_3 1_555 1_555
I6_3 Zn3_3 1_555 1_555
N14_3 Zn3_3 1_555 1_555
N3_3 C3_3 1_555 1_555
C15_3 C16_3 1_555 1_555
C17_3 C18_3 1_555 1_555
Zn1_3 I1_3 1_555 1_555
I2_3 Zn1_3 1_555 1_555
N5_3 Zn1_3 1_555 1_555
C9_3 N5_3 1_555 1_555
H5_3 C9_3 1_555 1_555
C10_3 C9_3 1_555 1_555
C13_3 N5_3 1_555 1_555
H8_3 C13_3 1_555 1_555
N8_3 C20_3 1_555 1_555
C21_3 N8_3 1_555 1_555
C29_3 C20_3 1_555 1_555
C30_3 C29_3 1_555 1_555
H19_3 C30_3 1_555 1_555
N14_2 C32_3 1_555 1_555
C32_3 H21_3 1_555 1_555
C33_3 C32_3 1_555 1_555
H22_3 C33_3 1_555 1_555
C34_3 C21_3 1_555 1_555
C35_3 C34_3 1_555 1_555
H23_3 C35_3 1_555 1_555
C36_3 N14_2 1_555 1_555
H24_3 C36_3 1_555 1_555
N13_3 Zn1_3 1_555 1_555
N9_3 C21_3 1_555 1_555
C33_3 C34_3 1_555 1_555
C35_3 C36_3 1_555 1_555
Zn1_4 I1_4 1_555 1_555
I2_4 Zn1_4 1_555 1_555
N2_4 C2_4 1_555 1_555
C3_4 N2_4 1_555 1_555
N5_4 Zn1_4 1_555 1_555
C9_4 N5_4 1_555 1_555
H5_4 C9_4 1_555 1_555
C10_4 C9_4 1_555 1_555
C11_4 C2_4 1_555 1_555
C12_4 C11_4 1_555 1_555
H7_4 C12_4 1_555 1_555
C13_4 N5_4 1_555 1_555
H8_4 C13_4 1_555 1_555
N13 C14_4 1_555 1_555
C14_4 H9_4 1_555 1_555
C15_4 C14_4 1_555 1_555
H10_4 C15_4 1_555 1_555
C16_4 C3_4 1_555 1_555
C17_4 C16_4 1_555 1_555
H11_4 C17_4 1_555 1_555
C18_4 N13 1_555 1_555
N13_4 Zn1_4 1_555 1_555
N3_4 C3_4 1_555 1_555
C10_4 C11_4 1_555 1_555
C12_4 C13_4 1_555 1_555
C15_4 C16_4 1_555 1_555
C17_4 C18_4 1_555 1_555
N8_4 C20_4 1_555 1_555
C21_4 N8_4 1_555 1_555
N11_4 C27_4 1_555 1_555
C27_4 H17_4 1_555 1_555
C28_4 C27_4 1_555 1_555
C29_4 C20_4 1_555 1_555
C30_4 C29_4 1_555 1_555
H19_4 C30_4 1_555 1_555
C31_4 N11_4 1_555 1_555
H20_4 C31_4 1_555 1_555
N13_2 C32_4 1_555 1_555
C32_4 H21_4 1_555 1_555
C33_4 C32_4 1_555 1_555
H22_4 C33_4 1_555 1_555
C34_4 C21_4 1_555 1_555
C35_4 C34_4 1_555 1_555
H23_4 C35_4 1_555 1_555
C36_4 N13_2 1_555 1_555
Zn3_4 N11_4 1_555 1_555
I5_4 Zn3_4 1_555 1_555
I6_4 Zn3_4 1_555 1_555
N14_4 Zn3_4 1_555 1_555
N9_4 C21_4 1_555 1_555
C28_4 C29_4 1_555 1_555
C30_4 C31_4 1_555 1_555
C33_4 C34_4 1_555 1_555
C35_4 C36_4 1_555 1_555
N1_3 C1_3 1_555 1_555
N2_5 C2_5 1_555 1_555
N3_5 C1_3 1_555 1_555
C1_3 C6_3 1_555 1_555
C2_5 N1_3 1_555 1_555
C3_5 N2_5 1_555 1_555
N4_2 Zn2_2 1_555 1_555
C4_2 N4_2 1_555 1_555
H1_2 C4_2 1_555 1_555
C5_2 C4_2 1_555 1_555
H2_2 C5_2 1_555 1_555
C6_3 C5_2 1_555 1_555
C7_2 C6_3 1_555 1_555
H3_3 C7_2 1_555 1_555
C8_2 N4_2 1_555 1_555
H4_2 C8_2 1_555 1_555
H5_5 C9_5 1_555 1_555
C10_5 C9_5 1_555 1_555
H6_3 C10_5 1_555 1_555
C11_5 C2_5 1_555 1_555
H11_5 C17_5 1_555 1_555
N7_3 C19_3 1_555 1_555
N8_5 C20_5 1_555 1_555
N9_5 C19_3 1_555 1_555
C19_3 C24_3 1_555 1_555
C20_5 N7_3 1_555 1_555
C21_5 N8_5 1_555 1_555
N10_2 Zn2_2 1_555 1_555
C22_2 N10_2 1_555 1_555
H13_2 C22_2 1_555 1_555
C23_2 C22_2 1_555 1_555
H14_2 C23_2 1_555 1_555
C24_3 C23_2 1_555 1_555
C25_2 C24_3 1_555 1_555
H15_3 C25_2 1_555 1_555
C26_2 N10_2 1_555 1_555
H16_2 C26_2 1_555 1_555
C27_5 H17_5 1_555 1_555
C28_5 C27_5 1_555 1_555
H18_3 C28_5 1_555 1_555
C29_5 C20_5 1_555 1_555
H23_5 C35_5 1_555 1_555
N3_5 C3_5 1_555 1_555
C7_2 C8_2 1_555 1_555
C10_5 C11_5 1_555 1_555
N9_5 C21_5 1_555 1_555
C25_2 C26_2 1_555 1_555
C28_5 C29_5 1_555 1_555
H7_5 C12_5 1_555 1_555
C13_5 N5_5 1_555 1_555
H8_5 C13_5 1_555 1_555
N13_4 C14_5 1_555 1_555
C14_5 H9_5 1_555 1_555
C15_5 C14_5 1_555 1_555
H10_5 C15_5 1_555 1_555
C18_5 N13_4 1_555 1_555
H12_5 C18_5 1_555 1_555
H19_5 C30_5 1_555 1_555
C31_5 N11_5 1_555 1_555
H20_5 C31_5 1_555 1_555
N13_3 C32_5 1_555 1_555
C32_5 H21_5 1_555 1_555
C33_5 C32_5 1_555 1_555
H22_5 C33_5 1_555 1_555
C36_5 N13_3 1_555 1_555
H24_5 C36_5 1_555 1_555
Zn3_5 N11_5 1_555 1_555
I5_5 Zn3_5 1_555 1_555
C12_5 C13_5 1_555 1_555
C15_5 C16_5 1_555 1_555
C30_5 C31_5 1_555 1_555
C33_5 C34_5 1_555 1_555
N1_4 C1_4 1_555 1_555
N2_6 C2_6 1_555 1_555
N3_6 C1_4 1_555 1_555
C1_4 C6_4 1_555 1_555
C2_6 N1_4 1_555 1_555
C3_6 N2_6 1_555 1_555
N4_3 Zn2_3 1_555 1_555
C4_3 N4_3 1_555 1_555
H1_3 C4_3 1_555 1_555
C5_3 C4_3 1_555 1_555
H2_3 C5_3 1_555 1_555
C6_4 C5_3 1_555 1_555
C7_3 C6_4 1_555 1_555
H3_4 C7_3 1_555 1_555
C8_3 N4_3 1_555 1_555
H4_3 C8_3 1_555 1_555
H5_6 C9_6 1_555 1_555
C10_6 C9_6 1_555 1_555
H6_4 C10_6 1_555 1_555
C11_6 C2_6 1_555 1_555
H11_6 C17_6 1_555 1_555
N7_4 C19_4 1_555 1_555
N8_6 C20_6 1_555 1_555
N9_6 C19_4 1_555 1_555
C19_4 C24_4 1_555 1_555
C20_6 N7_4 1_555 1_555
C21_6 N8_6 1_555 1_555
N10_3 Zn2_3 1_555 1_555
C22_3 N10_3 1_555 1_555
H13_3 C22_3 1_555 1_555
C23_3 C22_3 1_555 1_555
H14_3 C23_3 1_555 1_555
C24_4 C23_3 1_555 1_555
C25_3 C24_4 1_555 1_555
H15_4 C25_3 1_555 1_555
C26_3 N10_3 1_555 1_555
H16_3 C26_3 1_555 1_555
C27_6 H17_6 1_555 1_555
C28_6 C27_6 1_555 1_555
H18_4 C28_6 1_555 1_555
C29_6 C20_6 1_555 1_555
H23_6 C35_6 1_555 1_555
N3_6 C3_6 1_555 1_555
C7_3 C8_3 1_555 1_555
C10_6 C11_6 1_555 1_555
N9_6 C21_6 1_555 1_555
C25_3 C26_3 1_555 1_555
C28_6 C29_6 1_555 1_555
H7_6 C12_6 1_555 1_555
C13_6 N5_6 1_555 1_555
H8_6 C13_6 1_555 1_555
N14_4 C14_6 1_555 1_555
C14_6 H9_6 1_555 1_555
C15_6 C14_6 1_555 1_555
H10_6 C15_6 1_555 1_555
C18_6 N14_4 1_555 1_555
H12_6 C18_6 1_555 1_555
H19_6 C30_6 1_555 1_555
C31_6 N11_6 1_555 1_555
H20_6 C31_6 1_555 1_555
N14_3 C32_6 1_555 1_555
C32_6 H21_6 1_555 1_555
C33_6 C32_6 1_555 1_555
H22_6 C33_6 1_555 1_555
C36_6 N14_3 1_555 1_555
H24_6 C36_6 1_555 1_555
Zn3_6 N11_6 1_555 1_555
I5_6 Zn3_6 1_555 1_555
C12_6 C13_6 1_555 1_555
C15_6 C16_6 1_555 1_555
C30_6 C31_6 1_555 1_555
C33_6 C34_6 1_555 1_555
I2_5 Zn5 1_555 1_555
N1_5 C1_5 1_555 1_555
N2_7 C2_7 1_555 1_555
N3_7 C1_5 1_555 1_555
C1_5 C6_5 1_555 1_555
C2_7 N1_5 1_555 1_555
C3_7 N2_7 1_555 1_555
C5_4 C4_4 1_555 1_555
H2_4 C5_4 1_555 1_555
C6_5 C5_4 1_555 1_555
C7_4 C6_5 1_555 1_555
H3_5 C7_4 1_555 1_555
H4_4 C8_4 1_555 1_555
N5_7 Zn5 1_555 1_555
C9_7 N5_7 1_555 1_555
H5_7 C9_7 1_555 1_555
C10_7 C9_7 1_555 1_555
H6_5 C10_7 1_555 1_555
C11_7 C2_7 1_555 1_555
C12_7 C11_7 1_555 1_555
H7_7 C12_7 1_555 1_555
C13_7 N5_7 1_555 1_555
H10_7 C15_7 1_555 1_555
C16_7 C3_7 1_555 1_555
C17_7 C16_7 1_555 1_555
H11_7 C17_7 1_555 1_555
C18_7 N14_5 1_555 1_555
H12_7 C18_7 1_555 1_555
N7_5 C19_5 1_555 1_555
N8_7 C20_7 1_555 1_555
N9_7 C19_5 1_555 1_555
C19_5 C24_5 1_555 1_555
C20_7 N7_5 1_555 1_555
C21_7 N8_7 1_555 1_555
C23_4 C22_4 1_555 1_555
H14_4 C23_4 1_555 1_555
C24_5 C23_4 1_555 1_555
C25_4 C24_5 1_555 1_555
H15_5 C25_4 1_555 1_555
H16_4 C26_4 1_555 1_555
N11_7 C27_7 1_555 1_555
C27_7 H17_7 1_555 1_555
C28_7 C27_7 1_555 1_555
H18_5 C28_7 1_555 1_555
C29_7 C20_7 1_555 1_555
C30_7 C29_7 1_555 1_555
H19_7 C30_7 1_555 1_555
C31_7 N11_7 1_555 1_555
H22_7 C33_7 1_555 1_555
C34_7 C21_7 1_555 1_555
C35_7 C34_7 1_555 1_555
H23_7 C35_7 1_555 1_555
C36_7 N14_6 1_555 1_555
H24_7 C36_7 1_555 1_555
Zn5_2 N11_7 1_555 1_555
I6_7 Zn5_2 1_555 1_555
N3_7 C3_7 1_555 1_555
C7_4 C8_4 1_555 1_555
C10_7 C11_7 1_555 1_555
C12_7 C13_7 1_555 1_555
C15_7 C16_7 1_555 1_555
C17_7 C18_7 1_555 1_555
N9_7 C21_7 1_555 1_555
C25_4 C26_4 1_555 1_555
C28_7 C29_7 1_555 1_555
C30_7 C31_7 1_555 1_555
C33_7 C34_7 1_555 1_555
C35_7 C36_7 1_555 1_555
C14_7 H9_7 1_555 1_555
C32_7 H21_7 1_555 1_555
I2_6 Zn4 1_555 1_555
N5_8 Zn4 1_555 1_555
C9_8 N5_8 1_555 1_555
H5_8 C9_8 1_555 1_555
C10_8 C9_8 1_555 1_555
H6_6 C10_8 1_555 1_555
C13_8 N5_8 1_555 1_555
N1_6 C1_6 1_555 1_555
N2_8 C2_8 1_555 1_555
N3_8 C1_6 1_555 1_555
C1_6 C6_6 1_555 1_555
C2_8 N1_6 1_555 1_555
C3_8 N2_8 1_555 1_555
C5_5 C4_5 1_555 1_555
H2_5 C5_5 1_555 1_555
C6_6 C5_5 1_555 1_555
C7_5 C6_6 1_555 1_555
H3_6 C7_5 1_555 1_555
C11_8 C2_8 1_555 1_555
C12_8 C11_8 1_555 1_555
H7_8 C12_8 1_555 1_555
H10_8 C15_8 1_555 1_555
C16_8 C3_8 1_555 1_555
C17_8 C16_8 1_555 1_555
H11_8 C17_8 1_555 1_555
C18_8 N13_5 1_555 1_555
N3_8 C3_8 1_555 1_555
C7_5 C8_5 1_555 1_555
C15_8 C16_8 1_555 1_555
C17_8 C18_8 1_555 1_555
N7_6 C19_6 1_555 1_555
N8_8 C20_8 1_555 1_555
N9_8 C19_6 1_555 1_555
C19_6 C24_6 1_555 1_555
C20_8 N7_6 1_555 1_555
C21_8 N8_8 1_555 1_555
C23_5 C22_5 1_555 1_555
H14_5 C23_5 1_555 1_555
C24_6 C23_5 1_555 1_555
C25_5 C24_6 1_555 1_555
H15_6 C25_5 1_555 1_555
C29_8 C20_8 1_555 1_555
C30_8 C29_8 1_555 1_555
H19_8 C30_8 1_555 1_555
H22_8 C33_8 1_555 1_555
C34_8 C21_8 1_555 1_555
C35_8 C34_8 1_555 1_555
H23_8 C35_8 1_555 1_555
C36_8 N13_6 1_555 1_555
N9_8 C21_8 1_555 1_555
C25_5 C26_5 1_555 1_555
C33_8 C34_8 1_555 1_555
C35_8 C36_8 1_555 1_555
N11_8 C27_8 1_555 1_555
C27_8 H17_8 1_555 1_555
C28_8 C27_8 1_555 1_555
H18_6 C28_8 1_555 1_555
C31_8 N11_8 1_555 1_555
Zn4_2 N11_8 1_555 1_555
I6_8 Zn4_2 1_555 1_555
Zn2_4 I3_2 1_555 1_555
N4_4 Zn2_4 1_555 1_555
C4_6 N4_4 1_555 1_555
H1_4 C4_6 1_555 1_555
C5_6 C4_6 1_555 1_555
H2_6 C5_6 1_555 1_555
C8_6 N4_4 1_555 1_555
H4_6 C8_6 1_555 1_555
I4_2 Zn2_4 1_555 1_555
N10_4 Zn2_4 1_555 1_555
C22_6 N10_4 1_555 1_555
H13_4 C22_6 1_555 1_555
C23_6 C22_6 1_555 1_555
H14_6 C23_6 1_555 1_555
C26_6 N10_4 1_555 1_555
H16_6 C26_6 1_555 1_555
C7_6 C8_6 1_555 1_555
C25_6 C26_6 1_555 1_555
Zn2_5 I3_3 1_555 1_555
N1_7 C1_7 1_555 1_555
C1_7 C6_7 1_555 1_555
N4_5 Zn2_5 1_555 1_555
C4_7 N4_5 1_555 1_555
C5_7 C4_7 1_555 1_555
H2_7 C5_7 1_555 1_555
C6_7 C5_7 1_555 1_555
C7_7 C6_7 1_555 1_555
H3_7 C7_7 1_555 1_555
C8_7 N4_5 1_555 1_555
H4_7 C8_7 1_555 1_555
C7_7 C8_7 1_555 1_555
I4_3 Zn2_6 1_555 1_555
N7_7 C19_7 1_555 1_555
C19_7 C24_7 1_555 1_555
N10_5 Zn2_6 1_555 1_555
C22_7 N10_5 1_555 1_555
C23_7 C22_7 1_555 1_555
H14_7 C23_7 1_555 1_555
C24_7 C23_7 1_555 1_555
C25_7 C24_7 1_555 1_555
H15_7 C25_7 1_555 1_555
C26_7 N10_5 1_555 1_555
H16_7 C26_7 1_555 1_555
C25_7 C26_7 1_555 1_555
N1_8 C1_8 1_555 1_555
C1_8 C6_8 1_555 1_555
N4_6 Zn2_7 1_555 1_555
C4_8 N4_6 1_555 1_555
H1_6 C4_8 1_555 1_555
C5_8 C4_8 1_555 1_555
H2_8 C5_8 1_555 1_555
C6_8 C5_8 1_555 1_555
C7_8 C6_8 1_555 1_555
H3_8 C7_8 1_555 1_555
C8_8 N4_6 1_555 1_555
I4_4 Zn2_7 1_555 1_555
C7_8 C8_8 1_555 1_555
Zn2_8 I3_4 1_555 1_555
N7_8 C19_8 1_555 1_555
C19_8 C24_8 1_555 1_555
N10_6 Zn2_8 1_555 1_555
C22_8 N10_6 1_555 1_555
H13_6 C22_8 1_555 1_555
C23_8 C22_8 1_555 1_555
H14_8 C23_8 1_555 1_555
C24_8 C23_8 1_555 1_555
C25_8 C24_8 1_555 1_555
H15_8 C25_8 1_555 1_555
C26_8 N10_6 1_555 1_555
C25_8 C26_8 1_555 1_555
Zn1_5 I1_6 1_555 1_555
Zn1_6 I1_7 1_555 1_555
Zn2_9 I3_7 1_555 1_555
N4_7 Zn2_9 1_555 1_555
I4_7 Zn2_9 1_555 1_555
N10_7 Zn2_9 1_555 1_555
I4_8 Zn2_10 1_555 1_555
N4_8 Zn2_11 1_555 1_555
C14_8 H9_8 1_555 1_555
N10_8 Zn2_12 1_555 1_555
C32_8 H21_8 1_555 1_555
Zn2_13 I3_8 1_555 1_555

#END
