
###############################################################################
#
# This file contains modified crystal structure data generated from the
# MOF subset of the Cambridge Structural Database (CSD) v543 
# hosted by the Cambridge Crystallographic Data Centre (CCDC).
#
# This work is licensed under the Creative Commons
# Attribution-NonCommercial-ShareAlike 4.0 International License.
# To view a copy of this license, visit
# http://creativecommons.org/licenses/by-nc-sa/4.0/
# or send a letter to
# Creative Commons, PO Box 1866, Mountain View, CA 94042, USA.
#
# CIF created using the CSD Python API on 29 September 2022
# The structure has been converted into the P1 space group
# The structure has a 3D framework
# The original CSD entry LUDVOV is in the monoclinic crystal system
# The framework has been calculated to contain at least 10.0% void space
# The void calculation uses a probe of radius 1.32A, grid spacing 0.4
#
###############################################################################

data_LUDVOV
_chemical_formula_moiety         '(C288 H192 I48 N92 Zn24)n'
_symmetry_cell_setting           triclinic
_symmetry_space_group_name_H-M   'P 1'
_symmetry_Int_Tables_number      1
_space_group_name_Hall           'P 1'
loop_
_symmetry_equiv_pos_site_id
_symmetry_equiv_pos_as_xyz
1 x,y,z
_cell_length_a                   35.316(3)
_cell_length_b                   14.7247(14)
_cell_length_c                   31.766(3)
_cell_angle_alpha                90
_cell_angle_beta                 101.906(2)
_cell_angle_gamma                90
_cell_volume                     16163.5
loop_
_atom_site_label
_atom_site_type_symbol
_atom_site_fract_x
_atom_site_fract_y
_atom_site_fract_z
Zn1 Zn 0.37555(2) 0.09258(6) 0.43489(3)
I1 I 0.354920(19) 0.08869(6) 0.50682(2)
I2 I 0.39256(2) 0.23665(4) 0.39840(3)
N5 N 0.42202(17) 0.0067(4) 0.43839(19)
H5 H 0.4273 0.0280 0.3788
N10 N 0.12291(17) 0.0526(4) 0.14435(18)
C25 C 0.1761(2) 0.0475(5) 0.2044(2)
H15 H 0.1972 0.0778 0.2223
C26 C 0.1537(2) 0.0922(4) 0.1694(2)
H16 H 0.1603 0.1524 0.1630
N11 N 0.33301(17) 0.0275(4) 0.39121(18)
C27 C 0.3156(2) 0.0659(5) 0.3535(2)
H17 H 0.3243 0.1238 0.3463
C28 C 0.2860(2) 0.0249(5) 0.3253(2)
H18 H 0.2743 0.0543 0.2993
Zn4 Zn 0.08601(2) 0.12020(5) 0.09489(3)
I3 I 0.12456(2) 0.23534(4) 0.06265(2)
I4 I 0.02541(7) 0.14943(18) 0.1247(2)
N4 N 0.07445(17) 0.0131(4) 0.05104(18)
H1 H 0.1239 0.0221 0.0324
Zn2 Zn 0.58601(2) 0.37980(5) 0.59489(3)
Zn3 Zn 0.67242(3) 0.84858(5) 0.27190(3)
I3_2 I 0.62456(2) 0.26466(4) 0.56265(2)
I4_2 I 0.52541(7) 0.35057(18) 0.6247(2)
I5 I 0.628254(18) 0.83335(4) 0.197739(17)
I6 I 0.734225(17) 0.75683(4) 0.293355(19)
N1 N 0.57850(16) 0.7236(4) 0.43848(18)
N2 N 0.52751(16) 0.7727(4) 0.47087(18)
N3 N 0.54096(17) 0.8511(4) 0.41077(19)
C1 C 0.55592(19) 0.7163(5) 0.4678(2)
C2 C 0.5208(2) 0.8370(5) 0.4410(2)
C3 C 0.57035(19) 0.7940(5) 0.4116(2)
N4_2 N 0.57445(17) 0.4869(4) 0.55104(18)
C4 C 0.6008(2) 0.5126(5) 0.5293(3)
H1_2 H 0.6239 0.4779 0.5324
C5 C 0.5966(2) 0.5872(6) 0.5023(3)
H2 H 0.6166 0.6044 0.4880
C6 C 0.56255(19) 0.6362(5) 0.4966(2)
C7 C 0.5344(2) 0.6096(5) 0.5192(2)
H3 H 0.5109 0.6427 0.5165
C8 C 0.5413(2) 0.5349(5) 0.5454(2)
H4 H 0.5219 0.5161 0.5603
C9 C 0.4388(3) 0.9975(8) 0.4047(3)
C10 C 0.4715(3) 0.9471(8) 0.4047(3)
H6 H 0.4833 0.9465 0.3804
C11 C 0.4867(2) 0.8975(5) 0.4409(2)
C12 C 0.4694(2) 0.9036(6) 0.4753(3)
H7 H 0.4791 0.8701 0.5007
C13 C 0.4377(2) 0.9584(6) 0.4728(3)
H8 H 0.4263 0.9620 0.4973
N6 N 0.64059(17) 0.8300(4) 0.31857(19)
C14 C 0.6529(2) 0.7835(5) 0.3549(2)
H9 H 0.6780 0.7575 0.3596
C15 C 0.6317(2) 0.7710(5) 0.3855(2)
H10 H 0.6422 0.7380 0.4109
C16 C 0.5946(2) 0.8069(5) 0.3795(2)
C17 C 0.5815(3) 0.8551(7) 0.3420(3)
H11 H 0.5565 0.8818 0.3366
C18 C 0.6049(2) 0.8641(7) 0.3127(3)
H12 H 0.5952 0.8964 0.2868
N7 N 0.22085(16) 0.9471(4) 0.27377(18)
N8 N 0.23431(16) 0.8072(4) 0.31170(17)
N9 N 0.18096(16) 0.8194(4) 0.25253(18)
C19 C 0.19111(19) 0.9062(5) 0.2487(2)
C20 C 0.24063(18) 0.8952(5) 0.3058(2)
C21 C 0.20419(19) 0.7724(4) 0.2838(2)
C22 C 0.1140(2) 0.9684(5) 0.1535(3)
H13 H 0.0919 0.9408 0.1361
C23 C 0.1350(2) 0.9193(5) 0.1867(3)
H14 H 0.1276 0.8590 0.1920
C24 C 0.1675(2) 0.9590(4) 0.2129(2)
C29 C 0.27344(18) 0.9404(4) 0.3351(2)
C30 C 0.2912(2) 0.8994(5) 0.3736(2)
H19 H 0.2836 0.8406 0.3809
C31 C 0.3202(2) 0.9460(5) 0.4008(3)
H20 H 0.3315 0.9191 0.4276
N12 N 0.18407(17) 0.4871(4) 0.27957(18)
C32 C 0.2153(2) 0.5218(5) 0.3054(2)
H21 H 0.2334 0.4815 0.3222
C33 C 0.2224(2) 0.6130(5) 0.3087(2)
H22 H 0.2448 0.6350 0.3278
C34 C 0.1970(2) 0.6733(4) 0.2843(2)
C35 C 0.1642(2) 0.6370(5) 0.2577(3)
H23 H 0.1458 0.6757 0.2402
C36 C 0.1585(2) 0.5446(5) 0.2569(3)
H24 H 0.1355 0.5207 0.2395
N13 N 0.62291(17) 0.4474(4) 0.64435(18)
N14 N 0.68407(17) 0.9871(4) 0.27957(18)
Zn5 Zn 0.17242(3) 0.34858(5) 0.27190(3)
I5_2 I 0.128254(18) 0.33335(4) 0.197739(17)
I6_2 I 0.234225(17) 0.25683(4) 0.293355(19)
N1_2 N 0.07850(16) 0.2236(4) 0.43848(18)
N2_2 N 0.02751(16) 0.2727(4) 0.47087(18)
N3_2 N 0.04096(17) 0.3511(4) 0.41077(19)
C1_2 C 0.05592(19) 0.2163(5) 0.4678(2)
C2_2 C 0.0208(2) 0.3370(5) 0.4410(2)
C3_2 C 0.07035(19) 0.2940(5) 0.4116(2)
C4_2 C 0.1008(2) 0.0126(5) 0.5293(3)
C5_2 C 0.0966(2) 0.0872(6) 0.5023(3)
H2_2 H 0.1166 0.1044 0.4880
C6_2 C 0.06255(19) 0.1362(5) 0.4966(2)
C7_2 C 0.0344(2) 0.1096(5) 0.5192(2)
H3_2 H 0.0109 0.1427 0.5165
C8_2 C 0.0413(2) 0.0349(5) 0.5454(2)
H4_2 H 0.0219 0.0161 0.5603
N6_2 N 0.14059(17) 0.3300(4) 0.31857(19)
C14_2 C 0.1529(2) 0.2835(5) 0.3549(2)
H9_2 H 0.1780 0.2575 0.3596
C15_2 C 0.1317(2) 0.2710(5) 0.3855(2)
H10_2 H 0.1422 0.2380 0.4109
C16_2 C 0.0946(2) 0.3069(5) 0.3795(2)
C17_2 C 0.0815(3) 0.3551(7) 0.3420(3)
H11_2 H 0.0565 0.3818 0.3366
C18_2 C 0.1049(2) 0.3641(7) 0.3127(3)
H12_2 H 0.0952 0.3964 0.2868
H21_2 H 0.7334 0.9815 0.3222
Zn1_2 Zn 0.87555(2) 0.40742(6) 0.93489(3)
I2_2 I 0.89256(2) 0.26335(4) 0.89840(3)
N5_2 N 0.92202(17) 0.4933(4) 0.93839(19)
C9_2 C 0.9388(3) 0.5025(8) 0.9047(3)
H5_2 H 0.9273 0.4720 0.8788
C10_2 C 0.9715(3) 0.5529(8) 0.9047(3)
H6_2 H 0.9833 0.5535 0.8804
C11_2 C 0.9867(2) 0.6025(5) 0.9409(2)
C12_2 C 0.9694(2) 0.5964(6) 0.9753(3)
C13_2 C 0.9377(2) 0.5416(6) 0.9728(3)
H8_2 H 0.9263 0.5380 0.9973
N7_2 N 0.72085(16) 0.5529(4) 0.77377(18)
N8_2 N 0.73431(16) 0.6928(4) 0.81170(17)
N9_2 N 0.68096(16) 0.6806(4) 0.75253(18)
C19_2 C 0.69111(19) 0.5938(5) 0.7487(2)
C20_2 C 0.74063(18) 0.6048(5) 0.8058(2)
C21_2 C 0.70419(19) 0.7276(4) 0.7838(2)
C22_2 C 0.6140(2) 0.5316(5) 0.6535(3)
H13_2 H 0.5919 0.5592 0.6361
C23_2 C 0.6350(2) 0.5807(5) 0.6867(3)
H14_2 H 0.6276 0.6410 0.6920
C24_2 C 0.6675(2) 0.5410(4) 0.7129(2)
C25_2 C 0.6761(2) 0.4525(5) 0.7044(2)
H15_2 H 0.6972 0.4222 0.7223
C26_2 C 0.6537(2) 0.4078(4) 0.6694(2)
H16_2 H 0.6603 0.3476 0.6630
N11_2 N 0.83301(17) 0.4725(4) 0.89121(18)
C27_2 C 0.8156(2) 0.4341(5) 0.8535(2)
H17_2 H 0.8243 0.3762 0.8463
C28_2 C 0.7860(2) 0.4751(5) 0.8253(2)
H18_2 H 0.7743 0.4457 0.7993
C29_2 C 0.77344(18) 0.5596(4) 0.8351(2)
C30_2 C 0.7912(2) 0.6006(5) 0.8736(2)
H19_2 H 0.7836 0.6594 0.8809
C31_2 C 0.8202(2) 0.5540(5) 0.9008(3)
H20_2 H 0.8315 0.5809 0.9276
C32_2 C 0.7153(2) 0.9782(5) 0.8054(2)
C33_2 C 0.7224(2) 0.8870(5) 0.8087(2)
H22_2 H 0.7448 0.8650 0.8278
C34_2 C 0.6970(2) 0.8267(4) 0.7843(2)
C35_2 C 0.6642(2) 0.8630(5) 0.7577(3)
H23_2 H 0.6458 0.8243 0.7402
C36_2 C 0.6585(2) 0.9554(5) 0.7569(3)
H24_2 H 0.6355 0.9793 0.7395
Zn2_2 Zn 0.08601(2) 0.87980(5) 0.59489(3)
I3_3 I 0.12456(2) 0.76466(4) 0.56265(2)
I4_3 I 0.02541(7) 0.85057(18) 0.6247(2)
N4_3 N 0.07445(17) 0.9869(4) 0.55104(18)
H1_3 H 0.1239 0.9779 0.5324
N13_2 N 0.12291(17) 0.9474(4) 0.64435(18)
Zn1_3 Zn 0.37555(2) 0.90742(6) 0.93489(3)
I2_3 I 0.39256(2) 0.76335(4) 0.89840(3)
N5_3 N 0.42202(17) 0.9933(4) 0.93839(19)
H5_3 H 0.4273 0.9720 0.8788
C25_3 C 0.1761(2) 0.9525(5) 0.7044(2)
H15_3 H 0.1972 0.9222 0.7223
C26_3 C 0.1537(2) 0.9078(4) 0.6694(2)
H16_3 H 0.1603 0.8476 0.6630
N11_3 N 0.33301(17) 0.9725(4) 0.89121(18)
C27_3 C 0.3156(2) 0.9341(5) 0.8535(2)
H17_3 H 0.3243 0.8762 0.8463
C28_3 C 0.2860(2) 0.9751(5) 0.8253(2)
H18_3 H 0.2743 0.9457 0.7993
Zn1_4 Zn 0.87555(2) 0.59258(6) 0.43489(3)
I1_2 I 0.854920(19) 0.58869(6) 0.50682(2)
I2_4 I 0.89256(2) 0.73665(4) 0.39840(3)
N5_4 N 0.92202(17) 0.5067(4) 0.43839(19)
C9_3 C 0.9388(3) 0.4975(8) 0.4047(3)
H5_4 H 0.9273 0.5280 0.3788
C10_3 C 0.9715(3) 0.4471(8) 0.4047(3)
H6_3 H 0.9833 0.4465 0.3804
C11_3 C 0.9867(2) 0.3975(5) 0.4409(2)
C12_3 C 0.9694(2) 0.4036(6) 0.4753(3)
H7_2 H 0.9791 0.3701 0.5007
C13_3 C 0.9377(2) 0.4584(6) 0.4728(3)
H8_3 H 0.9263 0.4620 0.4973
N7_3 N 0.72085(16) 0.4471(4) 0.27377(18)
N8_3 N 0.73431(16) 0.3072(4) 0.31170(17)
N9_3 N 0.68096(16) 0.3194(4) 0.25253(18)
C19_3 C 0.69111(19) 0.4062(5) 0.2487(2)
C20_3 C 0.74063(18) 0.3952(5) 0.3058(2)
C21_3 C 0.70419(19) 0.2724(4) 0.2838(2)
N10_2 N 0.62291(17) 0.5526(4) 0.14435(18)
C22_3 C 0.6140(2) 0.4684(5) 0.1535(3)
H13_3 H 0.5919 0.4408 0.1361
C23_3 C 0.6350(2) 0.4193(5) 0.1867(3)
H14_3 H 0.6276 0.3590 0.1920
C24_3 C 0.6675(2) 0.4590(4) 0.2129(2)
C25_4 C 0.6761(2) 0.5475(5) 0.2044(2)
H15_4 H 0.6972 0.5778 0.2223
C26_4 C 0.6537(2) 0.5922(4) 0.1694(2)
H16_4 H 0.6603 0.6524 0.1630
N11_4 N 0.83301(17) 0.5275(4) 0.39121(18)
C27_4 C 0.8156(2) 0.5659(5) 0.3535(2)
H17_4 H 0.8243 0.6238 0.3463
C28_4 C 0.7860(2) 0.5249(5) 0.3253(2)
H18_4 H 0.7743 0.5543 0.2993
C29_3 C 0.77344(18) 0.4404(4) 0.3351(2)
C30_3 C 0.7912(2) 0.3994(5) 0.3736(2)
H19_3 H 0.7836 0.3406 0.3809
C31_3 C 0.8202(2) 0.4460(5) 0.4008(3)
H20_3 H 0.8315 0.4191 0.4276
C32_3 C 0.7153(2) 0.0218(5) 0.3054(2)
C33_3 C 0.7224(2) 0.1130(5) 0.3087(2)
H22_3 H 0.7448 0.1350 0.3278
C34_3 C 0.6970(2) 0.1733(4) 0.2843(2)
C35_3 C 0.6642(2) 0.1370(5) 0.2577(3)
H23_3 H 0.6458 0.1757 0.2402
C36_3 C 0.6585(2) 0.0446(5) 0.2569(3)
H24_3 H 0.6355 0.0207 0.2395
Zn4_2 Zn 0.58601(2) 0.62020(5) 0.09489(3)
I3_4 I 0.62456(2) 0.73534(4) 0.06265(2)
I4_4 I 0.52541(7) 0.64943(18) 0.1247(2)
N4_4 N 0.57445(17) 0.5131(4) 0.05104(18)
C4_3 C 0.6008(2) 0.4874(5) 0.0293(3)
H1_4 H 0.6239 0.5221 0.0324
C5_3 C 0.5966(2) 0.4128(6) 0.0023(3)
C7_3 C 0.5344(2) 0.3904(5) 0.0192(2)
H3_3 H 0.5109 0.3573 0.0165
C8_3 C 0.5413(2) 0.4651(5) 0.0454(2)
H4_3 H 0.5219 0.4839 0.0603
H7_3 H 0.4791 0.1299 0.0007
Zn1_5 Zn 0.62445(2) 0.09258(6) 0.06511(3)
I2_5 I 0.60744(2) 0.23665(4) 0.10160(3)
N5_5 N 0.57798(17) 0.0067(4) 0.06161(19)
H5_5 H 0.5727 0.0280 0.1212
N10_3 N 0.87709(17) 0.0526(4) 0.35565(18)
C25_5 C 0.8239(2) 0.0475(5) 0.2956(2)
H15_5 H 0.8028 0.0778 0.2777
C26_5 C 0.8463(2) 0.0922(4) 0.3306(2)
H16_5 H 0.8397 0.1524 0.3370
N11_5 N 0.66699(17) 0.0275(4) 0.10879(18)
C27_5 C 0.6844(2) 0.0659(5) 0.1465(2)
H17_5 H 0.6757 0.1238 0.1537
C28_5 C 0.7140(2) 0.0249(5) 0.1747(2)
H18_5 H 0.7257 0.0543 0.2007
Zn4_3 Zn 0.91399(2) 0.12020(5) 0.40511(3)
I3_5 I 0.87544(2) 0.23534(4) 0.43735(2)
I4_5 I 0.97459(7) 0.14943(18) 0.3753(2)
N4_5 N 0.92555(17) 0.0131(4) 0.44896(18)
H1_5 H 0.8761 0.0221 0.4676
I1_3 I 0.645080(19) 0.08869(6) 0.99318(2)
Zn3_2 Zn 0.32758(3) 0.84858(5) 0.22810(3)
I5_3 I 0.371746(18) 0.83335(4) 0.302261(17)
I6_3 I 0.265775(17) 0.75683(4) 0.206645(19)
N1_3 N 0.42150(16) 0.7236(4) 0.06152(18)
N2_3 N 0.47249(16) 0.7727(4) 0.02913(18)
N3_3 N 0.45904(17) 0.8511(4) 0.08923(19)
C1_3 C 0.44408(19) 0.7163(5) 0.0322(2)
C2_3 C 0.4792(2) 0.8370(5) 0.0590(2)
C3_3 C 0.42965(19) 0.7940(5) 0.0884(2)
H2_3 H 0.3834 0.6044 0.0120
C6_3 C 0.43745(19) 0.6362(5) 0.0034(2)
C9_4 C 0.5612(3) 0.9975(8) 0.0953(3)
C10_4 C 0.5285(3) 0.9471(8) 0.0953(3)
H6_4 H 0.5167 0.9465 0.1196
C11_4 C 0.5133(2) 0.8975(5) 0.0591(2)
C12_4 C 0.5306(2) 0.9036(6) 0.0247(3)
C13_4 C 0.5623(2) 0.9584(6) 0.0272(3)
H8_4 H 0.5737 0.9620 0.0027
N6_3 N 0.35941(17) 0.8300(4) 0.18143(19)
C14_3 C 0.3471(2) 0.7835(5) 0.1451(2)
H9_3 H 0.3220 0.7575 0.1404
C15_3 C 0.3683(2) 0.7710(5) 0.1145(2)
H10_3 H 0.3578 0.7380 0.0891
C16_3 C 0.4054(2) 0.8069(5) 0.1205(2)
C17_3 C 0.4185(3) 0.8551(7) 0.1580(3)
H11_3 H 0.4435 0.8818 0.1634
C18_3 C 0.3951(2) 0.8641(7) 0.1873(3)
H12_3 H 0.4048 0.8964 0.2132
N7_4 N 0.77915(16) 0.9471(4) 0.22623(18)
N8_4 N 0.76569(16) 0.8072(4) 0.18830(17)
N9_4 N 0.81904(16) 0.8194(4) 0.24747(18)
C19_4 C 0.80889(19) 0.9062(5) 0.2513(2)
C20_4 C 0.75937(18) 0.8952(5) 0.1942(2)
C21_4 C 0.79581(19) 0.7724(4) 0.2162(2)
C22_4 C 0.8860(2) 0.9684(5) 0.3465(3)
H13_4 H 0.9081 0.9408 0.3639
C23_4 C 0.8650(2) 0.9193(5) 0.3133(3)
H14_4 H 0.8724 0.8590 0.3080
C24_4 C 0.8325(2) 0.9590(4) 0.2871(2)
C29_4 C 0.72656(18) 0.9404(4) 0.1649(2)
C30_4 C 0.7088(2) 0.8994(5) 0.1264(2)
H19_4 H 0.7164 0.8406 0.1191
C31_4 C 0.6798(2) 0.9460(5) 0.0992(3)
H20_4 H 0.6685 0.9191 0.0724
N12_2 N 0.81593(17) 0.4871(4) 0.22043(18)
C32_4 C 0.7847(2) 0.5218(5) 0.1946(2)
H21_3 H 0.7666 0.4815 0.1778
C33_4 C 0.7776(2) 0.6130(5) 0.1913(2)
H22_4 H 0.7552 0.6350 0.1722
C34_4 C 0.8030(2) 0.6733(4) 0.2157(2)
C35_4 C 0.8358(2) 0.6370(5) 0.2423(3)
H23_4 H 0.8542 0.6757 0.2598
C36_4 C 0.8415(2) 0.5446(5) 0.2431(3)
H24_4 H 0.8645 0.5207 0.2605
N14_2 N 0.31593(17) 0.9871(4) 0.22043(18)
Zn5_2 Zn 0.82758(3) 0.34858(5) 0.22810(3)
H21_4 H 0.2666 0.9815 0.1778
I5_4 I 0.871746(18) 0.33335(4) 0.302261(17)
I6_4 I 0.765775(17) 0.25683(4) 0.206645(19)
N1_4 N 0.92150(16) 0.2236(4) 0.06152(18)
N2_4 N 0.97249(16) 0.2727(4) 0.02913(18)
N3_4 N 0.95904(17) 0.3511(4) 0.08923(19)
C1_4 C 0.94408(19) 0.2163(5) 0.0322(2)
C2_4 C 0.9792(2) 0.3370(5) 0.0590(2)
C3_4 C 0.92965(19) 0.2940(5) 0.0884(2)
H2_4 H 0.8834 0.1044 0.0120
C6_4 C 0.93745(19) 0.1362(5) 0.0034(2)
N6_4 N 0.85941(17) 0.3300(4) 0.18143(19)
C14_4 C 0.8471(2) 0.2835(5) 0.1451(2)
H9_4 H 0.8220 0.2575 0.1404
C15_4 C 0.8683(2) 0.2710(5) 0.1145(2)
H10_4 H 0.8578 0.2380 0.0891
C16_4 C 0.9054(2) 0.3069(5) 0.1205(2)
C17_4 C 0.9185(3) 0.3551(7) 0.1580(3)
H11_4 H 0.9435 0.3818 0.1634
C18_4 C 0.8951(2) 0.3641(7) 0.1873(3)
H12_4 H 0.9048 0.3964 0.2132
Zn2_3 Zn 0.41399(2) 0.37980(5) 0.90511(3)
I3_6 I 0.37544(2) 0.26466(4) 0.93735(2)
I4_6 I 0.47459(7) 0.35057(18) 0.8753(2)
N4_6 N 0.42555(17) 0.4869(4) 0.94896(18)
C4_4 C 0.3992(2) 0.5126(5) 0.9707(3)
H1_6 H 0.3761 0.4779 0.9676
C5_4 C 0.4034(2) 0.5872(6) 0.9977(3)
C7_4 C 0.4656(2) 0.6096(5) 0.9808(2)
H3_4 H 0.4891 0.6427 0.9835
C8_4 C 0.4587(2) 0.5349(5) 0.9546(2)
H4_4 H 0.4781 0.5161 0.9397
H7_4 H 0.5209 0.8701 0.9993
N13_3 N 0.37709(17) 0.4474(4) 0.85565(18)
Zn1_6 Zn 0.12445(2) 0.40742(6) 0.56511(3)
I1_4 I 0.145080(19) 0.41131(6) 0.49318(2)
I2_6 I 0.10744(2) 0.26335(4) 0.60160(3)
N5_6 N 0.07798(17) 0.4933(4) 0.56161(19)
C9_5 C 0.0612(3) 0.5025(8) 0.5953(3)
H5_6 H 0.0727 0.4720 0.6212
C10_5 C 0.0285(3) 0.5529(8) 0.5953(3)
H6_5 H 0.0167 0.5535 0.6196
C11_5 C 0.0133(2) 0.6025(5) 0.5591(2)
C12_5 C 0.0306(2) 0.5964(6) 0.5247(3)
H7_5 H 0.0209 0.6299 0.4993
C13_5 C 0.0623(2) 0.5416(6) 0.5272(3)
H8_5 H 0.0737 0.5380 0.5027
N7_5 N 0.27915(16) 0.5529(4) 0.72623(18)
N8_5 N 0.26569(16) 0.6928(4) 0.68830(17)
N9_5 N 0.31904(16) 0.6806(4) 0.74747(18)
C19_5 C 0.30889(19) 0.5938(5) 0.7513(2)
C20_5 C 0.25937(18) 0.6048(5) 0.6942(2)
C21_5 C 0.29581(19) 0.7276(4) 0.7162(2)
C22_5 C 0.3860(2) 0.5316(5) 0.8465(3)
H13_5 H 0.4081 0.5592 0.8639
C23_5 C 0.3650(2) 0.5807(5) 0.8133(3)
H14_5 H 0.3724 0.6410 0.8080
C24_5 C 0.3325(2) 0.5410(4) 0.7871(2)
C25_6 C 0.3239(2) 0.4525(5) 0.7956(2)
H15_6 H 0.3028 0.4222 0.7777
C26_6 C 0.3463(2) 0.4078(4) 0.8306(2)
H16_6 H 0.3397 0.3476 0.8370
N11_6 N 0.16699(17) 0.4725(4) 0.60879(18)
C27_6 C 0.1844(2) 0.4341(5) 0.6465(2)
H17_6 H 0.1757 0.3762 0.6537
C28_6 C 0.2140(2) 0.4751(5) 0.6747(2)
H18_6 H 0.2257 0.4457 0.7007
C29_5 C 0.22656(18) 0.5596(4) 0.6649(2)
C30_5 C 0.2088(2) 0.6006(5) 0.6264(2)
H19_5 H 0.2164 0.6594 0.6191
C31_5 C 0.1798(2) 0.5540(5) 0.5992(3)
H20_5 H 0.1685 0.5809 0.5724
C32_5 C 0.2847(2) 0.9782(5) 0.6946(2)
C33_5 C 0.2776(2) 0.8870(5) 0.6913(2)
H22_5 H 0.2552 0.8650 0.6722
C34_5 C 0.3030(2) 0.8267(4) 0.7157(2)
C35_5 C 0.3358(2) 0.8630(5) 0.7423(3)
H23_5 H 0.3542 0.8243 0.7598
C36_5 C 0.3415(2) 0.9554(5) 0.7431(3)
H24_5 H 0.3645 0.9793 0.7605
Zn1_7 Zn 0.12445(2) 0.59258(6) 0.06511(3)
I2_7 I 0.10744(2) 0.73665(4) 0.10160(3)
N5_7 N 0.07798(17) 0.5067(4) 0.06161(19)
C9_6 C 0.0612(3) 0.4975(8) 0.0953(3)
H5_7 H 0.0727 0.5280 0.1212
C10_6 C 0.0285(3) 0.4471(8) 0.0953(3)
H6_6 H 0.0167 0.4465 0.1196
C11_6 C 0.0133(2) 0.3975(5) 0.0591(2)
C12_6 C 0.0306(2) 0.4036(6) 0.0247(3)
C13_6 C 0.0623(2) 0.4584(6) 0.0272(3)
H8_6 H 0.0737 0.4620 0.0027
N7_6 N 0.27915(16) 0.4471(4) 0.22623(18)
N8_6 N 0.26569(16) 0.3072(4) 0.18830(17)
N9_6 N 0.31904(16) 0.3194(4) 0.24747(18)
C19_6 C 0.30889(19) 0.4062(5) 0.2513(2)
C20_6 C 0.25937(18) 0.3952(5) 0.1942(2)
C21_6 C 0.29581(19) 0.2724(4) 0.2162(2)
N10_4 N 0.37709(17) 0.5526(4) 0.35565(18)
C22_6 C 0.3860(2) 0.4684(5) 0.3465(3)
H13_6 H 0.4081 0.4408 0.3639
C23_6 C 0.3650(2) 0.4193(5) 0.3133(3)
H14_6 H 0.3724 0.3590 0.3080
C24_6 C 0.3325(2) 0.4590(4) 0.2871(2)
C25_7 C 0.3239(2) 0.5475(5) 0.2956(2)
H15_7 H 0.3028 0.5778 0.2777
C26_7 C 0.3463(2) 0.5922(4) 0.3306(2)
H16_7 H 0.3397 0.6524 0.3370
N11_7 N 0.16699(17) 0.5275(4) 0.10879(18)
C27_7 C 0.1844(2) 0.5659(5) 0.1465(2)
H17_7 H 0.1757 0.6238 0.1537
C28_7 C 0.2140(2) 0.5249(5) 0.1747(2)
H18_7 H 0.2257 0.5543 0.2007
C29_6 C 0.22656(18) 0.4404(4) 0.1649(2)
C30_6 C 0.2088(2) 0.3994(5) 0.1264(2)
H19_6 H 0.2164 0.3406 0.1191
C31_6 C 0.1798(2) 0.4460(5) 0.0992(3)
H20_6 H 0.1685 0.4191 0.0724
C32_6 C 0.2847(2) 0.0218(5) 0.1946(2)
C33_6 C 0.2776(2) 0.1130(5) 0.1913(2)
H22_6 H 0.2552 0.1350 0.1722
C34_6 C 0.3030(2) 0.1733(4) 0.2157(2)
C35_6 C 0.3358(2) 0.1370(5) 0.2423(3)
H23_6 H 0.3542 0.1757 0.2598
C36_6 C 0.3415(2) 0.0446(5) 0.2431(3)
H24_6 H 0.3645 0.0207 0.2605
Zn4_4 Zn 0.41399(2) 0.62020(5) 0.40511(3)
Zn3_3 Zn 0.32758(3) 0.15142(5) 0.72810(3)
I3_7 I 0.37544(2) 0.73534(4) 0.43735(2)
I4_7 I 0.47459(7) 0.64943(18) 0.3753(2)
I5_5 I 0.371746(18) 0.16665(4) 0.802261(17)
I6_5 I 0.265775(17) 0.24317(4) 0.706645(19)
N1_5 N 0.42150(16) 0.2764(4) 0.56152(18)
N2_5 N 0.47249(16) 0.2273(4) 0.52913(18)
N3_5 N 0.45904(17) 0.1489(4) 0.58923(19)
C1_5 C 0.44408(19) 0.2837(5) 0.5322(2)
C2_5 C 0.4792(2) 0.1630(5) 0.5590(2)
C3_5 C 0.42965(19) 0.2060(5) 0.5884(2)
N4_7 N 0.42555(17) 0.5131(4) 0.44896(18)
C4_5 C 0.3992(2) 0.4874(5) 0.4707(3)
H1_7 H 0.3761 0.5221 0.4676
C5_5 C 0.4034(2) 0.4128(6) 0.4977(3)
H2_5 H 0.3834 0.3956 0.5120
C6_5 C 0.43745(19) 0.3638(5) 0.5034(2)
C7_5 C 0.4656(2) 0.3904(5) 0.4808(2)
H3_5 H 0.4891 0.3573 0.4835
C8_5 C 0.4587(2) 0.4651(5) 0.4546(2)
H4_5 H 0.4781 0.4839 0.4397
C9_7 C 0.5612(3) 0.0025(8) 0.5953(3)
C10_7 C 0.5285(3) 0.0529(8) 0.5953(3)
H6_7 H 0.5167 0.0535 0.6196
C11_7 C 0.5133(2) 0.1025(5) 0.5591(2)
C12_7 C 0.5306(2) 0.0964(6) 0.5247(3)
H7_6 H 0.5209 0.1299 0.4993
C13_7 C 0.5623(2) 0.0416(6) 0.5272(3)
H8_7 H 0.5737 0.0380 0.5027
N6_5 N 0.35941(17) 0.1700(4) 0.68143(19)
C14_5 C 0.3471(2) 0.2165(5) 0.6451(2)
H9_5 H 0.3220 0.2425 0.6404
C15_5 C 0.3683(2) 0.2290(5) 0.6145(2)
H10_5 H 0.3578 0.2620 0.5891
C16_5 C 0.4054(2) 0.1931(5) 0.6205(2)
C17_5 C 0.4185(3) 0.1449(7) 0.6580(3)
H11_5 H 0.4435 0.1182 0.6634
C18_5 C 0.3951(2) 0.1359(7) 0.6873(3)
H12_5 H 0.4048 0.1036 0.7132
N7_7 N 0.77915(16) 0.0529(4) 0.72623(18)
N8_7 N 0.76569(16) 0.1928(4) 0.68830(17)
N9_7 N 0.81904(16) 0.1806(4) 0.74747(18)
C19_7 C 0.80889(19) 0.0938(5) 0.7513(2)
C20_7 C 0.75937(18) 0.1048(5) 0.6942(2)
C21_7 C 0.79581(19) 0.2276(4) 0.7162(2)
C22_7 C 0.8860(2) 0.0316(5) 0.8465(3)
H13_7 H 0.9081 0.0592 0.8639
C23_7 C 0.8650(2) 0.0807(5) 0.8133(3)
H14_7 H 0.8724 0.1410 0.8080
C24_7 C 0.8325(2) 0.0410(4) 0.7871(2)
C29_7 C 0.72656(18) 0.0596(4) 0.6649(2)
C30_7 C 0.7088(2) 0.1006(5) 0.6264(2)
H19_7 H 0.7164 0.1594 0.6191
C31_7 C 0.6798(2) 0.0540(5) 0.5992(3)
H20_7 H 0.6685 0.0809 0.5724
N12_3 N 0.81593(17) 0.5129(4) 0.72043(18)
C32_7 C 0.7847(2) 0.4782(5) 0.6946(2)
H21_5 H 0.7666 0.5185 0.6778
C33_7 C 0.7776(2) 0.3870(5) 0.6913(2)
H22_7 H 0.7552 0.3650 0.6722
C34_7 C 0.8030(2) 0.3267(4) 0.7157(2)
C35_7 C 0.8358(2) 0.3630(5) 0.7423(3)
H23_7 H 0.8542 0.3243 0.7598
C36_7 C 0.8415(2) 0.4554(5) 0.7431(3)
H24_7 H 0.8645 0.4793 0.7605
N14_3 N 0.31593(17) 0.0129(4) 0.72043(18)
Zn5_3 Zn 0.82758(3) 0.65142(5) 0.72810(3)
H21_6 H 0.2666 0.0185 0.6778
I5_6 I 0.871746(18) 0.66665(4) 0.802261(17)
I6_6 I 0.765775(17) 0.74317(4) 0.706645(19)
N1_6 N 0.92150(16) 0.7764(4) 0.56152(18)
N2_6 N 0.97249(16) 0.7273(4) 0.52913(18)
N3_6 N 0.95904(17) 0.6489(4) 0.58923(19)
C1_6 C 0.94408(19) 0.7837(5) 0.5322(2)
C2_6 C 0.9792(2) 0.6630(5) 0.5590(2)
C3_6 C 0.92965(19) 0.7060(5) 0.5884(2)
C4_6 C 0.8992(2) 0.9874(5) 0.4707(3)
C5_6 C 0.9034(2) 0.9128(6) 0.4977(3)
H2_6 H 0.8834 0.8956 0.5120
C6_6 C 0.93745(19) 0.8638(5) 0.5034(2)
C7_6 C 0.9656(2) 0.8904(5) 0.4808(2)
H3_6 H 0.9891 0.8573 0.4835
C8_6 C 0.9587(2) 0.9651(5) 0.4546(2)
H4_6 H 0.9781 0.9839 0.4397
N6_6 N 0.85941(17) 0.6700(4) 0.68143(19)
C14_6 C 0.8471(2) 0.7165(5) 0.6451(2)
H9_6 H 0.8220 0.7425 0.6404
C15_6 C 0.8683(2) 0.7290(5) 0.6145(2)
H10_6 H 0.8578 0.7620 0.5891
C16_6 C 0.9054(2) 0.6931(5) 0.6205(2)
C17_6 C 0.9185(3) 0.6449(7) 0.6580(3)
H11_6 H 0.9435 0.6182 0.6634
C18_6 C 0.8951(2) 0.6359(7) 0.6873(3)
H12_6 H 0.9048 0.6036 0.7132
I1_5 I 0.145080(19) 0.58869(6) 0.99318(2)
H7_7 H 0.0209 0.3701 0.9993
C4_7 C 0.8992(2) 0.0126(5) 0.9707(3)
C5_7 C 0.9034(2) 0.0872(6) 0.9977(3)
C7_7 C 0.9656(2) 0.1096(5) 0.9808(2)
H3_7 H 0.9891 0.1427 0.9835
C8_7 C 0.9587(2) 0.0349(5) 0.9546(2)
H4_7 H 0.9781 0.0161 0.9397
Zn2_4 Zn 0.91399(2) 0.87980(5) 0.90511(3)
I3_8 I 0.87544(2) 0.76466(4) 0.93735(2)
I4_8 I 0.97459(7) 0.85057(18) 0.8753(2)
N4_8 N 0.92555(17) 0.9869(4) 0.94896(18)
H1_8 H 0.8761 0.9779 0.9676
N13_4 N 0.87709(17) 0.9474(4) 0.85565(18)
Zn1_8 Zn 0.62445(2) 0.90742(6) 0.56511(3)
I1_6 I 0.645080(19) 0.91131(6) 0.49318(2)
I2_8 I 0.60744(2) 0.76335(4) 0.60160(3)
N5_8 N 0.57798(17) 0.9933(4) 0.56161(19)
H5_8 H 0.5727 0.9720 0.6212
C25_8 C 0.8239(2) 0.9525(5) 0.7956(2)
H15_8 H 0.8028 0.9222 0.7777
C26_8 C 0.8463(2) 0.9078(4) 0.8306(2)
H16_8 H 0.8397 0.8476 0.8370
N11_8 N 0.66699(17) 0.9725(4) 0.60879(18)
C27_8 C 0.6844(2) 0.9341(5) 0.6465(2)
H17_8 H 0.6757 0.8762 0.6537
C28_8 C 0.7140(2) 0.9751(5) 0.6747(2)
H18_8 H 0.7257 0.9457 0.7007
Zn3_4 Zn 0.67242(3) 0.15142(5) 0.77190(3)
I5_7 I 0.628254(18) 0.16665(4) 0.697739(17)
I6_7 I 0.734225(17) 0.24317(4) 0.793355(19)
N1_7 N 0.57850(16) 0.2764(4) 0.93848(18)
N2_7 N 0.52751(16) 0.2273(4) 0.97087(18)
N3_7 N 0.54096(17) 0.1489(4) 0.91077(19)
C1_7 C 0.55592(19) 0.2837(5) 0.9678(2)
C2_7 C 0.5208(2) 0.1630(5) 0.9410(2)
C3_7 C 0.57035(19) 0.2060(5) 0.9116(2)
H2_7 H 0.6166 0.3956 0.9880
C6_7 C 0.56255(19) 0.3638(5) 0.9966(2)
C9_8 C 0.4388(3) 0.0025(8) 0.9047(3)
C10_8 C 0.4715(3) 0.0529(8) 0.9047(3)
H6_8 H 0.4833 0.0535 0.8804
C11_8 C 0.4867(2) 0.1025(5) 0.9409(2)
C12_8 C 0.4694(2) 0.0964(6) 0.9753(3)
C13_8 C 0.4377(2) 0.0416(6) 0.9728(3)
H8_8 H 0.4263 0.0380 0.9973
N6_7 N 0.64059(17) 0.1700(4) 0.81857(19)
C14_7 C 0.6529(2) 0.2165(5) 0.8549(2)
H9_7 H 0.6780 0.2425 0.8596
C15_7 C 0.6317(2) 0.2290(5) 0.8855(2)
H10_7 H 0.6422 0.2620 0.9109
C16_7 C 0.5946(2) 0.1931(5) 0.8795(2)
C17_7 C 0.5815(3) 0.1449(7) 0.8420(3)
H11_7 H 0.5565 0.1182 0.8366
C18_7 C 0.6049(2) 0.1359(7) 0.8127(3)
H12_7 H 0.5952 0.1036 0.7868
N7_8 N 0.22085(16) 0.0529(4) 0.77377(18)
N8_8 N 0.23431(16) 0.1928(4) 0.81170(17)
N9_8 N 0.18096(16) 0.1806(4) 0.75253(18)
C19_8 C 0.19111(19) 0.0938(5) 0.7487(2)
C20_8 C 0.24063(18) 0.1048(5) 0.8058(2)
C21_8 C 0.20419(19) 0.2276(4) 0.7838(2)
C22_8 C 0.1140(2) 0.0316(5) 0.6535(3)
H13_8 H 0.0919 0.0592 0.6361
C23_8 C 0.1350(2) 0.0807(5) 0.6867(3)
H14_8 H 0.1276 0.1410 0.6920
C24_8 C 0.1675(2) 0.0410(4) 0.7129(2)
C29_8 C 0.27344(18) 0.0596(4) 0.8351(2)
C30_8 C 0.2912(2) 0.1006(5) 0.8736(2)
H19_8 H 0.2836 0.1594 0.8809
C31_8 C 0.3202(2) 0.0540(5) 0.9008(3)
H20_8 H 0.3315 0.0809 0.9276
N12_4 N 0.18407(17) 0.5129(4) 0.77957(18)
C32_8 C 0.2153(2) 0.4782(5) 0.8054(2)
H21_7 H 0.2334 0.5185 0.8222
C33_8 C 0.2224(2) 0.3870(5) 0.8087(2)
H22_8 H 0.2448 0.3650 0.8278
C34_8 C 0.1970(2) 0.3267(4) 0.7843(2)
C35_8 C 0.1642(2) 0.3630(5) 0.7577(3)
H23_8 H 0.1458 0.3243 0.7402
C36_8 C 0.1585(2) 0.4554(5) 0.7569(3)
H24_8 H 0.1355 0.4793 0.7395
N14_4 N 0.68407(17) 0.0129(4) 0.77957(18)
Zn5_4 Zn 0.17242(3) 0.65142(5) 0.77190(3)
I5_8 I 0.128254(18) 0.66665(4) 0.697739(17)
I6_8 I 0.234225(17) 0.74317(4) 0.793355(19)
N1_8 N 0.07850(16) 0.7764(4) 0.93848(18)
N2_8 N 0.02751(16) 0.7273(4) 0.97087(18)
N3_8 N 0.04096(17) 0.6489(4) 0.91077(19)
C1_8 C 0.05592(19) 0.7837(5) 0.9678(2)
C2_8 C 0.0208(2) 0.6630(5) 0.9410(2)
C3_8 C 0.07035(19) 0.7060(5) 0.9116(2)
H2_8 H 0.1166 0.8956 0.9880
C6_8 C 0.06255(19) 0.8638(5) 0.9966(2)
N6_8 N 0.14059(17) 0.6700(4) 0.81857(19)
C14_8 C 0.1529(2) 0.7165(5) 0.8549(2)
H9_8 H 0.1780 0.7425 0.8596
C15_8 C 0.1317(2) 0.7290(5) 0.8855(2)
H10_8 H 0.1422 0.7620 0.9109
C16_8 C 0.0946(2) 0.6931(5) 0.8795(2)
C17_8 C 0.0815(3) 0.6449(7) 0.8420(3)
H11_8 H 0.0565 0.6182 0.8366
C18_8 C 0.1049(2) 0.6359(7) 0.8127(3)
H12_8 H 0.0952 0.6036 0.7868
H21_8 H 0.7334 0.0185 0.8222
I1_7 I 0.354920(19) 0.91131(6) 0.00682(2)
C4_8 C 0.1008(2) 0.9874(5) 0.0293(3)
C5_8 C 0.0966(2) 0.9128(6) 0.0023(3)
C7_8 C 0.0344(2) 0.8904(5) 0.0192(2)
H3_8 H 0.0109 0.8573 0.0165
C8_8 C 0.0413(2) 0.9651(5) 0.0454(2)
H4_8 H 0.0219 0.9839 0.0603
I1_8 I 0.854920(19) 0.41131(6) 0.00682(2)
H7_8 H 0.9791 0.6299 0.0007
loop_
_geom_bond_atom_site_label_1
_geom_bond_atom_site_label_2
_geom_bond_site_symmetry_1
_geom_bond_site_symmetry_2
Zn1 I1 1_555 1_555
I2 Zn1 1_555 1_555
N5 Zn1 1_555 1_555
H15 C25 1_555 1_555
C26 N10 1_555 1_555
H16 C26 1_555 1_555
N11 Zn1 1_555 1_555
C27 N11 1_555 1_555
H17 C27 1_555 1_555
C28 C27 1_555 1_555
H18 C28 1_555 1_555
Zn4 N10 1_555 1_555
C25 C26 1_555 1_555
Zn4 I3 1_555 1_555
I4 Zn4 1_555 1_555
N4 Zn4 1_555 1_555
Zn2 I3_2 1_555 1_555
Zn3 I5 1_555 1_555
I4_2 Zn2 1_555 1_555
I6 Zn3 1_555 1_555
N1 C1 1_555 1_555
N2 C1 1_555 1_555
N3 C2 1_555 1_555
C1 C6 1_555 1_555
C2 N2 1_555 1_555
C3 N1 1_555 1_555
N4_2 Zn2 1_555 1_555
C4 N4_2 1_555 1_555
H1_2 C4 1_555 1_555
C5 C4 1_555 1_555
H2 C5 1_555 1_555
C6 C5 1_555 1_555
C7 C6 1_555 1_555
H3 C7 1_555 1_555
C8 N4_2 1_555 1_555
H4 C8 1_555 1_555
C10 C9 1_555 1_555
H6 C10 1_555 1_555
C11 C2 1_555 1_555
C12 C11 1_555 1_555
H7 C12 1_555 1_555
H8 C13 1_555 1_555
N6 Zn3 1_555 1_555
C14 N6 1_555 1_555
H9 C14 1_555 1_555
C15 C14 1_555 1_555
H10 C15 1_555 1_555
C16 C3 1_555 1_555
C17 C16 1_555 1_555
H11 C17 1_555 1_555
C18 N6 1_555 1_555
H12 C18 1_555 1_555
N7 C19 1_555 1_555
N8 C20 1_555 1_555
N9 C19 1_555 1_555
C19 C24 1_555 1_555
C20 N7 1_555 1_555
C21 N8 1_555 1_555
C22 H13 1_555 1_555
C23 C22 1_555 1_555
H14 C23 1_555 1_555
C24 C23 1_555 1_555
C29 C20 1_555 1_555
C30 C29 1_555 1_555
H19 C30 1_555 1_555
H20 C31 1_555 1_555
N12 C32 1_555 1_555
C32 H21 1_555 1_555
C33 C32 1_555 1_555
H22 C33 1_555 1_555
C34 C21 1_555 1_555
C35 C34 1_555 1_555
H23 C35 1_555 1_555
C36 N12 1_555 1_555
H24 C36 1_555 1_555
N13 Zn2 1_555 1_555
N14 Zn3 1_555 1_555
Zn5 N12 1_555 1_555
N3 C3 1_555 1_555
C7 C8 1_555 1_555
C10 C11 1_555 1_555
C12 C13 1_555 1_555
C15 C16 1_555 1_555
C17 C18 1_555 1_555
N9 C21 1_555 1_555
C30 C31 1_555 1_555
C33 C34 1_555 1_555
C35 C36 1_555 1_555
Zn5 I5_2 1_555 1_555
I6_2 Zn5 1_555 1_555
N1_2 C1_2 1_555 1_555
N2_2 C1_2 1_555 1_555
N3_2 C2_2 1_555 1_555
C1_2 C6_2 1_555 1_555
C2_2 N2_2 1_555 1_555
C3_2 N1_2 1_555 1_555
C5_2 C4_2 1_555 1_555
H2_2 C5_2 1_555 1_555
C6_2 C5_2 1_555 1_555
C7_2 C6_2 1_555 1_555
H3_2 C7_2 1_555 1_555
H4_2 C8_2 1_555 1_555
N6_2 Zn5 1_555 1_555
C14_2 N6_2 1_555 1_555
H9_2 C14_2 1_555 1_555
C15_2 C14_2 1_555 1_555
H10_2 C15_2 1_555 1_555
C16_2 C3_2 1_555 1_555
C17_2 C16_2 1_555 1_555
H11_2 C17_2 1_555 1_555
C18_2 N6_2 1_555 1_555
H12_2 C18_2 1_555 1_555
N3_2 C3_2 1_555 1_555
C7_2 C8_2 1_555 1_555
C15_2 C16_2 1_555 1_555
C17_2 C18_2 1_555 1_555
I2_2 Zn1_2 1_555 1_555
N5_2 Zn1_2 1_555 1_555
C9_2 N5_2 1_555 1_555
H5_2 C9_2 1_555 1_555
C10_2 C9_2 1_555 1_555
H6_2 C10_2 1_555 1_555
C12_2 C11_2 1_555 1_555
C13_2 N5_2 1_555 1_555
H8_2 C13_2 1_555 1_555
N7_2 C19_2 1_555 1_555
N8_2 C20_2 1_555 1_555
N9_2 C19_2 1_555 1_555
C19_2 C24_2 1_555 1_555
C20_2 N7_2 1_555 1_555
C21_2 N8_2 1_555 1_555
N13 C22_2 1_555 1_555
C22_2 H13_2 1_555 1_555
C23_2 C22_2 1_555 1_555
H14_2 C23_2 1_555 1_555
C24_2 C23_2 1_555 1_555
C25_2 C24_2 1_555 1_555
H15_2 C25_2 1_555 1_555
C26_2 N13 1_555 1_555
H16_2 C26_2 1_555 1_555
N11_2 Zn1_2 1_555 1_555
C27_2 N11_2 1_555 1_555
H17_2 C27_2 1_555 1_555
C28_2 C27_2 1_555 1_555
H18_2 C28_2 1_555 1_555
C29_2 C20_2 1_555 1_555
C30_2 C29_2 1_555 1_555
H19_2 C30_2 1_555 1_555
C31_2 N11_2 1_555 1_555
H20_2 C31_2 1_555 1_555
C33_2 C32_2 1_555 1_555
H22_2 C33_2 1_555 1_555
C34_2 C21_2 1_555 1_555
C35_2 C34_2 1_555 1_555
H23_2 C35_2 1_555 1_555
H24_2 C36_2 1_555 1_555
C10_2 C11_2 1_555 1_555
C12_2 C13_2 1_555 1_555
N9_2 C21_2 1_555 1_555
C25_2 C26_2 1_555 1_555
C28_2 C29_2 1_555 1_555
C30_2 C31_2 1_555 1_555
C33_2 C34_2 1_555 1_555
C35_2 C36_2 1_555 1_555
Zn2_2 I3_3 1_555 1_555
I4_3 Zn2_2 1_555 1_555
N4_3 Zn2_2 1_555 1_555
N13_2 Zn2_2 1_555 1_555
I2_3 Zn1_3 1_555 1_555
N5_3 Zn1_3 1_555 1_555
H15_3 C25_3 1_555 1_555
C26_3 N13_2 1_555 1_555
H16_3 C26_3 1_555 1_555
N11_3 Zn1_3 1_555 1_555
C27_3 N11_3 1_555 1_555
H17_3 C27_3 1_555 1_555
C28_3 C27_3 1_555 1_555
H18_3 C28_3 1_555 1_555
C25_3 C26_3 1_555 1_555
Zn1_4 I1_2 1_555 1_555
I2_4 Zn1_4 1_555 1_555
N5_4 Zn1_4 1_555 1_555
C9_3 N5_4 1_555 1_555
H5_4 C9_3 1_555 1_555
C10_3 C9_3 1_555 1_555
H6_3 C10_3 1_555 1_555
C12_3 C11_3 1_555 1_555
H7_2 C12_3 1_555 1_555
C13_3 N5_4 1_555 1_555
H8_3 C13_3 1_555 1_555
N7_3 C19_3 1_555 1_555
N8_3 C20_3 1_555 1_555
N9_3 C19_3 1_555 1_555
C19_3 C24_3 1_555 1_555
C20_3 N7_3 1_555 1_555
C21_3 N8_3 1_555 1_555
N10_2 C22_3 1_555 1_555
C22_3 H13_3 1_555 1_555
C23_3 C22_3 1_555 1_555
H14_3 C23_3 1_555 1_555
C24_3 C23_3 1_555 1_555
C25_4 C24_3 1_555 1_555
H15_4 C25_4 1_555 1_555
C26_4 N10_2 1_555 1_555
H16_4 C26_4 1_555 1_555
N11_4 Zn1_4 1_555 1_555
C27_4 N11_4 1_555 1_555
H17_4 C27_4 1_555 1_555
C28_4 C27_4 1_555 1_555
H18_4 C28_4 1_555 1_555
C29_3 C20_3 1_555 1_555
C30_3 C29_3 1_555 1_555
H19_3 C30_3 1_555 1_555
C31_3 N11_4 1_555 1_555
H20_3 C31_3 1_555 1_555
C33_3 C32_3 1_555 1_555
H22_3 C33_3 1_555 1_555
C34_3 C21_3 1_555 1_555
C35_3 C34_3 1_555 1_555
H23_3 C35_3 1_555 1_555
H24_3 C36_3 1_555 1_555
Zn4_2 N10_2 1_555 1_555
C10_3 C11_3 1_555 1_555
C12_3 C13_3 1_555 1_555
N9_3 C21_3 1_555 1_555
C25_4 C26_4 1_555 1_555
C28_4 C29_3 1_555 1_555
C30_3 C31_3 1_555 1_555
C33_3 C34_3 1_555 1_555
C35_3 C36_3 1_555 1_555
Zn4_2 I3_4 1_555 1_555
I4_4 Zn4_2 1_555 1_555
N4_4 Zn4_2 1_555 1_555
C4_3 N4_4 1_555 1_555
H1_4 C4_3 1_555 1_555
C5_3 C4_3 1_555 1_555
H3_3 C7_3 1_555 1_555
C8_3 N4_4 1_555 1_555
H4_3 C8_3 1_555 1_555
C7_3 C8_3 1_555 1_555
I2_5 Zn1_5 1_555 1_555
N5_5 Zn1_5 1_555 1_555
H15_5 C25_5 1_555 1_555
C26_5 N10_3 1_555 1_555
H16_5 C26_5 1_555 1_555
N11_5 Zn1_5 1_555 1_555
C27_5 N11_5 1_555 1_555
H17_5 C27_5 1_555 1_555
C28_5 C27_5 1_555 1_555
H18_5 C28_5 1_555 1_555
Zn4_3 N10_3 1_555 1_555
C25_5 C26_5 1_555 1_555
Zn4_3 I3_5 1_555 1_555
I4_5 Zn4_3 1_555 1_555
N4_5 Zn4_3 1_555 1_555
Zn3_2 I5_3 1_555 1_555
I6_3 Zn3_2 1_555 1_555
N1_3 C1_3 1_555 1_555
N2_3 C1_3 1_555 1_555
N3_3 C2_3 1_555 1_555
C1_3 C6_3 1_555 1_555
C2_3 N2_3 1_555 1_555
C3_3 N1_3 1_555 1_555
C10_4 C9_4 1_555 1_555
H6_4 C10_4 1_555 1_555
C11_4 C2_3 1_555 1_555
C12_4 C11_4 1_555 1_555
H8_4 C13_4 1_555 1_555
N6_3 Zn3_2 1_555 1_555
C14_3 N6_3 1_555 1_555
H9_3 C14_3 1_555 1_555
C15_3 C14_3 1_555 1_555
H10_3 C15_3 1_555 1_555
C16_3 C3_3 1_555 1_555
C17_3 C16_3 1_555 1_555
H11_3 C17_3 1_555 1_555
C18_3 N6_3 1_555 1_555
H12_3 C18_3 1_555 1_555
N7_4 C19_4 1_555 1_555
N8_4 C20_4 1_555 1_555
N9_4 C19_4 1_555 1_555
C19_4 C24_4 1_555 1_555
C20_4 N7_4 1_555 1_555
C21_4 N8_4 1_555 1_555
C22_4 H13_4 1_555 1_555
C23_4 C22_4 1_555 1_555
H14_4 C23_4 1_555 1_555
C24_4 C23_4 1_555 1_555
C29_4 C20_4 1_555 1_555
C30_4 C29_4 1_555 1_555
H19_4 C30_4 1_555 1_555
H20_4 C31_4 1_555 1_555
N12_2 C32_4 1_555 1_555
C32_4 H21_3 1_555 1_555
C33_4 C32_4 1_555 1_555
H22_4 C33_4 1_555 1_555
C34_4 C21_4 1_555 1_555
C35_4 C34_4 1_555 1_555
H23_4 C35_4 1_555 1_555
C36_4 N12_2 1_555 1_555
H24_4 C36_4 1_555 1_555
N14_2 Zn3_2 1_555 1_555
Zn5_2 N12_2 1_555 1_555
N3_3 C3_3 1_555 1_555
C10_4 C11_4 1_555 1_555
C12_4 C13_4 1_555 1_555
C15_3 C16_3 1_555 1_555
C17_3 C18_3 1_555 1_555
N9_4 C21_4 1_555 1_555
C30_4 C31_4 1_555 1_555
C33_4 C34_4 1_555 1_555
C35_4 C36_4 1_555 1_555
Zn5_2 I5_4 1_555 1_555
I6_4 Zn5_2 1_555 1_555
N1_4 C1_4 1_555 1_555
N2_4 C1_4 1_555 1_555
N3_4 C2_4 1_555 1_555
C1_4 C6_4 1_555 1_555
C2_4 N2_4 1_555 1_555
C3_4 N1_4 1_555 1_555
N6_4 Zn5_2 1_555 1_555
C14_4 N6_4 1_555 1_555
H9_4 C14_4 1_555 1_555
C15_4 C14_4 1_555 1_555
H10_4 C15_4 1_555 1_555
C16_4 C3_4 1_555 1_555
C17_4 C16_4 1_555 1_555
H11_4 C17_4 1_555 1_555
C18_4 N6_4 1_555 1_555
H12_4 C18_4 1_555 1_555
N3_4 C3_4 1_555 1_555
C15_4 C16_4 1_555 1_555
C17_4 C18_4 1_555 1_555
Zn2_3 I3_6 1_555 1_555
I4_6 Zn2_3 1_555 1_555
N4_6 Zn2_3 1_555 1_555
C4_4 N4_6 1_555 1_555
H1_6 C4_4 1_555 1_555
C5_4 C4_4 1_555 1_555
H3_4 C7_4 1_555 1_555
C8_4 N4_6 1_555 1_555
H4_4 C8_4 1_555 1_555
N13_3 Zn2_3 1_555 1_555
C7_4 C8_4 1_555 1_555
Zn1_6 I1_4 1_555 1_555
I2_6 Zn1_6 1_555 1_555
N5_6 Zn1_6 1_555 1_555
C9_5 N5_6 1_555 1_555
H5_6 C9_5 1_555 1_555
C10_5 C9_5 1_555 1_555
H6_5 C10_5 1_555 1_555
C12_5 C11_5 1_555 1_555
H7_5 C12_5 1_555 1_555
C13_5 N5_6 1_555 1_555
H8_5 C13_5 1_555 1_555
N7_5 C19_5 1_555 1_555
N8_5 C20_5 1_555 1_555
N9_5 C19_5 1_555 1_555
C19_5 C24_5 1_555 1_555
C20_5 N7_5 1_555 1_555
C21_5 N8_5 1_555 1_555
N13_3 C22_5 1_555 1_555
C22_5 H13_5 1_555 1_555
C23_5 C22_5 1_555 1_555
H14_5 C23_5 1_555 1_555
C24_5 C23_5 1_555 1_555
C25_6 C24_5 1_555 1_555
H15_6 C25_6 1_555 1_555
C26_6 N13_3 1_555 1_555
H16_6 C26_6 1_555 1_555
N11_6 Zn1_6 1_555 1_555
C27_6 N11_6 1_555 1_555
H17_6 C27_6 1_555 1_555
C28_6 C27_6 1_555 1_555
H18_6 C28_6 1_555 1_555
C29_5 C20_5 1_555 1_555
C30_5 C29_5 1_555 1_555
H19_5 C30_5 1_555 1_555
C31_5 N11_6 1_555 1_555
H20_5 C31_5 1_555 1_555
C33_5 C32_5 1_555 1_555
H22_5 C33_5 1_555 1_555
C34_5 C21_5 1_555 1_555
C35_5 C34_5 1_555 1_555
H23_5 C35_5 1_555 1_555
H24_5 C36_5 1_555 1_555
C10_5 C11_5 1_555 1_555
C12_5 C13_5 1_555 1_555
N9_5 C21_5 1_555 1_555
C25_6 C26_6 1_555 1_555
C28_6 C29_5 1_555 1_555
C30_5 C31_5 1_555 1_555
C33_5 C34_5 1_555 1_555
C35_5 C36_5 1_555 1_555
I2_7 Zn1_7 1_555 1_555
N5_7 Zn1_7 1_555 1_555
C9_6 N5_7 1_555 1_555
H5_7 C9_6 1_555 1_555
C10_6 C9_6 1_555 1_555
H6_6 C10_6 1_555 1_555
C12_6 C11_6 1_555 1_555
C13_6 N5_7 1_555 1_555
H8_6 C13_6 1_555 1_555
N7_6 C19_6 1_555 1_555
N8_6 C20_6 1_555 1_555
N9_6 C19_6 1_555 1_555
C19_6 C24_6 1_555 1_555
C20_6 N7_6 1_555 1_555
C21_6 N8_6 1_555 1_555
N10_4 C22_6 1_555 1_555
C22_6 H13_6 1_555 1_555
C23_6 C22_6 1_555 1_555
H14_6 C23_6 1_555 1_555
C24_6 C23_6 1_555 1_555
C25_7 C24_6 1_555 1_555
H15_7 C25_7 1_555 1_555
C26_7 N10_4 1_555 1_555
H16_7 C26_7 1_555 1_555
N11_7 Zn1_7 1_555 1_555
C27_7 N11_7 1_555 1_555
H17_7 C27_7 1_555 1_555
C28_7 C27_7 1_555 1_555
H18_7 C28_7 1_555 1_555
C29_6 C20_6 1_555 1_555
C30_6 C29_6 1_555 1_555
H19_6 C30_6 1_555 1_555
C31_6 N11_7 1_555 1_555
H20_6 C31_6 1_555 1_555
C33_6 C32_6 1_555 1_555
H22_6 C33_6 1_555 1_555
C34_6 C21_6 1_555 1_555
C35_6 C34_6 1_555 1_555
H23_6 C35_6 1_555 1_555
H24_6 C36_6 1_555 1_555
Zn4_4 N10_4 1_555 1_555
C10_6 C11_6 1_555 1_555
C12_6 C13_6 1_555 1_555
N9_6 C21_6 1_555 1_555
C25_7 C26_7 1_555 1_555
C28_7 C29_6 1_555 1_555
C30_6 C31_6 1_555 1_555
C33_6 C34_6 1_555 1_555
C35_6 C36_6 1_555 1_555
Zn4_4 I3_7 1_555 1_555
Zn3_3 I5_5 1_555 1_555
I4_7 Zn4_4 1_555 1_555
I6_5 Zn3_3 1_555 1_555
N1_5 C1_5 1_555 1_555
N2_5 C1_5 1_555 1_555
N3_5 C2_5 1_555 1_555
C1_5 C6_5 1_555 1_555
C2_5 N2_5 1_555 1_555
C3_5 N1_5 1_555 1_555
N4_7 Zn4_4 1_555 1_555
C4_5 N4_7 1_555 1_555
H1_7 C4_5 1_555 1_555
C5_5 C4_5 1_555 1_555
H2_5 C5_5 1_555 1_555
C6_5 C5_5 1_555 1_555
C7_5 C6_5 1_555 1_555
H3_5 C7_5 1_555 1_555
C8_5 N4_7 1_555 1_555
H4_5 C8_5 1_555 1_555
C10_7 C9_7 1_555 1_555
H6_7 C10_7 1_555 1_555
C11_7 C2_5 1_555 1_555
C12_7 C11_7 1_555 1_555
H7_6 C12_7 1_555 1_555
H8_7 C13_7 1_555 1_555
N6_5 Zn3_3 1_555 1_555
C14_5 N6_5 1_555 1_555
H9_5 C14_5 1_555 1_555
C15_5 C14_5 1_555 1_555
H10_5 C15_5 1_555 1_555
C16_5 C3_5 1_555 1_555
C17_5 C16_5 1_555 1_555
H11_5 C17_5 1_555 1_555
C18_5 N6_5 1_555 1_555
H12_5 C18_5 1_555 1_555
N7_7 C19_7 1_555 1_555
N8_7 C20_7 1_555 1_555
N9_7 C19_7 1_555 1_555
C19_7 C24_7 1_555 1_555
C20_7 N7_7 1_555 1_555
C21_7 N8_7 1_555 1_555
C22_7 H13_7 1_555 1_555
C23_7 C22_7 1_555 1_555
H14_7 C23_7 1_555 1_555
C24_7 C23_7 1_555 1_555
C29_7 C20_7 1_555 1_555
C30_7 C29_7 1_555 1_555
H19_7 C30_7 1_555 1_555
H20_7 C31_7 1_555 1_555
N12_3 C32_7 1_555 1_555
C32_7 H21_5 1_555 1_555
C33_7 C32_7 1_555 1_555
H22_7 C33_7 1_555 1_555
C34_7 C21_7 1_555 1_555
C35_7 C34_7 1_555 1_555
H23_7 C35_7 1_555 1_555
C36_7 N12_3 1_555 1_555
H24_7 C36_7 1_555 1_555
N14_3 Zn3_3 1_555 1_555
Zn5_3 N12_3 1_555 1_555
N3_5 C3_5 1_555 1_555
C7_5 C8_5 1_555 1_555
C10_7 C11_7 1_555 1_555
C12_7 C13_7 1_555 1_555
C15_5 C16_5 1_555 1_555
C17_5 C18_5 1_555 1_555
N9_7 C21_7 1_555 1_555
C30_7 C31_7 1_555 1_555
C33_7 C34_7 1_555 1_555
C35_7 C36_7 1_555 1_555
Zn5_3 I5_6 1_555 1_555
I6_6 Zn5_3 1_555 1_555
N1_6 C1_6 1_555 1_555
N2_6 C1_6 1_555 1_555
N3_6 C2_6 1_555 1_555
C1_6 C6_6 1_555 1_555
C2_6 N2_6 1_555 1_555
C3_6 N1_6 1_555 1_555
C5_6 C4_6 1_555 1_555
H2_6 C5_6 1_555 1_555
C6_6 C5_6 1_555 1_555
C7_6 C6_6 1_555 1_555
H3_6 C7_6 1_555 1_555
H4_6 C8_6 1_555 1_555
N6_6 Zn5_3 1_555 1_555
C14_6 N6_6 1_555 1_555
H9_6 C14_6 1_555 1_555
C15_6 C14_6 1_555 1_555
H10_6 C15_6 1_555 1_555
C16_6 C3_6 1_555 1_555
C17_6 C16_6 1_555 1_555
H11_6 C17_6 1_555 1_555
C18_6 N6_6 1_555 1_555
H12_6 C18_6 1_555 1_555
N3_6 C3_6 1_555 1_555
C7_6 C8_6 1_555 1_555
C15_6 C16_6 1_555 1_555
C17_6 C18_6 1_555 1_555
C5_7 C4_7 1_555 1_555
H3_7 C7_7 1_555 1_555
H4_7 C8_7 1_555 1_555
C7_7 C8_7 1_555 1_555
Zn2_4 I3_8 1_555 1_555
I4_8 Zn2_4 1_555 1_555
N4_8 Zn2_4 1_555 1_555
N13_4 Zn2_4 1_555 1_555
Zn1_8 I1_6 1_555 1_555
I2_8 Zn1_8 1_555 1_555
N5_8 Zn1_8 1_555 1_555
H15_8 C25_8 1_555 1_555
C26_8 N13_4 1_555 1_555
H16_8 C26_8 1_555 1_555
N11_8 Zn1_8 1_555 1_555
C27_8 N11_8 1_555 1_555
H17_8 C27_8 1_555 1_555
C28_8 C27_8 1_555 1_555
H18_8 C28_8 1_555 1_555
C25_8 C26_8 1_555 1_555
Zn3_4 I5_7 1_555 1_555
I6_7 Zn3_4 1_555 1_555
N1_7 C1_7 1_555 1_555
N2_7 C1_7 1_555 1_555
N3_7 C2_7 1_555 1_555
C1_7 C6_7 1_555 1_555
C2_7 N2_7 1_555 1_555
C3_7 N1_7 1_555 1_555
C10_8 C9_8 1_555 1_555
H6_8 C10_8 1_555 1_555
C11_8 C2_7 1_555 1_555
C12_8 C11_8 1_555 1_555
H8_8 C13_8 1_555 1_555
N6_7 Zn3_4 1_555 1_555
C14_7 N6_7 1_555 1_555
H9_7 C14_7 1_555 1_555
C15_7 C14_7 1_555 1_555
H10_7 C15_7 1_555 1_555
C16_7 C3_7 1_555 1_555
C17_7 C16_7 1_555 1_555
H11_7 C17_7 1_555 1_555
C18_7 N6_7 1_555 1_555
H12_7 C18_7 1_555 1_555
N7_8 C19_8 1_555 1_555
N8_8 C20_8 1_555 1_555
N9_8 C19_8 1_555 1_555
C19_8 C24_8 1_555 1_555
C20_8 N7_8 1_555 1_555
C21_8 N8_8 1_555 1_555
C22_8 H13_8 1_555 1_555
C23_8 C22_8 1_555 1_555
H14_8 C23_8 1_555 1_555
C24_8 C23_8 1_555 1_555
C29_8 C20_8 1_555 1_555
C30_8 C29_8 1_555 1_555
H19_8 C30_8 1_555 1_555
H20_8 C31_8 1_555 1_555
N12_4 C32_8 1_555 1_555
C32_8 H21_7 1_555 1_555
C33_8 C32_8 1_555 1_555
H22_8 C33_8 1_555 1_555
C34_8 C21_8 1_555 1_555
C35_8 C34_8 1_555 1_555
H23_8 C35_8 1_555 1_555
C36_8 N12_4 1_555 1_555
H24_8 C36_8 1_555 1_555
N14_4 Zn3_4 1_555 1_555
Zn5_4 N12_4 1_555 1_555
N3_7 C3_7 1_555 1_555
C10_8 C11_8 1_555 1_555
C12_8 C13_8 1_555 1_555
C15_7 C16_7 1_555 1_555
C17_7 C18_7 1_555 1_555
N9_8 C21_8 1_555 1_555
C30_8 C31_8 1_555 1_555
C33_8 C34_8 1_555 1_555
C35_8 C36_8 1_555 1_555
Zn5_4 I5_8 1_555 1_555
I6_8 Zn5_4 1_555 1_555
N1_8 C1_8 1_555 1_555
N2_8 C1_8 1_555 1_555
N3_8 C2_8 1_555 1_555
C1_8 C6_8 1_555 1_555
C2_8 N2_8 1_555 1_555
C3_8 N1_8 1_555 1_555
N6_8 Zn5_4 1_555 1_555
C14_8 N6_8 1_555 1_555
H9_8 C14_8 1_555 1_555
C15_8 C14_8 1_555 1_555
H10_8 C15_8 1_555 1_555
C16_8 C3_8 1_555 1_555
C17_8 C16_8 1_555 1_555
H11_8 C17_8 1_555 1_555
C18_8 N6_8 1_555 1_555
H12_8 C18_8 1_555 1_555
N3_8 C3_8 1_555 1_555
C15_8 C16_8 1_555 1_555
C17_8 C18_8 1_555 1_555
C5_8 C4_8 1_555 1_555
H3_8 C7_8 1_555 1_555
H4_8 C8_8 1_555 1_555
C7_8 C8_8 1_555 1_555

#END
