
###############################################################################
#
# This file contains modified crystal structure data generated from the
# MOF subset of the Cambridge Structural Database (CSD) v543 
# hosted by the Cambridge Crystallographic Data Centre (CCDC).
#
# This work is licensed under the Creative Commons
# Attribution-NonCommercial-ShareAlike 4.0 International License.
# To view a copy of this license, visit
# http://creativecommons.org/licenses/by-nc-sa/4.0/
# or send a letter to
# Creative Commons, PO Box 1866, Mountain View, CA 94042, USA.
#
# CIF created using the CSD Python API on 29 September 2022
# The structure has been converted into the P1 space group
# The structure has a 3D framework
# The original CSD entry LUDWEM04 is in the monoclinic crystal system
# The framework has been calculated to contain at least 10.0% void space
# The void calculation uses a probe of radius 1.32A, grid spacing 0.4
#
###############################################################################

data_LUDWEM04
_chemical_formula_moiety         '(C288 H192 I48 N96 Zn24)n'
_symmetry_cell_setting           triclinic
_symmetry_space_group_name_H-M   'P 1'
_symmetry_Int_Tables_number      1
_space_group_name_Hall           'P 1'
loop_
_symmetry_equiv_pos_site_id
_symmetry_equiv_pos_as_xyz
1 x,y,z
_cell_length_a                   34.560(7)
_cell_length_b                   14.520(3)
_cell_length_c                   30.860(6)
_cell_angle_alpha                90
_cell_angle_beta                 100.73(3)
_cell_angle_gamma                90
_cell_volume                     15215.1
loop_
_atom_site_label
_atom_site_type_symbol
_atom_site_fract_x
_atom_site_fract_y
_atom_site_fract_z
I1 I 0.61822(16) 0.2400(4) 0.55695(19)
I2 I 0.52416(14) 0.1515(4) 0.63012(17)
Zn2 Zn 0.5830(2) 0.1240(6) 0.5937(3)
N5 N 0.5690(5) 0.0197(10) 0.5520(5)
H8 H 0.620486 0.029938 0.530156
N14 N 0.6221(4) 0.0605(11) 0.6418(4)
N6 N 0.8323(3) 0.0364(11) 0.8910(4)
C14 C 0.8106(4) 0.0834(9) 0.8554(5)
H9 H 0.816287 0.144681 0.850435
C15 C 0.7804(4) 0.0388(11) 0.8271(4)
H10 H 0.765874 0.070197 0.803228
C24 C 0.6503(4) 0.1069(9) 0.6721(5)
H17 H 0.653707 0.170026 0.669189
C28 C 0.6733(4) 0.0591(11) 0.7065(4)
H20 H 0.692103 0.090194 0.726755
Zn4 Zn 0.8746(2) 0.0995(6) 0.9351(3)
I5 I 0.89812(17) 0.2333(4) 0.8970(2)
H2 H 0.921292 0.014568 0.875926
N1 N 0.9189(3) 0.0071(10) 0.9408(5)
I3 I 0.73367(15) 0.7283(4) 0.29584(19)
I4 I 0.62564(15) 0.6544(4) 0.19865(17)
I5_2 I 0.39812(17) 0.2667(4) 0.3970(2)
I6 I 0.35303(15) 0.3982(5) 0.50832(19)
Zn1 Zn 0.3746(2) 0.4005(6) 0.4351(3)
Zn3 Zn 0.6711(2) 0.6369(6) 0.2721(3)
C1 C 0.4821(3) 0.6125(10) 0.4435(5)
C2 C 0.4646(4) 0.5722(11) 0.4038(4)
H1 H 0.474053 0.585237 0.378193
C3 C 0.4330(4) 0.5124(11) 0.4025(4)
H2_2 H 0.421292 0.485432 0.375926
N1_2 N 0.4189(3) 0.4929(10) 0.4408(5)
C4 C 0.4364(4) 0.5332(11) 0.4805(4)
H3 H 0.426923 0.520153 0.506134
C5 C 0.4680(4) 0.5930(11) 0.4818(4)
H4 H 0.479685 0.619959 0.508402
N2 N 0.5756(3) 0.7797(10) 0.4402(5)
C6 C 0.5522(4) 0.7931(9) 0.4718(4)
N3 N 0.5210(4) 0.7339(11) 0.4737(4)
C7 C 0.5131(3) 0.6612(10) 0.4440(5)
N4 N 0.5365(4) 0.6478(9) 0.4124(5)
C8 C 0.5677(4) 0.7071(11) 0.4105(4)
C9 C 0.5351(4) 0.9667(12) 0.5493(5)
H5 H 0.515853 0.983598 0.565130
C10 C 0.5301(4) 0.8886(11) 0.5228(5)
H6 H 0.507403 0.853159 0.520957
C11 C 0.5589(5) 0.8634(10) 0.4991(5)
C12 C 0.5928(4) 0.9164(12) 0.5018(5)
H7 H 0.612037 0.899499 0.485984
C13 C 0.5978(4) 0.9945(11) 0.5283(5)
C16 C 0.7719(3) 0.0528(11) 0.3345(4)
C17 C 0.7936(4) 0.0998(9) 0.3701(5)
H11 H 0.787948 0.161122 0.375058
C18 C 0.8238(4) 0.0552(11) 0.3984(4)
H12 H 0.838361 0.086639 0.422265
N7 N 0.6830(5) 0.5038(8) 0.2772(5)
C19 C 0.6561(4) 0.4432(12) 0.2532(5)
H13 H 0.633420 0.465655 0.235214
C20 C 0.6631(4) 0.3489(11) 0.2559(5)
H14 H 0.645067 0.308285 0.239857
C21 C 0.6969(4) 0.3152(8) 0.2827(5)
C22 C 0.7238(3) 0.3759(11) 0.3068(5)
H15 H 0.746459 0.353371 0.324706
C23 C 0.7168(4) 0.4702(10) 0.3040(5)
H16 H 0.734813 0.510742 0.320064
C25 C 0.6170(4) 0.0338(11) 0.1461(5)
H18 H 0.598197 0.064909 0.125903
C26 C 0.6400(5) 0.0817(9) 0.1806(6)
H19 H 0.636592 0.144740 0.183467
C27 C 0.6682(4) 0.0352(11) 0.2108(5)
C29 C 0.5914(4) 0.6883(13) 0.3805(5)
C30 C 0.6286(4) 0.7277(13) 0.3854(5)
H21 H 0.637514 0.766582 0.409133
C31 C 0.6525(4) 0.7090(13) 0.3549(5)
H22 H 0.677402 0.735366 0.358207
N9 N 0.6392(4) 0.6509(13) 0.3195(4)
C32 C 0.6020(5) 0.6115(13) 0.3146(5)
H23 H 0.593052 0.572623 0.290843
C33 C 0.5781(4) 0.6302(14) 0.3451(6)
H24 H 0.553163 0.603838 0.341768
N10 N 0.7359(4) 0.1813(11) 0.3106(4)
C34 C 0.7437(3) 0.0886(11) 0.3049(4)
N11 N 0.7204(4) 0.0386(8) 0.2714(5)
C35 C 0.6893(4) 0.0812(10) 0.2436(4)
N12 N 0.6815(3) 0.1739(10) 0.2493(4)
C36 C 0.7048(4) 0.2239(8) 0.2828(5)
N13 N 0.3323(3) 0.4636(11) 0.3910(4)
C14_2 C 0.3106(4) 0.4166(9) 0.3554(5)
H9_2 H 0.316287 0.355319 0.350435
C15_2 C 0.2804(4) 0.4612(11) 0.3271(4)
H10_2 H 0.265874 0.429803 0.303228
C16_2 C 0.2719(3) 0.5528(11) 0.3345(4)
C17_2 C 0.2936(4) 0.5998(9) 0.3701(5)
H11_2 H 0.287948 0.661122 0.375058
C18_2 C 0.3238(4) 0.5552(11) 0.3984(4)
H12_2 H 0.338361 0.586639 0.422265
C19_2 C 0.1561(4) 0.9432(12) 0.2532(5)
H13_2 H 0.133420 0.965655 0.235214
C20_2 C 0.1631(4) 0.8489(11) 0.2559(5)
H14_2 H 0.145067 0.808285 0.239857
C21_2 C 0.1969(4) 0.8152(8) 0.2827(5)
C22_2 C 0.2238(3) 0.8759(11) 0.3068(5)
H15_2 H 0.246459 0.853371 0.324706
C23_2 C 0.2168(4) 0.9702(10) 0.3040(5)
C24_2 C 0.1503(4) 0.3931(9) 0.1721(5)
H17_2 H 0.153707 0.329974 0.169189
N8 N 0.1221(4) 0.4395(11) 0.1418(4)
C25_2 C 0.1170(4) 0.5338(11) 0.1461(5)
H18_2 H 0.098197 0.564909 0.125903
C26_2 C 0.1400(5) 0.5817(9) 0.1806(6)
H19_2 H 0.136592 0.644740 0.183467
C27_2 C 0.1682(4) 0.5352(11) 0.2108(5)
C28_2 C 0.1733(4) 0.4409(11) 0.2065(4)
H20_2 H 0.192103 0.409806 0.226755
N10_2 N 0.2359(4) 0.6813(11) 0.3106(4)
C34_2 C 0.2437(3) 0.5886(11) 0.3049(4)
N11_2 N 0.2204(4) 0.5386(8) 0.2714(5)
C35_2 C 0.1893(4) 0.5812(10) 0.2436(4)
N12_2 N 0.1815(3) 0.6739(10) 0.2493(4)
C36_2 C 0.2048(4) 0.7239(8) 0.2828(5)
Zn5 Zn 0.0830(2) 0.3760(6) 0.0937(3)
I1_2 I 0.11822(16) 0.2600(4) 0.05695(19)
I2_2 I 0.02416(14) 0.3485(4) 0.13012(17)
N5_2 N 0.0690(5) 0.4803(10) 0.0520(5)
C9_2 C 0.0351(4) 0.5333(12) 0.0493(5)
H5_2 H 0.015853 0.516402 0.065130
C10_2 C 0.0301(4) 0.6114(11) 0.0228(5)
H6_2 H 0.007403 0.646841 0.020957
C12_2 C 0.0928(4) 0.5836(12) 0.0018(5)
C13_2 C 0.0978(4) 0.5055(11) 0.0283(5)
H8_2 H 0.120486 0.470062 0.030156
N6_2 N 0.8323(3) 0.9636(11) 0.3910(4)
C14_3 C 0.8106(4) 0.9166(9) 0.3554(5)
H9_3 H 0.816287 0.855319 0.350435
C15_3 C 0.7804(4) 0.9612(11) 0.3271(4)
H10_3 H 0.765874 0.929803 0.303228
C24_3 C 0.6503(4) 0.8931(9) 0.1721(5)
H17_3 H 0.653707 0.829974 0.169189
N8_2 N 0.6221(4) 0.9395(11) 0.1418(4)
C28_3 C 0.6733(4) 0.9409(11) 0.2065(4)
H20_3 H 0.692103 0.909806 0.226755
Zn4_2 Zn 0.8746(2) 0.9005(6) 0.4351(3)
Zn5_2 Zn 0.5830(2) 0.8760(6) 0.0937(3)
I5_3 I 0.89812(17) 0.7667(4) 0.3970(2)
I6_2 I 0.85303(15) 0.8982(5) 0.50832(19)
H2_3 H 0.921292 0.985432 0.375926
N1_3 N 0.9189(3) 0.9929(10) 0.4408(5)
I1_3 I 0.61822(16) 0.7600(4) 0.05695(19)
I2_3 I 0.52416(14) 0.8485(4) 0.13012(17)
N5_3 N 0.5690(5) 0.9803(10) 0.0520(5)
H8_3 H 0.620486 0.970062 0.030156
I1_4 I 0.38178(16) 0.2400(4) 0.94305(19)
I2_4 I 0.47584(14) 0.1515(4) 0.86988(17)
Zn2_2 Zn 0.4170(2) 0.1240(6) 0.9063(3)
N5_4 N 0.4310(5) 0.0197(10) 0.9480(5)
H8_4 H 0.379514 0.029938 0.969844
N14_2 N 0.3779(4) 0.0605(11) 0.8582(4)
N6_3 N 0.1677(3) 0.0364(11) 0.6090(4)
C14_4 C 0.1894(4) 0.0834(9) 0.6446(5)
H9_4 H 0.183713 0.144681 0.649565
C15_4 C 0.2196(4) 0.0388(11) 0.6729(4)
H10_4 H 0.234126 0.070197 0.696772
C24_4 C 0.3497(4) 0.1069(9) 0.8279(5)
H17_4 H 0.346293 0.170026 0.830811
C28_4 C 0.3267(4) 0.0591(11) 0.7935(4)
H20_4 H 0.307897 0.090194 0.773245
Zn4_3 Zn 0.1254(2) 0.0995(6) 0.5649(3)
I5_4 I 0.10188(17) 0.2333(4) 0.6030(2)
I6_3 I 0.14697(15) 0.1018(5) 0.49168(19)
H2_4 H 0.078708 0.014568 0.624074
N1_4 N 0.0811(3) 0.0071(10) 0.5592(5)
I3_2 I 0.26633(15) 0.7283(4) 0.20416(19)
I4_2 I 0.37436(15) 0.6544(4) 0.30135(17)
I5_5 I 0.60188(17) 0.2667(4) 0.1030(2)
Zn1_2 Zn 0.6254(2) 0.4005(6) 0.0649(3)
Zn3_2 Zn 0.3289(2) 0.6369(6) 0.2279(3)
C1_2 C 0.5179(3) 0.6125(10) 0.0565(5)
C2_2 C 0.5354(4) 0.5722(11) 0.0962(4)
H1_2 H 0.525947 0.585237 0.121807
C3_2 C 0.5670(4) 0.5124(11) 0.0975(4)
H2_5 H 0.578708 0.485432 0.124074
N1_5 N 0.5811(3) 0.4929(10) 0.0592(5)
C4_2 C 0.5636(4) 0.5332(11) 0.0195(4)
C5_2 C 0.5320(4) 0.5930(11) 0.0182(4)
N2_2 N 0.4244(3) 0.7797(10) 0.0598(5)
C6_2 C 0.4478(4) 0.7931(9) 0.0282(4)
N3_2 N 0.4790(4) 0.7339(11) 0.0263(4)
C7_2 C 0.4869(3) 0.6612(10) 0.0560(5)
N4_2 N 0.4635(4) 0.6478(9) 0.0876(5)
C8_2 C 0.4323(4) 0.7071(11) 0.0895(4)
C11_2 C 0.4411(5) 0.8634(10) 0.0009(5)
H7_2 H 0.387963 0.899499 0.014016
C16_3 C 0.2281(3) 0.0528(11) 0.1655(4)
C17_3 C 0.2064(4) 0.0998(9) 0.1299(5)
H11_3 H 0.212052 0.161122 0.124942
C18_3 C 0.1762(4) 0.0552(11) 0.1016(4)
H12_3 H 0.161639 0.086639 0.077735
N7_2 N 0.3170(5) 0.5038(8) 0.2228(5)
C19_3 C 0.3439(4) 0.4432(12) 0.2468(5)
H13_3 H 0.366580 0.465655 0.264786
C20_3 C 0.3369(4) 0.3489(11) 0.2441(5)
H14_3 H 0.354933 0.308285 0.260143
C21_3 C 0.3031(4) 0.3152(8) 0.2173(5)
C22_3 C 0.2762(3) 0.3759(11) 0.1932(5)
H15_3 H 0.253541 0.353371 0.175294
C23_3 C 0.2832(4) 0.4702(10) 0.1960(5)
H16_2 H 0.265187 0.510742 0.179936
C25_3 C 0.3830(4) 0.0338(11) 0.3539(5)
H18_3 H 0.401803 0.064909 0.374097
C26_3 C 0.3600(5) 0.0817(9) 0.3194(6)
H19_3 H 0.363408 0.144740 0.316533
C27_3 C 0.3318(4) 0.0352(11) 0.2892(5)
C29_2 C 0.4086(4) 0.6883(13) 0.1195(5)
C30_2 C 0.3714(4) 0.7277(13) 0.1146(5)
H21_2 H 0.362486 0.766582 0.090867
C31_2 C 0.3475(4) 0.7090(13) 0.1451(5)
H22_2 H 0.322598 0.735366 0.141793
N9_2 N 0.3608(4) 0.6509(13) 0.1805(4)
C32_2 C 0.3980(5) 0.6115(13) 0.1854(5)
H23_2 H 0.406948 0.572623 0.209157
C33_2 C 0.4219(4) 0.6302(14) 0.1549(6)
H24_2 H 0.446837 0.603838 0.158232
N10_3 N 0.2641(4) 0.1813(11) 0.1894(4)
C34_3 C 0.2563(3) 0.0886(11) 0.1951(4)
N11_3 N 0.2796(4) 0.0386(8) 0.2286(5)
C35_3 C 0.3107(4) 0.0812(10) 0.2564(4)
N12_3 N 0.3185(3) 0.1739(10) 0.2507(4)
C36_3 C 0.2952(4) 0.2239(8) 0.2172(5)
N13_2 N 0.6677(3) 0.4636(11) 0.1090(4)
C14_5 C 0.6894(4) 0.4166(9) 0.1446(5)
H9_5 H 0.683713 0.355319 0.149565
C15_5 C 0.7196(4) 0.4612(11) 0.1729(4)
H10_5 H 0.734126 0.429803 0.196772
C16_4 C 0.7281(3) 0.5528(11) 0.1655(4)
C17_4 C 0.7064(4) 0.5998(9) 0.1299(5)
H11_4 H 0.712052 0.661122 0.124942
C18_4 C 0.6762(4) 0.5552(11) 0.1016(4)
H12_4 H 0.661639 0.586639 0.077735
C19_4 C 0.8439(4) 0.9432(12) 0.2468(5)
H13_4 H 0.866580 0.965655 0.264786
C20_4 C 0.8369(4) 0.8489(11) 0.2441(5)
H14_4 H 0.854933 0.808285 0.260143
C21_4 C 0.8031(4) 0.8152(8) 0.2173(5)
C22_4 C 0.7762(3) 0.8759(11) 0.1932(5)
H15_4 H 0.753541 0.853371 0.175294
C23_4 C 0.7832(4) 0.9702(10) 0.1960(5)
C24_5 C 0.8497(4) 0.3931(9) 0.3279(5)
H17_5 H 0.846293 0.329974 0.330811
N8_3 N 0.8779(4) 0.4395(11) 0.3582(4)
C25_4 C 0.8830(4) 0.5338(11) 0.3539(5)
H18_4 H 0.901803 0.564909 0.374097
C26_4 C 0.8600(5) 0.5817(9) 0.3194(6)
H19_4 H 0.863408 0.644740 0.316533
C27_4 C 0.8318(4) 0.5352(11) 0.2892(5)
C28_5 C 0.8267(4) 0.4409(11) 0.2935(4)
H20_5 H 0.807897 0.409806 0.273245
N10_4 N 0.7641(4) 0.6813(11) 0.1894(4)
C34_4 C 0.7563(3) 0.5886(11) 0.1951(4)
N11_4 N 0.7796(4) 0.5386(8) 0.2286(5)
C35_4 C 0.8107(4) 0.5812(10) 0.2564(4)
N12_4 N 0.8185(3) 0.6739(10) 0.2507(4)
C36_4 C 0.7952(4) 0.7239(8) 0.2172(5)
Zn5_3 Zn 0.9170(2) 0.3760(6) 0.4063(3)
I1_5 I 0.88178(16) 0.2600(4) 0.44305(19)
I2_5 I 0.97584(14) 0.3485(4) 0.36988(17)
I3_3 I 0.76633(15) 0.7717(4) 0.70416(19)
I4_3 I 0.87436(15) 0.8456(4) 0.80135(17)
Zn3_3 Zn 0.8289(2) 0.8631(6) 0.7279(3)
N2_3 N 0.9244(3) 0.7203(10) 0.5598(5)
C6_3 C 0.9478(4) 0.7069(9) 0.5282(4)
N3_3 N 0.9790(4) 0.7661(11) 0.5263(4)
C7_3 C 0.9869(3) 0.8388(10) 0.5560(5)
N4_3 N 0.9635(4) 0.8522(9) 0.5876(5)
C8_3 C 0.9323(4) 0.7929(11) 0.5895(4)
N5_5 N 0.9310(5) 0.4803(10) 0.4480(5)
C9_3 C 0.9649(4) 0.5333(12) 0.4507(5)
H5_3 H 0.984147 0.516402 0.434870
C10_3 C 0.9699(4) 0.6114(11) 0.4772(5)
H6_3 H 0.992597 0.646841 0.479043
C11_3 C 0.9411(5) 0.6366(10) 0.5009(5)
C12_3 C 0.9072(4) 0.5836(12) 0.4982(5)
H7_3 H 0.887963 0.600501 0.514016
C13_3 C 0.9022(4) 0.5055(11) 0.4717(5)
H8_5 H 0.879514 0.470062 0.469844
N7_3 N 0.8170(5) 0.9962(8) 0.7228(5)
H16_3 H 0.765187 0.989258 0.679936
C29_3 C 0.9086(4) 0.8117(13) 0.6195(5)
C30_3 C 0.8714(4) 0.7723(13) 0.6146(5)
H21_3 H 0.862486 0.733418 0.590867
C31_3 C 0.8475(4) 0.7910(13) 0.6451(5)
H22_3 H 0.822598 0.764634 0.641793
N9_3 N 0.8608(4) 0.8491(13) 0.6805(4)
C32_3 C 0.8980(5) 0.8885(13) 0.6854(5)
H23_3 H 0.906948 0.927377 0.709157
C33_3 C 0.9219(4) 0.8698(14) 0.6549(6)
H24_3 H 0.946837 0.896162 0.658232
I6_4 I 0.64697(15) 0.3982(5) 0.99168(19)
H3_2 H 0.573077 0.520153 0.993866
H4_2 H 0.520315 0.619959 0.991598
C9_4 C 0.4649(4) 0.9667(12) 0.9507(5)
H5_4 H 0.484147 0.983598 0.934870
C10_4 C 0.4699(4) 0.8886(11) 0.9772(5)
H6_4 H 0.492597 0.853159 0.979043
C12_4 C 0.4072(4) 0.9164(12) 0.9982(5)
C13_4 C 0.4022(4) 0.9945(11) 0.9717(5)
N6_4 N 0.1677(3) 0.9636(11) 0.1090(4)
C14_6 C 0.1894(4) 0.9166(9) 0.1446(5)
H9_6 H 0.183713 0.855319 0.149565
C15_6 C 0.2196(4) 0.9612(11) 0.1729(4)
H10_6 H 0.234126 0.929803 0.196772
C24_6 C 0.3497(4) 0.8931(9) 0.3279(5)
H17_6 H 0.346293 0.829974 0.330811
N8_4 N 0.3779(4) 0.9395(11) 0.3582(4)
C28_6 C 0.3267(4) 0.9409(11) 0.2935(4)
H20_6 H 0.307897 0.909806 0.273245
Zn4_4 Zn 0.1254(2) 0.9005(6) 0.0649(3)
Zn5_4 Zn 0.4170(2) 0.8760(6) 0.4063(3)
I5_6 I 0.10188(17) 0.7667(4) 0.1030(2)
H2_6 H 0.078708 0.985432 0.124074
N1_6 N 0.0811(3) 0.9929(10) 0.0592(5)
I1_6 I 0.38178(16) 0.7600(4) 0.44305(19)
I2_6 I 0.47584(14) 0.8485(4) 0.36988(17)
N5_6 N 0.4310(5) 0.9803(10) 0.4480(5)
H8_6 H 0.379514 0.970062 0.469844
I1_7 I 0.11822(16) 0.7400(4) 0.55695(19)
I2_7 I 0.02416(14) 0.6515(4) 0.63012(17)
I3_4 I 0.23367(15) 0.2283(4) 0.29584(19)
I4_4 I 0.12564(15) 0.1544(4) 0.19865(17)
Zn2_3 Zn 0.0830(2) 0.6240(6) 0.5937(3)
Zn3_4 Zn 0.1711(2) 0.1369(6) 0.2721(3)
N2_4 N 0.0756(3) 0.2797(10) 0.4402(5)
C6_4 C 0.0522(4) 0.2931(9) 0.4718(4)
N3_4 N 0.0210(4) 0.2339(11) 0.4737(4)
C7_4 C 0.0131(3) 0.1612(10) 0.4440(5)
N4_4 N 0.0365(4) 0.1478(9) 0.4124(5)
C8_4 C 0.0677(4) 0.2071(11) 0.4105(4)
N5_7 N 0.0690(5) 0.5197(10) 0.5520(5)
C9_5 C 0.0351(4) 0.4667(12) 0.5493(5)
H5_5 H 0.015853 0.483598 0.565130
C10_5 C 0.0301(4) 0.3886(11) 0.5228(5)
H6_5 H 0.007403 0.353159 0.520957
C11_4 C 0.0589(5) 0.3634(10) 0.4991(5)
C12_5 C 0.0928(4) 0.4164(12) 0.5018(5)
H7_4 H 0.112037 0.399499 0.485984
C13_5 C 0.0978(4) 0.4945(11) 0.5283(5)
H8_7 H 0.120486 0.529938 0.530156
N7_4 N 0.1830(5) 0.0038(8) 0.2772(5)
H16_4 H 0.234813 0.010742 0.320064
C29_4 C 0.0914(4) 0.1883(13) 0.3805(5)
C30_4 C 0.1286(4) 0.2277(13) 0.3854(5)
H21_4 H 0.137514 0.266582 0.409133
C31_4 C 0.1525(4) 0.2090(13) 0.3549(5)
H22_4 H 0.177402 0.235366 0.358207
N9_4 N 0.1392(4) 0.1509(13) 0.3195(4)
C32_4 C 0.1020(5) 0.1115(13) 0.3146(5)
H23_4 H 0.093052 0.072623 0.290843
C33_4 C 0.0781(4) 0.1302(14) 0.3451(6)
H24_4 H 0.053163 0.103838 0.341768
N14_3 N 0.1221(4) 0.5605(11) 0.6418(4)
I3_5 I 0.73367(15) 0.2717(4) 0.79584(19)
I4_5 I 0.62564(15) 0.3456(4) 0.69865(17)
I5_7 I 0.39812(17) 0.7333(4) 0.8970(2)
Zn1_3 Zn 0.3746(2) 0.5995(6) 0.9351(3)
Zn3_5 Zn 0.6711(2) 0.3631(6) 0.7721(3)
C1_3 C 0.4821(3) 0.3875(10) 0.9435(5)
C2_3 C 0.4646(4) 0.4278(11) 0.9038(4)
H1_3 H 0.474053 0.414763 0.878193
C3_3 C 0.4330(4) 0.4876(11) 0.9025(4)
H2_7 H 0.421292 0.514568 0.875926
N1_7 N 0.4189(3) 0.5071(10) 0.9408(5)
C4_3 C 0.4364(4) 0.4668(11) 0.9805(4)
C5_3 C 0.4680(4) 0.4070(11) 0.9818(4)
N2_5 N 0.5756(3) 0.2203(10) 0.9402(5)
C6_5 C 0.5522(4) 0.2069(9) 0.9718(4)
N3_5 N 0.5210(4) 0.2661(11) 0.9737(4)
C7_5 C 0.5131(3) 0.3388(10) 0.9440(5)
N4_5 N 0.5365(4) 0.3522(9) 0.9124(5)
C8_5 C 0.5677(4) 0.2929(11) 0.9105(4)
C11_5 C 0.5589(5) 0.1366(10) 0.9991(5)
H7_5 H 0.612037 0.100501 0.985984
C16_5 C 0.7719(3) 0.9472(11) 0.8345(4)
C17_5 C 0.7936(4) 0.9002(9) 0.8701(5)
H11_5 H 0.787948 0.838878 0.875058
C18_5 C 0.8238(4) 0.9448(11) 0.8984(4)
H12_5 H 0.838361 0.913361 0.922265
N7_5 N 0.6830(5) 0.4962(8) 0.7772(5)
C19_5 C 0.6561(4) 0.5568(12) 0.7532(5)
H13_5 H 0.633420 0.534345 0.735214
C20_5 C 0.6631(4) 0.6511(11) 0.7559(5)
H14_5 H 0.645067 0.691715 0.739857
C21_5 C 0.6969(4) 0.6848(8) 0.7827(5)
C22_5 C 0.7238(3) 0.6241(11) 0.8068(5)
H15_5 H 0.746459 0.646629 0.824706
C23_5 C 0.7168(4) 0.5298(10) 0.8040(5)
H16_5 H 0.734813 0.489258 0.820064
C25_5 C 0.6170(4) 0.9662(11) 0.6461(5)
H18_5 H 0.598197 0.935091 0.625903
C26_5 C 0.6400(5) 0.9183(9) 0.6806(6)
H19_5 H 0.636592 0.855260 0.683467
C27_5 C 0.6682(4) 0.9648(11) 0.7108(5)
C29_5 C 0.5914(4) 0.3117(13) 0.8805(5)
C30_5 C 0.6286(4) 0.2723(13) 0.8854(5)
H21_5 H 0.637514 0.233418 0.909133
C31_5 C 0.6525(4) 0.2910(13) 0.8549(5)
H22_5 H 0.677402 0.264634 0.858207
N9_5 N 0.6392(4) 0.3491(13) 0.8195(4)
C32_5 C 0.6020(5) 0.3885(13) 0.8146(5)
H23_5 H 0.593052 0.427377 0.790843
C33_5 C 0.5781(4) 0.3698(14) 0.8451(6)
H24_5 H 0.553163 0.396162 0.841768
N10_5 N 0.7359(4) 0.8187(11) 0.8106(4)
C34_5 C 0.7437(3) 0.9114(11) 0.8049(4)
N11_5 N 0.7204(4) 0.9614(8) 0.7714(5)
C35_5 C 0.6893(4) 0.9188(10) 0.7436(4)
N12_5 N 0.6815(3) 0.8261(10) 0.7493(4)
C36_5 C 0.7048(4) 0.7761(8) 0.7828(5)
N13_3 N 0.3323(3) 0.5364(11) 0.8910(4)
C14_7 C 0.3106(4) 0.5834(9) 0.8554(5)
H9_7 H 0.316287 0.644681 0.850435
C15_7 C 0.2804(4) 0.5388(11) 0.8271(4)
H10_7 H 0.265874 0.570197 0.803228
C16_6 C 0.2719(3) 0.4472(11) 0.8345(4)
C17_6 C 0.2936(4) 0.4002(9) 0.8701(5)
H11_6 H 0.287948 0.338878 0.875058
C18_6 C 0.3238(4) 0.4448(11) 0.8984(4)
H12_6 H 0.338361 0.413361 0.922265
C19_6 C 0.1561(4) 0.0568(12) 0.7532(5)
H13_6 H 0.133420 0.034345 0.735214
C20_6 C 0.1631(4) 0.1511(11) 0.7559(5)
H14_6 H 0.145067 0.191715 0.739857
C21_6 C 0.1969(4) 0.1848(8) 0.7827(5)
C22_6 C 0.2238(3) 0.1241(11) 0.8068(5)
H15_6 H 0.246459 0.146629 0.824706
C23_6 C 0.2168(4) 0.0298(10) 0.8040(5)
C24_7 C 0.1503(4) 0.6069(9) 0.6721(5)
H17_7 H 0.153707 0.670026 0.669189
C25_6 C 0.1170(4) 0.4662(11) 0.6461(5)
H18_6 H 0.098197 0.435091 0.625903
C26_6 C 0.1400(5) 0.4183(9) 0.6806(6)
H19_6 H 0.136592 0.355260 0.683467
C27_6 C 0.1682(4) 0.4648(11) 0.7108(5)
C28_7 C 0.1733(4) 0.5591(11) 0.7065(4)
H20_7 H 0.192103 0.590194 0.726755
N10_6 N 0.2359(4) 0.3187(11) 0.8106(4)
C34_6 C 0.2437(3) 0.4114(11) 0.8049(4)
N11_6 N 0.2204(4) 0.4614(8) 0.7714(5)
C35_6 C 0.1893(4) 0.4188(10) 0.7436(4)
N12_6 N 0.1815(3) 0.3261(10) 0.7493(4)
C36_6 C 0.2048(4) 0.2761(8) 0.7828(5)
C1_4 C 0.9821(3) 0.1125(10) 0.4435(5)
C2_4 C 0.9646(4) 0.0722(11) 0.4038(4)
H1_4 H 0.974053 0.085237 0.378193
C3_4 C 0.9330(4) 0.0124(11) 0.4025(4)
C4_4 C 0.9364(4) 0.0332(11) 0.4805(4)
H3_3 H 0.926923 0.020153 0.506134
C5_4 C 0.9680(4) 0.0930(11) 0.4818(4)
H4_3 H 0.979685 0.119959 0.508402
C1_5 C 0.0179(3) 0.1125(10) 0.0565(5)
C2_5 C 0.0354(4) 0.0722(11) 0.0962(4)
H1_5 H 0.025947 0.085237 0.121807
C3_5 C 0.0670(4) 0.0124(11) 0.0975(4)
C4_5 C 0.0636(4) 0.0332(11) 0.0195(4)
C5_5 C 0.0320(4) 0.0930(11) 0.0182(4)
H3_4 H 0.073077 0.020153 0.993866
H4_4 H 0.020315 0.119959 0.991598
I6_5 I 0.14697(15) 0.8982(5) 0.99168(19)
I3_6 I 0.76633(15) 0.2283(4) 0.20416(19)
I4_6 I 0.87436(15) 0.1544(4) 0.30135(17)
Zn3_6 Zn 0.8289(2) 0.1369(6) 0.2279(3)
N2_6 N 0.9244(3) 0.2797(10) 0.0598(5)
C6_6 C 0.9478(4) 0.2931(9) 0.0282(4)
N3_6 N 0.9790(4) 0.2339(11) 0.0263(4)
C7_6 C 0.9869(3) 0.1612(10) 0.0560(5)
N4_6 N 0.9635(4) 0.1478(9) 0.0876(5)
C8_6 C 0.9323(4) 0.2071(11) 0.0895(4)
C11_6 C 0.9411(5) 0.3634(10) 0.0009(5)
H7_6 H 0.887963 0.399499 0.014016
N7_6 N 0.8170(5) 0.0038(8) 0.2228(5)
H16_6 H 0.765187 0.010742 0.179936
C29_6 C 0.9086(4) 0.1883(13) 0.1195(5)
C30_6 C 0.8714(4) 0.2277(13) 0.1146(5)
H21_6 H 0.862486 0.266582 0.090867
C31_6 C 0.8475(4) 0.2090(13) 0.1451(5)
H22_6 H 0.822598 0.235366 0.141793
N9_6 N 0.8608(4) 0.1509(13) 0.1805(4)
C32_6 C 0.8980(5) 0.1115(13) 0.1854(5)
H23_6 H 0.906948 0.072623 0.209157
C33_6 C 0.9219(4) 0.1302(14) 0.1549(6)
H24_6 H 0.946837 0.103838 0.158232
I1_8 I 0.88178(16) 0.7400(4) 0.94305(19)
I2_8 I 0.97584(14) 0.6515(4) 0.86988(17)
Zn2_4 Zn 0.9170(2) 0.6240(6) 0.9063(3)
N5_8 N 0.9310(5) 0.5197(10) 0.9480(5)
C9_6 C 0.9649(4) 0.4667(12) 0.9507(5)
H5_6 H 0.984147 0.483598 0.934870
C10_6 C 0.9699(4) 0.3886(11) 0.9772(5)
H6_6 H 0.992597 0.353159 0.979043
C12_6 C 0.9072(4) 0.4164(12) 0.9982(5)
C13_6 C 0.9022(4) 0.4945(11) 0.9717(5)
H8_8 H 0.879514 0.529938 0.969844
N14_4 N 0.8779(4) 0.5605(11) 0.8582(4)
I3_7 I 0.26633(15) 0.2717(4) 0.70416(19)
I4_7 I 0.37436(15) 0.3456(4) 0.80135(17)
I5_8 I 0.60188(17) 0.7333(4) 0.6030(2)
I6_6 I 0.64697(15) 0.6018(5) 0.49168(19)
Zn1_4 Zn 0.6254(2) 0.5995(6) 0.5649(3)
Zn3_7 Zn 0.3289(2) 0.3631(6) 0.7279(3)
C1_6 C 0.5179(3) 0.3875(10) 0.5565(5)
C2_6 C 0.5354(4) 0.4278(11) 0.5962(4)
H1_6 H 0.525947 0.414763 0.621807
C3_6 C 0.5670(4) 0.4876(11) 0.5975(4)
H2_8 H 0.578708 0.514568 0.624074
N1_8 N 0.5811(3) 0.5071(10) 0.5592(5)
C4_6 C 0.5636(4) 0.4668(11) 0.5195(4)
H3_5 H 0.573077 0.479847 0.493866
C5_6 C 0.5320(4) 0.4070(11) 0.5182(4)
H4_5 H 0.520315 0.380041 0.491598
N2_7 N 0.4244(3) 0.2203(10) 0.5598(5)
C6_7 C 0.4478(4) 0.2069(9) 0.5282(4)
N3_7 N 0.4790(4) 0.2661(11) 0.5263(4)
C7_7 C 0.4869(3) 0.3388(10) 0.5560(5)
N4_7 N 0.4635(4) 0.3522(9) 0.5876(5)
C8_7 C 0.4323(4) 0.2929(11) 0.5895(4)
C9_7 C 0.4649(4) 0.0333(12) 0.4507(5)
H5_7 H 0.484147 0.016402 0.434870
C10_7 C 0.4699(4) 0.1114(11) 0.4772(5)
H6_7 H 0.492597 0.146841 0.479043
C11_7 C 0.4411(5) 0.1366(10) 0.5009(5)
C12_7 C 0.4072(4) 0.0836(12) 0.4982(5)
H7_7 H 0.387963 0.100501 0.514016
C13_7 C 0.4022(4) 0.0055(11) 0.4717(5)
C16_7 C 0.2281(3) 0.9472(11) 0.6655(4)
C17_7 C 0.2064(4) 0.9002(9) 0.6299(5)
H11_7 H 0.212052 0.838878 0.624942
C18_7 C 0.1762(4) 0.9448(11) 0.6016(4)
H12_7 H 0.161639 0.913361 0.577735
N7_7 N 0.3170(5) 0.4962(8) 0.7228(5)
C19_7 C 0.3439(4) 0.5568(12) 0.7468(5)
H13_7 H 0.366580 0.534345 0.764786
C20_7 C 0.3369(4) 0.6511(11) 0.7441(5)
H14_7 H 0.354933 0.691715 0.760143
C21_7 C 0.3031(4) 0.6848(8) 0.7173(5)
C22_7 C 0.2762(3) 0.6241(11) 0.6932(5)
H15_7 H 0.253541 0.646629 0.675294
C23_7 C 0.2832(4) 0.5298(10) 0.6960(5)
H16_7 H 0.265187 0.489258 0.679936
C25_7 C 0.3830(4) 0.9662(11) 0.8539(5)
H18_7 H 0.401803 0.935091 0.874097
C26_7 C 0.3600(5) 0.9183(9) 0.8194(6)
H19_7 H 0.363408 0.855260 0.816533
C27_7 C 0.3318(4) 0.9648(11) 0.7892(5)
C29_7 C 0.4086(4) 0.3117(13) 0.6195(5)
C30_7 C 0.3714(4) 0.2723(13) 0.6146(5)
H21_7 H 0.362486 0.233418 0.590867
C31_7 C 0.3475(4) 0.2910(13) 0.6451(5)
H22_7 H 0.322598 0.264634 0.641793
N9_7 N 0.3608(4) 0.3491(13) 0.6805(4)
C32_7 C 0.3980(5) 0.3885(13) 0.6854(5)
H23_7 H 0.406948 0.427377 0.709157
C33_7 C 0.4219(4) 0.3698(14) 0.6549(6)
H24_7 H 0.446837 0.396162 0.658232
N10_7 N 0.2641(4) 0.8187(11) 0.6894(4)
C34_7 C 0.2563(3) 0.9114(11) 0.6951(4)
N11_7 N 0.2796(4) 0.9614(8) 0.7286(5)
C35_7 C 0.3107(4) 0.9188(10) 0.7564(4)
N12_7 N 0.3185(3) 0.8261(10) 0.7507(4)
C36_7 C 0.2952(4) 0.7761(8) 0.7172(5)
N13_4 N 0.6677(3) 0.5364(11) 0.6090(4)
C14_8 C 0.6894(4) 0.5834(9) 0.6446(5)
H9_8 H 0.683713 0.644681 0.649565
C15_8 C 0.7196(4) 0.5388(11) 0.6729(4)
H10_8 H 0.734126 0.570197 0.696772
C16_8 C 0.7281(3) 0.4472(11) 0.6655(4)
C17_8 C 0.7064(4) 0.4002(9) 0.6299(5)
H11_8 H 0.712052 0.338878 0.624942
C18_8 C 0.6762(4) 0.4448(11) 0.6016(4)
H12_8 H 0.661639 0.413361 0.577735
C19_8 C 0.8439(4) 0.0568(12) 0.7468(5)
H13_8 H 0.866580 0.034345 0.764786
C20_8 C 0.8369(4) 0.1511(11) 0.7441(5)
H14_8 H 0.854933 0.191715 0.760143
C21_8 C 0.8031(4) 0.1848(8) 0.7173(5)
C22_8 C 0.7762(3) 0.1241(11) 0.6932(5)
H15_8 H 0.753541 0.146629 0.675294
C23_8 C 0.7832(4) 0.0298(10) 0.6960(5)
C24_8 C 0.8497(4) 0.6069(9) 0.8279(5)
H17_8 H 0.846293 0.670026 0.830811
C25_8 C 0.8830(4) 0.4662(11) 0.8539(5)
H18_8 H 0.901803 0.435091 0.874097
C26_8 C 0.8600(5) 0.4183(9) 0.8194(6)
H19_8 H 0.863408 0.355260 0.816533
C27_8 C 0.8318(4) 0.4648(11) 0.7892(5)
C28_8 C 0.8267(4) 0.5591(11) 0.7935(4)
H20_8 H 0.807897 0.590194 0.773245
N10_8 N 0.7641(4) 0.3187(11) 0.6894(4)
C34_8 C 0.7563(3) 0.4114(11) 0.6951(4)
N11_8 N 0.7796(4) 0.4614(8) 0.7286(5)
C35_8 C 0.8107(4) 0.4188(10) 0.7564(4)
N12_8 N 0.8185(3) 0.3261(10) 0.7507(4)
C36_8 C 0.7952(4) 0.2761(8) 0.7172(5)
I6_7 I 0.35303(15) 0.6018(5) 0.00832(19)
H3_6 H 0.426923 0.479847 0.006134
H4_6 H 0.479685 0.380041 0.008402
C9_8 C 0.5351(4) 0.0333(12) 0.0493(5)
H5_8 H 0.515853 0.016402 0.065130
C10_8 C 0.5301(4) 0.1114(11) 0.0228(5)
H6_8 H 0.507403 0.146841 0.020957
C12_8 C 0.5928(4) 0.0836(12) 0.0018(5)
C13_8 C 0.5978(4) 0.0055(11) 0.0283(5)
C1_7 C 0.0179(3) 0.8875(10) 0.5565(5)
C2_7 C 0.0354(4) 0.9278(11) 0.5962(4)
H1_7 H 0.025947 0.914763 0.621807
C3_7 C 0.0670(4) 0.9876(11) 0.5975(4)
C4_7 C 0.0636(4) 0.9668(11) 0.5195(4)
H3_7 H 0.073077 0.979847 0.493866
C5_7 C 0.0320(4) 0.9070(11) 0.5182(4)
H4_7 H 0.020315 0.880041 0.491598
I3_8 I 0.23367(15) 0.7717(4) 0.79584(19)
I4_8 I 0.12564(15) 0.8456(4) 0.69865(17)
Zn3_8 Zn 0.1711(2) 0.8631(6) 0.7721(3)
N2_8 N 0.0756(3) 0.7203(10) 0.9402(5)
C6_8 C 0.0522(4) 0.7069(9) 0.9718(4)
N3_8 N 0.0210(4) 0.7661(11) 0.9737(4)
C7_8 C 0.0131(3) 0.8388(10) 0.9440(5)
N4_8 N 0.0365(4) 0.8522(9) 0.9124(5)
C8_8 C 0.0677(4) 0.7929(11) 0.9105(4)
C11_8 C 0.0589(5) 0.6366(10) 0.9991(5)
H7_8 H 0.112037 0.600501 0.985984
N7_8 N 0.1830(5) 0.9962(8) 0.7772(5)
H16_8 H 0.234813 0.989258 0.820064
C29_8 C 0.0914(4) 0.8117(13) 0.8805(5)
C30_8 C 0.1286(4) 0.7723(13) 0.8854(5)
H21_8 H 0.137514 0.733418 0.909133
C31_8 C 0.1525(4) 0.7910(13) 0.8549(5)
H22_8 H 0.177402 0.764634 0.858207
N9_8 N 0.1392(4) 0.8491(13) 0.8195(4)
C32_8 C 0.1020(5) 0.8885(13) 0.8146(5)
H23_8 H 0.093052 0.927377 0.790843
C33_8 C 0.0781(4) 0.8698(14) 0.8451(6)
H24_8 H 0.053163 0.896162 0.841768
I6_8 I 0.85303(15) 0.1018(5) 0.00832(19)
H3_8 H 0.926923 0.979847 0.006134
H4_8 H 0.979685 0.880041 0.008402
C1_8 C 0.9821(3) 0.8875(10) 0.9435(5)
C2_8 C 0.9646(4) 0.9278(11) 0.9038(4)
H1_8 H 0.974053 0.914763 0.878193
C3_8 C 0.9330(4) 0.9876(11) 0.9025(4)
C4_8 C 0.9364(4) 0.9668(11) 0.9805(4)
C5_8 C 0.9680(4) 0.9070(11) 0.9818(4)
loop_
_geom_bond_atom_site_label_1
_geom_bond_atom_site_label_2
_geom_bond_site_symmetry_1
_geom_bond_site_symmetry_2
I1 Zn2 1_555 1_555
I2 Zn2 1_555 1_555
Zn2 N5 1_555 1_555
N14 Zn2 1_555 1_555
N6 C14 1_555 1_555
C14 H9 1_555 1_555
C15 C14 1_555 1_555
H10 C15 1_555 1_555
C24 H17 1_555 1_555
N14 C24 1_555 1_555
C28 C24 1_555 1_555
H20 C28 1_555 1_555
Zn4 N6 1_555 1_555
I5 Zn4 1_555 1_555
Zn4 N1 1_555 1_555
I3 Zn3 1_555 1_555
I4 Zn3 1_555 1_555
I5_2 Zn1 1_555 1_555
I6 Zn1 1_555 1_555
Zn1 N1_2 1_555 1_555
Zn3 N7 1_555 1_555
C1 C2 1_555 1_555
C2 H1 1_555 1_555
C3 C2 1_555 1_555
H2_2 C3 1_555 1_555
N1_2 C3 1_555 1_555
C4 N1_2 1_555 1_555
H3 C4 1_555 1_555
C5 C1 1_555 1_555
H4 C5 1_555 1_555
N2 C6 1_555 1_555
C6 N3 1_555 1_555
N3 C7 1_555 1_555
C7 C1 1_555 1_555
N4 C7 1_555 1_555
C8 N2 1_555 1_555
C9 H5 1_555 1_555
C10 C9 1_555 1_555
H6 C10 1_555 1_555
C11 C6 1_555 1_555
C12 C11 1_555 1_555
H7 C12 1_555 1_555
C17 C16 1_555 1_555
H11 C17 1_555 1_555
H12 C18 1_555 1_555
N7 C19 1_555 1_555
C19 H13 1_555 1_555
C20 C19 1_555 1_555
H14 C20 1_555 1_555
C21 C20 1_555 1_555
C22 C21 1_555 1_555
H15 C22 1_555 1_555
C23 N7 1_555 1_555
H16 C23 1_555 1_555
H18 C25 1_555 1_555
C26 C25 1_555 1_555
H19 C26 1_555 1_555
C27 C26 1_555 1_555
C29 C8 1_555 1_555
C30 C29 1_555 1_555
H21 C30 1_555 1_555
C31 C30 1_555 1_555
H22 C31 1_555 1_555
N9 Zn3 1_555 1_555
C32 N9 1_555 1_555
H23 C32 1_555 1_555
C33 C29 1_555 1_555
H24 C33 1_555 1_555
N10 C34 1_555 1_555
C34 C16 1_555 1_555
N11 C34 1_555 1_555
C35 C27 1_555 1_555
N12 C35 1_555 1_555
C36 C21 1_555 1_555
N13 Zn1 1_555 1_555
C4 C5 1_555 1_555
N4 C8 1_555 1_555
C10 C11 1_555 1_555
C12 C13 1_555 1_555
C17 C18 1_555 1_555
C22 C23 1_555 1_555
C31 N9 1_555 1_555
C32 C33 1_555 1_555
N10 C36 1_555 1_555
N11 C35 1_555 1_555
N12 C36 1_555 1_555
N13 C14_2 1_555 1_555
C14_2 H9_2 1_555 1_555
C15_2 C14_2 1_555 1_555
H10_2 C15_2 1_555 1_555
C16_2 C15_2 1_555 1_555
C17_2 C16_2 1_555 1_555
H11_2 C17_2 1_555 1_555
C18_2 N13 1_555 1_555
H12_2 C18_2 1_555 1_555
C19_2 H13_2 1_555 1_555
C20_2 C19_2 1_555 1_555
H14_2 C20_2 1_555 1_555
C21_2 C20_2 1_555 1_555
C22_2 C21_2 1_555 1_555
H15_2 C22_2 1_555 1_555
C24_2 H17_2 1_555 1_555
N8 C24_2 1_555 1_555
C25_2 N8 1_555 1_555
H18_2 C25_2 1_555 1_555
C26_2 C25_2 1_555 1_555
H19_2 C26_2 1_555 1_555
C27_2 C26_2 1_555 1_555
C28_2 C24_2 1_555 1_555
H20_2 C28_2 1_555 1_555
N10_2 C34_2 1_555 1_555
C34_2 C16_2 1_555 1_555
N11_2 C34_2 1_555 1_555
C35_2 C27_2 1_555 1_555
N12_2 C35_2 1_555 1_555
C36_2 C21_2 1_555 1_555
Zn5 N8 1_555 1_555
C17_2 C18_2 1_555 1_555
C22_2 C23_2 1_555 1_555
C27_2 C28_2 1_555 1_555
N10_2 C36_2 1_555 1_555
N11_2 C35_2 1_555 1_555
N12_2 C36_2 1_555 1_555
I1_2 Zn5 1_555 1_555
I2_2 Zn5 1_555 1_555
Zn5 N5_2 1_555 1_555
N5_2 C9_2 1_555 1_555
C9_2 H5_2 1_555 1_555
C10_2 C9_2 1_555 1_555
H6_2 C10_2 1_555 1_555
C13_2 N5_2 1_555 1_555
H8_2 C13_2 1_555 1_555
C12_2 C13_2 1_555 1_555
N6_2 C14_3 1_555 1_555
C14_3 H9_3 1_555 1_555
C15_3 C14_3 1_555 1_555
H10_3 C15_3 1_555 1_555
C24_3 H17_3 1_555 1_555
N8_2 C24_3 1_555 1_555
C28_3 C24_3 1_555 1_555
H20_3 C28_3 1_555 1_555
Zn4_2 N6_2 1_555 1_555
Zn5_2 N8_2 1_555 1_555
I5_3 Zn4_2 1_555 1_555
I6_2 Zn4_2 1_555 1_555
Zn4_2 N1_3 1_555 1_555
I1_3 Zn5_2 1_555 1_555
I2_3 Zn5_2 1_555 1_555
Zn5_2 N5_3 1_555 1_555
I1_4 Zn2_2 1_555 1_555
I2_4 Zn2_2 1_555 1_555
Zn2_2 N5_4 1_555 1_555
N14_2 Zn2_2 1_555 1_555
N6_3 C14_4 1_555 1_555
C14_4 H9_4 1_555 1_555
C15_4 C14_4 1_555 1_555
H10_4 C15_4 1_555 1_555
C24_4 H17_4 1_555 1_555
N14_2 C24_4 1_555 1_555
C28_4 C24_4 1_555 1_555
H20_4 C28_4 1_555 1_555
Zn4_3 N6_3 1_555 1_555
I5_4 Zn4_3 1_555 1_555
I6_3 Zn4_3 1_555 1_555
Zn4_3 N1_4 1_555 1_555
I3_2 Zn3_2 1_555 1_555
I4_2 Zn3_2 1_555 1_555
I5_5 Zn1_2 1_555 1_555
Zn1_2 N1_5 1_555 1_555
Zn3_2 N7_2 1_555 1_555
C1_2 C2_2 1_555 1_555
C2_2 H1_2 1_555 1_555
C3_2 C2_2 1_555 1_555
H2_5 C3_2 1_555 1_555
N1_5 C3_2 1_555 1_555
C4_2 N1_5 1_555 1_555
C5_2 C1_2 1_555 1_555
N2_2 C6_2 1_555 1_555
C6_2 N3_2 1_555 1_555
N3_2 C7_2 1_555 1_555
C7_2 C1_2 1_555 1_555
N4_2 C7_2 1_555 1_555
C8_2 N2_2 1_555 1_555
C11_2 C6_2 1_555 1_555
C17_3 C16_3 1_555 1_555
H11_3 C17_3 1_555 1_555
H12_3 C18_3 1_555 1_555
N7_2 C19_3 1_555 1_555
C19_3 H13_3 1_555 1_555
C20_3 C19_3 1_555 1_555
H14_3 C20_3 1_555 1_555
C21_3 C20_3 1_555 1_555
C22_3 C21_3 1_555 1_555
H15_3 C22_3 1_555 1_555
C23_3 N7_2 1_555 1_555
H16_2 C23_3 1_555 1_555
H18_3 C25_3 1_555 1_555
C26_3 C25_3 1_555 1_555
H19_3 C26_3 1_555 1_555
C27_3 C26_3 1_555 1_555
C29_2 C8_2 1_555 1_555
C30_2 C29_2 1_555 1_555
H21_2 C30_2 1_555 1_555
C31_2 C30_2 1_555 1_555
H22_2 C31_2 1_555 1_555
N9_2 Zn3_2 1_555 1_555
C32_2 N9_2 1_555 1_555
H23_2 C32_2 1_555 1_555
C33_2 C29_2 1_555 1_555
H24_2 C33_2 1_555 1_555
N10_3 C34_3 1_555 1_555
C34_3 C16_3 1_555 1_555
N11_3 C34_3 1_555 1_555
C35_3 C27_3 1_555 1_555
N12_3 C35_3 1_555 1_555
C36_3 C21_3 1_555 1_555
N13_2 Zn1_2 1_555 1_555
C4_2 C5_2 1_555 1_555
N4_2 C8_2 1_555 1_555
C17_3 C18_3 1_555 1_555
C22_3 C23_3 1_555 1_555
C31_2 N9_2 1_555 1_555
C32_2 C33_2 1_555 1_555
N10_3 C36_3 1_555 1_555
N11_3 C35_3 1_555 1_555
N12_3 C36_3 1_555 1_555
N13_2 C14_5 1_555 1_555
C14_5 H9_5 1_555 1_555
C15_5 C14_5 1_555 1_555
H10_5 C15_5 1_555 1_555
C16_4 C15_5 1_555 1_555
C17_4 C16_4 1_555 1_555
H11_4 C17_4 1_555 1_555
C18_4 N13_2 1_555 1_555
H12_4 C18_4 1_555 1_555
C19_4 H13_4 1_555 1_555
C20_4 C19_4 1_555 1_555
H14_4 C20_4 1_555 1_555
C21_4 C20_4 1_555 1_555
C22_4 C21_4 1_555 1_555
H15_4 C22_4 1_555 1_555
C24_5 H17_5 1_555 1_555
N8_3 C24_5 1_555 1_555
C25_4 N8_3 1_555 1_555
H18_4 C25_4 1_555 1_555
C26_4 C25_4 1_555 1_555
H19_4 C26_4 1_555 1_555
C27_4 C26_4 1_555 1_555
C28_5 C24_5 1_555 1_555
H20_5 C28_5 1_555 1_555
N10_4 C34_4 1_555 1_555
C34_4 C16_4 1_555 1_555
N11_4 C34_4 1_555 1_555
C35_4 C27_4 1_555 1_555
N12_4 C35_4 1_555 1_555
C36_4 C21_4 1_555 1_555
Zn5_3 N8_3 1_555 1_555
C17_4 C18_4 1_555 1_555
C22_4 C23_4 1_555 1_555
C27_4 C28_5 1_555 1_555
N10_4 C36_4 1_555 1_555
N11_4 C35_4 1_555 1_555
N12_4 C36_4 1_555 1_555
I1_5 Zn5_3 1_555 1_555
I2_5 Zn5_3 1_555 1_555
I3_3 Zn3_3 1_555 1_555
I4_3 Zn3_3 1_555 1_555
Zn5_3 N5_5 1_555 1_555
Zn3_3 N7_3 1_555 1_555
N2_3 C6_3 1_555 1_555
C6_3 N3_3 1_555 1_555
N3_3 C7_3 1_555 1_555
N4_3 C7_3 1_555 1_555
C8_3 N2_3 1_555 1_555
N5_5 C9_3 1_555 1_555
C9_3 H5_3 1_555 1_555
C10_3 C9_3 1_555 1_555
H6_3 C10_3 1_555 1_555
C11_3 C6_3 1_555 1_555
C12_3 C11_3 1_555 1_555
H7_3 C12_3 1_555 1_555
C13_3 N5_5 1_555 1_555
H8_5 C13_3 1_555 1_555
C29_3 C8_3 1_555 1_555
C30_3 C29_3 1_555 1_555
H21_3 C30_3 1_555 1_555
C31_3 C30_3 1_555 1_555
H22_3 C31_3 1_555 1_555
N9_3 Zn3_3 1_555 1_555
C32_3 N9_3 1_555 1_555
H23_3 C32_3 1_555 1_555
C33_3 C29_3 1_555 1_555
H24_3 C33_3 1_555 1_555
N4_3 C8_3 1_555 1_555
C10_3 C11_3 1_555 1_555
C12_3 C13_3 1_555 1_555
C31_3 N9_3 1_555 1_555
C32_3 C33_3 1_555 1_555
C9_4 H5_4 1_555 1_555
C10_4 C9_4 1_555 1_555
H6_4 C10_4 1_555 1_555
C12_4 C13_4 1_555 1_555
N6_4 C14_6 1_555 1_555
C14_6 H9_6 1_555 1_555
C15_6 C14_6 1_555 1_555
H10_6 C15_6 1_555 1_555
C24_6 H17_6 1_555 1_555
N8_4 C24_6 1_555 1_555
C28_6 C24_6 1_555 1_555
H20_6 C28_6 1_555 1_555
Zn4_4 N6_4 1_555 1_555
Zn5_4 N8_4 1_555 1_555
I5_6 Zn4_4 1_555 1_555
Zn4_4 N1_6 1_555 1_555
I1_6 Zn5_4 1_555 1_555
I2_6 Zn5_4 1_555 1_555
Zn5_4 N5_6 1_555 1_555
I1_7 Zn2_3 1_555 1_555
I2_7 Zn2_3 1_555 1_555
I3_4 Zn3_4 1_555 1_555
I4_4 Zn3_4 1_555 1_555
Zn2_3 N5_7 1_555 1_555
Zn3_4 N7_4 1_555 1_555
N2_4 C6_4 1_555 1_555
C6_4 N3_4 1_555 1_555
N3_4 C7_4 1_555 1_555
N4_4 C7_4 1_555 1_555
C8_4 N2_4 1_555 1_555
N5_7 C9_5 1_555 1_555
C9_5 H5_5 1_555 1_555
C10_5 C9_5 1_555 1_555
H6_5 C10_5 1_555 1_555
C11_4 C6_4 1_555 1_555
C12_5 C11_4 1_555 1_555
H7_4 C12_5 1_555 1_555
C13_5 N5_7 1_555 1_555
H8_7 C13_5 1_555 1_555
C29_4 C8_4 1_555 1_555
C30_4 C29_4 1_555 1_555
H21_4 C30_4 1_555 1_555
C31_4 C30_4 1_555 1_555
H22_4 C31_4 1_555 1_555
N9_4 Zn3_4 1_555 1_555
C32_4 N9_4 1_555 1_555
H23_4 C32_4 1_555 1_555
C33_4 C29_4 1_555 1_555
H24_4 C33_4 1_555 1_555
N14_3 Zn2_3 1_555 1_555
N4_4 C8_4 1_555 1_555
C10_5 C11_4 1_555 1_555
C12_5 C13_5 1_555 1_555
C31_4 N9_4 1_555 1_555
C32_4 C33_4 1_555 1_555
I3_5 Zn3_5 1_555 1_555
I4_5 Zn3_5 1_555 1_555
I5_7 Zn1_3 1_555 1_555
Zn1_3 N1_7 1_555 1_555
Zn3_5 N7_5 1_555 1_555
C1_3 C2_3 1_555 1_555
C2_3 H1_3 1_555 1_555
C3_3 C2_3 1_555 1_555
H2_7 C3_3 1_555 1_555
N1_7 C3_3 1_555 1_555
C4_3 N1_7 1_555 1_555
C5_3 C1_3 1_555 1_555
N2_5 C6_5 1_555 1_555
C6_5 N3_5 1_555 1_555
N3_5 C7_5 1_555 1_555
C7_5 C1_3 1_555 1_555
N4_5 C7_5 1_555 1_555
C8_5 N2_5 1_555 1_555
C11_5 C6_5 1_555 1_555
C17_5 C16_5 1_555 1_555
H11_5 C17_5 1_555 1_555
H12_5 C18_5 1_555 1_555
N7_5 C19_5 1_555 1_555
C19_5 H13_5 1_555 1_555
C20_5 C19_5 1_555 1_555
H14_5 C20_5 1_555 1_555
C21_5 C20_5 1_555 1_555
C22_5 C21_5 1_555 1_555
H15_5 C22_5 1_555 1_555
C23_5 N7_5 1_555 1_555
H16_5 C23_5 1_555 1_555
H18_5 C25_5 1_555 1_555
C26_5 C25_5 1_555 1_555
H19_5 C26_5 1_555 1_555
C27_5 C26_5 1_555 1_555
C29_5 C8_5 1_555 1_555
C30_5 C29_5 1_555 1_555
H21_5 C30_5 1_555 1_555
C31_5 C30_5 1_555 1_555
H22_5 C31_5 1_555 1_555
N9_5 Zn3_5 1_555 1_555
C32_5 N9_5 1_555 1_555
H23_5 C32_5 1_555 1_555
C33_5 C29_5 1_555 1_555
H24_5 C33_5 1_555 1_555
N10_5 C34_5 1_555 1_555
C34_5 C16_5 1_555 1_555
N11_5 C34_5 1_555 1_555
C35_5 C27_5 1_555 1_555
N12_5 C35_5 1_555 1_555
C36_5 C21_5 1_555 1_555
N13_3 Zn1_3 1_555 1_555
C4_3 C5_3 1_555 1_555
N4_5 C8_5 1_555 1_555
C17_5 C18_5 1_555 1_555
C22_5 C23_5 1_555 1_555
C31_5 N9_5 1_555 1_555
C32_5 C33_5 1_555 1_555
N10_5 C36_5 1_555 1_555
N11_5 C35_5 1_555 1_555
N12_5 C36_5 1_555 1_555
N13_3 C14_7 1_555 1_555
C14_7 H9_7 1_555 1_555
C15_7 C14_7 1_555 1_555
H10_7 C15_7 1_555 1_555
C16_6 C15_7 1_555 1_555
C17_6 C16_6 1_555 1_555
H11_6 C17_6 1_555 1_555
C18_6 N13_3 1_555 1_555
H12_6 C18_6 1_555 1_555
C19_6 H13_6 1_555 1_555
C20_6 C19_6 1_555 1_555
H14_6 C20_6 1_555 1_555
C21_6 C20_6 1_555 1_555
C22_6 C21_6 1_555 1_555
H15_6 C22_6 1_555 1_555
C24_7 H17_7 1_555 1_555
N14_3 C24_7 1_555 1_555
C25_6 N14_3 1_555 1_555
H18_6 C25_6 1_555 1_555
C26_6 C25_6 1_555 1_555
H19_6 C26_6 1_555 1_555
C27_6 C26_6 1_555 1_555
C28_7 C24_7 1_555 1_555
H20_7 C28_7 1_555 1_555
N10_6 C34_6 1_555 1_555
C34_6 C16_6 1_555 1_555
N11_6 C34_6 1_555 1_555
C35_6 C27_6 1_555 1_555
N12_6 C35_6 1_555 1_555
C36_6 C21_6 1_555 1_555
C17_6 C18_6 1_555 1_555
C22_6 C23_6 1_555 1_555
C27_6 C28_7 1_555 1_555
N10_6 C36_6 1_555 1_555
N11_6 C35_6 1_555 1_555
N12_6 C36_6 1_555 1_555
C1_4 C2_4 1_555 1_555
C2_4 H1_4 1_555 1_555
C3_4 C2_4 1_555 1_555
H3_3 C4_4 1_555 1_555
C5_4 C1_4 1_555 1_555
H4_3 C5_4 1_555 1_555
C4_4 C5_4 1_555 1_555
C1_5 C2_5 1_555 1_555
C2_5 H1_5 1_555 1_555
C3_5 C2_5 1_555 1_555
C5_5 C1_5 1_555 1_555
C4_5 C5_5 1_555 1_555
I3_6 Zn3_6 1_555 1_555
I4_6 Zn3_6 1_555 1_555
Zn3_6 N7_6 1_555 1_555
N2_6 C6_6 1_555 1_555
C6_6 N3_6 1_555 1_555
N3_6 C7_6 1_555 1_555
N4_6 C7_6 1_555 1_555
C8_6 N2_6 1_555 1_555
C11_6 C6_6 1_555 1_555
C29_6 C8_6 1_555 1_555
C30_6 C29_6 1_555 1_555
H21_6 C30_6 1_555 1_555
C31_6 C30_6 1_555 1_555
H22_6 C31_6 1_555 1_555
N9_6 Zn3_6 1_555 1_555
C32_6 N9_6 1_555 1_555
H23_6 C32_6 1_555 1_555
C33_6 C29_6 1_555 1_555
H24_6 C33_6 1_555 1_555
N4_6 C8_6 1_555 1_555
C31_6 N9_6 1_555 1_555
C32_6 C33_6 1_555 1_555
I1_8 Zn2_4 1_555 1_555
I2_8 Zn2_4 1_555 1_555
Zn2_4 N5_8 1_555 1_555
N5_8 C9_6 1_555 1_555
C9_6 H5_6 1_555 1_555
C10_6 C9_6 1_555 1_555
H6_6 C10_6 1_555 1_555
C13_6 N5_8 1_555 1_555
H8_8 C13_6 1_555 1_555
N14_4 Zn2_4 1_555 1_555
C12_6 C13_6 1_555 1_555
I3_7 Zn3_7 1_555 1_555
I4_7 Zn3_7 1_555 1_555
I5_8 Zn1_4 1_555 1_555
I6_6 Zn1_4 1_555 1_555
Zn1_4 N1_8 1_555 1_555
Zn3_7 N7_7 1_555 1_555
C1_6 C2_6 1_555 1_555
C2_6 H1_6 1_555 1_555
C3_6 C2_6 1_555 1_555
H2_8 C3_6 1_555 1_555
N1_8 C3_6 1_555 1_555
C4_6 N1_8 1_555 1_555
H3_5 C4_6 1_555 1_555
C5_6 C1_6 1_555 1_555
H4_5 C5_6 1_555 1_555
N2_7 C6_7 1_555 1_555
C6_7 N3_7 1_555 1_555
N3_7 C7_7 1_555 1_555
C7_7 C1_6 1_555 1_555
N4_7 C7_7 1_555 1_555
C8_7 N2_7 1_555 1_555
C9_7 H5_7 1_555 1_555
C10_7 C9_7 1_555 1_555
H6_7 C10_7 1_555 1_555
C11_7 C6_7 1_555 1_555
C12_7 C11_7 1_555 1_555
H7_7 C12_7 1_555 1_555
C17_7 C16_7 1_555 1_555
H11_7 C17_7 1_555 1_555
H12_7 C18_7 1_555 1_555
N7_7 C19_7 1_555 1_555
C19_7 H13_7 1_555 1_555
C20_7 C19_7 1_555 1_555
H14_7 C20_7 1_555 1_555
C21_7 C20_7 1_555 1_555
C22_7 C21_7 1_555 1_555
H15_7 C22_7 1_555 1_555
C23_7 N7_7 1_555 1_555
H16_7 C23_7 1_555 1_555
H18_7 C25_7 1_555 1_555
C26_7 C25_7 1_555 1_555
H19_7 C26_7 1_555 1_555
C27_7 C26_7 1_555 1_555
C29_7 C8_7 1_555 1_555
C30_7 C29_7 1_555 1_555
H21_7 C30_7 1_555 1_555
C31_7 C30_7 1_555 1_555
H22_7 C31_7 1_555 1_555
N9_7 Zn3_7 1_555 1_555
C32_7 N9_7 1_555 1_555
H23_7 C32_7 1_555 1_555
C33_7 C29_7 1_555 1_555
H24_7 C33_7 1_555 1_555
N10_7 C34_7 1_555 1_555
C34_7 C16_7 1_555 1_555
N11_7 C34_7 1_555 1_555
C35_7 C27_7 1_555 1_555
N12_7 C35_7 1_555 1_555
C36_7 C21_7 1_555 1_555
N13_4 Zn1_4 1_555 1_555
C4_6 C5_6 1_555 1_555
N4_7 C8_7 1_555 1_555
C10_7 C11_7 1_555 1_555
C12_7 C13_7 1_555 1_555
C17_7 C18_7 1_555 1_555
C22_7 C23_7 1_555 1_555
C31_7 N9_7 1_555 1_555
C32_7 C33_7 1_555 1_555
N10_7 C36_7 1_555 1_555
N11_7 C35_7 1_555 1_555
N12_7 C36_7 1_555 1_555
N13_4 C14_8 1_555 1_555
C14_8 H9_8 1_555 1_555
C15_8 C14_8 1_555 1_555
H10_8 C15_8 1_555 1_555
C16_8 C15_8 1_555 1_555
C17_8 C16_8 1_555 1_555
H11_8 C17_8 1_555 1_555
C18_8 N13_4 1_555 1_555
H12_8 C18_8 1_555 1_555
C19_8 H13_8 1_555 1_555
C20_8 C19_8 1_555 1_555
H14_8 C20_8 1_555 1_555
C21_8 C20_8 1_555 1_555
C22_8 C21_8 1_555 1_555
H15_8 C22_8 1_555 1_555
C24_8 H17_8 1_555 1_555
N14_4 C24_8 1_555 1_555
C25_8 N14_4 1_555 1_555
H18_8 C25_8 1_555 1_555
C26_8 C25_8 1_555 1_555
H19_8 C26_8 1_555 1_555
C27_8 C26_8 1_555 1_555
C28_8 C24_8 1_555 1_555
H20_8 C28_8 1_555 1_555
N10_8 C34_8 1_555 1_555
C34_8 C16_8 1_555 1_555
N11_8 C34_8 1_555 1_555
C35_8 C27_8 1_555 1_555
N12_8 C35_8 1_555 1_555
C36_8 C21_8 1_555 1_555
C17_8 C18_8 1_555 1_555
C22_8 C23_8 1_555 1_555
C27_8 C28_8 1_555 1_555
N10_8 C36_8 1_555 1_555
N11_8 C35_8 1_555 1_555
N12_8 C36_8 1_555 1_555
C9_8 H5_8 1_555 1_555
C10_8 C9_8 1_555 1_555
H6_8 C10_8 1_555 1_555
C12_8 C13_8 1_555 1_555
C1_7 C2_7 1_555 1_555
C2_7 H1_7 1_555 1_555
C3_7 C2_7 1_555 1_555
H3_7 C4_7 1_555 1_555
C5_7 C1_7 1_555 1_555
H4_7 C5_7 1_555 1_555
C4_7 C5_7 1_555 1_555
I3_8 Zn3_8 1_555 1_555
I4_8 Zn3_8 1_555 1_555
Zn3_8 N7_8 1_555 1_555
N2_8 C6_8 1_555 1_555
C6_8 N3_8 1_555 1_555
N3_8 C7_8 1_555 1_555
N4_8 C7_8 1_555 1_555
C8_8 N2_8 1_555 1_555
C11_8 C6_8 1_555 1_555
C29_8 C8_8 1_555 1_555
C30_8 C29_8 1_555 1_555
H21_8 C30_8 1_555 1_555
C31_8 C30_8 1_555 1_555
H22_8 C31_8 1_555 1_555
N9_8 Zn3_8 1_555 1_555
C32_8 N9_8 1_555 1_555
H23_8 C32_8 1_555 1_555
C33_8 C29_8 1_555 1_555
H24_8 C33_8 1_555 1_555
N4_8 C8_8 1_555 1_555
C31_8 N9_8 1_555 1_555
C32_8 C33_8 1_555 1_555
C1_8 C2_8 1_555 1_555
C2_8 H1_8 1_555 1_555
C3_8 C2_8 1_555 1_555
C5_8 C1_8 1_555 1_555
C4_8 C5_8 1_555 1_555

#END
