
###############################################################################
#
# This file contains modified crystal structure data generated from the
# MOF subset of the Cambridge Structural Database (CSD) v543 
# hosted by the Cambridge Crystallographic Data Centre (CCDC).
#
# This work is licensed under the Creative Commons
# Attribution-NonCommercial-ShareAlike 4.0 International License.
# To view a copy of this license, visit
# http://creativecommons.org/licenses/by-nc-sa/4.0/
# or send a letter to
# Creative Commons, PO Box 1866, Mountain View, CA 94042, USA.
#
# CIF created using the CSD Python API on 29 September 2022
# The structure has been converted into the P1 space group
# The structure has a 3D framework
# The original CSD entry LUFBUL is in the orthorhombic crystal system
# The framework has been calculated to contain at least 10.0% void space
# The void calculation uses a probe of radius 1.32A, grid spacing 0.4
#
###############################################################################

data_LUFBUL
_chemical_formula_moiety         '(C72 H48 Cu6 N24 O16)n'
_symmetry_cell_setting           triclinic
_symmetry_space_group_name_H-M   'P 1'
_symmetry_Int_Tables_number      1
_space_group_name_Hall           'P 1'
loop_
_symmetry_equiv_pos_site_id
_symmetry_equiv_pos_as_xyz
1 x,y,z
_cell_length_a                   13.063(2)
_cell_length_b                   9.9017(18)
_cell_length_c                   17.472(3)
_cell_angle_alpha                90
_cell_angle_beta                 90
_cell_angle_gamma                90
_cell_volume                     2259.93
loop_
_atom_site_label
_atom_site_type_symbol
_atom_site_fract_x
_atom_site_fract_y
_atom_site_fract_z
N2 N 0.0127(5) 0.5490(8) 0.2070(4)
C3 C 0.0118(5) 0.3851(6) 0.1043(3)
C4 C 0.0951(6) 0.4424(8) 0.0699(4)
H3 H 0.1202 0.5251 0.0868
C6 C 0.1412(6) 0.3757(7) 0.0098(4)
C7 C 0.0253(5) 0.1955(7) 0.0212(4)
H6 H 0.0014 0.1116 0.0053
O1 O 0.1501(3) 0.0524(5) 0.9177(2)
O2 O 0.2262(3) 0.2404(5) 0.8815(3)
H5 H 0.1957 0.4168 0.9847
C8 C 0.1095(5) 0.2520(6) 0.9863(3)
C9 C 0.1656(4) 0.1783(7) 0.9254(3)
Cu3 Cu 0.2500 0.0000 0.83823(5)
Cu1 Cu 0.7500 0.5000 0.33823(5)
N1 N 0.8619(4) 0.5045(5) 0.2606(3)
N3 N 0.9637(4) 0.4513(6) 0.1672(3)
C1 C 0.9484(6) 0.5773(9) 0.2634(5)
H1 H 0.9619 0.6412 0.3011
C2 C 0.8747(5) 0.4286(7) 0.1991(3)
H2 H 0.8268 0.3671 0.1809
C5 C 0.9757(5) 0.2637(7) 0.0806(4)
H4 H 0.9182 0.2261 0.1036
N4 N 0.6381(4) 0.4955(5) 0.2606(3)
N5 N 0.4873(5) 0.4510(8) 0.2070(4)
N6 N 0.5363(4) 0.5487(6) 0.1672(3)
C10 C 0.5516(6) 0.4227(9) 0.2634(5)
H7 H 0.5381 0.3588 0.3011
C11 C 0.6253(5) 0.5714(7) 0.1991(3)
H8 H 0.6732 0.6329 0.1809
C12 C 0.4882(5) 0.6149(6) 0.1043(3)
C13 C 0.4049(6) 0.5576(8) 0.0699(4)
H9 H 0.3798 0.4749 0.0868
C14 C 0.5243(5) 0.7363(7) 0.0806(4)
H10 H 0.5818 0.7739 0.1036
C15 C 0.3588(6) 0.6243(7) 0.0098(4)
C16 C 0.4747(5) 0.8045(7) 0.0212(4)
H12 H 0.4986 0.8884 0.0053
O5 O 0.6501(3) 0.4476(5) 0.4177(2)
O6 O 0.8499(3) 0.5524(5) 0.4177(2)
O7 O 0.7262(3) 0.2596(5) 0.3815(3)
O8 O 0.7738(3) 0.7404(5) 0.3815(3)
N3_2 N 0.4637(4) 0.0487(6) 0.6672(3)
C2_2 C 0.3747(5) 0.0714(7) 0.6991(3)
H2_2 H 0.3268 0.1329 0.6809
C3_2 C 0.5118(5) 0.1149(6) 0.6043(3)
C4_2 C 0.5951(6) 0.0576(8) 0.5699(4)
C5_2 C 0.4757(5) 0.2363(7) 0.5806(4)
H4_2 H 0.4182 0.2739 0.6036
C6_2 C 0.6412(6) 0.1243(7) 0.5098(4)
H5_2 H 0.6957 0.0832 0.4847
C7_2 C 0.5253(5) 0.3045(7) 0.5212(4)
H6_2 H 0.5014 0.3884 0.5053
C8_2 C 0.6095(5) 0.2480(6) 0.4863(3)
C9_2 C 0.6656(4) 0.3217(7) 0.4254(3)
N4_2 N 0.1381(4) 0.0045(5) 0.7606(3)
C10_2 C 0.0516(6) 0.0773(9) 0.7634(5)
H7_2 H 0.0381 0.1412 0.8011
C12_2 C 0.9882(5) 0.8851(6) 0.6043(3)
C13_2 C 0.9049(6) 0.9424(8) 0.5699(4)
C15_2 C 0.8588(6) 0.8757(7) 0.5098(4)
H11 H 0.8043 0.9168 0.4847
C16_2 C 0.9747(5) 0.6955(7) 0.5212(4)
H12_2 H 0.9986 0.6116 0.5053
C17 C 0.8905(5) 0.7520(6) 0.4863(3)
C18 C 0.8344(4) 0.6783(7) 0.4254(3)
Cu3_2 Cu 0.2500 1.0000 0.83823(5)
O3 O 0.3499(3) 0.9476(5) 0.9177(2)
O4 O 0.2738(3) 0.7596(5) 0.8815(3)
H11_2 H 0.3043 0.5832 0.9847
C17_2 C 0.3905(5) 0.7480(6) 0.9863(3)
C18_2 C 0.3344(4) 0.8217(7) 0.9254(3)
N1_2 N 0.3619(4) 0.9955(5) 0.7606(3)
N2_2 N 0.5127(5) 0.9510(8) 0.7070(4)
C1_2 C 0.4484(6) 0.9227(9) 0.7634(5)
H1_2 H 0.4619 0.8588 0.8011
H3_2 H 0.6202 0.9749 0.5868
N6_2 N 0.0363(4) 0.9513(6) 0.6672(3)
C11_2 C 0.1253(5) 0.9286(7) 0.6991(3)
H8_2 H 0.1732 0.8671 0.6809
C14_2 C 0.0243(5) 0.7637(7) 0.5806(4)
H10_2 H 0.0818 0.7261 0.6036
O3_2 O 0.1501(3) 0.4476(5) 0.5823(2)
O4_2 O 0.2262(3) 0.2596(5) 0.6185(3)
C12_3 C 0.0118(5) 0.1149(6) 0.3957(3)
C13_3 C 0.0951(6) 0.0576(8) 0.4301(4)
C15_3 C 0.1412(6) 0.1243(7) 0.4902(4)
H11_3 H 0.1957 0.0832 0.5153
C16_3 C 0.0253(5) 0.3045(7) 0.4788(4)
H12_3 H 0.0014 0.3884 0.4947
C17_3 C 0.1095(5) 0.2480(6) 0.5137(3)
C18_3 C 0.1656(4) 0.3217(7) 0.5746(3)
Cu2 Cu 0.2500 0.5000 0.66177(5)
Cu1_2 Cu 0.7500 1.0000 0.16177(5)
O1_2 O 0.3499(3) 0.5524(5) 0.5823(2)
O2_2 O 0.2738(3) 0.7404(5) 0.6185(3)
N3_3 N 0.5363(4) 0.9513(6) 0.3328(3)
C2_3 C 0.6253(5) 0.9286(7) 0.3009(3)
H2_3 H 0.6732 0.8671 0.3191
C3_3 C 0.4882(5) 0.8851(6) 0.3957(3)
C4_3 C 0.4049(6) 0.9424(8) 0.4301(4)
C5_3 C 0.5243(5) 0.7637(7) 0.4194(4)
H4_3 H 0.5818 0.7261 0.3964
C6_3 C 0.3588(6) 0.8757(7) 0.4902(4)
H5_3 H 0.3043 0.9168 0.5153
C7_3 C 0.4747(5) 0.6955(7) 0.4788(4)
H6_3 H 0.4986 0.6116 0.4947
C8_3 C 0.3905(5) 0.7520(6) 0.5137(3)
C9_3 C 0.3344(4) 0.6783(7) 0.5746(3)
N4_3 N 0.8619(4) 0.9955(5) 0.2394(3)
C10_3 C 0.9484(6) 0.9227(9) 0.2366(5)
H7_3 H 0.9619 0.8588 0.1989
O5_2 O 0.8499(3) 0.9476(5) 0.0823(2)
O7_2 O 0.7738(3) 0.7596(5) 0.1185(3)
N1_3 N 0.1381(4) 0.4955(5) 0.7394(3)
N3_4 N 0.0363(4) 0.5487(6) 0.8328(3)
C1_3 C 0.0516(6) 0.4227(9) 0.7366(5)
H1_3 H 0.0381 0.3588 0.6989
C2_4 C 0.1253(5) 0.5714(7) 0.8009(3)
H2_4 H 0.1732 0.6329 0.8191
C5_4 C 0.0243(5) 0.7363(7) 0.9194(4)
H4_4 H 0.0818 0.7739 0.8964
N4_4 N 0.3619(4) 0.5045(5) 0.7394(3)
N5_2 N 0.5127(5) 0.5490(8) 0.7930(4)
N6_3 N 0.4637(4) 0.4513(6) 0.8328(3)
C10_4 C 0.4484(6) 0.5773(9) 0.7366(5)
H7_4 H 0.4619 0.6412 0.6989
C11_3 C 0.3747(5) 0.4286(7) 0.8009(3)
H8_3 H 0.3268 0.3671 0.8191
C12_4 C 0.5118(5) 0.3851(6) 0.8957(3)
C13_4 C 0.5951(6) 0.4424(8) 0.9301(4)
H9_2 H 0.6202 0.5251 0.9132
C14_3 C 0.4757(5) 0.2637(7) 0.9194(4)
H10_3 H 0.4182 0.2261 0.8964
C15_4 C 0.6412(6) 0.3757(7) 0.9902(4)
C16_4 C 0.5253(5) 0.1955(7) 0.9788(4)
H12_4 H 0.5014 0.1116 0.9947
H5_4 H 0.8043 0.5832 0.0153
C8_4 C 0.8905(5) 0.7480(6) 0.0137(3)
C9_4 C 0.8344(4) 0.8217(7) 0.0746(3)
N5_3 N 0.0127(5) 0.9510(8) 0.2930(4)
H9_3 H 0.1202 0.9749 0.4132
Cu1_3 Cu 0.7500 -0.0000 0.16177(5)
N1_4 N 0.6381(4) 0.0045(5) 0.2394(3)
N2_3 N 0.4873(5) 0.0490(8) 0.2930(4)
C1_4 C 0.5516(6) 0.0773(9) 0.2366(5)
H1_4 H 0.5381 0.1412 0.1989
H3_3 H 0.3798 0.0251 0.4132
N6_4 N 0.9637(4) 0.0487(6) 0.3328(3)
C11_4 C 0.8747(5) 0.0714(7) 0.3009(3)
H8_4 H 0.8268 0.1329 0.3191
C14_4 C 0.9757(5) 0.2363(7) 0.4194(4)
H10_4 H 0.9182 0.2739 0.3964
O6_2 O 0.6501(3) 0.0524(5) 0.0823(2)
O8_2 O 0.7262(3) 0.2404(5) 0.1185(3)
H11_4 H 0.6957 0.4168 0.0153
C17_4 C 0.6095(5) 0.2520(6) 0.0137(3)
C18_4 C 0.6656(4) 0.1783(7) 0.0746(3)
N2_4 N 0.9873(5) 0.4510(8) 0.7930(4)
C3_4 C 0.9882(5) 0.6149(6) 0.8957(3)
C4_4 C 0.9049(6) 0.5576(8) 0.9301(4)
H3_4 H 0.8798 0.4749 0.9132
C6_4 C 0.8588(6) 0.6243(7) 0.9902(4)
C7_4 C 0.9747(5) 0.8045(7) 0.9788(4)
H6_4 H 0.9986 0.8884 0.9947
N5_4 N 0.9873(5) 0.0490(8) 0.7070(4)
H9_4 H 0.8798 0.0251 0.5868
loop_
_geom_bond_atom_site_label_1
_geom_bond_atom_site_label_2
_geom_bond_site_symmetry_1
_geom_bond_site_symmetry_2
C4 C3 1_555 1_555
H3 C4 1_555 1_555
C6 C4 1_555 1_555
H6 C7 1_555 1_555
O1 C9 1_555 1_555
O2 C9 1_555 1_555
C9 C8 1_555 1_555
Cu3 O1 1_555 1_555
O2 Cu3 1_555 1_555
Cu1 N1 1_555 1_555
N1 C1 1_555 1_555
N3 C2 1_555 1_555
H1 C1 1_555 1_555
C2 N1 1_555 1_555
H2 C2 1_555 1_555
H4 C5 1_555 1_555
N4 Cu1 1_555 1_555
N5 N6 1_555 1_555
N6 C11 1_555 1_555
C10 N4 1_555 1_555
H7 C10 1_555 1_555
C11 N4 1_555 1_555
H8 C11 1_555 1_555
C12 N6 1_555 1_555
C13 C12 1_555 1_555
H9 C13 1_555 1_555
C14 C12 1_555 1_555
H10 C14 1_555 1_555
C15 C13 1_555 1_555
C16 C14 1_555 1_555
H12 C16 1_555 1_555
O5 Cu1 1_555 1_555
O6 Cu1 1_555 1_555
O7 Cu1 1_555 1_555
O8 Cu1 1_555 1_555
N5 C10 1_555 1_555
O5 C9_2 1_555 1_555
O7 C9_2 1_555 1_555
N3_2 C2_2 1_555 1_555
H2_2 C2_2 1_555 1_555
C3_2 N3_2 1_555 1_555
C4_2 C3_2 1_555 1_555
C5_2 C3_2 1_555 1_555
H4_2 C5_2 1_555 1_555
C6_2 C4_2 1_555 1_555
H5_2 C6_2 1_555 1_555
C7_2 C5_2 1_555 1_555
H6_2 C7_2 1_555 1_555
C8_2 C6_2 1_555 1_555
C9_2 C8_2 1_555 1_555
N4_2 Cu3 1_555 1_555
C10_2 N4_2 1_555 1_555
H7_2 C10_2 1_555 1_555
C7_2 C8_2 1_555 1_555
O6 C18 1_555 1_555
O8 C18 1_555 1_555
C13_2 C12_2 1_555 1_555
C15_2 C13_2 1_555 1_555
H11 C15_2 1_555 1_555
H12_2 C16_2 1_555 1_555
C17 C15_2 1_555 1_555
C18 C17 1_555 1_555
C16_2 C17 1_555 1_555
O3 C18_2 1_555 1_555
O4 C18_2 1_555 1_555
C18_2 C17_2 1_555 1_555
Cu3_2 O3 1_555 1_555
O4 Cu3_2 1_555 1_555
Cu3_2 N1_2 1_555 1_555
N1_2 C1_2 1_555 1_555
C1_2 N2_2 1_555 1_555
H1_2 C1_2 1_555 1_555
N6_2 C11_2 1_555 1_555
H8_2 C11_2 1_555 1_555
H10_2 C14_2 1_555 1_555
O3_2 C18_3 1_555 1_555
O4_2 C18_3 1_555 1_555
C13_3 C12_3 1_555 1_555
C15_3 C13_3 1_555 1_555
H11_3 C15_3 1_555 1_555
H12_3 C16_3 1_555 1_555
C17_3 C15_3 1_555 1_555
C18_3 C17_3 1_555 1_555
Cu2 O3_2 1_555 1_555
O4_2 Cu2 1_555 1_555
C16_3 C17_3 1_555 1_555
O1_2 C9_3 1_555 1_555
O2_2 C9_3 1_555 1_555
N3_3 C2_3 1_555 1_555
H2_3 C2_3 1_555 1_555
C3_3 N3_3 1_555 1_555
C4_3 C3_3 1_555 1_555
C5_3 C3_3 1_555 1_555
H4_3 C5_3 1_555 1_555
C6_3 C4_3 1_555 1_555
H5_3 C6_3 1_555 1_555
C7_3 C5_3 1_555 1_555
H6_3 C7_3 1_555 1_555
C8_3 C6_3 1_555 1_555
C9_3 C8_3 1_555 1_555
N4_3 Cu1_2 1_555 1_555
C10_3 N4_3 1_555 1_555
H7_3 C10_3 1_555 1_555
Cu2 O1_2 1_555 1_555
O5_2 Cu1_2 1_555 1_555
O7_2 Cu1_2 1_555 1_555
O2_2 Cu2 1_555 1_555
C7_3 C8_3 1_555 1_555
Cu2 N1_3 1_555 1_555
N1_3 C1_3 1_555 1_555
N3_4 C2_4 1_555 1_555
H1_3 C1_3 1_555 1_555
C2_4 N1_3 1_555 1_555
H2_4 C2_4 1_555 1_555
H4_4 C5_4 1_555 1_555
N4_4 Cu2 1_555 1_555
N5_2 N6_3 1_555 1_555
N6_3 C11_3 1_555 1_555
C10_4 N4_4 1_555 1_555
H7_4 C10_4 1_555 1_555
C11_3 N4_4 1_555 1_555
H8_3 C11_3 1_555 1_555
C12_4 N6_3 1_555 1_555
C13_4 C12_4 1_555 1_555
H9_2 C13_4 1_555 1_555
C14_3 C12_4 1_555 1_555
H10_3 C14_3 1_555 1_555
C15_4 C13_4 1_555 1_555
C16_4 C14_3 1_555 1_555
H12_4 C16_4 1_555 1_555
N5_2 C10_4 1_555 1_555
O5_2 C9_4 1_555 1_555
O7_2 C9_4 1_555 1_555
C9_4 C8_4 1_555 1_555
Cu1_3 N1_4 1_555 1_555
N1_4 C1_4 1_555 1_555
C1_4 N2_3 1_555 1_555
H1_4 C1_4 1_555 1_555
N6_4 C11_4 1_555 1_555
H8_4 C11_4 1_555 1_555
H10_4 C14_4 1_555 1_555
O6_2 Cu1_3 1_555 1_555
O8_2 Cu1_3 1_555 1_555
O6_2 C18_4 1_555 1_555
O8_2 C18_4 1_555 1_555
C18_4 C17_4 1_555 1_555
C4_4 C3_4 1_555 1_555
H3_4 C4_4 1_555 1_555
C6_4 C4_4 1_555 1_555
H6_4 C7_4 1_555 1_555

#END
