
###############################################################################
#
# This file contains modified crystal structure data generated from the
# MOF subset of the Cambridge Structural Database (CSD) v543 
# hosted by the Cambridge Crystallographic Data Centre (CCDC).
#
# This work is licensed under the Creative Commons
# Attribution-NonCommercial-ShareAlike 4.0 International License.
# To view a copy of this license, visit
# http://creativecommons.org/licenses/by-nc-sa/4.0/
# or send a letter to
# Creative Commons, PO Box 1866, Mountain View, CA 94042, USA.
#
# CIF created using the CSD Python API on 29 September 2022
# The structure has been converted into the P1 space group
# The structure has a 3D framework
# The original CSD entry LUFNAC01 is in the monoclinic crystal system
# The framework has been calculated to contain at least 10.0% void space
# The void calculation uses a probe of radius 1.32A, grid spacing 0.4
# H atom positions have been added when not included in the experimental data
# Generated hydrogen atom positions removed from atoms on special positions
#
###############################################################################

data_LUFNAC01
_chemical_formula_moiety         '(C112 H112 Mn8 N16 O36)n'
_symmetry_cell_setting           triclinic
_symmetry_space_group_name_H-M   'P 1'
_symmetry_Int_Tables_number      1
_space_group_name_Hall           'P 1'
loop_
_symmetry_equiv_pos_site_id
_symmetry_equiv_pos_as_xyz
1 x,y,z
_cell_length_a                   18.406(7)
_cell_length_b                   15.041(5)
_cell_length_c                   16.344(4)
_cell_angle_alpha                90
_cell_angle_beta                 111.540(4)
_cell_angle_gamma                90
_cell_volume                     4208.75
loop_
_atom_site_label
_atom_site_type_symbol
_atom_site_fract_x
_atom_site_fract_y
_atom_site_fract_z
Mn6 Mn 0.27606(6) 0.39144(7) 0.04706(6)
O13 O 0.2472(3) 0.1328(3) 0.0888(3)
H20 H 0.0937 0.1806 0.0179
H23 H 0.373592 0.175036 0.0216593
H24 H 0.380705 0.0681011 0.0144214
O1 O 0.2871(3) 0.5246(3) 0.6644(3)
O2 O 0.2600(3) 0.4572(4) 0.5369(3)
O3 O 0.2528(3) 0.3672(3) 0.9112(3)
O4 O 0.1962(3) 0.2339(3) 0.8914(3)
C1 C 0.2017(4) 0.2200(5) 0.6365(4)
C2 C 0.2249(4) 0.2994(5) 0.7744(4)
N2 N 0.1828(4) 0.1450(4) 0.5851(4)
H1 H 0.1913 0.1440 0.5368
C3 C 0.2663(5) 0.4561(5) 0.6164(5)
C4 C 0.2465(4) 0.3728(5) 0.6552(4)
C5 C 0.2013(4) 0.2223(5) 0.7223(5)
H2 H 0.1853 0.1724 0.7449
C6 C 0.2468(4) 0.3742(5) 0.7406(4)
H3 H 0.2616 0.4254 0.7746
C7 C 0.0640(5) 0.0774(5) 0.5958(5)
C8 C 0.2256(4) 0.2990(5) 0.8665(4)
C9 C 0.2235(4) 0.2972(5) 0.6037(5)
H4 H 0.2225 0.2977 0.5464
C10 C 0.1492(4) 0.0680(5) 0.6100(5)
H5 H 0.1780 0.0556 0.6718
H6 H 0.1554 0.0173 0.5766
C11 C 0.0157(5) 0.1349(7) 0.5339(7)
H7 H 0.0354 0.1696 0.4997
C12 C 0.0297(6) 0.0238(7) 0.6395(6)
Mn2 Mn 0.22394(6) 0.10856(7) 0.95294(6)
Mn3 Mn 0.27606(6) 0.60856(7) 0.54706(6)
O8 O 0.2129(3) 0.0246(3) 0.8356(3)
N3 N 0.0954(4) 0.0909(4) 0.9315(4)
O16 O 0.3534(5) 0.1223(6) 0.9835(6)
C27 C 0.0491(6) 0.0337(7) 0.8763(6)
C28 C 0.0623(5) 0.1403(6) 0.9768(6)
H8 H 0.0591 0.9813 0.6792
O11 O 0.2400(3) 0.9572(4) 0.9631(3)
H19 H 0.0708 0.9971 0.8454
Mn1 Mn 0.77606(6) 0.10856(7) 0.54706(6)
N1 N 0.9046(4) 0.0909(4) 0.5685(4)
O5 O 0.6466(5) 0.1223(6) 0.5165(6)
C13 C 0.9509(6) 0.0337(7) 0.6237(6)
C14 C 0.9377(5) 0.1403(6) 0.5232(6)
H10 H 0.9063 0.1806 0.4821
Mn4 Mn 0.72394(6) 0.60856(7) 0.95294(6)
Mn5 Mn 0.72394(6) 0.39144(7) 0.45294(6)
O6 O 0.7129(3) 0.5246(3) 0.8356(3)
O7 O 0.7871(3) 0.0246(3) 0.6644(3)
O9 O 0.7400(3) 0.4572(4) 0.9631(3)
O12 O 0.7472(3) 0.3672(3) 0.5888(3)
O14 O 0.7528(3) 0.1328(3) 0.4112(3)
O15 O 0.8038(3) 0.2339(3) 0.6086(3)
C15 C 0.7983(4) 0.2200(5) 0.8635(4)
C16 C 0.7751(4) 0.2994(5) 0.7256(4)
N4 N 0.8172(4) 0.1450(4) 0.9149(4)
H11 H 0.8087 0.1440 0.9632
C17 C 0.7337(5) 0.4561(5) 0.8836(5)
C18 C 0.7535(4) 0.3728(5) 0.8448(4)
C19 C 0.7987(4) 0.2223(5) 0.7777(5)
H12 H 0.8147 0.1724 0.7551
C20 C 0.7532(4) 0.3742(5) 0.7594(4)
H13 H 0.7384 0.4254 0.7254
C21 C 0.9360(5) 0.0774(5) 0.9042(5)
C22 C 0.7744(4) 0.2990(5) 0.6335(4)
C23 C 0.7765(4) 0.2972(5) 0.8963(5)
H14 H 0.7775 0.2977 0.9536
C24 C 0.8508(4) 0.0680(5) 0.8900(5)
H15 H 0.8220 0.0556 0.8282
H16 H 0.8446 0.0173 0.9234
C25 C 0.9843(5) 0.1349(7) 0.9661(7)
C26 C 0.9703(6) 0.0238(7) 0.8605(6)
H9 H 0.9292 0.9971 0.6546
O10 O 0.7600(3) 0.9572(4) 0.5369(3)
H18 H 0.9409 0.9813 0.8208
H21 H 0.378541 0.062936 0.997525
H22 H 0.362067 0.147529 0.931677
Mn6_2 Mn 0.77606(6) 0.89144(7) 0.04706(6)
O13_2 O 0.7472(3) 0.6328(3) 0.0888(3)
H17 H 0.4646 0.6696 0.0003
H20_2 H 0.5937 0.6806 0.0179
H23_2 H 0.873592 0.675036 0.0216593
H24_2 H 0.880705 0.568101 0.0144214
O3_2 O 0.7528(3) 0.8672(3) 0.9112(3)
O4_2 O 0.6962(3) 0.7339(3) 0.8914(3)
C1_2 C 0.7017(4) 0.7200(5) 0.6365(4)
C2_2 C 0.7249(4) 0.7994(5) 0.7744(4)
N1_2 N 0.4046(4) 0.5909(4) 0.5685(4)
N2_2 N 0.6828(4) 0.6450(4) 0.5851(4)
H1_2 H 0.6913 0.6440 0.5368
C3_2 C 0.7663(5) 0.9561(5) 0.6164(5)
C4_2 C 0.7465(4) 0.8728(5) 0.6552(4)
C5_2 C 0.7013(4) 0.7223(5) 0.7223(5)
H2_2 H 0.6853 0.6724 0.7449
C6_2 C 0.7468(4) 0.8742(5) 0.7406(4)
H3_2 H 0.7616 0.9254 0.7746
C7_2 C 0.5640(5) 0.5774(5) 0.5958(5)
C8_2 C 0.7256(4) 0.7990(5) 0.8665(4)
C9_2 C 0.7235(4) 0.7972(5) 0.6037(5)
H4_2 H 0.7225 0.7977 0.5464
C10_2 C 0.6492(4) 0.5680(5) 0.6100(5)
H5_2 H 0.6780 0.5556 0.6718
H6_2 H 0.6554 0.5173 0.5766
O5_2 O 0.1466(5) 0.6223(6) 0.5165(6)
C11_2 C 0.5157(5) 0.6349(7) 0.5339(7)
H7_2 H 0.5354 0.6696 0.4997
C12_2 C 0.5297(6) 0.5238(7) 0.6395(6)
H8_2 H 0.5591 0.4813 0.6792
C13_2 C 0.4509(6) 0.5337(7) 0.6237(6)
H9_2 H 0.4292 0.4971 0.6546
C14_2 C 0.4377(5) 0.6403(6) 0.5232(6)
H10_2 H 0.4063 0.6806 0.4821
Mn5_2 Mn 0.22394(6) 0.89144(7) 0.45294(6)
O12_2 O 0.2472(3) 0.8672(3) 0.5888(3)
O14_2 O 0.2528(3) 0.6328(3) 0.4112(3)
O15_2 O 0.3038(3) 0.7339(3) 0.6086(3)
C15_2 C 0.2983(4) 0.7200(5) 0.8635(4)
C16_2 C 0.2751(4) 0.7994(5) 0.7256(4)
N3_2 N 0.5954(4) 0.5909(4) 0.9315(4)
N4_2 N 0.3172(4) 0.6450(4) 0.9149(4)
H11_2 H 0.3087 0.6440 0.9632
C17_2 C 0.2337(5) 0.9561(5) 0.8836(5)
C18_2 C 0.2535(4) 0.8728(5) 0.8448(4)
C19_2 C 0.2987(4) 0.7223(5) 0.7777(5)
H12_2 H 0.3147 0.6724 0.7551
C20_2 C 0.2532(4) 0.8742(5) 0.7594(4)
H13_2 H 0.2384 0.9254 0.7254
C21_2 C 0.4360(5) 0.5774(5) 0.9042(5)
C22_2 C 0.2744(4) 0.7990(5) 0.6335(4)
C23_2 C 0.2765(4) 0.7972(5) 0.8963(5)
H14_2 H 0.2775 0.7977 0.9536
C24_2 C 0.3508(4) 0.5680(5) 0.8900(5)
H15_2 H 0.3220 0.5556 0.8282
H16_2 H 0.3446 0.5173 0.9234
O16_2 O 0.8534(5) 0.6223(6) 0.9835(6)
C25_2 C 0.4843(5) 0.6349(7) 0.9661(7)
C26_2 C 0.4703(6) 0.5238(7) 0.8605(6)
H18_2 H 0.4409 0.4813 0.8208
C27_2 C 0.5491(6) 0.5337(7) 0.8763(6)
H19_2 H 0.5708 0.4971 0.8454
C28_2 C 0.5623(5) 0.6403(6) 0.9768(6)
H21_2 H 0.878541 0.562936 0.997525
H22_2 H 0.862067 0.647529 0.931677
H9_3 H 0.0708 0.0029 0.3454
O10_2 O 0.2400(3) 0.0428(4) 0.4631(3)
H18_3 H 0.0591 0.0187 0.1792
N1_3 N 0.0954(4) 0.9091(4) 0.4315(4)
O5_3 O 0.3534(5) 0.8777(6) 0.4835(6)
C13_3 C 0.0491(6) 0.9663(7) 0.3763(6)
C14_3 C 0.0623(5) 0.8597(6) 0.4768(6)
H10_3 H 0.0937 0.8194 0.5179
O6_2 O 0.2871(3) 0.4754(3) 0.1644(3)
O7_2 O 0.2129(3) 0.9754(3) 0.3356(3)
O9_2 O 0.2600(3) 0.5428(4) 0.0369(3)
O15_3 O 0.1962(3) 0.7661(3) 0.3914(3)
C15_3 C 0.2017(4) 0.7800(5) 0.1365(4)
C16_3 C 0.2249(4) 0.7006(5) 0.2744(4)
N4_3 N 0.1828(4) 0.8550(4) 0.0851(4)
H11_3 H 0.1913 0.8560 0.0368
C17_3 C 0.2663(5) 0.5439(5) 0.1164(5)
C18_3 C 0.2465(4) 0.6272(5) 0.1552(4)
C19_3 C 0.2013(4) 0.7777(5) 0.2223(5)
H12_3 H 0.1853 0.8276 0.2449
C20_3 C 0.2468(4) 0.6258(5) 0.2406(4)
H13_3 H 0.2616 0.5746 0.2746
C21_3 C 0.0640(5) 0.9226(5) 0.0958(5)
C22_3 C 0.2256(4) 0.7010(5) 0.3665(4)
C23_3 C 0.2235(4) 0.7028(5) 0.1037(5)
H14_3 H 0.2225 0.7023 0.0464
C24_3 C 0.1492(4) 0.9320(5) 0.1100(5)
H15_3 H 0.1780 0.9444 0.1718
H16_3 H 0.1554 0.9827 0.0766
C25_3 C 0.0157(5) 0.8651(7) 0.0339(7)
C26_3 C 0.0297(6) 0.9762(7) 0.1395(6)
H8_3 H 0.9409 0.0187 0.3208
O11_2 O 0.7600(3) 0.0428(4) 0.0369(3)
H19_3 H 0.9292 0.0029 0.1546
O1_2 O 0.7129(3) 0.4754(3) 0.3356(3)
O2_2 O 0.7400(3) 0.5428(4) 0.4631(3)
O4_3 O 0.8038(3) 0.7661(3) 0.1086(3)
C1_3 C 0.7983(4) 0.7800(5) 0.3635(4)
C2_3 C 0.7751(4) 0.7006(5) 0.2256(4)
N2_3 N 0.8172(4) 0.8550(4) 0.4149(4)
H1_3 H 0.8087 0.8560 0.4632
C3_3 C 0.7337(5) 0.5439(5) 0.3836(5)
C4_3 C 0.7535(4) 0.6272(5) 0.3448(4)
C5_3 C 0.7987(4) 0.7777(5) 0.2777(5)
H2_3 H 0.8147 0.8276 0.2551
C6_3 C 0.7532(4) 0.6258(5) 0.2594(4)
H3_3 H 0.7384 0.5746 0.2254
C7_3 C 0.9360(5) 0.9226(5) 0.4042(5)
C8_3 C 0.7744(4) 0.7010(5) 0.1335(4)
C9_3 C 0.7765(4) 0.7028(5) 0.3963(5)
H4_3 H 0.7775 0.7023 0.4536
C10_3 C 0.8508(4) 0.9320(5) 0.3900(5)
H5_3 H 0.8220 0.9444 0.3282
H6_3 H 0.8446 0.9827 0.4234
C11_3 C 0.9843(5) 0.8651(7) 0.4661(7)
H7_3 H 0.9646 0.8304 0.5003
C12_3 C 0.9703(6) 0.9762(7) 0.3605(6)
O8_2 O 0.7871(3) 0.9754(3) 0.1644(3)
N3_3 N 0.9046(4) 0.9091(4) 0.0685(4)
O16_3 O 0.6466(5) 0.8777(6) 0.0165(6)
C27_3 C 0.9509(6) 0.9663(7) 0.1237(6)
C28_3 C 0.9377(5) 0.8597(6) 0.0232(6)
H20_3 H 0.9063 0.8194 0.9821
H23_3 H 0.626408 0.824964 0.978341
H24_3 H 0.619295 0.931899 0.985579
H21_3 H 0.621459 0.937064 0.00247541
H22_3 H 0.637933 0.852471 0.0683227
O4_4 O 0.3038(3) 0.2661(3) 0.1086(3)
C1_4 C 0.2983(4) 0.2800(5) 0.3635(4)
C2_4 C 0.2751(4) 0.2006(5) 0.2256(4)
N1_4 N 0.5954(4) 0.4091(4) 0.4315(4)
N2_4 N 0.3172(4) 0.3550(4) 0.4149(4)
H1_4 H 0.3087 0.3560 0.4632
C3_4 C 0.2337(5) 0.0439(5) 0.3836(5)
C4_4 C 0.2535(4) 0.1272(5) 0.3448(4)
C5_4 C 0.2987(4) 0.2777(5) 0.2777(5)
H2_4 H 0.3147 0.3276 0.2551
C6_4 C 0.2532(4) 0.1258(5) 0.2594(4)
H3_4 H 0.2384 0.0746 0.2254
C7_4 C 0.4360(5) 0.4226(5) 0.4042(5)
C8_4 C 0.2744(4) 0.2010(5) 0.1335(4)
C9_4 C 0.2765(4) 0.2028(5) 0.3963(5)
H4_4 H 0.2775 0.2023 0.4536
C10_4 C 0.3508(4) 0.4320(5) 0.3900(5)
H5_4 H 0.3220 0.4444 0.3282
H6_4 H 0.3446 0.4827 0.4234
O5_4 O 0.8534(5) 0.3777(6) 0.4835(6)
C11_4 C 0.4843(5) 0.3651(7) 0.4661(7)
H7_4 H 0.4646 0.3304 0.5003
C12_4 C 0.4703(6) 0.4762(7) 0.3605(6)
H8_4 H 0.4409 0.5187 0.3208
C13_4 C 0.5491(6) 0.4663(7) 0.3763(6)
H9_4 H 0.5708 0.5029 0.3454
C14_4 C 0.5623(5) 0.3597(6) 0.4768(6)
H10_4 H 0.5937 0.3194 0.5179
O15_4 O 0.6962(3) 0.2661(3) 0.3914(3)
C15_4 C 0.7017(4) 0.2800(5) 0.1365(4)
C16_4 C 0.7249(4) 0.2006(5) 0.2744(4)
N3_4 N 0.4046(4) 0.4091(4) 0.0685(4)
N4_4 N 0.6828(4) 0.3550(4) 0.0851(4)
H11_4 H 0.6913 0.3560 0.0368
C17_4 C 0.7663(5) 0.0439(5) 0.1164(5)
C18_4 C 0.7465(4) 0.1272(5) 0.1552(4)
C19_4 C 0.7013(4) 0.2777(5) 0.2223(5)
H12_4 H 0.6853 0.3276 0.2449
C20_4 C 0.7468(4) 0.1258(5) 0.2406(4)
H13_4 H 0.7616 0.0746 0.2746
C21_4 C 0.5640(5) 0.4226(5) 0.0958(5)
C22_4 C 0.7256(4) 0.2010(5) 0.3665(4)
C23_4 C 0.7235(4) 0.2028(5) 0.1037(5)
H14_4 H 0.7225 0.2023 0.0464
C24_4 C 0.6492(4) 0.4320(5) 0.1100(5)
H15_4 H 0.6780 0.4444 0.1718
H16_4 H 0.6554 0.4827 0.0766
O16_4 O 0.1466(5) 0.3777(6) 0.0165(6)
C25_4 C 0.5157(5) 0.3651(7) 0.0339(7)
C26_4 C 0.5297(6) 0.4762(7) 0.1395(6)
H18_4 H 0.5591 0.5187 0.1792
C27_4 C 0.4509(6) 0.4663(7) 0.1237(6)
H19_4 H 0.4292 0.5029 0.1546
C28_4 C 0.4377(5) 0.3597(6) 0.0232(6)
H17_2 H 0.5354 0.3304 0.9997
H20_4 H 0.4063 0.3194 0.9821
H23_4 H 0.126408 0.324964 0.978341
H24_4 H 0.119295 0.431899 0.985579
H21_4 H 0.121459 0.437064 0.00247541
H22_4 H 0.137933 0.352471 0.0683227
H17_3 H 0.9646 0.1696 0.0003
H17_4 H 0.0354 0.8304 0.9997
loop_
_geom_bond_atom_site_label_1
_geom_bond_atom_site_label_2
_geom_bond_site_symmetry_1
_geom_bond_site_symmetry_2
O1 C3 1_555 1_555
O2 C3 1_555 1_555
O3 C8 1_555 1_555
O4 C8 1_555 1_555
C1 N2 1_555 1_555
C2 C5 1_555 1_555
N2 H1 1_555 1_555
C3 C4 1_555 1_555
C4 C6 1_555 1_555
C5 C1 1_555 1_555
H2 C5 1_555 1_555
C6 C2 1_555 1_555
H3 C6 1_555 1_555
C7 C10 1_555 1_555
C8 C2 1_555 1_555
C9 C1 1_555 1_555
H4 C9 1_555 1_555
C10 N2 1_555 1_555
H5 C10 1_555 1_555
H6 C10 1_555 1_555
C11 C7 1_555 1_555
H7 C11 1_555 1_555
C12 C7 1_555 1_555
Mn2 O4 1_555 1_555
Mn3 O1 1_555 1_555
O8 Mn2 1_555 1_555
N3 Mn2 1_555 1_555
O16 Mn2 1_555 1_555
C27 N3 1_555 1_555
C28 N3 1_555 1_555
O2 Mn3 1_555 1_555
C4 C9 1_555 1_555
Mn1 N1 1_555 1_555
N1 C13 1_555 1_555
O5 Mn1 1_555 1_555
C14 N1 1_555 1_555
H10 C14 1_555 1_555
Mn4 O6 1_555 1_555
Mn5 O12 1_555 1_555
O6 C17 1_555 1_555
O7 Mn1 1_555 1_555
O9 Mn4 1_555 1_555
O12 C22 1_555 1_555
O14 Mn1 1_555 1_555
O15 Mn1 1_555 1_555
C15 N4 1_555 1_555
C16 C19 1_555 1_555
N4 H11 1_555 1_555
C17 O9 1_555 1_555
C18 C17 1_555 1_555
C19 C15 1_555 1_555
H12 C19 1_555 1_555
C20 C16 1_555 1_555
H13 C20 1_555 1_555
C21 C24 1_555 1_555
C22 O15 1_555 1_555
C23 C15 1_555 1_555
H14 C23 1_555 1_555
C24 N4 1_555 1_555
H15 C24 1_555 1_555
H16 C24 1_555 1_555
C25 C21 1_555 1_555
C26 C21 1_555 1_555
C16 C22 1_555 1_555
C18 C20 1_555 1_555
C18 C23 1_555 1_555
O16 H21 1_555 1_555
O16 H22 1_555 1_555
Mn3 N1_2 1_555 1_555
O10 C3_2 1_555 1_555
O3_2 C8_2 1_555 1_555
O4_2 C8_2 1_555 1_555
C1_2 N2_2 1_555 1_555
C2_2 C5_2 1_555 1_555
N1_2 C13_2 1_555 1_555
N2_2 H1_2 1_555 1_555
C3_2 C4_2 1_555 1_555
C4_2 C6_2 1_555 1_555
C5_2 C1_2 1_555 1_555
H2_2 C5_2 1_555 1_555
C6_2 C2_2 1_555 1_555
H3_2 C6_2 1_555 1_555
C7_2 C10_2 1_555 1_555
C8_2 C2_2 1_555 1_555
C9_2 C1_2 1_555 1_555
H4_2 C9_2 1_555 1_555
C10_2 N2_2 1_555 1_555
H5_2 C10_2 1_555 1_555
H6_2 C10_2 1_555 1_555
O5_2 Mn3 1_555 1_555
C11_2 C7_2 1_555 1_555
H7_2 C11_2 1_555 1_555
C12_2 C7_2 1_555 1_555
H8_2 C12_2 1_555 1_555
C13_2 C12_2 1_555 1_555
H9_2 C13_2 1_555 1_555
C14_2 N1_2 1_555 1_555
H10_2 C14_2 1_555 1_555
Mn4 O4_2 1_555 1_555
Mn5_2 O12_2 1_555 1_555
O12_2 C22_2 1_555 1_555
O14_2 Mn3 1_555 1_555
O15_2 Mn3 1_555 1_555
C15_2 N4_2 1_555 1_555
C16_2 C19_2 1_555 1_555
N3_2 Mn4 1_555 1_555
N4_2 H11_2 1_555 1_555
C17_2 O11 1_555 1_555
C18_2 C17_2 1_555 1_555
C19_2 C15_2 1_555 1_555
H12_2 C19_2 1_555 1_555
C20_2 C16_2 1_555 1_555
H13_2 C20_2 1_555 1_555
C21_2 C24_2 1_555 1_555
C22_2 O15_2 1_555 1_555
C23_2 C15_2 1_555 1_555
H14_2 C23_2 1_555 1_555
C24_2 N4_2 1_555 1_555
H15_2 C24_2 1_555 1_555
H16_2 C24_2 1_555 1_555
O16_2 Mn4 1_555 1_555
C25_2 C21_2 1_555 1_555
C26_2 C21_2 1_555 1_555
H18_2 C26_2 1_555 1_555
C27_2 N3_2 1_555 1_555
H19_2 C27_2 1_555 1_555
C28_2 N3_2 1_555 1_555
C4_2 C9_2 1_555 1_555
C11_2 C14_2 1_555 1_555
C16_2 C22_2 1_555 1_555
C18_2 C20_2 1_555 1_555
C18_2 C23_2 1_555 1_555
C25_2 C28_2 1_555 1_555
C26_2 C27_2 1_555 1_555
O16_2 H21_2 1_555 1_555
O16_2 H22_2 1_555 1_555
Mn5_2 N1_3 1_555 1_555
N1_3 C13_3 1_555 1_555
O5_3 Mn5_2 1_555 1_555
C14_3 N1_3 1_555 1_555
H10_3 C14_3 1_555 1_555
Mn6 O6_2 1_555 1_555
O6_2 C17_3 1_555 1_555
O7_2 Mn5_2 1_555 1_555
O9_2 Mn6 1_555 1_555
O14_2 C22_3 1_555 1_555
O15_3 Mn5_2 1_555 1_555
C15_3 N4_3 1_555 1_555
C16_3 C19_3 1_555 1_555
N4_3 H11_3 1_555 1_555
C17_3 O9_2 1_555 1_555
C18_3 C17_3 1_555 1_555
C19_3 C15_3 1_555 1_555
H12_3 C19_3 1_555 1_555
C20_3 C16_3 1_555 1_555
H13_3 C20_3 1_555 1_555
C21_3 C24_3 1_555 1_555
C22_3 O15_3 1_555 1_555
C23_3 C15_3 1_555 1_555
H14_3 C23_3 1_555 1_555
C24_3 N4_3 1_555 1_555
H15_3 C24_3 1_555 1_555
H16_3 C24_3 1_555 1_555
C25_3 C21_3 1_555 1_555
C26_3 C21_3 1_555 1_555
C16_3 C22_3 1_555 1_555
C18_3 C20_3 1_555 1_555
C18_3 C23_3 1_555 1_555
O1_2 C3_3 1_555 1_555
O2_2 C3_3 1_555 1_555
O13_2 C8_3 1_555 1_555
O4_3 C8_3 1_555 1_555
C1_3 N2_3 1_555 1_555
C2_3 C5_3 1_555 1_555
N2_3 H1_3 1_555 1_555
C3_3 C4_3 1_555 1_555
C4_3 C6_3 1_555 1_555
C5_3 C1_3 1_555 1_555
H2_3 C5_3 1_555 1_555
C6_3 C2_3 1_555 1_555
H3_3 C6_3 1_555 1_555
C7_3 C10_3 1_555 1_555
C8_3 C2_3 1_555 1_555
C9_3 C1_3 1_555 1_555
H4_3 C9_3 1_555 1_555
C10_3 N2_3 1_555 1_555
H5_3 C10_3 1_555 1_555
H6_3 C10_3 1_555 1_555
C11_3 C7_3 1_555 1_555
H7_3 C11_3 1_555 1_555
C12_3 C7_3 1_555 1_555
Mn6_2 O4_3 1_555 1_555
Mn5 O1_2 1_555 1_555
O8_2 Mn6_2 1_555 1_555
N3_3 Mn6_2 1_555 1_555
O16_3 Mn6_2 1_555 1_555
C27_3 N3_3 1_555 1_555
C28_3 N3_3 1_555 1_555
O2_2 Mn5 1_555 1_555
C4_3 C9_3 1_555 1_555
O16_3 H21_3 1_555 1_555
O16_3 H22_3 1_555 1_555
Mn5 N1_4 1_555 1_555
O10_2 C3_4 1_555 1_555
O13 C8_4 1_555 1_555
O4_4 C8_4 1_555 1_555
C1_4 N2_4 1_555 1_555
C2_4 C5_4 1_555 1_555
N1_4 C13_4 1_555 1_555
N2_4 H1_4 1_555 1_555
C3_4 C4_4 1_555 1_555
C4_4 C6_4 1_555 1_555
C5_4 C1_4 1_555 1_555
H2_4 C5_4 1_555 1_555
C6_4 C2_4 1_555 1_555
H3_4 C6_4 1_555 1_555
C7_4 C10_4 1_555 1_555
C8_4 C2_4 1_555 1_555
C9_4 C1_4 1_555 1_555
H4_4 C9_4 1_555 1_555
C10_4 N2_4 1_555 1_555
H5_4 C10_4 1_555 1_555
H6_4 C10_4 1_555 1_555
O5_4 Mn5 1_555 1_555
C11_4 C7_4 1_555 1_555
H7_4 C11_4 1_555 1_555
C12_4 C7_4 1_555 1_555
H8_4 C12_4 1_555 1_555
C13_4 C12_4 1_555 1_555
H9_4 C13_4 1_555 1_555
C14_4 N1_4 1_555 1_555
H10_4 C14_4 1_555 1_555
Mn6 O4_4 1_555 1_555
O14 C22_4 1_555 1_555
O15_4 Mn5 1_555 1_555
C15_4 N4_4 1_555 1_555
C16_4 C19_4 1_555 1_555
N3_4 Mn6 1_555 1_555
N4_4 H11_4 1_555 1_555
C17_4 O11_2 1_555 1_555
C18_4 C17_4 1_555 1_555
C19_4 C15_4 1_555 1_555
H12_4 C19_4 1_555 1_555
C20_4 C16_4 1_555 1_555
H13_4 C20_4 1_555 1_555
C21_4 C24_4 1_555 1_555
C22_4 O15_4 1_555 1_555
C23_4 C15_4 1_555 1_555
H14_4 C23_4 1_555 1_555
C24_4 N4_4 1_555 1_555
H15_4 C24_4 1_555 1_555
H16_4 C24_4 1_555 1_555
O16_4 Mn6 1_555 1_555
C25_4 C21_4 1_555 1_555
C26_4 C21_4 1_555 1_555
H18_4 C26_4 1_555 1_555
C27_4 N3_4 1_555 1_555
H19_4 C27_4 1_555 1_555
C28_4 N3_4 1_555 1_555
C4_4 C9_4 1_555 1_555
C11_4 C14_4 1_555 1_555
C16_4 C22_4 1_555 1_555
C18_4 C20_4 1_555 1_555
C18_4 C23_4 1_555 1_555
C25_4 C28_4 1_555 1_555
C26_4 C27_4 1_555 1_555
O16_4 H21_4 1_555 1_555
O16_4 H22_4 1_555 1_555

#END
