
###############################################################################
#
# This file contains modified crystal structure data generated from the
# MOF subset of the Cambridge Structural Database (CSD) v543 
# hosted by the Cambridge Crystallographic Data Centre (CCDC).
#
# This work is licensed under the Creative Commons
# Attribution-NonCommercial-ShareAlike 4.0 International License.
# To view a copy of this license, visit
# http://creativecommons.org/licenses/by-nc-sa/4.0/
# or send a letter to
# Creative Commons, PO Box 1866, Mountain View, CA 94042, USA.
#
# CIF created using the CSD Python API on 29 September 2022
# The structure has been converted into the P1 space group
# The structure has a 3D framework
# The original CSD entry LUFNUW is in the monoclinic crystal system
# The framework has been calculated to contain at least 10.0% void space
# The void calculation uses a probe of radius 1.32A, grid spacing 0.4
#
###############################################################################

data_LUFNUW
_chemical_formula_moiety         '(C144 H120 Mn8 N24 O32)n'
_symmetry_cell_setting           triclinic
_symmetry_space_group_name_H-M   'P 1'
_symmetry_Int_Tables_number      1
_space_group_name_Hall           'P 1'
loop_
_symmetry_equiv_pos_site_id
_symmetry_equiv_pos_as_xyz
1 x,y,z
_cell_length_a                   18.826(7)
_cell_length_b                   14.890(2)
_cell_length_c                   16.288(4)
_cell_angle_alpha                90
_cell_angle_beta                 112.937(6)
_cell_angle_gamma                90
_cell_volume                     4204.84
loop_
_atom_site_label
_atom_site_type_symbol
_atom_site_fract_x
_atom_site_fract_y
_atom_site_fract_z
Mn1 Mn 0.78215(5) 0.11058(5) 0.54989(5)
O2 O 0.7910(2) 0.0256(2) 0.6653(2)
N3 N 0.6580(4) 0.1259(5) 0.5239(5)
C15 C 0.4937(4) 0.1646(5) 0.3173(5)
H11 H 0.5452 0.1813 0.3348
H12 H 0.4582 0.1799 0.2609
C16 C 0.4705(12) 0.1180(17) 0.3742(14)
H13 H 0.4186 0.1029 0.3538
C17 C 0.5948(10) 0.1105(13) 0.4925(13)
C18 C 0.5187(16) 0.090(3) 0.4631(16)
H14 H 0.4983 0.1160 0.5040
H15 H 0.5141 0.0251 0.4664
O5 O 0.8065(2) 0.2373(2) 0.6110(2)
O6 O 0.7574(2) 0.1327(3) 0.4141(2)
N4 N 0.9076(3) 0.0947(3) 0.5722(3)
Mn3 Mn 0.78215(5) 0.88942(5) 0.04989(5)
O1 O 0.7654(2) 0.9565(3) 0.5375(2)
C1 C 0.6995(3) 0.7211(3) 0.6340(3)
O3 O 0.6935(2) 0.7373(2) 0.8890(2)
C2 C 0.6983(3) 0.7240(4) 0.7194(4)
H1 H 0.6801 0.6750 0.7409
C3 C 0.7700(3) 0.9557(3) 0.6173(3)
C4 C 0.7481(3) 0.8734(4) 0.6544(3)
O4 O 0.7574(2) 0.8673(3) 0.9141(2)
N1 N 0.4076(3) 0.5947(3) 0.5722(3)
N2 N 0.6756(3) 0.6460(3) 0.5793(3)
H2 H 0.6788 0.6460 0.5281
C5 C 0.7493(3) 0.8738(3) 0.7397(3)
H3 H 0.7671 0.9242 0.7756
C6 C 0.7242(3) 0.8000(4) 0.7721(3)
C7 C 0.7240(3) 0.7974(4) 0.6024(3)
H4 H 0.7241 0.7969 0.5453
C8 C 0.5624(3) 0.5797(4) 0.5948(3)
C9 C 0.7250(3) 0.8009(3) 0.8651(3)
C10 C 0.6459(3) 0.5690(4) 0.6072(3)
H5 H 0.6768 0.5575 0.6696
H6 H 0.6504 0.5172 0.5734
C11 C 0.5142(4) 0.6404(5) 0.5384(5)
H7 H 0.5328 0.6793 0.5067
C12 C 0.5307(4) 0.5242(5) 0.6387(5)
H8 H 0.5602 0.4795 0.6766
C13 C 0.4374(4) 0.6450(5) 0.5275(6)
H9 H 0.4054 0.6858 0.4864
C14 C 0.4554(4) 0.5356(6) 0.6258(5)
H10 H 0.4359 0.4982 0.6578
Mn2 Mn 0.71785(5) 0.61058(5) 0.95011(5)
Mn4 Mn 0.28215(5) 0.61058(5) 0.54989(5)
C15_2 C 0.5063(4) 0.1646(5) 0.1827(5)
H11_2 H 0.4548 0.1813 0.1652
H12_2 H 0.5418 0.1799 0.2391
C16_2 C 0.5295(12) 0.1180(17) 0.1258(14)
H13_2 H 0.5814 0.1029 0.1462
C17_2 C 0.4052(10) 0.1105(13) 0.0075(13)
C18_2 C 0.4813(16) 0.090(3) 0.0369(16)
H15_2 H 0.4859 0.0251 0.0336
O6_2 O 0.2426(2) 0.1327(3) 0.0859(2)
Mn1_2 Mn 0.21785(5) 0.11058(5) 0.95011(5)
O2_2 O 0.2090(2) 0.0256(2) 0.8347(2)
N3_2 N 0.3420(4) 0.1259(5) 0.9761(5)
H14_2 H 0.5017 0.1160 0.9960
O5_2 O 0.1935(2) 0.2373(2) 0.8890(2)
N4_2 N 0.0924(3) 0.0947(3) 0.9278(3)
O1_2 O 0.2346(2) 0.9565(3) 0.9625(2)
C1_2 C 0.3005(3) 0.7211(3) 0.8660(3)
O3_2 O 0.3065(2) 0.7373(2) 0.6110(2)
C2_2 C 0.3017(3) 0.7240(4) 0.7806(4)
H1_2 H 0.3199 0.6750 0.7591
C3_2 C 0.2300(3) 0.9557(3) 0.8827(3)
C4_2 C 0.2519(3) 0.8734(4) 0.8456(3)
O4_2 O 0.2426(2) 0.8673(3) 0.5859(2)
N1_2 N 0.5924(3) 0.5947(3) 0.9278(3)
N2_2 N 0.3244(3) 0.6460(3) 0.9207(3)
H2_2 H 0.3212 0.6460 0.9719
C5_2 C 0.2507(3) 0.8738(3) 0.7603(3)
H3_2 H 0.2329 0.9242 0.7244
C6_2 C 0.2758(3) 0.8000(4) 0.7279(3)
C7_2 C 0.2760(3) 0.7974(4) 0.8976(3)
H4_2 H 0.2759 0.7969 0.9547
C8_2 C 0.4376(3) 0.5797(4) 0.9052(3)
C9_2 C 0.2750(3) 0.8009(3) 0.6349(3)
C10_2 C 0.3541(3) 0.5690(4) 0.8928(3)
H5_2 H 0.3232 0.5575 0.8304
H6_2 H 0.3496 0.5172 0.9266
C11_2 C 0.4858(4) 0.6404(5) 0.9616(5)
H7_2 H 0.4672 0.6793 0.9933
C12_2 C 0.4693(4) 0.5242(5) 0.8613(5)
H8_2 H 0.4398 0.4795 0.8234
C13_2 C 0.5626(4) 0.6450(5) 0.9725(6)
C14_2 C 0.5446(4) 0.5356(6) 0.8742(5)
H10_2 H 0.5641 0.4982 0.8422
Mn3_2 Mn 0.21785(5) 0.88942(5) 0.45011(5)
Mn3_3 Mn 0.28215(5) 0.38942(5) 0.04989(5)
O1_3 O 0.2654(2) 0.4565(3) 0.5375(2)
O2_3 O 0.2910(2) 0.5256(2) 0.6653(2)
C1_3 C 0.1995(3) 0.2211(3) 0.6340(3)
C2_3 C 0.1983(3) 0.2240(4) 0.7194(4)
H1_3 H 0.1801 0.1750 0.7409
C3_3 C 0.2700(3) 0.4557(3) 0.6173(3)
C4_3 C 0.2481(3) 0.3734(4) 0.6544(3)
O4_3 O 0.2574(2) 0.3673(3) 0.9141(2)
N2_3 N 0.1756(3) 0.1460(3) 0.5793(3)
H2_3 H 0.1788 0.1460 0.5281
C5_3 C 0.2493(3) 0.3738(3) 0.7397(3)
H3_3 H 0.2671 0.4242 0.7756
C6_3 C 0.2242(3) 0.3000(4) 0.7721(3)
C7_3 C 0.2240(3) 0.2974(4) 0.6024(3)
H4_3 H 0.2241 0.2969 0.5453
C8_3 C 0.0624(3) 0.0797(4) 0.5948(3)
C9_3 C 0.2250(3) 0.3009(3) 0.8651(3)
C10_3 C 0.1459(3) 0.0690(4) 0.6072(3)
H5_3 H 0.1768 0.0575 0.6696
H6_3 H 0.1504 0.0172 0.5734
C11_3 C 0.0142(4) 0.1404(5) 0.5384(5)
H7_3 H 0.0328 0.1793 0.5067
C12_3 C 0.0307(4) 0.0242(5) 0.6387(5)
N3_3 N 0.1580(4) 0.6259(5) 0.5239(5)
H11_3 H 0.0452 0.6813 0.3348
C17_3 C 0.0948(10) 0.6105(13) 0.4925(13)
C18_3 C 0.0187(16) 0.590(3) 0.4631(16)
H15_3 H 0.0141 0.5251 0.4664
O6_3 O 0.2574(2) 0.6327(3) 0.4141(2)
C13_3 C 0.9374(4) 0.1450(5) 0.5275(6)
H9_2 H 0.9054 0.1858 0.4864
C14_3 C 0.9554(4) 0.0356(6) 0.6258(5)
C15_3 C 0.9937(4) 0.6646(5) 0.3173(5)
H12_3 H 0.9582 0.6799 0.2609
C16_3 C 0.9705(12) 0.6180(17) 0.3742(14)
H13_3 H 0.9186 0.6029 0.3538
H14_3 H 0.9983 0.6160 0.5040
C13_4 C 0.0626(4) 0.1450(5) 0.9725(6)
C14_4 C 0.0446(4) 0.0356(6) 0.8742(5)
H14_4 H 0.0017 0.6160 0.9960
H11_4 H 0.9548 0.6813 0.1652
C17_4 C 0.9052(10) 0.6105(13) 0.0075(13)
C18_4 C 0.9813(16) 0.590(3) 0.0369(16)
H15_4 H 0.9859 0.5251 0.0336
O6_4 O 0.7426(2) 0.6327(3) 0.0859(2)
O1_4 O 0.7346(2) 0.4565(3) 0.9625(2)
O2_4 O 0.7090(2) 0.5256(2) 0.8347(2)
C1_4 C 0.8005(3) 0.2211(3) 0.8660(3)
C2_4 C 0.8017(3) 0.2240(4) 0.7806(4)
H1_4 H 0.8199 0.1750 0.7591
C3_4 C 0.7300(3) 0.4557(3) 0.8827(3)
C4_4 C 0.7519(3) 0.3734(4) 0.8456(3)
O4_4 O 0.7426(2) 0.3673(3) 0.5859(2)
N2_4 N 0.8244(3) 0.1460(3) 0.9207(3)
H2_4 H 0.8212 0.1460 0.9719
C5_4 C 0.7507(3) 0.3738(3) 0.7603(3)
H3_4 H 0.7329 0.4242 0.7244
C6_4 C 0.7758(3) 0.3000(4) 0.7279(3)
C7_4 C 0.7760(3) 0.2974(4) 0.8976(3)
H4_4 H 0.7759 0.2969 0.9547
C8_4 C 0.9376(3) 0.0797(4) 0.9052(3)
C9_4 C 0.7750(3) 0.3009(3) 0.6349(3)
C10_4 C 0.8541(3) 0.0690(4) 0.8928(3)
H5_4 H 0.8232 0.0575 0.8304
H6_4 H 0.8496 0.0172 0.9266
C11_4 C 0.9858(4) 0.1404(5) 0.9616(5)
H7_4 H 0.9672 0.1793 0.9933
C12_4 C 0.9693(4) 0.0242(5) 0.8613(5)
N3_4 N 0.8420(4) 0.6259(5) 0.9761(5)
Mn3_4 Mn 0.71785(5) 0.38942(5) 0.45011(5)
O1_5 O 0.2346(2) 0.0435(3) 0.4625(2)
C1_5 C 0.3005(3) 0.2789(3) 0.3660(3)
O3_3 O 0.3065(2) 0.2627(2) 0.1110(2)
C2_5 C 0.3017(3) 0.2760(4) 0.2806(4)
H1_5 H 0.3199 0.3250 0.2591
C3_5 C 0.2300(3) 0.0443(3) 0.3827(3)
C4_5 C 0.2519(3) 0.1266(4) 0.3456(3)
N1_3 N 0.5924(3) 0.4053(3) 0.4278(3)
N2_5 N 0.3244(3) 0.3540(3) 0.4207(3)
H2_5 H 0.3212 0.3540 0.4719
C5_5 C 0.2507(3) 0.1262(3) 0.2603(3)
H3_5 H 0.2329 0.0758 0.2244
C6_5 C 0.2758(3) 0.2000(4) 0.2279(3)
C7_5 C 0.2760(3) 0.2026(4) 0.3976(3)
H4_5 H 0.2759 0.2031 0.4547
C8_5 C 0.4376(3) 0.4203(4) 0.4052(3)
C9_5 C 0.2750(3) 0.1991(3) 0.1349(3)
C10_5 C 0.3541(3) 0.4310(4) 0.3928(3)
H5_5 H 0.3232 0.4425 0.3304
H6_5 H 0.3496 0.4828 0.4266
C11_5 C 0.4858(4) 0.3596(5) 0.4616(5)
H7_5 H 0.4672 0.3207 0.4933
C12_5 C 0.4693(4) 0.4758(5) 0.3613(5)
H8_3 H 0.4398 0.5205 0.3234
C13_5 C 0.5626(4) 0.3550(5) 0.4725(6)
H9_3 H 0.5946 0.3142 0.5136
C14_5 C 0.5446(4) 0.4644(6) 0.3742(5)
H10_3 H 0.5641 0.5018 0.3422
O2_5 O 0.2090(2) 0.9744(2) 0.3347(2)
N3_5 N 0.3420(4) 0.8741(5) 0.4761(5)
C15_4 C 0.5063(4) 0.8354(5) 0.6827(5)
H11_5 H 0.4548 0.8187 0.6652
H12_4 H 0.5418 0.8201 0.7391
C16_4 C 0.5295(12) 0.8820(17) 0.6258(14)
H13_4 H 0.5814 0.8971 0.6462
C17_5 C 0.4052(10) 0.8895(13) 0.5075(13)
C18_5 C 0.4813(16) 0.910(3) 0.5369(16)
H14_5 H 0.5017 0.8840 0.4960
H15_5 H 0.4859 0.9749 0.5336
O5_3 O 0.1935(2) 0.7627(2) 0.3890(2)
N4_3 N 0.0924(3) 0.9053(3) 0.4278(3)
O1_6 O 0.7654(2) 0.0435(3) 0.0375(2)
C1_6 C 0.6995(3) 0.2789(3) 0.1340(3)
O3_4 O 0.6935(2) 0.2627(2) 0.3890(2)
C2_6 C 0.6983(3) 0.2760(4) 0.2194(4)
H1_6 H 0.6801 0.3250 0.2409
C3_6 C 0.7700(3) 0.0443(3) 0.1173(3)
C4_6 C 0.7481(3) 0.1266(4) 0.1544(3)
N1_4 N 0.4076(3) 0.4053(3) 0.0722(3)
N2_6 N 0.6756(3) 0.3540(3) 0.0793(3)
H2_6 H 0.6788 0.3540 0.0281
C5_6 C 0.7493(3) 0.1262(3) 0.2397(3)
H3_6 H 0.7671 0.0758 0.2756
C6_6 C 0.7242(3) 0.2000(4) 0.2721(3)
C7_6 C 0.7240(3) 0.2026(4) 0.1024(3)
H4_6 H 0.7241 0.2031 0.0453
C8_6 C 0.5624(3) 0.4203(4) 0.0948(3)
C9_6 C 0.7250(3) 0.1991(3) 0.3651(3)
C10_6 C 0.6459(3) 0.4310(4) 0.1072(3)
H5_6 H 0.6768 0.4425 0.1696
H6_6 H 0.6504 0.4828 0.0734
C11_6 C 0.5142(4) 0.3596(5) 0.0384(5)
H7_6 H 0.5328 0.3207 0.0067
C12_6 C 0.5307(4) 0.4758(5) 0.1387(5)
H8_4 H 0.5602 0.5205 0.1766
C13_6 C 0.4374(4) 0.3550(5) 0.0275(6)
C14_6 C 0.4554(4) 0.4644(6) 0.1258(5)
H10_4 H 0.4359 0.5018 0.1578
O2_6 O 0.7910(2) 0.9744(2) 0.1653(2)
N3_6 N 0.6580(4) 0.8741(5) 0.0239(5)
H14_6 H 0.4983 0.8840 0.0040
O5_4 O 0.8065(2) 0.7627(2) 0.1110(2)
N4_4 N 0.9076(3) 0.9053(3) 0.0722(3)
C15_5 C 0.4937(4) 0.8354(5) 0.8173(5)
H11_6 H 0.5452 0.8187 0.8348
H12_5 H 0.4582 0.8201 0.7609
C16_5 C 0.4705(12) 0.8820(17) 0.8742(14)
H13_5 H 0.4186 0.8971 0.8538
C17_6 C 0.5948(10) 0.8895(13) 0.9925(13)
C18_6 C 0.5187(16) 0.910(3) 0.9631(16)
H15_6 H 0.5141 0.9749 0.9664
C13_7 C 0.0626(4) 0.8550(5) 0.4725(6)
H9_4 H 0.0946 0.8142 0.5136
C14_7 C 0.0446(4) 0.9644(6) 0.3742(5)
C15_6 C 0.0063(4) 0.3354(5) 0.6827(5)
H12_6 H 0.0418 0.3201 0.7391
C16_6 C 0.0295(12) 0.3820(17) 0.6258(14)
H13_6 H 0.0814 0.3971 0.6462
H14_7 H 0.0017 0.3840 0.4960
O1_7 O 0.7346(2) 0.5435(3) 0.4625(2)
O2_7 O 0.7090(2) 0.4744(2) 0.3347(2)
C1_7 C 0.8005(3) 0.7789(3) 0.3660(3)
C2_7 C 0.8017(3) 0.7760(4) 0.2806(4)
H1_7 H 0.8199 0.8250 0.2591
C3_7 C 0.7300(3) 0.5443(3) 0.3827(3)
C4_7 C 0.7519(3) 0.6266(4) 0.3456(3)
N2_7 N 0.8244(3) 0.8540(3) 0.4207(3)
H2_7 H 0.8212 0.8540 0.4719
C5_7 C 0.7507(3) 0.6262(3) 0.2603(3)
H3_7 H 0.7329 0.5758 0.2244
C6_7 C 0.7758(3) 0.7000(4) 0.2279(3)
C7_7 C 0.7760(3) 0.7026(4) 0.3976(3)
H4_7 H 0.7759 0.7031 0.4547
C8_7 C 0.9376(3) 0.9203(4) 0.4052(3)
C9_7 C 0.7750(3) 0.6991(3) 0.1349(3)
C10_7 C 0.8541(3) 0.9310(4) 0.3928(3)
H5_7 H 0.8232 0.9425 0.3304
H6_7 H 0.8496 0.9828 0.4266
C11_7 C 0.9858(4) 0.8596(5) 0.4616(5)
H7_7 H 0.9672 0.8207 0.4933
C12_7 C 0.9693(4) 0.9758(5) 0.3613(5)
N3_7 N 0.8420(4) 0.3741(5) 0.4761(5)
H11_7 H 0.9548 0.3187 0.6652
C17_7 C 0.9052(10) 0.3895(13) 0.5075(13)
C18_7 C 0.9813(16) 0.410(3) 0.5369(16)
H15_7 H 0.9859 0.4749 0.5336
O1_8 O 0.2654(2) 0.5435(3) 0.0375(2)
O2_8 O 0.2910(2) 0.4744(2) 0.1653(2)
C1_8 C 0.1995(3) 0.7789(3) 0.1340(3)
C2_8 C 0.1983(3) 0.7760(4) 0.2194(4)
H1_8 H 0.1801 0.8250 0.2409
C3_8 C 0.2700(3) 0.5443(3) 0.1173(3)
C4_8 C 0.2481(3) 0.6266(4) 0.1544(3)
N2_8 N 0.1756(3) 0.8540(3) 0.0793(3)
H2_8 H 0.1788 0.8540 0.0281
C5_8 C 0.2493(3) 0.6262(3) 0.2397(3)
H3_8 H 0.2671 0.5758 0.2756
C6_8 C 0.2242(3) 0.7000(4) 0.2721(3)
C7_8 C 0.2240(3) 0.7026(4) 0.1024(3)
H4_8 H 0.2241 0.7031 0.0453
C8_8 C 0.0624(3) 0.9203(4) 0.0948(3)
C9_8 C 0.2250(3) 0.6991(3) 0.3651(3)
C10_8 C 0.1459(3) 0.9310(4) 0.1072(3)
H5_8 H 0.1768 0.9425 0.1696
H6_8 H 0.1504 0.9828 0.0734
C11_8 C 0.0142(4) 0.8596(5) 0.0384(5)
H7_8 H 0.0328 0.8207 0.0067
C12_8 C 0.0307(4) 0.9758(5) 0.1387(5)
N3_8 N 0.1580(4) 0.3741(5) 0.0239(5)
H11_8 H 0.0452 0.3187 0.8348
C17_8 C 0.0948(10) 0.3895(13) 0.9925(13)
C18_8 C 0.0187(16) 0.410(3) 0.9631(16)
H15_8 H 0.0141 0.4749 0.9664
C13_8 C 0.9374(4) 0.8550(5) 0.0275(6)
C14_8 C 0.9554(4) 0.9644(6) 0.1258(5)
H14_8 H 0.9983 0.3840 0.0040
H9_5 H 0.5946 0.6858 0.0136
H8_5 H 0.0602 0.9795 0.6766
H10_5 H 0.9359 0.9982 0.6578
H9_6 H 0.0946 0.1858 0.0136
C15_7 C 0.0063(4) 0.6646(5) 0.1827(5)
H12_7 H 0.0418 0.6799 0.2391
C16_7 C 0.0295(12) 0.6180(17) 0.1258(14)
H13_7 H 0.0814 0.6029 0.1462
H10_6 H 0.0641 0.9982 0.8422
H8_6 H 0.9398 0.9795 0.8234
H9_7 H 0.4054 0.3142 0.9864
H10_7 H 0.0641 0.0018 0.3422
H8_7 H 0.9398 0.0205 0.3234
H8_8 H 0.0602 0.0205 0.1766
H10_8 H 0.9359 0.0018 0.1578
H9_8 H 0.9054 0.8142 0.9864
C15_8 C 0.9937(4) 0.3354(5) 0.8173(5)
H12_8 H 0.9582 0.3201 0.7609
C16_8 C 0.9705(12) 0.3820(17) 0.8742(14)
H13_8 H 0.9186 0.3971 0.8538
loop_
_geom_bond_atom_site_label_1
_geom_bond_atom_site_label_2
_geom_bond_site_symmetry_1
_geom_bond_site_symmetry_2
O2 Mn1 1_555 1_555
N3 Mn1 1_555 1_555
C15 H11 1_555 1_555
H12 C15 1_555 1_555
C16 C15 1_555 1_555
H13 C16 1_555 1_555
C17 N3 1_555 1_555
C18 C16 1_555 1_555
H14 C18 1_555 1_555
H15 C18 1_555 1_555
O5 Mn1 1_555 1_555
O6 Mn1 1_555 1_555
N4 Mn1 1_555 1_555
C17 C18 1_555 1_555
O1 C3 1_555 1_555
C1 C2 1_555 1_555
O3 C9 1_555 1_555
C2 H1 1_555 1_555
C4 C3 1_555 1_555
O4 C9 1_555 1_555
N1 C13 1_555 1_555
N2 C1 1_555 1_555
H2 N2 1_555 1_555
C5 C4 1_555 1_555
H3 C5 1_555 1_555
C6 C2 1_555 1_555
C7 C1 1_555 1_555
H4 C7 1_555 1_555
C8 C10 1_555 1_555
C9 C6 1_555 1_555
C10 N2 1_555 1_555
H5 C10 1_555 1_555
H6 C10 1_555 1_555
C11 C8 1_555 1_555
H7 C11 1_555 1_555
C12 C8 1_555 1_555
H8 C12 1_555 1_555
C13 C11 1_555 1_555
H9 C13 1_555 1_555
C14 N1 1_555 1_555
H10 C14 1_555 1_555
Mn2 O3 1_555 1_555
Mn4 N1 1_555 1_555
C4 C7 1_555 1_555
C5 C6 1_555 1_555
C12 C14 1_555 1_555
C15_2 H11_2 1_555 1_555
H12_2 C15_2 1_555 1_555
C16_2 C15_2 1_555 1_555
H13_2 C16_2 1_555 1_555
C18_2 C16_2 1_555 1_555
H15_2 C18_2 1_555 1_555
C17_2 C18_2 1_555 1_555
O2_2 Mn1_2 1_555 1_555
N3_2 Mn1_2 1_555 1_555
O5_2 Mn1_2 1_555 1_555
N4_2 Mn1_2 1_555 1_555
O1_2 C3_2 1_555 1_555
C1_2 C2_2 1_555 1_555
O3_2 C9_2 1_555 1_555
C2_2 H1_2 1_555 1_555
C4_2 C3_2 1_555 1_555
O4_2 C9_2 1_555 1_555
N1_2 C13_2 1_555 1_555
N2_2 C1_2 1_555 1_555
H2_2 N2_2 1_555 1_555
C5_2 C4_2 1_555 1_555
H3_2 C5_2 1_555 1_555
C6_2 C2_2 1_555 1_555
C7_2 C1_2 1_555 1_555
H4_2 C7_2 1_555 1_555
C8_2 C10_2 1_555 1_555
C9_2 C6_2 1_555 1_555
C10_2 N2_2 1_555 1_555
H5_2 C10_2 1_555 1_555
H6_2 C10_2 1_555 1_555
C11_2 C8_2 1_555 1_555
H7_2 C11_2 1_555 1_555
C12_2 C8_2 1_555 1_555
H8_2 C12_2 1_555 1_555
C13_2 C11_2 1_555 1_555
C14_2 N1_2 1_555 1_555
H10_2 C14_2 1_555 1_555
Mn4 O3_2 1_555 1_555
Mn3_2 O4_2 1_555 1_555
Mn2 N1_2 1_555 1_555
C4_2 C7_2 1_555 1_555
C5_2 C6_2 1_555 1_555
C12_2 C14_2 1_555 1_555
Mn4 O1_3 1_555 1_555
O1_3 C3_3 1_555 1_555
O2_3 Mn4 1_555 1_555
C1_3 C2_3 1_555 1_555
O5_2 C9_3 1_555 1_555
C2_3 H1_3 1_555 1_555
C3_3 O2_3 1_555 1_555
C4_3 C3_3 1_555 1_555
O4_3 C9_3 1_555 1_555
N2_3 C1_3 1_555 1_555
H2_3 N2_3 1_555 1_555
C5_3 C4_3 1_555 1_555
H3_3 C5_3 1_555 1_555
C6_3 C2_3 1_555 1_555
C7_3 C1_3 1_555 1_555
H4_3 C7_3 1_555 1_555
C8_3 C10_3 1_555 1_555
C9_3 C6_3 1_555 1_555
C10_3 N2_3 1_555 1_555
H5_3 C10_3 1_555 1_555
H6_3 C10_3 1_555 1_555
C11_3 C8_3 1_555 1_555
H7_3 C11_3 1_555 1_555
C12_3 C8_3 1_555 1_555
N3_3 Mn4 1_555 1_555
C17_3 N3_3 1_555 1_555
H15_3 C18_3 1_555 1_555
O6_3 Mn4 1_555 1_555
C4_3 C7_3 1_555 1_555
C5_3 C6_3 1_555 1_555
C17_3 C18_3 1_555 1_555
N4 C13_3 1_555 1_555
H9_2 C13_3 1_555 1_555
C14_3 N4 1_555 1_555
H12_3 C15_3 1_555 1_555
C16_3 C15_3 1_555 1_555
H13_3 C16_3 1_555 1_555
N4_2 C13_4 1_555 1_555
C14_4 N4_2 1_555 1_555
H15_4 C18_4 1_555 1_555
C17_4 C18_4 1_555 1_555
Mn2 O1_4 1_555 1_555
O1_4 C3_4 1_555 1_555
O2_4 Mn2 1_555 1_555
C1_4 C2_4 1_555 1_555
O5 C9_4 1_555 1_555
C2_4 H1_4 1_555 1_555
C3_4 O2_4 1_555 1_555
C4_4 C3_4 1_555 1_555
O4_4 C9_4 1_555 1_555
N2_4 C1_4 1_555 1_555
H2_4 N2_4 1_555 1_555
C5_4 C4_4 1_555 1_555
H3_4 C5_4 1_555 1_555
C6_4 C2_4 1_555 1_555
C7_4 C1_4 1_555 1_555
H4_4 C7_4 1_555 1_555
C8_4 C10_4 1_555 1_555
C9_4 C6_4 1_555 1_555
C10_4 N2_4 1_555 1_555
H5_4 C10_4 1_555 1_555
H6_4 C10_4 1_555 1_555
C11_4 C8_4 1_555 1_555
H7_4 C11_4 1_555 1_555
C12_4 C8_4 1_555 1_555
N3_4 Mn2 1_555 1_555
Mn3_4 O4_4 1_555 1_555
C4_4 C7_4 1_555 1_555
C5_4 C6_4 1_555 1_555
O1_5 C3_5 1_555 1_555
C1_5 C2_5 1_555 1_555
O3_3 C9_5 1_555 1_555
C2_5 H1_5 1_555 1_555
C4_5 C3_5 1_555 1_555
O6_2 C9_5 1_555 1_555
N1_3 C13_5 1_555 1_555
N2_5 C1_5 1_555 1_555
H2_5 N2_5 1_555 1_555
C5_5 C4_5 1_555 1_555
H3_5 C5_5 1_555 1_555
C6_5 C2_5 1_555 1_555
C7_5 C1_5 1_555 1_555
H4_5 C7_5 1_555 1_555
C8_5 C10_5 1_555 1_555
C9_5 C6_5 1_555 1_555
C10_5 N2_5 1_555 1_555
H5_5 C10_5 1_555 1_555
H6_5 C10_5 1_555 1_555
C11_5 C8_5 1_555 1_555
H7_5 C11_5 1_555 1_555
C12_5 C8_5 1_555 1_555
H8_3 C12_5 1_555 1_555
C13_5 C11_5 1_555 1_555
H9_3 C13_5 1_555 1_555
C14_5 N1_3 1_555 1_555
H10_3 C14_5 1_555 1_555
Mn3_3 O3_3 1_555 1_555
Mn3_4 N1_3 1_555 1_555
C4_5 C7_5 1_555 1_555
C5_5 C6_5 1_555 1_555
C12_5 C14_5 1_555 1_555
O2_5 Mn3_2 1_555 1_555
N3_5 Mn3_2 1_555 1_555
C15_4 H11_5 1_555 1_555
H12_4 C15_4 1_555 1_555
C16_4 C15_4 1_555 1_555
H13_4 C16_4 1_555 1_555
C17_5 N3_5 1_555 1_555
C18_5 C16_4 1_555 1_555
H14_5 C18_5 1_555 1_555
H15_5 C18_5 1_555 1_555
O5_3 Mn3_2 1_555 1_555
N4_3 Mn3_2 1_555 1_555
C17_5 C18_5 1_555 1_555
O1_6 C3_6 1_555 1_555
C1_6 C2_6 1_555 1_555
O3_4 C9_6 1_555 1_555
C2_6 H1_6 1_555 1_555
C4_6 C3_6 1_555 1_555
O6 C9_6 1_555 1_555
N1_4 C13_6 1_555 1_555
N2_6 C1_6 1_555 1_555
H2_6 N2_6 1_555 1_555
C5_6 C4_6 1_555 1_555
H3_6 C5_6 1_555 1_555
C6_6 C2_6 1_555 1_555
C7_6 C1_6 1_555 1_555
H4_6 C7_6 1_555 1_555
C8_6 C10_6 1_555 1_555
C9_6 C6_6 1_555 1_555
C10_6 N2_6 1_555 1_555
H5_6 C10_6 1_555 1_555
H6_6 C10_6 1_555 1_555
C11_6 C8_6 1_555 1_555
H7_6 C11_6 1_555 1_555
C12_6 C8_6 1_555 1_555
H8_4 C12_6 1_555 1_555
C13_6 C11_6 1_555 1_555
C14_6 N1_4 1_555 1_555
H10_4 C14_6 1_555 1_555
Mn3_4 O3_4 1_555 1_555
Mn3_3 N1_4 1_555 1_555
C4_6 C7_6 1_555 1_555
C5_6 C6_6 1_555 1_555
C12_6 C14_6 1_555 1_555
O2_6 Mn3 1_555 1_555
N3_6 Mn3 1_555 1_555
O5_4 Mn3 1_555 1_555
N4_4 Mn3 1_555 1_555
C15_5 H11_6 1_555 1_555
H12_5 C15_5 1_555 1_555
C16_5 C15_5 1_555 1_555
H13_5 C16_5 1_555 1_555
C18_6 C16_5 1_555 1_555
H15_6 C18_6 1_555 1_555
C17_6 C18_6 1_555 1_555
N4_3 C13_7 1_555 1_555
H9_4 C13_7 1_555 1_555
C14_7 N4_3 1_555 1_555
H12_6 C15_6 1_555 1_555
C16_6 C15_6 1_555 1_555
H13_6 C16_6 1_555 1_555
Mn3_4 O1_7 1_555 1_555
O1_7 C3_7 1_555 1_555
O2_7 Mn3_4 1_555 1_555
C1_7 C2_7 1_555 1_555
O5_4 C9_7 1_555 1_555
C2_7 H1_7 1_555 1_555
C3_7 O2_7 1_555 1_555
C4_7 C3_7 1_555 1_555
O6_4 C9_7 1_555 1_555
N2_7 C1_7 1_555 1_555
H2_7 N2_7 1_555 1_555
C5_7 C4_7 1_555 1_555
H3_7 C5_7 1_555 1_555
C6_7 C2_7 1_555 1_555
C7_7 C1_7 1_555 1_555
H4_7 C7_7 1_555 1_555
C8_7 C10_7 1_555 1_555
C9_7 C6_7 1_555 1_555
C10_7 N2_7 1_555 1_555
H5_7 C10_7 1_555 1_555
H6_7 C10_7 1_555 1_555
C11_7 C8_7 1_555 1_555
H7_7 C11_7 1_555 1_555
C12_7 C8_7 1_555 1_555
N3_7 Mn3_4 1_555 1_555
C17_7 N3_7 1_555 1_555
H15_7 C18_7 1_555 1_555
C4_7 C7_7 1_555 1_555
C5_7 C6_7 1_555 1_555
C17_7 C18_7 1_555 1_555
Mn3_3 O1_8 1_555 1_555
O1_8 C3_8 1_555 1_555
O2_8 Mn3_3 1_555 1_555
C1_8 C2_8 1_555 1_555
O5_3 C9_8 1_555 1_555
C2_8 H1_8 1_555 1_555
C3_8 O2_8 1_555 1_555
C4_8 C3_8 1_555 1_555
O6_3 C9_8 1_555 1_555
N2_8 C1_8 1_555 1_555
H2_8 N2_8 1_555 1_555
C5_8 C4_8 1_555 1_555
H3_8 C5_8 1_555 1_555
C6_8 C2_8 1_555 1_555
C7_8 C1_8 1_555 1_555
H4_8 C7_8 1_555 1_555
C8_8 C10_8 1_555 1_555
C9_8 C6_8 1_555 1_555
C10_8 N2_8 1_555 1_555
H5_8 C10_8 1_555 1_555
H6_8 C10_8 1_555 1_555
C11_8 C8_8 1_555 1_555
H7_8 C11_8 1_555 1_555
C12_8 C8_8 1_555 1_555
N3_8 Mn3_3 1_555 1_555
C4_8 C7_8 1_555 1_555
C5_8 C6_8 1_555 1_555
H15_8 C18_8 1_555 1_555
C17_8 C18_8 1_555 1_555
N4_4 C13_8 1_555 1_555
C14_8 N4_4 1_555 1_555
H12_7 C15_7 1_555 1_555
C16_7 C15_7 1_555 1_555
H13_7 C16_7 1_555 1_555
H12_8 C15_8 1_555 1_555
C16_8 C15_8 1_555 1_555
H13_8 C16_8 1_555 1_555

#END
