
###############################################################################
#
# This file contains modified crystal structure data generated from the
# MOF subset of the Cambridge Structural Database (CSD) v543 
# hosted by the Cambridge Crystallographic Data Centre (CCDC).
#
# This work is licensed under the Creative Commons
# Attribution-NonCommercial-ShareAlike 4.0 International License.
# To view a copy of this license, visit
# http://creativecommons.org/licenses/by-nc-sa/4.0/
# or send a letter to
# Creative Commons, PO Box 1866, Mountain View, CA 94042, USA.
#
# CIF created using the CSD Python API on 29 September 2022
# The structure has been converted into the P1 space group
# The structure has a 3D framework
# The original CSD entry LUFNAC02 is in the monoclinic crystal system
# The framework has been calculated to contain at least 10.0% void space
# The void calculation uses a probe of radius 1.32A, grid spacing 0.4
# H atom positions have been added when not included in the experimental data
#
###############################################################################

data_LUFNAC02
_chemical_formula_moiety         '(C112 H96 Mn8 N16 O40)n'
_symmetry_cell_setting           triclinic
_symmetry_space_group_name_H-M   'P 1'
_symmetry_Int_Tables_number      1
_space_group_name_Hall           'P 1'
loop_
_symmetry_equiv_pos_site_id
_symmetry_equiv_pos_as_xyz
1 x,y,z
_cell_length_a                   18.409(7)
_cell_length_b                   15.009(6)
_cell_length_c                   16.341(6)
_cell_angle_alpha                90
_cell_angle_beta                 111.682(7)
_cell_angle_gamma                90
_cell_volume                     4195.59
loop_
_atom_site_label
_atom_site_type_symbol
_atom_site_fract_x
_atom_site_fract_y
_atom_site_fract_z
Mn7 Mn 0.77580(5) 0.39176(5) 0.04676(5)
Mn1 Mn 0.27580(5) 0.10824(5) 0.54676(5)
O1 O 0.2869(3) 0.0238(2) 0.6642(3)
O5 O 0.1521(4) 0.1204(4) 0.5265(4)
Mn2 Mn 0.77580(5) 0.60824(5) 0.54676(5)
Mn6 Mn 0.72420(5) 0.10824(5) 0.95324(5)
O6 O 0.7869(3) 0.5238(2) 0.6642(3)
O7 O 0.7593(3) 0.4555(3) 0.5365(2)
O8 O 0.6968(3) 0.2331(2) 0.8917(2)
O9 O 0.3032(3) 0.2331(2) 0.6083(2)
O10 O 0.8032(3) 0.7331(2) 0.6083(2)
O11 O 0.7528(3) 0.3674(2) 0.9119(2)
O12 O 0.2528(3) 0.1326(2) 0.4119(2)
O13 O 0.7528(3) 0.6326(2) 0.4119(2)
C15 C 0.7016(4) 0.2192(4) 0.6374(4)
C16 C 0.7252(4) 0.2981(4) 0.7745(3)
N3 N 0.6820(3) 0.1440(3) 0.5856(3)
H11 H 0.6900 0.1430 0.5370
N4 N 0.4041(3) 0.0913(3) 0.5683(3)
N5 N 0.9041(3) 0.5913(3) 0.5683(3)
C17 C 0.7465(4) 0.3720(4) 0.6546(4)
C18 C 0.7470(4) 0.3733(3) 0.7396(4)
H12 H 0.7619 0.4247 0.7734
C19 C 0.7659(4) 0.4559(4) 0.6164(4)
C20 C 0.7233(4) 0.2957(4) 0.6044(4)
H13 H 0.7223 0.2956 0.5470
C21 C 0.7012(4) 0.2214(4) 0.7223(4)
H14 H 0.6848 0.1715 0.7447
C22 C 0.5634(4) 0.0769(4) 0.5958(4)
C23 C 0.7258(3) 0.2985(3) 0.8664(3)
C24 C 0.6487(4) 0.0674(4) 0.6106(4)
H15 H 0.6775 0.0555 0.6726
H16 H 0.6552 0.0164 0.5776
O14 O 0.6521(4) 0.6204(4) 0.5265(4)
C25 C 0.5166(5) 0.1347(5) 0.5354(5)
H17 H 0.5365 0.1700 0.5018
C26 C 0.5289(5) 0.0233(5) 0.6397(5)
C27 C 0.4511(5) 0.0315(5) 0.6230(5)
C28 C 0.4372(4) 0.1403(5) 0.5247(5)
H20 H 0.4060 0.1812 0.4841
H21 H 0.14686 0.148563 0.579032
H22 H 0.125386 0.157849 0.473818
H23 H 0.64686 0.648563 0.579032
H24 H 0.625386 0.657849 0.473818
Mn4 Mn 0.27580(5) 0.89176(5) 0.04676(5)
O2 O 0.2593(3) 0.9555(3) 0.5365(2)
O3 O 0.1968(3) 0.7331(2) 0.8917(2)
O4 O 0.2528(3) 0.8674(2) 0.9119(2)
C1 C 0.2016(4) 0.7192(4) 0.6374(4)
C2 C 0.2252(4) 0.7981(4) 0.7745(3)
N1 N 0.1820(3) 0.6440(3) 0.5856(3)
H1 H 0.1900 0.6430 0.5370
C3 C 0.2465(4) 0.8720(4) 0.6546(4)
C4 C 0.2470(4) 0.8733(3) 0.7396(4)
H2 H 0.2619 0.9247 0.7734
C5 C 0.2659(4) 0.9559(4) 0.6164(4)
C6 C 0.2233(4) 0.7957(4) 0.6044(4)
H3 H 0.2223 0.7956 0.5470
C7 C 0.2012(4) 0.7214(4) 0.7223(4)
H4 H 0.1848 0.6715 0.7447
C8 C 0.0634(4) 0.5769(4) 0.5958(4)
C9 C 0.2258(3) 0.7985(3) 0.8664(3)
C10 C 0.1487(4) 0.5674(4) 0.6106(4)
H5 H 0.1775 0.5555 0.6726
H6 H 0.1552 0.5164 0.5776
C11 C 0.0166(5) 0.6347(5) 0.5354(5)
H7 H 0.0365 0.6700 0.5018
C12 C 0.0289(5) 0.5233(5) 0.6397(5)
H8 H 0.0587 0.4817 0.6804
Mn3 Mn 0.22420(5) 0.60824(5) 0.95324(5)
H18 H 0.5587 0.9817 0.6804
H19 H 0.4291 0.9926 0.6518
C13 C 0.9511(5) 0.5315(5) 0.6230(5)
H9 H 0.9291 0.4926 0.6518
C14 C 0.9372(4) 0.6403(5) 0.5247(5)
H10 H 0.9060 0.6812 0.4841
H10_2 H 0.0940 0.6812 0.0159
N2 N 0.0959(3) 0.5913(3) 0.9317(3)
C13_2 C 0.0489(5) 0.5315(5) 0.8770(5)
H9_2 H 0.0709 0.4926 0.8482
C14_2 C 0.0628(4) 0.6403(5) 0.9753(5)
O12_2 O 0.7472(3) 0.1326(2) 0.0881(2)
O13_2 O 0.2472(3) 0.6326(2) 0.0881(2)
H20_2 H 0.5940 0.1812 0.0159
H22_2 H 0.874614 0.157849 0.0261819
H24_2 H 0.374614 0.657849 0.0261819
O1_2 O 0.7131(3) 0.0238(2) 0.8358(3)
O5_2 O 0.8479(4) 0.1204(4) 0.9735(4)
Mn7_2 Mn 0.22420(5) 0.39176(5) 0.45324(5)
O6_2 O 0.2131(3) 0.5238(2) 0.8358(3)
O7_2 O 0.2407(3) 0.4555(3) 0.9635(2)
O11_2 O 0.2472(3) 0.3674(2) 0.5881(2)
C15_2 C 0.2984(4) 0.2192(4) 0.8626(4)
C16_2 C 0.2748(4) 0.2981(4) 0.7255(3)
N3_2 N 0.3180(3) 0.1440(3) 0.9144(3)
H11_2 H 0.3100 0.1430 0.9630
N4_2 N 0.5959(3) 0.0913(3) 0.9317(3)
C17_2 C 0.2535(4) 0.3720(4) 0.8454(4)
C18_2 C 0.2530(4) 0.3733(3) 0.7604(4)
H12_2 H 0.2381 0.4247 0.7266
C19_2 C 0.2341(4) 0.4559(4) 0.8836(4)
C20_2 C 0.2767(4) 0.2957(4) 0.8956(4)
H13_2 H 0.2777 0.2956 0.9530
C21_2 C 0.2988(4) 0.2214(4) 0.7777(4)
H14_2 H 0.3152 0.1715 0.7553
C22_2 C 0.4366(4) 0.0769(4) 0.9042(4)
C23_2 C 0.2742(3) 0.2985(3) 0.6336(3)
C24_2 C 0.3513(4) 0.0674(4) 0.8894(4)
H15_2 H 0.3225 0.0555 0.8274
H16_2 H 0.3448 0.0164 0.9224
O14_2 O 0.3479(4) 0.6204(4) 0.9735(4)
C25_2 C 0.4834(5) 0.1347(5) 0.9646(5)
H17_2 H 0.4635 0.1700 0.9982
C26_2 C 0.4711(5) 0.0233(5) 0.8603(5)
C27_2 C 0.5489(5) 0.0315(5) 0.8770(5)
C28_2 C 0.5628(4) 0.1403(5) 0.9753(5)
H21_2 H 0.85314 0.148563 0.920968
H23_2 H 0.35314 0.648563 0.920968
O2_2 O 0.7407(3) 0.9555(3) 0.9635(2)
O4_2 O 0.7472(3) 0.8674(2) 0.5881(2)
C1_2 C 0.7984(4) 0.7192(4) 0.8626(4)
C2_2 C 0.7748(4) 0.7981(4) 0.7255(3)
N1_2 N 0.8180(3) 0.6440(3) 0.9144(3)
H1_2 H 0.8100 0.6430 0.9630
C3_2 C 0.7535(4) 0.8720(4) 0.8454(4)
C4_2 C 0.7530(4) 0.8733(3) 0.7604(4)
H2_2 H 0.7381 0.9247 0.7266
C5_2 C 0.7341(4) 0.9559(4) 0.8836(4)
C6_2 C 0.7767(4) 0.7957(4) 0.8956(4)
H3_2 H 0.7777 0.7956 0.9530
C7_2 C 0.7988(4) 0.7214(4) 0.7777(4)
H4_2 H 0.8152 0.6715 0.7553
C8_2 C 0.9366(4) 0.5769(4) 0.9042(4)
C9_2 C 0.7742(3) 0.7985(3) 0.6336(3)
C10_2 C 0.8513(4) 0.5674(4) 0.8894(4)
H5_2 H 0.8225 0.5555 0.8274
H6_2 H 0.8448 0.5164 0.9224
C11_2 C 0.9834(5) 0.6347(5) 0.9646(5)
H7_2 H 0.9635 0.6700 0.9982
C12_2 C 0.9711(5) 0.5233(5) 0.8603(5)
H8_2 H 0.9413 0.4817 0.8196
Mn4_2 Mn 0.72420(5) 0.89176(5) 0.45324(5)
H18_2 H 0.4413 0.9817 0.8196
H19_2 H 0.5709 0.9926 0.8482
N2_2 N 0.0959(3) 0.4087(3) 0.4317(3)
C13_3 C 0.0489(5) 0.4685(5) 0.3770(5)
H9_3 H 0.0709 0.5074 0.3482
C14_3 C 0.0628(4) 0.3597(5) 0.4753(5)
H10_3 H 0.0940 0.3188 0.5159
O2_3 O 0.7407(3) 0.0445(3) 0.4635(2)
O3_2 O 0.8032(3) 0.2669(2) 0.1083(2)
C1_3 C 0.7984(4) 0.2808(4) 0.3626(4)
C2_3 C 0.7748(4) 0.2019(4) 0.2255(3)
N1_3 N 0.8180(3) 0.3560(3) 0.4144(3)
H1_3 H 0.8100 0.3570 0.4630
C3_3 C 0.7535(4) 0.1280(4) 0.3454(4)
C4_3 C 0.7530(4) 0.1267(3) 0.2604(4)
H2_3 H 0.7381 0.0753 0.2266
C5_3 C 0.7341(4) 0.0441(4) 0.3836(4)
C6_3 C 0.7767(4) 0.2043(4) 0.3956(4)
H3_3 H 0.7777 0.2044 0.4530
C7_3 C 0.7988(4) 0.2786(4) 0.2777(4)
H4_3 H 0.8152 0.3285 0.2553
C8_3 C 0.9366(4) 0.4231(4) 0.4042(4)
C9_3 C 0.7742(3) 0.2015(3) 0.1336(3)
C10_3 C 0.8513(4) 0.4326(4) 0.3894(4)
H5_3 H 0.8225 0.4445 0.3274
H6_3 H 0.8448 0.4836 0.4224
C11_3 C 0.9834(5) 0.3653(5) 0.4646(5)
H7_3 H 0.9635 0.3300 0.4982
C12_3 C 0.9711(5) 0.4767(5) 0.3603(5)
H8_3 H 0.9413 0.5183 0.3196
H18_3 H 0.4413 0.0183 0.3196
H19_3 H 0.5709 0.0074 0.3482
O1_3 O 0.7131(3) 0.9762(2) 0.3358(3)
O5_3 O 0.8479(4) 0.8796(4) 0.4735(4)
O6_3 O 0.2131(3) 0.4762(2) 0.3358(3)
O7_3 O 0.2407(3) 0.5445(3) 0.4635(2)
O8_2 O 0.3032(3) 0.7669(2) 0.1083(2)
O9_2 O 0.6968(3) 0.7669(2) 0.3917(2)
O10_2 O 0.1968(3) 0.2669(2) 0.3917(2)
C15_3 C 0.2984(4) 0.7808(4) 0.3626(4)
C16_3 C 0.2748(4) 0.7019(4) 0.2255(3)
N3_3 N 0.3180(3) 0.8560(3) 0.4144(3)
H11_3 H 0.3100 0.8570 0.4630
N4_3 N 0.5959(3) 0.9087(3) 0.4317(3)
C17_3 C 0.2535(4) 0.6280(4) 0.3454(4)
C18_3 C 0.2530(4) 0.6267(3) 0.2604(4)
H12_3 H 0.2381 0.5753 0.2266
C19_3 C 0.2341(4) 0.5441(4) 0.3836(4)
C20_3 C 0.2767(4) 0.7043(4) 0.3956(4)
H13_3 H 0.2777 0.7044 0.4530
C21_3 C 0.2988(4) 0.7786(4) 0.2777(4)
H14_3 H 0.3152 0.8285 0.2553
C22_3 C 0.4366(4) 0.9231(4) 0.4042(4)
C23_3 C 0.2742(3) 0.7015(3) 0.1336(3)
C24_3 C 0.3513(4) 0.9326(4) 0.3894(4)
H15_3 H 0.3225 0.9445 0.3274
H16_3 H 0.3448 0.9836 0.4224
O14_3 O 0.3479(4) 0.3796(4) 0.4735(4)
C25_3 C 0.4834(5) 0.8653(5) 0.4646(5)
H17_3 H 0.4635 0.8300 0.4982
C26_3 C 0.4711(5) 0.9767(5) 0.3603(5)
C27_3 C 0.5489(5) 0.9685(5) 0.3770(5)
C28_3 C 0.5628(4) 0.8597(5) 0.4753(5)
H20_3 H 0.5940 0.8188 0.5159
H21_3 H 0.85314 0.851437 0.420968
H22_3 H 0.874614 0.842151 0.526182
H23_3 H 0.35314 0.351437 0.420968
H24_3 H 0.374614 0.342151 0.526182
O2_4 O 0.2593(3) 0.0445(3) 0.0365(2)
C1_4 C 0.2016(4) 0.2808(4) 0.1374(4)
C2_4 C 0.2252(4) 0.2019(4) 0.2745(3)
N1_4 N 0.1820(3) 0.3560(3) 0.0856(3)
H1_4 H 0.1900 0.3570 0.0370
C3_4 C 0.2465(4) 0.1280(4) 0.1546(4)
C4_4 C 0.2470(4) 0.1267(3) 0.2396(4)
H2_4 H 0.2619 0.0753 0.2734
C5_4 C 0.2659(4) 0.0441(4) 0.1164(4)
C6_4 C 0.2233(4) 0.2043(4) 0.1044(4)
H3_4 H 0.2223 0.2044 0.0470
C7_4 C 0.2012(4) 0.2786(4) 0.2223(4)
H4_4 H 0.1848 0.3285 0.2447
C8_4 C 0.0634(4) 0.4231(4) 0.0958(4)
C9_4 C 0.2258(3) 0.2015(3) 0.3664(3)
C10_4 C 0.1487(4) 0.4326(4) 0.1106(4)
H5_4 H 0.1775 0.4445 0.1726
H6_4 H 0.1552 0.4836 0.0776
C11_4 C 0.0166(5) 0.3653(5) 0.0354(5)
H7_4 H 0.0365 0.3300 0.0018
C12_4 C 0.0289(5) 0.4767(5) 0.1397(5)
H8_4 H 0.0587 0.5183 0.1804
H18_4 H 0.5587 0.0183 0.1804
H19_4 H 0.4291 0.0074 0.1518
O1_4 O 0.2869(3) 0.9762(2) 0.1642(3)
O5_4 O 0.1521(4) 0.8796(4) 0.0265(4)
O6_4 O 0.7869(3) 0.4762(2) 0.1642(3)
O7_4 O 0.7593(3) 0.5445(3) 0.0365(2)
C15_4 C 0.7016(4) 0.7808(4) 0.1374(4)
C16_4 C 0.7252(4) 0.7019(4) 0.2745(3)
N3_4 N 0.6820(3) 0.8560(3) 0.0856(3)
H11_4 H 0.6900 0.8570 0.0370
N4_4 N 0.4041(3) 0.9087(3) 0.0683(3)
N5_2 N 0.9041(3) 0.4087(3) 0.0683(3)
C17_4 C 0.7465(4) 0.6280(4) 0.1546(4)
C18_4 C 0.7470(4) 0.6267(3) 0.2396(4)
H12_4 H 0.7619 0.5753 0.2734
C19_4 C 0.7659(4) 0.5441(4) 0.1164(4)
C20_4 C 0.7233(4) 0.7043(4) 0.1044(4)
H13_4 H 0.7223 0.7044 0.0470
C21_4 C 0.7012(4) 0.7786(4) 0.2223(4)
H14_4 H 0.6848 0.8285 0.2447
C22_4 C 0.5634(4) 0.9231(4) 0.0958(4)
C23_4 C 0.7258(3) 0.7015(3) 0.3664(3)
C24_4 C 0.6487(4) 0.9326(4) 0.1106(4)
H15_4 H 0.6775 0.9445 0.1726
H16_4 H 0.6552 0.9836 0.0776
O14_4 O 0.6521(4) 0.3796(4) 0.0265(4)
C25_4 C 0.5166(5) 0.8653(5) 0.0354(5)
H17_4 H 0.5365 0.8300 0.0018
C26_4 C 0.5289(5) 0.9767(5) 0.1397(5)
C27_4 C 0.4511(5) 0.9685(5) 0.1230(5)
C28_4 C 0.4372(4) 0.8597(5) 0.0247(5)
H21_4 H 0.14686 0.851437 0.0790316
H23_4 H 0.64686 0.351437 0.0790316
H20_4 H 0.4060 0.8188 0.9841
H22_4 H 0.125386 0.842151 0.973818
H24_4 H 0.625386 0.342151 0.973818
C13_4 C 0.9511(5) 0.4685(5) 0.1230(5)
H9_4 H 0.9291 0.5074 0.1518
C14_4 C 0.9372(4) 0.3597(5) 0.0247(5)
H10_4 H 0.9060 0.3188 0.9841
loop_
_geom_bond_atom_site_label_1
_geom_bond_atom_site_label_2
_geom_bond_site_symmetry_1
_geom_bond_site_symmetry_2
Mn1 O1 1_555 1_555
O5 Mn1 1_555 1_555
Mn2 O6 1_555 1_555
Mn6 O8 1_555 1_555
O6 C19 1_555 1_555
O7 Mn2 1_555 1_555
O8 C23 1_555 1_555
O9 Mn1 1_555 1_555
O10 Mn2 1_555 1_555
O11 C23 1_555 1_555
O12 Mn1 1_555 1_555
O13 Mn2 1_555 1_555
C15 N3 1_555 1_555
C16 C18 1_555 1_555
N3 H11 1_555 1_555
N4 Mn1 1_555 1_555
N5 Mn2 1_555 1_555
C17 C18 1_555 1_555
C18 H12 1_555 1_555
C19 O7 1_555 1_555
C20 C15 1_555 1_555
H13 C20 1_555 1_555
C21 C15 1_555 1_555
H14 C21 1_555 1_555
C22 C24 1_555 1_555
C23 C16 1_555 1_555
C24 N3 1_555 1_555
H15 C24 1_555 1_555
H16 C24 1_555 1_555
O14 Mn2 1_555 1_555
C25 C22 1_555 1_555
H17 C25 1_555 1_555
C26 C22 1_555 1_555
C27 N4 1_555 1_555
C28 N4 1_555 1_555
H20 C28 1_555 1_555
C16 C21 1_555 1_555
C17 C19 1_555 1_555
C17 C20 1_555 1_555
C25 C28 1_555 1_555
C26 C27 1_555 1_555
O5 H21 1_555 1_555
O5 H22 1_555 1_555
O14 H23 1_555 1_555
O14 H24 1_555 1_555
O3 C9 1_555 1_555
O4 C9 1_555 1_555
C1 N1 1_555 1_555
C2 C4 1_555 1_555
N1 H1 1_555 1_555
C3 C4 1_555 1_555
C4 H2 1_555 1_555
C5 O2 1_555 1_555
C6 C1 1_555 1_555
H3 C6 1_555 1_555
C7 C1 1_555 1_555
H4 C7 1_555 1_555
C8 C10 1_555 1_555
C9 C2 1_555 1_555
C10 N1 1_555 1_555
H5 C10 1_555 1_555
H6 C10 1_555 1_555
C11 C8 1_555 1_555
H7 C11 1_555 1_555
C12 C8 1_555 1_555
H8 C12 1_555 1_555
Mn3 O3 1_555 1_555
C2 C7 1_555 1_555
C3 C5 1_555 1_555
C3 C6 1_555 1_555
N5 C13 1_555 1_555
H9 C13 1_555 1_555
C14 N5 1_555 1_555
H10 C14 1_555 1_555
N2 C13_2 1_555 1_555
H9_2 C13_2 1_555 1_555
C14_2 N2 1_555 1_555
Mn3 N2 1_555 1_555
Mn6 O1_2 1_555 1_555
O5_2 Mn6 1_555 1_555
Mn3 O6_2 1_555 1_555
Mn7_2 O11_2 1_555 1_555
O6_2 C19_2 1_555 1_555
O7_2 Mn3 1_555 1_555
O9 C23_2 1_555 1_555
O11_2 C23_2 1_555 1_555
C15_2 N3_2 1_555 1_555
C16_2 C18_2 1_555 1_555
N3_2 H11_2 1_555 1_555
N4_2 Mn6 1_555 1_555
C17_2 C18_2 1_555 1_555
C18_2 H12_2 1_555 1_555
C19_2 O7_2 1_555 1_555
C20_2 C15_2 1_555 1_555
H13_2 C20_2 1_555 1_555
C21_2 C15_2 1_555 1_555
H14_2 C21_2 1_555 1_555
C22_2 C24_2 1_555 1_555
C23_2 C16_2 1_555 1_555
C24_2 N3_2 1_555 1_555
H15_2 C24_2 1_555 1_555
H16_2 C24_2 1_555 1_555
O14_2 Mn3 1_555 1_555
C25_2 C22_2 1_555 1_555
H17_2 C25_2 1_555 1_555
C26_2 C22_2 1_555 1_555
C27_2 N4_2 1_555 1_555
C28_2 N4_2 1_555 1_555
C16_2 C21_2 1_555 1_555
C17_2 C19_2 1_555 1_555
C17_2 C20_2 1_555 1_555
C25_2 C28_2 1_555 1_555
C26_2 C27_2 1_555 1_555
O5_2 H21_2 1_555 1_555
O14_2 H23_2 1_555 1_555
O10 C9_2 1_555 1_555
O4_2 C9_2 1_555 1_555
C1_2 N1_2 1_555 1_555
C2_2 C4_2 1_555 1_555
N1_2 H1_2 1_555 1_555
C3_2 C4_2 1_555 1_555
C4_2 H2_2 1_555 1_555
C5_2 O2_2 1_555 1_555
C6_2 C1_2 1_555 1_555
H3_2 C6_2 1_555 1_555
C7_2 C1_2 1_555 1_555
H4_2 C7_2 1_555 1_555
C8_2 C10_2 1_555 1_555
C9_2 C2_2 1_555 1_555
C10_2 N1_2 1_555 1_555
H5_2 C10_2 1_555 1_555
H6_2 C10_2 1_555 1_555
C11_2 C8_2 1_555 1_555
H7_2 C11_2 1_555 1_555
C12_2 C8_2 1_555 1_555
H8_2 C12_2 1_555 1_555
Mn4_2 O4_2 1_555 1_555
C2_2 C7_2 1_555 1_555
C3_2 C5_2 1_555 1_555
C3_2 C6_2 1_555 1_555
N2_2 C13_3 1_555 1_555
H9_3 C13_3 1_555 1_555
C14_3 N2_2 1_555 1_555
H10_3 C14_3 1_555 1_555
Mn7_2 N2_2 1_555 1_555
O3_2 C9_3 1_555 1_555
O12_2 C9_3 1_555 1_555
C1_3 N1_3 1_555 1_555
C2_3 C4_3 1_555 1_555
N1_3 H1_3 1_555 1_555
C3_3 C4_3 1_555 1_555
C4_3 H2_3 1_555 1_555
C5_3 O2_3 1_555 1_555
C6_3 C1_3 1_555 1_555
H3_3 C6_3 1_555 1_555
C7_3 C1_3 1_555 1_555
H4_3 C7_3 1_555 1_555
C8_3 C10_3 1_555 1_555
C9_3 C2_3 1_555 1_555
C10_3 N1_3 1_555 1_555
H5_3 C10_3 1_555 1_555
H6_3 C10_3 1_555 1_555
C11_3 C8_3 1_555 1_555
H7_3 C11_3 1_555 1_555
C12_3 C8_3 1_555 1_555
H8_3 C12_3 1_555 1_555
Mn7 O3_2 1_555 1_555
C2_3 C7_3 1_555 1_555
C3_3 C5_3 1_555 1_555
C3_3 C6_3 1_555 1_555
Mn4_2 O1_3 1_555 1_555
O5_3 Mn4_2 1_555 1_555
Mn7_2 O6_3 1_555 1_555
Mn4 O8_2 1_555 1_555
O6_3 C19_3 1_555 1_555
O7_3 Mn7_2 1_555 1_555
O8_2 C23_3 1_555 1_555
O9_2 Mn4_2 1_555 1_555
O10_2 Mn7_2 1_555 1_555
O13_2 C23_3 1_555 1_555
C15_3 N3_3 1_555 1_555
C16_3 C18_3 1_555 1_555
N3_3 H11_3 1_555 1_555
N4_3 Mn4_2 1_555 1_555
C17_3 C18_3 1_555 1_555
C18_3 H12_3 1_555 1_555
C19_3 O7_3 1_555 1_555
C20_3 C15_3 1_555 1_555
H13_3 C20_3 1_555 1_555
C21_3 C15_3 1_555 1_555
H14_3 C21_3 1_555 1_555
C22_3 C24_3 1_555 1_555
C23_3 C16_3 1_555 1_555
C24_3 N3_3 1_555 1_555
H15_3 C24_3 1_555 1_555
H16_3 C24_3 1_555 1_555
O14_3 Mn7_2 1_555 1_555
C25_3 C22_3 1_555 1_555
H17_3 C25_3 1_555 1_555
C26_3 C22_3 1_555 1_555
C27_3 N4_3 1_555 1_555
C28_3 N4_3 1_555 1_555
H20_3 C28_3 1_555 1_555
C16_3 C21_3 1_555 1_555
C17_3 C19_3 1_555 1_555
C17_3 C20_3 1_555 1_555
C25_3 C28_3 1_555 1_555
C26_3 C27_3 1_555 1_555
O5_3 H21_3 1_555 1_555
O5_3 H22_3 1_555 1_555
O14_3 H23_3 1_555 1_555
O14_3 H24_3 1_555 1_555
O10_2 C9_4 1_555 1_555
O12 C9_4 1_555 1_555
C1_4 N1_4 1_555 1_555
C2_4 C4_4 1_555 1_555
N1_4 H1_4 1_555 1_555
C3_4 C4_4 1_555 1_555
C4_4 H2_4 1_555 1_555
C5_4 O2_4 1_555 1_555
C6_4 C1_4 1_555 1_555
H3_4 C6_4 1_555 1_555
C7_4 C1_4 1_555 1_555
H4_4 C7_4 1_555 1_555
C8_4 C10_4 1_555 1_555
C9_4 C2_4 1_555 1_555
C10_4 N1_4 1_555 1_555
H5_4 C10_4 1_555 1_555
H6_4 C10_4 1_555 1_555
C11_4 C8_4 1_555 1_555
H7_4 C11_4 1_555 1_555
C12_4 C8_4 1_555 1_555
H8_4 C12_4 1_555 1_555
C2_4 C7_4 1_555 1_555
C3_4 C5_4 1_555 1_555
C3_4 C6_4 1_555 1_555
Mn4 O1_4 1_555 1_555
O5_4 Mn4 1_555 1_555
Mn7 O6_4 1_555 1_555
O6_4 C19_4 1_555 1_555
O7_4 Mn7 1_555 1_555
O9_2 C23_4 1_555 1_555
O13 C23_4 1_555 1_555
C15_4 N3_4 1_555 1_555
C16_4 C18_4 1_555 1_555
N3_4 H11_4 1_555 1_555
N4_4 Mn4 1_555 1_555
N5_2 Mn7 1_555 1_555
C17_4 C18_4 1_555 1_555
C18_4 H12_4 1_555 1_555
C19_4 O7_4 1_555 1_555
C20_4 C15_4 1_555 1_555
H13_4 C20_4 1_555 1_555
C21_4 C15_4 1_555 1_555
H14_4 C21_4 1_555 1_555
C22_4 C24_4 1_555 1_555
C23_4 C16_4 1_555 1_555
C24_4 N3_4 1_555 1_555
H15_4 C24_4 1_555 1_555
H16_4 C24_4 1_555 1_555
O14_4 Mn7 1_555 1_555
C25_4 C22_4 1_555 1_555
H17_4 C25_4 1_555 1_555
C26_4 C22_4 1_555 1_555
C27_4 N4_4 1_555 1_555
C28_4 N4_4 1_555 1_555
C16_4 C21_4 1_555 1_555
C17_4 C19_4 1_555 1_555
C17_4 C20_4 1_555 1_555
C25_4 C28_4 1_555 1_555
C26_4 C27_4 1_555 1_555
O5_4 H21_4 1_555 1_555
O14_4 H23_4 1_555 1_555
N5_2 C13_4 1_555 1_555
H9_4 C13_4 1_555 1_555
C14_4 N5_2 1_555 1_555

#END
