
###############################################################################
#
# This file contains modified crystal structure data generated from the
# MOF subset of the Cambridge Structural Database (CSD) v543 
# hosted by the Cambridge Crystallographic Data Centre (CCDC).
#
# This work is licensed under the Creative Commons
# Attribution-NonCommercial-ShareAlike 4.0 International License.
# To view a copy of this license, visit
# http://creativecommons.org/licenses/by-nc-sa/4.0/
# or send a letter to
# Creative Commons, PO Box 1866, Mountain View, CA 94042, USA.
#
# CIF created using the CSD Python API on 29 September 2022
# The structure has been converted into the P1 space group
# The structure has a 3D framework
# The original CSD entry LUFNOQ is in the monoclinic crystal system
# The framework has been calculated to contain at least 10.0% void space
# The void calculation uses a probe of radius 1.32A, grid spacing 0.4
#
###############################################################################

data_LUFNOQ
_chemical_formula_moiety         '(C136 H104 Mn8 N24 O28)n'
_symmetry_cell_setting           triclinic
_symmetry_space_group_name_H-M   'P 1'
_symmetry_Int_Tables_number      1
_space_group_name_Hall           'P 1'
loop_
_symmetry_equiv_pos_site_id
_symmetry_equiv_pos_as_xyz
1 x,y,z
_cell_length_a                   18.237(6)
_cell_length_b                   15.078(3)
_cell_length_c                   16.285(5)
_cell_angle_alpha                90
_cell_angle_beta                 114.835(5)
_cell_angle_gamma                90
_cell_volume                     4063.89
loop_
_atom_site_label
_atom_site_type_symbol
_atom_site_fract_x
_atom_site_fract_y
_atom_site_fract_z
H8 H 0.0635 0.0163 0.6821
Mn4 Mn 0.27170(6) 0.60997(5) 0.04410(6)
O1 O 0.2566(3) 0.5432(3) 0.5322(3)
O2 O 0.2762(3) 0.4723(3) 0.6577(3)
O3 O 0.2036(3) 0.7682(3) 0.8898(3)
O4 O 0.2495(3) 0.6296(3) 0.9080(3)
N1 N 0.1779(4) 0.8556(3) 0.5783(3)
H1 H 0.1819 0.8564 0.5275
C1 C 0.2246(4) 0.7008(4) 0.7697(4)
C2 C 0.1997(4) 0.7799(4) 0.6311(4)
C3 C 0.2445(4) 0.6259(4) 0.7357(4)
H2 H 0.2602 0.5748 0.7708
C4 C 0.2415(4) 0.6262(4) 0.6492(4)
C5 C 0.2203(4) 0.7033(4) 0.5974(4)
H3 H 0.2200 0.7038 0.5401
C6 C 0.2008(4) 0.7778(4) 0.7178(4)
H4 H 0.1858 0.8277 0.7406
C7 C 0.2599(4) 0.5434(4) 0.6104(4)
C8 C 0.1488(4) 0.9324(4) 0.6068(4)
H5 H 0.1514 0.9830 0.5714
H6 H 0.1837 0.9445 0.6697
C9 C 0.0633(4) 0.9218(4) 0.5966(4)
C10 C 0.2265(4) 0.7005(4) 0.8629(4)
C11 C 0.0120(5) 0.8600(6) 0.5388(5)
H7 H 0.0304 0.8211 0.5072
C12 C 0.0314(5) 0.9739(7) 0.6413(6)
Mn2 Mn 0.27170(6) 0.39003(5) 0.54410(6)
Mn3 Mn 0.22830(6) 0.89003(5) 0.95590(6)
H9 H 0.9324 0.0022 0.6575
O5 O 0.7566(3) 0.0432(3) 0.5322(3)
Mn1 Mn 0.77170(6) 0.89003(5) 0.54410(6)
N2 N 0.9037(3) 0.9063(4) 0.5733(4)
C13 C 0.9524(4) 0.9643(4) 0.6268(4)
C14 C 0.9333(5) 0.8563(4) 0.5281(4)
H10 H 0.8988 0.8160 0.4865
N3 N 0.6345(4) 0.8781(4) 0.4989(4)
C15 C 0.5640(3) 0.8744(3) 0.4664(4)
C16 C 0.4800(4) 0.8747(4) 0.4217(4)
H11 H 0.4492 0.8799 0.4546
C17 C 0.4423(3) 0.8671(3) 0.3288(3)
H12 H 0.4730 0.8618 0.2956
H13 H 0.3862 0.8673 0.2993
O6 O 0.7762(3) 0.9723(3) 0.6577(3)
O7 O 0.7964(3) 0.7682(3) 0.6102(3)
O8 O 0.7495(3) 0.8704(3) 0.4080(3)
H9_2 H 0.0676 0.0022 0.8425
O5_2 O 0.2434(3) 0.0432(3) 0.9678(3)
H10_2 H 0.1012 0.8160 0.0135
N3_2 N 0.3655(4) 0.8781(4) 0.0011(4)
C15_2 C 0.4360(3) 0.8744(3) 0.0336(4)
C16_2 C 0.5200(4) 0.8747(4) 0.0783(4)
H11_2 H 0.5508 0.8799 0.0454
C17_2 C 0.5577(3) 0.8671(3) 0.1712(3)
H12_2 H 0.5270 0.8618 0.2044
H13_2 H 0.6138 0.8673 0.2007
O8_2 O 0.2505(3) 0.8704(3) 0.0920(3)
N2_2 N 0.0963(3) 0.9063(4) 0.9267(4)
C13_2 C 0.0476(4) 0.9643(4) 0.8732(4)
C14_2 C 0.0667(5) 0.8563(4) 0.9719(4)
O6_2 O 0.2238(3) 0.9723(3) 0.8423(3)
O1_2 O 0.7434(3) 0.5432(3) 0.9678(3)
O2_2 O 0.7238(3) 0.4723(3) 0.8423(3)
O4_2 O 0.7505(3) 0.6296(3) 0.5920(3)
N1_2 N 0.8221(4) 0.8556(3) 0.9217(3)
H1_2 H 0.8181 0.8564 0.9725
C1_2 C 0.7754(4) 0.7008(4) 0.7303(4)
C2_2 C 0.8003(4) 0.7799(4) 0.8689(4)
C3_2 C 0.7555(4) 0.6259(4) 0.7643(4)
H2_2 H 0.7398 0.5748 0.7292
C4_2 C 0.7585(4) 0.6262(4) 0.8508(4)
C5_2 C 0.7797(4) 0.7033(4) 0.9026(4)
H3_2 H 0.7800 0.7038 0.9599
C6_2 C 0.7992(4) 0.7778(4) 0.7822(4)
H4_2 H 0.8142 0.8277 0.7594
C7_2 C 0.7401(4) 0.5434(4) 0.8896(4)
C8_2 C 0.8512(4) 0.9324(4) 0.8932(4)
H5_2 H 0.8486 0.9830 0.9286
H6_2 H 0.8163 0.9445 0.8303
C9_2 C 0.9367(4) 0.9218(4) 0.9034(4)
C10_2 C 0.7735(4) 0.7005(4) 0.6371(4)
C11_2 C 0.9880(5) 0.8600(6) 0.9612(5)
H7_2 H 0.9696 0.8211 0.9928
C12_2 C 0.9686(5) 0.9739(7) 0.8587(6)
Mn2_2 Mn 0.72830(6) 0.39003(5) 0.95590(6)
Mn4_2 Mn 0.72830(6) 0.60997(5) 0.45590(6)
Mn4_3 Mn 0.77170(6) 0.10997(5) 0.04410(6)
O3_2 O 0.7036(3) 0.2682(3) 0.8898(3)
O4_3 O 0.7495(3) 0.1296(3) 0.9080(3)
N1_3 N 0.6779(4) 0.3556(3) 0.5783(3)
H1_3 H 0.6819 0.3564 0.5275
C1_3 C 0.7246(4) 0.2008(4) 0.7697(4)
C2_3 C 0.6997(4) 0.2799(4) 0.6311(4)
C3_3 C 0.7445(4) 0.1259(4) 0.7357(4)
H2_3 H 0.7602 0.0748 0.7708
C4_3 C 0.7415(4) 0.1262(4) 0.6492(4)
N2_3 N 0.4037(3) 0.4063(4) 0.5733(4)
C5_3 C 0.7203(4) 0.2033(4) 0.5974(4)
H3_3 H 0.7200 0.2038 0.5401
C6_3 C 0.7008(4) 0.2778(4) 0.7178(4)
H4_3 H 0.6858 0.3277 0.7406
C7_3 C 0.7599(4) 0.0434(4) 0.6104(4)
C8_3 C 0.6488(4) 0.4324(4) 0.6068(4)
H5_3 H 0.6514 0.4830 0.5714
H6_3 H 0.6837 0.4445 0.6697
C9_3 C 0.5633(4) 0.4218(4) 0.5966(4)
C10_3 C 0.7265(4) 0.2005(4) 0.8629(4)
C11_3 C 0.5120(5) 0.3600(6) 0.5388(5)
H7_3 H 0.5304 0.3211 0.5072
C12_3 C 0.5314(5) 0.4739(7) 0.6413(6)
H8_2 H 0.5635 0.5163 0.6821
C13_3 C 0.4524(4) 0.4643(4) 0.6268(4)
H9_3 H 0.4324 0.5022 0.6575
C14_3 C 0.4333(5) 0.3563(4) 0.5281(4)
H10_3 H 0.3988 0.3160 0.4865
N3_3 N 0.1345(4) 0.3781(4) 0.4989(4)
C15_3 C 0.0640(3) 0.3744(3) 0.4664(4)
O7_2 O 0.2964(3) 0.2682(3) 0.6102(3)
O8_3 O 0.2495(3) 0.3704(3) 0.4080(3)
H10_4 H 0.6012 0.3160 0.0135
N3_4 N 0.8655(4) 0.3781(4) 0.0011(4)
C15_4 C 0.9360(3) 0.3744(3) 0.0336(4)
O8_4 O 0.7505(3) 0.3704(3) 0.0920(3)
O4_4 O 0.2505(3) 0.1296(3) 0.5920(3)
N1_4 N 0.3221(4) 0.3556(3) 0.9217(3)
H1_4 H 0.3181 0.3564 0.9725
C1_4 C 0.2754(4) 0.2008(4) 0.7303(4)
C2_4 C 0.3003(4) 0.2799(4) 0.8689(4)
C3_4 C 0.2555(4) 0.1259(4) 0.7643(4)
H2_4 H 0.2398 0.0748 0.7292
C4_4 C 0.2585(4) 0.1262(4) 0.8508(4)
N2_4 N 0.5963(3) 0.4063(4) 0.9267(4)
C5_4 C 0.2797(4) 0.2033(4) 0.9026(4)
H3_4 H 0.2800 0.2038 0.9599
C6_4 C 0.2992(4) 0.2778(4) 0.7822(4)
H4_4 H 0.3142 0.3277 0.7594
C7_4 C 0.2401(4) 0.0434(4) 0.8896(4)
C8_4 C 0.3512(4) 0.4324(4) 0.8932(4)
H5_4 H 0.3486 0.4830 0.9286
H6_4 H 0.3163 0.4445 0.8303
C9_4 C 0.4367(4) 0.4218(4) 0.9034(4)
C10_4 C 0.2735(4) 0.2005(4) 0.6371(4)
C11_4 C 0.4880(5) 0.3600(6) 0.9612(5)
H7_4 H 0.4696 0.3211 0.9928
C12_4 C 0.4686(5) 0.4739(7) 0.8587(6)
H8_3 H 0.4365 0.5163 0.8179
C13_4 C 0.5476(4) 0.4643(4) 0.8732(4)
H9_4 H 0.5676 0.5022 0.8425
C14_4 C 0.5667(5) 0.3563(4) 0.9719(4)
Mn4_4 Mn 0.22830(6) 0.10997(5) 0.45590(6)
N2_5 N 0.0963(3) 0.0937(4) 0.4267(4)
C13_5 C 0.0476(4) 0.0357(4) 0.3732(4)
C14_5 C 0.0667(5) 0.1437(4) 0.4719(4)
H10_5 H 0.1012 0.1840 0.5135
N3_5 N 0.3655(4) 0.1219(4) 0.5011(4)
C15_5 C 0.4360(3) 0.1256(3) 0.5336(4)
C16_3 C 0.5200(4) 0.1253(4) 0.5783(4)
H11_3 H 0.5508 0.1201 0.5454
C17_3 C 0.5577(3) 0.1329(3) 0.6712(3)
H12_3 H 0.5270 0.1382 0.7044
H13_3 H 0.6138 0.1327 0.7007
O6_3 O 0.2238(3) 0.0277(3) 0.3423(3)
O7_3 O 0.2036(3) 0.2318(3) 0.3898(3)
H9_5 H 0.0676 0.9978 0.3425
O5_3 O 0.2434(3) 0.9568(3) 0.4678(3)
O1_3 O 0.7434(3) 0.4568(3) 0.4678(3)
O2_3 O 0.7238(3) 0.5277(3) 0.3423(3)
O3_3 O 0.7964(3) 0.2318(3) 0.1102(3)
N1_5 N 0.8221(4) 0.1444(3) 0.4217(3)
H1_5 H 0.8181 0.1436 0.4725
C1_5 C 0.7754(4) 0.2992(4) 0.2303(4)
C2_5 C 0.8003(4) 0.2201(4) 0.3689(4)
C3_5 C 0.7555(4) 0.3741(4) 0.2643(4)
H2_5 H 0.7398 0.4252 0.2292
C4_5 C 0.7585(4) 0.3738(4) 0.3508(4)
C5_5 C 0.7797(4) 0.2967(4) 0.4026(4)
H3_5 H 0.7800 0.2962 0.4599
C6_5 C 0.7992(4) 0.2222(4) 0.2822(4)
H4_5 H 0.8142 0.1723 0.2594
C7_5 C 0.7401(4) 0.4566(4) 0.3896(4)
C8_5 C 0.8512(4) 0.0676(4) 0.3932(4)
H5_5 H 0.8486 0.0170 0.4286
H6_5 H 0.8163 0.0555 0.3303
C9_5 C 0.9367(4) 0.0782(4) 0.4034(4)
C10_5 C 0.7735(4) 0.2995(4) 0.1371(4)
C11_5 C 0.9880(5) 0.1400(6) 0.4612(5)
H7_5 H 0.9696 0.1789 0.4928
C12_5 C 0.9686(5) 0.0261(7) 0.3587(6)
O1_4 O 0.2566(3) 0.4568(3) 0.0322(3)
O2_4 O 0.2762(3) 0.5277(3) 0.1577(3)
N1_6 N 0.1779(4) 0.1444(3) 0.0783(3)
H1_6 H 0.1819 0.1436 0.0275
C1_6 C 0.2246(4) 0.2992(4) 0.2697(4)
C2_6 C 0.1997(4) 0.2201(4) 0.1311(4)
C3_6 C 0.2445(4) 0.3741(4) 0.2357(4)
H2_6 H 0.2602 0.4252 0.2708
C4_6 C 0.2415(4) 0.3738(4) 0.1492(4)
C5_6 C 0.2203(4) 0.2967(4) 0.0974(4)
H3_6 H 0.2200 0.2962 0.0401
C6_6 C 0.2008(4) 0.2222(4) 0.2178(4)
H4_6 H 0.1858 0.1723 0.2406
C7_6 C 0.2599(4) 0.4566(4) 0.1104(4)
C8_6 C 0.1488(4) 0.0676(4) 0.1068(4)
H5_6 H 0.1514 0.0170 0.0714
H6_6 H 0.1837 0.0555 0.1697
C9_6 C 0.0633(4) 0.0782(4) 0.0966(4)
C10_6 C 0.2265(4) 0.2995(4) 0.3629(4)
C11_6 C 0.0120(5) 0.1400(6) 0.0388(5)
H7_6 H 0.0304 0.1789 0.0072
C12_6 C 0.0314(5) 0.0261(7) 0.1413(6)
N2_6 N 0.9037(3) 0.0937(4) 0.0733(4)
C13_6 C 0.9524(4) 0.0357(4) 0.1268(4)
C14_6 C 0.9333(5) 0.1437(4) 0.0281(4)
O6_4 O 0.7762(3) 0.0277(3) 0.1577(3)
H10_6 H 0.8988 0.1840 0.9865
N3_6 N 0.6345(4) 0.1219(4) 0.9989(4)
C15_6 C 0.5640(3) 0.1256(3) 0.9664(4)
C16_4 C 0.4800(4) 0.1253(4) 0.9217(4)
H11_4 H 0.4492 0.1201 0.9546
C17_4 C 0.4423(3) 0.1329(3) 0.8288(3)
H12_4 H 0.4730 0.1382 0.7956
H13_4 H 0.3862 0.1327 0.7993
H9_6 H 0.9324 0.9978 0.1575
O5_4 O 0.7566(3) 0.9568(3) 0.0322(3)
O3_4 O 0.2964(3) 0.7318(3) 0.1102(3)
N1_7 N 0.3221(4) 0.6444(3) 0.4217(3)
H1_7 H 0.3181 0.6436 0.4725
C1_7 C 0.2754(4) 0.7992(4) 0.2303(4)
C2_7 C 0.3003(4) 0.7201(4) 0.3689(4)
C3_7 C 0.2555(4) 0.8741(4) 0.2643(4)
H2_7 H 0.2398 0.9252 0.2292
C4_7 C 0.2585(4) 0.8738(4) 0.3508(4)
N2_7 N 0.5963(3) 0.5937(4) 0.4267(4)
C5_7 C 0.2797(4) 0.7967(4) 0.4026(4)
H3_7 H 0.2800 0.7962 0.4599
C6_7 C 0.2992(4) 0.7222(4) 0.2822(4)
H4_7 H 0.3142 0.6723 0.2594
C7_7 C 0.2401(4) 0.9566(4) 0.3896(4)
C8_7 C 0.3512(4) 0.5676(4) 0.3932(4)
H5_7 H 0.3486 0.5170 0.4286
H6_7 H 0.3163 0.5555 0.3303
C9_7 C 0.4367(4) 0.5782(4) 0.4034(4)
C10_7 C 0.2735(4) 0.7995(4) 0.1371(4)
C11_7 C 0.4880(5) 0.6400(6) 0.4612(5)
H7_7 H 0.4696 0.6789 0.4928
C12_7 C 0.4686(5) 0.5261(7) 0.3587(6)
H8_4 H 0.4365 0.4837 0.3179
C13_7 C 0.5476(4) 0.5357(4) 0.3732(4)
H9_7 H 0.5676 0.4978 0.3425
C14_7 C 0.5667(5) 0.6437(4) 0.4719(4)
H10_7 H 0.6012 0.6840 0.5135
N3_7 N 0.8655(4) 0.6219(4) 0.5011(4)
C15_7 C 0.9360(3) 0.6256(3) 0.5336(4)
O7_4 O 0.7036(3) 0.7318(3) 0.3898(3)
N1_8 N 0.6779(4) 0.6444(3) 0.0783(3)
H1_8 H 0.6819 0.6436 0.0275
C1_8 C 0.7246(4) 0.7992(4) 0.2697(4)
C2_8 C 0.6997(4) 0.7201(4) 0.1311(4)
C3_8 C 0.7445(4) 0.8741(4) 0.2357(4)
H2_8 H 0.7602 0.9252 0.2708
C4_8 C 0.7415(4) 0.8738(4) 0.1492(4)
N2_8 N 0.4037(3) 0.5937(4) 0.0733(4)
C5_8 C 0.7203(4) 0.7967(4) 0.0974(4)
H3_8 H 0.7200 0.7962 0.0401
C6_8 C 0.7008(4) 0.7222(4) 0.2178(4)
H4_8 H 0.6858 0.6723 0.2406
C7_8 C 0.7599(4) 0.9566(4) 0.1104(4)
C8_8 C 0.6488(4) 0.5676(4) 0.1068(4)
H5_8 H 0.6514 0.5170 0.0714
H6_8 H 0.6837 0.5555 0.1697
C9_8 C 0.5633(4) 0.5782(4) 0.0966(4)
C10_8 C 0.7265(4) 0.7995(4) 0.3629(4)
C11_8 C 0.5120(5) 0.6400(6) 0.0388(5)
H7_8 H 0.5304 0.6789 0.0072
C12_8 C 0.5314(5) 0.5261(7) 0.1413(6)
H8_5 H 0.5635 0.4837 0.1821
C13_8 C 0.4524(4) 0.5357(4) 0.1268(4)
H9_8 H 0.4324 0.4978 0.1575
C14_8 C 0.4333(5) 0.6437(4) 0.0281(4)
H10_8 H 0.3988 0.6840 0.9865
N3_8 N 0.1345(4) 0.6219(4) 0.9989(4)
C15_8 C 0.0640(3) 0.6256(3) 0.9664(4)
H8_6 H 0.9365 0.0163 0.8179
C16_5 C 0.9800(4) 0.3747(4) 0.4217(4)
H11_5 H 0.9492 0.3799 0.4546
C17_5 C 0.9423(3) 0.3671(3) 0.3288(3)
H12_5 H 0.9730 0.3618 0.2956
H13_5 H 0.8862 0.3673 0.2993
C16_6 C 0.0200(4) 0.3747(4) 0.0783(4)
H11_6 H 0.0508 0.3799 0.0454
C17_6 C 0.0577(3) 0.3671(3) 0.1712(3)
H12_6 H 0.0270 0.3618 0.2044
H13_6 H 0.1138 0.3673 0.2007
H8_7 H 0.9365 0.9837 0.3179
H8_8 H 0.0635 0.9837 0.1821
C16_7 C 0.0200(4) 0.6253(4) 0.5783(4)
H11_7 H 0.0508 0.6201 0.5454
C17_7 C 0.0577(3) 0.6329(3) 0.6712(3)
H12_7 H 0.0270 0.6382 0.7044
H13_7 H 0.1138 0.6327 0.7007
C16_8 C 0.9800(4) 0.6253(4) 0.9217(4)
H11_8 H 0.9492 0.6201 0.9546
C17_8 C 0.9423(3) 0.6329(3) 0.8288(3)
H12_8 H 0.9730 0.6382 0.7956
H13_8 H 0.8862 0.6327 0.7993
loop_
_geom_bond_atom_site_label_1
_geom_bond_atom_site_label_2
_geom_bond_site_symmetry_1
_geom_bond_site_symmetry_2
O1 C7 1_555 1_555
O2 C7 1_555 1_555
O3 C10 1_555 1_555
O4 C10 1_555 1_555
N1 H1 1_555 1_555
C1 C3 1_555 1_555
C2 N1 1_555 1_555
C3 H2 1_555 1_555
C4 C3 1_555 1_555
C5 C2 1_555 1_555
H3 C5 1_555 1_555
C6 C1 1_555 1_555
H4 C6 1_555 1_555
C7 C4 1_555 1_555
C8 N1 1_555 1_555
H5 C8 1_555 1_555
H6 C8 1_555 1_555
C9 C8 1_555 1_555
C10 C1 1_555 1_555
C11 C9 1_555 1_555
H7 C11 1_555 1_555
C12 C9 1_555 1_555
Mn2 O1 1_555 1_555
Mn3 O3 1_555 1_555
O2 Mn2 1_555 1_555
C2 C6 1_555 1_555
C4 C5 1_555 1_555
Mn1 N2 1_555 1_555
N2 C13 1_555 1_555
C14 N2 1_555 1_555
H10 C14 1_555 1_555
N3 Mn1 1_555 1_555
C15 N3 1_555 1_555
C16 C15 1_555 1_555
H11 C16 1_555 1_555
C17 C16 1_555 1_555
H12 C17 1_555 1_555
H13 C17 1_555 1_555
O6 Mn1 1_555 1_555
O7 Mn1 1_555 1_555
O8 Mn1 1_555 1_555
C15_2 N3_2 1_555 1_555
C16_2 C15_2 1_555 1_555
H11_2 C16_2 1_555 1_555
C17_2 C16_2 1_555 1_555
H12_2 C17_2 1_555 1_555
H13_2 C17_2 1_555 1_555
Mn3 N2_2 1_555 1_555
N2_2 C13_2 1_555 1_555
C14_2 N2_2 1_555 1_555
O6_2 Mn3 1_555 1_555
O1_2 C7_2 1_555 1_555
O2_2 C7_2 1_555 1_555
O7 C10_2 1_555 1_555
O4_2 C10_2 1_555 1_555
N1_2 H1_2 1_555 1_555
C1_2 C3_2 1_555 1_555
C2_2 N1_2 1_555 1_555
C3_2 H2_2 1_555 1_555
C4_2 C3_2 1_555 1_555
C5_2 C2_2 1_555 1_555
H3_2 C5_2 1_555 1_555
C6_2 C1_2 1_555 1_555
H4_2 C6_2 1_555 1_555
C7_2 C4_2 1_555 1_555
C8_2 N1_2 1_555 1_555
H5_2 C8_2 1_555 1_555
H6_2 C8_2 1_555 1_555
C9_2 C8_2 1_555 1_555
C10_2 C1_2 1_555 1_555
C11_2 C9_2 1_555 1_555
H7_2 C11_2 1_555 1_555
C12_2 C9_2 1_555 1_555
Mn2_2 O1_2 1_555 1_555
Mn4_2 O4_2 1_555 1_555
O2_2 Mn2_2 1_555 1_555
C2_2 C6_2 1_555 1_555
C4_2 C5_2 1_555 1_555
Mn2 N2_3 1_555 1_555
O5 C7_3 1_555 1_555
O3_2 C10_3 1_555 1_555
O4_3 C10_3 1_555 1_555
N1_3 H1_3 1_555 1_555
C1_3 C3_3 1_555 1_555
C2_3 N1_3 1_555 1_555
C3_3 H2_3 1_555 1_555
C4_3 C3_3 1_555 1_555
N2_3 C13_3 1_555 1_555
C5_3 C2_3 1_555 1_555
H3_3 C5_3 1_555 1_555
C6_3 C1_3 1_555 1_555
H4_3 C6_3 1_555 1_555
C7_3 C4_3 1_555 1_555
C8_3 N1_3 1_555 1_555
H5_3 C8_3 1_555 1_555
H6_3 C8_3 1_555 1_555
C9_3 C8_3 1_555 1_555
C10_3 C1_3 1_555 1_555
C11_3 C9_3 1_555 1_555
H7_3 C11_3 1_555 1_555
C12_3 C9_3 1_555 1_555
H8_2 C12_3 1_555 1_555
C13_3 C12_3 1_555 1_555
H9_3 C13_3 1_555 1_555
C14_3 N2_3 1_555 1_555
H10_3 C14_3 1_555 1_555
N3_3 Mn2 1_555 1_555
C15_3 N3_3 1_555 1_555
Mn2_2 O3_2 1_555 1_555
O7_2 Mn2 1_555 1_555
O8_3 Mn2 1_555 1_555
C2_3 C6_3 1_555 1_555
C4_3 C5_3 1_555 1_555
C11_3 C14_3 1_555 1_555
C15_4 N3_4 1_555 1_555
Mn2_2 N2_4 1_555 1_555
O5_2 C7_4 1_555 1_555
O7_2 C10_4 1_555 1_555
O4_4 C10_4 1_555 1_555
N1_4 H1_4 1_555 1_555
C1_4 C3_4 1_555 1_555
C2_4 N1_4 1_555 1_555
C3_4 H2_4 1_555 1_555
C4_4 C3_4 1_555 1_555
N2_4 C13_4 1_555 1_555
C5_4 C2_4 1_555 1_555
H3_4 C5_4 1_555 1_555
C6_4 C1_4 1_555 1_555
H4_4 C6_4 1_555 1_555
C7_4 C4_4 1_555 1_555
C8_4 N1_4 1_555 1_555
H5_4 C8_4 1_555 1_555
H6_4 C8_4 1_555 1_555
C9_4 C8_4 1_555 1_555
C10_4 C1_4 1_555 1_555
C11_4 C9_4 1_555 1_555
H7_4 C11_4 1_555 1_555
C12_4 C9_4 1_555 1_555
H8_3 C12_4 1_555 1_555
C13_4 C12_4 1_555 1_555
H9_4 C13_4 1_555 1_555
C14_4 N2_4 1_555 1_555
Mn4_4 O4_4 1_555 1_555
C2_4 C6_4 1_555 1_555
C4_4 C5_4 1_555 1_555
C11_4 C14_4 1_555 1_555
Mn4_4 N2_5 1_555 1_555
N2_5 C13_5 1_555 1_555
C14_5 N2_5 1_555 1_555
H10_5 C14_5 1_555 1_555
N3_5 Mn4_4 1_555 1_555
C15_5 N3_5 1_555 1_555
C16_3 C15_5 1_555 1_555
H11_3 C16_3 1_555 1_555
C17_3 C16_3 1_555 1_555
H12_3 C17_3 1_555 1_555
H13_3 C17_3 1_555 1_555
O6_3 Mn4_4 1_555 1_555
O7_3 Mn4_4 1_555 1_555
O1_3 C7_5 1_555 1_555
O2_3 C7_5 1_555 1_555
O3_3 C10_5 1_555 1_555
O8_4 C10_5 1_555 1_555
N1_5 H1_5 1_555 1_555
C1_5 C3_5 1_555 1_555
C2_5 N1_5 1_555 1_555
C3_5 H2_5 1_555 1_555
C4_5 C3_5 1_555 1_555
C5_5 C2_5 1_555 1_555
H3_5 C5_5 1_555 1_555
C6_5 C1_5 1_555 1_555
H4_5 C6_5 1_555 1_555
C7_5 C4_5 1_555 1_555
C8_5 N1_5 1_555 1_555
H5_5 C8_5 1_555 1_555
H6_5 C8_5 1_555 1_555
C9_5 C8_5 1_555 1_555
C10_5 C1_5 1_555 1_555
C11_5 C9_5 1_555 1_555
H7_5 C11_5 1_555 1_555
C12_5 C9_5 1_555 1_555
Mn4_2 O1_3 1_555 1_555
Mn4_3 O3_3 1_555 1_555
O2_3 Mn4_2 1_555 1_555
C2_5 C6_5 1_555 1_555
C4_5 C5_5 1_555 1_555
O1_4 C7_6 1_555 1_555
O2_4 C7_6 1_555 1_555
O7_3 C10_6 1_555 1_555
O8_3 C10_6 1_555 1_555
N1_6 H1_6 1_555 1_555
C1_6 C3_6 1_555 1_555
C2_6 N1_6 1_555 1_555
C3_6 H2_6 1_555 1_555
C4_6 C3_6 1_555 1_555
C5_6 C2_6 1_555 1_555
H3_6 C5_6 1_555 1_555
C6_6 C1_6 1_555 1_555
H4_6 C6_6 1_555 1_555
C7_6 C4_6 1_555 1_555
C8_6 N1_6 1_555 1_555
H5_6 C8_6 1_555 1_555
H6_6 C8_6 1_555 1_555
C9_6 C8_6 1_555 1_555
C10_6 C1_6 1_555 1_555
C11_6 C9_6 1_555 1_555
H7_6 C11_6 1_555 1_555
C12_6 C9_6 1_555 1_555
Mn4 O1_4 1_555 1_555
O2_4 Mn4 1_555 1_555
C2_6 C6_6 1_555 1_555
C4_6 C5_6 1_555 1_555
Mn4_3 N2_6 1_555 1_555
N2_6 C13_6 1_555 1_555
C14_6 N2_6 1_555 1_555
O6_4 Mn4_3 1_555 1_555
C15_6 N3_6 1_555 1_555
C16_4 C15_6 1_555 1_555
H11_4 C16_4 1_555 1_555
C17_4 C16_4 1_555 1_555
H12_4 C17_4 1_555 1_555
H13_4 C17_4 1_555 1_555
Mn4_2 N2_7 1_555 1_555
O5_3 C7_7 1_555 1_555
O3_4 C10_7 1_555 1_555
O8_2 C10_7 1_555 1_555
N1_7 H1_7 1_555 1_555
C1_7 C3_7 1_555 1_555
C2_7 N1_7 1_555 1_555
C3_7 H2_7 1_555 1_555
C4_7 C3_7 1_555 1_555
N2_7 C13_7 1_555 1_555
C5_7 C2_7 1_555 1_555
H3_7 C5_7 1_555 1_555
C6_7 C1_7 1_555 1_555
H4_7 C6_7 1_555 1_555
C7_7 C4_7 1_555 1_555
C8_7 N1_7 1_555 1_555
H5_7 C8_7 1_555 1_555
H6_7 C8_7 1_555 1_555
C9_7 C8_7 1_555 1_555
C10_7 C1_7 1_555 1_555
C11_7 C9_7 1_555 1_555
H7_7 C11_7 1_555 1_555
C12_7 C9_7 1_555 1_555
H8_4 C12_7 1_555 1_555
C13_7 C12_7 1_555 1_555
H9_7 C13_7 1_555 1_555
C14_7 N2_7 1_555 1_555
H10_7 C14_7 1_555 1_555
N3_7 Mn4_2 1_555 1_555
C15_7 N3_7 1_555 1_555
Mn4 O3_4 1_555 1_555
O7_4 Mn4_2 1_555 1_555
C2_7 C6_7 1_555 1_555
C4_7 C5_7 1_555 1_555
C11_7 C14_7 1_555 1_555
Mn4 N2_8 1_555 1_555
O5_4 C7_8 1_555 1_555
O7_4 C10_8 1_555 1_555
O8 C10_8 1_555 1_555
N1_8 H1_8 1_555 1_555
C1_8 C3_8 1_555 1_555
C2_8 N1_8 1_555 1_555
C3_8 H2_8 1_555 1_555
C4_8 C3_8 1_555 1_555
N2_8 C13_8 1_555 1_555
C5_8 C2_8 1_555 1_555
H3_8 C5_8 1_555 1_555
C6_8 C1_8 1_555 1_555
H4_8 C6_8 1_555 1_555
C7_8 C4_8 1_555 1_555
C8_8 N1_8 1_555 1_555
H5_8 C8_8 1_555 1_555
H6_8 C8_8 1_555 1_555
C9_8 C8_8 1_555 1_555
C10_8 C1_8 1_555 1_555
C11_8 C9_8 1_555 1_555
H7_8 C11_8 1_555 1_555
C12_8 C9_8 1_555 1_555
H8_5 C12_8 1_555 1_555
C13_8 C12_8 1_555 1_555
H9_8 C13_8 1_555 1_555
C14_8 N2_8 1_555 1_555
C2_8 C6_8 1_555 1_555
C4_8 C5_8 1_555 1_555
C11_8 C14_8 1_555 1_555
C15_8 N3_8 1_555 1_555
H11_5 C16_5 1_555 1_555
C17_5 C16_5 1_555 1_555
H12_5 C17_5 1_555 1_555
H13_5 C17_5 1_555 1_555
H11_6 C16_6 1_555 1_555
C17_6 C16_6 1_555 1_555
H12_6 C17_6 1_555 1_555
H13_6 C17_6 1_555 1_555
H11_7 C16_7 1_555 1_555
C17_7 C16_7 1_555 1_555
H12_7 C17_7 1_555 1_555
H13_7 C17_7 1_555 1_555
H11_8 C16_8 1_555 1_555
C17_8 C16_8 1_555 1_555
H12_8 C17_8 1_555 1_555
H13_8 C17_8 1_555 1_555

#END
