
###############################################################################
#
# This file contains modified crystal structure data generated from the
# MOF subset of the Cambridge Structural Database (CSD) v543 
# hosted by the Cambridge Crystallographic Data Centre (CCDC).
#
# This work is licensed under the Creative Commons
# Attribution-NonCommercial-ShareAlike 4.0 International License.
# To view a copy of this license, visit
# http://creativecommons.org/licenses/by-nc-sa/4.0/
# or send a letter to
# Creative Commons, PO Box 1866, Mountain View, CA 94042, USA.
#
# CIF created using the CSD Python API on 29 September 2022
# The structure has been converted into the P1 space group
# The structure has a 3D framework
# The original CSD entry LUFNAC is in the monoclinic crystal system
# The framework has been calculated to contain at least 10.0% void space
# The void calculation uses a probe of radius 1.32A, grid spacing 0.4
#
###############################################################################

data_LUFNAC
_chemical_formula_moiety         '(C112 H96 Mn8 N16 O36)n'
_symmetry_cell_setting           triclinic
_symmetry_space_group_name_H-M   'P 1'
_symmetry_Int_Tables_number      1
_space_group_name_Hall           'P 1'
loop_
_symmetry_equiv_pos_site_id
_symmetry_equiv_pos_as_xyz
1 x,y,z
_cell_length_a                   18.278(6)
_cell_length_b                   15.032(4)
_cell_length_c                   16.444(5)
_cell_angle_alpha                90
_cell_angle_beta                 112.032(5)
_cell_angle_gamma                90
_cell_volume                     4188.14
loop_
_atom_site_label
_atom_site_type_symbol
_atom_site_fract_x
_atom_site_fract_y
_atom_site_fract_z
Mn1 Mn 0.27202(6) 0.10813(5) 0.04414(5)
O1 O 0.7814(3) 0.5257(2) 0.1607(3)
O2 O 0.7562(3) 0.4557(3) 0.0351(2)
C1 C 0.7278(4) 0.2985(3) 0.2746(3)
O3 O 0.7533(3) 0.3690(2) 0.4109(2)
O4 O 0.7031(3) 0.2322(2) 0.3929(3)
C2 C 0.7033(4) 0.2190(4) 0.1382(4)
C3 C 0.7443(4) 0.3731(4) 0.1534(4)
C4 C 0.7467(4) 0.3739(3) 0.2396(3)
H1 H 0.7610 0.4255 0.2731
N1 N 0.4022(3) 0.0909(3) 0.0705(3)
C5 C 0.7288(4) 0.2985(4) 0.3667(3)
N2 N 0.6830(4) 0.1437(3) 0.0866(3)
H2 H 0.6908 0.1427 0.0382
C6 C 0.7619(4) 0.4554(4) 0.1146(3)
C7 C 0.5636(4) 0.0766(4) 0.0983(4)
C8 C 0.7236(4) 0.2960(4) 0.1045(4)
H3 H 0.7232 0.2955 0.0478
C9 C 0.6490(4) 0.0664(4) 0.1112(4)
H4 H 0.6790 0.0532 0.1725
H5 H 0.6542 0.0159 0.0770
C10 C 0.7036(4) 0.2218(3) 0.2242(4)
H6 H 0.6877 0.1723 0.2472
O5 O 0.1466(5) 0.1182(5) 0.0201(6)
C11 C 0.5156(5) 0.1368(6) 0.0401(6)
H7 H 0.5362 0.1752 0.0098
C12 C 0.5280(6) 0.0225(7) 0.1383(6)
C13 C 0.4364(5) 0.1402(6) 0.0266(6)
C14 C 0.4481(6) 0.0307(7) 0.1219(6)
H12 H 0.15(2) 0.057(11) 0.033(16)
Mn2 Mn 0.72798(6) 0.10813(5) 0.45586(5)
Mn3 Mn 0.77202(6) 0.60813(5) 0.04414(5)
Mn4 Mn 0.77202(6) 0.39187(5) 0.54414(5)
Mn5 Mn 0.22798(6) 0.60813(5) 0.45586(5)
O6 O 0.2186(3) 0.5257(2) 0.3393(3)
O7 O 0.2814(3) 0.0257(2) 0.1607(3)
O8 O 0.7186(3) 0.0257(2) 0.3393(3)
O9 O 0.2438(3) 0.4557(3) 0.4649(2)
C15 C 0.2722(4) 0.2985(3) 0.2254(3)
O12 O 0.2467(3) 0.3690(2) 0.0891(2)
O14 O 0.7467(3) 0.1310(2) 0.5891(2)
O15 O 0.2969(3) 0.2322(2) 0.1071(3)
C16 C 0.2967(4) 0.2190(4) 0.3618(4)
C17 C 0.2557(4) 0.3731(4) 0.3466(4)
C18 C 0.2533(4) 0.3739(3) 0.2604(3)
H13 H 0.2390 0.4255 0.2269
N3 N 0.5978(3) 0.0909(3) 0.4295(3)
C19 C 0.2712(4) 0.2985(4) 0.1333(3)
N4 N 0.3170(4) 0.1437(3) 0.4134(3)
H14 H 0.3092 0.1427 0.4618
C20 C 0.2381(4) 0.4554(4) 0.3854(3)
C21 C 0.4364(4) 0.0766(4) 0.4017(4)
C22 C 0.2764(4) 0.2960(4) 0.3955(4)
H15 H 0.2768 0.2955 0.4522
C23 C 0.3510(4) 0.0664(4) 0.3888(4)
H16 H 0.3210 0.0532 0.3275
H17 H 0.3458 0.0159 0.4230
C24 C 0.2964(4) 0.2218(3) 0.2758(4)
H18 H 0.3123 0.1723 0.2528
O16 O 0.8534(5) 0.1182(5) 0.4799(6)
C25 C 0.4844(5) 0.1368(6) 0.4599(6)
H19 H 0.4638 0.1752 0.4902
C26 C 0.4720(6) 0.0225(7) 0.3617(6)
C27 C 0.5636(5) 0.1402(6) 0.4734(6)
H21 H 0.5953 0.1793 0.5158
C28 C 0.5519(6) 0.0307(7) 0.3781(6)
H23 H 0.894(2) 0.127(3) 0.532(2)
H24 H 0.85(2) 0.057(11) 0.467(16)
H9 H 0.4047 0.1793 0.9842
H11 H 0.106(2) 0.127(3) 0.968(2)
Mn6 Mn 0.22798(6) 0.39187(5) 0.95586(5)
O13 O 0.2533(3) 0.1310(2) 0.9109(2)
H8 H 0.5575 0.9793 0.1773
H10 H 0.4259 0.9908 0.1492
O10 O 0.2562(3) 0.9557(3) 0.0351(2)
O11 O 0.7438(3) 0.9557(3) 0.4649(2)
H20 H 0.4425 0.9793 0.3227
H22 H 0.5741 0.9908 0.3508
C1_2 C 0.2278(4) 0.7985(3) 0.2746(3)
O3_2 O 0.2533(3) 0.8690(2) 0.4109(2)
O4_2 O 0.2031(3) 0.7322(2) 0.3929(3)
C2_2 C 0.2033(4) 0.7190(4) 0.1382(4)
C3_2 C 0.2443(4) 0.8731(4) 0.1534(4)
C4_2 C 0.2467(4) 0.8739(3) 0.2396(3)
H1_2 H 0.2610 0.9255 0.2731
C5_2 C 0.2288(4) 0.7985(4) 0.3667(3)
N2_2 N 0.1830(4) 0.6437(3) 0.0866(3)
H2_2 H 0.1908 0.6427 0.0382
C6_2 C 0.2619(4) 0.9554(4) 0.1146(3)
C7_2 C 0.0636(4) 0.5766(4) 0.0983(4)
C8_2 C 0.2236(4) 0.7960(4) 0.1045(4)
H3_2 H 0.2232 0.7955 0.0478
C9_2 C 0.1490(4) 0.5664(4) 0.1112(4)
H4_2 H 0.1790 0.5532 0.1725
H5_2 H 0.1542 0.5159 0.0770
C10_2 C 0.2036(4) 0.7218(3) 0.2242(4)
H6_2 H 0.1877 0.6723 0.2472
C11_2 C 0.0156(5) 0.6368(6) 0.0401(6)
H7_2 H 0.0362 0.6752 0.0098
C12_2 C 0.0280(6) 0.5225(7) 0.1383(6)
H8_2 H 0.0575 0.4793 0.1773
Mn4_2 Mn 0.27202(6) 0.89187(5) 0.54414(5)
O14_2 O 0.2467(3) 0.6310(2) 0.5891(2)
N3_2 N 0.0978(3) 0.5909(3) 0.4295(3)
O16_2 O 0.3534(5) 0.6182(5) 0.4799(6)
C27_2 C 0.0636(5) 0.6402(6) 0.4734(6)
H21_2 H 0.0953 0.6793 0.5158
C28_2 C 0.0519(6) 0.5307(7) 0.3781(6)
H22_2 H 0.0741 0.4908 0.3508
H23_2 H 0.394(2) 0.627(3) 0.532(2)
H24_2 H 0.35(2) 0.557(11) 0.467(16)
N1_2 N 0.9022(3) 0.5909(3) 0.0705(3)
O5_2 O 0.6466(5) 0.6182(5) 0.0201(6)
C13_2 C 0.9364(5) 0.6402(6) 0.0266(6)
C14_2 C 0.9481(6) 0.5307(7) 0.1219(6)
H10_2 H 0.9259 0.4908 0.1492
H12_2 H 0.65(2) 0.557(11) 0.033(16)
C15_2 C 0.7722(4) 0.7985(3) 0.2254(3)
O12_2 O 0.7467(3) 0.8690(2) 0.0891(2)
O15_2 O 0.7969(3) 0.7322(2) 0.1071(3)
C16_2 C 0.7967(4) 0.7190(4) 0.3618(4)
C17_2 C 0.7557(4) 0.8731(4) 0.3466(4)
C18_2 C 0.7533(4) 0.8739(3) 0.2604(3)
H13_2 H 0.7390 0.9255 0.2269
C19_2 C 0.7712(4) 0.7985(4) 0.1333(3)
N4_2 N 0.8170(4) 0.6437(3) 0.4134(3)
H14_2 H 0.8092 0.6427 0.4618
C20_2 C 0.7381(4) 0.9554(4) 0.3854(3)
C21_2 C 0.9364(4) 0.5766(4) 0.4017(4)
C22_2 C 0.7764(4) 0.7960(4) 0.3955(4)
H15_2 H 0.7768 0.7955 0.4522
C23_2 C 0.8510(4) 0.5664(4) 0.3888(4)
H16_2 H 0.8210 0.5532 0.3275
H17_2 H 0.8458 0.5159 0.4230
C24_2 C 0.7964(4) 0.7218(3) 0.2758(4)
H18_2 H 0.8123 0.6723 0.2528
C25_2 C 0.9844(5) 0.6368(6) 0.4599(6)
H19_2 H 0.9638 0.6752 0.4902
C26_2 C 0.9720(6) 0.5225(7) 0.3617(6)
H20_2 H 0.9425 0.4793 0.3227
H9_2 H 0.9047 0.6793 0.9842
H11_2 H 0.606(2) 0.627(3) 0.968(2)
Mn6_2 Mn 0.72798(6) 0.89187(5) 0.95586(5)
O13_2 O 0.7533(3) 0.6310(2) 0.9109(2)
H8_3 H 0.4425 0.0207 0.8227
H10_3 H 0.5741 0.0092 0.8508
O10_2 O 0.7438(3) 0.0443(3) 0.9649(2)
O11_2 O 0.2562(3) 0.0443(3) 0.5351(2)
H20_3 H 0.5575 0.0207 0.6773
H22_3 H 0.4259 0.0092 0.6492
H9_3 H 0.5953 0.8207 0.0158
H11_3 H 0.894(2) 0.873(3) 0.032(2)
O1_2 O 0.2186(3) 0.4743(2) 0.8393(3)
O2_2 O 0.2438(3) 0.5443(3) 0.9649(2)
C1_3 C 0.2722(4) 0.7015(3) 0.7254(3)
O4_3 O 0.2969(3) 0.7678(2) 0.6071(3)
C2_3 C 0.2967(4) 0.7810(4) 0.8618(4)
C3_3 C 0.2557(4) 0.6269(4) 0.8466(4)
C4_3 C 0.2533(4) 0.6261(3) 0.7604(3)
H1_3 H 0.2390 0.5745 0.7269
N1_3 N 0.5978(3) 0.9091(3) 0.9295(3)
C5_3 C 0.2712(4) 0.7015(4) 0.6333(3)
N2_3 N 0.3170(4) 0.8563(3) 0.9134(3)
H2_3 H 0.3092 0.8573 0.9618
C6_3 C 0.2381(4) 0.5446(4) 0.8854(3)
C7_3 C 0.4364(4) 0.9234(4) 0.9017(4)
C8_3 C 0.2764(4) 0.7040(4) 0.8955(4)
H3_3 H 0.2768 0.7045 0.9522
C9_3 C 0.3510(4) 0.9336(4) 0.8888(4)
H4_3 H 0.3210 0.9468 0.8275
H5_3 H 0.3458 0.9841 0.9230
C10_3 C 0.2964(4) 0.7782(3) 0.7758(4)
H6_3 H 0.3123 0.8277 0.7528
O5_3 O 0.8534(5) 0.8818(5) 0.9799(6)
C11_3 C 0.4844(5) 0.8632(6) 0.9599(6)
H7_3 H 0.4638 0.8248 0.9902
C12_3 C 0.4720(6) 0.9775(7) 0.8617(6)
C13_3 C 0.5636(5) 0.8598(6) 0.9734(6)
C14_3 C 0.5519(6) 0.9693(7) 0.8781(6)
H12_3 H 0.85(2) 0.943(11) 0.967(16)
O6_2 O 0.7814(3) 0.4743(2) 0.6607(3)
O7_2 O 0.7186(3) 0.9743(2) 0.8393(3)
O8_2 O 0.2814(3) 0.9743(2) 0.6607(3)
O9_2 O 0.7562(3) 0.5443(3) 0.5351(2)
C15_3 C 0.7278(4) 0.7015(3) 0.7746(3)
O15_3 O 0.7031(3) 0.7678(2) 0.8929(3)
C16_3 C 0.7033(4) 0.7810(4) 0.6382(4)
C17_3 C 0.7443(4) 0.6269(4) 0.6534(4)
C18_3 C 0.7467(4) 0.6261(3) 0.7396(3)
H13_3 H 0.7610 0.5745 0.7731
N3_3 N 0.4022(3) 0.9091(3) 0.5705(3)
C19_3 C 0.7288(4) 0.7015(4) 0.8667(3)
N4_3 N 0.6830(4) 0.8563(3) 0.5866(3)
H14_3 H 0.6908 0.8573 0.5382
C20_3 C 0.7619(4) 0.5446(4) 0.6146(3)
C21_3 C 0.5636(4) 0.9234(4) 0.5983(4)
C22_3 C 0.7236(4) 0.7040(4) 0.6045(4)
H15_3 H 0.7232 0.7045 0.5478
C23_3 C 0.6490(4) 0.9336(4) 0.6112(4)
H16_3 H 0.6790 0.9468 0.6725
H17_3 H 0.6542 0.9841 0.5770
C24_3 C 0.7036(4) 0.7782(3) 0.7242(4)
H18_3 H 0.6877 0.8277 0.7472
O16_3 O 0.1466(5) 0.8818(5) 0.5201(6)
C25_3 C 0.5156(5) 0.8632(6) 0.5401(6)
H19_3 H 0.5362 0.8248 0.5098
C26_3 C 0.5280(6) 0.9775(7) 0.6383(6)
C27_3 C 0.4364(5) 0.8598(6) 0.5266(6)
H21_3 H 0.4047 0.8207 0.4842
C28_3 C 0.4481(6) 0.9693(7) 0.6219(6)
H23_3 H 0.106(2) 0.873(3) 0.468(2)
H24_3 H 0.15(2) 0.943(11) 0.533(16)
H9_4 H 0.0953 0.3207 0.0158
H11_4 H 0.394(2) 0.373(3) 0.032(2)
N1_4 N 0.0978(3) 0.4091(3) 0.9295(3)
O5_4 O 0.3534(5) 0.3818(5) 0.9799(6)
C13_4 C 0.0636(5) 0.3598(6) 0.9734(6)
C14_4 C 0.0519(6) 0.4693(7) 0.8781(6)
H10_4 H 0.0741 0.5092 0.8508
H12_4 H 0.35(2) 0.443(11) 0.967(16)
C15_4 C 0.2278(4) 0.2015(3) 0.7746(3)
O15_4 O 0.2031(3) 0.2678(2) 0.8929(3)
C16_4 C 0.2033(4) 0.2810(4) 0.6382(4)
C17_4 C 0.2443(4) 0.1269(4) 0.6534(4)
C18_4 C 0.2467(4) 0.1261(3) 0.7396(3)
H13_4 H 0.2610 0.0745 0.7731
C19_4 C 0.2288(4) 0.2015(4) 0.8667(3)
N4_4 N 0.1830(4) 0.3563(3) 0.5866(3)
H14_4 H 0.1908 0.3573 0.5382
C20_4 C 0.2619(4) 0.0446(4) 0.6146(3)
C21_4 C 0.0636(4) 0.4234(4) 0.5983(4)
C22_4 C 0.2236(4) 0.2040(4) 0.6045(4)
H15_4 H 0.2232 0.2045 0.5478
C23_4 C 0.1490(4) 0.4336(4) 0.6112(4)
H16_4 H 0.1790 0.4468 0.6725
H17_4 H 0.1542 0.4841 0.5770
C24_4 C 0.2036(4) 0.2782(3) 0.7242(4)
H18_4 H 0.1877 0.3277 0.7472
C25_4 C 0.0156(5) 0.3632(6) 0.5401(6)
H19_4 H 0.0362 0.3248 0.5098
C26_4 C 0.0280(6) 0.4775(7) 0.6383(6)
H20_4 H 0.0575 0.5207 0.6773
C1_4 C 0.7722(4) 0.2015(3) 0.7254(3)
O4_4 O 0.7969(3) 0.2678(2) 0.6071(3)
C2_4 C 0.7967(4) 0.2810(4) 0.8618(4)
C3_4 C 0.7557(4) 0.1269(4) 0.8466(4)
C4_4 C 0.7533(4) 0.1261(3) 0.7604(3)
H1_4 H 0.7390 0.0745 0.7269
C5_4 C 0.7712(4) 0.2015(4) 0.6333(3)
N2_4 N 0.8170(4) 0.3563(3) 0.9134(3)
H2_4 H 0.8092 0.3573 0.9618
C6_4 C 0.7381(4) 0.0446(4) 0.8854(3)
C7_4 C 0.9364(4) 0.4234(4) 0.9017(4)
C8_4 C 0.7764(4) 0.2040(4) 0.8955(4)
H3_4 H 0.7768 0.2045 0.9522
C9_4 C 0.8510(4) 0.4336(4) 0.8888(4)
H4_4 H 0.8210 0.4468 0.8275
H5_4 H 0.8458 0.4841 0.9230
C10_4 C 0.7964(4) 0.2782(3) 0.7758(4)
H6_4 H 0.8123 0.3277 0.7528
C11_4 C 0.9844(5) 0.3632(6) 0.9599(6)
H7_4 H 0.9638 0.3248 0.9902
C12_4 C 0.9720(6) 0.4775(7) 0.8617(6)
H8_4 H 0.9425 0.5207 0.8227
N3_4 N 0.9022(3) 0.4091(3) 0.5705(3)
O16_4 O 0.6466(5) 0.3818(5) 0.5201(6)
C27_4 C 0.9364(5) 0.3598(6) 0.5266(6)
H21_4 H 0.9047 0.3207 0.4842
C28_4 C 0.9481(6) 0.4693(7) 0.6219(6)
H22_4 H 0.9259 0.5092 0.6492
H23_4 H 0.606(2) 0.373(3) 0.468(2)
H24_4 H 0.65(2) 0.443(11) 0.533(16)
loop_
_geom_bond_atom_site_label_1
_geom_bond_atom_site_label_2
_geom_bond_site_symmetry_1
_geom_bond_site_symmetry_2
Mn1 N1 1_555 1_555
O1 C6 1_555 1_555
O2 C6 1_555 1_555
C1 C4 1_555 1_555
O3 C5 1_555 1_555
O4 C5 1_555 1_555
C2 N2 1_555 1_555
C3 C4 1_555 1_555
C4 H1 1_555 1_555
N1 C13 1_555 1_555
C5 C1 1_555 1_555
N2 H2 1_555 1_555
C6 C3 1_555 1_555
C7 C9 1_555 1_555
C8 C2 1_555 1_555
H3 C8 1_555 1_555
C9 N2 1_555 1_555
H4 C9 1_555 1_555
H5 C9 1_555 1_555
C10 C1 1_555 1_555
H6 C10 1_555 1_555
O5 Mn1 1_555 1_555
C11 C7 1_555 1_555
H7 C11 1_555 1_555
C12 C7 1_555 1_555
C13 C11 1_555 1_555
C14 N1 1_555 1_555
H12 O5 1_555 1_555
Mn2 O4 1_555 1_555
Mn3 O1 1_555 1_555
Mn4 O3 1_555 1_555
Mn5 O6 1_555 1_555
O6 C20 1_555 1_555
O7 Mn1 1_555 1_555
O8 Mn2 1_555 1_555
O9 Mn5 1_555 1_555
C15 C18 1_555 1_555
O12 C19 1_555 1_555
O14 Mn2 1_555 1_555
O15 Mn1 1_555 1_555
C16 N4 1_555 1_555
C17 C18 1_555 1_555
C18 H13 1_555 1_555
N3 Mn2 1_555 1_555
C19 C15 1_555 1_555
N4 H14 1_555 1_555
C20 O9 1_555 1_555
C21 C23 1_555 1_555
C22 C16 1_555 1_555
H15 C22 1_555 1_555
C23 N4 1_555 1_555
H16 C23 1_555 1_555
H17 C23 1_555 1_555
C24 C15 1_555 1_555
H18 C24 1_555 1_555
O16 Mn2 1_555 1_555
C25 C21 1_555 1_555
H19 C25 1_555 1_555
C26 C21 1_555 1_555
C27 N3 1_555 1_555
H21 C27 1_555 1_555
C28 N3 1_555 1_555
H23 O16 1_555 1_555
H24 O16 1_555 1_555
O2 Mn3 1_555 1_555
C2 C10 1_555 1_555
C3 C8 1_555 1_555
C12 C14 1_555 1_555
O15 C19 1_555 1_555
C16 C24 1_555 1_555
C17 C20 1_555 1_555
C17 C22 1_555 1_555
C25 C27 1_555 1_555
C26 C28 1_555 1_555
O10 C6_2 1_555 1_555
C1_2 C4_2 1_555 1_555
O3_2 C5_2 1_555 1_555
O4_2 C5_2 1_555 1_555
C2_2 N2_2 1_555 1_555
C3_2 C4_2 1_555 1_555
C4_2 H1_2 1_555 1_555
C5_2 C1_2 1_555 1_555
N2_2 H2_2 1_555 1_555
C6_2 C3_2 1_555 1_555
C7_2 C9_2 1_555 1_555
C8_2 C2_2 1_555 1_555
H3_2 C8_2 1_555 1_555
C9_2 N2_2 1_555 1_555
H4_2 C9_2 1_555 1_555
H5_2 C9_2 1_555 1_555
C10_2 C1_2 1_555 1_555
H6_2 C10_2 1_555 1_555
C11_2 C7_2 1_555 1_555
H7_2 C11_2 1_555 1_555
C12_2 C7_2 1_555 1_555
H8_2 C12_2 1_555 1_555
Mn5 O4_2 1_555 1_555
Mn4_2 O3_2 1_555 1_555
O14_2 Mn5 1_555 1_555
N3_2 Mn5 1_555 1_555
O16_2 Mn5 1_555 1_555
C27_2 N3_2 1_555 1_555
H21_2 C27_2 1_555 1_555
C28_2 N3_2 1_555 1_555
H22_2 C28_2 1_555 1_555
H23_2 O16_2 1_555 1_555
H24_2 O16_2 1_555 1_555
C2_2 C10_2 1_555 1_555
C3_2 C8_2 1_555 1_555
Mn3 N1_2 1_555 1_555
N1_2 C13_2 1_555 1_555
O5_2 Mn3 1_555 1_555
C14_2 N1_2 1_555 1_555
H10_2 C14_2 1_555 1_555
H12_2 O5_2 1_555 1_555
C15_2 C18_2 1_555 1_555
O12_2 C19_2 1_555 1_555
O15_2 Mn3 1_555 1_555
C16_2 N4_2 1_555 1_555
C17_2 C18_2 1_555 1_555
C18_2 H13_2 1_555 1_555
C19_2 C15_2 1_555 1_555
N4_2 H14_2 1_555 1_555
C20_2 O11 1_555 1_555
C21_2 C23_2 1_555 1_555
C22_2 C16_2 1_555 1_555
H15_2 C22_2 1_555 1_555
C23_2 N4_2 1_555 1_555
H16_2 C23_2 1_555 1_555
H17_2 C23_2 1_555 1_555
C24_2 C15_2 1_555 1_555
H18_2 C24_2 1_555 1_555
C25_2 C21_2 1_555 1_555
H19_2 C25_2 1_555 1_555
C26_2 C21_2 1_555 1_555
H20_2 C26_2 1_555 1_555
O15_2 C19_2 1_555 1_555
C16_2 C24_2 1_555 1_555
C17_2 C20_2 1_555 1_555
C17_2 C22_2 1_555 1_555
Mn6_2 N1_3 1_555 1_555
O1_2 C6_3 1_555 1_555
O2_2 C6_3 1_555 1_555
C1_3 C4_3 1_555 1_555
O14_2 C5_3 1_555 1_555
O4_3 C5_3 1_555 1_555
C2_3 N2_3 1_555 1_555
C3_3 C4_3 1_555 1_555
C4_3 H1_3 1_555 1_555
N1_3 C13_3 1_555 1_555
C5_3 C1_3 1_555 1_555
N2_3 H2_3 1_555 1_555
C6_3 C3_3 1_555 1_555
C7_3 C9_3 1_555 1_555
C8_3 C2_3 1_555 1_555
H3_3 C8_3 1_555 1_555
C9_3 N2_3 1_555 1_555
H4_3 C9_3 1_555 1_555
H5_3 C9_3 1_555 1_555
C10_3 C1_3 1_555 1_555
H6_3 C10_3 1_555 1_555
O5_3 Mn6_2 1_555 1_555
C11_3 C7_3 1_555 1_555
H7_3 C11_3 1_555 1_555
C12_3 C7_3 1_555 1_555
C13_3 C11_3 1_555 1_555
C14_3 N1_3 1_555 1_555
H12_3 O5_3 1_555 1_555
Mn4_2 O4_3 1_555 1_555
Mn6 O1_2 1_555 1_555
Mn4 O6_2 1_555 1_555
O6_2 C20_3 1_555 1_555
O7_2 Mn6_2 1_555 1_555
O8_2 Mn4_2 1_555 1_555
O9_2 Mn4 1_555 1_555
C15_3 C18_3 1_555 1_555
O13_2 C19_3 1_555 1_555
O15_3 Mn6_2 1_555 1_555
C16_3 N4_3 1_555 1_555
C17_3 C18_3 1_555 1_555
C18_3 H13_3 1_555 1_555
N3_3 Mn4_2 1_555 1_555
C19_3 C15_3 1_555 1_555
N4_3 H14_3 1_555 1_555
C20_3 O9_2 1_555 1_555
C21_3 C23_3 1_555 1_555
C22_3 C16_3 1_555 1_555
H15_3 C22_3 1_555 1_555
C23_3 N4_3 1_555 1_555
H16_3 C23_3 1_555 1_555
H17_3 C23_3 1_555 1_555
C24_3 C15_3 1_555 1_555
H18_3 C24_3 1_555 1_555
O16_3 Mn4_2 1_555 1_555
C25_3 C21_3 1_555 1_555
H19_3 C25_3 1_555 1_555
C26_3 C21_3 1_555 1_555
C27_3 N3_3 1_555 1_555
H21_3 C27_3 1_555 1_555
C28_3 N3_3 1_555 1_555
H23_3 O16_3 1_555 1_555
H24_3 O16_3 1_555 1_555
O2_2 Mn6 1_555 1_555
C2_3 C10_3 1_555 1_555
C3_3 C8_3 1_555 1_555
C12_3 C14_3 1_555 1_555
O15_3 C19_3 1_555 1_555
C16_3 C24_3 1_555 1_555
C17_3 C20_3 1_555 1_555
C17_3 C22_3 1_555 1_555
C25_3 C27_3 1_555 1_555
C26_3 C28_3 1_555 1_555
Mn6 N1_4 1_555 1_555
N1_4 C13_4 1_555 1_555
O5_4 Mn6 1_555 1_555
C14_4 N1_4 1_555 1_555
H10_4 C14_4 1_555 1_555
H12_4 O5_4 1_555 1_555
C15_4 C18_4 1_555 1_555
O13 C19_4 1_555 1_555
O15_4 Mn6 1_555 1_555
C16_4 N4_4 1_555 1_555
C17_4 C18_4 1_555 1_555
C18_4 H13_4 1_555 1_555
C19_4 C15_4 1_555 1_555
N4_4 H14_4 1_555 1_555
C20_4 O11_2 1_555 1_555
C21_4 C23_4 1_555 1_555
C22_4 C16_4 1_555 1_555
H15_4 C22_4 1_555 1_555
C23_4 N4_4 1_555 1_555
H16_4 C23_4 1_555 1_555
H17_4 C23_4 1_555 1_555
C24_4 C15_4 1_555 1_555
H18_4 C24_4 1_555 1_555
C25_4 C21_4 1_555 1_555
H19_4 C25_4 1_555 1_555
C26_4 C21_4 1_555 1_555
H20_4 C26_4 1_555 1_555
O15_4 C19_4 1_555 1_555
C16_4 C24_4 1_555 1_555
C17_4 C20_4 1_555 1_555
C17_4 C22_4 1_555 1_555
O10_2 C6_4 1_555 1_555
C1_4 C4_4 1_555 1_555
O14 C5_4 1_555 1_555
O4_4 C5_4 1_555 1_555
C2_4 N2_4 1_555 1_555
C3_4 C4_4 1_555 1_555
C4_4 H1_4 1_555 1_555
C5_4 C1_4 1_555 1_555
N2_4 H2_4 1_555 1_555
C6_4 C3_4 1_555 1_555
C7_4 C9_4 1_555 1_555
C8_4 C2_4 1_555 1_555
H3_4 C8_4 1_555 1_555
C9_4 N2_4 1_555 1_555
H4_4 C9_4 1_555 1_555
H5_4 C9_4 1_555 1_555
C10_4 C1_4 1_555 1_555
H6_4 C10_4 1_555 1_555
C11_4 C7_4 1_555 1_555
H7_4 C11_4 1_555 1_555
C12_4 C7_4 1_555 1_555
H8_4 C12_4 1_555 1_555
Mn4 O4_4 1_555 1_555
N3_4 Mn4 1_555 1_555
O16_4 Mn4 1_555 1_555
C27_4 N3_4 1_555 1_555
H21_4 C27_4 1_555 1_555
C28_4 N3_4 1_555 1_555
H22_4 C28_4 1_555 1_555
H23_4 O16_4 1_555 1_555
H24_4 O16_4 1_555 1_555
C2_4 C10_4 1_555 1_555
C3_4 C8_4 1_555 1_555

#END
