
###############################################################################
#
# This file contains modified crystal structure data generated from the
# MOF subset of the Cambridge Structural Database (CSD) v543 
# hosted by the Cambridge Crystallographic Data Centre (CCDC).
#
# This work is licensed under the Creative Commons
# Attribution-NonCommercial-ShareAlike 4.0 International License.
# To view a copy of this license, visit
# http://creativecommons.org/licenses/by-nc-sa/4.0/
# or send a letter to
# Creative Commons, PO Box 1866, Mountain View, CA 94042, USA.
#
# CIF created using the CSD Python API on 29 September 2022
# The structure has been converted into the P1 space group
# The structure has a 3D framework
# The original CSD entry LUFNAC05 is in the monoclinic crystal system
# The framework has been calculated to contain at least 10.0% void space
# The void calculation uses a probe of radius 1.32A, grid spacing 0.4
# H atom positions have been added when not included in the experimental data
# Generated hydrogen atom positions removed from atoms on special positions
#
###############################################################################

data_LUFNAC05
_chemical_formula_moiety         '(C112 H112 Mn8 N16 O36)n'
_symmetry_cell_setting           triclinic
_symmetry_space_group_name_H-M   'P 1'
_symmetry_Int_Tables_number      1
_space_group_name_Hall           'P 1'
loop_
_symmetry_equiv_pos_site_id
_symmetry_equiv_pos_as_xyz
1 x,y,z
_cell_length_a                   18.343(6)
_cell_length_b                   15.054(4)
_cell_length_c                   16.343(5)
_cell_angle_alpha                90
_cell_angle_beta                 111.808(4)
_cell_angle_gamma                90
_cell_volume                     4189.91
loop_
_atom_site_label
_atom_site_type_symbol
_atom_site_fract_x
_atom_site_fract_y
_atom_site_fract_z
H20 H 0.5932 0.1823 0.0156
Mn1 Mn 0.27551(7) 0.10879(6) 0.54688(6)
O2 O 0.2591(3) 0.0431(3) 0.0360(3)
O3 O 0.2535(3) 0.1330(3) 0.4119(3)
C1 C 0.2250(5) 0.2008(4) 0.2742(4)
O4 O 0.1972(3) 0.2666(3) 0.3914(3)
C2 C 0.2022(4) 0.2800(5) 0.1362(4)
N1 N 0.1828(4) 0.3550(4) 0.0853(4)
H1 H 0.1908 0.3560 0.0366
C3 C 0.2461(5) 0.1267(4) 0.1548(4)
C4 C 0.2468(4) 0.1256(4) 0.2406(4)
H2 H 0.2619 0.0746 0.2748
C5 C 0.2658(5) 0.0434(5) 0.1166(4)
C6 C 0.0644(5) 0.4229(4) 0.0963(5)
C7 C 0.2021(4) 0.2779(4) 0.2224(4)
H3 H 0.1867 0.3280 0.2452
C8 C 0.2253(4) 0.2009(4) 0.3661(4)
C9 C 0.1497(5) 0.4318(5) 0.1100(5)
H4 H 0.1559 0.4822 0.0762
H5 H 0.1792 0.4444 0.1717
C10 C 0.2232(5) 0.2023(5) 0.1033(5)
H6 H 0.2218 0.2014 0.0458
O5 O 0.1492(4) 0.1213(5) 0.5232(5)
C11 C 0.0303(6) 0.4756(7) 0.1395(6)
H7 H 0.0601 0.5174 0.1801
C12 C 0.0153(6) 0.3637(6) 0.0350(7)
H8 H 0.0349 0.3280 0.0015
Mn2 Mn 0.22449(7) 0.39121(6) 0.45312(6)
Mn5 Mn 0.22449(7) 0.60879(6) 0.95312(6)
Mn6 Mn 0.72449(7) 0.10879(6) 0.95312(6)
O6 O 0.2137(3) 0.5252(3) 0.8362(3)
O7 O 0.2863(3) 0.0252(3) 0.6638(3)
O8 O 0.2137(3) 0.4748(3) 0.3362(3)
O9 O 0.2409(3) 0.4569(3) 0.9640(3)
O11 O 0.2409(3) 0.5431(3) 0.4640(3)
O12 O 0.2465(3) 0.3670(3) 0.5881(3)
C15 C 0.2750(5) 0.2992(4) 0.7258(4)
O13 O 0.3028(3) 0.2334(3) 0.6086(3)
C16 C 0.2978(4) 0.2200(5) 0.8638(4)
N3 N 0.3172(4) 0.1450(4) 0.9147(4)
H11 H 0.3092 0.1440 0.9634
C17 C 0.2539(5) 0.3733(4) 0.8452(4)
N4 N 0.5959(4) 0.0914(4) 0.9312(4)
N5 N 0.4041(4) 0.0914(4) 0.5688(4)
N6 N 0.0959(4) 0.4086(4) 0.4312(4)
C18 C 0.2532(4) 0.3744(4) 0.7594(4)
H12 H 0.2381 0.4254 0.7252
C19 C 0.2342(5) 0.4566(5) 0.8834(4)
C20 C 0.4356(5) 0.0771(4) 0.9037(5)
C21 C 0.2979(4) 0.2221(4) 0.7776(4)
H13 H 0.3133 0.1720 0.7548
C22 C 0.2747(4) 0.2991(4) 0.6339(4)
C23 C 0.3503(5) 0.0682(5) 0.8900(5)
H14 H 0.3441 0.0178 0.9238
H15 H 0.3208 0.0556 0.8283
C24 C 0.2768(5) 0.2977(5) 0.8967(5)
H16 H 0.2782 0.2986 0.9542
O14 O 0.3508(4) 0.3787(5) 0.4768(5)
C25 C 0.4697(6) 0.0244(7) 0.8605(6)
C26 C 0.4847(6) 0.1363(6) 0.9650(7)
H18 H 0.4651 0.1720 0.9985
C27 C 0.5490(6) 0.0331(7) 0.8769(6)
C28 C 0.5618(6) 0.1413(6) 0.9752(7)
O1 O 0.2863(3) 0.9748(3) 0.1638(3)
Mn3 Mn 0.27551(7) 0.89121(6) 0.04688(6)
O10 O 0.2591(3) 0.9569(3) 0.5360(3)
H17 H 0.4399 0.9826 0.8199
H19 H 0.5707 0.9950 0.8474
N2 N 0.9041(4) 0.4086(4) 0.0688(4)
C13 C 0.9510(6) 0.4669(7) 0.1231(6)
H9 H 0.9293 0.5050 0.1526
C14 C 0.9382(6) 0.3587(6) 0.0248(7)
Mn4 Mn 0.77551(7) 0.39121(6) 0.04688(6)
C13_2 C 0.0490(6) 0.4669(7) 0.3769(6)
H9_2 H 0.0707 0.5050 0.3474
C14_2 C 0.0618(6) 0.3587(6) 0.4752(7)
H10 H 0.0932 0.3177 0.5156
O2_2 O 0.7409(3) 0.0431(3) 0.4640(3)
O3_2 O 0.7465(3) 0.1330(3) 0.0881(3)
C1_2 C 0.7750(5) 0.2008(4) 0.2258(4)
O4_2 O 0.8028(3) 0.2666(3) 0.1086(3)
C2_2 C 0.7978(4) 0.2800(5) 0.3638(4)
N1_2 N 0.8172(4) 0.3550(4) 0.4147(4)
H1_2 H 0.8092 0.3560 0.4634
C3_2 C 0.7539(5) 0.1267(4) 0.3452(4)
C4_2 C 0.7532(4) 0.1256(4) 0.2594(4)
H2_2 H 0.7381 0.0746 0.2252
C5_2 C 0.7342(5) 0.0434(5) 0.3834(4)
C6_2 C 0.9356(5) 0.4229(4) 0.4037(5)
C7_2 C 0.7979(4) 0.2779(4) 0.2776(4)
H3_2 H 0.8133 0.3280 0.2548
C8_2 C 0.7747(4) 0.2009(4) 0.1339(4)
C9_2 C 0.8503(5) 0.4318(5) 0.3900(5)
H4_2 H 0.8441 0.4822 0.4238
H5_2 H 0.8208 0.4444 0.3283
C10_2 C 0.7768(5) 0.2023(5) 0.3967(5)
H6_2 H 0.7782 0.2014 0.4542
C11_2 C 0.9697(6) 0.4756(7) 0.3605(6)
H7_2 H 0.9399 0.5174 0.3199
C12_2 C 0.9847(6) 0.3637(6) 0.4650(7)
H8_2 H 0.9651 0.3280 0.4985
O8_2 O 0.7863(3) 0.4748(3) 0.1638(3)
O11_2 O 0.7591(3) 0.5431(3) 0.0360(3)
O14_2 O 0.6492(4) 0.3787(5) 0.0232(5)
H21 H 0.880819 0.0757311 0.0201607
H23 H 0.642432 0.371983 0.0804095
O5_2 O 0.8508(4) 0.1213(5) 0.9768(5)
Mn5_2 Mn 0.77551(7) 0.60879(6) 0.54688(6)
O6_2 O 0.7863(3) 0.5252(3) 0.6638(3)
O7_2 O 0.7137(3) 0.0252(3) 0.8362(3)
O9_2 O 0.7591(3) 0.4569(3) 0.5360(3)
O12_2 O 0.7535(3) 0.3670(3) 0.9119(3)
C15_2 C 0.7250(5) 0.2992(4) 0.7742(4)
O13_2 O 0.6972(3) 0.2334(3) 0.8914(3)
C16_2 C 0.7022(4) 0.2200(5) 0.6362(4)
N3_2 N 0.6828(4) 0.1450(4) 0.5853(4)
H11_2 H 0.6908 0.1440 0.5366
C17_2 C 0.7461(5) 0.3733(4) 0.6548(4)
C18_2 C 0.7468(4) 0.3744(4) 0.7406(4)
H12_2 H 0.7619 0.4254 0.7748
C19_2 C 0.7658(5) 0.4566(5) 0.6166(4)
C20_2 C 0.5644(5) 0.0771(4) 0.5963(5)
C21_2 C 0.7021(4) 0.2221(4) 0.7224(4)
H13_2 H 0.6867 0.1720 0.7452
C22_2 C 0.7253(4) 0.2991(4) 0.8661(4)
C23_2 C 0.6497(5) 0.0682(5) 0.6100(5)
H14_2 H 0.6559 0.0178 0.5762
H15_2 H 0.6792 0.0556 0.6717
C24_2 C 0.7232(5) 0.2977(5) 0.6033(5)
H16_2 H 0.7218 0.2986 0.5458
C25_2 C 0.5303(6) 0.0244(7) 0.6395(6)
C26_2 C 0.5153(6) 0.1363(6) 0.5350(7)
H18_2 H 0.5349 0.1720 0.5015
C27_2 C 0.4510(6) 0.0331(7) 0.6231(6)
C28_2 C 0.4382(6) 0.1413(6) 0.5248(7)
H20_2 H 0.4068 0.1823 0.4844
H22 H 0.858867 0.112375 0.920552
H24 H 0.621067 0.432747 0.992658
O1_2 O 0.7137(3) 0.9748(3) 0.3362(3)
Mn3_2 Mn 0.72449(7) 0.89121(6) 0.45312(6)
O10_2 O 0.7409(3) 0.9569(3) 0.9640(3)
H17_2 H 0.5601 0.9826 0.6801
H19_2 H 0.4293 0.9950 0.6526
N4_2 N 0.0959(4) 0.5914(4) 0.9312(4)
C27_3 C 0.0490(6) 0.5331(7) 0.8769(6)
H19_3 H 0.0707 0.4950 0.8474
C28_3 C 0.0618(6) 0.6413(6) 0.9752(7)
H7_3 H 0.5601 0.0174 0.1801
H9_3 H 0.4293 0.0050 0.1526
O3_3 O 0.7535(3) 0.6330(3) 0.4119(3)
C1_3 C 0.7250(5) 0.7008(4) 0.2742(4)
O4_3 O 0.6972(3) 0.7666(3) 0.3914(3)
C2_3 C 0.7022(4) 0.7800(5) 0.1362(4)
N1_3 N 0.6828(4) 0.8550(4) 0.0853(4)
H1_3 H 0.6908 0.8560 0.0366
C3_3 C 0.7461(5) 0.6267(4) 0.1548(4)
N2_2 N 0.4041(4) 0.9086(4) 0.0688(4)
C4_3 C 0.7468(4) 0.6256(4) 0.2406(4)
H2_3 H 0.7619 0.5746 0.2748
C5_3 C 0.7658(5) 0.5434(5) 0.1166(4)
C6_3 C 0.5644(5) 0.9229(4) 0.0963(5)
C7_3 C 0.7021(4) 0.7779(4) 0.2224(4)
H3_3 H 0.6867 0.8280 0.2452
C8_3 C 0.7253(4) 0.7009(4) 0.3661(4)
C9_3 C 0.6497(5) 0.9318(5) 0.1100(5)
H4_3 H 0.6559 0.9822 0.0762
H5_3 H 0.6792 0.9444 0.1717
C10_3 C 0.7232(5) 0.7023(5) 0.1033(5)
H6_3 H 0.7218 0.7014 0.0458
O5_3 O 0.6492(4) 0.6213(5) 0.5232(5)
C11_3 C 0.5303(6) 0.9756(7) 0.1395(6)
C12_3 C 0.5153(6) 0.8637(6) 0.0350(7)
H8_3 H 0.5349 0.8280 0.0015
C13_3 C 0.4510(6) 0.9669(7) 0.1231(6)
C14_3 C 0.4382(6) 0.8587(6) 0.0248(7)
O12_3 O 0.7465(3) 0.8670(3) 0.5881(3)
C15_3 C 0.7750(5) 0.7992(4) 0.7258(4)
O13_3 O 0.8028(3) 0.7334(3) 0.6086(3)
C16_3 C 0.7978(4) 0.7200(5) 0.8638(4)
N3_3 N 0.8172(4) 0.6450(4) 0.9147(4)
H11_3 H 0.8092 0.6440 0.9634
C17_3 C 0.7539(5) 0.8733(4) 0.8452(4)
N5_2 N 0.9041(4) 0.5914(4) 0.5688(4)
N6_2 N 0.5959(4) 0.9086(4) 0.4312(4)
C18_3 C 0.7532(4) 0.8744(4) 0.7594(4)
H12_3 H 0.7381 0.9254 0.7252
C19_3 C 0.7342(5) 0.9566(5) 0.8834(4)
C20_3 C 0.9356(5) 0.5771(4) 0.9037(5)
C21_3 C 0.7979(4) 0.7221(4) 0.7776(4)
H13_3 H 0.8133 0.6720 0.7548
C22_3 C 0.7747(4) 0.7991(4) 0.6339(4)
C23_3 C 0.8503(5) 0.5682(5) 0.8900(5)
H14_3 H 0.8441 0.5178 0.9238
H15_3 H 0.8208 0.5556 0.8283
C24_3 C 0.7768(5) 0.7977(5) 0.8967(5)
H16_3 H 0.7782 0.7986 0.9542
O14_3 O 0.8508(4) 0.8787(5) 0.4768(5)
C25_3 C 0.9697(6) 0.5244(7) 0.8605(6)
H17_3 H 0.9399 0.4826 0.8199
C26_3 C 0.9847(6) 0.6363(6) 0.9650(7)
H18_3 H 0.9651 0.6720 0.9985
H7_4 H 0.4399 0.0174 0.3199
H9_4 H 0.5707 0.0050 0.3474
O3_4 O 0.2465(3) 0.6330(3) 0.0881(3)
C1_4 C 0.2750(5) 0.7008(4) 0.2258(4)
O4_4 O 0.3028(3) 0.7666(3) 0.1086(3)
C2_4 C 0.2978(4) 0.7800(5) 0.3638(4)
N1_4 N 0.3172(4) 0.8550(4) 0.4147(4)
H1_4 H 0.3092 0.8560 0.4634
C3_4 C 0.2539(5) 0.6267(4) 0.3452(4)
C4_4 C 0.2532(4) 0.6256(4) 0.2594(4)
H2_4 H 0.2381 0.5746 0.2252
C5_4 C 0.2342(5) 0.5434(5) 0.3834(4)
C6_4 C 0.4356(5) 0.9229(4) 0.4037(5)
C7_4 C 0.2979(4) 0.7779(4) 0.2776(4)
H3_4 H 0.3133 0.8280 0.2548
C8_4 C 0.2747(4) 0.7009(4) 0.1339(4)
C9_4 C 0.3503(5) 0.9318(5) 0.3900(5)
H4_4 H 0.3441 0.9822 0.4238
H5_4 H 0.3208 0.9444 0.3283
C10_4 C 0.2768(5) 0.7023(5) 0.3967(5)
H6_4 H 0.2782 0.7014 0.4542
C11_4 C 0.4697(6) 0.9756(7) 0.3605(6)
C12_4 C 0.4847(6) 0.8637(6) 0.4650(7)
H8_4 H 0.4651 0.8280 0.4985
C13_4 C 0.5490(6) 0.9669(7) 0.3769(6)
C14_4 C 0.5618(6) 0.8587(6) 0.4752(7)
H10_2 H 0.5932 0.8177 0.5156
O14_4 O 0.1492(4) 0.8787(5) 0.0232(5)
H21_2 H 0.380819 0.575731 0.0201607
H23_2 H 0.142432 0.871983 0.0804095
O5_4 O 0.3508(4) 0.6213(5) 0.9768(5)
O12_4 O 0.2535(3) 0.8670(3) 0.9119(3)
C15_4 C 0.2250(5) 0.7992(4) 0.7742(4)
O13_4 O 0.1972(3) 0.7334(3) 0.8914(3)
C16_4 C 0.2022(4) 0.7200(5) 0.6362(4)
N3_4 N 0.1828(4) 0.6450(4) 0.5853(4)
H11_4 H 0.1908 0.6440 0.5366
C17_4 C 0.2461(5) 0.8733(4) 0.6548(4)
C18_4 C 0.2468(4) 0.8744(4) 0.7406(4)
H12_4 H 0.2619 0.9254 0.7748
C19_4 C 0.2658(5) 0.9566(5) 0.6166(4)
C20_4 C 0.0644(5) 0.5771(4) 0.5963(5)
C21_4 C 0.2021(4) 0.7221(4) 0.7224(4)
H13_4 H 0.1867 0.6720 0.7452
C22_4 C 0.2253(4) 0.7991(4) 0.8661(4)
C23_4 C 0.1497(5) 0.5682(5) 0.6100(5)
H14_4 H 0.1559 0.5178 0.5762
H15_4 H 0.1792 0.5556 0.6717
C24_4 C 0.2232(5) 0.7977(5) 0.6033(5)
H16_4 H 0.2218 0.7986 0.5458
C25_4 C 0.0303(6) 0.5244(7) 0.6395(6)
H17_4 H 0.0601 0.4826 0.6801
C26_4 C 0.0153(6) 0.6363(6) 0.5350(7)
H18_4 H 0.0349 0.6720 0.5015
H22_2 H 0.358867 0.612375 0.920552
H24_2 H 0.121067 0.932747 0.992658
C27_4 C 0.9510(6) 0.5331(7) 0.6231(6)
H19_4 H 0.9293 0.4950 0.6526
C28_4 C 0.9382(6) 0.6413(6) 0.5248(7)
H20_3 H 0.9068 0.6823 0.4844
H22_3 H 0.141133 0.887625 0.0794478
H24_3 H 0.378933 0.567253 0.00734246
H21_3 H 0.119181 0.924269 0.979839
H23_3 H 0.357568 0.628017 0.919591
H22_4 H 0.641133 0.387625 0.0794478
H24_4 H 0.878933 0.0672531 0.00734246
H21_4 H 0.619181 0.424269 0.979839
H23_4 H 0.857568 0.128017 0.919591
H10_3 H 0.9068 0.3177 0.9844
H20_4 H 0.0932 0.6823 0.0156
H10_4 H 0.4068 0.8177 0.9844
loop_
_geom_bond_atom_site_label_1
_geom_bond_atom_site_label_2
_geom_bond_site_symmetry_1
_geom_bond_site_symmetry_2
Mn1 O3 1_555 1_555
O2 C5 1_555 1_555
O3 C8 1_555 1_555
C1 C4 1_555 1_555
O4 C8 1_555 1_555
C2 N1 1_555 1_555
N1 H1 1_555 1_555
C3 C4 1_555 1_555
C4 H2 1_555 1_555
C5 C3 1_555 1_555
C6 C9 1_555 1_555
C7 C1 1_555 1_555
H3 C7 1_555 1_555
C8 C1 1_555 1_555
C9 N1 1_555 1_555
H4 C9 1_555 1_555
H5 C9 1_555 1_555
C10 C2 1_555 1_555
H6 C10 1_555 1_555
O5 Mn1 1_555 1_555
C11 C6 1_555 1_555
H7 C11 1_555 1_555
C12 C6 1_555 1_555
H8 C12 1_555 1_555
Mn2 O4 1_555 1_555
Mn5 O6 1_555 1_555
Mn6 N4 1_555 1_555
O6 C19 1_555 1_555
O7 Mn1 1_555 1_555
O8 Mn2 1_555 1_555
O9 Mn5 1_555 1_555
O11 Mn2 1_555 1_555
O12 Mn2 1_555 1_555
C15 C18 1_555 1_555
O13 Mn1 1_555 1_555
C16 N3 1_555 1_555
N3 H11 1_555 1_555
C17 C18 1_555 1_555
N4 C27 1_555 1_555
N5 Mn1 1_555 1_555
N6 Mn2 1_555 1_555
C18 H12 1_555 1_555
C19 O9 1_555 1_555
C20 C23 1_555 1_555
C21 C15 1_555 1_555
H13 C21 1_555 1_555
C22 O12 1_555 1_555
C23 N3 1_555 1_555
H14 C23 1_555 1_555
H15 C23 1_555 1_555
C24 C16 1_555 1_555
H16 C24 1_555 1_555
O14 Mn2 1_555 1_555
C25 C20 1_555 1_555
C26 C20 1_555 1_555
H18 C26 1_555 1_555
C27 C25 1_555 1_555
C28 N4 1_555 1_555
C2 C7 1_555 1_555
C3 C10 1_555 1_555
C15 C22 1_555 1_555
O13 C22 1_555 1_555
C16 C21 1_555 1_555
C17 C19 1_555 1_555
C17 C24 1_555 1_555
C26 C28 1_555 1_555
Mn3 O1 1_555 1_555
N2 C13 1_555 1_555
H9 C13 1_555 1_555
C14 N2 1_555 1_555
Mn4 N2 1_555 1_555
N6 C13_2 1_555 1_555
H9_2 C13_2 1_555 1_555
C14_2 N6 1_555 1_555
H10 C14_2 1_555 1_555
O2_2 C5_2 1_555 1_555
O3_2 C8_2 1_555 1_555
C1_2 C4_2 1_555 1_555
O4_2 C8_2 1_555 1_555
C2_2 N1_2 1_555 1_555
N1_2 H1_2 1_555 1_555
C3_2 C4_2 1_555 1_555
C4_2 H2_2 1_555 1_555
C5_2 C3_2 1_555 1_555
C6_2 C9_2 1_555 1_555
C7_2 C1_2 1_555 1_555
H3_2 C7_2 1_555 1_555
C8_2 C1_2 1_555 1_555
C9_2 N1_2 1_555 1_555
H4_2 C9_2 1_555 1_555
H5_2 C9_2 1_555 1_555
C10_2 C2_2 1_555 1_555
H6_2 C10_2 1_555 1_555
C11_2 C6_2 1_555 1_555
H7_2 C11_2 1_555 1_555
C12_2 C6_2 1_555 1_555
H8_2 C12_2 1_555 1_555
Mn4 O4_2 1_555 1_555
O8_2 Mn4 1_555 1_555
O11_2 Mn4 1_555 1_555
O14_2 Mn4 1_555 1_555
C2_2 C7_2 1_555 1_555
C3_2 C10_2 1_555 1_555
O14_2 H23 1_555 1_555
O5_2 Mn6 1_555 1_555
Mn5_2 O6_2 1_555 1_555
O6_2 C19_2 1_555 1_555
O7_2 Mn6 1_555 1_555
O9_2 Mn5_2 1_555 1_555
C15_2 C18_2 1_555 1_555
O13_2 Mn6 1_555 1_555
C16_2 N3_2 1_555 1_555
N3_2 H11_2 1_555 1_555
C17_2 C18_2 1_555 1_555
N5 C27_2 1_555 1_555
C18_2 H12_2 1_555 1_555
C19_2 O9_2 1_555 1_555
C20_2 C23_2 1_555 1_555
C21_2 C15_2 1_555 1_555
H13_2 C21_2 1_555 1_555
C22_2 O12_2 1_555 1_555
C23_2 N3_2 1_555 1_555
H14_2 C23_2 1_555 1_555
H15_2 C23_2 1_555 1_555
C24_2 C16_2 1_555 1_555
H16_2 C24_2 1_555 1_555
C25_2 C20_2 1_555 1_555
C26_2 C20_2 1_555 1_555
H18_2 C26_2 1_555 1_555
C27_2 C25_2 1_555 1_555
C28_2 N5 1_555 1_555
H20_2 C28_2 1_555 1_555
C15_2 C22_2 1_555 1_555
O13_2 C22_2 1_555 1_555
C16_2 C21_2 1_555 1_555
C17_2 C19_2 1_555 1_555
C17_2 C24_2 1_555 1_555
C26_2 C28_2 1_555 1_555
O5_2 H22 1_555 1_555
Mn3_2 O1_2 1_555 1_555
Mn5 N4_2 1_555 1_555
N4_2 C27_3 1_555 1_555
H19_3 C27_3 1_555 1_555
C28_3 N4_2 1_555 1_555
Mn5_2 O3_3 1_555 1_555
O8_2 C5_3 1_555 1_555
O11_2 C5_3 1_555 1_555
O3_3 C8_3 1_555 1_555
C1_3 C4_3 1_555 1_555
O4_3 C8_3 1_555 1_555
C2_3 N1_3 1_555 1_555
N1_3 H1_3 1_555 1_555
C3_3 C4_3 1_555 1_555
N2_2 C13_3 1_555 1_555
C4_3 H2_3 1_555 1_555
C5_3 C3_3 1_555 1_555
C6_3 C9_3 1_555 1_555
C7_3 C1_3 1_555 1_555
H3_3 C7_3 1_555 1_555
C8_3 C1_3 1_555 1_555
C9_3 N1_3 1_555 1_555
H4_3 C9_3 1_555 1_555
H5_3 C9_3 1_555 1_555
C10_3 C2_3 1_555 1_555
H6_3 C10_3 1_555 1_555
O5_3 Mn5_2 1_555 1_555
C11_3 C6_3 1_555 1_555
C12_3 C6_3 1_555 1_555
H8_3 C12_3 1_555 1_555
C13_3 C11_3 1_555 1_555
C14_3 N2_2 1_555 1_555
Mn3_2 O4_3 1_555 1_555
Mn3 N2_2 1_555 1_555
O12_3 Mn3_2 1_555 1_555
C15_3 C18_3 1_555 1_555
O13_3 Mn5_2 1_555 1_555
C16_3 N3_3 1_555 1_555
N3_3 H11_3 1_555 1_555
C17_3 C18_3 1_555 1_555
N5_2 Mn5_2 1_555 1_555
N6_2 Mn3_2 1_555 1_555
C18_3 H12_3 1_555 1_555
C19_3 O10_2 1_555 1_555
C20_3 C23_3 1_555 1_555
C21_3 C15_3 1_555 1_555
H13_3 C21_3 1_555 1_555
C22_3 O12_3 1_555 1_555
C23_3 N3_3 1_555 1_555
H14_3 C23_3 1_555 1_555
H15_3 C23_3 1_555 1_555
C24_3 C16_3 1_555 1_555
H16_3 C24_3 1_555 1_555
O14_3 Mn3_2 1_555 1_555
C25_3 C20_3 1_555 1_555
H17_3 C25_3 1_555 1_555
C26_3 C20_3 1_555 1_555
H18_3 C26_3 1_555 1_555
C2_3 C7_3 1_555 1_555
C3_3 C10_3 1_555 1_555
C12_3 C14_3 1_555 1_555
C15_3 C22_3 1_555 1_555
O13_3 C22_3 1_555 1_555
C16_3 C21_3 1_555 1_555
C17_3 C19_3 1_555 1_555
C17_3 C24_3 1_555 1_555
O8 C5_4 1_555 1_555
O11 C5_4 1_555 1_555
O3_4 C8_4 1_555 1_555
C1_4 C4_4 1_555 1_555
O4_4 C8_4 1_555 1_555
C2_4 N1_4 1_555 1_555
N1_4 H1_4 1_555 1_555
C3_4 C4_4 1_555 1_555
N6_2 C13_4 1_555 1_555
C4_4 H2_4 1_555 1_555
C5_4 C3_4 1_555 1_555
C6_4 C9_4 1_555 1_555
C7_4 C1_4 1_555 1_555
H3_4 C7_4 1_555 1_555
C8_4 C1_4 1_555 1_555
C9_4 N1_4 1_555 1_555
H4_4 C9_4 1_555 1_555
H5_4 C9_4 1_555 1_555
C10_4 C2_4 1_555 1_555
H6_4 C10_4 1_555 1_555
C11_4 C6_4 1_555 1_555
C12_4 C6_4 1_555 1_555
H8_4 C12_4 1_555 1_555
C13_4 C11_4 1_555 1_555
C14_4 N6_2 1_555 1_555
H10_2 C14_4 1_555 1_555
Mn3 O4_4 1_555 1_555
O14_4 Mn3 1_555 1_555
C2_4 C7_4 1_555 1_555
C3_4 C10_4 1_555 1_555
C12_4 C14_4 1_555 1_555
O14_4 H23_2 1_555 1_555
O5_4 Mn5 1_555 1_555
C15_4 C18_4 1_555 1_555
O13_4 Mn5 1_555 1_555
C16_4 N3_4 1_555 1_555
N3_4 H11_4 1_555 1_555
C17_4 C18_4 1_555 1_555
C18_4 H12_4 1_555 1_555
C19_4 O10 1_555 1_555
C20_4 C23_4 1_555 1_555
C21_4 C15_4 1_555 1_555
H13_4 C21_4 1_555 1_555
C22_4 O12_4 1_555 1_555
C23_4 N3_4 1_555 1_555
H14_4 C23_4 1_555 1_555
H15_4 C23_4 1_555 1_555
C24_4 C16_4 1_555 1_555
H16_4 C24_4 1_555 1_555
C25_4 C20_4 1_555 1_555
H17_4 C25_4 1_555 1_555
C26_4 C20_4 1_555 1_555
H18_4 C26_4 1_555 1_555
C15_4 C22_4 1_555 1_555
O13_4 C22_4 1_555 1_555
C16_4 C21_4 1_555 1_555
C17_4 C19_4 1_555 1_555
C17_4 C24_4 1_555 1_555
O5_4 H22_2 1_555 1_555
N5_2 C27_4 1_555 1_555
H19_4 C27_4 1_555 1_555
C28_4 N5_2 1_555 1_555
H20_3 C28_4 1_555 1_555
O14_4 H22_3 1_555 1_555
O5_4 H23_3 1_555 1_555
O14_2 H22_4 1_555 1_555
O5_2 H23_4 1_555 1_555

#END
