
###############################################################################
#
# This file contains modified crystal structure data generated from the
# MOF subset of the Cambridge Structural Database (CSD) v543 
# hosted by the Cambridge Crystallographic Data Centre (CCDC).
#
# This work is licensed under the Creative Commons
# Attribution-NonCommercial-ShareAlike 4.0 International License.
# To view a copy of this license, visit
# http://creativecommons.org/licenses/by-nc-sa/4.0/
# or send a letter to
# Creative Commons, PO Box 1866, Mountain View, CA 94042, USA.
#
# CIF created using the CSD Python API on 29 September 2022
# The structure has been converted into the P1 space group
# The structure has a 3D framework
# The original CSD entry LUFNIK is in the monoclinic crystal system
# The framework has been calculated to contain at least 10.0% void space
# The void calculation uses a probe of radius 1.32A, grid spacing 0.4
#
###############################################################################

data_LUFNIK
_chemical_formula_moiety         '(C128 H104 Mn8 N24 O32)n'
_symmetry_cell_setting           triclinic
_symmetry_space_group_name_H-M   'P 1'
_symmetry_Int_Tables_number      1
_space_group_name_Hall           'P 1'
loop_
_symmetry_equiv_pos_site_id
_symmetry_equiv_pos_as_xyz
1 x,y,z
_cell_length_a                   17.777(7)
_cell_length_b                   15.303(5)
_cell_length_c                   16.267(6)
_cell_angle_alpha                90
_cell_angle_beta                 113.510(5)
_cell_angle_gamma                90
_cell_volume                     4057.96
loop_
_atom_site_label
_atom_site_type_symbol
_atom_site_fract_x
_atom_site_fract_y
_atom_site_fract_z
O2 O 0.2514(5) 0.0397(5) 0.0335(5)
O3 O 0.2003(5) 0.2685(4) 0.3918(5)
O4 O 0.2437(5) 0.1299(4) 0.4092(5)
N1 N 0.1874(6) 0.3530(6) 0.0840(6)
H1 H 0.1961 0.3540 0.0357
C1 C 0.2415(7) 0.1238(7) 0.2371(7)
H2 H 0.2545 0.0729 0.2711
C2 C 0.2223(6) 0.1997(6) 0.2720(6)
C3 C 0.2582(6) 0.0408(6) 0.1141(6)
C4 C 0.2048(6) 0.2782(6) 0.1345(7)
C5 C 0.2412(6) 0.1241(6) 0.1522(7)
C6 C 0.2029(6) 0.2767(6) 0.2212(6)
H3 H 0.1887 0.3269 0.2440
C7 C 0.2223(6) 0.1999(7) 0.1009(7)
H4 H 0.2212 0.1987 0.0432
C8 C 0.2216(6) 0.2007(6) 0.3642(6)
C9 C 0.0663(7) 0.4212(7) 0.0952(7)
C10 C 0.1552(7) 0.4294(6) 0.1091(7)
H5 H 0.1877 0.4418 0.1718
H6 H 0.1609 0.4786 0.0744
C11 C 0.0156(7) 0.3584(8) 0.0393(9)
H7 H 0.0359 0.3194 0.0092
C12 C 0.0315(7) 0.4778(8) 0.1367(8)
H8 H 0.0633 0.5211 0.1748
Mn3 Mn 0.23255(9) 0.38989(9) 0.45486(9)
Mn4 Mn 0.26745(9) 0.11011(9) 0.54514(9)
H21 H 0.4367 0.0211 0.3252
H22 H 0.5710 0.0092 0.3503
Mn1 Mn 0.26745(9) 0.88989(9) 0.04514(9)
O1 O 0.2782(5) 0.9734(4) 0.1624(5)
N3 N 0.1343(7) 0.8761(7) 0.0205(9)
Mn7 Mn 0.73255(9) 0.88989(9) 0.45486(9)
O5 O 0.2218(5) 0.4734(4) 0.3376(5)
O6 O 0.2486(5) 0.5397(5) 0.4665(5)
O7 O 0.2997(5) 0.7685(4) 0.1082(5)
O9 O 0.2563(5) 0.6299(4) 0.0908(5)
O11 O 0.2563(5) 0.3701(4) 0.5908(5)
N4 N 0.3126(6) 0.8530(6) 0.4160(6)
H14 H 0.3039 0.8540 0.4643
C17 C 0.2585(7) 0.6238(7) 0.2629(7)
H15 H 0.2455 0.5729 0.2289
C18 C 0.2777(6) 0.6997(6) 0.2280(6)
C19 C 0.2418(6) 0.5408(6) 0.3859(6)
C20 C 0.2952(6) 0.7782(6) 0.3655(7)
N5 N 0.5987(6) 0.9079(6) 0.4318(6)
N6 N 0.4013(6) 0.9079(6) 0.0682(6)
N7 N 0.0987(6) 0.4079(6) 0.4318(6)
C21 C 0.2588(6) 0.6241(6) 0.3478(7)
N8 N 0.3657(7) 0.3761(7) 0.4795(9)
C22 C 0.2971(6) 0.7767(6) 0.2788(6)
H16 H 0.3113 0.8269 0.2560
C23 C 0.2777(6) 0.6999(7) 0.3991(7)
H17 H 0.2788 0.6987 0.4568
C24 C 0.2784(6) 0.7007(6) 0.1358(6)
C25 C 0.4337(7) 0.9212(7) 0.4048(7)
C26 C 0.3448(7) 0.9294(6) 0.3909(7)
H18 H 0.3123 0.9418 0.3282
H19 H 0.3391 0.9786 0.4256
C27 C 0.4844(7) 0.8584(8) 0.4607(9)
H20 H 0.4641 0.8194 0.4908
C28 C 0.4685(7) 0.9778(8) 0.3633(8)
C29 C 0.4358(15) 0.3905(13) 0.510(2)
C30 C 0.5490(8) 0.9699(8) 0.3783(8)
C31 C 0.5660(8) 0.8540(8) 0.4716(9)
H23 H 0.5992 0.8109 0.5088
C32 C 0.5284(16) 0.394(3) 0.547(3)
H24 H 0.5454 0.4437 0.5229
H25 H 0.5495 0.3988 0.6112
H26 H 0.5490 0.3415 0.5310
C13 C 0.0642(15) 0.8905(13) 0.990(2)
Mn6 Mn 0.23255(9) 0.61011(9) 0.95486(9)
O10 O 0.2437(5) 0.8701(4) 0.9092(5)
N2 N 0.9013(6) 0.4079(6) 0.0682(6)
C14 C 0.9510(8) 0.4699(8) 0.1217(8)
H9 H 0.9290 0.5092 0.1497
C15 C 0.9340(8) 0.3540(8) 0.0284(9)
Mn5 Mn 0.76745(9) 0.38989(9) 0.04514(9)
C14_2 C 0.0490(8) 0.4699(8) 0.3783(8)
H9_2 H 0.0710 0.5092 0.3503
C15_2 C 0.0660(8) 0.3540(8) 0.4716(9)
H10 H 0.0992 0.3109 0.5088
O2_2 O 0.7486(5) 0.0397(5) 0.4665(5)
O3_2 O 0.7997(5) 0.2685(4) 0.1082(5)
O4_2 O 0.7563(5) 0.1299(4) 0.0908(5)
N1_2 N 0.8126(6) 0.3530(6) 0.4160(6)
H1_2 H 0.8039 0.3540 0.4643
C1_2 C 0.7585(7) 0.1238(7) 0.2629(7)
H2_2 H 0.7455 0.0729 0.2289
C2_2 C 0.7777(6) 0.1997(6) 0.2280(6)
C3_2 C 0.7418(6) 0.0408(6) 0.3859(6)
C4_2 C 0.7952(6) 0.2782(6) 0.3655(7)
C5_2 C 0.7588(6) 0.1241(6) 0.3478(7)
C6_2 C 0.7971(6) 0.2767(6) 0.2788(6)
H3_2 H 0.8113 0.3269 0.2560
C7_2 C 0.7777(6) 0.1999(7) 0.3991(7)
H4_2 H 0.7788 0.1987 0.4568
C8_2 C 0.7784(6) 0.2007(6) 0.1358(6)
C9_2 C 0.9337(7) 0.4212(7) 0.4048(7)
C10_2 C 0.8448(7) 0.4294(6) 0.3909(7)
H5_2 H 0.8123 0.4418 0.3282
H6_2 H 0.8391 0.4786 0.4256
C11_2 C 0.9844(7) 0.3584(8) 0.4607(9)
H7_2 H 0.9641 0.3194 0.4908
C12_2 C 0.9685(7) 0.4778(8) 0.3633(8)
H8_2 H 0.9367 0.5211 0.3252
H21_2 H 0.5633 0.0211 0.1748
H22_2 H 0.4290 0.0092 0.1497
Mn4_2 Mn 0.73255(9) 0.11011(9) 0.95486(9)
O1_2 O 0.7218(5) 0.9734(4) 0.3376(5)
N3_2 N 0.8657(7) 0.8761(7) 0.4795(9)
C13_2 C 0.9358(15) 0.8905(13) 0.510(2)
Mn6_2 Mn 0.76745(9) 0.61011(9) 0.54514(9)
O5_2 O 0.7782(5) 0.4734(4) 0.1624(5)
O6_2 O 0.7514(5) 0.5397(5) 0.0335(5)
O7_2 O 0.7003(5) 0.7685(4) 0.3918(5)
O9_2 O 0.7437(5) 0.6299(4) 0.4092(5)
O10_2 O 0.7563(5) 0.8701(4) 0.5908(5)
N4_2 N 0.6874(6) 0.8530(6) 0.0840(6)
H14_2 H 0.6961 0.8540 0.0357
C17_2 C 0.7415(7) 0.6238(7) 0.2371(7)
H15_2 H 0.7545 0.5729 0.2711
C18_2 C 0.7223(6) 0.6997(6) 0.2720(6)
C19_2 C 0.7582(6) 0.5408(6) 0.1141(6)
C20_2 C 0.7048(6) 0.7782(6) 0.1345(7)
C21_2 C 0.7412(6) 0.6241(6) 0.1522(7)
N8_2 N 0.6343(7) 0.3761(7) 0.0205(9)
C22_2 C 0.7029(6) 0.7767(6) 0.2212(6)
H16_2 H 0.6887 0.8269 0.2440
C23_2 C 0.7223(6) 0.6999(7) 0.1009(7)
H17_2 H 0.7212 0.6987 0.0432
C24_2 C 0.7216(6) 0.7007(6) 0.3642(6)
C25_2 C 0.5663(7) 0.9212(7) 0.0952(7)
C26_2 C 0.6552(7) 0.9294(6) 0.1091(7)
H18_2 H 0.6877 0.9418 0.1718
H19_2 H 0.6609 0.9786 0.0744
C27_2 C 0.5156(7) 0.8584(8) 0.0393(9)
H20_2 H 0.5359 0.8194 0.0092
C28_2 C 0.5315(7) 0.9778(8) 0.1367(8)
C30_2 C 0.4510(8) 0.9699(8) 0.1217(8)
C31_2 C 0.4340(8) 0.8540(8) 0.0284(9)
O11_2 O 0.7437(5) 0.3701(4) 0.9092(5)
C29_2 C 0.5642(15) 0.3905(13) 0.990(2)
H23_2 H 0.4008 0.8109 0.9912
C32_2 C 0.4716(16) 0.394(3) 0.953(3)
H24_2 H 0.4546 0.4437 0.9771
H25_2 H 0.4505 0.3988 0.8888
H26_2 H 0.4510 0.3415 0.9690
N2_2 N 0.0987(6) 0.5921(6) 0.9318(6)
C14_3 C 0.0490(8) 0.5301(8) 0.8783(8)
H9_3 H 0.0710 0.4908 0.8503
C15_3 C 0.0660(8) 0.6460(8) 0.9716(9)
C13_3 C 0.9358(15) 0.1095(13) 0.010(2)
O1_3 O 0.7218(5) 0.0266(4) 0.8376(5)
N3_3 N 0.8657(7) 0.1239(7) 0.9795(9)
O5_3 O 0.7782(5) 0.5266(4) 0.6624(5)
O6_3 O 0.7514(5) 0.4603(5) 0.5335(5)
O7_3 O 0.7003(5) 0.2315(4) 0.8918(5)
O8 O 0.7997(5) 0.7315(4) 0.6082(5)
N4_3 N 0.6874(6) 0.1470(6) 0.5840(6)
H14_3 H 0.6961 0.1460 0.5357
C17_3 C 0.7415(7) 0.3762(7) 0.7371(7)
H15_3 H 0.7545 0.4271 0.7711
C18_3 C 0.7223(6) 0.3003(6) 0.7720(6)
C19_3 C 0.7582(6) 0.4592(6) 0.6141(6)
C20_3 C 0.7048(6) 0.2218(6) 0.6345(7)
N5_2 N 0.4013(6) 0.0921(6) 0.5682(6)
N6_2 N 0.5987(6) 0.0921(6) 0.9318(6)
N7_2 N 0.9013(6) 0.5921(6) 0.5682(6)
C21_3 C 0.7412(6) 0.3759(6) 0.6522(7)
N8_3 N 0.6343(7) 0.6239(7) 0.5205(9)
C22_3 C 0.7029(6) 0.2233(6) 0.7212(6)
H16_3 H 0.6887 0.1731 0.7440
C23_3 C 0.7223(6) 0.3001(7) 0.6009(7)
H17_3 H 0.7212 0.3013 0.5432
C24_3 C 0.7216(6) 0.2993(6) 0.8642(6)
C25_3 C 0.5663(7) 0.0788(7) 0.5952(7)
C26_3 C 0.6552(7) 0.0706(6) 0.6091(7)
H18_3 H 0.6877 0.0582 0.6718
H19_3 H 0.6609 0.0214 0.5744
C27_3 C 0.5156(7) 0.1416(8) 0.5393(9)
H20_3 H 0.5359 0.1806 0.5092
C28_3 C 0.5315(7) 0.0222(8) 0.6367(8)
C29_3 C 0.5642(15) 0.6095(13) 0.490(2)
C30_3 C 0.4510(8) 0.0301(8) 0.6217(8)
C31_3 C 0.4340(8) 0.1460(8) 0.5284(9)
H23_3 H 0.4008 0.1891 0.4912
C32_3 C 0.4716(16) 0.606(3) 0.453(3)
H24_3 H 0.4546 0.5563 0.4771
H25_3 H 0.4505 0.6012 0.3888
H26_3 H 0.4510 0.6585 0.4690
O2_3 O 0.7486(5) 0.9603(5) 0.9665(5)
N1_3 N 0.8126(6) 0.6470(6) 0.9160(6)
H1_3 H 0.8039 0.6460 0.9643
C1_3 C 0.7585(7) 0.8762(7) 0.7629(7)
H2_3 H 0.7455 0.9271 0.7289
C2_3 C 0.7777(6) 0.8003(6) 0.7280(6)
C3_3 C 0.7418(6) 0.9592(6) 0.8859(6)
C4_3 C 0.7952(6) 0.7218(6) 0.8655(7)
C5_3 C 0.7588(6) 0.8759(6) 0.8478(7)
C6_3 C 0.7971(6) 0.7233(6) 0.7788(6)
H3_3 H 0.8113 0.6731 0.7560
C7_3 C 0.7777(6) 0.8001(7) 0.8991(7)
H4_3 H 0.7788 0.8013 0.9568
C8_3 C 0.7784(6) 0.7993(6) 0.6358(6)
C9_3 C 0.9337(7) 0.5788(7) 0.9048(7)
C10_3 C 0.8448(7) 0.5706(6) 0.8909(7)
H5_3 H 0.8123 0.5582 0.8282
H6_3 H 0.8391 0.5214 0.9256
C11_3 C 0.9844(7) 0.6416(8) 0.9607(9)
H7_3 H 0.9641 0.6806 0.9908
C12_3 C 0.9685(7) 0.5222(8) 0.8633(8)
H8_3 H 0.9367 0.4789 0.8252
H21_3 H 0.5633 0.9789 0.6748
H22_3 H 0.4290 0.9908 0.6497
C29_4 C 0.4358(15) 0.6095(13) 0.010(2)
H23_4 H 0.5992 0.1891 0.0088
C32_4 C 0.5284(16) 0.606(3) 0.047(3)
H24_4 H 0.5454 0.5563 0.0229
H25_4 H 0.5495 0.6012 0.1112
H26_4 H 0.5490 0.6585 0.0310
O1_4 O 0.2782(5) 0.0266(4) 0.6624(5)
N3_4 N 0.1343(7) 0.1239(7) 0.5205(9)
C13_4 C 0.0642(15) 0.1095(13) 0.490(2)
O5_4 O 0.2218(5) 0.5266(4) 0.8376(5)
O6_4 O 0.2486(5) 0.4603(5) 0.9665(5)
O7_4 O 0.2997(5) 0.2315(4) 0.6082(5)
O8_2 O 0.2003(5) 0.7315(4) 0.8918(5)
N4_4 N 0.3126(6) 0.1470(6) 0.9160(6)
H14_4 H 0.3039 0.1460 0.9643
C17_4 C 0.2585(7) 0.3762(7) 0.7629(7)
H15_4 H 0.2455 0.4271 0.7289
C18_4 C 0.2777(6) 0.3003(6) 0.7280(6)
C19_4 C 0.2418(6) 0.4592(6) 0.8859(6)
C20_4 C 0.2952(6) 0.2218(6) 0.8655(7)
C21_4 C 0.2588(6) 0.3759(6) 0.8478(7)
N8_4 N 0.3657(7) 0.6239(7) 0.9795(9)
C22_4 C 0.2971(6) 0.2233(6) 0.7788(6)
H16_4 H 0.3113 0.1731 0.7560
C23_4 C 0.2777(6) 0.3001(7) 0.8991(7)
H17_4 H 0.2788 0.3013 0.9568
C24_4 C 0.2784(6) 0.2993(6) 0.6358(6)
C25_4 C 0.4337(7) 0.0788(7) 0.9048(7)
C26_4 C 0.3448(7) 0.0706(6) 0.8909(7)
H18_4 H 0.3123 0.0582 0.8282
H19_4 H 0.3391 0.0214 0.9256
C27_4 C 0.4844(7) 0.1416(8) 0.9607(9)
H20_4 H 0.4641 0.1806 0.9908
C28_4 C 0.4685(7) 0.0222(8) 0.8633(8)
C30_4 C 0.5490(8) 0.0301(8) 0.8783(8)
C31_4 C 0.5660(8) 0.1460(8) 0.9716(9)
O2_4 O 0.2514(5) 0.9603(5) 0.5335(5)
N1_4 N 0.1874(6) 0.6470(6) 0.5840(6)
H1_4 H 0.1961 0.6460 0.5357
C1_4 C 0.2415(7) 0.8762(7) 0.7371(7)
H2_4 H 0.2545 0.9271 0.7711
C2_4 C 0.2223(6) 0.8003(6) 0.7720(6)
C3_4 C 0.2582(6) 0.9592(6) 0.6141(6)
C4_4 C 0.2048(6) 0.7218(6) 0.6345(7)
C5_4 C 0.2412(6) 0.8759(6) 0.6522(7)
C6_4 C 0.2029(6) 0.7233(6) 0.7212(6)
H3_4 H 0.1887 0.6731 0.7440
C7_4 C 0.2223(6) 0.8001(7) 0.6009(7)
H4_4 H 0.2212 0.8013 0.5432
C8_4 C 0.2216(6) 0.7993(6) 0.8642(6)
C9_4 C 0.0663(7) 0.5788(7) 0.5952(7)
C10_4 C 0.1552(7) 0.5706(6) 0.6091(7)
H5_4 H 0.1877 0.5582 0.6718
H6_4 H 0.1609 0.5214 0.5744
C11_4 C 0.0156(7) 0.6416(8) 0.5393(9)
H7_4 H 0.0359 0.6806 0.5092
C12_4 C 0.0315(7) 0.5222(8) 0.6367(8)
H8_4 H 0.0633 0.4789 0.6748
H21_4 H 0.4367 0.9789 0.8252
H22_4 H 0.5710 0.9908 0.8503
C14_4 C 0.9510(8) 0.5301(8) 0.6217(8)
H9_4 H 0.9290 0.4908 0.6497
C15_4 C 0.9340(8) 0.6460(8) 0.5284(9)
H10_2 H 0.9008 0.6891 0.4912
H10_3 H 0.9008 0.3109 0.9912
C16 C 0.9716(16) 0.894(3) 0.953(3)
H11 H 0.9546 0.9437 0.9771
H12 H 0.9505 0.8988 0.8888
H13 H 0.9510 0.8415 0.9690
C16_2 C 0.0284(16) 0.894(3) 0.547(3)
H11_2 H 0.0454 0.9437 0.5229
H12_2 H 0.0495 0.8988 0.6112
H13_2 H 0.0490 0.8415 0.5310
C16_3 C 0.0284(16) 0.106(3) 0.047(3)
H11_3 H 0.0454 0.0563 0.0229
H12_3 H 0.0495 0.1012 0.1112
H13_3 H 0.0490 0.1585 0.0310
H10_4 H 0.0992 0.6891 0.0088
C16_4 C 0.9716(16) 0.106(3) 0.453(3)
H11_4 H 0.9546 0.0563 0.4771
H12_4 H 0.9505 0.1012 0.3888
H13_4 H 0.9510 0.1585 0.4690
loop_
_geom_bond_atom_site_label_1
_geom_bond_atom_site_label_2
_geom_bond_site_symmetry_1
_geom_bond_site_symmetry_2
O3 C8 1_555 1_555
O4 C8 1_555 1_555
N1 H1 1_555 1_555
C1 H2 1_555 1_555
C2 C1 1_555 1_555
C3 O2 1_555 1_555
C4 N1 1_555 1_555
C5 C1 1_555 1_555
C6 C2 1_555 1_555
H3 C6 1_555 1_555
C7 C4 1_555 1_555
H4 C7 1_555 1_555
C8 C2 1_555 1_555
C9 C10 1_555 1_555
C10 N1 1_555 1_555
H5 C10 1_555 1_555
H6 C10 1_555 1_555
C11 C9 1_555 1_555
H7 C11 1_555 1_555
C12 C9 1_555 1_555
H8 C12 1_555 1_555
Mn3 O3 1_555 1_555
Mn4 O4 1_555 1_555
C3 C5 1_555 1_555
C4 C6 1_555 1_555
C5 C7 1_555 1_555
Mn1 O1 1_555 1_555
N3 Mn1 1_555 1_555
Mn3 O5 1_555 1_555
Mn7 N5 1_555 1_555
O5 C19 1_555 1_555
O6 Mn3 1_555 1_555
O7 Mn1 1_555 1_555
O9 C24 1_555 1_555
O11 Mn3 1_555 1_555
N4 H14 1_555 1_555
C17 H15 1_555 1_555
C18 C17 1_555 1_555
C19 O6 1_555 1_555
C20 N4 1_555 1_555
N5 C30 1_555 1_555
N6 Mn1 1_555 1_555
N7 Mn3 1_555 1_555
C21 C17 1_555 1_555
N8 Mn3 1_555 1_555
C22 C18 1_555 1_555
H16 C22 1_555 1_555
C23 C20 1_555 1_555
H17 C23 1_555 1_555
C24 O7 1_555 1_555
C25 C26 1_555 1_555
C26 N4 1_555 1_555
H18 C26 1_555 1_555
H19 C26 1_555 1_555
C27 C25 1_555 1_555
H20 C27 1_555 1_555
C28 C25 1_555 1_555
C29 N8 1_555 1_555
C30 C28 1_555 1_555
C31 N5 1_555 1_555
H23 C31 1_555 1_555
C32 C29 1_555 1_555
H24 C32 1_555 1_555
H25 C32 1_555 1_555
H26 C32 1_555 1_555
C18 C24 1_555 1_555
C19 C21 1_555 1_555
C20 C22 1_555 1_555
C21 C23 1_555 1_555
C27 C31 1_555 1_555
N2 C14 1_555 1_555
H9 C14 1_555 1_555
C15 N2 1_555 1_555
Mn5 N2 1_555 1_555
N7 C14_2 1_555 1_555
H9_2 C14_2 1_555 1_555
C15_2 N7 1_555 1_555
H10 C15_2 1_555 1_555
O3_2 C8_2 1_555 1_555
O4_2 C8_2 1_555 1_555
N1_2 H1_2 1_555 1_555
C1_2 H2_2 1_555 1_555
C2_2 C1_2 1_555 1_555
C3_2 O2_2 1_555 1_555
C4_2 N1_2 1_555 1_555
C5_2 C1_2 1_555 1_555
C6_2 C2_2 1_555 1_555
H3_2 C6_2 1_555 1_555
C7_2 C4_2 1_555 1_555
H4_2 C7_2 1_555 1_555
C8_2 C2_2 1_555 1_555
C9_2 C10_2 1_555 1_555
C10_2 N1_2 1_555 1_555
H5_2 C10_2 1_555 1_555
H6_2 C10_2 1_555 1_555
C11_2 C9_2 1_555 1_555
H7_2 C11_2 1_555 1_555
C12_2 C9_2 1_555 1_555
H8_2 C12_2 1_555 1_555
Mn5 O3_2 1_555 1_555
C3_2 C5_2 1_555 1_555
C4_2 C6_2 1_555 1_555
C5_2 C7_2 1_555 1_555
Mn7 O1_2 1_555 1_555
N3_2 Mn7 1_555 1_555
C13_2 N3_2 1_555 1_555
Mn5 O5_2 1_555 1_555
Mn6_2 O9_2 1_555 1_555
O5_2 C19_2 1_555 1_555
O6_2 Mn5 1_555 1_555
O7_2 Mn7 1_555 1_555
O9_2 C24_2 1_555 1_555
O10_2 Mn7 1_555 1_555
N4_2 H14_2 1_555 1_555
C17_2 H15_2 1_555 1_555
C18_2 C17_2 1_555 1_555
C19_2 O6_2 1_555 1_555
C20_2 N4_2 1_555 1_555
N6 C30_2 1_555 1_555
C21_2 C17_2 1_555 1_555
N8_2 Mn5 1_555 1_555
C22_2 C18_2 1_555 1_555
H16_2 C22_2 1_555 1_555
C23_2 C20_2 1_555 1_555
H17_2 C23_2 1_555 1_555
C24_2 O7_2 1_555 1_555
C25_2 C26_2 1_555 1_555
C26_2 N4_2 1_555 1_555
H18_2 C26_2 1_555 1_555
H19_2 C26_2 1_555 1_555
C27_2 C25_2 1_555 1_555
H20_2 C27_2 1_555 1_555
C28_2 C25_2 1_555 1_555
C30_2 C28_2 1_555 1_555
C31_2 N6 1_555 1_555
C18_2 C24_2 1_555 1_555
C19_2 C21_2 1_555 1_555
C20_2 C22_2 1_555 1_555
C21_2 C23_2 1_555 1_555
C27_2 C31_2 1_555 1_555
C32_2 C29_2 1_555 1_555
H24_2 C32_2 1_555 1_555
H25_2 C32_2 1_555 1_555
H26_2 C32_2 1_555 1_555
N2_2 C14_3 1_555 1_555
H9_3 C14_3 1_555 1_555
C15_3 N2_2 1_555 1_555
Mn6 N2_2 1_555 1_555
Mn4_2 O1_3 1_555 1_555
N3_3 Mn4_2 1_555 1_555
Mn6_2 O5_3 1_555 1_555
Mn4 N5_2 1_555 1_555
O5_3 C19_3 1_555 1_555
O6_3 Mn6_2 1_555 1_555
O7_3 Mn4_2 1_555 1_555
O8 Mn6_2 1_555 1_555
O11_2 C24_3 1_555 1_555
N4_3 H14_3 1_555 1_555
C17_3 H15_3 1_555 1_555
C18_3 C17_3 1_555 1_555
C19_3 O6_3 1_555 1_555
C20_3 N4_3 1_555 1_555
N5_2 C30_3 1_555 1_555
N6_2 Mn4_2 1_555 1_555
N7_2 Mn6_2 1_555 1_555
C21_3 C17_3 1_555 1_555
N8_3 Mn6_2 1_555 1_555
C22_3 C18_3 1_555 1_555
H16_3 C22_3 1_555 1_555
C23_3 C20_3 1_555 1_555
H17_3 C23_3 1_555 1_555
C24_3 O7_3 1_555 1_555
C25_3 C26_3 1_555 1_555
C26_3 N4_3 1_555 1_555
H18_3 C26_3 1_555 1_555
H19_3 C26_3 1_555 1_555
C27_3 C25_3 1_555 1_555
H20_3 C27_3 1_555 1_555
C28_3 C25_3 1_555 1_555
C29_3 N8_3 1_555 1_555
C30_3 C28_3 1_555 1_555
C31_3 N5_2 1_555 1_555
H23_3 C31_3 1_555 1_555
C32_3 C29_3 1_555 1_555
H24_3 C32_3 1_555 1_555
H25_3 C32_3 1_555 1_555
H26_3 C32_3 1_555 1_555
C18_3 C24_3 1_555 1_555
C19_3 C21_3 1_555 1_555
C20_3 C22_3 1_555 1_555
C21_3 C23_3 1_555 1_555
C27_3 C31_3 1_555 1_555
O8 C8_3 1_555 1_555
O10_2 C8_3 1_555 1_555
N1_3 H1_3 1_555 1_555
C1_3 H2_3 1_555 1_555
C2_3 C1_3 1_555 1_555
C3_3 O2_3 1_555 1_555
C4_3 N1_3 1_555 1_555
C5_3 C1_3 1_555 1_555
C6_3 C2_3 1_555 1_555
H3_3 C6_3 1_555 1_555
C7_3 C4_3 1_555 1_555
H4_3 C7_3 1_555 1_555
C8_3 C2_3 1_555 1_555
C9_3 C10_3 1_555 1_555
C10_3 N1_3 1_555 1_555
H5_3 C10_3 1_555 1_555
H6_3 C10_3 1_555 1_555
C11_3 C9_3 1_555 1_555
H7_3 C11_3 1_555 1_555
C12_3 C9_3 1_555 1_555
H8_3 C12_3 1_555 1_555
C3_3 C5_3 1_555 1_555
C4_3 C6_3 1_555 1_555
C5_3 C7_3 1_555 1_555
C32_4 C29_4 1_555 1_555
H24_4 C32_4 1_555 1_555
H25_4 C32_4 1_555 1_555
H26_4 C32_4 1_555 1_555
Mn4 O1_4 1_555 1_555
N3_4 Mn4 1_555 1_555
C13_4 N3_4 1_555 1_555
Mn6 O5_4 1_555 1_555
O5_4 C19_4 1_555 1_555
O6_4 Mn6 1_555 1_555
O7_4 Mn4 1_555 1_555
O8_2 Mn6 1_555 1_555
O11 C24_4 1_555 1_555
N4_4 H14_4 1_555 1_555
C17_4 H15_4 1_555 1_555
C18_4 C17_4 1_555 1_555
C19_4 O6_4 1_555 1_555
C20_4 N4_4 1_555 1_555
N6_2 C30_4 1_555 1_555
C21_4 C17_4 1_555 1_555
N8_4 Mn6 1_555 1_555
C22_4 C18_4 1_555 1_555
H16_4 C22_4 1_555 1_555
C23_4 C20_4 1_555 1_555
H17_4 C23_4 1_555 1_555
C24_4 O7_4 1_555 1_555
C25_4 C26_4 1_555 1_555
C26_4 N4_4 1_555 1_555
H18_4 C26_4 1_555 1_555
H19_4 C26_4 1_555 1_555
C27_4 C25_4 1_555 1_555
H20_4 C27_4 1_555 1_555
C28_4 C25_4 1_555 1_555
C30_4 C28_4 1_555 1_555
C31_4 N6_2 1_555 1_555
C18_4 C24_4 1_555 1_555
C19_4 C21_4 1_555 1_555
C20_4 C22_4 1_555 1_555
C21_4 C23_4 1_555 1_555
C27_4 C31_4 1_555 1_555
O8_2 C8_4 1_555 1_555
O10 C8_4 1_555 1_555
N1_4 H1_4 1_555 1_555
C1_4 H2_4 1_555 1_555
C2_4 C1_4 1_555 1_555
C3_4 O2_4 1_555 1_555
C4_4 N1_4 1_555 1_555
C5_4 C1_4 1_555 1_555
C6_4 C2_4 1_555 1_555
H3_4 C6_4 1_555 1_555
C7_4 C4_4 1_555 1_555
H4_4 C7_4 1_555 1_555
C8_4 C2_4 1_555 1_555
C9_4 C10_4 1_555 1_555
C10_4 N1_4 1_555 1_555
H5_4 C10_4 1_555 1_555
H6_4 C10_4 1_555 1_555
C11_4 C9_4 1_555 1_555
H7_4 C11_4 1_555 1_555
C12_4 C9_4 1_555 1_555
H8_4 C12_4 1_555 1_555
C3_4 C5_4 1_555 1_555
C4_4 C6_4 1_555 1_555
C5_4 C7_4 1_555 1_555
N7_2 C14_4 1_555 1_555
H9_4 C14_4 1_555 1_555
C15_4 N7_2 1_555 1_555
H10_2 C15_4 1_555 1_555
H11 C16 1_555 1_555
H12 C16 1_555 1_555
H13 C16 1_555 1_555
H11_2 C16_2 1_555 1_555
H12_2 C16_2 1_555 1_555
H13_2 C16_2 1_555 1_555
H11_3 C16_3 1_555 1_555
H12_3 C16_3 1_555 1_555
H13_3 C16_3 1_555 1_555
H11_4 C16_4 1_555 1_555
H12_4 C16_4 1_555 1_555
H13_4 C16_4 1_555 1_555

#END
