
###############################################################################
#
# This file contains modified crystal structure data generated from the
# MOF subset of the Cambridge Structural Database (CSD) v543 
# hosted by the Cambridge Crystallographic Data Centre (CCDC).
#
# This work is licensed under the Creative Commons
# Attribution-NonCommercial-ShareAlike 4.0 International License.
# To view a copy of this license, visit
# http://creativecommons.org/licenses/by-nc-sa/4.0/
# or send a letter to
# Creative Commons, PO Box 1866, Mountain View, CA 94042, USA.
#
# CIF created using the CSD Python API on 29 September 2022
# The structure has been converted into the P1 space group
# The structure has a 3D framework
# The original CSD entry LUFPAE is in the monoclinic crystal system
# The framework has been calculated to contain at least 10.0% void space
# The void calculation uses a probe of radius 1.32A, grid spacing 0.4
#
###############################################################################

data_LUFPAE
_chemical_formula_moiety         '(C144 H120 Mn8 N24 O28)n'
_symmetry_cell_setting           triclinic
_symmetry_space_group_name_H-M   'P 1'
_symmetry_Int_Tables_number      1
_space_group_name_Hall           'P 1'
loop_
_symmetry_equiv_pos_site_id
_symmetry_equiv_pos_as_xyz
1 x,y,z
_cell_length_a                   18.874(6)
_cell_length_b                   14.891(5)
_cell_length_c                   16.299(4)
_cell_angle_alpha                90
_cell_angle_beta                 114.015(2)
_cell_angle_gamma                90
_cell_volume                     4184.35
loop_
_atom_site_label
_atom_site_type_symbol
_atom_site_fract_x
_atom_site_fract_y
_atom_site_fract_z
Mn3 Mn 0.78026(6) 0.39130(6) 0.04824(6)
Mn1 Mn 0.28026(6) 0.10870(6) 0.54824(6)
O1 O 0.7866(3) 0.5247(3) 0.6630(3)
O2 O 0.7644(3) 0.4537(3) 0.5368(3)
O3 O 0.7552(3) 0.3676(3) 0.9112(3)
O4 O 0.6980(3) 0.2345(3) 0.8898(3)
C1 C 0.6969(4) 0.2229(4) 0.7172(4)
H1 H 0.6781 0.1745 0.7383
N1 N 0.6730(4) 0.1445(4) 0.5772(4)
H2 H 0.6761 0.1440 0.5260
C2 C 0.7465(4) 0.3709(4) 0.6522(4)
C3 C 0.7686(4) 0.4539(4) 0.6156(4)
C4 C 0.7497(4) 0.3727(4) 0.7392(4)
H3 H 0.7682 0.4231 0.7753
C5 C 0.6971(4) 0.2197(4) 0.6319(4)
N2 N 0.4060(4) 0.0943(3) 0.5728(4)
C6 C 0.7219(4) 0.2950(5) 0.6008(4)
H4 H 0.7218 0.2940 0.5437
C7 C 0.7249(4) 0.2984(4) 0.7706(4)
C8 C 0.7262(4) 0.2994(4) 0.8646(4)
C9 C 0.6428(4) 0.0672(4) 0.6053(5)
H5 H 0.6750 0.0552 0.6680
H6 H 0.6460 0.0155 0.5708
C10 C 0.5600(4) 0.0781(4) 0.5942(4)
C11 C 0.5110(5) 0.1407(5) 0.5390(6)
H7 H 0.5286 0.1801 0.5071
C12 C 0.5298(5) 0.0217(5) 0.6388(5)
N3 N 0.1540(4) 0.1185(4) 0.5137(4)
C13 C 0.4367(5) 0.1457(5) 0.5307(6)
H9 H 0.4050 0.1889 0.4919
C14 C 0.4529(5) 0.0319(6) 0.6263(5)
C15 C 0.0135(3) 0.1024(3) 0.4901(3)
H11 H 0.0002 0.0866 0.5371
C16 C 0.0901(4) 0.1129(4) 0.5024(4)
H14 H 0.0087 0.1077 0.3178
Mn2 Mn 0.78026(6) 0.60870(6) 0.54824(6)
Mn4 Mn 0.71974(6) 0.10870(6) 0.95176(6)
O5 O 0.2866(3) 0.0247(3) 0.6630(3)
O7 O 0.2552(3) 0.1324(3) 0.4112(3)
O8 O 0.3020(3) 0.2345(3) 0.6102(3)
H8 H 0.5606 0.9774 0.6768
H10 H 0.4332 0.9932 0.6567
O6 O 0.2644(3) 0.9537(3) 0.5368(3)
H9_2 H 0.5950 0.1889 0.0081
C15_2 C 0.9865(3) 0.1024(3) 0.0099(3)
H14_2 H 0.9913 0.1077 0.1822
O7_2 O 0.7448(3) 0.1324(3) 0.0888(3)
O1_2 O 0.2134(3) 0.5247(3) 0.8370(3)
O2_2 O 0.2356(3) 0.4537(3) 0.9632(3)
O3_2 O 0.2448(3) 0.3676(3) 0.5888(3)
C1_2 C 0.3031(4) 0.2229(4) 0.7828(4)
H1_2 H 0.3219 0.1745 0.7617
N1_2 N 0.3270(4) 0.1445(4) 0.9228(4)
H2_2 H 0.3239 0.1440 0.9740
C2_2 C 0.2535(4) 0.3709(4) 0.8478(4)
C3_2 C 0.2314(4) 0.4539(4) 0.8844(4)
C4_2 C 0.2503(4) 0.3727(4) 0.7608(4)
H3_2 H 0.2318 0.4231 0.7247
C5_2 C 0.3029(4) 0.2197(4) 0.8681(4)
N2_2 N 0.5940(4) 0.0943(3) 0.9272(4)
C6_2 C 0.2781(4) 0.2950(5) 0.8992(4)
H4_2 H 0.2782 0.2940 0.9563
C7_2 C 0.2751(4) 0.2984(4) 0.7294(4)
C8_2 C 0.2738(4) 0.2994(4) 0.6354(4)
C9_2 C 0.3572(4) 0.0672(4) 0.8947(5)
H5_2 H 0.3250 0.0552 0.8320
H6_2 H 0.3540 0.0155 0.9292
C10_2 C 0.4400(4) 0.0781(4) 0.9058(4)
C11_2 C 0.4890(5) 0.1407(5) 0.9610(6)
H7_2 H 0.4714 0.1801 0.9929
C12_2 C 0.4702(5) 0.0217(5) 0.8612(5)
N3_2 N 0.8460(4) 0.1185(4) 0.9863(4)
C13_2 C 0.5633(5) 0.1457(5) 0.9693(6)
C14_2 C 0.5471(5) 0.0319(6) 0.8737(5)
H11_2 H 0.9998 0.0866 0.9629
C16_2 C 0.9099(4) 0.1129(4) 0.9976(4)
Mn2_2 Mn 0.21974(6) 0.60870(6) 0.95176(6)
Mn3_2 Mn 0.21974(6) 0.39130(6) 0.45176(6)
O5_2 O 0.7134(3) 0.0247(3) 0.8370(3)
H8_2 H 0.4394 0.9774 0.8232
H10_2 H 0.5668 0.9932 0.8433
O6_2 O 0.7356(3) 0.9537(3) 0.9632(3)
Mn3_3 Mn 0.28026(6) 0.89130(6) 0.04824(6)
O3_3 O 0.2552(3) 0.8676(3) 0.9112(3)
O4_2 O 0.1980(3) 0.7345(3) 0.8898(3)
C1_3 C 0.1969(4) 0.7229(4) 0.7172(4)
H1_3 H 0.1781 0.6745 0.7383
N1_3 N 0.1730(4) 0.6445(4) 0.5772(4)
H2_3 H 0.1761 0.6440 0.5260
C2_3 C 0.2465(4) 0.8709(4) 0.6522(4)
C3_3 C 0.2686(4) 0.9539(4) 0.6156(4)
C4_3 C 0.2497(4) 0.8727(4) 0.7392(4)
H3_3 H 0.2682 0.9231 0.7753
C5_3 C 0.1971(4) 0.7197(4) 0.6319(4)
C6_3 C 0.2219(4) 0.7950(5) 0.6008(4)
H4_3 H 0.2218 0.7940 0.5437
C7_3 C 0.2249(4) 0.7984(4) 0.7706(4)
C8_3 C 0.2262(4) 0.7994(4) 0.8646(4)
C9_3 C 0.1428(4) 0.5672(4) 0.6053(5)
H5_3 H 0.1750 0.5552 0.6680
H6_3 H 0.1460 0.5155 0.5708
C10_3 C 0.0600(4) 0.5781(4) 0.5942(4)
C11_3 C 0.0110(5) 0.6407(5) 0.5390(6)
H7_3 H 0.0286 0.6801 0.5071
C12_3 C 0.0298(5) 0.5217(5) 0.6388(5)
H8_3 H 0.0606 0.4774 0.6768
N2_3 N 0.9060(4) 0.5943(3) 0.5728(4)
N3_3 N 0.6540(4) 0.6185(4) 0.5137(4)
C13_3 C 0.9367(5) 0.6457(5) 0.5307(6)
H9_3 H 0.9050 0.6889 0.4919
C14_3 C 0.9529(5) 0.5319(6) 0.6263(5)
H10_3 H 0.9332 0.4932 0.6567
C15_3 C 0.5135(3) 0.6024(3) 0.4901(3)
H11_3 H 0.5002 0.5866 0.5371
C16_3 C 0.5901(4) 0.6129(4) 0.5024(4)
C17 C 0.4562(4) 0.6173(4) 0.4015(4)
H12 H 0.4046 0.6059 0.3902
C18 C 0.474(4) 0.649(4) 0.3281(14)
H13 H 0.4273 0.6544 0.2746
H14_3 H 0.5087 0.6077 0.3178
H15 H 0.4989 0.7071 0.3432
O7_3 O 0.7552(3) 0.6324(3) 0.4112(3)
O8_2 O 0.8020(3) 0.7345(3) 0.6102(3)
H9_4 H 0.0950 0.6889 0.0081
C15_4 C 0.4865(3) 0.6024(3) 0.0099(3)
C17_2 C 0.5438(4) 0.6173(4) 0.0985(4)
H12_2 H 0.5954 0.6059 0.1098
C18_2 C 0.526(4) 0.649(4) 0.1719(14)
H13_2 H 0.5727 0.6544 0.2254
H14_4 H 0.4913 0.6077 0.1822
H15_2 H 0.5011 0.7071 0.1568
O7_4 O 0.2448(3) 0.6324(3) 0.0888(3)
N2_4 N 0.0940(4) 0.5943(3) 0.9272(4)
N3_4 N 0.3460(4) 0.6185(4) 0.9863(4)
C13_4 C 0.0633(5) 0.6457(5) 0.9693(6)
C14_4 C 0.0471(5) 0.5319(6) 0.8737(5)
H10_4 H 0.0668 0.4932 0.8433
H11_4 H 0.4998 0.5866 0.9629
C16_4 C 0.4099(4) 0.6129(4) 0.9976(4)
O3_4 O 0.7448(3) 0.8676(3) 0.5888(3)
C1_4 C 0.8031(4) 0.7229(4) 0.7828(4)
H1_4 H 0.8219 0.6745 0.7617
N1_4 N 0.8270(4) 0.6445(4) 0.9228(4)
H2_4 H 0.8239 0.6440 0.9740
C2_4 C 0.7535(4) 0.8709(4) 0.8478(4)
C3_4 C 0.7314(4) 0.9539(4) 0.8844(4)
C4_4 C 0.7503(4) 0.8727(4) 0.7608(4)
H3_4 H 0.7318 0.9231 0.7247
C5_4 C 0.8029(4) 0.7197(4) 0.8681(4)
C6_4 C 0.7781(4) 0.7950(5) 0.8992(4)
H4_4 H 0.7782 0.7940 0.9563
C7_4 C 0.7751(4) 0.7984(4) 0.7294(4)
C8_4 C 0.7738(4) 0.7994(4) 0.6354(4)
C9_4 C 0.8572(4) 0.5672(4) 0.8947(5)
H5_4 H 0.8250 0.5552 0.8320
H6_4 H 0.8540 0.5155 0.9292
C10_4 C 0.9400(4) 0.5781(4) 0.9058(4)
C11_4 C 0.9890(5) 0.6407(5) 0.9610(6)
H7_4 H 0.9714 0.6801 0.9929
C12_4 C 0.9702(5) 0.5217(5) 0.8612(5)
H8_4 H 0.9394 0.4774 0.8232
Mn3_4 Mn 0.71974(6) 0.89130(6) 0.45176(6)
H8_5 H 0.4394 0.0226 0.3232
H10_5 H 0.5668 0.0068 0.3433
O6_3 O 0.7356(3) 0.0463(3) 0.4632(3)
O1_3 O 0.2134(3) 0.4753(3) 0.3370(3)
O2_3 O 0.2356(3) 0.5463(3) 0.4632(3)
O4_3 O 0.3020(3) 0.7655(3) 0.1102(3)
C1_5 C 0.3031(4) 0.7771(4) 0.2828(4)
H1_5 H 0.3219 0.8255 0.2617
N1_5 N 0.3270(4) 0.8555(4) 0.4228(4)
H2_5 H 0.3239 0.8560 0.4740
C2_5 C 0.2535(4) 0.6291(4) 0.3478(4)
C3_5 C 0.2314(4) 0.5461(4) 0.3844(4)
C4_5 C 0.2503(4) 0.6273(4) 0.2608(4)
H3_5 H 0.2318 0.5769 0.2247
C5_5 C 0.3029(4) 0.7803(4) 0.3681(4)
N2_5 N 0.5940(4) 0.9057(3) 0.4272(4)
C6_5 C 0.2781(4) 0.7050(5) 0.3992(4)
H4_5 H 0.2782 0.7060 0.4563
C7_5 C 0.2751(4) 0.7016(4) 0.2294(4)
C8_5 C 0.2738(4) 0.7006(4) 0.1354(4)
C9_5 C 0.3572(4) 0.9328(4) 0.3947(5)
H5_5 H 0.3250 0.9448 0.3320
H6_5 H 0.3540 0.9845 0.4292
C10_5 C 0.4400(4) 0.9219(4) 0.4058(4)
C11_5 C 0.4890(5) 0.8593(5) 0.4610(6)
H7_5 H 0.4714 0.8199 0.4929
C12_5 C 0.4702(5) 0.9783(5) 0.3612(5)
N3_5 N 0.8460(4) 0.8815(4) 0.4863(4)
C13_5 C 0.5633(5) 0.8543(5) 0.4693(6)
H9_5 H 0.5950 0.8111 0.5081
C14_5 C 0.5471(5) 0.9681(6) 0.3737(5)
C15_5 C 0.9865(3) 0.8976(3) 0.5099(3)
H11_5 H 0.9998 0.9134 0.4629
C16_5 C 0.9099(4) 0.8871(4) 0.4976(4)
H14_5 H 0.9913 0.8923 0.6822
O5_3 O 0.7134(3) 0.9753(3) 0.3370(3)
O8_3 O 0.6980(3) 0.7655(3) 0.3898(3)
H8_6 H 0.5606 0.0226 0.1768
H10_6 H 0.4332 0.0068 0.1567
O6_4 O 0.2644(3) 0.0463(3) 0.0368(3)
O1_4 O 0.7866(3) 0.4753(3) 0.1630(3)
O2_4 O 0.7644(3) 0.5463(3) 0.0368(3)
C1_6 C 0.6969(4) 0.7771(4) 0.2172(4)
H1_6 H 0.6781 0.8255 0.2383
N1_6 N 0.6730(4) 0.8555(4) 0.0772(4)
H2_6 H 0.6761 0.8560 0.0260
C2_6 C 0.7465(4) 0.6291(4) 0.1522(4)
C3_6 C 0.7686(4) 0.5461(4) 0.1156(4)
C4_6 C 0.7497(4) 0.6273(4) 0.2392(4)
H3_6 H 0.7682 0.5769 0.2753
C5_6 C 0.6971(4) 0.7803(4) 0.1319(4)
N2_6 N 0.4060(4) 0.9057(3) 0.0728(4)
C6_6 C 0.7219(4) 0.7050(5) 0.1008(4)
H4_6 H 0.7218 0.7060 0.0437
C7_6 C 0.7249(4) 0.7016(4) 0.2706(4)
C8_6 C 0.7262(4) 0.7006(4) 0.3646(4)
C9_6 C 0.6428(4) 0.9328(4) 0.1053(5)
H5_6 H 0.6750 0.9448 0.1680
H6_6 H 0.6460 0.9845 0.0708
C10_6 C 0.5600(4) 0.9219(4) 0.0942(4)
C11_6 C 0.5110(5) 0.8593(5) 0.0390(6)
H7_6 H 0.5286 0.8199 0.0071
C12_6 C 0.5298(5) 0.9783(5) 0.1388(5)
N3_6 N 0.1540(4) 0.8815(4) 0.0137(4)
C13_6 C 0.4367(5) 0.8543(5) 0.0307(6)
C14_6 C 0.4529(5) 0.9681(6) 0.1263(5)
H11_6 H 0.0002 0.9134 0.0371
C16_6 C 0.0901(4) 0.8871(4) 0.0024(4)
O5_4 O 0.2866(3) 0.9753(3) 0.1630(3)
H9_6 H 0.4050 0.8111 0.9919
C15_6 C 0.0135(3) 0.8976(3) 0.9901(3)
H14_6 H 0.0087 0.8923 0.8178
N2_7 N 0.0940(4) 0.4057(3) 0.4272(4)
N3_7 N 0.3460(4) 0.3815(4) 0.4863(4)
C13_7 C 0.0633(5) 0.3543(5) 0.4693(6)
H9_7 H 0.0950 0.3111 0.5081
C14_7 C 0.0471(5) 0.4681(6) 0.3737(5)
H10_7 H 0.0668 0.5068 0.3433
C15_7 C 0.4865(3) 0.3976(3) 0.5099(3)
H11_7 H 0.4998 0.4134 0.4629
C16_7 C 0.4099(4) 0.3871(4) 0.4976(4)
C17_3 C 0.5438(4) 0.3827(4) 0.5985(4)
H12_3 H 0.5954 0.3941 0.6098
C18_3 C 0.526(4) 0.351(4) 0.6719(14)
H13_3 H 0.5727 0.3456 0.7254
H14_7 H 0.4913 0.3923 0.6822
H15_3 H 0.5011 0.2929 0.6568
O8_4 O 0.1980(3) 0.2655(3) 0.3898(3)
O4_4 O 0.8020(3) 0.2655(3) 0.1102(3)
C1_7 C 0.8031(4) 0.2771(4) 0.2828(4)
H1_7 H 0.8219 0.3255 0.2617
N1_7 N 0.8270(4) 0.3555(4) 0.4228(4)
H2_7 H 0.8239 0.3560 0.4740
C2_7 C 0.7535(4) 0.1291(4) 0.3478(4)
C3_7 C 0.7314(4) 0.0461(4) 0.3844(4)
C4_7 C 0.7503(4) 0.1273(4) 0.2608(4)
H3_7 H 0.7318 0.0769 0.2247
C5_7 C 0.8029(4) 0.2803(4) 0.3681(4)
C6_7 C 0.7781(4) 0.2050(5) 0.3992(4)
H4_7 H 0.7782 0.2060 0.4563
C7_7 C 0.7751(4) 0.2016(4) 0.2294(4)
C8_7 C 0.7738(4) 0.2006(4) 0.1354(4)
C9_7 C 0.8572(4) 0.4328(4) 0.3947(5)
H5_7 H 0.8250 0.4448 0.3320
H6_7 H 0.8540 0.4845 0.4292
C10_7 C 0.9400(4) 0.4219(4) 0.4058(4)
C11_7 C 0.9890(5) 0.3593(5) 0.4610(6)
H7_7 H 0.9714 0.3199 0.4929
C12_7 C 0.9702(5) 0.4783(5) 0.3612(5)
H8_7 H 0.9394 0.5226 0.3232
C1_8 C 0.1969(4) 0.2771(4) 0.2172(4)
H1_8 H 0.1781 0.3255 0.2383
N1_8 N 0.1730(4) 0.3555(4) 0.0772(4)
H2_8 H 0.1761 0.3560 0.0260
C2_8 C 0.2465(4) 0.1291(4) 0.1522(4)
C3_8 C 0.2686(4) 0.0461(4) 0.1156(4)
C4_8 C 0.2497(4) 0.1273(4) 0.2392(4)
H3_8 H 0.2682 0.0769 0.2753
C5_8 C 0.1971(4) 0.2803(4) 0.1319(4)
C6_8 C 0.2219(4) 0.2050(5) 0.1008(4)
H4_8 H 0.2218 0.2060 0.0437
C7_8 C 0.2249(4) 0.2016(4) 0.2706(4)
C8_8 C 0.2262(4) 0.2006(4) 0.3646(4)
C9_8 C 0.1428(4) 0.4328(4) 0.1053(5)
H5_8 H 0.1750 0.4448 0.1680
H6_8 H 0.1460 0.4845 0.0708
C10_8 C 0.0600(4) 0.4219(4) 0.0942(4)
C11_8 C 0.0110(5) 0.3593(5) 0.0390(6)
H7_8 H 0.0286 0.3199 0.0071
C12_8 C 0.0298(5) 0.4783(5) 0.1388(5)
H8_8 H 0.0606 0.5226 0.1768
N2_8 N 0.9060(4) 0.4057(3) 0.0728(4)
N3_8 N 0.6540(4) 0.3815(4) 0.0137(4)
C13_8 C 0.9367(5) 0.3543(5) 0.0307(6)
C14_8 C 0.9529(5) 0.4681(6) 0.1263(5)
H10_8 H 0.9332 0.5068 0.1567
H11_8 H 0.5002 0.4134 0.0371
C16_8 C 0.5901(4) 0.3871(4) 0.0024(4)
H9_8 H 0.9050 0.3111 0.9919
C15_8 C 0.5135(3) 0.3976(3) 0.9901(3)
C17_4 C 0.4562(4) 0.3827(4) 0.9015(4)
H12_4 H 0.4046 0.3941 0.8902
C18_4 C 0.474(4) 0.351(4) 0.8281(14)
H13_4 H 0.4273 0.3456 0.7746
H14_8 H 0.5087 0.3923 0.8178
H15_4 H 0.4989 0.2929 0.8432
C17_5 C 0.9562(4) 0.1173(4) 0.4015(4)
H12_5 H 0.9046 0.1059 0.3902
C18_5 C 0.974(4) 0.149(4) 0.3281(14)
H13_5 H 0.9273 0.1544 0.2746
H15_5 H 0.9989 0.2071 0.3432
C17_6 C 0.0438(4) 0.1173(4) 0.0985(4)
H12_6 H 0.0954 0.1059 0.1098
C18_6 C 0.026(4) 0.149(4) 0.1719(14)
H13_6 H 0.0727 0.1544 0.2254
H15_6 H 0.0011 0.2071 0.1568
C17_7 C 0.0438(4) 0.8827(4) 0.5985(4)
H12_7 H 0.0954 0.8941 0.6098
C18_7 C 0.026(4) 0.851(4) 0.6719(14)
H13_7 H 0.0727 0.8456 0.7254
H15_7 H 0.0011 0.7929 0.6568
C17_8 C 0.9562(4) 0.8827(4) 0.9015(4)
H12_8 H 0.9046 0.8941 0.8902
C18_8 C 0.974(4) 0.851(4) 0.8281(14)
H13_8 H 0.9273 0.8456 0.7746
H15_8 H 0.9989 0.7929 0.8432
loop_
_geom_bond_atom_site_label_1
_geom_bond_atom_site_label_2
_geom_bond_site_symmetry_1
_geom_bond_site_symmetry_2
Mn1 N2 1_555 1_555
O1 C3 1_555 1_555
O2 C3 1_555 1_555
O3 C8 1_555 1_555
O4 C8 1_555 1_555
C1 H1 1_555 1_555
N1 H2 1_555 1_555
C2 C3 1_555 1_555
C4 C2 1_555 1_555
H3 C4 1_555 1_555
C5 C1 1_555 1_555
N2 C13 1_555 1_555
C6 C2 1_555 1_555
H4 C6 1_555 1_555
C7 C1 1_555 1_555
C8 C7 1_555 1_555
C9 N1 1_555 1_555
H5 C9 1_555 1_555
H6 C9 1_555 1_555
C10 C9 1_555 1_555
C11 C10 1_555 1_555
H7 C11 1_555 1_555
C12 C10 1_555 1_555
N3 Mn1 1_555 1_555
C13 C11 1_555 1_555
H9 C13 1_555 1_555
C14 N2 1_555 1_555
C15 H11 1_555 1_555
C16 N3 1_555 1_555
Mn2 O1 1_555 1_555
Mn4 O4 1_555 1_555
O5 Mn1 1_555 1_555
O7 Mn1 1_555 1_555
O8 Mn1 1_555 1_555
O2 Mn2 1_555 1_555
N1 C5 1_555 1_555
C4 C7 1_555 1_555
C5 C6 1_555 1_555
C12 C14 1_555 1_555
C15 C16 1_555 1_555
Mn4 N2_2 1_555 1_555
O1_2 C3_2 1_555 1_555
O2_2 C3_2 1_555 1_555
O3_2 C8_2 1_555 1_555
O8 C8_2 1_555 1_555
C1_2 H1_2 1_555 1_555
N1_2 H2_2 1_555 1_555
C2_2 C3_2 1_555 1_555
C4_2 C2_2 1_555 1_555
H3_2 C4_2 1_555 1_555
C5_2 C1_2 1_555 1_555
N2_2 C13_2 1_555 1_555
C6_2 C2_2 1_555 1_555
H4_2 C6_2 1_555 1_555
C7_2 C1_2 1_555 1_555
C8_2 C7_2 1_555 1_555
C9_2 N1_2 1_555 1_555
H5_2 C9_2 1_555 1_555
H6_2 C9_2 1_555 1_555
C10_2 C9_2 1_555 1_555
C11_2 C10_2 1_555 1_555
H7_2 C11_2 1_555 1_555
C12_2 C10_2 1_555 1_555
N3_2 Mn4 1_555 1_555
C13_2 C11_2 1_555 1_555
C14_2 N2_2 1_555 1_555
C16_2 N3_2 1_555 1_555
Mn2_2 O1_2 1_555 1_555
Mn3_2 O3_2 1_555 1_555
O5_2 Mn4 1_555 1_555
O2_2 Mn2_2 1_555 1_555
N1_2 C5_2 1_555 1_555
C4_2 C7_2 1_555 1_555
C5_2 C6_2 1_555 1_555
C12_2 C14_2 1_555 1_555
O6 C3_3 1_555 1_555
O3_3 C8_3 1_555 1_555
O4_2 C8_3 1_555 1_555
C1_3 H1_3 1_555 1_555
N1_3 H2_3 1_555 1_555
C2_3 C3_3 1_555 1_555
C4_3 C2_3 1_555 1_555
H3_3 C4_3 1_555 1_555
C5_3 C1_3 1_555 1_555
C6_3 C2_3 1_555 1_555
H4_3 C6_3 1_555 1_555
C7_3 C1_3 1_555 1_555
C8_3 C7_3 1_555 1_555
C9_3 N1_3 1_555 1_555
H5_3 C9_3 1_555 1_555
H6_3 C9_3 1_555 1_555
C10_3 C9_3 1_555 1_555
C11_3 C10_3 1_555 1_555
H7_3 C11_3 1_555 1_555
C12_3 C10_3 1_555 1_555
H8_3 C12_3 1_555 1_555
Mn2_2 O4_2 1_555 1_555
N1_3 C5_3 1_555 1_555
C4_3 C7_3 1_555 1_555
C5_3 C6_3 1_555 1_555
Mn2 N2_3 1_555 1_555
N2_3 C13_3 1_555 1_555
N3_3 Mn2 1_555 1_555
H9_3 C13_3 1_555 1_555
C14_3 N2_3 1_555 1_555
H10_3 C14_3 1_555 1_555
C15_3 H11_3 1_555 1_555
C16_3 N3_3 1_555 1_555
C17 C15_3 1_555 1_555
H12 C17 1_555 1_555
C18 C17 1_555 1_555
H13 C18 1_555 1_555
H14_3 C18 1_555 1_555
H15 C18 1_555 1_555
O7_3 Mn2 1_555 1_555
O8_2 Mn2 1_555 1_555
C15_3 C16_3 1_555 1_555
C17_2 C15_4 1_555 1_555
H12_2 C17_2 1_555 1_555
C18_2 C17_2 1_555 1_555
H13_2 C18_2 1_555 1_555
H14_4 C18_2 1_555 1_555
H15_2 C18_2 1_555 1_555
Mn2_2 N2_4 1_555 1_555
N2_4 C13_4 1_555 1_555
N3_4 Mn2_2 1_555 1_555
C14_4 N2_4 1_555 1_555
H10_4 C14_4 1_555 1_555
C16_4 N3_4 1_555 1_555
O6_2 C3_4 1_555 1_555
O3_4 C8_4 1_555 1_555
O8_2 C8_4 1_555 1_555
C1_4 H1_4 1_555 1_555
N1_4 H2_4 1_555 1_555
C2_4 C3_4 1_555 1_555
C4_4 C2_4 1_555 1_555
H3_4 C4_4 1_555 1_555
C5_4 C1_4 1_555 1_555
C6_4 C2_4 1_555 1_555
H4_4 C6_4 1_555 1_555
C7_4 C1_4 1_555 1_555
C8_4 C7_4 1_555 1_555
C9_4 N1_4 1_555 1_555
H5_4 C9_4 1_555 1_555
H6_4 C9_4 1_555 1_555
C10_4 C9_4 1_555 1_555
C11_4 C10_4 1_555 1_555
H7_4 C11_4 1_555 1_555
C12_4 C10_4 1_555 1_555
H8_4 C12_4 1_555 1_555
Mn3_4 O3_4 1_555 1_555
N1_4 C5_4 1_555 1_555
C4_4 C7_4 1_555 1_555
C5_4 C6_4 1_555 1_555
Mn3_4 N2_5 1_555 1_555
O1_3 C3_5 1_555 1_555
O2_3 C3_5 1_555 1_555
O7_4 C8_5 1_555 1_555
O4_3 C8_5 1_555 1_555
C1_5 H1_5 1_555 1_555
N1_5 H2_5 1_555 1_555
C2_5 C3_5 1_555 1_555
C4_5 C2_5 1_555 1_555
H3_5 C4_5 1_555 1_555
C5_5 C1_5 1_555 1_555
N2_5 C13_5 1_555 1_555
C6_5 C2_5 1_555 1_555
H4_5 C6_5 1_555 1_555
C7_5 C1_5 1_555 1_555
C8_5 C7_5 1_555 1_555
C9_5 N1_5 1_555 1_555
H5_5 C9_5 1_555 1_555
H6_5 C9_5 1_555 1_555
C10_5 C9_5 1_555 1_555
C11_5 C10_5 1_555 1_555
H7_5 C11_5 1_555 1_555
C12_5 C10_5 1_555 1_555
N3_5 Mn3_4 1_555 1_555
C13_5 C11_5 1_555 1_555
H9_5 C13_5 1_555 1_555
C14_5 N2_5 1_555 1_555
C15_5 H11_5 1_555 1_555
C16_5 N3_5 1_555 1_555
Mn3_2 O1_3 1_555 1_555
Mn3_3 O4_3 1_555 1_555
O5_3 Mn3_4 1_555 1_555
O8_3 Mn3_4 1_555 1_555
O2_3 Mn3_2 1_555 1_555
N1_5 C5_5 1_555 1_555
C4_5 C7_5 1_555 1_555
C5_5 C6_5 1_555 1_555
C12_5 C14_5 1_555 1_555
C15_5 C16_5 1_555 1_555
Mn3_3 N2_6 1_555 1_555
O1_4 C3_6 1_555 1_555
O2_4 C3_6 1_555 1_555
O7_3 C8_6 1_555 1_555
O8_3 C8_6 1_555 1_555
C1_6 H1_6 1_555 1_555
N1_6 H2_6 1_555 1_555
C2_6 C3_6 1_555 1_555
C4_6 C2_6 1_555 1_555
H3_6 C4_6 1_555 1_555
C5_6 C1_6 1_555 1_555
N2_6 C13_6 1_555 1_555
C6_6 C2_6 1_555 1_555
H4_6 C6_6 1_555 1_555
C7_6 C1_6 1_555 1_555
C8_6 C7_6 1_555 1_555
C9_6 N1_6 1_555 1_555
H5_6 C9_6 1_555 1_555
H6_6 C9_6 1_555 1_555
C10_6 C9_6 1_555 1_555
C11_6 C10_6 1_555 1_555
H7_6 C11_6 1_555 1_555
C12_6 C10_6 1_555 1_555
N3_6 Mn3_3 1_555 1_555
C13_6 C11_6 1_555 1_555
C14_6 N2_6 1_555 1_555
C16_6 N3_6 1_555 1_555
Mn3 O1_4 1_555 1_555
O5_4 Mn3_3 1_555 1_555
O2_4 Mn3 1_555 1_555
N1_6 C5_6 1_555 1_555
C4_6 C7_6 1_555 1_555
C5_6 C6_6 1_555 1_555
C12_6 C14_6 1_555 1_555
Mn3_2 N2_7 1_555 1_555
N2_7 C13_7 1_555 1_555
N3_7 Mn3_2 1_555 1_555
H9_7 C13_7 1_555 1_555
C14_7 N2_7 1_555 1_555
H10_7 C14_7 1_555 1_555
C15_7 H11_7 1_555 1_555
C16_7 N3_7 1_555 1_555
C17_3 C15_7 1_555 1_555
H12_3 C17_3 1_555 1_555
C18_3 C17_3 1_555 1_555
H13_3 C18_3 1_555 1_555
H14_7 C18_3 1_555 1_555
H15_3 C18_3 1_555 1_555
O8_4 Mn3_2 1_555 1_555
C15_7 C16_7 1_555 1_555
O6_3 C3_7 1_555 1_555
O7_2 C8_7 1_555 1_555
O4_4 C8_7 1_555 1_555
C1_7 H1_7 1_555 1_555
N1_7 H2_7 1_555 1_555
C2_7 C3_7 1_555 1_555
C4_7 C2_7 1_555 1_555
H3_7 C4_7 1_555 1_555
C5_7 C1_7 1_555 1_555
C6_7 C2_7 1_555 1_555
H4_7 C6_7 1_555 1_555
C7_7 C1_7 1_555 1_555
C8_7 C7_7 1_555 1_555
C9_7 N1_7 1_555 1_555
H5_7 C9_7 1_555 1_555
H6_7 C9_7 1_555 1_555
C10_7 C9_7 1_555 1_555
C11_7 C10_7 1_555 1_555
H7_7 C11_7 1_555 1_555
C12_7 C10_7 1_555 1_555
H8_7 C12_7 1_555 1_555
Mn3 O4_4 1_555 1_555
N1_7 C5_7 1_555 1_555
C4_7 C7_7 1_555 1_555
C5_7 C6_7 1_555 1_555
O6_4 C3_8 1_555 1_555
O7 C8_8 1_555 1_555
O8_4 C8_8 1_555 1_555
C1_8 H1_8 1_555 1_555
N1_8 H2_8 1_555 1_555
C2_8 C3_8 1_555 1_555
C4_8 C2_8 1_555 1_555
H3_8 C4_8 1_555 1_555
C5_8 C1_8 1_555 1_555
C6_8 C2_8 1_555 1_555
H4_8 C6_8 1_555 1_555
C7_8 C1_8 1_555 1_555
C8_8 C7_8 1_555 1_555
C9_8 N1_8 1_555 1_555
H5_8 C9_8 1_555 1_555
H6_8 C9_8 1_555 1_555
C10_8 C9_8 1_555 1_555
C11_8 C10_8 1_555 1_555
H7_8 C11_8 1_555 1_555
C12_8 C10_8 1_555 1_555
H8_8 C12_8 1_555 1_555
N1_8 C5_8 1_555 1_555
C4_8 C7_8 1_555 1_555
C5_8 C6_8 1_555 1_555
Mn3 N2_8 1_555 1_555
N2_8 C13_8 1_555 1_555
N3_8 Mn3 1_555 1_555
C14_8 N2_8 1_555 1_555
H10_8 C14_8 1_555 1_555
C16_8 N3_8 1_555 1_555
C17_4 C15_8 1_555 1_555
H12_4 C17_4 1_555 1_555
C18_4 C17_4 1_555 1_555
H13_4 C18_4 1_555 1_555
H14_8 C18_4 1_555 1_555
H15_4 C18_4 1_555 1_555
H12_5 C17_5 1_555 1_555
C18_5 C17_5 1_555 1_555
H13_5 C18_5 1_555 1_555
H15_5 C18_5 1_555 1_555
H12_6 C17_6 1_555 1_555
C18_6 C17_6 1_555 1_555
H13_6 C18_6 1_555 1_555
H15_6 C18_6 1_555 1_555
H12_7 C17_7 1_555 1_555
C18_7 C17_7 1_555 1_555
H13_7 C18_7 1_555 1_555
H15_7 C18_7 1_555 1_555
H12_8 C17_8 1_555 1_555
C18_8 C17_8 1_555 1_555
H13_8 C18_8 1_555 1_555
H15_8 C18_8 1_555 1_555

#END
