
###############################################################################
#
# This file contains modified crystal structure data generated from the
# MOF subset of the Cambridge Structural Database (CSD) v543 
# hosted by the Cambridge Crystallographic Data Centre (CCDC).
#
# This work is licensed under the Creative Commons
# Attribution-NonCommercial-ShareAlike 4.0 International License.
# To view a copy of this license, visit
# http://creativecommons.org/licenses/by-nc-sa/4.0/
# or send a letter to
# Creative Commons, PO Box 1866, Mountain View, CA 94042, USA.
#
# CIF created using the CSD Python API on 29 September 2022
# The structure has been converted into the P1 space group
# The structure has a 3D framework
# The original CSD entry LUFSEN is in the monoclinic crystal system
# The framework has been calculated to contain at least 10.0% void space
# The void calculation uses a probe of radius 1.32A, grid spacing 0.4
#
###############################################################################

data_LUFSEN
_chemical_formula_moiety         '(C228 H208 N16 O48 Si8 Zn8)n'
_symmetry_cell_setting           triclinic
_symmetry_space_group_name_H-M   'P 1'
_symmetry_Int_Tables_number      1
_space_group_name_Hall           'P 1'
loop_
_symmetry_equiv_pos_site_id
_symmetry_equiv_pos_as_xyz
1 x,y,z
_cell_length_a                   8.3003(5)
_cell_length_b                   26.7153(18)
_cell_length_c                   26.3110(17)
_cell_angle_alpha                90
_cell_angle_beta                 90.138(2)
_cell_angle_gamma                90
_cell_volume                     5834.32
loop_
_atom_site_label
_atom_site_type_symbol
_atom_site_fract_x
_atom_site_fract_y
_atom_site_fract_z
N4 N 0.1737(7) 0.0569(2) 0.5174(2)
H41 H 0.075528 0.003273 0.691053
C52 C 0.1575(8) 0.0201(3) 0.6003(3)
C53 C 0.1227(10) 0.0673(3) 0.6214(3)
H47 H 0.106647 0.071202 0.656903
C54 C 0.1129(10) 0.1071(3) 0.5896(3)
H48 H 0.088846 0.139245 0.602924
C55 C 0.1373(9) 0.1014(3) 0.5383(3)
H49 H 0.128039 0.129907 0.516856
C56 C 0.1840(8) 0.0168(3) 0.5492(3)
Zn3 Zn 0.25131(8) 0.05586(3) 0.44271(3)
O14 O 0.3962(6) -0.0000(2) 0.9479(3)
H21 H 0.606346 0.619025 0.003842
N6 N 0.1737(7) 0.9431(2) 0.0174(2)
Zn1 Zn 0.25131(8) 0.94414(3) 0.94271(3)
Zn2 Zn 0.25150(7) 0.70089(3) 0.60515(3)
Si1 Si 0.5967(2) 0.75549(7) 0.29670(7)
Si2 Si 0.5888(3) 0.63532(8) 0.91580(10)
O3 O 0.3560(6) 0.70810(18) 0.54003(19)
O4 O 0.3849(6) 0.79048(19) 0.54721(19)
O5 O 0.3578(6) 0.87934(19) 0.94723(19)
O6 O 0.4052(6) 0.88100(18) 0.86384(18)
O12 O 0.1734(6) 0.97589(18) 0.62646(18)
N2 N 0.0367(6) 0.73677(19) 0.6083(2)
N3 N 0.0569(7) 0.9393(2) 0.8965(2)
C2 C 0.0999(8) 0.7666(3) 0.2093(3)
C3 C 0.1986(8) 0.8090(3) 0.2149(3)
H1 H 0.165657 0.840070 0.200716
C4 C 0.3457(8) 0.8058(3) 0.2413(3)
H2 H 0.410087 0.834910 0.245231
C5 C 0.3982(8) 0.7609(2) 0.2617(2)
C6 C 0.2961(8) 0.7197(3) 0.2564(2)
H3 H 0.327374 0.688736 0.271238
C7 C 0.1506(8) 0.7222(3) 0.2305(3)
H4 H 0.085575 0.693094 0.227294
C8 C 0.6950(8) 0.6962(3) 0.2771(3)
H5 H 0.794247 0.691440 0.296815
H6 H 0.720944 0.697657 0.240858
H7 H 0.621724 0.668096 0.283431
C9 C 0.7231(9) 0.8122(3) 0.2816(3)
H8 H 0.675682 0.841832 0.297676
H9 H 0.726574 0.817103 0.244693
H10 H 0.832706 0.807219 0.294551
C10 C 0.5506(7) 0.7539(2) 0.3659(2)
C11 C 0.4828(9) 0.7105(2) 0.3881(3)
H11 H 0.470787 0.681447 0.367684
C12 C 0.4330(8) 0.7086(3) 0.4383(3)
H12 H 0.387318 0.678883 0.451879
C13 C 0.4516(8) 0.7515(3) 0.4687(3)
C14 C 0.5231(9) 0.7942(3) 0.4481(3)
H13 H 0.538346 0.823051 0.468635
C15 C 0.5721(9) 0.7947(3) 0.3977(3)
H14 H 0.622022 0.823941 0.384558
C16 C 0.3926(8) 0.7511(3) 0.5224(3)
C17 C 0.4034(8) 0.8595(3) 0.9046(3)
C18 C 0.4573(8) 0.8055(3) 0.9089(3)
C19 C 0.5385(9) 0.7832(3) 0.8692(3)
H15 H 0.566151 0.802464 0.840137
C20 C 0.5802(9) 0.7328(3) 0.8714(3)
H16 H 0.635169 0.717840 0.843685
C21 C 0.5425(9) 0.7041(3) 0.9137(3)
C22 C 0.4639(9) 0.7275(3) 0.9536(3)
H17 H 0.438438 0.708720 0.983122
C23 C 0.4209(9) 0.7784(3) 0.9515(3)
H18 H 0.367264 0.793743 0.979234
C24 C 0.6861(11) 0.6180(4) 0.9765(4)
H19 H 0.773257 0.641626 0.983960
H20 H 0.730420 0.584079 0.973796
C25 C 0.7128(11) 0.6171(3) 0.8593(4)
H22 H 0.816935 0.634324 0.860788
H23 H 0.655959 0.626673 0.828104
H24 H 0.730192 0.580839 0.859549
C26 C 0.3899(10) 0.6000(3) 0.9116(4)
C27 C 0.2936(10) 0.5947(3) 0.9546(3)
H25 H 0.326278 0.609936 0.985636
C28 C 0.1492(10) 0.5673(3) 0.9530(4)
H26 H 0.085924 0.563068 0.982675
C29 C 0.1007(10) 0.5466(3) 0.9068(4)
C30 C 0.1944(10) 0.5520(3) 0.8645(4)
H27 H 0.160194 0.537472 0.833310
C31 C 0.3400(10) 0.5784(3) 0.8663(4)
H28 H 0.404199 0.581582 0.836633
C42 C 0.0265(7) 0.7845(2) 0.6244(2)
H36 H 0.120848 0.800696 0.636595
C43 C 0.0053(8) 0.8846(3) 0.6567(3)
H37 H 0.081906 0.886705 0.627994
H38 H 0.058908 0.867133 0.685281
C46 C 0.1045(9) 0.9701(3) 0.6770(3)
H42 H 0.184126 0.954336 0.700071
C51 C 0.0783(8) 0.9365(2) 0.8462(3)
H46 H 0.184218 0.939384 0.832882
H50 H 0.210810 0.985129 0.535157
O13 O 0.4132(6) 0.68772(19) 0.65827(18)
O14_2 O 0.3962(6) 1.0000(2) 0.9479(3)
N5 N 0.1893(7) 0.6255(2) 0.5916(2)
O10 O 0.8010(6) 0.00923(17) 0.64879(18)
N1 N 0.6893(7) 0.1255(2) 0.5916(2)
C33 C 0.7381(9) 0.0904(2) 0.6249(3)
H29 H 0.777449 0.100456 0.657218
C34 C 0.7326(9) 0.0392(2) 0.6130(3)
C35 C 0.6656(9) 0.0234(3) 0.5680(3)
C36 C 0.6129(9) 0.0609(3) 0.5338(3)
H31 H 0.565965 0.051656 0.502171
C37 C 0.6294(8) 0.1104(3) 0.5462(3)
H32 H 0.597827 0.134977 0.522109
Zn5 Zn 0.75150(7) 0.20089(3) 0.60515(3)
O1 O 0.9132(6) 0.81228(19) 0.15827(18)
O2 O 0.8749(6) 0.7309(2) 0.16769(19)
O7 O 0.8962(6) 0.5000(2) 0.9479(3)
O8 O 0.8972(7) 0.4995(2) 0.8647(3)
O9 O 0.8622(5) 0.85799(16) 0.64150(18)
O11 O 0.9919(5) 0.92655(18) 0.76287(16)
C1 C 0.9536(8) 0.7695(3) 0.1776(3)
C32 C 0.9520(10) 0.5143(3) 0.9066(4)
H30 H 0.655111 0.988852 0.560207
C38 C 0.9050(8) 0.7145(2) 0.5901(3)
H33 H 0.911308 0.680370 0.580198
C39 C 0.7595(8) 0.7392(3) 0.5850(3)
H34 H 0.669149 0.723085 0.569930
C40 C 0.7485(9) 0.7885(2) 0.6024(3)
H35 H 0.650163 0.806566 0.599820
C41 C 0.8834(8) 0.8105(2) 0.6235(2)
C44 C 0.9531(9) 0.9370(2) 0.6730(3)
C45 C 0.8699(8) 0.9350(2) 0.7253(2)
H39 H 0.813371 0.966892 0.732090
H40 H 0.789806 0.907504 0.725971
C47 C 0.9497(8) 0.9295(2) 0.8126(3)
C48 C 0.7973(8) 0.9246(3) 0.8318(3)
H43 H 0.708076 0.918892 0.809926
C49 C 0.7756(9) 0.9283(3) 0.8843(3)
H44 H 0.670938 0.925748 0.898539
C50 C 0.9071(8) 0.9355(3) 0.9148(3)
H45 H 0.891346 0.937961 0.950466
C57 C 0.8320(9) 0.9580(3) 0.6348(3)
H51 H 0.876638 0.956344 0.600008
H52 H 0.730986 0.938335 0.635740
Zn4 Zn 0.75131(8) 0.44414(3) 0.94271(3)
Zn6 Zn 0.75150(7) 0.79911(3) 0.10515(3)
Zn2_2 Zn 0.25150(7) 0.29911(3) 0.10515(3)
Si2_2 Si 0.5888(3) 0.36468(8) 0.41580(10)
O3_2 O 0.3560(6) 0.29190(18) 0.04003(19)
O4_2 O 0.3849(6) 0.20952(19) 0.04721(19)
O5_2 O 0.3578(6) 0.12066(19) 0.44723(19)
O6_2 O 0.4052(6) 0.11900(18) 0.36384(18)
O12_2 O 0.1734(6) 0.02411(18) 0.12646(18)
N2_2 N 0.0367(6) 0.26323(19) 0.1083(2)
N3_2 N 0.0569(7) 0.0607(2) 0.3965(2)
C16_2 C 0.3926(8) 0.2489(3) 0.0224(3)
C17_2 C 0.4034(8) 0.1405(3) 0.4046(3)
C18_2 C 0.4573(8) 0.1945(3) 0.4089(3)
C19_2 C 0.5385(9) 0.2168(3) 0.3692(3)
H15_2 H 0.566151 0.197536 0.340137
C20_2 C 0.5802(9) 0.2672(3) 0.3714(3)
H16_2 H 0.635169 0.282160 0.343685
C21_2 C 0.5425(9) 0.2959(3) 0.4137(3)
C22_2 C 0.4639(9) 0.2725(3) 0.4536(3)
H17_2 H 0.438438 0.291280 0.483122
C23_2 C 0.4209(9) 0.2216(3) 0.4515(3)
H18_2 H 0.367264 0.206257 0.479234
C24_2 C 0.6861(11) 0.3820(4) 0.4765(4)
H19_2 H 0.773257 0.358374 0.483960
H20_2 H 0.730420 0.415921 0.473796
H21_2 H 0.606346 0.380975 0.503842
C25_2 C 0.7128(11) 0.3829(3) 0.3593(4)
H22_2 H 0.816935 0.365676 0.360788
H23_2 H 0.655959 0.373327 0.328104
H24_2 H 0.730192 0.419161 0.359549
C26_2 C 0.3899(10) 0.4000(3) 0.4116(4)
C27_2 C 0.2936(10) 0.4053(3) 0.4546(3)
H25_2 H 0.326278 0.390064 0.485636
C28_2 C 0.1492(10) 0.4327(3) 0.4530(4)
H26_2 H 0.085924 0.436932 0.482675
C29_2 C 0.1007(10) 0.4534(3) 0.4068(4)
C30_2 C 0.1944(10) 0.4480(3) 0.3645(4)
H27_2 H 0.160194 0.462528 0.333310
C31_2 C 0.3400(10) 0.4216(3) 0.3663(4)
H28_2 H 0.404199 0.418418 0.336633
C42_2 C 0.0265(7) 0.2155(2) 0.1244(2)
H36_2 H 0.120848 0.199304 0.136595
C43_2 C 0.0053(8) 0.1154(3) 0.1567(3)
H37_2 H 0.081906 0.113295 0.127994
H38_2 H 0.058908 0.132867 0.185281
C46_2 C 0.1045(9) 0.0299(3) 0.1770(3)
H42_2 H 0.184126 0.045664 0.200071
C51_2 C 0.0783(8) 0.0635(2) 0.3462(3)
H46_2 H 0.184218 0.060616 0.332882
H50_2 H 0.210810 0.014871 0.035157
O13_2 O 0.4132(6) 0.31228(19) 0.15827(18)
O14_3 O 0.3962(6) 0.0000(2) 0.4479(3)
N5_2 N 0.1893(7) 0.3745(2) 0.0916(2)
H41_2 H 0.075528 0.996727 0.191053
C52_2 C 0.1575(8) 0.9799(3) 0.1003(3)
C53_2 C 0.1227(10) 0.9327(3) 0.1214(3)
H47_2 H 0.106647 0.928798 0.156903
C54_2 C 0.1129(10) 0.8929(3) 0.0896(3)
H48_2 H 0.088846 0.860755 0.102924
C55_2 C 0.1373(9) 0.8986(3) 0.0383(3)
H49_2 H 0.128039 0.870093 0.016856
C56_2 C 0.1840(8) 0.9832(3) 0.0492(3)
O14_4 O 0.3962(6) 1.0000(2) 0.4479(3)
O7_2 O 0.8962(6) 0.5000(2) 0.4479(3)
O8_2 O 0.8972(7) 0.5005(2) 0.3647(3)
O9_2 O 0.8622(5) 0.14201(16) 0.14150(18)
O11_2 O 0.9919(5) 0.07345(18) 0.26287(16)
C32_2 C 0.9520(10) 0.4857(3) 0.4066(4)
H30_2 H 0.655111 0.011148 0.060207
C38_2 C 0.9050(8) 0.2855(2) 0.0901(3)
H33_2 H 0.911308 0.319630 0.080198
C39_2 C 0.7595(8) 0.2608(3) 0.0850(3)
H34_2 H 0.669149 0.276915 0.069930
C40_2 C 0.7485(9) 0.2115(2) 0.1024(3)
H35_2 H 0.650163 0.193434 0.099820
C41_2 C 0.8834(8) 0.1895(2) 0.1235(2)
C44_2 C 0.9531(9) 0.0630(2) 0.1730(3)
C45_2 C 0.8699(8) 0.0650(2) 0.2253(2)
H39_2 H 0.813371 0.033108 0.232090
H40_2 H 0.789806 0.092496 0.225971
C47_2 C 0.9497(8) 0.0705(2) 0.3126(3)
C48_2 C 0.7973(8) 0.0754(3) 0.3318(3)
H43_2 H 0.708076 0.081108 0.309926
C49_2 C 0.7756(9) 0.0717(3) 0.3843(3)
H44_2 H 0.670938 0.074252 0.398539
C50_2 C 0.9071(8) 0.0645(3) 0.4148(3)
H45_2 H 0.891346 0.062039 0.450466
C57_2 C 0.8320(9) 0.0420(3) 0.1348(3)
H51_2 H 0.876638 0.043656 0.100008
H52_2 H 0.730986 0.061665 0.135740
Zn4_2 Zn 0.75131(8) 0.55586(3) 0.44271(3)
O1_2 O 0.9132(6) 0.18772(19) 0.65827(18)
O2_2 O 0.8749(6) 0.2691(2) 0.66769(19)
C1_2 C 0.9536(8) 0.2305(3) 0.6776(3)
O10_2 O 0.8010(6) 0.99077(17) 0.14879(18)
N1_2 N 0.6893(7) 0.8745(2) 0.0916(2)
C33_2 C 0.7381(9) 0.9096(2) 0.1249(3)
H29_2 H 0.777449 0.899544 0.157218
C34_2 C 0.7326(9) 0.9608(2) 0.1130(3)
C35_2 C 0.6656(9) 0.9766(3) 0.0680(3)
C36_2 C 0.6129(9) 0.9391(3) 0.0338(3)
H31_2 H 0.565965 0.948344 0.002171
C37_2 C 0.6294(8) 0.8896(3) 0.0462(3)
H32_2 H 0.597827 0.865023 0.022109
N6_2 N 0.6737(7) 0.4431(2) 0.0174(2)
O2_3 O 0.3749(6) 0.2309(2) 0.16769(19)
O3_3 O 0.8560(6) 0.20810(18) 0.54003(19)
O4_3 O 0.8849(6) 0.29048(19) 0.54721(19)
O5_3 O 0.8578(6) 0.37934(19) 0.94723(19)
O6_3 O 0.9052(6) 0.38100(18) 0.86384(18)
O9_3 O 0.3622(5) 0.35799(16) 0.64150(18)
O10_3 O 0.3010(6) 0.50923(17) 0.64879(18)
O11_3 O 0.4919(5) 0.42655(18) 0.76287(16)
O12_3 O 0.6734(6) 0.47589(18) 0.62646(18)
N2_3 N 0.5367(6) 0.23677(19) 0.6083(2)
N3_3 N 0.5569(7) 0.4393(2) 0.8965(2)
N4_2 N 0.6737(7) 0.5569(2) 0.5174(2)
C1_3 C 0.4536(8) 0.2695(3) 0.1776(3)
C2_2 C 0.5999(8) 0.2666(3) 0.2093(3)
C3_2 C 0.6986(8) 0.3090(3) 0.2149(3)
H1_2 H 0.665657 0.340070 0.200716
C4_2 C 0.8457(8) 0.3058(3) 0.2413(3)
H2_2 H 0.910087 0.334910 0.245231
C5_2 C 0.8982(8) 0.2609(2) 0.2617(2)
C6_2 C 0.7961(8) 0.2197(3) 0.2564(2)
H3_2 H 0.827374 0.188736 0.271238
C7_2 C 0.6506(8) 0.2222(3) 0.2305(3)
H4_2 H 0.585575 0.193094 0.227294
C11_2 C 0.9828(9) 0.2105(2) 0.3881(3)
H11_2 H 0.970787 0.181447 0.367684
C12_2 C 0.9330(8) 0.2086(3) 0.4383(3)
H12_2 H 0.887318 0.178883 0.451879
C13_2 C 0.9516(8) 0.2515(3) 0.4687(3)
C16_3 C 0.8926(8) 0.2511(3) 0.5224(3)
C17_3 C 0.9034(8) 0.3595(3) 0.9046(3)
C18_3 C 0.9573(8) 0.3055(3) 0.9089(3)
C22_3 C 0.9639(9) 0.2275(3) 0.9536(3)
H17_3 H 0.938438 0.208720 0.983122
C23_3 C 0.9209(9) 0.2784(3) 0.9515(3)
H18_3 H 0.867264 0.293743 0.979234
C26_3 C 0.8899(10) 0.1000(3) 0.9116(4)
C27_3 C 0.7936(10) 0.0947(3) 0.9546(3)
H25_3 H 0.826278 0.109936 0.985636
C28_3 C 0.6492(10) 0.0673(3) 0.9530(4)
H26_3 H 0.585924 0.063068 0.982675
C29_3 C 0.6007(10) 0.0466(3) 0.9068(4)
C30_3 C 0.6944(10) 0.0520(3) 0.8645(4)
H27_3 H 0.660194 0.037472 0.833310
C31_3 C 0.8400(10) 0.0784(3) 0.8663(4)
H28_3 H 0.904199 0.081582 0.836633
C32_3 C 0.4520(10) 0.0143(3) 0.9066(4)
C33_3 C 0.2381(9) 0.5904(2) 0.6249(3)
H29_3 H 0.277449 0.600456 0.657218
C34_3 C 0.2326(9) 0.5392(2) 0.6130(3)
C35_3 C 0.1656(9) 0.5234(3) 0.5680(3)
H30_3 H 0.155111 0.488852 0.560207
C36_3 C 0.1129(9) 0.5609(3) 0.5338(3)
H31_3 H 0.065965 0.551656 0.502171
C37_3 C 0.1294(8) 0.6104(3) 0.5462(3)
H32_3 H 0.097827 0.634977 0.522109
C38_3 C 0.4050(8) 0.2145(2) 0.5901(3)
H33_3 H 0.411308 0.180370 0.580198
C39_3 C 0.2595(8) 0.2392(3) 0.5850(3)
H34_3 H 0.169149 0.223085 0.569930
C40_3 C 0.2485(9) 0.2885(2) 0.6024(3)
H35_3 H 0.150163 0.306566 0.599820
C41_3 C 0.3834(8) 0.3105(2) 0.6235(2)
C42_3 C 0.5265(7) 0.2845(2) 0.6244(2)
H36_3 H 0.620848 0.300696 0.636595
C43_3 C 0.5053(8) 0.3846(3) 0.6567(3)
H37_3 H 0.581906 0.386705 0.627994
H38_3 H 0.558908 0.367133 0.685281
C44_3 C 0.4531(9) 0.4370(2) 0.6730(3)
C45_3 C 0.3699(8) 0.4350(2) 0.7253(2)
H39_3 H 0.313371 0.466892 0.732090
H40_3 H 0.289806 0.407504 0.725971
C46_3 C 0.6045(9) 0.4701(3) 0.6770(3)
H41_3 H 0.575528 0.503273 0.691053
H42_3 H 0.684126 0.454336 0.700071
C47_3 C 0.4497(8) 0.4295(2) 0.8126(3)
C48_3 C 0.2973(8) 0.4246(3) 0.8318(3)
H43_3 H 0.208076 0.418892 0.809926
C49_3 C 0.2756(9) 0.4283(3) 0.8843(3)
H44_3 H 0.170938 0.425748 0.898539
C50_3 C 0.4071(8) 0.4355(3) 0.9148(3)
H45_3 H 0.391346 0.437961 0.950466
C51_3 C 0.5783(8) 0.4365(2) 0.8462(3)
H46_3 H 0.684218 0.439384 0.832882
C52_3 C 0.6575(8) 0.5201(3) 0.6003(3)
C53_3 C 0.6227(10) 0.5673(3) 0.6214(3)
H47_3 H 0.606647 0.571202 0.656903
C54_3 C 0.6129(10) 0.6071(3) 0.5896(3)
H48_3 H 0.588846 0.639245 0.602924
C55_3 C 0.6373(9) 0.6014(3) 0.5383(3)
H49_3 H 0.628039 0.629907 0.516856
C56_3 C 0.6840(8) 0.5168(3) 0.5492(3)
H50_3 H 0.710810 0.485129 0.535157
C57_3 C 0.3320(9) 0.4580(3) 0.6348(3)
H51_3 H 0.376638 0.456344 0.600008
H52_3 H 0.230986 0.438335 0.635740
O8_3 O 0.3972(7) 0.9995(2) 0.8647(3)
O8_4 O 0.3972(7) 0.0005(2) 0.3647(3)
O3_4 O 0.8560(6) 0.79190(18) 0.04003(19)
O4_4 O 0.8849(6) 0.70952(19) 0.04721(19)
O5_4 O 0.8578(6) 0.62066(19) 0.44723(19)
O6_4 O 0.9052(6) 0.61900(18) 0.36384(18)
O9_4 O 0.3622(5) 0.64201(16) 0.14150(18)
O10_4 O 0.3010(6) 0.49077(17) 0.14879(18)
O11_4 O 0.4919(5) 0.57345(18) 0.26287(16)
O12_4 O 0.6734(6) 0.52411(18) 0.12646(18)
N2_4 N 0.5367(6) 0.76323(19) 0.1083(2)
N3_4 N 0.5569(7) 0.5607(2) 0.3965(2)
C16_4 C 0.8926(8) 0.7489(3) 0.0224(3)
C17_4 C 0.9034(8) 0.6405(3) 0.4046(3)
C18_4 C 0.9573(8) 0.6945(3) 0.4089(3)
C22_4 C 0.9639(9) 0.7725(3) 0.4536(3)
H17_4 H 0.938438 0.791280 0.483122
C23_4 C 0.9209(9) 0.7216(3) 0.4515(3)
H18_4 H 0.867264 0.706257 0.479234
C26_4 C 0.8899(10) 0.9000(3) 0.4116(4)
C27_4 C 0.7936(10) 0.9053(3) 0.4546(3)
H25_4 H 0.826278 0.890064 0.485636
C28_4 C 0.6492(10) 0.9327(3) 0.4530(4)
H26_4 H 0.585924 0.936932 0.482675
C29_4 C 0.6007(10) 0.9534(3) 0.4068(4)
C30_4 C 0.6944(10) 0.9480(3) 0.3645(4)
H27_4 H 0.660194 0.962528 0.333310
C31_4 C 0.8400(10) 0.9216(3) 0.3663(4)
H28_4 H 0.904199 0.918418 0.336633
C32_4 C 0.4520(10) 0.9857(3) 0.4066(4)
C33_4 C 0.2381(9) 0.4096(2) 0.1249(3)
H29_4 H 0.277449 0.399544 0.157218
C34_4 C 0.2326(9) 0.4608(2) 0.1130(3)
C35_4 C 0.1656(9) 0.4766(3) 0.0680(3)
H30_4 H 0.155111 0.511148 0.060207
C36_4 C 0.1129(9) 0.4391(3) 0.0338(3)
H31_4 H 0.065965 0.448344 0.002171
C37_4 C 0.1294(8) 0.3896(3) 0.0462(3)
H32_4 H 0.097827 0.365023 0.022109
C38_4 C 0.4050(8) 0.7855(2) 0.0901(3)
H33_4 H 0.411308 0.819630 0.080198
C39_4 C 0.2595(8) 0.7608(3) 0.0850(3)
H34_4 H 0.169149 0.776915 0.069930
C40_4 C 0.2485(9) 0.7115(2) 0.1024(3)
H35_4 H 0.150163 0.693434 0.099820
C41_4 C 0.3834(8) 0.6895(2) 0.1235(2)
C42_4 C 0.5265(7) 0.7155(2) 0.1244(2)
H36_4 H 0.620848 0.699304 0.136595
C43_4 C 0.5053(8) 0.6154(3) 0.1567(3)
H37_4 H 0.581906 0.613295 0.127994
H38_4 H 0.558908 0.632867 0.185281
C44_4 C 0.4531(9) 0.5630(2) 0.1730(3)
C45_4 C 0.3699(8) 0.5650(2) 0.2253(2)
H39_4 H 0.313371 0.533108 0.232090
H40_4 H 0.289806 0.592496 0.225971
C46_4 C 0.6045(9) 0.5299(3) 0.1770(3)
H41_4 H 0.575528 0.496727 0.191053
H42_4 H 0.684126 0.545664 0.200071
C47_4 C 0.4497(8) 0.5705(2) 0.3126(3)
C48_4 C 0.2973(8) 0.5754(3) 0.3318(3)
H43_4 H 0.208076 0.581108 0.309926
C49_4 C 0.2756(9) 0.5717(3) 0.3843(3)
H44_4 H 0.170938 0.574252 0.398539
C50_4 C 0.4071(8) 0.5645(3) 0.4148(3)
H45_4 H 0.391346 0.562039 0.450466
C51_4 C 0.5783(8) 0.5635(2) 0.3462(3)
H46_4 H 0.684218 0.560616 0.332882
C52_4 C 0.6575(8) 0.4799(3) 0.1003(3)
C53_4 C 0.6227(10) 0.4327(3) 0.1214(3)
H47_4 H 0.606647 0.428798 0.156903
C54_4 C 0.6129(10) 0.3929(3) 0.0896(3)
H48_4 H 0.588846 0.360755 0.102924
C55_4 C 0.6373(9) 0.3986(3) 0.0383(3)
H49_4 H 0.628039 0.370093 0.016856
C56_4 C 0.6840(8) 0.4832(3) 0.0492(3)
H50_4 H 0.710810 0.514871 0.035157
C57_4 C 0.3320(9) 0.5420(3) 0.1348(3)
H51_4 H 0.376638 0.543656 0.100008
H52_4 H 0.230986 0.561665 0.135740
O2_4 O 0.3749(6) 0.7691(2) 0.66769(19)
C1_4 C 0.4536(8) 0.7305(3) 0.6776(3)
C2_3 C 0.5999(8) 0.7334(3) 0.7093(3)
C3_3 C 0.6986(8) 0.6910(3) 0.7149(3)
H1_3 H 0.665657 0.659930 0.700716
C4_3 C 0.8457(8) 0.6942(3) 0.7413(3)
H2_3 H 0.910087 0.665090 0.745231
C5_3 C 0.8982(8) 0.7391(2) 0.7617(2)
C6_3 C 0.7961(8) 0.7803(3) 0.7564(2)
H3_3 H 0.827374 0.811264 0.771238
C7_3 C 0.6506(8) 0.7778(3) 0.7305(3)
H4_3 H 0.585575 0.806906 0.727294
C11_3 C 0.9828(9) 0.7895(2) 0.8881(3)
H11_3 H 0.970787 0.818553 0.867684
C12_3 C 0.9330(8) 0.7914(3) 0.9383(3)
H12_3 H 0.887318 0.821117 0.951879
C13_3 C 0.9516(8) 0.7485(3) 0.9687(3)
Si1_2 Si 0.5967(2) 0.24451(7) 0.79670(7)
C2_4 C 0.0999(8) 0.2334(3) 0.7093(3)
C3_4 C 0.1986(8) 0.1910(3) 0.7149(3)
H1_4 H 0.165657 0.159930 0.700716
C4_4 C 0.3457(8) 0.1942(3) 0.7413(3)
H2_4 H 0.410087 0.165090 0.745231
C5_4 C 0.3982(8) 0.2391(2) 0.7617(2)
C6_4 C 0.2961(8) 0.2803(3) 0.7564(2)
H3_4 H 0.327374 0.311264 0.771238
C7_4 C 0.1506(8) 0.2778(3) 0.7305(3)
H4_4 H 0.085575 0.306906 0.727294
C8_2 C 0.6950(8) 0.3038(3) 0.7771(3)
H5_2 H 0.794247 0.308560 0.796815
H6_2 H 0.720944 0.302343 0.740858
H7_2 H 0.621724 0.331904 0.783431
C9_2 C 0.7231(9) 0.1878(3) 0.7816(3)
H8_2 H 0.675682 0.158168 0.797676
H9_2 H 0.726574 0.182897 0.744693
H10_2 H 0.832706 0.192781 0.794551
C10_2 C 0.5506(7) 0.2461(2) 0.8659(2)
C11_4 C 0.4828(9) 0.2895(2) 0.8881(3)
H11_4 H 0.470787 0.318553 0.867684
C12_4 C 0.4330(8) 0.2914(3) 0.9383(3)
H12_4 H 0.387318 0.321117 0.951879
C13_4 C 0.4516(8) 0.2485(3) 0.9687(3)
C14_2 C 0.5231(9) 0.2058(3) 0.9481(3)
H13_2 H 0.538346 0.176949 0.968635
C15_2 C 0.5721(9) 0.2053(3) 0.8977(3)
H14_2 H 0.622022 0.176059 0.884558
H21_3 H 0.106346 0.119025 0.003842
Si1_3 Si 0.0967(2) 0.25549(7) 0.29670(7)
Si2_3 Si 0.0888(3) 0.13532(8) 0.91580(10)
C8_3 C 0.1950(8) 0.1962(3) 0.2771(3)
H5_3 H 0.294247 0.191440 0.296815
H6_3 H 0.220944 0.197657 0.240858
H7_3 H 0.121724 0.168096 0.283431
C9_3 C 0.2231(9) 0.3122(3) 0.2816(3)
H8_3 H 0.175682 0.341832 0.297676
H9_3 H 0.226574 0.317103 0.244693
H10_3 H 0.332706 0.307219 0.294551
C10_3 C 0.0506(7) 0.2539(2) 0.3659(2)
C14_3 C 0.0231(9) 0.2942(3) 0.4481(3)
H13_3 H 0.038346 0.323051 0.468635
C15_3 C 0.0721(9) 0.2947(3) 0.3977(3)
H14_3 H 0.122022 0.323941 0.384558
C19_3 C 0.0385(9) 0.2832(3) 0.8692(3)
H15_3 H 0.066151 0.302464 0.840137
C20_3 C 0.0802(9) 0.2328(3) 0.8714(3)
H16_3 H 0.135169 0.217840 0.843685
C21_3 C 0.0425(9) 0.2041(3) 0.9137(3)
C24_3 C 0.1861(11) 0.1180(4) 0.9765(4)
H19_3 H 0.273257 0.141626 0.983960
H20_3 H 0.230420 0.084079 0.973796
C25_3 C 0.2128(11) 0.1171(3) 0.8593(4)
H22_3 H 0.316935 0.134324 0.860788
H23_3 H 0.155959 0.126673 0.828104
H24_3 H 0.230192 0.080839 0.859549
Si2_4 Si 0.0888(3) 0.86468(8) 0.41580(10)
C19_4 C 0.0385(9) 0.7168(3) 0.3692(3)
H15_4 H 0.066151 0.697536 0.340137
C20_4 C 0.0802(9) 0.7672(3) 0.3714(3)
H16_4 H 0.135169 0.782160 0.343685
C21_4 C 0.0425(9) 0.7959(3) 0.4137(3)
C24_4 C 0.1861(11) 0.8820(4) 0.4765(4)
H19_4 H 0.273257 0.858374 0.483960
H20_4 H 0.230420 0.915921 0.473796
H21_4 H 0.106346 0.880975 0.503842
C25_4 C 0.2128(11) 0.8829(3) 0.3593(4)
H22_4 H 0.316935 0.865676 0.360788
H23_4 H 0.155959 0.873327 0.328104
H24_4 H 0.230192 0.919161 0.359549
Si1_4 Si 0.0967(2) 0.74451(7) 0.79670(7)
C8_4 C 0.1950(8) 0.8038(3) 0.7771(3)
H5_4 H 0.294247 0.808560 0.796815
H6_4 H 0.220944 0.802343 0.740858
H7_4 H 0.121724 0.831904 0.783431
C9_4 C 0.2231(9) 0.6878(3) 0.7816(3)
H8_4 H 0.175682 0.658168 0.797676
H9_4 H 0.226574 0.682897 0.744693
H10_4 H 0.332706 0.692781 0.794551
C10_4 C 0.0506(7) 0.7461(2) 0.8659(2)
C14_4 C 0.0231(9) 0.7058(3) 0.9481(3)
H13_4 H 0.038346 0.676949 0.968635
C15_4 C 0.0721(9) 0.7053(3) 0.8977(3)
H14_4 H 0.122022 0.676059 0.884558
loop_
_geom_bond_atom_site_label_1
_geom_bond_atom_site_label_2
_geom_bond_site_symmetry_1
_geom_bond_site_symmetry_2
N4 C55 1_555 1_555
C53 C52 1_555 1_555
H47 C53 1_555 1_555
C54 C53 1_555 1_555
H48 C54 1_555 1_555
C55 C54 1_555 1_555
H49 C55 1_555 1_555
C56 N4 1_555 1_555
Zn3 N4 1_555 1_555
C52 C56 1_555 1_555
Zn1 O5 1_555 1_555
Zn2 O3 1_555 1_555
Si1 C5 1_555 1_555
Si2 C21 1_555 1_555
O3 C16 1_555 1_555
O4 C16 1_555 1_555
O5 C17 1_555 1_555
O6 C17 1_555 1_555
O12 C46 1_555 1_555
N2 Zn2 1_555 1_555
N3 Zn1 1_555 1_555
C2 C3 1_555 1_555
C3 H1 1_555 1_555
C4 C3 1_555 1_555
H2 C4 1_555 1_555
C5 C4 1_555 1_555
C6 C5 1_555 1_555
H3 C6 1_555 1_555
C7 C2 1_555 1_555
H4 C7 1_555 1_555
C8 Si1 1_555 1_555
H5 C8 1_555 1_555
H6 C8 1_555 1_555
H7 C8 1_555 1_555
C9 Si1 1_555 1_555
H8 C9 1_555 1_555
H9 C9 1_555 1_555
H10 C9 1_555 1_555
C10 Si1 1_555 1_555
C11 C10 1_555 1_555
H11 C11 1_555 1_555
C12 C11 1_555 1_555
H12 C12 1_555 1_555
C13 C12 1_555 1_555
C14 C13 1_555 1_555
H13 C14 1_555 1_555
C15 C10 1_555 1_555
H14 C15 1_555 1_555
C16 C13 1_555 1_555
C17 C18 1_555 1_555
C18 C19 1_555 1_555
C19 H15 1_555 1_555
C20 C19 1_555 1_555
H16 C20 1_555 1_555
C21 C20 1_555 1_555
C22 C21 1_555 1_555
H17 C22 1_555 1_555
C23 C18 1_555 1_555
H18 C23 1_555 1_555
C24 Si2 1_555 1_555
H19 C24 1_555 1_555
H20 C24 1_555 1_555
C25 Si2 1_555 1_555
H22 C25 1_555 1_555
H23 C25 1_555 1_555
H24 C25 1_555 1_555
C26 Si2 1_555 1_555
C27 C26 1_555 1_555
H25 C27 1_555 1_555
C28 C27 1_555 1_555
H26 C28 1_555 1_555
C29 C28 1_555 1_555
C30 C29 1_555 1_555
H27 C30 1_555 1_555
C31 C26 1_555 1_555
H28 C31 1_555 1_555
C42 N2 1_555 1_555
H36 C42 1_555 1_555
H37 C43 1_555 1_555
H38 C43 1_555 1_555
H42 C46 1_555 1_555
C51 N3 1_555 1_555
H46 C51 1_555 1_555
O13 Zn2 1_555 1_555
O14_2 Zn1 1_555 1_555
N5 Zn2 1_555 1_555
C6 C7 1_555 1_555
C14 C15 1_555 1_555
C22 C23 1_555 1_555
C30 C31 1_555 1_555
O10 C34 1_555 1_555
N1 C33 1_555 1_555
C33 H29 1_555 1_555
C34 C33 1_555 1_555
C35 C34 1_555 1_555
C36 C35 1_555 1_555
H31 C36 1_555 1_555
C37 N1 1_555 1_555
H32 C37 1_555 1_555
Zn5 N1 1_555 1_555
C36 C37 1_555 1_555
O1 C1 1_555 1_555
O2 C1 1_555 1_555
O7 C32 1_555 1_555
O8 C32 1_555 1_555
O9 C41 1_555 1_555
O11 C45 1_555 1_555
H33 C38 1_555 1_555
C39 C38 1_555 1_555
H34 C39 1_555 1_555
C40 C39 1_555 1_555
H35 C40 1_555 1_555
C41 C40 1_555 1_555
C45 C44 1_555 1_555
H39 C45 1_555 1_555
H40 C45 1_555 1_555
C47 O11 1_555 1_555
C48 C47 1_555 1_555
H43 C48 1_555 1_555
C49 C48 1_555 1_555
H44 C49 1_555 1_555
H45 C50 1_555 1_555
H51 C57 1_555 1_555
H52 C57 1_555 1_555
Zn4 O7 1_555 1_555
Zn6 O1 1_555 1_555
C44 C57 1_555 1_555
C49 C50 1_555 1_555
Zn3 O5_2 1_555 1_555
Zn2_2 O3_2 1_555 1_555
Si2_2 C21_2 1_555 1_555
O3_2 C16_2 1_555 1_555
O4_2 C16_2 1_555 1_555
O5_2 C17_2 1_555 1_555
O6_2 C17_2 1_555 1_555
O12_2 C46_2 1_555 1_555
N2_2 Zn2_2 1_555 1_555
N3_2 Zn3 1_555 1_555
C17_2 C18_2 1_555 1_555
C18_2 C19_2 1_555 1_555
C19_2 H15_2 1_555 1_555
C20_2 C19_2 1_555 1_555
H16_2 C20_2 1_555 1_555
C21_2 C20_2 1_555 1_555
C22_2 C21_2 1_555 1_555
H17_2 C22_2 1_555 1_555
C23_2 C18_2 1_555 1_555
H18_2 C23_2 1_555 1_555
C24_2 Si2_2 1_555 1_555
H19_2 C24_2 1_555 1_555
H20_2 C24_2 1_555 1_555
H21_2 C24_2 1_555 1_555
C25_2 Si2_2 1_555 1_555
H22_2 C25_2 1_555 1_555
H23_2 C25_2 1_555 1_555
H24_2 C25_2 1_555 1_555
C26_2 Si2_2 1_555 1_555
C27_2 C26_2 1_555 1_555
H25_2 C27_2 1_555 1_555
C28_2 C27_2 1_555 1_555
H26_2 C28_2 1_555 1_555
C29_2 C28_2 1_555 1_555
C30_2 C29_2 1_555 1_555
H27_2 C30_2 1_555 1_555
C31_2 C26_2 1_555 1_555
H28_2 C31_2 1_555 1_555
C42_2 N2_2 1_555 1_555
H36_2 C42_2 1_555 1_555
H37_2 C43_2 1_555 1_555
H38_2 C43_2 1_555 1_555
H42_2 C46_2 1_555 1_555
C51_2 N3_2 1_555 1_555
H46_2 C51_2 1_555 1_555
O13_2 Zn2_2 1_555 1_555
O14_3 Zn3 1_555 1_555
N5_2 Zn2_2 1_555 1_555
C22_2 C23_2 1_555 1_555
C30_2 C31_2 1_555 1_555
N6 C55_2 1_555 1_555
C53_2 C52_2 1_555 1_555
H47_2 C53_2 1_555 1_555
C54_2 C53_2 1_555 1_555
H48_2 C54_2 1_555 1_555
C55_2 C54_2 1_555 1_555
H49_2 C55_2 1_555 1_555
C56_2 N6 1_555 1_555
C52_2 C56_2 1_555 1_555
O7_2 C32_2 1_555 1_555
O8_2 C32_2 1_555 1_555
O9_2 C41_2 1_555 1_555
O11_2 C45_2 1_555 1_555
H33_2 C38_2 1_555 1_555
C39_2 C38_2 1_555 1_555
H34_2 C39_2 1_555 1_555
C40_2 C39_2 1_555 1_555
H35_2 C40_2 1_555 1_555
C41_2 C40_2 1_555 1_555
C45_2 C44_2 1_555 1_555
H39_2 C45_2 1_555 1_555
H40_2 C45_2 1_555 1_555
C47_2 O11_2 1_555 1_555
C48_2 C47_2 1_555 1_555
H43_2 C48_2 1_555 1_555
C49_2 C48_2 1_555 1_555
H44_2 C49_2 1_555 1_555
H45_2 C50_2 1_555 1_555
H51_2 C57_2 1_555 1_555
H52_2 C57_2 1_555 1_555
Zn4_2 O7_2 1_555 1_555
C44_2 C57_2 1_555 1_555
C49_2 C50_2 1_555 1_555
O1_2 C1_2 1_555 1_555
O2_2 C1_2 1_555 1_555
Zn5 O1_2 1_555 1_555
O10_2 C34_2 1_555 1_555
N1_2 C33_2 1_555 1_555
C33_2 H29_2 1_555 1_555
C34_2 C33_2 1_555 1_555
C35_2 C34_2 1_555 1_555
C36_2 C35_2 1_555 1_555
H31_2 C36_2 1_555 1_555
C37_2 N1_2 1_555 1_555
H32_2 C37_2 1_555 1_555
Zn6 N1_2 1_555 1_555
C36_2 C37_2 1_555 1_555
Zn4 O5_3 1_555 1_555
Zn5 O3_3 1_555 1_555
O13_2 C1_3 1_555 1_555
O2_3 C1_3 1_555 1_555
O3_3 C16_3 1_555 1_555
O4_3 C16_3 1_555 1_555
O5_3 C17_3 1_555 1_555
O6_3 C17_3 1_555 1_555
O14 C32_3 1_555 1_555
O9_3 C41_3 1_555 1_555
O10_3 C34_3 1_555 1_555
O11_3 C45_3 1_555 1_555
O12_3 C46_3 1_555 1_555
N5 C33_3 1_555 1_555
N2_3 Zn5 1_555 1_555
N3_3 Zn4 1_555 1_555
N4_2 C55_3 1_555 1_555
C1_3 C2_2 1_555 1_555
C2_2 C3_2 1_555 1_555
C3_2 H1_2 1_555 1_555
C4_2 C3_2 1_555 1_555
H2_2 C4_2 1_555 1_555
C5_2 C4_2 1_555 1_555
C6_2 C5_2 1_555 1_555
H3_2 C6_2 1_555 1_555
C7_2 C2_2 1_555 1_555
H4_2 C7_2 1_555 1_555
H11_2 C11_2 1_555 1_555
C12_2 C11_2 1_555 1_555
H12_2 C12_2 1_555 1_555
C13_2 C12_2 1_555 1_555
C16_3 C13_2 1_555 1_555
C17_3 C18_3 1_555 1_555
H17_3 C22_3 1_555 1_555
C23_3 C18_3 1_555 1_555
H18_3 C23_3 1_555 1_555
C27_3 C26_3 1_555 1_555
H25_3 C27_3 1_555 1_555
C28_3 C27_3 1_555 1_555
H26_3 C28_3 1_555 1_555
C29_3 C28_3 1_555 1_555
C30_3 C29_3 1_555 1_555
H27_3 C30_3 1_555 1_555
C31_3 C26_3 1_555 1_555
H28_3 C31_3 1_555 1_555
C32_3 C29_3 1_555 1_555
C33_3 H29_3 1_555 1_555
C34_3 C33_3 1_555 1_555
C35_3 C34_3 1_555 1_555
H30_3 C35_3 1_555 1_555
C36_3 C35_3 1_555 1_555
H31_3 C36_3 1_555 1_555
C37_3 N5 1_555 1_555
H32_3 C37_3 1_555 1_555
C38_3 N2_3 1_555 1_555
H33_3 C38_3 1_555 1_555
C39_3 C38_3 1_555 1_555
H34_3 C39_3 1_555 1_555
C40_3 C39_3 1_555 1_555
H35_3 C40_3 1_555 1_555
C41_3 C40_3 1_555 1_555
C42_3 N2_3 1_555 1_555
H36_3 C42_3 1_555 1_555
C43_3 O9_3 1_555 1_555
H37_3 C43_3 1_555 1_555
H38_3 C43_3 1_555 1_555
C44_3 C43_3 1_555 1_555
C45_3 C44_3 1_555 1_555
H39_3 C45_3 1_555 1_555
H40_3 C45_3 1_555 1_555
C46_3 C44_3 1_555 1_555
H41_3 C46_3 1_555 1_555
H42_3 C46_3 1_555 1_555
C47_3 O11_3 1_555 1_555
C48_3 C47_3 1_555 1_555
H43_3 C48_3 1_555 1_555
C49_3 C48_3 1_555 1_555
H44_3 C49_3 1_555 1_555
C50_3 N3_3 1_555 1_555
H45_3 C50_3 1_555 1_555
C51_3 N3_3 1_555 1_555
H46_3 C51_3 1_555 1_555
C52_3 O12_3 1_555 1_555
C53_3 C52_3 1_555 1_555
H47_3 C53_3 1_555 1_555
C54_3 C53_3 1_555 1_555
H48_3 C54_3 1_555 1_555
C55_3 C54_3 1_555 1_555
H49_3 C55_3 1_555 1_555
C56_3 N4_2 1_555 1_555
H50_3 C56_3 1_555 1_555
C57_3 O10_3 1_555 1_555
H51_3 C57_3 1_555 1_555
H52_3 C57_3 1_555 1_555
Zn4_2 N4_2 1_555 1_555
C6_2 C7_2 1_555 1_555
C22_3 C23_3 1_555 1_555
C30_3 C31_3 1_555 1_555
C36_3 C37_3 1_555 1_555
C41_3 C42_3 1_555 1_555
C44_3 C57_3 1_555 1_555
C47_3 C51_3 1_555 1_555
C49_3 C50_3 1_555 1_555
C52_3 C56_3 1_555 1_555
Zn4_2 O5_4 1_555 1_555
Zn6 O3_4 1_555 1_555
O3_4 C16_4 1_555 1_555
O4_4 C16_4 1_555 1_555
O5_4 C17_4 1_555 1_555
O6_4 C17_4 1_555 1_555
O14_4 C32_4 1_555 1_555
O9_4 C41_4 1_555 1_555
O10_4 C34_4 1_555 1_555
O11_4 C45_4 1_555 1_555
O12_4 C46_4 1_555 1_555
N5_2 C33_4 1_555 1_555
N2_4 Zn6 1_555 1_555
N3_4 Zn4_2 1_555 1_555
N6_2 C55_4 1_555 1_555
C17_4 C18_4 1_555 1_555
H17_4 C22_4 1_555 1_555
C23_4 C18_4 1_555 1_555
H18_4 C23_4 1_555 1_555
C27_4 C26_4 1_555 1_555
H25_4 C27_4 1_555 1_555
C28_4 C27_4 1_555 1_555
H26_4 C28_4 1_555 1_555
C29_4 C28_4 1_555 1_555
C30_4 C29_4 1_555 1_555
H27_4 C30_4 1_555 1_555
C31_4 C26_4 1_555 1_555
H28_4 C31_4 1_555 1_555
C32_4 C29_4 1_555 1_555
C33_4 H29_4 1_555 1_555
C34_4 C33_4 1_555 1_555
C35_4 C34_4 1_555 1_555
H30_4 C35_4 1_555 1_555
C36_4 C35_4 1_555 1_555
H31_4 C36_4 1_555 1_555
C37_4 N5_2 1_555 1_555
H32_4 C37_4 1_555 1_555
C38_4 N2_4 1_555 1_555
H33_4 C38_4 1_555 1_555
C39_4 C38_4 1_555 1_555
H34_4 C39_4 1_555 1_555
C40_4 C39_4 1_555 1_555
H35_4 C40_4 1_555 1_555
C41_4 C40_4 1_555 1_555
C42_4 N2_4 1_555 1_555
H36_4 C42_4 1_555 1_555
C43_4 O9_4 1_555 1_555
H37_4 C43_4 1_555 1_555
H38_4 C43_4 1_555 1_555
C44_4 C43_4 1_555 1_555
C45_4 C44_4 1_555 1_555
H39_4 C45_4 1_555 1_555
H40_4 C45_4 1_555 1_555
C46_4 C44_4 1_555 1_555
H41_4 C46_4 1_555 1_555
H42_4 C46_4 1_555 1_555
C47_4 O11_4 1_555 1_555
C48_4 C47_4 1_555 1_555
H43_4 C48_4 1_555 1_555
C49_4 C48_4 1_555 1_555
H44_4 C49_4 1_555 1_555
C50_4 N3_4 1_555 1_555
H45_4 C50_4 1_555 1_555
C51_4 N3_4 1_555 1_555
H46_4 C51_4 1_555 1_555
C52_4 O12_4 1_555 1_555
C53_4 C52_4 1_555 1_555
H47_4 C53_4 1_555 1_555
C54_4 C53_4 1_555 1_555
H48_4 C54_4 1_555 1_555
C55_4 C54_4 1_555 1_555
H49_4 C55_4 1_555 1_555
C56_4 N6_2 1_555 1_555
H50_4 C56_4 1_555 1_555
C57_4 O10_4 1_555 1_555
H51_4 C57_4 1_555 1_555
H52_4 C57_4 1_555 1_555
C22_4 C23_4 1_555 1_555
C30_4 C31_4 1_555 1_555
C36_4 C37_4 1_555 1_555
C41_4 C42_4 1_555 1_555
C44_4 C57_4 1_555 1_555
C47_4 C51_4 1_555 1_555
C49_4 C50_4 1_555 1_555
C52_4 C56_4 1_555 1_555
O13 C1_4 1_555 1_555
O2_4 C1_4 1_555 1_555
C1_4 C2_3 1_555 1_555
C2_3 C3_3 1_555 1_555
C3_3 H1_3 1_555 1_555
C4_3 C3_3 1_555 1_555
H2_3 C4_3 1_555 1_555
C5_3 C4_3 1_555 1_555
C6_3 C5_3 1_555 1_555
H3_3 C6_3 1_555 1_555
C7_3 C2_3 1_555 1_555
H4_3 C7_3 1_555 1_555
H11_3 C11_3 1_555 1_555
C12_3 C11_3 1_555 1_555
H12_3 C12_3 1_555 1_555
C13_3 C12_3 1_555 1_555
C6_3 C7_3 1_555 1_555
Si1_2 C5_4 1_555 1_555
C2_4 C3_4 1_555 1_555
C3_4 H1_4 1_555 1_555
C4_4 C3_4 1_555 1_555
H2_4 C4_4 1_555 1_555
C5_4 C4_4 1_555 1_555
C6_4 C5_4 1_555 1_555
H3_4 C6_4 1_555 1_555
C7_4 C2_4 1_555 1_555
H4_4 C7_4 1_555 1_555
C8_2 Si1_2 1_555 1_555
H5_2 C8_2 1_555 1_555
H6_2 C8_2 1_555 1_555
H7_2 C8_2 1_555 1_555
C9_2 Si1_2 1_555 1_555
H8_2 C9_2 1_555 1_555
H9_2 C9_2 1_555 1_555
H10_2 C9_2 1_555 1_555
C10_2 Si1_2 1_555 1_555
C11_4 C10_2 1_555 1_555
H11_4 C11_4 1_555 1_555
C12_4 C11_4 1_555 1_555
H12_4 C12_4 1_555 1_555
C13_4 C12_4 1_555 1_555
C14_2 C13_4 1_555 1_555
H13_2 C14_2 1_555 1_555
C15_2 C10_2 1_555 1_555
H14_2 C15_2 1_555 1_555
C6_4 C7_4 1_555 1_555
C14_2 C15_2 1_555 1_555
Si2_3 C21_3 1_555 1_555
C8_3 Si1_3 1_555 1_555
H5_3 C8_3 1_555 1_555
H6_3 C8_3 1_555 1_555
H7_3 C8_3 1_555 1_555
C9_3 Si1_3 1_555 1_555
H8_3 C9_3 1_555 1_555
H9_3 C9_3 1_555 1_555
H10_3 C9_3 1_555 1_555
C10_3 Si1_3 1_555 1_555
H13_3 C14_3 1_555 1_555
C15_3 C10_3 1_555 1_555
H14_3 C15_3 1_555 1_555
C19_3 H15_3 1_555 1_555
C20_3 C19_3 1_555 1_555
H16_3 C20_3 1_555 1_555
C21_3 C20_3 1_555 1_555
C24_3 Si2_3 1_555 1_555
H19_3 C24_3 1_555 1_555
H20_3 C24_3 1_555 1_555
C25_3 Si2_3 1_555 1_555
H22_3 C25_3 1_555 1_555
H23_3 C25_3 1_555 1_555
H24_3 C25_3 1_555 1_555
C14_3 C15_3 1_555 1_555
Si2_4 C21_4 1_555 1_555
C19_4 H15_4 1_555 1_555
C20_4 C19_4 1_555 1_555
H16_4 C20_4 1_555 1_555
C21_4 C20_4 1_555 1_555
C24_4 Si2_4 1_555 1_555
H19_4 C24_4 1_555 1_555
H20_4 C24_4 1_555 1_555
H21_4 C24_4 1_555 1_555
C25_4 Si2_4 1_555 1_555
H22_4 C25_4 1_555 1_555
H23_4 C25_4 1_555 1_555
H24_4 C25_4 1_555 1_555
C8_4 Si1_4 1_555 1_555
H5_4 C8_4 1_555 1_555
H6_4 C8_4 1_555 1_555
H7_4 C8_4 1_555 1_555
C9_4 Si1_4 1_555 1_555
H8_4 C9_4 1_555 1_555
H9_4 C9_4 1_555 1_555
H10_4 C9_4 1_555 1_555
C10_4 Si1_4 1_555 1_555
H13_4 C14_4 1_555 1_555
C15_4 C10_4 1_555 1_555
H14_4 C15_4 1_555 1_555
C14_4 C15_4 1_555 1_555

#END
