
###############################################################################
#
# This file contains modified crystal structure data generated from the
# MOF subset of the Cambridge Structural Database (CSD) v543 
# hosted by the Cambridge Crystallographic Data Centre (CCDC).
#
# This work is licensed under the Creative Commons
# Attribution-NonCommercial-ShareAlike 4.0 International License.
# To view a copy of this license, visit
# http://creativecommons.org/licenses/by-nc-sa/4.0/
# or send a letter to
# Creative Commons, PO Box 1866, Mountain View, CA 94042, USA.
#
# CIF created using the CSD Python API on 29 September 2022
# The structure has been converted into the P1 space group
# The structure has a 3D framework
# The original CSD entry LUGFOL is in the tetragonal crystal system
# The framework has been calculated to contain at least 10.0% void space
# The void calculation uses a probe of radius 1.32A, grid spacing 0.4
#
###############################################################################

data_LUGFOL
_chemical_formula_moiety         '(C432 H304 N96 O242 Zn56)n'
_symmetry_cell_setting           triclinic
_symmetry_space_group_name_H-M   'P 1'
_symmetry_Int_Tables_number      1
_space_group_name_Hall           'P 1'
loop_
_symmetry_equiv_pos_site_id
_symmetry_equiv_pos_as_xyz
1 x,y,z
_cell_length_a                   26.9933(2)
_cell_length_b                   26.9933(2)
_cell_length_c                   38.4456(7)
_cell_angle_alpha                90
_cell_angle_beta                 90
_cell_angle_gamma                90
_cell_volume                     28012.9
loop_
_atom_site_label
_atom_site_type_symbol
_atom_site_fract_x
_atom_site_fract_y
_atom_site_fract_z
Zn3 Zn 0.832379(10) 0.120954(10) 0.144979(8)
Zn4 Zn 0.768893(10) 0.165732(10) 0.199671(8)
C1 C 0.71956(10) 0.12133(11) 0.14069(8)
C2 C 0.67560(10) 0.10501(11) 0.11981(8)
C3 C 0.62884(10) 0.12298(12) 0.12756(9)
H1 H 0.6251 0.1467 0.1449
C4 C 0.58760(11) 0.10596(13) 0.10860(9)
C5 C 0.59495(11) 0.07122(13) 0.08278(8)
H2 H 0.5678 0.0596 0.0703
C6 C 0.64170(10) 0.05342(11) 0.07474(8)
C7 C 0.64769(11) 0.01489(11) 0.04722(8)
C8 C 0.68259(10) 0.07093(11) 0.09302(8)
H3 H 0.7142 0.0594 0.0879
C9 C 0.52012(11) 0.15766(16) 0.13452(10)
C10 C 0.45161(11) 0.19733(16) 0.15252(10)
C11 C 0.52431(12) 0.21232(16) 0.17799(10)
C12 C 0.52797(10) 0.31469(11) 0.29271(8)
H4 H 0.5229 0.3324 0.3132
C13 C 0.48800(10) 0.29296(11) 0.27598(8)
C14 C 0.54222(11) 0.26445(15) 0.23107(9)
C15 C 0.58133(11) 0.28547(14) 0.24790(9)
H5 H 0.6130 0.2826 0.2385
C16 C 0.57491(10) 0.31142(12) 0.27863(8)
C17 C 0.49456(11) 0.26688(14) 0.24546(9)
H6 H 0.4680 0.2509 0.2348
C18 C 0.61907(11) 0.33205(11) 0.29715(8)
C19 C 0.43783(10) 0.29466(11) 0.29291(8)
C20 C 0.36420(11) 0.18964(14) 0.13037(9)
C21 C 0.37094(11) 0.16326(13) 0.09994(9)
H7 H 0.4027 0.1573 0.0915
C22 C 0.28245(11) 0.15488(11) 0.09402(8)
H8 H 0.2552 0.1424 0.0821
C23 C 0.32958(10) 0.14581(11) 0.08191(8)
C24 C 0.27558(10) 0.18192(12) 0.12428(8)
C25 C 0.31689(11) 0.19918(14) 0.14246(9)
H9 H 0.3125 0.2176 0.1627
C26 C 0.33616(11) 0.11484(11) 0.04990(7)
C27 C 0.22506(10) 0.19047(11) 0.13932(8)
N1 N 0.54901(9) 0.18156(15) 0.15691(9)
N2 N 0.47033(9) 0.16475(12) 0.13031(8)
N3 N 0.47623(9) 0.22194(13) 0.17743(8)
N4 N 0.55395(10) 0.23532(16) 0.20172(9)
H10 H 0.5851 0.2333 0.1972
N5 N 0.53887(9) 0.12300(13) 0.11291(8)
H11 H 0.5178 0.1103 0.0987
N6 N 0.40283(9) 0.20917(14) 0.15096(8)
H12 H 0.3940 0.2328 0.1646
O1 O 0.76147(7) 0.10897(9) 0.12930(7)
O2 O 0.71222(7) 0.14555(8) 0.16783(6)
O3 O 0.69068(8) 0.00646(9) 0.03670(6)
O5 O 0.37897(8) 0.10896(9) 0.03818(6)
O6 O 0.29805(8) 0.09663(9) 0.03684(6)
O7 O 0.18915(7) 0.17056(9) 0.12364(6)
O8 O 0.22219(8) 0.21599(9) 0.16604(6)
O11 O 0.86231(10) 0.07648(10) 0.11000(6)
H17 H 0.8499 0.0481 0.1062
H18 H 0.8878 0.0859 0.0988
O12 O 0.73327(11) 0.20384(11) 0.23576(9)
H19 H 0.7436 0.2324 0.2417
H20 H 0.7076 0.1917 0.2453
O13 O 0.66024(7) 0.32605(9) 0.28306(6)
O14 O 0.61117(8) 0.35384(9) 0.32558(6)
O15 O 0.43395(8) 0.32130(9) 0.31943(6)
O16 O 0.40369(7) 0.26961(8) 0.27953(6)
O20 O 0.39034(8) 0.00589(8) 0.03648(6)
Zn7 Zn 0.397576(14) 0.060607(16) 0.0000
Zn8 Zn 0.289248(14) 0.043890(16) 0.0000
Zn10 Zn 0.120954(10) 0.167621(10) 0.144979(8)
Zn11 Zn 0.667621(10) 0.379046(10) 0.355021(8)
Zn14 Zn 0.379046(10) 0.332379(10) 0.355021(8)
Zn16 Zn 0.165732(10) 0.231107(10) 0.199671(8)
Zn17 Zn 0.731107(10) 0.334268(10) 0.300329(8)
Zn20 Zn 0.334268(10) 0.268893(10) 0.300329(8)
O35 O 0.82944(9) 0.18915(7) 0.12364(6)
O37 O 0.78401(9) 0.22219(8) 0.16604(6)
O39 O 0.83976(7) 0.17395(9) 0.21694(6)
O41 O 0.88883(8) 0.14616(9) 0.17442(6)
O43 O 0.82130(9) 0.06605(8) 0.18057(6)
O45 O 0.76961(8) 0.09631(7) 0.22047(6)
Zn7_2 Zn 0.397576(14) 0.060607(16) 1.0000
Zn8_2 Zn 0.289248(14) 0.043890(16) 1.0000
O31 O 0.69068(8) 0.00646(9) 0.96330(6)
Zn1 Zn 0.602424(14) 0.939393(16) 0.0000
Zn2 Zn 0.710752(14) 0.956110(16) 0.0000
O4 O 0.60966(8) 0.99411(8) 0.03648(6)
O9 O 0.53012(12) 0.9341(2) 0.0000
H13 H 0.5125 0.9602 0.0000
H14 H 0.5164 0.9058 0.0000
O10 O 0.78298(12) 0.96286(16) 0.0000
H15 H 0.8013 0.9372 0.0000
H16 H 0.7960 0.9915 0.0000
Zn5 Zn 0.167621(10) 0.879046(10) 0.144979(8)
Zn6 Zn 0.231107(10) 0.834268(10) 0.199671(8)
C28 C 0.28044(10) 0.87867(11) 0.14069(8)
C29 C 0.32440(10) 0.89499(11) 0.11981(8)
C30 C 0.37116(10) 0.87702(12) 0.12756(9)
H21 H 0.3749 0.8533 0.1449
C31 C 0.41240(11) 0.89404(13) 0.10860(9)
C32 C 0.40505(11) 0.92878(13) 0.08278(8)
H22 H 0.4322 0.9404 0.0703
C33 C 0.35830(10) 0.94658(11) 0.07474(8)
C34 C 0.35231(11) 0.98511(11) 0.04722(8)
C35 C 0.31741(10) 0.92907(11) 0.09302(8)
H23 H 0.2858 0.9406 0.0879
C36 C 0.47988(11) 0.84234(16) 0.13452(10)
C37 C 0.54839(11) 0.80267(16) 0.15252(10)
C38 C 0.47569(12) 0.78768(16) 0.17799(10)
C39 C 0.47203(10) 0.68531(11) 0.29271(8)
H24 H 0.4771 0.6676 0.3132
C40 C 0.51200(10) 0.70704(11) 0.27598(8)
C41 C 0.45778(11) 0.73555(15) 0.23107(9)
C42 C 0.41867(11) 0.71453(14) 0.24790(9)
H25 H 0.3870 0.7174 0.2385
C43 C 0.42509(10) 0.68858(12) 0.27863(8)
C44 C 0.50544(11) 0.73312(14) 0.24546(9)
H26 H 0.5320 0.7491 0.2348
C45 C 0.38093(11) 0.66795(11) 0.29715(8)
C46 C 0.56217(10) 0.70534(11) 0.29291(8)
C47 C 0.63580(11) 0.81036(14) 0.13037(9)
C48 C 0.62906(11) 0.83674(13) 0.09994(9)
H27 H 0.5973 0.8427 0.0915
C49 C 0.71755(11) 0.84512(11) 0.09402(8)
H28 H 0.7448 0.8576 0.0821
C50 C 0.67042(10) 0.85419(11) 0.08191(8)
C51 C 0.72442(10) 0.81808(12) 0.12428(8)
C52 C 0.68311(11) 0.80082(14) 0.14246(9)
H29 H 0.6875 0.7824 0.1627
C53 C 0.66384(11) 0.88516(11) 0.04990(7)
C54 C 0.77494(10) 0.80953(11) 0.13932(8)
N7 N 0.45099(9) 0.81844(15) 0.15691(9)
N8 N 0.52967(9) 0.83525(12) 0.13031(8)
N9 N 0.52377(9) 0.77806(13) 0.17743(8)
N10 N 0.44605(10) 0.76468(16) 0.20172(9)
H30 H 0.4149 0.7667 0.1972
N11 N 0.46113(9) 0.87700(13) 0.11291(8)
H31 H 0.4822 0.8897 0.0987
N12 N 0.59717(9) 0.79083(14) 0.15096(8)
H32 H 0.6060 0.7672 0.1646
O17 O 0.23853(7) 0.89103(9) 0.12930(7)
O18 O 0.28778(7) 0.85445(8) 0.16783(6)
O19 O 0.30932(8) 0.99354(9) 0.03670(6)
O21 O 0.62103(8) 0.89104(9) 0.03818(6)
O22 O 0.70195(8) 0.90337(9) 0.03684(6)
O23 O 0.81085(7) 0.82944(9) 0.12364(6)
O24 O 0.77781(8) 0.78401(9) 0.16604(6)
O25 O 0.13769(10) 0.92352(10) 0.11000(6)
H33 H 0.1501 0.9519 0.1062
H34 H 0.1122 0.9141 0.0988
O26 O 0.26673(11) 0.79616(11) 0.23576(9)
H35 H 0.2564 0.7676 0.2417
H36 H 0.2924 0.8083 0.2453
O27 O 0.33976(7) 0.67395(9) 0.28306(6)
O28 O 0.38883(8) 0.64616(9) 0.32558(6)
O29 O 0.56605(8) 0.67870(9) 0.31943(6)
O30 O 0.59631(7) 0.73039(8) 0.27953(6)
Zn9 Zn 0.879046(10) 0.832379(10) 0.144979(8)
Zn12 Zn 0.332379(10) 0.620954(10) 0.355021(8)
Zn13 Zn 0.620954(10) 0.667621(10) 0.355021(8)
Zn15 Zn 0.834268(10) 0.768893(10) 0.199671(8)
Zn18 Zn 0.268893(10) 0.665732(10) 0.300329(8)
Zn19 Zn 0.665732(10) 0.731107(10) 0.300329(8)
O36 O 0.17056(9) 0.81085(7) 0.12364(6)
O38 O 0.21599(9) 0.77781(8) 0.16604(6)
O40 O 0.16024(7) 0.82605(9) 0.21694(6)
O42 O 0.11117(8) 0.85384(9) 0.17442(6)
O44 O 0.17870(9) 0.93395(8) 0.18057(6)
O46 O 0.23039(8) 0.90369(7) 0.22047(6)
Zn1_2 Zn 0.602424(14) 0.939393(16) 1.0000
Zn2_2 Zn 0.710752(14) 0.956110(16) 1.0000
O9_2 O 0.53012(12) 0.9341(2) 1.0000
H13_2 H 0.5125 0.9602 1.0000
H14_2 H 0.5164 0.9058 1.0000
O10_2 O 0.78298(12) 0.96286(16) 1.0000
H15_2 H 0.8013 0.9372 1.0000
H16_2 H 0.7960 0.9915 1.0000
O32 O 0.60966(8) 0.99411(8) 0.96352(6)
O33 O 0.62103(8) 0.89104(9) 0.96182(6)
O34 O 0.70195(8) 0.90337(9) 0.96316(6)
O9_3 O 0.46988(12) 0.0659(2) 0.0000
H13_3 H 0.4875 0.0398 0.0000
H14_3 H 0.4836 0.0942 0.0000
O10_3 O 0.21702(12) 0.03714(16) 0.0000
H15_3 H 0.1987 0.0628 0.0000
H16_3 H 0.2040 0.0085 0.0000
O9_4 O 0.46988(12) 0.0659(2) 1.0000
H13_4 H 0.4875 0.0398 1.0000
H14_4 H 0.4836 0.0942 1.0000
O10_4 O 0.21702(12) 0.03714(16) 1.0000
H15_4 H 0.1987 0.0628 1.0000
H16_4 H 0.2040 0.0085 1.0000
O32_2 O 0.39034(8) 0.00589(8) 0.96352(6)
O33_2 O 0.37897(8) 0.10896(9) 0.96182(6)
O34_2 O 0.29805(8) 0.09663(9) 0.96316(6)
O31_2 O 0.30932(8) 0.99354(9) 0.96330(6)
Zn1_3 Zn 0.060607(16) 0.602424(14) 0.0000
Zn2_3 Zn 0.043890(16) 0.710752(14) 0.0000
O4_2 O 0.00589(8) 0.60966(8) 0.03648(6)
O9_5 O 0.0659(2) 0.53012(12) 0.0000
H13_5 H 0.0398 0.5125 0.0000
H14_5 H 0.0942 0.5164 0.0000
O10_5 O 0.03714(16) 0.78298(12) 0.0000
H15_5 H 0.0628 0.8013 0.0000
H16_5 H 0.0085 0.7960 0.0000
C28_2 C 0.12133(11) 0.28044(10) 0.14069(8)
C29_2 C 0.10501(11) 0.32440(10) 0.11981(8)
C30_2 C 0.12298(12) 0.37116(10) 0.12756(9)
H21_2 H 0.1467 0.3749 0.1449
C31_2 C 0.10596(13) 0.41240(11) 0.10860(9)
C32_2 C 0.07122(13) 0.40505(11) 0.08278(8)
H22_2 H 0.0596 0.4322 0.0703
C33_2 C 0.05342(11) 0.35830(10) 0.07474(8)
C34_2 C 0.01489(11) 0.35231(11) 0.04722(8)
C35_2 C 0.07093(11) 0.31741(10) 0.09302(8)
H23_2 H 0.0594 0.2858 0.0879
C36_2 C 0.15766(16) 0.47988(11) 0.13452(10)
C37_2 C 0.19733(16) 0.54839(11) 0.15252(10)
C38_2 C 0.21232(16) 0.47569(12) 0.17799(10)
C39_2 C 0.31469(11) 0.47203(10) 0.29271(8)
H24_2 H 0.3324 0.4771 0.3132
C40_2 C 0.29296(11) 0.51200(10) 0.27598(8)
C41_2 C 0.26445(15) 0.45778(11) 0.23107(9)
C42_2 C 0.28547(14) 0.41867(11) 0.24790(9)
H25_2 H 0.2826 0.3870 0.2385
C43_2 C 0.31142(12) 0.42509(10) 0.27863(8)
C44_2 C 0.26688(14) 0.50544(11) 0.24546(9)
H26_2 H 0.2509 0.5320 0.2348
C45_2 C 0.33205(11) 0.38093(11) 0.29715(8)
C46_2 C 0.29466(11) 0.56217(10) 0.29291(8)
C47_2 C 0.18964(14) 0.63580(11) 0.13037(9)
C48_2 C 0.16326(13) 0.62906(11) 0.09994(9)
H27_2 H 0.1573 0.5973 0.0915
C49_2 C 0.15488(11) 0.71755(11) 0.09402(8)
H28_2 H 0.1424 0.7448 0.0821
C50_2 C 0.14581(11) 0.67042(10) 0.08191(8)
C51_2 C 0.18192(12) 0.72442(10) 0.12428(8)
C52_2 C 0.19918(14) 0.68311(11) 0.14246(9)
H29_2 H 0.2176 0.6875 0.1627
C53_2 C 0.11484(11) 0.66384(11) 0.04990(7)
C54_2 C 0.19047(11) 0.77494(10) 0.13932(8)
N7_2 N 0.18156(15) 0.45099(9) 0.15691(9)
N8_2 N 0.16475(12) 0.52967(9) 0.13031(8)
N9_2 N 0.22194(13) 0.52377(9) 0.17743(8)
N10_2 N 0.23532(16) 0.44605(10) 0.20172(9)
H30_2 H 0.2333 0.4149 0.1972
N11_2 N 0.12300(13) 0.46113(9) 0.11291(8)
H31_2 H 0.1103 0.4822 0.0987
N12_2 N 0.20917(14) 0.59717(9) 0.15096(8)
H32_2 H 0.2328 0.6060 0.1646
O17_2 O 0.10897(9) 0.23853(7) 0.12930(7)
O18_2 O 0.14555(8) 0.28778(7) 0.16783(6)
O19_2 O 0.00646(9) 0.30932(8) 0.03670(6)
O21_2 O 0.10896(9) 0.62103(8) 0.03818(6)
O22_2 O 0.09663(9) 0.70195(8) 0.03684(6)
O25_2 O 0.07648(10) 0.13769(10) 0.11000(6)
H33_2 H 0.0481 0.1501 0.1062
H34_2 H 0.0859 0.1122 0.0988
O26_2 O 0.20384(11) 0.26673(11) 0.23576(9)
H35_2 H 0.2324 0.2564 0.2417
H36_2 H 0.1917 0.2924 0.2453
O27_2 O 0.32605(9) 0.33976(7) 0.28306(6)
O28_2 O 0.35384(9) 0.38883(8) 0.32558(6)
O29_2 O 0.32130(9) 0.56605(8) 0.31943(6)
O30_2 O 0.26961(8) 0.59631(7) 0.27953(6)
O40_2 O 0.17395(9) 0.16024(7) 0.21694(6)
O42_2 O 0.14616(9) 0.11117(8) 0.17442(6)
O44_2 O 0.06605(8) 0.17870(9) 0.18057(6)
O46_2 O 0.09631(7) 0.23039(8) 0.22047(6)
Zn1_4 Zn 0.060607(16) 0.602424(14) 1.0000
Zn2_4 Zn 0.043890(16) 0.710752(14) 1.0000
O9_6 O 0.0659(2) 0.53012(12) 1.0000
H13_6 H 0.0398 0.5125 1.0000
H14_6 H 0.0942 0.5164 1.0000
O10_6 O 0.03714(16) 0.78298(12) 1.0000
H15_6 H 0.0628 0.8013 1.0000
H16_6 H 0.0085 0.7960 1.0000
O32_3 O 0.00589(8) 0.60966(8) 0.96352(6)
O33_3 O 0.10896(9) 0.62103(8) 0.96182(6)
O34_3 O 0.09663(9) 0.70195(8) 0.96316(6)
C1_2 C 0.87867(11) 0.71956(10) 0.14069(8)
C2_2 C 0.89499(11) 0.67560(10) 0.11981(8)
C3_2 C 0.87702(12) 0.62884(10) 0.12756(9)
H1_2 H 0.8533 0.6251 0.1449
C4_2 C 0.89404(13) 0.58760(11) 0.10860(9)
C5_2 C 0.92878(13) 0.59495(11) 0.08278(8)
H2_2 H 0.9404 0.5678 0.0703
C6_2 C 0.94658(11) 0.64170(10) 0.07474(8)
C7_2 C 0.98511(11) 0.64769(11) 0.04722(8)
C8_2 C 0.92907(11) 0.68259(10) 0.09302(8)
H3_2 H 0.9406 0.7142 0.0879
C9_2 C 0.84234(16) 0.52012(11) 0.13452(10)
C10_2 C 0.80267(16) 0.45161(11) 0.15252(10)
C11_2 C 0.78768(16) 0.52431(12) 0.17799(10)
C12_2 C 0.68531(11) 0.52797(10) 0.29271(8)
H4_2 H 0.6676 0.5229 0.3132
C13_2 C 0.70704(11) 0.48800(10) 0.27598(8)
C14_2 C 0.73555(15) 0.54222(11) 0.23107(9)
C15_2 C 0.71453(14) 0.58133(11) 0.24790(9)
H5_2 H 0.7174 0.6130 0.2385
C16_2 C 0.68858(12) 0.57491(10) 0.27863(8)
C17_2 C 0.73312(14) 0.49456(11) 0.24546(9)
H6_2 H 0.7491 0.4680 0.2348
C18_2 C 0.66795(11) 0.61907(11) 0.29715(8)
C19_2 C 0.70534(11) 0.43783(10) 0.29291(8)
C20_2 C 0.81036(14) 0.36420(11) 0.13037(9)
C21_2 C 0.83674(13) 0.37094(11) 0.09994(9)
H7_2 H 0.8427 0.4027 0.0915
C22_2 C 0.84512(11) 0.28245(11) 0.09402(8)
H8_2 H 0.8576 0.2552 0.0821
C23_2 C 0.85419(11) 0.32958(10) 0.08191(8)
C24_2 C 0.81808(12) 0.27558(10) 0.12428(8)
C25_2 C 0.80082(14) 0.31689(11) 0.14246(9)
H9_2 H 0.7824 0.3125 0.1627
C26_2 C 0.88516(11) 0.33616(11) 0.04990(7)
C27_2 C 0.80953(11) 0.22506(10) 0.13932(8)
N1_2 N 0.81844(15) 0.54901(9) 0.15691(9)
N2_2 N 0.83525(12) 0.47033(9) 0.13031(8)
N3_2 N 0.77806(13) 0.47623(9) 0.17743(8)
N4_2 N 0.76468(16) 0.55395(10) 0.20172(9)
H10_2 H 0.7667 0.5851 0.1972
N5_2 N 0.87700(13) 0.53887(9) 0.11291(8)
H11_2 H 0.8897 0.5178 0.0987
N6_2 N 0.79083(14) 0.40283(9) 0.15096(8)
H12_2 H 0.7672 0.3940 0.1646
O1_2 O 0.89103(9) 0.76147(7) 0.12930(7)
O2_2 O 0.85445(8) 0.71222(7) 0.16783(6)
O3_2 O 0.99354(9) 0.69068(8) 0.03670(6)
O5_2 O 0.89104(9) 0.37897(8) 0.03818(6)
O6_2 O 0.90337(9) 0.29805(8) 0.03684(6)
O11_2 O 0.92352(10) 0.86231(10) 0.11000(6)
H17_2 H 0.9519 0.8499 0.1062
H18_2 H 0.9141 0.8878 0.0988
O12_2 O 0.79616(11) 0.73327(11) 0.23576(9)
H19_2 H 0.7676 0.7436 0.2417
H20_2 H 0.8083 0.7076 0.2453
O13_2 O 0.67395(9) 0.66024(7) 0.28306(6)
O14_2 O 0.64616(9) 0.61117(8) 0.32558(6)
O15_2 O 0.67870(9) 0.43395(8) 0.31943(6)
O16_2 O 0.73039(8) 0.40369(7) 0.27953(6)
O20_2 O 0.99411(8) 0.39034(8) 0.03648(6)
Zn7_3 Zn 0.939393(16) 0.397576(14) 0.0000
Zn8_3 Zn 0.956110(16) 0.289248(14) 0.0000
O39_2 O 0.82605(9) 0.83976(7) 0.21694(6)
O41_2 O 0.85384(9) 0.88883(8) 0.17442(6)
O43_2 O 0.93395(8) 0.82130(9) 0.18057(6)
O45_2 O 0.90369(7) 0.76961(8) 0.22047(6)
Zn7_4 Zn 0.939393(16) 0.397576(14) 1.0000
Zn8_4 Zn 0.956110(16) 0.289248(14) 1.0000
O31_3 O 0.99354(9) 0.69068(8) 0.96330(6)
O31_4 O 0.00646(9) 0.30932(8) 0.96330(6)
O9_7 O 0.9341(2) 0.46988(12) 0.0000
H13_7 H 0.9602 0.4875 0.0000
H14_7 H 0.9058 0.4836 0.0000
O10_7 O 0.96286(16) 0.21702(12) 0.0000
H15_7 H 0.9372 0.1987 0.0000
H16_7 H 0.9915 0.2040 0.0000
O9_8 O 0.9341(2) 0.46988(12) 1.0000
H13_8 H 0.9602 0.4875 1.0000
H14_8 H 0.9058 0.4836 1.0000
O10_8 O 0.96286(16) 0.21702(12) 1.0000
H15_8 H 0.9372 0.1987 1.0000
H16_8 H 0.9915 0.2040 1.0000
O32_4 O 0.99411(8) 0.39034(8) 0.96352(6)
O33_4 O 0.89104(9) 0.37897(8) 0.96182(6)
O34_4 O 0.90337(9) 0.29805(8) 0.96316(6)
Zn1_5 Zn 0.102424(14) 0.439393(16) 0.5000
Zn2_5 Zn 0.210752(14) 0.456110(16) 0.5000
Zn3_2 Zn 0.332379(10) 0.620954(10) 0.644979(8)
Zn4_2 Zn 0.268893(10) 0.665732(10) 0.699671(8)
C1_3 C 0.21956(10) 0.62133(11) 0.64069(8)
C2_3 C 0.17560(10) 0.60501(11) 0.61981(8)
C3_3 C 0.12884(10) 0.62298(12) 0.62756(9)
H1_3 H 0.1251 0.6467 0.6449
C4_3 C 0.08760(11) 0.60596(13) 0.60860(9)
C5_3 C 0.09495(11) 0.57122(13) 0.58278(8)
H2_3 H 0.0678 0.5596 0.5703
C6_3 C 0.14170(10) 0.55342(11) 0.57474(8)
C7_3 C 0.14769(11) 0.51489(11) 0.54722(8)
C8_3 C 0.18259(10) 0.57093(11) 0.59302(8)
H3_3 H 0.2142 0.5594 0.5879
C9_3 C 0.02012(11) 0.65766(16) 0.63452(10)
C11_3 C 0.02431(12) 0.71232(16) 0.67799(10)
C12_3 C 0.02797(10) 0.81469(11) 0.79271(8)
H4_3 H 0.0229 0.8324 0.8132
C14_3 C 0.04222(11) 0.76445(15) 0.73107(9)
C15_3 C 0.08133(11) 0.78547(14) 0.74790(9)
H5_3 H 0.1130 0.7826 0.7385
C16_3 C 0.07491(10) 0.81142(12) 0.77863(8)
C18_3 C 0.11907(11) 0.83205(11) 0.79715(8)
N1_3 N 0.04901(9) 0.68156(15) 0.65691(9)
N4_3 N 0.05395(10) 0.73532(16) 0.70172(9)
H10_3 H 0.0851 0.7333 0.6972
N5_3 N 0.03887(9) 0.62300(13) 0.61291(8)
H11_3 H 0.0178 0.6103 0.5987
O1_3 O 0.26147(7) 0.60897(9) 0.62930(7)
O2_3 O 0.21222(7) 0.64555(8) 0.66783(6)
O3_3 O 0.19068(8) 0.50646(9) 0.53670(6)
O4_3 O 0.10966(8) 0.49411(8) 0.53648(6)
O9_9 O 0.03012(12) 0.4341(2) 0.5000
H13_9 H 0.0125 0.4602 0.5000
H14_9 H 0.0164 0.4058 0.5000
O10_9 O 0.28298(12) 0.46286(16) 0.5000
H15_9 H 0.3013 0.4372 0.5000
H16_9 H 0.2960 0.4915 0.5000
O11_3 O 0.36231(10) 0.57648(10) 0.61000(6)
H17_3 H 0.3499 0.5481 0.6062
H18_3 H 0.3878 0.5859 0.5988
O12_3 O 0.23327(11) 0.70384(11) 0.73576(9)
H19_3 H 0.2436 0.7324 0.7417
H20_3 H 0.2076 0.6917 0.7453
O13_3 O 0.16024(7) 0.82605(9) 0.78306(6)
O14_3 O 0.11117(8) 0.85384(9) 0.82558(6)
C37_3 C 0.04839(11) 0.30267(16) 0.65252(10)
C40_3 C 0.01200(10) 0.20704(11) 0.77598(8)
C44_3 C 0.00544(11) 0.23312(14) 0.74546(9)
H26_3 H 0.0320 0.2491 0.7348
C46_3 C 0.06217(10) 0.20534(11) 0.79291(8)
C47_3 C 0.13580(11) 0.31036(14) 0.63037(9)
C48_3 C 0.12906(11) 0.33674(13) 0.59994(9)
H27_3 H 0.0973 0.3427 0.5915
C49_3 C 0.21755(11) 0.34512(11) 0.59402(8)
H28_3 H 0.2448 0.3576 0.5821
C50_3 C 0.17042(10) 0.35419(11) 0.58191(8)
C51_3 C 0.22442(10) 0.31808(12) 0.62428(8)
C52_3 C 0.18311(11) 0.30082(14) 0.64246(9)
H29_3 H 0.1875 0.2824 0.6627
C53_3 C 0.16384(11) 0.38516(11) 0.54990(7)
C54_3 C 0.27494(10) 0.30953(11) 0.63932(8)
N8_3 N 0.02967(9) 0.33525(12) 0.63031(8)
N9_3 N 0.02377(9) 0.27806(13) 0.67743(8)
N12_3 N 0.09717(9) 0.29083(14) 0.65096(8)
H32_3 H 0.1060 0.2672 0.6646
O21_3 O 0.12103(8) 0.39104(9) 0.53818(6)
O22_3 O 0.20195(8) 0.40337(9) 0.53684(6)
O23_2 O 0.31085(7) 0.32944(9) 0.62364(6)
O24_2 O 0.27781(8) 0.28401(9) 0.66604(6)
O29_3 O 0.06605(8) 0.17870(9) 0.81943(6)
O30_3 O 0.09631(7) 0.23039(8) 0.77953(6)
Zn9_2 Zn 0.379046(10) 0.332379(10) 0.644979(8)
Zn11_2 Zn 0.167621(10) 0.879046(10) 0.855021(8)
Zn13_2 Zn 0.120954(10) 0.167621(10) 0.855021(8)
Zn15_2 Zn 0.334268(10) 0.268893(10) 0.699671(8)
Zn17_2 Zn 0.231107(10) 0.834268(10) 0.800329(8)
Zn19_2 Zn 0.165732(10) 0.231107(10) 0.800329(8)
O31_5 O 0.19068(8) 0.50646(9) 0.46330(6)
O32_5 O 0.10966(8) 0.49411(8) 0.46352(6)
O33_5 O 0.12103(8) 0.39104(9) 0.46182(6)
O34_5 O 0.20195(8) 0.40337(9) 0.46316(6)
O35_2 O 0.32944(9) 0.68915(7) 0.62364(6)
O37_2 O 0.28401(9) 0.72219(8) 0.66604(6)
O39_3 O 0.33976(7) 0.67395(9) 0.71694(6)
O41_3 O 0.38883(8) 0.64616(9) 0.67442(6)
O43_3 O 0.32130(9) 0.56605(8) 0.68057(6)
O45_3 O 0.26961(8) 0.59631(7) 0.72047(6)
C10_3 C 0.95161(11) 0.69733(16) 0.65252(10)
C13_3 C 0.98800(10) 0.79296(11) 0.77598(8)
C17_3 C 0.99456(11) 0.76688(14) 0.74546(9)
H6_3 H 0.9680 0.7509 0.7348
C19_3 C 0.93783(10) 0.79466(11) 0.79291(8)
C20_3 C 0.86420(11) 0.68964(14) 0.63037(9)
C21_3 C 0.87094(11) 0.66326(13) 0.59994(9)
H7_3 H 0.9027 0.6573 0.5915
C22_3 C 0.78245(11) 0.65488(11) 0.59402(8)
H8_3 H 0.7552 0.6424 0.5821
C23_3 C 0.82958(10) 0.64581(11) 0.58191(8)
C24_3 C 0.77558(10) 0.68192(12) 0.62428(8)
C25_3 C 0.81689(11) 0.69918(14) 0.64246(9)
H9_3 H 0.8125 0.7176 0.6627
C26_3 C 0.83616(11) 0.61484(11) 0.54990(7)
C27_3 C 0.72506(10) 0.69047(11) 0.63932(8)
N2_3 N 0.97033(9) 0.66475(12) 0.63031(8)
N3_3 N 0.97623(9) 0.72194(13) 0.67743(8)
N6_3 N 0.90283(9) 0.70917(14) 0.65096(8)
H12_3 H 0.8940 0.7328 0.6646
O5_3 O 0.87897(8) 0.60896(9) 0.53818(6)
O6_3 O 0.79805(8) 0.59663(9) 0.53684(6)
O7_2 O 0.68915(7) 0.67056(9) 0.62364(6)
O8_2 O 0.72219(8) 0.71599(9) 0.66604(6)
O15_3 O 0.93395(8) 0.82130(9) 0.81943(6)
O16_3 O 0.90369(7) 0.76961(8) 0.77953(6)
Zn5_2 Zn 0.667621(10) 0.379046(10) 0.644979(8)
Zn6_2 Zn 0.731107(10) 0.334268(10) 0.699671(8)
C28_3 C 0.78044(10) 0.37867(11) 0.64069(8)
C29_3 C 0.82440(10) 0.39499(11) 0.61981(8)
C30_3 C 0.87116(10) 0.37702(12) 0.62756(9)
H21_3 H 0.8749 0.3533 0.6449
C31_3 C 0.91240(11) 0.39404(13) 0.60860(9)
C32_3 C 0.90505(11) 0.42878(13) 0.58278(8)
H22_3 H 0.9322 0.4404 0.5703
C33_3 C 0.85830(10) 0.44658(11) 0.57474(8)
C34_3 C 0.85231(11) 0.48511(11) 0.54722(8)
C35_3 C 0.81741(10) 0.42907(11) 0.59302(8)
H23_3 H 0.7858 0.4406 0.5879
C36_3 C 0.97988(11) 0.34234(16) 0.63452(10)
C38_3 C 0.97569(12) 0.28768(16) 0.67799(10)
C39_3 C 0.97203(10) 0.18531(11) 0.79271(8)
H24_3 H 0.9771 0.1676 0.8132
C41_3 C 0.95778(11) 0.23555(15) 0.73107(9)
C42_3 C 0.91867(11) 0.21453(14) 0.74790(9)
H25_3 H 0.8870 0.2174 0.7385
C43_3 C 0.92509(10) 0.18858(12) 0.77863(8)
C45_3 C 0.88093(11) 0.16795(11) 0.79715(8)
N7_3 N 0.95099(9) 0.31844(15) 0.65691(9)
N10_3 N 0.94605(10) 0.26468(16) 0.70172(9)
H30_3 H 0.9149 0.2667 0.6972
N11_3 N 0.96113(9) 0.37700(13) 0.61291(8)
H31_3 H 0.9822 0.3897 0.5987
O17_3 O 0.73853(7) 0.39103(9) 0.62930(7)
O18_3 O 0.78778(7) 0.35445(8) 0.66783(6)
O19_3 O 0.80932(8) 0.49354(9) 0.53670(6)
O20_3 O 0.89034(8) 0.50589(8) 0.53648(6)
O25_3 O 0.63769(10) 0.42352(10) 0.61000(6)
H33_3 H 0.6501 0.4519 0.6062
H34_3 H 0.6122 0.4141 0.5988
O26_3 O 0.76673(11) 0.29616(11) 0.73576(9)
H35_3 H 0.7564 0.2676 0.7417
H36_3 H 0.7924 0.3083 0.7453
O27_3 O 0.83976(7) 0.17395(9) 0.78306(6)
O28_3 O 0.88883(8) 0.14616(9) 0.82558(6)
Zn7_5 Zn 0.897576(14) 0.560607(16) 0.5000
Zn8_5 Zn 0.789248(14) 0.543890(16) 0.5000
Zn10_2 Zn 0.620954(10) 0.667621(10) 0.644979(8)
Zn12_2 Zn 0.832379(10) 0.120954(10) 0.855021(8)
Zn14_2 Zn 0.879046(10) 0.832379(10) 0.855021(8)
Zn16_2 Zn 0.665732(10) 0.731107(10) 0.699671(8)
Zn18_2 Zn 0.768893(10) 0.165732(10) 0.800329(8)
Zn20_2 Zn 0.834268(10) 0.768893(10) 0.800329(8)
O36_2 O 0.67056(9) 0.31085(7) 0.62364(6)
O38_2 O 0.71599(9) 0.27781(8) 0.66604(6)
O40_3 O 0.66024(7) 0.32605(9) 0.71694(6)
O42_3 O 0.61117(8) 0.35384(9) 0.67442(6)
O44_3 O 0.67870(9) 0.43395(8) 0.68057(6)
O46_3 O 0.73039(8) 0.40369(7) 0.72047(6)
O9_10 O 0.96988(12) 0.5659(2) 0.5000
H13_10 H 0.9875 0.5398 0.5000
H14_10 H 0.9836 0.5942 0.5000
O10_10 O 0.71702(12) 0.53714(16) 0.5000
H15_10 H 0.6987 0.5628 0.5000
H16_10 H 0.7040 0.5085 0.5000
O31_6 O 0.80932(8) 0.49354(9) 0.46330(6)
O32_6 O 0.89034(8) 0.50589(8) 0.46352(6)
O33_6 O 0.87897(8) 0.60896(9) 0.46182(6)
O34_6 O 0.79805(8) 0.59663(9) 0.46316(6)
Zn1_6 Zn 0.560607(16) 0.102424(14) 0.5000
Zn2_6 Zn 0.543890(16) 0.210752(14) 0.5000
C1_4 C 0.37867(11) 0.21956(10) 0.64069(8)
C2_4 C 0.39499(11) 0.17560(10) 0.61981(8)
C3_4 C 0.37702(12) 0.12884(10) 0.62756(9)
H1_4 H 0.3533 0.1251 0.6449
C4_4 C 0.39404(13) 0.08760(11) 0.60860(9)
C5_4 C 0.42878(13) 0.09495(11) 0.58278(8)
H2_4 H 0.4404 0.0678 0.5703
C6_4 C 0.44658(11) 0.14170(10) 0.57474(8)
C7_4 C 0.48511(11) 0.14769(11) 0.54722(8)
C8_4 C 0.42907(11) 0.18259(10) 0.59302(8)
H3_4 H 0.4406 0.2142 0.5879
C9_4 C 0.34234(16) 0.02012(11) 0.63452(10)
C11_4 C 0.28768(16) 0.02431(12) 0.67799(10)
C12_4 C 0.18531(11) 0.02797(10) 0.79271(8)
H4_4 H 0.1676 0.0229 0.8132
C14_4 C 0.23555(15) 0.04222(11) 0.73107(9)
C15_4 C 0.21453(14) 0.08133(11) 0.74790(9)
H5_4 H 0.2174 0.1130 0.7385
C16_4 C 0.18858(12) 0.07491(10) 0.77863(8)
C18_4 C 0.16795(11) 0.11907(11) 0.79715(8)
N1_4 N 0.31844(15) 0.04901(9) 0.65691(9)
N4_4 N 0.26468(16) 0.05395(10) 0.70172(9)
H10_4 H 0.2667 0.0851 0.6972
N5_4 N 0.37700(13) 0.03887(9) 0.61291(8)
H11_4 H 0.3897 0.0178 0.5987
O1_4 O 0.39103(9) 0.26147(7) 0.62930(7)
O2_4 O 0.35445(8) 0.21222(7) 0.66783(6)
O3_4 O 0.49354(9) 0.19068(8) 0.53670(6)
O4_4 O 0.50589(8) 0.10966(8) 0.53648(6)
O9_11 O 0.5659(2) 0.03012(12) 0.5000
H13_11 H 0.5398 0.0125 0.5000
H14_11 H 0.5942 0.0164 0.5000
O10_11 O 0.53714(16) 0.28298(12) 0.5000
H15_11 H 0.5628 0.3013 0.5000
H16_11 H 0.5085 0.2960 0.5000
O11_4 O 0.42352(10) 0.36231(10) 0.61000(6)
H17_4 H 0.4519 0.3499 0.6062
H18_4 H 0.4141 0.3878 0.5988
O12_4 O 0.29616(11) 0.23327(11) 0.73576(9)
H19_4 H 0.2676 0.2436 0.7417
H20_4 H 0.3083 0.2076 0.7453
O13_4 O 0.17395(9) 0.16024(7) 0.78306(6)
O14_4 O 0.14616(9) 0.11117(8) 0.82558(6)
C37_4 C 0.69733(16) 0.04839(11) 0.65252(10)
C40_4 C 0.79296(11) 0.01200(10) 0.77598(8)
C44_4 C 0.76688(14) 0.00544(11) 0.74546(9)
H26_4 H 0.7509 0.0320 0.7348
C46_4 C 0.79466(11) 0.06217(10) 0.79291(8)
C47_4 C 0.68964(14) 0.13580(11) 0.63037(9)
C48_4 C 0.66326(13) 0.12906(11) 0.59994(9)
H27_4 H 0.6573 0.0973 0.5915
C49_4 C 0.65488(11) 0.21755(11) 0.59402(8)
H28_4 H 0.6424 0.2448 0.5821
C50_4 C 0.64581(11) 0.17042(10) 0.58191(8)
C51_4 C 0.68192(12) 0.22442(10) 0.62428(8)
C52_4 C 0.69918(14) 0.18311(11) 0.64246(9)
H29_4 H 0.7176 0.1875 0.6627
C53_4 C 0.61484(11) 0.16384(11) 0.54990(7)
C54_4 C 0.69047(11) 0.27494(10) 0.63932(8)
N8_4 N 0.66475(12) 0.02967(9) 0.63031(8)
N9_4 N 0.72194(13) 0.02377(9) 0.67743(8)
N12_4 N 0.70917(14) 0.09717(9) 0.65096(8)
H32_4 H 0.7328 0.1060 0.6646
O21_4 O 0.60896(9) 0.12103(8) 0.53818(6)
O22_4 O 0.59663(9) 0.20195(8) 0.53684(6)
O29_4 O 0.82130(9) 0.06605(8) 0.81943(6)
O30_4 O 0.76961(8) 0.09631(7) 0.77953(6)
O31_7 O 0.49354(9) 0.19068(8) 0.46330(6)
O32_7 O 0.50589(8) 0.10966(8) 0.46352(6)
O33_7 O 0.60896(9) 0.12103(8) 0.46182(6)
O34_7 O 0.59663(9) 0.20195(8) 0.46316(6)
O39_4 O 0.32605(9) 0.33976(7) 0.71694(6)
O41_4 O 0.35384(9) 0.38883(8) 0.67442(6)
O43_4 O 0.43395(8) 0.32130(9) 0.68057(6)
O45_4 O 0.40369(7) 0.26961(8) 0.72047(6)
C10_4 C 0.30267(16) 0.95161(11) 0.65252(10)
C13_4 C 0.20704(11) 0.98800(10) 0.77598(8)
C17_4 C 0.23312(14) 0.99456(11) 0.74546(9)
H6_4 H 0.2491 0.9680 0.7348
C19_4 C 0.20534(11) 0.93783(10) 0.79291(8)
C20_4 C 0.31036(14) 0.86420(11) 0.63037(9)
C21_4 C 0.33674(13) 0.87094(11) 0.59994(9)
H7_4 H 0.3427 0.9027 0.5915
C22_4 C 0.34512(11) 0.78245(11) 0.59402(8)
H8_4 H 0.3576 0.7552 0.5821
C23_4 C 0.35419(11) 0.82958(10) 0.58191(8)
C24_4 C 0.31808(12) 0.77558(10) 0.62428(8)
C25_4 C 0.30082(14) 0.81689(11) 0.64246(9)
H9_4 H 0.2824 0.8125 0.6627
C26_4 C 0.38516(11) 0.83616(11) 0.54990(7)
C27_4 C 0.30953(11) 0.72506(10) 0.63932(8)
N2_4 N 0.33525(12) 0.97033(9) 0.63031(8)
N3_4 N 0.27806(13) 0.97623(9) 0.67743(8)
N6_4 N 0.29083(14) 0.90283(9) 0.65096(8)
H12_4 H 0.2672 0.8940 0.6646
O5_4 O 0.39104(9) 0.87897(8) 0.53818(6)
O6_4 O 0.40337(9) 0.79805(8) 0.53684(6)
O15_4 O 0.17870(9) 0.93395(8) 0.81943(6)
O16_4 O 0.23039(8) 0.90369(7) 0.77953(6)
C28_4 C 0.62133(11) 0.78044(10) 0.64069(8)
C29_4 C 0.60501(11) 0.82440(10) 0.61981(8)
C30_4 C 0.62298(12) 0.87116(10) 0.62756(9)
H21_4 H 0.6467 0.8749 0.6449
C31_4 C 0.60596(13) 0.91240(11) 0.60860(9)
C32_4 C 0.57122(13) 0.90505(11) 0.58278(8)
H22_4 H 0.5596 0.9322 0.5703
C33_4 C 0.55342(11) 0.85830(10) 0.57474(8)
C34_4 C 0.51489(11) 0.85231(11) 0.54722(8)
C35_4 C 0.57093(11) 0.81741(10) 0.59302(8)
H23_4 H 0.5594 0.7858 0.5879
C36_4 C 0.65766(16) 0.97988(11) 0.63452(10)
C38_4 C 0.71232(16) 0.97569(12) 0.67799(10)
C39_4 C 0.81469(11) 0.97203(10) 0.79271(8)
H24_4 H 0.8324 0.9771 0.8132
C41_4 C 0.76445(15) 0.95778(11) 0.73107(9)
C42_4 C 0.78547(14) 0.91867(11) 0.74790(9)
H25_4 H 0.7826 0.8870 0.7385
C43_4 C 0.81142(12) 0.92509(10) 0.77863(8)
C45_4 C 0.83205(11) 0.88093(11) 0.79715(8)
N7_4 N 0.68156(15) 0.95099(9) 0.65691(9)
N10_4 N 0.73532(16) 0.94605(10) 0.70172(9)
H30_4 H 0.7333 0.9149 0.6972
N11_4 N 0.62300(13) 0.96113(9) 0.61291(8)
H31_4 H 0.6103 0.9822 0.5987
O17_4 O 0.60897(9) 0.73853(7) 0.62930(7)
O18_4 O 0.64555(8) 0.78778(7) 0.66783(6)
O19_4 O 0.50646(9) 0.80932(8) 0.53670(6)
O20_4 O 0.49411(8) 0.89034(8) 0.53648(6)
O25_4 O 0.57648(10) 0.63769(10) 0.61000(6)
H33_4 H 0.5481 0.6501 0.6062
H34_4 H 0.5859 0.6122 0.5988
O26_4 O 0.70384(11) 0.76673(11) 0.73576(9)
H35_4 H 0.7324 0.7564 0.7417
H36_4 H 0.6917 0.7924 0.7453
O27_4 O 0.82605(9) 0.83976(7) 0.78306(6)
O28_4 O 0.85384(9) 0.88883(8) 0.82558(6)
Zn7_6 Zn 0.439393(16) 0.897576(14) 0.5000
Zn8_6 Zn 0.456110(16) 0.789248(14) 0.5000
O40_4 O 0.67395(9) 0.66024(7) 0.71694(6)
O42_4 O 0.64616(9) 0.61117(8) 0.67442(6)
O44_4 O 0.56605(8) 0.67870(9) 0.68057(6)
O46_4 O 0.59631(7) 0.73039(8) 0.72047(6)
O9_12 O 0.4341(2) 0.96988(12) 0.5000
H13_12 H 0.4602 0.9875 0.5000
H14_12 H 0.4058 0.9836 0.5000
O10_12 O 0.46286(16) 0.71702(12) 0.5000
H15_12 H 0.4372 0.6987 0.5000
H16_12 H 0.4915 0.7040 0.5000
O31_8 O 0.50646(9) 0.80932(8) 0.46330(6)
O32_8 O 0.49411(8) 0.89034(8) 0.46352(6)
O33_8 O 0.39104(9) 0.87897(8) 0.46182(6)
O34_8 O 0.40337(9) 0.79805(8) 0.46316(6)
C28_5 C 0.71956(10) 0.12133(11) 0.85931(8)
C29_5 C 0.67560(10) 0.10501(11) 0.88019(8)
C30_5 C 0.62884(10) 0.12298(12) 0.87244(9)
H21_5 H 0.6251 0.1467 0.8551
C31_5 C 0.58760(11) 0.10596(13) 0.89140(9)
C32_5 C 0.59495(11) 0.07122(13) 0.91722(8)
H22_5 H 0.5678 0.0596 0.9297
C33_5 C 0.64170(10) 0.05342(11) 0.92526(8)
C34_5 C 0.64769(11) 0.01489(11) 0.95278(8)
C35_5 C 0.68259(10) 0.07093(11) 0.90698(8)
H23_5 H 0.7142 0.0594 0.9121
C36_5 C 0.52012(11) 0.15766(16) 0.86548(10)
C37_5 C 0.45161(11) 0.19733(16) 0.84748(10)
C38_5 C 0.52431(12) 0.21232(16) 0.82201(10)
C39_5 C 0.52797(10) 0.31469(11) 0.70729(8)
H24_5 H 0.5229 0.3324 0.6868
C40_5 C 0.48800(10) 0.29296(11) 0.72402(8)
C41_5 C 0.54222(11) 0.26445(15) 0.76893(9)
C42_5 C 0.58133(11) 0.28547(14) 0.75210(9)
H25_5 H 0.6130 0.2826 0.7615
C43_5 C 0.57491(10) 0.31142(12) 0.72137(8)
C44_5 C 0.49456(11) 0.26688(14) 0.75454(9)
H26_5 H 0.4680 0.2509 0.7652
C45_5 C 0.61907(11) 0.33205(11) 0.70285(8)
C46_5 C 0.43783(10) 0.29466(11) 0.70709(8)
C47_5 C 0.36420(11) 0.18964(14) 0.86963(9)
C48_5 C 0.37094(11) 0.16326(13) 0.90006(9)
H27_5 H 0.4027 0.1573 0.9085
C49_5 C 0.28245(11) 0.15488(11) 0.90598(8)
H28_5 H 0.2552 0.1424 0.9179
C50_5 C 0.32958(10) 0.14581(11) 0.91809(8)
C51_5 C 0.27558(10) 0.18192(12) 0.87572(8)
C52_5 C 0.31689(11) 0.19918(14) 0.85754(9)
H29_5 H 0.3125 0.2176 0.8373
C53_5 C 0.33616(11) 0.11484(11) 0.95010(7)
C54_5 C 0.22506(10) 0.19047(11) 0.86068(8)
N7_5 N 0.54901(9) 0.18156(15) 0.84309(9)
N8_5 N 0.47033(9) 0.16475(12) 0.86969(8)
N9_5 N 0.47623(9) 0.22194(13) 0.82257(8)
N10_5 N 0.55395(10) 0.23532(16) 0.79828(9)
H30_5 H 0.5851 0.2333 0.8028
N11_5 N 0.53887(9) 0.12300(13) 0.88709(8)
H31_5 H 0.5178 0.1103 0.9013
N12_5 N 0.40283(9) 0.20917(14) 0.84904(8)
H32_5 H 0.3940 0.2328 0.8354
O17_5 O 0.76147(7) 0.10897(9) 0.87070(7)
O18_5 O 0.71222(7) 0.14555(8) 0.83217(6)
O23_3 O 0.18915(7) 0.17056(9) 0.87636(6)
O24_3 O 0.22219(8) 0.21599(9) 0.83396(6)
O25_5 O 0.86231(10) 0.07648(10) 0.89000(6)
H33_5 H 0.8499 0.0481 0.8938
H34_5 H 0.8878 0.0859 0.9012
O26_5 O 0.73327(11) 0.20384(11) 0.76424(9)
H35_5 H 0.7436 0.2324 0.7583
H36_5 H 0.7076 0.1917 0.7547
O36_3 O 0.82944(9) 0.18915(7) 0.87636(6)
O38_3 O 0.78401(9) 0.22219(8) 0.83396(6)
C1_5 C 0.28044(10) 0.87867(11) 0.85931(8)
C2_5 C 0.32440(10) 0.89499(11) 0.88019(8)
C3_5 C 0.37116(10) 0.87702(12) 0.87244(9)
H1_5 H 0.3749 0.8533 0.8551
C4_5 C 0.41240(11) 0.89404(13) 0.89140(9)
C5_5 C 0.40505(11) 0.92878(13) 0.91722(8)
H2_5 H 0.4322 0.9404 0.9297
C6_5 C 0.35830(10) 0.94658(11) 0.92526(8)
C7_5 C 0.35231(11) 0.98511(11) 0.95278(8)
C8_5 C 0.31741(10) 0.92907(11) 0.90698(8)
H3_5 H 0.2858 0.9406 0.9121
C9_5 C 0.47988(11) 0.84234(16) 0.86548(10)
C10_5 C 0.54839(11) 0.80267(16) 0.84748(10)
C11_5 C 0.47569(12) 0.78768(16) 0.82201(10)
C12_5 C 0.47203(10) 0.68531(11) 0.70729(8)
H4_5 H 0.4771 0.6676 0.6868
C13_5 C 0.51200(10) 0.70704(11) 0.72402(8)
C14_5 C 0.45778(11) 0.73555(15) 0.76893(9)
C15_5 C 0.41867(11) 0.71453(14) 0.75210(9)
H5_5 H 0.3870 0.7174 0.7615
C16_5 C 0.42509(10) 0.68858(12) 0.72137(8)
C17_5 C 0.50544(11) 0.73312(14) 0.75454(9)
H6_5 H 0.5320 0.7491 0.7652
C18_5 C 0.38093(11) 0.66795(11) 0.70285(8)
C19_5 C 0.56217(10) 0.70534(11) 0.70709(8)
C20_5 C 0.63580(11) 0.81036(14) 0.86963(9)
C21_5 C 0.62906(11) 0.83674(13) 0.90006(9)
H7_5 H 0.5973 0.8427 0.9085
C22_5 C 0.71755(11) 0.84512(11) 0.90598(8)
H8_5 H 0.7448 0.8576 0.9179
C23_5 C 0.67042(10) 0.85419(11) 0.91809(8)
C24_5 C 0.72442(10) 0.81808(12) 0.87572(8)
C25_5 C 0.68311(11) 0.80082(14) 0.85754(9)
H9_5 H 0.6875 0.7824 0.8373
C26_5 C 0.66384(11) 0.88516(11) 0.95010(7)
C27_5 C 0.77494(10) 0.80953(11) 0.86068(8)
N1_5 N 0.45099(9) 0.81844(15) 0.84309(9)
N2_5 N 0.52967(9) 0.83525(12) 0.86969(8)
N3_5 N 0.52377(9) 0.77806(13) 0.82257(8)
N4_5 N 0.44605(10) 0.76468(16) 0.79828(9)
H10_5 H 0.4149 0.7667 0.8028
N5_5 N 0.46113(9) 0.87700(13) 0.88709(8)
H11_5 H 0.4822 0.8897 0.9013
N6_5 N 0.59717(9) 0.79083(14) 0.84904(8)
H12_5 H 0.6060 0.7672 0.8354
O1_5 O 0.23853(7) 0.89103(9) 0.87070(7)
O2_5 O 0.28778(7) 0.85445(8) 0.83217(6)
O7_3 O 0.81085(7) 0.82944(9) 0.87636(6)
O8_3 O 0.77781(8) 0.78401(9) 0.83396(6)
O11_5 O 0.13769(10) 0.92352(10) 0.89000(6)
H17_5 H 0.1501 0.9519 0.8938
H18_5 H 0.1122 0.9141 0.9012
O12_5 O 0.26673(11) 0.79616(11) 0.76424(9)
H19_5 H 0.2564 0.7676 0.7583
H20_5 H 0.2924 0.8083 0.7547
O35_3 O 0.17056(9) 0.81085(7) 0.87636(6)
O37_3 O 0.21599(9) 0.77781(8) 0.83396(6)
C1_6 C 0.12133(11) 0.28044(10) 0.85931(8)
C2_6 C 0.10501(11) 0.32440(10) 0.88019(8)
C3_6 C 0.12298(12) 0.37116(10) 0.87244(9)
H1_6 H 0.1467 0.3749 0.8551
C4_6 C 0.10596(13) 0.41240(11) 0.89140(9)
C5_6 C 0.07122(13) 0.40505(11) 0.91722(8)
H2_6 H 0.0596 0.4322 0.9297
C6_6 C 0.05342(11) 0.35830(10) 0.92526(8)
C7_6 C 0.01489(11) 0.35231(11) 0.95278(8)
C8_6 C 0.07093(11) 0.31741(10) 0.90698(8)
H3_6 H 0.0594 0.2858 0.9121
C9_6 C 0.15766(16) 0.47988(11) 0.86548(10)
C10_6 C 0.19733(16) 0.54839(11) 0.84748(10)
C11_6 C 0.21232(16) 0.47569(12) 0.82201(10)
C12_6 C 0.31469(11) 0.47203(10) 0.70729(8)
H4_6 H 0.3324 0.4771 0.6868
C13_6 C 0.29296(11) 0.51200(10) 0.72402(8)
C14_6 C 0.26445(15) 0.45778(11) 0.76893(9)
C15_6 C 0.28547(14) 0.41867(11) 0.75210(9)
H5_6 H 0.2826 0.3870 0.7615
C16_6 C 0.31142(12) 0.42509(10) 0.72137(8)
C17_6 C 0.26688(14) 0.50544(11) 0.75454(9)
H6_6 H 0.2509 0.5320 0.7652
C18_6 C 0.33205(11) 0.38093(11) 0.70285(8)
C19_6 C 0.29466(11) 0.56217(10) 0.70709(8)
C20_6 C 0.18964(14) 0.63580(11) 0.86963(9)
C21_6 C 0.16326(13) 0.62906(11) 0.90006(9)
H7_6 H 0.1573 0.5973 0.9085
C22_6 C 0.15488(11) 0.71755(11) 0.90598(8)
H8_6 H 0.1424 0.7448 0.9179
C23_6 C 0.14581(11) 0.67042(10) 0.91809(8)
C24_6 C 0.18192(12) 0.72442(10) 0.87572(8)
C25_6 C 0.19918(14) 0.68311(11) 0.85754(9)
H9_6 H 0.2176 0.6875 0.8373
C26_6 C 0.11484(11) 0.66384(11) 0.95010(7)
C27_6 C 0.19047(11) 0.77494(10) 0.86068(8)
N1_6 N 0.18156(15) 0.45099(9) 0.84309(9)
N2_6 N 0.16475(12) 0.52967(9) 0.86969(8)
N3_6 N 0.22194(13) 0.52377(9) 0.82257(8)
N4_6 N 0.23532(16) 0.44605(10) 0.79828(9)
H10_6 H 0.2333 0.4149 0.8028
N5_6 N 0.12300(13) 0.46113(9) 0.88709(8)
H11_6 H 0.1103 0.4822 0.9013
N6_6 N 0.20917(14) 0.59717(9) 0.84904(8)
H12_6 H 0.2328 0.6060 0.8354
O1_6 O 0.10897(9) 0.23853(7) 0.87070(7)
O2_6 O 0.14555(8) 0.28778(7) 0.83217(6)
O11_6 O 0.07648(10) 0.13769(10) 0.89000(6)
H17_6 H 0.0481 0.1501 0.8938
H18_6 H 0.0859 0.1122 0.9012
O12_6 O 0.20384(11) 0.26673(11) 0.76424(9)
H19_6 H 0.2324 0.2564 0.7583
H20_6 H 0.1917 0.2924 0.7547
C28_6 C 0.87867(11) 0.71956(10) 0.85931(8)
C29_6 C 0.89499(11) 0.67560(10) 0.88019(8)
C30_6 C 0.87702(12) 0.62884(10) 0.87244(9)
H21_6 H 0.8533 0.6251 0.8551
C31_6 C 0.89404(13) 0.58760(11) 0.89140(9)
C32_6 C 0.92878(13) 0.59495(11) 0.91722(8)
H22_6 H 0.9404 0.5678 0.9297
C33_6 C 0.94658(11) 0.64170(10) 0.92526(8)
C34_6 C 0.98511(11) 0.64769(11) 0.95278(8)
C35_6 C 0.92907(11) 0.68259(10) 0.90698(8)
H23_6 H 0.9406 0.7142 0.9121
C36_6 C 0.84234(16) 0.52012(11) 0.86548(10)
C37_6 C 0.80267(16) 0.45161(11) 0.84748(10)
C38_6 C 0.78768(16) 0.52431(12) 0.82201(10)
C39_6 C 0.68531(11) 0.52797(10) 0.70729(8)
H24_6 H 0.6676 0.5229 0.6868
C40_6 C 0.70704(11) 0.48800(10) 0.72402(8)
C41_6 C 0.73555(15) 0.54222(11) 0.76893(9)
C42_6 C 0.71453(14) 0.58133(11) 0.75210(9)
H25_6 H 0.7174 0.6130 0.7615
C43_6 C 0.68858(12) 0.57491(10) 0.72137(8)
C44_6 C 0.73312(14) 0.49456(11) 0.75454(9)
H26_6 H 0.7491 0.4680 0.7652
C45_6 C 0.66795(11) 0.61907(11) 0.70285(8)
C46_6 C 0.70534(11) 0.43783(10) 0.70709(8)
C47_6 C 0.81036(14) 0.36420(11) 0.86963(9)
C48_6 C 0.83674(13) 0.37094(11) 0.90006(9)
H27_6 H 0.8427 0.4027 0.9085
C49_6 C 0.84512(11) 0.28245(11) 0.90598(8)
H28_6 H 0.8576 0.2552 0.9179
C50_6 C 0.85419(11) 0.32958(10) 0.91809(8)
C51_6 C 0.81808(12) 0.27558(10) 0.87572(8)
C52_6 C 0.80082(14) 0.31689(11) 0.85754(9)
H29_6 H 0.7824 0.3125 0.8373
C53_6 C 0.88516(11) 0.33616(11) 0.95010(7)
C54_6 C 0.80953(11) 0.22506(10) 0.86068(8)
N7_6 N 0.81844(15) 0.54901(9) 0.84309(9)
N8_6 N 0.83525(12) 0.47033(9) 0.86969(8)
N9_6 N 0.77806(13) 0.47623(9) 0.82257(8)
N10_6 N 0.76468(16) 0.55395(10) 0.79828(9)
H30_6 H 0.7667 0.5851 0.8028
N11_6 N 0.87700(13) 0.53887(9) 0.88709(8)
H31_6 H 0.8897 0.5178 0.9013
N12_6 N 0.79083(14) 0.40283(9) 0.84904(8)
H32_6 H 0.7672 0.3940 0.8354
O17_6 O 0.89103(9) 0.76147(7) 0.87070(7)
O18_6 O 0.85445(8) 0.71222(7) 0.83217(6)
O25_6 O 0.92352(10) 0.86231(10) 0.89000(6)
H33_6 H 0.9519 0.8499 0.8938
H34_6 H 0.9141 0.8878 0.9012
O26_6 O 0.79616(11) 0.73327(11) 0.76424(9)
H35_6 H 0.7676 0.7436 0.7583
H36_6 H 0.8083 0.7076 0.7547
C10_7 C 0.04839(11) 0.30267(16) 0.34748(10)
C13_7 C 0.01200(10) 0.20704(11) 0.22402(8)
C17_7 C 0.00544(11) 0.23312(14) 0.25454(9)
H6_7 H 0.0320 0.2491 0.2652
C19_7 C 0.06217(10) 0.20534(11) 0.20709(8)
C20_7 C 0.13580(11) 0.31036(14) 0.36963(9)
C21_7 C 0.12906(11) 0.33674(13) 0.40006(9)
H7_7 H 0.0973 0.3427 0.4085
C22_7 C 0.21755(11) 0.34512(11) 0.40598(8)
H8_7 H 0.2448 0.3576 0.4179
C23_7 C 0.17042(10) 0.35419(11) 0.41809(8)
C24_7 C 0.22442(10) 0.31808(12) 0.37572(8)
C25_7 C 0.18311(11) 0.30082(14) 0.35754(9)
H9_7 H 0.1875 0.2824 0.3373
C26_7 C 0.16384(11) 0.38516(11) 0.45010(7)
C27_7 C 0.27494(10) 0.30953(11) 0.36068(8)
N2_7 N 0.02967(9) 0.33525(12) 0.36969(8)
N3_7 N 0.02377(9) 0.27806(13) 0.32257(8)
N6_7 N 0.09717(9) 0.29083(14) 0.34904(8)
H12_7 H 0.1060 0.2672 0.3354
O7_4 O 0.31085(7) 0.32944(9) 0.37636(6)
O8_4 O 0.27781(8) 0.28401(9) 0.33396(6)
C28_7 C 0.21956(10) 0.62133(11) 0.35931(8)
C29_7 C 0.17560(10) 0.60501(11) 0.38019(8)
C30_7 C 0.12884(10) 0.62298(12) 0.37244(9)
H21_7 H 0.1251 0.6467 0.3551
C31_7 C 0.08760(11) 0.60596(13) 0.39140(9)
C32_7 C 0.09495(11) 0.57122(13) 0.41722(8)
H22_7 H 0.0678 0.5596 0.4297
C33_7 C 0.14170(10) 0.55342(11) 0.42526(8)
C34_7 C 0.14769(11) 0.51489(11) 0.45278(8)
C35_7 C 0.18259(10) 0.57093(11) 0.40698(8)
H23_7 H 0.2142 0.5594 0.4121
C36_7 C 0.02012(11) 0.65766(16) 0.36548(10)
C38_7 C 0.02431(12) 0.71232(16) 0.32201(10)
C39_7 C 0.02797(10) 0.81469(11) 0.20729(8)
H24_7 H 0.0229 0.8324 0.1868
C41_7 C 0.04222(11) 0.76445(15) 0.26893(9)
C42_7 C 0.08133(11) 0.78547(14) 0.25210(9)
H25_7 H 0.1130 0.7826 0.2615
C43_7 C 0.07491(10) 0.81142(12) 0.22137(8)
C45_7 C 0.11907(11) 0.83205(11) 0.20285(8)
N7_7 N 0.04901(9) 0.68156(15) 0.34309(9)
N10_7 N 0.05395(10) 0.73532(16) 0.29828(9)
H30_7 H 0.0851 0.7333 0.3028
N11_7 N 0.03887(9) 0.62300(13) 0.38709(8)
H31_7 H 0.0178 0.6103 0.4013
O17_7 O 0.26147(7) 0.60897(9) 0.37070(7)
O18_7 O 0.21222(7) 0.64555(8) 0.33217(6)
O25_7 O 0.36231(10) 0.57648(10) 0.39000(6)
H33_7 H 0.3499 0.5481 0.3938
H34_7 H 0.3878 0.5859 0.4012
O26_7 O 0.23327(11) 0.70384(11) 0.26424(9)
H35_7 H 0.2436 0.7324 0.2583
H36_7 H 0.2076 0.6917 0.2547
O36_4 O 0.32944(9) 0.68915(7) 0.37636(6)
O38_4 O 0.28401(9) 0.72219(8) 0.33396(6)
C1_7 C 0.78044(10) 0.37867(11) 0.35931(8)
C2_7 C 0.82440(10) 0.39499(11) 0.38019(8)
C3_7 C 0.87116(10) 0.37702(12) 0.37244(9)
H1_7 H 0.8749 0.3533 0.3551
C4_7 C 0.91240(11) 0.39404(13) 0.39140(9)
C5_7 C 0.90505(11) 0.42878(13) 0.41722(8)
H2_7 H 0.9322 0.4404 0.4297
C6_7 C 0.85830(10) 0.44658(11) 0.42526(8)
C7_7 C 0.85231(11) 0.48511(11) 0.45278(8)
C8_7 C 0.81741(10) 0.42907(11) 0.40698(8)
H3_7 H 0.7858 0.4406 0.4121
C9_7 C 0.97988(11) 0.34234(16) 0.36548(10)
C11_7 C 0.97569(12) 0.28768(16) 0.32201(10)
C12_7 C 0.97203(10) 0.18531(11) 0.20729(8)
H4_7 H 0.9771 0.1676 0.1868
C14_7 C 0.95778(11) 0.23555(15) 0.26893(9)
C15_7 C 0.91867(11) 0.21453(14) 0.25210(9)
H5_7 H 0.8870 0.2174 0.2615
C16_7 C 0.92509(10) 0.18858(12) 0.22137(8)
C18_7 C 0.88093(11) 0.16795(11) 0.20285(8)
N1_7 N 0.95099(9) 0.31844(15) 0.34309(9)
N4_7 N 0.94605(10) 0.26468(16) 0.29828(9)
H10_7 H 0.9149 0.2667 0.3028
N5_7 N 0.96113(9) 0.37700(13) 0.38709(8)
H11_7 H 0.9822 0.3897 0.4013
O1_7 O 0.73853(7) 0.39103(9) 0.37070(7)
O2_7 O 0.78778(7) 0.35445(8) 0.33217(6)
O11_7 O 0.63769(10) 0.42352(10) 0.39000(6)
H17_7 H 0.6501 0.4519 0.3938
H18_7 H 0.6122 0.4141 0.4012
O12_7 O 0.76673(11) 0.29616(11) 0.26424(9)
H19_7 H 0.7564 0.2676 0.2583
H20_7 H 0.7924 0.3083 0.2547
C37_7 C 0.95161(11) 0.69733(16) 0.34748(10)
C40_7 C 0.98800(10) 0.79296(11) 0.22402(8)
C44_7 C 0.99456(11) 0.76688(14) 0.25454(9)
H26_7 H 0.9680 0.7509 0.2652
C46_7 C 0.93783(10) 0.79466(11) 0.20709(8)
C47_7 C 0.86420(11) 0.68964(14) 0.36963(9)
C48_7 C 0.87094(11) 0.66326(13) 0.40006(9)
H27_7 H 0.9027 0.6573 0.4085
C49_7 C 0.78245(11) 0.65488(11) 0.40598(8)
H28_7 H 0.7552 0.6424 0.4179
C50_7 C 0.82958(10) 0.64581(11) 0.41809(8)
C51_7 C 0.77558(10) 0.68192(12) 0.37572(8)
C52_7 C 0.81689(11) 0.69918(14) 0.35754(9)
H29_7 H 0.8125 0.7176 0.3373
C53_7 C 0.83616(11) 0.61484(11) 0.45010(7)
C54_7 C 0.72506(10) 0.69047(11) 0.36068(8)
N8_7 N 0.97033(9) 0.66475(12) 0.36969(8)
N9_7 N 0.97623(9) 0.72194(13) 0.32257(8)
N12_7 N 0.90283(9) 0.70917(14) 0.34904(8)
H32_7 H 0.8940 0.7328 0.3354
O23_4 O 0.68915(7) 0.67056(9) 0.37636(6)
O24_4 O 0.72219(8) 0.71599(9) 0.33396(6)
O35_4 O 0.67056(9) 0.31085(7) 0.37636(6)
O37_4 O 0.71599(9) 0.27781(8) 0.33396(6)
C10_8 C 0.69733(16) 0.04839(11) 0.34748(10)
C13_8 C 0.79296(11) 0.01200(10) 0.22402(8)
C17_8 C 0.76688(14) 0.00544(11) 0.25454(9)
H6_8 H 0.7509 0.0320 0.2652
C19_8 C 0.79466(11) 0.06217(10) 0.20709(8)
C20_8 C 0.68964(14) 0.13580(11) 0.36963(9)
C21_8 C 0.66326(13) 0.12906(11) 0.40006(9)
H7_8 H 0.6573 0.0973 0.4085
C22_8 C 0.65488(11) 0.21755(11) 0.40598(8)
H8_8 H 0.6424 0.2448 0.4179
C23_8 C 0.64581(11) 0.17042(10) 0.41809(8)
C24_8 C 0.68192(12) 0.22442(10) 0.37572(8)
C25_8 C 0.69918(14) 0.18311(11) 0.35754(9)
H9_8 H 0.7176 0.1875 0.3373
C26_8 C 0.61484(11) 0.16384(11) 0.45010(7)
C27_8 C 0.69047(11) 0.27494(10) 0.36068(8)
N2_8 N 0.66475(12) 0.02967(9) 0.36969(8)
N3_8 N 0.72194(13) 0.02377(9) 0.32257(8)
N6_8 N 0.70917(14) 0.09717(9) 0.34904(8)
H12_8 H 0.7328 0.1060 0.3354
C28_8 C 0.37867(11) 0.21956(10) 0.35931(8)
C29_8 C 0.39499(11) 0.17560(10) 0.38019(8)
C30_8 C 0.37702(12) 0.12884(10) 0.37244(9)
H21_8 H 0.3533 0.1251 0.3551
C31_8 C 0.39404(13) 0.08760(11) 0.39140(9)
C32_8 C 0.42878(13) 0.09495(11) 0.41722(8)
H22_8 H 0.4404 0.0678 0.4297
C33_8 C 0.44658(11) 0.14170(10) 0.42526(8)
C34_8 C 0.48511(11) 0.14769(11) 0.45278(8)
C35_8 C 0.42907(11) 0.18259(10) 0.40698(8)
H23_8 H 0.4406 0.2142 0.4121
C36_8 C 0.34234(16) 0.02012(11) 0.36548(10)
C38_8 C 0.28768(16) 0.02431(12) 0.32201(10)
C39_8 C 0.18531(11) 0.02797(10) 0.20729(8)
H24_8 H 0.1676 0.0229 0.1868
C41_8 C 0.23555(15) 0.04222(11) 0.26893(9)
C42_8 C 0.21453(14) 0.08133(11) 0.25210(9)
H25_8 H 0.2174 0.1130 0.2615
C43_8 C 0.18858(12) 0.07491(10) 0.22137(8)
C45_8 C 0.16795(11) 0.11907(11) 0.20285(8)
N7_8 N 0.31844(15) 0.04901(9) 0.34309(9)
N10_8 N 0.26468(16) 0.05395(10) 0.29828(9)
H30_8 H 0.2667 0.0851 0.3028
N11_8 N 0.37700(13) 0.03887(9) 0.38709(8)
H31_8 H 0.3897 0.0178 0.4013
O17_8 O 0.39103(9) 0.26147(7) 0.37070(7)
O18_8 O 0.35445(8) 0.21222(7) 0.33217(6)
O25_8 O 0.42352(10) 0.36231(10) 0.39000(6)
H33_8 H 0.4519 0.3499 0.3938
H34_8 H 0.4141 0.3878 0.4012
O26_8 O 0.29616(11) 0.23327(11) 0.26424(9)
H35_8 H 0.2676 0.2436 0.2583
H36_8 H 0.3083 0.2076 0.2547
C1_8 C 0.62133(11) 0.78044(10) 0.35931(8)
C2_8 C 0.60501(11) 0.82440(10) 0.38019(8)
C3_8 C 0.62298(12) 0.87116(10) 0.37244(9)
H1_8 H 0.6467 0.8749 0.3551
C4_8 C 0.60596(13) 0.91240(11) 0.39140(9)
C5_8 C 0.57122(13) 0.90505(11) 0.41722(8)
H2_8 H 0.5596 0.9322 0.4297
C6_8 C 0.55342(11) 0.85830(10) 0.42526(8)
C7_8 C 0.51489(11) 0.85231(11) 0.45278(8)
C8_8 C 0.57093(11) 0.81741(10) 0.40698(8)
H3_8 H 0.5594 0.7858 0.4121
C9_8 C 0.65766(16) 0.97988(11) 0.36548(10)
C11_8 C 0.71232(16) 0.97569(12) 0.32201(10)
C12_8 C 0.81469(11) 0.97203(10) 0.20729(8)
H4_8 H 0.8324 0.9771 0.1868
C14_8 C 0.76445(15) 0.95778(11) 0.26893(9)
C15_8 C 0.78547(14) 0.91867(11) 0.25210(9)
H5_8 H 0.7826 0.8870 0.2615
C16_8 C 0.81142(12) 0.92509(10) 0.22137(8)
C18_8 C 0.83205(11) 0.88093(11) 0.20285(8)
N1_8 N 0.68156(15) 0.95099(9) 0.34309(9)
N4_8 N 0.73532(16) 0.94605(10) 0.29828(9)
H10_8 H 0.7333 0.9149 0.3028
N5_8 N 0.62300(13) 0.96113(9) 0.38709(8)
H11_8 H 0.6103 0.9822 0.4013
O1_8 O 0.60897(9) 0.73853(7) 0.37070(7)
O2_8 O 0.64555(8) 0.78778(7) 0.33217(6)
O11_8 O 0.57648(10) 0.63769(10) 0.39000(6)
H17_8 H 0.5481 0.6501 0.3938
H18_8 H 0.5859 0.6122 0.4012
O12_8 O 0.70384(11) 0.76673(11) 0.26424(9)
H19_8 H 0.7324 0.7564 0.2583
H20_8 H 0.6917 0.7924 0.2547
C37_8 C 0.30267(16) 0.95161(11) 0.34748(10)
C40_8 C 0.20704(11) 0.98800(10) 0.22402(8)
C44_8 C 0.23312(14) 0.99456(11) 0.25454(9)
H26_8 H 0.2491 0.9680 0.2652
C46_8 C 0.20534(11) 0.93783(10) 0.20709(8)
C47_8 C 0.31036(14) 0.86420(11) 0.36963(9)
C48_8 C 0.33674(13) 0.87094(11) 0.40006(9)
H27_8 H 0.3427 0.9027 0.4085
C49_8 C 0.34512(11) 0.78245(11) 0.40598(8)
H28_8 H 0.3576 0.7552 0.4179
C50_8 C 0.35419(11) 0.82958(10) 0.41809(8)
C51_8 C 0.31808(12) 0.77558(10) 0.37572(8)
C52_8 C 0.30082(14) 0.81689(11) 0.35754(9)
H29_8 H 0.2824 0.8125 0.3373
C53_8 C 0.38516(11) 0.83616(11) 0.45010(7)
C54_8 C 0.30953(11) 0.72506(10) 0.36068(8)
N8_8 N 0.33525(12) 0.97033(9) 0.36969(8)
N9_8 N 0.27806(13) 0.97623(9) 0.32257(8)
N12_8 N 0.29083(14) 0.90283(9) 0.34904(8)
H32_8 H 0.2672 0.8940 0.3354
loop_
_geom_bond_atom_site_label_1
_geom_bond_atom_site_label_2
_geom_bond_site_symmetry_1
_geom_bond_site_symmetry_2
Zn3 O1 1_555 1_555
Zn4 O2 1_555 1_555
C1 C2 1_555 1_555
C2 C3 1_555 1_555
C3 H1 1_555 1_555
C4 C3 1_555 1_555
C5 C4 1_555 1_555
H2 C5 1_555 1_555
C6 C5 1_555 1_555
C7 C6 1_555 1_555
C8 C2 1_555 1_555
H3 C8 1_555 1_555
C9 N1 1_555 1_555
C10 N2 1_555 1_555
C11 N1 1_555 1_555
C12 H4 1_555 1_555
C13 C12 1_555 1_555
C14 C15 1_555 1_555
C15 H5 1_555 1_555
C16 C12 1_555 1_555
C17 C13 1_555 1_555
H6 C17 1_555 1_555
C18 C16 1_555 1_555
C19 C13 1_555 1_555
C20 C21 1_555 1_555
C21 H7 1_555 1_555
C22 H8 1_555 1_555
C23 C21 1_555 1_555
C24 C22 1_555 1_555
C25 C20 1_555 1_555
H9 C25 1_555 1_555
C26 C23 1_555 1_555
C27 C24 1_555 1_555
N2 C9 1_555 1_555
N3 C10 1_555 1_555
N4 C11 1_555 1_555
H10 N4 1_555 1_555
N5 C4 1_555 1_555
H11 N5 1_555 1_555
N6 C10 1_555 1_555
H12 N6 1_555 1_555
O1 C1 1_555 1_555
O2 C1 1_555 1_555
O3 C7 1_555 1_555
O5 C26 1_555 1_555
O6 C26 1_555 1_555
O7 C27 1_555 1_555
O8 C27 1_555 1_555
O11 Zn3 1_555 1_555
H17 O11 1_555 1_555
H18 O11 1_555 1_555
O12 Zn4 1_555 1_555
H19 O12 1_555 1_555
H20 O12 1_555 1_555
O13 C18 1_555 1_555
O14 C18 1_555 1_555
O15 C19 1_555 1_555
O16 C19 1_555 1_555
Zn7 O5 1_555 1_555
Zn8 O6 1_555 1_555
Zn10 O7 1_555 1_555
Zn11 O14 1_555 1_555
Zn14 O15 1_555 1_555
Zn16 O8 1_555 1_555
Zn17 O13 1_555 1_555
Zn20 O16 1_555 1_555
O35 Zn3 1_555 1_555
O37 Zn4 1_555 1_555
O39 Zn4 1_555 1_555
O41 Zn3 1_555 1_555
O43 Zn3 1_555 1_555
O45 Zn4 1_555 1_555
C6 C8 1_555 1_555
C9 N5 1_555 1_555
C11 N3 1_555 1_555
C14 C17 1_555 1_555
C14 N4 1_555 1_555
C15 C16 1_555 1_555
C20 N6 1_555 1_555
C22 C23 1_555 1_555
C24 C25 1_555 1_555
O20 Zn7 1_555 1_555
Zn1 O4 1_555 1_555
O9 Zn1 1_555 1_555
H13 O9 1_555 1_555
H14 O9 1_555 1_555
O10 Zn2 1_555 1_555
H15 O10 1_555 1_555
H16 O10 1_555 1_555
Zn5 O17 1_555 1_555
Zn6 O18 1_555 1_555
C28 C29 1_555 1_555
C29 C30 1_555 1_555
C30 H21 1_555 1_555
C31 C30 1_555 1_555
C32 C31 1_555 1_555
H22 C32 1_555 1_555
C33 C32 1_555 1_555
C34 C33 1_555 1_555
C35 C29 1_555 1_555
H23 C35 1_555 1_555
C36 N7 1_555 1_555
C37 N8 1_555 1_555
C38 N7 1_555 1_555
C39 H24 1_555 1_555
C40 C39 1_555 1_555
C41 C42 1_555 1_555
C42 H25 1_555 1_555
C43 C39 1_555 1_555
C44 C40 1_555 1_555
H26 C44 1_555 1_555
C45 C43 1_555 1_555
C46 C40 1_555 1_555
C47 C48 1_555 1_555
C48 H27 1_555 1_555
C49 H28 1_555 1_555
C50 C48 1_555 1_555
C51 C49 1_555 1_555
C52 C47 1_555 1_555
H29 C52 1_555 1_555
C53 C50 1_555 1_555
C54 C51 1_555 1_555
N8 C36 1_555 1_555
N9 C37 1_555 1_555
N10 C38 1_555 1_555
H30 N10 1_555 1_555
N11 C31 1_555 1_555
H31 N11 1_555 1_555
N12 C37 1_555 1_555
H32 N12 1_555 1_555
O17 C28 1_555 1_555
O18 C28 1_555 1_555
O19 C34 1_555 1_555
O21 Zn1 1_555 1_555
O22 Zn2 1_555 1_555
O23 C54 1_555 1_555
O24 C54 1_555 1_555
O25 Zn5 1_555 1_555
H33 O25 1_555 1_555
H34 O25 1_555 1_555
O26 Zn6 1_555 1_555
H35 O26 1_555 1_555
H36 O26 1_555 1_555
O27 C45 1_555 1_555
O28 C45 1_555 1_555
O29 C46 1_555 1_555
O30 C46 1_555 1_555
Zn9 O23 1_555 1_555
Zn12 O28 1_555 1_555
Zn13 O29 1_555 1_555
Zn15 O24 1_555 1_555
Zn18 O27 1_555 1_555
Zn19 O30 1_555 1_555
O36 Zn5 1_555 1_555
O38 Zn6 1_555 1_555
O40 Zn6 1_555 1_555
O42 Zn5 1_555 1_555
O44 Zn5 1_555 1_555
O46 Zn6 1_555 1_555
C33 C35 1_555 1_555
C36 N11 1_555 1_555
C38 N9 1_555 1_555
C41 C44 1_555 1_555
C41 N10 1_555 1_555
C42 C43 1_555 1_555
C47 N12 1_555 1_555
C49 C50 1_555 1_555
C51 C52 1_555 1_555
C53 O21 1_555 1_555
C53 O22 1_555 1_555
O9_2 Zn1_2 1_555 1_555
H13_2 O9_2 1_555 1_555
H14_2 O9_2 1_555 1_555
O10_2 Zn2_2 1_555 1_555
H15_2 O10_2 1_555 1_555
H16_2 O10_2 1_555 1_555
O32 Zn1_2 1_555 1_555
O33 Zn1_2 1_555 1_555
O34 Zn2_2 1_555 1_555
O9_3 Zn7 1_555 1_555
H13_3 O9_3 1_555 1_555
H14_3 O9_3 1_555 1_555
O10_3 Zn8 1_555 1_555
H15_3 O10_3 1_555 1_555
H16_3 O10_3 1_555 1_555
O9_4 Zn7_2 1_555 1_555
H13_4 O9_4 1_555 1_555
H14_4 O9_4 1_555 1_555
O10_4 Zn8_2 1_555 1_555
H15_4 O10_4 1_555 1_555
H16_4 O10_4 1_555 1_555
O32_2 Zn7_2 1_555 1_555
O33_2 Zn7_2 1_555 1_555
O34_2 Zn8_2 1_555 1_555
Zn1_3 O4_2 1_555 1_555
O9_5 Zn1_3 1_555 1_555
H13_5 O9_5 1_555 1_555
H14_5 O9_5 1_555 1_555
O10_5 Zn2_3 1_555 1_555
H15_5 O10_5 1_555 1_555
H16_5 O10_5 1_555 1_555
Zn10 O17_2 1_555 1_555
Zn16 O18_2 1_555 1_555
C28_2 C29_2 1_555 1_555
C29_2 C30_2 1_555 1_555
C30_2 H21_2 1_555 1_555
C31_2 C30_2 1_555 1_555
C32_2 C31_2 1_555 1_555
H22_2 C32_2 1_555 1_555
C33_2 C32_2 1_555 1_555
C34_2 C33_2 1_555 1_555
C35_2 C29_2 1_555 1_555
H23_2 C35_2 1_555 1_555
C36_2 N7_2 1_555 1_555
C37_2 N8_2 1_555 1_555
C38_2 N7_2 1_555 1_555
C39_2 H24_2 1_555 1_555
C40_2 C39_2 1_555 1_555
C41_2 C42_2 1_555 1_555
C42_2 H25_2 1_555 1_555
C43_2 C39_2 1_555 1_555
C44_2 C40_2 1_555 1_555
H26_2 C44_2 1_555 1_555
C45_2 C43_2 1_555 1_555
C46_2 C40_2 1_555 1_555
C47_2 C48_2 1_555 1_555
C48_2 H27_2 1_555 1_555
C49_2 H28_2 1_555 1_555
C50_2 C48_2 1_555 1_555
C51_2 C49_2 1_555 1_555
C52_2 C47_2 1_555 1_555
H29_2 C52_2 1_555 1_555
C53_2 C50_2 1_555 1_555
C54_2 C51_2 1_555 1_555
N8_2 C36_2 1_555 1_555
N9_2 C37_2 1_555 1_555
N10_2 C38_2 1_555 1_555
H30_2 N10_2 1_555 1_555
N11_2 C31_2 1_555 1_555
H31_2 N11_2 1_555 1_555
N12_2 C37_2 1_555 1_555
H32_2 N12_2 1_555 1_555
O17_2 C28_2 1_555 1_555
O18_2 C28_2 1_555 1_555
O19_2 C34_2 1_555 1_555
O21_2 Zn1_3 1_555 1_555
O22_2 Zn2_3 1_555 1_555
O36 C54_2 1_555 1_555
O38 C54_2 1_555 1_555
O25_2 Zn10 1_555 1_555
H33_2 O25_2 1_555 1_555
H34_2 O25_2 1_555 1_555
O26_2 Zn16 1_555 1_555
H35_2 O26_2 1_555 1_555
H36_2 O26_2 1_555 1_555
O27_2 C45_2 1_555 1_555
O28_2 C45_2 1_555 1_555
O29_2 C46_2 1_555 1_555
O30_2 C46_2 1_555 1_555
Zn14 O28_2 1_555 1_555
Zn12 O29_2 1_555 1_555
Zn20 O27_2 1_555 1_555
Zn18 O30_2 1_555 1_555
O40_2 Zn16 1_555 1_555
O42_2 Zn10 1_555 1_555
O44_2 Zn10 1_555 1_555
O46_2 Zn16 1_555 1_555
C33_2 C35_2 1_555 1_555
C36_2 N11_2 1_555 1_555
C38_2 N9_2 1_555 1_555
C41_2 C44_2 1_555 1_555
C41_2 N10_2 1_555 1_555
C42_2 C43_2 1_555 1_555
C47_2 N12_2 1_555 1_555
C49_2 C50_2 1_555 1_555
C51_2 C52_2 1_555 1_555
C53_2 O21_2 1_555 1_555
C53_2 O22_2 1_555 1_555
O9_6 Zn1_4 1_555 1_555
H13_6 O9_6 1_555 1_555
H14_6 O9_6 1_555 1_555
O10_6 Zn2_4 1_555 1_555
H15_6 O10_6 1_555 1_555
H16_6 O10_6 1_555 1_555
O32_3 Zn1_4 1_555 1_555
O33_3 Zn1_4 1_555 1_555
O34_3 Zn2_4 1_555 1_555
Zn9 O1_2 1_555 1_555
Zn15 O2_2 1_555 1_555
C1_2 C2_2 1_555 1_555
C2_2 C3_2 1_555 1_555
C3_2 H1_2 1_555 1_555
C4_2 C3_2 1_555 1_555
C5_2 C4_2 1_555 1_555
H2_2 C5_2 1_555 1_555
C6_2 C5_2 1_555 1_555
C7_2 C6_2 1_555 1_555
C8_2 C2_2 1_555 1_555
H3_2 C8_2 1_555 1_555
C9_2 N1_2 1_555 1_555
C10_2 N2_2 1_555 1_555
C11_2 N1_2 1_555 1_555
C12_2 H4_2 1_555 1_555
C13_2 C12_2 1_555 1_555
C14_2 C15_2 1_555 1_555
C15_2 H5_2 1_555 1_555
C16_2 C12_2 1_555 1_555
C17_2 C13_2 1_555 1_555
H6_2 C17_2 1_555 1_555
C18_2 C16_2 1_555 1_555
C19_2 C13_2 1_555 1_555
C20_2 C21_2 1_555 1_555
C21_2 H7_2 1_555 1_555
C22_2 H8_2 1_555 1_555
C23_2 C21_2 1_555 1_555
C24_2 C22_2 1_555 1_555
C25_2 C20_2 1_555 1_555
H9_2 C25_2 1_555 1_555
C26_2 C23_2 1_555 1_555
C27_2 C24_2 1_555 1_555
N2_2 C9_2 1_555 1_555
N3_2 C10_2 1_555 1_555
N4_2 C11_2 1_555 1_555
H10_2 N4_2 1_555 1_555
N5_2 C4_2 1_555 1_555
H11_2 N5_2 1_555 1_555
N6_2 C10_2 1_555 1_555
H12_2 N6_2 1_555 1_555
O1_2 C1_2 1_555 1_555
O2_2 C1_2 1_555 1_555
O3_2 C7_2 1_555 1_555
O5_2 C26_2 1_555 1_555
O6_2 C26_2 1_555 1_555
O35 C27_2 1_555 1_555
O37 C27_2 1_555 1_555
O11_2 Zn9 1_555 1_555
H17_2 O11_2 1_555 1_555
H18_2 O11_2 1_555 1_555
O12_2 Zn15 1_555 1_555
H19_2 O12_2 1_555 1_555
H20_2 O12_2 1_555 1_555
O13_2 C18_2 1_555 1_555
O14_2 C18_2 1_555 1_555
O15_2 C19_2 1_555 1_555
O16_2 C19_2 1_555 1_555
Zn7_3 O5_2 1_555 1_555
Zn8_3 O6_2 1_555 1_555
Zn13 O14_2 1_555 1_555
Zn11 O15_2 1_555 1_555
Zn19 O13_2 1_555 1_555
Zn17 O16_2 1_555 1_555
O39_2 Zn15 1_555 1_555
O41_2 Zn9 1_555 1_555
O43_2 Zn9 1_555 1_555
O45_2 Zn15 1_555 1_555
C6_2 C8_2 1_555 1_555
C9_2 N5_2 1_555 1_555
C11_2 N3_2 1_555 1_555
C14_2 C17_2 1_555 1_555
C14_2 N4_2 1_555 1_555
C15_2 C16_2 1_555 1_555
C20_2 N6_2 1_555 1_555
C22_2 C23_2 1_555 1_555
C24_2 C25_2 1_555 1_555
O20_2 Zn7_3 1_555 1_555
O9_7 Zn7_3 1_555 1_555
H13_7 O9_7 1_555 1_555
H14_7 O9_7 1_555 1_555
O10_7 Zn8_3 1_555 1_555
H15_7 O10_7 1_555 1_555
H16_7 O10_7 1_555 1_555
O9_8 Zn7_4 1_555 1_555
H13_8 O9_8 1_555 1_555
H14_8 O9_8 1_555 1_555
O10_8 Zn8_4 1_555 1_555
H15_8 O10_8 1_555 1_555
H16_8 O10_8 1_555 1_555
O32_4 Zn7_4 1_555 1_555
O33_4 Zn7_4 1_555 1_555
O34_4 Zn8_4 1_555 1_555
Zn1_5 O4_3 1_555 1_555
Zn2_5 O3_3 1_555 1_555
Zn3_2 O1_3 1_555 1_555
Zn4_2 O2_3 1_555 1_555
C1_3 C2_3 1_555 1_555
C2_3 C3_3 1_555 1_555
C3_3 H1_3 1_555 1_555
C4_3 C3_3 1_555 1_555
C5_3 C4_3 1_555 1_555
H2_3 C5_3 1_555 1_555
C6_3 C5_3 1_555 1_555
C7_3 C6_3 1_555 1_555
C8_3 C2_3 1_555 1_555
H3_3 C8_3 1_555 1_555
C9_3 N1_3 1_555 1_555
C11_3 N1_3 1_555 1_555
C12_3 H4_3 1_555 1_555
C14_3 C15_3 1_555 1_555
C15_3 H5_3 1_555 1_555
C16_3 C12_3 1_555 1_555
C18_3 C16_3 1_555 1_555
N4_3 C11_3 1_555 1_555
H10_3 N4_3 1_555 1_555
N5_3 C4_3 1_555 1_555
H11_3 N5_3 1_555 1_555
O1_3 C1_3 1_555 1_555
O2_3 C1_3 1_555 1_555
O3_3 C7_3 1_555 1_555
O4_3 C7_3 1_555 1_555
O9_9 Zn1_5 1_555 1_555
H13_9 O9_9 1_555 1_555
H14_9 O9_9 1_555 1_555
O10_9 Zn2_5 1_555 1_555
H15_9 O10_9 1_555 1_555
H16_9 O10_9 1_555 1_555
O11_3 Zn3_2 1_555 1_555
H17_3 O11_3 1_555 1_555
H18_3 O11_3 1_555 1_555
O12_3 Zn4_2 1_555 1_555
H19_3 O12_3 1_555 1_555
H20_3 O12_3 1_555 1_555
O13_3 C18_3 1_555 1_555
O14_3 C18_3 1_555 1_555
C37_3 N8_3 1_555 1_555
C44_3 C40_3 1_555 1_555
H26_3 C44_3 1_555 1_555
C46_3 C40_3 1_555 1_555
C47_3 C48_3 1_555 1_555
C48_3 H27_3 1_555 1_555
C49_3 H28_3 1_555 1_555
C50_3 C48_3 1_555 1_555
C51_3 C49_3 1_555 1_555
C52_3 C47_3 1_555 1_555
H29_3 C52_3 1_555 1_555
C53_3 C50_3 1_555 1_555
C54_3 C51_3 1_555 1_555
N9_3 C37_3 1_555 1_555
N12_3 C37_3 1_555 1_555
H32_3 N12_3 1_555 1_555
O21_3 Zn1_5 1_555 1_555
O22_3 Zn2_5 1_555 1_555
O23_2 C54_3 1_555 1_555
O24_2 C54_3 1_555 1_555
O29_3 C46_3 1_555 1_555
O30_3 C46_3 1_555 1_555
Zn9_2 O23_2 1_555 1_555
Zn11_2 O14_3 1_555 1_555
Zn13_2 O29_3 1_555 1_555
Zn15_2 O24_2 1_555 1_555
Zn17_2 O13_3 1_555 1_555
Zn19_2 O30_3 1_555 1_555
O31_5 Zn2_5 1_555 1_555
O32_5 Zn1_5 1_555 1_555
O33_5 Zn1_5 1_555 1_555
O34_5 Zn2_5 1_555 1_555
O35_2 Zn3_2 1_555 1_555
O37_2 Zn4_2 1_555 1_555
O39_3 Zn4_2 1_555 1_555
O41_3 Zn3_2 1_555 1_555
O43_3 Zn3_2 1_555 1_555
O45_3 Zn4_2 1_555 1_555
C6_3 C8_3 1_555 1_555
C9_3 N5_3 1_555 1_555
C14_3 N4_3 1_555 1_555
C15_3 C16_3 1_555 1_555
C47_3 N12_3 1_555 1_555
C49_3 C50_3 1_555 1_555
C51_3 C52_3 1_555 1_555
C53_3 O21_3 1_555 1_555
C53_3 O22_3 1_555 1_555
C10_3 N2_3 1_555 1_555
C17_3 C13_3 1_555 1_555
H6_3 C17_3 1_555 1_555
C19_3 C13_3 1_555 1_555
C20_3 C21_3 1_555 1_555
C21_3 H7_3 1_555 1_555
C22_3 H8_3 1_555 1_555
C23_3 C21_3 1_555 1_555
C24_3 C22_3 1_555 1_555
C25_3 C20_3 1_555 1_555
H9_3 C25_3 1_555 1_555
C26_3 C23_3 1_555 1_555
C27_3 C24_3 1_555 1_555
N3_3 C10_3 1_555 1_555
N6_3 C10_3 1_555 1_555
H12_3 N6_3 1_555 1_555
O5_3 C26_3 1_555 1_555
O6_3 C26_3 1_555 1_555
O7_2 C27_3 1_555 1_555
O8_2 C27_3 1_555 1_555
O15_3 C19_3 1_555 1_555
O16_3 C19_3 1_555 1_555
Zn5_2 O17_3 1_555 1_555
Zn6_2 O18_3 1_555 1_555
C28_3 C29_3 1_555 1_555
C29_3 C30_3 1_555 1_555
C30_3 H21_3 1_555 1_555
C31_3 C30_3 1_555 1_555
C32_3 C31_3 1_555 1_555
H22_3 C32_3 1_555 1_555
C33_3 C32_3 1_555 1_555
C34_3 C33_3 1_555 1_555
C35_3 C29_3 1_555 1_555
H23_3 C35_3 1_555 1_555
C36_3 N7_3 1_555 1_555
C38_3 N7_3 1_555 1_555
C39_3 H24_3 1_555 1_555
C41_3 C42_3 1_555 1_555
C42_3 H25_3 1_555 1_555
C43_3 C39_3 1_555 1_555
C45_3 C43_3 1_555 1_555
N10_3 C38_3 1_555 1_555
H30_3 N10_3 1_555 1_555
N11_3 C31_3 1_555 1_555
H31_3 N11_3 1_555 1_555
O17_3 C28_3 1_555 1_555
O18_3 C28_3 1_555 1_555
O19_3 C34_3 1_555 1_555
O20_3 C34_3 1_555 1_555
O25_3 Zn5_2 1_555 1_555
H33_3 O25_3 1_555 1_555
H34_3 O25_3 1_555 1_555
O26_3 Zn6_2 1_555 1_555
H35_3 O26_3 1_555 1_555
H36_3 O26_3 1_555 1_555
O27_3 C45_3 1_555 1_555
O28_3 C45_3 1_555 1_555
Zn7_5 O5_3 1_555 1_555
Zn8_5 O6_3 1_555 1_555
Zn10_2 O7_2 1_555 1_555
Zn12_2 O28_3 1_555 1_555
Zn14_2 O15_3 1_555 1_555
Zn16_2 O8_2 1_555 1_555
Zn18_2 O27_3 1_555 1_555
Zn20_2 O16_3 1_555 1_555
O36_2 Zn5_2 1_555 1_555
O38_2 Zn6_2 1_555 1_555
O40_3 Zn6_2 1_555 1_555
O42_3 Zn5_2 1_555 1_555
O44_3 Zn5_2 1_555 1_555
O46_3 Zn6_2 1_555 1_555
C20_3 N6_3 1_555 1_555
C22_3 C23_3 1_555 1_555
C24_3 C25_3 1_555 1_555
C33_3 C35_3 1_555 1_555
C36_3 N11_3 1_555 1_555
C41_3 N10_3 1_555 1_555
C42_3 C43_3 1_555 1_555
O19_3 Zn8_5 1_555 1_555
O20_3 Zn7_5 1_555 1_555
O9_10 Zn7_5 1_555 1_555
H13_10 O9_10 1_555 1_555
H14_10 O9_10 1_555 1_555
O10_10 Zn8_5 1_555 1_555
H15_10 O10_10 1_555 1_555
H16_10 O10_10 1_555 1_555
O31_6 Zn8_5 1_555 1_555
O32_6 Zn7_5 1_555 1_555
O33_6 Zn7_5 1_555 1_555
O34_6 Zn8_5 1_555 1_555
Zn1_6 O4_4 1_555 1_555
Zn2_6 O3_4 1_555 1_555
Zn9_2 O1_4 1_555 1_555
Zn15_2 O2_4 1_555 1_555
C1_4 C2_4 1_555 1_555
C2_4 C3_4 1_555 1_555
C3_4 H1_4 1_555 1_555
C4_4 C3_4 1_555 1_555
C5_4 C4_4 1_555 1_555
H2_4 C5_4 1_555 1_555
C6_4 C5_4 1_555 1_555
C7_4 C6_4 1_555 1_555
C8_4 C2_4 1_555 1_555
H3_4 C8_4 1_555 1_555
C9_4 N1_4 1_555 1_555
C11_4 N1_4 1_555 1_555
C12_4 H4_4 1_555 1_555
C14_4 C15_4 1_555 1_555
C15_4 H5_4 1_555 1_555
C16_4 C12_4 1_555 1_555
C18_4 C16_4 1_555 1_555
N4_4 C11_4 1_555 1_555
H10_4 N4_4 1_555 1_555
N5_4 C4_4 1_555 1_555
H11_4 N5_4 1_555 1_555
O1_4 C1_4 1_555 1_555
O2_4 C1_4 1_555 1_555
O3_4 C7_4 1_555 1_555
O4_4 C7_4 1_555 1_555
O9_11 Zn1_6 1_555 1_555
H13_11 O9_11 1_555 1_555
H14_11 O9_11 1_555 1_555
O10_11 Zn2_6 1_555 1_555
H15_11 O10_11 1_555 1_555
H16_11 O10_11 1_555 1_555
O11_4 Zn9_2 1_555 1_555
H17_4 O11_4 1_555 1_555
H18_4 O11_4 1_555 1_555
O12_4 Zn15_2 1_555 1_555
H19_4 O12_4 1_555 1_555
H20_4 O12_4 1_555 1_555
O13_4 C18_4 1_555 1_555
O14_4 C18_4 1_555 1_555
C37_4 N8_4 1_555 1_555
C44_4 C40_4 1_555 1_555
H26_4 C44_4 1_555 1_555
C46_4 C40_4 1_555 1_555
C47_4 C48_4 1_555 1_555
C48_4 H27_4 1_555 1_555
C49_4 H28_4 1_555 1_555
C50_4 C48_4 1_555 1_555
C51_4 C49_4 1_555 1_555
C52_4 C47_4 1_555 1_555
H29_4 C52_4 1_555 1_555
C53_4 C50_4 1_555 1_555
C54_4 C51_4 1_555 1_555
N9_4 C37_4 1_555 1_555
N12_4 C37_4 1_555 1_555
H32_4 N12_4 1_555 1_555
O21_4 Zn1_6 1_555 1_555
O22_4 Zn2_6 1_555 1_555
O36_2 C54_4 1_555 1_555
O38_2 C54_4 1_555 1_555
O29_4 C46_4 1_555 1_555
O30_4 C46_4 1_555 1_555
Zn13_2 O14_4 1_555 1_555
Zn12_2 O29_4 1_555 1_555
Zn19_2 O13_4 1_555 1_555
Zn18_2 O30_4 1_555 1_555
O31_7 Zn2_6 1_555 1_555
O32_7 Zn1_6 1_555 1_555
O33_7 Zn1_6 1_555 1_555
O34_7 Zn2_6 1_555 1_555
O39_4 Zn15_2 1_555 1_555
O41_4 Zn9_2 1_555 1_555
O43_4 Zn9_2 1_555 1_555
O45_4 Zn15_2 1_555 1_555
C6_4 C8_4 1_555 1_555
C9_4 N5_4 1_555 1_555
C14_4 N4_4 1_555 1_555
C15_4 C16_4 1_555 1_555
C47_4 N12_4 1_555 1_555
C49_4 C50_4 1_555 1_555
C51_4 C52_4 1_555 1_555
C53_4 O21_4 1_555 1_555
C53_4 O22_4 1_555 1_555
C10_4 N2_4 1_555 1_555
C17_4 C13_4 1_555 1_555
H6_4 C17_4 1_555 1_555
C19_4 C13_4 1_555 1_555
C20_4 C21_4 1_555 1_555
C21_4 H7_4 1_555 1_555
C22_4 H8_4 1_555 1_555
C23_4 C21_4 1_555 1_555
C24_4 C22_4 1_555 1_555
C25_4 C20_4 1_555 1_555
H9_4 C25_4 1_555 1_555
C26_4 C23_4 1_555 1_555
C27_4 C24_4 1_555 1_555
N3_4 C10_4 1_555 1_555
N6_4 C10_4 1_555 1_555
H12_4 N6_4 1_555 1_555
O5_4 C26_4 1_555 1_555
O6_4 C26_4 1_555 1_555
O35_2 C27_4 1_555 1_555
O37_2 C27_4 1_555 1_555
O15_4 C19_4 1_555 1_555
O16_4 C19_4 1_555 1_555
Zn10_2 O17_4 1_555 1_555
Zn16_2 O18_4 1_555 1_555
C28_4 C29_4 1_555 1_555
C29_4 C30_4 1_555 1_555
C30_4 H21_4 1_555 1_555
C31_4 C30_4 1_555 1_555
C32_4 C31_4 1_555 1_555
H22_4 C32_4 1_555 1_555
C33_4 C32_4 1_555 1_555
C34_4 C33_4 1_555 1_555
C35_4 C29_4 1_555 1_555
H23_4 C35_4 1_555 1_555
C36_4 N7_4 1_555 1_555
C38_4 N7_4 1_555 1_555
C39_4 H24_4 1_555 1_555
C41_4 C42_4 1_555 1_555
C42_4 H25_4 1_555 1_555
C43_4 C39_4 1_555 1_555
C45_4 C43_4 1_555 1_555
N10_4 C38_4 1_555 1_555
H30_4 N10_4 1_555 1_555
N11_4 C31_4 1_555 1_555
H31_4 N11_4 1_555 1_555
O17_4 C28_4 1_555 1_555
O18_4 C28_4 1_555 1_555
O19_4 C34_4 1_555 1_555
O20_4 C34_4 1_555 1_555
O25_4 Zn10_2 1_555 1_555
H33_4 O25_4 1_555 1_555
H34_4 O25_4 1_555 1_555
O26_4 Zn16_2 1_555 1_555
H35_4 O26_4 1_555 1_555
H36_4 O26_4 1_555 1_555
O27_4 C45_4 1_555 1_555
O28_4 C45_4 1_555 1_555
Zn7_6 O5_4 1_555 1_555
Zn8_6 O6_4 1_555 1_555
Zn14_2 O28_4 1_555 1_555
Zn11_2 O15_4 1_555 1_555
Zn20_2 O27_4 1_555 1_555
Zn17_2 O16_4 1_555 1_555
O40_4 Zn16_2 1_555 1_555
O42_4 Zn10_2 1_555 1_555
O44_4 Zn10_2 1_555 1_555
O46_4 Zn16_2 1_555 1_555
C20_4 N6_4 1_555 1_555
C22_4 C23_4 1_555 1_555
C24_4 C25_4 1_555 1_555
C33_4 C35_4 1_555 1_555
C36_4 N11_4 1_555 1_555
C41_4 N10_4 1_555 1_555
C42_4 C43_4 1_555 1_555
O19_4 Zn8_6 1_555 1_555
O20_4 Zn7_6 1_555 1_555
O9_12 Zn7_6 1_555 1_555
H13_12 O9_12 1_555 1_555
H14_12 O9_12 1_555 1_555
O10_12 Zn8_6 1_555 1_555
H15_12 O10_12 1_555 1_555
H16_12 O10_12 1_555 1_555
O31_8 Zn8_6 1_555 1_555
O32_8 Zn7_6 1_555 1_555
O33_8 Zn7_6 1_555 1_555
O34_8 Zn8_6 1_555 1_555
Zn12_2 O17_5 1_555 1_555
Zn18_2 O18_5 1_555 1_555
C28_5 C29_5 1_555 1_555
C29_5 C30_5 1_555 1_555
C30_5 H21_5 1_555 1_555
C31_5 C30_5 1_555 1_555
C32_5 C31_5 1_555 1_555
H22_5 C32_5 1_555 1_555
C33_5 C32_5 1_555 1_555
C34_5 C33_5 1_555 1_555
C35_5 C29_5 1_555 1_555
H23_5 C35_5 1_555 1_555
C36_5 N7_5 1_555 1_555
C37_5 N8_5 1_555 1_555
C38_5 N7_5 1_555 1_555
C39_5 H24_5 1_555 1_555
C40_5 C39_5 1_555 1_555
C41_5 C42_5 1_555 1_555
C42_5 H25_5 1_555 1_555
C43_5 C39_5 1_555 1_555
C44_5 C40_5 1_555 1_555
H26_5 C44_5 1_555 1_555
C45_5 C43_5 1_555 1_555
C46_5 C40_5 1_555 1_555
C47_5 C48_5 1_555 1_555
C48_5 H27_5 1_555 1_555
C49_5 H28_5 1_555 1_555
C50_5 C48_5 1_555 1_555
C51_5 C49_5 1_555 1_555
C52_5 C47_5 1_555 1_555
H29_5 C52_5 1_555 1_555
C53_5 C50_5 1_555 1_555
C54_5 C51_5 1_555 1_555
N8_5 C36_5 1_555 1_555
N9_5 C37_5 1_555 1_555
N10_5 C38_5 1_555 1_555
H30_5 N10_5 1_555 1_555
N11_5 C31_5 1_555 1_555
H31_5 N11_5 1_555 1_555
N12_5 C37_5 1_555 1_555
H32_5 N12_5 1_555 1_555
O17_5 C28_5 1_555 1_555
O18_5 C28_5 1_555 1_555
O31 C34_5 1_555 1_555
O23_3 C54_5 1_555 1_555
O24_3 C54_5 1_555 1_555
O25_5 Zn12_2 1_555 1_555
H33_5 O25_5 1_555 1_555
H34_5 O25_5 1_555 1_555
O26_5 Zn18_2 1_555 1_555
H35_5 O26_5 1_555 1_555
H36_5 O26_5 1_555 1_555
O40_3 C45_5 1_555 1_555
O42_3 C45_5 1_555 1_555
O43_4 C46_5 1_555 1_555
O45_4 C46_5 1_555 1_555
Zn13_2 O23_3 1_555 1_555
Zn19_2 O24_3 1_555 1_555
O36_3 Zn12_2 1_555 1_555
O38_3 Zn18_2 1_555 1_555
C33_5 C35_5 1_555 1_555
C36_5 N11_5 1_555 1_555
C38_5 N9_5 1_555 1_555
C41_5 C44_5 1_555 1_555
C41_5 N10_5 1_555 1_555
C42_5 C43_5 1_555 1_555
C47_5 N12_5 1_555 1_555
C49_5 C50_5 1_555 1_555
C51_5 C52_5 1_555 1_555
C53_5 O33_2 1_555 1_555
C53_5 O34_2 1_555 1_555
Zn11_2 O1_5 1_555 1_555
Zn17_2 O2_5 1_555 1_555
C1_5 C2_5 1_555 1_555
C2_5 C3_5 1_555 1_555
C3_5 H1_5 1_555 1_555
C4_5 C3_5 1_555 1_555
C5_5 C4_5 1_555 1_555
H2_5 C5_5 1_555 1_555
C6_5 C5_5 1_555 1_555
C7_5 C6_5 1_555 1_555
C8_5 C2_5 1_555 1_555
H3_5 C8_5 1_555 1_555
C9_5 N1_5 1_555 1_555
C10_5 N2_5 1_555 1_555
C11_5 N1_5 1_555 1_555
C12_5 H4_5 1_555 1_555
C13_5 C12_5 1_555 1_555
C14_5 C15_5 1_555 1_555
C15_5 H5_5 1_555 1_555
C16_5 C12_5 1_555 1_555
C17_5 C13_5 1_555 1_555
H6_5 C17_5 1_555 1_555
C18_5 C16_5 1_555 1_555
C19_5 C13_5 1_555 1_555
C20_5 C21_5 1_555 1_555
C21_5 H7_5 1_555 1_555
C22_5 H8_5 1_555 1_555
C23_5 C21_5 1_555 1_555
C24_5 C22_5 1_555 1_555
C25_5 C20_5 1_555 1_555
H9_5 C25_5 1_555 1_555
C26_5 C23_5 1_555 1_555
C27_5 C24_5 1_555 1_555
N2_5 C9_5 1_555 1_555
N3_5 C10_5 1_555 1_555
N4_5 C11_5 1_555 1_555
H10_5 N4_5 1_555 1_555
N5_5 C4_5 1_555 1_555
H11_5 N5_5 1_555 1_555
N6_5 C10_5 1_555 1_555
H12_5 N6_5 1_555 1_555
O1_5 C1_5 1_555 1_555
O2_5 C1_5 1_555 1_555
O31_2 C7_5 1_555 1_555
O33 C26_5 1_555 1_555
O34 C26_5 1_555 1_555
O7_3 C27_5 1_555 1_555
O8_3 C27_5 1_555 1_555
O11_5 Zn11_2 1_555 1_555
H17_5 O11_5 1_555 1_555
H18_5 O11_5 1_555 1_555
O12_5 Zn17_2 1_555 1_555
H19_5 O12_5 1_555 1_555
H20_5 O12_5 1_555 1_555
O39_3 C18_5 1_555 1_555
O41_3 C18_5 1_555 1_555
O44_4 C19_5 1_555 1_555
O46_4 C19_5 1_555 1_555
Zn14_2 O7_3 1_555 1_555
Zn20_2 O8_3 1_555 1_555
O35_3 Zn11_2 1_555 1_555
O37_3 Zn17_2 1_555 1_555
C6_5 C8_5 1_555 1_555
C9_5 N5_5 1_555 1_555
C11_5 N3_5 1_555 1_555
C14_5 C17_5 1_555 1_555
C14_5 N4_5 1_555 1_555
C15_5 C16_5 1_555 1_555
C20_5 N6_5 1_555 1_555
C22_5 C23_5 1_555 1_555
C24_5 C25_5 1_555 1_555
Zn13_2 O1_6 1_555 1_555
Zn19_2 O2_6 1_555 1_555
C1_6 C2_6 1_555 1_555
C2_6 C3_6 1_555 1_555
C3_6 H1_6 1_555 1_555
C4_6 C3_6 1_555 1_555
C5_6 C4_6 1_555 1_555
H2_6 C5_6 1_555 1_555
C6_6 C5_6 1_555 1_555
C7_6 C6_6 1_555 1_555
C8_6 C2_6 1_555 1_555
H3_6 C8_6 1_555 1_555
C9_6 N1_6 1_555 1_555
C10_6 N2_6 1_555 1_555
C11_6 N1_6 1_555 1_555
C12_6 H4_6 1_555 1_555
C13_6 C12_6 1_555 1_555
C14_6 C15_6 1_555 1_555
C15_6 H5_6 1_555 1_555
C16_6 C12_6 1_555 1_555
C17_6 C13_6 1_555 1_555
H6_6 C17_6 1_555 1_555
C18_6 C16_6 1_555 1_555
C19_6 C13_6 1_555 1_555
C20_6 C21_6 1_555 1_555
C21_6 H7_6 1_555 1_555
C22_6 H8_6 1_555 1_555
C23_6 C21_6 1_555 1_555
C24_6 C22_6 1_555 1_555
C25_6 C20_6 1_555 1_555
H9_6 C25_6 1_555 1_555
C26_6 C23_6 1_555 1_555
C27_6 C24_6 1_555 1_555
N2_6 C9_6 1_555 1_555
N3_6 C10_6 1_555 1_555
N4_6 C11_6 1_555 1_555
H10_6 N4_6 1_555 1_555
N5_6 C4_6 1_555 1_555
H11_6 N5_6 1_555 1_555
N6_6 C10_6 1_555 1_555
H12_6 N6_6 1_555 1_555
O1_6 C1_6 1_555 1_555
O2_6 C1_6 1_555 1_555
O31_4 C7_6 1_555 1_555
O33_3 C26_6 1_555 1_555
O34_3 C26_6 1_555 1_555
O35_3 C27_6 1_555 1_555
O37_3 C27_6 1_555 1_555
O11_6 Zn13_2 1_555 1_555
H17_6 O11_6 1_555 1_555
H18_6 O11_6 1_555 1_555
O12_6 Zn19_2 1_555 1_555
H19_6 O12_6 1_555 1_555
H20_6 O12_6 1_555 1_555
O39_4 C18_6 1_555 1_555
O41_4 C18_6 1_555 1_555
O43_3 C19_6 1_555 1_555
O45_3 C19_6 1_555 1_555
C6_6 C8_6 1_555 1_555
C9_6 N5_6 1_555 1_555
C11_6 N3_6 1_555 1_555
C14_6 C17_6 1_555 1_555
C14_6 N4_6 1_555 1_555
C15_6 C16_6 1_555 1_555
C20_6 N6_6 1_555 1_555
C22_6 C23_6 1_555 1_555
C24_6 C25_6 1_555 1_555
Zn14_2 O17_6 1_555 1_555
Zn20_2 O18_6 1_555 1_555
C28_6 C29_6 1_555 1_555
C29_6 C30_6 1_555 1_555
C30_6 H21_6 1_555 1_555
C31_6 C30_6 1_555 1_555
C32_6 C31_6 1_555 1_555
H22_6 C32_6 1_555 1_555
C33_6 C32_6 1_555 1_555
C34_6 C33_6 1_555 1_555
C35_6 C29_6 1_555 1_555
H23_6 C35_6 1_555 1_555
C36_6 N7_6 1_555 1_555
C37_6 N8_6 1_555 1_555
C38_6 N7_6 1_555 1_555
C39_6 H24_6 1_555 1_555
C40_6 C39_6 1_555 1_555
C41_6 C42_6 1_555 1_555
C42_6 H25_6 1_555 1_555
C43_6 C39_6 1_555 1_555
C44_6 C40_6 1_555 1_555
H26_6 C44_6 1_555 1_555
C45_6 C43_6 1_555 1_555
C46_6 C40_6 1_555 1_555
C47_6 C48_6 1_555 1_555
C48_6 H27_6 1_555 1_555
C49_6 H28_6 1_555 1_555
C50_6 C48_6 1_555 1_555
C51_6 C49_6 1_555 1_555
C52_6 C47_6 1_555 1_555
H29_6 C52_6 1_555 1_555
C53_6 C50_6 1_555 1_555
C54_6 C51_6 1_555 1_555
N8_6 C36_6 1_555 1_555
N9_6 C37_6 1_555 1_555
N10_6 C38_6 1_555 1_555
H30_6 N10_6 1_555 1_555
N11_6 C31_6 1_555 1_555
H31_6 N11_6 1_555 1_555
N12_6 C37_6 1_555 1_555
H32_6 N12_6 1_555 1_555
O17_6 C28_6 1_555 1_555
O18_6 C28_6 1_555 1_555
O31_3 C34_6 1_555 1_555
O36_3 C54_6 1_555 1_555
O38_3 C54_6 1_555 1_555
O25_6 Zn14_2 1_555 1_555
H33_6 O25_6 1_555 1_555
H34_6 O25_6 1_555 1_555
O26_6 Zn20_2 1_555 1_555
H35_6 O26_6 1_555 1_555
H36_6 O26_6 1_555 1_555
O40_4 C45_6 1_555 1_555
O42_4 C45_6 1_555 1_555
O44_3 C46_6 1_555 1_555
O46_3 C46_6 1_555 1_555
C33_6 C35_6 1_555 1_555
C36_6 N11_6 1_555 1_555
C38_6 N9_6 1_555 1_555
C41_6 C44_6 1_555 1_555
C41_6 N10_6 1_555 1_555
C42_6 C43_6 1_555 1_555
C47_6 N12_6 1_555 1_555
C49_6 C50_6 1_555 1_555
C51_6 C52_6 1_555 1_555
C53_6 O33_4 1_555 1_555
C53_6 O34_4 1_555 1_555
C10_7 N2_7 1_555 1_555
C17_7 C13_7 1_555 1_555
H6_7 C17_7 1_555 1_555
C19_7 C13_7 1_555 1_555
C20_7 C21_7 1_555 1_555
C21_7 H7_7 1_555 1_555
C22_7 H8_7 1_555 1_555
C23_7 C21_7 1_555 1_555
C24_7 C22_7 1_555 1_555
C25_7 C20_7 1_555 1_555
H9_7 C25_7 1_555 1_555
C26_7 C23_7 1_555 1_555
C27_7 C24_7 1_555 1_555
N3_7 C10_7 1_555 1_555
N6_7 C10_7 1_555 1_555
H12_7 N6_7 1_555 1_555
O33_5 C26_7 1_555 1_555
O34_5 C26_7 1_555 1_555
O7_4 C27_7 1_555 1_555
O8_4 C27_7 1_555 1_555
O44_2 C19_7 1_555 1_555
O46_2 C19_7 1_555 1_555
Zn12 O17_7 1_555 1_555
Zn18 O18_7 1_555 1_555
C28_7 C29_7 1_555 1_555
C29_7 C30_7 1_555 1_555
C30_7 H21_7 1_555 1_555
C31_7 C30_7 1_555 1_555
C32_7 C31_7 1_555 1_555
H22_7 C32_7 1_555 1_555
C33_7 C32_7 1_555 1_555
C34_7 C33_7 1_555 1_555
C35_7 C29_7 1_555 1_555
H23_7 C35_7 1_555 1_555
C36_7 N7_7 1_555 1_555
C38_7 N7_7 1_555 1_555
C39_7 H24_7 1_555 1_555
C41_7 C42_7 1_555 1_555
C42_7 H25_7 1_555 1_555
C43_7 C39_7 1_555 1_555
C45_7 C43_7 1_555 1_555
N10_7 C38_7 1_555 1_555
H30_7 N10_7 1_555 1_555
N11_7 C31_7 1_555 1_555
H31_7 N11_7 1_555 1_555
O17_7 C28_7 1_555 1_555
O18_7 C28_7 1_555 1_555
O31_5 C34_7 1_555 1_555
O32_5 C34_7 1_555 1_555
O25_7 Zn12 1_555 1_555
H33_7 O25_7 1_555 1_555
H34_7 O25_7 1_555 1_555
O26_7 Zn18 1_555 1_555
H35_7 O26_7 1_555 1_555
H36_7 O26_7 1_555 1_555
O40 C45_7 1_555 1_555
O42 C45_7 1_555 1_555
Zn14 O7_4 1_555 1_555
Zn20 O8_4 1_555 1_555
O36_4 Zn12 1_555 1_555
O38_4 Zn18 1_555 1_555
C20_7 N6_7 1_555 1_555
C22_7 C23_7 1_555 1_555
C24_7 C25_7 1_555 1_555
C33_7 C35_7 1_555 1_555
C36_7 N11_7 1_555 1_555
C41_7 N10_7 1_555 1_555
C42_7 C43_7 1_555 1_555
Zn11 O1_7 1_555 1_555
Zn17 O2_7 1_555 1_555
C1_7 C2_7 1_555 1_555
C2_7 C3_7 1_555 1_555
C3_7 H1_7 1_555 1_555
C4_7 C3_7 1_555 1_555
C5_7 C4_7 1_555 1_555
H2_7 C5_7 1_555 1_555
C6_7 C5_7 1_555 1_555
C7_7 C6_7 1_555 1_555
C8_7 C2_7 1_555 1_555
H3_7 C8_7 1_555 1_555
C9_7 N1_7 1_555 1_555
C11_7 N1_7 1_555 1_555
C12_7 H4_7 1_555 1_555
C14_7 C15_7 1_555 1_555
C15_7 H5_7 1_555 1_555
C16_7 C12_7 1_555 1_555
C18_7 C16_7 1_555 1_555
N4_7 C11_7 1_555 1_555
H10_7 N4_7 1_555 1_555
N5_7 C4_7 1_555 1_555
H11_7 N5_7 1_555 1_555
O1_7 C1_7 1_555 1_555
O2_7 C1_7 1_555 1_555
O31_6 C7_7 1_555 1_555
O32_6 C7_7 1_555 1_555
O11_7 Zn11 1_555 1_555
H17_7 O11_7 1_555 1_555
H18_7 O11_7 1_555 1_555
O12_7 Zn17 1_555 1_555
H19_7 O12_7 1_555 1_555
H20_7 O12_7 1_555 1_555
O39 C18_7 1_555 1_555
O41 C18_7 1_555 1_555
C37_7 N8_7 1_555 1_555
C44_7 C40_7 1_555 1_555
H26_7 C44_7 1_555 1_555
C46_7 C40_7 1_555 1_555
C47_7 C48_7 1_555 1_555
C48_7 H27_7 1_555 1_555
C49_7 H28_7 1_555 1_555
C50_7 C48_7 1_555 1_555
C51_7 C49_7 1_555 1_555
C52_7 C47_7 1_555 1_555
H29_7 C52_7 1_555 1_555
C53_7 C50_7 1_555 1_555
C54_7 C51_7 1_555 1_555
N9_7 C37_7 1_555 1_555
N12_7 C37_7 1_555 1_555
H32_7 N12_7 1_555 1_555
O23_4 C54_7 1_555 1_555
O24_4 C54_7 1_555 1_555
O43_2 C46_7 1_555 1_555
O45_2 C46_7 1_555 1_555
Zn13 O23_4 1_555 1_555
Zn19 O24_4 1_555 1_555
O35_4 Zn11 1_555 1_555
O37_4 Zn17 1_555 1_555
C6_7 C8_7 1_555 1_555
C9_7 N5_7 1_555 1_555
C14_7 N4_7 1_555 1_555
C15_7 C16_7 1_555 1_555
C47_7 N12_7 1_555 1_555
C49_7 C50_7 1_555 1_555
C51_7 C52_7 1_555 1_555
C53_7 O33_6 1_555 1_555
C53_7 O34_6 1_555 1_555
C10_8 N2_8 1_555 1_555
C17_8 C13_8 1_555 1_555
H6_8 C17_8 1_555 1_555
C19_8 C13_8 1_555 1_555
C20_8 C21_8 1_555 1_555
C21_8 H7_8 1_555 1_555
C22_8 H8_8 1_555 1_555
C23_8 C21_8 1_555 1_555
C24_8 C22_8 1_555 1_555
C25_8 C20_8 1_555 1_555
H9_8 C25_8 1_555 1_555
C26_8 C23_8 1_555 1_555
C27_8 C24_8 1_555 1_555
N3_8 C10_8 1_555 1_555
N6_8 C10_8 1_555 1_555
H12_8 N6_8 1_555 1_555
O33_7 C26_8 1_555 1_555
O34_7 C26_8 1_555 1_555
O35_4 C27_8 1_555 1_555
O37_4 C27_8 1_555 1_555
O43 C19_8 1_555 1_555
O45 C19_8 1_555 1_555
Zn14 O17_8 1_555 1_555
Zn20 O18_8 1_555 1_555
C28_8 C29_8 1_555 1_555
C29_8 C30_8 1_555 1_555
C30_8 H21_8 1_555 1_555
C31_8 C30_8 1_555 1_555
C32_8 C31_8 1_555 1_555
H22_8 C32_8 1_555 1_555
C33_8 C32_8 1_555 1_555
C34_8 C33_8 1_555 1_555
C35_8 C29_8 1_555 1_555
H23_8 C35_8 1_555 1_555
C36_8 N7_8 1_555 1_555
C38_8 N7_8 1_555 1_555
C39_8 H24_8 1_555 1_555
C41_8 C42_8 1_555 1_555
C42_8 H25_8 1_555 1_555
C43_8 C39_8 1_555 1_555
C45_8 C43_8 1_555 1_555
N10_8 C38_8 1_555 1_555
H30_8 N10_8 1_555 1_555
N11_8 C31_8 1_555 1_555
H31_8 N11_8 1_555 1_555
O17_8 C28_8 1_555 1_555
O18_8 C28_8 1_555 1_555
O31_7 C34_8 1_555 1_555
O32_7 C34_8 1_555 1_555
O25_8 Zn14 1_555 1_555
H33_8 O25_8 1_555 1_555
H34_8 O25_8 1_555 1_555
O26_8 Zn20 1_555 1_555
H35_8 O26_8 1_555 1_555
H36_8 O26_8 1_555 1_555
O40_2 C45_8 1_555 1_555
O42_2 C45_8 1_555 1_555
C20_8 N6_8 1_555 1_555
C22_8 C23_8 1_555 1_555
C24_8 C25_8 1_555 1_555
C33_8 C35_8 1_555 1_555
C36_8 N11_8 1_555 1_555
C41_8 N10_8 1_555 1_555
C42_8 C43_8 1_555 1_555
Zn13 O1_8 1_555 1_555
Zn19 O2_8 1_555 1_555
C1_8 C2_8 1_555 1_555
C2_8 C3_8 1_555 1_555
C3_8 H1_8 1_555 1_555
C4_8 C3_8 1_555 1_555
C5_8 C4_8 1_555 1_555
H2_8 C5_8 1_555 1_555
C6_8 C5_8 1_555 1_555
C7_8 C6_8 1_555 1_555
C8_8 C2_8 1_555 1_555
H3_8 C8_8 1_555 1_555
C9_8 N1_8 1_555 1_555
C11_8 N1_8 1_555 1_555
C12_8 H4_8 1_555 1_555
C14_8 C15_8 1_555 1_555
C15_8 H5_8 1_555 1_555
C16_8 C12_8 1_555 1_555
C18_8 C16_8 1_555 1_555
N4_8 C11_8 1_555 1_555
H10_8 N4_8 1_555 1_555
N5_8 C4_8 1_555 1_555
H11_8 N5_8 1_555 1_555
O1_8 C1_8 1_555 1_555
O2_8 C1_8 1_555 1_555
O31_8 C7_8 1_555 1_555
O32_8 C7_8 1_555 1_555
O11_8 Zn13 1_555 1_555
H17_8 O11_8 1_555 1_555
H18_8 O11_8 1_555 1_555
O12_8 Zn19 1_555 1_555
H19_8 O12_8 1_555 1_555
H20_8 O12_8 1_555 1_555
O39_2 C18_8 1_555 1_555
O41_2 C18_8 1_555 1_555
C37_8 N8_8 1_555 1_555
C44_8 C40_8 1_555 1_555
H26_8 C44_8 1_555 1_555
C46_8 C40_8 1_555 1_555
C47_8 C48_8 1_555 1_555
C48_8 H27_8 1_555 1_555
C49_8 H28_8 1_555 1_555
C50_8 C48_8 1_555 1_555
C51_8 C49_8 1_555 1_555
C52_8 C47_8 1_555 1_555
H29_8 C52_8 1_555 1_555
C53_8 C50_8 1_555 1_555
C54_8 C51_8 1_555 1_555
N9_8 C37_8 1_555 1_555
N12_8 C37_8 1_555 1_555
H32_8 N12_8 1_555 1_555
O36_4 C54_8 1_555 1_555
O38_4 C54_8 1_555 1_555
O44 C46_8 1_555 1_555
O46 C46_8 1_555 1_555
C6_8 C8_8 1_555 1_555
C9_8 N5_8 1_555 1_555
C14_8 N4_8 1_555 1_555
C15_8 C16_8 1_555 1_555
C47_8 N12_8 1_555 1_555
C49_8 C50_8 1_555 1_555
C51_8 C52_8 1_555 1_555
C53_8 O33_8 1_555 1_555
C53_8 O34_8 1_555 1_555

#END
