
###############################################################################
#
# This file contains modified crystal structure data generated from the
# MOF subset of the Cambridge Structural Database (CSD) v543 
# hosted by the Cambridge Crystallographic Data Centre (CCDC).
#
# This work is licensed under the Creative Commons
# Attribution-NonCommercial-ShareAlike 4.0 International License.
# To view a copy of this license, visit
# http://creativecommons.org/licenses/by-nc-sa/4.0/
# or send a letter to
# Creative Commons, PO Box 1866, Mountain View, CA 94042, USA.
#
# CIF created using the CSD Python API on 29 September 2022
# The structure has been converted into the P1 space group
# The structure has a 3D framework
# The original CSD entry LUGLOO is in the trigonal crystal system
# The original CSD entry LUGLOO is in a Sohncke space group
# The framework has been calculated to contain at least 10.0% void space
# The void calculation uses a probe of radius 1.32A, grid spacing 0.4
# H atom positions have been added when not included in the experimental data
#
###############################################################################

data_LUGLOO
_chemical_formula_moiety         '(C36 H30 Cd5 N57 3+)n'
_symmetry_cell_setting           triclinic
_symmetry_space_group_name_H-M   'P 1'
_symmetry_Int_Tables_number      1
_space_group_name_Hall           'P 1'
loop_
_symmetry_equiv_pos_site_id
_symmetry_equiv_pos_as_xyz
1 x,y,z
_cell_length_a                   13.8325(4)
_cell_length_b                   13.8325(4)
_cell_length_c                   9.0673(4)
_cell_angle_alpha                90
_cell_angle_beta                 90
_cell_angle_gamma                120
_cell_volume                     1502.48
loop_
_atom_site_label
_atom_site_type_symbol
_atom_site_fract_x
_atom_site_fract_y
_atom_site_fract_z
N9 N 0.3156(10) 0.0000 0.3333
N11 N 0.3171(8) 0.0617(5) 0.4665(6)
N17 N 0.5458(5) 0.0977(3) 0.0027(4)
Cd4 Cd 0.45470(4) 0.08583(3) 0.65210(4)
N1 N 0.3144(6) 0.0000 0.8333
N8 N 0.2421(10) 0.0000 0.8333
N10 N 0.1482(9) 0.0000 0.8333
N19 N 0.5988(6) 0.1291(4) 0.4841(4)
N21 N 0.5015(5) 0.2765(6) 0.6522(4)
N23 N 0.5700(6) 0.1339(4) 0.8637(4)
Cd5 Cd 0.36887(3) 0.91417(3) 0.01457(4)
C1 C 0.5122(4) 0.8536(4) 0.4317(5)
N2 N 0.4697(4) 0.8709(4) 0.1826(4)
C2 C 0.4428(4) 0.8595(4) 0.3245(4)
H1 H 0.3763 0.8554 0.3532
C3 C 0.6106(5) 0.8574(5) 0.3863(6)
H2 H 0.6592 0.8545 0.4545
N3 N 0.2554(6) 0.9383(5) 0.2002(6)
C4 C 0.5604(5) 0.8708(5) 0.1406(6)
H3 H 0.5755 0.8743 0.0402
C5 C 0.6334(6) 0.8658(6) 0.2363(6)
H4 H 0.6977 0.8680 0.2018
C6 C 0.4851(4) 0.8441(4) 0.5921(5)
N4 N 0.4985(5) 0.7750(4) 0.6811(4)
N5 N 0.4481(4) 0.9023(3) 0.6640(4)
N6 N 0.4361(4) 0.8661(4) 0.8030(4)
N7 N 0.4641(4) 0.7885(4) 0.8134(4)
N9_2 N 0.3156(10) 1.0000 0.3333
N13 N 0.2250(4) 0.7235(6) 0.0144(4)
N15 N 0.1339(4) 0.5700(6) 0.1363(4)
N16 N 0.2115(4) 0.6756(6) 0.1467(4)
Cd3 Cd 0.54530(4) 0.63113(3) 0.68124(4)
Cd8 Cd 0.08583(3) 0.45470(4) 0.34790(4)
H9 H 0.526699 0.812175 0.887936
H10 H 0.187825 0.714524 0.221269
N1_2 N 0.3144(6) 1.0000 0.8333
N8_2 N 0.2421(10) 1.0000 0.8333
N10_2 N 0.1482(9) 1.0000 0.8333
C7 C 0.1464(4) 0.6586(6) 0.7650(5)
N12 N 0.1291(4) 0.5988(6) 0.5159(4)
C8 C 0.1405(4) 0.5833(6) 0.6578(4)
H5 H 0.1446 0.5209 0.6865
C9 C 0.1426(5) 0.7532(7) 0.7196(6)
H6 H 0.1455 0.8047 0.7878
C10 C 0.1292(5) 0.6896(7) 0.4739(6)
H7 H 0.1257 0.7012 0.3735
C11 C 0.1342(6) 0.7676(8) 0.5696(6)
H8 H 0.1320 0.8297 0.5351
C12 C 0.1559(4) 0.6410(6) 0.9254(5)
N14 N 0.0977(3) 0.5458(5) 0.9973(4)
Cd7 Cd 0.91417(3) 0.36887(3) 0.98543(4)
N1_3 N -0.0000 0.3144(6) 0.1666
N3_2 N 0.0617(5) 0.3171(8) 0.5335(6)
N8_3 N -0.0000 0.2421(10) 0.1666
N9_3 N -0.0000 0.3156(10) 0.6666
N10_3 N -0.0000 0.1482(9) 0.1666
C7_2 C 0.3414(6) 0.4878(7) 0.0984(5)
H5_2 H 0.4791 0.6237 0.0199
C9_2 C 0.2468(7) 0.3894(9) 0.0530(6)
H6_2 H 0.1953 0.3408 0.1212
C12_2 C 0.3590(6) 0.5149(7) 0.2588(5)
N13_2 N 0.2765(6) 0.5015(7) 0.3478(4)
N14_2 N 0.4542(5) 0.5519(6) 0.3307(4)
N15_2 N 0.4300(6) 0.5639(7) 0.4697(4)
N16_2 N 0.3244(6) 0.5359(7) 0.4801(4)
Cd7_2 Cd 0.63113(3) 0.54530(4) 0.31876(4)
H10_2 H 0.285476 0.473301 0.554603
N12_2 N 0.4012(6) 0.5303(7) 0.8493(4)
C8_2 C 0.4167(6) 0.5572(7) 0.9912(4)
C10_2 C 0.3104(7) 0.4396(9) 0.8073(6)
H7_2 H 0.2988 0.4245 0.7069
C11_2 C 0.2324(8) 0.3666(10) 0.9030(6)
H8_2 H 0.1703 0.3023 0.8685
N1_4 N 1.0000 0.3144(6) 0.1666
N8_4 N 1.0000 0.2421(10) 0.1666
N9_4 N 1.0000 0.3156(10) 0.6666
N10_4 N 1.0000 0.1482(9) 0.1666
N11_2 N 0.9383(5) 0.2554(9) 0.7998(6)
N17_2 N 0.9023(3) 0.4481(6) 0.3360(4)
N23_2 N 0.8661(4) 0.4361(7) 0.1970(4)
N19_2 N 0.8709(4) 0.4697(7) 0.8174(4)
N21_2 N 0.7235(6) 0.2250(8) 0.9856(4)
N9_5 N 0.6844(10) 0.6844(10) -0.0000
N11_3 N 0.7446(9) 0.6829(8) 0.1331(6)
N1_5 N 0.6856(6) 0.6856(6) 0.5000
N3_3 N 0.6829(8) 0.7446(6) 0.8669(6)
N8_5 N 0.7579(10) 0.7579(10) 0.5000
N9_6 N 0.6844(10) 0.6844(10) 1.0000
N10_5 N 0.8518(9) 0.8518(9) 0.5000
N17_3 N 0.5519(6) 0.4542(5) 0.6693(4)
N19_3 N 0.5303(7) 0.4012(6) 0.1507(4)
N21_3 N 0.7750(8) 0.4985(5) 0.3189(4)
N23_3 N 0.5639(7) 0.4300(6) 0.5303(4)
C7_3 C 0.6586(6) 0.1464(4) 0.2350(5)
C8_3 C 0.5833(6) 0.1405(4) 0.3422(4)
H5_3 H 0.5209 0.1446 0.3135
C9_3 C 0.7532(7) 0.1426(5) 0.2804(6)
H6_3 H 0.8047 0.1455 0.2122
C10_3 C 0.6896(7) 0.1292(5) 0.5261(6)
H7_3 H 0.7012 0.1257 0.6265
C11_3 C 0.7676(8) 0.1342(6) 0.4304(6)
H8_3 H 0.8297 0.1320 0.4649
C12_3 C 0.6410(6) 0.1559(4) 0.0746(5)
C1_2 C 0.8536(4) 0.5122(4) 0.5683(5)
C2_2 C 0.8595(4) 0.4428(4) 0.6755(4)
H1_2 H 0.8554 0.3763 0.6468
C3_2 C 0.8574(5) 0.6106(5) 0.6137(6)
H2_2 H 0.8545 0.6592 0.5455
C4_2 C 0.8708(5) 0.5604(5) 0.8594(6)
H3_2 H 0.8743 0.5755 0.9598
C5_2 C 0.8658(6) 0.6334(6) 0.7637(6)
H4_2 H 0.8680 0.6977 0.7982
C6_2 C 0.8441(4) 0.4851(4) 0.4079(5)
N7_2 N 0.7885(4) 0.4641(4) 0.1866(4)
N16_3 N 0.6756(6) 0.2115(4) 0.8533(4)
H9_2 H 0.812175 0.526699 0.112064
H10_3 H 0.714524 0.187825 0.778731
C8_4 C 0.5572(7) 0.4167(6) 0.0088(4)
C10_4 C 0.4396(9) 0.3104(7) 0.1927(6)
H7_4 H 0.4245 0.2988 0.2931
C11_4 C 0.3666(10) 0.2324(8) 0.0970(6)
H8_4 H 0.3023 0.1703 0.1315
C7_4 C 0.4878(7) 0.3414(6) 0.9016(5)
H5_4 H 0.6237 0.4791 0.9801
C9_4 C 0.3894(9) 0.2468(7) 0.9470(6)
H6_4 H 0.3408 0.1953 0.8788
C12_4 C 0.5149(7) 0.3590(6) 0.7412(5)
N16_4 N 0.5359(7) 0.3244(6) 0.5199(4)
H10_4 H 0.473301 0.285476 0.445397
loop_
_geom_bond_atom_site_label_1
_geom_bond_atom_site_label_2
_geom_bond_site_symmetry_1
_geom_bond_site_symmetry_2
N11 N9 1_555 1_555
N11 Cd4 1_555 1_555
N1 N8 1_555 1_555
N8 N10 1_555 1_555
Cd4 N1 1_555 1_555
N19 Cd4 1_555 1_555
N21 Cd4 1_555 1_555
N23 Cd4 1_555 1_555
C1 C2 1_555 1_555
N2 Cd5 1_555 1_555
C2 N2 1_555 1_555
H1 C2 1_555 1_555
C3 C1 1_555 1_555
H2 C3 1_555 1_555
N3 Cd5 1_555 1_555
C4 N2 1_555 1_555
H3 C4 1_555 1_555
C5 C3 1_555 1_555
H4 C5 1_555 1_555
C6 C1 1_555 1_555
N4 C6 1_555 1_555
N5 C6 1_555 1_555
N6 N5 1_555 1_555
N7 N4 1_555 1_555
N9_2 N3 1_555 1_555
N13 Cd5 1_555 1_555
N16 N13 1_555 1_555
Cd3 N4 1_555 1_555
Cd8 N15 1_555 1_555
C4 C5 1_555 1_555
N6 N7 1_555 1_555
N15 N16 1_555 1_555
N7 H9 1_555 1_555
N16 H10 1_555 1_555
N1_2 N8_2 1_555 1_555
N8_2 N10_2 1_555 1_555
C7 C8 1_555 1_555
N12 C8 1_555 1_555
C8 H5 1_555 1_555
C9 C7 1_555 1_555
H6 C9 1_555 1_555
C10 N12 1_555 1_555
H7 C10 1_555 1_555
C11 C9 1_555 1_555
H8 C11 1_555 1_555
C12 C7 1_555 1_555
N14 C12 1_555 1_555
Cd8 N12 1_555 1_555
C10 C11 1_555 1_555
Cd8 N1_3 1_555 1_555
N1_3 N8_3 1_555 1_555
N3_2 Cd8 1_555 1_555
N8_3 N10_3 1_555 1_555
N9_3 N3_2 1_555 1_555
C9_2 C7_2 1_555 1_555
H6_2 C9_2 1_555 1_555
C12_2 C7_2 1_555 1_555
N13_2 Cd8 1_555 1_555
N14_2 C12_2 1_555 1_555
N15_2 N14_2 1_555 1_555
N16_2 N13_2 1_555 1_555
Cd7_2 N14_2 1_555 1_555
Cd3 N15_2 1_555 1_555
C12_2 N13_2 1_555 1_555
N15_2 N16_2 1_555 1_555
N16_2 H10_2 1_555 1_555
N12_2 C8_2 1_555 1_555
C10_2 N12_2 1_555 1_555
H7_2 C10_2 1_555 1_555
H8_2 C11_2 1_555 1_555
Cd3 N12_2 1_555 1_555
C10_2 C11_2 1_555 1_555
N1_4 N8_4 1_555 1_555
N8_4 N10_4 1_555 1_555
N11_2 N9_4 1_555 1_555
N11_2 Cd7 1_555 1_555
N17_2 N23_2 1_555 1_555
N19_2 Cd7 1_555 1_555
N21_2 Cd7 1_555 1_555
N11_3 N9_5 1_555 1_555
N11_3 Cd7_2 1_555 1_555
Cd3 N1_5 1_555 1_555
N1_5 N8_5 1_555 1_555
N3_3 Cd3 1_555 1_555
N8_5 N10_5 1_555 1_555
N9_6 N3_3 1_555 1_555
Cd7_2 N1_5 1_555 1_555
N17_3 Cd3 1_555 1_555
N19_3 Cd7_2 1_555 1_555
N21_3 Cd7_2 1_555 1_555
N23_3 Cd7_2 1_555 1_555
N17_3 N23_3 1_555 1_555
C7_3 C8_3 1_555 1_555
N19 C8_3 1_555 1_555
C8_3 H5_3 1_555 1_555
C9_3 C7_3 1_555 1_555
H6_3 C9_3 1_555 1_555
C10_3 N19 1_555 1_555
H7_3 C10_3 1_555 1_555
C11_3 C9_3 1_555 1_555
H8_3 C11_3 1_555 1_555
C12_3 C7_3 1_555 1_555
N17 C12_3 1_555 1_555
C10_3 C11_3 1_555 1_555
C1_2 C2_2 1_555 1_555
C2_2 N19_2 1_555 1_555
H1_2 C2_2 1_555 1_555
C3_2 C1_2 1_555 1_555
H2_2 C3_2 1_555 1_555
C4_2 N19_2 1_555 1_555
H3_2 C4_2 1_555 1_555
C5_2 C3_2 1_555 1_555
H4_2 C5_2 1_555 1_555
C6_2 C1_2 1_555 1_555
N21_3 C6_2 1_555 1_555
N17_2 C6_2 1_555 1_555
N7_2 N21_3 1_555 1_555
N16_3 N21_2 1_555 1_555
C4_2 C5_2 1_555 1_555
N23_2 N7_2 1_555 1_555
N23 N16_3 1_555 1_555
N7_2 H9_2 1_555 1_555
N16_3 H10_3 1_555 1_555
N19_3 C8_4 1_555 1_555
C10_4 N19_3 1_555 1_555
H7_4 C10_4 1_555 1_555
H8_4 C11_4 1_555 1_555
C10_4 C11_4 1_555 1_555
C9_4 C7_4 1_555 1_555
H6_4 C9_4 1_555 1_555
C12_4 C7_4 1_555 1_555
N17_3 C12_4 1_555 1_555
N16_4 N21 1_555 1_555
C12_4 N21 1_555 1_555
N23_3 N16_4 1_555 1_555
N16_4 H10_4 1_555 1_555

#END
