
###############################################################################
#
# This file contains modified crystal structure data generated from the
# MOF subset of the Cambridge Structural Database (CSD) v543 
# hosted by the Cambridge Crystallographic Data Centre (CCDC).
#
# This work is licensed under the Creative Commons
# Attribution-NonCommercial-ShareAlike 4.0 International License.
# To view a copy of this license, visit
# http://creativecommons.org/licenses/by-nc-sa/4.0/
# or send a letter to
# Creative Commons, PO Box 1866, Mountain View, CA 94042, USA.
#
# CIF created using the CSD Python API on 29 September 2022
# The structure has been converted into the P1 space group
# The structure has a 3D framework
# The original CSD entry LUJPUC is in the monoclinic crystal system
# The framework has been calculated to contain at least 10.0% void space
# The void calculation uses a probe of radius 1.32A, grid spacing 0.4
# The framework is charged, counterions have been retained in the structure
#
###############################################################################

data_LUJPUC
_chemical_formula_moiety         '(C40 H48 Li6 Ni12 O54)n'
_symmetry_cell_setting           triclinic
_symmetry_space_group_name_H-M   'P 1'
_symmetry_Int_Tables_number      1
_space_group_name_Hall           'P 1'
loop_
_symmetry_equiv_pos_site_id
_symmetry_equiv_pos_as_xyz
1 x,y,z
_cell_length_a                   9.540(2)
_cell_length_b                   19.812(5)
_cell_length_c                   11.151(3)
_cell_angle_alpha                90
_cell_angle_beta                 113.684(10)
_cell_angle_gamma                90
_cell_volume                     1930.1
loop_
_atom_site_label
_atom_site_type_symbol
_atom_site_fract_x
_atom_site_fract_y
_atom_site_fract_z
Ni4 Ni 0.5000 0.0000 0.0000
Ni4_2 Ni 0.5000 0.0000 1.0000
Ni1 Ni 0.0000 0.5000 0.0000
Ni2 Ni 0.2500 0.7500 0.5000
O3 O 0.0497(6) 0.7495(3) 0.3311(5)
O4 O 0.0614(6) 0.8469(3) 0.2369(6)
O6 O 0.1549(6) 0.6848(3) 0.5900(6)
H2 H 0.0673 0.6976 0.5943
H3 H 0.2099 0.6693 0.6679
O7 O 0.1647(6) 0.8335(3) 0.5553(5)
H4 H 0.1660 0.8724 0.5227
H5 H 0.1740 0.8382 0.6353
C5 C 0.0020(9) 0.7922(4) 0.2368(8)
Ni4_3 Ni 0.5000 1.0000 0.0000
Ni5 Ni 0.7500 0.7500 0.5000
O9 O 0.1549(6) 0.5726(3) 0.0060(6)
O11 O 0.1549(6) 0.4274(3) 0.0060(6)
O13 O 0.2407(7) 0.6091(3) 0.2095(6)
O16 O 0.4503(6) 0.7505(3) 0.6689(5)
O17 O 0.5497(6) 0.7505(3) 0.3311(5)
O21 O 0.5614(6) 0.6531(3) 0.2369(6)
O24 O 0.0676(9) 0.5000 0.2007(7)
H8 H 0.1466 0.4716 0.2385
H9 H 0.1466 0.5284 0.2385
O25 O 0.3451(6) 0.8152(3) 0.4100(6)
H10 H 0.4327 0.8024 0.4057
H13 H 0.2901 0.8307 0.3321
O28 O 0.3353(6) 0.6665(3) 0.4447(5)
H16 H 0.3340 0.6276 0.4773
H19 H 0.3260 0.6618 0.3647
C8 C 0.3656(9) 0.7920(4) 0.0727(8)
H24 H 0.4442 0.8209 0.1224
C10 C 0.2437(9) 0.6839(4) 0.0480(9)
C14 C 0.3632(8) 0.7287(4) 0.1210(8)
C16 C 0.2138(9) 0.6166(4) 0.0916(10)
C18 C 0.5020(9) 0.7078(4) 0.2368(8)
Ni1_2 Ni 0.0000 0.5000 1.0000
Ni4_4 Ni 0.5000 1.0000 1.0000
O10 O 0.3451(6) 0.9274(3) 0.9940(6)
O14 O 0.2593(7) 0.8909(3) 0.7905(6)
C7 C 0.1344(9) 0.7080(4) 0.9273(8)
H23 H 0.0558 0.6791 0.8776
C11 C 0.2563(9) 0.8161(4) 0.9520(9)
C13 C 0.1368(8) 0.7713(4) 0.8790(8)
C17 C 0.2862(9) 0.8834(4) 0.9084(10)
Ni1_3 Ni 1.0000 0.5000 0.0000
O1 O 0.6549(6) 0.9274(3) 0.0060(6)
O2 O 0.7407(7) 0.8909(3) 0.2095(6)
C2 C 0.7437(9) 0.8161(4) 0.0480(9)
C3 C 0.8632(8) 0.7713(4) 0.1210(8)
C4 C 0.7138(9) 0.8834(4) 0.0916(10)
C6 C 0.8656(9) 0.7080(4) 0.0727(8)
H22 H 0.9442 0.6791 0.1224
Ni1_4 Ni 1.0000 0.5000 1.0000
O5 O 0.9324(9) 0.5000 0.7993(7)
H1 H 0.8534 0.4716 0.7615
C1 C 0.6344(9) 0.7920(4) 0.9273(8)
H6 H 0.5558 0.8209 0.8776
O8 O 0.8451(6) 0.5726(3) 0.9940(6)
O12 O 0.8451(6) 0.4274(3) 0.9940(6)
O15 O 0.7593(7) 0.6091(3) 0.7905(6)
O18 O 0.9503(6) 0.7495(3) 0.6689(5)
O22 O 0.9386(6) 0.8469(3) 0.7631(6)
O23 O 0.4386(6) 0.6531(3) 0.7631(6)
H7 H 0.8534 0.5284 0.7615
O26 O 0.8451(6) 0.6848(3) 0.4100(6)
O27 O 0.6549(6) 0.8152(3) 0.5900(6)
H11 H 0.9327 0.6976 0.4057
H12 H 0.5673 0.8024 0.5943
H14 H 0.7901 0.6693 0.3321
H15 H 0.7099 0.8307 0.6679
O29 O 0.8353(6) 0.8335(3) 0.4447(5)
O30 O 0.6647(6) 0.6665(3) 0.5553(5)
H17 H 0.8340 0.8724 0.4773
H18 H 0.6660 0.6276 0.5227
H20 H 0.8260 0.8382 0.3647
H21 H 0.6740 0.6618 0.6353
C9 C 0.7563(9) 0.6839(4) 0.9520(9)
C12 C 0.6368(8) 0.7287(4) 0.8790(8)
C15 C 0.7862(9) 0.6166(4) 0.9084(10)
C19 C 0.9980(9) 0.7922(4) 0.7632(8)
C20 C 0.4980(9) 0.7078(4) 0.7632(8)
Ni5_2 Ni 0.2500 0.2500 0.5000
O17_2 O 0.0497(6) 0.2505(3) 0.3311(5)
O21_2 O 0.0614(6) 0.1531(3) 0.2369(6)
C18_2 C 0.0020(9) 0.2078(4) 0.2368(8)
Ni2_2 Ni 0.7500 0.2500 0.5000
O2_2 O 0.2407(7) 0.3909(3) 0.2095(6)
O3_2 O 0.5497(6) 0.2495(3) 0.3311(5)
O4_2 O 0.5614(6) 0.3469(3) 0.2369(6)
O6_2 O 0.6549(6) 0.1848(3) 0.5900(6)
H2_2 H 0.5673 0.1976 0.5943
H3_2 H 0.7099 0.1693 0.6679
O7_2 O 0.6647(6) 0.3335(3) 0.5553(5)
H4_2 H 0.6660 0.3724 0.5227
H5_2 H 0.6740 0.3382 0.6353
C2_2 C 0.2437(9) 0.3161(4) 0.0480(9)
C3_2 C 0.3632(8) 0.2713(4) 0.1210(8)
C4_2 C 0.2138(9) 0.3834(4) 0.0916(10)
C5_2 C 0.5020(9) 0.2922(4) 0.2368(8)
O9_2 O 0.6549(6) 0.0726(3) 0.0060(6)
O13_2 O 0.7407(7) 0.1091(3) 0.2095(6)
O16_2 O 0.9503(6) 0.2505(3) 0.6689(5)
O24_2 O 0.5676(9) 0.0000 0.2007(7)
H9_2 H 0.6466 0.0284 0.2385
O25_2 O 0.8451(6) 0.3152(3) 0.4100(6)
H10_2 H 0.9327 0.3024 0.4057
H13_2 H 0.7901 0.3307 0.3321
O28_2 O 0.8353(6) 0.1665(3) 0.4447(5)
H16_2 H 0.8340 0.1276 0.4773
H19_2 H 0.8260 0.1618 0.3647
C6_2 C 0.3656(9) 0.2080(4) 0.0727(8)
C8_2 C 0.8656(9) 0.2920(4) 0.0727(8)
H22_2 H 0.4442 0.1791 0.1224
H24_2 H 0.9442 0.3209 0.1224
C10_2 C 0.7437(9) 0.1839(4) 0.0480(9)
C14_2 C 0.8632(8) 0.2287(4) 0.1210(8)
C16_2 C 0.7138(9) 0.1166(4) 0.0916(10)
O5_2 O 0.4324(9) 0.0000 0.7993(7)
C1_2 C 0.1344(9) 0.2920(4) 0.9273(8)
H6_2 H 0.0558 0.3209 0.8776
O8_2 O 0.3451(6) 0.0726(3) 0.9940(6)
O14_2 O 0.7593(7) 0.3909(3) 0.7905(6)
O15_2 O 0.2593(7) 0.1091(3) 0.7905(6)
O18_2 O 0.4503(6) 0.2495(3) 0.6689(5)
O22_2 O 0.4386(6) 0.3469(3) 0.7631(6)
H7_2 H 0.3534 0.0284 0.7615
O26_2 O 0.3451(6) 0.1848(3) 0.4100(6)
O27_2 O 0.1549(6) 0.3152(3) 0.5900(6)
H11_2 H 0.4327 0.1976 0.4057
H12_2 H 0.0673 0.3024 0.5943
H14_2 H 0.2901 0.1693 0.3321
H15_2 H 0.2099 0.3307 0.6679
O29_2 O 0.3353(6) 0.3335(3) 0.4447(5)
O30_2 O 0.1647(6) 0.1665(3) 0.5553(5)
H17_2 H 0.3340 0.3724 0.4773
H18_2 H 0.1660 0.1276 0.5227
H20_2 H 0.3260 0.3382 0.3647
H21_2 H 0.1740 0.1618 0.6353
C7_2 C 0.6344(9) 0.2080(4) 0.9273(8)
H23_2 H 0.5558 0.1791 0.8776
C9_2 C 0.2563(9) 0.1839(4) 0.9520(9)
C11_2 C 0.7563(9) 0.3161(4) 0.9520(9)
C12_2 C 0.1368(8) 0.2287(4) 0.8790(8)
C13_2 C 0.6368(8) 0.2713(4) 0.8790(8)
C15_2 C 0.2862(9) 0.1166(4) 0.9084(10)
C17_2 C 0.7862(9) 0.3834(4) 0.9084(10)
C19_2 C 0.4980(9) 0.2922(4) 0.7632(8)
O24_3 O 0.5676(9) 1.0000 0.2007(7)
H8_2 H 0.6466 0.9716 0.2385
O5_3 O 0.4324(9) 1.0000 0.7993(7)
H1_2 H 0.3534 0.9716 0.7615
O23_2 O 0.9386(6) 0.1531(3) 0.7631(6)
C20_2 C 0.9980(9) 0.2078(4) 0.7632(8)
Li1 Li 0.985(2) 0.0000 0.252(2)
Li1_2 Li 0.985(2) 1.0000 0.252(2)
Li1_3 Li 0.015(2) 0.0000 0.748(2)
Li1_4 Li 0.015(2) 1.0000 0.748(2)
Li1_5 Li 0.485(2) 0.5000 0.252(2)
Li1_6 Li 0.515(2) 0.5000 0.748(2)
loop_
_geom_bond_atom_site_label_1
_geom_bond_atom_site_label_2
_geom_bond_site_symmetry_1
_geom_bond_site_symmetry_2
Ni2 O3 1_555 1_555
O3 C5 1_555 1_555
O4 C5 1_555 1_555
O6 Ni2 1_555 1_555
H2 O6 1_555 1_555
H3 O6 1_555 1_555
O7 Ni2 1_555 1_555
H4 O7 1_555 1_555
H5 O7 1_555 1_555
Ni5 O17 1_555 1_555
O9 Ni1 1_555 1_555
O11 Ni1 1_555 1_555
O13 C16 1_555 1_555
O16 Ni2 1_555 1_555
O17 C18 1_555 1_555
O21 C18 1_555 1_555
O24 Ni1 1_555 1_555
H8 O24 1_555 1_555
H9 O24 1_555 1_555
O25 Ni2 1_555 1_555
H10 O25 1_555 1_555
H13 O25 1_555 1_555
O28 Ni2 1_555 1_555
H16 O28 1_555 1_555
H19 O28 1_555 1_555
C8 H24 1_555 1_555
C14 C8 1_555 1_555
C16 O9 1_555 1_555
C18 C14 1_555 1_555
C10 C14 1_555 1_555
C10 C16 1_555 1_555
Ni4_4 O10 1_555 1_555
O10 C17 1_555 1_555
O14 C17 1_555 1_555
C7 H23 1_555 1_555
C13 C7 1_555 1_555
C17 C11 1_555 1_555
C11 C13 1_555 1_555
O1 C4 1_555 1_555
O2 C4 1_555 1_555
C3 C2 1_555 1_555
C4 C2 1_555 1_555
Ni4_3 O1 1_555 1_555
C6 C3 1_555 1_555
H22 C6 1_555 1_555
Ni1_4 O5 1_555 1_555
O5 H1 1_555 1_555
C1 H6 1_555 1_555
Ni5 O18 1_555 1_555
O8 Ni1_4 1_555 1_555
O12 Ni1_4 1_555 1_555
O15 C15 1_555 1_555
O18 C19 1_555 1_555
O16 C20 1_555 1_555
O22 C19 1_555 1_555
O23 C20 1_555 1_555
H7 O5 1_555 1_555
O26 Ni5 1_555 1_555
O27 Ni5 1_555 1_555
H11 O26 1_555 1_555
H12 O27 1_555 1_555
H14 O26 1_555 1_555
H15 O27 1_555 1_555
O29 Ni5 1_555 1_555
O30 Ni5 1_555 1_555
H17 O29 1_555 1_555
H18 O30 1_555 1_555
H20 O29 1_555 1_555
H21 O30 1_555 1_555
C12 C1 1_555 1_555
C15 O8 1_555 1_555
C20 C12 1_555 1_555
C9 C12 1_555 1_555
C9 C15 1_555 1_555
Ni5_2 O17_2 1_555 1_555
O17_2 C18_2 1_555 1_555
O21_2 C18_2 1_555 1_555
Ni2_2 O3_2 1_555 1_555
O11 C4_2 1_555 1_555
O2_2 C4_2 1_555 1_555
O3_2 C5_2 1_555 1_555
O4_2 C5_2 1_555 1_555
O6_2 Ni2_2 1_555 1_555
H2_2 O6_2 1_555 1_555
H3_2 O6_2 1_555 1_555
O7_2 Ni2_2 1_555 1_555
H4_2 O7_2 1_555 1_555
H5_2 O7_2 1_555 1_555
C3_2 C2_2 1_555 1_555
C4_2 C2_2 1_555 1_555
C5_2 C3_2 1_555 1_555
O9_2 Ni4 1_555 1_555
O13_2 C16_2 1_555 1_555
O16_2 Ni2_2 1_555 1_555
O24_2 Ni4 1_555 1_555
H9_2 O24_2 1_555 1_555
O25_2 Ni2_2 1_555 1_555
H10_2 O25_2 1_555 1_555
H13_2 O25_2 1_555 1_555
O28_2 Ni2_2 1_555 1_555
H16_2 O28_2 1_555 1_555
H19_2 O28_2 1_555 1_555
C6_2 C3_2 1_555 1_555
C8_2 H24_2 1_555 1_555
H22_2 C6_2 1_555 1_555
C14_2 C8_2 1_555 1_555
C16_2 O9_2 1_555 1_555
C10_2 C14_2 1_555 1_555
C10_2 C16_2 1_555 1_555
Ni4_2 O5_2 1_555 1_555
C1_2 H6_2 1_555 1_555
Ni5_2 O18_2 1_555 1_555
O8_2 Ni4_2 1_555 1_555
O12 C17_2 1_555 1_555
O14_2 C17_2 1_555 1_555
O15_2 C15_2 1_555 1_555
O18_2 C19_2 1_555 1_555
O22_2 C19_2 1_555 1_555
H7_2 O5_2 1_555 1_555
O26_2 Ni5_2 1_555 1_555
O27_2 Ni5_2 1_555 1_555
H11_2 O26_2 1_555 1_555
H12_2 O27_2 1_555 1_555
H14_2 O26_2 1_555 1_555
H15_2 O27_2 1_555 1_555
O29_2 Ni5_2 1_555 1_555
O30_2 Ni5_2 1_555 1_555
H17_2 O29_2 1_555 1_555
H18_2 O30_2 1_555 1_555
H20_2 O29_2 1_555 1_555
H21_2 O30_2 1_555 1_555
C7_2 H23_2 1_555 1_555
C12_2 C1_2 1_555 1_555
C13_2 C7_2 1_555 1_555
C15_2 O8_2 1_555 1_555
C17_2 C11_2 1_555 1_555
C19_2 C13_2 1_555 1_555
C9_2 C12_2 1_555 1_555
C9_2 C15_2 1_555 1_555
C11_2 C13_2 1_555 1_555
O24_3 Ni4_3 1_555 1_555
H8_2 O24_3 1_555 1_555
Ni4_4 O5_3 1_555 1_555
O5_3 H1_2 1_555 1_555
O16_2 C20_2 1_555 1_555
O23_2 C20_2 1_555 1_555

#END
