
###############################################################################
#
# This file contains modified crystal structure data generated from the
# MOF subset of the Cambridge Structural Database (CSD) v543 
# hosted by the Cambridge Crystallographic Data Centre (CCDC).
#
# This work is licensed under the Creative Commons
# Attribution-NonCommercial-ShareAlike 4.0 International License.
# To view a copy of this license, visit
# http://creativecommons.org/licenses/by-nc-sa/4.0/
# or send a letter to
# Creative Commons, PO Box 1866, Mountain View, CA 94042, USA.
#
# CIF created using the CSD Python API on 29 September 2022
# The structure has been converted into the P1 space group
# The structure has a 3D framework
# The original CSD entry LUJRUG is in the orthorhombic crystal system
# The framework has been calculated to contain at least 10.0% void space
# The void calculation uses a probe of radius 1.32A, grid spacing 0.4
# The framework is charged, counterions have been retained in the structure
#
###############################################################################

data_LUJRUG
_chemical_formula_moiety         '(C336 H240 In24 N16 O122 8+)n'
_symmetry_cell_setting           triclinic
_symmetry_space_group_name_H-M   'P 1'
_symmetry_Int_Tables_number      1
_space_group_name_Hall           'P 1'
loop_
_symmetry_equiv_pos_site_id
_symmetry_equiv_pos_as_xyz
1 x,y,z
_cell_length_a                   31.1452(5)
_cell_length_b                   16.2749(2)
_cell_length_c                   41.7208(7)
_cell_angle_alpha                90
_cell_angle_beta                 90
_cell_angle_gamma                90
_cell_volume                     21147.6
loop_
_atom_site_label
_atom_site_type_symbol
_atom_site_fract_x
_atom_site_fract_y
_atom_site_fract_z
In7 In 0.441893(14) 0.03286(2) 0.519544(11)
In2 In 0.723593(14) 0.45743(3) 0.762271(10)
In4 In 0.784590(15) 0.60829(3) 0.722059(12)
In5 In 0.693562(14) 0.52358(3) 0.684970(11)
In6 In 0.533807(15) 0.11282(3) 0.481630(13)
C1 C 0.4008(3) 0.3116(5) 0.5262(3)
H1 H 0.3840 0.2645 0.5275
C2 C 0.6618(4) 0.2450(5) 0.6678(2)
H2 H 0.6604 0.2900 0.6541
C3 C 0.4883(3) 0.1976(7) 0.3243(3)
H3 H 0.4721 0.1833 0.3065
C4 C 0.6246(5) 0.0150(10) 0.6102(6)
H4 H 0.6539 0.0038 0.6092
C5 C 0.4428(3) 0.3061(4) 0.5178(2)
C6 C 0.2426(3) 0.3772(6) 0.2952(2)
C7 C 0.4056(2) 0.4189(5) 0.2597(2)
C8 C 0.4340(3) 0.3835(6) 0.2393(3)
H5 H 0.4292 0.3861 0.2173
C9 C 0.6771(3) 0.4512(6) 0.2573(2)
C10 C 0.4611(3) 0.2216(5) 0.5122(2)
C11 C 0.3665(2) 0.4639(5) 0.2455(2)
C12 C 0.5322(3) 0.0455(6) 0.5527(3)
C13 C 0.4116(3) 0.4204(8) 0.2922(2)
H6 H 0.3921 0.4444 0.3063
C14 C 0.2780(3) 0.1506(8) 0.4528(2)
H7 H 0.2578 0.1736 0.4665
C15 C 0.2397(2) 0.3257(5) 0.3245(2)
C17 C 0.6490(4) 0.1013(4) 0.6771(2)
C18 C 0.6490(5) 0.1657(6) 0.6573(3)
H8 H 0.6405 0.1585 0.6362
C19 C 0.6893(3) 0.3380(5) 0.70885(19)
C20 C 0.5058(3) 0.1205(5) 0.4105(2)
C21 C 0.1163(2) 0.1618(6) 0.4247(2)
H9 H 0.0910 0.1906 0.4210
C24 C 0.5944(2) 0.3015(6) 0.2902(3)
H11 H 0.5940 0.2491 0.2991
C25 C 0.3144(3) 0.1165(7) 0.4656(2)
H12 H 0.3196 0.1206 0.4875
C26 C 0.4003(4) 0.6086(4) 0.5332(2)
C27 C 0.4397(2) 0.8447(4) 0.50119(19)
C28 C 0.4858(3) 0.1497(7) 0.3536(3)
H13 H 0.4677 0.1043 0.3542
C29 C 0.1145(2) 0.0840(5) 0.4391(2)
C30 C 0.5587(3) 0.4209(7) 0.2707(3)
H14 H 0.5332 0.4464 0.2648
C31 C 0.2606(3) 0.3014(7) 0.3789(2)
H15 H 0.2773 0.3148 0.3967
C32 C 0.2706(3) 0.1521(6) 0.4218(3)
C33 C 0.2337(2) 0.2346(6) 0.3806(2)
C34 C 0.3773(4) 0.4853(7) 0.5972(2)
H16 H 0.4061 0.4698 0.5975
C36 C 0.4502(3) 0.3821(7) 0.3026(2)
H17 H 0.4560 0.3830 0.3245
C37 C 0.4497(4) 0.4507(4) 0.5237(3)
H18 H 0.4663 0.4981 0.5224
C38 C 0.4056(4) 0.4568(5) 0.5329(3)
C39 C 0.2836(3) 0.4710(4) 0.6530(2)
C40 C 0.3004(3) 0.1182(7) 0.4011(2)
H19 H 0.2963 0.1201 0.3790
C41 C 0.3834(4) 0.3862(5) 0.5325(3)
H20 H 0.3542 0.3886 0.5370
C42 C 0.4264(3) 0.7631(5) 0.5114(2)
C43 C 0.1547(2) 0.1959(6) 0.4160(2)
H21 H 0.1555 0.2491 0.4078
C44 C 0.2950(4) 0.5352(5) 0.6000(3)
H22 H 0.2670 0.5548 0.6005
C45 C 0.2637(3) 0.3478(6) 0.3524(2)
H23 H 0.2814 0.3939 0.3522
C46 C 0.3637(5) 0.5243(5) 0.5727(3)
C47 C 0.1921(3) 0.1517(7) 0.4193(2)
C48 C 0.3440(2) 0.0754(6) 0.4457(2)
C49 C 0.5563(3) 0.3454(6) 0.2865(2)
C50 C 0.5585(3) 0.0370(6) 0.5830(2)
C51 C 0.6628(3) 0.1110(4) 0.7082(2)
H24 H 0.6639 0.0659 0.7218
C52 C 0.5345(3) 0.2397(7) 0.3788(3)
H25 H 0.5505 0.2540 0.3967
C53 C 0.3362(3) 0.0817(6) 0.4138(2)
H26 H 0.3564 0.0600 0.3997
C54 C 0.6010(4) 0.0211(7) 0.5801(3)
H27 H 0.6142 0.0146 0.5602
C55 C 0.1528(3) 0.0476(6) 0.4425(3)
C56 C 0.0732(3) 0.0464(5) 0.4490(2)
C57 C 0.4134(4) 0.6201(5) 0.5007(3)
H29 H 0.4123 0.5771 0.4861
C58 C 0.2086(3) 0.2141(7) 0.3552(3)
H30 H 0.1888 0.1716 0.3567
C59 C 0.5145(3) 0.2632(7) 0.3237(3)
C60 C 0.4783(2) 0.3453(6) 0.2839(2)
C62 C 0.1904(3) 0.0759(7) 0.4322(3)
H32 H 0.2151 0.0440 0.4340
C63 C 0.6327(2) 0.3362(6) 0.2806(2)
H33 H 0.6580 0.3066 0.2832
C64 C 0.5409(5) 0.0396(7) 0.6125(3)
H34 H 0.5112 0.0430 0.6146
C65 C 0.5362(3) 0.2876(6) 0.3517(3)
H35 H 0.5517 0.3364 0.3519
C66 C 0.5670(5) 0.0373(7) 0.6402(3)
H36 H 0.5542 0.0456 0.6601
C67 C 0.4681(4) 0.3754(5) 0.5168(3)
H37 H 0.4970 0.3717 0.5115
C68 C 0.2135(3) 0.2598(6) 0.3255(2)
H38 H 0.1986 0.2437 0.3072
C69 C 0.6344(2) 0.4123(5) 0.2676(2)
C70 C 0.3218(4) 0.5497(6) 0.5728(3)
H39 H 0.3106 0.5766 0.5550
C71 C 0.3832(3) 0.0360(5) 0.4572(2)
C72 C 0.3523(4) 0.4648(6) 0.6230(3)
H40 H 0.3634 0.4321 0.6393
C73 C 0.6761(3) 0.2534(4) 0.6980(2)
C75 C 0.6751(3) 0.1884(5) 0.7194(2)
H42 H 0.6826 0.1961 0.7407
C77 C 0.4707(3) 0.3429(7) 0.2511(3)
H44 H 0.4893 0.3153 0.2373
C78 C 0.6071(5) 0.0243(6) 0.6391(4)
C79 C 0.3110(3) 0.4929(5) 0.6245(2)
C80 C 0.5084(3) 0.1685(5) 0.3793(2)
C81 C 0.4002(4) 0.6734(5) 0.5532(2)
H45 H 0.3919 0.6658 0.5744
C82 C 0.4122(4) 0.7517(5) 0.5429(2)
H46 H 0.4108 0.7961 0.5569
C83 C 0.4279(4) 0.6975(5) 0.4915(2)
H47 H 0.4390 0.7043 0.4709
C84 C 0.5965(3) 0.4598(7) 0.2635(3)
H48 H 0.5974 0.5139 0.2564
N1 N 0.2307(2) 0.1858(6) 0.4091(2)
N2 N 0.3890(3) 0.5308(3) 0.5438(2)
N3 N 0.6336(3) 0.0223(4) 0.6665(2)
N4 N 0.5167(2) 0.3115(6) 0.2957(2)
O1 O 0.4976(2) 0.2190(3) 0.50036(18)
O2 O 0.7102(3) 0.3844(5) 0.80437(16)
H49 H 0.7288 0.3345 0.8139
H50 H 0.6838 0.3904 0.8206
O4 O 0.2242(2) 0.3475(4) 0.27098(13)
O5 O 0.4398(2) 0.1645(3) 0.5216(2)
O6 O 0.3952(3) 0.0335(5) 0.56013(19)
H51 H 0.3760 0.0783 0.5658
O7 O 0.5888(2) 0.1908(4) 0.4826(2)
H53 H 0.6044 0.2035 0.4662
H54 H 0.5990 0.2148 0.4994
O8 O 0.70997(14) 0.4159(4) 0.26511(14)
O9 O 0.4082(2) 0.0031(4) 0.43979(19)
O10 O 0.73392(14) 0.5286(3) 0.72315(12)
O11 O 0.4375(2) 0.9013(2) 0.52139(15)
O12 O 0.3437(2) 0.4998(3) 0.2658(2)
O13 O 0.4919(2) 0.0325(4) 0.55611(16)
O14 O 0.2450(2) 0.4947(3) 0.65184(15)
O15 O 0.36240(19) 0.4594(5) 0.21696(17)
O16 O 0.48349(15) 0.0330(2) 0.48189(12)
O17 O 0.8400(2) 0.6873(5) 0.7198(2)
H55 H 0.8407 0.7440 0.7248
H56 H 0.8681 0.6716 0.7136
O19 O 0.2608(2) 0.4451(3) 0.29712(13)
O20 O 0.6875(2) 0.3913(3) 0.68741(15)
O21 O 0.6730(2) 0.5148(4) 0.2418(2)
O22 O 0.6494(2) 0.5171(4) 0.64617(15)
H57 H 0.6538 0.5341 0.6270
H58 H 0.6240 0.4972 0.6475
O24 O 0.3862(2) 0.0352(6) 0.48808(15)
O25 O 0.70410(19) 0.3468(3) 0.73612(14)
O26 O 0.5212(2) 0.1574(4) 0.43410(16)
O27 O 0.45228(19) 0.8542(3) 0.47235(13)
O28 O 0.4894(2) 0.0546(3) 0.40856(14)
O29 O 0.03876(16) 0.0854(3) 0.44174(15)
O31 O 0.3004(2) 0.4289(4) 0.67384(14)
O32 O 0.5530(2) 0.0728(5) 0.52998(16)
In8 In 0.276407(14) 0.54257(3) 0.262271(10)
In9 In 0.776407(14) 0.45743(3) 0.262271(10)
In10 In 0.472636(14) 0.95950(3) 0.443393(10)
In13 In 0.215410(15) 0.39171(3) 0.222059(12)
In14 In 0.715410(15) 0.60829(3) 0.222059(12)
In15 In 0.284590(15) 0.39171(3) 0.722059(12)
In17 In 0.306438(14) 0.47642(3) 0.184970(11)
In18 In 0.193562(14) 0.47642(3) 0.684970(11)
O33 O 0.7480(2) 0.7123(3) 0.70604(15)
O34 O 0.7758(2) 0.6525(4) 0.77098(13)
O35 O 0.79003(14) 0.4159(4) 0.76511(14)
O37 O 0.6563(2) 0.5002(3) 0.7658(2)
O38 O 0.7450(2) 0.5053(3) 0.65184(15)
O39 O 0.63760(19) 0.5406(5) 0.71696(17)
O40 O 0.6948(2) 0.6535(3) 0.67769(19)
O41 O 0.7392(2) 0.5549(3) 0.79712(13)
O42 O 0.8270(2) 0.5148(4) 0.7418(2)
O45 O 0.5763(2) 0.0227(4) 0.4613(2)
O46 O 0.8004(2) 0.5711(4) 0.67384(14)
C16 C 0.6931(3) 0.7958(3) 0.6853(2)
C22 C 0.6515(4) 0.8010(5) 0.6735(3)
H10 H 0.6360 0.7533 0.6693
C23 C 0.7135(3) 0.7143(4) 0.6901(2)
C35 C 0.6557(4) 0.9499(4) 0.6727(3)
H28 H 0.1531 0.9973 0.4531
C61 C 0.6959(3) 0.9443(4) 0.6845(3)
H31 H 0.7110 0.9921 0.6892
C74 C 0.7156(3) 0.8677(5) 0.6900(2)
H41 H 0.7440 0.8657 0.6969
C76 C 0.6333(4) 0.8766(5) 0.6679(3)
H43 H 0.6051 0.8790 0.6607
H52 H 0.3901 0.9890 0.5753
O23 O 0.4589(3) 0.8825(4) 0.40360(18)
H59 H 0.4346 0.8844 0.3911
H60 H 0.4760 0.8409 0.3960
O30 O 0.0763(2) 0.9773(4) 0.4613(2)
In19 In 0.033807(15) 0.88718(3) 0.481630(13)
O44 O 0.53876(16) 0.9146(3) 0.44174(15)
In11 In 0.972636(14) 0.04050(3) 0.443393(10)
In11_2 In 0.027364(14) 0.95950(3) 0.943393(10)
C16_2 C 0.3069(3) 0.2042(3) 0.1853(2)
C22_2 C 0.3485(4) 0.1990(5) 0.1735(3)
H10_2 H 0.3640 0.2467 0.1693
C23_2 C 0.2865(3) 0.2857(4) 0.1901(2)
C35_2 C 0.3443(4) 0.0501(4) 0.1727(3)
C61_2 C 0.3041(3) 0.0557(4) 0.1845(3)
H31_2 H 0.2890 0.0079 0.1892
C74_2 C 0.2844(3) 0.1323(5) 0.1900(2)
H41_2 H 0.2560 0.1343 0.1969
C76_2 C 0.3667(4) 0.1234(5) 0.1679(3)
H43_2 H 0.3949 0.1210 0.1607
O3 O 0.2520(2) 0.2877(3) 0.20604(15)
H52_2 H 0.6099 0.0110 0.0753
O18 O 0.3052(2) 0.3465(3) 0.17769(19)
O36 O 0.5625(2) 0.0987(2) 0.02139(15)
In3 In 0.527364(14) 0.04050(3) 0.943393(10)
H28_2 H 0.8469 0.0027 0.9531
O23_2 O 0.5411(3) 0.1175(4) 0.90360(18)
H59_2 H 0.5654 0.1156 0.8911
H60_2 H 0.5240 0.1591 0.8960
O30_2 O 0.9237(2) 0.0227(4) 0.9613(2)
In19_2 In 0.966193(15) 0.11282(3) 0.981630(13)
O43 O 0.54772(19) 0.1458(3) 0.97235(13)
O44_2 O 0.46124(16) 0.0854(3) 0.94174(15)
In1 In 0.558107(14) 0.96714(2) 0.019544(11)
C1_2 C 0.5992(3) 0.6884(5) 0.0262(3)
H1_2 H 0.6160 0.7355 0.0275
C2_2 C 0.3382(4) 0.7550(5) 0.1678(2)
H2_2 H 0.3396 0.7100 0.1541
C4_2 C 0.3754(5) 0.9850(10) 0.1102(6)
H4_2 H 0.3461 0.9962 0.1092
C5_2 C 0.5572(3) 0.6939(4) 0.0178(2)
C10_2 C 0.5389(3) 0.7784(5) 0.0122(2)
C12_2 C 0.4678(3) 0.9545(6) 0.0527(3)
C17_2 C 0.3510(4) 0.8987(4) 0.1771(2)
C18_2 C 0.3510(5) 0.8343(6) 0.1573(3)
H8_2 H 0.3595 0.8415 0.1362
C19_2 C 0.3107(3) 0.6620(5) 0.20885(19)
C26_2 C 0.5997(4) 0.3914(4) 0.0332(2)
C27_2 C 0.5603(2) 0.1553(4) 0.00119(19)
C34_2 C 0.6227(4) 0.5147(7) 0.0972(2)
H16_2 H 0.5939 0.5302 0.0975
C37_2 C 0.5503(4) 0.5493(4) 0.0237(3)
H18_2 H 0.5337 0.5019 0.0224
C38_2 C 0.5944(4) 0.5432(5) 0.0329(3)
C39_2 C 0.7164(3) 0.5290(4) 0.1530(2)
C41_2 C 0.6166(4) 0.6138(5) 0.0325(3)
H20_2 H 0.6458 0.6114 0.0370
C42_2 C 0.5736(3) 0.2369(5) 0.0114(2)
C44_2 C 0.7050(4) 0.4648(5) 0.1000(3)
H22_2 H 0.7330 0.4452 0.1005
C46_2 C 0.6363(5) 0.4757(5) 0.0727(3)
C50_2 C 0.4415(3) 0.9630(6) 0.0830(2)
C51_2 C 0.3372(3) 0.8890(4) 0.2082(2)
H24_2 H 0.3361 0.9341 0.2218
C54_2 C 0.3990(4) 0.9789(7) 0.0801(3)
H27_2 H 0.3858 0.9854 0.0602
C57_2 C 0.5866(4) 0.3799(5) 0.0007(3)
C64_2 C 0.4591(5) 0.9604(7) 0.1125(3)
H34_2 H 0.4888 0.9570 0.1146
C66_2 C 0.4330(5) 0.9627(7) 0.1402(3)
H36_2 H 0.4458 0.9544 0.1601
C67_2 C 0.5319(4) 0.6246(5) 0.0168(3)
H37_2 H 0.5030 0.6283 0.0115
C70_2 C 0.6782(4) 0.4503(6) 0.0728(3)
H39_2 H 0.6894 0.4234 0.0550
C72_2 C 0.6477(4) 0.5352(6) 0.1230(3)
H40_2 H 0.6366 0.5679 0.1393
C73_2 C 0.3239(3) 0.7466(4) 0.1980(2)
C75_2 C 0.3249(3) 0.8116(5) 0.2194(2)
H42_2 H 0.3174 0.8039 0.2407
C78_2 C 0.3929(5) 0.9757(6) 0.1391(4)
C79_2 C 0.6890(3) 0.5071(5) 0.1245(2)
C81_2 C 0.5998(4) 0.3266(5) 0.0532(2)
H45_2 H 0.6081 0.3342 0.0744
C82_2 C 0.5878(4) 0.2483(5) 0.0429(2)
H46_2 H 0.5892 0.2039 0.0569
N2_2 N 0.6110(3) 0.4692(3) 0.0438(2)
N3_2 N 0.3664(3) 0.9777(4) 0.1665(2)
O1_2 O 0.5024(2) 0.7810(3) 0.00036(18)
O2_2 O 0.2898(3) 0.6156(5) 0.30437(16)
H49_2 H 0.2712 0.6655 0.3139
H50_2 H 0.3162 0.6096 0.3206
O5_2 O 0.5602(2) 0.8355(3) 0.0216(2)
O6_2 O 0.6048(3) 0.9665(5) 0.06013(19)
H51_2 H 0.6240 0.9217 0.0658
O10_2 O 0.26608(14) 0.4714(3) 0.22315(12)
O13_2 O 0.5081(2) 0.9675(4) 0.05611(16)
O14_2 O 0.7550(2) 0.5053(3) 0.15184(15)
O17_2 O 0.1600(2) 0.3127(5) 0.2198(2)
H55_2 H 0.1593 0.2560 0.2248
H56_2 H 0.1319 0.3284 0.2136
O20_2 O 0.3125(2) 0.6087(3) 0.18741(15)
O22_2 O 0.3506(2) 0.4829(4) 0.14617(15)
H57_2 H 0.3462 0.4659 0.1270
H58_2 H 0.3760 0.5028 0.1475
O25_2 O 0.29590(19) 0.6532(3) 0.23612(14)
O31_2 O 0.6996(2) 0.5711(4) 0.17384(14)
O32_2 O 0.4470(2) 0.9272(5) 0.02998(16)
In18_2 In 0.806438(14) 0.52358(3) 0.184970(11)
O35_2 O 0.20997(14) 0.5841(4) 0.26511(14)
O38_2 O 0.2550(2) 0.4947(3) 0.15184(15)
O42_2 O 0.1730(2) 0.4852(4) 0.2418(2)
O46_2 O 0.1996(2) 0.4289(4) 0.17384(14)
In6_2 In 0.466193(15) 0.88718(3) 0.981630(13)
C3_2 C 0.5117(3) 0.8024(7) 0.8243(3)
H3_2 H 0.5279 0.8167 0.8065
C6_2 C 0.7574(3) 0.6228(6) 0.7952(2)
C7_2 C 0.5944(2) 0.5811(5) 0.7597(2)
C8_2 C 0.5660(3) 0.6165(6) 0.7393(3)
H5_2 H 0.5708 0.6139 0.7173
C9_2 C 0.3229(3) 0.5488(6) 0.7573(2)
C11_2 C 0.6335(2) 0.5361(5) 0.7455(2)
C13_2 C 0.5884(3) 0.5796(8) 0.7922(2)
H6_2 H 0.6079 0.5556 0.8063
C14_2 C 0.7220(3) 0.8494(8) 0.9528(2)
H7_2 H 0.7422 0.8264 0.9665
C15_2 C 0.7603(2) 0.6743(5) 0.8245(2)
C20_2 C 0.4942(3) 0.8795(5) 0.9105(2)
C21_2 C 0.8837(2) 0.8382(6) 0.9247(2)
H9_2 H 0.9090 0.8094 0.9210
C24_2 C 0.4056(2) 0.6985(6) 0.7902(3)
H11_2 H 0.4060 0.7509 0.7991
C25_2 C 0.6856(3) 0.8835(7) 0.9656(2)
H12_2 H 0.6804 0.8794 0.9875
C28_2 C 0.5142(3) 0.8503(7) 0.8536(3)
H13_2 H 0.5323 0.8957 0.8542
C29_2 C 0.8855(2) 0.9160(5) 0.9391(2)
C30_2 C 0.4413(3) 0.5791(7) 0.7707(3)
H14_2 H 0.4668 0.5536 0.7648
C31_2 C 0.7394(3) 0.6986(7) 0.8789(2)
H15_2 H 0.7227 0.6852 0.8967
C32_2 C 0.7294(3) 0.8479(6) 0.9218(3)
C33_2 C 0.7663(2) 0.7654(6) 0.8806(2)
C36_2 C 0.5498(3) 0.6179(7) 0.8026(2)
H17_2 H 0.5440 0.6170 0.8245
C40_2 C 0.6996(3) 0.8818(7) 0.9011(2)
H19_2 H 0.7037 0.8799 0.8790
C43_2 C 0.8453(2) 0.8041(6) 0.9160(2)
H21_2 H 0.8445 0.7509 0.9078
C45_2 C 0.7363(3) 0.6522(6) 0.8524(2)
H23_2 H 0.7186 0.6061 0.8522
C47_2 C 0.8079(3) 0.8483(7) 0.9193(2)
C48_2 C 0.6560(2) 0.9246(6) 0.9457(2)
C49_2 C 0.4437(3) 0.6546(6) 0.7865(2)
C52_2 C 0.4655(3) 0.7603(7) 0.8788(3)
H25_2 H 0.4495 0.7460 0.8967
C53_2 C 0.6638(3) 0.9183(6) 0.9138(2)
H26_2 H 0.6436 0.9400 0.8997
C55_2 C 0.8472(3) 0.9524(6) 0.9425(3)
C56_2 C 0.9268(3) 0.9536(5) 0.9490(2)
H29_2 H 0.5877 0.4229 0.9861
C58_2 C 0.7914(3) 0.7859(7) 0.8552(3)
H30_2 H 0.8112 0.8284 0.8567
C59_2 C 0.4855(3) 0.7368(7) 0.8237(3)
C60_2 C 0.5217(2) 0.6547(6) 0.7839(2)
C62_2 C 0.8096(3) 0.9241(7) 0.9322(3)
H32_2 H 0.7849 0.9560 0.9340
C63_2 C 0.3673(2) 0.6638(6) 0.7806(2)
H33_2 H 0.3420 0.6934 0.7832
C65_2 C 0.4638(3) 0.7124(6) 0.8517(3)
H35_2 H 0.4483 0.6636 0.8519
C68_2 C 0.7865(3) 0.7402(6) 0.8255(2)
H38_2 H 0.8014 0.7563 0.8072
C69_2 C 0.3656(2) 0.5877(5) 0.7676(2)
C71_2 C 0.6168(3) 0.9640(5) 0.9572(2)
C77_2 C 0.5293(3) 0.6571(7) 0.7511(3)
H44_2 H 0.5107 0.6847 0.7373
C80_2 C 0.4916(3) 0.8315(5) 0.8793(2)
C83_2 C 0.5721(4) 0.3025(5) 0.9915(2)
H47_2 H 0.5610 0.2957 0.9709
C84_2 C 0.4035(3) 0.5402(7) 0.7635(3)
H48_2 H 0.4026 0.4861 0.7564
N1_2 N 0.7693(2) 0.8142(6) 0.9091(2)
N4_2 N 0.4833(2) 0.6885(6) 0.7957(2)
O7_2 O 0.4112(2) 0.8092(4) 0.9826(2)
H53_2 H 0.3956 0.7965 0.9662
H54_2 H 0.4010 0.7852 0.9994
O8_2 O 0.29003(14) 0.5841(4) 0.76511(14)
O9_2 O 0.5918(2) 0.9969(4) 0.93979(19)
O16_2 O 0.51651(15) 0.9670(2) 0.98189(12)
O21_2 O 0.3270(2) 0.4852(4) 0.7418(2)
O24_2 O 0.6138(2) 0.9648(6) 0.98808(15)
O26_2 O 0.4788(2) 0.8426(4) 0.93410(16)
O28_2 O 0.5106(2) 0.9454(3) 0.90856(14)
O29_2 O 0.96124(16) 0.9146(3) 0.94174(15)
In9_2 In 0.223593(14) 0.54257(3) 0.762271(10)
O45_2 O 0.4237(2) 0.9773(4) 0.9613(2)
In7_2 In 0.058107(14) 0.03286(2) 0.019544(11)
C1_3 C 0.0992(3) 0.3116(5) 0.0262(3)
H1_3 H 0.1160 0.2645 0.0275
C5_3 C 0.0572(3) 0.3061(4) 0.0178(2)
C10_3 C 0.0389(3) 0.2216(5) 0.0122(2)
C26_3 C 0.0997(4) 0.6086(4) 0.0332(2)
C27_3 C 0.0603(2) 0.8447(4) 0.00119(19)
C34_3 C 0.1227(4) 0.4853(7) 0.0972(2)
H16_3 H 0.0939 0.4698 0.0975
C37_3 C 0.0503(4) 0.4507(4) 0.0237(3)
H18_3 H 0.0337 0.4981 0.0224
C38_3 C 0.0944(4) 0.4568(5) 0.0329(3)
C39_3 C 0.2164(3) 0.4710(4) 0.1530(2)
C41_3 C 0.1166(4) 0.3862(5) 0.0325(3)
H20_3 H 0.1458 0.3886 0.0370
C42_3 C 0.0736(3) 0.7631(5) 0.0114(2)
C44_3 C 0.2050(4) 0.5352(5) 0.1000(3)
H22_3 H 0.2330 0.5548 0.1005
C46_3 C 0.1363(5) 0.5243(5) 0.0727(3)
C57_3 C 0.0866(4) 0.6201(5) 0.0007(3)
C67_3 C 0.0319(4) 0.3754(5) 0.0168(3)
H37_3 H 0.0030 0.3717 0.0115
C70_3 C 0.1782(4) 0.5497(6) 0.0728(3)
H39_3 H 0.1894 0.5766 0.0550
C72_3 C 0.1477(4) 0.4648(6) 0.1230(3)
H40_3 H 0.1366 0.4321 0.1393
C79_3 C 0.1890(3) 0.4929(5) 0.1245(2)
C81_3 C 0.0998(4) 0.6734(5) 0.0532(2)
H45_3 H 0.1081 0.6658 0.0744
C82_3 C 0.0878(4) 0.7517(5) 0.0429(2)
H46_3 H 0.0892 0.7961 0.0569
N2_3 N 0.1110(3) 0.5308(3) 0.0438(2)
O1_3 O 0.0024(2) 0.2190(3) 0.00036(18)
O5_3 O 0.0602(2) 0.1645(3) 0.0216(2)
O6_3 O 0.1048(3) 0.0335(5) 0.06013(19)
H51_3 H 0.1240 0.0783 0.0658
O11_2 O 0.0625(2) 0.9013(2) 0.02139(15)
O13_3 O 0.0081(2) 0.0325(4) 0.05611(16)
C3_3 C 0.0117(3) 0.1976(7) 0.8243(3)
H3_3 H 0.0279 0.1833 0.8065
C6_3 C 0.2574(3) 0.3772(6) 0.7952(2)
C7_3 C 0.0944(2) 0.4189(5) 0.7597(2)
C8_3 C 0.0660(3) 0.3835(6) 0.7393(3)
H5_3 H 0.0708 0.3861 0.7173
C11_3 C 0.1335(2) 0.4639(5) 0.7455(2)
C13_3 C 0.0884(3) 0.4204(8) 0.7922(2)
H6_3 H 0.1079 0.4444 0.8063
C14_3 C 0.2220(3) 0.1506(8) 0.9528(2)
H7_3 H 0.2422 0.1736 0.9665
C15_3 C 0.2603(2) 0.3257(5) 0.8245(2)
C21_3 C 0.3837(2) 0.1618(6) 0.9247(2)
H9_3 H 0.4090 0.1906 0.9210
C25_3 C 0.1856(3) 0.1165(7) 0.9656(2)
H12_3 H 0.1804 0.1206 0.9875
C28_3 C 0.0142(3) 0.1497(7) 0.8536(3)
H13_3 H 0.0323 0.1043 0.8542
C29_3 C 0.3855(2) 0.0840(5) 0.9391(2)
C31_3 C 0.2394(3) 0.3014(7) 0.8789(2)
H15_3 H 0.2227 0.3148 0.8967
C32_3 C 0.2294(3) 0.1521(6) 0.9218(3)
C33_3 C 0.2663(2) 0.2346(6) 0.8806(2)
C36_3 C 0.0498(3) 0.3821(7) 0.8026(2)
H17_3 H 0.0440 0.3830 0.8245
C40_3 C 0.1996(3) 0.1182(7) 0.9011(2)
H19_3 H 0.2037 0.1201 0.8790
C43_3 C 0.3453(2) 0.1959(6) 0.9160(2)
H21_3 H 0.3445 0.2491 0.9078
C45_3 C 0.2363(3) 0.3478(6) 0.8524(2)
H23_3 H 0.2186 0.3939 0.8522
C47_3 C 0.3079(3) 0.1517(7) 0.9193(2)
C48_3 C 0.1560(2) 0.0754(6) 0.9457(2)
C53_3 C 0.1638(3) 0.0817(6) 0.9138(2)
H26_3 H 0.1436 0.0600 0.8997
C55_3 C 0.3472(3) 0.0476(6) 0.9425(3)
C56_3 C 0.4268(3) 0.0464(5) 0.9490(2)
H29_3 H 0.0877 0.5771 0.9861
C58_3 C 0.2914(3) 0.2141(7) 0.8552(3)
H30_3 H 0.3112 0.1716 0.8567
C60_3 C 0.0217(2) 0.3453(6) 0.7839(2)
C62_3 C 0.3096(3) 0.0759(7) 0.9322(3)
H32_3 H 0.2849 0.0440 0.9340
C68_3 C 0.2865(3) 0.2598(6) 0.8255(2)
H38_3 H 0.3014 0.2437 0.8072
C71_3 C 0.1168(3) 0.0360(5) 0.9572(2)
C77_3 C 0.0293(3) 0.3429(7) 0.7511(3)
H44_3 H 0.0107 0.3153 0.7373
C83_3 C 0.0721(4) 0.6975(5) 0.9915(2)
H47_3 H 0.0610 0.7043 0.9709
N1_3 N 0.2693(2) 0.1858(6) 0.9091(2)
O4_2 O 0.2758(2) 0.3475(4) 0.77098(13)
O9_3 O 0.0918(2) 0.0031(4) 0.93979(19)
O12_2 O 0.1563(2) 0.4998(3) 0.7658(2)
O15_2 O 0.13760(19) 0.4594(5) 0.71696(17)
O16_3 O 0.01651(15) 0.0330(2) 0.98189(12)
O19_2 O 0.2392(2) 0.4451(3) 0.79712(13)
O24_3 O 0.1138(2) 0.0352(6) 0.98808(15)
O27_2 O 0.04772(19) 0.8542(3) 0.97235(13)
O28_3 O 0.0106(2) 0.0546(3) 0.90856(14)
H52_3 H 0.1099 0.9890 0.0753
H28_3 H 0.3469 0.9973 0.9531
O23_3 O 0.0411(3) 0.8825(4) 0.90360(18)
H59_3 H 0.0654 0.8844 0.8911
H60_3 H 0.0240 0.8409 0.8960
C2_3 C 0.8382(4) 0.2450(5) 0.1678(2)
H2_3 H 0.8396 0.2900 0.1541
C4_3 C 0.8754(5) 0.0150(10) 0.1102(6)
H4_3 H 0.8461 0.0038 0.1092
C12_3 C 0.9678(3) 0.0455(6) 0.0527(3)
C17_3 C 0.8510(4) 0.1013(4) 0.1771(2)
C18_3 C 0.8510(5) 0.1657(6) 0.1573(3)
H8_3 H 0.8595 0.1585 0.1362
C19_3 C 0.8107(3) 0.3380(5) 0.20885(19)
C50_3 C 0.9415(3) 0.0370(6) 0.0830(2)
C51_3 C 0.8372(3) 0.1110(4) 0.2082(2)
H24_3 H 0.8361 0.0659 0.2218
C54_3 C 0.8990(4) 0.0211(7) 0.0801(3)
H27_3 H 0.8858 0.0146 0.0602
C64_3 C 0.9591(5) 0.0396(7) 0.1125(3)
H34_3 H 0.9888 0.0430 0.1146
C66_3 C 0.9330(5) 0.0373(7) 0.1402(3)
H36_3 H 0.9458 0.0456 0.1601
C73_3 C 0.8239(3) 0.2534(4) 0.1980(2)
C75_3 C 0.8249(3) 0.1884(5) 0.2194(2)
H42_3 H 0.8174 0.1961 0.2407
C78_3 C 0.8929(5) 0.0243(6) 0.1391(4)
N3_3 N 0.8664(3) 0.0223(4) 0.1665(2)
O2_3 O 0.7898(3) 0.3844(5) 0.30437(16)
H49_3 H 0.7712 0.3345 0.3139
H50_3 H 0.8162 0.3904 0.3206
O10_3 O 0.76608(14) 0.5286(3) 0.22315(12)
O17_3 O 0.6600(2) 0.6873(5) 0.2198(2)
H55_3 H 0.6593 0.7440 0.2248
H56_3 H 0.6319 0.6716 0.2136
O20_3 O 0.8125(2) 0.3913(3) 0.18741(15)
O22_3 O 0.8506(2) 0.5171(4) 0.14617(15)
H57_3 H 0.8462 0.5341 0.1270
H58_3 H 0.8760 0.4972 0.1475
O25_3 O 0.79590(19) 0.3468(3) 0.23612(14)
O32_3 O 0.9470(2) 0.0728(5) 0.02998(16)
O33_2 O 0.7520(2) 0.7123(3) 0.20604(15)
O34_2 O 0.7242(2) 0.6525(4) 0.27098(13)
O37_2 O 0.8437(2) 0.5002(3) 0.2658(2)
O39_2 O 0.86240(19) 0.5406(5) 0.21696(17)
O40_2 O 0.8052(2) 0.6535(3) 0.17769(19)
O41_2 O 0.7608(2) 0.5549(3) 0.29712(13)
C9_3 C 0.8229(3) 0.4512(6) 0.7573(2)
C20_3 C 0.9942(3) 0.1205(5) 0.9105(2)
C24_3 C 0.9056(2) 0.3015(6) 0.7902(3)
H11_3 H 0.9060 0.2491 0.7991
C30_3 C 0.9413(3) 0.4209(7) 0.7707(3)
H14_3 H 0.9668 0.4464 0.7648
C49_3 C 0.9437(3) 0.3454(6) 0.7865(2)
C52_3 C 0.9655(3) 0.2397(7) 0.8788(3)
H25_3 H 0.9495 0.2540 0.8967
C59_3 C 0.9855(3) 0.2632(7) 0.8237(3)
C63_3 C 0.8673(2) 0.3362(6) 0.7806(2)
H33_3 H 0.8420 0.3066 0.7832
C65_3 C 0.9638(3) 0.2876(6) 0.8517(3)
H35_3 H 0.9483 0.3364 0.8519
C69_3 C 0.8656(2) 0.4123(5) 0.7676(2)
C80_3 C 0.9916(3) 0.1685(5) 0.8793(2)
C84_3 C 0.9035(3) 0.4598(7) 0.7635(3)
H48_3 H 0.9026 0.5139 0.7564
N4_3 N 0.9833(2) 0.3115(6) 0.7957(2)
O7_3 O 0.9112(2) 0.1908(4) 0.9826(2)
H53_3 H 0.8956 0.2035 0.9662
H54_3 H 0.9010 0.2148 0.9994
O26_3 O 0.9788(2) 0.1574(4) 0.93410(16)
C16_3 C 0.8069(3) 0.7958(3) 0.1853(2)
C22_3 C 0.8485(4) 0.8010(5) 0.1735(3)
H10_3 H 0.8640 0.7533 0.1693
C23_3 C 0.7865(3) 0.7143(4) 0.1901(2)
C35_3 C 0.8443(4) 0.9499(4) 0.1727(3)
C61_3 C 0.8041(3) 0.9443(4) 0.1845(3)
H31_3 H 0.7890 0.9921 0.1892
C74_3 C 0.7844(3) 0.8677(5) 0.1900(2)
H41_3 H 0.7560 0.8657 0.1969
C76_3 C 0.8667(4) 0.8766(5) 0.1679(3)
H43_3 H 0.8949 0.8790 0.1607
C16_4 C 0.1931(3) 0.2042(3) 0.6853(2)
C22_4 C 0.1515(4) 0.1990(5) 0.6735(3)
H10_4 H 0.1360 0.2467 0.6693
C23_4 C 0.2135(3) 0.2857(4) 0.6901(2)
C35_4 C 0.1557(4) 0.0501(4) 0.6727(3)
C61_4 C 0.1959(3) 0.0557(4) 0.6845(3)
H31_4 H 0.2110 0.0079 0.6892
C74_4 C 0.2156(3) 0.1323(5) 0.6900(2)
H41_4 H 0.2440 0.1343 0.6969
C76_4 C 0.1333(4) 0.1234(5) 0.6679(3)
H43_4 H 0.1051 0.1210 0.6607
O3_2 O 0.2480(2) 0.2877(3) 0.70604(15)
O18_2 O 0.1948(2) 0.3465(3) 0.67769(19)
C2_4 C 0.1618(4) 0.7550(5) 0.6678(2)
H2_4 H 0.1604 0.7100 0.6541
C4_4 C 0.1246(5) 0.9850(10) 0.6102(6)
H4_4 H 0.1539 0.9962 0.6092
C9_4 C 0.1771(3) 0.5488(6) 0.2573(2)
C12_4 C 0.0322(3) 0.9545(6) 0.5527(3)
C17_4 C 0.1490(4) 0.8987(4) 0.6771(2)
C18_4 C 0.1490(5) 0.8343(6) 0.6573(3)
H8_4 H 0.1405 0.8415 0.6362
C19_4 C 0.1893(3) 0.6620(5) 0.70885(19)
C20_4 C 0.0058(3) 0.8795(5) 0.4105(2)
C24_4 C 0.0944(2) 0.6985(6) 0.2902(3)
H11_4 H 0.0940 0.7509 0.2991
C30_4 C 0.0587(3) 0.5791(7) 0.2707(3)
H14_4 H 0.0332 0.5536 0.2648
C49_4 C 0.0563(3) 0.6546(6) 0.2865(2)
C50_4 C 0.0585(3) 0.9630(6) 0.5830(2)
C51_4 C 0.1628(3) 0.8890(4) 0.7082(2)
H24_4 H 0.1639 0.9341 0.7218
C52_4 C 0.0345(3) 0.7603(7) 0.3788(3)
H25_4 H 0.0505 0.7460 0.3967
C54_4 C 0.1010(4) 0.9789(7) 0.5801(3)
H27_4 H 0.1142 0.9854 0.5602
C59_4 C 0.0145(3) 0.7368(7) 0.3237(3)
C63_4 C 0.1327(2) 0.6638(6) 0.2806(2)
H33_4 H 0.1580 0.6934 0.2832
C64_4 C 0.0409(5) 0.9604(7) 0.6125(3)
H34_4 H 0.0112 0.9570 0.6146
C65_4 C 0.0362(3) 0.7124(6) 0.3517(3)
H35_4 H 0.0517 0.6636 0.3519
C66_4 C 0.0670(5) 0.9627(7) 0.6402(3)
H36_4 H 0.0542 0.9544 0.6601
C69_4 C 0.1344(2) 0.5877(5) 0.2676(2)
C73_4 C 0.1761(3) 0.7466(4) 0.6980(2)
C75_4 C 0.1751(3) 0.8116(5) 0.7194(2)
H42_4 H 0.1826 0.8039 0.7407
C78_4 C 0.1071(5) 0.9757(6) 0.6391(4)
C80_4 C 0.0084(3) 0.8315(5) 0.3793(2)
C84_4 C 0.0965(3) 0.5402(7) 0.2635(3)
H48_4 H 0.0974 0.4861 0.2564
N3_4 N 0.1336(3) 0.9777(4) 0.6665(2)
N4_4 N 0.0167(2) 0.6885(6) 0.2957(2)
O2_4 O 0.2102(3) 0.6156(5) 0.80437(16)
H49_4 H 0.2288 0.6655 0.8139
H50_4 H 0.1838 0.6096 0.8206
O7_4 O 0.0888(2) 0.8092(4) 0.4826(2)
H53_4 H 0.1044 0.7965 0.4662
H54_4 H 0.0990 0.7852 0.4994
O10_4 O 0.23392(14) 0.4714(3) 0.72315(12)
O17_4 O 0.3400(2) 0.3127(5) 0.7198(2)
H55_4 H 0.3407 0.2560 0.7248
H56_4 H 0.3681 0.3284 0.7136
O20_4 O 0.1875(2) 0.6087(3) 0.68741(15)
O22_4 O 0.1494(2) 0.4829(4) 0.64617(15)
H57_4 H 0.1538 0.4659 0.6270
H58_4 H 0.1240 0.5028 0.6475
O25_4 O 0.20410(19) 0.6532(3) 0.73612(14)
O26_4 O 0.0212(2) 0.8426(4) 0.43410(16)
O32_4 O 0.0530(2) 0.9272(5) 0.52998(16)
H28_4 H 0.6531 0.0027 0.4531
H52_4 H 0.8901 0.0110 0.5753
O23_4 O 0.9589(3) 0.1175(4) 0.40360(18)
H59_4 H 0.9346 0.1156 0.3911
H60_4 H 0.9760 0.1591 0.3960
O36_2 O 0.9375(2) 0.0987(2) 0.52139(15)
O43_2 O 0.95228(19) 0.1458(3) 0.47235(13)
In1_2 In 0.941893(14) 0.96714(2) 0.519544(11)
C1_4 C 0.9008(3) 0.6884(5) 0.5262(3)
H1_4 H 0.8840 0.7355 0.5275
C3_4 C 0.9883(3) 0.8024(7) 0.3243(3)
H3_4 H 0.9721 0.8167 0.3065
C5_4 C 0.9428(3) 0.6939(4) 0.5178(2)
C6_4 C 0.7426(3) 0.6228(6) 0.2952(2)
C7_4 C 0.9056(2) 0.5811(5) 0.2597(2)
C8_4 C 0.9340(3) 0.6165(6) 0.2393(3)
H5_4 H 0.9292 0.6139 0.2173
C10_4 C 0.9611(3) 0.7784(5) 0.5122(2)
C11_4 C 0.8665(2) 0.5361(5) 0.2455(2)
C13_4 C 0.9116(3) 0.5796(8) 0.2922(2)
H6_4 H 0.8921 0.5556 0.3063
C14_4 C 0.7780(3) 0.8494(8) 0.4528(2)
H7_4 H 0.7578 0.8264 0.4665
C15_4 C 0.7397(2) 0.6743(5) 0.3245(2)
C21_4 C 0.6163(2) 0.8382(6) 0.4247(2)
H9_4 H 0.5910 0.8094 0.4210
C25_4 C 0.8144(3) 0.8835(7) 0.4656(2)
H12_4 H 0.8196 0.8794 0.4875
C26_4 C 0.9003(4) 0.3914(4) 0.5332(2)
C27_4 C 0.9397(2) 0.1553(4) 0.50119(19)
C28_4 C 0.9858(3) 0.8503(7) 0.3536(3)
H13_4 H 0.9677 0.8957 0.3542
C29_4 C 0.6145(2) 0.9160(5) 0.4391(2)
C31_4 C 0.7606(3) 0.6986(7) 0.3789(2)
H15_4 H 0.7773 0.6852 0.3967
C32_4 C 0.7706(3) 0.8479(6) 0.4218(3)
C33_4 C 0.7337(2) 0.7654(6) 0.3806(2)
C34_4 C 0.8773(4) 0.5147(7) 0.5972(2)
H16_4 H 0.9061 0.5302 0.5975
C36_4 C 0.9502(3) 0.6179(7) 0.3026(2)
H17_4 H 0.9560 0.6170 0.3245
C37_4 C 0.9497(4) 0.5493(4) 0.5237(3)
H18_4 H 0.9663 0.5019 0.5224
C38_4 C 0.9056(4) 0.5432(5) 0.5329(3)
C39_4 C 0.7836(3) 0.5290(4) 0.6530(2)
C40_4 C 0.8004(3) 0.8818(7) 0.4011(2)
H19_4 H 0.7963 0.8799 0.3790
C41_4 C 0.8834(4) 0.6138(5) 0.5325(3)
H20_4 H 0.8542 0.6114 0.5370
C42_4 C 0.9264(3) 0.2369(5) 0.5114(2)
C43_4 C 0.6547(2) 0.8041(6) 0.4160(2)
H21_4 H 0.6555 0.7509 0.4078
C44_4 C 0.7950(4) 0.4648(5) 0.6000(3)
H22_4 H 0.7670 0.4452 0.6005
C45_4 C 0.7637(3) 0.6522(6) 0.3524(2)
H23_4 H 0.7814 0.6061 0.3522
C46_4 C 0.8637(5) 0.4757(5) 0.5727(3)
C47_4 C 0.6921(3) 0.8483(7) 0.4193(2)
C48_4 C 0.8440(2) 0.9246(6) 0.4457(2)
C53_4 C 0.8362(3) 0.9183(6) 0.4138(2)
H26_4 H 0.8564 0.9400 0.3997
C55_4 C 0.6528(3) 0.9524(6) 0.4425(3)
C56_4 C 0.5732(3) 0.9536(5) 0.4490(2)
C57_4 C 0.9134(4) 0.3799(5) 0.5007(3)
H29_4 H 0.9123 0.4229 0.4861
C58_4 C 0.7086(3) 0.7859(7) 0.3552(3)
H30_4 H 0.6888 0.8284 0.3567
C60_4 C 0.9783(2) 0.6547(6) 0.2839(2)
C62_4 C 0.6904(3) 0.9241(7) 0.4322(3)
H32_4 H 0.7151 0.9560 0.4340
C67_4 C 0.9681(4) 0.6246(5) 0.5168(3)
H37_4 H 0.9970 0.6283 0.5115
C68_4 C 0.7135(3) 0.7402(6) 0.3255(2)
H38_4 H 0.6986 0.7563 0.3072
C70_4 C 0.8218(4) 0.4503(6) 0.5728(3)
H39_4 H 0.8106 0.4234 0.5550
C71_4 C 0.8832(3) 0.9640(5) 0.4572(2)
C72_4 C 0.8523(4) 0.5352(6) 0.6230(3)
H40_4 H 0.8634 0.5679 0.6393
C77_4 C 0.9707(3) 0.6571(7) 0.2511(3)
H44_4 H 0.9893 0.6847 0.2373
C79_4 C 0.8110(3) 0.5071(5) 0.6245(2)
C81_4 C 0.9002(4) 0.3266(5) 0.5532(2)
H45_4 H 0.8919 0.3342 0.5744
C82_4 C 0.9122(4) 0.2483(5) 0.5429(2)
H46_4 H 0.9108 0.2039 0.5569
C83_4 C 0.9279(4) 0.3025(5) 0.4915(2)
H47_4 H 0.9390 0.2957 0.4709
N1_4 N 0.7307(2) 0.8142(6) 0.4091(2)
N2_4 N 0.8890(3) 0.4692(3) 0.5438(2)
O1_4 O 0.9976(2) 0.7810(3) 0.50036(18)
O5_4 O 0.9398(2) 0.8355(3) 0.5216(2)
O6_4 O 0.8952(3) 0.9665(5) 0.56013(19)
H51_4 H 0.8760 0.9217 0.5658
O9_4 O 0.9082(2) 0.9969(4) 0.43979(19)
O13_4 O 0.9919(2) 0.9675(4) 0.55611(16)
O16_4 O 0.98349(15) 0.9670(2) 0.48189(12)
O24_4 O 0.8862(2) 0.9648(6) 0.48808(15)
O28_4 O 0.9894(2) 0.9454(3) 0.40856(14)
loop_
_geom_bond_atom_site_label_1
_geom_bond_atom_site_label_2
_geom_bond_site_symmetry_1
_geom_bond_site_symmetry_2
In7 O5 1_555 1_555
In2 O2 1_555 1_555
In4 O10 1_555 1_555
In5 O10 1_555 1_555
In6 O1 1_555 1_555
C1 H1 1_555 1_555
C2 H2 1_555 1_555
C3 H3 1_555 1_555
C4 H4 1_555 1_555
C5 C1 1_555 1_555
C6 C15 1_555 1_555
C7 C8 1_555 1_555
C8 H5 1_555 1_555
C9 C69 1_555 1_555
C10 C5 1_555 1_555
C11 C7 1_555 1_555
C12 C50 1_555 1_555
C13 C7 1_555 1_555
H6 C13 1_555 1_555
C14 H7 1_555 1_555
C15 C45 1_555 1_555
C17 C18 1_555 1_555
C18 C2 1_555 1_555
H8 C18 1_555 1_555
C19 C73 1_555 1_555
C20 C80 1_555 1_555
C21 H9 1_555 1_555
C24 H11 1_555 1_555
C25 C14 1_555 1_555
H12 C25 1_555 1_555
C26 C57 1_555 1_555
C27 C42 1_555 1_555
C28 C3 1_555 1_555
H13 C28 1_555 1_555
C29 C21 1_555 1_555
C30 H14 1_555 1_555
C31 H15 1_555 1_555
C32 C14 1_555 1_555
C33 C31 1_555 1_555
C34 H16 1_555 1_555
C36 C13 1_555 1_555
H17 C36 1_555 1_555
C37 H18 1_555 1_555
C38 C37 1_555 1_555
C39 C79 1_555 1_555
C40 C32 1_555 1_555
H19 C40 1_555 1_555
C41 C1 1_555 1_555
H20 C41 1_555 1_555
C42 C82 1_555 1_555
C43 C21 1_555 1_555
H21 C43 1_555 1_555
C44 H22 1_555 1_555
C45 C31 1_555 1_555
H23 C45 1_555 1_555
C46 C34 1_555 1_555
C47 C43 1_555 1_555
C48 C25 1_555 1_555
C49 C24 1_555 1_555
C50 C54 1_555 1_555
C51 C17 1_555 1_555
H24 C51 1_555 1_555
C52 H25 1_555 1_555
C53 C40 1_555 1_555
H26 C53 1_555 1_555
C54 C4 1_555 1_555
H27 C54 1_555 1_555
C55 C29 1_555 1_555
C56 C29 1_555 1_555
C57 H29 1_555 1_555
C58 C33 1_555 1_555
H30 C58 1_555 1_555
C59 C3 1_555 1_555
C60 C36 1_555 1_555
C62 C47 1_555 1_555
H32 C62 1_555 1_555
C63 C24 1_555 1_555
H33 C63 1_555 1_555
C64 C50 1_555 1_555
H34 C64 1_555 1_555
C65 C52 1_555 1_555
H35 C65 1_555 1_555
C66 C64 1_555 1_555
H36 C66 1_555 1_555
C67 C5 1_555 1_555
H37 C67 1_555 1_555
C68 C15 1_555 1_555
H38 C68 1_555 1_555
C69 C63 1_555 1_555
C70 C44 1_555 1_555
H39 C70 1_555 1_555
C71 C48 1_555 1_555
C72 C34 1_555 1_555
H40 C72 1_555 1_555
C73 C2 1_555 1_555
C75 C51 1_555 1_555
H42 C75 1_555 1_555
C77 C8 1_555 1_555
H44 C77 1_555 1_555
C78 C4 1_555 1_555
C79 C44 1_555 1_555
C80 C28 1_555 1_555
C81 C26 1_555 1_555
H45 C81 1_555 1_555
C82 C81 1_555 1_555
H46 C82 1_555 1_555
C83 C42 1_555 1_555
H47 C83 1_555 1_555
C84 C30 1_555 1_555
H48 C84 1_555 1_555
N1 C32 1_555 1_555
N2 C26 1_555 1_555
N3 C17 1_555 1_555
N4 C49 1_555 1_555
O1 C10 1_555 1_555
O2 H49 1_555 1_555
H50 O2 1_555 1_555
O4 C6 1_555 1_555
O5 C10 1_555 1_555
O6 In7 1_555 1_555
H51 O6 1_555 1_555
O7 In6 1_555 1_555
H53 O7 1_555 1_555
H54 O7 1_555 1_555
O8 C9 1_555 1_555
O9 C71 1_555 1_555
O10 In2 1_555 1_555
O11 C27 1_555 1_555
O12 C11 1_555 1_555
O13 In7 1_555 1_555
O14 C39 1_555 1_555
O15 C11 1_555 1_555
O16 In7 1_555 1_555
O17 In4 1_555 1_555
H55 O17 1_555 1_555
H56 O17 1_555 1_555
O19 C6 1_555 1_555
O20 In5 1_555 1_555
O21 C9 1_555 1_555
O22 In5 1_555 1_555
H57 O22 1_555 1_555
H58 O22 1_555 1_555
O24 In7 1_555 1_555
O25 In2 1_555 1_555
O26 In6 1_555 1_555
O27 C27 1_555 1_555
O29 C56 1_555 1_555
O31 C39 1_555 1_555
O32 In6 1_555 1_555
In8 O12 1_555 1_555
In9 O8 1_555 1_555
In10 O27 1_555 1_555
In13 O4 1_555 1_555
In14 O21 1_555 1_555
In15 O31 1_555 1_555
In17 O15 1_555 1_555
In18 O14 1_555 1_555
O33 In4 1_555 1_555
O34 In4 1_555 1_555
O35 In2 1_555 1_555
O37 In2 1_555 1_555
O38 In5 1_555 1_555
O39 In5 1_555 1_555
O40 In5 1_555 1_555
O41 In2 1_555 1_555
O42 In4 1_555 1_555
O45 In6 1_555 1_555
O46 In4 1_555 1_555
In6 O16 1_555 1_555
C12 O13 1_555 1_555
C12 O32 1_555 1_555
C19 O20 1_555 1_555
C19 O25 1_555 1_555
C20 O26 1_555 1_555
C20 O28 1_555 1_555
C30 C49 1_555 1_555
C33 N1 1_555 1_555
C37 C67 1_555 1_555
C38 C41 1_555 1_555
C38 N2 1_555 1_555
C46 C70 1_555 1_555
C46 N2 1_555 1_555
C47 N1 1_555 1_555
C48 C53 1_555 1_555
C52 C80 1_555 1_555
C55 C62 1_555 1_555
C57 C83 1_555 1_555
C58 C68 1_555 1_555
C59 C65 1_555 1_555
C59 N4 1_555 1_555
C60 C77 1_555 1_555
C60 N4 1_555 1_555
C66 C78 1_555 1_555
C69 C84 1_555 1_555
C71 O24 1_555 1_555
C72 C79 1_555 1_555
C73 C75 1_555 1_555
C78 N3 1_555 1_555
O19 In8 1_555 1_555
C16 C22 1_555 1_555
C22 H10 1_555 1_555
C23 C16 1_555 1_555
C35 C61 1_555 1_555
C61 H31 1_555 1_555
C74 C16 1_555 1_555
H41 C74 1_555 1_555
C76 C22 1_555 1_555
H43 C76 1_555 1_555
O33 C23 1_555 1_555
O40 C23 1_555 1_555
O23 In10 1_555 1_555
H59 O23 1_555 1_555
H60 O23 1_555 1_555
In19 O30 1_555 1_555
O44 In10 1_555 1_555
C35 C76 1_555 1_555
C61 C74 1_555 1_555
C16_2 C22_2 1_555 1_555
C22_2 H10_2 1_555 1_555
C23_2 C16_2 1_555 1_555
C35_2 C61_2 1_555 1_555
C61_2 H31_2 1_555 1_555
C74_2 C16_2 1_555 1_555
H41_2 C74_2 1_555 1_555
C76_2 C22_2 1_555 1_555
H43_2 C76_2 1_555 1_555
O3 C23_2 1_555 1_555
O18 C23_2 1_555 1_555
In13 O3 1_555 1_555
In17 O18 1_555 1_555
C35_2 C76_2 1_555 1_555
C61_2 C74_2 1_555 1_555
O23_2 In3 1_555 1_555
H59_2 O23_2 1_555 1_555
H60_2 O23_2 1_555 1_555
In19_2 O30_2 1_555 1_555
O43 In3 1_555 1_555
O44_2 In3 1_555 1_555
In1 O5_2 1_555 1_555
In8 O2_2 1_555 1_555
In13 O10_2 1_555 1_555
In17 O10_2 1_555 1_555
C1_2 H1_2 1_555 1_555
C2_2 H2_2 1_555 1_555
C4_2 H4_2 1_555 1_555
C5_2 C1_2 1_555 1_555
C10_2 C5_2 1_555 1_555
C12_2 C50_2 1_555 1_555
C17_2 C18_2 1_555 1_555
C18_2 C2_2 1_555 1_555
H8_2 C18_2 1_555 1_555
C19_2 C73_2 1_555 1_555
C26_2 C57_2 1_555 1_555
C27_2 C42_2 1_555 1_555
C34_2 H16_2 1_555 1_555
C37_2 H18_2 1_555 1_555
C38_2 C37_2 1_555 1_555
C39_2 C79_2 1_555 1_555
C41_2 C1_2 1_555 1_555
H20_2 C41_2 1_555 1_555
C42_2 C82_2 1_555 1_555
C44_2 H22_2 1_555 1_555
C46_2 C34_2 1_555 1_555
C50_2 C54_2 1_555 1_555
C51_2 C17_2 1_555 1_555
H24_2 C51_2 1_555 1_555
C54_2 C4_2 1_555 1_555
H27_2 C54_2 1_555 1_555
C64_2 C50_2 1_555 1_555
H34_2 C64_2 1_555 1_555
C66_2 C64_2 1_555 1_555
H36_2 C66_2 1_555 1_555
C67_2 C5_2 1_555 1_555
H37_2 C67_2 1_555 1_555
C70_2 C44_2 1_555 1_555
H39_2 C70_2 1_555 1_555
C72_2 C34_2 1_555 1_555
H40_2 C72_2 1_555 1_555
C73_2 C2_2 1_555 1_555
C75_2 C51_2 1_555 1_555
H42_2 C75_2 1_555 1_555
C78_2 C4_2 1_555 1_555
C79_2 C44_2 1_555 1_555
C81_2 C26_2 1_555 1_555
H45_2 C81_2 1_555 1_555
C82_2 C81_2 1_555 1_555
H46_2 C82_2 1_555 1_555
N2_2 C26_2 1_555 1_555
N3_2 C17_2 1_555 1_555
O1_2 C10_2 1_555 1_555
O2_2 H49_2 1_555 1_555
H50_2 O2_2 1_555 1_555
O5_2 C10_2 1_555 1_555
O6_2 In1 1_555 1_555
H51_2 O6_2 1_555 1_555
O10_2 In8 1_555 1_555
O36 C27_2 1_555 1_555
O13_2 In1 1_555 1_555
O14_2 C39_2 1_555 1_555
O17_2 In13 1_555 1_555
H55_2 O17_2 1_555 1_555
H56_2 O17_2 1_555 1_555
O20_2 In17 1_555 1_555
O22_2 In17 1_555 1_555
H57_2 O22_2 1_555 1_555
H58_2 O22_2 1_555 1_555
O25_2 In8 1_555 1_555
O31_2 C39_2 1_555 1_555
In14 O31_2 1_555 1_555
In18_2 O14_2 1_555 1_555
O35_2 In8 1_555 1_555
O38_2 In17 1_555 1_555
O42_2 In13 1_555 1_555
O46_2 In13 1_555 1_555
C12_2 O13_2 1_555 1_555
C12_2 O32_2 1_555 1_555
C19_2 O20_2 1_555 1_555
C19_2 O25_2 1_555 1_555
C37_2 C67_2 1_555 1_555
C38_2 C41_2 1_555 1_555
C38_2 N2_2 1_555 1_555
C46_2 C70_2 1_555 1_555
C46_2 N2_2 1_555 1_555
C66_2 C78_2 1_555 1_555
C72_2 C79_2 1_555 1_555
C73_2 C75_2 1_555 1_555
C78_2 N3_2 1_555 1_555
C3_2 H3_2 1_555 1_555
C6_2 C15_2 1_555 1_555
C7_2 C8_2 1_555 1_555
C8_2 H5_2 1_555 1_555
C9_2 C69_2 1_555 1_555
C11_2 C7_2 1_555 1_555
C13_2 C7_2 1_555 1_555
H6_2 C13_2 1_555 1_555
C14_2 H7_2 1_555 1_555
C15_2 C45_2 1_555 1_555
C20_2 C80_2 1_555 1_555
C21_2 H9_2 1_555 1_555
C24_2 H11_2 1_555 1_555
C25_2 C14_2 1_555 1_555
H12_2 C25_2 1_555 1_555
C28_2 C3_2 1_555 1_555
H13_2 C28_2 1_555 1_555
C29_2 C21_2 1_555 1_555
C30_2 H14_2 1_555 1_555
C31_2 H15_2 1_555 1_555
C32_2 C14_2 1_555 1_555
C33_2 C31_2 1_555 1_555
C36_2 C13_2 1_555 1_555
H17_2 C36_2 1_555 1_555
C40_2 C32_2 1_555 1_555
H19_2 C40_2 1_555 1_555
C43_2 C21_2 1_555 1_555
H21_2 C43_2 1_555 1_555
C45_2 C31_2 1_555 1_555
H23_2 C45_2 1_555 1_555
C47_2 C43_2 1_555 1_555
C48_2 C25_2 1_555 1_555
C49_2 C24_2 1_555 1_555
C52_2 H25_2 1_555 1_555
C53_2 C40_2 1_555 1_555
H26_2 C53_2 1_555 1_555
C55_2 C29_2 1_555 1_555
C56_2 C29_2 1_555 1_555
C58_2 C33_2 1_555 1_555
H30_2 C58_2 1_555 1_555
C59_2 C3_2 1_555 1_555
C60_2 C36_2 1_555 1_555
C62_2 C47_2 1_555 1_555
H32_2 C62_2 1_555 1_555
C63_2 C24_2 1_555 1_555
H33_2 C63_2 1_555 1_555
C65_2 C52_2 1_555 1_555
H35_2 C65_2 1_555 1_555
C68_2 C15_2 1_555 1_555
H38_2 C68_2 1_555 1_555
C69_2 C63_2 1_555 1_555
C71_2 C48_2 1_555 1_555
C77_2 C8_2 1_555 1_555
H44_2 C77_2 1_555 1_555
C80_2 C28_2 1_555 1_555
H47_2 C83_2 1_555 1_555
C84_2 C30_2 1_555 1_555
H48_2 C84_2 1_555 1_555
N1_2 C32_2 1_555 1_555
N4_2 C49_2 1_555 1_555
O34 C6_2 1_555 1_555
O7_2 In6_2 1_555 1_555
H53_2 O7_2 1_555 1_555
H54_2 O7_2 1_555 1_555
O8_2 C9_2 1_555 1_555
O9_2 C71_2 1_555 1_555
O37 C11_2 1_555 1_555
O39 C11_2 1_555 1_555
O41 C6_2 1_555 1_555
O21_2 C9_2 1_555 1_555
O26_2 In6_2 1_555 1_555
O29_2 C56_2 1_555 1_555
In9_2 O8_2 1_555 1_555
In15 O21_2 1_555 1_555
O45_2 In6_2 1_555 1_555
In6_2 O16_2 1_555 1_555
C20_2 O26_2 1_555 1_555
C20_2 O28_2 1_555 1_555
C30_2 C49_2 1_555 1_555
C33_2 N1_2 1_555 1_555
C47_2 N1_2 1_555 1_555
C48_2 C53_2 1_555 1_555
C52_2 C80_2 1_555 1_555
C55_2 C62_2 1_555 1_555
C58_2 C68_2 1_555 1_555
C59_2 C65_2 1_555 1_555
C59_2 N4_2 1_555 1_555
C60_2 C77_2 1_555 1_555
C60_2 N4_2 1_555 1_555
C69_2 C84_2 1_555 1_555
C71_2 O24_2 1_555 1_555
In7_2 O5_3 1_555 1_555
C1_3 H1_3 1_555 1_555
C5_3 C1_3 1_555 1_555
C10_3 C5_3 1_555 1_555
C26_3 C57_3 1_555 1_555
C27_3 C42_3 1_555 1_555
C34_3 H16_3 1_555 1_555
C37_3 H18_3 1_555 1_555
C38_3 C37_3 1_555 1_555
C39_3 C79_3 1_555 1_555
C41_3 C1_3 1_555 1_555
H20_3 C41_3 1_555 1_555
C42_3 C82_3 1_555 1_555
C44_3 H22_3 1_555 1_555
C46_3 C34_3 1_555 1_555
C67_3 C5_3 1_555 1_555
H37_3 C67_3 1_555 1_555
C70_3 C44_3 1_555 1_555
H39_3 C70_3 1_555 1_555
C72_3 C34_3 1_555 1_555
H40_3 C72_3 1_555 1_555
C79_3 C44_3 1_555 1_555
C81_3 C26_3 1_555 1_555
H45_3 C81_3 1_555 1_555
C82_3 C81_3 1_555 1_555
H46_3 C82_3 1_555 1_555
N2_3 C26_3 1_555 1_555
O1_3 C10_3 1_555 1_555
O5_3 C10_3 1_555 1_555
O6_3 In7_2 1_555 1_555
H51_3 O6_3 1_555 1_555
O11_2 C27_3 1_555 1_555
O13_3 In7_2 1_555 1_555
O38_2 C39_3 1_555 1_555
O46_2 C39_3 1_555 1_555
C37_3 C67_3 1_555 1_555
C38_3 C41_3 1_555 1_555
C38_3 N2_3 1_555 1_555
C46_3 C70_3 1_555 1_555
C46_3 N2_3 1_555 1_555
C72_3 C79_3 1_555 1_555
C3_3 H3_3 1_555 1_555
C6_3 C15_3 1_555 1_555
C7_3 C8_3 1_555 1_555
C8_3 H5_3 1_555 1_555
C11_3 C7_3 1_555 1_555
C13_3 C7_3 1_555 1_555
H6_3 C13_3 1_555 1_555
C14_3 H7_3 1_555 1_555
C15_3 C45_3 1_555 1_555
C21_3 H9_3 1_555 1_555
C25_3 C14_3 1_555 1_555
H12_3 C25_3 1_555 1_555
C28_3 C3_3 1_555 1_555
H13_3 C28_3 1_555 1_555
C29_3 C21_3 1_555 1_555
C31_3 H15_3 1_555 1_555
C32_3 C14_3 1_555 1_555
C33_3 C31_3 1_555 1_555
C36_3 C13_3 1_555 1_555
H17_3 C36_3 1_555 1_555
C40_3 C32_3 1_555 1_555
H19_3 C40_3 1_555 1_555
C43_3 C21_3 1_555 1_555
H21_3 C43_3 1_555 1_555
C45_3 C31_3 1_555 1_555
H23_3 C45_3 1_555 1_555
C47_3 C43_3 1_555 1_555
C48_3 C25_3 1_555 1_555
C53_3 C40_3 1_555 1_555
H26_3 C53_3 1_555 1_555
C55_3 C29_3 1_555 1_555
C56_3 C29_3 1_555 1_555
C58_3 C33_3 1_555 1_555
H30_3 C58_3 1_555 1_555
C60_3 C36_3 1_555 1_555
C62_3 C47_3 1_555 1_555
H32_3 C62_3 1_555 1_555
C68_3 C15_3 1_555 1_555
H38_3 C68_3 1_555 1_555
C71_3 C48_3 1_555 1_555
C77_3 C8_3 1_555 1_555
H44_3 C77_3 1_555 1_555
H47_3 C83_3 1_555 1_555
N1_3 C32_3 1_555 1_555
O4_2 C6_3 1_555 1_555
O9_3 C71_3 1_555 1_555
O12_2 C11_3 1_555 1_555
O15_2 C11_3 1_555 1_555
O19_2 C6_3 1_555 1_555
O44_2 C56_3 1_555 1_555
In9_2 O12_2 1_555 1_555
In11_2 O27_2 1_555 1_555
In15 O4_2 1_555 1_555
In18 O15_2 1_555 1_555
C33_3 N1_3 1_555 1_555
C47_3 N1_3 1_555 1_555
C48_3 C53_3 1_555 1_555
C55_3 C62_3 1_555 1_555
C58_3 C68_3 1_555 1_555
C60_3 C77_3 1_555 1_555
C71_3 O24_3 1_555 1_555
O19_2 In9_2 1_555 1_555
O23_3 In11_2 1_555 1_555
H59_3 O23_3 1_555 1_555
H60_3 O23_3 1_555 1_555
In9 O2_3 1_555 1_555
In14 O10_3 1_555 1_555
In18_2 O10_3 1_555 1_555
C2_3 H2_3 1_555 1_555
C4_3 H4_3 1_555 1_555
C12_3 C50_3 1_555 1_555
C17_3 C18_3 1_555 1_555
C18_3 C2_3 1_555 1_555
H8_3 C18_3 1_555 1_555
C19_3 C73_3 1_555 1_555
C50_3 C54_3 1_555 1_555
C51_3 C17_3 1_555 1_555
H24_3 C51_3 1_555 1_555
C54_3 C4_3 1_555 1_555
H27_3 C54_3 1_555 1_555
C64_3 C50_3 1_555 1_555
H34_3 C64_3 1_555 1_555
C66_3 C64_3 1_555 1_555
H36_3 C66_3 1_555 1_555
C73_3 C2_3 1_555 1_555
C75_3 C51_3 1_555 1_555
H42_3 C75_3 1_555 1_555
C78_3 C4_3 1_555 1_555
N3_3 C17_3 1_555 1_555
O2_3 H49_3 1_555 1_555
H50_3 O2_3 1_555 1_555
O10_3 In9 1_555 1_555
O17_3 In14 1_555 1_555
H55_3 O17_3 1_555 1_555
H56_3 O17_3 1_555 1_555
O20_3 In18_2 1_555 1_555
O22_3 In18_2 1_555 1_555
H57_3 O22_3 1_555 1_555
H58_3 O22_3 1_555 1_555
O25_3 In9 1_555 1_555
O33_2 In14 1_555 1_555
O34_2 In14 1_555 1_555
O37_2 In9 1_555 1_555
O39_2 In18_2 1_555 1_555
O40_2 In18_2 1_555 1_555
O41_2 In9 1_555 1_555
C12_3 O32_3 1_555 1_555
C19_3 O20_3 1_555 1_555
C19_3 O25_3 1_555 1_555
C66_3 C78_3 1_555 1_555
C73_3 C75_3 1_555 1_555
C78_3 N3_3 1_555 1_555
C9_3 C69_3 1_555 1_555
C20_3 C80_3 1_555 1_555
C24_3 H11_3 1_555 1_555
C30_3 H14_3 1_555 1_555
C49_3 C24_3 1_555 1_555
C52_3 H25_3 1_555 1_555
C63_3 C24_3 1_555 1_555
H33_3 C63_3 1_555 1_555
C65_3 C52_3 1_555 1_555
H35_3 C65_3 1_555 1_555
C69_3 C63_3 1_555 1_555
C84_3 C30_3 1_555 1_555
H48_3 C84_3 1_555 1_555
N4_3 C49_3 1_555 1_555
O7_3 In19_2 1_555 1_555
H53_3 O7_3 1_555 1_555
H54_3 O7_3 1_555 1_555
O35 C9_3 1_555 1_555
O42 C9_3 1_555 1_555
O26_3 In19_2 1_555 1_555
C20_3 O26_3 1_555 1_555
C30_3 C49_3 1_555 1_555
C52_3 C80_3 1_555 1_555
C59_3 C65_3 1_555 1_555
C59_3 N4_3 1_555 1_555
C69_3 C84_3 1_555 1_555
C16_3 C22_3 1_555 1_555
C22_3 H10_3 1_555 1_555
C23_3 C16_3 1_555 1_555
C35_3 C61_3 1_555 1_555
C61_3 H31_3 1_555 1_555
C74_3 C16_3 1_555 1_555
H41_3 C74_3 1_555 1_555
C76_3 C22_3 1_555 1_555
H43_3 C76_3 1_555 1_555
O33_2 C23_3 1_555 1_555
O40_2 C23_3 1_555 1_555
C35_3 C76_3 1_555 1_555
C61_3 C74_3 1_555 1_555
C16_4 C22_4 1_555 1_555
C22_4 H10_4 1_555 1_555
C23_4 C16_4 1_555 1_555
C35_4 C61_4 1_555 1_555
C61_4 H31_4 1_555 1_555
C74_4 C16_4 1_555 1_555
H41_4 C74_4 1_555 1_555
C76_4 C22_4 1_555 1_555
H43_4 C76_4 1_555 1_555
O3_2 C23_4 1_555 1_555
O18_2 C23_4 1_555 1_555
In15 O3_2 1_555 1_555
In18 O18_2 1_555 1_555
C35_4 C76_4 1_555 1_555
C61_4 C74_4 1_555 1_555
In9_2 O2_4 1_555 1_555
In15 O10_4 1_555 1_555
In18 O10_4 1_555 1_555
C2_4 H2_4 1_555 1_555
C4_4 H4_4 1_555 1_555
C9_4 C69_4 1_555 1_555
C12_4 C50_4 1_555 1_555
C17_4 C18_4 1_555 1_555
C18_4 C2_4 1_555 1_555
H8_4 C18_4 1_555 1_555
C19_4 C73_4 1_555 1_555
C20_4 C80_4 1_555 1_555
C24_4 H11_4 1_555 1_555
C30_4 H14_4 1_555 1_555
C49_4 C24_4 1_555 1_555
C50_4 C54_4 1_555 1_555
C51_4 C17_4 1_555 1_555
H24_4 C51_4 1_555 1_555
C52_4 H25_4 1_555 1_555
C54_4 C4_4 1_555 1_555
H27_4 C54_4 1_555 1_555
C63_4 C24_4 1_555 1_555
H33_4 C63_4 1_555 1_555
C64_4 C50_4 1_555 1_555
H34_4 C64_4 1_555 1_555
C65_4 C52_4 1_555 1_555
H35_4 C65_4 1_555 1_555
C66_4 C64_4 1_555 1_555
H36_4 C66_4 1_555 1_555
C69_4 C63_4 1_555 1_555
C73_4 C2_4 1_555 1_555
C75_4 C51_4 1_555 1_555
H42_4 C75_4 1_555 1_555
C78_4 C4_4 1_555 1_555
C84_4 C30_4 1_555 1_555
H48_4 C84_4 1_555 1_555
N3_4 C17_4 1_555 1_555
N4_4 C49_4 1_555 1_555
O2_4 H49_4 1_555 1_555
H50_4 O2_4 1_555 1_555
O7_4 In19 1_555 1_555
H53_4 O7_4 1_555 1_555
H54_4 O7_4 1_555 1_555
O35_2 C9_4 1_555 1_555
O10_4 In9_2 1_555 1_555
O17_4 In15 1_555 1_555
H55_4 O17_4 1_555 1_555
H56_4 O17_4 1_555 1_555
O20_4 In18 1_555 1_555
O42_2 C9_4 1_555 1_555
O22_4 In18 1_555 1_555
H57_4 O22_4 1_555 1_555
H58_4 O22_4 1_555 1_555
O25_4 In9_2 1_555 1_555
O26_4 In19 1_555 1_555
O32_4 In19 1_555 1_555
C12_4 O32_4 1_555 1_555
C19_4 O20_4 1_555 1_555
C19_4 O25_4 1_555 1_555
C20_4 O26_4 1_555 1_555
C30_4 C49_4 1_555 1_555
C52_4 C80_4 1_555 1_555
C59_4 C65_4 1_555 1_555
C59_4 N4_4 1_555 1_555
C66_4 C78_4 1_555 1_555
C69_4 C84_4 1_555 1_555
C73_4 C75_4 1_555 1_555
C78_4 N3_4 1_555 1_555
O23_4 In11 1_555 1_555
H59_4 O23_4 1_555 1_555
H60_4 O23_4 1_555 1_555
O43_2 In11 1_555 1_555
In1_2 O5_4 1_555 1_555
C1_4 H1_4 1_555 1_555
C3_4 H3_4 1_555 1_555
C5_4 C1_4 1_555 1_555
C6_4 C15_4 1_555 1_555
C7_4 C8_4 1_555 1_555
C8_4 H5_4 1_555 1_555
C10_4 C5_4 1_555 1_555
C11_4 C7_4 1_555 1_555
C13_4 C7_4 1_555 1_555
H6_4 C13_4 1_555 1_555
C14_4 H7_4 1_555 1_555
C15_4 C45_4 1_555 1_555
C21_4 H9_4 1_555 1_555
C25_4 C14_4 1_555 1_555
H12_4 C25_4 1_555 1_555
C26_4 C57_4 1_555 1_555
C27_4 C42_4 1_555 1_555
C28_4 C3_4 1_555 1_555
H13_4 C28_4 1_555 1_555
C29_4 C21_4 1_555 1_555
C31_4 H15_4 1_555 1_555
C32_4 C14_4 1_555 1_555
C33_4 C31_4 1_555 1_555
C34_4 H16_4 1_555 1_555
C36_4 C13_4 1_555 1_555
H17_4 C36_4 1_555 1_555
C37_4 H18_4 1_555 1_555
C38_4 C37_4 1_555 1_555
C39_4 C79_4 1_555 1_555
C40_4 C32_4 1_555 1_555
H19_4 C40_4 1_555 1_555
C41_4 C1_4 1_555 1_555
H20_4 C41_4 1_555 1_555
C42_4 C82_4 1_555 1_555
C43_4 C21_4 1_555 1_555
H21_4 C43_4 1_555 1_555
C44_4 H22_4 1_555 1_555
C45_4 C31_4 1_555 1_555
H23_4 C45_4 1_555 1_555
C46_4 C34_4 1_555 1_555
C47_4 C43_4 1_555 1_555
C48_4 C25_4 1_555 1_555
C53_4 C40_4 1_555 1_555
H26_4 C53_4 1_555 1_555
C55_4 C29_4 1_555 1_555
C56_4 C29_4 1_555 1_555
C57_4 H29_4 1_555 1_555
C58_4 C33_4 1_555 1_555
H30_4 C58_4 1_555 1_555
C60_4 C36_4 1_555 1_555
C62_4 C47_4 1_555 1_555
H32_4 C62_4 1_555 1_555
C67_4 C5_4 1_555 1_555
H37_4 C67_4 1_555 1_555
C68_4 C15_4 1_555 1_555
H38_4 C68_4 1_555 1_555
C70_4 C44_4 1_555 1_555
H39_4 C70_4 1_555 1_555
C71_4 C48_4 1_555 1_555
C72_4 C34_4 1_555 1_555
H40_4 C72_4 1_555 1_555
C77_4 C8_4 1_555 1_555
H44_4 C77_4 1_555 1_555
C79_4 C44_4 1_555 1_555
C81_4 C26_4 1_555 1_555
H45_4 C81_4 1_555 1_555
C82_4 C81_4 1_555 1_555
H46_4 C82_4 1_555 1_555
C83_4 C42_4 1_555 1_555
H47_4 C83_4 1_555 1_555
N1_4 C32_4 1_555 1_555
N2_4 C26_4 1_555 1_555
O1_4 C10_4 1_555 1_555
O34_2 C6_4 1_555 1_555
O5_4 C10_4 1_555 1_555
O6_4 In1_2 1_555 1_555
H51_4 O6_4 1_555 1_555
O9_4 C71_4 1_555 1_555
O36_2 C27_4 1_555 1_555
O37_2 C11_4 1_555 1_555
O13_4 In1_2 1_555 1_555
O38 C39_4 1_555 1_555
O39_2 C11_4 1_555 1_555
O16_4 In1_2 1_555 1_555
O41_2 C6_4 1_555 1_555
O24_4 In1_2 1_555 1_555
O43_2 C27_4 1_555 1_555
O44 C56_4 1_555 1_555
O46 C39_4 1_555 1_555
C33_4 N1_4 1_555 1_555
C37_4 C67_4 1_555 1_555
C38_4 C41_4 1_555 1_555
C38_4 N2_4 1_555 1_555
C46_4 C70_4 1_555 1_555
C46_4 N2_4 1_555 1_555
C47_4 N1_4 1_555 1_555
C48_4 C53_4 1_555 1_555
C55_4 C62_4 1_555 1_555
C57_4 C83_4 1_555 1_555
C58_4 C68_4 1_555 1_555
C60_4 C77_4 1_555 1_555
C71_4 O24_4 1_555 1_555
C72_4 C79_4 1_555 1_555

#END
