
###############################################################################
#
# This file contains modified crystal structure data generated from the
# MOF subset of the Cambridge Structural Database (CSD) v543 
# hosted by the Cambridge Crystallographic Data Centre (CCDC).
#
# This work is licensed under the Creative Commons
# Attribution-NonCommercial-ShareAlike 4.0 International License.
# To view a copy of this license, visit
# http://creativecommons.org/licenses/by-nc-sa/4.0/
# or send a letter to
# Creative Commons, PO Box 1866, Mountain View, CA 94042, USA.
#
# CIF created using the CSD Python API on 29 September 2022
# The structure has been converted into the P1 space group
# The structure has a 3D framework
# The original CSD entry LUKHOQ is in the rhombohedral crystal system
# The framework has been calculated to contain at least 10.0% void space
# The void calculation uses a probe of radius 1.32A, grid spacing 0.4
#
###############################################################################

data_LUKHOQ
_chemical_formula_moiety         '(C468 H540 N144 Ni21 O72)n'
_symmetry_cell_setting           triclinic
_symmetry_space_group_name_H-M   'P 1'
_symmetry_Int_Tables_number      1
_space_group_name_Hall           'P 1'
loop_
_symmetry_equiv_pos_site_id
_symmetry_equiv_pos_as_xyz
1 x,y,z
_cell_length_a                   19.6880(15)
_cell_length_b                   19.6880(15)
_cell_length_c                   48.637(5)
_cell_angle_alpha                90
_cell_angle_beta                 90
_cell_angle_gamma                120
_cell_volume                     16326.8
loop_
_atom_site_label
_atom_site_type_symbol
_atom_site_fract_x
_atom_site_fract_y
_atom_site_fract_z
Ni1 Ni 0.14439(2) 0.3333 0.0833
O1 O 0.09007(10) 0.21306(10) 0.09257(4)
N1 N 0.39413(13) 0.41784(18) 0.21934(4)
N2 N 0.23069(12) 0.35010(13) 0.11215(4)
N3 N 0.37550(14) 0.34349(19) 0.21445(5)
H1 H 0.3848 0.3148 0.2260
N4 N 0.30501(13) 0.40912(13) 0.10667(5)
H2 H 0.3200 0.4327 0.0906
C1 C 0.02077(15) 0.15711(15) 0.09363(5)
C2 C 0.00986(15) 0.07549(15) 0.09369(5)
C4 C 0.43690(18) 0.48809(19) 0.12735(7)
H4 H 0.4674 0.4630 0.1245
H5 H 0.4525 0.5170 0.1443
H6 H 0.4454 0.5233 0.1124
C5 C 0.35282(17) 0.42799(16) 0.12875(6)
C6 C 0.30715(16) 0.37922(16) 0.14992(5)
C7 C 0.23208(16) 0.33101(16) 0.13835(5)
C8 C 0.16219(17) 0.26460(17) 0.15157(6)
H7 H 0.1174 0.2709 0.1489
H8 H 0.1717 0.2640 0.1709
H9 H 0.1524 0.2161 0.1435
C9 C 0.37380(18) 0.51816(25) 0.19446(6)
H10 H 0.4246 0.5584 0.2004
H11 H 0.3660 0.5271 0.1756
H12 H 0.3342 0.5192 0.2057
C10 C 0.36837(16) 0.44004(23) 0.19705(5)
C11 C 0.33494(16) 0.37770(16) 0.17782(5)
C12 C 0.34087(17) 0.31720(23) 0.19004(6)
C13 C 0.3163(2) 0.2367(3) 0.17995(7)
H13 H 0.2674 0.1998 0.1884
H14 H 0.3100 0.2349 0.1604
H15 H 0.3557 0.2235 0.1847
O6 O 0.20349(16) 0.04042(11) 0.09412(4)
C19 C 0.07493(21) 0.06518(15) 0.09365(5)
H17 H 0.1251 0.1088 0.0936
N13 N 0.08451(18) 0.35704(22) 0.11399(4)
N14 N 0.01677(13) 0.45274(18) 0.22118(4)
N15 N 0.01016(19) 0.30132(24) 0.11888(5)
N16 N 0.07579(13) 0.43744(18) 0.22666(5)
H47 H 0.0994 0.4460 0.2427
C40 C 0.15476(19) 0.38452(26) 0.20598(7)
H48 H 0.1297 0.3289 0.2088
H49 H 0.1837 0.3978 0.1890
H50 H 0.1900 0.4112 0.2209
C41 C 0.09466(16) 0.40850(23) 0.20458(6)
C42 C 0.04589(16) 0.40540(23) 0.18341(5)
C45 C 0.18483(25) 0.47769(31) 0.13887(6)
H54 H 0.2251 0.4671 0.1329
H55 H 0.1938 0.4944 0.1577
H56 H 0.1859 0.5183 0.1276
C46 C 0.10671(23) 0.40500(28) 0.13628(5)
C47 C 0.04437(16) 0.37609(23) 0.15551(5)
N21 N 0.06080(13) 0.30962(22) 0.05267(4)
N23 N 0.04217(14) 0.36534(24) 0.04778(5)
H74 H 0.0515 0.4033 0.0593
C65 C 0.04047(18) 0.18897(31) 0.02779(6)
H82 H 0.0913 0.1995 0.0337
H83 H 0.0327 0.1722 0.0089
H84 H 0.0009 0.1483 0.0390
C66 C 0.03504(16) 0.26166(28) 0.03038(5)
C67 C 0.00161(16) 0.29057(23) 0.01115(5)
C68 C 0.00754(17) 0.35700(29) 0.02337(6)
H87 H 0.0224 0.4655 0.0180
O7 O 0.21034(14) 0.45361(10) 0.07410(4)
O8 O 0.12984(16) 0.50360(11) 0.07255(4)
C70 C 0.19699(21) 0.50956(15) 0.07304(5)
C71 C 0.26770(21) 0.59118(15) 0.07298(5)
C72 C 0.25840(21) 0.65692(15) 0.07302(5)
H88 H 0.2082 0.6504 0.0731
O9 O 0.24326(10) 0.78966(14) 0.07410(4)
O10 O 0.37375(11) 0.87016(16) 0.07255(4)
C73 C 0.31256(15) 0.80301(21) 0.07304(5)
C74 C 0.32347(15) 0.73230(21) 0.07298(5)
C75 C 0.39851(15) 0.74160(21) 0.07302(5)
H89 H 0.4421 0.7918 0.0731
O11 O 0.54639(10) 0.75674(10) 0.07410(4)
O12 O 0.49640(11) 0.62625(11) 0.07255(4)
C76 C 0.49044(15) 0.68744(15) 0.07304(5)
C77 C 0.40882(15) 0.67653(15) 0.07298(5)
C78 C 0.34308(15) 0.60149(15) 0.07302(5)
H90 H 0.3496 0.5579 0.0731
Ni4 Ni 0.6667 0.81109(2) 0.0833
Ni5 Ni 0.18891(2) 0.85561(2) 0.0833
Ni9 Ni -0.0000 0.52224(2) 0.2500
Ni11 Ni 0.47776(2) 0.47772(2) 0.2500
N30 N 0.21392(18) 0.31657(13) 0.05452(4)
C60 C 0.10357(18) 0.28214(26) 0.96068(7)
H76 H 0.1341 0.3377 0.9578
H77 H 0.1192 0.2688 0.9776
H78 H 0.1121 0.2554 0.9457
C61 C 0.01949(17) 0.25816(23) 0.96208(6)
O5 O 0.12299(14) 0.90993(10) 0.09257(4)
C17 C 0.13634(21) 0.97923(15) 0.09363(5)
C18 C 0.06563(21) 0.99014(15) 0.09369(5)
N9 N 0.02371(22) 0.60587(13) 0.21934(4)
N10 N 0.11941(18) 0.76931(12) 0.11215(4)
N12 N 0.10411(18) 0.69499(13) 0.10667(5)
H33 H 0.1127 0.6800 0.0906
C30 C 0.05119(26) 0.56310(18) 0.12735(7)
H35 H 0.0645 0.5475 0.1443
H36 H 0.0779 0.5546 0.1124
C31 C 0.07517(23) 0.64718(17) 0.12875(6)
C32 C 0.07207(23) 0.69285(16) 0.14992(5)
C33 C 0.09893(23) 0.76792(16) 0.13835(5)
C34 C 0.10241(24) 0.83781(17) 0.15157(6)
H37 H 0.1535 0.8826 0.1489
H38 H 0.0923 0.8283 0.1709
H39 H 0.0637 0.8476 0.1435
C35 C 0.14436(31) 0.62620(18) 0.19446(6)
H40 H 0.1338 0.5754 0.2004
H41 H 0.1611 0.6340 0.1756
H42 H 0.1850 0.6658 0.2057
C36 C 0.07167(28) 0.63163(16) 0.19705(5)
C37 C 0.04276(23) 0.66506(16) 0.17782(5)
N25 N 0.27254(13) 0.91549(18) 0.11399(4)
N26 N 0.24883(18) 0.93920(13) 0.05267(4)
N29 N 0.10264(12) 0.78608(18) 0.05452(4)
O2 O 0.95958(11) 0.16307(11) 0.09412(4)
C3 C 0.93482(15) 0.00975(15) 0.09365(5)
H3 H 0.8912 0.0163 0.0936
N7 N 0.65651(19) 0.03201(24) 0.21445(5)
H18 H 0.6852 0.0700 0.2260
H20 H 0.5370 0.0044 0.1245
C28 C 0.68280(23) 0.02367(29) 0.19004(6)
C29 C 0.7633(3) 0.0796(4) 0.17995(7)
H29 H 0.8002 0.0676 0.1884
H30 H 0.7651 0.0751 0.1604
H31 H 0.7765 0.1322 0.1847
H46 H 0.9815 0.2633 0.1073
C43 C 0.99768(16) 0.43226(23) 0.19498(5)
C44 C 0.93127(17) 0.43574(24) 0.18176(6)
H51 H 0.9376 0.4868 0.1844
H52 H 0.9307 0.4256 0.1624
H53 H 0.8828 0.3970 0.1898
C48 C 0.98387(23) 0.30966(29) 0.14329(6)
C49 C 0.9034(3) 0.2537(4) 0.15338(7)
H57 H 0.8665 0.2657 0.1449
H58 H 0.9016 0.2582 0.1729
H59 H 0.8902 0.2011 0.1486
H80 H 0.8384 0.2410 0.0042
C69 C 0.9830(2) 0.4129(4) 0.01328(7)
H85 H 0.9341 0.4009 0.0217
Ni7 Ni 0.52228(2) 0.0000 0.2500
Ni9_2 Ni 1.0000 0.52224(2) 0.2500
N22 N 0.89736(12) 0.21392(18) 0.94548(4)
N24 N 0.97168(13) 0.22922(18) 0.94000(5)
H75 H 0.9867 0.2206 0.9239
C62 C 0.97382(16) 0.26126(23) 0.98325(5)
C63 C 0.89875(16) 0.23440(23) 0.97168(5)
C64 C 0.82886(17) 0.23092(24) 0.98490(6)
H79 H 0.7841 0.1798 0.9822
H81 H 0.8191 0.2696 0.9768
H86 H 0.9767 0.4084 0.9937
Ni6 Ni 0.81109(2) 0.14439(2) 0.9167
O3 O 0.78694(10) 0.87701(14) 0.09257(4)
O4 O 0.83693(11) 0.79651(16) 0.09412(4)
C14 C 0.84289(15) 0.86366(21) 0.09363(5)
C15 C 0.92451(15) 0.93437(21) 0.09369(5)
C16 C 0.99025(15) 0.92507(21) 0.09365(5)
H16 H 0.9837 0.8749 0.0936
N5 N 0.58216(18) 0.97629(22) 0.21934(4)
N6 N 0.64990(13) 0.88059(18) 0.11215(4)
N8 N 0.59088(13) 0.89589(18) 0.10667(5)
H19 H 0.5673 0.8873 0.0906
C20 C 0.51191(19) 0.94881(26) 0.12735(7)
H21 H 0.4830 0.9355 0.1443
H22 H 0.4767 0.9221 0.1124
C21 C 0.57201(16) 0.92483(23) 0.12875(6)
C22 C 0.62078(16) 0.92793(23) 0.14992(5)
C23 C 0.66899(16) 0.90107(23) 0.13835(5)
C24 C 0.73540(17) 0.89759(24) 0.15157(6)
H23 H 0.7291 0.8465 0.1489
H24 H 0.7360 0.9077 0.1709
H25 H 0.7839 0.9363 0.1435
C25 C 0.48184(25) 0.85564(31) 0.19446(6)
H26 H 0.4416 0.8662 0.2004
H27 H 0.4729 0.8389 0.1756
H28 H 0.4808 0.8150 0.2057
C26 C 0.55996(23) 0.92833(28) 0.19705(5)
C27 C 0.62230(16) 0.95724(23) 0.17782(5)
N11 N 0.96799(24) 0.62450(14) 0.21445(5)
H32 H 0.9300 0.6152 0.2260
H34 H 0.9956 0.5326 0.1245
C38 C 0.97633(29) 0.65913(17) 0.19004(6)
C39 C 0.9204(4) 0.6837(2) 0.17995(7)
H43 H 0.9324 0.7326 0.1884
H44 H 0.9249 0.6900 0.1604
H45 H 0.8678 0.6443 0.1847
N17 N 0.64296(22) 0.72746(13) 0.11399(4)
N18 N 0.54726(18) 0.56402(12) 0.22118(4)
N19 N 0.69868(24) 0.70883(14) 0.11888(5)
H60 H 0.7367 0.7181 0.1073
N20 N 0.56256(18) 0.63834(13) 0.22666(5)
H61 H 0.5540 0.6533 0.2427
C50 C 0.61548(26) 0.77023(18) 0.20598(7)
H62 H 0.6711 0.8007 0.2088
H63 H 0.6022 0.7858 0.1890
H64 H 0.5888 0.7787 0.2209
C51 C 0.59150(23) 0.68615(17) 0.20458(6)
C52 C 0.59460(23) 0.64048(16) 0.18341(5)
C53 C 0.56774(23) 0.56541(16) 0.19498(5)
C54 C 0.56426(24) 0.49552(17) 0.18176(6)
H65 H 0.5132 0.4507 0.1844
H66 H 0.5744 0.5050 0.1624
H67 H 0.6030 0.4857 0.1898
C55 C 0.52231(31) 0.70713(18) 0.13887(6)
H68 H 0.5329 0.7579 0.1329
H69 H 0.5056 0.6993 0.1577
H70 H 0.4817 0.6675 0.1276
C56 C 0.59500(28) 0.70170(16) 0.13628(5)
C57 C 0.62391(23) 0.66827(16) 0.15551(5)
C58 C 0.69034(29) 0.67420(17) 0.14329(6)
C59 C 0.7463(4) 0.6496(2) 0.15338(7)
H71 H 0.7343 0.6007 0.1449
H72 H 0.7418 0.6433 0.1729
H73 H 0.7989 0.6890 0.1486
Ni7_2 Ni 0.52228(2) 1.0000 0.2500
N27 N 0.69038(22) 0.75117(18) 0.05267(4)
N28 N 0.68343(13) 0.89736(12) 0.05452(4)
H60_2 H 0.2819 0.0185 0.1073
C53_2 C 0.43459(16) 0.00232(28) 0.19498(5)
C54_2 C 0.50448(17) 0.06873(29) 0.18176(6)
H65_2 H 0.5493 0.0624 0.1844
H66_2 H 0.4950 0.0693 0.1624
H67_2 H 0.5143 0.1172 0.1898
C58_2 C 0.32580(17) 0.01613(34) 0.14329(6)
C59_2 C 0.3504(2) 0.0966(4) 0.15338(7)
H71_2 H 0.3993 0.1335 0.1449
H72_2 H 0.3567 0.0984 0.1729
H73_2 H 0.3110 0.1098 0.1486
N18_2 N 0.43598(12) 0.98323(22) 0.22118(4)
N19_2 N 0.29117(14) 0.98984(28) 0.11888(5)
N20_2 N 0.36166(13) 0.92421(22) 0.22666(5)
H61_2 H 0.3467 0.9006 0.2427
C50_2 C 0.22977(18) 0.84524(32) 0.20598(7)
H62_2 H 0.1993 0.8703 0.2088
H63_2 H 0.2142 0.8163 0.1890
H64_2 H 0.2213 0.8100 0.2209
C51_2 C 0.31385(17) 0.90534(29) 0.20458(6)
C52_2 C 0.35952(16) 0.95411(28) 0.18341(5)
C55_2 C 0.29287(18) 0.81517(36) 0.13887(6)
H68_2 H 0.2421 0.7749 0.1329
H69_2 H 0.3007 0.8062 0.1577
H70_2 H 0.3325 0.8141 0.1276
C56_2 C 0.29830(16) 0.89329(32) 0.13628(5)
C57_2 C 0.33173(16) 0.95563(28) 0.15551(5)
N23_2 N 0.63466(24) 0.67682(28) 0.04778(5)
H74_2 H 0.5967 0.6481 0.0593
H80_2 H 0.7590 0.5973 0.0042
C65_2 C 0.81103(31) 0.85149(36) 0.02779(6)
H82_2 H 0.8005 0.8917 0.0337
H83_2 H 0.8278 0.8604 0.0089
H84_2 H 0.8517 0.8525 0.0390
C66_2 C 0.73834(28) 0.77337(32) 0.03038(5)
C67_2 C 0.70943(23) 0.71103(28) 0.01115(5)
C68_2 C 0.64300(29) 0.65053(34) 0.02337(6)
C69_2 C 0.5871(4) 0.5700(4) 0.01328(7)
H85_2 H 0.5991 0.5331 0.0217
H87_2 H 0.5345 0.5568 0.0180
N22_2 N 0.78608(18) 0.68343(22) 0.94548(4)
N24_2 N 0.77078(18) 0.74245(22) 0.94000(5)
H75_2 H 0.7794 0.7660 0.9239
C60_2 C 0.71786(26) 0.82142(32) 0.96068(7)
H76_2 H 0.6623 0.7963 0.9578
H77_2 H 0.7312 0.8503 0.9776
H78_2 H 0.7446 0.8566 0.9457
C61_2 C 0.74184(23) 0.76132(29) 0.96208(6)
C62_2 C 0.73874(23) 0.71255(28) 0.98325(5)
C63_2 C 0.76560(23) 0.66434(28) 0.97168(5)
C64_2 C 0.76908(24) 0.59793(29) 0.98490(6)
H79_2 H 0.8202 0.6042 0.9822
H81_2 H 0.7304 0.5494 0.9768
H86_2 H 0.5916 0.5682 0.9937
Ni6_2 Ni 0.85561(2) 0.66670(3) 0.9167
H80_3 H 0.4027 0.1616 0.0042
C69_3 C 0.4300(4) 0.0170(2) 0.01328(7)
H85_3 H 0.4669 0.0659 0.0217
N22_3 N 0.31657(22) 0.10264(12) 0.94548(4)
N24_3 N 0.25755(22) 0.02832(13) 0.94000(5)
H75_3 H 0.2340 0.0133 0.9239
C62_3 C 0.28745(28) 0.02618(16) 0.98325(5)
C63_3 C 0.33566(28) 0.10125(16) 0.97168(5)
C64_3 C 0.40207(29) 0.17114(17) 0.98490(6)
H79_3 H 0.3958 0.2159 0.9822
H81_3 H 0.4506 0.1809 0.9768
H86_3 H 0.4318 0.0233 0.9937
Ni6_3 Ni 0.33330(3) 0.18891(2) 0.9167
N23_3 N 0.32318(28) 0.95783(14) 0.04778(5)
H74_3 H 0.3519 0.9485 0.0593
C65_3 C 0.14851(36) 0.95953(18) 0.02779(6)
H82_3 H 0.1083 0.9087 0.0337
H83_3 H 0.1396 0.9673 0.0089
H84_3 H 0.1475 0.9991 0.0390
C66_3 C 0.22663(32) 0.96496(16) 0.03038(5)
C67_3 C 0.28897(28) 0.99839(16) 0.01115(5)
C68_3 C 0.34947(34) 0.99246(17) 0.02337(6)
H87_3 H 0.4432 0.9776 0.0180
C60_3 C 0.17858(32) 0.89643(18) 0.96068(7)
H76_3 H 0.2037 0.8659 0.9578
H77_3 H 0.1497 0.8808 0.9776
H78_3 H 0.1434 0.8879 0.9457
C61_3 C 0.23868(29) 0.98051(17) 0.96208(6)
Ni1_2 Ni 0.3333 0.14439(2) 0.4167
O1_2 O 0.21306(10) 0.09007(10) 0.40743(4)
N1_2 N 0.41784(18) 0.39413(13) 0.28066(4)
N2_2 N 0.35010(13) 0.23069(12) 0.38785(4)
N3_2 N 0.34349(19) 0.37550(14) 0.28555(5)
H1_2 H 0.3148 0.3848 0.2740
N4_2 N 0.40912(13) 0.30501(13) 0.39333(5)
H2_2 H 0.4327 0.3200 0.4094
C1_2 C 0.15711(15) 0.02077(15) 0.40637(5)
C2_2 C 0.07549(15) 0.00986(15) 0.40631(5)
C4_2 C 0.48809(19) 0.43690(18) 0.37265(7)
H4_2 H 0.4630 0.4674 0.3755
H5_2 H 0.5170 0.4525 0.3557
H6_2 H 0.5233 0.4454 0.3876
C5_2 C 0.42799(16) 0.35282(17) 0.37125(6)
C6_2 C 0.37922(16) 0.30715(16) 0.35008(5)
C7_2 C 0.33101(16) 0.23208(16) 0.36165(5)
C8_2 C 0.26460(17) 0.16219(17) 0.34843(6)
H7_2 H 0.2709 0.1174 0.3511
H8_2 H 0.2640 0.1717 0.3291
H9_2 H 0.2161 0.1524 0.3565
C9_2 C 0.51816(25) 0.37380(18) 0.30554(6)
H10_2 H 0.5584 0.4246 0.2996
H11_2 H 0.5271 0.3660 0.3244
H12_2 H 0.5192 0.3342 0.2943
C10_2 C 0.44004(23) 0.36837(16) 0.30295(5)
C11_2 C 0.37770(16) 0.33494(16) 0.32218(5)
C12_2 C 0.31720(23) 0.34087(17) 0.30996(6)
C13_2 C 0.2367(3) 0.3163(2) 0.32005(7)
H13_2 H 0.1998 0.2674 0.3116
H14_2 H 0.2349 0.3100 0.3396
H15_2 H 0.2235 0.3557 0.3153
O6_2 O 0.04042(11) 0.20349(16) 0.40588(4)
C19_2 C 0.06518(15) 0.07493(21) 0.40635(5)
H17_2 H 0.1088 0.1251 0.4064
N13_2 N 0.35704(22) 0.08451(18) 0.38601(4)
N14_2 N 0.45274(18) 0.01677(13) 0.27882(4)
N15_2 N 0.30132(24) 0.01016(19) 0.38112(5)
N16_2 N 0.43744(18) 0.07579(13) 0.27334(5)
H47_2 H 0.4460 0.0994 0.2573
C40_2 C 0.38452(26) 0.15476(19) 0.29402(7)
H48_2 H 0.3289 0.1297 0.2912
H49_2 H 0.3978 0.1837 0.3110
H50_2 H 0.4112 0.1900 0.2791
C41_2 C 0.40850(23) 0.09466(16) 0.29542(6)
C42_2 C 0.40540(23) 0.04589(16) 0.31659(5)
C45_2 C 0.47769(31) 0.18483(25) 0.36113(6)
H54_2 H 0.4671 0.2251 0.3671
H55_2 H 0.4944 0.1938 0.3423
H56_2 H 0.5183 0.1859 0.3724
C46_2 C 0.40500(28) 0.10671(23) 0.36372(5)
C47_2 C 0.37609(23) 0.04437(16) 0.34449(5)
N21_2 N 0.30962(22) 0.06080(13) 0.44733(4)
N23_4 N 0.36534(24) 0.04217(14) 0.45222(5)
H74_4 H 0.4033 0.0515 0.4407
C60_4 C 0.28214(26) 0.10357(18) 0.53932(7)
H76_4 H 0.3377 0.1341 0.5422
H77_4 H 0.2688 0.1192 0.5224
H78_4 H 0.2554 0.1121 0.5543
C61_4 C 0.25816(23) 0.01949(17) 0.53792(6)
C65_4 C 0.18897(31) 0.04047(18) 0.47221(6)
H82_4 H 0.1995 0.0913 0.4663
H83_4 H 0.1722 0.0327 0.4911
H84_4 H 0.1483 0.0009 0.4610
C66_4 C 0.26166(28) 0.03504(16) 0.46962(5)
C67_4 C 0.29057(23) 0.00161(16) 0.48885(5)
C68_4 C 0.35700(29) 0.00754(17) 0.47663(6)
H87_4 H 0.4655 0.0224 0.4820
O7_2 O 0.45361(10) 0.21034(14) 0.42590(4)
O8_2 O 0.50360(11) 0.12984(16) 0.42745(4)
C70_2 C 0.50956(15) 0.19699(21) 0.42696(5)
C71_2 C 0.59118(15) 0.26770(21) 0.42702(5)
C72_2 C 0.65692(15) 0.25840(21) 0.42698(5)
H88_2 H 0.6504 0.2082 0.4269
O9_2 O 0.78966(14) 0.24326(10) 0.42590(4)
O10_2 O 0.87016(16) 0.37375(11) 0.42745(4)
C73_2 C 0.80301(21) 0.31256(15) 0.42696(5)
C74_2 C 0.73230(21) 0.32347(15) 0.42702(5)
C75_2 C 0.74160(21) 0.39851(15) 0.42698(5)
H89_2 H 0.7918 0.4421 0.4269
O11_2 O 0.75674(10) 0.54639(10) 0.42590(4)
O12_2 O 0.62625(11) 0.49640(11) 0.42745(4)
C76_2 C 0.68744(15) 0.49044(15) 0.42696(5)
C77_2 C 0.67653(15) 0.40882(15) 0.42702(5)
C78_2 C 0.60149(15) 0.34308(15) 0.42698(5)
H90_2 H 0.5579 0.3496 0.4269
Ni4_2 Ni 0.81109(2) 0.6667 0.4167
Ni5_2 Ni 0.85561(2) 0.18891(2) 0.4167
N30_2 N 0.31657(13) 0.21392(18) 0.44548(4)
O2_2 O 0.16307(11) 0.95958(11) 0.40588(4)
C3_2 C 0.00975(15) 0.93482(15) 0.40635(5)
H3_2 H 0.0163 0.8912 0.4064
N7_2 N 0.03201(24) 0.65651(19) 0.28555(5)
H18_2 H 0.0700 0.6852 0.2740
H20_2 H 0.0044 0.5370 0.3755
C28_2 C 0.02367(29) 0.68280(23) 0.30996(6)
C29_2 C 0.0796(4) 0.7633(3) 0.32005(7)
H29_2 H 0.0676 0.8002 0.3116
H30_2 H 0.0751 0.7651 0.3396
H31_2 H 0.1322 0.7765 0.3153
H46_2 H 0.2633 0.9815 0.3927
C43_2 C 0.43226(23) 0.99768(16) 0.30502(5)
C44_2 C 0.43574(24) 0.93127(17) 0.31824(6)
H51_2 H 0.4868 0.9376 0.3156
H52_2 H 0.4256 0.9307 0.3376
H53_2 H 0.3970 0.8828 0.3102
C48_2 C 0.30966(29) 0.98387(23) 0.35671(6)
C49_2 C 0.2537(4) 0.9034(3) 0.34662(7)
H57_2 H 0.2657 0.8665 0.3551
H58_2 H 0.2582 0.9016 0.3271
H59_2 H 0.2011 0.8902 0.3514
N22_4 N 0.21392(18) 0.89736(12) 0.55452(4)
N24_4 N 0.22922(18) 0.97168(13) 0.56000(5)
H75_4 H 0.2206 0.9867 0.5761
C62_4 C 0.26126(23) 0.97382(16) 0.51675(5)
C63_4 C 0.23440(23) 0.89875(16) 0.52832(5)
C64_4 C 0.23092(24) 0.82886(17) 0.51510(6)
H79_4 H 0.1798 0.7841 0.5178
H80_4 H 0.2410 0.8384 0.4958
H81_4 H 0.2696 0.8191 0.5232
C69_4 C 0.4129(4) 0.9830(2) 0.48672(7)
H85_4 H 0.4009 0.9341 0.4783
H86_4 H 0.4084 0.9767 0.5063
Ni6_4 Ni 0.14439(2) 0.81109(2) 0.5833
O5_2 O 0.90993(10) 0.12299(14) 0.40743(4)
C17_2 C 0.97923(15) 0.13634(21) 0.40637(5)
C18_2 C 0.99014(15) 0.06563(21) 0.40631(5)
N9_2 N 0.60587(13) 0.02371(22) 0.28066(4)
N10_2 N 0.76931(12) 0.11941(18) 0.38785(4)
N12_2 N 0.69499(13) 0.10411(18) 0.39333(5)
H33_2 H 0.6800 0.1127 0.4094
C30_2 C 0.56310(18) 0.05119(26) 0.37265(7)
H35_2 H 0.5475 0.0645 0.3557
H36_2 H 0.5546 0.0779 0.3876
C31_2 C 0.64718(17) 0.07517(23) 0.37125(6)
C32_2 C 0.69285(16) 0.07207(23) 0.35008(5)
C33_2 C 0.76792(16) 0.09893(23) 0.36165(5)
C34_2 C 0.83781(17) 0.10241(24) 0.34843(6)
H37_2 H 0.8826 0.1535 0.3511
H38_2 H 0.8283 0.0923 0.3291
H39_2 H 0.8476 0.0637 0.3565
C35_2 C 0.62620(18) 0.14436(31) 0.30554(6)
H40_2 H 0.5754 0.1338 0.2996
H41_2 H 0.6340 0.1611 0.3244
H42_2 H 0.6658 0.1850 0.2943
C36_2 C 0.63163(16) 0.07167(28) 0.30295(5)
C37_2 C 0.66506(16) 0.04276(23) 0.32218(5)
N25_2 N 0.91549(18) 0.27254(13) 0.38601(4)
N26_2 N 0.93920(13) 0.24883(18) 0.44733(4)
N29_2 N 0.78608(18) 0.10264(12) 0.44548(4)
O3_2 O 0.87701(14) 0.78694(10) 0.40743(4)
O4_2 O 0.79651(16) 0.83693(11) 0.40588(4)
C14_2 C 0.86366(21) 0.84289(15) 0.40637(5)
C15_2 C 0.93437(21) 0.92451(15) 0.40631(5)
C16_2 C 0.92507(21) 0.99025(15) 0.40635(5)
H16_2 H 0.8749 0.9837 0.4064
N5_2 N 0.97629(22) 0.58216(18) 0.28066(4)
N6_2 N 0.88059(18) 0.64990(13) 0.38785(4)
N8_2 N 0.89589(18) 0.59088(13) 0.39333(5)
H19_2 H 0.8873 0.5673 0.4094
C20_2 C 0.94881(26) 0.51191(19) 0.37265(7)
H21_2 H 0.9355 0.4830 0.3557
H22_2 H 0.9221 0.4767 0.3876
C21_2 C 0.92483(23) 0.57201(16) 0.37125(6)
C22_2 C 0.92793(23) 0.62078(16) 0.35008(5)
C23_2 C 0.90107(23) 0.66899(16) 0.36165(5)
C24_2 C 0.89759(24) 0.73540(17) 0.34843(6)
H23_2 H 0.8465 0.7291 0.3511
H24_2 H 0.9077 0.7360 0.3291
H25_2 H 0.9363 0.7839 0.3565
C25_2 C 0.85564(31) 0.48184(25) 0.30554(6)
H26_2 H 0.8662 0.4416 0.2996
H27_2 H 0.8389 0.4729 0.3244
H28_2 H 0.8150 0.4808 0.2943
C26_2 C 0.92833(28) 0.55996(23) 0.30295(5)
C27_2 C 0.95724(23) 0.62230(16) 0.32218(5)
N11_2 N 0.62450(14) 0.96799(24) 0.28555(5)
H32_2 H 0.6152 0.9300 0.2740
H34_2 H 0.5326 0.9956 0.3755
C38_2 C 0.65913(17) 0.97633(29) 0.30996(6)
C39_2 C 0.6837(2) 0.9204(4) 0.32005(7)
H43_2 H 0.7326 0.9324 0.3116
H44_2 H 0.6900 0.9249 0.3396
H45_2 H 0.6443 0.8678 0.3153
N17_2 N 0.72746(13) 0.64296(22) 0.38601(4)
N18_3 N 0.56402(12) 0.54726(18) 0.27882(4)
N19_3 N 0.70883(14) 0.69868(24) 0.38112(5)
H60_3 H 0.7181 0.7367 0.3927
N20_3 N 0.63834(13) 0.56256(18) 0.27334(5)
H61_3 H 0.6533 0.5540 0.2573
C50_3 C 0.77023(18) 0.61548(26) 0.29402(7)
H62_3 H 0.8007 0.6711 0.2912
H63_3 H 0.7858 0.6022 0.3110
H64_3 H 0.7787 0.5888 0.2791
C51_3 C 0.68615(17) 0.59150(23) 0.29542(6)
C52_3 C 0.64048(16) 0.59460(23) 0.31659(5)
C53_3 C 0.56541(16) 0.56774(23) 0.30502(5)
C54_3 C 0.49552(17) 0.56426(24) 0.31824(6)
H65_3 H 0.4507 0.5132 0.3156
H66_3 H 0.5050 0.5744 0.3376
H67_3 H 0.4857 0.6030 0.3102
C55_3 C 0.70713(18) 0.52231(31) 0.36113(6)
H68_3 H 0.7579 0.5329 0.3671
H69_3 H 0.6993 0.5056 0.3423
H70_3 H 0.6675 0.4817 0.3724
C56_3 C 0.70170(16) 0.59500(28) 0.36372(5)
C57_3 C 0.66827(16) 0.62391(23) 0.34449(5)
C58_3 C 0.67420(17) 0.69034(29) 0.35671(6)
C59_3 C 0.6496(2) 0.7463(4) 0.34662(7)
H71_3 H 0.6007 0.7343 0.3551
H72_3 H 0.6433 0.7418 0.3271
H73_3 H 0.6890 0.7989 0.3514
N27_2 N 0.75117(18) 0.69038(22) 0.44733(4)
N28_2 N 0.89736(12) 0.68343(13) 0.44548(4)
H46_3 H 0.0185 0.2819 0.3927
C43_3 C 0.00232(16) 0.43459(28) 0.30502(5)
C44_3 C 0.06873(17) 0.50448(29) 0.31824(6)
H51_3 H 0.0624 0.5493 0.3156
H52_3 H 0.0693 0.4950 0.3376
H53_3 H 0.1172 0.5143 0.3102
C48_3 C 0.01613(23) 0.32580(37) 0.35671(6)
C49_3 C 0.0966(3) 0.3504(5) 0.34662(7)
H57_3 H 0.1335 0.3993 0.3551
H58_3 H 0.0984 0.3567 0.3271
H59_3 H 0.1098 0.3110 0.3514
N22_5 N 0.10264(12) 0.31657(22) 0.55452(4)
N24_5 N 0.02832(13) 0.25755(22) 0.56000(5)
H75_5 H 0.0133 0.2340 0.5761
C62_5 C 0.02618(16) 0.28745(28) 0.51675(5)
C63_5 C 0.10125(16) 0.33566(28) 0.52832(5)
C64_5 C 0.17114(17) 0.40207(29) 0.51510(6)
H79_5 H 0.2159 0.3958 0.5178
H80_5 H 0.1616 0.4027 0.4958
H81_5 H 0.1809 0.4506 0.5232
C69_5 C 0.0170(2) 0.4300(4) 0.48672(7)
H85_5 H 0.0659 0.4669 0.4783
H86_5 H 0.0233 0.4318 0.5063
Ni6_5 Ni 0.18891(2) 0.33330(3) 0.5833
N14_3 N 0.98323(13) 0.43598(22) 0.27882(4)
N15_3 N 0.98984(19) 0.29117(31) 0.38112(5)
N16_3 N 0.92421(13) 0.36166(22) 0.27334(5)
H47_3 H 0.9006 0.3467 0.2573
C40_3 C 0.84524(19) 0.22977(32) 0.29402(7)
H48_3 H 0.8703 0.1993 0.2912
H49_3 H 0.8163 0.2142 0.3110
H50_3 H 0.8100 0.2213 0.2791
C41_3 C 0.90534(16) 0.31385(28) 0.29542(6)
C42_3 C 0.95411(16) 0.35952(28) 0.31659(5)
C45_3 C 0.81517(25) 0.29287(40) 0.36113(6)
H54_3 H 0.7749 0.2421 0.3671
H55_3 H 0.8062 0.3007 0.3423
H56_3 H 0.8141 0.3325 0.3724
C46_3 C 0.89329(23) 0.29830(36) 0.36372(5)
C47_3 C 0.95563(16) 0.33173(28) 0.34449(5)
N23_5 N 0.95783(14) 0.32318(28) 0.45222(5)
H74_5 H 0.9485 0.3519 0.4407
C60_5 C 0.89643(18) 0.17858(32) 0.53932(7)
H76_5 H 0.8659 0.2037 0.5422
H77_5 H 0.8808 0.1497 0.5224
H78_5 H 0.8879 0.1434 0.5543
C61_5 C 0.98051(17) 0.23868(29) 0.53792(6)
C65_5 C 0.95953(18) 0.14851(36) 0.47221(6)
H82_5 H 0.9087 0.1083 0.4663
H83_5 H 0.9673 0.1396 0.4911
H84_5 H 0.9991 0.1475 0.4610
C66_5 C 0.96496(16) 0.22663(32) 0.46962(5)
C67_5 C 0.99839(16) 0.28897(28) 0.48885(5)
C68_5 C 0.99246(17) 0.34947(34) 0.47663(6)
H87_5 H 0.9776 0.4432 0.4820
N22_6 N 0.68343(22) 0.78608(18) 0.55452(4)
N23_6 N 0.67682(28) 0.63466(24) 0.45222(5)
H74_6 H 0.6481 0.5967 0.4407
N24_6 N 0.74245(22) 0.77078(18) 0.56000(5)
H75_6 H 0.7660 0.7794 0.5761
C60_6 C 0.82142(32) 0.71786(26) 0.53932(7)
H76_6 H 0.7963 0.6623 0.5422
H77_6 H 0.8503 0.7312 0.5224
H78_6 H 0.8566 0.7446 0.5543
C61_6 C 0.76132(29) 0.74184(23) 0.53792(6)
C62_6 C 0.71255(28) 0.73874(23) 0.51675(5)
C63_6 C 0.66434(28) 0.76560(23) 0.52832(5)
C64_6 C 0.59793(29) 0.76908(24) 0.51510(6)
H79_6 H 0.6042 0.8202 0.5178
H80_6 H 0.5973 0.7590 0.4958
H81_6 H 0.5494 0.7304 0.5232
C65_6 C 0.85149(36) 0.81103(31) 0.47221(6)
H82_6 H 0.8917 0.8005 0.4663
H83_6 H 0.8604 0.8278 0.4911
H84_6 H 0.8525 0.8517 0.4610
C66_6 C 0.77337(32) 0.73834(28) 0.46962(5)
C67_6 C 0.71103(28) 0.70943(23) 0.48885(5)
C68_6 C 0.65053(34) 0.64300(29) 0.47663(6)
C69_6 C 0.5700(4) 0.5871(4) 0.48672(7)
H85_6 H 0.5331 0.5991 0.4783
H86_6 H 0.5682 0.5916 0.5063
H87_6 H 0.5568 0.5345 0.4820
Ni6_6 Ni 0.66670(3) 0.85561(2) 0.5833
N1_3 N 0.06080(13) 0.75117(18) 0.55267(4)
N3_3 N 0.04217(14) 0.67682(19) 0.54778(5)
H1_3 H 0.0515 0.6481 0.5593
C4_3 C 0.10357(18) 0.82142(19) 0.46068(7)
H4_3 H 0.1341 0.7963 0.4578
H5_3 H 0.1192 0.8503 0.4776
H6_3 H 0.1121 0.8566 0.4457
C5_3 C 0.01949(17) 0.76132(16) 0.46208(6)
C9_3 C 0.04047(18) 0.85149(25) 0.52779(6)
H10_3 H 0.0913 0.8917 0.5337
H11_3 H 0.0327 0.8604 0.5089
H12_3 H 0.0009 0.8525 0.5390
C10_3 C 0.03504(16) 0.77337(23) 0.53038(5)
C11_3 C 0.00161(16) 0.71103(16) 0.51115(5)
C12_3 C 0.00754(17) 0.65053(23) 0.52337(6)
H15_3 H 0.0224 0.5568 0.5180
N4_3 N 0.97168(13) 0.74245(13) 0.44000(5)
H2_3 H 0.9867 0.7660 0.4239
C6_3 C 0.97382(16) 0.71255(16) 0.48325(5)
C7_3 C 0.89875(16) 0.66434(16) 0.47168(5)
C8_3 C 0.82886(17) 0.59793(17) 0.48490(6)
H7_3 H 0.7841 0.6042 0.4822
H8_3 H 0.8384 0.5973 0.5042
H9_3 H 0.8191 0.5494 0.4768
C13_3 C 0.9830(2) 0.5700(3) 0.51328(7)
H13_3 H 0.9341 0.5331 0.5217
H14_3 H 0.9767 0.5682 0.4937
N5_3 N 0.24883(18) 0.30962(22) 0.55267(4)
N7_3 N 0.32318(19) 0.36534(24) 0.54778(5)
H18_3 H 0.3519 0.4033 0.5593
N8_3 N 0.25755(13) 0.22922(18) 0.44000(5)
H19_3 H 0.2340 0.2206 0.4239
C20_3 C 0.17858(19) 0.28214(26) 0.46068(7)
H20_3 H 0.2037 0.3377 0.4578
H21_3 H 0.1497 0.2688 0.4776
H22_3 H 0.1434 0.2554 0.4457
C21_3 C 0.23868(16) 0.25816(23) 0.46208(6)
C22_3 C 0.28745(16) 0.26126(23) 0.48325(5)
C23_3 C 0.33566(16) 0.23440(23) 0.47168(5)
C24_3 C 0.40207(17) 0.23092(24) 0.48490(6)
H23_3 H 0.3958 0.1798 0.4822
H24_3 H 0.4027 0.2410 0.5042
H25_3 H 0.4506 0.2696 0.4768
C25_3 C 0.14851(25) 0.18897(31) 0.52779(6)
H26_3 H 0.1083 0.1995 0.5337
H27_3 H 0.1396 0.1722 0.5089
H28_3 H 0.1475 0.1483 0.5390
C26_3 C 0.22663(23) 0.26166(28) 0.53038(5)
C27_3 C 0.28897(16) 0.29057(23) 0.51115(5)
C28_3 C 0.34947(23) 0.35700(29) 0.52337(6)
C29_3 C 0.4300(3) 0.4129(4) 0.51328(7)
H29_3 H 0.4669 0.4009 0.5217
H30_3 H 0.4318 0.4084 0.4937
H31_3 H 0.4432 0.4655 0.5180
N12_3 N 0.77078(18) 0.02832(13) 0.44000(5)
H33_3 H 0.7794 0.0133 0.4239
C32_3 C 0.73874(23) 0.02618(16) 0.48325(5)
C33_3 C 0.76560(23) 0.10125(16) 0.47168(5)
C34_3 C 0.76908(24) 0.17114(17) 0.48490(6)
H37_3 H 0.8202 0.2159 0.4822
H38_3 H 0.7590 0.1616 0.5042
H39_3 H 0.7304 0.1809 0.4768
C39_3 C 0.5871(4) 0.0170(2) 0.51328(7)
H43_3 H 0.5991 0.0659 0.5217
H44_3 H 0.5916 0.0233 0.4937
N9_3 N 0.69038(22) 0.93920(13) 0.55267(4)
N11_3 N 0.63466(24) 0.95783(14) 0.54778(5)
H32_3 H 0.5967 0.9485 0.5593
C30_3 C 0.71786(26) 0.89643(18) 0.46068(7)
H34_3 H 0.6623 0.8659 0.4578
H35_3 H 0.7312 0.8808 0.4776
H36_3 H 0.7446 0.8879 0.4457
C31_3 C 0.74184(23) 0.98051(17) 0.46208(6)
C35_3 C 0.81103(31) 0.95953(18) 0.52779(6)
H40_3 H 0.8005 0.9087 0.5337
H41_3 H 0.8278 0.9673 0.5089
H42_3 H 0.8517 0.9991 0.5390
C36_3 C 0.73834(28) 0.96496(16) 0.53038(5)
C37_3 C 0.70943(23) 0.99839(16) 0.51115(5)
C38_3 C 0.64300(29) 0.99246(17) 0.52337(6)
H45_3 H 0.5345 0.9776 0.5180
Ni4_3 Ni 0.47776(2) 0.0000 0.7500
Ni1_3 Ni -0.0000 0.47772(2) 0.7500
N1_4 N 0.08451(18) 0.72746(13) 0.61399(4)
N2_3 N 0.01677(13) 0.56402(12) 0.72118(4)
N3_4 N 0.01016(19) 0.70883(14) 0.61888(5)
N4_4 N 0.07579(13) 0.63834(13) 0.72666(5)
H2_4 H 0.0994 0.6533 0.7427
C4_4 C 0.15476(19) 0.77023(18) 0.70598(7)
H4_4 H 0.1297 0.8007 0.7088
H5_4 H 0.1837 0.7858 0.6890
H6_4 H 0.1900 0.7787 0.7209
C5_4 C 0.09466(16) 0.68615(17) 0.70458(6)
C6_4 C 0.04589(16) 0.64048(16) 0.68341(5)
C9_4 C 0.18483(25) 0.70713(18) 0.63887(6)
H10_4 H 0.2251 0.7579 0.6329
H11_4 H 0.1938 0.6993 0.6577
H12_4 H 0.1859 0.6675 0.6276
C10_4 C 0.10671(23) 0.70170(16) 0.63628(5)
C11_4 C 0.04437(16) 0.66827(16) 0.65551(5)
N13_3 N 0.02371(22) 0.41784(18) 0.71934(4)
N14_4 N 0.11941(18) 0.35010(13) 0.61215(4)
N16_4 N 0.10411(18) 0.40912(13) 0.60667(5)
H47_4 H 0.1127 0.4327 0.5906
C40_4 C 0.05119(26) 0.48809(19) 0.62735(7)
H49_4 H 0.0645 0.5170 0.6443
H50_4 H 0.0779 0.5233 0.6124
C41_4 C 0.07517(23) 0.42799(16) 0.62875(6)
C42_4 C 0.07207(23) 0.37922(16) 0.64992(5)
C43_4 C 0.09893(23) 0.33101(16) 0.63835(5)
C44_4 C 0.10241(24) 0.26460(17) 0.65157(6)
H51_4 H 0.1535 0.2709 0.6489
H52_4 H 0.0923 0.2640 0.6709
H53_4 H 0.0637 0.2161 0.6435
C45_4 C 0.14436(31) 0.51816(25) 0.69446(6)
H54_4 H 0.1338 0.5584 0.7004
H55_4 H 0.1611 0.5271 0.6756
H56_4 H 0.1850 0.5192 0.7057
C46_4 C 0.07167(28) 0.44004(23) 0.69705(5)
C47_4 C 0.04276(23) 0.37770(16) 0.67782(5)
N23_7 N 0.03201(24) 0.37550(14) 0.78555(5)
H74_7 H 0.0700 0.3848 0.7740
H76_7 H 0.0044 0.4674 0.8755
C68_7 C 0.02367(29) 0.34087(17) 0.80996(6)
C69_7 C 0.0796(4) 0.3163(2) 0.82005(7)
H85_7 H 0.0676 0.2674 0.8116
H86_7 H 0.0751 0.3100 0.8396
H87_7 H 0.1322 0.3557 0.8153
O7_3 O 0.12027(10) 0.54368(14) 0.75924(4)
O8_3 O 0.17026(11) 0.46318(16) 0.76079(4)
C70_3 C 0.17622(15) 0.53033(21) 0.76030(5)
C71_3 C 0.25784(15) 0.60104(21) 0.76036(5)
C72_3 C 0.32358(15) 0.59174(21) 0.76032(5)
H88_3 H 0.3170 0.5416 0.7603
O9_3 O 0.45632(14) 0.57660(10) 0.75924(4)
O10_3 O 0.53682(16) 0.70709(11) 0.76079(4)
C73_3 C 0.46967(21) 0.64590(15) 0.76030(5)
C74_3 C 0.39896(21) 0.65681(15) 0.76036(5)
C75_3 C 0.40826(21) 0.73185(15) 0.76032(5)
H89_3 H 0.4584 0.7755 0.7603
O11_3 O 0.42340(10) 0.87973(10) 0.75924(4)
O12_3 O 0.29291(11) 0.82974(11) 0.76079(4)
C76_3 C 0.35410(15) 0.82378(15) 0.76030(5)
C77_3 C 0.34319(15) 0.74216(15) 0.76036(5)
C78_3 C 0.26815(15) 0.67642(15) 0.76032(5)
H90_3 H 0.2245 0.6830 0.7603
Ni4_4 Ni 0.47776(2) 1.0000 0.7500
Ni5_3 Ni 0.52228(2) 0.52224(2) 0.7500
Ni1_4 Ni 1.0000 0.47772(2) 0.7500
O1_3 O 0.87973(10) 0.42340(10) 0.74076(4)
O2_3 O 0.82974(11) 0.29291(11) 0.73921(4)
H1_4 H 0.9815 0.7181 0.6073
C1_3 C 0.82378(15) 0.35410(15) 0.73970(5)
C2_3 C 0.74216(15) 0.34319(15) 0.73964(5)
C3_3 C 0.67642(15) 0.26815(15) 0.73968(5)
H3_3 H 0.6830 0.2245 0.7397
C7_4 C 0.99768(16) 0.56541(16) 0.69498(5)
C8_4 C 0.93127(17) 0.49552(17) 0.68176(6)
H7_4 H 0.9376 0.4507 0.6844
H8_4 H 0.9307 0.5050 0.6624
H9_4 H 0.8828 0.4857 0.6898
C12_4 C 0.98387(23) 0.67420(17) 0.64329(6)
C13_4 C 0.9034(3) 0.6496(2) 0.65338(7)
H13_4 H 0.8665 0.6007 0.6449
H14_4 H 0.9016 0.6433 0.6729
H15_4 H 0.8902 0.6890 0.6486
O3_3 O 0.54368(14) 0.12027(10) 0.74076(4)
O4_3 O 0.46318(16) 0.17026(11) 0.73921(4)
C14_3 C 0.53033(21) 0.17622(15) 0.73970(5)
C15_3 C 0.60104(21) 0.25784(15) 0.73964(5)
C16_3 C 0.59174(21) 0.32358(15) 0.73968(5)
H16_3 H 0.5416 0.3170 0.7397
O5_3 O 0.57660(10) 0.45632(14) 0.74076(4)
O6_3 O 0.70709(11) 0.53682(16) 0.73921(4)
C17_3 C 0.64590(15) 0.46967(21) 0.73970(5)
C18_3 C 0.65681(15) 0.39896(21) 0.73964(5)
C19_3 C 0.73185(15) 0.40826(21) 0.73968(5)
H17_3 H 0.7755 0.4584 0.7397
H18_4 H 0.7367 0.0185 0.6073
C23_4 C 0.56774(23) 0.00232(16) 0.69498(5)
C24_4 C 0.56426(24) 0.06873(17) 0.68176(6)
H23_4 H 0.5132 0.0624 0.6844
H24_4 H 0.5744 0.0693 0.6624
H25_4 H 0.6030 0.1172 0.6898
C28_4 C 0.69034(29) 0.01613(23) 0.64329(6)
C29_4 C 0.7463(4) 0.0966(3) 0.65338(7)
H29_4 H 0.7343 0.1335 0.6449
H30_4 H 0.7418 0.0984 0.6729
H31_4 H 0.7989 0.1098 0.6486
N9_4 N 0.27254(13) 0.35704(22) 0.61399(4)
N10_3 N 0.43598(12) 0.45274(18) 0.72118(4)
N11_4 N 0.29117(14) 0.30132(24) 0.61888(5)
H32_4 H 0.2819 0.2633 0.6073
N12_4 N 0.36166(13) 0.43744(18) 0.72666(5)
H33_4 H 0.3467 0.4460 0.7427
C30_4 C 0.22977(18) 0.38452(26) 0.70598(7)
H34_4 H 0.1993 0.3289 0.7088
H35_4 H 0.2142 0.3978 0.6890
H36_4 H 0.2213 0.4112 0.7209
C31_4 C 0.31385(17) 0.40850(23) 0.70458(6)
C32_4 C 0.35952(16) 0.40540(23) 0.68341(5)
C33_4 C 0.43459(16) 0.43226(23) 0.69498(5)
C34_4 C 0.50448(17) 0.43574(24) 0.68176(6)
H37_4 H 0.5493 0.4868 0.6844
H38_4 H 0.4950 0.4256 0.6624
H39_4 H 0.5143 0.3970 0.6898
C35_4 C 0.29287(18) 0.47769(31) 0.63887(6)
H40_4 H 0.2421 0.4671 0.6329
H41_4 H 0.3007 0.4944 0.6577
H42_4 H 0.3325 0.5183 0.6276
C36_4 C 0.29830(16) 0.40500(28) 0.63628(5)
C37_4 C 0.33173(16) 0.37609(23) 0.65551(5)
C38_4 C 0.32580(17) 0.30966(29) 0.64329(6)
C39_4 C 0.3504(2) 0.2537(4) 0.65338(7)
H43_4 H 0.3993 0.2657 0.6449
H44_4 H 0.3567 0.2582 0.6729
H45_4 H 0.3110 0.2011 0.6486
N15_4 N 0.96799(24) 0.34349(19) 0.71445(5)
H46_4 H 0.9300 0.3148 0.7260
H48_4 H 0.9956 0.4630 0.6245
C48_4 C 0.97633(29) 0.31720(23) 0.69004(6)
C49_4 C 0.9204(4) 0.2367(3) 0.67995(7)
H57_4 H 0.9324 0.1998 0.6884
H58_4 H 0.9249 0.2349 0.6604
H59_4 H 0.8678 0.2235 0.6847
N19_4 N 0.37550(14) 0.03201(24) 0.71445(5)
H60_4 H 0.3848 0.0700 0.7260
H62_4 H 0.4674 0.0044 0.6245
C58_4 C 0.34087(17) 0.02367(29) 0.69004(6)
C59_4 C 0.3163(2) 0.0796(4) 0.67995(7)
H71_4 H 0.2674 0.0676 0.6884
H72_4 H 0.3100 0.0751 0.6604
H73_4 H 0.3557 0.1322 0.6847
N21_3 N 0.97629(22) 0.39413(13) 0.78066(4)
N22_7 N 0.88059(18) 0.23069(12) 0.88785(4)
N24_7 N 0.89589(18) 0.30501(13) 0.89333(5)
H75_7 H 0.8873 0.3200 0.9094
C60_7 C 0.94881(26) 0.43690(18) 0.87265(7)
H77_7 H 0.9355 0.4525 0.8557
H78_7 H 0.9221 0.4454 0.8876
C61_7 C 0.92483(23) 0.35282(17) 0.87125(6)
C62_7 C 0.92793(23) 0.30715(16) 0.85008(5)
C63_7 C 0.90107(23) 0.23208(16) 0.86165(5)
C64_7 C 0.89759(24) 0.16219(17) 0.84843(6)
H79_7 H 0.8465 0.1174 0.8511
H80_7 H 0.9077 0.1717 0.8291
H81_7 H 0.9363 0.1524 0.8565
C65_7 C 0.85564(31) 0.37380(18) 0.80554(6)
H82_7 H 0.8662 0.4246 0.7996
H83_7 H 0.8389 0.3660 0.8244
H84_7 H 0.8150 0.3342 0.7943
C66_7 C 0.92833(28) 0.36837(16) 0.80295(5)
C67_7 C 0.95724(23) 0.33494(16) 0.82218(5)
N25_3 N 0.58216(18) 0.60587(13) 0.71934(4)
N26_3 N 0.60587(13) 0.58216(18) 0.78066(4)
N27_3 N 0.41784(18) 0.02371(22) 0.78066(4)
N28_3 N 0.56402(12) 0.01677(13) 0.77882(4)
N29_3 N 0.45274(18) 0.43598(12) 0.77882(4)
N30_3 N 0.98323(13) 0.54726(18) 0.77882(4)
N5_4 N 0.64296(22) 0.91549(18) 0.61399(4)
N6_3 N 0.54726(18) 0.98323(13) 0.72118(4)
N7_4 N 0.69868(24) 0.98984(19) 0.61888(5)
N8_4 N 0.56256(18) 0.92421(13) 0.72666(5)
H19_4 H 0.5540 0.9006 0.7427
C20_4 C 0.61548(26) 0.84524(19) 0.70598(7)
H20_4 H 0.6711 0.8703 0.7088
H21_4 H 0.6022 0.8163 0.6890
H22_4 H 0.5888 0.8100 0.7209
C21_4 C 0.59150(23) 0.90534(16) 0.70458(6)
C22_4 C 0.59460(23) 0.95411(16) 0.68341(5)
C25_4 C 0.52231(31) 0.81517(25) 0.63887(6)
H26_4 H 0.5329 0.7749 0.6329
H27_4 H 0.5056 0.8062 0.6577
H28_4 H 0.4817 0.8141 0.6276
C26_4 C 0.59500(28) 0.89329(23) 0.63628(5)
C27_4 C 0.62391(23) 0.95563(16) 0.65551(5)
N17_3 N 0.39413(13) 0.97629(22) 0.71934(4)
N18_4 N 0.23069(12) 0.88059(18) 0.61215(4)
N20_4 N 0.30501(13) 0.89589(18) 0.60667(5)
H61_4 H 0.3200 0.8873 0.5906
C50_4 C 0.43690(18) 0.94881(26) 0.62735(7)
H63_4 H 0.4525 0.9355 0.6443
H64_4 H 0.4454 0.9221 0.6124
C51_4 C 0.35282(17) 0.92483(23) 0.62875(6)
C52_4 C 0.30715(16) 0.92793(23) 0.64992(5)
C53_4 C 0.23208(16) 0.90107(23) 0.63835(5)
C54_4 C 0.16219(17) 0.89759(24) 0.65157(6)
H65_4 H 0.1174 0.8465 0.6489
H66_4 H 0.1717 0.9077 0.6709
H67_4 H 0.1524 0.9363 0.6435
C55_4 C 0.37380(18) 0.85564(31) 0.69446(6)
H68_4 H 0.4246 0.8662 0.7004
H69_4 H 0.3660 0.8389 0.6756
H70_4 H 0.3342 0.8150 0.7057
C56_4 C 0.36837(16) 0.92833(28) 0.69705(5)
C57_4 C 0.33494(16) 0.95724(23) 0.67782(5)
N14_5 N 0.64990(13) 0.76931(22) 0.61215(4)
N15_5 N 0.65651(19) 0.62450(31) 0.71445(5)
H46_5 H 0.6852 0.6152 0.7260
N16_5 N 0.59088(13) 0.69499(22) 0.60667(5)
H47_5 H 0.5673 0.6800 0.5906
C40_5 C 0.51191(19) 0.56310(32) 0.62735(7)
H48_5 H 0.5370 0.5326 0.6245
H49_5 H 0.4830 0.5475 0.6443
H50_5 H 0.4767 0.5546 0.6124
C41_5 C 0.57201(16) 0.64718(28) 0.62875(6)
C42_5 C 0.62078(16) 0.69285(28) 0.64992(5)
C43_5 C 0.66899(16) 0.76792(28) 0.63835(5)
C44_5 C 0.73540(17) 0.83781(29) 0.65157(6)
H51_5 H 0.7291 0.8826 0.6489
H52_5 H 0.7360 0.8283 0.6709
H53_5 H 0.7839 0.8476 0.6435
C45_5 C 0.48184(25) 0.62620(40) 0.69446(6)
H54_5 H 0.4416 0.5754 0.7004
H55_5 H 0.4729 0.6340 0.6756
H56_5 H 0.4808 0.6658 0.7057
C46_5 C 0.55996(23) 0.63163(36) 0.69705(5)
C47_5 C 0.62230(16) 0.66506(28) 0.67782(5)
C48_5 C 0.68280(23) 0.65913(37) 0.69004(6)
C49_5 C 0.7633(3) 0.6837(5) 0.67995(7)
H57_5 H 0.8002 0.7326 0.6884
H58_5 H 0.7651 0.6900 0.6604
H59_5 H 0.7765 0.6443 0.6847
N22_8 N 0.76931(12) 0.64990(22) 0.88785(4)
N23_8 N 0.62450(14) 0.65651(28) 0.78555(5)
H74_8 H 0.6152 0.6852 0.7740
N24_8 N 0.69499(13) 0.59088(22) 0.89333(5)
H75_8 H 0.6800 0.5673 0.9094
C60_8 C 0.56310(18) 0.51191(32) 0.87265(7)
H76_8 H 0.5326 0.5370 0.8755
H77_8 H 0.5475 0.4830 0.8557
H78_8 H 0.5546 0.4767 0.8876
C61_8 C 0.64718(17) 0.57201(29) 0.87125(6)
C62_8 C 0.69285(16) 0.62078(28) 0.85008(5)
C63_8 C 0.76792(16) 0.66899(28) 0.86165(5)
C64_8 C 0.83781(17) 0.73540(29) 0.84843(6)
H79_8 H 0.8826 0.7291 0.8511
H80_8 H 0.8283 0.7360 0.8291
H81_8 H 0.8476 0.7839 0.8565
C65_8 C 0.62620(18) 0.48184(36) 0.80554(6)
H82_8 H 0.5754 0.4416 0.7996
H83_8 H 0.6340 0.4729 0.8244
H84_8 H 0.6658 0.4808 0.7943
C66_8 C 0.63163(16) 0.55996(32) 0.80295(5)
C67_8 C 0.66506(16) 0.62230(28) 0.82218(5)
C68_8 C 0.65913(17) 0.68280(34) 0.80996(6)
C69_8 C 0.6837(2) 0.7633(4) 0.82005(7)
H85_8 H 0.7326 0.8002 0.8116
H86_8 H 0.6900 0.7651 0.8396
H87_8 H 0.6443 0.7765 0.8153
N22_9 N 0.35010(22) 0.11941(18) 0.88785(4)
N24_9 N 0.40912(22) 0.10411(18) 0.89333(5)
H75_9 H 0.4327 0.1127 0.9094
C60_9 C 0.48809(32) 0.05119(26) 0.87265(7)
H77_9 H 0.5170 0.0645 0.8557
H78_9 H 0.5233 0.0779 0.8876
C61_9 C 0.42799(29) 0.07517(23) 0.87125(6)
C62_9 C 0.37922(28) 0.07207(23) 0.85008(5)
C63_9 C 0.33101(28) 0.09893(23) 0.86165(5)
C64_9 C 0.26460(29) 0.10241(24) 0.84843(6)
H79_9 H 0.2709 0.1535 0.8511
H80_9 H 0.2640 0.0923 0.8291
H81_9 H 0.2161 0.0637 0.8565
C65_9 C 0.51816(36) 0.14436(31) 0.80554(6)
H82_9 H 0.5584 0.1338 0.7996
H83_9 H 0.5271 0.1611 0.8244
H84_9 H 0.5192 0.1850 0.7943
C66_9 C 0.44004(32) 0.07167(28) 0.80295(5)
C67_9 C 0.37770(28) 0.04276(23) 0.82218(5)
N23_9 N 0.34349(28) 0.96799(24) 0.78555(5)
H74_9 H 0.3148 0.9300 0.7740
H76_9 H 0.4630 0.9956 0.8755
C68_9 C 0.31720(34) 0.97633(29) 0.80996(6)
C69_9 C 0.2367(4) 0.9204(4) 0.82005(7)
H85_9 H 0.1998 0.9324 0.8116
H86_9 H 0.2349 0.9249 0.8396
H87_9 H 0.2235 0.8678 0.8153
N1_5 N 0.72746(13) 0.08451(18) 0.88601(4)
N3_5 N 0.70883(14) 0.01016(19) 0.88112(5)
N4_5 N 0.63834(13) 0.07579(13) 0.77334(5)
H2_5 H 0.6533 0.0994 0.7573
C4_5 C 0.77023(18) 0.15476(19) 0.79402(7)
H4_5 H 0.8007 0.1297 0.7912
H5_5 H 0.7858 0.1837 0.8110
H6_5 H 0.7787 0.1900 0.7791
C5_5 C 0.68615(17) 0.09466(16) 0.79542(6)
C6_5 C 0.64048(16) 0.04589(16) 0.81659(5)
C9_5 C 0.70713(18) 0.18483(25) 0.86113(6)
H10_5 H 0.7579 0.2251 0.8671
H11_5 H 0.6993 0.1938 0.8423
H12_5 H 0.6675 0.1859 0.8724
C10_5 C 0.70170(16) 0.10671(23) 0.86372(5)
C11_5 C 0.66827(16) 0.04437(16) 0.84449(5)
H1_5 H 0.7181 0.9815 0.8927
C7_5 C 0.56541(16) 0.99768(16) 0.80502(5)
C8_5 C 0.49552(17) 0.93127(17) 0.81824(6)
H7_5 H 0.4507 0.9376 0.8156
H8_5 H 0.5050 0.9307 0.8376
H9_5 H 0.4857 0.8828 0.8102
C12_5 C 0.67420(17) 0.98387(23) 0.85671(6)
C13_5 C 0.6496(2) 0.9034(3) 0.84662(7)
H13_5 H 0.6007 0.8665 0.8551
H14_5 H 0.6433 0.9016 0.8271
H15_5 H 0.6890 0.8902 0.8514
H18_5 H 0.0185 0.7367 0.8927
C23_5 C 0.00232(16) 0.56774(23) 0.80502(5)
C24_5 C 0.06873(17) 0.56426(24) 0.81824(6)
H23_5 H 0.0624 0.5132 0.8156
H24_5 H 0.0693 0.5744 0.8376
H25_5 H 0.1172 0.6030 0.8102
C28_5 C 0.01613(23) 0.69034(29) 0.85671(6)
C29_5 C 0.0966(3) 0.7463(4) 0.84662(7)
H29_5 H 0.1335 0.7343 0.8551
H30_5 H 0.0984 0.7418 0.8271
H31_5 H 0.1098 0.7989 0.8514
N9_5 N 0.35704(22) 0.27254(13) 0.88601(4)
N11_5 N 0.30132(24) 0.29117(14) 0.88112(5)
H32_5 H 0.2633 0.2819 0.8927
N12_5 N 0.43744(18) 0.36166(13) 0.77334(5)
H33_5 H 0.4460 0.3467 0.7573
C30_5 C 0.38452(26) 0.22977(18) 0.79402(7)
H34_5 H 0.3289 0.1993 0.7912
H35_5 H 0.3978 0.2142 0.8110
H36_5 H 0.4112 0.2213 0.7791
C31_5 C 0.40850(23) 0.31385(17) 0.79542(6)
C32_5 C 0.40540(23) 0.35952(16) 0.81659(5)
C33_5 C 0.43226(23) 0.43459(16) 0.80502(5)
C34_5 C 0.43574(24) 0.50448(17) 0.81824(6)
H37_5 H 0.4868 0.5493 0.8156
H38_5 H 0.4256 0.4950 0.8376
H39_5 H 0.3970 0.5143 0.8102
C35_5 C 0.47769(31) 0.29287(18) 0.86113(6)
H40_5 H 0.4671 0.2421 0.8671
H41_5 H 0.4944 0.3007 0.8423
H42_5 H 0.5183 0.3325 0.8724
C36_5 C 0.40500(28) 0.29830(16) 0.86372(5)
C37_5 C 0.37609(23) 0.33173(16) 0.84449(5)
C38_5 C 0.30966(29) 0.32580(17) 0.85671(6)
C39_5 C 0.2537(4) 0.3504(2) 0.84662(7)
H43_5 H 0.2657 0.3993 0.8551
H44_5 H 0.2582 0.3567 0.8271
H45_5 H 0.2011 0.3110 0.8514
N5_5 N 0.91549(18) 0.64296(22) 0.88601(4)
N7_5 N 0.98984(19) 0.69868(24) 0.88112(5)
N8_5 N 0.92421(13) 0.56256(18) 0.77334(5)
H19_5 H 0.9006 0.5540 0.7573
C20_5 C 0.84524(19) 0.61548(26) 0.79402(7)
H20_5 H 0.8703 0.6711 0.7912
H21_5 H 0.8163 0.6022 0.8110
H22_5 H 0.8100 0.5888 0.7791
C21_5 C 0.90534(16) 0.59150(23) 0.79542(6)
C22_5 C 0.95411(16) 0.59460(23) 0.81659(5)
C25_5 C 0.81517(25) 0.52231(31) 0.86113(6)
H26_5 H 0.7749 0.5329 0.8671
H27_5 H 0.8062 0.5056 0.8423
H28_5 H 0.8141 0.4817 0.8724
C26_5 C 0.89329(23) 0.59500(28) 0.86372(5)
C27_5 C 0.95563(16) 0.62391(23) 0.84449(5)
C4_6 C 0.82142(19) 0.10357(18) 0.03932(7)
H4_6 H 0.7963 0.1341 0.0422
H5_6 H 0.8503 0.1192 0.0224
H6_6 H 0.8566 0.1121 0.0543
C5_6 C 0.76132(16) 0.01949(17) 0.03792(6)
N1_6 N 0.75117(18) 0.06080(13) 0.94733(4)
N3_6 N 0.67682(19) 0.04217(14) 0.95222(5)
H1_6 H 0.6481 0.0515 0.9407
C9_6 C 0.85149(25) 0.04047(18) 0.97221(6)
H10_6 H 0.8917 0.0913 0.9663
H11_6 H 0.8604 0.0327 0.9911
H12_6 H 0.8525 0.0009 0.9610
C10_6 C 0.77337(23) 0.03504(16) 0.96962(5)
C11_6 C 0.71103(16) 0.00161(16) 0.98885(5)
C12_6 C 0.65053(23) 0.00754(17) 0.97663(6)
H15_6 H 0.5568 0.0224 0.9820
N4_6 N 0.74245(13) 0.97168(13) 0.06000(5)
H2_6 H 0.7660 0.9867 0.0761
C6_6 C 0.71255(16) 0.97382(16) 0.01675(5)
C7_6 C 0.66434(16) 0.89875(16) 0.02832(5)
C8_6 C 0.59793(17) 0.82886(17) 0.01510(6)
H7_6 H 0.6042 0.7841 0.0178
H9_6 H 0.5494 0.8191 0.0232
H14_6 H 0.5682 0.9767 0.0063
N8_6 N 0.22922(18) 0.25755(13) 0.06000(5)
H19_6 H 0.2206 0.2340 0.0761
C20_6 C 0.28214(26) 0.17858(19) 0.03932(7)
H20_6 H 0.3377 0.2037 0.0422
H21_6 H 0.2688 0.1497 0.0224
H22_6 H 0.2554 0.1434 0.0543
C21_6 C 0.25816(23) 0.23868(16) 0.03792(6)
C22_6 C 0.26126(23) 0.28745(16) 0.01675(5)
C23_6 C 0.23440(23) 0.33566(16) 0.02832(5)
C24_6 C 0.23092(24) 0.40207(17) 0.01510(6)
H23_6 H 0.1798 0.3958 0.0178
H25_6 H 0.2696 0.4506 0.0232
H30_6 H 0.4084 0.4318 0.0063
N12_6 N 0.02832(13) 0.77078(18) 0.06000(5)
H33_6 H 0.0133 0.7794 0.0761
C32_6 C 0.02618(16) 0.73874(23) 0.01675(5)
C33_6 C 0.10125(16) 0.76560(23) 0.02832(5)
C34_6 C 0.17114(17) 0.76908(24) 0.01510(6)
H37_6 H 0.2159 0.8202 0.0178
H39_6 H 0.1809 0.7304 0.0232
H44_6 H 0.0233 0.5916 0.0063
H8_6 H 0.5973 0.8384 0.9958
C13_6 C 0.5700(3) 0.9830(2) 0.98672(7)
H13_6 H 0.5331 0.9341 0.9783
N5_6 N 0.30962(22) 0.24883(18) 0.94733(4)
N7_6 N 0.36534(24) 0.32318(19) 0.95222(5)
H18_6 H 0.4033 0.3519 0.9407
H24_6 H 0.2410 0.4027 0.9958
C25_6 C 0.18897(31) 0.14851(25) 0.97221(6)
H26_6 H 0.1995 0.1083 0.9663
H27_6 H 0.1722 0.1396 0.9911
H28_6 H 0.1483 0.1475 0.9610
C26_6 C 0.26166(28) 0.22663(23) 0.96962(5)
C27_6 C 0.29057(23) 0.28897(16) 0.98885(5)
C28_6 C 0.35700(29) 0.34947(23) 0.97663(6)
C29_6 C 0.4129(4) 0.4300(3) 0.98672(7)
H29_6 H 0.4009 0.4669 0.9783
H31_6 H 0.4655 0.4432 0.9820
H38_6 H 0.1616 0.7590 0.9958
C39_6 C 0.0170(2) 0.5871(4) 0.98672(7)
H43_6 H 0.0659 0.5991 0.9783
C30_6 C 0.89643(18) 0.71786(26) 0.03932(7)
H34_6 H 0.8659 0.6623 0.0422
H35_6 H 0.8808 0.7312 0.0224
H36_6 H 0.8879 0.7446 0.0543
C31_6 C 0.98051(17) 0.74184(23) 0.03792(6)
N9_6 N 0.93920(13) 0.69038(22) 0.94733(4)
N11_6 N 0.95783(14) 0.63466(24) 0.95222(5)
H32_6 H 0.9485 0.5967 0.9407
C35_6 C 0.95953(18) 0.81103(31) 0.97221(6)
H40_6 H 0.9087 0.8005 0.9663
H41_6 H 0.9673 0.8278 0.9911
H42_6 H 0.9991 0.8517 0.9610
C36_6 C 0.96496(16) 0.73834(28) 0.96962(5)
C37_6 C 0.99839(16) 0.70943(23) 0.98885(5)
C38_6 C 0.99246(17) 0.64300(29) 0.97663(6)
H45_6 H 0.9776 0.5345 0.9820
O3_4 O 0.21306(10) 0.12299(14) 0.90743(4)
O4_4 O 0.16307(11) 0.20349(16) 0.90588(4)
C14_4 C 0.15711(15) 0.13634(21) 0.90637(5)
C15_4 C 0.07549(15) 0.06563(21) 0.90631(5)
C16_4 C 0.00975(15) 0.07493(21) 0.90635(5)
H16_4 H 0.0163 0.1251 0.9064
O13 O 0.45361(10) 0.24326(10) 0.92590(4)
O2_4 O 0.04042(11) 0.83693(11) 0.90588(4)
C3_4 C 0.06518(15) 0.99025(15) 0.90635(5)
H3_4 H 0.1088 0.9837 0.9064
O5_4 O 0.87701(14) 0.09007(10) 0.90743(4)
C17_4 C 0.86366(21) 0.02077(15) 0.90637(5)
C18_4 C 0.93437(21) 0.00986(15) 0.90631(5)
O14 O 0.75674(10) 0.21034(14) 0.92590(4)
O1_4 O 0.90993(10) 0.78694(10) 0.90743(4)
C1_4 C 0.97923(15) 0.84289(15) 0.90637(5)
C2_4 C 0.99014(15) 0.92451(15) 0.90631(5)
O6_4 O 0.79651(16) 0.95958(11) 0.90588(4)
C19_4 C 0.92507(21) 0.93482(15) 0.90635(5)
H17_4 H 0.8749 0.8912 0.9064
O7_4 O 0.78966(14) 0.54639(10) 0.92590(4)
O8_4 O 0.87016(16) 0.49640(11) 0.92745(4)
C70_4 C 0.80301(21) 0.49044(15) 0.92696(5)
C71_4 C 0.73230(21) 0.40882(15) 0.92702(5)
C72_4 C 0.74160(21) 0.34308(15) 0.92698(5)
H88_4 H 0.7918 0.3496 0.9269
O10_4 O 0.62625(11) 0.12984(16) 0.92745(4)
C73_4 C 0.68744(15) 0.19699(21) 0.92696(5)
C74_4 C 0.67653(15) 0.26770(21) 0.92702(5)
C75_4 C 0.60149(15) 0.25840(21) 0.92698(5)
H89_4 H 0.5579 0.2082 0.9269
O12_4 O 0.50360(11) 0.37375(11) 0.92745(4)
C76_4 C 0.50956(15) 0.31256(15) 0.92696(5)
C77_4 C 0.59118(15) 0.32347(15) 0.92702(5)
C78_4 C 0.65692(15) 0.39851(15) 0.92698(5)
H90_4 H 0.6504 0.4421 0.9269
O3_5 O 0.12299(14) 0.21306(10) 0.59257(4)
O4_5 O 0.20349(16) 0.16307(11) 0.59412(4)
C14_5 C 0.13634(21) 0.15711(15) 0.59363(5)
C15_5 C 0.06563(21) 0.07549(15) 0.59369(5)
C16_5 C 0.07493(21) 0.00975(15) 0.59365(5)
H16_5 H 0.1251 0.0163 0.5936
O13_2 O 0.24326(10) 0.45361(10) 0.57410(4)
O5_5 O 0.09007(10) 0.87701(14) 0.59257(4)
C17_5 C 0.02077(15) 0.86366(21) 0.59363(5)
C18_5 C 0.00986(15) 0.93437(21) 0.59369(5)
O14_2 O 0.21034(14) 0.75674(10) 0.57410(4)
O2_5 O 0.83693(11) 0.04042(11) 0.59412(4)
C3_5 C 0.99025(15) 0.06518(15) 0.59365(5)
H3_5 H 0.9837 0.1088 0.5936
O1_5 O 0.78694(10) 0.90993(10) 0.59257(4)
C1_5 C 0.84289(15) 0.97923(15) 0.59363(5)
C2_5 C 0.92451(15) 0.99014(15) 0.59369(5)
O6_5 O 0.95958(11) 0.79651(16) 0.59412(4)
C19_5 C 0.93482(15) 0.92507(21) 0.59365(5)
H17_5 H 0.8912 0.8749 0.5936
O7_5 O 0.54639(10) 0.78966(14) 0.57410(4)
O8_5 O 0.49640(11) 0.87016(16) 0.57255(4)
C70_5 C 0.49044(15) 0.80301(21) 0.57304(5)
C71_5 C 0.40882(15) 0.73230(21) 0.57298(5)
C72_5 C 0.34308(15) 0.74160(21) 0.57302(5)
H88_5 H 0.3496 0.7918 0.5731
O10_5 O 0.12984(16) 0.62625(11) 0.57255(4)
C73_5 C 0.19699(21) 0.68744(15) 0.57304(5)
C74_5 C 0.26770(21) 0.67653(15) 0.57298(5)
C75_5 C 0.25840(21) 0.60149(15) 0.57302(5)
H89_5 H 0.2082 0.5579 0.5731
O12_5 O 0.37375(11) 0.50360(11) 0.57255(4)
C76_5 C 0.31256(15) 0.50956(15) 0.57304(5)
C77_5 C 0.32347(15) 0.59118(15) 0.57298(5)
C78_5 C 0.39851(15) 0.65692(15) 0.57302(5)
H90_5 H 0.4421 0.6504 0.5731
O13_3 O 0.57660(10) 0.12027(10) 0.24076(4)
O1_6 O 0.12027(10) 0.57660(10) 0.25924(4)
O2_6 O 0.17026(11) 0.70709(11) 0.26079(4)
C1_6 C 0.17622(15) 0.64590(15) 0.26030(5)
C2_6 C 0.25784(15) 0.65681(15) 0.26036(5)
C3_6 C 0.32358(15) 0.73185(15) 0.26032(5)
H3_6 H 0.3170 0.7755 0.2603
O3_6 O 0.45632(14) 0.87973(10) 0.25924(4)
O4_6 O 0.53682(16) 0.82974(11) 0.26079(4)
C14_6 C 0.46967(21) 0.82378(15) 0.26030(5)
C15_6 C 0.39896(21) 0.74216(15) 0.26036(5)
C16_6 C 0.40826(21) 0.67642(15) 0.26032(5)
H16_6 H 0.4584 0.6830 0.2603
O5_6 O 0.42340(10) 0.54368(14) 0.25924(4)
O6_6 O 0.29291(11) 0.46318(16) 0.26079(4)
C17_6 C 0.35410(15) 0.53033(21) 0.26030(5)
C18_6 C 0.34319(15) 0.60104(21) 0.26036(5)
C19_6 C 0.26815(15) 0.59174(21) 0.26032(5)
H17_6 H 0.2245 0.5416 0.2603
O14_3 O 0.54368(14) 0.42340(10) 0.24076(4)
O7_6 O 0.87973(10) 0.45632(14) 0.24076(4)
O8_6 O 0.82974(11) 0.53682(16) 0.23921(4)
C70_6 C 0.82378(15) 0.46967(21) 0.23970(5)
C71_6 C 0.74216(15) 0.39896(21) 0.23964(5)
C72_6 C 0.67642(15) 0.40826(21) 0.23968(5)
H88_6 H 0.6830 0.4584 0.2397
O10_6 O 0.46318(16) 0.29291(11) 0.23921(4)
C73_6 C 0.53033(21) 0.35410(15) 0.23970(5)
C74_6 C 0.60104(21) 0.34319(15) 0.23964(5)
C75_6 C 0.59174(21) 0.26815(15) 0.23968(5)
H89_6 H 0.5416 0.2245 0.2397
O12_6 O 0.70709(11) 0.17026(11) 0.23921(4)
C76_6 C 0.64590(15) 0.17622(15) 0.23970(5)
C77_6 C 0.65681(15) 0.25784(15) 0.23964(5)
C78_6 C 0.73185(15) 0.32358(15) 0.23968(5)
H90_6 H 0.7755 0.3170 0.2397
loop_
_geom_bond_atom_site_label_1
_geom_bond_atom_site_label_2
_geom_bond_site_symmetry_1
_geom_bond_site_symmetry_2
Ni1 O1 1_555 1_555
O1 C1 1_555 1_555
N1 N3 1_555 1_555
N2 Ni1 1_555 1_555
N3 H1 1_555 1_555
N4 N2 1_555 1_555
H2 N4 1_555 1_555
C1 C2 1_555 1_555
C4 H4 1_555 1_555
H5 C4 1_555 1_555
H6 C4 1_555 1_555
C5 N4 1_555 1_555
C6 C5 1_555 1_555
C7 N2 1_555 1_555
C8 C7 1_555 1_555
H7 C8 1_555 1_555
H8 C8 1_555 1_555
H9 C8 1_555 1_555
C9 H10 1_555 1_555
H11 C9 1_555 1_555
H12 C9 1_555 1_555
C10 N1 1_555 1_555
C11 C6 1_555 1_555
C12 N3 1_555 1_555
C13 C12 1_555 1_555
H13 C13 1_555 1_555
H14 C13 1_555 1_555
H15 C13 1_555 1_555
C19 C2 1_555 1_555
H17 C19 1_555 1_555
N13 Ni1 1_555 1_555
N14 N16 1_555 1_555
N15 N13 1_555 1_555
N16 H47 1_555 1_555
C40 H48 1_555 1_555
H49 C40 1_555 1_555
H50 C40 1_555 1_555
C41 N16 1_555 1_555
C42 C41 1_555 1_555
C45 H54 1_555 1_555
H55 C45 1_555 1_555
H56 C45 1_555 1_555
C46 N13 1_555 1_555
C47 C42 1_555 1_555
N21 Ni1 1_555 1_555
N23 N21 1_555 1_555
H74 N23 1_555 1_555
C65 H82 1_555 1_555
H83 C65 1_555 1_555
H84 C65 1_555 1_555
C66 N21 1_555 1_555
C68 N23 1_555 1_555
O7 Ni1 1_555 1_555
O8 C70 1_555 1_555
C70 O7 1_555 1_555
C71 C70 1_555 1_555
C72 C71 1_555 1_555
H88 C72 1_555 1_555
O9 C73 1_555 1_555
O10 C73 1_555 1_555
C73 C74 1_555 1_555
C74 C72 1_555 1_555
C75 C74 1_555 1_555
H89 C75 1_555 1_555
O11 C76 1_555 1_555
O12 C76 1_555 1_555
C76 C77 1_555 1_555
C77 C75 1_555 1_555
C78 C71 1_555 1_555
H90 C78 1_555 1_555
Ni4 O11 1_555 1_555
Ni5 O9 1_555 1_555
Ni9 N14 1_555 1_555
Ni11 N1 1_555 1_555
N30 Ni1 1_555 1_555
C4 C5 1_555 1_555
C6 C7 1_555 1_555
C9 C10 1_555 1_555
C10 C11 1_555 1_555
C11 C12 1_555 1_555
C40 C41 1_555 1_555
C45 C46 1_555 1_555
C46 C47 1_555 1_555
C65 C66 1_555 1_555
C66 C67 1_555 1_555
C67 C68 1_555 1_555
C77 C78 1_555 1_555
C60 H76 1_555 1_555
H77 C60 1_555 1_555
H78 C60 1_555 1_555
C60 C61 1_555 1_555
O5 C17 1_555 1_555
C17 C18 1_555 1_555
Ni5 O5 1_555 1_555
N10 Ni5 1_555 1_555
N12 N10 1_555 1_555
H33 N12 1_555 1_555
H35 C30 1_555 1_555
H36 C30 1_555 1_555
C31 N12 1_555 1_555
C32 C31 1_555 1_555
C33 N10 1_555 1_555
C34 C33 1_555 1_555
H37 C34 1_555 1_555
H38 C34 1_555 1_555
H39 C34 1_555 1_555
C35 H40 1_555 1_555
H41 C35 1_555 1_555
H42 C35 1_555 1_555
C36 N9 1_555 1_555
C37 C32 1_555 1_555
Ni9 N9 1_555 1_555
N25 Ni5 1_555 1_555
N26 Ni5 1_555 1_555
N29 Ni5 1_555 1_555
C30 C31 1_555 1_555
C32 C33 1_555 1_555
C35 C36 1_555 1_555
C36 C37 1_555 1_555
C3 H3 1_555 1_555
N7 H18 1_555 1_555
C28 N7 1_555 1_555
C29 C28 1_555 1_555
H29 C29 1_555 1_555
H30 C29 1_555 1_555
H31 C29 1_555 1_555
C44 C43 1_555 1_555
H51 C44 1_555 1_555
H52 C44 1_555 1_555
H53 C44 1_555 1_555
C49 C48 1_555 1_555
H57 C49 1_555 1_555
H58 C49 1_555 1_555
H59 C49 1_555 1_555
H85 C69 1_555 1_555
N22 N24 1_555 1_555
N24 H75 1_555 1_555
C63 N22 1_555 1_555
C64 C63 1_555 1_555
H79 C64 1_555 1_555
H81 C64 1_555 1_555
Ni6 N22 1_555 1_555
C62 C63 1_555 1_555
O3 C14 1_555 1_555
O4 C14 1_555 1_555
C14 C15 1_555 1_555
C16 C15 1_555 1_555
H16 C16 1_555 1_555
Ni4 O3 1_555 1_555
N6 Ni4 1_555 1_555
N8 N6 1_555 1_555
H19 N8 1_555 1_555
H21 C20 1_555 1_555
H22 C20 1_555 1_555
C21 N8 1_555 1_555
C22 C21 1_555 1_555
C23 N6 1_555 1_555
C24 C23 1_555 1_555
H23 C24 1_555 1_555
H24 C24 1_555 1_555
H25 C24 1_555 1_555
C25 H26 1_555 1_555
H27 C25 1_555 1_555
H28 C25 1_555 1_555
C26 N5 1_555 1_555
C27 C22 1_555 1_555
N11 H32 1_555 1_555
C38 N11 1_555 1_555
C39 C38 1_555 1_555
H43 C39 1_555 1_555
H44 C39 1_555 1_555
H45 C39 1_555 1_555
N17 Ni4 1_555 1_555
N18 N20 1_555 1_555
N19 N17 1_555 1_555
H60 N19 1_555 1_555
N20 H61 1_555 1_555
C50 H62 1_555 1_555
H63 C50 1_555 1_555
H64 C50 1_555 1_555
C51 N20 1_555 1_555
C52 C51 1_555 1_555
C53 N18 1_555 1_555
C54 C53 1_555 1_555
H65 C54 1_555 1_555
H66 C54 1_555 1_555
H67 C54 1_555 1_555
C55 H68 1_555 1_555
H69 C55 1_555 1_555
H70 C55 1_555 1_555
C56 N17 1_555 1_555
C57 C52 1_555 1_555
C58 N19 1_555 1_555
C59 C58 1_555 1_555
H71 C59 1_555 1_555
H72 C59 1_555 1_555
H73 C59 1_555 1_555
Ni7_2 N5 1_555 1_555
Ni11 N18 1_555 1_555
N27 Ni4 1_555 1_555
N28 Ni4 1_555 1_555
C20 C21 1_555 1_555
C22 C23 1_555 1_555
C25 C26 1_555 1_555
C26 C27 1_555 1_555
C50 C51 1_555 1_555
C52 C53 1_555 1_555
C55 C56 1_555 1_555
C56 C57 1_555 1_555
C57 C58 1_555 1_555
C54_2 C53_2 1_555 1_555
H65_2 C54_2 1_555 1_555
H66_2 C54_2 1_555 1_555
H67_2 C54_2 1_555 1_555
C59_2 C58_2 1_555 1_555
H71_2 C59_2 1_555 1_555
H72_2 C59_2 1_555 1_555
H73_2 C59_2 1_555 1_555
N18_2 N20_2 1_555 1_555
N19_2 N25 1_555 1_555
N20_2 H61_2 1_555 1_555
C50_2 H62_2 1_555 1_555
H63_2 C50_2 1_555 1_555
H64_2 C50_2 1_555 1_555
C51_2 N20_2 1_555 1_555
C52_2 C51_2 1_555 1_555
C55_2 H68_2 1_555 1_555
H69_2 C55_2 1_555 1_555
H70_2 C55_2 1_555 1_555
C56_2 N25 1_555 1_555
C57_2 C52_2 1_555 1_555
Ni7_2 N18_2 1_555 1_555
C50_2 C51_2 1_555 1_555
C55_2 C56_2 1_555 1_555
C56_2 C57_2 1_555 1_555
N23_2 N27 1_555 1_555
H74_2 N23_2 1_555 1_555
C65_2 H82_2 1_555 1_555
H83_2 C65_2 1_555 1_555
H84_2 C65_2 1_555 1_555
C66_2 N27 1_555 1_555
C68_2 N23_2 1_555 1_555
C69_2 C68_2 1_555 1_555
H85_2 C69_2 1_555 1_555
H87_2 C69_2 1_555 1_555
C65_2 C66_2 1_555 1_555
C66_2 C67_2 1_555 1_555
C67_2 C68_2 1_555 1_555
N22_2 N24_2 1_555 1_555
N24_2 H75_2 1_555 1_555
C60_2 H76_2 1_555 1_555
H77_2 C60_2 1_555 1_555
H78_2 C60_2 1_555 1_555
C61_2 N24_2 1_555 1_555
C62_2 C61_2 1_555 1_555
C63_2 N22_2 1_555 1_555
C64_2 C63_2 1_555 1_555
H79_2 C64_2 1_555 1_555
H81_2 C64_2 1_555 1_555
Ni6_2 N22_2 1_555 1_555
C60_2 C61_2 1_555 1_555
C62_2 C63_2 1_555 1_555
H85_3 C69_3 1_555 1_555
N22_3 N24_3 1_555 1_555
N24_3 H75_3 1_555 1_555
C63_3 N22_3 1_555 1_555
C64_3 C63_3 1_555 1_555
H79_3 C64_3 1_555 1_555
H81_3 C64_3 1_555 1_555
Ni6_3 N22_3 1_555 1_555
C62_3 C63_3 1_555 1_555
N23_3 N26 1_555 1_555
H74_3 N23_3 1_555 1_555
C65_3 H82_3 1_555 1_555
H83_3 C65_3 1_555 1_555
H84_3 C65_3 1_555 1_555
C66_3 N26 1_555 1_555
C68_3 N23_3 1_555 1_555
C65_3 C66_3 1_555 1_555
C66_3 C67_3 1_555 1_555
C67_3 C68_3 1_555 1_555
C60_3 H76_3 1_555 1_555
H77_3 C60_3 1_555 1_555
H78_3 C60_3 1_555 1_555
C60_3 C61_3 1_555 1_555
Ni1_2 O1_2 1_555 1_555
O1_2 C1_2 1_555 1_555
N1_2 N3_2 1_555 1_555
N2_2 Ni1_2 1_555 1_555
N3_2 H1_2 1_555 1_555
N4_2 N2_2 1_555 1_555
H2_2 N4_2 1_555 1_555
C1_2 C2_2 1_555 1_555
C4_2 H4_2 1_555 1_555
H5_2 C4_2 1_555 1_555
H6_2 C4_2 1_555 1_555
C5_2 N4_2 1_555 1_555
C6_2 C5_2 1_555 1_555
C7_2 N2_2 1_555 1_555
C8_2 C7_2 1_555 1_555
H7_2 C8_2 1_555 1_555
H8_2 C8_2 1_555 1_555
H9_2 C8_2 1_555 1_555
C9_2 H10_2 1_555 1_555
H11_2 C9_2 1_555 1_555
H12_2 C9_2 1_555 1_555
C10_2 N1_2 1_555 1_555
C11_2 C6_2 1_555 1_555
C12_2 N3_2 1_555 1_555
C13_2 C12_2 1_555 1_555
H13_2 C13_2 1_555 1_555
H14_2 C13_2 1_555 1_555
H15_2 C13_2 1_555 1_555
C19_2 C2_2 1_555 1_555
H17_2 C19_2 1_555 1_555
N13_2 Ni1_2 1_555 1_555
N14_2 N16_2 1_555 1_555
N15_2 N13_2 1_555 1_555
N16_2 H47_2 1_555 1_555
C40_2 H48_2 1_555 1_555
H49_2 C40_2 1_555 1_555
H50_2 C40_2 1_555 1_555
C41_2 N16_2 1_555 1_555
C42_2 C41_2 1_555 1_555
C45_2 H54_2 1_555 1_555
H55_2 C45_2 1_555 1_555
H56_2 C45_2 1_555 1_555
C46_2 N13_2 1_555 1_555
C47_2 C42_2 1_555 1_555
N21_2 Ni1_2 1_555 1_555
N23_4 N21_2 1_555 1_555
H74_4 N23_4 1_555 1_555
C60_4 H76_4 1_555 1_555
H77_4 C60_4 1_555 1_555
H78_4 C60_4 1_555 1_555
C65_4 H82_4 1_555 1_555
H83_4 C65_4 1_555 1_555
H84_4 C65_4 1_555 1_555
C66_4 N21_2 1_555 1_555
C68_4 N23_4 1_555 1_555
O7_2 Ni1_2 1_555 1_555
O8_2 C70_2 1_555 1_555
C70_2 O7_2 1_555 1_555
C71_2 C70_2 1_555 1_555
C72_2 C71_2 1_555 1_555
H88_2 C72_2 1_555 1_555
O9_2 C73_2 1_555 1_555
O10_2 C73_2 1_555 1_555
C73_2 C74_2 1_555 1_555
C74_2 C72_2 1_555 1_555
C75_2 C74_2 1_555 1_555
H89_2 C75_2 1_555 1_555
O11_2 C76_2 1_555 1_555
O12_2 C76_2 1_555 1_555
C76_2 C77_2 1_555 1_555
C77_2 C75_2 1_555 1_555
C78_2 C71_2 1_555 1_555
H90_2 C78_2 1_555 1_555
Ni4_2 O11_2 1_555 1_555
Ni5_2 O9_2 1_555 1_555
Ni7 N14_2 1_555 1_555
Ni11 N1_2 1_555 1_555
N30_2 Ni1_2 1_555 1_555
C4_2 C5_2 1_555 1_555
C6_2 C7_2 1_555 1_555
C9_2 C10_2 1_555 1_555
C10_2 C11_2 1_555 1_555
C11_2 C12_2 1_555 1_555
C40_2 C41_2 1_555 1_555
C45_2 C46_2 1_555 1_555
C46_2 C47_2 1_555 1_555
C60_4 C61_4 1_555 1_555
C65_4 C66_4 1_555 1_555
C66_4 C67_4 1_555 1_555
C67_4 C68_4 1_555 1_555
C77_2 C78_2 1_555 1_555
C3_2 H3_2 1_555 1_555
N7_2 H18_2 1_555 1_555
C28_2 N7_2 1_555 1_555
C29_2 C28_2 1_555 1_555
H29_2 C29_2 1_555 1_555
H30_2 C29_2 1_555 1_555
H31_2 C29_2 1_555 1_555
C44_2 C43_2 1_555 1_555
H51_2 C44_2 1_555 1_555
H52_2 C44_2 1_555 1_555
H53_2 C44_2 1_555 1_555
C49_2 C48_2 1_555 1_555
H57_2 C49_2 1_555 1_555
H58_2 C49_2 1_555 1_555
H59_2 C49_2 1_555 1_555
N22_4 N24_4 1_555 1_555
N24_4 H75_4 1_555 1_555
C63_4 N22_4 1_555 1_555
C64_4 C63_4 1_555 1_555
H79_4 C64_4 1_555 1_555
H80_4 C64_4 1_555 1_555
H81_4 C64_4 1_555 1_555
H85_4 C69_4 1_555 1_555
H86_4 C69_4 1_555 1_555
Ni6_4 N22_4 1_555 1_555
C62_4 C63_4 1_555 1_555
O5_2 C17_2 1_555 1_555
C17_2 C18_2 1_555 1_555
Ni5_2 O5_2 1_555 1_555
N10_2 Ni5_2 1_555 1_555
N12_2 N10_2 1_555 1_555
H33_2 N12_2 1_555 1_555
H35_2 C30_2 1_555 1_555
H36_2 C30_2 1_555 1_555
C31_2 N12_2 1_555 1_555
C32_2 C31_2 1_555 1_555
C33_2 N10_2 1_555 1_555
C34_2 C33_2 1_555 1_555
H37_2 C34_2 1_555 1_555
H38_2 C34_2 1_555 1_555
H39_2 C34_2 1_555 1_555
C35_2 H40_2 1_555 1_555
H41_2 C35_2 1_555 1_555
H42_2 C35_2 1_555 1_555
C36_2 N9_2 1_555 1_555
C37_2 C32_2 1_555 1_555
Ni7 N9_2 1_555 1_555
N25_2 Ni5_2 1_555 1_555
N26_2 Ni5_2 1_555 1_555
N29_2 Ni5_2 1_555 1_555
C30_2 C31_2 1_555 1_555
C32_2 C33_2 1_555 1_555
C35_2 C36_2 1_555 1_555
C36_2 C37_2 1_555 1_555
O3_2 C14_2 1_555 1_555
O4_2 C14_2 1_555 1_555
C14_2 C15_2 1_555 1_555
C16_2 C15_2 1_555 1_555
H16_2 C16_2 1_555 1_555
Ni4_2 O3_2 1_555 1_555
N6_2 Ni4_2 1_555 1_555
N8_2 N6_2 1_555 1_555
H19_2 N8_2 1_555 1_555
H21_2 C20_2 1_555 1_555
H22_2 C20_2 1_555 1_555
C21_2 N8_2 1_555 1_555
C22_2 C21_2 1_555 1_555
C23_2 N6_2 1_555 1_555
C24_2 C23_2 1_555 1_555
H23_2 C24_2 1_555 1_555
H24_2 C24_2 1_555 1_555
H25_2 C24_2 1_555 1_555
C25_2 H26_2 1_555 1_555
H27_2 C25_2 1_555 1_555
H28_2 C25_2 1_555 1_555
C26_2 N5_2 1_555 1_555
C27_2 C22_2 1_555 1_555
N11_2 H32_2 1_555 1_555
C38_2 N11_2 1_555 1_555
C39_2 C38_2 1_555 1_555
H43_2 C39_2 1_555 1_555
H44_2 C39_2 1_555 1_555
H45_2 C39_2 1_555 1_555
N17_2 Ni4_2 1_555 1_555
N18_3 N20_3 1_555 1_555
N19_3 N17_2 1_555 1_555
H60_3 N19_3 1_555 1_555
N20_3 H61_3 1_555 1_555
C50_3 H62_3 1_555 1_555
H63_3 C50_3 1_555 1_555
H64_3 C50_3 1_555 1_555
C51_3 N20_3 1_555 1_555
C52_3 C51_3 1_555 1_555
C53_3 N18_3 1_555 1_555
C54_3 C53_3 1_555 1_555
H65_3 C54_3 1_555 1_555
H66_3 C54_3 1_555 1_555
H67_3 C54_3 1_555 1_555
C55_3 H68_3 1_555 1_555
H69_3 C55_3 1_555 1_555
H70_3 C55_3 1_555 1_555
C56_3 N17_2 1_555 1_555
C57_3 C52_3 1_555 1_555
C58_3 N19_3 1_555 1_555
C59_3 C58_3 1_555 1_555
H71_3 C59_3 1_555 1_555
H72_3 C59_3 1_555 1_555
H73_3 C59_3 1_555 1_555
Ni9_2 N5_2 1_555 1_555
Ni11 N18_3 1_555 1_555
N27_2 Ni4_2 1_555 1_555
N28_2 Ni4_2 1_555 1_555
C20_2 C21_2 1_555 1_555
C22_2 C23_2 1_555 1_555
C25_2 C26_2 1_555 1_555
C26_2 C27_2 1_555 1_555
C50_3 C51_3 1_555 1_555
C52_3 C53_3 1_555 1_555
C55_3 C56_3 1_555 1_555
C56_3 C57_3 1_555 1_555
C57_3 C58_3 1_555 1_555
C44_3 C43_3 1_555 1_555
H51_3 C44_3 1_555 1_555
H52_3 C44_3 1_555 1_555
H53_3 C44_3 1_555 1_555
C49_3 C48_3 1_555 1_555
H57_3 C49_3 1_555 1_555
H58_3 C49_3 1_555 1_555
H59_3 C49_3 1_555 1_555
N22_5 N24_5 1_555 1_555
N24_5 H75_5 1_555 1_555
C63_5 N22_5 1_555 1_555
C64_5 C63_5 1_555 1_555
H79_5 C64_5 1_555 1_555
H80_5 C64_5 1_555 1_555
H81_5 C64_5 1_555 1_555
H85_5 C69_5 1_555 1_555
H86_5 C69_5 1_555 1_555
Ni6_5 N22_5 1_555 1_555
C62_5 C63_5 1_555 1_555
N14_3 N16_3 1_555 1_555
N15_3 N25_2 1_555 1_555
N16_3 H47_3 1_555 1_555
C40_3 H48_3 1_555 1_555
H49_3 C40_3 1_555 1_555
H50_3 C40_3 1_555 1_555
C41_3 N16_3 1_555 1_555
C42_3 C41_3 1_555 1_555
C45_3 H54_3 1_555 1_555
H55_3 C45_3 1_555 1_555
H56_3 C45_3 1_555 1_555
C46_3 N25_2 1_555 1_555
C47_3 C42_3 1_555 1_555
N23_5 N26_2 1_555 1_555
H74_5 N23_5 1_555 1_555
C60_5 H76_5 1_555 1_555
H77_5 C60_5 1_555 1_555
H78_5 C60_5 1_555 1_555
C65_5 H82_5 1_555 1_555
H83_5 C65_5 1_555 1_555
H84_5 C65_5 1_555 1_555
C66_5 N26_2 1_555 1_555
C68_5 N23_5 1_555 1_555
Ni9_2 N14_3 1_555 1_555
C40_3 C41_3 1_555 1_555
C45_3 C46_3 1_555 1_555
C46_3 C47_3 1_555 1_555
C60_5 C61_5 1_555 1_555
C65_5 C66_5 1_555 1_555
C66_5 C67_5 1_555 1_555
C67_5 C68_5 1_555 1_555
N22_6 N24_6 1_555 1_555
N23_6 N27_2 1_555 1_555
H74_6 N23_6 1_555 1_555
N24_6 H75_6 1_555 1_555
C60_6 H76_6 1_555 1_555
H77_6 C60_6 1_555 1_555
H78_6 C60_6 1_555 1_555
C61_6 N24_6 1_555 1_555
C62_6 C61_6 1_555 1_555
C63_6 N22_6 1_555 1_555
C64_6 C63_6 1_555 1_555
H79_6 C64_6 1_555 1_555
H80_6 C64_6 1_555 1_555
H81_6 C64_6 1_555 1_555
C65_6 H82_6 1_555 1_555
H83_6 C65_6 1_555 1_555
H84_6 C65_6 1_555 1_555
C66_6 N27_2 1_555 1_555
C67_6 C62_6 1_555 1_555
C68_6 N23_6 1_555 1_555
C69_6 C68_6 1_555 1_555
H85_6 C69_6 1_555 1_555
H86_6 C69_6 1_555 1_555
H87_6 C69_6 1_555 1_555
Ni6_6 N22_6 1_555 1_555
C60_6 C61_6 1_555 1_555
C62_6 C63_6 1_555 1_555
C65_6 C66_6 1_555 1_555
C66_6 C67_6 1_555 1_555
C67_6 C68_6 1_555 1_555
N1_3 N3_3 1_555 1_555
N3_3 H1_3 1_555 1_555
C4_3 H4_3 1_555 1_555
H5_3 C4_3 1_555 1_555
H6_3 C4_3 1_555 1_555
C9_3 H10_3 1_555 1_555
H11_3 C9_3 1_555 1_555
H12_3 C9_3 1_555 1_555
C10_3 N1_3 1_555 1_555
C12_3 N3_3 1_555 1_555
Ni6_4 N1_3 1_555 1_555
C4_3 C5_3 1_555 1_555
C9_3 C10_3 1_555 1_555
C10_3 C11_3 1_555 1_555
C11_3 C12_3 1_555 1_555
N4_3 N28_2 1_555 1_555
H2_3 N4_3 1_555 1_555
C7_3 N28_2 1_555 1_555
C8_3 C7_3 1_555 1_555
H7_3 C8_3 1_555 1_555
H8_3 C8_3 1_555 1_555
H9_3 C8_3 1_555 1_555
H13_3 C13_3 1_555 1_555
H14_3 C13_3 1_555 1_555
N5_3 N7_3 1_555 1_555
N7_3 H18_3 1_555 1_555
N8_3 N30_2 1_555 1_555
H19_3 N8_3 1_555 1_555
C20_3 H20_3 1_555 1_555
H21_3 C20_3 1_555 1_555
H22_3 C20_3 1_555 1_555
C21_3 N8_3 1_555 1_555
C22_3 C21_3 1_555 1_555
C23_3 N30_2 1_555 1_555
C24_3 C23_3 1_555 1_555
H23_3 C24_3 1_555 1_555
H24_3 C24_3 1_555 1_555
H25_3 C24_3 1_555 1_555
C25_3 H26_3 1_555 1_555
H27_3 C25_3 1_555 1_555
H28_3 C25_3 1_555 1_555
C26_3 N5_3 1_555 1_555
C27_3 C22_3 1_555 1_555
C28_3 N7_3 1_555 1_555
C29_3 C28_3 1_555 1_555
H29_3 C29_3 1_555 1_555
H30_3 C29_3 1_555 1_555
H31_3 C29_3 1_555 1_555
N12_3 N29_2 1_555 1_555
H33_3 N12_3 1_555 1_555
C33_3 N29_2 1_555 1_555
C34_3 C33_3 1_555 1_555
H37_3 C34_3 1_555 1_555
H38_3 C34_3 1_555 1_555
H39_3 C34_3 1_555 1_555
H43_3 C39_3 1_555 1_555
H44_3 C39_3 1_555 1_555
Ni6_5 N5_3 1_555 1_555
C6_3 C7_3 1_555 1_555
C20_3 C21_3 1_555 1_555
C22_3 C23_3 1_555 1_555
C25_3 C26_3 1_555 1_555
C26_3 C27_3 1_555 1_555
C27_3 C28_3 1_555 1_555
C32_3 C33_3 1_555 1_555
N9_3 N11_3 1_555 1_555
N11_3 H32_3 1_555 1_555
C30_3 H34_3 1_555 1_555
H35_3 C30_3 1_555 1_555
H36_3 C30_3 1_555 1_555
C35_3 H40_3 1_555 1_555
H41_3 C35_3 1_555 1_555
H42_3 C35_3 1_555 1_555
C36_3 N9_3 1_555 1_555
C38_3 N11_3 1_555 1_555
Ni6_6 N9_3 1_555 1_555
C30_3 C31_3 1_555 1_555
C35_3 C36_3 1_555 1_555
C36_3 C37_3 1_555 1_555
C37_3 C38_3 1_555 1_555
N1_4 N3_4 1_555 1_555
N2_3 Ni1_3 1_555 1_555
N4_4 N2_3 1_555 1_555
H2_4 N4_4 1_555 1_555
C4_4 H4_4 1_555 1_555
H5_4 C4_4 1_555 1_555
H6_4 C4_4 1_555 1_555
C5_4 N4_4 1_555 1_555
C6_4 C5_4 1_555 1_555
C9_4 H10_4 1_555 1_555
H11_4 C9_4 1_555 1_555
H12_4 C9_4 1_555 1_555
C10_4 N1_4 1_555 1_555
C11_4 C6_4 1_555 1_555
N13_3 Ni1_3 1_555 1_555
N14_4 N16_4 1_555 1_555
N16_4 H47_4 1_555 1_555
H49_4 C40_4 1_555 1_555
H50_4 C40_4 1_555 1_555
C41_4 N16_4 1_555 1_555
C42_4 C41_4 1_555 1_555
C43_4 N14_4 1_555 1_555
C44_4 C43_4 1_555 1_555
H51_4 C44_4 1_555 1_555
H52_4 C44_4 1_555 1_555
H53_4 C44_4 1_555 1_555
C45_4 H54_4 1_555 1_555
H55_4 C45_4 1_555 1_555
H56_4 C45_4 1_555 1_555
C46_4 N13_3 1_555 1_555
C47_4 C42_4 1_555 1_555
H74_7 N23_7 1_555 1_555
C68_7 N23_7 1_555 1_555
C69_7 C68_7 1_555 1_555
H85_7 C69_7 1_555 1_555
H86_7 C69_7 1_555 1_555
H87_7 C69_7 1_555 1_555
O7_3 Ni1_3 1_555 1_555
O8_3 C70_3 1_555 1_555
C70_3 O7_3 1_555 1_555
C71_3 C70_3 1_555 1_555
C72_3 C71_3 1_555 1_555
H88_3 C72_3 1_555 1_555
O9_3 C73_3 1_555 1_555
O10_3 C73_3 1_555 1_555
C73_3 C74_3 1_555 1_555
C74_3 C72_3 1_555 1_555
C75_3 C74_3 1_555 1_555
H89_3 C75_3 1_555 1_555
O11_3 C76_3 1_555 1_555
O12_3 C76_3 1_555 1_555
C76_3 C77_3 1_555 1_555
C77_3 C75_3 1_555 1_555
C78_3 C71_3 1_555 1_555
H90_3 C78_3 1_555 1_555
Ni4_4 O11_3 1_555 1_555
Ni5_3 O9_3 1_555 1_555
Ni6_5 N14_4 1_555 1_555
Ni6_4 N1_4 1_555 1_555
C4_4 C5_4 1_555 1_555
C9_4 C10_4 1_555 1_555
C10_4 C11_4 1_555 1_555
C40_4 C41_4 1_555 1_555
C42_4 C43_4 1_555 1_555
C45_4 C46_4 1_555 1_555
C46_4 C47_4 1_555 1_555
C77_3 C78_3 1_555 1_555
Ni1_4 O1_3 1_555 1_555
O1_3 C1_3 1_555 1_555
O2_3 C1_3 1_555 1_555
C1_3 C2_3 1_555 1_555
C2_3 C3_3 1_555 1_555
C3_3 H3_3 1_555 1_555
C8_4 C7_4 1_555 1_555
H7_4 C8_4 1_555 1_555
H8_4 C8_4 1_555 1_555
H9_4 C8_4 1_555 1_555
C13_4 C12_4 1_555 1_555
H13_4 C13_4 1_555 1_555
H14_4 C13_4 1_555 1_555
H15_4 C13_4 1_555 1_555
O3_3 C14_3 1_555 1_555
O4_3 C14_3 1_555 1_555
C14_3 C15_3 1_555 1_555
C15_3 C3_3 1_555 1_555
C16_3 C15_3 1_555 1_555
H16_3 C16_3 1_555 1_555
O5_3 C17_3 1_555 1_555
O6_3 C17_3 1_555 1_555
C17_3 C18_3 1_555 1_555
C18_3 C16_3 1_555 1_555
C19_3 C2_3 1_555 1_555
H17_3 C19_3 1_555 1_555
Ni4_3 O3_3 1_555 1_555
C24_4 C23_4 1_555 1_555
H23_4 C24_4 1_555 1_555
H24_4 C24_4 1_555 1_555
H25_4 C24_4 1_555 1_555
C29_4 C28_4 1_555 1_555
H29_4 C29_4 1_555 1_555
H30_4 C29_4 1_555 1_555
H31_4 C29_4 1_555 1_555
Ni5_3 O5_3 1_555 1_555
N9_4 N11_4 1_555 1_555
N10_3 Ni5_3 1_555 1_555
N11_4 H32_4 1_555 1_555
N12_4 N10_3 1_555 1_555
H33_4 N12_4 1_555 1_555
C30_4 H34_4 1_555 1_555
H35_4 C30_4 1_555 1_555
H36_4 C30_4 1_555 1_555
C31_4 N12_4 1_555 1_555
C32_4 C31_4 1_555 1_555
C33_4 N10_3 1_555 1_555
C34_4 C33_4 1_555 1_555
H37_4 C34_4 1_555 1_555
H38_4 C34_4 1_555 1_555
H39_4 C34_4 1_555 1_555
C35_4 H40_4 1_555 1_555
H41_4 C35_4 1_555 1_555
H42_4 C35_4 1_555 1_555
C36_4 N9_4 1_555 1_555
C37_4 C32_4 1_555 1_555
C38_4 N11_4 1_555 1_555
C39_4 C38_4 1_555 1_555
H43_4 C39_4 1_555 1_555
H44_4 C39_4 1_555 1_555
H45_4 C39_4 1_555 1_555
H46_4 N15_4 1_555 1_555
C48_4 N15_4 1_555 1_555
C49_4 C48_4 1_555 1_555
H57_4 C49_4 1_555 1_555
H58_4 C49_4 1_555 1_555
H59_4 C49_4 1_555 1_555
H60_4 N19_4 1_555 1_555
C58_4 N19_4 1_555 1_555
C59_4 C58_4 1_555 1_555
H71_4 C59_4 1_555 1_555
H72_4 C59_4 1_555 1_555
H73_4 C59_4 1_555 1_555
N21_3 Ni1_4 1_555 1_555
N22_7 N24_7 1_555 1_555
N24_7 H75_7 1_555 1_555
H77_7 C60_7 1_555 1_555
H78_7 C60_7 1_555 1_555
C61_7 N24_7 1_555 1_555
C62_7 C61_7 1_555 1_555
C63_7 N22_7 1_555 1_555
C64_7 C63_7 1_555 1_555
H79_7 C64_7 1_555 1_555
H80_7 C64_7 1_555 1_555
H81_7 C64_7 1_555 1_555
C65_7 H82_7 1_555 1_555
H83_7 C65_7 1_555 1_555
H84_7 C65_7 1_555 1_555
C66_7 N21_3 1_555 1_555
C67_7 C62_7 1_555 1_555
Ni6 N22_7 1_555 1_555
Ni6_5 N9_4 1_555 1_555
N25_3 Ni5_3 1_555 1_555
N26_3 Ni5_3 1_555 1_555
N27_3 Ni4_3 1_555 1_555
N28_3 Ni4_3 1_555 1_555
N29_3 Ni5_3 1_555 1_555
N30_3 Ni1_4 1_555 1_555
C18_3 C19_3 1_555 1_555
C30_4 C31_4 1_555 1_555
C32_4 C33_4 1_555 1_555
C35_4 C36_4 1_555 1_555
C36_4 C37_4 1_555 1_555
C37_4 C38_4 1_555 1_555
C60_7 C61_7 1_555 1_555
C62_7 C63_7 1_555 1_555
C65_7 C66_7 1_555 1_555
C66_7 C67_7 1_555 1_555
N5_4 N7_4 1_555 1_555
N6_3 Ni4_4 1_555 1_555
N8_4 N6_3 1_555 1_555
H19_4 N8_4 1_555 1_555
C20_4 H20_4 1_555 1_555
H21_4 C20_4 1_555 1_555
H22_4 C20_4 1_555 1_555
C21_4 N8_4 1_555 1_555
C22_4 C21_4 1_555 1_555
C25_4 H26_4 1_555 1_555
H27_4 C25_4 1_555 1_555
H28_4 C25_4 1_555 1_555
C26_4 N5_4 1_555 1_555
C27_4 C22_4 1_555 1_555
N17_3 Ni4_4 1_555 1_555
N18_4 N20_4 1_555 1_555
N20_4 H61_4 1_555 1_555
H63_4 C50_4 1_555 1_555
H64_4 C50_4 1_555 1_555
C51_4 N20_4 1_555 1_555
C52_4 C51_4 1_555 1_555
C53_4 N18_4 1_555 1_555
C54_4 C53_4 1_555 1_555
H65_4 C54_4 1_555 1_555
H66_4 C54_4 1_555 1_555
H67_4 C54_4 1_555 1_555
C55_4 H68_4 1_555 1_555
H69_4 C55_4 1_555 1_555
H70_4 C55_4 1_555 1_555
C56_4 N17_3 1_555 1_555
C57_4 C52_4 1_555 1_555
Ni6_6 N5_4 1_555 1_555
Ni6_4 N18_4 1_555 1_555
C20_4 C21_4 1_555 1_555
C25_4 C26_4 1_555 1_555
C26_4 C27_4 1_555 1_555
C50_4 C51_4 1_555 1_555
C52_4 C53_4 1_555 1_555
C55_4 C56_4 1_555 1_555
C56_4 C57_4 1_555 1_555
N14_5 N16_5 1_555 1_555
N15_5 N25_3 1_555 1_555
H46_5 N15_5 1_555 1_555
N16_5 H47_5 1_555 1_555
C40_5 H48_5 1_555 1_555
H49_5 C40_5 1_555 1_555
H50_5 C40_5 1_555 1_555
C41_5 N16_5 1_555 1_555
C42_5 C41_5 1_555 1_555
C43_5 N14_5 1_555 1_555
C44_5 C43_5 1_555 1_555
H51_5 C44_5 1_555 1_555
H52_5 C44_5 1_555 1_555
H53_5 C44_5 1_555 1_555
C45_5 H54_5 1_555 1_555
H55_5 C45_5 1_555 1_555
H56_5 C45_5 1_555 1_555
C46_5 N25_3 1_555 1_555
C47_5 C42_5 1_555 1_555
C48_5 N15_5 1_555 1_555
C49_5 C48_5 1_555 1_555
H57_5 C49_5 1_555 1_555
H58_5 C49_5 1_555 1_555
H59_5 C49_5 1_555 1_555
N22_8 N24_8 1_555 1_555
N23_8 N26_3 1_555 1_555
H74_8 N23_8 1_555 1_555
N24_8 H75_8 1_555 1_555
C60_8 H76_8 1_555 1_555
H77_8 C60_8 1_555 1_555
H78_8 C60_8 1_555 1_555
C61_8 N24_8 1_555 1_555
C62_8 C61_8 1_555 1_555
C63_8 N22_8 1_555 1_555
C64_8 C63_8 1_555 1_555
H79_8 C64_8 1_555 1_555
H80_8 C64_8 1_555 1_555
H81_8 C64_8 1_555 1_555
C65_8 H82_8 1_555 1_555
H83_8 C65_8 1_555 1_555
H84_8 C65_8 1_555 1_555
C66_8 N26_3 1_555 1_555
C67_8 C62_8 1_555 1_555
C68_8 N23_8 1_555 1_555
C69_8 C68_8 1_555 1_555
H85_8 C69_8 1_555 1_555
H86_8 C69_8 1_555 1_555
H87_8 C69_8 1_555 1_555
Ni6_2 N22_8 1_555 1_555
Ni6_6 N14_5 1_555 1_555
C40_5 C41_5 1_555 1_555
C42_5 C43_5 1_555 1_555
C45_5 C46_5 1_555 1_555
C46_5 C47_5 1_555 1_555
C47_5 C48_5 1_555 1_555
C60_8 C61_8 1_555 1_555
C62_8 C63_8 1_555 1_555
C65_8 C66_8 1_555 1_555
C66_8 C67_8 1_555 1_555
C67_8 C68_8 1_555 1_555
N22_9 N24_9 1_555 1_555
N24_9 H75_9 1_555 1_555
H77_9 C60_9 1_555 1_555
H78_9 C60_9 1_555 1_555
C61_9 N24_9 1_555 1_555
C62_9 C61_9 1_555 1_555
C63_9 N22_9 1_555 1_555
C64_9 C63_9 1_555 1_555
H79_9 C64_9 1_555 1_555
H80_9 C64_9 1_555 1_555
H81_9 C64_9 1_555 1_555
C65_9 H82_9 1_555 1_555
H83_9 C65_9 1_555 1_555
H84_9 C65_9 1_555 1_555
C66_9 N27_3 1_555 1_555
C67_9 C62_9 1_555 1_555
Ni6_3 N22_9 1_555 1_555
C60_9 C61_9 1_555 1_555
C62_9 C63_9 1_555 1_555
C65_9 C66_9 1_555 1_555
C66_9 C67_9 1_555 1_555
H74_9 N23_9 1_555 1_555
C68_9 N23_9 1_555 1_555
C69_9 C68_9 1_555 1_555
H85_9 C69_9 1_555 1_555
H86_9 C69_9 1_555 1_555
H87_9 C69_9 1_555 1_555
N1_5 N3_5 1_555 1_555
N4_5 N28_3 1_555 1_555
H2_5 N4_5 1_555 1_555
C4_5 H4_5 1_555 1_555
H5_5 C4_5 1_555 1_555
H6_5 C4_5 1_555 1_555
C5_5 N4_5 1_555 1_555
C6_5 C5_5 1_555 1_555
C9_5 H10_5 1_555 1_555
H11_5 C9_5 1_555 1_555
H12_5 C9_5 1_555 1_555
C10_5 N1_5 1_555 1_555
C11_5 C6_5 1_555 1_555
Ni6 N1_5 1_555 1_555
C4_5 C5_5 1_555 1_555
C9_5 C10_5 1_555 1_555
C10_5 C11_5 1_555 1_555
C8_5 C7_5 1_555 1_555
H7_5 C8_5 1_555 1_555
H8_5 C8_5 1_555 1_555
H9_5 C8_5 1_555 1_555
C13_5 C12_5 1_555 1_555
H13_5 C13_5 1_555 1_555
H14_5 C13_5 1_555 1_555
H15_5 C13_5 1_555 1_555
C24_5 C23_5 1_555 1_555
H23_5 C24_5 1_555 1_555
H24_5 C24_5 1_555 1_555
H25_5 C24_5 1_555 1_555
C29_5 C28_5 1_555 1_555
H29_5 C29_5 1_555 1_555
H30_5 C29_5 1_555 1_555
H31_5 C29_5 1_555 1_555
N9_5 N11_5 1_555 1_555
N11_5 H32_5 1_555 1_555
N12_5 N29_3 1_555 1_555
H33_5 N12_5 1_555 1_555
C30_5 H34_5 1_555 1_555
H35_5 C30_5 1_555 1_555
H36_5 C30_5 1_555 1_555
C31_5 N12_5 1_555 1_555
C32_5 C31_5 1_555 1_555
C33_5 N29_3 1_555 1_555
C34_5 C33_5 1_555 1_555
H37_5 C34_5 1_555 1_555
H38_5 C34_5 1_555 1_555
H39_5 C34_5 1_555 1_555
C35_5 H40_5 1_555 1_555
H41_5 C35_5 1_555 1_555
H42_5 C35_5 1_555 1_555
C36_5 N9_5 1_555 1_555
C37_5 C32_5 1_555 1_555
C38_5 N11_5 1_555 1_555
C39_5 C38_5 1_555 1_555
H43_5 C39_5 1_555 1_555
H44_5 C39_5 1_555 1_555
H45_5 C39_5 1_555 1_555
Ni6_3 N9_5 1_555 1_555
C30_5 C31_5 1_555 1_555
C32_5 C33_5 1_555 1_555
C35_5 C36_5 1_555 1_555
C36_5 C37_5 1_555 1_555
C37_5 C38_5 1_555 1_555
N5_5 N7_5 1_555 1_555
N8_5 N30_3 1_555 1_555
H19_5 N8_5 1_555 1_555
C20_5 H20_5 1_555 1_555
H21_5 C20_5 1_555 1_555
H22_5 C20_5 1_555 1_555
C21_5 N8_5 1_555 1_555
C22_5 C21_5 1_555 1_555
C25_5 H26_5 1_555 1_555
H27_5 C25_5 1_555 1_555
H28_5 C25_5 1_555 1_555
C26_5 N5_5 1_555 1_555
C27_5 C22_5 1_555 1_555
Ni6_2 N5_5 1_555 1_555
C20_5 C21_5 1_555 1_555
C25_5 C26_5 1_555 1_555
C26_5 C27_5 1_555 1_555
C4_6 H4_6 1_555 1_555
H5_6 C4_6 1_555 1_555
H6_6 C4_6 1_555 1_555
C4_6 C5_6 1_555 1_555
N1_6 N3_6 1_555 1_555
N3_6 H1_6 1_555 1_555
C9_6 H10_6 1_555 1_555
H11_6 C9_6 1_555 1_555
H12_6 C9_6 1_555 1_555
C10_6 N1_6 1_555 1_555
C12_6 N3_6 1_555 1_555
Ni6 N1_6 1_555 1_555
C9_6 C10_6 1_555 1_555
C10_6 C11_6 1_555 1_555
C11_6 C12_6 1_555 1_555
N4_6 N28 1_555 1_555
H2_6 N4_6 1_555 1_555
C7_6 N28 1_555 1_555
C8_6 C7_6 1_555 1_555
H7_6 C8_6 1_555 1_555
H9_6 C8_6 1_555 1_555
N8_6 N30 1_555 1_555
H19_6 N8_6 1_555 1_555
C20_6 H20_6 1_555 1_555
H21_6 C20_6 1_555 1_555
H22_6 C20_6 1_555 1_555
C21_6 N8_6 1_555 1_555
C22_6 C21_6 1_555 1_555
C23_6 N30 1_555 1_555
C24_6 C23_6 1_555 1_555
H23_6 C24_6 1_555 1_555
H25_6 C24_6 1_555 1_555
N12_6 N29 1_555 1_555
H33_6 N12_6 1_555 1_555
C33_6 N29 1_555 1_555
C34_6 C33_6 1_555 1_555
H37_6 C34_6 1_555 1_555
H39_6 C34_6 1_555 1_555
C6_6 C7_6 1_555 1_555
C20_6 C21_6 1_555 1_555
C22_6 C23_6 1_555 1_555
C32_6 C33_6 1_555 1_555
H13_6 C13_6 1_555 1_555
N5_6 N7_6 1_555 1_555
N7_6 H18_6 1_555 1_555
C25_6 H26_6 1_555 1_555
H27_6 C25_6 1_555 1_555
H28_6 C25_6 1_555 1_555
C26_6 N5_6 1_555 1_555
C28_6 N7_6 1_555 1_555
C29_6 C28_6 1_555 1_555
H29_6 C29_6 1_555 1_555
H31_6 C29_6 1_555 1_555
H43_6 C39_6 1_555 1_555
Ni6_3 N5_6 1_555 1_555
C25_6 C26_6 1_555 1_555
C26_6 C27_6 1_555 1_555
C27_6 C28_6 1_555 1_555
C30_6 H34_6 1_555 1_555
H35_6 C30_6 1_555 1_555
H36_6 C30_6 1_555 1_555
C30_6 C31_6 1_555 1_555
N9_6 N11_6 1_555 1_555
N11_6 H32_6 1_555 1_555
C35_6 H40_6 1_555 1_555
H41_6 C35_6 1_555 1_555
H42_6 C35_6 1_555 1_555
C36_6 N9_6 1_555 1_555
C38_6 N11_6 1_555 1_555
Ni6_2 N9_6 1_555 1_555
C35_6 C36_6 1_555 1_555
C36_6 C37_6 1_555 1_555
C37_6 C38_6 1_555 1_555
O3_4 C14_4 1_555 1_555
O4_4 C14_4 1_555 1_555
C14_4 C15_4 1_555 1_555
C16_4 C15_4 1_555 1_555
H16_4 C16_4 1_555 1_555
Ni6_3 O3_4 1_555 1_555
O13 Ni6_3 1_555 1_555
C3_4 H3_4 1_555 1_555
O5_4 C17_4 1_555 1_555
C17_4 C18_4 1_555 1_555
Ni6 O5_4 1_555 1_555
O14 Ni6 1_555 1_555
Ni6_2 O1_4 1_555 1_555
O1_4 C1_4 1_555 1_555
C1_4 C2_4 1_555 1_555
C19_4 C2_4 1_555 1_555
H17_4 C19_4 1_555 1_555
O7_4 Ni6_2 1_555 1_555
O8_4 C70_4 1_555 1_555
C70_4 O7_4 1_555 1_555
C71_4 C70_4 1_555 1_555
C72_4 C71_4 1_555 1_555
H88_4 C72_4 1_555 1_555
O14 C73_4 1_555 1_555
O10_4 C73_4 1_555 1_555
C73_4 C74_4 1_555 1_555
C74_4 C72_4 1_555 1_555
C75_4 C74_4 1_555 1_555
H89_4 C75_4 1_555 1_555
O13 C76_4 1_555 1_555
O12_4 C76_4 1_555 1_555
C76_4 C77_4 1_555 1_555
C77_4 C75_4 1_555 1_555
C78_4 C71_4 1_555 1_555
H90_4 C78_4 1_555 1_555
C77_4 C78_4 1_555 1_555
O3_5 C14_5 1_555 1_555
O4_5 C14_5 1_555 1_555
C14_5 C15_5 1_555 1_555
C16_5 C15_5 1_555 1_555
H16_5 C16_5 1_555 1_555
Ni6_5 O3_5 1_555 1_555
O13_2 Ni6_5 1_555 1_555
O5_5 C17_5 1_555 1_555
C17_5 C18_5 1_555 1_555
Ni6_4 O5_5 1_555 1_555
O14_2 Ni6_4 1_555 1_555
C3_5 H3_5 1_555 1_555
Ni6_6 O1_5 1_555 1_555
O1_5 C1_5 1_555 1_555
C1_5 C2_5 1_555 1_555
C19_5 C2_5 1_555 1_555
H17_5 C19_5 1_555 1_555
O7_5 Ni6_6 1_555 1_555
O8_5 C70_5 1_555 1_555
C70_5 O7_5 1_555 1_555
C71_5 C70_5 1_555 1_555
C72_5 C71_5 1_555 1_555
H88_5 C72_5 1_555 1_555
O14_2 C73_5 1_555 1_555
O10_5 C73_5 1_555 1_555
C73_5 C74_5 1_555 1_555
C74_5 C72_5 1_555 1_555
C75_5 C74_5 1_555 1_555
H89_5 C75_5 1_555 1_555
O13_2 C76_5 1_555 1_555
O12_5 C76_5 1_555 1_555
C76_5 C77_5 1_555 1_555
C77_5 C75_5 1_555 1_555
C78_5 C71_5 1_555 1_555
H90_5 C78_5 1_555 1_555
C77_5 C78_5 1_555 1_555
O13_3 Ni7 1_555 1_555
Ni9 O1_6 1_555 1_555
O1_6 C1_6 1_555 1_555
O2_6 C1_6 1_555 1_555
C1_6 C2_6 1_555 1_555
C2_6 C3_6 1_555 1_555
C3_6 H3_6 1_555 1_555
O3_6 C14_6 1_555 1_555
O4_6 C14_6 1_555 1_555
C14_6 C15_6 1_555 1_555
C15_6 C3_6 1_555 1_555
C16_6 C15_6 1_555 1_555
H16_6 C16_6 1_555 1_555
O5_6 C17_6 1_555 1_555
O6_6 C17_6 1_555 1_555
C17_6 C18_6 1_555 1_555
C18_6 C16_6 1_555 1_555
C19_6 C2_6 1_555 1_555
H17_6 C19_6 1_555 1_555
Ni7_2 O3_6 1_555 1_555
Ni11 O5_6 1_555 1_555
O14_3 Ni11 1_555 1_555
C18_6 C19_6 1_555 1_555
O7_6 Ni9_2 1_555 1_555
O8_6 C70_6 1_555 1_555
C70_6 O7_6 1_555 1_555
C71_6 C70_6 1_555 1_555
C72_6 C71_6 1_555 1_555
H88_6 C72_6 1_555 1_555
O14_3 C73_6 1_555 1_555
O10_6 C73_6 1_555 1_555
C73_6 C74_6 1_555 1_555
C74_6 C72_6 1_555 1_555
C75_6 C74_6 1_555 1_555
H89_6 C75_6 1_555 1_555
O13_3 C76_6 1_555 1_555
O12_6 C76_6 1_555 1_555
C76_6 C77_6 1_555 1_555
C77_6 C75_6 1_555 1_555
C78_6 C71_6 1_555 1_555
H90_6 C78_6 1_555 1_555
C77_6 C78_6 1_555 1_555

#END
