
###############################################################################
#
# This file contains modified crystal structure data generated from the
# MOF subset of the Cambridge Structural Database (CSD) v543 
# hosted by the Cambridge Crystallographic Data Centre (CCDC).
#
# This work is licensed under the Creative Commons
# Attribution-NonCommercial-ShareAlike 4.0 International License.
# To view a copy of this license, visit
# http://creativecommons.org/licenses/by-nc-sa/4.0/
# or send a letter to
# Creative Commons, PO Box 1866, Mountain View, CA 94042, USA.
#
# CIF created using the CSD Python API on 29 September 2022
# The structure has been converted into the P1 space group
# The structure has a 3D framework
# The original CSD entry LUKHIK is in the rhombohedral crystal system
# The framework has been calculated to contain at least 10.0% void space
# The void calculation uses a probe of radius 1.32A, grid spacing 0.4
#
###############################################################################

data_LUKHIK
_chemical_formula_moiety         '(C468 H548 Mn20 N144 O72)n'
_symmetry_cell_setting           triclinic
_symmetry_space_group_name_H-M   'P 1'
_symmetry_Int_Tables_number      1
_space_group_name_Hall           'P 1'
loop_
_symmetry_equiv_pos_site_id
_symmetry_equiv_pos_as_xyz
1 x,y,z
_cell_length_a                   19.9356(6)
_cell_length_b                   19.9356(6)
_cell_length_c                   50.3772(13)
_cell_angle_alpha                90
_cell_angle_beta                 90
_cell_angle_gamma                120
_cell_volume                     17339
loop_
_atom_site_label
_atom_site_type_symbol
_atom_site_fract_x
_atom_site_fract_y
_atom_site_fract_z
C59 C 0.3150(4) 0.0116(4) 0.14598(8)
H51 H 0.2732 0.0144 0.1110
C67 C 0.3324(5) 0.0885(6) 0.15681(9)
H71 H 0.3333 0.0871 0.1759
H72 H 0.2932 0.0999 0.1512
H73 H 0.3820 0.1280 0.1504
C71 C 0.42502(28) 0.0015(2) 0.19535(7)
H74 H 0.4613 0.0487 0.0163
C75 C 0.4944(3) 0.0679(2) 0.18283(7)
Mn10 Mn 0.51951(3) 0.0000 0.2500
H77 H 0.4837 0.0719 0.1645
H78 H 0.5377 0.0594 0.1841
H79 H 0.5066 0.1150 0.1919
H88 H 0.4052 0.1504 0.0022
C70 C 0.2854(2) 0.0187(3) 0.98250(7)
H75 H 0.4204 -0.0000 0.9908
C74 C 0.3348(2) 0.09169(28) 0.97132(7)
N29 N 0.25730(17) 0.02054(24) 0.94048(6)
C78 C 0.4012(2) 0.1611(3) 0.98384(7)
N30 N 0.31685(17) 0.09326(24) 0.94566(6)
H87 H 0.2351 0.0058 0.9253
H89 H 0.4483 0.1733 0.9748
H90 H 0.3927 0.2044 0.9826
Mn11 Mn 0.3333 0.18614(3) 0.9167
Mn1 Mn 0.14716(3) 0.3333 0.0833
O1 O 0.08743(13) 0.21040(13) 0.09237(5)
N1 N 0.22359(17) 0.31685(17) 0.05434(6)
N2 N 0.06273(28) 0.31081(16) 0.05044(6)
C1 C 0.0187(2) 0.1544(2) 0.09317(7)
N3 N 0.23676(17) 0.25730(17) 0.05952(6)
C2 C 0.24311(19) 0.3348(2) 0.02868(7)
N4 N 0.04963(30) 0.37025(17) 0.04497(6)
C3 C 0.0372(4) 0.2647(2) 0.02881(7)
C4 C 0.00875(19) 0.07460(19) 0.09223(7)
H1 H 0.2293 0.2351 0.0747
C5 C 0.2629(2) 0.2375(2) 0.03796(7)
C6 C 0.2401(2) 0.4012(2) 0.01616(7)
C7 C 0.2667(2) 0.2854(2) 0.01750(7)
H2 H 0.0601 0.4078 0.0557
C8 C 0.0183(4) 0.3632(2) 0.02069(8)
C9 C 0.0085(3) 0.2955(2) 0.00965(7)
C10 C 0.0409(4) 0.1918(2) 0.02710(8)
C11 C 0.0737(2) 0.0650(2) 0.09222(7)
C12 C 0.2853(2) 0.1761(2) 0.03913(8)
H3 H 0.1883 0.3927 0.0174
H5 H 0.2750 0.4483 0.0252
C13 C 0.0009(5) 0.4227(3) 0.00986(9)
H6 H 0.0916 0.2022 0.0322
H7 H 0.0304 0.1727 0.0092
H8 H 0.0030 0.1537 0.0388
H9 H 0.1230 0.1085 0.0922
H10 H 0.3401 0.1999 0.0418
H11 H 0.2714 0.1477 0.0228
H12 H 0.2585 0.1415 0.0536
H15 H 0.0401 0.4733 0.0155
O3 O 0.21036(18) 0.45627(13) 0.07430(5)
N5 N 0.08525(32) 0.35586(16) 0.11623(6)
N6 N 0.24007(24) 0.34982(17) 0.11233(6)
C14 C 0.1976(3) 0.5123(2) 0.07350(7)
N7 N 0.01271(34) 0.29642(17) 0.12170(6)
C15 C 0.1058(4) 0.4020(2) 0.13786(7)
O4 O 0.13152(18) 0.50570(13) 0.07174(5)
C16 C 0.26748(27) 0.59207(19) 0.07444(7)
C18 C 0.1824(4) 0.4749(2) 0.13957(8)
C19 C 0.0463(4) 0.3712(2) 0.15702(7)
C23 C 0.3420(3) 0.6017(2) 0.07445(7)
C24 C 0.2596(2) 0.6580(3) 0.07445(7)
H17 H 0.1910 0.4940 0.1575
H18 H 0.1826 0.5130 0.1279
H19 H 0.2227 0.4645 0.1345
C26 C 0.0479(2) 0.4000(2) 0.18417(7)
H21 H 0.3478 0.5582 0.0745
C33 C 0.40793(19) 0.67542(19) 0.07444(7)
C34 C 0.32458(19) 0.73252(27) 0.07444(7)
H22 H 0.2103 0.6522 0.0745
C36 C 0.0958(2) 0.4038(2) 0.20463(7)
C44 C 0.4877(2) 0.6854(2) 0.07350(7)
C45 C 0.3983(2) 0.7404(2) 0.07445(7)
C46 C 0.3146(2) 0.8024(3) 0.07350(7)
N12 N 0.01648(17) 0.44308(17) 0.22101(6)
N13 N 0.07603(17) 0.42991(17) 0.22619(6)
C48 C 0.1572(2) 0.3814(2) 0.20580(8)
O6 O 0.20181(18) 0.04084(13) 0.09493(5)
H29 H 0.4204 0.4204 0.0092
O9 O 0.54373(13) 0.75410(13) 0.07430(5)
O10 O 0.49430(13) 0.62583(13) 0.07174(5)
H41 H 0.4418 0.7897 0.0745
O11 O 0.24590(13) 0.78964(18) 0.07430(5)
O12 O 0.37417(13) 0.86848(18) 0.07174(5)
Mn4 Mn -0.0000 0.51947(3) 0.2500
H45 H 0.0982 0.4374 0.2414
H46 H 0.1856 0.3953 0.1895
H47 H 0.1918 0.4082 0.2203
H48 H 0.1334 0.3266 0.2085
Mn5 Mn 0.48053(3) 0.48049(3) 0.2500
Mn8 Mn 0.6667 0.81386(3) 0.0833
Mn9 Mn 0.18614(3) 0.85284(3) 0.0833
N14 N 0.55692(17) 0.57341(24) 0.22101(6)
N15 N 0.64414(16) 0.72940(28) 0.11623(6)
N16 N 0.65018(17) 0.89026(17) 0.11233(6)
O13 O 0.78960(13) 0.87703(18) 0.09237(5)
N17 N 0.68919(16) 0.75192(32) 0.05044(6)
N18 N 0.68315(17) 0.90674(24) 0.05434(6)
N19 N 0.27060(28) 0.91475(32) 0.11623(6)
N20 N 0.10974(17) 0.75993(24) 0.11233(6)
N21 N 0.09326(24) 0.77641(17) 0.05434(6)
O14 O 0.12297(18) 0.91257(13) 0.09237(5)
N22 N 0.24808(32) 0.93727(28) 0.05044(6)
C49 C 0.57644(19) 0.57498(28) 0.19535(7)
N23 N 0.57009(17) 0.64613(24) 0.22619(6)
N24 N 0.70358(17) 0.71630(30) 0.12170(6)
C50 C 0.5980(2) 0.7039(4) 0.13786(7)
N25 N 0.28370(30) 0.98729(34) 0.12170(6)
C51 C 0.2961(4) 0.8942(4) 0.13786(7)
N26 N 0.32062(34) 0.95037(30) 0.04497(6)
C52 C 0.2275(4) 0.9628(4) 0.02881(7)
C53 C 0.5734(2) 0.5056(3) 0.18283(7)
C54 C 0.6000(2) 0.6480(3) 0.18417(7)
C55 C 0.5962(2) 0.6921(3) 0.20463(7)
H49 H 0.5626 0.6609 0.2414
C56 C 0.6965(2) 0.6850(4) 0.14598(8)
H50 H 0.7411 0.7268 0.1110
C57 C 0.6288(2) 0.6752(3) 0.15702(7)
C58 C 0.5251(2) 0.7076(4) 0.13957(8)
C60 C 0.3248(3) 0.9537(4) 0.15702(7)
C61 C 0.2924(4) 0.8176(4) 0.13957(8)
C62 C 0.3449(4) 0.9817(4) 0.02069(8)
H52 H 0.3477 0.9399 0.0557
C63 C 0.2870(4) 0.9915(3) 0.00965(7)
C64 C 0.1509(4) 0.9591(4) 0.02710(8)
H53 H 0.6083 0.4934 0.1919
H54 H 0.5216 0.4623 0.1841
H55 H 0.5881 0.5163 0.1645
C65 C 0.6186(2) 0.7759(3) 0.20580(8)
C66 C 0.7560(3) 0.6676(5) 0.15681(9)
H56 H 0.5060 0.6971 0.1575
H57 H 0.5355 0.7583 0.1345
H58 H 0.4870 0.6697 0.1279
C68 C 0.3520(3) 0.9521(2) 0.18417(7)
H59 H 0.2417 0.7773 0.1345
H60 H 0.3029 0.8090 0.1575
H61 H 0.3303 0.8174 0.1279
C69 C 0.4218(6) 0.9991(5) 0.00986(9)
H62 H 0.1507 0.9970 0.0388
H63 H 0.1106 0.9084 0.0322
H64 H 0.1423 0.9696 0.0092
H65 H 0.6047 0.7904 0.1895
H66 H 0.5918 0.7837 0.2203
H67 H 0.6734 0.8069 0.2085
H68 H 0.7537 0.6667 0.1759
H69 H 0.8066 0.7068 0.1512
H70 H 0.7459 0.6180 0.1504
C72 C 0.3079(3) 0.9042(2) 0.20463(7)
H76 H 0.4332 0.9599 0.0155
N27 N 0.42659(24) 0.98352(17) 0.22101(6)
C76 C 0.2241(3) 0.8428(2) 0.20580(8)
N28 N 0.35387(24) 0.92397(17) 0.22619(6)
Mn10_2 Mn 0.51951(3) 1.0000 0.2500
H80 H 0.1931 0.8666 0.2085
H81 H 0.2096 0.8144 0.1895
H82 H 0.2163 0.8082 0.2203
H83 H 0.3391 0.9018 0.2414
H4 H 0.2548 0.4052 0.9978
H14 H -0.0000 0.4204 0.9908
C21 C 0.2955(2) 0.2870(4) 0.99035(7)
C29 C 0.3632(2) 0.3449(4) 0.97931(8)
C30 C 0.2647(2) 0.2275(4) 0.97119(7)
C32 C 0.0254(3) 0.2629(2) 0.96204(7)
N8 N 0.37025(17) 0.32062(34) 0.95503(6)
C40 C 0.4227(3) 0.4218(6) 0.99014(9)
N9 N 0.31081(16) 0.24808(32) 0.94956(6)
C41 C 0.1918(2) 0.1509(4) 0.97290(8)
C43 C 0.1092(3) 0.2853(2) 0.96087(8)
H27 H 0.4078 0.3477 0.9443
H28 H 0.4126 0.4613 0.9837
H30 H 0.4733 0.4332 0.9845
H31 H 0.2022 0.1106 0.9678
H32 H 0.1727 0.1423 0.9908
H33 H 0.1537 0.1507 0.9612
H38 H 0.1402 0.3401 0.9582
H39 H 0.1237 0.2714 0.9772
H40 H 0.1170 0.2585 0.9464
H75_2 H 0.4204 1.0000 0.9908
C73 C 0.2375(2) 0.9746(3) 0.96204(7)
C77 C 0.1761(2) 0.8908(3) 0.96087(8)
H84 H 0.1999 0.8598 0.9582
H85 H 0.1477 0.8763 0.9772
H86 H 0.1415 0.8830 0.9464
C27 C 0.06585(27) 0.99125(19) 0.09223(7)
C37 C 0.1357(3) 0.9813(2) 0.09317(7)
O2 O 0.95916(13) 0.16097(13) 0.09493(5)
H13 H 0.9513 0.4126 0.0163
H16 H 0.9856 0.2589 0.1110
C17 C 0.9884(4) 0.3035(2) 0.14598(8)
C20 C 0.9350(2) 0.0087(3) 0.09222(7)
C25 C 0.9115(6) 0.2440(3) 0.15681(9)
H20 H 0.8915 0.0145 0.0922
H23 H 0.9001 0.1934 0.1512
H24 H 0.8720 0.2541 0.1504
H25 H 0.9129 0.2463 0.1759
C35 C 0.9985(2) 0.42356(19) 0.19535(7)
C47 C 0.9321(2) 0.4266(2) 0.18283(7)
H35 H 0.8496 0.2548 0.0022
H42 H 0.9281 0.4119 0.1645
H43 H 0.9406 0.4784 0.1841
H44 H 0.8850 0.3917 0.1919
Mn4_2 Mn 1.0000 0.51947(3) 0.2500
H14_2 H 1.0000 0.4204 0.9908
C22 C 0.9813(3) 0.2667(2) 0.98250(7)
C31 C 0.90831(28) 0.24311(19) 0.97132(7)
N10 N 0.90674(24) 0.22359(17) 0.94566(6)
C42 C 0.8389(3) 0.2401(2) 0.98384(7)
N11 N 0.97946(24) 0.23676(17) 0.94048(6)
Mn3 Mn 0.81386(3) 0.14716(3) 0.9167
H34 H 0.7956 0.1883 0.9826
H36 H 0.8267 0.2750 0.9748
H37 H 0.9942 0.2293 0.9253
C28 C 0.92540(19) 0.93415(27) 0.09223(7)
C38 C 0.9913(3) 0.9263(2) 0.09222(7)
C39 C 0.8456(2) 0.8643(3) 0.09317(7)
H26 H 0.9855 0.8770 0.0922
O8 O 0.83903(13) 0.79819(18) 0.09493(5)
C5_2 C 0.7625(2) 0.0254(3) 0.03796(7)
C12_2 C 0.8239(2) 0.1092(3) 0.03913(8)
H10_2 H 0.8001 0.1402 0.0418
H11_2 H 0.8523 0.1237 0.0228
H12_2 H 0.8585 0.1170 0.0536
H29_2 H 0.5796 0.0000 0.0092
C21_2 C 0.7130(4) 0.0085(4) 0.99035(7)
C29_2 C 0.6551(4) 0.0183(4) 0.97931(8)
C30_2 C 0.7725(4) 0.0372(4) 0.97119(7)
N8_2 N 0.67938(34) 0.04963(38) 0.95503(6)
C40_2 C 0.5782(6) 0.0009(7) 0.99014(9)
N9_2 N 0.75192(32) 0.06273(36) 0.94956(6)
C41_2 C 0.8491(4) 0.0409(4) 0.97290(8)
H27_2 H 0.6523 0.0601 0.9443
H30_2 H 0.5668 0.0401 0.9845
H31_2 H 0.8894 0.0916 0.9678
H32_2 H 0.8577 0.0304 0.9908
H33_2 H 0.8493 0.0030 0.9612
N3_2 N 0.74270(17) 0.97946(24) 0.05952(6)
C2_2 C 0.6652(2) 0.90831(28) 0.02868(7)
N4_2 N 0.62975(17) 0.67938(34) 0.04497(6)
C3_2 C 0.7353(2) 0.7725(4) 0.02881(7)
H1_2 H 0.7649 0.9942 0.0747
C6_2 C 0.5988(2) 0.8389(3) 0.01616(7)
C7_2 C 0.7146(2) 0.9813(3) 0.01750(7)
H2_2 H 0.5922 0.6523 0.0557
C8_2 C 0.6368(2) 0.6551(4) 0.02069(8)
C9_2 C 0.7045(2) 0.7130(4) 0.00965(7)
C10_2 C 0.8082(2) 0.8491(4) 0.02710(8)
H3_2 H 0.6073 0.7956 0.0174
H5_2 H 0.5517 0.8267 0.0252
C13_2 C 0.5773(3) 0.5782(6) 0.00986(9)
H6_2 H 0.7978 0.8894 0.0322
H7_2 H 0.8273 0.8577 0.0092
H8_2 H 0.8463 0.8493 0.0388
H13_2 H 0.5874 0.5387 0.0163
H15_2 H 0.5267 0.5668 0.0155
H29_3 H 0.5796 1.0000 0.0092
H35_2 H 0.7452 0.5948 0.0022
H4_2 H 0.5948 0.8496 0.9978
H14_3 H 0.5796 0.5796 0.9908
C22_2 C 0.7333(2) 0.7146(4) 0.98250(7)
C31_2 C 0.75689(19) 0.66520(34) 0.97132(7)
C32_2 C 0.7371(2) 0.7625(4) 0.96204(7)
N10_2 N 0.77641(17) 0.68315(29) 0.94566(6)
C42_2 C 0.7599(2) 0.5988(4) 0.98384(7)
N11_2 N 0.76324(17) 0.74270(29) 0.94048(6)
C43_2 C 0.7147(2) 0.8239(4) 0.96087(8)
H28_2 H 0.5387 0.9513 0.9837
Mn3_2 Mn 0.85284(3) 0.66670(4) 0.9167
H34_2 H 0.8117 0.6073 0.9826
H36_2 H 0.7250 0.5517 0.9748
H37_2 H 0.7707 0.7649 0.9253
H38_2 H 0.6599 0.8001 0.9582
H39_2 H 0.7286 0.8523 0.9772
H40_2 H 0.7415 0.8585 0.9464
N3_3 N 0.02054(24) 0.76324(17) 0.05952(6)
C2_3 C 0.09169(28) 0.75689(19) 0.02868(7)
H1_3 H 0.0058 0.7707 0.0747
C6_3 C 0.1611(3) 0.7599(2) 0.01616(7)
C7_3 C 0.0187(3) 0.7333(2) 0.01750(7)
H3_3 H 0.2044 0.8117 0.0174
H5_3 H 0.1733 0.7250 0.0252
H29_4 H -0.0000 0.5796 0.0092
H4_3 H 0.1504 0.7452 0.9978
H28_3 H 0.0487 0.5874 0.9837
C5_3 C 0.9746(3) 0.7371(2) 0.03796(7)
C12_3 C 0.8908(3) 0.7147(2) 0.03913(8)
H10_3 H 0.8598 0.6599 0.0418
H11_3 H 0.8763 0.7286 0.0228
H12_3 H 0.8830 0.7415 0.0536
H29_5 H 1.0000 0.5796 0.0092
C21_3 C 0.9915(4) 0.7045(2) 0.99035(7)
C29_3 C 0.9817(4) 0.6368(2) 0.97931(8)
C30_3 C 0.9628(4) 0.7353(2) 0.97119(7)
N8_3 N 0.95037(38) 0.62975(17) 0.95503(6)
C40_3 C 0.9991(7) 0.5773(3) 0.99014(9)
N9_3 N 0.93727(36) 0.68919(16) 0.94956(6)
C41_3 C 0.9591(4) 0.8082(2) 0.97290(8)
H27_3 H 0.9399 0.5922 0.9443
H30_3 H 0.9599 0.5267 0.9845
H31_3 H 0.9084 0.7978 0.9678
H32_3 H 0.9696 0.8273 0.9908
H33_3 H 0.9970 0.8463 0.9612
C59_2 C 0.0116(4) 0.3150(4) 0.35402(8)
H51_2 H 0.0144 0.2732 0.3890
C67_2 C 0.0885(6) 0.3324(5) 0.34319(9)
C70_2 C 0.0187(3) 0.2854(2) 0.51750(7)
H71_2 H 0.0871 0.3333 0.3241
H72_2 H 0.0999 0.2932 0.3488
H73_2 H 0.1280 0.3820 0.3496
C71_2 C 0.0015(2) 0.42502(28) 0.30465(7)
H74_2 H 0.0487 0.4613 0.4837
H75_3 H -0.0000 0.4204 0.5092
C74_2 C 0.09169(28) 0.3348(2) 0.52868(7)
C75_2 C 0.0679(2) 0.4944(3) 0.31717(7)
N29_2 N 0.02054(24) 0.25730(17) 0.55952(6)
C78_2 C 0.1611(3) 0.4012(2) 0.51616(7)
N30_2 N 0.09326(24) 0.31685(17) 0.55434(6)
H77_2 H 0.0719 0.4837 0.3355
H78_2 H 0.0594 0.5377 0.3159
H79_2 H 0.1150 0.5066 0.3081
H87_2 H 0.0058 0.2351 0.5747
H88_2 H 0.1504 0.4052 0.4978
H89_2 H 0.1733 0.4483 0.5252
H90_2 H 0.2044 0.3927 0.5174
Mn11_2 Mn 0.18614(3) 0.3333 0.5833
Mn1_2 Mn 0.3333 0.14716(3) 0.4167
O1_2 O 0.21040(13) 0.08743(13) 0.40763(5)
N1_2 N 0.31685(17) 0.22359(17) 0.44566(6)
N2_2 N 0.31081(16) 0.06273(28) 0.44956(6)
C1_2 C 0.1544(2) 0.0187(2) 0.40683(7)
N3_4 N 0.25730(17) 0.23676(17) 0.44048(6)
C2_4 C 0.3348(2) 0.24311(19) 0.47132(7)
N4_3 N 0.37025(17) 0.04963(30) 0.45503(6)
C3_3 C 0.2647(2) 0.0372(4) 0.47119(7)
C4_2 C 0.07460(19) 0.00875(19) 0.40777(7)
H1_4 H 0.2351 0.2293 0.4253
C5_4 C 0.2375(2) 0.2629(2) 0.46204(7)
C6_4 C 0.4012(2) 0.2401(2) 0.48384(7)
C7_4 C 0.2854(2) 0.2667(2) 0.48250(7)
H2_3 H 0.4078 0.0601 0.4443
C8_3 C 0.3632(2) 0.0183(4) 0.47931(8)
C9_3 C 0.2955(2) 0.0085(3) 0.49035(7)
C10_3 C 0.1918(2) 0.0409(4) 0.47290(8)
C11_2 C 0.0650(2) 0.0737(2) 0.40778(7)
C12_4 C 0.1761(2) 0.2853(2) 0.46087(8)
H3_4 H 0.3927 0.1883 0.4826
H4_4 H 0.4052 0.2548 0.5022
H5_4 H 0.4483 0.2750 0.4748
C13_3 C 0.4227(3) 0.0009(5) 0.49014(9)
H6_3 H 0.2022 0.0916 0.4678
H7_3 H 0.1727 0.0304 0.4908
H8_3 H 0.1537 0.0030 0.4612
H9_2 H 0.1085 0.1230 0.4078
H10_4 H 0.1999 0.3401 0.4582
H11_4 H 0.1477 0.2714 0.4772
H12_4 H 0.1415 0.2585 0.4464
H14_4 H 0.4204 0.0000 0.5092
H15_3 H 0.4733 0.0401 0.4845
O3_2 O 0.45627(13) 0.21036(18) 0.42570(5)
N5_2 N 0.35586(16) 0.08525(32) 0.38377(6)
N6_2 N 0.34982(17) 0.24007(24) 0.38767(6)
C14_2 C 0.5123(2) 0.1976(3) 0.42650(7)
N7_2 N 0.29642(17) 0.01271(34) 0.37830(6)
C15_2 C 0.4020(2) 0.1058(4) 0.36214(7)
O4_2 O 0.50570(13) 0.13152(18) 0.42826(5)
C16_2 C 0.59207(19) 0.26748(27) 0.42556(7)
C18_2 C 0.4749(2) 0.1824(4) 0.36043(8)
C19_2 C 0.3712(2) 0.0463(4) 0.34298(7)
C21_4 C 0.2870(4) 0.2955(2) 0.50965(7)
C23_2 C 0.6017(2) 0.3420(3) 0.42555(7)
C24_2 C 0.6580(3) 0.2596(2) 0.42555(7)
H17_2 H 0.4940 0.1910 0.3425
H18_2 H 0.5130 0.1826 0.3721
H19_2 H 0.4645 0.2227 0.3655
C26_2 C 0.4000(2) 0.0479(2) 0.31583(7)
C29_4 C 0.3449(4) 0.3632(2) 0.52069(8)
C30_4 C 0.2275(4) 0.2647(2) 0.52881(7)
C32_3 C 0.2629(2) 0.0254(3) 0.53796(7)
H21_2 H 0.5582 0.3478 0.4255
C33_2 C 0.67542(19) 0.40793(19) 0.42556(7)
C34_2 C 0.73252(27) 0.32458(19) 0.42556(7)
H22_2 H 0.6522 0.2103 0.4255
C36_2 C 0.4038(2) 0.0958(2) 0.29537(7)
N8_4 N 0.32062(34) 0.37025(17) 0.54497(6)
C40_4 C 0.4218(6) 0.4227(3) 0.50986(9)
N9_4 N 0.24808(32) 0.31081(16) 0.55044(6)
C41_4 C 0.1509(4) 0.1918(2) 0.52710(8)
C43_3 C 0.2853(2) 0.1092(3) 0.53913(8)
C44_2 C 0.6854(2) 0.4877(2) 0.42650(7)
C45_2 C 0.7404(2) 0.3983(2) 0.42555(7)
C46_2 C 0.8024(3) 0.3146(2) 0.42650(7)
N12_2 N 0.44308(17) 0.01648(17) 0.27899(6)
N13_2 N 0.42991(17) 0.07603(17) 0.27381(6)
C48_2 C 0.3814(2) 0.1572(2) 0.29420(8)
O6_2 O 0.04084(13) 0.20181(18) 0.40507(5)
H27_4 H 0.3477 0.4078 0.5557
H28_4 H 0.4613 0.4126 0.5163
H29_6 H 0.4204 0.4204 0.4908
H30_4 H 0.4332 0.4733 0.5155
H31_4 H 0.1106 0.2022 0.5322
H32_4 H 0.1423 0.1727 0.5092
H33_4 H 0.1507 0.1537 0.5388
H38_3 H 0.3401 0.1402 0.5418
H39_3 H 0.2714 0.1237 0.5228
H40_3 H 0.2585 0.1170 0.5536
O9_2 O 0.75410(13) 0.54373(13) 0.42570(5)
O10_2 O 0.62583(13) 0.49430(13) 0.42826(5)
H41_2 H 0.7897 0.4418 0.4255
O11_2 O 0.78964(18) 0.24590(13) 0.42570(5)
O12_2 O 0.86848(18) 0.37417(13) 0.42826(5)
H45_2 H 0.4374 0.0982 0.2586
H46_2 H 0.3953 0.1856 0.3105
H47_2 H 0.4082 0.1918 0.2797
H48_2 H 0.3266 0.1334 0.2915
Mn8_2 Mn 0.81386(3) 0.6667 0.4167
Mn9_2 Mn 0.85284(3) 0.18614(3) 0.4167
N14_2 N 0.57341(24) 0.55692(17) 0.27899(6)
N15_2 N 0.72940(28) 0.64414(16) 0.38377(6)
N16_2 N 0.89026(17) 0.65018(17) 0.38767(6)
O13_2 O 0.87703(18) 0.78960(13) 0.40763(5)
N17_2 N 0.75192(32) 0.68919(16) 0.44956(6)
N18_2 N 0.90674(24) 0.68315(17) 0.44566(6)
N19_2 N 0.91475(32) 0.27060(28) 0.38377(6)
N20_2 N 0.75993(24) 0.10974(17) 0.38767(6)
N21_2 N 0.77641(17) 0.09326(24) 0.44566(6)
O14_2 O 0.91257(13) 0.12297(18) 0.40763(5)
N22_2 N 0.93727(28) 0.24808(32) 0.44956(6)
C49_2 C 0.57498(28) 0.57644(19) 0.30465(7)
N23_2 N 0.64613(24) 0.57009(17) 0.27381(6)
N24_2 N 0.71630(30) 0.70358(17) 0.37830(6)
C50_2 C 0.7039(4) 0.5980(2) 0.36214(7)
N25_2 N 0.98729(34) 0.28370(30) 0.37830(6)
C51_2 C 0.8942(4) 0.2961(4) 0.36214(7)
N26_2 N 0.95037(30) 0.32062(34) 0.45503(6)
C52_2 C 0.9628(4) 0.2275(4) 0.47119(7)
C53_2 C 0.5056(3) 0.5734(2) 0.31717(7)
C54_2 C 0.6480(3) 0.6000(2) 0.31583(7)
C55_2 C 0.6921(3) 0.5962(2) 0.29537(7)
H49_2 H 0.6609 0.5626 0.2586
C56_2 C 0.6850(4) 0.6965(2) 0.35402(8)
H50_2 H 0.7268 0.7411 0.3890
C57_2 C 0.6752(3) 0.6288(2) 0.34298(7)
C58_2 C 0.7076(4) 0.5251(2) 0.36043(8)
C60_2 C 0.9537(4) 0.3248(3) 0.34298(7)
C61_2 C 0.8176(4) 0.2924(4) 0.36043(8)
C62_2 C 0.9817(4) 0.3449(4) 0.47931(8)
H52_2 H 0.9399 0.3477 0.4443
C63_2 C 0.9915(3) 0.2870(4) 0.49035(7)
C64_2 C 0.9591(4) 0.1509(4) 0.47290(8)
H53_2 H 0.4934 0.6083 0.3081
H54_2 H 0.4623 0.5216 0.3159
H55_2 H 0.5163 0.5881 0.3355
C65_2 C 0.7759(3) 0.6186(2) 0.29420(8)
C66_2 C 0.6676(5) 0.7560(3) 0.34319(9)
H56_2 H 0.6971 0.5060 0.3425
H57_2 H 0.7583 0.5355 0.3655
H58_2 H 0.6697 0.4870 0.3721
C68_2 C 0.9521(2) 0.3520(3) 0.31583(7)
H59_2 H 0.7773 0.2417 0.3655
H60_2 H 0.8090 0.3029 0.3425
H61_2 H 0.8174 0.3303 0.3721
C69_2 C 0.9991(5) 0.4218(6) 0.49014(9)
H62_2 H 0.9970 0.1507 0.4612
H63_2 H 0.9084 0.1106 0.4678
H64_2 H 0.9696 0.1423 0.4908
H65_2 H 0.7904 0.6047 0.3105
H66_2 H 0.7837 0.5918 0.2797
H67_2 H 0.8069 0.6734 0.2915
H68_2 H 0.6667 0.7537 0.3241
H69_2 H 0.7068 0.8066 0.3488
H70_2 H 0.6180 0.7459 0.3496
C72_2 C 0.9042(2) 0.3079(3) 0.29537(7)
H75_4 H 1.0000 0.4204 0.5092
H76_2 H 0.9599 0.4332 0.4845
C73_2 C 0.9746(3) 0.2375(2) 0.53796(7)
N27_2 N 0.98352(17) 0.42659(24) 0.27899(6)
C76_2 C 0.8428(2) 0.2241(3) 0.29420(8)
N28_2 N 0.92397(17) 0.35387(24) 0.27381(6)
C77_2 C 0.8908(3) 0.1761(2) 0.53913(8)
H80_2 H 0.8666 0.1931 0.2915
H81_2 H 0.8144 0.2096 0.3105
H82_2 H 0.8082 0.2163 0.2797
H83_2 H 0.9018 0.3391 0.2586
H84_2 H 0.8598 0.1999 0.5418
H85_2 H 0.8763 0.1477 0.5228
H86_2 H 0.8830 0.1415 0.5536
O2_2 O 0.16097(13) 0.95916(13) 0.40507(5)
H13_3 H 0.4126 0.9513 0.4837
H14_5 H 0.4204 1.0000 0.5092
H16_2 H 0.2589 0.9856 0.3890
C17_2 C 0.3035(2) 0.9884(4) 0.35402(8)
C20_2 C 0.0087(3) 0.9350(2) 0.40778(7)
C22_3 C 0.2667(2) 0.9813(3) 0.51750(7)
C25_2 C 0.2440(3) 0.9115(6) 0.34319(9)
H20_2 H 0.0145 0.8915 0.4078
C31_3 C 0.24311(19) 0.90831(28) 0.52868(7)
H23_2 H 0.1934 0.9001 0.3488
H24_2 H 0.2541 0.8720 0.3496
H25_2 H 0.2463 0.9129 0.3241
C35_2 C 0.42356(19) 0.9985(2) 0.30465(7)
N10_3 N 0.22359(17) 0.90674(24) 0.55434(6)
C42_3 C 0.2401(2) 0.8389(3) 0.51616(7)
N11_3 N 0.23676(17) 0.97946(24) 0.55952(6)
C47_2 C 0.4266(2) 0.9321(2) 0.31717(7)
Mn3_3 Mn 0.14716(3) 0.81386(3) 0.5833
H34_3 H 0.1883 0.7956 0.5174
H35_3 H 0.2548 0.8496 0.4978
H36_3 H 0.2750 0.8267 0.5252
H37_3 H 0.2293 0.9942 0.5747
H42_2 H 0.4119 0.9281 0.3355
H43_2 H 0.4784 0.9406 0.3159
H44_2 H 0.3917 0.8850 0.3081
C27_2 C 0.99125(19) 0.06585(27) 0.40777(7)
C37_2 C 0.9813(2) 0.1357(3) 0.40683(7)
C28_2 C 0.93415(27) 0.92540(19) 0.40777(7)
C38_2 C 0.9263(2) 0.9913(3) 0.40778(7)
C39_2 C 0.8643(3) 0.8456(2) 0.40683(7)
H26_2 H 0.8770 0.9855 0.4078
O8_2 O 0.79819(18) 0.83903(13) 0.40507(5)
N3_5 N 0.76324(17) 0.02054(24) 0.44048(6)
C2_5 C 0.75689(19) 0.09169(28) 0.47132(7)
H1_5 H 0.7707 0.0058 0.4253
C6_5 C 0.7599(2) 0.1611(3) 0.48384(7)
C7_5 C 0.7333(2) 0.0187(3) 0.48250(7)
H3_5 H 0.8117 0.2044 0.4826
H4_5 H 0.7452 0.1504 0.5022
H5_5 H 0.7250 0.1733 0.4748
H28_5 H 0.5874 0.0487 0.5163
H29_7 H 0.5796 -0.0000 0.4908
N26_3 N 0.67938(34) 0.62975(45) 0.45503(6)
C52_3 C 0.7725(4) 0.7353(6) 0.47119(7)
C62_3 C 0.6551(4) 0.6368(6) 0.47931(8)
H52_3 H 0.6523 0.5922 0.4443
C63_3 C 0.7130(4) 0.7045(5) 0.49035(7)
C64_3 C 0.8491(4) 0.8082(6) 0.47290(8)
C69_3 C 0.5782(6) 0.5773(8) 0.49014(9)
C70_3 C 0.7146(2) 0.7333(4) 0.51750(7)
H62_3 H 0.8493 0.8463 0.4612
H63_3 H 0.8894 0.7978 0.4678
H64_3 H 0.8577 0.8273 0.4908
H74_3 H 0.5387 0.5874 0.4837
H75_5 H 0.5796 0.5796 0.5092
H76_3 H 0.5668 0.5267 0.4845
C73_3 C 0.7625(2) 0.7371(4) 0.53796(7)
C74_3 C 0.6652(2) 0.75689(34) 0.52868(7)
C77_3 C 0.8239(2) 0.7147(4) 0.53913(8)
N29_3 N 0.74270(17) 0.76324(29) 0.55952(6)
C78_3 C 0.5988(2) 0.7599(4) 0.51616(7)
N30_3 N 0.68315(17) 0.77641(29) 0.55434(6)
H84_3 H 0.8001 0.6599 0.5418
H85_3 H 0.8523 0.7286 0.5228
H86_3 H 0.8585 0.7415 0.5536
H87_3 H 0.7649 0.7707 0.5747
H88_3 H 0.5948 0.7452 0.4978
H89_3 H 0.5517 0.7250 0.5252
H90_3 H 0.6073 0.8117 0.5174
Mn11_3 Mn 0.6667 0.85284(3) 0.5833
C5_5 C 0.7371(2) 0.9746(3) 0.46204(7)
C12_5 C 0.7147(2) 0.8908(3) 0.46087(8)
H10_5 H 0.6599 0.8598 0.4582
H11_5 H 0.7286 0.8763 0.4772
H12_5 H 0.7415 0.8830 0.4464
C21_5 C 0.7045(2) 0.9915(4) 0.50965(7)
C29_5 C 0.6368(2) 0.9817(4) 0.52069(8)
C30_5 C 0.7353(2) 0.9628(4) 0.52881(7)
N8_5 N 0.62975(17) 0.95037(38) 0.54497(6)
C40_5 C 0.5773(3) 0.9991(7) 0.50986(9)
N9_5 N 0.68919(16) 0.93727(36) 0.55044(6)
C41_5 C 0.8082(2) 0.9591(4) 0.52710(8)
H27_5 H 0.5922 0.9399 0.5557
H29_8 H 0.5796 1.0000 0.4908
H30_5 H 0.5267 0.9599 0.5155
H31_5 H 0.7978 0.9084 0.5322
H32_5 H 0.8273 0.9696 0.5092
H33_5 H 0.8463 0.9970 0.5388
C5_6 C 0.0254(3) 0.7625(2) 0.46204(7)
C12_6 C 0.1092(3) 0.8239(2) 0.46087(8)
H10_6 H 0.1402 0.8001 0.4582
H11_6 H 0.1237 0.8523 0.4772
H12_6 H 0.1170 0.8585 0.4464
C21_6 C 0.0085(4) 0.7130(4) 0.50965(7)
C29_6 C 0.0183(4) 0.6551(4) 0.52069(8)
C30_6 C 0.0372(4) 0.7725(4) 0.52881(7)
N8_6 N 0.04963(38) 0.67938(34) 0.54497(6)
C40_6 C 0.0009(7) 0.5782(6) 0.50986(9)
N9_6 N 0.06273(36) 0.75192(32) 0.55044(6)
C41_6 C 0.0409(4) 0.8491(4) 0.52710(8)
H27_6 H 0.0601 0.6523 0.5557
H29_9 H 0.0000 0.5796 0.4908
H30_6 H 0.0401 0.5668 0.5155
H31_6 H 0.0916 0.8894 0.5322
H32_6 H 0.0304 0.8577 0.5092
H33_6 H 0.0030 0.8493 0.5388
N3_6 N 0.97946(24) 0.74270(17) 0.44048(6)
C2_6 C 0.90831(28) 0.6652(2) 0.47132(7)
H1_6 H 0.9942 0.7649 0.4253
C6_6 C 0.8389(3) 0.5988(2) 0.48384(7)
C7_6 C 0.9813(3) 0.7146(2) 0.48250(7)
H3_6 H 0.7956 0.6073 0.4826
H4_6 H 0.8496 0.5948 0.5022
H5_6 H 0.8267 0.5517 0.4748
H28_6 H 0.9513 0.5387 0.5163
H29_10 H 1.0000 0.5796 0.4908
H10_7 H 0.0068 0.5332 0.3751
C29_7 C 0.0299(2) 0.6782(4) 0.31264(8)
N8_7 N 0.03692(17) 0.65395(34) 0.28836(6)
C40_7 C 0.0894(3) 0.7551(6) 0.32347(9)
H27_7 H 0.0745 0.6810 0.2776
H28_7 H 0.0793 0.7946 0.3170
H29_11 H 0.0871 0.7537 0.3425
H30_7 H 0.1400 0.7665 0.3178
N3_7 N 0.90343(17) 0.59063(17) 0.39285(6)
C2_7 C 0.90978(19) 0.6681(2) 0.36201(7)
H1_7 H 0.8960 0.5684 0.4080
C5_7 C 0.9296(2) 0.5708(2) 0.37129(7)
C6_7 C 0.9068(2) 0.7345(2) 0.34949(7)
C7_7 C 0.9334(2) 0.6187(2) 0.35083(7)
C12_7 C 0.9520(2) 0.5094(2) 0.37246(8)
H3_7 H 0.8550 0.7260 0.3507
H4_7 H 0.9215 0.7385 0.3311
H5_7 H 0.9417 0.7816 0.3585
H11_7 H 0.9381 0.4810 0.3561
H12_7 H 0.9252 0.4748 0.3869
C21_7 C 0.9622(2) 0.6203(4) 0.32368(7)
C30_7 C 0.9314(2) 0.5608(4) 0.30452(7)
N9_7 N 0.97748(16) 0.58141(32) 0.28289(6)
C41_7 C 0.8585(2) 0.4842(4) 0.30623(8)
H31_7 H 0.8689 0.4439 0.3011
H32_7 H 0.8394 0.4756 0.3241
H33_7 H 0.8204 0.4840 0.2945
N3_8 N 0.40937(17) 0.31279(24) 0.39285(6)
C2_8 C 0.3319(2) 0.24164(28) 0.36201(7)
H1_8 H 0.4316 0.3275 0.4080
C5_8 C 0.4292(2) 0.3587(3) 0.37129(7)
C6_8 C 0.2655(2) 0.1722(3) 0.34949(7)
C7_8 C 0.3813(2) 0.3146(3) 0.35083(7)
C12_8 C 0.4906(2) 0.4425(3) 0.37246(8)
H3_8 H 0.2740 0.1289 0.3507
H4_8 H 0.2615 0.1829 0.3311
H5_8 H 0.2184 0.1600 0.3585
H10_8 H 0.4668 0.4735 0.3751
H11_8 H 0.5190 0.4570 0.3561
H12_8 H 0.5252 0.4503 0.3869
C21_8 C 0.3797(4) 0.3418(4) 0.32368(7)
C29_8 C 0.3218(4) 0.3516(4) 0.31264(8)
C30_8 C 0.4392(4) 0.3705(4) 0.30452(7)
N8_8 N 0.34605(34) 0.38296(38) 0.28836(6)
C40_8 C 0.2449(6) 0.3342(7) 0.32347(9)
N9_8 N 0.41859(32) 0.39606(36) 0.28289(6)
C41_8 C 0.5158(4) 0.3742(4) 0.30623(8)
H27_8 H 0.3190 0.3934 0.2776
H28_8 H 0.2054 0.2846 0.3170
H29_12 H 0.2463 0.3333 0.3425
H30_8 H 0.2335 0.3734 0.3178
H31_8 H 0.5561 0.4249 0.3011
H32_8 H 0.5244 0.3637 0.3241
H33_8 H 0.5160 0.3363 0.2945
N3_9 N 0.68721(24) 0.09657(17) 0.39285(6)
C2_9 C 0.75836(28) 0.09022(19) 0.36201(7)
H1_9 H 0.6725 0.1040 0.4080
C5_9 C 0.6413(3) 0.0704(2) 0.37129(7)
C6_9 C 0.8278(3) 0.0932(2) 0.34949(7)
C7_9 C 0.6854(3) 0.0666(2) 0.35083(7)
C12_9 C 0.5575(3) 0.0480(2) 0.37246(8)
H3_9 H 0.8711 0.1450 0.3507
H4_9 H 0.8171 0.0785 0.3311
H5_9 H 0.8400 0.0583 0.3585
H11_9 H 0.5430 0.0619 0.3561
H12_9 H 0.5497 0.0748 0.3869
C21_9 C 0.6582(4) 0.0378(2) 0.32368(7)
C30_9 C 0.6295(4) 0.0686(2) 0.30452(7)
N9_9 N 0.60394(36) 0.02252(16) 0.28289(6)
C41_9 C 0.6258(4) 0.1415(2) 0.30623(8)
H31_9 H 0.5751 0.1311 0.3011
H32_9 H 0.6363 0.1606 0.3241
H33_9 H 0.6637 0.1796 0.2945
H10_9 H 0.5265 0.9932 0.3751
C29_9 C 0.6484(4) 0.9701(2) 0.31264(8)
N8_9 N 0.61704(38) 0.96308(17) 0.28836(6)
C40_9 C 0.6658(7) 0.9106(3) 0.32347(9)
H27_9 H 0.6066 0.9255 0.2776
H28_9 H 0.7154 0.9207 0.3170
H29_13 H 0.6667 0.9129 0.3425
H30_9 H 0.6266 0.8600 0.3178
Mn8_3 Mn 0.48053(3) 0.0000 0.7500
O13_3 O 0.54370(18) 0.12293(13) 0.74096(5)
N17_3 N 0.41859(32) 0.02252(16) 0.78289(6)
N18_3 N 0.57341(24) 0.01648(17) 0.77899(6)
N24_3 N 0.38296(30) 0.03692(17) 0.71164(6)
C56_3 C 0.3516(4) 0.0299(2) 0.68736(8)
H50_3 H 0.3934 0.0745 0.7224
C66_3 C 0.3342(5) 0.0894(3) 0.67653(9)
H67_3 H 0.4735 0.0068 0.6249
H68_3 H 0.3333 0.0871 0.6575
H69_3 H 0.3734 0.1400 0.6822
H70_3 H 0.2846 0.0793 0.6830
Mn1_3 Mn -0.0000 0.48049(3) 0.7500
C2_10 C 0.0015(2) 0.57644(19) 0.80465(7)
N4_4 N 0.03692(17) 0.38296(30) 0.78836(6)
C6_10 C 0.0679(2) 0.5734(2) 0.81717(7)
H2_4 H 0.0745 0.3934 0.7776
C8_4 C 0.0299(2) 0.3516(4) 0.81264(8)
H3_10 H 0.0594 0.5216 0.8159
H4_10 H 0.0719 0.5881 0.8355
H5_10 H 0.1150 0.6083 0.8081
C13_4 C 0.0894(3) 0.3342(5) 0.82347(9)
H13_4 H 0.0793 0.2846 0.8170
H14_6 H 0.0871 0.3333 0.8425
H15_4 H 0.1400 0.3734 0.8178
O3_3 O 0.12293(13) 0.54370(18) 0.75904(5)
N5_3 N 0.02252(16) 0.41859(32) 0.71711(6)
N6_3 N 0.01648(17) 0.57341(24) 0.72101(6)
C14_3 C 0.1789(2) 0.5310(3) 0.75984(7)
C15_3 C 0.0686(2) 0.4392(4) 0.69548(7)
O4_3 O 0.17236(13) 0.46486(18) 0.76160(5)
C16_3 C 0.25873(19) 0.60082(27) 0.75890(7)
C18_3 C 0.1415(2) 0.5158(4) 0.69377(8)
C19_3 C 0.0378(2) 0.3797(4) 0.67632(7)
C23_3 C 0.2683(2) 0.6754(3) 0.75889(7)
C24_3 C 0.3246(3) 0.5930(2) 0.75889(7)
H17_3 H 0.1606 0.5244 0.6759
H18_3 H 0.1796 0.5160 0.7055
H19_3 H 0.1311 0.5561 0.6989
C26_3 C 0.0666(2) 0.3813(2) 0.64917(7)
C29_10 C 0.0116(4) 0.6965(2) 0.85402(8)
H21_3 H 0.2248 0.6812 0.7589
C33_3 C 0.34208(19) 0.74127(19) 0.75890(7)
C34_3 C 0.39918(27) 0.65792(19) 0.75890(7)
H22_3 H 0.3188 0.5437 0.7589
C35_3 C 0.09022(19) 0.3319(2) 0.63799(7)
C36_3 C 0.0704(2) 0.4292(2) 0.62871(7)
C40_10 C 0.0885(6) 0.7560(3) 0.84319(9)
C44_3 C 0.3520(2) 0.8211(2) 0.75984(7)
C45_3 C 0.4070(2) 0.7317(2) 0.75889(7)
C46_3 C 0.4690(3) 0.6480(2) 0.75984(7)
C47_3 C 0.0932(2) 0.2655(2) 0.65051(7)
N12_3 N 0.10974(17) 0.34982(17) 0.61233(6)
N13_3 N 0.09657(17) 0.40937(17) 0.60715(6)
C48_3 C 0.0480(2) 0.4906(2) 0.62754(8)
H27_10 H 0.0144 0.7411 0.8890
H28_10 H 0.1280 0.7459 0.8496
H29_14 H 0.0871 0.7537 0.8241
H30_10 H 0.0999 0.8066 0.8488
H38_4 H 0.0068 0.4735 0.8751
O9_3 O 0.42076(13) 0.87707(13) 0.75904(5)
O10_3 O 0.29249(13) 0.82764(13) 0.76160(5)
H41_3 H 0.4563 0.7752 0.7589
O11_3 O 0.45630(18) 0.57924(13) 0.75904(5)
O12_3 O 0.53514(18) 0.70751(13) 0.76160(5)
H42_3 H 0.0785 0.2615 0.6689
H43_3 H 0.1450 0.2740 0.6493
H44_3 H 0.0583 0.2184 0.6415
H45_3 H 0.1040 0.4316 0.5920
H46_3 H 0.0619 0.5190 0.6439
H47_3 H 0.0748 0.5252 0.6131
Mn8_4 Mn 0.48053(3) 1.0000 0.7500
Mn9_3 Mn 0.51951(3) 0.51947(3) 0.7500
N14_3 N 0.24007(24) 0.89026(17) 0.61233(6)
N15_3 N 0.39606(28) 0.97748(16) 0.71711(6)
N16_3 N 0.55692(17) 0.98352(17) 0.72101(6)
N19_3 N 0.58141(32) 0.60394(28) 0.71711(6)
N20_3 N 0.42659(24) 0.44308(17) 0.72101(6)
N21_3 N 0.44308(17) 0.42659(24) 0.77899(6)
O14_3 O 0.57924(13) 0.45630(18) 0.74096(5)
N22_3 N 0.60394(28) 0.58141(32) 0.78289(6)
C49_3 C 0.24164(28) 0.90978(19) 0.63799(7)
N23_3 N 0.31279(24) 0.90343(17) 0.60715(6)
C50_3 C 0.3705(4) 0.9314(2) 0.69548(7)
N25_3 N 0.65395(34) 0.61704(30) 0.71164(6)
C51_3 C 0.5608(4) 0.6295(4) 0.69548(7)
N26_4 N 0.61704(30) 0.65395(34) 0.78836(6)
C52_4 C 0.6295(4) 0.5608(4) 0.80452(7)
C53_3 C 0.1722(3) 0.9068(2) 0.65051(7)
C54_3 C 0.3146(3) 0.9334(2) 0.64917(7)
C55_3 C 0.3587(3) 0.9296(2) 0.62871(7)
H49_3 H 0.3275 0.8960 0.5920
C57_3 C 0.3418(3) 0.9622(2) 0.67632(7)
C58_3 C 0.3742(4) 0.8585(2) 0.69377(8)
C59_3 C 0.6782(4) 0.6484(4) 0.68736(8)
H51_3 H 0.6810 0.6066 0.7224
C60_3 C 0.6203(4) 0.6582(3) 0.67632(7)
C61_3 C 0.4842(4) 0.6258(4) 0.69377(8)
C62_4 C 0.6484(4) 0.6782(4) 0.81264(8)
H52_4 H 0.6066 0.6810 0.7776
C63_4 C 0.6582(3) 0.6203(4) 0.82368(7)
C64_4 C 0.6258(4) 0.4842(4) 0.80623(8)
H53_3 H 0.1600 0.9417 0.6415
H54_3 H 0.1289 0.8550 0.6493
H55_3 H 0.1829 0.9215 0.6689
C65_3 C 0.4425(3) 0.9520(2) 0.62754(8)
H56_3 H 0.3637 0.8394 0.6759
H57_3 H 0.4249 0.8689 0.6989
H58_3 H 0.3363 0.8204 0.7055
C67_3 C 0.7551(6) 0.6658(5) 0.67653(9)
C68_3 C 0.6187(2) 0.6854(3) 0.64917(7)
H59_3 H 0.4439 0.5751 0.6989
H60_3 H 0.4756 0.6363 0.6759
H61_3 H 0.4840 0.6637 0.7055
C69_4 C 0.6658(5) 0.7551(6) 0.82347(9)
C70_4 C 0.6854(3) 0.6187(2) 0.85083(7)
H62_4 H 0.6637 0.4840 0.7945
H63_4 H 0.5751 0.4439 0.8011
H64_4 H 0.6363 0.4756 0.8241
H65_3 H 0.4570 0.9381 0.6439
H66_3 H 0.4503 0.9252 0.6131
H71_3 H 0.7537 0.6667 0.6575
H72_3 H 0.7665 0.6266 0.6822
H73_3 H 0.7946 0.7154 0.6830
C71_3 C 0.6681(2) 0.75836(28) 0.63799(7)
C72_3 C 0.5708(2) 0.6413(3) 0.62871(7)
H74_4 H 0.7154 0.7946 0.8170
H75_6 H 0.6667 0.7537 0.8425
H76_4 H 0.6266 0.7665 0.8178
C73_4 C 0.6413(3) 0.5708(2) 0.87129(7)
C74_4 C 0.75836(28) 0.6681(2) 0.86201(7)
N27_3 N 0.65018(17) 0.75993(24) 0.61233(6)
C75_3 C 0.7345(2) 0.8278(3) 0.65051(7)
C76_3 C 0.5094(2) 0.5575(3) 0.62754(8)
N28_3 N 0.59063(17) 0.68721(24) 0.60715(6)
C77_4 C 0.5575(3) 0.5094(2) 0.87246(8)
N29_4 N 0.68721(24) 0.59063(17) 0.89285(6)
C78_4 C 0.8278(3) 0.7345(2) 0.84949(7)
N30_4 N 0.75993(24) 0.65018(17) 0.88767(6)
H77_3 H 0.7385 0.8171 0.6689
H78_3 H 0.7260 0.8711 0.6493
H79_3 H 0.7816 0.8400 0.6415
H80_3 H 0.5332 0.5265 0.6249
H81_3 H 0.4810 0.5430 0.6439
H82_3 H 0.4748 0.5497 0.6131
H83_3 H 0.5684 0.6725 0.5920
H84_4 H 0.5265 0.5332 0.8751
H85_4 H 0.5430 0.4810 0.8561
H86_4 H 0.5497 0.4748 0.8869
H87_4 H 0.6725 0.5684 0.9080
H88_4 H 0.8171 0.7385 0.8311
H89_4 H 0.8400 0.7816 0.8585
H90_4 H 0.8711 0.7260 0.8507
Mn1_4 Mn 1.0000 0.48049(3) 0.7500
O1_3 O 0.87707(13) 0.42076(13) 0.74096(5)
N1_3 N 0.98352(17) 0.55692(17) 0.77899(6)
N2_3 N 0.97748(16) 0.39606(28) 0.78289(6)
C1_3 C 0.8211(2) 0.3520(2) 0.74016(7)
N3_10 N 0.92397(17) 0.57009(17) 0.77381(6)
C3_4 C 0.9314(2) 0.3705(4) 0.80452(7)
O2_3 O 0.82764(13) 0.29249(13) 0.73840(5)
C4_3 C 0.74127(19) 0.34208(19) 0.74110(7)
H1_10 H 0.9018 0.5626 0.7586
C5_10 C 0.9042(2) 0.5962(2) 0.79537(7)
C7_10 C 0.9521(2) 0.6000(2) 0.81583(7)
C9_4 C 0.9622(2) 0.3418(3) 0.82368(7)
C10_4 C 0.8585(2) 0.3742(4) 0.80623(8)
C11_3 C 0.7317(2) 0.4070(2) 0.74111(7)
C12_10 C 0.8428(2) 0.6186(2) 0.79420(8)
H6_4 H 0.8689 0.4249 0.8011
H7_4 H 0.8394 0.3637 0.8241
H8_4 H 0.8204 0.3363 0.7945
H9_3 H 0.7752 0.4563 0.7411
H10_10 H 0.8666 0.6734 0.7915
H11_10 H 0.8144 0.6047 0.8105
H12_10 H 0.8082 0.5918 0.7797
N7_3 N 0.96308(17) 0.34605(34) 0.71164(6)
H16_3 H 0.9255 0.3190 0.7224
C17_3 C 0.9701(2) 0.3218(4) 0.68736(8)
C20_3 C 0.6754(3) 0.2683(2) 0.74111(7)
C21_10 C 0.9537(4) 0.6288(2) 0.84298(7)
C22_4 C 0.9334(2) 0.3146(3) 0.85083(7)
C25_3 C 0.9106(3) 0.2449(6) 0.67653(9)
C27_3 C 0.65792(19) 0.39918(27) 0.74110(7)
C28_3 C 0.60082(27) 0.25873(19) 0.74110(7)
H20_3 H 0.6812 0.2248 0.7411
C30_10 C 0.8942(4) 0.5980(2) 0.86214(7)
C31_4 C 0.90978(19) 0.24164(28) 0.86201(7)
C32_4 C 0.9296(2) 0.3587(3) 0.87129(7)
H23_3 H 0.8600 0.2335 0.6822
H24_3 H 0.9207 0.2054 0.6830
H25_3 H 0.9129 0.2463 0.6575
C37_3 C 0.6480(2) 0.4690(3) 0.74016(7)
C38_3 C 0.5930(2) 0.3246(3) 0.74111(7)
C39_3 C 0.5310(3) 0.1789(2) 0.74016(7)
N8_10 N 0.98729(34) 0.70358(17) 0.87830(6)
N9_10 N 0.91475(32) 0.64414(16) 0.88377(6)
C41_10 C 0.8176(4) 0.5251(2) 0.86043(8)
N10_4 N 0.89026(17) 0.24007(24) 0.88767(6)
C42_4 C 0.9068(2) 0.1722(3) 0.84949(7)
N11_4 N 0.90343(17) 0.31279(24) 0.89285(6)
C43_4 C 0.9520(2) 0.4425(3) 0.87246(8)
O6_3 O 0.70751(13) 0.53514(18) 0.73840(5)
H26_3 H 0.5437 0.3188 0.7411
O8_3 O 0.46486(18) 0.17236(13) 0.73840(5)
H31_10 H 0.7773 0.5355 0.8655
H32_10 H 0.8090 0.5060 0.8425
H33_10 H 0.8174 0.4870 0.8721
H34_4 H 0.8550 0.1289 0.8507
H35_4 H 0.9215 0.1829 0.8311
H36_4 H 0.9417 0.1600 0.8585
H37_4 H 0.8960 0.3275 0.9080
H39_4 H 0.9381 0.4570 0.8561
H40_4 H 0.9252 0.4503 0.8869
H48_3 H 0.9932 0.4668 0.6249
C52_5 C 0.4392(4) 0.0686(6) 0.80452(7)
C63_5 C 0.3797(4) 0.0378(5) 0.82368(7)
C64_5 C 0.5158(4) 0.1415(6) 0.80623(8)
C70_5 C 0.3813(2) 0.0666(4) 0.85083(7)
H62_5 H 0.5160 0.1796 0.7945
H63_5 H 0.5561 0.1311 0.8011
H64_5 H 0.5244 0.1606 0.8241
C73_5 C 0.4292(2) 0.0704(4) 0.87129(7)
C74_5 C 0.3319(2) 0.09022(34) 0.86201(7)
C77_5 C 0.4906(2) 0.0480(4) 0.87246(8)
N29_5 N 0.40937(17) 0.09657(29) 0.89285(6)
C78_5 C 0.2655(2) 0.0932(4) 0.84949(7)
N30_5 N 0.34982(17) 0.10974(29) 0.88767(6)
H85_5 H 0.5190 0.0619 0.8561
H86_5 H 0.5252 0.0748 0.8869
H87_5 H 0.4316 0.1040 0.9080
H88_5 H 0.2615 0.0785 0.8311
H89_5 H 0.2184 0.0583 0.8585
H90_5 H 0.2740 0.1450 0.8507
N3_11 N 0.42991(17) 0.35387(24) 0.77381(6)
C2_11 C 0.42356(19) 0.42502(28) 0.80465(7)
H1_11 H 0.4374 0.3391 0.7586
C5_11 C 0.4038(2) 0.3079(3) 0.79537(7)
C6_11 C 0.4266(2) 0.4944(3) 0.81717(7)
C7_11 C 0.4000(2) 0.3520(3) 0.81583(7)
C12_11 C 0.3814(2) 0.2241(3) 0.79420(8)
H3_11 H 0.4784 0.5377 0.8159
H4_11 H 0.4119 0.4837 0.8355
H5_11 H 0.3917 0.5066 0.8081
H10_11 H 0.3266 0.1931 0.7915
H11_11 H 0.3953 0.2096 0.8105
H12_11 H 0.4082 0.2163 0.7797
C21_11 C 0.3712(2) 0.3248(4) 0.84298(7)
C29_11 C 0.3035(2) 0.3150(4) 0.85402(8)
C30_11 C 0.4020(2) 0.2961(4) 0.86214(7)
N8_11 N 0.29642(17) 0.28370(38) 0.87830(6)
C40_11 C 0.2440(3) 0.3324(7) 0.84319(9)
N9_11 N 0.35586(16) 0.27060(36) 0.88377(6)
C41_11 C 0.4749(2) 0.2924(4) 0.86043(8)
H27_11 H 0.2589 0.2732 0.8890
H28_11 H 0.2541 0.3820 0.8496
H29_15 H 0.2463 0.3333 0.8241
H30_11 H 0.1934 0.2932 0.8488
H31_11 H 0.4645 0.2417 0.8655
H32_11 H 0.4940 0.3029 0.8425
H33_11 H 0.5130 0.3303 0.8721
N26_5 N 0.34605(34) 0.96308(45) 0.78836(6)
C62_5 C 0.3218(4) 0.9701(6) 0.81264(8)
H52_5 H 0.3190 0.9255 0.7776
C69_5 C 0.2449(6) 0.9106(8) 0.82347(9)
H74_5 H 0.2054 0.9207 0.8170
H75_7 H 0.2463 0.9129 0.8425
H76_5 H 0.2335 0.8600 0.8178
H84_5 H 0.4668 0.9932 0.8751
N3_12 N 0.64613(24) 0.07603(17) 0.77381(6)
H1_12 H 0.6609 0.0982 0.7586
C5_12 C 0.6921(3) 0.0958(2) 0.79537(7)
C7_12 C 0.6480(3) 0.0479(2) 0.81583(7)
C12_12 C 0.7759(3) 0.1572(2) 0.79420(8)
H10_12 H 0.8069 0.1334 0.7915
H11_12 H 0.7904 0.1856 0.8105
H12_12 H 0.7837 0.1918 0.7797
C21_12 C 0.6752(4) 0.0463(4) 0.84298(7)
C30_12 C 0.7039(4) 0.1058(4) 0.86214(7)
N8_12 N 0.71630(38) 0.01271(34) 0.87830(6)
N9_12 N 0.72940(36) 0.08525(32) 0.88377(6)
C41_12 C 0.7076(4) 0.1824(4) 0.86043(8)
H31_12 H 0.7583 0.2227 0.8655
H32_12 H 0.6971 0.1910 0.8425
H33_12 H 0.6697 0.1826 0.8721
C2_12 C 0.57498(28) 0.9985(2) 0.80465(7)
C6_12 C 0.5056(3) 0.9321(2) 0.81717(7)
H3_12 H 0.4623 0.9406 0.8159
H4_12 H 0.5163 0.9281 0.8355
H5_12 H 0.4934 0.8850 0.8081
C29_12 C 0.6850(4) 0.9884(4) 0.85402(8)
C40_12 C 0.6676(7) 0.9115(6) 0.84319(9)
H27_12 H 0.7268 0.9856 0.8890
H28_12 H 0.6180 0.8720 0.8496
H29_16 H 0.6667 0.9129 0.8241
H30_12 H 0.7068 0.9001 0.8488
C2_13 C 0.57644(19) 0.0015(2) 0.69535(7)
C6_13 C 0.5734(2) 0.0679(2) 0.68283(7)
H3_13 H 0.5216 0.0594 0.6841
H4_13 H 0.5881 0.0719 0.6645
H5_13 H 0.6083 0.1150 0.6919
C29_13 C 0.6965(2) 0.0116(4) 0.64598(8)
C40_13 C 0.7560(3) 0.0885(6) 0.65681(9)
H27_13 H 0.7411 0.0144 0.6110
H28_13 H 0.7459 0.1280 0.6504
H29_17 H 0.7537 0.0871 0.6759
H30_13 H 0.8066 0.0999 0.6512
N3_13 N 0.57009(17) 0.92397(17) 0.72619(6)
H1_13 H 0.5626 0.9018 0.7414
C5_13 C 0.5962(2) 0.9042(2) 0.70463(7)
C7_13 C 0.6000(2) 0.9521(2) 0.68417(7)
C12_13 C 0.6186(2) 0.8428(2) 0.70580(8)
H10_13 H 0.6734 0.8666 0.7085
H11_13 H 0.6047 0.8144 0.6895
H12_13 H 0.5918 0.8082 0.7203
C21_13 C 0.6288(2) 0.9537(4) 0.65702(7)
C30_13 C 0.5980(2) 0.8942(4) 0.63786(7)
N8_13 N 0.70358(17) 0.98729(34) 0.62170(6)
N9_13 N 0.64414(16) 0.91475(32) 0.61623(6)
C41_13 C 0.5251(2) 0.8176(4) 0.63957(8)
H31_13 H 0.5355 0.7773 0.6345
H32_13 H 0.5060 0.8090 0.6575
H33_13 H 0.4870 0.8174 0.6279
N3_14 N 0.07603(17) 0.64613(24) 0.72619(6)
H1_14 H 0.0982 0.6609 0.7414
C5_14 C 0.0958(2) 0.6921(3) 0.70463(7)
C7_14 C 0.0479(2) 0.6480(3) 0.68417(7)
C12_14 C 0.1572(2) 0.7759(3) 0.70580(8)
H10_14 H 0.1334 0.8069 0.7085
H11_14 H 0.1856 0.7904 0.6895
H12_14 H 0.1918 0.7837 0.7203
C21_14 C 0.0463(4) 0.6752(4) 0.65702(7)
C30_14 C 0.1058(4) 0.7039(4) 0.63786(7)
N8_14 N 0.01271(34) 0.71630(38) 0.62170(6)
N9_14 N 0.08525(32) 0.72940(36) 0.61623(6)
C41_14 C 0.1824(4) 0.7076(4) 0.63957(8)
H31_14 H 0.2227 0.7583 0.6345
H32_14 H 0.1910 0.6971 0.6575
H33_14 H 0.1826 0.6697 0.6279
C2_14 C 0.9985(2) 0.57498(28) 0.69535(7)
C6_14 C 0.9321(2) 0.5056(3) 0.68283(7)
H3_14 H 0.9406 0.4623 0.6841
H4_14 H 0.9281 0.5163 0.6645
H5_14 H 0.8850 0.4934 0.6919
C29_14 C 0.9884(4) 0.6850(4) 0.64598(8)
C40_14 C 0.9115(6) 0.6676(7) 0.65681(9)
H27_14 H 0.9856 0.7268 0.6110
H28_14 H 0.8720 0.6180 0.6504
H29_18 H 0.9129 0.6667 0.6759
H30_14 H 0.9001 0.7068 0.6512
N3_15 N 0.35387(24) 0.42991(17) 0.72619(6)
C2_15 C 0.42502(28) 0.42356(19) 0.69535(7)
H1_15 H 0.3391 0.4374 0.7414
C5_15 C 0.3079(3) 0.4038(2) 0.70463(7)
C6_15 C 0.4944(3) 0.4266(2) 0.68283(7)
C7_15 C 0.3520(3) 0.4000(2) 0.68417(7)
C12_15 C 0.2241(3) 0.3814(2) 0.70580(8)
H3_15 H 0.5377 0.4784 0.6841
H4_15 H 0.4837 0.4119 0.6645
H5_15 H 0.5066 0.3917 0.6919
H10_15 H 0.1931 0.3266 0.7085
H11_15 H 0.2096 0.3953 0.6895
H12_15 H 0.2163 0.4082 0.7203
C21_15 C 0.3248(4) 0.3712(2) 0.65702(7)
C29_15 C 0.3150(4) 0.3035(2) 0.64598(8)
C30_15 C 0.2961(4) 0.4020(2) 0.63786(7)
N8_15 N 0.28370(38) 0.29642(17) 0.62170(6)
C40_15 C 0.3324(7) 0.2440(3) 0.65681(9)
N9_15 N 0.27060(36) 0.35586(16) 0.61623(6)
C41_15 C 0.2924(4) 0.4749(2) 0.63957(8)
H27_15 H 0.2732 0.2589 0.6110
H28_15 H 0.3820 0.2541 0.6504
H29_19 H 0.3333 0.2463 0.6759
H30_15 H 0.2932 0.1934 0.6512
H31_15 H 0.2417 0.4645 0.6345
H32_15 H 0.3029 0.4940 0.6575
H33_15 H 0.3303 0.5130 0.6279
H10_16 H 0.5332 0.0068 0.1249
C29_16 C 0.6782(4) 0.0299(2) 0.18736(8)
N8_16 N 0.65395(34) 0.03692(17) 0.21164(6)
C40_16 C 0.7551(6) 0.0894(3) 0.17653(9)
H27_16 H 0.6810 0.0745 0.2224
H28_16 H 0.7946 0.0793 0.1830
H29_20 H 0.7537 0.0871 0.1575
H30_16 H 0.7665 0.1400 0.1822
N3_16 N 0.59063(17) 0.90343(17) 0.10715(6)
C2_16 C 0.6681(2) 0.90978(19) 0.13799(7)
H1_16 H 0.5684 0.8960 0.0920
C5_16 C 0.5708(2) 0.9296(2) 0.12871(7)
C6_16 C 0.7345(2) 0.9068(2) 0.15051(7)
C7_16 C 0.6187(2) 0.9334(2) 0.14917(7)
C12_16 C 0.5094(2) 0.9520(2) 0.12754(8)
H3_16 H 0.7260 0.8550 0.1493
H4_16 H 0.7385 0.9215 0.1689
H5_16 H 0.7816 0.9417 0.1415
H11_16 H 0.4810 0.9381 0.1439
H12_16 H 0.4748 0.9252 0.1131
C21_16 C 0.6203(4) 0.9622(2) 0.17632(7)
C30_16 C 0.5608(4) 0.9314(2) 0.19548(7)
N9_16 N 0.58141(32) 0.97748(16) 0.21711(6)
C41_16 C 0.4842(4) 0.8585(2) 0.19377(8)
H31_16 H 0.4439 0.8689 0.1989
H32_16 H 0.4756 0.8394 0.1759
H33_16 H 0.4840 0.8204 0.2055
N3_17 N 0.09657(17) 0.68721(24) 0.10715(6)
C2_17 C 0.09022(19) 0.75836(28) 0.13799(7)
H1_17 H 0.1040 0.6725 0.0920
C5_17 C 0.0704(2) 0.6413(3) 0.12871(7)
C6_17 C 0.0932(2) 0.8278(3) 0.15051(7)
C7_17 C 0.0666(2) 0.6854(3) 0.14917(7)
C12_17 C 0.0480(2) 0.5575(3) 0.12754(8)
H3_17 H 0.1450 0.8711 0.1493
H4_17 H 0.0785 0.8171 0.1689
H5_17 H 0.0583 0.8400 0.1415
H11_17 H 0.0619 0.5430 0.1439
H12_17 H 0.0748 0.5497 0.1131
C21_17 C 0.0378(2) 0.6582(4) 0.17632(7)
C30_17 C 0.0686(2) 0.6295(4) 0.19548(7)
N9_17 N 0.02252(16) 0.60394(36) 0.21711(6)
C41_17 C 0.1415(2) 0.6258(4) 0.19377(8)
H31_17 H 0.1311 0.5751 0.1989
H32_17 H 0.1606 0.6363 0.1759
H33_17 H 0.1796 0.6637 0.2055
H10_17 H 0.9932 0.5265 0.1249
C29_17 C 0.9701(2) 0.6484(4) 0.18736(8)
N8_17 N 0.96308(17) 0.61704(38) 0.21164(6)
C40_17 C 0.9106(3) 0.6658(7) 0.17653(9)
H27_17 H 0.9255 0.6066 0.2224
H28_17 H 0.9207 0.7154 0.1830
H29_21 H 0.9129 0.6667 0.1575
H30_17 H 0.8600 0.6266 0.1822
N3_18 N 0.31279(24) 0.40937(17) 0.10715(6)
C2_18 C 0.24164(28) 0.3319(2) 0.13799(7)
H1_18 H 0.3275 0.4316 0.0920
C5_18 C 0.3587(3) 0.4292(2) 0.12871(7)
C6_18 C 0.1722(3) 0.2655(2) 0.15051(7)
C7_18 C 0.3146(3) 0.3813(2) 0.14917(7)
C12_18 C 0.4425(3) 0.4906(2) 0.12754(8)
H3_18 H 0.1289 0.2740 0.1493
H4_18 H 0.1829 0.2615 0.1689
H5_18 H 0.1600 0.2184 0.1415
H10_18 H 0.4735 0.4668 0.1249
H11_18 H 0.4570 0.5190 0.1439
H12_18 H 0.4503 0.5252 0.1131
C21_18 C 0.3418(4) 0.3797(4) 0.17632(7)
C29_18 C 0.3516(4) 0.3218(4) 0.18736(8)
C30_18 C 0.3705(4) 0.4392(4) 0.19548(7)
N8_18 N 0.38296(38) 0.34605(34) 0.21164(6)
C40_18 C 0.3342(7) 0.2449(6) 0.17653(9)
N9_18 N 0.39606(36) 0.41859(32) 0.21711(6)
C41_18 C 0.3742(4) 0.5158(4) 0.19377(8)
H27_18 H 0.3934 0.3190 0.2224
H28_18 H 0.2846 0.2054 0.1830
H29_22 H 0.3333 0.2463 0.1575
H30_18 H 0.3734 0.2335 0.1822
H31_18 H 0.4249 0.5561 0.1989
H32_18 H 0.3637 0.5244 0.1759
H33_18 H 0.3363 0.5160 0.2055
C28_4 C 0.07460(19) 0.06585(27) 0.90777(7)
C38_4 C 0.0087(3) 0.0737(2) 0.90778(7)
C39_4 C 0.1544(2) 0.1357(3) 0.90683(7)
H26_4 H 0.0145 0.1230 0.9078
O7 O 0.21040(13) 0.12297(18) 0.90763(5)
O8_4 O 0.16097(13) 0.20181(18) 0.90507(5)
O2_4 O 0.04084(13) 0.83903(13) 0.90507(5)
C20_4 C 0.0650(2) 0.9913(3) 0.90778(7)
H20_4 H 0.1085 0.9855 0.9078
C27_4 C 0.93415(27) 0.00875(19) 0.90777(7)
C37_4 C 0.8643(3) 0.0187(2) 0.90683(7)
O5 O 0.87703(18) 0.08743(13) 0.90763(5)
O1_4 O 0.91257(13) 0.78960(13) 0.90763(5)
C1_4 C 0.9813(2) 0.8456(2) 0.90683(7)
C4_4 C 0.99125(19) 0.92540(19) 0.90777(7)
C11_4 C 0.9263(2) 0.9350(2) 0.90778(7)
H9_4 H 0.8770 0.8915 0.9078
O3_4 O 0.78964(18) 0.54373(13) 0.92570(5)
C14_4 C 0.8024(3) 0.4877(2) 0.92650(7)
O4_4 O 0.86848(18) 0.49430(13) 0.92826(5)
C16_4 C 0.73252(27) 0.40793(19) 0.92556(7)
C23_4 C 0.6580(3) 0.3983(2) 0.92555(7)
C24_4 C 0.7404(2) 0.3420(3) 0.92555(7)
H21_4 H 0.6522 0.4418 0.9255
C33_4 C 0.59207(19) 0.32458(19) 0.92556(7)
C34_4 C 0.67542(19) 0.26748(27) 0.92556(7)
H22_4 H 0.7897 0.3478 0.9255
C44_4 C 0.5123(2) 0.3146(2) 0.92650(7)
C45_4 C 0.6017(2) 0.2596(2) 0.92555(7)
C46_4 C 0.6854(2) 0.1976(3) 0.92650(7)
O6_4 O 0.79819(18) 0.95916(13) 0.90507(5)
O9_4 O 0.45627(13) 0.24590(13) 0.92570(5)
O10_4 O 0.50570(13) 0.37417(13) 0.92826(5)
H41_4 H 0.5582 0.2103 0.9255
O11_4 O 0.75410(13) 0.21036(18) 0.92570(5)
O12_4 O 0.62583(13) 0.13152(18) 0.92826(5)
C28_5 C 0.06585(27) 0.07460(19) 0.59223(7)
C38_5 C 0.0737(2) 0.0087(3) 0.59222(7)
C39_5 C 0.1357(3) 0.1544(2) 0.59317(7)
H26_5 H 0.1230 0.0145 0.5922
O7_2 O 0.12297(18) 0.21040(13) 0.59237(5)
O8_5 O 0.20181(18) 0.16097(13) 0.59493(5)
C27_5 C 0.00875(19) 0.93415(27) 0.59223(7)
C37_5 C 0.0187(2) 0.8643(3) 0.59317(7)
O5_2 O 0.08743(13) 0.87703(18) 0.59237(5)
O2_5 O 0.83903(13) 0.04084(13) 0.59493(5)
C20_5 C 0.9913(3) 0.0650(2) 0.59222(7)
H20_5 H 0.9855 0.1085 0.5922
O1_5 O 0.78960(13) 0.91257(13) 0.59237(5)
C1_5 C 0.8456(2) 0.9813(2) 0.59317(7)
C4_5 C 0.92540(19) 0.99125(19) 0.59223(7)
C11_5 C 0.9350(2) 0.9263(2) 0.59222(7)
H9_5 H 0.8915 0.8770 0.5922
O3_5 O 0.54373(13) 0.78964(18) 0.57430(5)
C14_5 C 0.4877(2) 0.8024(3) 0.57350(7)
O4_5 O 0.49430(13) 0.86848(18) 0.57174(5)
C16_5 C 0.40793(19) 0.73252(27) 0.57444(7)
C23_5 C 0.3983(2) 0.6580(3) 0.57445(7)
C24_5 C 0.3420(3) 0.7404(2) 0.57445(7)
H21_5 H 0.4418 0.6522 0.5745
C33_5 C 0.32458(19) 0.59207(19) 0.57444(7)
C34_5 C 0.26748(27) 0.67542(19) 0.57444(7)
H22_5 H 0.3478 0.7897 0.5745
C44_5 C 0.3146(2) 0.5123(2) 0.57350(7)
C45_5 C 0.2596(2) 0.6017(2) 0.57445(7)
C46_5 C 0.1976(3) 0.6854(2) 0.57350(7)
O6_5 O 0.95916(13) 0.79819(18) 0.59493(5)
O9_5 O 0.24590(13) 0.45627(13) 0.57430(5)
O10_5 O 0.37417(13) 0.50570(13) 0.57174(5)
H41_5 H 0.2103 0.5582 0.5745
O11_5 O 0.21036(18) 0.75410(13) 0.57430(5)
O12_5 O 0.13152(18) 0.62583(13) 0.57174(5)
O1_6 O 0.12293(13) 0.57924(13) 0.25904(5)
C1_6 C 0.1789(2) 0.6480(2) 0.25984(7)
O2_6 O 0.17236(13) 0.70751(13) 0.26160(5)
C4_6 C 0.25873(19) 0.65792(19) 0.25890(7)
C11_6 C 0.2683(2) 0.5930(2) 0.25889(7)
H9_6 H 0.2248 0.5437 0.2589
C20_6 C 0.3246(3) 0.7317(2) 0.25889(7)
C27_6 C 0.34208(19) 0.60082(27) 0.25890(7)
C28_6 C 0.39918(27) 0.74127(19) 0.25890(7)
H20_6 H 0.3188 0.7752 0.2589
C37_6 C 0.3520(2) 0.5310(3) 0.25984(7)
C38_6 C 0.4070(2) 0.6754(3) 0.25889(7)
C39_6 C 0.4690(3) 0.8211(2) 0.25984(7)
O5_3 O 0.42076(13) 0.54370(18) 0.25904(5)
O6_6 O 0.29249(13) 0.46486(18) 0.26160(5)
H26_6 H 0.4563 0.6812 0.2589
O7_3 O 0.45630(18) 0.87707(13) 0.25904(5)
O8_6 O 0.53514(18) 0.82764(13) 0.26160(5)
O3_6 O 0.87707(13) 0.45630(18) 0.24096(5)
C14_6 C 0.8211(2) 0.4690(3) 0.24016(7)
O4_6 O 0.82764(13) 0.53514(18) 0.23840(5)
C16_6 C 0.74127(19) 0.39918(27) 0.24110(7)
C23_6 C 0.7317(2) 0.3246(3) 0.24111(7)
C24_6 C 0.6754(3) 0.4070(2) 0.24111(7)
H21_6 H 0.7752 0.3188 0.2411
C33_6 C 0.65792(19) 0.25873(19) 0.24110(7)
C34_6 C 0.60082(27) 0.34208(19) 0.24110(7)
H22_6 H 0.6812 0.4563 0.2411
C44_6 C 0.6480(2) 0.1789(2) 0.24016(7)
C45_6 C 0.5930(2) 0.2683(2) 0.24111(7)
C46_6 C 0.5310(3) 0.3520(2) 0.24016(7)
O9_6 O 0.57924(13) 0.12293(13) 0.24096(5)
O10_6 O 0.70751(13) 0.17236(13) 0.23840(5)
H41_6 H 0.5437 0.2248 0.2411
O11_6 O 0.54370(18) 0.42076(13) 0.24096(5)
O12_6 O 0.46486(18) 0.29249(13) 0.23840(5)
loop_
_geom_bond_atom_site_label_1
_geom_bond_atom_site_label_2
_geom_bond_site_symmetry_1
_geom_bond_site_symmetry_2
C67 C59 1_555 1_555
H71 C67 1_555 1_555
H72 C67 1_555 1_555
H73 C67 1_555 1_555
C75 C71 1_555 1_555
H77 C75 1_555 1_555
H78 C75 1_555 1_555
H79 C75 1_555 1_555
C74 C70 1_555 1_555
C78 C74 1_555 1_555
N30 C74 1_555 1_555
H87 N29 1_555 1_555
H89 C78 1_555 1_555
H90 C78 1_555 1_555
Mn11 N30 1_555 1_555
N29 N30 1_555 1_555
Mn1 O1 1_555 1_555
O1 C1 1_555 1_555
N1 Mn1 1_555 1_555
N2 Mn1 1_555 1_555
N3 N1 1_555 1_555
C2 N1 1_555 1_555
N4 N2 1_555 1_555
C3 N2 1_555 1_555
C4 C1 1_555 1_555
H1 N3 1_555 1_555
C5 N3 1_555 1_555
C6 C2 1_555 1_555
C7 C2 1_555 1_555
H2 N4 1_555 1_555
C8 N4 1_555 1_555
C9 C3 1_555 1_555
C10 C3 1_555 1_555
C11 C4 1_555 1_555
C12 C5 1_555 1_555
H3 C6 1_555 1_555
H5 C6 1_555 1_555
C13 C8 1_555 1_555
H6 C10 1_555 1_555
H7 C10 1_555 1_555
H8 C10 1_555 1_555
H9 C11 1_555 1_555
H10 C12 1_555 1_555
H11 C12 1_555 1_555
H12 C12 1_555 1_555
H15 C13 1_555 1_555
O3 Mn1 1_555 1_555
N5 Mn1 1_555 1_555
N6 Mn1 1_555 1_555
C14 O3 1_555 1_555
N7 N5 1_555 1_555
C15 N5 1_555 1_555
O4 C14 1_555 1_555
C16 C14 1_555 1_555
C18 C15 1_555 1_555
C19 C15 1_555 1_555
C23 C16 1_555 1_555
C24 C16 1_555 1_555
H17 C18 1_555 1_555
H18 C18 1_555 1_555
H19 C18 1_555 1_555
C26 C19 1_555 1_555
H21 C23 1_555 1_555
C33 C23 1_555 1_555
C34 C24 1_555 1_555
H22 C24 1_555 1_555
C36 C26 1_555 1_555
C44 C33 1_555 1_555
C45 C33 1_555 1_555
C46 C34 1_555 1_555
N13 C36 1_555 1_555
C48 C36 1_555 1_555
O9 C44 1_555 1_555
O10 C44 1_555 1_555
H41 C45 1_555 1_555
O11 C46 1_555 1_555
O12 C46 1_555 1_555
Mn4 N12 1_555 1_555
H45 N13 1_555 1_555
H46 C48 1_555 1_555
H47 C48 1_555 1_555
H48 C48 1_555 1_555
Mn5 N14 1_555 1_555
Mn8 O9 1_555 1_555
Mn9 O11 1_555 1_555
N14 C49 1_555 1_555
N15 Mn8 1_555 1_555
N16 Mn8 1_555 1_555
O13 Mn8 1_555 1_555
N17 Mn8 1_555 1_555
N18 Mn8 1_555 1_555
N19 Mn9 1_555 1_555
N20 Mn9 1_555 1_555
N21 Mn9 1_555 1_555
O14 Mn9 1_555 1_555
N22 Mn9 1_555 1_555
C49 C53 1_555 1_555
N23 N14 1_555 1_555
N24 N15 1_555 1_555
C50 N15 1_555 1_555
N25 N19 1_555 1_555
C51 N19 1_555 1_555
N26 N22 1_555 1_555
C52 N22 1_555 1_555
C53 H53 1_555 1_555
C54 C49 1_555 1_555
C55 N23 1_555 1_555
H49 N23 1_555 1_555
C56 N24 1_555 1_555
H50 N24 1_555 1_555
C57 C50 1_555 1_555
C58 C50 1_555 1_555
C60 C51 1_555 1_555
C61 C51 1_555 1_555
C62 N26 1_555 1_555
H52 N26 1_555 1_555
C63 C52 1_555 1_555
C64 C52 1_555 1_555
H54 C53 1_555 1_555
H55 C53 1_555 1_555
C65 C55 1_555 1_555
C66 C56 1_555 1_555
H56 C58 1_555 1_555
H57 C58 1_555 1_555
H58 C58 1_555 1_555
C68 C60 1_555 1_555
H59 C61 1_555 1_555
H60 C61 1_555 1_555
H61 C61 1_555 1_555
C69 C62 1_555 1_555
H62 C64 1_555 1_555
H63 C64 1_555 1_555
H64 C64 1_555 1_555
H65 C65 1_555 1_555
H66 C65 1_555 1_555
H67 C65 1_555 1_555
H68 C66 1_555 1_555
H69 C66 1_555 1_555
H70 C66 1_555 1_555
C72 C68 1_555 1_555
H76 C69 1_555 1_555
C76 C72 1_555 1_555
N28 C72 1_555 1_555
Mn10_2 N27 1_555 1_555
H80 C76 1_555 1_555
H81 C76 1_555 1_555
H82 C76 1_555 1_555
H83 N28 1_555 1_555
C5 C7 1_555 1_555
C8 C9 1_555 1_555
C34 C45 1_555 1_555
N12 N13 1_555 1_555
C54 C55 1_555 1_555
C54 C57 1_555 1_555
C56 C57 1_555 1_555
C62 C63 1_555 1_555
N27 N28 1_555 1_555
C29 C21 1_555 1_555
C30 C21 1_555 1_555
N8 C29 1_555 1_555
C40 C29 1_555 1_555
N9 C30 1_555 1_555
C41 C30 1_555 1_555
C43 C32 1_555 1_555
H27 N8 1_555 1_555
H28 C40 1_555 1_555
H30 C40 1_555 1_555
Mn11 N9 1_555 1_555
H31 C41 1_555 1_555
H32 C41 1_555 1_555
H33 C41 1_555 1_555
H38 C43 1_555 1_555
H39 C43 1_555 1_555
H40 C43 1_555 1_555
C77 C73 1_555 1_555
H84 C77 1_555 1_555
H85 C77 1_555 1_555
H86 C77 1_555 1_555
N8 N9 1_555 1_555
C37 C27 1_555 1_555
O14 C37 1_555 1_555
C25 C17 1_555 1_555
H20 C20 1_555 1_555
H23 C25 1_555 1_555
H24 C25 1_555 1_555
H25 C25 1_555 1_555
C47 C35 1_555 1_555
H42 C47 1_555 1_555
H43 C47 1_555 1_555
H44 C47 1_555 1_555
C31 C22 1_555 1_555
N10 C31 1_555 1_555
C42 C31 1_555 1_555
Mn3 N10 1_555 1_555
H34 C42 1_555 1_555
H36 C42 1_555 1_555
H37 N11 1_555 1_555
N10 N11 1_555 1_555
C39 C28 1_555 1_555
H26 C38 1_555 1_555
O13 C39 1_555 1_555
O8 C39 1_555 1_555
C28 C38 1_555 1_555
C12_2 C5_2 1_555 1_555
H10_2 C12_2 1_555 1_555
H11_2 C12_2 1_555 1_555
H12_2 C12_2 1_555 1_555
C29_2 C21_2 1_555 1_555
C30_2 C21_2 1_555 1_555
N8_2 C29_2 1_555 1_555
C40_2 C29_2 1_555 1_555
N9_2 C30_2 1_555 1_555
C41_2 C30_2 1_555 1_555
H27_2 N8_2 1_555 1_555
H30_2 C40_2 1_555 1_555
Mn3 N9_2 1_555 1_555
H31_2 C41_2 1_555 1_555
H32_2 C41_2 1_555 1_555
H33_2 C41_2 1_555 1_555
N8_2 N9_2 1_555 1_555
N3_2 N18 1_555 1_555
C2_2 N18 1_555 1_555
N4_2 N17 1_555 1_555
C3_2 N17 1_555 1_555
H1_2 N3_2 1_555 1_555
C6_2 C2_2 1_555 1_555
C7_2 C2_2 1_555 1_555
H2_2 N4_2 1_555 1_555
C8_2 N4_2 1_555 1_555
C9_2 C3_2 1_555 1_555
C10_2 C3_2 1_555 1_555
H3_2 C6_2 1_555 1_555
H5_2 C6_2 1_555 1_555
C13_2 C8_2 1_555 1_555
H6_2 C10_2 1_555 1_555
H7_2 C10_2 1_555 1_555
H8_2 C10_2 1_555 1_555
H13_2 C13_2 1_555 1_555
H15_2 C13_2 1_555 1_555
C8_2 C9_2 1_555 1_555
C31_2 C22_2 1_555 1_555
C32_2 C22_2 1_555 1_555
N10_2 C31_2 1_555 1_555
C42_2 C31_2 1_555 1_555
N11_2 C32_2 1_555 1_555
C43_2 C32_2 1_555 1_555
Mn3_2 N10_2 1_555 1_555
H34_2 C42_2 1_555 1_555
H36_2 C42_2 1_555 1_555
H37_2 N11_2 1_555 1_555
H38_2 C43_2 1_555 1_555
H39_2 C43_2 1_555 1_555
H40_2 C43_2 1_555 1_555
N10_2 N11_2 1_555 1_555
N3_3 N21 1_555 1_555
C2_3 N21 1_555 1_555
H1_3 N3_3 1_555 1_555
C6_3 C2_3 1_555 1_555
C7_3 C2_3 1_555 1_555
H3_3 C6_3 1_555 1_555
H5_3 C6_3 1_555 1_555
C12_3 C5_3 1_555 1_555
H10_3 C12_3 1_555 1_555
H11_3 C12_3 1_555 1_555
H12_3 C12_3 1_555 1_555
C29_3 C21_3 1_555 1_555
C30_3 C21_3 1_555 1_555
N8_3 C29_3 1_555 1_555
C40_3 C29_3 1_555 1_555
N9_3 C30_3 1_555 1_555
C41_3 C30_3 1_555 1_555
H27_3 N8_3 1_555 1_555
H30_3 C40_3 1_555 1_555
Mn3_2 N9_3 1_555 1_555
H31_3 C41_3 1_555 1_555
H32_3 C41_3 1_555 1_555
H33_3 C41_3 1_555 1_555
N8_3 N9_3 1_555 1_555
C67_2 C59_2 1_555 1_555
H71_2 C67_2 1_555 1_555
H72_2 C67_2 1_555 1_555
H73_2 C67_2 1_555 1_555
C74_2 C70_2 1_555 1_555
C75_2 C71_2 1_555 1_555
C78_2 C74_2 1_555 1_555
N30_2 C74_2 1_555 1_555
H77_2 C75_2 1_555 1_555
H78_2 C75_2 1_555 1_555
H79_2 C75_2 1_555 1_555
H87_2 N29_2 1_555 1_555
H88_2 C78_2 1_555 1_555
H89_2 C78_2 1_555 1_555
H90_2 C78_2 1_555 1_555
Mn11_2 N30_2 1_555 1_555
N29_2 N30_2 1_555 1_555
Mn1_2 O1_2 1_555 1_555
O1_2 C1_2 1_555 1_555
N1_2 Mn1_2 1_555 1_555
N2_2 Mn1_2 1_555 1_555
N3_4 N1_2 1_555 1_555
C2_4 N1_2 1_555 1_555
N4_3 N2_2 1_555 1_555
C3_3 N2_2 1_555 1_555
C4_2 C1_2 1_555 1_555
H1_4 N3_4 1_555 1_555
C5_4 N3_4 1_555 1_555
C6_4 C2_4 1_555 1_555
C7_4 C2_4 1_555 1_555
H2_3 N4_3 1_555 1_555
C8_3 N4_3 1_555 1_555
C9_3 C3_3 1_555 1_555
C10_3 C3_3 1_555 1_555
C11_2 C4_2 1_555 1_555
C12_4 C5_4 1_555 1_555
H3_4 C6_4 1_555 1_555
H4_4 C6_4 1_555 1_555
H5_4 C6_4 1_555 1_555
C13_3 C8_3 1_555 1_555
H6_3 C10_3 1_555 1_555
H7_3 C10_3 1_555 1_555
H8_3 C10_3 1_555 1_555
H9_2 C11_2 1_555 1_555
H10_4 C12_4 1_555 1_555
H11_4 C12_4 1_555 1_555
H12_4 C12_4 1_555 1_555
H14_4 C13_3 1_555 1_555
H15_3 C13_3 1_555 1_555
O3_2 Mn1_2 1_555 1_555
N5_2 Mn1_2 1_555 1_555
N6_2 Mn1_2 1_555 1_555
C14_2 O3_2 1_555 1_555
N7_2 N5_2 1_555 1_555
C15_2 N5_2 1_555 1_555
O4_2 C14_2 1_555 1_555
C16_2 C14_2 1_555 1_555
C18_2 C15_2 1_555 1_555
C19_2 C15_2 1_555 1_555
C21_4 C7_4 1_555 1_555
C23_2 C16_2 1_555 1_555
C24_2 C16_2 1_555 1_555
H17_2 C18_2 1_555 1_555
H18_2 C18_2 1_555 1_555
H19_2 C18_2 1_555 1_555
C26_2 C19_2 1_555 1_555
C29_4 C21_4 1_555 1_555
C30_4 C21_4 1_555 1_555
H21_2 C23_2 1_555 1_555
C33_2 C23_2 1_555 1_555
C34_2 C24_2 1_555 1_555
H22_2 C24_2 1_555 1_555
C36_2 C26_2 1_555 1_555
N8_4 C29_4 1_555 1_555
C40_4 C29_4 1_555 1_555
N9_4 C30_4 1_555 1_555
C41_4 C30_4 1_555 1_555
C43_3 C32_3 1_555 1_555
C44_2 C33_2 1_555 1_555
C45_2 C33_2 1_555 1_555
C46_2 C34_2 1_555 1_555
N13_2 C36_2 1_555 1_555
C48_2 C36_2 1_555 1_555
H27_4 N8_4 1_555 1_555
H28_4 C40_4 1_555 1_555
H29_6 C40_4 1_555 1_555
H30_4 C40_4 1_555 1_555
Mn11_2 N9_4 1_555 1_555
H31_4 C41_4 1_555 1_555
H32_4 C41_4 1_555 1_555
H33_4 C41_4 1_555 1_555
H38_3 C43_3 1_555 1_555
H39_3 C43_3 1_555 1_555
H40_3 C43_3 1_555 1_555
O9_2 C44_2 1_555 1_555
O10_2 C44_2 1_555 1_555
H41_2 C45_2 1_555 1_555
O11_2 C46_2 1_555 1_555
O12_2 C46_2 1_555 1_555
Mn10 N12_2 1_555 1_555
H45_2 N13_2 1_555 1_555
H46_2 C48_2 1_555 1_555
H47_2 C48_2 1_555 1_555
H48_2 C48_2 1_555 1_555
Mn5 N14_2 1_555 1_555
Mn8_2 O9_2 1_555 1_555
Mn9_2 O11_2 1_555 1_555
N14_2 C49_2 1_555 1_555
N15_2 Mn8_2 1_555 1_555
N16_2 Mn8_2 1_555 1_555
O13_2 Mn8_2 1_555 1_555
N17_2 Mn8_2 1_555 1_555
N18_2 Mn8_2 1_555 1_555
N19_2 Mn9_2 1_555 1_555
N20_2 Mn9_2 1_555 1_555
N21_2 Mn9_2 1_555 1_555
O14_2 Mn9_2 1_555 1_555
N22_2 Mn9_2 1_555 1_555
C49_2 C53_2 1_555 1_555
N23_2 N14_2 1_555 1_555
N24_2 N15_2 1_555 1_555
C50_2 N15_2 1_555 1_555
N25_2 N19_2 1_555 1_555
C51_2 N19_2 1_555 1_555
N26_2 N22_2 1_555 1_555
C52_2 N22_2 1_555 1_555
C53_2 H53_2 1_555 1_555
C54_2 C49_2 1_555 1_555
C55_2 N23_2 1_555 1_555
H49_2 N23_2 1_555 1_555
C56_2 N24_2 1_555 1_555
H50_2 N24_2 1_555 1_555
C57_2 C50_2 1_555 1_555
C58_2 C50_2 1_555 1_555
C60_2 C51_2 1_555 1_555
C61_2 C51_2 1_555 1_555
C62_2 N26_2 1_555 1_555
H52_2 N26_2 1_555 1_555
C63_2 C52_2 1_555 1_555
C64_2 C52_2 1_555 1_555
H54_2 C53_2 1_555 1_555
H55_2 C53_2 1_555 1_555
C65_2 C55_2 1_555 1_555
C66_2 C56_2 1_555 1_555
H56_2 C58_2 1_555 1_555
H57_2 C58_2 1_555 1_555
H58_2 C58_2 1_555 1_555
C68_2 C60_2 1_555 1_555
H59_2 C61_2 1_555 1_555
H60_2 C61_2 1_555 1_555
H61_2 C61_2 1_555 1_555
C69_2 C62_2 1_555 1_555
H62_2 C64_2 1_555 1_555
H63_2 C64_2 1_555 1_555
H64_2 C64_2 1_555 1_555
H65_2 C65_2 1_555 1_555
H66_2 C65_2 1_555 1_555
H67_2 C65_2 1_555 1_555
H68_2 C66_2 1_555 1_555
H69_2 C66_2 1_555 1_555
H70_2 C66_2 1_555 1_555
C72_2 C68_2 1_555 1_555
H75_4 C69_2 1_555 1_555
H76_2 C69_2 1_555 1_555
C76_2 C72_2 1_555 1_555
N28_2 C72_2 1_555 1_555
C77_2 C73_2 1_555 1_555
Mn4_2 N27_2 1_555 1_555
H80_2 C76_2 1_555 1_555
H81_2 C76_2 1_555 1_555
H82_2 C76_2 1_555 1_555
H83_2 N28_2 1_555 1_555
H84_2 C77_2 1_555 1_555
H85_2 C77_2 1_555 1_555
H86_2 C77_2 1_555 1_555
C5_4 C7_4 1_555 1_555
C8_3 C9_3 1_555 1_555
C34_2 C45_2 1_555 1_555
N8_4 N9_4 1_555 1_555
N12_2 N13_2 1_555 1_555
C54_2 C55_2 1_555 1_555
C54_2 C57_2 1_555 1_555
C56_2 C57_2 1_555 1_555
C62_2 C63_2 1_555 1_555
N27_2 N28_2 1_555 1_555
C25_2 C17_2 1_555 1_555
H20_2 C20_2 1_555 1_555
C31_3 C22_3 1_555 1_555
H23_2 C25_2 1_555 1_555
H24_2 C25_2 1_555 1_555
H25_2 C25_2 1_555 1_555
N10_3 C31_3 1_555 1_555
C42_3 C31_3 1_555 1_555
C47_2 C35_2 1_555 1_555
Mn3_3 N10_3 1_555 1_555
H34_3 C42_3 1_555 1_555
H35_3 C42_3 1_555 1_555
H36_3 C42_3 1_555 1_555
H37_3 N11_3 1_555 1_555
H42_2 C47_2 1_555 1_555
H43_2 C47_2 1_555 1_555
H44_2 C47_2 1_555 1_555
N10_3 N11_3 1_555 1_555
C37_2 C27_2 1_555 1_555
O14_2 C37_2 1_555 1_555
C39_2 C28_2 1_555 1_555
H26_2 C38_2 1_555 1_555
O13_2 C39_2 1_555 1_555
O8_2 C39_2 1_555 1_555
C28_2 C38_2 1_555 1_555
N3_5 N21_2 1_555 1_555
C2_5 N21_2 1_555 1_555
H1_5 N3_5 1_555 1_555
C6_5 C2_5 1_555 1_555
C7_5 C2_5 1_555 1_555
H3_5 C6_5 1_555 1_555
H4_5 C6_5 1_555 1_555
H5_5 C6_5 1_555 1_555
N26_3 N17_2 1_555 1_555
C52_3 N17_2 1_555 1_555
C62_3 N26_3 1_555 1_555
H52_3 N26_3 1_555 1_555
C63_3 C52_3 1_555 1_555
C64_3 C52_3 1_555 1_555
C69_3 C62_3 1_555 1_555
C70_3 C63_3 1_555 1_555
H62_3 C64_3 1_555 1_555
H63_3 C64_3 1_555 1_555
H64_3 C64_3 1_555 1_555
H74_3 C69_3 1_555 1_555
H75_5 C69_3 1_555 1_555
H76_3 C69_3 1_555 1_555
C73_3 C70_3 1_555 1_555
C74_3 C70_3 1_555 1_555
C77_3 C73_3 1_555 1_555
N29_3 C73_3 1_555 1_555
C78_3 C74_3 1_555 1_555
N30_3 C74_3 1_555 1_555
H84_3 C77_3 1_555 1_555
H85_3 C77_3 1_555 1_555
H86_3 C77_3 1_555 1_555
H87_3 N29_3 1_555 1_555
H88_3 C78_3 1_555 1_555
H89_3 C78_3 1_555 1_555
H90_3 C78_3 1_555 1_555
Mn11_3 N30_3 1_555 1_555
C62_3 C63_3 1_555 1_555
N29_3 N30_3 1_555 1_555
C12_5 C5_5 1_555 1_555
H10_5 C12_5 1_555 1_555
H11_5 C12_5 1_555 1_555
H12_5 C12_5 1_555 1_555
C29_5 C21_5 1_555 1_555
C30_5 C21_5 1_555 1_555
N8_5 C29_5 1_555 1_555
C40_5 C29_5 1_555 1_555
N9_5 C30_5 1_555 1_555
C41_5 C30_5 1_555 1_555
H27_5 N8_5 1_555 1_555
H29_8 C40_5 1_555 1_555
H30_5 C40_5 1_555 1_555
Mn11_3 N9_5 1_555 1_555
H31_5 C41_5 1_555 1_555
H32_5 C41_5 1_555 1_555
H33_5 C41_5 1_555 1_555
N8_5 N9_5 1_555 1_555
C12_6 C5_6 1_555 1_555
H10_6 C12_6 1_555 1_555
H11_6 C12_6 1_555 1_555
H12_6 C12_6 1_555 1_555
C29_6 C21_6 1_555 1_555
C30_6 C21_6 1_555 1_555
N8_6 C29_6 1_555 1_555
C40_6 C29_6 1_555 1_555
N9_6 C30_6 1_555 1_555
C41_6 C30_6 1_555 1_555
H27_6 N8_6 1_555 1_555
H29_9 C40_6 1_555 1_555
H30_6 C40_6 1_555 1_555
Mn3_3 N9_6 1_555 1_555
H31_6 C41_6 1_555 1_555
H32_6 C41_6 1_555 1_555
H33_6 C41_6 1_555 1_555
N8_6 N9_6 1_555 1_555
N3_6 N18_2 1_555 1_555
C2_6 N18_2 1_555 1_555
H1_6 N3_6 1_555 1_555
C6_6 C2_6 1_555 1_555
C7_6 C2_6 1_555 1_555
H3_6 C6_6 1_555 1_555
H4_6 C6_6 1_555 1_555
H5_6 C6_6 1_555 1_555
N8_7 C29_7 1_555 1_555
C40_7 C29_7 1_555 1_555
H27_7 N8_7 1_555 1_555
H28_7 C40_7 1_555 1_555
H29_11 C40_7 1_555 1_555
H30_7 C40_7 1_555 1_555
N3_7 N16_2 1_555 1_555
C2_7 N16_2 1_555 1_555
H1_7 N3_7 1_555 1_555
C5_7 N3_7 1_555 1_555
C6_7 C2_7 1_555 1_555
C7_7 C2_7 1_555 1_555
C12_7 C5_7 1_555 1_555
H3_7 C6_7 1_555 1_555
H4_7 C6_7 1_555 1_555
H5_7 C6_7 1_555 1_555
H11_7 C12_7 1_555 1_555
H12_7 C12_7 1_555 1_555
C21_7 C7_7 1_555 1_555
C30_7 C21_7 1_555 1_555
N9_7 C30_7 1_555 1_555
C41_7 C30_7 1_555 1_555
Mn4_2 N9_7 1_555 1_555
H31_7 C41_7 1_555 1_555
H32_7 C41_7 1_555 1_555
H33_7 C41_7 1_555 1_555
C5_7 C7_7 1_555 1_555
N3_8 N6_2 1_555 1_555
C2_8 N6_2 1_555 1_555
H1_8 N3_8 1_555 1_555
C5_8 N3_8 1_555 1_555
C6_8 C2_8 1_555 1_555
C7_8 C2_8 1_555 1_555
C12_8 C5_8 1_555 1_555
H3_8 C6_8 1_555 1_555
H4_8 C6_8 1_555 1_555
H5_8 C6_8 1_555 1_555
H10_8 C12_8 1_555 1_555
H11_8 C12_8 1_555 1_555
H12_8 C12_8 1_555 1_555
C21_8 C7_8 1_555 1_555
C29_8 C21_8 1_555 1_555
C30_8 C21_8 1_555 1_555
N8_8 C29_8 1_555 1_555
C40_8 C29_8 1_555 1_555
N9_8 C30_8 1_555 1_555
C41_8 C30_8 1_555 1_555
H27_8 N8_8 1_555 1_555
H28_8 C40_8 1_555 1_555
H29_12 C40_8 1_555 1_555
H30_8 C40_8 1_555 1_555
Mn5 N9_8 1_555 1_555
H31_8 C41_8 1_555 1_555
H32_8 C41_8 1_555 1_555
H33_8 C41_8 1_555 1_555
C5_8 C7_8 1_555 1_555
N8_8 N9_8 1_555 1_555
N3_9 N20_2 1_555 1_555
C2_9 N20_2 1_555 1_555
H1_9 N3_9 1_555 1_555
C5_9 N3_9 1_555 1_555
C6_9 C2_9 1_555 1_555
C7_9 C2_9 1_555 1_555
C12_9 C5_9 1_555 1_555
H3_9 C6_9 1_555 1_555
H4_9 C6_9 1_555 1_555
H5_9 C6_9 1_555 1_555
H11_9 C12_9 1_555 1_555
H12_9 C12_9 1_555 1_555
C21_9 C7_9 1_555 1_555
C30_9 C21_9 1_555 1_555
N9_9 C30_9 1_555 1_555
C41_9 C30_9 1_555 1_555
Mn10 N9_9 1_555 1_555
H31_9 C41_9 1_555 1_555
H32_9 C41_9 1_555 1_555
H33_9 C41_9 1_555 1_555
C5_9 C7_9 1_555 1_555
N8_9 C29_9 1_555 1_555
C40_9 C29_9 1_555 1_555
H27_9 N8_9 1_555 1_555
H28_9 C40_9 1_555 1_555
H29_13 C40_9 1_555 1_555
H30_9 C40_9 1_555 1_555
O13_3 Mn8_3 1_555 1_555
N17_3 Mn8_3 1_555 1_555
N18_3 Mn8_3 1_555 1_555
C56_3 N24_3 1_555 1_555
H50_3 N24_3 1_555 1_555
C66_3 C56_3 1_555 1_555
H68_3 C66_3 1_555 1_555
H69_3 C66_3 1_555 1_555
H70_3 C66_3 1_555 1_555
C6_10 C2_10 1_555 1_555
H2_4 N4_4 1_555 1_555
C8_4 N4_4 1_555 1_555
H3_10 C6_10 1_555 1_555
H4_10 C6_10 1_555 1_555
H5_10 C6_10 1_555 1_555
C13_4 C8_4 1_555 1_555
H13_4 C13_4 1_555 1_555
H14_6 C13_4 1_555 1_555
H15_4 C13_4 1_555 1_555
O3_3 Mn1_3 1_555 1_555
N5_3 Mn1_3 1_555 1_555
N6_3 Mn1_3 1_555 1_555
C14_3 O3_3 1_555 1_555
C15_3 N5_3 1_555 1_555
O4_3 C14_3 1_555 1_555
C16_3 C14_3 1_555 1_555
C18_3 C15_3 1_555 1_555
C19_3 C15_3 1_555 1_555
C23_3 C16_3 1_555 1_555
C24_3 C16_3 1_555 1_555
H17_3 C18_3 1_555 1_555
H18_3 C18_3 1_555 1_555
H19_3 C18_3 1_555 1_555
C26_3 C19_3 1_555 1_555
H21_3 C23_3 1_555 1_555
C33_3 C23_3 1_555 1_555
C34_3 C24_3 1_555 1_555
H22_3 C24_3 1_555 1_555
C35_3 C26_3 1_555 1_555
C36_3 C26_3 1_555 1_555
C40_10 C29_10 1_555 1_555
C44_3 C33_3 1_555 1_555
C45_3 C33_3 1_555 1_555
C46_3 C34_3 1_555 1_555
C47_3 C35_3 1_555 1_555
N12_3 C35_3 1_555 1_555
N13_3 C36_3 1_555 1_555
C48_3 C36_3 1_555 1_555
H28_10 C40_10 1_555 1_555
H29_14 C40_10 1_555 1_555
H30_10 C40_10 1_555 1_555
O9_3 C44_3 1_555 1_555
O10_3 C44_3 1_555 1_555
H41_3 C45_3 1_555 1_555
O11_3 C46_3 1_555 1_555
O12_3 C46_3 1_555 1_555
H42_3 C47_3 1_555 1_555
H43_3 C47_3 1_555 1_555
H44_3 C47_3 1_555 1_555
Mn11_2 N12_3 1_555 1_555
H45_3 N13_3 1_555 1_555
H46_3 C48_3 1_555 1_555
H47_3 C48_3 1_555 1_555
Mn3_3 N14_3 1_555 1_555
Mn8_4 O9_3 1_555 1_555
Mn9_3 O11_3 1_555 1_555
N14_3 C49_3 1_555 1_555
N15_3 Mn8_4 1_555 1_555
N16_3 Mn8_4 1_555 1_555
N19_3 Mn9_3 1_555 1_555
N20_3 Mn9_3 1_555 1_555
N21_3 Mn9_3 1_555 1_555
O14_3 Mn9_3 1_555 1_555
N22_3 Mn9_3 1_555 1_555
C49_3 C53_3 1_555 1_555
N23_3 N14_3 1_555 1_555
C50_3 N15_3 1_555 1_555
N25_3 N19_3 1_555 1_555
C51_3 N19_3 1_555 1_555
N26_4 N22_3 1_555 1_555
C52_4 N22_3 1_555 1_555
C53_3 H53_3 1_555 1_555
C54_3 C49_3 1_555 1_555
C55_3 N23_3 1_555 1_555
H49_3 N23_3 1_555 1_555
C57_3 C50_3 1_555 1_555
C58_3 C50_3 1_555 1_555
C59_3 N25_3 1_555 1_555
H51_3 N25_3 1_555 1_555
C60_3 C51_3 1_555 1_555
C61_3 C51_3 1_555 1_555
C62_4 N26_4 1_555 1_555
H52_4 N26_4 1_555 1_555
C63_4 C52_4 1_555 1_555
C64_4 C52_4 1_555 1_555
H54_3 C53_3 1_555 1_555
H55_3 C53_3 1_555 1_555
C65_3 C55_3 1_555 1_555
H56_3 C58_3 1_555 1_555
H57_3 C58_3 1_555 1_555
H58_3 C58_3 1_555 1_555
C67_3 C59_3 1_555 1_555
C68_3 C60_3 1_555 1_555
H59_3 C61_3 1_555 1_555
H60_3 C61_3 1_555 1_555
H61_3 C61_3 1_555 1_555
C69_4 C62_4 1_555 1_555
C70_4 C63_4 1_555 1_555
H62_4 C64_4 1_555 1_555
H63_4 C64_4 1_555 1_555
H64_4 C64_4 1_555 1_555
H65_3 C65_3 1_555 1_555
H66_3 C65_3 1_555 1_555
H71_3 C67_3 1_555 1_555
H72_3 C67_3 1_555 1_555
H73_3 C67_3 1_555 1_555
C71_3 C68_3 1_555 1_555
C72_3 C68_3 1_555 1_555
H74_4 C69_4 1_555 1_555
H75_6 C69_4 1_555 1_555
H76_4 C69_4 1_555 1_555
C73_4 C70_4 1_555 1_555
C74_4 C70_4 1_555 1_555
N27_3 C71_3 1_555 1_555
C75_3 C71_3 1_555 1_555
C76_3 C72_3 1_555 1_555
N28_3 C72_3 1_555 1_555
C77_4 C73_4 1_555 1_555
N29_4 C73_4 1_555 1_555
C78_4 C74_4 1_555 1_555
N30_4 C74_4 1_555 1_555
Mn11_3 N27_3 1_555 1_555
H77_3 C75_3 1_555 1_555
H78_3 C75_3 1_555 1_555
H79_3 C75_3 1_555 1_555
H80_3 C76_3 1_555 1_555
H81_3 C76_3 1_555 1_555
H82_3 C76_3 1_555 1_555
H83_3 N28_3 1_555 1_555
H84_4 C77_4 1_555 1_555
H85_4 C77_4 1_555 1_555
H86_4 C77_4 1_555 1_555
H87_4 N29_4 1_555 1_555
H88_4 C78_4 1_555 1_555
H89_4 C78_4 1_555 1_555
H90_4 C78_4 1_555 1_555
Mn3_2 N30_4 1_555 1_555
C34_3 C45_3 1_555 1_555
N12_3 N13_3 1_555 1_555
C54_3 C55_3 1_555 1_555
C54_3 C57_3 1_555 1_555
C59_3 C60_3 1_555 1_555
C62_4 C63_4 1_555 1_555
N27_3 N28_3 1_555 1_555
N29_4 N30_4 1_555 1_555
Mn1_4 O1_3 1_555 1_555
O1_3 C1_3 1_555 1_555
N1_3 Mn1_4 1_555 1_555
N2_3 Mn1_4 1_555 1_555
C1_3 O2_3 1_555 1_555
N3_10 N1_3 1_555 1_555
C3_4 N2_3 1_555 1_555
C4_3 C1_3 1_555 1_555
H1_10 N3_10 1_555 1_555
C5_10 N3_10 1_555 1_555
C9_4 C3_4 1_555 1_555
C10_4 C3_4 1_555 1_555
C11_3 C4_3 1_555 1_555
C12_10 C5_10 1_555 1_555
H6_4 C10_4 1_555 1_555
H7_4 C10_4 1_555 1_555
H8_4 C10_4 1_555 1_555
H9_3 C11_3 1_555 1_555
H10_10 C12_10 1_555 1_555
H11_10 C12_10 1_555 1_555
H12_10 C12_10 1_555 1_555
H16_3 N7_3 1_555 1_555
C17_3 N7_3 1_555 1_555
C20_3 C4_3 1_555 1_555
C21_10 C7_10 1_555 1_555
C22_4 C9_4 1_555 1_555
C25_3 C17_3 1_555 1_555
C27_3 C11_3 1_555 1_555
C28_3 C20_3 1_555 1_555
H20_3 C20_3 1_555 1_555
C30_10 C21_10 1_555 1_555
C31_4 C22_4 1_555 1_555
C32_4 C22_4 1_555 1_555
H23_3 C25_3 1_555 1_555
H24_3 C25_3 1_555 1_555
H25_3 C25_3 1_555 1_555
C37_3 C27_3 1_555 1_555
C38_3 C27_3 1_555 1_555
C39_3 C28_3 1_555 1_555
N9_10 C30_10 1_555 1_555
C41_10 C30_10 1_555 1_555
N10_4 C31_4 1_555 1_555
C42_4 C31_4 1_555 1_555
N11_4 C32_4 1_555 1_555
C43_4 C32_4 1_555 1_555
O14_3 C37_3 1_555 1_555
O6_3 C37_3 1_555 1_555
H26_3 C38_3 1_555 1_555
O13_3 C39_3 1_555 1_555
O8_3 C39_3 1_555 1_555
Mn3_2 N9_10 1_555 1_555
H31_10 C41_10 1_555 1_555
H32_10 C41_10 1_555 1_555
H33_10 C41_10 1_555 1_555
Mn3 N10_4 1_555 1_555
H34_4 C42_4 1_555 1_555
H35_4 C42_4 1_555 1_555
H36_4 C42_4 1_555 1_555
H37_4 N11_4 1_555 1_555
H39_4 C43_4 1_555 1_555
H40_4 C43_4 1_555 1_555
C5_10 C7_10 1_555 1_555
C28_3 C38_3 1_555 1_555
N8_10 N9_10 1_555 1_555
N10_4 N11_4 1_555 1_555
C52_5 N17_3 1_555 1_555
C63_5 C52_5 1_555 1_555
C64_5 C52_5 1_555 1_555
C70_5 C63_5 1_555 1_555
H62_5 C64_5 1_555 1_555
H63_5 C64_5 1_555 1_555
H64_5 C64_5 1_555 1_555
C73_5 C70_5 1_555 1_555
C74_5 C70_5 1_555 1_555
C77_5 C73_5 1_555 1_555
N29_5 C73_5 1_555 1_555
C78_5 C74_5 1_555 1_555
N30_5 C74_5 1_555 1_555
H85_5 C77_5 1_555 1_555
H86_5 C77_5 1_555 1_555
H87_5 N29_5 1_555 1_555
H88_5 C78_5 1_555 1_555
H89_5 C78_5 1_555 1_555
H90_5 C78_5 1_555 1_555
Mn11 N30_5 1_555 1_555
N29_5 N30_5 1_555 1_555
N3_11 N21_3 1_555 1_555
C2_11 N21_3 1_555 1_555
H1_11 N3_11 1_555 1_555
C5_11 N3_11 1_555 1_555
C6_11 C2_11 1_555 1_555
C7_11 C2_11 1_555 1_555
C12_11 C5_11 1_555 1_555
H3_11 C6_11 1_555 1_555
H4_11 C6_11 1_555 1_555
H5_11 C6_11 1_555 1_555
H10_11 C12_11 1_555 1_555
H11_11 C12_11 1_555 1_555
H12_11 C12_11 1_555 1_555
C21_11 C7_11 1_555 1_555
C29_11 C21_11 1_555 1_555
C30_11 C21_11 1_555 1_555
N8_11 C29_11 1_555 1_555
C40_11 C29_11 1_555 1_555
N9_11 C30_11 1_555 1_555
C41_11 C30_11 1_555 1_555
H27_11 N8_11 1_555 1_555
H28_11 C40_11 1_555 1_555
H29_15 C40_11 1_555 1_555
H30_11 C40_11 1_555 1_555
Mn11 N9_11 1_555 1_555
H31_11 C41_11 1_555 1_555
H32_11 C41_11 1_555 1_555
H33_11 C41_11 1_555 1_555
C62_5 N26_5 1_555 1_555
H52_5 N26_5 1_555 1_555
C69_5 C62_5 1_555 1_555
H74_5 C69_5 1_555 1_555
H75_7 C69_5 1_555 1_555
H76_5 C69_5 1_555 1_555
C5_11 C7_11 1_555 1_555
N8_11 N9_11 1_555 1_555
N3_12 N18_3 1_555 1_555
H1_12 N3_12 1_555 1_555
C5_12 N3_12 1_555 1_555
C12_12 C5_12 1_555 1_555
H10_12 C12_12 1_555 1_555
H11_12 C12_12 1_555 1_555
H12_12 C12_12 1_555 1_555
C21_12 C7_12 1_555 1_555
C30_12 C21_12 1_555 1_555
N9_12 C30_12 1_555 1_555
C41_12 C30_12 1_555 1_555
Mn3 N9_12 1_555 1_555
H31_12 C41_12 1_555 1_555
H32_12 C41_12 1_555 1_555
H33_12 C41_12 1_555 1_555
C5_12 C7_12 1_555 1_555
N8_12 N9_12 1_555 1_555
C6_12 C2_12 1_555 1_555
H3_12 C6_12 1_555 1_555
H4_12 C6_12 1_555 1_555
H5_12 C6_12 1_555 1_555
C40_12 C29_12 1_555 1_555
H28_12 C40_12 1_555 1_555
H29_16 C40_12 1_555 1_555
H30_12 C40_12 1_555 1_555
C6_13 C2_13 1_555 1_555
H3_13 C6_13 1_555 1_555
H4_13 C6_13 1_555 1_555
H5_13 C6_13 1_555 1_555
C40_13 C29_13 1_555 1_555
H28_13 C40_13 1_555 1_555
H29_17 C40_13 1_555 1_555
H30_13 C40_13 1_555 1_555
N3_13 N16_3 1_555 1_555
H1_13 N3_13 1_555 1_555
C5_13 N3_13 1_555 1_555
C12_13 C5_13 1_555 1_555
H10_13 C12_13 1_555 1_555
H11_13 C12_13 1_555 1_555
H12_13 C12_13 1_555 1_555
C21_13 C7_13 1_555 1_555
C30_13 C21_13 1_555 1_555
N9_13 C30_13 1_555 1_555
C41_13 C30_13 1_555 1_555
Mn11_3 N9_13 1_555 1_555
H31_13 C41_13 1_555 1_555
H32_13 C41_13 1_555 1_555
H33_13 C41_13 1_555 1_555
C5_13 C7_13 1_555 1_555
N8_13 N9_13 1_555 1_555
N3_14 N6_3 1_555 1_555
H1_14 N3_14 1_555 1_555
C5_14 N3_14 1_555 1_555
C12_14 C5_14 1_555 1_555
H10_14 C12_14 1_555 1_555
H11_14 C12_14 1_555 1_555
H12_14 C12_14 1_555 1_555
C21_14 C7_14 1_555 1_555
C30_14 C21_14 1_555 1_555
N9_14 C30_14 1_555 1_555
C41_14 C30_14 1_555 1_555
Mn3_3 N9_14 1_555 1_555
H31_14 C41_14 1_555 1_555
H32_14 C41_14 1_555 1_555
H33_14 C41_14 1_555 1_555
C5_14 C7_14 1_555 1_555
N8_14 N9_14 1_555 1_555
C6_14 C2_14 1_555 1_555
H3_14 C6_14 1_555 1_555
H4_14 C6_14 1_555 1_555
H5_14 C6_14 1_555 1_555
C40_14 C29_14 1_555 1_555
H28_14 C40_14 1_555 1_555
H29_18 C40_14 1_555 1_555
H30_14 C40_14 1_555 1_555
N3_15 N20_3 1_555 1_555
C2_15 N20_3 1_555 1_555
H1_15 N3_15 1_555 1_555
C5_15 N3_15 1_555 1_555
C6_15 C2_15 1_555 1_555
C7_15 C2_15 1_555 1_555
C12_15 C5_15 1_555 1_555
H3_15 C6_15 1_555 1_555
H4_15 C6_15 1_555 1_555
H5_15 C6_15 1_555 1_555
H10_15 C12_15 1_555 1_555
H11_15 C12_15 1_555 1_555
H12_15 C12_15 1_555 1_555
C21_15 C7_15 1_555 1_555
C29_15 C21_15 1_555 1_555
C30_15 C21_15 1_555 1_555
N8_15 C29_15 1_555 1_555
C40_15 C29_15 1_555 1_555
N9_15 C30_15 1_555 1_555
C41_15 C30_15 1_555 1_555
H27_15 N8_15 1_555 1_555
H28_15 C40_15 1_555 1_555
H29_19 C40_15 1_555 1_555
H30_15 C40_15 1_555 1_555
Mn11_2 N9_15 1_555 1_555
H31_15 C41_15 1_555 1_555
H32_15 C41_15 1_555 1_555
H33_15 C41_15 1_555 1_555
C5_15 C7_15 1_555 1_555
N8_15 N9_15 1_555 1_555
N8_16 C29_16 1_555 1_555
C40_16 C29_16 1_555 1_555
H27_16 N8_16 1_555 1_555
H28_16 C40_16 1_555 1_555
H29_20 C40_16 1_555 1_555
H30_16 C40_16 1_555 1_555
N3_16 N16 1_555 1_555
C2_16 N16 1_555 1_555
H1_16 N3_16 1_555 1_555
C5_16 N3_16 1_555 1_555
C6_16 C2_16 1_555 1_555
C7_16 C2_16 1_555 1_555
C12_16 C5_16 1_555 1_555
H3_16 C6_16 1_555 1_555
H4_16 C6_16 1_555 1_555
H5_16 C6_16 1_555 1_555
H11_16 C12_16 1_555 1_555
H12_16 C12_16 1_555 1_555
C21_16 C7_16 1_555 1_555
C30_16 C21_16 1_555 1_555
N9_16 C30_16 1_555 1_555
C41_16 C30_16 1_555 1_555
Mn10_2 N9_16 1_555 1_555
H31_16 C41_16 1_555 1_555
H32_16 C41_16 1_555 1_555
H33_16 C41_16 1_555 1_555
C5_16 C7_16 1_555 1_555
N3_17 N20 1_555 1_555
C2_17 N20 1_555 1_555
H1_17 N3_17 1_555 1_555
C5_17 N3_17 1_555 1_555
C6_17 C2_17 1_555 1_555
C7_17 C2_17 1_555 1_555
C12_17 C5_17 1_555 1_555
H3_17 C6_17 1_555 1_555
H4_17 C6_17 1_555 1_555
H5_17 C6_17 1_555 1_555
H11_17 C12_17 1_555 1_555
H12_17 C12_17 1_555 1_555
C21_17 C7_17 1_555 1_555
C30_17 C21_17 1_555 1_555
N9_17 C30_17 1_555 1_555
C41_17 C30_17 1_555 1_555
Mn4 N9_17 1_555 1_555
H31_17 C41_17 1_555 1_555
H32_17 C41_17 1_555 1_555
H33_17 C41_17 1_555 1_555
C5_17 C7_17 1_555 1_555
N8_17 C29_17 1_555 1_555
C40_17 C29_17 1_555 1_555
H27_17 N8_17 1_555 1_555
H28_17 C40_17 1_555 1_555
H29_21 C40_17 1_555 1_555
H30_17 C40_17 1_555 1_555
N3_18 N6 1_555 1_555
C2_18 N6 1_555 1_555
H1_18 N3_18 1_555 1_555
C5_18 N3_18 1_555 1_555
C6_18 C2_18 1_555 1_555
C7_18 C2_18 1_555 1_555
C12_18 C5_18 1_555 1_555
H3_18 C6_18 1_555 1_555
H4_18 C6_18 1_555 1_555
H5_18 C6_18 1_555 1_555
H10_18 C12_18 1_555 1_555
H11_18 C12_18 1_555 1_555
H12_18 C12_18 1_555 1_555
C21_18 C7_18 1_555 1_555
C29_18 C21_18 1_555 1_555
C30_18 C21_18 1_555 1_555
N8_18 C29_18 1_555 1_555
C40_18 C29_18 1_555 1_555
N9_18 C30_18 1_555 1_555
C41_18 C30_18 1_555 1_555
H27_18 N8_18 1_555 1_555
H28_18 C40_18 1_555 1_555
H29_22 C40_18 1_555 1_555
H30_18 C40_18 1_555 1_555
Mn5 N9_18 1_555 1_555
H31_18 C41_18 1_555 1_555
H32_18 C41_18 1_555 1_555
H33_18 C41_18 1_555 1_555
C5_18 C7_18 1_555 1_555
N8_18 N9_18 1_555 1_555
C39_4 C28_4 1_555 1_555
H26_4 C38_4 1_555 1_555
O7 C39_4 1_555 1_555
O8_4 C39_4 1_555 1_555
Mn11 O7 1_555 1_555
C28_4 C38_4 1_555 1_555
H20_4 C20_4 1_555 1_555
C37_4 C27_4 1_555 1_555
O5 C37_4 1_555 1_555
Mn3 O5 1_555 1_555
Mn3_2 O1_4 1_555 1_555
O1_4 C1_4 1_555 1_555
C4_4 C1_4 1_555 1_555
C11_4 C4_4 1_555 1_555
H9_4 C11_4 1_555 1_555
O3_4 Mn3_2 1_555 1_555
C14_4 O3_4 1_555 1_555
O4_4 C14_4 1_555 1_555
C16_4 C14_4 1_555 1_555
C23_4 C16_4 1_555 1_555
C24_4 C16_4 1_555 1_555
H21_4 C23_4 1_555 1_555
C33_4 C23_4 1_555 1_555
C34_4 C24_4 1_555 1_555
H22_4 C24_4 1_555 1_555
C44_4 C33_4 1_555 1_555
C45_4 C33_4 1_555 1_555
C46_4 C34_4 1_555 1_555
O9_4 C44_4 1_555 1_555
O10_4 C44_4 1_555 1_555
H41_4 C45_4 1_555 1_555
O11_4 C46_4 1_555 1_555
O12_4 C46_4 1_555 1_555
Mn11 O9_4 1_555 1_555
Mn3 O11_4 1_555 1_555
C34_4 C45_4 1_555 1_555
C39_5 C28_5 1_555 1_555
H26_5 C38_5 1_555 1_555
O7_2 C39_5 1_555 1_555
O8_5 C39_5 1_555 1_555
Mn11_2 O7_2 1_555 1_555
C28_5 C38_5 1_555 1_555
C37_5 C27_5 1_555 1_555
O5_2 C37_5 1_555 1_555
Mn3_3 O5_2 1_555 1_555
H20_5 C20_5 1_555 1_555
Mn11_3 O1_5 1_555 1_555
O1_5 C1_5 1_555 1_555
C4_5 C1_5 1_555 1_555
C11_5 C4_5 1_555 1_555
H9_5 C11_5 1_555 1_555
O3_5 Mn11_3 1_555 1_555
C14_5 O3_5 1_555 1_555
O4_5 C14_5 1_555 1_555
C16_5 C14_5 1_555 1_555
C23_5 C16_5 1_555 1_555
C24_5 C16_5 1_555 1_555
H21_5 C23_5 1_555 1_555
C33_5 C23_5 1_555 1_555
C34_5 C24_5 1_555 1_555
H22_5 C24_5 1_555 1_555
C44_5 C33_5 1_555 1_555
C45_5 C33_5 1_555 1_555
C46_5 C34_5 1_555 1_555
O9_5 C44_5 1_555 1_555
O10_5 C44_5 1_555 1_555
H41_5 C45_5 1_555 1_555
O11_5 C46_5 1_555 1_555
O12_5 C46_5 1_555 1_555
Mn11_2 O9_5 1_555 1_555
Mn3_3 O11_5 1_555 1_555
C34_5 C45_5 1_555 1_555
Mn4 O1_6 1_555 1_555
O1_6 C1_6 1_555 1_555
C1_6 O2_6 1_555 1_555
C4_6 C1_6 1_555 1_555
C11_6 C4_6 1_555 1_555
H9_6 C11_6 1_555 1_555
C20_6 C4_6 1_555 1_555
C27_6 C11_6 1_555 1_555
C28_6 C20_6 1_555 1_555
H20_6 C20_6 1_555 1_555
C37_6 C27_6 1_555 1_555
C38_6 C27_6 1_555 1_555
C39_6 C28_6 1_555 1_555
O5_3 C37_6 1_555 1_555
O6_6 C37_6 1_555 1_555
H26_6 C38_6 1_555 1_555
O7_3 C39_6 1_555 1_555
O8_6 C39_6 1_555 1_555
Mn5 O5_3 1_555 1_555
Mn10_2 O7_3 1_555 1_555
C28_6 C38_6 1_555 1_555
O3_6 Mn4_2 1_555 1_555
C14_6 O3_6 1_555 1_555
O4_6 C14_6 1_555 1_555
C16_6 C14_6 1_555 1_555
C23_6 C16_6 1_555 1_555
C24_6 C16_6 1_555 1_555
H21_6 C23_6 1_555 1_555
C33_6 C23_6 1_555 1_555
C34_6 C24_6 1_555 1_555
H22_6 C24_6 1_555 1_555
C44_6 C33_6 1_555 1_555
C45_6 C33_6 1_555 1_555
C46_6 C34_6 1_555 1_555
O9_6 C44_6 1_555 1_555
O10_6 C44_6 1_555 1_555
H41_6 C45_6 1_555 1_555
O11_6 C46_6 1_555 1_555
O12_6 C46_6 1_555 1_555
Mn10 O9_6 1_555 1_555
Mn5 O11_6 1_555 1_555
C34_6 C45_6 1_555 1_555

#END
