
###############################################################################
#
# This file contains modified crystal structure data generated from the
# MOF subset of the Cambridge Structural Database (CSD) v543 
# hosted by the Cambridge Crystallographic Data Centre (CCDC).
#
# This work is licensed under the Creative Commons
# Attribution-NonCommercial-ShareAlike 4.0 International License.
# To view a copy of this license, visit
# http://creativecommons.org/licenses/by-nc-sa/4.0/
# or send a letter to
# Creative Commons, PO Box 1866, Mountain View, CA 94042, USA.
#
# CIF created using the CSD Python API on 29 September 2022
# The structure has been converted into the P1 space group
# The structure has a 3D framework
# The original CSD entry LUKHEG is in the rhombohedral crystal system
# The framework has been calculated to contain at least 10.0% void space
# The void calculation uses a probe of radius 1.32A, grid spacing 0.4
#
###############################################################################

data_LUKHEG
_chemical_formula_moiety         '(C468 H540 Co21 N144 O72)n'
_symmetry_cell_setting           triclinic
_symmetry_space_group_name_H-M   'P 1'
_symmetry_Int_Tables_number      1
_space_group_name_Hall           'P 1'
loop_
_symmetry_equiv_pos_site_id
_symmetry_equiv_pos_as_xyz
1 x,y,z
_cell_length_a                   19.791(6)
_cell_length_b                   19.791(6)
_cell_length_c                   48.771(15)
_cell_angle_alpha                90
_cell_angle_beta                 90
_cell_angle_gamma                120
_cell_volume                     16543.5
loop_
_atom_site_label
_atom_site_type_symbol
_atom_site_fract_x
_atom_site_fract_y
_atom_site_fract_z
C30 C 0.2756(4) 0.1025(3) 0.03812(14)
H34 H 0.2487 0.1104 0.0530
H35 H 0.2611 0.1165 0.0212
H36 H 0.3310 0.1346 0.0408
C31 C 0.2544(4) 0.0185(3) 0.03713(12)
N9 N 0.3075(4) 0.0589(3) 0.94769(10)
N10 N 0.3643(4) 0.0407(3) 0.95296(11)
H32 H 0.4014 0.0500 0.9417
H40 H 0.4650 0.0271 0.9859
C36 C 0.3564(4) 0.0080(4) 0.97679(12)
C37 C 0.2894(4) 0.0019(3) 0.98934(12)
C38 C 0.2609(5) 0.0341(4) 0.96979(11)
C39 C 0.1886(4) 0.0397(4) 0.97220(13)
H43 H 0.1523 0.0085 0.9582
H44 H 0.1655 0.0211 0.9899
H45 H 0.2016 0.0930 0.9701
Co9 Co 0.3333 0.14380(4) 0.9167
Co1 Co 0.18950(4) 0.3333 0.0833
O1 O 0.24464(16) 0.45425(16) 0.07367(8)
O2 O 0.37367(17) 0.50415(16) 0.07120(8)
N3 N 0.1008(2) 0.3160(2) 0.05386(10)
N4 N 0.0284(2) 0.2558(2) 0.05895(10)
H2 H 0.0141 0.2328 0.0746
C3 C 0.0255(3) 0.2856(2) 0.01632(12)
C4 C 0.0997(3) 0.3353(3) 0.02821(12)
C5 C 0.1686(3) 0.4028(3) 0.01570(12)
H6 H 0.1749 0.4503 0.0233
H8 H 0.2144 0.3993 0.0194
H10 H 0.0284 0.4302 0.0070
C11 C 0.3132(2) 0.5105(2) 0.07230(11)
C12 C 0.3240(2) 0.5913(2) 0.07165(12)
C13 C 0.3987(2) 0.6577(2) 0.07210(12)
H15 H 0.4423 0.6516 0.0727
O3 O 0.54575(16) 0.79039(23) 0.07367(8)
O4 O 0.49585(16) 0.86952(23) 0.07120(8)
C14 C 0.4895(2) 0.8027(3) 0.07230(11)
C15 C 0.4087(2) 0.7327(3) 0.07165(12)
C16 C 0.3423(2) 0.7410(3) 0.07210(12)
H16 H 0.3484 0.7907 0.0727
O5 O 0.20961(23) 0.75536(16) 0.07367(8)
O6 O 0.13048(23) 0.62633(17) 0.07120(8)
C17 C 0.1973(3) 0.6868(2) 0.07230(11)
C18 C 0.2673(3) 0.6760(2) 0.07165(12)
C19 C 0.2590(3) 0.6013(2) 0.07210(12)
H17 H 0.2093 0.5577 0.0727
Co2 Co 0.6667 0.85620(4) 0.0833
N7 N 0.6840(2) 0.7848(3) 0.05386(10)
N8 N 0.7442(2) 0.7726(3) 0.05895(10)
H19 H 0.7672 0.7813 0.0746
C20 C 0.8269(3) 0.7244(4) 0.03812(14)
H20 H 0.8617 0.7513 0.0530
H21 H 0.8554 0.7389 0.0212
H22 H 0.8036 0.6690 0.0408
C21 C 0.7641(3) 0.7456(4) 0.03713(12)
C22 C 0.7144(2) 0.7399(4) 0.01632(12)
C23 C 0.6647(3) 0.7644(4) 0.02821(12)
C24 C 0.5972(3) 0.7658(4) 0.01570(12)
H23 H 0.5497 0.7246 0.0233
H25 H 0.6007 0.8151 0.0194
H27 H 0.5698 0.5982 0.0070
Co3 Co 0.14380(4) 0.81050(4) 0.0833
N11 N 0.2152(3) 0.8992(2) 0.05386(10)
N12 N 0.2274(3) 0.9716(2) 0.05895(10)
H33 H 0.2187 0.9859 0.0746
C32 C 0.2601(4) 0.9745(3) 0.01632(12)
C33 C 0.2356(4) 0.9003(3) 0.02821(12)
C34 C 0.2342(4) 0.8314(3) 0.01570(12)
H37 H 0.2754 0.8251 0.0233
H39 H 0.1849 0.7856 0.0194
H41 H 0.4018 0.9716 0.0070
N13 N 0.0589(3) 0.7514(2) 0.05231(10)
N14 N 0.0407(3) 0.6764(2) 0.04704(11)
H46 H 0.0500 0.6486 0.0583
H54 H 0.0271 0.5621 0.0141
C46 C 0.0080(4) 0.6516(2) 0.02321(12)
C47 C 0.0019(3) 0.7125(2) 0.01066(12)
C48 C 0.0341(4) 0.7732(3) 0.03021(11)
C49 C 0.0397(4) 0.8511(2) 0.02780(13)
H57 H 0.0085 0.8562 0.0418
H58 H 0.0211 0.8556 0.0101
H59 H 0.0930 0.8914 0.0299
N17 N 0.2486(2) 0.3075(4) 0.05231(10)
N18 N 0.3236(2) 0.3643(4) 0.04704(11)
H60 H 0.3514 0.4014 0.0583
H66 H 0.4026 0.2414 0.0038
C55 C 0.4280(3) 0.4126(5) 0.01202(15)
H68 H 0.4379 0.4650 0.0141
H70 H 0.4668 0.4068 0.0219
C56 C 0.3484(2) 0.3564(4) 0.02321(12)
C57 C 0.2875(2) 0.2894(4) 0.01066(12)
C58 C 0.2268(3) 0.2609(5) 0.03021(11)
C59 C 0.1489(2) 0.1886(4) 0.02780(13)
H71 H 0.1438 0.1523 0.0418
H72 H 0.1444 0.1655 0.0101
H73 H 0.1086 0.2016 0.0299
N21 N 0.2744(3) 0.3592(4) 0.11436(10)
N22 N 0.2926(3) 0.3024(4) 0.11963(11)
H74 H 0.2833 0.2653 0.1084
N23 N 0.4341(2) 0.4515(3) 0.22053(10)
N24 N 0.3617(2) 0.4393(3) 0.22562(10)
H75 H 0.3474 0.4480 0.2413
C60 C 0.2308(3) 0.3911(4) 0.20479(14)
H76 H 0.2229 0.4180 0.2197
H77 H 0.2168 0.4056 0.1879
H78 H 0.1987 0.3357 0.2075
C61 C 0.3148(3) 0.4123(4) 0.20380(12)
C62 C 0.3588(3) 0.4066(4) 0.18299(12)
C63 C 0.4330(3) 0.4311(4) 0.19488(12)
C64 C 0.5019(3) 0.4325(4) 0.18237(12)
H79 H 0.5082 0.3913 0.1900
H80 H 0.4945 0.4253 0.1629
H81 H 0.5477 0.4818 0.1861
C65 C 0.3487(4) 0.2541(5) 0.15465(15)
H82 H 0.3062 0.2017 0.1526
H83 H 0.3617 0.2649 0.1737
H84 H 0.3933 0.2599 0.1448
C66 C 0.3253(4) 0.3103(4) 0.14346(12)
C67 C 0.3314(3) 0.3773(4) 0.15601(12)
C68 C 0.2992(4) 0.4058(5) 0.13646(11)
C69 C 0.2936(4) 0.4781(4) 0.13887(13)
H85 H 0.3248 0.5144 0.1249
H86 H 0.3122 0.5012 0.1566
H87 H 0.2403 0.4651 0.1368
O7 O 0.12372(23) 0.21242(16) 0.09300(8)
O8 O 0.20285(23) 0.16252(16) 0.09547(8)
C70 C 0.1360(3) 0.1562(2) 0.09437(11)
C71 C 0.0660(3) 0.0754(2) 0.09502(12)
C72 C 0.0743(3) 0.0090(2) 0.09457(12)
H88 H 0.1240 0.0151 0.0940
Co11 Co 0.52287(4) 0.52283(4) 0.2500
O13 O 0.78758(16) 0.91131(16) 0.09300(8)
O14 O 0.08869(16) 0.87628(23) 0.09300(8)
N25 N 0.6925(4) 0.9411(3) 0.05231(10)
N26 N 0.0847(2) 0.7256(3) 0.11436(10)
N27 N 0.6408(4) 0.9153(2) 0.11436(10)
N28 N 0.6493(2) 0.7675(2) 0.11281(10)
N29 N 0.2325(2) 0.8819(3) 0.11281(10)
N30 N 0.1181(3) 0.3507(2) 0.11281(10)
H7 H 0.1612 0.4026 0.9962
C6 C 0.0154(4) 0.4280(3) 0.98798(15)
H11 H 0.0600 0.4668 0.9781
N5 N 0.7514(2) 0.6925(4) 0.94769(10)
N6 N 0.6764(2) 0.6357(4) 0.95296(11)
H18 H 0.6486 0.5986 0.9417
H24 H 0.5974 0.7586 0.9962
C25 C 0.5720(3) 0.5874(5) 0.98798(15)
H26 H 0.5621 0.5350 0.9859
H28 H 0.5332 0.5932 0.9781
C26 C 0.6516(2) 0.6436(4) 0.97679(12)
C27 C 0.7125(2) 0.7106(4) 0.98934(12)
C28 C 0.7732(3) 0.7391(5) 0.96979(11)
C29 C 0.8511(2) 0.8114(4) 0.97220(13)
H29 H 0.8562 0.8477 0.9582
H30 H 0.8556 0.8345 0.9899
H31 H 0.8914 0.7984 0.9701
H38 H 0.2414 0.8388 0.9962
C35 C 0.4126(5) 0.9846(4) 0.98798(15)
H42 H 0.4068 0.9400 0.9781
C40 C 0.1025(3) 0.8269(3) 0.96188(14)
H48 H 0.1104 0.8617 0.9470
H49 H 0.1165 0.8554 0.9788
H50 H 0.1346 0.8036 0.9592
C41 C 0.0185(3) 0.7641(3) 0.96287(12)
N19 N 0.3160(2) 0.2152(3) 0.94614(10)
N20 N 0.2558(2) 0.2274(3) 0.94105(10)
H61 H 0.2328 0.2187 0.9254
C50 C 0.1731(3) 0.2756(4) 0.96188(14)
H62 H 0.1383 0.2487 0.9470
H63 H 0.1446 0.2611 0.9788
H64 H 0.1964 0.3310 0.9592
C51 C 0.2359(3) 0.2544(4) 0.96287(12)
C52 C 0.2856(2) 0.2601(4) 0.98368(12)
C53 C 0.3353(3) 0.2356(4) 0.97179(12)
C54 C 0.4028(3) 0.2342(4) 0.98430(12)
H65 H 0.4503 0.2754 0.9767
H67 H 0.3993 0.1849 0.9806
H69 H 0.4302 0.4018 0.9930
Co7 Co 0.81050(4) 0.6667 0.9167
C73 C 0.0201(2) 0.8640(3) 0.09437(11)
C74 C 0.0093(2) 0.9340(3) 0.09502(12)
C1 C 0.8975(3) 0.1731(3) 0.03812(14)
H3 H 0.8896 0.1383 0.0530
H4 H 0.8835 0.1446 0.0212
H5 H 0.8654 0.1964 0.0408
C2 C 0.9815(3) 0.2359(3) 0.03713(12)
H52 H 0.8388 0.5974 0.0038
C45 C 0.9846(4) 0.5720(3) 0.01202(15)
H56 H 0.9400 0.5332 0.0219
O12 O 0.83748(16) 0.04034(17) 0.09547(8)
C78 C 0.9910(2) 0.0654(2) 0.09457(12)
H90 H 0.9849 0.1090 0.0940
N1 N 0.9411(3) 0.2486(2) 0.94769(10)
N2 N 0.9593(3) 0.3236(2) 0.95296(11)
H1 H 0.9500 0.3514 0.9417
H9 H 0.9729 0.4379 0.9859
C7 C 0.9920(4) 0.3484(2) 0.97679(12)
C8 C 0.9981(3) 0.2875(2) 0.98934(12)
C9 C 0.9659(4) 0.2268(3) 0.96979(11)
C10 C 0.9603(4) 0.1489(2) 0.97220(13)
H12 H 0.9915 0.1438 0.9582
H13 H 0.9789 0.1444 0.9899
H14 H 0.9070 0.1086 0.9701
N15 N 0.8992(2) 0.6840(2) 0.94614(10)
N16 N 0.9716(2) 0.7442(2) 0.94105(10)
H47 H 0.9859 0.7672 0.9254
C42 C 0.9745(3) 0.7144(2) 0.98368(12)
C43 C 0.9003(3) 0.6647(3) 0.97179(12)
C44 C 0.8314(3) 0.5972(3) 0.98430(12)
H51 H 0.8251 0.5497 0.9767
H53 H 0.7856 0.6007 0.9806
H55 H 0.9716 0.5698 0.9930
Co10 Co 0.85620(4) 0.18950(4) 0.9167
O10 O 0.95966(17) 0.79715(23) 0.09547(8)
C75 C 0.9346(2) 0.9257(3) 0.09457(12)
H89 H 0.8910 0.8760 0.0940
C76 C 0.8438(2) 0.9799(2) 0.09437(11)
C77 C 0.9246(2) 0.9907(2) 0.09502(12)
H66_2 H 0.7586 0.1612 0.0038
C55_2 C 0.5874(5) 0.0154(6) 0.01202(15)
H70_2 H 0.5932 0.0600 0.0219
H74_2 H 0.7347 0.0181 0.1084
C63_2 C 0.5689(4) 0.0020(5) 0.19488(12)
C64_2 C 0.5675(4) 0.0695(5) 0.18237(12)
H79_2 H 0.6087 0.1170 0.1900
H80_2 H 0.5747 0.0693 0.1629
H81_2 H 0.5182 0.0660 0.1861
C65_2 C 0.7459(5) 0.0947(6) 0.15465(15)
H82_2 H 0.7983 0.1046 0.1526
H83_2 H 0.7351 0.0969 0.1737
H84_2 H 0.7401 0.1335 0.1448
C66_2 C 0.6897(4) 0.0151(6) 0.14346(12)
Co11_2 Co 0.47717(4) 0.00003(6) 0.2500
N19_2 N 0.7848(3) 0.1008(4) 0.94614(10)
N20_2 N 0.7726(3) 0.0284(4) 0.94105(10)
H61_2 H 0.7813 0.0141 0.9254
C52_2 C 0.7399(4) 0.0255(4) 0.98368(12)
C53_2 C 0.7644(4) 0.0997(5) 0.97179(12)
C54_2 C 0.7658(4) 0.1686(5) 0.98430(12)
H65_2 H 0.7246 0.1749 0.9767
H67_2 H 0.8151 0.2144 0.9806
H69_2 H 0.5982 0.0284 0.9930
N18_2 N 0.6357(4) 0.9593(4) 0.04704(11)
H60_2 H 0.5986 0.9500 0.0583
H68_2 H 0.5350 0.9729 0.0141
C56_2 C 0.6436(4) 0.9920(4) 0.02321(12)
C57_2 C 0.7106(4) 0.9981(4) 0.01066(12)
C58_2 C 0.7391(5) 0.9659(6) 0.03021(11)
C59_2 C 0.8114(4) 0.9603(4) 0.02780(13)
H71_2 H 0.8477 0.9915 0.0418
H72_2 H 0.8345 0.9789 0.0101
H73_2 H 0.7984 0.9070 0.0299
N22_2 N 0.6976(4) 0.9903(5) 0.11963(11)
N23_2 N 0.5485(3) 0.9827(4) 0.22053(10)
N24_2 N 0.5607(3) 0.9225(4) 0.22562(10)
H75_2 H 0.5520 0.8995 0.2413
C60_2 C 0.6089(4) 0.8398(5) 0.20479(14)
H76_2 H 0.5820 0.8050 0.2197
H77_2 H 0.5944 0.8113 0.1879
H78_2 H 0.6643 0.8631 0.2075
C61_2 C 0.5877(4) 0.9026(5) 0.20380(12)
C62_2 C 0.5934(4) 0.9523(5) 0.18299(12)
C67_2 C 0.6227(4) 0.9542(5) 0.15601(12)
C68_2 C 0.5942(5) 0.8935(6) 0.13646(11)
C69_2 C 0.5219(4) 0.8156(6) 0.13887(13)
H85_2 H 0.4856 0.8105 0.1249
H86_2 H 0.4988 0.8111 0.1566
H87_2 H 0.5349 0.7753 0.1368
Co11_3 Co 0.47717(4) 1.00003(6) 0.2500
C50_2 C 0.7244(4) 0.8975(5) 0.96188(14)
H62_2 H 0.7513 0.8896 0.9470
H63_2 H 0.7389 0.8835 0.9788
H64_2 H 0.6690 0.8654 0.9592
C51_2 C 0.7456(4) 0.9815(5) 0.96287(12)
N22_3 N 0.0097(5) 0.7074(3) 0.11963(11)
N23_3 N 0.0173(4) 0.5659(2) 0.22053(10)
N24_3 N 0.0775(4) 0.6383(2) 0.22562(10)
H75_3 H 0.1005 0.6526 0.2413
C60_3 C 0.1602(5) 0.7692(3) 0.20479(14)
H76_3 H 0.1950 0.7771 0.2197
H77_3 H 0.1887 0.7832 0.1879
H78_3 H 0.1369 0.8013 0.2075
C61_3 C 0.0974(5) 0.6852(3) 0.20380(12)
C62_3 C 0.0477(5) 0.6412(3) 0.18299(12)
C67_3 C 0.0458(5) 0.6686(3) 0.15601(12)
C68_3 C 0.1065(6) 0.7008(4) 0.13646(11)
C69_3 C 0.1844(6) 0.7064(4) 0.13887(13)
H85_3 H 0.1895 0.6752 0.1249
H86_3 H 0.1889 0.6878 0.1566
H87_3 H 0.2247 0.7597 0.1368
Co11_4 Co -0.00003(6) 0.47713(4) 0.2500
H74_3 H 0.9819 0.7167 0.1084
C63_3 C 0.9980(5) 0.5670(3) 0.19488(12)
C64_3 C 0.9305(5) 0.4981(3) 0.18237(12)
H79_3 H 0.8830 0.4918 0.1900
H80_3 H 0.9307 0.5055 0.1629
H81_3 H 0.9340 0.4523 0.1861
C65_3 C 0.9053(6) 0.6513(4) 0.15465(15)
H82_3 H 0.8954 0.6938 0.1526
H83_3 H 0.9031 0.6383 0.1737
H84_3 H 0.8665 0.6067 0.1448
C66_3 C 0.9849(6) 0.6747(4) 0.14346(12)
Co11_5 Co 0.99997(6) 0.47713(4) 0.2500
N9_2 N 0.0589(3) 0.3075(4) 0.55231(10)
N10_2 N 0.0407(3) 0.3643(4) 0.54704(11)
H32_2 H 0.0500 0.4014 0.5583
C30_2 C 0.1025(3) 0.2756(4) 0.46188(14)
H34_2 H 0.1104 0.2487 0.4470
H35_2 H 0.1165 0.2611 0.4788
H36_2 H 0.1346 0.3310 0.4592
C31_2 C 0.0185(3) 0.2544(4) 0.46287(12)
H40_2 H 0.0271 0.4650 0.5141
C36_2 C 0.0080(4) 0.3564(4) 0.52321(12)
C37_2 C 0.0019(3) 0.2894(4) 0.51066(12)
C38_2 C 0.0341(4) 0.2609(5) 0.53021(11)
C39_2 C 0.0397(4) 0.1886(4) 0.52780(13)
H43_2 H 0.0085 0.1523 0.5418
H44_2 H 0.0211 0.1655 0.5101
H45_2 H 0.0930 0.2016 0.5299
Co9_2 Co 0.14380(4) 0.3333 0.5833
Co1_2 Co 0.3333 0.18950(4) 0.4167
O1_2 O 0.45425(16) 0.24464(16) 0.42633(8)
O2_2 O 0.50415(16) 0.37367(17) 0.42880(8)
N3_2 N 0.3160(2) 0.1008(2) 0.44614(10)
N4_2 N 0.2558(2) 0.0284(2) 0.44105(10)
H2_2 H 0.2328 0.0141 0.4254
C3_2 C 0.2856(2) 0.0255(3) 0.48368(12)
C4_2 C 0.3353(3) 0.0997(3) 0.47179(12)
C5_2 C 0.4028(3) 0.1686(3) 0.48430(12)
H6_2 H 0.4503 0.1749 0.4767
H7_2 H 0.4026 0.1612 0.5038
H8_2 H 0.3993 0.2144 0.4806
C6_2 C 0.4280(3) 0.0154(4) 0.51202(15)
H10_2 H 0.4302 0.0284 0.4930
H11_2 H 0.4668 0.0600 0.5219
C11_2 C 0.5105(2) 0.3132(2) 0.42770(11)
C12_2 C 0.5913(2) 0.3240(2) 0.42835(12)
C13_2 C 0.6577(2) 0.3987(2) 0.42790(12)
H15_2 H 0.6516 0.4423 0.4273
O3_2 O 0.79039(23) 0.54575(16) 0.42633(8)
O4_2 O 0.86952(23) 0.49585(16) 0.42880(8)
C14_2 C 0.8027(3) 0.4895(2) 0.42770(11)
C15_2 C 0.7327(3) 0.4087(2) 0.42835(12)
C16_2 C 0.7410(3) 0.3423(2) 0.42790(12)
H16_2 H 0.7907 0.3484 0.4273
O5_2 O 0.75536(16) 0.20961(23) 0.42633(8)
O6_2 O 0.62633(17) 0.13048(23) 0.42880(8)
C17_2 C 0.6868(2) 0.1973(3) 0.42770(11)
C18_2 C 0.6760(2) 0.2673(3) 0.42835(12)
C19_2 C 0.6013(2) 0.2590(3) 0.42790(12)
H17_2 H 0.5577 0.2093 0.4273
Co2_2 Co 0.85620(4) 0.6667 0.4167
N5_2 N 0.6925(4) 0.7514(2) 0.55231(10)
N6_2 N 0.6357(4) 0.6764(2) 0.54704(11)
H18_2 H 0.5986 0.6486 0.5583
N7_2 N 0.7848(3) 0.6840(2) 0.44614(10)
N8_2 N 0.7726(3) 0.7442(2) 0.44105(10)
H19_2 H 0.7813 0.7672 0.4254
C20_2 C 0.7244(4) 0.8269(3) 0.46188(14)
H20_2 H 0.7513 0.8617 0.4470
H21_2 H 0.7389 0.8554 0.4788
H22_2 H 0.6690 0.8036 0.4592
C21_2 C 0.7456(4) 0.7641(3) 0.46287(12)
C22_2 C 0.7399(4) 0.7144(2) 0.48368(12)
C23_2 C 0.7644(4) 0.6647(3) 0.47179(12)
C24_2 C 0.7658(4) 0.5972(3) 0.48430(12)
H23_2 H 0.7246 0.5497 0.4767
H24_2 H 0.7586 0.5974 0.5038
H25_2 H 0.8151 0.6007 0.4806
C25_2 C 0.5874(5) 0.5720(3) 0.51202(15)
H26_2 H 0.5350 0.5621 0.5141
H27_2 H 0.5982 0.5698 0.4930
H28_2 H 0.5932 0.5332 0.5219
C26_2 C 0.6436(4) 0.6516(2) 0.52321(12)
C27_2 C 0.7106(4) 0.7125(2) 0.51066(12)
C28_2 C 0.7391(5) 0.7732(3) 0.53021(11)
C29_2 C 0.8114(4) 0.8511(2) 0.52780(13)
H29_2 H 0.8477 0.8562 0.5418
H30_2 H 0.8345 0.8556 0.5101
H31_2 H 0.7984 0.8914 0.5299
Co3_2 Co 0.81050(4) 0.14380(4) 0.4167
N11_2 N 0.8992(2) 0.2152(3) 0.44614(10)
N12_2 N 0.9716(2) 0.2274(3) 0.44105(10)
H33_2 H 0.9859 0.2187 0.4254
C32_2 C 0.9745(3) 0.2601(4) 0.48368(12)
C33_2 C 0.9003(3) 0.2356(4) 0.47179(12)
C34_2 C 0.8314(3) 0.2342(4) 0.48430(12)
H37_2 H 0.8251 0.2754 0.4767
H38_2 H 0.8388 0.2414 0.5038
H39_2 H 0.7856 0.1849 0.4806
C35_2 C 0.9846(4) 0.4126(5) 0.51202(15)
H41_2 H 0.9716 0.4018 0.4930
H42_2 H 0.9400 0.4068 0.5219
N13_2 N 0.7514(2) 0.0589(3) 0.44769(10)
N14_2 N 0.6764(2) 0.0407(3) 0.45296(11)
H46_2 H 0.6486 0.0500 0.4417
C40_2 C 0.8269(3) 0.1025(3) 0.53812(14)
H48_2 H 0.8617 0.1104 0.5530
H49_2 H 0.8554 0.1165 0.5212
H50_2 H 0.8036 0.1346 0.5408
C41_2 C 0.7641(3) 0.0185(3) 0.53713(12)
H54_2 H 0.5621 0.0271 0.4859
C46_2 C 0.6516(2) 0.0080(4) 0.47679(12)
C47_2 C 0.7125(2) 0.0019(3) 0.48934(12)
C48_2 C 0.7732(3) 0.0341(4) 0.46979(11)
C49_2 C 0.8511(2) 0.0397(4) 0.47220(13)
H57_2 H 0.8562 0.0085 0.4582
H58_2 H 0.8556 0.0211 0.4899
H59_2 H 0.8914 0.0930 0.4701
N17_2 N 0.3075(4) 0.2486(2) 0.44769(10)
N18_3 N 0.3643(4) 0.3236(2) 0.45296(11)
H60_3 H 0.4014 0.3514 0.4417
N19_3 N 0.2152(3) 0.3160(2) 0.55386(10)
N20_3 N 0.2274(3) 0.2558(2) 0.55895(10)
H61_3 H 0.2187 0.2328 0.5746
C50_3 C 0.2756(4) 0.1731(3) 0.53812(14)
H62_3 H 0.2487 0.1383 0.5530
H63_3 H 0.2611 0.1446 0.5212
H64_3 H 0.3310 0.1964 0.5408
C51_3 C 0.2544(4) 0.2359(3) 0.53713(12)
C52_3 C 0.2601(4) 0.2856(2) 0.51632(12)
C53_3 C 0.2356(4) 0.3353(3) 0.52821(12)
C54_3 C 0.2342(4) 0.4028(3) 0.51570(12)
H65_3 H 0.2754 0.4503 0.5233
H66_3 H 0.2414 0.4026 0.4962
H67_3 H 0.1849 0.3993 0.5194
C55_3 C 0.4126(5) 0.4280(3) 0.48798(15)
H68_3 H 0.4650 0.4379 0.4859
H69_3 H 0.4018 0.4302 0.5070
H70_3 H 0.4068 0.4668 0.4781
C56_3 C 0.3564(4) 0.3484(2) 0.47679(12)
C57_3 C 0.2894(4) 0.2875(2) 0.48934(12)
C58_3 C 0.2609(5) 0.2268(3) 0.46979(11)
C59_3 C 0.1886(4) 0.1489(2) 0.47220(13)
H71_3 H 0.1523 0.1438 0.4582
H72_3 H 0.1655 0.1444 0.4899
H73_3 H 0.2016 0.1086 0.4701
N21_2 N 0.3592(4) 0.2744(3) 0.38564(10)
N22_4 N 0.3024(4) 0.2926(3) 0.38037(11)
H74_4 H 0.2653 0.2833 0.3916
N23_4 N 0.4515(3) 0.4341(2) 0.27947(10)
N24_4 N 0.4393(3) 0.3617(2) 0.27438(10)
H75_4 H 0.4480 0.3474 0.2587
C60_4 C 0.3911(4) 0.2308(3) 0.29521(14)
H76_4 H 0.4180 0.2229 0.2803
H77_4 H 0.4056 0.2168 0.3121
H78_4 H 0.3357 0.1987 0.2925
C61_4 C 0.4123(4) 0.3148(3) 0.29620(12)
C62_4 C 0.4066(4) 0.3588(3) 0.31701(12)
C63_4 C 0.4311(4) 0.4330(3) 0.30512(12)
C64_4 C 0.4325(4) 0.5019(3) 0.31763(12)
H79_4 H 0.3913 0.5082 0.3100
H80_4 H 0.4253 0.4945 0.3371
H81_4 H 0.4818 0.5477 0.3139
C65_4 C 0.2541(5) 0.3487(4) 0.34535(15)
H82_4 H 0.2017 0.3062 0.3474
H83_4 H 0.2649 0.3617 0.3263
H84_4 H 0.2599 0.3933 0.3552
C66_4 C 0.3103(4) 0.3253(4) 0.35654(12)
C67_4 C 0.3773(4) 0.3314(3) 0.34399(12)
C68_4 C 0.4058(5) 0.2992(4) 0.36354(11)
C69_4 C 0.4781(4) 0.2936(4) 0.36113(13)
H85_4 H 0.5144 0.3248 0.3751
H86_4 H 0.5012 0.3122 0.3434
H87_4 H 0.4651 0.2403 0.3632
O7_2 O 0.21242(16) 0.12372(23) 0.40700(8)
O8_2 O 0.16252(16) 0.20285(23) 0.40453(8)
C70_2 C 0.1562(2) 0.1360(3) 0.40563(11)
C71_2 C 0.0754(2) 0.0660(3) 0.40498(12)
C72_2 C 0.0090(2) 0.0743(3) 0.40543(12)
H88_2 H 0.0151 0.1240 0.4060
Co7_2 Co 0.6667 0.81050(4) 0.5833
O13_2 O 0.91131(16) 0.78758(16) 0.40700(8)
O14_2 O 0.87628(23) 0.08869(16) 0.40700(8)
N25_2 N 0.9411(3) 0.6925(4) 0.44769(10)
N26_2 N 0.7256(3) 0.0847(2) 0.38564(10)
N27_2 N 0.9153(2) 0.6408(4) 0.38564(10)
N28_2 N 0.7675(2) 0.6493(2) 0.38719(10)
N29_2 N 0.8819(3) 0.2325(2) 0.38719(10)
N30_2 N 0.3507(2) 0.1181(3) 0.38719(10)
N1_2 N 0.2486(2) 0.9411(3) 0.55231(10)
N2_2 N 0.3236(2) 0.9593(3) 0.54704(11)
H1_2 H 0.3514 0.9500 0.5583
C1_2 C 0.1731(3) 0.8975(3) 0.46188(14)
H3_2 H 0.1383 0.8896 0.4470
H4_2 H 0.1446 0.8835 0.4788
H5_2 H 0.1964 0.8654 0.4592
C2_2 C 0.2359(3) 0.9815(3) 0.46287(12)
H9_2 H 0.4379 0.9729 0.5141
C7_2 C 0.3484(2) 0.9920(4) 0.52321(12)
C8_2 C 0.2875(2) 0.9981(3) 0.51066(12)
C9_2 C 0.2268(3) 0.9659(4) 0.53021(11)
C10_2 C 0.1489(2) 0.9603(4) 0.52780(13)
H12_2 H 0.1438 0.9915 0.5418
H13_2 H 0.1444 0.9789 0.5101
H14_2 H 0.1086 0.9070 0.5299
N15_2 N 0.6840(2) 0.8992(2) 0.55386(10)
N16_2 N 0.7442(2) 0.9716(2) 0.55895(10)
H47_2 H 0.7672 0.9859 0.5746
C42_2 C 0.7144(2) 0.9745(3) 0.51632(12)
C43_2 C 0.6647(3) 0.9003(3) 0.52821(12)
C44_2 C 0.5972(3) 0.8314(3) 0.51570(12)
H51_2 H 0.5497 0.8251 0.5233
H52_2 H 0.5974 0.8388 0.4962
H53_2 H 0.6007 0.7856 0.5194
C45_2 C 0.5720(3) 0.9846(4) 0.48798(15)
H55_2 H 0.5698 0.9716 0.5070
H56_2 H 0.5332 0.9400 0.4781
O12_2 O 0.04034(17) 0.83748(16) 0.40453(8)
C78_2 C 0.0654(2) 0.9910(2) 0.40543(12)
H90_2 H 0.1090 0.9849 0.4060
Co10_2 Co 0.18950(4) 0.85620(4) 0.5833
C73_2 C 0.8640(3) 0.0201(2) 0.40563(11)
C74_2 C 0.9340(3) 0.0093(2) 0.40498(12)
O10_2 O 0.79715(23) 0.95966(17) 0.40453(8)
C75_2 C 0.9257(3) 0.9346(2) 0.40543(12)
H89_2 H 0.8760 0.8910 0.4060
C76_2 C 0.9799(2) 0.8438(2) 0.40563(11)
C77_2 C 0.9907(2) 0.9246(2) 0.40498(12)
N15_3 N 0.1008(2) 0.7848(3) 0.55386(10)
N16_3 N 0.0284(2) 0.7726(3) 0.55895(10)
H47_3 H 0.0141 0.7813 0.5746
C42_3 C 0.0255(3) 0.7399(4) 0.51632(12)
C43_3 C 0.0997(3) 0.7644(4) 0.52821(12)
C44_3 C 0.1686(3) 0.7658(4) 0.51570(12)
H51_3 H 0.1749 0.7246 0.5233
H52_3 H 0.1612 0.7586 0.4962
H53_3 H 0.2144 0.8151 0.5194
C45_3 C 0.0154(4) 0.5874(5) 0.48798(15)
H55_3 H 0.0284 0.5982 0.5070
H56_3 H 0.0600 0.5932 0.4781
N14_3 N 0.9593(3) 0.6357(4) 0.45296(11)
H46_3 H 0.9500 0.5986 0.4417
C40_3 C 0.8975(3) 0.7244(4) 0.53812(14)
H48_3 H 0.8896 0.7513 0.5530
H49_3 H 0.8835 0.7389 0.5212
H50_3 H 0.8654 0.6690 0.5408
C41_3 C 0.9815(3) 0.7456(4) 0.53713(12)
H54_3 H 0.9729 0.5350 0.4859
C46_3 C 0.9920(4) 0.6436(4) 0.47679(12)
C47_3 C 0.9981(3) 0.7106(4) 0.48934(12)
C48_3 C 0.9659(4) 0.7391(5) 0.46979(11)
C49_3 C 0.9603(4) 0.8114(4) 0.47220(13)
H57_3 H 0.9915 0.8477 0.4582
H58_3 H 0.9789 0.8345 0.4899
H59_3 H 0.9070 0.7984 0.4701
N22_5 N 0.7074(3) 0.0097(5) 0.38037(11)
N23_5 N 0.5659(2) 0.0173(4) 0.27947(10)
N24_5 N 0.6383(2) 0.0775(4) 0.27438(10)
H75_5 H 0.6526 0.1005 0.2587
C60_5 C 0.7692(3) 0.1602(5) 0.29521(14)
H76_5 H 0.7771 0.1950 0.2803
H77_5 H 0.7832 0.1887 0.3121
H78_5 H 0.8013 0.1369 0.2925
C61_5 C 0.6852(3) 0.0974(5) 0.29620(12)
C62_5 C 0.6412(3) 0.0477(5) 0.31701(12)
C67_5 C 0.6686(3) 0.0458(5) 0.34399(12)
C68_5 C 0.7008(4) 0.1065(6) 0.36354(11)
C69_5 C 0.7064(4) 0.1844(6) 0.36113(13)
H85_5 H 0.6752 0.1895 0.3751
H86_5 H 0.6878 0.1889 0.3434
H87_5 H 0.7597 0.2247 0.3632
H74_5 H 0.7167 0.9819 0.3916
C63_5 C 0.5670(3) 0.9980(5) 0.30512(12)
C64_5 C 0.4981(3) 0.9305(5) 0.31763(12)
H79_5 H 0.4918 0.8830 0.3100
H80_5 H 0.5055 0.9307 0.3371
H81_5 H 0.4523 0.9340 0.3139
C65_5 C 0.6513(4) 0.9053(6) 0.34535(15)
H82_5 H 0.6938 0.8954 0.3474
H83_5 H 0.6383 0.9031 0.3263
H84_5 H 0.6067 0.8665 0.3552
C66_5 C 0.6747(4) 0.9849(6) 0.35654(12)
H74_6 H 0.0181 0.7347 0.3916
C63_6 C 0.0020(5) 0.5689(4) 0.30512(12)
C64_6 C 0.0695(5) 0.5675(4) 0.31763(12)
H79_6 H 0.1170 0.6087 0.3100
H80_6 H 0.0693 0.5747 0.3371
H81_6 H 0.0660 0.5182 0.3139
C65_6 C 0.0947(6) 0.7459(5) 0.34535(15)
H82_6 H 0.1046 0.7983 0.3474
H83_6 H 0.0969 0.7351 0.3263
H84_6 H 0.1335 0.7401 0.3552
C66_6 C 0.0151(6) 0.6897(4) 0.35654(12)
N22_6 N 0.9903(5) 0.6976(4) 0.38037(11)
N23_6 N 0.9827(4) 0.5485(3) 0.27947(10)
N24_6 N 0.9225(4) 0.5607(3) 0.27438(10)
H75_6 H 0.8995 0.5520 0.2587
C60_6 C 0.8398(5) 0.6089(4) 0.29521(14)
H76_6 H 0.8050 0.5820 0.2803
H77_6 H 0.8113 0.5944 0.3121
H78_6 H 0.8631 0.6643 0.2925
C61_6 C 0.9026(5) 0.5877(4) 0.29620(12)
C62_6 C 0.9523(5) 0.5934(4) 0.31701(12)
C67_6 C 0.9542(5) 0.6227(4) 0.34399(12)
C68_6 C 0.8935(6) 0.5942(5) 0.36354(11)
C69_6 C 0.8156(6) 0.5219(4) 0.36113(13)
H85_6 H 0.8105 0.4856 0.3751
H86_6 H 0.8111 0.4988 0.3434
H87_6 H 0.7753 0.5349 0.3632
N5_3 N 0.4181(2) 0.0258(4) 0.28102(10)
N8_3 N 0.4109(2) 0.1059(3) 0.39228(10)
H19_3 H 0.4339 0.1146 0.4079
C20_3 C 0.4936(3) 0.0577(4) 0.37145(14)
H20_3 H 0.5284 0.0846 0.3863
H21_3 H 0.5221 0.0722 0.3545
H22_3 H 0.4703 0.0023 0.3741
C21_3 C 0.4308(3) 0.0789(4) 0.37046(12)
C22_3 C 0.3811(2) 0.0732(4) 0.34965(12)
C23_3 C 0.3314(3) 0.0977(4) 0.36154(12)
C24_3 C 0.2639(3) 0.0991(4) 0.34903(12)
H23_3 H 0.2164 0.0579 0.3566
H24_3 H 0.2641 0.0919 0.3295
H25_3 H 0.2674 0.1484 0.3527
C27_3 C 0.3792(2) 0.0439(4) 0.32267(12)
C28_3 C 0.4399(3) 0.0724(5) 0.30312(11)
C29_3 C 0.5178(2) 0.1447(4) 0.30553(13)
H29_3 H 0.5229 0.1810 0.2915
H30_3 H 0.5223 0.1678 0.3232
H31_3 H 0.5581 0.1317 0.3034
N10_3 N 0.0310(4) 0.3740(3) 0.28629(11)
H32_3 H 0.0681 0.3833 0.2750
C35_3 C 0.0793(5) 0.3179(4) 0.32131(15)
H40_3 H 0.1317 0.3604 0.3192
H41_3 H 0.0685 0.3049 0.3403
H42_3 H 0.0735 0.2733 0.3114
C36_3 C 0.0231(4) 0.3413(4) 0.31012(12)
N6_3 N 0.3431(2) 0.9690(4) 0.28629(11)
H18_3 H 0.3153 0.9319 0.2750
C25_3 C 0.2387(3) 0.9207(5) 0.32131(15)
H26_3 H 0.2288 0.8683 0.3192
H27_3 H 0.2365 0.9315 0.3403
H28_3 H 0.1999 0.9265 0.3114
C26_3 C 0.3183(2) 0.9769(4) 0.31012(12)
N9_3 N 0.9742(4) 0.3922(3) 0.28102(10)
N12_3 N 0.8941(3) 0.3049(2) 0.39228(10)
H33_3 H 0.8854 0.3192 0.4079
C30_3 C 0.9423(4) 0.4358(3) 0.37145(14)
H34_3 H 0.9154 0.4437 0.3863
H35_3 H 0.9278 0.4498 0.3545
H36_3 H 0.9977 0.4679 0.3741
C31_3 C 0.9211(4) 0.3518(3) 0.37046(12)
C32_3 C 0.9268(4) 0.3078(3) 0.34965(12)
C33_3 C 0.9023(4) 0.2336(3) 0.36154(12)
C34_3 C 0.9009(4) 0.1647(3) 0.34903(12)
H37_3 H 0.9421 0.1584 0.3566
H38_3 H 0.9081 0.1721 0.3295
H39_3 H 0.8516 0.1189 0.3527
C37_3 C 0.9561(4) 0.3352(3) 0.32267(12)
C38_3 C 0.9276(5) 0.3674(4) 0.30312(11)
C39_3 C 0.8553(4) 0.3730(4) 0.30553(13)
H43_3 H 0.8190 0.3418 0.2915
H44_3 H 0.8322 0.3544 0.3232
H45_3 H 0.8683 0.4263 0.3034
N1_3 N 0.6078(3) 0.5819(2) 0.28102(10)
N2_3 N 0.6260(3) 0.6569(2) 0.28629(11)
H1_3 H 0.6167 0.6847 0.2750
N4_3 N 0.6951(2) 0.5891(2) 0.39228(10)
H2_3 H 0.6808 0.5661 0.4079
C1_3 C 0.5642(3) 0.5064(3) 0.37145(14)
H3_3 H 0.5563 0.4716 0.3863
H4_3 H 0.5502 0.4779 0.3545
H5_3 H 0.5321 0.5297 0.3741
C2_3 C 0.6482(3) 0.5692(3) 0.37046(12)
C3_3 C 0.6922(3) 0.6189(2) 0.34965(12)
C4_3 C 0.7664(3) 0.6686(3) 0.36154(12)
C5_3 C 0.8353(3) 0.7361(3) 0.34903(12)
H6_3 H 0.8416 0.7836 0.3566
H7_3 H 0.8279 0.7359 0.3295
H8_3 H 0.8811 0.7326 0.3527
C6_3 C 0.6821(4) 0.7613(3) 0.32131(15)
H9_3 H 0.6396 0.7712 0.3192
H10_3 H 0.6951 0.7635 0.3403
H11_3 H 0.7267 0.8001 0.3114
C7_3 C 0.6587(4) 0.6817(2) 0.31012(12)
C8_3 C 0.6648(3) 0.6208(2) 0.32267(12)
C9_3 C 0.6326(4) 0.5601(3) 0.30312(11)
C10_3 C 0.6270(4) 0.4822(2) 0.30553(13)
H12_3 H 0.6582 0.4771 0.2915
H13_3 H 0.6456 0.4777 0.3232
H14_3 H 0.5737 0.4419 0.3034
Co2_3 Co 0.52287(4) 0.0000 0.7500
N5_4 N 0.3592(4) 0.0847(2) 0.88564(10)
N6_4 N 0.3024(4) 0.0097(2) 0.88037(11)
N7_3 N 0.4515(3) 0.0173(2) 0.77947(10)
N8_4 N 0.4393(3) 0.0775(2) 0.77438(10)
H19_4 H 0.4480 0.1005 0.7587
C20_4 C 0.3911(4) 0.1602(3) 0.79521(14)
H20_4 H 0.4180 0.1950 0.7803
H21_4 H 0.4056 0.1887 0.8121
H22_4 H 0.3357 0.1369 0.7925
C21_4 C 0.4123(4) 0.0974(3) 0.79620(12)
C22_4 C 0.4066(4) 0.0477(2) 0.81701(12)
C27_4 C 0.3773(4) 0.0458(2) 0.84399(12)
C28_4 C 0.4058(5) 0.1065(3) 0.86354(11)
C29_4 C 0.4781(4) 0.1844(2) 0.86113(13)
H29_4 H 0.5144 0.1895 0.8751
H30_4 H 0.5012 0.1889 0.8434
H31_4 H 0.4651 0.2247 0.8632
O13_3 O 0.57797(16) 0.12092(16) 0.74034(8)
N25_3 N 0.6078(3) 0.0258(4) 0.78102(10)
Co1_3 Co -0.0000 0.52283(4) 0.7500
O1_3 O 0.12092(16) 0.57797(16) 0.75966(8)
O2_3 O 0.17082(16) 0.70700(17) 0.76213(8)
H1_4 H 0.0181 0.2833 0.8916
C4_4 C 0.0020(3) 0.4330(3) 0.80512(12)
C5_4 C 0.0695(3) 0.5019(3) 0.81763(12)
H6_4 H 0.1170 0.5082 0.8100
H7_4 H 0.0693 0.4945 0.8371
H8_4 H 0.0660 0.5477 0.8139
C6_4 C 0.0947(3) 0.3487(4) 0.84535(15)
H9_4 H 0.1046 0.3062 0.8474
H10_4 H 0.0969 0.3617 0.8263
H11_4 H 0.1335 0.3933 0.8552
C7_4 C 0.0151(2) 0.3253(4) 0.85654(12)
C11_3 C 0.1772(2) 0.6465(2) 0.76103(11)
C12_3 C 0.2580(2) 0.6573(2) 0.76168(12)
C13_3 C 0.3244(2) 0.7320(2) 0.76123(12)
H15_3 H 0.3183 0.7756 0.7606
O3_3 O 0.45706(23) 0.87908(16) 0.75966(8)
O4_3 O 0.53619(23) 0.82918(16) 0.76213(8)
C14_3 C 0.4694(3) 0.8228(2) 0.76103(11)
C15_3 C 0.3994(3) 0.7420(2) 0.76168(12)
C16_3 C 0.4077(3) 0.6756(2) 0.76123(12)
H16_3 H 0.4574 0.6817 0.7606
O5_3 O 0.42203(16) 0.54294(23) 0.75966(8)
O6_3 O 0.29300(17) 0.46381(23) 0.76213(8)
C17_3 C 0.3535(2) 0.5306(3) 0.76103(11)
C18_3 C 0.3427(2) 0.6006(3) 0.76168(12)
C19_3 C 0.2680(2) 0.5923(3) 0.76123(12)
H17_3 H 0.2244 0.5426 0.7606
Co2_4 Co 0.52287(4) 1.0000 0.7500
H18_4 H 0.2653 0.9819 0.8916
C23_4 C 0.4311(4) 0.9980(3) 0.80512(12)
C24_4 C 0.4325(4) 0.9305(3) 0.81763(12)
H23_4 H 0.3913 0.8830 0.8100
H24_4 H 0.4253 0.9307 0.8371
H25_4 H 0.4818 0.9340 0.8139
C25_4 C 0.2541(5) 0.9053(3) 0.84535(15)
H26_4 H 0.2017 0.8954 0.8474
H27_4 H 0.2649 0.9031 0.8263
H28_4 H 0.2599 0.8665 0.8552
C26_4 C 0.3103(4) 0.9849(2) 0.85654(12)
Co3_3 Co 0.47717(4) 0.47713(4) 0.7500
N9_4 N 0.7256(3) 0.6408(4) 0.88564(10)
N10_4 N 0.7074(3) 0.6976(4) 0.88037(11)
H32_4 H 0.7167 0.7347 0.8916
N11_3 N 0.5659(2) 0.5485(3) 0.77947(10)
N12_4 N 0.6383(2) 0.5607(3) 0.77438(10)
H33_4 H 0.6526 0.5520 0.7587
C30_4 C 0.7692(3) 0.6089(4) 0.79521(14)
H34_4 H 0.7771 0.5820 0.7803
H35_4 H 0.7832 0.5944 0.8121
H36_4 H 0.8013 0.6643 0.7925
C31_4 C 0.6852(3) 0.5877(4) 0.79620(12)
C32_4 C 0.6412(3) 0.5934(4) 0.81701(12)
C33_4 C 0.5670(3) 0.5689(4) 0.80512(12)
C34_4 C 0.4981(3) 0.5675(4) 0.81763(12)
H37_4 H 0.4918 0.6087 0.8100
H38_4 H 0.5055 0.5747 0.8371
H39_4 H 0.4523 0.5182 0.8139
C35_4 C 0.6513(4) 0.7459(5) 0.84535(15)
H40_4 H 0.6938 0.7983 0.8474
H41_4 H 0.6383 0.7351 0.8263
H42_4 H 0.6067 0.7401 0.8552
C36_4 C 0.6747(4) 0.6897(4) 0.85654(12)
C37_4 C 0.6686(3) 0.6227(4) 0.84399(12)
C38_4 C 0.7008(4) 0.5942(5) 0.86354(11)
C39_4 C 0.7064(4) 0.5219(4) 0.86113(13)
H43_4 H 0.6752 0.4856 0.8751
H44_4 H 0.6878 0.4988 0.8434
H45_4 H 0.7597 0.5349 0.8632
N13_3 N 0.4181(2) 0.3922(3) 0.78102(10)
N14_4 N 0.3431(2) 0.3740(3) 0.78629(11)
H46_4 H 0.3153 0.3833 0.7750
N15_4 N 0.3507(2) 0.2325(2) 0.88719(10)
N16_4 N 0.4109(2) 0.3049(2) 0.89228(10)
H47_4 H 0.4339 0.3192 0.9079
C40_4 C 0.4936(3) 0.4358(3) 0.87145(14)
H48_4 H 0.5284 0.4437 0.8863
H49_4 H 0.5221 0.4498 0.8545
H50_4 H 0.4703 0.4679 0.8741
C41_4 C 0.4308(3) 0.3518(3) 0.87046(12)
C42_4 C 0.3811(2) 0.3078(3) 0.84965(12)
C43_4 C 0.3314(3) 0.2336(3) 0.86154(12)
C44_4 C 0.2639(3) 0.1647(3) 0.84903(12)
H51_4 H 0.2164 0.1584 0.8566
H52_4 H 0.2641 0.1721 0.8295
H53_4 H 0.2674 0.1189 0.8527
C45_4 C 0.2387(3) 0.3179(4) 0.82131(15)
H54_4 H 0.2288 0.3604 0.8192
H55_4 H 0.2365 0.3049 0.8403
H56_4 H 0.1999 0.2733 0.8114
C46_4 C 0.3183(2) 0.3413(4) 0.81012(12)
C47_4 C 0.3792(2) 0.3352(3) 0.82267(12)
C48_4 C 0.4399(3) 0.3674(4) 0.80312(11)
C49_4 C 0.5178(2) 0.3730(4) 0.80553(13)
H57_4 H 0.5229 0.3418 0.7915
H58_4 H 0.5223 0.3544 0.8232
H59_4 H 0.5581 0.4263 0.8034
N18_4 N 0.0310(4) 0.6569(2) 0.78629(11)
H60_4 H 0.0681 0.6847 0.7750
C55_4 C 0.0793(5) 0.7613(3) 0.82131(15)
H68_4 H 0.1317 0.7712 0.8192
H69_4 H 0.0685 0.7635 0.8403
H70_4 H 0.0735 0.8001 0.8114
C56_4 C 0.0231(4) 0.6817(2) 0.81012(12)
N21_3 N 0.0258(4) 0.6078(3) 0.71898(10)
N23_7 N 0.1181(3) 0.7675(2) 0.61281(10)
N24_7 N 0.1059(3) 0.6951(2) 0.60772(10)
H75_7 H 0.1146 0.6808 0.5921
C60_7 C 0.0577(4) 0.5642(3) 0.62855(14)
H76_7 H 0.0846 0.5563 0.6137
H77_7 H 0.0722 0.5502 0.6455
H78_7 H 0.0023 0.5321 0.6259
C61_7 C 0.0789(4) 0.6482(3) 0.62954(12)
C62_7 C 0.0732(4) 0.6922(3) 0.65035(12)
C63_7 C 0.0977(4) 0.7664(3) 0.63846(12)
C64_7 C 0.0991(4) 0.8353(3) 0.65097(12)
H79_7 H 0.0579 0.8416 0.6434
H80_7 H 0.0919 0.8279 0.6705
H81_7 H 0.1484 0.8811 0.6473
C67_7 C 0.0439(4) 0.6648(3) 0.67733(12)
C68_7 C 0.0724(5) 0.6326(4) 0.69688(11)
C69_7 C 0.1447(4) 0.6270(4) 0.69447(13)
H85_7 H 0.1810 0.6582 0.7085
H86_7 H 0.1678 0.6456 0.6768
H87_7 H 0.1317 0.5737 0.6966
O14_3 O 0.54294(23) 0.42203(16) 0.74034(8)
N26_3 N 0.3922(3) 0.4181(2) 0.71898(10)
N27_3 N 0.5819(2) 0.9742(4) 0.71898(10)
N28_3 N 0.4341(2) 0.9827(2) 0.72053(10)
N29_3 N 0.5485(3) 0.5659(2) 0.72053(10)
N30_3 N 0.0173(2) 0.4515(3) 0.72053(10)
Co1_4 Co 1.0000 0.52283(4) 0.7500
N1_4 N 0.9153(2) 0.2744(3) 0.88564(10)
N2_4 N 0.9903(2) 0.2926(3) 0.88037(11)
N3_3 N 0.9827(2) 0.4341(2) 0.77947(10)
N4_4 N 0.9225(2) 0.3617(2) 0.77438(10)
H2_4 H 0.8995 0.3474 0.7587
C1_4 C 0.8398(3) 0.2308(3) 0.79521(14)
H3_4 H 0.8050 0.2229 0.7803
H4_4 H 0.8113 0.2168 0.8121
H5_4 H 0.8631 0.1987 0.7925
C2_4 C 0.9026(3) 0.3148(3) 0.79620(12)
C3_4 C 0.9523(2) 0.3588(3) 0.81701(12)
C8_4 C 0.9542(2) 0.3314(3) 0.84399(12)
C9_4 C 0.8935(3) 0.2992(4) 0.86354(11)
C10_4 C 0.8156(2) 0.2936(4) 0.86113(13)
H12_4 H 0.8105 0.3248 0.8751
H13_4 H 0.8111 0.3122 0.8434
H14_4 H 0.7753 0.2403 0.8632
N17_3 N 0.9742(4) 0.5819(2) 0.78102(10)
N19_4 N 0.8819(3) 0.6493(2) 0.88719(10)
N20_4 N 0.8941(3) 0.5891(2) 0.89228(10)
H61_4 H 0.8854 0.5661 0.9079
C50_4 C 0.9423(4) 0.5064(3) 0.87145(14)
H62_4 H 0.9154 0.4716 0.8863
H63_4 H 0.9278 0.4779 0.8545
H64_4 H 0.9977 0.5297 0.8741
C51_4 C 0.9211(4) 0.5692(3) 0.87046(12)
C52_4 C 0.9268(4) 0.6189(2) 0.84965(12)
C53_4 C 0.9023(4) 0.6686(3) 0.86154(12)
C54_4 C 0.9009(4) 0.7361(3) 0.84903(12)
H65_4 H 0.9421 0.7836 0.8566
H66_4 H 0.9081 0.7359 0.8295
H67_4 H 0.8516 0.7326 0.8527
C57_4 C 0.9561(4) 0.6208(2) 0.82267(12)
C58_4 C 0.9276(5) 0.5601(3) 0.80312(11)
C59_4 C 0.8553(4) 0.4822(2) 0.80553(13)
H71_4 H 0.8190 0.4771 0.7915
H72_4 H 0.8322 0.4777 0.8232
H73_4 H 0.8683 0.4419 0.8034
N22_7 N 0.9690(4) 0.6260(3) 0.71371(11)
H74_7 H 0.9319 0.6167 0.7250
C65_7 C 0.9207(5) 0.6821(4) 0.67869(15)
H82_7 H 0.8683 0.6396 0.6808
H83_7 H 0.9315 0.6951 0.6597
H84_7 H 0.9265 0.7267 0.6886
C66_7 C 0.9769(4) 0.6587(4) 0.68988(12)
O7_3 O 0.87908(16) 0.45706(23) 0.74034(8)
O8_3 O 0.82918(16) 0.53619(23) 0.73787(8)
C70_3 C 0.8228(2) 0.4694(3) 0.73897(11)
C71_3 C 0.7420(2) 0.3994(3) 0.73832(12)
C72_3 C 0.6756(2) 0.4077(3) 0.73877(12)
H88_3 H 0.6817 0.4574 0.7394
O10_3 O 0.46381(23) 0.29300(17) 0.73787(8)
C73_3 C 0.5306(3) 0.3535(2) 0.73897(11)
C74_3 C 0.6006(3) 0.3427(2) 0.73832(12)
C75_3 C 0.5923(3) 0.2680(2) 0.73877(12)
H89_3 H 0.5426 0.2244 0.7394
O12_3 O 0.70700(17) 0.17082(16) 0.73787(8)
C76_3 C 0.6465(2) 0.1772(2) 0.73897(11)
C77_3 C 0.6573(2) 0.2580(2) 0.73832(12)
C78_3 C 0.7320(2) 0.3244(2) 0.73877(12)
H90_3 H 0.7756 0.3183 0.7394
N15_5 N 0.7675(2) 0.1181(3) 0.88719(10)
N16_5 N 0.6951(2) 0.1059(3) 0.89228(10)
H47_5 H 0.6808 0.1146 0.9079
C40_5 C 0.5642(3) 0.0577(4) 0.87145(14)
H48_5 H 0.5563 0.0846 0.8863
H49_5 H 0.5502 0.0722 0.8545
H50_5 H 0.5321 0.0023 0.8741
C41_5 C 0.6482(3) 0.0789(4) 0.87046(12)
C42_5 C 0.6922(3) 0.0732(4) 0.84965(12)
C43_5 C 0.7664(3) 0.0977(4) 0.86154(12)
C44_5 C 0.8353(3) 0.0991(4) 0.84903(12)
H51_5 H 0.8416 0.0579 0.8566
H52_5 H 0.8279 0.0919 0.8295
H53_5 H 0.8811 0.1484 0.8527
C47_5 C 0.6648(3) 0.0439(4) 0.82267(12)
C48_5 C 0.6326(4) 0.0724(5) 0.80312(11)
C49_5 C 0.6270(4) 0.1447(4) 0.80553(13)
H57_5 H 0.6582 0.1810 0.7915
H58_5 H 0.6456 0.1678 0.8232
H59_5 H 0.5737 0.1317 0.8034
N14_5 N 0.6260(3) 0.9690(4) 0.78629(11)
H46_5 H 0.6167 0.9319 0.7750
C45_5 C 0.6821(4) 0.9207(5) 0.82131(15)
H54_5 H 0.6396 0.8683 0.8192
H55_5 H 0.6951 0.9315 0.8403
H56_5 H 0.7267 0.9265 0.8114
C46_5 C 0.6587(4) 0.9769(4) 0.81012(12)
N22_8 N 0.3740(3) 0.3431(5) 0.71371(11)
H74_8 H 0.3833 0.3153 0.7250
N23_8 N 0.2325(2) 0.3507(4) 0.61281(10)
N24_8 N 0.3049(2) 0.4109(4) 0.60772(10)
H75_8 H 0.3192 0.4339 0.5921
C60_8 C 0.4358(3) 0.4936(5) 0.62855(14)
H76_8 H 0.4437 0.5284 0.6137
H77_8 H 0.4498 0.5221 0.6455
H78_8 H 0.4679 0.4703 0.6259
C61_8 C 0.3518(3) 0.4308(5) 0.62954(12)
C62_8 C 0.3078(3) 0.3811(5) 0.65035(12)
C63_8 C 0.2336(3) 0.3314(5) 0.63846(12)
C64_8 C 0.1647(3) 0.2639(5) 0.65097(12)
H79_8 H 0.1584 0.2164 0.6434
H80_8 H 0.1721 0.2641 0.6705
H81_8 H 0.1189 0.2674 0.6473
C65_8 C 0.3179(4) 0.2387(6) 0.67869(15)
H82_8 H 0.3604 0.2288 0.6808
H83_8 H 0.3049 0.2365 0.6597
H84_8 H 0.2733 0.1999 0.6886
C66_8 C 0.3413(4) 0.3183(6) 0.68988(12)
C67_8 C 0.3352(3) 0.3792(5) 0.67733(12)
C68_8 C 0.3674(4) 0.4399(6) 0.69688(11)
C69_8 C 0.3730(4) 0.5178(6) 0.69447(13)
H85_8 H 0.3418 0.5229 0.7085
H86_8 H 0.3544 0.5223 0.6768
H87_8 H 0.4263 0.5581 0.6966
N22_9 N 0.6569(5) 0.0310(4) 0.71371(11)
H74_9 H 0.6847 0.0681 0.7250
C65_9 C 0.7613(6) 0.0793(5) 0.67869(15)
H82_9 H 0.7712 0.1317 0.6808
H83_9 H 0.7635 0.0685 0.6597
H84_9 H 0.8001 0.0735 0.6886
C66_9 C 0.6817(6) 0.0231(4) 0.68988(12)
N23_9 N 0.6493(4) 0.8819(3) 0.61281(10)
N24_9 N 0.5891(4) 0.8941(3) 0.60772(10)
H75_9 H 0.5661 0.8854 0.5921
C60_9 C 0.5064(5) 0.9423(4) 0.62855(14)
H76_9 H 0.4716 0.9154 0.6137
H77_9 H 0.4779 0.9278 0.6455
H78_9 H 0.5297 0.9977 0.6259
C61_9 C 0.5692(5) 0.9211(4) 0.62954(12)
C62_9 C 0.6189(5) 0.9268(4) 0.65035(12)
C63_9 C 0.6686(5) 0.9023(4) 0.63846(12)
C64_9 C 0.7361(5) 0.9009(4) 0.65097(12)
H79_9 H 0.7836 0.9421 0.6434
H80_9 H 0.7359 0.9081 0.6705
H81_9 H 0.7326 0.8516 0.6473
C67_9 C 0.6208(5) 0.9561(4) 0.67733(12)
C68_9 C 0.5601(6) 0.9276(5) 0.69688(11)
C69_9 C 0.4822(6) 0.8553(4) 0.69447(13)
H85_9 H 0.4771 0.8190 0.7085
H86_9 H 0.4777 0.8322 0.6768
H87_9 H 0.4419 0.8683 0.6966
N5_5 N 0.0847(2) 0.3592(4) 0.61436(10)
N6_5 N 0.0097(2) 0.3024(4) 0.61963(11)
N8_5 N 0.0775(2) 0.4393(3) 0.72562(10)
H19_5 H 0.1005 0.4480 0.7413
C20_5 C 0.1602(3) 0.3911(4) 0.70479(14)
H20_5 H 0.1950 0.4180 0.7197
H21_5 H 0.1887 0.4056 0.6879
H22_5 H 0.1369 0.3357 0.7075
C21_5 C 0.0974(3) 0.4123(4) 0.70380(12)
C22_5 C 0.0477(2) 0.4066(4) 0.68299(12)
C27_5 C 0.0458(2) 0.3773(4) 0.65601(12)
C28_5 C 0.1065(3) 0.4058(5) 0.63646(11)
C29_5 C 0.1844(2) 0.4781(4) 0.63887(13)
H29_5 H 0.1895 0.5144 0.6249
H30_5 H 0.1889 0.5012 0.6566
H31_5 H 0.2247 0.4651 0.6368
H1_5 H 0.2833 0.0181 0.6084
C4_5 C 0.4330(3) 0.0020(3) 0.69488(12)
C5_5 C 0.5019(3) 0.0695(3) 0.68237(12)
H6_5 H 0.5082 0.1170 0.6900
H7_5 H 0.4945 0.0693 0.6629
H8_5 H 0.5477 0.0660 0.6861
C6_5 C 0.3487(4) 0.0947(3) 0.65465(15)
H9_5 H 0.3062 0.1046 0.6526
H10_5 H 0.3617 0.0969 0.6737
H11_5 H 0.3933 0.1335 0.6448
C7_5 C 0.3253(4) 0.0151(2) 0.64346(12)
H18_5 H 0.9819 0.2653 0.6084
C23_5 C 0.9980(3) 0.4311(4) 0.69488(12)
C24_5 C 0.9305(3) 0.4325(4) 0.68237(12)
H23_5 H 0.8830 0.3913 0.6900
H24_5 H 0.9307 0.4253 0.6629
H25_5 H 0.9340 0.4818 0.6861
C25_5 C 0.9053(3) 0.2541(5) 0.65465(15)
H26_5 H 0.8954 0.2017 0.6526
H27_5 H 0.9031 0.2649 0.6737
H28_5 H 0.8665 0.2599 0.6448
C26_5 C 0.9849(2) 0.3103(4) 0.64346(12)
N9_5 N 0.6408(4) 0.7256(3) 0.61436(10)
N10_5 N 0.6976(4) 0.7074(3) 0.61963(11)
H32_5 H 0.7347 0.7167 0.6084
N12_5 N 0.5607(3) 0.6383(2) 0.72562(10)
H33_5 H 0.5520 0.6526 0.7413
C30_5 C 0.6089(4) 0.7692(3) 0.70479(14)
H34_5 H 0.5820 0.7771 0.7197
H35_5 H 0.5944 0.7832 0.6879
H36_5 H 0.6643 0.8013 0.7075
C31_5 C 0.5877(4) 0.6852(3) 0.70380(12)
C32_5 C 0.5934(4) 0.6412(3) 0.68299(12)
C33_5 C 0.5689(4) 0.5670(3) 0.69488(12)
C34_5 C 0.5675(4) 0.4981(3) 0.68237(12)
H37_5 H 0.6087 0.4918 0.6900
H38_5 H 0.5747 0.5055 0.6629
H39_5 H 0.5182 0.4523 0.6861
C35_5 C 0.7459(5) 0.6513(4) 0.65465(15)
H40_5 H 0.7983 0.6938 0.6526
H41_5 H 0.7351 0.6383 0.6737
H42_5 H 0.7401 0.6067 0.6448
C36_5 C 0.6897(4) 0.6747(4) 0.64346(12)
C37_5 C 0.6227(4) 0.6686(3) 0.65601(12)
C38_5 C 0.5942(5) 0.7008(4) 0.63646(11)
C39_5 C 0.5219(4) 0.7064(4) 0.63887(13)
H43_5 H 0.4856 0.6752 0.6249
H44_5 H 0.4988 0.6878 0.6566
H45_5 H 0.5349 0.7597 0.6368
N1_5 N 0.2744(3) 0.9153(2) 0.61436(10)
N2_5 N 0.2926(3) 0.9903(2) 0.61963(11)
N4_5 N 0.3617(2) 0.9225(2) 0.72562(10)
H2_5 H 0.3474 0.8995 0.7413
C1_5 C 0.2308(3) 0.8398(3) 0.70479(14)
H3_5 H 0.2229 0.8050 0.7197
H4_5 H 0.2168 0.8113 0.6879
H5_5 H 0.1987 0.8631 0.7075
C2_5 C 0.3148(3) 0.9026(3) 0.70380(12)
C3_5 C 0.3588(3) 0.9523(2) 0.68299(12)
C8_5 C 0.3314(3) 0.9542(2) 0.65601(12)
C9_5 C 0.2992(4) 0.8935(3) 0.63646(11)
C10_5 C 0.2936(4) 0.8156(2) 0.63887(13)
H12_5 H 0.3248 0.8105 0.6249
H13_5 H 0.3122 0.8111 0.6566
H14_5 H 0.2403 0.7753 0.6368
N5_6 N 0.0258(4) 0.4181(2) 0.21898(10)
N8_6 N 0.1059(3) 0.4109(2) 0.10772(10)
H19_6 H 0.1146 0.4339 0.0921
C20_6 C 0.0577(4) 0.4936(3) 0.12855(14)
H20_6 H 0.0846 0.5284 0.1137
H21_6 H 0.0722 0.5221 0.1455
H22_6 H 0.0023 0.4703 0.1259
C21_6 C 0.0789(4) 0.4308(3) 0.12954(12)
C22_6 C 0.0732(4) 0.3811(2) 0.15035(12)
C23_6 C 0.0977(4) 0.3314(3) 0.13846(12)
C24_6 C 0.0991(4) 0.2639(3) 0.15097(12)
H23_6 H 0.0579 0.2164 0.1434
H24_6 H 0.0919 0.2641 0.1705
H25_6 H 0.1484 0.2674 0.1473
C27_6 C 0.0439(4) 0.3792(2) 0.17733(12)
C28_6 C 0.0724(5) 0.4399(3) 0.19688(11)
C29_6 C 0.1447(4) 0.5178(2) 0.19447(13)
H29_6 H 0.1810 0.5229 0.2085
H30_6 H 0.1678 0.5223 0.1768
H31_6 H 0.1317 0.5581 0.1966
N10_6 N 0.3740(3) 0.0310(4) 0.21371(11)
H32_6 H 0.3833 0.0681 0.2250
C35_6 C 0.3179(4) 0.0793(5) 0.17869(15)
H40_6 H 0.3604 0.1317 0.1808
H41_6 H 0.3049 0.0685 0.1597
H42_6 H 0.2733 0.0735 0.1886
C36_6 C 0.3413(4) 0.0231(4) 0.18988(12)
N9_6 N 0.3922(3) 0.9742(4) 0.21898(10)
N12_6 N 0.3049(2) 0.8941(3) 0.10772(10)
H33_6 H 0.3192 0.8854 0.0921
C30_6 C 0.4358(3) 0.9423(4) 0.12855(14)
H34_6 H 0.4437 0.9154 0.1137
H35_6 H 0.4498 0.9278 0.1455
H36_6 H 0.4679 0.9977 0.1259
C31_6 C 0.3518(3) 0.9211(4) 0.12954(12)
C32_6 C 0.3078(3) 0.9268(4) 0.15035(12)
C33_6 C 0.2336(3) 0.9023(4) 0.13846(12)
C34_6 C 0.1647(3) 0.9009(4) 0.15097(12)
H37_6 H 0.1584 0.9421 0.1434
H38_6 H 0.1721 0.9081 0.1705
H39_6 H 0.1189 0.8516 0.1473
C37_6 C 0.3352(3) 0.9561(4) 0.17733(12)
C38_6 C 0.3674(4) 0.9276(5) 0.19688(11)
C39_6 C 0.3730(4) 0.8553(4) 0.19447(13)
H43_6 H 0.3418 0.8190 0.2085
H44_6 H 0.3544 0.8322 0.1768
H45_6 H 0.4263 0.8683 0.1966
N6_6 N 0.9690(4) 0.3431(2) 0.21371(11)
H18_6 H 0.9319 0.3153 0.2250
C25_6 C 0.9207(5) 0.2387(3) 0.17869(15)
H26_6 H 0.8683 0.2288 0.1808
H27_6 H 0.9315 0.2365 0.1597
H28_6 H 0.9265 0.1999 0.1886
C26_6 C 0.9769(4) 0.3183(2) 0.18988(12)
N1_6 N 0.5819(2) 0.6078(3) 0.21898(10)
N2_6 N 0.6569(2) 0.6260(3) 0.21371(11)
H1_6 H 0.6847 0.6167 0.2250
N4_6 N 0.5891(2) 0.6951(2) 0.10772(10)
H2_6 H 0.5661 0.6808 0.0921
C1_6 C 0.5064(3) 0.5642(3) 0.12855(14)
H3_6 H 0.4716 0.5563 0.1137
H4_6 H 0.4779 0.5502 0.1455
H5_6 H 0.5297 0.5321 0.1259
C2_6 C 0.5692(3) 0.6482(3) 0.12954(12)
C3_6 C 0.6189(2) 0.6922(3) 0.15035(12)
C4_6 C 0.6686(3) 0.7664(3) 0.13846(12)
C5_6 C 0.7361(3) 0.8353(3) 0.15097(12)
H6_6 H 0.7836 0.8416 0.1434
H7_6 H 0.7359 0.8279 0.1705
H8_6 H 0.7326 0.8811 0.1473
C6_6 C 0.7613(3) 0.6821(4) 0.17869(15)
H9_6 H 0.7712 0.6396 0.1808
H10_6 H 0.7635 0.6951 0.1597
H11_6 H 0.8001 0.7267 0.1886
C7_6 C 0.6817(2) 0.6587(4) 0.18988(12)
C8_6 C 0.6208(2) 0.6648(3) 0.17733(12)
C9_6 C 0.5601(3) 0.6326(4) 0.19688(11)
C10_6 C 0.4822(2) 0.6270(4) 0.19447(13)
H12_6 H 0.4771 0.6582 0.2085
H13_6 H 0.4777 0.6456 0.1768
H14_6 H 0.4419 0.5737 0.1966
O10_4 O 0.04034(17) 0.20285(23) 0.90453(8)
C75_4 C 0.0654(2) 0.0743(3) 0.90543(12)
H89_4 H 0.1090 0.1240 0.9060
O11 O 0.21242(16) 0.08869(16) 0.90700(8)
C76_4 C 0.1562(2) 0.0201(2) 0.90563(11)
C77_4 C 0.0754(2) 0.0093(2) 0.90498(12)
O12_4 O 0.16252(16) 0.95966(17) 0.90453(8)
C78_4 C 0.0090(2) 0.9346(2) 0.90543(12)
H90_4 H 0.0151 0.8910 0.9060
O9 O 0.91131(16) 0.12372(23) 0.90700(8)
C73_4 C 0.9799(2) 0.1360(3) 0.90563(11)
C74_4 C 0.9907(2) 0.0660(3) 0.90498(12)
O1_4 O 0.75536(16) 0.54575(16) 0.92633(8)
O2_4 O 0.62633(17) 0.49585(16) 0.92880(8)
C11_4 C 0.6868(2) 0.4895(2) 0.92770(11)
C12_4 C 0.6760(2) 0.4087(2) 0.92835(12)
C13_4 C 0.6013(2) 0.3423(2) 0.92790(12)
H15_4 H 0.5577 0.3484 0.9273
O3_4 O 0.45425(16) 0.20961(23) 0.92633(8)
O4_4 O 0.50415(16) 0.13048(23) 0.92880(8)
C14_4 C 0.5105(2) 0.1973(3) 0.92770(11)
C15_4 C 0.5913(2) 0.2673(3) 0.92835(12)
C16_4 C 0.6577(2) 0.2590(3) 0.92790(12)
H16_4 H 0.6516 0.2093 0.9273
O5_4 O 0.79039(23) 0.24464(16) 0.92633(8)
O6_4 O 0.86952(23) 0.37367(17) 0.92880(8)
C17_4 C 0.8027(3) 0.3132(2) 0.92770(11)
C18_4 C 0.7327(3) 0.3240(2) 0.92835(12)
C19_4 C 0.7410(3) 0.3987(2) 0.92790(12)
H17_4 H 0.7907 0.4423 0.9273
O7_4 O 0.87628(23) 0.78758(16) 0.90700(8)
O8_4 O 0.79715(23) 0.83748(16) 0.90453(8)
C70_4 C 0.8640(3) 0.8438(2) 0.90563(11)
C71_4 C 0.9340(3) 0.9246(2) 0.90498(12)
C72_4 C 0.9257(3) 0.9910(2) 0.90543(12)
H88_4 H 0.8760 0.9849 0.9060
O10_5 O 0.20285(23) 0.04034(17) 0.59547(8)
C75_5 C 0.0743(3) 0.0654(2) 0.59457(12)
H89_5 H 0.1240 0.1090 0.5940
O11_2 O 0.08869(16) 0.21242(16) 0.59300(8)
C76_5 C 0.0201(2) 0.1562(2) 0.59437(11)
C77_5 C 0.0093(2) 0.0754(2) 0.59502(12)
O9_2 O 0.12372(23) 0.91131(16) 0.59300(8)
C73_5 C 0.1360(3) 0.9799(2) 0.59437(11)
C74_5 C 0.0660(3) 0.9907(2) 0.59502(12)
O12_5 O 0.95966(17) 0.16252(16) 0.59547(8)
C78_5 C 0.9346(2) 0.0090(2) 0.59457(12)
H90_5 H 0.8910 0.0151 0.5940
O1_5 O 0.54575(16) 0.75536(16) 0.57367(8)
O2_5 O 0.49585(16) 0.62633(17) 0.57120(8)
C11_5 C 0.4895(2) 0.6868(2) 0.57230(11)
C12_5 C 0.4087(2) 0.6760(2) 0.57165(12)
C13_5 C 0.3423(2) 0.6013(2) 0.57210(12)
H15_5 H 0.3484 0.5577 0.5727
O3_5 O 0.20961(23) 0.45425(16) 0.57367(8)
O4_5 O 0.13048(23) 0.50415(16) 0.57120(8)
C14_5 C 0.1973(3) 0.5105(2) 0.57230(11)
C15_5 C 0.2673(3) 0.5913(2) 0.57165(12)
C16_5 C 0.2590(3) 0.6577(2) 0.57210(12)
H16_5 H 0.2093 0.6516 0.5727
O5_5 O 0.24464(16) 0.79039(23) 0.57367(8)
O6_5 O 0.37367(17) 0.86952(23) 0.57120(8)
C17_5 C 0.3132(2) 0.8027(3) 0.57230(11)
C18_5 C 0.3240(2) 0.7327(3) 0.57165(12)
C19_5 C 0.3987(2) 0.7410(3) 0.57210(12)
H17_5 H 0.4423 0.7907 0.5727
O7_5 O 0.78758(16) 0.87628(23) 0.59300(8)
O8_5 O 0.83748(16) 0.79715(23) 0.59547(8)
C70_5 C 0.8438(2) 0.8640(3) 0.59437(11)
C71_5 C 0.9246(2) 0.9340(3) 0.59502(12)
C72_5 C 0.9910(2) 0.9257(3) 0.59457(12)
H88_5 H 0.9849 0.8760 0.5940
O7_6 O 0.12092(16) 0.54294(23) 0.25966(8)
O8_6 O 0.17082(16) 0.46381(23) 0.26213(8)
C70_6 C 0.1772(2) 0.5306(3) 0.26103(11)
C71_6 C 0.2580(2) 0.6006(3) 0.26168(12)
C72_6 C 0.3244(2) 0.5923(3) 0.26123(12)
H88_6 H 0.3183 0.5426 0.2606
O9_3 O 0.45706(23) 0.57797(16) 0.25966(8)
O10_6 O 0.53619(23) 0.70700(17) 0.26213(8)
C73_6 C 0.4694(3) 0.6465(2) 0.26103(11)
C74_6 C 0.3994(3) 0.6573(2) 0.26168(12)
C75_6 C 0.4077(3) 0.7320(2) 0.26123(12)
H89_6 H 0.4574 0.7756 0.2606
O11_3 O 0.42203(16) 0.87908(16) 0.25966(8)
O12_6 O 0.29300(17) 0.82918(16) 0.26213(8)
C76_6 C 0.3535(2) 0.8228(2) 0.26103(11)
C77_6 C 0.3427(2) 0.7420(2) 0.26168(12)
C78_6 C 0.2680(2) 0.6756(2) 0.26123(12)
H90_6 H 0.2244 0.6817 0.2606
O1_6 O 0.87908(16) 0.42203(16) 0.24034(8)
O2_6 O 0.82918(16) 0.29300(17) 0.23787(8)
C11_6 C 0.8228(2) 0.3535(2) 0.23897(11)
C12_6 C 0.7420(2) 0.3427(2) 0.23832(12)
C13_6 C 0.6756(2) 0.2680(2) 0.23877(12)
H15_6 H 0.6817 0.2244 0.2394
O3_6 O 0.54294(23) 0.12092(16) 0.24034(8)
O4_6 O 0.46381(23) 0.17082(16) 0.23787(8)
C14_6 C 0.5306(3) 0.1772(2) 0.23897(11)
C15_6 C 0.6006(3) 0.2580(2) 0.23832(12)
C16_6 C 0.5923(3) 0.3244(2) 0.23877(12)
H16_6 H 0.5426 0.3183 0.2394
O5_6 O 0.57797(16) 0.45706(23) 0.24034(8)
O6_6 O 0.70700(17) 0.53619(23) 0.23787(8)
C17_6 C 0.6465(2) 0.4694(3) 0.23897(11)
C18_6 C 0.6573(2) 0.3994(3) 0.23832(12)
C19_6 C 0.7320(2) 0.4077(3) 0.23877(12)
H17_6 H 0.7756 0.4574 0.2394
loop_
_geom_bond_atom_site_label_1
_geom_bond_atom_site_label_2
_geom_bond_site_symmetry_1
_geom_bond_site_symmetry_2
C30 H34 1_555 1_555
H35 C30 1_555 1_555
H36 C30 1_555 1_555
C30 C31 1_555 1_555
N9 N10 1_555 1_555
N10 H32 1_555 1_555
C36 N10 1_555 1_555
C38 N9 1_555 1_555
C39 C38 1_555 1_555
H43 C39 1_555 1_555
H44 C39 1_555 1_555
H45 C39 1_555 1_555
Co9 N9 1_555 1_555
C36 C37 1_555 1_555
C37 C38 1_555 1_555
Co1 O1 1_555 1_555
O1 C11 1_555 1_555
O2 C11 1_555 1_555
N3 Co1 1_555 1_555
N4 N3 1_555 1_555
H2 N4 1_555 1_555
C4 N3 1_555 1_555
C5 C4 1_555 1_555
H6 C5 1_555 1_555
H8 C5 1_555 1_555
C11 C12 1_555 1_555
C12 C13 1_555 1_555
C13 H15 1_555 1_555
O3 C14 1_555 1_555
O4 C14 1_555 1_555
C14 C15 1_555 1_555
C15 C13 1_555 1_555
C16 C15 1_555 1_555
H16 C16 1_555 1_555
O5 C17 1_555 1_555
O6 C17 1_555 1_555
C17 C18 1_555 1_555
C18 C16 1_555 1_555
C19 C12 1_555 1_555
H17 C19 1_555 1_555
Co2 O3 1_555 1_555
N7 Co2 1_555 1_555
N8 N7 1_555 1_555
H19 N8 1_555 1_555
C20 H20 1_555 1_555
H21 C20 1_555 1_555
H22 C20 1_555 1_555
C21 N8 1_555 1_555
C22 C21 1_555 1_555
C23 N7 1_555 1_555
C24 C23 1_555 1_555
H23 C24 1_555 1_555
H25 C24 1_555 1_555
Co3 O5 1_555 1_555
N11 Co3 1_555 1_555
N12 N11 1_555 1_555
H33 N12 1_555 1_555
C33 N11 1_555 1_555
C34 C33 1_555 1_555
H37 C34 1_555 1_555
H39 C34 1_555 1_555
N13 Co3 1_555 1_555
N14 N13 1_555 1_555
H46 N14 1_555 1_555
C46 N14 1_555 1_555
C48 N13 1_555 1_555
C49 C48 1_555 1_555
H57 C49 1_555 1_555
H58 C49 1_555 1_555
H59 C49 1_555 1_555
N17 Co1 1_555 1_555
N18 N17 1_555 1_555
H60 N18 1_555 1_555
C55 H68 1_555 1_555
H70 C55 1_555 1_555
C56 N18 1_555 1_555
C58 N17 1_555 1_555
C59 C58 1_555 1_555
H71 C59 1_555 1_555
H72 C59 1_555 1_555
H73 C59 1_555 1_555
N21 Co1 1_555 1_555
N22 N21 1_555 1_555
H74 N22 1_555 1_555
N23 N24 1_555 1_555
N24 H75 1_555 1_555
C60 H76 1_555 1_555
H77 C60 1_555 1_555
H78 C60 1_555 1_555
C61 N24 1_555 1_555
C62 C61 1_555 1_555
C63 N23 1_555 1_555
C64 C63 1_555 1_555
H79 C64 1_555 1_555
H80 C64 1_555 1_555
H81 C64 1_555 1_555
C65 H82 1_555 1_555
H83 C65 1_555 1_555
H84 C65 1_555 1_555
C66 N22 1_555 1_555
C67 C62 1_555 1_555
C68 N21 1_555 1_555
C69 C68 1_555 1_555
H85 C69 1_555 1_555
H86 C69 1_555 1_555
H87 C69 1_555 1_555
O7 Co1 1_555 1_555
O8 C70 1_555 1_555
C70 O7 1_555 1_555
C71 C70 1_555 1_555
C72 C71 1_555 1_555
H88 C72 1_555 1_555
Co11 N23 1_555 1_555
O13 Co2 1_555 1_555
O14 Co3 1_555 1_555
N25 Co2 1_555 1_555
N26 Co3 1_555 1_555
N27 Co2 1_555 1_555
N28 Co2 1_555 1_555
N29 Co3 1_555 1_555
N30 Co1 1_555 1_555
C3 C4 1_555 1_555
C18 C19 1_555 1_555
C20 C21 1_555 1_555
C22 C23 1_555 1_555
C32 C33 1_555 1_555
C46 C47 1_555 1_555
C47 C48 1_555 1_555
C55 C56 1_555 1_555
C56 C57 1_555 1_555
C57 C58 1_555 1_555
C60 C61 1_555 1_555
C62 C63 1_555 1_555
C65 C66 1_555 1_555
C66 C67 1_555 1_555
C67 C68 1_555 1_555
H11 C6 1_555 1_555
N5 N6 1_555 1_555
N6 H18 1_555 1_555
C25 H26 1_555 1_555
H28 C25 1_555 1_555
C26 N6 1_555 1_555
C28 N5 1_555 1_555
C29 C28 1_555 1_555
H29 C29 1_555 1_555
H30 C29 1_555 1_555
H31 C29 1_555 1_555
H42 C35 1_555 1_555
C40 H48 1_555 1_555
H49 C40 1_555 1_555
H50 C40 1_555 1_555
N19 N20 1_555 1_555
N20 H61 1_555 1_555
C50 H62 1_555 1_555
H63 C50 1_555 1_555
H64 C50 1_555 1_555
C51 N20 1_555 1_555
C52 C51 1_555 1_555
C53 N19 1_555 1_555
C54 C53 1_555 1_555
H65 C54 1_555 1_555
H67 C54 1_555 1_555
Co7 N5 1_555 1_555
Co9 N19 1_555 1_555
C25 C26 1_555 1_555
C26 C27 1_555 1_555
C27 C28 1_555 1_555
C40 C41 1_555 1_555
C50 C51 1_555 1_555
C52 C53 1_555 1_555
O14 C73 1_555 1_555
C73 C74 1_555 1_555
C1 H3 1_555 1_555
H4 C1 1_555 1_555
H5 C1 1_555 1_555
H56 C45 1_555 1_555
H90 C78 1_555 1_555
C1 C2 1_555 1_555
N1 N2 1_555 1_555
N2 H1 1_555 1_555
C7 N2 1_555 1_555
C9 N1 1_555 1_555
C10 C9 1_555 1_555
H12 C10 1_555 1_555
H13 C10 1_555 1_555
H14 C10 1_555 1_555
N15 N16 1_555 1_555
N16 H47 1_555 1_555
C43 N15 1_555 1_555
C44 C43 1_555 1_555
H51 C44 1_555 1_555
H53 C44 1_555 1_555
Co7 N15 1_555 1_555
Co10 N1 1_555 1_555
C7 C8 1_555 1_555
C8 C9 1_555 1_555
C42 C43 1_555 1_555
H89 C75 1_555 1_555
O13 C76 1_555 1_555
C76 C77 1_555 1_555
C77 C75 1_555 1_555
H70_2 C55_2 1_555 1_555
C64_2 C63_2 1_555 1_555
H79_2 C64_2 1_555 1_555
H80_2 C64_2 1_555 1_555
H81_2 C64_2 1_555 1_555
C65_2 H82_2 1_555 1_555
H83_2 C65_2 1_555 1_555
H84_2 C65_2 1_555 1_555
C65_2 C66_2 1_555 1_555
N19_2 N20_2 1_555 1_555
N20_2 H61_2 1_555 1_555
C53_2 N19_2 1_555 1_555
C54_2 C53_2 1_555 1_555
H65_2 C54_2 1_555 1_555
H67_2 C54_2 1_555 1_555
Co10 N19_2 1_555 1_555
C52_2 C53_2 1_555 1_555
N18_2 N25 1_555 1_555
H60_2 N18_2 1_555 1_555
C56_2 N18_2 1_555 1_555
C58_2 N25 1_555 1_555
C59_2 C58_2 1_555 1_555
H71_2 C59_2 1_555 1_555
H72_2 C59_2 1_555 1_555
H73_2 C59_2 1_555 1_555
N22_2 N27 1_555 1_555
N23_2 N24_2 1_555 1_555
N24_2 H75_2 1_555 1_555
C60_2 H76_2 1_555 1_555
H77_2 C60_2 1_555 1_555
H78_2 C60_2 1_555 1_555
C61_2 N24_2 1_555 1_555
C62_2 C61_2 1_555 1_555
C67_2 C62_2 1_555 1_555
C68_2 N27 1_555 1_555
C69_2 C68_2 1_555 1_555
H85_2 C69_2 1_555 1_555
H86_2 C69_2 1_555 1_555
H87_2 C69_2 1_555 1_555
Co11_3 N23_2 1_555 1_555
C56_2 C57_2 1_555 1_555
C57_2 C58_2 1_555 1_555
C60_2 C61_2 1_555 1_555
C67_2 C68_2 1_555 1_555
C50_2 H62_2 1_555 1_555
H63_2 C50_2 1_555 1_555
H64_2 C50_2 1_555 1_555
C50_2 C51_2 1_555 1_555
N22_3 N26 1_555 1_555
N23_3 N24_3 1_555 1_555
N24_3 H75_3 1_555 1_555
C60_3 H76_3 1_555 1_555
H77_3 C60_3 1_555 1_555
H78_3 C60_3 1_555 1_555
C61_3 N24_3 1_555 1_555
C62_3 C61_3 1_555 1_555
C67_3 C62_3 1_555 1_555
C68_3 N26 1_555 1_555
C69_3 C68_3 1_555 1_555
H85_3 C69_3 1_555 1_555
H86_3 C69_3 1_555 1_555
H87_3 C69_3 1_555 1_555
Co11_4 N23_3 1_555 1_555
C60_3 C61_3 1_555 1_555
C67_3 C68_3 1_555 1_555
C64_3 C63_3 1_555 1_555
H79_3 C64_3 1_555 1_555
H80_3 C64_3 1_555 1_555
H81_3 C64_3 1_555 1_555
C65_3 H82_3 1_555 1_555
H83_3 C65_3 1_555 1_555
H84_3 C65_3 1_555 1_555
C65_3 C66_3 1_555 1_555
N9_2 N10_2 1_555 1_555
N10_2 H32_2 1_555 1_555
C30_2 H34_2 1_555 1_555
H35_2 C30_2 1_555 1_555
H36_2 C30_2 1_555 1_555
C36_2 N10_2 1_555 1_555
C38_2 N9_2 1_555 1_555
C39_2 C38_2 1_555 1_555
H43_2 C39_2 1_555 1_555
H44_2 C39_2 1_555 1_555
H45_2 C39_2 1_555 1_555
Co9_2 N9_2 1_555 1_555
C30_2 C31_2 1_555 1_555
C36_2 C37_2 1_555 1_555
C37_2 C38_2 1_555 1_555
Co1_2 O1_2 1_555 1_555
O1_2 C11_2 1_555 1_555
O2_2 C11_2 1_555 1_555
N3_2 Co1_2 1_555 1_555
N4_2 N3_2 1_555 1_555
H2_2 N4_2 1_555 1_555
C4_2 N3_2 1_555 1_555
C5_2 C4_2 1_555 1_555
H6_2 C5_2 1_555 1_555
H7_2 C5_2 1_555 1_555
H8_2 C5_2 1_555 1_555
H10_2 C6_2 1_555 1_555
H11_2 C6_2 1_555 1_555
C11_2 C12_2 1_555 1_555
C12_2 C13_2 1_555 1_555
C13_2 H15_2 1_555 1_555
O3_2 C14_2 1_555 1_555
O4_2 C14_2 1_555 1_555
C14_2 C15_2 1_555 1_555
C15_2 C13_2 1_555 1_555
C16_2 C15_2 1_555 1_555
H16_2 C16_2 1_555 1_555
O5_2 C17_2 1_555 1_555
O6_2 C17_2 1_555 1_555
C17_2 C18_2 1_555 1_555
C18_2 C16_2 1_555 1_555
C19_2 C12_2 1_555 1_555
H17_2 C19_2 1_555 1_555
Co2_2 O3_2 1_555 1_555
N5_2 N6_2 1_555 1_555
N6_2 H18_2 1_555 1_555
N7_2 Co2_2 1_555 1_555
N8_2 N7_2 1_555 1_555
H19_2 N8_2 1_555 1_555
C20_2 H20_2 1_555 1_555
H21_2 C20_2 1_555 1_555
H22_2 C20_2 1_555 1_555
C21_2 N8_2 1_555 1_555
C22_2 C21_2 1_555 1_555
C23_2 N7_2 1_555 1_555
C24_2 C23_2 1_555 1_555
H23_2 C24_2 1_555 1_555
H24_2 C24_2 1_555 1_555
H25_2 C24_2 1_555 1_555
C25_2 H26_2 1_555 1_555
H27_2 C25_2 1_555 1_555
H28_2 C25_2 1_555 1_555
C26_2 N6_2 1_555 1_555
C27_2 C22_2 1_555 1_555
C28_2 N5_2 1_555 1_555
C29_2 C28_2 1_555 1_555
H29_2 C29_2 1_555 1_555
H30_2 C29_2 1_555 1_555
H31_2 C29_2 1_555 1_555
Co3_2 O5_2 1_555 1_555
N11_2 Co3_2 1_555 1_555
N12_2 N11_2 1_555 1_555
H33_2 N12_2 1_555 1_555
C33_2 N11_2 1_555 1_555
C34_2 C33_2 1_555 1_555
H37_2 C34_2 1_555 1_555
H38_2 C34_2 1_555 1_555
H39_2 C34_2 1_555 1_555
H41_2 C35_2 1_555 1_555
H42_2 C35_2 1_555 1_555
N13_2 Co3_2 1_555 1_555
N14_2 N13_2 1_555 1_555
H46_2 N14_2 1_555 1_555
C40_2 H48_2 1_555 1_555
H49_2 C40_2 1_555 1_555
H50_2 C40_2 1_555 1_555
C46_2 N14_2 1_555 1_555
C48_2 N13_2 1_555 1_555
C49_2 C48_2 1_555 1_555
H57_2 C49_2 1_555 1_555
H58_2 C49_2 1_555 1_555
H59_2 C49_2 1_555 1_555
N17_2 Co1_2 1_555 1_555
N18_3 N17_2 1_555 1_555
H60_3 N18_3 1_555 1_555
N19_3 N20_3 1_555 1_555
N20_3 H61_3 1_555 1_555
C50_3 H62_3 1_555 1_555
H63_3 C50_3 1_555 1_555
H64_3 C50_3 1_555 1_555
C51_3 N20_3 1_555 1_555
C52_3 C51_3 1_555 1_555
C53_3 N19_3 1_555 1_555
C54_3 C53_3 1_555 1_555
H65_3 C54_3 1_555 1_555
H66_3 C54_3 1_555 1_555
H67_3 C54_3 1_555 1_555
C55_3 H68_3 1_555 1_555
H69_3 C55_3 1_555 1_555
H70_3 C55_3 1_555 1_555
C56_3 N18_3 1_555 1_555
C57_3 C52_3 1_555 1_555
C58_3 N17_2 1_555 1_555
C59_3 C58_3 1_555 1_555
H71_3 C59_3 1_555 1_555
H72_3 C59_3 1_555 1_555
H73_3 C59_3 1_555 1_555
N21_2 Co1_2 1_555 1_555
N22_4 N21_2 1_555 1_555
H74_4 N22_4 1_555 1_555
N23_4 N24_4 1_555 1_555
N24_4 H75_4 1_555 1_555
C60_4 H76_4 1_555 1_555
H77_4 C60_4 1_555 1_555
H78_4 C60_4 1_555 1_555
C61_4 N24_4 1_555 1_555
C62_4 C61_4 1_555 1_555
C63_4 N23_4 1_555 1_555
C64_4 C63_4 1_555 1_555
H79_4 C64_4 1_555 1_555
H80_4 C64_4 1_555 1_555
H81_4 C64_4 1_555 1_555
C65_4 H82_4 1_555 1_555
H83_4 C65_4 1_555 1_555
H84_4 C65_4 1_555 1_555
C66_4 N22_4 1_555 1_555
C67_4 C62_4 1_555 1_555
C68_4 N21_2 1_555 1_555
C69_4 C68_4 1_555 1_555
H85_4 C69_4 1_555 1_555
H86_4 C69_4 1_555 1_555
H87_4 C69_4 1_555 1_555
O7_2 Co1_2 1_555 1_555
O8_2 C70_2 1_555 1_555
C70_2 O7_2 1_555 1_555
C71_2 C70_2 1_555 1_555
C72_2 C71_2 1_555 1_555
H88_2 C72_2 1_555 1_555
Co7_2 N5_2 1_555 1_555
Co9_2 N19_3 1_555 1_555
Co11 N23_4 1_555 1_555
O13_2 Co2_2 1_555 1_555
O14_2 Co3_2 1_555 1_555
N25_2 Co2_2 1_555 1_555
N26_2 Co3_2 1_555 1_555
N27_2 Co2_2 1_555 1_555
N28_2 Co2_2 1_555 1_555
N29_2 Co3_2 1_555 1_555
N30_2 Co1_2 1_555 1_555
C3_2 C4_2 1_555 1_555
C18_2 C19_2 1_555 1_555
C20_2 C21_2 1_555 1_555
C22_2 C23_2 1_555 1_555
C25_2 C26_2 1_555 1_555
C26_2 C27_2 1_555 1_555
C27_2 C28_2 1_555 1_555
C32_2 C33_2 1_555 1_555
C40_2 C41_2 1_555 1_555
C46_2 C47_2 1_555 1_555
C47_2 C48_2 1_555 1_555
C50_3 C51_3 1_555 1_555
C52_3 C53_3 1_555 1_555
C55_3 C56_3 1_555 1_555
C56_3 C57_3 1_555 1_555
C57_3 C58_3 1_555 1_555
C60_4 C61_4 1_555 1_555
C62_4 C63_4 1_555 1_555
C65_4 C66_4 1_555 1_555
C66_4 C67_4 1_555 1_555
C67_4 C68_4 1_555 1_555
N1_2 N2_2 1_555 1_555
N2_2 H1_2 1_555 1_555
C1_2 H3_2 1_555 1_555
H4_2 C1_2 1_555 1_555
H5_2 C1_2 1_555 1_555
C7_2 N2_2 1_555 1_555
C9_2 N1_2 1_555 1_555
C10_2 C9_2 1_555 1_555
H12_2 C10_2 1_555 1_555
H13_2 C10_2 1_555 1_555
H14_2 C10_2 1_555 1_555
N15_2 N16_2 1_555 1_555
N16_2 H47_2 1_555 1_555
C43_2 N15_2 1_555 1_555
C44_2 C43_2 1_555 1_555
H51_2 C44_2 1_555 1_555
H52_2 C44_2 1_555 1_555
H53_2 C44_2 1_555 1_555
H55_2 C45_2 1_555 1_555
H56_2 C45_2 1_555 1_555
H90_2 C78_2 1_555 1_555
Co7_2 N15_2 1_555 1_555
Co10_2 N1_2 1_555 1_555
C1_2 C2_2 1_555 1_555
C7_2 C8_2 1_555 1_555
C8_2 C9_2 1_555 1_555
C42_2 C43_2 1_555 1_555
O14_2 C73_2 1_555 1_555
C73_2 C74_2 1_555 1_555
H89_2 C75_2 1_555 1_555
O13_2 C76_2 1_555 1_555
C76_2 C77_2 1_555 1_555
C77_2 C75_2 1_555 1_555
N15_3 N16_3 1_555 1_555
N16_3 H47_3 1_555 1_555
C43_3 N15_3 1_555 1_555
C44_3 C43_3 1_555 1_555
H51_3 C44_3 1_555 1_555
H52_3 C44_3 1_555 1_555
H53_3 C44_3 1_555 1_555
H55_3 C45_3 1_555 1_555
H56_3 C45_3 1_555 1_555
Co10_2 N15_3 1_555 1_555
C42_3 C43_3 1_555 1_555
N14_3 N25_2 1_555 1_555
H46_3 N14_3 1_555 1_555
C40_3 H48_3 1_555 1_555
H49_3 C40_3 1_555 1_555
H50_3 C40_3 1_555 1_555
C46_3 N14_3 1_555 1_555
C48_3 N25_2 1_555 1_555
C49_3 C48_3 1_555 1_555
H57_3 C49_3 1_555 1_555
H58_3 C49_3 1_555 1_555
H59_3 C49_3 1_555 1_555
N22_5 N26_2 1_555 1_555
N23_5 N24_5 1_555 1_555
N24_5 H75_5 1_555 1_555
C60_5 H76_5 1_555 1_555
H77_5 C60_5 1_555 1_555
H78_5 C60_5 1_555 1_555
C61_5 N24_5 1_555 1_555
C62_5 C61_5 1_555 1_555
C67_5 C62_5 1_555 1_555
C68_5 N26_2 1_555 1_555
C69_5 C68_5 1_555 1_555
H85_5 C69_5 1_555 1_555
H86_5 C69_5 1_555 1_555
H87_5 C69_5 1_555 1_555
Co11_2 N23_5 1_555 1_555
C40_3 C41_3 1_555 1_555
C46_3 C47_3 1_555 1_555
C47_3 C48_3 1_555 1_555
C60_5 C61_5 1_555 1_555
C67_5 C68_5 1_555 1_555
C64_5 C63_5 1_555 1_555
H79_5 C64_5 1_555 1_555
H80_5 C64_5 1_555 1_555
H81_5 C64_5 1_555 1_555
C65_5 H82_5 1_555 1_555
H83_5 C65_5 1_555 1_555
H84_5 C65_5 1_555 1_555
C65_5 C66_5 1_555 1_555
C64_6 C63_6 1_555 1_555
H79_6 C64_6 1_555 1_555
H80_6 C64_6 1_555 1_555
H81_6 C64_6 1_555 1_555
C65_6 H82_6 1_555 1_555
H83_6 C65_6 1_555 1_555
H84_6 C65_6 1_555 1_555
C65_6 C66_6 1_555 1_555
N22_6 N27_2 1_555 1_555
N23_6 N24_6 1_555 1_555
N24_6 H75_6 1_555 1_555
C60_6 H76_6 1_555 1_555
H77_6 C60_6 1_555 1_555
H78_6 C60_6 1_555 1_555
C61_6 N24_6 1_555 1_555
C62_6 C61_6 1_555 1_555
C67_6 C62_6 1_555 1_555
C68_6 N27_2 1_555 1_555
C69_6 C68_6 1_555 1_555
H85_6 C69_6 1_555 1_555
H86_6 C69_6 1_555 1_555
H87_6 C69_6 1_555 1_555
Co11_5 N23_6 1_555 1_555
C60_6 C61_6 1_555 1_555
C67_6 C68_6 1_555 1_555
N8_3 N30_2 1_555 1_555
H19_3 N8_3 1_555 1_555
C20_3 H20_3 1_555 1_555
H21_3 C20_3 1_555 1_555
H22_3 C20_3 1_555 1_555
C21_3 N8_3 1_555 1_555
C22_3 C21_3 1_555 1_555
C23_3 N30_2 1_555 1_555
C24_3 C23_3 1_555 1_555
H23_3 C24_3 1_555 1_555
H24_3 C24_3 1_555 1_555
H25_3 C24_3 1_555 1_555
C27_3 C22_3 1_555 1_555
C28_3 N5_3 1_555 1_555
C29_3 C28_3 1_555 1_555
H29_3 C29_3 1_555 1_555
H30_3 C29_3 1_555 1_555
H31_3 C29_3 1_555 1_555
N10_3 H32_3 1_555 1_555
C35_3 H40_3 1_555 1_555
H41_3 C35_3 1_555 1_555
H42_3 C35_3 1_555 1_555
C36_3 N10_3 1_555 1_555
Co11_2 N5_3 1_555 1_555
C20_3 C21_3 1_555 1_555
C22_3 C23_3 1_555 1_555
C27_3 C28_3 1_555 1_555
C35_3 C36_3 1_555 1_555
N6_3 H18_3 1_555 1_555
C25_3 H26_3 1_555 1_555
H27_3 C25_3 1_555 1_555
H28_3 C25_3 1_555 1_555
C26_3 N6_3 1_555 1_555
C25_3 C26_3 1_555 1_555
N12_3 N29_2 1_555 1_555
H33_3 N12_3 1_555 1_555
C30_3 H34_3 1_555 1_555
H35_3 C30_3 1_555 1_555
H36_3 C30_3 1_555 1_555
C31_3 N12_3 1_555 1_555
C32_3 C31_3 1_555 1_555
C33_3 N29_2 1_555 1_555
C34_3 C33_3 1_555 1_555
H37_3 C34_3 1_555 1_555
H38_3 C34_3 1_555 1_555
H39_3 C34_3 1_555 1_555
C37_3 C32_3 1_555 1_555
C38_3 N9_3 1_555 1_555
C39_3 C38_3 1_555 1_555
H43_3 C39_3 1_555 1_555
H44_3 C39_3 1_555 1_555
H45_3 C39_3 1_555 1_555
Co11_5 N9_3 1_555 1_555
C30_3 C31_3 1_555 1_555
C32_3 C33_3 1_555 1_555
C37_3 C38_3 1_555 1_555
N1_3 N2_3 1_555 1_555
N2_3 H1_3 1_555 1_555
N4_3 N28_2 1_555 1_555
H2_3 N4_3 1_555 1_555
C1_3 H3_3 1_555 1_555
H4_3 C1_3 1_555 1_555
H5_3 C1_3 1_555 1_555
C2_3 N4_3 1_555 1_555
C3_3 C2_3 1_555 1_555
C4_3 N28_2 1_555 1_555
C5_3 C4_3 1_555 1_555
H6_3 C5_3 1_555 1_555
H7_3 C5_3 1_555 1_555
H8_3 C5_3 1_555 1_555
C6_3 H9_3 1_555 1_555
H10_3 C6_3 1_555 1_555
H11_3 C6_3 1_555 1_555
C7_3 N2_3 1_555 1_555
C8_3 C3_3 1_555 1_555
C9_3 N1_3 1_555 1_555
C10_3 C9_3 1_555 1_555
H12_3 C10_3 1_555 1_555
H13_3 C10_3 1_555 1_555
H14_3 C10_3 1_555 1_555
Co11 N1_3 1_555 1_555
C1_3 C2_3 1_555 1_555
C3_3 C4_3 1_555 1_555
C6_3 C7_3 1_555 1_555
C7_3 C8_3 1_555 1_555
C8_3 C9_3 1_555 1_555
N5_4 N6_4 1_555 1_555
N7_3 Co2_3 1_555 1_555
N8_4 N7_3 1_555 1_555
H19_4 N8_4 1_555 1_555
C20_4 H20_4 1_555 1_555
H21_4 C20_4 1_555 1_555
H22_4 C20_4 1_555 1_555
C21_4 N8_4 1_555 1_555
C22_4 C21_4 1_555 1_555
C27_4 C22_4 1_555 1_555
C28_4 N5_4 1_555 1_555
C29_4 C28_4 1_555 1_555
H29_4 C29_4 1_555 1_555
H30_4 C29_4 1_555 1_555
H31_4 C29_4 1_555 1_555
Co9 N5_4 1_555 1_555
O13_3 Co2_3 1_555 1_555
N25_3 Co2_3 1_555 1_555
C20_4 C21_4 1_555 1_555
C27_4 C28_4 1_555 1_555
Co1_3 O1_3 1_555 1_555
O1_3 C11_3 1_555 1_555
O2_3 C11_3 1_555 1_555
C5_4 C4_4 1_555 1_555
H6_4 C5_4 1_555 1_555
H7_4 C5_4 1_555 1_555
H8_4 C5_4 1_555 1_555
C6_4 H9_4 1_555 1_555
H10_4 C6_4 1_555 1_555
H11_4 C6_4 1_555 1_555
C11_3 C12_3 1_555 1_555
C12_3 C13_3 1_555 1_555
C13_3 H15_3 1_555 1_555
O3_3 C14_3 1_555 1_555
O4_3 C14_3 1_555 1_555
C14_3 C15_3 1_555 1_555
C15_3 C13_3 1_555 1_555
C16_3 C15_3 1_555 1_555
H16_3 C16_3 1_555 1_555
O5_3 C17_3 1_555 1_555
O6_3 C17_3 1_555 1_555
C17_3 C18_3 1_555 1_555
C18_3 C16_3 1_555 1_555
C19_3 C12_3 1_555 1_555
H17_3 C19_3 1_555 1_555
Co2_4 O3_3 1_555 1_555
C24_4 C23_4 1_555 1_555
H23_4 C24_4 1_555 1_555
H24_4 C24_4 1_555 1_555
H25_4 C24_4 1_555 1_555
C25_4 H26_4 1_555 1_555
H27_4 C25_4 1_555 1_555
H28_4 C25_4 1_555 1_555
Co3_3 O5_3 1_555 1_555
N9_4 N10_4 1_555 1_555
N10_4 H32_4 1_555 1_555
N11_3 Co3_3 1_555 1_555
N12_4 N11_3 1_555 1_555
H33_4 N12_4 1_555 1_555
C30_4 H34_4 1_555 1_555
H35_4 C30_4 1_555 1_555
H36_4 C30_4 1_555 1_555
C31_4 N12_4 1_555 1_555
C32_4 C31_4 1_555 1_555
C33_4 N11_3 1_555 1_555
C34_4 C33_4 1_555 1_555
H37_4 C34_4 1_555 1_555
H38_4 C34_4 1_555 1_555
H39_4 C34_4 1_555 1_555
C35_4 H40_4 1_555 1_555
H41_4 C35_4 1_555 1_555
H42_4 C35_4 1_555 1_555
C36_4 N10_4 1_555 1_555
C37_4 C32_4 1_555 1_555
C38_4 N9_4 1_555 1_555
C39_4 C38_4 1_555 1_555
H43_4 C39_4 1_555 1_555
H44_4 C39_4 1_555 1_555
H45_4 C39_4 1_555 1_555
N13_3 Co3_3 1_555 1_555
N14_4 N13_3 1_555 1_555
H46_4 N14_4 1_555 1_555
N15_4 N16_4 1_555 1_555
N16_4 H47_4 1_555 1_555
C40_4 H48_4 1_555 1_555
H49_4 C40_4 1_555 1_555
H50_4 C40_4 1_555 1_555
C41_4 N16_4 1_555 1_555
C42_4 C41_4 1_555 1_555
C43_4 N15_4 1_555 1_555
C44_4 C43_4 1_555 1_555
H51_4 C44_4 1_555 1_555
H52_4 C44_4 1_555 1_555
H53_4 C44_4 1_555 1_555
C45_4 H54_4 1_555 1_555
H55_4 C45_4 1_555 1_555
H56_4 C45_4 1_555 1_555
C46_4 N14_4 1_555 1_555
C47_4 C42_4 1_555 1_555
C48_4 N13_3 1_555 1_555
C49_4 C48_4 1_555 1_555
H57_4 C49_4 1_555 1_555
H58_4 C49_4 1_555 1_555
H59_4 C49_4 1_555 1_555
H60_4 N18_4 1_555 1_555
C55_4 H68_4 1_555 1_555
H69_4 C55_4 1_555 1_555
H70_4 C55_4 1_555 1_555
C56_4 N18_4 1_555 1_555
N21_3 Co1_3 1_555 1_555
N23_7 N24_7 1_555 1_555
N24_7 H75_7 1_555 1_555
C60_7 H76_7 1_555 1_555
H77_7 C60_7 1_555 1_555
H78_7 C60_7 1_555 1_555
C61_7 N24_7 1_555 1_555
C62_7 C61_7 1_555 1_555
C63_7 N23_7 1_555 1_555
C64_7 C63_7 1_555 1_555
H79_7 C64_7 1_555 1_555
H80_7 C64_7 1_555 1_555
H81_7 C64_7 1_555 1_555
C67_7 C62_7 1_555 1_555
C68_7 N21_3 1_555 1_555
C69_7 C68_7 1_555 1_555
H85_7 C69_7 1_555 1_555
H86_7 C69_7 1_555 1_555
H87_7 C69_7 1_555 1_555
Co9 N15_4 1_555 1_555
Co7 N9_4 1_555 1_555
Co10_2 N23_7 1_555 1_555
O14_3 Co3_3 1_555 1_555
N26_3 Co3_3 1_555 1_555
N27_3 Co2_4 1_555 1_555
N28_3 Co2_4 1_555 1_555
N29_3 Co3_3 1_555 1_555
N30_3 Co1_3 1_555 1_555
C6_4 C7_4 1_555 1_555
C18_3 C19_3 1_555 1_555
C25_4 C26_4 1_555 1_555
C30_4 C31_4 1_555 1_555
C32_4 C33_4 1_555 1_555
C35_4 C36_4 1_555 1_555
C36_4 C37_4 1_555 1_555
C37_4 C38_4 1_555 1_555
C40_4 C41_4 1_555 1_555
C42_4 C43_4 1_555 1_555
C45_4 C46_4 1_555 1_555
C46_4 C47_4 1_555 1_555
C47_4 C48_4 1_555 1_555
C55_4 C56_4 1_555 1_555
C60_7 C61_7 1_555 1_555
C62_7 C63_7 1_555 1_555
C67_7 C68_7 1_555 1_555
N1_4 N2_4 1_555 1_555
N3_3 Co1_4 1_555 1_555
N4_4 N3_3 1_555 1_555
H2_4 N4_4 1_555 1_555
C1_4 H3_4 1_555 1_555
H4_4 C1_4 1_555 1_555
H5_4 C1_4 1_555 1_555
C2_4 N4_4 1_555 1_555
C3_4 C2_4 1_555 1_555
C8_4 C3_4 1_555 1_555
C9_4 N1_4 1_555 1_555
C10_4 C9_4 1_555 1_555
H12_4 C10_4 1_555 1_555
H13_4 C10_4 1_555 1_555
H14_4 C10_4 1_555 1_555
N17_3 Co1_4 1_555 1_555
N19_4 N20_4 1_555 1_555
N20_4 H61_4 1_555 1_555
C50_4 H62_4 1_555 1_555
H63_4 C50_4 1_555 1_555
H64_4 C50_4 1_555 1_555
C51_4 N20_4 1_555 1_555
C52_4 C51_4 1_555 1_555
C53_4 N19_4 1_555 1_555
C54_4 C53_4 1_555 1_555
H65_4 C54_4 1_555 1_555
H66_4 C54_4 1_555 1_555
H67_4 C54_4 1_555 1_555
C57_4 C52_4 1_555 1_555
C58_4 N17_3 1_555 1_555
C59_4 C58_4 1_555 1_555
H71_4 C59_4 1_555 1_555
H72_4 C59_4 1_555 1_555
H73_4 C59_4 1_555 1_555
H74_7 N22_7 1_555 1_555
C65_7 H82_7 1_555 1_555
H83_7 C65_7 1_555 1_555
H84_7 C65_7 1_555 1_555
C66_7 N22_7 1_555 1_555
O7_3 Co1_4 1_555 1_555
O8_3 C70_3 1_555 1_555
C70_3 O7_3 1_555 1_555
C71_3 C70_3 1_555 1_555
C72_3 C71_3 1_555 1_555
H88_3 C72_3 1_555 1_555
O14_3 C73_3 1_555 1_555
O10_3 C73_3 1_555 1_555
C73_3 C74_3 1_555 1_555
C74_3 C72_3 1_555 1_555
C75_3 C74_3 1_555 1_555
H89_3 C75_3 1_555 1_555
O13_3 C76_3 1_555 1_555
O12_3 C76_3 1_555 1_555
C76_3 C77_3 1_555 1_555
C77_3 C75_3 1_555 1_555
C78_3 C71_3 1_555 1_555
H90_3 C78_3 1_555 1_555
Co7 N19_4 1_555 1_555
Co10 N1_4 1_555 1_555
C1_4 C2_4 1_555 1_555
C8_4 C9_4 1_555 1_555
C50_4 C51_4 1_555 1_555
C52_4 C53_4 1_555 1_555
C57_4 C58_4 1_555 1_555
C65_7 C66_7 1_555 1_555
C77_3 C78_3 1_555 1_555
N15_5 N16_5 1_555 1_555
N16_5 H47_5 1_555 1_555
C40_5 H48_5 1_555 1_555
H49_5 C40_5 1_555 1_555
H50_5 C40_5 1_555 1_555
C41_5 N16_5 1_555 1_555
C42_5 C41_5 1_555 1_555
C43_5 N15_5 1_555 1_555
C44_5 C43_5 1_555 1_555
H51_5 C44_5 1_555 1_555
H52_5 C44_5 1_555 1_555
H53_5 C44_5 1_555 1_555
C47_5 C42_5 1_555 1_555
C48_5 N25_3 1_555 1_555
C49_5 C48_5 1_555 1_555
H57_5 C49_5 1_555 1_555
H58_5 C49_5 1_555 1_555
H59_5 C49_5 1_555 1_555
Co10 N15_5 1_555 1_555
C40_5 C41_5 1_555 1_555
C42_5 C43_5 1_555 1_555
C47_5 C48_5 1_555 1_555
H46_5 N14_5 1_555 1_555
C45_5 H54_5 1_555 1_555
H55_5 C45_5 1_555 1_555
H56_5 C45_5 1_555 1_555
C46_5 N14_5 1_555 1_555
N22_8 N26_3 1_555 1_555
H74_8 N22_8 1_555 1_555
N23_8 N24_8 1_555 1_555
N24_8 H75_8 1_555 1_555
C60_8 H76_8 1_555 1_555
H77_8 C60_8 1_555 1_555
H78_8 C60_8 1_555 1_555
C61_8 N24_8 1_555 1_555
C62_8 C61_8 1_555 1_555
C63_8 N23_8 1_555 1_555
C64_8 C63_8 1_555 1_555
H79_8 C64_8 1_555 1_555
H80_8 C64_8 1_555 1_555
H81_8 C64_8 1_555 1_555
C65_8 H82_8 1_555 1_555
H83_8 C65_8 1_555 1_555
H84_8 C65_8 1_555 1_555
C66_8 N22_8 1_555 1_555
C67_8 C62_8 1_555 1_555
C68_8 N26_3 1_555 1_555
C69_8 C68_8 1_555 1_555
H85_8 C69_8 1_555 1_555
H86_8 C69_8 1_555 1_555
H87_8 C69_8 1_555 1_555
Co9_2 N23_8 1_555 1_555
C45_5 C46_5 1_555 1_555
C60_8 C61_8 1_555 1_555
C62_8 C63_8 1_555 1_555
C65_8 C66_8 1_555 1_555
C66_8 C67_8 1_555 1_555
C67_8 C68_8 1_555 1_555
H74_9 N22_9 1_555 1_555
C65_9 H82_9 1_555 1_555
H83_9 C65_9 1_555 1_555
H84_9 C65_9 1_555 1_555
C66_9 N22_9 1_555 1_555
C65_9 C66_9 1_555 1_555
N23_9 N24_9 1_555 1_555
N24_9 H75_9 1_555 1_555
C60_9 H76_9 1_555 1_555
H77_9 C60_9 1_555 1_555
H78_9 C60_9 1_555 1_555
C61_9 N24_9 1_555 1_555
C62_9 C61_9 1_555 1_555
C63_9 N23_9 1_555 1_555
C64_9 C63_9 1_555 1_555
H79_9 C64_9 1_555 1_555
H80_9 C64_9 1_555 1_555
H81_9 C64_9 1_555 1_555
C67_9 C62_9 1_555 1_555
C68_9 N27_3 1_555 1_555
C69_9 C68_9 1_555 1_555
H85_9 C69_9 1_555 1_555
H86_9 C69_9 1_555 1_555
H87_9 C69_9 1_555 1_555
Co7_2 N23_9 1_555 1_555
C60_9 C61_9 1_555 1_555
C62_9 C63_9 1_555 1_555
C67_9 C68_9 1_555 1_555
N5_5 N6_5 1_555 1_555
N8_5 N30_3 1_555 1_555
H19_5 N8_5 1_555 1_555
C20_5 H20_5 1_555 1_555
H21_5 C20_5 1_555 1_555
H22_5 C20_5 1_555 1_555
C21_5 N8_5 1_555 1_555
C22_5 C21_5 1_555 1_555
C27_5 C22_5 1_555 1_555
C28_5 N5_5 1_555 1_555
C29_5 C28_5 1_555 1_555
H29_5 C29_5 1_555 1_555
H30_5 C29_5 1_555 1_555
H31_5 C29_5 1_555 1_555
Co9_2 N5_5 1_555 1_555
C20_5 C21_5 1_555 1_555
C27_5 C28_5 1_555 1_555
C5_5 C4_5 1_555 1_555
H6_5 C5_5 1_555 1_555
H7_5 C5_5 1_555 1_555
H8_5 C5_5 1_555 1_555
C6_5 H9_5 1_555 1_555
H10_5 C6_5 1_555 1_555
H11_5 C6_5 1_555 1_555
C24_5 C23_5 1_555 1_555
H23_5 C24_5 1_555 1_555
H24_5 C24_5 1_555 1_555
H25_5 C24_5 1_555 1_555
C25_5 H26_5 1_555 1_555
H27_5 C25_5 1_555 1_555
H28_5 C25_5 1_555 1_555
N9_5 N10_5 1_555 1_555
N10_5 H32_5 1_555 1_555
N12_5 N29_3 1_555 1_555
H33_5 N12_5 1_555 1_555
C30_5 H34_5 1_555 1_555
H35_5 C30_5 1_555 1_555
H36_5 C30_5 1_555 1_555
C31_5 N12_5 1_555 1_555
C32_5 C31_5 1_555 1_555
C33_5 N29_3 1_555 1_555
C34_5 C33_5 1_555 1_555
H37_5 C34_5 1_555 1_555
H38_5 C34_5 1_555 1_555
H39_5 C34_5 1_555 1_555
C35_5 H40_5 1_555 1_555
H41_5 C35_5 1_555 1_555
H42_5 C35_5 1_555 1_555
C36_5 N10_5 1_555 1_555
C37_5 C32_5 1_555 1_555
C38_5 N9_5 1_555 1_555
C39_5 C38_5 1_555 1_555
H43_5 C39_5 1_555 1_555
H44_5 C39_5 1_555 1_555
H45_5 C39_5 1_555 1_555
Co7_2 N9_5 1_555 1_555
C6_5 C7_5 1_555 1_555
C25_5 C26_5 1_555 1_555
C30_5 C31_5 1_555 1_555
C32_5 C33_5 1_555 1_555
C35_5 C36_5 1_555 1_555
C36_5 C37_5 1_555 1_555
C37_5 C38_5 1_555 1_555
N1_5 N2_5 1_555 1_555
N4_5 N28_3 1_555 1_555
H2_5 N4_5 1_555 1_555
C1_5 H3_5 1_555 1_555
H4_5 C1_5 1_555 1_555
H5_5 C1_5 1_555 1_555
C2_5 N4_5 1_555 1_555
C3_5 C2_5 1_555 1_555
C8_5 C3_5 1_555 1_555
C9_5 N1_5 1_555 1_555
C10_5 C9_5 1_555 1_555
H12_5 C10_5 1_555 1_555
H13_5 C10_5 1_555 1_555
H14_5 C10_5 1_555 1_555
Co10_2 N1_5 1_555 1_555
C1_5 C2_5 1_555 1_555
C8_5 C9_5 1_555 1_555
N8_6 N30 1_555 1_555
H19_6 N8_6 1_555 1_555
C20_6 H20_6 1_555 1_555
H21_6 C20_6 1_555 1_555
H22_6 C20_6 1_555 1_555
C21_6 N8_6 1_555 1_555
C22_6 C21_6 1_555 1_555
C23_6 N30 1_555 1_555
C24_6 C23_6 1_555 1_555
H23_6 C24_6 1_555 1_555
H24_6 C24_6 1_555 1_555
H25_6 C24_6 1_555 1_555
C27_6 C22_6 1_555 1_555
C28_6 N5_6 1_555 1_555
C29_6 C28_6 1_555 1_555
H29_6 C29_6 1_555 1_555
H30_6 C29_6 1_555 1_555
H31_6 C29_6 1_555 1_555
N10_6 H32_6 1_555 1_555
C35_6 H40_6 1_555 1_555
H41_6 C35_6 1_555 1_555
H42_6 C35_6 1_555 1_555
C36_6 N10_6 1_555 1_555
Co11_4 N5_6 1_555 1_555
C20_6 C21_6 1_555 1_555
C22_6 C23_6 1_555 1_555
C27_6 C28_6 1_555 1_555
C35_6 C36_6 1_555 1_555
N12_6 N29 1_555 1_555
H33_6 N12_6 1_555 1_555
C30_6 H34_6 1_555 1_555
H35_6 C30_6 1_555 1_555
H36_6 C30_6 1_555 1_555
C31_6 N12_6 1_555 1_555
C32_6 C31_6 1_555 1_555
C33_6 N29 1_555 1_555
C34_6 C33_6 1_555 1_555
H37_6 C34_6 1_555 1_555
H38_6 C34_6 1_555 1_555
H39_6 C34_6 1_555 1_555
C37_6 C32_6 1_555 1_555
C38_6 N9_6 1_555 1_555
C39_6 C38_6 1_555 1_555
H43_6 C39_6 1_555 1_555
H44_6 C39_6 1_555 1_555
H45_6 C39_6 1_555 1_555
Co11_3 N9_6 1_555 1_555
C30_6 C31_6 1_555 1_555
C32_6 C33_6 1_555 1_555
C37_6 C38_6 1_555 1_555
N6_6 H18_6 1_555 1_555
C25_6 H26_6 1_555 1_555
H27_6 C25_6 1_555 1_555
H28_6 C25_6 1_555 1_555
C26_6 N6_6 1_555 1_555
C25_6 C26_6 1_555 1_555
N1_6 N2_6 1_555 1_555
N2_6 H1_6 1_555 1_555
N4_6 N28 1_555 1_555
H2_6 N4_6 1_555 1_555
C1_6 H3_6 1_555 1_555
H4_6 C1_6 1_555 1_555
H5_6 C1_6 1_555 1_555
C2_6 N4_6 1_555 1_555
C3_6 C2_6 1_555 1_555
C4_6 N28 1_555 1_555
C5_6 C4_6 1_555 1_555
H6_6 C5_6 1_555 1_555
H7_6 C5_6 1_555 1_555
H8_6 C5_6 1_555 1_555
C6_6 H9_6 1_555 1_555
H10_6 C6_6 1_555 1_555
H11_6 C6_6 1_555 1_555
C7_6 N2_6 1_555 1_555
C8_6 C3_6 1_555 1_555
C9_6 N1_6 1_555 1_555
C10_6 C9_6 1_555 1_555
H12_6 C10_6 1_555 1_555
H13_6 C10_6 1_555 1_555
H14_6 C10_6 1_555 1_555
Co11 N1_6 1_555 1_555
C1_6 C2_6 1_555 1_555
C3_6 C4_6 1_555 1_555
C6_6 C7_6 1_555 1_555
C7_6 C8_6 1_555 1_555
C8_6 C9_6 1_555 1_555
H89_4 C75_4 1_555 1_555
O11 C76_4 1_555 1_555
C76_4 C77_4 1_555 1_555
C77_4 C75_4 1_555 1_555
Co9 O11 1_555 1_555
H90_4 C78_4 1_555 1_555
O9 C73_4 1_555 1_555
C73_4 C74_4 1_555 1_555
Co10 O9 1_555 1_555
Co7 O1_4 1_555 1_555
O1_4 C11_4 1_555 1_555
O2_4 C11_4 1_555 1_555
C11_4 C12_4 1_555 1_555
C12_4 C13_4 1_555 1_555
C13_4 H15_4 1_555 1_555
O3_4 C14_4 1_555 1_555
O4_4 C14_4 1_555 1_555
C14_4 C15_4 1_555 1_555
C15_4 C13_4 1_555 1_555
C16_4 C15_4 1_555 1_555
H16_4 C16_4 1_555 1_555
O5_4 C17_4 1_555 1_555
O6_4 C17_4 1_555 1_555
C17_4 C18_4 1_555 1_555
C18_4 C16_4 1_555 1_555
C19_4 C12_4 1_555 1_555
H17_4 C19_4 1_555 1_555
Co9 O3_4 1_555 1_555
Co10 O5_4 1_555 1_555
O7_4 Co7 1_555 1_555
O8_4 C70_4 1_555 1_555
C70_4 O7_4 1_555 1_555
C71_4 C70_4 1_555 1_555
C72_4 C71_4 1_555 1_555
H88_4 C72_4 1_555 1_555
C18_4 C19_4 1_555 1_555
H89_5 C75_5 1_555 1_555
O11_2 C76_5 1_555 1_555
C76_5 C77_5 1_555 1_555
C77_5 C75_5 1_555 1_555
Co9_2 O11_2 1_555 1_555
O9_2 C73_5 1_555 1_555
C73_5 C74_5 1_555 1_555
Co10_2 O9_2 1_555 1_555
H90_5 C78_5 1_555 1_555
Co7_2 O1_5 1_555 1_555
O1_5 C11_5 1_555 1_555
O2_5 C11_5 1_555 1_555
C11_5 C12_5 1_555 1_555
C12_5 C13_5 1_555 1_555
C13_5 H15_5 1_555 1_555
O3_5 C14_5 1_555 1_555
O4_5 C14_5 1_555 1_555
C14_5 C15_5 1_555 1_555
C15_5 C13_5 1_555 1_555
C16_5 C15_5 1_555 1_555
H16_5 C16_5 1_555 1_555
O5_5 C17_5 1_555 1_555
O6_5 C17_5 1_555 1_555
C17_5 C18_5 1_555 1_555
C18_5 C16_5 1_555 1_555
C19_5 C12_5 1_555 1_555
H17_5 C19_5 1_555 1_555
Co9_2 O3_5 1_555 1_555
Co10_2 O5_5 1_555 1_555
O7_5 Co7_2 1_555 1_555
O8_5 C70_5 1_555 1_555
C70_5 O7_5 1_555 1_555
C71_5 C70_5 1_555 1_555
C72_5 C71_5 1_555 1_555
H88_5 C72_5 1_555 1_555
C18_5 C19_5 1_555 1_555
O7_6 Co11_4 1_555 1_555
O8_6 C70_6 1_555 1_555
C70_6 O7_6 1_555 1_555
C71_6 C70_6 1_555 1_555
C72_6 C71_6 1_555 1_555
H88_6 C72_6 1_555 1_555
O9_3 C73_6 1_555 1_555
O10_6 C73_6 1_555 1_555
C73_6 C74_6 1_555 1_555
C74_6 C72_6 1_555 1_555
C75_6 C74_6 1_555 1_555
H89_6 C75_6 1_555 1_555
O11_3 C76_6 1_555 1_555
O12_6 C76_6 1_555 1_555
C76_6 C77_6 1_555 1_555
C77_6 C75_6 1_555 1_555
C78_6 C71_6 1_555 1_555
H90_6 C78_6 1_555 1_555
Co11_3 O11_3 1_555 1_555
Co11 O9_3 1_555 1_555
C77_6 C78_6 1_555 1_555
Co11_5 O1_6 1_555 1_555
O1_6 C11_6 1_555 1_555
O2_6 C11_6 1_555 1_555
C11_6 C12_6 1_555 1_555
C12_6 C13_6 1_555 1_555
C13_6 H15_6 1_555 1_555
O3_6 C14_6 1_555 1_555
O4_6 C14_6 1_555 1_555
C14_6 C15_6 1_555 1_555
C15_6 C13_6 1_555 1_555
C16_6 C15_6 1_555 1_555
H16_6 C16_6 1_555 1_555
O5_6 C17_6 1_555 1_555
O6_6 C17_6 1_555 1_555
C17_6 C18_6 1_555 1_555
C18_6 C16_6 1_555 1_555
C19_6 C12_6 1_555 1_555
H17_6 C19_6 1_555 1_555
Co11_2 O3_6 1_555 1_555
Co11 O5_6 1_555 1_555
C18_6 C19_6 1_555 1_555

#END
