
###############################################################################
#
# This file contains modified crystal structure data generated from the
# MOF subset of the Cambridge Structural Database (CSD) v543 
# hosted by the Cambridge Crystallographic Data Centre (CCDC).
#
# This work is licensed under the Creative Commons
# Attribution-NonCommercial-ShareAlike 4.0 International License.
# To view a copy of this license, visit
# http://creativecommons.org/licenses/by-nc-sa/4.0/
# or send a letter to
# Creative Commons, PO Box 1866, Mountain View, CA 94042, USA.
#
# CIF created using the CSD Python API on 29 September 2022
# The structure has been converted into the P1 space group
# The structure has a 3D framework
# The original CSD entry LUKLIN is in the cubic crystal system
# The original CSD entry LUKLIN is in a Sohncke space group
# The framework has been calculated to contain at least 10.0% void space
# The void calculation uses a probe of radius 1.32A, grid spacing 0.4
#
###############################################################################

data_LUKLIN
_chemical_formula_moiety         '(C672 H384 Cu72 O264)n'
_symmetry_cell_setting           triclinic
_symmetry_space_group_name_H-M   'P 1'
_symmetry_Int_Tables_number      1
_space_group_name_Hall           'P 1'
loop_
_symmetry_equiv_pos_site_id
_symmetry_equiv_pos_as_xyz
1 x,y,z
_cell_length_a                   37.230(9)
_cell_length_b                   37.230(9)
_cell_length_c                   37.230(9)
_cell_angle_alpha                90
_cell_angle_beta                 90
_cell_angle_gamma                90
_cell_volume                     51603.5
loop_
_atom_site_label
_atom_site_type_symbol
_atom_site_fract_x
_atom_site_fract_y
_atom_site_fract_z
Cu1 Cu 0.225802(16) 0.225802(16) 0.5000
O1 O 0.19512(14) 0.24709(13) 0.46388(14)
C1 C 0.18587(17) 0.28780(18) 0.42175(15)
O2 O 0.23486(13) 0.29174(8) 0.45945(11)
C2 C 0.1965(2) 0.31769(15) 0.40203(17)
H1 H 0.2176 0.3305 0.4087
O3 O 0.1840(2) 0.1840(2) 0.5000
H2 H 0.1638 0.1861 0.4845
C3 C 0.17659(16) 0.32888(15) 0.37270(11)
C4 C 0.14475(16) 0.31060(13) 0.36318(15)
C5 C 0.13348(15) 0.28076(17) 0.38357(16)
H3 H 0.1120 0.2684 0.3776
C6 C 0.15428(16) 0.26960(19) 0.41264(14)
H4 H 0.1469 0.2494 0.4264
C7 C 0.2074(2) 0.2754(2) 0.4524(2)
Cu2 Cu -0.0000 0.274198(16) 0.225802(16)
Cu3 Cu 0.274198(16) 0.5000 0.274198(16)
Cu4 Cu 0.274198(16) 0.274198(16) 0.5000
Cu5 Cu -0.0000 0.225802(16) 0.274198(16)
Cu6 Cu 0.225802(16) 0.5000 0.225802(16)
Cu7 Cu 0.274198(16) 0.0000 0.774198(16)
Cu8 Cu 0.225802(16) 0.0000 0.725802(16)
Cu9 Cu 0.5000 0.274198(16) 0.725802(16)
Cu10 Cu 0.5000 0.225802(16) 0.774198(16)
O4 O 0.03612(14) 0.30488(14) 0.24709(13)
O5 O 0.25291(13) 0.46388(14) 0.30488(14)
O6 O 0.24709(13) 0.19512(14) 0.53612(14)
O7 O 0.30488(14) 0.03612(14) 0.75291(13)
O8 O 0.46388(14) 0.25291(13) 0.69512(14)
O10 O 0.30488(14) 0.53612(14) 0.25291(13)
C8 C 0.07825(15) 0.31413(17) 0.28780(18)
C9 C 0.21220(18) 0.42175(15) 0.31413(17)
C10 C 0.28780(18) 0.18587(17) 0.57825(15)
C11 C 0.31413(17) 0.07825(15) 0.71220(18)
C12 C 0.42175(15) 0.21220(18) 0.68587(17)
O11 O 0.04055(11) 0.26514(13) 0.29174(8)
O12 O 0.20826(8) 0.45945(11) 0.26514(13)
O13 O 0.29174(8) 0.23486(13) 0.54055(11)
O14 O 0.26514(13) 0.04055(11) 0.70826(8)
O15 O 0.45945(11) 0.20826(8) 0.73486(13)
O16 O 0.26514(13) 0.20826(8) 0.45945(11)
O17 O 0.20826(8) 0.26514(13) 0.54055(11)
O18 O 0.04055(11) 0.23486(13) 0.20826(8)
O20 O 0.29174(8) 0.45945(11) 0.23486(13)
O21 O 0.23486(13) 0.54055(11) 0.29174(8)
C13 C 0.09797(17) 0.3035(2) 0.31769(15)
C14 C 0.18231(15) 0.40203(17) 0.3035(2)
C15 C 0.31769(15) 0.1965(2) 0.59797(17)
C16 C 0.3035(2) 0.09797(17) 0.68231(15)
C17 C 0.40203(17) 0.18231(15) 0.6965(2)
H5 H 0.1695 0.4087 0.2824
H6 H 0.0913 0.2824 0.3305
H7 H 0.3305 0.2176 0.5913
H8 H 0.4087 0.1695 0.7176
H9 H 0.2824 0.0913 0.6695
O22 O -0.0000 0.3160(2) 0.1840(2)
O23 O 0.3160(2) 0.5000 0.3160(2)
H10 H 0.1861 0.1638 0.5155
H11 H 0.0155 0.3362 0.1861
H13 H 0.3139 0.4845 0.3362
H14 H 0.3362 0.5155 0.3139
C18 C 0.12730(11) 0.32341(16) 0.32888(15)
C19 C 0.17112(15) 0.37270(11) 0.32341(16)
C20 C 0.32888(15) 0.17659(16) 0.62730(11)
C21 C 0.32341(16) 0.12730(11) 0.67112(15)
C22 C 0.37270(11) 0.17112(15) 0.67659(16)
C23 C 0.13682(15) 0.35525(16) 0.31060(13)
C24 C 0.18940(13) 0.36318(15) 0.35525(16)
C25 C 0.31060(13) 0.14475(16) 0.63682(15)
C26 C 0.35525(16) 0.13682(15) 0.68940(13)
C27 C 0.36318(15) 0.18940(13) 0.64475(16)
C28 C 0.11643(16) 0.36652(15) 0.28076(17)
C29 C 0.21924(17) 0.38357(16) 0.36652(15)
C30 C 0.28076(17) 0.13348(15) 0.61643(16)
C31 C 0.36652(15) 0.11643(16) 0.71924(17)
C32 C 0.38357(16) 0.21924(17) 0.63348(15)
H15 H 0.2316 0.3776 0.3880
H16 H 0.1224 0.3880 0.2684
H17 H 0.2684 0.1120 0.6224
H18 H 0.3776 0.2316 0.6120
H19 H 0.3880 0.1224 0.7316
C33 C 0.08736(14) 0.34572(16) 0.26960(19)
C34 C 0.23040(19) 0.41264(14) 0.34572(16)
C35 C 0.26960(19) 0.15428(16) 0.58736(14)
C36 C 0.34572(16) 0.08736(14) 0.73040(19)
C37 C 0.41264(14) 0.23040(19) 0.65428(16)
H20 H 0.2506 0.4264 0.3531
H21 H 0.0736 0.3531 0.2494
H22 H 0.2494 0.1469 0.5736
H23 H 0.4264 0.2506 0.6469
H24 H 0.3531 0.0736 0.7506
C38 C 0.0476(2) 0.2926(2) 0.2754(2)
C39 C 0.2246(2) 0.4524(2) 0.2926(2)
C40 C 0.2754(2) 0.2074(2) 0.5476(2)
C41 C 0.2926(2) 0.0476(2) 0.7246(2)
C42 C 0.4524(2) 0.2246(2) 0.7074(2)
Cu7_2 Cu 0.274198(16) 1.0000 0.774198(16)
Cu8_2 Cu 0.225802(16) 1.0000 0.725802(16)
Cu2_2 Cu 1.0000 0.274198(16) 0.225802(16)
Cu5_2 Cu 1.0000 0.225802(16) 0.274198(16)
O9 O 0.96388(14) 0.25291(13) 0.19512(14)
O19 O 0.95945(11) 0.29174(8) 0.26514(13)
O22_2 O 1.0000 0.3160(2) 0.1840(2)
H12 H 0.9845 0.3139 0.1638
Cu7_3 Cu 0.0000 0.274198(16) 0.774198(16)
Cu8_3 Cu -0.0000 0.225802(16) 0.725802(16)
Cu1_2 Cu 0.774198(16) 0.225802(16) 0.5000
O1_2 O 0.75291(13) 0.19512(14) 0.46388(14)
C1_2 C 0.71220(18) 0.18587(17) 0.42175(15)
O2_2 O 0.70826(8) 0.23486(13) 0.45945(11)
C2_2 C 0.68231(15) 0.1965(2) 0.40203(17)
H1_2 H 0.6695 0.2176 0.4087
O3_2 O 0.8160(2) 0.1840(2) 0.5000
H2_2 H 0.8139 0.1638 0.4845
C3_2 C 0.67112(15) 0.17659(16) 0.37270(11)
C4_2 C 0.68940(13) 0.14475(16) 0.36318(15)
C5_2 C 0.71924(17) 0.13348(15) 0.38357(16)
H3_2 H 0.7316 0.1120 0.3776
C6_2 C 0.73040(19) 0.15428(16) 0.41264(14)
H4_2 H 0.7506 0.1469 0.4264
C7_2 C 0.7246(2) 0.2074(2) 0.4524(2)
Cu2_3 Cu 0.725802(16) -0.0000 0.225802(16)
Cu3_2 Cu 0.5000 0.274198(16) 0.274198(16)
Cu4_2 Cu 0.725802(16) 0.274198(16) 0.5000
Cu5_3 Cu 0.774198(16) 0.0000 0.274198(16)
Cu6_2 Cu 0.5000 0.225802(16) 0.225802(16)
Cu7_4 Cu 1.0000 0.274198(16) 0.774198(16)
Cu8_4 Cu 1.0000 0.225802(16) 0.725802(16)
Cu9_2 Cu 0.725802(16) 0.5000 0.725802(16)
Cu10_2 Cu 0.774198(16) 0.5000 0.774198(16)
O4_2 O 0.69512(14) 0.03612(14) 0.24709(13)
O5_2 O 0.53612(14) 0.25291(13) 0.30488(14)
O6_2 O 0.80488(14) 0.24709(13) 0.53612(14)
O7_2 O 0.96388(14) 0.30488(14) 0.75291(13)
O8_2 O 0.74709(13) 0.46388(14) 0.69512(14)
O10_2 O 0.46388(14) 0.30488(14) 0.25291(13)
C8_2 C 0.68587(17) 0.07825(15) 0.28780(18)
C9_2 C 0.57825(15) 0.21220(18) 0.31413(17)
C10_2 C 0.81413(17) 0.28780(18) 0.57825(15)
C11_2 C 0.92175(15) 0.31413(17) 0.71220(18)
C12_2 C 0.78780(18) 0.42175(15) 0.68587(17)
O11_2 O 0.73486(13) 0.04055(11) 0.29174(8)
O12_2 O 0.54055(11) 0.20826(8) 0.26514(13)
O13_2 O 0.76514(13) 0.29174(8) 0.54055(11)
O14_2 O 0.95945(11) 0.26514(13) 0.70826(8)
O15_2 O 0.79174(8) 0.45945(11) 0.73486(13)
O16_2 O 0.79174(8) 0.26514(13) 0.45945(11)
O17_2 O 0.73486(13) 0.20826(8) 0.54055(11)
O18_2 O 0.76514(13) 0.04055(11) 0.20826(8)
O20_2 O 0.54055(11) 0.29174(8) 0.23486(13)
O21_2 O 0.45945(11) 0.23486(13) 0.29174(8)
C13_2 C 0.6965(2) 0.09797(17) 0.31769(15)
C14_2 C 0.59797(17) 0.18231(15) 0.3035(2)
C15_2 C 0.8035(2) 0.31769(15) 0.59797(17)
C16_2 C 0.90203(17) 0.3035(2) 0.68231(15)
C17_2 C 0.81769(15) 0.40203(17) 0.6965(2)
H5_2 H 0.5913 0.1695 0.2824
H6_2 H 0.7176 0.0913 0.3305
H7_2 H 0.7824 0.3305 0.5913
H8_2 H 0.8305 0.4087 0.7176
H9_2 H 0.9087 0.2824 0.6695
O22_3 O 0.6840(2) -0.0000 0.1840(2)
O23_2 O 0.5000 0.3160(2) 0.3160(2)
H10_2 H 0.8362 0.1861 0.5155
H11_2 H 0.6638 0.0155 0.1861
H13_2 H 0.5155 0.3139 0.3362
H14_2 H 0.4845 0.3362 0.3139
C18_2 C 0.67659(16) 0.12730(11) 0.32888(15)
C19_2 C 0.62730(11) 0.17112(15) 0.32341(16)
C20_2 C 0.82341(16) 0.32888(15) 0.62730(11)
C21_2 C 0.87270(11) 0.32341(16) 0.67112(15)
C22_2 C 0.82888(15) 0.37270(11) 0.67659(16)
C23_2 C 0.64475(16) 0.13682(15) 0.31060(13)
C24_2 C 0.63682(15) 0.18940(13) 0.35525(16)
C25_2 C 0.85525(16) 0.31060(13) 0.63682(15)
C26_2 C 0.86318(15) 0.35525(16) 0.68940(13)
C27_2 C 0.81060(13) 0.36318(15) 0.64475(16)
C28_2 C 0.63348(15) 0.11643(16) 0.28076(17)
C29_2 C 0.61643(16) 0.21924(17) 0.36652(15)
C30_2 C 0.86652(15) 0.28076(17) 0.61643(16)
C31_2 C 0.88357(16) 0.36652(15) 0.71924(17)
C32_2 C 0.78076(17) 0.38357(16) 0.63348(15)
H15_2 H 0.6224 0.2316 0.3880
H16_2 H 0.6120 0.1224 0.2684
H17_2 H 0.8880 0.2684 0.6224
H18_2 H 0.7684 0.3776 0.6120
H19_2 H 0.8776 0.3880 0.7316
C33_2 C 0.65428(16) 0.08736(14) 0.26960(19)
C34_2 C 0.58736(14) 0.23040(19) 0.34572(16)
C35_2 C 0.84572(16) 0.26960(19) 0.58736(14)
C36_2 C 0.91264(14) 0.34572(16) 0.73040(19)
C37_2 C 0.76960(19) 0.41264(14) 0.65428(16)
H20_2 H 0.5736 0.2506 0.3531
H21_2 H 0.6469 0.0736 0.2494
H22_2 H 0.8531 0.2494 0.5736
H23_2 H 0.7494 0.4264 0.6469
H24_2 H 0.9264 0.3531 0.7506
C38_2 C 0.7074(2) 0.0476(2) 0.2754(2)
C39_2 C 0.5476(2) 0.2246(2) 0.2926(2)
C40_2 C 0.7926(2) 0.2754(2) 0.5476(2)
C41_2 C 0.9524(2) 0.2926(2) 0.7246(2)
C42_2 C 0.7754(2) 0.4524(2) 0.7074(2)
Cu2_4 Cu 0.725802(16) 1.0000 0.225802(16)
Cu5_4 Cu 0.774198(16) 1.0000 0.274198(16)
O9_2 O 0.74709(13) 0.96388(14) 0.19512(14)
O19_2 O 0.70826(8) 0.95945(11) 0.26514(13)
O22_4 O 0.6840(2) 1.0000 0.1840(2)
H12_2 H 0.6861 0.9845 0.1638
Cu2_5 Cu -0.0000 0.725802(16) 0.225802(16)
Cu5_5 Cu -0.0000 0.774198(16) 0.274198(16)
O9_3 O 0.03612(14) 0.74709(13) 0.19512(14)
O19_3 O 0.04055(11) 0.70826(8) 0.26514(13)
O22_5 O -0.0000 0.6840(2) 0.1840(2)
H12_3 H 0.0155 0.6861 0.1638
Cu7_5 Cu 0.725802(16) 0.0000 0.774198(16)
Cu8_5 Cu 0.774198(16) 0.0000 0.725802(16)
Cu1_3 Cu 0.774198(16) 0.774198(16) 0.5000
O1_3 O 0.80488(14) 0.75291(13) 0.46388(14)
C1_3 C 0.81413(17) 0.71220(18) 0.42175(15)
O2_3 O 0.76514(13) 0.70826(8) 0.45945(11)
C2_3 C 0.8035(2) 0.68231(15) 0.40203(17)
H1_3 H 0.7824 0.6695 0.4087
O3_3 O 0.8160(2) 0.8160(2) 0.5000
H2_3 H 0.8362 0.8139 0.4845
C3_3 C 0.82341(16) 0.67112(15) 0.37270(11)
C4_3 C 0.85525(16) 0.68940(13) 0.36318(15)
C5_3 C 0.86652(15) 0.71924(17) 0.38357(16)
H3_3 H 0.8880 0.7316 0.3776
C6_3 C 0.84572(16) 0.73040(19) 0.41264(14)
H4_3 H 0.8531 0.7506 0.4264
C7_3 C 0.7926(2) 0.7246(2) 0.4524(2)
Cu2_6 Cu 1.0000 0.725802(16) 0.225802(16)
Cu3_3 Cu 0.725802(16) 0.5000 0.274198(16)
Cu4_3 Cu 0.725802(16) 0.725802(16) 0.5000
Cu5_6 Cu 1.0000 0.774198(16) 0.274198(16)
Cu6_3 Cu 0.774198(16) 0.5000 0.225802(16)
Cu7_6 Cu 0.725802(16) 1.0000 0.774198(16)
Cu8_6 Cu 0.774198(16) 1.0000 0.725802(16)
Cu9_3 Cu 0.5000 0.725802(16) 0.725802(16)
Cu10_3 Cu 0.5000 0.774198(16) 0.774198(16)
O4_3 O 0.96388(14) 0.69512(14) 0.24709(13)
O5_3 O 0.74709(13) 0.53612(14) 0.30488(14)
O6_3 O 0.75291(13) 0.80488(14) 0.53612(14)
O7_3 O 0.69512(14) 0.96388(14) 0.75291(13)
O8_3 O 0.53612(14) 0.74709(13) 0.69512(14)
O10_3 O 0.69512(14) 0.46388(14) 0.25291(13)
C8_3 C 0.92175(15) 0.68587(17) 0.28780(18)
C9_3 C 0.78780(18) 0.57825(15) 0.31413(17)
C10_3 C 0.71220(18) 0.81413(17) 0.57825(15)
C11_3 C 0.68587(17) 0.92175(15) 0.71220(18)
C12_3 C 0.57825(15) 0.78780(18) 0.68587(17)
O11_3 O 0.95945(11) 0.73486(13) 0.29174(8)
O12_3 O 0.79174(8) 0.54055(11) 0.26514(13)
O13_3 O 0.70826(8) 0.76514(13) 0.54055(11)
O14_3 O 0.73486(13) 0.95945(11) 0.70826(8)
O15_3 O 0.54055(11) 0.79174(8) 0.73486(13)
O16_3 O 0.73486(13) 0.79174(8) 0.45945(11)
O17_3 O 0.79174(8) 0.73486(13) 0.54055(11)
O18_3 O 0.95945(11) 0.76514(13) 0.20826(8)
O20_3 O 0.70826(8) 0.54055(11) 0.23486(13)
O21_3 O 0.76514(13) 0.45945(11) 0.29174(8)
C13_3 C 0.90203(17) 0.6965(2) 0.31769(15)
C14_3 C 0.81769(15) 0.59797(17) 0.3035(2)
C15_3 C 0.68231(15) 0.8035(2) 0.59797(17)
C16_3 C 0.6965(2) 0.90203(17) 0.68231(15)
C17_3 C 0.59797(17) 0.81769(15) 0.6965(2)
H5_3 H 0.8305 0.5913 0.2824
H6_3 H 0.9087 0.7176 0.3305
H7_3 H 0.6695 0.7824 0.5913
H8_3 H 0.5913 0.8305 0.7176
H9_3 H 0.7176 0.9087 0.6695
O22_6 O 1.0000 0.6840(2) 0.1840(2)
O23_3 O 0.6840(2) 0.5000 0.3160(2)
H10_3 H 0.8139 0.8362 0.5155
H11_3 H 0.9845 0.6638 0.1861
H13_3 H 0.6861 0.5155 0.3362
H14_3 H 0.6638 0.4845 0.3139
C18_3 C 0.87270(11) 0.67659(16) 0.32888(15)
C19_3 C 0.82888(15) 0.62730(11) 0.32341(16)
C20_3 C 0.67112(15) 0.82341(16) 0.62730(11)
C21_3 C 0.67659(16) 0.87270(11) 0.67112(15)
C22_3 C 0.62730(11) 0.82888(15) 0.67659(16)
C23_3 C 0.86318(15) 0.64475(16) 0.31060(13)
C24_3 C 0.81060(13) 0.63682(15) 0.35525(16)
C25_3 C 0.68940(13) 0.85525(16) 0.63682(15)
C26_3 C 0.64475(16) 0.86318(15) 0.68940(13)
C27_3 C 0.63682(15) 0.81060(13) 0.64475(16)
C28_3 C 0.88357(16) 0.63348(15) 0.28076(17)
C29_3 C 0.78076(17) 0.61643(16) 0.36652(15)
C30_3 C 0.71924(17) 0.86652(15) 0.61643(16)
C31_3 C 0.63348(15) 0.88357(16) 0.71924(17)
C32_3 C 0.61643(16) 0.78076(17) 0.63348(15)
H15_3 H 0.7684 0.6224 0.3880
H16_3 H 0.8776 0.6120 0.2684
H17_3 H 0.7316 0.8880 0.6224
H18_3 H 0.6224 0.7684 0.6120
H19_3 H 0.6120 0.8776 0.7316
C33_3 C 0.91264(14) 0.65428(16) 0.26960(19)
C34_3 C 0.76960(19) 0.58736(14) 0.34572(16)
C35_3 C 0.73040(19) 0.84572(16) 0.58736(14)
C36_3 C 0.65428(16) 0.91264(14) 0.73040(19)
C37_3 C 0.58736(14) 0.76960(19) 0.65428(16)
H20_3 H 0.7494 0.5736 0.3531
H21_3 H 0.9264 0.6469 0.2494
H22_3 H 0.7506 0.8531 0.5736
H23_3 H 0.5736 0.7494 0.6469
H24_3 H 0.6469 0.9264 0.7506
C38_3 C 0.9524(2) 0.7074(2) 0.2754(2)
C39_3 C 0.7754(2) 0.5476(2) 0.2926(2)
C40_3 C 0.7246(2) 0.7926(2) 0.5476(2)
C41_3 C 0.7074(2) 0.9524(2) 0.7246(2)
C42_3 C 0.5476(2) 0.7754(2) 0.7074(2)
Cu2_7 Cu 0.274198(16) 0.0000 0.225802(16)
Cu5_7 Cu 0.225802(16) 0.0000 0.274198(16)
O9_4 O 0.25291(13) 0.03612(14) 0.19512(14)
O19_4 O 0.29174(8) 0.04055(11) 0.26514(13)
O22_7 O 0.3160(2) 0.0000 0.1840(2)
H12_4 H 0.3139 0.0155 0.1638
Cu1_4 Cu 0.225802(16) 0.774198(16) 0.5000
O1_4 O 0.24709(13) 0.80488(14) 0.46388(14)
C1_4 C 0.28780(18) 0.81413(17) 0.42175(15)
O2_4 O 0.29174(8) 0.76514(13) 0.45945(11)
C2_4 C 0.31769(15) 0.8035(2) 0.40203(17)
H1_4 H 0.3305 0.7824 0.4087
O3_4 O 0.1840(2) 0.8160(2) 0.5000
H2_4 H 0.1861 0.8362 0.4845
C3_4 C 0.32888(15) 0.82341(16) 0.37270(11)
C4_4 C 0.31060(13) 0.85525(16) 0.36318(15)
C5_4 C 0.28076(17) 0.86652(15) 0.38357(16)
H3_4 H 0.2684 0.8880 0.3776
C6_4 C 0.26960(19) 0.84572(16) 0.41264(14)
H4_4 H 0.2494 0.8531 0.4264
C7_4 C 0.2754(2) 0.7926(2) 0.4524(2)
Cu2_8 Cu 0.274198(16) 1.0000 0.225802(16)
Cu3_4 Cu 0.5000 0.725802(16) 0.274198(16)
Cu4_4 Cu 0.274198(16) 0.725802(16) 0.5000
Cu5_8 Cu 0.225802(16) 1.0000 0.274198(16)
Cu6_4 Cu 0.5000 0.774198(16) 0.225802(16)
Cu7_7 Cu 0.0000 0.725802(16) 0.774198(16)
Cu8_7 Cu 0.0000 0.774198(16) 0.725802(16)
Cu9_4 Cu 0.274198(16) 0.5000 0.725802(16)
Cu10_4 Cu 0.225802(16) 0.5000 0.774198(16)
O4_4 O 0.30488(14) 0.96388(14) 0.24709(13)
O5_4 O 0.46388(14) 0.74709(13) 0.30488(14)
O6_4 O 0.19512(14) 0.75291(13) 0.53612(14)
O7_4 O 0.03612(14) 0.69512(14) 0.75291(13)
O8_4 O 0.25291(13) 0.53612(14) 0.69512(14)
O10_4 O 0.53612(14) 0.69512(14) 0.25291(13)
C8_4 C 0.31413(17) 0.92175(15) 0.28780(18)
C9_4 C 0.42175(15) 0.78780(18) 0.31413(17)
C10_4 C 0.18587(17) 0.71220(18) 0.57825(15)
C11_4 C 0.07825(15) 0.68587(17) 0.71220(18)
C12_4 C 0.21220(18) 0.57825(15) 0.68587(17)
O11_4 O 0.26514(13) 0.95945(11) 0.29174(8)
O12_4 O 0.45945(11) 0.79174(8) 0.26514(13)
O13_4 O 0.23486(13) 0.70826(8) 0.54055(11)
O14_4 O 0.04055(11) 0.73486(13) 0.70826(8)
O15_4 O 0.20826(8) 0.54055(11) 0.73486(13)
O16_4 O 0.20826(8) 0.73486(13) 0.45945(11)
O17_4 O 0.26514(13) 0.79174(8) 0.54055(11)
O18_4 O 0.23486(13) 0.95945(11) 0.20826(8)
O20_4 O 0.45945(11) 0.70826(8) 0.23486(13)
O21_4 O 0.54055(11) 0.76514(13) 0.29174(8)
C13_4 C 0.3035(2) 0.90203(17) 0.31769(15)
C14_4 C 0.40203(17) 0.81769(15) 0.3035(2)
C15_4 C 0.1965(2) 0.68231(15) 0.59797(17)
C16_4 C 0.09797(17) 0.6965(2) 0.68231(15)
C17_4 C 0.18231(15) 0.59797(17) 0.6965(2)
H5_4 H 0.4087 0.8305 0.2824
H6_4 H 0.2824 0.9087 0.3305
H7_4 H 0.2176 0.6695 0.5913
H8_4 H 0.1695 0.5913 0.7176
H9_4 H 0.0913 0.7176 0.6695
O22_8 O 0.3160(2) 1.0000 0.1840(2)
O23_4 O 0.5000 0.6840(2) 0.3160(2)
H10_4 H 0.1638 0.8139 0.5155
H11_4 H 0.3362 0.9845 0.1861
H13_4 H 0.4845 0.6861 0.3362
H14_4 H 0.5155 0.6638 0.3139
C18_4 C 0.32341(16) 0.87270(11) 0.32888(15)
C19_4 C 0.37270(11) 0.82888(15) 0.32341(16)
C20_4 C 0.17659(16) 0.67112(15) 0.62730(11)
C21_4 C 0.12730(11) 0.67659(16) 0.67112(15)
C22_4 C 0.17112(15) 0.62730(11) 0.67659(16)
C23_4 C 0.35525(16) 0.86318(15) 0.31060(13)
C24_4 C 0.36318(15) 0.81060(13) 0.35525(16)
C25_4 C 0.14475(16) 0.68940(13) 0.63682(15)
C26_4 C 0.13682(15) 0.64475(16) 0.68940(13)
C27_4 C 0.18940(13) 0.63682(15) 0.64475(16)
C28_4 C 0.36652(15) 0.88357(16) 0.28076(17)
C29_4 C 0.38357(16) 0.78076(17) 0.36652(15)
C30_4 C 0.13348(15) 0.71924(17) 0.61643(16)
C31_4 C 0.11643(16) 0.63348(15) 0.71924(17)
C32_4 C 0.21924(17) 0.61643(16) 0.63348(15)
H15_4 H 0.3776 0.7684 0.3880
H16_4 H 0.3880 0.8776 0.2684
H17_4 H 0.1120 0.7316 0.6224
H18_4 H 0.2316 0.6224 0.6120
H19_4 H 0.1224 0.6120 0.7316
C33_4 C 0.34572(16) 0.91264(14) 0.26960(19)
C34_4 C 0.41264(14) 0.76960(19) 0.34572(16)
C35_4 C 0.15428(16) 0.73040(19) 0.58736(14)
C36_4 C 0.08736(14) 0.65428(16) 0.73040(19)
C37_4 C 0.23040(19) 0.58736(14) 0.65428(16)
H20_4 H 0.4264 0.7494 0.3531
H21_4 H 0.3531 0.9264 0.2494
H22_4 H 0.1469 0.7506 0.5736
H23_4 H 0.2506 0.5736 0.6469
H24_4 H 0.0736 0.6469 0.7506
C38_4 C 0.2926(2) 0.9524(2) 0.2754(2)
C39_4 C 0.4524(2) 0.7754(2) 0.2926(2)
C40_4 C 0.2074(2) 0.7246(2) 0.5476(2)
C41_4 C 0.0476(2) 0.7074(2) 0.7246(2)
C42_4 C 0.2246(2) 0.5476(2) 0.7074(2)
Cu7_8 Cu 1.0000 0.725802(16) 0.774198(16)
Cu8_8 Cu 1.0000 0.774198(16) 0.725802(16)
O1_5 O 0.19512(14) 0.53612(14) 0.24709(13)
C1_5 C 0.18587(17) 0.57825(15) 0.28780(18)
C2_5 C 0.1965(2) 0.59797(17) 0.31769(15)
H1_5 H 0.2176 0.5913 0.3305
O3_5 O 0.1840(2) 0.5000 0.1840(2)
H2_5 H 0.1638 0.5155 0.1861
C3_5 C 0.17659(16) 0.62730(11) 0.32888(15)
C4_5 C 0.14475(16) 0.63682(15) 0.31060(13)
C5_5 C 0.13348(15) 0.61643(16) 0.28076(17)
H3_5 H 0.1120 0.6224 0.2684
C6_5 C 0.15428(16) 0.58736(14) 0.26960(19)
H4_5 H 0.1469 0.5736 0.2494
C7_5 C 0.2074(2) 0.5476(2) 0.2754(2)
Cu7_9 Cu 0.274198(16) 0.225802(16) 0.0000
Cu8_9 Cu 0.225802(16) 0.274198(16) 0.0000
O4_5 O 0.03612(14) 0.75291(13) 0.30488(14)
O5_5 O 0.25291(13) 0.69512(14) 0.46388(14)
O6_5 O 0.24709(13) 0.46388(14) 0.19512(14)
O7_5 O 0.30488(14) 0.24709(13) 0.03612(14)
O10_5 O 0.30488(14) 0.74709(13) 0.53612(14)
C8_5 C 0.07825(15) 0.71220(18) 0.31413(17)
C9_5 C 0.21220(18) 0.68587(17) 0.42175(15)
C10_5 C 0.28780(18) 0.42175(15) 0.18587(17)
C11_5 C 0.31413(17) 0.28780(18) 0.07825(15)
C12_5 C 0.42175(15) 0.31413(17) 0.21220(18)
O14_5 O 0.26514(13) 0.29174(8) 0.04055(11)
O15_5 O 0.45945(11) 0.26514(13) 0.20826(8)
O16_5 O 0.26514(13) 0.54055(11) 0.20826(8)
O18_5 O 0.04055(11) 0.79174(8) 0.23486(13)
C13_5 C 0.09797(17) 0.68231(15) 0.3035(2)
C14_5 C 0.18231(15) 0.6965(2) 0.40203(17)
C15_5 C 0.31769(15) 0.40203(17) 0.1965(2)
C16_5 C 0.3035(2) 0.31769(15) 0.09797(17)
C17_5 C 0.40203(17) 0.3035(2) 0.18231(15)
H5_5 H 0.1695 0.7176 0.4087
H6_5 H 0.0913 0.6695 0.2824
H7_5 H 0.3305 0.4087 0.2176
H8_5 H 0.4087 0.2824 0.1695
H9_5 H 0.2824 0.3305 0.0913
O22_9 O -0.0000 0.8160(2) 0.3160(2)
O23_5 O 0.3160(2) 0.6840(2) 0.5000
H10_5 H 0.1861 0.4845 0.1638
H11_5 H 0.0155 0.8139 0.3362
H13_5 H 0.3139 0.6638 0.4845
H14_5 H 0.3362 0.6861 0.5155
C18_5 C 0.12730(11) 0.67112(15) 0.32341(16)
C19_5 C 0.17112(15) 0.67659(16) 0.37270(11)
C20_5 C 0.32888(15) 0.37270(11) 0.17659(16)
C21_5 C 0.32341(16) 0.32888(15) 0.12730(11)
C22_5 C 0.37270(11) 0.32341(16) 0.17112(15)
C23_5 C 0.13682(15) 0.68940(13) 0.35525(16)
C24_5 C 0.18940(13) 0.64475(16) 0.36318(15)
C25_5 C 0.31060(13) 0.36318(15) 0.14475(16)
C26_5 C 0.35525(16) 0.31060(13) 0.13682(15)
C27_5 C 0.36318(15) 0.35525(16) 0.18940(13)
C28_5 C 0.11643(16) 0.71924(17) 0.36652(15)
C29_5 C 0.21924(17) 0.63348(15) 0.38357(16)
C30_5 C 0.28076(17) 0.38357(16) 0.13348(15)
C31_5 C 0.36652(15) 0.28076(17) 0.11643(16)
C32_5 C 0.38357(16) 0.36652(15) 0.21924(17)
H15_5 H 0.2316 0.6120 0.3776
H16_5 H 0.1224 0.7316 0.3880
H17_5 H 0.2684 0.3776 0.1120
H18_5 H 0.3776 0.3880 0.2316
H19_5 H 0.3880 0.2684 0.1224
C33_5 C 0.08736(14) 0.73040(19) 0.34572(16)
C34_5 C 0.23040(19) 0.65428(16) 0.41264(14)
C35_5 C 0.26960(19) 0.41264(14) 0.15428(16)
C36_5 C 0.34572(16) 0.26960(19) 0.08736(14)
C37_5 C 0.41264(14) 0.34572(16) 0.23040(19)
H20_5 H 0.2506 0.6469 0.4264
H21_5 H 0.0736 0.7506 0.3531
H22_5 H 0.2494 0.4264 0.1469
H23_5 H 0.4264 0.3531 0.2506
H24_5 H 0.3531 0.2494 0.0736
C38_5 C 0.0476(2) 0.7246(2) 0.2926(2)
C39_5 C 0.2246(2) 0.7074(2) 0.4524(2)
C40_5 C 0.2754(2) 0.4524(2) 0.2074(2)
C41_5 C 0.2926(2) 0.2754(2) 0.0476(2)
C42_5 C 0.4524(2) 0.2926(2) 0.2246(2)
Cu7_10 Cu 0.274198(16) 0.225802(16) 1.0000
Cu8_10 Cu 0.225802(16) 0.274198(16) 1.0000
O9_5 O 0.96388(14) 0.80488(14) 0.25291(13)
O22_10 O 1.0000 0.8160(2) 0.3160(2)
H12_5 H 0.9845 0.8362 0.3139
O10_6 O 0.30488(14) 0.46388(14) 0.74709(13)
O18_6 O 0.04055(11) 0.76514(13) 0.79174(8)
O20_5 O 0.29174(8) 0.54055(11) 0.76514(13)
O21_5 O 0.23486(13) 0.45945(11) 0.70826(8)
O22_11 O -0.0000 0.6840(2) 0.8160(2)
O23_6 O 0.3160(2) 0.5000 0.6840(2)
H11_6 H 0.0155 0.6638 0.8139
H13_6 H 0.3139 0.5155 0.6638
H14_6 H 0.3362 0.4845 0.6861
O9_6 O 0.96388(14) 0.74709(13) 0.80488(14)
O19_5 O 0.95945(11) 0.70826(8) 0.73486(13)
O22_12 O 1.0000 0.6840(2) 0.8160(2)
H12_6 H 0.9845 0.6861 0.8362
Cu7_11 Cu 0.274198(16) 0.774198(16) -0.0000
Cu8_11 Cu 0.225802(16) 0.725802(16) 0.0000
O1_6 O 0.19512(14) 0.46388(14) 0.75291(13)
C1_6 C 0.18587(17) 0.42175(15) 0.71220(18)
C2_6 C 0.1965(2) 0.40203(17) 0.68231(15)
H1_6 H 0.2176 0.4087 0.6695
O3_6 O 0.1840(2) 0.5000 0.8160(2)
H2_6 H 0.1638 0.4845 0.8139
C3_6 C 0.17659(16) 0.37270(11) 0.67112(15)
C4_6 C 0.14475(16) 0.36318(15) 0.68940(13)
C5_6 C 0.13348(15) 0.38357(16) 0.71924(17)
H3_6 H 0.1120 0.3776 0.7316
C6_6 C 0.15428(16) 0.41264(14) 0.73040(19)
H4_6 H 0.1469 0.4264 0.7506
C7_6 C 0.2074(2) 0.4524(2) 0.7246(2)
Cu7_12 Cu 0.274198(16) 0.774198(16) 1.0000
Cu8_12 Cu 0.225802(16) 0.725802(16) 1.0000
O4_6 O 0.03612(14) 0.24709(13) 0.69512(14)
O5_6 O 0.25291(13) 0.30488(14) 0.53612(14)
O6_6 O 0.24709(13) 0.53612(14) 0.80488(14)
O7_6 O 0.30488(14) 0.75291(13) 0.96388(14)
O8_5 O 0.46388(14) 0.69512(14) 0.74709(13)
O10_7 O 0.30488(14) 0.25291(13) 0.46388(14)
C8_6 C 0.07825(15) 0.28780(18) 0.68587(17)
C9_6 C 0.21220(18) 0.31413(17) 0.57825(15)
C10_6 C 0.28780(18) 0.57825(15) 0.81413(17)
C11_6 C 0.31413(17) 0.71220(18) 0.92175(15)
C12_6 C 0.42175(15) 0.68587(17) 0.78780(18)
O11_5 O 0.04055(11) 0.29174(8) 0.73486(13)
O14_6 O 0.26514(13) 0.70826(8) 0.95945(11)
O15_6 O 0.45945(11) 0.73486(13) 0.79174(8)
O16_6 O 0.26514(13) 0.45945(11) 0.79174(8)
O18_7 O 0.04055(11) 0.20826(8) 0.76514(13)
C13_6 C 0.09797(17) 0.31769(15) 0.6965(2)
C14_6 C 0.18231(15) 0.3035(2) 0.59797(17)
C15_6 C 0.31769(15) 0.59797(17) 0.8035(2)
C16_6 C 0.3035(2) 0.68231(15) 0.90203(17)
C17_6 C 0.40203(17) 0.6965(2) 0.81769(15)
H5_6 H 0.1695 0.2824 0.5913
H6_6 H 0.0913 0.3305 0.7176
H7_6 H 0.3305 0.5913 0.7824
H8_6 H 0.4087 0.7176 0.8305
H9_6 H 0.2824 0.6695 0.9087
O22_13 O -0.0000 0.1840(2) 0.6840(2)
O23_7 O 0.3160(2) 0.3160(2) 0.5000
H10_6 H 0.1861 0.5155 0.8362
H11_7 H 0.0155 0.1861 0.6638
H13_7 H 0.3139 0.3362 0.5155
H14_7 H 0.3362 0.3139 0.4845
C18_6 C 0.12730(11) 0.32888(15) 0.67659(16)
C19_6 C 0.17112(15) 0.32341(16) 0.62730(11)
C20_6 C 0.32888(15) 0.62730(11) 0.82341(16)
C21_6 C 0.32341(16) 0.67112(15) 0.87270(11)
C22_6 C 0.37270(11) 0.67659(16) 0.82888(15)
C23_6 C 0.13682(15) 0.31060(13) 0.64475(16)
C24_6 C 0.18940(13) 0.35525(16) 0.63682(15)
C25_6 C 0.31060(13) 0.63682(15) 0.85525(16)
C26_6 C 0.35525(16) 0.68940(13) 0.86318(15)
C27_6 C 0.36318(15) 0.64475(16) 0.81060(13)
C28_6 C 0.11643(16) 0.28076(17) 0.63348(15)
C29_6 C 0.21924(17) 0.36652(15) 0.61643(16)
C30_6 C 0.28076(17) 0.61643(16) 0.86652(15)
C31_6 C 0.36652(15) 0.71924(17) 0.88357(16)
C32_6 C 0.38357(16) 0.63348(15) 0.78076(17)
H15_6 H 0.2316 0.3880 0.6224
H16_6 H 0.1224 0.2684 0.6120
H17_6 H 0.2684 0.6224 0.8880
H18_6 H 0.3776 0.6120 0.7684
H19_6 H 0.3880 0.7316 0.8776
C33_6 C 0.08736(14) 0.26960(19) 0.65428(16)
C34_6 C 0.23040(19) 0.34572(16) 0.58736(14)
C35_6 C 0.26960(19) 0.58736(14) 0.84572(16)
C36_6 C 0.34572(16) 0.73040(19) 0.91264(14)
C37_6 C 0.41264(14) 0.65428(16) 0.76960(19)
H20_6 H 0.2506 0.3531 0.5736
H21_6 H 0.0736 0.2494 0.6469
H22_6 H 0.2494 0.5736 0.8531
H23_6 H 0.4264 0.6469 0.7494
H24_6 H 0.3531 0.7506 0.9264
C38_6 C 0.0476(2) 0.2754(2) 0.7074(2)
C39_6 C 0.2246(2) 0.2926(2) 0.5476(2)
C40_6 C 0.2754(2) 0.5476(2) 0.7926(2)
C41_6 C 0.2926(2) 0.7246(2) 0.9524(2)
C42_6 C 0.4524(2) 0.7074(2) 0.7754(2)
O9_7 O 0.96388(14) 0.19512(14) 0.74709(13)
O22_14 O 1.0000 0.1840(2) 0.6840(2)
H12_7 H 0.9845 0.1638 0.6861
O9_8 O 0.19512(14) 0.25291(13) 0.03612(14)
O22_15 O 0.1840(2) 0.3160(2) 0.0000
H12_8 H 0.1638 0.3139 0.0155
O1_7 O 0.46388(14) 0.24709(13) 0.80488(14)
C1_7 C 0.42175(15) 0.28780(18) 0.81413(17)
O2_5 O 0.45945(11) 0.29174(8) 0.76514(13)
C2_7 C 0.40203(17) 0.31769(15) 0.8035(2)
H1_7 H 0.4087 0.3305 0.7824
O3_7 O 0.5000 0.1840(2) 0.8160(2)
H2_7 H 0.4845 0.1861 0.8362
C3_7 C 0.37270(11) 0.32888(15) 0.82341(16)
C4_7 C 0.36318(15) 0.31060(13) 0.85525(16)
C5_7 C 0.38357(16) 0.28076(17) 0.86652(15)
H3_7 H 0.3776 0.2684 0.8880
C6_7 C 0.41264(14) 0.26960(19) 0.84572(16)
H4_7 H 0.4264 0.2494 0.8531
C7_7 C 0.4524(2) 0.2754(2) 0.7926(2)
O4_7 O 0.24709(13) 0.30488(14) 0.96388(14)
O6_7 O 0.53612(14) 0.19512(14) 0.75291(13)
O7_7 O 0.75291(13) 0.03612(14) 0.69512(14)
O8_6 O 0.69512(14) 0.25291(13) 0.53612(14)
C8_7 C 0.28780(18) 0.31413(17) 0.92175(15)
C9_7 C 0.31413(17) 0.42175(15) 0.78780(18)
C10_7 C 0.57825(15) 0.18587(17) 0.71220(18)
C11_7 C 0.71220(18) 0.07825(15) 0.68587(17)
C12_7 C 0.68587(17) 0.21220(18) 0.57825(15)
O11_6 O 0.29174(8) 0.26514(13) 0.95945(11)
O13_5 O 0.54055(11) 0.23486(13) 0.70826(8)
O14_7 O 0.70826(8) 0.04055(11) 0.73486(13)
O17_5 O 0.54055(11) 0.26514(13) 0.79174(8)
O18_8 O 0.20826(8) 0.23486(13) 0.95945(11)
C13_7 C 0.31769(15) 0.3035(2) 0.90203(17)
C14_7 C 0.3035(2) 0.40203(17) 0.81769(15)
C15_7 C 0.59797(17) 0.1965(2) 0.68231(15)
C16_7 C 0.68231(15) 0.09797(17) 0.6965(2)
C17_7 C 0.6965(2) 0.18231(15) 0.59797(17)
H5_7 H 0.2824 0.4087 0.8305
H6_7 H 0.3305 0.2824 0.9087
H7_7 H 0.5913 0.2176 0.6695
H8_7 H 0.7176 0.1695 0.5913
H9_7 H 0.6695 0.0913 0.7176
O22_16 O 0.1840(2) 0.3160(2) 1.0000
H10_7 H 0.5155 0.1638 0.8139
H11_8 H 0.1861 0.3362 0.9845
C18_7 C 0.32888(15) 0.32341(16) 0.87270(11)
C19_7 C 0.32341(16) 0.37270(11) 0.82888(15)
C20_7 C 0.62730(11) 0.17659(16) 0.67112(15)
C21_7 C 0.67112(15) 0.12730(11) 0.67659(16)
C22_7 C 0.67659(16) 0.17112(15) 0.62730(11)
C23_7 C 0.31060(13) 0.35525(16) 0.86318(15)
C24_7 C 0.35525(16) 0.36318(15) 0.81060(13)
C25_7 C 0.63682(15) 0.14475(16) 0.68940(13)
C26_7 C 0.68940(13) 0.13682(15) 0.64475(16)
C27_7 C 0.64475(16) 0.18940(13) 0.63682(15)
C28_7 C 0.28076(17) 0.36652(15) 0.88357(16)
C29_7 C 0.36652(15) 0.38357(16) 0.78076(17)
C30_7 C 0.61643(16) 0.13348(15) 0.71924(17)
C31_7 C 0.71924(17) 0.11643(16) 0.63348(15)
C32_7 C 0.63348(15) 0.21924(17) 0.61643(16)
H15_7 H 0.3880 0.3776 0.7684
H16_7 H 0.2684 0.3880 0.8776
H17_7 H 0.6224 0.1120 0.7316
H18_7 H 0.6120 0.2316 0.6224
H19_7 H 0.7316 0.1224 0.6120
C33_7 C 0.26960(19) 0.34572(16) 0.91264(14)
C34_7 C 0.34572(16) 0.41264(14) 0.76960(19)
C35_7 C 0.58736(14) 0.15428(16) 0.73040(19)
C36_7 C 0.73040(19) 0.08736(14) 0.65428(16)
C37_7 C 0.65428(16) 0.23040(19) 0.58736(14)
H20_7 H 0.3531 0.4264 0.7494
H21_7 H 0.2494 0.3531 0.9264
H22_7 H 0.5736 0.1469 0.7506
H23_7 H 0.6469 0.2506 0.5736
H24_7 H 0.7506 0.0736 0.6469
C38_7 C 0.2754(2) 0.2926(2) 0.9524(2)
C39_7 C 0.2926(2) 0.4524(2) 0.7754(2)
C40_7 C 0.5476(2) 0.2074(2) 0.7246(2)
C41_7 C 0.7246(2) 0.0476(2) 0.7074(2)
C42_7 C 0.7074(2) 0.2246(2) 0.5476(2)
O9_9 O 0.03612(14) 0.25291(13) 0.80488(14)
O22_17 O 0.0000 0.3160(2) 0.8160(2)
H12_9 H 0.0155 0.3139 0.8362
O10_8 O 0.69512(14) 0.53612(14) 0.74709(13)
O18_9 O 0.95945(11) 0.23486(13) 0.79174(8)
O20_6 O 0.70826(8) 0.45945(11) 0.76514(13)
O21_6 O 0.76514(13) 0.54055(11) 0.70826(8)
O22_18 O 1.0000 0.3160(2) 0.8160(2)
O23_8 O 0.6840(2) 0.5000 0.6840(2)
H11_9 H 0.9845 0.3362 0.8139
H13_8 H 0.6861 0.4845 0.6638
H14_8 H 0.6638 0.5155 0.6861
O1_8 O 0.53612(14) 0.24709(13) 0.19512(14)
C1_8 C 0.57825(15) 0.28780(18) 0.18587(17)
C2_8 C 0.59797(17) 0.31769(15) 0.1965(2)
H1_8 H 0.5913 0.3305 0.2176
O3_8 O 0.5000 0.1840(2) 0.1840(2)
H2_8 H 0.5155 0.1861 0.1638
C3_8 C 0.62730(11) 0.32888(15) 0.17659(16)
C4_8 C 0.63682(15) 0.31060(13) 0.14475(16)
C5_8 C 0.61643(16) 0.28076(17) 0.13348(15)
H3_8 H 0.6224 0.2684 0.1120
C6_8 C 0.58736(14) 0.26960(19) 0.15428(16)
H4_8 H 0.5736 0.2494 0.1469
C7_8 C 0.5476(2) 0.2754(2) 0.2074(2)
Cu2_9 Cu 0.774198(16) 0.274198(16) -0.0000
Cu5_9 Cu 0.725802(16) 0.225802(16) 0.0000
O4_8 O 0.75291(13) 0.30488(14) 0.03612(14)
O6_8 O 0.46388(14) 0.19512(14) 0.24709(13)
O7_8 O 0.24709(13) 0.03612(14) 0.30488(14)
C8_8 C 0.71220(18) 0.31413(17) 0.07825(15)
C9_8 C 0.68587(17) 0.42175(15) 0.21220(18)
C10_8 C 0.42175(15) 0.18587(17) 0.28780(18)
C11_8 C 0.28780(18) 0.07825(15) 0.31413(17)
C12_8 C 0.31413(17) 0.21220(18) 0.42175(15)
O11_7 O 0.70826(8) 0.26514(13) 0.04055(11)
O12_5 O 0.73486(13) 0.45945(11) 0.20826(8)
O18_10 O 0.79174(8) 0.23486(13) 0.04055(11)
C13_8 C 0.68231(15) 0.3035(2) 0.09797(17)
C14_8 C 0.6965(2) 0.40203(17) 0.18231(15)
C15_8 C 0.40203(17) 0.1965(2) 0.31769(15)
C16_8 C 0.31769(15) 0.09797(17) 0.3035(2)
C17_8 C 0.3035(2) 0.18231(15) 0.40203(17)
H5_8 H 0.7176 0.4087 0.1695
H6_8 H 0.6695 0.2824 0.0913
H7_8 H 0.4087 0.2176 0.3305
H8_8 H 0.2824 0.1695 0.4087
H9_8 H 0.3305 0.0913 0.2824
O22_19 O 0.8160(2) 0.3160(2) -0.0000
H10_8 H 0.4845 0.1638 0.1861
H11_10 H 0.8139 0.3362 0.0155
C18_8 C 0.67112(15) 0.32341(16) 0.12730(11)
C19_8 C 0.67659(16) 0.37270(11) 0.17112(15)
C20_8 C 0.37270(11) 0.17659(16) 0.32888(15)
C21_8 C 0.32888(15) 0.12730(11) 0.32341(16)
C22_8 C 0.32341(16) 0.17112(15) 0.37270(11)
C23_8 C 0.68940(13) 0.35525(16) 0.13682(15)
C24_8 C 0.64475(16) 0.36318(15) 0.18940(13)
C25_8 C 0.36318(15) 0.14475(16) 0.31060(13)
C26_8 C 0.31060(13) 0.13682(15) 0.35525(16)
C27_8 C 0.35525(16) 0.18940(13) 0.36318(15)
C28_8 C 0.71924(17) 0.36652(15) 0.11643(16)
C29_8 C 0.63348(15) 0.38357(16) 0.21924(17)
C30_8 C 0.38357(16) 0.13348(15) 0.28076(17)
C31_8 C 0.28076(17) 0.11643(16) 0.36652(15)
C32_8 C 0.36652(15) 0.21924(17) 0.38357(16)
H15_8 H 0.6120 0.3776 0.2316
H16_8 H 0.7316 0.3880 0.1224
H17_8 H 0.3776 0.1120 0.2684
H18_8 H 0.3880 0.2316 0.3776
H19_8 H 0.2684 0.1224 0.3880
C33_8 C 0.73040(19) 0.34572(16) 0.08736(14)
C34_8 C 0.65428(16) 0.41264(14) 0.23040(19)
C35_8 C 0.41264(14) 0.15428(16) 0.26960(19)
C36_8 C 0.26960(19) 0.08736(14) 0.34572(16)
C37_8 C 0.34572(16) 0.23040(19) 0.41264(14)
H20_8 H 0.6469 0.4264 0.2506
H21_8 H 0.7506 0.3531 0.0736
H22_8 H 0.4264 0.1469 0.2494
H23_8 H 0.3531 0.2506 0.4264
H24_8 H 0.2494 0.0736 0.3531
C38_8 C 0.7246(2) 0.2926(2) 0.0476(2)
C39_8 C 0.7074(2) 0.4524(2) 0.2246(2)
C40_8 C 0.4524(2) 0.2074(2) 0.2754(2)
C41_8 C 0.2754(2) 0.0476(2) 0.2926(2)
C42_8 C 0.2926(2) 0.2246(2) 0.4524(2)
Cu2_10 Cu 0.774198(16) 0.274198(16) 1.0000
Cu5_10 Cu 0.725802(16) 0.225802(16) 1.0000
O9_10 O 0.80488(14) 0.25291(13) 0.96388(14)
O19_6 O 0.73486(13) 0.29174(8) 0.95945(11)
O22_20 O 0.8160(2) 0.3160(2) 1.0000
H12_10 H 0.8362 0.3139 0.9845
O18_11 O 0.20826(8) 0.04055(11) 0.23486(13)
O22_21 O 0.1840(2) -0.0000 0.3160(2)
H11_11 H 0.1861 0.0155 0.3362
O9_11 O 0.19512(14) 0.96388(14) 0.25291(13)
O22_22 O 0.1840(2) 1.0000 0.3160(2)
H12_11 H 0.1638 0.9845 0.3139
O18_12 O 0.23486(13) 0.20826(8) 0.04055(11)
O22_23 O 0.3160(2) 0.1840(2) -0.0000
H11_12 H 0.3362 0.1861 0.0155
O9_12 O 0.25291(13) 0.19512(14) 0.96388(14)
O22_24 O 0.3160(2) 0.1840(2) 1.0000
H12_12 H 0.3139 0.1638 0.9845
O1_9 O 0.75291(13) 0.53612(14) 0.19512(14)
C1_9 C 0.71220(18) 0.57825(15) 0.18587(17)
C2_9 C 0.68231(15) 0.59797(17) 0.1965(2)
H1_9 H 0.6695 0.5913 0.2176
O3_9 O 0.8160(2) 0.5000 0.1840(2)
H2_9 H 0.8139 0.5155 0.1638
C3_9 C 0.67112(15) 0.62730(11) 0.17659(16)
C4_9 C 0.68940(13) 0.63682(15) 0.14475(16)
C5_9 C 0.71924(17) 0.61643(16) 0.13348(15)
H3_9 H 0.7316 0.6224 0.1120
C6_9 C 0.73040(19) 0.58736(14) 0.15428(16)
H4_9 H 0.7506 0.5736 0.1469
C7_9 C 0.7246(2) 0.5476(2) 0.2074(2)
Cu2_11 Cu 0.725802(16) 0.774198(16) -0.0000
Cu5_11 Cu 0.774198(16) 0.725802(16) 0.0000
O4_9 O 0.69512(14) 0.75291(13) 0.03612(14)
O6_9 O 0.80488(14) 0.46388(14) 0.24709(13)
O7_9 O 0.96388(14) 0.24709(13) 0.30488(14)
O8_7 O 0.74709(13) 0.30488(14) 0.46388(14)
C8_9 C 0.68587(17) 0.71220(18) 0.07825(15)
C9_9 C 0.57825(15) 0.68587(17) 0.21220(18)
C10_9 C 0.81413(17) 0.42175(15) 0.28780(18)
C11_9 C 0.92175(15) 0.28780(18) 0.31413(17)
C12_9 C 0.78780(18) 0.31413(17) 0.42175(15)
O11_8 O 0.73486(13) 0.70826(8) 0.04055(11)
O12_6 O 0.54055(11) 0.73486(13) 0.20826(8)
O18_13 O 0.76514(13) 0.79174(8) 0.04055(11)
C13_9 C 0.6965(2) 0.68231(15) 0.09797(17)
C14_9 C 0.59797(17) 0.6965(2) 0.18231(15)
C15_9 C 0.8035(2) 0.40203(17) 0.31769(15)
C16_9 C 0.90203(17) 0.31769(15) 0.3035(2)
C17_9 C 0.81769(15) 0.3035(2) 0.40203(17)
H5_9 H 0.5913 0.7176 0.1695
H6_9 H 0.7176 0.6695 0.0913
H7_9 H 0.7824 0.4087 0.3305
H8_9 H 0.8305 0.2824 0.4087
H9_9 H 0.9087 0.3305 0.2824
O22_25 O 0.6840(2) 0.8160(2) -0.0000
H10_9 H 0.8362 0.4845 0.1861
H11_13 H 0.6638 0.8139 0.0155
C18_9 C 0.67659(16) 0.67112(15) 0.12730(11)
C19_9 C 0.62730(11) 0.67659(16) 0.17112(15)
C20_9 C 0.82341(16) 0.37270(11) 0.32888(15)
C21_9 C 0.87270(11) 0.32888(15) 0.32341(16)
C22_9 C 0.82888(15) 0.32341(16) 0.37270(11)
C23_9 C 0.64475(16) 0.68940(13) 0.13682(15)
C24_9 C 0.63682(15) 0.64475(16) 0.18940(13)
C25_9 C 0.85525(16) 0.36318(15) 0.31060(13)
C26_9 C 0.86318(15) 0.31060(13) 0.35525(16)
C27_9 C 0.81060(13) 0.35525(16) 0.36318(15)
C28_9 C 0.63348(15) 0.71924(17) 0.11643(16)
C29_9 C 0.61643(16) 0.63348(15) 0.21924(17)
C30_9 C 0.86652(15) 0.38357(16) 0.28076(17)
C31_9 C 0.88357(16) 0.28076(17) 0.36652(15)
C32_9 C 0.78076(17) 0.36652(15) 0.38357(16)
H15_9 H 0.6224 0.6120 0.2316
H16_9 H 0.6120 0.7316 0.1224
H17_9 H 0.8880 0.3776 0.2684
H18_9 H 0.7684 0.3880 0.3776
H19_9 H 0.8776 0.2684 0.3880
C33_9 C 0.65428(16) 0.73040(19) 0.08736(14)
C34_9 C 0.58736(14) 0.65428(16) 0.23040(19)
C35_9 C 0.84572(16) 0.41264(14) 0.26960(19)
C36_9 C 0.91264(14) 0.26960(19) 0.34572(16)
C37_9 C 0.76960(19) 0.34572(16) 0.41264(14)
H20_9 H 0.5736 0.6469 0.2506
H21_9 H 0.6469 0.7506 0.0736
H22_9 H 0.8531 0.4264 0.2494
H23_9 H 0.7494 0.3531 0.4264
H24_9 H 0.9264 0.2494 0.3531
C38_9 C 0.7074(2) 0.7246(2) 0.0476(2)
C39_9 C 0.5476(2) 0.7074(2) 0.2246(2)
C40_9 C 0.7926(2) 0.4524(2) 0.2754(2)
C41_9 C 0.9524(2) 0.2754(2) 0.2926(2)
C42_9 C 0.7754(2) 0.2926(2) 0.4524(2)
Cu2_12 Cu 0.725802(16) 0.774198(16) 1.0000
Cu5_12 Cu 0.774198(16) 0.725802(16) 1.0000
O9_13 O 0.74709(13) 0.80488(14) 0.96388(14)
O19_7 O 0.70826(8) 0.73486(13) 0.95945(11)
O22_26 O 0.6840(2) 0.8160(2) 1.0000
H12_13 H 0.6861 0.8362 0.9845
O9_14 O 0.19512(14) 0.03612(14) 0.74709(13)
O22_27 O 0.1840(2) -0.0000 0.6840(2)
H12_14 H 0.1638 0.0155 0.6861
O1_10 O 0.46388(14) 0.80488(14) 0.75291(13)
C1_10 C 0.42175(15) 0.81413(17) 0.71220(18)
O2_6 O 0.45945(11) 0.76514(13) 0.70826(8)
C2_10 C 0.40203(17) 0.8035(2) 0.68231(15)
H1_10 H 0.4087 0.7824 0.6695
O3_10 O 0.5000 0.8160(2) 0.8160(2)
H2_10 H 0.4845 0.8362 0.8139
C3_10 C 0.37270(11) 0.82341(16) 0.67112(15)
C4_10 C 0.36318(15) 0.85525(16) 0.68940(13)
C5_10 C 0.38357(16) 0.86652(15) 0.71924(17)
H3_10 H 0.3776 0.8880 0.7316
C6_10 C 0.41264(14) 0.84572(16) 0.73040(19)
H4_10 H 0.4264 0.8531 0.7506
C7_10 C 0.4524(2) 0.7926(2) 0.7246(2)
O4_10 O 0.24709(13) 0.96388(14) 0.69512(14)
O6_10 O 0.53612(14) 0.75291(13) 0.80488(14)
O7_10 O 0.75291(13) 0.69512(14) 0.96388(14)
C8_10 C 0.28780(18) 0.92175(15) 0.68587(17)
C9_10 C 0.31413(17) 0.78780(18) 0.57825(15)
C10_10 C 0.57825(15) 0.71220(18) 0.81413(17)
C11_10 C 0.71220(18) 0.68587(17) 0.92175(15)
C12_10 C 0.68587(17) 0.57825(15) 0.78780(18)
O11_9 O 0.29174(8) 0.95945(11) 0.73486(13)
O13_6 O 0.54055(11) 0.70826(8) 0.76514(13)
O15_7 O 0.73486(13) 0.54055(11) 0.79174(8)
O18_14 O 0.20826(8) 0.95945(11) 0.76514(13)
C13_10 C 0.31769(15) 0.90203(17) 0.6965(2)
C14_10 C 0.3035(2) 0.81769(15) 0.59797(17)
C15_10 C 0.59797(17) 0.68231(15) 0.8035(2)
C16_10 C 0.68231(15) 0.6965(2) 0.90203(17)
C17_10 C 0.6965(2) 0.59797(17) 0.81769(15)
H5_10 H 0.2824 0.8305 0.5913
H6_10 H 0.3305 0.9087 0.7176
H7_10 H 0.5913 0.6695 0.7824
H8_10 H 0.7176 0.5913 0.8305
H9_10 H 0.6695 0.7176 0.9087
O22_28 O 0.1840(2) 1.0000 0.6840(2)
H10_10 H 0.5155 0.8139 0.8362
H11_14 H 0.1861 0.9845 0.6638
C18_10 C 0.32888(15) 0.87270(11) 0.67659(16)
C19_10 C 0.32341(16) 0.82888(15) 0.62730(11)
C20_10 C 0.62730(11) 0.67112(15) 0.82341(16)
C21_10 C 0.67112(15) 0.67659(16) 0.87270(11)
C22_10 C 0.67659(16) 0.62730(11) 0.82888(15)
C23_10 C 0.31060(13) 0.86318(15) 0.64475(16)
C24_10 C 0.35525(16) 0.81060(13) 0.63682(15)
C25_10 C 0.63682(15) 0.68940(13) 0.85525(16)
C26_10 C 0.68940(13) 0.64475(16) 0.86318(15)
C27_10 C 0.64475(16) 0.63682(15) 0.81060(13)
C28_10 C 0.28076(17) 0.88357(16) 0.63348(15)
C29_10 C 0.36652(15) 0.78076(17) 0.61643(16)
C30_10 C 0.61643(16) 0.71924(17) 0.86652(15)
C31_10 C 0.71924(17) 0.63348(15) 0.88357(16)
C32_10 C 0.63348(15) 0.61643(16) 0.78076(17)
H15_10 H 0.3880 0.7684 0.6224
H16_10 H 0.2684 0.8776 0.6120
H17_10 H 0.6224 0.7316 0.8880
H18_10 H 0.6120 0.6224 0.7684
H19_10 H 0.7316 0.6120 0.8776
C33_10 C 0.26960(19) 0.91264(14) 0.65428(16)
C34_10 C 0.34572(16) 0.76960(19) 0.58736(14)
C35_10 C 0.58736(14) 0.73040(19) 0.84572(16)
C36_10 C 0.73040(19) 0.65428(16) 0.91264(14)
C37_10 C 0.65428(16) 0.58736(14) 0.76960(19)
H20_10 H 0.3531 0.7494 0.5736
H21_10 H 0.2494 0.9264 0.6469
H22_10 H 0.5736 0.7506 0.8531
H23_10 H 0.6469 0.5736 0.7494
H24_10 H 0.7506 0.6469 0.9264
C38_10 C 0.2754(2) 0.9524(2) 0.7074(2)
C39_10 C 0.2926(2) 0.7754(2) 0.5476(2)
C40_10 C 0.5476(2) 0.7246(2) 0.7926(2)
C41_10 C 0.7246(2) 0.7074(2) 0.9524(2)
C42_10 C 0.7074(2) 0.5476(2) 0.7754(2)
O9_15 O 0.74709(13) 0.19512(14) 0.03612(14)
O22_29 O 0.6840(2) 0.1840(2) 0.0000
H12_15 H 0.6861 0.1638 0.0155
O1_11 O 0.75291(13) 0.46388(14) 0.80488(14)
C1_11 C 0.71220(18) 0.42175(15) 0.81413(17)
C2_11 C 0.68231(15) 0.40203(17) 0.8035(2)
H1_11 H 0.6695 0.4087 0.7824
O3_11 O 0.8160(2) 0.5000 0.8160(2)
H2_11 H 0.8139 0.4845 0.8362
C3_11 C 0.67112(15) 0.37270(11) 0.82341(16)
C4_11 C 0.68940(13) 0.36318(15) 0.85525(16)
C5_11 C 0.71924(17) 0.38357(16) 0.86652(15)
H3_11 H 0.7316 0.3776 0.8880
C6_11 C 0.73040(19) 0.41264(14) 0.84572(16)
H4_11 H 0.7506 0.4264 0.8531
C7_11 C 0.7246(2) 0.4524(2) 0.7926(2)
O4_11 O 0.69512(14) 0.24709(13) 0.96388(14)
O5_7 O 0.53612(14) 0.30488(14) 0.74709(13)
O6_11 O 0.80488(14) 0.53612(14) 0.75291(13)
O7_11 O 0.96388(14) 0.75291(13) 0.69512(14)
O8_8 O 0.74709(13) 0.69512(14) 0.53612(14)
C8_11 C 0.68587(17) 0.28780(18) 0.92175(15)
C9_11 C 0.57825(15) 0.31413(17) 0.78780(18)
C10_11 C 0.81413(17) 0.57825(15) 0.71220(18)
C11_11 C 0.92175(15) 0.71220(18) 0.68587(17)
C12_11 C 0.78780(18) 0.68587(17) 0.57825(15)
O18_15 O 0.76514(13) 0.20826(8) 0.95945(11)
C13_11 C 0.6965(2) 0.31769(15) 0.90203(17)
C14_11 C 0.59797(17) 0.3035(2) 0.81769(15)
C15_11 C 0.8035(2) 0.59797(17) 0.68231(15)
C16_11 C 0.90203(17) 0.68231(15) 0.6965(2)
C17_11 C 0.81769(15) 0.6965(2) 0.59797(17)
H5_11 H 0.5913 0.2824 0.8305
H6_11 H 0.7176 0.3305 0.9087
H7_11 H 0.7824 0.5913 0.6695
H8_11 H 0.8305 0.7176 0.5913
H9_11 H 0.9087 0.6695 0.7176
O22_30 O 0.6840(2) 0.1840(2) 1.0000
O23_9 O 0.5000 0.3160(2) 0.6840(2)
H10_11 H 0.8362 0.5155 0.8139
H11_15 H 0.6638 0.1861 0.9845
H13_9 H 0.5155 0.3362 0.6861
H14_9 H 0.4845 0.3139 0.6638
C18_11 C 0.67659(16) 0.32888(15) 0.87270(11)
C19_11 C 0.62730(11) 0.32341(16) 0.82888(15)
C20_11 C 0.82341(16) 0.62730(11) 0.67112(15)
C21_11 C 0.87270(11) 0.67112(15) 0.67659(16)
C22_11 C 0.82888(15) 0.67659(16) 0.62730(11)
C23_11 C 0.64475(16) 0.31060(13) 0.86318(15)
C24_11 C 0.63682(15) 0.35525(16) 0.81060(13)
C25_11 C 0.85525(16) 0.63682(15) 0.68940(13)
C26_11 C 0.86318(15) 0.68940(13) 0.64475(16)
C27_11 C 0.81060(13) 0.64475(16) 0.63682(15)
C28_11 C 0.63348(15) 0.28076(17) 0.88357(16)
C29_11 C 0.61643(16) 0.36652(15) 0.78076(17)
C30_11 C 0.86652(15) 0.61643(16) 0.71924(17)
C31_11 C 0.88357(16) 0.71924(17) 0.63348(15)
C32_11 C 0.78076(17) 0.63348(15) 0.61643(16)
H15_11 H 0.6224 0.3880 0.7684
H16_11 H 0.6120 0.2684 0.8776
H17_11 H 0.8880 0.6224 0.7316
H18_11 H 0.7684 0.6120 0.6224
H19_11 H 0.8776 0.7316 0.6120
C33_11 C 0.65428(16) 0.26960(19) 0.91264(14)
C34_11 C 0.58736(14) 0.34572(16) 0.76960(19)
C35_11 C 0.84572(16) 0.58736(14) 0.73040(19)
C36_11 C 0.91264(14) 0.73040(19) 0.65428(16)
C37_11 C 0.76960(19) 0.65428(16) 0.58736(14)
H20_11 H 0.5736 0.3531 0.7494
H21_11 H 0.6469 0.2494 0.9264
H22_11 H 0.8531 0.5736 0.7506
H23_11 H 0.7494 0.6469 0.5736
H24_11 H 0.9264 0.7506 0.6469
C38_11 C 0.7074(2) 0.2754(2) 0.9524(2)
C39_11 C 0.5476(2) 0.2926(2) 0.7754(2)
C40_11 C 0.7926(2) 0.5476(2) 0.7246(2)
C41_11 C 0.9524(2) 0.7246(2) 0.7074(2)
C42_11 C 0.7754(2) 0.7074(2) 0.5476(2)
O9_16 O 0.80488(14) 0.03612(14) 0.25291(13)
O22_31 O 0.8160(2) 0.0000 0.3160(2)
H12_16 H 0.8362 0.0155 0.3139
O1_12 O 0.53612(14) 0.80488(14) 0.24709(13)
C1_12 C 0.57825(15) 0.81413(17) 0.28780(18)
C2_12 C 0.59797(17) 0.8035(2) 0.31769(15)
H1_12 H 0.5913 0.7824 0.3305
O3_12 O 0.5000 0.8160(2) 0.1840(2)
H2_12 H 0.5155 0.8362 0.1861
C3_12 C 0.62730(11) 0.82341(16) 0.32888(15)
C4_12 C 0.63682(15) 0.85525(16) 0.31060(13)
C5_12 C 0.61643(16) 0.86652(15) 0.28076(17)
H3_12 H 0.6224 0.8880 0.2684
C6_12 C 0.58736(14) 0.84572(16) 0.26960(19)
H4_12 H 0.5736 0.8531 0.2494
C7_12 C 0.5476(2) 0.7926(2) 0.2754(2)
O4_12 O 0.75291(13) 0.96388(14) 0.30488(14)
O5_8 O 0.69512(14) 0.74709(13) 0.46388(14)
O6_12 O 0.46388(14) 0.75291(13) 0.19512(14)
O7_12 O 0.24709(13) 0.69512(14) 0.03612(14)
C8_12 C 0.71220(18) 0.92175(15) 0.31413(17)
C9_12 C 0.68587(17) 0.78780(18) 0.42175(15)
C10_12 C 0.42175(15) 0.71220(18) 0.18587(17)
C11_12 C 0.28780(18) 0.68587(17) 0.07825(15)
C12_12 C 0.31413(17) 0.57825(15) 0.21220(18)
O14_8 O 0.29174(8) 0.73486(13) 0.04055(11)
O18_16 O 0.79174(8) 0.95945(11) 0.23486(13)
C13_12 C 0.68231(15) 0.90203(17) 0.3035(2)
C14_12 C 0.6965(2) 0.81769(15) 0.40203(17)
C15_12 C 0.40203(17) 0.68231(15) 0.1965(2)
C16_12 C 0.31769(15) 0.6965(2) 0.09797(17)
C17_12 C 0.3035(2) 0.59797(17) 0.18231(15)
H5_12 H 0.7176 0.8305 0.4087
H6_12 H 0.6695 0.9087 0.2824
H7_12 H 0.4087 0.6695 0.2176
H8_12 H 0.2824 0.5913 0.1695
H9_12 H 0.3305 0.7176 0.0913
O22_32 O 0.8160(2) 1.0000 0.3160(2)
O23_10 O 0.6840(2) 0.6840(2) 0.5000
H10_12 H 0.4845 0.8139 0.1638
H11_16 H 0.8139 0.9845 0.3362
H13_10 H 0.6638 0.6861 0.4845
H14_10 H 0.6861 0.6638 0.5155
C18_12 C 0.67112(15) 0.87270(11) 0.32341(16)
C19_12 C 0.67659(16) 0.82888(15) 0.37270(11)
C20_12 C 0.37270(11) 0.67112(15) 0.17659(16)
C21_12 C 0.32888(15) 0.67659(16) 0.12730(11)
C22_12 C 0.32341(16) 0.62730(11) 0.17112(15)
C23_12 C 0.68940(13) 0.86318(15) 0.35525(16)
C24_12 C 0.64475(16) 0.81060(13) 0.36318(15)
C25_12 C 0.36318(15) 0.68940(13) 0.14475(16)
C26_12 C 0.31060(13) 0.64475(16) 0.13682(15)
C27_12 C 0.35525(16) 0.63682(15) 0.18940(13)
C28_12 C 0.71924(17) 0.88357(16) 0.36652(15)
C29_12 C 0.63348(15) 0.78076(17) 0.38357(16)
C30_12 C 0.38357(16) 0.71924(17) 0.13348(15)
C31_12 C 0.28076(17) 0.63348(15) 0.11643(16)
C32_12 C 0.36652(15) 0.61643(16) 0.21924(17)
H15_12 H 0.6120 0.7684 0.3776
H16_12 H 0.7316 0.8776 0.3880
H17_12 H 0.3776 0.7316 0.1120
H18_12 H 0.3880 0.6224 0.2316
H19_12 H 0.2684 0.6120 0.1224
C33_12 C 0.73040(19) 0.91264(14) 0.34572(16)
C34_12 C 0.65428(16) 0.76960(19) 0.41264(14)
C35_12 C 0.41264(14) 0.73040(19) 0.15428(16)
C36_12 C 0.26960(19) 0.65428(16) 0.08736(14)
C37_12 C 0.34572(16) 0.58736(14) 0.23040(19)
H20_12 H 0.6469 0.7494 0.4264
H21_12 H 0.7506 0.9264 0.3531
H22_12 H 0.4264 0.7506 0.1469
H23_12 H 0.3531 0.5736 0.2506
H24_12 H 0.2494 0.6469 0.0736
C38_12 C 0.7246(2) 0.9524(2) 0.2926(2)
C39_12 C 0.7074(2) 0.7754(2) 0.4524(2)
C40_12 C 0.4524(2) 0.7246(2) 0.2074(2)
C41_12 C 0.2754(2) 0.7074(2) 0.0476(2)
C42_12 C 0.2926(2) 0.5476(2) 0.2246(2)
O18_17 O 0.79174(8) 0.04055(11) 0.76514(13)
O22_33 O 0.8160(2) -0.0000 0.6840(2)
O23_11 O 0.6840(2) 0.3160(2) 0.5000
H11_17 H 0.8139 0.0155 0.6638
H13_11 H 0.6638 0.3139 0.5155
H14_11 H 0.6861 0.3362 0.4845
O9_17 O 0.80488(14) 0.96388(14) 0.74709(13)
O22_34 O 0.8160(2) 1.0000 0.6840(2)
H12_17 H 0.8362 0.9845 0.6861
O9_18 O 0.25291(13) 0.80488(14) 0.03612(14)
O22_35 O 0.3160(2) 0.8160(2) 0.0000
H12_18 H 0.3139 0.8362 0.0155
O18_18 O 0.23486(13) 0.79174(8) 0.95945(11)
O22_36 O 0.3160(2) 0.8160(2) 1.0000
O23_12 O 0.5000 0.6840(2) 0.6840(2)
H11_18 H 0.3362 0.8139 0.9845
H13_12 H 0.4845 0.6638 0.6861
H14_12 H 0.5155 0.6861 0.6638
O18_19 O 0.23486(13) 0.04055(11) 0.79174(8)
O22_37 O 0.3160(2) 0.0000 0.8160(2)
H11_19 H 0.3362 0.0155 0.8139
O9_19 O 0.25291(13) 0.96388(14) 0.80488(14)
O22_38 O 0.3160(2) 1.0000 0.8160(2)
H12_19 H 0.3139 0.9845 0.8362
O9_20 O 0.74709(13) 0.03612(14) 0.80488(14)
O22_39 O 0.6840(2) 0.0000 0.8160(2)
H12_20 H 0.6861 0.0155 0.8362
O18_20 O 0.76514(13) 0.95945(11) 0.79174(8)
O22_40 O 0.6840(2) 1.0000 0.8160(2)
H11_20 H 0.6638 0.9845 0.8139
O9_21 O 0.03612(14) 0.19512(14) 0.25291(13)
O22_41 O -0.0000 0.1840(2) 0.3160(2)
H12_21 H 0.0155 0.1638 0.3139
O18_21 O 0.95945(11) 0.20826(8) 0.23486(13)
O22_42 O 1.0000 0.1840(2) 0.3160(2)
H11_21 H 0.9845 0.1861 0.3362
O9_22 O 0.03612(14) 0.80488(14) 0.74709(13)
O22_43 O -0.0000 0.8160(2) 0.6840(2)
H12_22 H 0.0155 0.8362 0.6861
O18_22 O 0.95945(11) 0.79174(8) 0.76514(13)
O22_44 O 1.0000 0.8160(2) 0.6840(2)
H11_22 H 0.9845 0.8139 0.6638
O18_23 O 0.20826(8) 0.76514(13) 0.04055(11)
O22_45 O 0.1840(2) 0.6840(2) -0.0000
H11_23 H 0.1861 0.6638 0.0155
O9_23 O 0.19512(14) 0.74709(13) 0.96388(14)
O22_46 O 0.1840(2) 0.6840(2) 1.0000
H12_23 H 0.1638 0.6861 0.9845
O9_24 O 0.80488(14) 0.74709(13) 0.03612(14)
O22_47 O 0.8160(2) 0.6840(2) 0.0000
H12_24 H 0.8362 0.6861 0.0155
O18_24 O 0.79174(8) 0.76514(13) 0.95945(11)
O22_48 O 0.8160(2) 0.6840(2) 1.0000
H11_24 H 0.8139 0.6638 0.9845
C1_13 C 0.18587(17) 0.78780(18) 0.92175(15)
C2_13 C 0.1965(2) 0.81769(15) 0.90203(17)
H1_13 H 0.2176 0.8305 0.9087
C3_13 C 0.17659(16) 0.82888(15) 0.87270(11)
C4_13 C 0.14475(16) 0.81060(13) 0.86318(15)
C5_13 C 0.13348(15) 0.78076(17) 0.88357(16)
H3_13 H 0.1120 0.7684 0.8776
C6_13 C 0.15428(16) 0.76960(19) 0.91264(14)
H4_13 H 0.1469 0.7494 0.9264
C7_13 C 0.2074(2) 0.7754(2) 0.9524(2)
C8_13 C 0.07825(15) 0.81413(17) 0.78780(18)
C9_13 C 0.21220(18) 0.92175(15) 0.81413(17)
C13_13 C 0.09797(17) 0.8035(2) 0.81769(15)
C14_13 C 0.18231(15) 0.90203(17) 0.8035(2)
H5_13 H 0.1695 0.9087 0.7824
H6_13 H 0.0913 0.7824 0.8305
C18_13 C 0.12730(11) 0.82341(16) 0.82888(15)
C19_13 C 0.17112(15) 0.87270(11) 0.82341(16)
C23_13 C 0.13682(15) 0.85525(16) 0.81060(13)
C24_13 C 0.18940(13) 0.86318(15) 0.85525(16)
C28_13 C 0.11643(16) 0.86652(15) 0.78076(17)
C29_13 C 0.21924(17) 0.88357(16) 0.86652(15)
H15_13 H 0.2316 0.8776 0.8880
H16_13 H 0.1224 0.8880 0.7684
C33_13 C 0.08736(14) 0.84572(16) 0.76960(19)
C34_13 C 0.23040(19) 0.91264(14) 0.84572(16)
H20_13 H 0.2506 0.9264 0.8531
H21_13 H 0.0736 0.8531 0.7494
C38_13 C 0.0476(2) 0.7926(2) 0.7754(2)
C39_13 C 0.2246(2) 0.9524(2) 0.7926(2)
C10_13 C 0.81413(17) 0.78780(18) 0.07825(15)
C11_13 C 0.92175(15) 0.81413(17) 0.21220(18)
C12_13 C 0.78780(18) 0.92175(15) 0.18587(17)
C15_13 C 0.8035(2) 0.81769(15) 0.09797(17)
C16_13 C 0.90203(17) 0.8035(2) 0.18231(15)
C17_13 C 0.81769(15) 0.90203(17) 0.1965(2)
H7_13 H 0.7824 0.8305 0.0913
H8_13 H 0.8305 0.9087 0.2176
H9_13 H 0.9087 0.7824 0.1695
C20_13 C 0.82341(16) 0.82888(15) 0.12730(11)
C21_13 C 0.87270(11) 0.82341(16) 0.17112(15)
C22_13 C 0.82888(15) 0.87270(11) 0.17659(16)
C25_13 C 0.85525(16) 0.81060(13) 0.13682(15)
C26_13 C 0.86318(15) 0.85525(16) 0.18940(13)
C27_13 C 0.81060(13) 0.86318(15) 0.14475(16)
C30_13 C 0.86652(15) 0.78076(17) 0.11643(16)
C31_13 C 0.88357(16) 0.86652(15) 0.21924(17)
C32_13 C 0.78076(17) 0.88357(16) 0.13348(15)
H17_13 H 0.8880 0.7684 0.1224
H18_13 H 0.7684 0.8776 0.1120
H19_13 H 0.8776 0.8880 0.2316
C35_13 C 0.84572(16) 0.76960(19) 0.08736(14)
C36_13 C 0.91264(14) 0.84572(16) 0.23040(19)
C37_13 C 0.76960(19) 0.91264(14) 0.15428(16)
H22_13 H 0.8531 0.7494 0.0736
H23_13 H 0.7494 0.9264 0.1469
H24_13 H 0.9264 0.8531 0.2506
C40_13 C 0.7926(2) 0.7754(2) 0.0476(2)
C41_13 C 0.9524(2) 0.7926(2) 0.2246(2)
C42_13 C 0.7754(2) 0.9524(2) 0.2074(2)
C1_14 C 0.81413(17) 0.21220(18) 0.92175(15)
C2_14 C 0.8035(2) 0.18231(15) 0.90203(17)
H1_14 H 0.7824 0.1695 0.9087
C3_14 C 0.82341(16) 0.17112(15) 0.87270(11)
C4_14 C 0.85525(16) 0.18940(13) 0.86318(15)
C5_14 C 0.86652(15) 0.21924(17) 0.88357(16)
H3_14 H 0.8880 0.2316 0.8776
C6_14 C 0.84572(16) 0.23040(19) 0.91264(14)
H4_14 H 0.8531 0.2506 0.9264
C7_14 C 0.7926(2) 0.2246(2) 0.9524(2)
C8_14 C 0.92175(15) 0.18587(17) 0.78780(18)
C9_14 C 0.78780(18) 0.07825(15) 0.81413(17)
C13_14 C 0.90203(17) 0.1965(2) 0.81769(15)
C14_14 C 0.81769(15) 0.09797(17) 0.8035(2)
H5_14 H 0.8305 0.0913 0.7824
H6_14 H 0.9087 0.2176 0.8305
C18_14 C 0.87270(11) 0.17659(16) 0.82888(15)
C19_14 C 0.82888(15) 0.12730(11) 0.82341(16)
C23_14 C 0.86318(15) 0.14475(16) 0.81060(13)
C24_14 C 0.81060(13) 0.13682(15) 0.85525(16)
C28_14 C 0.88357(16) 0.13348(15) 0.78076(17)
C29_14 C 0.78076(17) 0.11643(16) 0.86652(15)
H15_14 H 0.7684 0.1224 0.8880
H16_14 H 0.8776 0.1120 0.7684
C33_14 C 0.91264(14) 0.15428(16) 0.76960(19)
C34_14 C 0.76960(19) 0.08736(14) 0.84572(16)
H20_14 H 0.7494 0.0736 0.8531
H21_14 H 0.9264 0.1469 0.7494
C38_14 C 0.9524(2) 0.2074(2) 0.7754(2)
C39_14 C 0.7754(2) 0.0476(2) 0.7926(2)
C10_14 C 0.18587(17) 0.21220(18) 0.07825(15)
C11_14 C 0.07825(15) 0.18587(17) 0.21220(18)
C12_14 C 0.21220(18) 0.07825(15) 0.18587(17)
C15_14 C 0.1965(2) 0.18231(15) 0.09797(17)
C16_14 C 0.09797(17) 0.1965(2) 0.18231(15)
C17_14 C 0.18231(15) 0.09797(17) 0.1965(2)
H7_14 H 0.2176 0.1695 0.0913
H8_14 H 0.1695 0.0913 0.2176
H9_14 H 0.0913 0.2176 0.1695
C20_14 C 0.17659(16) 0.17112(15) 0.12730(11)
C21_14 C 0.12730(11) 0.17659(16) 0.17112(15)
C22_14 C 0.17112(15) 0.12730(11) 0.17659(16)
C25_14 C 0.14475(16) 0.18940(13) 0.13682(15)
C26_14 C 0.13682(15) 0.14475(16) 0.18940(13)
C27_14 C 0.18940(13) 0.13682(15) 0.14475(16)
C30_14 C 0.13348(15) 0.21924(17) 0.11643(16)
C31_14 C 0.11643(16) 0.13348(15) 0.21924(17)
C32_14 C 0.21924(17) 0.11643(16) 0.13348(15)
H17_14 H 0.1120 0.2316 0.1224
H18_14 H 0.2316 0.1224 0.1120
H19_14 H 0.1224 0.1120 0.2316
C35_14 C 0.15428(16) 0.23040(19) 0.08736(14)
C36_14 C 0.08736(14) 0.15428(16) 0.23040(19)
C37_14 C 0.23040(19) 0.08736(14) 0.15428(16)
H22_14 H 0.1469 0.2506 0.0736
H23_14 H 0.2506 0.0736 0.1469
H24_14 H 0.0736 0.1469 0.2506
C40_14 C 0.2074(2) 0.2246(2) 0.0476(2)
C41_14 C 0.0476(2) 0.2074(2) 0.2246(2)
C42_14 C 0.2246(2) 0.0476(2) 0.2074(2)
C1_15 C 0.18587(17) 0.07825(15) 0.78780(18)
C2_15 C 0.1965(2) 0.09797(17) 0.81769(15)
H1_15 H 0.2176 0.0913 0.8305
C3_15 C 0.17659(16) 0.12730(11) 0.82888(15)
C4_15 C 0.14475(16) 0.13682(15) 0.81060(13)
C5_15 C 0.13348(15) 0.11643(16) 0.78076(17)
H3_15 H 0.1120 0.1224 0.7684
C6_15 C 0.15428(16) 0.08736(14) 0.76960(19)
H4_15 H 0.1469 0.0736 0.7494
C7_15 C 0.2074(2) 0.0476(2) 0.7754(2)
C8_15 C 0.07825(15) 0.21220(18) 0.81413(17)
C9_15 C 0.21220(18) 0.18587(17) 0.92175(15)
C13_15 C 0.09797(17) 0.18231(15) 0.8035(2)
C14_15 C 0.18231(15) 0.1965(2) 0.90203(17)
H5_15 H 0.1695 0.2176 0.9087
H6_15 H 0.0913 0.1695 0.7824
C18_15 C 0.12730(11) 0.17112(15) 0.82341(16)
C19_15 C 0.17112(15) 0.17659(16) 0.87270(11)
C23_15 C 0.13682(15) 0.18940(13) 0.85525(16)
C24_15 C 0.18940(13) 0.14475(16) 0.86318(15)
C28_15 C 0.11643(16) 0.21924(17) 0.86652(15)
C29_15 C 0.21924(17) 0.13348(15) 0.88357(16)
H15_15 H 0.2316 0.1120 0.8776
H16_15 H 0.1224 0.2316 0.8880
C33_15 C 0.08736(14) 0.23040(19) 0.84572(16)
C34_15 C 0.23040(19) 0.15428(16) 0.91264(14)
H20_15 H 0.2506 0.1469 0.9264
H21_15 H 0.0736 0.2506 0.8531
C38_15 C 0.0476(2) 0.2246(2) 0.7926(2)
C39_15 C 0.2246(2) 0.2074(2) 0.9524(2)
C1_16 C 0.18587(17) 0.92175(15) 0.21220(18)
C2_16 C 0.1965(2) 0.90203(17) 0.18231(15)
H1_16 H 0.2176 0.9087 0.1695
C3_16 C 0.17659(16) 0.87270(11) 0.17112(15)
C4_16 C 0.14475(16) 0.86318(15) 0.18940(13)
C5_16 C 0.13348(15) 0.88357(16) 0.21924(17)
H3_16 H 0.1120 0.8776 0.2316
C6_16 C 0.15428(16) 0.91264(14) 0.23040(19)
H4_16 H 0.1469 0.9264 0.2506
C7_16 C 0.2074(2) 0.9524(2) 0.2246(2)
C8_16 C 0.07825(15) 0.78780(18) 0.18587(17)
C9_16 C 0.21220(18) 0.81413(17) 0.07825(15)
C13_16 C 0.09797(17) 0.81769(15) 0.1965(2)
C14_16 C 0.18231(15) 0.8035(2) 0.09797(17)
H5_16 H 0.1695 0.7824 0.0913
H6_16 H 0.0913 0.8305 0.2176
C18_16 C 0.12730(11) 0.82888(15) 0.17659(16)
C19_16 C 0.17112(15) 0.82341(16) 0.12730(11)
C23_16 C 0.13682(15) 0.81060(13) 0.14475(16)
C24_16 C 0.18940(13) 0.85525(16) 0.13682(15)
C28_16 C 0.11643(16) 0.78076(17) 0.13348(15)
C29_16 C 0.21924(17) 0.86652(15) 0.11643(16)
H15_16 H 0.2316 0.8880 0.1224
H16_16 H 0.1224 0.7684 0.1120
C33_16 C 0.08736(14) 0.76960(19) 0.15428(16)
C34_16 C 0.23040(19) 0.84572(16) 0.08736(14)
H20_16 H 0.2506 0.8531 0.0736
H21_16 H 0.0736 0.7494 0.1469
C38_16 C 0.0476(2) 0.7754(2) 0.2074(2)
C39_16 C 0.2246(2) 0.7926(2) 0.0476(2)
C10_15 C 0.81413(17) 0.92175(15) 0.78780(18)
C11_15 C 0.92175(15) 0.78780(18) 0.81413(17)
C12_15 C 0.78780(18) 0.81413(17) 0.92175(15)
C15_15 C 0.8035(2) 0.90203(17) 0.81769(15)
C16_15 C 0.90203(17) 0.81769(15) 0.8035(2)
C17_15 C 0.81769(15) 0.8035(2) 0.90203(17)
H7_15 H 0.7824 0.9087 0.8305
H8_15 H 0.8305 0.7824 0.9087
H9_15 H 0.9087 0.8305 0.7824
C20_15 C 0.82341(16) 0.87270(11) 0.82888(15)
C21_15 C 0.87270(11) 0.82888(15) 0.82341(16)
C22_15 C 0.82888(15) 0.82341(16) 0.87270(11)
C25_15 C 0.85525(16) 0.86318(15) 0.81060(13)
C26_15 C 0.86318(15) 0.81060(13) 0.85525(16)
C27_15 C 0.81060(13) 0.85525(16) 0.86318(15)
C30_15 C 0.86652(15) 0.88357(16) 0.78076(17)
C31_15 C 0.88357(16) 0.78076(17) 0.86652(15)
C32_15 C 0.78076(17) 0.86652(15) 0.88357(16)
H17_15 H 0.8880 0.8776 0.7684
H18_15 H 0.7684 0.8880 0.8776
H19_15 H 0.8776 0.7684 0.8880
C35_15 C 0.84572(16) 0.91264(14) 0.76960(19)
C36_15 C 0.91264(14) 0.76960(19) 0.84572(16)
C37_15 C 0.76960(19) 0.84572(16) 0.91264(14)
H22_15 H 0.8531 0.9264 0.7494
H23_15 H 0.7494 0.8531 0.9264
H24_15 H 0.9264 0.7494 0.8531
C40_15 C 0.7926(2) 0.9524(2) 0.7754(2)
C41_15 C 0.9524(2) 0.7754(2) 0.7926(2)
C42_15 C 0.7754(2) 0.7926(2) 0.9524(2)
C10_16 C 0.81413(17) 0.07825(15) 0.21220(18)
C11_16 C 0.92175(15) 0.21220(18) 0.18587(17)
C12_16 C 0.78780(18) 0.18587(17) 0.07825(15)
C15_16 C 0.8035(2) 0.09797(17) 0.18231(15)
C16_16 C 0.90203(17) 0.18231(15) 0.1965(2)
C17_16 C 0.81769(15) 0.1965(2) 0.09797(17)
H7_16 H 0.7824 0.0913 0.1695
H8_16 H 0.8305 0.2176 0.0913
H9_16 H 0.9087 0.1695 0.2176
C20_16 C 0.82341(16) 0.12730(11) 0.17112(15)
C21_16 C 0.87270(11) 0.17112(15) 0.17659(16)
C22_16 C 0.82888(15) 0.17659(16) 0.12730(11)
C25_16 C 0.85525(16) 0.13682(15) 0.18940(13)
C26_16 C 0.86318(15) 0.18940(13) 0.14475(16)
C27_16 C 0.81060(13) 0.14475(16) 0.13682(15)
C30_16 C 0.86652(15) 0.11643(16) 0.21924(17)
C31_16 C 0.88357(16) 0.21924(17) 0.13348(15)
C32_16 C 0.78076(17) 0.13348(15) 0.11643(16)
H17_16 H 0.8880 0.1224 0.2316
H18_16 H 0.7684 0.1120 0.1224
H19_16 H 0.8776 0.2316 0.1120
C35_16 C 0.84572(16) 0.08736(14) 0.23040(19)
C36_16 C 0.91264(14) 0.23040(19) 0.15428(16)
C37_16 C 0.76960(19) 0.15428(16) 0.08736(14)
H22_16 H 0.8531 0.0736 0.2506
H23_16 H 0.7494 0.1469 0.0736
H24_16 H 0.9264 0.2506 0.1469
C40_16 C 0.7926(2) 0.0476(2) 0.2246(2)
C41_16 C 0.9524(2) 0.2246(2) 0.2074(2)
C42_16 C 0.7754(2) 0.2074(2) 0.0476(2)
loop_
_geom_bond_atom_site_label_1
_geom_bond_atom_site_label_2
_geom_bond_site_symmetry_1
_geom_bond_site_symmetry_2
Cu1 O1 1_555 1_555
O1 C7 1_555 1_555
C1 C2 1_555 1_555
O2 C7 1_555 1_555
C2 H1 1_555 1_555
O3 Cu1 1_555 1_555
H2 O3 1_555 1_555
C3 C2 1_555 1_555
C4 C3 1_555 1_555
C5 C4 1_555 1_555
H3 C5 1_555 1_555
C6 C1 1_555 1_555
H4 C6 1_555 1_555
C7 C1 1_555 1_555
Cu2 Cu5 1_555 1_555
Cu3 Cu6 1_555 1_555
Cu4 Cu1 1_555 1_555
Cu5 O11 1_555 1_555
Cu6 O12 1_555 1_555
Cu7 Cu8 1_555 1_555
Cu8 O14 1_555 1_555
Cu9 Cu10 1_555 1_555
Cu10 O15 1_555 1_555
O4 Cu2 1_555 1_555
O5 Cu3 1_555 1_555
O6 Cu1 1_555 1_555
O7 Cu7 1_555 1_555
O8 Cu9 1_555 1_555
O10 Cu3 1_555 1_555
C8 C13 1_555 1_555
C9 C14 1_555 1_555
C10 C15 1_555 1_555
C11 C16 1_555 1_555
C12 C17 1_555 1_555
O11 C38 1_555 1_555
O12 C39 1_555 1_555
O13 Cu4 1_555 1_555
O14 C41 1_555 1_555
O15 C42 1_555 1_555
O16 Cu1 1_555 1_555
O17 Cu1 1_555 1_555
O18 Cu2 1_555 1_555
O20 Cu3 1_555 1_555
O21 Cu3 1_555 1_555
C13 H6 1_555 1_555
C14 H5 1_555 1_555
C15 H7 1_555 1_555
C16 H9 1_555 1_555
C17 H8 1_555 1_555
O22 Cu2 1_555 1_555
O23 Cu3 1_555 1_555
H10 O3 1_555 1_555
H11 O22 1_555 1_555
H13 O23 1_555 1_555
H14 O23 1_555 1_555
C18 C4 1_555 1_555
C19 C14 1_555 1_555
C20 C15 1_555 1_555
C21 C16 1_555 1_555
C22 C17 1_555 1_555
C23 C18 1_555 1_555
C24 C3 1_555 1_555
C25 C20 1_555 1_555
C26 C21 1_555 1_555
C27 C20 1_555 1_555
C28 C23 1_555 1_555
C29 C24 1_555 1_555
C30 C25 1_555 1_555
C31 C26 1_555 1_555
C32 C27 1_555 1_555
H15 C29 1_555 1_555
H16 C28 1_555 1_555
H17 C30 1_555 1_555
H18 C32 1_555 1_555
H19 C31 1_555 1_555
C33 C8 1_555 1_555
C34 C9 1_555 1_555
C35 C10 1_555 1_555
C36 C11 1_555 1_555
C37 C12 1_555 1_555
H20 C34 1_555 1_555
H21 C33 1_555 1_555
H22 C35 1_555 1_555
H23 C37 1_555 1_555
H24 C36 1_555 1_555
C38 O4 1_555 1_555
C39 O5 1_555 1_555
C40 O6 1_555 1_555
C41 O7 1_555 1_555
C42 O8 1_555 1_555
O2 Cu4 1_555 1_555
C5 C6 1_555 1_555
C8 C38 1_555 1_555
C9 C39 1_555 1_555
C10 C40 1_555 1_555
C11 C41 1_555 1_555
C12 C42 1_555 1_555
O13 C40 1_555 1_555
C13 C18 1_555 1_555
C19 C23 1_555 1_555
C19 C24 1_555 1_555
C21 C25 1_555 1_555
C22 C26 1_555 1_555
C22 C27 1_555 1_555
C28 C33 1_555 1_555
C29 C34 1_555 1_555
C30 C35 1_555 1_555
C31 C36 1_555 1_555
C32 C37 1_555 1_555
Cu7_2 Cu8_2 1_555 1_555
Cu2_2 Cu5_2 1_555 1_555
O9 Cu2_2 1_555 1_555
O19 Cu2_2 1_555 1_555
O22_2 Cu2_2 1_555 1_555
H12 O22_2 1_555 1_555
Cu7_3 Cu8_3 1_555 1_555
Cu1_2 O1_2 1_555 1_555
O1_2 C7_2 1_555 1_555
C1_2 C2_2 1_555 1_555
O2_2 C7_2 1_555 1_555
C2_2 H1_2 1_555 1_555
O3_2 Cu1_2 1_555 1_555
H2_2 O3_2 1_555 1_555
C3_2 C2_2 1_555 1_555
C4_2 C3_2 1_555 1_555
C5_2 C4_2 1_555 1_555
H3_2 C5_2 1_555 1_555
C6_2 C1_2 1_555 1_555
H4_2 C6_2 1_555 1_555
C7_2 C1_2 1_555 1_555
Cu2_3 Cu5_3 1_555 1_555
Cu3_2 Cu6_2 1_555 1_555
Cu4_2 Cu1_2 1_555 1_555
Cu5_3 O11_2 1_555 1_555
Cu6_2 O12_2 1_555 1_555
Cu7_4 Cu8_4 1_555 1_555
Cu8_4 O14_2 1_555 1_555
Cu9_2 Cu10_2 1_555 1_555
Cu10_2 O15_2 1_555 1_555
O4_2 Cu2_3 1_555 1_555
O5_2 Cu3_2 1_555 1_555
O6_2 Cu1_2 1_555 1_555
O7_2 Cu7_4 1_555 1_555
O8_2 Cu9_2 1_555 1_555
O10_2 Cu3_2 1_555 1_555
C8_2 C13_2 1_555 1_555
C9_2 C14_2 1_555 1_555
C10_2 C15_2 1_555 1_555
C11_2 C16_2 1_555 1_555
C12_2 C17_2 1_555 1_555
O11_2 C38_2 1_555 1_555
O12_2 C39_2 1_555 1_555
O13_2 Cu4_2 1_555 1_555
O14_2 C41_2 1_555 1_555
O15_2 C42_2 1_555 1_555
O16_2 Cu1_2 1_555 1_555
O17_2 Cu1_2 1_555 1_555
O18_2 Cu2_3 1_555 1_555
O20_2 Cu3_2 1_555 1_555
O21_2 Cu3_2 1_555 1_555
C13_2 H6_2 1_555 1_555
C14_2 H5_2 1_555 1_555
C15_2 H7_2 1_555 1_555
C16_2 H9_2 1_555 1_555
C17_2 H8_2 1_555 1_555
O22_3 Cu2_3 1_555 1_555
O23_2 Cu3_2 1_555 1_555
H10_2 O3_2 1_555 1_555
H11_2 O22_3 1_555 1_555
H13_2 O23_2 1_555 1_555
H14_2 O23_2 1_555 1_555
C18_2 C4_2 1_555 1_555
C19_2 C14_2 1_555 1_555
C20_2 C15_2 1_555 1_555
C21_2 C16_2 1_555 1_555
C22_2 C17_2 1_555 1_555
C23_2 C18_2 1_555 1_555
C24_2 C3_2 1_555 1_555
C25_2 C20_2 1_555 1_555
C26_2 C21_2 1_555 1_555
C27_2 C20_2 1_555 1_555
C28_2 C23_2 1_555 1_555
C29_2 C24_2 1_555 1_555
C30_2 C25_2 1_555 1_555
C31_2 C26_2 1_555 1_555
C32_2 C27_2 1_555 1_555
H15_2 C29_2 1_555 1_555
H16_2 C28_2 1_555 1_555
H17_2 C30_2 1_555 1_555
H18_2 C32_2 1_555 1_555
H19_2 C31_2 1_555 1_555
C33_2 C8_2 1_555 1_555
C34_2 C9_2 1_555 1_555
C35_2 C10_2 1_555 1_555
C36_2 C11_2 1_555 1_555
C37_2 C12_2 1_555 1_555
H20_2 C34_2 1_555 1_555
H21_2 C33_2 1_555 1_555
H22_2 C35_2 1_555 1_555
H23_2 C37_2 1_555 1_555
H24_2 C36_2 1_555 1_555
C38_2 O4_2 1_555 1_555
C39_2 O5_2 1_555 1_555
C40_2 O6_2 1_555 1_555
C41_2 O7_2 1_555 1_555
C42_2 O8_2 1_555 1_555
O2_2 Cu4_2 1_555 1_555
C5_2 C6_2 1_555 1_555
C8_2 C38_2 1_555 1_555
C9_2 C39_2 1_555 1_555
C10_2 C40_2 1_555 1_555
C11_2 C41_2 1_555 1_555
C12_2 C42_2 1_555 1_555
O13_2 C40_2 1_555 1_555
C13_2 C18_2 1_555 1_555
C19_2 C23_2 1_555 1_555
C19_2 C24_2 1_555 1_555
C21_2 C25_2 1_555 1_555
C22_2 C26_2 1_555 1_555
C22_2 C27_2 1_555 1_555
C28_2 C33_2 1_555 1_555
C29_2 C34_2 1_555 1_555
C30_2 C35_2 1_555 1_555
C31_2 C36_2 1_555 1_555
C32_2 C37_2 1_555 1_555
Cu2_4 Cu5_4 1_555 1_555
O9_2 Cu2_4 1_555 1_555
O19_2 Cu2_4 1_555 1_555
O22_4 Cu2_4 1_555 1_555
H12_2 O22_4 1_555 1_555
Cu2_5 Cu5_5 1_555 1_555
O9_3 Cu2_5 1_555 1_555
O19_3 Cu2_5 1_555 1_555
O22_5 Cu2_5 1_555 1_555
H12_3 O22_5 1_555 1_555
Cu7_5 Cu8_5 1_555 1_555
Cu1_3 O1_3 1_555 1_555
O1_3 C7_3 1_555 1_555
C1_3 C2_3 1_555 1_555
O2_3 C7_3 1_555 1_555
C2_3 H1_3 1_555 1_555
O3_3 Cu1_3 1_555 1_555
H2_3 O3_3 1_555 1_555
C3_3 C2_3 1_555 1_555
C4_3 C3_3 1_555 1_555
C5_3 C4_3 1_555 1_555
H3_3 C5_3 1_555 1_555
C6_3 C1_3 1_555 1_555
H4_3 C6_3 1_555 1_555
C7_3 C1_3 1_555 1_555
Cu2_6 Cu5_6 1_555 1_555
Cu3_3 Cu6_3 1_555 1_555
Cu4_3 Cu1_3 1_555 1_555
Cu5_6 O11_3 1_555 1_555
Cu6_3 O12_3 1_555 1_555
Cu7_6 Cu8_6 1_555 1_555
Cu8_6 O14_3 1_555 1_555
Cu9_3 Cu10_3 1_555 1_555
Cu10_3 O15_3 1_555 1_555
O4_3 Cu2_6 1_555 1_555
O5_3 Cu3_3 1_555 1_555
O6_3 Cu1_3 1_555 1_555
O7_3 Cu7_6 1_555 1_555
O8_3 Cu9_3 1_555 1_555
O10_3 Cu3_3 1_555 1_555
C8_3 C13_3 1_555 1_555
C9_3 C14_3 1_555 1_555
C10_3 C15_3 1_555 1_555
C11_3 C16_3 1_555 1_555
C12_3 C17_3 1_555 1_555
O11_3 C38_3 1_555 1_555
O12_3 C39_3 1_555 1_555
O13_3 Cu4_3 1_555 1_555
O14_3 C41_3 1_555 1_555
O15_3 C42_3 1_555 1_555
O16_3 Cu1_3 1_555 1_555
O17_3 Cu1_3 1_555 1_555
O18_3 Cu2_6 1_555 1_555
O20_3 Cu3_3 1_555 1_555
O21_3 Cu3_3 1_555 1_555
C13_3 H6_3 1_555 1_555
C14_3 H5_3 1_555 1_555
C15_3 H7_3 1_555 1_555
C16_3 H9_3 1_555 1_555
C17_3 H8_3 1_555 1_555
O22_6 Cu2_6 1_555 1_555
O23_3 Cu3_3 1_555 1_555
H10_3 O3_3 1_555 1_555
H11_3 O22_6 1_555 1_555
H13_3 O23_3 1_555 1_555
H14_3 O23_3 1_555 1_555
C18_3 C4_3 1_555 1_555
C19_3 C14_3 1_555 1_555
C20_3 C15_3 1_555 1_555
C21_3 C16_3 1_555 1_555
C22_3 C17_3 1_555 1_555
C23_3 C18_3 1_555 1_555
C24_3 C3_3 1_555 1_555
C25_3 C20_3 1_555 1_555
C26_3 C21_3 1_555 1_555
C27_3 C20_3 1_555 1_555
C28_3 C23_3 1_555 1_555
C29_3 C24_3 1_555 1_555
C30_3 C25_3 1_555 1_555
C31_3 C26_3 1_555 1_555
C32_3 C27_3 1_555 1_555
H15_3 C29_3 1_555 1_555
H16_3 C28_3 1_555 1_555
H17_3 C30_3 1_555 1_555
H18_3 C32_3 1_555 1_555
H19_3 C31_3 1_555 1_555
C33_3 C8_3 1_555 1_555
C34_3 C9_3 1_555 1_555
C35_3 C10_3 1_555 1_555
C36_3 C11_3 1_555 1_555
C37_3 C12_3 1_555 1_555
H20_3 C34_3 1_555 1_555
H21_3 C33_3 1_555 1_555
H22_3 C35_3 1_555 1_555
H23_3 C37_3 1_555 1_555
H24_3 C36_3 1_555 1_555
C38_3 O4_3 1_555 1_555
C39_3 O5_3 1_555 1_555
C40_3 O6_3 1_555 1_555
C41_3 O7_3 1_555 1_555
C42_3 O8_3 1_555 1_555
O2_3 Cu4_3 1_555 1_555
C5_3 C6_3 1_555 1_555
C8_3 C38_3 1_555 1_555
C9_3 C39_3 1_555 1_555
C10_3 C40_3 1_555 1_555
C11_3 C41_3 1_555 1_555
C12_3 C42_3 1_555 1_555
O13_3 C40_3 1_555 1_555
C13_3 C18_3 1_555 1_555
C19_3 C23_3 1_555 1_555
C19_3 C24_3 1_555 1_555
C21_3 C25_3 1_555 1_555
C22_3 C26_3 1_555 1_555
C22_3 C27_3 1_555 1_555
C28_3 C33_3 1_555 1_555
C29_3 C34_3 1_555 1_555
C30_3 C35_3 1_555 1_555
C31_3 C36_3 1_555 1_555
C32_3 C37_3 1_555 1_555
Cu2_7 Cu5_7 1_555 1_555
O9_4 Cu2_7 1_555 1_555
O19_4 Cu2_7 1_555 1_555
O22_7 Cu2_7 1_555 1_555
H12_4 O22_7 1_555 1_555
Cu1_4 O1_4 1_555 1_555
O1_4 C7_4 1_555 1_555
C1_4 C2_4 1_555 1_555
O2_4 C7_4 1_555 1_555
C2_4 H1_4 1_555 1_555
O3_4 Cu1_4 1_555 1_555
H2_4 O3_4 1_555 1_555
C3_4 C2_4 1_555 1_555
C4_4 C3_4 1_555 1_555
C5_4 C4_4 1_555 1_555
H3_4 C5_4 1_555 1_555
C6_4 C1_4 1_555 1_555
H4_4 C6_4 1_555 1_555
C7_4 C1_4 1_555 1_555
Cu2_8 Cu5_8 1_555 1_555
Cu3_4 Cu6_4 1_555 1_555
Cu4_4 Cu1_4 1_555 1_555
Cu5_8 O11_4 1_555 1_555
Cu6_4 O12_4 1_555 1_555
Cu7_7 Cu8_7 1_555 1_555
Cu8_7 O14_4 1_555 1_555
Cu9_4 Cu10_4 1_555 1_555
Cu10_4 O15_4 1_555 1_555
O4_4 Cu2_8 1_555 1_555
O5_4 Cu3_4 1_555 1_555
O6_4 Cu1_4 1_555 1_555
O7_4 Cu7_7 1_555 1_555
O8_4 Cu9_4 1_555 1_555
O10_4 Cu3_4 1_555 1_555
C8_4 C13_4 1_555 1_555
C9_4 C14_4 1_555 1_555
C10_4 C15_4 1_555 1_555
C11_4 C16_4 1_555 1_555
C12_4 C17_4 1_555 1_555
O11_4 C38_4 1_555 1_555
O12_4 C39_4 1_555 1_555
O13_4 Cu4_4 1_555 1_555
O14_4 C41_4 1_555 1_555
O15_4 C42_4 1_555 1_555
O16_4 Cu1_4 1_555 1_555
O17_4 Cu1_4 1_555 1_555
O18_4 Cu2_8 1_555 1_555
O20_4 Cu3_4 1_555 1_555
O21_4 Cu3_4 1_555 1_555
C13_4 H6_4 1_555 1_555
C14_4 H5_4 1_555 1_555
C15_4 H7_4 1_555 1_555
C16_4 H9_4 1_555 1_555
C17_4 H8_4 1_555 1_555
O22_8 Cu2_8 1_555 1_555
O23_4 Cu3_4 1_555 1_555
H10_4 O3_4 1_555 1_555
H11_4 O22_8 1_555 1_555
H13_4 O23_4 1_555 1_555
H14_4 O23_4 1_555 1_555
C18_4 C4_4 1_555 1_555
C19_4 C14_4 1_555 1_555
C20_4 C15_4 1_555 1_555
C21_4 C16_4 1_555 1_555
C22_4 C17_4 1_555 1_555
C23_4 C18_4 1_555 1_555
C24_4 C3_4 1_555 1_555
C25_4 C20_4 1_555 1_555
C26_4 C21_4 1_555 1_555
C27_4 C20_4 1_555 1_555
C28_4 C23_4 1_555 1_555
C29_4 C24_4 1_555 1_555
C30_4 C25_4 1_555 1_555
C31_4 C26_4 1_555 1_555
C32_4 C27_4 1_555 1_555
H15_4 C29_4 1_555 1_555
H16_4 C28_4 1_555 1_555
H17_4 C30_4 1_555 1_555
H18_4 C32_4 1_555 1_555
H19_4 C31_4 1_555 1_555
C33_4 C8_4 1_555 1_555
C34_4 C9_4 1_555 1_555
C35_4 C10_4 1_555 1_555
C36_4 C11_4 1_555 1_555
C37_4 C12_4 1_555 1_555
H20_4 C34_4 1_555 1_555
H21_4 C33_4 1_555 1_555
H22_4 C35_4 1_555 1_555
H23_4 C37_4 1_555 1_555
H24_4 C36_4 1_555 1_555
C38_4 O4_4 1_555 1_555
C39_4 O5_4 1_555 1_555
C40_4 O6_4 1_555 1_555
C41_4 O7_4 1_555 1_555
C42_4 O8_4 1_555 1_555
O2_4 Cu4_4 1_555 1_555
C5_4 C6_4 1_555 1_555
C8_4 C38_4 1_555 1_555
C9_4 C39_4 1_555 1_555
C10_4 C40_4 1_555 1_555
C11_4 C41_4 1_555 1_555
C12_4 C42_4 1_555 1_555
O13_4 C40_4 1_555 1_555
C13_4 C18_4 1_555 1_555
C19_4 C23_4 1_555 1_555
C19_4 C24_4 1_555 1_555
C21_4 C25_4 1_555 1_555
C22_4 C26_4 1_555 1_555
C22_4 C27_4 1_555 1_555
C28_4 C33_4 1_555 1_555
C29_4 C34_4 1_555 1_555
C30_4 C35_4 1_555 1_555
C31_4 C36_4 1_555 1_555
C32_4 C37_4 1_555 1_555
Cu7_8 Cu8_8 1_555 1_555
Cu6 O1_5 1_555 1_555
O1_5 C7_5 1_555 1_555
C1_5 C2_5 1_555 1_555
O21 C7_5 1_555 1_555
C2_5 H1_5 1_555 1_555
O3_5 Cu6 1_555 1_555
H2_5 O3_5 1_555 1_555
C3_5 C2_5 1_555 1_555
C4_5 C3_5 1_555 1_555
C5_5 C4_5 1_555 1_555
H3_5 C5_5 1_555 1_555
C6_5 C1_5 1_555 1_555
H4_5 C6_5 1_555 1_555
C7_5 C1_5 1_555 1_555
Cu7_9 Cu8_9 1_555 1_555
Cu8_9 O14_5 1_555 1_555
Cu6_2 O15_5 1_555 1_555
O4_5 Cu5_5 1_555 1_555
O5_5 Cu4_4 1_555 1_555
O6_5 Cu6 1_555 1_555
O7_5 Cu7_9 1_555 1_555
O10_5 Cu4_4 1_555 1_555
C8_5 C13_5 1_555 1_555
C9_5 C14_5 1_555 1_555
C10_5 C15_5 1_555 1_555
C11_5 C16_5 1_555 1_555
C12_5 C17_5 1_555 1_555
O19_3 C38_5 1_555 1_555
O16_4 C39_5 1_555 1_555
O14_5 C41_5 1_555 1_555
O15_5 C42_5 1_555 1_555
O16_5 Cu6 1_555 1_555
O18_5 Cu5_5 1_555 1_555
C13_5 H6_5 1_555 1_555
C14_5 H5_5 1_555 1_555
C15_5 H7_5 1_555 1_555
C16_5 H9_5 1_555 1_555
C17_5 H8_5 1_555 1_555
O22_9 Cu5_5 1_555 1_555
O23_5 Cu4_4 1_555 1_555
H10_5 O3_5 1_555 1_555
H11_5 O22_9 1_555 1_555
H13_5 O23_5 1_555 1_555
H14_5 O23_5 1_555 1_555
C18_5 C4_5 1_555 1_555
C19_5 C14_5 1_555 1_555
C20_5 C15_5 1_555 1_555
C21_5 C16_5 1_555 1_555
C22_5 C17_5 1_555 1_555
C23_5 C18_5 1_555 1_555
C24_5 C3_5 1_555 1_555
C25_5 C20_5 1_555 1_555
C26_5 C21_5 1_555 1_555
C27_5 C20_5 1_555 1_555
C28_5 C23_5 1_555 1_555
C29_5 C24_5 1_555 1_555
C30_5 C25_5 1_555 1_555
C31_5 C26_5 1_555 1_555
C32_5 C27_5 1_555 1_555
H15_5 C29_5 1_555 1_555
H16_5 C28_5 1_555 1_555
H17_5 C30_5 1_555 1_555
H18_5 C32_5 1_555 1_555
H19_5 C31_5 1_555 1_555
C33_5 C8_5 1_555 1_555
C34_5 C9_5 1_555 1_555
C35_5 C10_5 1_555 1_555
C36_5 C11_5 1_555 1_555
C37_5 C12_5 1_555 1_555
H20_5 C34_5 1_555 1_555
H21_5 C33_5 1_555 1_555
H22_5 C35_5 1_555 1_555
H23_5 C37_5 1_555 1_555
H24_5 C36_5 1_555 1_555
C38_5 O4_5 1_555 1_555
C39_5 O5_5 1_555 1_555
C40_5 O6_5 1_555 1_555
C41_5 O7_5 1_555 1_555
C42_5 O10_2 1_555 1_555
C5_5 C6_5 1_555 1_555
C8_5 C38_5 1_555 1_555
C9_5 C39_5 1_555 1_555
C10_5 C40_5 1_555 1_555
C11_5 C41_5 1_555 1_555
C12_5 C42_5 1_555 1_555
O20 C40_5 1_555 1_555
C13_5 C18_5 1_555 1_555
C19_5 C23_5 1_555 1_555
C19_5 C24_5 1_555 1_555
C21_5 C25_5 1_555 1_555
C22_5 C26_5 1_555 1_555
C22_5 C27_5 1_555 1_555
C28_5 C33_5 1_555 1_555
C29_5 C34_5 1_555 1_555
C30_5 C35_5 1_555 1_555
C31_5 C36_5 1_555 1_555
C32_5 C37_5 1_555 1_555
Cu7_10 Cu8_10 1_555 1_555
O9_5 Cu5_6 1_555 1_555
O22_10 Cu5_6 1_555 1_555
H12_5 O22_10 1_555 1_555
O10_6 Cu9_4 1_555 1_555
O18_6 Cu7_7 1_555 1_555
O20_5 Cu9_4 1_555 1_555
O21_5 Cu9_4 1_555 1_555
O22_11 Cu7_7 1_555 1_555
O23_6 Cu9_4 1_555 1_555
H11_6 O22_11 1_555 1_555
H13_6 O23_6 1_555 1_555
H14_6 O23_6 1_555 1_555
O9_6 Cu7_8 1_555 1_555
O19_5 Cu7_8 1_555 1_555
O22_12 Cu7_8 1_555 1_555
H12_6 O22_12 1_555 1_555
Cu7_11 Cu8_11 1_555 1_555
Cu10_4 O1_6 1_555 1_555
O1_6 C7_6 1_555 1_555
C1_6 C2_6 1_555 1_555
O21_5 C7_6 1_555 1_555
C2_6 H1_6 1_555 1_555
O3_6 Cu10_4 1_555 1_555
H2_6 O3_6 1_555 1_555
C3_6 C2_6 1_555 1_555
C4_6 C3_6 1_555 1_555
C5_6 C4_6 1_555 1_555
H3_6 C5_6 1_555 1_555
C6_6 C1_6 1_555 1_555
H4_6 C6_6 1_555 1_555
C7_6 C1_6 1_555 1_555
Cu7_3 O11_5 1_555 1_555
Cu7_12 Cu8_12 1_555 1_555
Cu8_12 O14_6 1_555 1_555
Cu10_3 O15_6 1_555 1_555
O4_6 Cu8_3 1_555 1_555
O5_6 Cu4 1_555 1_555
O6_6 Cu10_4 1_555 1_555
O7_6 Cu7_12 1_555 1_555
O8_5 Cu9_3 1_555 1_555
O10_7 Cu4 1_555 1_555
C8_6 C13_6 1_555 1_555
C9_6 C14_6 1_555 1_555
C10_6 C15_6 1_555 1_555
C11_6 C16_6 1_555 1_555
C12_6 C17_6 1_555 1_555
O11_5 C38_6 1_555 1_555
O17 C39_6 1_555 1_555
O14_6 C41_6 1_555 1_555
O15_6 C42_6 1_555 1_555
O16_6 Cu10_4 1_555 1_555
O18_7 Cu8_3 1_555 1_555
C13_6 H6_6 1_555 1_555
C14_6 H5_6 1_555 1_555
C15_6 H7_6 1_555 1_555
C16_6 H9_6 1_555 1_555
C17_6 H8_6 1_555 1_555
O22_13 Cu8_3 1_555 1_555
O23_7 Cu4 1_555 1_555
H10_6 O3_6 1_555 1_555
H11_7 O22_13 1_555 1_555
H13_7 O23_7 1_555 1_555
H14_7 O23_7 1_555 1_555
C18_6 C4_6 1_555 1_555
C19_6 C14_6 1_555 1_555
C20_6 C15_6 1_555 1_555
C21_6 C16_6 1_555 1_555
C22_6 C17_6 1_555 1_555
C23_6 C18_6 1_555 1_555
C24_6 C3_6 1_555 1_555
C25_6 C20_6 1_555 1_555
C26_6 C21_6 1_555 1_555
C27_6 C20_6 1_555 1_555
C28_6 C23_6 1_555 1_555
C29_6 C24_6 1_555 1_555
C30_6 C25_6 1_555 1_555
C31_6 C26_6 1_555 1_555
C32_6 C27_6 1_555 1_555
H15_6 C29_6 1_555 1_555
H16_6 C28_6 1_555 1_555
H17_6 C30_6 1_555 1_555
H18_6 C32_6 1_555 1_555
H19_6 C31_6 1_555 1_555
C33_6 C8_6 1_555 1_555
C34_6 C9_6 1_555 1_555
C35_6 C10_6 1_555 1_555
C36_6 C11_6 1_555 1_555
C37_6 C12_6 1_555 1_555
H20_6 C34_6 1_555 1_555
H21_6 C33_6 1_555 1_555
H22_6 C35_6 1_555 1_555
H23_6 C37_6 1_555 1_555
H24_6 C36_6 1_555 1_555
C38_6 O4_6 1_555 1_555
C39_6 O5_6 1_555 1_555
C40_6 O6_6 1_555 1_555
C41_6 O7_6 1_555 1_555
C42_6 O8_5 1_555 1_555
C5_6 C6_6 1_555 1_555
C8_6 C38_6 1_555 1_555
C9_6 C39_6 1_555 1_555
C10_6 C40_6 1_555 1_555
C11_6 C41_6 1_555 1_555
C12_6 C42_6 1_555 1_555
O20_5 C40_6 1_555 1_555
C13_6 C18_6 1_555 1_555
C19_6 C23_6 1_555 1_555
C19_6 C24_6 1_555 1_555
C21_6 C25_6 1_555 1_555
C22_6 C26_6 1_555 1_555
C22_6 C27_6 1_555 1_555
C28_6 C33_6 1_555 1_555
C29_6 C34_6 1_555 1_555
C30_6 C35_6 1_555 1_555
C31_6 C36_6 1_555 1_555
C32_6 C37_6 1_555 1_555
O9_7 Cu8_4 1_555 1_555
O22_14 Cu8_4 1_555 1_555
H12_7 O22_14 1_555 1_555
O9_8 Cu8_9 1_555 1_555
O22_15 Cu8_9 1_555 1_555
H12_8 O22_15 1_555 1_555
Cu10 O1_7 1_555 1_555
O1_7 C7_7 1_555 1_555
C1_7 C2_7 1_555 1_555
O2_5 C7_7 1_555 1_555
C2_7 H1_7 1_555 1_555
O3_7 Cu10 1_555 1_555
H2_7 O3_7 1_555 1_555
C3_7 C2_7 1_555 1_555
C4_7 C3_7 1_555 1_555
C5_7 C4_7 1_555 1_555
H3_7 C5_7 1_555 1_555
C6_7 C1_7 1_555 1_555
H4_7 C6_7 1_555 1_555
C7_7 C1_7 1_555 1_555
Cu7_10 O11_6 1_555 1_555
Cu7_5 O14_7 1_555 1_555
O4_7 Cu8_10 1_555 1_555
O6_7 Cu10 1_555 1_555
O7_7 Cu8_5 1_555 1_555
O8_6 Cu4_2 1_555 1_555
C8_7 C13_7 1_555 1_555
C9_7 C14_7 1_555 1_555
C10_7 C15_7 1_555 1_555
C11_7 C16_7 1_555 1_555
C12_7 C17_7 1_555 1_555
O11_6 C38_7 1_555 1_555
O16_6 C39_7 1_555 1_555
O13_5 Cu9 1_555 1_555
O14_7 C41_7 1_555 1_555
O17_2 C42_7 1_555 1_555
O17_5 Cu10 1_555 1_555
O18_8 Cu8_10 1_555 1_555
C13_7 H6_7 1_555 1_555
C14_7 H5_7 1_555 1_555
C15_7 H7_7 1_555 1_555
C16_7 H9_7 1_555 1_555
C17_7 H8_7 1_555 1_555
O22_16 Cu8_10 1_555 1_555
H10_7 O3_7 1_555 1_555
H11_8 O22_16 1_555 1_555
C18_7 C4_7 1_555 1_555
C19_7 C14_7 1_555 1_555
C20_7 C15_7 1_555 1_555
C21_7 C16_7 1_555 1_555
C22_7 C17_7 1_555 1_555
C23_7 C18_7 1_555 1_555
C24_7 C3_7 1_555 1_555
C25_7 C20_7 1_555 1_555
C26_7 C21_7 1_555 1_555
C27_7 C20_7 1_555 1_555
C28_7 C23_7 1_555 1_555
C29_7 C24_7 1_555 1_555
C30_7 C25_7 1_555 1_555
C31_7 C26_7 1_555 1_555
C32_7 C27_7 1_555 1_555
H15_7 C29_7 1_555 1_555
H16_7 C28_7 1_555 1_555
H17_7 C30_7 1_555 1_555
H18_7 C32_7 1_555 1_555
H19_7 C31_7 1_555 1_555
C33_7 C8_7 1_555 1_555
C34_7 C9_7 1_555 1_555
C35_7 C10_7 1_555 1_555
C36_7 C11_7 1_555 1_555
C37_7 C12_7 1_555 1_555
H20_7 C34_7 1_555 1_555
H21_7 C33_7 1_555 1_555
H22_7 C35_7 1_555 1_555
H23_7 C37_7 1_555 1_555
H24_7 C36_7 1_555 1_555
C38_7 O4_7 1_555 1_555
C39_7 O10_6 1_555 1_555
C40_7 O6_7 1_555 1_555
C41_7 O7_7 1_555 1_555
C42_7 O8_6 1_555 1_555
O2_5 Cu9 1_555 1_555
C5_7 C6_7 1_555 1_555
C8_7 C38_7 1_555 1_555
C9_7 C39_7 1_555 1_555
C10_7 C40_7 1_555 1_555
C11_7 C41_7 1_555 1_555
C12_7 C42_7 1_555 1_555
O13_5 C40_7 1_555 1_555
C13_7 C18_7 1_555 1_555
C19_7 C23_7 1_555 1_555
C19_7 C24_7 1_555 1_555
C21_7 C25_7 1_555 1_555
C22_7 C26_7 1_555 1_555
C22_7 C27_7 1_555 1_555
C28_7 C33_7 1_555 1_555
C29_7 C34_7 1_555 1_555
C30_7 C35_7 1_555 1_555
C31_7 C36_7 1_555 1_555
C32_7 C37_7 1_555 1_555
O9_9 Cu7_3 1_555 1_555
O22_17 Cu7_3 1_555 1_555
H12_9 O22_17 1_555 1_555
O10_8 Cu9_2 1_555 1_555
O18_9 Cu7_4 1_555 1_555
O20_6 Cu9_2 1_555 1_555
O21_6 Cu9_2 1_555 1_555
O22_18 Cu7_4 1_555 1_555
O23_8 Cu9_2 1_555 1_555
H11_9 O22_18 1_555 1_555
H13_8 O23_8 1_555 1_555
H14_8 O23_8 1_555 1_555
Cu6_2 O1_8 1_555 1_555
O1_8 C7_8 1_555 1_555
C1_8 C2_8 1_555 1_555
O20_2 C7_8 1_555 1_555
C2_8 H1_8 1_555 1_555
O3_8 Cu6_2 1_555 1_555
H2_8 O3_8 1_555 1_555
C3_8 C2_8 1_555 1_555
C4_8 C3_8 1_555 1_555
C5_8 C4_8 1_555 1_555
H3_8 C5_8 1_555 1_555
C6_8 C1_8 1_555 1_555
H4_8 C6_8 1_555 1_555
C7_8 C1_8 1_555 1_555
Cu2_9 Cu5_9 1_555 1_555
Cu5_9 O11_7 1_555 1_555
Cu6_3 O12_5 1_555 1_555
O4_8 Cu2_9 1_555 1_555
O6_8 Cu6_2 1_555 1_555
O7_8 Cu5_7 1_555 1_555
C8_8 C13_8 1_555 1_555
C9_8 C14_8 1_555 1_555
C10_8 C15_8 1_555 1_555
C11_8 C16_8 1_555 1_555
C12_8 C17_8 1_555 1_555
O11_7 C38_8 1_555 1_555
O12_5 C39_8 1_555 1_555
O19_4 C41_8 1_555 1_555
O16 C42_8 1_555 1_555
O18_10 Cu2_9 1_555 1_555
C13_8 H6_8 1_555 1_555
C14_8 H5_8 1_555 1_555
C15_8 H7_8 1_555 1_555
C16_8 H9_8 1_555 1_555
C17_8 H8_8 1_555 1_555
O22_19 Cu2_9 1_555 1_555
H10_8 O3_8 1_555 1_555
H11_10 O22_19 1_555 1_555
C18_8 C4_8 1_555 1_555
C19_8 C14_8 1_555 1_555
C20_8 C15_8 1_555 1_555
C21_8 C16_8 1_555 1_555
C22_8 C17_8 1_555 1_555
C23_8 C18_8 1_555 1_555
C24_8 C3_8 1_555 1_555
C25_8 C20_8 1_555 1_555
C26_8 C21_8 1_555 1_555
C27_8 C20_8 1_555 1_555
C28_8 C23_8 1_555 1_555
C29_8 C24_8 1_555 1_555
C30_8 C25_8 1_555 1_555
C31_8 C26_8 1_555 1_555
C32_8 C27_8 1_555 1_555
H15_8 C29_8 1_555 1_555
H16_8 C28_8 1_555 1_555
H17_8 C30_8 1_555 1_555
H18_8 C32_8 1_555 1_555
H19_8 C31_8 1_555 1_555
C33_8 C8_8 1_555 1_555
C34_8 C9_8 1_555 1_555
C35_8 C10_8 1_555 1_555
C36_8 C11_8 1_555 1_555
C37_8 C12_8 1_555 1_555
H20_8 C34_8 1_555 1_555
H21_8 C33_8 1_555 1_555
H22_8 C35_8 1_555 1_555
H23_8 C37_8 1_555 1_555
H24_8 C36_8 1_555 1_555
C38_8 O4_8 1_555 1_555
C39_8 O10_3 1_555 1_555
C40_8 O6_8 1_555 1_555
C41_8 O7_8 1_555 1_555
C42_8 O10_7 1_555 1_555
C5_8 C6_8 1_555 1_555
C8_8 C38_8 1_555 1_555
C9_8 C39_8 1_555 1_555
C10_8 C40_8 1_555 1_555
C11_8 C41_8 1_555 1_555
C12_8 C42_8 1_555 1_555
O21_2 C40_8 1_555 1_555
C13_8 C18_8 1_555 1_555
C19_8 C23_8 1_555 1_555
C19_8 C24_8 1_555 1_555
C21_8 C25_8 1_555 1_555
C22_8 C26_8 1_555 1_555
C22_8 C27_8 1_555 1_555
C28_8 C33_8 1_555 1_555
C29_8 C34_8 1_555 1_555
C30_8 C35_8 1_555 1_555
C31_8 C36_8 1_555 1_555
C32_8 C37_8 1_555 1_555
Cu2_10 Cu5_10 1_555 1_555
O9_10 Cu2_10 1_555 1_555
O19_6 Cu2_10 1_555 1_555
O22_20 Cu2_10 1_555 1_555
H12_10 O22_20 1_555 1_555
O18_11 Cu5_7 1_555 1_555
O22_21 Cu5_7 1_555 1_555
H11_11 O22_21 1_555 1_555
O9_11 Cu5_8 1_555 1_555
O22_22 Cu5_8 1_555 1_555
H12_11 O22_22 1_555 1_555
O18_12 Cu7_9 1_555 1_555
O22_23 Cu7_9 1_555 1_555
H11_12 O22_23 1_555 1_555
O9_12 Cu7_10 1_555 1_555
O22_24 Cu7_10 1_555 1_555
H12_12 O22_24 1_555 1_555
Cu6_3 O1_9 1_555 1_555
O1_9 C7_9 1_555 1_555
C1_9 C2_9 1_555 1_555
O20_3 C7_9 1_555 1_555
C2_9 H1_9 1_555 1_555
O3_9 Cu6_3 1_555 1_555
H2_9 O3_9 1_555 1_555
C3_9 C2_9 1_555 1_555
C4_9 C3_9 1_555 1_555
C5_9 C4_9 1_555 1_555
H3_9 C5_9 1_555 1_555
C6_9 C1_9 1_555 1_555
H4_9 C6_9 1_555 1_555
C7_9 C1_9 1_555 1_555
Cu2_11 Cu5_11 1_555 1_555
Cu5_11 O11_8 1_555 1_555
Cu6_4 O12_6 1_555 1_555
O4_9 Cu2_11 1_555 1_555
O6_9 Cu6_3 1_555 1_555
O7_9 Cu5_2 1_555 1_555
O8_7 Cu4_2 1_555 1_555
C8_9 C13_9 1_555 1_555
C9_9 C14_9 1_555 1_555
C10_9 C15_9 1_555 1_555
C11_9 C16_9 1_555 1_555
C12_9 C17_9 1_555 1_555
O11_8 C38_9 1_555 1_555
O12_6 C39_9 1_555 1_555
O19 C41_9 1_555 1_555
O16_2 C42_9 1_555 1_555
O18_13 Cu2_11 1_555 1_555
C13_9 H6_9 1_555 1_555
C14_9 H5_9 1_555 1_555
C15_9 H7_9 1_555 1_555
C16_9 H9_9 1_555 1_555
C17_9 H8_9 1_555 1_555
O22_25 Cu2_11 1_555 1_555
H10_9 O3_9 1_555 1_555
H11_13 O22_25 1_555 1_555
C18_9 C4_9 1_555 1_555
C19_9 C14_9 1_555 1_555
C20_9 C15_9 1_555 1_555
C21_9 C16_9 1_555 1_555
C22_9 C17_9 1_555 1_555
C23_9 C18_9 1_555 1_555
C24_9 C3_9 1_555 1_555
C25_9 C20_9 1_555 1_555
C26_9 C21_9 1_555 1_555
C27_9 C20_9 1_555 1_555
C28_9 C23_9 1_555 1_555
C29_9 C24_9 1_555 1_555
C30_9 C25_9 1_555 1_555
C31_9 C26_9 1_555 1_555
C32_9 C27_9 1_555 1_555
H15_9 C29_9 1_555 1_555
H16_9 C28_9 1_555 1_555
H17_9 C30_9 1_555 1_555
H18_9 C32_9 1_555 1_555
H19_9 C31_9 1_555 1_555
C33_9 C8_9 1_555 1_555
C34_9 C9_9 1_555 1_555
C35_9 C10_9 1_555 1_555
C36_9 C11_9 1_555 1_555
C37_9 C12_9 1_555 1_555
H20_9 C34_9 1_555 1_555
H21_9 C33_9 1_555 1_555
H22_9 C35_9 1_555 1_555
H23_9 C37_9 1_555 1_555
H24_9 C36_9 1_555 1_555
C38_9 O4_9 1_555 1_555
C39_9 O10_4 1_555 1_555
C40_9 O6_9 1_555 1_555
C41_9 O7_9 1_555 1_555
C42_9 O8_7 1_555 1_555
C5_9 C6_9 1_555 1_555
C8_9 C38_9 1_555 1_555
C9_9 C39_9 1_555 1_555
C10_9 C40_9 1_555 1_555
C11_9 C41_9 1_555 1_555
C12_9 C42_9 1_555 1_555
O21_3 C40_9 1_555 1_555
C13_9 C18_9 1_555 1_555
C19_9 C23_9 1_555 1_555
C19_9 C24_9 1_555 1_555
C21_9 C25_9 1_555 1_555
C22_9 C26_9 1_555 1_555
C22_9 C27_9 1_555 1_555
C28_9 C33_9 1_555 1_555
C29_9 C34_9 1_555 1_555
C30_9 C35_9 1_555 1_555
C31_9 C36_9 1_555 1_555
C32_9 C37_9 1_555 1_555
Cu2_12 Cu5_12 1_555 1_555
O9_13 Cu2_12 1_555 1_555
O19_7 Cu2_12 1_555 1_555
O22_26 Cu2_12 1_555 1_555
H12_13 O22_26 1_555 1_555
O9_14 Cu8 1_555 1_555
O22_27 Cu8 1_555 1_555
H12_14 O22_27 1_555 1_555
Cu10_3 O1_10 1_555 1_555
O1_10 C7_10 1_555 1_555
C1_10 C2_10 1_555 1_555
O2_6 C7_10 1_555 1_555
C2_10 H1_10 1_555 1_555
O3_10 Cu10_3 1_555 1_555
H2_10 O3_10 1_555 1_555
C3_10 C2_10 1_555 1_555
C4_10 C3_10 1_555 1_555
C5_10 C4_10 1_555 1_555
H3_10 C5_10 1_555 1_555
C6_10 C1_10 1_555 1_555
H4_10 C6_10 1_555 1_555
C7_10 C1_10 1_555 1_555
Cu7_2 O11_9 1_555 1_555
Cu10_2 O15_7 1_555 1_555
O4_10 Cu8_2 1_555 1_555
O6_10 Cu10_3 1_555 1_555
O7_10 Cu5_12 1_555 1_555
C8_10 C13_10 1_555 1_555
C9_10 C14_10 1_555 1_555
C10_10 C15_10 1_555 1_555
C11_10 C16_10 1_555 1_555
C12_10 C17_10 1_555 1_555
O11_9 C38_10 1_555 1_555
O17_4 C39_10 1_555 1_555
O13_6 Cu9_3 1_555 1_555
O19_7 C41_10 1_555 1_555
O15_7 C42_10 1_555 1_555
O18_14 Cu8_2 1_555 1_555
C13_10 H6_10 1_555 1_555
C14_10 H5_10 1_555 1_555
C15_10 H7_10 1_555 1_555
C16_10 H9_10 1_555 1_555
C17_10 H8_10 1_555 1_555
O22_28 Cu8_2 1_555 1_555
H10_10 O3_10 1_555 1_555
H11_14 O22_28 1_555 1_555
C18_10 C4_10 1_555 1_555
C19_10 C14_10 1_555 1_555
C20_10 C15_10 1_555 1_555
C21_10 C16_10 1_555 1_555
C22_10 C17_10 1_555 1_555
C23_10 C18_10 1_555 1_555
C24_10 C3_10 1_555 1_555
C25_10 C20_10 1_555 1_555
C26_10 C21_10 1_555 1_555
C27_10 C20_10 1_555 1_555
C28_10 C23_10 1_555 1_555
C29_10 C24_10 1_555 1_555
C30_10 C25_10 1_555 1_555
C31_10 C26_10 1_555 1_555
C32_10 C27_10 1_555 1_555
H15_10 C29_10 1_555 1_555
H16_10 C28_10 1_555 1_555
H17_10 C30_10 1_555 1_555
H18_10 C32_10 1_555 1_555
H19_10 C31_10 1_555 1_555
C33_10 C8_10 1_555 1_555
C34_10 C9_10 1_555 1_555
C35_10 C10_10 1_555 1_555
C36_10 C11_10 1_555 1_555
C37_10 C12_10 1_555 1_555
H20_10 C34_10 1_555 1_555
H21_10 C33_10 1_555 1_555
H22_10 C35_10 1_555 1_555
H23_10 C37_10 1_555 1_555
H24_10 C36_10 1_555 1_555
C38_10 O4_10 1_555 1_555
C39_10 O10_5 1_555 1_555
C40_10 O6_10 1_555 1_555
C41_10 O7_10 1_555 1_555
C42_10 O10_8 1_555 1_555
O2_6 Cu9_3 1_555 1_555
C5_10 C6_10 1_555 1_555
C8_10 C38_10 1_555 1_555
C9_10 C39_10 1_555 1_555
C10_10 C40_10 1_555 1_555
C11_10 C41_10 1_555 1_555
C12_10 C42_10 1_555 1_555
O13_6 C40_10 1_555 1_555
C13_10 C18_10 1_555 1_555
C19_10 C23_10 1_555 1_555
C19_10 C24_10 1_555 1_555
C21_10 C25_10 1_555 1_555
C22_10 C26_10 1_555 1_555
C22_10 C27_10 1_555 1_555
C28_10 C33_10 1_555 1_555
C29_10 C34_10 1_555 1_555
C30_10 C35_10 1_555 1_555
C31_10 C36_10 1_555 1_555
C32_10 C37_10 1_555 1_555
O9_15 Cu5_9 1_555 1_555
O22_29 Cu5_9 1_555 1_555
H12_15 O22_29 1_555 1_555
Cu10_2 O1_11 1_555 1_555
O1_11 C7_11 1_555 1_555
C1_11 C2_11 1_555 1_555
O20_6 C7_11 1_555 1_555
C2_11 H1_11 1_555 1_555
O3_11 Cu10_2 1_555 1_555
H2_11 O3_11 1_555 1_555
C3_11 C2_11 1_555 1_555
C4_11 C3_11 1_555 1_555
C5_11 C4_11 1_555 1_555
H3_11 C5_11 1_555 1_555
C6_11 C1_11 1_555 1_555
H4_11 C6_11 1_555 1_555
C7_11 C1_11 1_555 1_555
O4_11 Cu5_10 1_555 1_555
O5_7 Cu9 1_555 1_555
O6_11 Cu10_2 1_555 1_555
O7_11 Cu8_8 1_555 1_555
O8_8 Cu4_3 1_555 1_555
C8_11 C13_11 1_555 1_555
C9_11 C14_11 1_555 1_555
C10_11 C15_11 1_555 1_555
C11_11 C16_11 1_555 1_555
C12_11 C17_11 1_555 1_555
O19_6 C38_11 1_555 1_555
O17_5 C39_11 1_555 1_555
O19_5 C41_11 1_555 1_555
O17_3 C42_11 1_555 1_555
O18_15 Cu5_10 1_555 1_555
C13_11 H6_11 1_555 1_555
C14_11 H5_11 1_555 1_555
C15_11 H7_11 1_555 1_555
C16_11 H9_11 1_555 1_555
C17_11 H8_11 1_555 1_555
O22_30 Cu5_10 1_555 1_555
O23_9 Cu9 1_555 1_555
H10_11 O3_11 1_555 1_555
H11_15 O22_30 1_555 1_555
H13_9 O23_9 1_555 1_555
H14_9 O23_9 1_555 1_555
C18_11 C4_11 1_555 1_555
C19_11 C14_11 1_555 1_555
C20_11 C15_11 1_555 1_555
C21_11 C16_11 1_555 1_555
C22_11 C17_11 1_555 1_555
C23_11 C18_11 1_555 1_555
C24_11 C3_11 1_555 1_555
C25_11 C20_11 1_555 1_555
C26_11 C21_11 1_555 1_555
C27_11 C20_11 1_555 1_555
C28_11 C23_11 1_555 1_555
C29_11 C24_11 1_555 1_555
C30_11 C25_11 1_555 1_555
C31_11 C26_11 1_555 1_555
C32_11 C27_11 1_555 1_555
H15_11 C29_11 1_555 1_555
H16_11 C28_11 1_555 1_555
H17_11 C30_11 1_555 1_555
H18_11 C32_11 1_555 1_555
H19_11 C31_11 1_555 1_555
C33_11 C8_11 1_555 1_555
C34_11 C9_11 1_555 1_555
C35_11 C10_11 1_555 1_555
C36_11 C11_11 1_555 1_555
C37_11 C12_11 1_555 1_555
H20_11 C34_11 1_555 1_555
H21_11 C33_11 1_555 1_555
H22_11 C35_11 1_555 1_555
H23_11 C37_11 1_555 1_555
H24_11 C36_11 1_555 1_555
C38_11 O4_11 1_555 1_555
C39_11 O5_7 1_555 1_555
C40_11 O6_11 1_555 1_555
C41_11 O7_11 1_555 1_555
C42_11 O8_8 1_555 1_555
C5_11 C6_11 1_555 1_555
C8_11 C38_11 1_555 1_555
C9_11 C39_11 1_555 1_555
C10_11 C40_11 1_555 1_555
C11_11 C41_11 1_555 1_555
C12_11 C42_11 1_555 1_555
O21_6 C40_11 1_555 1_555
C13_11 C18_11 1_555 1_555
C19_11 C23_11 1_555 1_555
C19_11 C24_11 1_555 1_555
C21_11 C25_11 1_555 1_555
C22_11 C26_11 1_555 1_555
C22_11 C27_11 1_555 1_555
C28_11 C33_11 1_555 1_555
C29_11 C34_11 1_555 1_555
C30_11 C35_11 1_555 1_555
C31_11 C36_11 1_555 1_555
C32_11 C37_11 1_555 1_555
O9_16 Cu5_3 1_555 1_555
O22_31 Cu5_3 1_555 1_555
H12_16 O22_31 1_555 1_555
Cu6_4 O1_12 1_555 1_555
O1_12 C7_12 1_555 1_555
C1_12 C2_12 1_555 1_555
O21_4 C7_12 1_555 1_555
C2_12 H1_12 1_555 1_555
O3_12 Cu6_4 1_555 1_555
H2_12 O3_12 1_555 1_555
C3_12 C2_12 1_555 1_555
C4_12 C3_12 1_555 1_555
C5_12 C4_12 1_555 1_555
H3_12 C5_12 1_555 1_555
C6_12 C1_12 1_555 1_555
H4_12 C6_12 1_555 1_555
C7_12 C1_12 1_555 1_555
Cu7_11 O14_8 1_555 1_555
O4_12 Cu5_4 1_555 1_555
O5_8 Cu4_3 1_555 1_555
O6_12 Cu6_4 1_555 1_555
O7_12 Cu8_11 1_555 1_555
C8_12 C13_12 1_555 1_555
C9_12 C14_12 1_555 1_555
C10_12 C15_12 1_555 1_555
C11_12 C16_12 1_555 1_555
C12_12 C17_12 1_555 1_555
O19_2 C38_12 1_555 1_555
O16_3 C39_12 1_555 1_555
O14_8 C41_12 1_555 1_555
O16_5 C42_12 1_555 1_555
O18_16 Cu5_4 1_555 1_555
C13_12 H6_12 1_555 1_555
C14_12 H5_12 1_555 1_555
C15_12 H7_12 1_555 1_555
C16_12 H9_12 1_555 1_555
C17_12 H8_12 1_555 1_555
O22_32 Cu5_4 1_555 1_555
O23_10 Cu4_3 1_555 1_555
H10_12 O3_12 1_555 1_555
H11_16 O22_32 1_555 1_555
H13_10 O23_10 1_555 1_555
H14_10 O23_10 1_555 1_555
C18_12 C4_12 1_555 1_555
C19_12 C14_12 1_555 1_555
C20_12 C15_12 1_555 1_555
C21_12 C16_12 1_555 1_555
C22_12 C17_12 1_555 1_555
C23_12 C18_12 1_555 1_555
C24_12 C3_12 1_555 1_555
C25_12 C20_12 1_555 1_555
C26_12 C21_12 1_555 1_555
C27_12 C20_12 1_555 1_555
C28_12 C23_12 1_555 1_555
C29_12 C24_12 1_555 1_555
C30_12 C25_12 1_555 1_555
C31_12 C26_12 1_555 1_555
C32_12 C27_12 1_555 1_555
H15_12 C29_12 1_555 1_555
H16_12 C28_12 1_555 1_555
H17_12 C30_12 1_555 1_555
H18_12 C32_12 1_555 1_555
H19_12 C31_12 1_555 1_555
C33_12 C8_12 1_555 1_555
C34_12 C9_12 1_555 1_555
C35_12 C10_12 1_555 1_555
C36_12 C11_12 1_555 1_555
C37_12 C12_12 1_555 1_555
H20_12 C34_12 1_555 1_555
H21_12 C33_12 1_555 1_555
H22_12 C35_12 1_555 1_555
H23_12 C37_12 1_555 1_555
H24_12 C36_12 1_555 1_555
C38_12 O4_12 1_555 1_555
C39_12 O5_8 1_555 1_555
C40_12 O6_12 1_555 1_555
C41_12 O7_12 1_555 1_555
C42_12 O10 1_555 1_555
C5_12 C6_12 1_555 1_555
C8_12 C38_12 1_555 1_555
C9_12 C39_12 1_555 1_555
C10_12 C40_12 1_555 1_555
C11_12 C41_12 1_555 1_555
C12_12 C42_12 1_555 1_555
O20_4 C40_12 1_555 1_555
C13_12 C18_12 1_555 1_555
C19_12 C23_12 1_555 1_555
C19_12 C24_12 1_555 1_555
C21_12 C25_12 1_555 1_555
C22_12 C26_12 1_555 1_555
C22_12 C27_12 1_555 1_555
C28_12 C33_12 1_555 1_555
C29_12 C34_12 1_555 1_555
C30_12 C35_12 1_555 1_555
C31_12 C36_12 1_555 1_555
C32_12 C37_12 1_555 1_555
O18_17 Cu8_5 1_555 1_555
O22_33 Cu8_5 1_555 1_555
O23_11 Cu4_2 1_555 1_555
H11_17 O22_33 1_555 1_555
H13_11 O23_11 1_555 1_555
H14_11 O23_11 1_555 1_555
O9_17 Cu8_6 1_555 1_555
O22_34 Cu8_6 1_555 1_555
H12_17 O22_34 1_555 1_555
O9_18 Cu7_11 1_555 1_555
O22_35 Cu7_11 1_555 1_555
H12_18 O22_35 1_555 1_555
O18_18 Cu7_12 1_555 1_555
O22_36 Cu7_12 1_555 1_555
O23_12 Cu9_3 1_555 1_555
H11_18 O22_36 1_555 1_555
H13_12 O23_12 1_555 1_555
H14_12 O23_12 1_555 1_555
O18_19 Cu7 1_555 1_555
O22_37 Cu7 1_555 1_555
H11_19 O22_37 1_555 1_555
O9_19 Cu7_2 1_555 1_555
O22_38 Cu7_2 1_555 1_555
H12_19 O22_38 1_555 1_555
O9_20 Cu7_5 1_555 1_555
O22_39 Cu7_5 1_555 1_555
H12_20 O22_39 1_555 1_555
O18_20 Cu7_6 1_555 1_555
O22_40 Cu7_6 1_555 1_555
H11_20 O22_40 1_555 1_555
O9_21 Cu5 1_555 1_555
O22_41 Cu5 1_555 1_555
H12_21 O22_41 1_555 1_555
O18_21 Cu5_2 1_555 1_555
O22_42 Cu5_2 1_555 1_555
H11_21 O22_42 1_555 1_555
O9_22 Cu8_7 1_555 1_555
O22_43 Cu8_7 1_555 1_555
H12_22 O22_43 1_555 1_555
O18_22 Cu8_8 1_555 1_555
O22_44 Cu8_8 1_555 1_555
H11_22 O22_44 1_555 1_555
O18_23 Cu8_11 1_555 1_555
O22_45 Cu8_11 1_555 1_555
H11_23 O22_45 1_555 1_555
O9_23 Cu8_12 1_555 1_555
O22_46 Cu8_12 1_555 1_555
H12_23 O22_46 1_555 1_555
O9_24 Cu5_11 1_555 1_555
O22_47 Cu5_11 1_555 1_555
H12_24 O22_47 1_555 1_555
O18_24 Cu5_12 1_555 1_555
O22_48 Cu5_12 1_555 1_555
H11_24 O22_48 1_555 1_555
O9_23 C7_13 1_555 1_555
C1_13 C2_13 1_555 1_555
O18_18 C7_13 1_555 1_555
C2_13 H1_13 1_555 1_555
C3_13 C2_13 1_555 1_555
C4_13 C3_13 1_555 1_555
C5_13 C4_13 1_555 1_555
H3_13 C5_13 1_555 1_555
C6_13 C1_13 1_555 1_555
H4_13 C6_13 1_555 1_555
C7_13 C1_13 1_555 1_555
C8_13 C13_13 1_555 1_555
C9_13 C14_13 1_555 1_555
O18_6 C38_13 1_555 1_555
O18_14 C39_13 1_555 1_555
C13_13 H6_13 1_555 1_555
C14_13 H5_13 1_555 1_555
C18_13 C4_13 1_555 1_555
C19_13 C14_13 1_555 1_555
C23_13 C18_13 1_555 1_555
C24_13 C3_13 1_555 1_555
C28_13 C23_13 1_555 1_555
C29_13 C24_13 1_555 1_555
H15_13 C29_13 1_555 1_555
H16_13 C28_13 1_555 1_555
C33_13 C8_13 1_555 1_555
C34_13 C9_13 1_555 1_555
H20_13 C34_13 1_555 1_555
H21_13 C33_13 1_555 1_555
C38_13 O9_22 1_555 1_555
C39_13 O9_19 1_555 1_555
C5_13 C6_13 1_555 1_555
C8_13 C38_13 1_555 1_555
C9_13 C39_13 1_555 1_555
C13_13 C18_13 1_555 1_555
C19_13 C23_13 1_555 1_555
C19_13 C24_13 1_555 1_555
C28_13 C33_13 1_555 1_555
C29_13 C34_13 1_555 1_555
C10_13 C15_13 1_555 1_555
C11_13 C16_13 1_555 1_555
C12_13 C17_13 1_555 1_555
O18_3 C41_13 1_555 1_555
O18_16 C42_13 1_555 1_555
C15_13 H7_13 1_555 1_555
C16_13 H9_13 1_555 1_555
C17_13 H8_13 1_555 1_555
C20_13 C15_13 1_555 1_555
C21_13 C16_13 1_555 1_555
C22_13 C17_13 1_555 1_555
C25_13 C20_13 1_555 1_555
C26_13 C21_13 1_555 1_555
C27_13 C20_13 1_555 1_555
C30_13 C25_13 1_555 1_555
C31_13 C26_13 1_555 1_555
C32_13 C27_13 1_555 1_555
H17_13 C30_13 1_555 1_555
H18_13 C32_13 1_555 1_555
H19_13 C31_13 1_555 1_555
C35_13 C10_13 1_555 1_555
C36_13 C11_13 1_555 1_555
C37_13 C12_13 1_555 1_555
H22_13 C35_13 1_555 1_555
H23_13 C37_13 1_555 1_555
H24_13 C36_13 1_555 1_555
C40_13 O9_24 1_555 1_555
C41_13 O9_5 1_555 1_555
C42_13 O9_2 1_555 1_555
C10_13 C40_13 1_555 1_555
C11_13 C41_13 1_555 1_555
C12_13 C42_13 1_555 1_555
O18_13 C40_13 1_555 1_555
C21_13 C25_13 1_555 1_555
C22_13 C26_13 1_555 1_555
C22_13 C27_13 1_555 1_555
C30_13 C35_13 1_555 1_555
C31_13 C36_13 1_555 1_555
C32_13 C37_13 1_555 1_555
O9_10 C7_14 1_555 1_555
C1_14 C2_14 1_555 1_555
O18_15 C7_14 1_555 1_555
C2_14 H1_14 1_555 1_555
C3_14 C2_14 1_555 1_555
C4_14 C3_14 1_555 1_555
C5_14 C4_14 1_555 1_555
H3_14 C5_14 1_555 1_555
C6_14 C1_14 1_555 1_555
H4_14 C6_14 1_555 1_555
C7_14 C1_14 1_555 1_555
C8_14 C13_14 1_555 1_555
C9_14 C14_14 1_555 1_555
O18_9 C38_14 1_555 1_555
O18_17 C39_14 1_555 1_555
C13_14 H6_14 1_555 1_555
C14_14 H5_14 1_555 1_555
C18_14 C4_14 1_555 1_555
C19_14 C14_14 1_555 1_555
C23_14 C18_14 1_555 1_555
C24_14 C3_14 1_555 1_555
C28_14 C23_14 1_555 1_555
C29_14 C24_14 1_555 1_555
H15_14 C29_14 1_555 1_555
H16_14 C28_14 1_555 1_555
C33_14 C8_14 1_555 1_555
C34_14 C9_14 1_555 1_555
H20_14 C34_14 1_555 1_555
H21_14 C33_14 1_555 1_555
C38_14 O9_7 1_555 1_555
C39_14 O9_20 1_555 1_555
C5_14 C6_14 1_555 1_555
C8_14 C38_14 1_555 1_555
C9_14 C39_14 1_555 1_555
C13_14 C18_14 1_555 1_555
C19_14 C23_14 1_555 1_555
C19_14 C24_14 1_555 1_555
C28_14 C33_14 1_555 1_555
C29_14 C34_14 1_555 1_555
C10_14 C15_14 1_555 1_555
C11_14 C16_14 1_555 1_555
C12_14 C17_14 1_555 1_555
O18 C41_14 1_555 1_555
O18_11 C42_14 1_555 1_555
C15_14 H7_14 1_555 1_555
C16_14 H9_14 1_555 1_555
C17_14 H8_14 1_555 1_555
C20_14 C15_14 1_555 1_555
C21_14 C16_14 1_555 1_555
C22_14 C17_14 1_555 1_555
C25_14 C20_14 1_555 1_555
C26_14 C21_14 1_555 1_555
C27_14 C20_14 1_555 1_555
C30_14 C25_14 1_555 1_555
C31_14 C26_14 1_555 1_555
C32_14 C27_14 1_555 1_555
H17_14 C30_14 1_555 1_555
H18_14 C32_14 1_555 1_555
H19_14 C31_14 1_555 1_555
C35_14 C10_14 1_555 1_555
C36_14 C11_14 1_555 1_555
C37_14 C12_14 1_555 1_555
H22_14 C35_14 1_555 1_555
H23_14 C37_14 1_555 1_555
H24_14 C36_14 1_555 1_555
C40_14 O9_8 1_555 1_555
C41_14 O9_21 1_555 1_555
C42_14 O9_4 1_555 1_555
C10_14 C40_14 1_555 1_555
C11_14 C41_14 1_555 1_555
C12_14 C42_14 1_555 1_555
O18_12 C40_14 1_555 1_555
C21_14 C25_14 1_555 1_555
C22_14 C26_14 1_555 1_555
C22_14 C27_14 1_555 1_555
C30_14 C35_14 1_555 1_555
C31_14 C36_14 1_555 1_555
C32_14 C37_14 1_555 1_555
O9_14 C7_15 1_555 1_555
C1_15 C2_15 1_555 1_555
O18_19 C7_15 1_555 1_555
C2_15 H1_15 1_555 1_555
C3_15 C2_15 1_555 1_555
C4_15 C3_15 1_555 1_555
C5_15 C4_15 1_555 1_555
H3_15 C5_15 1_555 1_555
C6_15 C1_15 1_555 1_555
H4_15 C6_15 1_555 1_555
C7_15 C1_15 1_555 1_555
C8_15 C13_15 1_555 1_555
C9_15 C14_15 1_555 1_555
O18_7 C38_15 1_555 1_555
O18_8 C39_15 1_555 1_555
C13_15 H6_15 1_555 1_555
C14_15 H5_15 1_555 1_555
C18_15 C4_15 1_555 1_555
C19_15 C14_15 1_555 1_555
C23_15 C18_15 1_555 1_555
C24_15 C3_15 1_555 1_555
C28_15 C23_15 1_555 1_555
C29_15 C24_15 1_555 1_555
H15_15 C29_15 1_555 1_555
H16_15 C28_15 1_555 1_555
C33_15 C8_15 1_555 1_555
C34_15 C9_15 1_555 1_555
H20_15 C34_15 1_555 1_555
H21_15 C33_15 1_555 1_555
C38_15 O9_9 1_555 1_555
C39_15 O9_12 1_555 1_555
C5_15 C6_15 1_555 1_555
C8_15 C38_15 1_555 1_555
C9_15 C39_15 1_555 1_555
C13_15 C18_15 1_555 1_555
C19_15 C23_15 1_555 1_555
C19_15 C24_15 1_555 1_555
C28_15 C33_15 1_555 1_555
C29_15 C34_15 1_555 1_555
O9_11 C7_16 1_555 1_555
C1_16 C2_16 1_555 1_555
O18_4 C7_16 1_555 1_555
C2_16 H1_16 1_555 1_555
C3_16 C2_16 1_555 1_555
C4_16 C3_16 1_555 1_555
C5_16 C4_16 1_555 1_555
H3_16 C5_16 1_555 1_555
C6_16 C1_16 1_555 1_555
H4_16 C6_16 1_555 1_555
C7_16 C1_16 1_555 1_555
C8_16 C13_16 1_555 1_555
C9_16 C14_16 1_555 1_555
O18_5 C38_16 1_555 1_555
O18_23 C39_16 1_555 1_555
C13_16 H6_16 1_555 1_555
C14_16 H5_16 1_555 1_555
C18_16 C4_16 1_555 1_555
C19_16 C14_16 1_555 1_555
C23_16 C18_16 1_555 1_555
C24_16 C3_16 1_555 1_555
C28_16 C23_16 1_555 1_555
C29_16 C24_16 1_555 1_555
H15_16 C29_16 1_555 1_555
H16_16 C28_16 1_555 1_555
C33_16 C8_16 1_555 1_555
C34_16 C9_16 1_555 1_555
H20_16 C34_16 1_555 1_555
H21_16 C33_16 1_555 1_555
C38_16 O9_3 1_555 1_555
C39_16 O9_18 1_555 1_555
C5_16 C6_16 1_555 1_555
C8_16 C38_16 1_555 1_555
C9_16 C39_16 1_555 1_555
C13_16 C18_16 1_555 1_555
C19_16 C23_16 1_555 1_555
C19_16 C24_16 1_555 1_555
C28_16 C33_16 1_555 1_555
C29_16 C34_16 1_555 1_555
C10_15 C15_15 1_555 1_555
C11_15 C16_15 1_555 1_555
C12_15 C17_15 1_555 1_555
O18_22 C41_15 1_555 1_555
O18_24 C42_15 1_555 1_555
C15_15 H7_15 1_555 1_555
C16_15 H9_15 1_555 1_555
C17_15 H8_15 1_555 1_555
C20_15 C15_15 1_555 1_555
C21_15 C16_15 1_555 1_555
C22_15 C17_15 1_555 1_555
C25_15 C20_15 1_555 1_555
C26_15 C21_15 1_555 1_555
C27_15 C20_15 1_555 1_555
C30_15 C25_15 1_555 1_555
C31_15 C26_15 1_555 1_555
C32_15 C27_15 1_555 1_555
H17_15 C30_15 1_555 1_555
H18_15 C32_15 1_555 1_555
H19_15 C31_15 1_555 1_555
C35_15 C10_15 1_555 1_555
C36_15 C11_15 1_555 1_555
C37_15 C12_15 1_555 1_555
H22_15 C35_15 1_555 1_555
H23_15 C37_15 1_555 1_555
H24_15 C36_15 1_555 1_555
C40_15 O9_17 1_555 1_555
C41_15 O9_6 1_555 1_555
C42_15 O9_13 1_555 1_555
C10_15 C40_15 1_555 1_555
C11_15 C41_15 1_555 1_555
C12_15 C42_15 1_555 1_555
O18_20 C40_15 1_555 1_555
C21_15 C25_15 1_555 1_555
C22_15 C26_15 1_555 1_555
C22_15 C27_15 1_555 1_555
C30_15 C35_15 1_555 1_555
C31_15 C36_15 1_555 1_555
C32_15 C37_15 1_555 1_555
C10_16 C15_16 1_555 1_555
C11_16 C16_16 1_555 1_555
C12_16 C17_16 1_555 1_555
O18_21 C41_16 1_555 1_555
O18_10 C42_16 1_555 1_555
C15_16 H7_16 1_555 1_555
C16_16 H9_16 1_555 1_555
C17_16 H8_16 1_555 1_555
C20_16 C15_16 1_555 1_555
C21_16 C16_16 1_555 1_555
C22_16 C17_16 1_555 1_555
C25_16 C20_16 1_555 1_555
C26_16 C21_16 1_555 1_555
C27_16 C20_16 1_555 1_555
C30_16 C25_16 1_555 1_555
C31_16 C26_16 1_555 1_555
C32_16 C27_16 1_555 1_555
H17_16 C30_16 1_555 1_555
H18_16 C32_16 1_555 1_555
H19_16 C31_16 1_555 1_555
C35_16 C10_16 1_555 1_555
C36_16 C11_16 1_555 1_555
C37_16 C12_16 1_555 1_555
H22_16 C35_16 1_555 1_555
H23_16 C37_16 1_555 1_555
H24_16 C36_16 1_555 1_555
C40_16 O9_16 1_555 1_555
C41_16 O9 1_555 1_555
C42_16 O9_15 1_555 1_555
C10_16 C40_16 1_555 1_555
C11_16 C41_16 1_555 1_555
C12_16 C42_16 1_555 1_555
O18_2 C40_16 1_555 1_555
C21_16 C25_16 1_555 1_555
C22_16 C26_16 1_555 1_555
C22_16 C27_16 1_555 1_555
C30_16 C35_16 1_555 1_555
C31_16 C36_16 1_555 1_555
C32_16 C37_16 1_555 1_555

#END
