
###############################################################################
#
# This file contains modified crystal structure data generated from the
# MOF subset of the Cambridge Structural Database (CSD) v543 
# hosted by the Cambridge Crystallographic Data Centre (CCDC).
#
# This work is licensed under the Creative Commons
# Attribution-NonCommercial-ShareAlike 4.0 International License.
# To view a copy of this license, visit
# http://creativecommons.org/licenses/by-nc-sa/4.0/
# or send a letter to
# Creative Commons, PO Box 1866, Mountain View, CA 94042, USA.
#
# CIF created using the CSD Python API on 29 September 2022
# The structure has been converted into the P1 space group
# The structure has a 3D framework
# The original CSD entry LUKREO is in the orthorhombic crystal system
# The original CSD entry LUKREO is in a Sohncke space group
# The framework has been calculated to contain at least 10.0% void space
# The void calculation uses a probe of radius 1.32A, grid spacing 0.4
#
###############################################################################

data_LUKREO
_chemical_formula_moiety         '(C100 H102 Mn4 O34 P8)n'
_symmetry_cell_setting           triclinic
_symmetry_space_group_name_H-M   'P 1'
_symmetry_Int_Tables_number      1
_space_group_name_Hall           'P 1'
loop_
_symmetry_equiv_pos_site_id
_symmetry_equiv_pos_as_xyz
1 x,y,z
_cell_length_a                   7.9137(7)
_cell_length_b                   12.7304(11)
_cell_length_c                   27.357(2)
_cell_angle_alpha                90
_cell_angle_beta                 90
_cell_angle_gamma                90
_cell_volume                     2756.07
loop_
_atom_site_label
_atom_site_type_symbol
_atom_site_fract_x
_atom_site_fract_y
_atom_site_fract_z
O2 O 0.0386(6) 0.3659(4) 0.25124(17)
C5 C 0.0421(10) 0.4639(6) 0.1747(2)
C19 C 0.2014(10) 0.3163(7) 0.2463(3)
H3 H 0.0350 0.0963 0.1215
C24 C 0.1848(13) 0.2073(7) 0.2246(4)
H4 H 0.1197 0.1626 0.2469
H5 H 0.2974 0.1771 0.2198
H6 H 0.1264 0.2117 0.1930
H11 H 0.226(10) 0.300(6) 0.288(3)
H15 H 0.292(8) 0.364(5) 0.224(2)
H18 H 0.177(11) 0.490(6) 0.187(3)
P1 P 0.4064(2) 0.55152(14) 0.03237(7)
C1 C 0.4501(10) 0.4116(5) 0.1111(3)
O4 O 0.3206(6) 0.4538(4) 0.00706(18)
C2 C 0.5208(9) 0.2512(6) 0.3568(2)
O5 O 0.7816(6) 0.1590(4) 0.17299(17)
C3 C 0.7962(8) 0.3610(5) 0.2000(2)
C4 C 0.6360(10) 0.0979(6) 0.2461(3)
C6 C 0.5788(9) 0.2267(5) 0.3098(2)
C7 C 0.5377(9) 0.3697(6) 0.1487(3)
C8 C 0.6714(9) 0.4098(5) 0.3009(3)
C9 C 0.7863(8) 0.4703(5) 0.1262(2)
C10 C 0.9599(9) 0.3964(5) 0.2081(2)
C11 C 0.6909(9) 0.5139(6) 0.0875(2)
C12 C 0.5686(9) 0.1257(6) 0.2910(3)
C13 C 0.7186(9) 0.2810(5) 0.2331(3)
C14 C 0.7117(9) 0.1788(6) 0.2176(3)
C15 C 0.6571(9) 0.3068(5) 0.2810(2)
C16 C 0.5245(9) 0.4888(5) 0.0800(2)
C17 C 0.6171(9) 0.4307(6) 0.3476(3)
C18 C 0.9560(10) 0.4977(6) 0.1346(3)
C20 C 0.8195(12) 0.0508(6) 0.1594(3)
C21 C 0.9305(10) 0.0587(6) 0.1135(3)
H1 H 0.8694 0.0969 0.0880
C22 C 0.7064(8) 0.3992(5) 0.1592(2)
C23 C 0.5401(8) 0.3497(5) 0.3765(2)
P2 P 0.4827(2) 0.37191(14) 0.43897(7)
O6 O 0.6236(5) 0.3443(3) 0.47297(16)
O7 O 0.3227(6) 0.3132(3) 0.45058(16)
O8 O 0.2738(5) 0.6227(4) 0.05344(16)
O9 O 0.4474(7) 0.4932(4) 0.44408(18)
H10 H 0.491(7) 0.314(4) 0.1686(19)
H12 H 0.992(8) 0.538(5) 0.117(2)
H13 H 0.531(8) 0.079(5) 0.306(2)
H14 H 0.726(7) 0.463(4) 0.2824(19)
H16 H 0.339(9) 0.390(5) 0.106(2)
H17 H 0.636(9) 0.500(5) 0.360(2)
H19 H 0.470(12) 0.193(7) 0.375(3)
H20 H 0.878(9) 0.027(5) 0.189(3)
H21 H 0.715(10) 0.029(6) 0.146(3)
H22 H 0.744(9) 0.565(5) 0.070(2)
H23 H 0.603(8) 0.037(5) 0.234(2)
H24 H 0.533(9) 0.530(6) 0.449(3)
O11 O 0.6773(6) 0.8132(3) 0.04942(16)
Mn2 Mn 0.84445(12) 0.25753(8) 0.47713(4)
Mn3 Mn 0.34445(12) 0.24247(8) 0.52287(4)
Mn4 Mn 0.15555(12) 0.75753(8) 0.02287(4)
Mn1 Mn 0.65555(12) 0.74247(8) 0.97713(4)
O1 O 0.4789(6) 0.7431(4) 0.91717(16)
O3 O 0.5317(5) 0.6018(3) 0.99782(15)
C25 C 0.4986(12) 0.7375(8) 0.8659(3)
H7 H 0.6054 0.7708 0.8565
H8 H 0.4045 0.7741 0.8500
H9 H 0.4994 0.6638 0.8556
H25 H 0.261(9) 0.470(6) 0.987(2)
O10 O 0.8764(5) 0.6557(3) 0.97297(16)
O12 O 0.7738(5) 0.8773(4) 0.94656(16)
P1_2 P 0.0936(2) 0.44848(14) 0.53237(7)
O1_2 O 0.0211(6) 0.2569(4) 0.41717(16)
C1_2 C 0.0499(10) 0.5884(5) 0.6111(3)
O4_2 O 0.1794(6) 0.5462(4) 0.50706(18)
P2_2 P 0.0173(2) 0.62809(14) 0.93897(7)
O7_2 O 0.1773(6) 0.6868(3) 0.95058(16)
O8_2 O 0.2262(5) 0.3773(4) 0.55344(16)
O9_2 O 0.0526(7) 0.5068(4) 0.94408(18)
C25_2 C 0.0014(12) 0.2625(8) 0.3659(3)
H8_2 H 0.0955 0.2259 0.3500
H9_2 H 0.0006 0.3362 0.3556
H10_2 H 0.009(7) 0.686(4) 0.6686(19)
H16_2 H 0.161(9) 0.610(5) 0.606(2)
H19_2 H 0.030(12) 0.807(7) 0.875(3)
H25_2 H 0.239(9) 0.530(6) 0.487(2)
O2_2 O 0.4614(6) 0.6341(4) 0.75124(17)
O3_2 O 0.9683(5) 0.3982(3) 0.49782(15)
C2_2 C 0.9792(9) 0.7488(6) 0.8568(2)
O5_2 O 0.7184(6) 0.8410(4) 0.67299(17)
C3_2 C 0.7038(8) 0.6390(5) 0.7000(2)
C4_2 C 0.8640(10) 0.9021(6) 0.7461(3)
C5_2 C 0.4579(10) 0.5361(6) 0.6747(2)
C6_2 C 0.9212(9) 0.7733(5) 0.8098(2)
C7_2 C 0.9623(9) 0.6303(6) 0.6487(3)
C8_2 C 0.8286(9) 0.5902(5) 0.8009(3)
C9_2 C 0.7137(8) 0.5297(5) 0.6262(2)
C10_2 C 0.5401(9) 0.6036(5) 0.7081(2)
C11_2 C 0.8091(9) 0.4861(6) 0.5875(2)
C12_2 C 0.9314(9) 0.8743(6) 0.7910(3)
C13_2 C 0.7814(9) 0.7190(5) 0.7331(3)
C14_2 C 0.7883(9) 0.8212(6) 0.7176(3)
C15_2 C 0.8429(9) 0.6932(5) 0.7810(2)
C16_2 C 0.9755(9) 0.5112(5) 0.5800(2)
C17_2 C 0.8829(9) 0.5693(6) 0.8476(3)
C18_2 C 0.5440(10) 0.5023(6) 0.6346(3)
C19_2 C 0.2986(10) 0.6837(7) 0.7463(3)
C20_2 C 0.6805(12) 0.9492(6) 0.6594(3)
C21_2 C 0.5695(10) 0.9413(6) 0.6135(3)
H1_2 H 0.6306 0.9031 0.5880
H3_2 H 0.4650 0.9037 0.6215
C22_2 C 0.7936(8) 0.6008(5) 0.6592(2)
C23_2 C 0.9599(8) 0.6503(5) 0.8765(2)
C24_2 C 0.3152(13) 0.7927(7) 0.7246(4)
H4_2 H 0.3803 0.8374 0.7469
H5_2 H 0.2026 0.8229 0.7198
H6_2 H 0.3736 0.7883 0.6930
H7_2 H 0.8946 0.2292 0.3565
H11_2 H 0.274(10) 0.700(6) 0.788(3)
H12_2 H 0.508(8) 0.462(5) 0.617(2)
H13_2 H 0.969(8) 0.921(5) 0.806(2)
H14_2 H 0.774(7) 0.537(4) 0.7824(19)
H15_2 H 0.208(8) 0.636(5) 0.724(2)
H17_2 H 0.864(9) 0.500(5) 0.860(2)
H18_2 H 0.323(11) 0.510(6) 0.687(3)
H20_2 H 0.622(9) 0.973(5) 0.689(3)
H21_2 H 0.785(10) 0.971(6) 0.646(3)
H22_2 H 0.756(9) 0.435(5) 0.570(2)
H23_2 H 0.897(8) 0.963(5) 0.734(2)
H24_2 H 0.967(9) 0.470(6) 0.949(3)
O11_2 O 0.8227(6) 0.1868(3) 0.54942(16)
O12_2 O 0.7262(5) 0.1227(4) 0.44656(16)
P1_3 P 0.5936(2) 0.05152(14) 0.46763(7)
O1_3 O 0.5211(6) 0.2431(4) 0.58283(16)
O3_3 O 0.4683(5) 0.1018(3) 0.50218(15)
C11_3 C 0.3091(9) 0.0139(6) 0.4125(2)
C25_3 C 0.5014(12) 0.2375(8) 0.6341(3)
H7_3 H 0.3946 0.2708 0.6435
H8_3 H 0.5955 0.2741 0.6500
H9_3 H 0.5006 0.1638 0.6444
H12_3 H 0.008(8) 0.038(5) 0.383(2)
H17_3 H 0.364(9) 0.000(5) 0.140(2)
H22_3 H 0.256(9) 0.065(5) 0.430(2)
H24_3 H 0.467(9) 0.030(6) 0.051(3)
O10_2 O 0.1236(5) 0.1557(3) 0.52703(16)
C1_3 C 0.5499(10) 0.9116(5) 0.3889(3)
O4_3 O 0.6794(6) 0.9538(4) 0.49294(18)
C2_3 C 0.4792(9) 0.7512(6) 0.1432(2)
O5_3 O 0.2184(6) 0.6590(4) 0.32701(17)
C3_3 C 0.2038(8) 0.8610(5) 0.3000(2)
C4_3 C 0.3640(10) 0.5979(6) 0.2539(3)
C6_3 C 0.4212(9) 0.7267(5) 0.1902(2)
C7_3 C 0.4623(9) 0.8697(6) 0.3513(3)
C8_3 C 0.3286(9) 0.9098(5) 0.1991(3)
C9_3 C 0.2137(8) 0.9703(5) 0.3738(2)
C10_3 C 0.0401(9) 0.8964(5) 0.2919(2)
C12_3 C 0.4314(9) 0.6257(6) 0.2090(3)
C13_3 C 0.2814(9) 0.7810(5) 0.2669(3)
C14_3 C 0.2883(9) 0.6788(6) 0.2824(3)
C15_3 C 0.3429(9) 0.8068(5) 0.2190(2)
C16_3 C 0.4755(9) 0.9888(5) 0.4200(2)
C17_3 C 0.3829(9) 0.9307(6) 0.1524(3)
C18_3 C 0.0440(10) 0.9977(6) 0.3654(3)
C20_3 C 0.1805(12) 0.5508(6) 0.3406(3)
C21_3 C 0.0695(10) 0.5587(6) 0.3865(3)
H1_3 H 0.1306 0.5969 0.4120
H2 H 0.0419 0.4880 0.3981
C22_3 C 0.2936(8) 0.8992(5) 0.3408(2)
C23_3 C 0.4599(8) 0.8497(5) 0.1235(2)
P2_3 P 0.5173(2) 0.87191(14) 0.06103(7)
O6_2 O 0.3764(5) 0.8443(3) 0.02703(16)
O9_3 O 0.5526(7) 0.9932(4) 0.05592(18)
H10_3 H 0.509(7) 0.814(4) 0.3314(19)
H13_3 H 0.469(8) 0.579(5) 0.194(2)
H14_3 H 0.274(7) 0.963(4) 0.2176(19)
H16_3 H 0.661(9) 0.890(5) 0.394(2)
H17_4 H 0.364(9) 1.000(5) 0.140(2)
H19_3 H 0.530(12) 0.693(7) 0.125(3)
H20_3 H 0.122(9) 0.527(5) 0.311(3)
H21_3 H 0.285(10) 0.529(6) 0.354(3)
H23_3 H 0.397(8) 0.537(5) 0.266(2)
H25_3 H 0.739(9) 0.970(6) 0.513(2)
O2_3 O 0.5386(6) 0.1341(4) 0.74876(17)
C2_4 C 0.0208(9) 0.2488(6) 0.6432(2)
O5_4 O 0.2816(6) 0.3410(4) 0.82701(17)
C3_4 C 0.2962(8) 0.1390(5) 0.8000(2)
C4_4 C 0.1360(10) 0.4021(6) 0.7539(3)
C5_3 C 0.5421(10) 0.0361(6) 0.8253(2)
C6_4 C 0.0788(9) 0.2733(5) 0.6902(2)
C7_4 C 0.0377(9) 0.1303(6) 0.8513(3)
C8_4 C 0.1714(9) 0.0902(5) 0.6991(3)
C9_4 C 0.2863(8) 0.0297(5) 0.8738(2)
C10_4 C 0.4599(9) 0.1036(5) 0.7919(2)
C12_4 C 0.0686(9) 0.3743(6) 0.7090(3)
C13_4 C 0.2186(9) 0.2190(5) 0.7669(3)
C14_4 C 0.2117(9) 0.3212(6) 0.7824(3)
C15_4 C 0.1571(9) 0.1932(5) 0.7190(2)
C16_4 C 0.0245(9) 0.0112(5) 0.9200(2)
C17_4 C 0.1171(9) 0.0693(6) 0.6524(3)
C18_4 C 0.4560(10) 0.0023(6) 0.8654(3)
C19_3 C 0.7014(10) 0.1837(7) 0.7537(3)
C20_4 C 0.3195(12) 0.4492(6) 0.8406(3)
C21_4 C 0.4305(10) 0.4413(6) 0.8865(3)
H1_4 H 0.3694 0.4031 0.9120
H2_2 H 0.4581 0.5120 0.8981
H3_3 H 0.5350 0.4037 0.8785
C22_4 C 0.2064(8) 0.1008(5) 0.8408(2)
C23_4 C 0.0401(8) 0.1503(5) 0.6235(2)
C24_3 C 0.6848(13) 0.2927(7) 0.7754(4)
H4_3 H 0.6197 0.3374 0.7531
H5_3 H 0.7974 0.3229 0.7802
H6_3 H 0.6264 0.2883 0.8070
H11_3 H 0.726(10) 0.200(6) 0.712(3)
H13_4 H 0.031(8) 0.421(5) 0.694(2)
H14_4 H 0.226(7) 0.037(4) 0.7176(19)
H15_3 H 0.792(8) 0.136(5) 0.776(2)
H17_5 H 0.136(9) 0.000(5) 0.640(2)
H18_3 H 0.677(11) 0.010(6) 0.813(3)
H20_4 H 0.378(9) 0.473(5) 0.811(3)
H21_4 H 0.215(10) 0.471(6) 0.854(3)
H23_4 H 0.103(8) 0.463(5) 0.766(2)
O3_4 O 0.0317(5) 0.8982(3) 0.00218(15)
H7_4 H 0.1054 0.7292 0.1435
C11_4 C 0.1909(9) 0.9861(6) 0.9125(2)
H12_4 H 0.492(8) 0.962(5) 0.883(2)
H17_6 H 0.136(9) 1.000(5) 0.640(2)
H22_4 H 0.244(9) 0.935(5) 0.930(2)
H24_4 H 0.033(9) 0.970(6) 0.551(3)
C1_4 C 0.9501(10) 0.0884(5) 0.8889(3)
O4_4 O 0.8206(6) 0.0462(4) 0.99294(18)
P2_4 P 0.9827(2) 0.12809(14) 0.56103(7)
O9_4 O 0.9474(7) 0.0068(4) 0.55592(18)
H10_4 H 0.991(7) 0.186(4) 0.8314(19)
H16_4 H 0.839(9) 0.110(5) 0.894(2)
H19_4 H 0.970(12) 0.307(7) 0.625(3)
P1_4 P 0.9064(2) 0.94848(14) 0.96763(7)
H2_3 H 0.9581 0.9880 0.1019
H2_4 H 0.5419 0.0120 0.6019
O2_4 O 0.9614(6) 0.8659(4) 0.24876(17)
C5_4 C 0.9579(10) 0.9639(6) 0.3253(2)
C19_4 C 0.7986(10) 0.8163(7) 0.2537(3)
H3_4 H 0.9650 0.5963 0.3785
C24_4 C 0.8152(13) 0.7073(7) 0.2754(4)
H4_4 H 0.8803 0.6626 0.2531
H5_4 H 0.7026 0.6771 0.2802
H6_4 H 0.8736 0.7117 0.3070
H11_4 H 0.774(10) 0.800(6) 0.212(3)
H15_4 H 0.708(8) 0.864(5) 0.276(2)
H18_4 H 0.823(11) 0.990(6) 0.313(3)
H25_4 H 0.761(9) 0.030(6) 0.013(2)
O1_4 O 0.9789(6) 0.7569(4) 0.08283(16)
C25_4 C 0.9986(12) 0.7625(8) 0.1341(3)
H8_4 H 0.9045 0.7259 0.1500
H9_4 H 0.9994 0.8362 0.1444
loop_
_geom_bond_atom_site_label_1
_geom_bond_atom_site_label_2
_geom_bond_site_symmetry_1
_geom_bond_site_symmetry_2
C19 O2 1_555 1_555
C24 C19 1_555 1_555
H4 C24 1_555 1_555
H5 C24 1_555 1_555
H6 C24 1_555 1_555
H11 C19 1_555 1_555
H15 C19 1_555 1_555
H18 C5 1_555 1_555
C1 C7 1_555 1_555
O4 P1 1_555 1_555
C2 C6 1_555 1_555
O5 C14 1_555 1_555
C3 C10 1_555 1_555
C4 C12 1_555 1_555
C6 C12 1_555 1_555
C7 C22 1_555 1_555
C8 C15 1_555 1_555
C9 C11 1_555 1_555
C11 C16 1_555 1_555
C12 H13 1_555 1_555
C13 C3 1_555 1_555
C14 C4 1_555 1_555
C15 C6 1_555 1_555
C16 P1 1_555 1_555
C17 C8 1_555 1_555
C20 O5 1_555 1_555
C21 C20 1_555 1_555
H1 C21 1_555 1_555
C22 C3 1_555 1_555
C23 C2 1_555 1_555
P2 C23 1_555 1_555
O6 P2 1_555 1_555
O7 P2 1_555 1_555
O8 P1 1_555 1_555
O9 P2 1_555 1_555
H10 C7 1_555 1_555
H12 C18 1_555 1_555
H14 C8 1_555 1_555
H16 C1 1_555 1_555
H17 C17 1_555 1_555
H19 C2 1_555 1_555
H20 C20 1_555 1_555
H21 C20 1_555 1_555
H22 C11 1_555 1_555
H23 C4 1_555 1_555
H24 O9 1_555 1_555
Mn2 O6 1_555 1_555
Mn3 O7 1_555 1_555
Mn4 O8 1_555 1_555
C1 C16 1_555 1_555
C9 C18 1_555 1_555
C9 C22 1_555 1_555
C13 C14 1_555 1_555
C13 C15 1_555 1_555
C17 C23 1_555 1_555
Mn1 O1 1_555 1_555
O1 C25 1_555 1_555
O3 Mn1 1_555 1_555
C25 H7 1_555 1_555
H8 C25 1_555 1_555
H9 C25 1_555 1_555
O10 Mn1 1_555 1_555
O12 Mn1 1_555 1_555
O1_2 C25_2 1_555 1_555
O4_2 P1_2 1_555 1_555
O7_2 P2_2 1_555 1_555
O8_2 P1_2 1_555 1_555
O9_2 P2_2 1_555 1_555
H8_2 C25_2 1_555 1_555
H9_2 C25_2 1_555 1_555
H16_2 C1_2 1_555 1_555
H25_2 O4_2 1_555 1_555
Mn3 O8_2 1_555 1_555
O2_2 C10_2 1_555 1_555
O3_2 Mn2 1_555 1_555
C2_2 C6_2 1_555 1_555
O5_2 C14_2 1_555 1_555
C3_2 C10_2 1_555 1_555
C4_2 C12_2 1_555 1_555
C5_2 C10_2 1_555 1_555
C6_2 C12_2 1_555 1_555
C7_2 C22_2 1_555 1_555
C8_2 C15_2 1_555 1_555
C9_2 C11_2 1_555 1_555
C11_2 C16_2 1_555 1_555
C12_2 H13_2 1_555 1_555
C13_2 C3_2 1_555 1_555
C14_2 C4_2 1_555 1_555
C15_2 C6_2 1_555 1_555
C17_2 C8_2 1_555 1_555
C18_2 C5_2 1_555 1_555
C19_2 O2_2 1_555 1_555
C20_2 O5_2 1_555 1_555
C21_2 C20_2 1_555 1_555
H1_2 C21_2 1_555 1_555
H3_2 C21_2 1_555 1_555
C22_2 C3_2 1_555 1_555
C23_2 C2_2 1_555 1_555
C24_2 C19_2 1_555 1_555
H4_2 C24_2 1_555 1_555
H5_2 C24_2 1_555 1_555
H6_2 C24_2 1_555 1_555
H11_2 C19_2 1_555 1_555
H12_2 C18_2 1_555 1_555
H14_2 C8_2 1_555 1_555
H15_2 C19_2 1_555 1_555
H17_2 C17_2 1_555 1_555
H18_2 C5_2 1_555 1_555
H20_2 C20_2 1_555 1_555
H21_2 C20_2 1_555 1_555
H22_2 C11_2 1_555 1_555
H23_2 C4_2 1_555 1_555
O11_2 Mn2 1_555 1_555
O12_2 Mn2 1_555 1_555
C9_2 C18_2 1_555 1_555
C9_2 C22_2 1_555 1_555
C13_2 C14_2 1_555 1_555
C13_2 C15_2 1_555 1_555
C17_2 C23_2 1_555 1_555
Mn3 O1_3 1_555 1_555
P1_3 O3_3 1_555 1_555
O1_3 C25_3 1_555 1_555
O3_3 Mn3 1_555 1_555
O12_2 P1_3 1_555 1_555
C25_3 H7_3 1_555 1_555
H8_3 C25_3 1_555 1_555
H9_3 C25_3 1_555 1_555
H22_3 C11_3 1_555 1_555
O10_2 Mn3 1_555 1_555
C1_3 C7_3 1_555 1_555
C2_3 C6_3 1_555 1_555
O5_3 C14_3 1_555 1_555
C3_3 C10_3 1_555 1_555
C4_3 C12_3 1_555 1_555
C6_3 C12_3 1_555 1_555
C7_3 C22_3 1_555 1_555
C8_3 C15_3 1_555 1_555
C12_3 H13_3 1_555 1_555
C13_3 C3_3 1_555 1_555
C14_3 C4_3 1_555 1_555
C15_3 C6_3 1_555 1_555
C17_3 C8_3 1_555 1_555
C20_3 O5_3 1_555 1_555
C21_3 C20_3 1_555 1_555
H1_3 C21_3 1_555 1_555
H2 C21_3 1_555 1_555
C22_3 C3_3 1_555 1_555
C23_3 C2_3 1_555 1_555
P2_3 C23_3 1_555 1_555
O6_2 P2_3 1_555 1_555
O11 P2_3 1_555 1_555
O9_3 P2_3 1_555 1_555
H10_3 C7_3 1_555 1_555
H14_3 C8_3 1_555 1_555
H16_3 C1_3 1_555 1_555
H17_4 C17_3 1_555 1_555
H19_3 C2_3 1_555 1_555
H20_3 C20_3 1_555 1_555
H21_3 C20_3 1_555 1_555
H23_3 C4_3 1_555 1_555
H25_3 O4_3 1_555 1_555
Mn4 O6_2 1_555 1_555
C1_3 C16_3 1_555 1_555
C9_3 C18_3 1_555 1_555
C9_3 C22_3 1_555 1_555
C13_3 C14_3 1_555 1_555
C13_3 C15_3 1_555 1_555
C17_3 C23_3 1_555 1_555
O2_3 C10_4 1_555 1_555
C2_4 C6_4 1_555 1_555
O5_4 C14_4 1_555 1_555
C3_4 C10_4 1_555 1_555
C4_4 C12_4 1_555 1_555
C5_3 C10_4 1_555 1_555
C6_4 C12_4 1_555 1_555
C7_4 C22_4 1_555 1_555
C8_4 C15_4 1_555 1_555
C12_4 H13_4 1_555 1_555
C13_4 C3_4 1_555 1_555
C14_4 C4_4 1_555 1_555
C15_4 C6_4 1_555 1_555
C17_4 C8_4 1_555 1_555
C18_4 C5_3 1_555 1_555
C19_3 O2_3 1_555 1_555
C20_4 O5_4 1_555 1_555
C21_4 C20_4 1_555 1_555
H1_4 C21_4 1_555 1_555
H2_2 C21_4 1_555 1_555
H3_3 C21_4 1_555 1_555
C22_4 C3_4 1_555 1_555
C23_4 C2_4 1_555 1_555
C24_3 C19_3 1_555 1_555
H4_3 C24_3 1_555 1_555
H5_3 C24_3 1_555 1_555
H6_3 C24_3 1_555 1_555
H11_3 C19_3 1_555 1_555
H14_4 C8_4 1_555 1_555
H15_3 C19_3 1_555 1_555
H17_5 C17_4 1_555 1_555
H18_3 C5_3 1_555 1_555
H20_4 C20_4 1_555 1_555
H21_4 C20_4 1_555 1_555
H23_4 C4_4 1_555 1_555
C9_4 C18_4 1_555 1_555
C9_4 C22_4 1_555 1_555
C13_4 C14_4 1_555 1_555
C13_4 C15_4 1_555 1_555
C17_4 C23_4 1_555 1_555
O3_4 Mn4 1_555 1_555
H22_4 C11_4 1_555 1_555
O11_2 P2_4 1_555 1_555
O9_4 P2_4 1_555 1_555
H16_4 C1_4 1_555 1_555
O12 P1_4 1_555 1_555
C19_4 O2_4 1_555 1_555
C24_4 C19_4 1_555 1_555
H4_4 C24_4 1_555 1_555
H5_4 C24_4 1_555 1_555
H6_4 C24_4 1_555 1_555
H11_4 C19_4 1_555 1_555
H15_4 C19_4 1_555 1_555
H18_4 C5_4 1_555 1_555
O1_4 C25_4 1_555 1_555
H8_4 C25_4 1_555 1_555
H9_4 C25_4 1_555 1_555

#END
