
###############################################################################
#
# This file contains modified crystal structure data generated from the
# MOF subset of the Cambridge Structural Database (CSD) v543 
# hosted by the Cambridge Crystallographic Data Centre (CCDC).
#
# This work is licensed under the Creative Commons
# Attribution-NonCommercial-ShareAlike 4.0 International License.
# To view a copy of this license, visit
# http://creativecommons.org/licenses/by-nc-sa/4.0/
# or send a letter to
# Creative Commons, PO Box 1866, Mountain View, CA 94042, USA.
#
# CIF created using the CSD Python API on 29 September 2022
# The structure has been converted into the P1 space group
# The structure has a 3D framework
# The original CSD entry LULLOV is in the tetragonal crystal system
# The framework has been calculated to contain at least 10.0% void space
# The void calculation uses a probe of radius 1.32A, grid spacing 0.4
# The framework is charged, counterions have been retained in the structure
#
###############################################################################

data_LULLOV
_chemical_formula_moiety         '(C320 H192 K12 O120 S64 Zn4 8-)n'
_symmetry_cell_setting           triclinic
_symmetry_space_group_name_H-M   'P 1'
_symmetry_Int_Tables_number      1
_space_group_name_Hall           'P 1'
loop_
_symmetry_equiv_pos_site_id
_symmetry_equiv_pos_as_xyz
1 x,y,z
_cell_length_a                   22.558(5)
_cell_length_b                   22.558(5)
_cell_length_c                   24.105(5)
_cell_angle_alpha                90
_cell_angle_beta                 90
_cell_angle_gamma                90
_cell_volume                     12266.2
loop_
_atom_site_label
_atom_site_type_symbol
_atom_site_fract_x
_atom_site_fract_y
_atom_site_fract_z
Zn1 Zn 0.16990(2) 0.08010(2) 0.1250
S1 S 0.43476(8) 0.07555(9) 0.34253(8)
S2 S 0.32235(8) 0.07723(8) 0.26616(8)
C1 C 0.3998(3) 0.0849(3) 0.1812(4)
C2 C 0.4984(4) 0.0838(3) 0.2465(3)
O1 O 0.23680(16) 0.07634(16) 0.17911(15)
O2 O 0.29515(19) 0.0812(2) 0.10429(18)
O3 O 0.60556(18) 0.07731(16) 0.31866(17)
C3 C 0.4324(3) 0.0823(3) 0.2339(3)
C4 C 0.3395(3) 0.0813(2) 0.1942(3)
C5 C 0.5018(3) 0.0789(2) 0.3048(2)
C6 C 0.3980(3) 0.0789(3) 0.2807(3)
C7 C 0.2871(3) 0.0800(2) 0.1554(2)
O4 O 0.5480(2) 0.0752(3) 0.39205(19)
C8 C 0.5560(3) 0.0773(3) 0.3408(3)
C9 C 0.4199(3) 0.0895(3) 0.1354(4)
H1 H 0.4624 0.0907 0.1374
H2 H 0.4057 0.1254 0.1187
H3 H 0.4078 0.0562 0.1133
C10 C 0.5373(3) 0.0881(3) 0.2138(3)
H4 H 0.5210 0.0912 0.1771
H5 H 0.5623 0.0537 0.2159
H6 H 0.5603 0.1228 0.2218
K1 K 0.67509(9) 0.0000 0.2500
Zn4 Zn 0.66990(2) 0.08010(2) 0.3750
O9 O 0.17366(16) 0.01320(16) 0.07089(15)
O11 O 0.73680(16) 0.07634(16) 0.32089(15)
O12 O 0.6688(2) 0.04515(19) 0.14571(18)
O14 O 0.17269(16) 0.14444(18) 0.06866(17)
O15 O 0.10556(18) 0.07731(16) 0.18134(17)
K2 K 0.17509(9) 0.0000 0.2500
K3 K 0.2500 0.07491(9) 0.0000
K3_2 K 0.2500 0.07491(9) 1.0000
K1_2 K 0.67509(9) 1.0000 0.2500
S3 S 0.43476(8) 0.92445(9) 0.15747(8)
S4 S 0.32235(8) 0.92277(8) 0.23384(8)
C11 C 0.3998(3) 0.9151(3) 0.3188(4)
C12 C 0.4984(4) 0.9162(3) 0.2535(3)
O5 O 0.23680(16) 0.92366(16) 0.32089(15)
O6 O 0.29515(19) 0.9188(2) 0.39571(18)
O7 O 0.60556(18) 0.92269(16) 0.18134(17)
C13 C 0.4324(3) 0.9177(3) 0.2661(3)
C14 C 0.3395(3) 0.9187(2) 0.3058(3)
C15 C 0.5018(3) 0.9211(2) 0.1952(2)
C16 C 0.3980(3) 0.9211(3) 0.2193(3)
C17 C 0.2871(3) 0.9200(2) 0.3446(2)
O8 O 0.5480(2) 0.9248(3) 0.10795(19)
C18 C 0.5560(3) 0.9227(3) 0.1592(3)
C19 C 0.4199(3) 0.9105(3) 0.3646(4)
H7 H 0.4624 0.9093 0.3626
H8 H 0.4057 0.8746 0.3813
H9 H 0.4078 0.9438 0.3867
C20 C 0.5373(3) 0.9119(3) 0.2862(3)
H10 H 0.5210 0.9088 0.3229
H11 H 0.5623 0.9463 0.2841
H12 H 0.5603 0.8772 0.2782
Zn2 Zn 0.16990(2) 0.91990(2) 0.3750
Zn3 Zn 0.66990(2) 0.91990(2) 0.1250
O10 O 0.73680(16) 0.92366(16) 0.17911(15)
O13 O 0.6688(2) 0.95485(19) 0.35429(18)
K2_2 K 0.17509(9) 1.0000 0.2500
K4 K 0.2500 0.92509(9) 0.5000
Zn1_2 Zn 0.83010(2) 0.41990(2) 0.1250
S1_2 S 0.56524(8) 0.42445(9) 0.34253(8)
S2_2 S 0.67765(8) 0.42277(8) 0.26616(8)
C1_2 C 0.6002(3) 0.4151(3) 0.1812(4)
C2_2 C 0.5016(4) 0.4162(3) 0.2465(3)
O1_2 O 0.76320(16) 0.42366(16) 0.17911(15)
O2_2 O 0.70485(19) 0.4188(2) 0.10429(18)
O3_2 O 0.39444(18) 0.42269(16) 0.31866(17)
C3_2 C 0.5676(3) 0.4177(3) 0.2339(3)
C4_2 C 0.6605(3) 0.4187(2) 0.1942(3)
C5_2 C 0.4982(3) 0.4211(2) 0.3048(2)
C6_2 C 0.6020(3) 0.4211(3) 0.2807(3)
C7_2 C 0.7129(3) 0.4200(2) 0.1554(2)
O4_2 O 0.4520(2) 0.4248(3) 0.39205(19)
C8_2 C 0.4440(3) 0.4227(3) 0.3408(3)
C9_2 C 0.5801(3) 0.4105(3) 0.1354(4)
H1_2 H 0.5376 0.4093 0.1374
H2_2 H 0.5943 0.3746 0.1187
H3_2 H 0.5922 0.4438 0.1133
C10_2 C 0.4627(3) 0.4119(3) 0.2138(3)
H4_2 H 0.4790 0.4088 0.1771
H5_2 H 0.4377 0.4463 0.2159
H6_2 H 0.4397 0.3772 0.2218
K1_3 K 0.32491(9) 0.5000 0.2500
S3_2 S 0.56524(8) 0.57555(9) 0.15747(8)
S4_2 S 0.67765(8) 0.57723(8) 0.23384(8)
C11_2 C 0.6002(3) 0.5849(3) 0.3188(4)
C12_2 C 0.5016(4) 0.5838(3) 0.2535(3)
O5_2 O 0.76320(16) 0.57634(16) 0.32089(15)
O6_2 O 0.70485(19) 0.5812(2) 0.39571(18)
O7_2 O 0.39444(18) 0.57731(16) 0.18134(17)
C13_2 C 0.5676(3) 0.5823(3) 0.2661(3)
C14_2 C 0.6605(3) 0.5813(2) 0.3058(3)
C15_2 C 0.4982(3) 0.5789(2) 0.1952(2)
C16_2 C 0.6020(3) 0.5789(3) 0.2193(3)
C17_2 C 0.7129(3) 0.5800(2) 0.3446(2)
O8_2 O 0.4520(2) 0.5752(3) 0.10795(19)
C18_2 C 0.4440(3) 0.5773(3) 0.1592(3)
C19_2 C 0.5801(3) 0.5895(3) 0.3646(4)
H7_2 H 0.5376 0.5907 0.3626
H8_2 H 0.5943 0.6254 0.3813
H9_2 H 0.5922 0.5562 0.3867
C20_2 C 0.4627(3) 0.5881(3) 0.2862(3)
H10_2 H 0.4790 0.5912 0.3229
H11_2 H 0.4377 0.5537 0.2841
H12_2 H 0.4397 0.6228 0.2782
Zn2_2 Zn 0.83010(2) 0.58010(2) 0.3750
Zn3_2 Zn 0.33010(2) 0.58010(2) 0.1250
Zn4_2 Zn 0.33010(2) 0.41990(2) 0.3750
O9_2 O 0.82634(16) 0.48680(16) 0.07089(15)
O10_2 O 0.26320(16) 0.57634(16) 0.17911(15)
O11_2 O 0.26320(16) 0.42366(16) 0.32089(15)
O12_2 O 0.3312(2) 0.45485(19) 0.14571(18)
O13_2 O 0.3312(2) 0.54515(19) 0.35429(18)
O14_2 O 0.82731(16) 0.35556(18) 0.06866(17)
O15_2 O 0.89444(18) 0.42269(16) 0.18134(17)
K2_3 K 0.82491(9) 0.5000 0.2500
K3_3 K 0.7500 0.42509(9) 0.0000
K4_2 K 0.7500 0.57491(9) 0.5000
K3_4 K 0.7500 0.42509(9) 1.0000
O9_3 O 0.17366(16) 0.98680(16) 0.42911(15)
O14_3 O 0.17269(16) 0.85556(18) 0.43134(17)
O15_3 O 0.10556(18) 0.92269(16) 0.31866(17)
Zn1_3 Zn 0.33010(2) 0.08010(2) 0.8750
S1_3 S 0.06524(8) 0.07555(9) 0.65747(8)
S2_3 S 0.17765(8) 0.07723(8) 0.73384(8)
C1_3 C 0.1002(3) 0.0849(3) 0.8188(4)
C2_3 C 0.0016(4) 0.0838(3) 0.7535(3)
O1_3 O 0.26320(16) 0.07634(16) 0.82089(15)
O2_3 O 0.20485(19) 0.0812(2) 0.89571(18)
C3_3 C 0.0676(3) 0.0823(3) 0.7661(3)
C4_3 C 0.1605(3) 0.0813(2) 0.8058(3)
C6_3 C 0.1020(3) 0.0789(3) 0.7193(3)
C7_3 C 0.2129(3) 0.0800(2) 0.8446(2)
C9_3 C 0.0801(3) 0.0895(3) 0.8646(4)
H1_3 H 0.0376 0.0907 0.8626
H2_3 H 0.0943 0.1254 0.8813
H3_3 H 0.0922 0.0562 0.8867
O9_4 O 0.32634(16) 0.01320(16) 0.92911(15)
O14_4 O 0.32731(16) 0.14444(18) 0.93134(17)
O15_4 O 0.39444(18) 0.07731(16) 0.81866(17)
K2_4 K 0.32491(9) 0.0000 0.7500
S3_3 S 0.06524(8) 0.92445(9) 0.84253(8)
S4_3 S 0.17765(8) 0.92277(8) 0.76616(8)
C11_3 C 0.1002(3) 0.9151(3) 0.6812(4)
C12_3 C 0.0016(4) 0.9162(3) 0.7465(3)
O5_3 O 0.26320(16) 0.92366(16) 0.67911(15)
O6_3 O 0.20485(19) 0.9188(2) 0.60429(18)
C13_3 C 0.0676(3) 0.9177(3) 0.7339(3)
C14_3 C 0.1605(3) 0.9187(2) 0.6942(3)
C16_3 C 0.1020(3) 0.9211(3) 0.7807(3)
C17_3 C 0.2129(3) 0.9200(2) 0.6554(2)
C19_3 C 0.0801(3) 0.9105(3) 0.6354(4)
H7_3 H 0.0376 0.9093 0.6374
H8_3 H 0.0943 0.8746 0.6187
H9_3 H 0.0922 0.9438 0.6133
Zn2_3 Zn 0.33010(2) 0.91990(2) 0.6250
K2_5 K 0.32491(9) 1.0000 0.7500
O3_3 O 0.89444(18) 0.07731(16) 0.68134(17)
C5_3 C 0.9982(3) 0.0789(2) 0.6952(2)
O4_3 O 0.9520(2) 0.0752(3) 0.60795(19)
C8_3 C 0.9440(3) 0.0773(3) 0.6592(3)
C10_3 C 0.9627(3) 0.0881(3) 0.7862(3)
H4_3 H 0.9790 0.0912 0.8229
H5_3 H 0.9377 0.0537 0.7841
H6_3 H 0.9397 0.1228 0.7782
K1_4 K 0.82491(9) 0.0000 0.7500
Zn4_3 Zn 0.83010(2) 0.08010(2) 0.6250
O11_3 O 0.76320(16) 0.07634(16) 0.67911(15)
O12_3 O 0.8312(2) 0.04515(19) 0.85429(18)
K1_5 K 0.82491(9) 1.0000 0.7500
O7_3 O 0.89444(18) 0.92269(16) 0.81866(17)
C15_3 C 0.9982(3) 0.9211(2) 0.8048(2)
O8_3 O 0.9520(2) 0.9248(3) 0.89205(19)
C18_3 C 0.9440(3) 0.9227(3) 0.8408(3)
C20_3 C 0.9627(3) 0.9119(3) 0.7138(3)
H10_3 H 0.9790 0.9088 0.6771
H11_3 H 0.9377 0.9463 0.7159
H12_3 H 0.9397 0.8772 0.7218
Zn3_3 Zn 0.83010(2) 0.91990(2) 0.8750
O10_3 O 0.76320(16) 0.92366(16) 0.82089(15)
O13_3 O 0.8312(2) 0.95485(19) 0.64571(18)
C1_4 C 0.1651(3) 0.8502(3) 0.0688(4)
C2_4 C 0.1662(3) 0.7516(4) 0.0035(3)
O2_4 O 0.1688(2) 0.95485(19) 0.14571(18)
C3_4 C 0.1677(3) 0.8176(3) 0.0161(3)
C4_4 C 0.1687(2) 0.9105(3) 0.0558(3)
C7_4 C 0.1700(2) 0.9629(3) 0.0946(2)
C9_4 C 0.1605(3) 0.8301(3) 0.1146(4)
H1_4 H 0.1593 0.7876 0.1126
H2_4 H 0.1246 0.8443 0.1313
H3_4 H 0.1938 0.8422 0.1367
C10_4 C 0.1619(3) 0.7127(3) 0.0362(3)
H4_4 H 0.1588 0.7290 0.0729
H5_4 H 0.1963 0.6877 0.0341
H6_4 H 0.1272 0.6897 0.0282
K1_6 K 0.2500 0.57491(9) 0.0000
S3_4 S 0.32555(9) 0.81524(8) 0.09253(8)
S4_4 S 0.32723(8) 0.92765(8) 0.01616(8)
O7_4 O 0.32731(16) 0.64444(18) 0.06866(17)
C15_4 C 0.3289(2) 0.7482(3) 0.0548(2)
C16_4 C 0.3289(3) 0.8520(3) 0.0307(3)
O8_4 O 0.3252(3) 0.7020(2) 0.14205(19)
C18_4 C 0.3273(3) 0.6940(3) 0.0908(3)
O10_4 O 0.32634(16) 0.51320(16) 0.07089(15)
O12_4 O 0.20485(19) 0.5812(2) 0.10429(18)
S1_4 S 0.17445(9) 0.81524(8) 0.90747(8)
S2_4 S 0.17277(8) 0.92765(8) 0.98384(8)
O3_4 O 0.17269(16) 0.64444(18) 0.93134(17)
C5_4 C 0.1711(2) 0.7482(3) 0.9452(2)
C6_4 C 0.1711(3) 0.8520(3) 0.9693(3)
O4_4 O 0.1748(3) 0.7020(2) 0.85795(19)
C8_4 C 0.1727(3) 0.6940(3) 0.9092(3)
K1_7 K 0.2500 0.57491(9) 1.0000
C11_4 C 0.3349(3) 0.8502(3) 0.9312(4)
C12_4 C 0.3338(3) 0.7516(4) 0.9965(3)
O6_4 O 0.3312(2) 0.95485(19) 0.85429(18)
C13_4 C 0.3323(3) 0.8176(3) 0.9839(3)
C14_4 C 0.3313(2) 0.9105(3) 0.9442(3)
C17_4 C 0.3300(2) 0.9629(3) 0.9054(2)
C19_4 C 0.3395(3) 0.8301(3) 0.8854(4)
H7_4 H 0.3407 0.7876 0.8874
H8_4 H 0.3754 0.8443 0.8687
H9_4 H 0.3062 0.8422 0.8633
C20_4 C 0.3381(3) 0.7127(3) 0.9638(3)
H10_4 H 0.3412 0.7290 0.9271
H11_4 H 0.3037 0.6877 0.9659
H12_4 H 0.3728 0.6897 0.9718
Zn4_4 Zn 0.16990(2) 0.58010(2) 0.8750
O11_4 O 0.17366(16) 0.51320(16) 0.92911(15)
O13_4 O 0.29515(19) 0.5812(2) 0.89571(18)
C1_5 C 0.8349(3) 0.6498(3) 0.0688(4)
C2_5 C 0.8338(3) 0.7484(4) 0.0035(3)
O2_5 O 0.8312(2) 0.54515(19) 0.14571(18)
C3_5 C 0.8323(3) 0.6824(3) 0.0161(3)
C4_5 C 0.8313(2) 0.5895(3) 0.0558(3)
C7_5 C 0.8300(2) 0.5371(3) 0.0946(2)
C9_5 C 0.8395(3) 0.6699(3) 0.1146(4)
H1_5 H 0.8407 0.7124 0.1126
H2_5 H 0.8754 0.6557 0.1313
H3_5 H 0.8062 0.6578 0.1367
C10_5 C 0.8381(3) 0.7873(3) 0.0362(3)
H4_5 H 0.8412 0.7710 0.0729
H5_5 H 0.8037 0.8123 0.0341
H6_5 H 0.8728 0.8103 0.0282
K1_8 K 0.7500 0.92509(9) 0.0000
S3_5 S 0.67445(9) 0.68476(8) 0.09253(8)
S4_5 S 0.67277(8) 0.57235(8) 0.01616(8)
O7_5 O 0.67269(16) 0.85556(18) 0.06866(17)
C15_5 C 0.6711(2) 0.7518(3) 0.0548(2)
C16_5 C 0.6711(3) 0.6480(3) 0.0307(3)
O8_5 O 0.6748(3) 0.7980(2) 0.14205(19)
C18_5 C 0.6727(3) 0.8060(3) 0.0908(3)
O10_5 O 0.67366(16) 0.98680(16) 0.07089(15)
O12_5 O 0.79515(19) 0.9188(2) 0.10429(18)
S1_5 S 0.82555(9) 0.68476(8) 0.90747(8)
S2_5 S 0.82723(8) 0.57235(8) 0.98384(8)
O3_5 O 0.82731(16) 0.85556(18) 0.93134(17)
C5_5 C 0.8289(2) 0.7518(3) 0.9452(2)
C6_5 C 0.8289(3) 0.6480(3) 0.9693(3)
O4_5 O 0.8252(3) 0.7980(2) 0.85795(19)
C8_5 C 0.8273(3) 0.8060(3) 0.9092(3)
K1_9 K 0.7500 0.92509(9) 1.0000
C11_5 C 0.6651(3) 0.6498(3) 0.9312(4)
C12_5 C 0.6662(3) 0.7484(4) 0.9965(3)
O5_4 O 0.67366(16) 0.48680(16) 0.92911(15)
O6_5 O 0.6688(2) 0.54515(19) 0.85429(18)
C13_5 C 0.6677(3) 0.6824(3) 0.9839(3)
C14_5 C 0.6687(2) 0.5895(3) 0.9442(3)
C17_5 C 0.6700(2) 0.5371(3) 0.9054(2)
C19_5 C 0.6605(3) 0.6699(3) 0.8854(4)
H7_5 H 0.6593 0.7124 0.8874
H8_5 H 0.6246 0.6557 0.8687
H9_5 H 0.6938 0.6578 0.8633
C20_5 C 0.6619(3) 0.7873(3) 0.9638(3)
H10_5 H 0.6588 0.7710 0.9271
H11_5 H 0.6963 0.8123 0.9659
H12_5 H 0.6272 0.8103 0.9718
Zn2_4 Zn 0.66990(2) 0.41990(2) 0.8750
O11_5 O 0.82634(16) 0.98680(16) 0.92911(15)
O13_5 O 0.70485(19) 0.9188(2) 0.89571(18)
K4_3 K 0.67509(9) 0.5000 0.7500
S1_6 S 0.17445(9) 0.18476(8) 0.59253(8)
S2_6 S 0.17277(8) 0.07235(8) 0.51616(8)
C1_6 C 0.1651(3) 0.1498(3) 0.4312(4)
C2_6 C 0.1662(3) 0.2484(4) 0.4965(3)
O2_6 O 0.1688(2) 0.04515(19) 0.35429(18)
O3_6 O 0.17269(16) 0.35556(18) 0.56866(17)
C3_6 C 0.1677(3) 0.1824(3) 0.4839(3)
C4_6 C 0.1687(2) 0.0895(3) 0.4442(3)
C5_6 C 0.1711(2) 0.2518(3) 0.5548(2)
C6_6 C 0.1711(3) 0.1480(3) 0.5307(3)
C7_6 C 0.1700(2) 0.0371(3) 0.4054(2)
O4_6 O 0.1748(3) 0.2980(2) 0.64205(19)
C8_6 C 0.1727(3) 0.3060(3) 0.5908(3)
C9_6 C 0.1605(3) 0.1699(3) 0.3854(4)
H1_6 H 0.1593 0.2124 0.3874
H2_6 H 0.1246 0.1557 0.3687
H3_6 H 0.1938 0.1578 0.3633
C10_6 C 0.1619(3) 0.2873(3) 0.4638(3)
H4_6 H 0.1588 0.2710 0.4271
H5_6 H 0.1963 0.3123 0.4659
H6_6 H 0.1272 0.3103 0.4718
K1_10 K 0.2500 0.42509(9) 0.5000
S3_6 S 0.32555(9) 0.18476(8) 0.40747(8)
S4_6 S 0.32723(8) 0.07235(8) 0.48384(8)
C11_6 C 0.3349(3) 0.1498(3) 0.5688(4)
C12_6 C 0.3338(3) 0.2484(4) 0.5035(3)
O6_6 O 0.3312(2) 0.04515(19) 0.64571(18)
O7_6 O 0.32731(16) 0.35556(18) 0.43134(17)
C13_6 C 0.3323(3) 0.1824(3) 0.5161(3)
C14_6 C 0.3313(2) 0.0895(3) 0.5558(3)
C15_6 C 0.3289(2) 0.2518(3) 0.4452(2)
C16_6 C 0.3289(3) 0.1480(3) 0.4693(3)
C17_6 C 0.3300(2) 0.0371(3) 0.5946(2)
O8_6 O 0.3252(3) 0.2980(2) 0.35795(19)
C18_6 C 0.3273(3) 0.3060(3) 0.4092(3)
C19_6 C 0.3395(3) 0.1699(3) 0.6146(4)
H7_6 H 0.3407 0.2124 0.6126
H8_6 H 0.3754 0.1557 0.6313
H9_6 H 0.3062 0.1578 0.6367
C20_6 C 0.3381(3) 0.2873(3) 0.5362(3)
H10_6 H 0.3412 0.2710 0.5729
H11_6 H 0.3037 0.3123 0.5341
H12_6 H 0.3728 0.3103 0.5282
Zn4_5 Zn 0.16990(2) 0.41990(2) 0.6250
O10_6 O 0.32634(16) 0.48680(16) 0.42911(15)
O11_6 O 0.17366(16) 0.48680(16) 0.57089(15)
O12_6 O 0.20485(19) 0.4188(2) 0.39571(18)
O13_6 O 0.29515(19) 0.4188(2) 0.60429(18)
O5_5 O 0.32634(16) 0.98680(16) 0.57089(15)
O3_7 O 0.10556(18) 0.57731(16) 0.81866(17)
C5_7 C 0.0018(3) 0.5789(2) 0.8048(2)
O4_7 O 0.0480(2) 0.5752(3) 0.89205(19)
C8_7 C 0.0560(3) 0.5773(3) 0.8408(3)
C10_7 C 0.0373(3) 0.5881(3) 0.7138(3)
H4_7 H 0.0210 0.5912 0.6771
H5_7 H 0.0623 0.5537 0.7159
H6_7 H 0.0603 0.6228 0.7218
K1_11 K 0.17509(9) 0.5000 0.7500
O7_7 O 0.10556(18) 0.42269(16) 0.68134(17)
C15_7 C 0.0018(3) 0.4211(2) 0.6952(2)
O8_7 O 0.0480(2) 0.4248(3) 0.60795(19)
C18_7 C 0.0560(3) 0.4227(3) 0.6592(3)
C20_7 C 0.0373(3) 0.4119(3) 0.7862(3)
H10_7 H 0.0210 0.4088 0.8229
H11_7 H 0.0623 0.4463 0.7841
H12_7 H 0.0603 0.3772 0.7782
O10_7 O 0.23680(16) 0.42366(16) 0.67911(15)
O11_7 O 0.23680(16) 0.57634(16) 0.82089(15)
O12_7 O 0.1688(2) 0.54515(19) 0.64571(18)
O13_7 O 0.1688(2) 0.45485(19) 0.85429(18)
Zn1_4 Zn 0.66990(2) 0.58010(2) 0.6250
S1_7 S 0.93476(8) 0.57555(9) 0.84253(8)
S2_7 S 0.82235(8) 0.57723(8) 0.76616(8)
C1_7 C 0.8998(3) 0.5849(3) 0.6812(4)
C2_7 C 0.9984(4) 0.5838(3) 0.7465(3)
O1_4 O 0.73680(16) 0.57634(16) 0.67911(15)
O2_7 O 0.79515(19) 0.5812(2) 0.60429(18)
C3_7 C 0.9324(3) 0.5823(3) 0.7339(3)
C4_7 C 0.8395(3) 0.5813(2) 0.6942(3)
C6_7 C 0.8980(3) 0.5789(3) 0.7807(3)
C7_7 C 0.7871(3) 0.5800(2) 0.6554(2)
C9_7 C 0.9199(3) 0.5895(3) 0.6354(4)
H1_7 H 0.9624 0.5907 0.6374
H2_7 H 0.9057 0.6254 0.6187
H3_7 H 0.9078 0.5562 0.6133
S3_7 S 0.93476(8) 0.42445(9) 0.65747(8)
S4_7 S 0.82235(8) 0.42277(8) 0.73384(8)
C11_7 C 0.8998(3) 0.4151(3) 0.8188(4)
C12_7 C 0.9984(4) 0.4162(3) 0.7535(3)
O5_6 O 0.73680(16) 0.42366(16) 0.82089(15)
O6_7 O 0.79515(19) 0.4188(2) 0.89571(18)
C13_7 C 0.9324(3) 0.4177(3) 0.7661(3)
C14_7 C 0.8395(3) 0.4187(2) 0.8058(3)
C16_7 C 0.8980(3) 0.4211(3) 0.7193(3)
C17_7 C 0.7871(3) 0.4200(2) 0.8446(2)
C19_7 C 0.9199(3) 0.4105(3) 0.8646(4)
H7_7 H 0.9624 0.4093 0.8626
H8_7 H 0.9057 0.3746 0.8813
H9_7 H 0.9078 0.4438 0.8867
O9_5 O 0.67366(16) 0.51320(16) 0.57089(15)
O14_5 O 0.67269(16) 0.64444(18) 0.56866(17)
O15_5 O 0.60556(18) 0.57731(16) 0.68134(17)
O14_6 O 0.32731(16) 0.85556(18) 0.56866(17)
O15_6 O 0.39444(18) 0.92269(16) 0.68134(17)
O14_7 O 0.67269(16) 0.35556(18) 0.93134(17)
O15_7 O 0.60556(18) 0.42269(16) 0.81866(17)
O9_6 O 0.82634(16) 0.51320(16) 0.42911(15)
O14_8 O 0.82731(16) 0.64444(18) 0.43134(17)
O15_8 O 0.89444(18) 0.57731(16) 0.31866(17)
S1_8 S 0.67445(9) 0.31524(8) 0.40747(8)
S2_8 S 0.67277(8) 0.42765(8) 0.48384(8)
C1_8 C 0.6651(3) 0.3502(3) 0.5688(4)
C2_8 C 0.6662(3) 0.2516(4) 0.5035(3)
O2_8 O 0.6688(2) 0.45485(19) 0.64571(18)
O3_8 O 0.67269(16) 0.14444(18) 0.43134(17)
C3_8 C 0.6677(3) 0.3176(3) 0.5161(3)
C4_8 C 0.6687(2) 0.4105(3) 0.5558(3)
C5_8 C 0.6711(2) 0.2482(3) 0.4452(2)
C6_8 C 0.6711(3) 0.3520(3) 0.4693(3)
C7_8 C 0.6700(2) 0.4629(3) 0.5946(2)
O4_8 O 0.6748(3) 0.2020(2) 0.35795(19)
C8_8 C 0.6727(3) 0.1940(3) 0.4092(3)
C9_8 C 0.6605(3) 0.3301(3) 0.6146(4)
H1_8 H 0.6593 0.2876 0.6126
H2_8 H 0.6246 0.3443 0.6313
H3_8 H 0.6938 0.3422 0.6367
C10_8 C 0.6619(3) 0.2127(3) 0.5362(3)
H4_8 H 0.6588 0.2290 0.5729
H5_8 H 0.6963 0.1877 0.5341
H6_8 H 0.6272 0.1897 0.5282
K1_12 K 0.7500 0.07491(9) 0.5000
S3_8 S 0.82555(9) 0.31524(8) 0.59253(8)
S4_8 S 0.82723(8) 0.42765(8) 0.51616(8)
C11_8 C 0.8349(3) 0.3502(3) 0.4312(4)
C12_8 C 0.8338(3) 0.2516(4) 0.4965(3)
O6_8 O 0.8312(2) 0.45485(19) 0.35429(18)
O7_8 O 0.82731(16) 0.14444(18) 0.56866(17)
C13_8 C 0.8323(3) 0.3176(3) 0.4839(3)
C14_8 C 0.8313(2) 0.4105(3) 0.4442(3)
C15_8 C 0.8289(2) 0.2482(3) 0.5548(2)
C16_8 C 0.8289(3) 0.3520(3) 0.5307(3)
C17_8 C 0.8300(2) 0.4629(3) 0.4054(2)
O8_8 O 0.8252(3) 0.2020(2) 0.64205(19)
C18_8 C 0.8273(3) 0.1940(3) 0.5908(3)
C19_8 C 0.8395(3) 0.3301(3) 0.3854(4)
H7_8 H 0.8407 0.2876 0.3874
H8_8 H 0.8754 0.3443 0.3687
H9_8 H 0.8062 0.3422 0.3633
C20_8 C 0.8381(3) 0.2127(3) 0.4638(3)
H10_8 H 0.8412 0.2290 0.4271
H11_8 H 0.8037 0.1877 0.4659
H12_8 H 0.8728 0.1897 0.4718
O10_8 O 0.82634(16) 0.01320(16) 0.57089(15)
O11_8 O 0.67366(16) 0.01320(16) 0.42911(15)
O12_8 O 0.70485(19) 0.0812(2) 0.60429(18)
O13_8 O 0.79515(19) 0.0812(2) 0.39571(18)
S3_9 S 0.56524(8) 0.07555(9) 0.84253(8)
S4_9 S 0.67765(8) 0.07723(8) 0.76616(8)
C11_9 C 0.6002(3) 0.0849(3) 0.6812(4)
C12_9 C 0.5016(4) 0.0838(3) 0.7465(3)
C13_9 C 0.5676(3) 0.0823(3) 0.7339(3)
C14_9 C 0.6605(3) 0.0813(2) 0.6942(3)
C15_9 C 0.4982(3) 0.0789(2) 0.8048(2)
C16_9 C 0.6020(3) 0.0789(3) 0.7807(3)
C17_9 C 0.7129(3) 0.0800(2) 0.6554(2)
O8_9 O 0.4520(2) 0.0752(3) 0.89205(19)
C18_9 C 0.4440(3) 0.0773(3) 0.8408(3)
C19_9 C 0.5801(3) 0.0895(3) 0.6354(4)
H7_9 H 0.5376 0.0907 0.6374
H8_9 H 0.5943 0.1254 0.6187
H9_9 H 0.5922 0.0562 0.6133
C20_9 C 0.4627(3) 0.0881(3) 0.7138(3)
H10_9 H 0.4790 0.0912 0.6771
H11_9 H 0.4377 0.0537 0.7159
H12_9 H 0.4397 0.1228 0.7218
S1_9 S 0.56524(8) 0.92445(9) 0.65747(8)
S2_9 S 0.67765(8) 0.92277(8) 0.73384(8)
C1_9 C 0.6002(3) 0.9151(3) 0.8188(4)
C2_9 C 0.5016(4) 0.9162(3) 0.7535(3)
C3_9 C 0.5676(3) 0.9177(3) 0.7661(3)
C4_9 C 0.6605(3) 0.9187(2) 0.8058(3)
C5_9 C 0.4982(3) 0.9211(2) 0.6952(2)
C6_9 C 0.6020(3) 0.9211(3) 0.7193(3)
C7_9 C 0.7129(3) 0.9200(2) 0.8446(2)
O4_9 O 0.4520(2) 0.9248(3) 0.60795(19)
C8_9 C 0.4440(3) 0.9227(3) 0.6592(3)
C9_9 C 0.5801(3) 0.9105(3) 0.8646(4)
H1_9 H 0.5376 0.9093 0.8626
H2_9 H 0.5943 0.8746 0.8813
H3_9 H 0.5922 0.9438 0.8867
C10_9 C 0.4627(3) 0.9119(3) 0.7862(3)
H4_9 H 0.4790 0.9088 0.8229
H5_9 H 0.4377 0.9463 0.7841
H6_9 H 0.4397 0.8772 0.7782
S1_10 S 0.43476(8) 0.57555(9) 0.65747(8)
S2_10 S 0.32235(8) 0.57723(8) 0.73384(8)
C1_10 C 0.3998(3) 0.5849(3) 0.8188(4)
C2_10 C 0.4984(4) 0.5838(3) 0.7535(3)
C3_10 C 0.4324(3) 0.5823(3) 0.7661(3)
C4_10 C 0.3395(3) 0.5813(2) 0.8058(3)
C5_10 C 0.5018(3) 0.5789(2) 0.6952(2)
C6_10 C 0.3980(3) 0.5789(3) 0.7193(3)
C7_10 C 0.2871(3) 0.5800(2) 0.8446(2)
O4_10 O 0.5480(2) 0.5752(3) 0.60795(19)
C8_10 C 0.5560(3) 0.5773(3) 0.6592(3)
C9_10 C 0.4199(3) 0.5895(3) 0.8646(4)
H1_10 H 0.4624 0.5907 0.8626
H2_10 H 0.4057 0.6254 0.8813
H3_10 H 0.4078 0.5562 0.8867
C10_10 C 0.5373(3) 0.5881(3) 0.7862(3)
H4_10 H 0.5210 0.5912 0.8229
H5_10 H 0.5623 0.5537 0.7841
H6_10 H 0.5603 0.6228 0.7782
S3_10 S 0.43476(8) 0.42445(9) 0.84253(8)
S4_10 S 0.32235(8) 0.42277(8) 0.76616(8)
C11_10 C 0.3998(3) 0.4151(3) 0.6812(4)
C12_10 C 0.4984(4) 0.4162(3) 0.7465(3)
C13_10 C 0.4324(3) 0.4177(3) 0.7339(3)
C14_10 C 0.3395(3) 0.4187(2) 0.6942(3)
C15_10 C 0.5018(3) 0.4211(2) 0.8048(2)
C16_10 C 0.3980(3) 0.4211(3) 0.7807(3)
C17_10 C 0.2871(3) 0.4200(2) 0.6554(2)
O8_10 O 0.5480(2) 0.4248(3) 0.89205(19)
C18_10 C 0.5560(3) 0.4227(3) 0.8408(3)
C19_10 C 0.4199(3) 0.4105(3) 0.6354(4)
H7_10 H 0.4624 0.4093 0.6374
H8_10 H 0.4057 0.3746 0.6187
H9_10 H 0.4078 0.4438 0.6133
C20_10 C 0.5373(3) 0.4119(3) 0.7138(3)
H10_10 H 0.5210 0.4088 0.6771
H11_10 H 0.5623 0.4463 0.7159
H12_10 H 0.5603 0.3772 0.7218
C15_11 C 0.0018(3) 0.0789(2) 0.1952(2)
O8_11 O 0.0480(2) 0.0752(3) 0.10795(19)
C18_11 C 0.0560(3) 0.0773(3) 0.1592(3)
C20_11 C 0.0373(3) 0.0881(3) 0.2862(3)
H10_11 H 0.0210 0.0912 0.3229
H11_11 H 0.0623 0.0537 0.2841
H12_11 H 0.0603 0.1228 0.2782
C5_11 C 0.0018(3) 0.9211(2) 0.3048(2)
O4_11 O 0.0480(2) 0.9248(3) 0.39205(19)
C8_11 C 0.0560(3) 0.9227(3) 0.3408(3)
C10_11 C 0.0373(3) 0.9119(3) 0.2138(3)
H4_11 H 0.0210 0.9088 0.1771
H5_11 H 0.0623 0.9463 0.2159
H6_11 H 0.0603 0.8772 0.2218
S3_11 S 0.93476(8) 0.07555(9) 0.15747(8)
S4_11 S 0.82235(8) 0.07723(8) 0.23384(8)
C11_11 C 0.8998(3) 0.0849(3) 0.3188(4)
C12_11 C 0.9984(4) 0.0838(3) 0.2535(3)
C13_11 C 0.9324(3) 0.0823(3) 0.2661(3)
C14_11 C 0.8395(3) 0.0813(2) 0.3058(3)
C16_11 C 0.8980(3) 0.0789(3) 0.2193(3)
C17_11 C 0.7871(3) 0.0800(2) 0.3446(2)
C19_11 C 0.9199(3) 0.0895(3) 0.3646(4)
H7_11 H 0.9624 0.0907 0.3626
H8_11 H 0.9057 0.1254 0.3813
H9_11 H 0.9078 0.0562 0.3867
S1_11 S 0.93476(8) 0.92445(9) 0.34253(8)
S2_11 S 0.82235(8) 0.92277(8) 0.26616(8)
C1_11 C 0.8998(3) 0.9151(3) 0.1812(4)
C2_11 C 0.9984(4) 0.9162(3) 0.2465(3)
C3_11 C 0.9324(3) 0.9177(3) 0.2339(3)
C4_11 C 0.8395(3) 0.9187(2) 0.1942(3)
C6_11 C 0.8980(3) 0.9211(3) 0.2807(3)
C7_11 C 0.7871(3) 0.9200(2) 0.1554(2)
C9_11 C 0.9199(3) 0.9105(3) 0.1354(4)
H1_11 H 0.9624 0.9093 0.1374
H2_11 H 0.9057 0.8746 0.1187
H3_11 H 0.9078 0.9438 0.1133
S1_12 S 0.82555(9) 0.18476(8) 0.09253(8)
S2_12 S 0.82723(8) 0.07235(8) 0.01616(8)
C5_12 C 0.8289(2) 0.2518(3) 0.0548(2)
C6_12 C 0.8289(3) 0.1480(3) 0.0307(3)
O4_12 O 0.8252(3) 0.2980(2) 0.14205(19)
C8_12 C 0.8273(3) 0.3060(3) 0.0908(3)
C11_12 C 0.6651(3) 0.1498(3) 0.0688(4)
C12_12 C 0.6662(3) 0.2484(4) 0.0035(3)
C13_12 C 0.6677(3) 0.1824(3) 0.0161(3)
C14_12 C 0.6687(2) 0.0895(3) 0.0558(3)
C17_12 C 0.6700(2) 0.0371(3) 0.0946(2)
C19_12 C 0.6605(3) 0.1699(3) 0.1146(4)
H7_12 H 0.6593 0.2124 0.1126
H8_12 H 0.6246 0.1557 0.1313
H9_12 H 0.6938 0.1578 0.1367
C20_12 C 0.6619(3) 0.2873(3) 0.0362(3)
H10_12 H 0.6588 0.2710 0.0729
H11_12 H 0.6963 0.3123 0.0341
H12_12 H 0.6272 0.3103 0.0282
C1_12 C 0.8349(3) 0.1498(3) 0.9312(4)
C2_12 C 0.8338(3) 0.2484(4) 0.9965(3)
C3_12 C 0.8323(3) 0.1824(3) 0.9839(3)
C4_12 C 0.8313(2) 0.0895(3) 0.9442(3)
C7_12 C 0.8300(2) 0.0371(3) 0.9054(2)
C9_12 C 0.8395(3) 0.1699(3) 0.8854(4)
H1_12 H 0.8407 0.2124 0.8874
H2_12 H 0.8754 0.1557 0.8687
H3_12 H 0.8062 0.1578 0.8633
C10_12 C 0.8381(3) 0.2873(3) 0.9638(3)
H4_12 H 0.8412 0.2710 0.9271
H5_12 H 0.8037 0.3123 0.9659
H6_12 H 0.8728 0.3103 0.9718
S3_12 S 0.67445(9) 0.18476(8) 0.90747(8)
S4_12 S 0.67277(8) 0.07235(8) 0.98384(8)
C15_12 C 0.6711(2) 0.2518(3) 0.9452(2)
C16_12 C 0.6711(3) 0.1480(3) 0.9693(3)
O8_12 O 0.6748(3) 0.2980(2) 0.85795(19)
C18_12 C 0.6727(3) 0.3060(3) 0.9092(3)
S1_13 S 0.17445(9) 0.31524(8) 0.09253(8)
S2_13 S 0.17277(8) 0.42765(8) 0.01616(8)
C5_13 C 0.1711(2) 0.2482(3) 0.0548(2)
C6_13 C 0.1711(3) 0.3520(3) 0.0307(3)
O4_13 O 0.1748(3) 0.2020(2) 0.14205(19)
C8_13 C 0.1727(3) 0.1940(3) 0.0908(3)
C11_13 C 0.3349(3) 0.3502(3) 0.0688(4)
C12_13 C 0.3338(3) 0.2516(4) 0.0035(3)
C13_13 C 0.3323(3) 0.3176(3) 0.0161(3)
C14_13 C 0.3313(2) 0.4105(3) 0.0558(3)
C17_13 C 0.3300(2) 0.4629(3) 0.0946(2)
C19_13 C 0.3395(3) 0.3301(3) 0.1146(4)
H7_13 H 0.3407 0.2876 0.1126
H8_13 H 0.3754 0.3443 0.1313
H9_13 H 0.3062 0.3422 0.1367
C20_13 C 0.3381(3) 0.2127(3) 0.0362(3)
H10_13 H 0.3412 0.2290 0.0729
H11_13 H 0.3037 0.1877 0.0341
H12_13 H 0.3728 0.1897 0.0282
C1_13 C 0.1651(3) 0.3502(3) 0.9312(4)
C2_13 C 0.1662(3) 0.2516(4) 0.9965(3)
C3_13 C 0.1677(3) 0.3176(3) 0.9839(3)
C4_13 C 0.1687(2) 0.4105(3) 0.9442(3)
C7_13 C 0.1700(2) 0.4629(3) 0.9054(2)
C9_13 C 0.1605(3) 0.3301(3) 0.8854(4)
H1_13 H 0.1593 0.2876 0.8874
H2_13 H 0.1246 0.3443 0.8687
H3_13 H 0.1938 0.3422 0.8633
C10_13 C 0.1619(3) 0.2127(3) 0.9638(3)
H4_13 H 0.1588 0.2290 0.9271
H5_13 H 0.1963 0.1877 0.9659
H6_13 H 0.1272 0.1897 0.9718
S3_13 S 0.32555(9) 0.31524(8) 0.90747(8)
S4_13 S 0.32723(8) 0.42765(8) 0.98384(8)
C15_13 C 0.3289(2) 0.2482(3) 0.9452(2)
C16_13 C 0.3289(3) 0.3520(3) 0.9693(3)
O8_13 O 0.3252(3) 0.2020(2) 0.85795(19)
C18_13 C 0.3273(3) 0.1940(3) 0.9092(3)
S1_14 S 0.82555(9) 0.81524(8) 0.40747(8)
S2_14 S 0.82723(8) 0.92765(8) 0.48384(8)
C1_14 C 0.8349(3) 0.8502(3) 0.5688(4)
C2_14 C 0.8338(3) 0.7516(4) 0.5035(3)
C3_14 C 0.8323(3) 0.8176(3) 0.5161(3)
C4_14 C 0.8313(2) 0.9105(3) 0.5558(3)
C5_14 C 0.8289(2) 0.7482(3) 0.4452(2)
C6_14 C 0.8289(3) 0.8520(3) 0.4693(3)
C7_14 C 0.8300(2) 0.9629(3) 0.5946(2)
O4_14 O 0.8252(3) 0.7020(2) 0.35795(19)
C8_14 C 0.8273(3) 0.6940(3) 0.4092(3)
C9_14 C 0.8395(3) 0.8301(3) 0.6146(4)
H1_14 H 0.8407 0.7876 0.6126
H2_14 H 0.8754 0.8443 0.6313
H3_14 H 0.8062 0.8422 0.6367
C10_14 C 0.8381(3) 0.7127(3) 0.5362(3)
H4_14 H 0.8412 0.7290 0.5729
H5_14 H 0.8037 0.6877 0.5341
H6_14 H 0.8728 0.6897 0.5282
S3_14 S 0.67445(9) 0.81524(8) 0.59253(8)
S4_14 S 0.67277(8) 0.92765(8) 0.51616(8)
C11_14 C 0.6651(3) 0.8502(3) 0.4312(4)
C12_14 C 0.6662(3) 0.7516(4) 0.4965(3)
C13_14 C 0.6677(3) 0.8176(3) 0.4839(3)
C14_14 C 0.6687(2) 0.9105(3) 0.4442(3)
C15_14 C 0.6711(2) 0.7482(3) 0.5548(2)
C16_14 C 0.6711(3) 0.8520(3) 0.5307(3)
C17_14 C 0.6700(2) 0.9629(3) 0.4054(2)
O8_14 O 0.6748(3) 0.7020(2) 0.64205(19)
C18_14 C 0.6727(3) 0.6940(3) 0.5908(3)
C19_14 C 0.6605(3) 0.8301(3) 0.3854(4)
H7_14 H 0.6593 0.7876 0.3874
H8_14 H 0.6246 0.8443 0.3687
H9_14 H 0.6938 0.8422 0.3633
C20_14 C 0.6619(3) 0.7127(3) 0.4638(3)
H10_14 H 0.6588 0.7290 0.4271
H11_14 H 0.6963 0.6877 0.4659
H12_14 H 0.6272 0.6897 0.4718
S1_15 S 0.06524(8) 0.42445(9) 0.15747(8)
S2_15 S 0.17765(8) 0.42277(8) 0.23384(8)
C1_15 C 0.1002(3) 0.4151(3) 0.3188(4)
C2_15 C 0.0016(4) 0.4162(3) 0.2535(3)
C3_15 C 0.0676(3) 0.4177(3) 0.2661(3)
C4_15 C 0.1605(3) 0.4187(2) 0.3058(3)
C6_15 C 0.1020(3) 0.4211(3) 0.2193(3)
C7_15 C 0.2129(3) 0.4200(2) 0.3446(2)
C9_15 C 0.0801(3) 0.4105(3) 0.3646(4)
H1_15 H 0.0376 0.4093 0.3626
H2_15 H 0.0943 0.3746 0.3813
H3_15 H 0.0922 0.4438 0.3867
S3_15 S 0.06524(8) 0.57555(9) 0.34253(8)
S4_15 S 0.17765(8) 0.57723(8) 0.26616(8)
C11_15 C 0.1002(3) 0.5849(3) 0.1812(4)
C12_15 C 0.0016(4) 0.5838(3) 0.2465(3)
C13_15 C 0.0676(3) 0.5823(3) 0.2339(3)
C14_15 C 0.1605(3) 0.5813(2) 0.1942(3)
C16_15 C 0.1020(3) 0.5789(3) 0.2807(3)
C17_15 C 0.2129(3) 0.5800(2) 0.1554(2)
C19_15 C 0.0801(3) 0.5895(3) 0.1354(4)
H7_15 H 0.0376 0.5907 0.1374
H8_15 H 0.0943 0.6254 0.1187
H9_15 H 0.0922 0.5562 0.1133
C5_15 C 0.9982(3) 0.4211(2) 0.1952(2)
O4_15 O 0.9520(2) 0.4248(3) 0.10795(19)
C8_15 C 0.9440(3) 0.4227(3) 0.1592(3)
C10_15 C 0.9627(3) 0.4119(3) 0.2862(3)
H4_15 H 0.9790 0.4088 0.3229
H5_15 H 0.9377 0.4463 0.2841
H6_15 H 0.9397 0.3772 0.2782
C15_15 C 0.9982(3) 0.5789(2) 0.3048(2)
O8_15 O 0.9520(2) 0.5752(3) 0.39205(19)
C18_15 C 0.9440(3) 0.5773(3) 0.3408(3)
C20_15 C 0.9627(3) 0.5881(3) 0.2138(3)
H10_15 H 0.9790 0.5912 0.1771
H11_15 H 0.9377 0.5537 0.2159
H12_15 H 0.9397 0.6228 0.2218
S1_16 S 0.32555(9) 0.68476(8) 0.59253(8)
S2_16 S 0.32723(8) 0.57235(8) 0.51616(8)
C1_16 C 0.3349(3) 0.6498(3) 0.4312(4)
C2_16 C 0.3338(3) 0.7484(4) 0.4965(3)
C3_16 C 0.3323(3) 0.6824(3) 0.4839(3)
C4_16 C 0.3313(2) 0.5895(3) 0.4442(3)
C5_16 C 0.3289(2) 0.7518(3) 0.5548(2)
C6_16 C 0.3289(3) 0.6480(3) 0.5307(3)
C7_16 C 0.3300(2) 0.5371(3) 0.4054(2)
O4_16 O 0.3252(3) 0.7980(2) 0.64205(19)
C8_16 C 0.3273(3) 0.8060(3) 0.5908(3)
C9_16 C 0.3395(3) 0.6699(3) 0.3854(4)
H1_16 H 0.3407 0.7124 0.3874
H2_16 H 0.3754 0.6557 0.3687
H3_16 H 0.3062 0.6578 0.3633
C10_16 C 0.3381(3) 0.7873(3) 0.4638(3)
H4_16 H 0.3412 0.7710 0.4271
H5_16 H 0.3037 0.8123 0.4659
H6_16 H 0.3728 0.8103 0.4718
S3_16 S 0.17445(9) 0.68476(8) 0.40747(8)
S4_16 S 0.17277(8) 0.57235(8) 0.48384(8)
C11_16 C 0.1651(3) 0.6498(3) 0.5688(4)
C12_16 C 0.1662(3) 0.7484(4) 0.5035(3)
C13_16 C 0.1677(3) 0.6824(3) 0.5161(3)
C14_16 C 0.1687(2) 0.5895(3) 0.5558(3)
C15_16 C 0.1711(2) 0.7518(3) 0.4452(2)
C16_16 C 0.1711(3) 0.6480(3) 0.4693(3)
C17_16 C 0.1700(2) 0.5371(3) 0.5946(2)
O8_16 O 0.1748(3) 0.7980(2) 0.35795(19)
C18_16 C 0.1727(3) 0.8060(3) 0.4092(3)
C19_16 C 0.1605(3) 0.6699(3) 0.6146(4)
H7_16 H 0.1593 0.7124 0.6126
H8_16 H 0.1246 0.6557 0.6313
H9_16 H 0.1938 0.6578 0.6367
C20_16 C 0.1619(3) 0.7873(3) 0.5362(3)
H10_16 H 0.1588 0.7710 0.5729
H11_16 H 0.1963 0.8123 0.5341
H12_16 H 0.1272 0.8103 0.5282
loop_
_geom_bond_atom_site_label_1
_geom_bond_atom_site_label_2
_geom_bond_site_symmetry_1
_geom_bond_site_symmetry_2
Zn1 O1 1_555 1_555
S1 C5 1_555 1_555
S2 C4 1_555 1_555
C1 C3 1_555 1_555
C2 C3 1_555 1_555
O1 C7 1_555 1_555
O2 C7 1_555 1_555
O3 C8 1_555 1_555
C3 C6 1_555 1_555
C4 C1 1_555 1_555
C5 C2 1_555 1_555
C6 S1 1_555 1_555
C7 C4 1_555 1_555
O4 C8 1_555 1_555
C8 C5 1_555 1_555
C9 C1 1_555 1_555
H1 C9 1_555 1_555
H2 C9 1_555 1_555
H3 C9 1_555 1_555
C10 C2 1_555 1_555
H4 C10 1_555 1_555
H5 C10 1_555 1_555
H6 C10 1_555 1_555
K1 O3 1_555 1_555
Zn4 O3 1_555 1_555
O9 Zn1 1_555 1_555
O11 K1 1_555 1_555
O12 K1 1_555 1_555
O14 Zn1 1_555 1_555
O15 Zn1 1_555 1_555
K2 O1 1_555 1_555
K3 O2 1_555 1_555
S2 C6 1_555 1_555
Zn4 O11 1_555 1_555
O9 K3 1_555 1_555
O14 K3 1_555 1_555
O15 K2 1_555 1_555
S3 C15 1_555 1_555
S4 C14 1_555 1_555
C11 C13 1_555 1_555
C12 C13 1_555 1_555
O5 C17 1_555 1_555
O6 C17 1_555 1_555
O7 K1_2 1_555 1_555
C13 C16 1_555 1_555
C14 C11 1_555 1_555
C15 C12 1_555 1_555
C16 S3 1_555 1_555
C17 C14 1_555 1_555
O8 C18 1_555 1_555
C18 O7 1_555 1_555
C19 C11 1_555 1_555
H7 C19 1_555 1_555
H8 C19 1_555 1_555
H9 C19 1_555 1_555
C20 C12 1_555 1_555
H10 C20 1_555 1_555
H11 C20 1_555 1_555
H12 C20 1_555 1_555
Zn2 O5 1_555 1_555
Zn3 O7 1_555 1_555
O10 K1_2 1_555 1_555
O13 K1_2 1_555 1_555
K4 O6 1_555 1_555
S4 C16 1_555 1_555
O5 K2_2 1_555 1_555
C15 C18 1_555 1_555
Zn3 O10 1_555 1_555
Zn1_2 O1_2 1_555 1_555
S1_2 C5_2 1_555 1_555
S2_2 C4_2 1_555 1_555
C1_2 C3_2 1_555 1_555
C2_2 C3_2 1_555 1_555
O1_2 C7_2 1_555 1_555
O2_2 C7_2 1_555 1_555
O3_2 C8_2 1_555 1_555
C3_2 C6_2 1_555 1_555
C4_2 C1_2 1_555 1_555
C5_2 C2_2 1_555 1_555
C6_2 S1_2 1_555 1_555
C7_2 C4_2 1_555 1_555
O4_2 C8_2 1_555 1_555
C8_2 C5_2 1_555 1_555
C9_2 C1_2 1_555 1_555
H1_2 C9_2 1_555 1_555
H2_2 C9_2 1_555 1_555
H3_2 C9_2 1_555 1_555
C10_2 C2_2 1_555 1_555
H4_2 C10_2 1_555 1_555
H5_2 C10_2 1_555 1_555
H6_2 C10_2 1_555 1_555
K1_3 O3_2 1_555 1_555
S3_2 C15_2 1_555 1_555
S4_2 C14_2 1_555 1_555
C11_2 C13_2 1_555 1_555
C12_2 C13_2 1_555 1_555
O5_2 C17_2 1_555 1_555
O6_2 C17_2 1_555 1_555
O7_2 K1_3 1_555 1_555
C13_2 C16_2 1_555 1_555
C14_2 C11_2 1_555 1_555
C15_2 C12_2 1_555 1_555
C16_2 S3_2 1_555 1_555
C17_2 C14_2 1_555 1_555
O8_2 C18_2 1_555 1_555
C18_2 O7_2 1_555 1_555
C19_2 C11_2 1_555 1_555
H7_2 C19_2 1_555 1_555
H8_2 C19_2 1_555 1_555
H9_2 C19_2 1_555 1_555
C20_2 C12_2 1_555 1_555
H10_2 C20_2 1_555 1_555
H11_2 C20_2 1_555 1_555
H12_2 C20_2 1_555 1_555
Zn2_2 O5_2 1_555 1_555
Zn3_2 O7_2 1_555 1_555
Zn4_2 O3_2 1_555 1_555
O9_2 Zn1_2 1_555 1_555
O10_2 K1_3 1_555 1_555
O11_2 K1_3 1_555 1_555
O12_2 K1_3 1_555 1_555
O13_2 K1_3 1_555 1_555
O14_2 Zn1_2 1_555 1_555
O15_2 Zn1_2 1_555 1_555
K2_3 O1_2 1_555 1_555
K3_3 O2_2 1_555 1_555
K4_2 O6_2 1_555 1_555
S2_2 C6_2 1_555 1_555
S4_2 C16_2 1_555 1_555
O5_2 K2_3 1_555 1_555
C15_2 C18_2 1_555 1_555
Zn3_2 O10_2 1_555 1_555
Zn4_2 O11_2 1_555 1_555
O9_2 K3_3 1_555 1_555
O14_2 K3_3 1_555 1_555
O15_2 K2_3 1_555 1_555
O9_3 Zn2 1_555 1_555
O14_3 Zn2 1_555 1_555
O15_3 Zn2 1_555 1_555
O9_3 K4 1_555 1_555
O14_3 K4 1_555 1_555
O15_3 K2_2 1_555 1_555
Zn1_3 O1_3 1_555 1_555
S2_3 C4_3 1_555 1_555
C1_3 C3_3 1_555 1_555
C2_3 C3_3 1_555 1_555
O1_3 C7_3 1_555 1_555
O2_3 C7_3 1_555 1_555
C3_3 C6_3 1_555 1_555
C4_3 C1_3 1_555 1_555
C6_3 S1_3 1_555 1_555
C7_3 C4_3 1_555 1_555
C9_3 C1_3 1_555 1_555
H1_3 C9_3 1_555 1_555
H2_3 C9_3 1_555 1_555
H3_3 C9_3 1_555 1_555
O9_4 Zn1_3 1_555 1_555
O14_4 Zn1_3 1_555 1_555
O15_4 Zn1_3 1_555 1_555
K2_4 O1_3 1_555 1_555
K3_2 O2_3 1_555 1_555
S2_3 C6_3 1_555 1_555
O9_4 K3_2 1_555 1_555
O14_4 K3_2 1_555 1_555
O15_4 K2_4 1_555 1_555
S4_3 C14_3 1_555 1_555
C11_3 C13_3 1_555 1_555
C12_3 C13_3 1_555 1_555
O5_3 C17_3 1_555 1_555
O6_3 C17_3 1_555 1_555
C13_3 C16_3 1_555 1_555
C14_3 C11_3 1_555 1_555
C16_3 S3_3 1_555 1_555
C17_3 C14_3 1_555 1_555
C19_3 C11_3 1_555 1_555
H7_3 C19_3 1_555 1_555
H8_3 C19_3 1_555 1_555
H9_3 C19_3 1_555 1_555
Zn2_3 O5_3 1_555 1_555
K4 O6_3 1_555 1_555
S4_3 C16_3 1_555 1_555
O5_3 K2_5 1_555 1_555
O3_3 C8_3 1_555 1_555
O4_3 C8_3 1_555 1_555
C8_3 C5_3 1_555 1_555
H4_3 C10_3 1_555 1_555
H5_3 C10_3 1_555 1_555
H6_3 C10_3 1_555 1_555
K1_4 O3_3 1_555 1_555
Zn4_3 O3_3 1_555 1_555
O11_3 K1_4 1_555 1_555
O12_3 K1_4 1_555 1_555
Zn4_3 O11_3 1_555 1_555
O7_3 K1_5 1_555 1_555
O8_3 C18_3 1_555 1_555
C18_3 O7_3 1_555 1_555
H10_3 C20_3 1_555 1_555
H11_3 C20_3 1_555 1_555
H12_3 C20_3 1_555 1_555
Zn3_3 O7_3 1_555 1_555
O10_3 K1_5 1_555 1_555
O13_3 K1_5 1_555 1_555
C15_3 C18_3 1_555 1_555
Zn3_3 O10_3 1_555 1_555
C1_4 C3_4 1_555 1_555
C2_4 C3_4 1_555 1_555
O2_4 C7_4 1_555 1_555
C4_4 C1_4 1_555 1_555
C7_4 C4_4 1_555 1_555
C9_4 C1_4 1_555 1_555
H1_4 C9_4 1_555 1_555
H2_4 C9_4 1_555 1_555
H3_4 C9_4 1_555 1_555
C10_4 C2_4 1_555 1_555
H4_4 C10_4 1_555 1_555
H5_4 C10_4 1_555 1_555
H6_4 C10_4 1_555 1_555
S3_4 C15_4 1_555 1_555
O7_4 K1_6 1_555 1_555
C16_4 S3_4 1_555 1_555
O8_4 C18_4 1_555 1_555
C18_4 O7_4 1_555 1_555
Zn3_2 O7_4 1_555 1_555
O10_4 K1_6 1_555 1_555
O12_4 K1_6 1_555 1_555
K2_2 O2_4 1_555 1_555
S4_4 C16_4 1_555 1_555
C15_4 C18_4 1_555 1_555
Zn3_2 O10_4 1_555 1_555
S1_4 C5_4 1_555 1_555
O3_4 C8_4 1_555 1_555
C6_4 S1_4 1_555 1_555
O4_4 C8_4 1_555 1_555
C8_4 C5_4 1_555 1_555
K1_7 O3_4 1_555 1_555
C11_4 C13_4 1_555 1_555
C12_4 C13_4 1_555 1_555
O6_4 C17_4 1_555 1_555
C14_4 C11_4 1_555 1_555
C17_4 C14_4 1_555 1_555
C19_4 C11_4 1_555 1_555
H7_4 C19_4 1_555 1_555
H8_4 C19_4 1_555 1_555
H9_4 C19_4 1_555 1_555
C20_4 C12_4 1_555 1_555
H10_4 C20_4 1_555 1_555
H11_4 C20_4 1_555 1_555
H12_4 C20_4 1_555 1_555
Zn4_4 O3_4 1_555 1_555
O11_4 K1_7 1_555 1_555
O13_4 K1_7 1_555 1_555
K2_5 O6_4 1_555 1_555
S2_4 C6_4 1_555 1_555
Zn4_4 O11_4 1_555 1_555
C1_5 C3_5 1_555 1_555
C2_5 C3_5 1_555 1_555
O9_2 C7_5 1_555 1_555
O2_5 C7_5 1_555 1_555
C4_5 C1_5 1_555 1_555
C7_5 C4_5 1_555 1_555
C9_5 C1_5 1_555 1_555
H1_5 C9_5 1_555 1_555
H2_5 C9_5 1_555 1_555
H3_5 C9_5 1_555 1_555
C10_5 C2_5 1_555 1_555
H4_5 C10_5 1_555 1_555
H5_5 C10_5 1_555 1_555
H6_5 C10_5 1_555 1_555
S3_5 C15_5 1_555 1_555
O7_5 K1_8 1_555 1_555
C16_5 S3_5 1_555 1_555
O8_5 C18_5 1_555 1_555
C18_5 O7_5 1_555 1_555
Zn3 O7_5 1_555 1_555
O10_5 K1_8 1_555 1_555
O12_5 K1_8 1_555 1_555
K2_3 O2_5 1_555 1_555
S4_5 C16_5 1_555 1_555
C15_5 C18_5 1_555 1_555
Zn3 O10_5 1_555 1_555
S1_5 C5_5 1_555 1_555
O3_5 C8_5 1_555 1_555
C6_5 S1_5 1_555 1_555
O4_5 C8_5 1_555 1_555
C8_5 C5_5 1_555 1_555
K1_9 O3_5 1_555 1_555
C11_5 C13_5 1_555 1_555
C12_5 C13_5 1_555 1_555
O5_4 C17_5 1_555 1_555
O6_5 C17_5 1_555 1_555
C14_5 C11_5 1_555 1_555
C17_5 C14_5 1_555 1_555
C19_5 C11_5 1_555 1_555
H7_5 C19_5 1_555 1_555
H8_5 C19_5 1_555 1_555
H9_5 C19_5 1_555 1_555
C20_5 C12_5 1_555 1_555
H10_5 C20_5 1_555 1_555
H11_5 C20_5 1_555 1_555
H12_5 C20_5 1_555 1_555
Zn2_4 O5_4 1_555 1_555
Zn3_3 O3_5 1_555 1_555
O11_5 K1_9 1_555 1_555
O13_5 K1_9 1_555 1_555
K4_3 O6_5 1_555 1_555
S2_5 C6_5 1_555 1_555
O5_4 K3_4 1_555 1_555
Zn3_3 O11_5 1_555 1_555
S1_6 C5_6 1_555 1_555
S2_6 C4_6 1_555 1_555
C1_6 C3_6 1_555 1_555
C2_6 C3_6 1_555 1_555
O2_6 C7_6 1_555 1_555
O3_6 C8_6 1_555 1_555
C3_6 C6_6 1_555 1_555
C4_6 C1_6 1_555 1_555
C5_6 C2_6 1_555 1_555
C6_6 S1_6 1_555 1_555
C7_6 C4_6 1_555 1_555
O4_6 C8_6 1_555 1_555
C8_6 C5_6 1_555 1_555
C9_6 C1_6 1_555 1_555
H1_6 C9_6 1_555 1_555
H2_6 C9_6 1_555 1_555
H3_6 C9_6 1_555 1_555
C10_6 C2_6 1_555 1_555
H4_6 C10_6 1_555 1_555
H5_6 C10_6 1_555 1_555
H6_6 C10_6 1_555 1_555
K1_10 O3_6 1_555 1_555
S3_6 C15_6 1_555 1_555
S4_6 C14_6 1_555 1_555
C11_6 C13_6 1_555 1_555
C12_6 C13_6 1_555 1_555
O6_6 C17_6 1_555 1_555
O7_6 K1_10 1_555 1_555
C13_6 C16_6 1_555 1_555
C14_6 C11_6 1_555 1_555
C15_6 C12_6 1_555 1_555
C16_6 S3_6 1_555 1_555
C17_6 C14_6 1_555 1_555
O8_6 C18_6 1_555 1_555
C18_6 O7_6 1_555 1_555
C19_6 C11_6 1_555 1_555
H7_6 C19_6 1_555 1_555
H8_6 C19_6 1_555 1_555
H9_6 C19_6 1_555 1_555
C20_6 C12_6 1_555 1_555
H10_6 C20_6 1_555 1_555
H11_6 C20_6 1_555 1_555
H12_6 C20_6 1_555 1_555
Zn4_2 O7_6 1_555 1_555
Zn4_5 O3_6 1_555 1_555
O10_6 K1_10 1_555 1_555
O11_6 K1_10 1_555 1_555
O12_6 K1_10 1_555 1_555
O13_6 K1_10 1_555 1_555
K2 O2_6 1_555 1_555
K2_4 O6_6 1_555 1_555
S2_6 C6_6 1_555 1_555
S4_6 C16_6 1_555 1_555
C15_6 C18_6 1_555 1_555
Zn4_2 O10_6 1_555 1_555
Zn4_5 O11_6 1_555 1_555
Zn2_3 O5_5 1_555 1_555
O5_5 K4 1_555 1_555
O3_7 C8_7 1_555 1_555
O4_7 C8_7 1_555 1_555
C8_7 C5_7 1_555 1_555
H4_7 C10_7 1_555 1_555
H5_7 C10_7 1_555 1_555
H6_7 C10_7 1_555 1_555
K1_11 O3_7 1_555 1_555
O7_7 K1_11 1_555 1_555
O8_7 C18_7 1_555 1_555
C18_7 O7_7 1_555 1_555
H10_7 C20_7 1_555 1_555
H11_7 C20_7 1_555 1_555
H12_7 C20_7 1_555 1_555
Zn4_5 O7_7 1_555 1_555
Zn4_4 O3_7 1_555 1_555
O10_7 K1_11 1_555 1_555
O11_7 K1_11 1_555 1_555
O12_7 K1_11 1_555 1_555
O13_7 K1_11 1_555 1_555
C15_7 C18_7 1_555 1_555
Zn4_5 O10_7 1_555 1_555
Zn4_4 O11_7 1_555 1_555
Zn1_4 O1_4 1_555 1_555
S2_7 C4_7 1_555 1_555
C1_7 C3_7 1_555 1_555
C2_7 C3_7 1_555 1_555
O1_4 C7_7 1_555 1_555
O2_7 C7_7 1_555 1_555
C3_7 C6_7 1_555 1_555
C4_7 C1_7 1_555 1_555
C6_7 S1_7 1_555 1_555
C7_7 C4_7 1_555 1_555
C9_7 C1_7 1_555 1_555
H1_7 C9_7 1_555 1_555
H2_7 C9_7 1_555 1_555
H3_7 C9_7 1_555 1_555
S4_7 C14_7 1_555 1_555
C11_7 C13_7 1_555 1_555
C12_7 C13_7 1_555 1_555
O5_6 C17_7 1_555 1_555
O6_7 C17_7 1_555 1_555
C13_7 C16_7 1_555 1_555
C14_7 C11_7 1_555 1_555
C16_7 S3_7 1_555 1_555
C17_7 C14_7 1_555 1_555
C19_7 C11_7 1_555 1_555
H7_7 C19_7 1_555 1_555
H8_7 C19_7 1_555 1_555
H9_7 C19_7 1_555 1_555
Zn2_4 O5_6 1_555 1_555
O9_5 Zn1_4 1_555 1_555
O14_5 Zn1_4 1_555 1_555
O15_5 Zn1_4 1_555 1_555
K4_3 O1_4 1_555 1_555
K4_2 O2_7 1_555 1_555
K3_4 O6_7 1_555 1_555
S2_7 C6_7 1_555 1_555
S4_7 C16_7 1_555 1_555
O5_6 K4_3 1_555 1_555
O9_5 K4_2 1_555 1_555
O14_5 K4_2 1_555 1_555
O15_5 K4_3 1_555 1_555
O14_6 Zn2_3 1_555 1_555
O15_6 Zn2_3 1_555 1_555
O14_6 K4 1_555 1_555
O15_6 K2_5 1_555 1_555
O14_7 Zn2_4 1_555 1_555
O15_7 Zn2_4 1_555 1_555
O14_7 K3_4 1_555 1_555
O15_7 K4_3 1_555 1_555
O9_6 Zn2_2 1_555 1_555
O14_8 Zn2_2 1_555 1_555
O15_8 Zn2_2 1_555 1_555
O9_6 K4_2 1_555 1_555
O14_8 K4_2 1_555 1_555
O15_8 K2_3 1_555 1_555
S1_8 C5_8 1_555 1_555
S2_8 C4_8 1_555 1_555
C1_8 C3_8 1_555 1_555
C2_8 C3_8 1_555 1_555
O9_5 C7_8 1_555 1_555
O2_8 C7_8 1_555 1_555
O3_8 C8_8 1_555 1_555
C3_8 C6_8 1_555 1_555
C4_8 C1_8 1_555 1_555
C5_8 C2_8 1_555 1_555
C6_8 S1_8 1_555 1_555
C7_8 C4_8 1_555 1_555
O4_8 C8_8 1_555 1_555
C8_8 C5_8 1_555 1_555
C9_8 C1_8 1_555 1_555
H1_8 C9_8 1_555 1_555
H2_8 C9_8 1_555 1_555
H3_8 C9_8 1_555 1_555
C10_8 C2_8 1_555 1_555
H4_8 C10_8 1_555 1_555
H5_8 C10_8 1_555 1_555
H6_8 C10_8 1_555 1_555
K1_12 O3_8 1_555 1_555
S3_8 C15_8 1_555 1_555
S4_8 C14_8 1_555 1_555
C11_8 C13_8 1_555 1_555
C12_8 C13_8 1_555 1_555
O9_6 C17_8 1_555 1_555
O6_8 C17_8 1_555 1_555
O7_8 K1_12 1_555 1_555
C13_8 C16_8 1_555 1_555
C14_8 C11_8 1_555 1_555
C15_8 C12_8 1_555 1_555
C16_8 S3_8 1_555 1_555
C17_8 C14_8 1_555 1_555
O8_8 C18_8 1_555 1_555
C18_8 O7_8 1_555 1_555
C19_8 C11_8 1_555 1_555
H7_8 C19_8 1_555 1_555
H8_8 C19_8 1_555 1_555
H9_8 C19_8 1_555 1_555
C20_8 C12_8 1_555 1_555
H10_8 C20_8 1_555 1_555
H11_8 C20_8 1_555 1_555
H12_8 C20_8 1_555 1_555
Zn4_3 O7_8 1_555 1_555
Zn4 O3_8 1_555 1_555
O10_8 K1_12 1_555 1_555
O11_8 K1_12 1_555 1_555
O12_8 K1_12 1_555 1_555
O13_8 K1_12 1_555 1_555
K4_3 O2_8 1_555 1_555
K2_3 O6_8 1_555 1_555
S2_8 C6_8 1_555 1_555
S4_8 C16_8 1_555 1_555
C15_8 C18_8 1_555 1_555
Zn4_3 O10_8 1_555 1_555
Zn4 O11_8 1_555 1_555
S3_9 C15_9 1_555 1_555
S4_9 C14_9 1_555 1_555
C11_9 C13_9 1_555 1_555
C12_9 C13_9 1_555 1_555
O11_3 C17_9 1_555 1_555
O12_8 C17_9 1_555 1_555
C13_9 C16_9 1_555 1_555
C14_9 C11_9 1_555 1_555
C15_9 C12_9 1_555 1_555
C16_9 S3_9 1_555 1_555
C17_9 C14_9 1_555 1_555
O8_9 C18_9 1_555 1_555
C18_9 O15_4 1_555 1_555
C19_9 C11_9 1_555 1_555
H7_9 C19_9 1_555 1_555
H8_9 C19_9 1_555 1_555
H9_9 C19_9 1_555 1_555
C20_9 C12_9 1_555 1_555
H10_9 C20_9 1_555 1_555
H11_9 C20_9 1_555 1_555
H12_9 C20_9 1_555 1_555
S4_9 C16_9 1_555 1_555
C15_9 C18_9 1_555 1_555
S1_9 C5_9 1_555 1_555
S2_9 C4_9 1_555 1_555
C1_9 C3_9 1_555 1_555
C2_9 C3_9 1_555 1_555
O10_3 C7_9 1_555 1_555
O13_5 C7_9 1_555 1_555
O15_6 C8_9 1_555 1_555
C3_9 C6_9 1_555 1_555
C4_9 C1_9 1_555 1_555
C5_9 C2_9 1_555 1_555
C6_9 S1_9 1_555 1_555
C7_9 C4_9 1_555 1_555
O4_9 C8_9 1_555 1_555
C8_9 C5_9 1_555 1_555
C9_9 C1_9 1_555 1_555
H1_9 C9_9 1_555 1_555
H2_9 C9_9 1_555 1_555
H3_9 C9_9 1_555 1_555
C10_9 C2_9 1_555 1_555
H4_9 C10_9 1_555 1_555
H5_9 C10_9 1_555 1_555
H6_9 C10_9 1_555 1_555
S2_9 C6_9 1_555 1_555
S1_10 C5_10 1_555 1_555
S2_10 C4_10 1_555 1_555
C1_10 C3_10 1_555 1_555
C2_10 C3_10 1_555 1_555
O11_7 C7_10 1_555 1_555
O13_4 C7_10 1_555 1_555
O15_5 C8_10 1_555 1_555
C3_10 C6_10 1_555 1_555
C4_10 C1_10 1_555 1_555
C5_10 C2_10 1_555 1_555
C6_10 S1_10 1_555 1_555
C7_10 C4_10 1_555 1_555
O4_10 C8_10 1_555 1_555
C8_10 C5_10 1_555 1_555
C9_10 C1_10 1_555 1_555
H1_10 C9_10 1_555 1_555
H2_10 C9_10 1_555 1_555
H3_10 C9_10 1_555 1_555
C10_10 C2_10 1_555 1_555
H4_10 C10_10 1_555 1_555
H5_10 C10_10 1_555 1_555
H6_10 C10_10 1_555 1_555
S3_10 C15_10 1_555 1_555
S4_10 C14_10 1_555 1_555
C11_10 C13_10 1_555 1_555
C12_10 C13_10 1_555 1_555
O10_7 C17_10 1_555 1_555
O13_6 C17_10 1_555 1_555
C13_10 C16_10 1_555 1_555
C14_10 C11_10 1_555 1_555
C15_10 C12_10 1_555 1_555
C16_10 S3_10 1_555 1_555
C17_10 C14_10 1_555 1_555
O8_10 C18_10 1_555 1_555
C18_10 O15_7 1_555 1_555
C19_10 C11_10 1_555 1_555
H7_10 C19_10 1_555 1_555
H8_10 C19_10 1_555 1_555
H9_10 C19_10 1_555 1_555
C20_10 C12_10 1_555 1_555
H10_10 C20_10 1_555 1_555
H11_10 C20_10 1_555 1_555
H12_10 C20_10 1_555 1_555
S2_10 C6_10 1_555 1_555
S4_10 C16_10 1_555 1_555
C15_10 C18_10 1_555 1_555
O8_11 C18_11 1_555 1_555
C18_11 O15 1_555 1_555
H10_11 C20_11 1_555 1_555
H11_11 C20_11 1_555 1_555
H12_11 C20_11 1_555 1_555
C15_11 C18_11 1_555 1_555
O15_3 C8_11 1_555 1_555
O4_11 C8_11 1_555 1_555
C8_11 C5_11 1_555 1_555
H4_11 C10_11 1_555 1_555
H5_11 C10_11 1_555 1_555
H6_11 C10_11 1_555 1_555
S4_11 C14_11 1_555 1_555
C11_11 C13_11 1_555 1_555
C12_11 C13_11 1_555 1_555
O11 C17_11 1_555 1_555
O13_8 C17_11 1_555 1_555
C13_11 C16_11 1_555 1_555
C14_11 C11_11 1_555 1_555
C16_11 S3_11 1_555 1_555
C17_11 C14_11 1_555 1_555
C19_11 C11_11 1_555 1_555
H7_11 C19_11 1_555 1_555
H8_11 C19_11 1_555 1_555
H9_11 C19_11 1_555 1_555
S4_11 C16_11 1_555 1_555
S2_11 C4_11 1_555 1_555
C1_11 C3_11 1_555 1_555
C2_11 C3_11 1_555 1_555
O10 C7_11 1_555 1_555
O12_5 C7_11 1_555 1_555
C3_11 C6_11 1_555 1_555
C4_11 C1_11 1_555 1_555
C6_11 S1_11 1_555 1_555
C7_11 C4_11 1_555 1_555
C9_11 C1_11 1_555 1_555
H1_11 C9_11 1_555 1_555
H2_11 C9_11 1_555 1_555
H3_11 C9_11 1_555 1_555
S2_11 C6_11 1_555 1_555
S1_12 C5_12 1_555 1_555
O14_2 C8_12 1_555 1_555
C6_12 S1_12 1_555 1_555
O4_12 C8_12 1_555 1_555
C8_12 C5_12 1_555 1_555
C11_12 C13_12 1_555 1_555
C12_12 C13_12 1_555 1_555
O12 C17_12 1_555 1_555
C14_12 C11_12 1_555 1_555
C17_12 C14_12 1_555 1_555
C19_12 C11_12 1_555 1_555
H7_12 C19_12 1_555 1_555
H8_12 C19_12 1_555 1_555
H9_12 C19_12 1_555 1_555
C20_12 C12_12 1_555 1_555
H10_12 C20_12 1_555 1_555
H11_12 C20_12 1_555 1_555
H12_12 C20_12 1_555 1_555
S2_12 C6_12 1_555 1_555
C1_12 C3_12 1_555 1_555
C2_12 C3_12 1_555 1_555
O12_3 C7_12 1_555 1_555
C4_12 C1_12 1_555 1_555
C7_12 C4_12 1_555 1_555
C9_12 C1_12 1_555 1_555
H1_12 C9_12 1_555 1_555
H2_12 C9_12 1_555 1_555
H3_12 C9_12 1_555 1_555
C10_12 C2_12 1_555 1_555
H4_12 C10_12 1_555 1_555
H5_12 C10_12 1_555 1_555
H6_12 C10_12 1_555 1_555
S3_12 C15_12 1_555 1_555
C16_12 S3_12 1_555 1_555
O8_12 C18_12 1_555 1_555
C18_12 O14_7 1_555 1_555
S4_12 C16_12 1_555 1_555
C15_12 C18_12 1_555 1_555
S1_13 C5_13 1_555 1_555
O14 C8_13 1_555 1_555
C6_13 S1_13 1_555 1_555
O4_13 C8_13 1_555 1_555
C8_13 C5_13 1_555 1_555
C11_13 C13_13 1_555 1_555
C12_13 C13_13 1_555 1_555
O10_4 C17_13 1_555 1_555
O12_2 C17_13 1_555 1_555
C14_13 C11_13 1_555 1_555
C17_13 C14_13 1_555 1_555
C19_13 C11_13 1_555 1_555
H7_13 C19_13 1_555 1_555
H8_13 C19_13 1_555 1_555
H9_13 C19_13 1_555 1_555
C20_13 C12_13 1_555 1_555
H10_13 C20_13 1_555 1_555
H11_13 C20_13 1_555 1_555
H12_13 C20_13 1_555 1_555
S2_13 C6_13 1_555 1_555
C1_13 C3_13 1_555 1_555
C2_13 C3_13 1_555 1_555
O11_4 C7_13 1_555 1_555
O13_7 C7_13 1_555 1_555
C4_13 C1_13 1_555 1_555
C7_13 C4_13 1_555 1_555
C9_13 C1_13 1_555 1_555
H1_13 C9_13 1_555 1_555
H2_13 C9_13 1_555 1_555
H3_13 C9_13 1_555 1_555
C10_13 C2_13 1_555 1_555
H4_13 C10_13 1_555 1_555
H5_13 C10_13 1_555 1_555
H6_13 C10_13 1_555 1_555
S3_13 C15_13 1_555 1_555
C16_13 S3_13 1_555 1_555
O8_13 C18_13 1_555 1_555
C18_13 O14_4 1_555 1_555
S4_13 C16_13 1_555 1_555
C15_13 C18_13 1_555 1_555
S1_14 C5_14 1_555 1_555
S2_14 C4_14 1_555 1_555
C1_14 C3_14 1_555 1_555
C2_14 C3_14 1_555 1_555
O13_3 C7_14 1_555 1_555
O14_8 C8_14 1_555 1_555
C3_14 C6_14 1_555 1_555
C4_14 C1_14 1_555 1_555
C5_14 C2_14 1_555 1_555
C6_14 S1_14 1_555 1_555
C7_14 C4_14 1_555 1_555
O4_14 C8_14 1_555 1_555
C8_14 C5_14 1_555 1_555
C9_14 C1_14 1_555 1_555
H1_14 C9_14 1_555 1_555
H2_14 C9_14 1_555 1_555
H3_14 C9_14 1_555 1_555
C10_14 C2_14 1_555 1_555
H4_14 C10_14 1_555 1_555
H5_14 C10_14 1_555 1_555
H6_14 C10_14 1_555 1_555
S3_14 C15_14 1_555 1_555
S4_14 C14_14 1_555 1_555
C11_14 C13_14 1_555 1_555
C12_14 C13_14 1_555 1_555
O13 C17_14 1_555 1_555
C13_14 C16_14 1_555 1_555
C14_14 C11_14 1_555 1_555
C15_14 C12_14 1_555 1_555
C16_14 S3_14 1_555 1_555
C17_14 C14_14 1_555 1_555
O8_14 C18_14 1_555 1_555
C18_14 O14_5 1_555 1_555
C19_14 C11_14 1_555 1_555
H7_14 C19_14 1_555 1_555
H8_14 C19_14 1_555 1_555
H9_14 C19_14 1_555 1_555
C20_14 C12_14 1_555 1_555
H10_14 C20_14 1_555 1_555
H11_14 C20_14 1_555 1_555
H12_14 C20_14 1_555 1_555
S2_14 C6_14 1_555 1_555
S4_14 C16_14 1_555 1_555
C15_14 C18_14 1_555 1_555
S2_15 C4_15 1_555 1_555
C1_15 C3_15 1_555 1_555
C2_15 C3_15 1_555 1_555
O11_2 C7_15 1_555 1_555
O12_6 C7_15 1_555 1_555
C3_15 C6_15 1_555 1_555
C4_15 C1_15 1_555 1_555
C6_15 S1_15 1_555 1_555
C7_15 C4_15 1_555 1_555
C9_15 C1_15 1_555 1_555
H1_15 C9_15 1_555 1_555
H2_15 C9_15 1_555 1_555
H3_15 C9_15 1_555 1_555
S4_15 C14_15 1_555 1_555
C11_15 C13_15 1_555 1_555
C12_15 C13_15 1_555 1_555
O10_2 C17_15 1_555 1_555
O12_4 C17_15 1_555 1_555
C13_15 C16_15 1_555 1_555
C14_15 C11_15 1_555 1_555
C16_15 S3_15 1_555 1_555
C17_15 C14_15 1_555 1_555
C19_15 C11_15 1_555 1_555
H7_15 C19_15 1_555 1_555
H8_15 C19_15 1_555 1_555
H9_15 C19_15 1_555 1_555
S2_15 C6_15 1_555 1_555
S4_15 C16_15 1_555 1_555
O15_2 C8_15 1_555 1_555
O4_15 C8_15 1_555 1_555
C8_15 C5_15 1_555 1_555
H4_15 C10_15 1_555 1_555
H5_15 C10_15 1_555 1_555
H6_15 C10_15 1_555 1_555
O8_15 C18_15 1_555 1_555
C18_15 O15_8 1_555 1_555
H10_15 C20_15 1_555 1_555
H11_15 C20_15 1_555 1_555
H12_15 C20_15 1_555 1_555
C15_15 C18_15 1_555 1_555
S1_16 C5_16 1_555 1_555
S2_16 C4_16 1_555 1_555
C1_16 C3_16 1_555 1_555
C2_16 C3_16 1_555 1_555
O10_6 C7_16 1_555 1_555
O13_2 C7_16 1_555 1_555
O14_6 C8_16 1_555 1_555
C3_16 C6_16 1_555 1_555
C4_16 C1_16 1_555 1_555
C5_16 C2_16 1_555 1_555
C6_16 S1_16 1_555 1_555
C7_16 C4_16 1_555 1_555
O4_16 C8_16 1_555 1_555
C8_16 C5_16 1_555 1_555
C9_16 C1_16 1_555 1_555
H1_16 C9_16 1_555 1_555
H2_16 C9_16 1_555 1_555
H3_16 C9_16 1_555 1_555
C10_16 C2_16 1_555 1_555
H4_16 C10_16 1_555 1_555
H5_16 C10_16 1_555 1_555
H6_16 C10_16 1_555 1_555
S3_16 C15_16 1_555 1_555
S4_16 C14_16 1_555 1_555
C11_16 C13_16 1_555 1_555
C12_16 C13_16 1_555 1_555
O11_6 C17_16 1_555 1_555
O12_7 C17_16 1_555 1_555
C13_16 C16_16 1_555 1_555
C14_16 C11_16 1_555 1_555
C15_16 C12_16 1_555 1_555
C16_16 S3_16 1_555 1_555
C17_16 C14_16 1_555 1_555
O8_16 C18_16 1_555 1_555
C18_16 O14_3 1_555 1_555
C19_16 C11_16 1_555 1_555
H7_16 C19_16 1_555 1_555
H8_16 C19_16 1_555 1_555
H9_16 C19_16 1_555 1_555
C20_16 C12_16 1_555 1_555
H10_16 C20_16 1_555 1_555
H11_16 C20_16 1_555 1_555
H12_16 C20_16 1_555 1_555
S2_16 C6_16 1_555 1_555
S4_16 C16_16 1_555 1_555
C15_16 C18_16 1_555 1_555

#END
