
###############################################################################
#
# This file contains modified crystal structure data generated from the
# MOF subset of the Cambridge Structural Database (CSD) v543 
# hosted by the Cambridge Crystallographic Data Centre (CCDC).
#
# This work is licensed under the Creative Commons
# Attribution-NonCommercial-ShareAlike 4.0 International License.
# To view a copy of this license, visit
# http://creativecommons.org/licenses/by-nc-sa/4.0/
# or send a letter to
# Creative Commons, PO Box 1866, Mountain View, CA 94042, USA.
#
# CIF created using the CSD Python API on 29 September 2022
# The structure has been converted into the P1 space group
# The structure has a 3D framework
# The original CSD entry LULVOF is in the monoclinic crystal system
# The framework has been calculated to contain at least 10.0% void space
# The void calculation uses a probe of radius 1.32A, grid spacing 0.4
#
###############################################################################

data_LULVOF
_chemical_formula_moiety         '(C272 H160 Co12 N16 O48)n'
_symmetry_cell_setting           triclinic
_symmetry_space_group_name_H-M   'P 1'
_symmetry_Int_Tables_number      1
_space_group_name_Hall           'P 1'
loop_
_symmetry_equiv_pos_site_id
_symmetry_equiv_pos_as_xyz
1 x,y,z
_cell_length_a                   25.938(3)
_cell_length_b                   18.158(2)
_cell_length_c                   16.7929(19)
_cell_angle_alpha                90
_cell_angle_beta                 116.945(2)
_cell_angle_gamma                90
_cell_volume                     7050.55
loop_
_atom_site_label
_atom_site_type_symbol
_atom_site_fract_x
_atom_site_fract_y
_atom_site_fract_z
O7 O 0.7215(2) 0.2408(3) 0.1764(4)
O8 O 0.6339(2) 0.2763(3) 0.0827(4)
C25 C 0.5738(3) 0.0426(5) 0.3198(6)
C26 C 0.5987(3) 0.0957(4) 0.2830(5)
C27 C 0.6566(4) 0.0912(4) 0.3005(6)
H13 H 0.6814 0.0563 0.3426
C28 C 0.6782(3) 0.1374(4) 0.2569(5)
H14 H 0.7171 0.1324 0.2668
C29 C 0.6423(3) 0.1915(4) 0.1981(5)
C30 C 0.5860(3) 0.1983(4) 0.1834(5)
H15 H 0.5623 0.2355 0.1441
C31 C 0.5625(3) 0.1514(4) 0.2254(5)
H16 H 0.5236 0.1568 0.2156
C32 C 0.6666(3) 0.2403(3) 0.1508(5)
Co6 Co 0.79643(4) 0.26828(5) 0.29557(6)
Co9 Co 0.71186(4) 0.31194(5) 0.06896(6)
Co1 Co 0.37050(4) 0.72123(5) 0.51337(6)
Co2 Co 0.29643(4) 0.76828(5) 0.29557(6)
Co3 Co 0.21186(4) 0.81194(5) 0.06896(6)
O1 O 0.3745(2) 0.6220(3) 0.4605(3)
O2 O 0.3143(2) 0.6547(3) 0.3186(4)
O5 O 0.4563(2) 0.7513(3) 0.5226(4)
O6 O 0.3738(2) 0.7904(3) 0.4143(3)
O9 O 0.3471(2) 0.7670(3) 0.2282(4)
O10 O 0.2955(2) 0.8148(3) 0.0910(4)
N3 N 0.3599(3) 0.8239(3) 0.5691(5)
N4 N 0.4044(3) 0.6979(3) 0.6494(5)
C1 C 0.3397(3) 0.6088(4) 0.3808(5)
C2 C 0.3272(3) 0.5275(4) 0.3578(5)
C3 C 0.3446(3) 0.4757(4) 0.4241(5)
H1 H 0.3645 0.4914 0.4846
C4 C 0.3342(3) 0.4012(4) 0.4060(6)
H2 H 0.3471 0.3664 0.4534
C5 C 0.3045(3) 0.3778(4) 0.3174(6)
C6 C 0.2867(4) 0.4295(4) 0.2482(6)
H3 H 0.2674 0.4136 0.1878
C7 C 0.2971(3) 0.5042(4) 0.2676(5)
H4 H 0.2842 0.5393 0.2206
C8 C 0.2934(4) 0.3001(4) 0.2971(6)
C9 C 0.2853(4) 0.2356(5) 0.2832(6)
C10 C 0.2752(3) 0.1581(4) 0.2675(6)
C11 C 0.3048(4) 0.1076(4) 0.3367(6)
H5 H 0.3304 0.1247 0.3948
C12 C 0.2962(3) 0.0311(4) 0.3195(5)
C13 C 0.2580(3) 0.0059(4) 0.2338(5)
C14 C 0.2273(3) 0.0567(4) 0.1670(5)
H7 H 0.2000 0.0397 0.1098
C15 C 0.2359(3) 0.1318(4) 0.1827(6)
H8 H 0.2152 0.1657 0.1360
C17 C 0.4300(3) 0.7901(4) 0.4530(5)
C18 C 0.4615(3) 0.8395(4) 0.4200(5)
C19 C 0.5210(3) 0.8308(4) 0.4496(5)
H9 H 0.5406 0.7908 0.4879
C20 C 0.5513(3) 0.8792(4) 0.4241(6)
H10 H 0.5915 0.8722 0.4438
C21 C 0.5228(3) 0.9394(4) 0.3685(6)
C22 C 0.4633(3) 0.9481(4) 0.3397(5)
H11 H 0.4438 0.9886 0.3023
C23 C 0.4321(3) 0.8986(4) 0.3646(5)
H12 H 0.3917 0.9050 0.3443
C24 C 0.5532(3) 0.9937(4) 0.3439(6)
C33 C 0.3410(3) 0.7886(4) 0.1537(5)
C34 C 0.3916(3) 0.7789(4) 0.1332(5)
C35 C 0.3808(3) 0.7682(4) 0.0451(5)
C36 C 0.4258(3) 0.7577(4) 0.0228(6)
C37 C 0.4840(3) 0.7578(4) 0.0916(6)
C38 C 0.4943(4) 0.7706(5) 0.1803(6)
H19 H 0.5329 0.7722 0.2267
C39 C 0.4488(3) 0.7807(5) 0.2003(6)
H20 H 0.4563 0.7890 0.2605
C40 C 0.5302(4) 0.7489(5) 0.0674(6)
C41 C 0.5663(3) 0.7444(5) 0.0406(6)
C42 C 0.6103(3) 0.7462(4) 0.0103(6)
C46 C 0.6974(4) 0.8030(5) 0.0192(7)
H23 H 0.7272 0.8387 0.0449
C47 C 0.6546(4) 0.7986(5) 0.0488(7)
H24 H 0.6557 0.8307 0.0942
C49 C 0.2132(3) 0.6539(4) 0.0036(7)
H25 H 0.2288 0.6421 0.0653
C59 C 0.3349(4) 0.8845(4) 0.5222(6)
H33 H 0.3192 0.8830 0.4590
C60 C 0.3311(4) 0.9498(4) 0.5629(6)
H34 H 0.3125 0.9920 0.5283
C61 C 0.3547(3) 0.9514(4) 0.6540(6)
H35 H 0.3530 0.9954 0.6834
C62 C 0.3811(4) 0.8893(4) 0.7038(6)
H36 H 0.3974 0.8895 0.7671
C63 C 0.3828(3) 0.8258(4) 0.6567(6)
C64 C 0.4082(3) 0.7546(4) 0.7028(5)
C65 C 0.4314(4) 0.7452(5) 0.7961(6)
H37 H 0.4331 0.7855 0.8332
C66 C 0.4517(4) 0.6760(5) 0.8332(6)
H38 H 0.4689 0.6689 0.8960
C67 C 0.4461(4) 0.6168(5) 0.7757(6)
H39 H 0.4582 0.5687 0.7986
C68 C 0.4224(4) 0.6305(4) 0.6847(6)
H40 H 0.4188 0.5908 0.6456
Co4 Co 0.87050(4) 0.77877(5) 0.01337(6)
O13 O 0.2828(2) 0.8813(3) 0.2773(4)
O14 O 0.2158(2) 0.9063(3) 0.1360(4)
O15 O 0.2215(2) 0.7408(3) 0.1764(4)
O16 O 0.1339(2) 0.7763(3) 0.0827(4)
O17 O 0.2863(2) 0.6958(3) 0.4762(4)
O18 O 0.2437(2) 0.7773(3) 0.3647(4)
H6 H 0.3164 0.9968 0.3660
C16 C 0.2514(3) 0.9244(4) 0.2143(5)
O3 O 0.2828(2) 0.1187(3) 0.7773(4)
O4 O 0.2158(2) 0.0937(3) 0.6360(4)
H6_2 H 0.3164 0.0032 0.8660
C16_2 C 0.2514(3) 0.0756(4) 0.7143(5)
Co5 Co 0.29643(4) 0.23172(5) 0.79557(6)
Co8 Co 0.21186(4) 0.18806(5) 0.56896(6)
Co1_2 Co 0.37050(4) 0.27877(5) 0.01337(6)
O5_2 O 0.4563(2) 0.2487(3) 0.0226(4)
N3_2 N 0.3599(3) 0.1761(3) 0.0691(5)
N4_2 N 0.4044(3) 0.3021(3) 0.1494(5)
C59_2 C 0.3349(4) 0.1155(4) 0.0222(6)
C60_2 C 0.3311(4) 0.0502(4) 0.0629(6)
H34_2 H 0.3125 0.0080 0.0283
C61_2 C 0.3547(3) 0.0486(4) 0.1540(6)
H35_2 H 0.3530 0.0046 0.1834
C62_2 C 0.3811(4) 0.1107(4) 0.2038(6)
H36_2 H 0.3974 0.1105 0.2671
C63_2 C 0.3828(3) 0.1742(4) 0.1567(6)
C64_2 C 0.4082(3) 0.2454(4) 0.2028(5)
C65_2 C 0.4314(4) 0.2548(5) 0.2961(6)
H37_2 H 0.4331 0.2145 0.3332
C66_2 C 0.4517(4) 0.3240(5) 0.3332(6)
H38_2 H 0.4689 0.3311 0.3960
C67_2 C 0.4461(4) 0.3832(5) 0.2757(6)
H39_2 H 0.4582 0.4313 0.2986
C68_2 C 0.4224(4) 0.3695(4) 0.1847(6)
H40_2 H 0.4188 0.4092 0.1456
O1_2 O 0.3745(2) 0.3780(3) 0.9605(3)
O2_2 O 0.3143(2) 0.3453(3) 0.8186(4)
O6_2 O 0.3738(2) 0.2096(3) 0.9143(3)
O9_2 O 0.3471(2) 0.2330(3) 0.7282(4)
O10_2 O 0.2955(2) 0.1852(3) 0.5910(4)
O11 O 0.7863(2) 0.1958(3) 0.4762(4)
O12 O 0.7437(2) 0.2773(3) 0.3647(4)
N1 N 0.1989(3) 0.2764(3) 0.4785(5)
N2 N 0.1794(3) 0.1348(3) 0.4431(4)
C1_2 C 0.3397(3) 0.3912(4) 0.8808(5)
C2_2 C 0.3272(3) 0.4725(4) 0.8578(5)
C3_2 C 0.3446(3) 0.5243(4) 0.9241(5)
H1_2 H 0.3645 0.5086 0.9846
C4_2 C 0.3342(3) 0.5988(4) 0.9060(6)
H2_2 H 0.3471 0.6336 0.9534
C5_2 C 0.3045(3) 0.6222(4) 0.8174(6)
C6_2 C 0.2867(4) 0.5705(4) 0.7482(6)
H3_2 H 0.2674 0.5864 0.6878
C7_2 C 0.2971(3) 0.4958(4) 0.7676(5)
H4_2 H 0.2842 0.4607 0.7206
C8_2 C 0.2934(4) 0.6999(4) 0.7971(6)
C9_2 C 0.2853(4) 0.7644(5) 0.7832(6)
C10_2 C 0.2752(3) 0.8419(4) 0.7675(6)
C11_2 C 0.3048(4) 0.8924(4) 0.8367(6)
H5_2 H 0.3304 0.8753 0.8948
C12_2 C 0.2962(3) 0.9689(4) 0.8195(5)
C13_2 C 0.2580(3) 0.9941(4) 0.7338(5)
C14_2 C 0.2273(3) 0.9433(4) 0.6670(5)
H7_2 H 0.2000 0.9603 0.6098
C15_2 C 0.2359(3) 0.8682(4) 0.6827(6)
H8_2 H 0.2152 0.8343 0.6360
C17_2 C 0.4300(3) 0.2099(4) 0.9530(5)
C18_2 C 0.4615(3) 0.1605(4) 0.9200(5)
C19_2 C 0.5210(3) 0.1692(4) 0.9496(5)
H9_2 H 0.5406 0.2092 0.9879
C20_2 C 0.5513(3) 0.1208(4) 0.9241(6)
H10_2 H 0.5915 0.1278 0.9438
C21_2 C 0.5228(3) 0.0606(4) 0.8685(6)
C22_2 C 0.4633(3) 0.0519(4) 0.8397(5)
H11_2 H 0.4438 0.0114 0.8023
C23_2 C 0.4321(3) 0.1014(4) 0.8646(5)
H12_2 H 0.3917 0.0950 0.8443
C24_2 C 0.5532(3) 0.0063(4) 0.8439(6)
C33_2 C 0.3410(3) 0.2114(4) 0.6537(5)
C34_2 C 0.3916(3) 0.2211(4) 0.6332(5)
C35_2 C 0.3808(3) 0.2318(4) 0.5451(5)
H17 H 0.3420 0.2318 0.4993
C36_2 C 0.4258(3) 0.2423(4) 0.5228(6)
H18 H 0.4178 0.2496 0.4623
C37_2 C 0.4840(3) 0.2422(4) 0.5916(6)
C38_2 C 0.4943(4) 0.2294(5) 0.6803(6)
H19_2 H 0.5329 0.2278 0.7267
C39_2 C 0.4488(3) 0.2193(5) 0.7003(6)
H20_2 H 0.4563 0.2110 0.7605
C40_2 C 0.5302(4) 0.2511(5) 0.5674(6)
C41_2 C 0.5663(3) 0.2556(5) 0.5406(6)
C42_2 C 0.6103(3) 0.2538(4) 0.5103(6)
C43 C 0.6107(4) 0.3019(5) 0.4458(7)
H21 H 0.5818 0.3389 0.4216
C44 C 0.6531(3) 0.2963(5) 0.4160(6)
H22 H 0.6521 0.3282 0.3704
C45 C 0.6971(3) 0.2433(4) 0.4541(5)
C46_2 C 0.6974(4) 0.1970(5) 0.5192(7)
H23_2 H 0.7272 0.1613 0.5449
C47_2 C 0.6546(4) 0.2014(5) 0.5488(7)
H24_2 H 0.6557 0.1693 0.5942
C48 C 0.7455(3) 0.2386(4) 0.4276(5)
C49_2 C 0.2132(3) 0.3461(4) 0.5036(7)
H25_2 H 0.2288 0.3579 0.5653
C50 C 0.2062(4) 0.4026(4) 0.4428(7)
H26 H 0.2171 0.4519 0.4623
C51 C 0.1823(4) 0.3840(5) 0.3524(7)
H27 H 0.1765 0.4210 0.3091
C52 C 0.1673(4) 0.3116(5) 0.3257(6)
H28 H 0.1513 0.2981 0.2645
C53 C 0.1765(3) 0.2591(4) 0.3921(6)
C54 C 0.1658(3) 0.1787(4) 0.3710(5)
C55 C 0.1457(4) 0.1498(5) 0.2854(6)
H29 H 0.1354 0.1817 0.2357
C56 C 0.1407(4) 0.0741(5) 0.2732(6)
H30 H 0.1274 0.0534 0.2152
C57 C 0.1556(4) 0.0293(5) 0.3472(7)
C58 C 0.1748(4) 0.0615(5) 0.4319(6)
H32 H 0.1847 0.0307 0.4825
H33_2 H 0.3192 0.1170 0.9590
Co4_2 Co 0.87050(4) 0.22123(5) 0.51337(6)
O15_2 O 0.2215(2) 0.2592(3) 0.6764(4)
O16_2 O 0.1339(2) 0.2237(3) 0.5827(4)
O17_2 O 0.2863(2) 0.3042(3) 0.9762(4)
O18_2 O 0.2437(2) 0.2227(3) 0.8647(4)
C19_3 C 0.0210(3) 0.3308(4) 0.4496(5)
H9_3 H 0.0406 0.2908 0.4879
C20_3 C 0.0513(3) 0.3792(4) 0.4241(6)
H10_3 H 0.0915 0.3722 0.4438
C21_3 C 0.0228(3) 0.4394(4) 0.3685(6)
C24_3 C 0.0532(3) 0.4937(4) 0.3439(6)
C25_2 C 0.0738(3) 0.5426(5) 0.3198(6)
C26_2 C 0.0987(3) 0.5957(4) 0.2830(5)
C27_2 C 0.1566(4) 0.5912(4) 0.3005(6)
H13_2 H 0.1814 0.5563 0.3426
C28_2 C 0.1782(3) 0.6374(4) 0.2569(5)
H14_2 H 0.2171 0.6324 0.2668
C29_2 C 0.1423(3) 0.6915(4) 0.1981(5)
C30_2 C 0.0860(3) 0.6983(4) 0.1834(5)
H15_2 H 0.0623 0.7355 0.1441
C31_2 C 0.0625(3) 0.6514(4) 0.2254(5)
H16_2 H 0.0236 0.6568 0.2156
C32_2 C 0.1666(3) 0.7403(3) 0.1508(5)
H19_3 H 0.0329 0.2722 0.2267
C40_3 C 0.0302(4) 0.2489(5) 0.0674(6)
C41_3 C 0.0663(3) 0.2444(5) 0.0406(6)
C42_3 C 0.1103(3) 0.2462(4) 0.0103(6)
C46_3 C 0.1974(4) 0.3030(5) 0.0192(7)
H23_3 H 0.2272 0.3387 0.0449
C47_3 C 0.1546(4) 0.2986(5) 0.0488(7)
H24_3 H 0.1557 0.3307 0.0942
C43_2 C 0.1107(4) 0.1981(5) 0.9458(7)
H21_2 H 0.0818 0.1611 0.9216
C44_2 C 0.1531(3) 0.2037(5) 0.9160(6)
H22_2 H 0.1521 0.1718 0.8704
C45_2 C 0.1971(3) 0.2567(4) 0.9541(5)
C48_2 C 0.2455(3) 0.2614(4) 0.9276(5)
O1_3 O 0.8745(2) 0.1220(3) 0.4605(3)
O2_3 O 0.8143(2) 0.1547(3) 0.3186(4)
O5_3 O 0.9563(2) 0.2513(3) 0.5226(4)
O6_3 O 0.8738(2) 0.2904(3) 0.4143(3)
O9_3 O 0.8471(2) 0.2670(3) 0.2282(4)
O10_3 O 0.7955(2) 0.3148(3) 0.0910(4)
N3_3 N 0.8599(3) 0.3239(3) 0.5691(5)
N4_3 N 0.9044(3) 0.1979(3) 0.6494(5)
C1_3 C 0.8397(3) 0.1088(4) 0.3808(5)
C2_3 C 0.8272(3) 0.0275(4) 0.3578(5)
C7_3 C 0.7971(3) 0.0042(4) 0.2676(5)
H4_3 H 0.7842 0.0393 0.2206
C17_3 C 0.9300(3) 0.2901(4) 0.4530(5)
C18_3 C 0.9615(3) 0.3395(4) 0.4200(5)
C22_3 C 0.9633(3) 0.4481(4) 0.3397(5)
H11_3 H 0.9438 0.4886 0.3023
C23_3 C 0.9321(3) 0.3986(4) 0.3646(5)
H12_3 H 0.8917 0.4050 0.3443
C33_3 C 0.8410(3) 0.2886(4) 0.1537(5)
C34_3 C 0.8916(3) 0.2789(4) 0.1332(5)
C35_3 C 0.8808(3) 0.2682(4) 0.0451(5)
C36_3 C 0.9258(3) 0.2577(4) 0.0228(6)
C37_3 C 0.9840(3) 0.2578(4) 0.0916(6)
C38_3 C 0.9943(4) 0.2706(5) 0.1803(6)
C39_3 C 0.9488(3) 0.2807(5) 0.2003(6)
H20_3 H 0.9563 0.2890 0.2605
C49_3 C 0.7132(3) 0.1539(4) 0.0036(7)
H25_3 H 0.7288 0.1421 0.0653
C59_3 C 0.8349(4) 0.3845(4) 0.5222(6)
H33_3 H 0.8192 0.3830 0.4590
C60_3 C 0.8311(4) 0.4498(4) 0.5629(6)
H34_3 H 0.8125 0.4920 0.5283
C61_3 C 0.8547(3) 0.4514(4) 0.6540(6)
H35_3 H 0.8530 0.4954 0.6834
C62_3 C 0.8811(4) 0.3893(4) 0.7038(6)
H36_3 H 0.8974 0.3895 0.7671
C63_3 C 0.8828(3) 0.3258(4) 0.6567(6)
C64_3 C 0.9082(3) 0.2546(4) 0.7028(5)
C65_3 C 0.9314(4) 0.2452(5) 0.7961(6)
H37_3 H 0.9331 0.2855 0.8332
C66_3 C 0.9517(4) 0.1760(5) 0.8332(6)
H38_3 H 0.9689 0.1689 0.8960
C67_3 C 0.9461(4) 0.1168(5) 0.7757(6)
H39_3 H 0.9582 0.0687 0.7986
C68_3 C 0.9224(4) 0.1305(4) 0.6847(6)
H40_3 H 0.9188 0.0908 0.6456
O13_2 O 0.7828(2) 0.3813(3) 0.2773(4)
O14_2 O 0.7158(2) 0.4063(3) 0.1360(4)
C3_3 C 0.8446(3) 0.9757(4) 0.4241(5)
H1_3 H 0.8645 0.9914 0.4846
C4_3 C 0.8342(3) 0.9012(4) 0.4060(6)
H2_3 H 0.8471 0.8664 0.4534
C5_3 C 0.8045(3) 0.8778(4) 0.3174(6)
C6_3 C 0.7867(4) 0.9295(4) 0.2482(6)
H3_3 H 0.7674 0.9136 0.1878
C8_3 C 0.7934(4) 0.8001(4) 0.2971(6)
C9_3 C 0.7853(4) 0.7356(5) 0.2832(6)
C10_3 C 0.7752(3) 0.6581(4) 0.2675(6)
C11_3 C 0.8048(4) 0.6076(4) 0.3367(6)
H5_3 H 0.8304 0.6247 0.3948
C12_3 C 0.7962(3) 0.5311(4) 0.3195(5)
H6_3 H 0.8164 0.4968 0.3660
C13_3 C 0.7580(3) 0.5059(4) 0.2338(5)
C14_3 C 0.7273(3) 0.5567(4) 0.1670(5)
H7_3 H 0.7000 0.5397 0.1098
C15_3 C 0.7359(3) 0.6318(4) 0.1827(6)
H8_3 H 0.7152 0.6657 0.1360
C16_3 C 0.7514(3) 0.4244(4) 0.2143(5)
C19_4 C 0.0210(3) 0.6692(4) 0.9496(5)
H9_4 H 0.0406 0.7092 0.9879
C20_4 C 0.0513(3) 0.6208(4) 0.9241(6)
H10_4 H 0.0915 0.6278 0.9438
C21_4 C 0.0228(3) 0.5606(4) 0.8685(6)
C24_4 C 0.0532(3) 0.5063(4) 0.8439(6)
C25_3 C 0.0738(3) 0.4574(5) 0.8198(6)
C26_3 C 0.0987(3) 0.4043(4) 0.7830(5)
C27_3 C 0.1566(4) 0.4088(4) 0.8005(6)
H13_3 H 0.1814 0.4437 0.8426
C28_3 C 0.1782(3) 0.3626(4) 0.7569(5)
H14_3 H 0.2171 0.3676 0.7668
C29_3 C 0.1423(3) 0.3085(4) 0.6981(5)
C30_3 C 0.0860(3) 0.3017(4) 0.6834(5)
H15_3 H 0.0623 0.2645 0.6441
C31_3 C 0.0625(3) 0.3486(4) 0.7254(5)
H16_3 H 0.0236 0.3432 0.7156
C32_3 C 0.1666(3) 0.2597(3) 0.6508(5)
H19_4 H 0.0329 0.7278 0.7267
C40_4 C 0.0302(4) 0.7511(5) 0.5674(6)
C41_4 C 0.0663(3) 0.7556(5) 0.5406(6)
C42_4 C 0.1103(3) 0.7538(4) 0.5103(6)
C43_3 C 0.1107(4) 0.8019(5) 0.4458(7)
H21_3 H 0.0818 0.8389 0.4216
C44_3 C 0.1531(3) 0.7963(5) 0.4160(6)
H22_3 H 0.1521 0.8282 0.3704
C45_3 C 0.1971(3) 0.7433(4) 0.4541(5)
C46_4 C 0.1974(4) 0.6970(5) 0.5192(7)
H23_4 H 0.2272 0.6613 0.5449
C47_4 C 0.1546(4) 0.7014(5) 0.5488(7)
H24_4 H 0.1557 0.6693 0.5942
C48_3 C 0.2455(3) 0.7386(4) 0.4276(5)
O5_4 O 0.9563(2) 0.7487(3) 0.0226(4)
N3_4 N 0.8599(3) 0.6761(3) 0.0691(5)
N4_4 N 0.9044(3) 0.8021(3) 0.1494(5)
C59_4 C 0.8349(4) 0.6155(4) 0.0222(6)
C60_4 C 0.8311(4) 0.5502(4) 0.0629(6)
H34_4 H 0.8125 0.5080 0.0283
C61_4 C 0.8547(3) 0.5486(4) 0.1540(6)
H35_4 H 0.8530 0.5046 0.1834
C62_4 C 0.8811(4) 0.6107(4) 0.2038(6)
H36_4 H 0.8974 0.6105 0.2671
C63_4 C 0.8828(3) 0.6742(4) 0.1567(6)
C64_4 C 0.9082(3) 0.7454(4) 0.2028(5)
C65_4 C 0.9314(4) 0.7548(5) 0.2961(6)
H37_4 H 0.9331 0.7145 0.3332
C66_4 C 0.9517(4) 0.8240(5) 0.3332(6)
H38_4 H 0.9689 0.8311 0.3960
C67_4 C 0.9461(4) 0.8832(5) 0.2757(6)
H39_4 H 0.9582 0.9313 0.2986
C68_4 C 0.9224(4) 0.8695(4) 0.1847(6)
H40_4 H 0.9188 0.9092 0.1456
H31 H 0.1528 0.0228 0.8407
O11_2 O 0.7863(2) 0.8042(3) 0.9762(4)
O12_2 O 0.7437(2) 0.7227(3) 0.8647(4)
N1_2 N 0.1989(3) 0.7236(3) 0.9785(5)
N2_2 N 0.1794(3) 0.8652(3) 0.9431(4)
H17_2 H 0.3420 0.7682 0.9993
H18_2 H 0.4178 0.7504 0.9623
C43_4 C 0.6107(4) 0.6981(5) 0.9458(7)
H21_4 H 0.5818 0.6611 0.9216
C44_4 C 0.6531(3) 0.7037(5) 0.9160(6)
H22_4 H 0.6521 0.6718 0.8704
C45_4 C 0.6971(3) 0.7567(4) 0.9541(5)
C48_4 C 0.7455(3) 0.7614(4) 0.9276(5)
C50_2 C 0.2062(4) 0.5974(4) 0.9428(7)
H26_2 H 0.2171 0.5481 0.9623
C51_2 C 0.1823(4) 0.6160(5) 0.8524(7)
H27_2 H 0.1765 0.5790 0.8091
C52_2 C 0.1673(4) 0.6884(5) 0.8257(6)
H28_2 H 0.1513 0.7019 0.7645
C53_2 C 0.1765(3) 0.7409(4) 0.8921(6)
C54_2 C 0.1658(3) 0.8213(4) 0.8710(5)
C55_2 C 0.1457(4) 0.8502(5) 0.7854(6)
H29_2 H 0.1354 0.8183 0.7357
C56_2 C 0.1407(4) 0.9259(5) 0.7732(6)
H30_2 H 0.1274 0.9466 0.7152
C57_2 C 0.1556(4) 0.9707(5) 0.8472(7)
C58_2 C 0.1748(4) 0.9385(5) 0.9319(6)
H32_2 H 0.1847 0.9693 0.9825
Co7 Co 0.79643(4) 0.73172(5) 0.79557(6)
O7_2 O 0.7215(2) 0.7592(3) 0.6764(4)
O8_2 O 0.6339(2) 0.7237(3) 0.5827(4)
C25_4 C 0.5738(3) 0.9574(5) 0.8198(6)
C26_4 C 0.5987(3) 0.9043(4) 0.7830(5)
C27_4 C 0.6566(4) 0.9088(4) 0.8005(6)
H13_4 H 0.6814 0.9437 0.8426
C28_4 C 0.6782(3) 0.8626(4) 0.7569(5)
H14_4 H 0.7171 0.8676 0.7668
C29_4 C 0.6423(3) 0.8085(4) 0.6981(5)
C30_4 C 0.5860(3) 0.8017(4) 0.6834(5)
H15_4 H 0.5623 0.7645 0.6441
C31_4 C 0.5625(3) 0.8486(4) 0.7254(5)
H16_4 H 0.5236 0.8432 0.7156
C32_4 C 0.6666(3) 0.7597(3) 0.6508(5)
H31_2 H 0.1528 0.9772 0.3407
Co9_2 Co 0.71186(4) 0.68806(5) 0.56896(6)
O3_2 O 0.7828(2) 0.6187(3) 0.7773(4)
O4_2 O 0.7158(2) 0.5937(3) 0.6360(4)
C3_4 C 0.8446(3) 0.0243(4) 0.9241(5)
H1_4 H 0.8645 0.0086 0.9846
C4_4 C 0.8342(3) 0.0988(4) 0.9060(6)
H2_4 H 0.8471 0.1336 0.9534
C5_4 C 0.8045(3) 0.1222(4) 0.8174(6)
C6_4 C 0.7867(4) 0.0705(4) 0.7482(6)
H3_4 H 0.7674 0.0864 0.6878
C8_4 C 0.7934(4) 0.1999(4) 0.7971(6)
C9_4 C 0.7853(4) 0.2644(5) 0.7832(6)
C10_4 C 0.7752(3) 0.3419(4) 0.7675(6)
C11_4 C 0.8048(4) 0.3924(4) 0.8367(6)
H5_4 H 0.8304 0.3753 0.8948
C12_4 C 0.7962(3) 0.4689(4) 0.8195(5)
H6_4 H 0.8164 0.5032 0.8660
C13_4 C 0.7580(3) 0.4941(4) 0.7338(5)
C14_4 C 0.7273(3) 0.4433(4) 0.6670(5)
H7_4 H 0.7000 0.4603 0.6098
C15_4 C 0.7359(3) 0.3682(4) 0.6827(6)
H8_4 H 0.7152 0.3343 0.6360
C16_4 C 0.7514(3) 0.5756(4) 0.7143(5)
O1_4 O 0.8745(2) 0.8780(3) 0.9605(3)
O2_4 O 0.8143(2) 0.8453(3) 0.8186(4)
O6_4 O 0.8738(2) 0.7096(3) 0.9143(3)
O9_4 O 0.8471(2) 0.7330(3) 0.7282(4)
O10_4 O 0.7955(2) 0.6852(3) 0.5910(4)
N1_3 N 0.6989(3) 0.7764(3) 0.4785(5)
N2_3 N 0.6794(3) 0.6348(3) 0.4431(4)
C1_4 C 0.8397(3) 0.8912(4) 0.8808(5)
C2_4 C 0.8272(3) 0.9725(4) 0.8578(5)
C7_4 C 0.7971(3) 0.9958(4) 0.7676(5)
H4_4 H 0.7842 0.9607 0.7206
C17_4 C 0.9300(3) 0.7099(4) 0.9530(5)
C18_4 C 0.9615(3) 0.6605(4) 0.9200(5)
C22_4 C 0.9633(3) 0.5519(4) 0.8397(5)
H11_4 H 0.9438 0.5114 0.8023
C23_4 C 0.9321(3) 0.6014(4) 0.8646(5)
H12_4 H 0.8917 0.5950 0.8443
C33_4 C 0.8410(3) 0.7114(4) 0.6537(5)
C34_4 C 0.8916(3) 0.7211(4) 0.6332(5)
C35_4 C 0.8808(3) 0.7318(4) 0.5451(5)
H17_3 H 0.8420 0.7318 0.4993
C36_4 C 0.9258(3) 0.7423(4) 0.5228(6)
H18_3 H 0.9178 0.7496 0.4623
C37_4 C 0.9840(3) 0.7422(4) 0.5916(6)
C38_4 C 0.9943(4) 0.7294(5) 0.6803(6)
C39_4 C 0.9488(3) 0.7193(5) 0.7003(6)
H20_4 H 0.9563 0.7110 0.7605
C49_4 C 0.7132(3) 0.8461(4) 0.5036(7)
H25_4 H 0.7288 0.8579 0.5653
C50_3 C 0.7062(4) 0.9026(4) 0.4428(7)
H26_3 H 0.7171 0.9519 0.4623
C51_3 C 0.6823(4) 0.8840(5) 0.3524(7)
H27_3 H 0.6765 0.9210 0.3091
C52_3 C 0.6673(4) 0.8116(5) 0.3257(6)
H28_3 H 0.6513 0.7981 0.2645
C53_3 C 0.6765(3) 0.7591(4) 0.3921(6)
C54_3 C 0.6658(3) 0.6787(4) 0.3710(5)
C55_3 C 0.6457(4) 0.6498(5) 0.2854(6)
H29_3 H 0.6354 0.6817 0.2357
C56_3 C 0.6407(4) 0.5741(5) 0.2732(6)
H30_3 H 0.6274 0.5534 0.2152
C57_3 C 0.6556(4) 0.5293(5) 0.3472(7)
H31_3 H 0.6528 0.4772 0.3407
C58_3 C 0.6748(4) 0.5615(5) 0.4319(6)
H32_3 H 0.6847 0.5307 0.4825
H33_4 H 0.8192 0.6170 0.9590
N1_4 N 0.6989(3) 0.2236(3) 0.9785(5)
N2_4 N 0.6794(3) 0.3652(3) 0.9431(4)
H17_4 H 0.8420 0.2682 0.9993
H18_4 H 0.9178 0.2504 0.9623
C50_4 C 0.7062(4) 0.0974(4) 0.9428(7)
H26_4 H 0.7171 0.0481 0.9623
C51_4 C 0.6823(4) 0.1160(5) 0.8524(7)
H27_4 H 0.6765 0.0790 0.8091
C52_4 C 0.6673(4) 0.1884(5) 0.8257(6)
H28_4 H 0.6513 0.2019 0.7645
C53_4 C 0.6765(3) 0.2409(4) 0.8921(6)
C54_4 C 0.6658(3) 0.3213(4) 0.8710(5)
C55_4 C 0.6457(4) 0.3502(5) 0.7854(6)
H29_4 H 0.6354 0.3183 0.7357
C56_4 C 0.6407(4) 0.4259(5) 0.7732(6)
H30_4 H 0.6274 0.4466 0.7152
C57_4 C 0.6556(4) 0.4707(5) 0.8472(7)
H31_4 H 0.6528 0.5228 0.8407
C58_4 C 0.6748(4) 0.4385(5) 0.9319(6)
H32_4 H 0.6847 0.4693 0.9825
loop_
_geom_bond_atom_site_label_1
_geom_bond_atom_site_label_2
_geom_bond_site_symmetry_1
_geom_bond_site_symmetry_2
O7 C32 1_555 1_555
O8 C32 1_555 1_555
C26 C25 1_555 1_555
C27 C26 1_555 1_555
H13 C27 1_555 1_555
C28 C27 1_555 1_555
H14 C28 1_555 1_555
C29 C28 1_555 1_555
C30 C29 1_555 1_555
H15 C30 1_555 1_555
C31 C26 1_555 1_555
H16 C31 1_555 1_555
C32 C29 1_555 1_555
Co6 O7 1_555 1_555
Co9 O7 1_555 1_555
O8 Co9 1_555 1_555
C30 C31 1_555 1_555
Co1 O1 1_555 1_555
Co2 O2 1_555 1_555
Co3 O10 1_555 1_555
O1 C1 1_555 1_555
O2 C1 1_555 1_555
O5 Co1 1_555 1_555
O6 Co1 1_555 1_555
O9 Co2 1_555 1_555
O10 C33 1_555 1_555
N3 Co1 1_555 1_555
N4 Co1 1_555 1_555
C1 C2 1_555 1_555
C2 C3 1_555 1_555
C3 H1 1_555 1_555
C4 C3 1_555 1_555
H2 C4 1_555 1_555
C5 C4 1_555 1_555
C6 C5 1_555 1_555
H3 C6 1_555 1_555
C7 C2 1_555 1_555
H4 C7 1_555 1_555
C8 C5 1_555 1_555
C9 C8 1_555 1_555
C10 C9 1_555 1_555
C11 C10 1_555 1_555
H5 C11 1_555 1_555
C12 C11 1_555 1_555
C13 C12 1_555 1_555
C14 C13 1_555 1_555
H7 C14 1_555 1_555
C15 C10 1_555 1_555
H8 C15 1_555 1_555
C17 O5 1_555 1_555
C18 C17 1_555 1_555
C19 C18 1_555 1_555
H9 C19 1_555 1_555
C20 C19 1_555 1_555
H10 C20 1_555 1_555
C21 C20 1_555 1_555
C22 C21 1_555 1_555
H11 C22 1_555 1_555
C23 C18 1_555 1_555
H12 C23 1_555 1_555
C24 C21 1_555 1_555
C33 O9 1_555 1_555
C34 C33 1_555 1_555
C35 C34 1_555 1_555
C36 C35 1_555 1_555
C37 C36 1_555 1_555
C38 C37 1_555 1_555
H19 C38 1_555 1_555
C39 C34 1_555 1_555
H20 C39 1_555 1_555
C40 C37 1_555 1_555
C41 C40 1_555 1_555
C42 C41 1_555 1_555
H23 C46 1_555 1_555
C47 C42 1_555 1_555
H24 C47 1_555 1_555
H25 C49 1_555 1_555
C59 N3 1_555 1_555
H33 C59 1_555 1_555
C60 C59 1_555 1_555
H34 C60 1_555 1_555
C61 C60 1_555 1_555
H35 C61 1_555 1_555
C62 C61 1_555 1_555
H36 C62 1_555 1_555
C63 N3 1_555 1_555
C64 N4 1_555 1_555
C65 C64 1_555 1_555
H37 C65 1_555 1_555
C66 C65 1_555 1_555
H38 C66 1_555 1_555
C67 C66 1_555 1_555
H39 C67 1_555 1_555
C68 N4 1_555 1_555
H40 C68 1_555 1_555
O13 Co2 1_555 1_555
O14 Co3 1_555 1_555
O15 Co2 1_555 1_555
O16 Co3 1_555 1_555
O17 Co1 1_555 1_555
O18 Co2 1_555 1_555
Co2 O6 1_555 1_555
Co3 O15 1_555 1_555
O6 C17 1_555 1_555
C6 C7 1_555 1_555
C14 C15 1_555 1_555
C22 C23 1_555 1_555
C38 C39 1_555 1_555
C46 C47 1_555 1_555
C62 C63 1_555 1_555
C63 C64 1_555 1_555
C67 C68 1_555 1_555
O13 C16 1_555 1_555
O14 C16 1_555 1_555
O3 C16_2 1_555 1_555
O4 C16_2 1_555 1_555
Co5 O3 1_555 1_555
Co8 O4 1_555 1_555
O5_2 Co1_2 1_555 1_555
N3_2 Co1_2 1_555 1_555
N4_2 Co1_2 1_555 1_555
C59_2 N3_2 1_555 1_555
C60_2 C59_2 1_555 1_555
H34_2 C60_2 1_555 1_555
C61_2 C60_2 1_555 1_555
H35_2 C61_2 1_555 1_555
C62_2 C61_2 1_555 1_555
H36_2 C62_2 1_555 1_555
C63_2 N3_2 1_555 1_555
C64_2 N4_2 1_555 1_555
C65_2 C64_2 1_555 1_555
H37_2 C65_2 1_555 1_555
C66_2 C65_2 1_555 1_555
H38_2 C66_2 1_555 1_555
C67_2 C66_2 1_555 1_555
H39_2 C67_2 1_555 1_555
C68_2 N4_2 1_555 1_555
H40_2 C68_2 1_555 1_555
C62_2 C63_2 1_555 1_555
C63_2 C64_2 1_555 1_555
C67_2 C68_2 1_555 1_555
Co5 O2_2 1_555 1_555
Co8 O10_2 1_555 1_555
O1_2 C1_2 1_555 1_555
O2_2 C1_2 1_555 1_555
O9_2 Co5 1_555 1_555
O10_2 C33_2 1_555 1_555
O11 C48 1_555 1_555
O12 C48 1_555 1_555
N1 Co8 1_555 1_555
N2 Co8 1_555 1_555
C1_2 C2_2 1_555 1_555
C2_2 C3_2 1_555 1_555
C3_2 H1_2 1_555 1_555
C4_2 C3_2 1_555 1_555
H2_2 C4_2 1_555 1_555
C5_2 C4_2 1_555 1_555
C6_2 C5_2 1_555 1_555
H3_2 C6_2 1_555 1_555
C7_2 C2_2 1_555 1_555
H4_2 C7_2 1_555 1_555
C8_2 C5_2 1_555 1_555
C9_2 C8_2 1_555 1_555
C10_2 C9_2 1_555 1_555
C11_2 C10_2 1_555 1_555
H5_2 C11_2 1_555 1_555
C12_2 C11_2 1_555 1_555
C13_2 C12_2 1_555 1_555
C14_2 C13_2 1_555 1_555
H7_2 C14_2 1_555 1_555
C15_2 C10_2 1_555 1_555
H8_2 C15_2 1_555 1_555
C18_2 C17_2 1_555 1_555
C19_2 C18_2 1_555 1_555
H9_2 C19_2 1_555 1_555
C20_2 C19_2 1_555 1_555
H10_2 C20_2 1_555 1_555
C21_2 C20_2 1_555 1_555
C22_2 C21_2 1_555 1_555
H11_2 C22_2 1_555 1_555
C23_2 C18_2 1_555 1_555
H12_2 C23_2 1_555 1_555
C24_2 C21_2 1_555 1_555
C33_2 O9_2 1_555 1_555
C34_2 C33_2 1_555 1_555
C35_2 C34_2 1_555 1_555
H17 C35_2 1_555 1_555
C36_2 C35_2 1_555 1_555
H18 C36_2 1_555 1_555
C37_2 C36_2 1_555 1_555
C38_2 C37_2 1_555 1_555
H19_2 C38_2 1_555 1_555
C39_2 C34_2 1_555 1_555
H20_2 C39_2 1_555 1_555
C40_2 C37_2 1_555 1_555
C41_2 C40_2 1_555 1_555
C42_2 C41_2 1_555 1_555
C43 C42_2 1_555 1_555
H21 C43 1_555 1_555
C44 C43 1_555 1_555
H22 C44 1_555 1_555
C45 C44 1_555 1_555
C46_2 C45 1_555 1_555
H23_2 C46_2 1_555 1_555
C47_2 C42_2 1_555 1_555
H24_2 C47_2 1_555 1_555
C48 C45 1_555 1_555
C49_2 N1 1_555 1_555
H25_2 C49_2 1_555 1_555
C50 C49_2 1_555 1_555
H26 C50 1_555 1_555
C51 C50 1_555 1_555
H27 C51 1_555 1_555
C52 C51 1_555 1_555
H28 C52 1_555 1_555
C53 N1 1_555 1_555
C54 N2 1_555 1_555
C55 C54 1_555 1_555
H29 C55 1_555 1_555
C56 C55 1_555 1_555
H30 C56 1_555 1_555
C57 C56 1_555 1_555
C58 N2 1_555 1_555
H32 C58 1_555 1_555
Co4_2 O11 1_555 1_555
Co6 O12 1_555 1_555
O15_2 Co5 1_555 1_555
O16_2 Co8 1_555 1_555
O18_2 Co5 1_555 1_555
Co5 O6_2 1_555 1_555
Co8 O15_2 1_555 1_555
O6_2 C17_2 1_555 1_555
C6_2 C7_2 1_555 1_555
C14_2 C15_2 1_555 1_555
C22_2 C23_2 1_555 1_555
C38_2 C39_2 1_555 1_555
C46_2 C47_2 1_555 1_555
C52 C53 1_555 1_555
C53 C54 1_555 1_555
C57 C58 1_555 1_555
O15 C32_2 1_555 1_555
O16 C32_2 1_555 1_555
H9_3 C19_3 1_555 1_555
C20_3 C19_3 1_555 1_555
H10_3 C20_3 1_555 1_555
C21_3 C20_3 1_555 1_555
C24_3 C21_3 1_555 1_555
C25_2 C24_3 1_555 1_555
C26_2 C25_2 1_555 1_555
C27_2 C26_2 1_555 1_555
H13_2 C27_2 1_555 1_555
C28_2 C27_2 1_555 1_555
H14_2 C28_2 1_555 1_555
C29_2 C28_2 1_555 1_555
C30_2 C29_2 1_555 1_555
H15_2 C30_2 1_555 1_555
C31_2 C26_2 1_555 1_555
H16_2 C31_2 1_555 1_555
C32_2 C29_2 1_555 1_555
C41_3 C40_3 1_555 1_555
C42_3 C41_3 1_555 1_555
H23_3 C46_3 1_555 1_555
C47_3 C42_3 1_555 1_555
H24_3 C47_3 1_555 1_555
C30_2 C31_2 1_555 1_555
C46_3 C47_3 1_555 1_555
O17_2 C48_2 1_555 1_555
O18_2 C48_2 1_555 1_555
H21_2 C43_2 1_555 1_555
C44_2 C43_2 1_555 1_555
H22_2 C44_2 1_555 1_555
C45_2 C44_2 1_555 1_555
C48_2 C45_2 1_555 1_555
Co4_2 O1_3 1_555 1_555
Co6 O2_3 1_555 1_555
Co9 O10_3 1_555 1_555
O1_3 C1_3 1_555 1_555
O2_3 C1_3 1_555 1_555
O5_3 Co4_2 1_555 1_555
O6_3 Co4_2 1_555 1_555
O9_3 Co6 1_555 1_555
O10_3 C33_3 1_555 1_555
N3_3 Co4_2 1_555 1_555
N4_3 Co4_2 1_555 1_555
C1_3 C2_3 1_555 1_555
C7_3 C2_3 1_555 1_555
H4_3 C7_3 1_555 1_555
C17_3 O5_3 1_555 1_555
C18_3 C17_3 1_555 1_555
H11_3 C22_3 1_555 1_555
C23_3 C18_3 1_555 1_555
H12_3 C23_3 1_555 1_555
C33_3 O9_3 1_555 1_555
C34_3 C33_3 1_555 1_555
C35_3 C34_3 1_555 1_555
C36_3 C35_3 1_555 1_555
C37_3 C36_3 1_555 1_555
C38_3 C37_3 1_555 1_555
C39_3 C34_3 1_555 1_555
H20_3 C39_3 1_555 1_555
H25_3 C49_3 1_555 1_555
C59_3 N3_3 1_555 1_555
H33_3 C59_3 1_555 1_555
C60_3 C59_3 1_555 1_555
H34_3 C60_3 1_555 1_555
C61_3 C60_3 1_555 1_555
H35_3 C61_3 1_555 1_555
C62_3 C61_3 1_555 1_555
H36_3 C62_3 1_555 1_555
C63_3 N3_3 1_555 1_555
C64_3 N4_3 1_555 1_555
C65_3 C64_3 1_555 1_555
H37_3 C65_3 1_555 1_555
C66_3 C65_3 1_555 1_555
H38_3 C66_3 1_555 1_555
C67_3 C66_3 1_555 1_555
H39_3 C67_3 1_555 1_555
C68_3 N4_3 1_555 1_555
H40_3 C68_3 1_555 1_555
O13_2 Co6 1_555 1_555
O14_2 Co9 1_555 1_555
Co6 O6_3 1_555 1_555
O6_3 C17_3 1_555 1_555
C22_3 C23_3 1_555 1_555
C38_3 C39_3 1_555 1_555
C62_3 C63_3 1_555 1_555
C63_3 C64_3 1_555 1_555
C67_3 C68_3 1_555 1_555
O13_2 C16_3 1_555 1_555
O14_2 C16_3 1_555 1_555
C3_3 H1_3 1_555 1_555
C4_3 C3_3 1_555 1_555
H2_3 C4_3 1_555 1_555
C5_3 C4_3 1_555 1_555
C6_3 C5_3 1_555 1_555
H3_3 C6_3 1_555 1_555
C8_3 C5_3 1_555 1_555
C9_3 C8_3 1_555 1_555
C10_3 C9_3 1_555 1_555
C11_3 C10_3 1_555 1_555
H5_3 C11_3 1_555 1_555
C12_3 C11_3 1_555 1_555
H6_3 C12_3 1_555 1_555
C13_3 C12_3 1_555 1_555
C14_3 C13_3 1_555 1_555
H7_3 C14_3 1_555 1_555
C15_3 C10_3 1_555 1_555
H8_3 C15_3 1_555 1_555
C16_3 C13_3 1_555 1_555
C14_3 C15_3 1_555 1_555
O15_2 C32_3 1_555 1_555
O16_2 C32_3 1_555 1_555
O17 C48_3 1_555 1_555
O18 C48_3 1_555 1_555
H9_4 C19_4 1_555 1_555
C20_4 C19_4 1_555 1_555
H10_4 C20_4 1_555 1_555
C21_4 C20_4 1_555 1_555
C24_4 C21_4 1_555 1_555
C25_3 C24_4 1_555 1_555
C26_3 C25_3 1_555 1_555
C27_3 C26_3 1_555 1_555
H13_3 C27_3 1_555 1_555
C28_3 C27_3 1_555 1_555
H14_3 C28_3 1_555 1_555
C29_3 C28_3 1_555 1_555
C30_3 C29_3 1_555 1_555
H15_3 C30_3 1_555 1_555
C31_3 C26_3 1_555 1_555
H16_3 C31_3 1_555 1_555
C32_3 C29_3 1_555 1_555
C41_4 C40_4 1_555 1_555
C42_4 C41_4 1_555 1_555
C43_3 C42_4 1_555 1_555
H21_3 C43_3 1_555 1_555
C44_3 C43_3 1_555 1_555
H22_3 C44_3 1_555 1_555
C45_3 C44_3 1_555 1_555
C46_4 C45_3 1_555 1_555
H23_4 C46_4 1_555 1_555
C47_4 C42_4 1_555 1_555
H24_4 C47_4 1_555 1_555
C48_3 C45_3 1_555 1_555
C30_3 C31_3 1_555 1_555
C46_4 C47_4 1_555 1_555
O5_4 Co4 1_555 1_555
N3_4 Co4 1_555 1_555
N4_4 Co4 1_555 1_555
C59_4 N3_4 1_555 1_555
C60_4 C59_4 1_555 1_555
H34_4 C60_4 1_555 1_555
C61_4 C60_4 1_555 1_555
H35_4 C61_4 1_555 1_555
C62_4 C61_4 1_555 1_555
H36_4 C62_4 1_555 1_555
C63_4 N3_4 1_555 1_555
C64_4 N4_4 1_555 1_555
C65_4 C64_4 1_555 1_555
H37_4 C65_4 1_555 1_555
C66_4 C65_4 1_555 1_555
H38_4 C66_4 1_555 1_555
C67_4 C66_4 1_555 1_555
H39_4 C67_4 1_555 1_555
C68_4 N4_4 1_555 1_555
H40_4 C68_4 1_555 1_555
C62_4 C63_4 1_555 1_555
C63_4 C64_4 1_555 1_555
C67_4 C68_4 1_555 1_555
O11_2 C48_4 1_555 1_555
O12_2 C48_4 1_555 1_555
H21_4 C43_4 1_555 1_555
C44_4 C43_4 1_555 1_555
H22_4 C44_4 1_555 1_555
C45_4 C44_4 1_555 1_555
C48_4 C45_4 1_555 1_555
H26_2 C50_2 1_555 1_555
C51_2 C50_2 1_555 1_555
H27_2 C51_2 1_555 1_555
C52_2 C51_2 1_555 1_555
H28_2 C52_2 1_555 1_555
C53_2 N1_2 1_555 1_555
C54_2 N2_2 1_555 1_555
C55_2 C54_2 1_555 1_555
H29_2 C55_2 1_555 1_555
C56_2 C55_2 1_555 1_555
H30_2 C56_2 1_555 1_555
C57_2 C56_2 1_555 1_555
C58_2 N2_2 1_555 1_555
H32_2 C58_2 1_555 1_555
Co7 O12_2 1_555 1_555
C52_2 C53_2 1_555 1_555
C53_2 C54_2 1_555 1_555
C57_2 C58_2 1_555 1_555
O7_2 C32_4 1_555 1_555
O8_2 C32_4 1_555 1_555
C26_4 C25_4 1_555 1_555
C27_4 C26_4 1_555 1_555
H13_4 C27_4 1_555 1_555
C28_4 C27_4 1_555 1_555
H14_4 C28_4 1_555 1_555
C29_4 C28_4 1_555 1_555
C30_4 C29_4 1_555 1_555
H15_4 C30_4 1_555 1_555
C31_4 C26_4 1_555 1_555
H16_4 C31_4 1_555 1_555
C32_4 C29_4 1_555 1_555
Co7 O7_2 1_555 1_555
Co9_2 O7_2 1_555 1_555
O8_2 Co9_2 1_555 1_555
C30_4 C31_4 1_555 1_555
O3_2 C16_4 1_555 1_555
O4_2 C16_4 1_555 1_555
C3_4 H1_4 1_555 1_555
C4_4 C3_4 1_555 1_555
H2_4 C4_4 1_555 1_555
C5_4 C4_4 1_555 1_555
C6_4 C5_4 1_555 1_555
H3_4 C6_4 1_555 1_555
C8_4 C5_4 1_555 1_555
C9_4 C8_4 1_555 1_555
C10_4 C9_4 1_555 1_555
C11_4 C10_4 1_555 1_555
H5_4 C11_4 1_555 1_555
C12_4 C11_4 1_555 1_555
H6_4 C12_4 1_555 1_555
C13_4 C12_4 1_555 1_555
C14_4 C13_4 1_555 1_555
H7_4 C14_4 1_555 1_555
C15_4 C10_4 1_555 1_555
H8_4 C15_4 1_555 1_555
C16_4 C13_4 1_555 1_555
Co7 O3_2 1_555 1_555
Co9_2 O4_2 1_555 1_555
C14_4 C15_4 1_555 1_555
Co7 O2_4 1_555 1_555
Co9_2 O10_4 1_555 1_555
O1_4 C1_4 1_555 1_555
O2_4 C1_4 1_555 1_555
O9_4 Co7 1_555 1_555
O10_4 C33_4 1_555 1_555
N1_3 Co9_2 1_555 1_555
N2_3 Co9_2 1_555 1_555
C1_4 C2_4 1_555 1_555
C7_4 C2_4 1_555 1_555
H4_4 C7_4 1_555 1_555
C18_4 C17_4 1_555 1_555
H11_4 C22_4 1_555 1_555
C23_4 C18_4 1_555 1_555
H12_4 C23_4 1_555 1_555
C33_4 O9_4 1_555 1_555
C34_4 C33_4 1_555 1_555
C35_4 C34_4 1_555 1_555
H17_3 C35_4 1_555 1_555
C36_4 C35_4 1_555 1_555
H18_3 C36_4 1_555 1_555
C37_4 C36_4 1_555 1_555
C38_4 C37_4 1_555 1_555
C39_4 C34_4 1_555 1_555
H20_4 C39_4 1_555 1_555
C49_4 N1_3 1_555 1_555
H25_4 C49_4 1_555 1_555
C50_3 C49_4 1_555 1_555
H26_3 C50_3 1_555 1_555
C51_3 C50_3 1_555 1_555
H27_3 C51_3 1_555 1_555
C52_3 C51_3 1_555 1_555
H28_3 C52_3 1_555 1_555
C53_3 N1_3 1_555 1_555
C54_3 N2_3 1_555 1_555
C55_3 C54_3 1_555 1_555
H29_3 C55_3 1_555 1_555
C56_3 C55_3 1_555 1_555
H30_3 C56_3 1_555 1_555
C57_3 C56_3 1_555 1_555
H31_3 C57_3 1_555 1_555
C58_3 N2_3 1_555 1_555
H32_3 C58_3 1_555 1_555
Co7 O6_4 1_555 1_555
O6_4 C17_4 1_555 1_555
C22_4 C23_4 1_555 1_555
C38_4 C39_4 1_555 1_555
C52_3 C53_3 1_555 1_555
C53_3 C54_3 1_555 1_555
C57_3 C58_3 1_555 1_555
H26_4 C50_4 1_555 1_555
C51_4 C50_4 1_555 1_555
H27_4 C51_4 1_555 1_555
C52_4 C51_4 1_555 1_555
H28_4 C52_4 1_555 1_555
C53_4 N1_4 1_555 1_555
C54_4 N2_4 1_555 1_555
C55_4 C54_4 1_555 1_555
H29_4 C55_4 1_555 1_555
C56_4 C55_4 1_555 1_555
H30_4 C56_4 1_555 1_555
C57_4 C56_4 1_555 1_555
H31_4 C57_4 1_555 1_555
C58_4 N2_4 1_555 1_555
H32_4 C58_4 1_555 1_555
C52_4 C53_4 1_555 1_555
C53_4 C54_4 1_555 1_555
C57_4 C58_4 1_555 1_555

#END
