
###############################################################################
#
# This file contains modified crystal structure data generated from the
# MOF subset of the Cambridge Structural Database (CSD) v543 
# hosted by the Cambridge Crystallographic Data Centre (CCDC).
#
# This work is licensed under the Creative Commons
# Attribution-NonCommercial-ShareAlike 4.0 International License.
# To view a copy of this license, visit
# http://creativecommons.org/licenses/by-nc-sa/4.0/
# or send a letter to
# Creative Commons, PO Box 1866, Mountain View, CA 94042, USA.
#
# CIF created using the CSD Python API on 29 September 2022
# The structure has been converted into the P1 space group
# The structure has a 3D framework
# The original CSD entry LUMDIG is in the tetragonal crystal system
# The framework has been calculated to contain at least 10.0% void space
# The void calculation uses a probe of radius 1.32A, grid spacing 0.4
#
###############################################################################

data_LUMDIG
_chemical_formula_moiety         '(C192 H160 Cd16 N64 O64)n'
_symmetry_cell_setting           triclinic
_symmetry_space_group_name_H-M   'P 1'
_symmetry_Int_Tables_number      1
_space_group_name_Hall           'P 1'
loop_
_symmetry_equiv_pos_site_id
_symmetry_equiv_pos_as_xyz
1 x,y,z
_cell_length_a                   18.569(3)
_cell_length_b                   18.569(3)
_cell_length_c                   23.015(1)
_cell_angle_alpha                90
_cell_angle_beta                 90
_cell_angle_gamma                90
_cell_volume                     7935.75
loop_
_atom_site_label
_atom_site_type_symbol
_atom_site_fract_x
_atom_site_fract_y
_atom_site_fract_z
O1 O 0.7059(4) 0.3654(4) 0.0260(3)
O2 O 0.7252(4) 0.4544(4) 0.0876(3)
H9 H 0.7233 0.5693 0.0316
C12 C 0.7171(5) 0.4309(6) 0.0359(5)
Cd2 Cd 0.71571(3) 0.32877(4) 0.12103(3)
Cd1 Cd 0.71571(3) 0.82877(4) 0.87897(3)
N1 N 0.5770(4) 0.8589(4) 0.7329(3)
H1 H 0.5735 0.8678 0.6964
N2 N 0.6266(4) 0.8437(4) 0.8171(3)
N3 N 0.7264(4) 0.5939(4) 0.8907(3)
H2 H 0.7325 0.5527 0.8743
N4 N 0.7110(4) 0.7107(4) 0.8993(3)
O3 O 0.3365(4) 0.8315(4) 0.6257(3)
O4 O 0.2979(4) 0.8325(5) 0.7160(3)
C1 C 0.5207(5) 0.8444(5) 0.7696(4)
C2 C 0.5533(5) 0.8341(6) 0.8218(4)
H3 H 0.5294 0.8223 0.8559
C3 C 0.6378(5) 0.8571(5) 0.7630(4)
H4 H 0.6832 0.8647 0.747
C4 C 0.4462(5) 0.8381(5) 0.7520(4)
H5 H 0.412 0.8315 0.7809
C5 C 0.4236(5) 0.8410(5) 0.6983(4)
H6 H 0.4577 0.8478 0.6692
C6 C 0.3478(5) 0.8342(5) 0.6810(4)
C7 C 0.7214(5) 0.6064(5) 0.9492(4)
C8 C 0.7119(6) 0.6793(5) 0.9529(4)
H7 H 0.7066 0.7043 0.9876
C9 C 0.7202(6) 0.6569(6) 0.8640(4)
H8 H 0.7222 0.6621 0.8239
C10 C 0.7223(5) 0.5527(5) 0.9935(4)
C11 C 0.7218(5) 0.4823(5) 0.9867(5)
H10 H 0.7247 0.4639 0.9492
O5 O 0.7059(4) 0.8654(4) 0.9740(3)
O6 O 0.7252(4) 0.9544(4) 0.9124(3)
O7 O 0.8365(4) 0.8315(4) 0.8743(3)
O8 O 0.7979(4) 0.8325(5) 0.7840(3)
Cd3 Cd 0.21571(3) 0.82877(4) 0.62103(3)
Cd1_2 Cd 0.21571(3) 0.32877(4) 0.37897(3)
N1_2 N 0.0770(4) 0.3589(4) 0.2329(3)
H1_2 H 0.0735 0.3678 0.1964
N2_2 N 0.1266(4) 0.3437(4) 0.3171(3)
N3_2 N 0.2264(4) 0.0939(4) 0.3907(3)
H2_2 H 0.2325 0.0527 0.3743
N4_2 N 0.2110(4) 0.2107(4) 0.3993(3)
C1_2 C 0.0207(5) 0.3444(5) 0.2696(4)
C2_2 C 0.0533(5) 0.3341(6) 0.3218(4)
H3_2 H 0.0294 0.3223 0.3559
C3_2 C 0.1378(5) 0.3571(5) 0.2630(4)
H4_2 H 0.1832 0.3647 0.247
C7_2 C 0.2214(5) 0.1064(5) 0.4492(4)
C8_2 C 0.2119(6) 0.1793(5) 0.4529(4)
H7_2 H 0.2066 0.2043 0.4876
C9_2 C 0.2202(6) 0.1569(6) 0.3640(4)
H8_2 H 0.2222 0.1621 0.3239
C10_2 C 0.2223(5) 0.0527(5) 0.4935(4)
H9_2 H 0.2233 0.0693 0.5316
O5_2 O 0.2059(4) 0.3654(4) 0.4740(3)
O6_2 O 0.2252(4) 0.4544(4) 0.4124(3)
O7_2 O 0.3365(4) 0.3315(4) 0.3743(3)
O8_2 O 0.2979(4) 0.3325(5) 0.2840(3)
O1_2 O 0.2059(4) 0.8654(4) 0.5260(3)
O2_2 O 0.2252(4) 0.9544(4) 0.5876(3)
C11_2 C 0.2218(5) 0.9823(5) 0.4867(5)
H10_2 H 0.2247 0.9639 0.4492
C12_2 C 0.2171(5) 0.9309(6) 0.5359(5)
O3_2 O 0.8365(4) 0.3315(4) 0.1257(3)
O4_2 O 0.7979(4) 0.3325(5) 0.2160(3)
C4_2 C 0.9462(5) 0.3381(5) 0.2520(4)
H5_2 H 0.912 0.3315 0.2809
C5_2 C 0.9236(5) 0.3410(5) 0.1983(4)
H6_2 H 0.9577 0.3478 0.1692
C6_2 C 0.8478(5) 0.3342(5) 0.1810(4)
N1_3 N 0.0770(4) 0.8589(4) 0.7671(3)
H1_3 H 0.0735 0.8678 0.8036
N2_3 N 0.1266(4) 0.8437(4) 0.6829(3)
N3_3 N 0.2264(4) 0.5939(4) 0.6093(3)
H2_3 H 0.2325 0.5527 0.6257
N4_3 N 0.2110(4) 0.7107(4) 0.6007(3)
C1_3 C 0.0207(5) 0.8444(5) 0.7304(4)
C2_3 C 0.0533(5) 0.8341(6) 0.6782(4)
H3_3 H 0.0294 0.8223 0.6441
C3_3 C 0.1378(5) 0.8571(5) 0.7370(4)
H4_3 H 0.1832 0.8647 0.753
C7_3 C 0.2214(5) 0.6064(5) 0.5508(4)
C8_3 C 0.2119(6) 0.6793(5) 0.5471(4)
H7_3 H 0.2066 0.7043 0.5124
C9_3 C 0.2202(6) 0.6569(6) 0.6360(4)
H8_3 H 0.2222 0.6621 0.6761
C10_3 C 0.2223(5) 0.5527(5) 0.5065(4)
H9_3 H 0.2233 0.5693 0.4684
C11_3 C 0.2218(5) 0.4823(5) 0.5133(5)
H10_3 H 0.2247 0.4639 0.5508
C12_3 C 0.2171(5) 0.4309(6) 0.4641(5)
C4_3 C 0.9462(5) 0.8381(5) 0.7480(4)
H5_3 H 0.912 0.8315 0.7191
C5_3 C 0.9236(5) 0.8410(5) 0.8017(4)
H6_3 H 0.9577 0.8478 0.8308
C6_3 C 0.8478(5) 0.8342(5) 0.8190(4)
N1_4 N 0.5770(4) 0.3589(4) 0.2671(3)
H1_4 H 0.5735 0.3678 0.3036
N2_4 N 0.6266(4) 0.3437(4) 0.1829(3)
N3_4 N 0.7264(4) 0.0939(4) 0.1093(3)
H2_4 H 0.7325 0.0527 0.1257
N4_4 N 0.7110(4) 0.2107(4) 0.1007(3)
C1_4 C 0.5207(5) 0.3444(5) 0.2304(4)
C2_4 C 0.5533(5) 0.3341(6) 0.1782(4)
H3_4 H 0.5294 0.3223 0.1441
C3_4 C 0.6378(5) 0.3571(5) 0.2370(4)
H4_4 H 0.6832 0.3647 0.253
C4_4 C 0.4462(5) 0.3381(5) 0.2480(4)
H5_4 H 0.412 0.3315 0.2191
C5_4 C 0.4236(5) 0.3410(5) 0.3017(4)
H6_4 H 0.4577 0.3478 0.3308
C6_4 C 0.3478(5) 0.3342(5) 0.3190(4)
C7_4 C 0.7214(5) 0.1064(5) 0.0508(4)
C8_4 C 0.7119(6) 0.1793(5) 0.0471(4)
H7_4 H 0.7066 0.2043 0.0124
C9_4 C 0.7202(6) 0.1569(6) 0.1360(4)
H8_4 H 0.7222 0.1621 0.1761
C10_4 C 0.7223(5) 0.0527(5) 0.0065(4)
C12_4 C 0.7171(5) 0.9309(6) 0.9641(5)
N3_5 N 0.1561(4) 0.9764(4) 0.1407(3)
H2_5 H 0.1973 0.9825 0.1243
N4_5 N 0.0393(4) 0.9610(4) 0.1493(3)
O1_3 O 0.3846(4) 0.9559(4) 0.2760(3)
O2_3 O 0.2956(4) 0.9752(4) 0.3376(3)
C7_5 C 0.1436(5) 0.9714(5) 0.1992(4)
C8_5 C 0.0707(5) 0.9619(6) 0.2029(4)
H7_5 H 0.0457 0.9566 0.2376
C9_5 C 0.0931(6) 0.9702(6) 0.1140(4)
H8_5 H 0.0879 0.9722 0.0739
C10_5 C 0.1973(5) 0.9723(5) 0.2435(4)
H9_4 H 0.1807 0.9733 0.2816
C11_4 C 0.2677(5) 0.9718(5) 0.2367(5)
H10_4 H 0.2861 0.9747 0.1992
C12_5 C 0.3191(6) 0.9671(5) 0.2859(5)
Cd2_2 Cd 0.42123(4) 0.96571(3) 0.37103(3)
Cd1_3 Cd 0.92123(4) 0.96571(3) 0.12897(3)
N2_5 N 0.9063(4) 0.8766(4) 0.0671(3)
C1_5 C 0.9056(5) 0.7707(5) 0.0196(4)
C2_5 C 0.9159(6) 0.8033(5) 0.0718(4)
H3_5 H 0.9277 0.7794 0.1059
C3_5 C 0.8929(5) 0.8878(5) 0.0130(4)
C4_5 C 0.9119(5) 0.6962(5) 0.0020(4)
H5_5 H 0.9185 0.662 0.0309
O5_3 O 0.8846(4) 0.9559(4) 0.2240(3)
O6_3 O 0.7956(4) 0.9752(4) 0.1624(3)
N1_5 N 0.8911(4) 0.8270(4) 0.9829(3)
H1_5 H 0.8822 0.8235 0.9464
O3_3 O 0.9185(4) 0.5865(4) 0.8757(3)
O4_3 O 0.9175(5) 0.5479(4) 0.9660(3)
H4_5 H 0.8853 0.9332 0.997
C5_5 C 0.9090(5) 0.6736(5) 0.9483(4)
H6_5 H 0.9022 0.7077 0.9192
C6_5 C 0.9158(5) 0.5978(5) 0.9310(4)
Cd3_2 Cd 0.92123(4) 0.46571(3) 0.87103(3)
Cd1_4 Cd 0.42123(4) 0.46571(3) 0.62897(3)
N1_6 N 0.3911(4) 0.3270(4) 0.4829(3)
H1_6 H 0.3822 0.3235 0.4464
N2_6 N 0.4063(4) 0.3766(4) 0.5671(3)
N3_6 N 0.6561(4) 0.4764(4) 0.6407(3)
H2_6 H 0.6973 0.4825 0.6243
N4_6 N 0.5393(4) 0.4610(4) 0.6493(3)
O1_4 O 0.8846(4) 0.4559(4) 0.7760(3)
O2_4 O 0.7956(4) 0.4752(4) 0.8376(3)
O3_4 O 0.4185(4) 0.0865(4) 0.3757(3)
O4_4 O 0.4175(5) 0.0479(4) 0.4660(3)
C1_6 C 0.4056(5) 0.2707(5) 0.5196(4)
C2_6 C 0.4159(6) 0.3033(5) 0.5718(4)
H3_6 H 0.4277 0.2794 0.6059
C3_6 C 0.3929(5) 0.3878(5) 0.5130(4)
H4_6 H 0.3853 0.4332 0.497
C4_6 C 0.4119(5) 0.1962(5) 0.5020(4)
H5_6 H 0.4185 0.162 0.5309
C5_6 C 0.4090(5) 0.1736(5) 0.4483(4)
H6_6 H 0.4022 0.2077 0.4192
C6_6 C 0.4158(5) 0.0978(5) 0.4310(4)
C7_6 C 0.6436(5) 0.4714(5) 0.6992(4)
C8_6 C 0.5707(5) 0.4619(6) 0.7029(4)
H7_6 H 0.5457 0.4566 0.7376
C9_6 C 0.5931(6) 0.4702(6) 0.6140(4)
H8_6 H 0.5879 0.4722 0.5739
C10_6 C 0.6973(5) 0.4723(5) 0.7435(4)
H9_5 H 0.6807 0.4733 0.7816
C11_5 C 0.7677(5) 0.4718(5) 0.7367(5)
H10_5 H 0.7861 0.4747 0.6992
C12_6 C 0.8191(6) 0.4671(5) 0.7859(5)
O5_4 O 0.3846(4) 0.4559(4) 0.7240(3)
O6_4 O 0.2956(4) 0.4752(4) 0.6624(3)
O7_3 O 0.4185(4) 0.5865(4) 0.6243(3)
O8_3 O 0.4175(5) 0.5479(4) 0.5340(3)
N1_7 N 0.3911(4) 0.8270(4) 0.5171(3)
H1_7 H 0.3822 0.8235 0.5536
N2_7 N 0.4063(4) 0.8766(4) 0.4329(3)
N3_7 N 0.6561(4) 0.9764(4) 0.3593(3)
H2_7 H 0.6973 0.9825 0.3757
N4_7 N 0.5393(4) 0.9610(4) 0.3507(3)
C1_7 C 0.4056(5) 0.7707(5) 0.4804(4)
C2_7 C 0.4159(6) 0.8033(5) 0.4282(4)
H3_7 H 0.4277 0.7794 0.3941
C3_7 C 0.3929(5) 0.8878(5) 0.4870(4)
H4_7 H 0.3853 0.9332 0.503
C4_7 C 0.4119(5) 0.6962(5) 0.4980(4)
H5_7 H 0.4185 0.662 0.4691
C5_7 C 0.4090(5) 0.6736(5) 0.5517(4)
H6_7 H 0.4022 0.7077 0.5808
C6_7 C 0.4158(5) 0.5978(5) 0.5690(4)
C7_7 C 0.6436(5) 0.9714(5) 0.3008(4)
C8_7 C 0.5707(5) 0.9619(6) 0.2971(4)
H7_7 H 0.5457 0.9566 0.2624
C9_7 C 0.5931(6) 0.9702(6) 0.3860(4)
H8_7 H 0.5879 0.9722 0.4261
C10_7 C 0.6973(5) 0.9723(5) 0.2565(4)
H9_6 H 0.6807 0.9733 0.2184
C11_6 C 0.7677(5) 0.9718(5) 0.2633(5)
H10_6 H 0.7861 0.9747 0.3008
C12_7 C 0.8191(6) 0.9671(5) 0.2141(5)
N3_8 N 0.1561(4) 0.4764(4) 0.8593(3)
H2_8 H 0.1973 0.4825 0.8757
N4_8 N 0.0393(4) 0.4610(4) 0.8507(3)
C7_8 C 0.1436(5) 0.4714(5) 0.8008(4)
C8_8 C 0.0707(5) 0.4619(6) 0.7971(4)
H7_8 H 0.0457 0.4566 0.7624
C9_8 C 0.0931(6) 0.4702(6) 0.8860(4)
H8_8 H 0.0879 0.4722 0.9261
C10_8 C 0.1973(5) 0.4723(5) 0.7565(4)
H9_7 H 0.1807 0.4733 0.7184
C11_7 C 0.2677(5) 0.4718(5) 0.7633(5)
H10_7 H 0.2861 0.4747 0.8008
C12_8 C 0.3191(6) 0.4671(5) 0.7141(5)
N2_8 N 0.9063(4) 0.3766(4) 0.9329(3)
C1_8 C 0.9056(5) 0.2707(5) 0.9804(4)
C2_8 C 0.9159(6) 0.3033(5) 0.9282(4)
H3_8 H 0.9277 0.2794 0.8941
C3_8 C 0.8929(5) 0.3878(5) 0.9870(4)
C4_8 C 0.9119(5) 0.1962(5) 0.9980(4)
H5_8 H 0.9185 0.162 0.9691
O7_4 O 0.9185(4) 0.0865(4) 0.1243(3)
O8_4 O 0.9175(5) 0.0479(4) 0.0340(3)
N1_8 N 0.8911(4) 0.3270(4) 0.0171(3)
H1_8 H 0.8822 0.3235 0.0536
H4_8 H 0.8853 0.4332 0.003
C5_8 C 0.9090(5) 0.1736(5) 0.0517(4)
H6_8 H 0.9022 0.2077 0.0808
C6_8 C 0.9158(5) 0.0978(5) 0.0690(4)
Cd3_3 Cd 0.07877(4) 0.03429(3) 0.87103(3)
Cd1_5 Cd 0.07877(4) 0.53429(3) 0.12897(3)
N2_9 N 0.0937(4) 0.6234(4) 0.0671(3)
C1_9 C 0.0944(5) 0.7293(5) 0.0196(4)
C2_9 C 0.0841(6) 0.6967(5) 0.0718(4)
H3_9 H 0.0723 0.7206 0.1059
C3_9 C 0.1071(5) 0.6122(5) 0.0130(4)
C4_9 C 0.0881(5) 0.8038(5) 0.0020(4)
H5_9 H 0.0815 0.838 0.0309
O5_5 O 0.1154(4) 0.5441(4) 0.2240(3)
O6_5 O 0.2044(4) 0.5248(4) 0.1624(3)
O7_5 O 0.0815(4) 0.4135(4) 0.1243(3)
O8_5 O 0.0825(5) 0.4521(4) 0.0340(3)
N3_9 N 0.8439(4) 0.5236(4) 0.1407(3)
H2_9 H 0.8027 0.5175 0.1243
N4_9 N 0.9607(4) 0.5390(4) 0.1493(3)
O1_5 O 0.6154(4) 0.5441(4) 0.2760(3)
O2_5 O 0.7044(4) 0.5248(4) 0.3376(3)
C7_9 C 0.8564(5) 0.5286(5) 0.1992(4)
C8_9 C 0.9293(5) 0.5381(6) 0.2029(4)
H7_9 H 0.9543 0.5434 0.2376
C9_9 C 0.9069(6) 0.5298(6) 0.1140(4)
H8_9 H 0.9121 0.5278 0.0739
C10_9 C 0.8027(5) 0.5277(5) 0.2435(4)
H9_8 H 0.8193 0.5267 0.2816
C11_8 C 0.7323(5) 0.5282(5) 0.2367(5)
H10_8 H 0.7139 0.5253 0.1992
C12_9 C 0.6809(6) 0.5329(5) 0.2859(5)
Cd2_3 Cd 0.57877(4) 0.53429(3) 0.37103(3)
N1_9 N 0.1089(4) 0.1730(4) 0.0171(3)
H1_9 H 0.1178 0.1765 0.0536
H4_9 H 0.1147 0.0668 0.003
C5_9 C 0.0910(5) 0.3264(5) 0.0517(4)
H6_9 H 0.0978 0.2923 0.0808
C6_9 C 0.0842(5) 0.4022(5) 0.0690(4)
N2_10 N 0.0937(4) 0.1234(4) 0.9329(3)
C1_10 C 0.0944(5) 0.2293(5) 0.9804(4)
C2_10 C 0.0841(6) 0.1967(5) 0.9282(4)
H3_10 H 0.0723 0.2206 0.8941
C3_10 C 0.1071(5) 0.1122(5) 0.9870(4)
C4_10 C 0.0881(5) 0.3038(5) 0.9980(4)
H5_10 H 0.0815 0.338 0.9691
O5_6 O 0.1154(4) 0.0441(4) 0.7760(3)
O6_6 O 0.2044(4) 0.0248(4) 0.8376(3)
N3_10 N 0.8439(4) 0.0236(4) 0.8593(3)
H2_10 H 0.8027 0.0175 0.8757
N4_10 N 0.9607(4) 0.0390(4) 0.8507(3)
O1_6 O 0.6154(4) 0.0441(4) 0.7240(3)
O2_6 O 0.7044(4) 0.0248(4) 0.6624(3)
C7_10 C 0.8564(5) 0.0286(5) 0.8008(4)
C8_10 C 0.9293(5) 0.0381(6) 0.7971(4)
H7_10 H 0.9543 0.0434 0.7624
C9_10 C 0.9069(6) 0.0298(6) 0.8860(4)
H8_10 H 0.9121 0.0278 0.9261
C10_10 C 0.8027(5) 0.0277(5) 0.7565(4)
H9_9 H 0.8193 0.0267 0.7184
C11_9 C 0.7323(5) 0.0282(5) 0.7633(5)
H10_9 H 0.7139 0.0253 0.8008
C12_10 C 0.6809(6) 0.0329(5) 0.7141(5)
Cd2_4 Cd 0.57877(4) 0.03429(3) 0.62897(3)
N1_10 N 0.6089(4) 0.6730(4) 0.5171(3)
H1_10 H 0.6178 0.6765 0.5536
N2_11 N 0.5937(4) 0.6234(4) 0.4329(3)
N3_11 N 0.3439(4) 0.5236(4) 0.3593(3)
H2_11 H 0.3027 0.5175 0.3757
N4_11 N 0.4607(4) 0.5390(4) 0.3507(3)
O3_5 O 0.5815(4) 0.9135(4) 0.6243(3)
O4_5 O 0.5825(5) 0.9521(4) 0.5340(3)
C1_11 C 0.5944(5) 0.7293(5) 0.4804(4)
C2_11 C 0.5841(6) 0.6967(5) 0.4282(4)
H3_11 H 0.5723 0.7206 0.3941
C3_11 C 0.6071(5) 0.6122(5) 0.4870(4)
H4_10 H 0.6147 0.5668 0.503
C4_11 C 0.5881(5) 0.8038(5) 0.4980(4)
H5_11 H 0.5815 0.838 0.4691
C5_10 C 0.5910(5) 0.8264(5) 0.5517(4)
H6_10 H 0.5978 0.7923 0.5808
C6_10 C 0.5842(5) 0.9022(5) 0.5690(4)
C7_11 C 0.3564(5) 0.5286(5) 0.3008(4)
C8_11 C 0.4293(5) 0.5381(6) 0.2971(4)
H7_11 H 0.4543 0.5434 0.2624
C9_11 C 0.4069(6) 0.5298(6) 0.3860(4)
H8_11 H 0.4121 0.5278 0.4261
C10_11 C 0.3027(5) 0.5277(5) 0.2565(4)
H9_10 H 0.3193 0.5267 0.2184
C11_10 C 0.2323(5) 0.5282(5) 0.2633(5)
H10_10 H 0.2139 0.5253 0.3008
C12_11 C 0.1809(6) 0.5329(5) 0.2141(5)
O7_6 O 0.5815(4) 0.4135(4) 0.3757(3)
O8_6 O 0.5825(5) 0.4521(4) 0.4660(3)
N1_11 N 0.6089(4) 0.1730(4) 0.4829(3)
H1_11 H 0.6178 0.1765 0.4464
N2_12 N 0.5937(4) 0.1234(4) 0.5671(3)
N3_12 N 0.3439(4) 0.0236(4) 0.6407(3)
H2_12 H 0.3027 0.0175 0.6243
N4_12 N 0.4607(4) 0.0390(4) 0.6493(3)
C1_12 C 0.5944(5) 0.2293(5) 0.5196(4)
C2_12 C 0.5841(6) 0.1967(5) 0.5718(4)
H3_12 H 0.5723 0.2206 0.6059
C3_12 C 0.6071(5) 0.1122(5) 0.5130(4)
H4_11 H 0.6147 0.0668 0.497
C4_12 C 0.5881(5) 0.3038(5) 0.5020(4)
H5_12 H 0.5815 0.338 0.5309
C5_11 C 0.5910(5) 0.3264(5) 0.4483(4)
H6_11 H 0.5978 0.2923 0.4192
C6_11 C 0.5842(5) 0.4022(5) 0.4310(4)
C7_12 C 0.3564(5) 0.0286(5) 0.6992(4)
C8_12 C 0.4293(5) 0.0381(6) 0.7029(4)
H7_12 H 0.4543 0.0434 0.7376
C9_12 C 0.4069(6) 0.0298(6) 0.6140(4)
H8_12 H 0.4121 0.0278 0.5739
C10_12 C 0.3027(5) 0.0277(5) 0.7435(4)
H9_11 H 0.3193 0.0267 0.7816
C11_11 C 0.2323(5) 0.0282(5) 0.7367(5)
H10_11 H 0.2139 0.0253 0.6992
C12_12 C 0.1809(6) 0.0329(5) 0.7859(5)
N1_12 N 0.1089(4) 0.6730(4) 0.9829(3)
H1_12 H 0.1178 0.6765 0.9464
O3_6 O 0.0815(4) 0.9135(4) 0.8757(3)
O4_6 O 0.0825(5) 0.9521(4) 0.9660(3)
H4_12 H 0.1147 0.5668 0.997
C5_12 C 0.0910(5) 0.8264(5) 0.9483(4)
H6_12 H 0.0978 0.7923 0.9192
C6_12 C 0.0842(5) 0.9022(5) 0.9310(4)
H9_12 H 0.7233 0.0693 0.9684
C11_12 C 0.7218(5) 0.9823(5) 0.0133(5)
H10_12 H 0.7247 0.9639 0.0508
Cd1_6 Cd 0.28429(3) 0.17123(4) 0.12103(3)
N1_13 N 0.4230(4) 0.1411(4) 0.2671(3)
H1_13 H 0.4265 0.1322 0.3036
N2_13 N 0.3734(4) 0.1563(4) 0.1829(3)
N3_13 N 0.2736(4) 0.4061(4) 0.1093(3)
H2_13 H 0.2675 0.4473 0.1257
N4_13 N 0.2890(4) 0.2893(4) 0.1007(3)
O3_7 O 0.6635(4) 0.1685(4) 0.3743(3)
O4_7 O 0.7021(4) 0.1675(5) 0.2840(3)
C1_13 C 0.4793(5) 0.1556(5) 0.2304(4)
C2_13 C 0.4467(5) 0.1659(6) 0.1782(4)
H3_13 H 0.4706 0.1777 0.1441
C3_13 C 0.3622(5) 0.1429(5) 0.2370(4)
H4_13 H 0.3168 0.1353 0.253
C4_13 C 0.5538(5) 0.1619(5) 0.2480(4)
H5_13 H 0.588 0.1685 0.2191
C5_13 C 0.5764(5) 0.1590(5) 0.3017(4)
H6_13 H 0.5423 0.1522 0.3308
C6_13 C 0.6522(5) 0.1658(5) 0.3190(4)
C7_13 C 0.2786(5) 0.3936(5) 0.0508(4)
C8_13 C 0.2881(6) 0.3207(5) 0.0471(4)
H7_13 H 0.2934 0.2957 0.0124
C9_13 C 0.2798(6) 0.3431(6) 0.1360(4)
H8_13 H 0.2778 0.3379 0.1761
C10_13 C 0.2777(5) 0.4473(5) 0.0065(4)
C11_13 C 0.2782(5) 0.5177(5) 0.0133(5)
H10_13 H 0.2753 0.5361 0.0508
O5_7 O 0.2941(4) 0.1346(4) 0.0260(3)
O6_7 O 0.2748(4) 0.0456(4) 0.0876(3)
O7_7 O 0.1635(4) 0.1685(4) 0.1257(3)
O8_7 O 0.2021(4) 0.1675(5) 0.2160(3)
Cd3_4 Cd 0.78429(3) 0.17123(4) 0.37897(3)
O1_7 O 0.2941(4) 0.6346(4) 0.9740(3)
O2_7 O 0.2748(4) 0.5456(4) 0.9124(3)
H9_13 H 0.2767 0.4307 0.9684
C12_13 C 0.2829(5) 0.5691(6) 0.9641(5)
Cd2_5 Cd 0.28429(3) 0.67123(4) 0.87897(3)
O3_8 O 0.1635(4) 0.6685(4) 0.8743(3)
O4_8 O 0.2021(4) 0.6675(5) 0.7840(3)
C4_14 C 0.0538(5) 0.6619(5) 0.7480(4)
H5_14 H 0.088 0.6685 0.7191
C5_14 C 0.0764(5) 0.6590(5) 0.8017(4)
H6_14 H 0.0423 0.6522 0.8308
C6_14 C 0.1522(5) 0.6658(5) 0.8190(4)
O1_8 O 0.7941(4) 0.1346(4) 0.4740(3)
O2_8 O 0.7748(4) 0.0456(4) 0.4124(3)
C11_14 C 0.7782(5) 0.0177(5) 0.5133(5)
H10_14 H 0.7753 0.0361 0.5508
C12_14 C 0.7829(5) 0.0691(6) 0.4641(5)
Cd1_7 Cd 0.78429(3) 0.67123(4) 0.62103(3)
N1_14 N 0.9230(4) 0.6411(4) 0.7671(3)
H1_14 H 0.9265 0.6322 0.8036
N2_14 N 0.8734(4) 0.6563(4) 0.6829(3)
N3_14 N 0.7736(4) 0.9061(4) 0.6093(3)
H2_14 H 0.7675 0.9473 0.6257
N4_14 N 0.7890(4) 0.7893(4) 0.6007(3)
C1_14 C 0.9793(5) 0.6556(5) 0.7304(4)
C2_14 C 0.9467(5) 0.6659(6) 0.6782(4)
H3_14 H 0.9706 0.6777 0.6441
C3_14 C 0.8622(5) 0.6429(5) 0.7370(4)
H4_14 H 0.8168 0.6353 0.753
C7_14 C 0.7786(5) 0.8936(5) 0.5508(4)
C8_14 C 0.7881(6) 0.8207(5) 0.5471(4)
H7_14 H 0.7934 0.7957 0.5124
C9_14 C 0.7798(6) 0.8431(6) 0.6360(4)
H8_14 H 0.7778 0.8379 0.6761
C10_14 C 0.7777(5) 0.9473(5) 0.5065(4)
H9_14 H 0.7767 0.9307 0.4684
O5_8 O 0.7941(4) 0.6346(4) 0.5260(3)
O6_8 O 0.7748(4) 0.5456(4) 0.5876(3)
O7_8 O 0.6635(4) 0.6685(4) 0.6257(3)
O8_8 O 0.7021(4) 0.6675(5) 0.7160(3)
C4_15 C 0.0538(5) 0.1619(5) 0.2520(4)
H5_15 H 0.088 0.1685 0.2809
C5_15 C 0.0764(5) 0.1590(5) 0.1983(4)
H6_15 H 0.0423 0.1522 0.1692
C6_15 C 0.1522(5) 0.1658(5) 0.1810(4)
N1_15 N 0.9230(4) 0.1411(4) 0.2329(3)
H1_15 H 0.9265 0.1322 0.1964
N2_15 N 0.8734(4) 0.1563(4) 0.3171(3)
N3_15 N 0.7736(4) 0.4061(4) 0.3907(3)
H2_15 H 0.7675 0.4473 0.3743
N4_15 N 0.7890(4) 0.2893(4) 0.3993(3)
C1_15 C 0.9793(5) 0.1556(5) 0.2696(4)
C2_15 C 0.9467(5) 0.1659(6) 0.3218(4)
H3_15 H 0.9706 0.1777 0.3559
C3_15 C 0.8622(5) 0.1429(5) 0.2630(4)
H4_15 H 0.8168 0.1353 0.247
C7_15 C 0.7786(5) 0.3936(5) 0.4492(4)
C8_15 C 0.7881(6) 0.3207(5) 0.4529(4)
H7_15 H 0.7934 0.2957 0.4876
C9_15 C 0.7798(6) 0.3431(6) 0.3640(4)
H8_15 H 0.7778 0.3379 0.3239
C10_15 C 0.7777(5) 0.4473(5) 0.4935(4)
H9_15 H 0.7767 0.4307 0.5316
C11_15 C 0.7782(5) 0.5177(5) 0.4867(5)
H10_15 H 0.7753 0.5361 0.4492
C12_15 C 0.7829(5) 0.5691(6) 0.5359(5)
C12_16 C 0.2829(5) 0.0691(6) 0.0359(5)
N1_16 N 0.4230(4) 0.6411(4) 0.7329(3)
H1_16 H 0.4265 0.6322 0.6964
N2_16 N 0.3734(4) 0.6563(4) 0.8171(3)
N3_16 N 0.2736(4) 0.9061(4) 0.8907(3)
H2_16 H 0.2675 0.9473 0.8743
N4_16 N 0.2890(4) 0.7893(4) 0.8993(3)
C1_16 C 0.4793(5) 0.6556(5) 0.7696(4)
C2_16 C 0.4467(5) 0.6659(6) 0.8218(4)
H3_16 H 0.4706 0.6777 0.8559
C3_16 C 0.3622(5) 0.6429(5) 0.7630(4)
H4_16 H 0.3168 0.6353 0.747
C4_16 C 0.5538(5) 0.6619(5) 0.7520(4)
H5_16 H 0.588 0.6685 0.7809
C5_16 C 0.5764(5) 0.6590(5) 0.6983(4)
H6_16 H 0.5423 0.6522 0.6692
C6_16 C 0.6522(5) 0.6658(5) 0.6810(4)
C7_16 C 0.2786(5) 0.8936(5) 0.9492(4)
C8_16 C 0.2881(6) 0.8207(5) 0.9529(4)
H7_16 H 0.2934 0.7957 0.9876
C9_16 C 0.2798(6) 0.8431(6) 0.8640(4)
H8_16 H 0.2778 0.8379 0.8239
C10_16 C 0.2777(5) 0.9473(5) 0.9935(4)
C11_16 C 0.2782(5) 0.0177(5) 0.9867(5)
H10_16 H 0.2753 0.0361 0.9492
H9_16 H 0.2767 0.9307 0.0316
loop_
_geom_bond_atom_site_label_1
_geom_bond_atom_site_label_2
_geom_bond_site_symmetry_1
_geom_bond_site_symmetry_2
O1 C12 1_555 1_555
O2 C12 1_555 1_555
Cd2 O1 1_555 1_555
O2 Cd2 1_555 1_555
Cd1 N2 1_555 1_555
N1 H1 1_555 1_555
N2 C2 1_555 1_555
N3 H2 1_555 1_555
N4 Cd1 1_555 1_555
O3 C6 1_555 1_555
O4 C6 1_555 1_555
C1 N1 1_555 1_555
C2 C1 1_555 1_555
H3 C2 1_555 1_555
C3 N1 1_555 1_555
H4 C3 1_555 1_555
C4 C1 1_555 1_555
H5 C4 1_555 1_555
C5 C4 1_555 1_555
H6 C5 1_555 1_555
C6 C5 1_555 1_555
C7 N3 1_555 1_555
C8 N4 1_555 1_555
H7 C8 1_555 1_555
C9 N3 1_555 1_555
H8 C9 1_555 1_555
C10 C7 1_555 1_555
C11 C10 1_555 1_555
H10 C11 1_555 1_555
O5 Cd1 1_555 1_555
O6 Cd1 1_555 1_555
O7 Cd1 1_555 1_555
O8 Cd1 1_555 1_555
Cd3 O3 1_555 1_555
N2 C3 1_555 1_555
N4 C9 1_555 1_555
O4 Cd3 1_555 1_555
C7 C8 1_555 1_555
Cd1_2 N2_2 1_555 1_555
N1_2 H1_2 1_555 1_555
N2_2 C2_2 1_555 1_555
N3_2 H2_2 1_555 1_555
N4_2 Cd1_2 1_555 1_555
C1_2 N1_2 1_555 1_555
C2_2 C1_2 1_555 1_555
H3_2 C2_2 1_555 1_555
C3_2 N1_2 1_555 1_555
H4_2 C3_2 1_555 1_555
C7_2 N3_2 1_555 1_555
C8_2 N4_2 1_555 1_555
H7_2 C8_2 1_555 1_555
C9_2 N3_2 1_555 1_555
H8_2 C9_2 1_555 1_555
C10_2 C7_2 1_555 1_555
H9_2 C10_2 1_555 1_555
O5_2 Cd1_2 1_555 1_555
O6_2 Cd1_2 1_555 1_555
O7_2 Cd1_2 1_555 1_555
O8_2 Cd1_2 1_555 1_555
N2_2 C3_2 1_555 1_555
N4_2 C9_2 1_555 1_555
C7_2 C8_2 1_555 1_555
O1_2 C12_2 1_555 1_555
O2_2 C12_2 1_555 1_555
H10_2 C11_2 1_555 1_555
C12_2 C11_2 1_555 1_555
Cd3 O1_2 1_555 1_555
O2_2 Cd3 1_555 1_555
O3_2 C6_2 1_555 1_555
O4_2 C6_2 1_555 1_555
H5_2 C4_2 1_555 1_555
C5_2 C4_2 1_555 1_555
H6_2 C5_2 1_555 1_555
C6_2 C5_2 1_555 1_555
Cd2 O3_2 1_555 1_555
O4_2 Cd2 1_555 1_555
Cd3 N2_3 1_555 1_555
N1_3 H1_3 1_555 1_555
N2_3 C2_3 1_555 1_555
N3_3 H2_3 1_555 1_555
N4_3 Cd3 1_555 1_555
O5_2 C12_3 1_555 1_555
O6_2 C12_3 1_555 1_555
C1_3 N1_3 1_555 1_555
C2_3 C1_3 1_555 1_555
H3_3 C2_3 1_555 1_555
C3_3 N1_3 1_555 1_555
H4_3 C3_3 1_555 1_555
C7_3 N3_3 1_555 1_555
C8_3 N4_3 1_555 1_555
H7_3 C8_3 1_555 1_555
C9_3 N3_3 1_555 1_555
H8_3 C9_3 1_555 1_555
C10_3 C7_3 1_555 1_555
H9_3 C10_3 1_555 1_555
C11_3 C10_3 1_555 1_555
H10_3 C11_3 1_555 1_555
C12_3 C11_3 1_555 1_555
N2_3 C3_3 1_555 1_555
N4_3 C9_3 1_555 1_555
C7_3 C8_3 1_555 1_555
O7 C6_3 1_555 1_555
O8 C6_3 1_555 1_555
H5_3 C4_3 1_555 1_555
C5_3 C4_3 1_555 1_555
H6_3 C5_3 1_555 1_555
C6_3 C5_3 1_555 1_555
Cd2 N2_4 1_555 1_555
N1_4 H1_4 1_555 1_555
N2_4 C2_4 1_555 1_555
N3_4 H2_4 1_555 1_555
N4_4 Cd2 1_555 1_555
O7_2 C6_4 1_555 1_555
O8_2 C6_4 1_555 1_555
C1_4 N1_4 1_555 1_555
C2_4 C1_4 1_555 1_555
H3_4 C2_4 1_555 1_555
C3_4 N1_4 1_555 1_555
H4_4 C3_4 1_555 1_555
C4_4 C1_4 1_555 1_555
H5_4 C4_4 1_555 1_555
C5_4 C4_4 1_555 1_555
H6_4 C5_4 1_555 1_555
C6_4 C5_4 1_555 1_555
C7_4 N3_4 1_555 1_555
C8_4 N4_4 1_555 1_555
H7_4 C8_4 1_555 1_555
C9_4 N3_4 1_555 1_555
H8_4 C9_4 1_555 1_555
C10_4 C7_4 1_555 1_555
N2_4 C3_4 1_555 1_555
N4_4 C9_4 1_555 1_555
C7_4 C8_4 1_555 1_555
O5 C12_4 1_555 1_555
O6 C12_4 1_555 1_555
N3_5 H2_5 1_555 1_555
O1_3 C12_5 1_555 1_555
O2_3 C12_5 1_555 1_555
C7_5 N3_5 1_555 1_555
C8_5 N4_5 1_555 1_555
H7_5 C8_5 1_555 1_555
C9_5 N3_5 1_555 1_555
H8_5 C9_5 1_555 1_555
C10_5 C7_5 1_555 1_555
H9_4 C10_5 1_555 1_555
C11_4 C10_5 1_555 1_555
H10_4 C11_4 1_555 1_555
C12_5 C11_4 1_555 1_555
Cd2_2 O1_3 1_555 1_555
N4_5 C9_5 1_555 1_555
O2_3 Cd2_2 1_555 1_555
C7_5 C8_5 1_555 1_555
Cd1_3 N2_5 1_555 1_555
N2_5 C2_5 1_555 1_555
C2_5 C1_5 1_555 1_555
H3_5 C2_5 1_555 1_555
C4_5 C1_5 1_555 1_555
H5_5 C4_5 1_555 1_555
O5_3 Cd1_3 1_555 1_555
O6_3 Cd1_3 1_555 1_555
N2_5 C3_5 1_555 1_555
N1_5 H1_5 1_555 1_555
O3_3 C6_5 1_555 1_555
O4_3 C6_5 1_555 1_555
H6_5 C5_5 1_555 1_555
C6_5 C5_5 1_555 1_555
Cd3_2 O3_3 1_555 1_555
O4_3 Cd3_2 1_555 1_555
Cd1_4 N2_6 1_555 1_555
N1_6 H1_6 1_555 1_555
N2_6 C2_6 1_555 1_555
N3_6 H2_6 1_555 1_555
N4_6 Cd1_4 1_555 1_555
O1_4 C12_6 1_555 1_555
O2_4 C12_6 1_555 1_555
O3_4 C6_6 1_555 1_555
O4_4 C6_6 1_555 1_555
C1_6 N1_6 1_555 1_555
C2_6 C1_6 1_555 1_555
H3_6 C2_6 1_555 1_555
C3_6 N1_6 1_555 1_555
H4_6 C3_6 1_555 1_555
C4_6 C1_6 1_555 1_555
H5_6 C4_6 1_555 1_555
C5_6 C4_6 1_555 1_555
H6_6 C5_6 1_555 1_555
C6_6 C5_6 1_555 1_555
C7_6 N3_6 1_555 1_555
C8_6 N4_6 1_555 1_555
H7_6 C8_6 1_555 1_555
C9_6 N3_6 1_555 1_555
H8_6 C9_6 1_555 1_555
C10_6 C7_6 1_555 1_555
H9_5 C10_6 1_555 1_555
C11_5 C10_6 1_555 1_555
H10_5 C11_5 1_555 1_555
C12_6 C11_5 1_555 1_555
O5_4 Cd1_4 1_555 1_555
O6_4 Cd1_4 1_555 1_555
O7_3 Cd1_4 1_555 1_555
O8_3 Cd1_4 1_555 1_555
Cd3_2 O1_4 1_555 1_555
N2_6 C3_6 1_555 1_555
N4_6 C9_6 1_555 1_555
O2_4 Cd3_2 1_555 1_555
C7_6 C8_6 1_555 1_555
Cd2_2 N2_7 1_555 1_555
N1_7 H1_7 1_555 1_555
N2_7 C2_7 1_555 1_555
N3_7 H2_7 1_555 1_555
N4_7 Cd2_2 1_555 1_555
O5_3 C12_7 1_555 1_555
O6_3 C12_7 1_555 1_555
O7_3 C6_7 1_555 1_555
O8_3 C6_7 1_555 1_555
C1_7 N1_7 1_555 1_555
C2_7 C1_7 1_555 1_555
H3_7 C2_7 1_555 1_555
C3_7 N1_7 1_555 1_555
H4_7 C3_7 1_555 1_555
C4_7 C1_7 1_555 1_555
H5_7 C4_7 1_555 1_555
C5_7 C4_7 1_555 1_555
H6_7 C5_7 1_555 1_555
C6_7 C5_7 1_555 1_555
C7_7 N3_7 1_555 1_555
C8_7 N4_7 1_555 1_555
H7_7 C8_7 1_555 1_555
C9_7 N3_7 1_555 1_555
H8_7 C9_7 1_555 1_555
C10_7 C7_7 1_555 1_555
H9_6 C10_7 1_555 1_555
C11_6 C10_7 1_555 1_555
H10_6 C11_6 1_555 1_555
C12_7 C11_6 1_555 1_555
N2_7 C3_7 1_555 1_555
N4_7 C9_7 1_555 1_555
C7_7 C8_7 1_555 1_555
N3_8 H2_8 1_555 1_555
O5_4 C12_8 1_555 1_555
O6_4 C12_8 1_555 1_555
C7_8 N3_8 1_555 1_555
C8_8 N4_8 1_555 1_555
H7_8 C8_8 1_555 1_555
C9_8 N3_8 1_555 1_555
H8_8 C9_8 1_555 1_555
C10_8 C7_8 1_555 1_555
H9_7 C10_8 1_555 1_555
C11_7 C10_8 1_555 1_555
H10_7 C11_7 1_555 1_555
C12_8 C11_7 1_555 1_555
N4_8 C9_8 1_555 1_555
C7_8 C8_8 1_555 1_555
Cd3_2 N2_8 1_555 1_555
N2_8 C2_8 1_555 1_555
C2_8 C1_8 1_555 1_555
H3_8 C2_8 1_555 1_555
C4_8 C1_8 1_555 1_555
H5_8 C4_8 1_555 1_555
N2_8 C3_8 1_555 1_555
N1_8 H1_8 1_555 1_555
O7_4 C6_8 1_555 1_555
O8_4 C6_8 1_555 1_555
H6_8 C5_8 1_555 1_555
C6_8 C5_8 1_555 1_555
Cd1_5 N2_9 1_555 1_555
N2_9 C2_9 1_555 1_555
C2_9 C1_9 1_555 1_555
H3_9 C2_9 1_555 1_555
C4_9 C1_9 1_555 1_555
H5_9 C4_9 1_555 1_555
O5_5 Cd1_5 1_555 1_555
O6_5 Cd1_5 1_555 1_555
O7_5 Cd1_5 1_555 1_555
O8_5 Cd1_5 1_555 1_555
N2_9 C3_9 1_555 1_555
N3_9 H2_9 1_555 1_555
O1_5 C12_9 1_555 1_555
O2_5 C12_9 1_555 1_555
C7_9 N3_9 1_555 1_555
C8_9 N4_9 1_555 1_555
H7_9 C8_9 1_555 1_555
C9_9 N3_9 1_555 1_555
H8_9 C9_9 1_555 1_555
C10_9 C7_9 1_555 1_555
H9_8 C10_9 1_555 1_555
C11_8 C10_9 1_555 1_555
H10_8 C11_8 1_555 1_555
C12_9 C11_8 1_555 1_555
Cd2_3 O1_5 1_555 1_555
N4_9 C9_9 1_555 1_555
O2_5 Cd2_3 1_555 1_555
C7_9 C8_9 1_555 1_555
N1_9 H1_9 1_555 1_555
O7_5 C6_9 1_555 1_555
O8_5 C6_9 1_555 1_555
H6_9 C5_9 1_555 1_555
C6_9 C5_9 1_555 1_555
Cd3_3 N2_10 1_555 1_555
N2_10 C2_10 1_555 1_555
C2_10 C1_10 1_555 1_555
H3_10 C2_10 1_555 1_555
C4_10 C1_10 1_555 1_555
H5_10 C4_10 1_555 1_555
O5_6 Cd3_3 1_555 1_555
O6_6 Cd3_3 1_555 1_555
N2_10 C3_10 1_555 1_555
N3_10 H2_10 1_555 1_555
O1_6 C12_10 1_555 1_555
O2_6 C12_10 1_555 1_555
C7_10 N3_10 1_555 1_555
C8_10 N4_10 1_555 1_555
H7_10 C8_10 1_555 1_555
C9_10 N3_10 1_555 1_555
H8_10 C9_10 1_555 1_555
C10_10 C7_10 1_555 1_555
H9_9 C10_10 1_555 1_555
C11_9 C10_10 1_555 1_555
H10_9 C11_9 1_555 1_555
C12_10 C11_9 1_555 1_555
Cd2_4 O1_6 1_555 1_555
N4_10 C9_10 1_555 1_555
O2_6 Cd2_4 1_555 1_555
C7_10 C8_10 1_555 1_555
Cd2_3 N2_11 1_555 1_555
N1_10 H1_10 1_555 1_555
N2_11 C2_11 1_555 1_555
N3_11 H2_11 1_555 1_555
N4_11 Cd2_3 1_555 1_555
O5_5 C12_11 1_555 1_555
O6_5 C12_11 1_555 1_555
O3_5 C6_10 1_555 1_555
O4_5 C6_10 1_555 1_555
C1_11 N1_10 1_555 1_555
C2_11 C1_11 1_555 1_555
H3_11 C2_11 1_555 1_555
C3_11 N1_10 1_555 1_555
H4_10 C3_11 1_555 1_555
C4_11 C1_11 1_555 1_555
H5_11 C4_11 1_555 1_555
C5_10 C4_11 1_555 1_555
H6_10 C5_10 1_555 1_555
C6_10 C5_10 1_555 1_555
C7_11 N3_11 1_555 1_555
C8_11 N4_11 1_555 1_555
H7_11 C8_11 1_555 1_555
C9_11 N3_11 1_555 1_555
H8_11 C9_11 1_555 1_555
C10_11 C7_11 1_555 1_555
H9_10 C10_11 1_555 1_555
C11_10 C10_11 1_555 1_555
H10_10 C11_10 1_555 1_555
C12_11 C11_10 1_555 1_555
O7_6 Cd2_3 1_555 1_555
O8_6 Cd2_3 1_555 1_555
N2_11 C3_11 1_555 1_555
N4_11 C9_11 1_555 1_555
C7_11 C8_11 1_555 1_555
Cd2_4 N2_12 1_555 1_555
N1_11 H1_11 1_555 1_555
N2_12 C2_12 1_555 1_555
N3_12 H2_12 1_555 1_555
N4_12 Cd2_4 1_555 1_555
O5_6 C12_12 1_555 1_555
O6_6 C12_12 1_555 1_555
O7_6 C6_11 1_555 1_555
O8_6 C6_11 1_555 1_555
C1_12 N1_11 1_555 1_555
C2_12 C1_12 1_555 1_555
H3_12 C2_12 1_555 1_555
C3_12 N1_11 1_555 1_555
H4_11 C3_12 1_555 1_555
C4_12 C1_12 1_555 1_555
H5_12 C4_12 1_555 1_555
C5_11 C4_12 1_555 1_555
H6_11 C5_11 1_555 1_555
C6_11 C5_11 1_555 1_555
C7_12 N3_12 1_555 1_555
C8_12 N4_12 1_555 1_555
H7_12 C8_12 1_555 1_555
C9_12 N3_12 1_555 1_555
H8_12 C9_12 1_555 1_555
C10_12 C7_12 1_555 1_555
H9_11 C10_12 1_555 1_555
C11_11 C10_12 1_555 1_555
H10_11 C11_11 1_555 1_555
C12_12 C11_11 1_555 1_555
N2_12 C3_12 1_555 1_555
N4_12 C9_12 1_555 1_555
C7_12 C8_12 1_555 1_555
N1_12 H1_12 1_555 1_555
O3_6 C6_12 1_555 1_555
O4_6 C6_12 1_555 1_555
H6_12 C5_12 1_555 1_555
C6_12 C5_12 1_555 1_555
H10_12 C11_12 1_555 1_555
Cd1_6 N2_13 1_555 1_555
N1_13 H1_13 1_555 1_555
N2_13 C2_13 1_555 1_555
N3_13 H2_13 1_555 1_555
N4_13 Cd1_6 1_555 1_555
O3_7 C6_13 1_555 1_555
O4_7 C6_13 1_555 1_555
C1_13 N1_13 1_555 1_555
C2_13 C1_13 1_555 1_555
H3_13 C2_13 1_555 1_555
C3_13 N1_13 1_555 1_555
H4_13 C3_13 1_555 1_555
C4_13 C1_13 1_555 1_555
H5_13 C4_13 1_555 1_555
C5_13 C4_13 1_555 1_555
H6_13 C5_13 1_555 1_555
C6_13 C5_13 1_555 1_555
C7_13 N3_13 1_555 1_555
C8_13 N4_13 1_555 1_555
H7_13 C8_13 1_555 1_555
C9_13 N3_13 1_555 1_555
H8_13 C9_13 1_555 1_555
C10_13 C7_13 1_555 1_555
C11_13 C10_13 1_555 1_555
H10_13 C11_13 1_555 1_555
O5_7 Cd1_6 1_555 1_555
O6_7 Cd1_6 1_555 1_555
O7_7 Cd1_6 1_555 1_555
O8_7 Cd1_6 1_555 1_555
Cd3_4 O3_7 1_555 1_555
N2_13 C3_13 1_555 1_555
N4_13 C9_13 1_555 1_555
O4_7 Cd3_4 1_555 1_555
C7_13 C8_13 1_555 1_555
O1_7 C12_13 1_555 1_555
O2_7 C12_13 1_555 1_555
Cd2_5 O1_7 1_555 1_555
O2_7 Cd2_5 1_555 1_555
O3_8 C6_14 1_555 1_555
O4_8 C6_14 1_555 1_555
H5_14 C4_14 1_555 1_555
C5_14 C4_14 1_555 1_555
H6_14 C5_14 1_555 1_555
C6_14 C5_14 1_555 1_555
Cd2_5 O3_8 1_555 1_555
O4_8 Cd2_5 1_555 1_555
O1_8 C12_14 1_555 1_555
O2_8 C12_14 1_555 1_555
H10_14 C11_14 1_555 1_555
C12_14 C11_14 1_555 1_555
Cd3_4 O1_8 1_555 1_555
O2_8 Cd3_4 1_555 1_555
Cd1_7 N2_14 1_555 1_555
N1_14 H1_14 1_555 1_555
N2_14 C2_14 1_555 1_555
N3_14 H2_14 1_555 1_555
N4_14 Cd1_7 1_555 1_555
C1_14 N1_14 1_555 1_555
C2_14 C1_14 1_555 1_555
H3_14 C2_14 1_555 1_555
C3_14 N1_14 1_555 1_555
H4_14 C3_14 1_555 1_555
C7_14 N3_14 1_555 1_555
C8_14 N4_14 1_555 1_555
H7_14 C8_14 1_555 1_555
C9_14 N3_14 1_555 1_555
H8_14 C9_14 1_555 1_555
C10_14 C7_14 1_555 1_555
H9_14 C10_14 1_555 1_555
O5_8 Cd1_7 1_555 1_555
O6_8 Cd1_7 1_555 1_555
O7_8 Cd1_7 1_555 1_555
O8_8 Cd1_7 1_555 1_555
N2_14 C3_14 1_555 1_555
N4_14 C9_14 1_555 1_555
C7_14 C8_14 1_555 1_555
O7_7 C6_15 1_555 1_555
O8_7 C6_15 1_555 1_555
H5_15 C4_15 1_555 1_555
C5_15 C4_15 1_555 1_555
H6_15 C5_15 1_555 1_555
C6_15 C5_15 1_555 1_555
Cd3_4 N2_15 1_555 1_555
N1_15 H1_15 1_555 1_555
N2_15 C2_15 1_555 1_555
N3_15 H2_15 1_555 1_555
N4_15 Cd3_4 1_555 1_555
O5_8 C12_15 1_555 1_555
O6_8 C12_15 1_555 1_555
C1_15 N1_15 1_555 1_555
C2_15 C1_15 1_555 1_555
H3_15 C2_15 1_555 1_555
C3_15 N1_15 1_555 1_555
H4_15 C3_15 1_555 1_555
C7_15 N3_15 1_555 1_555
C8_15 N4_15 1_555 1_555
H7_15 C8_15 1_555 1_555
C9_15 N3_15 1_555 1_555
H8_15 C9_15 1_555 1_555
C10_15 C7_15 1_555 1_555
H9_15 C10_15 1_555 1_555
C11_15 C10_15 1_555 1_555
H10_15 C11_15 1_555 1_555
C12_15 C11_15 1_555 1_555
N2_15 C3_15 1_555 1_555
N4_15 C9_15 1_555 1_555
C7_15 C8_15 1_555 1_555
O5_7 C12_16 1_555 1_555
O6_7 C12_16 1_555 1_555
Cd2_5 N2_16 1_555 1_555
N1_16 H1_16 1_555 1_555
N2_16 C2_16 1_555 1_555
N3_16 H2_16 1_555 1_555
N4_16 Cd2_5 1_555 1_555
O7_8 C6_16 1_555 1_555
O8_8 C6_16 1_555 1_555
C1_16 N1_16 1_555 1_555
C2_16 C1_16 1_555 1_555
H3_16 C2_16 1_555 1_555
C3_16 N1_16 1_555 1_555
H4_16 C3_16 1_555 1_555
C4_16 C1_16 1_555 1_555
H5_16 C4_16 1_555 1_555
C5_16 C4_16 1_555 1_555
H6_16 C5_16 1_555 1_555
C6_16 C5_16 1_555 1_555
C7_16 N3_16 1_555 1_555
C8_16 N4_16 1_555 1_555
H7_16 C8_16 1_555 1_555
C9_16 N3_16 1_555 1_555
H8_16 C9_16 1_555 1_555
C10_16 C7_16 1_555 1_555
N2_16 C3_16 1_555 1_555
N4_16 C9_16 1_555 1_555
C7_16 C8_16 1_555 1_555
H10_16 C11_16 1_555 1_555

#END
