
###############################################################################
#
# This file contains modified crystal structure data generated from the
# MOF subset of the Cambridge Structural Database (CSD) v543 
# hosted by the Cambridge Crystallographic Data Centre (CCDC).
#
# This work is licensed under the Creative Commons
# Attribution-NonCommercial-ShareAlike 4.0 International License.
# To view a copy of this license, visit
# http://creativecommons.org/licenses/by-nc-sa/4.0/
# or send a letter to
# Creative Commons, PO Box 1866, Mountain View, CA 94042, USA.
#
# CIF created using the CSD Python API on 29 September 2022
# The structure has been converted into the P1 space group
# The structure has a 3D framework
# The original CSD entry LUMDEC is in the tetragonal crystal system
# The framework has been calculated to contain at least 10.0% void space
# The void calculation uses a probe of radius 1.32A, grid spacing 0.4
#
###############################################################################

data_LUMDEC
_chemical_formula_moiety         '(C192 H160 Cd16 N64 O64)n'
_symmetry_cell_setting           triclinic
_symmetry_space_group_name_H-M   'P 1'
_symmetry_Int_Tables_number      1
_space_group_name_Hall           'P 1'
loop_
_symmetry_equiv_pos_site_id
_symmetry_equiv_pos_as_xyz
1 x,y,z
_cell_length_a                   18.569(3)
_cell_length_b                   18.569(3)
_cell_length_c                   23.042(2)
_cell_angle_alpha                90
_cell_angle_beta                 90
_cell_angle_gamma                90
_cell_volume                     7945.06
loop_
_atom_site_label
_atom_site_type_symbol
_atom_site_fract_x
_atom_site_fract_y
_atom_site_fract_z
C19 C 0.0224(5) 0.8448(5) 0.7304(4)
C20 C 0.0540(5) 0.8334(6) 0.6788(4)
H16 H 0.03 0.821 0.6449
C21 C 0.1376(4) 0.8561(5) 0.7361(4)
H17 H 0.1833 0.8637 0.7515
N7 N 0.0767(4) 0.8583(4) 0.7678(3)
H20 H 0.0732 0.8667 0.8044
N8 N 0.1262(4) 0.8427(4) 0.6838(3)
Cd2 Cd 0.21538(3) 0.82941(3) 0.62120(3)
N9 N 0.2106(4) 0.7099(4) 0.6005(3)
O9 O 0.2043(4) 0.8663(4) 0.5267(3)
O10 O 0.2239(4) 0.9555(4) 0.5883(3)
O11 O 0.3367(3) 0.8311(4) 0.6259(3)
O12 O 0.2987(3) 0.8322(4) 0.7146(3)
C13 C 0.7198(5) 0.1076(5) 0.0508(4)
C14 C 0.7097(6) 0.1783(5) 0.0473(4)
H11 H 0.7028 0.2032 0.0127
C15 C 0.7201(5) 0.1572(5) 0.1367(4)
H12 H 0.7226 0.1628 0.1767
C16 C 0.7209(5) 0.0530(5) 0.0063(4)
N5 N 0.7260(4) 0.0939(4) 0.1095(3)
H15 H 0.7324 0.0526 0.1255
N6 N 0.7106(4) 0.2099(4) 0.1005(3)
Cd5 Cd 0.71538(3) 0.32941(3) 0.12120(3)
H13 H 0.722 0.0696 0.9682
H7 H 0.722 0.5696 0.0318
C12 C 0.7172(5) 0.4320(6) 0.0376(5)
O1 O 0.7043(4) 0.3663(4) 0.0267(3)
O2 O 0.7239(4) 0.4555(4) 0.0883(3)
C17 C 0.7207(5) 0.9823(6) 0.0128(4)
H14 H 0.7227 0.9633 0.0501
C1 C 0.5224(5) 0.8448(5) 0.7696(4)
C2 C 0.5540(5) 0.8334(6) 0.8212(4)
H1 H 0.53 0.821 0.8551
C3 C 0.6376(4) 0.8561(5) 0.7639(4)
H2 H 0.6833 0.8637 0.7485
C4 C 0.4464(5) 0.8388(5) 0.7514(4)
H3 H 0.4119 0.8329 0.7803
C5 C 0.4241(5) 0.8410(5) 0.6970(4)
H4 H 0.4584 0.8473 0.6681
C6 C 0.3485(5) 0.8342(5) 0.6796(4)
C7 C 0.7198(5) 0.6076(5) 0.9492(4)
C8 C 0.7097(6) 0.6783(5) 0.9527(4)
H5 H 0.7028 0.7032 0.9873
C9 C 0.7201(5) 0.6572(5) 0.8633(4)
H6 H 0.7226 0.6628 0.8233
C10 C 0.7209(5) 0.5530(5) 0.9937(4)
C11 C 0.7207(5) 0.4823(6) 0.9872(4)
H8 H 0.7227 0.4633 0.9499
Cd1 Cd 0.71538(3) 0.82941(3) 0.87880(3)
N1 N 0.5767(4) 0.8583(4) 0.7322(3)
H9 H 0.5732 0.8667 0.6956
N2 N 0.6262(4) 0.8427(4) 0.8162(3)
N3 N 0.7260(4) 0.5939(4) 0.8905(3)
H10 H 0.7324 0.5526 0.8745
N4 N 0.7106(4) 0.7099(4) 0.8995(3)
C18 C 0.7172(5) 0.9320(6) 0.9624(5)
O5 O 0.7043(4) 0.8663(4) 0.9733(3)
O6 O 0.7239(4) 0.9555(4) 0.9117(3)
C22 C 0.9464(5) 0.8388(5) 0.7486(4)
H18 H 0.9119 0.8329 0.7197
C23 C 0.9241(5) 0.8410(5) 0.8030(4)
H19 H 0.9584 0.8473 0.8319
C24 C 0.8485(5) 0.8342(5) 0.8204(4)
O7 O 0.8367(3) 0.8311(4) 0.8741(3)
O8 O 0.7987(3) 0.8322(4) 0.7854(3)
C1_2 C 0.0224(5) 0.3448(5) 0.2696(4)
C2_2 C 0.0540(5) 0.3334(6) 0.3212(4)
H1_2 H 0.03 0.321 0.3551
C3_2 C 0.1376(4) 0.3561(5) 0.2639(4)
H2_2 H 0.1833 0.3637 0.2485
C7_2 C 0.2198(5) 0.1076(5) 0.4492(4)
C8_2 C 0.2097(6) 0.1783(5) 0.4527(4)
H5_2 H 0.2028 0.2032 0.4873
C9_2 C 0.2201(5) 0.1572(5) 0.3633(4)
H6_2 H 0.2226 0.1628 0.3233
C10_2 C 0.2209(5) 0.0530(5) 0.4937(4)
H7_2 H 0.222 0.0696 0.5318
Cd1_2 Cd 0.21538(3) 0.32941(3) 0.37880(3)
N1_2 N 0.0767(4) 0.3583(4) 0.2322(3)
H9_2 H 0.0732 0.3667 0.1956
N2_2 N 0.1262(4) 0.3427(4) 0.3162(3)
N3_2 N 0.2260(4) 0.0939(4) 0.3905(3)
H10_2 H 0.2324 0.0526 0.3745
N4_2 N 0.2106(4) 0.2099(4) 0.3995(3)
C13_2 C 0.2198(5) 0.6076(5) 0.5508(4)
C14_2 C 0.2097(6) 0.6783(5) 0.5473(4)
H11_2 H 0.2028 0.7032 0.5127
C15_2 C 0.2201(5) 0.6572(5) 0.6367(4)
H12_2 H 0.2226 0.6628 0.6767
C16_2 C 0.2209(5) 0.5530(5) 0.5063(4)
H13_2 H 0.222 0.5696 0.4682
C17_2 C 0.2207(5) 0.4823(6) 0.5128(4)
H14_2 H 0.2227 0.4633 0.5501
C18_2 C 0.2172(5) 0.4320(6) 0.4624(5)
N5_2 N 0.2260(4) 0.5939(4) 0.6095(3)
H15_2 H 0.2324 0.5526 0.6255
O5_2 O 0.2043(4) 0.3663(4) 0.4733(3)
O6_2 O 0.2239(4) 0.4555(4) 0.4117(3)
C19_2 C 0.5224(5) 0.3448(5) 0.2304(4)
C20_2 C 0.5540(5) 0.3334(6) 0.1788(4)
H16_2 H 0.53 0.321 0.1449
C21_2 C 0.6376(4) 0.3561(5) 0.2361(4)
H17_2 H 0.6833 0.3637 0.2515
C22_2 C 0.4464(5) 0.3388(5) 0.2486(4)
H18_2 H 0.4119 0.3329 0.2197
C23_2 C 0.4241(5) 0.3410(5) 0.3030(4)
H19_2 H 0.4584 0.3473 0.3319
C24_2 C 0.3485(5) 0.3342(5) 0.3204(4)
N7_2 N 0.5767(4) 0.3583(4) 0.2678(3)
H20_2 H 0.5732 0.3667 0.3044
N8_2 N 0.6262(4) 0.3427(4) 0.1838(3)
O7_2 O 0.3367(3) 0.3311(4) 0.3741(3)
O8_2 O 0.2987(3) 0.3322(4) 0.2854(3)
O11_2 O 0.8367(3) 0.3311(4) 0.1259(3)
O12_2 O 0.7987(3) 0.3322(4) 0.2146(3)
C11_2 C 0.2207(5) 0.9823(6) 0.4872(4)
H8_2 H 0.2227 0.9633 0.4499
C12_2 C 0.2172(5) 0.9320(6) 0.5376(5)
C4_2 C 0.9464(5) 0.3388(5) 0.2514(4)
H3_2 H 0.9119 0.3329 0.2803
C5_2 C 0.9241(5) 0.3410(5) 0.1970(4)
H4_2 H 0.9584 0.3473 0.1681
C6_2 C 0.8485(5) 0.3342(5) 0.1796(4)
N9_2 N 0.0401(4) 0.4606(4) 0.8505(3)
C7_3 C 0.1424(5) 0.9698(5) 0.1992(4)
C8_3 C 0.0717(5) 0.9597(6) 0.2027(4)
H5_3 H 0.0468 0.9528 0.2373
C9_3 C 0.0928(5) 0.9701(5) 0.1133(4)
H6_3 H 0.0872 0.9726 0.0733
C10_3 C 0.1970(5) 0.9709(5) 0.2437(4)
H7_3 H 0.1804 0.972 0.2818
C11_3 C 0.2677(6) 0.9707(5) 0.2372(4)
H8_3 H 0.2867 0.9727 0.1999
C12_3 C 0.3180(6) 0.9672(5) 0.2876(5)
N3_3 N 0.1561(4) 0.9760(4) 0.1405(3)
H10_3 H 0.1974 0.9824 0.1245
N4_3 N 0.0401(4) 0.9606(4) 0.1495(3)
O1_2 O 0.3837(4) 0.9543(4) 0.2767(3)
O2_2 O 0.2945(4) 0.9739(4) 0.3383(3)
Cd3 Cd 0.42059(3) 0.96538(3) 0.37120(3)
H17_3 H 0.8863 0.4333 0.0015
C23_3 C 0.9090(5) 0.1741(5) 0.0530(4)
H19_3 H 0.9027 0.2084 0.0819
C24_3 C 0.9158(5) 0.0985(5) 0.0704(4)
N7_3 N 0.8917(4) 0.3267(4) 0.0178(3)
H20_3 H 0.8833 0.3232 0.0544
O7_3 O 0.9189(4) 0.0867(3) 0.1241(3)
O8_3 O 0.9178(4) 0.0487(3) 0.0354(3)
C19_3 C 0.9052(5) 0.2724(5) 0.9804(4)
C20_3 C 0.9166(6) 0.3040(5) 0.9288(4)
H16_3 H 0.929 0.28 0.8949
C21_3 C 0.8939(5) 0.3876(4) 0.9861(4)
C22_3 C 0.9112(5) 0.1964(5) 0.9986(4)
H18_3 H 0.9171 0.1619 0.9697
N8_3 N 0.9073(4) 0.3762(4) 0.9338(3)
Cd2_2 Cd 0.92059(3) 0.46538(3) 0.87120(3)
O9_2 O 0.8837(4) 0.4543(4) 0.7767(3)
O10_2 O 0.7945(4) 0.4739(4) 0.8383(3)
O11_3 O 0.9189(4) 0.5867(3) 0.8759(3)
O12_3 O 0.9178(4) 0.5487(3) 0.9646(3)
C1_3 C 0.9052(5) 0.7724(5) 0.0196(4)
C2_3 C 0.9166(6) 0.8040(5) 0.0712(4)
H1_3 H 0.929 0.78 0.1051
C3_3 C 0.8939(5) 0.8876(4) 0.0139(4)
C4_3 C 0.9112(5) 0.6964(5) 0.0014(4)
H3_3 H 0.9171 0.6619 0.0303
Cd1_3 Cd 0.92059(3) 0.96538(3) 0.12880(3)
N2_3 N 0.9073(4) 0.8762(4) 0.0662(3)
C13_3 C 0.6424(5) 0.9698(5) 0.3008(4)
C14_3 C 0.5717(5) 0.9597(6) 0.2973(4)
H11_3 H 0.5468 0.9528 0.2627
C15_3 C 0.5928(5) 0.9701(5) 0.3867(4)
H12_3 H 0.5872 0.9726 0.4267
C16_3 C 0.6970(5) 0.9709(5) 0.2563(4)
H13_3 H 0.6804 0.972 0.2182
C17_3 C 0.7677(6) 0.9707(5) 0.2628(4)
H14_3 H 0.7867 0.9727 0.3001
C18_3 C 0.8180(6) 0.9672(5) 0.2124(5)
N5_3 N 0.6561(4) 0.9760(4) 0.3595(3)
H15_3 H 0.6974 0.9824 0.3755
N6_2 N 0.5401(4) 0.9606(4) 0.3505(3)
O5_3 O 0.8837(4) 0.9543(4) 0.2233(3)
O6_3 O 0.7945(4) 0.9739(4) 0.1617(3)
H2_3 H 0.8863 0.9333 0.9985
C5_3 C 0.9090(5) 0.6741(5) 0.9470(4)
H4_3 H 0.9027 0.7084 0.9181
C6_3 C 0.9158(5) 0.5985(5) 0.9296(4)
N1_3 N 0.8917(4) 0.8267(4) 0.9822(3)
H9_3 H 0.8833 0.8232 0.9456
O11_4 O 0.4189(4) 0.0867(3) 0.3759(3)
O12_4 O 0.4178(4) 0.0487(3) 0.4646(3)
C1_4 C 0.4052(5) 0.2724(5) 0.5196(4)
C2_4 C 0.4166(6) 0.3040(5) 0.5712(4)
H1_4 H 0.429 0.28 0.6051
C3_4 C 0.3939(5) 0.3876(4) 0.5139(4)
H2_4 H 0.3863 0.4333 0.4985
C4_4 C 0.4112(5) 0.1964(5) 0.5014(4)
H3_4 H 0.4171 0.1619 0.5303
C5_4 C 0.4090(5) 0.1741(5) 0.4470(4)
H4_4 H 0.4027 0.2084 0.4181
C6_4 C 0.4158(5) 0.0985(5) 0.4296(4)
C7_4 C 0.6424(5) 0.4698(5) 0.6992(4)
C8_4 C 0.5717(5) 0.4597(6) 0.7027(4)
H5_4 H 0.5468 0.4528 0.7373
C9_4 C 0.5928(5) 0.4701(5) 0.6133(4)
H6_4 H 0.5872 0.4726 0.5733
C10_4 C 0.6970(5) 0.4709(5) 0.7437(4)
H7_4 H 0.6804 0.472 0.7818
C11_4 C 0.7677(6) 0.4707(5) 0.7372(4)
H8_4 H 0.7867 0.4727 0.6999
C12_4 C 0.8180(6) 0.4672(5) 0.7876(5)
Cd1_4 Cd 0.42059(3) 0.46538(3) 0.62880(3)
N1_4 N 0.3917(4) 0.3267(4) 0.4822(3)
H9_4 H 0.3833 0.3232 0.4456
N2_4 N 0.4073(4) 0.3762(4) 0.5662(3)
N3_4 N 0.6561(4) 0.4760(4) 0.6405(3)
H10_4 H 0.6974 0.4824 0.6245
N4_4 N 0.5401(4) 0.4606(4) 0.6495(3)
C13_4 C 0.1424(5) 0.4698(5) 0.8008(4)
C14_4 C 0.0717(5) 0.4597(6) 0.7973(4)
H11_4 H 0.0468 0.4528 0.7627
C15_4 C 0.0928(5) 0.4701(5) 0.8867(4)
H12_4 H 0.0872 0.4726 0.9267
C16_4 C 0.1970(5) 0.4709(5) 0.7563(4)
H13_4 H 0.1804 0.472 0.7182
C17_4 C 0.2677(6) 0.4707(5) 0.7628(4)
H14_4 H 0.2867 0.4727 0.8001
C18_4 C 0.3180(6) 0.4672(5) 0.7124(5)
N5_4 N 0.1561(4) 0.4760(4) 0.8595(3)
H15_4 H 0.1974 0.4824 0.8755
O5_4 O 0.3837(4) 0.4543(4) 0.7233(3)
O6_4 O 0.2945(4) 0.4739(4) 0.6617(3)
C19_4 C 0.4052(5) 0.7724(5) 0.4804(4)
C20_4 C 0.4166(6) 0.8040(5) 0.4288(4)
H16_4 H 0.429 0.78 0.3949
C21_4 C 0.3939(5) 0.8876(4) 0.4861(4)
H17_4 H 0.3863 0.9333 0.5015
C22_4 C 0.4112(5) 0.6964(5) 0.4986(4)
H18_4 H 0.4171 0.6619 0.4697
C23_4 C 0.4090(5) 0.6741(5) 0.5530(4)
H19_4 H 0.4027 0.7084 0.5819
C24_4 C 0.4158(5) 0.5985(5) 0.5704(4)
N7_4 N 0.3917(4) 0.8267(4) 0.5178(3)
H20_4 H 0.3833 0.8232 0.5544
N8_4 N 0.4073(4) 0.8762(4) 0.4338(3)
O7_4 O 0.4189(4) 0.5867(3) 0.6241(3)
O8_4 O 0.4178(4) 0.5487(3) 0.5354(3)
Cd4 Cd 0.07941(3) 0.03462(3) 0.87120(3)
C1_5 C 0.0948(5) 0.7276(5) 0.0196(4)
C2_5 C 0.0834(6) 0.6960(5) 0.0712(4)
H1_5 H 0.071 0.72 0.1051
C3_5 C 0.1061(5) 0.6124(4) 0.0139(4)
C4_5 C 0.0888(5) 0.8036(5) 0.0014(4)
H3_5 H 0.0829 0.8381 0.0303
Cd1_5 Cd 0.07941(3) 0.53462(3) 0.12880(3)
N2_5 N 0.0927(4) 0.6238(4) 0.0662(3)
C13_5 C 0.3576(5) 0.5302(5) 0.3008(4)
C14_5 C 0.4283(5) 0.5403(6) 0.2973(4)
H11_5 H 0.4532 0.5472 0.2627
C15_5 C 0.4072(5) 0.5299(5) 0.3867(4)
H12_5 H 0.4128 0.5274 0.4267
C16_5 C 0.3030(5) 0.5291(5) 0.2563(4)
H13_5 H 0.3196 0.528 0.2182
C17_5 C 0.2323(6) 0.5293(5) 0.2628(4)
H14_5 H 0.2133 0.5273 0.3001
C18_5 C 0.1820(6) 0.5328(5) 0.2124(5)
N5_5 N 0.3439(4) 0.5240(4) 0.3595(3)
H15_5 H 0.3026 0.5176 0.3755
N6_3 N 0.4599(4) 0.5394(4) 0.3505(3)
O5_5 O 0.1163(4) 0.5457(4) 0.2233(3)
O6_5 O 0.2055(4) 0.5261(4) 0.1617(3)
H17_5 H 0.1137 0.0667 0.0015
C23_5 C 0.0910(5) 0.3259(5) 0.0530(4)
H19_5 H 0.0973 0.2916 0.0819
C24_5 C 0.0842(5) 0.4015(5) 0.0704(4)
N7_5 N 0.1083(4) 0.1733(4) 0.0178(3)
H20_5 H 0.1167 0.1768 0.0544
O7_5 O 0.0811(4) 0.4133(3) 0.1241(3)
O8_5 O 0.0822(4) 0.4513(3) 0.0354(3)
Cd5_2 Cd 0.57941(3) 0.53462(3) 0.37120(3)
H2_5 H 0.1137 0.5667 0.9985
C5_5 C 0.0910(5) 0.8259(5) 0.9470(4)
H4_5 H 0.0973 0.7916 0.9181
C6_5 C 0.0842(5) 0.9015(5) 0.9296(4)
N1_5 N 0.1083(4) 0.6733(4) 0.9822(3)
H9_5 H 0.1167 0.6768 0.9456
O3 O 0.0811(4) 0.9133(3) 0.8759(3)
O4 O 0.0822(4) 0.9513(3) 0.9646(3)
C19_5 C 0.0948(5) 0.2276(5) 0.9804(4)
C20_5 C 0.0834(6) 0.1960(5) 0.9288(4)
H16_5 H 0.071 0.22 0.8949
C21_5 C 0.1061(5) 0.1124(4) 0.9861(4)
C22_5 C 0.0888(5) 0.3036(5) 0.9986(4)
H18_5 H 0.0829 0.3381 0.9697
N8_5 N 0.0927(4) 0.1238(4) 0.9338(3)
O9_3 O 0.1163(4) 0.0457(4) 0.7767(3)
O10_3 O 0.2055(4) 0.0261(4) 0.8383(3)
C7_5 C 0.8576(5) 0.5302(5) 0.1992(4)
C8_5 C 0.9283(5) 0.5403(6) 0.2027(4)
H5_5 H 0.9532 0.5472 0.2373
C9_5 C 0.9072(5) 0.5299(5) 0.1133(4)
H6_5 H 0.9128 0.5274 0.0733
C10_5 C 0.8030(5) 0.5291(5) 0.2437(4)
H7_5 H 0.8196 0.528 0.2818
C11_5 C 0.7323(6) 0.5293(5) 0.2372(4)
H8_5 H 0.7133 0.5273 0.1999
C12_5 C 0.6820(6) 0.5328(5) 0.2876(5)
N3_5 N 0.8439(4) 0.5240(4) 0.1405(3)
H10_5 H 0.8026 0.5176 0.1245
N4_5 N 0.9599(4) 0.5394(4) 0.1495(3)
O1_3 O 0.6163(4) 0.5457(4) 0.2767(3)
O2_3 O 0.7055(4) 0.5261(4) 0.3383(3)
N9_3 N 0.9599(4) 0.0394(4) 0.8505(3)
C13_6 C 0.3576(5) 0.0302(5) 0.6992(4)
C14_6 C 0.4283(5) 0.0403(6) 0.7027(4)
H11_6 H 0.4532 0.0472 0.7373
C15_6 C 0.4072(5) 0.0299(5) 0.6133(4)
H12_6 H 0.4128 0.0274 0.5733
C16_6 C 0.3030(5) 0.0291(5) 0.7437(4)
H13_6 H 0.3196 0.028 0.7818
C17_6 C 0.2323(6) 0.0293(5) 0.7372(4)
H14_6 H 0.2133 0.0273 0.6999
C18_6 C 0.1820(6) 0.0328(5) 0.7876(5)
N5_6 N 0.3439(4) 0.0240(4) 0.6405(3)
H15_6 H 0.3026 0.0176 0.6245
N6_4 N 0.4599(4) 0.0394(4) 0.6495(3)
Cd5_3 Cd 0.57941(3) 0.03462(3) 0.62880(3)
C7_6 C 0.8576(5) 0.0302(5) 0.8008(4)
C8_6 C 0.9283(5) 0.0403(6) 0.7973(4)
H5_6 H 0.9532 0.0472 0.7627
C9_6 C 0.9072(5) 0.0299(5) 0.8867(4)
H6_6 H 0.9128 0.0274 0.9267
C10_6 C 0.8030(5) 0.0291(5) 0.7563(4)
H7_6 H 0.8196 0.028 0.7182
C11_6 C 0.7323(6) 0.0293(5) 0.7628(4)
H8_6 H 0.7133 0.0273 0.8001
C12_6 C 0.6820(6) 0.0328(5) 0.7124(5)
N3_6 N 0.8439(4) 0.0240(4) 0.8595(3)
H10_6 H 0.8026 0.0176 0.8755
O1_4 O 0.6163(4) 0.0457(4) 0.7233(3)
O2_4 O 0.7055(4) 0.0261(4) 0.6617(3)
C1_6 C 0.5948(5) 0.7276(5) 0.4804(4)
C2_6 C 0.5834(6) 0.6960(5) 0.4288(4)
H1_6 H 0.571 0.72 0.3949
C3_6 C 0.6061(5) 0.6124(4) 0.4861(4)
H2_6 H 0.6137 0.5667 0.5015
C4_6 C 0.5888(5) 0.8036(5) 0.4986(4)
H3_6 H 0.5829 0.8381 0.4697
C5_6 C 0.5910(5) 0.8259(5) 0.5530(4)
H4_6 H 0.5973 0.7916 0.5819
C6_6 C 0.5842(5) 0.9015(5) 0.5704(4)
N1_6 N 0.6083(4) 0.6733(4) 0.5178(3)
H9_6 H 0.6167 0.6768 0.5544
N2_6 N 0.5927(4) 0.6238(4) 0.4338(3)
O3_2 O 0.5811(4) 0.9133(3) 0.6241(3)
O4_2 O 0.5822(4) 0.9513(3) 0.5354(3)
C19_6 C 0.5948(5) 0.2276(5) 0.5196(4)
C20_6 C 0.5834(6) 0.1960(5) 0.5712(4)
H16_6 H 0.571 0.22 0.6051
C21_6 C 0.6061(5) 0.1124(4) 0.5139(4)
H17_6 H 0.6137 0.0667 0.4985
C22_6 C 0.5888(5) 0.3036(5) 0.5014(4)
H18_6 H 0.5829 0.3381 0.5303
C23_6 C 0.5910(5) 0.3259(5) 0.4470(4)
H19_6 H 0.5973 0.2916 0.4181
C24_6 C 0.5842(5) 0.4015(5) 0.4296(4)
N7_6 N 0.6083(4) 0.1733(4) 0.4822(3)
H20_6 H 0.6167 0.1768 0.4456
N8_6 N 0.5927(4) 0.1238(4) 0.5662(3)
O7_6 O 0.5811(4) 0.4133(3) 0.3759(3)
O8_6 O 0.5822(4) 0.4513(3) 0.4646(3)
C1_7 C 0.4776(5) 0.1552(5) 0.2304(4)
C2_7 C 0.4460(5) 0.1666(6) 0.1788(4)
H1_7 H 0.47 0.179 0.1449
C3_7 C 0.3624(4) 0.1439(5) 0.2361(4)
H2_7 H 0.3167 0.1363 0.2515
C4_7 C 0.5536(5) 0.1612(5) 0.2486(4)
H3_7 H 0.5881 0.1671 0.2197
C5_7 C 0.5759(5) 0.1590(5) 0.3030(4)
H4_7 H 0.5416 0.1527 0.3319
C6_7 C 0.6515(5) 0.1658(5) 0.3204(4)
C7_7 C 0.2802(5) 0.3924(5) 0.0508(4)
C8_7 C 0.2903(6) 0.3217(5) 0.0473(4)
H5_7 H 0.2972 0.2968 0.0127
C9_7 C 0.2799(5) 0.3428(5) 0.1367(4)
H6_7 H 0.2774 0.3372 0.1767
C10_7 C 0.2791(5) 0.4470(5) 0.0063(4)
C11_7 C 0.2793(5) 0.5177(6) 0.0128(4)
H8_7 H 0.2773 0.5367 0.0501
Cd1_6 Cd 0.28462(3) 0.17059(3) 0.12120(3)
N1_7 N 0.4233(4) 0.1417(4) 0.2678(3)
H9_7 H 0.4268 0.1333 0.3044
N2_7 N 0.3738(4) 0.1573(4) 0.1838(3)
N3_7 N 0.2740(4) 0.4061(4) 0.1095(3)
H10_7 H 0.2676 0.4474 0.1255
N4_6 N 0.2894(4) 0.2901(4) 0.1005(3)
O3_3 O 0.6633(3) 0.1689(4) 0.3741(3)
O4_3 O 0.7013(3) 0.1678(4) 0.2854(3)
C18_7 C 0.2828(5) 0.0680(6) 0.0376(5)
O5_6 O 0.2957(4) 0.1337(4) 0.0267(3)
O6_6 O 0.2761(4) 0.0445(4) 0.0883(3)
C22_7 C 0.0536(5) 0.1612(5) 0.2514(4)
H18_7 H 0.0881 0.1671 0.2803
C23_7 C 0.0759(5) 0.1590(5) 0.1970(4)
H19_7 H 0.0416 0.1527 0.1681
C24_7 C 0.1515(5) 0.1658(5) 0.1796(4)
O7_7 O 0.1633(3) 0.1689(4) 0.1259(3)
O8_7 O 0.2013(3) 0.1678(4) 0.2146(3)
Cd4_2 Cd 0.78462(3) 0.17059(3) 0.37880(3)
H7_7 H 0.278 0.4304 0.9682
C12_7 C 0.2828(5) 0.5680(6) 0.9624(5)
O1_5 O 0.2957(4) 0.6337(4) 0.9733(3)
O2_5 O 0.2761(4) 0.5445(4) 0.9117(3)
C17_7 C 0.2793(5) 0.0177(6) 0.9872(4)
H14_7 H 0.2773 0.0367 0.9499
Cd3_2 Cd 0.28462(3) 0.67059(3) 0.87880(3)
H13_7 H 0.278 0.9304 0.0318
C13_7 C 0.2802(5) 0.8924(5) 0.9492(4)
C14_7 C 0.2903(6) 0.8217(5) 0.9527(4)
H11_7 H 0.2972 0.7968 0.9873
C15_7 C 0.2799(5) 0.8428(5) 0.8633(4)
H12_7 H 0.2774 0.8372 0.8233
C16_7 C 0.2791(5) 0.9470(5) 0.9937(4)
N5_7 N 0.2740(4) 0.9061(4) 0.8905(3)
H15_7 H 0.2676 0.9474 0.8745
N6_5 N 0.2894(4) 0.7901(4) 0.8995(3)
C19_7 C 0.9776(5) 0.1552(5) 0.2696(4)
C20_7 C 0.9460(5) 0.1666(6) 0.3212(4)
H16_7 H 0.97 0.179 0.3551
C21_7 C 0.8624(4) 0.1439(5) 0.2639(4)
H17_7 H 0.8167 0.1363 0.2485
N7_7 N 0.9233(4) 0.1417(4) 0.2322(3)
H20_7 H 0.9268 0.1333 0.1956
N8_7 N 0.8738(4) 0.1573(4) 0.3162(3)
N9_4 N 0.7894(4) 0.2901(4) 0.3995(3)
O9_4 O 0.7957(4) 0.1337(4) 0.4733(3)
O10_4 O 0.7761(4) 0.0445(4) 0.4117(3)
C4_8 C 0.0536(5) 0.6612(5) 0.7486(4)
H3_8 H 0.0881 0.6671 0.7197
C5_8 C 0.0759(5) 0.6590(5) 0.8030(4)
H4_8 H 0.0416 0.6527 0.8319
C6_8 C 0.1515(5) 0.6658(5) 0.8204(4)
O3_4 O 0.1633(3) 0.6689(4) 0.8741(3)
O4_4 O 0.2013(3) 0.6678(4) 0.7854(3)
C11_8 C 0.7793(5) 0.0177(6) 0.5128(4)
H8_8 H 0.7773 0.0367 0.5501
C12_8 C 0.7828(5) 0.0680(6) 0.4624(5)
C1_8 C 0.9776(5) 0.6552(5) 0.7304(4)
C2_8 C 0.9460(5) 0.6666(6) 0.6788(4)
H1_8 H 0.97 0.679 0.6449
C3_8 C 0.8624(4) 0.6439(5) 0.7361(4)
H2_8 H 0.8167 0.6363 0.7515
C7_8 C 0.7802(5) 0.8924(5) 0.5508(4)
C8_8 C 0.7903(6) 0.8217(5) 0.5473(4)
H5_8 H 0.7972 0.7968 0.5127
C9_8 C 0.7799(5) 0.8428(5) 0.6367(4)
H6_8 H 0.7774 0.8372 0.6767
C10_8 C 0.7791(5) 0.9470(5) 0.5063(4)
H7_8 H 0.778 0.9304 0.4682
Cd1_7 Cd 0.78462(3) 0.67059(3) 0.62120(3)
N1_8 N 0.9233(4) 0.6417(4) 0.7678(3)
H9_8 H 0.9268 0.6333 0.8044
N2_8 N 0.8738(4) 0.6573(4) 0.6838(3)
N3_8 N 0.7740(4) 0.9061(4) 0.6095(3)
H10_8 H 0.7676 0.9474 0.6255
N4_7 N 0.7894(4) 0.7901(4) 0.6005(3)
C13_8 C 0.7802(5) 0.3924(5) 0.4492(4)
C14_8 C 0.7903(6) 0.3217(5) 0.4527(4)
H11_8 H 0.7972 0.2968 0.4873
C15_8 C 0.7799(5) 0.3428(5) 0.3633(4)
H12_8 H 0.7774 0.3372 0.3233
C16_8 C 0.7791(5) 0.4470(5) 0.4937(4)
H13_8 H 0.778 0.4304 0.5318
C17_8 C 0.7793(5) 0.5177(6) 0.4872(4)
H14_8 H 0.7773 0.5367 0.4499
C18_8 C 0.7828(5) 0.5680(6) 0.5376(5)
N5_8 N 0.7740(4) 0.4061(4) 0.3905(3)
H15_8 H 0.7676 0.4474 0.3745
O5_7 O 0.7957(4) 0.6337(4) 0.5267(3)
O6_7 O 0.7761(4) 0.5445(4) 0.5883(3)
C19_8 C 0.4776(5) 0.6552(5) 0.7696(4)
C20_8 C 0.4460(5) 0.6666(6) 0.8212(4)
H16_8 H 0.47 0.679 0.8551
C21_8 C 0.3624(4) 0.6439(5) 0.7639(4)
H17_8 H 0.3167 0.6363 0.7485
C22_8 C 0.5536(5) 0.6612(5) 0.7514(4)
H18_8 H 0.5881 0.6671 0.7803
C23_8 C 0.5759(5) 0.6590(5) 0.6970(4)
H19_8 H 0.5416 0.6527 0.6681
C24_8 C 0.6515(5) 0.6658(5) 0.6796(4)
N7_8 N 0.4233(4) 0.6417(4) 0.7322(3)
H20_8 H 0.4268 0.6333 0.6956
N8_8 N 0.3738(4) 0.6573(4) 0.8162(3)
O7_8 O 0.6633(3) 0.6689(4) 0.6259(3)
O8_8 O 0.7013(3) 0.6678(4) 0.7146(3)
loop_
_geom_bond_atom_site_label_1
_geom_bond_atom_site_label_2
_geom_bond_site_symmetry_1
_geom_bond_site_symmetry_2
C19 C20 1_555 1_555
C20 H16 1_555 1_555
C21 H17 1_555 1_555
N7 C19 1_555 1_555
H20 N7 1_555 1_555
N8 C20 1_555 1_555
Cd2 N8 1_555 1_555
N9 Cd2 1_555 1_555
O9 Cd2 1_555 1_555
O10 Cd2 1_555 1_555
O11 Cd2 1_555 1_555
O12 Cd2 1_555 1_555
C21 N8 1_555 1_555
C21 N7 1_555 1_555
C13 C14 1_555 1_555
C14 H11 1_555 1_555
C15 H12 1_555 1_555
C16 C13 1_555 1_555
N5 C13 1_555 1_555
H15 N5 1_555 1_555
N6 C14 1_555 1_555
Cd5 N6 1_555 1_555
C15 N6 1_555 1_555
C15 N5 1_555 1_555
O1 C12 1_555 1_555
O2 C12 1_555 1_555
H14 C17 1_555 1_555
Cd5 O1 1_555 1_555
O2 Cd5 1_555 1_555
C1 C2 1_555 1_555
C2 H1 1_555 1_555
C3 H2 1_555 1_555
C4 C1 1_555 1_555
H3 C4 1_555 1_555
C5 C4 1_555 1_555
H4 C5 1_555 1_555
C6 C5 1_555 1_555
C7 C8 1_555 1_555
C8 H5 1_555 1_555
C9 H6 1_555 1_555
C10 C7 1_555 1_555
C11 C10 1_555 1_555
H8 C11 1_555 1_555
Cd1 N2 1_555 1_555
N1 C1 1_555 1_555
H9 N1 1_555 1_555
N2 C2 1_555 1_555
N3 C7 1_555 1_555
H10 N3 1_555 1_555
N4 C8 1_555 1_555
O11 C6 1_555 1_555
O12 C6 1_555 1_555
O5 Cd1 1_555 1_555
O6 Cd1 1_555 1_555
H18 C22 1_555 1_555
C23 C22 1_555 1_555
H19 C23 1_555 1_555
C24 C23 1_555 1_555
O7 Cd1 1_555 1_555
O8 Cd1 1_555 1_555
C3 N2 1_555 1_555
C3 N1 1_555 1_555
C9 N4 1_555 1_555
C9 N3 1_555 1_555
Cd1 N4 1_555 1_555
C18 O5 1_555 1_555
C18 O6 1_555 1_555
C24 O7 1_555 1_555
C24 O8 1_555 1_555
C1_2 C2_2 1_555 1_555
C2_2 H1_2 1_555 1_555
C3_2 H2_2 1_555 1_555
C7_2 C8_2 1_555 1_555
C8_2 H5_2 1_555 1_555
C9_2 H6_2 1_555 1_555
C10_2 C7_2 1_555 1_555
H7_2 C10_2 1_555 1_555
Cd1_2 N2_2 1_555 1_555
N1_2 C1_2 1_555 1_555
H9_2 N1_2 1_555 1_555
N2_2 C2_2 1_555 1_555
N3_2 C7_2 1_555 1_555
H10_2 N3_2 1_555 1_555
N4_2 C8_2 1_555 1_555
C13_2 C14_2 1_555 1_555
C14_2 H11_2 1_555 1_555
C15_2 H12_2 1_555 1_555
C16_2 C13_2 1_555 1_555
H13_2 C16_2 1_555 1_555
C17_2 C16_2 1_555 1_555
H14_2 C17_2 1_555 1_555
C18_2 C17_2 1_555 1_555
N5_2 C13_2 1_555 1_555
H15_2 N5_2 1_555 1_555
N9 C14_2 1_555 1_555
O5_2 Cd1_2 1_555 1_555
O6_2 Cd1_2 1_555 1_555
C19_2 C20_2 1_555 1_555
C20_2 H16_2 1_555 1_555
C21_2 H17_2 1_555 1_555
C22_2 C19_2 1_555 1_555
H18_2 C22_2 1_555 1_555
C23_2 C22_2 1_555 1_555
H19_2 C23_2 1_555 1_555
C24_2 C23_2 1_555 1_555
N7_2 C19_2 1_555 1_555
H20_2 N7_2 1_555 1_555
N8_2 C20_2 1_555 1_555
O7_2 Cd1_2 1_555 1_555
O8_2 Cd1_2 1_555 1_555
Cd5 N8_2 1_555 1_555
O11_2 Cd5 1_555 1_555
O12_2 Cd5 1_555 1_555
C3_2 N2_2 1_555 1_555
C3_2 N1_2 1_555 1_555
C9_2 N4_2 1_555 1_555
C9_2 N3_2 1_555 1_555
Cd1_2 N4_2 1_555 1_555
C15_2 N9 1_555 1_555
C15_2 N5_2 1_555 1_555
C18_2 O5_2 1_555 1_555
C18_2 O6_2 1_555 1_555
C21_2 N8_2 1_555 1_555
C21_2 N7_2 1_555 1_555
C24_2 O7_2 1_555 1_555
C24_2 O8_2 1_555 1_555
H8_2 C11_2 1_555 1_555
C12_2 C11_2 1_555 1_555
O9 C12_2 1_555 1_555
O10 C12_2 1_555 1_555
H3_2 C4_2 1_555 1_555
C5_2 C4_2 1_555 1_555
H4_2 C5_2 1_555 1_555
C6_2 C5_2 1_555 1_555
O11_2 C6_2 1_555 1_555
O12_2 C6_2 1_555 1_555
C7_3 C8_3 1_555 1_555
C8_3 H5_3 1_555 1_555
C9_3 H6_3 1_555 1_555
C10_3 C7_3 1_555 1_555
H7_3 C10_3 1_555 1_555
C11_3 C10_3 1_555 1_555
H8_3 C11_3 1_555 1_555
C12_3 C11_3 1_555 1_555
N3_3 C7_3 1_555 1_555
H10_3 N3_3 1_555 1_555
N4_3 C8_3 1_555 1_555
O1_2 C12_3 1_555 1_555
O2_2 C12_3 1_555 1_555
Cd3 O1_2 1_555 1_555
C9_3 N4_3 1_555 1_555
C9_3 N3_3 1_555 1_555
O2_2 Cd3 1_555 1_555
H19_3 C23_3 1_555 1_555
C24_3 C23_3 1_555 1_555
H20_3 N7_3 1_555 1_555
C24_3 O7_3 1_555 1_555
C24_3 O8_3 1_555 1_555
C19_3 C20_3 1_555 1_555
C20_3 H16_3 1_555 1_555
C22_3 C19_3 1_555 1_555
H18_3 C22_3 1_555 1_555
N8_3 C20_3 1_555 1_555
Cd2_2 N8_3 1_555 1_555
O9_2 Cd2_2 1_555 1_555
O10_2 Cd2_2 1_555 1_555
O11_3 Cd2_2 1_555 1_555
O12_3 Cd2_2 1_555 1_555
C21_3 N8_3 1_555 1_555
C1_3 C2_3 1_555 1_555
C2_3 H1_3 1_555 1_555
C4_3 C1_3 1_555 1_555
H3_3 C4_3 1_555 1_555
Cd1_3 N2_3 1_555 1_555
N2_3 C2_3 1_555 1_555
C13_3 C14_3 1_555 1_555
C14_3 H11_3 1_555 1_555
C15_3 H12_3 1_555 1_555
C16_3 C13_3 1_555 1_555
H13_3 C16_3 1_555 1_555
C17_3 C16_3 1_555 1_555
H14_3 C17_3 1_555 1_555
C18_3 C17_3 1_555 1_555
N5_3 C13_3 1_555 1_555
H15_3 N5_3 1_555 1_555
N6_2 C14_3 1_555 1_555
O5_3 Cd1_3 1_555 1_555
O6_3 Cd1_3 1_555 1_555
Cd3 N6_2 1_555 1_555
C3_3 N2_3 1_555 1_555
C15_3 N6_2 1_555 1_555
C15_3 N5_3 1_555 1_555
C18_3 O5_3 1_555 1_555
C18_3 O6_3 1_555 1_555
H4_3 C5_3 1_555 1_555
C6_3 C5_3 1_555 1_555
H9_3 N1_3 1_555 1_555
O11_3 C6_3 1_555 1_555
O12_3 C6_3 1_555 1_555
C1_4 C2_4 1_555 1_555
C2_4 H1_4 1_555 1_555
C3_4 H2_4 1_555 1_555
C4_4 C1_4 1_555 1_555
H3_4 C4_4 1_555 1_555
C5_4 C4_4 1_555 1_555
H4_4 C5_4 1_555 1_555
C6_4 C5_4 1_555 1_555
C7_4 C8_4 1_555 1_555
C8_4 H5_4 1_555 1_555
C9_4 H6_4 1_555 1_555
C10_4 C7_4 1_555 1_555
H7_4 C10_4 1_555 1_555
C11_4 C10_4 1_555 1_555
H8_4 C11_4 1_555 1_555
C12_4 C11_4 1_555 1_555
Cd1_4 N2_4 1_555 1_555
N1_4 C1_4 1_555 1_555
H9_4 N1_4 1_555 1_555
N2_4 C2_4 1_555 1_555
N3_4 C7_4 1_555 1_555
H10_4 N3_4 1_555 1_555
N4_4 C8_4 1_555 1_555
O9_2 C12_4 1_555 1_555
O10_2 C12_4 1_555 1_555
O11_4 C6_4 1_555 1_555
O12_4 C6_4 1_555 1_555
C13_4 C14_4 1_555 1_555
C14_4 H11_4 1_555 1_555
C15_4 H12_4 1_555 1_555
C16_4 C13_4 1_555 1_555
H13_4 C16_4 1_555 1_555
C17_4 C16_4 1_555 1_555
H14_4 C17_4 1_555 1_555
C18_4 C17_4 1_555 1_555
N5_4 C13_4 1_555 1_555
H15_4 N5_4 1_555 1_555
N9_2 C14_4 1_555 1_555
O5_4 Cd1_4 1_555 1_555
O6_4 Cd1_4 1_555 1_555
C19_4 C20_4 1_555 1_555
C20_4 H16_4 1_555 1_555
C21_4 H17_4 1_555 1_555
C22_4 C19_4 1_555 1_555
H18_4 C22_4 1_555 1_555
C23_4 C22_4 1_555 1_555
H19_4 C23_4 1_555 1_555
C24_4 C23_4 1_555 1_555
N7_4 C19_4 1_555 1_555
H20_4 N7_4 1_555 1_555
N8_4 C20_4 1_555 1_555
O7_4 Cd1_4 1_555 1_555
O8_4 Cd1_4 1_555 1_555
Cd3 N8_4 1_555 1_555
C3_4 N2_4 1_555 1_555
C3_4 N1_4 1_555 1_555
C9_4 N4_4 1_555 1_555
C9_4 N3_4 1_555 1_555
Cd1_4 N4_4 1_555 1_555
C15_4 N9_2 1_555 1_555
C15_4 N5_4 1_555 1_555
C18_4 O5_4 1_555 1_555
C18_4 O6_4 1_555 1_555
C21_4 N8_4 1_555 1_555
C21_4 N7_4 1_555 1_555
C24_4 O7_4 1_555 1_555
C24_4 O8_4 1_555 1_555
C1_5 C2_5 1_555 1_555
C2_5 H1_5 1_555 1_555
C4_5 C1_5 1_555 1_555
H3_5 C4_5 1_555 1_555
Cd1_5 N2_5 1_555 1_555
N2_5 C2_5 1_555 1_555
C13_5 C14_5 1_555 1_555
C14_5 H11_5 1_555 1_555
C15_5 H12_5 1_555 1_555
C16_5 C13_5 1_555 1_555
H13_5 C16_5 1_555 1_555
C17_5 C16_5 1_555 1_555
H14_5 C17_5 1_555 1_555
C18_5 C17_5 1_555 1_555
N5_5 C13_5 1_555 1_555
H15_5 N5_5 1_555 1_555
N6_3 C14_5 1_555 1_555
O5_5 Cd1_5 1_555 1_555
O6_5 Cd1_5 1_555 1_555
H19_5 C23_5 1_555 1_555
C24_5 C23_5 1_555 1_555
H20_5 N7_5 1_555 1_555
O7_5 Cd1_5 1_555 1_555
O8_5 Cd1_5 1_555 1_555
Cd5_2 N6_3 1_555 1_555
C3_5 N2_5 1_555 1_555
C15_5 N6_3 1_555 1_555
C15_5 N5_5 1_555 1_555
C18_5 O5_5 1_555 1_555
C18_5 O6_5 1_555 1_555
C24_5 O7_5 1_555 1_555
C24_5 O8_5 1_555 1_555
H4_5 C5_5 1_555 1_555
C6_5 C5_5 1_555 1_555
H9_5 N1_5 1_555 1_555
O3 C6_5 1_555 1_555
O4 C6_5 1_555 1_555
C19_5 C20_5 1_555 1_555
C20_5 H16_5 1_555 1_555
C22_5 C19_5 1_555 1_555
H18_5 C22_5 1_555 1_555
N8_5 C20_5 1_555 1_555
Cd4 N8_5 1_555 1_555
O9_3 Cd4 1_555 1_555
O10_3 Cd4 1_555 1_555
C21_5 N8_5 1_555 1_555
C7_5 C8_5 1_555 1_555
C8_5 H5_5 1_555 1_555
C9_5 H6_5 1_555 1_555
C10_5 C7_5 1_555 1_555
H7_5 C10_5 1_555 1_555
C11_5 C10_5 1_555 1_555
H8_5 C11_5 1_555 1_555
C12_5 C11_5 1_555 1_555
N3_5 C7_5 1_555 1_555
H10_5 N3_5 1_555 1_555
N4_5 C8_5 1_555 1_555
O1_3 C12_5 1_555 1_555
O2_3 C12_5 1_555 1_555
Cd5_2 O1_3 1_555 1_555
C9_5 N4_5 1_555 1_555
C9_5 N3_5 1_555 1_555
O2_3 Cd5_2 1_555 1_555
C13_6 C14_6 1_555 1_555
C14_6 H11_6 1_555 1_555
C15_6 H12_6 1_555 1_555
C16_6 C13_6 1_555 1_555
H13_6 C16_6 1_555 1_555
C17_6 C16_6 1_555 1_555
H14_6 C17_6 1_555 1_555
C18_6 C17_6 1_555 1_555
N5_6 C13_6 1_555 1_555
H15_6 N5_6 1_555 1_555
N6_4 C14_6 1_555 1_555
Cd5_3 N6_4 1_555 1_555
C15_6 N6_4 1_555 1_555
C15_6 N5_6 1_555 1_555
C18_6 O9_3 1_555 1_555
C18_6 O10_3 1_555 1_555
C7_6 C8_6 1_555 1_555
C8_6 H5_6 1_555 1_555
C9_6 H6_6 1_555 1_555
C10_6 C7_6 1_555 1_555
H7_6 C10_6 1_555 1_555
C11_6 C10_6 1_555 1_555
H8_6 C11_6 1_555 1_555
C12_6 C11_6 1_555 1_555
N3_6 C7_6 1_555 1_555
H10_6 N3_6 1_555 1_555
N9_3 C8_6 1_555 1_555
O1_4 C12_6 1_555 1_555
O2_4 C12_6 1_555 1_555
Cd5_3 O1_4 1_555 1_555
C9_6 N9_3 1_555 1_555
C9_6 N3_6 1_555 1_555
O2_4 Cd5_3 1_555 1_555
C1_6 C2_6 1_555 1_555
C2_6 H1_6 1_555 1_555
C3_6 H2_6 1_555 1_555
C4_6 C1_6 1_555 1_555
H3_6 C4_6 1_555 1_555
C5_6 C4_6 1_555 1_555
H4_6 C5_6 1_555 1_555
C6_6 C5_6 1_555 1_555
Cd5_2 N2_6 1_555 1_555
N1_6 C1_6 1_555 1_555
H9_6 N1_6 1_555 1_555
N2_6 C2_6 1_555 1_555
O3_2 C6_6 1_555 1_555
O4_2 C6_6 1_555 1_555
C19_6 C20_6 1_555 1_555
C20_6 H16_6 1_555 1_555
C21_6 H17_6 1_555 1_555
C22_6 C19_6 1_555 1_555
H18_6 C22_6 1_555 1_555
C23_6 C22_6 1_555 1_555
H19_6 C23_6 1_555 1_555
C24_6 C23_6 1_555 1_555
N7_6 C19_6 1_555 1_555
H20_6 N7_6 1_555 1_555
N8_6 C20_6 1_555 1_555
O7_6 Cd5_2 1_555 1_555
O8_6 Cd5_2 1_555 1_555
Cd5_3 N8_6 1_555 1_555
C3_6 N2_6 1_555 1_555
C3_6 N1_6 1_555 1_555
C21_6 N8_6 1_555 1_555
C21_6 N7_6 1_555 1_555
C24_6 O7_6 1_555 1_555
C24_6 O8_6 1_555 1_555
C1_7 C2_7 1_555 1_555
C2_7 H1_7 1_555 1_555
C3_7 H2_7 1_555 1_555
C4_7 C1_7 1_555 1_555
H3_7 C4_7 1_555 1_555
C5_7 C4_7 1_555 1_555
H4_7 C5_7 1_555 1_555
C6_7 C5_7 1_555 1_555
C7_7 C8_7 1_555 1_555
C8_7 H5_7 1_555 1_555
C9_7 H6_7 1_555 1_555
C10_7 C7_7 1_555 1_555
C11_7 C10_7 1_555 1_555
H8_7 C11_7 1_555 1_555
Cd1_6 N2_7 1_555 1_555
N1_7 C1_7 1_555 1_555
H9_7 N1_7 1_555 1_555
N2_7 C2_7 1_555 1_555
N3_7 C7_7 1_555 1_555
H10_7 N3_7 1_555 1_555
N4_6 C8_7 1_555 1_555
O3_3 C6_7 1_555 1_555
O4_3 C6_7 1_555 1_555
O5_6 Cd1_6 1_555 1_555
O6_6 Cd1_6 1_555 1_555
H18_7 C22_7 1_555 1_555
C23_7 C22_7 1_555 1_555
H19_7 C23_7 1_555 1_555
C24_7 C23_7 1_555 1_555
O7_7 Cd1_6 1_555 1_555
O8_7 Cd1_6 1_555 1_555
Cd4_2 O3_3 1_555 1_555
C3_7 N2_7 1_555 1_555
C3_7 N1_7 1_555 1_555
C9_7 N4_6 1_555 1_555
C9_7 N3_7 1_555 1_555
Cd1_6 N4_6 1_555 1_555
O4_3 Cd4_2 1_555 1_555
C18_7 O5_6 1_555 1_555
C18_7 O6_6 1_555 1_555
C24_7 O7_7 1_555 1_555
C24_7 O8_7 1_555 1_555
O1_5 C12_7 1_555 1_555
O2_5 C12_7 1_555 1_555
H14_7 C17_7 1_555 1_555
Cd3_2 O1_5 1_555 1_555
O2_5 Cd3_2 1_555 1_555
C13_7 C14_7 1_555 1_555
C14_7 H11_7 1_555 1_555
C15_7 H12_7 1_555 1_555
C16_7 C13_7 1_555 1_555
N5_7 C13_7 1_555 1_555
H15_7 N5_7 1_555 1_555
N6_5 C14_7 1_555 1_555
Cd3_2 N6_5 1_555 1_555
C15_7 N6_5 1_555 1_555
C15_7 N5_7 1_555 1_555
C19_7 C20_7 1_555 1_555
C20_7 H16_7 1_555 1_555
C21_7 H17_7 1_555 1_555
N7_7 C19_7 1_555 1_555
H20_7 N7_7 1_555 1_555
N8_7 C20_7 1_555 1_555
Cd4_2 N8_7 1_555 1_555
N9_4 Cd4_2 1_555 1_555
O9_4 Cd4_2 1_555 1_555
O10_4 Cd4_2 1_555 1_555
C21_7 N8_7 1_555 1_555
C21_7 N7_7 1_555 1_555
H3_8 C4_8 1_555 1_555
C5_8 C4_8 1_555 1_555
H4_8 C5_8 1_555 1_555
C6_8 C5_8 1_555 1_555
O3_4 C6_8 1_555 1_555
O4_4 C6_8 1_555 1_555
Cd3_2 O3_4 1_555 1_555
O4_4 Cd3_2 1_555 1_555
H8_8 C11_8 1_555 1_555
C12_8 C11_8 1_555 1_555
O9_4 C12_8 1_555 1_555
O10_4 C12_8 1_555 1_555
C1_8 C2_8 1_555 1_555
C2_8 H1_8 1_555 1_555
C3_8 H2_8 1_555 1_555
C7_8 C8_8 1_555 1_555
C8_8 H5_8 1_555 1_555
C9_8 H6_8 1_555 1_555
C10_8 C7_8 1_555 1_555
H7_8 C10_8 1_555 1_555
Cd1_7 N2_8 1_555 1_555
N1_8 C1_8 1_555 1_555
H9_8 N1_8 1_555 1_555
N2_8 C2_8 1_555 1_555
N3_8 C7_8 1_555 1_555
H10_8 N3_8 1_555 1_555
N4_7 C8_8 1_555 1_555
C13_8 C14_8 1_555 1_555
C14_8 H11_8 1_555 1_555
C15_8 H12_8 1_555 1_555
C16_8 C13_8 1_555 1_555
H13_8 C16_8 1_555 1_555
C17_8 C16_8 1_555 1_555
H14_8 C17_8 1_555 1_555
C18_8 C17_8 1_555 1_555
N5_8 C13_8 1_555 1_555
H15_8 N5_8 1_555 1_555
N9_4 C14_8 1_555 1_555
O5_7 Cd1_7 1_555 1_555
O6_7 Cd1_7 1_555 1_555
C19_8 C20_8 1_555 1_555
C20_8 H16_8 1_555 1_555
C21_8 H17_8 1_555 1_555
C22_8 C19_8 1_555 1_555
H18_8 C22_8 1_555 1_555
C23_8 C22_8 1_555 1_555
H19_8 C23_8 1_555 1_555
C24_8 C23_8 1_555 1_555
N7_8 C19_8 1_555 1_555
H20_8 N7_8 1_555 1_555
N8_8 C20_8 1_555 1_555
O7_8 Cd1_7 1_555 1_555
O8_8 Cd1_7 1_555 1_555
Cd3_2 N8_8 1_555 1_555
C3_8 N2_8 1_555 1_555
C3_8 N1_8 1_555 1_555
C9_8 N4_7 1_555 1_555
C9_8 N3_8 1_555 1_555
Cd1_7 N4_7 1_555 1_555
C15_8 N9_4 1_555 1_555
C15_8 N5_8 1_555 1_555
C18_8 O5_7 1_555 1_555
C18_8 O6_7 1_555 1_555
C21_8 N8_8 1_555 1_555
C21_8 N7_8 1_555 1_555
C24_8 O7_8 1_555 1_555
C24_8 O8_8 1_555 1_555

#END
