
###############################################################################
#
# This file contains modified crystal structure data generated from the
# MOF subset of the Cambridge Structural Database (CSD) v543 
# hosted by the Cambridge Crystallographic Data Centre (CCDC).
#
# This work is licensed under the Creative Commons
# Attribution-NonCommercial-ShareAlike 4.0 International License.
# To view a copy of this license, visit
# http://creativecommons.org/licenses/by-nc-sa/4.0/
# or send a letter to
# Creative Commons, PO Box 1866, Mountain View, CA 94042, USA.
#
# CIF created using the CSD Python API on 29 September 2022
# The structure has been converted into the P1 space group
# The structure has a 3D framework
# The original CSD entry LUMJEI is in the monoclinic crystal system
# The framework has been calculated to contain at least 10.0% void space
# The void calculation uses a probe of radius 1.32A, grid spacing 0.4
#
###############################################################################

data_LUMJEI
_chemical_formula_moiety         '(C48 H36 Br11 Cu12 N20)n'
_symmetry_cell_setting           triclinic
_symmetry_space_group_name_H-M   'P 1'
_symmetry_Int_Tables_number      1
_space_group_name_Hall           'P 1'
loop_
_symmetry_equiv_pos_site_id
_symmetry_equiv_pos_as_xyz
1 x,y,z
_cell_length_a                   9.5141(5)
_cell_length_b                   12.7091(7)
_cell_length_c                   16.5108(9)
_cell_angle_alpha                90
_cell_angle_beta                 96.4570(10)
_cell_angle_gamma                90
_cell_volume                     1983.75
loop_
_atom_site_label
_atom_site_type_symbol
_atom_site_fract_x
_atom_site_fract_y
_atom_site_fract_z
H17 H 0.6196 0.3322 0.0373
Cu2 Cu 0.03537(5) 0.32595(4) 0.26441(3)
N3 N 0.1666(3) 0.4447(2) 0.30739(17)
N4 N 0.2595(3) 0.6147(2) 0.28503(17)
H3 H 0.0281 0.6960 0.3939
C6 C 0.1713(4) 0.5349(3) 0.2660(2)
H4 H 0.1056 0.5427 0.2186
C7 C 0.2584(4) 0.4343(3) 0.3756(2)
H5 H 0.2560 0.3724 0.4076
C8 C 0.3568(4) 0.5131(3) 0.3998(2)
C9 C 0.3549(4) 0.6030(3) 0.3517(2)
H6 H 0.4219 0.6572 0.3660
C10 C 0.4577(4) 0.5026(3) 0.4712(2)
C13 C 0.0287(4) 0.4785(3) 0.5295(2)
C14 C 0.1015(4) 0.4307(3) 0.6005(2)
C15 C 0.2194(4) 0.4761(3) 0.6427(2)
N6 N 0.2836(3) 0.4359(2) 0.71159(18)
C16 C 0.2285(4) 0.3481(3) 0.7384(2)
N7 N 0.1164(3) 0.2961(2) 0.70282(18)
C17 C 0.0525(4) 0.3381(3) 0.6335(2)
H11 H 0.2735 0.3196 0.7878
H12 H 0.2565 0.5385 0.6216
C18 C 0.5423(4) 0.4974(3) 0.5288(2)
C19 C 0.6432(4) 0.4869(3) 0.6002(2)
C20 C 0.7416(4) 0.5657(3) 0.6244(2)
N8 N 0.8334(3) 0.5553(2) 0.69261(17)
C21 C 0.8287(4) 0.4651(3) 0.7340(2)
N9 N 0.7405(3) 0.3853(2) 0.71497(17)
C22 C 0.6451(4) 0.3970(3) 0.6483(2)
H13 H 0.5781 0.3428 0.6340
H14 H 0.8944 0.4573 0.7814
H15 H 0.7440 0.6276 0.5924
Cu4 Cu 0.39949(6) 0.53270(4) 0.79553(3)
Br4 Br 0.15355(4) 0.60735(3) 0.83937(2)
Br5 Br 0.47920(4) 0.67890(3) 0.72300(3)
N10 N 0.4908(4) 0.4504(3) 0.8835(2)
C23 C 0.5427(4) 0.3882(4) 0.9263(2)
C24 C 0.6137(4) 0.3077(4) 0.9807(2)
H16 H 0.7092 0.2954 0.9659
H18 H 0.5595 0.2420 0.9751
Br6 Br 0.05423(4) 0.74478(3) 0.11414(2)
Cu6 Cu 0.23843(5) 0.74197(4) 0.72652(3)
N11 N 0.1164(3) 0.2039(2) 0.20282(18)
Cu7 Cu 0.23843(5) 0.75803(4) 0.22652(3)
Cu8 Cu 0.03537(5) 0.17405(4) 0.76441(3)
Cu9 Cu 0.96463(5) 0.67405(4) 0.73559(3)
Cu10 Cu 0.76157(5) 0.24197(4) 0.77348(3)
Br7 Br 0.15355(4) 0.89265(3) 0.33937(2)
Br8 Br 0.05423(4) 0.75522(3) 0.61414(2)
N14 N 0.2595(3) 0.8853(2) 0.78503(17)
Br1 Br 0.84645(4) 0.39265(3) 0.16063(2)
Br2 Br 0.52080(4) 0.32110(3) 0.27700(3)
Br3 Br 0.94577(4) 0.24478(3) 0.38586(2)
Cu1 Cu 0.60051(6) 0.46730(4) 0.20447(3)
Cu3 Cu 0.76157(5) 0.25803(4) 0.27348(3)
N1 N 0.7164(3) 0.5641(2) 0.28841(18)
N2 N 0.8836(3) 0.7039(2) 0.29718(18)
N5 N 0.5092(4) 0.5496(3) 0.1165(2)
C1 C 0.7715(4) 0.6519(3) 0.2616(2)
H1 H 0.7265 0.6804 0.2122
C2 C 0.7806(4) 0.5239(3) 0.3573(2)
H2 H 0.7435 0.4615 0.3784
C3 C 0.8985(4) 0.5693(3) 0.3995(2)
C4 C 0.9475(4) 0.6619(3) 0.3665(2)
C5 C 0.9713(4) 0.5215(3) 0.4705(2)
C11 C 0.4573(4) 0.6118(4) 0.0737(2)
C12 C 0.3863(4) 0.6923(4) 0.0193(2)
H7 H 0.2908 0.7046 0.0341
H9 H 0.4405 0.7580 0.0249
H10 H 0.9719 0.3040 0.6061
Cu5 Cu 0.96463(5) 0.82595(4) 0.23559(3)
N12 N 0.7405(3) 0.1147(2) 0.21497(17)
N13 N 0.8334(3) 0.9447(2) 0.19261(17)
C13_2 C 0.0287(4) 0.0215(3) 0.0295(2)
C14_2 C 0.1015(4) 0.0693(3) 0.1005(2)
C15_2 C 0.2194(4) 0.0239(3) 0.1427(2)
N6_2 N 0.2836(3) 0.0641(2) 0.21159(18)
C16_2 C 0.2285(4) 0.1519(3) 0.2384(2)
C17_2 C 0.0525(4) 0.1619(3) 0.1335(2)
H11_2 H 0.2735 0.1804 0.2878
C18_2 C 0.5423(4) 0.0026(3) 0.0288(2)
C19_2 C 0.6432(4) 0.0131(3) 0.1002(2)
C21_2 C 0.8287(4) 0.0349(3) 0.2340(2)
C22_2 C 0.6451(4) 0.1030(3) 0.1483(2)
H13_2 H 0.5781 0.1572 0.1340
H14_2 H 0.8944 0.0427 0.2814
N10_2 N 0.4908(4) 0.0496(3) 0.3835(2)
C23_2 C 0.5427(4) 0.1118(4) 0.4263(2)
C24_2 C 0.6137(4) 0.1923(4) 0.4807(2)
H16_2 H 0.7092 0.2046 0.4659
H17_2 H 0.6196 0.1678 0.5373
H18_2 H 0.5595 0.2580 0.4751
N3_2 N 0.1666(3) 0.0553(2) 0.80739(17)
C7_2 C 0.2584(4) 0.0657(3) 0.8756(2)
H5_2 H 0.2560 0.1276 0.9076
H12_2 H 0.2565 0.9615 0.1216
C20_2 C 0.7416(4) 0.9343(3) 0.1244(2)
H15_2 H 0.7440 0.8724 0.0924
Cu4_2 Cu 0.39949(6) 0.96730(4) 0.29553(3)
Br5_2 Br 0.47920(4) 0.82110(3) 0.22300(3)
H3_2 H 0.0281 0.8040 0.8939
C6_2 C 0.1713(4) 0.9651(3) 0.7660(2)
H4_2 H 0.1056 0.9573 0.7186
C8_2 C 0.3568(4) 0.9869(3) 0.8998(2)
C9_2 C 0.3549(4) 0.8970(3) 0.8517(2)
H6_2 H 0.4219 0.8428 0.8660
C10_2 C 0.4577(4) 0.9974(3) 0.9712(2)
H10_2 H 0.9719 0.1960 0.1061
Br1_2 Br 0.84645(4) 0.10735(3) 0.66063(2)
Br2_2 Br 0.52080(4) 0.17890(3) 0.77700(3)
Br3_2 Br 0.94577(4) 0.25522(3) 0.88586(2)
Cu1_2 Cu 0.60051(6) 0.03270(4) 0.70447(3)
H2_2 H 0.7435 0.0385 0.8784
N1_2 N 0.7164(3) 0.9359(2) 0.78841(18)
N2_2 N 0.8836(3) 0.7961(2) 0.79718(18)
N5_2 N 0.5092(4) 0.9504(3) 0.6165(2)
C1_2 C 0.7715(4) 0.8481(3) 0.7616(2)
H1_2 H 0.7265 0.8196 0.7122
C2_2 C 0.7806(4) 0.9761(3) 0.8573(2)
C3_2 C 0.8985(4) 0.9307(3) 0.8995(2)
C4_2 C 0.9475(4) 0.8381(3) 0.8665(2)
C5_2 C 0.9713(4) 0.9785(3) 0.9705(2)
C11_2 C 0.4573(4) 0.8882(4) 0.5737(2)
C12_2 C 0.3863(4) 0.8077(4) 0.5193(2)
H7_2 H 0.2908 0.7954 0.5341
H8 H 0.3804 0.8322 0.4627
H9_2 H 0.4405 0.7420 0.5249
H8_2 H 0.3804 0.6678 0.9627
loop_
_geom_bond_atom_site_label_1
_geom_bond_atom_site_label_2
_geom_bond_site_symmetry_1
_geom_bond_site_symmetry_2
N3 Cu2 1_555 1_555
N4 C6 1_555 1_555
C6 N3 1_555 1_555
H4 C6 1_555 1_555
C7 N3 1_555 1_555
H5 C7 1_555 1_555
C8 C7 1_555 1_555
C9 N4 1_555 1_555
H6 C9 1_555 1_555
C10 C8 1_555 1_555
C14 C13 1_555 1_555
C15 C14 1_555 1_555
N6 C15 1_555 1_555
C16 N6 1_555 1_555
N7 C16 1_555 1_555
C17 C14 1_555 1_555
H11 C16 1_555 1_555
H12 C15 1_555 1_555
C18 C10 1_555 1_555
C19 C18 1_555 1_555
C20 C19 1_555 1_555
N8 C20 1_555 1_555
C21 N8 1_555 1_555
N9 C21 1_555 1_555
C22 C19 1_555 1_555
H13 C22 1_555 1_555
H14 C21 1_555 1_555
H15 C20 1_555 1_555
Cu4 N6 1_555 1_555
Br4 Cu4 1_555 1_555
Br5 Cu4 1_555 1_555
N10 Cu4 1_555 1_555
C23 N10 1_555 1_555
C24 C23 1_555 1_555
H16 C24 1_555 1_555
H18 C24 1_555 1_555
Cu6 Br4 1_555 1_555
N11 Cu2 1_555 1_555
Cu7 N4 1_555 1_555
Cu8 N7 1_555 1_555
Cu9 N8 1_555 1_555
Cu10 N9 1_555 1_555
Br8 Cu6 1_555 1_555
N14 Cu6 1_555 1_555
C8 C9 1_555 1_555
N7 C17 1_555 1_555
N9 C22 1_555 1_555
Br5 Cu6 1_555 1_555
Br6 Cu7 1_555 1_555
Cu7 Br7 1_555 1_555
Br1 Cu1 1_555 1_555
Br2 Cu1 1_555 1_555
Cu1 N1 1_555 1_555
Cu3 Br1 1_555 1_555
N1 C1 1_555 1_555
N2 C1 1_555 1_555
N5 Cu1 1_555 1_555
C1 H1 1_555 1_555
C2 N1 1_555 1_555
H2 C2 1_555 1_555
C3 C2 1_555 1_555
C4 N2 1_555 1_555
C5 C3 1_555 1_555
C11 N5 1_555 1_555
C12 C11 1_555 1_555
H7 C12 1_555 1_555
H9 C12 1_555 1_555
Cu5 N2 1_555 1_555
N12 Cu3 1_555 1_555
N13 Cu5 1_555 1_555
Br2 Cu3 1_555 1_555
Br3 Cu3 1_555 1_555
C3 C4 1_555 1_555
C14_2 C13_2 1_555 1_555
C15_2 C14_2 1_555 1_555
N6_2 C15_2 1_555 1_555
C16_2 N6_2 1_555 1_555
N11 C16_2 1_555 1_555
C17_2 C14_2 1_555 1_555
H11_2 C16_2 1_555 1_555
C19_2 C18_2 1_555 1_555
N12 C21_2 1_555 1_555
C22_2 C19_2 1_555 1_555
H13_2 C22_2 1_555 1_555
H14_2 C21_2 1_555 1_555
C23_2 N10_2 1_555 1_555
C24_2 C23_2 1_555 1_555
H16_2 C24_2 1_555 1_555
H17_2 C24_2 1_555 1_555
H18_2 C24_2 1_555 1_555
N11 C17_2 1_555 1_555
N12 C22_2 1_555 1_555
N3_2 Cu8 1_555 1_555
C7_2 N3_2 1_555 1_555
H5_2 C7_2 1_555 1_555
N13 C20_2 1_555 1_555
H15_2 C20_2 1_555 1_555
Br7 Cu4_2 1_555 1_555
Br5_2 Cu4_2 1_555 1_555
Br5_2 Cu7 1_555 1_555
N14 C6_2 1_555 1_555
H4_2 C6_2 1_555 1_555
C9_2 N14 1_555 1_555
H6_2 C9_2 1_555 1_555
C10_2 C8_2 1_555 1_555
C8_2 C9_2 1_555 1_555
Br1_2 Cu1_2 1_555 1_555
Br2_2 Cu1_2 1_555 1_555
Cu10 Br1_2 1_555 1_555
Br2_2 Cu10 1_555 1_555
Br3_2 Cu10 1_555 1_555
N1_2 C1_2 1_555 1_555
N2_2 C1_2 1_555 1_555
C1_2 H1_2 1_555 1_555
C2_2 N1_2 1_555 1_555
C3_2 C2_2 1_555 1_555
C4_2 N2_2 1_555 1_555
C5_2 C3_2 1_555 1_555
C11_2 N5_2 1_555 1_555
C12_2 C11_2 1_555 1_555
H7_2 C12_2 1_555 1_555
H8 C12_2 1_555 1_555
H9_2 C12_2 1_555 1_555
Cu9 N2_2 1_555 1_555
C3_2 C4_2 1_555 1_555

#END
