
###############################################################################
#
# This file contains modified crystal structure data generated from the
# MOF subset of the Cambridge Structural Database (CSD) v543 
# hosted by the Cambridge Crystallographic Data Centre (CCDC).
#
# This work is licensed under the Creative Commons
# Attribution-NonCommercial-ShareAlike 4.0 International License.
# To view a copy of this license, visit
# http://creativecommons.org/licenses/by-nc-sa/4.0/
# or send a letter to
# Creative Commons, PO Box 1866, Mountain View, CA 94042, USA.
#
# CIF created using the CSD Python API on 29 September 2022
# The structure has been converted into the P1 space group
# The structure has a 3D framework
# The original CSD entry LUMMAJ is in the orthorhombic crystal system
# The framework has been calculated to contain at least 10.0% void space
# The void calculation uses a probe of radius 1.32A, grid spacing 0.4
#
###############################################################################

data_LUMMAJ
_chemical_formula_moiety         '(C88 H56 N24 O32 Zn12)n'
_symmetry_cell_setting           triclinic
_symmetry_space_group_name_H-M   'P 1'
_symmetry_Int_Tables_number      1
_space_group_name_Hall           'P 1'
loop_
_symmetry_equiv_pos_site_id
_symmetry_equiv_pos_as_xyz
1 x,y,z
_cell_length_a                   10.3008(14)
_cell_length_b                   13.3246(12)
_cell_length_c                   20.462(3)
_cell_angle_alpha                90
_cell_angle_beta                 90
_cell_angle_gamma                90
_cell_volume                     2808.49
loop_
_atom_site_label
_atom_site_type_symbol
_atom_site_fract_x
_atom_site_fract_y
_atom_site_fract_z
Zn3 Zn 0.06471(19) 0.61027(13) 0.29383(10)
O6 O 0.0499(11) 0.6904(9) 0.2026(6)
O10 O 0.0761(11) 0.5181(7) 0.3787(7)
N7 N 0.2202(13) 0.5278(9) 0.2772(7)
N9 N 0.0498(13) 0.7368(10) 0.3493(8)
O3 O 0.9239(11) 0.0181(7) 0.1213(7)
N2 N 0.7798(13) 0.0278(9) 0.2228(7)
C6 C 0.687(2) 0.0187(12) 0.2685(10)
H3 H 0.6823 0.0599 0.3051
Zn5 Zn 0.93529(19) 0.11027(13) 0.20617(10)
Zn1 Zn 0.43529(19) 0.88973(13) 0.29383(10)
Zn2 Zn 0.7500 0.7500 0.07500(15)
O1 O 0.4501(11) 0.8096(9) 0.2026(6)
O2 O 0.8041(12) 0.8970(8) 0.0726(6)
N1 N 0.6035(12) 0.9454(9) 0.2563(8)
O4 O 0.5841(13) 0.7786(9) 0.1218(7)
C1 C 0.6401(17) 0.9051(9) 0.2004(8)
N3 N 0.4502(13) 0.7632(10) 0.3493(8)
C2 C 0.4935(17) 0.5965(11) 0.4276(10)
C3 C 0.5327(18) 0.5960(12) 0.3641(9)
H1 H 0.5730 0.5394 0.3470
C4 C 0.516(2) 0.5081(13) 0.4709(9)
H2 H 0.5629 0.4562 0.4515
C5 C 0.8267(16) 0.9538(11) 0.1183(11)
C7 C 0.5547(16) 0.8247(11) 0.1748(9)
C8 C 0.4305(18) 0.6817(12) 0.4504(10)
H4 H 0.4049 0.6847 0.4939
C9 C 0.5128(18) 0.6795(12) 0.3245(10)
H5 H 0.5416 0.6790 0.2815
C10 C 0.4057(19) 0.7597(13) 0.4108(11)
H6 H 0.3562 0.8129 0.4265
C11 C 0.7490(14) 0.9579(10) 0.1792(8)
N4 N 0.5498(13) 0.2368(10) 0.6507(8)
C12 C 0.5065(17) 0.4035(11) 0.5724(10)
C13 C 0.4673(18) 0.4040(12) 0.6359(9)
H8 H 0.4270 0.4606 0.6530
C14 C 0.484(2) 0.4919(13) 0.5291(9)
H9 H 0.4371 0.5438 0.5485
C15 C 0.5695(18) 0.3183(12) 0.5496(10)
H10 H 0.5951 0.3153 0.5061
C16 C 0.4872(18) 0.3205(12) 0.6755(10)
H11 H 0.4584 0.3210 0.7185
C17 C 0.5943(19) 0.2403(13) 0.5892(11)
H12 H 0.6438 0.1871 0.5735
O7 O 0.6959(12) 0.6030(8) 0.0726(6)
N5 N 0.8965(12) 0.5546(9) 0.2563(8)
O8 O 0.5761(11) 0.4819(7) 0.1213(7)
O9 O 0.9159(13) 0.7214(9) 0.1218(7)
N6 N 0.7202(13) 0.4722(9) 0.2228(7)
C18 C 0.8599(17) 0.5949(9) 0.2004(8)
C19 C 0.6733(16) 0.5462(11) 0.1183(11)
C20 C 0.813(2) 0.4813(12) 0.2685(10)
H14 H 0.8177 0.4401 0.3051
C21 C 0.9453(16) 0.6753(11) 0.1748(9)
C22 C 0.7510(14) 0.5421(10) 0.1792(8)
Zn4 Zn 0.56471(19) 0.38973(13) 0.20617(10)
Zn6 Zn 0.56471(19) 0.11027(13) 0.70617(10)
O11 O 0.4239(11) 0.9819(7) 0.3787(7)
N8 N 0.2798(13) 0.9722(9) 0.2772(7)
C13_2 C 0.0327(18) 0.0960(12) 0.6359(9)
H8_2 H 0.0730 0.0394 0.6530
C14_2 C 0.016(2) 0.0081(13) 0.5291(9)
C16_2 C 0.0128(18) 0.1795(12) 0.6755(10)
H11_2 H 0.0416 0.1790 0.7185
C2_2 C 0.0065(17) 0.9035(11) 0.4276(10)
C8_2 C 0.0695(18) 0.8183(12) 0.4504(10)
H4_2 H 0.0951 0.8153 0.4939
C10_2 C 0.0943(19) 0.7403(13) 0.4108(11)
H6_2 H 0.1438 0.6871 0.4265
H9_2 H 0.0629 0.9562 0.5485
H2_2 H 0.9371 0.0438 0.4515
N4_2 N 0.9502(13) 0.2632(10) 0.6507(8)
C12_2 C 0.9935(17) 0.0965(11) 0.5724(10)
C15_2 C 0.9305(18) 0.1817(12) 0.5496(10)
H10_2 H 0.9049 0.1847 0.5061
C17_2 C 0.9057(19) 0.2597(13) 0.5892(11)
H12_2 H 0.8562 0.3129 0.5735
Zn6_2 Zn 0.93529(19) 0.38973(13) 0.70617(10)
C3_2 C 0.9673(18) 0.9040(12) 0.3641(9)
H1_2 H 0.9270 0.9606 0.3470
C4_2 C 0.984(2) 0.9919(13) 0.4709(9)
C9_2 C 0.9872(18) 0.8205(12) 0.3245(10)
H5_2 H 0.9584 0.8210 0.2815
Zn2_2 Zn 0.2500 0.2500 0.42500(15)
O1_2 O 0.5499(11) 0.3096(9) 0.2974(6)
O2_2 O 0.1959(12) 0.3970(8) 0.4274(6)
N1_2 N 0.3965(12) 0.4454(9) 0.2437(8)
O4_2 O 0.4159(13) 0.2786(9) 0.3782(7)
C1_2 C 0.3599(17) 0.4051(9) 0.2996(8)
N3_2 N 0.5498(13) 0.2632(10) 0.1507(8)
C2_3 C 0.5065(17) 0.0965(11) 0.0724(10)
C3_3 C 0.4673(18) 0.0960(12) 0.1359(9)
H1_3 H 0.4270 0.0394 0.1530
C4_3 C 0.484(2) 0.0081(13) 0.0291(9)
C5_2 C 0.1733(16) 0.4538(11) 0.3817(11)
C6_2 C 0.313(2) 0.5187(12) 0.2315(10)
H3_2 H 0.3177 0.5599 0.1949
C7_2 C 0.4453(16) 0.3247(11) 0.3252(9)
C8_3 C 0.5695(18) 0.1817(12) 0.0496(10)
H4_3 H 0.5951 0.1847 0.0061
C9_3 C 0.4872(18) 0.1795(12) 0.1755(10)
H5_3 H 0.4584 0.1790 0.2185
C10_3 C 0.5943(19) 0.2597(13) 0.0892(11)
H6_3 H 0.6438 0.3129 0.0735
C11_2 C 0.2510(14) 0.4579(10) 0.3208(8)
O5 O 0.2500 0.2500 0.5223(10)
H7 H 0.25(2) 0.301(9) 0.546(8)
H13 H 0.25(2) 0.199(9) 0.546(8)
O7_2 O 0.3041(12) 0.1030(8) 0.4274(6)
N5_2 N 0.1035(12) 0.0546(9) 0.2437(8)
O9_2 O 0.0841(13) 0.2214(9) 0.3782(7)
C18_2 C 0.1401(17) 0.0949(9) 0.2996(8)
C19_2 C 0.3267(16) 0.0462(11) 0.3817(11)
C21_2 C 0.0547(16) 0.1753(11) 0.3252(9)
C22_2 C 0.2490(14) 0.0421(10) 0.3208(8)
H9_3 H 0.5629 0.0438 0.9515
H2_3 H 0.4371 0.9562 0.0485
C20_2 C 0.187(2) 0.9813(12) 0.2315(10)
H14_2 H 0.1823 0.9401 0.1949
N4_3 N 0.4502(13) 0.7368(10) 0.8493(8)
C12_3 C 0.4935(17) 0.9035(11) 0.9276(10)
C13_3 C 0.5327(18) 0.9040(12) 0.8641(9)
H8_3 H 0.5730 0.9606 0.8470
C14_3 C 0.516(2) 0.9919(13) 0.9709(9)
C15_3 C 0.4305(18) 0.8183(12) 0.9504(10)
H10_3 H 0.4049 0.8153 0.9939
C16_3 C 0.5128(18) 0.8205(12) 0.8245(10)
H11_3 H 0.5416 0.8210 0.7815
C17_3 C 0.4057(19) 0.7403(13) 0.9108(11)
H12_3 H 0.3562 0.6871 0.9265
Zn6_3 Zn 0.43529(19) 0.61027(13) 0.79383(10)
O6_2 O 0.9501(11) 0.1904(9) 0.2974(6)
N9_2 N 0.9502(13) 0.2368(10) 0.1507(8)
C3_4 C 0.0327(18) 0.4040(12) 0.1359(9)
H1_4 H 0.0730 0.4606 0.1530
C4_4 C 0.016(2) 0.4919(13) 0.0291(9)
H2_4 H 0.0629 0.5438 0.0485
C9_4 C 0.0128(18) 0.3205(12) 0.1755(10)
H5_4 H 0.0416 0.3210 0.2185
N4_4 N 0.0498(13) 0.7632(10) 0.8493(8)
C12_4 C 0.0065(17) 0.5965(11) 0.9276(10)
C15_4 C 0.0695(18) 0.6817(12) 0.9504(10)
H10_4 H 0.0951 0.6847 0.9939
C17_4 C 0.0943(19) 0.7597(13) 0.9108(11)
H12_4 H 0.1438 0.8129 0.9265
Zn6_4 Zn 0.06471(19) 0.88973(13) 0.79383(10)
C2_4 C 0.9935(17) 0.4035(11) 0.0724(10)
C8_4 C 0.9305(18) 0.3183(12) 0.0496(10)
H4_4 H 0.9049 0.3153 0.0061
C10_4 C 0.9057(19) 0.2403(13) 0.0892(11)
H6_4 H 0.8562 0.1871 0.0735
C13_4 C 0.9673(18) 0.5960(12) 0.8641(9)
H8_4 H 0.9270 0.5394 0.8470
C14_4 C 0.984(2) 0.5081(13) 0.9709(9)
H9_4 H 0.9371 0.4562 0.9515
C16_4 C 0.9872(18) 0.6795(12) 0.8245(10)
H11_4 H 0.9584 0.6790 0.7815
Zn2_3 Zn 0.2500 0.2500 0.92500(15)
O1_3 O 0.5499(11) 0.1904(9) 0.7974(6)
O2_3 O 0.1959(12) 0.1030(8) 0.9274(6)
N1_3 N 0.3965(12) 0.0546(9) 0.7437(8)
O4_3 O 0.4159(13) 0.2214(9) 0.8782(7)
C1_3 C 0.3599(17) 0.0949(9) 0.7996(8)
C5_3 C 0.1733(16) 0.0462(11) 0.8817(11)
C7_3 C 0.4453(16) 0.1753(11) 0.8252(9)
C11_3 C 0.2510(14) 0.0421(10) 0.8208(8)
O7_3 O 0.3041(12) 0.3970(8) 0.9274(6)
N5_3 N 0.1035(12) 0.4454(9) 0.7437(8)
O8_2 O 0.4239(11) 0.5181(7) 0.8787(7)
O9_3 O 0.0841(13) 0.2786(9) 0.8782(7)
N6_2 N 0.2798(13) 0.5278(9) 0.7772(7)
C18_3 C 0.1401(17) 0.4051(9) 0.7996(8)
C19_3 C 0.3267(16) 0.4538(11) 0.8817(11)
C20_3 C 0.187(2) 0.5187(12) 0.7315(10)
H14_3 H 0.1823 0.5599 0.6949
C21_3 C 0.0547(16) 0.3247(11) 0.8252(9)
C22_3 C 0.2490(14) 0.4579(10) 0.8208(8)
O11_2 O 0.5761(11) 0.0181(7) 0.6213(7)
N8_2 N 0.7202(13) 0.0278(9) 0.7228(7)
O3_2 O 0.0761(11) 0.9819(7) 0.8787(7)
N2_2 N 0.2202(13) 0.9722(9) 0.7772(7)
C6_3 C 0.313(2) 0.9813(12) 0.7315(10)
H3_3 H 0.3177 0.9401 0.6949
O6_3 O 0.9501(11) 0.3096(9) 0.7974(6)
O10_2 O 0.9239(11) 0.4819(7) 0.6213(7)
N7_2 N 0.7798(13) 0.4722(9) 0.7228(7)
O6_4 O 0.0499(11) 0.8096(9) 0.7026(6)
C20_4 C 0.813(2) 0.0187(12) 0.7685(10)
H14_4 H 0.8177 0.0599 0.8051
Zn2_4 Zn 0.7500 0.7500 0.57500(15)
O1_4 O 0.4501(11) 0.6904(9) 0.7026(6)
O2_4 O 0.8041(12) 0.6030(8) 0.5726(6)
N1_4 N 0.6035(12) 0.5546(9) 0.7563(8)
O4_4 O 0.5841(13) 0.7214(9) 0.6218(7)
C1_4 C 0.6401(17) 0.5949(9) 0.7004(8)
C5_4 C 0.8267(16) 0.5462(11) 0.6183(11)
C6_4 C 0.687(2) 0.4813(12) 0.7685(10)
H3_4 H 0.6823 0.4401 0.8051
C7_4 C 0.5547(16) 0.6753(11) 0.6748(9)
C11_4 C 0.7490(14) 0.5421(10) 0.6792(8)
O5_2 O 0.7500 0.7500 0.4777(10)
H7_2 H 0.75(2) 0.699(9) 0.454(8)
H13_2 H 0.75(2) 0.801(9) 0.454(8)
O7_4 O 0.6959(12) 0.8970(8) 0.5726(6)
N5_4 N 0.8965(12) 0.9454(9) 0.7563(8)
O9_4 O 0.9159(13) 0.7786(9) 0.6218(7)
C18_4 C 0.8599(17) 0.9051(9) 0.7004(8)
C19_4 C 0.6733(16) 0.9538(11) 0.6183(11)
C21_4 C 0.9453(16) 0.8247(11) 0.6748(9)
C22_4 C 0.7510(14) 0.9579(10) 0.6792(8)
O5_3 O 0.7500 0.7500 0.9777(10)
H7_3 H 0.75(2) 0.801(9) 0.954(8)
H13_3 H 0.75(2) 0.699(9) 0.954(8)
O5_4 O 0.2500 0.2500 0.0223(10)
H7_4 H 0.25(2) 0.199(9) 0.046(8)
H13_4 H 0.25(2) 0.301(9) 0.046(8)
loop_
_geom_bond_atom_site_label_1
_geom_bond_atom_site_label_2
_geom_bond_site_symmetry_1
_geom_bond_site_symmetry_2
Zn3 O6 1_555 1_555
O10 Zn3 1_555 1_555
N7 Zn3 1_555 1_555
N9 Zn3 1_555 1_555
N2 C6 1_555 1_555
H3 C6 1_555 1_555
Zn5 O3 1_555 1_555
N2 Zn5 1_555 1_555
Zn1 O1 1_555 1_555
Zn2 O2 1_555 1_555
O1 C7 1_555 1_555
O2 C5 1_555 1_555
N1 Zn1 1_555 1_555
O4 Zn2 1_555 1_555
C1 N1 1_555 1_555
N3 Zn1 1_555 1_555
C2 C3 1_555 1_555
C3 H1 1_555 1_555
C4 C2 1_555 1_555
H2 C4 1_555 1_555
C5 C11 1_555 1_555
C7 O4 1_555 1_555
C8 C2 1_555 1_555
H4 C8 1_555 1_555
C9 N3 1_555 1_555
H5 C9 1_555 1_555
C10 N3 1_555 1_555
H6 C10 1_555 1_555
N4 C16 1_555 1_555
C12 C13 1_555 1_555
C13 H8 1_555 1_555
C14 C4 1_555 1_555
H9 C14 1_555 1_555
C15 C12 1_555 1_555
H10 C15 1_555 1_555
C16 C13 1_555 1_555
H11 C16 1_555 1_555
C17 N4 1_555 1_555
H12 C17 1_555 1_555
O7 Zn2 1_555 1_555
O8 C19 1_555 1_555
O9 Zn2 1_555 1_555
N6 C20 1_555 1_555
C18 N5 1_555 1_555
C19 O7 1_555 1_555
C20 N5 1_555 1_555
H14 C20 1_555 1_555
C21 O9 1_555 1_555
C22 N6 1_555 1_555
Zn4 O8 1_555 1_555
Zn6 N4 1_555 1_555
O11 Zn1 1_555 1_555
N8 Zn1 1_555 1_555
C1 C7 1_555 1_555
C1 C11 1_555 1_555
C3 C9 1_555 1_555
C8 C10 1_555 1_555
C12 C14 1_555 1_555
C15 C17 1_555 1_555
N6 Zn4 1_555 1_555
C18 C21 1_555 1_555
C18 C22 1_555 1_555
C19 C22 1_555 1_555
C13_2 H8_2 1_555 1_555
C16_2 C13_2 1_555 1_555
H11_2 C16_2 1_555 1_555
C8_2 C2_2 1_555 1_555
H4_2 C8_2 1_555 1_555
C10_2 N9 1_555 1_555
H6_2 C10_2 1_555 1_555
C8_2 C10_2 1_555 1_555
C15_2 C12_2 1_555 1_555
H10_2 C15_2 1_555 1_555
C17_2 N4_2 1_555 1_555
H12_2 C17_2 1_555 1_555
Zn6_2 N4_2 1_555 1_555
C15_2 C17_2 1_555 1_555
C3_2 H1_2 1_555 1_555
H5_2 C9_2 1_555 1_555
C3_2 C9_2 1_555 1_555
Zn4 O1_2 1_555 1_555
Zn2_2 O2_2 1_555 1_555
O1_2 C7_2 1_555 1_555
O2_2 C5_2 1_555 1_555
N1_2 Zn4 1_555 1_555
O10 C5_2 1_555 1_555
O4_2 Zn2_2 1_555 1_555
N7 C6_2 1_555 1_555
C1_2 N1_2 1_555 1_555
N3_2 Zn4 1_555 1_555
C2_3 C3_3 1_555 1_555
C3_3 H1_3 1_555 1_555
C4_3 C2_3 1_555 1_555
C5_2 C11_2 1_555 1_555
C6_2 N1_2 1_555 1_555
H3_2 C6_2 1_555 1_555
C7_2 O4_2 1_555 1_555
C8_3 C2_3 1_555 1_555
H4_3 C8_3 1_555 1_555
C9_3 N3_2 1_555 1_555
H5_3 C9_3 1_555 1_555
C10_3 N3_2 1_555 1_555
H6_3 C10_3 1_555 1_555
C11_2 N7 1_555 1_555
O5 Zn2_2 1_555 1_555
H7 O5 1_555 1_555
H13 O5 1_555 1_555
O7_2 Zn2_2 1_555 1_555
O9_2 Zn2_2 1_555 1_555
C18_2 N5_2 1_555 1_555
C19_2 O7_2 1_555 1_555
C21_2 O9_2 1_555 1_555
C1_2 C7_2 1_555 1_555
C1_2 C11_2 1_555 1_555
C3_3 C9_3 1_555 1_555
C8_3 C10_3 1_555 1_555
C18_2 C21_2 1_555 1_555
C18_2 C22_2 1_555 1_555
C19_2 C22_2 1_555 1_555
N8 C20_2 1_555 1_555
H14_2 C20_2 1_555 1_555
N4_3 C16_3 1_555 1_555
C12_3 C13_3 1_555 1_555
C13_3 H8_3 1_555 1_555
C15_3 C12_3 1_555 1_555
H10_3 C15_3 1_555 1_555
C16_3 C13_3 1_555 1_555
H11_3 C16_3 1_555 1_555
C17_3 N4_3 1_555 1_555
H12_3 C17_3 1_555 1_555
Zn6_3 N4_3 1_555 1_555
C12_3 C14_3 1_555 1_555
C15_3 C17_3 1_555 1_555
Zn5 O6_2 1_555 1_555
N9_2 Zn5 1_555 1_555
C3_4 H1_4 1_555 1_555
H2_4 C4_4 1_555 1_555
H5_4 C9_4 1_555 1_555
C3_4 C9_4 1_555 1_555
C15_4 C12_4 1_555 1_555
H10_4 C15_4 1_555 1_555
C17_4 N4_4 1_555 1_555
H12_4 C17_4 1_555 1_555
Zn6_4 N4_4 1_555 1_555
C15_4 C17_4 1_555 1_555
C8_4 C2_4 1_555 1_555
H4_4 C8_4 1_555 1_555
C10_4 N9_2 1_555 1_555
H6_4 C10_4 1_555 1_555
C8_4 C10_4 1_555 1_555
C13_4 H8_4 1_555 1_555
H9_4 C14_4 1_555 1_555
C16_4 C13_4 1_555 1_555
H11_4 C16_4 1_555 1_555
Zn6 O1_3 1_555 1_555
Zn2_3 O2_3 1_555 1_555
O1_3 C7_3 1_555 1_555
O2_3 C5_3 1_555 1_555
N1_3 Zn6 1_555 1_555
O4_3 Zn2_3 1_555 1_555
C1_3 N1_3 1_555 1_555
C5_3 C11_3 1_555 1_555
C7_3 O4_3 1_555 1_555
O7_3 Zn2_3 1_555 1_555
O8_2 C19_3 1_555 1_555
O9_3 Zn2_3 1_555 1_555
N6_2 C20_3 1_555 1_555
C18_3 N5_3 1_555 1_555
C19_3 O7_3 1_555 1_555
C20_3 N5_3 1_555 1_555
H14_3 C20_3 1_555 1_555
C21_3 O9_3 1_555 1_555
C22_3 N6_2 1_555 1_555
Zn6_3 O8_2 1_555 1_555
O11_2 Zn6 1_555 1_555
N8_2 Zn6 1_555 1_555
C1_3 C7_3 1_555 1_555
C1_3 C11_3 1_555 1_555
N6_2 Zn6_3 1_555 1_555
C18_3 C21_3 1_555 1_555
C18_3 C22_3 1_555 1_555
C19_3 C22_3 1_555 1_555
N2_2 C6_3 1_555 1_555
H3_3 C6_3 1_555 1_555
Zn6_4 O3_2 1_555 1_555
N2_2 Zn6_4 1_555 1_555
Zn6_2 O6_3 1_555 1_555
O10_2 Zn6_2 1_555 1_555
N7_2 Zn6_2 1_555 1_555
Zn6_4 O6_4 1_555 1_555
N8_2 C20_4 1_555 1_555
H14_4 C20_4 1_555 1_555
Zn6_3 O1_4 1_555 1_555
Zn2_4 O2_4 1_555 1_555
O1_4 C7_4 1_555 1_555
O2_4 C5_4 1_555 1_555
N1_4 Zn6_3 1_555 1_555
O10_2 C5_4 1_555 1_555
O4_4 Zn2_4 1_555 1_555
N7_2 C6_4 1_555 1_555
C1_4 N1_4 1_555 1_555
C5_4 C11_4 1_555 1_555
C6_4 N1_4 1_555 1_555
H3_4 C6_4 1_555 1_555
C7_4 O4_4 1_555 1_555
C11_4 N7_2 1_555 1_555
O5_2 Zn2_4 1_555 1_555
H7_2 O5_2 1_555 1_555
H13_2 O5_2 1_555 1_555
O7_4 Zn2_4 1_555 1_555
O9_4 Zn2_4 1_555 1_555
C18_4 N5_4 1_555 1_555
C19_4 O7_4 1_555 1_555
C21_4 O9_4 1_555 1_555
C1_4 C7_4 1_555 1_555
C1_4 C11_4 1_555 1_555
C18_4 C21_4 1_555 1_555
C18_4 C22_4 1_555 1_555
C19_4 C22_4 1_555 1_555
H7_3 O5_3 1_555 1_555
H13_3 O5_3 1_555 1_555
H7_4 O5_4 1_555 1_555
H13_4 O5_4 1_555 1_555

#END
