
###############################################################################
#
# This file contains modified crystal structure data generated from the
# MOF subset of the Cambridge Structural Database (CSD) v543 
# hosted by the Cambridge Crystallographic Data Centre (CCDC).
#
# This work is licensed under the Creative Commons
# Attribution-NonCommercial-ShareAlike 4.0 International License.
# To view a copy of this license, visit
# http://creativecommons.org/licenses/by-nc-sa/4.0/
# or send a letter to
# Creative Commons, PO Box 1866, Mountain View, CA 94042, USA.
#
# CIF created using the CSD Python API on 29 September 2022
# The structure has been converted into the P1 space group
# The structure has a 3D framework
# The original CSD entry LUMYID is in the monoclinic crystal system
# The framework has been calculated to contain at least 10.0% void space
# The void calculation uses a probe of radius 1.32A, grid spacing 0.4
# The framework is charged, counterions have been retained in the structure
# H atom positions have been added when not included in the experimental data
# Generated hydrogen atom positions removed from atoms on special positions
#
###############################################################################

data_LUMYID
_chemical_formula_moiety         '(C48 H32 Cu8 N70 O8)n'
_symmetry_cell_setting           triclinic
_symmetry_space_group_name_H-M   'P 1'
_symmetry_Int_Tables_number      1
_space_group_name_Hall           'P 1'
loop_
_symmetry_equiv_pos_site_id
_symmetry_equiv_pos_as_xyz
1 x,y,z
_cell_length_a                   24.321(5)
_cell_length_b                   9.4098(19)
_cell_length_c                   16.628(3)
_cell_angle_alpha                90
_cell_angle_beta                 119.24(3)
_cell_angle_gamma                90
_cell_volume                     3320.53
loop_
_atom_site_label
_atom_site_type_symbol
_atom_site_fract_x
_atom_site_fract_y
_atom_site_fract_z
O1 O 0.915(2) 0.817(5) 0.739(3)
O1_2 O 0.085(2) 0.817(5) 0.761(3)
O1_3 O 0.415(2) 0.317(5) 0.739(3)
O1_4 O 0.585(2) 0.317(5) 0.761(3)
O1_5 O 0.085(2) 0.183(5) 0.261(3)
O1_6 O 0.915(2) 0.183(5) 0.239(3)
O1_7 O 0.585(2) 0.683(5) 0.261(3)
O1_8 O 0.415(2) 0.683(5) 0.239(3)
N21 N 0.07985(19) 0.0073(5) 0.0236(3)
Cu1 Cu 0.04273(3) 0.82357(6) 0.04115(4)
Cu4 Cu 0.04277(3) 0.61430(6) 0.37746(4)
N19 N 0.08176(19) 0.7907(5) 0.4627(3)
N20 N 0.04642(19) 0.8803(4) 0.4828(3)
N23 N 0.0820(2) 0.7638(5) 0.1778(3)
N24 N 0.04789(19) 0.6974(5) 0.2074(3)
N25 N 0.08231(19) 0.6812(4) 0.2991(3)
N27 N 0.0449(3) 0.4339(6) 0.4306(4)
N9 N 0.0449(3) 0.5661(6) 0.9306(4)
C6 C 0.0452(3) 0.6683(5) 0.9674(4)
Cu9 Cu 0.04277(3) 0.38570(6) 0.87746(4)
N22 N 0.92015(19) 0.0073(5) 0.4764(3)
Cu6 Cu 0.95727(3) 0.17643(6) 0.95885(4)
Cu2 Cu 0.95723(3) 0.61430(6) 0.12254(4)
N1 N 0.91824(19) 0.7907(5) 0.0373(3)
N2 N 0.95358(19) 0.8803(4) 0.0172(3)
N5 N 0.8605(2) 0.7907(5) 0.2511(3)
N6 N 0.9180(2) 0.7638(5) 0.3222(3)
N7 N 0.95211(19) 0.6974(5) 0.2926(3)
N8 N 0.91769(19) 0.6812(4) 0.2009(3)
C1 C 0.7493(2) 0.6964(6) 0.0764(3)
H1 H 0.7491 0.6593 0.1281
C2 C 0.8064(2) 0.7438(5) 0.0845(3)
C3 C 0.8068(2) 0.7970(6) 0.0061(3)
C4 C 0.8628(2) 0.8557(6) 0.0060(3)
C5 C 0.8623(2) 0.7401(5) 0.1776(3)
N12 N 0.57985(19) 0.5073(5) 0.0236(3)
N13 N 0.6376(2) 0.5185(5) 0.0325(3)
Cu3 Cu 0.95727(3) 0.82357(6) 0.45885(4)
N18 N 0.9551(3) 0.5661(6) 0.5694(4)
C12 C 0.9548(3) 0.6683(5) 0.5326(4)
Cu5 Cu 0.54273(3) 0.32357(6) 0.04115(4)
Cu10 Cu 0.95723(3) 0.38570(6) 0.62254(4)
N26 N 0.9551(3) 0.4339(6) 0.0694(4)
N3 N 0.92015(19) 0.9927(5) 0.9764(3)
N4 N 0.8624(2) 0.9815(5) 0.9675(3)
N10 N 0.58176(19) 0.7093(5) 0.9627(3)
N11 N 0.54642(19) 0.6197(4) 0.9828(3)
N14 N 0.6395(2) 0.7093(5) 0.7489(3)
N15 N 0.5820(2) 0.7362(5) 0.6778(3)
N16 N 0.54789(19) 0.8026(5) 0.7074(3)
N17 N 0.58231(19) 0.8188(4) 0.7991(3)
C7 C 0.7507(2) 0.8036(6) 0.9236(3)
H2 H 0.7509 0.8407 0.8719
C8 C 0.6936(2) 0.7562(5) 0.9155(3)
C9 C 0.6932(2) 0.7030(6) 0.9939(3)
C10 C 0.6372(2) 0.6443(6) 0.9940(3)
C11 C 0.6377(2) 0.7599(5) 0.8224(3)
Cu7 Cu 0.45727(3) 0.67643(6) 0.95885(4)
Cu8 Cu 0.54273(3) 0.67643(6) 0.54115(4)
Cu11 Cu 0.54277(3) 0.88570(6) 0.87746(4)
Cu12 Cu 0.45723(3) 0.88570(6) 0.62254(4)
Cu6_2 Cu 0.04273(3) 0.17643(6) 0.54115(4)
N3_2 N 0.07985(19) 0.9927(5) 0.5236(3)
N4_2 N 0.1376(2) 0.9815(5) 0.5325(3)
N5_2 N 0.1395(2) 0.7907(5) 0.2489(3)
C1_2 C 0.2507(2) 0.6964(6) 0.4236(3)
H1_2 H 0.2509 0.6593 0.3719
C2_2 C 0.1936(2) 0.7438(5) 0.4155(3)
C3_2 C 0.1932(2) 0.7970(6) 0.4939(3)
C4_2 C 0.1372(2) 0.8557(6) 0.4940(3)
C5_2 C 0.1377(2) 0.7401(5) 0.3224(3)
N10_2 N 0.41824(19) 0.7093(5) 0.5373(3)
N11_2 N 0.45358(19) 0.6197(4) 0.5172(3)
N12_2 N 0.42015(19) 0.5073(5) 0.4764(3)
N13_2 N 0.3624(2) 0.5185(5) 0.4675(3)
N14_2 N 0.3605(2) 0.7093(5) 0.7511(3)
N15_2 N 0.4180(2) 0.7362(5) 0.8222(3)
N16_2 N 0.45211(19) 0.8026(5) 0.7926(3)
N17_2 N 0.41769(19) 0.8188(4) 0.7009(3)
C7_2 C 0.2493(2) 0.8036(6) 0.5764(3)
H2_2 H 0.2491 0.8407 0.6281
C8_2 C 0.3064(2) 0.7562(5) 0.5845(3)
C9_2 C 0.3068(2) 0.7030(6) 0.5061(3)
C10_2 C 0.3628(2) 0.6443(6) 0.5060(3)
C11_2 C 0.3623(2) 0.7599(5) 0.6776(3)
Cu5_2 Cu 0.45727(3) 0.32357(6) 0.45885(4)
Cu2_2 Cu 0.45723(3) 0.11430(6) 0.12254(4)
N1_2 N 0.41824(19) 0.2907(5) 0.0373(3)
N2_2 N 0.45358(19) 0.3803(4) 0.0172(3)
N5_3 N 0.3605(2) 0.2907(5) 0.2511(3)
N6_2 N 0.4180(2) 0.2638(5) 0.3222(3)
N7_2 N 0.45211(19) 0.1974(5) 0.2926(3)
N8_2 N 0.41769(19) 0.1812(4) 0.2009(3)
C1_3 C 0.2493(2) 0.1964(6) 0.0764(3)
H1_3 H 0.2491 0.1593 0.1281
C2_3 C 0.3064(2) 0.2438(5) 0.0845(3)
C3_3 C 0.3068(2) 0.2970(6) 0.0061(3)
C4_3 C 0.3628(2) 0.3557(6) 0.0060(3)
C5_3 C 0.3623(2) 0.2401(5) 0.1776(3)
N13_3 N 0.1376(2) 0.0185(5) 0.0325(3)
Cu4_2 Cu 0.54277(3) 0.11430(6) 0.37746(4)
N18_2 N 0.4551(3) 0.0661(6) 0.5694(4)
C12_2 C 0.4548(3) 0.1683(5) 0.5326(4)
N19_2 N 0.58176(19) 0.2907(5) 0.4627(3)
N20_2 N 0.54642(19) 0.3803(4) 0.4828(3)
N23_2 N 0.5820(2) 0.2638(5) 0.1778(3)
N24_2 N 0.54789(19) 0.1974(5) 0.2074(3)
N25_2 N 0.58231(19) 0.1812(4) 0.2991(3)
N3_3 N 0.42015(19) 0.4927(5) 0.9764(3)
N4_3 N 0.3624(2) 0.4815(5) 0.9675(3)
N9_2 N 0.5449(3) 0.0661(6) 0.9306(4)
C6_2 C 0.5452(3) 0.1683(5) 0.9674(4)
N10_3 N 0.08176(19) 0.2093(5) 0.9627(3)
N11_3 N 0.04642(19) 0.1197(4) 0.9828(3)
N14_3 N 0.1395(2) 0.2093(5) 0.7489(3)
N15_3 N 0.0820(2) 0.2362(5) 0.6778(3)
N16_3 N 0.04789(19) 0.3026(5) 0.7074(3)
N17_3 N 0.08231(19) 0.3188(4) 0.7991(3)
C7_3 C 0.2507(2) 0.3036(6) 0.9236(3)
H2_3 H 0.2509 0.3407 0.8719
C8_3 C 0.1936(2) 0.2562(5) 0.9155(3)
C9_3 C 0.1932(2) 0.2030(6) 0.9939(3)
C10_3 C 0.1372(2) 0.1443(6) 0.9940(3)
C11_3 C 0.1377(2) 0.2599(5) 0.8224(3)
N26_2 N 0.4551(3) 0.9339(6) 0.0694(4)
N27_2 N 0.5449(3) 0.9339(6) 0.4306(4)
N3_4 N 0.57985(19) 0.4927(5) 0.5236(3)
N4_4 N 0.6376(2) 0.4815(5) 0.5325(3)
N5_4 N 0.6395(2) 0.2907(5) 0.2489(3)
C1_4 C 0.7507(2) 0.1964(6) 0.4236(3)
H1_4 H 0.7509 0.1593 0.3719
C2_4 C 0.6936(2) 0.2438(5) 0.4155(3)
C3_4 C 0.6932(2) 0.2970(6) 0.4939(3)
C4_4 C 0.6372(2) 0.3557(6) 0.4940(3)
C5_4 C 0.6377(2) 0.2401(5) 0.3224(3)
N10_4 N 0.91824(19) 0.2093(5) 0.5373(3)
N11_4 N 0.95358(19) 0.1197(4) 0.5172(3)
N13_4 N 0.8624(2) 0.0185(5) 0.4675(3)
N14_4 N 0.8605(2) 0.2093(5) 0.7511(3)
N15_4 N 0.9180(2) 0.2362(5) 0.8222(3)
N16_4 N 0.95211(19) 0.3026(5) 0.7926(3)
N17_4 N 0.91769(19) 0.3188(4) 0.7009(3)
C7_4 C 0.7493(2) 0.3036(6) 0.5764(3)
H2_4 H 0.7491 0.3407 0.6281
C8_4 C 0.8064(2) 0.2562(5) 0.5845(3)
C9_4 C 0.8068(2) 0.2030(6) 0.5061(3)
C10_4 C 0.8628(2) 0.1443(6) 0.5060(3)
C11_4 C 0.8623(2) 0.2599(5) 0.6776(3)
C12_3 C 0.0452(3) 0.3317(5) 0.4674(4)
C6_3 C 0.9548(3) 0.3317(5) 0.0326(4)
C6_4 C 0.4548(3) 0.8317(5) 0.0326(4)
C12_4 C 0.5452(3) 0.8317(5) 0.4674(4)
loop_
_geom_bond_atom_site_label_1
_geom_bond_atom_site_label_2
_geom_bond_site_symmetry_1
_geom_bond_site_symmetry_2
N19 Cu4 1_555 1_555
N23 Cu1 1_555 1_555
N25 Cu4 1_555 1_555
N27 Cu4 1_555 1_555
N19 N20 1_555 1_555
N23 N24 1_555 1_555
N24 N25 1_555 1_555
N9 C6 1_555 1_555
Cu9 N9 1_555 1_555
Cu2 N1 1_555 1_555
N1 N2 1_555 1_555
N5 N6 1_555 1_555
N6 N7 1_555 1_555
N7 N8 1_555 1_555
N8 Cu2 1_555 1_555
C1 H1 1_555 1_555
C2 C1 1_555 1_555
C3 C2 1_555 1_555
C4 N1 1_555 1_555
C5 N5 1_555 1_555
N12 N13 1_555 1_555
Cu3 N6 1_555 1_555
N18 C12 1_555 1_555
C12 Cu3 1_555 1_555
Cu5 N12 1_555 1_555
Cu10 N18 1_555 1_555
N26 Cu2 1_555 1_555
N8 C5 1_555 1_555
C2 C5 1_555 1_555
C3 C4 1_555 1_555
N3 N4 1_555 1_555
N10 N11 1_555 1_555
N14 N15 1_555 1_555
N15 N16 1_555 1_555
N16 N17 1_555 1_555
N17 C11 1_555 1_555
H2 C7 1_555 1_555
C8 C7 1_555 1_555
C10 N10 1_555 1_555
C11 N14 1_555 1_555
Cu7 N11 1_555 1_555
Cu8 N15 1_555 1_555
Cu11 N10 1_555 1_555
Cu12 N16 1_555 1_555
N17 Cu11 1_555 1_555
C8 C9 1_555 1_555
C8 C11 1_555 1_555
C9 C10 1_555 1_555
N20 N3_2 1_555 1_555
N3_2 N4_2 1_555 1_555
N4_2 C4_2 1_555 1_555
N5_2 N23 1_555 1_555
C1_2 H1_2 1_555 1_555
C2_2 C1_2 1_555 1_555
C3_2 C2_2 1_555 1_555
C4_2 N19 1_555 1_555
C5_2 N5_2 1_555 1_555
N10_2 N11_2 1_555 1_555
N11_2 N12_2 1_555 1_555
N12_2 N13_2 1_555 1_555
N13_2 C10_2 1_555 1_555
N14_2 N15_2 1_555 1_555
N15_2 N16_2 1_555 1_555
N16_2 N17_2 1_555 1_555
N17_2 C11_2 1_555 1_555
C7_2 C3_2 1_555 1_555
H2_2 C7_2 1_555 1_555
C8_2 C7_2 1_555 1_555
C9_2 C1_2 1_555 1_555
C10_2 N10_2 1_555 1_555
C11_2 N14_2 1_555 1_555
Cu5_2 N12_2 1_555 1_555
Cu8 N11_2 1_555 1_555
Cu7 N15_2 1_555 1_555
Cu12 N10_2 1_555 1_555
Cu11 N16_2 1_555 1_555
N25 C5_2 1_555 1_555
C2_2 C5_2 1_555 1_555
C3_2 C4_2 1_555 1_555
N17_2 Cu12 1_555 1_555
C8_2 C9_2 1_555 1_555
C8_2 C11_2 1_555 1_555
C9_2 C10_2 1_555 1_555
Cu5 N2_2 1_555 1_555
Cu2_2 N1_2 1_555 1_555
N1_2 N2_2 1_555 1_555
N5_3 N6_2 1_555 1_555
N6_2 N7_2 1_555 1_555
N7_2 N8_2 1_555 1_555
N8_2 Cu2_2 1_555 1_555
C1_3 H1_3 1_555 1_555
C2_3 C1_3 1_555 1_555
C3_3 C2_3 1_555 1_555
C4_3 N1_2 1_555 1_555
C5_3 N5_3 1_555 1_555
N21 N13_3 1_555 1_555
Cu5_2 N6_2 1_555 1_555
Cu4_2 N7_2 1_555 1_555
N18_2 C12_2 1_555 1_555
C12_2 Cu5_2 1_555 1_555
N19_2 Cu4_2 1_555 1_555
N20_2 Cu5_2 1_555 1_555
N23_2 Cu5 1_555 1_555
N24_2 Cu2_2 1_555 1_555
N25_2 Cu4_2 1_555 1_555
N8_2 C5_3 1_555 1_555
C2_3 C5_3 1_555 1_555
C3_3 C4_3 1_555 1_555
N19_2 N20_2 1_555 1_555
N23_2 N24_2 1_555 1_555
N24_2 N25_2 1_555 1_555
N3_3 N4_3 1_555 1_555
N9_2 C6_2 1_555 1_555
N10_3 N11_3 1_555 1_555
N14_3 N15_3 1_555 1_555
N15_3 N16_3 1_555 1_555
N16_3 N17_3 1_555 1_555
N17_3 C11_3 1_555 1_555
H2_3 C7_3 1_555 1_555
C8_3 C7_3 1_555 1_555
C10_3 N10_3 1_555 1_555
C11_3 N14_3 1_555 1_555
Cu7 N3_3 1_555 1_555
Cu6_2 N15_3 1_555 1_555
Cu9 N10_3 1_555 1_555
N17_3 Cu9 1_555 1_555
C8_3 C9_3 1_555 1_555
C8_3 C11_3 1_555 1_555
C9_3 C10_3 1_555 1_555
N20_2 N3_4 1_555 1_555
N3_4 N4_4 1_555 1_555
N4_4 C4_4 1_555 1_555
N5_4 N23_2 1_555 1_555
C1_4 H1_4 1_555 1_555
C2_4 C1_4 1_555 1_555
C3_4 C2_4 1_555 1_555
C4_4 N19_2 1_555 1_555
C5_4 N5_4 1_555 1_555
N10_4 N11_4 1_555 1_555
N11_4 N22 1_555 1_555
N22 N13_4 1_555 1_555
N13_4 C10_4 1_555 1_555
N14_4 N15_4 1_555 1_555
N15_4 N16_4 1_555 1_555
N16_4 N17_4 1_555 1_555
N17_4 C11_4 1_555 1_555
C7_4 C3_4 1_555 1_555
H2_4 C7_4 1_555 1_555
C8_4 C7_4 1_555 1_555
C9_4 C1_4 1_555 1_555
C10_4 N10_4 1_555 1_555
C11_4 N14_4 1_555 1_555
Cu8 N3_4 1_555 1_555
Cu6 N15_4 1_555 1_555
Cu10 N10_4 1_555 1_555
N25_2 C5_4 1_555 1_555
C2_4 C5_4 1_555 1_555
C3_4 C4_4 1_555 1_555
N17_4 Cu10 1_555 1_555
C8_4 C9_4 1_555 1_555
C8_4 C11_4 1_555 1_555
C9_4 C10_4 1_555 1_555
N27 C12_3 1_555 1_555
C12_3 Cu6_2 1_555 1_555
N26 C6_3 1_555 1_555
N26_2 C6_4 1_555 1_555
N27_2 C12_4 1_555 1_555
C12_4 Cu8 1_555 1_555

#END
