
###############################################################################
#
# This file contains modified crystal structure data generated from the
# MOF subset of the Cambridge Structural Database (CSD) v543 
# hosted by the Cambridge Crystallographic Data Centre (CCDC).
#
# This work is licensed under the Creative Commons
# Attribution-NonCommercial-ShareAlike 4.0 International License.
# To view a copy of this license, visit
# http://creativecommons.org/licenses/by-nc-sa/4.0/
# or send a letter to
# Creative Commons, PO Box 1866, Mountain View, CA 94042, USA.
#
# CIF created using the CSD Python API on 29 September 2022
# The structure has been converted into the P1 space group
# The structure has a 3D framework
# The original CSD entry LUMYOJ is in the monoclinic crystal system
# The framework has been calculated to contain at least 10.0% void space
# The void calculation uses a probe of radius 1.32A, grid spacing 0.4
#
###############################################################################

data_LUMYOJ
_chemical_formula_moiety         '(C48 H8 Cu8 N70)n'
_symmetry_cell_setting           triclinic
_symmetry_space_group_name_H-M   'P 1'
_symmetry_Int_Tables_number      1
_space_group_name_Hall           'P 1'
loop_
_symmetry_equiv_pos_site_id
_symmetry_equiv_pos_as_xyz
1 x,y,z
_cell_length_a                   24.338(5)
_cell_length_b                   9.4877(19)
_cell_length_c                   16.502(3)
_cell_angle_alpha                90
_cell_angle_beta                 119.89(3)
_cell_angle_gamma                90
_cell_volume                     3303.64
loop_
_atom_site_label
_atom_site_type_symbol
_atom_site_fract_x
_atom_site_fract_y
_atom_site_fract_z
N19 N 0.07913(9) 0.0065(2) 0.02155(14)
Cu1 Cu 0.042716(13) 0.82361(3) 0.03963(2)
Cu4 Cu 0.042800(13) 0.61493(3) 0.37775(2)
N21 N 0.04641(8) 0.8789(2) 0.48310(14)
N22 N 0.08199(8) 0.7897(2) 0.46387(14)
N23 N 0.08236(9) 0.6822(2) 0.29902(13)
N24 N 0.04813(9) 0.6989(2) 0.20721(13)
N25 N 0.08221(9) 0.7645(2) 0.17658(14)
N27 N 0.04457(12) 0.4334(3) 0.42933(18)
C1 C 0.04375(12) 0.6686(3) 0.96414(17)
N9 N 0.04457(12) 0.5666(3) 0.92933(18)
Cu9 Cu 0.042800(13) 0.38507(3) 0.87775(2)
N20 N 0.92087(9) 0.0065(2) 0.47845(14)
Cu6 Cu 0.957284(13) 0.17639(3) 0.96037(2)
Cu2 Cu 0.957200(13) 0.61493(3) 0.12225(2)
N3 N 0.95359(8) 0.8789(2) 0.01690(14)
N4 N 0.91801(8) 0.7897(2) 0.03613(14)
N5 N 0.91764(9) 0.6822(2) 0.20098(13)
N6 N 0.95187(9) 0.6989(2) 0.29279(13)
N7 N 0.91779(9) 0.7645(2) 0.32342(14)
N8 N 0.86000(9) 0.7913(3) 0.25217(14)
C2 C 0.74918(10) 0.6979(3) 0.07708(17)
H1 H 0.7492 0.6625 0.1296
C3 C 0.80603(10) 0.7438(3) 0.08491(16)
C4 C 0.80715(10) 0.7963(3) 0.00681(16)
C5 C 0.86330(10) 0.8555(3) 0.00706(16)
C6 C 0.86185(10) 0.7401(3) 0.17876(16)
N10 N 0.63694(9) 0.5177(2) 0.02937(15)
N11 N 0.57913(9) 0.5065(2) 0.02155(14)
Cu3 Cu 0.957284(13) 0.82361(3) 0.46037(2)
C12 C 0.95625(12) 0.6686(3) 0.53586(17)
N18 N 0.95543(12) 0.5666(3) 0.57067(18)
Cu5 Cu 0.542716(13) 0.32361(3) 0.03963(2)
Cu10 Cu 0.957200(13) 0.38507(3) 0.62225(2)
N26 N 0.95543(12) 0.4334(3) 0.07067(18)
N1 N 0.86306(9) 0.9823(2) 0.97063(15)
N2 N 0.92087(9) 0.9935(2) 0.97845(14)
N12 N 0.54641(8) 0.6211(2) 0.98310(14)
N13 N 0.58199(8) 0.7103(2) 0.96387(14)
N14 N 0.58236(9) 0.8178(2) 0.79902(13)
N15 N 0.54813(9) 0.8011(2) 0.70721(13)
N16 N 0.58221(9) 0.7355(2) 0.67658(14)
N17 N 0.64000(9) 0.7087(3) 0.74783(14)
C7 C 0.75082(10) 0.8021(3) 0.92292(17)
H2 H 0.7508 0.8375 0.8704
C8 C 0.69397(10) 0.7562(3) 0.91509(16)
C9 C 0.69285(10) 0.7037(3) 0.99319(16)
C10 C 0.63670(10) 0.6445(3) 0.99294(16)
C11 C 0.63815(10) 0.7599(3) 0.82124(16)
Cu7 Cu 0.457284(13) 0.67639(3) 0.96037(2)
Cu8 Cu 0.542716(13) 0.67639(3) 0.53963(2)
Cu11 Cu 0.542800(13) 0.88507(3) 0.87775(2)
Cu12 Cu 0.457200(13) 0.88507(3) 0.62225(2)
Cu6_2 Cu 0.042716(13) 0.17639(3) 0.53963(2)
N1_2 N 0.13694(9) 0.9823(2) 0.52937(15)
N2_2 N 0.07913(9) 0.9935(2) 0.52155(14)
N8_2 N 0.14000(9) 0.7913(3) 0.24783(14)
C2_2 C 0.25082(10) 0.6979(3) 0.42292(17)
H1_2 H 0.2508 0.6625 0.3704
C3_2 C 0.19397(10) 0.7438(3) 0.41509(16)
C4_2 C 0.19285(10) 0.7963(3) 0.49319(16)
C5_2 C 0.13670(10) 0.8555(3) 0.49294(16)
C6_2 C 0.13815(10) 0.7401(3) 0.32124(16)
N10_2 N 0.36306(9) 0.5177(2) 0.47063(15)
N11_2 N 0.42087(9) 0.5065(2) 0.47845(14)
N12_2 N 0.45359(8) 0.6211(2) 0.51690(14)
N13_2 N 0.41801(8) 0.7103(2) 0.53613(14)
N14_2 N 0.41764(9) 0.8178(2) 0.70098(13)
N15_2 N 0.45187(9) 0.8011(2) 0.79279(13)
N16_2 N 0.41779(9) 0.7355(2) 0.82342(14)
N17_2 N 0.36000(9) 0.7087(3) 0.75217(14)
C7_2 C 0.24918(10) 0.8021(3) 0.57708(17)
H2_2 H 0.2492 0.8375 0.6296
C8_2 C 0.30603(10) 0.7562(3) 0.58491(16)
C9_2 C 0.30715(10) 0.7037(3) 0.50681(16)
C10_2 C 0.36330(10) 0.6445(3) 0.50706(16)
C11_2 C 0.36185(10) 0.7599(3) 0.67876(16)
Cu5_2 Cu 0.457284(13) 0.32361(3) 0.46037(2)
Cu2_2 Cu 0.457200(13) 0.11493(3) 0.12225(2)
N3_2 N 0.45359(8) 0.3789(2) 0.01690(14)
N4_2 N 0.41801(8) 0.2897(2) 0.03613(14)
N5_2 N 0.41764(9) 0.1822(2) 0.20098(13)
N6_2 N 0.45187(9) 0.1989(2) 0.29279(13)
N7_2 N 0.41779(9) 0.2645(2) 0.32342(14)
N8_3 N 0.36000(9) 0.2913(3) 0.25217(14)
C2_3 C 0.24918(10) 0.1979(3) 0.07708(17)
H1_3 H 0.2492 0.1625 0.1296
C3_3 C 0.30603(10) 0.2438(3) 0.08491(16)
C4_3 C 0.30715(10) 0.2963(3) 0.00681(16)
C5_3 C 0.36330(10) 0.3555(3) 0.00706(16)
C6_3 C 0.36185(10) 0.2401(3) 0.17876(16)
N10_3 N 0.13694(9) 0.0177(2) 0.02937(15)
Cu4_2 Cu 0.542800(13) 0.11493(3) 0.37775(2)
C12_2 C 0.45625(12) 0.1686(3) 0.53586(17)
N18_2 N 0.45543(12) 0.0666(3) 0.57067(18)
N21_2 N 0.54641(8) 0.3789(2) 0.48310(14)
N22_2 N 0.58199(8) 0.2897(2) 0.46387(14)
N23_2 N 0.58236(9) 0.1822(2) 0.29902(13)
N24_2 N 0.54813(9) 0.1989(2) 0.20721(13)
N25_2 N 0.58221(9) 0.2645(2) 0.17658(14)
N1_3 N 0.36306(9) 0.4823(2) 0.97063(15)
N2_3 N 0.42087(9) 0.4935(2) 0.97845(14)
C1_2 C 0.54375(12) 0.1686(3) 0.96414(17)
N9_2 N 0.54457(12) 0.0666(3) 0.92933(18)
N12_3 N 0.04641(8) 0.1211(2) 0.98310(14)
N13_3 N 0.08199(8) 0.2103(2) 0.96387(14)
N14_3 N 0.08236(9) 0.3178(2) 0.79902(13)
N15_3 N 0.04813(9) 0.3011(2) 0.70721(13)
N16_3 N 0.08221(9) 0.2355(2) 0.67658(14)
N17_3 N 0.14000(9) 0.2087(3) 0.74783(14)
C7_3 C 0.25082(10) 0.3021(3) 0.92292(17)
H2_3 H 0.2508 0.3375 0.8704
C8_3 C 0.19397(10) 0.2562(3) 0.91509(16)
C9_3 C 0.19285(10) 0.2037(3) 0.99319(16)
C10_3 C 0.13670(10) 0.1445(3) 0.99294(16)
C11_3 C 0.13815(10) 0.2599(3) 0.82124(16)
N26_2 N 0.45543(12) 0.9334(3) 0.07067(18)
N27_2 N 0.54457(12) 0.9334(3) 0.42933(18)
N1_4 N 0.63694(9) 0.4823(2) 0.52937(15)
N2_4 N 0.57913(9) 0.4935(2) 0.52155(14)
N8_4 N 0.64000(9) 0.2913(3) 0.24783(14)
C2_4 C 0.75082(10) 0.1979(3) 0.42292(17)
H1_4 H 0.7508 0.1625 0.3704
C3_4 C 0.69397(10) 0.2438(3) 0.41509(16)
C4_4 C 0.69285(10) 0.2963(3) 0.49319(16)
C5_4 C 0.63670(10) 0.3555(3) 0.49294(16)
C6_4 C 0.63815(10) 0.2401(3) 0.32124(16)
N10_4 N 0.86306(9) 0.0177(2) 0.47063(15)
N12_4 N 0.95359(8) 0.1211(2) 0.51690(14)
N13_4 N 0.91801(8) 0.2103(2) 0.53613(14)
N14_4 N 0.91764(9) 0.3178(2) 0.70098(13)
N15_4 N 0.95187(9) 0.3011(2) 0.79279(13)
N16_4 N 0.91779(9) 0.2355(2) 0.82342(14)
N17_4 N 0.86000(9) 0.2087(3) 0.75217(14)
C7_4 C 0.74918(10) 0.3021(3) 0.57708(17)
H2_4 H 0.7492 0.3375 0.6296
C8_4 C 0.80603(10) 0.2562(3) 0.58491(16)
C9_4 C 0.80715(10) 0.2037(3) 0.50681(16)
C10_4 C 0.86330(10) 0.1445(3) 0.50706(16)
C11_4 C 0.86185(10) 0.2599(3) 0.67876(16)
C12_3 C 0.04375(12) 0.3314(3) 0.46414(17)
C1_3 C 0.95625(12) 0.3314(3) 0.03586(17)
C1_4 C 0.45625(12) 0.8314(3) 0.03586(17)
C12_4 C 0.54375(12) 0.8314(3) 0.46414(17)
loop_
_geom_bond_atom_site_label_1
_geom_bond_atom_site_label_2
_geom_bond_site_symmetry_1
_geom_bond_site_symmetry_2
N22 Cu4 1_555 1_555
N23 Cu4 1_555 1_555
N25 Cu1 1_555 1_555
N27 Cu4 1_555 1_555
N21 N22 1_555 1_555
N23 N24 1_555 1_555
N24 N25 1_555 1_555
N9 C1 1_555 1_555
Cu9 N9 1_555 1_555
Cu2 N4 1_555 1_555
N3 N4 1_555 1_555
N4 C5 1_555 1_555
N5 Cu2 1_555 1_555
N6 N5 1_555 1_555
N7 N6 1_555 1_555
N8 N7 1_555 1_555
C2 H1 1_555 1_555
C3 C2 1_555 1_555
C4 C3 1_555 1_555
C6 N5 1_555 1_555
N10 N11 1_555 1_555
Cu3 N7 1_555 1_555
C12 Cu3 1_555 1_555
N18 C12 1_555 1_555
Cu5 N11 1_555 1_555
Cu10 N18 1_555 1_555
N26 Cu2 1_555 1_555
N8 C6 1_555 1_555
C3 C6 1_555 1_555
C4 C5 1_555 1_555
N1 N2 1_555 1_555
N12 N13 1_555 1_555
N13 C10 1_555 1_555
N14 N15 1_555 1_555
N15 N16 1_555 1_555
N16 N17 1_555 1_555
N17 C11 1_555 1_555
H2 C7 1_555 1_555
C8 C7 1_555 1_555
C11 N14 1_555 1_555
Cu7 N12 1_555 1_555
Cu8 N16 1_555 1_555
Cu11 N13 1_555 1_555
Cu12 N15 1_555 1_555
N14 Cu11 1_555 1_555
C8 C9 1_555 1_555
C8 C11 1_555 1_555
C9 C10 1_555 1_555
N1_2 N2_2 1_555 1_555
N2_2 N21 1_555 1_555
N22 C5_2 1_555 1_555
N8_2 N25 1_555 1_555
C2_2 H1_2 1_555 1_555
C3_2 C2_2 1_555 1_555
C4_2 C3_2 1_555 1_555
C5_2 N1_2 1_555 1_555
C6_2 N23 1_555 1_555
N10_2 N11_2 1_555 1_555
N11_2 N12_2 1_555 1_555
N12_2 N13_2 1_555 1_555
N13_2 C10_2 1_555 1_555
N14_2 N15_2 1_555 1_555
N15_2 N16_2 1_555 1_555
N16_2 N17_2 1_555 1_555
N17_2 C11_2 1_555 1_555
C7_2 C4_2 1_555 1_555
H2_2 C7_2 1_555 1_555
C8_2 C7_2 1_555 1_555
C9_2 C2_2 1_555 1_555
C10_2 N10_2 1_555 1_555
C11_2 N14_2 1_555 1_555
Cu5_2 N11_2 1_555 1_555
Cu8 N12_2 1_555 1_555
Cu7 N16_2 1_555 1_555
Cu12 N13_2 1_555 1_555
Cu11 N15_2 1_555 1_555
N8_2 C6_2 1_555 1_555
C3_2 C6_2 1_555 1_555
C4_2 C5_2 1_555 1_555
N14_2 Cu12 1_555 1_555
C8_2 C9_2 1_555 1_555
C8_2 C11_2 1_555 1_555
C9_2 C10_2 1_555 1_555
Cu5 N3_2 1_555 1_555
Cu2_2 N4_2 1_555 1_555
N3_2 N4_2 1_555 1_555
N4_2 C5_3 1_555 1_555
N5_2 Cu2_2 1_555 1_555
N6_2 N5_2 1_555 1_555
N7_2 N6_2 1_555 1_555
N8_3 N7_2 1_555 1_555
C2_3 H1_3 1_555 1_555
C3_3 C2_3 1_555 1_555
C4_3 C3_3 1_555 1_555
C6_3 N5_2 1_555 1_555
N10_3 N19 1_555 1_555
Cu5_2 N7_2 1_555 1_555
Cu4_2 N6_2 1_555 1_555
C12_2 Cu5_2 1_555 1_555
N18_2 C12_2 1_555 1_555
N21_2 Cu5_2 1_555 1_555
N22_2 Cu4_2 1_555 1_555
N23_2 Cu4_2 1_555 1_555
N24_2 Cu2_2 1_555 1_555
N25_2 Cu5 1_555 1_555
N8_3 C6_3 1_555 1_555
C3_3 C6_3 1_555 1_555
C4_3 C5_3 1_555 1_555
N21_2 N22_2 1_555 1_555
N23_2 N24_2 1_555 1_555
N24_2 N25_2 1_555 1_555
N1_3 N2_3 1_555 1_555
N9_2 C1_2 1_555 1_555
N12_3 N13_3 1_555 1_555
N13_3 C10_3 1_555 1_555
N14_3 N15_3 1_555 1_555
N15_3 N16_3 1_555 1_555
N16_3 N17_3 1_555 1_555
N17_3 C11_3 1_555 1_555
H2_3 C7_3 1_555 1_555
C8_3 C7_3 1_555 1_555
C11_3 N14_3 1_555 1_555
Cu7 N2_3 1_555 1_555
Cu6_2 N16_3 1_555 1_555
Cu9 N13_3 1_555 1_555
N14_3 Cu9 1_555 1_555
C8_3 C9_3 1_555 1_555
C8_3 C11_3 1_555 1_555
C9_3 C10_3 1_555 1_555
N1_4 N2_4 1_555 1_555
N2_4 N21_2 1_555 1_555
N22_2 C5_4 1_555 1_555
N8_4 N25_2 1_555 1_555
C2_4 H1_4 1_555 1_555
C3_4 C2_4 1_555 1_555
C4_4 C3_4 1_555 1_555
C5_4 N1_4 1_555 1_555
C6_4 N23_2 1_555 1_555
N10_4 N20 1_555 1_555
N20 N12_4 1_555 1_555
N12_4 N13_4 1_555 1_555
N13_4 C10_4 1_555 1_555
N14_4 N15_4 1_555 1_555
N15_4 N16_4 1_555 1_555
N16_4 N17_4 1_555 1_555
N17_4 C11_4 1_555 1_555
C7_4 C4_4 1_555 1_555
H2_4 C7_4 1_555 1_555
C8_4 C7_4 1_555 1_555
C9_4 C2_4 1_555 1_555
C10_4 N10_4 1_555 1_555
C11_4 N14_4 1_555 1_555
Cu8 N2_4 1_555 1_555
Cu6 N16_4 1_555 1_555
Cu10 N13_4 1_555 1_555
N8_4 C6_4 1_555 1_555
C3_4 C6_4 1_555 1_555
C4_4 C5_4 1_555 1_555
N14_4 Cu10 1_555 1_555
C8_4 C9_4 1_555 1_555
C8_4 C11_4 1_555 1_555
C9_4 C10_4 1_555 1_555
C12_3 Cu6_2 1_555 1_555
N27 C12_3 1_555 1_555
N26 C1_3 1_555 1_555
N26_2 C1_4 1_555 1_555
C12_4 Cu8 1_555 1_555
N27_2 C12_4 1_555 1_555

#END
