
###############################################################################
#
# This file contains modified crystal structure data generated from the
# MOF subset of the Cambridge Structural Database (CSD) v543 
# hosted by the Cambridge Crystallographic Data Centre (CCDC).
#
# This work is licensed under the Creative Commons
# Attribution-NonCommercial-ShareAlike 4.0 International License.
# To view a copy of this license, visit
# http://creativecommons.org/licenses/by-nc-sa/4.0/
# or send a letter to
# Creative Commons, PO Box 1866, Mountain View, CA 94042, USA.
#
# CIF created using the CSD Python API on 29 September 2022
# The structure has been converted into the P1 space group
# The structure has a 3D framework
# The original CSD entry LUMYEZ is in the monoclinic crystal system
# The framework has been calculated to contain at least 10.0% void space
# The void calculation uses a probe of radius 1.32A, grid spacing 0.4
# The framework is charged, counterions have been retained in the structure
# H atom positions have been added when not included in the experimental data
# Generated hydrogen atom positions removed from atoms on special positions
#
###############################################################################

data_LUMYEZ
_chemical_formula_moiety         '(C48 H32 Cu9 N68 O8)n'
_symmetry_cell_setting           triclinic
_symmetry_space_group_name_H-M   'P 1'
_symmetry_Int_Tables_number      1
_space_group_name_Hall           'P 1'
loop_
_symmetry_equiv_pos_site_id
_symmetry_equiv_pos_as_xyz
1 x,y,z
_cell_length_a                   24.258(5)
_cell_length_b                   9.4877(19)
_cell_length_c                   16.473(3)
_cell_angle_alpha                90
_cell_angle_beta                 118.79(3)
_cell_angle_gamma                90
_cell_volume                     3322.66
loop_
_atom_site_label
_atom_site_type_symbol
_atom_site_fract_x
_atom_site_fract_y
_atom_site_fract_z
Cu1 Cu 0.04272(3) 0.17662(6) 0.03882(4)
Cu2 Cu 0.04255(3) 0.38483(6) 0.37785(4)
N1 N 0.13703(19) 0.0186(5) 0.5300(3)
N2 N 0.07927(18) 0.0066(5) 0.5216(3)
N3 N 0.04633(18) 0.1198(4) 0.4829(3)
N4 N 0.08149(18) 0.2100(4) 0.4640(3)
N5 N 0.08264(18) 0.3183(4) 0.2988(3)
N6 N 0.04816(18) 0.3015(5) 0.2069(3)
N7 N 0.08206(19) 0.2366(5) 0.1764(3)
N8 N 0.13992(18) 0.2109(5) 0.2476(3)
C1 C 0.2509(2) 0.3028(6) 0.4230(3)
H1 H 0.2514 0.3390 0.3709
C2 C 0.1937(2) 0.2566(5) 0.4147(3)
C3 C 0.1928(2) 0.2031(5) 0.4938(3)
C4 C 0.1367(2) 0.1450(5) 0.4934(3)
C5 C 0.1379(2) 0.2608(5) 0.3216(3)
N10 N 0.36297(19) 0.4814(5) 0.4700(3)
N11 N 0.42073(18) 0.4934(5) 0.4784(3)
N12 N 0.45367(18) 0.3802(4) 0.5171(3)
N13 N 0.41851(18) 0.2900(4) 0.5360(3)
N14 N 0.41736(18) 0.1817(4) 0.7012(3)
N15 N 0.45184(18) 0.1985(5) 0.7931(3)
N16 N 0.41794(19) 0.2634(5) 0.8236(3)
N17 N 0.36008(18) 0.2891(5) 0.7524(3)
C7 C 0.2491(2) 0.1972(6) 0.5770(3)
H2 H 0.2486 0.1610 0.6291
C8 C 0.3063(2) 0.2434(5) 0.5853(3)
C9 C 0.3072(2) 0.2969(5) 0.5062(3)
C10 C 0.3633(2) 0.3550(5) 0.5066(3)
C11 C 0.3621(2) 0.2392(5) 0.6784(3)
Cu5 Cu 0.45728(3) 0.67662(6) 0.46118(4)
Cu7 Cu 0.45728(3) 0.32338(6) 0.96118(4)
Cu8 Cu 0.54272(3) 0.32338(6) 0.53882(4)
Cu11 Cu 0.45745(3) 0.11517(6) 0.62215(4)
Cu12 Cu 0.54255(3) 0.11517(6) 0.87785(4)
N27 N 0.0440(2) 0.5655(6) 0.4288(4)
N9 N 0.0440(2) 0.4345(6) 0.9288(4)
C6 C 0.0436(3) 0.3319(5) 0.9637(4)
Cu10 Cu 0.04255(3) 0.61517(6) 0.87785(4)
Cu6 Cu 0.04272(3) 0.82338(6) 0.53882(4)
N20 N 0.07927(18) 0.9934(5) 0.0216(3)
Cu3 Cu 0.95728(3) 0.17662(6) 0.46118(4)
Cu4 Cu 0.95745(3) 0.38483(6) 0.12215(4)
N18 N 0.9560(2) 0.4345(6) 0.5712(4)
C12 C 0.9564(3) 0.3319(5) 0.5363(4)
Cu9 Cu 0.95745(3) 0.61517(6) 0.62215(4)
N21 N 0.95367(18) 0.1198(4) 0.0171(3)
N22 N 0.91851(18) 0.2100(4) 0.0360(3)
N23 N 0.91736(18) 0.3183(4) 0.2012(3)
N24 N 0.95184(18) 0.3015(5) 0.2931(3)
N25 N 0.91794(19) 0.2366(5) 0.3236(3)
N26 N 0.9560(2) 0.5655(6) 0.0712(4)
N19 N 0.92073(18) 0.9934(5) 0.4784(3)
N8_2 N 0.86008(18) 0.2109(5) 0.2524(3)
C1_2 C 0.7491(2) 0.3028(6) 0.0770(3)
H1_2 H 0.7486 0.3390 0.1291
C2_2 C 0.8063(2) 0.2566(5) 0.0853(3)
C3_2 C 0.8072(2) 0.2031(5) 0.0062(3)
C4_2 C 0.8633(2) 0.1450(5) 0.0066(3)
C5_2 C 0.8621(2) 0.2608(5) 0.1784(3)
N10_2 N 0.63703(19) 0.4814(5) 0.0300(3)
N11_2 N 0.57927(18) 0.4934(5) 0.0216(3)
Cu5_2 Cu 0.54272(3) 0.67662(6) 0.03882(4)
N1_2 N 0.86297(19) 0.0186(5) 0.9700(3)
N2_2 N 0.92073(18) 0.0066(5) 0.9784(3)
N12_2 N 0.54633(18) 0.3802(4) 0.9829(3)
N13_2 N 0.58149(18) 0.2900(4) 0.9640(3)
N14_2 N 0.58264(18) 0.1817(4) 0.7988(3)
N15_2 N 0.54816(18) 0.1985(5) 0.7069(3)
N16_2 N 0.58206(19) 0.2634(5) 0.6764(3)
N17_2 N 0.63992(18) 0.2891(5) 0.7476(3)
C7_2 C 0.7509(2) 0.1972(6) 0.9230(3)
H2_2 H 0.7514 0.1610 0.8709
C8_2 C 0.6937(2) 0.2434(5) 0.9147(3)
C9_2 C 0.6928(2) 0.2969(5) 0.9938(3)
C10_2 C 0.6367(2) 0.3550(5) 0.9934(3)
C11_2 C 0.6379(2) 0.2392(5) 0.8216(3)
Cu6_2 Cu 0.95728(3) 0.82338(6) 0.96118(4)
N26_2 N 0.4560(2) 0.0655(6) 0.0712(4)
N27_2 N 0.5440(2) 0.0655(6) 0.4288(4)
Cu2_2 Cu 0.54255(3) 0.88483(6) 0.37785(4)
N1_3 N 0.63703(19) 0.5186(5) 0.5300(3)
N2_3 N 0.57927(18) 0.5066(5) 0.5216(3)
N3_2 N 0.54633(18) 0.6198(4) 0.4829(3)
N4_2 N 0.58149(18) 0.7100(4) 0.4640(3)
N5_2 N 0.58264(18) 0.8183(4) 0.2988(3)
N6_2 N 0.54816(18) 0.8015(5) 0.2069(3)
N7_2 N 0.58206(19) 0.7366(5) 0.1764(3)
N8_3 N 0.63992(18) 0.7109(5) 0.2476(3)
C1_3 C 0.7509(2) 0.8028(6) 0.4230(3)
H1_3 H 0.7514 0.8390 0.3709
C2_3 C 0.6937(2) 0.7566(5) 0.4147(3)
C3_3 C 0.6928(2) 0.7031(5) 0.4938(3)
C4_3 C 0.6367(2) 0.6450(5) 0.4934(3)
C5_3 C 0.6379(2) 0.7608(5) 0.3216(3)
N10_3 N 0.86297(19) 0.9814(5) 0.4700(3)
N12_3 N 0.95367(18) 0.8802(4) 0.5171(3)
N13_3 N 0.91851(18) 0.7900(4) 0.5360(3)
N14_3 N 0.91736(18) 0.6817(4) 0.7012(3)
N15_3 N 0.95184(18) 0.6985(5) 0.7931(3)
N16_3 N 0.91794(19) 0.7634(5) 0.8236(3)
N17_3 N 0.86008(18) 0.7891(5) 0.7524(3)
C7_3 C 0.7491(2) 0.6972(6) 0.5770(3)
H2_3 H 0.7486 0.6610 0.6291
C8_3 C 0.8063(2) 0.7434(5) 0.5853(3)
C9_3 C 0.8072(2) 0.7969(5) 0.5062(3)
C10_3 C 0.8633(2) 0.8550(5) 0.5066(3)
C11_3 C 0.8621(2) 0.7392(5) 0.6784(3)
Cu4_2 Cu 0.45745(3) 0.88483(6) 0.12215(4)
N18_2 N 0.4560(2) 0.9345(6) 0.5712(4)
C12_2 C 0.4564(3) 0.8319(5) 0.5363(4)
N21_2 N 0.45367(18) 0.6198(4) 0.0171(3)
N22_2 N 0.41851(18) 0.7100(4) 0.0360(3)
N23_2 N 0.41736(18) 0.8183(4) 0.2012(3)
N24_2 N 0.45184(18) 0.8015(5) 0.2931(3)
N25_2 N 0.41794(19) 0.7366(5) 0.3236(3)
N9_2 N 0.5440(2) 0.9345(6) 0.9288(4)
C6_2 C 0.5436(3) 0.8319(5) 0.9637(4)
N8_4 N 0.36008(18) 0.7109(5) 0.2524(3)
C1_4 C 0.2491(2) 0.8028(6) 0.0770(3)
H1_4 H 0.2486 0.8390 0.1291
C2_4 C 0.3063(2) 0.7566(5) 0.0853(3)
C3_4 C 0.3072(2) 0.7031(5) 0.0062(3)
C4_4 C 0.3633(2) 0.6450(5) 0.0066(3)
C5_4 C 0.3621(2) 0.7608(5) 0.1784(3)
N10_4 N 0.13703(19) 0.9814(5) 0.0300(3)
N1_4 N 0.36297(19) 0.5186(5) 0.9700(3)
N2_4 N 0.42073(18) 0.5066(5) 0.9784(3)
N12_4 N 0.04633(18) 0.8802(4) 0.9829(3)
N13_4 N 0.08149(18) 0.7900(4) 0.9640(3)
N14_4 N 0.08264(18) 0.6817(4) 0.7988(3)
N15_4 N 0.04816(18) 0.6985(5) 0.7069(3)
N16_4 N 0.08206(19) 0.7634(5) 0.6764(3)
N17_4 N 0.13992(18) 0.7891(5) 0.7476(3)
C7_4 C 0.2509(2) 0.6972(6) 0.9230(3)
H2_4 H 0.2514 0.6610 0.8709
C8_4 C 0.1937(2) 0.7434(5) 0.9147(3)
C9_4 C 0.1928(2) 0.7969(5) 0.9938(3)
C10_4 C 0.1367(2) 0.8550(5) 0.9934(3)
C11_4 C 0.1379(2) 0.7392(5) 0.8216(3)
C12_3 C 0.0436(3) 0.6681(5) 0.4637(4)
C6_3 C 0.9564(3) 0.6681(5) 0.0363(4)
C6_4 C 0.4564(3) 0.1681(5) 0.0363(4)
C12_4 C 0.5436(3) 0.1681(5) 0.4637(4)
O1 O 0.412(2) 0.687(5) 0.736(3)
O1_2 O 0.588(2) 0.687(5) 0.764(3)
O1_3 O 0.912(2) 0.187(5) 0.736(3)
O1_4 O 0.088(2) 0.187(5) 0.764(3)
O1_5 O 0.588(2) 0.313(5) 0.264(3)
O1_6 O 0.412(2) 0.313(5) 0.236(3)
O1_7 O 0.088(2) 0.813(5) 0.264(3)
O1_8 O 0.912(2) 0.813(5) 0.236(3)
loop_
_geom_bond_atom_site_label_1
_geom_bond_atom_site_label_2
_geom_bond_site_symmetry_1
_geom_bond_site_symmetry_2
Cu1 N7 1_555 1_555
Cu2 N4 1_555 1_555
N1 N2 1_555 1_555
N2 N3 1_555 1_555
N3 N4 1_555 1_555
N4 C4 1_555 1_555
N5 Cu2 1_555 1_555
N6 N5 1_555 1_555
N7 N6 1_555 1_555
N8 N7 1_555 1_555
C1 H1 1_555 1_555
C2 C1 1_555 1_555
C3 C2 1_555 1_555
C4 N1 1_555 1_555
C5 N5 1_555 1_555
N10 N11 1_555 1_555
N11 N12 1_555 1_555
N12 N13 1_555 1_555
N13 C10 1_555 1_555
N14 N15 1_555 1_555
N15 N16 1_555 1_555
N16 N17 1_555 1_555
N17 C11 1_555 1_555
C7 C3 1_555 1_555
H2 C7 1_555 1_555
C8 C7 1_555 1_555
C9 C1 1_555 1_555
C10 N10 1_555 1_555
C11 N14 1_555 1_555
Cu5 N11 1_555 1_555
Cu7 N16 1_555 1_555
Cu8 N12 1_555 1_555
Cu11 N13 1_555 1_555
Cu12 N15 1_555 1_555
N27 Cu2 1_555 1_555
N8 C5 1_555 1_555
C2 C5 1_555 1_555
C3 C4 1_555 1_555
N14 Cu11 1_555 1_555
C8 C9 1_555 1_555
C8 C11 1_555 1_555
C9 C10 1_555 1_555
N9 C6 1_555 1_555
Cu10 N9 1_555 1_555
N18 C12 1_555 1_555
C12 Cu3 1_555 1_555
Cu9 N18 1_555 1_555
N22 Cu4 1_555 1_555
N23 Cu4 1_555 1_555
N25 Cu3 1_555 1_555
N26 Cu4 1_555 1_555
N21 N22 1_555 1_555
N23 N24 1_555 1_555
N24 N25 1_555 1_555
N22 C4_2 1_555 1_555
N8_2 N25 1_555 1_555
C1_2 H1_2 1_555 1_555
C2_2 C1_2 1_555 1_555
C3_2 C2_2 1_555 1_555
C5_2 N23 1_555 1_555
N10_2 N11_2 1_555 1_555
Cu5_2 N11_2 1_555 1_555
N8_2 C5_2 1_555 1_555
C2_2 C5_2 1_555 1_555
C3_2 C4_2 1_555 1_555
N1_2 N2_2 1_555 1_555
N12_2 N13_2 1_555 1_555
N13_2 C10_2 1_555 1_555
N14_2 N15_2 1_555 1_555
N15_2 N16_2 1_555 1_555
N16_2 N17_2 1_555 1_555
N17_2 C11_2 1_555 1_555
H2_2 C7_2 1_555 1_555
C8_2 C7_2 1_555 1_555
C11_2 N14_2 1_555 1_555
Cu8 N16_2 1_555 1_555
Cu7 N12_2 1_555 1_555
Cu12 N13_2 1_555 1_555
Cu11 N15_2 1_555 1_555
N14_2 Cu12 1_555 1_555
C8_2 C9_2 1_555 1_555
C8_2 C11_2 1_555 1_555
C9_2 C10_2 1_555 1_555
Cu5_2 N7_2 1_555 1_555
Cu2_2 N4_2 1_555 1_555
N1_3 N2_3 1_555 1_555
N2_3 N3_2 1_555 1_555
N3_2 N4_2 1_555 1_555
N4_2 C4_3 1_555 1_555
N5_2 Cu2_2 1_555 1_555
N6_2 N5_2 1_555 1_555
N7_2 N6_2 1_555 1_555
N8_3 N7_2 1_555 1_555
C1_3 H1_3 1_555 1_555
C2_3 C1_3 1_555 1_555
C3_3 C2_3 1_555 1_555
C4_3 N1_3 1_555 1_555
C5_3 N5_2 1_555 1_555
N10_3 N19 1_555 1_555
N19 N12_3 1_555 1_555
N12_3 N13_3 1_555 1_555
N13_3 C10_3 1_555 1_555
N14_3 N15_3 1_555 1_555
N15_3 N16_3 1_555 1_555
N16_3 N17_3 1_555 1_555
N17_3 C11_3 1_555 1_555
C7_3 C3_3 1_555 1_555
H2_3 C7_3 1_555 1_555
C8_3 C7_3 1_555 1_555
C9_3 C1_3 1_555 1_555
C10_3 N10_3 1_555 1_555
C11_3 N14_3 1_555 1_555
Cu5 N3_2 1_555 1_555
Cu4_2 N6_2 1_555 1_555
N18_2 C12_2 1_555 1_555
C12_2 Cu5 1_555 1_555
Cu8 N2_3 1_555 1_555
Cu6_2 N16_3 1_555 1_555
Cu9 N13_3 1_555 1_555
N21_2 Cu5_2 1_555 1_555
N22_2 Cu4_2 1_555 1_555
N23_2 Cu4_2 1_555 1_555
N24_2 Cu2_2 1_555 1_555
N25_2 Cu5 1_555 1_555
N8_3 C5_3 1_555 1_555
C2_3 C5_3 1_555 1_555
C3_3 C4_3 1_555 1_555
N14_3 Cu9 1_555 1_555
C8_3 C9_3 1_555 1_555
C8_3 C11_3 1_555 1_555
C9_3 C10_3 1_555 1_555
N21_2 N22_2 1_555 1_555
N23_2 N24_2 1_555 1_555
N24_2 N25_2 1_555 1_555
N9_2 C6_2 1_555 1_555
N22_2 C4_4 1_555 1_555
N8_4 N25_2 1_555 1_555
C1_4 H1_4 1_555 1_555
C2_4 C1_4 1_555 1_555
C3_4 C2_4 1_555 1_555
C5_4 N23_2 1_555 1_555
N10_4 N20 1_555 1_555
N8_4 C5_4 1_555 1_555
C2_4 C5_4 1_555 1_555
C3_4 C4_4 1_555 1_555
N1_4 N2_4 1_555 1_555
N12_4 N13_4 1_555 1_555
N13_4 C10_4 1_555 1_555
N14_4 N15_4 1_555 1_555
N15_4 N16_4 1_555 1_555
N16_4 N17_4 1_555 1_555
N17_4 C11_4 1_555 1_555
H2_4 C7_4 1_555 1_555
C8_4 C7_4 1_555 1_555
C11_4 N14_4 1_555 1_555
Cu7 N2_4 1_555 1_555
Cu6 N16_4 1_555 1_555
Cu10 N13_4 1_555 1_555
N14_4 Cu10 1_555 1_555
C8_4 C9_4 1_555 1_555
C8_4 C11_4 1_555 1_555
C9_4 C10_4 1_555 1_555
N27 C12_3 1_555 1_555
C12_3 Cu6 1_555 1_555
N26 C6_3 1_555 1_555
N26_2 C6_4 1_555 1_555
N27_2 C12_4 1_555 1_555
C12_4 Cu8 1_555 1_555

#END
