
###############################################################################
#
# This file contains modified crystal structure data generated from the
# MOF subset of the Cambridge Structural Database (CSD) v543 
# hosted by the Cambridge Crystallographic Data Centre (CCDC).
#
# This work is licensed under the Creative Commons
# Attribution-NonCommercial-ShareAlike 4.0 International License.
# To view a copy of this license, visit
# http://creativecommons.org/licenses/by-nc-sa/4.0/
# or send a letter to
# Creative Commons, PO Box 1866, Mountain View, CA 94042, USA.
#
# CIF created using the CSD Python API on 29 September 2022
# The structure has been converted into the P1 space group
# The structure has a 3D framework
# The original CSD entry LUMZEA is in the monoclinic crystal system
# The framework has been calculated to contain at least 10.0% void space
# The void calculation uses a probe of radius 1.32A, grid spacing 0.4
# H atom positions have been added when not included in the experimental data
#
###############################################################################

data_LUMZEA
_chemical_formula_moiety         '(C48 H56 Cu16 N24 O44)n'
_symmetry_cell_setting           triclinic
_symmetry_space_group_name_H-M   'P 1'
_symmetry_Int_Tables_number      1
_space_group_name_Hall           'P 1'
loop_
_symmetry_equiv_pos_site_id
_symmetry_equiv_pos_as_xyz
1 x,y,z
_cell_length_a                   8.105(3)
_cell_length_b                   16.969(5)
_cell_length_c                   17.666(6)
_cell_angle_alpha                90
_cell_angle_beta                 102.495(5)
_cell_angle_gamma                90
_cell_volume                     2372.12
loop_
_atom_site_label
_atom_site_type_symbol
_atom_site_fract_x
_atom_site_fract_y
_atom_site_fract_z
Cu1 Cu 0.00577(10) 0.70429(5) 0.28783(5)
Cu2 Cu 0.20535(10) 0.60267(5) 0.17002(5)
C5 C 0.3047(10) 0.6978(4) 0.3974(4)
C6 C 0.3482(10) 0.6543(4) 0.3268(4)
H5 H 0.4478 0.6814 0.3134
C7 C 0.3965(12) 0.5704(5) 0.3462(4)
H6 H 0.2981 0.5423 0.3581
H7 H 0.4884 0.5691 0.3933
C8 C 0.4541(9) 0.5276(5) 0.2820(4)
C9 C 0.2884(10) 0.5872(5) 0.0237(4)
O1 O 0.1557(6) 0.7234(3) 0.3897(3)
O3 O 0.4187(6) 0.7065(3) 0.4567(3)
O5 O 0.2099(6) 0.6623(3) 0.2626(3)
O6 O 0.4176(6) 0.5512(3) 0.2118(3)
O7 O 0.5370(6) 0.4637(3) 0.2994(3)
O8 O 0.1947(6) 0.5578(3) 0.0656(3)
O9 O 0.4012(6) 0.6378(3) 0.0472(3)
Cu8 Cu 0.53558(10) 0.83263(5) 0.47293(5)
Cu9 Cu 0.59238(11) 0.41917(5) 0.20244(6)
N9 N 0.7348(7) 0.6837(4) 0.0589(3)
O16 O 0.0627(7) 0.4956(3) 0.2143(3)
Cu3 Cu 0.53558(10) 0.66737(5) 0.97293(5)
Cu4 Cu 0.40762(11) 0.58083(5) 0.79756(6)
C10 C 0.2711(12) 0.5553(8) 0.9412(5)
H8 H 0.3089 0.4991 0.9429
C11 C 0.1135(15) 0.5622(9) 0.8950(6)
H9 H 0.0873 0.6191 0.8885
H10 H 0.0321 0.5392 0.9233
C12 C 0.0796(10) 0.5248(5) 0.8137(4)
O4 O 0.2535(13) 0.6820(6) 0.7168(6)
O10 O 0.3824(7) 0.6059(4) 0.9011(4)
O11 O 0.1979(7) 0.5208(4) 0.7773(4)
N7 N 0.6580(7) 0.6861(3) 0.8898(3)
N8 N 0.6180(7) 0.6460(3) 0.8206(3)
O13 O 0.4187(6) 0.7935(3) 0.9567(3)
O14 O 0.5824(6) 0.4488(3) 0.7882(3)
O15 O 0.4630(6) 0.5363(3) 0.7006(3)
H11 H 0.302681 0.734272 0.734062
H12 H 0.260891 0.672878 0.66211
C1 C 0.8915(9) 0.6557(5) 0.0586(4)
H1 H 0.9261 0.6367 0.0139
C2 C 0.7421(9) 0.7021(4) 0.1338(4)
H2 H 0.6500 0.7228 0.1529
C3 C 0.7201(9) 0.8275(4) 0.2783(4)
H3 H 0.7184 0.8455 0.2273
C4 C 0.7824(8) 0.7659(4) 0.3839(4)
H4 H 0.8346 0.7309 0.4239
N1 N 0.6580(7) 0.8139(3) 0.3898(3)
N2 N 0.6180(7) 0.8540(3) 0.3206(3)
N3 N 0.8278(7) 0.7720(3) 0.3146(3)
N4 N 0.8950(7) 0.6876(3) 0.1778(3)
N5 N 0.9897(7) 0.6583(4) 0.1291(3)
O2 O 0.8856(8) 0.5957(3) 0.3379(3)
Cu10 Cu 0.40762(11) 0.91917(5) 0.29756(6)
H13 H 0.76727 0.588573 0.308737
H14 H 0.951965 0.547585 0.332658
O12 O 0.9373(7) 0.5044(3) 0.7857(3)
Cu5 Cu 0.79465(10) 0.39733(5) 0.82998(5)
C1_2 C 0.1085(9) 0.1557(5) 0.4414(4)
H1_2 H 0.0739 0.1367 0.4861
C2_2 C 0.2579(9) 0.2021(4) 0.3662(4)
H2_2 H 0.3500 0.2228 0.3471
C3_2 C 0.2799(9) 0.3275(4) 0.2217(4)
H3_2 H 0.2816 0.3455 0.2727
C4_2 C 0.2176(8) 0.2659(4) 0.1161(4)
H4_2 H 0.1654 0.2309 0.0761
N1_2 N 0.3420(7) 0.3139(3) 0.1102(3)
N2_2 N 0.3820(7) 0.3540(3) 0.1794(3)
N3_2 N 0.1722(7) 0.2720(3) 0.1854(3)
N4_2 N 0.1050(7) 0.1876(3) 0.3222(3)
N5_2 N 0.0103(7) 0.1583(4) 0.3709(3)
N6 N 0.2652(7) 0.1837(4) 0.4411(3)
O2_2 O 0.1144(8) 0.0957(3) 0.1621(3)
O12_2 O 0.0627(7) 0.0044(3) 0.7143(3)
Cu6 Cu 0.46442(10) 0.16737(5) 0.52707(5)
Cu7 Cu 0.46442(10) 0.33263(5) 0.02707(5)
H13_2 H 0.23273 0.0885733 0.191263
H14_2 H 0.0480353 0.0475854 0.167342
Cu5_2 Cu 0.20535(10) 0.89733(5) 0.67002(5)
Cu1_2 Cu 0.99423(10) 0.20429(5) 0.21217(5)
Cu2_2 Cu 0.79465(10) 0.10267(5) 0.32998(5)
Cu4_2 Cu 0.59238(11) 0.08083(5) 0.70244(6)
C5_2 C 0.6953(10) 0.1978(4) 0.1026(4)
C6_2 C 0.6518(10) 0.1543(4) 0.1732(4)
H5_2 H 0.5522 0.1814 0.1866
C7_2 C 0.6035(12) 0.0704(5) 0.1538(4)
H6_2 H 0.7019 0.0423 0.1419
H7_2 H 0.5116 0.0691 0.1067
C8_2 C 0.5459(9) 0.0276(5) 0.2180(4)
C9_2 C 0.7116(10) 0.0872(5) 0.4763(4)
C10_2 C 0.7289(12) 0.0553(8) 0.5588(5)
C11_2 C 0.8865(15) 0.0622(9) 0.6050(6)
H9_2 H 0.9127 0.1191 0.6115
H10_2 H 0.9679 0.0392 0.5767
C12_2 C 0.9204(10) 0.0248(5) 0.6863(4)
O1_2 O 0.8443(6) 0.2234(3) 0.1103(3)
O3_2 O 0.5813(6) 0.2065(3) 0.0433(3)
O4_2 O 0.7465(13) 0.1820(6) 0.7832(6)
O5_2 O 0.7901(6) 0.1623(3) 0.2374(3)
O6_2 O 0.5824(6) 0.0512(3) 0.2882(3)
O8_2 O 0.8053(6) 0.0578(3) 0.4344(3)
O9_2 O 0.5988(6) 0.1378(3) 0.4528(3)
O10_2 O 0.6176(7) 0.1059(4) 0.5989(4)
O11_2 O 0.8021(7) 0.0208(4) 0.7227(4)
N7_2 N 0.3420(7) 0.1861(3) 0.6102(3)
N8_2 N 0.3820(7) 0.1460(3) 0.6794(3)
O13_2 O 0.5813(6) 0.2935(3) 0.5433(3)
O15_2 O 0.5370(6) 0.0363(3) 0.7994(3)
H11_2 H 0.697319 0.234272 0.765938
H12_2 H 0.739109 0.172878 0.83789
H8_2 H 0.6911 0.9991 0.5571
O7_2 O 0.4630(6) 0.9637(3) 0.2006(3)
O14_2 O 0.4176(6) 0.9488(3) 0.7118(3)
O16_2 O 0.9373(7) 0.9956(3) 0.2857(3)
C1_3 C 0.1085(9) 0.3443(5) 0.9414(4)
H1_3 H 0.0739 0.3633 0.9861
C2_3 C 0.2579(9) 0.2979(4) 0.8662(4)
H2_3 H 0.3500 0.2772 0.8471
C3_3 C 0.2799(9) 0.1725(4) 0.7217(4)
H3_3 H 0.2816 0.1545 0.7727
C4_3 C 0.2176(8) 0.2341(4) 0.6161(4)
H4_3 H 0.1654 0.2691 0.5761
N3_3 N 0.1722(7) 0.2280(3) 0.6854(3)
N4_3 N 0.1050(7) 0.3124(3) 0.8222(3)
N5_3 N 0.0103(7) 0.3417(4) 0.8709(3)
N6_2 N 0.2652(7) 0.3163(4) 0.9411(3)
O2_3 O 0.1144(8) 0.4043(3) 0.6621(3)
H13_3 H 0.23273 0.411427 0.691263
H14_3 H 0.0480353 0.452415 0.667342
C10_3 C 0.7289(12) 0.4447(8) 0.0588(5)
H8_3 H 0.6911 0.5009 0.0571
C11_3 C 0.8865(15) 0.4378(9) 0.1050(6)
H9_3 H 0.9127 0.3809 0.1115
H10_3 H 0.9679 0.4608 0.0767
C12_3 C 0.9204(10) 0.4752(5) 0.1863(4)
O4_3 O 0.7465(13) 0.3180(6) 0.2832(6)
O10_3 O 0.6176(7) 0.3941(4) 0.0989(4)
O11_3 O 0.8021(7) 0.4792(4) 0.2227(4)
H11_3 H 0.697319 0.265728 0.265938
H12_3 H 0.739109 0.327122 0.33789
Cu1_3 Cu 0.99423(10) 0.29571(5) 0.71217(5)
C5_3 C 0.6953(10) 0.3022(4) 0.6026(4)
C6_3 C 0.6518(10) 0.3457(4) 0.6732(4)
H5_3 H 0.5522 0.3186 0.6866
C7_3 C 0.6035(12) 0.4296(5) 0.6538(4)
H6_3 H 0.7019 0.4577 0.6419
H7_3 H 0.5116 0.4309 0.6067
C8_3 C 0.5459(9) 0.4724(5) 0.7180(4)
C9_3 C 0.7116(10) 0.4128(5) 0.9763(4)
O1_3 O 0.8443(6) 0.2766(3) 0.6103(3)
O5_3 O 0.7901(6) 0.3377(3) 0.7374(3)
O8_3 O 0.8053(6) 0.4422(3) 0.9344(3)
O9_3 O 0.5988(6) 0.3622(3) 0.9528(3)
H8_4 H 0.3089 0.0009 0.4429
Cu1_4 Cu 0.00577(10) 0.79571(5) 0.78783(5)
C5_4 C 0.3047(10) 0.8022(4) 0.8974(4)
C6_4 C 0.3482(10) 0.8457(4) 0.8268(4)
H5_4 H 0.4478 0.8186 0.8134
C7_4 C 0.3965(12) 0.9296(5) 0.8462(4)
H6_4 H 0.2981 0.9577 0.8581
H7_4 H 0.4884 0.9309 0.8933
C8_4 C 0.4541(9) 0.9724(5) 0.7820(4)
C9_4 C 0.2884(10) 0.9128(5) 0.5237(4)
C10_4 C 0.2711(12) 0.9447(8) 0.4412(5)
C11_4 C 0.1135(15) 0.9378(9) 0.3950(6)
H9_4 H 0.0873 0.8809 0.3885
H10_4 H 0.0321 0.9608 0.4233
C12_4 C 0.0796(10) 0.9752(5) 0.3137(4)
O1_4 O 0.1557(6) 0.7766(3) 0.8897(3)
O4_4 O 0.2535(13) 0.8180(6) 0.2168(6)
O5_4 O 0.2099(6) 0.8377(3) 0.7626(3)
O8_4 O 0.1947(6) 0.9422(3) 0.5656(3)
O9_4 O 0.4012(6) 0.8622(3) 0.5472(3)
O10_4 O 0.3824(7) 0.8941(4) 0.4011(4)
O11_4 O 0.1979(7) 0.9792(4) 0.2773(4)
N9_2 N 0.7348(7) 0.8163(4) 0.5589(3)
H11_4 H 0.302681 0.765728 0.234062
H12_4 H 0.260891 0.827122 0.16211
C1_4 C 0.8915(9) 0.8443(5) 0.5586(4)
H1_4 H 0.9261 0.8633 0.5139
C2_4 C 0.7421(9) 0.7979(4) 0.6338(4)
H2_4 H 0.6500 0.7772 0.6529
C3_4 C 0.7201(9) 0.6725(4) 0.7783(4)
H3_4 H 0.7184 0.6545 0.7273
C4_4 C 0.7824(8) 0.7341(4) 0.8839(4)
H4_4 H 0.8346 0.7691 0.9239
N3_4 N 0.8278(7) 0.7280(3) 0.8146(3)
N4_4 N 0.8950(7) 0.8124(3) 0.6778(3)
N5_4 N 0.9897(7) 0.8417(4) 0.6291(3)
O2_4 O 0.8856(8) 0.9043(3) 0.8379(3)
H13_4 H 0.76727 0.911427 0.808737
H14_4 H 0.951965 0.952415 0.832658
loop_
_geom_bond_atom_site_label_1
_geom_bond_atom_site_label_2
_geom_bond_site_symmetry_1
_geom_bond_site_symmetry_2
C5 C6 1_555 1_555
C6 H5 1_555 1_555
C7 C6 1_555 1_555
H6 C7 1_555 1_555
H7 C7 1_555 1_555
C8 C7 1_555 1_555
O1 Cu1 1_555 1_555
O3 C5 1_555 1_555
O5 Cu1 1_555 1_555
O6 Cu2 1_555 1_555
O7 C8 1_555 1_555
O8 Cu2 1_555 1_555
O9 C9 1_555 1_555
Cu8 O3 1_555 1_555
Cu9 O6 1_555 1_555
O16 Cu2 1_555 1_555
Cu2 O5 1_555 1_555
C5 O1 1_555 1_555
C6 O5 1_555 1_555
C8 O6 1_555 1_555
C9 O8 1_555 1_555
O7 Cu9 1_555 1_555
Cu4 O4 1_555 1_555
C10 H8 1_555 1_555
C11 C10 1_555 1_555
H9 C11 1_555 1_555
H10 C11 1_555 1_555
C12 C11 1_555 1_555
O10 Cu3 1_555 1_555
O11 Cu4 1_555 1_555
N7 Cu3 1_555 1_555
N8 Cu4 1_555 1_555
O13 Cu3 1_555 1_555
O14 Cu4 1_555 1_555
O15 Cu4 1_555 1_555
Cu4 O10 1_555 1_555
C10 O10 1_555 1_555
C12 O11 1_555 1_555
N7 N8 1_555 1_555
O4 H11 1_555 1_555
O4 H12 1_555 1_555
C1 H1 1_555 1_555
C2 H2 1_555 1_555
C3 H3 1_555 1_555
C4 H4 1_555 1_555
N1 C4 1_555 1_555
N2 C3 1_555 1_555
N3 C3 1_555 1_555
N5 C1 1_555 1_555
N9 C1 1_555 1_555
Cu8 N1 1_555 1_555
Cu10 N2 1_555 1_555
C2 N4 1_555 1_555
C2 N9 1_555 1_555
C4 N3 1_555 1_555
N1 N2 1_555 1_555
N4 N5 1_555 1_555
O2 H13 1_555 1_555
O2 H14 1_555 1_555
Cu5 O12 1_555 1_555
C1_2 H1_2 1_555 1_555
C2_2 H2_2 1_555 1_555
C3_2 H3_2 1_555 1_555
C4_2 H4_2 1_555 1_555
N1_2 C4_2 1_555 1_555
N2_2 C3_2 1_555 1_555
N3_2 C3_2 1_555 1_555
N5_2 C1_2 1_555 1_555
N6 C1_2 1_555 1_555
Cu6 N6 1_555 1_555
Cu7 N1_2 1_555 1_555
Cu9 N2_2 1_555 1_555
C2_2 N4_2 1_555 1_555
C2_2 N6 1_555 1_555
C4_2 N3_2 1_555 1_555
N1_2 N2_2 1_555 1_555
N4_2 N5_2 1_555 1_555
O2_2 H13_2 1_555 1_555
O2_2 H14_2 1_555 1_555
Cu6 O9_2 1_555 1_555
Cu4_2 O4_2 1_555 1_555
C5_2 C6_2 1_555 1_555
C6_2 H5_2 1_555 1_555
C7_2 C6_2 1_555 1_555
H6_2 C7_2 1_555 1_555
H7_2 C7_2 1_555 1_555
C8_2 C7_2 1_555 1_555
C9_2 C10_2 1_555 1_555
C11_2 C10_2 1_555 1_555
H9_2 C11_2 1_555 1_555
H10_2 C11_2 1_555 1_555
C12_2 C11_2 1_555 1_555
O1_2 Cu1_2 1_555 1_555
O3_2 C5_2 1_555 1_555
O5_2 Cu1_2 1_555 1_555
O6_2 Cu2_2 1_555 1_555
O8_2 Cu2_2 1_555 1_555
O9_2 C9_2 1_555 1_555
O10_2 Cu6 1_555 1_555
O11_2 Cu4_2 1_555 1_555
Cu7 O3_2 1_555 1_555
N7_2 Cu6 1_555 1_555
N8_2 Cu4_2 1_555 1_555
O13_2 Cu6 1_555 1_555
O15_2 Cu4_2 1_555 1_555
Cu2_2 O5_2 1_555 1_555
Cu4_2 O10_2 1_555 1_555
C5_2 O1_2 1_555 1_555
C6_2 O5_2 1_555 1_555
C8_2 O6_2 1_555 1_555
C9_2 O8_2 1_555 1_555
C10_2 O10_2 1_555 1_555
C12_2 O11_2 1_555 1_555
N7_2 N8_2 1_555 1_555
O4_2 H11_2 1_555 1_555
O4_2 H12_2 1_555 1_555
O7_2 Cu10 1_555 1_555
C1_3 H1_3 1_555 1_555
C2_3 H2_3 1_555 1_555
C3_3 H3_3 1_555 1_555
C4_3 H4_3 1_555 1_555
N7_2 C4_3 1_555 1_555
N8_2 C3_3 1_555 1_555
N3_3 C3_3 1_555 1_555
N5_3 C1_3 1_555 1_555
N6_2 C1_3 1_555 1_555
C2_3 N4_3 1_555 1_555
C2_3 N6_2 1_555 1_555
C4_3 N3_3 1_555 1_555
N4_3 N5_3 1_555 1_555
O2_3 H13_3 1_555 1_555
O2_3 H14_3 1_555 1_555
Cu9 O4_3 1_555 1_555
C10_3 H8_3 1_555 1_555
C11_3 C10_3 1_555 1_555
H9_3 C11_3 1_555 1_555
H10_3 C11_3 1_555 1_555
C12_3 C11_3 1_555 1_555
O10_3 Cu7 1_555 1_555
O11_3 Cu9 1_555 1_555
Cu9 O10_3 1_555 1_555
C10_3 O10_3 1_555 1_555
C12_3 O11_3 1_555 1_555
O4_3 H11_3 1_555 1_555
O4_3 H12_3 1_555 1_555
C5_3 C6_3 1_555 1_555
C6_3 H5_3 1_555 1_555
C7_3 C6_3 1_555 1_555
H6_3 C7_3 1_555 1_555
H7_3 C7_3 1_555 1_555
C8_3 C7_3 1_555 1_555
O1_3 Cu1_3 1_555 1_555
O13_2 C5_3 1_555 1_555
O5_3 Cu1_3 1_555 1_555
O14 Cu5 1_555 1_555
O15 C8_3 1_555 1_555
O8_3 Cu5 1_555 1_555
O9_3 C9_3 1_555 1_555
Cu5 O5_3 1_555 1_555
C5_3 O1_3 1_555 1_555
C6_3 O5_3 1_555 1_555
C8_3 O14 1_555 1_555
C9_3 O8_3 1_555 1_555
Cu8 O9_4 1_555 1_555
Cu10 O4_4 1_555 1_555
C5_4 C6_4 1_555 1_555
C6_4 H5_4 1_555 1_555
C7_4 C6_4 1_555 1_555
H6_4 C7_4 1_555 1_555
H7_4 C7_4 1_555 1_555
C8_4 C7_4 1_555 1_555
C9_4 C10_4 1_555 1_555
C11_4 C10_4 1_555 1_555
H9_4 C11_4 1_555 1_555
H10_4 C11_4 1_555 1_555
C12_4 C11_4 1_555 1_555
O1_4 Cu1_4 1_555 1_555
O13 C5_4 1_555 1_555
O5_4 Cu1_4 1_555 1_555
O14_2 Cu5_2 1_555 1_555
O8_4 Cu5_2 1_555 1_555
O9_4 C9_4 1_555 1_555
O10_4 Cu8 1_555 1_555
O11_4 Cu10 1_555 1_555
N9_2 Cu8 1_555 1_555
Cu5_2 O5_4 1_555 1_555
Cu10 O10_4 1_555 1_555
C5_4 O1_4 1_555 1_555
C6_4 O5_4 1_555 1_555
C8_4 O14_2 1_555 1_555
C9_4 O8_4 1_555 1_555
C10_4 O10_4 1_555 1_555
C12_4 O11_4 1_555 1_555
O4_4 H11_4 1_555 1_555
O4_4 H12_4 1_555 1_555
C1_4 H1_4 1_555 1_555
C2_4 H2_4 1_555 1_555
C3_4 H3_4 1_555 1_555
C4_4 H4_4 1_555 1_555
N7 C4_4 1_555 1_555
N8 C3_4 1_555 1_555
N3_4 C3_4 1_555 1_555
N5_4 C1_4 1_555 1_555
N9_2 C1_4 1_555 1_555
C2_4 N4_4 1_555 1_555
C2_4 N9_2 1_555 1_555
C4_4 N3_4 1_555 1_555
N4_4 N5_4 1_555 1_555
O2_4 H13_4 1_555 1_555
O2_4 H14_4 1_555 1_555

#END
