
###############################################################################
#
# This file contains modified crystal structure data generated from the
# MOF subset of the Cambridge Structural Database (CSD) v543 
# hosted by the Cambridge Crystallographic Data Centre (CCDC).
#
# This work is licensed under the Creative Commons
# Attribution-NonCommercial-ShareAlike 4.0 International License.
# To view a copy of this license, visit
# http://creativecommons.org/licenses/by-nc-sa/4.0/
# or send a letter to
# Creative Commons, PO Box 1866, Mountain View, CA 94042, USA.
#
# CIF created using the CSD Python API on 29 September 2022
# The structure has been converted into the P1 space group
# The structure has a 3D framework
# The original CSD entry LUNRUJ is in the rhombohedral crystal system
# The framework has been calculated to contain at least 10.0% void space
# The void calculation uses a probe of radius 1.32A, grid spacing 0.4
#
###############################################################################

data_LUNRUJ
_chemical_formula_moiety         '(C396 H396 Cd22 N72 O130)n'
_symmetry_cell_setting           triclinic
_symmetry_space_group_name_H-M   'P 1'
_symmetry_Int_Tables_number      1
_space_group_name_Hall           'P 1'
loop_
_symmetry_equiv_pos_site_id
_symmetry_equiv_pos_as_xyz
1 x,y,z
_cell_length_a                   18.7100(2)
_cell_length_b                   18.7100(2)
_cell_length_c                   40.4095(5)
_cell_angle_alpha                90
_cell_angle_beta                 90
_cell_angle_gamma                120
_cell_volume                     12250.7
loop_
_atom_site_label
_atom_site_type_symbol
_atom_site_fract_x
_atom_site_fract_y
_atom_site_fract_z
O18 O 0.12673(11) 0.22721(11) 0.58802(5)
C61 C 0.05108(16) 0.17350(15) 0.58819(6)
C62 C 0.02559(15) 0.08400(14) 0.58801(6)
C63 C 0.08328(15) 0.05769(15) 0.58798(7)
H65 H 0.1393 0.0966 0.5880
O21 O 0.19696(16) 0.00483(12) 0.58855(5)
Cd5 Cd 0.083898(14) 0.3333 0.5833
O20 O 0.10047(16) 0.87327(11) 0.58802(5)
C64 C 0.12241(22) 0.94892(16) 0.58819(6)
C65 C 0.05840(21) 0.97441(15) 0.58801(6)
Cd4 Cd 0.249402(14) 0.916102(14) 0.5833
O11 O 0.37659(19) 0.04329(19) 0.5833
H27 H 0.2373 0.0435 0.4699
H28 H 0.2427 0.0295 0.5257
H33 H 0.422(3) 0.041(4) 0.5816(13)
H43 H 0.374(4) 0.089(3) 0.5851(13)
C60 C 0.94231(15) 0.02560(21) 0.58798(7)
H64 H 0.9034 0.0428 0.5880
O19 O 0.99517(12) 0.19214(11) 0.58855(5)
Cd1 Cd 0.6667 0.750598(14) 0.5833
N1 N 0.68520(15) 0.76323(16) 0.52613(6)
N2 N 0.72072(14) 0.77368(14) 0.42349(5)
H1 H 0.7598 0.7650 0.4176
O1 O 0.62139(15) 0.79847(18) 0.40344(6)
O2 O 0.56054(11) 0.79340(11) 0.57865(5)
O3 O 0.52547(11) 0.66184(12) 0.57812(5)
O4 O 0.6667 0.62341(19) 0.5833
C1 C 0.63333(19) 0.7705(2) 0.50568(7)
H2 H 0.5892 0.7730 0.5150
C2 C 0.64046(18) 0.7745(2) 0.47180(7)
H3 H 0.6020 0.7791 0.4588
C3 C 0.70617(17) 0.77146(16) 0.45740(6)
C4 C 0.7612(2) 0.7648(2) 0.47849(7)
H4 H 0.8062 0.7627 0.4699
C5 C 0.7489(2) 0.7613(2) 0.51202(7)
H5 H 0.7868 0.7573 0.5257
C6 C 0.68034(18) 0.7880(2) 0.39863(7)
C7 C 0.7159(2) 0.7914(2) 0.36479(7)
H6 H 0.7235 0.7441 0.3622
H7 H 0.7699 0.8407 0.3634
C8 C 0.6627(3) 0.7921(2) 0.33612(9)
H8 H 0.6784 0.7750 0.3160
H9 H 0.6053 0.7522 0.3407
C9 C 0.50683(15) 0.71775(16) 0.57848(6)
C10 C 0.41733(14) 0.69226(15) 0.57866(6)
C11 C 0.39102(15) 0.74995(15) 0.57869(7)
H10 H 0.4299 0.8060 0.5787
H11 H 0.619(3) 0.578(3) 0.5816(13)
N3 N 0.64813(15) 0.90344(16) 0.14054(6)
N4 N 0.61261(14) 0.89299(14) 0.24318(5)
H12 H 0.5735 0.9017 0.2491
O5 O 0.71194(15) 0.86820(18) 0.26323(6)
C12 C 0.70000(19) 0.8962(2) 0.16099(7)
H13 H 0.7441 0.8937 0.1517
C13 C 0.69287(18) 0.8922(2) 0.19487(7)
H14 H 0.7313 0.8876 0.2079
C14 C 0.62716(17) 0.89521(16) 0.20927(6)
C15 C 0.5721(2) 0.9019(2) 0.18818(7)
H15 H 0.5271 0.9040 0.1968
C16 C 0.5844(2) 0.9054(2) 0.15465(7)
H16 H 0.5465 0.9094 0.1410
C17 C 0.65299(18) 0.8787(2) 0.26804(7)
C18 C 0.6174(2) 0.8753(2) 0.30188(7)
H17 H 0.6098 0.9226 0.3045
H18 H 0.5634 0.8260 0.3033
C19 C 0.6706(3) 0.8746(2) 0.33055(9)
H19 H 0.6549 0.8917 0.3507
H20 H 0.7280 0.9145 0.3260
O6 O 0.20660(11) 0.76714(16) 0.57865(5)
O7 O 0.33816(12) 0.86363(16) 0.57812(5)
C20 C 0.28225(16) 0.78908(22) 0.57848(6)
C21 C 0.30774(15) 0.72507(21) 0.57866(6)
C22 C 0.25005(15) 0.64107(21) 0.57869(7)
H21 H 0.1940 0.6239 0.5787
O8 O 0.23286(16) 0.43946(11) 0.57865(5)
O9 O 0.13637(16) 0.47453(11) 0.57812(5)
C23 C 0.21092(22) 0.49317(15) 0.57848(6)
C24 C 0.27493(21) 0.58267(14) 0.57866(6)
C25 C 0.35893(21) 0.60898(15) 0.57869(7)
H22 H 0.3761 0.5701 0.5787
H23 H 0.714(3) 0.626(4) 0.5851(13)
N5 N 0.23677(16) 0.92197(22) 0.52613(6)
N6 N 0.22632(14) 0.94704(20) 0.42349(5)
H24 H 0.2350 0.9948 0.4176
O10 O 0.20153(18) 0.82292(23) 0.40344(6)
C26 C 0.2295(2) 0.86283(28) 0.50568(7)
H25 H 0.2270 0.8162 0.5150
C27 C 0.2255(2) 0.86596(27) 0.47180(7)
H26 H 0.2209 0.8229 0.4588
C28 C 0.22854(16) 0.93471(23) 0.45740(6)
C29 C 0.2352(2) 0.9964(3) 0.47849(7)
C30 C 0.2387(2) 0.9876(3) 0.51202(7)
C31 C 0.2120(2) 0.89234(27) 0.39863(7)
C32 C 0.2086(2) 0.9245(3) 0.36479(7)
H29 H 0.2559 0.9794 0.3622
H30 H 0.1593 0.9292 0.3634
C33 C 0.2079(2) 0.8706(4) 0.33612(9)
H31 H 0.2250 0.9034 0.3160
H32 H 0.2478 0.8531 0.3407
N7 N 0.09656(16) 0.74470(22) 0.14054(6)
N8 N 0.10701(14) 0.71963(20) 0.24318(5)
H34 H 0.0983 0.6719 0.2491
O12 O 0.13180(18) 0.84375(23) 0.26323(6)
C34 C 0.1038(2) 0.80384(28) 0.16099(7)
H35 H 0.1063 0.8505 0.1517
C35 C 0.1078(2) 0.80071(27) 0.19487(7)
H36 H 0.1124 0.8438 0.2079
C36 C 0.10479(16) 0.73196(23) 0.20927(6)
C37 C 0.0981(2) 0.6703(3) 0.18818(7)
H37 H 0.0960 0.6232 0.1968
C38 C 0.0946(2) 0.6791(3) 0.15465(7)
H38 H 0.0906 0.6372 0.1410
C39 C 0.1213(2) 0.77433(27) 0.26804(7)
C40 C 0.1247(2) 0.7422(3) 0.30188(7)
H39 H 0.0774 0.6873 0.3045
H40 H 0.1740 0.7375 0.3033
C41 C 0.1254(2) 0.7961(4) 0.33055(9)
H41 H 0.1083 0.7633 0.3507
H42 H 0.0855 0.8136 0.3260
N9 N 0.07803(22) 0.31480(15) 0.52613(6)
N10 N 0.05296(20) 0.27928(14) 0.42349(5)
H44 H 0.0052 0.2402 0.4176
O13 O 0.17708(23) 0.37861(15) 0.40344(6)
C42 C 0.13717(28) 0.36667(19) 0.50568(7)
H45 H 0.1838 0.4108 0.5150
C43 C 0.13404(27) 0.35954(18) 0.47180(7)
H46 H 0.1771 0.3980 0.4588
C44 C 0.06529(23) 0.29383(17) 0.45740(6)
C45 C 0.0036(3) 0.2388(2) 0.47849(7)
C46 C 0.0124(3) 0.2511(2) 0.51202(7)
C47 C 0.10766(27) 0.31966(18) 0.39863(7)
C48 C 0.0755(3) 0.2841(2) 0.36479(7)
H49 H 0.0206 0.2765 0.3622
H50 H 0.0708 0.2301 0.3634
C49 C 0.1294(4) 0.3373(3) 0.33612(9)
H51 H 0.0966 0.3216 0.3160
H52 H 0.1469 0.3947 0.3407
N11 N 0.25530(22) 0.35187(15) 0.14054(6)
N12 N 0.28037(20) 0.38739(14) 0.24318(5)
H54 H 0.3281 0.4265 0.2491
O15 O 0.15625(23) 0.28806(15) 0.26323(6)
C50 C 0.19616(28) 0.30000(19) 0.16099(7)
H55 H 0.1495 0.2559 0.1517
C51 C 0.19929(27) 0.30713(18) 0.19487(7)
H56 H 0.1562 0.2687 0.2079
C52 C 0.26804(23) 0.37284(17) 0.20927(6)
C53 C 0.3297(3) 0.4279(2) 0.18818(7)
H57 H 0.3768 0.4729 0.1968
C54 C 0.3209(3) 0.4156(2) 0.15465(7)
H58 H 0.3628 0.4535 0.1410
C55 C 0.22567(27) 0.34701(18) 0.26804(7)
C56 C 0.2578(3) 0.3826(2) 0.30188(7)
H59 H 0.3127 0.3902 0.3045
H60 H 0.2625 0.4366 0.3033
C57 C 0.2039(4) 0.3294(3) 0.33055(9)
H61 H 0.2367 0.3451 0.3507
H62 H 0.1864 0.2720 0.3260
O16 O 0.77279(11) 0.89953(16) 0.58802(5)
O17 O 0.80786(11) 0.80304(16) 0.58855(5)
C58 C 0.82650(15) 0.87759(22) 0.58819(6)
C59 C 0.91600(14) 0.94160(21) 0.58801(6)
C66 C 0.97440(21) 0.91672(15) 0.58798(7)
H66 H 0.9572 0.8607 0.5880
Cd6 Cd 0.249402(14) 0.3333 0.0833
Cd7 Cd 0.083898(14) 0.750598(14) 0.0833
Cd8 Cd 0.6667 0.916102(14) 0.0833
N13 N 0.09656(16) 0.35187(15) 0.64054(6)
N14 N 0.25530(22) 0.90344(16) 0.64054(6)
N15 N 0.64813(15) 0.74470(22) 0.64054(6)
O14 O 0.95671(19) 0.3333 0.5833
H47 H 0.9565 0.1938 0.4699
H48 H 0.9705 0.2132 0.5257
H53 H 0.959(4) 0.381(3) 0.5816(13)
H63 H 0.911(3) 0.286(3) 0.5851(13)
N3_2 N 0.23677(16) 0.31480(15) 0.02613(6)
C12_2 C 0.2295(2) 0.36667(19) 0.00568(7)
H13_2 H 0.2270 0.4108 0.0150
C16_2 C 0.2387(2) 0.2511(2) 0.01202(7)
H16_2 H 0.2427 0.2132 0.0257
N2_2 N 0.10701(14) 0.38739(14) 0.74318(5)
H1_2 H 0.0983 0.4265 0.7491
O1_2 O 0.13180(18) 0.28806(15) 0.76323(6)
C1_2 C 0.1038(2) 0.30000(19) 0.66099(7)
H2_2 H 0.1063 0.2559 0.6517
C2_2 C 0.1078(2) 0.30713(18) 0.69487(7)
H3_2 H 0.1124 0.2687 0.7079
C3_2 C 0.10479(16) 0.37284(17) 0.70927(6)
C4_2 C 0.0981(2) 0.4279(2) 0.68818(7)
H4_2 H 0.0960 0.4729 0.6968
C5_2 C 0.0946(2) 0.4156(2) 0.65465(7)
H5_2 H 0.0906 0.4535 0.6410
C6_2 C 0.1213(2) 0.34701(18) 0.76804(7)
C7_2 C 0.1247(2) 0.3826(2) 0.80188(7)
H6_2 H 0.0774 0.3902 0.8045
H7_2 H 0.1740 0.4366 0.8033
C8_2 C 0.1254(2) 0.3294(3) 0.83055(9)
H8_2 H 0.1083 0.3451 0.8507
H9_2 H 0.0855 0.2720 0.8260
N4_2 N 0.22632(14) 0.27928(14) 0.92349(5)
H12_2 H 0.2350 0.2402 0.9176
O5_2 O 0.20153(18) 0.37861(15) 0.90344(6)
C13_2 C 0.2255(2) 0.35954(18) 0.97180(7)
H14_2 H 0.2209 0.3980 0.9588
C14_2 C 0.22854(16) 0.29383(17) 0.95740(6)
C15_2 C 0.2352(2) 0.2388(2) 0.97849(7)
H15_2 H 0.2373 0.1938 0.9699
C17_2 C 0.2120(2) 0.31966(18) 0.89863(7)
C18_2 C 0.2086(2) 0.2841(2) 0.86479(7)
H17_2 H 0.2559 0.2765 0.8622
H18_2 H 0.1593 0.2301 0.8634
C19_2 C 0.2079(2) 0.3373(3) 0.83612(9)
H19_2 H 0.2250 0.3216 0.8160
H20_2 H 0.2478 0.3947 0.8407
N7_2 N 0.07803(22) 0.76323(16) 0.02613(6)
C34_2 C 0.13717(28) 0.7705(2) 0.00568(7)
H35_2 H 0.1838 0.7730 0.0150
C38_2 C 0.0124(3) 0.7613(2) 0.01202(7)
N6_2 N 0.28037(20) 0.89299(14) 0.74318(5)
H24_2 H 0.3281 0.9017 0.7491
O10_2 O 0.15625(23) 0.86820(18) 0.76323(6)
C26_2 C 0.19616(28) 0.8962(2) 0.66099(7)
H25_2 H 0.1495 0.8937 0.6517
C27_2 C 0.19929(27) 0.8922(2) 0.69487(7)
H26_2 H 0.1562 0.8876 0.7079
C28_2 C 0.26804(23) 0.89521(16) 0.70927(6)
C29_2 C 0.3297(3) 0.9019(2) 0.68818(7)
H27_2 H 0.3768 0.9040 0.6968
C30_2 C 0.3209(3) 0.9054(2) 0.65465(7)
H28_2 H 0.3628 0.9094 0.6410
C31_2 C 0.22567(27) 0.8787(2) 0.76804(7)
C32_2 C 0.2578(3) 0.8753(2) 0.80188(7)
H29_2 H 0.3127 0.9226 0.8045
H30_2 H 0.2625 0.8260 0.8033
C33_2 C 0.2039(4) 0.8746(2) 0.83055(9)
H31_2 H 0.2367 0.8917 0.8507
H32_2 H 0.1864 0.9145 0.8260
N8_2 N 0.05296(20) 0.77368(14) 0.92349(5)
H34_2 H 0.0052 0.7650 0.9176
O12_2 O 0.17708(23) 0.79847(18) 0.90344(6)
C35_2 C 0.13404(27) 0.7745(2) 0.97180(7)
H36_2 H 0.1771 0.7791 0.9588
C36_2 C 0.06529(23) 0.77146(16) 0.95740(6)
C37_2 C 0.0036(3) 0.7648(2) 0.97849(7)
C39_2 C 0.10766(27) 0.7880(2) 0.89863(7)
C40_2 C 0.0755(3) 0.7914(2) 0.86479(7)
H39_2 H 0.0206 0.7441 0.8622
H40_2 H 0.0708 0.8407 0.8634
C41_2 C 0.1294(4) 0.7921(2) 0.83612(9)
H41_2 H 0.0966 0.7750 0.8160
H42_2 H 0.1469 0.7522 0.8407
H58_2 H 0.7868 0.0295 0.0257
H57_2 H 0.8062 0.0435 0.9699
H38_2 H 0.9705 0.7573 0.0257
N11_2 N 0.68520(15) 0.92197(22) 0.02613(6)
C50_2 C 0.63333(19) 0.86283(28) 0.00568(7)
H55_2 H 0.5892 0.8162 0.0150
C54_2 C 0.7489(2) 0.9876(3) 0.01202(7)
H37_2 H 0.9565 0.7627 0.9699
N10_2 N 0.61261(14) 0.71963(20) 0.74318(5)
H44_2 H 0.5735 0.6719 0.7491
O13_2 O 0.71194(15) 0.84375(23) 0.76323(6)
C42_2 C 0.70000(19) 0.80384(28) 0.66099(7)
H45_2 H 0.7441 0.8505 0.6517
C43_2 C 0.69287(18) 0.80071(27) 0.69487(7)
H46_2 H 0.7313 0.8438 0.7079
C44_2 C 0.62716(17) 0.73196(23) 0.70927(6)
C45_2 C 0.5721(2) 0.6703(3) 0.68818(7)
H47_2 H 0.5271 0.6232 0.6968
C46_2 C 0.5844(2) 0.6791(3) 0.65465(7)
H48_2 H 0.5465 0.6372 0.6410
C47_2 C 0.65299(18) 0.77433(27) 0.76804(7)
C48_2 C 0.6174(2) 0.7422(3) 0.80188(7)
H49_2 H 0.6098 0.6873 0.8045
H50_2 H 0.5634 0.7375 0.8033
C49_2 C 0.6706(3) 0.7961(4) 0.83055(9)
H51_2 H 0.6549 0.7633 0.8507
H52_2 H 0.7280 0.8136 0.8260
N12_2 N 0.72072(14) 0.94704(20) 0.92349(5)
H54_2 H 0.7598 0.9948 0.9176
O15_2 O 0.62139(15) 0.82292(23) 0.90344(6)
C51_2 C 0.64046(18) 0.86596(27) 0.97180(7)
H56_2 H 0.6020 0.8229 0.9588
C52_2 C 0.70617(17) 0.93471(23) 0.95740(6)
C53_2 C 0.7612(2) 0.9964(3) 0.97849(7)
C55_2 C 0.68034(18) 0.89234(27) 0.89863(7)
C56_2 C 0.7159(2) 0.9245(3) 0.86479(7)
H59_2 H 0.7235 0.9794 0.8622
H60_2 H 0.7699 0.9292 0.8634
C57_2 C 0.6627(3) 0.8706(4) 0.83612(9)
H61_2 H 0.6784 0.9034 0.8160
H62_2 H 0.6053 0.8531 0.8407
O14_2 O 0.6667 0.04329(19) 0.0833
H53_2 H 0.619(3) 0.041(4) 0.0816(13)
H63_2 H 0.714(3) 0.089(3) 0.0851(13)
O24 O 0.80786(11) 0.00483(12) 0.08855(5)
O2_2 O 0.20660(11) 0.43946(11) 0.07865(5)
O3_2 O 0.33816(12) 0.47453(11) 0.07812(5)
O4_2 O 0.37659(19) 0.3333 0.0833
C9_2 C 0.28225(16) 0.49317(15) 0.07848(6)
C10_2 C 0.30774(15) 0.58267(14) 0.07866(6)
C11_2 C 0.25005(15) 0.60898(15) 0.07869(7)
H10_2 H 0.1940 0.5701 0.0787
H11_2 H 0.422(3) 0.381(3) 0.0816(13)
O6_2 O 0.23286(16) 0.79340(11) 0.07865(5)
O7_2 O 0.13637(16) 0.66184(12) 0.07812(5)
C20_2 C 0.21092(22) 0.71775(16) 0.07848(6)
C21_2 C 0.27493(21) 0.69226(15) 0.07866(6)
C22_2 C 0.35893(21) 0.74995(15) 0.07869(7)
H21_2 H 0.3761 0.8060 0.0787
O8_2 O 0.56054(11) 0.76714(16) 0.07865(5)
O9_2 O 0.52547(11) 0.86363(16) 0.07812(5)
C23_2 C 0.50683(15) 0.78908(22) 0.07848(6)
C24_2 C 0.41733(14) 0.72507(21) 0.07866(6)
C25_2 C 0.39102(15) 0.64107(21) 0.07869(7)
H22_2 H 0.4299 0.6239 0.0787
H23_2 H 0.374(4) 0.286(3) 0.0851(13)
O16_2 O 0.10047(16) 0.22721(11) 0.08802(5)
O17_2 O 0.19696(16) 0.19214(11) 0.08855(5)
C58_2 C 0.12241(22) 0.17350(15) 0.08819(6)
C59_2 C 0.05840(21) 0.08400(14) 0.08801(6)
C66_2 C 0.08328(15) 0.02560(21) 0.08798(7)
H66_2 H 0.1393 0.0428 0.0880
O22 O 0.77279(11) 0.87327(11) 0.08802(5)
O23 O 0.12673(11) 0.89953(16) 0.08802(5)
C64_2 C 0.05108(16) 0.87759(22) 0.08819(6)
C65_2 C 0.02559(15) 0.94160(21) 0.08801(6)
O11_2 O 0.95671(19) 0.62341(19) 0.0833
H33_2 H 0.959(4) 0.578(3) 0.0816(13)
H43_2 H 0.911(3) 0.626(4) 0.0851(13)
C60_2 C 0.97440(21) 0.05769(15) 0.08798(7)
H64_2 H 0.9572 0.0966 0.0880
O25 O 0.99517(12) 0.80304(16) 0.08855(5)
C61_2 C 0.82650(15) 0.94892(16) 0.08819(6)
C62_2 C 0.91600(14) 0.97441(15) 0.08801(6)
C63_2 C 0.94231(15) 0.91672(15) 0.08798(7)
H65_2 H 0.9034 0.8607 0.0880
O18_2 O 0.22721(11) 0.12673(11) 0.91198(5)
C61_3 C 0.17350(15) 0.05108(16) 0.91181(6)
C62_3 C 0.08400(14) 0.02559(15) 0.91199(6)
C63_3 C 0.05769(15) 0.08328(15) 0.91202(7)
H65_3 H 0.0966 0.1393 0.9120
O21_2 O 0.00483(12) 0.19696(16) 0.91145(5)
Cd5_2 Cd 0.3333 0.083898(14) 0.9167
H27_3 H 0.0435 0.2373 0.0301
O11_3 O 0.04329(19) 0.37659(19) 0.9167
H28_3 H 0.0295 0.2427 0.9743
H33_3 H 0.041(4) 0.422(3) 0.9184(13)
H43_3 H 0.089(3) 0.374(4) 0.9149(13)
C60_3 C 0.02560(21) 0.94231(15) 0.91202(7)
H64_3 H 0.0428 0.9034 0.9120
O19_2 O 0.19214(11) 0.99517(12) 0.91145(5)
O20_2 O 0.87327(11) 0.10047(16) 0.91198(5)
C64_3 C 0.94892(16) 0.12241(22) 0.91181(6)
C65_3 C 0.97441(15) 0.05840(21) 0.91199(6)
Cd4_2 Cd 0.916102(14) 0.249402(14) 0.9167
N2_3 N 0.77368(14) 0.72072(14) 0.07651(5)
H1_3 H 0.7650 0.7598 0.0824
O1_3 O 0.79847(18) 0.62139(15) 0.09656(6)
C2_3 C 0.7745(2) 0.64046(18) 0.02820(7)
H3_3 H 0.7791 0.6020 0.0412
C3_3 C 0.77146(16) 0.70617(17) 0.04260(6)
C4_3 C 0.7648(2) 0.7612(2) 0.02151(7)
H4_3 H 0.7627 0.8062 0.0301
C6_3 C 0.7880(2) 0.68034(18) 0.10137(7)
C7_3 C 0.7914(2) 0.7159(2) 0.13521(7)
H6_3 H 0.7441 0.7235 0.1378
H7_3 H 0.8407 0.7699 0.1366
C8_3 C 0.7921(2) 0.6627(3) 0.16388(9)
H8_3 H 0.7750 0.6784 0.1840
H9_3 H 0.7522 0.6053 0.1593
N3_3 N 0.90344(16) 0.64813(15) 0.35946(6)
N4_3 N 0.89299(14) 0.61261(14) 0.25682(5)
H12_3 H 0.9017 0.5735 0.2509
O5_3 O 0.86820(18) 0.71194(15) 0.23677(6)
C12_3 C 0.8962(2) 0.70000(19) 0.33901(7)
H13_3 H 0.8937 0.7441 0.3483
C13_3 C 0.8922(2) 0.69287(18) 0.30513(7)
H14_3 H 0.8876 0.7313 0.2921
C14_3 C 0.89521(16) 0.62716(17) 0.29073(6)
C15_3 C 0.9019(2) 0.5721(2) 0.31182(7)
H15_3 H 0.9040 0.5271 0.3032
C16_3 C 0.9054(2) 0.5844(2) 0.34535(7)
H16_3 H 0.9094 0.5465 0.3590
C17_3 C 0.8787(2) 0.65299(18) 0.23196(7)
C18_3 C 0.8753(2) 0.6174(2) 0.19812(7)
H17_3 H 0.9226 0.6098 0.1955
H18_3 H 0.8260 0.5634 0.1967
C19_3 C 0.8746(2) 0.6706(3) 0.16945(9)
H19_3 H 0.8917 0.6549 0.1493
H20_3 H 0.9145 0.7280 0.1740
N6_3 N 0.94704(20) 0.22632(14) 0.07651(5)
H24_3 H 0.9948 0.2350 0.0824
O10_3 O 0.82292(23) 0.20153(18) 0.09656(6)
C27_3 C 0.86596(27) 0.2255(2) 0.02820(7)
H26_3 H 0.8229 0.2209 0.0412
C28_3 C 0.93471(23) 0.22854(16) 0.04260(6)
C29_3 C 0.9964(3) 0.2352(2) 0.02151(7)
C31_3 C 0.89234(27) 0.2120(2) 0.10137(7)
C32_3 C 0.9245(3) 0.2086(2) 0.13521(7)
H29_3 H 0.9794 0.2559 0.1378
H30_3 H 0.9292 0.1593 0.1366
C33_3 C 0.8706(4) 0.2079(2) 0.16388(9)
H31_3 H 0.9034 0.2250 0.1840
H32_3 H 0.8531 0.2478 0.1593
N7_3 N 0.74470(22) 0.09656(16) 0.35946(6)
N8_3 N 0.71963(20) 0.10701(14) 0.25682(5)
H34_3 H 0.6719 0.0983 0.2509
O12_3 O 0.84375(23) 0.13180(18) 0.23677(6)
C34_3 C 0.80384(28) 0.1038(2) 0.33901(7)
H35_3 H 0.8505 0.1063 0.3483
C35_3 C 0.80071(27) 0.1078(2) 0.30513(7)
H36_3 H 0.8438 0.1124 0.2921
C36_3 C 0.73196(23) 0.10479(16) 0.29073(6)
C37_3 C 0.6703(3) 0.0981(2) 0.31182(7)
H37_3 H 0.6232 0.0960 0.3032
C38_3 C 0.6791(3) 0.0946(2) 0.34535(7)
H38_3 H 0.6372 0.0906 0.3590
C39_3 C 0.77433(27) 0.1213(2) 0.23196(7)
C40_3 C 0.7422(3) 0.1247(2) 0.19812(7)
H39_3 H 0.6873 0.0774 0.1955
H40_3 H 0.7375 0.1740 0.1967
C41_3 C 0.7961(4) 0.1254(2) 0.16945(9)
H41_3 H 0.7633 0.1083 0.1493
H42_3 H 0.8136 0.0855 0.1740
N10_3 N 0.27928(14) 0.05296(20) 0.07651(5)
H44_3 H 0.2402 0.0052 0.0824
O13_3 O 0.37861(15) 0.17708(23) 0.09656(6)
C43_3 C 0.35954(18) 0.13404(27) 0.02820(7)
H46_3 H 0.3980 0.1771 0.0412
C44_3 C 0.29383(17) 0.06529(23) 0.04260(6)
C45_3 C 0.2388(2) 0.0036(3) 0.02151(7)
C47_3 C 0.31966(18) 0.10766(27) 0.10137(7)
C48_3 C 0.2841(2) 0.0755(3) 0.13521(7)
H49_3 H 0.2765 0.0206 0.1378
H50_3 H 0.2301 0.0708 0.1366
C49_3 C 0.3373(3) 0.1294(4) 0.16388(9)
H51_3 H 0.3216 0.0966 0.1840
H52_3 H 0.3947 0.1469 0.1593
N11_3 N 0.35187(15) 0.25530(22) 0.35946(6)
N12_3 N 0.38739(14) 0.28037(20) 0.25682(5)
H54_3 H 0.4265 0.3281 0.2509
O15_3 O 0.28806(15) 0.15625(23) 0.23677(6)
C50_3 C 0.30000(19) 0.19616(28) 0.33901(7)
H55_3 H 0.2559 0.1495 0.3483
C51_3 C 0.30713(18) 0.19929(27) 0.30513(7)
H56_3 H 0.2687 0.1562 0.2921
C52_3 C 0.37284(17) 0.26804(23) 0.29073(6)
C53_3 C 0.4279(2) 0.3297(3) 0.31182(7)
H57_3 H 0.4729 0.3768 0.3032
C54_3 C 0.4156(2) 0.3209(3) 0.34535(7)
H58_3 H 0.4535 0.3628 0.3590
C55_3 C 0.34701(18) 0.22567(27) 0.23196(7)
C56_3 C 0.3826(2) 0.2578(3) 0.19812(7)
H59_3 H 0.3902 0.3127 0.1955
H60_3 H 0.4366 0.2625 0.1967
C57_3 C 0.3294(3) 0.2039(4) 0.16945(9)
H61_3 H 0.3451 0.2367 0.1493
H62_3 H 0.2720 0.1864 0.1740
Cd6_2 Cd 0.3333 0.249402(14) 0.4167
Cd7_2 Cd 0.750598(14) 0.083898(14) 0.4167
Cd8_2 Cd 0.916102(14) 0.6667 0.4167
Cd1_2 Cd 0.750598(14) 0.6667 0.9167
N1_2 N 0.76323(16) 0.68520(15) 0.97387(6)
O2_3 O 0.79340(11) 0.56054(11) 0.92135(5)
O3_3 O 0.66184(12) 0.52547(11) 0.92188(5)
O4_3 O 0.62341(19) 0.6667 0.9167
C1_3 C 0.7705(2) 0.63333(19) 0.99432(7)
H2_3 H 0.7730 0.5892 0.9850
C5_3 C 0.7613(2) 0.7489(2) 0.98798(7)
H5_3 H 0.7573 0.7868 0.9743
C9_3 C 0.71775(16) 0.50683(15) 0.92152(6)
C10_3 C 0.69226(15) 0.41733(14) 0.92134(6)
C11_3 C 0.74995(15) 0.39102(15) 0.92131(7)
H10_3 H 0.8060 0.4299 0.9213
H11_3 H 0.578(3) 0.619(3) 0.9184(13)
O6_3 O 0.76714(16) 0.20660(11) 0.92135(5)
O7_3 O 0.86363(16) 0.33816(12) 0.92188(5)
C20_3 C 0.78908(22) 0.28225(16) 0.92152(6)
C21_3 C 0.72507(21) 0.30774(15) 0.92134(6)
C22_3 C 0.64107(21) 0.25005(15) 0.92131(7)
H21_3 H 0.6239 0.1940 0.9213
O8_3 O 0.43946(11) 0.23286(16) 0.92135(5)
O9_3 O 0.47453(11) 0.13637(16) 0.92188(5)
C23_3 C 0.49317(15) 0.21092(22) 0.92152(6)
C24_3 C 0.58267(14) 0.27493(21) 0.92134(6)
C25_3 C 0.60898(15) 0.35893(21) 0.92131(7)
H22_3 H 0.5701 0.3761 0.9213
H23_3 H 0.626(4) 0.714(3) 0.9149(13)
N5_2 N 0.92197(22) 0.23677(16) 0.97387(6)
C26_3 C 0.86283(28) 0.2295(2) 0.99432(7)
H25_3 H 0.8162 0.2270 0.9850
C30_3 C 0.9876(3) 0.2387(2) 0.98798(7)
N9_2 N 0.31480(15) 0.07803(22) 0.97387(6)
C42_3 C 0.36667(19) 0.13717(28) 0.99432(7)
H45_3 H 0.4108 0.1838 0.9850
C46_3 C 0.2511(2) 0.0124(3) 0.98798(7)
O16_3 O 0.89953(16) 0.77279(11) 0.91198(5)
O17_3 O 0.80304(16) 0.80786(11) 0.91145(5)
C58_3 C 0.87759(22) 0.82650(15) 0.91181(6)
C59_3 C 0.94160(21) 0.91600(14) 0.91199(6)
C66_3 C 0.91672(15) 0.97440(21) 0.91202(7)
H66_3 H 0.8607 0.9572 0.9120
N13_2 N 0.35187(15) 0.09656(16) 0.85946(6)
N14_2 N 0.90344(16) 0.25530(22) 0.85946(6)
N15_2 N 0.74470(22) 0.64813(15) 0.85946(6)
H47_3 H 0.1938 0.9565 0.0301
O14_3 O 0.3333 0.95671(19) 0.9167
H48_3 H 0.2132 0.9705 0.9743
H53_3 H 0.381(3) 0.959(4) 0.9184(13)
H63_3 H 0.286(3) 0.911(3) 0.9149(13)
N2_4 N 0.38739(14) 0.10701(14) 0.75682(5)
H1_4 H 0.4265 0.0983 0.7509
O1_4 O 0.28806(15) 0.13180(18) 0.73677(6)
C1_4 C 0.30000(19) 0.1038(2) 0.83901(7)
H2_4 H 0.2559 0.1063 0.8483
C2_4 C 0.30713(18) 0.1078(2) 0.80513(7)
H3_4 H 0.2687 0.1124 0.7921
C3_4 C 0.37284(17) 0.10479(16) 0.79073(6)
C4_4 C 0.4279(2) 0.0981(2) 0.81182(7)
H4_4 H 0.4729 0.0960 0.8032
C5_4 C 0.4156(2) 0.0946(2) 0.84535(7)
H5_4 H 0.4535 0.0906 0.8590
C6_4 C 0.34701(18) 0.1213(2) 0.73196(7)
C7_4 C 0.3826(2) 0.1247(2) 0.69812(7)
H6_4 H 0.3902 0.0774 0.6955
H7_4 H 0.4366 0.1740 0.6967
C8_4 C 0.3294(3) 0.1254(2) 0.66945(9)
H8_4 H 0.3451 0.1083 0.6493
H9_4 H 0.2720 0.0855 0.6740
N3_4 N 0.31480(15) 0.23677(16) 0.47387(6)
N4_4 N 0.27928(14) 0.22632(14) 0.57651(5)
H12_4 H 0.2402 0.2350 0.5824
O5_4 O 0.37861(15) 0.20153(18) 0.59656(6)
C12_4 C 0.36667(19) 0.2295(2) 0.49432(7)
H13_4 H 0.4108 0.2270 0.4850
C13_4 C 0.35954(18) 0.2255(2) 0.52820(7)
H14_4 H 0.3980 0.2209 0.5412
C14_4 C 0.29383(17) 0.22854(16) 0.54260(6)
C15_4 C 0.2388(2) 0.2352(2) 0.52151(7)
H15_4 H 0.1938 0.2373 0.5301
C16_4 C 0.2511(2) 0.2387(2) 0.48798(7)
H16_4 H 0.2132 0.2427 0.4743
C17_4 C 0.31966(18) 0.2120(2) 0.60137(7)
C18_4 C 0.2841(2) 0.2086(2) 0.63521(7)
H17_4 H 0.2765 0.2559 0.6378
H18_4 H 0.2301 0.1593 0.6366
C19_4 C 0.3373(3) 0.2079(2) 0.66388(9)
H19_4 H 0.3216 0.2250 0.6840
H20_4 H 0.3947 0.2478 0.6593
H57_4 H 0.0435 0.8062 0.5301
H58_4 H 0.0295 0.7868 0.4743
N6_4 N 0.89299(14) 0.28037(20) 0.75682(5)
H24_4 H 0.9017 0.3281 0.7509
O10_4 O 0.86820(18) 0.15625(23) 0.73677(6)
C26_4 C 0.8962(2) 0.19616(28) 0.83901(7)
H25_4 H 0.8937 0.1495 0.8483
C27_4 C 0.8922(2) 0.19929(27) 0.80513(7)
H26_4 H 0.8876 0.1562 0.7921
C28_4 C 0.89521(16) 0.26804(23) 0.79073(6)
C29_4 C 0.9019(2) 0.3297(3) 0.81182(7)
H27_4 H 0.9040 0.3768 0.8032
C30_4 C 0.9054(2) 0.3209(3) 0.84535(7)
H28_4 H 0.9094 0.3628 0.8590
C31_4 C 0.8787(2) 0.22567(27) 0.73196(7)
C32_4 C 0.8753(2) 0.2578(3) 0.69812(7)
H29_4 H 0.9226 0.3127 0.6955
H30_4 H 0.8260 0.2625 0.6967
C33_4 C 0.8746(2) 0.2039(4) 0.66945(9)
H31_4 H 0.8917 0.2367 0.6493
H32_4 H 0.9145 0.1864 0.6740
N7_4 N 0.76323(16) 0.07803(22) 0.47387(6)
N8_4 N 0.77368(14) 0.05296(20) 0.57651(5)
H34_4 H 0.7650 0.0052 0.5824
O12_4 O 0.79847(18) 0.17708(23) 0.59656(6)
C34_4 C 0.7705(2) 0.13717(28) 0.49432(7)
H35_4 H 0.7730 0.1838 0.4850
C35_4 C 0.7745(2) 0.13404(27) 0.52820(7)
H36_4 H 0.7791 0.1771 0.5412
C36_4 C 0.77146(16) 0.06529(23) 0.54260(6)
C37_4 C 0.7648(2) 0.0036(3) 0.52151(7)
C38_4 C 0.7613(2) 0.0124(3) 0.48798(7)
C39_4 C 0.7880(2) 0.10766(27) 0.60137(7)
C40_4 C 0.7914(2) 0.0755(3) 0.63521(7)
H39_4 H 0.7441 0.0206 0.6378
H40_4 H 0.8407 0.0708 0.6366
C41_4 C 0.7921(2) 0.1294(4) 0.66388(9)
H41_4 H 0.7750 0.0966 0.6840
H42_4 H 0.7522 0.1469 0.6593
H37_4 H 0.7627 0.9565 0.5301
H38_4 H 0.7573 0.9705 0.4743
N10_4 N 0.71963(20) 0.61261(14) 0.75682(5)
H44_4 H 0.6719 0.5735 0.7509
O13_4 O 0.84375(23) 0.71194(15) 0.73677(6)
C42_4 C 0.80384(28) 0.70000(19) 0.83901(7)
H45_4 H 0.8505 0.7441 0.8483
C43_4 C 0.80071(27) 0.69287(18) 0.80513(7)
H46_4 H 0.8438 0.7313 0.7921
C44_4 C 0.73196(23) 0.62716(17) 0.79073(6)
C45_4 C 0.6703(3) 0.5721(2) 0.81182(7)
H47_4 H 0.6232 0.5271 0.8032
C46_4 C 0.6791(3) 0.5844(2) 0.84535(7)
H48_4 H 0.6372 0.5465 0.8590
C47_4 C 0.77433(27) 0.65299(18) 0.73196(7)
C48_4 C 0.7422(3) 0.6174(2) 0.69812(7)
H49_4 H 0.6873 0.6098 0.6955
H50_4 H 0.7375 0.5634 0.6967
C49_4 C 0.7961(4) 0.6706(3) 0.66945(9)
H51_4 H 0.7633 0.6549 0.6493
H52_4 H 0.8136 0.7280 0.6740
N11_4 N 0.92197(22) 0.68520(15) 0.47387(6)
N12_4 N 0.94704(20) 0.72072(14) 0.57651(5)
H54_4 H 0.9948 0.7598 0.5824
O15_4 O 0.82292(23) 0.62139(15) 0.59656(6)
C50_4 C 0.86283(28) 0.63333(19) 0.49432(7)
H55_4 H 0.8162 0.5892 0.4850
C51_4 C 0.86596(27) 0.64046(18) 0.52820(7)
H56_4 H 0.8229 0.6020 0.5412
C52_4 C 0.93471(23) 0.70617(17) 0.54260(6)
C53_4 C 0.9964(3) 0.7612(2) 0.52151(7)
C54_4 C 0.9876(3) 0.7489(2) 0.48798(7)
C55_4 C 0.89234(27) 0.68034(18) 0.60137(7)
C56_4 C 0.9245(3) 0.7159(2) 0.63521(7)
H59_4 H 0.9794 0.7235 0.6378
H60_4 H 0.9292 0.7699 0.6366
C57_4 C 0.8706(4) 0.6627(3) 0.66388(9)
H61_4 H 0.9034 0.6784 0.6840
H62_4 H 0.8531 0.6053 0.6593
O14_4 O 0.04329(19) 0.6667 0.4167
H53_4 H 0.041(4) 0.619(3) 0.4184(13)
H63_4 H 0.089(3) 0.714(3) 0.4149(13)
O24_2 O 0.00483(12) 0.80786(11) 0.41145(5)
O2_4 O 0.43946(11) 0.20660(11) 0.42135(5)
O3_4 O 0.47453(11) 0.33816(12) 0.42188(5)
O4_4 O 0.3333 0.37659(19) 0.4167
C9_4 C 0.49317(15) 0.28225(16) 0.42152(6)
C10_4 C 0.58267(14) 0.30774(15) 0.42134(6)
C11_4 C 0.60898(15) 0.25005(15) 0.42131(7)
H10_4 H 0.5701 0.1940 0.4213
H11_4 H 0.381(3) 0.422(3) 0.4184(13)
O6_4 O 0.79340(11) 0.23286(16) 0.42135(5)
O7_4 O 0.66184(12) 0.13637(16) 0.42188(5)
C20_4 C 0.71775(16) 0.21092(22) 0.42152(6)
C21_4 C 0.69226(15) 0.27493(21) 0.42134(6)
C22_4 C 0.74995(15) 0.35893(21) 0.42131(7)
H21_4 H 0.8060 0.3761 0.4213
O8_4 O 0.76714(16) 0.56054(11) 0.42135(5)
O9_4 O 0.86363(16) 0.52547(11) 0.42188(5)
C23_4 C 0.78908(22) 0.50683(15) 0.42152(6)
C24_4 C 0.72507(21) 0.41733(14) 0.42134(6)
C25_4 C 0.64107(21) 0.39102(15) 0.42131(7)
H22_4 H 0.6239 0.4299 0.4213
H23_4 H 0.286(3) 0.374(4) 0.4149(13)
O16_4 O 0.22721(11) 0.10047(16) 0.41198(5)
O17_4 O 0.19214(11) 0.19696(16) 0.41145(5)
C58_4 C 0.17350(15) 0.12241(22) 0.41181(6)
C59_4 C 0.08400(14) 0.05840(21) 0.41199(6)
C66_4 C 0.02560(21) 0.08328(15) 0.41202(7)
H66_4 H 0.0428 0.1393 0.4120
O22_2 O 0.87327(11) 0.77279(11) 0.41198(5)
O23_2 O 0.89953(16) 0.12673(11) 0.41198(5)
O11_4 O 0.62341(19) 0.95671(19) 0.4167
H33_4 H 0.578(3) 0.959(4) 0.4184(13)
H43_4 H 0.626(4) 0.911(3) 0.4149(13)
C60_4 C 0.05769(15) 0.97440(21) 0.41202(7)
H64_4 H 0.0966 0.9572 0.4120
O25_2 O 0.80304(16) 0.99517(12) 0.41145(5)
C64_4 C 0.87759(22) 0.05108(16) 0.41181(6)
C65_4 C 0.94160(21) 0.02559(15) 0.41199(6)
C61_4 C 0.94892(16) 0.82650(15) 0.41181(6)
C62_4 C 0.97441(15) 0.91600(14) 0.41199(6)
C63_4 C 0.91672(15) 0.94231(15) 0.41202(7)
H65_4 H 0.8607 0.9034 0.4120
Cd5_3 Cd -0.0000 0.417231(14) 0.2500
Cd1_3 Cd 0.417265(14) 0.0000 0.2500
N1_3 N 0.42990(16) 0.01853(15) 0.30720(6)
N2_5 N 0.44035(14) 0.05405(14) 0.40984(5)
H1_5 H 0.4317 0.0931 0.4157
O4_5 O 0.29008(19) 0.0000 0.2500
C3_5 C 0.43813(16) 0.03950(17) 0.37593(6)
C4_5 C 0.4315(2) 0.0945(2) 0.35484(7)
H4_5 H 0.4294 0.1395 0.3634
C5_5 C 0.4280(2) 0.0822(2) 0.32131(7)
H5_5 H 0.4240 0.1201 0.3076
C6_5 C 0.4547(2) 0.01367(18) 0.43470(7)
C7_5 C 0.4581(2) 0.0492(2) 0.46854(7)
H6_5 H 0.4108 0.0568 0.4711
H7_5 H 0.5074 0.1032 0.4699
H8_5 H 0.4417 0.0117 0.5173
O5_5 O 0.53486(18) 0.04528(15) 0.57011(6)
C12_5 C 0.5628(2) 0.03334(19) 0.67235(7)
H13_5 H 0.5603 0.0775 0.6817
C13_5 C 0.5588(2) 0.02621(18) 0.63847(7)
H14_5 H 0.5542 0.0647 0.6255
C19_5 C 0.5412(2) 0.0040(3) 0.50279(9)
H20_5 H 0.5811 0.0614 0.5074
H23_5 H 0.292(4) 0.048(3) 0.2483(13)
O16_5 O 0.56619(16) 0.10613(11) 0.24532(5)
O17_5 O 0.46970(16) 0.14120(11) 0.24479(5)
C58_5 C 0.54425(22) 0.15984(15) 0.24515(6)
C59_5 C 0.60826(21) 0.24934(14) 0.24533(6)
C60_5 C 0.69226(21) 0.27565(15) 0.24536(7)
H64_5 H 0.7094 0.2368 0.2454
O18_3 O 0.89387(11) 0.46007(11) 0.24532(5)
O19_3 O 0.85880(11) 0.32851(12) 0.24479(5)
C61_5 C 0.84016(15) 0.38442(16) 0.24515(6)
C62_5 C 0.75066(14) 0.35893(15) 0.24533(6)
C63_5 C 0.72435(15) 0.41662(15) 0.24536(7)
H65_5 H 0.7632 0.4727 0.2454
O20_3 O 0.53993(11) 0.43381(16) 0.24532(5)
O21_3 O 0.67149(12) 0.53030(16) 0.24479(5)
C64_5 C 0.61558(16) 0.45575(22) 0.24515(6)
C65_5 C 0.64107(15) 0.39174(21) 0.24533(6)
C66_5 C 0.58338(15) 0.30774(21) 0.24536(7)
H66_5 H 0.5273 0.2906 0.2454
Cd4_3 Cd 0.582769(14) 0.582735(14) 0.2500
Cd5_4 Cd 1.0000 0.417231(14) 0.2500
Cd8_3 Cd 0.582769(14) 0.0000 0.7500
Cd1_4 Cd 0.417265(14) 1.0000 0.2500
O1_5 O 0.46514(18) 0.95472(15) 0.42989(6)
O2_5 O 0.46007(11) 0.89387(11) 0.25468(5)
O3_5 O 0.32851(12) 0.85880(11) 0.25521(5)
O4_6 O 0.29008(19) 1.0000 0.2500
C1_5 C 0.4372(2) 0.96666(19) 0.32765(7)
H2_5 H 0.4397 0.9225 0.3183
C2_5 C 0.4412(2) 0.97379(18) 0.36153(7)
H3_5 H 0.4458 0.9353 0.3745
C8_5 C 0.4588(2) 0.9960(3) 0.49721(9)
H9_5 H 0.4189 0.9386 0.4926
C9_5 C 0.38442(16) 0.84016(15) 0.25485(6)
C10_5 C 0.35893(15) 0.75066(14) 0.25467(6)
C11_5 C 0.41662(15) 0.72435(15) 0.25464(7)
H10_5 H 0.4727 0.7632 0.2546
H11_5 H 0.245(3) 0.952(3) 0.2517(13)
N3_5 N 0.57010(16) 0.98147(15) 0.69280(6)
N4_5 N 0.55965(14) 0.94595(14) 0.59016(5)
H12_5 H 0.5683 0.9069 0.5843
C14_5 C 0.56187(16) 0.96050(17) 0.62407(6)
C15_5 C 0.5685(2) 0.9055(2) 0.64516(7)
H15_5 H 0.5706 0.8605 0.6366
C16_5 C 0.5720(2) 0.9178(2) 0.67869(7)
H16_5 H 0.5760 0.8799 0.6924
C17_5 C 0.5453(2) 0.98633(18) 0.56530(7)
C18_5 C 0.5419(2) 0.9508(2) 0.53146(7)
H17_5 H 0.5892 0.9432 0.5289
H18_5 H 0.4926 0.8968 0.5301
H19_5 H 0.5583 0.9883 0.4827
O6_5 O 0.43381(16) 0.53993(11) 0.25468(5)
O7_5 O 0.53030(16) 0.67149(12) 0.25521(5)
C20_5 C 0.45575(22) 0.61558(16) 0.25485(6)
C21_5 C 0.39174(21) 0.64107(15) 0.25467(6)
C22_5 C 0.30774(21) 0.58338(15) 0.25464(7)
H21_5 H 0.2906 0.5273 0.2546
O8_5 O 0.10613(11) 0.56619(16) 0.25468(5)
O9_5 O 0.14120(11) 0.46970(16) 0.25521(5)
C23_5 C 0.15984(15) 0.54425(22) 0.25485(6)
C24_5 C 0.24934(14) 0.60826(21) 0.25467(6)
C25_5 C 0.27565(15) 0.69226(21) 0.25464(7)
H22_5 H 0.2368 0.7094 0.2546
N5_3 N 0.58864(22) 0.57010(16) 0.30720(6)
N6_5 N 0.61371(20) 0.55965(14) 0.40984(5)
H24_5 H 0.6615 0.5683 0.4157
O10_5 O 0.48959(23) 0.53486(18) 0.42989(6)
O11_5 O 0.70996(19) 0.70992(19) 0.2500
C26_5 C 0.52950(28) 0.5628(2) 0.32765(7)
H25_5 H 0.4829 0.5603 0.3183
C27_5 C 0.53263(27) 0.5588(2) 0.36153(7)
H26_5 H 0.4896 0.5542 0.3745
C28_5 C 0.60138(23) 0.56187(16) 0.37593(6)
C29_5 C 0.6631(3) 0.5685(2) 0.35484(7)
H27_5 H 0.7102 0.5706 0.3634
C30_5 C 0.6543(3) 0.5720(2) 0.32131(7)
H28_5 H 0.6962 0.5760 0.3076
C31_5 C 0.55901(27) 0.5453(2) 0.43470(7)
C32_5 C 0.5912(3) 0.5419(2) 0.46854(7)
H29_5 H 0.6461 0.5892 0.4711
H30_5 H 0.5959 0.4926 0.4699
C33_5 C 0.5373(4) 0.5412(2) 0.49721(9)
H31_5 H 0.5701 0.5583 0.5173
H32_5 H 0.5198 0.5811 0.4926
H33_5 H 0.708(4) 0.755(3) 0.2517(13)
N7_5 N 0.41136(22) 0.42990(16) 0.69280(6)
N8_5 N 0.38629(20) 0.44035(14) 0.59016(5)
H34_5 H 0.3385 0.4317 0.5843
O12_5 O 0.51041(23) 0.46514(18) 0.57011(6)
C34_5 C 0.47050(28) 0.4372(2) 0.67235(7)
H35_5 H 0.5171 0.4397 0.6817
C35_5 C 0.46737(27) 0.4412(2) 0.63847(7)
H36_5 H 0.5104 0.4458 0.6255
C36_5 C 0.39862(23) 0.43813(16) 0.62407(6)
C37_5 C 0.3369(3) 0.4315(2) 0.64516(7)
H37_5 H 0.2898 0.4294 0.6366
C38_5 C 0.3457(3) 0.4280(2) 0.67869(7)
H38_5 H 0.3038 0.4240 0.6924
C39_5 C 0.44099(27) 0.4547(2) 0.56530(7)
C40_5 C 0.4088(3) 0.4581(2) 0.53146(7)
H39_5 H 0.3539 0.4108 0.5289
H40_5 H 0.4041 0.5074 0.5301
C41_5 C 0.4627(4) 0.4588(2) 0.50279(9)
H41_5 H 0.4299 0.4417 0.4827
H42_5 H 0.4802 0.4189 0.5074
H43_5 H 0.755(3) 0.708(4) 0.2483(13)
O13_5 O 0.04528(15) 0.51041(23) 0.42989(6)
O14_5 O -0.0000 0.29004(19) 0.2500
C42_5 C 0.03334(19) 0.47050(28) 0.32765(7)
H45_5 H 0.0775 0.5171 0.3183
C43_5 C 0.02621(18) 0.46737(27) 0.36153(7)
H46_5 H 0.0647 0.5104 0.3745
C49_5 C 0.0040(3) 0.4627(4) 0.49721(9)
H52_5 H 0.0614 0.4802 0.4926
H53_5 H 0.048(3) 0.292(4) 0.2517(13)
N11_5 N 0.01853(15) 0.58864(22) 0.69280(6)
N12_5 N 0.05405(14) 0.61371(20) 0.59016(5)
H54_5 H 0.0931 0.6615 0.5843
C52_5 C 0.03950(17) 0.60138(23) 0.62407(6)
C53_5 C 0.0945(2) 0.6631(3) 0.64516(7)
H57_5 H 0.1395 0.7102 0.6366
C54_5 C 0.0822(2) 0.6543(3) 0.67869(7)
H58_5 H 0.1201 0.6962 0.6924
C55_5 C 0.01367(18) 0.55901(27) 0.56530(7)
C56_5 C 0.0492(2) 0.5912(3) 0.53146(7)
H59_5 H 0.0568 0.6461 0.5289
H60_5 H 0.1032 0.5959 0.5301
H61_5 H 0.0117 0.5701 0.4827
Cd6_3 Cd -0.0000 0.582735(14) 0.7500
Cd7_3 Cd 0.417265(14) 0.417231(14) 0.7500
Cd8_4 Cd 0.582769(14) 1.0000 0.7500
N13_3 N 0.01853(15) 0.42990(16) 0.19280(6)
N14_3 N 0.57010(16) 0.58864(22) 0.19280(6)
N15_3 N 0.41136(22) 0.98147(15) 0.19280(6)
N9_3 N 0.98147(15) 0.41136(22) 0.30720(6)
N10_5 N 0.94595(14) 0.38629(20) 0.40984(5)
H44_5 H 0.9069 0.3385 0.4157
O14_6 O 1.0000 0.29004(19) 0.2500
C44_5 C 0.96050(17) 0.39862(23) 0.37593(6)
C45_5 C 0.9055(2) 0.3369(3) 0.35484(7)
H47_5 H 0.8605 0.2898 0.3634
C46_5 C 0.9178(2) 0.3457(3) 0.32131(7)
H48_5 H 0.8799 0.3038 0.3076
C47_5 C 0.98633(18) 0.44099(27) 0.43470(7)
C48_5 C 0.9508(2) 0.4088(3) 0.46854(7)
H49_5 H 0.9432 0.3539 0.4711
H50_5 H 0.8968 0.4041 0.4699
H51_5 H 0.9883 0.4299 0.5173
O15_5 O 0.95472(15) 0.48959(23) 0.57011(6)
C50_5 C 0.96666(19) 0.52950(28) 0.67235(7)
H55_5 H 0.9225 0.4829 0.6817
C51_5 C 0.97379(18) 0.53263(27) 0.63847(7)
H56_5 H 0.9353 0.4896 0.6255
C57_5 C 0.9960(3) 0.5373(4) 0.50279(9)
H62_5 H 0.9386 0.5198 0.5074
H63_5 H 0.952(3) 0.245(3) 0.2483(13)
Cd6_4 Cd 1.0000 0.582735(14) 0.7500
N2_6 N 0.05405(14) 0.44035(14) 0.09016(5)
H1_6 H 0.0931 0.4317 0.0843
C3_6 C 0.03950(17) 0.43813(16) 0.12407(6)
C4_6 C 0.0945(2) 0.4315(2) 0.14516(7)
H4_6 H 0.1395 0.4294 0.1366
C5_6 C 0.0822(2) 0.4280(2) 0.17869(7)
H5_6 H 0.1201 0.4240 0.1924
C6_6 C 0.01367(18) 0.4547(2) 0.06530(7)
C7_6 C 0.0492(2) 0.4581(2) 0.03146(7)
H6_6 H 0.0568 0.4108 0.0289
H7_6 H 0.1032 0.5074 0.0301
H8_6 H 0.0117 0.4417 0.9827
O5_6 O 0.04528(15) 0.53486(18) 0.92989(6)
C12_6 C 0.03334(19) 0.5628(2) 0.82765(7)
H13_6 H 0.0775 0.5603 0.8183
C13_6 C 0.02621(18) 0.5588(2) 0.86153(7)
H14_6 H 0.0647 0.5542 0.8745
C19_6 C 0.0040(3) 0.5412(2) 0.99721(9)
H20_6 H 0.0614 0.5811 0.9926
O1_6 O 0.95472(15) 0.46514(18) 0.07011(6)
C1_6 C 0.96666(19) 0.4372(2) 0.17235(7)
H2_6 H 0.9225 0.4397 0.1817
C2_6 C 0.97379(18) 0.4412(2) 0.13847(7)
H3_6 H 0.9353 0.4458 0.1255
C8_6 C 0.9960(3) 0.4588(2) 0.00279(9)
H9_6 H 0.9386 0.4189 0.0074
H19_6 H 0.9883 0.5583 0.0173
N6_6 N 0.55965(14) 0.61371(20) 0.09016(5)
H24_6 H 0.5683 0.6615 0.0843
O10_6 O 0.53486(18) 0.48959(23) 0.07011(6)
C26_6 C 0.5628(2) 0.52950(28) 0.17235(7)
H25_6 H 0.5603 0.4829 0.1817
C27_6 C 0.5588(2) 0.53263(27) 0.13847(7)
H26_6 H 0.5542 0.4896 0.1255
C28_6 C 0.56187(16) 0.60138(23) 0.12407(6)
C29_6 C 0.5685(2) 0.6631(3) 0.14516(7)
H27_6 H 0.5706 0.7102 0.1366
C30_6 C 0.5720(2) 0.6543(3) 0.17869(7)
H28_6 H 0.5760 0.6962 0.1924
C31_6 C 0.5453(2) 0.55901(27) 0.06530(7)
C32_6 C 0.5419(2) 0.5912(3) 0.03146(7)
H29_6 H 0.5892 0.6461 0.0289
H30_6 H 0.4926 0.5959 0.0301
C33_6 C 0.5412(2) 0.5373(4) 0.00279(9)
H32_6 H 0.5811 0.5198 0.0074
H41_6 H 0.4417 0.4299 0.0173
O13_6 O 0.51041(23) 0.04528(15) 0.07011(6)
C42_6 C 0.47050(28) 0.03334(19) 0.17235(7)
H45_6 H 0.5171 0.0775 0.1817
C43_6 C 0.46737(27) 0.02621(18) 0.13847(7)
H46_6 H 0.5104 0.0647 0.1255
C49_6 C 0.4627(4) 0.0040(3) 0.00279(9)
H52_6 H 0.4802 0.0614 0.0074
H61_6 H 0.5701 0.0117 0.0173
N3_6 N 0.98147(15) 0.57010(16) 0.80720(6)
N4_6 N 0.94595(14) 0.55965(14) 0.90984(5)
H12_6 H 0.9069 0.5683 0.9157
C14_6 C 0.96050(17) 0.56187(16) 0.87593(6)
C15_6 C 0.9055(2) 0.5685(2) 0.85484(7)
H15_6 H 0.8605 0.5706 0.8634
C16_6 C 0.9178(2) 0.5720(2) 0.82131(7)
H16_6 H 0.8799 0.5760 0.8076
C17_6 C 0.98633(18) 0.5453(2) 0.93470(7)
C18_6 C 0.9508(2) 0.5419(2) 0.96854(7)
H17_6 H 0.9432 0.5892 0.9711
H18_6 H 0.8968 0.4926 0.9699
H31_6 H 0.5583 0.5701 0.9827
N7_6 N 0.42990(16) 0.41136(22) 0.80720(6)
N8_6 N 0.44035(14) 0.38629(20) 0.90984(5)
H34_6 H 0.4317 0.3385 0.9157
O12_6 O 0.46514(18) 0.51041(23) 0.92989(6)
C34_6 C 0.4372(2) 0.47050(28) 0.82765(7)
H35_6 H 0.4397 0.5171 0.8183
C35_6 C 0.4412(2) 0.46737(27) 0.86153(7)
H36_6 H 0.4458 0.5104 0.8745
C36_6 C 0.43813(16) 0.39862(23) 0.87593(6)
C37_6 C 0.4315(2) 0.3369(3) 0.85484(7)
H37_6 H 0.4294 0.2898 0.8634
C38_6 C 0.4280(2) 0.3457(3) 0.82131(7)
H38_6 H 0.4240 0.3038 0.8076
C39_6 C 0.4547(2) 0.44099(27) 0.93470(7)
C40_6 C 0.4581(2) 0.4088(3) 0.96854(7)
H39_6 H 0.4108 0.3539 0.9711
H40_6 H 0.5074 0.4041 0.9699
C41_6 C 0.4588(2) 0.4627(4) 0.99721(9)
H42_6 H 0.4189 0.4802 0.9926
N11_6 N 0.58864(22) 0.01853(15) 0.80720(6)
N12_6 N 0.61371(20) 0.05405(14) 0.90984(5)
H54_6 H 0.6615 0.0931 0.9157
C52_6 C 0.60138(23) 0.03950(17) 0.87593(6)
C53_6 C 0.6631(3) 0.0945(2) 0.85484(7)
H57_6 H 0.7102 0.1395 0.8634
C54_6 C 0.6543(3) 0.0822(2) 0.82131(7)
H58_6 H 0.6962 0.1201 0.8076
C55_6 C 0.55901(27) 0.01367(18) 0.93470(7)
C56_6 C 0.5912(3) 0.0492(2) 0.96854(7)
H59_6 H 0.6461 0.0568 0.9711
H60_6 H 0.5959 0.1032 0.9699
N10_6 N 0.38629(20) 0.94595(14) 0.09016(5)
H44_6 H 0.3385 0.9069 0.0843
C44_6 C 0.39862(23) 0.96050(17) 0.12407(6)
C45_6 C 0.3369(3) 0.9055(2) 0.14516(7)
H47_6 H 0.2898 0.8605 0.1366
C46_6 C 0.3457(3) 0.9178(2) 0.17869(7)
H48_6 H 0.3038 0.8799 0.1924
C47_6 C 0.44099(27) 0.98633(18) 0.06530(7)
C48_6 C 0.4088(3) 0.9508(2) 0.03146(7)
H49_6 H 0.3539 0.9432 0.0289
H50_6 H 0.4041 0.8968 0.0301
H51_6 H 0.4299 0.9883 0.9827
O15_6 O 0.48959(23) 0.95472(15) 0.92989(6)
C50_6 C 0.52950(28) 0.96666(19) 0.82765(7)
H55_6 H 0.4829 0.9225 0.8183
C51_6 C 0.53263(27) 0.97379(18) 0.86153(7)
H56_6 H 0.4896 0.9353 0.8745
C57_6 C 0.5373(4) 0.9960(3) 0.99721(9)
H62_6 H 0.5198 0.9386 0.9926
O14_7 O 0.0000 0.70996(19) 0.7500
H63_6 H 0.048(3) 0.755(3) 0.7517(13)
O22_3 O 0.10613(11) 0.53993(11) 0.75468(5)
O24_3 O 0.14120(11) 0.67149(12) 0.75521(5)
O2_6 O 0.53993(11) 0.10613(11) 0.74532(5)
O3_6 O 0.67149(12) 0.14120(11) 0.74479(5)
O4_7 O 0.70992(19) -0.0000 0.7500
C9_6 C 0.61558(16) 0.15984(15) 0.74515(6)
C10_6 C 0.64107(15) 0.24934(14) 0.74533(6)
C11_6 C 0.58338(15) 0.27565(15) 0.74536(7)
H10_6 H 0.5273 0.2368 0.7454
H11_6 H 0.755(3) 0.048(3) 0.7483(13)
O6_6 O 0.56619(16) 0.46007(11) 0.74532(5)
O7_6 O 0.46970(16) 0.32851(12) 0.74479(5)
C20_6 C 0.54425(22) 0.38442(16) 0.74515(6)
C21_6 C 0.60826(21) 0.35893(15) 0.74533(6)
C22_6 C 0.69226(21) 0.41662(15) 0.74536(7)
H21_6 H 0.7094 0.4727 0.7454
O8_6 O 0.89387(11) 0.43381(16) 0.74532(5)
O9_6 O 0.85880(11) 0.53030(16) 0.74479(5)
C23_6 C 0.84016(15) 0.45575(22) 0.74515(6)
C24_6 C 0.75066(14) 0.39174(21) 0.74533(6)
C25_6 C 0.72435(15) 0.30774(21) 0.74536(7)
H22_6 H 0.7632 0.2906 0.7454
O11_6 O 0.29004(19) 0.29008(19) 0.7500
H33_6 H 0.292(4) 0.245(3) 0.7483(13)
H43_6 H 0.245(3) 0.292(4) 0.7517(13)
O14_8 O 1.0000 0.70996(19) 0.7500
H53_6 H 0.952(3) 0.708(4) 0.7483(13)
O23_3 O 0.46007(11) 0.56619(16) 0.75468(5)
O25_3 O 0.32851(12) 0.46970(16) 0.75521(5)
O4_8 O 0.70992(19) 1.0000 0.7500
H23_6 H 0.708(4) 0.952(3) 0.7517(13)
O16_6 O 0.43381(16) 0.89387(11) 0.75468(5)
O17_6 O 0.53030(16) 0.85880(11) 0.75521(5)
C58_6 C 0.45575(22) 0.84016(15) 0.75485(6)
C59_6 C 0.39174(21) 0.75066(14) 0.75467(6)
C60_6 C 0.30774(21) 0.72435(15) 0.75464(7)
H64_6 H 0.2906 0.7632 0.7546
C61_6 C 0.15984(15) 0.61558(16) 0.75485(6)
C62_6 C 0.24934(14) 0.64107(15) 0.75467(6)
C63_6 C 0.27565(15) 0.58338(15) 0.75464(7)
H65_6 H 0.2368 0.5273 0.7546
C64_6 C 0.38442(16) 0.54425(22) 0.75485(6)
C65_6 C 0.35893(15) 0.60826(21) 0.75467(6)
C66_6 C 0.41662(15) 0.69226(21) 0.75464(7)
H66_6 H 0.4727 0.7094 0.7546
loop_
_geom_bond_atom_site_label_1
_geom_bond_atom_site_label_2
_geom_bond_site_symmetry_1
_geom_bond_site_symmetry_2
O18 C61 1_555 1_555
C61 C62 1_555 1_555
C63 C62 1_555 1_555
H65 C63 1_555 1_555
Cd5 O18 1_555 1_555
O20 C64 1_555 1_555
C64 C65 1_555 1_555
Cd4 O20 1_555 1_555
H33 O11 1_555 1_555
H43 O11 1_555 1_555
H64 C60 1_555 1_555
Cd1 N1 1_555 1_555
N1 C1 1_555 1_555
N2 H1 1_555 1_555
O1 C6 1_555 1_555
O2 Cd1 1_555 1_555
O3 Cd1 1_555 1_555
O4 Cd1 1_555 1_555
C1 H2 1_555 1_555
C2 C1 1_555 1_555
H3 C2 1_555 1_555
C3 N2 1_555 1_555
C4 C3 1_555 1_555
H4 C4 1_555 1_555
C5 N1 1_555 1_555
H5 C5 1_555 1_555
C6 N2 1_555 1_555
C7 C6 1_555 1_555
H6 C7 1_555 1_555
H7 C7 1_555 1_555
C8 C7 1_555 1_555
H8 C8 1_555 1_555
H9 C8 1_555 1_555
C9 O2 1_555 1_555
C10 C9 1_555 1_555
C11 C10 1_555 1_555
H10 C11 1_555 1_555
H11 O4 1_555 1_555
N3 C12 1_555 1_555
N4 H12 1_555 1_555
O5 C17 1_555 1_555
C12 H13 1_555 1_555
C13 C12 1_555 1_555
H14 C13 1_555 1_555
C14 N4 1_555 1_555
C15 C14 1_555 1_555
H15 C15 1_555 1_555
C16 N3 1_555 1_555
H16 C16 1_555 1_555
C17 N4 1_555 1_555
C18 C17 1_555 1_555
H17 C18 1_555 1_555
H18 C18 1_555 1_555
C19 C8 1_555 1_555
H19 C19 1_555 1_555
H20 C19 1_555 1_555
O6 C20 1_555 1_555
O7 C20 1_555 1_555
C20 C21 1_555 1_555
C21 C11 1_555 1_555
C22 C21 1_555 1_555
H21 C22 1_555 1_555
O8 C23 1_555 1_555
O9 C23 1_555 1_555
C23 C24 1_555 1_555
C24 C22 1_555 1_555
C25 C10 1_555 1_555
H22 C25 1_555 1_555
H23 O4 1_555 1_555
Cd4 O6 1_555 1_555
N5 Cd4 1_555 1_555
N6 H24 1_555 1_555
O10 C31 1_555 1_555
C26 N5 1_555 1_555
H25 C26 1_555 1_555
C27 C26 1_555 1_555
H26 C27 1_555 1_555
C28 N6 1_555 1_555
C29 C28 1_555 1_555
C30 N5 1_555 1_555
C31 N6 1_555 1_555
C32 C31 1_555 1_555
H29 C32 1_555 1_555
H30 C32 1_555 1_555
C33 C32 1_555 1_555
H31 C33 1_555 1_555
H32 C33 1_555 1_555
N7 C34 1_555 1_555
N8 H34 1_555 1_555
O12 C39 1_555 1_555
C34 H35 1_555 1_555
C35 C34 1_555 1_555
H36 C35 1_555 1_555
C36 N8 1_555 1_555
C37 C36 1_555 1_555
H37 C37 1_555 1_555
C38 N7 1_555 1_555
H38 C38 1_555 1_555
C39 N8 1_555 1_555
C40 C39 1_555 1_555
H39 C40 1_555 1_555
H40 C40 1_555 1_555
C41 C33 1_555 1_555
H41 C41 1_555 1_555
H42 C41 1_555 1_555
Cd5 O8 1_555 1_555
N9 Cd5 1_555 1_555
N10 H44 1_555 1_555
O13 C47 1_555 1_555
C42 N9 1_555 1_555
H45 C42 1_555 1_555
C43 C42 1_555 1_555
H46 C43 1_555 1_555
C44 N10 1_555 1_555
C45 C44 1_555 1_555
C46 N9 1_555 1_555
C47 N10 1_555 1_555
C48 C47 1_555 1_555
H49 C48 1_555 1_555
H50 C48 1_555 1_555
C49 C48 1_555 1_555
H51 C49 1_555 1_555
H52 C49 1_555 1_555
N11 C50 1_555 1_555
N12 H54 1_555 1_555
O15 C55 1_555 1_555
C50 H55 1_555 1_555
C51 C50 1_555 1_555
H56 C51 1_555 1_555
C52 N12 1_555 1_555
C53 C52 1_555 1_555
H57 C53 1_555 1_555
C54 N11 1_555 1_555
H58 C54 1_555 1_555
C55 N12 1_555 1_555
C56 C55 1_555 1_555
H59 C56 1_555 1_555
H60 C56 1_555 1_555
C57 C49 1_555 1_555
H61 C57 1_555 1_555
H62 C57 1_555 1_555
O16 Cd1 1_555 1_555
O17 Cd1 1_555 1_555
C58 O16 1_555 1_555
C59 C58 1_555 1_555
C66 C59 1_555 1_555
H66 C66 1_555 1_555
Cd6 N11 1_555 1_555
Cd7 N7 1_555 1_555
Cd8 N3 1_555 1_555
N13 Cd5 1_555 1_555
N14 Cd4 1_555 1_555
N15 Cd1 1_555 1_555
O3 C9 1_555 1_555
C2 C3 1_555 1_555
C4 C5 1_555 1_555
C13 C14 1_555 1_555
C15 C16 1_555 1_555
C18 C19 1_555 1_555
O7 Cd4 1_555 1_555
O9 Cd5 1_555 1_555
C24 C25 1_555 1_555
C27 C28 1_555 1_555
C29 C30 1_555 1_555
C35 C36 1_555 1_555
C37 C38 1_555 1_555
C40 C41 1_555 1_555
C43 C44 1_555 1_555
C45 C46 1_555 1_555
C51 C52 1_555 1_555
C53 C54 1_555 1_555
C56 C57 1_555 1_555
O17 C58 1_555 1_555
H53 O14 1_555 1_555
H63 O14 1_555 1_555
N3_2 C12_2 1_555 1_555
C12_2 H13_2 1_555 1_555
C16_2 N3_2 1_555 1_555
H16_2 C16_2 1_555 1_555
Cd6 N3_2 1_555 1_555
N13 C1_2 1_555 1_555
N2_2 H1_2 1_555 1_555
O1_2 C6_2 1_555 1_555
C1_2 H2_2 1_555 1_555
C2_2 C1_2 1_555 1_555
H3_2 C2_2 1_555 1_555
C3_2 N2_2 1_555 1_555
C4_2 C3_2 1_555 1_555
H4_2 C4_2 1_555 1_555
C5_2 N13 1_555 1_555
H5_2 C5_2 1_555 1_555
C6_2 N2_2 1_555 1_555
C7_2 C6_2 1_555 1_555
H6_2 C7_2 1_555 1_555
H7_2 C7_2 1_555 1_555
C8_2 C7_2 1_555 1_555
H8_2 C8_2 1_555 1_555
H9_2 C8_2 1_555 1_555
N4_2 H12_2 1_555 1_555
O5_2 C17_2 1_555 1_555
H14_2 C13_2 1_555 1_555
C14_2 N4_2 1_555 1_555
C15_2 C14_2 1_555 1_555
H15_2 C15_2 1_555 1_555
C17_2 N4_2 1_555 1_555
C18_2 C17_2 1_555 1_555
H17_2 C18_2 1_555 1_555
H18_2 C18_2 1_555 1_555
C19_2 C8_2 1_555 1_555
H19_2 C19_2 1_555 1_555
H20_2 C19_2 1_555 1_555
C2_2 C3_2 1_555 1_555
C4_2 C5_2 1_555 1_555
C13_2 C14_2 1_555 1_555
C18_2 C19_2 1_555 1_555
N7_2 C34_2 1_555 1_555
C34_2 H35_2 1_555 1_555
C38_2 N7_2 1_555 1_555
Cd7 N7_2 1_555 1_555
N6_2 H24_2 1_555 1_555
O10_2 C31_2 1_555 1_555
C26_2 N14 1_555 1_555
H25_2 C26_2 1_555 1_555
C27_2 C26_2 1_555 1_555
H26_2 C27_2 1_555 1_555
C28_2 N6_2 1_555 1_555
C29_2 C28_2 1_555 1_555
H27_2 C29_2 1_555 1_555
C30_2 N14 1_555 1_555
H28_2 C30_2 1_555 1_555
C31_2 N6_2 1_555 1_555
C32_2 C31_2 1_555 1_555
H29_2 C32_2 1_555 1_555
H30_2 C32_2 1_555 1_555
C33_2 C32_2 1_555 1_555
H31_2 C33_2 1_555 1_555
H32_2 C33_2 1_555 1_555
N8_2 H34_2 1_555 1_555
O12_2 C39_2 1_555 1_555
H36_2 C35_2 1_555 1_555
C36_2 N8_2 1_555 1_555
C37_2 C36_2 1_555 1_555
C39_2 N8_2 1_555 1_555
C40_2 C39_2 1_555 1_555
H39_2 C40_2 1_555 1_555
H40_2 C40_2 1_555 1_555
C41_2 C33_2 1_555 1_555
H41_2 C41_2 1_555 1_555
H42_2 C41_2 1_555 1_555
C27_2 C28_2 1_555 1_555
C29_2 C30_2 1_555 1_555
C35_2 C36_2 1_555 1_555
C40_2 C41_2 1_555 1_555
N11_2 C50_2 1_555 1_555
C50_2 H55_2 1_555 1_555
C54_2 N11_2 1_555 1_555
Cd8 N11_2 1_555 1_555
N10_2 H44_2 1_555 1_555
O13_2 C47_2 1_555 1_555
C42_2 N15 1_555 1_555
H45_2 C42_2 1_555 1_555
C43_2 C42_2 1_555 1_555
H46_2 C43_2 1_555 1_555
C44_2 N10_2 1_555 1_555
C45_2 C44_2 1_555 1_555
H47_2 C45_2 1_555 1_555
C46_2 N15 1_555 1_555
H48_2 C46_2 1_555 1_555
C47_2 N10_2 1_555 1_555
C48_2 C47_2 1_555 1_555
H49_2 C48_2 1_555 1_555
H50_2 C48_2 1_555 1_555
C49_2 C48_2 1_555 1_555
H51_2 C49_2 1_555 1_555
H52_2 C49_2 1_555 1_555
N12_2 H54_2 1_555 1_555
O15_2 C55_2 1_555 1_555
H56_2 C51_2 1_555 1_555
C52_2 N12_2 1_555 1_555
C53_2 C52_2 1_555 1_555
C55_2 N12_2 1_555 1_555
C56_2 C55_2 1_555 1_555
H59_2 C56_2 1_555 1_555
H60_2 C56_2 1_555 1_555
C57_2 C49_2 1_555 1_555
H61_2 C57_2 1_555 1_555
H62_2 C57_2 1_555 1_555
C43_2 C44_2 1_555 1_555
C45_2 C46_2 1_555 1_555
C51_2 C52_2 1_555 1_555
C56_2 C57_2 1_555 1_555
H53_2 O14_2 1_555 1_555
H63_2 O14_2 1_555 1_555
O2_2 Cd6 1_555 1_555
O3_2 Cd6 1_555 1_555
O4_2 Cd6 1_555 1_555
C9_2 O2_2 1_555 1_555
C10_2 C9_2 1_555 1_555
C11_2 C10_2 1_555 1_555
H10_2 C11_2 1_555 1_555
H11_2 O4_2 1_555 1_555
O6_2 C20_2 1_555 1_555
O7_2 C20_2 1_555 1_555
C20_2 C21_2 1_555 1_555
C21_2 C11_2 1_555 1_555
C22_2 C21_2 1_555 1_555
H21_2 C22_2 1_555 1_555
O8_2 C23_2 1_555 1_555
O9_2 C23_2 1_555 1_555
C23_2 C24_2 1_555 1_555
C24_2 C22_2 1_555 1_555
C25_2 C10_2 1_555 1_555
H22_2 C25_2 1_555 1_555
H23_2 O4_2 1_555 1_555
Cd7 O6_2 1_555 1_555
Cd8 O8_2 1_555 1_555
O16_2 Cd6 1_555 1_555
O17_2 Cd6 1_555 1_555
C58_2 O16_2 1_555 1_555
C59_2 C58_2 1_555 1_555
C66_2 C59_2 1_555 1_555
H66_2 C66_2 1_555 1_555
O22 Cd8 1_555 1_555
O23 Cd7 1_555 1_555
O3_2 C9_2 1_555 1_555
O7_2 Cd7 1_555 1_555
O9_2 Cd8 1_555 1_555
C24_2 C25_2 1_555 1_555
O17_2 C58_2 1_555 1_555
O23 C64_2 1_555 1_555
C64_2 C65_2 1_555 1_555
H33_2 O11_2 1_555 1_555
H43_2 O11_2 1_555 1_555
H64_2 C60_2 1_555 1_555
O22 C61_2 1_555 1_555
C61_2 C62_2 1_555 1_555
C63_2 C62_2 1_555 1_555
H65_2 C63_2 1_555 1_555
O18_2 C61_3 1_555 1_555
C61_3 C62_3 1_555 1_555
C63_3 C62_3 1_555 1_555
H65_3 C63_3 1_555 1_555
Cd5_2 O18_2 1_555 1_555
H33_3 O11_3 1_555 1_555
H43_3 O11_3 1_555 1_555
H64_3 C60_3 1_555 1_555
O20_2 C64_3 1_555 1_555
C64_3 C65_3 1_555 1_555
Cd4_2 O20_2 1_555 1_555
N2_3 H1_3 1_555 1_555
O1_3 C6_3 1_555 1_555
H3_3 C2_3 1_555 1_555
C3_3 N2_3 1_555 1_555
C4_3 C3_3 1_555 1_555
H4_3 C4_3 1_555 1_555
C6_3 N2_3 1_555 1_555
C7_3 C6_3 1_555 1_555
H6_3 C7_3 1_555 1_555
H7_3 C7_3 1_555 1_555
C8_3 C7_3 1_555 1_555
H8_3 C8_3 1_555 1_555
H9_3 C8_3 1_555 1_555
N3_3 C12_3 1_555 1_555
N4_3 H12_3 1_555 1_555
O5_3 C17_3 1_555 1_555
C12_3 H13_3 1_555 1_555
C13_3 C12_3 1_555 1_555
H14_3 C13_3 1_555 1_555
C14_3 N4_3 1_555 1_555
C15_3 C14_3 1_555 1_555
H15_3 C15_3 1_555 1_555
C16_3 N3_3 1_555 1_555
H16_3 C16_3 1_555 1_555
C17_3 N4_3 1_555 1_555
C18_3 C17_3 1_555 1_555
H17_3 C18_3 1_555 1_555
H18_3 C18_3 1_555 1_555
C19_3 C8_3 1_555 1_555
H19_3 C19_3 1_555 1_555
H20_3 C19_3 1_555 1_555
N6_3 H24_3 1_555 1_555
O10_3 C31_3 1_555 1_555
H26_3 C27_3 1_555 1_555
C28_3 N6_3 1_555 1_555
C29_3 C28_3 1_555 1_555
C31_3 N6_3 1_555 1_555
C32_3 C31_3 1_555 1_555
H29_3 C32_3 1_555 1_555
H30_3 C32_3 1_555 1_555
C33_3 C32_3 1_555 1_555
H31_3 C33_3 1_555 1_555
H32_3 C33_3 1_555 1_555
N7_3 C34_3 1_555 1_555
N8_3 H34_3 1_555 1_555
O12_3 C39_3 1_555 1_555
C34_3 H35_3 1_555 1_555
C35_3 C34_3 1_555 1_555
H36_3 C35_3 1_555 1_555
C36_3 N8_3 1_555 1_555
C37_3 C36_3 1_555 1_555
H37_3 C37_3 1_555 1_555
C38_3 N7_3 1_555 1_555
H38_3 C38_3 1_555 1_555
C39_3 N8_3 1_555 1_555
C40_3 C39_3 1_555 1_555
H39_3 C40_3 1_555 1_555
H40_3 C40_3 1_555 1_555
C41_3 C33_3 1_555 1_555
H41_3 C41_3 1_555 1_555
H42_3 C41_3 1_555 1_555
N10_3 H44_3 1_555 1_555
O13_3 C47_3 1_555 1_555
H46_3 C43_3 1_555 1_555
C44_3 N10_3 1_555 1_555
C45_3 C44_3 1_555 1_555
C47_3 N10_3 1_555 1_555
C48_3 C47_3 1_555 1_555
H49_3 C48_3 1_555 1_555
H50_3 C48_3 1_555 1_555
C49_3 C48_3 1_555 1_555
H51_3 C49_3 1_555 1_555
H52_3 C49_3 1_555 1_555
N11_3 C50_3 1_555 1_555
N12_3 H54_3 1_555 1_555
O15_3 C55_3 1_555 1_555
C50_3 H55_3 1_555 1_555
C51_3 C50_3 1_555 1_555
H56_3 C51_3 1_555 1_555
C52_3 N12_3 1_555 1_555
C53_3 C52_3 1_555 1_555
H57_3 C53_3 1_555 1_555
C54_3 N11_3 1_555 1_555
H58_3 C54_3 1_555 1_555
C55_3 N12_3 1_555 1_555
C56_3 C55_3 1_555 1_555
H59_3 C56_3 1_555 1_555
H60_3 C56_3 1_555 1_555
C57_3 C49_3 1_555 1_555
H61_3 C57_3 1_555 1_555
H62_3 C57_3 1_555 1_555
Cd6_2 N11_3 1_555 1_555
Cd7_2 N7_3 1_555 1_555
Cd8_2 N3_3 1_555 1_555
C2_3 C3_3 1_555 1_555
C13_3 C14_3 1_555 1_555
C15_3 C16_3 1_555 1_555
C18_3 C19_3 1_555 1_555
C27_3 C28_3 1_555 1_555
C35_3 C36_3 1_555 1_555
C37_3 C38_3 1_555 1_555
C40_3 C41_3 1_555 1_555
C43_3 C44_3 1_555 1_555
C51_3 C52_3 1_555 1_555
C53_3 C54_3 1_555 1_555
C56_3 C57_3 1_555 1_555
Cd1_2 N1_2 1_555 1_555
N1_2 C1_3 1_555 1_555
O2_3 Cd1_2 1_555 1_555
O3_3 Cd1_2 1_555 1_555
O4_3 Cd1_2 1_555 1_555
C1_3 H2_3 1_555 1_555
C5_3 N1_2 1_555 1_555
H5_3 C5_3 1_555 1_555
C9_3 O2_3 1_555 1_555
C10_3 C9_3 1_555 1_555
C11_3 C10_3 1_555 1_555
H10_3 C11_3 1_555 1_555
H11_3 O4_3 1_555 1_555
O6_3 C20_3 1_555 1_555
O7_3 C20_3 1_555 1_555
C20_3 C21_3 1_555 1_555
C21_3 C11_3 1_555 1_555
C22_3 C21_3 1_555 1_555
H21_3 C22_3 1_555 1_555
O8_3 C23_3 1_555 1_555
O9_3 C23_3 1_555 1_555
C23_3 C24_3 1_555 1_555
C24_3 C22_3 1_555 1_555
C25_3 C10_3 1_555 1_555
H22_3 C25_3 1_555 1_555
H23_3 O4_3 1_555 1_555
Cd4_2 O6_3 1_555 1_555
N5_2 Cd4_2 1_555 1_555
C26_3 N5_2 1_555 1_555
H25_3 C26_3 1_555 1_555
C30_3 N5_2 1_555 1_555
Cd5_2 O8_3 1_555 1_555
N9_2 Cd5_2 1_555 1_555
C42_3 N9_2 1_555 1_555
H45_3 C42_3 1_555 1_555
C46_3 N9_2 1_555 1_555
O16_3 Cd1_2 1_555 1_555
O17_3 Cd1_2 1_555 1_555
C58_3 O16_3 1_555 1_555
C59_3 C58_3 1_555 1_555
C66_3 C59_3 1_555 1_555
H66_3 C66_3 1_555 1_555
N13_2 Cd5_2 1_555 1_555
N14_2 Cd4_2 1_555 1_555
N15_2 Cd1_2 1_555 1_555
O3_3 C9_3 1_555 1_555
O7_3 Cd4_2 1_555 1_555
O9_3 Cd5_2 1_555 1_555
C24_3 C25_3 1_555 1_555
O17_3 C58_3 1_555 1_555
H53_3 O14_3 1_555 1_555
H63_3 O14_3 1_555 1_555
N13_2 C1_4 1_555 1_555
N2_4 H1_4 1_555 1_555
O1_4 C6_4 1_555 1_555
C1_4 H2_4 1_555 1_555
C2_4 C1_4 1_555 1_555
H3_4 C2_4 1_555 1_555
C3_4 N2_4 1_555 1_555
C4_4 C3_4 1_555 1_555
H4_4 C4_4 1_555 1_555
C5_4 N13_2 1_555 1_555
H5_4 C5_4 1_555 1_555
C6_4 N2_4 1_555 1_555
C7_4 C6_4 1_555 1_555
H6_4 C7_4 1_555 1_555
H7_4 C7_4 1_555 1_555
C8_4 C7_4 1_555 1_555
H8_4 C8_4 1_555 1_555
H9_4 C8_4 1_555 1_555
N3_4 C12_4 1_555 1_555
N4_4 H12_4 1_555 1_555
O5_4 C17_4 1_555 1_555
C12_4 H13_4 1_555 1_555
C13_4 C12_4 1_555 1_555
H14_4 C13_4 1_555 1_555
C14_4 N4_4 1_555 1_555
C15_4 C14_4 1_555 1_555
H15_4 C15_4 1_555 1_555
C16_4 N3_4 1_555 1_555
H16_4 C16_4 1_555 1_555
C17_4 N4_4 1_555 1_555
C18_4 C17_4 1_555 1_555
H17_4 C18_4 1_555 1_555
H18_4 C18_4 1_555 1_555
C19_4 C8_4 1_555 1_555
H19_4 C19_4 1_555 1_555
H20_4 C19_4 1_555 1_555
Cd6_2 N3_4 1_555 1_555
C2_4 C3_4 1_555 1_555
C4_4 C5_4 1_555 1_555
C13_4 C14_4 1_555 1_555
C15_4 C16_4 1_555 1_555
C18_4 C19_4 1_555 1_555
N6_4 H24_4 1_555 1_555
O10_4 C31_4 1_555 1_555
C26_4 N14_2 1_555 1_555
H25_4 C26_4 1_555 1_555
C27_4 C26_4 1_555 1_555
H26_4 C27_4 1_555 1_555
C28_4 N6_4 1_555 1_555
C29_4 C28_4 1_555 1_555
H27_4 C29_4 1_555 1_555
C30_4 N14_2 1_555 1_555
H28_4 C30_4 1_555 1_555
C31_4 N6_4 1_555 1_555
C32_4 C31_4 1_555 1_555
H29_4 C32_4 1_555 1_555
H30_4 C32_4 1_555 1_555
C33_4 C32_4 1_555 1_555
H31_4 C33_4 1_555 1_555
H32_4 C33_4 1_555 1_555
N7_4 C34_4 1_555 1_555
N8_4 H34_4 1_555 1_555
O12_4 C39_4 1_555 1_555
C34_4 H35_4 1_555 1_555
C35_4 C34_4 1_555 1_555
H36_4 C35_4 1_555 1_555
C36_4 N8_4 1_555 1_555
C37_4 C36_4 1_555 1_555
C38_4 N7_4 1_555 1_555
C39_4 N8_4 1_555 1_555
C40_4 C39_4 1_555 1_555
H39_4 C40_4 1_555 1_555
H40_4 C40_4 1_555 1_555
C41_4 C33_4 1_555 1_555
H41_4 C41_4 1_555 1_555
H42_4 C41_4 1_555 1_555
Cd7_2 N7_4 1_555 1_555
C27_4 C28_4 1_555 1_555
C29_4 C30_4 1_555 1_555
C35_4 C36_4 1_555 1_555
C37_4 C38_4 1_555 1_555
C40_4 C41_4 1_555 1_555
N10_4 H44_4 1_555 1_555
O13_4 C47_4 1_555 1_555
C42_4 N15_2 1_555 1_555
H45_4 C42_4 1_555 1_555
C43_4 C42_4 1_555 1_555
H46_4 C43_4 1_555 1_555
C44_4 N10_4 1_555 1_555
C45_4 C44_4 1_555 1_555
H47_4 C45_4 1_555 1_555
C46_4 N15_2 1_555 1_555
H48_4 C46_4 1_555 1_555
C47_4 N10_4 1_555 1_555
C48_4 C47_4 1_555 1_555
H49_4 C48_4 1_555 1_555
H50_4 C48_4 1_555 1_555
C49_4 C48_4 1_555 1_555
H51_4 C49_4 1_555 1_555
H52_4 C49_4 1_555 1_555
N11_4 C50_4 1_555 1_555
N12_4 H54_4 1_555 1_555
O15_4 C55_4 1_555 1_555
C50_4 H55_4 1_555 1_555
C51_4 C50_4 1_555 1_555
H56_4 C51_4 1_555 1_555
C52_4 N12_4 1_555 1_555
C53_4 C52_4 1_555 1_555
C54_4 N11_4 1_555 1_555
C55_4 N12_4 1_555 1_555
C56_4 C55_4 1_555 1_555
H59_4 C56_4 1_555 1_555
H60_4 C56_4 1_555 1_555
C57_4 C49_4 1_555 1_555
H61_4 C57_4 1_555 1_555
H62_4 C57_4 1_555 1_555
Cd8_2 N11_4 1_555 1_555
C43_4 C44_4 1_555 1_555
C45_4 C46_4 1_555 1_555
C51_4 C52_4 1_555 1_555
C53_4 C54_4 1_555 1_555
C56_4 C57_4 1_555 1_555
H53_4 O14_4 1_555 1_555
H63_4 O14_4 1_555 1_555
O2_4 Cd6_2 1_555 1_555
O3_4 Cd6_2 1_555 1_555
O4_4 Cd6_2 1_555 1_555
C9_4 O2_4 1_555 1_555
C10_4 C9_4 1_555 1_555
C11_4 C10_4 1_555 1_555
H10_4 C11_4 1_555 1_555
H11_4 O4_4 1_555 1_555
O6_4 C20_4 1_555 1_555
O7_4 C20_4 1_555 1_555
C20_4 C21_4 1_555 1_555
C21_4 C11_4 1_555 1_555
C22_4 C21_4 1_555 1_555
H21_4 C22_4 1_555 1_555
O8_4 C23_4 1_555 1_555
O9_4 C23_4 1_555 1_555
C23_4 C24_4 1_555 1_555
C24_4 C22_4 1_555 1_555
C25_4 C10_4 1_555 1_555
H22_4 C25_4 1_555 1_555
H23_4 O4_4 1_555 1_555
Cd7_2 O6_4 1_555 1_555
Cd8_2 O8_4 1_555 1_555
O16_4 Cd6_2 1_555 1_555
O17_4 Cd6_2 1_555 1_555
C58_4 O16_4 1_555 1_555
C59_4 C58_4 1_555 1_555
C66_4 C59_4 1_555 1_555
H66_4 C66_4 1_555 1_555
O22_2 Cd8_2 1_555 1_555
O23_2 Cd7_2 1_555 1_555
O3_4 C9_4 1_555 1_555
O7_4 Cd7_2 1_555 1_555
O9_4 Cd8_2 1_555 1_555
C24_4 C25_4 1_555 1_555
O17_4 C58_4 1_555 1_555
H33_4 O11_4 1_555 1_555
H43_4 O11_4 1_555 1_555
H64_4 C60_4 1_555 1_555
O23_2 C64_4 1_555 1_555
C64_4 C65_4 1_555 1_555
O22_2 C61_4 1_555 1_555
C61_4 C62_4 1_555 1_555
C63_4 C62_4 1_555 1_555
H65_4 C63_4 1_555 1_555
Cd1_3 N1_3 1_555 1_555
N2_5 H1_5 1_555 1_555
O4_5 Cd1_3 1_555 1_555
C3_5 N2_5 1_555 1_555
C4_5 C3_5 1_555 1_555
H4_5 C4_5 1_555 1_555
C5_5 N1_3 1_555 1_555
H5_5 C5_5 1_555 1_555
C6_5 N2_5 1_555 1_555
C7_5 C6_5 1_555 1_555
H6_5 C7_5 1_555 1_555
H7_5 C7_5 1_555 1_555
C12_5 H13_5 1_555 1_555
C13_5 C12_5 1_555 1_555
H14_5 C13_5 1_555 1_555
H20_5 C19_5 1_555 1_555
H23_5 O4_5 1_555 1_555
O16_5 Cd1_3 1_555 1_555
O17_5 Cd1_3 1_555 1_555
C58_5 O16_5 1_555 1_555
C59_5 C58_5 1_555 1_555
C60_5 C59_5 1_555 1_555
H64_5 C60_5 1_555 1_555
O18_3 C61_5 1_555 1_555
O19_3 C61_5 1_555 1_555
C61_5 C62_5 1_555 1_555
C62_5 C60_5 1_555 1_555
C63_5 C62_5 1_555 1_555
H65_5 C63_5 1_555 1_555
O20_3 C64_5 1_555 1_555
O21_3 C64_5 1_555 1_555
C64_5 C65_5 1_555 1_555
C65_5 C63_5 1_555 1_555
C66_5 C59_5 1_555 1_555
H66_5 C66_5 1_555 1_555
Cd4_3 O20_3 1_555 1_555
Cd5_4 O18_3 1_555 1_555
C4_5 C5_5 1_555 1_555
O17_5 C58_5 1_555 1_555
O19_3 Cd5_4 1_555 1_555
O21_3 Cd4_3 1_555 1_555
C65_5 C66_5 1_555 1_555
O2_5 Cd1_4 1_555 1_555
O3_5 Cd1_4 1_555 1_555
O4_6 Cd1_4 1_555 1_555
C1_5 H2_5 1_555 1_555
C2_5 C1_5 1_555 1_555
H3_5 C2_5 1_555 1_555
H9_5 C8_5 1_555 1_555
C9_5 O2_5 1_555 1_555
C10_5 C9_5 1_555 1_555
C11_5 C10_5 1_555 1_555
H10_5 C11_5 1_555 1_555
H11_5 O4_6 1_555 1_555
N4_5 H12_5 1_555 1_555
C14_5 N4_5 1_555 1_555
C15_5 C14_5 1_555 1_555
H15_5 C15_5 1_555 1_555
C16_5 N3_5 1_555 1_555
H16_5 C16_5 1_555 1_555
C17_5 N4_5 1_555 1_555
C18_5 C17_5 1_555 1_555
H17_5 C18_5 1_555 1_555
H18_5 C18_5 1_555 1_555
O6_5 C20_5 1_555 1_555
O7_5 C20_5 1_555 1_555
C20_5 C21_5 1_555 1_555
C21_5 C11_5 1_555 1_555
C22_5 C21_5 1_555 1_555
H21_5 C22_5 1_555 1_555
O8_5 C23_5 1_555 1_555
O9_5 C23_5 1_555 1_555
C23_5 C24_5 1_555 1_555
C24_5 C22_5 1_555 1_555
C25_5 C10_5 1_555 1_555
H22_5 C25_5 1_555 1_555
Cd4_3 O6_5 1_555 1_555
N5_3 Cd4_3 1_555 1_555
N6_5 H24_5 1_555 1_555
O10_5 C31_5 1_555 1_555
O11_5 Cd4_3 1_555 1_555
C26_5 N5_3 1_555 1_555
H25_5 C26_5 1_555 1_555
C27_5 C26_5 1_555 1_555
H26_5 C27_5 1_555 1_555
C28_5 N6_5 1_555 1_555
C29_5 C28_5 1_555 1_555
H27_5 C29_5 1_555 1_555
C30_5 N5_3 1_555 1_555
H28_5 C30_5 1_555 1_555
C31_5 N6_5 1_555 1_555
C32_5 C31_5 1_555 1_555
H29_5 C32_5 1_555 1_555
H30_5 C32_5 1_555 1_555
C33_5 C32_5 1_555 1_555
H31_5 C33_5 1_555 1_555
H32_5 C33_5 1_555 1_555
H33_5 O11_5 1_555 1_555
N7_5 C34_5 1_555 1_555
N8_5 H34_5 1_555 1_555
O12_5 C39_5 1_555 1_555
C34_5 H35_5 1_555 1_555
C35_5 C34_5 1_555 1_555
H36_5 C35_5 1_555 1_555
C36_5 N8_5 1_555 1_555
C37_5 C36_5 1_555 1_555
H37_5 C37_5 1_555 1_555
C38_5 N7_5 1_555 1_555
H38_5 C38_5 1_555 1_555
C39_5 N8_5 1_555 1_555
C40_5 C39_5 1_555 1_555
H39_5 C40_5 1_555 1_555
H40_5 C40_5 1_555 1_555
C41_5 C33_5 1_555 1_555
H41_5 C41_5 1_555 1_555
H42_5 C41_5 1_555 1_555
H43_5 O11_5 1_555 1_555
Cd5_3 O8_5 1_555 1_555
O14_5 Cd5_3 1_555 1_555
H45_5 C42_5 1_555 1_555
C43_5 C42_5 1_555 1_555
H46_5 C43_5 1_555 1_555
H52_5 C49_5 1_555 1_555
H53_5 O14_5 1_555 1_555
N12_5 H54_5 1_555 1_555
C52_5 N12_5 1_555 1_555
C53_5 C52_5 1_555 1_555
H57_5 C53_5 1_555 1_555
C54_5 N11_5 1_555 1_555
H58_5 C54_5 1_555 1_555
C55_5 N12_5 1_555 1_555
C56_5 C55_5 1_555 1_555
H59_5 C56_5 1_555 1_555
H60_5 C56_5 1_555 1_555
Cd6_3 N11_5 1_555 1_555
Cd7_3 N7_5 1_555 1_555
Cd8_4 N3_5 1_555 1_555
N13_3 Cd5_3 1_555 1_555
N14_3 Cd4_3 1_555 1_555
N15_3 Cd1_4 1_555 1_555
O3_5 C9_5 1_555 1_555
C15_5 C16_5 1_555 1_555
O7_5 Cd4_3 1_555 1_555
O9_5 Cd5_3 1_555 1_555
C24_5 C25_5 1_555 1_555
C27_5 C28_5 1_555 1_555
C29_5 C30_5 1_555 1_555
C35_5 C36_5 1_555 1_555
C37_5 C38_5 1_555 1_555
C40_5 C41_5 1_555 1_555
C53_5 C54_5 1_555 1_555
N9_3 Cd5_4 1_555 1_555
N10_5 H44_5 1_555 1_555
O14_6 Cd5_4 1_555 1_555
C44_5 N10_5 1_555 1_555
C45_5 C44_5 1_555 1_555
H47_5 C45_5 1_555 1_555
C46_5 N9_3 1_555 1_555
H48_5 C46_5 1_555 1_555
C47_5 N10_5 1_555 1_555
C48_5 C47_5 1_555 1_555
H49_5 C48_5 1_555 1_555
H50_5 C48_5 1_555 1_555
C50_5 H55_5 1_555 1_555
C51_5 C50_5 1_555 1_555
H56_5 C51_5 1_555 1_555
H62_5 C57_5 1_555 1_555
H63_5 O14_6 1_555 1_555
C45_5 C46_5 1_555 1_555
N2_6 H1_6 1_555 1_555
C3_6 N2_6 1_555 1_555
C4_6 C3_6 1_555 1_555
H4_6 C4_6 1_555 1_555
C5_6 N13_3 1_555 1_555
H5_6 C5_6 1_555 1_555
C6_6 N2_6 1_555 1_555
C7_6 C6_6 1_555 1_555
H6_6 C7_6 1_555 1_555
H7_6 C7_6 1_555 1_555
C4_6 C5_6 1_555 1_555
C12_6 H13_6 1_555 1_555
C13_6 C12_6 1_555 1_555
H14_6 C13_6 1_555 1_555
H20_6 C19_6 1_555 1_555
C1_6 H2_6 1_555 1_555
C2_6 C1_6 1_555 1_555
H3_6 C2_6 1_555 1_555
H9_6 C8_6 1_555 1_555
N6_6 H24_6 1_555 1_555
O10_6 C31_6 1_555 1_555
C26_6 N14_3 1_555 1_555
H25_6 C26_6 1_555 1_555
C27_6 C26_6 1_555 1_555
H26_6 C27_6 1_555 1_555
C28_6 N6_6 1_555 1_555
C29_6 C28_6 1_555 1_555
H27_6 C29_6 1_555 1_555
C30_6 N14_3 1_555 1_555
H28_6 C30_6 1_555 1_555
C31_6 N6_6 1_555 1_555
C32_6 C31_6 1_555 1_555
H29_6 C32_6 1_555 1_555
H30_6 C32_6 1_555 1_555
C33_6 C32_6 1_555 1_555
H32_6 C33_6 1_555 1_555
H45_6 C42_6 1_555 1_555
C43_6 C42_6 1_555 1_555
H46_6 C43_6 1_555 1_555
H52_6 C49_6 1_555 1_555
C27_6 C28_6 1_555 1_555
C29_6 C30_6 1_555 1_555
N4_6 H12_6 1_555 1_555
C14_6 N4_6 1_555 1_555
C15_6 C14_6 1_555 1_555
H15_6 C15_6 1_555 1_555
C16_6 N3_6 1_555 1_555
H16_6 C16_6 1_555 1_555
C17_6 N4_6 1_555 1_555
C18_6 C17_6 1_555 1_555
H17_6 C18_6 1_555 1_555
H18_6 C18_6 1_555 1_555
N7_6 C34_6 1_555 1_555
N8_6 H34_6 1_555 1_555
O12_6 C39_6 1_555 1_555
C34_6 H35_6 1_555 1_555
C35_6 C34_6 1_555 1_555
H36_6 C35_6 1_555 1_555
C36_6 N8_6 1_555 1_555
C37_6 C36_6 1_555 1_555
H37_6 C37_6 1_555 1_555
C38_6 N7_6 1_555 1_555
H38_6 C38_6 1_555 1_555
C39_6 N8_6 1_555 1_555
C40_6 C39_6 1_555 1_555
H39_6 C40_6 1_555 1_555
H40_6 C40_6 1_555 1_555
H42_6 C41_6 1_555 1_555
N12_6 H54_6 1_555 1_555
C52_6 N12_6 1_555 1_555
C53_6 C52_6 1_555 1_555
H57_6 C53_6 1_555 1_555
C54_6 N11_6 1_555 1_555
H58_6 C54_6 1_555 1_555
C55_6 N12_6 1_555 1_555
C56_6 C55_6 1_555 1_555
H59_6 C56_6 1_555 1_555
H60_6 C56_6 1_555 1_555
Cd8_3 N11_6 1_555 1_555
Cd7_3 N7_6 1_555 1_555
Cd6_4 N3_6 1_555 1_555
C15_6 C16_6 1_555 1_555
C35_6 C36_6 1_555 1_555
C37_6 C38_6 1_555 1_555
C40_6 C41_6 1_555 1_555
C53_6 C54_6 1_555 1_555
N10_6 H44_6 1_555 1_555
C44_6 N10_6 1_555 1_555
C45_6 C44_6 1_555 1_555
H47_6 C45_6 1_555 1_555
C46_6 N15_3 1_555 1_555
H48_6 C46_6 1_555 1_555
C47_6 N10_6 1_555 1_555
C48_6 C47_6 1_555 1_555
H49_6 C48_6 1_555 1_555
H50_6 C48_6 1_555 1_555
C45_6 C46_6 1_555 1_555
C50_6 H55_6 1_555 1_555
C51_6 C50_6 1_555 1_555
H56_6 C51_6 1_555 1_555
H62_6 C57_6 1_555 1_555
O14_7 Cd6_3 1_555 1_555
H63_6 O14_7 1_555 1_555
O22_3 Cd6_3 1_555 1_555
O24_3 Cd6_3 1_555 1_555
O2_6 Cd8_3 1_555 1_555
O3_6 Cd8_3 1_555 1_555
O4_7 Cd8_3 1_555 1_555
C9_6 O2_6 1_555 1_555
C10_6 C9_6 1_555 1_555
C11_6 C10_6 1_555 1_555
H10_6 C11_6 1_555 1_555
H11_6 O4_7 1_555 1_555
O6_6 C20_6 1_555 1_555
O7_6 C20_6 1_555 1_555
C20_6 C21_6 1_555 1_555
C21_6 C11_6 1_555 1_555
C22_6 C21_6 1_555 1_555
H21_6 C22_6 1_555 1_555
O8_6 C23_6 1_555 1_555
O9_6 C23_6 1_555 1_555
C23_6 C24_6 1_555 1_555
C24_6 C22_6 1_555 1_555
C25_6 C10_6 1_555 1_555
H22_6 C25_6 1_555 1_555
Cd7_3 O6_6 1_555 1_555
O11_6 Cd7_3 1_555 1_555
H33_6 O11_6 1_555 1_555
H43_6 O11_6 1_555 1_555
Cd6_4 O8_6 1_555 1_555
O14_8 Cd6_4 1_555 1_555
H53_6 O14_8 1_555 1_555
O23_3 Cd7_3 1_555 1_555
O25_3 Cd7_3 1_555 1_555
O3_6 C9_6 1_555 1_555
O7_6 Cd7_3 1_555 1_555
O9_6 Cd6_4 1_555 1_555
C24_6 C25_6 1_555 1_555
O4_8 Cd8_4 1_555 1_555
H23_6 O4_8 1_555 1_555
O16_6 Cd8_4 1_555 1_555
O17_6 Cd8_4 1_555 1_555
C58_6 O16_6 1_555 1_555
C59_6 C58_6 1_555 1_555
C60_6 C59_6 1_555 1_555
H64_6 C60_6 1_555 1_555
O22_3 C61_6 1_555 1_555
O24_3 C61_6 1_555 1_555
C61_6 C62_6 1_555 1_555
C62_6 C60_6 1_555 1_555
C63_6 C62_6 1_555 1_555
H65_6 C63_6 1_555 1_555
O23_3 C64_6 1_555 1_555
O25_3 C64_6 1_555 1_555
C64_6 C65_6 1_555 1_555
C65_6 C63_6 1_555 1_555
C66_6 C59_6 1_555 1_555
H66_6 C66_6 1_555 1_555
O17_6 C58_6 1_555 1_555
C65_6 C66_6 1_555 1_555

#END
