
###############################################################################
#
# This file contains modified crystal structure data generated from the
# MOF subset of the Cambridge Structural Database (CSD) v543 
# hosted by the Cambridge Crystallographic Data Centre (CCDC).
#
# This work is licensed under the Creative Commons
# Attribution-NonCommercial-ShareAlike 4.0 International License.
# To view a copy of this license, visit
# http://creativecommons.org/licenses/by-nc-sa/4.0/
# or send a letter to
# Creative Commons, PO Box 1866, Mountain View, CA 94042, USA.
#
# CIF created using the CSD Python API on 29 September 2022
# The structure has been converted into the P1 space group
# The structure has a 3D framework
# The original CSD entry LUPCOQ is in the monoclinic crystal system
# The framework has been calculated to contain at least 10.0% void space
# The void calculation uses a probe of radius 1.32A, grid spacing 0.4
#
###############################################################################

data_LUPCOQ
_chemical_formula_moiety         '(C96 H56 Cl16 N16 O38 Zn8)n'
_symmetry_cell_setting           triclinic
_symmetry_space_group_name_H-M   'P 1'
_symmetry_Int_Tables_number      1
_space_group_name_Hall           'P 1'
loop_
_symmetry_equiv_pos_site_id
_symmetry_equiv_pos_as_xyz
1 x,y,z
_cell_length_a                   14.8972(5)
_cell_length_b                   16.8530(4)
_cell_length_c                   14.5964(5)
_cell_angle_alpha                90
_cell_angle_beta                 119.614(5)
_cell_angle_gamma                90
_cell_volume                     3185.92
loop_
_atom_site_label
_atom_site_type_symbol
_atom_site_fract_x
_atom_site_fract_y
_atom_site_fract_z
Zn1 Zn 0.40533(3) 0.12229(2) 0.29006(3)
N2 N 0.78017(19) 0.29172(15) 0.7410(2)
O1 O 0.33172(15) 0.07818(13) 0.13640(16)
O2 O 0.47658(15) 0.03702(13) 0.13967(17)
O3 O 0.48605(17) 0.17723(14) 0.44656(17)
O4 O 0.5899(2) 0.26319(15) 0.42656(19)
O5 O 0.5000 0.19262(17) 0.2500
H1 H 0.5290 0.2198 0.3064
C1 C 0.3816(2) 0.04924(17) 0.0953(2)
C7 C 0.5624(2) 0.22364(18) 0.4807(2)
C8 C 0.6298(2) 0.23106(18) 0.5990(2)
C9 C 0.6111(2) 0.1901(2) 0.6695(3)
H5 H 0.5549 0.1561 0.6464
C10 C 0.6786(3) 0.2013(2) 0.7758(3)
C11 C 0.7617(3) 0.25293(19) 0.8096(3)
H6 H 0.8052 0.2606 0.8815
C12 C 0.7157(2) 0.28051(19) 0.6379(2)
H7 H 0.7290 0.3070 0.5900
Cl2 Cl 0.66130(8) 0.15075(7) 0.87079(8)
H8 H 0.4710 0.2198 0.1936
Zn2 Zn 0.59467(3) 0.12229(2) 0.20994(3)
O6 O 0.66828(15) 0.07818(13) 0.36360(16)
O7 O 0.52342(15) 0.03702(13) 0.36033(17)
O8 O 0.51395(17) 0.17723(14) 0.05344(17)
O9 O 0.4101(2) 0.26319(15) 0.07344(19)
C13 C 0.6184(2) 0.04924(17) 0.4047(2)
C14 C 0.6776(2) 0.02913(18) 0.5208(2)
C15 C 0.7662(2) 0.06873(18) 0.5916(2)
H9 H 0.7983 0.1048 0.5689
C16 C 0.8053(2) 0.05270(19) 0.6972(2)
C19 C 0.4376(2) 0.22364(18) 0.0193(2)
Cl3 Cl 0.91189(6) 0.10563(6) 0.79348(6)
Zn6 Zn 0.90533(3) 0.37771(2) 0.79006(3)
N5 N 0.67578(18) 0.04368(15) 0.16101(19)
N6 N 0.32422(18) 0.04368(15) 0.33899(19)
N7 N 0.71983(19) 0.20828(15) 0.2590(2)
N8 N 0.28017(19) 0.20828(15) 0.2410(2)
C2 C 0.3224(2) 0.02913(18) 0.9792(2)
C3 C 0.2338(2) 0.06873(18) 0.9084(2)
H2 H 0.2017 0.1048 0.9311
C4 C 0.1947(2) 0.05270(19) 0.8028(2)
Cl1 Cl 0.08811(6) 0.10563(6) 0.70652(6)
N4 N 0.21983(19) 0.29172(15) 0.7590(2)
C20 C 0.3702(2) 0.23106(18) 0.9010(2)
C21 C 0.3889(2) 0.1901(2) 0.8305(3)
H12 H 0.4451 0.1561 0.8536
C22 C 0.3214(3) 0.2013(2) 0.7242(3)
C23 C 0.2383(3) 0.25293(19) 0.6904(3)
H13 H 0.1948 0.2606 0.6185
C24 C 0.2843(2) 0.28051(19) 0.8621(2)
H14 H 0.2710 0.3070 0.9100
Cl4 Cl 0.33870(8) 0.15075(7) 0.62921(8)
Zn5 Zn 0.09467(3) 0.37771(2) 0.70994(3)
N3 N 0.67578(18) 0.95632(15) 0.66101(19)
C17 C 0.7599(2) 0.99655(19) 0.7304(2)
H10 H 0.7881 0.9865 0.8021
C18 C 0.6349(2) 0.97359(18) 0.5585(2)
H11 H 0.5752 0.9472 0.5104
Zn3 Zn 0.59467(3) 0.87771(2) 0.70994(3)
N1 N 0.32422(18) 0.95632(15) 0.83899(19)
C5 C 0.2401(2) 0.99655(19) 0.7696(2)
H3 H 0.2119 0.9865 0.6979
C6 C 0.3651(2) 0.97359(18) 0.9415(2)
H4 H 0.4248 0.9472 0.9896
Zn4 Zn 0.40533(3) 0.87771(2) 0.79006(3)
N2_2 N 0.28017(19) 0.79172(15) 0.7410(2)
O4_2 O 0.0899(2) 0.76319(15) 0.42656(19)
O5_2 O 0.0000 0.69262(17) 0.2500
H1_2 H 0.0290 0.7198 0.3064
C7_2 C 0.0624(2) 0.72364(18) 0.4807(2)
C8_2 C 0.1298(2) 0.73106(18) 0.5990(2)
C9_2 C 0.1111(2) 0.6901(2) 0.6695(3)
H5_2 H 0.0549 0.6561 0.6464
C10_2 C 0.1786(3) 0.7013(2) 0.7758(3)
C11_2 C 0.2617(3) 0.75293(19) 0.8096(3)
H6_2 H 0.3052 0.7606 0.8815
C12_2 C 0.2157(2) 0.78051(19) 0.6379(2)
H7_2 H 0.2290 0.8070 0.5900
Cl2_2 Cl 0.16130(8) 0.65075(7) 0.87079(8)
Zn2_2 Zn 0.09467(3) 0.62229(2) 0.20994(3)
N3_2 N 0.17578(18) 0.45632(15) 0.66101(19)
O6_2 O 0.16828(15) 0.57818(13) 0.36360(16)
O7_2 O 0.02342(15) 0.53702(13) 0.36033(17)
O8_2 O 0.01395(17) 0.67723(14) 0.05344(17)
C13_2 C 0.1184(2) 0.54924(17) 0.4047(2)
C14_2 C 0.1776(2) 0.52913(18) 0.5208(2)
C15_2 C 0.2662(2) 0.56873(18) 0.5916(2)
H9_2 H 0.2983 0.6048 0.5689
C16_2 C 0.3053(2) 0.55270(19) 0.6972(2)
C17_2 C 0.2599(2) 0.49655(19) 0.7304(2)
H10_2 H 0.2881 0.4865 0.8021
C18_2 C 0.1349(2) 0.47359(18) 0.5585(2)
H11_2 H 0.0752 0.4472 0.5104
Cl3_2 Cl 0.41189(6) 0.60563(6) 0.79348(6)
N5_2 N 0.17578(18) 0.54368(15) 0.16101(19)
N7_2 N 0.21983(19) 0.70828(15) 0.2590(2)
Zn1_2 Zn 0.90533(3) 0.62229(2) 0.29006(3)
O1_2 O 0.83172(15) 0.57818(13) 0.13640(16)
O2_2 O 0.97658(15) 0.53702(13) 0.13967(17)
O3_2 O 0.98605(17) 0.67723(14) 0.44656(17)
O5_3 O 1.0000 0.69262(17) 0.2500
C1_2 C 0.8816(2) 0.54924(17) 0.0953(2)
H8_2 H 0.9710 0.7198 0.1936
O9_2 O 0.9101(2) 0.76319(15) 0.07344(19)
C19_2 C 0.9376(2) 0.72364(18) 0.0193(2)
N6_2 N 0.82422(18) 0.54368(15) 0.33899(19)
N8_2 N 0.78017(19) 0.70828(15) 0.2410(2)
N1_2 N 0.82422(18) 0.45632(15) 0.83899(19)
C2_2 C 0.8224(2) 0.52913(18) 0.9792(2)
C3_2 C 0.7338(2) 0.56873(18) 0.9084(2)
H2_2 H 0.7017 0.6048 0.9311
C4_2 C 0.6947(2) 0.55270(19) 0.8028(2)
C5_2 C 0.7401(2) 0.49655(19) 0.7696(2)
H3_2 H 0.7119 0.4865 0.6979
C6_2 C 0.8651(2) 0.47359(18) 0.9415(2)
H4_2 H 0.9248 0.4472 0.9896
Cl1_2 Cl 0.58811(6) 0.60563(6) 0.70652(6)
N4_2 N 0.71983(19) 0.79172(15) 0.7590(2)
C20_2 C 0.8702(2) 0.73106(18) 0.9010(2)
C21_2 C 0.8889(2) 0.6901(2) 0.8305(3)
H12_2 H 0.9451 0.6561 0.8536
C22_2 C 0.8214(3) 0.7013(2) 0.7242(3)
C23_2 C 0.7383(3) 0.75293(19) 0.6904(3)
H13_2 H 0.6948 0.7606 0.6185
C24_2 C 0.7843(2) 0.78051(19) 0.8621(2)
H14_2 H 0.7710 0.8070 0.9100
Cl4_2 Cl 0.83870(8) 0.65075(7) 0.62921(8)
C5_3 C 0.7599(2) 0.00345(19) 0.2304(2)
H3_3 H 0.7881 0.0135 0.3021
C6_3 C 0.6349(2) 0.02641(18) 0.0585(2)
H4_3 H 0.5752 0.0528 0.0104
C17_3 C 0.2401(2) 0.00345(19) 0.2696(2)
H10_3 H 0.2119 0.0135 0.1979
C18_3 C 0.3651(2) 0.02641(18) 0.4415(2)
H11_3 H 0.4248 0.0528 0.4896
C2_3 C 0.6776(2) 0.97087(18) 0.0208(2)
C3_3 C 0.7662(2) 0.93127(18) 0.0916(2)
H2_3 H 0.7983 0.8952 0.0689
C4_3 C 0.8053(2) 0.94730(19) 0.1972(2)
Cl1_3 Cl 0.91189(6) 0.89437(6) 0.29348(6)
C20_3 C 0.6298(2) 0.76894(18) 0.0990(2)
C21_3 C 0.6111(2) 0.8099(2) 0.1695(3)
H12_3 H 0.5549 0.8439 0.1464
C22_3 C 0.6786(3) 0.7987(2) 0.2758(3)
C23_3 C 0.7617(3) 0.74707(19) 0.3096(3)
H13_3 H 0.8052 0.7394 0.3815
C24_3 C 0.7157(2) 0.71949(19) 0.1379(2)
H14_3 H 0.7290 0.6930 0.0900
Cl4_3 Cl 0.66130(8) 0.84925(7) 0.37079(8)
O1_3 O 0.66828(15) 0.92182(13) 0.86360(16)
O2_3 O 0.52342(15) 0.96298(13) 0.86033(17)
O3_3 O 0.51395(17) 0.82277(14) 0.55344(17)
O4_3 O 0.4101(2) 0.73681(15) 0.57344(19)
O5_4 O 0.5000 0.80738(17) 0.7500
H1_3 H 0.4710 0.7802 0.6936
C1_3 C 0.6184(2) 0.95076(17) 0.9047(2)
C7_3 C 0.4376(2) 0.77636(18) 0.5193(2)
C8_3 C 0.3702(2) 0.76894(18) 0.4010(2)
C9_3 C 0.3889(2) 0.8099(2) 0.3305(3)
H5_3 H 0.4451 0.8439 0.3536
C10_3 C 0.3214(3) 0.7987(2) 0.2242(3)
C11_3 C 0.2383(3) 0.74707(19) 0.1904(3)
H6_3 H 0.1948 0.7394 0.1185
C12_3 C 0.2843(2) 0.71949(19) 0.3621(2)
H7_3 H 0.2710 0.6930 0.4100
Cl2_3 Cl 0.33870(8) 0.84925(7) 0.12921(8)
H8_3 H 0.5290 0.7802 0.8064
O6_3 O 0.33172(15) 0.92182(13) 0.63640(16)
O7_3 O 0.47658(15) 0.96298(13) 0.63967(17)
O8_3 O 0.48605(17) 0.82277(14) 0.94656(17)
O9_3 O 0.5899(2) 0.73681(15) 0.92656(19)
C13_3 C 0.3816(2) 0.95076(17) 0.5953(2)
C14_3 C 0.3224(2) 0.97087(18) 0.4792(2)
C15_3 C 0.2338(2) 0.93127(18) 0.4084(2)
H9_3 H 0.2017 0.8952 0.4311
C16_3 C 0.1947(2) 0.94730(19) 0.3028(2)
C19_3 C 0.5624(2) 0.77636(18) 0.9807(2)
Cl3_3 Cl 0.08811(6) 0.89437(6) 0.20652(6)
C2_4 C 0.1776(2) 0.47087(18) 0.0208(2)
C3_4 C 0.2662(2) 0.43127(18) 0.0916(2)
H2_4 H 0.2983 0.3952 0.0689
C4_4 C 0.3053(2) 0.44730(19) 0.1972(2)
C5_4 C 0.2599(2) 0.50345(19) 0.2304(2)
H3_4 H 0.2881 0.5135 0.3021
C6_4 C 0.1349(2) 0.52641(18) 0.0585(2)
H4_4 H 0.0752 0.5528 0.0104
Cl1_4 Cl 0.41189(6) 0.39437(6) 0.29348(6)
C20_4 C 0.1298(2) 0.26894(18) 0.0990(2)
C21_4 C 0.1111(2) 0.3099(2) 0.1695(3)
H12_4 H 0.0549 0.3439 0.1464
C22_4 C 0.1786(3) 0.2987(2) 0.2758(3)
C23_4 C 0.2617(3) 0.24707(19) 0.3096(3)
H13_4 H 0.3052 0.2394 0.3815
C24_4 C 0.2157(2) 0.21949(19) 0.1379(2)
H14_4 H 0.2290 0.1930 0.0900
Cl4_4 Cl 0.16130(8) 0.34925(7) 0.37079(8)
O1_4 O 0.16828(15) 0.42182(13) 0.86360(16)
O2_4 O 0.02342(15) 0.46298(13) 0.86033(17)
O3_4 O 0.01395(17) 0.32277(14) 0.55344(17)
O5_5 O 0.0000 0.30738(17) 0.7500
C1_4 C 0.1184(2) 0.45076(17) 0.9047(2)
H8_4 H 0.0290 0.2802 0.8064
O9_4 O 0.0899(2) 0.23681(15) 0.92656(19)
C19_4 C 0.0624(2) 0.27636(18) 0.9807(2)
O4_4 O 0.9101(2) 0.23681(15) 0.57344(19)
O5_6 O 1.0000 0.30738(17) 0.7500
H1_4 H 0.9710 0.2802 0.6936
C7_4 C 0.9376(2) 0.27636(18) 0.5193(2)
C8_4 C 0.8702(2) 0.26894(18) 0.4010(2)
C9_4 C 0.8889(2) 0.3099(2) 0.3305(3)
H5_4 H 0.9451 0.3439 0.3536
C10_4 C 0.8214(3) 0.2987(2) 0.2242(3)
C11_4 C 0.7383(3) 0.24707(19) 0.1904(3)
H6_4 H 0.6948 0.2394 0.1185
C12_4 C 0.7843(2) 0.21949(19) 0.3621(2)
H7_4 H 0.7710 0.1930 0.4100
Cl2_4 Cl 0.83870(8) 0.34925(7) 0.12921(8)
O6_4 O 0.83172(15) 0.42182(13) 0.63640(16)
O7_4 O 0.97658(15) 0.46298(13) 0.63967(17)
O8_4 O 0.98605(17) 0.32277(14) 0.94656(17)
C13_4 C 0.8816(2) 0.45076(17) 0.5953(2)
C14_4 C 0.8224(2) 0.47087(18) 0.4792(2)
C15_4 C 0.7338(2) 0.43127(18) 0.4084(2)
H9_4 H 0.7017 0.3952 0.4311
C16_4 C 0.6947(2) 0.44730(19) 0.3028(2)
C17_4 C 0.7401(2) 0.50345(19) 0.2696(2)
H10_4 H 0.7119 0.5135 0.1979
C18_4 C 0.8651(2) 0.52641(18) 0.4415(2)
H11_4 H 0.9248 0.5528 0.4896
Cl3_4 Cl 0.58811(6) 0.39437(6) 0.20652(6)
loop_
_geom_bond_atom_site_label_1
_geom_bond_atom_site_label_2
_geom_bond_site_symmetry_1
_geom_bond_site_symmetry_2
Zn1 O1 1_555 1_555
N2 C11 1_555 1_555
O1 C1 1_555 1_555
O2 C1 1_555 1_555
O3 Zn1 1_555 1_555
O4 C7 1_555 1_555
O5 Zn1 1_555 1_555
H1 O5 1_555 1_555
C7 O3 1_555 1_555
C8 C7 1_555 1_555
C9 C8 1_555 1_555
H5 C9 1_555 1_555
C10 C9 1_555 1_555
C11 C10 1_555 1_555
H6 C11 1_555 1_555
C12 N2 1_555 1_555
H7 C12 1_555 1_555
Cl2 C10 1_555 1_555
H8 O5 1_555 1_555
Zn2 O2 1_555 1_555
O6 Zn2 1_555 1_555
O7 Zn1 1_555 1_555
O8 Zn2 1_555 1_555
O9 C19 1_555 1_555
C13 O6 1_555 1_555
C14 C13 1_555 1_555
C15 C14 1_555 1_555
H9 C15 1_555 1_555
C16 C15 1_555 1_555
C19 O8 1_555 1_555
Cl3 C16 1_555 1_555
Zn6 N2 1_555 1_555
N5 Zn2 1_555 1_555
N6 Zn1 1_555 1_555
N7 Zn2 1_555 1_555
N8 Zn1 1_555 1_555
O5 Zn2 1_555 1_555
C8 C12 1_555 1_555
O7 C13 1_555 1_555
C2 C3 1_555 1_555
C3 H2 1_555 1_555
C4 C3 1_555 1_555
Cl1 C4 1_555 1_555
N4 C23 1_555 1_555
C21 C20 1_555 1_555
H12 C21 1_555 1_555
C22 C21 1_555 1_555
C23 C22 1_555 1_555
H13 C23 1_555 1_555
C24 N4 1_555 1_555
H14 C24 1_555 1_555
Cl4 C22 1_555 1_555
Zn5 N4 1_555 1_555
C20 C24 1_555 1_555
N3 C17 1_555 1_555
H10 C17 1_555 1_555
C18 N3 1_555 1_555
H11 C18 1_555 1_555
Zn3 N3 1_555 1_555
N1 C5 1_555 1_555
H3 C5 1_555 1_555
C6 N1 1_555 1_555
H4 C6 1_555 1_555
Zn4 N1 1_555 1_555
N2_2 C11_2 1_555 1_555
O4_2 C7_2 1_555 1_555
H1_2 O5_2 1_555 1_555
C8_2 C7_2 1_555 1_555
C9_2 C8_2 1_555 1_555
H5_2 C9_2 1_555 1_555
C10_2 C9_2 1_555 1_555
C11_2 C10_2 1_555 1_555
H6_2 C11_2 1_555 1_555
C12_2 N2_2 1_555 1_555
H7_2 C12_2 1_555 1_555
Cl2_2 C10_2 1_555 1_555
N3_2 C17_2 1_555 1_555
O6_2 Zn2_2 1_555 1_555
O8_2 Zn2_2 1_555 1_555
C13_2 O6_2 1_555 1_555
C14_2 C13_2 1_555 1_555
C15_2 C14_2 1_555 1_555
H9_2 C15_2 1_555 1_555
C16_2 C15_2 1_555 1_555
C17_2 C16_2 1_555 1_555
H10_2 C17_2 1_555 1_555
C18_2 N3_2 1_555 1_555
H11_2 C18_2 1_555 1_555
Cl3_2 C16_2 1_555 1_555
Zn5 N3_2 1_555 1_555
Zn4 N2_2 1_555 1_555
N5_2 Zn2_2 1_555 1_555
N7_2 Zn2_2 1_555 1_555
O5_2 Zn2_2 1_555 1_555
C8_2 C12_2 1_555 1_555
O7_2 C13_2 1_555 1_555
C14_2 C18_2 1_555 1_555
Zn1_2 O1_2 1_555 1_555
O1_2 C1_2 1_555 1_555
O2_2 C1_2 1_555 1_555
O3_2 Zn1_2 1_555 1_555
O5_3 Zn1_2 1_555 1_555
H8_2 O5_3 1_555 1_555
O9_2 C19_2 1_555 1_555
N6_2 Zn1_2 1_555 1_555
N8_2 Zn1_2 1_555 1_555
N1_2 C5_2 1_555 1_555
C2_2 C3_2 1_555 1_555
C3_2 H2_2 1_555 1_555
C4_2 C3_2 1_555 1_555
C5_2 C4_2 1_555 1_555
H3_2 C5_2 1_555 1_555
C6_2 N1_2 1_555 1_555
H4_2 C6_2 1_555 1_555
Cl1_2 C4_2 1_555 1_555
N4_2 C23_2 1_555 1_555
C21_2 C20_2 1_555 1_555
H12_2 C21_2 1_555 1_555
C22_2 C21_2 1_555 1_555
C23_2 C22_2 1_555 1_555
H13_2 C23_2 1_555 1_555
C24_2 N4_2 1_555 1_555
H14_2 C24_2 1_555 1_555
Cl4_2 C22_2 1_555 1_555
Zn6 N1_2 1_555 1_555
Zn3 N4_2 1_555 1_555
C2_2 C6_2 1_555 1_555
C20_2 C24_2 1_555 1_555
N5 C5_3 1_555 1_555
H3_3 C5_3 1_555 1_555
C6_3 N5 1_555 1_555
H4_3 C6_3 1_555 1_555
N6 C17_3 1_555 1_555
H10_3 C17_3 1_555 1_555
C18_3 N6 1_555 1_555
H11_3 C18_3 1_555 1_555
C2_3 C3_3 1_555 1_555
C3_3 H2_3 1_555 1_555
C4_3 C3_3 1_555 1_555
Cl1_3 C4_3 1_555 1_555
N8_2 C23_3 1_555 1_555
C21_3 C20_3 1_555 1_555
H12_3 C21_3 1_555 1_555
C22_3 C21_3 1_555 1_555
C23_3 C22_3 1_555 1_555
H13_3 C23_3 1_555 1_555
C24_3 N8_2 1_555 1_555
H14_3 C24_3 1_555 1_555
Cl4_3 C22_3 1_555 1_555
C20_3 C24_3 1_555 1_555
Zn3 O1_3 1_555 1_555
N7_2 C11_3 1_555 1_555
O1_3 C1_3 1_555 1_555
O2_3 C1_3 1_555 1_555
O3_3 Zn3 1_555 1_555
O4_3 C7_3 1_555 1_555
O5_4 Zn3 1_555 1_555
H1_3 O5_4 1_555 1_555
C7_3 O3_3 1_555 1_555
C8_3 C7_3 1_555 1_555
C9_3 C8_3 1_555 1_555
H5_3 C9_3 1_555 1_555
C10_3 C9_3 1_555 1_555
C11_3 C10_3 1_555 1_555
H6_3 C11_3 1_555 1_555
C12_3 N7_2 1_555 1_555
H7_3 C12_3 1_555 1_555
Cl2_3 C10_3 1_555 1_555
H8_3 O5_4 1_555 1_555
Zn4 O2_3 1_555 1_555
O6_3 Zn4 1_555 1_555
O7_3 Zn3 1_555 1_555
O8_3 Zn4 1_555 1_555
O9_3 C19_3 1_555 1_555
C13_3 O6_3 1_555 1_555
C14_3 C13_3 1_555 1_555
C15_3 C14_3 1_555 1_555
H9_3 C15_3 1_555 1_555
C16_3 C15_3 1_555 1_555
C19_3 O8_3 1_555 1_555
Cl3_3 C16_3 1_555 1_555
O5_4 Zn4 1_555 1_555
C8_3 C12_3 1_555 1_555
O7_3 C13_3 1_555 1_555
N5_2 C5_4 1_555 1_555
C2_4 C3_4 1_555 1_555
C3_4 H2_4 1_555 1_555
C4_4 C3_4 1_555 1_555
C5_4 C4_4 1_555 1_555
H3_4 C5_4 1_555 1_555
C6_4 N5_2 1_555 1_555
H4_4 C6_4 1_555 1_555
Cl1_4 C4_4 1_555 1_555
N8 C23_4 1_555 1_555
C21_4 C20_4 1_555 1_555
H12_4 C21_4 1_555 1_555
C22_4 C21_4 1_555 1_555
C23_4 C22_4 1_555 1_555
H13_4 C23_4 1_555 1_555
C24_4 N8 1_555 1_555
H14_4 C24_4 1_555 1_555
Cl4_4 C22_4 1_555 1_555
C2_4 C6_4 1_555 1_555
C20_4 C24_4 1_555 1_555
Zn5 O1_4 1_555 1_555
O1_4 C1_4 1_555 1_555
O2_4 C1_4 1_555 1_555
O3_4 Zn5 1_555 1_555
O5_5 Zn5 1_555 1_555
H8_4 O5_5 1_555 1_555
O9_4 C19_4 1_555 1_555
N7 C11_4 1_555 1_555
O4_4 C7_4 1_555 1_555
H1_4 O5_6 1_555 1_555
C8_4 C7_4 1_555 1_555
C9_4 C8_4 1_555 1_555
H5_4 C9_4 1_555 1_555
C10_4 C9_4 1_555 1_555
C11_4 C10_4 1_555 1_555
H6_4 C11_4 1_555 1_555
C12_4 N7 1_555 1_555
H7_4 C12_4 1_555 1_555
Cl2_4 C10_4 1_555 1_555
N6_2 C17_4 1_555 1_555
O6_4 Zn6 1_555 1_555
O8_4 Zn6 1_555 1_555
C13_4 O6_4 1_555 1_555
C14_4 C13_4 1_555 1_555
C15_4 C14_4 1_555 1_555
H9_4 C15_4 1_555 1_555
C16_4 C15_4 1_555 1_555
C17_4 C16_4 1_555 1_555
H10_4 C17_4 1_555 1_555
C18_4 N6_2 1_555 1_555
H11_4 C18_4 1_555 1_555
Cl3_4 C16_4 1_555 1_555
O5_6 Zn6 1_555 1_555
C8_4 C12_4 1_555 1_555
O7_4 C13_4 1_555 1_555
C14_4 C18_4 1_555 1_555

#END
