
###############################################################################
#
# This file contains modified crystal structure data generated from the
# MOF subset of the Cambridge Structural Database (CSD) v543 
# hosted by the Cambridge Crystallographic Data Centre (CCDC).
#
# This work is licensed under the Creative Commons
# Attribution-NonCommercial-ShareAlike 4.0 International License.
# To view a copy of this license, visit
# http://creativecommons.org/licenses/by-nc-sa/4.0/
# or send a letter to
# Creative Commons, PO Box 1866, Mountain View, CA 94042, USA.
#
# CIF created using the CSD Python API on 29 September 2022
# The structure has been converted into the P1 space group
# The structure has a 3D framework
# The original CSD entry LUPDEH is in the monoclinic crystal system
# The framework has been calculated to contain at least 10.0% void space
# The void calculation uses a probe of radius 1.32A, grid spacing 0.4
#
###############################################################################

data_LUPDEH
_chemical_formula_moiety         '(C96 H56 Br16 N16 O34 Zn8)n'
_symmetry_cell_setting           triclinic
_symmetry_space_group_name_H-M   'P 1'
_symmetry_Int_Tables_number      1
_space_group_name_Hall           'P 1'
loop_
_symmetry_equiv_pos_site_id
_symmetry_equiv_pos_as_xyz
1 x,y,z
_cell_length_a                   14.910(3)
_cell_length_b                   17.044(3)
_cell_length_c                   14.696(3)
_cell_angle_alpha                90
_cell_angle_beta                 120.49(2)
_cell_angle_gamma                90
_cell_volume                     3218.2
loop_
_atom_site_label
_atom_site_type_symbol
_atom_site_fract_x
_atom_site_fract_y
_atom_site_fract_z
Br1 Br 0.36317(3) 0.36297(3) 0.19339(3)
Zn1 Zn 0.13284(3) 0.13193(3) 0.28808(3)
O3 O 0.41413(19) 0.28420(16) 0.6400(2)
O4 O 0.55318(18) 0.32581(16) 0.63272(19)
O5 O 0.0000 0.0634(2) 0.2500
H1 H 0.0252 0.0285 0.2980
N1 N 0.2091(2) 0.04696(19) 0.2393(2)
N2 N 0.2617(2) 0.20912(19) 0.3358(2)
C2 C 0.1700(3) 0.0328(2) 0.1359(3)
H2 H 0.1076 0.0587 0.0864
C3 C 0.2962(3) 0.0098(2) 0.3085(3)
H3 H 0.3258 0.0202 0.3818
C7 C 0.4044(3) 0.2786(2) 0.4763(3)
C8 C 0.4214(3) 0.3190(2) 0.4044(3)
H5 H 0.4773 0.3552 0.4272
C9 C 0.3536(3) 0.3046(2) 0.2980(3)
C10 C 0.2760(3) 0.2495(2) 0.2665(3)
H6 H 0.2314 0.2399 0.1932
C11 C 0.3247(3) 0.2244(2) 0.4395(3)
H7 H 0.3138 0.1968 0.4892
C12 C 0.4630(3) 0.2970(2) 0.5930(3)
Zn6 Zn 0.36716(3) 0.36807(3) 0.71192(3)
Zn8 Zn 0.63284(3) 0.36807(3) 0.78808(3)
O11 O 0.20705(19) 0.07649(16) 0.4466(2)
O12 O 0.08587(19) 0.21580(16) 0.3600(2)
O15 O 0.05318(18) 0.17419(16) 0.13272(19)
O2 O 0.20705(19) 0.92351(16) 0.9466(2)
C6 C 0.1656(3) 0.9709(2) 0.9795(3)
Zn4 Zn 0.13284(3) 0.86807(3) 0.78808(3)
O5_2 O 1.0000 0.0634(2) 0.2500
H8 H 0.9748 0.0285 0.2020
Br3 Br 0.63683(3) 0.36297(3) 0.30661(3)
Zn2 Zn 0.86716(3) 0.13193(3) 0.21192(3)
O6 O 0.9167(2) 0.00908(16) 0.5753(2)
N3 N 0.7909(2) 0.04696(19) 0.2607(2)
N4 N 0.7383(2) 0.20912(19) 0.1642(2)
C14 C 0.8300(3) 0.0328(2) 0.3641(3)
H9 H 0.8924 0.0587 0.4136
C15 C 0.7038(3) 0.0098(2) 0.1915(3)
H10 H 0.6742 0.0202 0.1182
C19 C 0.5956(3) 0.2786(2) 0.0237(3)
C20 C 0.5786(3) 0.3190(2) 0.0956(3)
H12 H 0.5227 0.3552 0.0728
C21 C 0.6464(3) 0.3046(2) 0.2020(3)
C22 C 0.7240(3) 0.2495(2) 0.2335(3)
H13 H 0.7686 0.2399 0.3068
C23 C 0.6753(3) 0.2244(2) 0.0605(3)
H14 H 0.6862 0.1968 0.0108
O10 O 0.79295(19) 0.07649(16) 0.0534(2)
O13 O 0.91413(19) 0.21580(16) 0.1400(2)
O14 O 0.94682(18) 0.17419(16) 0.36728(19)
O8 O 0.58587(19) 0.28420(16) 0.8600(2)
O9 O 0.44682(18) 0.32581(16) 0.86728(19)
C24 C 0.5370(3) 0.2970(2) 0.9070(3)
Br4 Br 0.53538(3) 0.90378(3) 0.12043(3)
O7 O 0.79295(19) 0.92351(16) 0.5534(2)
C13 C 0.7835(3) 0.9820(2) 0.4016(3)
C16 C 0.6557(3) 0.9566(3) 0.2237(3)
C17 C 0.6944(3) 0.9419(2) 0.3303(3)
H11 H 0.6612 0.9059 0.3531
C18 C 0.8344(3) 0.9709(2) 0.5205(3)
Zn3 Zn 0.86716(3) 0.86807(3) 0.71192(3)
O4_2 O 0.05318(18) 0.82581(16) 0.63272(19)
Br1_2 Br 0.86317(3) 0.86297(3) 0.19339(3)
Br2 Br 0.96462(3) 0.40378(3) 0.37957(3)
Zn1_2 Zn 0.63284(3) 0.63193(3) 0.28808(3)
O3_2 O 0.91413(19) 0.78420(16) 0.6400(2)
O5_3 O 0.5000 0.5634(2) 0.2500
H1_2 H 0.5252 0.5285 0.2980
N1_2 N 0.7091(2) 0.54696(19) 0.2393(2)
N2_2 N 0.7617(2) 0.70912(19) 0.3358(2)
C1 C 0.7165(3) 0.4820(2) 0.0984(3)
C2_2 C 0.6700(3) 0.5328(2) 0.1359(3)
H2_2 H 0.6076 0.5587 0.0864
C3_2 C 0.7962(3) 0.5098(2) 0.3085(3)
H3_2 H 0.8258 0.5202 0.3818
C4 C 0.8443(3) 0.4566(3) 0.2763(3)
C5 C 0.8056(3) 0.4419(2) 0.1697(3)
H4 H 0.8388 0.4059 0.1469
C7_2 C 0.9044(3) 0.7786(2) 0.4763(3)
C8_2 C 0.9214(3) 0.8190(2) 0.4044(3)
H5_2 H 0.9773 0.8552 0.4272
C9_2 C 0.8536(3) 0.8046(2) 0.2980(3)
C10_2 C 0.7760(3) 0.7495(2) 0.2665(3)
H6_2 H 0.7314 0.7399 0.1932
C11_2 C 0.8247(3) 0.7244(2) 0.4395(3)
H7_2 H 0.8138 0.6968 0.4892
C12_2 C 0.9630(3) 0.7970(2) 0.5930(3)
H8_2 H 0.4748 0.5285 0.2020
Br3_2 Br 0.13683(3) 0.86297(3) 0.30661(3)
Br4_2 Br 0.03538(3) 0.40378(3) 0.12043(3)
Zn2_2 Zn 0.36716(3) 0.63193(3) 0.21192(3)
O6_2 O 0.4167(2) 0.50908(16) 0.5753(2)
O7_2 O 0.29295(19) 0.42351(16) 0.5534(2)
N3_2 N 0.2909(2) 0.54696(19) 0.2607(2)
N4_2 N 0.2383(2) 0.70912(19) 0.1642(2)
C13_2 C 0.2835(3) 0.4820(2) 0.4016(3)
C14_2 C 0.3300(3) 0.5328(2) 0.3641(3)
H9_2 H 0.3924 0.5587 0.4136
C15_2 C 0.2038(3) 0.5098(2) 0.1915(3)
H10_2 H 0.1742 0.5202 0.1182
C16_2 C 0.1557(3) 0.4566(3) 0.2237(3)
C17_2 C 0.1944(3) 0.4419(2) 0.3303(3)
H11_2 H 0.1612 0.4059 0.3531
C18_2 C 0.3344(3) 0.4709(2) 0.5205(3)
C19_2 C 0.0956(3) 0.7786(2) 0.0237(3)
C20_2 C 0.0786(3) 0.8190(2) 0.0956(3)
H12_2 H 0.0227 0.8552 0.0728
C21_2 C 0.1464(3) 0.8046(2) 0.2020(3)
C22_2 C 0.2240(3) 0.7495(2) 0.2335(3)
H13_2 H 0.2686 0.7399 0.3068
C23_2 C 0.1753(3) 0.7244(2) 0.0605(3)
H14_2 H 0.1862 0.6968 0.0108
O10_2 O 0.29295(19) 0.57649(16) 0.0534(2)
O11_2 O 0.70705(19) 0.57649(16) 0.4466(2)
O12_2 O 0.58587(19) 0.71580(16) 0.3600(2)
O13_2 O 0.41413(19) 0.71580(16) 0.1400(2)
O14_2 O 0.44682(18) 0.67419(16) 0.36728(19)
O15_2 O 0.55318(18) 0.67419(16) 0.13272(19)
O1 O 0.5833(2) 0.50908(16) 0.9247(2)
O2_2 O 0.70705(19) 0.42351(16) 0.9466(2)
C6_2 C 0.6656(3) 0.4709(2) 0.9795(3)
O8_2 O 0.08587(19) 0.78420(16) 0.8600(2)
C24_2 C 0.0370(3) 0.7970(2) 0.9070(3)
O9_2 O 0.94682(18) 0.82581(16) 0.86728(19)
Br4_3 Br 0.46462(3) 0.09622(3) 0.87957(3)
C13_3 C 0.2165(3) 0.0180(2) 0.5984(3)
C16_3 C 0.3443(3) 0.0434(3) 0.7763(3)
C17_3 C 0.3056(3) 0.0581(2) 0.6697(3)
H11_3 H 0.3388 0.0941 0.6469
C18_3 C 0.1656(3) 0.0291(2) 0.4795(3)
C24_3 C 0.4630(3) 0.7030(2) 0.0930(3)
O5_4 O 0.0000 0.9366(2) 0.7500
H8_3 H 0.0252 0.9715 0.7980
Br3_3 Br 0.36317(3) 0.63703(3) 0.69339(3)
O6_3 O 0.0833(2) 0.99092(16) 0.4247(2)
N3_3 N 0.2091(2) 0.95304(19) 0.7393(2)
N4_3 N 0.2617(2) 0.79088(19) 0.8358(2)
C14_3 C 0.1700(3) 0.9672(2) 0.6359(3)
H9_3 H 0.1076 0.9413 0.5864
C15_3 C 0.2962(3) 0.9902(2) 0.8085(3)
H10_3 H 0.3258 0.9798 0.8818
C19_3 C 0.4044(3) 0.7214(2) 0.9763(3)
C20_3 C 0.4214(3) 0.6810(2) 0.9044(3)
H12_3 H 0.4773 0.6448 0.9272
C21_3 C 0.3536(3) 0.6954(2) 0.7980(3)
C22_3 C 0.2760(3) 0.7505(2) 0.7665(3)
H13_3 H 0.2314 0.7601 0.6932
C23_3 C 0.3247(3) 0.7756(2) 0.9395(3)
H14_3 H 0.3138 0.8032 0.9892
C6_3 C 0.8344(3) 0.0291(2) 0.0205(3)
Br1_3 Br 0.63683(3) 0.63703(3) 0.80661(3)
O5_5 O 1.0000 0.9366(2) 0.7500
H1_3 H 0.9748 0.9715 0.7020
N1_3 N 0.7909(2) 0.95304(19) 0.7607(2)
N2_3 N 0.7383(2) 0.79088(19) 0.6642(2)
C2_3 C 0.8300(3) 0.9672(2) 0.8641(3)
H2_3 H 0.8924 0.9413 0.9136
C3_3 C 0.7038(3) 0.9902(2) 0.6915(3)
H3_3 H 0.6742 0.9798 0.6182
C7_3 C 0.5956(3) 0.7214(2) 0.5237(3)
C8_3 C 0.5786(3) 0.6810(2) 0.5956(3)
H5_3 H 0.5227 0.6448 0.5728
C9_3 C 0.6464(3) 0.6954(2) 0.7020(3)
C10_3 C 0.7240(3) 0.7505(2) 0.7335(3)
H6_3 H 0.7686 0.7601 0.8068
C11_3 C 0.6753(3) 0.7756(2) 0.5605(3)
H7_3 H 0.6862 0.8032 0.5108
C12_3 C 0.5370(3) 0.7030(2) 0.4070(3)
O1_2 O 0.4167(2) 0.49092(16) 0.0753(2)
C6_4 C 0.3344(3) 0.5291(2) 0.0205(3)
C24_4 C 0.9630(3) 0.2030(2) 0.0930(3)
Br1_4 Br 0.13683(3) 0.13703(3) 0.80661(3)
Br2_2 Br 0.03538(3) 0.59622(3) 0.62043(3)
O5_6 O 0.5000 0.4366(2) 0.7500
H1_4 H 0.4748 0.4715 0.7020
N1_4 N 0.2909(2) 0.45304(19) 0.7607(2)
N2_4 N 0.2383(2) 0.29088(19) 0.6642(2)
C1_2 C 0.2835(3) 0.5180(2) 0.9016(3)
C2_4 C 0.3300(3) 0.4672(2) 0.8641(3)
H2_4 H 0.3924 0.4413 0.9136
C3_4 C 0.2038(3) 0.4902(2) 0.6915(3)
H3_4 H 0.1742 0.4798 0.6182
C4_2 C 0.1557(3) 0.5434(3) 0.7237(3)
C5_2 C 0.1944(3) 0.5581(2) 0.8303(3)
H4_2 H 0.1612 0.5941 0.8531
C7_4 C 0.0956(3) 0.2214(2) 0.5237(3)
C8_4 C 0.0786(3) 0.1810(2) 0.5956(3)
H5_4 H 0.0227 0.1448 0.5728
C9_4 C 0.1464(3) 0.1954(2) 0.7020(3)
C10_4 C 0.2240(3) 0.2505(2) 0.7335(3)
H6_4 H 0.2686 0.2601 0.8068
C11_4 C 0.1753(3) 0.2756(2) 0.5605(3)
H7_4 H 0.1862 0.3032 0.5108
C12_4 C 0.0370(3) 0.2030(2) 0.4070(3)
H8_4 H 0.5252 0.4715 0.7980
Br3_4 Br 0.86317(3) 0.13703(3) 0.69339(3)
Br4_4 Br 0.96462(3) 0.59622(3) 0.87957(3)
O6_4 O 0.5833(2) 0.49092(16) 0.4247(2)
N3_4 N 0.7091(2) 0.45304(19) 0.7393(2)
N4_4 N 0.7617(2) 0.29088(19) 0.8358(2)
C13_4 C 0.7165(3) 0.5180(2) 0.5984(3)
C14_4 C 0.6700(3) 0.4672(2) 0.6359(3)
H9_4 H 0.6076 0.4413 0.5864
C15_4 C 0.7962(3) 0.4902(2) 0.8085(3)
H10_4 H 0.8258 0.4798 0.8818
C16_4 C 0.8443(3) 0.5434(3) 0.7763(3)
C17_4 C 0.8056(3) 0.5581(2) 0.6697(3)
H11_4 H 0.8388 0.5941 0.6469
C18_4 C 0.6656(3) 0.5291(2) 0.4795(3)
C19_4 C 0.9044(3) 0.2214(2) 0.9763(3)
C20_4 C 0.9214(3) 0.1810(2) 0.9044(3)
H12_4 H 0.9773 0.1448 0.9272
C21_4 C 0.8536(3) 0.1954(2) 0.7980(3)
C22_4 C 0.7760(3) 0.2505(2) 0.7665(3)
H13_4 H 0.7314 0.2601 0.6932
C23_4 C 0.8247(3) 0.2756(2) 0.9395(3)
H14_4 H 0.8138 0.3032 0.9892
O1_3 O 0.0833(2) 0.00908(16) 0.9247(2)
Br2_3 Br 0.46462(3) 0.90378(3) 0.37957(3)
C1_3 C 0.2165(3) 0.9820(2) 0.0984(3)
C4_3 C 0.3443(3) 0.9566(3) 0.2763(3)
C5_3 C 0.3056(3) 0.9419(2) 0.1697(3)
H4_3 H 0.3388 0.9059 0.1469
Br2_4 Br 0.53538(3) 0.09622(3) 0.62043(3)
C1_4 C 0.7835(3) 0.0180(2) 0.9016(3)
C4_4 C 0.6557(3) 0.0434(3) 0.7237(3)
C5_4 C 0.6944(3) 0.0581(2) 0.8303(3)
H4_4 H 0.6612 0.0941 0.8531
O1_4 O 0.9167(2) 0.99092(16) 0.0753(2)
loop_
_geom_bond_atom_site_label_1
_geom_bond_atom_site_label_2
_geom_bond_site_symmetry_1
_geom_bond_site_symmetry_2
Br1 C9 1_555 1_555
Zn1 O5 1_555 1_555
O3 C12 1_555 1_555
O4 C12 1_555 1_555
O5 H1 1_555 1_555
N1 Zn1 1_555 1_555
N2 Zn1 1_555 1_555
C2 N1 1_555 1_555
H2 C2 1_555 1_555
C3 N1 1_555 1_555
H3 C3 1_555 1_555
C7 C8 1_555 1_555
C8 H5 1_555 1_555
C9 C8 1_555 1_555
C10 N2 1_555 1_555
H6 C10 1_555 1_555
C11 N2 1_555 1_555
H7 C11 1_555 1_555
C12 C7 1_555 1_555
Zn6 O3 1_555 1_555
Zn8 O4 1_555 1_555
O11 Zn1 1_555 1_555
O12 Zn1 1_555 1_555
O15 Zn1 1_555 1_555
C7 C11 1_555 1_555
C9 C10 1_555 1_555
O2 C6 1_555 1_555
Zn4 O2 1_555 1_555
H8 O5_2 1_555 1_555
Br3 C21 1_555 1_555
Zn2 O5_2 1_555 1_555
N3 Zn2 1_555 1_555
N4 Zn2 1_555 1_555
C14 N3 1_555 1_555
H9 C14 1_555 1_555
C15 N3 1_555 1_555
H10 C15 1_555 1_555
C19 C20 1_555 1_555
C20 H12 1_555 1_555
C21 C20 1_555 1_555
C22 N4 1_555 1_555
H13 C22 1_555 1_555
C23 N4 1_555 1_555
H14 C23 1_555 1_555
O10 Zn2 1_555 1_555
O13 Zn2 1_555 1_555
O14 Zn2 1_555 1_555
C19 C23 1_555 1_555
C21 C22 1_555 1_555
O8 C24 1_555 1_555
O9 C24 1_555 1_555
Zn6 O9 1_555 1_555
Zn8 O8 1_555 1_555
Br4 C16 1_555 1_555
O7 C18 1_555 1_555
C17 C13 1_555 1_555
H11 C17 1_555 1_555
C18 C13 1_555 1_555
Zn3 O7 1_555 1_555
C16 C17 1_555 1_555
Zn4 O4_2 1_555 1_555
Br1_2 C9_2 1_555 1_555
Br2 C4 1_555 1_555
Zn1_2 O5_3 1_555 1_555
O3_2 C12_2 1_555 1_555
O5_3 H1_2 1_555 1_555
N1_2 Zn1_2 1_555 1_555
N2_2 Zn1_2 1_555 1_555
C1 C2_2 1_555 1_555
C2_2 N1_2 1_555 1_555
H2_2 C2_2 1_555 1_555
C3_2 N1_2 1_555 1_555
H3_2 C3_2 1_555 1_555
C4 C3_2 1_555 1_555
C5 C1 1_555 1_555
H4 C5 1_555 1_555
C7_2 C8_2 1_555 1_555
C8_2 H5_2 1_555 1_555
C9_2 C8_2 1_555 1_555
C10_2 N2_2 1_555 1_555
H6_2 C10_2 1_555 1_555
C11_2 N2_2 1_555 1_555
H7_2 C11_2 1_555 1_555
C12_2 C7_2 1_555 1_555
H8_2 O5_3 1_555 1_555
Br3_2 C21_2 1_555 1_555
Br4_2 C16_2 1_555 1_555
Zn2_2 O5_3 1_555 1_555
O6_2 C18_2 1_555 1_555
O7_2 C18_2 1_555 1_555
N3_2 Zn2_2 1_555 1_555
N4_2 Zn2_2 1_555 1_555
C13_2 C14_2 1_555 1_555
C14_2 N3_2 1_555 1_555
H9_2 C14_2 1_555 1_555
C15_2 N3_2 1_555 1_555
H10_2 C15_2 1_555 1_555
C16_2 C15_2 1_555 1_555
C17_2 C13_2 1_555 1_555
H11_2 C17_2 1_555 1_555
C18_2 C13_2 1_555 1_555
C19_2 C20_2 1_555 1_555
C20_2 H12_2 1_555 1_555
C21_2 C20_2 1_555 1_555
C22_2 N4_2 1_555 1_555
H13_2 C22_2 1_555 1_555
C23_2 N4_2 1_555 1_555
H14_2 C23_2 1_555 1_555
Zn6 O7_2 1_555 1_555
Zn3 O3_2 1_555 1_555
O10_2 Zn2_2 1_555 1_555
O11_2 Zn1_2 1_555 1_555
O12_2 Zn1_2 1_555 1_555
O13_2 Zn2_2 1_555 1_555
O14_2 Zn2_2 1_555 1_555
O15_2 Zn1_2 1_555 1_555
C4 C5 1_555 1_555
C7_2 C11_2 1_555 1_555
C9_2 C10_2 1_555 1_555
C16_2 C17_2 1_555 1_555
C19_2 C23_2 1_555 1_555
C21_2 C22_2 1_555 1_555
O1 C6_2 1_555 1_555
O2_2 C6_2 1_555 1_555
O8_2 C24_2 1_555 1_555
Zn8 O2_2 1_555 1_555
Zn4 O8_2 1_555 1_555
Zn3 O9_2 1_555 1_555
Br4_3 C16_3 1_555 1_555
O11 C18_3 1_555 1_555
C17_3 C13_3 1_555 1_555
H11_3 C17_3 1_555 1_555
C18_3 C13_3 1_555 1_555
C16_3 C17_3 1_555 1_555
O13_2 C24_3 1_555 1_555
O15_2 C24_3 1_555 1_555
H8_3 O5_4 1_555 1_555
Br3_3 C21_3 1_555 1_555
Zn4 O5_4 1_555 1_555
N3_3 Zn4 1_555 1_555
N4_3 Zn4 1_555 1_555
C14_3 N3_3 1_555 1_555
H9_3 C14_3 1_555 1_555
C15_3 N3_3 1_555 1_555
H10_3 C15_3 1_555 1_555
C19_3 C20_3 1_555 1_555
C20_3 H12_3 1_555 1_555
C21_3 C20_3 1_555 1_555
C22_3 N4_3 1_555 1_555
H13_3 C22_3 1_555 1_555
C23_3 N4_3 1_555 1_555
H14_3 C23_3 1_555 1_555
C19_3 C23_3 1_555 1_555
C21_3 C22_3 1_555 1_555
O10 C6_3 1_555 1_555
Br1_3 C9_3 1_555 1_555
Zn3 O5_5 1_555 1_555
O12_2 C12_3 1_555 1_555
O14_2 C12_3 1_555 1_555
O5_5 H1_3 1_555 1_555
N1_3 Zn3 1_555 1_555
N2_3 Zn3 1_555 1_555
C2_3 N1_3 1_555 1_555
H2_3 C2_3 1_555 1_555
C3_3 N1_3 1_555 1_555
H3_3 C3_3 1_555 1_555
C7_3 C8_3 1_555 1_555
C8_3 H5_3 1_555 1_555
C9_3 C8_3 1_555 1_555
C10_3 N2_3 1_555 1_555
H6_3 C10_3 1_555 1_555
C11_3 N2_3 1_555 1_555
H7_3 C11_3 1_555 1_555
C12_3 C7_3 1_555 1_555
C7_3 C11_3 1_555 1_555
C9_3 C10_3 1_555 1_555
O1_2 C6_4 1_555 1_555
O10_2 C6_4 1_555 1_555
O13 C24_4 1_555 1_555
Br1_4 C9_4 1_555 1_555
Br2_2 C4_2 1_555 1_555
Zn6 O5_6 1_555 1_555
O12 C12_4 1_555 1_555
O5_6 H1_4 1_555 1_555
N1_4 Zn6 1_555 1_555
N2_4 Zn6 1_555 1_555
C1_2 C2_4 1_555 1_555
C2_4 N1_4 1_555 1_555
H2_4 C2_4 1_555 1_555
C3_4 N1_4 1_555 1_555
H3_4 C3_4 1_555 1_555
C4_2 C3_4 1_555 1_555
C5_2 C1_2 1_555 1_555
H4_2 C5_2 1_555 1_555
C7_4 C8_4 1_555 1_555
C8_4 H5_4 1_555 1_555
C9_4 C8_4 1_555 1_555
C10_4 N2_4 1_555 1_555
H6_4 C10_4 1_555 1_555
C11_4 N2_4 1_555 1_555
H7_4 C11_4 1_555 1_555
C12_4 C7_4 1_555 1_555
H8_4 O5_6 1_555 1_555
Br3_4 C21_4 1_555 1_555
Br4_4 C16_4 1_555 1_555
Zn8 O5_6 1_555 1_555
O6_4 C18_4 1_555 1_555
O11_2 C18_4 1_555 1_555
N3_4 Zn8 1_555 1_555
N4_4 Zn8 1_555 1_555
C13_4 C14_4 1_555 1_555
C14_4 N3_4 1_555 1_555
H9_4 C14_4 1_555 1_555
C15_4 N3_4 1_555 1_555
H10_4 C15_4 1_555 1_555
C16_4 C15_4 1_555 1_555
C17_4 C13_4 1_555 1_555
H11_4 C17_4 1_555 1_555
C18_4 C13_4 1_555 1_555
C19_4 C20_4 1_555 1_555
C20_4 H12_4 1_555 1_555
C21_4 C20_4 1_555 1_555
C22_4 N4_4 1_555 1_555
H13_4 C22_4 1_555 1_555
C23_4 N4_4 1_555 1_555
H14_4 C23_4 1_555 1_555
C4_2 C5_2 1_555 1_555
C7_4 C11_4 1_555 1_555
C9_4 C10_4 1_555 1_555
C16_4 C17_4 1_555 1_555
C19_4 C23_4 1_555 1_555
C21_4 C22_4 1_555 1_555
Br2_3 C4_3 1_555 1_555
C5_3 C1_3 1_555 1_555
H4_3 C5_3 1_555 1_555
C4_3 C5_3 1_555 1_555
Br2_4 C4_4 1_555 1_555
C5_4 C1_4 1_555 1_555
H4_4 C5_4 1_555 1_555
C4_4 C5_4 1_555 1_555

#END
