
###############################################################################
#
# This file contains modified crystal structure data generated from the
# MOF subset of the Cambridge Structural Database (CSD) v543 
# hosted by the Cambridge Crystallographic Data Centre (CCDC).
#
# This work is licensed under the Creative Commons
# Attribution-NonCommercial-ShareAlike 4.0 International License.
# To view a copy of this license, visit
# http://creativecommons.org/licenses/by-nc-sa/4.0/
# or send a letter to
# Creative Commons, PO Box 1866, Mountain View, CA 94042, USA.
#
# CIF created using the CSD Python API on 29 September 2022
# The structure has been converted into the P1 space group
# The structure has a 3D framework
# The original CSD entry LUPVEZ is in the cubic crystal system
# The framework has been calculated to contain at least 10.0% void space
# The void calculation uses a probe of radius 1.32A, grid spacing 0.4
#
###############################################################################

data_LUPVEZ
_chemical_formula_moiety         '(C240 H144 N120 Ni24 O52)n'
_symmetry_cell_setting           triclinic
_symmetry_space_group_name_H-M   'P 1'
_symmetry_Int_Tables_number      1
_space_group_name_Hall           'P 1'
loop_
_symmetry_equiv_pos_site_id
_symmetry_equiv_pos_as_xyz
1 x,y,z
_cell_length_a                   23.290(3)
_cell_length_b                   23.290(3)
_cell_length_c                   23.290(3)
_cell_angle_alpha                90
_cell_angle_beta                 90
_cell_angle_gamma                90
_cell_volume                     12633.1
loop_
_atom_site_label
_atom_site_type_symbol
_atom_site_fract_x
_atom_site_fract_y
_atom_site_fract_z
N21 N 0.04350(12) 0.25539(9) 0.25539(9)
C49 C 0.01713(12) 0.29884(12) 0.22989(13)
H29 H 0.0363 0.3181 0.2007
C53 C 0.01713(12) 0.22989(13) 0.29884(12)
H31 H 0.0363 0.2007 0.3181
N26 N 0.04350(12) 0.74461(9) 0.74461(9)
C55 C 0.01713(12) 0.70116(12) 0.77011(13)
H33 H 0.0363 0.6819 0.7993
C59 C 0.01713(12) 0.77011(13) 0.70116(12)
H35 H 0.0363 0.7993 0.6819
Ni13 Ni 0.11353(2) 0.78333(2) 0.78333(2)
Ni16 Ni 0.11353(2) 0.21667(2) 0.21667(2)
N6 N 0.25539(9) 0.25539(9) 0.04350(12)
C15 C 0.29884(12) 0.22989(13) 0.01713(12)
H9 H 0.3181 0.2007 0.0363
C19 C 0.22989(13) 0.29884(12) 0.01713(12)
H11 H 0.2007 0.3181 0.0363
Ni18 Ni 0.21667(2) 0.21667(2) 0.11353(2)
Ni1 Ni 0.61353(2) 0.28333(2) 0.28333(2)
O1 O 0.57052(8) 0.27336(9) 0.36068(8)
O2 O 0.67310(10) 0.32690(10) 0.32690(10)
N2 N 0.65933(9) 0.30020(9) 0.20834(8)
N3 N 0.65657(9) 0.27585(9) 0.15692(9)
C2 C 0.68300(13) 0.24450(14) 0.03755(12)
H2 H 0.6526 0.2252 0.0549
C3 C 0.71133(10) 0.28867(10) 0.06570(14)
C4 C 0.69691(11) 0.30309(11) 0.12620(15)
C5 C 0.58776(11) 0.27184(17) 0.41224(11)
C6 C 0.54261(11) 0.26953(19) 0.45739(11)
C7 C 0.48511(14) 0.2682(3) 0.44301(14)
H3 H 0.4745 0.2672 0.4045
O3 O 0.36068(8) 0.27336(9) 0.57052(8)
C8 C 0.41224(11) 0.27184(17) 0.58776(11)
C9 C 0.45739(11) 0.26953(19) 0.54261(11)
C10 C 0.44301(14) 0.2682(3) 0.48511(14)
H4 H 0.4045 0.2672 0.4745
O4 O 0.63932(8) 0.27336(9) 0.42948(8)
C11 C 0.55699(14) 0.2682(3) 0.51489(14)
H5 H 0.5955 0.2672 0.5255
O5 O 0.42948(8) 0.27336(9) 0.63932(8)
C12 C 0.51489(14) 0.2682(3) 0.55699(14)
H6 H 0.5255 0.2672 0.5955
N4 N 0.69980(9) 0.34067(9) 0.20834(8)
N5 N 0.72415(9) 0.34343(9) 0.15692(9)
C14 C 0.75550(14) 0.31700(13) 0.03755(12)
H8 H 0.7748 0.3474 0.0549
Ni2 Ni 0.38647(2) 0.28333(2) 0.71667(2)
O6 O 0.32690(10) 0.32690(10) 0.67310(10)
N7 N 0.34067(9) 0.30020(9) 0.79166(8)
N8 N 0.34343(9) 0.27585(9) 0.84308(9)
C16 C 0.31700(13) 0.24450(14) 0.96245(12)
H10 H 0.3474 0.2252 0.9451
C17 C 0.28867(10) 0.28867(10) 0.93430(14)
C18 C 0.30309(11) 0.30309(11) 0.87380(15)
N9 N 0.30020(9) 0.34067(9) 0.79166(8)
N10 N 0.27585(9) 0.34343(9) 0.84308(9)
C20 C 0.24450(14) 0.31700(13) 0.96245(12)
H12 H 0.2252 0.3474 0.9451
Ni3 Ni 0.28333(2) 0.61353(2) 0.28333(2)
O7 O 0.36068(8) 0.57052(8) 0.27336(9)
N12 N 0.20834(8) 0.65933(9) 0.30020(9)
N13 N 0.15692(9) 0.65657(9) 0.27585(9)
C22 C 0.03755(12) 0.68300(13) 0.24450(14)
H14 H 0.0549 0.6526 0.2252
C23 C 0.06570(14) 0.71133(10) 0.28867(10)
C24 C 0.12620(15) 0.69691(11) 0.30309(11)
C25 C 0.41224(11) 0.58776(11) 0.27184(17)
C26 C 0.45739(11) 0.54261(11) 0.26953(19)
C27 C 0.44301(14) 0.48511(14) 0.2682(3)
H15 H 0.4045 0.4745 0.2672
O8 O 0.57052(8) 0.36068(8) 0.27336(9)
C28 C 0.58776(11) 0.41224(11) 0.27184(17)
C29 C 0.54261(11) 0.45739(11) 0.26953(19)
C30 C 0.48511(14) 0.44301(14) 0.2682(3)
H16 H 0.4745 0.4045 0.2672
O9 O 0.42948(8) 0.63932(8) 0.27336(9)
C31 C 0.51489(14) 0.55699(14) 0.2682(3)
H17 H 0.5255 0.5955 0.2672
O10 O 0.63932(8) 0.42948(8) 0.27336(9)
C32 C 0.55699(14) 0.51489(14) 0.2682(3)
H18 H 0.5955 0.5255 0.2672
N14 N 0.20834(8) 0.69980(9) 0.34067(9)
N15 N 0.15692(9) 0.72415(9) 0.34343(9)
C34 C 0.03755(12) 0.75550(14) 0.31700(13)
H20 H 0.0549 0.7748 0.3474
Ni4 Ni 0.28333(2) 0.38647(2) 0.71667(2)
O11 O 0.36068(8) 0.42948(8) 0.72664(9)
N17 N 0.20834(8) 0.34067(9) 0.69980(9)
N18 N 0.15692(9) 0.34343(9) 0.72415(9)
C36 C 0.03755(12) 0.31700(13) 0.75550(14)
H22 H 0.0549 0.3474 0.7748
C37 C 0.06570(14) 0.28867(10) 0.71133(10)
C38 C 0.12620(15) 0.30309(11) 0.69691(11)
C39 C 0.41224(11) 0.41224(11) 0.72816(17)
C40 C 0.45739(11) 0.45739(11) 0.73047(19)
C41 C 0.44301(14) 0.51489(14) 0.7318(3)
H23 H 0.4045 0.5255 0.7328
O12 O 0.57052(8) 0.63932(8) 0.72664(9)
C42 C 0.58776(11) 0.58776(11) 0.72816(17)
C43 C 0.54261(11) 0.54261(11) 0.73047(19)
C44 C 0.48511(14) 0.55699(14) 0.7318(3)
H24 H 0.4745 0.5955 0.7328
O13 O 0.42948(8) 0.36068(8) 0.72664(9)
C45 C 0.51489(14) 0.44301(14) 0.7318(3)
H25 H 0.5255 0.4045 0.7328
O14 O 0.63932(8) 0.57052(8) 0.72664(9)
C46 C 0.55699(14) 0.48511(14) 0.7318(3)
H26 H 0.5955 0.4745 0.7328
N19 N 0.20834(8) 0.30020(9) 0.65933(9)
N20 N 0.15692(9) 0.27585(9) 0.65657(9)
C48 C 0.03755(12) 0.24450(14) 0.68300(13)
H28 H 0.0549 0.2252 0.6526
Ni5 Ni 0.71667(2) 0.38647(2) 0.28333(2)
N22 N 0.79166(8) 0.34067(9) 0.30020(9)
N23 N 0.84308(9) 0.34343(9) 0.27585(9)
C50 C 0.96245(12) 0.31700(13) 0.24450(14)
H30 H 0.9451 0.3474 0.2252
C51 C 0.93430(14) 0.28867(10) 0.28867(10)
C52 C 0.87380(15) 0.30309(11) 0.30309(11)
N24 N 0.79166(8) 0.30020(9) 0.34067(9)
N25 N 0.84308(9) 0.27585(9) 0.34343(9)
C54 C 0.96245(12) 0.24450(14) 0.31700(13)
H32 H 0.9451 0.2252 0.3474
Ni6 Ni 0.71667(2) 0.61353(2) 0.71667(2)
N27 N 0.79166(8) 0.65933(9) 0.69980(9)
N28 N 0.84308(9) 0.65657(9) 0.72415(9)
C56 C 0.96245(12) 0.68300(13) 0.75550(14)
H34 H 0.9451 0.6526 0.7748
C57 C 0.93430(14) 0.71133(10) 0.71133(10)
C58 C 0.87380(15) 0.69691(11) 0.69691(11)
N29 N 0.79166(8) 0.69980(9) 0.65933(9)
N30 N 0.84308(9) 0.72415(9) 0.65657(9)
C60 C 0.96245(12) 0.75550(14) 0.68300(13)
H36 H 0.9451 0.7748 0.6526
Ni7 Ni 0.38647(2) 0.71667(2) 0.28333(2)
Ni8 Ni 0.61353(2) 0.71667(2) 0.71667(2)
Ni9 Ni 0.28333(2) 0.28333(2) 0.61353(2)
Ni10 Ni 0.71667(2) 0.28333(2) 0.38647(2)
Ni11 Ni 0.28333(2) 0.71667(2) 0.38647(2)
Ni12 Ni 0.71667(2) 0.71667(2) 0.61353(2)
O15 O 0.27336(9) 0.57052(8) 0.36068(8)
O16 O 0.72664(9) 0.42948(8) 0.36068(8)
O17 O 0.27336(9) 0.42948(8) 0.63932(8)
O18 O 0.72664(9) 0.57052(8) 0.63932(8)
O19 O 0.32690(10) 0.67310(10) 0.32690(10)
O20 O 0.67310(10) 0.67310(10) 0.67310(10)
N31 N 0.45650(12) 0.24461(9) 0.75539(9)
N32 N 0.54350(12) 0.24461(9) 0.24461(9)
N33 N 0.75539(9) 0.45650(12) 0.24461(9)
N34 N 0.24461(9) 0.45650(12) 0.75539(9)
N35 N 0.75539(9) 0.54350(12) 0.75539(9)
N36 N 0.24461(9) 0.54350(12) 0.24461(9)
N37 N 0.30020(9) 0.65933(9) 0.20834(8)
N38 N 0.69980(9) 0.65933(9) 0.79166(8)
N39 N 0.65933(9) 0.20834(8) 0.30020(9)
N40 N 0.34067(9) 0.20834(8) 0.69980(9)
N1 N 0.74461(9) 0.25539(9) 0.95650(12)
C1 C 0.70116(12) 0.22989(13) 0.98287(12)
H1 H 0.6819 0.2007 0.9637
C13 C 0.77011(13) 0.29884(12) 0.98287(12)
H7 H 0.7993 0.3181 0.9637
Ni17 Ni 0.78333(2) 0.21667(2) 0.88647(2)
N11 N 0.95650(12) 0.74461(9) 0.25539(9)
C21 C 0.98287(12) 0.70116(12) 0.22989(13)
H13 H 0.9637 0.6819 0.2007
C33 C 0.98287(12) 0.77011(13) 0.29884(12)
H19 H 0.9637 0.7993 0.3181
N16 N 0.95650(12) 0.25539(9) 0.74461(9)
C35 C 0.98287(12) 0.29884(12) 0.77011(13)
H21 H 0.9637 0.3181 0.7993
C47 C 0.98287(12) 0.22989(13) 0.70116(12)
H27 H 0.9637 0.2007 0.6819
Ni14 Ni 0.88647(2) 0.21667(2) 0.78333(2)
Ni15 Ni 0.88647(2) 0.78333(2) 0.21667(2)
N6_2 N 0.74461(9) 0.74461(9) 0.04350(12)
C15_2 C 0.70116(12) 0.77011(13) 0.01713(12)
H9_2 H 0.6819 0.7993 0.0363
C19_2 C 0.77011(13) 0.70116(12) 0.01713(12)
H11_2 H 0.7993 0.6819 0.0363
Ni18_2 Ni 0.78333(2) 0.78333(2) 0.11353(2)
O1_2 O 0.42948(8) 0.72664(9) 0.36068(8)
N2_2 N 0.34067(9) 0.69980(9) 0.20834(8)
N3_2 N 0.34343(9) 0.72415(9) 0.15692(9)
C2_2 C 0.31700(13) 0.75550(14) 0.03755(12)
H2_2 H 0.3474 0.7748 0.0549
C3_2 C 0.28867(10) 0.71133(10) 0.06570(14)
C4_2 C 0.30309(11) 0.69691(11) 0.12620(15)
C5_2 C 0.41224(11) 0.72816(17) 0.41224(11)
C6_2 C 0.45739(11) 0.73047(19) 0.45739(11)
C7_2 C 0.51489(14) 0.7318(3) 0.44301(14)
H3_2 H 0.5255 0.7328 0.4045
O3_2 O 0.63932(8) 0.72664(9) 0.57052(8)
C8_2 C 0.58776(11) 0.72816(17) 0.58776(11)
C9_2 C 0.54261(11) 0.73047(19) 0.54261(11)
C10_2 C 0.55699(14) 0.7318(3) 0.48511(14)
H4_2 H 0.5955 0.7328 0.4745
O4_2 O 0.36068(8) 0.72664(9) 0.42948(8)
C11_2 C 0.44301(14) 0.7318(3) 0.51489(14)
H5_2 H 0.4045 0.7328 0.5255
O5_2 O 0.57052(8) 0.72664(9) 0.63932(8)
C12_2 C 0.48511(14) 0.7318(3) 0.55699(14)
H6_2 H 0.4745 0.7328 0.5955
N5_2 N 0.27585(9) 0.65657(9) 0.15692(9)
C14_2 C 0.24450(14) 0.68300(13) 0.03755(12)
H8_2 H 0.2252 0.6526 0.0549
N7_2 N 0.65933(9) 0.69980(9) 0.79166(8)
N8_2 N 0.65657(9) 0.72415(9) 0.84308(9)
C16_2 C 0.68300(13) 0.75550(14) 0.96245(12)
H10_2 H 0.6526 0.7748 0.9451
C17_2 C 0.71133(10) 0.71133(10) 0.93430(14)
C18_2 C 0.69691(11) 0.69691(11) 0.87380(15)
N10_2 N 0.72415(9) 0.65657(9) 0.84308(9)
C20_2 C 0.75550(14) 0.68300(13) 0.96245(12)
H12_2 H 0.7748 0.6526 0.9451
N31_2 N 0.54350(12) 0.75539(9) 0.75539(9)
N32_2 N 0.45650(12) 0.75539(9) 0.24461(9)
N39_2 N 0.34067(9) 0.79166(8) 0.30020(9)
N40_2 N 0.65933(9) 0.79166(8) 0.69980(9)
N1_2 N 0.25539(9) 0.74461(9) 0.95650(12)
C1_2 C 0.29884(12) 0.77011(13) 0.98287(12)
H1_2 H 0.3181 0.7993 0.9637
C13_2 C 0.22989(13) 0.70116(12) 0.98287(12)
H7_2 H 0.2007 0.6819 0.9637
Ni17_2 Ni 0.21667(2) 0.78333(2) 0.88647(2)
N21_2 N 0.25539(9) 0.04350(12) 0.25539(9)
C49_2 C 0.22989(13) 0.01713(12) 0.29884(12)
H29_2 H 0.2007 0.0363 0.3181
C53_2 C 0.29884(12) 0.01713(12) 0.22989(13)
H31_2 H 0.3181 0.0363 0.2007
N26_2 N 0.74461(9) 0.04350(12) 0.74461(9)
C55_2 C 0.77011(13) 0.01713(12) 0.70116(12)
H33_2 H 0.7993 0.0363 0.6819
C59_2 C 0.70116(12) 0.01713(12) 0.77011(13)
H35_2 H 0.6819 0.0363 0.7993
Ni13_2 Ni 0.78333(2) 0.11353(2) 0.78333(2)
Ni16_2 Ni 0.21667(2) 0.11353(2) 0.21667(2)
O7_2 O 0.27336(9) 0.36068(8) 0.57052(8)
N12_2 N 0.30020(9) 0.20834(8) 0.65933(9)
N13_2 N 0.27585(9) 0.15692(9) 0.65657(9)
C22_2 C 0.24450(14) 0.03755(12) 0.68300(13)
H14_2 H 0.2252 0.0549 0.6526
C23_2 C 0.28867(10) 0.06570(14) 0.71133(10)
C24_2 C 0.30309(11) 0.12620(15) 0.69691(11)
C25_2 C 0.27184(17) 0.41224(11) 0.58776(11)
C26_2 C 0.26953(19) 0.45739(11) 0.54261(11)
C27_2 C 0.2682(3) 0.44301(14) 0.48511(14)
H15_2 H 0.2672 0.4045 0.4745
C28_2 C 0.27184(17) 0.58776(11) 0.41224(11)
C29_2 C 0.26953(19) 0.54261(11) 0.45739(11)
C30_2 C 0.2682(3) 0.48511(14) 0.44301(14)
H16_2 H 0.2672 0.4745 0.4045
C31_2 C 0.2682(3) 0.51489(14) 0.55699(14)
H17_2 H 0.2672 0.5255 0.5955
O10_2 O 0.27336(9) 0.63932(8) 0.42948(8)
C32_2 C 0.2682(3) 0.55699(14) 0.51489(14)
H18_2 H 0.2672 0.5955 0.5255
N15_2 N 0.34343(9) 0.15692(9) 0.72415(9)
C34_2 C 0.31700(13) 0.03755(12) 0.75550(14)
H20_2 H 0.3474 0.0549 0.7748
O11_2 O 0.72664(9) 0.36068(8) 0.42948(8)
N17_2 N 0.69980(9) 0.20834(8) 0.34067(9)
N18_2 N 0.72415(9) 0.15692(9) 0.34343(9)
C36_2 C 0.75550(14) 0.03755(12) 0.31700(13)
H22_2 H 0.7748 0.0549 0.3474
C37_2 C 0.71133(10) 0.06570(14) 0.28867(10)
C38_2 C 0.69691(11) 0.12620(15) 0.30309(11)
C39_2 C 0.72816(17) 0.41224(11) 0.41224(11)
C40_2 C 0.73047(19) 0.45739(11) 0.45739(11)
C41_2 C 0.7318(3) 0.44301(14) 0.51489(14)
H23_2 H 0.7328 0.4045 0.5255
C42_2 C 0.72816(17) 0.58776(11) 0.58776(11)
C43_2 C 0.73047(19) 0.54261(11) 0.54261(11)
C44_2 C 0.7318(3) 0.48511(14) 0.55699(14)
H24_2 H 0.7328 0.4745 0.5955
C45_2 C 0.7318(3) 0.51489(14) 0.44301(14)
H25_2 H 0.7328 0.5255 0.4045
O14_2 O 0.72664(9) 0.63932(8) 0.57052(8)
C46_2 C 0.7318(3) 0.55699(14) 0.48511(14)
H26_2 H 0.7328 0.5955 0.4745
N20_2 N 0.65657(9) 0.15692(9) 0.27585(9)
C48_2 C 0.68300(13) 0.03755(12) 0.24450(14)
H28_2 H 0.6526 0.0549 0.2252
N22_2 N 0.30020(9) 0.79166(8) 0.34067(9)
N23_2 N 0.27585(9) 0.84308(9) 0.34343(9)
C50_2 C 0.24450(14) 0.96245(12) 0.31700(13)
H30_2 H 0.2252 0.9451 0.3474
C51_2 C 0.28867(10) 0.93430(14) 0.28867(10)
C52_2 C 0.30309(11) 0.87380(15) 0.30309(11)
N25_2 N 0.34343(9) 0.84308(9) 0.27585(9)
C54_2 C 0.31700(13) 0.96245(12) 0.24450(14)
H32_2 H 0.3474 0.9451 0.2252
N27_2 N 0.69980(9) 0.79166(8) 0.65933(9)
N28_2 N 0.72415(9) 0.84308(9) 0.65657(9)
C56_2 C 0.75550(14) 0.96245(12) 0.68300(13)
H34_2 H 0.7748 0.9451 0.6526
C57_2 C 0.71133(10) 0.93430(14) 0.71133(10)
C58_2 C 0.69691(11) 0.87380(15) 0.69691(11)
N30_2 N 0.65657(9) 0.84308(9) 0.72415(9)
C60_2 C 0.68300(13) 0.96245(12) 0.75550(14)
H36_2 H 0.6526 0.9451 0.7748
N33_2 N 0.24461(9) 0.75539(9) 0.45650(12)
N34_2 N 0.75539(9) 0.24461(9) 0.45650(12)
N35_2 N 0.75539(9) 0.75539(9) 0.54350(12)
N36_2 N 0.24461(9) 0.24461(9) 0.54350(12)
N11_2 N 0.25539(9) 0.95650(12) 0.74461(9)
C21_2 C 0.22989(13) 0.98287(12) 0.70116(12)
H13_2 H 0.2007 0.9637 0.6819
C33_2 C 0.29884(12) 0.98287(12) 0.77011(13)
H19_2 H 0.3181 0.9637 0.7993
N16_2 N 0.74461(9) 0.95650(12) 0.25539(9)
C35_2 C 0.77011(13) 0.98287(12) 0.29884(12)
H21_2 H 0.7993 0.9637 0.3181
C47_2 C 0.70116(12) 0.98287(12) 0.22989(13)
H27_2 H 0.6819 0.9637 0.2007
Ni14_2 Ni 0.78333(2) 0.88647(2) 0.21667(2)
Ni15_2 Ni 0.21667(2) 0.88647(2) 0.78333(2)
O12_2 O 0.07052(8) 0.13932(8) 0.22664(9)
C42_3 C 0.08776(11) 0.08776(11) 0.22816(17)
C43_3 C 0.04261(11) 0.04261(11) 0.23047(19)
O14_3 O 0.13932(8) 0.07052(8) 0.22664(9)
N27_3 N 0.29166(8) 0.15933(9) 0.19980(9)
N28_3 N 0.34308(9) 0.15657(9) 0.22415(9)
C55_3 C 0.51713(12) 0.20116(12) 0.27011(13)
H33_3 H 0.5363 0.1819 0.2993
C56_3 C 0.46245(12) 0.18300(13) 0.25550(14)
H34_3 H 0.4451 0.1526 0.2748
C57_3 C 0.43430(14) 0.21133(10) 0.21133(10)
C58_3 C 0.37380(15) 0.19691(11) 0.19691(11)
N29_2 N 0.29166(8) 0.19980(9) 0.15933(9)
N30_3 N 0.34308(9) 0.22415(9) 0.15657(9)
C59_3 C 0.51713(12) 0.27011(13) 0.20116(12)
H35_3 H 0.5363 0.2993 0.1819
C60_3 C 0.46245(12) 0.25550(14) 0.18300(13)
H36_3 H 0.4451 0.2748 0.1526
O18_2 O 0.22664(9) 0.07052(8) 0.13932(8)
O20_2 O 0.17310(10) 0.17310(10) 0.17310(10)
N38_2 N 0.19980(9) 0.15933(9) 0.29166(8)
O1_3 O 0.07052(8) 0.77336(9) 0.86068(8)
O2_2 O 0.17310(10) 0.82690(10) 0.82690(10)
N2_3 N 0.15933(9) 0.80020(9) 0.70834(8)
N3_3 N 0.15657(9) 0.77585(9) 0.65692(9)
C1_3 C 0.20116(12) 0.72989(13) 0.48287(12)
H1_3 H 0.1819 0.7007 0.4637
C2_3 C 0.18300(13) 0.74450(14) 0.53755(12)
H2_3 H 0.1526 0.7252 0.5549
C3_3 C 0.21133(10) 0.78867(10) 0.56570(14)
C4_3 C 0.19691(11) 0.80309(11) 0.62620(15)
C5_3 C 0.08776(11) 0.77184(17) 0.91224(11)
C6_3 C 0.04261(11) 0.76953(19) 0.95739(11)
O4_3 O 0.13932(8) 0.77336(9) 0.92948(8)
N4_2 N 0.19980(9) 0.84067(9) 0.70834(8)
N5_3 N 0.22415(9) 0.84343(9) 0.65692(9)
C13_3 C 0.27011(13) 0.79884(12) 0.48287(12)
H7_3 H 0.2993 0.8181 0.4637
C14_3 C 0.25550(14) 0.81700(13) 0.53755(12)
H8_3 H 0.2748 0.8474 0.5549
O8_2 O 0.07052(8) 0.86068(8) 0.77336(9)
C28_3 C 0.08776(11) 0.91224(11) 0.77184(17)
C29_3 C 0.04261(11) 0.95739(11) 0.76953(19)
O10_3 O 0.13932(8) 0.92948(8) 0.77336(9)
N22_3 N 0.29166(8) 0.84067(9) 0.80020(9)
N23_3 N 0.34308(9) 0.84343(9) 0.77585(9)
C49_3 C 0.51713(12) 0.79884(12) 0.72989(13)
H29_3 H 0.5363 0.8181 0.7007
C50_3 C 0.46245(12) 0.81700(13) 0.74450(14)
H30_3 H 0.4451 0.8474 0.7252
C51_3 C 0.43430(14) 0.78867(10) 0.78867(10)
C52_3 C 0.37380(15) 0.80309(11) 0.80309(11)
N24_2 N 0.29166(8) 0.80020(9) 0.84067(9)
N25_3 N 0.34308(9) 0.77585(9) 0.84343(9)
C53_3 C 0.51713(12) 0.72989(13) 0.79884(12)
H31_3 H 0.5363 0.7007 0.8181
C54_3 C 0.46245(12) 0.74450(14) 0.81700(13)
H32_3 H 0.4451 0.7252 0.8474
O16_2 O 0.22664(9) 0.92948(8) 0.86068(8)
N39_3 N 0.15933(9) 0.70834(8) 0.80020(9)
O7_3 O 0.86068(8) 0.07052(8) 0.77336(9)
N12_3 N 0.70834(8) 0.15933(9) 0.80020(9)
N13_3 N 0.65692(9) 0.15657(9) 0.77585(9)
C21_3 C 0.48287(12) 0.20116(12) 0.72989(13)
H13_3 H 0.4637 0.1819 0.7007
C22_3 C 0.53755(12) 0.18300(13) 0.74450(14)
H14_3 H 0.5549 0.1526 0.7252
C23_3 C 0.56570(14) 0.21133(10) 0.78867(10)
C24_3 C 0.62620(15) 0.19691(11) 0.80309(11)
C25_3 C 0.91224(11) 0.08776(11) 0.77184(17)
C26_3 C 0.95739(11) 0.04261(11) 0.76953(19)
O9_2 O 0.92948(8) 0.13932(8) 0.77336(9)
N14_2 N 0.70834(8) 0.19980(9) 0.84067(9)
N15_3 N 0.65692(9) 0.22415(9) 0.84343(9)
C33_3 C 0.48287(12) 0.27011(13) 0.79884(12)
H19_3 H 0.4637 0.2993 0.8181
C34_3 C 0.53755(12) 0.25550(14) 0.81700(13)
H20_3 H 0.5549 0.2748 0.8474
O15_2 O 0.77336(9) 0.07052(8) 0.86068(8)
O19_2 O 0.82690(10) 0.17310(10) 0.82690(10)
N37_2 N 0.80020(9) 0.15933(9) 0.70834(8)
O3_3 O 0.86068(8) 0.77336(9) 0.07052(8)
C8_3 C 0.91224(11) 0.77184(17) 0.08776(11)
C9_3 C 0.95739(11) 0.76953(19) 0.04261(11)
O5_3 O 0.92948(8) 0.77336(9) 0.13932(8)
O6_2 O 0.82690(10) 0.82690(10) 0.17310(10)
N7_3 N 0.84067(9) 0.80020(9) 0.29166(8)
N8_3 N 0.84343(9) 0.77585(9) 0.34308(9)
C15_3 C 0.79884(12) 0.72989(13) 0.51713(12)
H9_3 H 0.8181 0.7007 0.5363
C16_3 C 0.81700(13) 0.74450(14) 0.46245(12)
H10_3 H 0.8474 0.7252 0.4451
C17_3 C 0.78867(10) 0.78867(10) 0.43430(14)
C18_3 C 0.80309(11) 0.80309(11) 0.37380(15)
N9_2 N 0.80020(9) 0.84067(9) 0.29166(8)
N10_3 N 0.77585(9) 0.84343(9) 0.34308(9)
C19_3 C 0.72989(13) 0.79884(12) 0.51713(12)
H11_3 H 0.7007 0.8181 0.5363
C20_3 C 0.74450(14) 0.81700(13) 0.46245(12)
H12_3 H 0.7252 0.8474 0.4451
O11_3 O 0.86068(8) 0.92948(8) 0.22664(9)
N17_3 N 0.70834(8) 0.84067(9) 0.19980(9)
N18_3 N 0.65692(9) 0.84343(9) 0.22415(9)
C35_3 C 0.48287(12) 0.79884(12) 0.27011(13)
H21_3 H 0.4637 0.8181 0.2993
C36_3 C 0.53755(12) 0.81700(13) 0.25550(14)
H22_3 H 0.5549 0.8474 0.2748
C37_3 C 0.56570(14) 0.78867(10) 0.21133(10)
C38_3 C 0.62620(15) 0.80309(11) 0.19691(11)
C39_3 C 0.91224(11) 0.91224(11) 0.22816(17)
C40_3 C 0.95739(11) 0.95739(11) 0.23047(19)
O13_2 O 0.92948(8) 0.86068(8) 0.22664(9)
N19_2 N 0.70834(8) 0.80020(9) 0.15933(9)
N20_3 N 0.65692(9) 0.77585(9) 0.15657(9)
C47_3 C 0.48287(12) 0.72989(13) 0.20116(12)
H27_3 H 0.4637 0.7007 0.1819
C48_3 C 0.53755(12) 0.74450(14) 0.18300(13)
H28_3 H 0.5549 0.7252 0.1526
O17_2 O 0.77336(9) 0.92948(8) 0.13932(8)
N40_3 N 0.84067(9) 0.70834(8) 0.19980(9)
O3_4 O 0.13932(8) 0.22664(9) 0.07052(8)
C8_4 C 0.08776(11) 0.22816(17) 0.08776(11)
C9_4 C 0.04261(11) 0.23047(19) 0.04261(11)
O5_4 O 0.07052(8) 0.22664(9) 0.13932(8)
N7_4 N 0.15933(9) 0.19980(9) 0.29166(8)
N8_4 N 0.15657(9) 0.22415(9) 0.34308(9)
C15_4 C 0.20116(12) 0.27011(13) 0.51713(12)
H9_4 H 0.1819 0.2993 0.5363
C16_4 C 0.18300(13) 0.25550(14) 0.46245(12)
H10_4 H 0.1526 0.2748 0.4451
C17_4 C 0.21133(10) 0.21133(10) 0.43430(14)
C18_4 C 0.19691(11) 0.19691(11) 0.37380(15)
N10_4 N 0.22415(9) 0.15657(9) 0.34308(9)
C19_4 C 0.27011(13) 0.20116(12) 0.51713(12)
H11_4 H 0.2993 0.1819 0.5363
C20_4 C 0.25550(14) 0.18300(13) 0.46245(12)
H12_4 H 0.2748 0.1526 0.4451
N40_4 N 0.15933(9) 0.29166(8) 0.19980(9)
O1_4 O 0.92948(8) 0.22664(9) 0.86068(8)
N2_4 N 0.84067(9) 0.19980(9) 0.70834(8)
N3_4 N 0.84343(9) 0.22415(9) 0.65692(9)
C1_4 C 0.79884(12) 0.27011(13) 0.48287(12)
H1_4 H 0.8181 0.2993 0.4637
C2_4 C 0.81700(13) 0.25550(14) 0.53755(12)
H2_4 H 0.8474 0.2748 0.5549
C3_4 C 0.78867(10) 0.21133(10) 0.56570(14)
C4_4 C 0.80309(11) 0.19691(11) 0.62620(15)
C5_4 C 0.91224(11) 0.22816(17) 0.91224(11)
C6_4 C 0.95739(11) 0.23047(19) 0.95739(11)
O4_4 O 0.86068(8) 0.22664(9) 0.92948(8)
N5_4 N 0.77585(9) 0.15657(9) 0.65692(9)
C13_4 C 0.72989(13) 0.20116(12) 0.48287(12)
H7_4 H 0.7007 0.1819 0.4637
C14_4 C 0.74450(14) 0.18300(13) 0.53755(12)
H8_4 H 0.7252 0.1526 0.5549
N39_4 N 0.84067(9) 0.29166(8) 0.80020(9)
C42_4 C 0.22816(17) 0.08776(11) 0.08776(11)
C43_4 C 0.23047(19) 0.04261(11) 0.04261(11)
O14_4 O 0.22664(9) 0.13932(8) 0.07052(8)
N27_4 N 0.19980(9) 0.29166(8) 0.15933(9)
N28_4 N 0.22415(9) 0.34308(9) 0.15657(9)
C55_4 C 0.27011(13) 0.51713(12) 0.20116(12)
H33_4 H 0.2993 0.5363 0.1819
C56_4 C 0.25550(14) 0.46245(12) 0.18300(13)
H34_4 H 0.2748 0.4451 0.1526
C57_4 C 0.21133(10) 0.43430(14) 0.21133(10)
C58_4 C 0.19691(11) 0.37380(15) 0.19691(11)
N30_4 N 0.15657(9) 0.34308(9) 0.22415(9)
C59_4 C 0.20116(12) 0.51713(12) 0.27011(13)
H35_4 H 0.1819 0.5363 0.2993
C60_4 C 0.18300(13) 0.46245(12) 0.25550(14)
H36_4 H 0.1526 0.4451 0.2748
O11_4 O 0.22664(9) 0.86068(8) 0.92948(8)
N17_4 N 0.19980(9) 0.70834(8) 0.84067(9)
N18_4 N 0.22415(9) 0.65692(9) 0.84343(9)
C35_4 C 0.27011(13) 0.48287(12) 0.79884(12)
H21_4 H 0.2993 0.4637 0.8181
C36_4 C 0.25550(14) 0.53755(12) 0.81700(13)
H22_4 H 0.2748 0.5549 0.8474
C37_4 C 0.21133(10) 0.56570(14) 0.78867(10)
C38_4 C 0.19691(11) 0.62620(15) 0.80309(11)
C39_4 C 0.22816(17) 0.91224(11) 0.91224(11)
C40_4 C 0.23047(19) 0.95739(11) 0.95739(11)
N20_4 N 0.15657(9) 0.65692(9) 0.77585(9)
C47_4 C 0.20116(12) 0.48287(12) 0.72989(13)
H27_4 H 0.1819 0.4637 0.7007
C48_4 C 0.18300(13) 0.53755(12) 0.74450(14)
H28_4 H 0.1526 0.5549 0.7252
C28_4 C 0.77184(17) 0.08776(11) 0.91224(11)
C29_4 C 0.76953(19) 0.04261(11) 0.95739(11)
O10_4 O 0.77336(9) 0.13932(8) 0.92948(8)
N22_4 N 0.80020(9) 0.29166(8) 0.84067(9)
N23_4 N 0.77585(9) 0.34308(9) 0.84343(9)
C49_4 C 0.72989(13) 0.51713(12) 0.79884(12)
H29_4 H 0.7007 0.5363 0.8181
C50_4 C 0.74450(14) 0.46245(12) 0.81700(13)
H30_4 H 0.7252 0.4451 0.8474
C51_4 C 0.78867(10) 0.43430(14) 0.78867(10)
C52_4 C 0.80309(11) 0.37380(15) 0.80309(11)
N25_4 N 0.84343(9) 0.34308(9) 0.77585(9)
C53_4 C 0.79884(12) 0.51713(12) 0.72989(13)
H31_4 H 0.8181 0.5363 0.7007
C54_4 C 0.81700(13) 0.46245(12) 0.74450(14)
H32_4 H 0.8474 0.4451 0.7252
O7_4 O 0.77336(9) 0.86068(8) 0.07052(8)
N12_4 N 0.80020(9) 0.70834(8) 0.15933(9)
N13_4 N 0.77585(9) 0.65692(9) 0.15657(9)
C21_4 C 0.72989(13) 0.48287(12) 0.20116(12)
H13_4 H 0.7007 0.4637 0.1819
C22_4 C 0.74450(14) 0.53755(12) 0.18300(13)
H14_4 H 0.7252 0.5549 0.1526
C23_4 C 0.78867(10) 0.56570(14) 0.21133(10)
C24_4 C 0.80309(11) 0.62620(15) 0.19691(11)
C25_4 C 0.77184(17) 0.91224(11) 0.08776(11)
C26_4 C 0.76953(19) 0.95739(11) 0.04261(11)
N15_4 N 0.84343(9) 0.65692(9) 0.22415(9)
C33_4 C 0.79884(12) 0.48287(12) 0.27011(13)
H19_4 H 0.8181 0.4637 0.2993
C34_4 C 0.81700(13) 0.53755(12) 0.25550(14)
H20_4 H 0.8474 0.5549 0.2748
C31_3 C 0.01489(14) 0.05699(14) 0.7682(3)
H17_3 H 0.0255 0.0955 0.7672
C32_3 C 0.05699(14) 0.01489(14) 0.7682(3)
H18_3 H 0.0955 0.0255 0.7672
C7_3 C 0.01489(14) 0.2318(3) 0.94301(14)
H3_3 H 0.0255 0.2328 0.9045
C10_3 C 0.05699(14) 0.2318(3) 0.98511(14)
H4_3 H 0.0955 0.2328 0.9745
C45_3 C 0.2318(3) 0.01489(14) 0.94301(14)
H25_3 H 0.2328 0.0255 0.9045
C46_3 C 0.2318(3) 0.05699(14) 0.98511(14)
H26_3 H 0.2328 0.0955 0.9745
C11_3 C 0.05699(14) 0.7682(3) 0.01489(14)
H5_3 H 0.0955 0.7672 0.0255
C12_3 C 0.01489(14) 0.7682(3) 0.05699(14)
H6_3 H 0.0255 0.7672 0.0955
C45_4 C 0.01489(14) 0.94301(14) 0.2318(3)
H25_4 H 0.0255 0.9045 0.2328
C46_4 C 0.05699(14) 0.98511(14) 0.2318(3)
H26_4 H 0.0955 0.9745 0.2328
C41_3 C 0.2318(3) 0.94301(14) 0.01489(14)
H23_3 H 0.2328 0.9045 0.0255
C44_3 C 0.2318(3) 0.98511(14) 0.05699(14)
H24_3 H 0.2328 0.9745 0.0955
C41_4 C 0.94301(14) 0.01489(14) 0.2318(3)
H23_4 H 0.9045 0.0255 0.2328
C44_4 C 0.98511(14) 0.05699(14) 0.2318(3)
H24_4 H 0.9745 0.0955 0.2328
C11_4 C 0.94301(14) 0.2318(3) 0.01489(14)
H5_4 H 0.9045 0.2328 0.0255
C12_4 C 0.98511(14) 0.2318(3) 0.05699(14)
H6_4 H 0.9745 0.2328 0.0955
C31_4 C 0.7682(3) 0.01489(14) 0.05699(14)
H17_4 H 0.7672 0.0255 0.0955
C32_4 C 0.7682(3) 0.05699(14) 0.01489(14)
H18_4 H 0.7672 0.0955 0.0255
C7_4 C 0.98511(14) 0.7682(3) 0.94301(14)
H3_4 H 0.9745 0.7672 0.9045
C10_4 C 0.94301(14) 0.7682(3) 0.98511(14)
H4_4 H 0.9045 0.7672 0.9745
C27_3 C 0.94301(14) 0.98511(14) 0.7682(3)
H15_3 H 0.9045 0.9745 0.7672
C30_3 C 0.98511(14) 0.94301(14) 0.7682(3)
H16_3 H 0.9745 0.9045 0.7672
C27_4 C 0.7682(3) 0.94301(14) 0.98511(14)
H15_4 H 0.7672 0.9045 0.9745
C30_4 C 0.7682(3) 0.98511(14) 0.94301(14)
H16_4 H 0.7672 0.9745 0.9045
loop_
_geom_bond_atom_site_label_1
_geom_bond_atom_site_label_2
_geom_bond_site_symmetry_1
_geom_bond_site_symmetry_2
N21 C49 1_555 1_555
C49 H29 1_555 1_555
C53 N21 1_555 1_555
H31 C53 1_555 1_555
N26 C55 1_555 1_555
C55 H33 1_555 1_555
C59 N26 1_555 1_555
H35 C59 1_555 1_555
Ni13 N26 1_555 1_555
Ni16 N21 1_555 1_555
N6 C15 1_555 1_555
C15 H9 1_555 1_555
C19 N6 1_555 1_555
H11 C19 1_555 1_555
Ni18 N6 1_555 1_555
Ni1 O1 1_555 1_555
O1 C5 1_555 1_555
O2 Ni1 1_555 1_555
N2 Ni1 1_555 1_555
N3 N2 1_555 1_555
H2 C2 1_555 1_555
C3 C2 1_555 1_555
C4 N3 1_555 1_555
C5 C6 1_555 1_555
C6 C7 1_555 1_555
C7 H3 1_555 1_555
O3 C8 1_555 1_555
C8 C9 1_555 1_555
C9 C10 1_555 1_555
C10 C7 1_555 1_555
H4 C10 1_555 1_555
O4 C5 1_555 1_555
C11 C6 1_555 1_555
H5 C11 1_555 1_555
O5 C8 1_555 1_555
C12 C9 1_555 1_555
H6 C12 1_555 1_555
N4 N2 1_555 1_555
N5 C4 1_555 1_555
C14 C3 1_555 1_555
H8 C14 1_555 1_555
Ni2 O5 1_555 1_555
O6 Ni2 1_555 1_555
N7 Ni2 1_555 1_555
N8 N7 1_555 1_555
H10 C16 1_555 1_555
C17 C16 1_555 1_555
C18 N8 1_555 1_555
N9 N7 1_555 1_555
N10 C18 1_555 1_555
C20 C17 1_555 1_555
H12 C20 1_555 1_555
Ni3 O7 1_555 1_555
O7 C25 1_555 1_555
N12 Ni3 1_555 1_555
N13 N12 1_555 1_555
H14 C22 1_555 1_555
C23 C22 1_555 1_555
C24 N13 1_555 1_555
C25 C26 1_555 1_555
C26 C27 1_555 1_555
C27 H15 1_555 1_555
O8 Ni1 1_555 1_555
C28 O8 1_555 1_555
C29 C28 1_555 1_555
C30 C27 1_555 1_555
H16 C30 1_555 1_555
O9 C25 1_555 1_555
C31 C26 1_555 1_555
H17 C31 1_555 1_555
O10 C28 1_555 1_555
C32 C29 1_555 1_555
H18 C32 1_555 1_555
N14 N12 1_555 1_555
N15 C24 1_555 1_555
C34 C23 1_555 1_555
H20 C34 1_555 1_555
Ni4 O6 1_555 1_555
O11 Ni4 1_555 1_555
N17 Ni4 1_555 1_555
N18 N17 1_555 1_555
H22 C36 1_555 1_555
C37 C36 1_555 1_555
C38 N18 1_555 1_555
C39 O11 1_555 1_555
C40 C39 1_555 1_555
C41 C40 1_555 1_555
H23 C41 1_555 1_555
O12 C42 1_555 1_555
C42 C43 1_555 1_555
C43 C44 1_555 1_555
C44 C41 1_555 1_555
H24 C44 1_555 1_555
O13 Ni2 1_555 1_555
C45 C40 1_555 1_555
H25 C45 1_555 1_555
O14 C42 1_555 1_555
C46 C43 1_555 1_555
H26 C46 1_555 1_555
N19 N17 1_555 1_555
N20 C38 1_555 1_555
C48 C37 1_555 1_555
H28 C48 1_555 1_555
Ni5 O2 1_555 1_555
N22 Ni5 1_555 1_555
N23 N22 1_555 1_555
H30 C50 1_555 1_555
C51 C50 1_555 1_555
C52 N23 1_555 1_555
N24 N22 1_555 1_555
N25 C52 1_555 1_555
C54 C51 1_555 1_555
H32 C54 1_555 1_555
Ni6 O14 1_555 1_555
N27 Ni6 1_555 1_555
N28 N27 1_555 1_555
H34 C56 1_555 1_555
C57 C56 1_555 1_555
C58 N28 1_555 1_555
N29 N27 1_555 1_555
N30 C58 1_555 1_555
C60 C57 1_555 1_555
H36 C60 1_555 1_555
Ni7 O9 1_555 1_555
Ni8 O12 1_555 1_555
Ni9 O3 1_555 1_555
Ni10 O2 1_555 1_555
Ni11 N14 1_555 1_555
Ni12 N29 1_555 1_555
O15 Ni3 1_555 1_555
O16 Ni5 1_555 1_555
O17 Ni4 1_555 1_555
O18 Ni6 1_555 1_555
O19 Ni3 1_555 1_555
O20 Ni6 1_555 1_555
N31 Ni2 1_555 1_555
N32 Ni1 1_555 1_555
N33 Ni5 1_555 1_555
N34 Ni4 1_555 1_555
N35 Ni6 1_555 1_555
N36 Ni3 1_555 1_555
N37 Ni3 1_555 1_555
N38 Ni6 1_555 1_555
N39 Ni1 1_555 1_555
N40 Ni2 1_555 1_555
C3 C4 1_555 1_555
O4 Ni10 1_555 1_555
C11 C12 1_555 1_555
N4 N5 1_555 1_555
N4 Ni5 1_555 1_555
O6 Ni9 1_555 1_555
C17 C18 1_555 1_555
N9 N10 1_555 1_555
N9 Ni4 1_555 1_555
C23 C24 1_555 1_555
C29 C30 1_555 1_555
C31 C32 1_555 1_555
O10 Ni5 1_555 1_555
N14 N15 1_555 1_555
C37 C38 1_555 1_555
C39 O13 1_555 1_555
C45 C46 1_555 1_555
N19 N20 1_555 1_555
N19 Ni9 1_555 1_555
C51 C52 1_555 1_555
N24 N25 1_555 1_555
N24 Ni10 1_555 1_555
C57 C58 1_555 1_555
N29 N30 1_555 1_555
Ni7 O19 1_555 1_555
Ni8 O20 1_555 1_555
Ni11 O19 1_555 1_555
Ni12 O20 1_555 1_555
N1 C1 1_555 1_555
C1 H1 1_555 1_555
C13 N1 1_555 1_555
H7 C13 1_555 1_555
Ni17 N1 1_555 1_555
N11 C21 1_555 1_555
C21 H13 1_555 1_555
C33 N11 1_555 1_555
H19 C33 1_555 1_555
N16 C35 1_555 1_555
C35 H21 1_555 1_555
C47 N16 1_555 1_555
H27 C47 1_555 1_555
Ni14 N16 1_555 1_555
Ni15 N11 1_555 1_555
N6_2 C15_2 1_555 1_555
C15_2 H9_2 1_555 1_555
C19_2 N6_2 1_555 1_555
H11_2 C19_2 1_555 1_555
Ni18_2 N6_2 1_555 1_555
Ni7 O1_2 1_555 1_555
O1_2 C5_2 1_555 1_555
N2_2 Ni7 1_555 1_555
N3_2 N2_2 1_555 1_555
H2_2 C2_2 1_555 1_555
C3_2 C2_2 1_555 1_555
C4_2 N3_2 1_555 1_555
C5_2 C6_2 1_555 1_555
C6_2 C7_2 1_555 1_555
C7_2 H3_2 1_555 1_555
O3_2 C8_2 1_555 1_555
C8_2 C9_2 1_555 1_555
C9_2 C10_2 1_555 1_555
C10_2 C7_2 1_555 1_555
H4_2 C10_2 1_555 1_555
O4_2 C5_2 1_555 1_555
C11_2 C6_2 1_555 1_555
H5_2 C11_2 1_555 1_555
O5_2 C8_2 1_555 1_555
C12_2 C9_2 1_555 1_555
H6_2 C12_2 1_555 1_555
N37 N2_2 1_555 1_555
N5_2 C4_2 1_555 1_555
C14_2 C3_2 1_555 1_555
H8_2 C14_2 1_555 1_555
Ni8 O5_2 1_555 1_555
N7_2 Ni8 1_555 1_555
N8_2 N7_2 1_555 1_555
H10_2 C16_2 1_555 1_555
C17_2 C16_2 1_555 1_555
C18_2 N8_2 1_555 1_555
N38 N7_2 1_555 1_555
N10_2 C18_2 1_555 1_555
C20_2 C17_2 1_555 1_555
H12_2 C20_2 1_555 1_555
Ni12 O3_2 1_555 1_555
N31_2 Ni8 1_555 1_555
N32_2 Ni7 1_555 1_555
N39_2 Ni7 1_555 1_555
N40_2 Ni8 1_555 1_555
C3_2 C4_2 1_555 1_555
O4_2 Ni11 1_555 1_555
C11_2 C12_2 1_555 1_555
N37 N5_2 1_555 1_555
C17_2 C18_2 1_555 1_555
N38 N10_2 1_555 1_555
N1_2 C1_2 1_555 1_555
C1_2 H1_2 1_555 1_555
C13_2 N1_2 1_555 1_555
H7_2 C13_2 1_555 1_555
Ni17_2 N1_2 1_555 1_555
N21_2 C49_2 1_555 1_555
C49_2 H29_2 1_555 1_555
C53_2 N21_2 1_555 1_555
H31_2 C53_2 1_555 1_555
N26_2 C55_2 1_555 1_555
C55_2 H33_2 1_555 1_555
C59_2 N26_2 1_555 1_555
H35_2 C59_2 1_555 1_555
Ni13_2 N26_2 1_555 1_555
Ni16_2 N21_2 1_555 1_555
Ni9 O7_2 1_555 1_555
O7_2 C25_2 1_555 1_555
N12_2 Ni9 1_555 1_555
N13_2 N12_2 1_555 1_555
H14_2 C22_2 1_555 1_555
C23_2 C22_2 1_555 1_555
C24_2 N13_2 1_555 1_555
C25_2 C26_2 1_555 1_555
C26_2 C27_2 1_555 1_555
C27_2 H15_2 1_555 1_555
C28_2 O15 1_555 1_555
C29_2 C28_2 1_555 1_555
C30_2 C27_2 1_555 1_555
H16_2 C30_2 1_555 1_555
O17 C25_2 1_555 1_555
C31_2 C26_2 1_555 1_555
H17_2 C31_2 1_555 1_555
O10_2 C28_2 1_555 1_555
C32_2 C29_2 1_555 1_555
H18_2 C32_2 1_555 1_555
N40 N12_2 1_555 1_555
N15_2 C24_2 1_555 1_555
C34_2 C23_2 1_555 1_555
H20_2 C34_2 1_555 1_555
O11_2 Ni10 1_555 1_555
N17_2 Ni10 1_555 1_555
N18_2 N17_2 1_555 1_555
H22_2 C36_2 1_555 1_555
C37_2 C36_2 1_555 1_555
C38_2 N18_2 1_555 1_555
C39_2 O11_2 1_555 1_555
C40_2 C39_2 1_555 1_555
C41_2 C40_2 1_555 1_555
H23_2 C41_2 1_555 1_555
O18 C42_2 1_555 1_555
C42_2 C43_2 1_555 1_555
C43_2 C44_2 1_555 1_555
C44_2 C41_2 1_555 1_555
H24_2 C44_2 1_555 1_555
C45_2 C40_2 1_555 1_555
H25_2 C45_2 1_555 1_555
O14_2 C42_2 1_555 1_555
C46_2 C43_2 1_555 1_555
H26_2 C46_2 1_555 1_555
N39 N17_2 1_555 1_555
N20_2 C38_2 1_555 1_555
C48_2 C37_2 1_555 1_555
H28_2 C48_2 1_555 1_555
N22_2 Ni11 1_555 1_555
N23_2 N22_2 1_555 1_555
H30_2 C50_2 1_555 1_555
C51_2 C50_2 1_555 1_555
C52_2 N23_2 1_555 1_555
N39_2 N22_2 1_555 1_555
N25_2 C52_2 1_555 1_555
C54_2 C51_2 1_555 1_555
H32_2 C54_2 1_555 1_555
Ni12 O14_2 1_555 1_555
N27_2 Ni12 1_555 1_555
N28_2 N27_2 1_555 1_555
H34_2 C56_2 1_555 1_555
C57_2 C56_2 1_555 1_555
C58_2 N28_2 1_555 1_555
N40_2 N27_2 1_555 1_555
N30_2 C58_2 1_555 1_555
C60_2 C57_2 1_555 1_555
H36_2 C60_2 1_555 1_555
N33_2 Ni11 1_555 1_555
N34_2 Ni10 1_555 1_555
N35_2 Ni12 1_555 1_555
N36_2 Ni9 1_555 1_555
C23_2 C24_2 1_555 1_555
C29_2 C30_2 1_555 1_555
C31_2 C32_2 1_555 1_555
O10_2 Ni11 1_555 1_555
N40 N15_2 1_555 1_555
C37_2 C38_2 1_555 1_555
C39_2 O16 1_555 1_555
C45_2 C46_2 1_555 1_555
N39 N20_2 1_555 1_555
C51_2 C52_2 1_555 1_555
N39_2 N25_2 1_555 1_555
C57_2 C58_2 1_555 1_555
N40_2 N30_2 1_555 1_555
N11_2 C21_2 1_555 1_555
C21_2 H13_2 1_555 1_555
C33_2 N11_2 1_555 1_555
H19_2 C33_2 1_555 1_555
N16_2 C35_2 1_555 1_555
C35_2 H21_2 1_555 1_555
C47_2 N16_2 1_555 1_555
H27_2 C47_2 1_555 1_555
Ni14_2 N16_2 1_555 1_555
Ni15_2 N11_2 1_555 1_555
O12_2 C42_3 1_555 1_555
C42_3 C43_3 1_555 1_555
O14_3 C42_3 1_555 1_555
Ni16_2 O14_3 1_555 1_555
N32 C55_3 1_555 1_555
N27_3 Ni16_2 1_555 1_555
N28_3 N27_3 1_555 1_555
C55_3 H33_3 1_555 1_555
C56_3 C55_3 1_555 1_555
H34_3 C56_3 1_555 1_555
C57_3 C56_3 1_555 1_555
C58_3 N28_3 1_555 1_555
N29_2 N27_3 1_555 1_555
N30_3 C58_3 1_555 1_555
C59_3 N32 1_555 1_555
H35_3 C59_3 1_555 1_555
C60_3 C57_3 1_555 1_555
H36_3 C60_3 1_555 1_555
Ni16 O12_2 1_555 1_555
Ni18 N29_2 1_555 1_555
O18_2 Ni16_2 1_555 1_555
O20_2 Ni16_2 1_555 1_555
N38_2 Ni16_2 1_555 1_555
C57_3 C58_3 1_555 1_555
N29_2 N30_3 1_555 1_555
C59_3 C60_3 1_555 1_555
Ni16 O20_2 1_555 1_555
Ni18 O20_2 1_555 1_555
Ni13 O1_3 1_555 1_555
O1_3 C5_3 1_555 1_555
O2_2 Ni13 1_555 1_555
N33_2 C1_3 1_555 1_555
N2_3 Ni13 1_555 1_555
N3_3 N2_3 1_555 1_555
C1_3 H1_3 1_555 1_555
C2_3 C1_3 1_555 1_555
H2_3 C2_3 1_555 1_555
C3_3 C2_3 1_555 1_555
C4_3 N3_3 1_555 1_555
C5_3 C6_3 1_555 1_555
O4_3 C5_3 1_555 1_555
N4_2 N2_3 1_555 1_555
N5_3 C4_3 1_555 1_555
C13_3 N33_2 1_555 1_555
H7_3 C13_3 1_555 1_555
C14_3 C3_3 1_555 1_555
H8_3 C14_3 1_555 1_555
O8_2 Ni13 1_555 1_555
C28_3 O8_2 1_555 1_555
C29_3 C28_3 1_555 1_555
O10_3 C28_3 1_555 1_555
Ni15_2 O2_2 1_555 1_555
N31_2 C49_3 1_555 1_555
N22_3 Ni15_2 1_555 1_555
N23_3 N22_3 1_555 1_555
C49_3 H29_3 1_555 1_555
C50_3 C49_3 1_555 1_555
H30_3 C50_3 1_555 1_555
C51_3 C50_3 1_555 1_555
C52_3 N23_3 1_555 1_555
N24_2 N22_3 1_555 1_555
N25_3 C52_3 1_555 1_555
C53_3 N31_2 1_555 1_555
H31_3 C53_3 1_555 1_555
C54_3 C51_3 1_555 1_555
H32_3 C54_3 1_555 1_555
Ni17_2 O2_2 1_555 1_555
O16_2 Ni15_2 1_555 1_555
N39_3 Ni13 1_555 1_555
C3_3 C4_3 1_555 1_555
O4_3 Ni17_2 1_555 1_555
N4_2 N5_3 1_555 1_555
N4_2 Ni15_2 1_555 1_555
C13_3 C14_3 1_555 1_555
O10_3 Ni15_2 1_555 1_555
C51_3 C52_3 1_555 1_555
N24_2 N25_3 1_555 1_555
N24_2 Ni17_2 1_555 1_555
C53_3 C54_3 1_555 1_555
Ni13_2 O7_3 1_555 1_555
O7_3 C25_3 1_555 1_555
N31 C21_3 1_555 1_555
N12_3 Ni13_2 1_555 1_555
N13_3 N12_3 1_555 1_555
C21_3 H13_3 1_555 1_555
C22_3 C21_3 1_555 1_555
H14_3 C22_3 1_555 1_555
C23_3 C22_3 1_555 1_555
C24_3 N13_3 1_555 1_555
C25_3 C26_3 1_555 1_555
O9_2 C25_3 1_555 1_555
N14_2 N12_3 1_555 1_555
N15_3 C24_3 1_555 1_555
C33_3 N31 1_555 1_555
H19_3 C33_3 1_555 1_555
C34_3 C23_3 1_555 1_555
H20_3 C34_3 1_555 1_555
Ni14 O9_2 1_555 1_555
Ni17 N14_2 1_555 1_555
O15_2 Ni13_2 1_555 1_555
O19_2 Ni13_2 1_555 1_555
N37_2 Ni13_2 1_555 1_555
C23_3 C24_3 1_555 1_555
N14_2 N15_3 1_555 1_555
C33_3 C34_3 1_555 1_555
Ni14 O19_2 1_555 1_555
Ni17 O19_2 1_555 1_555
O3_3 C8_3 1_555 1_555
C8_3 C9_3 1_555 1_555
O5_3 C8_3 1_555 1_555
Ni15 O5_3 1_555 1_555
O6_2 Ni15 1_555 1_555
N35_2 C15_3 1_555 1_555
N7_3 Ni15 1_555 1_555
N8_3 N7_3 1_555 1_555
C15_3 H9_3 1_555 1_555
C16_3 C15_3 1_555 1_555
H10_3 C16_3 1_555 1_555
C17_3 C16_3 1_555 1_555
C18_3 N8_3 1_555 1_555
N9_2 N7_3 1_555 1_555
N10_3 C18_3 1_555 1_555
C19_3 N35_2 1_555 1_555
H11_3 C19_3 1_555 1_555
C20_3 C17_3 1_555 1_555
H12_3 C20_3 1_555 1_555
Ni14_2 O6_2 1_555 1_555
O11_3 Ni14_2 1_555 1_555
N32_2 C35_3 1_555 1_555
N17_3 Ni14_2 1_555 1_555
N18_3 N17_3 1_555 1_555
C35_3 H21_3 1_555 1_555
C36_3 C35_3 1_555 1_555
H22_3 C36_3 1_555 1_555
C37_3 C36_3 1_555 1_555
C38_3 N18_3 1_555 1_555
C39_3 O11_3 1_555 1_555
C40_3 C39_3 1_555 1_555
O13_2 Ni15 1_555 1_555
N19_2 N17_3 1_555 1_555
N20_3 C38_3 1_555 1_555
C47_3 N32_2 1_555 1_555
H27_3 C47_3 1_555 1_555
C48_3 C37_3 1_555 1_555
H28_3 C48_3 1_555 1_555
Ni18_2 O3_3 1_555 1_555
O17_2 Ni14_2 1_555 1_555
N40_3 Ni15 1_555 1_555
O6_2 Ni18_2 1_555 1_555
C17_3 C18_3 1_555 1_555
N9_2 N10_3 1_555 1_555
N9_2 Ni14_2 1_555 1_555
C19_3 C20_3 1_555 1_555
C37_3 C38_3 1_555 1_555
C39_3 O13_2 1_555 1_555
N19_2 N20_3 1_555 1_555
N19_2 Ni18_2 1_555 1_555
C47_3 C48_3 1_555 1_555
O3_4 C8_4 1_555 1_555
C8_4 C9_4 1_555 1_555
O5_4 C8_4 1_555 1_555
Ni16 O5_4 1_555 1_555
N36_2 C15_4 1_555 1_555
N7_4 Ni16 1_555 1_555
N8_4 N7_4 1_555 1_555
C15_4 H9_4 1_555 1_555
C16_4 C15_4 1_555 1_555
H10_4 C16_4 1_555 1_555
C17_4 C16_4 1_555 1_555
C18_4 N8_4 1_555 1_555
N38_2 N7_4 1_555 1_555
N10_4 C18_4 1_555 1_555
C19_4 N36_2 1_555 1_555
H11_4 C19_4 1_555 1_555
C20_4 C17_4 1_555 1_555
H12_4 C20_4 1_555 1_555
Ni18 O3_4 1_555 1_555
N40_4 Ni16 1_555 1_555
C17_4 C18_4 1_555 1_555
N38_2 N10_4 1_555 1_555
C19_4 C20_4 1_555 1_555
Ni14 O1_4 1_555 1_555
O1_4 C5_4 1_555 1_555
N34_2 C1_4 1_555 1_555
N2_4 Ni14 1_555 1_555
N3_4 N2_4 1_555 1_555
C1_4 H1_4 1_555 1_555
C2_4 C1_4 1_555 1_555
H2_4 C2_4 1_555 1_555
C3_4 C2_4 1_555 1_555
C4_4 N3_4 1_555 1_555
C5_4 C6_4 1_555 1_555
O4_4 C5_4 1_555 1_555
N37_2 N2_4 1_555 1_555
N5_4 C4_4 1_555 1_555
C13_4 N34_2 1_555 1_555
H7_4 C13_4 1_555 1_555
C14_4 C3_4 1_555 1_555
H8_4 C14_4 1_555 1_555
N39_4 Ni14 1_555 1_555
C3_4 C4_4 1_555 1_555
O4_4 Ni17 1_555 1_555
N37_2 N5_4 1_555 1_555
C13_4 C14_4 1_555 1_555
O18_2 C42_4 1_555 1_555
C42_4 C43_4 1_555 1_555
O14_4 C42_4 1_555 1_555
Ni18 O14_4 1_555 1_555
N36 C55_4 1_555 1_555
N27_4 Ni18 1_555 1_555
N28_4 N27_4 1_555 1_555
C55_4 H33_4 1_555 1_555
C56_4 C55_4 1_555 1_555
H34_4 C56_4 1_555 1_555
C57_4 C56_4 1_555 1_555
C58_4 N28_4 1_555 1_555
N40_4 N27_4 1_555 1_555
N30_4 C58_4 1_555 1_555
C59_4 N36 1_555 1_555
H35_4 C59_4 1_555 1_555
C60_4 C57_4 1_555 1_555
H36_4 C60_4 1_555 1_555
C57_4 C58_4 1_555 1_555
N40_4 N30_4 1_555 1_555
C59_4 C60_4 1_555 1_555
O11_4 Ni17_2 1_555 1_555
N34 C35_4 1_555 1_555
N17_4 Ni17_2 1_555 1_555
N18_4 N17_4 1_555 1_555
C35_4 H21_4 1_555 1_555
C36_4 C35_4 1_555 1_555
H22_4 C36_4 1_555 1_555
C37_4 C36_4 1_555 1_555
C38_4 N18_4 1_555 1_555
C39_4 O11_4 1_555 1_555
C40_4 C39_4 1_555 1_555
N39_3 N17_4 1_555 1_555
N20_4 C38_4 1_555 1_555
C47_4 N34 1_555 1_555
H27_4 C47_4 1_555 1_555
C48_4 C37_4 1_555 1_555
H28_4 C48_4 1_555 1_555
C37_4 C38_4 1_555 1_555
C39_4 O16_2 1_555 1_555
N39_3 N20_4 1_555 1_555
C47_4 C48_4 1_555 1_555
C28_4 O15_2 1_555 1_555
C29_4 C28_4 1_555 1_555
O10_4 C28_4 1_555 1_555
N35 C49_4 1_555 1_555
N22_4 Ni17 1_555 1_555
N23_4 N22_4 1_555 1_555
C49_4 H29_4 1_555 1_555
C50_4 C49_4 1_555 1_555
H30_4 C50_4 1_555 1_555
C51_4 C50_4 1_555 1_555
C52_4 N23_4 1_555 1_555
N39_4 N22_4 1_555 1_555
N25_4 C52_4 1_555 1_555
C53_4 N35 1_555 1_555
H31_4 C53_4 1_555 1_555
C54_4 C51_4 1_555 1_555
H32_4 C54_4 1_555 1_555
O10_4 Ni17 1_555 1_555
C51_4 C52_4 1_555 1_555
N39_4 N25_4 1_555 1_555
C53_4 C54_4 1_555 1_555
Ni18_2 O7_4 1_555 1_555
O7_4 C25_4 1_555 1_555
N33 C21_4 1_555 1_555
N12_4 Ni18_2 1_555 1_555
N13_4 N12_4 1_555 1_555
C21_4 H13_4 1_555 1_555
C22_4 C21_4 1_555 1_555
H14_4 C22_4 1_555 1_555
C23_4 C22_4 1_555 1_555
C24_4 N13_4 1_555 1_555
C25_4 C26_4 1_555 1_555
O17_2 C25_4 1_555 1_555
N40_3 N12_4 1_555 1_555
N15_4 C24_4 1_555 1_555
C33_4 N33 1_555 1_555
H19_4 C33_4 1_555 1_555
C34_4 C23_4 1_555 1_555
H20_4 C34_4 1_555 1_555
C23_4 C24_4 1_555 1_555
N40_3 N15_4 1_555 1_555
C33_4 C34_4 1_555 1_555
H17_3 C31_3 1_555 1_555
H18_3 C32_3 1_555 1_555
C31_3 C32_3 1_555 1_555
C7_3 H3_3 1_555 1_555
C10_3 C7_3 1_555 1_555
H4_3 C10_3 1_555 1_555
H25_3 C45_3 1_555 1_555
H26_3 C46_3 1_555 1_555
C45_3 C46_3 1_555 1_555
H5_3 C11_3 1_555 1_555
H6_3 C12_3 1_555 1_555
H25_4 C45_4 1_555 1_555
H26_4 C46_4 1_555 1_555
C11_3 C12_3 1_555 1_555
C45_4 C46_4 1_555 1_555
H23_3 C41_3 1_555 1_555
C44_3 C41_3 1_555 1_555
H24_3 C44_3 1_555 1_555
H23_4 C41_4 1_555 1_555
C44_4 C41_4 1_555 1_555
H24_4 C44_4 1_555 1_555
H5_4 C11_4 1_555 1_555
H6_4 C12_4 1_555 1_555
C11_4 C12_4 1_555 1_555
H17_4 C31_4 1_555 1_555
H18_4 C32_4 1_555 1_555
C31_4 C32_4 1_555 1_555
C7_4 H3_4 1_555 1_555
C10_4 C7_4 1_555 1_555
H4_4 C10_4 1_555 1_555
C27_3 H15_3 1_555 1_555
C30_3 C27_3 1_555 1_555
H16_3 C30_3 1_555 1_555
C27_4 H15_4 1_555 1_555
C30_4 C27_4 1_555 1_555
H16_4 C30_4 1_555 1_555

#END
