
###############################################################################
#
# This file contains modified crystal structure data generated from the
# MOF subset of the Cambridge Structural Database (CSD) v543 
# hosted by the Cambridge Crystallographic Data Centre (CCDC).
#
# This work is licensed under the Creative Commons
# Attribution-NonCommercial-ShareAlike 4.0 International License.
# To view a copy of this license, visit
# http://creativecommons.org/licenses/by-nc-sa/4.0/
# or send a letter to
# Creative Commons, PO Box 1866, Mountain View, CA 94042, USA.
#
# CIF created using the CSD Python API on 29 September 2022
# The structure has been converted into the P1 space group
# The structure has a 3D framework
# The original CSD entry LURDIO is in the orthorhombic crystal system
# The framework has been calculated to contain at least 10.0% void space
# The void calculation uses a probe of radius 1.32A, grid spacing 0.4
# The framework is charged, counterions have been retained in the structure
#
###############################################################################

data_LURDIO
_chemical_formula_moiety         '(C280 H128 In6 O50 S32 8-)n'
_symmetry_cell_setting           triclinic
_symmetry_space_group_name_H-M   'P 1'
_symmetry_Int_Tables_number      1
_space_group_name_Hall           'P 1'
loop_
_symmetry_equiv_pos_site_id
_symmetry_equiv_pos_as_xyz
1 x,y,z
_cell_length_a                   14.6762(10)
_cell_length_b                   35.995(2)
_cell_length_c                   23.2084(15)
_cell_angle_alpha                90
_cell_angle_beta                 90
_cell_angle_gamma                90
_cell_volume                     12260.3
loop_
_atom_site_label
_atom_site_type_symbol
_atom_site_fract_x
_atom_site_fract_y
_atom_site_fract_z
In1 In -0.000000 0.21549(2) 0.250000
C1 C 0.2833(16) 0.4803(4) 0.500000
C2 C 0.2644(15) 0.4434(4) 0.500000
C3 C 0.0752(9) 0.2652(3) 0.3189(4)
S1 S 0.2900(5) 0.41088(13) 0.43717(19)
O2 O 0.1255(5) 0.24611(15) 0.2864(3)
S2 S 0.3776(6) 0.49343(14) 0.5631(2)
C4 C 0.0544(9) 0.3141(3) 0.3903(4)
O3 O 0.5434(9) 0.6711(2) 0.6835(4)
C5 C 0.0910(9) 0.3431(3) 0.4273(4)
H2 H 0.050638 0.358294 0.448962
O4 O 0.3972(7) 0.6828(2) 0.6976(4)
C6 C 0.1824(9) 0.3487(2) 0.4311(4)
C7 C 0.2418(8) 0.3269(2) 0.3947(4)
H3 H 0.305888 0.330479 0.396594
C8 C 0.2072(8) 0.3018(2) 0.3583(4)
H4 H 0.247552 0.288782 0.333473
C9 C 0.2205(8) 0.3753(2) 0.4701(4)
C10 C 0.3842(10) 0.5373(3) 0.5284(5)
C11 C 0.3994(8) 0.5715(2) 0.5664(4)
C12 C 0.3364(6) 0.5848(3) 0.6060(4)
H5 H 0.279735 0.572478 0.610943
C13 C 0.3563(7) 0.6163(3) 0.6384(4)
H6 H 0.313230 0.625431 0.665463
C14 C 0.4392(7) 0.6344(2) 0.6312(4)
C15 C 0.5022(6) 0.6210(3) 0.5915(5)
H7 H 0.558858 0.633360 0.586598
C16 C 0.4823(7) 0.5895(3) 0.5592(4)
H8 H 0.525365 0.580407 0.532078
C17 C 0.4621(16) 0.6655(4) 0.6740(7)
C18 C 0.1124(8) 0.2939(3) 0.3553(4)
C19 C 0.0752(9) 0.2652(3) 0.6811(4)
S3 S 0.2900(5) 0.41088(13) 0.56283(19)
O6 O 0.1255(5) 0.24611(15) 0.7136(3)
S4 S 0.3776(6) 0.49343(14) 0.4369(2)
C20 C 0.0544(9) 0.3141(3) 0.6097(4)
O7 O 0.5434(9) 0.6711(2) 0.3165(4)
C21 C 0.0910(9) 0.3431(3) 0.5727(4)
H10 H 0.050638 0.358294 0.551038
O8 O 0.3972(7) 0.6828(2) 0.3024(4)
C22 C 0.1824(9) 0.3487(2) 0.5689(4)
C23 C 0.2418(8) 0.3269(2) 0.6053(4)
H11 H 0.305888 0.330479 0.603406
C24 C 0.2072(8) 0.3018(2) 0.6417(4)
H12 H 0.247552 0.288782 0.666527
C25 C 0.2205(8) 0.3753(2) 0.5299(4)
C26 C 0.3842(10) 0.5373(3) 0.4716(5)
C27 C 0.3994(8) 0.5715(2) 0.4336(4)
C28 C 0.3364(6) 0.5848(3) 0.3940(4)
H13 H 0.279735 0.572478 0.389057
C29 C 0.3563(7) 0.6163(3) 0.3616(4)
H14 H 0.313230 0.625431 0.334537
C30 C 0.4392(7) 0.6344(2) 0.3688(4)
C31 C 0.5022(6) 0.6210(3) 0.4085(5)
H15 H 0.558858 0.633360 0.413402
C32 C 0.4823(7) 0.5895(3) 0.4408(4)
H16 H 0.525365 0.580407 0.467922
C33 C 0.4621(16) 0.6655(4) 0.3260(7)
C34 C 0.1124(8) 0.2939(3) 0.6447(4)
In2 In 0.500000 0.71549(2) 0.250000
In3 In -0.000000 0.21549(2) 0.750000
In4 In 0.500000 0.71549(2) 0.750000
O9 O 0.0083(5) 0.2590(2) 0.1828(3)
O11 O 0.0434(9) 0.1711(2) 0.3165(4)
O14 O 0.1028(7) 0.1828(2) 0.1976(4)
In1_2 In 1.000000 0.21549(2) 0.250000
O1 O 0.9917(5) 0.2590(2) 0.3172(3)
H1 H 0.990840 0.309111 0.390141
O5 O 0.9917(5) 0.2590(2) 0.6828(3)
H9 H 0.990840 0.309111 0.609859
In3_2 In 1.000000 0.21549(2) 0.750000
O10 O 0.8745(5) 0.24611(15) 0.2136(3)
O12 O 0.9566(9) 0.1711(2) 0.1835(4)
O13 O 0.8972(7) 0.1828(2) 0.3024(4)
H1_2 H 0.009160 0.309111 0.109859
O5_2 O 0.0083(5) 0.2590(2) 0.8172(3)
H9_2 H 0.009160 0.309111 0.890141
C1_2 C 0.7167(16) 0.4803(4) 0.000000
C2_2 C 0.7356(15) 0.4434(4) 0.000000
C3_2 C 0.9248(9) 0.2652(3) 0.1811(4)
S1_2 S 0.7100(5) 0.41088(13) 0.06283(19)
C4_2 C 0.9456(9) 0.3141(3) 0.1097(4)
C5_2 C 0.9090(9) 0.3431(3) 0.0727(4)
H2_2 H 0.949362 0.358294 0.051038
C6_2 C 0.8176(9) 0.3487(2) 0.0689(4)
C7_2 C 0.7582(8) 0.3269(2) 0.1053(4)
H3_2 H 0.694112 0.330479 0.103406
C8_2 C 0.7928(8) 0.3018(2) 0.1417(4)
H4_2 H 0.752448 0.288782 0.166527
C9_2 C 0.7795(8) 0.3753(2) 0.0299(4)
C18_2 C 0.8876(8) 0.2939(3) 0.1447(4)
S4_2 S 0.6224(6) 0.49343(14) 0.0631(2)
O7_2 O 0.4566(9) 0.6711(2) 0.1835(4)
O8_2 O 0.6028(7) 0.6828(2) 0.1976(4)
C26_2 C 0.6158(10) 0.5373(3) 0.0284(5)
C27_2 C 0.6006(8) 0.5715(2) 0.0664(4)
C28_2 C 0.6636(6) 0.5848(3) 0.1060(4)
H13_2 H 0.720265 0.572478 0.110943
C29_2 C 0.6437(7) 0.6163(3) 0.1384(4)
H14_2 H 0.686770 0.625431 0.165463
C30_2 C 0.5608(7) 0.6344(2) 0.1312(4)
C31_2 C 0.4978(6) 0.6210(3) 0.0915(5)
H15_2 H 0.441142 0.633360 0.086598
C32_2 C 0.5177(7) 0.5895(3) 0.0592(4)
H16_2 H 0.474635 0.580407 0.032078
C33_2 C 0.5379(16) 0.6655(4) 0.1740(7)
C1_3 C 0.7167(16) 0.4803(4) 1.000000
C2_3 C 0.7356(15) 0.4434(4) 1.000000
S2_2 S 0.6224(6) 0.49343(14) 0.9369(2)
O3_2 O 0.4566(9) 0.6711(2) 0.8165(4)
O4_2 O 0.6028(7) 0.6828(2) 0.8024(4)
C10_2 C 0.6158(10) 0.5373(3) 0.9716(5)
C11_2 C 0.6006(8) 0.5715(2) 0.9336(4)
C12_2 C 0.6636(6) 0.5848(3) 0.8940(4)
H5_2 H 0.720265 0.572478 0.889057
C13_2 C 0.6437(7) 0.6163(3) 0.8616(4)
H6_2 H 0.686770 0.625431 0.834537
C14_2 C 0.5608(7) 0.6344(2) 0.8688(4)
C15_2 C 0.4978(6) 0.6210(3) 0.9085(5)
H7_2 H 0.441142 0.633360 0.913402
C16_2 C 0.5177(7) 0.5895(3) 0.9408(4)
H8_2 H 0.474635 0.580407 0.967922
C17_2 C 0.5379(16) 0.6655(4) 0.8260(7)
C19_2 C 0.9248(9) 0.2652(3) 0.8189(4)
S3_2 S 0.7100(5) 0.41088(13) 0.93717(19)
O6_2 O 0.8745(5) 0.24611(15) 0.7864(3)
C20_2 C 0.9456(9) 0.3141(3) 0.8903(4)
C21_2 C 0.9090(9) 0.3431(3) 0.9273(4)
H10_2 H 0.949362 0.358294 0.948962
C22_2 C 0.8176(9) 0.3487(2) 0.9311(4)
C23_2 C 0.7582(8) 0.3269(2) 0.8947(4)
H11_2 H 0.694112 0.330479 0.896594
C24_2 C 0.7928(8) 0.3018(2) 0.8583(4)
H12_2 H 0.752448 0.288782 0.833473
C25_2 C 0.7795(8) 0.3753(2) 0.9701(4)
C34_2 C 0.8876(8) 0.2939(3) 0.8553(4)
O3_3 O 0.0434(9) 0.1711(2) 0.6835(4)
C15_3 C 0.0022(6) 0.1210(3) 0.5915(5)
H7_3 H 0.058858 0.133360 0.586598
H8_3 H 0.025365 0.080407 0.532078
C31_3 C 0.0022(6) 0.1210(3) 0.4085(5)
H15_3 H 0.058858 0.133360 0.413402
H16_3 H 0.025365 0.080407 0.467922
O4_3 O 0.8972(7) 0.1828(2) 0.6976(4)
C10_3 C 0.8842(10) 0.0373(3) 0.5284(5)
C11_3 C 0.8994(8) 0.0715(2) 0.5664(4)
C12_3 C 0.8364(6) 0.0848(3) 0.6060(4)
H5_3 H 0.779735 0.072478 0.610943
C13_3 C 0.8563(7) 0.1163(3) 0.6384(4)
H6_3 H 0.813230 0.125431 0.665463
C14_3 C 0.9392(7) 0.1344(2) 0.6312(4)
C16_3 C 0.9823(7) 0.0895(3) 0.5592(4)
C17_3 C 0.9621(16) 0.1655(4) 0.6740(7)
C26_3 C 0.8842(10) 0.0373(3) 0.4716(5)
C27_3 C 0.8994(8) 0.0715(2) 0.4336(4)
C28_3 C 0.8364(6) 0.0848(3) 0.3940(4)
H13_3 H 0.779735 0.072478 0.389057
C29_3 C 0.8563(7) 0.1163(3) 0.3616(4)
H14_3 H 0.813230 0.125431 0.334537
C30_3 C 0.9392(7) 0.1344(2) 0.3688(4)
C32_3 C 0.9823(7) 0.0895(3) 0.4408(4)
C33_3 C 0.9621(16) 0.1655(4) 0.3260(7)
C1_4 C 0.7833(16) 0.9803(4) 0.500000
C2_4 C 0.7644(15) 0.9434(4) 0.500000
C3_3 C 0.5752(9) 0.7652(3) 0.3189(4)
O1_2 O 0.4917(5) 0.7590(2) 0.3172(3)
S1_3 S 0.7900(5) 0.91088(13) 0.43717(19)
O2_2 O 0.6255(5) 0.74611(15) 0.2864(3)
S2_3 S 0.8776(6) 0.99343(14) 0.5631(2)
C4_3 C 0.5544(9) 0.8141(3) 0.3903(4)
H1_3 H 0.490840 0.809111 0.390141
C5_3 C 0.5910(9) 0.8431(3) 0.4273(4)
H2_3 H 0.550638 0.858294 0.448962
C6_3 C 0.6824(9) 0.8487(2) 0.4311(4)
C7_3 C 0.7418(8) 0.8269(2) 0.3947(4)
H3_3 H 0.805888 0.830479 0.396594
C8_3 C 0.7072(8) 0.8018(2) 0.3583(4)
H4_3 H 0.747552 0.788782 0.333473
C9_3 C 0.7205(8) 0.8753(2) 0.4701(4)
C18_3 C 0.6124(8) 0.7939(3) 0.3553(4)
C19_3 C 0.5752(9) 0.7652(3) 0.6811(4)
O5_3 O 0.4917(5) 0.7590(2) 0.6828(3)
S3_3 S 0.7900(5) 0.91088(13) 0.56283(19)
O6_3 O 0.6255(5) 0.74611(15) 0.7136(3)
S4_3 S 0.8776(6) 0.99343(14) 0.4369(2)
C20_3 C 0.5544(9) 0.8141(3) 0.6097(4)
H9_3 H 0.490840 0.809111 0.609859
C21_3 C 0.5910(9) 0.8431(3) 0.5727(4)
H10_3 H 0.550638 0.858294 0.551038
C22_3 C 0.6824(9) 0.8487(2) 0.5689(4)
C23_3 C 0.7418(8) 0.8269(2) 0.6053(4)
H11_3 H 0.805888 0.830479 0.603406
C24_3 C 0.7072(8) 0.8018(2) 0.6417(4)
H12_3 H 0.747552 0.788782 0.666527
C25_3 C 0.7205(8) 0.8753(2) 0.5299(4)
C34_3 C 0.6124(8) 0.7939(3) 0.6447(4)
O9_2 O 0.5083(5) 0.7590(2) 0.1828(3)
O10_2 O 0.3745(5) 0.74611(15) 0.2136(3)
C26_4 C 0.1158(10) 0.0373(3) 0.0284(5)
C27_4 C 0.1006(8) 0.0715(2) 0.0664(4)
C28_4 C 0.1636(6) 0.0848(3) 0.1060(4)
H13_4 H 0.220265 0.072478 0.110943
C29_4 C 0.1437(7) 0.1163(3) 0.1384(4)
H14_4 H 0.186770 0.125431 0.165463
C30_4 C 0.0608(7) 0.1344(2) 0.1312(4)
C32_4 C 0.0177(7) 0.0895(3) 0.0592(4)
C33_4 C 0.0379(16) 0.1655(4) 0.1740(7)
O4_4 O 0.1028(7) 0.1828(2) 0.8024(4)
C10_4 C 0.1158(10) 0.0373(3) 0.9716(5)
C11_4 C 0.1006(8) 0.0715(2) 0.9336(4)
C12_4 C 0.1636(6) 0.0848(3) 0.8940(4)
H5_4 H 0.220265 0.072478 0.889057
C13_4 C 0.1437(7) 0.1163(3) 0.8616(4)
H6_4 H 0.186770 0.125431 0.834537
C14_4 C 0.0608(7) 0.1344(2) 0.8688(4)
C16_4 C 0.0177(7) 0.0895(3) 0.9408(4)
C17_4 C 0.0379(16) 0.1655(4) 0.8260(7)
C1_5 C 0.2167(16) 0.9803(4) 0.000000
C2_5 C 0.2356(15) 0.9434(4) 0.000000
C3_4 C 0.4248(9) 0.7652(3) 0.1811(4)
S1_4 S 0.2100(5) 0.91088(13) 0.06283(19)
C4_4 C 0.4456(9) 0.8141(3) 0.1097(4)
H1_4 H 0.509160 0.809111 0.109859
C5_4 C 0.4090(9) 0.8431(3) 0.0727(4)
H2_4 H 0.449362 0.858294 0.051038
C6_4 C 0.3176(9) 0.8487(2) 0.0689(4)
C7_4 C 0.2582(8) 0.8269(2) 0.1053(4)
H3_4 H 0.194112 0.830479 0.103406
C8_4 C 0.2928(8) 0.8018(2) 0.1417(4)
H4_4 H 0.252448 0.788782 0.166527
C9_4 C 0.2795(8) 0.8753(2) 0.0299(4)
C18_4 C 0.3876(8) 0.7939(3) 0.1447(4)
S4_4 S 0.1224(6) 0.99343(14) 0.0631(2)
C1_6 C 0.2167(16) 0.9803(4) 1.000000
C2_6 C 0.2356(15) 0.9434(4) 1.000000
S2_4 S 0.1224(6) 0.99343(14) 0.9369(2)
C19_4 C 0.4248(9) 0.7652(3) 0.8189(4)
O5_4 O 0.5083(5) 0.7590(2) 0.8172(3)
S3_4 S 0.2100(5) 0.91088(13) 0.93717(19)
O6_4 O 0.3745(5) 0.74611(15) 0.7864(3)
C20_4 C 0.4456(9) 0.8141(3) 0.8903(4)
H9_4 H 0.509160 0.809111 0.890141
C21_4 C 0.4090(9) 0.8431(3) 0.9273(4)
H10_4 H 0.449362 0.858294 0.948962
C22_4 C 0.3176(9) 0.8487(2) 0.9311(4)
C23_4 C 0.2582(8) 0.8269(2) 0.8947(4)
H11_4 H 0.194112 0.830479 0.896594
C24_4 C 0.2928(8) 0.8018(2) 0.8583(4)
H12_4 H 0.252448 0.788782 0.833473
C25_4 C 0.2795(8) 0.8753(2) 0.9701(4)
C34_4 C 0.3876(8) 0.7939(3) 0.8553(4)
C31_4 C 0.9978(6) 0.1210(3) 0.0915(5)
H15_4 H 0.941142 0.133360 0.086598
H16_4 H 0.974635 0.080407 0.032078
O3_4 O 0.9566(9) 0.1711(2) 0.8165(4)
C15_4 C 0.9978(6) 0.1210(3) 0.9085(5)
H7_4 H 0.941142 0.133360 0.913402
H8_4 H 0.974635 0.080407 0.967922
In1_3 In -0.000000 0.78451(2) 0.250000
O1_3 O 0.0083(5) 0.7410(2) 0.3172(3)
H1_5 H 0.009160 0.690889 0.390141
O5_5 O 0.0083(5) 0.7410(2) 0.6828(3)
H9_5 H 0.009160 0.690889 0.609859
In3_3 In -0.000000 0.78451(2) 0.750000
O10_3 O 0.1255(5) 0.75389(15) 0.2136(3)
O12_2 O 0.0434(9) 0.8289(2) 0.1835(4)
O13_2 O 0.1028(7) 0.8172(2) 0.3024(4)
In1_4 In 1.000000 0.78451(2) 0.250000
C1_7 C 0.7167(16) 0.5197(4) 0.500000
C2_7 C 0.7356(15) 0.5566(4) 0.500000
C3_5 C 0.9248(9) 0.7348(3) 0.3189(4)
S1_5 S 0.7100(5) 0.58912(13) 0.43717(19)
O2_3 O 0.8745(5) 0.75389(15) 0.2864(3)
S2_5 S 0.6224(6) 0.50657(14) 0.5631(2)
C4_5 C 0.9456(9) 0.6859(3) 0.3903(4)
O3_5 O 0.4566(9) 0.3289(2) 0.6835(4)
C5_5 C 0.9090(9) 0.6569(3) 0.4273(4)
H2_5 H 0.949362 0.641706 0.448962
O4_5 O 0.6028(7) 0.3172(2) 0.6976(4)
C6_5 C 0.8176(9) 0.6513(2) 0.4311(4)
C7_5 C 0.7582(8) 0.6731(2) 0.3947(4)
H3_5 H 0.694112 0.669521 0.396594
C8_5 C 0.7928(8) 0.6982(2) 0.3583(4)
H4_5 H 0.752448 0.711218 0.333473
C9_5 C 0.7795(8) 0.6247(2) 0.4701(4)
C10_5 C 0.6158(10) 0.4627(3) 0.5284(5)
C11_5 C 0.6006(8) 0.4285(2) 0.5664(4)
C12_5 C 0.6636(6) 0.4152(3) 0.6060(4)
H5_5 H 0.720265 0.427522 0.610943
C13_5 C 0.6437(7) 0.3837(3) 0.6384(4)
H6_5 H 0.686770 0.374569 0.665463
C14_5 C 0.5608(7) 0.3656(2) 0.6312(4)
C15_5 C 0.4978(6) 0.3790(3) 0.5915(5)
H7_5 H 0.441142 0.366640 0.586598
C16_5 C 0.5177(7) 0.4105(3) 0.5592(4)
H8_5 H 0.474635 0.419593 0.532078
C17_5 C 0.5379(16) 0.3345(4) 0.6740(7)
C18_5 C 0.8876(8) 0.7061(3) 0.3553(4)
C19_5 C 0.9248(9) 0.7348(3) 0.6811(4)
S3_5 S 0.7100(5) 0.58912(13) 0.56283(19)
O6_5 O 0.8745(5) 0.75389(15) 0.7136(3)
S4_5 S 0.6224(6) 0.50657(14) 0.4369(2)
C20_5 C 0.9456(9) 0.6859(3) 0.6097(4)
O7_3 O 0.4566(9) 0.3289(2) 0.3165(4)
C21_5 C 0.9090(9) 0.6569(3) 0.5727(4)
H10_5 H 0.949362 0.641706 0.551038
O8_3 O 0.6028(7) 0.3172(2) 0.3024(4)
C22_5 C 0.8176(9) 0.6513(2) 0.5689(4)
C23_5 C 0.7582(8) 0.6731(2) 0.6053(4)
H11_5 H 0.694112 0.669521 0.603406
C24_5 C 0.7928(8) 0.6982(2) 0.6417(4)
H12_5 H 0.752448 0.711218 0.666527
C25_5 C 0.7795(8) 0.6247(2) 0.5299(4)
C26_5 C 0.6158(10) 0.4627(3) 0.4716(5)
C27_5 C 0.6006(8) 0.4285(2) 0.4336(4)
C28_5 C 0.6636(6) 0.4152(3) 0.3940(4)
H13_5 H 0.720265 0.427522 0.389057
C29_5 C 0.6437(7) 0.3837(3) 0.3616(4)
H14_5 H 0.686770 0.374569 0.334537
C30_5 C 0.5608(7) 0.3656(2) 0.3688(4)
C31_5 C 0.4978(6) 0.3790(3) 0.4085(5)
H15_5 H 0.441142 0.366640 0.413402
C32_5 C 0.5177(7) 0.4105(3) 0.4408(4)
H16_5 H 0.474635 0.419593 0.467922
C33_5 C 0.5379(16) 0.3345(4) 0.3260(7)
C34_5 C 0.8876(8) 0.7061(3) 0.6447(4)
In2_2 In 0.500000 0.28451(2) 0.250000
In3_4 In 1.000000 0.78451(2) 0.750000
In4_2 In 0.500000 0.28451(2) 0.750000
O9_3 O 0.9917(5) 0.7410(2) 0.1828(3)
O11_2 O 0.9566(9) 0.8289(2) 0.3165(4)
O14_2 O 0.8972(7) 0.8172(2) 0.1976(4)
C1_8 C 0.2833(16) 0.5197(4) 0.000000
C2_8 C 0.2644(15) 0.5566(4) 0.000000
C3_6 C 0.0752(9) 0.7348(3) 0.1811(4)
S1_6 S 0.2900(5) 0.58912(13) 0.06283(19)
C4_6 C 0.0544(9) 0.6859(3) 0.1097(4)
C5_6 C 0.0910(9) 0.6569(3) 0.0727(4)
H2_6 H 0.050638 0.641706 0.051038
C6_6 C 0.1824(9) 0.6513(2) 0.0689(4)
C7_6 C 0.2418(8) 0.6731(2) 0.1053(4)
H3_6 H 0.305888 0.669521 0.103406
C8_6 C 0.2072(8) 0.6982(2) 0.1417(4)
H4_6 H 0.247552 0.711218 0.166527
C9_6 C 0.2205(8) 0.6247(2) 0.0299(4)
C18_6 C 0.1124(8) 0.7061(3) 0.1447(4)
S4_6 S 0.3776(6) 0.50657(14) 0.0631(2)
O7_4 O 0.5434(9) 0.3289(2) 0.1835(4)
O8_4 O 0.3972(7) 0.3172(2) 0.1976(4)
C26_6 C 0.3842(10) 0.4627(3) 0.0284(5)
C27_6 C 0.3994(8) 0.4285(2) 0.0664(4)
C28_6 C 0.3364(6) 0.4152(3) 0.1060(4)
H13_6 H 0.279735 0.427522 0.110943
C29_6 C 0.3563(7) 0.3837(3) 0.1384(4)
H14_6 H 0.313230 0.374569 0.165463
C30_6 C 0.4392(7) 0.3656(2) 0.1312(4)
C31_6 C 0.5022(6) 0.3790(3) 0.0915(5)
H15_6 H 0.558858 0.366640 0.086598
C32_6 C 0.4823(7) 0.4105(3) 0.0592(4)
H16_6 H 0.525365 0.419593 0.032078
C33_6 C 0.4621(16) 0.3345(4) 0.1740(7)
C1_9 C 0.2833(16) 0.5197(4) 1.000000
C2_9 C 0.2644(15) 0.5566(4) 1.000000
S2_6 S 0.3776(6) 0.50657(14) 0.9369(2)
O3_6 O 0.5434(9) 0.3289(2) 0.8165(4)
O4_6 O 0.3972(7) 0.3172(2) 0.8024(4)
C10_6 C 0.3842(10) 0.4627(3) 0.9716(5)
C11_6 C 0.3994(8) 0.4285(2) 0.9336(4)
C12_6 C 0.3364(6) 0.4152(3) 0.8940(4)
H5_6 H 0.279735 0.427522 0.889057
C13_6 C 0.3563(7) 0.3837(3) 0.8616(4)
H6_6 H 0.313230 0.374569 0.834537
C14_6 C 0.4392(7) 0.3656(2) 0.8688(4)
C15_6 C 0.5022(6) 0.3790(3) 0.9085(5)
H7_6 H 0.558858 0.366640 0.913402
C16_6 C 0.4823(7) 0.4105(3) 0.9408(4)
H8_6 H 0.525365 0.419593 0.967922
C17_6 C 0.4621(16) 0.3345(4) 0.8260(7)
C19_6 C 0.0752(9) 0.7348(3) 0.8189(4)
S3_6 S 0.2900(5) 0.58912(13) 0.93717(19)
O6_6 O 0.1255(5) 0.75389(15) 0.7864(3)
C20_6 C 0.0544(9) 0.6859(3) 0.8903(4)
C21_6 C 0.0910(9) 0.6569(3) 0.9273(4)
H10_6 H 0.050638 0.641706 0.948962
C22_6 C 0.1824(9) 0.6513(2) 0.9311(4)
C23_6 C 0.2418(8) 0.6731(2) 0.8947(4)
H11_6 H 0.305888 0.669521 0.896594
C24_6 C 0.2072(8) 0.6982(2) 0.8583(4)
H12_6 H 0.247552 0.711218 0.833473
C25_6 C 0.2205(8) 0.6247(2) 0.9701(4)
C34_6 C 0.1124(8) 0.7061(3) 0.8553(4)
H1_6 H 0.990840 0.690889 0.109859
O5_6 O 0.9917(5) 0.7410(2) 0.8172(3)
H9_6 H 0.990840 0.690889 0.890141
C1_10 C 0.2167(16) 0.0197(4) 0.500000
C2_10 C 0.2356(15) 0.0566(4) 0.500000
C3_7 C 0.4248(9) 0.2348(3) 0.3189(4)
O1_4 O 0.5083(5) 0.2410(2) 0.3172(3)
S1_7 S 0.2100(5) 0.08912(13) 0.43717(19)
O2_4 O 0.3745(5) 0.25389(15) 0.2864(3)
S2_7 S 0.1224(6) 0.00657(14) 0.5631(2)
C4_7 C 0.4456(9) 0.1859(3) 0.3903(4)
H1_7 H 0.509160 0.190889 0.390141
C5_7 C 0.4090(9) 0.1569(3) 0.4273(4)
H2_7 H 0.449362 0.141706 0.448962
C6_7 C 0.3176(9) 0.1513(2) 0.4311(4)
C7_7 C 0.2582(8) 0.1731(2) 0.3947(4)
H3_7 H 0.194112 0.169521 0.396594
C8_7 C 0.2928(8) 0.1982(2) 0.3583(4)
H4_7 H 0.252448 0.211218 0.333473
C9_7 C 0.2795(8) 0.1247(2) 0.4701(4)
C18_7 C 0.3876(8) 0.2061(3) 0.3553(4)
C19_7 C 0.4248(9) 0.2348(3) 0.6811(4)
O5_7 O 0.5083(5) 0.2410(2) 0.6828(3)
S3_7 S 0.2100(5) 0.08912(13) 0.56283(19)
O6_7 O 0.3745(5) 0.25389(15) 0.7136(3)
S4_7 S 0.1224(6) 0.00657(14) 0.4369(2)
C20_7 C 0.4456(9) 0.1859(3) 0.6097(4)
H9_7 H 0.509160 0.190889 0.609859
C21_7 C 0.4090(9) 0.1569(3) 0.5727(4)
H10_7 H 0.449362 0.141706 0.551038
C22_7 C 0.3176(9) 0.1513(2) 0.5689(4)
C23_7 C 0.2582(8) 0.1731(2) 0.6053(4)
H11_7 H 0.194112 0.169521 0.603406
C24_7 C 0.2928(8) 0.1982(2) 0.6417(4)
H12_7 H 0.252448 0.211218 0.666527
C25_7 C 0.2795(8) 0.1247(2) 0.5299(4)
C34_7 C 0.3876(8) 0.2061(3) 0.6447(4)
O9_4 O 0.4917(5) 0.2410(2) 0.1828(3)
O10_4 O 0.6255(5) 0.25389(15) 0.2136(3)
O4_7 O 0.1028(7) 0.8172(2) 0.6976(4)
C10_7 C 0.1158(10) 0.9627(3) 0.5284(5)
C11_7 C 0.1006(8) 0.9285(2) 0.5664(4)
C12_7 C 0.1636(6) 0.9152(3) 0.6060(4)
H5_7 H 0.220265 0.927522 0.610943
C13_7 C 0.1437(7) 0.8837(3) 0.6384(4)
H6_7 H 0.186770 0.874569 0.665463
C14_7 C 0.0608(7) 0.8656(2) 0.6312(4)
C16_7 C 0.0177(7) 0.9105(3) 0.5592(4)
C17_7 C 0.0379(16) 0.8345(4) 0.6740(7)
C26_7 C 0.1158(10) 0.9627(3) 0.4716(5)
C27_7 C 0.1006(8) 0.9285(2) 0.4336(4)
C28_7 C 0.1636(6) 0.9152(3) 0.3940(4)
H13_7 H 0.220265 0.927522 0.389057
C29_7 C 0.1437(7) 0.8837(3) 0.3616(4)
H14_7 H 0.186770 0.874569 0.334537
C30_7 C 0.0608(7) 0.8656(2) 0.3688(4)
C32_7 C 0.0177(7) 0.9105(3) 0.4408(4)
C33_7 C 0.0379(16) 0.8345(4) 0.3260(7)
O3_7 O 0.9566(9) 0.8289(2) 0.6835(4)
C15_7 C 0.9978(6) 0.8790(3) 0.5915(5)
H7_7 H 0.941142 0.866640 0.586598
H8_7 H 0.974635 0.919593 0.532078
C31_7 C 0.9978(6) 0.8790(3) 0.4085(5)
H15_7 H 0.941142 0.866640 0.413402
H16_7 H 0.974635 0.919593 0.467922
C31_8 C 0.0022(6) 0.8790(3) 0.0915(5)
H15_8 H 0.058858 0.866640 0.086598
H16_8 H 0.025365 0.919593 0.032078
O3_8 O 0.0434(9) 0.8289(2) 0.8165(4)
C15_8 C 0.0022(6) 0.8790(3) 0.9085(5)
H7_8 H 0.058858 0.866640 0.913402
H8_8 H 0.025365 0.919593 0.967922
C1_11 C 0.7833(16) 0.0197(4) 0.000000
C2_11 C 0.7644(15) 0.0566(4) 0.000000
C3_8 C 0.5752(9) 0.2348(3) 0.1811(4)
S1_8 S 0.7900(5) 0.08912(13) 0.06283(19)
C4_8 C 0.5544(9) 0.1859(3) 0.1097(4)
H1_8 H 0.490840 0.190889 0.109859
C5_8 C 0.5910(9) 0.1569(3) 0.0727(4)
H2_8 H 0.550638 0.141706 0.051038
C6_8 C 0.6824(9) 0.1513(2) 0.0689(4)
C7_8 C 0.7418(8) 0.1731(2) 0.1053(4)
H3_8 H 0.805888 0.169521 0.103406
C8_8 C 0.7072(8) 0.1982(2) 0.1417(4)
H4_8 H 0.747552 0.211218 0.166527
C9_8 C 0.7205(8) 0.1247(2) 0.0299(4)
C18_8 C 0.6124(8) 0.2061(3) 0.1447(4)
S4_8 S 0.8776(6) 0.00657(14) 0.0631(2)
C1_12 C 0.7833(16) 0.0197(4) 1.000000
C2_12 C 0.7644(15) 0.0566(4) 1.000000
S2_8 S 0.8776(6) 0.00657(14) 0.9369(2)
C19_8 C 0.5752(9) 0.2348(3) 0.8189(4)
O5_8 O 0.4917(5) 0.2410(2) 0.8172(3)
S3_8 S 0.7900(5) 0.08912(13) 0.93717(19)
O6_8 O 0.6255(5) 0.25389(15) 0.7864(3)
C20_8 C 0.5544(9) 0.1859(3) 0.8903(4)
H9_8 H 0.490840 0.190889 0.890141
C21_8 C 0.5910(9) 0.1569(3) 0.9273(4)
H10_8 H 0.550638 0.141706 0.948962
C22_8 C 0.6824(9) 0.1513(2) 0.9311(4)
C23_8 C 0.7418(8) 0.1731(2) 0.8947(4)
H11_8 H 0.805888 0.169521 0.896594
C24_8 C 0.7072(8) 0.1982(2) 0.8583(4)
H12_8 H 0.747552 0.211218 0.833473
C25_8 C 0.7205(8) 0.1247(2) 0.9701(4)
C34_8 C 0.6124(8) 0.2061(3) 0.8553(4)
C26_8 C 0.8842(10) 0.9627(3) 0.0284(5)
C27_8 C 0.8994(8) 0.9285(2) 0.0664(4)
C28_8 C 0.8364(6) 0.9152(3) 0.1060(4)
H13_8 H 0.779735 0.927522 0.110943
C29_8 C 0.8563(7) 0.8837(3) 0.1384(4)
H14_8 H 0.813230 0.874569 0.165463
C30_8 C 0.9392(7) 0.8656(2) 0.1312(4)
C32_8 C 0.9823(7) 0.9105(3) 0.0592(4)
C33_8 C 0.9621(16) 0.8345(4) 0.1740(7)
O4_8 O 0.8972(7) 0.8172(2) 0.8024(4)
C10_8 C 0.8842(10) 0.9627(3) 0.9716(5)
C11_8 C 0.8994(8) 0.9285(2) 0.9336(4)
C12_8 C 0.8364(6) 0.9152(3) 0.8940(4)
H5_8 H 0.779735 0.927522 0.889057
C13_8 C 0.8563(7) 0.8837(3) 0.8616(4)
H6_8 H 0.813230 0.874569 0.834537
C14_8 C 0.9392(7) 0.8656(2) 0.8688(4)
C16_8 C 0.9823(7) 0.9105(3) 0.9408(4)
C17_8 C 0.9621(16) 0.8345(4) 0.8260(7)
loop_
_geom_bond_atom_site_label_1
_geom_bond_atom_site_label_2
_geom_bond_site_symmetry_1
_geom_bond_site_symmetry_2
C1 C2 1_555 1_555
C2 S1 1_555 1_555
S1 C9 1_555 1_555
O2 In1 1_555 1_555
S2 C1 1_555 1_555
O3 C17 1_555 1_555
C5 C4 1_555 1_555
H2 C5 1_555 1_555
O4 C17 1_555 1_555
C6 C5 1_555 1_555
C7 C6 1_555 1_555
H3 C7 1_555 1_555
C8 C7 1_555 1_555
H4 C8 1_555 1_555
C9 C6 1_555 1_555
C10 S2 1_555 1_555
C11 C10 1_555 1_555
C12 C11 1_555 1_555
H5 C12 1_555 1_555
C13 C12 1_555 1_555
H6 C13 1_555 1_555
C14 C13 1_555 1_555
C15 C14 1_555 1_555
H7 C15 1_555 1_555
C16 C11 1_555 1_555
H8 C16 1_555 1_555
C17 C14 1_555 1_555
C18 C3 1_555 1_555
S3 C2 1_555 1_555
O6 C19 1_555 1_555
S4 C1 1_555 1_555
O7 C33 1_555 1_555
C21 C20 1_555 1_555
H10 C21 1_555 1_555
O8 C33 1_555 1_555
C22 C21 1_555 1_555
C23 C22 1_555 1_555
H11 C23 1_555 1_555
C24 C23 1_555 1_555
H12 C24 1_555 1_555
C25 C9 1_555 1_555
C26 C10 1_555 1_555
C27 C26 1_555 1_555
C28 C27 1_555 1_555
H13 C28 1_555 1_555
C29 C28 1_555 1_555
H14 C29 1_555 1_555
C30 C29 1_555 1_555
C31 C30 1_555 1_555
H15 C31 1_555 1_555
C32 C27 1_555 1_555
H16 C32 1_555 1_555
C33 C30 1_555 1_555
C34 C19 1_555 1_555
In2 O7 1_555 1_555
In3 O6 1_555 1_555
In4 O3 1_555 1_555
O9 In1 1_555 1_555
O11 In1 1_555 1_555
O14 In1 1_555 1_555
C3 O2 1_555 1_555
C4 C18 1_555 1_555
O4 In4 1_555 1_555
C8 C18 1_555 1_555
C15 C16 1_555 1_555
S3 C25 1_555 1_555
S4 C26 1_555 1_555
C20 C34 1_555 1_555
O8 In2 1_555 1_555
C22 C25 1_555 1_555
C24 C34 1_555 1_555
C31 C32 1_555 1_555
In1_2 O1 1_555 1_555
O5 In3_2 1_555 1_555
O10 In1_2 1_555 1_555
O12 In1_2 1_555 1_555
O13 In1_2 1_555 1_555
O5_2 In3 1_555 1_555
C1_2 C2_2 1_555 1_555
C2_2 S1_2 1_555 1_555
S1_2 C9_2 1_555 1_555
C5_2 C4_2 1_555 1_555
H2_2 C5_2 1_555 1_555
C6_2 C5_2 1_555 1_555
C7_2 C6_2 1_555 1_555
H3_2 C7_2 1_555 1_555
C8_2 C7_2 1_555 1_555
H4_2 C8_2 1_555 1_555
C9_2 C6_2 1_555 1_555
C18_2 C3_2 1_555 1_555
S4_2 C1_2 1_555 1_555
O7_2 C33_2 1_555 1_555
O8_2 C33_2 1_555 1_555
C27_2 C26_2 1_555 1_555
C28_2 C27_2 1_555 1_555
H13_2 C28_2 1_555 1_555
C29_2 C28_2 1_555 1_555
H14_2 C29_2 1_555 1_555
C30_2 C29_2 1_555 1_555
C31_2 C30_2 1_555 1_555
H15_2 C31_2 1_555 1_555
C32_2 C27_2 1_555 1_555
H16_2 C32_2 1_555 1_555
C33_2 C30_2 1_555 1_555
In2 O7_2 1_555 1_555
C3_2 O10 1_555 1_555
C4_2 C18_2 1_555 1_555
C8_2 C18_2 1_555 1_555
S4_2 C26_2 1_555 1_555
O8_2 In2 1_555 1_555
C31_2 C32_2 1_555 1_555
C1_3 C2_3 1_555 1_555
S2_2 C1_3 1_555 1_555
O3_2 C17_2 1_555 1_555
O4_2 C17_2 1_555 1_555
C10_2 S2_2 1_555 1_555
C11_2 C10_2 1_555 1_555
C12_2 C11_2 1_555 1_555
H5_2 C12_2 1_555 1_555
C13_2 C12_2 1_555 1_555
H6_2 C13_2 1_555 1_555
C14_2 C13_2 1_555 1_555
C15_2 C14_2 1_555 1_555
H7_2 C15_2 1_555 1_555
C16_2 C11_2 1_555 1_555
H8_2 C16_2 1_555 1_555
C17_2 C14_2 1_555 1_555
S3_2 C2_3 1_555 1_555
O6_2 C19_2 1_555 1_555
C21_2 C20_2 1_555 1_555
H10_2 C21_2 1_555 1_555
C22_2 C21_2 1_555 1_555
C23_2 C22_2 1_555 1_555
H11_2 C23_2 1_555 1_555
C24_2 C23_2 1_555 1_555
H12_2 C24_2 1_555 1_555
C34_2 C19_2 1_555 1_555
In3_2 O6_2 1_555 1_555
In4 O3_2 1_555 1_555
O4_2 In4 1_555 1_555
C15_2 C16_2 1_555 1_555
S3_2 C25_2 1_555 1_555
C20_2 C34_2 1_555 1_555
C22_2 C25_2 1_555 1_555
C24_2 C34_2 1_555 1_555
H7_3 C15_3 1_555 1_555
H15_3 C31_3 1_555 1_555
In3 O3_3 1_555 1_555
O4_3 C17_3 1_555 1_555
C11_3 C10_3 1_555 1_555
C12_3 C11_3 1_555 1_555
H5_3 C12_3 1_555 1_555
C13_3 C12_3 1_555 1_555
H6_3 C13_3 1_555 1_555
C14_3 C13_3 1_555 1_555
C16_3 C11_3 1_555 1_555
C17_3 C14_3 1_555 1_555
O13 C33_3 1_555 1_555
C26_3 C10_3 1_555 1_555
C27_3 C26_3 1_555 1_555
C28_3 C27_3 1_555 1_555
H13_3 C28_3 1_555 1_555
C29_3 C28_3 1_555 1_555
H14_3 C29_3 1_555 1_555
C30_3 C29_3 1_555 1_555
C32_3 C27_3 1_555 1_555
C33_3 C30_3 1_555 1_555
O4_3 In3_2 1_555 1_555
In2 O1_2 1_555 1_555
C1_4 C2_4 1_555 1_555
C2_4 S1_3 1_555 1_555
C3_3 O1_2 1_555 1_555
S1_3 C9_3 1_555 1_555
O2_2 In2 1_555 1_555
S2_3 C1_4 1_555 1_555
C4_3 H1_3 1_555 1_555
C5_3 C4_3 1_555 1_555
H2_3 C5_3 1_555 1_555
C6_3 C5_3 1_555 1_555
C7_3 C6_3 1_555 1_555
H3_3 C7_3 1_555 1_555
C8_3 C7_3 1_555 1_555
H4_3 C8_3 1_555 1_555
C9_3 C6_3 1_555 1_555
C18_3 C3_3 1_555 1_555
C19_3 O5_3 1_555 1_555
O5_3 In4 1_555 1_555
S3_3 C2_4 1_555 1_555
O6_3 C19_3 1_555 1_555
S4_3 C1_4 1_555 1_555
C20_3 H9_3 1_555 1_555
C21_3 C20_3 1_555 1_555
H10_3 C21_3 1_555 1_555
C22_3 C21_3 1_555 1_555
C23_3 C22_3 1_555 1_555
H11_3 C23_3 1_555 1_555
C24_3 C23_3 1_555 1_555
H12_3 C24_3 1_555 1_555
C25_3 C9_3 1_555 1_555
C34_3 C19_3 1_555 1_555
In4 O6_3 1_555 1_555
O9_2 In2 1_555 1_555
O10_2 In2 1_555 1_555
C3_3 O2_2 1_555 1_555
C4_3 C18_3 1_555 1_555
C8_3 C18_3 1_555 1_555
S3_3 C25_3 1_555 1_555
C20_3 C34_3 1_555 1_555
C22_3 C25_3 1_555 1_555
C24_3 C34_3 1_555 1_555
O14 C33_4 1_555 1_555
C27_4 C26_4 1_555 1_555
C28_4 C27_4 1_555 1_555
H13_4 C28_4 1_555 1_555
C29_4 C28_4 1_555 1_555
H14_4 C29_4 1_555 1_555
C30_4 C29_4 1_555 1_555
C32_4 C27_4 1_555 1_555
C33_4 C30_4 1_555 1_555
O4_4 C17_4 1_555 1_555
C11_4 C10_4 1_555 1_555
C12_4 C11_4 1_555 1_555
H5_4 C12_4 1_555 1_555
C13_4 C12_4 1_555 1_555
H6_4 C13_4 1_555 1_555
C14_4 C13_4 1_555 1_555
C16_4 C11_4 1_555 1_555
C17_4 C14_4 1_555 1_555
O4_4 In3 1_555 1_555
C1_5 C2_5 1_555 1_555
C2_5 S1_4 1_555 1_555
C3_4 O9_2 1_555 1_555
S1_4 C9_4 1_555 1_555
C4_4 H1_4 1_555 1_555
C5_4 C4_4 1_555 1_555
H2_4 C5_4 1_555 1_555
C6_4 C5_4 1_555 1_555
C7_4 C6_4 1_555 1_555
H3_4 C7_4 1_555 1_555
C8_4 C7_4 1_555 1_555
H4_4 C8_4 1_555 1_555
C9_4 C6_4 1_555 1_555
C18_4 C3_4 1_555 1_555
S4_4 C1_5 1_555 1_555
C3_4 O10_2 1_555 1_555
C4_4 C18_4 1_555 1_555
C8_4 C18_4 1_555 1_555
C1_6 C2_6 1_555 1_555
S2_4 C1_6 1_555 1_555
C19_4 O5_4 1_555 1_555
O5_4 In4 1_555 1_555
S3_4 C2_6 1_555 1_555
O6_4 C19_4 1_555 1_555
C20_4 H9_4 1_555 1_555
C21_4 C20_4 1_555 1_555
H10_4 C21_4 1_555 1_555
C22_4 C21_4 1_555 1_555
C23_4 C22_4 1_555 1_555
H11_4 C23_4 1_555 1_555
C24_4 C23_4 1_555 1_555
H12_4 C24_4 1_555 1_555
C34_4 C19_4 1_555 1_555
In4 O6_4 1_555 1_555
S3_4 C25_4 1_555 1_555
C20_4 C34_4 1_555 1_555
C22_4 C25_4 1_555 1_555
C24_4 C34_4 1_555 1_555
H15_4 C31_4 1_555 1_555
H7_4 C15_4 1_555 1_555
In3_2 O3_4 1_555 1_555
In1_3 O1_3 1_555 1_555
O5_5 In3_3 1_555 1_555
O10_3 In1_3 1_555 1_555
O12_2 In1_3 1_555 1_555
O13_2 In1_3 1_555 1_555
C1_7 C2_7 1_555 1_555
C2_7 S1_5 1_555 1_555
S1_5 C9_5 1_555 1_555
O2_3 In1_4 1_555 1_555
S2_5 C1_7 1_555 1_555
O3_5 C17_5 1_555 1_555
C5_5 C4_5 1_555 1_555
H2_5 C5_5 1_555 1_555
O4_5 C17_5 1_555 1_555
C6_5 C5_5 1_555 1_555
C7_5 C6_5 1_555 1_555
H3_5 C7_5 1_555 1_555
C8_5 C7_5 1_555 1_555
H4_5 C8_5 1_555 1_555
C9_5 C6_5 1_555 1_555
C10_5 S2_5 1_555 1_555
C11_5 C10_5 1_555 1_555
C12_5 C11_5 1_555 1_555
H5_5 C12_5 1_555 1_555
C13_5 C12_5 1_555 1_555
H6_5 C13_5 1_555 1_555
C14_5 C13_5 1_555 1_555
C15_5 C14_5 1_555 1_555
H7_5 C15_5 1_555 1_555
C16_5 C11_5 1_555 1_555
H8_5 C16_5 1_555 1_555
C17_5 C14_5 1_555 1_555
C18_5 C3_5 1_555 1_555
S3_5 C2_7 1_555 1_555
O6_5 C19_5 1_555 1_555
S4_5 C1_7 1_555 1_555
O7_3 C33_5 1_555 1_555
C21_5 C20_5 1_555 1_555
H10_5 C21_5 1_555 1_555
O8_3 C33_5 1_555 1_555
C22_5 C21_5 1_555 1_555
C23_5 C22_5 1_555 1_555
H11_5 C23_5 1_555 1_555
C24_5 C23_5 1_555 1_555
H12_5 C24_5 1_555 1_555
C25_5 C9_5 1_555 1_555
C26_5 C10_5 1_555 1_555
C27_5 C26_5 1_555 1_555
C28_5 C27_5 1_555 1_555
H13_5 C28_5 1_555 1_555
C29_5 C28_5 1_555 1_555
H14_5 C29_5 1_555 1_555
C30_5 C29_5 1_555 1_555
C31_5 C30_5 1_555 1_555
H15_5 C31_5 1_555 1_555
C32_5 C27_5 1_555 1_555
H16_5 C32_5 1_555 1_555
C33_5 C30_5 1_555 1_555
C34_5 C19_5 1_555 1_555
In2_2 O7_3 1_555 1_555
In3_4 O6_5 1_555 1_555
In4_2 O3_5 1_555 1_555
O9_3 In1_4 1_555 1_555
O11_2 In1_4 1_555 1_555
O14_2 In1_4 1_555 1_555
C3_5 O2_3 1_555 1_555
C4_5 C18_5 1_555 1_555
O4_5 In4_2 1_555 1_555
C8_5 C18_5 1_555 1_555
C15_5 C16_5 1_555 1_555
S3_5 C25_5 1_555 1_555
S4_5 C26_5 1_555 1_555
C20_5 C34_5 1_555 1_555
O8_3 In2_2 1_555 1_555
C22_5 C25_5 1_555 1_555
C24_5 C34_5 1_555 1_555
C31_5 C32_5 1_555 1_555
C1_8 C2_8 1_555 1_555
C2_8 S1_6 1_555 1_555
S1_6 C9_6 1_555 1_555
C5_6 C4_6 1_555 1_555
H2_6 C5_6 1_555 1_555
C6_6 C5_6 1_555 1_555
C7_6 C6_6 1_555 1_555
H3_6 C7_6 1_555 1_555
C8_6 C7_6 1_555 1_555
H4_6 C8_6 1_555 1_555
C9_6 C6_6 1_555 1_555
C18_6 C3_6 1_555 1_555
S4_6 C1_8 1_555 1_555
O7_4 C33_6 1_555 1_555
O8_4 C33_6 1_555 1_555
C27_6 C26_6 1_555 1_555
C28_6 C27_6 1_555 1_555
H13_6 C28_6 1_555 1_555
C29_6 C28_6 1_555 1_555
H14_6 C29_6 1_555 1_555
C30_6 C29_6 1_555 1_555
C31_6 C30_6 1_555 1_555
H15_6 C31_6 1_555 1_555
C32_6 C27_6 1_555 1_555
H16_6 C32_6 1_555 1_555
C33_6 C30_6 1_555 1_555
In2_2 O7_4 1_555 1_555
C3_6 O10_3 1_555 1_555
C4_6 C18_6 1_555 1_555
C8_6 C18_6 1_555 1_555
S4_6 C26_6 1_555 1_555
O8_4 In2_2 1_555 1_555
C31_6 C32_6 1_555 1_555
C1_9 C2_9 1_555 1_555
S2_6 C1_9 1_555 1_555
O3_6 C17_6 1_555 1_555
O4_6 C17_6 1_555 1_555
C10_6 S2_6 1_555 1_555
C11_6 C10_6 1_555 1_555
C12_6 C11_6 1_555 1_555
H5_6 C12_6 1_555 1_555
C13_6 C12_6 1_555 1_555
H6_6 C13_6 1_555 1_555
C14_6 C13_6 1_555 1_555
C15_6 C14_6 1_555 1_555
H7_6 C15_6 1_555 1_555
C16_6 C11_6 1_555 1_555
H8_6 C16_6 1_555 1_555
C17_6 C14_6 1_555 1_555
S3_6 C2_9 1_555 1_555
O6_6 C19_6 1_555 1_555
C21_6 C20_6 1_555 1_555
H10_6 C21_6 1_555 1_555
C22_6 C21_6 1_555 1_555
C23_6 C22_6 1_555 1_555
H11_6 C23_6 1_555 1_555
C24_6 C23_6 1_555 1_555
H12_6 C24_6 1_555 1_555
C34_6 C19_6 1_555 1_555
In3_3 O6_6 1_555 1_555
In4_2 O3_6 1_555 1_555
O4_6 In4_2 1_555 1_555
C15_6 C16_6 1_555 1_555
S3_6 C25_6 1_555 1_555
C20_6 C34_6 1_555 1_555
C22_6 C25_6 1_555 1_555
C24_6 C34_6 1_555 1_555
O5_6 In3_4 1_555 1_555
In2_2 O1_4 1_555 1_555
C1_10 C2_10 1_555 1_555
C2_10 S1_7 1_555 1_555
C3_7 O1_4 1_555 1_555
S1_7 C9_7 1_555 1_555
O2_4 In2_2 1_555 1_555
S2_7 C1_10 1_555 1_555
C4_7 H1_7 1_555 1_555
C5_7 C4_7 1_555 1_555
H2_7 C5_7 1_555 1_555
C6_7 C5_7 1_555 1_555
C7_7 C6_7 1_555 1_555
H3_7 C7_7 1_555 1_555
C8_7 C7_7 1_555 1_555
H4_7 C8_7 1_555 1_555
C9_7 C6_7 1_555 1_555
C18_7 C3_7 1_555 1_555
C19_7 O5_7 1_555 1_555
O5_7 In4_2 1_555 1_555
S3_7 C2_10 1_555 1_555
O6_7 C19_7 1_555 1_555
S4_7 C1_10 1_555 1_555
C20_7 H9_7 1_555 1_555
C21_7 C20_7 1_555 1_555
H10_7 C21_7 1_555 1_555
C22_7 C21_7 1_555 1_555
C23_7 C22_7 1_555 1_555
H11_7 C23_7 1_555 1_555
C24_7 C23_7 1_555 1_555
H12_7 C24_7 1_555 1_555
C25_7 C9_7 1_555 1_555
C34_7 C19_7 1_555 1_555
In4_2 O6_7 1_555 1_555
O9_4 In2_2 1_555 1_555
O10_4 In2_2 1_555 1_555
C3_7 O2_4 1_555 1_555
C4_7 C18_7 1_555 1_555
C8_7 C18_7 1_555 1_555
S3_7 C25_7 1_555 1_555
C20_7 C34_7 1_555 1_555
C22_7 C25_7 1_555 1_555
C24_7 C34_7 1_555 1_555
O4_7 C17_7 1_555 1_555
C11_7 C10_7 1_555 1_555
C12_7 C11_7 1_555 1_555
H5_7 C12_7 1_555 1_555
C13_7 C12_7 1_555 1_555
H6_7 C13_7 1_555 1_555
C14_7 C13_7 1_555 1_555
C16_7 C11_7 1_555 1_555
C17_7 C14_7 1_555 1_555
O13_2 C33_7 1_555 1_555
C26_7 C10_7 1_555 1_555
C27_7 C26_7 1_555 1_555
C28_7 C27_7 1_555 1_555
H13_7 C28_7 1_555 1_555
C29_7 C28_7 1_555 1_555
H14_7 C29_7 1_555 1_555
C30_7 C29_7 1_555 1_555
C32_7 C27_7 1_555 1_555
C33_7 C30_7 1_555 1_555
O4_7 In3_3 1_555 1_555
H7_7 C15_7 1_555 1_555
H15_7 C31_7 1_555 1_555
In3_4 O3_7 1_555 1_555
H15_8 C31_8 1_555 1_555
H7_8 C15_8 1_555 1_555
In3_3 O3_8 1_555 1_555
C1_11 C2_11 1_555 1_555
C2_11 S1_8 1_555 1_555
C3_8 O9_4 1_555 1_555
S1_8 C9_8 1_555 1_555
C4_8 H1_8 1_555 1_555
C5_8 C4_8 1_555 1_555
H2_8 C5_8 1_555 1_555
C6_8 C5_8 1_555 1_555
C7_8 C6_8 1_555 1_555
H3_8 C7_8 1_555 1_555
C8_8 C7_8 1_555 1_555
H4_8 C8_8 1_555 1_555
C9_8 C6_8 1_555 1_555
C18_8 C3_8 1_555 1_555
S4_8 C1_11 1_555 1_555
C3_8 O10_4 1_555 1_555
C4_8 C18_8 1_555 1_555
C8_8 C18_8 1_555 1_555
C1_12 C2_12 1_555 1_555
S2_8 C1_12 1_555 1_555
C19_8 O5_8 1_555 1_555
O5_8 In4_2 1_555 1_555
S3_8 C2_12 1_555 1_555
O6_8 C19_8 1_555 1_555
C20_8 H9_8 1_555 1_555
C21_8 C20_8 1_555 1_555
H10_8 C21_8 1_555 1_555
C22_8 C21_8 1_555 1_555
C23_8 C22_8 1_555 1_555
H11_8 C23_8 1_555 1_555
C24_8 C23_8 1_555 1_555
H12_8 C24_8 1_555 1_555
C34_8 C19_8 1_555 1_555
In4_2 O6_8 1_555 1_555
S3_8 C25_8 1_555 1_555
C20_8 C34_8 1_555 1_555
C22_8 C25_8 1_555 1_555
C24_8 C34_8 1_555 1_555
O14_2 C33_8 1_555 1_555
C27_8 C26_8 1_555 1_555
C28_8 C27_8 1_555 1_555
H13_8 C28_8 1_555 1_555
C29_8 C28_8 1_555 1_555
H14_8 C29_8 1_555 1_555
C30_8 C29_8 1_555 1_555
C32_8 C27_8 1_555 1_555
C33_8 C30_8 1_555 1_555
O4_8 C17_8 1_555 1_555
C11_8 C10_8 1_555 1_555
C12_8 C11_8 1_555 1_555
H5_8 C12_8 1_555 1_555
C13_8 C12_8 1_555 1_555
H6_8 C13_8 1_555 1_555
C14_8 C13_8 1_555 1_555
C16_8 C11_8 1_555 1_555
C17_8 C14_8 1_555 1_555
O4_8 In3_4 1_555 1_555

#END
