
###############################################################################
#
# This file contains modified crystal structure data generated from the
# MOF subset of the Cambridge Structural Database (CSD) v543 
# hosted by the Cambridge Crystallographic Data Centre (CCDC).
#
# This work is licensed under the Creative Commons
# Attribution-NonCommercial-ShareAlike 4.0 International License.
# To view a copy of this license, visit
# http://creativecommons.org/licenses/by-nc-sa/4.0/
# or send a letter to
# Creative Commons, PO Box 1866, Mountain View, CA 94042, USA.
#
# CIF created using the CSD Python API on 29 September 2022
# The structure has been converted into the P1 space group
# The structure has a 3D framework
# The original CSD entry LURDOU is in the orthorhombic crystal system
# The framework has been calculated to contain at least 10.0% void space
# The void calculation uses a probe of radius 1.32A, grid spacing 0.4
# The framework is charged, counterions have been retained in the structure
#
###############################################################################

data_LURDOU
_chemical_formula_moiety         '(C280 H128 In6 O50 S32 6-)n'
_symmetry_cell_setting           triclinic
_symmetry_space_group_name_H-M   'P 1'
_symmetry_Int_Tables_number      1
_space_group_name_Hall           'P 1'
loop_
_symmetry_equiv_pos_site_id
_symmetry_equiv_pos_as_xyz
1 x,y,z
_cell_length_a                   14.4482(10)
_cell_length_b                   36.174(2)
_cell_length_c                   23.1433(14)
_cell_angle_alpha                90
_cell_angle_beta                 90
_cell_angle_gamma                90
_cell_volume                     12095.8
loop_
_atom_site_label
_atom_site_type_symbol
_atom_site_fract_x
_atom_site_fract_y
_atom_site_fract_z
In1 In -0.000000 0.21625(3) 0.250000
S1 S 0.2747(4) 0.41442(10) 0.43641(15)
S2 S 0.3529(4) 0.49821(12) 0.56373(15)
O2 O 0.1252(6) 0.2468(2) 0.2872(3)
O3 O 0.3963(9) 0.6835(3) 0.6968(4)
O4 O 0.5403(9) 0.6728(3) 0.6822(4)
C1 C 0.0733(10) 0.2659(3) 0.3182(5)
C2 C 0.1117(5) 0.29518(16) 0.3560(3)
C3 C 0.0522(4) 0.31550(16) 0.3910(4)
C4 C 0.0876(5) 0.34227(17) 0.4280(3)
H2 H 0.046931 0.356158 0.451860
C5 C 0.1823(5) 0.34872(15) 0.4300(3)
C6 C 0.2418(4) 0.32840(14) 0.3951(3)
H3 H 0.306561 0.332811 0.396491
C7 C 0.2064(5) 0.30163(17) 0.3581(3)
H4 H 0.247067 0.287747 0.334184
C8 C 0.2171(11) 0.3774(3) 0.4707(5)
C9 C 0.298(2) 0.4387(5) 0.500000
C10 C 0.328(2) 0.4731(6) 0.500000
C11 C 0.3739(13) 0.5406(3) 0.5298(6)
C12 C 0.4580(15) 0.6653(4) 0.6740(7)
C13 C 0.3937(13) 0.5715(4) 0.5690(7)
C14 C 0.3363(12) 0.6023(4) 0.5691(7)
H5 H 0.282808 0.602833 0.545267
C15 C 0.3572(13) 0.6323(4) 0.6042(8)
H6 H 0.317938 0.653423 0.604336
C16 C 0.4354(13) 0.6316(3) 0.6391(7)
C17 C 0.4928(12) 0.6007(4) 0.6390(7)
H7 H 0.546292 0.600180 0.662816
C18 C 0.4719(13) 0.5707(3) 0.6039(8)
H8 H 0.511162 0.549589 0.603748
S3 S 0.2747(4) 0.41442(10) 0.56359(15)
S4 S 0.3529(4) 0.49821(12) 0.43627(15)
O6 O 0.1252(6) 0.2468(2) 0.7128(3)
O7 O 0.3963(9) 0.6835(3) 0.3032(4)
O8 O 0.5403(9) 0.6728(3) 0.3178(4)
C19 C 0.0733(10) 0.2659(3) 0.6818(5)
C20 C 0.1117(5) 0.29518(16) 0.6440(3)
C21 C 0.0522(4) 0.31550(16) 0.6090(4)
C22 C 0.0876(5) 0.34227(17) 0.5720(3)
H10 H 0.046931 0.356158 0.548140
C23 C 0.1823(5) 0.34872(15) 0.5700(3)
C24 C 0.2418(4) 0.32840(14) 0.6049(3)
H11 H 0.306561 0.332811 0.603509
C25 C 0.2064(5) 0.30163(17) 0.6419(3)
H12 H 0.247067 0.287747 0.665816
C26 C 0.2171(11) 0.3774(3) 0.5293(5)
C27 C 0.3739(13) 0.5406(3) 0.4702(6)
C28 C 0.4580(15) 0.6653(4) 0.3260(7)
C29 C 0.3937(13) 0.5715(4) 0.4310(7)
C30 C 0.3363(12) 0.6023(4) 0.4309(7)
H13 H 0.282808 0.602833 0.454733
C31 C 0.3572(13) 0.6323(4) 0.3958(8)
H14 H 0.317938 0.653423 0.395664
C32 C 0.4354(13) 0.6316(3) 0.3609(7)
C33 C 0.4928(12) 0.6007(4) 0.3610(7)
H15 H 0.546292 0.600180 0.337184
C34 C 0.4719(13) 0.5707(3) 0.3961(8)
H16 H 0.511162 0.549589 0.396252
In2 In 0.500000 0.71625(3) 0.250000
In3 In -0.000000 0.21625(3) 0.750000
In4 In 0.500000 0.71625(3) 0.750000
O9 O 0.0125(6) 0.2613(2) 0.1824(3)
O12 O 0.1037(9) 0.1835(3) 0.1968(4)
O13 O 0.0403(9) 0.1728(3) 0.3178(4)
In1_2 In 1.000000 0.21625(3) 0.250000
O1 O 0.9875(6) 0.2613(2) 0.3176(3)
H1 H 0.987435 0.311094 0.389554
O5 O 0.9875(6) 0.2613(2) 0.6824(3)
H9 H 0.987435 0.311094 0.610446
In3_2 In 1.000000 0.21625(3) 0.750000
O10 O 0.8748(6) 0.2468(2) 0.2128(3)
O11 O 0.8963(9) 0.1835(3) 0.3032(4)
O14 O 0.9597(9) 0.1728(3) 0.1822(4)
H1_2 H 0.012565 0.311094 0.110446
O5_2 O 0.0125(6) 0.2613(2) 0.8176(3)
H9_2 H 0.012565 0.311094 0.889554
S1_2 S 0.7253(4) 0.41442(10) 0.06359(15)
C1_2 C 0.9267(10) 0.2659(3) 0.1818(5)
C2_2 C 0.8883(5) 0.29518(16) 0.1440(3)
C3_2 C 0.9478(4) 0.31550(16) 0.1090(4)
C4_2 C 0.9124(5) 0.34227(17) 0.0720(3)
H2_2 H 0.953069 0.356158 0.048140
C5_2 C 0.8177(5) 0.34872(15) 0.0700(3)
C6_2 C 0.7582(4) 0.32840(14) 0.1049(3)
H3_2 H 0.693439 0.332811 0.103509
C7_2 C 0.7936(5) 0.30163(17) 0.1419(3)
H4_2 H 0.752933 0.287747 0.165816
C8_2 C 0.7829(11) 0.3774(3) 0.0293(5)
C9_2 C 0.702(2) 0.4387(5) 0.000000
C10_2 C 0.672(2) 0.4731(6) 0.000000
S4_2 S 0.6471(4) 0.49821(12) 0.06373(15)
O7_2 O 0.6037(9) 0.6835(3) 0.1968(4)
O8_2 O 0.4597(9) 0.6728(3) 0.1822(4)
C27_2 C 0.6261(13) 0.5406(3) 0.0298(6)
C28_2 C 0.5420(15) 0.6653(4) 0.1740(7)
C29_2 C 0.6063(13) 0.5715(4) 0.0690(7)
C30_2 C 0.6637(12) 0.6023(4) 0.0691(7)
H13_2 H 0.717192 0.602833 0.045267
C31_2 C 0.6428(13) 0.6323(4) 0.1042(8)
H14_2 H 0.682062 0.653423 0.104336
C32_2 C 0.5646(13) 0.6316(3) 0.1391(7)
C33_2 C 0.5072(12) 0.6007(4) 0.1390(7)
H15_2 H 0.453708 0.600180 0.162816
C34_2 C 0.5281(13) 0.5707(3) 0.1039(8)
H16_2 H 0.488838 0.549589 0.103748
S2_2 S 0.6471(4) 0.49821(12) 0.93627(15)
O3_2 O 0.6037(9) 0.6835(3) 0.8032(4)
O4_2 O 0.4597(9) 0.6728(3) 0.8178(4)
C9_3 C 0.702(2) 0.4387(5) 1.000000
C10_3 C 0.672(2) 0.4731(6) 1.000000
C11_2 C 0.6261(13) 0.5406(3) 0.9702(6)
C12_2 C 0.5420(15) 0.6653(4) 0.8260(7)
C13_2 C 0.6063(13) 0.5715(4) 0.9310(7)
C14_2 C 0.6637(12) 0.6023(4) 0.9309(7)
H5_2 H 0.717192 0.602833 0.954733
C15_2 C 0.6428(13) 0.6323(4) 0.8958(8)
H6_2 H 0.682062 0.653423 0.895664
C16_2 C 0.5646(13) 0.6316(3) 0.8609(7)
C17_2 C 0.5072(12) 0.6007(4) 0.8610(7)
H7_2 H 0.453708 0.600180 0.837184
C18_2 C 0.5281(13) 0.5707(3) 0.8961(8)
H8_2 H 0.488838 0.549589 0.896252
S3_2 S 0.7253(4) 0.41442(10) 0.93641(15)
O6_2 O 0.8748(6) 0.2468(2) 0.7872(3)
C19_2 C 0.9267(10) 0.2659(3) 0.8182(5)
C20_2 C 0.8883(5) 0.29518(16) 0.8560(3)
C21_2 C 0.9478(4) 0.31550(16) 0.8910(4)
C22_2 C 0.9124(5) 0.34227(17) 0.9280(3)
H10_2 H 0.953069 0.356158 0.951860
C23_2 C 0.8177(5) 0.34872(15) 0.9300(3)
C24_2 C 0.7582(4) 0.32840(14) 0.8951(3)
H11_2 H 0.693439 0.332811 0.896491
C25_2 C 0.7936(5) 0.30163(17) 0.8581(3)
H12_2 H 0.752933 0.287747 0.834184
C26_2 C 0.7829(11) 0.3774(3) 0.9707(5)
O4_3 O 0.0403(9) 0.1728(3) 0.6822(4)
H7_3 H 0.046292 0.100180 0.662816
H8_3 H 0.011162 0.049589 0.603748
H15_3 H 0.046292 0.100180 0.337184
H16_3 H 0.011162 0.049589 0.396252
O3_3 O 0.8963(9) 0.1835(3) 0.6968(4)
C11_3 C 0.8739(13) 0.0406(3) 0.5298(6)
C12_3 C 0.9580(15) 0.1653(4) 0.6740(7)
C13_3 C 0.8937(13) 0.0715(4) 0.5690(7)
C14_3 C 0.8363(12) 0.1023(4) 0.5691(7)
H5_3 H 0.782808 0.102833 0.545267
C15_3 C 0.8572(13) 0.1323(4) 0.6042(8)
H6_3 H 0.817938 0.153423 0.604336
C16_3 C 0.9354(13) 0.1316(3) 0.6391(7)
C17_3 C 0.9928(12) 0.1007(4) 0.6390(7)
C18_3 C 0.9719(13) 0.0707(3) 0.6039(8)
C27_3 C 0.8739(13) 0.0406(3) 0.4702(6)
C28_3 C 0.9580(15) 0.1653(4) 0.3260(7)
C29_3 C 0.8937(13) 0.0715(4) 0.4310(7)
C30_3 C 0.8363(12) 0.1023(4) 0.4309(7)
H13_3 H 0.782808 0.102833 0.454733
C31_3 C 0.8572(13) 0.1323(4) 0.3958(8)
H14_3 H 0.817938 0.153423 0.395664
C32_3 C 0.9354(13) 0.1316(3) 0.3609(7)
C33_3 C 0.9928(12) 0.1007(4) 0.3610(7)
C34_3 C 0.9719(13) 0.0707(3) 0.3961(8)
S1_3 S 0.7747(4) 0.91442(10) 0.43641(15)
S2_3 S 0.8529(4) 0.99821(12) 0.56373(15)
O1_2 O 0.4875(6) 0.7613(2) 0.3176(3)
O2_2 O 0.6252(6) 0.7468(2) 0.2872(3)
C1_3 C 0.5733(10) 0.7659(3) 0.3182(5)
C2_3 C 0.6117(5) 0.79518(16) 0.3560(3)
C3_3 C 0.5522(4) 0.81550(16) 0.3910(4)
H1_3 H 0.487435 0.811094 0.389554
C4_3 C 0.5876(5) 0.84227(17) 0.4280(3)
H2_3 H 0.546931 0.856158 0.451860
C5_3 C 0.6823(5) 0.84872(15) 0.4300(3)
C6_3 C 0.7418(4) 0.82840(14) 0.3951(3)
H3_3 H 0.806561 0.832811 0.396491
C7_3 C 0.7064(5) 0.80163(17) 0.3581(3)
H4_3 H 0.747067 0.787747 0.334184
C8_3 C 0.7171(11) 0.8774(3) 0.4707(5)
C9_4 C 0.798(2) 0.9387(5) 0.500000
C10_4 C 0.828(2) 0.9731(6) 0.500000
S3_3 S 0.7747(4) 0.91442(10) 0.56359(15)
S4_3 S 0.8529(4) 0.99821(12) 0.43627(15)
O5_3 O 0.4875(6) 0.7613(2) 0.6824(3)
O6_3 O 0.6252(6) 0.7468(2) 0.7128(3)
C19_3 C 0.5733(10) 0.7659(3) 0.6818(5)
C20_3 C 0.6117(5) 0.79518(16) 0.6440(3)
C21_3 C 0.5522(4) 0.81550(16) 0.6090(4)
H9_3 H 0.487435 0.811094 0.610446
C22_3 C 0.5876(5) 0.84227(17) 0.5720(3)
H10_3 H 0.546931 0.856158 0.548140
C23_3 C 0.6823(5) 0.84872(15) 0.5700(3)
C24_3 C 0.7418(4) 0.82840(14) 0.6049(3)
H11_3 H 0.806561 0.832811 0.603509
C25_3 C 0.7064(5) 0.80163(17) 0.6419(3)
H12_3 H 0.747067 0.787747 0.665816
C26_3 C 0.7171(11) 0.8774(3) 0.5293(5)
O9_2 O 0.5125(6) 0.7613(2) 0.1824(3)
O10_2 O 0.3748(6) 0.7468(2) 0.2128(3)
C27_4 C 0.1261(13) 0.0406(3) 0.0298(6)
C28_4 C 0.0420(15) 0.1653(4) 0.1740(7)
C29_4 C 0.1063(13) 0.0715(4) 0.0690(7)
C30_4 C 0.1637(12) 0.1023(4) 0.0691(7)
H13_4 H 0.217192 0.102833 0.045267
C31_4 C 0.1428(13) 0.1323(4) 0.1042(8)
H14_4 H 0.182062 0.153423 0.104336
C32_4 C 0.0646(13) 0.1316(3) 0.1391(7)
C33_4 C 0.0072(12) 0.1007(4) 0.1390(7)
C34_4 C 0.0281(13) 0.0707(3) 0.1039(8)
O3_4 O 0.1037(9) 0.1835(3) 0.8032(4)
C11_4 C 0.1261(13) 0.0406(3) 0.9702(6)
C12_4 C 0.0420(15) 0.1653(4) 0.8260(7)
C13_4 C 0.1063(13) 0.0715(4) 0.9310(7)
C14_4 C 0.1637(12) 0.1023(4) 0.9309(7)
H5_4 H 0.217192 0.102833 0.954733
C15_4 C 0.1428(13) 0.1323(4) 0.8958(8)
H6_4 H 0.182062 0.153423 0.895664
C16_4 C 0.0646(13) 0.1316(3) 0.8609(7)
C17_4 C 0.0072(12) 0.1007(4) 0.8610(7)
C18_4 C 0.0281(13) 0.0707(3) 0.8961(8)
S1_4 S 0.2253(4) 0.91442(10) 0.06359(15)
C1_4 C 0.4267(10) 0.7659(3) 0.1818(5)
C2_4 C 0.3883(5) 0.79518(16) 0.1440(3)
C3_4 C 0.4478(4) 0.81550(16) 0.1090(4)
H1_4 H 0.512565 0.811094 0.110446
C4_4 C 0.4124(5) 0.84227(17) 0.0720(3)
H2_4 H 0.453069 0.856158 0.048140
C5_4 C 0.3177(5) 0.84872(15) 0.0700(3)
C6_4 C 0.2582(4) 0.82840(14) 0.1049(3)
H3_4 H 0.193439 0.832811 0.103509
C7_4 C 0.2936(5) 0.80163(17) 0.1419(3)
H4_4 H 0.252933 0.787747 0.165816
C8_4 C 0.2829(11) 0.8774(3) 0.0293(5)
C9_5 C 0.202(2) 0.9387(5) 0.000000
C10_5 C 0.172(2) 0.9731(6) 0.000000
S4_4 S 0.1471(4) 0.99821(12) 0.06373(15)
S2_4 S 0.1471(4) 0.99821(12) 0.93627(15)
C9_6 C 0.202(2) 0.9387(5) 1.000000
C10_6 C 0.172(2) 0.9731(6) 1.000000
S3_4 S 0.2253(4) 0.91442(10) 0.93641(15)
O5_4 O 0.5125(6) 0.7613(2) 0.8176(3)
O6_4 O 0.3748(6) 0.7468(2) 0.7872(3)
C19_4 C 0.4267(10) 0.7659(3) 0.8182(5)
C20_4 C 0.3883(5) 0.79518(16) 0.8560(3)
C21_4 C 0.4478(4) 0.81550(16) 0.8910(4)
H9_4 H 0.512565 0.811094 0.889554
C22_4 C 0.4124(5) 0.84227(17) 0.9280(3)
H10_4 H 0.453069 0.856158 0.951860
C23_4 C 0.3177(5) 0.84872(15) 0.9300(3)
C24_4 C 0.2582(4) 0.82840(14) 0.8951(3)
H11_4 H 0.193439 0.832811 0.896491
C25_4 C 0.2936(5) 0.80163(17) 0.8581(3)
H12_4 H 0.252933 0.787747 0.834184
C26_4 C 0.2829(11) 0.8774(3) 0.9707(5)
H15_4 H 0.953708 0.100180 0.162816
H16_4 H 0.988838 0.049589 0.103748
O4_4 O 0.9597(9) 0.1728(3) 0.8178(4)
H7_4 H 0.953708 0.100180 0.837184
H8_4 H 0.988838 0.049589 0.896252
In1_3 In -0.000000 0.78375(3) 0.250000
O1_3 O 0.0125(6) 0.7387(2) 0.3176(3)
H1_5 H 0.012565 0.688906 0.389554
O5_5 O 0.0125(6) 0.7387(2) 0.6824(3)
H9_5 H 0.012565 0.688906 0.610446
In3_3 In 0.000000 0.78375(3) 0.750000
O10_3 O 0.1252(6) 0.7532(2) 0.2128(3)
O11_2 O 0.1037(9) 0.8165(3) 0.3032(4)
O14_2 O 0.0403(9) 0.8272(3) 0.1822(4)
In1_4 In 1.000000 0.78375(3) 0.250000
S1_5 S 0.7253(4) 0.58558(10) 0.43641(15)
S2_5 S 0.6471(4) 0.50179(12) 0.56373(15)
O2_3 O 0.8748(6) 0.7532(2) 0.2872(3)
O3_5 O 0.6037(9) 0.3165(3) 0.6968(4)
O4_5 O 0.4597(9) 0.3272(3) 0.6822(4)
C1_5 C 0.9267(10) 0.7341(3) 0.3182(5)
C2_5 C 0.8883(5) 0.70482(16) 0.3560(3)
C3_5 C 0.9478(4) 0.68450(16) 0.3910(4)
C4_5 C 0.9124(5) 0.65773(17) 0.4280(3)
H2_5 H 0.953069 0.643842 0.451860
C5_5 C 0.8177(5) 0.65128(15) 0.4300(3)
C6_5 C 0.7582(4) 0.67160(14) 0.3951(3)
H3_5 H 0.693439 0.667189 0.396491
C7_5 C 0.7936(5) 0.69837(17) 0.3581(3)
H4_5 H 0.752933 0.712253 0.334184
C8_5 C 0.7829(11) 0.6226(3) 0.4707(5)
C9_7 C 0.702(2) 0.5613(5) 0.500000
C10_7 C 0.672(2) 0.5269(6) 0.500000
C11_5 C 0.6261(13) 0.4594(3) 0.5298(6)
C12_5 C 0.5420(15) 0.3347(4) 0.6740(7)
C13_5 C 0.6063(13) 0.4285(4) 0.5690(7)
C14_5 C 0.6637(12) 0.3977(4) 0.5691(7)
H5_5 H 0.717192 0.397167 0.545267
C15_5 C 0.6428(13) 0.3677(4) 0.6042(8)
H6_5 H 0.682062 0.346577 0.604336
C16_5 C 0.5646(13) 0.3684(3) 0.6391(7)
C17_5 C 0.5072(12) 0.3993(4) 0.6390(7)
H7_5 H 0.453708 0.399820 0.662816
C18_5 C 0.5281(13) 0.4293(3) 0.6039(8)
H8_5 H 0.488838 0.450411 0.603748
S3_5 S 0.7253(4) 0.58558(10) 0.56359(15)
S4_5 S 0.6471(4) 0.50179(12) 0.43627(15)
O6_5 O 0.8748(6) 0.7532(2) 0.7128(3)
O7_3 O 0.6037(9) 0.3165(3) 0.3032(4)
O8_3 O 0.4597(9) 0.3272(3) 0.3178(4)
C19_5 C 0.9267(10) 0.7341(3) 0.6818(5)
C20_5 C 0.8883(5) 0.70482(16) 0.6440(3)
C21_5 C 0.9478(4) 0.68450(16) 0.6090(4)
C22_5 C 0.9124(5) 0.65773(17) 0.5720(3)
H10_5 H 0.953069 0.643842 0.548140
C23_5 C 0.8177(5) 0.65128(15) 0.5700(3)
C24_5 C 0.7582(4) 0.67160(14) 0.6049(3)
H11_5 H 0.693439 0.667189 0.603509
C25_5 C 0.7936(5) 0.69837(17) 0.6419(3)
H12_5 H 0.752933 0.712253 0.665816
C26_5 C 0.7829(11) 0.6226(3) 0.5293(5)
C27_5 C 0.6261(13) 0.4594(3) 0.4702(6)
C28_5 C 0.5420(15) 0.3347(4) 0.3260(7)
C29_5 C 0.6063(13) 0.4285(4) 0.4310(7)
C30_5 C 0.6637(12) 0.3977(4) 0.4309(7)
H13_5 H 0.717192 0.397167 0.454733
C31_5 C 0.6428(13) 0.3677(4) 0.3958(8)
H14_5 H 0.682062 0.346577 0.395664
C32_5 C 0.5646(13) 0.3684(3) 0.3609(7)
C33_5 C 0.5072(12) 0.3993(4) 0.3610(7)
H15_5 H 0.453708 0.399820 0.337184
C34_5 C 0.5281(13) 0.4293(3) 0.3961(8)
H16_5 H 0.488838 0.450411 0.396252
In2_2 In 0.500000 0.28375(3) 0.250000
In3_4 In 1.000000 0.78375(3) 0.750000
In4_2 In 0.500000 0.28375(3) 0.750000
O9_3 O 0.9875(6) 0.7387(2) 0.1824(3)
O12_2 O 0.8963(9) 0.8165(3) 0.1968(4)
O13_2 O 0.9597(9) 0.8272(3) 0.3178(4)
S1_6 S 0.2747(4) 0.58558(10) 0.06359(15)
C1_6 C 0.0733(10) 0.7341(3) 0.1818(5)
C2_6 C 0.1117(5) 0.70482(16) 0.1440(3)
C3_6 C 0.0522(4) 0.68450(16) 0.1090(4)
C4_6 C 0.0876(5) 0.65773(17) 0.0720(3)
H2_6 H 0.046931 0.643842 0.048140
C5_6 C 0.1823(5) 0.65128(15) 0.0700(3)
C6_6 C 0.2418(4) 0.67160(14) 0.1049(3)
H3_6 H 0.306561 0.667189 0.103509
C7_6 C 0.2064(5) 0.69837(17) 0.1419(3)
H4_6 H 0.247067 0.712253 0.165816
C8_6 C 0.2171(11) 0.6226(3) 0.0293(5)
C9_8 C 0.298(2) 0.5613(5) 0.000000
C10_8 C 0.328(2) 0.5269(6) 0.000000
S4_6 S 0.3529(4) 0.50179(12) 0.06373(15)
O7_4 O 0.3963(9) 0.3165(3) 0.1968(4)
O8_4 O 0.5403(9) 0.3272(3) 0.1822(4)
C27_6 C 0.3739(13) 0.4594(3) 0.0298(6)
C28_6 C 0.4580(15) 0.3347(4) 0.1740(7)
C29_6 C 0.3937(13) 0.4285(4) 0.0690(7)
C30_6 C 0.3363(12) 0.3977(4) 0.0691(7)
H13_6 H 0.282808 0.397167 0.045267
C31_6 C 0.3572(13) 0.3677(4) 0.1042(8)
H14_6 H 0.317938 0.346577 0.104336
C32_6 C 0.4354(13) 0.3684(3) 0.1391(7)
C33_6 C 0.4928(12) 0.3993(4) 0.1390(7)
H15_6 H 0.546292 0.399820 0.162816
C34_6 C 0.4719(13) 0.4293(3) 0.1039(8)
H16_6 H 0.511162 0.450411 0.103748
S2_6 S 0.3529(4) 0.50179(12) 0.93627(15)
O3_6 O 0.3963(9) 0.3165(3) 0.8032(4)
O4_6 O 0.5403(9) 0.3272(3) 0.8178(4)
C9_9 C 0.298(2) 0.5613(5) 1.000000
C10_9 C 0.328(2) 0.5269(6) 1.000000
C11_6 C 0.3739(13) 0.4594(3) 0.9702(6)
C12_6 C 0.4580(15) 0.3347(4) 0.8260(7)
C13_6 C 0.3937(13) 0.4285(4) 0.9310(7)
C14_6 C 0.3363(12) 0.3977(4) 0.9309(7)
H5_6 H 0.282808 0.397167 0.954733
C15_6 C 0.3572(13) 0.3677(4) 0.8958(8)
H6_6 H 0.317938 0.346577 0.895664
C16_6 C 0.4354(13) 0.3684(3) 0.8609(7)
C17_6 C 0.4928(12) 0.3993(4) 0.8610(7)
H7_6 H 0.546292 0.399820 0.837184
C18_6 C 0.4719(13) 0.4293(3) 0.8961(8)
H8_6 H 0.511162 0.450411 0.896252
S3_6 S 0.2747(4) 0.58558(10) 0.93641(15)
O6_6 O 0.1252(6) 0.7532(2) 0.7872(3)
C19_6 C 0.0733(10) 0.7341(3) 0.8182(5)
C20_6 C 0.1117(5) 0.70482(16) 0.8560(3)
C21_6 C 0.0522(4) 0.68450(16) 0.8910(4)
C22_6 C 0.0876(5) 0.65773(17) 0.9280(3)
H10_6 H 0.046931 0.643842 0.951860
C23_6 C 0.1823(5) 0.65128(15) 0.9300(3)
C24_6 C 0.2418(4) 0.67160(14) 0.8951(3)
H11_6 H 0.306561 0.667189 0.896491
C25_6 C 0.2064(5) 0.69837(17) 0.8581(3)
H12_6 H 0.247067 0.712253 0.834184
C26_6 C 0.2171(11) 0.6226(3) 0.9707(5)
H1_6 H 0.987435 0.688906 0.110446
O5_6 O 0.9875(6) 0.7387(2) 0.8176(3)
H9_6 H 0.987435 0.688906 0.889554
S1_7 S 0.2253(4) 0.08558(10) 0.43641(15)
S2_7 S 0.1471(4) 0.00179(12) 0.56373(15)
O1_4 O 0.5125(6) 0.2387(2) 0.3176(3)
O2_4 O 0.3748(6) 0.2532(2) 0.2872(3)
C1_7 C 0.4267(10) 0.2341(3) 0.3182(5)
C2_7 C 0.3883(5) 0.20482(16) 0.3560(3)
C3_7 C 0.4478(4) 0.18450(16) 0.3910(4)
H1_7 H 0.512565 0.188906 0.389554
C4_7 C 0.4124(5) 0.15773(17) 0.4280(3)
H2_7 H 0.453069 0.143842 0.451860
C5_7 C 0.3177(5) 0.15128(15) 0.4300(3)
C6_7 C 0.2582(4) 0.17160(14) 0.3951(3)
H3_7 H 0.193439 0.167189 0.396491
C7_7 C 0.2936(5) 0.19837(17) 0.3581(3)
H4_7 H 0.252933 0.212253 0.334184
C8_7 C 0.2829(11) 0.1226(3) 0.4707(5)
C9_10 C 0.202(2) 0.0613(5) 0.500000
C10_10 C 0.172(2) 0.0269(6) 0.500000
S3_7 S 0.2253(4) 0.08558(10) 0.56359(15)
S4_7 S 0.1471(4) 0.00179(12) 0.43627(15)
O5_7 O 0.5125(6) 0.2387(2) 0.6824(3)
O6_7 O 0.3748(6) 0.2532(2) 0.7128(3)
C19_7 C 0.4267(10) 0.2341(3) 0.6818(5)
C20_7 C 0.3883(5) 0.20482(16) 0.6440(3)
C21_7 C 0.4478(4) 0.18450(16) 0.6090(4)
H9_7 H 0.512565 0.188906 0.610446
C22_7 C 0.4124(5) 0.15773(17) 0.5720(3)
H10_7 H 0.453069 0.143842 0.548140
C23_7 C 0.3177(5) 0.15128(15) 0.5700(3)
C24_7 C 0.2582(4) 0.17160(14) 0.6049(3)
H11_7 H 0.193439 0.167189 0.603509
C25_7 C 0.2936(5) 0.19837(17) 0.6419(3)
H12_7 H 0.252933 0.212253 0.665816
C26_7 C 0.2829(11) 0.1226(3) 0.5293(5)
O9_4 O 0.4875(6) 0.2387(2) 0.1824(3)
O10_4 O 0.6252(6) 0.2532(2) 0.2128(3)
O3_7 O 0.1037(9) 0.8165(3) 0.6968(4)
C11_7 C 0.1261(13) 0.9594(3) 0.5298(6)
C12_7 C 0.0420(15) 0.8347(4) 0.6740(7)
C13_7 C 0.1063(13) 0.9285(4) 0.5690(7)
C14_7 C 0.1637(12) 0.8977(4) 0.5691(7)
H5_7 H 0.217192 0.897167 0.545267
C15_7 C 0.1428(13) 0.8677(4) 0.6042(8)
H6_7 H 0.182062 0.846577 0.604336
C16_7 C 0.0646(13) 0.8684(3) 0.6391(7)
C17_7 C 0.0072(12) 0.8993(4) 0.6390(7)
C18_7 C 0.0281(13) 0.9293(3) 0.6039(8)
C27_7 C 0.1261(13) 0.9594(3) 0.4702(6)
C28_7 C 0.0420(15) 0.8347(4) 0.3260(7)
C29_7 C 0.1063(13) 0.9285(4) 0.4310(7)
C30_7 C 0.1637(12) 0.8977(4) 0.4309(7)
H13_7 H 0.217192 0.897167 0.454733
C31_7 C 0.1428(13) 0.8677(4) 0.3958(8)
H14_7 H 0.182062 0.846577 0.395664
C32_7 C 0.0646(13) 0.8684(3) 0.3609(7)
C33_7 C 0.0072(12) 0.8993(4) 0.3610(7)
C34_7 C 0.0281(13) 0.9293(3) 0.3961(8)
O4_7 O 0.9597(9) 0.8272(3) 0.6822(4)
H7_7 H 0.953708 0.899820 0.662816
H8_7 H 0.988838 0.950411 0.603748
H15_7 H 0.953708 0.899820 0.337184
H16_7 H 0.988838 0.950411 0.396252
H15_8 H 0.046292 0.899820 0.162816
H16_8 H 0.011162 0.950411 0.103748
O4_8 O 0.0403(9) 0.8272(3) 0.8178(4)
H7_8 H 0.046292 0.899820 0.837184
H8_8 H 0.011162 0.950411 0.896252
S1_8 S 0.7747(4) 0.08558(10) 0.06359(15)
C1_8 C 0.5733(10) 0.2341(3) 0.1818(5)
C2_8 C 0.6117(5) 0.20482(16) 0.1440(3)
C3_8 C 0.5522(4) 0.18450(16) 0.1090(4)
H1_8 H 0.487435 0.188906 0.110446
C4_8 C 0.5876(5) 0.15773(17) 0.0720(3)
H2_8 H 0.546931 0.143842 0.048140
C5_8 C 0.6823(5) 0.15128(15) 0.0700(3)
C6_8 C 0.7418(4) 0.17160(14) 0.1049(3)
H3_8 H 0.806561 0.167189 0.103509
C7_8 C 0.7064(5) 0.19837(17) 0.1419(3)
H4_8 H 0.747067 0.212253 0.165816
C8_8 C 0.7171(11) 0.1226(3) 0.0293(5)
C9_11 C 0.798(2) 0.0613(5) 0.000000
C10_11 C 0.828(2) 0.0269(6) 0.000000
S4_8 S 0.8529(4) 0.00179(12) 0.06373(15)
S2_8 S 0.8529(4) 0.00179(12) 0.93627(15)
C9_12 C 0.798(2) 0.0613(5) 1.000000
C10_12 C 0.828(2) 0.0269(6) 1.000000
S3_8 S 0.7747(4) 0.08558(10) 0.93641(15)
O5_8 O 0.4875(6) 0.2387(2) 0.8176(3)
O6_8 O 0.6252(6) 0.2532(2) 0.7872(3)
C19_8 C 0.5733(10) 0.2341(3) 0.8182(5)
C20_8 C 0.6117(5) 0.20482(16) 0.8560(3)
C21_8 C 0.5522(4) 0.18450(16) 0.8910(4)
H9_8 H 0.487435 0.188906 0.889554
C22_8 C 0.5876(5) 0.15773(17) 0.9280(3)
H10_8 H 0.546931 0.143842 0.951860
C23_8 C 0.6823(5) 0.15128(15) 0.9300(3)
C24_8 C 0.7418(4) 0.17160(14) 0.8951(3)
H11_8 H 0.806561 0.167189 0.896491
C25_8 C 0.7064(5) 0.19837(17) 0.8581(3)
H12_8 H 0.747067 0.212253 0.834184
C26_8 C 0.7171(11) 0.1226(3) 0.9707(5)
C27_8 C 0.8739(13) 0.9594(3) 0.0298(6)
C28_8 C 0.9580(15) 0.8347(4) 0.1740(7)
C29_8 C 0.8937(13) 0.9285(4) 0.0690(7)
C30_8 C 0.8363(12) 0.8977(4) 0.0691(7)
H13_8 H 0.782808 0.897167 0.045267
C31_8 C 0.8572(13) 0.8677(4) 0.1042(8)
H14_8 H 0.817938 0.846577 0.104336
C32_8 C 0.9354(13) 0.8684(3) 0.1391(7)
C33_8 C 0.9928(12) 0.8993(4) 0.1390(7)
C34_8 C 0.9719(13) 0.9293(3) 0.1039(8)
O3_8 O 0.8963(9) 0.8165(3) 0.8032(4)
C11_8 C 0.8739(13) 0.9594(3) 0.9702(6)
C12_8 C 0.9580(15) 0.8347(4) 0.8260(7)
C13_8 C 0.8937(13) 0.9285(4) 0.9310(7)
C14_8 C 0.8363(12) 0.8977(4) 0.9309(7)
H5_8 H 0.782808 0.897167 0.954733
C15_8 C 0.8572(13) 0.8677(4) 0.8958(8)
H6_8 H 0.817938 0.846577 0.895664
C16_8 C 0.9354(13) 0.8684(3) 0.8609(7)
C17_8 C 0.9928(12) 0.8993(4) 0.8610(7)
C18_8 C 0.9719(13) 0.9293(3) 0.8961(8)
loop_
_geom_bond_atom_site_label_1
_geom_bond_atom_site_label_2
_geom_bond_site_symmetry_1
_geom_bond_site_symmetry_2
S1 C8 1_555 1_555
S2 C10 1_555 1_555
O2 In1 1_555 1_555
O3 C12 1_555 1_555
O4 C12 1_555 1_555
C1 O2 1_555 1_555
C2 C1 1_555 1_555
C3 C2 1_555 1_555
C4 C3 1_555 1_555
H2 C4 1_555 1_555
C5 C4 1_555 1_555
C6 C5 1_555 1_555
H3 C6 1_555 1_555
C7 C2 1_555 1_555
H4 C7 1_555 1_555
C8 C5 1_555 1_555
C9 S1 1_555 1_555
C10 C9 1_555 1_555
C11 S2 1_555 1_555
C12 C16 1_555 1_555
C13 C11 1_555 1_555
C14 C13 1_555 1_555
H5 C14 1_555 1_555
C15 C14 1_555 1_555
H6 C15 1_555 1_555
C16 C15 1_555 1_555
C17 C16 1_555 1_555
H7 C17 1_555 1_555
C18 C13 1_555 1_555
H8 C18 1_555 1_555
S3 C9 1_555 1_555
S4 C10 1_555 1_555
O6 C19 1_555 1_555
O7 C28 1_555 1_555
O8 C28 1_555 1_555
C19 C20 1_555 1_555
C20 C21 1_555 1_555
C22 C21 1_555 1_555
H10 C22 1_555 1_555
C23 C22 1_555 1_555
C24 C23 1_555 1_555
H11 C24 1_555 1_555
C25 C20 1_555 1_555
H12 C25 1_555 1_555
C26 C8 1_555 1_555
C27 C11 1_555 1_555
C28 C32 1_555 1_555
C29 C27 1_555 1_555
C30 C29 1_555 1_555
H13 C30 1_555 1_555
C31 C30 1_555 1_555
H14 C31 1_555 1_555
C32 C31 1_555 1_555
C33 C32 1_555 1_555
H15 C33 1_555 1_555
C34 C29 1_555 1_555
H16 C34 1_555 1_555
In2 O7 1_555 1_555
In4 O3 1_555 1_555
O9 In1 1_555 1_555
O12 In1 1_555 1_555
O13 In1 1_555 1_555
O4 In4 1_555 1_555
C6 C7 1_555 1_555
C17 C18 1_555 1_555
S3 C26 1_555 1_555
S4 C27 1_555 1_555
O6 In3 1_555 1_555
O8 In2 1_555 1_555
C23 C26 1_555 1_555
C24 C25 1_555 1_555
C33 C34 1_555 1_555
In1_2 O1 1_555 1_555
In3_2 O5 1_555 1_555
O10 In1_2 1_555 1_555
O11 In1_2 1_555 1_555
O14 In1_2 1_555 1_555
In3 O5_2 1_555 1_555
S1_2 C8_2 1_555 1_555
C1_2 O10 1_555 1_555
C2_2 C1_2 1_555 1_555
C3_2 C2_2 1_555 1_555
C4_2 C3_2 1_555 1_555
H2_2 C4_2 1_555 1_555
C5_2 C4_2 1_555 1_555
C6_2 C5_2 1_555 1_555
H3_2 C6_2 1_555 1_555
C7_2 C2_2 1_555 1_555
H4_2 C7_2 1_555 1_555
C8_2 C5_2 1_555 1_555
C9_2 S1_2 1_555 1_555
C10_2 C9_2 1_555 1_555
S4_2 C10_2 1_555 1_555
O7_2 C28_2 1_555 1_555
O8_2 C28_2 1_555 1_555
C28_2 C32_2 1_555 1_555
C29_2 C27_2 1_555 1_555
C30_2 C29_2 1_555 1_555
H13_2 C30_2 1_555 1_555
C31_2 C30_2 1_555 1_555
H14_2 C31_2 1_555 1_555
C32_2 C31_2 1_555 1_555
C33_2 C32_2 1_555 1_555
H15_2 C33_2 1_555 1_555
C34_2 C29_2 1_555 1_555
H16_2 C34_2 1_555 1_555
In2 O7_2 1_555 1_555
C6_2 C7_2 1_555 1_555
S4_2 C27_2 1_555 1_555
O8_2 In2 1_555 1_555
C33_2 C34_2 1_555 1_555
S2_2 C10_3 1_555 1_555
O3_2 C12_2 1_555 1_555
O4_2 C12_2 1_555 1_555
C10_3 C9_3 1_555 1_555
C11_2 S2_2 1_555 1_555
C12_2 C16_2 1_555 1_555
C13_2 C11_2 1_555 1_555
C14_2 C13_2 1_555 1_555
H5_2 C14_2 1_555 1_555
C15_2 C14_2 1_555 1_555
H6_2 C15_2 1_555 1_555
C16_2 C15_2 1_555 1_555
C17_2 C16_2 1_555 1_555
H7_2 C17_2 1_555 1_555
C18_2 C13_2 1_555 1_555
H8_2 C18_2 1_555 1_555
S3_2 C9_3 1_555 1_555
O6_2 C19_2 1_555 1_555
C19_2 C20_2 1_555 1_555
C20_2 C21_2 1_555 1_555
C22_2 C21_2 1_555 1_555
H10_2 C22_2 1_555 1_555
C23_2 C22_2 1_555 1_555
C24_2 C23_2 1_555 1_555
H11_2 C24_2 1_555 1_555
C25_2 C20_2 1_555 1_555
H12_2 C25_2 1_555 1_555
In4 O3_2 1_555 1_555
O4_2 In4 1_555 1_555
C17_2 C18_2 1_555 1_555
S3_2 C26_2 1_555 1_555
O6_2 In3_2 1_555 1_555
C23_2 C26_2 1_555 1_555
C24_2 C25_2 1_555 1_555
O4_3 In3 1_555 1_555
O3_3 C12_3 1_555 1_555
C12_3 C16_3 1_555 1_555
C13_3 C11_3 1_555 1_555
C14_3 C13_3 1_555 1_555
H5_3 C14_3 1_555 1_555
C15_3 C14_3 1_555 1_555
H6_3 C15_3 1_555 1_555
C16_3 C15_3 1_555 1_555
C17_3 C16_3 1_555 1_555
C18_3 C13_3 1_555 1_555
O11 C28_3 1_555 1_555
C27_3 C11_3 1_555 1_555
C28_3 C32_3 1_555 1_555
C29_3 C27_3 1_555 1_555
C30_3 C29_3 1_555 1_555
H13_3 C30_3 1_555 1_555
C31_3 C30_3 1_555 1_555
H14_3 C31_3 1_555 1_555
C32_3 C31_3 1_555 1_555
C33_3 C32_3 1_555 1_555
C34_3 C29_3 1_555 1_555
In3_2 O3_3 1_555 1_555
C17_3 C18_3 1_555 1_555
C33_3 C34_3 1_555 1_555
In2 O1_2 1_555 1_555
S1_3 C8_3 1_555 1_555
S2_3 C10_4 1_555 1_555
O1_2 C1_3 1_555 1_555
O2_2 In2 1_555 1_555
C1_3 O2_2 1_555 1_555
C2_3 C1_3 1_555 1_555
C3_3 C2_3 1_555 1_555
H1_3 C3_3 1_555 1_555
C4_3 C3_3 1_555 1_555
H2_3 C4_3 1_555 1_555
C5_3 C4_3 1_555 1_555
C6_3 C5_3 1_555 1_555
H3_3 C6_3 1_555 1_555
C7_3 C2_3 1_555 1_555
H4_3 C7_3 1_555 1_555
C8_3 C5_3 1_555 1_555
C9_4 S1_3 1_555 1_555
C10_4 C9_4 1_555 1_555
S3_3 C9_4 1_555 1_555
S4_3 C10_4 1_555 1_555
O5_3 C19_3 1_555 1_555
O6_3 C19_3 1_555 1_555
C19_3 C20_3 1_555 1_555
C20_3 C21_3 1_555 1_555
C21_3 H9_3 1_555 1_555
C22_3 C21_3 1_555 1_555
H10_3 C22_3 1_555 1_555
C23_3 C22_3 1_555 1_555
C24_3 C23_3 1_555 1_555
H11_3 C24_3 1_555 1_555
C25_3 C20_3 1_555 1_555
H12_3 C25_3 1_555 1_555
C26_3 C8_3 1_555 1_555
In4 O5_3 1_555 1_555
O9_2 In2 1_555 1_555
O10_2 In2 1_555 1_555
C6_3 C7_3 1_555 1_555
S3_3 C26_3 1_555 1_555
O6_3 In4 1_555 1_555
C23_3 C26_3 1_555 1_555
C24_3 C25_3 1_555 1_555
O12 C28_4 1_555 1_555
C28_4 C32_4 1_555 1_555
C29_4 C27_4 1_555 1_555
C30_4 C29_4 1_555 1_555
H13_4 C30_4 1_555 1_555
C31_4 C30_4 1_555 1_555
H14_4 C31_4 1_555 1_555
C32_4 C31_4 1_555 1_555
C33_4 C32_4 1_555 1_555
C34_4 C29_4 1_555 1_555
C33_4 C34_4 1_555 1_555
O3_4 C12_4 1_555 1_555
C12_4 C16_4 1_555 1_555
C13_4 C11_4 1_555 1_555
C14_4 C13_4 1_555 1_555
H5_4 C14_4 1_555 1_555
C15_4 C14_4 1_555 1_555
H6_4 C15_4 1_555 1_555
C16_4 C15_4 1_555 1_555
C17_4 C16_4 1_555 1_555
C18_4 C13_4 1_555 1_555
In3 O3_4 1_555 1_555
C17_4 C18_4 1_555 1_555
S1_4 C8_4 1_555 1_555
O9_2 C1_4 1_555 1_555
C1_4 O10_2 1_555 1_555
C2_4 C1_4 1_555 1_555
C3_4 C2_4 1_555 1_555
H1_4 C3_4 1_555 1_555
C4_4 C3_4 1_555 1_555
H2_4 C4_4 1_555 1_555
C5_4 C4_4 1_555 1_555
C6_4 C5_4 1_555 1_555
H3_4 C6_4 1_555 1_555
C7_4 C2_4 1_555 1_555
H4_4 C7_4 1_555 1_555
C8_4 C5_4 1_555 1_555
C9_5 S1_4 1_555 1_555
C10_5 C9_5 1_555 1_555
S4_4 C10_5 1_555 1_555
C6_4 C7_4 1_555 1_555
S2_4 C10_6 1_555 1_555
C10_6 C9_6 1_555 1_555
S3_4 C9_6 1_555 1_555
O5_4 C19_4 1_555 1_555
O6_4 C19_4 1_555 1_555
C19_4 C20_4 1_555 1_555
C20_4 C21_4 1_555 1_555
C21_4 H9_4 1_555 1_555
C22_4 C21_4 1_555 1_555
H10_4 C22_4 1_555 1_555
C23_4 C22_4 1_555 1_555
C24_4 C23_4 1_555 1_555
H11_4 C24_4 1_555 1_555
C25_4 C20_4 1_555 1_555
H12_4 C25_4 1_555 1_555
In4 O5_4 1_555 1_555
S3_4 C26_4 1_555 1_555
O6_4 In4 1_555 1_555
C23_4 C26_4 1_555 1_555
C24_4 C25_4 1_555 1_555
O4_4 In3_2 1_555 1_555
In1_3 O1_3 1_555 1_555
In3_3 O5_5 1_555 1_555
O10_3 In1_3 1_555 1_555
O11_2 In1_3 1_555 1_555
O14_2 In1_3 1_555 1_555
S1_5 C8_5 1_555 1_555
S2_5 C10_7 1_555 1_555
O2_3 In1_4 1_555 1_555
O3_5 C12_5 1_555 1_555
O4_5 C12_5 1_555 1_555
C1_5 O2_3 1_555 1_555
C2_5 C1_5 1_555 1_555
C3_5 C2_5 1_555 1_555
C4_5 C3_5 1_555 1_555
H2_5 C4_5 1_555 1_555
C5_5 C4_5 1_555 1_555
C6_5 C5_5 1_555 1_555
H3_5 C6_5 1_555 1_555
C7_5 C2_5 1_555 1_555
H4_5 C7_5 1_555 1_555
C8_5 C5_5 1_555 1_555
C9_7 S1_5 1_555 1_555
C10_7 C9_7 1_555 1_555
C11_5 S2_5 1_555 1_555
C12_5 C16_5 1_555 1_555
C13_5 C11_5 1_555 1_555
C14_5 C13_5 1_555 1_555
H5_5 C14_5 1_555 1_555
C15_5 C14_5 1_555 1_555
H6_5 C15_5 1_555 1_555
C16_5 C15_5 1_555 1_555
C17_5 C16_5 1_555 1_555
H7_5 C17_5 1_555 1_555
C18_5 C13_5 1_555 1_555
H8_5 C18_5 1_555 1_555
S3_5 C9_7 1_555 1_555
S4_5 C10_7 1_555 1_555
O6_5 C19_5 1_555 1_555
O7_3 C28_5 1_555 1_555
O8_3 C28_5 1_555 1_555
C19_5 C20_5 1_555 1_555
C20_5 C21_5 1_555 1_555
C22_5 C21_5 1_555 1_555
H10_5 C22_5 1_555 1_555
C23_5 C22_5 1_555 1_555
C24_5 C23_5 1_555 1_555
H11_5 C24_5 1_555 1_555
C25_5 C20_5 1_555 1_555
H12_5 C25_5 1_555 1_555
C26_5 C8_5 1_555 1_555
C27_5 C11_5 1_555 1_555
C28_5 C32_5 1_555 1_555
C29_5 C27_5 1_555 1_555
C30_5 C29_5 1_555 1_555
H13_5 C30_5 1_555 1_555
C31_5 C30_5 1_555 1_555
H14_5 C31_5 1_555 1_555
C32_5 C31_5 1_555 1_555
C33_5 C32_5 1_555 1_555
H15_5 C33_5 1_555 1_555
C34_5 C29_5 1_555 1_555
H16_5 C34_5 1_555 1_555
In2_2 O7_3 1_555 1_555
In4_2 O3_5 1_555 1_555
O9_3 In1_4 1_555 1_555
O12_2 In1_4 1_555 1_555
O13_2 In1_4 1_555 1_555
O4_5 In4_2 1_555 1_555
C6_5 C7_5 1_555 1_555
C17_5 C18_5 1_555 1_555
S3_5 C26_5 1_555 1_555
S4_5 C27_5 1_555 1_555
O6_5 In3_4 1_555 1_555
O8_3 In2_2 1_555 1_555
C23_5 C26_5 1_555 1_555
C24_5 C25_5 1_555 1_555
C33_5 C34_5 1_555 1_555
S1_6 C8_6 1_555 1_555
C1_6 O10_3 1_555 1_555
C2_6 C1_6 1_555 1_555
C3_6 C2_6 1_555 1_555
C4_6 C3_6 1_555 1_555
H2_6 C4_6 1_555 1_555
C5_6 C4_6 1_555 1_555
C6_6 C5_6 1_555 1_555
H3_6 C6_6 1_555 1_555
C7_6 C2_6 1_555 1_555
H4_6 C7_6 1_555 1_555
C8_6 C5_6 1_555 1_555
C9_8 S1_6 1_555 1_555
C10_8 C9_8 1_555 1_555
S4_6 C10_8 1_555 1_555
O7_4 C28_6 1_555 1_555
O8_4 C28_6 1_555 1_555
C28_6 C32_6 1_555 1_555
C29_6 C27_6 1_555 1_555
C30_6 C29_6 1_555 1_555
H13_6 C30_6 1_555 1_555
C31_6 C30_6 1_555 1_555
H14_6 C31_6 1_555 1_555
C32_6 C31_6 1_555 1_555
C33_6 C32_6 1_555 1_555
H15_6 C33_6 1_555 1_555
C34_6 C29_6 1_555 1_555
H16_6 C34_6 1_555 1_555
In2_2 O7_4 1_555 1_555
C6_6 C7_6 1_555 1_555
S4_6 C27_6 1_555 1_555
O8_4 In2_2 1_555 1_555
C33_6 C34_6 1_555 1_555
S2_6 C10_9 1_555 1_555
O3_6 C12_6 1_555 1_555
O4_6 C12_6 1_555 1_555
C10_9 C9_9 1_555 1_555
C11_6 S2_6 1_555 1_555
C12_6 C16_6 1_555 1_555
C13_6 C11_6 1_555 1_555
C14_6 C13_6 1_555 1_555
H5_6 C14_6 1_555 1_555
C15_6 C14_6 1_555 1_555
H6_6 C15_6 1_555 1_555
C16_6 C15_6 1_555 1_555
C17_6 C16_6 1_555 1_555
H7_6 C17_6 1_555 1_555
C18_6 C13_6 1_555 1_555
H8_6 C18_6 1_555 1_555
S3_6 C9_9 1_555 1_555
O6_6 C19_6 1_555 1_555
C19_6 C20_6 1_555 1_555
C20_6 C21_6 1_555 1_555
C22_6 C21_6 1_555 1_555
H10_6 C22_6 1_555 1_555
C23_6 C22_6 1_555 1_555
C24_6 C23_6 1_555 1_555
H11_6 C24_6 1_555 1_555
C25_6 C20_6 1_555 1_555
H12_6 C25_6 1_555 1_555
In4_2 O3_6 1_555 1_555
O4_6 In4_2 1_555 1_555
C17_6 C18_6 1_555 1_555
S3_6 C26_6 1_555 1_555
O6_6 In3_3 1_555 1_555
C23_6 C26_6 1_555 1_555
C24_6 C25_6 1_555 1_555
In3_4 O5_6 1_555 1_555
In2_2 O1_4 1_555 1_555
S1_7 C8_7 1_555 1_555
S2_7 C10_10 1_555 1_555
O1_4 C1_7 1_555 1_555
O2_4 In2_2 1_555 1_555
C1_7 O2_4 1_555 1_555
C2_7 C1_7 1_555 1_555
C3_7 C2_7 1_555 1_555
H1_7 C3_7 1_555 1_555
C4_7 C3_7 1_555 1_555
H2_7 C4_7 1_555 1_555
C5_7 C4_7 1_555 1_555
C6_7 C5_7 1_555 1_555
H3_7 C6_7 1_555 1_555
C7_7 C2_7 1_555 1_555
H4_7 C7_7 1_555 1_555
C8_7 C5_7 1_555 1_555
C9_10 S1_7 1_555 1_555
C10_10 C9_10 1_555 1_555
S3_7 C9_10 1_555 1_555
S4_7 C10_10 1_555 1_555
O5_7 C19_7 1_555 1_555
O6_7 C19_7 1_555 1_555
C19_7 C20_7 1_555 1_555
C20_7 C21_7 1_555 1_555
C21_7 H9_7 1_555 1_555
C22_7 C21_7 1_555 1_555
H10_7 C22_7 1_555 1_555
C23_7 C22_7 1_555 1_555
C24_7 C23_7 1_555 1_555
H11_7 C24_7 1_555 1_555
C25_7 C20_7 1_555 1_555
H12_7 C25_7 1_555 1_555
C26_7 C8_7 1_555 1_555
In4_2 O5_7 1_555 1_555
O9_4 In2_2 1_555 1_555
O10_4 In2_2 1_555 1_555
C6_7 C7_7 1_555 1_555
S3_7 C26_7 1_555 1_555
O6_7 In4_2 1_555 1_555
C23_7 C26_7 1_555 1_555
C24_7 C25_7 1_555 1_555
O3_7 C12_7 1_555 1_555
C12_7 C16_7 1_555 1_555
C13_7 C11_7 1_555 1_555
C14_7 C13_7 1_555 1_555
H5_7 C14_7 1_555 1_555
C15_7 C14_7 1_555 1_555
H6_7 C15_7 1_555 1_555
C16_7 C15_7 1_555 1_555
C17_7 C16_7 1_555 1_555
C18_7 C13_7 1_555 1_555
O11_2 C28_7 1_555 1_555
C27_7 C11_7 1_555 1_555
C28_7 C32_7 1_555 1_555
C29_7 C27_7 1_555 1_555
C30_7 C29_7 1_555 1_555
H13_7 C30_7 1_555 1_555
C31_7 C30_7 1_555 1_555
H14_7 C31_7 1_555 1_555
C32_7 C31_7 1_555 1_555
C33_7 C32_7 1_555 1_555
C34_7 C29_7 1_555 1_555
In3_3 O3_7 1_555 1_555
C17_7 C18_7 1_555 1_555
C33_7 C34_7 1_555 1_555
O4_7 In3_4 1_555 1_555
O4_8 In3_3 1_555 1_555
S1_8 C8_8 1_555 1_555
O9_4 C1_8 1_555 1_555
C1_8 O10_4 1_555 1_555
C2_8 C1_8 1_555 1_555
C3_8 C2_8 1_555 1_555
H1_8 C3_8 1_555 1_555
C4_8 C3_8 1_555 1_555
H2_8 C4_8 1_555 1_555
C5_8 C4_8 1_555 1_555
C6_8 C5_8 1_555 1_555
H3_8 C6_8 1_555 1_555
C7_8 C2_8 1_555 1_555
H4_8 C7_8 1_555 1_555
C8_8 C5_8 1_555 1_555
C9_11 S1_8 1_555 1_555
C10_11 C9_11 1_555 1_555
S4_8 C10_11 1_555 1_555
C6_8 C7_8 1_555 1_555
S2_8 C10_12 1_555 1_555
C10_12 C9_12 1_555 1_555
S3_8 C9_12 1_555 1_555
O5_8 C19_8 1_555 1_555
O6_8 C19_8 1_555 1_555
C19_8 C20_8 1_555 1_555
C20_8 C21_8 1_555 1_555
C21_8 H9_8 1_555 1_555
C22_8 C21_8 1_555 1_555
H10_8 C22_8 1_555 1_555
C23_8 C22_8 1_555 1_555
C24_8 C23_8 1_555 1_555
H11_8 C24_8 1_555 1_555
C25_8 C20_8 1_555 1_555
H12_8 C25_8 1_555 1_555
In4_2 O5_8 1_555 1_555
S3_8 C26_8 1_555 1_555
O6_8 In4_2 1_555 1_555
C23_8 C26_8 1_555 1_555
C24_8 C25_8 1_555 1_555
O12_2 C28_8 1_555 1_555
C28_8 C32_8 1_555 1_555
C29_8 C27_8 1_555 1_555
C30_8 C29_8 1_555 1_555
H13_8 C30_8 1_555 1_555
C31_8 C30_8 1_555 1_555
H14_8 C31_8 1_555 1_555
C32_8 C31_8 1_555 1_555
C33_8 C32_8 1_555 1_555
C34_8 C29_8 1_555 1_555
C33_8 C34_8 1_555 1_555
O3_8 C12_8 1_555 1_555
C12_8 C16_8 1_555 1_555
C13_8 C11_8 1_555 1_555
C14_8 C13_8 1_555 1_555
H5_8 C14_8 1_555 1_555
C15_8 C14_8 1_555 1_555
H6_8 C15_8 1_555 1_555
C16_8 C15_8 1_555 1_555
C17_8 C16_8 1_555 1_555
C18_8 C13_8 1_555 1_555
In3_4 O3_8 1_555 1_555
C17_8 C18_8 1_555 1_555

#END
