
###############################################################################
#
# This file contains modified crystal structure data generated from the
# MOF subset of the Cambridge Structural Database (CSD) v543 
# hosted by the Cambridge Crystallographic Data Centre (CCDC).
#
# This work is licensed under the Creative Commons
# Attribution-NonCommercial-ShareAlike 4.0 International License.
# To view a copy of this license, visit
# http://creativecommons.org/licenses/by-nc-sa/4.0/
# or send a letter to
# Creative Commons, PO Box 1866, Mountain View, CA 94042, USA.
#
# CIF created using the CSD Python API on 29 September 2022
# The structure has been converted into the P1 space group
# The structure has a 3D framework
# The original CSD entry LURGEL is in the triclinic crystal system
# The original CSD entry LURGEL is in a Sohncke space group
# The framework has been calculated to contain at least 10.0% void space
# The void calculation uses a probe of radius 1.32A, grid spacing 0.4
#
###############################################################################

data_LURGEL
_chemical_formula_moiety         '(C51 H36 N2 O8 Si1 Zn2)n'
_symmetry_cell_setting           triclinic
_symmetry_space_group_name_H-M   'P 1'
_symmetry_Int_Tables_number      1
_space_group_name_Hall           'P 1'
loop_
_symmetry_equiv_pos_site_id
_symmetry_equiv_pos_as_xyz
1 x,y,z
_cell_length_a                   11.8137(8)
_cell_length_b                   15.5303(11)
_cell_length_c                   16.3912(15)
_cell_angle_alpha                90.00
_cell_angle_beta                 90.00
_cell_angle_gamma                90.00
_cell_volume                     3007.3
loop_
_atom_site_label
_atom_site_type_symbol
_atom_site_fract_x
_atom_site_fract_y
_atom_site_fract_z
_atom_site_U_iso_or_equiv
_atom_site_thermal_displace_type
O9 O 0.1962(9) 0.4194(6) 0.0191(5) 0.0470 Uani
O10 O 0.2012(8) 0.2237(6) 0.0201(5) 0.0397 Uani
O14 O 0.4419(8) 0.4003(5) 0.0152(5) 0.0453 Uani
O15 O 0.4432(7) 0.2437(5) 0.0213(4) 0.0277 Uani
Zn1 Zn 0.3062(5) 0.3220(3) 0.1763(3) 0.0247 Uani
Zn2 Zn 0.3079(5) 0.3224(3) 0.9982(3) 0.0134 Uani
N1 N 0.3161(8) 0.3179(5) 0.8725(5) 0.0203 Uani
N2 N 0.3115(8) 0.3177(5) 0.2981(5) 0.0270 Uani
O3 O 0.2002(8) 0.2189(5) 0.1564(5) 0.0357 Uani
C3 C 0.0244(11) 0.1006(8) 0.1589(8) 0.0870 Uani
H3 H 0.0330 0.1306 0.2076 0.1050 Uiso
C6 C 0.0783(9) 0.1263(6) 0.0883(6) 0.0313 Uani
C8 C 0.0617(11) 0.0783(8) 0.0190(8) 0.0987 Uani
C10 C 0.1578(9) 0.2015(7) 0.0874(5) 0.0220 Uani
C35 C 0.2574(2) 0.37606(12) 0.42501(11) 0.0997 Uani
C36 C 0.2562(7) 0.3753(5) 0.3408(5) 0.0987 Uani
H19 H 0.2148 0.4173 0.3135 0.1180 Uiso
C37 C 0.2425(11) 0.2498(8) 0.7513(7) 0.1750 Uani
H20 H 0.1939 0.2088 0.7292 0.2100 Uiso
C38 C 0.2486(9) 0.2607(7) 0.8351(6) 0.1033 Uani
H21 H 0.2030 0.2260 0.8676 0.1240 Uiso
C39 C 0.3171(8) 0.3169(6) 0.4691(6) 0.0903 Uani
C40 C 0.3069(10) 0.2987(8) 0.7018(6) 0.0673 Uani
C41 C 0.3495(14) 0.3324(10) 0.5559(5) 0.1197 Uani
H22 H 0.4032 0.3740 0.5689 0.1440 Uiso
C42 C 0.303(2) 0.2884(14) 0.6115(6) 0.1857 Uani
H23 H 0.2598 0.2424 0.5932 0.2230 Uiso
C43 C 0.3791(10) 0.3655(7) 0.8216(7) 0.2540 Uani
H24 H 0.4275 0.4063 0.8440 0.3040 Uiso
C44 C 0.3734(11) 0.2570(7) 0.4245(6) 0.4367 Uani
H25 H 0.4146 0.2144 0.4513 0.5230 Uiso
C45 C 0.3760(10) 0.3571(7) 0.7374(6) 0.0907 Uani
H26 H 0.4219 0.3919 0.7051 0.1090 Uiso
C46 C 0.3709(10) 0.2579(5) 0.3419(4) 0.2263 Uani
H27 H 0.4114 0.2160 0.3138 0.2720 Uiso
Si1 Si 0.0653(5) 0.5721(3) 0.5628(3) 0.1490 Uani
C47 C 0.1449(4) 0.4913(2) 0.50602(18) 0.2030 Uani
C48 C 0.1959(2) 0.43905(12) 0.46929(9) 0.2310 Uani
C49 C 0.0815(14) 0.5615(9) 0.6743(5) 0.1503 Uani
H28 H 0.0380 0.6054 0.7011 0.2260 Uiso
H29 H 0.1599 0.5678 0.6886 0.2260 Uiso
H30 H 0.0552 0.5059 0.6913 0.2260 Uiso
C50 C 0.1172(13) 0.6807(5) 0.5300(9) 0.1543 Uani
H31 H 0.0766 0.7246 0.5591 0.2310 Uiso
H32 H 0.1051 0.6875 0.4725 0.2310 Uiso
H33 H 0.1966 0.6855 0.5417 0.2310 Uiso
O11 O 0.2060(7) 0.4233(5) 0.1544(5) 0.0313 Uani
O12 O 0.4326(11) 0.2356(8) 0.1536(7) 0.0683 Uani
O13 O 0.4385(8) 0.4034(6) 0.1488(5) 0.0360 Uani
H6 H 0.0982 0.0947 0.9712 0.1190 Uiso
C4 C 0.0644(12) 0.5617(8) 0.1614(9) 0.0970 Uani
H4 H 0.0986 0.5444 0.2097 0.1170 Uiso
C5 C 0.0304(12) 0.5481(8) 0.0187(9) 0.1033 Uani
C7 C 0.0828(9) 0.5191(7) 0.0882(7) 0.0383 Uani
C9 C 0.1585(10) 0.4421(7) 0.0868(5) 0.0287 Uani
H5 H 0.0429 0.5196 0.9697 0.1240 Uiso
C1 C 0.9924(10) 0.0062(8) 0.0179(8) 0.0907 Uani
C11 C 0.4612(11) 0.2031(7) 0.0864(5) 0.0337 Uani
C13 C 0.5305(9) 0.0685(6) 0.0185(6) 0.0397 Uani
C16 C 0.5401(8) 0.1275(6) 0.0830(5) 0.0217 Uani
C19 C 0.6154(7) 0.1150(5) 0.1456(5) 0.0280 Uani
H11 H 0.6208 0.1539 0.1885 0.0340 Uiso
C25 C 0.6845(8) 0.0412(5) 0.1425(5) 0.0290 Uani
H15 H 0.7365 0.0319 0.1841 0.0350 Uiso
C33 C 0.9568(11) 0.0278(8) 0.1534(9) 0.1063 Uani
H17 H 0.9211 0.0114 0.2015 0.1270 Uiso
C51 C 0.9128(7) 0.5624(11) 0.5351(11) 0.2520 Uani
H34 H 0.8697 0.6045 0.5646 0.3780 Uiso
H35 H 0.8862 0.5058 0.5488 0.3780 Uiso
H36 H 0.9039 0.5718 0.4775 0.3780 Uiso
H7 H 0.4780 0.0778 0.9772 0.0480 Uiso
C2 C 0.9919(11) 0.6318(8) 0.1579(9) 0.1077 Uani
H2 H 0.9794 0.6600 0.2071 0.1290 Uiso
C12 C 0.4592(11) 0.4401(7) 0.0810(6) 0.0347 Uani
C14 C 0.5289(8) 0.5737(6) 0.1553(6) 0.0323 Uani
H8 H 0.4762 0.5638 0.1963 0.0390 Uiso
C15 C 0.5380(8) 0.5151(6) 0.0899(6) 0.0307 Uani
C17 C 0.6001(8) 0.9954(6) 0.0166(6) 0.0507 Uani
C18 C 0.5985(8) 0.6468(6) 0.1591(6) 0.0483 Uani
H10 H 0.5928 0.6853 0.2023 0.0580 Uiso
C20 C 0.6173(8) 0.5311(6) 0.0287(6) 0.0320 Uani
C21 C 0.6774(8) 0.6607(6) 0.0956(6) 0.0253 Uani
C22 C 0.6777(8) 0.9818(6) 0.0794(6) 0.0310 Uani
C23 C 0.6929(11) 0.8217(6) 0.0899(6) 0.0500 Uani
H13 H 0.6143 0.8216 0.0867 0.0600 Uiso
C24 C 0.6872(8) 0.6035(6) 0.0307(6) 0.0353 Uani
C26 C 0.7438(8) 0.7423(6) 0.0873(6) 0.0280 Uani
C27 C 0.7423(8) 0.9006(6) 0.0965(6) 0.0247 Uani
C28 C 0.8603(9) 0.8997(6) 0.1013(6) 0.0333 Uani
C29 C 0.8614(9) 0.7450(7) 0.0922(6) 0.0393 Uani
C30 C 0.9199(9) 0.8224(6) 0.0991(6) 0.0267 Uani
H16 H 0.9985 0.8226 0.1023 0.0320 Uiso
C31 C 0.9353(9) 0.9765(7) 0.0867(7) 0.0330 Uani
C32 C 0.9353(9) 0.6657(7) 0.0908(7) 0.0373 Uani
C34 C 0.9587(12) 0.6194(8) 0.0202(10) 0.1420 Uani
H1 H 0.9838 0.9763 0.9691 0.1090 Uiso
H9 H 0.5946 0.9563 0.9738 0.0600 Uiso
H12 H 0.6237 0.4926 0.9855 0.0380 Uiso
H14 H 0.7396 0.6133 0.9894 0.0420 Uiso
H18 H 0.9250 0.6368 0.9717 0.1700 Uiso
loop_
_atom_site_aniso_label
_atom_site_aniso_U_11
_atom_site_aniso_U_22
_atom_site_aniso_U_33
_atom_site_aniso_U_23
_atom_site_aniso_U_13
_atom_site_aniso_U_12
O9 0.061 0.042 0.038 -0.01 0.005 0.029
O10 0.051 0.026 0.042 -0.01 0.011 -0.012
O14 0.057 0.035 0.044 0.009 -0.002 -0.01
O15 0.035 0.025 0.023 -0.008 -0.003 -0.001
Zn1 0.0258 0.0173 0.031 -0.0016 0.002 -0.0012
Zn2 0.0191 0.0108 0.0102 0.0008 -0.0004 0.0005
N1 0.033 0.022 0.006 -0.001 0.004 0.001
N2 0.031 0.027 0.023 0.001 0.002 -0.003
O3 0.051 0.018 0.038 0.001 -0.004 -0.019
C3 0.115 0.071 0.075 -0.012 -0.003 -0.047
C6 0.035 0.021 0.038 0.007 -0.003 -0.003
C8 0.124 0.083 0.089 0.022 -0.012 -0.064
C10 0.021 0.018 0.027 -0.001 0.006 0
C35 0.135 0.118 0.046 0.001 0.003 0.035
C36 0.111 0.132 0.053 -0.015 0.021 -0.028
C37 0.184 0.185 0.156 -0.008 -0.015 -0.037
C38 0.094 0.151 0.065 -0.031 -0.008 0.019
C39 0.117 0.092 0.062 0.008 -0.024 0.009
C40 0.089 0.049 0.064 -0.004 -0.004 0.002
C41 0.144 0.119 0.096 -0.003 0.018 -0.035
C42 0.196 0.18 0.181 -0.001 -0.004 -0.012
C43 0.268 0.258 0.236 0.002 -0.005 0.022
C44 0.44 0.44 0.43 -0.016 0 0.008
C45 0.108 0.11 0.054 0.002 0.018 -0.024
C46 0.231 0.232 0.216 0 -0.021 -0.023
Si1 0.184 0.153 0.11 0.006 0.007 0.008
C47 0.207 0.198 0.204 -0.018 0.013 0.018
C48 0.239 0.224 0.23 0.011 -0.008 0.007
C49 0.172 0.147 0.132 0.021 -0.011 0.005
C50 0.163 0.149 0.151 0.009 -0.001 0.007
O11 0.038 0.021 0.035 -0.003 -0.007 0.015
O12 0.068 0.067 0.07 0.002 -0.002 0.022
O13 0.051 0.036 0.021 -0.004 0.002 -0.006
C4 0.119 0.075 0.097 0.023 0.017 0.058
C5 0.128 0.075 0.107 -0.011 0.006 0.049
C7 0.043 0.029 0.043 0.003 0.009 -0.002
C9 0.022 0.019 0.045 0.012 -0.002 -0.002
C1 0.111 0.071 0.09 -0.001 -0.014 -0.057
C11 0.032 0.036 0.033 0.003 0.001 -0.004
C13 0.047 0.023 0.049 -0.009 -0.012 -0.005
C16 0.022 0.014 0.029 -0.005 -0.009 0.005
C19 0.032 0.027 0.025 -0.001 0.001 -0.002
C25 0.035 0.02 0.032 -0.007 -0.005 0.006
C33 0.126 0.114 0.079 0.016 0.016 -0.05
C51 0.244 0.26 0.252 -0.008 -0.006 0.004
C2 0.122 0.093 0.108 -0.017 -0.001 0.042
C12 0.036 0.031 0.037 0.004 -0.002 0.006
C14 0.025 0.028 0.044 -0.004 0.01 0.008
C15 0.019 0.027 0.046 -0.012 0.016 -0.011
C17 0.045 0.02 0.087 -0.022 -0.014 0.01
C18 0.042 0.039 0.064 -0.015 0.007 0.014
C20 0.03 0.028 0.038 -0.006 -0.002 0.007
C21 0.027 0.007 0.042 0.009 0.009 0.001
C22 0.029 0.013 0.051 0.004 -0.015 0.002
C23 0.027 0.05 0.073 0.002 0.008 -0.007
C24 0.031 0.026 0.049 0 0.009 -0.002
C26 0.017 0.021 0.046 0.005 0.007 -0.001
C27 0.026 0.007 0.041 -0.003 0.007 0.007
C28 0.034 0.019 0.047 0 0.003 -0.004
C29 0.026 0.033 0.059 0.005 0.009 -0.012
C30 0.015 0.015 0.05 0.003 -0.005 -0.004
C31 0.026 0.032 0.041 -0.003 0.008 -0.008
C32 0.032 0.029 0.051 0.008 0 -0.001
C34 0.156 0.134 0.136 0.026 -0.011 0.05
loop_
_geom_bond_atom_site_label_1
_geom_bond_atom_site_label_2
_geom_bond_site_symmetry_1
_geom_bond_site_symmetry_2
Zn1 N2 1_555 1_555
Zn2 N1 1_555 1_555
N1 C38 1_555 1_555
N2 C36 1_555 1_555
O10 C10 1_555 1_555
O3 Zn1 1_555 1_555
C3 H3 1_555 1_555
C6 C3 1_555 1_555
C10 O3 1_555 1_555
C35 C36 1_555 1_555
C36 H19 1_555 1_555
C37 H20 1_555 1_555
C38 C37 1_555 1_555
H21 C38 1_555 1_555
C39 C35 1_555 1_555
C40 C37 1_555 1_555
C41 C39 1_555 1_555
H22 C41 1_555 1_555
C42 C40 1_555 1_555
H23 C42 1_555 1_555
C43 N1 1_555 1_555
H24 C43 1_555 1_555
C44 C39 1_555 1_555
H25 C44 1_555 1_555
C45 C40 1_555 1_555
H26 C45 1_555 1_555
C46 N2 1_555 1_555
H27 C46 1_555 1_555
Si1 C47 1_555 1_555
C47 C48 1_555 1_555
C48 C35 1_555 1_555
C49 Si1 1_555 1_555
H28 C49 1_555 1_555
H29 C49 1_555 1_555
H30 C49 1_555 1_555
C50 Si1 1_555 1_555
H31 C50 1_555 1_555
H32 C50 1_555 1_555
H33 C50 1_555 1_555
O11 Zn1 1_555 1_555
O12 Zn1 1_555 1_555
O13 Zn1 1_555 1_555
C6 C8 1_555 1_555
C6 C10 1_555 1_555
C41 C42 1_555 1_555
C43 C45 1_555 1_555
C44 C46 1_555 1_555
O9 C9 1_555 1_555
O11 C9 1_555 1_555
H4 C4 1_555 1_555
C7 C4 1_555 1_555
C9 C7 1_555 1_555
C5 C7 1_555 1_555
O12 C11 1_555 1_555
O15 C11 1_555 1_555
C11 C16 1_555 1_555
C16 C13 1_555 1_555
C19 C16 1_555 1_555
H11 C19 1_555 1_555
C25 C19 1_555 1_555
H15 C25 1_555 1_555
H17 C33 1_555 1_555
H34 C51 1_555 1_555
H35 C51 1_555 1_555
H36 C51 1_555 1_555
O13 C12 1_555 1_555
O14 C12 1_555 1_555
C2 H2 1_555 1_555
C12 C15 1_555 1_555
C14 H8 1_555 1_555
C15 C14 1_555 1_555
C18 C14 1_555 1_555
H10 C18 1_555 1_555
C20 C15 1_555 1_555
C21 C18 1_555 1_555
C22 C17 1_555 1_555
C23 H13 1_555 1_555
C24 C20 1_555 1_555
C26 C21 1_555 1_555
C27 C22 1_555 1_555
C28 C27 1_555 1_555
C29 C26 1_555 1_555
C30 C28 1_555 1_555
H16 C30 1_555 1_555
C32 C2 1_555 1_555
C21 C24 1_555 1_555
C23 C26 1_555 1_555
C23 C27 1_555 1_555
C28 C31 1_555 1_555
C29 C30 1_555 1_555
C29 C32 1_555 1_555
C32 C34 1_555 1_555

#END
