
###############################################################################
#
# This file contains modified crystal structure data generated from the
# MOF subset of the Cambridge Structural Database (CSD) v543 
# hosted by the Cambridge Crystallographic Data Centre (CCDC).
#
# This work is licensed under the Creative Commons
# Attribution-NonCommercial-ShareAlike 4.0 International License.
# To view a copy of this license, visit
# http://creativecommons.org/licenses/by-nc-sa/4.0/
# or send a letter to
# Creative Commons, PO Box 1866, Mountain View, CA 94042, USA.
#
# CIF created using the CSD Python API on 29 September 2022
# The structure has been converted into the P1 space group
# The structure has a 3D framework
# The original CSD entry LURLOB is in the orthorhombic crystal system
# The framework has been calculated to contain at least 10.0% void space
# The void calculation uses a probe of radius 1.32A, grid spacing 0.4
#
###############################################################################

data_LURLOB
_chemical_formula_moiety         '(C40 H16 Cr4 O20)n'
_symmetry_cell_setting           triclinic
_symmetry_space_group_name_H-M   'P 1'
_symmetry_Int_Tables_number      1
_space_group_name_Hall           'P 1'
loop_
_symmetry_equiv_pos_site_id
_symmetry_equiv_pos_as_xyz
1 x,y,z
_cell_length_a                   16.4276(13)
_cell_length_b                   13.6108(10)
_cell_length_c                   6.8630(6)
_cell_angle_alpha                90
_cell_angle_beta                 90
_cell_angle_gamma                90
_cell_volume                     1534.52
loop_
_atom_site_label
_atom_site_type_symbol
_atom_site_fract_x
_atom_site_fract_y
_atom_site_fract_z
O1 O 0.16479 0.83993 0.12879
C2 C 0.06831 0.94703 0.000
C3 C 0.1276 0.86979 0.000
Cr1 Cr 0.250 0.750 0.250
O2 O 0.250 0.72457 0.000
C7 C 0.03733 0.97102 0.1776
D3 D 0.06342 0.93404 0.31703
O6 O 0.33521 0.83993 0.12879
O7 O 0.33521 0.66007 0.37121
O8 O 0.16479 0.66007 0.37121
O9 O 0.250 0.77543 0.500
C1 C 0.03733 0.97102 0.8224
C2_2 C 0.06831 0.94703 1.000
C3_2 C 0.1276 0.86979 1.000
D1 D 0.06342 0.93404 0.68297
O2_2 O 0.250 0.72457 1.000
O4 O 0.16479 0.83993 0.87121
Cr2 Cr 0.250 0.750 0.750
O3 O 0.83521 0.16007 0.12879
C5 C 0.93169 0.05297 0.000
C6 C 0.8724 0.13021 0.000
C8 C 0.96267 0.02898 0.1776
D4 D 0.93658 0.06596 0.31703
Cr4 Cr 0.750 0.250 0.250
C4 C 0.96267 0.02898 0.8224
C5_2 C 0.93169 0.05297 1.000
C6_2 C 0.8724 0.13021 1.000
D2 D 0.93658 0.06596 0.68297
O5 O 0.83521 0.16007 0.87121
Cr3 Cr 0.750 0.250 0.750
O1_2 O 0.33521 0.66007 0.62879
C1_2 C 0.46267 0.52898 0.3224
C2_3 C 0.43169 0.55297 0.500
C3_3 C 0.3724 0.63021 0.500
D1_2 D 0.43658 0.56596 0.18297
O3_2 O 0.66479 0.33993 0.62879
C4_2 C 0.53733 0.47102 0.3224
C5_3 C 0.56831 0.44703 0.500
C6_3 C 0.6276 0.36979 0.500
D2_2 D 0.56342 0.43404 0.18297
C7_2 C 0.46267 0.52898 0.6776
D3_2 D 0.43658 0.56596 0.81703
O5_2 O 0.66479 0.33993 0.37121
C8_2 C 0.53733 0.47102 0.6776
D4_2 D 0.56342 0.43404 0.81703
O6_2 O 0.16479 0.66007 0.62879
O8_2 O 0.33521 0.83993 0.87121
C1_3 C 0.53733 0.02898 0.1776
C2_4 C 0.56831 0.05297 0.000
C3_4 C 0.6276 0.13021 0.000
D1_3 D 0.56342 0.06596 0.31703
O2_3 O 0.750 0.27543 0.000
O4_2 O 0.66479 0.16007 0.12879
O1_3 O 0.66479 0.16007 0.87121
C2_5 C 0.56831 0.05297 1.000
C3_5 C 0.6276 0.13021 1.000
O2_4 O 0.750 0.27543 1.000
C7_3 C 0.53733 0.02898 0.8224
D3_3 D 0.56342 0.06596 0.68297
O7_2 O 0.83521 0.33993 0.62879
O9_2 O 0.750 0.22457 0.500
C4_3 C 0.46267 0.97102 0.1776
C5_4 C 0.43169 0.94703 0.000
C6_4 C 0.3724 0.86979 0.000
D2_3 D 0.43658 0.93404 0.31703
C5_5 C 0.43169 0.94703 1.000
C6_5 C 0.3724 0.86979 1.000
C8_3 C 0.46267 0.97102 0.8224
D4_3 D 0.43658 0.93404 0.68297
C4_4 C 0.03733 0.52898 0.6776
C5_6 C 0.06831 0.55297 0.500
C6_6 C 0.1276 0.63021 0.500
D2_4 D 0.06342 0.56596 0.81703
C8_4 C 0.03733 0.52898 0.3224
D4_4 D 0.06342 0.56596 0.18297
O1_4 O 0.83521 0.33993 0.37121
C1_4 C 0.96267 0.47102 0.6776
C2_6 C 0.93169 0.44703 0.500
C3_6 C 0.8724 0.36979 0.500
D1_4 D 0.93658 0.43404 0.81703
C7_4 C 0.96267 0.47102 0.3224
D3_4 D 0.93658 0.43404 0.18297
loop_
_geom_bond_atom_site_label_1
_geom_bond_atom_site_label_2
_geom_bond_site_symmetry_1
_geom_bond_site_symmetry_2
O1 C3 1_555 1_555
C2 C3 1_555 1_555
Cr1 O1 1_555 1_555
O2 Cr1 1_555 1_555
C7 C2 1_555 1_555
D3 C7 1_555 1_555
O6 Cr1 1_555 1_555
O7 Cr1 1_555 1_555
O8 Cr1 1_555 1_555
O9 Cr1 1_555 1_555
C1 C2_2 1_555 1_555
C2_2 C3_2 1_555 1_555
C3_2 O4 1_555 1_555
D1 C1 1_555 1_555
O4 Cr2 1_555 1_555
Cr2 O2_2 1_555 1_555
O3 C6 1_555 1_555
C6 C5 1_555 1_555
C8 C5 1_555 1_555
D4 C8 1_555 1_555
Cr4 O3 1_555 1_555
C5_2 C4 1_555 1_555
C6_2 C5_2 1_555 1_555
D2 C4 1_555 1_555
O5 C6_2 1_555 1_555
Cr3 O5 1_555 1_555
O1_2 C3_3 1_555 1_555
C1_2 C2_3 1_555 1_555
C2_3 C3_3 1_555 1_555
C3_3 O7 1_555 1_555
D1_2 C1_2 1_555 1_555
Cr2 O1_2 1_555 1_555
O9 Cr2 1_555 1_555
O3_2 C6_3 1_555 1_555
C4_2 C1_2 1_555 1_555
C5_3 C4_2 1_555 1_555
C6_3 C5_3 1_555 1_555
D2_2 C4_2 1_555 1_555
C7_2 C2_3 1_555 1_555
D3_2 C7_2 1_555 1_555
O5_2 C6_3 1_555 1_555
C8_2 C5_3 1_555 1_555
D4_2 C8_2 1_555 1_555
O6_2 Cr2 1_555 1_555
O8_2 Cr2 1_555 1_555
Cr4 O5_2 1_555 1_555
Cr3 O3_2 1_555 1_555
C7_2 C8_2 1_555 1_555
C1_3 C2_4 1_555 1_555
C2_4 C3_4 1_555 1_555
C3_4 O4_2 1_555 1_555
D1_3 C1_3 1_555 1_555
O4_2 Cr4 1_555 1_555
Cr4 O2_3 1_555 1_555
O1_3 C3_5 1_555 1_555
C2_5 C3_5 1_555 1_555
Cr3 O1_3 1_555 1_555
O2_4 Cr3 1_555 1_555
C7_3 C2_5 1_555 1_555
D3_3 C7_3 1_555 1_555
O7_2 Cr3 1_555 1_555
O9_2 Cr3 1_555 1_555
C5_4 C4_3 1_555 1_555
C6_4 C5_4 1_555 1_555
D2_3 C4_3 1_555 1_555
O6 C6_4 1_555 1_555
O8_2 C6_5 1_555 1_555
C6_5 C5_5 1_555 1_555
C8_3 C5_5 1_555 1_555
D4_3 C8_3 1_555 1_555
O8 C6_6 1_555 1_555
C5_6 C4_4 1_555 1_555
C6_6 C5_6 1_555 1_555
D2_4 C4_4 1_555 1_555
O6_2 C6_6 1_555 1_555
C8_4 C5_6 1_555 1_555
D4_4 C8_4 1_555 1_555
O1_4 C3_6 1_555 1_555
C1_4 C2_6 1_555 1_555
C2_6 C3_6 1_555 1_555
C3_6 O7_2 1_555 1_555
D1_4 C1_4 1_555 1_555
Cr4 O1_4 1_555 1_555
O9_2 Cr4 1_555 1_555
C7_4 C2_6 1_555 1_555
D3_4 C7_4 1_555 1_555

#END
