
###############################################################################
#
# This file contains modified crystal structure data generated from the
# MOF subset of the Cambridge Structural Database (CSD) v543 
# hosted by the Cambridge Crystallographic Data Centre (CCDC).
#
# This work is licensed under the Creative Commons
# Attribution-NonCommercial-ShareAlike 4.0 International License.
# To view a copy of this license, visit
# http://creativecommons.org/licenses/by-nc-sa/4.0/
# or send a letter to
# Creative Commons, PO Box 1866, Mountain View, CA 94042, USA.
#
# CIF created using the CSD Python API on 29 September 2022
# The structure has been converted into the P1 space group
# The structure has a 3D framework
# The original CSD entry LURMAO is in the orthorhombic crystal system
# The framework has been calculated to contain at least 10.0% void space
# The void calculation uses a probe of radius 1.32A, grid spacing 0.4
#
###############################################################################

data_LURMAO
_chemical_formula_moiety         '(C40 H16 Cr4 O20)n'
_symmetry_cell_setting           triclinic
_symmetry_space_group_name_H-M   'P 1'
_symmetry_Int_Tables_number      1
_space_group_name_Hall           'P 1'
loop_
_symmetry_equiv_pos_site_id
_symmetry_equiv_pos_as_xyz
1 x,y,z
_cell_length_a                   16.2698(9)
_cell_length_b                   13.7952(8)
_cell_length_c                   6.8588(4)
_cell_angle_alpha                90
_cell_angle_beta                 90
_cell_angle_gamma                90
_cell_volume                     1539.42
loop_
_atom_site_label
_atom_site_type_symbol
_atom_site_fract_x
_atom_site_fract_y
_atom_site_fract_z
O1 O 0.16356 0.83997 0.14876
C2 C 0.06455 0.93936 0.000
C3 C 0.13137 0.87158 0.000
Cr1 Cr 0.250 0.750 0.250
O2 O 0.250 0.71815 0.000
C7 C 0.0333 0.97112 0.14361
D3 D 0.05825 0.94641 0.30071
O6 O 0.33644 0.83997 0.14876
O7 O 0.33644 0.66003 0.35124
O8 O 0.16356 0.66003 0.35124
O9 O 0.250 0.78185 0.500
C1 C 0.0333 0.97112 0.85639
C2_2 C 0.06455 0.93936 1.000
C3_2 C 0.13137 0.87158 1.000
D1 D 0.05825 0.94641 0.69929
O2_2 O 0.250 0.71815 1.000
O4 O 0.16356 0.83997 0.85124
Cr2 Cr 0.250 0.750 0.750
O3 O 0.83644 0.16003 0.14876
C5 C 0.93545 0.06064 0.000
C6 C 0.86863 0.12842 0.000
C8 C 0.9667 0.02888 0.14361
D4 D 0.94175 0.05359 0.30071
Cr4 Cr 0.750 0.250 0.250
C4 C 0.9667 0.02888 0.85639
C5_2 C 0.93545 0.06064 1.000
C6_2 C 0.86863 0.12842 1.000
D2 D 0.94175 0.05359 0.69929
O5 O 0.83644 0.16003 0.85124
Cr3 Cr 0.750 0.250 0.750
O1_2 O 0.33644 0.66003 0.64876
C1_2 C 0.4667 0.52888 0.35639
C2_3 C 0.43545 0.56064 0.500
C3_3 C 0.36863 0.62842 0.500
D1_2 D 0.44175 0.55359 0.19929
O3_2 O 0.66356 0.33997 0.64876
C4_2 C 0.5333 0.47112 0.35639
C5_3 C 0.56455 0.43936 0.500
C6_3 C 0.63137 0.37158 0.500
D2_2 D 0.55825 0.44641 0.19929
C7_2 C 0.4667 0.52888 0.64361
D3_2 D 0.44175 0.55359 0.80071
O5_2 O 0.66356 0.33997 0.35124
C8_2 C 0.5333 0.47112 0.64361
D4_2 D 0.55825 0.44641 0.80071
O6_2 O 0.16356 0.66003 0.64876
O8_2 O 0.33644 0.83997 0.85124
C1_3 C 0.5333 0.02888 0.14361
C2_4 C 0.56455 0.06064 0.000
C3_4 C 0.63137 0.12842 0.000
D1_3 D 0.55825 0.05359 0.30071
O2_3 O 0.750 0.28185 0.000
O4_2 O 0.66356 0.16003 0.14876
O1_3 O 0.66356 0.16003 0.85124
C2_5 C 0.56455 0.06064 1.000
C3_5 C 0.63137 0.12842 1.000
O2_4 O 0.750 0.28185 1.000
C7_3 C 0.5333 0.02888 0.85639
D3_3 D 0.55825 0.05359 0.69929
O7_2 O 0.83644 0.33997 0.64876
O9_2 O 0.750 0.21815 0.500
C4_3 C 0.4667 0.97112 0.14361
C5_4 C 0.43545 0.93936 0.000
C6_4 C 0.36863 0.87158 0.000
D2_3 D 0.44175 0.94641 0.30071
C5_5 C 0.43545 0.93936 1.000
C6_5 C 0.36863 0.87158 1.000
C8_3 C 0.4667 0.97112 0.85639
D4_3 D 0.44175 0.94641 0.69929
C4_4 C 0.0333 0.52888 0.64361
C5_6 C 0.06455 0.56064 0.500
C6_6 C 0.13137 0.62842 0.500
D2_4 D 0.05825 0.55359 0.80071
C8_4 C 0.0333 0.52888 0.35639
D4_4 D 0.05825 0.55359 0.19929
O1_4 O 0.83644 0.33997 0.35124
C1_4 C 0.9667 0.47112 0.64361
C2_6 C 0.93545 0.43936 0.500
C3_6 C 0.86863 0.37158 0.500
D1_4 D 0.94175 0.44641 0.80071
C7_4 C 0.9667 0.47112 0.35639
D3_4 D 0.94175 0.44641 0.19929
loop_
_geom_bond_atom_site_label_1
_geom_bond_atom_site_label_2
_geom_bond_site_symmetry_1
_geom_bond_site_symmetry_2
O1 C3 1_555 1_555
C2 C3 1_555 1_555
Cr1 O1 1_555 1_555
O2 Cr1 1_555 1_555
C7 C2 1_555 1_555
D3 C7 1_555 1_555
O6 Cr1 1_555 1_555
O7 Cr1 1_555 1_555
O8 Cr1 1_555 1_555
O9 Cr1 1_555 1_555
C1 C2_2 1_555 1_555
C2_2 C3_2 1_555 1_555
C3_2 O4 1_555 1_555
D1 C1 1_555 1_555
O4 Cr2 1_555 1_555
Cr2 O2_2 1_555 1_555
O3 C6 1_555 1_555
C6 C5 1_555 1_555
C8 C5 1_555 1_555
D4 C8 1_555 1_555
Cr4 O3 1_555 1_555
C5_2 C4 1_555 1_555
C6_2 C5_2 1_555 1_555
D2 C4 1_555 1_555
O5 C6_2 1_555 1_555
Cr3 O5 1_555 1_555
O1_2 C3_3 1_555 1_555
C1_2 C2_3 1_555 1_555
C2_3 C3_3 1_555 1_555
C3_3 O7 1_555 1_555
D1_2 C1_2 1_555 1_555
Cr2 O1_2 1_555 1_555
O9 Cr2 1_555 1_555
O3_2 C6_3 1_555 1_555
C4_2 C1_2 1_555 1_555
C5_3 C4_2 1_555 1_555
C6_3 C5_3 1_555 1_555
D2_2 C4_2 1_555 1_555
C7_2 C2_3 1_555 1_555
D3_2 C7_2 1_555 1_555
O5_2 C6_3 1_555 1_555
C8_2 C5_3 1_555 1_555
D4_2 C8_2 1_555 1_555
O6_2 Cr2 1_555 1_555
O8_2 Cr2 1_555 1_555
Cr4 O5_2 1_555 1_555
Cr3 O3_2 1_555 1_555
C7_2 C8_2 1_555 1_555
C1_3 C2_4 1_555 1_555
C2_4 C3_4 1_555 1_555
C3_4 O4_2 1_555 1_555
D1_3 C1_3 1_555 1_555
O4_2 Cr4 1_555 1_555
Cr4 O2_3 1_555 1_555
O1_3 C3_5 1_555 1_555
C2_5 C3_5 1_555 1_555
Cr3 O1_3 1_555 1_555
O2_4 Cr3 1_555 1_555
C7_3 C2_5 1_555 1_555
D3_3 C7_3 1_555 1_555
O7_2 Cr3 1_555 1_555
O9_2 Cr3 1_555 1_555
C5_4 C4_3 1_555 1_555
C6_4 C5_4 1_555 1_555
D2_3 C4_3 1_555 1_555
O6 C6_4 1_555 1_555
O8_2 C6_5 1_555 1_555
C6_5 C5_5 1_555 1_555
C8_3 C5_5 1_555 1_555
D4_3 C8_3 1_555 1_555
O8 C6_6 1_555 1_555
C5_6 C4_4 1_555 1_555
C6_6 C5_6 1_555 1_555
D2_4 C4_4 1_555 1_555
O6_2 C6_6 1_555 1_555
C8_4 C5_6 1_555 1_555
D4_4 C8_4 1_555 1_555
O1_4 C3_6 1_555 1_555
C1_4 C2_6 1_555 1_555
C2_6 C3_6 1_555 1_555
C3_6 O7_2 1_555 1_555
D1_4 C1_4 1_555 1_555
Cr4 O1_4 1_555 1_555
O9_2 Cr4 1_555 1_555
C7_4 C2_6 1_555 1_555
D3_4 C7_4 1_555 1_555

#END
