
###############################################################################
#
# This file contains modified crystal structure data generated from the
# MOF subset of the Cambridge Structural Database (CSD) v543 
# hosted by the Cambridge Crystallographic Data Centre (CCDC).
#
# This work is licensed under the Creative Commons
# Attribution-NonCommercial-ShareAlike 4.0 International License.
# To view a copy of this license, visit
# http://creativecommons.org/licenses/by-nc-sa/4.0/
# or send a letter to
# Creative Commons, PO Box 1866, Mountain View, CA 94042, USA.
#
# CIF created using the CSD Python API on 29 September 2022
# The structure has been converted into the P1 space group
# The structure has a 3D framework
# The original CSD entry LUSHIR is in the monoclinic crystal system
# The framework has been calculated to contain at least 10.0% void space
# The void calculation uses a probe of radius 1.32A, grid spacing 0.4
#
###############################################################################

data_LUSHIR
_chemical_formula_moiety         '(C104 H64 Mn10 N8 O38)n'
_symmetry_cell_setting           triclinic
_symmetry_space_group_name_H-M   'P 1'
_symmetry_Int_Tables_number      1
_space_group_name_Hall           'P 1'
loop_
_symmetry_equiv_pos_site_id
_symmetry_equiv_pos_as_xyz
1 x,y,z
_cell_length_a                   18.2088(11)
_cell_length_b                   17.7065(11)
_cell_length_c                   13.3781(8)
_cell_angle_alpha                90
_cell_angle_beta                 128.4380(10)
_cell_angle_gamma                90
_cell_volume                     3378.52
loop_
_atom_site_label
_atom_site_type_symbol
_atom_site_fract_x
_atom_site_fract_y
_atom_site_fract_z
Mn4 Mn 0.2500 0.7500 -0.0000
Mn2 Mn 0.0000 0.30516(3) 0.2500
C14 C 0.1619(2) 0.39757(17) 0.4989(3)
C15 C 0.1648(2) 0.46985(18) 0.5605(3)
C16 C 0.2406(3) 0.4878(2) 0.6845(3)
H9 H 0.2925 0.4560 0.7297
C17 C 0.2404(3) 0.5524(2) 0.7422(3)
H10 H 0.2922 0.5639 0.8254
C18 C 0.1633(2) 0.60021(18) 0.6769(3)
C19 C 0.0880(2) 0.58300(19) 0.5521(3)
H11 H 0.0363 0.6150 0.5069
C20 C 0.0887(2) 0.51883(19) 0.4937(3)
H12 H 0.0380 0.5084 0.4093
C21 C 0.1597(2) 0.66658(18) 0.7439(3)
O6 O 0.09140(16) 0.38839(13) 0.3844(2)
O7 O 0.22932(16) 0.35298(12) 0.5654(2)
O9 O 0.08210(16) 0.70025(12) 0.6862(2)
O10 O 0.08210(16) 0.29975(12) 0.1862(2)
O12 O 0.23302(16) 0.68361(12) 0.8521(2)
O17 O 0.09749(15) 0.21802(13) 0.3904(2)
Mn4_2 Mn 0.2500 0.7500 1.0000
Mn6 Mn 0.2500 0.2500 0.5000
Mn9 Mn -0.0000 0.69484(3) 0.7500
H6 H 0.0266 0.1141 0.9547
H15 H 0.0683 0.0218 0.9088
C23 C 0.0019(3) 0.8934(2) 0.0076(4)
C22 C 0.0304(3) 0.8320(2) 0.9767(4)
H13 H 0.0212 0.7835 0.9937
C24 C 0.0150(2) 0.96659(19) 0.9833(3)
C25 C 0.0586(3) 0.9740(2) 0.9275(3)
C26 C 0.0872(3) 0.9113(2) 0.9000(3)
H16 H 0.1182 0.9171 0.8655
N2 N 0.07124(18) 0.84188(15) 0.9222(3)
O15 O 0.09749(15) 0.78198(13) 0.8904(2)
C1 C 0.8381(2) 0.39757(17) 0.0011(3)
C7 C 0.9113(2) 0.51883(19) 0.0063(3)
H4 H 0.9620 0.5084 0.0907
C9 C 0.9696(3) 0.1680(2) 0.0233(4)
H5 H 0.9788 0.2165 0.0063
C11 C 0.9850(2) 0.03341(19) 0.0167(3)
C12 C 0.9414(3) 0.0260(2) 0.0725(3)
C13 C 0.9128(3) 0.0887(2) 0.1000(3)
H8 H 0.8818 0.0829 0.1345
N1 N 0.92876(18) 0.15812(15) 0.0778(3)
O1 O 0.90860(16) 0.38839(13) 0.1156(2)
O5 O 0.90251(15) 0.21802(13) 0.1096(2)
Mn1 Mn 0.7500 0.2500 -0.0000
Mn2_2 Mn 1.0000 0.30516(3) 0.2500
O8 O 0.72932(16) 0.14702(12) 0.0654(2)
O11 O 0.91790(16) 0.29975(12) 0.3138(2)
O14 O 0.76698(16) 0.31639(12) 0.1479(2)
Mn9_2 Mn 1.0000 0.69484(3) 0.7500
C2 C 0.8352(2) 0.46985(18) 0.9395(3)
C3 C 0.7594(3) 0.4878(2) 0.8155(3)
H1 H 0.7075 0.4560 0.7703
C4 C 0.7596(3) 0.5524(2) 0.7578(3)
H2 H 0.7078 0.5639 0.6746
C5 C 0.8367(2) 0.60021(18) 0.8231(3)
C6 C 0.9120(2) 0.58300(19) 0.9479(3)
H3 H 0.9637 0.6150 0.9931
C8 C 0.8403(2) 0.66658(18) 0.7561(3)
C10 C 0.9981(3) 0.1066(2) 0.9924(4)
O2 O 0.77068(16) 0.35298(12) 0.9346(2)
O3 O 0.91790(16) 0.70025(12) 0.8138(2)
O4 O 0.76698(16) 0.68361(12) 0.6479(2)
Mn1_2 Mn 0.7500 0.2500 1.0000
O13 O 0.73302(16) 0.18361(12) 0.8521(2)
O16 O 0.59749(15) 0.28198(13) 0.8904(2)
Mn5 Mn 0.7500 0.7500 0.5000
H7 H 0.9317 0.9782 0.0912
H14 H 0.9734 0.8859 0.0453
C9_2 C 0.0304(3) 0.1680(2) 0.4767(4)
H5_2 H 0.0212 0.2165 0.4937
C10_2 C 0.0019(3) 0.1066(2) 0.5076(4)
C11_2 C 0.0150(2) 0.03341(19) 0.4833(3)
C12_2 C 0.0586(3) 0.0260(2) 0.4275(3)
C13_2 C 0.0872(3) 0.0887(2) 0.4000(3)
H8_2 H 0.1182 0.0829 0.3655
N1_2 N 0.07124(18) 0.15812(15) 0.4222(3)
O8_2 O 0.27068(16) 0.14702(12) 0.4346(2)
O13_2 O 0.26698(16) 0.18361(12) 0.6479(2)
O14_2 O 0.23302(16) 0.31639(12) 0.3521(2)
O16_2 O 0.40251(15) 0.28198(13) 0.6096(2)
H7_2 H 0.0683 0.9782 0.4088
H14_2 H 0.0266 0.8859 0.4547
H6_2 H 0.9734 0.1141 0.5453
H15_2 H 0.9317 0.0218 0.5912
C22_2 C 0.9696(3) 0.8320(2) 0.5233(4)
H13_2 H 0.9788 0.7835 0.5063
C23_2 C 0.9981(3) 0.8934(2) 0.4924(4)
C24_2 C 0.9850(2) 0.96659(19) 0.5167(3)
C25_2 C 0.9414(3) 0.9740(2) 0.5725(3)
C26_2 C 0.9128(3) 0.9113(2) 0.6000(3)
H16_2 H 0.8818 0.9171 0.6345
N2_2 N 0.92876(18) 0.84188(15) 0.5778(3)
O15_2 O 0.90251(15) 0.78198(13) 0.6096(2)
C7_2 C 0.4113(2) 0.01883(19) 0.0063(3)
H4_2 H 0.4620 0.0084 0.0907
C17_2 C 0.7404(3) 0.0524(2) 0.7422(3)
H10_2 H 0.7922 0.0639 0.8254
C18_2 C 0.6633(2) 0.10021(18) 0.6769(3)
C19_2 C 0.5880(2) 0.08300(19) 0.5521(3)
H11_2 H 0.5363 0.1150 0.5069
C20_2 C 0.5887(2) 0.01883(19) 0.4937(3)
H12_2 H 0.5380 0.0084 0.4093
C21_2 C 0.6597(2) 0.16658(18) 0.7439(3)
O9_2 O 0.58210(16) 0.20025(12) 0.6862(2)
Mn9_3 Mn 0.5000 0.19484(3) 0.7500
C4_2 C 0.2596(3) 0.0524(2) 0.7578(3)
H2_2 H 0.2078 0.0639 0.6746
C5_2 C 0.3367(2) 0.10021(18) 0.8231(3)
C6_2 C 0.4120(2) 0.08300(19) 0.9479(3)
H3_2 H 0.4637 0.1150 0.9931
C8_2 C 0.3403(2) 0.16658(18) 0.7561(3)
O3_2 O 0.41790(16) 0.20025(12) 0.8138(2)
C1_2 C 0.3381(2) 0.89757(17) 0.0011(3)
C9_3 C 0.4696(3) 0.6680(2) 0.0233(4)
H5_3 H 0.4788 0.7165 0.0063
C11_3 C 0.4850(2) 0.53341(19) 0.0167(3)
C12_3 C 0.4414(3) 0.5260(2) 0.0725(3)
H7_3 H 0.4317 0.4782 0.0912
C13_3 C 0.4128(3) 0.5887(2) 0.1000(3)
H8_3 H 0.3818 0.5829 0.1345
N1_3 N 0.42876(18) 0.65812(15) 0.0778(3)
O1_2 O 0.40860(16) 0.88839(13) 0.1156(2)
O5_2 O 0.40251(15) 0.71802(13) 0.1096(2)
Mn2_3 Mn 0.5000 0.80516(3) 0.2500
C14_2 C 0.6619(2) 0.89757(17) 0.4989(3)
C15_2 C 0.6648(2) 0.96985(18) 0.5605(3)
C16_2 C 0.7406(3) 0.9878(2) 0.6845(3)
H9_2 H 0.7925 0.9560 0.7297
C23_3 C 0.5019(3) 0.3934(2) 0.0076(4)
H14_3 H 0.4734 0.3859 0.0453
O6_2 O 0.59140(16) 0.88839(13) 0.3844(2)
O7_2 O 0.72932(16) 0.85298(12) 0.5654(2)
O8_3 O 0.22932(16) 0.64702(12) 0.0654(2)
O10_2 O 0.58210(16) 0.79975(12) 0.1862(2)
O11_2 O 0.41790(16) 0.79975(12) 0.3138(2)
O14_3 O 0.26698(16) 0.81639(12) 0.1479(2)
O17_2 O 0.59749(15) 0.71802(13) 0.3904(2)
C2_2 C 0.3352(2) 0.96985(18) 0.9395(3)
C3_2 C 0.2594(3) 0.9878(2) 0.8155(3)
H1_2 H 0.2075 0.9560 0.7703
C10_3 C 0.4981(3) 0.6066(2) 0.9924(4)
H6_3 H 0.5266 0.6141 0.9547
O2_2 O 0.27068(16) 0.85298(12) 0.9346(2)
C22_3 C 0.5304(3) 0.3320(2) 0.9767(4)
H13_3 H 0.5212 0.2835 0.9937
C24_3 C 0.5150(2) 0.46659(19) 0.9833(3)
C25_3 C 0.5586(3) 0.4740(2) 0.9275(3)
H15_3 H 0.5683 0.5218 0.9088
C26_3 C 0.5872(3) 0.4113(2) 0.9000(3)
H16_3 H 0.6182 0.4171 0.8655
N2_3 N 0.57124(18) 0.34188(15) 0.9222(3)
C9_4 C 0.5304(3) 0.6680(2) 0.4767(4)
H5_4 H 0.5212 0.7165 0.4937
C10_4 C 0.5019(3) 0.6066(2) 0.5076(4)
H6_4 H 0.4734 0.6141 0.5453
C11_4 C 0.5150(2) 0.53341(19) 0.4833(3)
C12_4 C 0.5586(3) 0.5260(2) 0.4275(3)
H7_4 H 0.5683 0.4782 0.4088
C13_4 C 0.5872(3) 0.5887(2) 0.4000(3)
H8_4 H 0.6182 0.5829 0.3655
N1_4 N 0.57124(18) 0.65812(15) 0.4222(3)
C22_4 C 0.4696(3) 0.3320(2) 0.5233(4)
H13_4 H 0.4788 0.2835 0.5063
C23_4 C 0.4981(3) 0.3934(2) 0.4924(4)
H14_4 H 0.5266 0.3859 0.4547
C24_4 C 0.4850(2) 0.46659(19) 0.5167(3)
C25_4 C 0.4414(3) 0.4740(2) 0.5725(3)
H15_4 H 0.4317 0.5218 0.5912
C26_4 C 0.4128(3) 0.4113(2) 0.6000(3)
H16_4 H 0.3818 0.4171 0.6345
N2_4 N 0.42876(18) 0.34188(15) 0.5778(3)
O8_4 O 0.77068(16) 0.64702(12) 0.4346(2)
O14_4 O 0.73302(16) 0.81639(12) 0.3521(2)
C2_3 C 0.1648(2) 0.53015(18) 0.0605(3)
C3_3 C 0.2406(3) 0.5122(2) 0.1845(3)
H1_3 H 0.2925 0.5440 0.2297
C4_3 C 0.2404(3) 0.4476(2) 0.2422(3)
H2_3 H 0.2922 0.4361 0.3254
C5_3 C 0.1633(2) 0.39979(18) 0.1769(3)
C6_3 C 0.0880(2) 0.41700(19) 0.0521(3)
H3_3 H 0.0363 0.3850 0.0069
C8_3 C 0.1597(2) 0.33342(18) 0.2439(3)
C1_3 C 0.1619(2) 0.60243(17) 0.9989(3)
C7_3 C 0.0887(2) 0.48117(19) 0.9937(3)
H4_3 H 0.0380 0.4916 0.9093
O1_3 O 0.09140(16) 0.61161(13) 0.8844(2)
C14_3 C 0.8381(2) 0.60243(17) 0.5011(3)
C15_3 C 0.8352(2) 0.53015(18) 0.4395(3)
C16_3 C 0.7594(3) 0.5122(2) 0.3155(3)
H9_3 H 0.7075 0.5440 0.2703
C17_3 C 0.7596(3) 0.4476(2) 0.2578(3)
H10_3 H 0.7078 0.4361 0.1746
C18_3 C 0.8367(2) 0.39979(18) 0.3231(3)
C19_3 C 0.9120(2) 0.41700(19) 0.4479(3)
H11_3 H 0.9637 0.3850 0.4931
C20_3 C 0.9113(2) 0.48117(19) 0.5063(3)
H12_3 H 0.9620 0.4916 0.5907
C21_3 C 0.8403(2) 0.33342(18) 0.2561(3)
O6_3 O 0.90860(16) 0.61161(13) 0.6156(2)
C2_4 C 0.6648(2) 0.03015(18) 0.0605(3)
C3_4 C 0.7406(3) 0.0122(2) 0.1845(3)
H1_4 H 0.7925 0.0440 0.2297
C1_4 C 0.6619(2) 0.10243(17) 0.9989(3)
O1_4 O 0.59140(16) 0.11161(13) 0.8844(2)
C14_4 C 0.3381(2) 0.10243(17) 0.5011(3)
C15_4 C 0.3352(2) 0.03015(18) 0.4395(3)
C16_4 C 0.2594(3) 0.0122(2) 0.3155(3)
H9_4 H 0.2075 0.0440 0.2703
O6_4 O 0.40860(16) 0.11161(13) 0.6156(2)
C4_4 C 0.7404(3) 0.9476(2) 0.2422(3)
H2_4 H 0.7922 0.9361 0.3254
C5_4 C 0.6633(2) 0.89979(18) 0.1769(3)
C6_4 C 0.5880(2) 0.91700(19) 0.0521(3)
H3_4 H 0.5363 0.8850 0.0069
C8_4 C 0.6597(2) 0.83342(18) 0.2439(3)
C7_4 C 0.5887(2) 0.98117(19) 0.9937(3)
H4_4 H 0.5380 0.9916 0.9093
C17_4 C 0.2596(3) 0.9476(2) 0.2578(3)
H10_4 H 0.2078 0.9361 0.1746
C18_4 C 0.3367(2) 0.89979(18) 0.3231(3)
C19_4 C 0.4120(2) 0.91700(19) 0.4479(3)
H11_4 H 0.4637 0.8850 0.4931
C20_4 C 0.4113(2) 0.98117(19) 0.5063(3)
H12_4 H 0.4620 0.9916 0.5907
C21_4 C 0.3403(2) 0.83342(18) 0.2561(3)
loop_
_geom_bond_atom_site_label_1
_geom_bond_atom_site_label_2
_geom_bond_site_symmetry_1
_geom_bond_site_symmetry_2
C14 C15 1_555 1_555
C15 C16 1_555 1_555
C16 H9 1_555 1_555
C17 C16 1_555 1_555
H10 C17 1_555 1_555
C18 C17 1_555 1_555
C19 C18 1_555 1_555
H11 C19 1_555 1_555
C20 C15 1_555 1_555
H12 C20 1_555 1_555
C21 C18 1_555 1_555
O6 Mn2 1_555 1_555
O7 C14 1_555 1_555
O9 C21 1_555 1_555
O10 Mn2 1_555 1_555
O12 C21 1_555 1_555
O17 Mn2 1_555 1_555
Mn4_2 O12 1_555 1_555
Mn6 O7 1_555 1_555
Mn9 O9 1_555 1_555
C14 O6 1_555 1_555
C19 C20 1_555 1_555
O17 Mn6 1_555 1_555
C22 H13 1_555 1_555
C25 C24 1_555 1_555
C26 C25 1_555 1_555
H16 C26 1_555 1_555
N2 C22 1_555 1_555
O15 N2 1_555 1_555
Mn4_2 O15 1_555 1_555
Mn9 O15 1_555 1_555
C26 N2 1_555 1_555
H4 C7 1_555 1_555
C9 H5 1_555 1_555
C12 C11 1_555 1_555
C13 C12 1_555 1_555
H8 C13 1_555 1_555
N1 C9 1_555 1_555
O1 C1 1_555 1_555
O5 N1 1_555 1_555
Mn2_2 O1 1_555 1_555
O8 Mn1 1_555 1_555
O11 Mn2_2 1_555 1_555
O14 Mn1 1_555 1_555
C13 N1 1_555 1_555
O5 Mn1 1_555 1_555
O5 Mn2_2 1_555 1_555
C2 C3 1_555 1_555
C3 H1 1_555 1_555
C4 C3 1_555 1_555
H2 C4 1_555 1_555
C5 C4 1_555 1_555
C6 C5 1_555 1_555
H3 C6 1_555 1_555
C8 C5 1_555 1_555
O3 C8 1_555 1_555
O4 C8 1_555 1_555
Mn1_2 O2 1_555 1_555
O13 Mn1_2 1_555 1_555
O16 Mn1_2 1_555 1_555
Mn5 O4 1_555 1_555
Mn9_2 O3 1_555 1_555
C9_2 H5_2 1_555 1_555
C10_2 C9_2 1_555 1_555
C11_2 C10_2 1_555 1_555
C12_2 C11_2 1_555 1_555
C13_2 C12_2 1_555 1_555
H8_2 C13_2 1_555 1_555
N1_2 C9_2 1_555 1_555
O17 N1_2 1_555 1_555
O8_2 Mn6 1_555 1_555
O13_2 Mn6 1_555 1_555
O14_2 Mn6 1_555 1_555
O16_2 Mn6 1_555 1_555
C13_2 N1_2 1_555 1_555
C22_2 H13_2 1_555 1_555
C23_2 C22_2 1_555 1_555
C25_2 C24_2 1_555 1_555
C26_2 C25_2 1_555 1_555
H16_2 C26_2 1_555 1_555
N2_2 C22_2 1_555 1_555
O15_2 N2_2 1_555 1_555
Mn5 O15_2 1_555 1_555
Mn9_2 O15_2 1_555 1_555
C23_2 C24_2 1_555 1_555
C26_2 N2_2 1_555 1_555
H4_2 C7_2 1_555 1_555
H10_2 C17_2 1_555 1_555
C18_2 C17_2 1_555 1_555
C19_2 C18_2 1_555 1_555
H11_2 C19_2 1_555 1_555
H12_2 C20_2 1_555 1_555
C21_2 C18_2 1_555 1_555
O9_2 C21_2 1_555 1_555
O13 C21_2 1_555 1_555
Mn9_3 O9_2 1_555 1_555
C19_2 C20_2 1_555 1_555
H2_2 C4_2 1_555 1_555
C5_2 C4_2 1_555 1_555
C6_2 C5_2 1_555 1_555
H3_2 C6_2 1_555 1_555
C8_2 C5_2 1_555 1_555
O3_2 C8_2 1_555 1_555
O13_2 C8_2 1_555 1_555
Mn9_3 O3_2 1_555 1_555
C9_3 H5_3 1_555 1_555
C12_3 C11_3 1_555 1_555
H7_3 C12_3 1_555 1_555
C13_3 C12_3 1_555 1_555
H8_3 C13_3 1_555 1_555
N1_3 C9_3 1_555 1_555
O1_2 C1_2 1_555 1_555
O5_2 N1_3 1_555 1_555
Mn2_3 O1_2 1_555 1_555
C14_2 C15_2 1_555 1_555
C15_2 C16_2 1_555 1_555
C16_2 H9_2 1_555 1_555
H14_3 C23_3 1_555 1_555
O6_2 Mn2_3 1_555 1_555
O7_2 C14_2 1_555 1_555
O8_3 Mn4 1_555 1_555
O10_2 Mn2_3 1_555 1_555
O11_2 Mn2_3 1_555 1_555
O14_3 Mn4 1_555 1_555
O17_2 Mn2_3 1_555 1_555
Mn5 O7_2 1_555 1_555
C13_3 N1_3 1_555 1_555
O5_2 Mn4 1_555 1_555
O5_2 Mn2_3 1_555 1_555
C14_2 O6_2 1_555 1_555
O17_2 Mn5 1_555 1_555
C2_2 C3_2 1_555 1_555
C3_2 H1_2 1_555 1_555
H6_3 C10_3 1_555 1_555
Mn4_2 O2_2 1_555 1_555
C22_3 H13_3 1_555 1_555
C25_3 C24_3 1_555 1_555
H15_3 C25_3 1_555 1_555
C26_3 C25_3 1_555 1_555
H16_3 C26_3 1_555 1_555
N2_3 C22_3 1_555 1_555
O16 N2_3 1_555 1_555
Mn9_3 O16 1_555 1_555
C26_3 N2_3 1_555 1_555
C9_4 H5_4 1_555 1_555
C10_4 C9_4 1_555 1_555
H6_4 C10_4 1_555 1_555
C11_4 C10_4 1_555 1_555
C12_4 C11_4 1_555 1_555
H7_4 C12_4 1_555 1_555
C13_4 C12_4 1_555 1_555
H8_4 C13_4 1_555 1_555
N1_4 C9_4 1_555 1_555
O17_2 N1_4 1_555 1_555
C22_4 H13_4 1_555 1_555
C23_4 C22_4 1_555 1_555
H14_4 C23_4 1_555 1_555
C24_4 C11_4 1_555 1_555
C25_4 C24_4 1_555 1_555
H15_4 C25_4 1_555 1_555
C26_4 C25_4 1_555 1_555
H16_4 C26_4 1_555 1_555
N2_4 C22_4 1_555 1_555
O8_4 Mn5 1_555 1_555
O14_4 Mn5 1_555 1_555
O16_2 N2_4 1_555 1_555
Mn9_3 O16_2 1_555 1_555
C13_4 N1_4 1_555 1_555
C23_4 C24_4 1_555 1_555
C26_4 N2_4 1_555 1_555
C2_3 C3_3 1_555 1_555
C3_3 H1_3 1_555 1_555
C4_3 C3_3 1_555 1_555
H2_3 C4_3 1_555 1_555
C5_3 C4_3 1_555 1_555
C6_3 C5_3 1_555 1_555
H3_3 C6_3 1_555 1_555
C8_3 C5_3 1_555 1_555
O10 C8_3 1_555 1_555
O14_2 C8_3 1_555 1_555
H4_3 C7_3 1_555 1_555
O1_3 C1_3 1_555 1_555
Mn9 O1_3 1_555 1_555
C14_3 C15_3 1_555 1_555
C15_3 C16_3 1_555 1_555
C16_3 H9_3 1_555 1_555
C17_3 C16_3 1_555 1_555
H10_3 C17_3 1_555 1_555
C18_3 C17_3 1_555 1_555
C19_3 C18_3 1_555 1_555
H11_3 C19_3 1_555 1_555
C20_3 C15_3 1_555 1_555
H12_3 C20_3 1_555 1_555
C21_3 C18_3 1_555 1_555
O6_3 Mn9_2 1_555 1_555
O8_4 C14_3 1_555 1_555
O11 C21_3 1_555 1_555
O14 C21_3 1_555 1_555
C14_3 O6_3 1_555 1_555
C19_3 C20_3 1_555 1_555
C2_4 C3_4 1_555 1_555
C3_4 H1_4 1_555 1_555
O1_4 C1_4 1_555 1_555
Mn9_3 O1_4 1_555 1_555
C14_4 C15_4 1_555 1_555
C15_4 C16_4 1_555 1_555
C16_4 H9_4 1_555 1_555
O6_4 Mn9_3 1_555 1_555
O8_2 C14_4 1_555 1_555
C14_4 O6_4 1_555 1_555
H2_4 C4_4 1_555 1_555
C5_4 C4_4 1_555 1_555
C6_4 C5_4 1_555 1_555
H3_4 C6_4 1_555 1_555
C8_4 C5_4 1_555 1_555
O10_2 C8_4 1_555 1_555
O14_4 C8_4 1_555 1_555
H4_4 C7_4 1_555 1_555
H10_4 C17_4 1_555 1_555
C18_4 C17_4 1_555 1_555
C19_4 C18_4 1_555 1_555
H11_4 C19_4 1_555 1_555
H12_4 C20_4 1_555 1_555
C21_4 C18_4 1_555 1_555
O11_2 C21_4 1_555 1_555
O14_3 C21_4 1_555 1_555
C19_4 C20_4 1_555 1_555

#END
