
###############################################################################
#
# This file contains modified crystal structure data generated from the
# MOF subset of the Cambridge Structural Database (CSD) v543 
# hosted by the Cambridge Crystallographic Data Centre (CCDC).
#
# This work is licensed under the Creative Commons
# Attribution-NonCommercial-ShareAlike 4.0 International License.
# To view a copy of this license, visit
# http://creativecommons.org/licenses/by-nc-sa/4.0/
# or send a letter to
# Creative Commons, PO Box 1866, Mountain View, CA 94042, USA.
#
# CIF created using the CSD Python API on 29 September 2022
# The structure has been converted into the P1 space group
# The structure has a 3D framework
# The original CSD entry LUSJIT is in the monoclinic crystal system
# The framework has been calculated to contain at least 10.0% void space
# The void calculation uses a probe of radius 1.32A, grid spacing 0.4
#
###############################################################################

data_LUSJIT
_chemical_formula_moiety         '(C104 H64 Mn10 N8 O36)n'
_symmetry_cell_setting           triclinic
_symmetry_space_group_name_H-M   'P 1'
_symmetry_Int_Tables_number      1
_space_group_name_Hall           'P 1'
loop_
_symmetry_equiv_pos_site_id
_symmetry_equiv_pos_as_xyz
1 x,y,z
_cell_length_a                   19.0453(16)
_cell_length_b                   16.9279(15)
_cell_length_c                   14.3358(13)
_cell_angle_alpha                90
_cell_angle_beta                 130.8300(10)
_cell_angle_gamma                90
_cell_volume                     3497.11
loop_
_atom_site_label
_atom_site_type_symbol
_atom_site_fract_x
_atom_site_fract_y
_atom_site_fract_z
Mn7 Mn 0.5000 0.5000 0.0000
C1 C 0.0849(5) 0.1549(4) 0.4986(6)
C2 C 0.1468(5) 0.2252(4) 0.5630(6)
C3 C 0.1627(5) 0.2742(4) 0.5019(6)
H1 H 0.1311 0.2658 0.4188
C4 C 0.2248(5) 0.3353(4) 0.5624(6)
H2 H 0.2357 0.3672 0.5202
C5 C 0.2718(4) 0.3503(4) 0.6865(5)
C6 C 0.2539(6) 0.3021(5) 0.7452(7)
H3 H 0.2836 0.3117 0.8275
C7 C 0.3444(4) 0.4144(4) 0.7543(6)
C8 C 0.1930(6) 0.2399(5) 0.6855(7)
H4 H 0.1830 0.2075 0.7282
O1 O 0.0434(3) 0.1467(3) 0.3851(4)
O2 O 0.0783(3) 0.1080(3) 0.5610(4)
O4 O 0.3673(3) 0.4465(2) 0.6986(4)
O5 O 0.3767(3) 0.4313(3) 0.8610(4)
Mn1 Mn -0.0000 0.06145(7) 0.2500
Mn2 Mn -0.0000 0.0000 0.5000
O13 O 0.1327(3) 0.0535(2) 0.3014(4)
Mn3 Mn 0.5000 0.43855(7) 0.7500
Mn6 Mn 0.0000 0.0000 0.0000
Mn7_2 Mn 0.5000 0.5000 1.0000
Mn6_2 Mn 0.0000 0.0000 1.0000
Mn2_2 Mn -0.0000 1.0000 0.5000
O10 O 0.0408(3) 0.9664(3) 0.3867(4)
O16 O 0.1233(3) 0.9313(3) 0.6390(4)
Mn6_3 Mn -0.0000 1.0000 0.0000
Mn6_4 Mn 0.0000 1.0000 1.0000
Mn1_2 Mn 1.0000 0.06145(7) 0.2500
Mn2_3 Mn 1.0000 0.0000 0.5000
C14 C 0.9151(5) 0.1549(4) 0.0014(6)
H9 H 0.8689 0.2658 0.0812
O6 O 0.9566(3) 0.1467(3) 0.1149(4)
O11 O 0.9592(3) 0.0336(3) 0.6133(4)
O14 O 0.8673(3) 0.0535(2) 0.1986(4)
O17 O 0.8767(3) 0.0687(3) 0.3610(4)
Mn6_5 Mn 1.0000 0.0000 0.0000
C15 C 0.8532(5) 0.2252(4) 0.9370(6)
C16 C 0.8373(5) 0.2742(4) 0.9981(6)
C17 C 0.7752(5) 0.3353(4) 0.9376(6)
H10 H 0.7643 0.3672 0.9798
C18 C 0.7282(4) 0.3503(4) 0.8135(5)
C19 C 0.7461(6) 0.3021(5) 0.7548(7)
H11 H 0.7164 0.3117 0.6725
C20 C 0.6556(4) 0.4144(4) 0.7457(6)
C21 C 0.8070(6) 0.2399(5) 0.8145(7)
H12 H 0.8170 0.2075 0.7718
O7 O 0.9217(3) 0.1080(3) 0.9390(4)
O12 O 0.6327(3) 0.4465(2) 0.8014(4)
O15 O 0.6233(3) 0.4313(3) 0.6390(4)
Mn6_6 Mn 1.0000 0.0000 1.0000
Mn9 Mn 0.5000 0.5000 0.5000
C9 C 0.8145(5) 0.9224(5) 0.0334(8)
H5 H 0.7943 0.9744 0.0216
C10 C 0.7552(6) 0.8606(5) 0.0027(8)
C11 C 0.7815(5) 0.7828(4) 0.0169(6)
C12 C 0.8708(6) 0.7716(5) 0.0648(9)
H7 H 0.8931 0.7203 0.0777
C13 C 0.9286(6) 0.8338(5) 0.0944(8)
H8 H 0.9884 0.8238 0.1252
N1 N 0.9006(4) 0.9071(3) 0.0800(5)
O3 O 0.9592(3) 0.9664(3) 0.1133(4)
Mn2_4 Mn 1.0000 1.0000 0.5000
H14 H 0.8045 0.6280 0.0286
O8 O 0.9217(3) 0.8920(3) 0.4390(4)
Mn6_7 Mn 1.0000 1.0000 0.0000
H6 H 0.6955 0.8720 0.9714
C22 C 0.6855(5) 0.5776(5) 0.9666(8)
H13 H 0.7057 0.5256 0.9784
C23 C 0.7448(6) 0.6394(5) 0.9973(8)
C24 C 0.7185(5) 0.7172(4) 0.9831(6)
C25 C 0.6292(6) 0.7284(5) 0.9352(9)
H15 H 0.6069 0.7797 0.9223
C26 C 0.5714(6) 0.6662(5) 0.9056(8)
H16 H 0.5116 0.6762 0.8748
N2 N 0.5994(4) 0.5929(3) 0.9200(5)
O9 O 0.5408(3) 0.5336(3) 0.8867(4)
Mn6_8 Mn 1.0000 1.0000 1.0000
O17_2 O 0.1233(3) 0.0687(3) 0.1390(4)
O11_2 O 0.0408(3) 0.0336(3) 0.8867(4)
C9_2 C 0.1855(5) 0.9224(5) 0.4666(8)
H5_2 H 0.2057 0.9744 0.4784
C10_2 C 0.2448(6) 0.8606(5) 0.4973(8)
H6_2 H 0.3045 0.8720 0.5286
C11_2 C 0.2185(5) 0.7828(4) 0.4831(6)
C12_2 C 0.1292(6) 0.7716(5) 0.4352(9)
H7_2 H 0.1069 0.7203 0.4223
C13_2 C 0.0714(6) 0.8338(5) 0.4056(8)
H8_2 H 0.0116 0.8238 0.3748
N1_2 N 0.0994(4) 0.9071(3) 0.4200(5)
C22_2 C 0.3145(5) 0.5776(5) 0.5334(8)
H13_2 H 0.2943 0.5256 0.5216
C23_2 C 0.2552(6) 0.6394(5) 0.5027(8)
H14_2 H 0.1955 0.6280 0.4714
C24_2 C 0.2815(5) 0.7172(4) 0.5169(6)
C25_2 C 0.3708(6) 0.7284(5) 0.5648(9)
H15_2 H 0.3931 0.7797 0.5777
C26_2 C 0.4286(6) 0.6662(5) 0.5944(8)
H16_2 H 0.4884 0.6762 0.6252
N2_2 N 0.4006(4) 0.5929(3) 0.5800(5)
O8_2 O 0.0783(3) 0.8920(3) 0.0610(4)
O9_2 O 0.4592(3) 0.5336(3) 0.6133(4)
O16_2 O 0.8767(3) 0.9313(3) 0.8610(4)
Mn3_2 Mn 0.0000 0.93855(7) 0.7500
C1_2 C 0.5849(5) 0.6549(4) 0.4986(6)
C2_2 C 0.6468(5) 0.7252(4) 0.5630(6)
C3_2 C 0.6627(5) 0.7742(4) 0.5019(6)
H1_2 H 0.6311 0.7658 0.4188
C4_2 C 0.7248(5) 0.8353(4) 0.5624(6)
H2_2 H 0.7357 0.8672 0.5202
C5_2 C 0.7718(4) 0.8503(4) 0.6865(5)
C6_2 C 0.7539(6) 0.8021(5) 0.7452(7)
H3_2 H 0.7836 0.8117 0.8275
C7_2 C 0.8444(4) 0.9144(4) 0.7543(6)
C8_2 C 0.6930(6) 0.7399(5) 0.6855(7)
H4_2 H 0.6830 0.7075 0.7282
C9_3 C 0.3145(5) 0.4224(5) 0.0334(8)
H5_3 H 0.2943 0.4744 0.0216
C10_3 C 0.2552(6) 0.3606(5) 0.0027(8)
C11_3 C 0.2815(5) 0.2828(4) 0.0169(6)
C12_3 C 0.3708(6) 0.2716(5) 0.0648(9)
H7_3 H 0.3931 0.2203 0.0777
C13_3 C 0.4286(6) 0.3338(5) 0.0944(8)
H8_3 H 0.4884 0.3238 0.1252
N1_3 N 0.4006(4) 0.4071(3) 0.0800(5)
O1_2 O 0.5434(3) 0.6467(3) 0.3851(4)
O2_2 O 0.5783(3) 0.6080(3) 0.5610(4)
O3_2 O 0.4592(3) 0.4664(3) 0.1133(4)
O4_2 O 0.8673(3) 0.9465(2) 0.6986(4)
Mn1_3 Mn 0.5000 0.56145(7) 0.2500
C14_2 C 0.4151(5) 0.6549(4) 0.0014(6)
H9_2 H 0.3689 0.7658 0.0812
H14_3 H 0.3045 0.1280 0.0286
O6_2 O 0.4566(3) 0.6467(3) 0.1149(4)
O8_3 O 0.4217(3) 0.3920(3) 0.4390(4)
O10_2 O 0.5408(3) 0.4664(3) 0.3867(4)
O13_2 O 0.6327(3) 0.5535(2) 0.3014(4)
O14_2 O 0.3673(3) 0.5535(2) 0.1986(4)
O17_3 O 0.3767(3) 0.5687(3) 0.3610(4)
Mn3_3 Mn 1.0000 0.93855(7) 0.7500
H6_3 H 0.1955 0.3720 0.9714
C15_2 C 0.3532(5) 0.7252(4) 0.9370(6)
C16_2 C 0.3373(5) 0.7742(4) 0.9981(6)
C17_2 C 0.2752(5) 0.8353(4) 0.9376(6)
H10_2 H 0.2643 0.8672 0.9798
C18_2 C 0.2282(4) 0.8503(4) 0.8135(5)
C19_2 C 0.2461(6) 0.8021(5) 0.7548(7)
H11_2 H 0.2164 0.8117 0.6725
C20_2 C 0.1556(4) 0.9144(4) 0.7457(6)
C21_2 C 0.3070(6) 0.7399(5) 0.8145(7)
H12_2 H 0.3170 0.7075 0.7718
C22_3 C 0.1855(5) 0.0776(5) 0.9666(8)
H13_3 H 0.2057 0.0256 0.9784
C23_3 C 0.2448(6) 0.1394(5) 0.9973(8)
C24_3 C 0.2185(5) 0.2172(4) 0.9831(6)
C25_3 C 0.1292(6) 0.2284(5) 0.9352(9)
H15_3 H 0.1069 0.2797 0.9223
C26_3 C 0.0714(6) 0.1662(5) 0.9056(8)
H16_3 H 0.0116 0.1762 0.8748
N2_3 N 0.0994(4) 0.0929(3) 0.9200(5)
O7_2 O 0.4217(3) 0.6080(3) 0.9390(4)
O12_2 O 0.1327(3) 0.9465(2) 0.8014(4)
C9_4 C 0.6855(5) 0.4224(5) 0.4666(8)
H5_4 H 0.7057 0.4744 0.4784
C10_4 C 0.7448(6) 0.3606(5) 0.4973(8)
H6_4 H 0.8045 0.3720 0.5286
C11_4 C 0.7185(5) 0.2828(4) 0.4831(6)
C12_4 C 0.6292(6) 0.2716(5) 0.4352(9)
H7_4 H 0.6069 0.2203 0.4223
C13_4 C 0.5714(6) 0.3338(5) 0.4056(8)
H8_4 H 0.5116 0.3238 0.3748
N1_4 N 0.5994(4) 0.4071(3) 0.4200(5)
C22_4 C 0.8145(5) 0.0776(5) 0.5334(8)
H13_4 H 0.7943 0.0256 0.5216
C23_4 C 0.7552(6) 0.1394(5) 0.5027(8)
H14_4 H 0.6955 0.1280 0.4714
C24_4 C 0.7815(5) 0.2172(4) 0.5169(6)
C25_4 C 0.8708(6) 0.2284(5) 0.5648(9)
H15_4 H 0.8931 0.2797 0.5777
C26_4 C 0.9286(6) 0.1662(5) 0.5944(8)
H16_4 H 0.9884 0.1762 0.6252
N2_4 N 0.9006(4) 0.0929(3) 0.5800(5)
O8_4 O 0.5783(3) 0.3920(3) 0.0610(4)
O17_4 O 0.6233(3) 0.5687(3) 0.1390(4)
C15_3 C 0.1468(5) 0.7748(4) 0.0630(6)
C16_3 C 0.1627(5) 0.7258(4) 0.0019(6)
C17_3 C 0.2248(5) 0.6647(4) 0.0624(6)
H10_3 H 0.2357 0.6328 0.0202
C18_3 C 0.2718(4) 0.6497(4) 0.1865(5)
C19_3 C 0.2539(6) 0.6979(5) 0.2452(7)
H11_3 H 0.2836 0.6883 0.3275
C20_3 C 0.3444(4) 0.5856(4) 0.2543(6)
C21_3 C 0.1930(6) 0.7601(5) 0.1855(7)
H12_3 H 0.1830 0.7925 0.2282
C14_3 C 0.0849(5) 0.8451(4) 0.9986(6)
H9_3 H 0.1311 0.7342 0.9188
O6_3 O 0.0434(3) 0.8533(3) 0.8851(4)
C1_3 C 0.9151(5) 0.8451(4) 0.5014(6)
C2_3 C 0.8532(5) 0.7748(4) 0.4370(6)
C3_3 C 0.8373(5) 0.7258(4) 0.4981(6)
H1_3 H 0.8689 0.7342 0.5812
C4_3 C 0.7752(5) 0.6647(4) 0.4376(6)
H2_3 H 0.7643 0.6328 0.4798
C5_3 C 0.7282(4) 0.6497(4) 0.3135(5)
C6_3 C 0.7461(6) 0.6979(5) 0.2548(7)
H3_3 H 0.7164 0.6883 0.1725
C7_3 C 0.6556(4) 0.5856(4) 0.2457(6)
C8_3 C 0.8070(6) 0.7601(5) 0.3145(7)
H4_3 H 0.8170 0.7925 0.2718
O1_3 O 0.9566(3) 0.8533(3) 0.6149(4)
C15_4 C 0.6468(5) 0.2748(4) 0.0630(6)
C16_4 C 0.6627(5) 0.2258(4) 0.0019(6)
C17_4 C 0.7248(5) 0.1647(4) 0.0624(6)
H10_4 H 0.7357 0.1328 0.0202
C18_4 C 0.7718(4) 0.1497(4) 0.1865(5)
C19_4 C 0.7539(6) 0.1979(5) 0.2452(7)
H11_4 H 0.7836 0.1883 0.3275
C20_4 C 0.8444(4) 0.0856(4) 0.2543(6)
C21_4 C 0.6930(6) 0.2601(5) 0.1855(7)
H12_4 H 0.6830 0.2925 0.2282
C1_4 C 0.4151(5) 0.3451(4) 0.5014(6)
C2_4 C 0.3532(5) 0.2748(4) 0.4370(6)
C3_4 C 0.3373(5) 0.2258(4) 0.4981(6)
H1_4 H 0.3689 0.2342 0.5812
C4_4 C 0.2752(5) 0.1647(4) 0.4376(6)
H2_4 H 0.2643 0.1328 0.4798
C5_4 C 0.2282(4) 0.1497(4) 0.3135(5)
C6_4 C 0.2461(6) 0.1979(5) 0.2548(7)
H3_4 H 0.2164 0.1883 0.1725
C7_4 C 0.1556(4) 0.0856(4) 0.2457(6)
C8_4 C 0.3070(6) 0.2601(5) 0.3145(7)
H4_4 H 0.3170 0.2925 0.2718
O1_4 O 0.4566(3) 0.3533(3) 0.6149(4)
C14_4 C 0.5849(5) 0.3451(4) 0.9986(6)
H9_4 H 0.6311 0.2342 0.9188
O6_4 O 0.5434(3) 0.3533(3) 0.8851(4)
loop_
_geom_bond_atom_site_label_1
_geom_bond_atom_site_label_2
_geom_bond_site_symmetry_1
_geom_bond_site_symmetry_2
C1 C2 1_555 1_555
C2 C3 1_555 1_555
C3 H1 1_555 1_555
C4 C3 1_555 1_555
H2 C4 1_555 1_555
C5 C4 1_555 1_555
C6 C5 1_555 1_555
H3 C6 1_555 1_555
C7 C5 1_555 1_555
C8 C2 1_555 1_555
H4 C8 1_555 1_555
O1 C1 1_555 1_555
O2 C1 1_555 1_555
O4 C7 1_555 1_555
O5 C7 1_555 1_555
Mn1 O1 1_555 1_555
Mn2 O2 1_555 1_555
O13 Mn1 1_555 1_555
Mn3 O4 1_555 1_555
Mn7_2 O5 1_555 1_555
C6 C8 1_555 1_555
O16 Mn2_2 1_555 1_555
Mn2_2 O10 1_555 1_555
O6 Mn1_2 1_555 1_555
O11 Mn2_3 1_555 1_555
O14 Mn1_2 1_555 1_555
O17 Mn2_3 1_555 1_555
C14 O6 1_555 1_555
C15 C16 1_555 1_555
C17 C16 1_555 1_555
H10 C17 1_555 1_555
C18 C17 1_555 1_555
C19 C18 1_555 1_555
H11 C19 1_555 1_555
C20 C18 1_555 1_555
C21 C15 1_555 1_555
H12 C21 1_555 1_555
O12 C20 1_555 1_555
O15 C20 1_555 1_555
Mn3 O12 1_555 1_555
Mn9 O15 1_555 1_555
C19 C21 1_555 1_555
O7 Mn6_6 1_555 1_555
C9 H5 1_555 1_555
C10 C9 1_555 1_555
C11 C10 1_555 1_555
C12 C11 1_555 1_555
H7 C12 1_555 1_555
C13 C12 1_555 1_555
H8 C13 1_555 1_555
N1 C9 1_555 1_555
O3 N1 1_555 1_555
O8 Mn2_4 1_555 1_555
Mn6_7 O3 1_555 1_555
C13 N1 1_555 1_555
C22 H13 1_555 1_555
C23 C22 1_555 1_555
C25 C24 1_555 1_555
H15 C25 1_555 1_555
C26 C25 1_555 1_555
H16 C26 1_555 1_555
N2 C22 1_555 1_555
O9 N2 1_555 1_555
Mn3 O9 1_555 1_555
Mn7_2 O9 1_555 1_555
C23 C24 1_555 1_555
C26 N2 1_555 1_555
O17_2 Mn6 1_555 1_555
O11_2 Mn6_2 1_555 1_555
C9_2 H5_2 1_555 1_555
C10_2 C9_2 1_555 1_555
H6_2 C10_2 1_555 1_555
C11_2 C10_2 1_555 1_555
C12_2 C11_2 1_555 1_555
H7_2 C12_2 1_555 1_555
C13_2 C12_2 1_555 1_555
H8_2 C13_2 1_555 1_555
N1_2 C9_2 1_555 1_555
O10 N1_2 1_555 1_555
C22_2 H13_2 1_555 1_555
C23_2 C22_2 1_555 1_555
H14_2 C23_2 1_555 1_555
C24_2 C11_2 1_555 1_555
C25_2 C24_2 1_555 1_555
H15_2 C25_2 1_555 1_555
C26_2 C25_2 1_555 1_555
H16_2 C26_2 1_555 1_555
N2_2 C22_2 1_555 1_555
O8_2 Mn6_3 1_555 1_555
O9_2 N2_2 1_555 1_555
Mn3 O9_2 1_555 1_555
Mn9 O9_2 1_555 1_555
C13_2 N1_2 1_555 1_555
C23_2 C24_2 1_555 1_555
C26_2 N2_2 1_555 1_555
O16_2 Mn6_8 1_555 1_555
C1_2 C2_2 1_555 1_555
C2_2 C3_2 1_555 1_555
C3_2 H1_2 1_555 1_555
C4_2 C3_2 1_555 1_555
H2_2 C4_2 1_555 1_555
C5_2 C4_2 1_555 1_555
C6_2 C5_2 1_555 1_555
H3_2 C6_2 1_555 1_555
C7_2 C5_2 1_555 1_555
C8_2 C2_2 1_555 1_555
H4_2 C8_2 1_555 1_555
C9_3 H5_3 1_555 1_555
C10_3 C9_3 1_555 1_555
C11_3 C10_3 1_555 1_555
C12_3 C11_3 1_555 1_555
H7_3 C12_3 1_555 1_555
C13_3 C12_3 1_555 1_555
H8_3 C13_3 1_555 1_555
N1_3 C9_3 1_555 1_555
O1_2 C1_2 1_555 1_555
O2_2 C1_2 1_555 1_555
O3_2 N1_3 1_555 1_555
O4_2 C7_2 1_555 1_555
O16_2 C7_2 1_555 1_555
Mn1_3 O1_2 1_555 1_555
Mn9 O2_2 1_555 1_555
O6_2 Mn1_3 1_555 1_555
O8_3 Mn9 1_555 1_555
O10_2 Mn1_3 1_555 1_555
O13_2 Mn1_3 1_555 1_555
O14_2 Mn1_3 1_555 1_555
O17_3 Mn9 1_555 1_555
Mn3_3 O4_2 1_555 1_555
Mn7 O3_2 1_555 1_555
C6_2 C8_2 1_555 1_555
C13_3 N1_3 1_555 1_555
O3_2 Mn1_3 1_555 1_555
Mn9 O10_2 1_555 1_555
C14_2 O6_2 1_555 1_555
C15_2 C16_2 1_555 1_555
C17_2 C16_2 1_555 1_555
H10_2 C17_2 1_555 1_555
C18_2 C17_2 1_555 1_555
C19_2 C18_2 1_555 1_555
H11_2 C19_2 1_555 1_555
C20_2 C18_2 1_555 1_555
C21_2 C15_2 1_555 1_555
H12_2 C21_2 1_555 1_555
C22_3 H13_3 1_555 1_555
C23_3 C22_3 1_555 1_555
C25_3 C24_3 1_555 1_555
H15_3 C25_3 1_555 1_555
C26_3 C25_3 1_555 1_555
H16_3 C26_3 1_555 1_555
N2_3 C22_3 1_555 1_555
O11_2 N2_3 1_555 1_555
O12_2 C20_2 1_555 1_555
O16 C20_2 1_555 1_555
Mn3_2 O12_2 1_555 1_555
C19_2 C21_2 1_555 1_555
C23_3 C24_3 1_555 1_555
C26_3 N2_3 1_555 1_555
O7_2 Mn7_2 1_555 1_555
C9_4 H5_4 1_555 1_555
C10_4 C9_4 1_555 1_555
H6_4 C10_4 1_555 1_555
C11_4 C10_4 1_555 1_555
C12_4 C11_4 1_555 1_555
H7_4 C12_4 1_555 1_555
C13_4 C12_4 1_555 1_555
H8_4 C13_4 1_555 1_555
N1_4 C9_4 1_555 1_555
O10_2 N1_4 1_555 1_555
C22_4 H13_4 1_555 1_555
C23_4 C22_4 1_555 1_555
H14_4 C23_4 1_555 1_555
C24_4 C11_4 1_555 1_555
C25_4 C24_4 1_555 1_555
H15_4 C25_4 1_555 1_555
C26_4 C25_4 1_555 1_555
H16_4 C26_4 1_555 1_555
N2_4 C22_4 1_555 1_555
O8_4 Mn7 1_555 1_555
O11 N2_4 1_555 1_555
O17_4 Mn7 1_555 1_555
C13_4 N1_4 1_555 1_555
C23_4 C24_4 1_555 1_555
C26_4 N2_4 1_555 1_555
C15_3 C16_3 1_555 1_555
C17_3 C16_3 1_555 1_555
H10_3 C17_3 1_555 1_555
C18_3 C17_3 1_555 1_555
C19_3 C18_3 1_555 1_555
H11_3 C19_3 1_555 1_555
C20_3 C18_3 1_555 1_555
C21_3 C15_3 1_555 1_555
H12_3 C21_3 1_555 1_555
O14_2 C20_3 1_555 1_555
O17_3 C20_3 1_555 1_555
C19_3 C21_3 1_555 1_555
O6_3 Mn3_2 1_555 1_555
C14_3 O6_3 1_555 1_555
C1_3 C2_3 1_555 1_555
C2_3 C3_3 1_555 1_555
C3_3 H1_3 1_555 1_555
C4_3 C3_3 1_555 1_555
H2_3 C4_3 1_555 1_555
C5_3 C4_3 1_555 1_555
C6_3 C5_3 1_555 1_555
H3_3 C6_3 1_555 1_555
C7_3 C5_3 1_555 1_555
C8_3 C2_3 1_555 1_555
H4_3 C8_3 1_555 1_555
O1_3 C1_3 1_555 1_555
O8 C1_3 1_555 1_555
O13_2 C7_3 1_555 1_555
O17_4 C7_3 1_555 1_555
Mn3_3 O1_3 1_555 1_555
C6_3 C8_3 1_555 1_555
C15_4 C16_4 1_555 1_555
C17_4 C16_4 1_555 1_555
H10_4 C17_4 1_555 1_555
C18_4 C17_4 1_555 1_555
C19_4 C18_4 1_555 1_555
H11_4 C19_4 1_555 1_555
C20_4 C18_4 1_555 1_555
C21_4 C15_4 1_555 1_555
H12_4 C21_4 1_555 1_555
O14 C20_4 1_555 1_555
O17 C20_4 1_555 1_555
C19_4 C21_4 1_555 1_555
C1_4 C2_4 1_555 1_555
C2_4 C3_4 1_555 1_555
C3_4 H1_4 1_555 1_555
C4_4 C3_4 1_555 1_555
H2_4 C4_4 1_555 1_555
C5_4 C4_4 1_555 1_555
C6_4 C5_4 1_555 1_555
H3_4 C6_4 1_555 1_555
C7_4 C5_4 1_555 1_555
C8_4 C2_4 1_555 1_555
H4_4 C8_4 1_555 1_555
O1_4 C1_4 1_555 1_555
O8_3 C1_4 1_555 1_555
O13 C7_4 1_555 1_555
O17_2 C7_4 1_555 1_555
Mn3 O1_4 1_555 1_555
O6_4 Mn3 1_555 1_555
C6_4 C8_4 1_555 1_555
C14_4 O6_4 1_555 1_555

#END
