
###############################################################################
#
# This file contains modified crystal structure data generated from the
# MOF subset of the Cambridge Structural Database (CSD) v543 
# hosted by the Cambridge Crystallographic Data Centre (CCDC).
#
# This work is licensed under the Creative Commons
# Attribution-NonCommercial-ShareAlike 4.0 International License.
# To view a copy of this license, visit
# http://creativecommons.org/licenses/by-nc-sa/4.0/
# or send a letter to
# Creative Commons, PO Box 1866, Mountain View, CA 94042, USA.
#
# CIF created using the CSD Python API on 29 September 2022
# The structure has been converted into the P1 space group
# The structure has a 3D framework
# The original CSD entry LUSJOZ is in the monoclinic crystal system
# The framework has been calculated to contain at least 10.0% void space
# The void calculation uses a probe of radius 1.32A, grid spacing 0.4
#
###############################################################################

data_LUSJOZ
_chemical_formula_moiety         '(C104 H64 Mn11 N8 O40)n'
_symmetry_cell_setting           triclinic
_symmetry_space_group_name_H-M   'P 1'
_symmetry_Int_Tables_number      1
_space_group_name_Hall           'P 1'
loop_
_symmetry_equiv_pos_site_id
_symmetry_equiv_pos_as_xyz
1 x,y,z
_cell_length_a                   19.229(5)
_cell_length_b                   16.683(5)
_cell_length_c                   14.391(5)
_cell_angle_alpha                90
_cell_angle_beta                 130.181(5)
_cell_angle_gamma                90
_cell_volume                     3527.13
loop_
_atom_site_label
_atom_site_type_symbol
_atom_site_fract_x
_atom_site_fract_y
_atom_site_fract_z
Mn5 Mn -0.0000 0.5000 0.0000
Mn5_2 Mn -0.0000 0.5000 1.0000
Mn9 Mn -0.0000 0.43662(8) 0.7500
Mn4 Mn 0.0000 0.5000 0.5000
Mn5_3 Mn 1.0000 0.5000 0.0000
Mn1 Mn 0.5000 0.0000 0.5000
C14 C 0.5830(5) 0.1576(4) 0.4964(6)
C15 C 0.6455(5) 0.2275(4) 0.5619(6)
C16 C 0.6875(6) 0.2441(5) 0.6827(7)
H9 H 0.6736 0.2132 0.7227
C17 C 0.7488(6) 0.3056(5) 0.7432(7)
H10 H 0.7751 0.3162 0.8234
C18 C 0.7728(5) 0.3524(4) 0.6879(6)
C19 C 0.7294(5) 0.3369(4) 0.5675(6)
H11 H 0.7433 0.3676 0.5275
C20 C 0.6656(5) 0.2765(4) 0.5051(7)
H12 H 0.6356 0.2687 0.4231
C21 C 0.8457(5) 0.4144(4) 0.7570(6)
O6 O 0.5745(3) 0.1097(3) 0.5573(4)
O7 O 0.5439(3) 0.1499(3) 0.3856(4)
O9 O 0.8770(3) 0.4315(3) 0.8627(4)
O10 O 0.3770(3) 0.0685(3) 0.3627(4)
O12 O 0.8708(3) 0.4463(3) 0.7035(4)
O16 O 0.4583(3) 0.0324(3) 0.6124(4)
O17 O 0.5417(3) 0.0324(3) 0.8876(4)
Mn5_4 Mn 1.0000 0.5000 1.0000
Mn7 Mn 0.5000 0.06338(8) 0.2500
Mn9_2 Mn 1.0000 0.43662(8) 0.7500
C1 C 0.4170(5) 0.8424(4) 0.5036(6)
C2 C 0.3545(5) 0.7725(4) 0.4381(6)
C3 C 0.3125(6) 0.7559(5) 0.3173(7)
H1 H 0.3264 0.7868 0.2773
C4 C 0.2512(6) 0.6944(5) 0.2568(7)
H2 H 0.2249 0.6838 0.1766
C5 C 0.2272(5) 0.6476(4) 0.3121(6)
C6 C 0.2706(5) 0.6631(4) 0.4325(6)
H3 H 0.2567 0.6324 0.4725
C7 C 0.3344(5) 0.7235(4) 0.4949(7)
H4 H 0.3644 0.7313 0.5769
C8 C 0.1543(5) 0.5856(4) 0.2430(6)
C9 C 0.6832(6) 0.9239(5) 0.4666(9)
H5 H 0.7024 0.9770 0.4792
C10 C 0.7441(6) 0.8635(5) 0.4986(9)
H6 H 0.8030 0.8765 0.5308
C11 C 0.7186(5) 0.7834(4) 0.4831(6)
C12 C 0.6292(6) 0.7704(5) 0.4330(9)
H7 H 0.6074 0.7181 0.4183
C13 C 0.5725(6) 0.8325(5) 0.4049(9)
H8 H 0.5138 0.8216 0.3751
N1 N 0.5991(4) 0.9089(3) 0.4192(5)
O1 O 0.4255(3) 0.8903(3) 0.4427(4)
O2 O 0.4561(3) 0.8501(3) 0.6144(4)
O3 O 0.1230(3) 0.5685(3) 0.1373(4)
O4 O 0.1292(3) 0.5537(3) 0.2965(4)
O5 O 0.5417(3) 0.9676(3) 0.3876(4)
Mn1_2 Mn 0.5000 1.0000 0.5000
Mn2 Mn 0.5000 0.93662(8) 0.7500
C22 C 0.8168(6) 0.5761(5) 0.5334(9)
H13 H 0.7976 0.5230 0.5208
C23 C 0.7559(6) 0.6365(5) 0.5014(9)
H14 H 0.6970 0.6235 0.4692
C24 C 0.7814(5) 0.7166(4) 0.5169(6)
C25 C 0.8708(6) 0.7296(5) 0.5670(9)
H15 H 0.8926 0.7819 0.5817
C26 C 0.9275(6) 0.6675(5) 0.5951(9)
H16 H 0.9862 0.6784 0.6249
N2 N 0.9009(4) 0.5911(3) 0.5808(5)
O8 O 0.5439(3) 0.8501(3) 0.8856(4)
O11 O 0.6230(3) 0.9315(3) 0.6373(4)
O13 O 0.3708(3) 0.9463(3) 0.7035(4)
O14 O 0.6292(3) 0.9463(3) 0.7965(4)
O15 O 0.9583(3) 0.5324(3) 0.6124(4)
Mn4_2 Mn 1.0000 0.5000 0.5000
Mn6 Mn -0.0000 0.56338(8) 0.2500
Mn6_2 Mn 1.0000 0.56338(8) 0.2500
Mn1_3 Mn 0.5000 0.0000 0.0000
C14_2 C 0.4170(5) 0.1576(4) 0.0036(6)
H12_2 H 0.3644 0.2687 0.0769
O7_2 O 0.4561(3) 0.1499(3) 0.1144(4)
O10_2 O 0.6230(3) 0.0685(3) 0.1373(4)
Mn1_4 Mn 0.5000 0.0000 1.0000
C15_2 C 0.3545(5) 0.2275(4) 0.9381(6)
C16_2 C 0.3125(6) 0.2441(5) 0.8173(7)
H9_2 H 0.3264 0.2132 0.7773
C17_2 C 0.2512(6) 0.3056(5) 0.7568(7)
H10_2 H 0.2249 0.3162 0.6766
C18_2 C 0.2272(5) 0.3524(4) 0.8121(6)
C19_2 C 0.2706(5) 0.3369(4) 0.9325(6)
H11_2 H 0.2567 0.3676 0.9725
C20_2 C 0.3344(5) 0.2765(4) 0.9949(7)
C21_2 C 0.1543(5) 0.4144(4) 0.7430(6)
O6_2 O 0.4255(3) 0.1097(3) 0.9427(4)
O9_2 O 0.1230(3) 0.4315(3) 0.6373(4)
O12_2 O 0.1292(3) 0.4463(3) 0.7965(4)
C2_2 C 0.6455(5) 0.7725(4) 0.0619(6)
C3_2 C 0.6875(6) 0.7559(5) 0.1827(7)
H1_2 H 0.6736 0.7868 0.2227
C4_2 C 0.7488(6) 0.6944(5) 0.2432(7)
H2_2 H 0.7751 0.6838 0.3234
C5_2 C 0.7728(5) 0.6476(4) 0.1879(6)
C6_2 C 0.7294(5) 0.6631(4) 0.0675(6)
H3_2 H 0.7433 0.6324 0.0275
C7_2 C 0.6656(5) 0.7235(4) 0.0051(7)
C8_2 C 0.8457(5) 0.5856(4) 0.2570(6)
C9_2 C 0.3168(6) 0.9239(5) 0.0334(9)
H5_2 H 0.2976 0.9770 0.0208
C10_2 C 0.2559(6) 0.8635(5) 0.0014(9)
C11_2 C 0.2814(5) 0.7834(4) 0.0169(6)
C12_2 C 0.3708(6) 0.7704(5) 0.0670(9)
H7_2 H 0.3926 0.7181 0.0817
C13_2 C 0.4275(6) 0.8325(5) 0.0951(9)
H8_2 H 0.4862 0.8216 0.1249
N1_2 N 0.4009(4) 0.9089(3) 0.0808(5)
O1_2 O 0.5745(3) 0.8903(3) 0.0573(4)
O3_2 O 0.8770(3) 0.5685(3) 0.3627(4)
O4_2 O 0.8708(3) 0.5537(3) 0.2035(4)
O5_2 O 0.4583(3) 0.9676(3) 0.1124(4)
Mn1_5 Mn 0.5000 1.0000 0.0000
H14_2 H 0.3030 0.6235 0.0308
C1_2 C 0.5830(5) 0.8424(4) 0.9964(6)
H4_2 H 0.6356 0.7313 0.9231
H6_2 H 0.1970 0.8765 0.9692
Mn1_6 Mn 0.5000 1.0000 1.0000
C22_2 C 0.1832(6) 0.5761(5) 0.9666(9)
H13_2 H 0.2024 0.5230 0.9792
C23_2 C 0.2441(6) 0.6365(5) 0.9986(9)
C24_2 C 0.2186(5) 0.7166(4) 0.9831(6)
C25_2 C 0.1292(6) 0.7296(5) 0.9330(9)
H15_2 H 0.1074 0.7819 0.9183
C26_2 C 0.0725(6) 0.6675(5) 0.9049(9)
H16_2 H 0.0138 0.6784 0.8751
N2_2 N 0.0991(4) 0.5911(3) 0.9192(5)
O11_2 O 0.3770(3) 0.9315(3) 0.8627(4)
O15_2 O 0.0417(3) 0.5324(3) 0.8876(4)
C9_3 C 0.1832(6) 0.4239(5) 0.4666(9)
H5_3 H 0.2024 0.4770 0.4792
C10_3 C 0.2441(6) 0.3635(5) 0.4986(9)
H6_3 H 0.3030 0.3765 0.5308
C11_3 C 0.2186(5) 0.2834(4) 0.4831(6)
C12_3 C 0.1292(6) 0.2704(5) 0.4330(9)
H7_3 H 0.1074 0.2181 0.4183
C13_3 C 0.0725(6) 0.3325(5) 0.4049(9)
H8_3 H 0.0138 0.3216 0.3751
N1_3 N 0.0991(4) 0.4089(3) 0.4192(5)
O5_3 O 0.0417(3) 0.4676(3) 0.3876(4)
C14_3 C 0.0830(5) 0.6576(4) 0.4964(6)
C15_3 C 0.1455(5) 0.7275(4) 0.5619(6)
C16_3 C 0.1875(6) 0.7441(5) 0.6827(7)
H9_3 H 0.1736 0.7132 0.7227
C17_3 C 0.2488(6) 0.8056(5) 0.7432(7)
H10_3 H 0.2751 0.8162 0.8234
C18_3 C 0.2728(5) 0.8524(4) 0.6879(6)
C19_3 C 0.2294(5) 0.8369(4) 0.5675(6)
H11_3 H 0.2433 0.8676 0.5275
C20_3 C 0.1656(5) 0.7765(4) 0.5051(7)
H12_3 H 0.1356 0.7687 0.4231
C21_3 C 0.3457(5) 0.9144(4) 0.7570(6)
C22_3 C 0.3168(6) 0.0761(5) 0.5334(9)
H13_3 H 0.2976 0.0230 0.5208
C23_3 C 0.2559(6) 0.1365(5) 0.5014(9)
H14_3 H 0.1970 0.1235 0.4692
C24_3 C 0.2814(5) 0.2166(4) 0.5169(6)
C25_3 C 0.3708(6) 0.2296(5) 0.5670(9)
H15_3 H 0.3926 0.2819 0.5817
C26_3 C 0.4275(6) 0.1675(5) 0.5951(9)
H16_3 H 0.4862 0.1784 0.6249
N2_3 N 0.4009(4) 0.0911(3) 0.5808(5)
O6_3 O 0.0745(3) 0.6097(3) 0.5573(4)
O7_3 O 0.0439(3) 0.6499(3) 0.3856(4)
O8_2 O 0.0439(3) 0.3501(3) 0.8856(4)
C1_3 C 0.9170(5) 0.3424(4) 0.5036(6)
C2_3 C 0.8545(5) 0.2725(4) 0.4381(6)
C3_3 C 0.8125(6) 0.2559(5) 0.3173(7)
H1_3 H 0.8264 0.2868 0.2773
C4_3 C 0.7512(6) 0.1944(5) 0.2568(7)
H2_3 H 0.7249 0.1838 0.1766
C5_3 C 0.7272(5) 0.1476(4) 0.3121(6)
C6_3 C 0.7706(5) 0.1631(4) 0.4325(6)
H3_3 H 0.7567 0.1324 0.4725
C7_3 C 0.8344(5) 0.2235(4) 0.4949(7)
H4_3 H 0.8644 0.2313 0.5769
C8_3 C 0.6543(5) 0.0856(4) 0.2430(6)
O1_3 O 0.9255(3) 0.3903(3) 0.4427(4)
O2_2 O 0.9561(3) 0.3501(3) 0.6144(4)
O4_3 O 0.6292(3) 0.0537(3) 0.2965(4)
C2_4 C 0.1455(5) 0.2725(4) 0.0619(6)
C3_4 C 0.1875(6) 0.2559(5) 0.1827(7)
H1_4 H 0.1736 0.2868 0.2227
C4_4 C 0.2488(6) 0.1944(5) 0.2432(7)
H2_4 H 0.2751 0.1838 0.3234
C5_4 C 0.2728(5) 0.1476(4) 0.1879(6)
C6_4 C 0.2294(5) 0.1631(4) 0.0675(6)
H3_4 H 0.2433 0.1324 0.0275
C7_4 C 0.1656(5) 0.2235(4) 0.0051(7)
C8_4 C 0.3457(5) 0.0856(4) 0.2570(6)
O1_4 O 0.0745(3) 0.3903(3) 0.0573(4)
O4_4 O 0.3708(3) 0.0537(3) 0.2035(4)
C1_4 C 0.0830(5) 0.3424(4) 0.9964(6)
H4_4 H 0.1356 0.2313 0.9231
C9_4 C 0.8168(6) 0.4239(5) 0.0334(9)
H5_4 H 0.7976 0.4770 0.0208
C10_4 C 0.7559(6) 0.3635(5) 0.0014(9)
C11_4 C 0.7814(5) 0.2834(4) 0.0169(6)
C12_4 C 0.8708(6) 0.2704(5) 0.0670(9)
H7_4 H 0.8926 0.2181 0.0817
C13_4 C 0.9275(6) 0.3325(5) 0.0951(9)
H8_4 H 0.9862 0.3216 0.1249
N1_4 N 0.9009(4) 0.4089(3) 0.0808(5)
O5_4 O 0.9583(3) 0.4676(3) 0.1124(4)
C14_4 C 0.9170(5) 0.6576(4) 0.0036(6)
H12_4 H 0.8644 0.7687 0.0769
H14_4 H 0.8030 0.1235 0.0308
O7_4 O 0.9561(3) 0.6499(3) 0.1144(4)
H6_4 H 0.6970 0.3765 0.9692
C15_4 C 0.8545(5) 0.7275(4) 0.9381(6)
C16_4 C 0.8125(6) 0.7441(5) 0.8173(7)
H9_4 H 0.8264 0.7132 0.7773
C17_4 C 0.7512(6) 0.8056(5) 0.7568(7)
H10_4 H 0.7249 0.8162 0.6766
C18_4 C 0.7272(5) 0.8524(4) 0.8121(6)
C19_4 C 0.7706(5) 0.8369(4) 0.9325(6)
H11_4 H 0.7567 0.8676 0.9725
C20_4 C 0.8344(5) 0.7765(4) 0.9949(7)
C21_4 C 0.6543(5) 0.9144(4) 0.7430(6)
C22_4 C 0.6832(6) 0.0761(5) 0.9666(9)
H13_4 H 0.7024 0.0230 0.9792
C23_4 C 0.7441(6) 0.1365(5) 0.9986(9)
C24_4 C 0.7186(5) 0.2166(4) 0.9831(6)
C25_4 C 0.6292(6) 0.2296(5) 0.9330(9)
H15_4 H 0.6074 0.2819 0.9183
C26_4 C 0.5725(6) 0.1675(5) 0.9049(9)
H16_4 H 0.5138 0.1784 0.8751
N2_4 N 0.5991(4) 0.0911(3) 0.9192(5)
O6_4 O 0.9255(3) 0.6097(3) 0.9427(4)
loop_
_geom_bond_atom_site_label_1
_geom_bond_atom_site_label_2
_geom_bond_site_symmetry_1
_geom_bond_site_symmetry_2
C14 C15 1_555 1_555
C15 C16 1_555 1_555
C16 H9 1_555 1_555
C17 C16 1_555 1_555
H10 C17 1_555 1_555
C18 C17 1_555 1_555
C19 C18 1_555 1_555
H11 C19 1_555 1_555
C20 C15 1_555 1_555
H12 C20 1_555 1_555
C21 C18 1_555 1_555
O6 Mn1 1_555 1_555
O7 C14 1_555 1_555
O9 C21 1_555 1_555
O10 Mn1 1_555 1_555
O12 C21 1_555 1_555
O16 Mn1 1_555 1_555
Mn5_4 O9 1_555 1_555
Mn9_2 O12 1_555 1_555
C14 O6 1_555 1_555
C19 C20 1_555 1_555
O7 Mn7 1_555 1_555
C1 C2 1_555 1_555
C2 C3 1_555 1_555
C3 H1 1_555 1_555
C4 C3 1_555 1_555
H2 C4 1_555 1_555
C5 C4 1_555 1_555
C6 C5 1_555 1_555
H3 C6 1_555 1_555
C7 C2 1_555 1_555
H4 C7 1_555 1_555
C8 C5 1_555 1_555
C9 H5 1_555 1_555
C10 C9 1_555 1_555
H6 C10 1_555 1_555
C11 C10 1_555 1_555
C12 C11 1_555 1_555
H7 C12 1_555 1_555
C13 C12 1_555 1_555
H8 C13 1_555 1_555
N1 C9 1_555 1_555
O1 C1 1_555 1_555
O2 C1 1_555 1_555
O3 C8 1_555 1_555
O4 C8 1_555 1_555
O5 N1 1_555 1_555
Mn1_2 O1 1_555 1_555
Mn2 O2 1_555 1_555
C22 H13 1_555 1_555
C23 C22 1_555 1_555
H14 C23 1_555 1_555
C24 C11 1_555 1_555
C25 C24 1_555 1_555
H15 C25 1_555 1_555
C26 C25 1_555 1_555
H16 C26 1_555 1_555
N2 C22 1_555 1_555
O8 Mn2 1_555 1_555
O11 Mn1_2 1_555 1_555
O13 Mn2 1_555 1_555
O14 Mn2 1_555 1_555
O15 N2 1_555 1_555
Mn5 O3 1_555 1_555
Mn4_2 O15 1_555 1_555
Mn6 O4 1_555 1_555
Mn9_2 O15 1_555 1_555
C6 C7 1_555 1_555
C13 N1 1_555 1_555
O5 Mn1_2 1_555 1_555
C23 C24 1_555 1_555
C26 N2 1_555 1_555
O7_2 C14_2 1_555 1_555
O10_2 Mn1_3 1_555 1_555
O7_2 Mn7 1_555 1_555
C15_2 C16_2 1_555 1_555
C16_2 H9_2 1_555 1_555
C17_2 C16_2 1_555 1_555
H10_2 C17_2 1_555 1_555
C18_2 C17_2 1_555 1_555
C19_2 C18_2 1_555 1_555
H11_2 C19_2 1_555 1_555
C20_2 C15_2 1_555 1_555
C21_2 C18_2 1_555 1_555
O6_2 Mn1_4 1_555 1_555
O9_2 C21_2 1_555 1_555
O12_2 C21_2 1_555 1_555
O17 Mn1_4 1_555 1_555
Mn4 O9_2 1_555 1_555
Mn9 O12_2 1_555 1_555
C19_2 C20_2 1_555 1_555
C2_2 C3_2 1_555 1_555
C3_2 H1_2 1_555 1_555
C4_2 C3_2 1_555 1_555
H2_2 C4_2 1_555 1_555
C5_2 C4_2 1_555 1_555
C6_2 C5_2 1_555 1_555
H3_2 C6_2 1_555 1_555
C7_2 C2_2 1_555 1_555
C8_2 C5_2 1_555 1_555
C9_2 H5_2 1_555 1_555
C10_2 C9_2 1_555 1_555
C11_2 C10_2 1_555 1_555
C12_2 C11_2 1_555 1_555
H7_2 C12_2 1_555 1_555
C13_2 C12_2 1_555 1_555
H8_2 C13_2 1_555 1_555
N1_2 C9_2 1_555 1_555
O3_2 C8_2 1_555 1_555
O4_2 C8_2 1_555 1_555
O5_2 N1_2 1_555 1_555
Mn1_5 O1_2 1_555 1_555
Mn4_2 O3_2 1_555 1_555
Mn6_2 O4_2 1_555 1_555
C6_2 C7_2 1_555 1_555
C13_2 N1_2 1_555 1_555
O5_2 Mn1_5 1_555 1_555
O8 C1_2 1_555 1_555
C22_2 H13_2 1_555 1_555
C23_2 C22_2 1_555 1_555
C25_2 C24_2 1_555 1_555
H15_2 C25_2 1_555 1_555
C26_2 C25_2 1_555 1_555
H16_2 C26_2 1_555 1_555
N2_2 C22_2 1_555 1_555
O11_2 Mn1_6 1_555 1_555
O15_2 N2_2 1_555 1_555
Mn5_2 O15_2 1_555 1_555
Mn9 O15_2 1_555 1_555
C23_2 C24_2 1_555 1_555
C26_2 N2_2 1_555 1_555
C9_3 H5_3 1_555 1_555
C10_3 C9_3 1_555 1_555
H6_3 C10_3 1_555 1_555
C11_3 C10_3 1_555 1_555
C12_3 C11_3 1_555 1_555
H7_3 C12_3 1_555 1_555
C13_3 C12_3 1_555 1_555
H8_3 C13_3 1_555 1_555
N1_3 C9_3 1_555 1_555
O5_3 N1_3 1_555 1_555
C14_3 C15_3 1_555 1_555
C15_3 C16_3 1_555 1_555
C16_3 H9_3 1_555 1_555
C17_3 C16_3 1_555 1_555
H10_3 C17_3 1_555 1_555
C18_3 C17_3 1_555 1_555
C19_3 C18_3 1_555 1_555
H11_3 C19_3 1_555 1_555
C20_3 C15_3 1_555 1_555
H12_3 C20_3 1_555 1_555
C21_3 C18_3 1_555 1_555
C22_3 H13_3 1_555 1_555
C23_3 C22_3 1_555 1_555
H14_3 C23_3 1_555 1_555
C24_3 C11_3 1_555 1_555
C25_3 C24_3 1_555 1_555
H15_3 C25_3 1_555 1_555
C26_3 C25_3 1_555 1_555
H16_3 C26_3 1_555 1_555
N2_3 C22_3 1_555 1_555
O6_3 Mn4 1_555 1_555
O7_3 C14_3 1_555 1_555
O8_2 Mn9 1_555 1_555
O11_2 C21_3 1_555 1_555
O13 C21_3 1_555 1_555
O16 N2_3 1_555 1_555
Mn6 O5_3 1_555 1_555
C13_3 N1_3 1_555 1_555
O5_3 Mn4 1_555 1_555
C14_3 O6_3 1_555 1_555
C19_3 C20_3 1_555 1_555
C23_3 C24_3 1_555 1_555
C26_3 N2_3 1_555 1_555
O7_3 Mn6 1_555 1_555
C1_3 C2_3 1_555 1_555
C2_3 C3_3 1_555 1_555
C3_3 H1_3 1_555 1_555
C4_3 C3_3 1_555 1_555
H2_3 C4_3 1_555 1_555
C5_3 C4_3 1_555 1_555
C6_3 C5_3 1_555 1_555
H3_3 C6_3 1_555 1_555
C7_3 C2_3 1_555 1_555
H4_3 C7_3 1_555 1_555
C8_3 C5_3 1_555 1_555
O1_3 C1_3 1_555 1_555
O2_2 C1_3 1_555 1_555
O10_2 C8_3 1_555 1_555
O4_3 C8_3 1_555 1_555
Mn4_2 O1_3 1_555 1_555
Mn9_2 O2_2 1_555 1_555
Mn7 O4_3 1_555 1_555
C6_3 C7_3 1_555 1_555
C2_4 C3_4 1_555 1_555
C3_4 H1_4 1_555 1_555
C4_4 C3_4 1_555 1_555
H2_4 C4_4 1_555 1_555
C5_4 C4_4 1_555 1_555
C6_4 C5_4 1_555 1_555
H3_4 C6_4 1_555 1_555
C7_4 C2_4 1_555 1_555
C8_4 C5_4 1_555 1_555
O10 C8_4 1_555 1_555
O4_4 C8_4 1_555 1_555
Mn5 O1_4 1_555 1_555
Mn7 O4_4 1_555 1_555
C6_4 C7_4 1_555 1_555
O8_2 C1_4 1_555 1_555
C9_4 H5_4 1_555 1_555
C10_4 C9_4 1_555 1_555
C11_4 C10_4 1_555 1_555
C12_4 C11_4 1_555 1_555
H7_4 C12_4 1_555 1_555
C13_4 C12_4 1_555 1_555
H8_4 C13_4 1_555 1_555
N1_4 C9_4 1_555 1_555
O5_4 N1_4 1_555 1_555
O7_4 C14_4 1_555 1_555
Mn6_2 O5_4 1_555 1_555
C13_4 N1_4 1_555 1_555
O5_4 Mn5_3 1_555 1_555
O7_4 Mn6_2 1_555 1_555
C15_4 C16_4 1_555 1_555
C16_4 H9_4 1_555 1_555
C17_4 C16_4 1_555 1_555
H10_4 C17_4 1_555 1_555
C18_4 C17_4 1_555 1_555
C19_4 C18_4 1_555 1_555
H11_4 C19_4 1_555 1_555
C20_4 C15_4 1_555 1_555
C21_4 C18_4 1_555 1_555
C22_4 H13_4 1_555 1_555
C23_4 C22_4 1_555 1_555
C25_4 C24_4 1_555 1_555
H15_4 C25_4 1_555 1_555
C26_4 C25_4 1_555 1_555
H16_4 C26_4 1_555 1_555
N2_4 C22_4 1_555 1_555
O6_4 Mn5_4 1_555 1_555
O11 C21_4 1_555 1_555
O14 C21_4 1_555 1_555
O17 N2_4 1_555 1_555
C19_4 C20_4 1_555 1_555
C23_4 C24_4 1_555 1_555
C26_4 N2_4 1_555 1_555

#END
