
###############################################################################
#
# This file contains modified crystal structure data generated from the
# MOF subset of the Cambridge Structural Database (CSD) v543 
# hosted by the Cambridge Crystallographic Data Centre (CCDC).
#
# This work is licensed under the Creative Commons
# Attribution-NonCommercial-ShareAlike 4.0 International License.
# To view a copy of this license, visit
# http://creativecommons.org/licenses/by-nc-sa/4.0/
# or send a letter to
# Creative Commons, PO Box 1866, Mountain View, CA 94042, USA.
#
# CIF created using the CSD Python API on 29 September 2022
# The structure has been converted into the P1 space group
# The structure has a 3D framework
# The original CSD entry LUSJAL is in the monoclinic crystal system
# The framework has been calculated to contain at least 10.0% void space
# The void calculation uses a probe of radius 1.32A, grid spacing 0.4
#
###############################################################################

data_LUSJAL
_chemical_formula_moiety         '(C104 H64 Mn9 N8 O38)n'
_symmetry_cell_setting           triclinic
_symmetry_space_group_name_H-M   'P 1'
_symmetry_Int_Tables_number      1
_space_group_name_Hall           'P 1'
loop_
_symmetry_equiv_pos_site_id
_symmetry_equiv_pos_as_xyz
1 x,y,z
_cell_length_a                   16.370(5)
_cell_length_b                   19.019(5)
_cell_length_c                   11.193(5)
_cell_angle_alpha                90
_cell_angle_beta                 119.543(5)
_cell_angle_gamma                90
_cell_volume                     3031.76
loop_
_atom_site_label
_atom_site_type_symbol
_atom_site_fract_x
_atom_site_fract_y
_atom_site_fract_z
C9 C 0.4854(4) 0.3401(2) 0.0228(6)
H5 H 0.5058 0.2975 0.0059
C11 C 0.4854(2) 0.46615(17) 0.0176(4)
C12 C 0.4285(2) 0.46475(16) 0.0769(3)
H7 H 0.4086 0.5067 0.0970
C13 C 0.4011(2) 0.40159(16) 0.1062(3)
H8 H 0.3627 0.4010 0.1457
N1 N 0.42975(18) 0.34108(13) 0.0778(3)
O3 O 0.41417(15) 0.12190(11) 0.1116(2)
O5 O 0.40316(15) 0.28029(11) 0.1085(2)
Mn1 Mn 0.5000 0.19953(3) 0.2500
Mn2 Mn 0.2500 0.2500 0.0000
C14 C 0.6673(2) 0.16793(15) 0.2242(3)
C15 C 0.6682(2) 0.09779(16) 0.1628(3)
C16 C 0.6005(3) 0.08042(17) 0.0308(4)
C20 C 0.7325(3) 0.04766(18) 0.2408(4)
H12 H 0.7798 0.0593 0.3287
C23 C 0.4873(4) 0.5977(2) 0.0088(7)
H14 H 0.4494 0.5988 0.0491
O6 O 0.73954(15) 0.18599(11) 0.3338(2)
O8 O 0.26046(15) 0.18599(11) 0.1662(2)
O9 O 0.59296(15) 0.20423(10) 0.1638(2)
O10 O 0.40704(15) 0.20423(10) 0.3362(2)
O12 O 0.58583(15) 0.12190(11) 0.3884(2)
O14 O 0.21762(15) 0.34550(10) 0.0757(2)
O16 O 0.59684(15) 0.28029(11) 0.3915(2)
Mn6 Mn 0.7500 0.7500 0.0000
Mn7 Mn 0.7500 0.2500 0.5000
C5 C 0.3385(2) 0.03747(15) 0.9408(3)
C6 C 0.2708(3) 0.01979(19) 0.8076(4)
H3 H 0.2278 0.0534 0.7510
C8 C 0.3460(2) 0.11073(15) 0.9962(3)
C10 C 0.5127(4) 0.4023(2) 0.9912(7)
H6 H 0.5506 0.4012 0.9509
O4 O 0.28238(15) 0.15450(10) 0.9243(2)
Mn2_2 Mn 0.2500 0.2500 1.0000
H9 H 0.5564 0.1138 0.9759
C17 C 0.5975(2) 0.01361(17) 0.9792(4)
H10 H 0.5520 0.0030 0.8896
C22 C 0.5146(4) 0.6599(2) 0.9772(6)
H13 H 0.4942 0.7025 0.9941
C24 C 0.5146(2) 0.53385(17) 0.9824(4)
C25 C 0.5715(2) 0.53525(16) 0.9231(3)
H15 H 0.5914 0.4933 0.9030
C26 C 0.5989(2) 0.59841(16) 0.8938(3)
H16 H 0.6373 0.5990 0.8543
N2 N 0.57025(18) 0.65892(13) 0.9222(3)
O7 O 0.23954(15) 0.31401(11) 0.8338(2)
O15 O 0.59684(15) 0.71971(11) 0.8915(2)
O17 O 0.09684(15) 0.21971(11) 0.8915(2)
Mn4 Mn 0.5000 0.80047(3) 0.7500
Mn6_2 Mn 0.7500 0.7500 1.0000
H1 H 0.4436 0.8862 0.0241
C4 C 0.4025(2) 0.98639(17) 0.0208(4)
H2 H 0.4480 0.9970 0.1104
C18 C 0.6615(2) 0.96253(15) 0.0592(3)
C19 C 0.7292(3) 0.98021(19) 0.1924(4)
H11 H 0.7722 0.9466 0.2490
C21 C 0.6540(2) 0.88927(15) 0.0038(3)
O13 O 0.71762(15) 0.84550(10) 0.0757(2)
C1 C 0.3327(2) 0.83207(15) 0.7758(3)
C2 C 0.3318(2) 0.90221(16) 0.8372(3)
C3 C 0.3995(3) 0.91958(17) 0.9692(4)
C7 C 0.2675(3) 0.95234(18) 0.7592(4)
H4 H 0.2202 0.9407 0.6713
O1 O 0.26046(15) 0.81401(11) 0.6662(2)
O2 O 0.40704(15) 0.79577(10) 0.8362(2)
O11 O 0.58583(15) 0.87810(11) 0.8884(2)
Mn5 Mn 0.2500 0.7500 0.5000
C5_2 C 0.6615(2) 0.03747(15) 0.5592(3)
C6_2 C 0.7292(3) 0.01979(19) 0.6924(4)
H3_2 H 0.7722 0.0534 0.7490
C8_2 C 0.6540(2) 0.11073(15) 0.5038(3)
C9_2 C 0.5146(4) 0.3401(2) 0.4772(6)
H5_2 H 0.4942 0.2975 0.4941
C10_2 C 0.4873(4) 0.4023(2) 0.5088(7)
H6_2 H 0.4494 0.4012 0.5491
C11_2 C 0.5146(2) 0.46615(17) 0.4824(4)
C12_2 C 0.5715(2) 0.46475(16) 0.4231(3)
H7_2 H 0.5914 0.5067 0.4030
C13_2 C 0.5989(2) 0.40159(16) 0.3938(3)
H8_2 H 0.6373 0.4010 0.3543
N1_2 N 0.57025(18) 0.34108(13) 0.4222(3)
O4_2 O 0.71762(15) 0.15450(10) 0.5757(2)
C14_2 C 0.3327(2) 0.16793(15) 0.2758(3)
C15_2 C 0.3318(2) 0.09779(16) 0.3372(3)
C16_2 C 0.3995(3) 0.08042(17) 0.4692(4)
H9_2 H 0.4436 0.1138 0.5241
C17_2 C 0.4025(2) 0.01361(17) 0.5208(4)
H10_2 H 0.4480 0.0030 0.6104
C20_2 C 0.2675(3) 0.04766(18) 0.2592(4)
H12_2 H 0.2202 0.0593 0.1713
C22_2 C 0.4854(4) 0.6599(2) 0.5228(6)
H13_2 H 0.5058 0.7025 0.5059
C23_2 C 0.5127(4) 0.5977(2) 0.4912(7)
H14_2 H 0.5506 0.5988 0.4509
C24_2 C 0.4854(2) 0.53385(17) 0.5176(4)
C25_2 C 0.4285(2) 0.53525(16) 0.5769(3)
H15_2 H 0.4086 0.4933 0.5970
C26_2 C 0.4011(2) 0.59841(16) 0.6062(3)
H16_2 H 0.3627 0.5990 0.6457
N2_2 N 0.42975(18) 0.65892(13) 0.5778(3)
O7_2 O 0.76046(15) 0.31401(11) 0.6662(2)
O14_2 O 0.78238(15) 0.34550(10) 0.4243(2)
O15_2 O 0.40316(15) 0.71971(11) 0.6085(2)
O17_2 O 0.90316(15) 0.21971(11) 0.6085(2)
C1_2 C 0.6673(2) 0.83207(15) 0.7242(3)
C2_2 C 0.6682(2) 0.90221(16) 0.6628(3)
C3_2 C 0.6005(3) 0.91958(17) 0.5308(4)
H1_2 H 0.5564 0.8862 0.4759
C4_2 C 0.5975(2) 0.98639(17) 0.4792(4)
H2_2 H 0.5520 0.9970 0.3896
C7_2 C 0.7325(3) 0.95234(18) 0.7408(4)
H4_2 H 0.7798 0.9407 0.8287
O1_2 O 0.73954(15) 0.81401(11) 0.8338(2)
O2_2 O 0.59296(15) 0.79577(10) 0.6638(2)
C18_2 C 0.3385(2) 0.96253(15) 0.4408(3)
C19_2 C 0.2708(3) 0.98021(19) 0.3076(4)
H11_2 H 0.2278 0.9466 0.2510
C21_2 C 0.3460(2) 0.88927(15) 0.4962(3)
O11_2 O 0.41417(15) 0.87810(11) 0.6116(2)
O13_2 O 0.28238(15) 0.84550(10) 0.4243(2)
C22_3 C 0.0146(4) 0.1599(2) 0.9772(6)
C24_3 C 0.0146(2) 0.03385(17) 0.9824(4)
C25_3 C 0.0715(2) 0.03525(16) 0.9231(3)
C26_3 C 0.0989(2) 0.09841(16) 0.8938(3)
H16_3 H 0.1373 0.0990 0.8543
N2_3 N 0.07025(18) 0.15892(13) 0.9222(3)
Mn4_2 Mn -0.0000 0.30047(3) 0.7500
H5_3 H 0.0058 0.7975 0.0059
Mn1_2 Mn -0.0000 0.69953(3) 0.2500
C14_3 C 0.1673(2) 0.66793(15) 0.2242(3)
C15_3 C 0.1682(2) 0.59779(16) 0.1628(3)
C16_3 C 0.1005(3) 0.58042(17) 0.0308(4)
C18_3 C 0.1615(2) 0.46253(15) 0.0592(3)
C19_3 C 0.2292(3) 0.48021(19) 0.1924(4)
H11_3 H 0.2722 0.4466 0.2490
C20_3 C 0.2325(3) 0.54766(18) 0.2408(4)
H12_3 H 0.2798 0.5593 0.3287
C21_3 C 0.1540(2) 0.38927(15) 0.0038(3)
O6_2 O 0.23954(15) 0.68599(11) 0.3338(2)
O9_2 O 0.09296(15) 0.70423(10) 0.1638(2)
O12_2 O 0.08583(15) 0.62190(11) 0.3884(2)
O16_2 O 0.09684(15) 0.78029(11) 0.3915(2)
C10_3 C 0.0127(4) 0.9023(2) 0.9912(7)
H6_3 H 0.0506 0.9012 0.9509
H9_3 H 0.0564 0.6138 0.9759
C17_3 C 0.0975(2) 0.51361(17) 0.9792(4)
H10_3 H 0.0520 0.5030 0.8896
H15_3 H 0.0914 0.9933 0.9030
O11_3 O 0.08583(15) 0.37810(11) 0.8884(2)
H7_3 H 0.9086 0.0067 0.0970
C23_3 C 0.9873(4) 0.0977(2) 0.0088(7)
H14_3 H 0.9494 0.0988 0.0491
H13_3 H 0.9942 0.2025 0.9941
Mn4_3 Mn 1.0000 0.30047(3) 0.7500
H1_3 H 0.9436 0.3862 0.0241
C4_3 C 0.9025(2) 0.48639(17) 0.0208(4)
H2_3 H 0.9480 0.4970 0.1104
C9_3 C 0.9854(4) 0.8401(2) 0.0228(6)
C11_3 C 0.9854(2) 0.96615(17) 0.0176(4)
C12_3 C 0.9285(2) 0.96475(16) 0.0769(3)
C13_3 C 0.9011(2) 0.90159(16) 0.1062(3)
H8_3 H 0.8627 0.9010 0.1457
N1_3 N 0.92975(18) 0.84108(13) 0.0778(3)
O3_2 O 0.91417(15) 0.62190(11) 0.1116(2)
O5_2 O 0.90316(15) 0.78029(11) 0.1085(2)
Mn1_3 Mn 1.0000 0.69953(3) 0.2500
O8_2 O 0.76046(15) 0.68599(11) 0.1662(2)
O10_2 O 0.90704(15) 0.70423(10) 0.3362(2)
C1_3 C 0.8327(2) 0.33207(15) 0.7758(3)
C2_3 C 0.8318(2) 0.40221(16) 0.8372(3)
C3_3 C 0.8995(3) 0.41958(17) 0.9692(4)
C5_3 C 0.8385(2) 0.53747(15) 0.9408(3)
C6_3 C 0.7708(3) 0.51979(19) 0.8076(4)
H3_3 H 0.7278 0.5534 0.7510
C7_3 C 0.7675(3) 0.45234(18) 0.7592(4)
H4_3 H 0.7202 0.4407 0.6713
C8_3 C 0.8460(2) 0.61073(15) 0.9962(3)
O2_3 O 0.90704(15) 0.29577(10) 0.8362(2)
O4_3 O 0.78238(15) 0.65450(10) 0.9243(2)
H7_4 H 0.0914 0.0067 0.4030
H13_4 H 0.0058 0.2025 0.5059
C23_4 C 0.0127(4) 0.0977(2) 0.4912(7)
H14_4 H 0.0506 0.0988 0.4509
C1_4 C 0.1673(2) 0.33207(15) 0.7242(3)
C2_4 C 0.1682(2) 0.40221(16) 0.6628(3)
C3_4 C 0.1005(3) 0.41958(17) 0.5308(4)
H1_4 H 0.0564 0.3862 0.4759
C4_4 C 0.0975(2) 0.48639(17) 0.4792(4)
H2_4 H 0.0520 0.4970 0.3896
C5_4 C 0.1615(2) 0.53747(15) 0.5592(3)
C6_4 C 0.2292(3) 0.51979(19) 0.6924(4)
H3_4 H 0.2722 0.5534 0.7490
C7_4 C 0.2325(3) 0.45234(18) 0.7408(4)
H4_4 H 0.2798 0.4407 0.8287
C8_4 C 0.1540(2) 0.61073(15) 0.5038(3)
C9_4 C 0.0146(4) 0.8401(2) 0.4772(6)
C11_4 C 0.0146(2) 0.96615(17) 0.4824(4)
C12_4 C 0.0715(2) 0.96475(16) 0.4231(3)
C13_4 C 0.0989(2) 0.90159(16) 0.3938(3)
H8_4 H 0.1373 0.9010 0.3543
N1_4 N 0.07025(18) 0.84108(13) 0.4222(3)
O2_4 O 0.09296(15) 0.29577(10) 0.6638(2)
O4_4 O 0.21762(15) 0.65450(10) 0.5757(2)
C22_4 C 0.9854(4) 0.1599(2) 0.5228(6)
C24_4 C 0.9854(2) 0.03385(17) 0.5176(4)
C25_4 C 0.9285(2) 0.03525(16) 0.5769(3)
C26_4 C 0.9011(2) 0.09841(16) 0.6062(3)
H16_4 H 0.8627 0.0990 0.6457
N2_4 N 0.92975(18) 0.15892(13) 0.5778(3)
H5_4 H 0.9942 0.7975 0.4941
C10_4 C 0.9873(4) 0.9023(2) 0.5088(7)
H6_4 H 0.9494 0.9012 0.5491
C14_4 C 0.8327(2) 0.66793(15) 0.2758(3)
C15_4 C 0.8318(2) 0.59779(16) 0.3372(3)
C16_4 C 0.8995(3) 0.58042(17) 0.4692(4)
H9_4 H 0.9436 0.6138 0.5241
C17_4 C 0.9025(2) 0.51361(17) 0.5208(4)
H10_4 H 0.9480 0.5030 0.6104
C18_4 C 0.8385(2) 0.46253(15) 0.4408(3)
C19_4 C 0.7708(3) 0.48021(19) 0.3076(4)
H11_4 H 0.7278 0.4466 0.2510
C20_4 C 0.7675(3) 0.54766(18) 0.2592(4)
H12_4 H 0.7202 0.5593 0.1713
C21_4 C 0.8460(2) 0.38927(15) 0.4962(3)
H15_4 H 0.9086 0.9933 0.5970
O11_4 O 0.91417(15) 0.37810(11) 0.6116(2)
loop_
_geom_bond_atom_site_label_1
_geom_bond_atom_site_label_2
_geom_bond_site_symmetry_1
_geom_bond_site_symmetry_2
C9 H5 1_555 1_555
C12 C11 1_555 1_555
H7 C12 1_555 1_555
C13 C12 1_555 1_555
H8 C13 1_555 1_555
N1 C9 1_555 1_555
O5 N1 1_555 1_555
Mn1 O3 1_555 1_555
C14 C15 1_555 1_555
C15 C16 1_555 1_555
C20 C15 1_555 1_555
H12 C20 1_555 1_555
H14 C23 1_555 1_555
O6 C14 1_555 1_555
O8 Mn2 1_555 1_555
O9 Mn1 1_555 1_555
O10 Mn1 1_555 1_555
O12 Mn1 1_555 1_555
O14 Mn2 1_555 1_555
O16 Mn1 1_555 1_555
Mn7 O6 1_555 1_555
C13 N1 1_555 1_555
O5 Mn1 1_555 1_555
O5 Mn2 1_555 1_555
C14 O9 1_555 1_555
O16 Mn7 1_555 1_555
C6 C5 1_555 1_555
H3 C6 1_555 1_555
C8 C5 1_555 1_555
H6 C10 1_555 1_555
O4 C8 1_555 1_555
Mn2_2 O4 1_555 1_555
H10 C17 1_555 1_555
C22 H13 1_555 1_555
C25 C24 1_555 1_555
H15 C25 1_555 1_555
C26 C25 1_555 1_555
H16 C26 1_555 1_555
N2 C22 1_555 1_555
O7 Mn2_2 1_555 1_555
O15 N2 1_555 1_555
O17 Mn2_2 1_555 1_555
Mn4 O15 1_555 1_555
Mn6_2 O15 1_555 1_555
C26 N2 1_555 1_555
H2 C4 1_555 1_555
C19 C18 1_555 1_555
H11 C19 1_555 1_555
C21 C18 1_555 1_555
O13 C21 1_555 1_555
Mn6 O13 1_555 1_555
C1 C2 1_555 1_555
C2 C3 1_555 1_555
C7 C2 1_555 1_555
H4 C7 1_555 1_555
O1 C1 1_555 1_555
O2 C1 1_555 1_555
Mn4 O2 1_555 1_555
Mn5 O1 1_555 1_555
O11 Mn4 1_555 1_555
C6_2 C5_2 1_555 1_555
H3_2 C6_2 1_555 1_555
C8_2 C5_2 1_555 1_555
C9_2 H5_2 1_555 1_555
C10_2 C9_2 1_555 1_555
H6_2 C10_2 1_555 1_555
C11_2 C10_2 1_555 1_555
C12_2 C11_2 1_555 1_555
H7_2 C12_2 1_555 1_555
C13_2 C12_2 1_555 1_555
H8_2 C13_2 1_555 1_555
N1_2 C9_2 1_555 1_555
O12 C8_2 1_555 1_555
O4_2 C8_2 1_555 1_555
O16 N1_2 1_555 1_555
Mn7 O4_2 1_555 1_555
C14_2 C15_2 1_555 1_555
C15_2 C16_2 1_555 1_555
C16_2 H9_2 1_555 1_555
C17_2 C16_2 1_555 1_555
H10_2 C17_2 1_555 1_555
C20_2 C15_2 1_555 1_555
H12_2 C20_2 1_555 1_555
C22_2 H13_2 1_555 1_555
C23_2 C22_2 1_555 1_555
H14_2 C23_2 1_555 1_555
C24_2 C11_2 1_555 1_555
C25_2 C24_2 1_555 1_555
H15_2 C25_2 1_555 1_555
C26_2 C25_2 1_555 1_555
H16_2 C26_2 1_555 1_555
N2_2 C22_2 1_555 1_555
O8 C14_2 1_555 1_555
O7_2 Mn7 1_555 1_555
O14_2 Mn7 1_555 1_555
O15_2 N2_2 1_555 1_555
O17_2 Mn7 1_555 1_555
Mn4 O15_2 1_555 1_555
Mn5 O15_2 1_555 1_555
C13_2 N1_2 1_555 1_555
C14_2 O10 1_555 1_555
C23_2 C24_2 1_555 1_555
C26_2 N2_2 1_555 1_555
C1_2 C2_2 1_555 1_555
C2_2 C3_2 1_555 1_555
C3_2 H1_2 1_555 1_555
C4_2 C3_2 1_555 1_555
H2_2 C4_2 1_555 1_555
C7_2 C2_2 1_555 1_555
H4_2 C7_2 1_555 1_555
O1_2 C1_2 1_555 1_555
O2_2 C1_2 1_555 1_555
C19_2 C18_2 1_555 1_555
H11_2 C19_2 1_555 1_555
C21_2 C18_2 1_555 1_555
O11_2 C21_2 1_555 1_555
O13_2 C21_2 1_555 1_555
Mn4 O2_2 1_555 1_555
Mn6_2 O1_2 1_555 1_555
Mn5 O13_2 1_555 1_555
O11_2 Mn4 1_555 1_555
C25_3 C24_3 1_555 1_555
C26_3 C25_3 1_555 1_555
H16_3 C26_3 1_555 1_555
N2_3 C22_3 1_555 1_555
O17 N2_3 1_555 1_555
Mn4_2 O17 1_555 1_555
C26_3 N2_3 1_555 1_555
C14_3 C15_3 1_555 1_555
C15_3 C16_3 1_555 1_555
C19_3 C18_3 1_555 1_555
H11_3 C19_3 1_555 1_555
C20_3 C15_3 1_555 1_555
H12_3 C20_3 1_555 1_555
C21_3 C18_3 1_555 1_555
O6_2 C14_3 1_555 1_555
O9_2 Mn1_2 1_555 1_555
O12_2 Mn1_2 1_555 1_555
O14 C21_3 1_555 1_555
O16_2 Mn1_2 1_555 1_555
Mn5 O6_2 1_555 1_555
C14_3 O9_2 1_555 1_555
C19_3 C20_3 1_555 1_555
O16_2 Mn5 1_555 1_555
H6_3 C10_3 1_555 1_555
H10_3 C17_3 1_555 1_555
O11_3 Mn4_2 1_555 1_555
H14_3 C23_3 1_555 1_555
H2_3 C4_3 1_555 1_555
C12_3 C11_3 1_555 1_555
C13_3 C12_3 1_555 1_555
H8_3 C13_3 1_555 1_555
N1_3 C9_3 1_555 1_555
O5_2 N1_3 1_555 1_555
Mn1_3 O3_2 1_555 1_555
O8_2 Mn6 1_555 1_555
O10_2 Mn1_3 1_555 1_555
C13_3 N1_3 1_555 1_555
O5_2 Mn1_3 1_555 1_555
O5_2 Mn6 1_555 1_555
C1_3 C2_3 1_555 1_555
C2_3 C3_3 1_555 1_555
C6_3 C5_3 1_555 1_555
H3_3 C6_3 1_555 1_555
C7_3 C2_3 1_555 1_555
H4_3 C7_3 1_555 1_555
C8_3 C5_3 1_555 1_555
O7_2 C1_3 1_555 1_555
O2_3 C1_3 1_555 1_555
O4_3 C8_3 1_555 1_555
Mn6_2 O4_3 1_555 1_555
Mn4_3 O2_3 1_555 1_555
C6_3 C7_3 1_555 1_555
H14_4 C23_4 1_555 1_555
C1_4 C2_4 1_555 1_555
C2_4 C3_4 1_555 1_555
C3_4 H1_4 1_555 1_555
C4_4 C3_4 1_555 1_555
H2_4 C4_4 1_555 1_555
C5_4 C4_4 1_555 1_555
C6_4 C5_4 1_555 1_555
H3_4 C6_4 1_555 1_555
C7_4 C2_4 1_555 1_555
H4_4 C7_4 1_555 1_555
C8_4 C5_4 1_555 1_555
C12_4 C11_4 1_555 1_555
C13_4 C12_4 1_555 1_555
H8_4 C13_4 1_555 1_555
N1_4 C9_4 1_555 1_555
O7 C1_4 1_555 1_555
O2_4 C1_4 1_555 1_555
O12_2 C8_4 1_555 1_555
O4_4 C8_4 1_555 1_555
O16_2 N1_4 1_555 1_555
Mn5 O4_4 1_555 1_555
Mn4_2 O2_4 1_555 1_555
C6_4 C7_4 1_555 1_555
C13_4 N1_4 1_555 1_555
C25_4 C24_4 1_555 1_555
C26_4 C25_4 1_555 1_555
H16_4 C26_4 1_555 1_555
N2_4 C22_4 1_555 1_555
O17_2 N2_4 1_555 1_555
Mn4_3 O17_2 1_555 1_555
C26_4 N2_4 1_555 1_555
H6_4 C10_4 1_555 1_555
C14_4 C15_4 1_555 1_555
C15_4 C16_4 1_555 1_555
C16_4 H9_4 1_555 1_555
C17_4 C16_4 1_555 1_555
H10_4 C17_4 1_555 1_555
C18_4 C17_4 1_555 1_555
C19_4 C18_4 1_555 1_555
H11_4 C19_4 1_555 1_555
C20_4 C15_4 1_555 1_555
H12_4 C20_4 1_555 1_555
C21_4 C18_4 1_555 1_555
O8_2 C14_4 1_555 1_555
O11_4 C21_4 1_555 1_555
O14_2 C21_4 1_555 1_555
C14_4 O10_2 1_555 1_555
C19_4 C20_4 1_555 1_555
O11_4 Mn4_3 1_555 1_555

#END
