
###############################################################################
#
# This file contains modified crystal structure data generated from the
# MOF subset of the Cambridge Structural Database (CSD) v543 
# hosted by the Cambridge Crystallographic Data Centre (CCDC).
#
# This work is licensed under the Creative Commons
# Attribution-NonCommercial-ShareAlike 4.0 International License.
# To view a copy of this license, visit
# http://creativecommons.org/licenses/by-nc-sa/4.0/
# or send a letter to
# Creative Commons, PO Box 1866, Mountain View, CA 94042, USA.
#
# CIF created using the CSD Python API on 29 September 2022
# The structure has been converted into the P1 space group
# The structure has a 3D framework
# The original CSD entry LUSJEP is in the monoclinic crystal system
# The framework has been calculated to contain at least 10.0% void space
# The void calculation uses a probe of radius 1.32A, grid spacing 0.4
#
###############################################################################

data_LUSJEP
_chemical_formula_moiety         '(C104 H64 Mn13 N8 O40)n'
_symmetry_cell_setting           triclinic
_symmetry_space_group_name_H-M   'P 1'
_symmetry_Int_Tables_number      1
_space_group_name_Hall           'P 1'
loop_
_symmetry_equiv_pos_site_id
_symmetry_equiv_pos_as_xyz
1 x,y,z
_cell_length_a                   19.175(4)
_cell_length_b                   16.692(3)
_cell_length_c                   14.285(3)
_cell_angle_alpha                90
_cell_angle_beta                 130.087(2)
_cell_angle_gamma                90
_cell_volume                     3498.03
loop_
_atom_site_label
_atom_site_type_symbol
_atom_site_fract_x
_atom_site_fract_y
_atom_site_fract_z
Mn5 Mn 0.5000 0.5000 0.0000
Mn1 Mn 0.0000 0.0000 0.5000
C14 C 0.0828(3) 0.1570(3) 0.4968(5)
C15 C 0.1453(3) 0.2278(3) 0.5625(5)
C16 C 0.1871(5) 0.2440(4) 0.6827(6)
H9 H 0.1737 0.2130 0.7235
C17 C 0.2491(5) 0.3065(4) 0.7434(6)
H10 H 0.2760 0.3175 0.8242
C18 C 0.2713(3) 0.3522(3) 0.6869(4)
C19 C 0.2274(4) 0.3368(3) 0.5655(5)
H11 H 0.2404 0.3681 0.5245
C20 C 0.1646(4) 0.2757(3) 0.5042(5)
H12 H 0.1350 0.2669 0.4219
C21 C 0.3454(3) 0.4150(3) 0.7558(4)
O6 O 0.0760(2) 0.1094(2) 0.5595(3)
O7 O 0.0430(2) 0.1497(2) 0.3853(3)
O9 O 0.3781(2) 0.4311(2) 0.8627(3)
O12 O 0.3700(2) 0.44578(19) 0.7009(3)
O17 O 0.0398(2) 0.0340(2) 0.8862(3)
Mn5_2 Mn 0.5000 0.5000 1.0000
Mn7 Mn 0.0000 0.06269(5) 0.2500
Mn9 Mn 0.5000 0.43731(5) 0.7500
C9 C 0.1824(5) 0.9227(4) 0.4644(8)
H5 H 0.2013 0.9757 0.4756
C10 C 0.2426(5) 0.8621(4) 0.4955(8)
H6 H 0.3012 0.8748 0.5263
C11 C 0.2178(4) 0.7833(3) 0.4821(5)
C12 C 0.1305(4) 0.7700(4) 0.4344(8)
H7 H 0.1096 0.7176 0.4205
C13 C 0.0721(4) 0.8319(4) 0.4060(7)
H8 H 0.0138 0.8206 0.3777
N1 N 0.0985(3) 0.9069(3) 0.4189(4)
O5 O 0.0398(2) 0.9660(2) 0.3862(3)
Mn1_2 Mn 0.0000 1.0000 0.5000
Mn2 Mn 0.0000 0.93731(5) 0.7500
C22 C 0.3176(5) 0.5773(4) 0.5356(8)
H13 H 0.2987 0.5243 0.5244
C23 C 0.2574(5) 0.6379(4) 0.5045(8)
H14 H 0.1988 0.6252 0.4737
C24 C 0.2822(4) 0.7167(3) 0.5179(5)
C25 C 0.3695(4) 0.7300(4) 0.5656(8)
H15 H 0.3904 0.7824 0.5795
C26 C 0.4279(4) 0.6681(4) 0.5940(7)
H16 H 0.4862 0.6794 0.6223
N2 N 0.4015(3) 0.5931(3) 0.5811(4)
O8 O 0.0430(2) 0.8503(2) 0.8853(3)
O11 O 0.1219(2) 0.9311(2) 0.6373(3)
O14 O 0.1300(2) 0.94578(19) 0.7991(3)
O15 O 0.4602(2) 0.5340(2) 0.6138(3)
Mn4 Mn 0.5000 0.5000 0.5000
Mn1_3 Mn 1.0000 0.0000 0.5000
O10 O 0.8781(2) 0.0689(2) 0.3627(3)
O16 O 0.9602(2) 0.0340(2) 0.6138(3)
Mn7_2 Mn 1.0000 0.06269(5) 0.2500
C1 C 0.9172(3) 0.8430(3) 0.5032(5)
C2 C 0.8547(3) 0.7722(3) 0.4375(5)
C3 C 0.8129(5) 0.7560(4) 0.3173(6)
H1 H 0.8263 0.7870 0.2765
C4 C 0.7509(5) 0.6935(4) 0.2566(6)
H2 H 0.7240 0.6825 0.1758
C5 C 0.7287(3) 0.6478(3) 0.3131(4)
C6 C 0.7726(4) 0.6632(3) 0.4345(5)
H3 H 0.7596 0.6319 0.4755
C7 C 0.8354(4) 0.7243(3) 0.4958(5)
H4 H 0.8650 0.7331 0.5781
C8 C 0.6546(3) 0.5850(3) 0.2442(4)
O1 O 0.9240(2) 0.8906(2) 0.4405(3)
O2 O 0.9570(2) 0.8503(2) 0.6147(3)
O3 O 0.6219(2) 0.5689(2) 0.1373(3)
O4 O 0.6300(2) 0.55422(19) 0.2991(3)
Mn1_4 Mn 1.0000 1.0000 0.5000
Mn2_2 Mn 1.0000 0.93731(5) 0.7500
O13 O 0.8700(2) 0.94578(19) 0.7009(3)
Mn6 Mn 0.5000 0.56269(5) 0.2500
Mn1_5 Mn 0.0000 0.0000 0.0000
O10_2 O 0.1219(2) 0.0689(2) 0.1373(3)
Mn1_6 Mn 0.0000 0.0000 1.0000
C2_2 C 0.1453(3) 0.7722(3) 0.0625(5)
C3_2 C 0.1871(5) 0.7560(4) 0.1827(6)
H1_2 H 0.1737 0.7870 0.2235
C4_2 C 0.2491(5) 0.6935(4) 0.2434(6)
H2_2 H 0.2760 0.6825 0.3242
C5_2 C 0.2713(3) 0.6478(3) 0.1869(4)
C6_2 C 0.2274(4) 0.6632(3) 0.0655(5)
H3_2 H 0.2404 0.6319 0.0245
C7_2 C 0.1646(4) 0.7243(3) 0.0042(5)
C8_2 C 0.3454(3) 0.5850(3) 0.2558(4)
O1_2 O 0.0760(2) 0.8906(2) 0.0595(3)
O3_2 O 0.3781(2) 0.5689(2) 0.3627(3)
O4_2 O 0.3700(2) 0.55422(19) 0.2009(3)
Mn1_7 Mn 0.0000 1.0000 0.0000
C1_2 C 0.0828(3) 0.8430(3) 0.9968(5)
H4_2 H 0.1350 0.7331 0.9219
Mn1_8 Mn 0.0000 1.0000 1.0000
Mn1_9 Mn 1.0000 0.0000 0.0000
C14_2 C 0.9172(3) 0.1570(3) 0.0032(5)
H12_2 H 0.8650 0.2669 0.0781
O7_2 O 0.9570(2) 0.1497(2) 0.1147(3)
Mn1_10 Mn 1.0000 0.0000 1.0000
C15_2 C 0.8547(3) 0.2278(3) 0.9375(5)
C16_2 C 0.8129(5) 0.2440(4) 0.8173(6)
H9_2 H 0.8263 0.2130 0.7765
C17_2 C 0.7509(5) 0.3065(4) 0.7566(6)
H10_2 H 0.7240 0.3175 0.6758
C18_2 C 0.7287(3) 0.3522(3) 0.8131(4)
C19_2 C 0.7726(4) 0.3368(3) 0.9345(5)
H11_2 H 0.7596 0.3681 0.9755
C20_2 C 0.8354(4) 0.2757(3) 0.9958(5)
C21_2 C 0.6546(3) 0.4150(3) 0.7442(4)
O6_2 O 0.9240(2) 0.1094(2) 0.9405(3)
O9_2 O 0.6219(2) 0.4311(2) 0.6373(3)
O12_2 O 0.6300(2) 0.44578(19) 0.7991(3)
C9_2 C 0.8176(5) 0.9227(4) 0.0356(8)
H5_2 H 0.7987 0.9757 0.0244
C10_2 C 0.7574(5) 0.8621(4) 0.0045(8)
C11_2 C 0.7822(4) 0.7833(3) 0.0179(5)
C12_2 C 0.8695(4) 0.7700(4) 0.0656(8)
H7_2 H 0.8904 0.7176 0.0795
C13_2 C 0.9279(4) 0.8319(4) 0.0940(7)
H8_2 H 0.9862 0.8206 0.1223
N1_2 N 0.9015(3) 0.9069(3) 0.0811(4)
O5_2 O 0.9602(2) 0.9660(2) 0.1138(3)
Mn1_11 Mn 1.0000 1.0000 0.0000
H14_2 H 0.8012 0.6252 0.0263
H6_2 H 0.6988 0.8748 0.9737
Mn1_12 Mn 1.0000 1.0000 1.0000
C22_2 C 0.6824(5) 0.5773(4) 0.9644(8)
H13_2 H 0.7013 0.5243 0.9756
C23_2 C 0.7426(5) 0.6379(4) 0.9955(8)
C24_2 C 0.7178(4) 0.7167(3) 0.9821(5)
C25_2 C 0.6305(4) 0.7300(4) 0.9344(8)
H15_2 H 0.6096 0.7824 0.9205
C26_2 C 0.5721(4) 0.6681(4) 0.9060(7)
H16_2 H 0.5138 0.6794 0.8777
N2_2 N 0.5985(3) 0.5931(3) 0.9189(4)
O11_2 O 0.8781(2) 0.9311(2) 0.8627(3)
O15_2 O 0.5398(2) 0.5340(2) 0.8862(3)
C1_3 C 0.4172(3) 0.3430(3) 0.5032(5)
C2_3 C 0.3547(3) 0.2722(3) 0.4375(5)
C3_3 C 0.3129(5) 0.2560(4) 0.3173(6)
H1_3 H 0.3263 0.2870 0.2765
C4_3 C 0.2509(5) 0.1935(4) 0.2566(6)
H2_3 H 0.2240 0.1825 0.1758
C5_3 C 0.2287(3) 0.1478(3) 0.3131(4)
C6_3 C 0.2726(4) 0.1632(3) 0.4345(5)
H3_3 H 0.2596 0.1319 0.4755
C7_3 C 0.3354(4) 0.2243(3) 0.4958(5)
H4_3 H 0.3650 0.2331 0.5781
C8_3 C 0.1546(3) 0.0850(3) 0.2442(4)
C9_3 C 0.6824(5) 0.4227(4) 0.4644(8)
H5_3 H 0.7013 0.4757 0.4756
C10_3 C 0.7426(5) 0.3621(4) 0.4955(8)
H6_3 H 0.8012 0.3748 0.5263
C11_3 C 0.7178(4) 0.2833(3) 0.4821(5)
C12_3 C 0.6305(4) 0.2700(4) 0.4344(8)
H7_3 H 0.6096 0.2176 0.4205
C13_3 C 0.5721(4) 0.3319(4) 0.4060(7)
H8_3 H 0.5138 0.3206 0.3777
N1_3 N 0.5985(3) 0.4069(3) 0.4189(4)
O1_3 O 0.4240(2) 0.3906(2) 0.4405(3)
O2_2 O 0.4570(2) 0.3503(2) 0.6147(3)
O4_3 O 0.1300(2) 0.05422(19) 0.2991(3)
O5_3 O 0.5398(2) 0.4660(2) 0.3862(3)
C14_3 C 0.5828(3) 0.6570(3) 0.4968(5)
C15_3 C 0.6453(3) 0.7278(3) 0.5625(5)
C16_3 C 0.6871(5) 0.7440(4) 0.6827(6)
H9_3 H 0.6737 0.7130 0.7235
C17_3 C 0.7491(5) 0.8065(4) 0.7434(6)
H10_3 H 0.7760 0.8175 0.8242
C18_3 C 0.7713(3) 0.8522(3) 0.6869(4)
C19_3 C 0.7274(4) 0.8368(3) 0.5655(5)
H11_3 H 0.7404 0.8681 0.5245
C20_3 C 0.6646(4) 0.7757(3) 0.5042(5)
H12_3 H 0.6350 0.7669 0.4219
C21_3 C 0.8454(3) 0.9150(3) 0.7558(4)
C22_3 C 0.8176(5) 0.0773(4) 0.5356(8)
H13_3 H 0.7987 0.0243 0.5244
C23_3 C 0.7574(5) 0.1379(4) 0.5045(8)
H14_3 H 0.6988 0.1252 0.4737
C24_3 C 0.7822(4) 0.2167(3) 0.5179(5)
C25_3 C 0.8695(4) 0.2300(4) 0.5656(8)
H15_3 H 0.8904 0.2824 0.5795
C26_3 C 0.9279(4) 0.1681(4) 0.5940(7)
H16_3 H 0.9862 0.1794 0.6223
N2_3 N 0.9015(3) 0.0931(3) 0.5811(4)
O6_3 O 0.5760(2) 0.6094(2) 0.5595(3)
O7_3 O 0.5430(2) 0.6497(2) 0.3853(3)
O8_2 O 0.5430(2) 0.3503(2) 0.8853(3)
C2_4 C 0.6453(3) 0.2722(3) 0.0625(5)
C3_4 C 0.6871(5) 0.2560(4) 0.1827(6)
H1_4 H 0.6737 0.2870 0.2235
C4_4 C 0.7491(5) 0.1935(4) 0.2434(6)
H2_4 H 0.7760 0.1825 0.3242
C5_4 C 0.7713(3) 0.1478(3) 0.1869(4)
C6_4 C 0.7274(4) 0.1632(3) 0.0655(5)
H3_4 H 0.7404 0.1319 0.0245
C7_4 C 0.6646(4) 0.2243(3) 0.0042(5)
C8_4 C 0.8454(3) 0.0850(3) 0.2558(4)
C9_4 C 0.3176(5) 0.4227(4) 0.0356(8)
H5_4 H 0.2987 0.4757 0.0244
C10_4 C 0.2574(5) 0.3621(4) 0.0045(8)
C11_4 C 0.2822(4) 0.2833(3) 0.0179(5)
C12_4 C 0.3695(4) 0.2700(4) 0.0656(8)
H7_4 H 0.3904 0.2176 0.0795
C13_4 C 0.4279(4) 0.3319(4) 0.0940(7)
H8_4 H 0.4862 0.3206 0.1223
N1_4 N 0.4015(3) 0.4069(3) 0.0811(4)
O1_4 O 0.5760(2) 0.3906(2) 0.0595(3)
O4_4 O 0.8700(2) 0.05422(19) 0.2009(3)
O5_4 O 0.4602(2) 0.4660(2) 0.1138(3)
C14_4 C 0.4172(3) 0.6570(3) 0.0032(5)
H12_4 H 0.3650 0.7669 0.0781
H14_4 H 0.3012 0.1252 0.0263
O7_4 O 0.4570(2) 0.6497(2) 0.1147(3)
C1_4 C 0.5828(3) 0.3430(3) 0.9968(5)
H4_4 H 0.6350 0.2331 0.9219
H6_4 H 0.1988 0.3748 0.9737
C15_4 C 0.3547(3) 0.7278(3) 0.9375(5)
C16_4 C 0.3129(5) 0.7440(4) 0.8173(6)
H9_4 H 0.3263 0.7130 0.7765
C17_4 C 0.2509(5) 0.8065(4) 0.7566(6)
H10_4 H 0.2240 0.8175 0.6758
C18_4 C 0.2287(3) 0.8522(3) 0.8131(4)
C19_4 C 0.2726(4) 0.8368(3) 0.9345(5)
H11_4 H 0.2596 0.8681 0.9755
C20_4 C 0.3354(4) 0.7757(3) 0.9958(5)
C21_4 C 0.1546(3) 0.9150(3) 0.7442(4)
C22_4 C 0.1824(5) 0.0773(4) 0.9644(8)
H13_4 H 0.2013 0.0243 0.9756
C23_4 C 0.2426(5) 0.1379(4) 0.9955(8)
C24_4 C 0.2178(4) 0.2167(3) 0.9821(5)
C25_4 C 0.1305(4) 0.2300(4) 0.9344(8)
H15_4 H 0.1096 0.2824 0.9205
C26_4 C 0.0721(4) 0.1681(4) 0.9060(7)
H16_4 H 0.0138 0.1794 0.8777
N2_4 N 0.0985(3) 0.0931(3) 0.9189(4)
O6_4 O 0.4240(2) 0.6094(2) 0.9405(3)
loop_
_geom_bond_atom_site_label_1
_geom_bond_atom_site_label_2
_geom_bond_site_symmetry_1
_geom_bond_site_symmetry_2
C14 C15 1_555 1_555
C15 C16 1_555 1_555
C16 H9 1_555 1_555
C17 C16 1_555 1_555
H10 C17 1_555 1_555
C18 C17 1_555 1_555
C19 C18 1_555 1_555
H11 C19 1_555 1_555
C20 C15 1_555 1_555
H12 C20 1_555 1_555
C21 C18 1_555 1_555
O6 Mn1 1_555 1_555
O7 C14 1_555 1_555
O9 C21 1_555 1_555
O12 C21 1_555 1_555
Mn5_2 O9 1_555 1_555
Mn9 O12 1_555 1_555
C14 O6 1_555 1_555
C19 C20 1_555 1_555
O7 Mn7 1_555 1_555
C9 H5 1_555 1_555
C10 C9 1_555 1_555
H6 C10 1_555 1_555
C11 C10 1_555 1_555
C12 C11 1_555 1_555
H7 C12 1_555 1_555
C13 C12 1_555 1_555
H8 C13 1_555 1_555
N1 C9 1_555 1_555
O5 N1 1_555 1_555
C22 H13 1_555 1_555
C23 C22 1_555 1_555
H14 C23 1_555 1_555
C24 C11 1_555 1_555
C25 C24 1_555 1_555
H15 C25 1_555 1_555
C26 C25 1_555 1_555
H16 C26 1_555 1_555
N2 C22 1_555 1_555
O8 Mn2 1_555 1_555
O11 Mn1_2 1_555 1_555
O14 Mn2 1_555 1_555
O15 N2 1_555 1_555
Mn4 O15 1_555 1_555
Mn9 O15 1_555 1_555
C13 N1 1_555 1_555
O5 Mn1_2 1_555 1_555
C23 C24 1_555 1_555
C26 N2 1_555 1_555
O10 Mn1_3 1_555 1_555
O16 Mn1_3 1_555 1_555
C1 C2 1_555 1_555
C2 C3 1_555 1_555
C3 H1 1_555 1_555
C4 C3 1_555 1_555
H2 C4 1_555 1_555
C5 C4 1_555 1_555
C6 C5 1_555 1_555
H3 C6 1_555 1_555
C7 C2 1_555 1_555
H4 C7 1_555 1_555
C8 C5 1_555 1_555
O1 C1 1_555 1_555
O2 C1 1_555 1_555
O3 C8 1_555 1_555
O4 C8 1_555 1_555
Mn1_4 O1 1_555 1_555
Mn2_2 O2 1_555 1_555
O13 Mn2_2 1_555 1_555
Mn5 O3 1_555 1_555
Mn6 O4 1_555 1_555
C6 C7 1_555 1_555
O10_2 Mn1_5 1_555 1_555
O17 Mn1_6 1_555 1_555
C2_2 C3_2 1_555 1_555
C3_2 H1_2 1_555 1_555
C4_2 C3_2 1_555 1_555
H2_2 C4_2 1_555 1_555
C5_2 C4_2 1_555 1_555
C6_2 C5_2 1_555 1_555
H3_2 C6_2 1_555 1_555
C7_2 C2_2 1_555 1_555
C8_2 C5_2 1_555 1_555
O3_2 C8_2 1_555 1_555
O4_2 C8_2 1_555 1_555
Mn1_7 O1_2 1_555 1_555
Mn4 O3_2 1_555 1_555
Mn6 O4_2 1_555 1_555
C6_2 C7_2 1_555 1_555
O8 C1_2 1_555 1_555
O7_2 C14_2 1_555 1_555
O7_2 Mn7_2 1_555 1_555
C15_2 C16_2 1_555 1_555
C16_2 H9_2 1_555 1_555
C17_2 C16_2 1_555 1_555
H10_2 C17_2 1_555 1_555
C18_2 C17_2 1_555 1_555
C19_2 C18_2 1_555 1_555
H11_2 C19_2 1_555 1_555
C20_2 C15_2 1_555 1_555
C21_2 C18_2 1_555 1_555
O6_2 Mn1_10 1_555 1_555
O9_2 C21_2 1_555 1_555
O12_2 C21_2 1_555 1_555
Mn4 O9_2 1_555 1_555
Mn9 O12_2 1_555 1_555
C19_2 C20_2 1_555 1_555
C9_2 H5_2 1_555 1_555
C10_2 C9_2 1_555 1_555
C11_2 C10_2 1_555 1_555
C12_2 C11_2 1_555 1_555
H7_2 C12_2 1_555 1_555
C13_2 C12_2 1_555 1_555
H8_2 C13_2 1_555 1_555
N1_2 C9_2 1_555 1_555
O5_2 N1_2 1_555 1_555
C13_2 N1_2 1_555 1_555
O5_2 Mn1_11 1_555 1_555
C22_2 H13_2 1_555 1_555
C23_2 C22_2 1_555 1_555
C25_2 C24_2 1_555 1_555
H15_2 C25_2 1_555 1_555
C26_2 C25_2 1_555 1_555
H16_2 C26_2 1_555 1_555
N2_2 C22_2 1_555 1_555
O11_2 Mn1_12 1_555 1_555
O15_2 N2_2 1_555 1_555
Mn5_2 O15_2 1_555 1_555
Mn9 O15_2 1_555 1_555
C23_2 C24_2 1_555 1_555
C26_2 N2_2 1_555 1_555
C1_3 C2_3 1_555 1_555
C2_3 C3_3 1_555 1_555
C3_3 H1_3 1_555 1_555
C4_3 C3_3 1_555 1_555
H2_3 C4_3 1_555 1_555
C5_3 C4_3 1_555 1_555
C6_3 C5_3 1_555 1_555
H3_3 C6_3 1_555 1_555
C7_3 C2_3 1_555 1_555
H4_3 C7_3 1_555 1_555
C8_3 C5_3 1_555 1_555
C9_3 H5_3 1_555 1_555
C10_3 C9_3 1_555 1_555
H6_3 C10_3 1_555 1_555
C11_3 C10_3 1_555 1_555
C12_3 C11_3 1_555 1_555
H7_3 C12_3 1_555 1_555
C13_3 C12_3 1_555 1_555
H8_3 C13_3 1_555 1_555
N1_3 C9_3 1_555 1_555
O1_3 C1_3 1_555 1_555
O2_2 C1_3 1_555 1_555
O10_2 C8_3 1_555 1_555
O4_3 C8_3 1_555 1_555
O5_3 N1_3 1_555 1_555
Mn4 O1_3 1_555 1_555
Mn9 O2_2 1_555 1_555
C14_3 C15_3 1_555 1_555
C15_3 C16_3 1_555 1_555
C16_3 H9_3 1_555 1_555
C17_3 C16_3 1_555 1_555
H10_3 C17_3 1_555 1_555
C18_3 C17_3 1_555 1_555
C19_3 C18_3 1_555 1_555
H11_3 C19_3 1_555 1_555
C20_3 C15_3 1_555 1_555
H12_3 C20_3 1_555 1_555
C21_3 C18_3 1_555 1_555
C22_3 H13_3 1_555 1_555
C23_3 C22_3 1_555 1_555
H14_3 C23_3 1_555 1_555
C24_3 C11_3 1_555 1_555
C25_3 C24_3 1_555 1_555
H15_3 C25_3 1_555 1_555
C26_3 C25_3 1_555 1_555
H16_3 C26_3 1_555 1_555
N2_3 C22_3 1_555 1_555
O6_3 Mn4 1_555 1_555
O7_3 C14_3 1_555 1_555
O8_2 Mn9 1_555 1_555
O11_2 C21_3 1_555 1_555
O13 C21_3 1_555 1_555
O16 N2_3 1_555 1_555
Mn7 O4_3 1_555 1_555
Mn6 O5_3 1_555 1_555
C6_3 C7_3 1_555 1_555
C13_3 N1_3 1_555 1_555
O5_3 Mn4 1_555 1_555
C14_3 O6_3 1_555 1_555
C19_3 C20_3 1_555 1_555
C23_3 C24_3 1_555 1_555
C26_3 N2_3 1_555 1_555
O7_3 Mn6 1_555 1_555
C2_4 C3_4 1_555 1_555
C3_4 H1_4 1_555 1_555
C4_4 C3_4 1_555 1_555
H2_4 C4_4 1_555 1_555
C5_4 C4_4 1_555 1_555
C6_4 C5_4 1_555 1_555
H3_4 C6_4 1_555 1_555
C7_4 C2_4 1_555 1_555
C8_4 C5_4 1_555 1_555
C9_4 H5_4 1_555 1_555
C10_4 C9_4 1_555 1_555
C11_4 C10_4 1_555 1_555
C12_4 C11_4 1_555 1_555
H7_4 C12_4 1_555 1_555
C13_4 C12_4 1_555 1_555
H8_4 C13_4 1_555 1_555
N1_4 C9_4 1_555 1_555
O10 C8_4 1_555 1_555
O4_4 C8_4 1_555 1_555
O5_4 N1_4 1_555 1_555
Mn5 O1_4 1_555 1_555
O7_4 C14_4 1_555 1_555
Mn7_2 O4_4 1_555 1_555
Mn6 O5_4 1_555 1_555
C6_4 C7_4 1_555 1_555
C13_4 N1_4 1_555 1_555
O5_4 Mn5 1_555 1_555
O7_4 Mn6 1_555 1_555
O8_2 C1_4 1_555 1_555
C15_4 C16_4 1_555 1_555
C16_4 H9_4 1_555 1_555
C17_4 C16_4 1_555 1_555
H10_4 C17_4 1_555 1_555
C18_4 C17_4 1_555 1_555
C19_4 C18_4 1_555 1_555
H11_4 C19_4 1_555 1_555
C20_4 C15_4 1_555 1_555
C21_4 C18_4 1_555 1_555
C22_4 H13_4 1_555 1_555
C23_4 C22_4 1_555 1_555
C25_4 C24_4 1_555 1_555
H15_4 C25_4 1_555 1_555
C26_4 C25_4 1_555 1_555
H16_4 C26_4 1_555 1_555
N2_4 C22_4 1_555 1_555
O6_4 Mn5_2 1_555 1_555
O11 C21_4 1_555 1_555
O14 C21_4 1_555 1_555
O17 N2_4 1_555 1_555
C19_4 C20_4 1_555 1_555
C23_4 C24_4 1_555 1_555
C26_4 N2_4 1_555 1_555

#END
