
###############################################################################
#
# This file contains modified crystal structure data generated from the
# MOF subset of the Cambridge Structural Database (CSD) v543 
# hosted by the Cambridge Crystallographic Data Centre (CCDC).
#
# This work is licensed under the Creative Commons
# Attribution-NonCommercial-ShareAlike 4.0 International License.
# To view a copy of this license, visit
# http://creativecommons.org/licenses/by-nc-sa/4.0/
# or send a letter to
# Creative Commons, PO Box 1866, Mountain View, CA 94042, USA.
#
# CIF created using the CSD Python API on 29 September 2022
# The structure has been converted into the P1 space group
# The structure has a 3D framework
# The original CSD entry LUSQUN is in the monoclinic crystal system
# The framework has been calculated to contain at least 10.0% void space
# The void calculation uses a probe of radius 1.32A, grid spacing 0.4
#
###############################################################################

data_LUSQUN
_chemical_formula_moiety         '(C184 H120 N16 O48 Zn8)n'
_symmetry_cell_setting           triclinic
_symmetry_space_group_name_H-M   'P 1'
_symmetry_Int_Tables_number      1
_space_group_name_Hall           'P 1'
loop_
_symmetry_equiv_pos_site_id
_symmetry_equiv_pos_as_xyz
1 x,y,z
_cell_length_a                   14.5740(7)
_cell_length_b                   23.5585(11)
_cell_length_c                   15.4557(7)
_cell_angle_alpha                90
_cell_angle_beta                 110.801(3)
_cell_angle_gamma                90
_cell_volume                     4960.7
loop_
_atom_site_label
_atom_site_type_symbol
_atom_site_fract_x
_atom_site_fract_y
_atom_site_fract_z
C28 C 0.0157(2) 0.64072(17) 0.0489(2)
O9 O 0.01359(17) 0.69350(11) 0.04284(18)
O10 O 0.08819(16) 0.61288(11) 0.04349(18)
Zn5 Zn 0.16479(3) 0.672541(16) 0.01068(3)
C1 C 0.2249(2) 0.77236(15) 0.1240(3)
C2 C 0.2139(2) 0.83448(14) 0.1330(3)
C3 C 0.2460(3) 0.86031(15) 0.2186(3)
H1 H 0.2785 0.8389 0.2711
C4 C 0.2305(3) 0.91771(17) 0.2274(3)
H2 H 0.2519 0.9350 0.2853
C5 C 0.1823(3) 0.94863(15) 0.1478(4)
C6 C 0.1496(3) 0.92382(18) 0.0634(4)
H3 H 0.1163 0.9452 0.0111
C7 C 0.1659(3) 0.86687(17) 0.0553(3)
C9 C 0.0070(3) 0.99170(15) 0.1587(3)
H5 H 0.0073 0.9536 0.1432
C15 C 0.3594(2) 0.62367(15) 0.1052(3)
C16 C 0.4496(2) 0.59764(15) 0.0979(3)
C17 C 0.5229(3) 0.57829(17) 0.1762(3)
H9 H 0.5159 0.5824 0.2334
C18 C 0.6062(3) 0.55301(18) 0.1721(4)
H10 H 0.6548 0.5398 0.2255
C19 C 0.6157(3) 0.54769(17) 0.0881(4)
C20 C 0.5451(3) 0.56635(19) 0.0085(4)
C21 C 0.4616(3) 0.59132(18) 0.0137(3)
C22 C 0.7742(3) 0.55111(16) 0.0753(3)
C23 C 0.8529(3) 0.52121(16) 0.0701(3)
H13 H 0.8533 0.4817 0.0716
C24 C 0.9313(3) 0.55066(17) 0.0628(3)
H14 H 0.9852 0.5306 0.0601
C25 C 0.9320(2) 0.60922(15) 0.0592(3)
C26 C 0.8521(2) 0.63797(16) 0.0645(3)
H15 H 0.8516 0.6774 0.0629
C27 C 0.7728(3) 0.60933(17) 0.0722(3)
H16 H 0.7189 0.6293 0.0751
O1 O 0.25946(19) 0.74434(10) 0.19743(19)
O2 O 0.19802(19) 0.75190(10) 0.04406(19)
O6 O 0.35698(19) 0.62999(12) 0.1846(2)
O7 O 0.29235(17) 0.63675(12) 0.0306(2)
O8 O 0.6985(2) 0.51893(11) 0.0833(3)
Zn1 Zn 0.28021(3) 0.665787(17) 0.24821(3)
N5 N 0.3770(2) 0.68958(14) 0.3736(2)
O13 O 0.15688(17) 0.64749(11) 0.26181(19)
C10 C 0.0738(3) 0.51517(15) 0.3270(3)
H6 H 0.1272 0.4922 0.3319
C11 C 0.0764(2) 0.57173(14) 0.3058(3)
C14 C 0.1633(3) 0.59597(16) 0.2900(3)
C30 C 0.0277(3) 0.14655(15) 0.7668(3)
H18 H 0.0736 0.1188 0.7960
C31 C 0.0155(2) 0.19351(14) 0.8160(2)
C34 C 0.1430(3) 0.17232(18) 0.9667(3)
N2 N 0.0664(2) 0.20360(13) 0.9099(2)
H29 H 0.0457 0.2324 0.9297
O5 O 0.2391(2) 0.56844(12) 0.3042(2)
O11 O 0.1747(3) 0.13042(15) 0.9407(2)
C35 C 0.8118(3) 0.80653(16) 0.9361(3)
C36 C 0.8640(3) 0.77932(16) 0.8890(3)
H21 H 0.9301 0.7710 0.9191
C37 C 0.8180(3) 0.76445(16) 0.7975(3)
H22 H 0.8542 0.7477 0.7654
C38 C 0.7186(3) 0.77411(16) 0.7527(3)
C39 C 0.6674(3) 0.8009(2) 0.7999(3)
H23 H 0.6006 0.8076 0.7708
C40 C 0.7140(3) 0.8180(2) 0.8904(3)
H24 H 0.6789 0.8375 0.9207
C41 C 0.6708(3) 0.75719(16) 0.6541(3)
C42 C 0.5118(3) 0.72285(18) 0.5447(3)
C43 C 0.5182(3) 0.7425(2) 0.4628(3)
H25 H 0.5687 0.7669 0.4635
C44 C 0.4497(3) 0.7258(2) 0.3814(3)
H26 H 0.4538 0.7407 0.3272
C45 C 0.3692(3) 0.6731(2) 0.4529(3)
H27 H 0.3167 0.6497 0.4500
C46 C 0.4328(3) 0.6881(2) 0.5378(3)
H28 H 0.4234 0.6753 0.5910
N3 N 0.5757(2) 0.73788(15) 0.6317(2)
H30 H 0.5584 0.7209 0.6822
O12 O 0.7119(2) 0.75993(14) 0.5986(2)
C8 C 0.0864(3) 0.02574(14) 0.1677(3)
C12 C 0.0039(3) 0.10521(14) 0.2008(3)
H7 H 0.0030 0.1436 0.2145
C13 C 0.0847(3) 0.08295(15) 0.1875(3)
H8 H 0.1379 0.1060 0.1918
O3 O 0.1717(2) 0.00675(10) 0.1563(2)
H4 H 0.1445 0.8500 0.9971
H11 H 0.5532 0.5623 0.9518
H12 H 0.4130 0.6040 0.9599
C29 C 0.0285(3) 0.64163(15) 0.8247(3)
H17 H 0.0201 0.6095 0.8561
C32 C 0.0526(2) 0.73440(15) 0.7329(3)
H19 H 0.0623 0.7670 0.7032
C33 C 0.1048(2) 0.72607(15) 0.8249(3)
H20 H 0.1497 0.7538 0.8564
N1 N 0.09485(19) 0.68022(12) 0.8722(2)
C10_2 C 0.9262(3) 0.01517(15) 0.1730(3)
C11_2 C 0.9236(2) 0.07173(14) 0.1942(3)
C14_2 C 0.8367(3) 0.09597(16) 0.2100(3)
O4 O 0.84312(17) 0.14749(11) 0.23819(19)
O5_2 O 0.7609(2) 0.06844(12) 0.1958(2)
Zn3 Zn 0.71979(3) 0.165787(17) 0.25179(3)
C1_2 C 0.7751(2) 0.27236(15) 0.3760(3)
C2_2 C 0.7861(2) 0.33448(14) 0.3670(3)
C3_2 C 0.7540(3) 0.36031(15) 0.2814(3)
H1_2 H 0.7215 0.3389 0.2289
C4_2 C 0.7695(3) 0.41771(17) 0.2726(3)
H2_2 H 0.7481 0.4350 0.2147
C5_2 C 0.8177(3) 0.44863(15) 0.3522(4)
C6_2 C 0.8504(3) 0.42382(18) 0.4366(4)
H3_2 H 0.8837 0.4452 0.4889
C7_2 C 0.8341(3) 0.36687(17) 0.4447(3)
H4_2 H 0.8555 0.3500 0.5029
C8_2 C 0.9136(3) 0.52574(14) 0.3323(3)
C9_2 C 0.9930(3) 0.49170(15) 0.3413(3)
H5_2 H 0.9927 0.4536 0.3568
C12_2 C 0.9961(3) 0.60521(14) 0.2992(3)
H7_2 H 0.9970 0.6436 0.2855
C13_2 C 0.9153(3) 0.58295(15) 0.3125(3)
H8_2 H 0.8621 0.6060 0.3082
C15_2 C 0.6406(2) 0.12367(15) 0.3948(3)
C16_2 C 0.5504(2) 0.09764(15) 0.4021(3)
C17_2 C 0.4771(3) 0.07829(17) 0.3238(3)
H9_2 H 0.4841 0.0824 0.2666
C18_2 C 0.3938(3) 0.05301(18) 0.3279(4)
H10_2 H 0.3452 0.0398 0.2745
C19_2 C 0.3843(3) 0.04769(17) 0.4119(4)
C20_2 C 0.4549(3) 0.06635(19) 0.4915(4)
H11_2 H 0.4468 0.0623 0.5482
C21_2 C 0.5384(3) 0.09132(18) 0.4863(3)
H12_2 H 0.5870 0.1040 0.5401
C22_2 C 0.2258(3) 0.05111(16) 0.4247(3)
C23_2 C 0.1471(3) 0.02121(16) 0.4299(3)
C24_2 C 0.0687(3) 0.05066(17) 0.4372(3)
H14_2 H 0.0148 0.0306 0.4399
C25_2 C 0.0680(2) 0.10922(15) 0.4408(3)
C26_2 C 0.1479(2) 0.13797(16) 0.4355(3)
H15_2 H 0.1484 0.1774 0.4371
C27_2 C 0.2272(3) 0.10933(17) 0.4278(3)
H16_2 H 0.2811 0.1293 0.4249
C29_2 C 0.9715(3) 0.14163(15) 0.6753(3)
H17_2 H 0.9799 0.1095 0.6439
C32_2 C 0.9474(2) 0.23440(15) 0.7671(3)
H19_2 H 0.9377 0.2670 0.7968
C33_2 C 0.8952(2) 0.22607(15) 0.6751(3)
H20_2 H 0.8503 0.2538 0.6436
N1_2 N 0.90515(19) 0.18022(12) 0.6278(2)
O1_2 O 0.74054(19) 0.24434(10) 0.30257(19)
O2_2 O 0.80198(19) 0.25190(10) 0.45594(19)
O3_2 O 0.8283(2) 0.50675(10) 0.3437(2)
O6_2 O 0.64302(19) 0.12999(12) 0.3154(2)
O7_2 O 0.70765(17) 0.13675(12) 0.4694(2)
O8_2 O 0.3015(2) 0.01893(11) 0.4167(3)
Zn2 Zn 0.83521(3) 0.172541(16) 0.48932(3)
N5_2 N 0.6230(2) 0.18958(14) 0.1264(2)
O14 O 0.98641(17) 0.19350(11) 0.45716(18)
O15 O 0.91181(16) 0.11288(11) 0.45651(18)
C28_2 C 0.9843(2) 0.14072(17) 0.4511(2)
C43_2 C 0.4818(3) 0.2425(2) 0.0372(3)
H25_2 H 0.4313 0.2669 0.0365
C44_2 C 0.5503(3) 0.2258(2) 0.1186(3)
H26_2 H 0.5462 0.2407 0.1728
C45_2 C 0.6308(3) 0.1731(2) 0.0471(3)
H27_2 H 0.6833 0.1497 0.0500
H6_2 H 0.8728 0.9922 0.1681
C30_2 C 0.9723(3) 0.64655(15) 0.7332(3)
H18_2 H 0.9264 0.6188 0.7040
C31_2 C 0.9845(2) 0.69351(14) 0.6840(2)
C34_2 C 0.8570(3) 0.67232(18) 0.5333(3)
C35_2 C 0.8118(3) 0.69347(16) 0.4361(3)
C36_2 C 0.8640(3) 0.72068(16) 0.3890(3)
H21_2 H 0.9301 0.7290 0.4191
C37_2 C 0.8180(3) 0.73555(16) 0.2975(3)
H22_2 H 0.8542 0.7523 0.2654
C38_2 C 0.7186(3) 0.72589(16) 0.2527(3)
C39_2 C 0.6674(3) 0.6991(2) 0.2999(3)
H23_2 H 0.6006 0.6924 0.2708
C40_2 C 0.7140(3) 0.6820(2) 0.3904(3)
H24_2 H 0.6789 0.6625 0.4207
C41_2 C 0.6708(3) 0.74281(16) 0.1541(3)
C42_2 C 0.5118(3) 0.77715(18) 0.0447(3)
C46_2 C 0.4328(3) 0.8119(2) 0.0378(3)
H28_2 H 0.4234 0.8247 0.0910
N2_2 N 0.9336(2) 0.70360(13) 0.5901(2)
H29_2 H 0.9543 0.7324 0.5703
N3_2 N 0.5757(2) 0.76212(15) 0.1317(2)
H30_2 H 0.5584 0.7791 0.1822
O11_2 O 0.8253(3) 0.63042(15) 0.5593(2)
O12_2 O 0.7119(2) 0.74007(14) 0.0986(2)
C43_3 C 0.5182(3) 0.7575(2) 0.9628(3)
H25_3 H 0.5687 0.7331 0.9635
C44_3 C 0.4497(3) 0.7742(2) 0.8814(3)
H26_3 H 0.4538 0.7593 0.8272
C45_3 C 0.3692(3) 0.8269(2) 0.9529(3)
H27_3 H 0.3167 0.8503 0.9500
N4 N 0.3770(2) 0.81042(14) 0.8736(2)
Zn4 Zn 0.28021(3) 0.834213(17) 0.74821(3)
C10_3 C 0.0738(3) 0.98483(15) 0.8270(3)
C11_3 C 0.0764(2) 0.92827(14) 0.8058(3)
C14_3 C 0.1633(3) 0.90403(16) 0.7900(3)
O4_2 O 0.15688(17) 0.85251(11) 0.76181(19)
O5_3 O 0.2391(2) 0.93156(12) 0.8042(2)
C28_3 C 0.0157(2) 0.85928(17) 0.5489(2)
O9_2 O 0.01359(17) 0.80650(11) 0.54284(18)
O10_2 O 0.08819(16) 0.88712(11) 0.54349(18)
Zn5_2 Zn 0.16479(3) 0.827459(16) 0.51068(3)
C1_3 C 0.2249(2) 0.72764(15) 0.6240(3)
C2_3 C 0.2139(2) 0.66552(14) 0.6330(3)
C3_3 C 0.2460(3) 0.63969(15) 0.7186(3)
H1_3 H 0.2785 0.6611 0.7711
C4_3 C 0.2305(3) 0.58229(17) 0.7274(3)
H2_3 H 0.2519 0.5650 0.7853
C5_3 C 0.1823(3) 0.55137(15) 0.6478(4)
C6_3 C 0.1496(3) 0.57618(18) 0.5634(4)
H3_3 H 0.1163 0.5548 0.5111
C7_3 C 0.1659(3) 0.63313(17) 0.5553(3)
H4_3 H 0.1445 0.6500 0.4971
C8_3 C 0.0864(3) 0.47426(14) 0.6677(3)
C9_3 C 0.0070(3) 0.50830(15) 0.6587(3)
H5_3 H 0.0073 0.5464 0.6432
C12_3 C 0.0039(3) 0.39479(14) 0.7008(3)
H7_3 H 0.0030 0.3564 0.7145
C13_3 C 0.0847(3) 0.41705(15) 0.6875(3)
H8_3 H 0.1379 0.3940 0.6918
C15_3 C 0.3594(2) 0.87633(15) 0.6052(3)
C16_3 C 0.4496(2) 0.90236(15) 0.5979(3)
C17_3 C 0.5229(3) 0.92171(17) 0.6762(3)
H9_3 H 0.5159 0.9176 0.7334
C18_3 C 0.6062(3) 0.94699(18) 0.6721(4)
H10_3 H 0.6548 0.9602 0.7255
C19_3 C 0.6157(3) 0.95231(17) 0.5881(4)
C20_3 C 0.5451(3) 0.93365(19) 0.5085(4)
H11_3 H 0.5532 0.9377 0.4518
C21_3 C 0.4616(3) 0.90868(18) 0.5137(3)
H12_3 H 0.4130 0.8960 0.4599
C22_3 C 0.7742(3) 0.94889(16) 0.5753(3)
C23_3 C 0.8529(3) 0.97879(16) 0.5701(3)
C24_3 C 0.9313(3) 0.94934(17) 0.5628(3)
H14_3 H 0.9852 0.9694 0.5601
C25_3 C 0.9320(2) 0.89078(15) 0.5592(3)
C26_3 C 0.8521(2) 0.86203(16) 0.5645(3)
H15_3 H 0.8516 0.8226 0.5629
C27_3 C 0.7728(3) 0.89067(17) 0.5722(3)
H16_3 H 0.7189 0.8707 0.5751
C29_3 C 0.0285(3) 0.85837(15) 0.3247(3)
H17_3 H 0.0201 0.8905 0.3561
C32_3 C 0.0526(2) 0.76560(15) 0.2329(3)
H19_3 H 0.0623 0.7330 0.2032
C33_3 C 0.1048(2) 0.77393(15) 0.3249(3)
H20_3 H 0.1497 0.7462 0.3564
N1_3 N 0.09485(19) 0.81978(12) 0.3722(2)
O1_3 O 0.25946(19) 0.75566(10) 0.69743(19)
O2_3 O 0.19802(19) 0.74810(10) 0.54406(19)
O3_3 O 0.1717(2) 0.49325(10) 0.6563(2)
O6_3 O 0.35698(19) 0.87001(12) 0.6846(2)
O7_3 O 0.29235(17) 0.86325(12) 0.5306(2)
O8_3 O 0.6985(2) 0.98107(11) 0.5833(3)
C35_3 C 0.1882(3) 0.19347(16) 0.0639(3)
C36_3 C 0.1360(3) 0.22068(16) 0.1110(3)
H21_3 H 0.0699 0.2290 0.0809
C37_3 C 0.1820(3) 0.23555(16) 0.2025(3)
H22_3 H 0.1458 0.2523 0.2346
C38_3 C 0.2814(3) 0.22589(16) 0.2473(3)
C39_3 C 0.3326(3) 0.1991(2) 0.2001(3)
H23_3 H 0.3994 0.1924 0.2292
C40_3 C 0.2860(3) 0.1820(2) 0.1096(3)
H24_3 H 0.3211 0.1625 0.0793
C41_3 C 0.3292(3) 0.24281(16) 0.3459(3)
C42_3 C 0.4882(3) 0.27715(18) 0.4553(3)
C43_4 C 0.4818(3) 0.2575(2) 0.5372(3)
H25_4 H 0.4313 0.2331 0.5365
C44_4 C 0.5503(3) 0.2742(2) 0.6186(3)
H26_4 H 0.5462 0.2593 0.6728
C45_4 C 0.6308(3) 0.3269(2) 0.5471(3)
H27_4 H 0.6833 0.3503 0.5500
C46_3 C 0.5672(3) 0.3119(2) 0.4622(3)
H28_3 H 0.5766 0.3247 0.4090
N3_3 N 0.4243(2) 0.26212(15) 0.3683(2)
H30_3 H 0.4416 0.2791 0.3178
N4_2 N 0.6230(2) 0.31042(14) 0.6264(2)
O12_3 O 0.2881(2) 0.24007(14) 0.4014(2)
Zn4_2 Zn 0.71979(3) 0.334213(17) 0.75179(3)
C1_4 C 0.7751(2) 0.22764(15) 0.8760(3)
C2_4 C 0.7861(2) 0.16552(14) 0.8670(3)
C3_4 C 0.7540(3) 0.13969(15) 0.7814(3)
H1_4 H 0.7215 0.1611 0.7289
C4_4 C 0.7695(3) 0.08229(17) 0.7726(3)
H2_4 H 0.7481 0.0650 0.7147
C5_4 C 0.8177(3) 0.05137(15) 0.8522(4)
C6_4 C 0.8504(3) 0.07618(18) 0.9366(4)
H3_4 H 0.8837 0.0548 0.9889
C7_4 C 0.8341(3) 0.13313(17) 0.9447(3)
C9_4 C 0.9930(3) 0.00830(15) 0.8413(3)
H5_4 H 0.9927 0.0464 0.8568
C15_4 C 0.6406(2) 0.37633(15) 0.8948(3)
C16_4 C 0.5504(2) 0.40236(15) 0.9021(3)
C17_4 C 0.4771(3) 0.42171(17) 0.8238(3)
H9_4 H 0.4841 0.4176 0.7666
C18_4 C 0.3938(3) 0.44699(18) 0.8279(4)
H10_4 H 0.3452 0.4602 0.7745
C19_4 C 0.3843(3) 0.45231(17) 0.9119(4)
C20_4 C 0.4549(3) 0.43365(19) 0.9915(4)
C21_4 C 0.5384(3) 0.40868(18) 0.9863(3)
C22_4 C 0.2258(3) 0.44889(16) 0.9247(3)
C23_4 C 0.1471(3) 0.47879(16) 0.9299(3)
H13_2 H 0.1467 0.5183 0.9284
C24_4 C 0.0687(3) 0.44934(17) 0.9372(3)
H14_4 H 0.0148 0.4694 0.9399
C25_4 C 0.0680(2) 0.39078(15) 0.9408(3)
C26_4 C 0.1479(2) 0.36203(16) 0.9355(3)
H15_4 H 0.1484 0.3226 0.9371
C27_4 C 0.2272(3) 0.39067(17) 0.9278(3)
H16_4 H 0.2811 0.3707 0.9249
O1_4 O 0.74054(19) 0.25566(10) 0.80257(19)
O2_4 O 0.80198(19) 0.24810(10) 0.95594(19)
O6_4 O 0.64302(19) 0.37001(12) 0.8154(2)
O7_4 O 0.70765(17) 0.36325(12) 0.9694(2)
O8_4 O 0.3015(2) 0.48107(11) 0.9167(3)
Zn2_2 Zn 0.83521(3) 0.327459(16) 0.98932(3)
O13_2 O 0.84312(17) 0.35251(11) 0.73819(19)
O14_2 O 0.98641(17) 0.30650(11) 0.95716(18)
O15_2 O 0.91181(16) 0.38712(11) 0.95651(18)
C28_4 C 0.9843(2) 0.35928(17) 0.9511(2)
C10_4 C 0.9262(3) 0.48483(15) 0.6730(3)
H6_3 H 0.8728 0.5078 0.6681
C11_4 C 0.9236(2) 0.42827(14) 0.6942(3)
C14_4 C 0.8367(3) 0.40403(16) 0.7100(3)
C30_3 C 0.9723(3) 0.85345(15) 0.2332(3)
H18_3 H 0.9264 0.8812 0.2040
C31_3 C 0.9845(2) 0.80649(14) 0.1840(2)
C34_3 C 0.8570(3) 0.82768(18) 0.0333(3)
N2_3 N 0.9336(2) 0.79640(13) 0.0901(2)
H29_3 H 0.9543 0.7676 0.0703
O5_4 O 0.7609(2) 0.43156(12) 0.6958(2)
O11_3 O 0.8253(3) 0.86958(15) 0.0593(2)
H13_3 H 0.1467 0.9817 0.4284
C30_4 C 0.0277(3) 0.35345(15) 0.2668(3)
H18_4 H 0.0736 0.3812 0.2960
C31_4 C 0.0155(2) 0.30649(14) 0.3160(2)
C34_4 C 0.1430(3) 0.32768(18) 0.4667(3)
C35_4 C 0.1882(3) 0.30653(16) 0.5639(3)
C36_4 C 0.1360(3) 0.27932(16) 0.6110(3)
H21_4 H 0.0699 0.2710 0.5809
C37_4 C 0.1820(3) 0.26445(16) 0.7025(3)
H22_4 H 0.1458 0.2477 0.7346
C38_4 C 0.2814(3) 0.27411(16) 0.7473(3)
C39_4 C 0.3326(3) 0.3009(2) 0.7001(3)
H23_4 H 0.3994 0.3076 0.7292
C40_4 C 0.2860(3) 0.3180(2) 0.6096(3)
H24_4 H 0.3211 0.3375 0.5793
C41_4 C 0.3292(3) 0.25719(16) 0.8459(3)
C42_4 C 0.4882(3) 0.22285(18) 0.9553(3)
C46_4 C 0.5672(3) 0.1881(2) 0.9622(3)
H28_4 H 0.5766 0.1753 0.9090
N2_4 N 0.0664(2) 0.29640(13) 0.4099(2)
H29_4 H 0.0457 0.2676 0.4297
N3_4 N 0.4243(2) 0.23788(15) 0.8683(2)
H30_4 H 0.4416 0.2209 0.8178
O11_4 O 0.1747(3) 0.36958(15) 0.4407(2)
O12_4 O 0.2881(2) 0.25993(14) 0.9014(2)
H6_4 H 0.1272 0.0078 0.8319
H4_4 H 0.8555 0.1500 0.0029
H11_4 H 0.4468 0.4377 0.0482
H12_4 H 0.5870 0.3960 0.0401
C29_4 C 0.9715(3) 0.35837(15) 0.1753(3)
H17_4 H 0.9799 0.3905 0.1439
C32_4 C 0.9474(2) 0.26560(15) 0.2671(3)
H19_4 H 0.9377 0.2330 0.2968
C33_4 C 0.8952(2) 0.27393(15) 0.1751(3)
H20_4 H 0.8503 0.2462 0.1436
N1_4 N 0.90515(19) 0.31978(12) 0.1278(2)
C8_4 C 0.9136(3) 0.97426(14) 0.8323(3)
C12_4 C 0.9961(3) 0.89479(14) 0.7992(3)
H7_4 H 0.9970 0.8564 0.7855
C13_4 C 0.9153(3) 0.91705(15) 0.8125(3)
H8_4 H 0.8621 0.8940 0.8082
O3_4 O 0.8283(2) 0.99325(10) 0.8437(2)
H13_4 H 0.8533 0.0183 0.5716
loop_
_geom_bond_atom_site_label_1
_geom_bond_atom_site_label_2
_geom_bond_site_symmetry_1
_geom_bond_site_symmetry_2
O9 C28 1_555 1_555
O10 C28 1_555 1_555
Zn5 O9 1_555 1_555
O10 Zn5 1_555 1_555
C1 C2 1_555 1_555
C2 C3 1_555 1_555
C3 H1 1_555 1_555
C4 C3 1_555 1_555
H2 C4 1_555 1_555
C5 C4 1_555 1_555
C6 C5 1_555 1_555
H3 C6 1_555 1_555
C7 C2 1_555 1_555
C9 H5 1_555 1_555
C15 C16 1_555 1_555
C16 C17 1_555 1_555
C17 H9 1_555 1_555
C18 C17 1_555 1_555
H10 C18 1_555 1_555
C19 C18 1_555 1_555
C20 C19 1_555 1_555
C21 C16 1_555 1_555
C22 C23 1_555 1_555
C23 H13 1_555 1_555
C24 C23 1_555 1_555
H14 C24 1_555 1_555
C25 C24 1_555 1_555
C26 C25 1_555 1_555
H15 C26 1_555 1_555
C27 C22 1_555 1_555
H16 C27 1_555 1_555
O1 C1 1_555 1_555
O2 C1 1_555 1_555
O6 C15 1_555 1_555
O7 C15 1_555 1_555
O8 C19 1_555 1_555
Zn1 O1 1_555 1_555
N5 Zn1 1_555 1_555
O13 Zn1 1_555 1_555
C6 C7 1_555 1_555
C20 C21 1_555 1_555
C22 O8 1_555 1_555
C26 C27 1_555 1_555
O2 Zn5 1_555 1_555
O6 Zn1 1_555 1_555
O7 Zn5 1_555 1_555
H6 C10 1_555 1_555
C11 C10 1_555 1_555
C14 C11 1_555 1_555
H18 C30 1_555 1_555
C31 C30 1_555 1_555
N2 C31 1_555 1_555
H29 N2 1_555 1_555
O13 C14 1_555 1_555
O5 C14 1_555 1_555
O11 C34 1_555 1_555
C34 N2 1_555 1_555
C35 C36 1_555 1_555
C36 H21 1_555 1_555
C37 C36 1_555 1_555
H22 C37 1_555 1_555
C38 C37 1_555 1_555
C39 C38 1_555 1_555
H23 C39 1_555 1_555
C40 C35 1_555 1_555
H24 C40 1_555 1_555
C41 C38 1_555 1_555
C42 C43 1_555 1_555
C43 H25 1_555 1_555
C44 C43 1_555 1_555
H26 C44 1_555 1_555
C45 H27 1_555 1_555
C46 C42 1_555 1_555
H28 C46 1_555 1_555
N3 C41 1_555 1_555
H30 N3 1_555 1_555
N5 C44 1_555 1_555
O12 C41 1_555 1_555
C39 C40 1_555 1_555
C42 N3 1_555 1_555
C45 C46 1_555 1_555
C45 N5 1_555 1_555
H7 C12 1_555 1_555
C13 C8 1_555 1_555
H8 C13 1_555 1_555
C8 O3 1_555 1_555
C12 C13 1_555 1_555
C29 H17 1_555 1_555
H19 C32 1_555 1_555
C33 C32 1_555 1_555
H20 C33 1_555 1_555
N1 C29 1_555 1_555
C33 N1 1_555 1_555
C11_2 C10_2 1_555 1_555
C14_2 C11_2 1_555 1_555
O4 C14_2 1_555 1_555
O5_2 C14_2 1_555 1_555
Zn3 O4 1_555 1_555
C1_2 C2_2 1_555 1_555
C2_2 C3_2 1_555 1_555
C3_2 H1_2 1_555 1_555
C4_2 C3_2 1_555 1_555
H2_2 C4_2 1_555 1_555
C5_2 C4_2 1_555 1_555
C6_2 C5_2 1_555 1_555
H3_2 C6_2 1_555 1_555
C7_2 C2_2 1_555 1_555
H4_2 C7_2 1_555 1_555
C8_2 C9_2 1_555 1_555
C9_2 H5_2 1_555 1_555
H7_2 C12_2 1_555 1_555
C13_2 C8_2 1_555 1_555
H8_2 C13_2 1_555 1_555
C15_2 C16_2 1_555 1_555
C16_2 C17_2 1_555 1_555
C17_2 H9_2 1_555 1_555
C18_2 C17_2 1_555 1_555
H10_2 C18_2 1_555 1_555
C19_2 C18_2 1_555 1_555
C20_2 C19_2 1_555 1_555
H11_2 C20_2 1_555 1_555
C21_2 C16_2 1_555 1_555
H12_2 C21_2 1_555 1_555
C22_2 C23_2 1_555 1_555
C24_2 C23_2 1_555 1_555
H14_2 C24_2 1_555 1_555
C25_2 C24_2 1_555 1_555
C26_2 C25_2 1_555 1_555
H15_2 C26_2 1_555 1_555
C27_2 C22_2 1_555 1_555
H16_2 C27_2 1_555 1_555
C29_2 H17_2 1_555 1_555
H19_2 C32_2 1_555 1_555
C33_2 C32_2 1_555 1_555
H20_2 C33_2 1_555 1_555
N1_2 C29_2 1_555 1_555
O1_2 C1_2 1_555 1_555
O2_2 C1_2 1_555 1_555
O3_2 C5_2 1_555 1_555
O6_2 C15_2 1_555 1_555
O7_2 C15_2 1_555 1_555
O8_2 C19_2 1_555 1_555
Zn3 O1_2 1_555 1_555
Zn2 N1_2 1_555 1_555
N5_2 Zn3 1_555 1_555
O14 Zn2 1_555 1_555
O15 Zn2 1_555 1_555
C6_2 C7_2 1_555 1_555
C8_2 O3_2 1_555 1_555
C12_2 C13_2 1_555 1_555
C20_2 C21_2 1_555 1_555
C22_2 O8_2 1_555 1_555
C26_2 C27_2 1_555 1_555
C33_2 N1_2 1_555 1_555
O2_2 Zn2 1_555 1_555
O6_2 Zn3 1_555 1_555
O7_2 Zn2 1_555 1_555
O14 C28_2 1_555 1_555
O15 C28_2 1_555 1_555
C43_2 H25_2 1_555 1_555
C44_2 C43_2 1_555 1_555
H26_2 C44_2 1_555 1_555
C45_2 H27_2 1_555 1_555
N5_2 C44_2 1_555 1_555
C45_2 N5_2 1_555 1_555
H18_2 C30_2 1_555 1_555
C31_2 C30_2 1_555 1_555
C34_2 C35_2 1_555 1_555
C35_2 C36_2 1_555 1_555
C36_2 H21_2 1_555 1_555
C37_2 C36_2 1_555 1_555
H22_2 C37_2 1_555 1_555
C38_2 C37_2 1_555 1_555
C39_2 C38_2 1_555 1_555
H23_2 C39_2 1_555 1_555
C40_2 C35_2 1_555 1_555
H24_2 C40_2 1_555 1_555
C41_2 C38_2 1_555 1_555
C46_2 C42_2 1_555 1_555
H28_2 C46_2 1_555 1_555
N2_2 C31_2 1_555 1_555
H29_2 N2_2 1_555 1_555
N3_2 C41_2 1_555 1_555
H30_2 N3_2 1_555 1_555
O11_2 C34_2 1_555 1_555
O12_2 C41_2 1_555 1_555
C34_2 N2_2 1_555 1_555
C39_2 C40_2 1_555 1_555
C42_2 N3_2 1_555 1_555
C43_3 H25_3 1_555 1_555
C44_3 C43_3 1_555 1_555
H26_3 C44_3 1_555 1_555
C45_3 H27_3 1_555 1_555
N4 C44_3 1_555 1_555
Zn4 N4 1_555 1_555
C45_3 N4 1_555 1_555
C11_3 C10_3 1_555 1_555
C14_3 C11_3 1_555 1_555
O4_2 C14_3 1_555 1_555
O5_3 C14_3 1_555 1_555
Zn4 O4_2 1_555 1_555
O9_2 C28_3 1_555 1_555
O10_2 C28_3 1_555 1_555
Zn5_2 O9_2 1_555 1_555
O10_2 Zn5_2 1_555 1_555
C1_3 C2_3 1_555 1_555
C2_3 C3_3 1_555 1_555
C3_3 H1_3 1_555 1_555
C4_3 C3_3 1_555 1_555
H2_3 C4_3 1_555 1_555
C5_3 C4_3 1_555 1_555
C6_3 C5_3 1_555 1_555
H3_3 C6_3 1_555 1_555
C7_3 C2_3 1_555 1_555
H4_3 C7_3 1_555 1_555
C8_3 C9_3 1_555 1_555
C9_3 H5_3 1_555 1_555
H7_3 C12_3 1_555 1_555
C13_3 C8_3 1_555 1_555
H8_3 C13_3 1_555 1_555
C15_3 C16_3 1_555 1_555
C16_3 C17_3 1_555 1_555
C17_3 H9_3 1_555 1_555
C18_3 C17_3 1_555 1_555
H10_3 C18_3 1_555 1_555
C19_3 C18_3 1_555 1_555
C20_3 C19_3 1_555 1_555
H11_3 C20_3 1_555 1_555
C21_3 C16_3 1_555 1_555
H12_3 C21_3 1_555 1_555
C22_3 C23_3 1_555 1_555
C24_3 C23_3 1_555 1_555
H14_3 C24_3 1_555 1_555
C25_3 C24_3 1_555 1_555
C26_3 C25_3 1_555 1_555
H15_3 C26_3 1_555 1_555
C27_3 C22_3 1_555 1_555
H16_3 C27_3 1_555 1_555
C29_3 H17_3 1_555 1_555
H19_3 C32_3 1_555 1_555
C33_3 C32_3 1_555 1_555
H20_3 C33_3 1_555 1_555
N1_3 C29_3 1_555 1_555
O1_3 C1_3 1_555 1_555
O2_3 C1_3 1_555 1_555
O3_3 C5_3 1_555 1_555
O6_3 C15_3 1_555 1_555
O7_3 C15_3 1_555 1_555
O8_3 C19_3 1_555 1_555
Zn4 O1_3 1_555 1_555
Zn5_2 N1_3 1_555 1_555
C6_3 C7_3 1_555 1_555
C8_3 O3_3 1_555 1_555
C12_3 C13_3 1_555 1_555
C20_3 C21_3 1_555 1_555
C22_3 O8_3 1_555 1_555
C26_3 C27_3 1_555 1_555
C33_3 N1_3 1_555 1_555
O2_3 Zn5_2 1_555 1_555
O6_3 Zn4 1_555 1_555
O7_3 Zn5_2 1_555 1_555
C35_3 C36_3 1_555 1_555
C36_3 H21_3 1_555 1_555
C37_3 C36_3 1_555 1_555
H22_3 C37_3 1_555 1_555
C38_3 C37_3 1_555 1_555
C39_3 C38_3 1_555 1_555
H23_3 C39_3 1_555 1_555
C40_3 C35_3 1_555 1_555
H24_3 C40_3 1_555 1_555
C41_3 C38_3 1_555 1_555
C42_3 C43_4 1_555 1_555
C43_4 H25_4 1_555 1_555
C44_4 C43_4 1_555 1_555
H26_4 C44_4 1_555 1_555
C45_4 H27_4 1_555 1_555
C46_3 C42_3 1_555 1_555
H28_3 C46_3 1_555 1_555
N3_3 C41_3 1_555 1_555
H30_3 N3_3 1_555 1_555
N4_2 C44_4 1_555 1_555
O12_3 C41_3 1_555 1_555
Zn4_2 N4_2 1_555 1_555
C39_3 C40_3 1_555 1_555
C42_3 N3_3 1_555 1_555
C45_4 C46_3 1_555 1_555
C45_4 N4_2 1_555 1_555
C1_4 C2_4 1_555 1_555
C2_4 C3_4 1_555 1_555
C3_4 H1_4 1_555 1_555
C4_4 C3_4 1_555 1_555
H2_4 C4_4 1_555 1_555
C5_4 C4_4 1_555 1_555
C6_4 C5_4 1_555 1_555
H3_4 C6_4 1_555 1_555
C7_4 C2_4 1_555 1_555
C9_4 H5_4 1_555 1_555
C15_4 C16_4 1_555 1_555
C16_4 C17_4 1_555 1_555
C17_4 H9_4 1_555 1_555
C18_4 C17_4 1_555 1_555
H10_4 C18_4 1_555 1_555
C19_4 C18_4 1_555 1_555
C20_4 C19_4 1_555 1_555
C21_4 C16_4 1_555 1_555
C22_4 C23_4 1_555 1_555
C23_4 H13_2 1_555 1_555
C24_4 C23_4 1_555 1_555
H14_4 C24_4 1_555 1_555
C25_4 C24_4 1_555 1_555
C26_4 C25_4 1_555 1_555
H15_4 C26_4 1_555 1_555
C27_4 C22_4 1_555 1_555
H16_4 C27_4 1_555 1_555
O1_4 C1_4 1_555 1_555
O2_4 C1_4 1_555 1_555
O6_4 C15_4 1_555 1_555
O7_4 C15_4 1_555 1_555
O8_4 C19_4 1_555 1_555
Zn4_2 O1_4 1_555 1_555
O13_2 Zn4_2 1_555 1_555
O14_2 Zn2_2 1_555 1_555
O15_2 Zn2_2 1_555 1_555
C6_4 C7_4 1_555 1_555
C20_4 C21_4 1_555 1_555
C22_4 O8_4 1_555 1_555
C26_4 C27_4 1_555 1_555
O2_4 Zn2_2 1_555 1_555
O6_4 Zn4_2 1_555 1_555
O7_4 Zn2_2 1_555 1_555
O14_2 C28_4 1_555 1_555
O15_2 C28_4 1_555 1_555
H6_3 C10_4 1_555 1_555
C11_4 C10_4 1_555 1_555
C14_4 C11_4 1_555 1_555
H18_3 C30_3 1_555 1_555
C31_3 C30_3 1_555 1_555
N2_3 C31_3 1_555 1_555
H29_3 N2_3 1_555 1_555
O13_2 C14_4 1_555 1_555
O5_4 C14_4 1_555 1_555
O11_3 C34_3 1_555 1_555
C34_3 N2_3 1_555 1_555
H18_4 C30_4 1_555 1_555
C31_4 C30_4 1_555 1_555
C34_4 C35_4 1_555 1_555
C35_4 C36_4 1_555 1_555
C36_4 H21_4 1_555 1_555
C37_4 C36_4 1_555 1_555
H22_4 C37_4 1_555 1_555
C38_4 C37_4 1_555 1_555
C39_4 C38_4 1_555 1_555
H23_4 C39_4 1_555 1_555
C40_4 C35_4 1_555 1_555
H24_4 C40_4 1_555 1_555
C41_4 C38_4 1_555 1_555
C46_4 C42_4 1_555 1_555
H28_4 C46_4 1_555 1_555
N2_4 C31_4 1_555 1_555
H29_4 N2_4 1_555 1_555
N3_4 C41_4 1_555 1_555
H30_4 N3_4 1_555 1_555
O11_4 C34_4 1_555 1_555
O12_4 C41_4 1_555 1_555
C34_4 N2_4 1_555 1_555
C39_4 C40_4 1_555 1_555
C42_4 N3_4 1_555 1_555
C29_4 H17_4 1_555 1_555
H19_4 C32_4 1_555 1_555
C33_4 C32_4 1_555 1_555
H20_4 C33_4 1_555 1_555
N1_4 C29_4 1_555 1_555
C33_4 N1_4 1_555 1_555
H7_4 C12_4 1_555 1_555
C13_4 C8_4 1_555 1_555
H8_4 C13_4 1_555 1_555
C8_4 O3_4 1_555 1_555
C12_4 C13_4 1_555 1_555

#END
