
###############################################################################
#
# This file contains modified crystal structure data generated from the
# MOF subset of the Cambridge Structural Database (CSD) v543 
# hosted by the Cambridge Crystallographic Data Centre (CCDC).
#
# This work is licensed under the Creative Commons
# Attribution-NonCommercial-ShareAlike 4.0 International License.
# To view a copy of this license, visit
# http://creativecommons.org/licenses/by-nc-sa/4.0/
# or send a letter to
# Creative Commons, PO Box 1866, Mountain View, CA 94042, USA.
#
# CIF created using the CSD Python API on 29 September 2022
# The structure has been converted into the P1 space group
# The structure has a 3D framework
# The original CSD entry LUSYEF is in the rhombohedral crystal system
# The framework has been calculated to contain at least 10.0% void space
# The void calculation uses a probe of radius 1.32A, grid spacing 0.4
# H atom positions have been added when not included in the experimental data
# Generated hydrogen atom positions removed from atoms on special positions
#
###############################################################################

data_LUSYEF
_chemical_formula_moiety         '(C234 H216 Cu18 O78)n'
_symmetry_cell_setting           triclinic
_symmetry_space_group_name_H-M   'P 1'
_symmetry_Int_Tables_number      1
_space_group_name_Hall           'P 1'
loop_
_symmetry_equiv_pos_site_id
_symmetry_equiv_pos_as_xyz
1 x,y,z
_cell_length_a                   18.4284(17)
_cell_length_b                   18.4284(17)
_cell_length_c                   40.081(3)
_cell_angle_alpha                90
_cell_angle_beta                 90
_cell_angle_gamma                120
_cell_volume                     11788.1
loop_
_atom_site_label
_atom_site_type_symbol
_atom_site_fract_x
_atom_site_fract_y
_atom_site_fract_z
Cu1 Cu 0.04881(5) 0.52441(3) 0.02667(2)
O1 O 0.1319(5) 0.5659(2) 0.06878(18)
O4 O 0.0779(4) 0.7721(3) 0.29028(10)
O5 O 0.0382(4) 0.8133(3) 0.33526(9)
C20 C 0.0260(5) 0.7829(4) 0.30647(13)
Cu6 Cu 0.14226(3) 0.85773(6) 0.36000(2)
Cu7 Cu 0.19107(6) 0.80892(3) 0.30666(2)
O14 O 0.1085(2) 0.6285(4) 0.00193(9)
O15 O 0.1085(2) 0.4800(3) 0.00193(9)
C1 C 0.8228(3) 0.6457(6) 0.1514(2)
O2 O 0.9724(3) 0.5612(3) 0.04305(10)
C2 C 0.8433(4) 0.6865(7) 0.1216(2)
C3 C 0.8746(4) 0.6196(4) 0.07318(15)
H1 H 0.9245 0.6320 0.0837
C4 C 0.8858(5) 0.7715(9) 0.1208(4)
H2 H 0.9002 0.8004 0.1007
C5 C 0.9078(5) 0.8155(9) 0.1521(4)
H3 H 0.9369 0.8738 0.1522
C6 C 0.7795(3) 0.5591(5) 0.02741(18)
H4 H 0.7660 0.5320 0.0069
C7 C 0.8550(3) 0.5786(4) 0.04223(13)
C8 C 0.7797(5) 0.5593(10) 0.1521(3)
H5 H 0.7647 0.5295 0.1322
C9 C 0.8209(3) 0.6418(6) 0.0882(2)
C10 C 0.9097(3) 0.5504(4) 0.02686(13)
C11 C 0.8438(7) 0.6876(6) 0.1819(2)
C12 C 0.8235(8) 0.6468(7) 0.2117(2)
C13 C 0.9217(6) 0.7137(4) 0.26015(15)
H6 H 0.9592 0.7013 0.2496
C14 C 0.7810(10) 0.5618(9) 0.2125(4)
H7 H 0.7665 0.5329 0.2326
C15 C 0.7590(10) 0.5178(9) 0.1812(4)
H8 H 0.7298 0.4595 0.1811
C16 C 0.8871(6) 0.7742(5) 0.30592(18)
H9 H 0.9007 0.8013 0.3264
C17 C 0.9431(5) 0.7547(4) 0.29110(13)
C18 C 0.8871(11) 0.7740(10) 0.1812(3)
H10 H 0.9019 0.8038 0.2011
C19 C 0.8458(7) 0.6915(6) 0.2451(2)
O6 O 0.5888(4) 0.5612(3) 0.04305(10)
C21 C 0.7450(6) 0.6196(4) 0.07318(15)
H11 H 0.7075 0.6320 0.0837
C22 C 0.7236(5) 0.5786(4) 0.04223(13)
C23 C 0.6407(5) 0.5504(4) 0.02686(13)
O8 O 0.6943(3) 0.7721(3) 0.29028(10)
O9 O 0.7752(2) 0.8133(3) 0.33526(9)
C24 C 0.7921(4) 0.7137(4) 0.26015(15)
H12 H 0.7422 0.7013 0.2496
C25 C 0.8117(3) 0.7547(4) 0.29110(13)
C26 C 0.7570(3) 0.7829(4) 0.30647(13)
Cu2 Cu 0.47559(3) 0.52440(6) 0.02667(2)
O10 O 0.4341(2) 0.5660(5) 0.06878(18)
Cu5 Cu 0.71548(5) 0.85774(3) 0.36000(2)
Cu8 Cu 0.61786(5) 0.80893(6) 0.30666(2)
O11 O 0.4388(3) 0.4112(4) 0.04305(10)
O12 O 0.9724(3) 0.4112(4) 0.04305(10)
O13 O 0.3715(4) 0.4800(3) 0.00193(9)
O16 O 0.5200(3) 0.6285(4) 0.00193(9)
O3 O 0.8915(2) 0.5200(3) 0.99807(9)
O7 O 0.6285(4) 0.5200(3) 0.99807(9)
Cu3 Cu 0.52440(6) 0.47559(3) 0.97333(2)
Cu4 Cu 0.95119(5) 0.47560(6) 0.97333(2)
C1_2 C 0.3543(6) 0.1771(7) 0.1514(2)
C2_2 C 0.3135(7) 0.1568(8) 0.1216(2)
C3_2 C 0.3804(4) 0.2550(6) 0.07318(15)
H1_2 H 0.3680 0.2925 0.0837
C4_2 C 0.2285(9) 0.1143(10) 0.1208(4)
H2_2 H 0.1996 0.0998 0.1007
C5_2 C 0.1845(9) 0.0923(10) 0.1521(4)
H3_2 H 0.1262 0.0631 0.1522
C6_2 C 0.4409(5) 0.2204(6) 0.02741(18)
H4_2 H 0.4680 0.2340 0.0069
C7_2 C 0.4214(4) 0.2764(5) 0.04223(13)
C8_2 C 0.4407(10) 0.2204(11) 0.1521(3)
H5_2 H 0.4705 0.2352 0.1322
C9_2 C 0.3582(6) 0.1791(7) 0.0882(2)
C10_2 C 0.4496(4) 0.3593(5) 0.02686(13)
C11_2 C 0.3124(6) 0.1561(9) 0.1819(2)
O4_2 O 0.2279(3) 0.3057(5) 0.29028(10)
O5_2 O 0.1867(3) 0.2248(5) 0.33526(9)
C12_2 C 0.3532(7) 0.1766(11) 0.2117(2)
C13_2 C 0.2863(4) 0.2079(7) 0.26015(15)
H6_2 H 0.2987 0.2578 0.2496
C14_2 C 0.4382(9) 0.2191(13) 0.2125(4)
H7_2 H 0.4671 0.2335 0.2326
C15_2 C 0.4822(9) 0.2411(13) 0.1812(4)
H8_2 H 0.5405 0.2702 0.1811
C16_2 C 0.2258(5) 0.1128(8) 0.30592(18)
H9_2 H 0.1987 0.0993 0.3264
C17_2 C 0.2453(4) 0.1883(6) 0.29110(13)
C18_2 C 0.2260(10) 0.1130(15) 0.1812(3)
H10_2 H 0.1962 0.0980 0.2011
C19_2 C 0.3085(6) 0.1542(9) 0.2451(2)
C20_2 C 0.2171(4) 0.2430(6) 0.30647(13)
O6_2 O 0.4388(3) 0.0276(5) 0.04305(10)
C21_2 C 0.3804(4) 0.1254(7) 0.07318(15)
H11_2 H 0.3680 0.0755 0.0837
C22_2 C 0.4214(4) 0.1450(6) 0.04223(13)
C23_2 C 0.4496(4) 0.0903(6) 0.02686(13)
C24_2 C 0.2863(4) 0.0783(6) 0.26015(15)
H12_2 H 0.2987 0.0408 0.2496
C25_2 C 0.2453(4) 0.0569(5) 0.29110(13)
Cu6_2 Cu 0.14227(6) 0.28452(7) 0.36000(2)
Cu7_2 Cu 0.19108(3) 0.38214(7) 0.30666(2)
O11_2 O 0.5888(4) 0.0276(5) 0.04305(10)
O3_2 O 0.4800(3) 0.3715(4) 0.99807(9)
O7_2 O 0.4800(3) 0.1085(5) 0.99807(9)
Cu3_2 Cu 0.52441(3) 0.04881(7) 0.97333(2)
O8_2 O 0.2279(3) 0.9221(4) 0.29028(10)
O9_2 O 0.1867(3) 0.9618(4) 0.33526(9)
C26_2 C 0.2171(4) 0.9740(5) 0.30647(13)
Cu2_2 Cu 0.47560(6) 0.95119(7) 0.02667(2)
O10_2 O 0.4340(5) 0.8681(5) 0.06878(18)
O13_2 O 0.5200(3) 0.8915(5) 0.00193(9)
O16_2 O 0.3715(4) 0.8915(5) 0.00193(9)
O8_3 O 0.0779(4) 0.3057(3) 0.29028(10)
O9_3 O 0.0382(4) 0.2248(2) 0.33526(9)
C26_3 C 0.0260(5) 0.2430(3) 0.30647(13)
C1_3 C 0.8229(7) 0.1772(3) 0.1514(2)
C2_3 C 0.8432(8) 0.1567(4) 0.1216(2)
C3_3 C 0.7450(6) 0.1254(4) 0.07318(15)
H1_3 H 0.7075 0.0755 0.0837
C4_3 C 0.8857(10) 0.1142(5) 0.1208(4)
H2_3 H 0.9002 0.0998 0.1007
C5_3 C 0.9077(10) 0.0922(5) 0.1521(4)
H3_3 H 0.9369 0.0631 0.1522
C6_3 C 0.7796(6) 0.2205(3) 0.02741(18)
H4_3 H 0.7660 0.2340 0.0069
C7_3 C 0.7236(5) 0.1450(3) 0.04223(13)
C8_3 C 0.7796(11) 0.2203(5) 0.1521(3)
H5_3 H 0.7648 0.2353 0.1322
C9_3 C 0.8209(7) 0.1791(3) 0.0882(2)
C10_3 C 0.6407(5) 0.0903(3) 0.02686(13)
C11_3 C 0.8439(9) 0.1562(7) 0.1819(2)
C12_3 C 0.8234(11) 0.1765(8) 0.2117(2)
C13_3 C 0.7921(7) 0.0783(6) 0.26015(15)
H6_3 H 0.7422 0.0408 0.2496
C14_3 C 0.7809(13) 0.2190(10) 0.2125(4)
H7_3 H 0.7665 0.2335 0.2326
C15_3 C 0.7589(13) 0.2410(10) 0.1812(4)
H8_3 H 0.7298 0.2702 0.1811
C16_3 C 0.8872(8) 0.1129(6) 0.30592(18)
H9_3 H 0.9007 0.0993 0.3264
C17_3 C 0.8117(6) 0.0569(5) 0.29110(13)
C18_3 C 0.8870(15) 0.1129(11) 0.1812(3)
H10_3 H 0.9020 0.0981 0.2011
C19_3 C 0.8458(9) 0.1542(7) 0.2451(2)
C21_3 C 0.8746(7) 0.2550(6) 0.07318(15)
H11_3 H 0.9245 0.2925 0.0837
C22_3 C 0.8550(6) 0.2764(5) 0.04223(13)
C23_3 C 0.9097(6) 0.3593(5) 0.02686(13)
C24_3 C 0.9217(6) 0.2079(4) 0.26015(15)
H12_3 H 0.9592 0.2578 0.2496
C25_3 C 0.9431(5) 0.1883(3) 0.29110(13)
O3_3 O 0.6285(4) 0.1085(2) 0.99807(9)
O7_3 O 0.8915(5) 0.3715(4) 0.99807(9)
O4_3 O 0.6943(5) 0.9221(4) 0.29028(10)
O5_3 O 0.7752(5) 0.9618(4) 0.33526(9)
C20_3 C 0.7570(6) 0.9740(5) 0.30647(13)
O1_2 O 0.5659(2) 0.1319(5) 0.93122(18)
O4_4 O 0.7721(3) 0.0779(4) 0.70972(10)
O5_4 O 0.8133(3) 0.0382(4) 0.66474(9)
C20_4 C 0.7829(4) 0.0260(5) 0.69353(13)
Cu6_3 Cu 0.85773(6) 0.14226(3) 0.64000(2)
Cu7_3 Cu 0.80892(3) 0.19107(6) 0.69334(2)
C1_4 C 0.6457(6) 0.8228(3) 0.8486(2)
O2_2 O 0.5612(3) 0.9724(3) 0.95695(10)
C2_4 C 0.6865(7) 0.8433(4) 0.8784(2)
C3_4 C 0.6196(4) 0.8746(4) 0.92682(15)
H1_4 H 0.6320 0.9245 0.9163
C4_4 C 0.7715(9) 0.8858(5) 0.8792(4)
H2_4 H 0.8004 0.9002 0.8993
C5_4 C 0.8155(9) 0.9078(5) 0.8479(4)
H3_4 H 0.8738 0.9369 0.8478
C6_4 C 0.5591(5) 0.7795(3) 0.97259(18)
H4_4 H 0.5320 0.7660 0.9931
C7_4 C 0.5786(4) 0.8550(3) 0.95777(13)
C8_4 C 0.5593(10) 0.7797(5) 0.8479(3)
H5_4 H 0.5295 0.7647 0.8678
C9_4 C 0.6418(6) 0.8209(3) 0.9118(2)
C10_4 C 0.5504(4) 0.9097(3) 0.97314(13)
C11_4 C 0.6876(6) 0.8438(7) 0.8181(2)
C12_4 C 0.6468(7) 0.8235(8) 0.7883(2)
C13_4 C 0.7137(4) 0.9217(6) 0.73985(15)
H6_4 H 0.7013 0.9592 0.7504
C14_4 C 0.5618(9) 0.7810(10) 0.7875(4)
H7_4 H 0.5329 0.7665 0.7674
C15_4 C 0.5178(9) 0.7590(10) 0.8188(4)
H8_4 H 0.4595 0.7298 0.8189
C16_4 C 0.7742(5) 0.8871(6) 0.69408(18)
H9_4 H 0.8013 0.9007 0.6736
C17_4 C 0.7547(4) 0.9431(5) 0.70890(13)
C18_4 C 0.7740(10) 0.8871(11) 0.8188(3)
H10_4 H 0.8038 0.9019 0.7989
C19_4 C 0.6915(6) 0.8458(7) 0.7549(2)
O6_3 O 0.5612(3) 0.5888(4) 0.95695(10)
C21_4 C 0.6196(4) 0.7450(6) 0.92682(15)
H11_4 H 0.6320 0.7075 0.9163
C22_4 C 0.5786(4) 0.7236(5) 0.95777(13)
C23_4 C 0.5504(4) 0.6407(5) 0.97314(13)
O8_4 O 0.7721(3) 0.6943(3) 0.70972(10)
O9_4 O 0.8133(3) 0.7752(2) 0.66474(9)
C24_4 C 0.7137(4) 0.7921(4) 0.73985(15)
H12_4 H 0.7013 0.7422 0.7504
C25_4 C 0.7547(4) 0.8117(3) 0.70890(13)
C26_4 C 0.7829(4) 0.7570(3) 0.69353(13)
O10_3 O 0.5660(5) 0.4341(2) 0.93122(18)
Cu5_2 Cu 0.85774(3) 0.71548(5) 0.64000(2)
Cu8_2 Cu 0.80893(6) 0.61786(5) 0.69334(2)
O11_3 O 0.4112(4) 0.4388(3) 0.95695(10)
O12_2 O 0.4112(4) 0.9724(3) 0.95695(10)
C1_5 C 0.1771(7) 0.3543(6) 0.8486(2)
C2_5 C 0.1568(8) 0.3135(7) 0.8784(2)
C3_5 C 0.2550(6) 0.3804(4) 0.92682(15)
H1_5 H 0.2925 0.3680 0.9163
C4_5 C 0.1143(10) 0.2285(9) 0.8792(4)
H2_5 H 0.0998 0.1996 0.8993
C5_5 C 0.0923(10) 0.1845(9) 0.8479(4)
H3_5 H 0.0631 0.1262 0.8478
C6_5 C 0.2204(6) 0.4409(5) 0.97259(18)
H4_5 H 0.2340 0.4680 0.9931
C7_5 C 0.2764(5) 0.4214(4) 0.95777(13)
C8_5 C 0.2204(11) 0.4407(10) 0.8479(3)
H5_5 H 0.2352 0.4705 0.8678
C9_5 C 0.1791(7) 0.3582(6) 0.9118(2)
C10_5 C 0.3593(5) 0.4496(4) 0.97314(13)
C11_5 C 0.1561(9) 0.3124(6) 0.8181(2)
O4_5 O 0.3057(5) 0.2279(3) 0.70972(10)
O5_5 O 0.2248(5) 0.1867(3) 0.66474(9)
C12_5 C 0.1766(11) 0.3532(7) 0.7883(2)
C13_5 C 0.2079(7) 0.2863(4) 0.73985(15)
H6_5 H 0.2578 0.2987 0.7504
C14_5 C 0.2191(13) 0.4382(9) 0.7875(4)
H7_5 H 0.2335 0.4671 0.7674
C15_5 C 0.2411(13) 0.4822(9) 0.8188(4)
H8_5 H 0.2702 0.5405 0.8189
C16_5 C 0.1128(8) 0.2258(5) 0.69408(18)
H9_5 H 0.0993 0.1987 0.6736
C17_5 C 0.1883(6) 0.2453(4) 0.70890(13)
C18_5 C 0.1130(15) 0.2260(10) 0.8188(3)
H10_5 H 0.0980 0.1962 0.7989
C19_5 C 0.1542(9) 0.3085(6) 0.7549(2)
C20_5 C 0.2430(6) 0.2171(4) 0.69353(13)
O6_4 O 0.0276(5) 0.4388(3) 0.95695(10)
C21_5 C 0.1254(7) 0.3804(4) 0.92682(15)
H11_5 H 0.0755 0.3680 0.9163
C22_5 C 0.1450(6) 0.4214(4) 0.95777(13)
C23_5 C 0.0903(6) 0.4496(4) 0.97314(13)
C24_5 C 0.0783(6) 0.2863(4) 0.73985(15)
H12_5 H 0.0408 0.2987 0.7504
C25_5 C 0.0569(5) 0.2453(4) 0.70890(13)
Cu6_4 Cu 0.28452(7) 0.14227(6) 0.64000(2)
Cu7_4 Cu 0.38214(7) 0.19108(3) 0.69334(2)
O11_4 O 0.0276(5) 0.5888(4) 0.95695(10)
O8_5 O 0.9221(4) 0.2279(3) 0.70972(10)
O9_5 O 0.9618(4) 0.1867(3) 0.66474(9)
C26_5 C 0.9740(5) 0.2171(4) 0.69353(13)
O10_4 O 0.8681(5) 0.4340(5) 0.93122(18)
O8_6 O 0.3057(3) 0.0779(4) 0.70972(10)
O9_6 O 0.2248(2) 0.0382(4) 0.66474(9)
C26_6 C 0.2430(3) 0.0260(5) 0.69353(13)
C1_6 C 0.1772(3) 0.8229(7) 0.8486(2)
C2_6 C 0.1567(4) 0.8432(8) 0.8784(2)
C3_6 C 0.1254(4) 0.7450(6) 0.92682(15)
H1_6 H 0.0755 0.7075 0.9163
C4_6 C 0.1142(5) 0.8857(10) 0.8792(4)
H2_6 H 0.0998 0.9002 0.8993
C5_6 C 0.0922(5) 0.9077(10) 0.8479(4)
H3_6 H 0.0631 0.9369 0.8478
C6_6 C 0.2205(3) 0.7796(6) 0.97259(18)
H4_6 H 0.2340 0.7660 0.9931
C7_6 C 0.1450(3) 0.7236(5) 0.95777(13)
C8_6 C 0.2203(5) 0.7796(11) 0.8479(3)
H5_6 H 0.2353 0.7648 0.8678
C9_6 C 0.1791(3) 0.8209(7) 0.9118(2)
C10_6 C 0.0903(3) 0.6407(5) 0.97314(13)
C11_6 C 0.1562(7) 0.8439(9) 0.8181(2)
C12_6 C 0.1765(8) 0.8234(11) 0.7883(2)
C13_6 C 0.0783(6) 0.7921(7) 0.73985(15)
H6_6 H 0.0408 0.7422 0.7504
C14_6 C 0.2190(10) 0.7809(13) 0.7875(4)
H7_6 H 0.2335 0.7665 0.7674
C15_6 C 0.2410(10) 0.7589(13) 0.8188(4)
H8_6 H 0.2702 0.7298 0.8189
C16_6 C 0.1129(6) 0.8872(8) 0.69408(18)
H9_6 H 0.0993 0.9007 0.6736
C17_6 C 0.0569(5) 0.8117(6) 0.70890(13)
C18_6 C 0.1129(11) 0.8870(15) 0.8188(3)
H10_6 H 0.0981 0.9020 0.7989
C19_6 C 0.1542(7) 0.8458(9) 0.7549(2)
C21_6 C 0.2550(6) 0.8746(7) 0.92682(15)
H11_6 H 0.2925 0.9245 0.9163
C22_6 C 0.2764(5) 0.8550(6) 0.95777(13)
C23_6 C 0.3593(5) 0.9097(6) 0.97314(13)
C24_6 C 0.2079(4) 0.9217(6) 0.73985(15)
H12_6 H 0.2578 0.9592 0.7504
C25_6 C 0.1883(3) 0.9431(5) 0.70890(13)
O4_6 O 0.9221(4) 0.6943(5) 0.70972(10)
O5_6 O 0.9618(4) 0.7752(5) 0.66474(9)
C20_6 C 0.9740(5) 0.7570(6) 0.69353(13)
C2_7 C 0.5100(4) 0.0198(7) 0.4549(2)
C4_7 C 0.5525(5) 0.1048(9) 0.4541(4)
H2_7 H 0.5669 0.1337 0.4340
C5_7 C 0.5745(5) 0.1488(9) 0.4854(4)
H3_7 H 0.6036 0.2071 0.4855
C11_7 C 0.5104(7) 0.0210(6) 0.5153(2)
O4_7 O 0.7445(4) 0.1055(3) 0.62362(10)
O5_7 O 0.7048(4) 0.1467(3) 0.66860(9)
C13_7 C 0.5883(6) 0.0471(4) 0.59349(15)
H6_7 H 0.6258 0.0347 0.5830
C16_7 C 0.5537(6) 0.1076(5) 0.63926(18)
H9_7 H 0.5673 0.1347 0.6598
C17_7 C 0.6097(5) 0.0881(4) 0.62444(13)
C18_7 C 0.5537(11) 0.1074(10) 0.5146(3)
H10_7 H 0.5685 0.1372 0.5345
C19_7 C 0.5124(7) 0.0249(6) 0.5785(2)
C20_7 C 0.6926(5) 0.1163(4) 0.63981(13)
O8_7 O 0.3609(3) 0.1055(3) 0.62362(10)
O9_7 O 0.4418(2) 0.1467(3) 0.66860(9)
C24_7 C 0.4587(4) 0.0471(4) 0.59349(15)
H12_7 H 0.4088 0.0347 0.5830
C25_7 C 0.4783(3) 0.0881(4) 0.62444(13)
C26_7 C 0.4236(3) 0.1163(4) 0.63981(13)
O1_3 O 0.7986(5) 0.8992(2) 0.40211(18)
C1_7 C 0.4895(3) 0.9790(6) 0.4847(2)
O2_3 O 0.6391(3) 0.8945(3) 0.37638(10)
O3_4 O 0.5582(2) 0.8533(3) 0.33140(9)
C3_7 C 0.5413(4) 0.9529(4) 0.40651(15)
H1_7 H 0.5912 0.9653 0.4170
C6_7 C 0.4462(3) 0.8924(5) 0.36074(18)
H4_7 H 0.4327 0.8653 0.3402
C7_7 C 0.5217(3) 0.9119(4) 0.37556(13)
C8_7 C 0.4464(5) 0.8926(10) 0.4854(3)
H5_7 H 0.4314 0.8628 0.4655
C9_7 C 0.4876(3) 0.9751(6) 0.4215(2)
C10_7 C 0.5764(3) 0.8837(4) 0.36019(13)
C12_7 C 0.4901(8) 0.9802(7) 0.5451(2)
C14_7 C 0.4476(10) 0.8952(9) 0.5459(4)
H7_7 H 0.4331 0.8663 0.5660
C15_7 C 0.4256(10) 0.8512(9) 0.5146(4)
H8_7 H 0.3964 0.7929 0.5145
O6_5 O 0.2555(4) 0.8945(3) 0.37638(10)
O7_4 O 0.2952(4) 0.8533(3) 0.33140(9)
C21_7 C 0.4117(6) 0.9529(4) 0.40651(15)
H11_7 H 0.3742 0.9653 0.4170
C22_7 C 0.3903(5) 0.9119(4) 0.37556(13)
C23_7 C 0.3074(5) 0.8837(4) 0.36019(13)
O10_5 O 0.1008(2) 0.8993(5) 0.40211(18)
O11_5 O 0.1055(3) 0.7445(4) 0.37638(10)
O12_3 O 0.6391(3) 0.7445(4) 0.37638(10)
C1_8 C 0.0210(6) 0.5104(7) 0.4847(2)
O3_5 O 0.1467(3) 0.7048(4) 0.33140(9)
C3_8 C 0.0471(4) 0.5883(6) 0.40651(15)
H1_8 H 0.0347 0.6258 0.4170
C6_8 C 0.1076(5) 0.5537(6) 0.36074(18)
H4_8 H 0.1347 0.5673 0.3402
C7_8 C 0.0881(4) 0.6097(5) 0.37556(13)
C8_8 C 0.1074(10) 0.5537(11) 0.4854(3)
H5_8 H 0.1372 0.5685 0.4655
C9_8 C 0.0249(6) 0.5124(7) 0.4215(2)
C10_8 C 0.1163(4) 0.6926(5) 0.36019(13)
C12_8 C 0.0198(7) 0.5100(11) 0.5451(2)
C14_8 C 0.1048(9) 0.5525(13) 0.5459(4)
H7_8 H 0.1337 0.5669 0.5660
C15_8 C 0.1488(9) 0.5745(13) 0.5146(4)
H8_8 H 0.2071 0.6036 0.5145
O6_6 O 0.1055(3) 0.3609(5) 0.37638(10)
O7_5 O 0.1467(3) 0.4418(5) 0.33140(9)
C21_8 C 0.0471(4) 0.4587(7) 0.40651(15)
H11_8 H 0.0347 0.4088 0.4170
C22_8 C 0.0881(4) 0.4783(6) 0.37556(13)
C23_8 C 0.1163(4) 0.4236(6) 0.36019(13)
O10_6 O 0.1007(5) 0.2014(5) 0.40211(18)
O11_6 O 0.2555(4) 0.3609(5) 0.37638(10)
C2_8 C 0.9802(7) 0.4901(8) 0.4549(2)
C4_8 C 0.8952(9) 0.4476(10) 0.4541(4)
H2_8 H 0.8663 0.4331 0.4340
C5_8 C 0.8512(9) 0.4256(10) 0.4854(4)
H3_8 H 0.7929 0.3964 0.4855
C11_8 C 0.9790(6) 0.4895(9) 0.5153(2)
O4_8 O 0.8945(3) 0.6391(5) 0.62362(10)
O5_8 O 0.8533(3) 0.5582(5) 0.66860(9)
C13_8 C 0.9529(4) 0.5413(7) 0.59349(15)
H6_8 H 0.9653 0.5912 0.5830
C16_8 C 0.8924(5) 0.4462(8) 0.63926(18)
H9_8 H 0.8653 0.4327 0.6598
C17_8 C 0.9119(4) 0.5217(6) 0.62444(13)
C18_8 C 0.8926(10) 0.4464(15) 0.5146(3)
H10_8 H 0.8628 0.4314 0.5345
C19_8 C 0.9751(6) 0.4876(9) 0.5785(2)
C20_8 C 0.8837(4) 0.5764(6) 0.63981(13)
O8_8 O 0.8945(3) 0.2555(4) 0.62362(10)
O9_8 O 0.8533(3) 0.2952(4) 0.66860(9)
C24_8 C 0.9529(4) 0.4117(6) 0.59349(15)
H12_8 H 0.9653 0.3742 0.5830
C25_8 C 0.9119(4) 0.3903(5) 0.62444(13)
C26_8 C 0.8837(4) 0.3074(5) 0.63981(13)
C1_9 C 0.4896(7) 0.5105(3) 0.4847(2)
O3_6 O 0.2952(4) 0.4418(2) 0.33140(9)
C2_9 C 0.5099(8) 0.4900(4) 0.4549(2)
C3_9 C 0.4117(6) 0.4587(4) 0.40651(15)
H1_9 H 0.3742 0.4088 0.4170
C4_9 C 0.5524(10) 0.4475(5) 0.4541(4)
H2_9 H 0.5669 0.4331 0.4340
C5_9 C 0.5744(10) 0.4255(5) 0.4854(4)
H3_9 H 0.6036 0.3964 0.4855
C6_9 C 0.4463(6) 0.5538(3) 0.36074(18)
H4_9 H 0.4327 0.5673 0.3402
C7_9 C 0.3903(5) 0.4783(3) 0.37556(13)
C8_9 C 0.4463(11) 0.5536(5) 0.4854(3)
H5_9 H 0.4315 0.5686 0.4655
C9_9 C 0.4876(7) 0.5124(3) 0.4215(2)
C10_9 C 0.3074(5) 0.4236(3) 0.36019(13)
C11_9 C 0.5105(9) 0.4896(7) 0.5153(2)
O4_9 O 0.3609(5) 0.2555(4) 0.62362(10)
O5_9 O 0.4418(5) 0.2952(4) 0.66860(9)
C12_9 C 0.4900(11) 0.5099(8) 0.5451(2)
C13_9 C 0.4587(7) 0.4117(6) 0.59349(15)
H6_9 H 0.4088 0.3742 0.5830
C14_9 C 0.4475(13) 0.5524(10) 0.5459(4)
H7_9 H 0.4331 0.5669 0.5660
C15_9 C 0.4255(13) 0.5744(10) 0.5146(4)
H8_9 H 0.3964 0.6036 0.5145
C16_9 C 0.5538(8) 0.4463(6) 0.63926(18)
H9_9 H 0.5673 0.4327 0.6598
C17_9 C 0.4783(6) 0.3903(5) 0.62444(13)
C18_9 C 0.5536(15) 0.4463(11) 0.5146(3)
H10_9 H 0.5686 0.4315 0.5345
C19_9 C 0.5124(9) 0.4876(7) 0.5785(2)
C20_9 C 0.4236(6) 0.3074(5) 0.63981(13)
O7_6 O 0.5582(5) 0.7048(4) 0.33140(9)
C21_9 C 0.5413(7) 0.5883(6) 0.40651(15)
H11_9 H 0.5912 0.6258 0.4170
C22_9 C 0.5217(6) 0.6097(5) 0.37556(13)
C23_9 C 0.5764(6) 0.6926(5) 0.36019(13)
O8_9 O 0.7445(4) 0.6391(3) 0.62362(10)
O9_9 O 0.7048(4) 0.5582(2) 0.66860(9)
C24_9 C 0.5883(6) 0.5413(4) 0.59349(15)
H12_9 H 0.6258 0.5912 0.5830
C25_9 C 0.6097(5) 0.5217(3) 0.62444(13)
C26_9 C 0.6926(5) 0.5764(3) 0.63981(13)
O1_4 O 0.2326(2) 0.4652(5) 0.26455(18)
O10_7 O 0.2327(5) 0.7674(2) 0.26455(18)
O10_8 O 0.5348(5) 0.7673(5) 0.26455(18)
O1_5 O 0.4652(5) 0.2326(2) 0.73545(18)
O10_9 O 0.7674(2) 0.2327(5) 0.73545(18)
O10_10 O 0.7673(5) 0.5348(5) 0.73545(18)
O1_6 O 0.8992(2) 0.7986(5) 0.59789(18)
O10_11 O 0.8993(5) 0.1008(2) 0.59789(18)
O10_12 O 0.2014(5) 0.1007(5) 0.59789(18)
loop_
_geom_bond_atom_site_label_1
_geom_bond_atom_site_label_2
_geom_bond_site_symmetry_1
_geom_bond_site_symmetry_2
Cu1 O1 1_555 1_555
O4 C20 1_555 1_555
O5 C20 1_555 1_555
Cu6 O5 1_555 1_555
Cu7 O4 1_555 1_555
O14 Cu1 1_555 1_555
O15 Cu1 1_555 1_555
Cu6 Cu7 1_555 1_555
C1 C2 1_555 1_555
C2 C4 1_555 1_555
C3 H1 1_555 1_555
C4 H2 1_555 1_555
C5 C4 1_555 1_555
H3 C5 1_555 1_555
C6 H4 1_555 1_555
C7 C3 1_555 1_555
C8 C1 1_555 1_555
H5 C8 1_555 1_555
C9 C2 1_555 1_555
C10 O2 1_555 1_555
C11 C1 1_555 1_555
C12 C11 1_555 1_555
C13 H6 1_555 1_555
C14 C12 1_555 1_555
H7 C14 1_555 1_555
C15 C8 1_555 1_555
H8 C15 1_555 1_555
C16 H9 1_555 1_555
C17 C13 1_555 1_555
C18 C5 1_555 1_555
H10 C18 1_555 1_555
C19 C12 1_555 1_555
O6 C23 1_555 1_555
C21 C9 1_555 1_555
H11 C21 1_555 1_555
C22 C6 1_555 1_555
C23 C22 1_555 1_555
O8 C26 1_555 1_555
O9 C26 1_555 1_555
C24 C19 1_555 1_555
H12 C24 1_555 1_555
C25 C16 1_555 1_555
C26 C25 1_555 1_555
Cu2 O6 1_555 1_555
O10 Cu2 1_555 1_555
Cu5 O9 1_555 1_555
Cu8 O8 1_555 1_555
O11 Cu2 1_555 1_555
O13 Cu2 1_555 1_555
O16 Cu2 1_555 1_555
C3 C9 1_555 1_555
C6 C7 1_555 1_555
C7 C10 1_555 1_555
C11 C18 1_555 1_555
C13 C19 1_555 1_555
C14 C15 1_555 1_555
C16 C17 1_555 1_555
C21 C22 1_555 1_555
C24 C25 1_555 1_555
Cu5 Cu8 1_555 1_555
Cu3 O7 1_555 1_555
O3 Cu4 1_555 1_555
C1_2 C2_2 1_555 1_555
C2_2 C4_2 1_555 1_555
C3_2 H1_2 1_555 1_555
C4_2 H2_2 1_555 1_555
C5_2 C4_2 1_555 1_555
H3_2 C5_2 1_555 1_555
C6_2 H4_2 1_555 1_555
C7_2 C3_2 1_555 1_555
C8_2 C1_2 1_555 1_555
H5_2 C8_2 1_555 1_555
C9_2 C2_2 1_555 1_555
C10_2 O11 1_555 1_555
C11_2 C1_2 1_555 1_555
O4_2 C20_2 1_555 1_555
O5_2 C20_2 1_555 1_555
C12_2 C11_2 1_555 1_555
C13_2 H6_2 1_555 1_555
C14_2 C12_2 1_555 1_555
H7_2 C14_2 1_555 1_555
C15_2 C8_2 1_555 1_555
H8_2 C15_2 1_555 1_555
C16_2 H9_2 1_555 1_555
C17_2 C13_2 1_555 1_555
C18_2 C5_2 1_555 1_555
H10_2 C18_2 1_555 1_555
C19_2 C12_2 1_555 1_555
C20_2 C17_2 1_555 1_555
O6_2 C23_2 1_555 1_555
C21_2 C9_2 1_555 1_555
H11_2 C21_2 1_555 1_555
C22_2 C6_2 1_555 1_555
C23_2 C22_2 1_555 1_555
C24_2 C19_2 1_555 1_555
H12_2 C24_2 1_555 1_555
C25_2 C16_2 1_555 1_555
Cu6_2 O5_2 1_555 1_555
Cu7_2 O4_2 1_555 1_555
C3_2 C9_2 1_555 1_555
C6_2 C7_2 1_555 1_555
C7_2 C10_2 1_555 1_555
C11_2 C18_2 1_555 1_555
C13_2 C19_2 1_555 1_555
C14_2 C15_2 1_555 1_555
C16_2 C17_2 1_555 1_555
C21_2 C22_2 1_555 1_555
C24_2 C25_2 1_555 1_555
Cu6_2 Cu7_2 1_555 1_555
Cu3_2 O7_2 1_555 1_555
O3_2 Cu3 1_555 1_555
O8_2 C26_2 1_555 1_555
O9_2 C26_2 1_555 1_555
O10_2 Cu2_2 1_555 1_555
Cu6 O9_2 1_555 1_555
Cu7 O8_2 1_555 1_555
O13_2 Cu2_2 1_555 1_555
O16_2 Cu2_2 1_555 1_555
O8_3 C26_3 1_555 1_555
O9_3 C26_3 1_555 1_555
Cu6_2 O9_3 1_555 1_555
Cu7_2 O8_3 1_555 1_555
C1_3 C2_3 1_555 1_555
C2_3 C4_3 1_555 1_555
C3_3 H1_3 1_555 1_555
C4_3 H2_3 1_555 1_555
C5_3 C4_3 1_555 1_555
H3_3 C5_3 1_555 1_555
C6_3 H4_3 1_555 1_555
C7_3 C3_3 1_555 1_555
C8_3 C1_3 1_555 1_555
H5_3 C8_3 1_555 1_555
C9_3 C2_3 1_555 1_555
C10_3 O11_2 1_555 1_555
C11_3 C1_3 1_555 1_555
C12_3 C11_3 1_555 1_555
C13_3 H6_3 1_555 1_555
C14_3 C12_3 1_555 1_555
H7_3 C14_3 1_555 1_555
C15_3 C8_3 1_555 1_555
H8_3 C15_3 1_555 1_555
C16_3 H9_3 1_555 1_555
C17_3 C13_3 1_555 1_555
C18_3 C5_3 1_555 1_555
H10_3 C18_3 1_555 1_555
C19_3 C12_3 1_555 1_555
O12 C23_3 1_555 1_555
C21_3 C9_3 1_555 1_555
H11_3 C21_3 1_555 1_555
C22_3 C6_3 1_555 1_555
C23_3 C22_3 1_555 1_555
C24_3 C19_3 1_555 1_555
H12_3 C24_3 1_555 1_555
C25_3 C16_3 1_555 1_555
C3_3 C9_3 1_555 1_555
C6_3 C7_3 1_555 1_555
C7_3 C10_3 1_555 1_555
C11_3 C18_3 1_555 1_555
C13_3 C19_3 1_555 1_555
C14_3 C15_3 1_555 1_555
C16_3 C17_3 1_555 1_555
C21_3 C22_3 1_555 1_555
C24_3 C25_3 1_555 1_555
Cu4 O7_3 1_555 1_555
O3_3 Cu3_2 1_555 1_555
O4_3 C20_3 1_555 1_555
O5_3 C20_3 1_555 1_555
Cu5 O5_3 1_555 1_555
Cu8 O4_3 1_555 1_555
Cu3_2 O1_2 1_555 1_555
O4_4 C20_4 1_555 1_555
O5_4 C20_4 1_555 1_555
Cu6_3 O5_4 1_555 1_555
Cu7_3 O4_4 1_555 1_555
Cu6_3 Cu7_3 1_555 1_555
C1_4 C2_4 1_555 1_555
C2_4 C4_4 1_555 1_555
C3_4 H1_4 1_555 1_555
C4_4 H2_4 1_555 1_555
C5_4 C4_4 1_555 1_555
H3_4 C5_4 1_555 1_555
C6_4 H4_4 1_555 1_555
C7_4 C3_4 1_555 1_555
C8_4 C1_4 1_555 1_555
H5_4 C8_4 1_555 1_555
C9_4 C2_4 1_555 1_555
C10_4 O2_2 1_555 1_555
C11_4 C1_4 1_555 1_555
C12_4 C11_4 1_555 1_555
C13_4 H6_4 1_555 1_555
C14_4 C12_4 1_555 1_555
H7_4 C14_4 1_555 1_555
C15_4 C8_4 1_555 1_555
H8_4 C15_4 1_555 1_555
C16_4 H9_4 1_555 1_555
C17_4 C13_4 1_555 1_555
C18_4 C5_4 1_555 1_555
H10_4 C18_4 1_555 1_555
C19_4 C12_4 1_555 1_555
O6_3 C23_4 1_555 1_555
C21_4 C9_4 1_555 1_555
H11_4 C21_4 1_555 1_555
C22_4 C6_4 1_555 1_555
C23_4 C22_4 1_555 1_555
O8_4 C26_4 1_555 1_555
O9_4 C26_4 1_555 1_555
C24_4 C19_4 1_555 1_555
H12_4 C24_4 1_555 1_555
C25_4 C16_4 1_555 1_555
C26_4 C25_4 1_555 1_555
Cu3 O6_3 1_555 1_555
O10_3 Cu3 1_555 1_555
Cu5_2 O9_4 1_555 1_555
Cu8_2 O8_4 1_555 1_555
O11_3 Cu3 1_555 1_555
C3_4 C9_4 1_555 1_555
C6_4 C7_4 1_555 1_555
C7_4 C10_4 1_555 1_555
C11_4 C18_4 1_555 1_555
C13_4 C19_4 1_555 1_555
C14_4 C15_4 1_555 1_555
C16_4 C17_4 1_555 1_555
C21_4 C22_4 1_555 1_555
C24_4 C25_4 1_555 1_555
Cu5_2 Cu8_2 1_555 1_555
C1_5 C2_5 1_555 1_555
C2_5 C4_5 1_555 1_555
C3_5 H1_5 1_555 1_555
C4_5 H2_5 1_555 1_555
C5_5 C4_5 1_555 1_555
H3_5 C5_5 1_555 1_555
C6_5 H4_5 1_555 1_555
C7_5 C3_5 1_555 1_555
C8_5 C1_5 1_555 1_555
H5_5 C8_5 1_555 1_555
C9_5 C2_5 1_555 1_555
C10_5 O11_3 1_555 1_555
C11_5 C1_5 1_555 1_555
O4_5 C20_5 1_555 1_555
O5_5 C20_5 1_555 1_555
C12_5 C11_5 1_555 1_555
C13_5 H6_5 1_555 1_555
C14_5 C12_5 1_555 1_555
H7_5 C14_5 1_555 1_555
C15_5 C8_5 1_555 1_555
H8_5 C15_5 1_555 1_555
C16_5 H9_5 1_555 1_555
C17_5 C13_5 1_555 1_555
C18_5 C5_5 1_555 1_555
H10_5 C18_5 1_555 1_555
C19_5 C12_5 1_555 1_555
C20_5 C17_5 1_555 1_555
O6_4 C23_5 1_555 1_555
C21_5 C9_5 1_555 1_555
H11_5 C21_5 1_555 1_555
C22_5 C6_5 1_555 1_555
C23_5 C22_5 1_555 1_555
C24_5 C19_5 1_555 1_555
H12_5 C24_5 1_555 1_555
C25_5 C16_5 1_555 1_555
Cu6_4 O5_5 1_555 1_555
Cu7_4 O4_5 1_555 1_555
C3_5 C9_5 1_555 1_555
C6_5 C7_5 1_555 1_555
C7_5 C10_5 1_555 1_555
C11_5 C18_5 1_555 1_555
C13_5 C19_5 1_555 1_555
C14_5 C15_5 1_555 1_555
C16_5 C17_5 1_555 1_555
C21_5 C22_5 1_555 1_555
C24_5 C25_5 1_555 1_555
Cu6_4 Cu7_4 1_555 1_555
O8_5 C26_5 1_555 1_555
O9_5 C26_5 1_555 1_555
O10_4 Cu4 1_555 1_555
Cu6_3 O9_5 1_555 1_555
Cu7_3 O8_5 1_555 1_555
O8_6 C26_6 1_555 1_555
O9_6 C26_6 1_555 1_555
Cu6_4 O9_6 1_555 1_555
Cu7_4 O8_6 1_555 1_555
C1_6 C2_6 1_555 1_555
C2_6 C4_6 1_555 1_555
C3_6 H1_6 1_555 1_555
C4_6 H2_6 1_555 1_555
C5_6 C4_6 1_555 1_555
H3_6 C5_6 1_555 1_555
C6_6 H4_6 1_555 1_555
C7_6 C3_6 1_555 1_555
C8_6 C1_6 1_555 1_555
H5_6 C8_6 1_555 1_555
C9_6 C2_6 1_555 1_555
C10_6 O11_4 1_555 1_555
C11_6 C1_6 1_555 1_555
C12_6 C11_6 1_555 1_555
C13_6 H6_6 1_555 1_555
C14_6 C12_6 1_555 1_555
H7_6 C14_6 1_555 1_555
C15_6 C8_6 1_555 1_555
H8_6 C15_6 1_555 1_555
C16_6 H9_6 1_555 1_555
C17_6 C13_6 1_555 1_555
C18_6 C5_6 1_555 1_555
H10_6 C18_6 1_555 1_555
C19_6 C12_6 1_555 1_555
O12_2 C23_6 1_555 1_555
C21_6 C9_6 1_555 1_555
H11_6 C21_6 1_555 1_555
C22_6 C6_6 1_555 1_555
C23_6 C22_6 1_555 1_555
C24_6 C19_6 1_555 1_555
H12_6 C24_6 1_555 1_555
C25_6 C16_6 1_555 1_555
C3_6 C9_6 1_555 1_555
C6_6 C7_6 1_555 1_555
C7_6 C10_6 1_555 1_555
C11_6 C18_6 1_555 1_555
C13_6 C19_6 1_555 1_555
C14_6 C15_6 1_555 1_555
C16_6 C17_6 1_555 1_555
C21_6 C22_6 1_555 1_555
C24_6 C25_6 1_555 1_555
O4_6 C20_6 1_555 1_555
O5_6 C20_6 1_555 1_555
Cu5_2 O5_6 1_555 1_555
Cu8_2 O4_6 1_555 1_555
C2_7 C4_7 1_555 1_555
C4_7 H2_7 1_555 1_555
C5_7 C4_7 1_555 1_555
H3_7 C5_7 1_555 1_555
O4_7 C20_7 1_555 1_555
O5_7 C20_7 1_555 1_555
C13_7 H6_7 1_555 1_555
C16_7 H9_7 1_555 1_555
C17_7 C13_7 1_555 1_555
C18_7 C5_7 1_555 1_555
H10_7 C18_7 1_555 1_555
C20_7 C17_7 1_555 1_555
O8_7 C26_7 1_555 1_555
O9_7 C26_7 1_555 1_555
C24_7 C19_7 1_555 1_555
H12_7 C24_7 1_555 1_555
C25_7 C16_7 1_555 1_555
C26_7 C25_7 1_555 1_555
Cu7_4 O9_7 1_555 1_555
Cu7_3 O5_7 1_555 1_555
Cu6_3 O4_7 1_555 1_555
Cu6_4 O8_7 1_555 1_555
C11_7 C18_7 1_555 1_555
C13_7 C19_7 1_555 1_555
C16_7 C17_7 1_555 1_555
C24_7 C25_7 1_555 1_555
Cu5 O1_3 1_555 1_555
O2_3 Cu5 1_555 1_555
O3_4 C10_7 1_555 1_555
C3_7 H1_7 1_555 1_555
C6_7 H4_7 1_555 1_555
C7_7 C3_7 1_555 1_555
C8_7 C1_7 1_555 1_555
H5_7 C8_7 1_555 1_555
C10_7 O2_3 1_555 1_555
C14_7 C12_7 1_555 1_555
H7_7 C14_7 1_555 1_555
C15_7 C8_7 1_555 1_555
H8_7 C15_7 1_555 1_555
O6_5 C23_7 1_555 1_555
O7_4 C23_7 1_555 1_555
C21_7 C9_7 1_555 1_555
H11_7 C21_7 1_555 1_555
C22_7 C6_7 1_555 1_555
C23_7 C22_7 1_555 1_555
Cu6 O6_5 1_555 1_555
O10_5 Cu6 1_555 1_555
Cu7 O7_4 1_555 1_555
O11_5 Cu6 1_555 1_555
O12_3 Cu5 1_555 1_555
O3_4 Cu8 1_555 1_555
C3_7 C9_7 1_555 1_555
C6_7 C7_7 1_555 1_555
C7_7 C10_7 1_555 1_555
C14_7 C15_7 1_555 1_555
C21_7 C22_7 1_555 1_555
O3_5 C10_8 1_555 1_555
C3_8 H1_8 1_555 1_555
C6_8 H4_8 1_555 1_555
C7_8 C3_8 1_555 1_555
C8_8 C1_8 1_555 1_555
H5_8 C8_8 1_555 1_555
C10_8 O11_5 1_555 1_555
C14_8 C12_8 1_555 1_555
H7_8 C14_8 1_555 1_555
C15_8 C8_8 1_555 1_555
H8_8 C15_8 1_555 1_555
O6_6 C23_8 1_555 1_555
O7_5 C23_8 1_555 1_555
C21_8 C9_8 1_555 1_555
H11_8 C21_8 1_555 1_555
C22_8 C6_8 1_555 1_555
C23_8 C22_8 1_555 1_555
Cu6_2 O6_6 1_555 1_555
O10_6 Cu6_2 1_555 1_555
Cu7_2 O7_5 1_555 1_555
O11_6 Cu6_2 1_555 1_555
O3_5 Cu7 1_555 1_555
C3_8 C9_8 1_555 1_555
C6_8 C7_8 1_555 1_555
C7_8 C10_8 1_555 1_555
C14_8 C15_8 1_555 1_555
C21_8 C22_8 1_555 1_555
C2_8 C4_8 1_555 1_555
C4_8 H2_8 1_555 1_555
C5_8 C4_8 1_555 1_555
H3_8 C5_8 1_555 1_555
O4_8 C20_8 1_555 1_555
O5_8 C20_8 1_555 1_555
C13_8 H6_8 1_555 1_555
C16_8 H9_8 1_555 1_555
C17_8 C13_8 1_555 1_555
C18_8 C5_8 1_555 1_555
H10_8 C18_8 1_555 1_555
C20_8 C17_8 1_555 1_555
O8_8 C26_8 1_555 1_555
O9_8 C26_8 1_555 1_555
C24_8 C19_8 1_555 1_555
H12_8 C24_8 1_555 1_555
C25_8 C16_8 1_555 1_555
C26_8 C25_8 1_555 1_555
Cu7_3 O9_8 1_555 1_555
Cu8_2 O5_8 1_555 1_555
Cu5_2 O4_8 1_555 1_555
Cu6_3 O8_8 1_555 1_555
C11_8 C18_8 1_555 1_555
C13_8 C19_8 1_555 1_555
C16_8 C17_8 1_555 1_555
C24_8 C25_8 1_555 1_555
C1_9 C2_9 1_555 1_555
O3_6 C10_9 1_555 1_555
C2_9 C4_9 1_555 1_555
C3_9 H1_9 1_555 1_555
C4_9 H2_9 1_555 1_555
C5_9 C4_9 1_555 1_555
H3_9 C5_9 1_555 1_555
C6_9 H4_9 1_555 1_555
C7_9 C3_9 1_555 1_555
C8_9 C1_9 1_555 1_555
H5_9 C8_9 1_555 1_555
C9_9 C2_9 1_555 1_555
C10_9 O11_6 1_555 1_555
C11_9 C1_9 1_555 1_555
O4_9 C20_9 1_555 1_555
O5_9 C20_9 1_555 1_555
C12_9 C11_9 1_555 1_555
C13_9 H6_9 1_555 1_555
C14_9 C12_9 1_555 1_555
H7_9 C14_9 1_555 1_555
C15_9 C8_9 1_555 1_555
H8_9 C15_9 1_555 1_555
C16_9 H9_9 1_555 1_555
C17_9 C13_9 1_555 1_555
C18_9 C5_9 1_555 1_555
H10_9 C18_9 1_555 1_555
C19_9 C12_9 1_555 1_555
C20_9 C17_9 1_555 1_555
O12_3 C23_9 1_555 1_555
O7_6 C23_9 1_555 1_555
C21_9 C9_9 1_555 1_555
H11_9 C21_9 1_555 1_555
C22_9 C6_9 1_555 1_555
C23_9 C22_9 1_555 1_555
O8_9 C26_9 1_555 1_555
O9_9 C26_9 1_555 1_555
C24_9 C19_9 1_555 1_555
H12_9 C24_9 1_555 1_555
C25_9 C16_9 1_555 1_555
C26_9 C25_9 1_555 1_555
Cu8 O7_6 1_555 1_555
Cu8_2 O9_9 1_555 1_555
Cu7_4 O5_9 1_555 1_555
Cu6_4 O4_9 1_555 1_555
Cu5_2 O8_9 1_555 1_555
O3_6 Cu7_2 1_555 1_555
C3_9 C9_9 1_555 1_555
C6_9 C7_9 1_555 1_555
C7_9 C10_9 1_555 1_555
C11_9 C18_9 1_555 1_555
C13_9 C19_9 1_555 1_555
C14_9 C15_9 1_555 1_555
C16_9 C17_9 1_555 1_555
C21_9 C22_9 1_555 1_555
C24_9 C25_9 1_555 1_555
Cu7_2 O1_4 1_555 1_555
O10_7 Cu7 1_555 1_555
O10_8 Cu8 1_555 1_555
Cu7_4 O1_5 1_555 1_555
O10_9 Cu7_3 1_555 1_555
O10_10 Cu8_2 1_555 1_555
Cu5_2 O1_6 1_555 1_555
O10_11 Cu6_3 1_555 1_555
O10_12 Cu6_4 1_555 1_555

#END
