
###############################################################################
#
# This file contains modified crystal structure data generated from the
# MOF subset of the Cambridge Structural Database (CSD) v543 
# hosted by the Cambridge Crystallographic Data Centre (CCDC).
#
# This work is licensed under the Creative Commons
# Attribution-NonCommercial-ShareAlike 4.0 International License.
# To view a copy of this license, visit
# http://creativecommons.org/licenses/by-nc-sa/4.0/
# or send a letter to
# Creative Commons, PO Box 1866, Mountain View, CA 94042, USA.
#
# CIF created using the CSD Python API on 29 September 2022
# The structure has been converted into the P1 space group
# The structure has a 3D framework
# The original CSD entry LUVBAH is in the orthorhombic crystal system
# The framework has been calculated to contain at least 10.0% void space
# The void calculation uses a probe of radius 1.32A, grid spacing 0.4
#
###############################################################################

data_LUVBAH
_chemical_formula_moiety         '(C96 H64 N30 O80 Zn12)n'
_symmetry_cell_setting           triclinic
_symmetry_space_group_name_H-M   'P 1'
_symmetry_Int_Tables_number      1
_space_group_name_Hall           'P 1'
loop_
_symmetry_equiv_pos_site_id
_symmetry_equiv_pos_as_xyz
1 x,y,z
_cell_length_a                   19.654(4)
_cell_length_b                   15.947(3)
_cell_length_c                   11.160(2)
_cell_angle_alpha                90
_cell_angle_beta                 90
_cell_angle_gamma                90
_cell_volume                     3497.79
loop_
_atom_site_label
_atom_site_type_symbol
_atom_site_fract_x
_atom_site_fract_y
_atom_site_fract_z
Zn1 Zn 0.545731(15) 0.182654(18) 0.49562(3)
O1 O 0.46261(12) 0.09401(15) 0.5199(2)
O2 O 0.39043(16) 0.05390(18) 0.6638(3)
O3 O 0.37710(11) 0.21295(13) 0.9826(2)
O4 O 0.35134(16) 0.10755(19) 0.8617(3)
H1 H 0.3657 0.0876 0.7988
O5 O 0.63720(11) 0.33630(15) 0.7391(3)
H2 H 0.6377 0.3014 0.7930
N1 N 0.51040(12) 0.22337(13) 0.6550(2)
N2 N 0.47714(11) 0.26970(15) 0.8344(2)
C1 C 0.43633(17) 0.1017(2) 0.6216(3)
C2 C 0.46015(14) 0.17185(18) 0.6966(3)
C3 C 0.43987(15) 0.19947(19) 0.8061(3)
C4 C 0.38637(16) 0.17234(19) 0.8891(3)
C5 C 0.51825(12) 0.28195(15) 0.7409(3)
C6 C 0.56427(14) 0.35653(16) 0.7312(3)
H3 H 0.5557 0.3843 0.6553
H4 H 0.5530 0.3957 0.7946
Zn2 Zn 0.704269(15) 0.432654(18) 0.74562(3)
Zn3 Zn 0.454269(15) 0.317346(18) 0.99562(3)
O6 O 0.62290(11) 0.28705(13) 0.4826(2)
O7 O 0.61280(11) 0.08630(15) 0.4891(3)
N3 N 0.52286(11) 0.23030(15) 0.3344(2)
Zn1_2 Zn 0.454269(15) 0.817346(18) 0.49562(3)
O1_2 O 0.53739(12) 0.90599(15) 0.5199(2)
O2_2 O 0.60957(16) 0.94610(18) 0.6638(3)
O3_2 O 0.62290(11) 0.78705(13) 0.9826(2)
O4_2 O 0.64866(16) 0.89245(19) 0.8617(3)
H1_2 H 0.6343 0.9124 0.7988
O5_2 O 0.36280(11) 0.66370(15) 0.7391(3)
H2_2 H 0.3623 0.6986 0.7930
N1_2 N 0.48960(12) 0.77663(13) 0.6550(2)
N2_2 N 0.52286(11) 0.73030(15) 0.8344(2)
C1_2 C 0.56367(17) 0.8983(2) 0.6216(3)
C2_2 C 0.53985(14) 0.82815(18) 0.6966(3)
C3_2 C 0.56013(15) 0.80053(19) 0.8061(3)
C4_2 C 0.61363(16) 0.82766(19) 0.8891(3)
C5_2 C 0.48175(12) 0.71805(15) 0.7409(3)
C6_2 C 0.43573(14) 0.64347(16) 0.7312(3)
H3_2 H 0.4443 0.6157 0.6553
H4_2 H 0.4470 0.6043 0.7946
Zn2_2 Zn 0.295731(15) 0.567346(18) 0.74562(3)
Zn3_2 Zn 0.545731(15) 0.682654(18) 0.99562(3)
O6_2 O 0.37710(11) 0.71295(13) 0.4826(2)
O7_2 O 0.38720(11) 0.91370(15) 0.4891(3)
N3_2 N 0.47714(11) 0.76970(15) 0.3344(2)
O3_3 O 0.87290(11) 0.46295(13) 0.2326(2)
O4_3 O 0.89866(16) 0.35755(19) 0.1117(3)
H1_3 H 0.8843 0.3376 0.0488
H2_3 H 0.6123 0.5514 0.0430
N2_3 N 0.77286(11) 0.51970(15) 0.0844(2)
C3_3 C 0.81013(15) 0.44947(19) 0.0561(3)
C4_3 C 0.86363(16) 0.42234(19) 0.1391(3)
H4_3 H 0.6970 0.6457 0.0446
Zn3_3 Zn 0.795731(15) 0.567346(18) 0.24562(3)
O1_3 O 0.78739(12) 0.34401(15) 0.7699(2)
O2_3 O 0.85957(16) 0.30390(18) 0.9138(3)
O5_3 O 0.61280(11) 0.58630(15) 0.9891(3)
N1_3 N 0.73960(12) 0.47337(13) 0.9050(2)
C1_3 C 0.81367(17) 0.3517(2) 0.8716(3)
C2_3 C 0.78985(14) 0.42185(18) 0.9466(3)
C5_3 C 0.73175(12) 0.53195(15) 0.9909(3)
C6_3 C 0.68573(14) 0.60653(16) 0.9812(3)
H3_3 H 0.6943 0.6343 0.9053
O6_3 O 0.62710(11) 0.53705(13) 0.7326(2)
N3_3 N 0.72714(11) 0.48030(15) 0.5844(2)
O3_4 O 0.12710(11) 0.53705(13) 0.2326(2)
O4_4 O 0.10134(16) 0.64245(19) 0.1117(3)
H1_4 H 0.1157 0.6624 0.0488
H2_4 H 0.3877 0.4486 0.0430
N2_4 N 0.22714(11) 0.48030(15) 0.0844(2)
C3_4 C 0.18987(15) 0.55053(19) 0.0561(3)
C4_4 C 0.13637(16) 0.57766(19) 0.1391(3)
H4_4 H 0.3030 0.3543 0.0446
Zn3_4 Zn 0.204269(15) 0.432654(18) 0.24562(3)
O1_4 O 0.21261(12) 0.65599(15) 0.7699(2)
O2_4 O 0.14043(16) 0.69610(18) 0.9138(3)
O5_4 O 0.38720(11) 0.41370(15) 0.9891(3)
N1_4 N 0.26040(12) 0.52663(13) 0.9050(2)
C1_4 C 0.18633(17) 0.6483(2) 0.8716(3)
C2_4 C 0.21015(14) 0.57815(18) 0.9466(3)
C5_4 C 0.26825(12) 0.46805(15) 0.9909(3)
C6_4 C 0.31427(14) 0.39347(16) 0.9812(3)
H3_4 H 0.3057 0.3657 0.9053
O6_4 O 0.37290(11) 0.46295(13) 0.7326(2)
N3_4 N 0.27286(11) 0.51970(15) 0.5844(2)
O1_5 O 0.46261(12) 0.59401(15) 0.0199(2)
O2_5 O 0.39043(16) 0.55390(18) 0.1638(3)
O4_5 O 0.35134(16) 0.60755(19) 0.3617(3)
H1_5 H 0.3657 0.5876 0.2988
O5_5 O 0.63720(11) 0.83630(15) 0.2391(3)
H2_5 H 0.6377 0.8014 0.2930
N1_5 N 0.51040(12) 0.72337(13) 0.1550(2)
C1_5 C 0.43633(17) 0.6017(2) 0.1216(3)
C2_5 C 0.46015(14) 0.67185(18) 0.1966(3)
C3_5 C 0.43987(15) 0.69947(19) 0.3061(3)
C4_5 C 0.38637(16) 0.67234(19) 0.3891(3)
C5_5 C 0.51825(12) 0.78195(15) 0.2409(3)
C6_5 C 0.56427(14) 0.85653(16) 0.2312(3)
H3_5 H 0.5557 0.8843 0.1553
H4_5 H 0.5530 0.8957 0.2946
Zn2_3 Zn 0.704269(15) 0.932654(18) 0.24562(3)
O1_6 O 0.53739(12) 0.40599(15) 0.0199(2)
O2_6 O 0.60957(16) 0.44610(18) 0.1638(3)
O4_6 O 0.64866(16) 0.39245(19) 0.3617(3)
H1_6 H 0.6343 0.4124 0.2988
O5_6 O 0.36280(11) 0.16370(15) 0.2391(3)
H2_6 H 0.3623 0.1986 0.2930
N1_6 N 0.48960(12) 0.27663(13) 0.1550(2)
C1_6 C 0.56367(17) 0.3983(2) 0.1216(3)
C2_6 C 0.53985(14) 0.32815(18) 0.1966(3)
C3_6 C 0.56013(15) 0.30053(19) 0.3061(3)
C4_6 C 0.61363(16) 0.32766(19) 0.3891(3)
C5_6 C 0.48175(12) 0.21805(15) 0.2409(3)
C6_6 C 0.43573(14) 0.14347(16) 0.2312(3)
H3_6 H 0.4443 0.1157 0.1553
H4_6 H 0.4470 0.1043 0.2946
Zn2_4 Zn 0.295731(15) 0.067346(18) 0.24562(3)
H2_7 H 0.6123 0.0514 0.5430
N2_5 N 0.77286(11) 0.01970(15) 0.5844(2)
C5_7 C 0.73175(12) 0.03195(15) 0.4909(3)
C6_7 C 0.68573(14) 0.10653(16) 0.4812(3)
H3_7 H 0.6943 0.1343 0.4053
H4_7 H 0.6970 0.1457 0.5446
Zn3_5 Zn 0.795731(15) 0.067346(18) 0.74562(3)
O6_5 O 0.62710(11) 0.03705(13) 0.2326(2)
O1_7 O 0.78739(12) 0.84401(15) 0.2699(2)
O2_7 O 0.85957(16) 0.80390(18) 0.4138(3)
O3_5 O 0.87290(11) 0.96295(13) 0.7326(2)
O4_7 O 0.89866(16) 0.85755(19) 0.6117(3)
H1_7 H 0.8843 0.8376 0.5488
N1_7 N 0.73960(12) 0.97337(13) 0.4050(2)
C1_7 C 0.81367(17) 0.8517(2) 0.3716(3)
C2_7 C 0.78985(14) 0.92185(18) 0.4466(3)
C3_7 C 0.81013(15) 0.94947(19) 0.5561(3)
C4_7 C 0.86363(16) 0.92234(19) 0.6391(3)
N3_5 N 0.72714(11) 0.98030(15) 0.0844(2)
O1_8 O 0.21261(12) 0.15599(15) 0.2699(2)
O2_8 O 0.14043(16) 0.19610(18) 0.4138(3)
O3_6 O 0.12710(11) 0.03705(13) 0.7326(2)
O4_8 O 0.10134(16) 0.14245(19) 0.6117(3)
H1_8 H 0.1157 0.1624 0.5488
N1_8 N 0.26040(12) 0.02663(13) 0.4050(2)
C1_8 C 0.18633(17) 0.1483(2) 0.3716(3)
C2_8 C 0.21015(14) 0.07815(18) 0.4466(3)
C3_8 C 0.18987(15) 0.05053(19) 0.5561(3)
C4_8 C 0.13637(16) 0.07766(19) 0.6391(3)
N3_6 N 0.27286(11) 0.01970(15) 0.0844(2)
H2_8 H 0.3877 0.9486 0.5430
N2_6 N 0.22714(11) 0.98030(15) 0.5844(2)
C5_8 C 0.26825(12) 0.96805(15) 0.4909(3)
C6_8 C 0.31427(14) 0.89347(16) 0.4812(3)
H3_8 H 0.3057 0.8657 0.4053
H4_8 H 0.3030 0.8543 0.5446
Zn3_6 Zn 0.204269(15) 0.932654(18) 0.74562(3)
O6_6 O 0.37290(11) 0.96295(13) 0.2326(2)
O5_7 O 0.13720(11) 0.33630(15) 0.2391(3)
H2_9 H 0.1377 0.3014 0.2930
N1_9 N 0.01040(12) 0.22337(13) 0.1550(2)
C5_9 C 0.01825(12) 0.28195(15) 0.2409(3)
C6_9 C 0.06427(14) 0.35653(16) 0.2312(3)
H3_9 H 0.0557 0.3843 0.1553
H4_9 H 0.0530 0.3957 0.2946
Zn1_3 Zn 0.045731(15) 0.182654(18) 0.99562(3)
O6_7 O 0.12290(11) 0.28705(13) 0.9826(2)
O7_3 O 0.11280(11) 0.08630(15) 0.9891(3)
N3_7 N 0.02286(11) 0.23030(15) 0.8344(2)
O1_9 O 0.96261(12) 0.09401(15) 0.0199(2)
O2_9 O 0.89043(16) 0.05390(18) 0.1638(3)
O3_7 O 0.87710(11) 0.21295(13) 0.4826(2)
O4_9 O 0.85134(16) 0.10755(19) 0.3617(3)
H1_9 H 0.8657 0.0876 0.2988
N2_7 N 0.97714(11) 0.26970(15) 0.3344(2)
C1_9 C 0.93633(17) 0.1017(2) 0.1216(3)
C2_9 C 0.96015(14) 0.17185(18) 0.1966(3)
C3_9 C 0.93987(15) 0.19947(19) 0.3061(3)
C4_9 C 0.88637(16) 0.17234(19) 0.3891(3)
Zn3_7 Zn 0.954269(15) 0.317346(18) 0.49562(3)
O1_10 O 0.03739(12) 0.90599(15) 0.0199(2)
O2_10 O 0.10957(16) 0.94610(18) 0.1638(3)
O3_8 O 0.12290(11) 0.78705(13) 0.4826(2)
O4_10 O 0.14866(16) 0.89245(19) 0.3617(3)
H1_10 H 0.1343 0.9124 0.2988
N2_8 N 0.02286(11) 0.73030(15) 0.3344(2)
C1_10 C 0.06367(17) 0.8983(2) 0.1216(3)
C2_10 C 0.03985(14) 0.82815(18) 0.1966(3)
C3_10 C 0.06013(15) 0.80053(19) 0.3061(3)
C4_10 C 0.11363(16) 0.82766(19) 0.3891(3)
Zn3_8 Zn 0.045731(15) 0.682654(18) 0.49562(3)
O5_8 O 0.86280(11) 0.66370(15) 0.2391(3)
H2_10 H 0.8623 0.6986 0.2930
N1_10 N 0.98960(12) 0.77663(13) 0.1550(2)
C5_10 C 0.98175(12) 0.71805(15) 0.2409(3)
C6_10 C 0.93573(14) 0.64347(16) 0.2312(3)
H3_10 H 0.9443 0.6157 0.1553
H4_10 H 0.9470 0.6043 0.2946
Zn1_4 Zn 0.954269(15) 0.817346(18) 0.99562(3)
O6_8 O 0.87710(11) 0.71295(13) 0.9826(2)
O7_4 O 0.88720(11) 0.91370(15) 0.9891(3)
N3_8 N 0.97714(11) 0.76970(15) 0.8344(2)
O1_11 O 0.28739(12) 0.34401(15) 0.2699(2)
O2_11 O 0.35957(16) 0.30390(18) 0.4138(3)
O4_11 O 0.39866(16) 0.35755(19) 0.6117(3)
H1_11 H 0.3843 0.3376 0.5488
O5_9 O 0.11280(11) 0.58630(15) 0.4891(3)
H2_11 H 0.1123 0.5514 0.5430
N1_11 N 0.23960(12) 0.47337(13) 0.4050(2)
C1_11 C 0.31367(17) 0.3517(2) 0.3716(3)
C2_11 C 0.28985(14) 0.42185(18) 0.4466(3)
C3_11 C 0.31013(15) 0.44947(19) 0.5561(3)
C4_11 C 0.36363(16) 0.42234(19) 0.6391(3)
C5_11 C 0.23175(12) 0.53195(15) 0.4909(3)
C6_11 C 0.18573(14) 0.60653(16) 0.4812(3)
H3_11 H 0.1943 0.6343 0.4053
H4_11 H 0.1970 0.6457 0.5446
O1_12 O 0.71261(12) 0.65599(15) 0.2699(2)
O2_12 O 0.64043(16) 0.69610(18) 0.4138(3)
O4_12 O 0.60134(16) 0.64245(19) 0.6117(3)
H1_12 H 0.6157 0.6624 0.5488
O5_10 O 0.88720(11) 0.41370(15) 0.4891(3)
H2_12 H 0.8877 0.4486 0.5430
N1_12 N 0.76040(12) 0.52663(13) 0.4050(2)
C1_12 C 0.68633(17) 0.6483(2) 0.3716(3)
C2_12 C 0.71015(14) 0.57815(18) 0.4466(3)
C3_12 C 0.68987(15) 0.55053(19) 0.5561(3)
C4_12 C 0.63637(16) 0.57766(19) 0.6391(3)
C5_12 C 0.76825(12) 0.46805(15) 0.4909(3)
C6_12 C 0.81427(14) 0.39347(16) 0.4812(3)
H3_12 H 0.8057 0.3657 0.4053
H4_12 H 0.8030 0.3543 0.5446
O5_11 O 0.13720(11) 0.83630(15) 0.7391(3)
H2_13 H 0.1377 0.8014 0.7930
N1_13 N 0.01040(12) 0.72337(13) 0.6550(2)
C5_13 C 0.01825(12) 0.78195(15) 0.7409(3)
C6_13 C 0.06427(14) 0.85653(16) 0.7312(3)
H3_13 H 0.0557 0.8843 0.6553
H4_13 H 0.0530 0.8957 0.7946
O1_13 O 0.96261(12) 0.59401(15) 0.5199(2)
O2_13 O 0.89043(16) 0.55390(18) 0.6638(3)
O4_13 O 0.85134(16) 0.60755(19) 0.8617(3)
H1_13 H 0.8657 0.5876 0.7988
C1_13 C 0.93633(17) 0.6017(2) 0.6216(3)
C2_13 C 0.96015(14) 0.67185(18) 0.6966(3)
C3_13 C 0.93987(15) 0.69947(19) 0.8061(3)
C4_13 C 0.88637(16) 0.67234(19) 0.8891(3)
O1_14 O 0.03739(12) 0.40599(15) 0.5199(2)
O2_14 O 0.10957(16) 0.44610(18) 0.6638(3)
O4_14 O 0.14866(16) 0.39245(19) 0.8617(3)
H1_14 H 0.1343 0.4124 0.7988
C1_14 C 0.06367(17) 0.3983(2) 0.6216(3)
C2_14 C 0.03985(14) 0.32815(18) 0.6966(3)
C3_14 C 0.06013(15) 0.30053(19) 0.8061(3)
C4_14 C 0.11363(16) 0.32766(19) 0.8891(3)
O5_12 O 0.86280(11) 0.16370(15) 0.7391(3)
H2_14 H 0.8623 0.1986 0.7930
N1_14 N 0.98960(12) 0.27663(13) 0.6550(2)
C5_14 C 0.98175(12) 0.21805(15) 0.7409(3)
C6_14 C 0.93573(14) 0.14347(16) 0.7312(3)
H3_14 H 0.9443 0.1157 0.6553
H4_14 H 0.9470 0.1043 0.7946
H2_15 H 0.1123 0.0514 0.0430
H4_15 H 0.1970 0.1457 0.0446
C5_15 C 0.23175(12) 0.03195(15) 0.9909(3)
C6_15 C 0.18573(14) 0.10653(16) 0.9812(3)
H3_15 H 0.1943 0.1343 0.9053
O4_15 O 0.39866(16) 0.85755(19) 0.1117(3)
H1_15 H 0.3843 0.8376 0.0488
C3_15 C 0.31013(15) 0.94947(19) 0.0561(3)
C4_15 C 0.36363(16) 0.92234(19) 0.1391(3)
O1_15 O 0.28739(12) 0.84401(15) 0.7699(2)
O2_15 O 0.35957(16) 0.80390(18) 0.9138(3)
N1_15 N 0.23960(12) 0.97337(13) 0.9050(2)
C1_15 C 0.31367(17) 0.8517(2) 0.8716(3)
C2_15 C 0.28985(14) 0.92185(18) 0.9466(3)
O4_16 O 0.60134(16) 0.14245(19) 0.1117(3)
H1_16 H 0.6157 0.1624 0.0488
C3_16 C 0.68987(15) 0.05053(19) 0.0561(3)
C4_16 C 0.63637(16) 0.07766(19) 0.1391(3)
O1_16 O 0.71261(12) 0.15599(15) 0.7699(2)
O2_16 O 0.64043(16) 0.19610(18) 0.9138(3)
N1_16 N 0.76040(12) 0.02663(13) 0.9050(2)
C1_16 C 0.68633(17) 0.1483(2) 0.8716(3)
C2_16 C 0.71015(14) 0.07815(18) 0.9466(3)
H2_16 H 0.8877 0.9486 0.0430
H4_16 H 0.8030 0.8543 0.0446
C5_16 C 0.76825(12) 0.96805(15) 0.9909(3)
C6_16 C 0.81427(14) 0.89347(16) 0.9812(3)
H3_16 H 0.8057 0.8657 0.9053
loop_
_geom_bond_atom_site_label_1
_geom_bond_atom_site_label_2
_geom_bond_site_symmetry_1
_geom_bond_site_symmetry_2
Zn1 O1 1_555 1_555
O1 C1 1_555 1_555
O2 C1 1_555 1_555
O3 C4 1_555 1_555
O4 H1 1_555 1_555
O5 H2 1_555 1_555
N1 Zn1 1_555 1_555
N2 C3 1_555 1_555
C1 C2 1_555 1_555
C2 N1 1_555 1_555
C3 C2 1_555 1_555
C4 O4 1_555 1_555
C5 N1 1_555 1_555
C6 O5 1_555 1_555
H3 C6 1_555 1_555
H4 C6 1_555 1_555
Zn2 O5 1_555 1_555
Zn3 O3 1_555 1_555
O6 Zn1 1_555 1_555
O7 Zn1 1_555 1_555
N3 Zn1 1_555 1_555
N2 C5 1_555 1_555
N2 Zn3 1_555 1_555
C3 C4 1_555 1_555
C5 C6 1_555 1_555
Zn1_2 O1_2 1_555 1_555
O1_2 C1_2 1_555 1_555
O2_2 C1_2 1_555 1_555
O3_2 C4_2 1_555 1_555
O4_2 H1_2 1_555 1_555
O5_2 H2_2 1_555 1_555
N1_2 Zn1_2 1_555 1_555
N2_2 C3_2 1_555 1_555
C1_2 C2_2 1_555 1_555
C2_2 N1_2 1_555 1_555
C3_2 C2_2 1_555 1_555
C4_2 O4_2 1_555 1_555
C5_2 N1_2 1_555 1_555
C6_2 O5_2 1_555 1_555
H3_2 C6_2 1_555 1_555
H4_2 C6_2 1_555 1_555
Zn2_2 O5_2 1_555 1_555
Zn3_2 O3_2 1_555 1_555
O6_2 Zn1_2 1_555 1_555
O7_2 Zn1_2 1_555 1_555
N3_2 Zn1_2 1_555 1_555
N2_2 C5_2 1_555 1_555
N2_2 Zn3_2 1_555 1_555
C3_2 C4_2 1_555 1_555
C5_2 C6_2 1_555 1_555
O3_3 C4_3 1_555 1_555
O4_3 H1_3 1_555 1_555
N2_3 C3_3 1_555 1_555
C4_3 O4_3 1_555 1_555
Zn3_3 O3_3 1_555 1_555
N2_3 Zn3_3 1_555 1_555
C3_3 C4_3 1_555 1_555
Zn2 O1_3 1_555 1_555
O1_3 C1_3 1_555 1_555
O2_3 C1_3 1_555 1_555
N1_3 Zn2 1_555 1_555
C1_3 C2_3 1_555 1_555
C2_3 N1_3 1_555 1_555
C5_3 N1_3 1_555 1_555
C6_3 O5_3 1_555 1_555
H3_3 C6_3 1_555 1_555
Zn3_2 O5_3 1_555 1_555
O6_3 Zn2 1_555 1_555
N3_3 Zn2 1_555 1_555
C5_3 C6_3 1_555 1_555
O3_4 C4_4 1_555 1_555
O4_4 H1_4 1_555 1_555
N2_4 C3_4 1_555 1_555
C4_4 O4_4 1_555 1_555
Zn3_4 O3_4 1_555 1_555
N2_4 Zn3_4 1_555 1_555
C3_4 C4_4 1_555 1_555
Zn2_2 O1_4 1_555 1_555
O1_4 C1_4 1_555 1_555
O2_4 C1_4 1_555 1_555
N1_4 Zn2_2 1_555 1_555
C1_4 C2_4 1_555 1_555
C2_4 N1_4 1_555 1_555
C5_4 N1_4 1_555 1_555
C6_4 O5_4 1_555 1_555
H3_4 C6_4 1_555 1_555
Zn3 O5_4 1_555 1_555
O6_4 Zn2_2 1_555 1_555
N3_4 Zn2_2 1_555 1_555
C5_4 C6_4 1_555 1_555
O1_5 C1_5 1_555 1_555
O2_5 C1_5 1_555 1_555
O6_2 C4_5 1_555 1_555
O4_5 H1_5 1_555 1_555
O5_5 H2_5 1_555 1_555
N3_2 C3_5 1_555 1_555
C1_5 C2_5 1_555 1_555
C2_5 N1_5 1_555 1_555
C3_5 C2_5 1_555 1_555
C4_5 O4_5 1_555 1_555
C5_5 N1_5 1_555 1_555
C6_5 O5_5 1_555 1_555
H3_5 C6_5 1_555 1_555
H4_5 C6_5 1_555 1_555
Zn2_3 O5_5 1_555 1_555
N3_2 C5_5 1_555 1_555
C3_5 C4_5 1_555 1_555
C5_5 C6_5 1_555 1_555
O1_6 C1_6 1_555 1_555
O2_6 C1_6 1_555 1_555
O6 C4_6 1_555 1_555
O4_6 H1_6 1_555 1_555
O5_6 H2_6 1_555 1_555
N3 C3_6 1_555 1_555
C1_6 C2_6 1_555 1_555
C2_6 N1_6 1_555 1_555
C3_6 C2_6 1_555 1_555
C4_6 O4_6 1_555 1_555
C5_6 N1_6 1_555 1_555
C6_6 O5_6 1_555 1_555
H3_6 C6_6 1_555 1_555
H4_6 C6_6 1_555 1_555
Zn2_4 O5_6 1_555 1_555
N3 C5_6 1_555 1_555
C3_6 C4_6 1_555 1_555
C5_6 C6_6 1_555 1_555
O7 H2_7 1_555 1_555
C6_7 O7 1_555 1_555
H3_7 C6_7 1_555 1_555
H4_7 C6_7 1_555 1_555
N2_5 C5_7 1_555 1_555
N2_5 Zn3_5 1_555 1_555
C5_7 C6_7 1_555 1_555
Zn2_3 O1_7 1_555 1_555
O1_7 C1_7 1_555 1_555
O2_7 C1_7 1_555 1_555
O3_5 C4_7 1_555 1_555
O4_7 H1_7 1_555 1_555
N1_7 Zn2_3 1_555 1_555
C1_7 C2_7 1_555 1_555
C2_7 N1_7 1_555 1_555
C3_7 C2_7 1_555 1_555
C4_7 O4_7 1_555 1_555
N3_5 Zn2_3 1_555 1_555
C3_7 C4_7 1_555 1_555
Zn2_4 O1_8 1_555 1_555
O1_8 C1_8 1_555 1_555
O2_8 C1_8 1_555 1_555
O3_6 C4_8 1_555 1_555
O4_8 H1_8 1_555 1_555
N1_8 Zn2_4 1_555 1_555
C1_8 C2_8 1_555 1_555
C2_8 N1_8 1_555 1_555
C3_8 C2_8 1_555 1_555
C4_8 O4_8 1_555 1_555
N3_6 Zn2_4 1_555 1_555
C3_8 C4_8 1_555 1_555
O7_2 H2_8 1_555 1_555
C6_8 O7_2 1_555 1_555
H3_8 C6_8 1_555 1_555
H4_8 C6_8 1_555 1_555
N2_6 C5_8 1_555 1_555
N2_6 Zn3_6 1_555 1_555
C5_8 C6_8 1_555 1_555
O5_7 H2_9 1_555 1_555
C5_9 N1_9 1_555 1_555
C6_9 O5_7 1_555 1_555
H3_9 C6_9 1_555 1_555
H4_9 C6_9 1_555 1_555
Zn3_4 O5_7 1_555 1_555
C5_9 C6_9 1_555 1_555
O6_7 Zn1_3 1_555 1_555
O7_3 Zn1_3 1_555 1_555
N3_7 Zn1_3 1_555 1_555
O1_9 C1_9 1_555 1_555
O2_9 C1_9 1_555 1_555
O3_7 C4_9 1_555 1_555
O4_9 H1_9 1_555 1_555
N2_7 C3_9 1_555 1_555
C1_9 C2_9 1_555 1_555
C3_9 C2_9 1_555 1_555
C4_9 O4_9 1_555 1_555
Zn3_7 O3_7 1_555 1_555
N2_7 Zn3_7 1_555 1_555
C3_9 C4_9 1_555 1_555
O1_10 C1_10 1_555 1_555
O2_10 C1_10 1_555 1_555
O3_8 C4_10 1_555 1_555
O4_10 H1_10 1_555 1_555
N2_8 C3_10 1_555 1_555
C1_10 C2_10 1_555 1_555
C3_10 C2_10 1_555 1_555
C4_10 O4_10 1_555 1_555
Zn3_8 O3_8 1_555 1_555
N2_8 Zn3_8 1_555 1_555
C3_10 C4_10 1_555 1_555
O5_8 H2_10 1_555 1_555
C5_10 N1_10 1_555 1_555
C6_10 O5_8 1_555 1_555
H3_10 C6_10 1_555 1_555
H4_10 C6_10 1_555 1_555
Zn3_3 O5_8 1_555 1_555
C5_10 C6_10 1_555 1_555
O6_8 Zn1_4 1_555 1_555
O7_4 Zn1_4 1_555 1_555
N3_8 Zn1_4 1_555 1_555
Zn3_4 O1_11 1_555 1_555
O1_11 C1_11 1_555 1_555
O2_11 C1_11 1_555 1_555
O6_4 C4_11 1_555 1_555
O4_11 H1_11 1_555 1_555
O5_9 H2_11 1_555 1_555
N1_11 Zn3_4 1_555 1_555
N3_4 C3_11 1_555 1_555
C1_11 C2_11 1_555 1_555
C2_11 N1_11 1_555 1_555
C3_11 C2_11 1_555 1_555
C4_11 O4_11 1_555 1_555
C5_11 N1_11 1_555 1_555
C6_11 O5_9 1_555 1_555
H3_11 C6_11 1_555 1_555
H4_11 C6_11 1_555 1_555
Zn3_8 O5_9 1_555 1_555
N3_4 C5_11 1_555 1_555
C3_11 C4_11 1_555 1_555
C5_11 C6_11 1_555 1_555
Zn3_3 O1_12 1_555 1_555
O1_12 C1_12 1_555 1_555
O2_12 C1_12 1_555 1_555
O6_3 C4_12 1_555 1_555
O4_12 H1_12 1_555 1_555
O5_10 H2_12 1_555 1_555
N1_12 Zn3_3 1_555 1_555
N3_3 C3_12 1_555 1_555
C1_12 C2_12 1_555 1_555
C2_12 N1_12 1_555 1_555
C3_12 C2_12 1_555 1_555
C4_12 O4_12 1_555 1_555
C5_12 N1_12 1_555 1_555
C6_12 O5_10 1_555 1_555
H3_12 C6_12 1_555 1_555
H4_12 C6_12 1_555 1_555
Zn3_7 O5_10 1_555 1_555
N3_3 C5_12 1_555 1_555
C3_12 C4_12 1_555 1_555
C5_12 C6_12 1_555 1_555
O5_11 H2_13 1_555 1_555
N1_13 Zn3_8 1_555 1_555
C5_13 N1_13 1_555 1_555
C6_13 O5_11 1_555 1_555
H3_13 C6_13 1_555 1_555
H4_13 C6_13 1_555 1_555
Zn3_6 O5_11 1_555 1_555
C5_13 C6_13 1_555 1_555
O1_13 C1_13 1_555 1_555
O2_13 C1_13 1_555 1_555
O6_8 C4_13 1_555 1_555
O4_13 H1_13 1_555 1_555
N3_8 C3_13 1_555 1_555
C1_13 C2_13 1_555 1_555
C3_13 C2_13 1_555 1_555
C4_13 O4_13 1_555 1_555
C3_13 C4_13 1_555 1_555
O1_14 C1_14 1_555 1_555
O2_14 C1_14 1_555 1_555
O6_7 C4_14 1_555 1_555
O4_14 H1_14 1_555 1_555
N3_7 C3_14 1_555 1_555
C1_14 C2_14 1_555 1_555
C3_14 C2_14 1_555 1_555
C4_14 O4_14 1_555 1_555
C3_14 C4_14 1_555 1_555
O5_12 H2_14 1_555 1_555
N1_14 Zn3_7 1_555 1_555
C5_14 N1_14 1_555 1_555
C6_14 O5_12 1_555 1_555
H3_14 C6_14 1_555 1_555
H4_14 C6_14 1_555 1_555
Zn3_5 O5_12 1_555 1_555
C5_14 C6_14 1_555 1_555
C6_15 O7_3 1_555 1_555
H3_15 C6_15 1_555 1_555
C5_15 C6_15 1_555 1_555
O6_6 C4_15 1_555 1_555
O4_15 H1_15 1_555 1_555
C4_15 O4_15 1_555 1_555
C3_15 C4_15 1_555 1_555
Zn3_6 O1_15 1_555 1_555
O1_15 C1_15 1_555 1_555
O2_15 C1_15 1_555 1_555
N1_15 Zn3_6 1_555 1_555
C1_15 C2_15 1_555 1_555
C2_15 N1_15 1_555 1_555
O6_5 C4_16 1_555 1_555
O4_16 H1_16 1_555 1_555
C4_16 O4_16 1_555 1_555
C3_16 C4_16 1_555 1_555
Zn3_5 O1_16 1_555 1_555
O1_16 C1_16 1_555 1_555
O2_16 C1_16 1_555 1_555
N1_16 Zn3_5 1_555 1_555
C1_16 C2_16 1_555 1_555
C2_16 N1_16 1_555 1_555
C6_16 O7_4 1_555 1_555
H3_16 C6_16 1_555 1_555
C5_16 C6_16 1_555 1_555

#END
