
###############################################################################
#
# This file contains modified crystal structure data generated from the
# MOF subset of the Cambridge Structural Database (CSD) v543 
# hosted by the Cambridge Crystallographic Data Centre (CCDC).
#
# This work is licensed under the Creative Commons
# Attribution-NonCommercial-ShareAlike 4.0 International License.
# To view a copy of this license, visit
# http://creativecommons.org/licenses/by-nc-sa/4.0/
# or send a letter to
# Creative Commons, PO Box 1866, Mountain View, CA 94042, USA.
#
# CIF created using the CSD Python API on 29 September 2022
# The structure has been converted into the P1 space group
# The structure has a 3D framework
# The original CSD entry LUVNUO is in the cubic crystal system
# The framework has been calculated to contain at least 10.0% void space
# The void calculation uses a probe of radius 1.32A, grid spacing 0.4
# H atom positions have been added when not included in the experimental data
#
###############################################################################

data_LUVNUO
_chemical_formula_moiety         '(C240 H144 N72 Ni8)n'
_symmetry_cell_setting           triclinic
_symmetry_space_group_name_H-M   'P 1'
_symmetry_Int_Tables_number      1
_space_group_name_Hall           'P 1'
loop_
_symmetry_equiv_pos_site_id
_symmetry_equiv_pos_as_xyz
1 x,y,z
_cell_length_a                   28.724(3)
_cell_length_b                   28.724(3)
_cell_length_c                   28.724(3)
_cell_angle_alpha                90
_cell_angle_beta                 90
_cell_angle_gamma                90
_cell_volume                     23699.3
loop_
_atom_site_label
_atom_site_type_symbol
_atom_site_fract_x
_atom_site_fract_y
_atom_site_fract_z
Ni1 Ni 0.0000 0.5000 0.4204(3)
N1 N 0.0472(4) 0.4525(4) 0.4199(4)
N2 N 0.2797(6) 0.2797(6) 0.3327(10)
C1 C 0.0783(6) 0.4446(6) 0.3859(6)
C2 C 0.1999(7) 0.3167(7) 0.3779(7)
C3 C 0.1644(7) 0.3416(6) 0.4005(6)
C4 C 0.1006(9) 0.4032(6) 0.4032(6)
C5 C 0.1439(7) 0.3812(5) 0.3812(5)
C6 C 0.2597(12) 0.3159(7) 0.3159(7)
C7 C 0.2177(10) 0.3374(6) 0.3374(6)
N3 N 0.4199(4) 0.0472(4) 0.4525(4)
N4 N 0.3327(10) 0.2797(6) 0.2797(6)
C8 C 0.3859(6) 0.0783(6) 0.4446(6)
C9 C 0.3779(7) 0.1999(7) 0.3167(7)
C10 C 0.4005(6) 0.1644(7) 0.3416(6)
C11 C 0.4032(6) 0.1006(9) 0.4032(6)
C12 C 0.3812(5) 0.1439(7) 0.3812(5)
C13 C 0.3159(7) 0.2597(12) 0.3159(7)
C14 C 0.3374(6) 0.2177(10) 0.3374(6)
N5 N 0.4525(4) 0.4199(4) 0.0472(4)
N6 N 0.2797(6) 0.3327(10) 0.2797(6)
C15 C 0.4446(6) 0.3859(6) 0.0783(6)
C16 C 0.3167(7) 0.3779(7) 0.1999(7)
C17 C 0.3416(6) 0.4005(6) 0.1644(7)
C18 C 0.4032(6) 0.4032(6) 0.1006(9)
C19 C 0.3812(5) 0.3812(5) 0.1439(7)
C20 C 0.3159(7) 0.3159(7) 0.2597(12)
C21 C 0.3374(6) 0.3374(6) 0.2177(10)
N7 N 0.4525(4) 0.0472(4) 0.4199(4)
C22 C 0.4446(6) 0.0783(6) 0.3859(6)
C23 C 0.3167(7) 0.1999(7) 0.3779(7)
C24 C 0.3416(6) 0.1644(7) 0.4005(6)
N8 N 0.0472(4) 0.4199(4) 0.4525(4)
C25 C 0.0783(6) 0.3859(6) 0.4446(6)
C26 C 0.1999(7) 0.3779(7) 0.3167(7)
C27 C 0.1644(7) 0.4005(6) 0.3416(6)
N9 N 0.4199(4) 0.4525(4) 0.0472(4)
C28 C 0.3859(6) 0.4446(6) 0.0783(6)
C29 C 0.3779(7) 0.3167(7) 0.1999(7)
C30 C 0.4005(6) 0.3416(6) 0.1644(7)
Ni2 Ni 0.0000 0.4204(3) 0.5000
Ni3 Ni -0.0000 0.5796(3) 0.5000
Ni4 Ni -0.0000 0.5000 0.5796(3)
Ni5 Ni 0.4204(3) 0.0000 0.5000
Ni7 Ni 0.5000 0.4204(3) 0.0000
Ni10 Ni 0.5000 0.0000 0.4204(3)
Ni11 Ni 0.4204(3) 0.5000 0.0000
N19 N 0.0472(4) 0.4199(4) 0.5475(4)
N22 N 0.0472(4) 0.5801(4) 0.4525(4)
N23 N 0.0472(4) 0.5475(4) 0.4199(4)
N25 N 0.0472(4) 0.5801(4) 0.5475(4)
H1 H 0.434386 0.15241 0.329543
H2 H 0.0848364 0.464113 0.354059
H3 H 0.283511 0.390955 0.212761
H4 H 0.15241 0.329543 0.434386
H5 H 0.464113 0.354059 0.0848364
H6 H 0.329543 0.434386 0.15241
H7 H 0.464113 0.0848364 0.354059
H8 H 0.212761 0.283511 0.390955
H9 H 0.390955 0.212761 0.283511
H10 H 0.354059 0.0848364 0.464113
H11 H 0.390955 0.283511 0.212761
H12 H 0.15241 0.434386 0.329543
H13 H 0.212761 0.390955 0.283511
H14 H 0.434386 0.329543 0.15241
H15 H 0.0848364 0.354059 0.464113
H16 H 0.354059 0.464113 0.0848364
H18 H 0.283511 0.212761 0.390955
H21 H 0.329543 0.15241 0.434386
Ni7_2 Ni 0.5000 0.4204(3) 1.0000
Ni11_2 Ni 0.4204(3) 0.5000 1.0000
Ni5_2 Ni 0.4204(3) 1.0000 0.5000
Ni10_2 Ni 0.5000 1.0000 0.4204(3)
Ni6 Ni 0.5796(3) 0.0000 0.5000
Ni1_2 Ni 1.0000 0.5000 0.4204(3)
Ni2_2 Ni 1.0000 0.4204(3) 0.5000
Ni3_2 Ni 1.0000 0.5796(3) 0.5000
N10 N 0.9528(4) 0.5475(4) 0.4199(4)
N11 N 0.7203(6) 0.7203(6) 0.3327(10)
C31 C 0.9217(6) 0.5554(6) 0.3859(6)
C32 C 0.8001(7) 0.6833(7) 0.3779(7)
C33 C 0.8356(7) 0.6584(6) 0.4005(6)
C34 C 0.8994(9) 0.5968(6) 0.4032(6)
C35 C 0.8561(7) 0.6188(5) 0.3812(5)
C36 C 0.7403(12) 0.6841(7) 0.3159(7)
C37 C 0.7823(10) 0.6626(6) 0.3374(6)
N12 N 0.5801(4) 0.9528(4) 0.4525(4)
N13 N 0.6673(10) 0.7203(6) 0.2797(6)
C38 C 0.6141(6) 0.9217(6) 0.4446(6)
C39 C 0.6221(7) 0.8001(7) 0.3167(7)
C40 C 0.5995(6) 0.8356(7) 0.3416(6)
C41 C 0.5968(6) 0.8994(9) 0.4032(6)
C42 C 0.6188(5) 0.8561(7) 0.3812(5)
C43 C 0.6841(7) 0.7403(12) 0.3159(7)
C44 C 0.6626(6) 0.7823(10) 0.3374(6)
N14 N 0.5475(4) 0.5801(4) 0.0472(4)
N15 N 0.7203(6) 0.6673(10) 0.2797(6)
C45 C 0.5554(6) 0.6141(6) 0.0783(6)
C46 C 0.6833(7) 0.6221(7) 0.1999(7)
C47 C 0.6584(6) 0.5995(6) 0.1644(7)
C48 C 0.5968(6) 0.5968(6) 0.1006(9)
C49 C 0.6188(5) 0.6188(5) 0.1439(7)
C50 C 0.6841(7) 0.6841(7) 0.2597(12)
C51 C 0.6626(6) 0.6626(6) 0.2177(10)
N16 N 0.5475(4) 0.9528(4) 0.4199(4)
C52 C 0.5554(6) 0.9217(6) 0.3859(6)
C53 C 0.6833(7) 0.8001(7) 0.3779(7)
C54 C 0.6584(6) 0.8356(7) 0.4005(6)
N17 N 0.9528(4) 0.5801(4) 0.4525(4)
C55 C 0.9217(6) 0.6141(6) 0.4446(6)
C56 C 0.8001(7) 0.6221(7) 0.3167(7)
C57 C 0.8356(7) 0.5995(6) 0.3416(6)
N18 N 0.5801(4) 0.5475(4) 0.0472(4)
C58 C 0.6141(6) 0.5554(6) 0.0783(6)
C59 C 0.6221(7) 0.6833(7) 0.1999(7)
C60 C 0.5995(6) 0.6584(6) 0.1644(7)
Ni4_2 Ni 1.0000 0.5000 0.5796(3)
Ni6_2 Ni 0.5796(3) 1.0000 0.5000
Ni8 Ni 0.5000 0.5796(3) 0.0000
Ni12 Ni 0.5796(3) 0.5000 0.0000
N20 N 0.9528(4) 0.4199(4) 0.4525(4)
N21 N 0.9528(4) 0.5801(4) 0.5475(4)
N24 N 0.9528(4) 0.4525(4) 0.4199(4)
N26 N 0.9528(4) 0.4199(4) 0.5475(4)
H17 H 0.915164 0.535887 0.354059
H19 H 0.787239 0.716489 0.390955
H20 H 0.84759 0.670457 0.434386
H22 H 0.645941 0.915164 0.464113
H23 H 0.609045 0.787239 0.283511
H24 H 0.565614 0.84759 0.329543
H25 H 0.670457 0.565614 0.15241
H26 H 0.716489 0.609045 0.212761
H27 H 0.535887 0.915164 0.354059
H28 H 0.716489 0.787239 0.390955
H29 H 0.670457 0.84759 0.434386
H30 H 0.915164 0.645941 0.464113
H31 H 0.787239 0.609045 0.283511
H32 H 0.84759 0.565614 0.329543
H33 H 0.535887 0.645941 0.0848364
H34 H 0.645941 0.535887 0.0848364
H35 H 0.565614 0.670457 0.15241
H36 H 0.609045 0.716489 0.212761
Ni8_2 Ni 0.5000 0.5796(3) 1.0000
Ni12_2 Ni 0.5796(3) 0.5000 1.0000
Ni9 Ni 0.5000 0.0000 0.5796(3)
N10_2 N 0.0472(4) 0.5475(4) 0.5801(4)
N11_2 N 0.2797(6) 0.7203(6) 0.6673(10)
C31_2 C 0.0783(6) 0.5554(6) 0.6141(6)
C32_2 C 0.1999(7) 0.6833(7) 0.6221(7)
C33_2 C 0.1644(7) 0.6584(6) 0.5995(6)
C34_2 C 0.1006(9) 0.5968(6) 0.5968(6)
C35_2 C 0.1439(7) 0.6188(5) 0.6188(5)
C36_2 C 0.2597(12) 0.6841(7) 0.6841(7)
C37_2 C 0.2177(10) 0.6626(6) 0.6626(6)
N12_2 N 0.4199(4) 0.9528(4) 0.5475(4)
N13_2 N 0.3327(10) 0.7203(6) 0.7203(6)
C38_2 C 0.3859(6) 0.9217(6) 0.5554(6)
C39_2 C 0.3779(7) 0.8001(7) 0.6833(7)
C40_2 C 0.4005(6) 0.8356(7) 0.6584(6)
C41_2 C 0.4032(6) 0.8994(9) 0.5968(6)
C42_2 C 0.3812(5) 0.8561(7) 0.6188(5)
C43_2 C 0.3159(7) 0.7403(12) 0.6841(7)
C44_2 C 0.3374(6) 0.7823(10) 0.6626(6)
N14_2 N 0.4525(4) 0.5801(4) 0.9528(4)
N15_2 N 0.2797(6) 0.6673(10) 0.7203(6)
C45_2 C 0.4446(6) 0.6141(6) 0.9217(6)
C46_2 C 0.3167(7) 0.6221(7) 0.8001(7)
C47_2 C 0.3416(6) 0.5995(6) 0.8356(7)
C48_2 C 0.4032(6) 0.5968(6) 0.8994(9)
C49_2 C 0.3812(5) 0.6188(5) 0.8561(7)
C50_2 C 0.3159(7) 0.6841(7) 0.7403(12)
C51_2 C 0.3374(6) 0.6626(6) 0.7823(10)
N16_2 N 0.4525(4) 0.9528(4) 0.5801(4)
C52_2 C 0.4446(6) 0.9217(6) 0.6141(6)
C53_2 C 0.3167(7) 0.8001(7) 0.6221(7)
C54_2 C 0.3416(6) 0.8356(7) 0.5995(6)
C55_2 C 0.0783(6) 0.6141(6) 0.5554(6)
C56_2 C 0.1999(7) 0.6221(7) 0.6833(7)
C57_2 C 0.1644(7) 0.5995(6) 0.6584(6)
N18_2 N 0.4199(4) 0.5475(4) 0.9528(4)
C58_2 C 0.3859(6) 0.5554(6) 0.9217(6)
C59_2 C 0.3779(7) 0.6833(7) 0.8001(7)
C60_2 C 0.4005(6) 0.6584(6) 0.8356(7)
Ni9_2 Ni 0.5000 1.0000 0.5796(3)
N24_2 N 0.0472(4) 0.4525(4) 0.5801(4)
H17_2 H 0.0848364 0.535887 0.645941
H19_2 H 0.212761 0.716489 0.609045
H20_2 H 0.15241 0.670457 0.565614
H22_2 H 0.354059 0.915164 0.535887
H23_2 H 0.390955 0.787239 0.716489
H24_2 H 0.434386 0.84759 0.670457
H25_2 H 0.329543 0.565614 0.84759
H26_2 H 0.283511 0.609045 0.787239
H27_2 H 0.464113 0.915164 0.645941
H28_2 H 0.283511 0.787239 0.609045
H29_2 H 0.329543 0.84759 0.565614
H30_2 H 0.0848364 0.645941 0.535887
H31_2 H 0.212761 0.609045 0.716489
H32_2 H 0.15241 0.565614 0.670457
H33_2 H 0.464113 0.645941 0.915164
H34_2 H 0.354059 0.535887 0.915164
H35_2 H 0.434386 0.670457 0.84759
H36_2 H 0.390955 0.716489 0.787239
N1_2 N 0.9528(4) 0.4525(4) 0.5801(4)
N2_2 N 0.7203(6) 0.2797(6) 0.6673(10)
C1_2 C 0.9217(6) 0.4446(6) 0.6141(6)
C2_2 C 0.8001(7) 0.3167(7) 0.6221(7)
C3_2 C 0.8356(7) 0.3416(6) 0.5995(6)
C4_2 C 0.8994(9) 0.4032(6) 0.5968(6)
C5_2 C 0.8561(7) 0.3812(5) 0.6188(5)
C6_2 C 0.7403(12) 0.3159(7) 0.6841(7)
C7_2 C 0.7823(10) 0.3374(6) 0.6626(6)
N3_2 N 0.5801(4) 0.0472(4) 0.5475(4)
N4_2 N 0.6673(10) 0.2797(6) 0.7203(6)
C8_2 C 0.6141(6) 0.0783(6) 0.5554(6)
C9_2 C 0.6221(7) 0.1999(7) 0.6833(7)
C10_2 C 0.5995(6) 0.1644(7) 0.6584(6)
C11_2 C 0.5968(6) 0.1006(9) 0.5968(6)
C12_2 C 0.6188(5) 0.1439(7) 0.6188(5)
C13_2 C 0.6841(7) 0.2597(12) 0.6841(7)
C14_2 C 0.6626(6) 0.2177(10) 0.6626(6)
N5_2 N 0.5475(4) 0.4199(4) 0.9528(4)
N6_2 N 0.7203(6) 0.3327(10) 0.7203(6)
C15_2 C 0.5554(6) 0.3859(6) 0.9217(6)
C16_2 C 0.6833(7) 0.3779(7) 0.8001(7)
C17_2 C 0.6584(6) 0.4005(6) 0.8356(7)
C18_2 C 0.5968(6) 0.4032(6) 0.8994(9)
C19_2 C 0.6188(5) 0.3812(5) 0.8561(7)
C20_2 C 0.6841(7) 0.3159(7) 0.7403(12)
C21_2 C 0.6626(6) 0.3374(6) 0.7823(10)
N7_2 N 0.5475(4) 0.0472(4) 0.5801(4)
C22_2 C 0.5554(6) 0.0783(6) 0.6141(6)
C23_2 C 0.6833(7) 0.1999(7) 0.6221(7)
C24_2 C 0.6584(6) 0.1644(7) 0.5995(6)
C25_2 C 0.9217(6) 0.3859(6) 0.5554(6)
C26_2 C 0.8001(7) 0.3779(7) 0.6833(7)
C27_2 C 0.8356(7) 0.4005(6) 0.6584(6)
N9_2 N 0.5801(4) 0.4525(4) 0.9528(4)
C28_2 C 0.6141(6) 0.4446(6) 0.9217(6)
C29_2 C 0.6221(7) 0.3167(7) 0.8001(7)
C30_2 C 0.5995(6) 0.3416(6) 0.8356(7)
N23_2 N 0.9528(4) 0.5475(4) 0.5801(4)
H1_2 H 0.565614 0.15241 0.670457
H2_2 H 0.915164 0.464113 0.645941
H3_2 H 0.716489 0.390955 0.787239
H4_2 H 0.84759 0.329543 0.565614
H5_2 H 0.535887 0.354059 0.915164
H6_2 H 0.670457 0.434386 0.84759
H7_2 H 0.535887 0.0848364 0.645941
H8_2 H 0.787239 0.283511 0.609045
H9_2 H 0.609045 0.212761 0.716489
H10_2 H 0.645941 0.0848364 0.535887
H11_2 H 0.609045 0.283511 0.787239
H12_2 H 0.84759 0.434386 0.670457
H13_2 H 0.787239 0.390955 0.716489
H14_2 H 0.565614 0.329543 0.84759
H15_2 H 0.915164 0.354059 0.535887
H16_2 H 0.645941 0.464113 0.915164
H18_2 H 0.716489 0.212761 0.609045
H21_2 H 0.670457 0.15241 0.565614
N19_2 N 0.5475(4) 0.0472(4) 0.4199(4)
N22_2 N 0.4525(4) 0.0472(4) 0.5801(4)
N23_3 N 0.4199(4) 0.0472(4) 0.5475(4)
N20_2 N 0.4525(4) 0.9528(4) 0.4199(4)
N21_2 N 0.5475(4) 0.9528(4) 0.5801(4)
N24_3 N 0.4199(4) 0.9528(4) 0.4525(4)
N24_4 N 0.5801(4) 0.0472(4) 0.4525(4)
N23_4 N 0.5801(4) 0.9528(4) 0.5475(4)
N19_3 N 0.4199(4) 0.5475(4) 0.0472(4)
N22_3 N 0.5801(4) 0.4525(4) 0.0472(4)
N23_5 N 0.5475(4) 0.4199(4) 0.0472(4)
N20_3 N 0.4199(4) 0.4525(4) 0.9528(4)
N21_3 N 0.5801(4) 0.5475(4) 0.9528(4)
N24_5 N 0.4525(4) 0.4199(4) 0.9528(4)
N24_6 N 0.4525(4) 0.5801(4) 0.0472(4)
N23_6 N 0.5475(4) 0.5801(4) 0.9528(4)
N2_3 N 0.2797(6) 0.2797(6) 0.6673(10)
C1_3 C 0.4446(6) 0.0783(6) 0.6141(6)
C2_3 C 0.3167(7) 0.1999(7) 0.6221(7)
C3_3 C 0.3416(6) 0.1644(7) 0.5995(6)
C4_3 C 0.4032(6) 0.1006(9) 0.5968(6)
C5_3 C 0.3812(5) 0.1439(7) 0.6188(5)
C6_3 C 0.3159(7) 0.2597(12) 0.6841(7)
C7_3 C 0.3374(6) 0.2177(10) 0.6626(6)
N4_3 N 0.2797(6) 0.3327(10) 0.7203(6)
C8_3 C 0.0783(6) 0.3859(6) 0.5554(6)
C9_3 C 0.1999(7) 0.3779(7) 0.6833(7)
C10_3 C 0.1644(7) 0.4005(6) 0.6584(6)
C11_3 C 0.1006(9) 0.4032(6) 0.5968(6)
C12_3 C 0.1439(7) 0.3812(5) 0.6188(5)
C13_3 C 0.2597(12) 0.3159(7) 0.6841(7)
C14_3 C 0.2177(10) 0.3374(6) 0.6626(6)
N6_3 N 0.3327(10) 0.2797(6) 0.7203(6)
C15_3 C 0.3859(6) 0.4446(6) 0.9217(6)
C16_3 C 0.3779(7) 0.3167(7) 0.8001(7)
C17_3 C 0.4005(6) 0.3416(6) 0.8356(7)
C18_3 C 0.4032(6) 0.4032(6) 0.8994(9)
C19_3 C 0.3812(5) 0.3812(5) 0.8561(7)
C20_3 C 0.3159(7) 0.3159(7) 0.7403(12)
C21_3 C 0.3374(6) 0.3374(6) 0.7823(10)
C22_3 C 0.0783(6) 0.4446(6) 0.6141(6)
C23_3 C 0.1999(7) 0.3167(7) 0.6221(7)
C24_3 C 0.1644(7) 0.3416(6) 0.5995(6)
C25_3 C 0.3859(6) 0.0783(6) 0.5554(6)
C26_3 C 0.3779(7) 0.1999(7) 0.6833(7)
C27_3 C 0.4005(6) 0.1644(7) 0.6584(6)
C28_3 C 0.4446(6) 0.3859(6) 0.9217(6)
C29_3 C 0.3167(7) 0.3779(7) 0.8001(7)
C30_3 C 0.3416(6) 0.4005(6) 0.8356(7)
H1_3 H 0.15241 0.434386 0.670457
H2_3 H 0.464113 0.0848364 0.645941
H3_3 H 0.390955 0.283511 0.787239
H4_3 H 0.329543 0.15241 0.565614
H5_3 H 0.354059 0.464113 0.915164
H6_3 H 0.434386 0.329543 0.84759
H7_3 H 0.0848364 0.464113 0.645941
H8_3 H 0.283511 0.212761 0.609045
H9_3 H 0.212761 0.390955 0.716489
H10_3 H 0.0848364 0.354059 0.535887
H11_3 H 0.283511 0.390955 0.787239
H12_3 H 0.434386 0.15241 0.670457
H13_3 H 0.390955 0.212761 0.716489
H14_3 H 0.329543 0.434386 0.84759
H15_3 H 0.354059 0.0848364 0.535887
H16_3 H 0.464113 0.354059 0.915164
H18_3 H 0.212761 0.283511 0.609045
H21_3 H 0.15241 0.329543 0.565614
N11_3 N 0.7203(6) 0.7203(6) 0.6673(10)
C31_3 C 0.5554(6) 0.9217(6) 0.6141(6)
C32_3 C 0.6833(7) 0.8001(7) 0.6221(7)
C33_3 C 0.6584(6) 0.8356(7) 0.5995(6)
C34_3 C 0.5968(6) 0.8994(9) 0.5968(6)
C35_3 C 0.6188(5) 0.8561(7) 0.6188(5)
C36_3 C 0.6841(7) 0.7403(12) 0.6841(7)
C37_3 C 0.6626(6) 0.7823(10) 0.6626(6)
N13_3 N 0.7203(6) 0.6673(10) 0.7203(6)
C38_3 C 0.9217(6) 0.6141(6) 0.5554(6)
C39_3 C 0.8001(7) 0.6221(7) 0.6833(7)
C40_3 C 0.8356(7) 0.5995(6) 0.6584(6)
C41_3 C 0.8994(9) 0.5968(6) 0.5968(6)
C42_3 C 0.8561(7) 0.6188(5) 0.6188(5)
C43_3 C 0.7403(12) 0.6841(7) 0.6841(7)
C44_3 C 0.7823(10) 0.6626(6) 0.6626(6)
N15_3 N 0.6673(10) 0.7203(6) 0.7203(6)
C45_3 C 0.6141(6) 0.5554(6) 0.9217(6)
C46_3 C 0.6221(7) 0.6833(7) 0.8001(7)
C47_3 C 0.5995(6) 0.6584(6) 0.8356(7)
C48_3 C 0.5968(6) 0.5968(6) 0.8994(9)
C49_3 C 0.6188(5) 0.6188(5) 0.8561(7)
C50_3 C 0.6841(7) 0.6841(7) 0.7403(12)
C51_3 C 0.6626(6) 0.6626(6) 0.7823(10)
C52_3 C 0.9217(6) 0.5554(6) 0.6141(6)
C53_3 C 0.8001(7) 0.6833(7) 0.6221(7)
C54_3 C 0.8356(7) 0.6584(6) 0.5995(6)
C55_3 C 0.6141(6) 0.9217(6) 0.5554(6)
C56_3 C 0.6221(7) 0.8001(7) 0.6833(7)
C57_3 C 0.5995(6) 0.8356(7) 0.6584(6)
C58_3 C 0.5554(6) 0.6141(6) 0.9217(6)
C59_3 C 0.6833(7) 0.6221(7) 0.8001(7)
C60_3 C 0.6584(6) 0.5995(6) 0.8356(7)
H17_3 H 0.535887 0.915164 0.645941
H19_3 H 0.716489 0.787239 0.609045
H20_3 H 0.670457 0.84759 0.565614
H22_3 H 0.915164 0.645941 0.535887
H23_3 H 0.787239 0.609045 0.716489
H24_3 H 0.84759 0.565614 0.670457
H25_3 H 0.565614 0.670457 0.84759
H26_3 H 0.609045 0.716489 0.787239
H27_3 H 0.915164 0.535887 0.645941
H28_3 H 0.787239 0.716489 0.609045
H29_3 H 0.84759 0.670457 0.565614
H30_3 H 0.645941 0.915164 0.535887
H31_3 H 0.609045 0.787239 0.716489
H32_3 H 0.565614 0.84759 0.670457
H33_3 H 0.645941 0.535887 0.915164
H34_3 H 0.535887 0.645941 0.915164
H35_3 H 0.670457 0.565614 0.84759
H36_3 H 0.716489 0.609045 0.787239
N11_4 N 0.7203(6) 0.2797(6) 0.3327(10)
C31_4 C 0.5554(6) 0.0783(6) 0.3859(6)
C32_4 C 0.6833(7) 0.1999(7) 0.3779(7)
C33_4 C 0.6584(6) 0.1644(7) 0.4005(6)
C34_4 C 0.5968(6) 0.1006(9) 0.4032(6)
C35_4 C 0.6188(5) 0.1439(7) 0.3812(5)
C36_4 C 0.6841(7) 0.2597(12) 0.3159(7)
C37_4 C 0.6626(6) 0.2177(10) 0.3374(6)
N13_4 N 0.7203(6) 0.3327(10) 0.2797(6)
C38_4 C 0.9217(6) 0.3859(6) 0.4446(6)
C39_4 C 0.8001(7) 0.3779(7) 0.3167(7)
C40_4 C 0.8356(7) 0.4005(6) 0.3416(6)
C41_4 C 0.8994(9) 0.4032(6) 0.4032(6)
C42_4 C 0.8561(7) 0.3812(5) 0.3812(5)
C43_4 C 0.7403(12) 0.3159(7) 0.3159(7)
C44_4 C 0.7823(10) 0.3374(6) 0.3374(6)
N15_4 N 0.6673(10) 0.2797(6) 0.2797(6)
C45_4 C 0.6141(6) 0.4446(6) 0.0783(6)
C46_4 C 0.6221(7) 0.3167(7) 0.1999(7)
C47_4 C 0.5995(6) 0.3416(6) 0.1644(7)
C48_4 C 0.5968(6) 0.4032(6) 0.1006(9)
C49_4 C 0.6188(5) 0.3812(5) 0.1439(7)
C50_4 C 0.6841(7) 0.3159(7) 0.2597(12)
C51_4 C 0.6626(6) 0.3374(6) 0.2177(10)
C52_4 C 0.9217(6) 0.4446(6) 0.3859(6)
C53_4 C 0.8001(7) 0.3167(7) 0.3779(7)
C54_4 C 0.8356(7) 0.3416(6) 0.4005(6)
C55_4 C 0.6141(6) 0.0783(6) 0.4446(6)
C56_4 C 0.6221(7) 0.1999(7) 0.3167(7)
C57_4 C 0.5995(6) 0.1644(7) 0.3416(6)
C58_4 C 0.5554(6) 0.3859(6) 0.0783(6)
C59_4 C 0.6833(7) 0.3779(7) 0.1999(7)
C60_4 C 0.6584(6) 0.4005(6) 0.1644(7)
H17_4 H 0.535887 0.0848364 0.354059
H19_4 H 0.716489 0.212761 0.390955
H20_4 H 0.670457 0.15241 0.434386
H22_4 H 0.915164 0.354059 0.464113
H23_4 H 0.787239 0.390955 0.283511
H24_4 H 0.84759 0.434386 0.329543
H25_4 H 0.565614 0.329543 0.15241
H26_4 H 0.609045 0.283511 0.212761
H27_4 H 0.915164 0.464113 0.354059
H28_4 H 0.787239 0.283511 0.390955
H29_4 H 0.84759 0.329543 0.434386
H30_4 H 0.645941 0.0848364 0.464113
H31_4 H 0.609045 0.212761 0.283511
H32_4 H 0.565614 0.15241 0.329543
H33_4 H 0.645941 0.464113 0.0848364
H34_4 H 0.535887 0.354059 0.0848364
H35_4 H 0.670457 0.434386 0.15241
H36_4 H 0.716489 0.390955 0.212761
N2_4 N 0.2797(6) 0.7203(6) 0.3327(10)
C1_4 C 0.4446(6) 0.9217(6) 0.3859(6)
C2_4 C 0.3167(7) 0.8001(7) 0.3779(7)
C3_4 C 0.3416(6) 0.8356(7) 0.4005(6)
C4_4 C 0.4032(6) 0.8994(9) 0.4032(6)
C5_4 C 0.3812(5) 0.8561(7) 0.3812(5)
C6_4 C 0.3159(7) 0.7403(12) 0.3159(7)
C7_4 C 0.3374(6) 0.7823(10) 0.3374(6)
N4_4 N 0.2797(6) 0.6673(10) 0.2797(6)
C8_4 C 0.0783(6) 0.6141(6) 0.4446(6)
C9_4 C 0.1999(7) 0.6221(7) 0.3167(7)
C10_4 C 0.1644(7) 0.5995(6) 0.3416(6)
C11_4 C 0.1006(9) 0.5968(6) 0.4032(6)
C12_4 C 0.1439(7) 0.6188(5) 0.3812(5)
C13_4 C 0.2597(12) 0.6841(7) 0.3159(7)
C14_4 C 0.2177(10) 0.6626(6) 0.3374(6)
N6_4 N 0.3327(10) 0.7203(6) 0.2797(6)
C15_4 C 0.3859(6) 0.5554(6) 0.0783(6)
C16_4 C 0.3779(7) 0.6833(7) 0.1999(7)
C17_4 C 0.4005(6) 0.6584(6) 0.1644(7)
C18_4 C 0.4032(6) 0.5968(6) 0.1006(9)
C19_4 C 0.3812(5) 0.6188(5) 0.1439(7)
C20_4 C 0.3159(7) 0.6841(7) 0.2597(12)
C21_4 C 0.3374(6) 0.6626(6) 0.2177(10)
C22_4 C 0.0783(6) 0.5554(6) 0.3859(6)
C23_4 C 0.1999(7) 0.6833(7) 0.3779(7)
C24_4 C 0.1644(7) 0.6584(6) 0.4005(6)
C25_4 C 0.3859(6) 0.9217(6) 0.4446(6)
C26_4 C 0.3779(7) 0.8001(7) 0.3167(7)
C27_4 C 0.4005(6) 0.8356(7) 0.3416(6)
C28_4 C 0.4446(6) 0.6141(6) 0.0783(6)
C29_4 C 0.3167(7) 0.6221(7) 0.1999(7)
C30_4 C 0.3416(6) 0.5995(6) 0.1644(7)
H1_4 H 0.15241 0.565614 0.329543
H2_4 H 0.464113 0.915164 0.354059
H3_4 H 0.390955 0.716489 0.212761
H4_4 H 0.329543 0.84759 0.434386
H5_4 H 0.354059 0.535887 0.0848364
H6_4 H 0.434386 0.670457 0.15241
H7_4 H 0.0848364 0.535887 0.354059
H8_4 H 0.283511 0.787239 0.390955
H9_4 H 0.212761 0.609045 0.283511
H10_4 H 0.0848364 0.645941 0.464113
H11_4 H 0.283511 0.609045 0.212761
H12_4 H 0.434386 0.84759 0.329543
H13_4 H 0.390955 0.787239 0.283511
H14_4 H 0.329543 0.565614 0.15241
H15_4 H 0.354059 0.915164 0.464113
H16_4 H 0.464113 0.645941 0.0848364
H18_4 H 0.212761 0.716489 0.390955
H21_4 H 0.15241 0.670457 0.434386
loop_
_geom_bond_atom_site_label_1
_geom_bond_atom_site_label_2
_geom_bond_site_symmetry_1
_geom_bond_site_symmetry_2
Ni1 N1 1_555 1_555
N1 C1 1_555 1_555
N2 C6 1_555 1_555
C1 C4 1_555 1_555
C2 C3 1_555 1_555
C3 C5 1_555 1_555
C4 C5 1_555 1_555
C5 C27 1_555 1_555
C6 C7 1_555 1_555
C7 C2 1_555 1_555
N3 C8 1_555 1_555
N4 C13 1_555 1_555
C8 C11 1_555 1_555
C9 C10 1_555 1_555
C10 C12 1_555 1_555
C11 C12 1_555 1_555
C12 C24 1_555 1_555
C13 N2 1_555 1_555
C14 C9 1_555 1_555
N5 C15 1_555 1_555
N6 C6 1_555 1_555
C15 C18 1_555 1_555
C16 C17 1_555 1_555
C17 C19 1_555 1_555
C18 C19 1_555 1_555
C19 C30 1_555 1_555
C20 N4 1_555 1_555
C21 C16 1_555 1_555
N7 N3 1_555 1_555
C22 C11 1_555 1_555
C23 C14 1_555 1_555
C24 C23 1_555 1_555
N8 N1 1_555 1_555
C25 C4 1_555 1_555
C26 C7 1_555 1_555
C27 C26 1_555 1_555
N9 N5 1_555 1_555
C28 C18 1_555 1_555
C29 C21 1_555 1_555
C30 C29 1_555 1_555
Ni2 Ni1 1_555 1_555
Ni3 Ni1 1_555 1_555
Ni4 Ni2 1_555 1_555
Ni5 N3 1_555 1_555
Ni7 N5 1_555 1_555
Ni10 N7 1_555 1_555
Ni11 N9 1_555 1_555
N19 Ni2 1_555 1_555
N22 Ni3 1_555 1_555
N23 Ni1 1_555 1_555
N25 Ni3 1_555 1_555
C13 C14 1_555 1_555
N6 C20 1_555 1_555
C20 C21 1_555 1_555
N7 C22 1_555 1_555
N8 C25 1_555 1_555
N8 Ni2 1_555 1_555
N9 C28 1_555 1_555
Ni3 Ni4 1_555 1_555
Ni5 Ni10 1_555 1_555
Ni7 Ni11 1_555 1_555
N22 N23 1_555 1_555
C10 H1 1_555 1_555
C1 H2 1_555 1_555
C16 H3 1_555 1_555
C3 H4 1_555 1_555
C15 H5 1_555 1_555
C17 H6 1_555 1_555
C22 H7 1_555 1_555
C2 H8 1_555 1_555
C9 H9 1_555 1_555
C8 H10 1_555 1_555
C29 H11 1_555 1_555
C27 H12 1_555 1_555
C26 H13 1_555 1_555
C30 H14 1_555 1_555
C25 H15 1_555 1_555
C28 H16 1_555 1_555
C23 H18 1_555 1_555
C24 H21 1_555 1_555
Ni7_2 Ni11_2 1_555 1_555
Ni5_2 Ni10_2 1_555 1_555
Ni6 Ni10 1_555 1_555
Ni2_2 Ni1_2 1_555 1_555
Ni3_2 Ni1_2 1_555 1_555
N10 Ni1_2 1_555 1_555
N11 C36 1_555 1_555
C31 N10 1_555 1_555
C32 C33 1_555 1_555
C33 C35 1_555 1_555
C34 C31 1_555 1_555
C35 C34 1_555 1_555
C36 C37 1_555 1_555
C37 C32 1_555 1_555
N12 C38 1_555 1_555
N13 C43 1_555 1_555
C38 C41 1_555 1_555
C39 C40 1_555 1_555
C40 C42 1_555 1_555
C41 C42 1_555 1_555
C42 C54 1_555 1_555
C43 N11 1_555 1_555
C44 C39 1_555 1_555
N14 C45 1_555 1_555
N15 C36 1_555 1_555
C45 C48 1_555 1_555
C46 C47 1_555 1_555
C47 C49 1_555 1_555
C48 C49 1_555 1_555
C49 C60 1_555 1_555
C50 N13 1_555 1_555
C51 C46 1_555 1_555
N16 N12 1_555 1_555
C52 C41 1_555 1_555
C53 C44 1_555 1_555
C54 C53 1_555 1_555
N17 Ni3_2 1_555 1_555
C55 C34 1_555 1_555
C56 C37 1_555 1_555
C57 C35 1_555 1_555
N18 N14 1_555 1_555
C58 C48 1_555 1_555
C59 C51 1_555 1_555
C60 C59 1_555 1_555
Ni4_2 Ni2_2 1_555 1_555
Ni6_2 N12 1_555 1_555
Ni8 N14 1_555 1_555
Ni10_2 N16 1_555 1_555
Ni12 N18 1_555 1_555
N20 Ni2_2 1_555 1_555
N21 Ni3_2 1_555 1_555
N24 Ni1_2 1_555 1_555
N26 Ni2_2 1_555 1_555
Ni3_2 Ni4_2 1_555 1_555
N10 N17 1_555 1_555
C43 C44 1_555 1_555
N15 C50 1_555 1_555
C50 C51 1_555 1_555
N16 C52 1_555 1_555
N17 C55 1_555 1_555
C56 C57 1_555 1_555
N18 C58 1_555 1_555
Ni6_2 Ni10_2 1_555 1_555
Ni8 Ni12 1_555 1_555
N20 N24 1_555 1_555
C31 H17 1_555 1_555
C32 H19 1_555 1_555
C33 H20 1_555 1_555
C38 H22 1_555 1_555
C39 H23 1_555 1_555
C40 H24 1_555 1_555
C47 H25 1_555 1_555
C46 H26 1_555 1_555
C52 H27 1_555 1_555
C53 H28 1_555 1_555
C54 H29 1_555 1_555
C55 H30 1_555 1_555
C56 H31 1_555 1_555
C57 H32 1_555 1_555
C45 H33 1_555 1_555
C58 H34 1_555 1_555
C60 H35 1_555 1_555
C59 H36 1_555 1_555
Ni8_2 Ni12_2 1_555 1_555
Ni5 Ni9 1_555 1_555
Ni8 Ni11 1_555 1_555
N10_2 Ni4 1_555 1_555
N11_2 C36_2 1_555 1_555
C31_2 N10_2 1_555 1_555
C32_2 C33_2 1_555 1_555
C33_2 C35_2 1_555 1_555
C34_2 C31_2 1_555 1_555
C35_2 C34_2 1_555 1_555
C36_2 C37_2 1_555 1_555
C37_2 C32_2 1_555 1_555
N12_2 C38_2 1_555 1_555
N13_2 C43_2 1_555 1_555
C38_2 C41_2 1_555 1_555
C39_2 C40_2 1_555 1_555
C40_2 C42_2 1_555 1_555
C41_2 C42_2 1_555 1_555
C42_2 C54_2 1_555 1_555
C43_2 N11_2 1_555 1_555
C44_2 C39_2 1_555 1_555
N14_2 C45_2 1_555 1_555
N15_2 C36_2 1_555 1_555
C45_2 C48_2 1_555 1_555
C46_2 C47_2 1_555 1_555
C47_2 C49_2 1_555 1_555
C48_2 C49_2 1_555 1_555
C49_2 C60_2 1_555 1_555
C50_2 N13_2 1_555 1_555
C51_2 C46_2 1_555 1_555
N16_2 N12_2 1_555 1_555
C52_2 C41_2 1_555 1_555
C53_2 C44_2 1_555 1_555
C54_2 C53_2 1_555 1_555
C55_2 C34_2 1_555 1_555
C56_2 C37_2 1_555 1_555
C57_2 C35_2 1_555 1_555
N18_2 N14_2 1_555 1_555
C58_2 C48_2 1_555 1_555
C59_2 C51_2 1_555 1_555
C60_2 C59_2 1_555 1_555
Ni5_2 N12_2 1_555 1_555
Ni8_2 N14_2 1_555 1_555
Ni9_2 N16_2 1_555 1_555
Ni11_2 N18_2 1_555 1_555
N24_2 Ni4 1_555 1_555
N10_2 N25 1_555 1_555
C43_2 C44_2 1_555 1_555
N15_2 C50_2 1_555 1_555
C50_2 C51_2 1_555 1_555
N16_2 C52_2 1_555 1_555
N25 C55_2 1_555 1_555
C56_2 C57_2 1_555 1_555
N18_2 C58_2 1_555 1_555
Ni5_2 Ni9_2 1_555 1_555
Ni8_2 Ni11_2 1_555 1_555
N19 N24_2 1_555 1_555
C31_2 H17_2 1_555 1_555
C32_2 H19_2 1_555 1_555
C33_2 H20_2 1_555 1_555
C38_2 H22_2 1_555 1_555
C39_2 H23_2 1_555 1_555
C40_2 H24_2 1_555 1_555
C47_2 H25_2 1_555 1_555
C46_2 H26_2 1_555 1_555
C52_2 H27_2 1_555 1_555
C53_2 H28_2 1_555 1_555
C54_2 H29_2 1_555 1_555
C55_2 H30_2 1_555 1_555
C56_2 H31_2 1_555 1_555
C57_2 H32_2 1_555 1_555
C45_2 H33_2 1_555 1_555
C58_2 H34_2 1_555 1_555
C60_2 H35_2 1_555 1_555
C59_2 H36_2 1_555 1_555
Ni7 Ni12 1_555 1_555
Ni4_2 N1_2 1_555 1_555
N1_2 C1_2 1_555 1_555
N2_2 C6_2 1_555 1_555
C1_2 C4_2 1_555 1_555
C2_2 C3_2 1_555 1_555
C3_2 C5_2 1_555 1_555
C4_2 C5_2 1_555 1_555
C5_2 C27_2 1_555 1_555
C6_2 C7_2 1_555 1_555
C7_2 C2_2 1_555 1_555
N3_2 C8_2 1_555 1_555
N4_2 C13_2 1_555 1_555
C8_2 C11_2 1_555 1_555
C9_2 C10_2 1_555 1_555
C10_2 C12_2 1_555 1_555
C11_2 C12_2 1_555 1_555
C12_2 C24_2 1_555 1_555
C13_2 N2_2 1_555 1_555
C14_2 C9_2 1_555 1_555
N5_2 C15_2 1_555 1_555
N6_2 C6_2 1_555 1_555
C15_2 C18_2 1_555 1_555
C16_2 C17_2 1_555 1_555
C17_2 C19_2 1_555 1_555
C18_2 C19_2 1_555 1_555
C19_2 C30_2 1_555 1_555
C20_2 N4_2 1_555 1_555
C21_2 C16_2 1_555 1_555
N7_2 N3_2 1_555 1_555
C22_2 C11_2 1_555 1_555
C23_2 C14_2 1_555 1_555
C24_2 C23_2 1_555 1_555
N26 N1_2 1_555 1_555
C25_2 C4_2 1_555 1_555
C26_2 C7_2 1_555 1_555
C27_2 C26_2 1_555 1_555
N9_2 N5_2 1_555 1_555
C28_2 C18_2 1_555 1_555
C29_2 C21_2 1_555 1_555
C30_2 C29_2 1_555 1_555
Ni6 N3_2 1_555 1_555
Ni7_2 N5_2 1_555 1_555
Ni9 N7_2 1_555 1_555
Ni12_2 N9_2 1_555 1_555
N23_2 Ni4_2 1_555 1_555
C13_2 C14_2 1_555 1_555
N6_2 C20_2 1_555 1_555
C20_2 C21_2 1_555 1_555
N7_2 C22_2 1_555 1_555
N26 C25_2 1_555 1_555
N9_2 C28_2 1_555 1_555
Ni6 Ni9 1_555 1_555
Ni7_2 Ni12_2 1_555 1_555
N21 N23_2 1_555 1_555
C10_2 H1_2 1_555 1_555
C1_2 H2_2 1_555 1_555
C16_2 H3_2 1_555 1_555
C3_2 H4_2 1_555 1_555
C15_2 H5_2 1_555 1_555
C17_2 H6_2 1_555 1_555
C22_2 H7_2 1_555 1_555
C2_2 H8_2 1_555 1_555
C9_2 H9_2 1_555 1_555
C8_2 H10_2 1_555 1_555
C29_2 H11_2 1_555 1_555
C27_2 H12_2 1_555 1_555
C26_2 H13_2 1_555 1_555
C30_2 H14_2 1_555 1_555
C25_2 H15_2 1_555 1_555
C28_2 H16_2 1_555 1_555
C23_2 H18_2 1_555 1_555
C24_2 H21_2 1_555 1_555
Ni6_2 Ni9_2 1_555 1_555
N19_2 Ni10 1_555 1_555
N22_2 Ni9 1_555 1_555
N23_3 Ni5 1_555 1_555
N22_2 N23_3 1_555 1_555
N20_2 Ni10_2 1_555 1_555
N21_2 Ni9_2 1_555 1_555
N24_3 Ni5_2 1_555 1_555
N20_2 N24_3 1_555 1_555
N24_4 Ni6 1_555 1_555
N19_2 N24_4 1_555 1_555
N23_4 Ni6_2 1_555 1_555
N21_2 N23_4 1_555 1_555
N19_3 Ni11 1_555 1_555
N22_3 Ni12 1_555 1_555
N23_5 Ni7 1_555 1_555
N22_3 N23_5 1_555 1_555
N20_3 Ni11_2 1_555 1_555
N21_3 Ni12_2 1_555 1_555
N24_5 Ni7_2 1_555 1_555
N20_3 N24_5 1_555 1_555
N24_6 Ni8 1_555 1_555
N19_3 N24_6 1_555 1_555
N23_6 Ni8_2 1_555 1_555
N21_3 N23_6 1_555 1_555
N22_2 C1_3 1_555 1_555
N2_3 C6_3 1_555 1_555
C1_3 C4_3 1_555 1_555
C2_3 C3_3 1_555 1_555
C3_3 C5_3 1_555 1_555
C4_3 C5_3 1_555 1_555
C5_3 C27_3 1_555 1_555
C6_3 C7_3 1_555 1_555
C7_3 C2_3 1_555 1_555
N19 C8_3 1_555 1_555
N4_3 C13_3 1_555 1_555
C8_3 C11_3 1_555 1_555
C9_3 C10_3 1_555 1_555
C10_3 C12_3 1_555 1_555
C11_3 C12_3 1_555 1_555
C12_3 C24_3 1_555 1_555
C13_3 N2_3 1_555 1_555
C14_3 C9_3 1_555 1_555
N20_3 C15_3 1_555 1_555
N6_3 C6_3 1_555 1_555
C15_3 C18_3 1_555 1_555
C16_3 C17_3 1_555 1_555
C17_3 C19_3 1_555 1_555
C18_3 C19_3 1_555 1_555
C19_3 C30_3 1_555 1_555
C20_3 N4_3 1_555 1_555
C21_3 C16_3 1_555 1_555
C22_3 C11_3 1_555 1_555
C23_3 C14_3 1_555 1_555
C24_3 C23_3 1_555 1_555
C25_3 C4_3 1_555 1_555
C26_3 C7_3 1_555 1_555
C27_3 C26_3 1_555 1_555
C28_3 C18_3 1_555 1_555
C29_3 C21_3 1_555 1_555
C30_3 C29_3 1_555 1_555
C13_3 C14_3 1_555 1_555
N6_3 C20_3 1_555 1_555
C20_3 C21_3 1_555 1_555
N24_2 C22_3 1_555 1_555
N23_3 C25_3 1_555 1_555
N24_5 C28_3 1_555 1_555
C10_3 H1_3 1_555 1_555
C1_3 H2_3 1_555 1_555
C16_3 H3_3 1_555 1_555
C3_3 H4_3 1_555 1_555
C15_3 H5_3 1_555 1_555
C17_3 H6_3 1_555 1_555
C22_3 H7_3 1_555 1_555
C2_3 H8_3 1_555 1_555
C9_3 H9_3 1_555 1_555
C8_3 H10_3 1_555 1_555
C29_3 H11_3 1_555 1_555
C27_3 H12_3 1_555 1_555
C26_3 H13_3 1_555 1_555
C30_3 H14_3 1_555 1_555
C25_3 H15_3 1_555 1_555
C28_3 H16_3 1_555 1_555
C23_3 H18_3 1_555 1_555
C24_3 H21_3 1_555 1_555
N11_3 C36_3 1_555 1_555
C31_3 N21_2 1_555 1_555
C32_3 C33_3 1_555 1_555
C33_3 C35_3 1_555 1_555
C34_3 C31_3 1_555 1_555
C35_3 C34_3 1_555 1_555
C36_3 C37_3 1_555 1_555
C37_3 C32_3 1_555 1_555
N21 C38_3 1_555 1_555
N13_3 C43_3 1_555 1_555
C38_3 C41_3 1_555 1_555
C39_3 C40_3 1_555 1_555
C40_3 C42_3 1_555 1_555
C41_3 C42_3 1_555 1_555
C42_3 C54_3 1_555 1_555
C43_3 N11_3 1_555 1_555
C44_3 C39_3 1_555 1_555
N21_3 C45_3 1_555 1_555
N15_3 C36_3 1_555 1_555
C45_3 C48_3 1_555 1_555
C46_3 C47_3 1_555 1_555
C47_3 C49_3 1_555 1_555
C48_3 C49_3 1_555 1_555
C49_3 C60_3 1_555 1_555
C50_3 N13_3 1_555 1_555
C51_3 C46_3 1_555 1_555
C52_3 C41_3 1_555 1_555
C53_3 C44_3 1_555 1_555
C54_3 C53_3 1_555 1_555
C55_3 C34_3 1_555 1_555
C56_3 C37_3 1_555 1_555
C57_3 C35_3 1_555 1_555
C58_3 C48_3 1_555 1_555
C59_3 C51_3 1_555 1_555
C60_3 C59_3 1_555 1_555
C43_3 C44_3 1_555 1_555
N15_3 C50_3 1_555 1_555
C50_3 C51_3 1_555 1_555
N23_2 C52_3 1_555 1_555
N23_4 C55_3 1_555 1_555
C56_3 C57_3 1_555 1_555
N23_6 C58_3 1_555 1_555
C31_3 H17_3 1_555 1_555
C32_3 H19_3 1_555 1_555
C33_3 H20_3 1_555 1_555
C38_3 H22_3 1_555 1_555
C39_3 H23_3 1_555 1_555
C40_3 H24_3 1_555 1_555
C47_3 H25_3 1_555 1_555
C46_3 H26_3 1_555 1_555
C52_3 H27_3 1_555 1_555
C53_3 H28_3 1_555 1_555
C54_3 H29_3 1_555 1_555
C55_3 H30_3 1_555 1_555
C56_3 H31_3 1_555 1_555
C57_3 H32_3 1_555 1_555
C45_3 H33_3 1_555 1_555
C58_3 H34_3 1_555 1_555
C60_3 H35_3 1_555 1_555
C59_3 H36_3 1_555 1_555
N11_4 C36_4 1_555 1_555
C31_4 N19_2 1_555 1_555
C32_4 C33_4 1_555 1_555
C33_4 C35_4 1_555 1_555
C34_4 C31_4 1_555 1_555
C35_4 C34_4 1_555 1_555
C36_4 C37_4 1_555 1_555
C37_4 C32_4 1_555 1_555
N20 C38_4 1_555 1_555
N13_4 C43_4 1_555 1_555
C38_4 C41_4 1_555 1_555
C39_4 C40_4 1_555 1_555
C40_4 C42_4 1_555 1_555
C41_4 C42_4 1_555 1_555
C42_4 C54_4 1_555 1_555
C43_4 N11_4 1_555 1_555
C44_4 C39_4 1_555 1_555
N22_3 C45_4 1_555 1_555
N15_4 C36_4 1_555 1_555
C45_4 C48_4 1_555 1_555
C46_4 C47_4 1_555 1_555
C47_4 C49_4 1_555 1_555
C48_4 C49_4 1_555 1_555
C49_4 C60_4 1_555 1_555
C50_4 N13_4 1_555 1_555
C51_4 C46_4 1_555 1_555
C52_4 C41_4 1_555 1_555
C53_4 C44_4 1_555 1_555
C54_4 C53_4 1_555 1_555
C55_4 C34_4 1_555 1_555
C56_4 C37_4 1_555 1_555
C57_4 C35_4 1_555 1_555
C58_4 C48_4 1_555 1_555
C59_4 C51_4 1_555 1_555
C60_4 C59_4 1_555 1_555
C43_4 C44_4 1_555 1_555
N15_4 C50_4 1_555 1_555
C50_4 C51_4 1_555 1_555
N24 C52_4 1_555 1_555
N24_4 C55_4 1_555 1_555
C56_4 C57_4 1_555 1_555
N23_5 C58_4 1_555 1_555
C31_4 H17_4 1_555 1_555
C32_4 H19_4 1_555 1_555
C33_4 H20_4 1_555 1_555
C38_4 H22_4 1_555 1_555
C39_4 H23_4 1_555 1_555
C40_4 H24_4 1_555 1_555
C47_4 H25_4 1_555 1_555
C46_4 H26_4 1_555 1_555
C52_4 H27_4 1_555 1_555
C53_4 H28_4 1_555 1_555
C54_4 H29_4 1_555 1_555
C55_4 H30_4 1_555 1_555
C56_4 H31_4 1_555 1_555
C57_4 H32_4 1_555 1_555
C45_4 H33_4 1_555 1_555
C58_4 H34_4 1_555 1_555
C60_4 H35_4 1_555 1_555
C59_4 H36_4 1_555 1_555
N20_2 C1_4 1_555 1_555
N2_4 C6_4 1_555 1_555
C1_4 C4_4 1_555 1_555
C2_4 C3_4 1_555 1_555
C3_4 C5_4 1_555 1_555
C4_4 C5_4 1_555 1_555
C5_4 C27_4 1_555 1_555
C6_4 C7_4 1_555 1_555
C7_4 C2_4 1_555 1_555
N22 C8_4 1_555 1_555
N4_4 C13_4 1_555 1_555
C8_4 C11_4 1_555 1_555
C9_4 C10_4 1_555 1_555
C10_4 C12_4 1_555 1_555
C11_4 C12_4 1_555 1_555
C12_4 C24_4 1_555 1_555
C13_4 N2_4 1_555 1_555
C14_4 C9_4 1_555 1_555
N19_3 C15_4 1_555 1_555
N6_4 C6_4 1_555 1_555
C15_4 C18_4 1_555 1_555
C16_4 C17_4 1_555 1_555
C17_4 C19_4 1_555 1_555
C18_4 C19_4 1_555 1_555
C19_4 C30_4 1_555 1_555
C20_4 N4_4 1_555 1_555
C21_4 C16_4 1_555 1_555
C22_4 C11_4 1_555 1_555
C23_4 C14_4 1_555 1_555
C24_4 C23_4 1_555 1_555
C25_4 C4_4 1_555 1_555
C26_4 C7_4 1_555 1_555
C27_4 C26_4 1_555 1_555
C28_4 C18_4 1_555 1_555
C29_4 C21_4 1_555 1_555
C30_4 C29_4 1_555 1_555
C13_4 C14_4 1_555 1_555
N6_4 C20_4 1_555 1_555
C20_4 C21_4 1_555 1_555
N23 C22_4 1_555 1_555
N24_3 C25_4 1_555 1_555
N24_6 C28_4 1_555 1_555
C10_4 H1_4 1_555 1_555
C1_4 H2_4 1_555 1_555
C16_4 H3_4 1_555 1_555
C3_4 H4_4 1_555 1_555
C15_4 H5_4 1_555 1_555
C17_4 H6_4 1_555 1_555
C22_4 H7_4 1_555 1_555
C2_4 H8_4 1_555 1_555
C9_4 H9_4 1_555 1_555
C8_4 H10_4 1_555 1_555
C29_4 H11_4 1_555 1_555
C27_4 H12_4 1_555 1_555
C26_4 H13_4 1_555 1_555
C30_4 H14_4 1_555 1_555
C25_4 H15_4 1_555 1_555
C28_4 H16_4 1_555 1_555
C23_4 H18_4 1_555 1_555
C24_4 H21_4 1_555 1_555

#END
