
###############################################################################
#
# This file contains modified crystal structure data generated from the
# MOF subset of the Cambridge Structural Database (CSD) v543 
# hosted by the Cambridge Crystallographic Data Centre (CCDC).
#
# This work is licensed under the Creative Commons
# Attribution-NonCommercial-ShareAlike 4.0 International License.
# To view a copy of this license, visit
# http://creativecommons.org/licenses/by-nc-sa/4.0/
# or send a letter to
# Creative Commons, PO Box 1866, Mountain View, CA 94042, USA.
#
# CIF created using the CSD Python API on 29 September 2022
# The structure has been converted into the P1 space group
# The structure has a 3D framework
# The original CSD entry LUVPAW is in the cubic crystal system
# The framework has been calculated to contain at least 10.0% void space
# The void calculation uses a probe of radius 1.32A, grid spacing 0.4
#
###############################################################################

data_LUVPAW
_chemical_formula_moiety         '(C480 H288 N144 Ni18)n'
_symmetry_cell_setting           triclinic
_symmetry_space_group_name_H-M   'P 1'
_symmetry_Int_Tables_number      1
_space_group_name_Hall           'P 1'
loop_
_symmetry_equiv_pos_site_id
_symmetry_equiv_pos_as_xyz
1 x,y,z
_cell_length_a                   28.5560(4)
_cell_length_b                   28.5560(4)
_cell_length_c                   28.5560(4)
_cell_angle_alpha                90
_cell_angle_beta                 90
_cell_angle_gamma                90
_cell_volume                     23285.9
loop_
_atom_site_label
_atom_site_type_symbol
_atom_site_fract_x
_atom_site_fract_y
_atom_site_fract_z
Ni8 Ni 0.41907(4) 0.500000 0.000000
Ni11 Ni 0.500000 0.41907(4) 0.000000
Ni1 Ni 0.000000 0.41907(4) 0.500000
N1 N 0.04541(8) 0.41891(9) 0.54748(9)
N2 N 0.26418(12) 0.32250(16) 0.73582(12)
C1 C 0.09796(17) 0.39851(14) 0.60149(14)
C2 C 0.07681(12) 0.38682(13) 0.55963(12)
H1 H 0.083615 0.360104 0.542289
C3 C 0.2064(2) 0.32510(16) 0.67490(16)
C4 C 0.24696(19) 0.30234(15) 0.69766(15)
C5 C 0.13459(19) 0.37276(15) 0.62724(15)
C6 C 0.18796(18) 0.36555(18) 0.69268(18)
H2 H 0.199260 0.377295 0.720876
C7 C 0.15274(18) 0.38930(18) 0.66929(17)
H3 H 0.140968 0.416887 0.681977
N3 N 0.45252(9) 0.04541(8) 0.58109(9)
N4 N 0.26418(12) 0.26418(12) 0.67750(16)
C8 C 0.39851(14) 0.09796(17) 0.60149(14)
C9 C 0.44037(12) 0.07681(12) 0.61318(13)
H4 H 0.457711 0.083615 0.639896
C10 C 0.32510(16) 0.2064(2) 0.67490(16)
C11 C 0.30234(15) 0.24696(19) 0.69766(15)
C12 C 0.37276(15) 0.13459(19) 0.62724(15)
C13 C 0.30732(18) 0.18796(18) 0.63445(18)
H5 H 0.279124 0.199260 0.622705
C14 C 0.33071(17) 0.15274(18) 0.61070(18)
H6 H 0.318023 0.140968 0.583113
N5 N 0.41891(9) 0.45252(9) 0.95459(8)
N6 N 0.32250(16) 0.26418(12) 0.73582(12)
C15 C 0.39851(14) 0.39851(14) 0.90204(17)
C16 C 0.38682(13) 0.44037(12) 0.92319(12)
H7 H 0.360104 0.457711 0.916385
C17 C 0.32510(16) 0.32510(16) 0.7936(2)
C18 C 0.30234(15) 0.30234(15) 0.75304(19)
C19 C 0.37276(15) 0.37276(15) 0.86541(19)
C20 C 0.36555(18) 0.30732(18) 0.81204(18)
H8 H 0.377295 0.279124 0.800740
C21 C 0.38930(18) 0.33071(17) 0.84726(18)
H9 H 0.416887 0.318023 0.859032
N7 N 0.41891(9) 0.04541(8) 0.54748(9)
C22 C 0.38682(13) 0.07681(12) 0.55963(12)
H10 H 0.360104 0.083615 0.542289
C23 C 0.36555(18) 0.18796(18) 0.69268(18)
H11 H 0.377295 0.199260 0.720876
C24 C 0.38930(18) 0.15274(18) 0.66929(17)
H12 H 0.416887 0.140968 0.681977
N8 N 0.04541(8) 0.45252(9) 0.58109(9)
C25 C 0.07681(12) 0.44037(12) 0.61318(13)
H13 H 0.083615 0.457711 0.639896
C26 C 0.18796(18) 0.30732(18) 0.63445(18)
H14 H 0.199260 0.279124 0.622705
C27 C 0.15274(18) 0.33071(17) 0.61070(18)
H15 H 0.140968 0.318023 0.583113
N9 N 0.45252(9) 0.41891(9) 0.95459(8)
C28 C 0.44037(12) 0.38682(13) 0.92319(12)
H16 H 0.457711 0.360104 0.916385
C29 C 0.30732(18) 0.36555(18) 0.81204(18)
H17 H 0.279124 0.377295 0.800740
C30 C 0.33071(17) 0.38930(18) 0.84726(18)
H18 H 0.318023 0.416887 0.859032
Ni2 Ni 0.41907(4) 0.000000 0.500000
N10 N 0.41891(9) 0.04541(8) 0.45252(9)
N11 N 0.32250(16) 0.26418(12) 0.26418(12)
C31 C 0.39851(14) 0.09796(17) 0.39851(14)
C32 C 0.38682(13) 0.07681(12) 0.44037(12)
H19 H 0.360104 0.083615 0.457711
C33 C 0.32510(16) 0.2064(2) 0.32510(16)
C34 C 0.30234(15) 0.24696(19) 0.30234(15)
C35 C 0.37276(15) 0.13459(19) 0.37276(15)
C36 C 0.36555(18) 0.18796(18) 0.30732(18)
H20 H 0.377295 0.199260 0.279124
C37 C 0.38930(18) 0.15274(18) 0.33071(17)
H21 H 0.416887 0.140968 0.318023
N12 N 0.04541(8) 0.45252(9) 0.41891(9)
N13 N 0.26418(12) 0.26418(12) 0.32250(16)
C38 C 0.09796(17) 0.39851(14) 0.39851(14)
C39 C 0.07681(12) 0.44037(12) 0.38682(13)
H22 H 0.083615 0.457711 0.360104
C40 C 0.2064(2) 0.32510(16) 0.32510(16)
C41 C 0.24696(19) 0.30234(15) 0.30234(15)
C42 C 0.13459(19) 0.37276(15) 0.37276(15)
C43 C 0.18796(18) 0.30732(18) 0.36555(18)
H23 H 0.199260 0.279124 0.377295
C44 C 0.15274(18) 0.33071(17) 0.38930(18)
H24 H 0.140968 0.318023 0.416887
N14 N 0.45252(9) 0.41891(9) 0.04541(8)
N15 N 0.26418(12) 0.32250(16) 0.26418(12)
C45 C 0.39851(14) 0.39851(14) 0.09796(17)
C46 C 0.44037(12) 0.38682(13) 0.07681(12)
H25 H 0.457711 0.360104 0.083615
C47 C 0.32510(16) 0.32510(16) 0.2064(2)
C48 C 0.30234(15) 0.30234(15) 0.24696(19)
C49 C 0.37276(15) 0.37276(15) 0.13459(19)
C50 C 0.30732(18) 0.36555(18) 0.18796(18)
H26 H 0.279124 0.377295 0.199260
C51 C 0.33071(17) 0.38930(18) 0.15274(18)
H27 H 0.318023 0.416887 0.140968
N16 N 0.04541(8) 0.41891(9) 0.45252(9)
C52 C 0.07681(12) 0.38682(13) 0.44037(12)
H28 H 0.083615 0.360104 0.457711
C53 C 0.18796(18) 0.36555(18) 0.30732(18)
H29 H 0.199260 0.377295 0.279124
C54 C 0.15274(18) 0.38930(18) 0.33071(17)
H30 H 0.140968 0.416887 0.318023
N17 N 0.45252(9) 0.04541(8) 0.41891(9)
C55 C 0.44037(12) 0.07681(12) 0.38682(13)
H31 H 0.457711 0.083615 0.360104
C56 C 0.30732(18) 0.18796(18) 0.36555(18)
H32 H 0.279124 0.199260 0.377295
C57 C 0.33071(17) 0.15274(18) 0.38930(18)
H33 H 0.318023 0.140968 0.416887
N18 N 0.41891(9) 0.45252(9) 0.04541(8)
C58 C 0.38682(13) 0.44037(12) 0.07681(12)
H34 H 0.360104 0.457711 0.083615
C59 C 0.36555(18) 0.30732(18) 0.18796(18)
H35 H 0.377295 0.279124 0.199260
C60 C 0.38930(18) 0.33071(17) 0.15274(18)
H36 H 0.416887 0.318023 0.140968
Ni3 Ni -0.000000 0.500000 0.58093(4)
Ni4 Ni 0.000000 0.58093(4) 0.500000
Ni5 Ni 0.500000 0.000000 0.41907(4)
Ni6 Ni 0.500000 0.000000 0.58093(4)
Ni8_2 Ni 0.41907(4) 0.500000 1.000000
Ni9 Ni 0.000000 0.500000 0.41907(4)
Ni11_2 Ni 0.500000 0.41907(4) 1.000000
N21 N 0.04541(8) 0.54748(9) 0.58109(9)
Ni2_2 Ni 0.41907(4) 1.000000 0.500000
Ni5_2 Ni 0.500000 1.000000 0.41907(4)
Ni6_2 Ni 0.500000 1.000000 0.58093(4)
N20 N 0.41891(9) 0.95459(8) 0.54748(9)
N24 N 0.41891(9) 0.95459(8) 0.45252(9)
Ni1_2 Ni 1.000000 0.41907(4) 0.500000
Ni3_2 Ni 1.000000 0.500000 0.58093(4)
Ni4_2 Ni 1.000000 0.58093(4) 0.500000
Ni9_2 Ni 1.000000 0.500000 0.41907(4)
N19 N 0.95459(8) 0.41891(9) 0.45252(9)
N22 N 0.95459(8) 0.45252(9) 0.58109(9)
N23 N 0.95459(8) 0.41891(9) 0.54748(9)
N25 N 0.95459(8) 0.54748(9) 0.58109(9)
N19_2 N 0.04541(8) 0.58109(9) 0.45252(9)
N23_2 N 0.04541(8) 0.58109(9) 0.54748(9)
Ni2_3 Ni 0.58093(4) 0.000000 0.500000
N20_2 N 0.58109(9) 0.04541(8) 0.54748(9)
N24_2 N 0.58109(9) 0.04541(8) 0.45252(9)
Ni8_3 Ni 0.58093(4) 0.500000 0.000000
Ni11_3 Ni 0.500000 0.58093(4) 0.000000
N1_2 N 0.95459(8) 0.58109(9) 0.54748(9)
N2_2 N 0.73582(12) 0.67750(16) 0.73582(12)
C1_2 C 0.90204(17) 0.60149(14) 0.60149(14)
C2_2 C 0.92319(12) 0.61318(13) 0.55963(12)
H1_2 H 0.916385 0.639896 0.542289
C3_2 C 0.7936(2) 0.67490(16) 0.67490(16)
C4_2 C 0.75304(19) 0.69766(15) 0.69766(15)
C5_2 C 0.86541(19) 0.62724(15) 0.62724(15)
C6_2 C 0.81204(18) 0.63445(18) 0.69268(18)
H2_2 H 0.800740 0.622705 0.720876
C7_2 C 0.84726(18) 0.61070(18) 0.66929(17)
H3_2 H 0.859032 0.583113 0.681977
N3_2 N 0.54748(9) 0.95459(8) 0.58109(9)
N4_2 N 0.73582(12) 0.73582(12) 0.67750(16)
C8_2 C 0.60149(14) 0.90204(17) 0.60149(14)
C9_2 C 0.55963(12) 0.92319(12) 0.61318(13)
H4_2 H 0.542289 0.916385 0.639896
C10_2 C 0.67490(16) 0.7936(2) 0.67490(16)
C11_2 C 0.69766(15) 0.75304(19) 0.69766(15)
C12_2 C 0.62724(15) 0.86541(19) 0.62724(15)
C13_2 C 0.69268(18) 0.81204(18) 0.63445(18)
H5_2 H 0.720876 0.800740 0.622705
C14_2 C 0.66929(17) 0.84726(18) 0.61070(18)
H6_2 H 0.681977 0.859032 0.583113
N5_2 N 0.58109(9) 0.54748(9) 0.95459(8)
N6_2 N 0.67750(16) 0.73582(12) 0.73582(12)
C15_2 C 0.60149(14) 0.60149(14) 0.90204(17)
C16_2 C 0.61318(13) 0.55963(12) 0.92319(12)
H7_2 H 0.639896 0.542289 0.916385
C17_2 C 0.67490(16) 0.67490(16) 0.7936(2)
C18_2 C 0.69766(15) 0.69766(15) 0.75304(19)
C19_2 C 0.62724(15) 0.62724(15) 0.86541(19)
C20_2 C 0.63445(18) 0.69268(18) 0.81204(18)
H8_2 H 0.622705 0.720876 0.800740
C21_2 C 0.61070(18) 0.66929(17) 0.84726(18)
H9_2 H 0.583113 0.681977 0.859032
N7_2 N 0.58109(9) 0.95459(8) 0.54748(9)
C22_2 C 0.61318(13) 0.92319(12) 0.55963(12)
H10_2 H 0.639896 0.916385 0.542289
C23_2 C 0.63445(18) 0.81204(18) 0.69268(18)
H11_2 H 0.622705 0.800740 0.720876
C24_2 C 0.61070(18) 0.84726(18) 0.66929(17)
H12_2 H 0.583113 0.859032 0.681977
C25_2 C 0.92319(12) 0.55963(12) 0.61318(13)
H13_2 H 0.916385 0.542289 0.639896
C26_2 C 0.81204(18) 0.69268(18) 0.63445(18)
H14_2 H 0.800740 0.720876 0.622705
C27_2 C 0.84726(18) 0.66929(17) 0.61070(18)
H15_2 H 0.859032 0.681977 0.583113
N9_2 N 0.54748(9) 0.58109(9) 0.95459(8)
C28_2 C 0.55963(12) 0.61318(13) 0.92319(12)
H16_2 H 0.542289 0.639896 0.916385
C29_2 C 0.69268(18) 0.63445(18) 0.81204(18)
H17_2 H 0.720876 0.622705 0.800740
C30_2 C 0.66929(17) 0.61070(18) 0.84726(18)
H18_2 H 0.681977 0.583113 0.859032
Ni2_4 Ni 0.58093(4) 1.000000 0.500000
N10_2 N 0.58109(9) 0.95459(8) 0.45252(9)
N11_2 N 0.67750(16) 0.73582(12) 0.26418(12)
C31_2 C 0.60149(14) 0.90204(17) 0.39851(14)
C32_2 C 0.61318(13) 0.92319(12) 0.44037(12)
H19_2 H 0.639896 0.916385 0.457711
C33_2 C 0.67490(16) 0.7936(2) 0.32510(16)
C34_2 C 0.69766(15) 0.75304(19) 0.30234(15)
C35_2 C 0.62724(15) 0.86541(19) 0.37276(15)
C36_2 C 0.63445(18) 0.81204(18) 0.30732(18)
H20_2 H 0.622705 0.800740 0.279124
C37_2 C 0.61070(18) 0.84726(18) 0.33071(17)
H21_2 H 0.583113 0.859032 0.318023
N12_2 N 0.95459(8) 0.54748(9) 0.41891(9)
N13_2 N 0.73582(12) 0.73582(12) 0.32250(16)
C38_2 C 0.90204(17) 0.60149(14) 0.39851(14)
C39_2 C 0.92319(12) 0.55963(12) 0.38682(13)
H22_2 H 0.916385 0.542289 0.360104
C40_2 C 0.7936(2) 0.67490(16) 0.32510(16)
C41_2 C 0.75304(19) 0.69766(15) 0.30234(15)
C42_2 C 0.86541(19) 0.62724(15) 0.37276(15)
C43_2 C 0.81204(18) 0.69268(18) 0.36555(18)
H23_2 H 0.800740 0.720876 0.377295
C44_2 C 0.84726(18) 0.66929(17) 0.38930(18)
H24_2 H 0.859032 0.681977 0.416887
N14_2 N 0.54748(9) 0.58109(9) 0.04541(8)
N15_2 N 0.73582(12) 0.67750(16) 0.26418(12)
C45_2 C 0.60149(14) 0.60149(14) 0.09796(17)
C46_2 C 0.55963(12) 0.61318(13) 0.07681(12)
H25_2 H 0.542289 0.639896 0.083615
C47_2 C 0.67490(16) 0.67490(16) 0.2064(2)
C48_2 C 0.69766(15) 0.69766(15) 0.24696(19)
C49_2 C 0.62724(15) 0.62724(15) 0.13459(19)
C50_2 C 0.69268(18) 0.63445(18) 0.18796(18)
H26_2 H 0.720876 0.622705 0.199260
C51_2 C 0.66929(17) 0.61070(18) 0.15274(18)
H27_2 H 0.681977 0.583113 0.140968
N16_2 N 0.95459(8) 0.58109(9) 0.45252(9)
C52_2 C 0.92319(12) 0.61318(13) 0.44037(12)
H28_2 H 0.916385 0.639896 0.457711
C53_2 C 0.81204(18) 0.63445(18) 0.30732(18)
H29_2 H 0.800740 0.622705 0.279124
C54_2 C 0.84726(18) 0.61070(18) 0.33071(17)
H30_2 H 0.859032 0.583113 0.318023
N17_2 N 0.54748(9) 0.95459(8) 0.41891(9)
C55_2 C 0.55963(12) 0.92319(12) 0.38682(13)
H31_2 H 0.542289 0.916385 0.360104
C56_2 C 0.69268(18) 0.81204(18) 0.36555(18)
H32_2 H 0.720876 0.800740 0.377295
C57_2 C 0.66929(17) 0.84726(18) 0.38930(18)
H33_2 H 0.681977 0.859032 0.416887
N18_2 N 0.58109(9) 0.54748(9) 0.04541(8)
C58_2 C 0.61318(13) 0.55963(12) 0.07681(12)
H34_2 H 0.639896 0.542289 0.083615
C59_2 C 0.63445(18) 0.69268(18) 0.18796(18)
H35_2 H 0.622705 0.720876 0.199260
C60_2 C 0.61070(18) 0.66929(17) 0.15274(18)
H36_2 H 0.583113 0.681977 0.140968
Ni8_4 Ni 0.58093(4) 0.500000 1.000000
Ni11_4 Ni 0.500000 0.58093(4) 1.000000
N25_2 N 0.04541(8) 0.54748(9) 0.41891(9)
N2_3 N 0.73582(12) 0.32250(16) 0.26418(12)
C1_3 C 0.90204(17) 0.39851(14) 0.39851(14)
C2_3 C 0.92319(12) 0.38682(13) 0.44037(12)
H1_3 H 0.916385 0.360104 0.457711
C3_3 C 0.7936(2) 0.32510(16) 0.32510(16)
C4_3 C 0.75304(19) 0.30234(15) 0.30234(15)
C5_3 C 0.86541(19) 0.37276(15) 0.37276(15)
C6_3 C 0.81204(18) 0.36555(18) 0.30732(18)
H2_3 H 0.800740 0.377295 0.279124
C7_3 C 0.84726(18) 0.38930(18) 0.33071(17)
H3_3 H 0.859032 0.416887 0.318023
N3_3 N 0.54748(9) 0.04541(8) 0.41891(9)
N4_3 N 0.73582(12) 0.26418(12) 0.32250(16)
C8_3 C 0.60149(14) 0.09796(17) 0.39851(14)
C9_3 C 0.55963(12) 0.07681(12) 0.38682(13)
H4_3 H 0.542289 0.083615 0.360104
C10_3 C 0.67490(16) 0.2064(2) 0.32510(16)
C11_3 C 0.69766(15) 0.24696(19) 0.30234(15)
C12_3 C 0.62724(15) 0.13459(19) 0.37276(15)
C13_3 C 0.69268(18) 0.18796(18) 0.36555(18)
H5_3 H 0.720876 0.199260 0.377295
C14_3 C 0.66929(17) 0.15274(18) 0.38930(18)
H6_3 H 0.681977 0.140968 0.416887
N5_3 N 0.58109(9) 0.45252(9) 0.04541(8)
N6_3 N 0.67750(16) 0.26418(12) 0.26418(12)
C15_3 C 0.60149(14) 0.39851(14) 0.09796(17)
C16_3 C 0.61318(13) 0.44037(12) 0.07681(12)
H7_3 H 0.639896 0.457711 0.083615
C17_3 C 0.67490(16) 0.32510(16) 0.2064(2)
C18_3 C 0.69766(15) 0.30234(15) 0.24696(19)
C19_3 C 0.62724(15) 0.37276(15) 0.13459(19)
C20_3 C 0.63445(18) 0.30732(18) 0.18796(18)
H8_3 H 0.622705 0.279124 0.199260
C21_3 C 0.61070(18) 0.33071(17) 0.15274(18)
H9_3 H 0.583113 0.318023 0.140968
C22_3 C 0.61318(13) 0.07681(12) 0.44037(12)
H10_3 H 0.639896 0.083615 0.457711
C23_3 C 0.63445(18) 0.18796(18) 0.30732(18)
H11_3 H 0.622705 0.199260 0.279124
C24_3 C 0.61070(18) 0.15274(18) 0.33071(17)
H12_3 H 0.583113 0.140968 0.318023
N8_2 N 0.95459(8) 0.45252(9) 0.41891(9)
C25_3 C 0.92319(12) 0.44037(12) 0.38682(13)
H13_3 H 0.916385 0.457711 0.360104
C26_3 C 0.81204(18) 0.30732(18) 0.36555(18)
H14_3 H 0.800740 0.279124 0.377295
C27_3 C 0.84726(18) 0.33071(17) 0.38930(18)
H15_3 H 0.859032 0.318023 0.416887
N9_3 N 0.54748(9) 0.41891(9) 0.04541(8)
C28_3 C 0.55963(12) 0.38682(13) 0.07681(12)
H16_3 H 0.542289 0.360104 0.083615
C29_3 C 0.69268(18) 0.36555(18) 0.18796(18)
H17_3 H 0.720876 0.377295 0.199260
C30_3 C 0.66929(17) 0.38930(18) 0.15274(18)
H18_3 H 0.681977 0.416887 0.140968
N11_3 N 0.67750(16) 0.26418(12) 0.73582(12)
C31_3 C 0.60149(14) 0.09796(17) 0.60149(14)
C32_3 C 0.61318(13) 0.07681(12) 0.55963(12)
H19_3 H 0.639896 0.083615 0.542289
C33_3 C 0.67490(16) 0.2064(2) 0.67490(16)
C34_3 C 0.69766(15) 0.24696(19) 0.69766(15)
C35_3 C 0.62724(15) 0.13459(19) 0.62724(15)
C36_3 C 0.63445(18) 0.18796(18) 0.69268(18)
H20_3 H 0.622705 0.199260 0.720876
C37_3 C 0.61070(18) 0.15274(18) 0.66929(17)
H21_3 H 0.583113 0.140968 0.681977
N13_3 N 0.73582(12) 0.26418(12) 0.67750(16)
C38_3 C 0.90204(17) 0.39851(14) 0.60149(14)
C39_3 C 0.92319(12) 0.44037(12) 0.61318(13)
H22_3 H 0.916385 0.457711 0.639896
C40_3 C 0.7936(2) 0.32510(16) 0.67490(16)
C41_3 C 0.75304(19) 0.30234(15) 0.69766(15)
C42_3 C 0.86541(19) 0.37276(15) 0.62724(15)
C43_3 C 0.81204(18) 0.30732(18) 0.63445(18)
H23_3 H 0.800740 0.279124 0.622705
C44_3 C 0.84726(18) 0.33071(17) 0.61070(18)
H24_3 H 0.859032 0.318023 0.583113
N14_3 N 0.54748(9) 0.41891(9) 0.95459(8)
N15_3 N 0.73582(12) 0.32250(16) 0.73582(12)
C45_3 C 0.60149(14) 0.39851(14) 0.90204(17)
C46_3 C 0.55963(12) 0.38682(13) 0.92319(12)
H25_3 H 0.542289 0.360104 0.916385
C47_3 C 0.67490(16) 0.32510(16) 0.7936(2)
C48_3 C 0.69766(15) 0.30234(15) 0.75304(19)
C49_3 C 0.62724(15) 0.37276(15) 0.86541(19)
C50_3 C 0.69268(18) 0.36555(18) 0.81204(18)
H26_3 H 0.720876 0.377295 0.800740
C51_3 C 0.66929(17) 0.38930(18) 0.84726(18)
H27_3 H 0.681977 0.416887 0.859032
C52_3 C 0.92319(12) 0.38682(13) 0.55963(12)
H28_3 H 0.916385 0.360104 0.542289
C53_3 C 0.81204(18) 0.36555(18) 0.69268(18)
H29_3 H 0.800740 0.377295 0.720876
C54_3 C 0.84726(18) 0.38930(18) 0.66929(17)
H30_3 H 0.859032 0.416887 0.681977
N17_3 N 0.54748(9) 0.04541(8) 0.58109(9)
C55_3 C 0.55963(12) 0.07681(12) 0.61318(13)
H31_3 H 0.542289 0.083615 0.639896
C56_3 C 0.69268(18) 0.18796(18) 0.63445(18)
H32_3 H 0.720876 0.199260 0.622705
C57_3 C 0.66929(17) 0.15274(18) 0.61070(18)
H33_3 H 0.681977 0.140968 0.583113
N18_3 N 0.58109(9) 0.45252(9) 0.95459(8)
C58_3 C 0.61318(13) 0.44037(12) 0.92319(12)
H34_3 H 0.639896 0.457711 0.916385
C59_3 C 0.63445(18) 0.30732(18) 0.81204(18)
H35_3 H 0.622705 0.279124 0.800740
C60_3 C 0.61070(18) 0.33071(17) 0.84726(18)
H36_3 H 0.583113 0.318023 0.859032
N2_4 N 0.26418(12) 0.67750(16) 0.26418(12)
C1_4 C 0.09796(17) 0.60149(14) 0.39851(14)
C2_4 C 0.07681(12) 0.61318(13) 0.44037(12)
H1_4 H 0.083615 0.639896 0.457711
C3_4 C 0.2064(2) 0.67490(16) 0.32510(16)
C4_4 C 0.24696(19) 0.69766(15) 0.30234(15)
C5_4 C 0.13459(19) 0.62724(15) 0.37276(15)
C6_4 C 0.18796(18) 0.63445(18) 0.30732(18)
H2_4 H 0.199260 0.622705 0.279124
C7_4 C 0.15274(18) 0.61070(18) 0.33071(17)
H3_4 H 0.140968 0.583113 0.318023
N3_4 N 0.45252(9) 0.95459(8) 0.41891(9)
N4_4 N 0.26418(12) 0.73582(12) 0.32250(16)
C8_4 C 0.39851(14) 0.90204(17) 0.39851(14)
C9_4 C 0.44037(12) 0.92319(12) 0.38682(13)
H4_4 H 0.457711 0.916385 0.360104
C10_4 C 0.32510(16) 0.7936(2) 0.32510(16)
C11_4 C 0.30234(15) 0.75304(19) 0.30234(15)
C12_4 C 0.37276(15) 0.86541(19) 0.37276(15)
C13_4 C 0.30732(18) 0.81204(18) 0.36555(18)
H5_4 H 0.279124 0.800740 0.377295
C14_4 C 0.33071(17) 0.84726(18) 0.38930(18)
H6_4 H 0.318023 0.859032 0.416887
N5_4 N 0.41891(9) 0.54748(9) 0.04541(8)
N6_4 N 0.32250(16) 0.73582(12) 0.26418(12)
C15_4 C 0.39851(14) 0.60149(14) 0.09796(17)
C16_4 C 0.38682(13) 0.55963(12) 0.07681(12)
H7_4 H 0.360104 0.542289 0.083615
C17_4 C 0.32510(16) 0.67490(16) 0.2064(2)
C18_4 C 0.30234(15) 0.69766(15) 0.24696(19)
C19_4 C 0.37276(15) 0.62724(15) 0.13459(19)
C20_4 C 0.36555(18) 0.69268(18) 0.18796(18)
H8_4 H 0.377295 0.720876 0.199260
C21_4 C 0.38930(18) 0.66929(17) 0.15274(18)
H9_4 H 0.416887 0.681977 0.140968
C22_4 C 0.38682(13) 0.92319(12) 0.44037(12)
H10_4 H 0.360104 0.916385 0.457711
C23_4 C 0.36555(18) 0.81204(18) 0.30732(18)
H11_4 H 0.377295 0.800740 0.279124
C24_4 C 0.38930(18) 0.84726(18) 0.33071(17)
H12_4 H 0.416887 0.859032 0.318023
C25_4 C 0.07681(12) 0.55963(12) 0.38682(13)
H13_4 H 0.083615 0.542289 0.360104
C26_4 C 0.18796(18) 0.69268(18) 0.36555(18)
H14_4 H 0.199260 0.720876 0.377295
C27_4 C 0.15274(18) 0.66929(17) 0.38930(18)
H15_4 H 0.140968 0.681977 0.416887
N9_4 N 0.45252(9) 0.58109(9) 0.04541(8)
C28_4 C 0.44037(12) 0.61318(13) 0.07681(12)
H16_4 H 0.457711 0.639896 0.083615
C29_4 C 0.30732(18) 0.63445(18) 0.18796(18)
H17_4 H 0.279124 0.622705 0.199260
C30_4 C 0.33071(17) 0.61070(18) 0.15274(18)
H18_4 H 0.318023 0.583113 0.140968
N11_4 N 0.32250(16) 0.73582(12) 0.73582(12)
C31_4 C 0.39851(14) 0.90204(17) 0.60149(14)
C32_4 C 0.38682(13) 0.92319(12) 0.55963(12)
H19_4 H 0.360104 0.916385 0.542289
C33_4 C 0.32510(16) 0.7936(2) 0.67490(16)
C34_4 C 0.30234(15) 0.75304(19) 0.69766(15)
C35_4 C 0.37276(15) 0.86541(19) 0.62724(15)
C36_4 C 0.36555(18) 0.81204(18) 0.69268(18)
H20_4 H 0.377295 0.800740 0.720876
C37_4 C 0.38930(18) 0.84726(18) 0.66929(17)
H21_4 H 0.416887 0.859032 0.681977
N13_4 N 0.26418(12) 0.73582(12) 0.67750(16)
C38_4 C 0.09796(17) 0.60149(14) 0.60149(14)
C39_4 C 0.07681(12) 0.55963(12) 0.61318(13)
H22_4 H 0.083615 0.542289 0.639896
C40_4 C 0.2064(2) 0.67490(16) 0.67490(16)
C41_4 C 0.24696(19) 0.69766(15) 0.69766(15)
C42_4 C 0.13459(19) 0.62724(15) 0.62724(15)
C43_4 C 0.18796(18) 0.69268(18) 0.63445(18)
H23_4 H 0.199260 0.720876 0.622705
C44_4 C 0.15274(18) 0.66929(17) 0.61070(18)
H24_4 H 0.140968 0.681977 0.583113
N14_4 N 0.45252(9) 0.58109(9) 0.95459(8)
N15_4 N 0.26418(12) 0.67750(16) 0.73582(12)
C45_4 C 0.39851(14) 0.60149(14) 0.90204(17)
C46_4 C 0.44037(12) 0.61318(13) 0.92319(12)
H25_4 H 0.457711 0.639896 0.916385
C47_4 C 0.32510(16) 0.67490(16) 0.7936(2)
C48_4 C 0.30234(15) 0.69766(15) 0.75304(19)
C49_4 C 0.37276(15) 0.62724(15) 0.86541(19)
C50_4 C 0.30732(18) 0.63445(18) 0.81204(18)
H26_4 H 0.279124 0.622705 0.800740
C51_4 C 0.33071(17) 0.61070(18) 0.84726(18)
H27_4 H 0.318023 0.583113 0.859032
C52_4 C 0.07681(12) 0.61318(13) 0.55963(12)
H28_4 H 0.083615 0.639896 0.542289
C53_4 C 0.18796(18) 0.63445(18) 0.69268(18)
H29_4 H 0.199260 0.622705 0.720876
C54_4 C 0.15274(18) 0.61070(18) 0.66929(17)
H30_4 H 0.140968 0.583113 0.681977
N17_4 N 0.45252(9) 0.95459(8) 0.58109(9)
C55_4 C 0.44037(12) 0.92319(12) 0.61318(13)
H31_4 H 0.457711 0.916385 0.639896
C56_4 C 0.30732(18) 0.81204(18) 0.63445(18)
H32_4 H 0.279124 0.800740 0.622705
C57_4 C 0.33071(17) 0.84726(18) 0.61070(18)
H33_4 H 0.318023 0.859032 0.583113
N18_4 N 0.41891(9) 0.54748(9) 0.95459(8)
C58_4 C 0.38682(13) 0.55963(12) 0.92319(12)
H34_4 H 0.360104 0.542289 0.916385
C59_4 C 0.36555(18) 0.69268(18) 0.81204(18)
H35_4 H 0.377295 0.720876 0.800740
C60_4 C 0.38930(18) 0.66929(17) 0.84726(18)
H36_4 H 0.416887 0.681977 0.859032
Ni6_3 Ni 0.000000 0.500000 0.08093(4)
Ni11_5 Ni 0.000000 0.91907(4) 0.500000
Ni5_3 Ni 0.000000 0.500000 0.91907(4)
Ni3_3 Ni 0.500000 0.000000 0.08093(4)
Ni4_3 Ni 0.500000 0.08093(4) 0.000000
Ni8_5 Ni 0.91907(4) 0.000000 0.500000
N21_2 N 0.54541(8) 0.04748(9) 0.08109(9)
N25_3 N 0.45459(8) 0.04748(9) 0.08109(9)
Ni4_4 Ni 0.500000 0.08093(4) 1.000000
Ni9_3 Ni 0.500000 0.000000 0.91907(4)
Ni1_3 Ni 0.500000 0.91907(4) 0.000000
N1_3 N 0.54541(8) 0.91891(9) 0.04748(9)
N2_5 N 0.76418(12) 0.82250(16) 0.23582(12)
C1_5 C 0.59796(17) 0.89851(14) 0.10149(14)
C2_5 C 0.57681(12) 0.88682(13) 0.05963(12)
H1_5 H 0.583615 0.860104 0.042289
C3_5 C 0.7064(2) 0.82510(16) 0.17490(16)
C4_5 C 0.74696(19) 0.80234(15) 0.19766(15)
C5_5 C 0.63459(19) 0.87276(15) 0.12724(15)
C6_5 C 0.68796(18) 0.86555(18) 0.19268(18)
H2_5 H 0.699260 0.877295 0.220876
C7_5 C 0.65274(18) 0.88930(18) 0.16929(17)
H3_5 H 0.640968 0.916887 0.181977
N3_5 N 0.95252(9) 0.54541(8) 0.08109(9)
N4_5 N 0.76418(12) 0.76418(12) 0.17750(16)
C8_5 C 0.89851(14) 0.59796(17) 0.10149(14)
C9_5 C 0.94037(12) 0.57681(12) 0.11318(13)
H4_5 H 0.957711 0.583615 0.139896
C10_5 C 0.82510(16) 0.7064(2) 0.17490(16)
C11_5 C 0.80234(15) 0.74696(19) 0.19766(15)
C12_5 C 0.87276(15) 0.63459(19) 0.12724(15)
C13_5 C 0.80732(18) 0.68796(18) 0.13445(18)
H5_5 H 0.779124 0.699260 0.122705
C14_5 C 0.83071(17) 0.65274(18) 0.11070(18)
H6_5 H 0.818023 0.640968 0.083113
N5_5 N 0.91891(9) 0.95252(9) 0.45459(8)
N6_5 N 0.82250(16) 0.76418(12) 0.23582(12)
C15_5 C 0.89851(14) 0.89851(14) 0.40204(17)
C16_5 C 0.88682(13) 0.94037(12) 0.42319(12)
H7_5 H 0.860104 0.957711 0.416385
C17_5 C 0.82510(16) 0.82510(16) 0.2936(2)
C18_5 C 0.80234(15) 0.80234(15) 0.25304(19)
C19_5 C 0.87276(15) 0.87276(15) 0.36541(19)
C20_5 C 0.86555(18) 0.80732(18) 0.31204(18)
H8_5 H 0.877295 0.779124 0.300740
C21_5 C 0.88930(18) 0.83071(17) 0.34726(18)
H9_5 H 0.916887 0.818023 0.359032
N7_3 N 0.91891(9) 0.54541(8) 0.04748(9)
C22_5 C 0.88682(13) 0.57681(12) 0.05963(12)
H10_5 H 0.860104 0.583615 0.042289
C23_5 C 0.86555(18) 0.68796(18) 0.19268(18)
H11_5 H 0.877295 0.699260 0.220876
C24_5 C 0.88930(18) 0.65274(18) 0.16929(17)
H12_5 H 0.916887 0.640968 0.181977
N8_3 N 0.54541(8) 0.95252(9) 0.08109(9)
C25_5 C 0.57681(12) 0.94037(12) 0.11318(13)
H13_5 H 0.583615 0.957711 0.139896
C26_5 C 0.68796(18) 0.80732(18) 0.13445(18)
H14_5 H 0.699260 0.779124 0.122705
C27_5 C 0.65274(18) 0.83071(17) 0.11070(18)
H15_5 H 0.640968 0.818023 0.083113
N9_5 N 0.95252(9) 0.91891(9) 0.45459(8)
C28_5 C 0.94037(12) 0.88682(13) 0.42319(12)
H16_5 H 0.957711 0.860104 0.416385
C29_5 C 0.80732(18) 0.86555(18) 0.31204(18)
H17_5 H 0.779124 0.877295 0.300740
C30_5 C 0.83071(17) 0.88930(18) 0.34726(18)
H18_5 H 0.818023 0.916887 0.359032
Ni2_5 Ni 0.91907(4) 0.500000 0.000000
Ni3_4 Ni 0.500000 1.000000 0.08093(4)
Ni6_4 Ni 1.000000 0.500000 0.08093(4)
Ni8_6 Ni 0.91907(4) 1.000000 0.500000
Ni11_6 Ni 1.000000 0.91907(4) 0.500000
N20_3 N 0.91891(9) 0.45459(8) 0.04748(9)
N22_2 N 0.45459(8) 0.95252(9) 0.08109(9)
N23_3 N 0.45459(8) 0.91891(9) 0.04748(9)
Ni1_4 Ni 0.500000 0.91907(4) 1.000000
Ni2_6 Ni 0.91907(4) 0.500000 1.000000
N10_3 N 0.91891(9) 0.54541(8) 0.95252(9)
N11_5 N 0.82250(16) 0.76418(12) 0.76418(12)
C31_5 C 0.89851(14) 0.59796(17) 0.89851(14)
C32_5 C 0.88682(13) 0.57681(12) 0.94037(12)
H19_5 H 0.860104 0.583615 0.957711
C33_5 C 0.82510(16) 0.7064(2) 0.82510(16)
C34_5 C 0.80234(15) 0.74696(19) 0.80234(15)
C35_5 C 0.87276(15) 0.63459(19) 0.87276(15)
C36_5 C 0.86555(18) 0.68796(18) 0.80732(18)
H20_5 H 0.877295 0.699260 0.779124
C37_5 C 0.88930(18) 0.65274(18) 0.83071(17)
H21_5 H 0.916887 0.640968 0.818023
N12_3 N 0.54541(8) 0.95252(9) 0.91891(9)
N13_5 N 0.76418(12) 0.76418(12) 0.82250(16)
C38_5 C 0.59796(17) 0.89851(14) 0.89851(14)
C39_5 C 0.57681(12) 0.94037(12) 0.88682(13)
H22_5 H 0.583615 0.957711 0.860104
C40_5 C 0.7064(2) 0.82510(16) 0.82510(16)
C41_5 C 0.74696(19) 0.80234(15) 0.80234(15)
C42_5 C 0.63459(19) 0.87276(15) 0.87276(15)
C43_5 C 0.68796(18) 0.80732(18) 0.86555(18)
H23_5 H 0.699260 0.779124 0.877295
C44_5 C 0.65274(18) 0.83071(17) 0.88930(18)
H24_5 H 0.640968 0.818023 0.916887
N14_5 N 0.95252(9) 0.91891(9) 0.54541(8)
N15_5 N 0.76418(12) 0.82250(16) 0.76418(12)
C45_5 C 0.89851(14) 0.89851(14) 0.59796(17)
C46_5 C 0.94037(12) 0.88682(13) 0.57681(12)
H25_5 H 0.957711 0.860104 0.583615
C47_5 C 0.82510(16) 0.82510(16) 0.7064(2)
C48_5 C 0.80234(15) 0.80234(15) 0.74696(19)
C49_5 C 0.87276(15) 0.87276(15) 0.63459(19)
C50_5 C 0.80732(18) 0.86555(18) 0.68796(18)
H26_5 H 0.779124 0.877295 0.699260
C51_5 C 0.83071(17) 0.88930(18) 0.65274(18)
H27_5 H 0.818023 0.916887 0.640968
N16_3 N 0.54541(8) 0.91891(9) 0.95252(9)
C52_5 C 0.57681(12) 0.88682(13) 0.94037(12)
H28_5 H 0.583615 0.860104 0.957711
C53_5 C 0.68796(18) 0.86555(18) 0.80732(18)
H29_5 H 0.699260 0.877295 0.779124
C54_5 C 0.65274(18) 0.88930(18) 0.83071(17)
H30_5 H 0.640968 0.916887 0.818023
N17_5 N 0.95252(9) 0.54541(8) 0.91891(9)
C55_5 C 0.94037(12) 0.57681(12) 0.88682(13)
H31_5 H 0.957711 0.583615 0.860104
C56_5 C 0.80732(18) 0.68796(18) 0.86555(18)
H32_5 H 0.779124 0.699260 0.877295
C57_5 C 0.83071(17) 0.65274(18) 0.88930(18)
H33_5 H 0.818023 0.640968 0.916887
N18_5 N 0.91891(9) 0.95252(9) 0.54541(8)
C58_5 C 0.88682(13) 0.94037(12) 0.57681(12)
H34_5 H 0.860104 0.957711 0.583615
C59_5 C 0.86555(18) 0.80732(18) 0.68796(18)
H35_5 H 0.877295 0.779124 0.699260
C60_5 C 0.88930(18) 0.83071(17) 0.65274(18)
H36_5 H 0.916887 0.818023 0.640968
Ni5_4 Ni 1.000000 0.500000 0.91907(4)
Ni9_4 Ni 0.500000 1.000000 0.91907(4)
N19_3 N 0.45459(8) 0.91891(9) 0.95252(9)
N24_3 N 0.91891(9) 0.45459(8) 0.95252(9)
N1_4 N 0.45459(8) 0.08109(9) 0.04748(9)
N2_6 N 0.23582(12) 0.17750(16) 0.23582(12)
C1_6 C 0.40204(17) 0.10149(14) 0.10149(14)
C2_6 C 0.42319(12) 0.11318(13) 0.05963(12)
H1_6 H 0.416385 0.139896 0.042289
C3_6 C 0.2936(2) 0.17490(16) 0.17490(16)
C4_6 C 0.25304(19) 0.19766(15) 0.19766(15)
C5_6 C 0.36541(19) 0.12724(15) 0.12724(15)
C6_6 C 0.31204(18) 0.13445(18) 0.19268(18)
H2_6 H 0.300740 0.122705 0.220876
C7_6 C 0.34726(18) 0.11070(18) 0.16929(17)
H3_6 H 0.359032 0.083113 0.181977
N3_6 N 0.04748(9) 0.45459(8) 0.08109(9)
N4_6 N 0.23582(12) 0.23582(12) 0.17750(16)
C8_6 C 0.10149(14) 0.40204(17) 0.10149(14)
C9_6 C 0.05963(12) 0.42319(12) 0.11318(13)
H4_6 H 0.042289 0.416385 0.139896
C10_6 C 0.17490(16) 0.2936(2) 0.17490(16)
C11_6 C 0.19766(15) 0.25304(19) 0.19766(15)
C12_6 C 0.12724(15) 0.36541(19) 0.12724(15)
C13_6 C 0.19268(18) 0.31204(18) 0.13445(18)
H5_6 H 0.220876 0.300740 0.122705
C14_6 C 0.16929(17) 0.34726(18) 0.11070(18)
H6_6 H 0.181977 0.359032 0.083113
N5_6 N 0.08109(9) 0.04748(9) 0.45459(8)
N6_6 N 0.17750(16) 0.23582(12) 0.23582(12)
C15_6 C 0.10149(14) 0.10149(14) 0.40204(17)
C16_6 C 0.11318(13) 0.05963(12) 0.42319(12)
H7_6 H 0.139896 0.042289 0.416385
C17_6 C 0.17490(16) 0.17490(16) 0.2936(2)
C18_6 C 0.19766(15) 0.19766(15) 0.25304(19)
C19_6 C 0.12724(15) 0.12724(15) 0.36541(19)
C20_6 C 0.13445(18) 0.19268(18) 0.31204(18)
H8_6 H 0.122705 0.220876 0.300740
C21_6 C 0.11070(18) 0.16929(17) 0.34726(18)
H9_6 H 0.083113 0.181977 0.359032
N7_4 N 0.08109(9) 0.45459(8) 0.04748(9)
C22_6 C 0.11318(13) 0.42319(12) 0.05963(12)
H10_6 H 0.139896 0.416385 0.042289
C23_6 C 0.13445(18) 0.31204(18) 0.19268(18)
H11_6 H 0.122705 0.300740 0.220876
C24_6 C 0.11070(18) 0.34726(18) 0.16929(17)
H12_6 H 0.083113 0.359032 0.181977
C25_6 C 0.42319(12) 0.05963(12) 0.11318(13)
H13_6 H 0.416385 0.042289 0.139896
C26_6 C 0.31204(18) 0.19268(18) 0.13445(18)
H14_6 H 0.300740 0.220876 0.122705
C27_6 C 0.34726(18) 0.16929(17) 0.11070(18)
H15_6 H 0.359032 0.181977 0.083113
N9_6 N 0.04748(9) 0.08109(9) 0.45459(8)
C28_6 C 0.05963(12) 0.11318(13) 0.42319(12)
H16_6 H 0.042289 0.139896 0.416385
C29_6 C 0.19268(18) 0.13445(18) 0.31204(18)
H17_6 H 0.220876 0.122705 0.300740
C30_6 C 0.16929(17) 0.11070(18) 0.34726(18)
H18_6 H 0.181977 0.083113 0.359032
Ni2_7 Ni 0.08093(4) 0.500000 0.000000
Ni8_7 Ni 0.08093(4) 0.000000 0.500000
Ni11_7 Ni 0.000000 0.08093(4) 0.500000
N20_4 N 0.08109(9) 0.54541(8) 0.04748(9)
N23_4 N 0.54541(8) 0.08109(9) 0.04748(9)
Ni2_8 Ni 0.08093(4) 0.500000 1.000000
N10_4 N 0.08109(9) 0.45459(8) 0.95252(9)
N11_6 N 0.17750(16) 0.23582(12) 0.76418(12)
C31_6 C 0.10149(14) 0.40204(17) 0.89851(14)
C32_6 C 0.11318(13) 0.42319(12) 0.94037(12)
H19_6 H 0.139896 0.416385 0.957711
C33_6 C 0.17490(16) 0.2936(2) 0.82510(16)
C34_6 C 0.19766(15) 0.25304(19) 0.80234(15)
C35_6 C 0.12724(15) 0.36541(19) 0.87276(15)
C36_6 C 0.13445(18) 0.31204(18) 0.80732(18)
H20_6 H 0.122705 0.300740 0.779124
C37_6 C 0.11070(18) 0.34726(18) 0.83071(17)
H21_6 H 0.083113 0.359032 0.818023
N12_4 N 0.45459(8) 0.04748(9) 0.91891(9)
N13_6 N 0.23582(12) 0.23582(12) 0.82250(16)
C38_6 C 0.40204(17) 0.10149(14) 0.89851(14)
C39_6 C 0.42319(12) 0.05963(12) 0.88682(13)
H22_6 H 0.416385 0.042289 0.860104
C40_6 C 0.2936(2) 0.17490(16) 0.82510(16)
C41_6 C 0.25304(19) 0.19766(15) 0.80234(15)
C42_6 C 0.36541(19) 0.12724(15) 0.87276(15)
C43_6 C 0.31204(18) 0.19268(18) 0.86555(18)
H23_6 H 0.300740 0.220876 0.877295
C44_6 C 0.34726(18) 0.16929(17) 0.88930(18)
H24_6 H 0.359032 0.181977 0.916887
N14_6 N 0.04748(9) 0.08109(9) 0.54541(8)
N15_6 N 0.23582(12) 0.17750(16) 0.76418(12)
C45_6 C 0.10149(14) 0.10149(14) 0.59796(17)
C46_6 C 0.05963(12) 0.11318(13) 0.57681(12)
H25_6 H 0.042289 0.139896 0.583615
C47_6 C 0.17490(16) 0.17490(16) 0.7064(2)
C48_6 C 0.19766(15) 0.19766(15) 0.74696(19)
C49_6 C 0.12724(15) 0.12724(15) 0.63459(19)
C50_6 C 0.19268(18) 0.13445(18) 0.68796(18)
H26_6 H 0.220876 0.122705 0.699260
C51_6 C 0.16929(17) 0.11070(18) 0.65274(18)
H27_6 H 0.181977 0.083113 0.640968
N16_4 N 0.45459(8) 0.08109(9) 0.95252(9)
C52_6 C 0.42319(12) 0.11318(13) 0.94037(12)
H28_6 H 0.416385 0.139896 0.957711
C53_6 C 0.31204(18) 0.13445(18) 0.80732(18)
H29_6 H 0.300740 0.122705 0.779124
C54_6 C 0.34726(18) 0.11070(18) 0.83071(17)
H30_6 H 0.359032 0.083113 0.818023
N17_6 N 0.04748(9) 0.45459(8) 0.91891(9)
C55_6 C 0.05963(12) 0.42319(12) 0.88682(13)
H31_6 H 0.042289 0.416385 0.860104
C56_6 C 0.19268(18) 0.31204(18) 0.86555(18)
H32_6 H 0.220876 0.300740 0.877295
C57_6 C 0.16929(17) 0.34726(18) 0.88930(18)
H33_6 H 0.181977 0.359032 0.916887
N18_6 N 0.08109(9) 0.04748(9) 0.54541(8)
C58_6 C 0.11318(13) 0.05963(12) 0.57681(12)
H34_6 H 0.139896 0.042289 0.583615
C59_6 C 0.13445(18) 0.19268(18) 0.68796(18)
H35_6 H 0.122705 0.220876 0.699260
C60_6 C 0.11070(18) 0.16929(17) 0.65274(18)
H36_6 H 0.083113 0.181977 0.640968
N19_4 N 0.54541(8) 0.08109(9) 0.95252(9)
N24_4 N 0.08109(9) 0.54541(8) 0.95252(9)
Ni8_8 Ni 0.08093(4) 1.000000 0.500000
Ni11_8 Ni 1.000000 0.08093(4) 0.500000
N25_4 N 0.54541(8) 0.04748(9) 0.91891(9)
N11_7 N 0.17750(16) 0.76418(12) 0.23582(12)
C31_7 C 0.10149(14) 0.59796(17) 0.10149(14)
C32_7 C 0.11318(13) 0.57681(12) 0.05963(12)
H19_7 H 0.139896 0.583615 0.042289
C33_7 C 0.17490(16) 0.7064(2) 0.17490(16)
C34_7 C 0.19766(15) 0.74696(19) 0.19766(15)
C35_7 C 0.12724(15) 0.63459(19) 0.12724(15)
C36_7 C 0.13445(18) 0.68796(18) 0.19268(18)
H20_7 H 0.122705 0.699260 0.220876
C37_7 C 0.11070(18) 0.65274(18) 0.16929(17)
H21_7 H 0.083113 0.640968 0.181977
N13_7 N 0.23582(12) 0.76418(12) 0.17750(16)
C38_7 C 0.40204(17) 0.89851(14) 0.10149(14)
C39_7 C 0.42319(12) 0.94037(12) 0.11318(13)
H22_7 H 0.416385 0.957711 0.139896
C40_7 C 0.2936(2) 0.82510(16) 0.17490(16)
C41_7 C 0.25304(19) 0.80234(15) 0.19766(15)
C42_7 C 0.36541(19) 0.87276(15) 0.12724(15)
C43_7 C 0.31204(18) 0.80732(18) 0.13445(18)
H23_7 H 0.300740 0.779124 0.122705
C44_7 C 0.34726(18) 0.83071(17) 0.11070(18)
H24_7 H 0.359032 0.818023 0.083113
N14_7 N 0.04748(9) 0.91891(9) 0.45459(8)
N15_7 N 0.23582(12) 0.82250(16) 0.23582(12)
C45_7 C 0.10149(14) 0.89851(14) 0.40204(17)
C46_7 C 0.05963(12) 0.88682(13) 0.42319(12)
H25_7 H 0.042289 0.860104 0.416385
C47_7 C 0.17490(16) 0.82510(16) 0.2936(2)
C48_7 C 0.19766(15) 0.80234(15) 0.25304(19)
C49_7 C 0.12724(15) 0.87276(15) 0.36541(19)
C50_7 C 0.19268(18) 0.86555(18) 0.31204(18)
H26_7 H 0.220876 0.877295 0.300740
C51_7 C 0.16929(17) 0.88930(18) 0.34726(18)
H27_7 H 0.181977 0.916887 0.359032
C52_7 C 0.42319(12) 0.88682(13) 0.05963(12)
H28_7 H 0.416385 0.860104 0.042289
C53_7 C 0.31204(18) 0.86555(18) 0.19268(18)
H29_7 H 0.300740 0.877295 0.220876
C54_7 C 0.34726(18) 0.88930(18) 0.16929(17)
H30_7 H 0.359032 0.916887 0.181977
N17_7 N 0.04748(9) 0.54541(8) 0.08109(9)
C55_7 C 0.05963(12) 0.57681(12) 0.11318(13)
H31_7 H 0.042289 0.583615 0.139896
C56_7 C 0.19268(18) 0.68796(18) 0.13445(18)
H32_7 H 0.220876 0.699260 0.122705
C57_7 C 0.16929(17) 0.65274(18) 0.11070(18)
H33_7 H 0.181977 0.640968 0.083113
N18_7 N 0.08109(9) 0.95252(9) 0.45459(8)
C58_7 C 0.11318(13) 0.94037(12) 0.42319(12)
H34_7 H 0.139896 0.957711 0.416385
C59_7 C 0.13445(18) 0.80732(18) 0.31204(18)
H35_7 H 0.122705 0.779124 0.300740
C60_7 C 0.11070(18) 0.83071(17) 0.34726(18)
H36_7 H 0.083113 0.818023 0.359032
N2_7 N 0.23582(12) 0.82250(16) 0.76418(12)
C1_7 C 0.40204(17) 0.89851(14) 0.89851(14)
C2_7 C 0.42319(12) 0.88682(13) 0.94037(12)
H1_7 H 0.416385 0.860104 0.957711
C3_7 C 0.2936(2) 0.82510(16) 0.82510(16)
C4_7 C 0.25304(19) 0.80234(15) 0.80234(15)
C5_7 C 0.36541(19) 0.87276(15) 0.87276(15)
C6_7 C 0.31204(18) 0.86555(18) 0.80732(18)
H2_7 H 0.300740 0.877295 0.779124
C7_7 C 0.34726(18) 0.88930(18) 0.83071(17)
H3_7 H 0.359032 0.916887 0.818023
N3_7 N 0.04748(9) 0.54541(8) 0.91891(9)
N4_7 N 0.23582(12) 0.76418(12) 0.82250(16)
C8_7 C 0.10149(14) 0.59796(17) 0.89851(14)
C9_7 C 0.05963(12) 0.57681(12) 0.88682(13)
H4_7 H 0.042289 0.583615 0.860104
C10_7 C 0.17490(16) 0.7064(2) 0.82510(16)
C11_7 C 0.19766(15) 0.74696(19) 0.80234(15)
C12_7 C 0.12724(15) 0.63459(19) 0.87276(15)
C13_7 C 0.19268(18) 0.68796(18) 0.86555(18)
H5_7 H 0.220876 0.699260 0.877295
C14_7 C 0.16929(17) 0.65274(18) 0.88930(18)
H6_7 H 0.181977 0.640968 0.916887
N5_7 N 0.08109(9) 0.95252(9) 0.54541(8)
N6_7 N 0.17750(16) 0.76418(12) 0.76418(12)
C15_7 C 0.10149(14) 0.89851(14) 0.59796(17)
C16_7 C 0.11318(13) 0.94037(12) 0.57681(12)
H7_7 H 0.139896 0.957711 0.583615
C17_7 C 0.17490(16) 0.82510(16) 0.7064(2)
C18_7 C 0.19766(15) 0.80234(15) 0.74696(19)
C19_7 C 0.12724(15) 0.87276(15) 0.63459(19)
C20_7 C 0.13445(18) 0.80732(18) 0.68796(18)
H8_7 H 0.122705 0.779124 0.699260
C21_7 C 0.11070(18) 0.83071(17) 0.65274(18)
H9_7 H 0.083113 0.818023 0.640968
C22_7 C 0.11318(13) 0.57681(12) 0.94037(12)
H10_7 H 0.139896 0.583615 0.957711
C23_7 C 0.13445(18) 0.68796(18) 0.80732(18)
H11_7 H 0.122705 0.699260 0.779124
C24_7 C 0.11070(18) 0.65274(18) 0.83071(17)
H12_7 H 0.083113 0.640968 0.818023
N8_4 N 0.45459(8) 0.95252(9) 0.91891(9)
C25_7 C 0.42319(12) 0.94037(12) 0.88682(13)
H13_7 H 0.416385 0.957711 0.860104
C26_7 C 0.31204(18) 0.80732(18) 0.86555(18)
H14_7 H 0.300740 0.779124 0.877295
C27_7 C 0.34726(18) 0.83071(17) 0.88930(18)
H15_7 H 0.359032 0.818023 0.916887
N9_7 N 0.04748(9) 0.91891(9) 0.54541(8)
C28_7 C 0.05963(12) 0.88682(13) 0.57681(12)
H16_7 H 0.042289 0.860104 0.583615
C29_7 C 0.19268(18) 0.86555(18) 0.68796(18)
H17_7 H 0.220876 0.877295 0.699260
C30_7 C 0.16929(17) 0.88930(18) 0.65274(18)
H18_7 H 0.181977 0.916887 0.640968
N11_8 N 0.82250(16) 0.23582(12) 0.23582(12)
C31_8 C 0.89851(14) 0.40204(17) 0.10149(14)
C32_8 C 0.88682(13) 0.42319(12) 0.05963(12)
H19_8 H 0.860104 0.416385 0.042289
C33_8 C 0.82510(16) 0.2936(2) 0.17490(16)
C34_8 C 0.80234(15) 0.25304(19) 0.19766(15)
C35_8 C 0.87276(15) 0.36541(19) 0.12724(15)
C36_8 C 0.86555(18) 0.31204(18) 0.19268(18)
H20_8 H 0.877295 0.300740 0.220876
C37_8 C 0.88930(18) 0.34726(18) 0.16929(17)
H21_8 H 0.916887 0.359032 0.181977
N13_8 N 0.76418(12) 0.23582(12) 0.17750(16)
C38_8 C 0.59796(17) 0.10149(14) 0.10149(14)
C39_8 C 0.57681(12) 0.05963(12) 0.11318(13)
H22_8 H 0.583615 0.042289 0.139896
C40_8 C 0.7064(2) 0.17490(16) 0.17490(16)
C41_8 C 0.74696(19) 0.19766(15) 0.19766(15)
C42_8 C 0.63459(19) 0.12724(15) 0.12724(15)
C43_8 C 0.68796(18) 0.19268(18) 0.13445(18)
H23_8 H 0.699260 0.220876 0.122705
C44_8 C 0.65274(18) 0.16929(17) 0.11070(18)
H24_8 H 0.640968 0.181977 0.083113
N14_8 N 0.95252(9) 0.08109(9) 0.45459(8)
N15_8 N 0.76418(12) 0.17750(16) 0.23582(12)
C45_8 C 0.89851(14) 0.10149(14) 0.40204(17)
C46_8 C 0.94037(12) 0.11318(13) 0.42319(12)
H25_8 H 0.957711 0.139896 0.416385
C47_8 C 0.82510(16) 0.17490(16) 0.2936(2)
C48_8 C 0.80234(15) 0.19766(15) 0.25304(19)
C49_8 C 0.87276(15) 0.12724(15) 0.36541(19)
C50_8 C 0.80732(18) 0.13445(18) 0.31204(18)
H26_8 H 0.779124 0.122705 0.300740
C51_8 C 0.83071(17) 0.11070(18) 0.34726(18)
H27_8 H 0.818023 0.083113 0.359032
C52_8 C 0.57681(12) 0.11318(13) 0.05963(12)
H28_8 H 0.583615 0.139896 0.042289
C53_8 C 0.68796(18) 0.13445(18) 0.19268(18)
H29_8 H 0.699260 0.122705 0.220876
C54_8 C 0.65274(18) 0.11070(18) 0.16929(17)
H30_8 H 0.640968 0.083113 0.181977
N17_8 N 0.95252(9) 0.45459(8) 0.08109(9)
C55_8 C 0.94037(12) 0.42319(12) 0.11318(13)
H31_8 H 0.957711 0.416385 0.139896
C56_8 C 0.80732(18) 0.31204(18) 0.13445(18)
H32_8 H 0.779124 0.300740 0.122705
C57_8 C 0.83071(17) 0.34726(18) 0.11070(18)
H33_8 H 0.818023 0.359032 0.083113
N18_8 N 0.91891(9) 0.04748(9) 0.45459(8)
C58_8 C 0.88682(13) 0.05963(12) 0.42319(12)
H34_8 H 0.860104 0.042289 0.416385
C59_8 C 0.86555(18) 0.19268(18) 0.31204(18)
H35_8 H 0.877295 0.220876 0.300740
C60_8 C 0.88930(18) 0.16929(17) 0.34726(18)
H36_8 H 0.916887 0.181977 0.359032
N2_8 N 0.76418(12) 0.17750(16) 0.76418(12)
C1_8 C 0.59796(17) 0.10149(14) 0.89851(14)
C2_8 C 0.57681(12) 0.11318(13) 0.94037(12)
H1_8 H 0.583615 0.139896 0.957711
C3_8 C 0.7064(2) 0.17490(16) 0.82510(16)
C4_8 C 0.74696(19) 0.19766(15) 0.80234(15)
C5_8 C 0.63459(19) 0.12724(15) 0.87276(15)
C6_8 C 0.68796(18) 0.13445(18) 0.80732(18)
H2_8 H 0.699260 0.122705 0.779124
C7_8 C 0.65274(18) 0.11070(18) 0.83071(17)
H3_8 H 0.640968 0.083113 0.818023
N3_8 N 0.95252(9) 0.45459(8) 0.91891(9)
N4_8 N 0.76418(12) 0.23582(12) 0.82250(16)
C8_8 C 0.89851(14) 0.40204(17) 0.89851(14)
C9_8 C 0.94037(12) 0.42319(12) 0.88682(13)
H4_8 H 0.957711 0.416385 0.860104
C10_8 C 0.82510(16) 0.2936(2) 0.82510(16)
C11_8 C 0.80234(15) 0.25304(19) 0.80234(15)
C12_8 C 0.87276(15) 0.36541(19) 0.87276(15)
C13_8 C 0.80732(18) 0.31204(18) 0.86555(18)
H5_8 H 0.779124 0.300740 0.877295
C14_8 C 0.83071(17) 0.34726(18) 0.88930(18)
H6_8 H 0.818023 0.359032 0.916887
N5_8 N 0.91891(9) 0.04748(9) 0.54541(8)
N6_8 N 0.82250(16) 0.23582(12) 0.76418(12)
C15_8 C 0.89851(14) 0.10149(14) 0.59796(17)
C16_8 C 0.88682(13) 0.05963(12) 0.57681(12)
H7_8 H 0.860104 0.042289 0.583615
C17_8 C 0.82510(16) 0.17490(16) 0.7064(2)
C18_8 C 0.80234(15) 0.19766(15) 0.74696(19)
C19_8 C 0.87276(15) 0.12724(15) 0.63459(19)
C20_8 C 0.86555(18) 0.19268(18) 0.68796(18)
H8_8 H 0.877295 0.220876 0.699260
C21_8 C 0.88930(18) 0.16929(17) 0.65274(18)
H9_8 H 0.916887 0.181977 0.640968
C22_8 C 0.88682(13) 0.42319(12) 0.94037(12)
H10_8 H 0.860104 0.416385 0.957711
C23_8 C 0.86555(18) 0.31204(18) 0.80732(18)
H11_8 H 0.877295 0.300740 0.779124
C24_8 C 0.88930(18) 0.34726(18) 0.83071(17)
H12_8 H 0.916887 0.359032 0.818023
C25_8 C 0.57681(12) 0.05963(12) 0.88682(13)
H13_8 H 0.583615 0.042289 0.860104
C26_8 C 0.68796(18) 0.19268(18) 0.86555(18)
H14_8 H 0.699260 0.220876 0.877295
C27_8 C 0.65274(18) 0.16929(17) 0.88930(18)
H15_8 H 0.640968 0.181977 0.916887
N9_8 N 0.95252(9) 0.08109(9) 0.54541(8)
C28_8 C 0.94037(12) 0.11318(13) 0.57681(12)
H16_8 H 0.957711 0.139896 0.583615
C29_8 C 0.80732(18) 0.13445(18) 0.68796(18)
H17_8 H 0.779124 0.122705 0.699260
C30_8 C 0.83071(17) 0.11070(18) 0.65274(18)
H18_8 H 0.818023 0.083113 0.640968
loop_
_geom_bond_atom_site_label_1
_geom_bond_atom_site_label_2
_geom_bond_site_symmetry_1
_geom_bond_site_symmetry_2
Ni8 Ni11 1_555 1_555
Ni1 N1 1_555 1_555
N1 C2 1_555 1_555
N2 C4 1_555 1_555
C1 C2 1_555 1_555
C2 H1 1_555 1_555
C3 C4 1_555 1_555
C4 N4 1_555 1_555
C5 C1 1_555 1_555
C6 C3 1_555 1_555
H2 C6 1_555 1_555
C7 C5 1_555 1_555
H3 C7 1_555 1_555
N3 C9 1_555 1_555
N4 C11 1_555 1_555
C8 C9 1_555 1_555
C9 H4 1_555 1_555
C10 C11 1_555 1_555
C11 N6 1_555 1_555
C12 C8 1_555 1_555
C13 C10 1_555 1_555
H5 C13 1_555 1_555
C14 C12 1_555 1_555
H6 C14 1_555 1_555
N5 C16 1_555 1_555
N6 C18 1_555 1_555
C15 C16 1_555 1_555
C16 H7 1_555 1_555
C17 C18 1_555 1_555
C18 N2 1_555 1_555
C19 C15 1_555 1_555
C20 C17 1_555 1_555
H8 C20 1_555 1_555
C21 C19 1_555 1_555
H9 C21 1_555 1_555
N7 N3 1_555 1_555
C22 C8 1_555 1_555
H10 C22 1_555 1_555
C23 C10 1_555 1_555
H11 C23 1_555 1_555
C24 C12 1_555 1_555
H12 C24 1_555 1_555
N8 N1 1_555 1_555
C25 C1 1_555 1_555
H13 C25 1_555 1_555
C26 C3 1_555 1_555
H14 C26 1_555 1_555
C27 C5 1_555 1_555
H15 C27 1_555 1_555
N9 N5 1_555 1_555
C28 C15 1_555 1_555
H16 C28 1_555 1_555
C29 C17 1_555 1_555
H17 C29 1_555 1_555
C30 C19 1_555 1_555
H18 C30 1_555 1_555
Ni2 N7 1_555 1_555
N10 Ni2 1_555 1_555
N11 C34 1_555 1_555
C31 C32 1_555 1_555
C32 N10 1_555 1_555
H19 C32 1_555 1_555
C33 C34 1_555 1_555
C34 N13 1_555 1_555
C35 C31 1_555 1_555
C36 C33 1_555 1_555
H20 C36 1_555 1_555
C37 C35 1_555 1_555
H21 C37 1_555 1_555
N12 C39 1_555 1_555
N13 C41 1_555 1_555
C38 C39 1_555 1_555
C39 H22 1_555 1_555
C40 C41 1_555 1_555
C41 N15 1_555 1_555
C42 C38 1_555 1_555
C43 C40 1_555 1_555
H23 C43 1_555 1_555
C44 C42 1_555 1_555
H24 C44 1_555 1_555
N14 C46 1_555 1_555
N15 C48 1_555 1_555
C45 C46 1_555 1_555
C46 H25 1_555 1_555
C47 C48 1_555 1_555
C48 N11 1_555 1_555
C49 C45 1_555 1_555
C50 C47 1_555 1_555
H26 C50 1_555 1_555
C51 C49 1_555 1_555
H27 C51 1_555 1_555
N16 Ni1 1_555 1_555
C52 C38 1_555 1_555
H28 C52 1_555 1_555
C53 C40 1_555 1_555
H29 C53 1_555 1_555
C54 C42 1_555 1_555
H30 C54 1_555 1_555
N17 N10 1_555 1_555
C55 C31 1_555 1_555
H31 C55 1_555 1_555
C56 C33 1_555 1_555
H32 C56 1_555 1_555
C57 C35 1_555 1_555
H33 C57 1_555 1_555
N18 N14 1_555 1_555
C58 C45 1_555 1_555
H34 C58 1_555 1_555
C59 C47 1_555 1_555
H35 C59 1_555 1_555
C60 C49 1_555 1_555
H36 C60 1_555 1_555
Ni3 Ni1 1_555 1_555
Ni4 Ni3 1_555 1_555
Ni5 Ni2 1_555 1_555
Ni6 N3 1_555 1_555
Ni8 N18 1_555 1_555
Ni8_2 N5 1_555 1_555
Ni9 Ni1 1_555 1_555
Ni11 N14 1_555 1_555
Ni11_2 N9 1_555 1_555
N21 Ni3 1_555 1_555
C6 C7 1_555 1_555
C13 C14 1_555 1_555
C20 C21 1_555 1_555
N7 C22 1_555 1_555
C23 C24 1_555 1_555
N8 C25 1_555 1_555
N8 Ni3 1_555 1_555
C26 C27 1_555 1_555
N9 C28 1_555 1_555
C29 C30 1_555 1_555
Ni2 Ni6 1_555 1_555
C36 C37 1_555 1_555
N12 N16 1_555 1_555
N12 Ni9 1_555 1_555
C43 C44 1_555 1_555
C50 C51 1_555 1_555
N16 C52 1_555 1_555
C53 C54 1_555 1_555
N17 C55 1_555 1_555
N17 Ni5 1_555 1_555
C56 C57 1_555 1_555
N18 C58 1_555 1_555
C59 C60 1_555 1_555
Ni4 Ni9 1_555 1_555
Ni8_2 Ni11_2 1_555 1_555
Ni5_2 Ni2_2 1_555 1_555
N20 Ni2_2 1_555 1_555
N24 Ni2_2 1_555 1_555
Ni2_2 Ni6_2 1_555 1_555
Ni3_2 Ni1_2 1_555 1_555
Ni4_2 Ni3_2 1_555 1_555
Ni9_2 Ni1_2 1_555 1_555
N19 Ni1_2 1_555 1_555
N22 Ni3_2 1_555 1_555
N23 Ni1_2 1_555 1_555
N25 Ni3_2 1_555 1_555
Ni4_2 Ni9_2 1_555 1_555
N22 N23 1_555 1_555
N19_2 Ni4 1_555 1_555
N23_2 Ni4 1_555 1_555
N21 N23_2 1_555 1_555
Ni5 Ni2_3 1_555 1_555
N20_2 Ni2_3 1_555 1_555
N24_2 Ni2_3 1_555 1_555
Ni2_3 Ni6 1_555 1_555
Ni8_3 Ni11_3 1_555 1_555
Ni4_2 N1_2 1_555 1_555
N1_2 C2_2 1_555 1_555
N2_2 C4_2 1_555 1_555
C1_2 C2_2 1_555 1_555
C2_2 H1_2 1_555 1_555
C3_2 C4_2 1_555 1_555
C4_2 N4_2 1_555 1_555
C5_2 C1_2 1_555 1_555
C6_2 C3_2 1_555 1_555
H2_2 C6_2 1_555 1_555
C7_2 C5_2 1_555 1_555
H3_2 C7_2 1_555 1_555
N3_2 C9_2 1_555 1_555
N4_2 C11_2 1_555 1_555
C8_2 C9_2 1_555 1_555
C9_2 H4_2 1_555 1_555
C10_2 C11_2 1_555 1_555
C11_2 N6_2 1_555 1_555
C12_2 C8_2 1_555 1_555
C13_2 C10_2 1_555 1_555
H5_2 C13_2 1_555 1_555
C14_2 C12_2 1_555 1_555
H6_2 C14_2 1_555 1_555
N5_2 C16_2 1_555 1_555
N6_2 C18_2 1_555 1_555
C15_2 C16_2 1_555 1_555
C16_2 H7_2 1_555 1_555
C17_2 C18_2 1_555 1_555
C18_2 N2_2 1_555 1_555
C19_2 C15_2 1_555 1_555
C20_2 C17_2 1_555 1_555
H8_2 C20_2 1_555 1_555
C21_2 C19_2 1_555 1_555
H9_2 C21_2 1_555 1_555
N7_2 N3_2 1_555 1_555
C22_2 C8_2 1_555 1_555
H10_2 C22_2 1_555 1_555
C23_2 C10_2 1_555 1_555
H11_2 C23_2 1_555 1_555
C24_2 C12_2 1_555 1_555
H12_2 C24_2 1_555 1_555
N25 N1_2 1_555 1_555
C25_2 C1_2 1_555 1_555
H13_2 C25_2 1_555 1_555
C26_2 C3_2 1_555 1_555
H14_2 C26_2 1_555 1_555
C27_2 C5_2 1_555 1_555
H15_2 C27_2 1_555 1_555
N9_2 N5_2 1_555 1_555
C28_2 C15_2 1_555 1_555
H16_2 C28_2 1_555 1_555
C29_2 C17_2 1_555 1_555
H17_2 C29_2 1_555 1_555
C30_2 C19_2 1_555 1_555
H18_2 C30_2 1_555 1_555
Ni2_4 N7_2 1_555 1_555
N10_2 Ni2_4 1_555 1_555
N11_2 C34_2 1_555 1_555
C31_2 C32_2 1_555 1_555
C32_2 N10_2 1_555 1_555
H19_2 C32_2 1_555 1_555
C33_2 C34_2 1_555 1_555
C34_2 N13_2 1_555 1_555
C35_2 C31_2 1_555 1_555
C36_2 C33_2 1_555 1_555
H20_2 C36_2 1_555 1_555
C37_2 C35_2 1_555 1_555
H21_2 C37_2 1_555 1_555
N12_2 C39_2 1_555 1_555
N13_2 C41_2 1_555 1_555
C38_2 C39_2 1_555 1_555
C39_2 H22_2 1_555 1_555
C40_2 C41_2 1_555 1_555
C41_2 N15_2 1_555 1_555
C42_2 C38_2 1_555 1_555
C43_2 C40_2 1_555 1_555
H23_2 C43_2 1_555 1_555
C44_2 C42_2 1_555 1_555
H24_2 C44_2 1_555 1_555
N14_2 C46_2 1_555 1_555
N15_2 C48_2 1_555 1_555
C45_2 C46_2 1_555 1_555
C46_2 H25_2 1_555 1_555
C47_2 C48_2 1_555 1_555
C48_2 N11_2 1_555 1_555
C49_2 C45_2 1_555 1_555
C50_2 C47_2 1_555 1_555
H26_2 C50_2 1_555 1_555
C51_2 C49_2 1_555 1_555
H27_2 C51_2 1_555 1_555
N16_2 Ni4_2 1_555 1_555
C52_2 C38_2 1_555 1_555
H28_2 C52_2 1_555 1_555
C53_2 C40_2 1_555 1_555
H29_2 C53_2 1_555 1_555
C54_2 C42_2 1_555 1_555
H30_2 C54_2 1_555 1_555
N17_2 N10_2 1_555 1_555
C55_2 C31_2 1_555 1_555
H31_2 C55_2 1_555 1_555
C56_2 C33_2 1_555 1_555
H32_2 C56_2 1_555 1_555
C57_2 C35_2 1_555 1_555
H33_2 C57_2 1_555 1_555
N18_2 N14_2 1_555 1_555
C58_2 C45_2 1_555 1_555
H34_2 C58_2 1_555 1_555
C59_2 C47_2 1_555 1_555
H35_2 C59_2 1_555 1_555
C60_2 C49_2 1_555 1_555
H36_2 C60_2 1_555 1_555
Ni5_2 Ni2_4 1_555 1_555
Ni6_2 N3_2 1_555 1_555
Ni8_3 N18_2 1_555 1_555
Ni8_4 N5_2 1_555 1_555
Ni11_3 N14_2 1_555 1_555
Ni11_4 N9_2 1_555 1_555
C6_2 C7_2 1_555 1_555
C13_2 C14_2 1_555 1_555
C20_2 C21_2 1_555 1_555
N7_2 C22_2 1_555 1_555
C23_2 C24_2 1_555 1_555
N25 C25_2 1_555 1_555
C26_2 C27_2 1_555 1_555
N9_2 C28_2 1_555 1_555
C29_2 C30_2 1_555 1_555
Ni2_4 Ni6_2 1_555 1_555
C36_2 C37_2 1_555 1_555
N12_2 N16_2 1_555 1_555
N12_2 Ni9_2 1_555 1_555
C43_2 C44_2 1_555 1_555
C50_2 C51_2 1_555 1_555
N16_2 C52_2 1_555 1_555
C53_2 C54_2 1_555 1_555
N17_2 C55_2 1_555 1_555
N17_2 Ni5_2 1_555 1_555
C56_2 C57_2 1_555 1_555
N18_2 C58_2 1_555 1_555
C59_2 C60_2 1_555 1_555
Ni8_4 Ni11_4 1_555 1_555
N25_2 Ni9 1_555 1_555
Ni8_3 Ni11 1_555 1_555
N19 C2_3 1_555 1_555
N2_3 C4_3 1_555 1_555
C1_3 C2_3 1_555 1_555
C2_3 H1_3 1_555 1_555
C3_3 C4_3 1_555 1_555
C4_3 N4_3 1_555 1_555
C5_3 C1_3 1_555 1_555
C6_3 C3_3 1_555 1_555
H2_3 C6_3 1_555 1_555
C7_3 C5_3 1_555 1_555
H3_3 C7_3 1_555 1_555
N3_3 C9_3 1_555 1_555
N4_3 C11_3 1_555 1_555
C8_3 C9_3 1_555 1_555
C9_3 H4_3 1_555 1_555
C10_3 C11_3 1_555 1_555
C11_3 N6_3 1_555 1_555
C12_3 C8_3 1_555 1_555
C13_3 C10_3 1_555 1_555
H5_3 C13_3 1_555 1_555
C14_3 C12_3 1_555 1_555
H6_3 C14_3 1_555 1_555
N5_3 C16_3 1_555 1_555
N6_3 C18_3 1_555 1_555
C15_3 C16_3 1_555 1_555
C16_3 H7_3 1_555 1_555
C17_3 C18_3 1_555 1_555
C18_3 N2_3 1_555 1_555
C19_3 C15_3 1_555 1_555
C20_3 C17_3 1_555 1_555
H8_3 C20_3 1_555 1_555
C21_3 C19_3 1_555 1_555
H9_3 C21_3 1_555 1_555
N24_2 N3_3 1_555 1_555
C22_3 C8_3 1_555 1_555
H10_3 C22_3 1_555 1_555
C23_3 C10_3 1_555 1_555
H11_3 C23_3 1_555 1_555
C24_3 C12_3 1_555 1_555
H12_3 C24_3 1_555 1_555
N8_2 N19 1_555 1_555
C25_3 C1_3 1_555 1_555
H13_3 C25_3 1_555 1_555
C26_3 C3_3 1_555 1_555
H14_3 C26_3 1_555 1_555
C27_3 C5_3 1_555 1_555
H15_3 C27_3 1_555 1_555
N9_3 N5_3 1_555 1_555
C28_3 C15_3 1_555 1_555
H16_3 C28_3 1_555 1_555
C29_3 C17_3 1_555 1_555
H17_3 C29_3 1_555 1_555
C30_3 C19_3 1_555 1_555
H18_3 C30_3 1_555 1_555
N11_3 C34_3 1_555 1_555
C31_3 C32_3 1_555 1_555
C32_3 N20_2 1_555 1_555
H19_3 C32_3 1_555 1_555
C33_3 C34_3 1_555 1_555
C34_3 N13_3 1_555 1_555
C35_3 C31_3 1_555 1_555
C36_3 C33_3 1_555 1_555
H20_3 C36_3 1_555 1_555
C37_3 C35_3 1_555 1_555
H21_3 C37_3 1_555 1_555
N22 C39_3 1_555 1_555
N13_3 C41_3 1_555 1_555
C38_3 C39_3 1_555 1_555
C39_3 H22_3 1_555 1_555
C40_3 C41_3 1_555 1_555
C41_3 N15_3 1_555 1_555
C42_3 C38_3 1_555 1_555
C43_3 C40_3 1_555 1_555
H23_3 C43_3 1_555 1_555
C44_3 C42_3 1_555 1_555
H24_3 C44_3 1_555 1_555
N14_3 C46_3 1_555 1_555
N15_3 C48_3 1_555 1_555
C45_3 C46_3 1_555 1_555
C46_3 H25_3 1_555 1_555
C47_3 C48_3 1_555 1_555
C48_3 N11_3 1_555 1_555
C49_3 C45_3 1_555 1_555
C50_3 C47_3 1_555 1_555
H26_3 C50_3 1_555 1_555
C51_3 C49_3 1_555 1_555
H27_3 C51_3 1_555 1_555
C52_3 C38_3 1_555 1_555
H28_3 C52_3 1_555 1_555
C53_3 C40_3 1_555 1_555
H29_3 C53_3 1_555 1_555
C54_3 C42_3 1_555 1_555
H30_3 C54_3 1_555 1_555
N17_3 N20_2 1_555 1_555
C55_3 C31_3 1_555 1_555
H31_3 C55_3 1_555 1_555
C56_3 C33_3 1_555 1_555
H32_3 C56_3 1_555 1_555
C57_3 C35_3 1_555 1_555
H33_3 C57_3 1_555 1_555
N18_3 N14_3 1_555 1_555
C58_3 C45_3 1_555 1_555
H34_3 C58_3 1_555 1_555
C59_3 C47_3 1_555 1_555
H35_3 C59_3 1_555 1_555
C60_3 C49_3 1_555 1_555
H36_3 C60_3 1_555 1_555
Ni5 N3_3 1_555 1_555
Ni8_4 N18_3 1_555 1_555
Ni8_3 N5_3 1_555 1_555
Ni11_2 N14_3 1_555 1_555
Ni11 N9_3 1_555 1_555
C6_3 C7_3 1_555 1_555
C13_3 C14_3 1_555 1_555
C20_3 C21_3 1_555 1_555
N24_2 C22_3 1_555 1_555
C23_3 C24_3 1_555 1_555
N8_2 C25_3 1_555 1_555
N8_2 Ni9_2 1_555 1_555
C26_3 C27_3 1_555 1_555
N9_3 C28_3 1_555 1_555
C29_3 C30_3 1_555 1_555
C36_3 C37_3 1_555 1_555
C43_3 C44_3 1_555 1_555
C50_3 C51_3 1_555 1_555
N23 C52_3 1_555 1_555
C53_3 C54_3 1_555 1_555
N17_3 C55_3 1_555 1_555
N17_3 Ni6 1_555 1_555
C56_3 C57_3 1_555 1_555
N18_3 C58_3 1_555 1_555
C59_3 C60_3 1_555 1_555
Ni8_4 Ni11_2 1_555 1_555
Ni8 Ni11_3 1_555 1_555
N19_2 C2_4 1_555 1_555
N2_4 C4_4 1_555 1_555
C1_4 C2_4 1_555 1_555
C2_4 H1_4 1_555 1_555
C3_4 C4_4 1_555 1_555
C4_4 N4_4 1_555 1_555
C5_4 C1_4 1_555 1_555
C6_4 C3_4 1_555 1_555
H2_4 C6_4 1_555 1_555
C7_4 C5_4 1_555 1_555
H3_4 C7_4 1_555 1_555
N3_4 C9_4 1_555 1_555
N4_4 C11_4 1_555 1_555
C8_4 C9_4 1_555 1_555
C9_4 H4_4 1_555 1_555
C10_4 C11_4 1_555 1_555
C11_4 N6_4 1_555 1_555
C12_4 C8_4 1_555 1_555
C13_4 C10_4 1_555 1_555
H5_4 C13_4 1_555 1_555
C14_4 C12_4 1_555 1_555
H6_4 C14_4 1_555 1_555
N5_4 C16_4 1_555 1_555
N6_4 C18_4 1_555 1_555
C15_4 C16_4 1_555 1_555
C16_4 H7_4 1_555 1_555
C17_4 C18_4 1_555 1_555
C18_4 N2_4 1_555 1_555
C19_4 C15_4 1_555 1_555
C20_4 C17_4 1_555 1_555
H8_4 C20_4 1_555 1_555
C21_4 C19_4 1_555 1_555
H9_4 C21_4 1_555 1_555
N24 N3_4 1_555 1_555
C22_4 C8_4 1_555 1_555
H10_4 C22_4 1_555 1_555
C23_4 C10_4 1_555 1_555
H11_4 C23_4 1_555 1_555
C24_4 C12_4 1_555 1_555
H12_4 C24_4 1_555 1_555
N25_2 N19_2 1_555 1_555
C25_4 C1_4 1_555 1_555
H13_4 C25_4 1_555 1_555
C26_4 C3_4 1_555 1_555
H14_4 C26_4 1_555 1_555
C27_4 C5_4 1_555 1_555
H15_4 C27_4 1_555 1_555
N9_4 N5_4 1_555 1_555
C28_4 C15_4 1_555 1_555
H16_4 C28_4 1_555 1_555
C29_4 C17_4 1_555 1_555
H17_4 C29_4 1_555 1_555
C30_4 C19_4 1_555 1_555
H18_4 C30_4 1_555 1_555
N11_4 C34_4 1_555 1_555
C31_4 C32_4 1_555 1_555
C32_4 N20 1_555 1_555
H19_4 C32_4 1_555 1_555
C33_4 C34_4 1_555 1_555
C34_4 N13_4 1_555 1_555
C35_4 C31_4 1_555 1_555
C36_4 C33_4 1_555 1_555
H20_4 C36_4 1_555 1_555
C37_4 C35_4 1_555 1_555
H21_4 C37_4 1_555 1_555
N21 C39_4 1_555 1_555
N13_4 C41_4 1_555 1_555
C38_4 C39_4 1_555 1_555
C39_4 H22_4 1_555 1_555
C40_4 C41_4 1_555 1_555
C41_4 N15_4 1_555 1_555
C42_4 C38_4 1_555 1_555
C43_4 C40_4 1_555 1_555
H23_4 C43_4 1_555 1_555
C44_4 C42_4 1_555 1_555
H24_4 C44_4 1_555 1_555
N14_4 C46_4 1_555 1_555
N15_4 C48_4 1_555 1_555
C45_4 C46_4 1_555 1_555
C46_4 H25_4 1_555 1_555
C47_4 C48_4 1_555 1_555
C48_4 N11_4 1_555 1_555
C49_4 C45_4 1_555 1_555
C50_4 C47_4 1_555 1_555
H26_4 C50_4 1_555 1_555
C51_4 C49_4 1_555 1_555
H27_4 C51_4 1_555 1_555
C52_4 C38_4 1_555 1_555
H28_4 C52_4 1_555 1_555
C53_4 C40_4 1_555 1_555
H29_4 C53_4 1_555 1_555
C54_4 C42_4 1_555 1_555
H30_4 C54_4 1_555 1_555
N17_4 N20 1_555 1_555
C55_4 C31_4 1_555 1_555
H31_4 C55_4 1_555 1_555
C56_4 C33_4 1_555 1_555
H32_4 C56_4 1_555 1_555
C57_4 C35_4 1_555 1_555
H33_4 C57_4 1_555 1_555
N18_4 N14_4 1_555 1_555
C58_4 C45_4 1_555 1_555
H34_4 C58_4 1_555 1_555
C59_4 C47_4 1_555 1_555
H35_4 C59_4 1_555 1_555
C60_4 C49_4 1_555 1_555
H36_4 C60_4 1_555 1_555
Ni5_2 N3_4 1_555 1_555
Ni8_2 N18_4 1_555 1_555
Ni8 N5_4 1_555 1_555
Ni11_4 N14_4 1_555 1_555
Ni11_3 N9_4 1_555 1_555
C6_4 C7_4 1_555 1_555
C13_4 C14_4 1_555 1_555
C20_4 C21_4 1_555 1_555
N24 C22_4 1_555 1_555
C23_4 C24_4 1_555 1_555
N25_2 C25_4 1_555 1_555
C26_4 C27_4 1_555 1_555
N9_4 C28_4 1_555 1_555
C29_4 C30_4 1_555 1_555
C36_4 C37_4 1_555 1_555
C43_4 C44_4 1_555 1_555
C50_4 C51_4 1_555 1_555
N23_2 C52_4 1_555 1_555
C53_4 C54_4 1_555 1_555
N17_4 C55_4 1_555 1_555
N17_4 Ni6_2 1_555 1_555
C56_4 C57_4 1_555 1_555
N18_4 C58_4 1_555 1_555
C59_4 C60_4 1_555 1_555
Ni8_2 Ni11_4 1_555 1_555
Ni4_3 Ni3_3 1_555 1_555
N21_2 Ni3_3 1_555 1_555
N25_3 Ni3_3 1_555 1_555
Ni4_4 Ni9_3 1_555 1_555
Ni1_3 N1_3 1_555 1_555
N1_3 C2_5 1_555 1_555
N2_5 C4_5 1_555 1_555
C1_5 C2_5 1_555 1_555
C2_5 H1_5 1_555 1_555
C3_5 C4_5 1_555 1_555
C4_5 N4_5 1_555 1_555
C5_5 C1_5 1_555 1_555
C6_5 C3_5 1_555 1_555
H2_5 C6_5 1_555 1_555
C7_5 C5_5 1_555 1_555
H3_5 C7_5 1_555 1_555
N3_5 C9_5 1_555 1_555
N4_5 C11_5 1_555 1_555
C8_5 C9_5 1_555 1_555
C9_5 H4_5 1_555 1_555
C10_5 C11_5 1_555 1_555
C11_5 N6_5 1_555 1_555
C12_5 C8_5 1_555 1_555
C13_5 C10_5 1_555 1_555
H5_5 C13_5 1_555 1_555
C14_5 C12_5 1_555 1_555
H6_5 C14_5 1_555 1_555
N5_5 C16_5 1_555 1_555
N6_5 C18_5 1_555 1_555
C15_5 C16_5 1_555 1_555
C16_5 H7_5 1_555 1_555
C17_5 C18_5 1_555 1_555
C18_5 N2_5 1_555 1_555
C19_5 C15_5 1_555 1_555
C20_5 C17_5 1_555 1_555
H8_5 C20_5 1_555 1_555
C21_5 C19_5 1_555 1_555
H9_5 C21_5 1_555 1_555
N7_3 N3_5 1_555 1_555
C22_5 C8_5 1_555 1_555
H10_5 C22_5 1_555 1_555
C23_5 C10_5 1_555 1_555
H11_5 C23_5 1_555 1_555
C24_5 C12_5 1_555 1_555
H12_5 C24_5 1_555 1_555
N8_3 N1_3 1_555 1_555
C25_5 C1_5 1_555 1_555
H13_5 C25_5 1_555 1_555
C26_5 C3_5 1_555 1_555
H14_5 C26_5 1_555 1_555
C27_5 C5_5 1_555 1_555
H15_5 C27_5 1_555 1_555
N9_5 N5_5 1_555 1_555
C28_5 C15_5 1_555 1_555
H16_5 C28_5 1_555 1_555
C29_5 C17_5 1_555 1_555
H17_5 C29_5 1_555 1_555
C30_5 C19_5 1_555 1_555
H18_5 C30_5 1_555 1_555
Ni2_5 N7_3 1_555 1_555
Ni3_4 Ni1_3 1_555 1_555
Ni6_4 N3_5 1_555 1_555
Ni8_6 N5_5 1_555 1_555
Ni11_6 N9_5 1_555 1_555
N20_3 Ni2_5 1_555 1_555
N22_2 Ni3_4 1_555 1_555
N23_3 Ni1_3 1_555 1_555
C6_5 C7_5 1_555 1_555
C13_5 C14_5 1_555 1_555
C20_5 C21_5 1_555 1_555
N7_3 C22_5 1_555 1_555
C23_5 C24_5 1_555 1_555
N8_3 C25_5 1_555 1_555
N8_3 Ni3_4 1_555 1_555
C26_5 C27_5 1_555 1_555
N9_5 C28_5 1_555 1_555
C29_5 C30_5 1_555 1_555
Ni2_5 Ni6_4 1_555 1_555
Ni8_6 Ni11_6 1_555 1_555
N22_2 N23_3 1_555 1_555
N10_3 Ni2_6 1_555 1_555
N11_5 C34_5 1_555 1_555
C31_5 C32_5 1_555 1_555
C32_5 N10_3 1_555 1_555
H19_5 C32_5 1_555 1_555
C33_5 C34_5 1_555 1_555
C34_5 N13_5 1_555 1_555
C35_5 C31_5 1_555 1_555
C36_5 C33_5 1_555 1_555
H20_5 C36_5 1_555 1_555
C37_5 C35_5 1_555 1_555
H21_5 C37_5 1_555 1_555
N12_3 C39_5 1_555 1_555
N13_5 C41_5 1_555 1_555
C38_5 C39_5 1_555 1_555
C39_5 H22_5 1_555 1_555
C40_5 C41_5 1_555 1_555
C41_5 N15_5 1_555 1_555
C42_5 C38_5 1_555 1_555
C43_5 C40_5 1_555 1_555
H23_5 C43_5 1_555 1_555
C44_5 C42_5 1_555 1_555
H24_5 C44_5 1_555 1_555
N14_5 C46_5 1_555 1_555
N15_5 C48_5 1_555 1_555
C45_5 C46_5 1_555 1_555
C46_5 H25_5 1_555 1_555
C47_5 C48_5 1_555 1_555
C48_5 N11_5 1_555 1_555
C49_5 C45_5 1_555 1_555
C50_5 C47_5 1_555 1_555
H26_5 C50_5 1_555 1_555
C51_5 C49_5 1_555 1_555
H27_5 C51_5 1_555 1_555
N16_3 Ni1_4 1_555 1_555
C52_5 C38_5 1_555 1_555
H28_5 C52_5 1_555 1_555
C53_5 C40_5 1_555 1_555
H29_5 C53_5 1_555 1_555
C54_5 C42_5 1_555 1_555
H30_5 C54_5 1_555 1_555
N17_5 N10_3 1_555 1_555
C55_5 C31_5 1_555 1_555
H31_5 C55_5 1_555 1_555
C56_5 C33_5 1_555 1_555
H32_5 C56_5 1_555 1_555
C57_5 C35_5 1_555 1_555
H33_5 C57_5 1_555 1_555
N18_5 N14_5 1_555 1_555
C58_5 C45_5 1_555 1_555
H34_5 C58_5 1_555 1_555
C59_5 C47_5 1_555 1_555
H35_5 C59_5 1_555 1_555
C60_5 C49_5 1_555 1_555
H36_5 C60_5 1_555 1_555
Ni5_4 Ni2_6 1_555 1_555
Ni8_6 N18_5 1_555 1_555
Ni9_4 Ni1_4 1_555 1_555
Ni11_6 N14_5 1_555 1_555
N19_3 Ni1_4 1_555 1_555
N24_3 Ni2_6 1_555 1_555
C36_5 C37_5 1_555 1_555
N12_3 N16_3 1_555 1_555
N12_3 Ni9_4 1_555 1_555
C43_5 C44_5 1_555 1_555
C50_5 C51_5 1_555 1_555
N16_3 C52_5 1_555 1_555
C53_5 C54_5 1_555 1_555
N17_5 C55_5 1_555 1_555
N17_5 Ni5_4 1_555 1_555
C56_5 C57_5 1_555 1_555
N18_5 C58_5 1_555 1_555
C59_5 C60_5 1_555 1_555
Ni4_3 N1_4 1_555 1_555
N1_4 C2_6 1_555 1_555
N2_6 C4_6 1_555 1_555
C1_6 C2_6 1_555 1_555
C2_6 H1_6 1_555 1_555
C3_6 C4_6 1_555 1_555
C4_6 N4_6 1_555 1_555
C5_6 C1_6 1_555 1_555
C6_6 C3_6 1_555 1_555
H2_6 C6_6 1_555 1_555
C7_6 C5_6 1_555 1_555
H3_6 C7_6 1_555 1_555
N3_6 C9_6 1_555 1_555
N4_6 C11_6 1_555 1_555
C8_6 C9_6 1_555 1_555
C9_6 H4_6 1_555 1_555
C10_6 C11_6 1_555 1_555
C11_6 N6_6 1_555 1_555
C12_6 C8_6 1_555 1_555
C13_6 C10_6 1_555 1_555
H5_6 C13_6 1_555 1_555
C14_6 C12_6 1_555 1_555
H6_6 C14_6 1_555 1_555
N5_6 C16_6 1_555 1_555
N6_6 C18_6 1_555 1_555
C15_6 C16_6 1_555 1_555
C16_6 H7_6 1_555 1_555
C17_6 C18_6 1_555 1_555
C18_6 N2_6 1_555 1_555
C19_6 C15_6 1_555 1_555
C20_6 C17_6 1_555 1_555
H8_6 C20_6 1_555 1_555
C21_6 C19_6 1_555 1_555
H9_6 C21_6 1_555 1_555
N7_4 N3_6 1_555 1_555
C22_6 C8_6 1_555 1_555
H10_6 C22_6 1_555 1_555
C23_6 C10_6 1_555 1_555
H11_6 C23_6 1_555 1_555
C24_6 C12_6 1_555 1_555
H12_6 C24_6 1_555 1_555
N25_3 N1_4 1_555 1_555
C25_6 C1_6 1_555 1_555
H13_6 C25_6 1_555 1_555
C26_6 C3_6 1_555 1_555
H14_6 C26_6 1_555 1_555
C27_6 C5_6 1_555 1_555
H15_6 C27_6 1_555 1_555
N9_6 N5_6 1_555 1_555
C28_6 C15_6 1_555 1_555
H16_6 C28_6 1_555 1_555
C29_6 C17_6 1_555 1_555
H17_6 C29_6 1_555 1_555
C30_6 C19_6 1_555 1_555
H18_6 C30_6 1_555 1_555
Ni2_7 N7_4 1_555 1_555
Ni6_3 N3_6 1_555 1_555
Ni8_7 N5_6 1_555 1_555
Ni11_7 N9_6 1_555 1_555
N20_4 Ni2_7 1_555 1_555
N23_4 Ni4_3 1_555 1_555
C6_6 C7_6 1_555 1_555
C13_6 C14_6 1_555 1_555
C20_6 C21_6 1_555 1_555
N7_4 C22_6 1_555 1_555
C23_6 C24_6 1_555 1_555
N25_3 C25_6 1_555 1_555
C26_6 C27_6 1_555 1_555
N9_6 C28_6 1_555 1_555
C29_6 C30_6 1_555 1_555
Ni2_7 Ni6_3 1_555 1_555
Ni8_7 Ni11_7 1_555 1_555
N21_2 N23_4 1_555 1_555
N10_4 Ni2_8 1_555 1_555
N11_6 C34_6 1_555 1_555
C31_6 C32_6 1_555 1_555
C32_6 N10_4 1_555 1_555
H19_6 C32_6 1_555 1_555
C33_6 C34_6 1_555 1_555
C34_6 N13_6 1_555 1_555
C35_6 C31_6 1_555 1_555
C36_6 C33_6 1_555 1_555
H20_6 C36_6 1_555 1_555
C37_6 C35_6 1_555 1_555
H21_6 C37_6 1_555 1_555
N12_4 C39_6 1_555 1_555
N13_6 C41_6 1_555 1_555
C38_6 C39_6 1_555 1_555
C39_6 H22_6 1_555 1_555
C40_6 C41_6 1_555 1_555
C41_6 N15_6 1_555 1_555
C42_6 C38_6 1_555 1_555
C43_6 C40_6 1_555 1_555
H23_6 C43_6 1_555 1_555
C44_6 C42_6 1_555 1_555
H24_6 C44_6 1_555 1_555
N14_6 C46_6 1_555 1_555
N15_6 C48_6 1_555 1_555
C45_6 C46_6 1_555 1_555
C46_6 H25_6 1_555 1_555
C47_6 C48_6 1_555 1_555
C48_6 N11_6 1_555 1_555
C49_6 C45_6 1_555 1_555
C50_6 C47_6 1_555 1_555
H26_6 C50_6 1_555 1_555
C51_6 C49_6 1_555 1_555
H27_6 C51_6 1_555 1_555
N16_4 Ni4_4 1_555 1_555
C52_6 C38_6 1_555 1_555
H28_6 C52_6 1_555 1_555
C53_6 C40_6 1_555 1_555
H29_6 C53_6 1_555 1_555
C54_6 C42_6 1_555 1_555
H30_6 C54_6 1_555 1_555
N17_6 N10_4 1_555 1_555
C55_6 C31_6 1_555 1_555
H31_6 C55_6 1_555 1_555
C56_6 C33_6 1_555 1_555
H32_6 C56_6 1_555 1_555
C57_6 C35_6 1_555 1_555
H33_6 C57_6 1_555 1_555
N18_6 N14_6 1_555 1_555
C58_6 C45_6 1_555 1_555
H34_6 C58_6 1_555 1_555
C59_6 C47_6 1_555 1_555
H35_6 C59_6 1_555 1_555
C60_6 C49_6 1_555 1_555
H36_6 C60_6 1_555 1_555
Ni5_3 Ni2_8 1_555 1_555
Ni8_7 N18_6 1_555 1_555
Ni11_7 N14_6 1_555 1_555
N19_4 Ni4_4 1_555 1_555
N24_4 Ni2_8 1_555 1_555
C36_6 C37_6 1_555 1_555
N12_4 N16_4 1_555 1_555
N12_4 Ni9_3 1_555 1_555
C43_6 C44_6 1_555 1_555
C50_6 C51_6 1_555 1_555
N16_4 C52_6 1_555 1_555
C53_6 C54_6 1_555 1_555
N17_6 C55_6 1_555 1_555
N17_6 Ni5_3 1_555 1_555
C56_6 C57_6 1_555 1_555
N18_6 C58_6 1_555 1_555
C59_6 C60_6 1_555 1_555
N25_4 Ni9_3 1_555 1_555
N11_7 C34_7 1_555 1_555
C31_7 C32_7 1_555 1_555
C32_7 N20_4 1_555 1_555
H19_7 C32_7 1_555 1_555
C33_7 C34_7 1_555 1_555
C34_7 N13_7 1_555 1_555
C35_7 C31_7 1_555 1_555
C36_7 C33_7 1_555 1_555
H20_7 C36_7 1_555 1_555
C37_7 C35_7 1_555 1_555
H21_7 C37_7 1_555 1_555
N22_2 C39_7 1_555 1_555
N13_7 C41_7 1_555 1_555
C38_7 C39_7 1_555 1_555
C39_7 H22_7 1_555 1_555
C40_7 C41_7 1_555 1_555
C41_7 N15_7 1_555 1_555
C42_7 C38_7 1_555 1_555
C43_7 C40_7 1_555 1_555
H23_7 C43_7 1_555 1_555
C44_7 C42_7 1_555 1_555
H24_7 C44_7 1_555 1_555
N14_7 C46_7 1_555 1_555
N15_7 C48_7 1_555 1_555
C45_7 C46_7 1_555 1_555
C46_7 H25_7 1_555 1_555
C47_7 C48_7 1_555 1_555
C48_7 N11_7 1_555 1_555
C49_7 C45_7 1_555 1_555
C50_7 C47_7 1_555 1_555
H26_7 C50_7 1_555 1_555
C51_7 C49_7 1_555 1_555
H27_7 C51_7 1_555 1_555
C52_7 C38_7 1_555 1_555
H28_7 C52_7 1_555 1_555
C53_7 C40_7 1_555 1_555
H29_7 C53_7 1_555 1_555
C54_7 C42_7 1_555 1_555
H30_7 C54_7 1_555 1_555
N17_7 N20_4 1_555 1_555
C55_7 C31_7 1_555 1_555
H31_7 C55_7 1_555 1_555
C56_7 C33_7 1_555 1_555
H32_7 C56_7 1_555 1_555
C57_7 C35_7 1_555 1_555
H33_7 C57_7 1_555 1_555
N18_7 N14_7 1_555 1_555
C58_7 C45_7 1_555 1_555
H34_7 C58_7 1_555 1_555
C59_7 C47_7 1_555 1_555
H35_7 C59_7 1_555 1_555
C60_7 C49_7 1_555 1_555
H36_7 C60_7 1_555 1_555
Ni8_8 N18_7 1_555 1_555
Ni11_5 N14_7 1_555 1_555
C36_7 C37_7 1_555 1_555
C43_7 C44_7 1_555 1_555
C50_7 C51_7 1_555 1_555
N23_3 C52_7 1_555 1_555
C53_7 C54_7 1_555 1_555
N17_7 C55_7 1_555 1_555
N17_7 Ni6_3 1_555 1_555
C56_7 C57_7 1_555 1_555
N18_7 C58_7 1_555 1_555
C59_7 C60_7 1_555 1_555
Ni8_8 Ni11_5 1_555 1_555
N19_3 C2_7 1_555 1_555
N2_7 C4_7 1_555 1_555
C1_7 C2_7 1_555 1_555
C2_7 H1_7 1_555 1_555
C3_7 C4_7 1_555 1_555
C4_7 N4_7 1_555 1_555
C5_7 C1_7 1_555 1_555
C6_7 C3_7 1_555 1_555
H2_7 C6_7 1_555 1_555
C7_7 C5_7 1_555 1_555
H3_7 C7_7 1_555 1_555
N3_7 C9_7 1_555 1_555
N4_7 C11_7 1_555 1_555
C8_7 C9_7 1_555 1_555
C9_7 H4_7 1_555 1_555
C10_7 C11_7 1_555 1_555
C11_7 N6_7 1_555 1_555
C12_7 C8_7 1_555 1_555
C13_7 C10_7 1_555 1_555
H5_7 C13_7 1_555 1_555
C14_7 C12_7 1_555 1_555
H6_7 C14_7 1_555 1_555
N5_7 C16_7 1_555 1_555
N6_7 C18_7 1_555 1_555
C15_7 C16_7 1_555 1_555
C16_7 H7_7 1_555 1_555
C17_7 C18_7 1_555 1_555
C18_7 N2_7 1_555 1_555
C19_7 C15_7 1_555 1_555
C20_7 C17_7 1_555 1_555
H8_7 C20_7 1_555 1_555
C21_7 C19_7 1_555 1_555
H9_7 C21_7 1_555 1_555
N24_4 N3_7 1_555 1_555
C22_7 C8_7 1_555 1_555
H10_7 C22_7 1_555 1_555
C23_7 C10_7 1_555 1_555
H11_7 C23_7 1_555 1_555
C24_7 C12_7 1_555 1_555
H12_7 C24_7 1_555 1_555
N8_4 N19_3 1_555 1_555
C25_7 C1_7 1_555 1_555
H13_7 C25_7 1_555 1_555
C26_7 C3_7 1_555 1_555
H14_7 C26_7 1_555 1_555
C27_7 C5_7 1_555 1_555
H15_7 C27_7 1_555 1_555
N9_7 N5_7 1_555 1_555
C28_7 C15_7 1_555 1_555
H16_7 C28_7 1_555 1_555
C29_7 C17_7 1_555 1_555
H17_7 C29_7 1_555 1_555
C30_7 C19_7 1_555 1_555
H18_7 C30_7 1_555 1_555
Ni5_3 N3_7 1_555 1_555
Ni8_8 N5_7 1_555 1_555
Ni11_5 N9_7 1_555 1_555
C6_7 C7_7 1_555 1_555
C13_7 C14_7 1_555 1_555
C20_7 C21_7 1_555 1_555
N24_4 C22_7 1_555 1_555
C23_7 C24_7 1_555 1_555
N8_4 C25_7 1_555 1_555
N8_4 Ni9_4 1_555 1_555
C26_7 C27_7 1_555 1_555
N9_7 C28_7 1_555 1_555
C29_7 C30_7 1_555 1_555
N11_8 C34_8 1_555 1_555
C31_8 C32_8 1_555 1_555
C32_8 N20_3 1_555 1_555
H19_8 C32_8 1_555 1_555
C33_8 C34_8 1_555 1_555
C34_8 N13_8 1_555 1_555
C35_8 C31_8 1_555 1_555
C36_8 C33_8 1_555 1_555
H20_8 C36_8 1_555 1_555
C37_8 C35_8 1_555 1_555
H21_8 C37_8 1_555 1_555
N21_2 C39_8 1_555 1_555
N13_8 C41_8 1_555 1_555
C38_8 C39_8 1_555 1_555
C39_8 H22_8 1_555 1_555
C40_8 C41_8 1_555 1_555
C41_8 N15_8 1_555 1_555
C42_8 C38_8 1_555 1_555
C43_8 C40_8 1_555 1_555
H23_8 C43_8 1_555 1_555
C44_8 C42_8 1_555 1_555
H24_8 C44_8 1_555 1_555
N14_8 C46_8 1_555 1_555
N15_8 C48_8 1_555 1_555
C45_8 C46_8 1_555 1_555
C46_8 H25_8 1_555 1_555
C47_8 C48_8 1_555 1_555
C48_8 N11_8 1_555 1_555
C49_8 C45_8 1_555 1_555
C50_8 C47_8 1_555 1_555
H26_8 C50_8 1_555 1_555
C51_8 C49_8 1_555 1_555
H27_8 C51_8 1_555 1_555
C52_8 C38_8 1_555 1_555
H28_8 C52_8 1_555 1_555
C53_8 C40_8 1_555 1_555
H29_8 C53_8 1_555 1_555
C54_8 C42_8 1_555 1_555
H30_8 C54_8 1_555 1_555
N17_8 N20_3 1_555 1_555
C55_8 C31_8 1_555 1_555
H31_8 C55_8 1_555 1_555
C56_8 C33_8 1_555 1_555
H32_8 C56_8 1_555 1_555
C57_8 C35_8 1_555 1_555
H33_8 C57_8 1_555 1_555
N18_8 N14_8 1_555 1_555
C58_8 C45_8 1_555 1_555
H34_8 C58_8 1_555 1_555
C59_8 C47_8 1_555 1_555
H35_8 C59_8 1_555 1_555
C60_8 C49_8 1_555 1_555
H36_8 C60_8 1_555 1_555
Ni8_5 N18_8 1_555 1_555
Ni11_8 N14_8 1_555 1_555
C36_8 C37_8 1_555 1_555
C43_8 C44_8 1_555 1_555
C50_8 C51_8 1_555 1_555
N23_4 C52_8 1_555 1_555
C53_8 C54_8 1_555 1_555
N17_8 C55_8 1_555 1_555
N17_8 Ni6_4 1_555 1_555
C56_8 C57_8 1_555 1_555
N18_8 C58_8 1_555 1_555
C59_8 C60_8 1_555 1_555
Ni8_5 Ni11_8 1_555 1_555
N19_4 C2_8 1_555 1_555
N2_8 C4_8 1_555 1_555
C1_8 C2_8 1_555 1_555
C2_8 H1_8 1_555 1_555
C3_8 C4_8 1_555 1_555
C4_8 N4_8 1_555 1_555
C5_8 C1_8 1_555 1_555
C6_8 C3_8 1_555 1_555
H2_8 C6_8 1_555 1_555
C7_8 C5_8 1_555 1_555
H3_8 C7_8 1_555 1_555
N3_8 C9_8 1_555 1_555
N4_8 C11_8 1_555 1_555
C8_8 C9_8 1_555 1_555
C9_8 H4_8 1_555 1_555
C10_8 C11_8 1_555 1_555
C11_8 N6_8 1_555 1_555
C12_8 C8_8 1_555 1_555
C13_8 C10_8 1_555 1_555
H5_8 C13_8 1_555 1_555
C14_8 C12_8 1_555 1_555
H6_8 C14_8 1_555 1_555
N5_8 C16_8 1_555 1_555
N6_8 C18_8 1_555 1_555
C15_8 C16_8 1_555 1_555
C16_8 H7_8 1_555 1_555
C17_8 C18_8 1_555 1_555
C18_8 N2_8 1_555 1_555
C19_8 C15_8 1_555 1_555
C20_8 C17_8 1_555 1_555
H8_8 C20_8 1_555 1_555
C21_8 C19_8 1_555 1_555
H9_8 C21_8 1_555 1_555
N24_3 N3_8 1_555 1_555
C22_8 C8_8 1_555 1_555
H10_8 C22_8 1_555 1_555
C23_8 C10_8 1_555 1_555
H11_8 C23_8 1_555 1_555
C24_8 C12_8 1_555 1_555
H12_8 C24_8 1_555 1_555
N25_4 N19_4 1_555 1_555
C25_8 C1_8 1_555 1_555
H13_8 C25_8 1_555 1_555
C26_8 C3_8 1_555 1_555
H14_8 C26_8 1_555 1_555
C27_8 C5_8 1_555 1_555
H15_8 C27_8 1_555 1_555
N9_8 N5_8 1_555 1_555
C28_8 C15_8 1_555 1_555
H16_8 C28_8 1_555 1_555
C29_8 C17_8 1_555 1_555
H17_8 C29_8 1_555 1_555
C30_8 C19_8 1_555 1_555
H18_8 C30_8 1_555 1_555
Ni5_4 N3_8 1_555 1_555
Ni8_5 N5_8 1_555 1_555
Ni11_8 N9_8 1_555 1_555
C6_8 C7_8 1_555 1_555
C13_8 C14_8 1_555 1_555
C20_8 C21_8 1_555 1_555
N24_3 C22_8 1_555 1_555
C23_8 C24_8 1_555 1_555
N25_4 C25_8 1_555 1_555
C26_8 C27_8 1_555 1_555
N9_8 C28_8 1_555 1_555
C29_8 C30_8 1_555 1_555

#END
