
###############################################################################
#
# This file contains modified crystal structure data generated from the
# MOF subset of the Cambridge Structural Database (CSD) v543 
# hosted by the Cambridge Crystallographic Data Centre (CCDC).
#
# This work is licensed under the Creative Commons
# Attribution-NonCommercial-ShareAlike 4.0 International License.
# To view a copy of this license, visit
# http://creativecommons.org/licenses/by-nc-sa/4.0/
# or send a letter to
# Creative Commons, PO Box 1866, Mountain View, CA 94042, USA.
#
# CIF created using the CSD Python API on 29 September 2022
# The structure has been converted into the P1 space group
# The structure has a 3D framework
# The original CSD entry LUVTAY is in the tetragonal crystal system
# The framework has been calculated to contain at least 10.0% void space
# The void calculation uses a probe of radius 1.32A, grid spacing 0.4
#
###############################################################################

data_LUVTAY
_chemical_formula_moiety         '(C240 H192 N16 O80 Zn20)n'
_symmetry_cell_setting           triclinic
_symmetry_space_group_name_H-M   'P 1'
_symmetry_Int_Tables_number      1
_space_group_name_Hall           'P 1'
loop_
_symmetry_equiv_pos_site_id
_symmetry_equiv_pos_as_xyz
1 x,y,z
_cell_length_a                   24.8859(14)
_cell_length_b                   24.8859(14)
_cell_length_c                   15.1743(17)
_cell_angle_alpha                90
_cell_angle_beta                 90
_cell_angle_gamma                90
_cell_volume                     9397.57
loop_
_atom_site_label
_atom_site_type_symbol
_atom_site_fract_x
_atom_site_fract_y
_atom_site_fract_z
N1 N 0.4272(2) 0.3105(2) 0.0102(4)
C5 C 0.2827(3) 0.1620(3) 0.0198(5)
H3 H 0.2858 0.1737 0.0791
H4 H 0.2274 0.1045 0.0444
C8 C 0.3789(3) 0.2320(3) 0.0545(5)
H5 H 0.3716 0.2062 0.0990
C9 C 0.4165(3) 0.2733(3) 0.0692(5)
H6 H 0.4349 0.2743 0.1239
Zn8 Zn 0.48235(3) 0.37265(3) 0.03298(5)
O12 O 0.07009(17) 0.05114(17) 0.0229(3)
O1 O 0.18215(18) 0.03372(18) 0.9536(3)
O2 O 0.19897(19) 0.0489(2) 0.8095(3)
O8 O 0.0083(2) 0.12260(19) 0.5925(3)
O9 O 0.06167(19) 0.06791(18) 0.5179(3)
O10 O 0.11258(16) 0.03412(17) 0.6586(3)
C1 C 0.2422(3) 0.1028(3) 0.9135(5)
C2 C 0.2721(3) 0.1274(3) 0.8487(5)
H1 H 0.2684 0.1157 0.7894
C3 C 0.3073(3) 0.1688(3) 0.8677(5)
H2 H 0.3274 0.1852 0.8217
C4 C 0.3134(3) 0.1864(3) 0.9539(5)
C6 C 0.2480(3) 0.1209(3) 0.9989(5)
C7 C 0.3524(3) 0.2298(3) 0.9741(5)
C10 C 0.4005(3) 0.3093(3) 0.9345(5)
H7 H 0.4075 0.3368 0.8925
C11 C 0.3629(4) 0.2700(3) 0.9134(6)
H8 H 0.3447 0.2707 0.8583
C12 C 0.2043(2) 0.0579(3) 0.8911(5)
C28 C 0.0467(3) 0.0893(3) 0.5881(5)
C29 C 0.0776(3) 0.0776(3) 0.6729(5)
H21 H 0.0517 0.0684 0.7209
C30 C 0.1087(3) 0.1291(4) 0.6980(5)
H22 H 0.1321 0.1216 0.7484
H23 H 0.1305 0.1409 0.6479
H24 H 0.0831 0.1575 0.7138
Zn7 Zn 0.12735(3) 0.01765(3) 0.53298(5)
Zn3 Zn 0.51765(3) 0.62735(3) 0.03298(5)
O3 O 0.44440(19) 0.6986(2) 0.2075(3)
O4 O 0.4545(2) 0.6784(2) 0.0656(3)
C13 C 0.3839(3) 0.7351(3) 0.1038(5)
C14 C 0.3642(3) 0.7356(3) 0.0201(6)
C16 C 0.2969(3) 0.8000(3) 0.0583(4)
C17 C 0.3161(3) 0.7991(3) 0.1449(5)
H11 H 0.2997 0.8210 0.1884
C18 C 0.3591(3) 0.7664(3) 0.1674(5)
H12 H 0.3716 0.7654 0.2266
C19 C 0.2536(3) 0.8381(3) 0.0322(5)
C22 C 0.1744(3) 0.8887(3) 0.0673(5)
H15 H 0.1467 0.8970 0.1083
C23 C 0.2122(3) 0.8500(3) 0.0901(5)
H16 H 0.2097 0.8317 0.1449
C24 C 0.4313(3) 0.7009(3) 0.1267(5)
Zn5 Zn 0.49929(3) 0.64903(3) 0.25317(4)
O13 O 0.1133(2) 0.9926(2) 0.1038(3)
O15 O 0.56791(18) 0.56167(19) 0.0179(3)
O16 O 0.53412(17) 0.61258(16) 0.1586(3)
N3 N 0.5728(2) 0.6895(2) 0.0102(4)
Zn1 Zn 0.12078(3) 0.97758(3) 0.96977(5)
Zn2 Zn 0.14903(3) 0.99929(3) 0.75317(4)
O5 O 0.10391(17) 0.97099(19) 0.8435(3)
O6 O 0.05114(17) 0.92991(17) 0.9771(3)
N2 N 0.1752(2) 0.9146(2) 0.9907(4)
H9 H 0.3800 0.7130 0.9769
C15 C 0.3213(3) 0.7685(3) 0.9967(5)
H10 H 0.3089 0.7690 0.9374
C20 C 0.2532(3) 0.8638(3) 0.9530(5)
H13 H 0.2799 0.8557 0.9103
C21 C 0.2142(3) 0.9015(3) 0.9345(5)
H14 H 0.2152 0.9190 0.8789
C25 C 0.0606(3) 0.9376(3) 0.8206(4)
H17 H 0.0339 0.9593 0.7866
C26 C 0.0332(3) 0.9164(3) 0.9036(5)
C27 C 0.0780(4) 0.8919(4) 0.7650(6)
H18 H 0.0947 0.9056 0.7110
H19 H 0.0468 0.8698 0.7498
H20 H 0.1042 0.8701 0.7975
O11 O 0.1986(2) 0.94440(19) 0.7075(3)
O14 O 0.4917(2) 0.62260(19) 0.9075(3)
Zn6 Zn 0.98235(3) 0.12735(3) 0.46702(5)
Zn4 Zn 0.97758(3) 0.87922(3) 0.03023(5)
O7 O 0.9926(2) 0.8867(2) 0.8962(3)
Zn4_2 Zn 0.02242(3) 0.12078(3) 0.03023(5)
O7_2 O 0.0074(2) 0.1133(2) 0.8962(3)
Zn6_2 Zn 0.01765(3) 0.87265(3) 0.46702(5)
O3_2 O 0.55560(19) 0.3014(2) 0.2075(3)
O4_2 O 0.5455(2) 0.3216(2) 0.0656(3)
C13_2 C 0.6161(3) 0.2649(3) 0.1038(5)
C14_2 C 0.6358(3) 0.2644(3) 0.0201(6)
C16_2 C 0.7031(3) 0.2000(3) 0.0583(4)
C17_2 C 0.6839(3) 0.2009(3) 0.1449(5)
H11_2 H 0.7003 0.1790 0.1884
C18_2 C 0.6409(3) 0.2336(3) 0.1674(5)
H12_2 H 0.6284 0.2346 0.2266
C19_2 C 0.7464(3) 0.1619(3) 0.0322(5)
C22_2 C 0.8256(3) 0.1113(3) 0.0673(5)
H15_2 H 0.8533 0.1030 0.1083
C23_2 C 0.7878(3) 0.1500(3) 0.0901(5)
H16_2 H 0.7903 0.1683 0.1449
C24_2 C 0.5687(3) 0.2991(3) 0.1267(5)
Zn5_2 Zn 0.50071(3) 0.35097(3) 0.25317(4)
O13_2 O 0.8867(2) 0.0074(2) 0.1038(3)
O15_2 O 0.43209(18) 0.43833(19) 0.0179(3)
O16_2 O 0.46588(17) 0.38742(16) 0.1586(3)
Zn1_2 Zn 0.87922(3) 0.02242(3) 0.96977(5)
Zn2_2 Zn 0.85097(3) 0.00071(3) 0.75317(4)
O5_2 O 0.89609(17) 0.02901(19) 0.8435(3)
O6_2 O 0.94886(17) 0.07009(17) 0.9771(3)
N2_2 N 0.8248(2) 0.0854(2) 0.9907(4)
H9_2 H 0.6200 0.2870 0.9769
C15_2 C 0.6787(3) 0.2315(3) 0.9967(5)
H10_2 H 0.6911 0.2310 0.9374
C20_2 C 0.7468(3) 0.1362(3) 0.9530(5)
H13_2 H 0.7201 0.1443 0.9103
C21_2 C 0.7858(3) 0.0985(3) 0.9345(5)
H14_2 H 0.7848 0.0810 0.8789
C25_2 C 0.9394(3) 0.0624(3) 0.8206(4)
H17_2 H 0.9661 0.0407 0.7866
C26_2 C 0.9668(3) 0.0836(3) 0.9036(5)
C27_2 C 0.9220(4) 0.1081(4) 0.7650(6)
H18_2 H 0.9053 0.0944 0.7110
H19_2 H 0.9532 0.1302 0.7498
H20_2 H 0.8958 0.1299 0.7975
O11_2 O 0.8014(2) 0.05560(19) 0.7075(3)
O14_2 O 0.5083(2) 0.37740(19) 0.9075(3)
C5_2 C 0.7173(3) 0.8380(3) 0.0198(5)
H3_2 H 0.7142 0.8263 0.0791
H4_2 H 0.7726 0.8955 0.0444
C8_2 C 0.6211(3) 0.7680(3) 0.0545(5)
H5_2 H 0.6284 0.7938 0.0990
C9_2 C 0.5835(3) 0.7267(3) 0.0692(5)
H6_2 H 0.5651 0.7257 0.1239
O12_2 O 0.92991(17) 0.94886(17) 0.0229(3)
O1_2 O 0.81785(18) 0.96628(18) 0.9536(3)
O2_2 O 0.80103(19) 0.9511(2) 0.8095(3)
O8_2 O 0.9917(2) 0.87740(19) 0.5925(3)
O9_2 O 0.93833(19) 0.93209(18) 0.5179(3)
O10_2 O 0.88742(16) 0.96588(17) 0.6586(3)
C1_2 C 0.7578(3) 0.8972(3) 0.9135(5)
C2_2 C 0.7279(3) 0.8726(3) 0.8487(5)
H1_2 H 0.7316 0.8843 0.7894
C3_2 C 0.6927(3) 0.8312(3) 0.8677(5)
H2_2 H 0.6726 0.8148 0.8217
C4_2 C 0.6866(3) 0.8136(3) 0.9539(5)
C6_2 C 0.7520(3) 0.8791(3) 0.9989(5)
C7_2 C 0.6476(3) 0.7702(3) 0.9741(5)
C10_2 C 0.5995(3) 0.6907(3) 0.9345(5)
H7_2 H 0.5925 0.6632 0.8925
C11_2 C 0.6371(4) 0.7300(3) 0.9134(6)
H8_2 H 0.6553 0.7293 0.8583
C12_2 C 0.7957(2) 0.9421(3) 0.8911(5)
C28_2 C 0.9533(3) 0.9107(3) 0.5881(5)
C29_2 C 0.9224(3) 0.9224(3) 0.6729(5)
H21_2 H 0.9483 0.9316 0.7209
C30_2 C 0.8913(3) 0.8709(4) 0.6980(5)
H22_2 H 0.8679 0.8784 0.7484
H23_2 H 0.8695 0.8591 0.6479
H24_2 H 0.9169 0.8425 0.7138
Zn7_2 Zn 0.87265(3) 0.98235(3) 0.53298(5)
O1_3 O 0.03372(18) 0.81785(18) 0.0464(3)
O2_3 O 0.0489(2) 0.80103(19) 0.1905(3)
O8_3 O 0.12260(19) 0.9917(2) 0.4075(3)
O9_3 O 0.06791(18) 0.93833(19) 0.4821(3)
O10_3 O 0.03412(17) 0.88742(16) 0.3414(3)
C1_3 C 0.1028(3) 0.7578(3) 0.0865(5)
C2_3 C 0.1274(3) 0.7279(3) 0.1513(5)
H1_3 H 0.1157 0.7316 0.2106
C3_3 C 0.1688(3) 0.6927(3) 0.1323(5)
H2_3 H 0.1852 0.6726 0.1783
C4_3 C 0.1864(3) 0.6866(3) 0.0461(5)
C6_3 C 0.1209(3) 0.7520(3) 0.0011(5)
C7_3 C 0.2298(3) 0.6476(3) 0.0259(5)
C10_3 C 0.3093(3) 0.5995(3) 0.0655(5)
H7_3 H 0.3368 0.5925 0.1075
C11_3 C 0.2700(3) 0.6371(4) 0.0866(6)
H8_3 H 0.2707 0.6553 0.1417
C12_3 C 0.0579(3) 0.7957(2) 0.1089(5)
C28_3 C 0.0893(3) 0.9533(3) 0.4119(5)
C29_3 C 0.0776(3) 0.9224(3) 0.3271(5)
H21_3 H 0.0684 0.9483 0.2791
C30_3 C 0.1291(4) 0.8913(3) 0.3020(5)
H22_3 H 0.1216 0.8679 0.2516
H23_3 H 0.1409 0.8695 0.3521
H24_3 H 0.1575 0.9169 0.2862
N1_2 N 0.3105(2) 0.5728(2) 0.9898(4)
C5_3 C 0.1620(3) 0.7173(3) 0.9802(5)
H3_3 H 0.1737 0.7142 0.9209
H4_3 H 0.1045 0.7726 0.9556
C8_3 C 0.2320(3) 0.6211(3) 0.9455(5)
H5_3 H 0.2062 0.6284 0.9010
C9_3 C 0.2733(3) 0.5835(3) 0.9308(5)
H6_3 H 0.2743 0.5651 0.8761
Zn8_2 Zn 0.37265(3) 0.51765(3) 0.96702(5)
Zn2_3 Zn 0.99929(3) 0.85097(3) 0.24683(4)
O5_3 O 0.97099(19) 0.89609(17) 0.1565(3)
N2_3 N 0.9146(2) 0.8248(2) 0.0093(4)
H9_3 H 0.7130 0.6200 0.0231
C15_3 C 0.7685(3) 0.6787(3) 0.0033(5)
H10_3 H 0.7690 0.6911 0.0626
C20_3 C 0.8638(3) 0.7468(3) 0.0470(5)
H13_3 H 0.8557 0.7201 0.0897
C21_3 C 0.9015(3) 0.7858(3) 0.0655(5)
H14_3 H 0.9190 0.7848 0.1211
C25_3 C 0.9376(3) 0.9394(3) 0.1794(4)
H17_3 H 0.9593 0.9661 0.2134
C26_3 C 0.9164(3) 0.9668(3) 0.0964(5)
C27_3 C 0.8919(4) 0.9220(4) 0.2350(6)
H18_3 H 0.9056 0.9053 0.2890
H19_3 H 0.8698 0.9532 0.2502
H20_3 H 0.8701 0.8958 0.2025
O11_3 O 0.94440(19) 0.8014(2) 0.2925(3)
O14_3 O 0.62260(19) 0.5083(2) 0.0925(3)
Zn3_2 Zn 0.62735(3) 0.48235(3) 0.96702(5)
O3_3 O 0.6986(2) 0.55560(19) 0.7925(3)
O4_3 O 0.6784(2) 0.5455(2) 0.9344(3)
C13_3 C 0.7351(3) 0.6161(3) 0.8962(5)
C14_3 C 0.7356(3) 0.6358(3) 0.9799(6)
C16_3 C 0.8000(3) 0.7031(3) 0.9417(4)
C17_3 C 0.7991(3) 0.6839(3) 0.8551(5)
H11_3 H 0.8210 0.7003 0.8116
C18_3 C 0.7664(3) 0.6409(3) 0.8326(5)
H12_3 H 0.7654 0.6284 0.7734
C19_3 C 0.8381(3) 0.7464(3) 0.9678(5)
C22_3 C 0.8887(3) 0.8256(3) 0.9327(5)
H15_3 H 0.8970 0.8533 0.8917
C23_3 C 0.8500(3) 0.7878(3) 0.9099(5)
H16_3 H 0.8317 0.7903 0.8551
C24_3 C 0.7009(3) 0.5687(3) 0.8733(5)
Zn5_3 Zn 0.64903(3) 0.50071(3) 0.74683(4)
O15_3 O 0.56167(19) 0.43209(18) 0.9821(3)
O16_3 O 0.61258(16) 0.46588(17) 0.8414(3)
N3_2 N 0.6895(2) 0.4272(2) 0.9898(4)
Zn2_4 Zn 0.00071(3) 0.14903(3) 0.24683(4)
O5_4 O 0.02901(19) 0.10391(17) 0.1565(3)
N2_4 N 0.0854(2) 0.1752(2) 0.0093(4)
H9_4 H 0.2870 0.3800 0.0231
C15_4 C 0.2315(3) 0.3213(3) 0.0033(5)
H10_4 H 0.2310 0.3089 0.0626
C20_4 C 0.1362(3) 0.2532(3) 0.0470(5)
H13_4 H 0.1443 0.2799 0.0897
C21_4 C 0.0985(3) 0.2142(3) 0.0655(5)
H14_4 H 0.0810 0.2152 0.1211
C25_4 C 0.0624(3) 0.0606(3) 0.1794(4)
H17_4 H 0.0407 0.0339 0.2134
C26_4 C 0.0836(3) 0.0332(3) 0.0964(5)
C27_4 C 0.1081(4) 0.0780(4) 0.2350(6)
H18_4 H 0.0944 0.0947 0.2890
H19_4 H 0.1302 0.0468 0.2502
H20_4 H 0.1299 0.1042 0.2025
O11_4 O 0.05560(19) 0.1986(2) 0.2925(3)
O14_4 O 0.37740(19) 0.4917(2) 0.0925(3)
O3_4 O 0.3014(2) 0.44440(19) 0.7925(3)
O4_4 O 0.3216(2) 0.4545(2) 0.9344(3)
C13_4 C 0.2649(3) 0.3839(3) 0.8962(5)
C14_4 C 0.2644(3) 0.3642(3) 0.9799(6)
C16_4 C 0.2000(3) 0.2969(3) 0.9417(4)
C17_4 C 0.2009(3) 0.3161(3) 0.8551(5)
H11_4 H 0.1790 0.2997 0.8116
C18_4 C 0.2336(3) 0.3591(3) 0.8326(5)
H12_4 H 0.2346 0.3716 0.7734
C19_4 C 0.1619(3) 0.2536(3) 0.9678(5)
C22_4 C 0.1113(3) 0.1744(3) 0.9327(5)
H15_4 H 0.1030 0.1467 0.8917
C23_4 C 0.1500(3) 0.2122(3) 0.9099(5)
H16_4 H 0.1683 0.2097 0.8551
C24_4 C 0.2991(3) 0.4313(3) 0.8733(5)
Zn5_4 Zn 0.35097(3) 0.49929(3) 0.74683(4)
O15_4 O 0.43833(19) 0.56791(18) 0.9821(3)
O16_4 O 0.38742(16) 0.53412(17) 0.8414(3)
O1_4 O 0.96628(18) 0.18215(18) 0.0464(3)
O2_4 O 0.9511(2) 0.19897(19) 0.1905(3)
O8_4 O 0.87740(19) 0.0083(2) 0.4075(3)
O9_4 O 0.93209(18) 0.06167(19) 0.4821(3)
O10_4 O 0.96588(17) 0.11258(16) 0.3414(3)
C1_4 C 0.8972(3) 0.2422(3) 0.0865(5)
C2_4 C 0.8726(3) 0.2721(3) 0.1513(5)
H1_4 H 0.8843 0.2684 0.2106
C3_4 C 0.8312(3) 0.3073(3) 0.1323(5)
H2_4 H 0.8148 0.3274 0.1783
C4_4 C 0.8136(3) 0.3134(3) 0.0461(5)
C6_4 C 0.8791(3) 0.2480(3) 0.0011(5)
C7_4 C 0.7702(3) 0.3524(3) 0.0259(5)
C10_4 C 0.6907(3) 0.4005(3) 0.0655(5)
H7_4 H 0.6632 0.4075 0.1075
C11_4 C 0.7300(3) 0.3629(4) 0.0866(6)
H8_4 H 0.7293 0.3447 0.1417
C12_4 C 0.9421(3) 0.2043(2) 0.1089(5)
C28_4 C 0.9107(3) 0.0467(3) 0.4119(5)
C29_4 C 0.9224(3) 0.0776(3) 0.3271(5)
H21_4 H 0.9316 0.0517 0.2791
C30_4 C 0.8709(4) 0.1087(3) 0.3020(5)
H22_4 H 0.8784 0.1321 0.2516
H23_4 H 0.8591 0.1305 0.3521
H24_4 H 0.8425 0.0831 0.2862
C5_4 C 0.8380(3) 0.2827(3) 0.9802(5)
H3_4 H 0.8263 0.2858 0.9209
H4_4 H 0.8955 0.2274 0.9556
C8_4 C 0.7680(3) 0.3789(3) 0.9455(5)
H5_4 H 0.7938 0.3716 0.9010
C9_4 C 0.7267(3) 0.4165(3) 0.9308(5)
H6_4 H 0.7257 0.4349 0.8761
Zn1_3 Zn 0.37922(3) 0.47758(3) 0.53023(5)
O1_5 O 0.31785(18) 0.53372(18) 0.5464(3)
O2_5 O 0.30103(19) 0.5489(2) 0.6905(3)
O4_5 O 0.0455(2) 0.1784(2) 0.4344(3)
O5_5 O 0.39609(17) 0.47099(19) 0.6565(3)
O6_3 O 0.44886(17) 0.42991(17) 0.5229(3)
O7_3 O 0.5074(2) 0.3867(2) 0.6038(3)
N1_3 N 0.0728(2) 0.8105(2) 0.4898(4)
N2_5 N 0.3248(2) 0.4146(2) 0.5093(4)
C1_5 C 0.2578(3) 0.6028(3) 0.5865(5)
C2_5 C 0.2279(3) 0.6274(3) 0.6513(5)
H1_5 H 0.2316 0.6157 0.7106
C3_5 C 0.1927(3) 0.6688(3) 0.6323(5)
H2_5 H 0.1726 0.6852 0.6783
C4_5 C 0.1866(3) 0.6864(3) 0.5461(5)
C5_5 C 0.2173(3) 0.6620(3) 0.4802(5)
H3_5 H 0.2142 0.6737 0.4209
C6_5 C 0.2520(3) 0.6209(3) 0.5011(5)
H4_5 H 0.2726 0.6045 0.4556
C7_5 C 0.1476(3) 0.7298(3) 0.5259(5)
C8_5 C 0.1211(3) 0.7320(3) 0.4455(5)
H5_5 H 0.1284 0.7062 0.4010
C9_5 C 0.0835(3) 0.7733(3) 0.4308(5)
H6_5 H 0.0651 0.7743 0.3761
C10_5 C 0.0995(3) 0.8093(3) 0.5655(5)
H7_5 H 0.0925 0.8368 0.6075
C11_5 C 0.1371(4) 0.7700(3) 0.5866(6)
H8_5 H 0.1553 0.7707 0.6417
C12_5 C 0.2957(2) 0.5579(3) 0.6089(5)
C13_5 C 0.1161(3) 0.2351(3) 0.3962(5)
C14_5 C 0.1358(3) 0.2356(3) 0.4799(6)
H9_5 H 0.1200 0.2130 0.5231
C15_5 C 0.1787(3) 0.2685(3) 0.5033(5)
H10_5 H 0.1911 0.2690 0.5626
C16_5 C 0.2031(3) 0.3000(3) 0.4417(4)
C17_5 C 0.1839(3) 0.2991(3) 0.3551(5)
H11_5 H 0.2003 0.3210 0.3116
C18_5 C 0.1409(3) 0.2664(3) 0.3326(5)
H12_5 H 0.1284 0.2654 0.2734
C19_5 C 0.2464(3) 0.3381(3) 0.4678(5)
C20_5 C 0.2468(3) 0.3638(3) 0.5470(5)
H13_5 H 0.2201 0.3557 0.5897
C21_5 C 0.2858(3) 0.4015(3) 0.5655(5)
H14_5 H 0.2848 0.4190 0.6211
C22_5 C 0.3256(3) 0.3887(3) 0.4327(5)
H15_5 H 0.3533 0.3970 0.3917
C23_5 C 0.2878(3) 0.3500(3) 0.4099(5)
H16_5 H 0.2903 0.3317 0.3551
C24_5 C 0.0687(3) 0.2009(3) 0.3733(5)
C25_5 C 0.4394(3) 0.4376(3) 0.6794(4)
H17_5 H 0.4661 0.4593 0.7134
C26_5 C 0.4668(3) 0.4164(3) 0.5964(5)
C27_5 C 0.4220(4) 0.3919(4) 0.7350(6)
H18_5 H 0.4053 0.4056 0.7890
H19_5 H 0.4532 0.3698 0.7502
H20_5 H 0.3958 0.3701 0.7025
C28_5 C 0.4533(3) 0.5893(3) 0.9119(5)
C29_5 C 0.4224(3) 0.5776(3) 0.8271(5)
H21_5 H 0.4483 0.5684 0.7791
C30_5 C 0.3913(3) 0.6291(4) 0.8020(5)
H22_5 H 0.3679 0.6216 0.7516
H23_5 H 0.3695 0.6409 0.8521
H24_5 H 0.4169 0.6575 0.7862
Zn4_3 Zn 0.52242(3) 0.37922(3) 0.46977(5)
O12_3 O 0.42991(17) 0.55114(17) 0.4771(3)
O13_3 O 0.3867(2) 0.4926(2) 0.3962(3)
N3_3 N 0.9272(2) 0.1895(2) 0.4898(4)
Zn1_4 Zn 0.62078(3) 0.52242(3) 0.53023(5)
O1_6 O 0.68215(18) 0.46628(18) 0.5464(3)
O2_6 O 0.69897(19) 0.4511(2) 0.6905(3)
O4_6 O 0.9545(2) 0.8216(2) 0.4344(3)
O5_6 O 0.60391(17) 0.52901(19) 0.6565(3)
O6_4 O 0.55114(17) 0.57009(17) 0.5229(3)
O7_4 O 0.4926(2) 0.6133(2) 0.6038(3)
N2_6 N 0.6752(2) 0.5854(2) 0.5093(4)
C1_6 C 0.7422(3) 0.3972(3) 0.5865(5)
C2_6 C 0.7721(3) 0.3726(3) 0.6513(5)
H1_6 H 0.7684 0.3843 0.7106
C3_6 C 0.8073(3) 0.3312(3) 0.6323(5)
H2_6 H 0.8274 0.3148 0.6783
C4_6 C 0.8134(3) 0.3136(3) 0.5461(5)
C5_6 C 0.7827(3) 0.3380(3) 0.4802(5)
H3_6 H 0.7858 0.3263 0.4209
C6_6 C 0.7480(3) 0.3791(3) 0.5011(5)
H4_6 H 0.7274 0.3955 0.4556
C7_6 C 0.8524(3) 0.2702(3) 0.5259(5)
C8_6 C 0.8789(3) 0.2680(3) 0.4455(5)
H5_6 H 0.8716 0.2938 0.4010
C9_6 C 0.9165(3) 0.2267(3) 0.4308(5)
H6_6 H 0.9349 0.2257 0.3761
C10_6 C 0.9005(3) 0.1907(3) 0.5655(5)
H7_6 H 0.9075 0.1632 0.6075
C11_6 C 0.8629(4) 0.2300(3) 0.5866(6)
H8_6 H 0.8447 0.2293 0.6417
C12_6 C 0.7043(2) 0.4421(3) 0.6089(5)
C13_6 C 0.8839(3) 0.7649(3) 0.3962(5)
C14_6 C 0.8642(3) 0.7644(3) 0.4799(6)
H9_6 H 0.8800 0.7870 0.5231
C15_6 C 0.8213(3) 0.7315(3) 0.5033(5)
H10_6 H 0.8089 0.7310 0.5626
C16_6 C 0.7969(3) 0.7000(3) 0.4417(4)
C17_6 C 0.8161(3) 0.7009(3) 0.3551(5)
H11_6 H 0.7997 0.6790 0.3116
C18_6 C 0.8591(3) 0.7336(3) 0.3326(5)
H12_6 H 0.8716 0.7346 0.2734
C19_6 C 0.7536(3) 0.6619(3) 0.4678(5)
C20_6 C 0.7532(3) 0.6362(3) 0.5470(5)
H13_6 H 0.7799 0.6443 0.5897
C21_6 C 0.7142(3) 0.5985(3) 0.5655(5)
H14_6 H 0.7152 0.5810 0.6211
C22_6 C 0.6744(3) 0.6113(3) 0.4327(5)
H15_6 H 0.6467 0.6030 0.3917
C23_6 C 0.7122(3) 0.6500(3) 0.4099(5)
H16_6 H 0.7097 0.6683 0.3551
C24_6 C 0.9313(3) 0.7991(3) 0.3733(5)
C25_6 C 0.5606(3) 0.5624(3) 0.6794(4)
H17_6 H 0.5339 0.5407 0.7134
C26_6 C 0.5332(3) 0.5836(3) 0.5964(5)
C27_6 C 0.5780(4) 0.6081(4) 0.7350(6)
H18_6 H 0.5947 0.5944 0.7890
H19_6 H 0.5468 0.6302 0.7502
H20_6 H 0.6042 0.6299 0.7025
C28_6 C 0.5467(3) 0.4107(3) 0.9119(5)
C29_6 C 0.5776(3) 0.4224(3) 0.8271(5)
H21_6 H 0.5517 0.4316 0.7791
C30_6 C 0.6087(3) 0.3709(4) 0.8020(5)
H22_6 H 0.6321 0.3784 0.7516
H23_6 H 0.6305 0.3591 0.8521
H24_6 H 0.5831 0.3425 0.7862
Zn4_4 Zn 0.47758(3) 0.62078(3) 0.46977(5)
O12_4 O 0.57009(17) 0.44886(17) 0.4771(3)
O13_4 O 0.6133(2) 0.5074(2) 0.3962(3)
O1_7 O 0.46628(18) 0.31785(18) 0.4536(3)
O2_7 O 0.4511(2) 0.30103(19) 0.3095(3)
O4_7 O 0.8216(2) 0.0455(2) 0.5656(3)
O5_7 O 0.52901(19) 0.39609(17) 0.3435(3)
N1_4 N 0.1895(2) 0.0728(2) 0.5102(4)
N2_7 N 0.5854(2) 0.3248(2) 0.4907(4)
C1_7 C 0.3972(3) 0.2578(3) 0.4135(5)
C2_7 C 0.3726(3) 0.2279(3) 0.3487(5)
H1_7 H 0.3843 0.2316 0.2894
C3_7 C 0.3312(3) 0.1927(3) 0.3677(5)
H2_7 H 0.3148 0.1726 0.3217
C4_7 C 0.3136(3) 0.1866(3) 0.4539(5)
C5_7 C 0.3380(3) 0.2173(3) 0.5198(5)
H3_7 H 0.3263 0.2142 0.5791
C6_7 C 0.3791(3) 0.2520(3) 0.4989(5)
H4_7 H 0.3955 0.2726 0.5444
C7_7 C 0.2702(3) 0.1476(3) 0.4741(5)
C8_7 C 0.2680(3) 0.1211(3) 0.5545(5)
H5_7 H 0.2938 0.1284 0.5990
C9_7 C 0.2267(3) 0.0835(3) 0.5692(5)
H6_7 H 0.2257 0.0651 0.6239
C10_7 C 0.1907(3) 0.0995(3) 0.4345(5)
H7_7 H 0.1632 0.0925 0.3925
C11_7 C 0.2300(3) 0.1371(4) 0.4134(6)
H8_7 H 0.2293 0.1553 0.3583
C12_7 C 0.4421(3) 0.2957(2) 0.3911(5)
C13_7 C 0.7649(3) 0.1161(3) 0.6038(5)
C14_7 C 0.7644(3) 0.1358(3) 0.5201(6)
H9_7 H 0.7870 0.1200 0.4769
C15_7 C 0.7315(3) 0.1787(3) 0.4967(5)
H10_7 H 0.7310 0.1911 0.4374
C16_7 C 0.7000(3) 0.2031(3) 0.5583(4)
C17_7 C 0.7009(3) 0.1839(3) 0.6449(5)
H11_7 H 0.6790 0.2003 0.6884
C18_7 C 0.7336(3) 0.1409(3) 0.6674(5)
H12_7 H 0.7346 0.1284 0.7266
C19_7 C 0.6619(3) 0.2464(3) 0.5322(5)
C20_7 C 0.6362(3) 0.2468(3) 0.4530(5)
H13_7 H 0.6443 0.2201 0.4103
C21_7 C 0.5985(3) 0.2858(3) 0.4345(5)
H14_7 H 0.5810 0.2848 0.3789
C22_7 C 0.6113(3) 0.3256(3) 0.5673(5)
H15_7 H 0.6030 0.3533 0.6083
C23_7 C 0.6500(3) 0.2878(3) 0.5901(5)
H16_7 H 0.6683 0.2903 0.6449
C24_7 C 0.7991(3) 0.0687(3) 0.6267(5)
C25_7 C 0.5624(3) 0.4394(3) 0.3206(4)
H17_7 H 0.5407 0.4661 0.2866
C26_7 C 0.5836(3) 0.4668(3) 0.4036(5)
C27_7 C 0.6081(4) 0.4220(4) 0.2650(6)
H18_7 H 0.5944 0.4053 0.2110
H19_7 H 0.6302 0.4532 0.2498
H20_7 H 0.6299 0.3958 0.2975
C28_7 C 0.4107(3) 0.4533(3) 0.0881(5)
C29_7 C 0.4224(3) 0.4224(3) 0.1729(5)
H21_7 H 0.4316 0.4483 0.2209
C30_7 C 0.3709(4) 0.3913(3) 0.1980(5)
H22_7 H 0.3784 0.3679 0.2484
H23_7 H 0.3591 0.3695 0.1479
H24_7 H 0.3425 0.4169 0.2138
N3_4 N 0.8105(2) 0.9272(2) 0.5102(4)
O1_8 O 0.53372(18) 0.68215(18) 0.4536(3)
O2_8 O 0.5489(2) 0.69897(19) 0.3095(3)
O4_8 O 0.1784(2) 0.9545(2) 0.5656(3)
O5_8 O 0.47099(19) 0.60391(17) 0.3435(3)
N2_8 N 0.4146(2) 0.6752(2) 0.4907(4)
C1_8 C 0.6028(3) 0.7422(3) 0.4135(5)
C2_8 C 0.6274(3) 0.7721(3) 0.3487(5)
H1_8 H 0.6157 0.7684 0.2894
C3_8 C 0.6688(3) 0.8073(3) 0.3677(5)
H2_8 H 0.6852 0.8274 0.3217
C4_8 C 0.6864(3) 0.8134(3) 0.4539(5)
C5_8 C 0.6620(3) 0.7827(3) 0.5198(5)
H3_8 H 0.6737 0.7858 0.5791
C6_8 C 0.6209(3) 0.7480(3) 0.4989(5)
H4_8 H 0.6045 0.7274 0.5444
C7_8 C 0.7298(3) 0.8524(3) 0.4741(5)
C8_8 C 0.7320(3) 0.8789(3) 0.5545(5)
H5_8 H 0.7062 0.8716 0.5990
C9_8 C 0.7733(3) 0.9165(3) 0.5692(5)
H6_8 H 0.7743 0.9349 0.6239
C10_8 C 0.8093(3) 0.9005(3) 0.4345(5)
H7_8 H 0.8368 0.9075 0.3925
C11_8 C 0.7700(3) 0.8629(4) 0.4134(6)
H8_8 H 0.7707 0.8447 0.3583
C12_8 C 0.5579(3) 0.7043(2) 0.3911(5)
C13_8 C 0.2351(3) 0.8839(3) 0.6038(5)
C14_8 C 0.2356(3) 0.8642(3) 0.5201(6)
H9_8 H 0.2130 0.8800 0.4769
C15_8 C 0.2685(3) 0.8213(3) 0.4967(5)
H10_8 H 0.2690 0.8089 0.4374
C16_8 C 0.3000(3) 0.7969(3) 0.5583(4)
C17_8 C 0.2991(3) 0.8161(3) 0.6449(5)
H11_8 H 0.3210 0.7997 0.6884
C18_8 C 0.2664(3) 0.8591(3) 0.6674(5)
H12_8 H 0.2654 0.8716 0.7266
C19_8 C 0.3381(3) 0.7536(3) 0.5322(5)
C20_8 C 0.3638(3) 0.7532(3) 0.4530(5)
H13_8 H 0.3557 0.7799 0.4103
C21_8 C 0.4015(3) 0.7142(3) 0.4345(5)
H14_8 H 0.4190 0.7152 0.3789
C22_8 C 0.3887(3) 0.6744(3) 0.5673(5)
H15_8 H 0.3970 0.6467 0.6083
C23_8 C 0.3500(3) 0.7122(3) 0.5901(5)
H16_8 H 0.3317 0.7097 0.6449
C24_8 C 0.2009(3) 0.9313(3) 0.6267(5)
C25_8 C 0.4376(3) 0.5606(3) 0.3206(4)
H17_8 H 0.4593 0.5339 0.2866
C26_8 C 0.4164(3) 0.5332(3) 0.4036(5)
C27_8 C 0.3919(4) 0.5780(4) 0.2650(6)
H18_8 H 0.4056 0.5947 0.2110
H19_8 H 0.3698 0.5468 0.2498
H20_8 H 0.3701 0.6042 0.2975
C28_8 C 0.5893(3) 0.5467(3) 0.0881(5)
C29_8 C 0.5776(3) 0.5776(3) 0.1729(5)
H21_8 H 0.5684 0.5517 0.2209
C30_8 C 0.6291(4) 0.6087(3) 0.1980(5)
H22_8 H 0.6216 0.6321 0.2484
H23_8 H 0.6409 0.6305 0.1479
H24_8 H 0.6575 0.5831 0.2138
loop_
_geom_bond_atom_site_label_1
_geom_bond_atom_site_label_2
_geom_bond_site_symmetry_1
_geom_bond_site_symmetry_2
N1 C9 1_555 1_555
H3 C5 1_555 1_555
H5 C8 1_555 1_555
C9 C8 1_555 1_555
H6 C9 1_555 1_555
Zn8 N1 1_555 1_555
O1 C12 1_555 1_555
O2 C12 1_555 1_555
O8 C28 1_555 1_555
O9 C28 1_555 1_555
C1 C2 1_555 1_555
C2 H1 1_555 1_555
C3 C2 1_555 1_555
H2 C3 1_555 1_555
C4 C3 1_555 1_555
C6 C1 1_555 1_555
C7 C4 1_555 1_555
H7 C10 1_555 1_555
C11 C7 1_555 1_555
H8 C11 1_555 1_555
C12 C1 1_555 1_555
C28 C29 1_555 1_555
C29 O10 1_555 1_555
H21 C29 1_555 1_555
C30 C29 1_555 1_555
H22 C30 1_555 1_555
H23 C30 1_555 1_555
H24 C30 1_555 1_555
Zn7 O9 1_555 1_555
O10 Zn7 1_555 1_555
C10 C11 1_555 1_555
Zn3 O4 1_555 1_555
O3 C24 1_555 1_555
O4 C24 1_555 1_555
C13 C14 1_555 1_555
C17 C16 1_555 1_555
H11 C17 1_555 1_555
C18 C13 1_555 1_555
H12 C18 1_555 1_555
C19 C16 1_555 1_555
H15 C22 1_555 1_555
C23 C19 1_555 1_555
H16 C23 1_555 1_555
C24 C13 1_555 1_555
Zn5 O3 1_555 1_555
O15 Zn3 1_555 1_555
O16 Zn3 1_555 1_555
N3 Zn3 1_555 1_555
C17 C18 1_555 1_555
C22 C23 1_555 1_555
Zn5 O16 1_555 1_555
O5 Zn1 1_555 1_555
O6 Zn1 1_555 1_555
N2 Zn1 1_555 1_555
H10 C15 1_555 1_555
H13 C20 1_555 1_555
C21 N2 1_555 1_555
H14 C21 1_555 1_555
C25 O5 1_555 1_555
H17 C25 1_555 1_555
C26 O6 1_555 1_555
C27 C25 1_555 1_555
H18 C27 1_555 1_555
H19 C27 1_555 1_555
H20 C27 1_555 1_555
O11 Zn2 1_555 1_555
Zn2 O5 1_555 1_555
C20 C21 1_555 1_555
C25 C26 1_555 1_555
Zn8 O4_2 1_555 1_555
O3_2 C24_2 1_555 1_555
O4_2 C24_2 1_555 1_555
C13_2 C14_2 1_555 1_555
C17_2 C16_2 1_555 1_555
H11_2 C17_2 1_555 1_555
C18_2 C13_2 1_555 1_555
H12_2 C18_2 1_555 1_555
C19_2 C16_2 1_555 1_555
H15_2 C22_2 1_555 1_555
C23_2 C19_2 1_555 1_555
H16_2 C23_2 1_555 1_555
C24_2 C13_2 1_555 1_555
Zn5_2 O3_2 1_555 1_555
O15_2 Zn8 1_555 1_555
O16_2 Zn8 1_555 1_555
C17_2 C18_2 1_555 1_555
C22_2 C23_2 1_555 1_555
Zn5_2 O16_2 1_555 1_555
O5_2 Zn1_2 1_555 1_555
O6_2 Zn1_2 1_555 1_555
N2_2 Zn1_2 1_555 1_555
H10_2 C15_2 1_555 1_555
H13_2 C20_2 1_555 1_555
C21_2 N2_2 1_555 1_555
H14_2 C21_2 1_555 1_555
C25_2 O5_2 1_555 1_555
H17_2 C25_2 1_555 1_555
C26_2 O6_2 1_555 1_555
C27_2 C25_2 1_555 1_555
H18_2 C27_2 1_555 1_555
H19_2 C27_2 1_555 1_555
H20_2 C27_2 1_555 1_555
O11_2 Zn2_2 1_555 1_555
Zn2_2 O5_2 1_555 1_555
C20_2 C21_2 1_555 1_555
C25_2 C26_2 1_555 1_555
N3 C9_2 1_555 1_555
H3_2 C5_2 1_555 1_555
H5_2 C8_2 1_555 1_555
C9_2 C8_2 1_555 1_555
H6_2 C9_2 1_555 1_555
O1_2 C12_2 1_555 1_555
O2_2 C12_2 1_555 1_555
O8_2 C28_2 1_555 1_555
O9_2 C28_2 1_555 1_555
C1_2 C2_2 1_555 1_555
C2_2 H1_2 1_555 1_555
C3_2 C2_2 1_555 1_555
H2_2 C3_2 1_555 1_555
C4_2 C3_2 1_555 1_555
C6_2 C1_2 1_555 1_555
C7_2 C4_2 1_555 1_555
H7_2 C10_2 1_555 1_555
C11_2 C7_2 1_555 1_555
H8_2 C11_2 1_555 1_555
C12_2 C1_2 1_555 1_555
C28_2 C29_2 1_555 1_555
C29_2 O10_2 1_555 1_555
H21_2 C29_2 1_555 1_555
C30_2 C29_2 1_555 1_555
H22_2 C30_2 1_555 1_555
H23_2 C30_2 1_555 1_555
H24_2 C30_2 1_555 1_555
Zn7_2 O9_2 1_555 1_555
O10_2 Zn7_2 1_555 1_555
C10_2 C11_2 1_555 1_555
O1_3 C12_3 1_555 1_555
O2_3 C12_3 1_555 1_555
O8_3 C28_3 1_555 1_555
O9_3 C28_3 1_555 1_555
C1_3 C2_3 1_555 1_555
C2_3 H1_3 1_555 1_555
C3_3 C2_3 1_555 1_555
H2_3 C3_3 1_555 1_555
C4_3 C3_3 1_555 1_555
C6_3 C1_3 1_555 1_555
C7_3 C4_3 1_555 1_555
H7_3 C10_3 1_555 1_555
C11_3 C7_3 1_555 1_555
H8_3 C11_3 1_555 1_555
C12_3 C1_3 1_555 1_555
C28_3 C29_3 1_555 1_555
C29_3 O10_3 1_555 1_555
H21_3 C29_3 1_555 1_555
C30_3 C29_3 1_555 1_555
H22_3 C30_3 1_555 1_555
H23_3 C30_3 1_555 1_555
H24_3 C30_3 1_555 1_555
Zn6_2 O9_3 1_555 1_555
O10_3 Zn6_2 1_555 1_555
C10_3 C11_3 1_555 1_555
N1_2 C9_3 1_555 1_555
H3_3 C5_3 1_555 1_555
H5_3 C8_3 1_555 1_555
C9_3 C8_3 1_555 1_555
H6_3 C9_3 1_555 1_555
Zn8_2 N1_2 1_555 1_555
O5_3 Zn4 1_555 1_555
O12_2 Zn4 1_555 1_555
N2_3 Zn4 1_555 1_555
H10_3 C15_3 1_555 1_555
H13_3 C20_3 1_555 1_555
C21_3 N2_3 1_555 1_555
H14_3 C21_3 1_555 1_555
C25_3 O5_3 1_555 1_555
H17_3 C25_3 1_555 1_555
C26_3 O12_2 1_555 1_555
C27_3 C25_3 1_555 1_555
H18_3 C27_3 1_555 1_555
H19_3 C27_3 1_555 1_555
H20_3 C27_3 1_555 1_555
O11_3 Zn2_3 1_555 1_555
Zn2_3 O5_3 1_555 1_555
C20_3 C21_3 1_555 1_555
C25_3 C26_3 1_555 1_555
Zn3_2 O4_3 1_555 1_555
O3_3 C24_3 1_555 1_555
O4_3 C24_3 1_555 1_555
C13_3 C14_3 1_555 1_555
C17_3 C16_3 1_555 1_555
H11_3 C17_3 1_555 1_555
C18_3 C13_3 1_555 1_555
H12_3 C18_3 1_555 1_555
C19_3 C16_3 1_555 1_555
H15_3 C22_3 1_555 1_555
C23_3 C19_3 1_555 1_555
H16_3 C23_3 1_555 1_555
C24_3 C13_3 1_555 1_555
Zn5_3 O3_3 1_555 1_555
O15_3 Zn3_2 1_555 1_555
O16_3 Zn3_2 1_555 1_555
N3_2 Zn3_2 1_555 1_555
C17_3 C18_3 1_555 1_555
C22_3 C23_3 1_555 1_555
Zn5_3 O16_3 1_555 1_555
O5_4 Zn4_2 1_555 1_555
O12 Zn4_2 1_555 1_555
N2_4 Zn4_2 1_555 1_555
H10_4 C15_4 1_555 1_555
H13_4 C20_4 1_555 1_555
C21_4 N2_4 1_555 1_555
H14_4 C21_4 1_555 1_555
C25_4 O5_4 1_555 1_555
H17_4 C25_4 1_555 1_555
C26_4 O12 1_555 1_555
C27_4 C25_4 1_555 1_555
H18_4 C27_4 1_555 1_555
H19_4 C27_4 1_555 1_555
H20_4 C27_4 1_555 1_555
O11_4 Zn2_4 1_555 1_555
Zn2_4 O5_4 1_555 1_555
C20_4 C21_4 1_555 1_555
C25_4 C26_4 1_555 1_555
Zn8_2 O4_4 1_555 1_555
O3_4 C24_4 1_555 1_555
O4_4 C24_4 1_555 1_555
C13_4 C14_4 1_555 1_555
C17_4 C16_4 1_555 1_555
H11_4 C17_4 1_555 1_555
C18_4 C13_4 1_555 1_555
H12_4 C18_4 1_555 1_555
C19_4 C16_4 1_555 1_555
H15_4 C22_4 1_555 1_555
C23_4 C19_4 1_555 1_555
H16_4 C23_4 1_555 1_555
C24_4 C13_4 1_555 1_555
Zn5_4 O3_4 1_555 1_555
O15_4 Zn8_2 1_555 1_555
O16_4 Zn8_2 1_555 1_555
C17_4 C18_4 1_555 1_555
C22_4 C23_4 1_555 1_555
Zn5_4 O16_4 1_555 1_555
O1_4 C12_4 1_555 1_555
O2_4 C12_4 1_555 1_555
O8_4 C28_4 1_555 1_555
O9_4 C28_4 1_555 1_555
C1_4 C2_4 1_555 1_555
C2_4 H1_4 1_555 1_555
C3_4 C2_4 1_555 1_555
H2_4 C3_4 1_555 1_555
C4_4 C3_4 1_555 1_555
C6_4 C1_4 1_555 1_555
C7_4 C4_4 1_555 1_555
H7_4 C10_4 1_555 1_555
C11_4 C7_4 1_555 1_555
H8_4 C11_4 1_555 1_555
C12_4 C1_4 1_555 1_555
C28_4 C29_4 1_555 1_555
C29_4 O10_4 1_555 1_555
H21_4 C29_4 1_555 1_555
C30_4 C29_4 1_555 1_555
H22_4 C30_4 1_555 1_555
H23_4 C30_4 1_555 1_555
H24_4 C30_4 1_555 1_555
Zn6 O9_4 1_555 1_555
O10_4 Zn6 1_555 1_555
C10_4 C11_4 1_555 1_555
N3_2 C9_4 1_555 1_555
H3_4 C5_4 1_555 1_555
H5_4 C8_4 1_555 1_555
C9_4 C8_4 1_555 1_555
H6_4 C9_4 1_555 1_555
Zn1_3 O1_5 1_555 1_555
Zn5_4 O2_5 1_555 1_555
O1_5 C12_5 1_555 1_555
O2_5 C12_5 1_555 1_555
O11_4 C24_5 1_555 1_555
O4_5 C24_5 1_555 1_555
O5_5 Zn1_3 1_555 1_555
O6_3 Zn1_3 1_555 1_555
O7_3 C26_5 1_555 1_555
O14 C28_5 1_555 1_555
O15_4 C28_5 1_555 1_555
N1_3 C9_5 1_555 1_555
N2_5 Zn1_3 1_555 1_555
C1_5 C2_5 1_555 1_555
C2_5 H1_5 1_555 1_555
C3_5 C2_5 1_555 1_555
H2_5 C3_5 1_555 1_555
C4_5 C3_5 1_555 1_555
C5_5 C4_5 1_555 1_555
H3_5 C5_5 1_555 1_555
C6_5 C1_5 1_555 1_555
H4_5 C6_5 1_555 1_555
C7_5 C4_5 1_555 1_555
C8_5 C7_5 1_555 1_555
H5_5 C8_5 1_555 1_555
C9_5 C8_5 1_555 1_555
H6_5 C9_5 1_555 1_555
C10_5 N1_3 1_555 1_555
H7_5 C10_5 1_555 1_555
C11_5 C7_5 1_555 1_555
H8_5 C11_5 1_555 1_555
C12_5 C1_5 1_555 1_555
C13_5 C14_5 1_555 1_555
C14_5 H9_5 1_555 1_555
C15_5 C14_5 1_555 1_555
H10_5 C15_5 1_555 1_555
C16_5 C15_5 1_555 1_555
C17_5 C16_5 1_555 1_555
H11_5 C17_5 1_555 1_555
C18_5 C13_5 1_555 1_555
H12_5 C18_5 1_555 1_555
C19_5 C16_5 1_555 1_555
C20_5 C19_5 1_555 1_555
H13_5 C20_5 1_555 1_555
C21_5 N2_5 1_555 1_555
H14_5 C21_5 1_555 1_555
C22_5 N2_5 1_555 1_555
H15_5 C22_5 1_555 1_555
C23_5 C19_5 1_555 1_555
H16_5 C23_5 1_555 1_555
C24_5 C13_5 1_555 1_555
C25_5 O5_5 1_555 1_555
H17_5 C25_5 1_555 1_555
C26_5 O6_3 1_555 1_555
C27_5 C25_5 1_555 1_555
H18_5 C27_5 1_555 1_555
H19_5 C27_5 1_555 1_555
H20_5 C27_5 1_555 1_555
C28_5 C29_5 1_555 1_555
C29_5 O16_4 1_555 1_555
H21_5 C29_5 1_555 1_555
C30_5 C29_5 1_555 1_555
H22_5 C30_5 1_555 1_555
H23_5 C30_5 1_555 1_555
H24_5 C30_5 1_555 1_555
Zn4_3 O6_3 1_555 1_555
Zn6_2 N1_3 1_555 1_555
O12_3 Zn1_3 1_555 1_555
O13_3 Zn1_3 1_555 1_555
Zn5_4 O5_5 1_555 1_555
O7_3 Zn4_3 1_555 1_555
C5_5 C6_5 1_555 1_555
C10_5 C11_5 1_555 1_555
C17_5 C18_5 1_555 1_555
C20_5 C21_5 1_555 1_555
C22_5 C23_5 1_555 1_555
C25_5 C26_5 1_555 1_555
N3_3 Zn6 1_555 1_555
Zn1_4 O1_6 1_555 1_555
Zn5_3 O2_6 1_555 1_555
O1_6 C12_6 1_555 1_555
O2_6 C12_6 1_555 1_555
O11_3 C24_6 1_555 1_555
O4_6 C24_6 1_555 1_555
O5_6 Zn1_4 1_555 1_555
O6_4 Zn1_4 1_555 1_555
O7_4 C26_6 1_555 1_555
O14_2 C28_6 1_555 1_555
O15_3 C28_6 1_555 1_555
N3_3 C9_6 1_555 1_555
N2_6 Zn1_4 1_555 1_555
C1_6 C2_6 1_555 1_555
C2_6 H1_6 1_555 1_555
C3_6 C2_6 1_555 1_555
H2_6 C3_6 1_555 1_555
C4_6 C3_6 1_555 1_555
C5_6 C4_6 1_555 1_555
H3_6 C5_6 1_555 1_555
C6_6 C1_6 1_555 1_555
H4_6 C6_6 1_555 1_555
C7_6 C4_6 1_555 1_555
C8_6 C7_6 1_555 1_555
H5_6 C8_6 1_555 1_555
C9_6 C8_6 1_555 1_555
H6_6 C9_6 1_555 1_555
C10_6 N3_3 1_555 1_555
H7_6 C10_6 1_555 1_555
C11_6 C7_6 1_555 1_555
H8_6 C11_6 1_555 1_555
C12_6 C1_6 1_555 1_555
C13_6 C14_6 1_555 1_555
C14_6 H9_6 1_555 1_555
C15_6 C14_6 1_555 1_555
H10_6 C15_6 1_555 1_555
C16_6 C15_6 1_555 1_555
C17_6 C16_6 1_555 1_555
H11_6 C17_6 1_555 1_555
C18_6 C13_6 1_555 1_555
H12_6 C18_6 1_555 1_555
C19_6 C16_6 1_555 1_555
C20_6 C19_6 1_555 1_555
H13_6 C20_6 1_555 1_555
C21_6 N2_6 1_555 1_555
H14_6 C21_6 1_555 1_555
C22_6 N2_6 1_555 1_555
H15_6 C22_6 1_555 1_555
C23_6 C19_6 1_555 1_555
H16_6 C23_6 1_555 1_555
C24_6 C13_6 1_555 1_555
C25_6 O5_6 1_555 1_555
H17_6 C25_6 1_555 1_555
C26_6 O6_4 1_555 1_555
C27_6 C25_6 1_555 1_555
H18_6 C27_6 1_555 1_555
H19_6 C27_6 1_555 1_555
H20_6 C27_6 1_555 1_555
C28_6 C29_6 1_555 1_555
C29_6 O16_3 1_555 1_555
H21_6 C29_6 1_555 1_555
C30_6 C29_6 1_555 1_555
H22_6 C30_6 1_555 1_555
H23_6 C30_6 1_555 1_555
H24_6 C30_6 1_555 1_555
Zn4_4 O6_4 1_555 1_555
O12_4 Zn1_4 1_555 1_555
O13_4 Zn1_4 1_555 1_555
Zn5_3 O5_6 1_555 1_555
O7_4 Zn4_4 1_555 1_555
C5_6 C6_6 1_555 1_555
C10_6 C11_6 1_555 1_555
C17_6 C18_6 1_555 1_555
C20_6 C21_6 1_555 1_555
C22_6 C23_6 1_555 1_555
C25_6 C26_6 1_555 1_555
Zn4_3 O1_7 1_555 1_555
Zn5_2 O2_7 1_555 1_555
O1_7 C12_7 1_555 1_555
O2_7 C12_7 1_555 1_555
O11_2 C24_7 1_555 1_555
O4_7 C24_7 1_555 1_555
O5_7 Zn4_3 1_555 1_555
O12_4 Zn4_3 1_555 1_555
O13_4 C26_7 1_555 1_555
O14_4 C28_7 1_555 1_555
O15_2 C28_7 1_555 1_555
N1_4 C9_7 1_555 1_555
N2_7 Zn4_3 1_555 1_555
C1_7 C2_7 1_555 1_555
C2_7 H1_7 1_555 1_555
C3_7 C2_7 1_555 1_555
H2_7 C3_7 1_555 1_555
C4_7 C3_7 1_555 1_555
C5_7 C4_7 1_555 1_555
H3_7 C5_7 1_555 1_555
C6_7 C1_7 1_555 1_555
H4_7 C6_7 1_555 1_555
C7_7 C4_7 1_555 1_555
C8_7 C7_7 1_555 1_555
H5_7 C8_7 1_555 1_555
C9_7 C8_7 1_555 1_555
H6_7 C9_7 1_555 1_555
C10_7 N1_4 1_555 1_555
H7_7 C10_7 1_555 1_555
C11_7 C7_7 1_555 1_555
H8_7 C11_7 1_555 1_555
C12_7 C1_7 1_555 1_555
C13_7 C14_7 1_555 1_555
C14_7 H9_7 1_555 1_555
C15_7 C14_7 1_555 1_555
H10_7 C15_7 1_555 1_555
C16_7 C15_7 1_555 1_555
C17_7 C16_7 1_555 1_555
H11_7 C17_7 1_555 1_555
C18_7 C13_7 1_555 1_555
H12_7 C18_7 1_555 1_555
C19_7 C16_7 1_555 1_555
C20_7 C19_7 1_555 1_555
H13_7 C20_7 1_555 1_555
C21_7 N2_7 1_555 1_555
H14_7 C21_7 1_555 1_555
C22_7 N2_7 1_555 1_555
H15_7 C22_7 1_555 1_555
C23_7 C19_7 1_555 1_555
H16_7 C23_7 1_555 1_555
C24_7 C13_7 1_555 1_555
C25_7 O5_7 1_555 1_555
H17_7 C25_7 1_555 1_555
C26_7 O12_4 1_555 1_555
C27_7 C25_7 1_555 1_555
H18_7 C27_7 1_555 1_555
H19_7 C27_7 1_555 1_555
H20_7 C27_7 1_555 1_555
C28_7 C29_7 1_555 1_555
C29_7 O16_2 1_555 1_555
H21_7 C29_7 1_555 1_555
C30_7 C29_7 1_555 1_555
H22_7 C30_7 1_555 1_555
H23_7 C30_7 1_555 1_555
H24_7 C30_7 1_555 1_555
Zn7 N1_4 1_555 1_555
Zn5_2 O5_7 1_555 1_555
C5_7 C6_7 1_555 1_555
C10_7 C11_7 1_555 1_555
C17_7 C18_7 1_555 1_555
C20_7 C21_7 1_555 1_555
C22_7 C23_7 1_555 1_555
C25_7 C26_7 1_555 1_555
N3_4 Zn7_2 1_555 1_555
Zn4_4 O1_8 1_555 1_555
Zn5 O2_8 1_555 1_555
O1_8 C12_8 1_555 1_555
O2_8 C12_8 1_555 1_555
O11 C24_8 1_555 1_555
O4_8 C24_8 1_555 1_555
O5_8 Zn4_4 1_555 1_555
O12_3 Zn4_4 1_555 1_555
O13_3 C26_8 1_555 1_555
O14_3 C28_8 1_555 1_555
O15 C28_8 1_555 1_555
N3_4 C9_8 1_555 1_555
N2_8 Zn4_4 1_555 1_555
C1_8 C2_8 1_555 1_555
C2_8 H1_8 1_555 1_555
C3_8 C2_8 1_555 1_555
H2_8 C3_8 1_555 1_555
C4_8 C3_8 1_555 1_555
C5_8 C4_8 1_555 1_555
H3_8 C5_8 1_555 1_555
C6_8 C1_8 1_555 1_555
H4_8 C6_8 1_555 1_555
C7_8 C4_8 1_555 1_555
C8_8 C7_8 1_555 1_555
H5_8 C8_8 1_555 1_555
C9_8 C8_8 1_555 1_555
H6_8 C9_8 1_555 1_555
C10_8 N3_4 1_555 1_555
H7_8 C10_8 1_555 1_555
C11_8 C7_8 1_555 1_555
H8_8 C11_8 1_555 1_555
C12_8 C1_8 1_555 1_555
C13_8 C14_8 1_555 1_555
C14_8 H9_8 1_555 1_555
C15_8 C14_8 1_555 1_555
H10_8 C15_8 1_555 1_555
C16_8 C15_8 1_555 1_555
C17_8 C16_8 1_555 1_555
H11_8 C17_8 1_555 1_555
C18_8 C13_8 1_555 1_555
H12_8 C18_8 1_555 1_555
C19_8 C16_8 1_555 1_555
C20_8 C19_8 1_555 1_555
H13_8 C20_8 1_555 1_555
C21_8 N2_8 1_555 1_555
H14_8 C21_8 1_555 1_555
C22_8 N2_8 1_555 1_555
H15_8 C22_8 1_555 1_555
C23_8 C19_8 1_555 1_555
H16_8 C23_8 1_555 1_555
C24_8 C13_8 1_555 1_555
C25_8 O5_8 1_555 1_555
H17_8 C25_8 1_555 1_555
C26_8 O12_3 1_555 1_555
C27_8 C25_8 1_555 1_555
H18_8 C27_8 1_555 1_555
H19_8 C27_8 1_555 1_555
H20_8 C27_8 1_555 1_555
C28_8 C29_8 1_555 1_555
C29_8 O16 1_555 1_555
H21_8 C29_8 1_555 1_555
C30_8 C29_8 1_555 1_555
H22_8 C30_8 1_555 1_555
H23_8 C30_8 1_555 1_555
H24_8 C30_8 1_555 1_555
Zn5 O5_8 1_555 1_555
C5_8 C6_8 1_555 1_555
C10_8 C11_8 1_555 1_555
C17_8 C18_8 1_555 1_555
C20_8 C21_8 1_555 1_555
C22_8 C23_8 1_555 1_555
C25_8 C26_8 1_555 1_555

#END
