
###############################################################################
#
# This file contains modified crystal structure data generated from the
# MOF subset of the Cambridge Structural Database (CSD) v543 
# hosted by the Cambridge Crystallographic Data Centre (CCDC).
#
# This work is licensed under the Creative Commons
# Attribution-NonCommercial-ShareAlike 4.0 International License.
# To view a copy of this license, visit
# http://creativecommons.org/licenses/by-nc-sa/4.0/
# or send a letter to
# Creative Commons, PO Box 1866, Mountain View, CA 94042, USA.
#
# CIF created using the CSD Python API on 29 September 2022
# The structure has been converted into the P1 space group
# The structure has a 3D framework
# The original CSD entry LUVWUU is in the rhombohedral crystal system
# The framework has been calculated to contain at least 10.0% void space
# The void calculation uses a probe of radius 1.32A, grid spacing 0.4
# The framework is charged, counterions have been retained in the structure
#
###############################################################################

data_LUVWUU
_chemical_formula_moiety         '(C270 H270 Ag15 F126 N107 O18 Sb28 13-)n'
_symmetry_cell_setting           triclinic
_symmetry_space_group_name_H-M   'P 1'
_symmetry_Int_Tables_number      1
_space_group_name_Hall           'P 1'
loop_
_symmetry_equiv_pos_site_id
_symmetry_equiv_pos_as_xyz
1 x,y,z
_cell_length_a                   31.3014(18)
_cell_length_b                   31.3014(18)
_cell_length_c                   12.7921(11)
_cell_angle_alpha                90
_cell_angle_beta                 90
_cell_angle_gamma                120.00
_cell_volume                     10854.3
loop_
_atom_site_label
_atom_site_type_symbol
_atom_site_fract_x
_atom_site_fract_y
_atom_site_fract_z
H78 H 0.5005 0.1066 0.0359
C19 C 0.22002(19) 0.01153(17) 0.2887(4)
C20 C 0.21070(17) 0.04465(15) 0.3624(4)
N7 N 0.22466(14) 0.04106(13) 0.4687(3)
C21 C 0.25576(18) 0.02523(18) 0.5017(4)
C22 C 0.2604(2) 0.03176(19) 0.6063(5)
C23 C 0.2308(2) 0.05219(19) 0.6334(4)
H18 H 0.2267 0.0606 0.7026
N8 N 0.20941(17) 0.05815(15) 0.5501(4)
H19 H 0.2796 0.0242 0.6520
H20 H 0.2713 0.0121 0.4591
N9 N 0.23923(15) 0.09535(14) 0.3220(3)
C24 C 0.2628(3) 0.1105(2) 0.2301(5)
H21 H 0.2669 0.0905 0.1797
C25 C 0.2799(3) 0.1600(2) 0.2225(6)
H22 H 0.2978 0.1812 0.1661
C26 C 0.2656(2) 0.17249(19) 0.3150(5)
H23 H 0.2730 0.2050 0.3324
N10 N 0.24057(17) 0.13374(14) 0.3755(4)
N11 N 0.15868(15) 0.03149(14) 0.3614(3)
C27 C 0.1379(2) 0.0530(2) 0.3052(5)
C28 C 0.0881(2) 0.0255(2) 0.3181(6)
H25 H 0.0635 0.0310 0.2881
H26 H 0.1549 0.0820 0.2641
H27 H 0.2559 0.0247 0.2819
H28 H 0.2067 0.0116 0.2185
Ag2 Ag 0.200648(19) 0.128349(17) 0.52575(4)
C61 C 0.16606(23) 0.21070(17) 0.6376(4)
C62 C 0.1524(4) 0.2628(3) 0.7699(5)
H61 H 0.1765 0.2669 0.8203
C63 C 0.1200(4) 0.2799(3) 0.7775(6)
H62 H 0.1167 0.2978 0.8339
C64 C 0.09315(28) 0.2656(2) 0.6850(5)
H63 H 0.0681 0.2730 0.6676
C65 C 0.17865(28) 0.2308(2) 0.3666(4)
H64 H 0.1662 0.2267 0.2974
C66 C 0.22868(28) 0.2604(2) 0.3937(5)
H65 H 0.2555 0.2796 0.3480
C67 C 0.23054(25) 0.25576(18) 0.4983(4)
H66 H 0.2593 0.2713 0.5409
C68 C 0.0942(3) 0.0811(2) 0.6147(6)
H67 H 0.0879 0.0498 0.5902
C69 C 0.0627(3) 0.0881(2) 0.6819(6)
H68 H 0.0326 0.0635 0.7119
C70 C 0.0850(3) 0.1379(2) 0.6948(5)
H69 H 0.0730 0.1549 0.7359
C71 C 0.20850(25) 0.22002(19) 0.7113(4)
H70 H 0.2313 0.2559 0.7181
H71 H 0.1952 0.2067 0.7815
C72 C 0.27314(26) 0.2059(2) 0.7463(4)
H72 H 0.2584 0.1899 0.8140
H73 H 0.2944 0.2417 0.7585
C73 C 0.30339(24) 0.18486(17) 0.7026(4)
C74 C 0.31985(25) 0.16172(19) 0.7723(4)
H74 H 0.3111 0.1586 0.8441
C75 C 0.31709(25) 0.19021(18) 0.5989(4)
H75 H 0.3064 0.2066 0.5525
N25 N 0.15127(23) 0.20941(17) 0.4499(4)
N26 N 0.18361(19) 0.22466(14) 0.5313(3)
N27 N 0.14389(21) 0.23923(15) 0.6780(3)
N28 N 0.10684(22) 0.24057(17) 0.6245(4)
N29 N 0.13361(23) 0.12378(16) 0.5896(4)
N30 N 0.12720(21) 0.15868(15) 0.6386(3)
O5 O 0.23434(17) 0.19733(13) 0.6728(3)
C76 C 0.34958(25) 0.14312(18) 0.7344(4)
C77 C 0.36328(24) 0.14847(17) 0.6307(4)
C78 C 0.39353(26) 0.1274(2) 0.5870(4)
H76 H 0.4083 0.1434 0.5193
H77 H 0.3723 0.0916 0.5748
O6 O 0.43233(17) 0.13600(13) 0.6605(3)
C79 C 0.45817(25) 0.11331(19) 0.6220(4)
C80 C 0.50061(23) 0.12263(17) 0.6957(4)
N31 N 0.48306(19) 0.10867(14) 0.8020(3)
C81 C 0.43613(25) 0.07757(18) 0.8350(4)
C82 C 0.43799(28) 0.0729(2) 0.9396(5)
C83 C 0.48802(28) 0.1025(2) 0.9667(4)
N32 N 0.51540(23) 0.12392(17) 0.8834(4)
H79 H 0.4112 0.0537 0.9853
H80 H 0.4074 0.0620 0.7924
N33 N 0.52278(21) 0.09410(15) 0.6553(3)
C84 C 0.5143(4) 0.0705(3) 0.5634(5)
H81 H 0.4902 0.0664 0.5130
C85 C 0.5467(4) 0.0534(3) 0.5558(6)
H82 H 0.5500 0.0355 0.4994
C86 C 0.57352(28) 0.0677(2) 0.6483(5)
H83 H 0.5986 0.0603 0.6657
N34 N 0.55983(22) 0.09276(17) 0.7088(4)
N35 N 0.53947(21) 0.17465(15) 0.6947(3)
C87 C 0.5817(3) 0.1954(2) 0.6385(5)
C88 C 0.6040(3) 0.2452(2) 0.6514(6)
C89 C 0.5725(3) 0.2522(2) 0.7186(6)
H84 H 0.5788 0.2835 0.7431
N36 N 0.53306(23) 0.20955(16) 0.7437(4)
H85 H 0.6341 0.2698 0.6214
H86 H 0.5937 0.1784 0.5974
H87 H 0.4354 0.0774 0.6152
H88 H 0.4715 0.1266 0.5518
C90 C 0.34682(25) 0.17161(19) 0.5610(4)
H89 H 0.3556 0.1747 0.4892
H90 H 0.3603 0.1267 0.7808
Ag8 Ag 0.072300(25) 0.200648(19) 0.47425(4)
Ag9 Ag 0.466018(19) 0.204985(17) 0.80759(4)
Ag10 Ag 0.594367(25) 0.132685(19) 0.85908(4)
Ag1 Ag 0.132685(19) 0.538318(17) 0.14092(4)
C1 C 0.12263(17) 0.62202(15) 0.3043(4)
C2 C 0.0705(3) 0.5562(2) 0.4366(5)
H1 H 0.0664 0.5762 0.4870
C3 C 0.0534(3) 0.5067(2) 0.4442(6)
H2 H 0.0355 0.4855 0.5006
C4 C 0.0677(2) 0.49418(19) 0.3517(5)
H3 H 0.0603 0.4617 0.3343
C5 C 0.1025(2) 0.61448(19) 0.0333(4)
C6 C 0.0729(2) 0.63491(19) 0.0604(5)
H5 H 0.0537 0.6425 0.0147
C7 C 0.07757(18) 0.64144(18) 0.1650(4)
H6 H 0.0620 0.6546 0.2076
C8 C 0.2522(2) 0.6797(2) 0.2814(6)
H7 H 0.2835 0.7047 0.2569
C9 C 0.2452(2) 0.6412(2) 0.3486(6)
H8 H 0.2698 0.6357 0.3786
C10 C 0.1954(2) 0.6137(2) 0.3615(5)
H9 H 0.1784 0.5847 0.4026
C11 C 0.11331(19) 0.65514(17) 0.3780(4)
H10 H 0.0774 0.6420 0.3848
H11 H 0.1266 0.6551 0.4482
C12 C 0.1274(2) 0.73387(17) 0.4130(4)
H12 H 0.1434 0.7351 0.4807
H13 H 0.0916 0.7193 0.4252
C13 C 0.14847(17) 0.78519(17) 0.3693(4)
C14 C 0.17161(19) 0.82479(17) 0.4390(4)
H14 H 0.1747 0.8191 0.5108
C15 C 0.14312(18) 0.79354(17) 0.2656(4)
H15 H 0.1267 0.7664 0.2192
N1 N 0.12392(17) 0.60852(15) 0.1166(4)
N2 N 0.10867(14) 0.62561(13) 0.1980(3)
N3 N 0.09410(15) 0.57132(14) 0.3447(3)
N4 N 0.09276(17) 0.53293(14) 0.2912(4)
N5 N 0.20955(16) 0.67649(16) 0.2563(4)
N6 N 0.17465(15) 0.63518(14) 0.3053(3)
O1 O 0.13600(13) 0.70367(11) 0.3395(3)
C16 C 0.19021(18) 0.87313(17) 0.4011(4)
C17 C 0.18486(17) 0.88148(17) 0.2974(4)
C18 C 0.2059(2) 0.93280(17) 0.2537(4)
H16 H 0.1899 0.9316 0.1860
H17 H 0.2417 0.9474 0.2415
O2 O 0.19733(13) 0.96300(11) 0.3272(3)
C29 C 0.0811(2) 0.9870(2) 0.3853(6)
H24 H 0.0498 0.9620 0.4098
N12 N 0.12378(16) 0.99018(16) 0.4104(4)
C30 C 0.16172(19) 0.84188(17) 0.2277(4)
H29 H 0.1586 0.8476 0.1559
H30 H 0.2066 0.9003 0.4475
C31 C 0.16728(23) 0.45596(17) 0.0290(4)
C35 C 0.15469(28) 0.4358(2) 0.3000(4)
H34 H 0.1672 0.4399 0.3692
C36 C 0.10466(28) 0.4062(2) 0.2729(5)
H35 H 0.0779 0.3870 0.3186
C37 C 0.10280(25) 0.41090(18) 0.1683(4)
H36 H 0.0741 0.3953 0.1257
C38 C 0.2392(3) 0.5855(2) 0.0519(6)
H37 H 0.2455 0.6168 0.0764
C45 C 0.01625(25) 0.47645(18) 0.0677(4)
H45 H 0.0270 0.4600 0.1141
N13 N 0.18207(23) 0.45725(17) 0.2167(4)
N14 N 0.14973(19) 0.44200(14) 0.1353(3)
N16 N 0.22650(22) 0.42609(17) 0.0421(4)
N17 N 0.19973(23) 0.54288(16) 0.0770(4)
N18 N 0.20614(21) 0.50798(15) 0.0280(3)
Ag3 Ag 0.261034(25) 0.466018(19) 0.19241(4)
Ag5 Ag 0.204985(17) 0.738966(25) 0.19241(4)
Ag6 Ag 0.128349(17) 0.927700(25) 0.47425(4)
N37 N 0.32351(16) 0.53306(23) 0.2563(4)
O7 O 0.29633(11) 0.43233(17) 0.3395(3)
N39 N 0.27519(15) 0.81793(23) 0.2167(4)
N40 N 0.19960(14) 0.77350(22) 0.0421(4)
N41 N 0.05815(15) 0.84873(23) 0.4499(4)
N42 N 0.13374(14) 0.89316(22) 0.6245(4)
H4 H 0.1066 0.6061 0.9641
C32 C 0.1810(4) 0.4038(3) 0.8967(5)
H31 H 0.1569 0.3997 0.8463
C33 C 0.2134(4) 0.3867(3) 0.8891(6)
H32 H 0.2167 0.3688 0.8327
C34 C 0.24019(28) 0.4010(2) 0.9816(5)
H33 H 0.2653 0.3936 0.9990
C39 C 0.2707(3) 0.5785(2) 0.9847(6)
H38 H 0.3008 0.6031 0.9547
C40 C 0.2484(3) 0.5287(2) 0.9718(5)
H39 H 0.2604 0.5117 0.9307
C41 C 0.12484(25) 0.44664(19) 0.9553(4)
H40 H 0.1021 0.4107 0.9485
H41 H 0.1382 0.4599 0.8851
C42 C 0.06020(26) 0.4607(2) 0.9203(4)
H42 H 0.0750 0.4767 0.8526
H43 H 0.0390 0.4249 0.9081
C43 C 0.02995(24) 0.48180(17) 0.9640(4)
C44 C 0.01349(25) 0.50494(19) 0.8943(4)
H44 H 0.0223 0.5080 0.8225
N15 N 0.18945(21) 0.42743(15) 0.9886(3)
O3 O 0.09900(17) 0.46933(13) 0.9938(3)
C47 C 0.97005(24) 0.51820(17) 0.0360(4)
C48 C 0.93980(26) 0.5393(2) 0.0797(4)
H46 H 0.9250 0.5233 0.1474
H47 H 0.9610 0.5751 0.0919
O4 O 0.90100(17) 0.53067(13) 0.0062(3)
C49 C 0.87516(25) 0.55336(19) 0.0447(4)
N21 N 0.81055(21) 0.57257(15) 0.0114(3)
C54 C 0.8190(4) 0.5962(3) 0.1033(5)
H51 H 0.8431 0.6003 0.1537
C55 C 0.7866(4) 0.6133(3) 0.1109(6)
H52 H 0.7833 0.6312 0.1673
C56 C 0.75981(28) 0.5990(2) 0.0184(5)
H53 H 0.7347 0.6064 0.0010
C57 C 0.7516(3) 0.4713(2) 0.0282(5)
C58 C 0.7293(3) 0.4215(2) 0.0153(6)
H55 H 0.6992 0.3969 0.0453
H56 H 0.7396 0.4883 0.0693
H57 H 0.8979 0.5893 0.0515
H58 H 0.8618 0.5401 0.1149
C60 C 0.98651(25) 0.49506(19) 0.1057(4)
H59 H 0.9777 0.4920 0.1775
C46 C 0.98375(25) 0.52355(18) 0.9323(4)
C50 C 0.83272(23) 0.54404(17) 0.9710(4)
N19 N 0.85027(19) 0.55800(14) 0.8647(3)
C51 C 0.89720(25) 0.58910(18) 0.8317(4)
C52 C 0.89534(28) 0.5938(2) 0.7271(5)
C53 C 0.84531(28) 0.5642(2) 0.7000(4)
H48 H 0.8328 0.5601 0.6308
N20 N 0.81793(23) 0.54275(17) 0.7833(4)
H49 H 0.9221 0.6130 0.6814
H50 H 0.9259 0.6047 0.8743
N22 N 0.77350(22) 0.57391(17) 0.9579(4)
N23 N 0.79386(21) 0.49202(15) 0.9720(3)
C59 C 0.7608(3) 0.4145(2) 0.9481(6)
H54 H 0.7545 0.3832 0.9236
N24 N 0.80027(23) 0.45712(16) 0.9230(4)
H60 H 0.9730 0.5400 0.8859
Ag4 Ag 0.738966(25) 0.533982(19) 0.80759(4)
Ag7 Ag 0.867315(19) 0.461682(17) 0.85908(4)
N38 N 0.67649(16) 0.46694(23) 0.7437(4)
O8 O 0.70367(11) 0.56767(17) 0.6605(3)
Ag1_2 Ag 0.461682(17) 0.594367(25) 0.14092(4)
C1_2 C 0.37798(15) 0.50061(23) 0.3043(4)
C2_2 C 0.4438(2) 0.5143(4) 0.4366(5)
H1_2 H 0.4238 0.4902 0.4870
C3_2 C 0.4933(2) 0.5467(4) 0.4442(6)
H2_2 H 0.5145 0.5500 0.5006
C4_2 C 0.50582(19) 0.57352(28) 0.3517(5)
H3_2 H 0.5383 0.5986 0.3343
C5_2 C 0.38552(19) 0.48802(28) 0.0333(4)
C6_2 C 0.36509(19) 0.43799(28) 0.0604(5)
H5_2 H 0.3575 0.4112 0.0147
C7_2 C 0.35856(18) 0.43613(25) 0.1650(4)
H6_2 H 0.3454 0.4074 0.2076
C8_2 C 0.3203(2) 0.5725(3) 0.2814(6)
H7_2 H 0.2953 0.5788 0.2569
C9_2 C 0.3588(2) 0.6040(3) 0.3486(6)
H8_2 H 0.3643 0.6341 0.3786
C10_2 C 0.3863(2) 0.5817(3) 0.3615(5)
H9_2 H 0.4153 0.5937 0.4026
C11_2 C 0.34486(17) 0.45817(25) 0.3780(4)
H10_2 H 0.3580 0.4354 0.3848
H11_2 H 0.3449 0.4715 0.4482
C12_2 C 0.26613(17) 0.39353(26) 0.4130(4)
H12_2 H 0.2649 0.4083 0.4807
H13_2 H 0.2807 0.3723 0.4252
C13_2 C 0.21481(17) 0.36328(24) 0.3693(4)
C14_2 C 0.17521(17) 0.34682(25) 0.4390(4)
H14_2 H 0.1809 0.3556 0.5108
C15_2 C 0.20646(17) 0.34958(25) 0.2656(4)
H15_2 H 0.2336 0.3603 0.2192
N1_2 N 0.39148(15) 0.51540(23) 0.1166(4)
N2_2 N 0.37439(13) 0.48306(19) 0.1980(3)
N3_2 N 0.42868(14) 0.52278(21) 0.3447(3)
N4_2 N 0.46707(14) 0.55983(22) 0.2912(4)
N6_2 N 0.36482(14) 0.53947(21) 0.3053(3)
C16_2 C 0.12687(17) 0.31709(25) 0.4011(4)
C17_2 C 0.11852(17) 0.30339(24) 0.2974(4)
C18_2 C 0.06720(17) 0.27314(26) 0.2537(4)
H16_2 H 0.0684 0.2584 0.1860
H17_2 H 0.0526 0.2944 0.2415
O2_2 O 0.03700(11) 0.23434(17) 0.3272(3)
C29_2 C 0.0130(2) 0.0942(3) 0.3853(6)
H24_2 H 0.0380 0.0879 0.4098
N12_2 N 0.00982(16) 0.13361(23) 0.4104(4)
C30_2 C 0.15812(17) 0.31985(25) 0.2277(4)
H29_2 H 0.1524 0.3111 0.1559
H30_2 H 0.0997 0.3064 0.4475
C31_2 C 0.54404(17) 0.71131(29) 0.0290(4)
C35_2 C 0.5642(2) 0.71885(34) 0.3000(4)
H34_2 H 0.5601 0.7272 0.3692
C36_2 C 0.5938(2) 0.69842(34) 0.2729(5)
H35_2 H 0.6130 0.6908 0.3186
C37_2 C 0.58910(18) 0.69189(31) 0.1683(4)
H36_2 H 0.6047 0.6787 0.1257
C38_2 C 0.4145(2) 0.6536(4) 0.0519(6)
H37_2 H 0.3832 0.6286 0.0764
C45_2 C 0.52355(18) 0.53979(31) 0.0677(4)
H45_2 H 0.5400 0.5669 0.1141
N13_2 N 0.54275(17) 0.72481(29) 0.2167(4)
N14_2 N 0.55800(14) 0.70772(24) 0.1353(3)
N16_2 N 0.57391(17) 0.80040(28) 0.0421(4)
N17_2 N 0.45712(16) 0.65684(28) 0.0770(4)
N18_2 N 0.49202(15) 0.69815(26) 0.0280(3)
C47_2 C 0.48180(17) 0.45186(29) 0.0360(4)
C48_2 C 0.4607(2) 0.40054(33) 0.0797(4)
H46_2 H 0.4767 0.4018 0.1474
H47_2 H 0.4249 0.3860 0.0919
O4_2 O 0.46933(13) 0.37034(21) 0.0062(3)
C49_2 C 0.44664(19) 0.32181(31) 0.0447(4)
N21_2 N 0.42743(15) 0.23799(26) 0.0114(3)
C54_2 C 0.4038(3) 0.2229(5) 0.1033(5)
H51_2 H 0.3997 0.2429 0.1537
C55_2 C 0.3867(3) 0.1734(5) 0.1109(6)
H52_2 H 0.3688 0.1522 0.1673
C56_2 C 0.4010(2) 0.16085(34) 0.0184(5)
H53_2 H 0.3936 0.1284 0.0010
C57_2 C 0.5287(2) 0.2804(4) 0.0282(5)
C58_2 C 0.5785(2) 0.3079(4) 0.0153(6)
H55_2 H 0.6031 0.3024 0.0453
H56_2 H 0.5117 0.2514 0.0693
H57_2 H 0.4107 0.3087 0.0515
H58_2 H 0.4599 0.3218 0.1149
C60_2 C 0.50494(19) 0.49146(31) 0.1057(4)
H59_2 H 0.5080 0.4858 0.1775
Ag3_2 Ag 0.533982(19) 0.795015(31) 0.19241(4)
N37_2 N 0.46694(23) 0.79045(28) 0.2563(4)
O7_2 O 0.56767(17) 0.86400(20) 0.3395(3)
H4_2 H 0.3939 0.5005 0.9641
C32_2 C 0.5962(3) 0.7771(5) 0.8967(5)
H31_2 H 0.6003 0.7571 0.8463
C33_2 C 0.6133(3) 0.8266(5) 0.8891(6)
H32_2 H 0.6312 0.8478 0.8327
C34_2 C 0.5990(2) 0.83915(34) 0.9816(5)
H33_2 H 0.6064 0.8716 0.9990
C39_2 C 0.4215(2) 0.6921(4) 0.9847(6)
H38_2 H 0.3969 0.6976 0.9547
C40_2 C 0.4713(2) 0.7196(4) 0.9718(5)
H39_2 H 0.4883 0.7486 0.9307
C41_2 C 0.55336(19) 0.67819(31) 0.9553(4)
H40_2 H 0.5893 0.6913 0.9485
H41_2 H 0.5401 0.6782 0.8851
C42_2 C 0.5393(2) 0.59946(33) 0.9203(4)
H42_2 H 0.5233 0.5982 0.8526
H43_2 H 0.5751 0.6140 0.9081
C43_2 C 0.51820(17) 0.54814(29) 0.9640(4)
C44_2 C 0.49506(19) 0.50854(31) 0.8943(4)
H44_2 H 0.4920 0.5142 0.8225
N15_2 N 0.57257(15) 0.76201(26) 0.9886(3)
O3_2 O 0.53067(13) 0.62966(21) 0.9938(3)
C46_2 C 0.47645(18) 0.46021(31) 0.9323(4)
C50_2 C 0.45596(17) 0.28869(29) 0.9710(4)
N19_2 N 0.44200(14) 0.29228(24) 0.8647(3)
C51_2 C 0.41090(18) 0.30811(31) 0.8317(4)
C52_2 C 0.4062(2) 0.30158(34) 0.7271(5)
C53_2 C 0.4358(2) 0.28115(34) 0.7000(4)
H48_2 H 0.4399 0.2728 0.6308
N20_2 N 0.45725(17) 0.27519(29) 0.7833(4)
H49_2 H 0.3870 0.3092 0.6814
H50_2 H 0.3953 0.3213 0.8743
N22_2 N 0.42609(17) 0.19960(28) 0.9579(4)
N23_2 N 0.50798(15) 0.30185(26) 0.9720(3)
C59_2 C 0.5855(2) 0.3464(4) 0.9481(6)
H54_2 H 0.6168 0.3714 0.9236
N24_2 N 0.54288(16) 0.34316(28) 0.9230(4)
H60_2 H 0.4600 0.4331 0.8859
Ag7_2 Ag 0.538318(17) 0.405633(25) 0.85908(4)
H78_2 H 0.8934 0.3939 0.0359
C19_2 C 0.98847(17) 0.20850(25) 0.2887(4)
C20_2 C 0.95535(15) 0.16606(23) 0.3624(4)
N7_2 N 0.95894(13) 0.18361(19) 0.4687(3)
C21_2 C 0.97477(18) 0.23054(25) 0.5017(4)
C22_2 C 0.96824(19) 0.22868(28) 0.6063(5)
C23_2 C 0.94781(19) 0.17865(28) 0.6334(4)
H18_2 H 0.9394 0.1662 0.7026
N8_2 N 0.94185(15) 0.15127(23) 0.5501(4)
H19_2 H 0.9758 0.2555 0.6520
H20_2 H 0.9879 0.2593 0.4591
N9_2 N 0.90465(14) 0.14389(21) 0.3220(3)
C24_2 C 0.8895(2) 0.1524(4) 0.2301(5)
H21_2 H 0.9095 0.1765 0.1797
C25_2 C 0.8400(2) 0.1200(4) 0.2225(6)
H22_2 H 0.8188 0.1167 0.1661
C26_2 C 0.82751(19) 0.09315(28) 0.3150(5)
H23_2 H 0.7950 0.0681 0.3324
N10_2 N 0.86626(14) 0.10684(22) 0.3755(4)
N11_2 N 0.96851(14) 0.12720(21) 0.3614(3)
C27_2 C 0.9470(2) 0.0850(3) 0.3052(5)
C28_2 C 0.9745(2) 0.0627(3) 0.3181(6)
H25_2 H 0.9690 0.0326 0.2881
H26_2 H 0.9180 0.0730 0.2641
H27_2 H 0.9753 0.2313 0.2819
H28_2 H 0.9884 0.1952 0.2185
Ag2_2 Ag 0.871651(17) 0.072300(25) 0.52575(4)
C68_2 C 0.9189(2) 0.0130(4) 0.6147(6)
H67_2 H 0.9502 0.0380 0.5902
C72_2 C 0.7941(2) 0.06720(33) 0.7463(4)
H72_2 H 0.8101 0.0684 0.8140
H73_2 H 0.7583 0.0526 0.7585
C73_2 C 0.81514(17) 0.11852(29) 0.7026(4)
C74_2 C 0.83828(19) 0.15812(31) 0.7723(4)
H74_2 H 0.8414 0.1524 0.8441
C75_2 C 0.80979(18) 0.12687(31) 0.5989(4)
H75_2 H 0.7934 0.0997 0.5525
N29_2 N 0.87622(16) 0.00982(28) 0.5896(4)
O5_2 O 0.80267(13) 0.03700(21) 0.6728(3)
C76_2 C 0.85688(18) 0.20646(31) 0.7344(4)
C77_2 C 0.85153(17) 0.21481(29) 0.6307(4)
C78_2 C 0.8726(2) 0.26613(33) 0.5870(4)
H76_2 H 0.8566 0.2649 0.5193
H77_2 H 0.9084 0.2807 0.5748
O6_2 O 0.86400(13) 0.29633(21) 0.6605(3)
C79_2 C 0.88669(19) 0.34486(31) 0.6220(4)
C80_2 C 0.87737(17) 0.37798(29) 0.6957(4)
N31_2 N 0.89133(14) 0.37439(24) 0.8020(3)
C81_2 C 0.92243(18) 0.35856(31) 0.8350(4)
C82_2 C 0.9271(2) 0.36509(34) 0.9396(5)
C83_2 C 0.8975(2) 0.38552(34) 0.9667(4)
N32_2 N 0.87608(17) 0.39148(29) 0.8834(4)
H79_2 H 0.9463 0.3575 0.9853
H80_2 H 0.9380 0.3454 0.7924
N33_2 N 0.90590(15) 0.42868(26) 0.6553(3)
C84_2 C 0.9295(3) 0.4438(5) 0.5634(5)
H81_2 H 0.9336 0.4238 0.5130
C85_2 C 0.9466(3) 0.4933(5) 0.5558(6)
H82_2 H 0.9645 0.5145 0.4994
C86_2 C 0.9323(2) 0.50582(34) 0.6483(5)
H83_2 H 0.9397 0.5383 0.6657
N34_2 N 0.90724(17) 0.46707(28) 0.7088(4)
N35_2 N 0.82535(15) 0.36482(26) 0.6947(3)
C87_2 C 0.8046(2) 0.3863(4) 0.6385(5)
C88_2 C 0.7548(2) 0.3588(4) 0.6514(6)
C89_2 C 0.7478(2) 0.3203(4) 0.7186(6)
H84_2 H 0.7165 0.2953 0.7431
N36_2 N 0.79045(16) 0.32351(28) 0.7437(4)
H85_2 H 0.7302 0.3643 0.6214
H86_2 H 0.8216 0.4153 0.5974
H87_2 H 0.9226 0.3580 0.6152
H88_2 H 0.8734 0.3449 0.5518
C90_2 C 0.82839(19) 0.17521(31) 0.5610(4)
H89_2 H 0.8253 0.1809 0.4892
H90_2 H 0.8733 0.2336 0.7808
Ag9_2 Ag 0.795015(17) 0.261034(25) 0.80759(4)
C61_2 C 0.78930(17) 0.95535(29) 0.6376(4)
C62_2 C 0.7372(3) 0.8895(5) 0.7699(5)
H61_2 H 0.7331 0.9095 0.8203
C63_2 C 0.7201(3) 0.8400(5) 0.7775(6)
H62_2 H 0.7022 0.8188 0.8339
C64_2 C 0.7344(2) 0.82751(34) 0.6850(5)
H63_2 H 0.7270 0.7950 0.6676
C65_2 C 0.7692(2) 0.94781(34) 0.3666(4)
H64_2 H 0.7733 0.9394 0.2974
C66_2 C 0.7396(2) 0.96824(34) 0.3937(5)
H65_2 H 0.7204 0.9758 0.3480
C67_2 C 0.74424(18) 0.97477(31) 0.4983(4)
H66_2 H 0.7287 0.9879 0.5409
C69_2 C 0.9119(2) 0.9745(4) 0.6819(6)
H68_2 H 0.9365 0.9690 0.7119
C70_2 C 0.8621(2) 0.9470(4) 0.6948(5)
H69_2 H 0.8451 0.9180 0.7359
C71_2 C 0.77998(19) 0.98847(31) 0.7113(4)
H70_2 H 0.7441 0.9753 0.7181
H71_2 H 0.7933 0.9884 0.7815
N25_2 N 0.79059(17) 0.94185(29) 0.4499(4)
N26_2 N 0.77534(14) 0.95894(24) 0.5313(3)
N27_2 N 0.76077(15) 0.90465(26) 0.6780(3)
N28_2 N 0.75943(17) 0.86626(28) 0.6245(4)
N30_2 N 0.84132(15) 0.96851(26) 0.6386(3)
Ag8_2 Ag 0.799352(19) 0.871651(31) 0.47425(4)
C61_3 C 0.04465(29) 0.83394(23) 0.6376(4)
C62_3 C 0.1105(5) 0.8476(4) 0.7699(5)
H61_3 H 0.0905 0.8235 0.8203
C63_3 C 0.1600(5) 0.8800(4) 0.7775(6)
H62_3 H 0.1812 0.8833 0.8339
C64_3 C 0.17249(34) 0.90685(28) 0.6850(5)
H63_3 H 0.2050 0.9319 0.6676
C65_3 C 0.05219(34) 0.82135(28) 0.3666(4)
H64_3 H 0.0606 0.8338 0.2974
C66_3 C 0.03176(34) 0.77132(28) 0.3937(5)
H65_3 H 0.0242 0.7445 0.3480
C67_3 C 0.02523(31) 0.76946(25) 0.4983(4)
H66_3 H 0.0121 0.7407 0.5409
C69_3 C 0.0255(4) 0.9373(3) 0.6819(6)
H68_3 H 0.0310 0.9674 0.7119
C70_3 C 0.0530(4) 0.9150(3) 0.6948(5)
H69_3 H 0.0820 0.9270 0.7359
C71_3 C 0.01153(31) 0.79150(25) 0.7113(4)
H70_3 H 0.0247 0.7687 0.7181
H71_3 H 0.0116 0.8048 0.7815
N26_3 N 0.04106(24) 0.81639(19) 0.5313(3)
N27_3 N 0.09535(26) 0.85611(21) 0.6780(3)
N30_3 N 0.03149(26) 0.87280(21) 0.6386(3)
C47_3 C 0.54814(29) 0.02995(24) 0.0360(4)
C48_3 C 0.59946(33) 0.06020(26) 0.0797(4)
H46_3 H 0.5982 0.0750 0.1474
H47_3 H 0.6140 0.0390 0.0919
O4_3 O 0.62966(21) 0.09900(17) 0.0062(3)
C49_3 C 0.67819(31) 0.12484(25) 0.0447(4)
N21_3 N 0.76201(26) 0.18945(21) 0.0114(3)
C54_3 C 0.7771(5) 0.1810(4) 0.1033(5)
H51_3 H 0.7571 0.1569 0.1537
C55_3 C 0.8266(5) 0.2134(4) 0.1109(6)
H52_3 H 0.8478 0.2167 0.1673
C56_3 C 0.83915(34) 0.24019(28) 0.0184(5)
H53_3 H 0.8716 0.2653 0.0010
C57_3 C 0.7196(4) 0.2484(3) 0.0282(5)
C58_3 C 0.6921(4) 0.2707(3) 0.0153(6)
H55_3 H 0.6976 0.3008 0.0453
H56_3 H 0.7486 0.2604 0.0693
H57_3 H 0.6913 0.1021 0.0515
H58_3 H 0.6782 0.1382 0.1149
C60_3 C 0.50854(31) 0.01349(25) 0.1057(4)
H59_3 H 0.5142 0.0223 0.1775
C46_3 C 0.53979(31) 0.01625(25) 0.9323(4)
C50_3 C 0.71131(29) 0.16728(23) 0.9710(4)
N19_3 N 0.70772(24) 0.14973(19) 0.8647(3)
C51_3 C 0.69189(31) 0.10280(25) 0.8317(4)
C52_3 C 0.69842(34) 0.10466(28) 0.7271(5)
C53_3 C 0.71885(34) 0.15469(28) 0.7000(4)
H48_3 H 0.7272 0.1672 0.6308
N20_3 N 0.72481(29) 0.18207(23) 0.7833(4)
H49_3 H 0.6908 0.0779 0.6814
H50_3 H 0.6787 0.0741 0.8743
N22_3 N 0.80040(28) 0.22650(22) 0.9579(4)
N23_3 N 0.69815(26) 0.20614(21) 0.9720(3)
C59_3 C 0.6536(4) 0.2392(3) 0.9481(6)
H54_3 H 0.6286 0.2455 0.9236
N24_3 N 0.65684(28) 0.19973(23) 0.9230(4)
H60_3 H 0.5669 0.0270 0.8859
H78_3 H 0.6061 0.4995 0.0359
Ag1_3 Ag 0.405633(25) 0.867315(19) 0.14092(4)
C1_3 C 0.49939(23) 0.87737(17) 0.3043(4)
C2_3 C 0.4857(4) 0.9295(3) 0.4366(5)
H1_3 H 0.5098 0.9336 0.4870
C3_3 C 0.4533(4) 0.9466(3) 0.4442(6)
H2_3 H 0.4500 0.9645 0.5006
C4_3 C 0.42648(28) 0.9323(2) 0.3517(5)
H3_3 H 0.4014 0.9397 0.3343
C5_3 C 0.51198(28) 0.8975(2) 0.0333(4)
C6_3 C 0.56201(28) 0.9271(2) 0.0604(5)
H5_3 H 0.5888 0.9463 0.0147
C7_3 C 0.56387(25) 0.92243(18) 0.1650(4)
H6_3 H 0.5926 0.9380 0.2076
C8_3 C 0.4275(3) 0.7478(2) 0.2814(6)
H7_3 H 0.4212 0.7165 0.2569
C9_3 C 0.3960(3) 0.7548(2) 0.3486(6)
H8_3 H 0.3659 0.7302 0.3786
C10_3 C 0.4183(3) 0.8046(2) 0.3615(5)
H9_3 H 0.4063 0.8216 0.4026
C11_3 C 0.54183(25) 0.88669(19) 0.3780(4)
H10_3 H 0.5646 0.9226 0.3848
H11_3 H 0.5285 0.8734 0.4482
C12_3 C 0.60647(26) 0.8726(2) 0.4130(4)
H12_3 H 0.5917 0.8566 0.4807
H13_3 H 0.6277 0.9084 0.4252
C13_3 C 0.63672(24) 0.85153(17) 0.3693(4)
C14_3 C 0.65318(25) 0.82839(19) 0.4390(4)
H14_3 H 0.6444 0.8253 0.5108
C15_3 C 0.65042(25) 0.85688(18) 0.2656(4)
H15_3 H 0.6397 0.8733 0.2192
N1_3 N 0.48460(23) 0.87608(17) 0.1166(4)
N2_3 N 0.51694(19) 0.89133(14) 0.1980(3)
N3_3 N 0.47722(21) 0.90590(15) 0.3447(3)
N4_3 N 0.44017(22) 0.90724(17) 0.2912(4)
N6_3 N 0.46053(21) 0.82535(15) 0.3053(3)
C16_3 C 0.68291(25) 0.80979(18) 0.4011(4)
C17_3 C 0.69661(24) 0.81514(17) 0.2974(4)
C18_3 C 0.72686(26) 0.7941(2) 0.2537(4)
H16_3 H 0.7416 0.8101 0.1860
H17_3 H 0.7056 0.7583 0.2415
O2_3 O 0.76566(17) 0.80267(13) 0.3272(3)
C19_3 C 0.79150(25) 0.77998(19) 0.2887(4)
C20_3 C 0.83394(23) 0.78930(17) 0.3624(4)
N7_3 N 0.81639(19) 0.77534(14) 0.4687(3)
C21_3 C 0.76946(25) 0.74424(18) 0.5017(4)
C22_3 C 0.77132(28) 0.7396(2) 0.6063(5)
C23_3 C 0.82135(28) 0.7692(2) 0.6334(4)
H18_3 H 0.8338 0.7733 0.7026
N8_3 N 0.84873(23) 0.79059(17) 0.5501(4)
H19_3 H 0.7445 0.7204 0.6520
H20_3 H 0.7407 0.7287 0.4591
N9_3 N 0.85611(21) 0.76077(15) 0.3220(3)
C24_3 C 0.8476(4) 0.7372(3) 0.2301(5)
H21_3 H 0.8235 0.7331 0.1797
C25_3 C 0.8800(4) 0.7201(3) 0.2225(6)
H22_3 H 0.8833 0.7022 0.1661
C26_3 C 0.90685(28) 0.7344(2) 0.3150(5)
H23_3 H 0.9319 0.7270 0.3324
N10_3 N 0.89316(22) 0.75943(17) 0.3755(4)
N11_3 N 0.87280(21) 0.84132(15) 0.3614(3)
C27_3 C 0.9150(3) 0.8621(2) 0.3052(5)
C28_3 C 0.9373(3) 0.9119(2) 0.3181(6)
C29_3 C 0.9058(3) 0.9189(2) 0.3853(6)
H24_3 H 0.9121 0.9502 0.4098
N12_3 N 0.86639(23) 0.87622(16) 0.4104(4)
H25_3 H 0.9674 0.9365 0.2881
H26_3 H 0.9270 0.8451 0.2641
H27_3 H 0.7687 0.7441 0.2819
H28_3 H 0.8048 0.7933 0.2185
C30_3 C 0.68015(25) 0.83828(19) 0.2277(4)
H29_3 H 0.6889 0.8414 0.1559
H30_3 H 0.6936 0.7934 0.4475
C31_3 C 0.28869(29) 0.83272(23) 0.0290(4)
C35_3 C 0.28115(34) 0.84531(28) 0.3000(4)
H34_3 H 0.2728 0.8328 0.3692
C36_3 C 0.30158(34) 0.89534(28) 0.2729(5)
H35_3 H 0.3092 0.9221 0.3186
C37_3 C 0.30811(31) 0.89720(25) 0.1683(4)
H36_3 H 0.3213 0.9259 0.1257
C38_3 C 0.3464(4) 0.7608(3) 0.0519(6)
H37_3 H 0.3714 0.7545 0.0764
C45_3 C 0.46021(31) 0.98375(25) 0.0677(4)
H45_3 H 0.4331 0.9730 0.1141
N14_3 N 0.29228(24) 0.85027(19) 0.1353(3)
N17_3 N 0.34316(28) 0.80027(23) 0.0770(4)
N18_3 N 0.30185(26) 0.79386(21) 0.0280(3)
Ag2_3 Ag 0.927700(25) 0.799352(19) 0.52575(4)
C68_3 C 0.9870(4) 0.9058(3) 0.6147(6)
H67_3 H 0.9620 0.9121 0.5902
C72_3 C 0.93280(33) 0.72686(26) 0.7463(4)
H72_3 H 0.9316 0.7416 0.8140
H73_3 H 0.9474 0.7056 0.7585
C73_3 C 0.88148(29) 0.69661(24) 0.7026(4)
C74_3 C 0.84188(31) 0.68015(25) 0.7723(4)
H74_3 H 0.8476 0.6889 0.8441
C75_3 C 0.87313(31) 0.68291(25) 0.5989(4)
H75_3 H 0.9003 0.6936 0.5525
N29_3 N 0.99018(28) 0.86639(23) 0.5896(4)
O5_3 O 0.96300(21) 0.76566(17) 0.6728(3)
C76_3 C 0.79354(31) 0.65042(25) 0.7344(4)
C77_3 C 0.78519(29) 0.63672(24) 0.6307(4)
C78_3 C 0.73387(33) 0.60647(26) 0.5870(4)
H76_3 H 0.7351 0.5917 0.5193
H77_3 H 0.7193 0.6277 0.5748
C79_3 C 0.65514(31) 0.54183(25) 0.6220(4)
C80_3 C 0.62202(29) 0.49939(23) 0.6957(4)
N31_3 N 0.62561(24) 0.51694(19) 0.8020(3)
C81_3 C 0.64144(31) 0.56387(25) 0.8350(4)
C82_3 C 0.63491(34) 0.56201(28) 0.9396(5)
C83_3 C 0.61448(34) 0.51198(28) 0.9667(4)
N32_3 N 0.60852(29) 0.48460(23) 0.8834(4)
H79_3 H 0.6425 0.5888 0.9853
H80_3 H 0.6546 0.5926 0.7924
N33_3 N 0.57132(26) 0.47722(21) 0.6553(3)
C84_3 C 0.5562(5) 0.4857(4) 0.5634(5)
H81_3 H 0.5762 0.5098 0.5130
C85_3 C 0.5067(5) 0.4533(4) 0.5558(6)
H82_3 H 0.4855 0.4500 0.4994
C86_3 C 0.49418(34) 0.42648(28) 0.6483(5)
H83_3 H 0.4617 0.4014 0.6657
N34_3 N 0.53293(28) 0.44017(22) 0.7088(4)
N35_3 N 0.63518(26) 0.46053(21) 0.6947(3)
C87_3 C 0.6137(4) 0.4183(3) 0.6385(5)
C88_3 C 0.6412(4) 0.3960(3) 0.6514(6)
C89_3 C 0.6797(4) 0.4275(3) 0.7186(6)
H84_3 H 0.7047 0.4212 0.7431
H85_3 H 0.6357 0.3659 0.6214
H86_3 H 0.5847 0.4063 0.5974
H87_3 H 0.6420 0.5646 0.6152
H88_3 H 0.6551 0.5285 0.5518
C90_3 C 0.82479(31) 0.65318(25) 0.5610(4)
H89_3 H 0.8191 0.6444 0.4892
H90_3 H 0.7664 0.6397 0.7808
H4_3 H 0.4995 0.8934 0.9641
C32_3 C 0.2229(5) 0.8190(4) 0.8967(5)
H31_3 H 0.2429 0.8431 0.8463
C33_3 C 0.1734(5) 0.7866(4) 0.8891(6)
H32_3 H 0.1522 0.7833 0.8327
C34_3 C 0.16085(34) 0.75981(28) 0.9816(5)
H33_3 H 0.1284 0.7347 0.9990
C39_3 C 0.3079(4) 0.7293(3) 0.9847(6)
H38_3 H 0.3024 0.6992 0.9547
C40_3 C 0.2804(4) 0.7516(3) 0.9718(5)
H39_3 H 0.2514 0.7396 0.9307
C41_3 C 0.32181(31) 0.87516(25) 0.9553(4)
H40_3 H 0.3087 0.8979 0.9485
H41_3 H 0.3218 0.8618 0.8851
C42_3 C 0.40054(33) 0.93980(26) 0.9203(4)
H42_3 H 0.4018 0.9250 0.8526
H43_3 H 0.3860 0.9610 0.9081
C43_3 C 0.45186(29) 0.97005(24) 0.9640(4)
C44_3 C 0.49146(31) 0.98651(25) 0.8943(4)
H44_3 H 0.4858 0.9777 0.8225
N15_3 N 0.23799(26) 0.81055(21) 0.9886(3)
O3_3 O 0.37034(21) 0.90100(17) 0.9938(3)
Sb1 Sb 0.06240(9) 0.67096(9) 0.71915(18)
F1 F 0.0610(4) 0.7084(3) 0.8308(7)
F2 F 0.0067(3) 0.6170(3) 0.7732(6)
F3 F 0.0663(4) 0.6352(4) 0.6091(6)
F4 F 0.1120(4) 0.7290(4) 0.6691(7)
F5 F 0.1010(4) 0.6582(5) 0.8037(7)
F6 F 0.0184(4) 0.6863(3) 0.6570(7)
Sb1_2 Sb 0.32904(9) 0.39144(13) 0.71915(18)
F1_2 F 0.2916(3) 0.3526(5) 0.8308(7)
F2_2 F 0.3830(3) 0.3897(4) 0.7732(6)
F3_2 F 0.3648(4) 0.4311(6) 0.6091(6)
F4_2 F 0.2710(4) 0.3830(6) 0.6691(7)
F5_2 F 0.3418(5) 0.4428(6) 0.8037(7)
F6_2 F 0.3137(3) 0.3321(5) 0.6570(7)
Sb1_3 Sb 0.60856(13) 0.93760(9) 0.71915(18)
F1_3 F 0.6474(5) 0.9390(4) 0.8308(7)
F2_3 F 0.6103(4) 0.9933(3) 0.7732(6)
F3_3 F 0.5689(6) 0.9337(4) 0.6091(6)
F4_3 F 0.6170(6) 0.8880(4) 0.6691(7)
F5_3 F 0.5572(6) 0.8990(4) 0.8037(7)
F6_3 F 0.6679(5) 0.9816(4) 0.6570(7)
Sb1_4 Sb 0.72907(9) 0.00429(9) 0.05248(18)
F1_4 F 0.7277(4) 0.0417(3) 0.1641(7)
F4_4 F 0.7787(4) 0.0623(4) 0.0024(7)
F6_4 F 0.6851(4) 0.0196(3) 0.9903(7)
F2_4 F 0.6734(3) 0.9503(3) 0.1065(6)
F5_4 F 0.7677(4) 0.9915(5) 0.1370(7)
F3_4 F 0.7330(4) 0.9685(4) 0.9424(6)
F2_5 F 0.0497(3) 0.7230(4) 0.1065(6)
F5_5 F 0.0085(5) 0.7761(6) 0.1370(7)
F3_5 F 0.0315(4) 0.7644(6) 0.9424(6)
Sb1_5 Sb 0.99571(9) 0.72477(13) 0.05248(18)
F1_5 F 0.9583(3) 0.6859(5) 0.1641(7)
F4_5 F 0.9377(4) 0.7163(6) 0.0024(7)
F6_5 F 0.9804(3) 0.6654(5) 0.9903(7)
Sb1_6 Sb 0.27523(13) 0.27093(9) 0.05248(18)
F1_6 F 0.3141(5) 0.2723(4) 0.1641(7)
F2_6 F 0.2770(4) 0.3266(3) 0.1065(6)
F4_6 F 0.2837(6) 0.2213(4) 0.0024(7)
F5_6 F 0.2239(6) 0.2323(4) 0.1370(7)
F3_6 F 0.2356(6) 0.2670(4) 0.9424(6)
F6_6 F 0.3346(5) 0.3149(4) 0.9903(7)
Sb1_7 Sb 0.39573(9) 0.33763(9) 0.38582(18)
F1_7 F 0.3943(4) 0.3751(3) 0.4975(7)
F2_7 F 0.3400(3) 0.2837(3) 0.4399(6)
F3_7 F 0.3996(4) 0.3019(4) 0.2758(6)
F4_7 F 0.4453(4) 0.3957(4) 0.3358(7)
F5_7 F 0.4343(4) 0.3249(5) 0.4704(7)
F6_7 F 0.3517(4) 0.3530(3) 0.3237(7)
F6_8 F 0.3530(3) 0.0012(5) 0.6763(7)
Sb1_8 Sb 0.33763(9) 0.94189(13) 0.61418(18)
F1_8 F 0.3751(3) 0.9807(5) 0.5025(7)
F2_8 F 0.2837(3) 0.9436(4) 0.5601(6)
F3_8 F 0.3019(4) 0.9022(6) 0.7242(6)
F4_8 F 0.3957(4) 0.9503(6) 0.6642(7)
F5_8 F 0.3249(5) 0.8905(6) 0.5296(7)
Sb1_9 Sb 0.05811(13) 0.39573(9) 0.61418(18)
F1_9 F 0.0193(5) 0.3943(4) 0.5025(7)
F2_9 F 0.0564(4) 0.3400(3) 0.5601(6)
F3_9 F 0.0978(6) 0.3996(4) 0.7242(6)
F4_9 F 0.0497(6) 0.4453(4) 0.6642(7)
F5_9 F 0.1095(6) 0.4343(4) 0.5296(7)
F6_9 F 0.9988(5) 0.3517(4) 0.6763(7)
Sb1_10 Sb 0.93760(9) 0.32904(9) 0.28085(18)
F1_10 F 0.9390(4) 0.2916(3) 0.1692(7)
F2_10 F 0.9933(3) 0.3830(3) 0.2268(6)
F3_10 F 0.9337(4) 0.3648(4) 0.3909(6)
F4_10 F 0.8880(4) 0.2710(4) 0.3309(7)
F5_10 F 0.8990(4) 0.3418(5) 0.1963(7)
F6_10 F 0.9816(4) 0.3137(3) 0.3430(7)
Sb1_11 Sb 0.67096(9) 0.60856(13) 0.28085(18)
F1_11 F 0.7084(3) 0.6474(5) 0.1692(7)
F2_11 F 0.6170(3) 0.6103(4) 0.2268(6)
F3_11 F 0.6352(4) 0.5689(6) 0.3909(6)
F4_11 F 0.7290(4) 0.6170(6) 0.3309(7)
F5_11 F 0.6582(5) 0.5572(6) 0.1963(7)
F6_11 F 0.6863(3) 0.6679(5) 0.3430(7)
Sb1_12 Sb 0.39144(13) 0.06240(9) 0.28085(18)
F1_12 F 0.3526(5) 0.0610(4) 0.1692(7)
F2_12 F 0.3897(4) 0.0067(3) 0.2268(6)
F3_12 F 0.4311(6) 0.0663(4) 0.3909(6)
F4_12 F 0.3830(6) 0.1120(4) 0.3309(7)
F5_12 F 0.4428(6) 0.1010(4) 0.1963(7)
F6_12 F 0.3321(5) 0.0184(4) 0.3430(7)
F3_13 F 0.2670(4) 0.0315(4) 0.0576(6)
F2_13 F 0.3266(3) 0.0497(3) 0.8935(6)
F5_13 F 0.2323(4) 0.0085(5) 0.8630(7)
F6_13 F 0.3149(4) 0.9804(3) 0.0097(7)
Sb1_13 Sb 0.27093(9) 0.99571(9) 0.94752(18)
F1_13 F 0.2723(4) 0.9583(3) 0.8359(7)
F4_13 F 0.2213(4) 0.9377(4) 0.9976(7)
F6_14 F 0.0196(3) 0.3346(5) 0.0097(7)
Sb1_14 Sb 0.00429(9) 0.27523(13) 0.94752(18)
F1_14 F 0.0417(3) 0.3141(5) 0.8359(7)
F4_14 F 0.0623(4) 0.2837(6) 0.9976(7)
F3_14 F 0.9685(4) 0.2356(6) 0.0576(6)
F2_14 F 0.9503(3) 0.2770(4) 0.8935(6)
F5_14 F 0.9915(5) 0.2239(6) 0.8630(7)
F3_15 F 0.7644(6) 0.7330(4) 0.0576(6)
F6_15 F 0.6654(5) 0.6851(4) 0.0097(7)
Sb1_15 Sb 0.72477(13) 0.72907(9) 0.94752(18)
F1_15 F 0.6859(5) 0.7277(4) 0.8359(7)
F2_15 F 0.7230(4) 0.6734(3) 0.8935(6)
F4_15 F 0.7163(6) 0.7787(4) 0.9976(7)
F5_15 F 0.7761(6) 0.7677(4) 0.8630(7)
Sb1_16 Sb 0.60427(9) 0.66237(9) 0.61418(18)
F1_16 F 0.6057(4) 0.6249(3) 0.5025(7)
F2_16 F 0.6600(3) 0.7163(3) 0.5601(6)
F3_16 F 0.6004(4) 0.6981(4) 0.7242(6)
F4_16 F 0.5547(4) 0.6043(4) 0.6642(7)
F5_16 F 0.5657(4) 0.6751(5) 0.5296(7)
F6_16 F 0.6483(4) 0.6470(3) 0.6763(7)
Sb1_17 Sb 0.66237(9) 0.05811(13) 0.38582(18)
F1_17 F 0.6249(3) 0.0193(5) 0.4975(7)
F2_17 F 0.7163(3) 0.0564(4) 0.4399(6)
F3_17 F 0.6981(4) 0.0978(6) 0.2758(6)
F4_17 F 0.6043(4) 0.0497(6) 0.3358(7)
F5_17 F 0.6751(5) 0.1095(6) 0.4704(7)
F6_17 F 0.6470(3) 0.9988(5) 0.3237(7)
F6_18 F 0.0012(5) 0.6483(4) 0.3237(7)
Sb1_18 Sb 0.94189(13) 0.60427(9) 0.38582(18)
F1_18 F 0.9807(5) 0.6057(4) 0.4975(7)
F2_18 F 0.9436(4) 0.6600(3) 0.4399(6)
F3_18 F 0.9022(6) 0.6004(4) 0.2758(6)
F4_18 F 0.9503(6) 0.5547(4) 0.3358(7)
F5_18 F 0.8905(6) 0.5657(4) 0.4704(7)
Sb2 Sb 0.0000 0.0000 0.0000
F9 F 0.0611(12) 0.0097(10) 0.0361(14)
Sb2_2 Sb -0.0000 0.0000 1.0000
F11 F 0.0514(7) 0.0611(12) 0.9639(14)
Sb2_3 Sb 0.0000 1.0000 0.0000
Sb2_4 Sb 0.0000 1.0000 1.0000
F10 F 0.0097(10) 0.9486(7) 0.9639(14)
Sb2_5 Sb 1.0000 0.0000 0.0000
F7 F 0.9903(10) 0.0514(7) 0.0361(14)
Sb2_6 Sb 1.0000 0.0000 1.0000
Sb2_7 Sb 1.0000 1.0000 0.0000
F8 F 0.9486(7) 0.9389(12) 0.0361(14)
Sb2_8 Sb 1.0000 1.0000 1.0000
F12 F 0.9389(12) 0.9903(10) 0.9639(14)
Sb2_9 Sb 0.6667 0.3333 0.3333
F7_2 F 0.6570(10) 0.3847(7) 0.3694(14)
F8_2 F 0.6153(7) 0.2722(12) 0.3694(14)
F9_2 F 0.7278(12) 0.3430(10) 0.3694(14)
F10_2 F 0.6764(10) 0.2819(7) 0.2972(14)
F11_2 F 0.7181(7) 0.3944(12) 0.2972(14)
F12_2 F 0.6056(12) 0.3236(10) 0.2972(14)
Sb2_10 Sb 0.3333 0.6667 0.6667
F7_3 F 0.3236(10) 0.7181(7) 0.7028(14)
F8_3 F 0.2819(7) 0.6056(12) 0.7028(14)
F9_3 F 0.3944(12) 0.6764(10) 0.7028(14)
F10_3 F 0.3430(10) 0.6153(7) 0.6306(14)
F11_3 F 0.3847(7) 0.7278(12) 0.6306(14)
F12_3 F 0.2722(12) 0.6570(10) 0.6306(14)
loop_
_geom_bond_atom_site_label_1
_geom_bond_atom_site_label_2
_geom_bond_site_symmetry_1
_geom_bond_site_symmetry_2
C20 C19 1_555 1_555
N7 C20 1_555 1_555
C21 N7 1_555 1_555
C22 C21 1_555 1_555
C23 C22 1_555 1_555
H18 C23 1_555 1_555
N8 N7 1_555 1_555
H19 C22 1_555 1_555
H20 C21 1_555 1_555
N9 C20 1_555 1_555
C24 N9 1_555 1_555
H21 C24 1_555 1_555
C25 C24 1_555 1_555
H22 C25 1_555 1_555
C26 C25 1_555 1_555
H23 C26 1_555 1_555
N10 N9 1_555 1_555
N11 C20 1_555 1_555
C27 N11 1_555 1_555
C28 C27 1_555 1_555
H25 C28 1_555 1_555
H26 C27 1_555 1_555
H27 C19 1_555 1_555
H28 C19 1_555 1_555
Ag2 N8 1_555 1_555
C61 C71 1_555 1_555
C62 H61 1_555 1_555
C63 C62 1_555 1_555
H62 C63 1_555 1_555
C64 C63 1_555 1_555
H63 C64 1_555 1_555
C65 H64 1_555 1_555
C66 C65 1_555 1_555
H65 C66 1_555 1_555
C67 C66 1_555 1_555
H66 C67 1_555 1_555
C68 H67 1_555 1_555
C69 C68 1_555 1_555
H68 C69 1_555 1_555
C70 C69 1_555 1_555
H69 C70 1_555 1_555
C71 H70 1_555 1_555
H71 C71 1_555 1_555
C72 H72 1_555 1_555
H73 C72 1_555 1_555
C73 C72 1_555 1_555
C74 C73 1_555 1_555
H74 C74 1_555 1_555
C75 C73 1_555 1_555
H75 C75 1_555 1_555
N25 C65 1_555 1_555
N26 C61 1_555 1_555
N27 C61 1_555 1_555
N28 C64 1_555 1_555
N29 Ag2 1_555 1_555
N30 C61 1_555 1_555
O5 Ag2 1_555 1_555
C76 C74 1_555 1_555
C77 C76 1_555 1_555
C78 C77 1_555 1_555
H76 C78 1_555 1_555
H77 C78 1_555 1_555
O6 C78 1_555 1_555
C79 O6 1_555 1_555
C80 C79 1_555 1_555
N31 C80 1_555 1_555
C81 N31 1_555 1_555
C82 C81 1_555 1_555
C83 C82 1_555 1_555
N32 N31 1_555 1_555
H79 C82 1_555 1_555
H80 C81 1_555 1_555
N33 C80 1_555 1_555
C84 N33 1_555 1_555
H81 C84 1_555 1_555
C85 C84 1_555 1_555
H82 C85 1_555 1_555
C86 C85 1_555 1_555
H83 C86 1_555 1_555
N34 N33 1_555 1_555
N35 C80 1_555 1_555
C87 N35 1_555 1_555
C88 C87 1_555 1_555
C89 C88 1_555 1_555
H84 C89 1_555 1_555
N36 N35 1_555 1_555
H85 C88 1_555 1_555
H86 C87 1_555 1_555
H87 C79 1_555 1_555
H88 C79 1_555 1_555
C90 C75 1_555 1_555
H89 C90 1_555 1_555
H90 C76 1_555 1_555
Ag8 N25 1_555 1_555
Ag9 O6 1_555 1_555
Ag10 N32 1_555 1_555
C23 N8 1_555 1_555
C26 N10 1_555 1_555
N10 Ag2 1_555 1_555
C62 N27 1_555 1_555
C67 N26 1_555 1_555
C68 N29 1_555 1_555
C70 N30 1_555 1_555
C71 O5 1_555 1_555
C72 O5 1_555 1_555
N25 N26 1_555 1_555
N27 N28 1_555 1_555
N28 Ag8 1_555 1_555
N29 N30 1_555 1_555
C77 C90 1_555 1_555
C83 N32 1_555 1_555
C86 N34 1_555 1_555
N34 Ag10 1_555 1_555
C89 N36 1_555 1_555
N36 Ag9 1_555 1_555
Ag1 N1 1_555 1_555
C1 C11 1_555 1_555
C2 H1 1_555 1_555
C3 C2 1_555 1_555
H2 C3 1_555 1_555
C4 C3 1_555 1_555
H3 C4 1_555 1_555
C6 C5 1_555 1_555
H5 C6 1_555 1_555
C7 C6 1_555 1_555
H6 C7 1_555 1_555
C8 H7 1_555 1_555
C9 C8 1_555 1_555
H8 C9 1_555 1_555
C10 C9 1_555 1_555
H9 C10 1_555 1_555
C11 H10 1_555 1_555
H11 C11 1_555 1_555
C12 H12 1_555 1_555
H13 C12 1_555 1_555
C13 C12 1_555 1_555
C14 C13 1_555 1_555
H14 C14 1_555 1_555
C15 C13 1_555 1_555
H15 C15 1_555 1_555
N1 C5 1_555 1_555
N2 C1 1_555 1_555
N3 C1 1_555 1_555
N4 Ag1 1_555 1_555
N5 C8 1_555 1_555
N6 C1 1_555 1_555
O1 C11 1_555 1_555
C16 C14 1_555 1_555
C17 C16 1_555 1_555
C18 C17 1_555 1_555
H16 C18 1_555 1_555
H17 C18 1_555 1_555
O2 C18 1_555 1_555
H24 C29 1_555 1_555
C30 C15 1_555 1_555
H29 C30 1_555 1_555
H30 C16 1_555 1_555
C35 H34 1_555 1_555
C36 C35 1_555 1_555
H35 C36 1_555 1_555
C37 C36 1_555 1_555
H36 C37 1_555 1_555
C38 H37 1_555 1_555
H45 C45 1_555 1_555
N13 C35 1_555 1_555
N14 C31 1_555 1_555
N17 Ag1 1_555 1_555
N18 C31 1_555 1_555
Ag3 N13 1_555 1_555
Ag5 N5 1_555 1_555
Ag6 O2 1_555 1_555
N37 Ag3 1_555 1_555
O7 Ag3 1_555 1_555
N39 Ag5 1_555 1_555
N40 Ag5 1_555 1_555
N41 Ag6 1_555 1_555
N42 Ag6 1_555 1_555
C2 N3 1_555 1_555
C4 N4 1_555 1_555
C7 N2 1_555 1_555
C10 N6 1_555 1_555
C12 O1 1_555 1_555
N1 N2 1_555 1_555
N3 N4 1_555 1_555
N5 N6 1_555 1_555
O1 Ag5 1_555 1_555
C17 C30 1_555 1_555
C29 N12 1_555 1_555
N12 Ag6 1_555 1_555
C37 N14 1_555 1_555
C38 N17 1_555 1_555
N13 N14 1_555 1_555
N16 Ag3 1_555 1_555
N17 N18 1_555 1_555
C32 H31 1_555 1_555
C33 C32 1_555 1_555
H32 C33 1_555 1_555
C34 C33 1_555 1_555
H33 C34 1_555 1_555
H38 C39 1_555 1_555
C40 C39 1_555 1_555
H39 C40 1_555 1_555
C41 H40 1_555 1_555
H41 C41 1_555 1_555
C42 H42 1_555 1_555
H43 C42 1_555 1_555
C43 C42 1_555 1_555
C44 C43 1_555 1_555
H44 C44 1_555 1_555
C32 N15 1_555 1_555
C41 O3 1_555 1_555
C42 O3 1_555 1_555
C48 C47 1_555 1_555
H46 C48 1_555 1_555
H47 C48 1_555 1_555
O4 C48 1_555 1_555
C49 O4 1_555 1_555
C54 N21 1_555 1_555
H51 C54 1_555 1_555
C55 C54 1_555 1_555
H52 C55 1_555 1_555
C56 C55 1_555 1_555
H53 C56 1_555 1_555
C58 C57 1_555 1_555
H55 C58 1_555 1_555
H56 C57 1_555 1_555
H57 C49 1_555 1_555
H58 C49 1_555 1_555
H59 C60 1_555 1_555
C47 C60 1_555 1_555
N19 C50 1_555 1_555
C51 N19 1_555 1_555
C52 C51 1_555 1_555
C53 C52 1_555 1_555
H48 C53 1_555 1_555
N20 N19 1_555 1_555
H49 C52 1_555 1_555
H50 C51 1_555 1_555
N23 C50 1_555 1_555
H54 C59 1_555 1_555
N24 N23 1_555 1_555
H60 C46 1_555 1_555
Ag4 N20 1_555 1_555
N38 Ag4 1_555 1_555
O8 Ag4 1_555 1_555
C53 N20 1_555 1_555
N22 Ag4 1_555 1_555
C59 N24 1_555 1_555
N24 Ag7 1_555 1_555
Ag1_2 N1_2 1_555 1_555
C1_2 C11_2 1_555 1_555
C2_2 H1_2 1_555 1_555
C3_2 C2_2 1_555 1_555
H2_2 C3_2 1_555 1_555
C4_2 C3_2 1_555 1_555
H3_2 C4_2 1_555 1_555
C6_2 C5_2 1_555 1_555
H5_2 C6_2 1_555 1_555
C7_2 C6_2 1_555 1_555
H6_2 C7_2 1_555 1_555
C8_2 H7_2 1_555 1_555
C9_2 C8_2 1_555 1_555
H8_2 C9_2 1_555 1_555
C10_2 C9_2 1_555 1_555
H9_2 C10_2 1_555 1_555
C11_2 H10_2 1_555 1_555
H11_2 C11_2 1_555 1_555
C12_2 H12_2 1_555 1_555
H13_2 C12_2 1_555 1_555
C13_2 C12_2 1_555 1_555
C14_2 C13_2 1_555 1_555
H14_2 C14_2 1_555 1_555
C15_2 C13_2 1_555 1_555
H15_2 C15_2 1_555 1_555
N1_2 C5_2 1_555 1_555
N2_2 C1_2 1_555 1_555
N3_2 C1_2 1_555 1_555
N4_2 Ag1_2 1_555 1_555
N37 C8_2 1_555 1_555
N6_2 C1_2 1_555 1_555
O7 C11_2 1_555 1_555
C16_2 C14_2 1_555 1_555
C17_2 C16_2 1_555 1_555
C18_2 C17_2 1_555 1_555
H16_2 C18_2 1_555 1_555
H17_2 C18_2 1_555 1_555
O2_2 C18_2 1_555 1_555
H24_2 C29_2 1_555 1_555
C30_2 C15_2 1_555 1_555
H29_2 C30_2 1_555 1_555
H30_2 C16_2 1_555 1_555
C35_2 H34_2 1_555 1_555
C36_2 C35_2 1_555 1_555
H35_2 C36_2 1_555 1_555
C37_2 C36_2 1_555 1_555
H36_2 C37_2 1_555 1_555
C38_2 H37_2 1_555 1_555
H45_2 C45_2 1_555 1_555
N13_2 C35_2 1_555 1_555
N14_2 C31_2 1_555 1_555
N17_2 Ag1_2 1_555 1_555
N18_2 C31_2 1_555 1_555
C48_2 C47_2 1_555 1_555
H46_2 C48_2 1_555 1_555
H47_2 C48_2 1_555 1_555
O4_2 C48_2 1_555 1_555
C49_2 O4_2 1_555 1_555
C54_2 N21_2 1_555 1_555
H51_2 C54_2 1_555 1_555
C55_2 C54_2 1_555 1_555
H52_2 C55_2 1_555 1_555
C56_2 C55_2 1_555 1_555
H53_2 C56_2 1_555 1_555
C58_2 C57_2 1_555 1_555
H55_2 C58_2 1_555 1_555
H56_2 C57_2 1_555 1_555
H57_2 C49_2 1_555 1_555
H58_2 C49_2 1_555 1_555
C60_2 C45_2 1_555 1_555
H59_2 C60_2 1_555 1_555
Ag3_2 N13_2 1_555 1_555
Ag8 O2_2 1_555 1_555
N37_2 Ag3_2 1_555 1_555
O7_2 Ag3_2 1_555 1_555
C2_2 N3_2 1_555 1_555
C4_2 N4_2 1_555 1_555
C7_2 N2_2 1_555 1_555
C10_2 N6_2 1_555 1_555
C12_2 O7 1_555 1_555
N1_2 N2_2 1_555 1_555
N3_2 N4_2 1_555 1_555
N37 N6_2 1_555 1_555
C17_2 C30_2 1_555 1_555
C29_2 N12_2 1_555 1_555
N12_2 Ag8 1_555 1_555
C37_2 N14_2 1_555 1_555
C38_2 N17_2 1_555 1_555
N13_2 N14_2 1_555 1_555
N16_2 Ag3_2 1_555 1_555
N17_2 N18_2 1_555 1_555
C47_2 C60_2 1_555 1_555
C32_2 H31_2 1_555 1_555
C33_2 C32_2 1_555 1_555
H32_2 C33_2 1_555 1_555
C34_2 C33_2 1_555 1_555
H33_2 C34_2 1_555 1_555
H38_2 C39_2 1_555 1_555
C40_2 C39_2 1_555 1_555
H39_2 C40_2 1_555 1_555
C41_2 H40_2 1_555 1_555
H41_2 C41_2 1_555 1_555
C42_2 H42_2 1_555 1_555
H43_2 C42_2 1_555 1_555
C43_2 C42_2 1_555 1_555
C44_2 C43_2 1_555 1_555
H44_2 C44_2 1_555 1_555
C46_2 C44_2 1_555 1_555
N19_2 C50_2 1_555 1_555
C51_2 N19_2 1_555 1_555
C52_2 C51_2 1_555 1_555
C53_2 C52_2 1_555 1_555
H48_2 C53_2 1_555 1_555
N20_2 N19_2 1_555 1_555
H49_2 C52_2 1_555 1_555
H50_2 C51_2 1_555 1_555
N23_2 C50_2 1_555 1_555
H54_2 C59_2 1_555 1_555
N24_2 N23_2 1_555 1_555
H60_2 C46_2 1_555 1_555
Ag9 N20_2 1_555 1_555
C32_2 N15_2 1_555 1_555
C41_2 O3_2 1_555 1_555
C42_2 O3_2 1_555 1_555
C53_2 N20_2 1_555 1_555
N22_2 Ag9 1_555 1_555
C59_2 N24_2 1_555 1_555
N24_2 Ag7_2 1_555 1_555
C20_2 C19_2 1_555 1_555
N7_2 C20_2 1_555 1_555
C21_2 N7_2 1_555 1_555
C22_2 C21_2 1_555 1_555
C23_2 C22_2 1_555 1_555
H18_2 C23_2 1_555 1_555
N8_2 N7_2 1_555 1_555
H19_2 C22_2 1_555 1_555
H20_2 C21_2 1_555 1_555
N9_2 C20_2 1_555 1_555
C24_2 N9_2 1_555 1_555
H21_2 C24_2 1_555 1_555
C25_2 C24_2 1_555 1_555
H22_2 C25_2 1_555 1_555
C26_2 C25_2 1_555 1_555
H23_2 C26_2 1_555 1_555
N10_2 N9_2 1_555 1_555
N11_2 C20_2 1_555 1_555
C27_2 N11_2 1_555 1_555
C28_2 C27_2 1_555 1_555
H25_2 C28_2 1_555 1_555
H26_2 C27_2 1_555 1_555
H27_2 C19_2 1_555 1_555
H28_2 C19_2 1_555 1_555
Ag2_2 N8_2 1_555 1_555
C68_2 H67_2 1_555 1_555
C72_2 H72_2 1_555 1_555
H73_2 C72_2 1_555 1_555
C73_2 C72_2 1_555 1_555
C74_2 C73_2 1_555 1_555
H74_2 C74_2 1_555 1_555
C75_2 C73_2 1_555 1_555
H75_2 C75_2 1_555 1_555
N29_2 Ag2_2 1_555 1_555
O5_2 Ag2_2 1_555 1_555
C76_2 C74_2 1_555 1_555
C77_2 C76_2 1_555 1_555
C78_2 C77_2 1_555 1_555
H76_2 C78_2 1_555 1_555
H77_2 C78_2 1_555 1_555
O6_2 C78_2 1_555 1_555
C79_2 O6_2 1_555 1_555
C80_2 C79_2 1_555 1_555
N31_2 C80_2 1_555 1_555
C81_2 N31_2 1_555 1_555
C82_2 C81_2 1_555 1_555
C83_2 C82_2 1_555 1_555
N32_2 N31_2 1_555 1_555
H79_2 C82_2 1_555 1_555
H80_2 C81_2 1_555 1_555
N33_2 C80_2 1_555 1_555
C84_2 N33_2 1_555 1_555
H81_2 C84_2 1_555 1_555
C85_2 C84_2 1_555 1_555
H82_2 C85_2 1_555 1_555
C86_2 C85_2 1_555 1_555
H83_2 C86_2 1_555 1_555
N34_2 N33_2 1_555 1_555
N35_2 C80_2 1_555 1_555
C87_2 N35_2 1_555 1_555
C88_2 C87_2 1_555 1_555
C89_2 C88_2 1_555 1_555
H84_2 C89_2 1_555 1_555
N36_2 N35_2 1_555 1_555
H85_2 C88_2 1_555 1_555
H86_2 C87_2 1_555 1_555
H87_2 C79_2 1_555 1_555
H88_2 C79_2 1_555 1_555
C90_2 C75_2 1_555 1_555
H89_2 C90_2 1_555 1_555
H90_2 C76_2 1_555 1_555
Ag9_2 O6_2 1_555 1_555
Ag7 N32_2 1_555 1_555
C23_2 N8_2 1_555 1_555
C26_2 N10_2 1_555 1_555
N10_2 Ag2_2 1_555 1_555
C68_2 N29_2 1_555 1_555
C72_2 O5_2 1_555 1_555
C77_2 C90_2 1_555 1_555
C83_2 N32_2 1_555 1_555
C86_2 N34_2 1_555 1_555
N34_2 Ag7 1_555 1_555
C89_2 N36_2 1_555 1_555
N36_2 Ag9_2 1_555 1_555
C61_2 C71_2 1_555 1_555
C62_2 H61_2 1_555 1_555
C63_2 C62_2 1_555 1_555
H62_2 C63_2 1_555 1_555
C64_2 C63_2 1_555 1_555
H63_2 C64_2 1_555 1_555
C65_2 H64_2 1_555 1_555
C66_2 C65_2 1_555 1_555
H65_2 C66_2 1_555 1_555
C67_2 C66_2 1_555 1_555
H66_2 C67_2 1_555 1_555
H68_2 C69_2 1_555 1_555
C70_2 C69_2 1_555 1_555
H69_2 C70_2 1_555 1_555
C71_2 H70_2 1_555 1_555
H71_2 C71_2 1_555 1_555
N25_2 C65_2 1_555 1_555
N26_2 C61_2 1_555 1_555
N27_2 C61_2 1_555 1_555
N28_2 C64_2 1_555 1_555
N30_2 C61_2 1_555 1_555
Ag8_2 N25_2 1_555 1_555
C62_2 N27_2 1_555 1_555
C67_2 N26_2 1_555 1_555
C70_2 N30_2 1_555 1_555
N25_2 N26_2 1_555 1_555
N27_2 N28_2 1_555 1_555
N28_2 Ag8_2 1_555 1_555
C61_3 C71_3 1_555 1_555
C62_3 H61_3 1_555 1_555
C63_3 C62_3 1_555 1_555
H62_3 C63_3 1_555 1_555
C64_3 C63_3 1_555 1_555
H63_3 C64_3 1_555 1_555
C65_3 H64_3 1_555 1_555
C66_3 C65_3 1_555 1_555
H65_3 C66_3 1_555 1_555
C67_3 C66_3 1_555 1_555
H66_3 C67_3 1_555 1_555
H68_3 C69_3 1_555 1_555
C70_3 C69_3 1_555 1_555
H69_3 C70_3 1_555 1_555
C71_3 H70_3 1_555 1_555
H71_3 C71_3 1_555 1_555
N41 C65_3 1_555 1_555
N26_3 C61_3 1_555 1_555
N27_3 C61_3 1_555 1_555
N42 C64_3 1_555 1_555
N30_3 C61_3 1_555 1_555
C62_3 N27_3 1_555 1_555
C67_3 N26_3 1_555 1_555
C70_3 N30_3 1_555 1_555
N41 N26_3 1_555 1_555
N27_3 N42 1_555 1_555
C48_3 C47_3 1_555 1_555
H46_3 C48_3 1_555 1_555
H47_3 C48_3 1_555 1_555
O4_3 C48_3 1_555 1_555
C49_3 O4_3 1_555 1_555
C54_3 N21_3 1_555 1_555
H51_3 C54_3 1_555 1_555
C55_3 C54_3 1_555 1_555
H52_3 C55_3 1_555 1_555
C56_3 C55_3 1_555 1_555
H53_3 C56_3 1_555 1_555
C58_3 C57_3 1_555 1_555
H55_3 C58_3 1_555 1_555
H56_3 C57_3 1_555 1_555
H57_3 C49_3 1_555 1_555
H58_3 C49_3 1_555 1_555
H59_3 C60_3 1_555 1_555
C47_3 C60_3 1_555 1_555
N19_3 C50_3 1_555 1_555
C51_3 N19_3 1_555 1_555
C52_3 C51_3 1_555 1_555
C53_3 C52_3 1_555 1_555
H48_3 C53_3 1_555 1_555
N20_3 N19_3 1_555 1_555
H49_3 C52_3 1_555 1_555
H50_3 C51_3 1_555 1_555
N23_3 C50_3 1_555 1_555
H54_3 C59_3 1_555 1_555
N24_3 N23_3 1_555 1_555
H60_3 C46_3 1_555 1_555
Ag9_2 N20_3 1_555 1_555
C53_3 N20_3 1_555 1_555
N22_3 Ag9_2 1_555 1_555
C59_3 N24_3 1_555 1_555
N24_3 Ag10 1_555 1_555
Ag1_3 N1_3 1_555 1_555
C1_3 C11_3 1_555 1_555
C2_3 H1_3 1_555 1_555
C3_3 C2_3 1_555 1_555
H2_3 C3_3 1_555 1_555
C4_3 C3_3 1_555 1_555
H3_3 C4_3 1_555 1_555
C6_3 C5_3 1_555 1_555
H5_3 C6_3 1_555 1_555
C7_3 C6_3 1_555 1_555
H6_3 C7_3 1_555 1_555
C8_3 H7_3 1_555 1_555
C9_3 C8_3 1_555 1_555
H8_3 C9_3 1_555 1_555
C10_3 C9_3 1_555 1_555
H9_3 C10_3 1_555 1_555
C11_3 H10_3 1_555 1_555
H11_3 C11_3 1_555 1_555
C12_3 H12_3 1_555 1_555
H13_3 C12_3 1_555 1_555
C13_3 C12_3 1_555 1_555
C14_3 C13_3 1_555 1_555
H14_3 C14_3 1_555 1_555
C15_3 C13_3 1_555 1_555
H15_3 C15_3 1_555 1_555
N1_3 C5_3 1_555 1_555
N2_3 C1_3 1_555 1_555
N3_3 C1_3 1_555 1_555
N4_3 Ag1_3 1_555 1_555
N37_2 C8_3 1_555 1_555
N6_3 C1_3 1_555 1_555
O7_2 C11_3 1_555 1_555
C16_3 C14_3 1_555 1_555
C17_3 C16_3 1_555 1_555
C18_3 C17_3 1_555 1_555
H16_3 C18_3 1_555 1_555
H17_3 C18_3 1_555 1_555
O2_3 C18_3 1_555 1_555
C19_3 O2_3 1_555 1_555
C20_3 C19_3 1_555 1_555
N7_3 C20_3 1_555 1_555
C21_3 N7_3 1_555 1_555
C22_3 C21_3 1_555 1_555
C23_3 C22_3 1_555 1_555
H18_3 C23_3 1_555 1_555
N8_3 N7_3 1_555 1_555
H19_3 C22_3 1_555 1_555
H20_3 C21_3 1_555 1_555
N9_3 C20_3 1_555 1_555
C24_3 N9_3 1_555 1_555
H21_3 C24_3 1_555 1_555
C25_3 C24_3 1_555 1_555
H22_3 C25_3 1_555 1_555
C26_3 C25_3 1_555 1_555
H23_3 C26_3 1_555 1_555
N10_3 N9_3 1_555 1_555
N11_3 C20_3 1_555 1_555
C27_3 N11_3 1_555 1_555
C28_3 C27_3 1_555 1_555
C29_3 C28_3 1_555 1_555
H24_3 C29_3 1_555 1_555
N12_3 N11_3 1_555 1_555
H25_3 C28_3 1_555 1_555
H26_3 C27_3 1_555 1_555
H27_3 C19_3 1_555 1_555
H28_3 C19_3 1_555 1_555
C30_3 C15_3 1_555 1_555
H29_3 C30_3 1_555 1_555
H30_3 C16_3 1_555 1_555
C35_3 H34_3 1_555 1_555
C36_3 C35_3 1_555 1_555
H35_3 C36_3 1_555 1_555
C37_3 C36_3 1_555 1_555
H36_3 C37_3 1_555 1_555
C38_3 H37_3 1_555 1_555
H45_3 C45_3 1_555 1_555
N39 C35_3 1_555 1_555
N14_3 C31_3 1_555 1_555
N17_3 Ag1_3 1_555 1_555
N18_3 C31_3 1_555 1_555
Ag2_3 N8_3 1_555 1_555
Ag8_2 O2_3 1_555 1_555
C68_3 H67_3 1_555 1_555
C72_3 H72_3 1_555 1_555
H73_3 C72_3 1_555 1_555
C73_3 C72_3 1_555 1_555
C74_3 C73_3 1_555 1_555
H74_3 C74_3 1_555 1_555
C75_3 C73_3 1_555 1_555
H75_3 C75_3 1_555 1_555
N29_3 Ag2_3 1_555 1_555
O5_3 Ag2_3 1_555 1_555
C76_3 C74_3 1_555 1_555
C77_3 C76_3 1_555 1_555
C78_3 C77_3 1_555 1_555
H76_3 C78_3 1_555 1_555
H77_3 C78_3 1_555 1_555
O8 C78_3 1_555 1_555
C79_3 O8 1_555 1_555
C80_3 C79_3 1_555 1_555
N31_3 C80_3 1_555 1_555
C81_3 N31_3 1_555 1_555
C82_3 C81_3 1_555 1_555
C83_3 C82_3 1_555 1_555
N32_3 N31_3 1_555 1_555
H79_3 C82_3 1_555 1_555
H80_3 C81_3 1_555 1_555
N33_3 C80_3 1_555 1_555
C84_3 N33_3 1_555 1_555
H81_3 C84_3 1_555 1_555
C85_3 C84_3 1_555 1_555
H82_3 C85_3 1_555 1_555
C86_3 C85_3 1_555 1_555
H83_3 C86_3 1_555 1_555
N34_3 N33_3 1_555 1_555
N35_3 C80_3 1_555 1_555
C87_3 N35_3 1_555 1_555
C88_3 C87_3 1_555 1_555
C89_3 C88_3 1_555 1_555
H84_3 C89_3 1_555 1_555
N38 N35_3 1_555 1_555
H85_3 C88_3 1_555 1_555
H86_3 C87_3 1_555 1_555
H87_3 C79_3 1_555 1_555
H88_3 C79_3 1_555 1_555
C90_3 C75_3 1_555 1_555
H89_3 C90_3 1_555 1_555
H90_3 C76_3 1_555 1_555
Ag7_2 N32_3 1_555 1_555
C2_3 N3_3 1_555 1_555
C4_3 N4_3 1_555 1_555
C7_3 N2_3 1_555 1_555
C10_3 N6_3 1_555 1_555
C12_3 O7_2 1_555 1_555
N1_3 N2_3 1_555 1_555
N3_3 N4_3 1_555 1_555
N37_2 N6_3 1_555 1_555
C17_3 C30_3 1_555 1_555
C23_3 N8_3 1_555 1_555
C26_3 N10_3 1_555 1_555
N10_3 Ag2_3 1_555 1_555
C29_3 N12_3 1_555 1_555
N12_3 Ag8_2 1_555 1_555
C37_3 N14_3 1_555 1_555
C38_3 N17_3 1_555 1_555
N39 N14_3 1_555 1_555
N17_3 N18_3 1_555 1_555
C68_3 N29_3 1_555 1_555
C72_3 O5_3 1_555 1_555
C77_3 C90_3 1_555 1_555
C83_3 N32_3 1_555 1_555
C86_3 N34_3 1_555 1_555
N34_3 Ag7_2 1_555 1_555
C89_3 N38 1_555 1_555
C32_3 H31_3 1_555 1_555
C33_3 C32_3 1_555 1_555
H32_3 C33_3 1_555 1_555
C34_3 C33_3 1_555 1_555
H33_3 C34_3 1_555 1_555
H38_3 C39_3 1_555 1_555
C40_3 C39_3 1_555 1_555
H39_3 C40_3 1_555 1_555
C41_3 H40_3 1_555 1_555
H41_3 C41_3 1_555 1_555
C42_3 H42_3 1_555 1_555
H43_3 C42_3 1_555 1_555
C43_3 C42_3 1_555 1_555
C44_3 C43_3 1_555 1_555
H44_3 C44_3 1_555 1_555
C32_3 N15_3 1_555 1_555
C41_3 O3_3 1_555 1_555
C42_3 O3_3 1_555 1_555
Sb1 F1 1_555 1_555
F2 Sb1 1_555 1_555
F3 Sb1 1_555 1_555
F4 Sb1 1_555 1_555
F5 Sb1 1_555 1_555
F6 Sb1 1_555 1_555
Sb1_2 F1_2 1_555 1_555
F2_2 Sb1_2 1_555 1_555
F3_2 Sb1_2 1_555 1_555
F4_2 Sb1_2 1_555 1_555
F5_2 Sb1_2 1_555 1_555
F6_2 Sb1_2 1_555 1_555
Sb1_3 F1_3 1_555 1_555
F2_3 Sb1_3 1_555 1_555
F3_3 Sb1_3 1_555 1_555
F4_3 Sb1_3 1_555 1_555
F5_3 Sb1_3 1_555 1_555
F6_3 Sb1_3 1_555 1_555
Sb1_4 F1_4 1_555 1_555
F4_4 Sb1_4 1_555 1_555
Sb1_5 F1_5 1_555 1_555
F4_5 Sb1_5 1_555 1_555
Sb1_6 F1_6 1_555 1_555
F2_6 Sb1_6 1_555 1_555
F4_6 Sb1_6 1_555 1_555
F5_6 Sb1_6 1_555 1_555
Sb1_7 F1_7 1_555 1_555
F2_7 Sb1_7 1_555 1_555
F3_7 Sb1_7 1_555 1_555
F4_7 Sb1_7 1_555 1_555
F5_7 Sb1_7 1_555 1_555
F6_7 Sb1_7 1_555 1_555
Sb1_8 F1_8 1_555 1_555
F2_8 Sb1_8 1_555 1_555
F3_8 Sb1_8 1_555 1_555
F4_8 Sb1_8 1_555 1_555
F5_8 Sb1_8 1_555 1_555
Sb1_9 F1_9 1_555 1_555
F2_9 Sb1_9 1_555 1_555
F3_9 Sb1_9 1_555 1_555
F4_9 Sb1_9 1_555 1_555
F5_9 Sb1_9 1_555 1_555
Sb1_10 F1_10 1_555 1_555
F2_10 Sb1_10 1_555 1_555
F3_10 Sb1_10 1_555 1_555
F4_10 Sb1_10 1_555 1_555
F5_10 Sb1_10 1_555 1_555
F6_10 Sb1_10 1_555 1_555
Sb1_11 F1_11 1_555 1_555
F2_11 Sb1_11 1_555 1_555
F3_11 Sb1_11 1_555 1_555
F4_11 Sb1_11 1_555 1_555
F5_11 Sb1_11 1_555 1_555
F6_11 Sb1_11 1_555 1_555
Sb1_12 F1_12 1_555 1_555
F2_12 Sb1_12 1_555 1_555
F3_12 Sb1_12 1_555 1_555
F4_12 Sb1_12 1_555 1_555
F5_12 Sb1_12 1_555 1_555
F6_12 Sb1_12 1_555 1_555
Sb1_13 F1_13 1_555 1_555
F4_13 Sb1_13 1_555 1_555
Sb1_14 F1_14 1_555 1_555
F4_14 Sb1_14 1_555 1_555
Sb1_15 F1_15 1_555 1_555
F2_15 Sb1_15 1_555 1_555
F4_15 Sb1_15 1_555 1_555
F5_15 Sb1_15 1_555 1_555
Sb1_16 F1_16 1_555 1_555
F2_16 Sb1_16 1_555 1_555
F3_16 Sb1_16 1_555 1_555
F4_16 Sb1_16 1_555 1_555
F5_16 Sb1_16 1_555 1_555
F6_16 Sb1_16 1_555 1_555
Sb1_17 F1_17 1_555 1_555
F2_17 Sb1_17 1_555 1_555
F3_17 Sb1_17 1_555 1_555
F4_17 Sb1_17 1_555 1_555
F5_17 Sb1_17 1_555 1_555
Sb1_18 F1_18 1_555 1_555
F2_18 Sb1_18 1_555 1_555
F3_18 Sb1_18 1_555 1_555
F4_18 Sb1_18 1_555 1_555
F5_18 Sb1_18 1_555 1_555
F9 Sb2 1_555 1_555
F11 Sb2_2 1_555 1_555
F10 Sb2_4 1_555 1_555
Sb2_5 F7 1_555 1_555
F8 Sb2_7 1_555 1_555
F12 Sb2_8 1_555 1_555
Sb2_9 F7_2 1_555 1_555
F8_2 Sb2_9 1_555 1_555
F9_2 Sb2_9 1_555 1_555
F10_2 Sb2_9 1_555 1_555
F11_2 Sb2_9 1_555 1_555
F12_2 Sb2_9 1_555 1_555
Sb2_10 F7_3 1_555 1_555
F8_3 Sb2_10 1_555 1_555
F9_3 Sb2_10 1_555 1_555
F10_3 Sb2_10 1_555 1_555
F11_3 Sb2_10 1_555 1_555
F12_3 Sb2_10 1_555 1_555

#END
