
###############################################################################
#
# This file contains modified crystal structure data generated from the
# MOF subset of the Cambridge Structural Database (CSD) v543 
# hosted by the Cambridge Crystallographic Data Centre (CCDC).
#
# This work is licensed under the Creative Commons
# Attribution-NonCommercial-ShareAlike 4.0 International License.
# To view a copy of this license, visit
# http://creativecommons.org/licenses/by-nc-sa/4.0/
# or send a letter to
# Creative Commons, PO Box 1866, Mountain View, CA 94042, USA.
#
# CIF created using the CSD Python API on 29 September 2022
# The structure has been converted into the P1 space group
# The structure has a 3D framework
# The original CSD entry LUWKEV is in the hexagonal crystal system
# The original CSD entry LUWKEV is in a Sohncke space group
# The framework has been calculated to contain at least 10.0% void space
# The void calculation uses a probe of radius 1.32A, grid spacing 0.4
# The framework is charged, counterions have been retained in the structure
#
###############################################################################

data_LUWKEV
_chemical_formula_moiety         '(C48 H24 Cd5 O24 2-)n'
_symmetry_cell_setting           triclinic
_symmetry_space_group_name_H-M   'P 1'
_symmetry_Int_Tables_number      1
_space_group_name_Hall           'P 1'
loop_
_symmetry_equiv_pos_site_id
_symmetry_equiv_pos_as_xyz
1 x,y,z
_cell_length_a                   15.227(2)
_cell_length_b                   15.227(2)
_cell_length_c                   12.5453(10)
_cell_angle_alpha                90
_cell_angle_beta                 90
_cell_angle_gamma                120
_cell_volume                     2519.07
loop_
_atom_site_label
_atom_site_type_symbol
_atom_site_fract_x
_atom_site_fract_y
_atom_site_fract_z
Cd1 Cd 0.5000 0.0000 0.0000
C1 C 0.4177(8) 0.1791(8) 0.2880(7)
H1 H 0.3565 0.1296 0.2592
C2 C 0.5947(7) 0.2678(6) 0.2922(5)
H2 H 0.6561 0.2767 0.2672
C3 C 0.5050(9) 0.1949(7) 0.2457(5)
C4 C 0.5129(8) 0.1323(6) 0.1557(6)
O1 O 0.5908(7) 0.1428(6) 0.1277(5)
O2 O 0.4265(6) 0.0687(5) 0.1138(5)
C5 C 0.4177(8) 0.2386(11) 0.3787(7)
H3 H 0.3565 0.2269 0.4075
C6 C 0.5947(7) 0.3269(9) 0.3745(5)
H4 H 0.6561 0.3794 0.3995
C7 C 0.5050(9) 0.3101(11) 0.4210(5)
C8 C 0.5129(8) 0.3806(10) 0.5110(6)
O3 O 0.5908(7) 0.4480(9) 0.5390(5)
O4 O 0.4265(6) 0.3578(8) 0.5529(5)
Cd3 Cd 0.5000 0.5000 0.6667
Cd1_2 Cd 0.5000 1.0000 0.0000
C9 C 0.5823(8) 0.8209(8) 0.2880(7)
H5 H 0.6435 0.8704 0.2592
C10 C 0.4053(7) 0.7322(6) 0.2922(5)
H6 H 0.3439 0.7233 0.2672
C11 C 0.4950(9) 0.8051(7) 0.2457(5)
C12 C 0.4871(8) 0.8677(6) 0.1557(6)
O5 O 0.4092(7) 0.8572(6) 0.1277(5)
O6 O 0.5735(6) 0.9313(5) 0.1138(5)
C13 C 0.5823(8) 0.7614(11) 0.3787(7)
H7 H 0.6435 0.7731 0.4075
C14 C 0.4053(7) 0.6731(9) 0.3745(5)
H8 H 0.3439 0.6206 0.3995
C15 C 0.4950(9) 0.6899(11) 0.4210(5)
C16 C 0.4871(8) 0.6194(10) 0.5110(6)
O7 O 0.4092(7) 0.5520(9) 0.5390(5)
O8 O 0.5735(6) 0.6422(8) 0.5529(5)
C1_2 C 0.7614(11) 0.5823(8) 0.9547(7)
H1_2 H 0.7731 0.6435 0.9259
C2_2 C 0.6731(9) 0.4053(7) 0.9589(5)
H2_2 H 0.6206 0.3439 0.9339
C3_2 C 0.6899(11) 0.4950(9) 0.9124(5)
C4_2 C 0.6194(10) 0.4871(8) 0.8224(6)
O1_2 O 0.5520(9) 0.4092(7) 0.7944(5)
O2_2 O 0.6422(8) 0.5735(6) 0.7805(5)
C9_2 C 0.2386(11) 0.4177(8) 0.9547(7)
H5_2 H 0.2269 0.3565 0.9259
C10_2 C 0.3269(9) 0.5947(7) 0.9589(5)
H6_2 H 0.3794 0.6561 0.9339
C11_2 C 0.3101(11) 0.5050(9) 0.9124(5)
C12_2 C 0.3806(10) 0.5129(8) 0.8224(6)
O5_2 O 0.4480(9) 0.5908(7) 0.7944(5)
O6_2 O 0.3578(8) 0.4265(6) 0.7805(5)
Cd1_3 Cd 0.5000 0.0000 1.0000
O10 O 0.5520(9) 0.1428(6) 0.8723(5)
O12 O 0.6422(8) 0.0687(5) 0.8862(5)
Cd1_4 Cd 0.5000 1.0000 1.0000
O9 O 0.4480(9) 0.8572(6) 0.8723(5)
O11 O 0.3578(8) 0.9313(5) 0.8862(5)
Cd1_5 Cd -0.0000 0.5000 0.3333
C9_3 C 0.1791(8) 0.7614(11) 0.6213(7)
H5_3 H 0.1296 0.7731 0.5925
C10_3 C 0.2678(6) 0.6731(9) 0.6255(5)
H6_3 H 0.2767 0.6206 0.6005
C11_3 C 0.1949(7) 0.6899(11) 0.5790(5)
C12_3 C 0.1323(6) 0.6194(10) 0.4890(6)
O5_3 O 0.1428(6) 0.5520(9) 0.4610(5)
O6_3 O 0.0687(5) 0.6422(8) 0.4471(5)
C13_2 C 0.2386(11) 0.8209(14) 0.7120(7)
H7_2 H 0.2269 0.8704 0.7408
C14_2 C 0.3269(9) 0.7322(11) 0.7078(5)
H8_2 H 0.3794 0.7233 0.7328
C15_2 C 0.3101(11) 0.8051(14) 0.7543(5)
C16_2 C 0.3806(10) 0.8677(13) 0.8443(6)
O9_2 O 0.1428(6) 0.5908(11) 0.2056(5)
O11_2 O 0.0687(5) 0.4265(9) 0.2195(5)
Cd1_6 Cd 1.0000 0.5000 0.3333
C1_3 C 0.8209(8) 0.2386(11) 0.6213(7)
H1_3 H 0.8704 0.2269 0.5925
C2_3 C 0.7322(6) 0.3269(9) 0.6255(5)
H2_3 H 0.7233 0.3794 0.6005
C3_3 C 0.8051(7) 0.3101(11) 0.5790(5)
C4_3 C 0.8677(6) 0.3806(10) 0.4890(6)
O1_3 O 0.8572(6) 0.4480(9) 0.4610(5)
O2_3 O 0.9313(5) 0.3578(8) 0.4471(5)
C5_2 C 0.7614(11) 0.1791(14) 0.7120(7)
H3_2 H 0.7731 0.1296 0.7408
C6_2 C 0.6731(9) 0.2678(11) 0.7078(5)
H4_2 H 0.6206 0.2767 0.7328
C7_2 C 0.6899(11) 0.1949(14) 0.7543(5)
C8_2 C 0.6194(10) 0.1323(13) 0.8443(6)
O10_2 O 0.8572(6) 0.4092(11) 0.2056(5)
O12_2 O 0.9313(5) 0.5735(9) 0.2195(5)
C5_3 C 0.8209(14) 0.5823(8) 0.0453(7)
H3_3 H 0.8704 0.6435 0.0741
C6_3 C 0.7322(11) 0.4053(7) 0.0411(5)
H4_3 H 0.7233 0.3439 0.0661
C7_3 C 0.8051(14) 0.4950(9) 0.0876(5)
C8_3 C 0.8677(13) 0.4871(8) 0.1776(6)
C13_3 C 0.1791(14) 0.4177(8) 0.0453(7)
H7_3 H 0.1296 0.3565 0.0741
C14_3 C 0.2678(11) 0.5947(7) 0.0411(5)
H8_3 H 0.2767 0.6561 0.0661
C15_3 C 0.1949(14) 0.5050(9) 0.0876(5)
C16_3 C 0.1323(13) 0.5129(8) 0.1776(6)
loop_
_geom_bond_atom_site_label_1
_geom_bond_atom_site_label_2
_geom_bond_site_symmetry_1
_geom_bond_site_symmetry_2
Cd1 O1 1_555 1_555
C1 H1 1_555 1_555
C2 H2 1_555 1_555
C3 C1 1_555 1_555
C4 C3 1_555 1_555
O1 C4 1_555 1_555
O2 Cd1 1_555 1_555
C5 C1 1_555 1_555
H3 C5 1_555 1_555
C6 C2 1_555 1_555
H4 C6 1_555 1_555
C7 C5 1_555 1_555
C8 C7 1_555 1_555
O3 C8 1_555 1_555
O4 C8 1_555 1_555
Cd3 O3 1_555 1_555
C2 C3 1_555 1_555
C4 O2 1_555 1_555
C6 C7 1_555 1_555
O4 Cd3 1_555 1_555
C9 H5 1_555 1_555
C10 H6 1_555 1_555
C11 C9 1_555 1_555
C12 C11 1_555 1_555
O5 Cd1_2 1_555 1_555
O6 Cd1_2 1_555 1_555
C13 C9 1_555 1_555
H7 C13 1_555 1_555
C14 C10 1_555 1_555
H8 C14 1_555 1_555
C15 C13 1_555 1_555
C16 C15 1_555 1_555
O7 C16 1_555 1_555
O8 C16 1_555 1_555
Cd3 O7 1_555 1_555
C10 C11 1_555 1_555
C12 O5 1_555 1_555
C12 O6 1_555 1_555
C14 C15 1_555 1_555
O8 Cd3 1_555 1_555
Cd3 O1_2 1_555 1_555
C1_2 H1_2 1_555 1_555
C2_2 H2_2 1_555 1_555
C3_2 C1_2 1_555 1_555
C4_2 C3_2 1_555 1_555
O1_2 C4_2 1_555 1_555
O2_2 Cd3 1_555 1_555
C9_2 H5_2 1_555 1_555
C10_2 H6_2 1_555 1_555
C11_2 C9_2 1_555 1_555
C12_2 C11_2 1_555 1_555
O5_2 Cd3 1_555 1_555
O6_2 Cd3 1_555 1_555
C2_2 C3_2 1_555 1_555
C4_2 O2_2 1_555 1_555
C10_2 C11_2 1_555 1_555
C12_2 O5_2 1_555 1_555
C12_2 O6_2 1_555 1_555
O10 Cd1_3 1_555 1_555
O12 Cd1_3 1_555 1_555
O9 Cd1_4 1_555 1_555
O11 Cd1_4 1_555 1_555
C9_3 H5_3 1_555 1_555
C10_3 H6_3 1_555 1_555
C11_3 C9_3 1_555 1_555
C12_3 C11_3 1_555 1_555
O5_3 Cd1_5 1_555 1_555
O6_3 Cd1_5 1_555 1_555
C13_2 C9_3 1_555 1_555
H7_2 C13_2 1_555 1_555
C14_2 C10_3 1_555 1_555
H8_2 C14_2 1_555 1_555
C15_2 C13_2 1_555 1_555
C16_2 C15_2 1_555 1_555
O9 C16_2 1_555 1_555
O11 C16_2 1_555 1_555
O9_2 Cd1_5 1_555 1_555
O11_2 Cd1_5 1_555 1_555
C10_3 C11_3 1_555 1_555
C12_3 O5_3 1_555 1_555
C12_3 O6_3 1_555 1_555
C14_2 C15_2 1_555 1_555
Cd1_6 O1_3 1_555 1_555
C1_3 H1_3 1_555 1_555
C2_3 H2_3 1_555 1_555
C3_3 C1_3 1_555 1_555
C4_3 C3_3 1_555 1_555
O1_3 C4_3 1_555 1_555
O2_3 Cd1_6 1_555 1_555
C5_2 C1_3 1_555 1_555
H3_2 C5_2 1_555 1_555
C6_2 C2_3 1_555 1_555
H4_2 C6_2 1_555 1_555
C7_2 C5_2 1_555 1_555
C8_2 C7_2 1_555 1_555
O10 C8_2 1_555 1_555
O12 C8_2 1_555 1_555
O10_2 Cd1_6 1_555 1_555
O12_2 Cd1_6 1_555 1_555
C2_3 C3_3 1_555 1_555
C4_3 O2_3 1_555 1_555
C6_2 C7_2 1_555 1_555
H3_3 C5_3 1_555 1_555
H4_3 C6_3 1_555 1_555
C7_3 C5_3 1_555 1_555
C8_3 C7_3 1_555 1_555
O10_2 C8_3 1_555 1_555
O12_2 C8_3 1_555 1_555
H7_3 C13_3 1_555 1_555
H8_3 C14_3 1_555 1_555
C15_3 C13_3 1_555 1_555
C16_3 C15_3 1_555 1_555
O9_2 C16_3 1_555 1_555
O11_2 C16_3 1_555 1_555
C6_3 C7_3 1_555 1_555
C14_3 C15_3 1_555 1_555

#END
