
###############################################################################
#
# This file contains modified crystal structure data generated from the
# MOF subset of the Cambridge Structural Database (CSD) v543 
# hosted by the Cambridge Crystallographic Data Centre (CCDC).
#
# This work is licensed under the Creative Commons
# Attribution-NonCommercial-ShareAlike 4.0 International License.
# To view a copy of this license, visit
# http://creativecommons.org/licenses/by-nc-sa/4.0/
# or send a letter to
# Creative Commons, PO Box 1866, Mountain View, CA 94042, USA.
#
# CIF created using the CSD Python API on 29 September 2022
# The structure has been converted into the P1 space group
# The structure has a 3D framework
# The original CSD entry LUWKIZ is in the orthorhombic crystal system
# The framework has been calculated to contain at least 10.0% void space
# The void calculation uses a probe of radius 1.32A, grid spacing 0.4
# The framework is charged, counterions have been retained in the structure
#
###############################################################################

data_LUWKIZ
_chemical_formula_moiety         '(C768 H384 Cd46 O254 32-)n'
_symmetry_cell_setting           triclinic
_symmetry_space_group_name_H-M   'P 1'
_symmetry_Int_Tables_number      1
_space_group_name_Hall           'P 1'
loop_
_symmetry_equiv_pos_site_id
_symmetry_equiv_pos_as_xyz
1 x,y,z
_cell_length_a                   32.7812(11)
_cell_length_b                   34.5802(9)
_cell_length_c                   25.0561(7)
_cell_angle_alpha                90
_cell_angle_beta                 90
_cell_angle_gamma                90
_cell_volume                     28403.1
loop_
_atom_site_label
_atom_site_type_symbol
_atom_site_fract_x
_atom_site_fract_y
_atom_site_fract_z
C19 C 0.2819(4) 0.1342(4) 0.0996(5)
H12 H 0.2985 0.1478 0.0761
C26 C 0.3157(3) 0.1667(3) 0.1748(4)
H16 H 0.3323 0.1806 0.1514
C27 C 0.2655(3) 0.1266(4) 0.2448(4)
H17 H 0.2491 0.1129 0.2685
C31 C 0.2862(3) 0.1408(3) 0.1533(4)
C34 C 0.2925(4) 0.1509(3) 0.2636(4)
H21 H 0.2943 0.1552 0.3002
C35 C 0.2541(4) 0.1083(3) 0.0787(5)
H22 H 0.2521 0.1044 0.0421
C38 C 0.3501(3) 0.1992(3) 0.2487(5)
C40 C 0.2607(3) 0.1205(3) 0.1884(4)
C41 C 0.2318(3) 0.0928(3) 0.1691(4)
H23 H 0.2157 0.0786 0.1925
C42 C 0.2287(3) 0.0878(3) 0.1152(4)
C45 C 0.3204(3) 0.1717(3) 0.2261(4)
C48 C 0.1981(3) 0.0587(2) 0.0944(4)
O8 O 0.3493(2) 0.2084(2) 0.2959(3)
O9 O 0.3760(2) 0.21271(19) 0.2148(4)
O10 O 0.1971(3) 0.0542(2) 0.0453(3)
O16 O 0.1783(2) 0.0396(2) 0.1259(3)
Cd4 Cd 0.390255(18) 0.251854(14) 0.32975(2)
Cd8 Cd 0.442545(19) 0.224658(17) 0.21471(3)
O20 O 0.0993(2) 0.0416(2) 0.0459(3)
Cd2 Cd 0.248846(19) 0.058166(18) 0.85674(3)
Cd3 Cd 0.192545(19) 0.025342(17) 0.96471(3)
C1 C 0.3638(6) 0.1545(5) 0.8396(9)
H1 H 0.3579 0.1500 0.8754
C2 C 0.3458(5) 0.1428(4) 0.7486(10)
H2 H 0.3334 0.1300 0.7203
C5 C 0.3741(6) 0.1731(6) 0.7435(7)
C6 C 0.4285(4) 0.2193(4) 0.7614(5)
H4 H 0.4447 0.2332 0.7850
C7 C 0.3982(7) 0.1817(7) 0.8327(7)
H5 H 0.4148 0.1906 0.8602
C8 C 0.3386(5) 0.1344(4) 0.8064(9)
C9 C 0.4069(4) 0.2069(4) 0.6718(4)
H6 H 0.4094 0.2111 0.6353
C10 C 0.4023(6) 0.1920(7) 0.7800(6)
C12 C 0.3779(5) 0.1797(5) 0.6911(7)
H7 H 0.3614 0.1664 0.6671
C14 C 0.3061(5) 0.1059(5) 0.8242(7)
C37 C 0.4632(3) 0.2539(3) 0.6857(6)
C44 C 0.4310(2) 0.2266(3) 0.7064(5)
O1 O 0.2985(4) 0.1084(4) 0.8721(6)
O2 O 0.2875(4) 0.0855(3) 0.7903(6)
O4 O 0.4904(2) 0.2657(2) 0.7152(4)
O6 O 0.4592(3) 0.2630(3) 0.6374(5)
O7 O 0.2125(3) 0.0170(2) 0.8081(3)
Cd7 Cd 0.501154(19) 0.308166(18) 0.60674(3)
Cd10 Cd 0.557455(19) 0.275342(17) 0.71471(3)
O17 O 0.2596(2) 0.0157(2) 0.9652(4)
O19 O 0.2908(3) 0.0130(3) 0.8874(5)
O21 O 0.1260(2) 0.03729(19) 0.9648(4)
O22 O 0.1942(3) 0.1091(2) 0.8468(3)
O23 O 0.2095(2) 0.08282(17) 0.9231(3)
Cd1 Cd 0.140255(18) 0.998146(14) 0.07975(2)
C13 C 0.2473(5) 0.8941(4) 0.0411(12)
H8 H 0.2407 0.8955 0.0772
C17 C 0.2259(4) 0.9189(3) 0.0120(9)
C23 C 0.2761(6) 0.8674(5) 0.0315(7)
H15 H 0.2913 0.8534 0.0561
C25 C 0.1969(3) 0.9472(2) 0.0393(5)
O12 O 0.1763(2) 0.96960(18) 0.0110(3)
O15 O 0.1945(3) 0.9478(2) 0.0873(4)
O18 O 0.1144(3) 0.9707(2) 0.1600(4)
O24 O 0.0915(2) 0.9503(2) 0.0822(4)
C3 C 0.2777(4) 0.8656(3) 0.9796(4)
C4 C 0.2603(8) 0.8871(7) 0.8929(8)
H3 H 0.2436 0.9034 0.8731
C11 C 0.2625(5) 0.8835(5) 0.9426(6)
C15 C 0.2915(5) 0.8580(5) 0.8735(13)
H9 H 0.2974 0.8571 0.8372
C16 C 0.1395(5) 0.9395(4) 0.8341(5)
H10 H 0.1388 0.9406 0.8711
C18 C 0.2292(5) 0.9161(4) 0.9621(9)
H11 H 0.2141 0.9311 0.9384
C20 C 0.3098(5) 0.8343(4) 0.9606(9)
H13 H 0.3249 0.8198 0.9848
C21 C 0.1168(4) 0.9144(4) 0.8100(5)
H14 H 0.1011 0.8975 0.8302
C22 C 0.3408(4) 0.8021(4) 0.8810(7)
C24 C 0.3139(4) 0.8299(4) 0.9106(7)
C28 C 0.1153(3) 0.9119(3) 0.7542(4)
C29 C 0.1148(4) 0.9078(3) 0.6436(5)
H18 H 0.1166 0.9043 0.6068
C30 C 0.1388(4) 0.9351(4) 0.6680(5)
H19 H 0.1544 0.9519 0.6476
C32 C 0.1652(3) 0.9627(3) 0.7525(4)
H20 H 0.1830 0.9786 0.7338
C33 C 0.1396(4) 0.9377(3) 0.7244(4)
C36 C 0.1646(4) 0.9645(3) 0.8070(4)
C39 C 0.0878(3) 0.8851(3) 0.6732(4)
C43 C 0.0898(3) 0.8852(3) 0.7259(4)
H24 H 0.0742 0.8675 0.7450
C46 C 0.0601(3) 0.8565(2) 0.6452(4)
C47 C 0.1895(4) 0.9960(3) 0.8358(5)
O3 O 0.1884(3) 0.9962(2) 0.8850(4)
O5 O 0.3644(3) 0.7793(2) 0.9100(4)
O11 O 0.0558(3) 0.8591(2) 0.5968(3)
O13 O 0.0405(2) 0.83282(17) 0.6731(3)
O14 O 0.3415(2) 0.7997(2) 0.8322(4)
Cd5 Cd 0.390255(18) 0.751854(14) 0.82975(2)
Cd6 Cd 0.001154(19) 0.808166(18) 0.60674(3)
Cd9 Cd 0.057455(19) 0.775342(17) 0.71471(3)
Cd1_2 Cd 0.859745(18) 0.001854(14) 0.07975(2)
C13_2 C 0.7527(5) 0.1059(4) 0.0411(12)
H8_2 H 0.7593 0.1045 0.0772
C17_2 C 0.7741(4) 0.0811(3) 0.0120(9)
C23_2 C 0.7239(6) 0.1326(5) 0.0315(7)
H15_2 H 0.7087 0.1466 0.0561
C25_2 C 0.8031(3) 0.0528(2) 0.0393(5)
O12_2 O 0.8237(2) 0.03040(18) 0.0110(3)
O15_2 O 0.8055(3) 0.0522(2) 0.0873(4)
O18_2 O 0.8856(3) 0.0293(2) 0.1600(4)
O24_2 O 0.9085(2) 0.0497(2) 0.0822(4)
C3_2 C 0.7223(4) 0.1344(3) 0.9796(4)
C4_2 C 0.7397(8) 0.1129(7) 0.8929(8)
H3_2 H 0.7564 0.0966 0.8731
C11_2 C 0.7375(5) 0.1165(5) 0.9426(6)
C15_2 C 0.7085(5) 0.1420(5) 0.8735(13)
H9_2 H 0.7026 0.1429 0.8372
C16_2 C 0.8605(5) 0.0605(4) 0.8341(5)
H10_2 H 0.8612 0.0594 0.8711
C18_2 C 0.7708(5) 0.0839(4) 0.9621(9)
H11_2 H 0.7859 0.0689 0.9384
C20_2 C 0.6902(5) 0.1657(4) 0.9606(9)
H13_2 H 0.6751 0.1802 0.9848
C21_2 C 0.8832(4) 0.0856(4) 0.8100(5)
H14_2 H 0.8989 0.1025 0.8302
C22_2 C 0.6592(4) 0.1979(4) 0.8810(7)
C24_2 C 0.6861(4) 0.1701(4) 0.9106(7)
C28_2 C 0.8847(3) 0.0881(3) 0.7542(4)
C29_2 C 0.8852(4) 0.0922(3) 0.6436(5)
H18_2 H 0.8834 0.0957 0.6068
C30_2 C 0.8612(4) 0.0649(4) 0.6680(5)
H19_2 H 0.8456 0.0481 0.6476
C32_2 C 0.8348(3) 0.0373(3) 0.7525(4)
H20_2 H 0.8170 0.0214 0.7338
C33_2 C 0.8604(4) 0.0623(3) 0.7244(4)
C36_2 C 0.8354(4) 0.0355(3) 0.8070(4)
C39_2 C 0.9122(3) 0.1149(3) 0.6732(4)
C43_2 C 0.9102(3) 0.1148(3) 0.7259(4)
H24_2 H 0.9258 0.1325 0.7450
C46_2 C 0.9399(3) 0.1435(2) 0.6452(4)
C47_2 C 0.8105(4) 0.0040(3) 0.8358(5)
O3_2 O 0.8116(3) 0.0038(2) 0.8850(4)
O5_2 O 0.6356(3) 0.2207(2) 0.9100(4)
O11_2 O 0.9442(3) 0.1409(2) 0.5968(3)
O13_2 O 0.9595(2) 0.16718(17) 0.6731(3)
O14_2 O 0.6585(2) 0.2003(2) 0.8322(4)
Cd5_2 Cd 0.609745(18) 0.248146(14) 0.82975(2)
Cd6_2 Cd 0.998846(19) 0.191834(18) 0.60674(3)
Cd9_2 Cd 0.942545(19) 0.224658(17) 0.71471(3)
C19_2 C 0.7181(4) 0.8658(4) 0.0996(5)
H12_2 H 0.7015 0.8522 0.0761
C26_2 C 0.6843(3) 0.8333(3) 0.1748(4)
H16_2 H 0.6677 0.8194 0.1514
C27_2 C 0.7345(3) 0.8734(4) 0.2448(4)
H17_2 H 0.7509 0.8871 0.2685
C31_2 C 0.7138(3) 0.8592(3) 0.1533(4)
C34_2 C 0.7075(4) 0.8491(3) 0.2636(4)
H21_2 H 0.7057 0.8448 0.3002
C35_2 C 0.7459(4) 0.8917(3) 0.0787(5)
H22_2 H 0.7479 0.8956 0.0421
C38_2 C 0.6499(3) 0.8008(3) 0.2487(5)
C40_2 C 0.7393(3) 0.8795(3) 0.1884(4)
C41_2 C 0.7682(3) 0.9072(3) 0.1691(4)
H23_2 H 0.7843 0.9214 0.1925
C42_2 C 0.7713(3) 0.9122(3) 0.1152(4)
C45_2 C 0.6796(3) 0.8283(3) 0.2261(4)
C48_2 C 0.8019(3) 0.9413(2) 0.0944(4)
O8_2 O 0.6507(2) 0.7916(2) 0.2959(3)
O9_2 O 0.6240(2) 0.78729(19) 0.2148(4)
O10_2 O 0.8029(3) 0.9458(2) 0.0453(3)
O16_2 O 0.8217(2) 0.9604(2) 0.1259(3)
Cd4_2 Cd 0.609745(18) 0.748146(14) 0.32975(2)
Cd8_2 Cd 0.557455(19) 0.775342(17) 0.21471(3)
O20_2 O 0.9007(2) 0.9584(2) 0.0459(3)
Cd2_2 Cd 0.751154(19) 0.941834(18) 0.85674(3)
Cd3_2 Cd 0.807455(19) 0.974658(17) 0.96471(3)
C1_2 C 0.6362(6) 0.8455(5) 0.8396(9)
H1_2 H 0.6421 0.8500 0.8754
C2_2 C 0.6542(5) 0.8572(4) 0.7486(10)
H2_2 H 0.6666 0.8700 0.7203
C5_2 C 0.6259(6) 0.8269(6) 0.7435(7)
C6_2 C 0.5715(4) 0.7807(4) 0.7614(5)
H4_2 H 0.5553 0.7668 0.7850
C7_2 C 0.6018(7) 0.8183(7) 0.8327(7)
H5_2 H 0.5852 0.8094 0.8602
C8_2 C 0.6614(5) 0.8656(4) 0.8064(9)
C9_2 C 0.5931(4) 0.7931(4) 0.6718(4)
H6_2 H 0.5906 0.7889 0.6353
C10_2 C 0.5977(6) 0.8080(7) 0.7800(6)
C12_2 C 0.6221(5) 0.8203(5) 0.6911(7)
H7_2 H 0.6386 0.8336 0.6671
C14_2 C 0.6939(5) 0.8941(5) 0.8242(7)
C37_2 C 0.5368(3) 0.7461(3) 0.6857(6)
C44_2 C 0.5690(2) 0.7734(3) 0.7064(5)
O1_2 O 0.7015(4) 0.8916(4) 0.8721(6)
O2_2 O 0.7125(4) 0.9145(3) 0.7903(6)
O4_2 O 0.5096(2) 0.7343(2) 0.7152(4)
O6_2 O 0.5408(3) 0.7370(3) 0.6374(5)
O7_2 O 0.7875(3) 0.9830(2) 0.8081(3)
Cd7_2 Cd 0.498846(19) 0.691834(18) 0.60674(3)
Cd10_2 Cd 0.442545(19) 0.724658(17) 0.71471(3)
O17_2 O 0.7404(2) 0.9843(2) 0.9652(4)
O19_2 O 0.7092(3) 0.9870(3) 0.8874(5)
O21_2 O 0.8740(2) 0.96271(19) 0.9648(4)
O22_2 O 0.8058(3) 0.8909(2) 0.8468(3)
O23_2 O 0.7905(2) 0.91718(17) 0.9231(3)
Cd2_3 Cd 0.498846(19) 0.191834(18) 0.10674(3)
C1_3 C 0.6138(6) 0.0955(5) 0.0896(9)
H1_3 H 0.6079 0.1000 0.1254
C3_3 C 0.5277(4) 0.3844(3) 0.2296(4)
C4_3 C 0.5103(8) 0.3629(7) 0.1429(8)
H3_3 H 0.4936 0.3466 0.1231
C6_3 C 0.6785(4) 0.0307(4) 0.0114(5)
H4_3 H 0.6947 0.0168 0.0350
C7_3 C 0.6482(7) 0.0683(7) 0.0827(7)
H5_3 H 0.6648 0.0594 0.1102
C8_3 C 0.5886(5) 0.1156(4) 0.0564(9)
C10_3 C 0.6523(6) 0.0580(7) 0.0300(6)
C11_3 C 0.5125(5) 0.3665(5) 0.1926(6)
C13_3 C 0.4973(5) 0.3559(4) 0.2911(12)
H8_3 H 0.4907 0.3545 0.3272
C14_3 C 0.5561(5) 0.1441(5) 0.0742(7)
C15_3 C 0.5415(5) 0.3920(5) 0.1235(13)
H9_3 H 0.5474 0.3929 0.0872
C16_3 C 0.3895(5) 0.3105(4) 0.0841(5)
H10_3 H 0.3888 0.3094 0.1211
C17_3 C 0.4759(4) 0.3311(3) 0.2620(9)
C18_3 C 0.4792(5) 0.3339(4) 0.2121(9)
H11_3 H 0.4641 0.3189 0.1884
C19_3 C 0.5319(4) 0.1158(4) 0.3496(5)
H12_3 H 0.5485 0.1022 0.3261
C20_3 C 0.5598(5) 0.4157(4) 0.2106(9)
H13_3 H 0.5749 0.4302 0.2348
C21_3 C 0.3668(4) 0.3356(4) 0.0600(5)
H14_3 H 0.3511 0.3525 0.0802
C22_3 C 0.5908(4) 0.4479(4) 0.1310(7)
C23_3 C 0.5261(6) 0.3826(5) 0.2815(7)
H15_3 H 0.5413 0.3966 0.3061
C24_3 C 0.5639(4) 0.4201(4) 0.1606(7)
C25_3 C 0.4469(3) 0.3028(2) 0.2893(5)
C26_3 C 0.5657(3) 0.0833(3) 0.4248(4)
H16_3 H 0.5823 0.0694 0.4014
C27_3 C 0.5155(3) 0.1234(4) 0.4948(4)
H17_3 H 0.4991 0.1371 0.5185
C28_3 C 0.3653(3) 0.3381(3) 0.0042(4)
C31_3 C 0.5362(3) 0.1092(3) 0.4033(4)
C32_3 C 0.4152(3) 0.2873(3) 0.0025(4)
C34_3 C 0.5425(4) 0.0991(3) 0.5136(4)
H21_3 H 0.5443 0.0948 0.5502
C35_3 C 0.5041(4) 0.1417(3) 0.3287(5)
H22_3 H 0.5021 0.1456 0.2921
C36_3 C 0.4146(4) 0.2855(3) 0.0570(4)
C38_3 C 0.6001(3) 0.0508(3) 0.4987(5)
C40_3 C 0.5107(3) 0.1295(3) 0.4384(4)
C41_3 C 0.4818(3) 0.1572(3) 0.4191(4)
H23_3 H 0.4657 0.1714 0.4425
C42_3 C 0.4787(3) 0.1622(3) 0.3652(4)
C45_3 C 0.5704(3) 0.0783(3) 0.4761(4)
C47_3 C 0.4395(4) 0.2540(3) 0.0858(5)
C48_3 C 0.4481(3) 0.1913(2) 0.3444(4)
O1_3 O 0.5485(4) 0.1416(4) 0.1221(6)
O2_3 O 0.5375(4) 0.1645(3) 0.0403(6)
O3_3 O 0.4384(3) 0.2538(2) 0.1350(4)
O5_3 O 0.6144(3) 0.4707(2) 0.1600(4)
O7_3 O 0.4625(3) 0.2330(2) 0.0581(3)
O8_3 O 0.5993(2) 0.0416(2) 0.5459(3)
O9_3 O 0.6260(2) 0.03729(19) 0.4648(4)
O10_3 O 0.4471(3) 0.1958(2) 0.2953(3)
O12_3 O 0.4263(2) 0.28040(18) 0.2610(3)
O14_3 O 0.5915(2) 0.4503(2) 0.0822(4)
O15_3 O 0.4445(3) 0.3022(2) 0.3373(4)
O16_3 O 0.4283(2) 0.2104(2) 0.3759(3)
Cd5_3 Cd 0.640255(18) 0.498146(14) 0.07975(2)
Cd8_3 Cd 0.692545(19) 0.025342(17) 0.46471(3)
O17_3 O 0.5096(2) 0.2343(2) 0.2152(4)
O18_3 O 0.3644(3) 0.2793(2) 0.4100(4)
O19_3 O 0.5408(3) 0.2370(3) 0.1374(5)
O22_3 O 0.4442(3) 0.1409(2) 0.0968(3)
O23_3 O 0.4595(2) 0.16718(17) 0.1731(3)
O24_3 O 0.3415(2) 0.2997(2) 0.3322(4)
C2_3 C 0.5958(5) 0.1072(4) 0.9986(10)
H2_3 H 0.5834 0.1200 0.9703
C5_3 C 0.6241(6) 0.0769(6) 0.9935(7)
C9_3 C 0.6569(4) 0.0431(4) 0.9218(4)
H6_3 H 0.6594 0.0389 0.8853
C12_3 C 0.6279(5) 0.0703(5) 0.9411(7)
H7_3 H 0.6114 0.0836 0.9171
C29_3 C 0.3648(4) 0.3422(3) 0.8936(5)
H18_3 H 0.3666 0.3457 0.8568
C30_3 C 0.3888(4) 0.3149(4) 0.9180(5)
H19_3 H 0.4044 0.2981 0.8976
H20_3 H 0.4330 0.2714 0.9838
C33_3 C 0.3896(4) 0.3123(3) 0.9744(4)
C39_3 C 0.3378(3) 0.3649(3) 0.9232(4)
C43_3 C 0.3398(3) 0.3648(3) 0.9759(4)
H24_3 H 0.3242 0.3825 0.9950
C44_3 C 0.6810(2) 0.0234(3) 0.9564(5)
C46_3 C 0.3101(3) 0.3935(2) 0.8952(4)
O11_3 O 0.3058(3) 0.3909(2) 0.8468(3)
O13_3 O 0.2905(2) 0.41718(17) 0.9231(3)
Cd6_3 Cd 0.251154(19) 0.441834(18) 0.85674(3)
Cd9_3 Cd 0.307455(19) 0.474658(17) 0.96471(3)
Cd4_3 Cd 0.640255(18) 0.998146(14) 0.57975(2)
C37_3 C 0.7132(3) 0.9961(3) 0.9357(6)
Cd1_3 Cd 0.109745(18) 0.248146(14) 0.32975(2)
Cd2_4 Cd 0.001154(19) 0.308166(18) 0.10674(3)
Cd3_3 Cd 0.057455(19) 0.275342(17) 0.21471(3)
H3_4 H 0.0064 0.1534 0.1231
C13_4 C 0.0027(5) 0.1441(4) 0.2911(12)
H8_4 H 0.0093 0.1455 0.3272
C16_4 C 0.1105(5) 0.1895(4) 0.0841(5)
H10_4 H 0.1112 0.1906 0.1211
C17_4 C 0.0241(4) 0.1689(3) 0.2620(9)
C18_4 C 0.0208(5) 0.1661(4) 0.2121(9)
H11_4 H 0.0359 0.1811 0.1884
C21_4 C 0.1332(4) 0.1644(4) 0.0600(5)
H14_4 H 0.1489 0.1475 0.0802
C25_4 C 0.0531(3) 0.1972(2) 0.2893(5)
H17_4 H 0.0009 0.3629 0.5185
C28_4 C 0.1347(3) 0.1619(3) 0.0042(4)
C32_4 C 0.0848(3) 0.2127(3) 0.0025(4)
C36_4 C 0.0854(4) 0.2145(3) 0.0570(4)
C41_4 C 0.0182(3) 0.3428(3) 0.4191(4)
H23_4 H 0.0343 0.3286 0.4425
C42_4 C 0.0213(3) 0.3378(3) 0.3652(4)
C47_4 C 0.0605(4) 0.2460(3) 0.0858(5)
C48_4 C 0.0519(3) 0.3087(2) 0.3444(4)
O3_4 O 0.0616(3) 0.2462(2) 0.1350(4)
O7_4 O 0.0375(3) 0.2670(2) 0.0581(3)
O10_4 O 0.0529(3) 0.3042(2) 0.2953(3)
O12_4 O 0.0737(2) 0.21960(18) 0.2610(3)
O15_4 O 0.0555(3) 0.1978(2) 0.3373(4)
O16_4 O 0.0717(2) 0.2896(2) 0.3759(3)
O18_4 O 0.1356(3) 0.2207(2) 0.4100(4)
O20_3 O 0.1507(2) 0.2916(2) 0.2959(3)
O21_3 O 0.1240(2) 0.28729(19) 0.2148(4)
O22_4 O 0.0558(3) 0.3591(2) 0.0968(3)
O23_4 O 0.0405(2) 0.33282(17) 0.1731(3)
O24_4 O 0.1585(2) 0.2003(2) 0.3322(4)
C29_4 C 0.1352(4) 0.1578(3) 0.8936(5)
H18_4 H 0.1334 0.1543 0.8568
C30_4 C 0.1112(4) 0.1851(4) 0.9180(5)
H19_4 H 0.0956 0.2019 0.8976
H20_4 H 0.0670 0.2286 0.9838
C33_4 C 0.1104(4) 0.1877(3) 0.9744(4)
C39_4 C 0.1622(3) 0.1351(3) 0.9232(4)
C43_4 C 0.1602(3) 0.1352(3) 0.9759(4)
H24_4 H 0.1758 0.1175 0.9950
C46_4 C 0.1899(3) 0.1065(2) 0.8952(4)
C1_4 C 0.8862(6) 0.4045(5) 0.0896(9)
H1_4 H 0.8921 0.4000 0.1254
C3_4 C 0.9723(4) 0.1156(3) 0.2296(4)
C4_4 C 0.9897(8) 0.1371(7) 0.1429(8)
C6_4 C 0.8215(4) 0.4693(4) 0.0114(5)
H4_4 H 0.8053 0.4832 0.0350
C7_4 C 0.8518(7) 0.4317(7) 0.0827(7)
H5_4 H 0.8352 0.4406 0.1102
C8_4 C 0.9114(5) 0.3844(4) 0.0564(9)
C10_4 C 0.8477(6) 0.4420(7) 0.0300(6)
C11_4 C 0.9875(5) 0.1335(5) 0.1926(6)
C14_4 C 0.9439(5) 0.3559(5) 0.0742(7)
C15_4 C 0.9585(5) 0.1080(5) 0.1235(13)
H9_4 H 0.9526 0.1071 0.0872
C19_4 C 0.9681(4) 0.3842(4) 0.3496(5)
H12_4 H 0.9515 0.3978 0.3261
C20_4 C 0.9402(5) 0.0843(4) 0.2106(9)
H13_4 H 0.9251 0.0698 0.2348
C22_4 C 0.9092(4) 0.0521(4) 0.1310(7)
C23_4 C 0.9739(6) 0.1174(5) 0.2815(7)
H15_4 H 0.9587 0.1034 0.3061
C24_4 C 0.9361(4) 0.0799(4) 0.1606(7)
C26_4 C 0.9343(3) 0.4167(3) 0.4248(4)
H16_4 H 0.9177 0.4306 0.4014
C27_4 C 0.9845(3) 0.3766(4) 0.4948(4)
C31_4 C 0.9638(3) 0.3908(3) 0.4033(4)
C34_4 C 0.9575(4) 0.4009(3) 0.5136(4)
H21_4 H 0.9557 0.4052 0.5502
C35_4 C 0.9959(4) 0.3583(3) 0.3287(5)
H22_4 H 0.9979 0.3544 0.2921
C38_4 C 0.8999(3) 0.4492(3) 0.4987(5)
C40_4 C 0.9893(3) 0.3705(3) 0.4384(4)
C45_4 C 0.9296(3) 0.4217(3) 0.4761(4)
O1_4 O 0.9515(4) 0.3584(4) 0.1221(6)
O2_4 O 0.9625(4) 0.3355(3) 0.0403(6)
O8_4 O 0.9007(2) 0.4584(2) 0.5459(3)
O9_4 O 0.8740(2) 0.46271(19) 0.4648(4)
Cd4_4 Cd 0.859745(18) 0.501854(14) 0.57975(2)
Cd8_4 Cd 0.807455(19) 0.474658(17) 0.46471(3)
O17_4 O 0.9904(2) 0.2657(2) 0.2152(4)
O19_4 O 0.9592(3) 0.2630(3) 0.1374(5)
C2_4 C 0.9042(5) 0.3928(4) 0.9986(10)
H2_4 H 0.9166 0.3800 0.9703
C5_4 C 0.8759(6) 0.4231(6) 0.9935(7)
C9_4 C 0.8431(4) 0.4569(4) 0.9218(4)
H6_4 H 0.8406 0.4611 0.8853
C12_4 C 0.8721(5) 0.4297(5) 0.9411(7)
H7_4 H 0.8886 0.4164 0.9171
C37_4 C 0.7868(3) 0.5039(3) 0.9357(6)
C44_4 C 0.8190(2) 0.4766(3) 0.9564(5)
O4_3 O 0.7596(2) 0.5157(2) 0.9652(4)
O6_3 O 0.7908(3) 0.5130(3) 0.8874(5)
Cd7_3 Cd 0.748846(19) 0.558166(18) 0.85674(3)
Cd10_3 Cd 0.692545(19) 0.525342(17) 0.96471(3)
Cd1_4 Cd 0.140255(18) 0.498146(14) 0.57975(2)
Cd2_5 Cd 0.248846(19) 0.558166(18) 0.35674(3)
Cd3_4 Cd 0.192545(19) 0.525342(17) 0.46471(3)
C1_5 C 0.3638(6) 0.6545(5) 0.3396(9)
H1_5 H 0.3579 0.6500 0.3754
C2_5 C 0.3458(5) 0.6428(4) 0.2486(10)
H2_5 H 0.3334 0.6300 0.2203
C3_5 C 0.2777(4) 0.3656(3) 0.4796(4)
C4_5 C 0.2603(8) 0.3871(7) 0.3929(8)
H3_5 H 0.2436 0.4034 0.3731
C5_5 C 0.3741(6) 0.6731(6) 0.2435(7)
C6_5 C 0.4285(4) 0.7193(4) 0.2614(5)
H4_5 H 0.4447 0.7332 0.2850
C7_5 C 0.3982(7) 0.6817(7) 0.3327(7)
H5_5 H 0.4148 0.6906 0.3602
C8_5 C 0.3386(5) 0.6344(4) 0.3064(9)
C9_5 C 0.4069(4) 0.7069(4) 0.1718(4)
H6_5 H 0.4094 0.7111 0.1353
C10_5 C 0.4023(6) 0.6920(7) 0.2800(6)
C11_5 C 0.2625(5) 0.3835(5) 0.4426(6)
C12_5 C 0.3779(5) 0.6797(5) 0.1911(7)
H7_5 H 0.3614 0.6664 0.1671
C13_5 C 0.2473(5) 0.3941(4) 0.5411(12)
H8_5 H 0.2407 0.3955 0.5772
C14_5 C 0.3061(5) 0.6059(5) 0.3242(7)
C15_5 C 0.2915(5) 0.3580(5) 0.3735(13)
H9_5 H 0.2974 0.3571 0.3372
C16_5 C 0.1395(5) 0.4395(4) 0.3341(5)
H10_5 H 0.1388 0.4406 0.3711
C17_5 C 0.2259(4) 0.4189(3) 0.5120(9)
C18_5 C 0.2292(5) 0.4161(4) 0.4621(9)
H11_5 H 0.2141 0.4311 0.4384
C19_5 C 0.2819(4) 0.6342(4) 0.5996(5)
H12_5 H 0.2985 0.6478 0.5761
C20_5 C 0.3098(5) 0.3343(4) 0.4606(9)
H13_5 H 0.3249 0.3198 0.4848
C21_5 C 0.1168(4) 0.4144(4) 0.3100(5)
H14_5 H 0.1011 0.3975 0.3302
C22_5 C 0.3408(4) 0.3021(4) 0.3810(7)
C23_5 C 0.2761(6) 0.3674(5) 0.5315(7)
H15_5 H 0.2913 0.3534 0.5561
C24_5 C 0.3139(4) 0.3299(4) 0.4106(7)
C25_5 C 0.1969(3) 0.4472(2) 0.5393(5)
C26_5 C 0.3157(3) 0.6667(3) 0.6748(4)
H16_5 H 0.3323 0.6806 0.6514
C27_5 C 0.2655(3) 0.6266(4) 0.7448(4)
H17_5 H 0.2491 0.6129 0.7685
C28_5 C 0.1153(3) 0.4119(3) 0.2542(4)
C29_5 C 0.1148(4) 0.4078(3) 0.1436(5)
H18_5 H 0.1166 0.4043 0.1068
C30_5 C 0.1388(4) 0.4351(4) 0.1680(5)
H19_5 H 0.1544 0.4519 0.1476
C31_5 C 0.2862(3) 0.6408(3) 0.6533(4)
C32_5 C 0.1652(3) 0.4627(3) 0.2525(4)
H20_5 H 0.1830 0.4786 0.2338
C33_5 C 0.1396(4) 0.4377(3) 0.2244(4)
C34_5 C 0.2925(4) 0.6509(3) 0.7636(4)
H21_5 H 0.2943 0.6552 0.8002
C35_5 C 0.2541(4) 0.6083(3) 0.5787(5)
H22_5 H 0.2521 0.6044 0.5421
C36_5 C 0.1646(4) 0.4645(3) 0.3070(4)
C37_5 C 0.4632(3) 0.7539(3) 0.1857(6)
C38_5 C 0.3501(3) 0.6992(3) 0.7487(5)
C39_5 C 0.0878(3) 0.3851(3) 0.1732(4)
C40_5 C 0.2607(3) 0.6205(3) 0.6884(4)
C41_5 C 0.2318(3) 0.5928(3) 0.6691(4)
H23_5 H 0.2157 0.5786 0.6925
C42_5 C 0.2287(3) 0.5878(3) 0.6152(4)
C43_5 C 0.0898(3) 0.3852(3) 0.2259(4)
H24_5 H 0.0742 0.3675 0.2450
C44_5 C 0.4310(2) 0.7266(3) 0.2064(5)
C45_5 C 0.3204(3) 0.6717(3) 0.7261(4)
C46_5 C 0.0601(3) 0.3565(2) 0.1452(4)
C47_5 C 0.1895(4) 0.4960(3) 0.3358(5)
C48_5 C 0.1981(3) 0.5587(2) 0.5944(4)
O1_5 O 0.2985(4) 0.6084(4) 0.3721(6)
O2_5 O 0.2875(4) 0.5855(3) 0.2903(6)
O3_5 O 0.1884(3) 0.4962(2) 0.3850(4)
O4_4 O 0.4904(2) 0.7657(2) 0.2152(4)
O6_4 O 0.4592(3) 0.7630(3) 0.1374(5)
O7_5 O 0.2125(3) 0.5170(2) 0.3081(3)
O8_5 O 0.3493(2) 0.7084(2) 0.7959(3)
O9_5 O 0.3760(2) 0.71271(19) 0.7148(4)
O10_5 O 0.1971(3) 0.5542(2) 0.5453(3)
O12_5 O 0.1763(2) 0.46960(18) 0.5110(3)
O15_5 O 0.1945(3) 0.4478(2) 0.5873(4)
O16_5 O 0.1783(2) 0.5396(2) 0.6259(3)
Cd7_4 Cd 0.501154(19) 0.808166(18) 0.10674(3)
O17_5 O 0.2596(2) 0.5157(2) 0.4652(4)
O18_5 O 0.1144(3) 0.4707(2) 0.6600(4)
O19_5 O 0.2908(3) 0.5130(3) 0.3874(5)
O20_4 O 0.0993(2) 0.5416(2) 0.5459(3)
O21_4 O 0.1260(2) 0.53729(19) 0.4648(4)
O22_5 O 0.1942(3) 0.6091(2) 0.3468(3)
O23_5 O 0.2095(2) 0.58282(17) 0.4231(3)
O24_5 O 0.0915(2) 0.4503(2) 0.5822(4)
Cd2_6 Cd 0.751154(19) 0.441834(18) 0.35674(3)
C1_6 C 0.6362(6) 0.3455(5) 0.3396(9)
H1_6 H 0.6421 0.3500 0.3754
C2_6 C 0.6542(5) 0.3572(4) 0.2486(10)
H2_6 H 0.6666 0.3700 0.2203
C3_6 C 0.7223(4) 0.6344(3) 0.4796(4)
C4_6 C 0.7397(8) 0.6129(7) 0.3929(8)
H3_6 H 0.7564 0.5966 0.3731
C5_6 C 0.6259(6) 0.3269(6) 0.2435(7)
C6_6 C 0.5715(4) 0.2807(4) 0.2614(5)
H4_6 H 0.5553 0.2668 0.2850
C7_6 C 0.6018(7) 0.3183(7) 0.3327(7)
H5_6 H 0.5852 0.3094 0.3602
C8_6 C 0.6614(5) 0.3656(4) 0.3064(9)
C9_6 C 0.5931(4) 0.2931(4) 0.1718(4)
H6_6 H 0.5906 0.2889 0.1353
C10_6 C 0.5977(6) 0.3080(7) 0.2800(6)
C11_6 C 0.7375(5) 0.6165(5) 0.4426(6)
C12_6 C 0.6221(5) 0.3203(5) 0.1911(7)
H7_6 H 0.6386 0.3336 0.1671
C13_6 C 0.7527(5) 0.6059(4) 0.5411(12)
H8_6 H 0.7593 0.6045 0.5772
C14_6 C 0.6939(5) 0.3941(5) 0.3242(7)
C15_6 C 0.7085(5) 0.6420(5) 0.3735(13)
H9_6 H 0.7026 0.6429 0.3372
C16_6 C 0.8605(5) 0.5605(4) 0.3341(5)
H10_6 H 0.8612 0.5594 0.3711
C17_6 C 0.7741(4) 0.5811(3) 0.5120(9)
C18_6 C 0.7708(5) 0.5839(4) 0.4621(9)
H11_6 H 0.7859 0.5689 0.4384
C19_6 C 0.7181(4) 0.3658(4) 0.5996(5)
H12_6 H 0.7015 0.3522 0.5761
C20_6 C 0.6902(5) 0.6657(4) 0.4606(9)
H13_6 H 0.6751 0.6802 0.4848
C21_6 C 0.8832(4) 0.5856(4) 0.3100(5)
H14_6 H 0.8989 0.6025 0.3302
C22_6 C 0.6592(4) 0.6979(4) 0.3810(7)
C23_6 C 0.7239(6) 0.6326(5) 0.5315(7)
H15_6 H 0.7087 0.6466 0.5561
C24_6 C 0.6861(4) 0.6701(4) 0.4106(7)
C25_6 C 0.8031(3) 0.5528(2) 0.5393(5)
C26_6 C 0.6843(3) 0.3333(3) 0.6748(4)
H16_6 H 0.6677 0.3194 0.6514
C27_6 C 0.7345(3) 0.3734(4) 0.7448(4)
H17_6 H 0.7509 0.3871 0.7685
C28_6 C 0.8847(3) 0.5881(3) 0.2542(4)
C29_6 C 0.8852(4) 0.5922(3) 0.1436(5)
H18_6 H 0.8834 0.5957 0.1068
C30_6 C 0.8612(4) 0.5649(4) 0.1680(5)
H19_6 H 0.8456 0.5481 0.1476
C31_6 C 0.7138(3) 0.3592(3) 0.6533(4)
C32_6 C 0.8348(3) 0.5373(3) 0.2525(4)
H20_6 H 0.8170 0.5214 0.2338
C33_6 C 0.8604(4) 0.5623(3) 0.2244(4)
C34_6 C 0.7075(4) 0.3491(3) 0.7636(4)
H21_6 H 0.7057 0.3448 0.8002
C35_6 C 0.7459(4) 0.3917(3) 0.5787(5)
H22_6 H 0.7479 0.3956 0.5421
C36_6 C 0.8354(4) 0.5355(3) 0.3070(4)
C37_6 C 0.5368(3) 0.2461(3) 0.1857(6)
C38_6 C 0.6499(3) 0.3008(3) 0.7487(5)
C39_6 C 0.9122(3) 0.6149(3) 0.1732(4)
C40_6 C 0.7393(3) 0.3795(3) 0.6884(4)
C41_6 C 0.7682(3) 0.4072(3) 0.6691(4)
H23_6 H 0.7843 0.4214 0.6925
C42_6 C 0.7713(3) 0.4122(3) 0.6152(4)
C43_6 C 0.9102(3) 0.6148(3) 0.2259(4)
H24_6 H 0.9258 0.6325 0.2450
C44_6 C 0.5690(2) 0.2734(3) 0.2064(5)
C45_6 C 0.6796(3) 0.3283(3) 0.7261(4)
C46_6 C 0.9399(3) 0.6435(2) 0.1452(4)
C47_6 C 0.8105(4) 0.5040(3) 0.3358(5)
C48_6 C 0.8019(3) 0.4413(2) 0.5944(4)
O1_6 O 0.7015(4) 0.3916(4) 0.3721(6)
O2_6 O 0.7125(4) 0.4145(3) 0.2903(6)
O3_6 O 0.8116(3) 0.5038(2) 0.3850(4)
O5_4 O 0.6356(3) 0.7207(2) 0.4100(4)
O7_6 O 0.7875(3) 0.4830(2) 0.3081(3)
O8_6 O 0.6507(2) 0.2916(2) 0.7959(3)
O9_6 O 0.6240(2) 0.28729(19) 0.7148(4)
O10_6 O 0.8029(3) 0.4458(2) 0.5453(3)
O11_4 O 0.9442(3) 0.6409(2) 0.0968(3)
O12_6 O 0.8237(2) 0.53040(18) 0.5110(3)
O13_4 O 0.9595(2) 0.66718(17) 0.1731(3)
O14_4 O 0.6585(2) 0.7003(2) 0.3322(4)
O15_6 O 0.8055(3) 0.5522(2) 0.5873(4)
O16_6 O 0.8217(2) 0.4604(2) 0.6259(3)
Cd6_4 Cd 0.998846(19) 0.691834(18) 0.10674(3)
Cd9_4 Cd 0.942545(19) 0.724658(17) 0.21471(3)
O17_6 O 0.7404(2) 0.4843(2) 0.4652(4)
O18_6 O 0.8856(3) 0.5293(2) 0.6600(4)
O19_6 O 0.7092(3) 0.4870(3) 0.3874(5)
O22_6 O 0.8058(3) 0.3909(2) 0.3468(3)
O23_6 O 0.7905(2) 0.41718(17) 0.4231(3)
O24_6 O 0.9085(2) 0.5497(2) 0.5822(4)
H17_7 H 0.4991 0.6371 0.0185
C34_7 C 0.5425(4) 0.5991(3) 0.0136(4)
H21_7 H 0.5443 0.5948 0.0502
O8_7 O 0.5993(2) 0.5416(2) 0.0459(3)
C1_7 C 0.6138(6) 0.5955(5) 0.5896(9)
H1_7 H 0.6079 0.6000 0.6254
C2_7 C 0.5958(5) 0.6072(4) 0.4986(10)
H2_7 H 0.5834 0.6200 0.4703
C3_7 C 0.5277(4) 0.8844(3) 0.7296(4)
C4_7 C 0.5103(8) 0.8629(7) 0.6429(8)
H3_7 H 0.4936 0.8466 0.6231
C5_7 C 0.6241(6) 0.5769(6) 0.4935(7)
C6_7 C 0.6785(4) 0.5307(4) 0.5114(5)
H4_7 H 0.6947 0.5168 0.5350
C7_7 C 0.6482(7) 0.5683(7) 0.5827(7)
H5_7 H 0.6648 0.5594 0.6102
C8_7 C 0.5886(5) 0.6156(4) 0.5564(9)
C9_7 C 0.6569(4) 0.5431(4) 0.4218(4)
H6_7 H 0.6594 0.5389 0.3853
C10_7 C 0.6523(6) 0.5580(7) 0.5300(6)
C11_7 C 0.5125(5) 0.8665(5) 0.6926(6)
C12_7 C 0.6279(5) 0.5703(5) 0.4411(7)
H7_7 H 0.6114 0.5836 0.4171
C13_7 C 0.4973(5) 0.8559(4) 0.7911(12)
H8_7 H 0.4907 0.8545 0.8272
C14_7 C 0.5561(5) 0.6441(5) 0.5742(7)
C15_7 C 0.5415(5) 0.8920(5) 0.6235(13)
H9_7 H 0.5474 0.8929 0.5872
C16_7 C 0.3895(5) 0.8105(4) 0.5841(5)
H10_7 H 0.3888 0.8094 0.6211
C17_7 C 0.4759(4) 0.8311(3) 0.7620(9)
C18_7 C 0.4792(5) 0.8339(4) 0.7121(9)
H11_7 H 0.4641 0.8189 0.6884
C19_7 C 0.5319(4) 0.6158(4) 0.8496(5)
H12_7 H 0.5485 0.6022 0.8261
C20_7 C 0.5598(5) 0.9157(4) 0.7106(9)
H13_7 H 0.5749 0.9302 0.7348
C21_7 C 0.3668(4) 0.8356(4) 0.5600(5)
H14_7 H 0.3511 0.8525 0.5802
C22_7 C 0.5908(4) 0.9479(4) 0.6310(7)
C23_7 C 0.5261(6) 0.8826(5) 0.7815(7)
H15_7 H 0.5413 0.8966 0.8061
C24_7 C 0.5639(4) 0.9201(4) 0.6606(7)
C25_7 C 0.4469(3) 0.8028(2) 0.7893(5)
C26_7 C 0.5657(3) 0.5833(3) 0.9248(4)
H16_7 H 0.5823 0.5694 0.9014
C27_7 C 0.5155(3) 0.6234(4) 0.9948(4)
C28_7 C 0.3653(3) 0.8381(3) 0.5042(4)
C29_7 C 0.3648(4) 0.8422(3) 0.3936(5)
H18_7 H 0.3666 0.8457 0.3568
C30_7 C 0.3888(4) 0.8149(4) 0.4180(5)
H19_7 H 0.4044 0.7981 0.3976
C31_7 C 0.5362(3) 0.6092(3) 0.9033(4)
C32_7 C 0.4152(3) 0.7873(3) 0.5025(4)
H20_7 H 0.4330 0.7714 0.4838
C33_7 C 0.3896(4) 0.8123(3) 0.4744(4)
C35_7 C 0.5041(4) 0.6417(3) 0.8287(5)
H22_7 H 0.5021 0.6456 0.7921
C36_7 C 0.4146(4) 0.7855(3) 0.5570(4)
C37_7 C 0.7132(3) 0.4961(3) 0.4357(6)
C38_7 C 0.6001(3) 0.5508(3) 0.9987(5)
C39_7 C 0.3378(3) 0.8649(3) 0.4232(4)
C40_7 C 0.5107(3) 0.6295(3) 0.9384(4)
C41_7 C 0.4818(3) 0.6572(3) 0.9191(4)
H23_7 H 0.4657 0.6714 0.9425
C42_7 C 0.4787(3) 0.6622(3) 0.8652(4)
C43_7 C 0.3398(3) 0.8648(3) 0.4759(4)
H24_7 H 0.3242 0.8825 0.4950
C44_7 C 0.6810(2) 0.5234(3) 0.4564(5)
C45_7 C 0.5704(3) 0.5783(3) 0.9761(4)
C46_7 C 0.3101(3) 0.8935(2) 0.3952(4)
C47_7 C 0.4395(4) 0.7540(3) 0.5858(5)
C48_7 C 0.4481(3) 0.6913(2) 0.8444(4)
O1_7 O 0.5485(4) 0.6416(4) 0.6221(6)
O2_7 O 0.5375(4) 0.6645(3) 0.5403(6)
O3_7 O 0.4384(3) 0.7538(2) 0.6350(4)
O5_5 O 0.6144(3) 0.9707(2) 0.6600(4)
O7_7 O 0.4625(3) 0.7330(2) 0.5581(3)
O9_7 O 0.6260(2) 0.53729(19) 0.9648(4)
O10_7 O 0.4471(3) 0.6958(2) 0.7953(3)
O11_5 O 0.3058(3) 0.8909(2) 0.3468(3)
O12_7 O 0.4263(2) 0.78040(18) 0.7610(3)
O13_5 O 0.2905(2) 0.91718(17) 0.4231(3)
O14_5 O 0.5915(2) 0.9503(2) 0.5822(4)
O15_7 O 0.4445(3) 0.8022(2) 0.8373(4)
O16_7 O 0.4283(2) 0.7104(2) 0.8759(3)
Cd6_5 Cd 0.251154(19) 0.941834(18) 0.35674(3)
Cd9_5 Cd 0.307455(19) 0.974658(17) 0.46471(3)
O22_7 O 0.4442(3) 0.6409(2) 0.5968(3)
O23_7 O 0.4595(2) 0.66718(17) 0.6731(3)
Cd1_5 Cd 0.109745(18) 0.748146(14) 0.82975(2)
H3_8 H 0.0064 0.6534 0.6231
C13_8 C 0.0027(5) 0.6441(4) 0.7911(12)
H8_8 H 0.0093 0.6455 0.8272
C16_8 C 0.1105(5) 0.6895(4) 0.5841(5)
H10_8 H 0.1112 0.6906 0.6211
C17_8 C 0.0241(4) 0.6689(3) 0.7620(9)
C18_8 C 0.0208(5) 0.6661(4) 0.7121(9)
H11_8 H 0.0359 0.6811 0.6884
C21_8 C 0.1332(4) 0.6644(4) 0.5600(5)
H14_8 H 0.1489 0.6475 0.5802
C25_8 C 0.0531(3) 0.6972(2) 0.7893(5)
C28_8 C 0.1347(3) 0.6619(3) 0.5042(4)
C29_8 C 0.1352(4) 0.6578(3) 0.3936(5)
H18_8 H 0.1334 0.6543 0.3568
C30_8 C 0.1112(4) 0.6851(4) 0.4180(5)
H19_8 H 0.0956 0.7019 0.3976
C32_8 C 0.0848(3) 0.7127(3) 0.5025(4)
H20_8 H 0.0670 0.7286 0.4838
C33_8 C 0.1104(4) 0.6877(3) 0.4744(4)
C36_8 C 0.0854(4) 0.7145(3) 0.5570(4)
C39_8 C 0.1622(3) 0.6351(3) 0.4232(4)
C41_8 C 0.0182(3) 0.8428(3) 0.9191(4)
H23_8 H 0.0343 0.8286 0.9425
C42_8 C 0.0213(3) 0.8378(3) 0.8652(4)
C43_8 C 0.1602(3) 0.6352(3) 0.4759(4)
H24_8 H 0.1758 0.6175 0.4950
C46_8 C 0.1899(3) 0.6065(2) 0.3952(4)
C47_8 C 0.0605(4) 0.7460(3) 0.5858(5)
C48_8 C 0.0519(3) 0.8087(2) 0.8444(4)
O3_8 O 0.0616(3) 0.7462(2) 0.6350(4)
O7_8 O 0.0375(3) 0.7670(2) 0.5581(3)
O10_8 O 0.0529(3) 0.8042(2) 0.7953(3)
O12_8 O 0.0737(2) 0.71960(18) 0.7610(3)
O15_8 O 0.0555(3) 0.6978(2) 0.8373(4)
O16_8 O 0.0717(2) 0.7896(2) 0.8759(3)
O18_7 O 0.1356(3) 0.7207(2) 0.9100(4)
O20_5 O 0.1507(2) 0.7916(2) 0.7959(3)
O21_5 O 0.1240(2) 0.78729(19) 0.7148(4)
O24_7 O 0.1585(2) 0.7003(2) 0.8322(4)
C37_8 C 0.7868(3) 0.0039(3) 0.4357(6)
O4_5 O 0.7596(2) 0.0157(2) 0.4652(4)
O6_5 O 0.7908(3) 0.0130(3) 0.3874(5)
Cd7_5 Cd 0.748846(19) 0.058166(18) 0.35674(3)
C34_8 C 0.9575(4) 0.9009(3) 0.0136(4)
H21_8 H 0.9557 0.9052 0.0502
C1_8 C 0.8862(6) 0.9045(5) 0.5896(9)
H1_8 H 0.8921 0.9000 0.6254
C2_8 C 0.9042(5) 0.8928(4) 0.4986(10)
H2_8 H 0.9166 0.8800 0.4703
C3_8 C 0.9723(4) 0.6156(3) 0.7296(4)
C4_8 C 0.9897(8) 0.6371(7) 0.6429(8)
C5_8 C 0.8759(6) 0.9231(6) 0.4935(7)
C6_8 C 0.8215(4) 0.9693(4) 0.5114(5)
H4_8 H 0.8053 0.9832 0.5350
C7_8 C 0.8518(7) 0.9317(7) 0.5827(7)
H5_8 H 0.8352 0.9406 0.6102
C8_8 C 0.9114(5) 0.8844(4) 0.5564(9)
C9_8 C 0.8431(4) 0.9569(4) 0.4218(4)
H6_8 H 0.8406 0.9611 0.3853
C10_8 C 0.8477(6) 0.9420(7) 0.5300(6)
C11_8 C 0.9875(5) 0.6335(5) 0.6926(6)
C12_8 C 0.8721(5) 0.9297(5) 0.4411(7)
H7_8 H 0.8886 0.9164 0.4171
C14_8 C 0.9439(5) 0.8559(5) 0.5742(7)
C15_8 C 0.9585(5) 0.6080(5) 0.6235(13)
H9_8 H 0.9526 0.6071 0.5872
C19_8 C 0.9681(4) 0.8842(4) 0.8496(5)
H12_8 H 0.9515 0.8978 0.8261
C20_8 C 0.9402(5) 0.5843(4) 0.7106(9)
H13_8 H 0.9251 0.5698 0.7348
C22_8 C 0.9092(4) 0.5521(4) 0.6310(7)
C23_8 C 0.9739(6) 0.6174(5) 0.7815(7)
H15_8 H 0.9587 0.6034 0.8061
C24_8 C 0.9361(4) 0.5799(4) 0.6606(7)
C26_8 C 0.9343(3) 0.9167(3) 0.9248(4)
H16_8 H 0.9177 0.9306 0.9014
C27_8 C 0.9845(3) 0.8766(4) 0.9948(4)
C31_8 C 0.9638(3) 0.8908(3) 0.9033(4)
C35_8 C 0.9959(4) 0.8583(3) 0.8287(5)
H22_8 H 0.9979 0.8544 0.7921
C38_8 C 0.8999(3) 0.9492(3) 0.9987(5)
C40_8 C 0.9893(3) 0.8705(3) 0.9384(4)
C44_8 C 0.8190(2) 0.9766(3) 0.4564(5)
C45_8 C 0.9296(3) 0.9217(3) 0.9761(4)
O1_8 O 0.9515(4) 0.8584(4) 0.6221(6)
O2_8 O 0.9625(4) 0.8355(3) 0.5403(6)
O17_7 O 0.9904(2) 0.7657(2) 0.7152(4)
O19_7 O 0.9592(3) 0.7630(3) 0.6374(5)
C1_9 C 0.8638(6) 0.1545(5) 0.3396(9)
H1_9 H 0.8579 0.1500 0.3754
C2_9 C 0.8458(5) 0.1428(4) 0.2486(10)
H2_9 H 0.8334 0.1300 0.2203
C5_9 C 0.8741(6) 0.1731(6) 0.2435(7)
C6_9 C 0.9285(4) 0.2193(4) 0.2614(5)
H4_9 H 0.9447 0.2332 0.2850
C7_9 C 0.8982(7) 0.1817(7) 0.3327(7)
H5_9 H 0.9148 0.1906 0.3602
C8_9 C 0.8386(5) 0.1344(4) 0.3064(9)
C9_9 C 0.9069(4) 0.2069(4) 0.1718(4)
H6_9 H 0.9094 0.2111 0.1353
C10_9 C 0.9023(6) 0.1920(7) 0.2800(6)
C12_9 C 0.8779(5) 0.1797(5) 0.1911(7)
H7_9 H 0.8614 0.1664 0.1671
C14_9 C 0.8061(5) 0.1059(5) 0.3242(7)
C19_9 C 0.7819(4) 0.1342(4) 0.5996(5)
H12_9 H 0.7985 0.1478 0.5761
C26_9 C 0.8157(3) 0.1667(3) 0.6748(4)
H16_9 H 0.8323 0.1806 0.6514
C27_9 C 0.7655(3) 0.1266(4) 0.7448(4)
H17_8 H 0.7491 0.1129 0.7685
C31_9 C 0.7862(3) 0.1408(3) 0.6533(4)
C34_9 C 0.7925(4) 0.1509(3) 0.7636(4)
H21_9 H 0.7943 0.1552 0.8002
C35_9 C 0.7541(4) 0.1083(3) 0.5787(5)
H22_9 H 0.7521 0.1044 0.5421
C37_9 C 0.9632(3) 0.2539(3) 0.1857(6)
C38_9 C 0.8501(3) 0.1992(3) 0.7487(5)
C40_9 C 0.7607(3) 0.1205(3) 0.6884(4)
C41_9 C 0.7318(3) 0.0928(3) 0.6691(4)
H23_9 H 0.7157 0.0786 0.6925
C42_9 C 0.7287(3) 0.0878(3) 0.6152(4)
C44_9 C 0.9310(2) 0.2266(3) 0.2064(5)
C45_9 C 0.8204(3) 0.1717(3) 0.7261(4)
C48_9 C 0.6981(3) 0.0587(2) 0.5944(4)
O1_9 O 0.7985(4) 0.1084(4) 0.3721(6)
O2_9 O 0.7875(4) 0.0855(3) 0.2903(6)
O7_9 O 0.7125(3) 0.0170(2) 0.3081(3)
O8_8 O 0.8493(2) 0.2084(2) 0.7959(3)
O9_8 O 0.8760(2) 0.21271(19) 0.7148(4)
O10_9 O 0.6971(3) 0.0542(2) 0.5453(3)
O16_9 O 0.6783(2) 0.0396(2) 0.6259(3)
Cd4_5 Cd 0.890255(18) 0.251854(14) 0.82975(2)
O22_8 O 0.6942(3) 0.1091(2) 0.3468(3)
O23_8 O 0.7095(2) 0.08282(17) 0.4231(3)
C3_9 C 0.7777(4) 0.8656(3) 0.4796(4)
C4_9 C 0.7603(8) 0.8871(7) 0.3929(8)
H3_9 H 0.7436 0.9034 0.3731
C11_9 C 0.7625(5) 0.8835(5) 0.4426(6)
C13_9 C 0.7473(5) 0.8941(4) 0.5411(12)
H8_9 H 0.7407 0.8955 0.5772
C15_9 C 0.7915(5) 0.8580(5) 0.3735(13)
H9_9 H 0.7974 0.8571 0.3372
C16_9 C 0.6395(5) 0.9395(4) 0.3341(5)
H10_9 H 0.6388 0.9406 0.3711
C17_9 C 0.7259(4) 0.9189(3) 0.5120(9)
C18_9 C 0.7292(5) 0.9161(4) 0.4621(9)
H11_9 H 0.7141 0.9311 0.4384
C20_9 C 0.8098(5) 0.8343(4) 0.4606(9)
H13_9 H 0.8249 0.8198 0.4848
C21_9 C 0.6168(4) 0.9144(4) 0.3100(5)
H14_9 H 0.6011 0.8975 0.3302
C22_9 C 0.8408(4) 0.8021(4) 0.3810(7)
C23_9 C 0.7761(6) 0.8674(5) 0.5315(7)
H15_9 H 0.7913 0.8534 0.5561
C24_9 C 0.8139(4) 0.8299(4) 0.4106(7)
C25_9 C 0.6969(3) 0.9472(2) 0.5393(5)
C28_9 C 0.6153(3) 0.9119(3) 0.2542(4)
C29_9 C 0.6148(4) 0.9078(3) 0.1436(5)
H18_9 H 0.6166 0.9043 0.1068
C30_9 C 0.6388(4) 0.9351(4) 0.1680(5)
H19_9 H 0.6544 0.9519 0.1476
C32_9 C 0.6652(3) 0.9627(3) 0.2525(4)
H20_9 H 0.6830 0.9786 0.2338
C33_9 C 0.6396(4) 0.9377(3) 0.2244(4)
C36_9 C 0.6646(4) 0.9645(3) 0.3070(4)
C39_9 C 0.5878(3) 0.8851(3) 0.1732(4)
C43_9 C 0.5898(3) 0.8852(3) 0.2259(4)
H24_9 H 0.5742 0.8675 0.2450
C46_9 C 0.5601(3) 0.8565(2) 0.1452(4)
C47_9 C 0.6895(4) 0.9960(3) 0.3358(5)
O3_9 O 0.6884(3) 0.9962(2) 0.3850(4)
O5_6 O 0.8644(3) 0.7793(2) 0.4100(4)
O11_6 O 0.5558(3) 0.8591(2) 0.0968(3)
O12_9 O 0.6763(2) 0.96960(18) 0.5110(3)
O13_6 O 0.5405(2) 0.83282(17) 0.1731(3)
O14_6 O 0.8415(2) 0.7997(2) 0.3322(4)
O15_9 O 0.6945(3) 0.9478(2) 0.5873(4)
Cd5_4 Cd 0.890255(18) 0.751854(14) 0.32975(2)
Cd1_6 Cd 0.359745(18) 0.001854(14) 0.57975(2)
C3_10 C 0.2223(4) 0.1344(3) 0.4796(4)
C4_10 C 0.2397(8) 0.1129(7) 0.3929(8)
H3_10 H 0.2564 0.0966 0.3731
C11_10 C 0.2375(5) 0.1165(5) 0.4426(6)
C13_10 C 0.2527(5) 0.1059(4) 0.5411(12)
H8_10 H 0.2593 0.1045 0.5772
C15_10 C 0.2085(5) 0.1420(5) 0.3735(13)
H9_10 H 0.2026 0.1429 0.3372
C16_10 C 0.3605(5) 0.0605(4) 0.3341(5)
H10_10 H 0.3612 0.0594 0.3711
C17_10 C 0.2741(4) 0.0811(3) 0.5120(9)
C18_10 C 0.2708(5) 0.0839(4) 0.4621(9)
H11_10 H 0.2859 0.0689 0.4384
C20_10 C 0.1902(5) 0.1657(4) 0.4606(9)
H13_10 H 0.1751 0.1802 0.4848
C21_10 C 0.3832(4) 0.0856(4) 0.3100(5)
H14_10 H 0.3989 0.1025 0.3302
C22_10 C 0.1592(4) 0.1979(4) 0.3810(7)
C23_10 C 0.2239(6) 0.1326(5) 0.5315(7)
H15_10 H 0.2087 0.1466 0.5561
C24_10 C 0.1861(4) 0.1701(4) 0.4106(7)
C25_10 C 0.3031(3) 0.0528(2) 0.5393(5)
C28_10 C 0.3847(3) 0.0881(3) 0.2542(4)
C29_10 C 0.3852(4) 0.0922(3) 0.1436(5)
H18_10 H 0.3834 0.0957 0.1068
C30_10 C 0.3612(4) 0.0649(4) 0.1680(5)
H19_10 H 0.3456 0.0481 0.1476
C32_10 C 0.3348(3) 0.0373(3) 0.2525(4)
H20_10 H 0.3170 0.0214 0.2338
C33_10 C 0.3604(4) 0.0623(3) 0.2244(4)
C36_10 C 0.3354(4) 0.0355(3) 0.3070(4)
C39_10 C 0.4122(3) 0.1149(3) 0.1732(4)
C43_10 C 0.4102(3) 0.1148(3) 0.2259(4)
H24_10 H 0.4258 0.1325 0.2450
C46_10 C 0.4399(3) 0.1435(2) 0.1452(4)
C47_10 C 0.3105(4) 0.0040(3) 0.3358(5)
O3_10 O 0.3116(3) 0.0038(2) 0.3850(4)
O12_10 O 0.3237(2) 0.03040(18) 0.5110(3)
O15_10 O 0.3055(3) 0.0522(2) 0.5873(4)
O18_8 O 0.3856(3) 0.0293(2) 0.6600(4)
O24_8 O 0.4085(2) 0.0497(2) 0.5822(4)
C1_10 C 0.1362(6) 0.8455(5) 0.3396(9)
H1_10 H 0.1421 0.8500 0.3754
C2_10 C 0.1542(5) 0.8572(4) 0.2486(10)
H2_10 H 0.1666 0.8700 0.2203
C5_10 C 0.1259(6) 0.8269(6) 0.2435(7)
C6_10 C 0.0715(4) 0.7807(4) 0.2614(5)
H4_10 H 0.0553 0.7668 0.2850
C7_10 C 0.1018(7) 0.8183(7) 0.3327(7)
H5_10 H 0.0852 0.8094 0.3602
C8_10 C 0.1614(5) 0.8656(4) 0.3064(9)
C9_10 C 0.0931(4) 0.7931(4) 0.1718(4)
H6_10 H 0.0906 0.7889 0.1353
C10_10 C 0.0977(6) 0.8080(7) 0.2800(6)
C12_10 C 0.1221(5) 0.8203(5) 0.1911(7)
H7_10 H 0.1386 0.8336 0.1671
C14_10 C 0.1939(5) 0.8941(5) 0.3242(7)
C19_10 C 0.2181(4) 0.8658(4) 0.5996(5)
H12_10 H 0.2015 0.8522 0.5761
C26_10 C 0.1843(3) 0.8333(3) 0.6748(4)
H16_10 H 0.1677 0.8194 0.6514
C27_10 C 0.2345(3) 0.8734(4) 0.7448(4)
H17_9 H 0.2509 0.8871 0.7685
C31_10 C 0.2138(3) 0.8592(3) 0.6533(4)
C34_10 C 0.2075(4) 0.8491(3) 0.7636(4)
H21_10 H 0.2057 0.8448 0.8002
C35_10 C 0.2459(4) 0.8917(3) 0.5787(5)
H22_10 H 0.2479 0.8956 0.5421
C37_10 C 0.0368(3) 0.7461(3) 0.1857(6)
C38_10 C 0.1499(3) 0.8008(3) 0.7487(5)
C40_10 C 0.2393(3) 0.8795(3) 0.6884(4)
C41_10 C 0.2682(3) 0.9072(3) 0.6691(4)
H23_10 H 0.2843 0.9214 0.6925
C42_10 C 0.2713(3) 0.9122(3) 0.6152(4)
C44_10 C 0.0690(2) 0.7734(3) 0.2064(5)
C45_10 C 0.1796(3) 0.8283(3) 0.7261(4)
C48_10 C 0.3019(3) 0.9413(2) 0.5944(4)
O1_10 O 0.2015(4) 0.8916(4) 0.3721(6)
O2_10 O 0.2125(4) 0.9145(3) 0.2903(6)
O4_6 O 0.0096(2) 0.7343(2) 0.2152(4)
O6_6 O 0.0408(3) 0.7370(3) 0.1374(5)
O7_10 O 0.2875(3) 0.9830(2) 0.3081(3)
O10_10 O 0.3029(3) 0.9458(2) 0.5453(3)
O16_10 O 0.3217(2) 0.9604(2) 0.6259(3)
O17_8 O 0.2404(2) 0.9843(2) 0.4652(4)
O19_8 O 0.2092(3) 0.9870(3) 0.3874(5)
O20_6 O 0.4007(2) 0.9584(2) 0.5459(3)
O21_6 O 0.3740(2) 0.96271(19) 0.4648(4)
C34_11 C 0.0425(4) 0.0991(3) 0.0136(4)
H21_11 H 0.0443 0.0948 0.0502
C1_11 C 0.1138(6) 0.0955(5) 0.5896(9)
H1_11 H 0.1079 0.1000 0.6254
C2_11 C 0.0958(5) 0.1072(4) 0.4986(10)
H2_11 H 0.0834 0.1200 0.4703
C3_11 C 0.0277(4) 0.3844(3) 0.7296(4)
C4_11 C 0.0103(8) 0.3629(7) 0.6429(8)
C5_11 C 0.1241(6) 0.0769(6) 0.4935(7)
C6_11 C 0.1785(4) 0.0307(4) 0.5114(5)
H4_11 H 0.1947 0.0168 0.5350
C7_11 C 0.1482(7) 0.0683(7) 0.5827(7)
H5_11 H 0.1648 0.0594 0.6102
C8_11 C 0.0886(5) 0.1156(4) 0.5564(9)
C9_11 C 0.1569(4) 0.0431(4) 0.4218(4)
H6_11 H 0.1594 0.0389 0.3853
C10_11 C 0.1523(6) 0.0580(7) 0.5300(6)
C11_11 C 0.0125(5) 0.3665(5) 0.6926(6)
C12_11 C 0.1279(5) 0.0703(5) 0.4411(7)
H7_11 H 0.1114 0.0836 0.4171
C14_11 C 0.0561(5) 0.1441(5) 0.5742(7)
C15_11 C 0.0415(5) 0.3920(5) 0.6235(13)
H9_11 H 0.0474 0.3929 0.5872
C19_11 C 0.0319(4) 0.1158(4) 0.8496(5)
H12_11 H 0.0485 0.1022 0.8261
C20_11 C 0.0598(5) 0.4157(4) 0.7106(9)
H13_11 H 0.0749 0.4302 0.7348
C22_11 C 0.0908(4) 0.4479(4) 0.6310(7)
C23_11 C 0.0261(6) 0.3826(5) 0.7815(7)
H15_11 H 0.0413 0.3966 0.8061
C24_11 C 0.0639(4) 0.4201(4) 0.6606(7)
C26_11 C 0.0657(3) 0.0833(3) 0.9248(4)
H16_11 H 0.0823 0.0694 0.9014
C27_11 C 0.0155(3) 0.1234(4) 0.9948(4)
C31_11 C 0.0362(3) 0.1092(3) 0.9033(4)
C35_11 C 0.0041(4) 0.1417(3) 0.8287(5)
H22_11 H 0.0021 0.1456 0.7921
C38_11 C 0.1001(3) 0.0508(3) 0.9987(5)
C40_11 C 0.0107(3) 0.1295(3) 0.9384(4)
C44_11 C 0.1810(2) 0.0234(3) 0.4564(5)
C45_11 C 0.0704(3) 0.0783(3) 0.9761(4)
O1_11 O 0.0485(4) 0.1416(4) 0.6221(6)
O2_11 O 0.0375(4) 0.1645(3) 0.5403(6)
O17_9 O 0.0096(2) 0.2343(2) 0.7152(4)
O19_9 O 0.0408(3) 0.2370(3) 0.6374(5)
C37_11 C 0.2132(3) 0.9961(3) 0.4357(6)
H3_11 H 0.9936 0.3466 0.6231
C13_11 C 0.9973(5) 0.3559(4) 0.7911(12)
H8_11 H 0.9907 0.3545 0.8272
C16_11 C 0.8895(5) 0.3105(4) 0.5841(5)
H10_11 H 0.8888 0.3094 0.6211
C17_11 C 0.9759(4) 0.3311(3) 0.7620(9)
C18_11 C 0.9792(5) 0.3339(4) 0.7121(9)
H11_11 H 0.9641 0.3189 0.6884
C21_11 C 0.8668(4) 0.3356(4) 0.5600(5)
H14_11 H 0.8511 0.3525 0.5802
C25_11 C 0.9469(3) 0.3028(2) 0.7893(5)
C28_11 C 0.8653(3) 0.3381(3) 0.5042(4)
C29_11 C 0.8648(4) 0.3422(3) 0.3936(5)
H18_11 H 0.8666 0.3457 0.3568
C30_11 C 0.8888(4) 0.3149(4) 0.4180(5)
H19_11 H 0.9044 0.2981 0.3976
C32_11 C 0.9152(3) 0.2873(3) 0.5025(4)
H20_11 H 0.9330 0.2714 0.4838
C33_11 C 0.8896(4) 0.3123(3) 0.4744(4)
C36_11 C 0.9146(4) 0.2855(3) 0.5570(4)
C39_11 C 0.8378(3) 0.3649(3) 0.4232(4)
C41_11 C 0.9818(3) 0.1572(3) 0.9191(4)
H23_11 H 0.9657 0.1714 0.9425
C42_11 C 0.9787(3) 0.1622(3) 0.8652(4)
C43_11 C 0.8398(3) 0.3648(3) 0.4759(4)
H24_11 H 0.8242 0.3825 0.4950
C46_11 C 0.8101(3) 0.3935(2) 0.3952(4)
C47_11 C 0.9395(4) 0.2540(3) 0.5858(5)
C48_11 C 0.9481(3) 0.1913(2) 0.8444(4)
O3_11 O 0.9384(3) 0.2538(2) 0.6350(4)
O7_11 O 0.9625(3) 0.2330(2) 0.5581(3)
O10_11 O 0.9471(3) 0.1958(2) 0.7953(3)
O12_11 O 0.9263(2) 0.28040(18) 0.7610(3)
O15_11 O 0.9445(3) 0.3022(2) 0.8373(4)
O16_11 O 0.9283(2) 0.2104(2) 0.8759(3)
O18_9 O 0.8644(3) 0.2793(2) 0.9100(4)
O24_9 O 0.8415(2) 0.2997(2) 0.8322(4)
H17_10 H 0.5009 0.3629 0.0185
C34_12 C 0.4575(4) 0.4009(3) 0.0136(4)
H21_12 H 0.4557 0.4052 0.0502
O8_9 O 0.4007(2) 0.4584(2) 0.0459(3)
Cd4_6 Cd 0.359745(18) 0.501854(14) 0.07975(2)
C1_12 C 0.3862(6) 0.4045(5) 0.5896(9)
H1_12 H 0.3921 0.4000 0.6254
C2_12 C 0.4042(5) 0.3928(4) 0.4986(10)
H2_12 H 0.4166 0.3800 0.4703
C3_12 C 0.4723(4) 0.1156(3) 0.7296(4)
C4_12 C 0.4897(8) 0.1371(7) 0.6429(8)
H3_12 H 0.5064 0.1534 0.6231
C5_12 C 0.3759(6) 0.4231(6) 0.4935(7)
C6_12 C 0.3215(4) 0.4693(4) 0.5114(5)
H4_12 H 0.3053 0.4832 0.5350
C7_12 C 0.3518(7) 0.4317(7) 0.5827(7)
H5_12 H 0.3352 0.4406 0.6102
C8_12 C 0.4114(5) 0.3844(4) 0.5564(9)
C9_12 C 0.3431(4) 0.4569(4) 0.4218(4)
H6_12 H 0.3406 0.4611 0.3853
C10_12 C 0.3477(6) 0.4420(7) 0.5300(6)
C11_12 C 0.4875(5) 0.1335(5) 0.6926(6)
C12_12 C 0.3721(5) 0.4297(5) 0.4411(7)
H7_12 H 0.3886 0.4164 0.4171
C13_12 C 0.5027(5) 0.1441(4) 0.7911(12)
H8_12 H 0.5093 0.1455 0.8272
C14_12 C 0.4439(5) 0.3559(5) 0.5742(7)
C15_12 C 0.4585(5) 0.1080(5) 0.6235(13)
H9_12 H 0.4526 0.1071 0.5872
C16_12 C 0.6105(5) 0.1895(4) 0.5841(5)
H10_12 H 0.6112 0.1906 0.6211
C17_12 C 0.5241(4) 0.1689(3) 0.7620(9)
C18_12 C 0.5208(5) 0.1661(4) 0.7121(9)
H11_12 H 0.5359 0.1811 0.6884
C19_12 C 0.4681(4) 0.3842(4) 0.8496(5)
H12_12 H 0.4515 0.3978 0.8261
C20_12 C 0.4402(5) 0.0843(4) 0.7106(9)
H13_12 H 0.4251 0.0698 0.7348
C21_12 C 0.6332(4) 0.1644(4) 0.5600(5)
H14_12 H 0.6489 0.1475 0.5802
C22_12 C 0.4092(4) 0.0521(4) 0.6310(7)
C23_12 C 0.4739(6) 0.1174(5) 0.7815(7)
H15_12 H 0.4587 0.1034 0.8061
C24_12 C 0.4361(4) 0.0799(4) 0.6606(7)
C25_12 C 0.5531(3) 0.1972(2) 0.7893(5)
C26_12 C 0.4343(3) 0.4167(3) 0.9248(4)
H16_12 H 0.4177 0.4306 0.9014
C27_12 C 0.4845(3) 0.3766(4) 0.9948(4)
C28_12 C 0.6347(3) 0.1619(3) 0.5042(4)
C29_12 C 0.6352(4) 0.1578(3) 0.3936(5)
H18_12 H 0.6334 0.1543 0.3568
C30_12 C 0.6112(4) 0.1851(4) 0.4180(5)
H19_12 H 0.5956 0.2019 0.3976
C31_12 C 0.4638(3) 0.3908(3) 0.9033(4)
C32_12 C 0.5848(3) 0.2127(3) 0.5025(4)
H20_12 H 0.5670 0.2286 0.4838
C33_12 C 0.6104(4) 0.1877(3) 0.4744(4)
C35_12 C 0.4959(4) 0.3583(3) 0.8287(5)
H22_12 H 0.4979 0.3544 0.7921
C36_12 C 0.5854(4) 0.2145(3) 0.5570(4)
C37_12 C 0.2868(3) 0.5039(3) 0.4357(6)
C38_12 C 0.3999(3) 0.4492(3) 0.9987(5)
C39_12 C 0.6622(3) 0.1351(3) 0.4232(4)
C40_12 C 0.4893(3) 0.3705(3) 0.9384(4)
C41_12 C 0.5182(3) 0.3428(3) 0.9191(4)
H23_12 H 0.5343 0.3286 0.9425
C42_12 C 0.5213(3) 0.3378(3) 0.8652(4)
C43_12 C 0.6602(3) 0.1352(3) 0.4759(4)
H24_12 H 0.6758 0.1175 0.4950
C44_12 C 0.3190(2) 0.4766(3) 0.4564(5)
C45_12 C 0.4296(3) 0.4217(3) 0.9761(4)
C46_12 C 0.6899(3) 0.1065(2) 0.3952(4)
C47_12 C 0.5605(4) 0.2460(3) 0.5858(5)
C48_12 C 0.5519(3) 0.3087(2) 0.8444(4)
O1_12 O 0.4515(4) 0.3584(4) 0.6221(6)
O2_12 O 0.4625(4) 0.3355(3) 0.5403(6)
O3_12 O 0.5616(3) 0.2462(2) 0.6350(4)
O7_12 O 0.5375(3) 0.2670(2) 0.5581(3)
O9_9 O 0.3740(2) 0.46271(19) 0.9648(4)
O10_12 O 0.5529(3) 0.3042(2) 0.7953(3)
O12_12 O 0.5737(2) 0.21960(18) 0.7610(3)
O15_12 O 0.5555(3) 0.1978(2) 0.8373(4)
O16_12 O 0.5717(2) 0.2896(2) 0.8759(3)
O22_9 O 0.5558(3) 0.3591(2) 0.5968(3)
O23_9 O 0.5405(2) 0.33282(17) 0.6731(3)
C13_13 C 0.7473(5) 0.3941(4) 0.0411(12)
H8_13 H 0.7407 0.3955 0.0772
C17_13 C 0.7259(4) 0.4189(3) 0.0120(9)
C19_13 C 0.7819(4) 0.6342(4) 0.0996(5)
H12_13 H 0.7985 0.6478 0.0761
C23_13 C 0.7761(6) 0.3674(5) 0.0315(7)
H15_13 H 0.7913 0.3534 0.0561
C25_13 C 0.6969(3) 0.4472(2) 0.0393(5)
C26_13 C 0.8157(3) 0.6667(3) 0.1748(4)
H16_13 H 0.8323 0.6806 0.1514
C27_13 C 0.7655(3) 0.6266(4) 0.2448(4)
H17_11 H 0.7491 0.6129 0.2685
C31_13 C 0.7862(3) 0.6408(3) 0.1533(4)
C34_13 C 0.7925(4) 0.6509(3) 0.2636(4)
H21_13 H 0.7943 0.6552 0.3002
C35_13 C 0.7541(4) 0.6083(3) 0.0787(5)
H22_13 H 0.7521 0.6044 0.0421
C38_13 C 0.8501(3) 0.6992(3) 0.2487(5)
C40_13 C 0.7607(3) 0.6205(3) 0.1884(4)
C41_13 C 0.7318(3) 0.5928(3) 0.1691(4)
H23_13 H 0.7157 0.5786 0.1925
C42_13 C 0.7287(3) 0.5878(3) 0.1152(4)
C45_13 C 0.8204(3) 0.6717(3) 0.2261(4)
C48_13 C 0.6981(3) 0.5587(2) 0.0944(4)
O8_10 O 0.8493(2) 0.7084(2) 0.2959(3)
O9_10 O 0.8760(2) 0.71271(19) 0.2148(4)
O10_13 O 0.6971(3) 0.5542(2) 0.0453(3)
O12_13 O 0.6763(2) 0.46960(18) 0.0110(3)
O15_13 O 0.6945(3) 0.4478(2) 0.0873(4)
O16_13 O 0.6783(2) 0.5396(2) 0.1259(3)
C1_13 C 0.8638(6) 0.6545(5) 0.8396(9)
H1_13 H 0.8579 0.6500 0.8754
C2_13 C 0.8458(5) 0.6428(4) 0.7486(10)
H2_13 H 0.8334 0.6300 0.7203
C3_13 C 0.7777(4) 0.3656(3) 0.9796(4)
C4_13 C 0.7603(8) 0.3871(7) 0.8929(8)
H3_13 H 0.7436 0.4034 0.8731
C5_13 C 0.8741(6) 0.6731(6) 0.7435(7)
C6_13 C 0.9285(4) 0.7193(4) 0.7614(5)
H4_13 H 0.9447 0.7332 0.7850
C7_13 C 0.8982(7) 0.6817(7) 0.8327(7)
H5_13 H 0.9148 0.6906 0.8602
C8_13 C 0.8386(5) 0.6344(4) 0.8064(9)
C9_13 C 0.9069(4) 0.7069(4) 0.6718(4)
H6_13 H 0.9094 0.7111 0.6353
C10_13 C 0.9023(6) 0.6920(7) 0.7800(6)
C11_13 C 0.7625(5) 0.3835(5) 0.9426(6)
C12_13 C 0.8779(5) 0.6797(5) 0.6911(7)
H7_13 H 0.8614 0.6664 0.6671
C14_13 C 0.8061(5) 0.6059(5) 0.8242(7)
C15_13 C 0.7915(5) 0.3580(5) 0.8735(13)
H9_13 H 0.7974 0.3571 0.8372
C16_13 C 0.6395(5) 0.4395(4) 0.8341(5)
H10_13 H 0.6388 0.4406 0.8711
C18_13 C 0.7292(5) 0.4161(4) 0.9621(9)
H11_13 H 0.7141 0.4311 0.9384
C20_13 C 0.8098(5) 0.3343(4) 0.9606(9)
H13_13 H 0.8249 0.3198 0.9848
C21_13 C 0.6168(4) 0.4144(4) 0.8100(5)
H14_13 H 0.6011 0.3975 0.8302
C22_13 C 0.8408(4) 0.3021(4) 0.8810(7)
C24_13 C 0.8139(4) 0.3299(4) 0.9106(7)
C28_13 C 0.6153(3) 0.4119(3) 0.7542(4)
C29_13 C 0.6148(4) 0.4078(3) 0.6436(5)
H18_13 H 0.6166 0.4043 0.6068
C30_13 C 0.6388(4) 0.4351(4) 0.6680(5)
H19_13 H 0.6544 0.4519 0.6476
C32_13 C 0.6652(3) 0.4627(3) 0.7525(4)
H20_13 H 0.6830 0.4786 0.7338
C33_13 C 0.6396(4) 0.4377(3) 0.7244(4)
C36_13 C 0.6646(4) 0.4645(3) 0.8070(4)
C37_13 C 0.9632(3) 0.7539(3) 0.6857(6)
C39_13 C 0.5878(3) 0.3851(3) 0.6732(4)
C43_13 C 0.5898(3) 0.3852(3) 0.7259(4)
H24_13 H 0.5742 0.3675 0.7450
C44_13 C 0.9310(2) 0.7266(3) 0.7064(5)
C46_13 C 0.5601(3) 0.3565(2) 0.6452(4)
C47_13 C 0.6895(4) 0.4960(3) 0.8358(5)
O1_13 O 0.7985(4) 0.6084(4) 0.8721(6)
O2_13 O 0.7875(4) 0.5855(3) 0.7903(6)
O3_13 O 0.6884(3) 0.4962(2) 0.8850(4)
O7_13 O 0.7125(3) 0.5170(2) 0.8081(3)
O22_10 O 0.6942(3) 0.6091(2) 0.8468(3)
O23_10 O 0.7095(2) 0.58282(17) 0.9231(3)
C13_14 C 0.2527(5) 0.6059(4) 0.0411(12)
H8_14 H 0.2593 0.6045 0.0772
C17_14 C 0.2741(4) 0.5811(3) 0.0120(9)
C19_14 C 0.2181(4) 0.3658(4) 0.0996(5)
H12_14 H 0.2015 0.3522 0.0761
C23_14 C 0.2239(6) 0.6326(5) 0.0315(7)
H15_14 H 0.2087 0.6466 0.0561
C25_14 C 0.3031(3) 0.5528(2) 0.0393(5)
C26_14 C 0.1843(3) 0.3333(3) 0.1748(4)
H16_14 H 0.1677 0.3194 0.1514
C27_14 C 0.2345(3) 0.3734(4) 0.2448(4)
H17_12 H 0.2509 0.3871 0.2685
C31_14 C 0.2138(3) 0.3592(3) 0.1533(4)
C34_14 C 0.2075(4) 0.3491(3) 0.2636(4)
H21_14 H 0.2057 0.3448 0.3002
C35_14 C 0.2459(4) 0.3917(3) 0.0787(5)
H22_14 H 0.2479 0.3956 0.0421
C38_14 C 0.1499(3) 0.3008(3) 0.2487(5)
C40_14 C 0.2393(3) 0.3795(3) 0.1884(4)
C41_14 C 0.2682(3) 0.4072(3) 0.1691(4)
H23_14 H 0.2843 0.4214 0.1925
C42_14 C 0.2713(3) 0.4122(3) 0.1152(4)
C45_14 C 0.1796(3) 0.3283(3) 0.2261(4)
C48_14 C 0.3019(3) 0.4413(2) 0.0944(4)
O10_14 O 0.3029(3) 0.4458(2) 0.0453(3)
O12_14 O 0.3237(2) 0.53040(18) 0.0110(3)
O15_14 O 0.3055(3) 0.5522(2) 0.0873(4)
O16_14 O 0.3217(2) 0.4604(2) 0.1259(3)
O18_10 O 0.3856(3) 0.5293(2) 0.1600(4)
O24_10 O 0.4085(2) 0.5497(2) 0.0822(4)
C1_14 C 0.1362(6) 0.3455(5) 0.8396(9)
H1_14 H 0.1421 0.3500 0.8754
C2_14 C 0.1542(5) 0.3572(4) 0.7486(10)
H2_14 H 0.1666 0.3700 0.7203
C3_14 C 0.2223(4) 0.6344(3) 0.9796(4)
C4_14 C 0.2397(8) 0.6129(7) 0.8929(8)
H3_14 H 0.2564 0.5966 0.8731
C5_14 C 0.1259(6) 0.3269(6) 0.7435(7)
C6_14 C 0.0715(4) 0.2807(4) 0.7614(5)
H4_14 H 0.0553 0.2668 0.7850
C7_14 C 0.1018(7) 0.3183(7) 0.8327(7)
H5_14 H 0.0852 0.3094 0.8602
C8_14 C 0.1614(5) 0.3656(4) 0.8064(9)
C9_14 C 0.0931(4) 0.2931(4) 0.6718(4)
H6_14 H 0.0906 0.2889 0.6353
C10_14 C 0.0977(6) 0.3080(7) 0.7800(6)
C11_14 C 0.2375(5) 0.6165(5) 0.9426(6)
C12_14 C 0.1221(5) 0.3203(5) 0.6911(7)
H7_14 H 0.1386 0.3336 0.6671
C14_14 C 0.1939(5) 0.3941(5) 0.8242(7)
C15_14 C 0.2085(5) 0.6420(5) 0.8735(13)
H9_14 H 0.2026 0.6429 0.8372
C16_14 C 0.3605(5) 0.5605(4) 0.8341(5)
H10_14 H 0.3612 0.5594 0.8711
C18_14 C 0.2708(5) 0.5839(4) 0.9621(9)
H11_14 H 0.2859 0.5689 0.9384
C20_14 C 0.1902(5) 0.6657(4) 0.9606(9)
H13_14 H 0.1751 0.6802 0.9848
C21_14 C 0.3832(4) 0.5856(4) 0.8100(5)
H14_14 H 0.3989 0.6025 0.8302
C22_14 C 0.1592(4) 0.6979(4) 0.8810(7)
C24_14 C 0.1861(4) 0.6701(4) 0.9106(7)
C28_14 C 0.3847(3) 0.5881(3) 0.7542(4)
C29_14 C 0.3852(4) 0.5922(3) 0.6436(5)
H18_14 H 0.3834 0.5957 0.6068
C30_14 C 0.3612(4) 0.5649(4) 0.6680(5)
H19_14 H 0.3456 0.5481 0.6476
C32_14 C 0.3348(3) 0.5373(3) 0.7525(4)
H20_14 H 0.3170 0.5214 0.7338
C33_14 C 0.3604(4) 0.5623(3) 0.7244(4)
C36_14 C 0.3354(4) 0.5355(3) 0.8070(4)
C37_14 C 0.0368(3) 0.2461(3) 0.6857(6)
C39_14 C 0.4122(3) 0.6149(3) 0.6732(4)
C43_14 C 0.4102(3) 0.6148(3) 0.7259(4)
H24_14 H 0.4258 0.6325 0.7450
C44_14 C 0.0690(2) 0.2734(3) 0.7064(5)
C46_14 C 0.4399(3) 0.6435(2) 0.6452(4)
C47_14 C 0.3105(4) 0.5040(3) 0.8358(5)
O1_14 O 0.2015(4) 0.3916(4) 0.8721(6)
O2_14 O 0.2125(4) 0.4145(3) 0.7903(6)
O3_14 O 0.3116(3) 0.5038(2) 0.8850(4)
O7_14 O 0.2875(3) 0.4830(2) 0.8081(3)
O17_10 O 0.2404(2) 0.4843(2) 0.9652(4)
O19_10 O 0.2092(3) 0.4870(3) 0.8874(5)
C1_15 C 0.1138(6) 0.5955(5) 0.0896(9)
H1_15 H 0.1079 0.6000 0.1254
C3_15 C 0.0277(4) 0.8844(3) 0.2296(4)
C4_15 C 0.0103(8) 0.8629(7) 0.1429(8)
C6_15 C 0.1785(4) 0.5307(4) 0.0114(5)
H4_15 H 0.1947 0.5168 0.0350
C7_15 C 0.1482(7) 0.5683(7) 0.0827(7)
H5_15 H 0.1648 0.5594 0.1102
C8_15 C 0.0886(5) 0.6156(4) 0.0564(9)
C10_15 C 0.1523(6) 0.5580(7) 0.0300(6)
C11_15 C 0.0125(5) 0.8665(5) 0.1926(6)
C14_15 C 0.0561(5) 0.6441(5) 0.0742(7)
C15_15 C 0.0415(5) 0.8920(5) 0.1235(13)
H9_15 H 0.0474 0.8929 0.0872
C19_15 C 0.0319(4) 0.6158(4) 0.3496(5)
H12_15 H 0.0485 0.6022 0.3261
C20_15 C 0.0598(5) 0.9157(4) 0.2106(9)
H13_15 H 0.0749 0.9302 0.2348
C22_15 C 0.0908(4) 0.9479(4) 0.1310(7)
C23_15 C 0.0261(6) 0.8826(5) 0.2815(7)
H15_15 H 0.0413 0.8966 0.3061
C24_15 C 0.0639(4) 0.9201(4) 0.1606(7)
C26_15 C 0.0657(3) 0.5833(3) 0.4248(4)
H16_15 H 0.0823 0.5694 0.4014
C27_15 C 0.0155(3) 0.6234(4) 0.4948(4)
C31_15 C 0.0362(3) 0.6092(3) 0.4033(4)
C34_15 C 0.0425(4) 0.5991(3) 0.5136(4)
H21_15 H 0.0443 0.5948 0.5502
C35_15 C 0.0041(4) 0.6417(3) 0.3287(5)
H22_15 H 0.0021 0.6456 0.2921
C38_15 C 0.1001(3) 0.5508(3) 0.4987(5)
C40_15 C 0.0107(3) 0.6295(3) 0.4384(4)
C45_15 C 0.0704(3) 0.5783(3) 0.4761(4)
O1_15 O 0.0485(4) 0.6416(4) 0.1221(6)
O2_15 O 0.0375(4) 0.6645(3) 0.0403(6)
C2_15 C 0.0958(5) 0.6072(4) 0.9986(10)
H2_15 H 0.0834 0.6200 0.9703
C5_15 C 0.1241(6) 0.5769(6) 0.9935(7)
C9_15 C 0.1569(4) 0.5431(4) 0.9218(4)
H6_15 H 0.1594 0.5389 0.8853
C12_15 C 0.1279(5) 0.5703(5) 0.9411(7)
H7_15 H 0.1114 0.5836 0.9171
C37_15 C 0.2132(3) 0.4961(3) 0.9357(6)
C44_15 C 0.1810(2) 0.5234(3) 0.9564(5)
H3_15 H 0.9936 0.8466 0.1231
C13_15 C 0.9973(5) 0.8559(4) 0.2911(12)
H8_15 H 0.9907 0.8545 0.3272
C16_15 C 0.8895(5) 0.8105(4) 0.0841(5)
H10_15 H 0.8888 0.8094 0.1211
C17_15 C 0.9759(4) 0.8311(3) 0.2620(9)
C18_15 C 0.9792(5) 0.8339(4) 0.2121(9)
H11_15 H 0.9641 0.8189 0.1884
C21_15 C 0.8668(4) 0.8356(4) 0.0600(5)
H14_15 H 0.8511 0.8525 0.0802
C25_15 C 0.9469(3) 0.8028(2) 0.2893(5)
H17_13 H 0.9991 0.6371 0.5185
C28_15 C 0.8653(3) 0.8381(3) 0.0042(4)
C32_15 C 0.9152(3) 0.7873(3) 0.0025(4)
C36_15 C 0.9146(4) 0.7855(3) 0.0570(4)
C41_15 C 0.9818(3) 0.6572(3) 0.4191(4)
H23_15 H 0.9657 0.6714 0.4425
C42_15 C 0.9787(3) 0.6622(3) 0.3652(4)
C47_15 C 0.9395(4) 0.7540(3) 0.0858(5)
C48_15 C 0.9481(3) 0.6913(2) 0.3444(4)
O3_15 O 0.9384(3) 0.7538(2) 0.1350(4)
O7_15 O 0.9625(3) 0.7330(2) 0.0581(3)
O10_15 O 0.9471(3) 0.6958(2) 0.2953(3)
O12_15 O 0.9263(2) 0.78040(18) 0.2610(3)
O15_15 O 0.9445(3) 0.8022(2) 0.3373(4)
O16_15 O 0.9283(2) 0.7104(2) 0.3759(3)
C29_15 C 0.8648(4) 0.8422(3) 0.8936(5)
H18_15 H 0.8666 0.8457 0.8568
C30_15 C 0.8888(4) 0.8149(4) 0.9180(5)
H19_15 H 0.9044 0.7981 0.8976
H20_15 H 0.9330 0.7714 0.9838
C33_15 C 0.8896(4) 0.8123(3) 0.9744(4)
C39_15 C 0.8378(3) 0.8649(3) 0.9232(4)
C43_15 C 0.8398(3) 0.8648(3) 0.9759(4)
H24_15 H 0.8242 0.8825 0.9950
C46_15 C 0.8101(3) 0.8935(2) 0.8952(4)
C37_16 C 0.2868(3) 0.0039(3) 0.9357(6)
C1_16 C 0.3862(6) 0.9045(5) 0.0896(9)
H1_16 H 0.3921 0.9000 0.1254
C3_16 C 0.4723(4) 0.6156(3) 0.2296(4)
C4_16 C 0.4897(8) 0.6371(7) 0.1429(8)
H3_16 H 0.5064 0.6534 0.1231
C6_16 C 0.3215(4) 0.9693(4) 0.0114(5)
H4_16 H 0.3053 0.9832 0.0350
C7_16 C 0.3518(7) 0.9317(7) 0.0827(7)
H5_16 H 0.3352 0.9406 0.1102
C8_16 C 0.4114(5) 0.8844(4) 0.0564(9)
C10_16 C 0.3477(6) 0.9420(7) 0.0300(6)
C11_16 C 0.4875(5) 0.6335(5) 0.1926(6)
C13_16 C 0.5027(5) 0.6441(4) 0.2911(12)
H8_16 H 0.5093 0.6455 0.3272
C14_16 C 0.4439(5) 0.8559(5) 0.0742(7)
C15_16 C 0.4585(5) 0.6080(5) 0.1235(13)
H9_16 H 0.4526 0.6071 0.0872
C16_16 C 0.6105(5) 0.6895(4) 0.0841(5)
H10_16 H 0.6112 0.6906 0.1211
C17_16 C 0.5241(4) 0.6689(3) 0.2620(9)
C18_16 C 0.5208(5) 0.6661(4) 0.2121(9)
H11_16 H 0.5359 0.6811 0.1884
C19_16 C 0.4681(4) 0.8842(4) 0.3496(5)
H12_16 H 0.4515 0.8978 0.3261
C20_16 C 0.4402(5) 0.5843(4) 0.2106(9)
H13_16 H 0.4251 0.5698 0.2348
C21_16 C 0.6332(4) 0.6644(4) 0.0600(5)
H14_16 H 0.6489 0.6475 0.0802
C22_16 C 0.4092(4) 0.5521(4) 0.1310(7)
C23_16 C 0.4739(6) 0.6174(5) 0.2815(7)
H15_16 H 0.4587 0.6034 0.3061
C24_16 C 0.4361(4) 0.5799(4) 0.1606(7)
C25_16 C 0.5531(3) 0.6972(2) 0.2893(5)
C26_16 C 0.4343(3) 0.9167(3) 0.4248(4)
H16_16 H 0.4177 0.9306 0.4014
C27_16 C 0.4845(3) 0.8766(4) 0.4948(4)
H17_14 H 0.5009 0.8629 0.5185
C28_16 C 0.6347(3) 0.6619(3) 0.0042(4)
C31_16 C 0.4638(3) 0.8908(3) 0.4033(4)
C32_16 C 0.5848(3) 0.7127(3) 0.0025(4)
C34_16 C 0.4575(4) 0.9009(3) 0.5136(4)
H21_16 H 0.4557 0.9052 0.5502
C35_16 C 0.4959(4) 0.8583(3) 0.3287(5)
H22_16 H 0.4979 0.8544 0.2921
C36_16 C 0.5854(4) 0.7145(3) 0.0570(4)
C38_16 C 0.3999(3) 0.9492(3) 0.4987(5)
C40_16 C 0.4893(3) 0.8705(3) 0.4384(4)
C41_16 C 0.5182(3) 0.8428(3) 0.4191(4)
H23_16 H 0.5343 0.8286 0.4425
C42_16 C 0.5213(3) 0.8378(3) 0.3652(4)
C45_16 C 0.4296(3) 0.9217(3) 0.4761(4)
C47_16 C 0.5605(4) 0.7460(3) 0.0858(5)
C48_16 C 0.5519(3) 0.8087(2) 0.3444(4)
O1_16 O 0.4515(4) 0.8584(4) 0.1221(6)
O2_16 O 0.4625(4) 0.8355(3) 0.0403(6)
O3_16 O 0.5616(3) 0.7462(2) 0.1350(4)
O7_16 O 0.5375(3) 0.7670(2) 0.0581(3)
O10_16 O 0.5529(3) 0.8042(2) 0.2953(3)
O12_16 O 0.5737(2) 0.71960(18) 0.2610(3)
O15_16 O 0.5555(3) 0.6978(2) 0.3373(4)
O16_16 O 0.5717(2) 0.7896(2) 0.3759(3)
C2_16 C 0.4042(5) 0.8928(4) 0.9986(10)
H2_16 H 0.4166 0.8800 0.9703
C5_16 C 0.3759(6) 0.9231(6) 0.9935(7)
C9_16 C 0.3431(4) 0.9569(4) 0.9218(4)
H6_16 H 0.3406 0.9611 0.8853
C12_16 C 0.3721(5) 0.9297(5) 0.9411(7)
H7_16 H 0.3886 0.9164 0.9171
C29_16 C 0.6352(4) 0.6578(3) 0.8936(5)
H18_16 H 0.6334 0.6543 0.8568
C30_16 C 0.6112(4) 0.6851(4) 0.9180(5)
H19_16 H 0.5956 0.7019 0.8976
H20_16 H 0.5670 0.7286 0.9838
C33_16 C 0.6104(4) 0.6877(3) 0.9744(4)
C39_16 C 0.6622(3) 0.6351(3) 0.9232(4)
C43_16 C 0.6602(3) 0.6352(3) 0.9759(4)
H24_16 H 0.6758 0.6175 0.9950
C44_16 C 0.3190(2) 0.9766(3) 0.9564(5)
C46_16 C 0.6899(3) 0.6065(2) 0.8952(4)
H17_15 H 0.0009 0.8629 0.0185
H17_16 H 0.9991 0.1371 0.0185
loop_
_geom_bond_atom_site_label_1
_geom_bond_atom_site_label_2
_geom_bond_site_symmetry_1
_geom_bond_site_symmetry_2
C19 H12 1_555 1_555
C26 H16 1_555 1_555
C27 H17 1_555 1_555
C31 C19 1_555 1_555
C34 C27 1_555 1_555
H21 C34 1_555 1_555
C35 C19 1_555 1_555
H22 C35 1_555 1_555
C38 C45 1_555 1_555
C40 C27 1_555 1_555
C41 C40 1_555 1_555
H23 C41 1_555 1_555
C42 C35 1_555 1_555
C45 C26 1_555 1_555
C48 C42 1_555 1_555
O8 C38 1_555 1_555
O9 C38 1_555 1_555
Cd4 O8 1_555 1_555
Cd8 O9 1_555 1_555
C26 C31 1_555 1_555
C31 C40 1_555 1_555
C34 C45 1_555 1_555
C41 C42 1_555 1_555
C48 O10 1_555 1_555
C48 O16 1_555 1_555
Cd2 O1 1_555 1_555
C1 H1 1_555 1_555
C2 H2 1_555 1_555
C5 C2 1_555 1_555
C6 H4 1_555 1_555
C7 C1 1_555 1_555
H5 C7 1_555 1_555
C8 C1 1_555 1_555
C9 H6 1_555 1_555
C10 C5 1_555 1_555
C12 C5 1_555 1_555
H7 C12 1_555 1_555
C14 C8 1_555 1_555
C37 C44 1_555 1_555
C44 C6 1_555 1_555
O1 C14 1_555 1_555
O2 Cd2 1_555 1_555
O4 C37 1_555 1_555
O6 C37 1_555 1_555
O7 Cd2 1_555 1_555
Cd7 O6 1_555 1_555
Cd10 O4 1_555 1_555
O17 Cd3 1_555 1_555
O19 Cd2 1_555 1_555
O21 Cd3 1_555 1_555
O22 Cd2 1_555 1_555
O23 Cd2 1_555 1_555
Cd3 O23 1_555 1_555
C2 C8 1_555 1_555
C6 C10 1_555 1_555
C7 C10 1_555 1_555
C9 C12 1_555 1_555
C9 C44 1_555 1_555
C14 O2 1_555 1_555
Cd1 O12 1_555 1_555
C13 H8 1_555 1_555
C17 C13 1_555 1_555
H15 C23 1_555 1_555
C25 C17 1_555 1_555
O15 Cd1 1_555 1_555
O18 Cd1 1_555 1_555
O24 Cd1 1_555 1_555
C13 C23 1_555 1_555
C25 O12 1_555 1_555
C25 O15 1_555 1_555
C3 C11 1_555 1_555
C4 H3 1_555 1_555
C11 C4 1_555 1_555
C15 C4 1_555 1_555
H9 C15 1_555 1_555
C16 H10 1_555 1_555
C18 C11 1_555 1_555
H11 C18 1_555 1_555
C20 C3 1_555 1_555
H13 C20 1_555 1_555
C21 C16 1_555 1_555
H14 C21 1_555 1_555
C22 C24 1_555 1_555
C24 C15 1_555 1_555
C28 C21 1_555 1_555
C29 H18 1_555 1_555
C30 C29 1_555 1_555
H19 C30 1_555 1_555
C32 H20 1_555 1_555
C33 C28 1_555 1_555
C36 C16 1_555 1_555
C39 C29 1_555 1_555
C43 C28 1_555 1_555
H24 C43 1_555 1_555
C46 C39 1_555 1_555
C47 C36 1_555 1_555
O3 C47 1_555 1_555
O5 C22 1_555 1_555
O11 C46 1_555 1_555
O13 C46 1_555 1_555
O14 C22 1_555 1_555
Cd5 O5 1_555 1_555
Cd6 O11 1_555 1_555
Cd9 O13 1_555 1_555
C20 C24 1_555 1_555
C30 C33 1_555 1_555
C32 C33 1_555 1_555
C32 C36 1_555 1_555
C39 C43 1_555 1_555
O13 Cd6 1_555 1_555
O14 Cd5 1_555 1_555
Cd1_2 O12_2 1_555 1_555
C13_2 H8_2 1_555 1_555
C17_2 C13_2 1_555 1_555
H15_2 C23_2 1_555 1_555
C25_2 C17_2 1_555 1_555
O15_2 Cd1_2 1_555 1_555
O18_2 Cd1_2 1_555 1_555
O24_2 Cd1_2 1_555 1_555
C13_2 C23_2 1_555 1_555
C25_2 O12_2 1_555 1_555
C25_2 O15_2 1_555 1_555
C3_2 C11_2 1_555 1_555
C4_2 H3_2 1_555 1_555
C11_2 C4_2 1_555 1_555
C15_2 C4_2 1_555 1_555
H9_2 C15_2 1_555 1_555
C16_2 H10_2 1_555 1_555
C18_2 C11_2 1_555 1_555
H11_2 C18_2 1_555 1_555
C20_2 C3_2 1_555 1_555
H13_2 C20_2 1_555 1_555
C21_2 C16_2 1_555 1_555
H14_2 C21_2 1_555 1_555
C22_2 C24_2 1_555 1_555
C24_2 C15_2 1_555 1_555
C28_2 C21_2 1_555 1_555
C29_2 H18_2 1_555 1_555
C30_2 C29_2 1_555 1_555
H19_2 C30_2 1_555 1_555
C32_2 H20_2 1_555 1_555
C33_2 C28_2 1_555 1_555
C36_2 C16_2 1_555 1_555
C39_2 C29_2 1_555 1_555
C43_2 C28_2 1_555 1_555
H24_2 C43_2 1_555 1_555
C46_2 C39_2 1_555 1_555
C47_2 C36_2 1_555 1_555
O3_2 C47_2 1_555 1_555
O5_2 C22_2 1_555 1_555
O11_2 C46_2 1_555 1_555
O13_2 C46_2 1_555 1_555
O14_2 C22_2 1_555 1_555
Cd5_2 O5_2 1_555 1_555
Cd6_2 O11_2 1_555 1_555
Cd9_2 O13_2 1_555 1_555
C20_2 C24_2 1_555 1_555
C30_2 C33_2 1_555 1_555
C32_2 C33_2 1_555 1_555
C32_2 C36_2 1_555 1_555
C39_2 C43_2 1_555 1_555
O13_2 Cd6_2 1_555 1_555
O14_2 Cd5_2 1_555 1_555
C19_2 H12_2 1_555 1_555
C26_2 H16_2 1_555 1_555
C27_2 H17_2 1_555 1_555
C31_2 C19_2 1_555 1_555
C34_2 C27_2 1_555 1_555
H21_2 C34_2 1_555 1_555
C35_2 C19_2 1_555 1_555
H22_2 C35_2 1_555 1_555
C38_2 C45_2 1_555 1_555
C40_2 C27_2 1_555 1_555
C41_2 C40_2 1_555 1_555
H23_2 C41_2 1_555 1_555
C42_2 C35_2 1_555 1_555
C45_2 C26_2 1_555 1_555
C48_2 C42_2 1_555 1_555
O8_2 C38_2 1_555 1_555
O9_2 C38_2 1_555 1_555
Cd4_2 O8_2 1_555 1_555
Cd8_2 O9_2 1_555 1_555
C26_2 C31_2 1_555 1_555
C31_2 C40_2 1_555 1_555
C34_2 C45_2 1_555 1_555
C41_2 C42_2 1_555 1_555
C48_2 O10_2 1_555 1_555
C48_2 O16_2 1_555 1_555
Cd2_2 O1_2 1_555 1_555
C1_2 H1_2 1_555 1_555
C2_2 H2_2 1_555 1_555
C5_2 C2_2 1_555 1_555
C6_2 H4_2 1_555 1_555
C7_2 C1_2 1_555 1_555
H5_2 C7_2 1_555 1_555
C8_2 C1_2 1_555 1_555
C9_2 H6_2 1_555 1_555
C10_2 C5_2 1_555 1_555
C12_2 C5_2 1_555 1_555
H7_2 C12_2 1_555 1_555
C14_2 C8_2 1_555 1_555
C37_2 C44_2 1_555 1_555
C44_2 C6_2 1_555 1_555
O1_2 C14_2 1_555 1_555
O2_2 Cd2_2 1_555 1_555
O4_2 C37_2 1_555 1_555
O6_2 C37_2 1_555 1_555
O7_2 Cd2_2 1_555 1_555
Cd7_2 O6_2 1_555 1_555
Cd10_2 O4_2 1_555 1_555
O17_2 Cd3_2 1_555 1_555
O19_2 Cd2_2 1_555 1_555
O21_2 Cd3_2 1_555 1_555
O22_2 Cd2_2 1_555 1_555
O23_2 Cd2_2 1_555 1_555
Cd3_2 O23_2 1_555 1_555
C2_2 C8_2 1_555 1_555
C6_2 C10_2 1_555 1_555
C7_2 C10_2 1_555 1_555
C9_2 C12_2 1_555 1_555
C9_2 C44_2 1_555 1_555
C14_2 O2_2 1_555 1_555
Cd4 O12_3 1_555 1_555
Cd2_3 O1_3 1_555 1_555
Cd8 O3_3 1_555 1_555
C1_3 H1_3 1_555 1_555
C3_3 C11_3 1_555 1_555
C4_3 H3_3 1_555 1_555
C6_3 H4_3 1_555 1_555
C7_3 C1_3 1_555 1_555
H5_3 C7_3 1_555 1_555
C8_3 C1_3 1_555 1_555
C11_3 C4_3 1_555 1_555
C13_3 H8_3 1_555 1_555
C14_3 C8_3 1_555 1_555
C15_3 C4_3 1_555 1_555
H9_3 C15_3 1_555 1_555
C16_3 H10_3 1_555 1_555
C17_3 C13_3 1_555 1_555
C18_3 C11_3 1_555 1_555
H11_3 C18_3 1_555 1_555
C19_3 H12_3 1_555 1_555
C20_3 C3_3 1_555 1_555
H13_3 C20_3 1_555 1_555
C21_3 C16_3 1_555 1_555
H14_3 C21_3 1_555 1_555
C22_3 C24_3 1_555 1_555
C23_3 C3_3 1_555 1_555
H15_3 C23_3 1_555 1_555
C24_3 C15_3 1_555 1_555
C25_3 C17_3 1_555 1_555
C26_3 H16_3 1_555 1_555
C27_3 H17_3 1_555 1_555
C28_3 C21_3 1_555 1_555
C31_3 C19_3 1_555 1_555
C34_3 C27_3 1_555 1_555
H21_3 C34_3 1_555 1_555
C35_3 C19_3 1_555 1_555
H22_3 C35_3 1_555 1_555
C36_3 C16_3 1_555 1_555
C38_3 C45_3 1_555 1_555
C40_3 C27_3 1_555 1_555
C41_3 C40_3 1_555 1_555
H23_3 C41_3 1_555 1_555
C42_3 C35_3 1_555 1_555
C45_3 C26_3 1_555 1_555
C47_3 C36_3 1_555 1_555
C48_3 C42_3 1_555 1_555
O1_3 C14_3 1_555 1_555
O2_3 Cd2_3 1_555 1_555
O3_3 C47_3 1_555 1_555
O5_3 C22_3 1_555 1_555
O7_3 Cd2_3 1_555 1_555
O8_3 C38_3 1_555 1_555
O9_3 C38_3 1_555 1_555
O10_3 Cd8 1_555 1_555
O12_3 Cd8 1_555 1_555
O14_3 C22_3 1_555 1_555
O15_3 Cd4 1_555 1_555
O16_3 Cd4 1_555 1_555
Cd5_3 O5_3 1_555 1_555
Cd8_3 O9_3 1_555 1_555
O17_3 Cd8 1_555 1_555
O18_3 Cd4 1_555 1_555
O19_3 Cd2_3 1_555 1_555
O22_3 Cd2_3 1_555 1_555
O23_3 Cd2_3 1_555 1_555
O24_3 Cd4 1_555 1_555
Cd8 O23_3 1_555 1_555
C6_3 C10_3 1_555 1_555
C7_3 C10_3 1_555 1_555
C13_3 C23_3 1_555 1_555
C14_3 O2_3 1_555 1_555
C17_3 C18_3 1_555 1_555
C20_3 C24_3 1_555 1_555
C25_3 O12_3 1_555 1_555
C25_3 O15_3 1_555 1_555
C26_3 C31_3 1_555 1_555
C31_3 C40_3 1_555 1_555
C32_3 C36_3 1_555 1_555
C34_3 C45_3 1_555 1_555
C41_3 C42_3 1_555 1_555
C47_3 O7_3 1_555 1_555
C48_3 O10_3 1_555 1_555
C48_3 O16_3 1_555 1_555
O14_3 Cd5_3 1_555 1_555
C2_3 H2_3 1_555 1_555
C5_3 C2_3 1_555 1_555
C9_3 H6_3 1_555 1_555
C12_3 C5_3 1_555 1_555
H7_3 C12_3 1_555 1_555
C29_3 H18_3 1_555 1_555
C30_3 C29_3 1_555 1_555
H19_3 C30_3 1_555 1_555
C39_3 C29_3 1_555 1_555
H24_3 C43_3 1_555 1_555
C46_3 C39_3 1_555 1_555
O11_3 C46_3 1_555 1_555
O13_3 C46_3 1_555 1_555
Cd6_3 O11_3 1_555 1_555
Cd9_3 O13_3 1_555 1_555
C9_3 C12_3 1_555 1_555
C9_3 C44_3 1_555 1_555
C30_3 C33_3 1_555 1_555
C39_3 C43_3 1_555 1_555
O13_3 Cd6_3 1_555 1_555
O17_2 C37_3 1_555 1_555
O19_2 C37_3 1_555 1_555
Cd1_3 O12_4 1_555 1_555
Cd3_3 O3_4 1_555 1_555
C13_4 H8_4 1_555 1_555
C16_4 H10_4 1_555 1_555
C17_4 C13_4 1_555 1_555
H11_4 C18_4 1_555 1_555
C21_4 C16_4 1_555 1_555
H14_4 C21_4 1_555 1_555
C25_4 C17_4 1_555 1_555
C28_4 C21_4 1_555 1_555
C36_4 C16_4 1_555 1_555
H23_4 C41_4 1_555 1_555
C47_4 C36_4 1_555 1_555
C48_4 C42_4 1_555 1_555
O3_4 C47_4 1_555 1_555
O7_4 Cd2_4 1_555 1_555
O10_4 Cd3_3 1_555 1_555
O12_4 Cd3_3 1_555 1_555
O15_4 Cd1_3 1_555 1_555
O16_4 Cd1_3 1_555 1_555
O18_4 Cd1_3 1_555 1_555
O20_3 Cd1_3 1_555 1_555
O21_3 Cd3_3 1_555 1_555
O22_4 Cd2_4 1_555 1_555
O23_4 Cd2_4 1_555 1_555
O24_4 Cd1_3 1_555 1_555
Cd3_3 O23_4 1_555 1_555
C17_4 C18_4 1_555 1_555
C25_4 O12_4 1_555 1_555
C25_4 O15_4 1_555 1_555
C32_4 C36_4 1_555 1_555
C41_4 C42_4 1_555 1_555
C47_4 O7_4 1_555 1_555
C48_4 O10_4 1_555 1_555
C48_4 O16_4 1_555 1_555
C29_4 H18_4 1_555 1_555
C30_4 C29_4 1_555 1_555
H19_4 C30_4 1_555 1_555
C39_4 C29_4 1_555 1_555
H24_4 C43_4 1_555 1_555
C46_4 C39_4 1_555 1_555
O22 C46_4 1_555 1_555
O23 C46_4 1_555 1_555
C30_4 C33_4 1_555 1_555
C39_4 C43_4 1_555 1_555
C1_4 H1_4 1_555 1_555
C3_4 C11_4 1_555 1_555
C6_4 H4_4 1_555 1_555
C7_4 C1_4 1_555 1_555
H5_4 C7_4 1_555 1_555
C8_4 C1_4 1_555 1_555
C11_4 C4_4 1_555 1_555
C14_4 C8_4 1_555 1_555
C15_4 C4_4 1_555 1_555
H9_4 C15_4 1_555 1_555
C19_4 H12_4 1_555 1_555
C20_4 C3_4 1_555 1_555
H13_4 C20_4 1_555 1_555
C22_4 C24_4 1_555 1_555
C23_4 C3_4 1_555 1_555
H15_4 C23_4 1_555 1_555
C24_4 C15_4 1_555 1_555
C26_4 H16_4 1_555 1_555
C31_4 C19_4 1_555 1_555
C34_4 C27_4 1_555 1_555
H21_4 C34_4 1_555 1_555
C35_4 C19_4 1_555 1_555
H22_4 C35_4 1_555 1_555
C38_4 C45_4 1_555 1_555
C40_4 C27_4 1_555 1_555
C45_4 C26_4 1_555 1_555
O1_4 C14_4 1_555 1_555
O18_2 C22_4 1_555 1_555
O8_4 C38_4 1_555 1_555
O9_4 C38_4 1_555 1_555
O24_2 C22_4 1_555 1_555
Cd4_4 O8_4 1_555 1_555
Cd8_4 O9_4 1_555 1_555
C6_4 C10_4 1_555 1_555
C7_4 C10_4 1_555 1_555
C14_4 O2_4 1_555 1_555
C20_4 C24_4 1_555 1_555
C26_4 C31_4 1_555 1_555
C31_4 C40_4 1_555 1_555
C34_4 C45_4 1_555 1_555
C2_4 H2_4 1_555 1_555
C5_4 C2_4 1_555 1_555
C9_4 H6_4 1_555 1_555
C12_4 C5_4 1_555 1_555
H7_4 C12_4 1_555 1_555
C37_4 C44_4 1_555 1_555
O4_3 C37_4 1_555 1_555
O6_3 C37_4 1_555 1_555
Cd7_3 O6_3 1_555 1_555
Cd10_3 O4_3 1_555 1_555
C9_4 C12_4 1_555 1_555
C9_4 C44_4 1_555 1_555
Cd1_4 O12_5 1_555 1_555
Cd2_5 O1_5 1_555 1_555
Cd3_4 O3_5 1_555 1_555
C1_5 H1_5 1_555 1_555
C2_5 H2_5 1_555 1_555
C3_5 C11_5 1_555 1_555
C4_5 H3_5 1_555 1_555
C5_5 C2_5 1_555 1_555
C6_5 H4_5 1_555 1_555
C7_5 C1_5 1_555 1_555
H5_5 C7_5 1_555 1_555
C8_5 C1_5 1_555 1_555
C9_5 H6_5 1_555 1_555
C10_5 C5_5 1_555 1_555
C11_5 C4_5 1_555 1_555
C12_5 C5_5 1_555 1_555
H7_5 C12_5 1_555 1_555
C13_5 H8_5 1_555 1_555
C14_5 C8_5 1_555 1_555
C15_5 C4_5 1_555 1_555
H9_5 C15_5 1_555 1_555
C16_5 H10_5 1_555 1_555
C17_5 C13_5 1_555 1_555
C18_5 C11_5 1_555 1_555
H11_5 C18_5 1_555 1_555
C19_5 H12_5 1_555 1_555
C20_5 C3_5 1_555 1_555
H13_5 C20_5 1_555 1_555
C21_5 C16_5 1_555 1_555
H14_5 C21_5 1_555 1_555
C22_5 C24_5 1_555 1_555
C23_5 C3_5 1_555 1_555
H15_5 C23_5 1_555 1_555
C24_5 C15_5 1_555 1_555
C25_5 C17_5 1_555 1_555
C26_5 H16_5 1_555 1_555
C27_5 H17_5 1_555 1_555
C28_5 C21_5 1_555 1_555
C29_5 H18_5 1_555 1_555
C30_5 C29_5 1_555 1_555
H19_5 C30_5 1_555 1_555
C31_5 C19_5 1_555 1_555
C32_5 H20_5 1_555 1_555
C33_5 C28_5 1_555 1_555
C34_5 C27_5 1_555 1_555
H21_5 C34_5 1_555 1_555
C35_5 C19_5 1_555 1_555
H22_5 C35_5 1_555 1_555
C36_5 C16_5 1_555 1_555
C37_5 C44_5 1_555 1_555
C38_5 C45_5 1_555 1_555
C39_5 C29_5 1_555 1_555
C40_5 C27_5 1_555 1_555
C41_5 C40_5 1_555 1_555
H23_5 C41_5 1_555 1_555
C42_5 C35_5 1_555 1_555
C43_5 C28_5 1_555 1_555
H24_5 C43_5 1_555 1_555
C44_5 C6_5 1_555 1_555
C45_5 C26_5 1_555 1_555
C46_5 C39_5 1_555 1_555
C47_5 C36_5 1_555 1_555
C48_5 C42_5 1_555 1_555
O1_5 C14_5 1_555 1_555
O2_5 Cd2_5 1_555 1_555
O3_5 C47_5 1_555 1_555
O4_4 C37_5 1_555 1_555
O18_3 C22_5 1_555 1_555
O6_4 C37_5 1_555 1_555
O7_5 Cd2_5 1_555 1_555
O8_5 C38_5 1_555 1_555
O9_5 C38_5 1_555 1_555
O10_5 Cd3_4 1_555 1_555
O22_4 C46_5 1_555 1_555
O12_5 Cd3_4 1_555 1_555
O23_4 C46_5 1_555 1_555
O24_3 C22_5 1_555 1_555
O15_5 Cd1_4 1_555 1_555
O16_5 Cd1_4 1_555 1_555
Cd5 O8_5 1_555 1_555
Cd7_4 O6_4 1_555 1_555
Cd10_2 O9_5 1_555 1_555
Cd8_2 O4_4 1_555 1_555
O17_5 Cd3_4 1_555 1_555
O18_5 Cd1_4 1_555 1_555
O19_5 Cd2_5 1_555 1_555
O20_4 Cd1_4 1_555 1_555
O21_4 Cd3_4 1_555 1_555
O22_5 Cd2_5 1_555 1_555
O23_5 Cd2_5 1_555 1_555
O24_5 Cd1_4 1_555 1_555
Cd3_4 O23_5 1_555 1_555
C2_5 C8_5 1_555 1_555
C6_5 C10_5 1_555 1_555
C7_5 C10_5 1_555 1_555
C9_5 C12_5 1_555 1_555
C9_5 C44_5 1_555 1_555
C13_5 C23_5 1_555 1_555
C14_5 O2_5 1_555 1_555
C17_5 C18_5 1_555 1_555
C20_5 C24_5 1_555 1_555
C25_5 O12_5 1_555 1_555
C25_5 O15_5 1_555 1_555
C26_5 C31_5 1_555 1_555
C30_5 C33_5 1_555 1_555
C31_5 C40_5 1_555 1_555
C32_5 C33_5 1_555 1_555
C32_5 C36_5 1_555 1_555
C34_5 C45_5 1_555 1_555
C39_5 C43_5 1_555 1_555
C41_5 C42_5 1_555 1_555
C47_5 O7_5 1_555 1_555
C48_5 O10_5 1_555 1_555
C48_5 O16_5 1_555 1_555
Cd4_4 O12_6 1_555 1_555
Cd2_6 O1_6 1_555 1_555
Cd8_4 O3_6 1_555 1_555
C1_6 H1_6 1_555 1_555
C2_6 H2_6 1_555 1_555
C3_6 C11_6 1_555 1_555
C4_6 H3_6 1_555 1_555
C5_6 C2_6 1_555 1_555
C6_6 H4_6 1_555 1_555
C7_6 C1_6 1_555 1_555
H5_6 C7_6 1_555 1_555
C8_6 C1_6 1_555 1_555
C9_6 H6_6 1_555 1_555
C10_6 C5_6 1_555 1_555
C11_6 C4_6 1_555 1_555
C12_6 C5_6 1_555 1_555
H7_6 C12_6 1_555 1_555
C13_6 H8_6 1_555 1_555
C14_6 C8_6 1_555 1_555
C15_6 C4_6 1_555 1_555
H9_6 C15_6 1_555 1_555
C16_6 H10_6 1_555 1_555
C17_6 C13_6 1_555 1_555
C18_6 C11_6 1_555 1_555
H11_6 C18_6 1_555 1_555
C19_6 H12_6 1_555 1_555
C20_6 C3_6 1_555 1_555
H13_6 C20_6 1_555 1_555
C21_6 C16_6 1_555 1_555
H14_6 C21_6 1_555 1_555
C22_6 C24_6 1_555 1_555
C23_6 C3_6 1_555 1_555
H15_6 C23_6 1_555 1_555
C24_6 C15_6 1_555 1_555
C25_6 C17_6 1_555 1_555
C26_6 H16_6 1_555 1_555
C27_6 H17_6 1_555 1_555
C28_6 C21_6 1_555 1_555
C29_6 H18_6 1_555 1_555
C30_6 C29_6 1_555 1_555
H19_6 C30_6 1_555 1_555
C31_6 C19_6 1_555 1_555
C32_6 H20_6 1_555 1_555
C33_6 C28_6 1_555 1_555
C34_6 C27_6 1_555 1_555
H21_6 C34_6 1_555 1_555
C35_6 C19_6 1_555 1_555
H22_6 C35_6 1_555 1_555
C36_6 C16_6 1_555 1_555
C37_6 C44_6 1_555 1_555
C38_6 C45_6 1_555 1_555
C39_6 C29_6 1_555 1_555
C40_6 C27_6 1_555 1_555
C41_6 C40_6 1_555 1_555
H23_6 C41_6 1_555 1_555
C42_6 C35_6 1_555 1_555
C43_6 C28_6 1_555 1_555
H24_6 C43_6 1_555 1_555
C44_6 C6_6 1_555 1_555
C45_6 C26_6 1_555 1_555
C46_6 C39_6 1_555 1_555
C47_6 C36_6 1_555 1_555
C48_6 C42_6 1_555 1_555
O1_6 C14_6 1_555 1_555
O2_6 Cd2_6 1_555 1_555
O3_6 C47_6 1_555 1_555
O17_3 C37_6 1_555 1_555
O5_4 C22_6 1_555 1_555
O19_3 C37_6 1_555 1_555
O7_6 Cd2_6 1_555 1_555
O8_6 C38_6 1_555 1_555
O9_6 C38_6 1_555 1_555
O10_6 Cd8_4 1_555 1_555
O11_4 C46_6 1_555 1_555
O12_6 Cd8_4 1_555 1_555
O13_4 C46_6 1_555 1_555
O14_4 C22_6 1_555 1_555
O15_6 Cd4_4 1_555 1_555
O16_6 Cd4_4 1_555 1_555
Cd5_2 O8_6 1_555 1_555
Cd4_2 O5_4 1_555 1_555
Cd6_4 O11_4 1_555 1_555
Cd10 O9_6 1_555 1_555
Cd9_4 O13_4 1_555 1_555
O17_6 Cd8_4 1_555 1_555
O18_6 Cd4_4 1_555 1_555
O19_6 Cd2_6 1_555 1_555
O22_6 Cd2_6 1_555 1_555
O23_6 Cd2_6 1_555 1_555
O24_6 Cd4_4 1_555 1_555
Cd8_4 O23_6 1_555 1_555
C2_6 C8_6 1_555 1_555
C6_6 C10_6 1_555 1_555
C7_6 C10_6 1_555 1_555
C9_6 C12_6 1_555 1_555
C9_6 C44_6 1_555 1_555
C13_6 C23_6 1_555 1_555
C14_6 O2_6 1_555 1_555
C17_6 C18_6 1_555 1_555
C20_6 C24_6 1_555 1_555
C25_6 O12_6 1_555 1_555
C25_6 O15_6 1_555 1_555
C26_6 C31_6 1_555 1_555
C30_6 C33_6 1_555 1_555
C31_6 C40_6 1_555 1_555
C32_6 C33_6 1_555 1_555
C32_6 C36_6 1_555 1_555
C34_6 C45_6 1_555 1_555
C39_6 C43_6 1_555 1_555
C41_6 C42_6 1_555 1_555
C47_6 O7_6 1_555 1_555
C48_6 O10_6 1_555 1_555
C48_6 O16_6 1_555 1_555
O13_4 Cd6_4 1_555 1_555
O14_4 Cd4_2 1_555 1_555
H21_7 C34_7 1_555 1_555
Cd5_3 O8_7 1_555 1_555
Cd5 O12_7 1_555 1_555
Cd7_2 O1_7 1_555 1_555
Cd10_2 O3_7 1_555 1_555
C1_7 H1_7 1_555 1_555
C2_7 H2_7 1_555 1_555
C3_7 C11_7 1_555 1_555
C4_7 H3_7 1_555 1_555
C5_7 C2_7 1_555 1_555
C6_7 H4_7 1_555 1_555
C7_7 C1_7 1_555 1_555
H5_7 C7_7 1_555 1_555
C8_7 C1_7 1_555 1_555
C9_7 H6_7 1_555 1_555
C10_7 C5_7 1_555 1_555
C11_7 C4_7 1_555 1_555
C12_7 C5_7 1_555 1_555
H7_7 C12_7 1_555 1_555
C13_7 H8_7 1_555 1_555
C14_7 C8_7 1_555 1_555
C15_7 C4_7 1_555 1_555
H9_7 C15_7 1_555 1_555
C16_7 H10_7 1_555 1_555
C17_7 C13_7 1_555 1_555
C18_7 C11_7 1_555 1_555
H11_7 C18_7 1_555 1_555
C19_7 H12_7 1_555 1_555
C20_7 C3_7 1_555 1_555
H13_7 C20_7 1_555 1_555
C21_7 C16_7 1_555 1_555
H14_7 C21_7 1_555 1_555
C22_7 C24_7 1_555 1_555
C23_7 C3_7 1_555 1_555
H15_7 C23_7 1_555 1_555
C24_7 C15_7 1_555 1_555
C25_7 C17_7 1_555 1_555
C26_7 H16_7 1_555 1_555
C28_7 C21_7 1_555 1_555
C29_7 H18_7 1_555 1_555
C30_7 C29_7 1_555 1_555
H19_7 C30_7 1_555 1_555
C31_7 C19_7 1_555 1_555
C32_7 H20_7 1_555 1_555
C33_7 C28_7 1_555 1_555
C35_7 C19_7 1_555 1_555
H22_7 C35_7 1_555 1_555
C36_7 C16_7 1_555 1_555
C37_7 C44_7 1_555 1_555
C38_7 C45_7 1_555 1_555
C39_7 C29_7 1_555 1_555
C40_7 C27_7 1_555 1_555
C41_7 C40_7 1_555 1_555
H23_7 C41_7 1_555 1_555
C42_7 C35_7 1_555 1_555
C43_7 C28_7 1_555 1_555
H24_7 C43_7 1_555 1_555
C44_7 C6_7 1_555 1_555
C45_7 C26_7 1_555 1_555
C46_7 C39_7 1_555 1_555
C47_7 C36_7 1_555 1_555
C48_7 C42_7 1_555 1_555
O1_7 C14_7 1_555 1_555
O2_7 Cd7_2 1_555 1_555
O3_7 C47_7 1_555 1_555
O17_6 C37_7 1_555 1_555
O5_5 C22_7 1_555 1_555
O19_6 C37_7 1_555 1_555
O7_7 Cd7_2 1_555 1_555
O9_7 C38_7 1_555 1_555
O10_7 Cd10_2 1_555 1_555
O11_5 C46_7 1_555 1_555
O12_7 Cd10_2 1_555 1_555
O13_5 C46_7 1_555 1_555
O14_5 C22_7 1_555 1_555
O15_7 Cd5 1_555 1_555
O16_7 Cd5 1_555 1_555
Cd4_3 O5_5 1_555 1_555
Cd6_5 O11_5 1_555 1_555
Cd10_3 O9_7 1_555 1_555
Cd9_5 O13_5 1_555 1_555
O22_7 Cd7_2 1_555 1_555
O23_7 Cd7_2 1_555 1_555
Cd10_2 O23_7 1_555 1_555
C2_7 C8_7 1_555 1_555
C6_7 C10_7 1_555 1_555
C7_7 C10_7 1_555 1_555
C9_7 C12_7 1_555 1_555
C9_7 C44_7 1_555 1_555
C13_7 C23_7 1_555 1_555
C14_7 O2_7 1_555 1_555
C17_7 C18_7 1_555 1_555
C20_7 C24_7 1_555 1_555
C25_7 O12_7 1_555 1_555
C25_7 O15_7 1_555 1_555
C26_7 C31_7 1_555 1_555
C30_7 C33_7 1_555 1_555
C31_7 C40_7 1_555 1_555
C32_7 C33_7 1_555 1_555
C32_7 C36_7 1_555 1_555
C39_7 C43_7 1_555 1_555
C41_7 C42_7 1_555 1_555
C47_7 O7_7 1_555 1_555
C48_7 O10_7 1_555 1_555
C48_7 O16_7 1_555 1_555
O13_5 Cd6_5 1_555 1_555
O14_5 Cd4_3 1_555 1_555
Cd1_5 O12_8 1_555 1_555
Cd9 O3_8 1_555 1_555
C13_8 H8_8 1_555 1_555
C16_8 H10_8 1_555 1_555
C17_8 C13_8 1_555 1_555
H11_8 C18_8 1_555 1_555
C21_8 C16_8 1_555 1_555
H14_8 C21_8 1_555 1_555
C25_8 C17_8 1_555 1_555
C28_8 C21_8 1_555 1_555
C29_8 H18_8 1_555 1_555
C30_8 C29_8 1_555 1_555
H19_8 C30_8 1_555 1_555
C32_8 H20_8 1_555 1_555
C33_8 C28_8 1_555 1_555
C36_8 C16_8 1_555 1_555
C39_8 C29_8 1_555 1_555
H23_8 C41_8 1_555 1_555
C43_8 C28_8 1_555 1_555
H24_8 C43_8 1_555 1_555
C46_8 C39_8 1_555 1_555
C47_8 C36_8 1_555 1_555
C48_8 C42_8 1_555 1_555
O3_8 C47_8 1_555 1_555
O7_8 Cd6 1_555 1_555
O10_8 Cd9 1_555 1_555
O22_5 C46_8 1_555 1_555
O12_8 Cd9 1_555 1_555
O23_5 C46_8 1_555 1_555
O15_8 Cd1_5 1_555 1_555
O16_8 Cd1_5 1_555 1_555
O18_7 Cd1_5 1_555 1_555
O20_5 Cd1_5 1_555 1_555
O21_5 Cd9 1_555 1_555
O24_7 Cd1_5 1_555 1_555
C17_8 C18_8 1_555 1_555
C25_8 O12_8 1_555 1_555
C25_8 O15_8 1_555 1_555
C30_8 C33_8 1_555 1_555
C32_8 C33_8 1_555 1_555
C32_8 C36_8 1_555 1_555
C39_8 C43_8 1_555 1_555
C41_8 C42_8 1_555 1_555
C47_8 O7_8 1_555 1_555
C48_8 O10_8 1_555 1_555
C48_8 O16_8 1_555 1_555
O4_5 C37_8 1_555 1_555
O6_5 C37_8 1_555 1_555
Cd7_5 O6_5 1_555 1_555
Cd8_3 O4_5 1_555 1_555
H21_8 C34_8 1_555 1_555
C1_8 H1_8 1_555 1_555
C2_8 H2_8 1_555 1_555
C3_8 C11_8 1_555 1_555
C5_8 C2_8 1_555 1_555
C6_8 H4_8 1_555 1_555
C7_8 C1_8 1_555 1_555
H5_8 C7_8 1_555 1_555
C8_8 C1_8 1_555 1_555
C9_8 H6_8 1_555 1_555
C10_8 C5_8 1_555 1_555
C11_8 C4_8 1_555 1_555
C12_8 C5_8 1_555 1_555
H7_8 C12_8 1_555 1_555
C14_8 C8_8 1_555 1_555
C15_8 C4_8 1_555 1_555
H9_8 C15_8 1_555 1_555
C19_8 H12_8 1_555 1_555
C20_8 C3_8 1_555 1_555
H13_8 C20_8 1_555 1_555
C22_8 C24_8 1_555 1_555
C23_8 C3_8 1_555 1_555
H15_8 C23_8 1_555 1_555
C24_8 C15_8 1_555 1_555
C26_8 H16_8 1_555 1_555
C31_8 C19_8 1_555 1_555
C35_8 C19_8 1_555 1_555
H22_8 C35_8 1_555 1_555
C38_8 C45_8 1_555 1_555
C40_8 C27_8 1_555 1_555
C44_8 C6_8 1_555 1_555
C45_8 C26_8 1_555 1_555
O1_8 C14_8 1_555 1_555
O18_6 C22_8 1_555 1_555
O21_2 C38_8 1_555 1_555
O24_6 C22_8 1_555 1_555
C2_8 C8_8 1_555 1_555
C6_8 C10_8 1_555 1_555
C7_8 C10_8 1_555 1_555
C9_8 C12_8 1_555 1_555
C9_8 C44_8 1_555 1_555
C14_8 O2_8 1_555 1_555
C20_8 C24_8 1_555 1_555
C26_8 C31_8 1_555 1_555
C31_8 C40_8 1_555 1_555
Cd7_5 O1_9 1_555 1_555
C1_9 H1_9 1_555 1_555
C2_9 H2_9 1_555 1_555
C5_9 C2_9 1_555 1_555
C6_9 H4_9 1_555 1_555
C7_9 C1_9 1_555 1_555
H5_9 C7_9 1_555 1_555
C8_9 C1_9 1_555 1_555
C9_9 H6_9 1_555 1_555
C10_9 C5_9 1_555 1_555
C12_9 C5_9 1_555 1_555
H7_9 C12_9 1_555 1_555
C14_9 C8_9 1_555 1_555
C19_9 H12_9 1_555 1_555
C26_9 H16_9 1_555 1_555
C27_9 H17_8 1_555 1_555
C31_9 C19_9 1_555 1_555
C34_9 C27_9 1_555 1_555
H21_9 C34_9 1_555 1_555
C35_9 C19_9 1_555 1_555
H22_9 C35_9 1_555 1_555
C37_9 C44_9 1_555 1_555
C38_9 C45_9 1_555 1_555
C40_9 C27_9 1_555 1_555
C41_9 C40_9 1_555 1_555
H23_9 C41_9 1_555 1_555
C42_9 C35_9 1_555 1_555
C44_9 C6_9 1_555 1_555
C45_9 C26_9 1_555 1_555
C48_9 C42_9 1_555 1_555
O1_9 C14_9 1_555 1_555
O2_9 Cd7_5 1_555 1_555
O17_4 C37_9 1_555 1_555
O19_4 C37_9 1_555 1_555
O7_9 Cd7_5 1_555 1_555
O8_8 C38_9 1_555 1_555
O9_8 C38_9 1_555 1_555
O10_9 Cd8_3 1_555 1_555
Cd4_5 O8_8 1_555 1_555
Cd9_2 O9_8 1_555 1_555
O22_8 Cd7_5 1_555 1_555
O23_8 Cd7_5 1_555 1_555
Cd8_3 O23_8 1_555 1_555
C2_9 C8_9 1_555 1_555
C6_9 C10_9 1_555 1_555
C7_9 C10_9 1_555 1_555
C9_9 C12_9 1_555 1_555
C9_9 C44_9 1_555 1_555
C14_9 O2_9 1_555 1_555
C26_9 C31_9 1_555 1_555
C31_9 C40_9 1_555 1_555
C34_9 C45_9 1_555 1_555
C41_9 C42_9 1_555 1_555
C48_9 O10_9 1_555 1_555
C48_9 O16_9 1_555 1_555
Cd4_3 O12_9 1_555 1_555
C3_9 C11_9 1_555 1_555
C4_9 H3_9 1_555 1_555
C11_9 C4_9 1_555 1_555
C13_9 H8_9 1_555 1_555
C15_9 C4_9 1_555 1_555
H9_9 C15_9 1_555 1_555
C16_9 H10_9 1_555 1_555
C17_9 C13_9 1_555 1_555
C18_9 C11_9 1_555 1_555
H11_9 C18_9 1_555 1_555
C20_9 C3_9 1_555 1_555
H13_9 C20_9 1_555 1_555
C21_9 C16_9 1_555 1_555
H14_9 C21_9 1_555 1_555
C22_9 C24_9 1_555 1_555
C23_9 C3_9 1_555 1_555
H15_9 C23_9 1_555 1_555
C24_9 C15_9 1_555 1_555
C25_9 C17_9 1_555 1_555
C28_9 C21_9 1_555 1_555
C29_9 H18_9 1_555 1_555
C30_9 C29_9 1_555 1_555
H19_9 C30_9 1_555 1_555
C32_9 H20_9 1_555 1_555
C33_9 C28_9 1_555 1_555
C36_9 C16_9 1_555 1_555
C39_9 C29_9 1_555 1_555
C43_9 C28_9 1_555 1_555
H24_9 C43_9 1_555 1_555
C46_9 C39_9 1_555 1_555
C47_9 C36_9 1_555 1_555
O3_9 C47_9 1_555 1_555
O5_6 C22_9 1_555 1_555
O11_6 C46_9 1_555 1_555
O13_6 C46_9 1_555 1_555
O14_6 C22_9 1_555 1_555
O15_9 Cd4_3 1_555 1_555
Cd5_4 O5_6 1_555 1_555
Cd7_4 O11_6 1_555 1_555
Cd8_2 O13_6 1_555 1_555
C13_9 C23_9 1_555 1_555
C17_9 C18_9 1_555 1_555
C20_9 C24_9 1_555 1_555
C25_9 O12_9 1_555 1_555
C25_9 O15_9 1_555 1_555
C30_9 C33_9 1_555 1_555
C32_9 C33_9 1_555 1_555
C32_9 C36_9 1_555 1_555
C39_9 C43_9 1_555 1_555
O13_6 Cd7_4 1_555 1_555
O14_6 Cd5_4 1_555 1_555
Cd1_6 O12_10 1_555 1_555
C3_10 C11_10 1_555 1_555
C4_10 H3_10 1_555 1_555
C11_10 C4_10 1_555 1_555
C13_10 H8_10 1_555 1_555
C15_10 C4_10 1_555 1_555
H9_10 C15_10 1_555 1_555
C16_10 H10_10 1_555 1_555
C17_10 C13_10 1_555 1_555
C18_10 C11_10 1_555 1_555
H11_10 C18_10 1_555 1_555
C20_10 C3_10 1_555 1_555
H13_10 C20_10 1_555 1_555
C21_10 C16_10 1_555 1_555
H14_10 C21_10 1_555 1_555
C22_10 C24_10 1_555 1_555
C23_10 C3_10 1_555 1_555
H15_10 C23_10 1_555 1_555
C24_10 C15_10 1_555 1_555
C25_10 C17_10 1_555 1_555
C28_10 C21_10 1_555 1_555
C29_10 H18_10 1_555 1_555
C30_10 C29_10 1_555 1_555
H19_10 C30_10 1_555 1_555
C32_10 H20_10 1_555 1_555
C33_10 C28_10 1_555 1_555
C36_10 C16_10 1_555 1_555
C39_10 C29_10 1_555 1_555
C43_10 C28_10 1_555 1_555
H24_10 C43_10 1_555 1_555
C46_10 C39_10 1_555 1_555
C47_10 C36_10 1_555 1_555
O3_10 C47_10 1_555 1_555
O18_4 C22_10 1_555 1_555
O22_3 C46_10 1_555 1_555
O23_3 C46_10 1_555 1_555
O24_4 C22_10 1_555 1_555
O15_10 Cd1_6 1_555 1_555
O18_8 Cd1_6 1_555 1_555
O24_8 Cd1_6 1_555 1_555
C13_10 C23_10 1_555 1_555
C17_10 C18_10 1_555 1_555
C20_10 C24_10 1_555 1_555
C25_10 O12_10 1_555 1_555
C25_10 O15_10 1_555 1_555
C30_10 C33_10 1_555 1_555
C32_10 C33_10 1_555 1_555
C32_10 C36_10 1_555 1_555
C39_10 C43_10 1_555 1_555
Cd6_5 O1_10 1_555 1_555
C1_10 H1_10 1_555 1_555
C2_10 H2_10 1_555 1_555
C5_10 C2_10 1_555 1_555
C6_10 H4_10 1_555 1_555
C7_10 C1_10 1_555 1_555
H5_10 C7_10 1_555 1_555
C8_10 C1_10 1_555 1_555
C9_10 H6_10 1_555 1_555
C10_10 C5_10 1_555 1_555
C12_10 C5_10 1_555 1_555
H7_10 C12_10 1_555 1_555
C14_10 C8_10 1_555 1_555
C19_10 H12_10 1_555 1_555
C26_10 H16_10 1_555 1_555
C27_10 H17_9 1_555 1_555
C31_10 C19_10 1_555 1_555
C34_10 C27_10 1_555 1_555
H21_10 C34_10 1_555 1_555
C35_10 C19_10 1_555 1_555
H22_10 C35_10 1_555 1_555
C37_10 C44_10 1_555 1_555
C38_10 C45_10 1_555 1_555
C40_10 C27_10 1_555 1_555
C41_10 C40_10 1_555 1_555
H23_10 C41_10 1_555 1_555
C42_10 C35_10 1_555 1_555
C44_10 C6_10 1_555 1_555
C45_10 C26_10 1_555 1_555
C48_10 C42_10 1_555 1_555
O1_10 C14_10 1_555 1_555
O2_10 Cd6_5 1_555 1_555
O4_6 C37_10 1_555 1_555
O6_6 C37_10 1_555 1_555
O7_10 Cd6_5 1_555 1_555
O20_5 C38_10 1_555 1_555
O21_5 C38_10 1_555 1_555
O10_10 Cd9_5 1_555 1_555
O17_8 Cd9_5 1_555 1_555
O19_8 Cd6_5 1_555 1_555
O21_6 Cd9_5 1_555 1_555
C2_10 C8_10 1_555 1_555
C6_10 C10_10 1_555 1_555
C7_10 C10_10 1_555 1_555
C9_10 C12_10 1_555 1_555
C9_10 C44_10 1_555 1_555
C14_10 O2_10 1_555 1_555
C26_10 C31_10 1_555 1_555
C31_10 C40_10 1_555 1_555
C34_10 C45_10 1_555 1_555
C41_10 C42_10 1_555 1_555
C48_10 O10_10 1_555 1_555
C48_10 O16_10 1_555 1_555
H21_11 C34_11 1_555 1_555
C1_11 H1_11 1_555 1_555
C2_11 H2_11 1_555 1_555
C3_11 C11_11 1_555 1_555
C5_11 C2_11 1_555 1_555
C6_11 H4_11 1_555 1_555
C7_11 C1_11 1_555 1_555
H5_11 C7_11 1_555 1_555
C8_11 C1_11 1_555 1_555
C9_11 H6_11 1_555 1_555
C10_11 C5_11 1_555 1_555
C11_11 C4_11 1_555 1_555
C12_11 C5_11 1_555 1_555
H7_11 C12_11 1_555 1_555
C14_11 C8_11 1_555 1_555
C15_11 C4_11 1_555 1_555
H9_11 C15_11 1_555 1_555
C19_11 H12_11 1_555 1_555
C20_11 C3_11 1_555 1_555
H13_11 C20_11 1_555 1_555
C22_11 C24_11 1_555 1_555
C23_11 C3_11 1_555 1_555
H15_11 C23_11 1_555 1_555
C24_11 C15_11 1_555 1_555
C26_11 H16_11 1_555 1_555
C31_11 C19_11 1_555 1_555
C35_11 C19_11 1_555 1_555
H22_11 C35_11 1_555 1_555
C38_11 C45_11 1_555 1_555
C40_11 C27_11 1_555 1_555
C44_11 C6_11 1_555 1_555
C45_11 C26_11 1_555 1_555
O1_11 C14_11 1_555 1_555
O18_5 C22_11 1_555 1_555
O21 C38_11 1_555 1_555
O24_5 C22_11 1_555 1_555
C2_11 C8_11 1_555 1_555
C6_11 C10_11 1_555 1_555
C7_11 C10_11 1_555 1_555
C9_11 C12_11 1_555 1_555
C9_11 C44_11 1_555 1_555
C14_11 O2_11 1_555 1_555
C20_11 C24_11 1_555 1_555
C26_11 C31_11 1_555 1_555
C31_11 C40_11 1_555 1_555
O17_8 C37_11 1_555 1_555
O19_8 C37_11 1_555 1_555
Cd4_5 O12_11 1_555 1_555
Cd9_2 O3_11 1_555 1_555
C13_11 H8_11 1_555 1_555
C16_11 H10_11 1_555 1_555
C17_11 C13_11 1_555 1_555
H11_11 C18_11 1_555 1_555
C21_11 C16_11 1_555 1_555
H14_11 C21_11 1_555 1_555
C25_11 C17_11 1_555 1_555
C28_11 C21_11 1_555 1_555
C29_11 H18_11 1_555 1_555
C30_11 C29_11 1_555 1_555
H19_11 C30_11 1_555 1_555
C32_11 H20_11 1_555 1_555
C33_11 C28_11 1_555 1_555
C36_11 C16_11 1_555 1_555
C39_11 C29_11 1_555 1_555
H23_11 C41_11 1_555 1_555
C43_11 C28_11 1_555 1_555
H24_11 C43_11 1_555 1_555
C46_11 C39_11 1_555 1_555
C47_11 C36_11 1_555 1_555
C48_11 C42_11 1_555 1_555
O3_11 C47_11 1_555 1_555
O7_11 Cd6_2 1_555 1_555
O10_11 Cd9_2 1_555 1_555
O22_6 C46_11 1_555 1_555
O12_11 Cd9_2 1_555 1_555
O23_6 C46_11 1_555 1_555
O15_11 Cd4_5 1_555 1_555
O16_11 Cd4_5 1_555 1_555
O18_9 Cd4_5 1_555 1_555
O24_9 Cd4_5 1_555 1_555
C17_11 C18_11 1_555 1_555
C25_11 O12_11 1_555 1_555
C25_11 O15_11 1_555 1_555
C30_11 C33_11 1_555 1_555
C32_11 C33_11 1_555 1_555
C32_11 C36_11 1_555 1_555
C39_11 C43_11 1_555 1_555
C41_11 C42_11 1_555 1_555
C47_11 O7_11 1_555 1_555
C48_11 O10_11 1_555 1_555
C48_11 O16_11 1_555 1_555
H21_12 C34_12 1_555 1_555
Cd4_6 O8_9 1_555 1_555
Cd5_2 O12_12 1_555 1_555
Cd7 O1_12 1_555 1_555
Cd10 O3_12 1_555 1_555
C1_12 H1_12 1_555 1_555
C2_12 H2_12 1_555 1_555
C3_12 C11_12 1_555 1_555
C4_12 H3_12 1_555 1_555
C5_12 C2_12 1_555 1_555
C6_12 H4_12 1_555 1_555
C7_12 C1_12 1_555 1_555
H5_12 C7_12 1_555 1_555
C8_12 C1_12 1_555 1_555
C9_12 H6_12 1_555 1_555
C10_12 C5_12 1_555 1_555
C11_12 C4_12 1_555 1_555
C12_12 C5_12 1_555 1_555
H7_12 C12_12 1_555 1_555
C13_12 H8_12 1_555 1_555
C14_12 C8_12 1_555 1_555
C15_12 C4_12 1_555 1_555
H9_12 C15_12 1_555 1_555
C16_12 H10_12 1_555 1_555
C17_12 C13_12 1_555 1_555
C18_12 C11_12 1_555 1_555
H11_12 C18_12 1_555 1_555
C19_12 H12_12 1_555 1_555
C20_12 C3_12 1_555 1_555
H13_12 C20_12 1_555 1_555
C21_12 C16_12 1_555 1_555
H14_12 C21_12 1_555 1_555
C22_12 C24_12 1_555 1_555
C23_12 C3_12 1_555 1_555
H15_12 C23_12 1_555 1_555
C24_12 C15_12 1_555 1_555
C25_12 C17_12 1_555 1_555
C26_12 H16_12 1_555 1_555
C28_12 C21_12 1_555 1_555
C29_12 H18_12 1_555 1_555
C30_12 C29_12 1_555 1_555
H19_12 C30_12 1_555 1_555
C31_12 C19_12 1_555 1_555
C32_12 H20_12 1_555 1_555
C33_12 C28_12 1_555 1_555
C35_12 C19_12 1_555 1_555
H22_12 C35_12 1_555 1_555
C36_12 C16_12 1_555 1_555
C37_12 C44_12 1_555 1_555
C38_12 C45_12 1_555 1_555
C39_12 C29_12 1_555 1_555
C40_12 C27_12 1_555 1_555
C41_12 C40_12 1_555 1_555
H23_12 C41_12 1_555 1_555
C42_12 C35_12 1_555 1_555
C43_12 C28_12 1_555 1_555
H24_12 C43_12 1_555 1_555
C44_12 C6_12 1_555 1_555
C45_12 C26_12 1_555 1_555
C46_12 C39_12 1_555 1_555
C47_12 C36_12 1_555 1_555
C48_12 C42_12 1_555 1_555
O1_12 C14_12 1_555 1_555
O2_12 Cd7 1_555 1_555
O3_12 C47_12 1_555 1_555
O17_5 C37_12 1_555 1_555
O18_8 C22_12 1_555 1_555
O19_5 C37_12 1_555 1_555
O7_12 Cd7 1_555 1_555
O9_9 C38_12 1_555 1_555
O10_12 Cd10 1_555 1_555
O22_8 C46_12 1_555 1_555
O12_12 Cd10 1_555 1_555
O23_8 C46_12 1_555 1_555
O24_8 C22_12 1_555 1_555
O15_12 Cd5_2 1_555 1_555
O16_12 Cd5_2 1_555 1_555
Cd9_3 O9_9 1_555 1_555
O22_9 Cd7 1_555 1_555
O23_9 Cd7 1_555 1_555
Cd10 O23_9 1_555 1_555
C2_12 C8_12 1_555 1_555
C6_12 C10_12 1_555 1_555
C7_12 C10_12 1_555 1_555
C9_12 C12_12 1_555 1_555
C9_12 C44_12 1_555 1_555
C13_12 C23_12 1_555 1_555
C14_12 O2_12 1_555 1_555
C17_12 C18_12 1_555 1_555
C20_12 C24_12 1_555 1_555
C25_12 O12_12 1_555 1_555
C25_12 O15_12 1_555 1_555
C26_12 C31_12 1_555 1_555
C30_12 C33_12 1_555 1_555
C31_12 C40_12 1_555 1_555
C32_12 C33_12 1_555 1_555
C32_12 C36_12 1_555 1_555
C39_12 C43_12 1_555 1_555
C41_12 C42_12 1_555 1_555
C47_12 O7_12 1_555 1_555
C48_12 O10_12 1_555 1_555
C48_12 O16_12 1_555 1_555
Cd5_3 O12_13 1_555 1_555
C13_13 H8_13 1_555 1_555
C17_13 C13_13 1_555 1_555
C19_13 H12_13 1_555 1_555
H15_13 C23_13 1_555 1_555
C25_13 C17_13 1_555 1_555
C26_13 H16_13 1_555 1_555
C27_13 H17_11 1_555 1_555
C31_13 C19_13 1_555 1_555
C34_13 C27_13 1_555 1_555
H21_13 C34_13 1_555 1_555
C35_13 C19_13 1_555 1_555
H22_13 C35_13 1_555 1_555
C38_13 C45_13 1_555 1_555
C40_13 C27_13 1_555 1_555
C41_13 C40_13 1_555 1_555
H23_13 C41_13 1_555 1_555
C42_13 C35_13 1_555 1_555
C45_13 C26_13 1_555 1_555
C48_13 C42_13 1_555 1_555
O8_10 C38_13 1_555 1_555
O9_10 C38_13 1_555 1_555
O15_13 Cd5_3 1_555 1_555
O16_13 Cd5_3 1_555 1_555
Cd5_4 O8_10 1_555 1_555
Cd9_4 O9_10 1_555 1_555
C13_13 C23_13 1_555 1_555
C25_13 O12_13 1_555 1_555
C25_13 O15_13 1_555 1_555
C26_13 C31_13 1_555 1_555
C31_13 C40_13 1_555 1_555
C34_13 C45_13 1_555 1_555
C41_13 C42_13 1_555 1_555
C48_13 O10_13 1_555 1_555
C48_13 O16_13 1_555 1_555
Cd7_3 O1_13 1_555 1_555
Cd10_3 O3_13 1_555 1_555
C1_13 H1_13 1_555 1_555
C2_13 H2_13 1_555 1_555
C3_13 C11_13 1_555 1_555
C4_13 H3_13 1_555 1_555
C5_13 C2_13 1_555 1_555
C6_13 H4_13 1_555 1_555
C7_13 C1_13 1_555 1_555
H5_13 C7_13 1_555 1_555
C8_13 C1_13 1_555 1_555
C9_13 H6_13 1_555 1_555
C10_13 C5_13 1_555 1_555
C11_13 C4_13 1_555 1_555
C12_13 C5_13 1_555 1_555
H7_13 C12_13 1_555 1_555
C14_13 C8_13 1_555 1_555
C15_13 C4_13 1_555 1_555
H9_13 C15_13 1_555 1_555
C16_13 H10_13 1_555 1_555
C18_13 C11_13 1_555 1_555
H11_13 C18_13 1_555 1_555
C20_13 C3_13 1_555 1_555
H13_13 C20_13 1_555 1_555
C21_13 C16_13 1_555 1_555
H14_13 C21_13 1_555 1_555
C22_13 C24_13 1_555 1_555
C24_13 C15_13 1_555 1_555
C28_13 C21_13 1_555 1_555
C29_13 H18_13 1_555 1_555
C30_13 C29_13 1_555 1_555
H19_13 C30_13 1_555 1_555
C32_13 H20_13 1_555 1_555
C33_13 C28_13 1_555 1_555
C36_13 C16_13 1_555 1_555
C37_13 C44_13 1_555 1_555
C39_13 C29_13 1_555 1_555
C43_13 C28_13 1_555 1_555
H24_13 C43_13 1_555 1_555
C44_13 C6_13 1_555 1_555
C46_13 C39_13 1_555 1_555
C47_13 C36_13 1_555 1_555
O1_13 C14_13 1_555 1_555
O2_13 Cd7_3 1_555 1_555
O3_13 C47_13 1_555 1_555
O17_7 C37_13 1_555 1_555
O18_9 C22_13 1_555 1_555
O19_7 C37_13 1_555 1_555
O7_13 Cd7_3 1_555 1_555
O22_9 C46_13 1_555 1_555
O23_9 C46_13 1_555 1_555
O24_9 C22_13 1_555 1_555
O22_10 Cd7_3 1_555 1_555
O23_10 Cd7_3 1_555 1_555
Cd10_3 O23_10 1_555 1_555
C2_13 C8_13 1_555 1_555
C6_13 C10_13 1_555 1_555
C7_13 C10_13 1_555 1_555
C9_13 C12_13 1_555 1_555
C9_13 C44_13 1_555 1_555
C14_13 O2_13 1_555 1_555
C20_13 C24_13 1_555 1_555
C30_13 C33_13 1_555 1_555
C32_13 C33_13 1_555 1_555
C32_13 C36_13 1_555 1_555
C39_13 C43_13 1_555 1_555
C47_13 O7_13 1_555 1_555
Cd4_6 O12_14 1_555 1_555
C13_14 H8_14 1_555 1_555
C17_14 C13_14 1_555 1_555
C19_14 H12_14 1_555 1_555
H15_14 C23_14 1_555 1_555
C25_14 C17_14 1_555 1_555
C26_14 H16_14 1_555 1_555
C27_14 H17_12 1_555 1_555
C31_14 C19_14 1_555 1_555
C34_14 C27_14 1_555 1_555
H21_14 C34_14 1_555 1_555
C35_14 C19_14 1_555 1_555
H22_14 C35_14 1_555 1_555
C38_14 C45_14 1_555 1_555
C40_14 C27_14 1_555 1_555
C41_14 C40_14 1_555 1_555
H23_14 C41_14 1_555 1_555
C42_14 C35_14 1_555 1_555
C45_14 C26_14 1_555 1_555
C48_14 C42_14 1_555 1_555
O20_3 C38_14 1_555 1_555
O21_3 C38_14 1_555 1_555
O15_14 Cd4_6 1_555 1_555
O16_14 Cd4_6 1_555 1_555
O18_10 Cd4_6 1_555 1_555
O24_10 Cd4_6 1_555 1_555
C13_14 C23_14 1_555 1_555
C25_14 O12_14 1_555 1_555
C25_14 O15_14 1_555 1_555
C26_14 C31_14 1_555 1_555
C31_14 C40_14 1_555 1_555
C34_14 C45_14 1_555 1_555
C41_14 C42_14 1_555 1_555
C48_14 O10_14 1_555 1_555
C48_14 O16_14 1_555 1_555
Cd6_3 O1_14 1_555 1_555
Cd9_3 O3_14 1_555 1_555
C1_14 H1_14 1_555 1_555
C2_14 H2_14 1_555 1_555
C3_14 C11_14 1_555 1_555
C4_14 H3_14 1_555 1_555
C5_14 C2_14 1_555 1_555
C6_14 H4_14 1_555 1_555
C7_14 C1_14 1_555 1_555
H5_14 C7_14 1_555 1_555
C8_14 C1_14 1_555 1_555
C9_14 H6_14 1_555 1_555
C10_14 C5_14 1_555 1_555
C11_14 C4_14 1_555 1_555
C12_14 C5_14 1_555 1_555
H7_14 C12_14 1_555 1_555
C14_14 C8_14 1_555 1_555
C15_14 C4_14 1_555 1_555
H9_14 C15_14 1_555 1_555
C16_14 H10_14 1_555 1_555
C18_14 C11_14 1_555 1_555
H11_14 C18_14 1_555 1_555
C20_14 C3_14 1_555 1_555
H13_14 C20_14 1_555 1_555
C21_14 C16_14 1_555 1_555
H14_14 C21_14 1_555 1_555
C22_14 C24_14 1_555 1_555
C24_14 C15_14 1_555 1_555
C28_14 C21_14 1_555 1_555
C29_14 H18_14 1_555 1_555
C30_14 C29_14 1_555 1_555
H19_14 C30_14 1_555 1_555
C32_14 H20_14 1_555 1_555
C33_14 C28_14 1_555 1_555
C36_14 C16_14 1_555 1_555
C37_14 C44_14 1_555 1_555
C39_14 C29_14 1_555 1_555
C43_14 C28_14 1_555 1_555
H24_14 C43_14 1_555 1_555
C44_14 C6_14 1_555 1_555
C46_14 C39_14 1_555 1_555
C47_14 C36_14 1_555 1_555
O1_14 C14_14 1_555 1_555
O2_14 Cd6_3 1_555 1_555
O3_14 C47_14 1_555 1_555
O17_9 C37_14 1_555 1_555
O18_7 C22_14 1_555 1_555
O19_9 C37_14 1_555 1_555
O7_14 Cd6_3 1_555 1_555
O22_7 C46_14 1_555 1_555
O23_7 C46_14 1_555 1_555
O24_7 C22_14 1_555 1_555
O17_10 Cd9_3 1_555 1_555
O19_10 Cd6_3 1_555 1_555
C2_14 C8_14 1_555 1_555
C6_14 C10_14 1_555 1_555
C7_14 C10_14 1_555 1_555
C9_14 C12_14 1_555 1_555
C9_14 C44_14 1_555 1_555
C14_14 O2_14 1_555 1_555
C20_14 C24_14 1_555 1_555
C30_14 C33_14 1_555 1_555
C32_14 C33_14 1_555 1_555
C32_14 C36_14 1_555 1_555
C39_14 C43_14 1_555 1_555
C47_14 O7_14 1_555 1_555
C1_15 H1_15 1_555 1_555
C3_15 C11_15 1_555 1_555
C6_15 H4_15 1_555 1_555
C7_15 C1_15 1_555 1_555
H5_15 C7_15 1_555 1_555
C8_15 C1_15 1_555 1_555
C11_15 C4_15 1_555 1_555
C14_15 C8_15 1_555 1_555
C15_15 C4_15 1_555 1_555
H9_15 C15_15 1_555 1_555
C19_15 H12_15 1_555 1_555
C20_15 C3_15 1_555 1_555
H13_15 C20_15 1_555 1_555
C22_15 C24_15 1_555 1_555
C23_15 C3_15 1_555 1_555
H15_15 C23_15 1_555 1_555
C24_15 C15_15 1_555 1_555
C26_15 H16_15 1_555 1_555
C31_15 C19_15 1_555 1_555
C34_15 C27_15 1_555 1_555
H21_15 C34_15 1_555 1_555
C35_15 C19_15 1_555 1_555
H22_15 C35_15 1_555 1_555
C38_15 C45_15 1_555 1_555
C40_15 C27_15 1_555 1_555
C45_15 C26_15 1_555 1_555
O1_15 C14_15 1_555 1_555
O18 C22_15 1_555 1_555
O20_4 C38_15 1_555 1_555
O21_4 C38_15 1_555 1_555
O24 C22_15 1_555 1_555
C6_15 C10_15 1_555 1_555
C7_15 C10_15 1_555 1_555
C14_15 O2_15 1_555 1_555
C20_15 C24_15 1_555 1_555
C26_15 C31_15 1_555 1_555
C31_15 C40_15 1_555 1_555
C34_15 C45_15 1_555 1_555
C2_15 H2_15 1_555 1_555
C5_15 C2_15 1_555 1_555
C9_15 H6_15 1_555 1_555
C12_15 C5_15 1_555 1_555
H7_15 C12_15 1_555 1_555
C37_15 C44_15 1_555 1_555
O17_10 C37_15 1_555 1_555
O19_10 C37_15 1_555 1_555
C9_15 C12_15 1_555 1_555
C9_15 C44_15 1_555 1_555
Cd5_4 O12_15 1_555 1_555
Cd9_4 O3_15 1_555 1_555
C13_15 H8_15 1_555 1_555
C16_15 H10_15 1_555 1_555
C17_15 C13_15 1_555 1_555
H11_15 C18_15 1_555 1_555
C21_15 C16_15 1_555 1_555
H14_15 C21_15 1_555 1_555
C25_15 C17_15 1_555 1_555
C28_15 C21_15 1_555 1_555
C36_15 C16_15 1_555 1_555
H23_15 C41_15 1_555 1_555
C47_15 C36_15 1_555 1_555
C48_15 C42_15 1_555 1_555
O3_15 C47_15 1_555 1_555
O7_15 Cd6_4 1_555 1_555
O10_15 Cd9_4 1_555 1_555
O12_15 Cd9_4 1_555 1_555
O15_15 Cd5_4 1_555 1_555
O16_15 Cd5_4 1_555 1_555
C17_15 C18_15 1_555 1_555
C25_15 O12_15 1_555 1_555
C25_15 O15_15 1_555 1_555
C32_15 C36_15 1_555 1_555
C41_15 C42_15 1_555 1_555
C47_15 O7_15 1_555 1_555
C48_15 O10_15 1_555 1_555
C48_15 O16_15 1_555 1_555
C29_15 H18_15 1_555 1_555
C30_15 C29_15 1_555 1_555
H19_15 C30_15 1_555 1_555
C39_15 C29_15 1_555 1_555
H24_15 C43_15 1_555 1_555
C46_15 C39_15 1_555 1_555
O22_2 C46_15 1_555 1_555
O23_2 C46_15 1_555 1_555
C30_15 C33_15 1_555 1_555
C39_15 C43_15 1_555 1_555
O17 C37_16 1_555 1_555
O19 C37_16 1_555 1_555
Cd4_2 O12_16 1_555 1_555
Cd7_4 O1_16 1_555 1_555
Cd8_2 O3_16 1_555 1_555
C1_16 H1_16 1_555 1_555
C3_16 C11_16 1_555 1_555
C4_16 H3_16 1_555 1_555
C6_16 H4_16 1_555 1_555
C7_16 C1_16 1_555 1_555
H5_16 C7_16 1_555 1_555
C8_16 C1_16 1_555 1_555
C11_16 C4_16 1_555 1_555
C13_16 H8_16 1_555 1_555
C14_16 C8_16 1_555 1_555
C15_16 C4_16 1_555 1_555
H9_16 C15_16 1_555 1_555
C16_16 H10_16 1_555 1_555
C17_16 C13_16 1_555 1_555
C18_16 C11_16 1_555 1_555
H11_16 C18_16 1_555 1_555
C19_16 H12_16 1_555 1_555
C20_16 C3_16 1_555 1_555
H13_16 C20_16 1_555 1_555
C21_16 C16_16 1_555 1_555
H14_16 C21_16 1_555 1_555
C22_16 C24_16 1_555 1_555
C23_16 C3_16 1_555 1_555
H15_16 C23_16 1_555 1_555
C24_16 C15_16 1_555 1_555
C25_16 C17_16 1_555 1_555
C26_16 H16_16 1_555 1_555
C27_16 H17_14 1_555 1_555
C28_16 C21_16 1_555 1_555
C31_16 C19_16 1_555 1_555
C34_16 C27_16 1_555 1_555
H21_16 C34_16 1_555 1_555
C35_16 C19_16 1_555 1_555
H22_16 C35_16 1_555 1_555
C36_16 C16_16 1_555 1_555
C38_16 C45_16 1_555 1_555
C40_16 C27_16 1_555 1_555
C41_16 C40_16 1_555 1_555
H23_16 C41_16 1_555 1_555
C42_16 C35_16 1_555 1_555
C45_16 C26_16 1_555 1_555
C47_16 C36_16 1_555 1_555
C48_16 C42_16 1_555 1_555
O1_16 C14_16 1_555 1_555
O2_16 Cd7_4 1_555 1_555
O3_16 C47_16 1_555 1_555
O18_10 C22_16 1_555 1_555
O7_16 Cd7_4 1_555 1_555
O20_6 C38_16 1_555 1_555
O21_6 C38_16 1_555 1_555
O10_16 Cd8_2 1_555 1_555
O12_16 Cd8_2 1_555 1_555
O24_10 C22_16 1_555 1_555
O15_16 Cd4_2 1_555 1_555
O16_16 Cd4_2 1_555 1_555
C6_16 C10_16 1_555 1_555
C7_16 C10_16 1_555 1_555
C13_16 C23_16 1_555 1_555
C14_16 O2_16 1_555 1_555
C17_16 C18_16 1_555 1_555
C20_16 C24_16 1_555 1_555
C25_16 O12_16 1_555 1_555
C25_16 O15_16 1_555 1_555
C26_16 C31_16 1_555 1_555
C31_16 C40_16 1_555 1_555
C32_16 C36_16 1_555 1_555
C34_16 C45_16 1_555 1_555
C41_16 C42_16 1_555 1_555
C47_16 O7_16 1_555 1_555
C48_16 O10_16 1_555 1_555
C48_16 O16_16 1_555 1_555
C2_16 H2_16 1_555 1_555
C5_16 C2_16 1_555 1_555
C9_16 H6_16 1_555 1_555
C12_16 C5_16 1_555 1_555
H7_16 C12_16 1_555 1_555
C29_16 H18_16 1_555 1_555
C30_16 C29_16 1_555 1_555
H19_16 C30_16 1_555 1_555
C39_16 C29_16 1_555 1_555
H24_16 C43_16 1_555 1_555
C46_16 C39_16 1_555 1_555
O22_10 C46_16 1_555 1_555
O23_10 C46_16 1_555 1_555
C9_16 C12_16 1_555 1_555
C9_16 C44_16 1_555 1_555
C30_16 C33_16 1_555 1_555
C39_16 C43_16 1_555 1_555

#END
