
###############################################################################
#
# This file contains modified crystal structure data generated from the
# MOF subset of the Cambridge Structural Database (CSD) v543 
# hosted by the Cambridge Crystallographic Data Centre (CCDC).
#
# This work is licensed under the Creative Commons
# Attribution-NonCommercial-ShareAlike 4.0 International License.
# To view a copy of this license, visit
# http://creativecommons.org/licenses/by-nc-sa/4.0/
# or send a letter to
# Creative Commons, PO Box 1866, Mountain View, CA 94042, USA.
#
# CIF created using the CSD Python API on 29 September 2022
# The structure has been converted into the P1 space group
# The structure has a 3D framework
# The original CSD entry LUWMEX is in the monoclinic crystal system
# The framework has been calculated to contain at least 10.0% void space
# The void calculation uses a probe of radius 1.32A, grid spacing 0.4
#
###############################################################################

data_LUWMEX
_chemical_formula_moiety         '(C144 H128 La8 N8 O64)n'
_symmetry_cell_setting           triclinic
_symmetry_space_group_name_H-M   'P 1'
_symmetry_Int_Tables_number      1
_space_group_name_Hall           'P 1'
loop_
_symmetry_equiv_pos_site_id
_symmetry_equiv_pos_as_xyz
1 x,y,z
_cell_length_a                   24.795(7)
_cell_length_b                   13.651(4)
_cell_length_c                   14.936(5)
_cell_angle_alpha                90
_cell_angle_beta                 97.077(4)
_cell_angle_gamma                90
_cell_volume                     5016.97
loop_
_atom_site_label
_atom_site_type_symbol
_atom_site_fract_x
_atom_site_fract_y
_atom_site_fract_z
C1 C 0.0700(2) 0.7217(5) 0.5416(4)
C2 C 0.0197(2) 0.6888(5) 0.5814(4)
C7 C 0.0063(2) 0.5906(5) 0.5787(4)
H4 H 0.0297 0.5448 0.5581
O1 O 0.08265(18) 0.8115(4) 0.5470(4)
O2 O 0.09742(16) 0.6613(4) 0.5038(3)
La3 La 0.169086(10) 0.78982(2) 0.469715(19)
La4 La 0.830914(10) 0.78982(2) 0.030285(19)
La1 La 0.830914(10) 0.21018(2) 0.530285(19)
C3 C 0.9863(3) 0.7547(6) 0.6174(6)
H1 H 0.9962 0.8202 0.6233
C4 C 0.9372(3) 0.7230(5) 0.6451(6)
H2 H 0.9141 0.7684 0.6669
C5 C 0.9227(2) 0.6252(4) 0.6405(4)
C6 C 0.9576(2) 0.5607(5) 0.6071(4)
H3 H 0.9483 0.4947 0.6032
C8 C 0.8684(2) 0.5946(4) 0.6654(4)
C9 C 0.8458(2) 0.6405(5) 0.7356(4)
H5 H 0.8665 0.6859 0.7714
C10 C 0.7931(2) 0.6204(4) 0.7537(4)
C11 C 0.7628(2) 0.5520(4) 0.7013(4)
H6 H 0.7272 0.5394 0.7116
C12 C 0.7848(2) 0.5018(4) 0.6334(4)
C13 C 0.8377(2) 0.5216(4) 0.6164(4)
H7 H 0.8528 0.4864 0.5723
C14 C 0.7499(2) 0.4285(4) 0.5766(4)
C15 C 0.7716(2) 0.6718(5) 0.8315(4)
O3 O 0.77297(14) 0.3579(3) 0.5416(3)
O4 O 0.70008(15) 0.4395(3) 0.5660(3)
O5 O 0.72369(15) 0.6500(4) 0.8478(3)
O6 O 0.80241(17) 0.7315(3) 0.8754(3)
O7 O 0.8771(3) 0.2725(6) 0.6790(5)
N1 N 0.8894(5) 0.3507(10) 0.8168(7)
C16 C 0.8560(5) 0.3105(9) 0.7457(7)
H8 H 0.8185 0.3108 0.7458
C17 C 0.8669(6) 0.4019(13) 0.8870(10)
H9 H 0.8683 0.4711 0.8763
H10 H 0.8876 0.3868 0.9440
H11 H 0.8298 0.3821 0.8880
C18 C 0.9465(5) 0.3517(14) 0.8206(11)
H12 H 0.9593 0.2864 0.8124
H13 H 0.9621 0.3762 0.8783
H14 H 0.9568 0.3933 0.7738
O8 O 0.8815(3) 0.0625(6) 0.6079(5)
H15 H 0.8556 0.0210 0.5638
H16 H 0.9072 0.1014 0.6196
La2 La 0.669086(10) 0.71018(2) 0.969715(19)
La5 La 0.669086(10) 0.28982(2) 0.469715(19)
O9 O 0.91735(18) 0.1885(4) 0.4530(4)
O10 O 0.90258(16) 0.3387(4) 0.4962(3)
O11 O 0.72703(14) 0.1421(3) 0.4584(3)
O12 O 0.79992(15) 0.0605(3) 0.4340(3)
O13 O 0.77631(15) 0.1500(4) 0.6522(3)
O14 O 0.80241(17) 0.2685(3) 0.3754(3)
La5_2 La 0.330914(10) 0.28982(2) 0.030285(19)
O9_2 O 0.08265(18) 0.1885(4) 0.0470(4)
O10_2 O 0.09742(16) 0.3387(4) 0.0038(3)
O11_2 O 0.27297(14) 0.1421(3) 0.0416(3)
O12_2 O 0.20008(15) 0.0605(3) 0.0660(3)
O14_2 O 0.19759(17) 0.2685(3) 0.1246(3)
La1_2 La 0.169086(10) 0.21018(2) 0.969715(19)
C3_2 C 0.0137(3) 0.7547(6) 0.8826(6)
H1_2 H 0.0038 0.8202 0.8767
C4_2 C 0.0628(3) 0.7230(5) 0.8549(6)
H2_2 H 0.0859 0.7684 0.8331
C5_2 C 0.0773(2) 0.6252(4) 0.8595(4)
C6_2 C 0.0424(2) 0.5607(5) 0.8929(4)
H3_2 H 0.0517 0.4947 0.8968
C8_2 C 0.1316(2) 0.5946(4) 0.8346(4)
C9_2 C 0.1542(2) 0.6405(5) 0.7644(4)
H5_2 H 0.1335 0.6859 0.7286
C10_2 C 0.2069(2) 0.6204(4) 0.7463(4)
C11_2 C 0.2372(2) 0.5520(4) 0.7987(4)
H6_2 H 0.2728 0.5394 0.7884
C12_2 C 0.2152(2) 0.5018(4) 0.8666(4)
C13_2 C 0.1623(2) 0.5216(4) 0.8836(4)
H7_2 H 0.1472 0.4864 0.9277
C14_2 C 0.2501(2) 0.4285(4) 0.9234(4)
C15_2 C 0.2284(2) 0.6718(5) 0.6685(4)
O3_2 O 0.22703(14) 0.3579(3) 0.9584(3)
O4_2 O 0.29992(15) 0.4395(3) 0.9340(3)
O5_2 O 0.27631(15) 0.6500(4) 0.6522(3)
O6_2 O 0.19759(17) 0.7315(3) 0.6246(3)
O7_2 O 0.1229(3) 0.2725(6) 0.8210(5)
N1_2 N 0.1106(5) 0.3507(10) 0.6832(7)
C16_2 C 0.1440(5) 0.3105(9) 0.7543(7)
H8_2 H 0.1815 0.3108 0.7542
C17_2 C 0.1331(6) 0.4019(13) 0.6130(10)
H9_2 H 0.1317 0.4711 0.6237
H10_2 H 0.1124 0.3868 0.5560
H11_2 H 0.1702 0.3821 0.6120
C18_2 C 0.0535(5) 0.3517(14) 0.6794(11)
H12_2 H 0.0407 0.2864 0.6876
H13_2 H 0.0379 0.3762 0.6217
H14_2 H 0.0432 0.3933 0.7262
O8_2 O 0.1185(3) 0.0625(6) 0.8921(5)
H15_2 H 0.1444 0.0210 0.9362
H16_2 H 0.0928 0.1014 0.8804
La2_2 La 0.330914(10) 0.71018(2) 0.530285(19)
O13_2 O 0.22369(15) 0.1500(4) 0.8478(3)
C1_2 C 0.9300(2) 0.7217(5) 0.9584(4)
C2_2 C 0.9803(2) 0.6888(5) 0.9186(4)
C7_2 C 0.9937(2) 0.5906(5) 0.9213(4)
H4_2 H 0.9703 0.5448 0.9419
O1_2 O 0.91735(18) 0.8115(4) 0.9530(4)
O2_2 O 0.90258(16) 0.6613(4) 0.9962(3)
C1_3 C 0.5700(2) 0.2217(5) 0.5416(4)
C2_3 C 0.5197(2) 0.1888(5) 0.5814(4)
C3_3 C 0.4863(3) 0.2547(6) 0.6174(6)
H1_3 H 0.4962 0.3202 0.6233
C4_3 C 0.4372(3) 0.2230(5) 0.6451(6)
H2_3 H 0.4141 0.2684 0.6669
C5_3 C 0.4227(2) 0.1252(4) 0.6405(4)
C6_3 C 0.4576(2) 0.0607(5) 0.6071(4)
C7_3 C 0.5063(2) 0.0906(5) 0.5787(4)
H4_3 H 0.5297 0.0448 0.5581
C8_3 C 0.3684(2) 0.0946(4) 0.6654(4)
C9_3 C 0.3458(2) 0.1405(5) 0.7356(4)
H5_3 H 0.3665 0.1859 0.7714
C10_3 C 0.2931(2) 0.1204(4) 0.7537(4)
C11_3 C 0.2628(2) 0.0520(4) 0.7013(4)
H6_3 H 0.2272 0.0394 0.7116
C12_3 C 0.2848(2) 0.0018(4) 0.6334(4)
C13_3 C 0.3377(2) 0.0216(4) 0.6164(4)
C15_3 C 0.2716(2) 0.1718(5) 0.8315(4)
O1_3 O 0.58265(18) 0.3115(4) 0.5470(4)
O2_3 O 0.59742(16) 0.1613(4) 0.5038(3)
O6_3 O 0.30241(17) 0.2315(3) 0.8754(3)
H3_3 H 0.4483 0.9947 0.6032
H7_3 H 0.3528 0.9864 0.5723
C14_3 C 0.2499(2) 0.9285(4) 0.5766(4)
O3_3 O 0.27297(14) 0.8579(3) 0.5416(3)
O4_3 O 0.20008(15) 0.9395(3) 0.5660(3)
O7_3 O 0.3771(3) 0.7725(6) 0.6790(5)
N1_3 N 0.3894(5) 0.8507(10) 0.8168(7)
C16_3 C 0.3560(5) 0.8105(9) 0.7457(7)
H8_3 H 0.3185 0.8108 0.7458
C17_3 C 0.3669(6) 0.9019(13) 0.8870(10)
H9_3 H 0.3683 0.9711 0.8763
H10_3 H 0.3876 0.8868 0.9440
H11_3 H 0.3298 0.8821 0.8880
C18_3 C 0.4465(5) 0.8517(14) 0.8206(11)
H12_3 H 0.4593 0.7864 0.8124
H13_3 H 0.4621 0.8762 0.8783
H14_3 H 0.4568 0.8933 0.7738
O8_3 O 0.3815(3) 0.5625(6) 0.6079(5)
H15_3 H 0.3556 0.5210 0.5638
H16_3 H 0.4072 0.6014 0.6196
O9_3 O 0.41735(18) 0.6885(4) 0.4530(4)
O10_3 O 0.40258(16) 0.8387(4) 0.4962(3)
O11_3 O 0.22703(14) 0.6421(3) 0.4584(3)
O12_3 O 0.29992(15) 0.5605(3) 0.4340(3)
O14_3 O 0.30241(17) 0.7685(3) 0.3754(3)
C1_4 C 0.4300(2) 0.2217(5) 0.9584(4)
C2_4 C 0.4803(2) 0.1888(5) 0.9186(4)
C3_4 C 0.5137(3) 0.2547(6) 0.8826(6)
H1_4 H 0.5038 0.3202 0.8767
C4_4 C 0.5628(3) 0.2230(5) 0.8549(6)
H2_4 H 0.5859 0.2684 0.8331
C5_4 C 0.5773(2) 0.1252(4) 0.8595(4)
C6_4 C 0.5424(2) 0.0607(5) 0.8929(4)
C7_4 C 0.4937(2) 0.0906(5) 0.9213(4)
H4_4 H 0.4703 0.0448 0.9419
C8_4 C 0.6316(2) 0.0946(4) 0.8346(4)
C9_4 C 0.6542(2) 0.1405(5) 0.7644(4)
H5_4 H 0.6335 0.1859 0.7286
C10_4 C 0.7069(2) 0.1204(4) 0.7463(4)
C11_4 C 0.7372(2) 0.0520(4) 0.7987(4)
H6_4 H 0.7728 0.0394 0.7884
C12_4 C 0.7152(2) 0.0018(4) 0.8666(4)
C13_4 C 0.6623(2) 0.0216(4) 0.8836(4)
C15_4 C 0.7284(2) 0.1718(5) 0.6685(4)
O1_4 O 0.41735(18) 0.3115(4) 0.9530(4)
O2_4 O 0.40258(16) 0.1613(4) 0.9962(3)
O6_4 O 0.69759(17) 0.2315(3) 0.6246(3)
O9_4 O 0.58265(18) 0.6885(4) 0.0470(4)
O10_4 O 0.59742(16) 0.8387(4) 0.0038(3)
O11_4 O 0.77297(14) 0.6421(3) 0.0416(3)
O12_4 O 0.70008(15) 0.5605(3) 0.0660(3)
O14_4 O 0.69759(17) 0.7685(3) 0.1246(3)
H3_4 H 0.5517 0.9947 0.8968
H7_4 H 0.6472 0.9864 0.9277
C14_4 C 0.7501(2) 0.9285(4) 0.9234(4)
O3_4 O 0.72703(14) 0.8579(3) 0.9584(3)
O4_4 O 0.79992(15) 0.9395(3) 0.9340(3)
O7_4 O 0.6229(3) 0.7725(6) 0.8210(5)
N1_4 N 0.6106(5) 0.8507(10) 0.6832(7)
C16_4 C 0.6440(5) 0.8105(9) 0.7543(7)
H8_4 H 0.6815 0.8108 0.7542
C17_4 C 0.6331(6) 0.9019(13) 0.6130(10)
H9_4 H 0.6317 0.9711 0.6237
H10_4 H 0.6124 0.8868 0.5560
H11_4 H 0.6702 0.8821 0.6120
C18_4 C 0.5535(5) 0.8517(14) 0.6794(11)
H12_4 H 0.5407 0.7864 0.6876
H13_4 H 0.5379 0.8762 0.6217
H14_4 H 0.5432 0.8933 0.7262
O8_4 O 0.6185(3) 0.5625(6) 0.8921(5)
H15_4 H 0.6444 0.5210 0.9362
H16_4 H 0.5928 0.6014 0.8804
C3_5 C 0.0137(3) 0.2453(6) 0.3826(6)
H1_5 H 0.0038 0.1798 0.3767
C4_5 C 0.0628(3) 0.2770(5) 0.3549(6)
H2_5 H 0.0859 0.2316 0.3331
C5_5 C 0.0773(2) 0.3748(4) 0.3595(4)
C6_5 C 0.0424(2) 0.4393(5) 0.3929(4)
H3_5 H 0.0517 0.5053 0.3968
C8_5 C 0.1316(2) 0.4054(4) 0.3346(4)
C9_5 C 0.1542(2) 0.3595(5) 0.2644(4)
H5_5 H 0.1335 0.3141 0.2286
C10_5 C 0.2069(2) 0.3796(4) 0.2463(4)
C11_5 C 0.2372(2) 0.4480(4) 0.2987(4)
H6_5 H 0.2728 0.4606 0.2884
C12_5 C 0.2152(2) 0.4982(4) 0.3666(4)
C13_5 C 0.1623(2) 0.4784(4) 0.3836(4)
H7_5 H 0.1472 0.5136 0.4277
C14_5 C 0.2501(2) 0.5715(4) 0.4234(4)
C15_5 C 0.2284(2) 0.3282(5) 0.1685(4)
O5_3 O 0.27631(15) 0.3500(4) 0.1522(3)
O7_5 O 0.1229(3) 0.7275(6) 0.3210(5)
N1_5 N 0.1106(5) 0.6493(10) 0.1832(7)
C16_5 C 0.1440(5) 0.6895(9) 0.2543(7)
H8_5 H 0.1815 0.6892 0.2542
C17_5 C 0.1331(6) 0.5981(13) 0.1130(10)
H9_5 H 0.1317 0.5289 0.1237
H10_5 H 0.1124 0.6132 0.0560
H11_5 H 0.1702 0.6179 0.1120
C18_5 C 0.0535(5) 0.6483(14) 0.1794(11)
H12_5 H 0.0407 0.7136 0.1876
H13_5 H 0.0379 0.6238 0.1217
H14_5 H 0.0432 0.6067 0.2262
O8_5 O 0.1185(3) 0.9375(6) 0.3921(5)
H15_5 H 0.1444 0.9790 0.4362
H16_5 H 0.0928 0.8986 0.3804
O13_3 O 0.22369(15) 0.8500(4) 0.3478(3)
C1_5 C 0.9300(2) 0.2783(5) 0.4584(4)
C2_5 C 0.9803(2) 0.3112(5) 0.4186(4)
C7_5 C 0.9937(2) 0.4094(5) 0.4213(4)
H4_5 H 0.9703 0.4552 0.4419
C1_6 C 0.0700(2) 0.2783(5) 0.0416(4)
C2_6 C 0.0197(2) 0.3112(5) 0.0814(4)
C7_6 C 0.0063(2) 0.4094(5) 0.0787(4)
H4_6 H 0.0297 0.4552 0.0581
C3_6 C 0.9863(3) 0.2453(6) 0.1174(6)
H1_6 H 0.9962 0.1798 0.1233
C4_6 C 0.9372(3) 0.2770(5) 0.1451(6)
H2_6 H 0.9141 0.2316 0.1669
C5_6 C 0.9227(2) 0.3748(4) 0.1405(4)
C6_6 C 0.9576(2) 0.4393(5) 0.1071(4)
H3_6 H 0.9483 0.5053 0.1032
C8_6 C 0.8684(2) 0.4054(4) 0.1654(4)
C9_6 C 0.8458(2) 0.3595(5) 0.2356(4)
H5_6 H 0.8665 0.3141 0.2714
C10_6 C 0.7931(2) 0.3796(4) 0.2537(4)
C11_6 C 0.7628(2) 0.4480(4) 0.2013(4)
H6_6 H 0.7272 0.4606 0.2116
C12_6 C 0.7848(2) 0.4982(4) 0.1334(4)
C13_6 C 0.8377(2) 0.4784(4) 0.1164(4)
H7_6 H 0.8528 0.5136 0.0723
C14_6 C 0.7499(2) 0.5715(4) 0.0766(4)
C15_6 C 0.7716(2) 0.3282(5) 0.3315(4)
O5_4 O 0.72369(15) 0.3500(4) 0.3478(3)
O7_6 O 0.8771(3) 0.7275(6) 0.1790(5)
N1_6 N 0.8894(5) 0.6493(10) 0.3168(7)
C16_6 C 0.8560(5) 0.6895(9) 0.2457(7)
H8_6 H 0.8185 0.6892 0.2458
C17_6 C 0.8669(6) 0.5981(13) 0.3870(10)
H9_6 H 0.8683 0.5289 0.3763
H10_6 H 0.8876 0.6132 0.4440
H11_6 H 0.8298 0.6179 0.3880
C18_6 C 0.9465(5) 0.6483(14) 0.3206(11)
H12_6 H 0.9593 0.7136 0.3124
H13_6 H 0.9621 0.6238 0.3783
H14_6 H 0.9568 0.6067 0.2738
O8_6 O 0.8815(3) 0.9375(6) 0.1079(5)
H15_6 H 0.8556 0.9790 0.0638
H16_6 H 0.9072 0.8986 0.1196
O13_4 O 0.77631(15) 0.8500(4) 0.1522(3)
H3_7 H 0.5517 0.0053 0.3968
H7_7 H 0.6472 0.0136 0.4277
C14_7 C 0.7501(2) 0.0715(4) 0.4234(4)
O7_7 O 0.6229(3) 0.2275(6) 0.3210(5)
N1_7 N 0.6106(5) 0.1493(10) 0.1832(7)
C16_7 C 0.6440(5) 0.1895(9) 0.2543(7)
H8_7 H 0.6815 0.1892 0.2542
C17_7 C 0.6331(6) 0.0981(13) 0.1130(10)
H9_7 H 0.6317 0.0289 0.1237
H10_7 H 0.6124 0.1132 0.0560
H11_7 H 0.6702 0.1179 0.1120
C18_7 C 0.5535(5) 0.1483(14) 0.1794(11)
H12_7 H 0.5407 0.2136 0.1876
H13_7 H 0.5379 0.1238 0.1217
H14_7 H 0.5432 0.1067 0.2262
O8_7 O 0.6185(3) 0.4375(6) 0.3921(5)
H15_7 H 0.6444 0.4790 0.4362
H16_7 H 0.5928 0.3986 0.3804
C1_7 C 0.4300(2) 0.7783(5) 0.4584(4)
C2_7 C 0.4803(2) 0.8112(5) 0.4186(4)
C3_7 C 0.5137(3) 0.7453(6) 0.3826(6)
H1_7 H 0.5038 0.6798 0.3767
C4_7 C 0.5628(3) 0.7770(5) 0.3549(6)
H2_7 H 0.5859 0.7316 0.3331
C5_7 C 0.5773(2) 0.8748(4) 0.3595(4)
C6_7 C 0.5424(2) 0.9393(5) 0.3929(4)
C7_7 C 0.4937(2) 0.9094(5) 0.4213(4)
H4_7 H 0.4703 0.9552 0.4419
C8_7 C 0.6316(2) 0.9054(4) 0.3346(4)
C9_7 C 0.6542(2) 0.8595(5) 0.2644(4)
H5_7 H 0.6335 0.8141 0.2286
C10_7 C 0.7069(2) 0.8796(4) 0.2463(4)
C11_7 C 0.7372(2) 0.9480(4) 0.2987(4)
H6_7 H 0.7728 0.9606 0.2884
C12_7 C 0.7152(2) 0.9982(4) 0.3666(4)
C13_7 C 0.6623(2) 0.9784(4) 0.3836(4)
C15_7 C 0.7284(2) 0.8282(5) 0.1685(4)
H3_8 H 0.4483 0.0053 0.1032
H7_8 H 0.3528 0.0136 0.0723
C14_8 C 0.2499(2) 0.0715(4) 0.0766(4)
O7_8 O 0.3771(3) 0.2275(6) 0.1790(5)
N1_8 N 0.3894(5) 0.1493(10) 0.3168(7)
C16_8 C 0.3560(5) 0.1895(9) 0.2457(7)
H8_8 H 0.3185 0.1892 0.2458
C17_8 C 0.3669(6) 0.0981(13) 0.3870(10)
H9_8 H 0.3683 0.0289 0.3763
H10_8 H 0.3876 0.1132 0.4440
H11_8 H 0.3298 0.1179 0.3880
C18_8 C 0.4465(5) 0.1483(14) 0.3206(11)
H12_8 H 0.4593 0.2136 0.3124
H13_8 H 0.4621 0.1238 0.3783
H14_8 H 0.4568 0.1067 0.2738
O8_8 O 0.3815(3) 0.4375(6) 0.1079(5)
H15_8 H 0.3556 0.4790 0.0638
H16_8 H 0.4072 0.3986 0.1196
C1_8 C 0.5700(2) 0.7783(5) 0.0416(4)
C2_8 C 0.5197(2) 0.8112(5) 0.0814(4)
C3_8 C 0.4863(3) 0.7453(6) 0.1174(6)
H1_8 H 0.4962 0.6798 0.1233
C4_8 C 0.4372(3) 0.7770(5) 0.1451(6)
H2_8 H 0.4141 0.7316 0.1669
C5_8 C 0.4227(2) 0.8748(4) 0.1405(4)
C6_8 C 0.4576(2) 0.9393(5) 0.1071(4)
C7_8 C 0.5063(2) 0.9094(5) 0.0787(4)
H4_8 H 0.5297 0.9552 0.0581
C8_8 C 0.3684(2) 0.9054(4) 0.1654(4)
C9_8 C 0.3458(2) 0.8595(5) 0.2356(4)
H5_8 H 0.3665 0.8141 0.2714
C10_8 C 0.2931(2) 0.8796(4) 0.2537(4)
C11_8 C 0.2628(2) 0.9480(4) 0.2013(4)
H6_8 H 0.2272 0.9606 0.2116
C12_8 C 0.2848(2) 0.9982(4) 0.1334(4)
C13_8 C 0.3377(2) 0.9784(4) 0.1164(4)
C15_8 C 0.2716(2) 0.8282(5) 0.3315(4)
loop_
_geom_bond_atom_site_label_1
_geom_bond_atom_site_label_2
_geom_bond_site_symmetry_1
_geom_bond_site_symmetry_2
C1 C2 1_555 1_555
C7 C2 1_555 1_555
H4 C7 1_555 1_555
O1 C1 1_555 1_555
O2 C1 1_555 1_555
La3 O1 1_555 1_555
O2 La3 1_555 1_555
La1 O3 1_555 1_555
C3 H1 1_555 1_555
C4 C3 1_555 1_555
H2 C4 1_555 1_555
C5 C4 1_555 1_555
C6 C5 1_555 1_555
H3 C6 1_555 1_555
C8 C5 1_555 1_555
C9 C8 1_555 1_555
H5 C9 1_555 1_555
C10 C9 1_555 1_555
C11 C10 1_555 1_555
H6 C11 1_555 1_555
C12 C11 1_555 1_555
C13 C8 1_555 1_555
H7 C13 1_555 1_555
C14 C12 1_555 1_555
C15 C10 1_555 1_555
O3 C14 1_555 1_555
O4 C14 1_555 1_555
O5 C15 1_555 1_555
O6 C15 1_555 1_555
O7 La1 1_555 1_555
N1 C16 1_555 1_555
C16 O7 1_555 1_555
H8 C16 1_555 1_555
C17 N1 1_555 1_555
H9 C17 1_555 1_555
H10 C17 1_555 1_555
H11 C17 1_555 1_555
C18 N1 1_555 1_555
H12 C18 1_555 1_555
H13 C18 1_555 1_555
H14 C18 1_555 1_555
O8 La1 1_555 1_555
H15 O8 1_555 1_555
H16 O8 1_555 1_555
La2 O5 1_555 1_555
La5 O3 1_555 1_555
O9 La1 1_555 1_555
O10 La1 1_555 1_555
O11 La1 1_555 1_555
O12 La1 1_555 1_555
O13 La1 1_555 1_555
O14 La1 1_555 1_555
C12 C13 1_555 1_555
O4 La5 1_555 1_555
La5 O11 1_555 1_555
La5_2 O11_2 1_555 1_555
La1_2 O3_2 1_555 1_555
C3_2 H1_2 1_555 1_555
C4_2 C3_2 1_555 1_555
H2_2 C4_2 1_555 1_555
C5_2 C4_2 1_555 1_555
C6_2 C5_2 1_555 1_555
H3_2 C6_2 1_555 1_555
C8_2 C5_2 1_555 1_555
C9_2 C8_2 1_555 1_555
H5_2 C9_2 1_555 1_555
C10_2 C9_2 1_555 1_555
C11_2 C10_2 1_555 1_555
H6_2 C11_2 1_555 1_555
C12_2 C11_2 1_555 1_555
C13_2 C8_2 1_555 1_555
H7_2 C13_2 1_555 1_555
C14_2 C12_2 1_555 1_555
C15_2 C10_2 1_555 1_555
O3_2 C14_2 1_555 1_555
O4_2 C14_2 1_555 1_555
O5_2 C15_2 1_555 1_555
O6_2 C15_2 1_555 1_555
O7_2 La1_2 1_555 1_555
N1_2 C16_2 1_555 1_555
C16_2 O7_2 1_555 1_555
H8_2 C16_2 1_555 1_555
C17_2 N1_2 1_555 1_555
H9_2 C17_2 1_555 1_555
H10_2 C17_2 1_555 1_555
H11_2 C17_2 1_555 1_555
C18_2 N1_2 1_555 1_555
H12_2 C18_2 1_555 1_555
H13_2 C18_2 1_555 1_555
H14_2 C18_2 1_555 1_555
O8_2 La1_2 1_555 1_555
H15_2 O8_2 1_555 1_555
H16_2 O8_2 1_555 1_555
La2_2 O5_2 1_555 1_555
La3 O6_2 1_555 1_555
O13_2 La1_2 1_555 1_555
C12_2 C13_2 1_555 1_555
C1_2 C2_2 1_555 1_555
C7_2 C2_2 1_555 1_555
H4_2 C7_2 1_555 1_555
O1_2 C1_2 1_555 1_555
O2_2 C1_2 1_555 1_555
C1_3 C2_3 1_555 1_555
C2_3 C3_3 1_555 1_555
C3_3 H1_3 1_555 1_555
C4_3 C3_3 1_555 1_555
H2_3 C4_3 1_555 1_555
C5_3 C4_3 1_555 1_555
C6_3 C5_3 1_555 1_555
C7_3 C2_3 1_555 1_555
H4_3 C7_3 1_555 1_555
C8_3 C5_3 1_555 1_555
C9_3 C8_3 1_555 1_555
H5_3 C9_3 1_555 1_555
C10_3 C9_3 1_555 1_555
C11_3 C10_3 1_555 1_555
H6_3 C11_3 1_555 1_555
C12_3 C11_3 1_555 1_555
C13_3 C8_3 1_555 1_555
C15_3 C10_3 1_555 1_555
O1_3 C1_3 1_555 1_555
O2_3 C1_3 1_555 1_555
O13_2 C15_3 1_555 1_555
O6_3 C15_3 1_555 1_555
La5 O1_3 1_555 1_555
C6_3 C7_3 1_555 1_555
C12_3 C13_3 1_555 1_555
O2_3 La5 1_555 1_555
La2_2 O3_3 1_555 1_555
O3_3 C14_3 1_555 1_555
O4_3 C14_3 1_555 1_555
O7_3 La2_2 1_555 1_555
N1_3 C16_3 1_555 1_555
C16_3 O7_3 1_555 1_555
H8_3 C16_3 1_555 1_555
C17_3 N1_3 1_555 1_555
H9_3 C17_3 1_555 1_555
H10_3 C17_3 1_555 1_555
H11_3 C17_3 1_555 1_555
C18_3 N1_3 1_555 1_555
H12_3 C18_3 1_555 1_555
H13_3 C18_3 1_555 1_555
H14_3 C18_3 1_555 1_555
O8_3 La2_2 1_555 1_555
H15_3 O8_3 1_555 1_555
H16_3 O8_3 1_555 1_555
La3 O3_3 1_555 1_555
O9_3 La2_2 1_555 1_555
O10_3 La2_2 1_555 1_555
O11_3 La2_2 1_555 1_555
O12_3 La2_2 1_555 1_555
O14_3 La2_2 1_555 1_555
O4_3 La3 1_555 1_555
La3 O11_3 1_555 1_555
C1_4 C2_4 1_555 1_555
C2_4 C3_4 1_555 1_555
C3_4 H1_4 1_555 1_555
C4_4 C3_4 1_555 1_555
H2_4 C4_4 1_555 1_555
C5_4 C4_4 1_555 1_555
C6_4 C5_4 1_555 1_555
C7_4 C2_4 1_555 1_555
H4_4 C7_4 1_555 1_555
C8_4 C5_4 1_555 1_555
C9_4 C8_4 1_555 1_555
H5_4 C9_4 1_555 1_555
C10_4 C9_4 1_555 1_555
C11_4 C10_4 1_555 1_555
H6_4 C11_4 1_555 1_555
C12_4 C11_4 1_555 1_555
C13_4 C8_4 1_555 1_555
C15_4 C10_4 1_555 1_555
O1_4 C1_4 1_555 1_555
O2_4 C1_4 1_555 1_555
O13 C15_4 1_555 1_555
O6_4 C15_4 1_555 1_555
La5 O6_4 1_555 1_555
C6_4 C7_4 1_555 1_555
C12_4 C13_4 1_555 1_555
La4 O11_4 1_555 1_555
La2 O3_4 1_555 1_555
O3_4 C14_4 1_555 1_555
O4_4 C14_4 1_555 1_555
O7_4 La2 1_555 1_555
N1_4 C16_4 1_555 1_555
C16_4 O7_4 1_555 1_555
H8_4 C16_4 1_555 1_555
C17_4 N1_4 1_555 1_555
H9_4 C17_4 1_555 1_555
H10_4 C17_4 1_555 1_555
H11_4 C17_4 1_555 1_555
C18_4 N1_4 1_555 1_555
H12_4 C18_4 1_555 1_555
H13_4 C18_4 1_555 1_555
H14_4 C18_4 1_555 1_555
O8_4 La2 1_555 1_555
H15_4 O8_4 1_555 1_555
H16_4 O8_4 1_555 1_555
C3_5 H1_5 1_555 1_555
C4_5 C3_5 1_555 1_555
H2_5 C4_5 1_555 1_555
C5_5 C4_5 1_555 1_555
C6_5 C5_5 1_555 1_555
H3_5 C6_5 1_555 1_555
C8_5 C5_5 1_555 1_555
C9_5 C8_5 1_555 1_555
H5_5 C9_5 1_555 1_555
C10_5 C9_5 1_555 1_555
C11_5 C10_5 1_555 1_555
H6_5 C11_5 1_555 1_555
C12_5 C11_5 1_555 1_555
C13_5 C8_5 1_555 1_555
H7_5 C13_5 1_555 1_555
C14_5 C12_5 1_555 1_555
C15_5 C10_5 1_555 1_555
O11_3 C14_5 1_555 1_555
O12_3 C14_5 1_555 1_555
O5_3 C15_5 1_555 1_555
O14_2 C15_5 1_555 1_555
O7_5 La3 1_555 1_555
N1_5 C16_5 1_555 1_555
C16_5 O7_5 1_555 1_555
H8_5 C16_5 1_555 1_555
C17_5 N1_5 1_555 1_555
H9_5 C17_5 1_555 1_555
H10_5 C17_5 1_555 1_555
H11_5 C17_5 1_555 1_555
C18_5 N1_5 1_555 1_555
H12_5 C18_5 1_555 1_555
H13_5 C18_5 1_555 1_555
H14_5 C18_5 1_555 1_555
O8_5 La3 1_555 1_555
H15_5 O8_5 1_555 1_555
H16_5 O8_5 1_555 1_555
La5_2 O5_3 1_555 1_555
O13_3 La3 1_555 1_555
C12_5 C13_5 1_555 1_555
C1_5 C2_5 1_555 1_555
C7_5 C2_5 1_555 1_555
H4_5 C7_5 1_555 1_555
O9 C1_5 1_555 1_555
O10 C1_5 1_555 1_555
C1_6 C2_6 1_555 1_555
C7_6 C2_6 1_555 1_555
H4_6 C7_6 1_555 1_555
O9_2 C1_6 1_555 1_555
O10_2 C1_6 1_555 1_555
C3_6 H1_6 1_555 1_555
C4_6 C3_6 1_555 1_555
H2_6 C4_6 1_555 1_555
C5_6 C4_6 1_555 1_555
C6_6 C5_6 1_555 1_555
H3_6 C6_6 1_555 1_555
C8_6 C5_6 1_555 1_555
C9_6 C8_6 1_555 1_555
H5_6 C9_6 1_555 1_555
C10_6 C9_6 1_555 1_555
C11_6 C10_6 1_555 1_555
H6_6 C11_6 1_555 1_555
C12_6 C11_6 1_555 1_555
C13_6 C8_6 1_555 1_555
H7_6 C13_6 1_555 1_555
C14_6 C12_6 1_555 1_555
C15_6 C10_6 1_555 1_555
O11_4 C14_6 1_555 1_555
O12_4 C14_6 1_555 1_555
O5_4 C15_6 1_555 1_555
O14 C15_6 1_555 1_555
O7_6 La4 1_555 1_555
N1_6 C16_6 1_555 1_555
C16_6 O7_6 1_555 1_555
H8_6 C16_6 1_555 1_555
C17_6 N1_6 1_555 1_555
H9_6 C17_6 1_555 1_555
H10_6 C17_6 1_555 1_555
H11_6 C17_6 1_555 1_555
C18_6 N1_6 1_555 1_555
H12_6 C18_6 1_555 1_555
H13_6 C18_6 1_555 1_555
H14_6 C18_6 1_555 1_555
O8_6 La4 1_555 1_555
H15_6 O8_6 1_555 1_555
H16_6 O8_6 1_555 1_555
La5 O5_4 1_555 1_555
O13_4 La4 1_555 1_555
C12_6 C13_6 1_555 1_555
O11 C14_7 1_555 1_555
O12 C14_7 1_555 1_555
O7_7 La5 1_555 1_555
N1_7 C16_7 1_555 1_555
C16_7 O7_7 1_555 1_555
H8_7 C16_7 1_555 1_555
C17_7 N1_7 1_555 1_555
H9_7 C17_7 1_555 1_555
H10_7 C17_7 1_555 1_555
H11_7 C17_7 1_555 1_555
C18_7 N1_7 1_555 1_555
H12_7 C18_7 1_555 1_555
H13_7 C18_7 1_555 1_555
H14_7 C18_7 1_555 1_555
O8_7 La5 1_555 1_555
H15_7 O8_7 1_555 1_555
H16_7 O8_7 1_555 1_555
C1_7 C2_7 1_555 1_555
C2_7 C3_7 1_555 1_555
C3_7 H1_7 1_555 1_555
C4_7 C3_7 1_555 1_555
H2_7 C4_7 1_555 1_555
C5_7 C4_7 1_555 1_555
C6_7 C5_7 1_555 1_555
C7_7 C2_7 1_555 1_555
H4_7 C7_7 1_555 1_555
C8_7 C5_7 1_555 1_555
C9_7 C8_7 1_555 1_555
H5_7 C9_7 1_555 1_555
C10_7 C9_7 1_555 1_555
C11_7 C10_7 1_555 1_555
H6_7 C11_7 1_555 1_555
C12_7 C11_7 1_555 1_555
C13_7 C8_7 1_555 1_555
C15_7 C10_7 1_555 1_555
O9_3 C1_7 1_555 1_555
O10_3 C1_7 1_555 1_555
O13_4 C15_7 1_555 1_555
O14_4 C15_7 1_555 1_555
C6_7 C7_7 1_555 1_555
C12_7 C13_7 1_555 1_555
O11_2 C14_8 1_555 1_555
O12_2 C14_8 1_555 1_555
O7_8 La5_2 1_555 1_555
N1_8 C16_8 1_555 1_555
C16_8 O7_8 1_555 1_555
H8_8 C16_8 1_555 1_555
C17_8 N1_8 1_555 1_555
H9_8 C17_8 1_555 1_555
H10_8 C17_8 1_555 1_555
H11_8 C17_8 1_555 1_555
C18_8 N1_8 1_555 1_555
H12_8 C18_8 1_555 1_555
H13_8 C18_8 1_555 1_555
H14_8 C18_8 1_555 1_555
O8_8 La5_2 1_555 1_555
H15_8 O8_8 1_555 1_555
H16_8 O8_8 1_555 1_555
C1_8 C2_8 1_555 1_555
C2_8 C3_8 1_555 1_555
C3_8 H1_8 1_555 1_555
C4_8 C3_8 1_555 1_555
H2_8 C4_8 1_555 1_555
C5_8 C4_8 1_555 1_555
C6_8 C5_8 1_555 1_555
C7_8 C2_8 1_555 1_555
H4_8 C7_8 1_555 1_555
C8_8 C5_8 1_555 1_555
C9_8 C8_8 1_555 1_555
H5_8 C9_8 1_555 1_555
C10_8 C9_8 1_555 1_555
C11_8 C10_8 1_555 1_555
H6_8 C11_8 1_555 1_555
C12_8 C11_8 1_555 1_555
C13_8 C8_8 1_555 1_555
C15_8 C10_8 1_555 1_555
O9_4 C1_8 1_555 1_555
O10_4 C1_8 1_555 1_555
O13_3 C15_8 1_555 1_555
O14_3 C15_8 1_555 1_555
C6_8 C7_8 1_555 1_555
C12_8 C13_8 1_555 1_555

#END
