
###############################################################################
#
# This file contains modified crystal structure data generated from the
# MOF subset of the Cambridge Structural Database (CSD) v543 
# hosted by the Cambridge Crystallographic Data Centre (CCDC).
#
# This work is licensed under the Creative Commons
# Attribution-NonCommercial-ShareAlike 4.0 International License.
# To view a copy of this license, visit
# http://creativecommons.org/licenses/by-nc-sa/4.0/
# or send a letter to
# Creative Commons, PO Box 1866, Mountain View, CA 94042, USA.
#
# CIF created using the CSD Python API on 29 September 2022
# The structure has been converted into the P1 space group
# The structure has a 3D framework
# The original CSD entry LUWMIB is in the monoclinic crystal system
# The framework has been calculated to contain at least 10.0% void space
# The void calculation uses a probe of radius 1.32A, grid spacing 0.4
#
###############################################################################

data_LUWMIB
_chemical_formula_moiety         '(C144 H128 Ce8 N8 O64)n'
_symmetry_cell_setting           triclinic
_symmetry_space_group_name_H-M   'P 1'
_symmetry_Int_Tables_number      1
_space_group_name_Hall           'P 1'
loop_
_symmetry_equiv_pos_site_id
_symmetry_equiv_pos_as_xyz
1 x,y,z
_cell_length_a                   24.591(5)
_cell_length_b                   13.804(5)
_cell_length_c                   14.752(5)
_cell_angle_alpha                90
_cell_angle_beta                 97.135(5)
_cell_angle_gamma                90
_cell_volume                     4968.85
loop_
_atom_site_label
_atom_site_type_symbol
_atom_site_fract_x
_atom_site_fract_y
_atom_site_fract_z
Ce1 Ce 0.169058(6) 0.211311(11) 0.470515(10)
O1 O 0.08331(10) 0.19207(18) 0.5477(2)
O2 O 0.09818(9) 0.33939(18) 0.50276(18)
O3 O 0.12411(16) 0.2731(3) 0.3204(2)
O4 O 0.11705(15) 0.0691(3) 0.3947(3)
O5 O 0.27416(8) 0.14510(14) 0.54327(14)
O6 O 0.19978(8) 0.06529(15) 0.56730(16)
O7 O 0.22329(8) 0.14813(18) 0.34954(15)
O8 O 0.19820(9) 0.27110(16) 0.62413(15)
C1 C 0.1399(5) 0.3047(7) 0.2549(5)
H1 H 0.1387 0.0350 0.3672
H2 H 0.1045 0.0349 0.4353
C2 C 0.24966(12) 0.4246(2) 0.42165(19)
H3 H 0.1775 0.2995 0.2528
N1 N 0.1114(4) 0.3475(7) 0.1823(4)
C3 C 0.21510(11) 0.4980(2) 0.3653(2)
C4 C 0.0536(5) 0.3469(13) 0.1796(8)
C5 C 0.1381(7) 0.3981(9) 0.1109(6)
C6 C 0.16221(12) 0.5185(2) 0.3822(2)
C7 C 0.23778(11) 0.5484(2) 0.2969(2)
H4 H 0.0423 0.2877 0.2058
H5 H 0.0370 0.3516 0.1173
H6 H 0.0424 0.4010 0.2137
H7 H 0.1297 0.4660 0.1118
H8 H 0.1249 0.3718 0.0520
H9 H 0.1771 0.3893 0.1225
C8 C 0.13181(12) 0.5911(2) 0.3336(2)
H10 H 0.1468 0.4835 0.4265
C9 C 0.20689(12) 0.6160(2) 0.2443(2)
H11 H 0.2738 0.5364 0.2869
C10 C 0.07719(12) 0.6225(2) 0.3587(2)
C11 C 0.15436(12) 0.6376(2) 0.2636(2)
C12 C 0.22888(12) 0.6688(2) 0.1665(2)
C13 C 0.04164(13) 0.5574(2) 0.3911(2)
C14 C 0.06245(16) 0.7190(3) 0.3545(3)
H12 H 0.1339 0.6843 0.2290
H13 H 0.0502 0.4918 0.3935
H14 H 0.0856 0.7638 0.3320
C16 C 0.01392(15) 0.7504(3) 0.3831(3)
H16 H 0.0046 0.8156 0.3785
O9 O 0.22584(8) 0.35490(14) 0.45673(14)
Ce2 Ce 0.330942(6) 0.288689(11) 0.529485(10)
O10 O 0.30022(8) 0.43471(15) 0.43270(16)
O11 O 0.19820(9) 0.72890(16) 0.12413(15)
O12 O 0.27671(8) 0.64813(18) 0.15046(15)
Ce4 Ce 0.330942(6) 0.711311(11) 0.029485(10)
Ce3 Ce 0.169058(6) 0.788689(11) 0.970515(10)
C15 C 0.99300(12) 0.5893(2) 0.4202(2)
C17 C 0.97938(12) 0.6858(2) 0.4183(2)
H15 H 0.9693 0.5445 0.4412
C18 C 0.92922(13) 0.7193(2) 0.4578(2)
O13 O 0.91669(10) 0.80793(18) 0.4523(2)
O14 O 0.90182(9) 0.66061(18) 0.49724(18)
Ce5 Ce 0.830942(6) 0.788689(11) 0.529485(10)
C15_2 C 0.00700(12) 0.5893(2) 0.0798(2)
C17_2 C 0.02062(12) 0.6858(2) 0.0817(2)
H15_2 H 0.0307 0.5445 0.0588
C18_2 C 0.07078(13) 0.7193(2) 0.0422(2)
O13_2 O 0.08331(10) 0.80793(18) 0.0477(2)
O14_2 O 0.09818(9) 0.66061(18) 0.00276(18)
Ce1_2 Ce 0.830942(6) 0.211311(11) 0.029485(10)
O3_2 O 0.87589(16) 0.2731(3) 0.1796(2)
O4_2 O 0.88295(15) 0.0691(3) 0.1053(3)
O7_2 O 0.77671(8) 0.14813(18) 0.15046(15)
C1_2 C 0.8601(5) 0.3047(7) 0.2451(5)
H1_2 H 0.8613 0.0350 0.1328
H2_2 H 0.8955 0.0349 0.0647
C2_2 C 0.75034(12) 0.4246(2) 0.07835(19)
H3_2 H 0.8225 0.2995 0.2472
N1_2 N 0.8886(4) 0.3475(7) 0.3177(4)
C3_2 C 0.78490(11) 0.4980(2) 0.1347(2)
C4_2 C 0.9464(5) 0.3469(13) 0.3204(8)
C5_2 C 0.8619(7) 0.3981(9) 0.3891(6)
C6_2 C 0.83779(12) 0.5185(2) 0.1178(2)
C7_2 C 0.76222(11) 0.5484(2) 0.2031(2)
H4_2 H 0.9577 0.2877 0.2942
H5_2 H 0.9630 0.3516 0.3827
H6_2 H 0.9576 0.4010 0.2863
H7_2 H 0.8703 0.4660 0.3882
H8_2 H 0.8751 0.3718 0.4480
H9_2 H 0.8229 0.3893 0.3775
C8_2 C 0.86819(12) 0.5911(2) 0.1664(2)
H10_2 H 0.8532 0.4835 0.0735
C9_2 C 0.79311(12) 0.6160(2) 0.2557(2)
H11_2 H 0.7262 0.5364 0.2131
C10_2 C 0.92281(12) 0.6225(2) 0.1413(2)
C11_2 C 0.84564(12) 0.6376(2) 0.2364(2)
C12_2 C 0.77112(12) 0.6688(2) 0.3335(2)
C13_2 C 0.95836(13) 0.5574(2) 0.1089(2)
C14_2 C 0.93755(16) 0.7190(3) 0.1455(3)
H12_2 H 0.8661 0.6843 0.2710
H13_2 H 0.9498 0.4918 0.1065
H14_2 H 0.9144 0.7638 0.1680
C16_2 C 0.98608(15) 0.7504(3) 0.1169(3)
H16_2 H 0.9954 0.8156 0.1215
O9_2 O 0.77416(8) 0.35490(14) 0.04327(14)
O10_2 O 0.69978(8) 0.43471(15) 0.06730(16)
O11_2 O 0.80180(9) 0.72890(16) 0.37587(15)
O12_2 O 0.72329(8) 0.64813(18) 0.34954(15)
Ce4_2 Ce 0.669058(6) 0.711311(11) 0.470515(10)
O1_2 O 0.91669(10) 0.19207(18) 0.9523(2)
O2_2 O 0.90182(9) 0.33939(18) 0.99724(18)
O5_2 O 0.72584(8) 0.14510(14) 0.95673(14)
O6_2 O 0.80022(8) 0.06529(15) 0.93270(16)
O8_2 O 0.80180(9) 0.27110(16) 0.87587(15)
Ce2_2 Ce 0.669058(6) 0.288689(11) 0.970515(10)
C6_3 C 0.66221(12) 0.0185(2) 0.3822(2)
C7_3 C 0.73778(11) 0.0484(2) 0.2969(2)
C8_3 C 0.63181(12) 0.0911(2) 0.3336(2)
C9_3 C 0.70689(12) 0.1160(2) 0.2443(2)
H11_3 H 0.7738 0.0364 0.2869
C10_3 C 0.57719(12) 0.1225(2) 0.3587(2)
C11_3 C 0.65436(12) 0.1376(2) 0.2636(2)
C12_3 C 0.72888(12) 0.1688(2) 0.1665(2)
C13_3 C 0.54164(13) 0.0574(2) 0.3911(2)
C14_3 C 0.56245(16) 0.2190(3) 0.3545(3)
H12_3 H 0.6339 0.1843 0.2290
C15_3 C 0.49300(12) 0.0893(2) 0.4202(2)
H14_3 H 0.5856 0.2638 0.3320
C16_3 C 0.51392(15) 0.2504(3) 0.3831(3)
C17_3 C 0.47938(12) 0.1858(2) 0.4183(2)
H15_3 H 0.4693 0.0445 0.4412
H16_3 H 0.5046 0.3156 0.3785
C18_3 C 0.42922(13) 0.2193(2) 0.4578(2)
O11_3 O 0.69820(9) 0.22890(16) 0.12413(15)
O13_3 O 0.41669(10) 0.30793(18) 0.4523(2)
O14_3 O 0.40182(9) 0.16061(18) 0.49724(18)
O1_3 O 0.58331(10) 0.69207(18) 0.5477(2)
O2_3 O 0.59818(9) 0.83939(18) 0.50276(18)
O3_3 O 0.62411(16) 0.7731(3) 0.3204(2)
O4_3 O 0.61705(15) 0.5691(3) 0.3947(3)
O5_3 O 0.77416(8) 0.64510(14) 0.54327(14)
O6_3 O 0.69978(8) 0.56529(15) 0.56730(16)
O8_3 O 0.69820(9) 0.77110(16) 0.62413(15)
C1_3 C 0.6399(5) 0.8047(7) 0.2549(5)
H1_3 H 0.6387 0.5350 0.3672
H2_3 H 0.6045 0.5349 0.4353
C2_3 C 0.74966(12) 0.9246(2) 0.42165(19)
H3_3 H 0.6775 0.7995 0.2528
N1_3 N 0.6114(4) 0.8475(7) 0.1823(4)
C3_3 C 0.71510(11) 0.9980(2) 0.3653(2)
C4_3 C 0.5536(5) 0.8469(13) 0.1796(8)
C5_3 C 0.6381(7) 0.8981(9) 0.1109(6)
H4_3 H 0.5423 0.7877 0.2058
H5_3 H 0.5370 0.8516 0.1173
H6_3 H 0.5424 0.9010 0.2137
H7_3 H 0.6297 0.9660 0.1118
H8_3 H 0.6249 0.8718 0.0520
H9_3 H 0.6771 0.8893 0.1225
H10_3 H 0.6468 0.9835 0.4265
H13_3 H 0.5502 0.9918 0.3935
O9_3 O 0.72584(8) 0.85490(14) 0.45673(14)
O10_3 O 0.80022(8) 0.93471(15) 0.43270(16)
C6_4 C 0.33779(12) 0.0185(2) 0.1178(2)
C7_4 C 0.26222(11) 0.0484(2) 0.2031(2)
C8_4 C 0.36819(12) 0.0911(2) 0.1664(2)
C9_4 C 0.29311(12) 0.1160(2) 0.2557(2)
H11_4 H 0.2262 0.0364 0.2131
C10_4 C 0.42281(12) 0.1225(2) 0.1413(2)
C11_4 C 0.34564(12) 0.1376(2) 0.2364(2)
C12_4 C 0.27112(12) 0.1688(2) 0.3335(2)
C13_4 C 0.45836(13) 0.0574(2) 0.1089(2)
C14_4 C 0.43755(16) 0.2190(3) 0.1455(3)
H12_4 H 0.3661 0.1843 0.2710
C15_4 C 0.50700(12) 0.0893(2) 0.0798(2)
H14_4 H 0.4144 0.2638 0.1680
C16_4 C 0.48608(15) 0.2504(3) 0.1169(3)
C17_4 C 0.52062(12) 0.1858(2) 0.0817(2)
H15_4 H 0.5307 0.0445 0.0588
H16_4 H 0.4954 0.3156 0.1215
C18_4 C 0.57078(13) 0.2193(2) 0.0422(2)
O11_4 O 0.30180(9) 0.22890(16) 0.37587(15)
O13_4 O 0.58331(10) 0.30793(18) 0.0477(2)
O14_4 O 0.59818(9) 0.16061(18) 0.00276(18)
O3_4 O 0.37589(16) 0.7731(3) 0.1796(2)
O4_4 O 0.38295(15) 0.5691(3) 0.1053(3)
C1_4 C 0.3601(5) 0.8047(7) 0.2451(5)
H1_4 H 0.3613 0.5350 0.1328
H2_4 H 0.3955 0.5349 0.0647
C2_4 C 0.25034(12) 0.9246(2) 0.07835(19)
H3_4 H 0.3225 0.7995 0.2472
N1_4 N 0.3886(4) 0.8475(7) 0.3177(4)
C3_4 C 0.28490(11) 0.9980(2) 0.1347(2)
C4_4 C 0.4464(5) 0.8469(13) 0.3204(8)
C5_4 C 0.3619(7) 0.8981(9) 0.3891(6)
H4_4 H 0.4577 0.7877 0.2942
H5_4 H 0.4630 0.8516 0.3827
H6_4 H 0.4576 0.9010 0.2863
H7_4 H 0.3703 0.9660 0.3882
H8_4 H 0.3751 0.8718 0.4480
H9_4 H 0.3229 0.8893 0.3775
H10_4 H 0.3532 0.9835 0.0735
H13_4 H 0.4498 0.9918 0.1065
O9_4 O 0.27416(8) 0.85490(14) 0.04327(14)
O10_4 O 0.19978(8) 0.93471(15) 0.06730(16)
O1_4 O 0.41669(10) 0.69207(18) 0.9523(2)
O2_4 O 0.40182(9) 0.83939(18) 0.99724(18)
O5_4 O 0.22584(8) 0.64510(14) 0.95673(14)
O6_4 O 0.30022(8) 0.56529(15) 0.93270(16)
O8_4 O 0.30180(9) 0.77110(16) 0.87587(15)
C15_5 C 0.00700(12) 0.4107(2) 0.5798(2)
C17_5 C 0.02062(12) 0.3142(2) 0.5817(2)
H15_5 H 0.0307 0.4555 0.5588
C18_5 C 0.07078(13) 0.2807(2) 0.5422(2)
O3_5 O 0.87589(16) 0.7269(3) 0.6796(2)
O4_5 O 0.88295(15) 0.9309(3) 0.6053(3)
O7_3 O 0.77671(8) 0.85187(18) 0.65046(15)
C1_5 C 0.8601(5) 0.6953(7) 0.7451(5)
H1_5 H 0.8613 0.9650 0.6328
H2_5 H 0.8955 0.9651 0.5647
C2_5 C 0.75034(12) 0.5754(2) 0.57835(19)
H3_5 H 0.8225 0.7005 0.7472
N1_5 N 0.8886(4) 0.6525(7) 0.8177(4)
C3_5 C 0.78490(11) 0.5020(2) 0.6347(2)
C4_5 C 0.9464(5) 0.6531(13) 0.8204(8)
C5_5 C 0.8619(7) 0.6019(9) 0.8891(6)
C6_5 C 0.83779(12) 0.4815(2) 0.6178(2)
C7_5 C 0.76222(11) 0.4516(2) 0.7031(2)
H4_5 H 0.9577 0.7123 0.7942
H5_5 H 0.9630 0.6484 0.8827
H6_5 H 0.9576 0.5990 0.7863
H7_5 H 0.8703 0.5340 0.8882
H8_5 H 0.8751 0.6282 0.9480
H9_5 H 0.8229 0.6107 0.8775
C8_5 C 0.86819(12) 0.4089(2) 0.6664(2)
H10_5 H 0.8532 0.5165 0.5735
C9_5 C 0.79311(12) 0.3840(2) 0.7557(2)
H11_5 H 0.7262 0.4636 0.7131
C10_5 C 0.92281(12) 0.3775(2) 0.6413(2)
C11_5 C 0.84564(12) 0.3624(2) 0.7364(2)
C12_5 C 0.77112(12) 0.3312(2) 0.8335(2)
C13_5 C 0.95836(13) 0.4426(2) 0.6089(2)
C14_5 C 0.93755(16) 0.2810(3) 0.6455(3)
H12_5 H 0.8661 0.3157 0.7710
H13_5 H 0.9498 0.5082 0.6065
H14_5 H 0.9144 0.2362 0.6680
C16_5 C 0.98608(15) 0.2496(3) 0.6169(3)
H16_5 H 0.9954 0.1844 0.6215
O12_3 O 0.72329(8) 0.35187(18) 0.84954(15)
O3_6 O 0.12411(16) 0.7269(3) 0.8204(2)
O4_6 O 0.11705(15) 0.9309(3) 0.8947(3)
O7_4 O 0.22329(8) 0.85187(18) 0.84954(15)
C1_6 C 0.1399(5) 0.6953(7) 0.7549(5)
H1_6 H 0.1387 0.9650 0.8672
H2_6 H 0.1045 0.9651 0.9353
C2_6 C 0.24966(12) 0.5754(2) 0.92165(19)
H3_6 H 0.1775 0.7005 0.7528
N1_6 N 0.1114(4) 0.6525(7) 0.6823(4)
C3_6 C 0.21510(11) 0.5020(2) 0.8653(2)
C4_6 C 0.0536(5) 0.6531(13) 0.6796(8)
C5_6 C 0.1381(7) 0.6019(9) 0.6109(6)
C6_6 C 0.16221(12) 0.4815(2) 0.8822(2)
C7_6 C 0.23778(11) 0.4516(2) 0.7969(2)
H4_6 H 0.0423 0.7123 0.7058
H5_6 H 0.0370 0.6484 0.6173
H6_6 H 0.0424 0.5990 0.7137
H7_6 H 0.1297 0.5340 0.6118
H8_6 H 0.1249 0.6282 0.5520
H9_6 H 0.1771 0.6107 0.6225
C8_6 C 0.13181(12) 0.4089(2) 0.8336(2)
H10_6 H 0.1468 0.5165 0.9265
C9_6 C 0.20689(12) 0.3840(2) 0.7443(2)
H11_6 H 0.2738 0.4636 0.7869
C10_6 C 0.07719(12) 0.3775(2) 0.8587(2)
C11_6 C 0.15436(12) 0.3624(2) 0.7636(2)
C12_6 C 0.22888(12) 0.3312(2) 0.6665(2)
C13_6 C 0.04164(13) 0.4426(2) 0.8911(2)
C14_6 C 0.06245(16) 0.2810(3) 0.8545(3)
H12_6 H 0.1339 0.3157 0.7290
H13_6 H 0.0502 0.5082 0.8935
H14_6 H 0.0856 0.2362 0.8320
C16_6 C 0.01392(15) 0.2496(3) 0.8831(3)
H16_6 H 0.0046 0.1844 0.8785
O12_4 O 0.27671(8) 0.35187(18) 0.65046(15)
C15_6 C 0.99300(12) 0.4107(2) 0.9202(2)
C17_6 C 0.97938(12) 0.3142(2) 0.9183(2)
H15_6 H 0.9693 0.4555 0.9412
C18_6 C 0.92922(13) 0.2807(2) 0.9578(2)
O3_7 O 0.37589(16) 0.2269(3) 0.6796(2)
O4_7 O 0.38295(15) 0.4309(3) 0.6053(3)
C1_7 C 0.3601(5) 0.1953(7) 0.7451(5)
H1_7 H 0.3613 0.4650 0.6328
H2_7 H 0.3955 0.4651 0.5647
C2_7 C 0.25034(12) 0.0754(2) 0.57835(19)
H3_7 H 0.3225 0.2005 0.7472
N1_7 N 0.3886(4) 0.1525(7) 0.8177(4)
C3_7 C 0.28490(11) 0.0020(2) 0.6347(2)
C4_7 C 0.4464(5) 0.1531(13) 0.8204(8)
C5_7 C 0.3619(7) 0.1019(9) 0.8891(6)
H4_7 H 0.4577 0.2123 0.7942
H5_7 H 0.4630 0.1484 0.8827
H6_7 H 0.4576 0.0990 0.7863
H7_7 H 0.3703 0.0340 0.8882
H8_7 H 0.3751 0.1282 0.9480
H9_7 H 0.3229 0.1107 0.8775
H10_7 H 0.3532 0.0165 0.5735
H13_7 H 0.4498 0.0082 0.6065
C6_7 C 0.33779(12) 0.9815(2) 0.6178(2)
C7_7 C 0.26222(11) 0.9516(2) 0.7031(2)
C8_7 C 0.36819(12) 0.9089(2) 0.6664(2)
C9_7 C 0.29311(12) 0.8840(2) 0.7557(2)
H11_7 H 0.2262 0.9636 0.7131
C10_7 C 0.42281(12) 0.8775(2) 0.6413(2)
C11_7 C 0.34564(12) 0.8624(2) 0.7364(2)
C12_7 C 0.27112(12) 0.8312(2) 0.8335(2)
C13_7 C 0.45836(13) 0.9426(2) 0.6089(2)
C14_7 C 0.43755(16) 0.7810(3) 0.6455(3)
H12_7 H 0.3661 0.8157 0.7710
C15_7 C 0.50700(12) 0.9107(2) 0.5798(2)
H14_7 H 0.4144 0.7362 0.6680
C16_7 C 0.48608(15) 0.7496(3) 0.6169(3)
C17_7 C 0.52062(12) 0.8142(2) 0.5817(2)
H15_7 H 0.5307 0.9555 0.5588
H16_7 H 0.4954 0.6844 0.6215
C18_7 C 0.57078(13) 0.7807(2) 0.5422(2)
O3_8 O 0.62411(16) 0.2269(3) 0.8204(2)
O4_8 O 0.61705(15) 0.4309(3) 0.8947(3)
C1_8 C 0.6399(5) 0.1953(7) 0.7549(5)
H1_8 H 0.6387 0.4650 0.8672
H2_8 H 0.6045 0.4651 0.9353
C2_8 C 0.74966(12) 0.0754(2) 0.92165(19)
H3_8 H 0.6775 0.2005 0.7528
N1_8 N 0.6114(4) 0.1525(7) 0.6823(4)
C3_8 C 0.71510(11) 0.0020(2) 0.8653(2)
C4_8 C 0.5536(5) 0.1531(13) 0.6796(8)
C5_8 C 0.6381(7) 0.1019(9) 0.6109(6)
H4_8 H 0.5423 0.2123 0.7058
H5_8 H 0.5370 0.1484 0.6173
H6_8 H 0.5424 0.0990 0.7137
H7_8 H 0.6297 0.0340 0.6118
H8_8 H 0.6249 0.1282 0.5520
H9_8 H 0.6771 0.1107 0.6225
H10_8 H 0.6468 0.0165 0.9265
H13_8 H 0.5502 0.0082 0.8935
C6_8 C 0.66221(12) 0.9815(2) 0.8822(2)
C7_8 C 0.73778(11) 0.9516(2) 0.7969(2)
C8_8 C 0.63181(12) 0.9089(2) 0.8336(2)
C9_8 C 0.70689(12) 0.8840(2) 0.7443(2)
H11_8 H 0.7738 0.9636 0.7869
C10_8 C 0.57719(12) 0.8775(2) 0.8587(2)
C11_8 C 0.65436(12) 0.8624(2) 0.7636(2)
C12_8 C 0.72888(12) 0.8312(2) 0.6665(2)
C13_8 C 0.54164(13) 0.9426(2) 0.8911(2)
C14_8 C 0.56245(16) 0.7810(3) 0.8545(3)
H12_8 H 0.6339 0.8157 0.7290
C15_8 C 0.49300(12) 0.9107(2) 0.9202(2)
H14_8 H 0.5856 0.7362 0.8320
C16_8 C 0.51392(15) 0.7496(3) 0.8831(3)
C17_8 C 0.47938(12) 0.8142(2) 0.9183(2)
H15_8 H 0.4693 0.9555 0.9412
H16_8 H 0.5046 0.6844 0.8785
C18_8 C 0.42922(13) 0.7807(2) 0.9578(2)
loop_
_geom_bond_atom_site_label_1
_geom_bond_atom_site_label_2
_geom_bond_site_symmetry_1
_geom_bond_site_symmetry_2
Ce1 O1 1_555 1_555
O2 Ce1 1_555 1_555
O3 Ce1 1_555 1_555
O4 Ce1 1_555 1_555
O5 Ce1 1_555 1_555
O6 Ce1 1_555 1_555
O7 Ce1 1_555 1_555
O8 Ce1 1_555 1_555
C1 O3 1_555 1_555
H1 O4 1_555 1_555
H2 O4 1_555 1_555
C2 C3 1_555 1_555
H3 C1 1_555 1_555
N1 C1 1_555 1_555
C3 C6 1_555 1_555
C4 N1 1_555 1_555
C5 N1 1_555 1_555
C6 C8 1_555 1_555
C7 C3 1_555 1_555
H4 C4 1_555 1_555
H5 C4 1_555 1_555
H6 C4 1_555 1_555
H7 C5 1_555 1_555
H8 C5 1_555 1_555
H9 C5 1_555 1_555
C8 C10 1_555 1_555
H10 C6 1_555 1_555
C9 C7 1_555 1_555
H11 C7 1_555 1_555
C10 C13 1_555 1_555
C11 C8 1_555 1_555
C12 C9 1_555 1_555
C13 H13 1_555 1_555
C14 C10 1_555 1_555
H12 C11 1_555 1_555
H14 C14 1_555 1_555
C16 C14 1_555 1_555
H16 C16 1_555 1_555
O9 Ce1 1_555 1_555
Ce2 O5 1_555 1_555
O10 C2 1_555 1_555
O11 C12 1_555 1_555
O12 C12 1_555 1_555
Ce4 O12 1_555 1_555
C2 O9 1_555 1_555
C9 C11 1_555 1_555
O9 Ce2 1_555 1_555
Ce2 O10 1_555 1_555
C17 C15 1_555 1_555
H15 C15 1_555 1_555
C18 C17 1_555 1_555
O13 C18 1_555 1_555
O14 C18 1_555 1_555
Ce5 O13 1_555 1_555
O14 Ce5 1_555 1_555
C17_2 C15_2 1_555 1_555
H15_2 C15_2 1_555 1_555
C18_2 C17_2 1_555 1_555
O13_2 C18_2 1_555 1_555
O14_2 C18_2 1_555 1_555
O3_2 Ce1_2 1_555 1_555
O4_2 Ce1_2 1_555 1_555
O7_2 Ce1_2 1_555 1_555
C1_2 O3_2 1_555 1_555
H1_2 O4_2 1_555 1_555
H2_2 O4_2 1_555 1_555
C2_2 C3_2 1_555 1_555
H3_2 C1_2 1_555 1_555
N1_2 C1_2 1_555 1_555
C3_2 C6_2 1_555 1_555
C4_2 N1_2 1_555 1_555
C5_2 N1_2 1_555 1_555
C6_2 C8_2 1_555 1_555
C7_2 C3_2 1_555 1_555
H4_2 C4_2 1_555 1_555
H5_2 C4_2 1_555 1_555
H6_2 C4_2 1_555 1_555
H7_2 C5_2 1_555 1_555
H8_2 C5_2 1_555 1_555
H9_2 C5_2 1_555 1_555
C8_2 C10_2 1_555 1_555
H10_2 C6_2 1_555 1_555
C9_2 C7_2 1_555 1_555
H11_2 C7_2 1_555 1_555
C10_2 C13_2 1_555 1_555
C11_2 C8_2 1_555 1_555
C12_2 C9_2 1_555 1_555
C13_2 H13_2 1_555 1_555
C14_2 C10_2 1_555 1_555
H12_2 C11_2 1_555 1_555
H14_2 C14_2 1_555 1_555
C16_2 C14_2 1_555 1_555
H16_2 C16_2 1_555 1_555
O9_2 Ce1_2 1_555 1_555
O10_2 C2_2 1_555 1_555
O11_2 C12_2 1_555 1_555
O12_2 C12_2 1_555 1_555
Ce5 O11_2 1_555 1_555
Ce4_2 O12_2 1_555 1_555
C2_2 O9_2 1_555 1_555
C9_2 C11_2 1_555 1_555
Ce2_2 O5_2 1_555 1_555
C6_3 C8_3 1_555 1_555
C8_3 C10_3 1_555 1_555
C9_3 C7_3 1_555 1_555
H11_3 C7_3 1_555 1_555
C10_3 C13_3 1_555 1_555
C11_3 C8_3 1_555 1_555
C12_3 C9_3 1_555 1_555
C14_3 C10_3 1_555 1_555
H12_3 C11_3 1_555 1_555
C15_3 C13_3 1_555 1_555
H14_3 C14_3 1_555 1_555
C16_3 C14_3 1_555 1_555
C17_3 C15_3 1_555 1_555
H15_3 C15_3 1_555 1_555
H16_3 C16_3 1_555 1_555
C18_3 C17_3 1_555 1_555
O11_3 C12_3 1_555 1_555
O7_2 C12_3 1_555 1_555
O13_3 C18_3 1_555 1_555
O14_3 C18_3 1_555 1_555
Ce2 O13_3 1_555 1_555
C9_3 C11_3 1_555 1_555
C16_3 C17_3 1_555 1_555
O14_3 Ce2 1_555 1_555
Ce4_2 O1_3 1_555 1_555
O2_3 Ce4_2 1_555 1_555
O3_3 Ce4_2 1_555 1_555
O4_3 Ce4_2 1_555 1_555
O5_3 Ce4_2 1_555 1_555
O6_3 Ce4_2 1_555 1_555
O8_3 Ce4_2 1_555 1_555
C1_3 O3_3 1_555 1_555
H1_3 O4_3 1_555 1_555
H2_3 O4_3 1_555 1_555
C2_3 C3_3 1_555 1_555
H3_3 C1_3 1_555 1_555
N1_3 C1_3 1_555 1_555
C4_3 N1_3 1_555 1_555
C5_3 N1_3 1_555 1_555
H4_3 C4_3 1_555 1_555
H5_3 C4_3 1_555 1_555
H6_3 C4_3 1_555 1_555
H7_3 C5_3 1_555 1_555
H8_3 C5_3 1_555 1_555
H9_3 C5_3 1_555 1_555
O9_3 Ce4_2 1_555 1_555
Ce5 O5_3 1_555 1_555
O10_3 C2_3 1_555 1_555
C2_3 O9_3 1_555 1_555
O9_3 Ce5 1_555 1_555
Ce5 O10_3 1_555 1_555
C6_4 C8_4 1_555 1_555
C8_4 C10_4 1_555 1_555
C9_4 C7_4 1_555 1_555
H11_4 C7_4 1_555 1_555
C10_4 C13_4 1_555 1_555
C11_4 C8_4 1_555 1_555
C12_4 C9_4 1_555 1_555
C14_4 C10_4 1_555 1_555
H12_4 C11_4 1_555 1_555
C15_4 C13_4 1_555 1_555
H14_4 C14_4 1_555 1_555
C16_4 C14_4 1_555 1_555
C17_4 C15_4 1_555 1_555
H15_4 C15_4 1_555 1_555
H16_4 C16_4 1_555 1_555
C18_4 C17_4 1_555 1_555
O11_4 C12_4 1_555 1_555
O7 C12_4 1_555 1_555
Ce2 O11_4 1_555 1_555
O13_4 C18_4 1_555 1_555
O14_4 C18_4 1_555 1_555
C9_4 C11_4 1_555 1_555
C16_4 C17_4 1_555 1_555
O3_4 Ce4 1_555 1_555
O4_4 Ce4 1_555 1_555
C1_4 O3_4 1_555 1_555
H1_4 O4_4 1_555 1_555
H2_4 O4_4 1_555 1_555
C2_4 C3_4 1_555 1_555
H3_4 C1_4 1_555 1_555
N1_4 C1_4 1_555 1_555
C4_4 N1_4 1_555 1_555
C5_4 N1_4 1_555 1_555
H4_4 C4_4 1_555 1_555
H5_4 C4_4 1_555 1_555
H6_4 C4_4 1_555 1_555
H7_4 C5_4 1_555 1_555
H8_4 C5_4 1_555 1_555
H9_4 C5_4 1_555 1_555
O9_4 Ce4 1_555 1_555
O10_4 C2_4 1_555 1_555
C2_4 O9_4 1_555 1_555
Ce3 O5_4 1_555 1_555
C17_5 C15_5 1_555 1_555
H15_5 C15_5 1_555 1_555
C18_5 C17_5 1_555 1_555
O1 C18_5 1_555 1_555
O2 C18_5 1_555 1_555
O3_5 Ce5 1_555 1_555
O4_5 Ce5 1_555 1_555
O7_3 Ce5 1_555 1_555
C1_5 O3_5 1_555 1_555
H1_5 O4_5 1_555 1_555
H2_5 O4_5 1_555 1_555
C2_5 C3_5 1_555 1_555
H3_5 C1_5 1_555 1_555
N1_5 C1_5 1_555 1_555
C3_5 C6_5 1_555 1_555
C4_5 N1_5 1_555 1_555
C5_5 N1_5 1_555 1_555
C6_5 C8_5 1_555 1_555
C7_5 C3_5 1_555 1_555
H4_5 C4_5 1_555 1_555
H5_5 C4_5 1_555 1_555
H6_5 C4_5 1_555 1_555
H7_5 C5_5 1_555 1_555
H8_5 C5_5 1_555 1_555
H9_5 C5_5 1_555 1_555
C8_5 C10_5 1_555 1_555
H10_5 C6_5 1_555 1_555
C9_5 C7_5 1_555 1_555
H11_5 C7_5 1_555 1_555
C10_5 C13_5 1_555 1_555
C11_5 C8_5 1_555 1_555
C12_5 C9_5 1_555 1_555
C13_5 H13_5 1_555 1_555
C14_5 C10_5 1_555 1_555
H12_5 C11_5 1_555 1_555
H14_5 C14_5 1_555 1_555
C16_5 C14_5 1_555 1_555
H16_5 C16_5 1_555 1_555
O6_3 C2_5 1_555 1_555
O8_2 C12_5 1_555 1_555
O12_3 C12_5 1_555 1_555
Ce2_2 O12_3 1_555 1_555
C2_5 O5_3 1_555 1_555
C9_5 C11_5 1_555 1_555
O3_6 Ce3 1_555 1_555
O4_6 Ce3 1_555 1_555
O7_4 Ce3 1_555 1_555
C1_6 O3_6 1_555 1_555
H1_6 O4_6 1_555 1_555
H2_6 O4_6 1_555 1_555
C2_6 C3_6 1_555 1_555
H3_6 C1_6 1_555 1_555
N1_6 C1_6 1_555 1_555
C3_6 C6_6 1_555 1_555
C4_6 N1_6 1_555 1_555
C5_6 N1_6 1_555 1_555
C6_6 C8_6 1_555 1_555
C7_6 C3_6 1_555 1_555
H4_6 C4_6 1_555 1_555
H5_6 C4_6 1_555 1_555
H6_6 C4_6 1_555 1_555
H7_6 C5_6 1_555 1_555
H8_6 C5_6 1_555 1_555
H9_6 C5_6 1_555 1_555
C8_6 C10_6 1_555 1_555
H10_6 C6_6 1_555 1_555
C9_6 C7_6 1_555 1_555
H11_6 C7_6 1_555 1_555
C10_6 C13_6 1_555 1_555
C11_6 C8_6 1_555 1_555
C12_6 C9_6 1_555 1_555
C13_6 H13_6 1_555 1_555
C14_6 C10_6 1_555 1_555
H12_6 C11_6 1_555 1_555
H14_6 C14_6 1_555 1_555
C16_6 C14_6 1_555 1_555
H16_6 C16_6 1_555 1_555
O6_4 C2_6 1_555 1_555
O8 C12_6 1_555 1_555
O12_4 C12_6 1_555 1_555
Ce2 O12_4 1_555 1_555
C2_6 O5_4 1_555 1_555
C9_6 C11_6 1_555 1_555
C17_6 C15_6 1_555 1_555
H15_6 C15_6 1_555 1_555
C18_6 C17_6 1_555 1_555
O1_2 C18_6 1_555 1_555
O2_2 C18_6 1_555 1_555
O3_7 Ce2 1_555 1_555
O4_7 Ce2 1_555 1_555
C1_7 O3_7 1_555 1_555
H1_7 O4_7 1_555 1_555
H2_7 O4_7 1_555 1_555
C2_7 C3_7 1_555 1_555
H3_7 C1_7 1_555 1_555
N1_7 C1_7 1_555 1_555
C4_7 N1_7 1_555 1_555
C5_7 N1_7 1_555 1_555
H4_7 C4_7 1_555 1_555
H5_7 C4_7 1_555 1_555
H6_7 C4_7 1_555 1_555
H7_7 C5_7 1_555 1_555
H8_7 C5_7 1_555 1_555
H9_7 C5_7 1_555 1_555
O6 C2_7 1_555 1_555
C2_7 O5 1_555 1_555
C6_7 C8_7 1_555 1_555
C8_7 C10_7 1_555 1_555
C9_7 C7_7 1_555 1_555
H11_7 C7_7 1_555 1_555
C10_7 C13_7 1_555 1_555
C11_7 C8_7 1_555 1_555
C12_7 C9_7 1_555 1_555
C14_7 C10_7 1_555 1_555
H12_7 C11_7 1_555 1_555
C15_7 C13_7 1_555 1_555
H14_7 C14_7 1_555 1_555
C16_7 C14_7 1_555 1_555
C17_7 C15_7 1_555 1_555
H15_7 C15_7 1_555 1_555
H16_7 C16_7 1_555 1_555
C18_7 C17_7 1_555 1_555
O8_4 C12_7 1_555 1_555
O7_4 C12_7 1_555 1_555
O1_3 C18_7 1_555 1_555
O2_3 C18_7 1_555 1_555
C9_7 C11_7 1_555 1_555
C16_7 C17_7 1_555 1_555
O3_8 Ce2_2 1_555 1_555
O4_8 Ce2_2 1_555 1_555
C1_8 O3_8 1_555 1_555
H1_8 O4_8 1_555 1_555
H2_8 O4_8 1_555 1_555
C2_8 C3_8 1_555 1_555
H3_8 C1_8 1_555 1_555
N1_8 C1_8 1_555 1_555
C4_8 N1_8 1_555 1_555
C5_8 N1_8 1_555 1_555
H4_8 C4_8 1_555 1_555
H5_8 C4_8 1_555 1_555
H6_8 C4_8 1_555 1_555
H7_8 C5_8 1_555 1_555
H8_8 C5_8 1_555 1_555
H9_8 C5_8 1_555 1_555
O6_2 C2_8 1_555 1_555
C2_8 O5_2 1_555 1_555
C6_8 C8_8 1_555 1_555
C8_8 C10_8 1_555 1_555
C9_8 C7_8 1_555 1_555
H11_8 C7_8 1_555 1_555
C10_8 C13_8 1_555 1_555
C11_8 C8_8 1_555 1_555
C12_8 C9_8 1_555 1_555
C14_8 C10_8 1_555 1_555
H12_8 C11_8 1_555 1_555
C15_8 C13_8 1_555 1_555
H14_8 C14_8 1_555 1_555
C16_8 C14_8 1_555 1_555
C17_8 C15_8 1_555 1_555
H15_8 C15_8 1_555 1_555
H16_8 C16_8 1_555 1_555
C18_8 C17_8 1_555 1_555
O8_3 C12_8 1_555 1_555
O7_3 C12_8 1_555 1_555
O1_4 C18_8 1_555 1_555
O2_4 C18_8 1_555 1_555
C9_8 C11_8 1_555 1_555
C16_8 C17_8 1_555 1_555

#END
