
###############################################################################
#
# This file contains modified crystal structure data generated from the
# MOF subset of the Cambridge Structural Database (CSD) v543 
# hosted by the Cambridge Crystallographic Data Centre (CCDC).
#
# This work is licensed under the Creative Commons
# Attribution-NonCommercial-ShareAlike 4.0 International License.
# To view a copy of this license, visit
# http://creativecommons.org/licenses/by-nc-sa/4.0/
# or send a letter to
# Creative Commons, PO Box 1866, Mountain View, CA 94042, USA.
#
# CIF created using the CSD Python API on 29 September 2022
# The structure has been converted into the P1 space group
# The structure has a 3D framework
# The original CSD entry LUWYUY is in the monoclinic crystal system
# The framework has been calculated to contain at least 10.0% void space
# The void calculation uses a probe of radius 1.32A, grid spacing 0.4
#
###############################################################################

data_LUWYUY
_chemical_formula_moiety         '(C152 H112 Cd8 N16 O38)n'
_symmetry_cell_setting           triclinic
_symmetry_space_group_name_H-M   'P 1'
_symmetry_Int_Tables_number      1
_space_group_name_Hall           'P 1'
loop_
_symmetry_equiv_pos_site_id
_symmetry_equiv_pos_as_xyz
1 x,y,z
_cell_length_a                   18.410(4)
_cell_length_b                   14.563(3)
_cell_length_c                   15.462(3)
_cell_angle_alpha                90
_cell_angle_beta                 100.22(3)
_cell_angle_gamma                90
_cell_volume                     4079.66
loop_
_atom_site_label
_atom_site_type_symbol
_atom_site_fract_x
_atom_site_fract_y
_atom_site_fract_z
Cd1 Cd 0.281905(9) 0.253864(11) 0.128455(11)
O1 O 0.36346(10) 0.15190(14) 0.21839(12)
O2 O 0.31967(12) 0.26700(14) 0.28508(14)
O3 O 0.58312(9) 0.05111(13) 0.43357(12)
O4 O 0.69702(10) 0.17601(13) 0.49918(12)
O5 O 0.70387(10) 0.11401(13) 0.62939(12)
N1 N 0.37558(11) 0.35992(15) 0.11859(16)
N2 N 0.68378(11) 0.65619(16) 0.13785(16)
C1 C 0.36057(14) 0.19777(18) 0.28658(17)
C2 C 0.41057(13) 0.17218(17) 0.37127(16)
C3 C 0.39663(14) 0.20423(19) 0.45131(18)
H1 H 0.3552 0.2401 0.4536
C4 C 0.44482(15) 0.1823(2) 0.52734(18)
H2 H 0.4350 0.2024 0.5812
C5 C 0.50760(14) 0.13088(19) 0.52485(17)
H3 H 0.5399 0.1172 0.5766
C6 C 0.52224(13) 0.09993(17) 0.44535(17)
C7 C 0.47235(13) 0.11931(18) 0.36886(16)
H4 H 0.4808 0.0963 0.3154
C8 C 0.63597(13) 0.03142(17) 0.50996(18)
H6 H 0.6105 0.0064 0.5545
C9 C 0.68082(12) 0.11352(16) 0.54794(16)
C10 C 0.44248(19) 0.3304(2) 0.1191(4)
H7 H 0.4495 0.2673 0.1161
C11 C 0.50344(19) 0.3862(2) 0.1237(4)
H8 H 0.5496 0.3601 0.1245
C12 C 0.49702(13) 0.47817(17) 0.12717(18)
C13 C 0.56186(14) 0.53964(18) 0.13186(18)
C14 C 0.62975(16) 0.5076(2) 0.1198(3)
H9 H 0.6361 0.4456 0.1091
C15 C 0.68823(17) 0.5674(2) 0.1237(3)
H10 H 0.7335 0.5437 0.1159
C16 C 0.61957(16) 0.6872(2) 0.1530(3)
H11 H 0.6157 0.7491 0.1661
C17 C 0.55829(16) 0.6325(2) 0.1502(3)
H12 H 0.5143 0.6579 0.1606
C18 C 0.42742(16) 0.5099(2) 0.1278(3)
H13 H 0.4190 0.5726 0.1310
C19 C 0.36949(16) 0.4492(2) 0.1238(3)
H14 H 0.3229 0.4733 0.1249
Cd2 Cd 0.718095(9) 0.253864(11) 0.371545(11)
Cd3 Cd 0.781905(9) 0.246136(11) 0.628455(11)
Cd4 Cd 0.781905(9) 0.753864(11) 0.128455(11)
O6 O 0.63654(10) 0.15190(14) 0.28161(12)
O7 O 0.68033(12) 0.26700(14) 0.21492(14)
O8 O 0.41688(9) 0.05111(13) 0.06643(12)
O9 O 0.30298(10) 0.17601(13) 0.00082(12)
O11 O 0.80298(10) 0.32399(13) 0.50082(12)
O13 O 0.20387(10) 0.38599(13) 0.12939(12)
O14 O 0.79613(10) 0.38599(13) 0.37061(12)
N4 N 0.62442(11) 0.35992(15) 0.38141(16)
N5 N 0.18378(11) 0.15619(16) 0.13785(16)
N6 N 0.81622(11) 0.15619(16) 0.36215(16)
C20 C 0.63943(14) 0.19777(18) 0.21342(17)
C21 C 0.58943(13) 0.17218(17) 0.12873(16)
C22 C 0.60337(14) 0.20423(19) 0.04869(18)
H15 H 0.6448 0.2401 0.0464
C25 C 0.47776(13) 0.09993(17) 0.05465(17)
C26 C 0.52765(13) 0.11931(18) 0.13114(16)
H18 H 0.5192 0.0963 0.1846
C32 C 0.06186(14) 0.03964(18) 0.13186(18)
C33 C 0.12975(16) 0.0076(2) 0.1198(3)
C34 C 0.18823(17) 0.0674(2) 0.1237(3)
H24 H 0.2335 0.0437 0.1159
C35 C 0.11957(16) 0.1872(2) 0.1530(3)
H25 H 0.1157 0.2491 0.1661
C36 C 0.05829(16) 0.1325(2) 0.1502(3)
H26 H 0.0143 0.1579 0.1606
Cd5 Cd 0.218095(9) 0.246136(11) 0.871545(11)
O10 O 0.19702(10) 0.32399(13) 0.99918(12)
O12 O 0.29613(10) 0.11401(13) 0.87061(12)
C23 C 0.55518(15) 0.1823(2) 0.97266(18)
H16 H 0.5650 0.2024 0.9188
C24 C 0.49240(14) 0.13088(19) 0.97515(17)
H17 H 0.4601 0.1172 0.9234
C27 C 0.36403(13) 0.03142(17) 0.99004(18)
H20 H 0.3895 0.0064 0.9455
C28 C 0.31918(12) 0.11352(16) 0.95206(16)
H5 H 0.6694 0.9846 0.4956
H19 H 0.3306 0.9846 0.0044
C30 C 0.00344(19) 0.8862(2) 0.1237(4)
H22 H 0.0496 0.8601 0.1245
H23 H 0.1361 0.9456 0.1091
N3 N 0.87558(11) 0.85992(15) 0.11859(16)
C29 C 0.94248(19) 0.8304(2) 0.1191(4)
H21 H 0.9495 0.7673 0.1161
C31 C 0.99702(13) 0.97817(17) 0.12717(18)
C38 C 0.86949(16) 0.9492(2) 0.1238(3)
H28 H 0.8229 0.9733 0.1249
Cd6 Cd 0.218095(9) 0.753864(11) 0.371545(11)
N3_2 N 0.12442(11) 0.85992(15) 0.38141(16)
C29_2 C 0.05752(19) 0.8304(2) 0.3809(4)
H21_2 H 0.0505 0.7673 0.3839
C31_2 C 0.00298(13) 0.97817(17) 0.37283(18)
C38_2 C 0.13051(16) 0.9492(2) 0.3762(3)
H28_2 H 0.1771 0.9733 0.3751
N2_2 N 0.31622(11) 0.65619(16) 0.36215(16)
C10_2 C 0.55752(19) 0.3304(2) 0.3809(4)
H7_2 H 0.5505 0.2673 0.3839
C11_2 C 0.49656(19) 0.3862(2) 0.3763(4)
H8_2 H 0.4504 0.3601 0.3755
C12_2 C 0.50298(13) 0.47817(17) 0.37283(18)
C13_2 C 0.43814(14) 0.53964(18) 0.36814(18)
C14_2 C 0.37025(16) 0.5076(2) 0.3802(3)
H9_2 H 0.3639 0.4456 0.3909
C15_2 C 0.31177(17) 0.5674(2) 0.3763(3)
H10_2 H 0.2665 0.5437 0.3841
C16_2 C 0.38043(16) 0.6872(2) 0.3470(3)
H11_2 H 0.3843 0.7491 0.3339
C17_2 C 0.44171(16) 0.6325(2) 0.3498(3)
H12_2 H 0.4857 0.6579 0.3394
C18_2 C 0.57258(16) 0.5099(2) 0.3722(3)
H13_2 H 0.5810 0.5726 0.3690
C19_2 C 0.63051(16) 0.4492(2) 0.3762(3)
H14_2 H 0.6771 0.4733 0.3751
C32_2 C 0.93814(14) 0.03964(18) 0.36814(18)
C33_2 C 0.87025(16) 0.0076(2) 0.3802(3)
C34_2 C 0.81177(17) 0.0674(2) 0.3763(3)
H24_2 H 0.7665 0.0437 0.3841
C35_2 C 0.88043(16) 0.1872(2) 0.3470(3)
H25_2 H 0.8843 0.2491 0.3339
C36_2 C 0.94171(16) 0.1325(2) 0.3498(3)
H26_2 H 0.9857 0.1579 0.3394
C30_2 C 0.99656(19) 0.8862(2) 0.3763(4)
H22_2 H 0.9504 0.8601 0.3755
H23_2 H 0.8639 0.9456 0.3909
O3_2 O 0.08312(9) 0.55111(13) 0.43357(12)
O4_2 O 0.19702(10) 0.67601(13) 0.49918(12)
O5_2 O 0.20387(10) 0.61401(13) 0.62939(12)
C5_2 C 0.00760(14) 0.63088(19) 0.52485(17)
H3_2 H 0.0399 0.6172 0.5766
C6_2 C 0.02224(13) 0.59993(17) 0.44535(17)
C8_2 C 0.13597(13) 0.53142(17) 0.50996(18)
H5_2 H 0.1694 0.4846 0.4956
H6_2 H 0.1105 0.5064 0.5545
C9_2 C 0.18082(12) 0.61352(16) 0.54794(16)
Cd3_2 Cd 0.281905(9) 0.746136(11) 0.628455(11)
O6_2 O 0.13654(10) 0.65190(14) 0.28161(12)
O7_2 O 0.18033(12) 0.76700(14) 0.21492(14)
O11_2 O 0.30298(10) 0.82399(13) 0.50082(12)
O14_2 O 0.29613(10) 0.88599(13) 0.37061(12)
C20_2 C 0.13943(14) 0.69777(18) 0.21342(17)
C21_2 C 0.08943(13) 0.67218(17) 0.12873(16)
C22_2 C 0.10337(14) 0.70423(19) 0.04869(18)
H15_2 H 0.1448 0.7401 0.0464
C26_2 C 0.02765(13) 0.61931(18) 0.13114(16)
H18_2 H 0.0192 0.5963 0.1846
O1_2 O 0.86346(10) 0.65190(14) 0.21839(12)
O2_2 O 0.81967(12) 0.76700(14) 0.28508(14)
C1_2 C 0.86057(14) 0.69777(18) 0.28658(17)
C2_2 C 0.91057(13) 0.67218(17) 0.37127(16)
C3_2 C 0.89663(14) 0.70423(19) 0.45131(18)
H1_2 H 0.8552 0.7401 0.4536
C4_2 C 0.94482(15) 0.6823(2) 0.52734(18)
H2_2 H 0.9350 0.7024 0.5812
C7_2 C 0.97235(13) 0.61931(18) 0.36886(16)
H4_2 H 0.9808 0.5963 0.3154
O8_2 O 0.91688(9) 0.55111(13) 0.06643(12)
O9_2 O 0.80298(10) 0.67601(13) 0.00082(12)
O13_2 O 0.70387(10) 0.88599(13) 0.12939(12)
C25_2 C 0.97776(13) 0.59993(17) 0.05465(17)
H19_2 H 0.8306 0.4846 0.0044
Cd5_2 Cd 0.718095(9) 0.746136(11) 0.871545(11)
O10_2 O 0.69702(10) 0.82399(13) 0.99918(12)
O12_2 O 0.79613(10) 0.61401(13) 0.87061(12)
C24_2 C 0.99240(14) 0.63088(19) 0.97515(17)
H17_2 H 0.9601 0.6172 0.9234
C27_2 C 0.86403(13) 0.53142(17) 0.99004(18)
H20_2 H 0.8895 0.5064 0.9455
C28_2 C 0.81918(12) 0.61352(16) 0.95206(16)
N3_3 N 0.12442(11) 0.14008(15) 0.88141(16)
C29_3 C 0.05752(19) 0.1696(2) 0.8809(4)
H21_3 H 0.0505 0.2327 0.8839
C31_3 C 0.00298(13) 0.02183(17) 0.87283(18)
C38_3 C 0.13051(16) 0.0508(2) 0.8762(3)
H28_3 H 0.1771 0.0267 0.8751
H5_3 H 0.3306 0.0154 0.5044
H19_3 H 0.6694 0.0154 0.9956
C30_3 C 0.99656(19) 0.1138(2) 0.8763(4)
H22_3 H 0.9504 0.1399 0.8755
H23_3 H 0.8639 0.0544 0.8909
C23_2 C 0.44482(15) 0.8177(2) 0.02734(18)
H16_2 H 0.4350 0.7976 0.0812
C24_3 C 0.50760(14) 0.86912(19) 0.02485(17)
H17_3 H 0.5399 0.8828 0.0766
C27_3 C 0.63597(13) 0.96858(17) 0.00996(18)
H20_3 H 0.6105 0.9936 0.0545
C28_3 C 0.68082(12) 0.88648(16) 0.04794(16)
O1_3 O 0.63654(10) 0.84810(14) 0.78161(12)
O2_3 O 0.68033(12) 0.73300(14) 0.71492(14)
O3_3 O 0.41688(9) 0.94889(13) 0.56643(12)
N1_2 N 0.62442(11) 0.64008(15) 0.88141(16)
N2_3 N 0.31622(11) 0.34381(16) 0.86215(16)
C1_3 C 0.63943(14) 0.80223(18) 0.71342(17)
C2_3 C 0.58943(13) 0.82782(17) 0.62873(16)
C3_3 C 0.60337(14) 0.79577(19) 0.54869(18)
H1_3 H 0.6448 0.7599 0.5464
C4_3 C 0.55518(15) 0.8177(2) 0.47266(18)
H2_3 H 0.5650 0.7976 0.4188
C5_3 C 0.49240(14) 0.86912(19) 0.47515(17)
H3_3 H 0.4601 0.8828 0.4234
C6_3 C 0.47776(13) 0.90007(17) 0.55465(17)
C7_3 C 0.52765(13) 0.88069(18) 0.63114(16)
H4_3 H 0.5192 0.9037 0.6846
C8_3 C 0.36403(13) 0.96858(17) 0.49004(18)
H6_3 H 0.3895 0.9936 0.4455
C9_3 C 0.31918(12) 0.88648(16) 0.45206(16)
C10_3 C 0.55752(19) 0.6696(2) 0.8809(4)
H7_3 H 0.5505 0.7327 0.8839
C11_3 C 0.49656(19) 0.6138(2) 0.8763(4)
H8_3 H 0.4504 0.6399 0.8755
C12_3 C 0.50298(13) 0.52183(17) 0.87283(18)
C13_3 C 0.43814(14) 0.46036(18) 0.86814(18)
C14_3 C 0.37025(16) 0.4924(2) 0.8802(3)
H9_3 H 0.3639 0.5544 0.8909
C15_3 C 0.31177(17) 0.4326(2) 0.8763(3)
H10_3 H 0.2665 0.4563 0.8841
C16_3 C 0.38043(16) 0.3128(2) 0.8470(3)
H11_3 H 0.3843 0.2509 0.8339
C17_3 C 0.44171(16) 0.3675(2) 0.8498(3)
H12_3 H 0.4857 0.3421 0.8394
C18_3 C 0.57258(16) 0.4901(2) 0.8722(3)
H13_3 H 0.5810 0.4274 0.8690
C19_3 C 0.63051(16) 0.5508(2) 0.8762(3)
H14_3 H 0.6771 0.5267 0.8751
O6_3 O 0.36346(10) 0.84810(14) 0.71839(12)
O7_3 O 0.31967(12) 0.73300(14) 0.78508(14)
O8_3 O 0.58312(9) 0.94889(13) 0.93357(12)
N4_2 N 0.37558(11) 0.64008(15) 0.61859(16)
N5_2 N 0.81622(11) 0.84381(16) 0.86215(16)
N6_2 N 0.18378(11) 0.84381(16) 0.63785(16)
C20_3 C 0.36057(14) 0.80223(18) 0.78658(17)
C21_3 C 0.41057(13) 0.82782(17) 0.87127(16)
C22_3 C 0.39663(14) 0.79577(19) 0.95131(18)
H15_3 H 0.3552 0.7599 0.9536
C25_3 C 0.52224(13) 0.90007(17) 0.94535(17)
C26_3 C 0.47235(13) 0.88069(18) 0.86886(16)
H18_3 H 0.4808 0.9037 0.8154
C32_3 C 0.93814(14) 0.96036(18) 0.86814(18)
C33_3 C 0.87025(16) 0.9924(2) 0.8802(3)
C34_3 C 0.81177(17) 0.9326(2) 0.8763(3)
H24_3 H 0.7665 0.9563 0.8841
C35_3 C 0.88043(16) 0.8128(2) 0.8470(3)
H25_3 H 0.8843 0.7509 0.8339
C36_3 C 0.94171(16) 0.8675(2) 0.8498(3)
H26_3 H 0.9857 0.8421 0.8394
C30_4 C 0.00344(19) 0.1138(2) 0.6237(4)
H22_4 H 0.0496 0.1399 0.6245
H23_4 H 0.1361 0.0544 0.6091
N2_4 N 0.68378(11) 0.34381(16) 0.63785(16)
C10_4 C 0.44248(19) 0.6696(2) 0.6191(4)
H7_4 H 0.4495 0.7327 0.6161
C11_4 C 0.50344(19) 0.6138(2) 0.6237(4)
H8_4 H 0.5496 0.6399 0.6245
C12_4 C 0.49702(13) 0.52183(17) 0.62717(18)
C13_4 C 0.56186(14) 0.46036(18) 0.63186(18)
C14_4 C 0.62975(16) 0.4924(2) 0.6198(3)
H9_4 H 0.6361 0.5544 0.6091
C15_4 C 0.68823(17) 0.4326(2) 0.6237(3)
H10_4 H 0.7335 0.4563 0.6159
C16_4 C 0.61957(16) 0.3128(2) 0.6530(3)
H11_4 H 0.6157 0.2509 0.6661
C17_4 C 0.55829(16) 0.3675(2) 0.6502(3)
H12_4 H 0.5143 0.3421 0.6606
C18_4 C 0.42742(16) 0.4901(2) 0.6278(3)
H13_4 H 0.4190 0.4274 0.6310
C19_4 C 0.36949(16) 0.5508(2) 0.6238(3)
H14_4 H 0.3229 0.5267 0.6249
C32_4 C 0.06186(14) 0.96036(18) 0.63186(18)
C33_4 C 0.12975(16) 0.9924(2) 0.6198(3)
C34_4 C 0.18823(17) 0.9326(2) 0.6237(3)
H24_4 H 0.2335 0.9563 0.6159
C35_4 C 0.11957(16) 0.8128(2) 0.6530(3)
H25_4 H 0.1157 0.7509 0.6661
C36_4 C 0.05829(16) 0.8675(2) 0.6502(3)
H26_4 H 0.0143 0.8421 0.6606
N3_4 N 0.87558(11) 0.14008(15) 0.61859(16)
C29_4 C 0.94248(19) 0.1696(2) 0.6191(4)
H21_4 H 0.9495 0.2327 0.6161
C31_4 C 0.99702(13) 0.02183(17) 0.62717(18)
C38_4 C 0.86949(16) 0.0508(2) 0.6238(3)
H28_4 H 0.8229 0.0267 0.6249
C24_4 C 0.00760(14) 0.36912(19) 0.02485(17)
H17_4 H 0.0399 0.3828 0.0766
C27_4 C 0.13597(13) 0.46858(17) 0.00996(18)
H20_4 H 0.1105 0.4936 0.0545
C28_4 C 0.18082(12) 0.38648(16) 0.04794(16)
O1_4 O 0.13654(10) 0.34810(14) 0.78161(12)
O2_4 O 0.18033(12) 0.23300(14) 0.71492(14)
C1_4 C 0.13943(14) 0.30223(18) 0.71342(17)
C2_4 C 0.08943(13) 0.32782(17) 0.62873(16)
C3_4 C 0.10337(14) 0.29577(19) 0.54869(18)
H1_4 H 0.1448 0.2599 0.5464
C4_4 C 0.05518(15) 0.3177(2) 0.47266(18)
H2_4 H 0.0650 0.2976 0.4188
C7_4 C 0.02765(13) 0.38069(18) 0.63114(16)
H4_4 H 0.0192 0.4037 0.6846
O8_4 O 0.08312(9) 0.44889(13) 0.93357(12)
C25_4 C 0.02224(13) 0.40007(17) 0.94535(17)
H19_4 H 0.1694 0.5154 0.9956
O3_4 O 0.91688(9) 0.44889(13) 0.56643(12)
C5_4 C 0.99240(14) 0.36912(19) 0.47515(17)
H3_4 H 0.9601 0.3828 0.4234
C6_4 C 0.97776(13) 0.40007(17) 0.55465(17)
C8_4 C 0.86403(13) 0.46858(17) 0.49004(18)
H5_4 H 0.8306 0.5154 0.5044
H6_4 H 0.8895 0.4936 0.4455
C9_4 C 0.81918(12) 0.38648(16) 0.45206(16)
O6_4 O 0.86346(10) 0.34810(14) 0.71839(12)
O7_4 O 0.81967(12) 0.23300(14) 0.78508(14)
C20_4 C 0.86057(14) 0.30223(18) 0.78658(17)
C21_4 C 0.91057(13) 0.32782(17) 0.87127(16)
C22_4 C 0.89663(14) 0.29577(19) 0.95131(18)
H15_4 H 0.8552 0.2599 0.9536
C26_4 C 0.97235(13) 0.38069(18) 0.86886(16)
H18_4 H 0.9808 0.4037 0.8154
C37 C 0.92742(16) 0.0099(2) 0.1278(3)
H27 H 0.9190 0.0726 0.1310
C37_2 C 0.07258(16) 0.0099(2) 0.3722(3)
H27_2 H 0.0810 0.0726 0.3690
C23_3 C 0.05518(15) 0.6823(2) 0.97266(18)
H16_3 H 0.0650 0.7024 0.9188
C37_3 C 0.07258(16) 0.9901(2) 0.8722(3)
H27_3 H 0.0810 0.9274 0.8690
C37_4 C 0.92742(16) 0.9901(2) 0.6278(3)
H27_4 H 0.9190 0.9274 0.6310
C23_4 C 0.94482(15) 0.3177(2) 0.02734(18)
H16_4 H 0.9350 0.2976 0.0812
loop_
_geom_bond_atom_site_label_1
_geom_bond_atom_site_label_2
_geom_bond_site_symmetry_1
_geom_bond_site_symmetry_2
Cd1 O1 1_555 1_555
O1 C1 1_555 1_555
O2 Cd1 1_555 1_555
O3 C6 1_555 1_555
O4 C9 1_555 1_555
O5 C9 1_555 1_555
N1 Cd1 1_555 1_555
N2 C15 1_555 1_555
C1 O2 1_555 1_555
C2 C1 1_555 1_555
C3 C2 1_555 1_555
H1 C3 1_555 1_555
C4 C3 1_555 1_555
H2 C4 1_555 1_555
C5 C4 1_555 1_555
H3 C5 1_555 1_555
C6 C5 1_555 1_555
C7 C2 1_555 1_555
H4 C7 1_555 1_555
C8 O3 1_555 1_555
H6 C8 1_555 1_555
C9 C8 1_555 1_555
C10 N1 1_555 1_555
H7 C10 1_555 1_555
C11 C10 1_555 1_555
H8 C11 1_555 1_555
C12 C11 1_555 1_555
C13 C12 1_555 1_555
C14 C13 1_555 1_555
H9 C14 1_555 1_555
C15 C14 1_555 1_555
H10 C15 1_555 1_555
C16 N2 1_555 1_555
H11 C16 1_555 1_555
C17 C13 1_555 1_555
H12 C17 1_555 1_555
C18 C12 1_555 1_555
H13 C18 1_555 1_555
C19 N1 1_555 1_555
H14 C19 1_555 1_555
Cd2 O4 1_555 1_555
Cd3 O4 1_555 1_555
Cd4 N2 1_555 1_555
O6 Cd2 1_555 1_555
O7 Cd2 1_555 1_555
O8 C25 1_555 1_555
O9 Cd1 1_555 1_555
O11 Cd2 1_555 1_555
O13 Cd1 1_555 1_555
O14 Cd2 1_555 1_555
N4 Cd2 1_555 1_555
N5 Cd1 1_555 1_555
N6 Cd2 1_555 1_555
C20 O6 1_555 1_555
C21 C20 1_555 1_555
C22 C21 1_555 1_555
H15 C22 1_555 1_555
C26 C21 1_555 1_555
H18 C26 1_555 1_555
C33 C32 1_555 1_555
C34 N5 1_555 1_555
H24 C34 1_555 1_555
C35 N5 1_555 1_555
H25 C35 1_555 1_555
C36 C32 1_555 1_555
H26 C36 1_555 1_555
O5 Cd3 1_555 1_555
C6 C7 1_555 1_555
C16 C17 1_555 1_555
C18 C19 1_555 1_555
Cd3 O11 1_555 1_555
O7 C20 1_555 1_555
C25 C26 1_555 1_555
C33 C34 1_555 1_555
C35 C36 1_555 1_555
O12 Cd5 1_555 1_555
H16 C23 1_555 1_555
C24 C23 1_555 1_555
H17 C24 1_555 1_555
H20 C27 1_555 1_555
Cd5 O10 1_555 1_555
O12 C28 1_555 1_555
C27 C28 1_555 1_555
H22 C30 1_555 1_555
Cd4 N3 1_555 1_555
N3 C29 1_555 1_555
C29 H21 1_555 1_555
C38 N3 1_555 1_555
H28 C38 1_555 1_555
Cd6 N3_2 1_555 1_555
N3_2 C29_2 1_555 1_555
C29_2 H21_2 1_555 1_555
C38_2 N3_2 1_555 1_555
H28_2 C38_2 1_555 1_555
N2_2 C15_2 1_555 1_555
C10_2 N4 1_555 1_555
H7_2 C10_2 1_555 1_555
C11_2 C10_2 1_555 1_555
H8_2 C11_2 1_555 1_555
C12_2 C11_2 1_555 1_555
C13_2 C12_2 1_555 1_555
C14_2 C13_2 1_555 1_555
H9_2 C14_2 1_555 1_555
C15_2 C14_2 1_555 1_555
H10_2 C15_2 1_555 1_555
C16_2 N2_2 1_555 1_555
H11_2 C16_2 1_555 1_555
C17_2 C13_2 1_555 1_555
H12_2 C17_2 1_555 1_555
C18_2 C12_2 1_555 1_555
H13_2 C18_2 1_555 1_555
C19_2 N4 1_555 1_555
H14_2 C19_2 1_555 1_555
Cd6 N2_2 1_555 1_555
C33_2 C32_2 1_555 1_555
C34_2 N6 1_555 1_555
H24_2 C34_2 1_555 1_555
C35_2 N6 1_555 1_555
H25_2 C35_2 1_555 1_555
C36_2 C32_2 1_555 1_555
H26_2 C36_2 1_555 1_555
C16_2 C17_2 1_555 1_555
C18_2 C19_2 1_555 1_555
C33_2 C34_2 1_555 1_555
C35_2 C36_2 1_555 1_555
H22_2 C30_2 1_555 1_555
O3_2 C6_2 1_555 1_555
O4_2 C9_2 1_555 1_555
O5_2 C9_2 1_555 1_555
H3_2 C5_2 1_555 1_555
C6_2 C5_2 1_555 1_555
C8_2 O3_2 1_555 1_555
H5_2 C8_2 1_555 1_555
H6_2 C8_2 1_555 1_555
C9_2 C8_2 1_555 1_555
Cd6 O4_2 1_555 1_555
Cd3_2 O4_2 1_555 1_555
O6_2 Cd6 1_555 1_555
O7_2 Cd6 1_555 1_555
O11_2 Cd6 1_555 1_555
O14_2 Cd6 1_555 1_555
C20_2 O6_2 1_555 1_555
C21_2 C20_2 1_555 1_555
C22_2 C21_2 1_555 1_555
H15_2 C22_2 1_555 1_555
C26_2 C21_2 1_555 1_555
H18_2 C26_2 1_555 1_555
O5_2 Cd3_2 1_555 1_555
Cd3_2 O11_2 1_555 1_555
O7_2 C20_2 1_555 1_555
Cd4 O1_2 1_555 1_555
O1_2 C1_2 1_555 1_555
O2_2 Cd4 1_555 1_555
C1_2 O2_2 1_555 1_555
C2_2 C1_2 1_555 1_555
C3_2 C2_2 1_555 1_555
H1_2 C3_2 1_555 1_555
C4_2 C3_2 1_555 1_555
H2_2 C4_2 1_555 1_555
C7_2 C2_2 1_555 1_555
H4_2 C7_2 1_555 1_555
O8_2 C25_2 1_555 1_555
O9_2 Cd4 1_555 1_555
O13_2 Cd4 1_555 1_555
O12_2 Cd5_2 1_555 1_555
H17_2 C24_2 1_555 1_555
H20_2 C27_2 1_555 1_555
Cd5_2 O10_2 1_555 1_555
O12_2 C28_2 1_555 1_555
C27_2 C28_2 1_555 1_555
Cd5 N3_3 1_555 1_555
N3_3 C29_3 1_555 1_555
C29_3 H21_3 1_555 1_555
C38_3 N3_3 1_555 1_555
H28_3 C38_3 1_555 1_555
H22_3 C30_3 1_555 1_555
H16_2 C23_2 1_555 1_555
C24_3 C23_2 1_555 1_555
H17_3 C24_3 1_555 1_555
H20_3 C27_3 1_555 1_555
O13_2 C28_3 1_555 1_555
C27_3 C28_3 1_555 1_555
Cd5_2 O1_3 1_555 1_555
O1_3 C1_3 1_555 1_555
O2_3 Cd5_2 1_555 1_555
O3_3 C6_3 1_555 1_555
O11_2 C9_3 1_555 1_555
O14_2 C9_3 1_555 1_555
N1_2 Cd5_2 1_555 1_555
N2_3 C15_3 1_555 1_555
C1_3 O2_3 1_555 1_555
C2_3 C1_3 1_555 1_555
C3_3 C2_3 1_555 1_555
H1_3 C3_3 1_555 1_555
C4_3 C3_3 1_555 1_555
H2_3 C4_3 1_555 1_555
C5_3 C4_3 1_555 1_555
H3_3 C5_3 1_555 1_555
C6_3 C5_3 1_555 1_555
C7_3 C2_3 1_555 1_555
H4_3 C7_3 1_555 1_555
C8_3 O3_3 1_555 1_555
H6_3 C8_3 1_555 1_555
C9_3 C8_3 1_555 1_555
C10_3 N1_2 1_555 1_555
H7_3 C10_3 1_555 1_555
C11_3 C10_3 1_555 1_555
H8_3 C11_3 1_555 1_555
C12_3 C11_3 1_555 1_555
C13_3 C12_3 1_555 1_555
C14_3 C13_3 1_555 1_555
H9_3 C14_3 1_555 1_555
C15_3 C14_3 1_555 1_555
H10_3 C15_3 1_555 1_555
C16_3 N2_3 1_555 1_555
H11_3 C16_3 1_555 1_555
C17_3 C13_3 1_555 1_555
H12_3 C17_3 1_555 1_555
C18_3 C12_3 1_555 1_555
H13_3 C18_3 1_555 1_555
C19_3 N1_2 1_555 1_555
H14_3 C19_3 1_555 1_555
Cd5 N2_3 1_555 1_555
O6_3 Cd3_2 1_555 1_555
O7_3 Cd3_2 1_555 1_555
O8_3 C25_3 1_555 1_555
N4_2 Cd3_2 1_555 1_555
N5_2 Cd5_2 1_555 1_555
N6_2 Cd3_2 1_555 1_555
C20_3 O6_3 1_555 1_555
C21_3 C20_3 1_555 1_555
C22_3 C21_3 1_555 1_555
H15_3 C22_3 1_555 1_555
C26_3 C21_3 1_555 1_555
H18_3 C26_3 1_555 1_555
C33_3 C32_3 1_555 1_555
C34_3 N5_2 1_555 1_555
H24_3 C34_3 1_555 1_555
C35_3 N5_2 1_555 1_555
H25_3 C35_3 1_555 1_555
C36_3 C32_3 1_555 1_555
H26_3 C36_3 1_555 1_555
C6_3 C7_3 1_555 1_555
C16_3 C17_3 1_555 1_555
C18_3 C19_3 1_555 1_555
O7_3 C20_3 1_555 1_555
C25_3 C26_3 1_555 1_555
C33_3 C34_3 1_555 1_555
C35_3 C36_3 1_555 1_555
H22_4 C30_4 1_555 1_555
N2_4 C15_4 1_555 1_555
C10_4 N4_2 1_555 1_555
H7_4 C10_4 1_555 1_555
C11_4 C10_4 1_555 1_555
H8_4 C11_4 1_555 1_555
C12_4 C11_4 1_555 1_555
C13_4 C12_4 1_555 1_555
C14_4 C13_4 1_555 1_555
H9_4 C14_4 1_555 1_555
C15_4 C14_4 1_555 1_555
H10_4 C15_4 1_555 1_555
C16_4 N2_4 1_555 1_555
H11_4 C16_4 1_555 1_555
C17_4 C13_4 1_555 1_555
H12_4 C17_4 1_555 1_555
C18_4 C12_4 1_555 1_555
H13_4 C18_4 1_555 1_555
C19_4 N4_2 1_555 1_555
H14_4 C19_4 1_555 1_555
Cd3 N2_4 1_555 1_555
C33_4 C32_4 1_555 1_555
C34_4 N6_2 1_555 1_555
H24_4 C34_4 1_555 1_555
C35_4 N6_2 1_555 1_555
H25_4 C35_4 1_555 1_555
C36_4 C32_4 1_555 1_555
H26_4 C36_4 1_555 1_555
C16_4 C17_4 1_555 1_555
C18_4 C19_4 1_555 1_555
C33_4 C34_4 1_555 1_555
C35_4 C36_4 1_555 1_555
Cd3 N3_4 1_555 1_555
N3_4 C29_4 1_555 1_555
C29_4 H21_4 1_555 1_555
C38_4 N3_4 1_555 1_555
H28_4 C38_4 1_555 1_555
H17_4 C24_4 1_555 1_555
H20_4 C27_4 1_555 1_555
O13 C28_4 1_555 1_555
C27_4 C28_4 1_555 1_555
Cd5 O1_4 1_555 1_555
O1_4 C1_4 1_555 1_555
O2_4 Cd5 1_555 1_555
C1_4 O2_4 1_555 1_555
C2_4 C1_4 1_555 1_555
C3_4 C2_4 1_555 1_555
H1_4 C3_4 1_555 1_555
C4_4 C3_4 1_555 1_555
H2_4 C4_4 1_555 1_555
C7_4 C2_4 1_555 1_555
H4_4 C7_4 1_555 1_555
O8_4 C25_4 1_555 1_555
O3_4 C6_4 1_555 1_555
O11 C9_4 1_555 1_555
O14 C9_4 1_555 1_555
H3_4 C5_4 1_555 1_555
C6_4 C5_4 1_555 1_555
C8_4 O3_4 1_555 1_555
H5_4 C8_4 1_555 1_555
H6_4 C8_4 1_555 1_555
C9_4 C8_4 1_555 1_555
O6_4 Cd3 1_555 1_555
O7_4 Cd3 1_555 1_555
C20_4 O6_4 1_555 1_555
C21_4 C20_4 1_555 1_555
C22_4 C21_4 1_555 1_555
H15_4 C22_4 1_555 1_555
C26_4 C21_4 1_555 1_555
H18_4 C26_4 1_555 1_555
O7_4 C20_4 1_555 1_555
H27 C37 1_555 1_555
H27_2 C37_2 1_555 1_555
H16_3 C23_3 1_555 1_555
H27_3 C37_3 1_555 1_555
H27_4 C37_4 1_555 1_555
H16_4 C23_4 1_555 1_555

#END
