
###############################################################################
#
# This file contains modified crystal structure data generated from the
# MOF subset of the Cambridge Structural Database (CSD) v543 
# hosted by the Cambridge Crystallographic Data Centre (CCDC).
#
# This work is licensed under the Creative Commons
# Attribution-NonCommercial-ShareAlike 4.0 International License.
# To view a copy of this license, visit
# http://creativecommons.org/licenses/by-nc-sa/4.0/
# or send a letter to
# Creative Commons, PO Box 1866, Mountain View, CA 94042, USA.
#
# CIF created using the CSD Python API on 29 September 2022
# The structure has been converted into the P1 space group
# The structure has a 3D framework
# The original CSD entry LUXDEO is in the tetragonal crystal system
# The original CSD entry LUXDEO is in a Sohncke space group
# The framework has been calculated to contain at least 10.0% void space
# The void calculation uses a probe of radius 1.32A, grid spacing 0.4
# The framework is charged, counterions have been retained in the structure
#
###############################################################################

data_LUXDEO
_chemical_formula_moiety         '(C152 H184 Ag8 N40 O8 8+)n'
_symmetry_cell_setting           triclinic
_symmetry_space_group_name_H-M   'P 1'
_symmetry_Int_Tables_number      1
_space_group_name_Hall           'P 1'
loop_
_symmetry_equiv_pos_site_id
_symmetry_equiv_pos_as_xyz
1 x,y,z
_cell_length_a                   12.3808(4)
_cell_length_b                   12.3808(4)
_cell_length_c                   32.558(2)
_cell_angle_alpha                90
_cell_angle_beta                 90
_cell_angle_gamma                90
_cell_volume                     4990.63
loop_
_atom_site_label
_atom_site_type_symbol
_atom_site_fract_x
_atom_site_fract_y
_atom_site_fract_z
C35 C 0.0250(6) 0.5007(5) 0.3925(2)
C36 C 0.0019(6) 0.5909(7) 0.4247(4)
H39 H 0.0595 0.6452 0.4236
C37 C 0.1346(6) 0.4460(6) 0.4017(3)
H41 H 0.1929 0.4989 0.3986
H42 H 0.1460 0.3863 0.3824
H43 H 0.1345 0.4180 0.4298
C38 C 0.0274(6) 0.5446(6) 0.3483(2)
H45 H 0.0307 0.4841 0.3289
H46 H 0.0911 0.5906 0.3447
C16 C 0.5007(5) 0.0250(6) 0.6075(2)
C17 C 0.5909(7) 0.0019(6) 0.5753(4)
H16 H 0.6452 0.0595 0.5764
C18 C 0.4460(6) 0.1346(6) 0.5983(3)
H18 H 0.4989 0.1929 0.6014
H19 H 0.3863 0.1460 0.6176
H20 H 0.4180 0.1345 0.5702
C19 C 0.5446(6) 0.0274(6) 0.6517(2)
H22 H 0.4841 0.0307 0.6711
H23 H 0.5906 0.0911 0.6553
Ag1 Ag 0.50714(3) 0.77499(3) 0.395571(12)
C1 C 0.2676(5) 0.7686(5) 0.59304(17)
C2 C 0.3674(5) 0.9218(5) 0.56386(19)
H1 H 0.3483 0.9918 0.5511
H2 H 0.4242 0.8874 0.5469
C3 C 0.4455(5) 0.8334(5) 0.6203(2)
H3 H 0.4772 0.8394 0.6481
H4 H 0.5007 0.8036 0.6014
C4 C 0.6650(5) 0.3605(4) 0.35444(18)
H5 H 0.6381 0.2881 0.3466
H6 H 0.6821 0.4005 0.3289
C5 C 0.5782(5) 0.4197(5) 0.37767(19)
C6 C 0.5701(5) 0.5311(4) 0.37514(15)
H7 H 0.6163 0.5667 0.3562
C7 C 0.4372(5) 0.5442(5) 0.42368(15)
C8 C 0.4385(5) 0.4328(5) 0.42912(19)
H8 H 0.3928 0.3995 0.4489
C9 C 0.5094(5) 0.3695(5) 0.40457(19)
H9 H 0.5091 0.2930 0.4068
C10 C 0.3706(5) 0.6159(5) 0.44974(15)
C11 C 0.3288(6) 0.7900(5) 0.46882(18)
H10 H 0.3387 0.8653 0.4647
C12 C 0.2580(5) 0.7583(5) 0.49917(16)
C13 C 0.2427(5) 0.6482(5) 0.50309(19)
H11 H 0.1937 0.6216 0.5231
C14 C 0.2960(5) 0.5781(5) 0.47899(16)
H12 H 0.2833 0.5027 0.4817
C15 C 0.2100(5) 0.8424(5) 0.52834(17)
H13 H 0.2078 0.9134 0.5144
H14 H 0.1349 0.8217 0.5352
H15 H 0.6252 0.9325 0.5815
H17 H 0.5591 0.9993 0.5477
H21 H 0.5870 0.9619 0.6569
N1 N 0.2717(4) 0.8518(4) 0.56546(13)
N2 N 0.4083(4) 0.9401(4) 0.60572(16)
N3 N 0.3486(4) 0.7633(4) 0.62099(14)
N4 N 0.5031(4) 0.5926(4) 0.39702(12)
N5 N 0.3843(4) 0.7231(4) 0.44491(14)
O1 O 0.1929(3) 0.7047(3) 0.59330(12)
Ag2 Ag 0.77499(3) 0.50714(3) 0.604429(12)
Ag3 Ag 0.27499(3) 0.99286(3) 0.645571(12)
Ag4 Ag 0.99286(3) 0.27499(3) 0.354429(12)
C20 C 0.7686(5) 0.2676(5) 0.40696(17)
C21 C 0.9218(5) 0.3674(5) 0.43614(19)
H24 H 0.9918 0.3483 0.4489
H25 H 0.8874 0.4242 0.4531
C22 C 0.8334(5) 0.4455(5) 0.3797(2)
H26 H 0.8394 0.4772 0.3519
H27 H 0.8036 0.5007 0.3986
C23 C 0.3605(4) 0.6650(5) 0.64556(18)
H28 H 0.2881 0.6381 0.6534
H29 H 0.4005 0.6821 0.6711
C24 C 0.4197(5) 0.5782(5) 0.62233(19)
C25 C 0.5311(4) 0.5701(5) 0.62486(15)
H30 H 0.5667 0.6163 0.6438
C26 C 0.5442(5) 0.4372(5) 0.57632(15)
C27 C 0.4328(5) 0.4385(5) 0.57088(19)
H31 H 0.3995 0.3928 0.5511
C28 C 0.3695(5) 0.5094(5) 0.59543(19)
H32 H 0.2930 0.5091 0.5932
C29 C 0.6159(5) 0.3706(5) 0.55026(15)
C30 C 0.7900(5) 0.3288(6) 0.53118(18)
H33 H 0.8653 0.3387 0.5353
C31 C 0.7583(5) 0.2580(5) 0.50083(16)
C32 C 0.6482(5) 0.2427(5) 0.49691(19)
H34 H 0.6216 0.1937 0.4769
C33 C 0.5781(5) 0.2960(5) 0.52101(16)
H35 H 0.5027 0.2833 0.5183
C34 C 0.8424(5) 0.2100(5) 0.47166(17)
H36 H 0.9134 0.2078 0.4856
H37 H 0.8217 0.1349 0.4648
H38 H 0.9325 0.6252 0.4185
H40 H 0.9993 0.5591 0.4523
H44 H 0.9619 0.5870 0.3431
N6 N 0.8518(4) 0.2717(4) 0.43454(13)
N7 N 0.9401(4) 0.4083(4) 0.39428(16)
N8 N 0.5599(4) 0.9083(4) 0.35572(16)
N9 N 0.9083(4) 0.5599(4) 0.64428(16)
N10 N 0.7633(4) 0.3486(4) 0.37901(14)
N11 N 0.5926(4) 0.5031(4) 0.60298(12)
N12 N 0.7231(4) 0.3843(4) 0.55509(14)
O2 O 0.7047(3) 0.1929(3) 0.40670(12)
C1_2 C 0.7324(5) 0.2314(5) 0.09304(17)
C2_2 C 0.6326(5) 0.0782(5) 0.06386(19)
H1_2 H 0.6517 0.0082 0.0511
H2_2 H 0.5758 0.1126 0.0469
C3_2 C 0.5545(5) 0.1666(5) 0.1203(2)
H3_2 H 0.5228 0.1606 0.1481
H4_2 H 0.4993 0.1964 0.1014
C13_2 C 0.7573(5) 0.3518(5) 0.00309(19)
H11_2 H 0.8063 0.3784 0.0231
C15_2 C 0.7900(5) 0.1576(5) 0.02834(17)
H13_2 H 0.7922 0.0866 0.0144
H14_2 H 0.8651 0.1783 0.0352
H15_2 H 0.3748 0.0675 0.0815
H17_2 H 0.4409 0.0007 0.0477
H21_2 H 0.4130 0.0381 0.1569
N1_2 N 0.7283(4) 0.1482(4) 0.06546(13)
N2_2 N 0.5917(4) 0.0599(4) 0.10572(16)
N3_2 N 0.6514(4) 0.2367(4) 0.12099(14)
O1_2 O 0.8071(3) 0.2953(3) 0.09330(12)
Ag2_2 Ag 0.22501(3) 0.49286(3) 0.104429(12)
Ag3_2 Ag 0.72501(3) 0.00714(3) 0.145571(12)
C23_2 C 0.6395(4) 0.3350(5) 0.14556(18)
H28_2 H 0.7119 0.3619 0.1534
H29_2 H 0.5995 0.3179 0.1711
C24_2 C 0.5803(5) 0.4218(5) 0.12233(19)
C25_2 C 0.4689(4) 0.4299(5) 0.12486(15)
H30_2 H 0.4333 0.3837 0.1438
C26_2 C 0.4558(5) 0.5628(5) 0.07632(15)
C27_2 C 0.5672(5) 0.5615(5) 0.07088(19)
H31_2 H 0.6005 0.6072 0.0511
C28_2 C 0.6305(5) 0.4906(5) 0.09543(19)
H32_2 H 0.7070 0.4909 0.0932
C29_2 C 0.3841(5) 0.6294(5) 0.05026(15)
C30_2 C 0.2100(5) 0.6712(6) 0.03118(18)
H33_2 H 0.1347 0.6613 0.0353
C31_2 C 0.2417(5) 0.7420(5) 0.00083(16)
C33_2 C 0.4219(5) 0.7040(5) 0.02101(16)
H35_2 H 0.4973 0.7167 0.0183
N9_2 N 0.0917(4) 0.4401(4) 0.14428(16)
N11_2 N 0.4074(4) 0.4969(4) 0.10298(12)
N12_2 N 0.2769(4) 0.6157(4) 0.05509(14)
Ag1_2 Ag 0.49286(3) 0.22501(3) 0.895571(12)
C4_2 C 0.3350(5) 0.6395(4) 0.85444(18)
H5_2 H 0.3619 0.7119 0.8466
H6_2 H 0.3179 0.5995 0.8289
C5_2 C 0.4218(5) 0.5803(5) 0.87767(19)
C6_2 C 0.4299(5) 0.4689(4) 0.87514(15)
H7_2 H 0.3837 0.4333 0.8562
C7_2 C 0.5628(5) 0.4558(5) 0.92368(15)
C8_2 C 0.5615(5) 0.5672(5) 0.92912(19)
H8_2 H 0.6072 0.6005 0.9489
C9_2 C 0.4906(5) 0.6305(5) 0.90457(19)
H9_2 H 0.4909 0.7070 0.9068
C10_2 C 0.6294(5) 0.3841(5) 0.94974(15)
C11_2 C 0.6712(6) 0.2100(5) 0.96882(18)
H10_2 H 0.6613 0.1347 0.9647
C12_2 C 0.7420(5) 0.2417(5) 0.99917(16)
C14_2 C 0.7040(5) 0.4219(5) 0.97899(16)
H12_2 H 0.7167 0.4973 0.9817
N4_2 N 0.4969(4) 0.4074(4) 0.89702(12)
N5_2 N 0.6157(4) 0.2769(4) 0.94491(14)
Ag4_2 Ag 0.00714(3) 0.72501(3) 0.854429(12)
C20_2 C 0.2314(5) 0.7324(5) 0.90696(17)
C21_2 C 0.0782(5) 0.6326(5) 0.93614(19)
H24_2 H 0.0082 0.6517 0.9489
H25_2 H 0.1126 0.5758 0.9531
C22_2 C 0.1666(5) 0.5545(5) 0.8797(2)
H26_2 H 0.1606 0.5228 0.8519
H27_2 H 0.1964 0.4993 0.8986
C32_2 C 0.3518(5) 0.7573(5) 0.99691(19)
H34_2 H 0.3784 0.8063 0.9769
C34_2 C 0.1576(5) 0.7900(5) 0.97166(17)
H36_2 H 0.0866 0.7922 0.9856
H37_2 H 0.1783 0.8651 0.9648
H38_2 H 0.0675 0.3748 0.9185
H40_2 H 0.0007 0.4409 0.9523
H44_2 H 0.0381 0.4130 0.8431
N6_2 N 0.1482(4) 0.7283(4) 0.93454(13)
N7_2 N 0.0599(4) 0.5917(4) 0.89428(16)
N8_2 N 0.4401(4) 0.0917(4) 0.85572(16)
N10_2 N 0.2367(4) 0.6514(4) 0.87901(14)
O2_2 O 0.2953(3) 0.8071(3) 0.90670(12)
C4_3 C 0.1395(4) 0.1650(5) 0.10444(18)
H5_3 H 0.2119 0.1381 0.0966
H6_3 H 0.0995 0.1821 0.0789
C5_3 C 0.0803(5) 0.0782(5) 0.12767(19)
C9_3 C 0.1305(5) 0.0094(5) 0.15457(19)
H9_3 H 0.2070 0.0091 0.1568
C20_3 C 0.2324(5) 0.2686(5) 0.15696(17)
C21_3 C 0.1326(5) 0.4218(5) 0.18614(19)
H24_3 H 0.1517 0.4918 0.1989
H25_3 H 0.0758 0.3874 0.2031
C22_3 C 0.0545(5) 0.3334(5) 0.1297(2)
H26_3 H 0.0228 0.3394 0.1019
C26_3 C 0.0628(5) 0.0442(5) 0.32632(15)
C29_3 C 0.1294(5) 0.1159(5) 0.30026(15)
C30_3 C 0.1712(6) 0.2900(5) 0.28118(18)
H33_3 H 0.1613 0.3653 0.2853
C31_3 C 0.2420(5) 0.2583(5) 0.25083(16)
C32_3 C 0.2573(5) 0.1482(5) 0.24691(19)
H34_3 H 0.3063 0.1216 0.2269
C33_3 C 0.2040(5) 0.0781(5) 0.27101(16)
H35_3 H 0.2167 0.0027 0.2683
C34_3 C 0.2900(5) 0.3424(5) 0.22166(17)
H36_3 H 0.2922 0.4134 0.2356
H37_3 H 0.3651 0.3217 0.2148
C37_2 C 0.0540(6) 0.6346(6) 0.1517(3)
H41_2 H 0.0011 0.6929 0.1486
H42_2 H 0.1137 0.6460 0.1324
H43_2 H 0.0820 0.6345 0.1798
H45_2 H 0.0159 0.5307 0.0789
N6_3 N 0.2283(4) 0.3518(4) 0.18454(13)
N10_3 N 0.1514(4) 0.2633(4) 0.12901(14)
N12_3 N 0.1157(4) 0.2231(4) 0.30509(14)
O2_3 O 0.3071(3) 0.2047(3) 0.15670(12)
H4_3 H 0.6964 0.0007 0.3514
C6_3 C 0.9689(4) 0.0701(5) 0.12514(15)
H7_3 H 0.9333 0.1163 0.1062
C16_2 C 0.4750(6) 0.0007(5) 0.3575(2)
C17_2 C 0.4981(6) 0.0909(7) 0.3253(4)
H15_3 H 0.5675 0.1252 0.3315
H16_2 H 0.4405 0.1452 0.3264
H17_3 H 0.5007 0.0591 0.2977
C19_2 C 0.4726(6) 0.0446(6) 0.4017(2)
H21_3 H 0.5381 0.0870 0.4069
H23_2 H 0.4089 0.0906 0.4053
N4_3 N 0.9074(4) 0.0031(4) 0.14702(12)
H27_3 H 0.9993 0.3036 0.1486
C25_3 C 0.9299(5) 0.0311(4) 0.37486(15)
H30_3 H 0.8837 0.0667 0.3938
C35_2 C 0.9993(5) 0.5250(6) 0.1425(2)
C36_2 C 0.9091(7) 0.5019(6) 0.1747(4)
H38_3 H 0.8748 0.4325 0.1685
H39_2 H 0.8548 0.5595 0.1736
H40_3 H 0.9409 0.4993 0.2023
C38_2 C 0.9554(6) 0.5274(6) 0.0983(2)
H44_3 H 0.9130 0.4619 0.0931
H46_2 H 0.9094 0.5911 0.0947
N11_3 N 0.9969(4) 0.0926(4) 0.35298(12)
C1_3 C 0.7314(5) 0.7676(5) 0.34304(17)
C2_3 C 0.5782(5) 0.8674(5) 0.31386(19)
H1_3 H 0.5082 0.8483 0.3011
H2_3 H 0.6126 0.9242 0.2969
C3_3 C 0.6666(5) 0.9455(5) 0.3703(2)
H3_3 H 0.6606 0.9772 0.3981
C7_3 C 0.9558(5) 0.9372(5) 0.17368(15)
C10_3 C 0.8841(5) 0.8706(5) 0.19974(15)
C11_3 C 0.7100(5) 0.8288(6) 0.21882(18)
H10_3 H 0.6347 0.8387 0.2147
C12_3 C 0.7417(5) 0.7580(5) 0.24917(16)
C13_3 C 0.8518(5) 0.7427(5) 0.25309(19)
H11_3 H 0.8784 0.6937 0.2731
C14_3 C 0.9219(5) 0.7960(5) 0.22899(16)
H12_3 H 0.9973 0.7833 0.2317
C15_3 C 0.6576(5) 0.7100(5) 0.27834(17)
H13_3 H 0.5866 0.7078 0.2644
H14_3 H 0.6783 0.6349 0.2852
C18_2 C 0.3654(6) 0.9460(6) 0.3483(3)
H18_2 H 0.3071 0.9989 0.3514
H19_2 H 0.3540 0.8863 0.3676
H20_2 H 0.3655 0.9180 0.3202
H22_2 H 0.4693 0.9841 0.4211
N1_3 N 0.6482(4) 0.7717(4) 0.31546(13)
N3_3 N 0.7367(4) 0.8486(4) 0.37099(14)
N5_3 N 0.7769(4) 0.8843(4) 0.19491(14)
O1_3 O 0.7953(3) 0.6929(3) 0.34330(12)
C23_3 C 0.8350(5) 0.8605(4) 0.39556(18)
H28_3 H 0.8619 0.7881 0.4034
H29_3 H 0.8179 0.9005 0.4211
C24_3 C 0.9218(5) 0.9197(5) 0.37233(19)
C28_3 C 0.9906(5) 0.8695(5) 0.34543(19)
H32_3 H 0.9909 0.7930 0.3432
C1_4 C 0.2686(5) 0.2324(5) 0.84304(17)
C2_4 C 0.4218(5) 0.1326(5) 0.81386(19)
H1_4 H 0.4918 0.1517 0.8011
H2_4 H 0.3874 0.0758 0.7969
C3_4 C 0.3334(5) 0.0545(5) 0.8703(2)
H3_4 H 0.3394 0.0228 0.8981
C7_4 C 0.0442(5) 0.0628(5) 0.67368(15)
C10_4 C 0.1159(5) 0.1294(5) 0.69974(15)
C11_4 C 0.2900(5) 0.1712(6) 0.71882(18)
H10_4 H 0.3653 0.1613 0.7147
C12_4 C 0.2583(5) 0.2420(5) 0.74917(16)
C13_4 C 0.1482(5) 0.2573(5) 0.75309(19)
H11_4 H 0.1216 0.3063 0.7731
C14_4 C 0.0781(5) 0.2040(5) 0.72899(16)
H12_4 H 0.0027 0.2167 0.7317
C15_4 C 0.3424(5) 0.2900(5) 0.77834(17)
H13_4 H 0.4134 0.2922 0.7644
H14_4 H 0.3217 0.3651 0.7852
C18_3 C 0.6346(6) 0.0540(6) 0.8483(3)
H18_3 H 0.6929 0.0011 0.8514
H19_3 H 0.6460 0.1137 0.8676
H20_3 H 0.6345 0.0820 0.8202
H22_3 H 0.5307 0.0159 0.9211
N1_4 N 0.3518(4) 0.2283(4) 0.81546(13)
N3_4 N 0.2633(4) 0.1514(4) 0.87099(14)
N5_4 N 0.2231(4) 0.1157(4) 0.69491(14)
O1_4 O 0.2047(3) 0.3071(3) 0.84330(12)
C23_4 C 0.1650(5) 0.1395(4) 0.89556(18)
H28_4 H 0.1381 0.2119 0.9034
H29_4 H 0.1821 0.0995 0.9211
C24_4 C 0.0782(5) 0.0803(5) 0.87233(19)
C28_4 C 0.0094(5) 0.1305(5) 0.84543(19)
H32_4 H 0.0091 0.2070 0.8432
H4_4 H 0.3036 0.9993 0.8514
C6_4 C 0.0311(4) 0.9299(5) 0.62514(15)
H7_4 H 0.0667 0.8837 0.6062
C16_3 C 0.5250(6) 0.9993(5) 0.8575(2)
C17_3 C 0.5019(6) 0.9091(7) 0.8253(4)
H15_4 H 0.4325 0.8748 0.8315
H16_3 H 0.5595 0.8548 0.8264
H17_4 H 0.4993 0.9409 0.7977
C19_3 C 0.5274(6) 0.9554(6) 0.9017(2)
H21_4 H 0.4619 0.9130 0.9069
H23_3 H 0.5911 0.9094 0.9053
N4_4 N 0.0926(4) 0.9969(4) 0.64702(12)
H27_4 H 0.0007 0.6964 0.6486
C25_4 C 0.0701(5) 0.9689(4) 0.87486(15)
H30_4 H 0.1163 0.9333 0.8938
C35_3 C 0.0007(5) 0.4750(6) 0.6425(2)
C36_3 C 0.0909(7) 0.4981(6) 0.6747(4)
H38_4 H 0.1252 0.5675 0.6685
H39_3 H 0.1452 0.4405 0.6736
H40_4 H 0.0591 0.5007 0.7023
C38_3 C 0.0446(6) 0.4726(6) 0.5983(2)
H44_4 H 0.0870 0.5381 0.5931
H46_3 H 0.0906 0.4089 0.5947
N11_4 N 0.0031(4) 0.9074(4) 0.85298(12)
C4_4 C 0.8605(4) 0.8350(5) 0.60444(18)
H5_4 H 0.7881 0.8619 0.5966
H6_4 H 0.9005 0.8179 0.5789
C5_4 C 0.9197(5) 0.9218(5) 0.62767(19)
C9_4 C 0.8695(5) 0.9906(5) 0.65457(19)
H9_4 H 0.7930 0.9909 0.6568
C20_4 C 0.7676(5) 0.7314(5) 0.65696(17)
C21_4 C 0.8674(5) 0.5782(5) 0.68614(19)
H24_4 H 0.8483 0.5082 0.6989
H25_4 H 0.9242 0.6126 0.7031
C22_4 C 0.9455(5) 0.6666(5) 0.6297(2)
H26_4 H 0.9772 0.6606 0.6019
C26_4 C 0.9372(5) 0.9558(5) 0.82632(15)
C29_4 C 0.8706(5) 0.8841(5) 0.80026(15)
C30_4 C 0.8288(6) 0.7100(5) 0.78118(18)
H33_4 H 0.8387 0.6347 0.7853
C31_4 C 0.7580(5) 0.7417(5) 0.75083(16)
C32_4 C 0.7427(5) 0.8518(5) 0.74691(19)
H34_4 H 0.6937 0.8784 0.7269
C33_4 C 0.7960(5) 0.9219(5) 0.77101(16)
H35_4 H 0.7833 0.9973 0.7683
C34_4 C 0.7100(5) 0.6576(5) 0.72166(17)
H36_4 H 0.7078 0.5866 0.7356
H37_4 H 0.6349 0.6783 0.7148
C37_3 C 0.9460(6) 0.3654(6) 0.6517(3)
H41_3 H 0.9989 0.3071 0.6486
H42_3 H 0.8863 0.3540 0.6324
H43_3 H 0.9180 0.3655 0.6798
H45_3 H 0.9841 0.4693 0.5789
N6_4 N 0.7717(4) 0.6482(4) 0.68454(13)
N10_4 N 0.8486(4) 0.7367(4) 0.62901(14)
N12_4 N 0.8843(4) 0.7769(4) 0.80509(14)
O2_4 O 0.6929(3) 0.7953(3) 0.65670(12)
C16_4 C 0.4993(5) 0.9750(6) 0.1075(2)
C17_4 C 0.4091(7) 0.9981(6) 0.0753(4)
H16_4 H 0.3548 0.9405 0.0764
C18_4 C 0.5540(6) 0.8654(6) 0.0983(3)
H18_4 H 0.5011 0.8071 0.1014
H19_4 H 0.6137 0.8540 0.1176
H20_4 H 0.5820 0.8655 0.0702
C19_4 C 0.4554(6) 0.9726(6) 0.1517(2)
H22_4 H 0.5159 0.9693 0.1711
H23_4 H 0.4094 0.9089 0.1553
C35_4 C 0.9750(6) 0.4993(5) 0.8925(2)
C36_4 C 0.9981(6) 0.4091(7) 0.9247(4)
H39_4 H 0.9405 0.3548 0.9236
C37_4 C 0.8654(6) 0.5540(6) 0.9017(3)
H41_4 H 0.8071 0.5011 0.8986
H42_4 H 0.8540 0.6137 0.8824
H43_4 H 0.8655 0.5820 0.9298
C38_4 C 0.9726(6) 0.4554(6) 0.8483(2)
H45_4 H 0.9693 0.5159 0.8289
H46_4 H 0.9089 0.4094 0.8447
C8_3 C 0.0672(5) 0.9385(5) 0.17912(19)
H8_3 H 0.1005 0.8928 0.1989
C27_3 C 0.0615(5) 0.9328(5) 0.32088(19)
H31_3 H 0.1072 0.8995 0.3011
C8_4 C 0.9328(5) 0.0615(5) 0.67912(19)
H8_4 H 0.8995 0.1072 0.6989
C27_4 C 0.9385(5) 0.0672(5) 0.82088(19)
H31_4 H 0.8928 0.1005 0.8011
loop_
_geom_bond_atom_site_label_1
_geom_bond_atom_site_label_2
_geom_bond_site_symmetry_1
_geom_bond_site_symmetry_2
C35 C36 1_555 1_555
H39 C36 1_555 1_555
C37 C35 1_555 1_555
H41 C37 1_555 1_555
H42 C37 1_555 1_555
H43 C37 1_555 1_555
C38 C35 1_555 1_555
H45 C38 1_555 1_555
H46 C38 1_555 1_555
C16 C17 1_555 1_555
H16 C17 1_555 1_555
C18 C16 1_555 1_555
H18 C18 1_555 1_555
H19 C18 1_555 1_555
H20 C18 1_555 1_555
C19 C16 1_555 1_555
H22 C19 1_555 1_555
H23 C19 1_555 1_555
Ag1 N4 1_555 1_555
C1 N1 1_555 1_555
C2 H1 1_555 1_555
H2 C2 1_555 1_555
C3 H3 1_555 1_555
H4 C3 1_555 1_555
C4 H5 1_555 1_555
H6 C4 1_555 1_555
C5 C4 1_555 1_555
C6 C5 1_555 1_555
H7 C6 1_555 1_555
C7 C8 1_555 1_555
C8 H8 1_555 1_555
C9 C5 1_555 1_555
H9 C9 1_555 1_555
C10 C7 1_555 1_555
C11 H10 1_555 1_555
C12 C11 1_555 1_555
C13 C12 1_555 1_555
H11 C13 1_555 1_555
C14 C10 1_555 1_555
H12 C14 1_555 1_555
C15 C12 1_555 1_555
H13 C15 1_555 1_555
H14 C15 1_555 1_555
N1 C2 1_555 1_555
N2 C2 1_555 1_555
N3 C1 1_555 1_555
N4 C6 1_555 1_555
N5 Ag1 1_555 1_555
O1 C1 1_555 1_555
Ag2 N9 1_555 1_555
Ag3 N2 1_555 1_555
Ag4 N7 1_555 1_555
C20 N6 1_555 1_555
C21 H24 1_555 1_555
H25 C21 1_555 1_555
C22 H26 1_555 1_555
H27 C22 1_555 1_555
C23 N3 1_555 1_555
H28 C23 1_555 1_555
H29 C23 1_555 1_555
C24 C23 1_555 1_555
C25 C24 1_555 1_555
H30 C25 1_555 1_555
C26 C27 1_555 1_555
C27 H31 1_555 1_555
C28 C24 1_555 1_555
H32 C28 1_555 1_555
C29 C26 1_555 1_555
C30 H33 1_555 1_555
C31 C30 1_555 1_555
C32 C31 1_555 1_555
H34 C32 1_555 1_555
C33 C29 1_555 1_555
H35 C33 1_555 1_555
C34 C31 1_555 1_555
H36 C34 1_555 1_555
H37 C34 1_555 1_555
N6 C21 1_555 1_555
N7 C21 1_555 1_555
N8 Ag1 1_555 1_555
N10 C4 1_555 1_555
N11 Ag2 1_555 1_555
N12 Ag2 1_555 1_555
O2 C20 1_555 1_555
C3 N2 1_555 1_555
C3 N3 1_555 1_555
C7 N4 1_555 1_555
C8 C9 1_555 1_555
C10 N5 1_555 1_555
C11 N5 1_555 1_555
C13 C14 1_555 1_555
C15 N1 1_555 1_555
C20 N10 1_555 1_555
C22 N7 1_555 1_555
C22 N10 1_555 1_555
C25 N11 1_555 1_555
C26 N11 1_555 1_555
C27 C28 1_555 1_555
C29 N12 1_555 1_555
C30 N12 1_555 1_555
C32 C33 1_555 1_555
C34 N6 1_555 1_555
C1_2 N1_2 1_555 1_555
C2_2 H1_2 1_555 1_555
H2_2 C2_2 1_555 1_555
C3_2 H3_2 1_555 1_555
H4_2 C3_2 1_555 1_555
H11_2 C13_2 1_555 1_555
H13_2 C15_2 1_555 1_555
H14_2 C15_2 1_555 1_555
N1_2 C2_2 1_555 1_555
N2_2 C2_2 1_555 1_555
N3_2 C1_2 1_555 1_555
O1_2 C1_2 1_555 1_555
Ag2_2 N9_2 1_555 1_555
Ag3_2 N2_2 1_555 1_555
C23_2 N3_2 1_555 1_555
H28_2 C23_2 1_555 1_555
H29_2 C23_2 1_555 1_555
C24_2 C23_2 1_555 1_555
C25_2 C24_2 1_555 1_555
H30_2 C25_2 1_555 1_555
C26_2 C27_2 1_555 1_555
C27_2 H31_2 1_555 1_555
C28_2 C24_2 1_555 1_555
H32_2 C28_2 1_555 1_555
C29_2 C26_2 1_555 1_555
C30_2 H33_2 1_555 1_555
C31_2 C30_2 1_555 1_555
C33_2 C29_2 1_555 1_555
H35_2 C33_2 1_555 1_555
N11_2 Ag2_2 1_555 1_555
N12_2 Ag2_2 1_555 1_555
C3_2 N2_2 1_555 1_555
C3_2 N3_2 1_555 1_555
C15_2 N1_2 1_555 1_555
C25_2 N11_2 1_555 1_555
C26_2 N11_2 1_555 1_555
C27_2 C28_2 1_555 1_555
C29_2 N12_2 1_555 1_555
C30_2 N12_2 1_555 1_555
Ag1_2 N4_2 1_555 1_555
C4_2 H5_2 1_555 1_555
H6_2 C4_2 1_555 1_555
C5_2 C4_2 1_555 1_555
C6_2 C5_2 1_555 1_555
H7_2 C6_2 1_555 1_555
C7_2 C8_2 1_555 1_555
C8_2 H8_2 1_555 1_555
C9_2 C5_2 1_555 1_555
H9_2 C9_2 1_555 1_555
C10_2 C7_2 1_555 1_555
C11_2 H10_2 1_555 1_555
C12_2 C11_2 1_555 1_555
C14_2 C10_2 1_555 1_555
H12_2 C14_2 1_555 1_555
N4_2 C6_2 1_555 1_555
N5_2 Ag1_2 1_555 1_555
Ag4_2 N7_2 1_555 1_555
C20_2 N6_2 1_555 1_555
C21_2 H24_2 1_555 1_555
H25_2 C21_2 1_555 1_555
C22_2 H26_2 1_555 1_555
H27_2 C22_2 1_555 1_555
H34_2 C32_2 1_555 1_555
H36_2 C34_2 1_555 1_555
H37_2 C34_2 1_555 1_555
N6_2 C21_2 1_555 1_555
N7_2 C21_2 1_555 1_555
N8_2 Ag1_2 1_555 1_555
N10_2 C4_2 1_555 1_555
O2_2 C20_2 1_555 1_555
C7_2 N4_2 1_555 1_555
C8_2 C9_2 1_555 1_555
C10_2 N5_2 1_555 1_555
C11_2 N5_2 1_555 1_555
C20_2 N10_2 1_555 1_555
C22_2 N7_2 1_555 1_555
C22_2 N10_2 1_555 1_555
C34_2 N6_2 1_555 1_555
C4_3 H5_3 1_555 1_555
H6_3 C4_3 1_555 1_555
C5_3 C4_3 1_555 1_555
C9_3 C5_3 1_555 1_555
H9_3 C9_3 1_555 1_555
C20_3 N6_3 1_555 1_555
C21_3 H24_3 1_555 1_555
H25_3 C21_3 1_555 1_555
C22_3 H26_3 1_555 1_555
C29_3 C26_3 1_555 1_555
C30_3 H33_3 1_555 1_555
C31_3 C30_3 1_555 1_555
C32_3 C31_3 1_555 1_555
H34_3 C32_3 1_555 1_555
C33_3 C29_3 1_555 1_555
H35_3 C33_3 1_555 1_555
C34_3 C31_3 1_555 1_555
H36_3 C34_3 1_555 1_555
H37_3 C34_3 1_555 1_555
H41_2 C37_2 1_555 1_555
H42_2 C37_2 1_555 1_555
H43_2 C37_2 1_555 1_555
N6_3 C21_3 1_555 1_555
N9_2 C21_3 1_555 1_555
N10_3 C4_3 1_555 1_555
O2_3 C20_3 1_555 1_555
C20_3 N10_3 1_555 1_555
C22_3 N9_2 1_555 1_555
C22_3 N10_3 1_555 1_555
C29_3 N12_3 1_555 1_555
C30_3 N12_3 1_555 1_555
C32_3 C33_3 1_555 1_555
C34_3 N6_3 1_555 1_555
Ag3_2 N4_3 1_555 1_555
H7_3 C6_3 1_555 1_555
C16_2 C17_2 1_555 1_555
C17_2 H15_3 1_555 1_555
H16_2 C17_2 1_555 1_555
H17_3 C17_2 1_555 1_555
C19_2 C16_2 1_555 1_555
H21_3 C19_2 1_555 1_555
H23_2 C19_2 1_555 1_555
N4_3 C6_3 1_555 1_555
H30_3 C25_3 1_555 1_555
C35_2 C36_2 1_555 1_555
C36_2 H38_3 1_555 1_555
H39_2 C36_2 1_555 1_555
H40_3 C36_2 1_555 1_555
C38_2 C35_2 1_555 1_555
H44_3 C38_2 1_555 1_555
H46_2 C38_2 1_555 1_555
N11_3 Ag4 1_555 1_555
C25_3 N11_3 1_555 1_555
C1_3 N1_3 1_555 1_555
C2_3 H1_3 1_555 1_555
H2_3 C2_3 1_555 1_555
C3_3 H3_3 1_555 1_555
C10_3 C7_3 1_555 1_555
C11_3 H10_3 1_555 1_555
C12_3 C11_3 1_555 1_555
C13_3 C12_3 1_555 1_555
H11_3 C13_3 1_555 1_555
C14_3 C10_3 1_555 1_555
H12_3 C14_3 1_555 1_555
C15_3 C12_3 1_555 1_555
H13_3 C15_3 1_555 1_555
H14_3 C15_3 1_555 1_555
H18_2 C18_2 1_555 1_555
H19_2 C18_2 1_555 1_555
H20_2 C18_2 1_555 1_555
N1_3 C2_3 1_555 1_555
N8 C2_3 1_555 1_555
N3_3 C1_3 1_555 1_555
O1_3 C1_3 1_555 1_555
C23_3 N3_3 1_555 1_555
H28_3 C23_3 1_555 1_555
H29_3 C23_3 1_555 1_555
C24_3 C23_3 1_555 1_555
C28_3 C24_3 1_555 1_555
H32_3 C28_3 1_555 1_555
C3_3 N8 1_555 1_555
C3_3 N3_3 1_555 1_555
C10_3 N5_3 1_555 1_555
C11_3 N5_3 1_555 1_555
C13_3 C14_3 1_555 1_555
C15_3 N1_3 1_555 1_555
C1_4 N1_4 1_555 1_555
C2_4 H1_4 1_555 1_555
H2_4 C2_4 1_555 1_555
C3_4 H3_4 1_555 1_555
C10_4 C7_4 1_555 1_555
C11_4 H10_4 1_555 1_555
C12_4 C11_4 1_555 1_555
C13_4 C12_4 1_555 1_555
H11_4 C13_4 1_555 1_555
C14_4 C10_4 1_555 1_555
H12_4 C14_4 1_555 1_555
C15_4 C12_4 1_555 1_555
H13_4 C15_4 1_555 1_555
H14_4 C15_4 1_555 1_555
H18_3 C18_3 1_555 1_555
H19_3 C18_3 1_555 1_555
H20_3 C18_3 1_555 1_555
N1_4 C2_4 1_555 1_555
N8_2 C2_4 1_555 1_555
N3_4 C1_4 1_555 1_555
O1_4 C1_4 1_555 1_555
C23_4 N3_4 1_555 1_555
H28_4 C23_4 1_555 1_555
H29_4 C23_4 1_555 1_555
C24_4 C23_4 1_555 1_555
C28_4 C24_4 1_555 1_555
H32_4 C28_4 1_555 1_555
C3_4 N8_2 1_555 1_555
C3_4 N3_4 1_555 1_555
C10_4 N5_4 1_555 1_555
C11_4 N5_4 1_555 1_555
C13_4 C14_4 1_555 1_555
C15_4 N1_4 1_555 1_555
Ag3 N4_4 1_555 1_555
H7_4 C6_4 1_555 1_555
C16_3 C17_3 1_555 1_555
C17_3 H15_4 1_555 1_555
H16_3 C17_3 1_555 1_555
H17_4 C17_3 1_555 1_555
C19_3 C16_3 1_555 1_555
H21_4 C19_3 1_555 1_555
H23_3 C19_3 1_555 1_555
N4_4 C6_4 1_555 1_555
H30_4 C25_4 1_555 1_555
C35_3 C36_3 1_555 1_555
C36_3 H38_4 1_555 1_555
H39_3 C36_3 1_555 1_555
H40_4 C36_3 1_555 1_555
C38_3 C35_3 1_555 1_555
H44_4 C38_3 1_555 1_555
H46_3 C38_3 1_555 1_555
N11_4 Ag4_2 1_555 1_555
C25_4 N11_4 1_555 1_555
C4_4 H5_4 1_555 1_555
H6_4 C4_4 1_555 1_555
C5_4 C4_4 1_555 1_555
C9_4 C5_4 1_555 1_555
H9_4 C9_4 1_555 1_555
C20_4 N6_4 1_555 1_555
C21_4 H24_4 1_555 1_555
H25_4 C21_4 1_555 1_555
C22_4 H26_4 1_555 1_555
C29_4 C26_4 1_555 1_555
C30_4 H33_4 1_555 1_555
C31_4 C30_4 1_555 1_555
C32_4 C31_4 1_555 1_555
H34_4 C32_4 1_555 1_555
C33_4 C29_4 1_555 1_555
H35_4 C33_4 1_555 1_555
C34_4 C31_4 1_555 1_555
H36_4 C34_4 1_555 1_555
H37_4 C34_4 1_555 1_555
H41_3 C37_3 1_555 1_555
H42_3 C37_3 1_555 1_555
H43_3 C37_3 1_555 1_555
N6_4 C21_4 1_555 1_555
N9 C21_4 1_555 1_555
N10_4 C4_4 1_555 1_555
O2_4 C20_4 1_555 1_555
C20_4 N10_4 1_555 1_555
C22_4 N9 1_555 1_555
C22_4 N10_4 1_555 1_555
C29_4 N12_4 1_555 1_555
C30_4 N12_4 1_555 1_555
C32_4 C33_4 1_555 1_555
C34_4 N6_4 1_555 1_555
C16_4 C17_4 1_555 1_555
H16_4 C17_4 1_555 1_555
C18_4 C16_4 1_555 1_555
H18_4 C18_4 1_555 1_555
H19_4 C18_4 1_555 1_555
H20_4 C18_4 1_555 1_555
C19_4 C16_4 1_555 1_555
H22_4 C19_4 1_555 1_555
H23_4 C19_4 1_555 1_555
C35_4 C36_4 1_555 1_555
H39_4 C36_4 1_555 1_555
C37_4 C35_4 1_555 1_555
H41_4 C37_4 1_555 1_555
H42_4 C37_4 1_555 1_555
H43_4 C37_4 1_555 1_555
C38_4 C35_4 1_555 1_555
H45_4 C38_4 1_555 1_555
H46_4 C38_4 1_555 1_555
C8_3 H8_3 1_555 1_555
C27_3 H31_3 1_555 1_555
C8_4 H8_4 1_555 1_555
C27_4 H31_4 1_555 1_555

#END
