
###############################################################################
#
# This file contains modified crystal structure data generated from the
# MOF subset of the Cambridge Structural Database (CSD) v543 
# hosted by the Cambridge Crystallographic Data Centre (CCDC).
#
# This work is licensed under the Creative Commons
# Attribution-NonCommercial-ShareAlike 4.0 International License.
# To view a copy of this license, visit
# http://creativecommons.org/licenses/by-nc-sa/4.0/
# or send a letter to
# Creative Commons, PO Box 1866, Mountain View, CA 94042, USA.
#
# CIF created using the CSD Python API on 29 September 2022
# The structure has been converted into the P1 space group
# The structure has a 3D framework
# The original CSD entry LUXDUE is in the cubic crystal system
# The framework has been calculated to contain at least 10.0% void space
# The void calculation uses a probe of radius 1.32A, grid spacing 0.4
# The framework is charged, counterions have been retained in the structure
# H atom positions have been added when not included in the experimental data
# Generated hydrogen atom positions removed from atoms on special positions
#
###############################################################################

data_LUXDUE
_chemical_formula_moiety         '(C296 H648 N192 O232 Zn42 15+)n'
_symmetry_cell_setting           triclinic
_symmetry_space_group_name_H-M   'P 1'
_symmetry_Int_Tables_number      1
_space_group_name_Hall           'P 1'
loop_
_symmetry_equiv_pos_site_id
_symmetry_equiv_pos_as_xyz
1 x,y,z
_cell_length_a                   25.976(5)
_cell_length_b                   25.976(5)
_cell_length_c                   25.976(5)
_cell_angle_alpha                90
_cell_angle_beta                 90
_cell_angle_gamma                90
_cell_volume                     17527.4
loop_
_atom_site_label
_atom_site_type_symbol
_atom_site_fract_x
_atom_site_fract_y
_atom_site_fract_z
O10 O 0.2990(3) 0.6512(3) 0.1116(2)
O14 O 0.2990(3) 0.3488(3) 0.1116(2)
O26 O 0.2010(3) 0.8488(3) 0.1116(2)
O29 O 0.3488(3) 0.6116(2) 0.2010(3)
O30 O 0.3884(2) 0.7010(3) 0.1512(3)
O33 O 0.3488(3) 0.3884(2) 0.2010(3)
O34 O 0.3884(2) 0.2990(3) 0.1512(3)
Zn7 Zn 0.37885(3) 0.62115(3) 0.12115(3)
Zn9 Zn 0.37885(3) 0.37885(3) 0.12115(3)
Zn17 Zn 0.12115(3) 0.87885(3) 0.12115(3)
Zn19 Zn 0.2500 0.7500 0.0000
Zn21 Zn 0.2500 0.2500 0.0000
N8 N 0.3717(3) 0.6311(3) 0.0430(3)
N12 N 0.3717(3) 0.3689(3) 0.0430(3)
N24 N 0.1283(3) 0.8689(3) 0.0430(3)
N27 N 0.3689(3) 0.5430(3) 0.1283(3)
N28 N 0.4570(3) 0.6283(3) 0.1311(3)
N31 N 0.3689(3) 0.4570(3) 0.1283(3)
N32 N 0.4570(3) 0.3717(3) 0.1311(3)
C6 C 0.3977(5) 0.6210 0.0000(5)
C8 C 0.3977(5) 0.3790 0.0000(5)
C14 C 0.1023(5) 0.8790 0.0000(5)
H4 H 0.4319 0.6078 0.0000
H6 H 0.4319 0.3922 0.0000
H12 H 0.0681 0.8922 0.0000
C21 C 0.3260(3) 0.6516(3) 0.0266(4)
C25 C 0.3260(3) 0.3484(3) 0.0266(4)
C37 C 0.1740(3) 0.8484(3) 0.0266(4)
C44 C 0.2902(4) 0.6656(4) 0.0675(4)
C48 C 0.2902(4) 0.3344(4) 0.0675(4)
C60 C 0.2098(4) 0.8344(4) 0.0675(4)
O41 O 0.2526(4) 0.6923(3) 0.0552(3)
O45 O 0.2526(4) 0.3077(3) 0.0552(3)
O57 O 0.2474(4) 0.8077(3) 0.0552(3)
O61 O 0.2474(4) 0.1923(3) 0.0552(3)
O67 O 0.3287(7) 0.7664(7) 0.0000
O68 O 0.1713(7) 0.7336(7) 0.0000
O71 O 0.3287(7) 0.2336(7) 0.0000
O72 O 0.1713(7) 0.2664(7) 0.0000
O1 O 0.3488(3) 0.6116(2) 0.7990(3)
Zn1 Zn 0.37885(3) 0.62115(3) 0.87885(3)
Zn2 Zn 0.2500 0.5000 0.7500
N1 N 0.3689(3) 0.5430(3) 0.8717(3)
C1 C 0.3790 0.5000(5) 0.8977(5)
H1 H 0.3922 0.5000 0.9319
C2 C 0.3484(3) 0.5266(4) 0.8260(3)
C3 C 0.3344(4) 0.5675(4) 0.7902(4)
O2 O 0.3077(3) 0.5552(3) 0.7526(4)
O3 O 0.2336(7) 0.5000 0.8287(7)
O4 O 0.3488(3) 0.3884(2) 0.7990(3)
O5 O 0.1512(3) 0.6116(2) 0.7010(3)
O6 O 0.1512(3) 0.3884(2) 0.7010(3)
O7 O 0.3884(2) 0.7010(3) 0.8488(3)
O8 O 0.6116(2) 0.7010(3) 0.8488(3)
O9 O 0.2990(3) 0.6512(3) 0.8884(2)
O11 O 0.3884(2) 0.2990(3) 0.8488(3)
O12 O 0.6116(2) 0.2990(3) 0.8488(3)
O13 O 0.2990(3) 0.3488(3) 0.8884(2)
O15 O 0.1116(2) 0.7010(3) 0.6512(3)
O17 O 0.2010(3) 0.6512(3) 0.6116(2)
O18 O 0.2010(3) 0.6512(3) 0.3884(2)
O19 O 0.1116(2) 0.2990(3) 0.6512(3)
O21 O 0.2010(3) 0.3488(3) 0.6116(2)
O22 O 0.2010(3) 0.3488(3) 0.3884(2)
O23 O 0.3884(2) 0.7990(3) 0.6512(3)
O24 O 0.6116(2) 0.7990(3) 0.6512(3)
O25 O 0.2010(3) 0.8488(3) 0.8884(2)
O27 O 0.7010(3) 0.6512(3) 0.8884(2)
O28 O 0.6512(3) 0.6116(2) 0.7990(3)
O31 O 0.7010(3) 0.3488(3) 0.8884(2)
O32 O 0.6512(3) 0.3884(2) 0.7990(3)
Zn3 Zn 0.37885(3) 0.37885(3) 0.87885(3)
Zn4 Zn 0.12115(3) 0.62115(3) 0.62115(3)
Zn5 Zn 0.12115(3) 0.37885(3) 0.62115(3)
Zn6 Zn 0.62115(3) 0.62115(3) 0.87885(3)
Zn8 Zn 0.62115(3) 0.37885(3) 0.87885(3)
Zn11 Zn 0.12115(3) 0.62115(3) 0.37885(3)
Zn13 Zn 0.12115(3) 0.37885(3) 0.37885(3)
Zn14 Zn 0.37885(3) 0.87885(3) 0.62115(3)
Zn15 Zn 0.62115(3) 0.87885(3) 0.62115(3)
Zn16 Zn 0.12115(3) 0.87885(3) 0.87885(3)
Zn18 Zn 0.5000 0.7500 0.7500
Zn19_2 Zn 0.2500 0.7500 1.0000
Zn20 Zn 0.5000 0.2500 0.7500
Zn21_2 Zn 0.2500 0.2500 1.0000
Zn22 Zn -0.0000 0.7500 0.7500
Zn23 Zn 0.2500 0.7500 0.5000
Zn24 Zn -0.0000 0.2500 0.7500
Zn25 Zn 0.2500 0.2500 0.5000
N2 N 0.3689(3) 0.4570(3) 0.8717(3)
N3 N 0.1311(3) 0.5430(3) 0.6283(3)
N4 N 0.1311(3) 0.4570(3) 0.6283(3)
N5 N 0.4570(3) 0.6283(3) 0.8689(3)
N6 N 0.5430(3) 0.6283(3) 0.8689(3)
N7 N 0.3717(3) 0.6311(3) 0.9570(3)
N9 N 0.4570(3) 0.3717(3) 0.8689(3)
N10 N 0.5430(3) 0.3717(3) 0.8689(3)
N11 N 0.3717(3) 0.3689(3) 0.9570(3)
N13 N 0.0430(3) 0.6283(3) 0.6311(3)
N15 N 0.1283(3) 0.6311(3) 0.5430(3)
N16 N 0.1283(3) 0.6311(3) 0.4570(3)
N17 N 0.0430(3) 0.3717(3) 0.6311(3)
N19 N 0.1283(3) 0.3689(3) 0.5430(3)
N20 N 0.1283(3) 0.3689(3) 0.4570(3)
N21 N 0.4570(3) 0.8717(3) 0.6311(3)
N22 N 0.5430(3) 0.8717(3) 0.6311(3)
N23 N 0.1283(3) 0.8689(3) 0.9570(3)
N25 N 0.6283(3) 0.6311(3) 0.9570(3)
N26 N 0.6311(3) 0.5430(3) 0.8717(3)
N29 N 0.6283(3) 0.3689(3) 0.9570(3)
N30 N 0.6311(3) 0.4570(3) 0.8717(3)
C4 C 0.1210 0.5000(5) 0.6023(5)
C5 C 0.5000(5) 0.6023(5) 0.8790
C6_2 C 0.3977(5) 0.6210 1.0000(5)
C7 C 0.5000(5) 0.3977(5) 0.8790
C8_2 C 0.3977(5) 0.3790 1.0000(5)
C9 C -0.0000(5) 0.6023(5) 0.6210
C10 C 0.1023(5) 0.6210 0.5000(5)
C11 C -0.0000(5) 0.3977(5) 0.6210
C12 C 0.1023(5) 0.3790 0.5000(5)
C13 C 0.5000(5) 0.8977(5) 0.6210
C14_2 C 0.1023(5) 0.8790 1.0000(5)
H2 H 0.1078 0.5000 0.5681
H3 H 0.5000 0.5681 0.8922
H4_2 H 0.4319 0.6078 1.0000
H5 H 0.5000 0.4319 0.8922
H6_2 H 0.4319 0.3922 1.0000
H7 H -0.0000 0.5681 0.6078
H8 H 0.0681 0.6078 0.5000
H9 H -0.0000 0.4319 0.6078
H10 H 0.0681 0.3922 0.5000
H11 H 0.5000 0.9319 0.6078
H12_2 H 0.0681 0.8922 1.0000
C15 C 0.3484(3) 0.4734(4) 0.8260(3)
C16 C 0.1516(3) 0.5266(4) 0.6740(3)
C17 C 0.1516(3) 0.4734(4) 0.6740(3)
C18 C 0.4734(4) 0.6740(3) 0.8484(3)
C19 C 0.5266(4) 0.6740(3) 0.8484(3)
C20 C 0.3260(3) 0.6516(3) 0.9734(4)
C22 C 0.4734(4) 0.3260(3) 0.8484(3)
C23 C 0.5266(4) 0.3260(3) 0.8484(3)
C24 C 0.3260(3) 0.3484(3) 0.9734(4)
C26 C 0.0266(4) 0.6740(3) 0.6516(3)
C28 C 0.1740(3) 0.6516(3) 0.5266(4)
C29 C 0.1740(3) 0.6516(3) 0.4734(4)
C30 C 0.0266(4) 0.3260(3) 0.6516(3)
C32 C 0.1740(3) 0.3484(3) 0.5266(4)
C33 C 0.1740(3) 0.3484(3) 0.4734(4)
C34 C 0.4734(4) 0.8260(3) 0.6516(3)
C35 C 0.5266(4) 0.8260(3) 0.6516(3)
C36 C 0.1740(3) 0.8484(3) 0.9734(4)
C38 C 0.3344(4) 0.4325(4) 0.7902(4)
C39 C 0.1656(4) 0.5675(4) 0.7098(4)
C40 C 0.1656(4) 0.4325(4) 0.7098(4)
C41 C 0.4325(4) 0.7098(4) 0.8344(4)
C42 C 0.5675(4) 0.7098(4) 0.8344(4)
C43 C 0.2902(4) 0.6656(4) 0.9325(4)
C45 C 0.4325(4) 0.2902(4) 0.8344(4)
C46 C 0.5675(4) 0.2902(4) 0.8344(4)
C47 C 0.2902(4) 0.3344(4) 0.9325(4)
C49 C 0.0675(4) 0.7098(4) 0.6656(4)
C51 C 0.2098(4) 0.6656(4) 0.5675(4)
C52 C 0.2098(4) 0.6656(4) 0.4325(4)
C53 C 0.0675(4) 0.2902(4) 0.6656(4)
C55 C 0.2098(4) 0.3344(4) 0.5675(4)
C56 C 0.2098(4) 0.3344(4) 0.4325(4)
C57 C 0.4325(4) 0.7902(4) 0.6656(4)
C58 C 0.5675(4) 0.7902(4) 0.6656(4)
C59 C 0.2098(4) 0.8344(4) 0.9325(4)
O35 O 0.3077(3) 0.4448(3) 0.7526(4)
O36 O 0.1923(3) 0.5552(3) 0.7474(4)
O37 O 0.1923(3) 0.4448(3) 0.7474(4)
O38 O 0.4448(3) 0.7474(4) 0.8077(3)
O39 O 0.5552(3) 0.7474(4) 0.8077(3)
O40 O 0.2526(4) 0.6923(3) 0.9448(3)
O42 O 0.4448(3) 0.2526(4) 0.8077(3)
O43 O 0.5552(3) 0.2526(4) 0.8077(3)
O44 O 0.2526(4) 0.3077(3) 0.9448(3)
O46 O 0.0552(3) 0.7474(4) 0.6923(3)
O48 O 0.2474(4) 0.6923(3) 0.5552(3)
O49 O 0.2474(4) 0.6923(3) 0.4448(3)
O50 O 0.0552(3) 0.2526(4) 0.6923(3)
O52 O 0.2474(4) 0.3077(3) 0.5552(3)
O53 O 0.2474(4) 0.3077(3) 0.4448(3)
O54 O 0.4448(3) 0.7526(4) 0.6923(3)
O55 O 0.5552(3) 0.7526(4) 0.6923(3)
O56 O 0.2474(4) 0.8077(3) 0.9448(3)
O58 O 0.4448(3) 0.2474(4) 0.6923(3)
O59 O 0.5552(3) 0.2474(4) 0.6923(3)
O60 O 0.2474(4) 0.1923(3) 0.9448(3)
O62 O 0.0552(3) 0.7526(4) 0.8077(3)
O64 O 0.2664(7) 0.5000 0.6713(7)
O65 O 0.5000 0.6713(7) 0.7336(7)
O66 O 0.5000 0.8287(7) 0.7664(7)
O67_2 O 0.3287(7) 0.7664(7) 1.0000
O68_2 O 0.1713(7) 0.7336(7) 1.0000
O69 O 0.5000 0.3287(7) 0.7336(7)
O70 O 0.5000 0.1713(7) 0.7664(7)
O71_2 O 0.3287(7) 0.2336(7) 1.0000
O72_2 O 0.1713(7) 0.2664(7) 1.0000
O73 O -0.0000 0.6713(7) 0.7664(7)
O74 O -0.0000 0.8287(7) 0.7336(7)
O16 O 0.8884(2) 0.7010(3) 0.6512(3)
O20 O 0.8884(2) 0.2990(3) 0.6512(3)
Zn10 Zn 0.87885(3) 0.62115(3) 0.62115(3)
Zn12 Zn 0.87885(3) 0.37885(3) 0.62115(3)
Zn22_2 Zn 1.0000 0.7500 0.7500
Zn24_2 Zn 1.0000 0.2500 0.7500
N14 N 0.9570(3) 0.6283(3) 0.6311(3)
N18 N 0.9570(3) 0.3717(3) 0.6311(3)
C9_2 C 1.0000(5) 0.6023(5) 0.6210
C11_2 C 1.0000(5) 0.3977(5) 0.6210
H7_2 H 1.0000 0.5681 0.6078
H9_2 H 1.0000 0.4319 0.6078
C27 C 0.9734(4) 0.6740(3) 0.6516(3)
C31 C 0.9734(4) 0.3260(3) 0.6516(3)
C50 C 0.9325(4) 0.7098(4) 0.6656(4)
C54 C 0.9325(4) 0.2902(4) 0.6656(4)
O47 O 0.9448(3) 0.7474(4) 0.6923(3)
O51 O 0.9448(3) 0.2526(4) 0.6923(3)
O63 O 0.9448(3) 0.7526(4) 0.8077(3)
O73_2 O 1.0000 0.6713(7) 0.7664(7)
O74_2 O 1.0000 0.8287(7) 0.7336(7)
O63_2 O 0.0552(3) 0.2474(4) 0.8077(3)
O73_3 O 0.0000 0.3287(7) 0.7664(7)
O74_3 O 0.0000 0.1713(7) 0.7336(7)
O10_2 O 0.7010(3) 0.3488(3) 0.1116(2)
O14_2 O 0.7010(3) 0.6512(3) 0.1116(2)
O26_2 O 0.7990(3) 0.1512(3) 0.1116(2)
O29_2 O 0.6512(3) 0.3884(2) 0.2010(3)
O30_2 O 0.6116(2) 0.2990(3) 0.1512(3)
O33_2 O 0.6512(3) 0.6116(2) 0.2010(3)
O34_2 O 0.6116(2) 0.7010(3) 0.1512(3)
Zn7_2 Zn 0.62115(3) 0.37885(3) 0.12115(3)
Zn9_2 Zn 0.62115(3) 0.62115(3) 0.12115(3)
Zn17_2 Zn 0.87885(3) 0.12115(3) 0.12115(3)
Zn19_3 Zn 0.7500 0.2500 0.0000
Zn21_3 Zn 0.7500 0.7500 0.0000
N8_2 N 0.6283(3) 0.3689(3) 0.0430(3)
N12_2 N 0.6283(3) 0.6311(3) 0.0430(3)
N24_2 N 0.8717(3) 0.1311(3) 0.0430(3)
N27_2 N 0.6311(3) 0.4570(3) 0.1283(3)
N28_2 N 0.5430(3) 0.3717(3) 0.1311(3)
N31_2 N 0.6311(3) 0.5430(3) 0.1283(3)
N32_2 N 0.5430(3) 0.6283(3) 0.1311(3)
C6_3 C 0.6023(5) 0.3790 0.0000(5)
C8_3 C 0.6023(5) 0.6210 0.0000(5)
C14_3 C 0.8977(5) 0.1210 0.0000(5)
H4_3 H 0.5681 0.3922 0.0000
H6_3 H 0.5681 0.6078 0.0000
H12_3 H 0.9319 0.1078 0.0000
C21_2 C 0.6740(3) 0.3484(3) 0.0266(4)
C25_2 C 0.6740(3) 0.6516(3) 0.0266(4)
C37_2 C 0.8260(3) 0.1516(3) 0.0266(4)
C44_2 C 0.7098(4) 0.3344(4) 0.0675(4)
C48_2 C 0.7098(4) 0.6656(4) 0.0675(4)
C60_2 C 0.7902(4) 0.1656(4) 0.0675(4)
O41_2 O 0.7474(4) 0.3077(3) 0.0552(3)
O45_2 O 0.7474(4) 0.6923(3) 0.0552(3)
O57_2 O 0.7526(4) 0.1923(3) 0.0552(3)
O61_2 O 0.7526(4) 0.8077(3) 0.0552(3)
O67_3 O 0.6713(7) 0.2336(7) 0.0000
O68_3 O 0.8287(7) 0.2664(7) 0.0000
O71_3 O 0.6713(7) 0.7664(7) 0.0000
O72_3 O 0.8287(7) 0.7336(7) 0.0000
Zn2_2 Zn 0.7500 0.5000 0.7500
C1_2 C 0.6210 0.5000(5) 0.8977(5)
H1_2 H 0.6078 0.5000 0.9319
C2_2 C 0.6516(3) 0.4734(4) 0.8260(3)
C3_2 C 0.6656(4) 0.4325(4) 0.7902(4)
O2_2 O 0.6923(3) 0.4448(3) 0.7526(4)
O3_2 O 0.7664(7) 0.5000 0.8287(7)
O5_2 O 0.8488(3) 0.3884(2) 0.7010(3)
O6_2 O 0.8488(3) 0.6116(2) 0.7010(3)
O17_2 O 0.7990(3) 0.3488(3) 0.6116(2)
O18_2 O 0.7990(3) 0.3488(3) 0.3884(2)
O21_2 O 0.7990(3) 0.6512(3) 0.6116(2)
O22_2 O 0.7990(3) 0.6512(3) 0.3884(2)
O23_2 O 0.6116(2) 0.2010(3) 0.6512(3)
O24_2 O 0.3884(2) 0.2010(3) 0.6512(3)
O25_2 O 0.7990(3) 0.1512(3) 0.8884(2)
Zn11_2 Zn 0.87885(3) 0.37885(3) 0.37885(3)
Zn13_2 Zn 0.87885(3) 0.62115(3) 0.37885(3)
Zn14_2 Zn 0.62115(3) 0.12115(3) 0.62115(3)
Zn15_2 Zn 0.37885(3) 0.12115(3) 0.62115(3)
Zn16_2 Zn 0.87885(3) 0.12115(3) 0.87885(3)
Zn19_4 Zn 0.7500 0.2500 1.0000
Zn21_4 Zn 0.7500 0.7500 1.0000
Zn23_2 Zn 0.7500 0.2500 0.5000
Zn25_2 Zn 0.7500 0.7500 0.5000
N3_2 N 0.8689(3) 0.4570(3) 0.6283(3)
N4_2 N 0.8689(3) 0.5430(3) 0.6283(3)
N15_2 N 0.8717(3) 0.3689(3) 0.5430(3)
N16_2 N 0.8717(3) 0.3689(3) 0.4570(3)
N19_2 N 0.8717(3) 0.6311(3) 0.5430(3)
N20_2 N 0.8717(3) 0.6311(3) 0.4570(3)
N21_2 N 0.5430(3) 0.1283(3) 0.6311(3)
N22_2 N 0.4570(3) 0.1283(3) 0.6311(3)
N23_2 N 0.8717(3) 0.1311(3) 0.9570(3)
C4_2 C 0.8790 0.5000(5) 0.6023(5)
C6_4 C 0.6023(5) 0.3790 1.0000(5)
C8_4 C 0.6023(5) 0.6210 1.0000(5)
C10_2 C 0.8977(5) 0.3790 0.5000(5)
C12_2 C 0.8977(5) 0.6210 0.5000(5)
C13_2 C 0.5000(5) 0.1023(5) 0.6210
C14_4 C 0.8977(5) 0.1210 1.0000(5)
H2_2 H 0.8922 0.5000 0.5681
H4_4 H 0.5681 0.3922 1.0000
H6_4 H 0.5681 0.6078 1.0000
H8_2 H 0.9319 0.3922 0.5000
H10_2 H 0.9319 0.6078 0.5000
H11_2 H 0.5000 0.0681 0.6078
H12_4 H 0.9319 0.1078 1.0000
C15_2 C 0.6516(3) 0.5266(4) 0.8260(3)
C16_2 C 0.8484(3) 0.4734(4) 0.6740(3)
C17_2 C 0.8484(3) 0.5266(4) 0.6740(3)
C20_2 C 0.6740(3) 0.3484(3) 0.9734(4)
C24_2 C 0.6740(3) 0.6516(3) 0.9734(4)
C28_2 C 0.8260(3) 0.3484(3) 0.5266(4)
C29_2 C 0.8260(3) 0.3484(3) 0.4734(4)
C32_2 C 0.8260(3) 0.6516(3) 0.5266(4)
C33_2 C 0.8260(3) 0.6516(3) 0.4734(4)
C34_2 C 0.5266(4) 0.1740(3) 0.6516(3)
C35_2 C 0.4734(4) 0.1740(3) 0.6516(3)
C36_2 C 0.8260(3) 0.1516(3) 0.9734(4)
C38_2 C 0.6656(4) 0.5675(4) 0.7902(4)
C39_2 C 0.8344(4) 0.4325(4) 0.7098(4)
C40_2 C 0.8344(4) 0.5675(4) 0.7098(4)
C43_2 C 0.7098(4) 0.3344(4) 0.9325(4)
C47_2 C 0.7098(4) 0.6656(4) 0.9325(4)
C51_2 C 0.7902(4) 0.3344(4) 0.5675(4)
C52_2 C 0.7902(4) 0.3344(4) 0.4325(4)
C55_2 C 0.7902(4) 0.6656(4) 0.5675(4)
C56_2 C 0.7902(4) 0.6656(4) 0.4325(4)
C57_2 C 0.5675(4) 0.2098(4) 0.6656(4)
C58_2 C 0.4325(4) 0.2098(4) 0.6656(4)
C59_2 C 0.7902(4) 0.1656(4) 0.9325(4)
O35_2 O 0.6923(3) 0.5552(3) 0.7526(4)
O36_2 O 0.8077(3) 0.4448(3) 0.7474(4)
O37_2 O 0.8077(3) 0.5552(3) 0.7474(4)
O40_2 O 0.7474(4) 0.3077(3) 0.9448(3)
O44_2 O 0.7474(4) 0.6923(3) 0.9448(3)
O48_2 O 0.7526(4) 0.3077(3) 0.5552(3)
O49_2 O 0.7526(4) 0.3077(3) 0.4448(3)
O52_2 O 0.7526(4) 0.6923(3) 0.5552(3)
O53_2 O 0.7526(4) 0.6923(3) 0.4448(3)
O56_2 O 0.7526(4) 0.1923(3) 0.9448(3)
O60_2 O 0.7526(4) 0.8077(3) 0.9448(3)
O62_2 O 0.9448(3) 0.2474(4) 0.8077(3)
O64_2 O 0.7336(7) 0.5000 0.6713(7)
O67_4 O 0.6713(7) 0.2336(7) 1.0000
O68_4 O 0.8287(7) 0.2664(7) 1.0000
O71_4 O 0.6713(7) 0.7664(7) 1.0000
O72_4 O 0.8287(7) 0.7336(7) 1.0000
O73_4 O 1.0000 0.3287(7) 0.7664(7)
O74_4 O 1.0000 0.1713(7) 0.7336(7)
O16_2 O 0.1116(2) 0.7010(3) 0.3488(3)
O20_2 O 0.1116(2) 0.2990(3) 0.3488(3)
Zn22_3 Zn 0.0000 0.7500 0.2500
Zn24_3 Zn 0.0000 0.2500 0.2500
N14_2 N 0.0430(3) 0.6283(3) 0.3689(3)
N18_2 N 0.0430(3) 0.3717(3) 0.3689(3)
C9_3 C 0.0000(5) 0.6023(5) 0.3790
C11_3 C 0.0000(5) 0.3977(5) 0.3790
H7_3 H 0.0000 0.5681 0.3922
H9_3 H 0.0000 0.4319 0.3922
C27_2 C 0.0266(4) 0.6740(3) 0.3484(3)
C31_2 C 0.0266(4) 0.3260(3) 0.3484(3)
C50_2 C 0.0675(4) 0.7098(4) 0.3344(4)
C54_2 C 0.0675(4) 0.2902(4) 0.3344(4)
O47_2 O 0.0552(3) 0.7474(4) 0.3077(3)
O51_2 O 0.0552(3) 0.2526(4) 0.3077(3)
O63_3 O 0.0552(3) 0.7526(4) 0.1923(3)
O73_5 O 0.0000 0.6713(7) 0.2336(7)
O74_5 O 0.0000 0.8287(7) 0.2664(7)
Zn2_3 Zn 0.7500 0.5000 0.2500
C1_3 C 0.6210 0.5000(5) 0.1023(5)
H1_3 H 0.6078 0.5000 0.0681
C2_3 C 0.6516(3) 0.5266(4) 0.1740(3)
C3_3 C 0.6656(4) 0.5675(4) 0.2098(4)
O2_3 O 0.6923(3) 0.5552(3) 0.2474(4)
O3_3 O 0.7664(7) 0.5000 0.1713(7)
O5_3 O 0.8488(3) 0.6116(2) 0.2990(3)
O6_3 O 0.8488(3) 0.3884(2) 0.2990(3)
O15_2 O 0.8884(2) 0.7010(3) 0.3488(3)
O19_2 O 0.8884(2) 0.2990(3) 0.3488(3)
O23_3 O 0.6116(2) 0.7990(3) 0.3488(3)
O24_3 O 0.3884(2) 0.7990(3) 0.3488(3)
O25_3 O 0.7990(3) 0.8488(3) 0.1116(2)
Zn14_3 Zn 0.62115(3) 0.87885(3) 0.37885(3)
Zn15_3 Zn 0.37885(3) 0.87885(3) 0.37885(3)
Zn16_3 Zn 0.87885(3) 0.87885(3) 0.12115(3)
Zn18_2 Zn 0.5000 0.7500 0.2500
Zn20_2 Zn 0.5000 0.2500 0.2500
Zn22_4 Zn 1.0000 0.7500 0.2500
Zn24_4 Zn 1.0000 0.2500 0.2500
N3_3 N 0.8689(3) 0.5430(3) 0.3717(3)
N4_3 N 0.8689(3) 0.4570(3) 0.3717(3)
N13_2 N 0.9570(3) 0.6283(3) 0.3689(3)
N17_2 N 0.9570(3) 0.3717(3) 0.3689(3)
N21_3 N 0.5430(3) 0.8717(3) 0.3689(3)
N22_3 N 0.4570(3) 0.8717(3) 0.3689(3)
N23_3 N 0.8717(3) 0.8689(3) 0.0430(3)
C4_3 C 0.8790 0.5000(5) 0.3977(5)
C5_2 C 0.5000(5) 0.6023(5) 0.1210
C7_2 C 0.5000(5) 0.3977(5) 0.1210
C9_4 C 1.0000(5) 0.6023(5) 0.3790
C11_4 C 1.0000(5) 0.3977(5) 0.3790
C13_3 C 0.5000(5) 0.8977(5) 0.3790
C14_5 C 0.8977(5) 0.8790 0.0000(5)
H2_3 H 0.8922 0.5000 0.4319
H3_2 H 0.5000 0.5681 0.1078
H5_2 H 0.5000 0.4319 0.1078
H7_4 H 1.0000 0.5681 0.3922
H9_4 H 1.0000 0.4319 0.3922
H11_3 H 0.5000 0.9319 0.3922
H12_5 H 0.9319 0.8922 0.0000
C15_3 C 0.6516(3) 0.4734(4) 0.1740(3)
C16_3 C 0.8484(3) 0.5266(4) 0.3260(3)
C17_3 C 0.8484(3) 0.4734(4) 0.3260(3)
C18_2 C 0.5266(4) 0.6740(3) 0.1516(3)
C19_2 C 0.4734(4) 0.6740(3) 0.1516(3)
C22_2 C 0.5266(4) 0.3260(3) 0.1516(3)
C23_2 C 0.4734(4) 0.3260(3) 0.1516(3)
C26_2 C 0.9734(4) 0.6740(3) 0.3484(3)
C30_2 C 0.9734(4) 0.3260(3) 0.3484(3)
C34_3 C 0.5266(4) 0.8260(3) 0.3484(3)
C35_3 C 0.4734(4) 0.8260(3) 0.3484(3)
C36_3 C 0.8260(3) 0.8484(3) 0.0266(4)
C38_3 C 0.6656(4) 0.4325(4) 0.2098(4)
C39_3 C 0.8344(4) 0.5675(4) 0.2902(4)
C40_3 C 0.8344(4) 0.4325(4) 0.2902(4)
C41_2 C 0.5675(4) 0.7098(4) 0.1656(4)
C42_2 C 0.4325(4) 0.7098(4) 0.1656(4)
C45_2 C 0.5675(4) 0.2902(4) 0.1656(4)
C46_2 C 0.4325(4) 0.2902(4) 0.1656(4)
C49_2 C 0.9325(4) 0.7098(4) 0.3344(4)
C53_2 C 0.9325(4) 0.2902(4) 0.3344(4)
C57_3 C 0.5675(4) 0.7902(4) 0.3344(4)
C58_3 C 0.4325(4) 0.7902(4) 0.3344(4)
C59_3 C 0.7902(4) 0.8344(4) 0.0675(4)
O35_3 O 0.6923(3) 0.4448(3) 0.2474(4)
O36_3 O 0.8077(3) 0.5552(3) 0.2526(4)
O37_3 O 0.8077(3) 0.4448(3) 0.2526(4)
O38_2 O 0.5552(3) 0.7474(4) 0.1923(3)
O39_2 O 0.4448(3) 0.7474(4) 0.1923(3)
O42_2 O 0.5552(3) 0.2526(4) 0.1923(3)
O43_2 O 0.4448(3) 0.2526(4) 0.1923(3)
O46_2 O 0.9448(3) 0.7474(4) 0.3077(3)
O50_2 O 0.9448(3) 0.2526(4) 0.3077(3)
O54_2 O 0.5552(3) 0.7526(4) 0.3077(3)
O55_2 O 0.4448(3) 0.7526(4) 0.3077(3)
O58_2 O 0.5552(3) 0.2474(4) 0.3077(3)
O59_2 O 0.4448(3) 0.2474(4) 0.3077(3)
O62_3 O 0.9448(3) 0.7526(4) 0.1923(3)
O64_3 O 0.7336(7) 0.5000 0.3287(7)
O65_2 O 0.5000 0.6713(7) 0.2664(7)
O66_2 O 0.5000 0.8287(7) 0.2336(7)
O69_2 O 0.5000 0.3287(7) 0.2664(7)
O70_2 O 0.5000 0.1713(7) 0.2336(7)
O73_6 O 1.0000 0.6713(7) 0.2336(7)
O74_6 O 1.0000 0.8287(7) 0.2664(7)
O26_3 O 0.7990(3) 0.8488(3) 0.8884(2)
Zn17_3 Zn 0.87885(3) 0.87885(3) 0.87885(3)
N24_3 N 0.8717(3) 0.8689(3) 0.9570(3)
C14_6 C 0.8977(5) 0.8790 1.0000(5)
H12_6 H 0.9319 0.8922 1.0000
C37_3 C 0.8260(3) 0.8484(3) 0.9734(4)
C60_3 C 0.7902(4) 0.8344(4) 0.9325(4)
Zn2_4 Zn 0.2500 0.5000 0.2500
C1_4 C 0.3790 0.5000(5) 0.1023(5)
H1_4 H 0.3922 0.5000 0.0681
C2_4 C 0.3484(3) 0.4734(4) 0.1740(3)
C3_4 C 0.3344(4) 0.4325(4) 0.2098(4)
O2_4 O 0.3077(3) 0.4448(3) 0.2474(4)
O3_4 O 0.2336(7) 0.5000 0.1713(7)
O5_4 O 0.1512(3) 0.3884(2) 0.2990(3)
O6_4 O 0.1512(3) 0.6116(2) 0.2990(3)
O23_4 O 0.3884(2) 0.2010(3) 0.3488(3)
O24_4 O 0.6116(2) 0.2010(3) 0.3488(3)
O25_4 O 0.2010(3) 0.1512(3) 0.1116(2)
Zn14_4 Zn 0.37885(3) 0.12115(3) 0.37885(3)
Zn15_4 Zn 0.62115(3) 0.12115(3) 0.37885(3)
Zn16_4 Zn 0.12115(3) 0.12115(3) 0.12115(3)
N3_4 N 0.1311(3) 0.4570(3) 0.3717(3)
N4_4 N 0.1311(3) 0.5430(3) 0.3717(3)
N21_4 N 0.4570(3) 0.1283(3) 0.3689(3)
N22_4 N 0.5430(3) 0.1283(3) 0.3689(3)
N23_4 N 0.1283(3) 0.1311(3) 0.0430(3)
C4_4 C 0.1210 0.5000(5) 0.3977(5)
C13_4 C 0.5000(5) 0.1023(5) 0.3790
C14_7 C 0.1023(5) 0.1210 0.0000(5)
H2_4 H 0.1078 0.5000 0.4319
H11_4 H 0.5000 0.0681 0.3922
H12_7 H 0.0681 0.1078 0.0000
C15_4 C 0.3484(3) 0.5266(4) 0.1740(3)
C16_4 C 0.1516(3) 0.4734(4) 0.3260(3)
C17_4 C 0.1516(3) 0.5266(4) 0.3260(3)
C34_4 C 0.4734(4) 0.1740(3) 0.3484(3)
C35_4 C 0.5266(4) 0.1740(3) 0.3484(3)
C36_4 C 0.1740(3) 0.1516(3) 0.0266(4)
C38_4 C 0.3344(4) 0.5675(4) 0.2098(4)
C39_4 C 0.1656(4) 0.4325(4) 0.2902(4)
C40_4 C 0.1656(4) 0.5675(4) 0.2902(4)
C57_4 C 0.4325(4) 0.2098(4) 0.3344(4)
C58_4 C 0.5675(4) 0.2098(4) 0.3344(4)
C59_4 C 0.2098(4) 0.1656(4) 0.0675(4)
O35_4 O 0.3077(3) 0.5552(3) 0.2474(4)
O36_4 O 0.1923(3) 0.4448(3) 0.2526(4)
O37_4 O 0.1923(3) 0.5552(3) 0.2526(4)
O62_4 O 0.0552(3) 0.2474(4) 0.1923(3)
O64_4 O 0.2664(7) 0.5000 0.3287(7)
O73_7 O -0.0000 0.3287(7) 0.2336(7)
O74_7 O -0.0000 0.1713(7) 0.2664(7)
O26_4 O 0.2010(3) 0.1512(3) 0.8884(2)
Zn17_4 Zn 0.12115(3) 0.12115(3) 0.87885(3)
N24_4 N 0.1283(3) 0.1311(3) 0.9570(3)
C14_8 C 0.1023(5) 0.1210 1.0000(5)
H12_8 H 0.0681 0.1078 1.0000
C37_4 C 0.1740(3) 0.1516(3) 0.9734(4)
C60_4 C 0.2098(4) 0.1656(4) 0.9325(4)
O63_4 O 0.9448(3) 0.2474(4) 0.1923(3)
O73_8 O 1.0000 0.3287(7) 0.2336(7)
O74_8 O 1.0000 0.1713(7) 0.2664(7)
O26_5 O 0.1116(2) 0.2010(3) 0.8488(3)
N24_5 N 0.0430(3) 0.1283(3) 0.8689(3)
C14_9 C -0.0000(5) 0.1023(5) 0.8790
H12_9 H -0.0000 0.0681 0.8922
C37_5 C 0.0266(4) 0.1740(3) 0.8484(3)
C60_5 C 0.0675(4) 0.2098(4) 0.8344(4)
O3_5 O 0.8287(7) 0.2336(7) 0.5000
O5_5 O 0.7010(3) 0.1512(3) 0.6116(2)
O6_5 O 0.7010(3) 0.1512(3) 0.3884(2)
O15_3 O 0.6512(3) 0.1116(2) 0.7010(3)
O19_3 O 0.6512(3) 0.1116(2) 0.2990(3)
O25_5 O 0.8884(2) 0.2010(3) 0.8488(3)
Zn22_5 Zn 0.7500 -0.0000 0.7500
Zn24_5 Zn 0.7500 -0.0000 0.2500
N3_5 N 0.6283(3) 0.1311(3) 0.5430(3)
N4_5 N 0.6283(3) 0.1311(3) 0.4570(3)
N13_3 N 0.6311(3) 0.0430(3) 0.6283(3)
N17_3 N 0.6311(3) 0.0430(3) 0.3717(3)
N23_5 N 0.9570(3) 0.1283(3) 0.8689(3)
C4_5 C 0.6023(5) 0.1210 0.5000(5)
C9_5 C 0.6210 -0.0000(5) 0.6023(5)
C11_5 C 0.6210 -0.0000(5) 0.3977(5)
C14_10 C 1.0000(5) 0.1023(5) 0.8790
H2_5 H 0.5681 0.1078 0.5000
H7_5 H 0.6078 -0.0000 0.5681
H9_5 H 0.6078 -0.0000 0.4319
H12_10 H 1.0000 0.0681 0.8922
C16_5 C 0.6740(3) 0.1516(3) 0.5266(4)
C17_5 C 0.6740(3) 0.1516(3) 0.4734(4)
C26_3 C 0.6516(3) 0.0266(4) 0.6740(3)
C30_3 C 0.6516(3) 0.0266(4) 0.3260(3)
C36_5 C 0.9734(4) 0.1740(3) 0.8484(3)
C39_5 C 0.7098(4) 0.1656(4) 0.5675(4)
C40_5 C 0.7098(4) 0.1656(4) 0.4325(4)
C49_3 C 0.6656(4) 0.0675(4) 0.7098(4)
C53_3 C 0.6656(4) 0.0675(4) 0.2902(4)
C59_5 C 0.9325(4) 0.2098(4) 0.8344(4)
O36_5 O 0.7474(4) 0.1923(3) 0.5552(3)
O37_5 O 0.7474(4) 0.1923(3) 0.4448(3)
O46_3 O 0.6923(3) 0.0552(3) 0.7474(4)
O50_3 O 0.6923(3) 0.0552(3) 0.2526(4)
O62_5 O 0.8077(3) 0.0552(3) 0.7526(4)
O64_5 O 0.6713(7) 0.2664(7) 0.5000
O73_9 O 0.7664(7) -0.0000 0.6713(7)
O74_9 O 0.7336(7) -0.0000 0.8287(7)
O16_3 O 0.6512(3) 0.8884(2) 0.7010(3)
O20_3 O 0.6512(3) 0.8884(2) 0.2990(3)
Zn22_6 Zn 0.7500 1.0000 0.7500
Zn24_6 Zn 0.7500 1.0000 0.2500
N14_3 N 0.6311(3) 0.9570(3) 0.6283(3)
N18_3 N 0.6311(3) 0.9570(3) 0.3717(3)
C9_6 C 0.6210 1.0000(5) 0.6023(5)
C11_6 C 0.6210 1.0000(5) 0.3977(5)
H7_6 H 0.6078 1.0000 0.5681
H9_6 H 0.6078 1.0000 0.4319
C27_3 C 0.6516(3) 0.9734(4) 0.6740(3)
C31_3 C 0.6516(3) 0.9734(4) 0.3260(3)
C50_3 C 0.6656(4) 0.9325(4) 0.7098(4)
C54_3 C 0.6656(4) 0.9325(4) 0.2902(4)
O47_3 O 0.6923(3) 0.9448(3) 0.7474(4)
O51_3 O 0.6923(3) 0.9448(3) 0.2526(4)
O63_5 O 0.8077(3) 0.9448(3) 0.7526(4)
O73_10 O 0.7664(7) 1.0000 0.6713(7)
O74_10 O 0.7336(7) 1.0000 0.8287(7)
O26_6 O 0.1116(2) 0.7990(3) 0.1512(3)
N24_6 N 0.0430(3) 0.8717(3) 0.1311(3)
C14_11 C 0.0000(5) 0.8977(5) 0.1210
H12_11 H -0.0000 0.9319 0.1078
C37_6 C 0.0266(4) 0.8260(3) 0.1516(3)
C60_6 C 0.0675(4) 0.7902(4) 0.1656(4)
O63_6 O 0.8077(3) 0.0552(3) 0.2474(4)
O73_11 O 0.7664(7) 0.0000 0.3287(7)
O74_11 O 0.7336(7) 0.0000 0.1713(7)
O3_6 O 0.8287(7) 0.7664(7) 0.5000
O5_6 O 0.7010(3) 0.8488(3) 0.3884(2)
O6_6 O 0.7010(3) 0.8488(3) 0.6116(2)
O25_6 O 0.8884(2) 0.7990(3) 0.1512(3)
N3_6 N 0.6283(3) 0.8689(3) 0.4570(3)
N4_6 N 0.6283(3) 0.8689(3) 0.5430(3)
N23_6 N 0.9570(3) 0.8717(3) 0.1311(3)
C4_6 C 0.6023(5) 0.8790 0.5000(5)
C14_12 C 1.0000(5) 0.8977(5) 0.1210
H2_6 H 0.5681 0.8922 0.5000
H12_12 H 1.0000 0.9319 0.1078
C16_6 C 0.6740(3) 0.8484(3) 0.4734(4)
C17_6 C 0.6740(3) 0.8484(3) 0.5266(4)
C36_6 C 0.9734(4) 0.8260(3) 0.1516(3)
C39_6 C 0.7098(4) 0.8344(4) 0.4325(4)
C40_6 C 0.7098(4) 0.8344(4) 0.5675(4)
C59_6 C 0.9325(4) 0.7902(4) 0.1656(4)
O36_6 O 0.7474(4) 0.8077(3) 0.4448(3)
O37_6 O 0.7474(4) 0.8077(3) 0.5552(3)
O62_6 O 0.8077(3) 0.9448(3) 0.2474(4)
O64_6 O 0.6713(7) 0.7336(7) 0.5000
O73_12 O 0.7664(7) 1.0000 0.3287(7)
O74_12 O 0.7336(7) 1.0000 0.1713(7)
O16_4 O 0.3488(3) 0.1116(2) 0.7010(3)
O20_4 O 0.3488(3) 0.1116(2) 0.2990(3)
Zn22_7 Zn 0.2500 0.0000 0.7500
Zn24_7 Zn 0.2500 0.0000 0.2500
N14_4 N 0.3689(3) 0.0430(3) 0.6283(3)
N18_4 N 0.3689(3) 0.0430(3) 0.3717(3)
C9_7 C 0.3790 0.0000(5) 0.6023(5)
C11_7 C 0.3790 0.0000(5) 0.3977(5)
H7_7 H 0.3922 0.0000 0.5681
H9_7 H 0.3922 0.0000 0.4319
C27_4 C 0.3484(3) 0.0266(4) 0.6740(3)
C31_4 C 0.3484(3) 0.0266(4) 0.3260(3)
C50_4 C 0.3344(4) 0.0675(4) 0.7098(4)
C54_4 C 0.3344(4) 0.0675(4) 0.2902(4)
O47_4 O 0.3077(3) 0.0552(3) 0.7474(4)
O51_4 O 0.3077(3) 0.0552(3) 0.2526(4)
O63_7 O 0.1923(3) 0.0552(3) 0.7526(4)
O73_13 O 0.2336(7) 0.0000 0.6713(7)
O74_13 O 0.2664(7) 0.0000 0.8287(7)
O3_7 O 0.1713(7) 0.7664(7) 0.5000
O5_7 O 0.2990(3) 0.8488(3) 0.6116(2)
O6_7 O 0.2990(3) 0.8488(3) 0.3884(2)
O15_4 O 0.3488(3) 0.8884(2) 0.7010(3)
O19_4 O 0.3488(3) 0.8884(2) 0.2990(3)
O25_7 O 0.1116(2) 0.7990(3) 0.8488(3)
Zn22_8 Zn 0.2500 1.0000 0.7500
Zn24_8 Zn 0.2500 1.0000 0.2500
N3_7 N 0.3717(3) 0.8689(3) 0.5430(3)
N4_7 N 0.3717(3) 0.8689(3) 0.4570(3)
N13_4 N 0.3689(3) 0.9570(3) 0.6283(3)
N17_4 N 0.3689(3) 0.9570(3) 0.3717(3)
N23_7 N 0.0430(3) 0.8717(3) 0.8689(3)
C4_7 C 0.3977(5) 0.8790 0.5000(5)
C9_8 C 0.3790 1.0000(5) 0.6023(5)
C11_8 C 0.3790 1.0000(5) 0.3977(5)
C14_13 C -0.0000(5) 0.8977(5) 0.8790
H2_7 H 0.4319 0.8922 0.5000
H7_8 H 0.3922 1.0000 0.5681
H9_8 H 0.3922 1.0000 0.4319
H12_13 H -0.0000 0.9319 0.8922
C16_7 C 0.3260(3) 0.8484(3) 0.5266(4)
C17_7 C 0.3260(3) 0.8484(3) 0.4734(4)
C26_4 C 0.3484(3) 0.9734(4) 0.6740(3)
C30_4 C 0.3484(3) 0.9734(4) 0.3260(3)
C36_7 C 0.0266(4) 0.8260(3) 0.8484(3)
C39_7 C 0.2902(4) 0.8344(4) 0.5675(4)
C40_7 C 0.2902(4) 0.8344(4) 0.4325(4)
C49_4 C 0.3344(4) 0.9325(4) 0.7098(4)
C53_4 C 0.3344(4) 0.9325(4) 0.2902(4)
C59_7 C 0.0675(4) 0.7902(4) 0.8344(4)
O36_7 O 0.2526(4) 0.8077(3) 0.5552(3)
O37_7 O 0.2526(4) 0.8077(3) 0.4448(3)
O46_4 O 0.3077(3) 0.9448(3) 0.7474(4)
O50_4 O 0.3077(3) 0.9448(3) 0.2526(4)
O62_7 O 0.1923(3) 0.9448(3) 0.7526(4)
O64_7 O 0.3287(7) 0.7336(7) 0.5000
O73_14 O 0.2336(7) 1.0000 0.6713(7)
O74_14 O 0.2664(7) 1.0000 0.8287(7)
O26_7 O 0.8884(2) 0.7990(3) 0.8488(3)
N24_7 N 0.9570(3) 0.8717(3) 0.8689(3)
C14_14 C 1.0000(5) 0.8977(5) 0.8790
H12_14 H 1.0000 0.9319 0.8922
C37_7 C 0.9734(4) 0.8260(3) 0.8484(3)
C60_7 C 0.9325(4) 0.7902(4) 0.8344(4)
O3_8 O 0.1713(7) 0.2336(7) 0.5000
O5_8 O 0.2990(3) 0.1512(3) 0.3884(2)
O6_8 O 0.2990(3) 0.1512(3) 0.6116(2)
O25_8 O 0.1116(2) 0.2010(3) 0.1512(3)
N3_8 N 0.3717(3) 0.1311(3) 0.4570(3)
N4_8 N 0.3717(3) 0.1311(3) 0.5430(3)
N23_8 N 0.0430(3) 0.1283(3) 0.1311(3)
C4_8 C 0.3977(5) 0.1210 0.5000(5)
C14_15 C 0.0000(5) 0.1023(5) 0.1210
H2_8 H 0.4319 0.1078 0.5000
H12_15 H -0.0000 0.0681 0.1078
C16_8 C 0.3260(3) 0.1516(3) 0.4734(4)
C17_8 C 0.3260(3) 0.1516(3) 0.5266(4)
C36_8 C 0.0266(4) 0.1740(3) 0.1516(3)
C39_8 C 0.2902(4) 0.1656(4) 0.4325(4)
C40_8 C 0.2902(4) 0.1656(4) 0.5675(4)
C59_8 C 0.0675(4) 0.2098(4) 0.1656(4)
O36_8 O 0.2526(4) 0.1923(3) 0.4448(3)
O37_8 O 0.2526(4) 0.1923(3) 0.5552(3)
O62_8 O 0.1923(3) 0.0552(3) 0.2474(4)
O64_8 O 0.3287(7) 0.2664(7) 0.5000
O73_15 O 0.2336(7) -0.0000 0.3287(7)
O74_15 O 0.2664(7) -0.0000 0.1713(7)
O63_8 O 0.1923(3) 0.9448(3) 0.2474(4)
O73_16 O 0.2336(7) 1.0000 0.3287(7)
O74_16 O 0.2664(7) 1.0000 0.1713(7)
O26_8 O 0.8884(2) 0.2010(3) 0.1512(3)
N24_8 N 0.9570(3) 0.1283(3) 0.1311(3)
C14_16 C 1.0000(5) 0.1023(5) 0.1210
H12_16 H 1.0000 0.0681 0.1078
C37_8 C 0.9734(4) 0.1740(3) 0.1516(3)
C60_8 C 0.9325(4) 0.2098(4) 0.1656(4)
O26_9 O 0.8488(3) 0.1116(2) 0.2010(3)
N24_9 N 0.8689(3) 0.0430(3) 0.1283(3)
C14_17 C 0.8790 0.0000(5) 0.1023(5)
H12_17 H 0.8922 0.0000 0.0681
C37_9 C 0.8484(3) 0.0266(4) 0.1740(3)
C60_9 C 0.8344(4) 0.0675(4) 0.2098(4)
O25_9 O 0.8488(3) 0.8884(2) 0.2010(3)
N23_9 N 0.8689(3) 0.9570(3) 0.1283(3)
C14_18 C 0.8790 1.0000(5) 0.1023(5)
H12_18 H 0.8922 1.0000 0.0681
C36_9 C 0.8484(3) 0.9734(4) 0.1740(3)
C59_9 C 0.8344(4) 0.9325(4) 0.2098(4)
O26_10 O 0.1512(3) 0.1116(2) 0.7990(3)
N24_10 N 0.1311(3) 0.0430(3) 0.8717(3)
C14_19 C 0.1210 -0.0000(5) 0.8977(5)
H12_19 H 0.1078 -0.0000 0.9319
C37_10 C 0.1516(3) 0.0266(4) 0.8260(3)
C60_10 C 0.1656(4) 0.0675(4) 0.7902(4)
O25_10 O 0.1512(3) 0.8884(2) 0.7990(3)
N23_10 N 0.1311(3) 0.9570(3) 0.8717(3)
C14_20 C 0.1210 1.0000(5) 0.8977(5)
H12_20 H 0.1078 1.0000 0.9319
C36_10 C 0.1516(3) 0.9734(4) 0.8260(3)
C59_10 C 0.1656(4) 0.9325(4) 0.7902(4)
O25_11 O 0.8488(3) 0.1116(2) 0.7990(3)
N23_11 N 0.8689(3) 0.0430(3) 0.8717(3)
C14_21 C 0.8790 -0.0000(5) 0.8977(5)
H12_21 H 0.8922 -0.0000 0.9319
C36_11 C 0.8484(3) 0.0266(4) 0.8260(3)
C59_11 C 0.8344(4) 0.0675(4) 0.7902(4)
O26_11 O 0.8488(3) 0.8884(2) 0.7990(3)
N24_11 N 0.8689(3) 0.9570(3) 0.8717(3)
C14_22 C 0.8790 1.0000(5) 0.8977(5)
H12_22 H 0.8922 1.0000 0.9319
C37_11 C 0.8484(3) 0.9734(4) 0.8260(3)
C60_11 C 0.8344(4) 0.9325(4) 0.7902(4)
O25_12 O 0.1512(3) 0.1116(2) 0.2010(3)
N23_12 N 0.1311(3) 0.0430(3) 0.1283(3)
C14_23 C 0.1210 0.0000(5) 0.1023(5)
H12_23 H 0.1078 0.0000 0.0681
C36_12 C 0.1516(3) 0.0266(4) 0.1740(3)
C59_12 C 0.1656(4) 0.0675(4) 0.2098(4)
O26_12 O 0.1512(3) 0.8884(2) 0.2010(3)
N24_12 N 0.1311(3) 0.9570(3) 0.1283(3)
C14_24 C 0.1210 1.0000(5) 0.1023(5)
H12_24 H 0.1078 1.0000 0.0681
C37_12 C 0.1516(3) 0.9734(4) 0.1740(3)
C60_12 C 0.1656(4) 0.9325(4) 0.2098(4)
N33 N 0.1876(3) 0.2803(3) 0.1487(3)
H13 H 0.1651 0.2551 0.1477
H14 H 0.2120 0.2822 0.1252
C61 C 0.1849(4) 0.3151(4) 0.1849(4)
N34 N 0.2197(3) 0.3513(3) 0.1876(3)
N35 N 0.1487(3) 0.3124(3) 0.2197(3)
H15 H 0.2449 0.3523 0.1651
H16 H 0.1477 0.3349 0.2449
H17 H 0.2178 0.3748 0.2120
H18 H 0.1252 0.2880 0.2178
N33_2 N 0.8124(3) 0.7197(3) 0.1487(3)
H13_2 H 0.8349 0.7449 0.1477
H14_2 H 0.7880 0.7178 0.1252
C61_2 C 0.8151(4) 0.6849(4) 0.1849(4)
N34_2 N 0.7803(3) 0.6487(3) 0.1876(3)
N35_2 N 0.8513(3) 0.6876(3) 0.2197(3)
H15_2 H 0.7551 0.6477 0.1651
H16_2 H 0.8523 0.6651 0.2449
H17_2 H 0.7822 0.6252 0.2120
H18_2 H 0.8748 0.7120 0.2178
N33_3 N 0.8124(3) 0.2803(3) 0.8513(3)
H13_3 H 0.8349 0.2551 0.8523
H14_3 H 0.7880 0.2822 0.8748
C61_3 C 0.8151(4) 0.3151(4) 0.8151(4)
N34_3 N 0.7803(3) 0.3513(3) 0.8124(3)
N35_3 N 0.8513(3) 0.3124(3) 0.7803(3)
H15_3 H 0.7551 0.3523 0.8349
H16_3 H 0.8523 0.3349 0.7551
H17_3 H 0.7822 0.3748 0.7880
H18_3 H 0.8748 0.2880 0.7822
N33_4 N 0.1876(3) 0.7197(3) 0.8513(3)
H13_4 H 0.1651 0.7449 0.8523
H14_4 H 0.2120 0.7178 0.8748
C61_4 C 0.1849(4) 0.6849(4) 0.8151(4)
N34_4 N 0.2197(3) 0.6487(3) 0.8124(3)
N35_4 N 0.1487(3) 0.6876(3) 0.7803(3)
H15_4 H 0.2449 0.6477 0.8349
H16_4 H 0.1477 0.6651 0.7551
H17_4 H 0.2178 0.6252 0.7880
H18_4 H 0.1252 0.7120 0.7822
N33_5 N 0.1487(3) 0.1876(3) 0.2803(3)
H13_5 H 0.1477 0.1651 0.2551
H14_5 H 0.1252 0.2120 0.2822
C61_5 C 0.1849(4) 0.1849(4) 0.3151(4)
N34_5 N 0.1876(3) 0.2197(3) 0.3513(3)
N35_5 N 0.2197(3) 0.1487(3) 0.3124(3)
H15_5 H 0.1651 0.2449 0.3523
H16_5 H 0.2449 0.1477 0.3349
H17_5 H 0.2120 0.2178 0.3748
H18_5 H 0.2178 0.1252 0.2880
N33_6 N 0.1487(3) 0.8124(3) 0.7197(3)
H13_6 H 0.1477 0.8349 0.7449
H14_6 H 0.1252 0.7880 0.7178
C61_6 C 0.1849(4) 0.8151(4) 0.6849(4)
N34_6 N 0.1876(3) 0.7803(3) 0.6487(3)
N35_6 N 0.2197(3) 0.8513(3) 0.6876(3)
H15_6 H 0.1651 0.7551 0.6477
H16_6 H 0.2449 0.8523 0.6651
H17_6 H 0.2120 0.7822 0.6252
H18_6 H 0.2178 0.8748 0.7120
N33_7 N 0.8513(3) 0.8124(3) 0.2803(3)
H13_7 H 0.8523 0.8349 0.2551
H14_7 H 0.8748 0.7880 0.2822
C61_7 C 0.8151(4) 0.8151(4) 0.3151(4)
N34_7 N 0.8124(3) 0.7803(3) 0.3513(3)
N35_7 N 0.7803(3) 0.8513(3) 0.3124(3)
H15_7 H 0.8349 0.7551 0.3523
H16_7 H 0.7551 0.8523 0.3349
H17_7 H 0.7880 0.7822 0.3748
H18_7 H 0.7822 0.8748 0.2880
N33_8 N 0.8513(3) 0.1876(3) 0.7197(3)
H13_8 H 0.8523 0.1651 0.7449
H14_8 H 0.8748 0.2120 0.7178
C61_8 C 0.8151(4) 0.1849(4) 0.6849(4)
N34_8 N 0.8124(3) 0.2197(3) 0.6487(3)
N35_8 N 0.7803(3) 0.1487(3) 0.6876(3)
H15_8 H 0.8349 0.2449 0.6477
H16_8 H 0.7551 0.1477 0.6651
H17_8 H 0.7880 0.2178 0.6252
H18_8 H 0.7822 0.1252 0.7120
N33_9 N 0.2803(3) 0.1487(3) 0.1876(3)
H13_9 H 0.2551 0.1477 0.1651
H14_9 H 0.2822 0.1252 0.2120
C61_9 C 0.3151(4) 0.1849(4) 0.1849(4)
N34_9 N 0.3513(3) 0.1876(3) 0.2197(3)
N35_9 N 0.3124(3) 0.2197(3) 0.1487(3)
H15_9 H 0.3523 0.1651 0.2449
H16_9 H 0.3349 0.2449 0.1477
H17_9 H 0.3748 0.2120 0.2178
H18_9 H 0.2880 0.2178 0.1252
N33_10 N 0.7197(3) 0.1487(3) 0.8124(3)
H13_10 H 0.7449 0.1477 0.8349
H14_10 H 0.7178 0.1252 0.7880
C61_10 C 0.6849(4) 0.1849(4) 0.8151(4)
N34_10 N 0.6487(3) 0.1876(3) 0.7803(3)
N35_10 N 0.6876(3) 0.2197(3) 0.8513(3)
H15_10 H 0.6477 0.1651 0.7551
H16_10 H 0.6651 0.2449 0.8523
H17_10 H 0.6252 0.2120 0.7822
H18_10 H 0.7120 0.2178 0.8748
N33_11 N 0.2803(3) 0.8513(3) 0.8124(3)
H13_11 H 0.2551 0.8523 0.8349
H14_11 H 0.2822 0.8748 0.7880
C61_11 C 0.3151(4) 0.8151(4) 0.8151(4)
N34_11 N 0.3513(3) 0.8124(3) 0.7803(3)
N35_11 N 0.3124(3) 0.7803(3) 0.8513(3)
H15_11 H 0.3523 0.8349 0.7551
H16_11 H 0.3349 0.7551 0.8523
H17_11 H 0.3748 0.7880 0.7822
H18_11 H 0.2880 0.7822 0.8748
N33_12 N 0.7197(3) 0.8513(3) 0.1876(3)
H13_12 H 0.7449 0.8523 0.1651
H14_12 H 0.7178 0.8748 0.2120
C61_12 C 0.6849(4) 0.8151(4) 0.1849(4)
N34_12 N 0.6487(3) 0.8124(3) 0.2197(3)
N35_12 N 0.6876(3) 0.7803(3) 0.1487(3)
H15_12 H 0.6477 0.8349 0.2449
H16_12 H 0.6651 0.7551 0.1477
H17_12 H 0.6252 0.7880 0.2178
H18_12 H 0.7120 0.7822 0.1252
N33_13 N 0.2803(3) 0.6487(3) 0.6876(3)
H13_13 H 0.2551 0.6477 0.6651
H14_13 H 0.2822 0.6252 0.7120
C61_13 C 0.3151(4) 0.6849(4) 0.6849(4)
N34_13 N 0.3513(3) 0.6876(3) 0.7197(3)
N35_13 N 0.3124(3) 0.7197(3) 0.6487(3)
H15_13 H 0.3523 0.6651 0.7449
H16_13 H 0.3349 0.7449 0.6477
H17_13 H 0.3748 0.7120 0.7178
H18_13 H 0.2880 0.7178 0.6252
N33_14 N 0.7197(3) 0.6487(3) 0.3124(3)
H13_14 H 0.7449 0.6477 0.3349
H14_14 H 0.7178 0.6252 0.2880
C61_14 C 0.6849(4) 0.6849(4) 0.3151(4)
N34_14 N 0.6487(3) 0.6876(3) 0.2803(3)
N35_14 N 0.6876(3) 0.7197(3) 0.3513(3)
H15_14 H 0.6477 0.6651 0.2551
H16_14 H 0.6651 0.7449 0.3523
H17_14 H 0.6252 0.7120 0.2822
H18_14 H 0.7120 0.7178 0.3748
N33_15 N 0.2803(3) 0.3513(3) 0.3124(3)
H13_15 H 0.2551 0.3523 0.3349
H14_15 H 0.2822 0.3748 0.2880
C61_15 C 0.3151(4) 0.3151(4) 0.3151(4)
N34_15 N 0.3513(3) 0.3124(3) 0.2803(3)
N35_15 N 0.3124(3) 0.2803(3) 0.3513(3)
H15_15 H 0.3523 0.3349 0.2551
H16_15 H 0.3349 0.2551 0.3523
H17_15 H 0.3748 0.2880 0.2822
H18_15 H 0.2880 0.2822 0.3748
N33_16 N 0.7197(3) 0.3513(3) 0.6876(3)
H13_16 H 0.7449 0.3523 0.6651
H14_16 H 0.7178 0.3748 0.7120
C61_16 C 0.6849(4) 0.3151(4) 0.6849(4)
N34_16 N 0.6487(3) 0.3124(3) 0.7197(3)
N35_16 N 0.6876(3) 0.2803(3) 0.6487(3)
H15_16 H 0.6477 0.3349 0.7449
H16_16 H 0.6651 0.2551 0.6477
H17_16 H 0.6252 0.2880 0.7178
H18_16 H 0.7120 0.2822 0.6252
N33_17 N 0.8124(3) 0.7197(3) 0.8513(3)
H13_17 H 0.8349 0.7449 0.8523
H14_17 H 0.7880 0.7178 0.8748
C61_17 C 0.8151(4) 0.6849(4) 0.8151(4)
N34_17 N 0.7803(3) 0.6487(3) 0.8124(3)
N35_17 N 0.8513(3) 0.6876(3) 0.7803(3)
H15_17 H 0.7551 0.6477 0.8349
H16_17 H 0.8523 0.6651 0.7551
H17_17 H 0.7822 0.6252 0.7880
H18_17 H 0.8748 0.7120 0.7822
N33_18 N 0.1876(3) 0.2803(3) 0.8513(3)
H13_18 H 0.1651 0.2551 0.8523
H14_18 H 0.2120 0.2822 0.8748
C61_18 C 0.1849(4) 0.3151(4) 0.8151(4)
N34_18 N 0.2197(3) 0.3513(3) 0.8124(3)
N35_18 N 0.1487(3) 0.3124(3) 0.7803(3)
H15_18 H 0.2449 0.3523 0.8349
H16_18 H 0.1477 0.3349 0.7551
H17_18 H 0.2178 0.3748 0.7880
H18_18 H 0.1252 0.2880 0.7822
N33_19 N 0.1876(3) 0.7197(3) 0.1487(3)
H13_19 H 0.1651 0.7449 0.1477
H14_19 H 0.2120 0.7178 0.1252
C61_19 C 0.1849(4) 0.6849(4) 0.1849(4)
N34_19 N 0.2197(3) 0.6487(3) 0.1876(3)
N35_19 N 0.1487(3) 0.6876(3) 0.2197(3)
H15_19 H 0.2449 0.6477 0.1651
H16_19 H 0.1477 0.6651 0.2449
H17_19 H 0.2178 0.6252 0.2120
H18_19 H 0.1252 0.7120 0.2178
N33_20 N 0.8124(3) 0.2803(3) 0.1487(3)
H13_20 H 0.8349 0.2551 0.1477
H14_20 H 0.7880 0.2822 0.1252
C61_20 C 0.8151(4) 0.3151(4) 0.1849(4)
N34_20 N 0.7803(3) 0.3513(3) 0.1876(3)
N35_20 N 0.8513(3) 0.3124(3) 0.2197(3)
H15_20 H 0.7551 0.3523 0.1651
H16_20 H 0.8523 0.3349 0.2449
H17_20 H 0.7822 0.3748 0.2120
H18_20 H 0.8748 0.2880 0.2178
N33_21 N 0.8513(3) 0.8124(3) 0.7197(3)
H13_21 H 0.8523 0.8349 0.7449
H14_21 H 0.8748 0.7880 0.7178
C61_21 C 0.8151(4) 0.8151(4) 0.6849(4)
N34_21 N 0.8124(3) 0.7803(3) 0.6487(3)
N35_21 N 0.7803(3) 0.8513(3) 0.6876(3)
H15_21 H 0.8349 0.7551 0.6477
H16_21 H 0.7551 0.8523 0.6651
H17_21 H 0.7880 0.7822 0.6252
H18_21 H 0.7822 0.8748 0.7120
N33_22 N 0.8513(3) 0.1876(3) 0.2803(3)
H13_22 H 0.8523 0.1651 0.2551
H14_22 H 0.8748 0.2120 0.2822
C61_22 C 0.8151(4) 0.1849(4) 0.3151(4)
N34_22 N 0.8124(3) 0.2197(3) 0.3513(3)
N35_22 N 0.7803(3) 0.1487(3) 0.3124(3)
H15_22 H 0.8349 0.2449 0.3523
H16_22 H 0.7551 0.1477 0.3349
H17_22 H 0.7880 0.2178 0.3748
H18_22 H 0.7822 0.1252 0.2880
N33_23 N 0.1487(3) 0.1876(3) 0.7197(3)
H13_23 H 0.1477 0.1651 0.7449
H14_23 H 0.1252 0.2120 0.7178
C61_23 C 0.1849(4) 0.1849(4) 0.6849(4)
N34_23 N 0.1876(3) 0.2197(3) 0.6487(3)
N35_23 N 0.2197(3) 0.1487(3) 0.6876(3)
H15_23 H 0.1651 0.2449 0.6477
H16_23 H 0.2449 0.1477 0.6651
H17_23 H 0.2120 0.2178 0.6252
H18_23 H 0.2178 0.1252 0.7120
N33_24 N 0.1487(3) 0.8124(3) 0.2803(3)
H13_24 H 0.1477 0.8349 0.2551
H14_24 H 0.1252 0.7880 0.2822
C61_24 C 0.1849(4) 0.8151(4) 0.3151(4)
N34_24 N 0.1876(3) 0.7803(3) 0.3513(3)
N35_24 N 0.2197(3) 0.8513(3) 0.3124(3)
H15_24 H 0.1651 0.7551 0.3523
H16_24 H 0.2449 0.8523 0.3349
H17_24 H 0.2120 0.7822 0.3748
H18_24 H 0.2178 0.8748 0.2880
N33_25 N 0.7197(3) 0.8513(3) 0.8124(3)
H13_25 H 0.7449 0.8523 0.8349
H14_25 H 0.7178 0.8748 0.7880
C61_25 C 0.6849(4) 0.8151(4) 0.8151(4)
N34_25 N 0.6487(3) 0.8124(3) 0.7803(3)
N35_25 N 0.6876(3) 0.7803(3) 0.8513(3)
H15_25 H 0.6477 0.8349 0.7551
H16_25 H 0.6651 0.7551 0.8523
H17_25 H 0.6252 0.7880 0.7822
H18_25 H 0.7120 0.7822 0.8748
N33_26 N 0.2803(3) 0.8513(3) 0.1876(3)
H13_26 H 0.2551 0.8523 0.1651
H14_26 H 0.2822 0.8748 0.2120
C61_26 C 0.3151(4) 0.8151(4) 0.1849(4)
N34_26 N 0.3513(3) 0.8124(3) 0.2197(3)
N35_26 N 0.3124(3) 0.7803(3) 0.1487(3)
H15_26 H 0.3523 0.8349 0.2449
H16_26 H 0.3349 0.7551 0.1477
H17_26 H 0.3748 0.7880 0.2178
H18_26 H 0.2880 0.7822 0.1252
N33_27 N 0.7197(3) 0.1487(3) 0.1876(3)
H13_27 H 0.7449 0.1477 0.1651
H14_27 H 0.7178 0.1252 0.2120
C61_27 C 0.6849(4) 0.1849(4) 0.1849(4)
N34_27 N 0.6487(3) 0.1876(3) 0.2197(3)
N35_27 N 0.6876(3) 0.2197(3) 0.1487(3)
H15_27 H 0.6477 0.1651 0.2449
H16_27 H 0.6651 0.2449 0.1477
H17_27 H 0.6252 0.2120 0.2178
H18_27 H 0.7120 0.2178 0.1252
N33_28 N 0.2803(3) 0.1487(3) 0.8124(3)
H13_28 H 0.2551 0.1477 0.8349
H14_28 H 0.2822 0.1252 0.7880
C61_28 C 0.3151(4) 0.1849(4) 0.8151(4)
N34_28 N 0.3513(3) 0.1876(3) 0.7803(3)
N35_28 N 0.3124(3) 0.2197(3) 0.8513(3)
H15_28 H 0.3523 0.1651 0.7551
H16_28 H 0.3349 0.2449 0.8523
H17_28 H 0.3748 0.2120 0.7822
H18_28 H 0.2880 0.2178 0.8748
N33_29 N 0.7197(3) 0.3513(3) 0.3124(3)
H13_29 H 0.7449 0.3523 0.3349
H14_29 H 0.7178 0.3748 0.2880
C61_29 C 0.6849(4) 0.3151(4) 0.3151(4)
N34_29 N 0.6487(3) 0.3124(3) 0.2803(3)
N35_29 N 0.6876(3) 0.2803(3) 0.3513(3)
H15_29 H 0.6477 0.3349 0.2551
H16_29 H 0.6651 0.2551 0.3523
H17_29 H 0.6252 0.2880 0.2822
H18_29 H 0.7120 0.2822 0.3748
N33_30 N 0.2803(3) 0.3513(3) 0.6876(3)
H13_30 H 0.2551 0.3523 0.6651
H14_30 H 0.2822 0.3748 0.7120
C61_30 C 0.3151(4) 0.3151(4) 0.6849(4)
N34_30 N 0.3513(3) 0.3124(3) 0.7197(3)
N35_30 N 0.3124(3) 0.2803(3) 0.6487(3)
H15_30 H 0.3523 0.3349 0.7449
H16_30 H 0.3349 0.2551 0.6477
H17_30 H 0.3748 0.2880 0.7178
H18_30 H 0.2880 0.2822 0.6252
N33_31 N 0.7197(3) 0.6487(3) 0.6876(3)
H13_31 H 0.7449 0.6477 0.6651
H14_31 H 0.7178 0.6252 0.7120
C61_31 C 0.6849(4) 0.6849(4) 0.6849(4)
N34_31 N 0.6487(3) 0.6876(3) 0.7197(3)
N35_31 N 0.6876(3) 0.7197(3) 0.6487(3)
H15_31 H 0.6477 0.6651 0.7449
H16_31 H 0.6651 0.7449 0.6477
H17_31 H 0.6252 0.7120 0.7178
H18_31 H 0.7120 0.7178 0.6252
N33_32 N 0.2803(3) 0.6487(3) 0.3124(3)
H13_32 H 0.2551 0.6477 0.3349
H14_32 H 0.2822 0.6252 0.2880
C61_32 C 0.3151(4) 0.6849(4) 0.3151(4)
N34_32 N 0.3513(3) 0.6876(3) 0.2803(3)
N35_32 N 0.3124(3) 0.7197(3) 0.3513(3)
H15_32 H 0.3523 0.6651 0.2551
H16_32 H 0.3349 0.7449 0.3523
H17_32 H 0.3748 0.7120 0.2822
H18_32 H 0.2880 0.7178 0.3748
loop_
_geom_bond_atom_site_label_1
_geom_bond_atom_site_label_2
_geom_bond_site_symmetry_1
_geom_bond_site_symmetry_2
O10 Zn7 1_555 1_555
O14 Zn9 1_555 1_555
O26 Zn17 1_555 1_555
O29 Zn7 1_555 1_555
O30 Zn7 1_555 1_555
O33 Zn9 1_555 1_555
O34 Zn9 1_555 1_555
Zn7 N8 1_555 1_555
Zn9 N12 1_555 1_555
Zn17 N24 1_555 1_555
N8 C6 1_555 1_555
N12 C8 1_555 1_555
N24 C14 1_555 1_555
N27 Zn7 1_555 1_555
N28 Zn7 1_555 1_555
N31 Zn9 1_555 1_555
N32 Zn9 1_555 1_555
C14 H12 1_555 1_555
H4 C6 1_555 1_555
H6 C8 1_555 1_555
C21 N8 1_555 1_555
C25 N12 1_555 1_555
C37 N24 1_555 1_555
C44 O10 1_555 1_555
C48 O14 1_555 1_555
C60 O26 1_555 1_555
O41 Zn19 1_555 1_555
O45 Zn21 1_555 1_555
O57 Zn19 1_555 1_555
O61 Zn21 1_555 1_555
O67 Zn19 1_555 1_555
O68 Zn19 1_555 1_555
O71 Zn21 1_555 1_555
O72 Zn21 1_555 1_555
C21 C44 1_555 1_555
C25 C48 1_555 1_555
C37 C60 1_555 1_555
C44 O41 1_555 1_555
C48 O45 1_555 1_555
C60 O57 1_555 1_555
O1 Zn1 1_555 1_555
Zn1 N1 1_555 1_555
Zn2 O2 1_555 1_555
N1 C1 1_555 1_555
C1 H1 1_555 1_555
C2 N1 1_555 1_555
C3 O1 1_555 1_555
O2 C3 1_555 1_555
O3 Zn2 1_555 1_555
O4 Zn3 1_555 1_555
O5 Zn4 1_555 1_555
O6 Zn5 1_555 1_555
O7 Zn1 1_555 1_555
O8 Zn6 1_555 1_555
O9 Zn1 1_555 1_555
O11 Zn3 1_555 1_555
O12 Zn8 1_555 1_555
O13 Zn3 1_555 1_555
O15 Zn4 1_555 1_555
O17 Zn4 1_555 1_555
O18 Zn11 1_555 1_555
O19 Zn5 1_555 1_555
O21 Zn5 1_555 1_555
O22 Zn13 1_555 1_555
O23 Zn14 1_555 1_555
O24 Zn15 1_555 1_555
O25 Zn16 1_555 1_555
O27 Zn6 1_555 1_555
O28 Zn6 1_555 1_555
O31 Zn8 1_555 1_555
O32 Zn8 1_555 1_555
Zn3 N2 1_555 1_555
Zn4 N3 1_555 1_555
Zn5 N4 1_555 1_555
Zn6 N6 1_555 1_555
Zn8 N10 1_555 1_555
Zn11 N16 1_555 1_555
Zn13 N20 1_555 1_555
Zn14 N21 1_555 1_555
Zn15 N22 1_555 1_555
Zn16 N23 1_555 1_555
Zn18 O38 1_555 1_555
Zn19_2 O40 1_555 1_555
Zn20 O42 1_555 1_555
Zn21_2 O44 1_555 1_555
Zn22 O46 1_555 1_555
Zn23 O48 1_555 1_555
Zn24 O50 1_555 1_555
Zn25 O52 1_555 1_555
N2 C1 1_555 1_555
N3 C4 1_555 1_555
N4 C4 1_555 1_555
N5 Zn1 1_555 1_555
N6 C5 1_555 1_555
N7 Zn1 1_555 1_555
N9 Zn3 1_555 1_555
N10 C7 1_555 1_555
N11 Zn3 1_555 1_555
N13 Zn4 1_555 1_555
N15 Zn4 1_555 1_555
N16 C10 1_555 1_555
N17 Zn5 1_555 1_555
N19 Zn5 1_555 1_555
N20 C12 1_555 1_555
N21 C13 1_555 1_555
N22 C13 1_555 1_555
N23 C14_2 1_555 1_555
N25 Zn6 1_555 1_555
N26 Zn6 1_555 1_555
N29 Zn8 1_555 1_555
N30 Zn8 1_555 1_555
C4 H2 1_555 1_555
C5 N5 1_555 1_555
C6_2 N7 1_555 1_555
C7 N9 1_555 1_555
C8_2 N11 1_555 1_555
C9 N13 1_555 1_555
C10 N15 1_555 1_555
C11 N17 1_555 1_555
C12 N19 1_555 1_555
C13 H11 1_555 1_555
C14_2 H12_2 1_555 1_555
H3 C5 1_555 1_555
H4_2 C6_2 1_555 1_555
H5 C7 1_555 1_555
H6_2 C8_2 1_555 1_555
H7 C9 1_555 1_555
H8 C10 1_555 1_555
H9 C11 1_555 1_555
H10 C12 1_555 1_555
C15 C2 1_555 1_555
C16 N3 1_555 1_555
C17 N4 1_555 1_555
C18 N5 1_555 1_555
C19 N6 1_555 1_555
C20 N7 1_555 1_555
C22 N9 1_555 1_555
C23 N10 1_555 1_555
C24 N11 1_555 1_555
C26 N13 1_555 1_555
C28 N15 1_555 1_555
C29 N16 1_555 1_555
C30 N17 1_555 1_555
C32 N19 1_555 1_555
C33 N20 1_555 1_555
C34 N21 1_555 1_555
C35 N22 1_555 1_555
C36 N23 1_555 1_555
C38 O4 1_555 1_555
C39 O5 1_555 1_555
C40 O6 1_555 1_555
C41 O7 1_555 1_555
C42 O8 1_555 1_555
C43 O9 1_555 1_555
C45 O11 1_555 1_555
C46 O12 1_555 1_555
C47 O13 1_555 1_555
C49 O15 1_555 1_555
C51 O17 1_555 1_555
C52 O18 1_555 1_555
C53 O19 1_555 1_555
C55 O21 1_555 1_555
C56 O22 1_555 1_555
C57 O23 1_555 1_555
C58 O24 1_555 1_555
C59 O25 1_555 1_555
O35 Zn2 1_555 1_555
O36 Zn2 1_555 1_555
O37 Zn2 1_555 1_555
O38 C41 1_555 1_555
O39 Zn18 1_555 1_555
O40 C43 1_555 1_555
O42 C45 1_555 1_555
O43 Zn20 1_555 1_555
O44 C47 1_555 1_555
O46 C49 1_555 1_555
O48 C51 1_555 1_555
O49 Zn23 1_555 1_555
O50 C53 1_555 1_555
O52 C55 1_555 1_555
O53 Zn25 1_555 1_555
O54 Zn18 1_555 1_555
O55 Zn18 1_555 1_555
O56 Zn19_2 1_555 1_555
O58 Zn20 1_555 1_555
O59 Zn20 1_555 1_555
O60 Zn21_2 1_555 1_555
O62 Zn22 1_555 1_555
O64 Zn2 1_555 1_555
O65 Zn18 1_555 1_555
O66 Zn18 1_555 1_555
O67_2 Zn19_2 1_555 1_555
O68_2 Zn19_2 1_555 1_555
O69 Zn20 1_555 1_555
O70 Zn20 1_555 1_555
O71_2 Zn21_2 1_555 1_555
O72_2 Zn21_2 1_555 1_555
O73 Zn22 1_555 1_555
O74 Zn22 1_555 1_555
C2 C3 1_555 1_555
N2 C15 1_555 1_555
C15 C38 1_555 1_555
C16 C17 1_555 1_555
C16 C39 1_555 1_555
C17 C40 1_555 1_555
C18 C19 1_555 1_555
C18 C41 1_555 1_555
C19 C42 1_555 1_555
C20 C43 1_555 1_555
C22 C23 1_555 1_555
C22 C45 1_555 1_555
C23 C46 1_555 1_555
C24 C47 1_555 1_555
C26 C49 1_555 1_555
C28 C29 1_555 1_555
C28 C51 1_555 1_555
C29 C52 1_555 1_555
C30 C53 1_555 1_555
C32 C33 1_555 1_555
C32 C55 1_555 1_555
C33 C56 1_555 1_555
C34 C35 1_555 1_555
C34 C57 1_555 1_555
C35 C58 1_555 1_555
C36 C59 1_555 1_555
C38 O35 1_555 1_555
C39 O36 1_555 1_555
C40 O37 1_555 1_555
C42 O39 1_555 1_555
C46 O43 1_555 1_555
C52 O49 1_555 1_555
C56 O53 1_555 1_555
C57 O54 1_555 1_555
C58 O55 1_555 1_555
C59 O56 1_555 1_555
O16 Zn10 1_555 1_555
O20 Zn12 1_555 1_555
Zn10 N14 1_555 1_555
Zn12 N18 1_555 1_555
N14 C9_2 1_555 1_555
N18 C11_2 1_555 1_555
H7_2 C9_2 1_555 1_555
H9_2 C11_2 1_555 1_555
C27 N14 1_555 1_555
C31 N18 1_555 1_555
C50 O16 1_555 1_555
C54 O20 1_555 1_555
O47 Zn22_2 1_555 1_555
O51 Zn24_2 1_555 1_555
O63 Zn22_2 1_555 1_555
O73_2 Zn22_2 1_555 1_555
O74_2 Zn22_2 1_555 1_555
C27 C50 1_555 1_555
C31 C54 1_555 1_555
C50 O47 1_555 1_555
C54 O51 1_555 1_555
O63_2 Zn24 1_555 1_555
O73_3 Zn24 1_555 1_555
O74_3 Zn24 1_555 1_555
O10_2 Zn7_2 1_555 1_555
O14_2 Zn9_2 1_555 1_555
O26_2 Zn17_2 1_555 1_555
O29_2 Zn7_2 1_555 1_555
O30_2 Zn7_2 1_555 1_555
O33_2 Zn9_2 1_555 1_555
O34_2 Zn9_2 1_555 1_555
Zn7_2 N8_2 1_555 1_555
Zn9_2 N12_2 1_555 1_555
Zn17_2 N24_2 1_555 1_555
N8_2 C6_3 1_555 1_555
N12_2 C8_3 1_555 1_555
N24_2 C14_3 1_555 1_555
N27_2 Zn7_2 1_555 1_555
N28_2 Zn7_2 1_555 1_555
N31_2 Zn9_2 1_555 1_555
N32_2 Zn9_2 1_555 1_555
C14_3 H12_3 1_555 1_555
H4_3 C6_3 1_555 1_555
H6_3 C8_3 1_555 1_555
C21_2 N8_2 1_555 1_555
C25_2 N12_2 1_555 1_555
C37_2 N24_2 1_555 1_555
C44_2 O10_2 1_555 1_555
C48_2 O14_2 1_555 1_555
C60_2 O26_2 1_555 1_555
O41_2 Zn19_3 1_555 1_555
O45_2 Zn21_3 1_555 1_555
O57_2 Zn19_3 1_555 1_555
O61_2 Zn21_3 1_555 1_555
O67_3 Zn19_3 1_555 1_555
O68_3 Zn19_3 1_555 1_555
O71_3 Zn21_3 1_555 1_555
O72_3 Zn21_3 1_555 1_555
C21_2 C44_2 1_555 1_555
C25_2 C48_2 1_555 1_555
C37_2 C60_2 1_555 1_555
C44_2 O41_2 1_555 1_555
C48_2 O45_2 1_555 1_555
C60_2 O57_2 1_555 1_555
Zn2_2 O2_2 1_555 1_555
N30 C1_2 1_555 1_555
C1_2 H1_2 1_555 1_555
C2_2 N30 1_555 1_555
C3_2 O32 1_555 1_555
O2_2 C3_2 1_555 1_555
O3_2 Zn2_2 1_555 1_555
O5_2 Zn12 1_555 1_555
O6_2 Zn10 1_555 1_555
O17_2 Zn12 1_555 1_555
O18_2 Zn11_2 1_555 1_555
O21_2 Zn10 1_555 1_555
O22_2 Zn13_2 1_555 1_555
O23_2 Zn14_2 1_555 1_555
O24_2 Zn15_2 1_555 1_555
O25_2 Zn16_2 1_555 1_555
Zn12 N3_2 1_555 1_555
Zn10 N4_2 1_555 1_555
Zn11_2 N16_2 1_555 1_555
Zn13_2 N20_2 1_555 1_555
Zn14_2 N21_2 1_555 1_555
Zn15_2 N22_2 1_555 1_555
Zn16_2 N23_2 1_555 1_555
Zn19_4 O40_2 1_555 1_555
Zn21_4 O44_2 1_555 1_555
Zn23_2 O48_2 1_555 1_555
Zn25_2 O52_2 1_555 1_555
N26 C1_2 1_555 1_555
N3_2 C4_2 1_555 1_555
N4_2 C4_2 1_555 1_555
N15_2 Zn12 1_555 1_555
N16_2 C10_2 1_555 1_555
N19_2 Zn10 1_555 1_555
N20_2 C12_2 1_555 1_555
N21_2 C13_2 1_555 1_555
N22_2 C13_2 1_555 1_555
N23_2 C14_4 1_555 1_555
C4_2 H2_2 1_555 1_555
C6_4 N29 1_555 1_555
C8_4 N25 1_555 1_555
C10_2 N15_2 1_555 1_555
C12_2 N19_2 1_555 1_555
C13_2 H11_2 1_555 1_555
C14_4 H12_4 1_555 1_555
H4_4 C6_4 1_555 1_555
H6_4 C8_4 1_555 1_555
H8_2 C10_2 1_555 1_555
H10_2 C12_2 1_555 1_555
C15_2 C2_2 1_555 1_555
C16_2 N3_2 1_555 1_555
C17_2 N4_2 1_555 1_555
C20_2 N29 1_555 1_555
C24_2 N25 1_555 1_555
C28_2 N15_2 1_555 1_555
C29_2 N16_2 1_555 1_555
C32_2 N19_2 1_555 1_555
C33_2 N20_2 1_555 1_555
C34_2 N21_2 1_555 1_555
C35_2 N22_2 1_555 1_555
C36_2 N23_2 1_555 1_555
C38_2 O28 1_555 1_555
C39_2 O5_2 1_555 1_555
C40_2 O6_2 1_555 1_555
C43_2 O31 1_555 1_555
C47_2 O27 1_555 1_555
C51_2 O17_2 1_555 1_555
C52_2 O18_2 1_555 1_555
C55_2 O21_2 1_555 1_555
C56_2 O22_2 1_555 1_555
C57_2 O23_2 1_555 1_555
C58_2 O24_2 1_555 1_555
C59_2 O25_2 1_555 1_555
O35_2 Zn2_2 1_555 1_555
O36_2 Zn2_2 1_555 1_555
O37_2 Zn2_2 1_555 1_555
O40_2 C43_2 1_555 1_555
O44_2 C47_2 1_555 1_555
O48_2 C51_2 1_555 1_555
O49_2 Zn23_2 1_555 1_555
O52_2 C55_2 1_555 1_555
O53_2 Zn25_2 1_555 1_555
O56_2 Zn19_4 1_555 1_555
O60_2 Zn21_4 1_555 1_555
O62_2 Zn24_2 1_555 1_555
O64_2 Zn2_2 1_555 1_555
O67_4 Zn19_4 1_555 1_555
O68_4 Zn19_4 1_555 1_555
O71_4 Zn21_4 1_555 1_555
O72_4 Zn21_4 1_555 1_555
O73_4 Zn24_2 1_555 1_555
O74_4 Zn24_2 1_555 1_555
C2_2 C3_2 1_555 1_555
N26 C15_2 1_555 1_555
C15_2 C38_2 1_555 1_555
C16_2 C17_2 1_555 1_555
C16_2 C39_2 1_555 1_555
C17_2 C40_2 1_555 1_555
C20_2 C43_2 1_555 1_555
C24_2 C47_2 1_555 1_555
C28_2 C29_2 1_555 1_555
C28_2 C51_2 1_555 1_555
C29_2 C52_2 1_555 1_555
C32_2 C33_2 1_555 1_555
C32_2 C55_2 1_555 1_555
C33_2 C56_2 1_555 1_555
C34_2 C35_2 1_555 1_555
C34_2 C57_2 1_555 1_555
C35_2 C58_2 1_555 1_555
C36_2 C59_2 1_555 1_555
C38_2 O35_2 1_555 1_555
C39_2 O36_2 1_555 1_555
C40_2 O37_2 1_555 1_555
C52_2 O49_2 1_555 1_555
C56_2 O53_2 1_555 1_555
C57_2 O59 1_555 1_555
C58_2 O58 1_555 1_555
C59_2 O56_2 1_555 1_555
O16_2 Zn11 1_555 1_555
O20_2 Zn13 1_555 1_555
Zn11 N14_2 1_555 1_555
Zn13 N18_2 1_555 1_555
N14_2 C9_3 1_555 1_555
N18_2 C11_3 1_555 1_555
H7_3 C9_3 1_555 1_555
H9_3 C11_3 1_555 1_555
C27_2 N14_2 1_555 1_555
C31_2 N18_2 1_555 1_555
C50_2 O16_2 1_555 1_555
C54_2 O20_2 1_555 1_555
O47_2 Zn22_3 1_555 1_555
O51_2 Zn24_3 1_555 1_555
O63_3 Zn22_3 1_555 1_555
O73_5 Zn22_3 1_555 1_555
O74_5 Zn22_3 1_555 1_555
C27_2 C50_2 1_555 1_555
C31_2 C54_2 1_555 1_555
C50_2 O47_2 1_555 1_555
C54_2 O51_2 1_555 1_555
Zn2_3 O2_3 1_555 1_555
N31_2 C1_3 1_555 1_555
C1_3 H1_3 1_555 1_555
C2_3 N31_2 1_555 1_555
C3_3 O33_2 1_555 1_555
O2_3 C3_3 1_555 1_555
O3_3 Zn2_3 1_555 1_555
O5_3 Zn13_2 1_555 1_555
O6_3 Zn11_2 1_555 1_555
O15_2 Zn13_2 1_555 1_555
O19_2 Zn11_2 1_555 1_555
O23_3 Zn14_3 1_555 1_555
O24_3 Zn15_3 1_555 1_555
O25_3 Zn16_3 1_555 1_555
Zn13_2 N3_3 1_555 1_555
Zn11_2 N4_3 1_555 1_555
Zn14_3 N21_3 1_555 1_555
Zn15_3 N22_3 1_555 1_555
Zn16_3 N23_3 1_555 1_555
Zn18_2 O38_2 1_555 1_555
Zn20_2 O42_2 1_555 1_555
Zn22_4 O46_2 1_555 1_555
Zn24_4 O50_2 1_555 1_555
N27_2 C1_3 1_555 1_555
N3_3 C4_3 1_555 1_555
N4_3 C4_3 1_555 1_555
N28 C5_2 1_555 1_555
N32 C7_2 1_555 1_555
N13_2 Zn13_2 1_555 1_555
N17_2 Zn11_2 1_555 1_555
N21_3 C13_3 1_555 1_555
N22_3 C13_3 1_555 1_555
N23_3 C14_5 1_555 1_555
C4_3 H2_3 1_555 1_555
C5_2 N32_2 1_555 1_555
C7_2 N28_2 1_555 1_555
C9_4 N13_2 1_555 1_555
C11_4 N17_2 1_555 1_555
C13_3 H11_3 1_555 1_555
C14_5 H12_5 1_555 1_555
H3_2 C5_2 1_555 1_555
H5_2 C7_2 1_555 1_555
H7_4 C9_4 1_555 1_555
H9_4 C11_4 1_555 1_555
C15_3 C2_3 1_555 1_555
C16_3 N3_3 1_555 1_555
C17_3 N4_3 1_555 1_555
C18_2 N32_2 1_555 1_555
C19_2 N28 1_555 1_555
C22_2 N28_2 1_555 1_555
C23_2 N32 1_555 1_555
C26_2 N13_2 1_555 1_555
C30_2 N17_2 1_555 1_555
C34_3 N21_3 1_555 1_555
C35_3 N22_3 1_555 1_555
C36_3 N23_3 1_555 1_555
C38_3 O29_2 1_555 1_555
C39_3 O5_3 1_555 1_555
C40_3 O6_3 1_555 1_555
C41_2 O34_2 1_555 1_555
C42_2 O30 1_555 1_555
C45_2 O30_2 1_555 1_555
C46_2 O34 1_555 1_555
C49_2 O15_2 1_555 1_555
C53_2 O19_2 1_555 1_555
C57_3 O23_3 1_555 1_555
C58_3 O24_3 1_555 1_555
C59_3 O25_3 1_555 1_555
O35_3 Zn2_3 1_555 1_555
O36_3 Zn2_3 1_555 1_555
O37_3 Zn2_3 1_555 1_555
O38_2 C41_2 1_555 1_555
O39_2 Zn18_2 1_555 1_555
O42_2 C45_2 1_555 1_555
O43_2 Zn20_2 1_555 1_555
O46_2 C49_2 1_555 1_555
O50_2 C53_2 1_555 1_555
O54_2 Zn18_2 1_555 1_555
O55_2 Zn18_2 1_555 1_555
O58_2 Zn20_2 1_555 1_555
O59_2 Zn20_2 1_555 1_555
O62_3 Zn22_4 1_555 1_555
O64_3 Zn2_3 1_555 1_555
O65_2 Zn18_2 1_555 1_555
O66_2 Zn18_2 1_555 1_555
O69_2 Zn20_2 1_555 1_555
O70_2 Zn20_2 1_555 1_555
O73_6 Zn22_4 1_555 1_555
O74_6 Zn22_4 1_555 1_555
C2_3 C3_3 1_555 1_555
N27_2 C15_3 1_555 1_555
C15_3 C38_3 1_555 1_555
C16_3 C17_3 1_555 1_555
C16_3 C39_3 1_555 1_555
C17_3 C40_3 1_555 1_555
C18_2 C19_2 1_555 1_555
C18_2 C41_2 1_555 1_555
C19_2 C42_2 1_555 1_555
C22_2 C23_2 1_555 1_555
C22_2 C45_2 1_555 1_555
C23_2 C46_2 1_555 1_555
C26_2 C49_2 1_555 1_555
C30_2 C53_2 1_555 1_555
C34_3 C35_3 1_555 1_555
C34_3 C57_3 1_555 1_555
C35_3 C58_3 1_555 1_555
C36_3 C59_3 1_555 1_555
C38_3 O35_3 1_555 1_555
C39_3 O36_3 1_555 1_555
C40_3 O37_3 1_555 1_555
C42_2 O39_2 1_555 1_555
C46_2 O43_2 1_555 1_555
C57_3 O54_2 1_555 1_555
C58_3 O55_2 1_555 1_555
C59_3 O61_2 1_555 1_555
O26_3 Zn17_3 1_555 1_555
Zn17_3 N24_3 1_555 1_555
N24_3 C14_6 1_555 1_555
C14_6 H12_6 1_555 1_555
C37_3 N24_3 1_555 1_555
C60_3 O26_3 1_555 1_555
C37_3 C60_3 1_555 1_555
C60_3 O60_2 1_555 1_555
Zn2_4 O2_4 1_555 1_555
N31 C1_4 1_555 1_555
C1_4 H1_4 1_555 1_555
C2_4 N31 1_555 1_555
C3_4 O33 1_555 1_555
O2_4 C3_4 1_555 1_555
O3_4 Zn2_4 1_555 1_555
O5_4 Zn13 1_555 1_555
O6_4 Zn11 1_555 1_555
O23_4 Zn14_4 1_555 1_555
O24_4 Zn15_4 1_555 1_555
O25_4 Zn16_4 1_555 1_555
Zn13 N3_4 1_555 1_555
Zn11 N4_4 1_555 1_555
Zn14_4 N21_4 1_555 1_555
Zn15_4 N22_4 1_555 1_555
Zn16_4 N23_4 1_555 1_555
N27 C1_4 1_555 1_555
N3_4 C4_4 1_555 1_555
N4_4 C4_4 1_555 1_555
N21_4 C13_4 1_555 1_555
N22_4 C13_4 1_555 1_555
N23_4 C14_7 1_555 1_555
C4_4 H2_4 1_555 1_555
C13_4 H11_4 1_555 1_555
C14_7 H12_7 1_555 1_555
C15_4 C2_4 1_555 1_555
C16_4 N3_4 1_555 1_555
C17_4 N4_4 1_555 1_555
C34_4 N21_4 1_555 1_555
C35_4 N22_4 1_555 1_555
C36_4 N23_4 1_555 1_555
C38_4 O29 1_555 1_555
C39_4 O5_4 1_555 1_555
C40_4 O6_4 1_555 1_555
C57_4 O23_4 1_555 1_555
C58_4 O24_4 1_555 1_555
C59_4 O25_4 1_555 1_555
O35_4 Zn2_4 1_555 1_555
O36_4 Zn2_4 1_555 1_555
O37_4 Zn2_4 1_555 1_555
O62_4 Zn24_3 1_555 1_555
O64_4 Zn2_4 1_555 1_555
O73_7 Zn24_3 1_555 1_555
O74_7 Zn24_3 1_555 1_555
C2_4 C3_4 1_555 1_555
N27 C15_4 1_555 1_555
C15_4 C38_4 1_555 1_555
C16_4 C17_4 1_555 1_555
C16_4 C39_4 1_555 1_555
C17_4 C40_4 1_555 1_555
C34_4 C35_4 1_555 1_555
C34_4 C57_4 1_555 1_555
C35_4 C58_4 1_555 1_555
C36_4 C59_4 1_555 1_555
C38_4 O35_4 1_555 1_555
C39_4 O36_4 1_555 1_555
C40_4 O37_4 1_555 1_555
C57_4 O59_2 1_555 1_555
C58_4 O58_2 1_555 1_555
C59_4 O61 1_555 1_555
O26_4 Zn17_4 1_555 1_555
Zn17_4 N24_4 1_555 1_555
N24_4 C14_8 1_555 1_555
C14_8 H12_8 1_555 1_555
C37_4 N24_4 1_555 1_555
C60_4 O26_4 1_555 1_555
C37_4 C60_4 1_555 1_555
C60_4 O60 1_555 1_555
O63_4 Zn24_4 1_555 1_555
O73_8 Zn24_4 1_555 1_555
O74_8 Zn24_4 1_555 1_555
O26_5 Zn17_4 1_555 1_555
Zn17_4 N24_5 1_555 1_555
N24_5 C14_9 1_555 1_555
C14_9 H12_9 1_555 1_555
C37_5 N24_5 1_555 1_555
C60_5 O26_5 1_555 1_555
C37_5 C60_5 1_555 1_555
C60_5 O63_2 1_555 1_555
O3_5 Zn23_2 1_555 1_555
O5_5 Zn14_2 1_555 1_555
O6_5 Zn15_4 1_555 1_555
O15_3 Zn14_2 1_555 1_555
O19_3 Zn15_4 1_555 1_555
O25_5 Zn16_2 1_555 1_555
Zn14_2 N3_5 1_555 1_555
Zn15_4 N4_5 1_555 1_555
Zn16_2 N23_5 1_555 1_555
Zn22_5 O46_3 1_555 1_555
Zn24_5 O50_3 1_555 1_555
N3_5 C4_5 1_555 1_555
N4_5 C4_5 1_555 1_555
N13_3 Zn14_2 1_555 1_555
N17_3 Zn15_4 1_555 1_555
N23_5 C14_10 1_555 1_555
C4_5 H2_5 1_555 1_555
C9_5 N13_3 1_555 1_555
C11_5 N17_3 1_555 1_555
C14_10 H12_10 1_555 1_555
H7_5 C9_5 1_555 1_555
H9_5 C11_5 1_555 1_555
C16_5 N3_5 1_555 1_555
C17_5 N4_5 1_555 1_555
C26_3 N13_3 1_555 1_555
C30_3 N17_3 1_555 1_555
C36_5 N23_5 1_555 1_555
C39_5 O5_5 1_555 1_555
C40_5 O6_5 1_555 1_555
C49_3 O15_3 1_555 1_555
C53_3 O19_3 1_555 1_555
C59_5 O25_5 1_555 1_555
O36_5 Zn23_2 1_555 1_555
O37_5 Zn23_2 1_555 1_555
O46_3 C49_3 1_555 1_555
O50_3 C53_3 1_555 1_555
O62_5 Zn22_5 1_555 1_555
O64_5 Zn23_2 1_555 1_555
O73_9 Zn22_5 1_555 1_555
O74_9 Zn22_5 1_555 1_555
C16_5 C17_5 1_555 1_555
C16_5 C39_5 1_555 1_555
C17_5 C40_5 1_555 1_555
C26_3 C49_3 1_555 1_555
C30_3 C53_3 1_555 1_555
C36_5 C59_5 1_555 1_555
C39_5 O36_5 1_555 1_555
C40_5 O37_5 1_555 1_555
C59_5 O62_2 1_555 1_555
O16_3 Zn15 1_555 1_555
O20_3 Zn14_3 1_555 1_555
Zn15 N14_3 1_555 1_555
Zn14_3 N18_3 1_555 1_555
N14_3 C9_6 1_555 1_555
N18_3 C11_6 1_555 1_555
H7_6 C9_6 1_555 1_555
H9_6 C11_6 1_555 1_555
C27_3 N14_3 1_555 1_555
C31_3 N18_3 1_555 1_555
C50_3 O16_3 1_555 1_555
C54_3 O20_3 1_555 1_555
O47_3 Zn22_6 1_555 1_555
O51_3 Zn24_6 1_555 1_555
O63_5 Zn22_6 1_555 1_555
O73_10 Zn22_6 1_555 1_555
O74_10 Zn22_6 1_555 1_555
C27_3 C50_3 1_555 1_555
C31_3 C54_3 1_555 1_555
C50_3 O47_3 1_555 1_555
C54_3 O51_3 1_555 1_555
O26_6 Zn17 1_555 1_555
Zn17 N24_6 1_555 1_555
N24_6 C14_11 1_555 1_555
C14_11 H12_11 1_555 1_555
C37_6 N24_6 1_555 1_555
C60_6 O26_6 1_555 1_555
C37_6 C60_6 1_555 1_555
C60_6 O63_3 1_555 1_555
O63_6 Zn24_5 1_555 1_555
O73_11 Zn24_5 1_555 1_555
O74_11 Zn24_5 1_555 1_555
O3_6 Zn25_2 1_555 1_555
O5_6 Zn14_3 1_555 1_555
O6_6 Zn15 1_555 1_555
O25_6 Zn16_3 1_555 1_555
Zn14_3 N3_6 1_555 1_555
Zn15 N4_6 1_555 1_555
Zn16_3 N23_6 1_555 1_555
N3_6 C4_6 1_555 1_555
N4_6 C4_6 1_555 1_555
N23_6 C14_12 1_555 1_555
C4_6 H2_6 1_555 1_555
C14_12 H12_12 1_555 1_555
C16_6 N3_6 1_555 1_555
C17_6 N4_6 1_555 1_555
C36_6 N23_6 1_555 1_555
C39_6 O5_6 1_555 1_555
C40_6 O6_6 1_555 1_555
C59_6 O25_6 1_555 1_555
O36_6 Zn25_2 1_555 1_555
O37_6 Zn25_2 1_555 1_555
O62_6 Zn24_6 1_555 1_555
O64_6 Zn25_2 1_555 1_555
O73_12 Zn24_6 1_555 1_555
O74_12 Zn24_6 1_555 1_555
C16_6 C17_6 1_555 1_555
C16_6 C39_6 1_555 1_555
C17_6 C40_6 1_555 1_555
C36_6 C59_6 1_555 1_555
C39_6 O36_6 1_555 1_555
C40_6 O37_6 1_555 1_555
C59_6 O62_3 1_555 1_555
O16_4 Zn15_2 1_555 1_555
O20_4 Zn14_4 1_555 1_555
Zn15_2 N14_4 1_555 1_555
Zn14_4 N18_4 1_555 1_555
N14_4 C9_7 1_555 1_555
N18_4 C11_7 1_555 1_555
H7_7 C9_7 1_555 1_555
H9_7 C11_7 1_555 1_555
C27_4 N14_4 1_555 1_555
C31_4 N18_4 1_555 1_555
C50_4 O16_4 1_555 1_555
C54_4 O20_4 1_555 1_555
O47_4 Zn22_7 1_555 1_555
O51_4 Zn24_7 1_555 1_555
O63_7 Zn22_7 1_555 1_555
O73_13 Zn22_7 1_555 1_555
O74_13 Zn22_7 1_555 1_555
C27_4 C50_4 1_555 1_555
C31_4 C54_4 1_555 1_555
C50_4 O47_4 1_555 1_555
C54_4 O51_4 1_555 1_555
O3_7 Zn23 1_555 1_555
O5_7 Zn14 1_555 1_555
O6_7 Zn15_3 1_555 1_555
O15_4 Zn14 1_555 1_555
O19_4 Zn15_3 1_555 1_555
O25_7 Zn16 1_555 1_555
Zn14 N3_7 1_555 1_555
Zn15_3 N4_7 1_555 1_555
Zn16 N23_7 1_555 1_555
Zn22_8 O46_4 1_555 1_555
Zn24_8 O50_4 1_555 1_555
N3_7 C4_7 1_555 1_555
N4_7 C4_7 1_555 1_555
N13_4 Zn14 1_555 1_555
N17_4 Zn15_3 1_555 1_555
N23_7 C14_13 1_555 1_555
C4_7 H2_7 1_555 1_555
C9_8 N13_4 1_555 1_555
C11_8 N17_4 1_555 1_555
C14_13 H12_13 1_555 1_555
H7_8 C9_8 1_555 1_555
H9_8 C11_8 1_555 1_555
C16_7 N3_7 1_555 1_555
C17_7 N4_7 1_555 1_555
C26_4 N13_4 1_555 1_555
C30_4 N17_4 1_555 1_555
C36_7 N23_7 1_555 1_555
C39_7 O5_7 1_555 1_555
C40_7 O6_7 1_555 1_555
C49_4 O15_4 1_555 1_555
C53_4 O19_4 1_555 1_555
C59_7 O25_7 1_555 1_555
O36_7 Zn23 1_555 1_555
O37_7 Zn23 1_555 1_555
O46_4 C49_4 1_555 1_555
O50_4 C53_4 1_555 1_555
O62_7 Zn22_8 1_555 1_555
O64_7 Zn23 1_555 1_555
O73_14 Zn22_8 1_555 1_555
O74_14 Zn22_8 1_555 1_555
C16_7 C17_7 1_555 1_555
C16_7 C39_7 1_555 1_555
C17_7 C40_7 1_555 1_555
C26_4 C49_4 1_555 1_555
C30_4 C53_4 1_555 1_555
C36_7 C59_7 1_555 1_555
C39_7 O36_7 1_555 1_555
C40_7 O37_7 1_555 1_555
C59_7 O62 1_555 1_555
O26_7 Zn17_3 1_555 1_555
Zn17_3 N24_7 1_555 1_555
N24_7 C14_14 1_555 1_555
C14_14 H12_14 1_555 1_555
C37_7 N24_7 1_555 1_555
C60_7 O26_7 1_555 1_555
C37_7 C60_7 1_555 1_555
C60_7 O63 1_555 1_555
O3_8 Zn25 1_555 1_555
O5_8 Zn14_4 1_555 1_555
O6_8 Zn15_2 1_555 1_555
O25_8 Zn16_4 1_555 1_555
Zn14_4 N3_8 1_555 1_555
Zn15_2 N4_8 1_555 1_555
Zn16_4 N23_8 1_555 1_555
N3_8 C4_8 1_555 1_555
N4_8 C4_8 1_555 1_555
N23_8 C14_15 1_555 1_555
C4_8 H2_8 1_555 1_555
C14_15 H12_15 1_555 1_555
C16_8 N3_8 1_555 1_555
C17_8 N4_8 1_555 1_555
C36_8 N23_8 1_555 1_555
C39_8 O5_8 1_555 1_555
C40_8 O6_8 1_555 1_555
C59_8 O25_8 1_555 1_555
O36_8 Zn25 1_555 1_555
O37_8 Zn25 1_555 1_555
O62_8 Zn24_7 1_555 1_555
O64_8 Zn25 1_555 1_555
O73_15 Zn24_7 1_555 1_555
O74_15 Zn24_7 1_555 1_555
C16_8 C17_8 1_555 1_555
C16_8 C39_8 1_555 1_555
C17_8 C40_8 1_555 1_555
C36_8 C59_8 1_555 1_555
C39_8 O36_8 1_555 1_555
C40_8 O37_8 1_555 1_555
C59_8 O62_4 1_555 1_555
O63_8 Zn24_8 1_555 1_555
O73_16 Zn24_8 1_555 1_555
O74_16 Zn24_8 1_555 1_555
O26_8 Zn17_2 1_555 1_555
Zn17_2 N24_8 1_555 1_555
N24_8 C14_16 1_555 1_555
C14_16 H12_16 1_555 1_555
C37_8 N24_8 1_555 1_555
C60_8 O26_8 1_555 1_555
C37_8 C60_8 1_555 1_555
C60_8 O63_4 1_555 1_555
O26_9 Zn17_2 1_555 1_555
Zn17_2 N24_9 1_555 1_555
N24_9 C14_17 1_555 1_555
C14_17 H12_17 1_555 1_555
C37_9 N24_9 1_555 1_555
C60_9 O26_9 1_555 1_555
C37_9 C60_9 1_555 1_555
C60_9 O63_6 1_555 1_555
O25_9 Zn16_3 1_555 1_555
Zn16_3 N23_9 1_555 1_555
N23_9 C14_18 1_555 1_555
C14_18 H12_18 1_555 1_555
C36_9 N23_9 1_555 1_555
C59_9 O25_9 1_555 1_555
C36_9 C59_9 1_555 1_555
C59_9 O62_6 1_555 1_555
O26_10 Zn17_4 1_555 1_555
Zn17_4 N24_10 1_555 1_555
N24_10 C14_19 1_555 1_555
C14_19 H12_19 1_555 1_555
C37_10 N24_10 1_555 1_555
C60_10 O26_10 1_555 1_555
C37_10 C60_10 1_555 1_555
C60_10 O63_7 1_555 1_555
O25_10 Zn16 1_555 1_555
Zn16 N23_10 1_555 1_555
N23_10 C14_20 1_555 1_555
C14_20 H12_20 1_555 1_555
C36_10 N23_10 1_555 1_555
C59_10 O25_10 1_555 1_555
C36_10 C59_10 1_555 1_555
C59_10 O62_7 1_555 1_555
O25_11 Zn16_2 1_555 1_555
Zn16_2 N23_11 1_555 1_555
N23_11 C14_21 1_555 1_555
C14_21 H12_21 1_555 1_555
C36_11 N23_11 1_555 1_555
C59_11 O25_11 1_555 1_555
C36_11 C59_11 1_555 1_555
C59_11 O62_5 1_555 1_555
O26_11 Zn17_3 1_555 1_555
Zn17_3 N24_11 1_555 1_555
N24_11 C14_22 1_555 1_555
C14_22 H12_22 1_555 1_555
C37_11 N24_11 1_555 1_555
C60_11 O26_11 1_555 1_555
C37_11 C60_11 1_555 1_555
C60_11 O63_5 1_555 1_555
O25_12 Zn16_4 1_555 1_555
Zn16_4 N23_12 1_555 1_555
N23_12 C14_23 1_555 1_555
C14_23 H12_23 1_555 1_555
C36_12 N23_12 1_555 1_555
C59_12 O25_12 1_555 1_555
C36_12 C59_12 1_555 1_555
C59_12 O62_8 1_555 1_555
O26_12 Zn17 1_555 1_555
Zn17 N24_12 1_555 1_555
N24_12 C14_24 1_555 1_555
C14_24 H12_24 1_555 1_555
C37_12 N24_12 1_555 1_555
C60_12 O26_12 1_555 1_555
C37_12 C60_12 1_555 1_555
C60_12 O63_8 1_555 1_555
N33 H13 1_555 1_555
H14 N33 1_555 1_555
C61 N33 1_555 1_555
N34 C61 1_555 1_555
N35 C61 1_555 1_555
H15 N34 1_555 1_555
H16 N35 1_555 1_555
H17 N34 1_555 1_555
H18 N35 1_555 1_555
N33_2 H13_2 1_555 1_555
H14_2 N33_2 1_555 1_555
C61_2 N33_2 1_555 1_555
N34_2 C61_2 1_555 1_555
N35_2 C61_2 1_555 1_555
H15_2 N34_2 1_555 1_555
H16_2 N35_2 1_555 1_555
H17_2 N34_2 1_555 1_555
H18_2 N35_2 1_555 1_555
N33_3 H13_3 1_555 1_555
H14_3 N33_3 1_555 1_555
C61_3 N33_3 1_555 1_555
N34_3 C61_3 1_555 1_555
N35_3 C61_3 1_555 1_555
H15_3 N34_3 1_555 1_555
H16_3 N35_3 1_555 1_555
H17_3 N34_3 1_555 1_555
H18_3 N35_3 1_555 1_555
N33_4 H13_4 1_555 1_555
H14_4 N33_4 1_555 1_555
C61_4 N33_4 1_555 1_555
N34_4 C61_4 1_555 1_555
N35_4 C61_4 1_555 1_555
H15_4 N34_4 1_555 1_555
H16_4 N35_4 1_555 1_555
H17_4 N34_4 1_555 1_555
H18_4 N35_4 1_555 1_555
N33_5 H13_5 1_555 1_555
H14_5 N33_5 1_555 1_555
C61_5 N33_5 1_555 1_555
N34_5 C61_5 1_555 1_555
N35_5 C61_5 1_555 1_555
H15_5 N34_5 1_555 1_555
H16_5 N35_5 1_555 1_555
H17_5 N34_5 1_555 1_555
H18_5 N35_5 1_555 1_555
N33_6 H13_6 1_555 1_555
H14_6 N33_6 1_555 1_555
C61_6 N33_6 1_555 1_555
N34_6 C61_6 1_555 1_555
N35_6 C61_6 1_555 1_555
H15_6 N34_6 1_555 1_555
H16_6 N35_6 1_555 1_555
H17_6 N34_6 1_555 1_555
H18_6 N35_6 1_555 1_555
N33_7 H13_7 1_555 1_555
H14_7 N33_7 1_555 1_555
C61_7 N33_7 1_555 1_555
N34_7 C61_7 1_555 1_555
N35_7 C61_7 1_555 1_555
H15_7 N34_7 1_555 1_555
H16_7 N35_7 1_555 1_555
H17_7 N34_7 1_555 1_555
H18_7 N35_7 1_555 1_555
N33_8 H13_8 1_555 1_555
H14_8 N33_8 1_555 1_555
C61_8 N33_8 1_555 1_555
N34_8 C61_8 1_555 1_555
N35_8 C61_8 1_555 1_555
H15_8 N34_8 1_555 1_555
H16_8 N35_8 1_555 1_555
H17_8 N34_8 1_555 1_555
H18_8 N35_8 1_555 1_555
N33_9 H13_9 1_555 1_555
H14_9 N33_9 1_555 1_555
C61_9 N33_9 1_555 1_555
N34_9 C61_9 1_555 1_555
N35_9 C61_9 1_555 1_555
H15_9 N34_9 1_555 1_555
H16_9 N35_9 1_555 1_555
H17_9 N34_9 1_555 1_555
H18_9 N35_9 1_555 1_555
N33_10 H13_10 1_555 1_555
H14_10 N33_10 1_555 1_555
C61_10 N33_10 1_555 1_555
N34_10 C61_10 1_555 1_555
N35_10 C61_10 1_555 1_555
H15_10 N34_10 1_555 1_555
H16_10 N35_10 1_555 1_555
H17_10 N34_10 1_555 1_555
H18_10 N35_10 1_555 1_555
N33_11 H13_11 1_555 1_555
H14_11 N33_11 1_555 1_555
C61_11 N33_11 1_555 1_555
N34_11 C61_11 1_555 1_555
N35_11 C61_11 1_555 1_555
H15_11 N34_11 1_555 1_555
H16_11 N35_11 1_555 1_555
H17_11 N34_11 1_555 1_555
H18_11 N35_11 1_555 1_555
N33_12 H13_12 1_555 1_555
H14_12 N33_12 1_555 1_555
C61_12 N33_12 1_555 1_555
N34_12 C61_12 1_555 1_555
N35_12 C61_12 1_555 1_555
H15_12 N34_12 1_555 1_555
H16_12 N35_12 1_555 1_555
H17_12 N34_12 1_555 1_555
H18_12 N35_12 1_555 1_555
N33_13 H13_13 1_555 1_555
H14_13 N33_13 1_555 1_555
C61_13 N33_13 1_555 1_555
N34_13 C61_13 1_555 1_555
N35_13 C61_13 1_555 1_555
H15_13 N34_13 1_555 1_555
H16_13 N35_13 1_555 1_555
H17_13 N34_13 1_555 1_555
H18_13 N35_13 1_555 1_555
N33_14 H13_14 1_555 1_555
H14_14 N33_14 1_555 1_555
C61_14 N33_14 1_555 1_555
N34_14 C61_14 1_555 1_555
N35_14 C61_14 1_555 1_555
H15_14 N34_14 1_555 1_555
H16_14 N35_14 1_555 1_555
H17_14 N34_14 1_555 1_555
H18_14 N35_14 1_555 1_555
N33_15 H13_15 1_555 1_555
H14_15 N33_15 1_555 1_555
C61_15 N33_15 1_555 1_555
N34_15 C61_15 1_555 1_555
N35_15 C61_15 1_555 1_555
H15_15 N34_15 1_555 1_555
H16_15 N35_15 1_555 1_555
H17_15 N34_15 1_555 1_555
H18_15 N35_15 1_555 1_555
N33_16 H13_16 1_555 1_555
H14_16 N33_16 1_555 1_555
C61_16 N33_16 1_555 1_555
N34_16 C61_16 1_555 1_555
N35_16 C61_16 1_555 1_555
H15_16 N34_16 1_555 1_555
H16_16 N35_16 1_555 1_555
H17_16 N34_16 1_555 1_555
H18_16 N35_16 1_555 1_555
N33_17 H13_17 1_555 1_555
H14_17 N33_17 1_555 1_555
C61_17 N33_17 1_555 1_555
N34_17 C61_17 1_555 1_555
N35_17 C61_17 1_555 1_555
H15_17 N34_17 1_555 1_555
H16_17 N35_17 1_555 1_555
H17_17 N34_17 1_555 1_555
H18_17 N35_17 1_555 1_555
N33_18 H13_18 1_555 1_555
H14_18 N33_18 1_555 1_555
C61_18 N33_18 1_555 1_555
N34_18 C61_18 1_555 1_555
N35_18 C61_18 1_555 1_555
H15_18 N34_18 1_555 1_555
H16_18 N35_18 1_555 1_555
H17_18 N34_18 1_555 1_555
H18_18 N35_18 1_555 1_555
N33_19 H13_19 1_555 1_555
H14_19 N33_19 1_555 1_555
C61_19 N33_19 1_555 1_555
N34_19 C61_19 1_555 1_555
N35_19 C61_19 1_555 1_555
H15_19 N34_19 1_555 1_555
H16_19 N35_19 1_555 1_555
H17_19 N34_19 1_555 1_555
H18_19 N35_19 1_555 1_555
N33_20 H13_20 1_555 1_555
H14_20 N33_20 1_555 1_555
C61_20 N33_20 1_555 1_555
N34_20 C61_20 1_555 1_555
N35_20 C61_20 1_555 1_555
H15_20 N34_20 1_555 1_555
H16_20 N35_20 1_555 1_555
H17_20 N34_20 1_555 1_555
H18_20 N35_20 1_555 1_555
N33_21 H13_21 1_555 1_555
H14_21 N33_21 1_555 1_555
C61_21 N33_21 1_555 1_555
N34_21 C61_21 1_555 1_555
N35_21 C61_21 1_555 1_555
H15_21 N34_21 1_555 1_555
H16_21 N35_21 1_555 1_555
H17_21 N34_21 1_555 1_555
H18_21 N35_21 1_555 1_555
N33_22 H13_22 1_555 1_555
H14_22 N33_22 1_555 1_555
C61_22 N33_22 1_555 1_555
N34_22 C61_22 1_555 1_555
N35_22 C61_22 1_555 1_555
H15_22 N34_22 1_555 1_555
H16_22 N35_22 1_555 1_555
H17_22 N34_22 1_555 1_555
H18_22 N35_22 1_555 1_555
N33_23 H13_23 1_555 1_555
H14_23 N33_23 1_555 1_555
C61_23 N33_23 1_555 1_555
N34_23 C61_23 1_555 1_555
N35_23 C61_23 1_555 1_555
H15_23 N34_23 1_555 1_555
H16_23 N35_23 1_555 1_555
H17_23 N34_23 1_555 1_555
H18_23 N35_23 1_555 1_555
N33_24 H13_24 1_555 1_555
H14_24 N33_24 1_555 1_555
C61_24 N33_24 1_555 1_555
N34_24 C61_24 1_555 1_555
N35_24 C61_24 1_555 1_555
H15_24 N34_24 1_555 1_555
H16_24 N35_24 1_555 1_555
H17_24 N34_24 1_555 1_555
H18_24 N35_24 1_555 1_555
N33_25 H13_25 1_555 1_555
H14_25 N33_25 1_555 1_555
C61_25 N33_25 1_555 1_555
N34_25 C61_25 1_555 1_555
N35_25 C61_25 1_555 1_555
H15_25 N34_25 1_555 1_555
H16_25 N35_25 1_555 1_555
H17_25 N34_25 1_555 1_555
H18_25 N35_25 1_555 1_555
N33_26 H13_26 1_555 1_555
H14_26 N33_26 1_555 1_555
C61_26 N33_26 1_555 1_555
N34_26 C61_26 1_555 1_555
N35_26 C61_26 1_555 1_555
H15_26 N34_26 1_555 1_555
H16_26 N35_26 1_555 1_555
H17_26 N34_26 1_555 1_555
H18_26 N35_26 1_555 1_555
N33_27 H13_27 1_555 1_555
H14_27 N33_27 1_555 1_555
C61_27 N33_27 1_555 1_555
N34_27 C61_27 1_555 1_555
N35_27 C61_27 1_555 1_555
H15_27 N34_27 1_555 1_555
H16_27 N35_27 1_555 1_555
H17_27 N34_27 1_555 1_555
H18_27 N35_27 1_555 1_555
N33_28 H13_28 1_555 1_555
H14_28 N33_28 1_555 1_555
C61_28 N33_28 1_555 1_555
N34_28 C61_28 1_555 1_555
N35_28 C61_28 1_555 1_555
H15_28 N34_28 1_555 1_555
H16_28 N35_28 1_555 1_555
H17_28 N34_28 1_555 1_555
H18_28 N35_28 1_555 1_555
N33_29 H13_29 1_555 1_555
H14_29 N33_29 1_555 1_555
C61_29 N33_29 1_555 1_555
N34_29 C61_29 1_555 1_555
N35_29 C61_29 1_555 1_555
H15_29 N34_29 1_555 1_555
H16_29 N35_29 1_555 1_555
H17_29 N34_29 1_555 1_555
H18_29 N35_29 1_555 1_555
N33_30 H13_30 1_555 1_555
H14_30 N33_30 1_555 1_555
C61_30 N33_30 1_555 1_555
N34_30 C61_30 1_555 1_555
N35_30 C61_30 1_555 1_555
H15_30 N34_30 1_555 1_555
H16_30 N35_30 1_555 1_555
H17_30 N34_30 1_555 1_555
H18_30 N35_30 1_555 1_555
N33_31 H13_31 1_555 1_555
H14_31 N33_31 1_555 1_555
C61_31 N33_31 1_555 1_555
N34_31 C61_31 1_555 1_555
N35_31 C61_31 1_555 1_555
H15_31 N34_31 1_555 1_555
H16_31 N35_31 1_555 1_555
H17_31 N34_31 1_555 1_555
H18_31 N35_31 1_555 1_555
N33_32 H13_32 1_555 1_555
H14_32 N33_32 1_555 1_555
C61_32 N33_32 1_555 1_555
N34_32 C61_32 1_555 1_555
N35_32 C61_32 1_555 1_555
H15_32 N34_32 1_555 1_555
H16_32 N35_32 1_555 1_555
H17_32 N34_32 1_555 1_555
H18_32 N35_32 1_555 1_555

#END
