
###############################################################################
#
# This file contains modified crystal structure data generated from the
# MOF subset of the Cambridge Structural Database (CSD) v543 
# hosted by the Cambridge Crystallographic Data Centre (CCDC).
#
# This work is licensed under the Creative Commons
# Attribution-NonCommercial-ShareAlike 4.0 International License.
# To view a copy of this license, visit
# http://creativecommons.org/licenses/by-nc-sa/4.0/
# or send a letter to
# Creative Commons, PO Box 1866, Mountain View, CA 94042, USA.
#
# CIF created using the CSD Python API on 29 September 2022
# The structure has been converted into the P1 space group
# The structure has a 3D framework
# The original CSD entry LUXFEQ is in the rhombohedral crystal system
# The framework has been calculated to contain at least 10.0% void space
# The void calculation uses a probe of radius 1.32A, grid spacing 0.4
# The framework is charged, counterions have been retained in the structure
# H atom positions have been added when not included in the experimental data
# Generated hydrogen atom positions removed from atoms on special positions
#
###############################################################################

data_LUXFEQ
_chemical_formula_moiety         '(C540 H432 Cd69 N216 Na72 O522 21-)n'
_symmetry_cell_setting           triclinic
_symmetry_space_group_name_H-M   'P 1'
_symmetry_Int_Tables_number      1
_space_group_name_Hall           'P 1'
loop_
_symmetry_equiv_pos_site_id
_symmetry_equiv_pos_as_xyz
1 x,y,z
_cell_length_a                   40.637(5)
_cell_length_b                   40.637(5)
_cell_length_c                   39.063(7)
_cell_angle_alpha                90
_cell_angle_beta                 90
_cell_angle_gamma                120
_cell_volume                     55865
loop_
_atom_site_label
_atom_site_type_symbol
_atom_site_fract_x
_atom_site_fract_y
_atom_site_fract_z
Na11 Na 0.6376(4) 0.6859(3) 0.01313(17)
Cd1 Cd 0.65113(3) 0.51350(3) 0.48295(3)
Cd2 Cd 0.57231(4) 0.59041(4) 0.38568(3)
C1 C 0.5624(3) 0.4376(3) 0.4862(6)
H1 H 0.5498 0.4502 0.4949
N1 N 0.6001(4) 0.4553(4) 0.4793(3)
C2 C 0.6055(4) 0.4274(5) 0.4674(4)
C3 C 0.6433(6) 0.4383(6) 0.4567(5)
O1 O 0.6706(4) 0.4718(4) 0.4587(4)
O2 O 0.6502(4) 0.4118(4) 0.4450(4)
C4 C 0.6004(5) 0.5449(5) 0.4402(5)
H2 H 0.5761 0.5261 0.4482
N2 N 0.6317(4) 0.5464(4) 0.4494(3)
C5 C 0.6606(5) 0.5764(5) 0.4317(5)
C6 C 0.6430(6) 0.5923(5) 0.4127(4)
N3 N 0.6055(4) 0.5724(4) 0.4182(4)
C7 C 0.6594(7) 0.6247(7) 0.3892(5)
O3 O 0.6348(4) 0.6282(3) 0.3713(3)
O4 O 0.6939(4) 0.6489(6) 0.3866(3)
O5 O 0.7032(3) 0.5599(4) 0.4553(4)
C8 C 0.6996(5) 0.5831(7) 0.4362(5)
O6 O 0.7265(4) 0.6097(5) 0.4220(5)
C9 C 0.6095(5) 0.5374(5) 0.5446(5)
H3 H 0.5883 0.5342 0.5316
N4 N 0.6164(4) 0.5506(4) 0.5769(4)
N5 N 0.6356(4) 0.5293(4) 0.5326(4)
C10 C 0.6485(5) 0.5510(5) 0.5875(5)
C11 C 0.6603(5) 0.5382(5) 0.5594(5)
C12 C 0.6931(5) 0.5318(6) 0.5523(7)
C13 C 0.6633(6) 0.5625(7) 0.6213(6)
O7 O 0.6969(4) 0.5217(4) 0.5251(3)
O8 O 0.7148(4) 0.5400(5) 0.5808(4)
O9 O 0.6464(4) 0.5741(4) 0.6414(3)
O10 O 0.6934(5) 0.5619(4) 0.6294(3)
C14 C 0.4908(3) 0.5092(3) 0.3953(7)
H4 H 0.4890 0.5110 0.4194
C15 C 0.5377(7) 0.5485(10) 0.3173(5)
C16 C 0.5106(4) 0.5238(4) 0.3453(5)
N6 N 0.5194(4) 0.5351(4) 0.3772(3)
O11 O 0.5654(4) 0.5775(6) 0.3242(3)
O12 O 0.5270(3) 0.5340(4) 0.2857(3)
Na1 Na 0.6183(2) 0.6474(3) 0.32020(17)
Na2 Na 0.7520(2) 0.6712(4) 0.4087(2)
O13 O 0.6667(5) 0.7112 0.3333
O14 O 0.5784(6) 0.6427(9) 0.2728(5)
O15 O 0.753(3) 0.675(3) 0.470(2)
Cd3 Cd 0.48650(3) 0.34887(3) 0.48295(3)
Cd4 Cd 0.68220(3) 0.52904(4) 0.18372(3)
Cd5 Cd 0.51350(3) 0.65113(3) 0.51705(3)
Cd6 Cd 0.52904(4) 0.68220(3) 0.81628(3)
Cd7 Cd 0.81983(3) 0.80430(4) 0.14962(3)
Cd8 Cd 0.84683(3) 0.52904(4) 0.18372(3)
Cd9 Cd 0.34887(3) 0.48650(3) 0.51705(3)
Cd10 Cd 0.59041(4) 0.57231(4) 0.61432(3)
Cd11 Cd 0.76102(4) 0.68477(6) 0.28099(3)
Cd12 Cd 0.40959(4) 0.42769(4) 0.38568(3)
Cd13 Cd 0.68477(6) 0.76102(4) 0.71901(3)
Cd14 Cd 0.42769(4) 0.40959(4) 0.61432(3)
Cd15 Cd 0.92374(4) 0.68477(6) 0.28099(3)
Cd16 Cd 0.74292(4) 0.64857(6) 0.05235(3)
Cd17 Cd 0.64857(6) 0.74292(4) 0.94765(3)
C17 C 0.7709(3) 0.5419(4) 0.1805(6)
C18 C 0.4376(3) 0.5624(3) 0.5138(6)
H5 H 0.7835 0.5671 0.1718
H6 H 0.4502 0.5498 0.5051
N7 N 0.5447(4) 0.3999(4) 0.4793(3)
N8 N 0.7332(4) 0.5219(6) 0.1874(3)
N9 N 0.7886(4) 0.5219(6) 0.1874(3)
N10 N 0.4553(4) 0.6001(4) 0.5207(3)
N11 N 0.3999(4) 0.5447(4) 0.5207(3)
N12 N 0.5219(6) 0.7332(4) 0.8126(3)
N13 N 0.8780(4) 0.8115(6) 0.1460(3)
C19 C 0.5726(5) 0.3945(4) 0.4674(4)
C20 C 0.7278(4) 0.4886(6) 0.1993(4)
C21 C 0.7607(5) 0.4886(6) 0.1993(4)
C22 C 0.4274(5) 0.6055(4) 0.5326(4)
C23 C 0.3945(4) 0.5726(5) 0.5326(4)
C24 C 0.5617(6) 0.3567(6) 0.4567(5)
C25 C 0.6900(6) 0.4617(8) 0.2100(5)
C26 C 0.7716(6) 0.4617(8) 0.2100(5)
C27 C 0.4383(6) 0.6433(6) 0.5433(5)
C28 C 0.3567(6) 0.5617(6) 0.5433(5)
O16 O 0.5282(4) 0.3294(4) 0.4587(4)
O17 O 0.6627(4) 0.4679(6) 0.2080(4)
O18 O 0.8051(4) 0.4679(6) 0.2080(4)
O19 O 0.4718(4) 0.6706(4) 0.5413(4)
O20 O 0.3294(4) 0.5282(4) 0.5413(4)
O21 O 0.4679(6) 0.6627(4) 0.7920(4)
O22 O 0.8615(4) 0.8655(6) 0.1254(4)
O23 O 0.5882(4) 0.3498(4) 0.4450(4)
O24 O 0.6831(4) 0.4283(6) 0.2217(4)
O25 O 0.7451(4) 0.4283(6) 0.2217(4)
O26 O 0.4118(4) 0.6502(4) 0.5550(4)
O27 O 0.3498(4) 0.5882(4) 0.5550(4)
C29 C 0.7329(5) 0.6112(7) 0.2265(5)
C30 C 0.4551(5) 0.3996(5) 0.4402(5)
C31 C 0.5449(5) 0.6004(5) 0.5598(5)
C32 C 0.6112(7) 0.7329(5) 0.7735(5)
C33 C 0.7884(5) 0.7222(7) 0.1069(5)
H7 H 0.7572 0.6167 0.2185
H8 H 0.4739 0.4239 0.4482
H9 H 0.5261 0.5761 0.5518
H10 H 0.6167 0.7572 0.7815
H11 H 0.8072 0.7167 0.1149
N14 N 0.7016(4) 0.5814(6) 0.2173(3)
N15 N 0.4536(4) 0.3683(4) 0.4494(3)
N16 N 0.5464(4) 0.6317(4) 0.5506(3)
N17 N 0.5814(6) 0.7016(4) 0.7827(3)
N18 N 0.7869(4) 0.7520(6) 0.1161(3)
C34 C 0.6727(5) 0.5825(7) 0.2350(5)
C35 C 0.4236(5) 0.3394(5) 0.4317(5)
C36 C 0.5764(5) 0.6606(5) 0.5683(5)
C37 C 0.5825(7) 0.6727(5) 0.7650(5)
C38 C 0.7569(5) 0.7509(7) 0.0984(5)
C39 C 0.6903(6) 0.6160(8) 0.2540(4)
C40 C 0.4077(5) 0.3570(6) 0.4127(4)
C41 C 0.5923(5) 0.6430(6) 0.5873(4)
C42 C 0.6160(8) 0.6903(6) 0.7460(4)
C43 C 0.7410(5) 0.7174(8) 0.0794(4)
N19 N 0.7278(4) 0.6336(6) 0.2485(4)
N20 N 0.4276(4) 0.3945(4) 0.4182(4)
N21 N 0.5724(4) 0.6055(4) 0.5818(4)
N22 N 0.6336(6) 0.7278(4) 0.7515(4)
N23 N 0.7609(4) 0.6998(6) 0.0849(4)
N24 N 0.3945(4) 0.4276(4) 0.5818(4)
C44 C 0.6739(7) 0.6320(10) 0.2775(5)
C45 C 0.3753(7) 0.3406(7) 0.3892(5)
C46 C 0.6247(7) 0.6594(7) 0.6108(5)
C47 C 0.6320(10) 0.6739(7) 0.7225(5)
C48 C 0.7086(7) 0.7014(10) 0.0559(5)
O28 O 0.6985(4) 0.6601(5) 0.2954(3)
O29 O 0.3718(3) 0.3652(4) 0.3713(3)
O30 O 0.6282(3) 0.6348(4) 0.6287(3)
O31 O 0.6601(5) 0.6985(4) 0.7046(3)
O32 O 0.7051(3) 0.6733(5) 0.0380(3)
O33 O 0.3652(4) 0.3718(3) 0.6287(3)
O34 O 0.3399(5) 0.3015(4) 0.2954(3)
O35 O 0.6394(4) 0.6217(7) 0.2801(3)
O36 O 0.3511(6) 0.3061(4) 0.3866(3)
O37 O 0.6489(6) 0.6939(4) 0.6134(3)
O38 O 0.6217(7) 0.6394(4) 0.7199(3)
O39 O 0.6844(6) 0.7117(7) 0.0533(3)
O40 O 0.3783(7) 0.3606(4) 0.2801(3)
O41 O 0.6301(3) 0.5234(5) 0.2114(4)
O42 O 0.4401(4) 0.2968(3) 0.4553(4)
O43 O 0.5599(4) 0.7032(3) 0.5447(4)
O44 O 0.5234(5) 0.6301(3) 0.7886(4)
O45 O 0.7734(4) 0.8100(5) 0.1220(4)
C49 C 0.6337(5) 0.5502(9) 0.2305(5)
C50 C 0.4169(7) 0.3004(5) 0.4362(5)
C51 C 0.5831(7) 0.6996(5) 0.5638(5)
C52 C 0.5502(9) 0.6337(5) 0.7695(5)
C53 C 0.7502(7) 0.7832(9) 0.1029(5)
O46 O 0.6068(4) 0.5499(6) 0.2447(5)
O47 O 0.3903(5) 0.2735(4) 0.4220(5)
O48 O 0.6097(5) 0.7265(4) 0.5780(5)
O49 O 0.5499(6) 0.6068(4) 0.7553(5)
O50 O 0.7236(5) 0.7835(6) 0.0887(5)
O51 O 0.4501(6) 0.3932(4) 0.2447(5)
C54 C 0.5374(5) 0.6095(5) 0.4554(5)
C55 C 0.4626(5) 0.3905(5) 0.5446(5)
C56 C 0.7959(5) 0.7388(7) 0.2113(5)
C57 C 0.7238(5) 0.5946(7) 0.1221(5)
C58 C 0.5946(7) 0.7238(5) 0.8779(5)
H12 H 0.5342 0.5883 0.4684
H13 H 0.4658 0.4117 0.5316
H14 H 0.7991 0.7208 0.1983
H15 H 0.7450 0.6126 0.1351
H16 H 0.6126 0.7450 0.8649
N25 N 0.5506(4) 0.6164(4) 0.4231(4)
N26 N 0.4494(4) 0.3836(4) 0.5769(4)
N27 N 0.7827(4) 0.7325(6) 0.2436(4)
N28 N 0.7169(4) 0.6009(6) 0.0898(4)
N29 N 0.6009(6) 0.7169(4) 0.9102(4)
N30 N 0.3836(4) 0.4494(4) 0.4231(4)
N31 N 0.7325(6) 0.7827(4) 0.7564(4)
N32 N 0.5293(4) 0.6356(4) 0.4674(4)
N33 N 0.4707(4) 0.3644(4) 0.5326(4)
N34 N 0.8040(4) 0.7730(6) 0.1993(4)
N35 N 0.6977(4) 0.5604(6) 0.1341(4)
N36 N 0.5604(6) 0.6977(4) 0.8659(4)
C59 C 0.5510(5) 0.6485(5) 0.4125(5)
C60 C 0.4490(5) 0.3515(5) 0.5875(5)
C61 C 0.7823(5) 0.7642(7) 0.2542(5)
C62 C 0.6848(5) 0.5692(7) 0.0792(5)
C63 C 0.5692(7) 0.6848(5) 0.9208(5)
C64 C 0.5382(5) 0.6603(5) 0.4406(5)
C65 C 0.4618(5) 0.3397(5) 0.5594(5)
C66 C 0.7951(5) 0.7888(7) 0.2261(5)
C67 C 0.6730(5) 0.5446(7) 0.1073(5)
C68 C 0.5446(7) 0.6730(5) 0.8927(5)
C69 C 0.5318(6) 0.6931(5) 0.4477(7)
C70 C 0.4682(6) 0.3069(5) 0.5523(7)
C71 C 0.8015(6) 0.8280(8) 0.2190(7)
C72 C 0.6402(5) 0.5054(8) 0.1144(7)
C73 C 0.5054(8) 0.6402(5) 0.8856(7)
C74 C 0.5625(7) 0.6633(6) 0.3787(6)
C75 C 0.4375(7) 0.3367(6) 0.6213(6)
C76 C 0.7708(7) 0.7675(9) 0.2880(6)
C77 C 0.6700(6) 0.5659(9) 0.0454(6)
C78 C 0.5659(9) 0.6700(6) 0.9546(6)
O52 O 0.5217(4) 0.6969(4) 0.4749(3)
O53 O 0.4783(4) 0.3031(4) 0.5251(3)
O54 O 0.8116(4) 0.8419(6) 0.1918(3)
O55 O 0.6364(4) 0.4915(6) 0.1416(3)
O56 O 0.4915(6) 0.6364(4) 0.8584(3)
O57 O 0.5400(5) 0.7148(4) 0.4192(4)
O58 O 0.4600(5) 0.2852(4) 0.5808(4)
O59 O 0.7933(5) 0.8415(6) 0.2475(4)
O60 O 0.6185(4) 0.4919(6) 0.0859(4)
O61 O 0.4919(6) 0.6185(4) 0.9141(4)
O62 O 0.5741(4) 0.6464(4) 0.3586(3)
O63 O 0.4259(4) 0.3536(4) 0.6414(3)
O64 O 0.7592(4) 0.7390(6) 0.3081(3)
O65 O 0.6869(4) 0.5944(6) 0.0253(3)
O66 O 0.5944(6) 0.6869(4) 0.9747(3)
O67 O 0.3536(4) 0.4259(4) 0.3586(3)
O68 O 0.7390(6) 0.7592(4) 0.6919(3)
O69 O 0.2610(6) 0.2408(4) 0.3081(3)
O70 O 0.5619(4) 0.6934(5) 0.3706(3)
O71 O 0.4381(4) 0.3066(5) 0.6294(3)
O72 O 0.7714(4) 0.7982(6) 0.2961(3)
O73 O 0.6399(5) 0.5352(6) 0.0373(3)
O74 O 0.5352(6) 0.6399(5) 0.9627(3)
C79 C 0.8425(3) 0.6851(4) 0.2714(7)
C80 C 0.5092(3) 0.4908(3) 0.6047(7)
H17 H 0.8443 0.6887 0.2473
H18 H 0.5110 0.4890 0.5806
C81 C 0.4515(10) 0.4623(7) 0.3173(5)
C82 C 0.7956(7) 0.6775(12) 0.3494(5)
C83 C 0.8818(10) 0.6775(12) 0.3494(5)
C84 C 0.5485(10) 0.5377(7) 0.6827(5)
C85 C 0.4623(7) 0.4515(10) 0.6827(5)
C86 C 0.4762(4) 0.4894(4) 0.3453(5)
C87 C 0.8227(4) 0.6799(6) 0.3214(5)
C88 C 0.8571(4) 0.6799(6) 0.3214(5)
C89 C 0.5238(4) 0.5106(4) 0.6547(5)
C90 C 0.4894(4) 0.4762(4) 0.6547(5)
N37 N 0.4649(4) 0.4806(4) 0.3772(3)
N38 N 0.8139(4) 0.6824(6) 0.2895(3)
N39 N 0.8684(4) 0.6824(6) 0.2895(3)
N40 N 0.5351(4) 0.5194(4) 0.6228(3)
N41 N 0.4806(4) 0.4649(4) 0.6228(3)
N42 N 0.6824(6) 0.8139(4) 0.7105(3)
O75 O 0.4225(6) 0.4346(4) 0.3242(3)
O76 O 0.7679(4) 0.6788(7) 0.3425(3)
O77 O 0.9108(6) 0.6788(7) 0.3425(3)
O78 O 0.5775(6) 0.5654(4) 0.6758(3)
O79 O 0.4346(4) 0.4225(6) 0.6758(3)
O80 O 0.6788(7) 0.7679(4) 0.6575(3)
O81 O 0.3212(7) 0.2321(4) 0.3425(3)
O82 O 0.4660(4) 0.4730(3) 0.2857(3)
O83 O 0.8063(3) 0.6737(5) 0.3810(3)
O84 O 0.8673(4) 0.6737(5) 0.3810(3)
O85 O 0.5340(4) 0.5270(3) 0.7143(3)
O86 O 0.4730(3) 0.4660(4) 0.7143(3)
O87 O 0.3263(5) 0.1937(3) 0.3810(3)
O88 O 0.6737(5) 0.8063(3) 0.6190(3)
Na3 Na 0.7150(2) 0.6958(4) 0.34647(17)
Na4 Na 0.6474(3) 0.6183(2) 0.67980(17)
Na5 Na 0.3526(3) 0.3817(2) 0.32020(17)
Na6 Na 0.6958(4) 0.7150(2) 0.65353(17)
Na7 Na 0.3042(4) 0.2850(2) 0.34647(17)
Na8 Na 0.9807(3) 0.6958(4) 0.34647(17)
Na9 Na 0.3817(2) 0.3526(3) 0.67980(17)
Na13 Na 0.5813(2) 0.5859(4) 0.2580(2)
Na14 Na 0.3288(4) 0.2480(2) 0.4087(2)
Na15 Na 0.6712(4) 0.7520(2) 0.5913(2)
Na16 Na 0.5859(4) 0.5813(2) 0.7420(2)
Na17 Na 0.4141(4) 0.4187(2) 0.2580(2)
Na18 Na 0.9192(4) 0.6712(4) 0.4087(2)
Na19 Na 0.4187(2) 0.4141(4) 0.7420(2)
Na20 Na 0.6621(4) 0.7475(4) 0.0754(2)
O89 O 0.7112 0.6667(5) 0.6667
O90 O 0.2888 0.3333(5) 0.3333
O91 O 0.7549(6) 0.7310(11) 0.3939(5)
O92 O 0.6427(9) 0.5784(6) 0.7272(5)
O93 O 0.3573(9) 0.4216(6) 0.2728(5)
O94 O 0.7310(11) 0.7549(6) 0.6061(5)
O95 O 0.2690(11) 0.2451(6) 0.3939(5)
O96 O 0.580(3) 0.589(4) 0.197(2)
O97 O 0.325(3) 0.247(3) 0.470(2)
O98 O 0.675(3) 0.753(3) 0.530(2)
O99 O 0.589(4) 0.580(3) 0.803(2)
O100 O 0.411(4) 0.420(3) 0.197(2)
H19 H 0.699224 0.523241 0.599831
H20 H 0.634178 0.399554 0.424544
H21 H 0.60762 0.35583 0.46304
H22 H 0.725713 0.414877 0.203627
H25 H 0.699155 0.432042 0.242122
H26 H 0.399554 0.634178 0.575456
H27 H 0.35583 0.60762 0.53696
H28 H 0.490683 0.634109 0.933164
H29 H 0.810093 0.84265 0.266498
H30 H 0.634109 0.490683 0.0668355
H31 H 0.433038 0.275377 0.587256
H32 H 0.523241 0.699224 0.400169
Na10 Na 0.6859(3) 0.6376(4) 0.98687(17)
Cd1_2 Cd 0.48650(3) 0.13763(4) 0.48295(3)
C1_2 C 0.5624(3) 0.1248(4) 0.4862(6)
H1_2 H 0.5498 0.0996 0.4949
N1_2 N 0.5447(4) 0.1448(6) 0.4793(3)
C2_2 C 0.5726(5) 0.1781(6) 0.4674(4)
C3_2 C 0.5617(6) 0.2050(8) 0.4567(5)
O1_2 O 0.5282(4) 0.1988(6) 0.4587(4)
O2_2 O 0.5882(4) 0.2384(6) 0.4450(4)
C4_2 C 0.4551(5) 0.0555(7) 0.4402(5)
H2_2 H 0.4739 0.0500 0.4482
N2_2 N 0.4536(4) 0.0853(6) 0.4494(3)
C5_2 C 0.4236(5) 0.0842(7) 0.4317(5)
C6_2 C 0.4077(5) 0.0507(8) 0.4127(4)
N3_2 N 0.4276(4) 0.0331(6) 0.4182(4)
C7_2 C 0.3753(7) 0.0347(10) 0.3892(5)
O3_2 O 0.3718(3) 0.0066(5) 0.3713(3)
O4_2 O 0.3511(6) 0.0450(7) 0.3866(3)
O5_2 O 0.4401(4) 0.1433(5) 0.4553(4)
C8_2 C 0.4169(7) 0.1165(9) 0.4362(5)
O6_2 O 0.3903(5) 0.1168(6) 0.4220(5)
C9_2 C 0.4626(5) 0.0721(7) 0.5446(5)
H3_2 H 0.4658 0.0541 0.5316
N4_2 N 0.4494(4) 0.0658(6) 0.5769(4)
N5_2 N 0.4707(4) 0.1063(6) 0.5326(4)
C10_2 C 0.4490(5) 0.0975(7) 0.5875(5)
C11_2 C 0.4618(5) 0.1221(7) 0.5594(5)
C12_2 C 0.4682(6) 0.1613(8) 0.5523(7)
C13_2 C 0.4375(7) 0.1008(9) 0.6213(6)
O7_2 O 0.4783(4) 0.1752(6) 0.5251(3)
O8_2 O 0.4600(5) 0.1748(6) 0.5808(4)
O9_2 O 0.4259(4) 0.0723(6) 0.6414(3)
O10_2 O 0.4381(4) 0.1315(6) 0.6294(3)
Na2_2 Na 0.3288(4) 0.0808(4) 0.4087(2)
O15_2 O 0.325(3) 0.078(4) 0.470(2)
Cd3_2 Cd 0.65113(3) 0.13763(4) 0.48295(3)
Cd4_2 Cd 0.47096(4) 0.15317(5) 0.18372(3)
Cd7_2 Cd 0.19570(4) 0.01554(5) 0.14962(3)
Cd8_2 Cd 0.47096(4) 0.31780(5) 0.18372(3)
Cd10_2 Cd 0.42769(4) 0.01810(6) 0.61432(3)
Cd11_2 Cd 0.31523(6) 0.07626(7) 0.28099(3)
Cd14_2 Cd 0.59041(4) 0.01810(6) 0.61432(3)
Cd15_2 Cd 0.31523(6) 0.23898(7) 0.28099(3)
Cd16_2 Cd 0.35143(6) 0.09436(7) 0.05235(3)
C17_2 C 0.4581(4) 0.2291(5) 0.1805(6)
H5_2 H 0.4329 0.2165 0.1718
N7_2 N 0.6001(4) 0.1448(6) 0.4793(3)
N8_2 N 0.4781(6) 0.2114(7) 0.1874(3)
N9_2 N 0.4781(6) 0.2668(7) 0.1874(3)
N13_2 N 0.1885(6) 0.0666(7) 0.1460(3)
C19_2 C 0.6055(4) 0.1781(6) 0.4674(4)
C20_2 C 0.5114(6) 0.2393(7) 0.1993(4)
C21_2 C 0.5114(6) 0.2722(8) 0.1993(4)
C24_2 C 0.6433(6) 0.2050(8) 0.4567(5)
C25_2 C 0.5383(8) 0.2284(10) 0.2100(5)
C26_2 C 0.5383(8) 0.3100(10) 0.2100(5)
O16_2 O 0.6706(4) 0.1988(6) 0.4587(4)
O17_2 O 0.5321(6) 0.1949(7) 0.2080(4)
O18_2 O 0.5321(6) 0.3373(7) 0.2080(4)
O23_2 O 0.6502(4) 0.2384(6) 0.4450(4)
O24_2 O 0.5717(6) 0.2549(7) 0.2217(4)
O25_2 O 0.5717(6) 0.3169(7) 0.2217(4)
C29_2 C 0.3888(7) 0.1218(9) 0.2265(5)
C30_2 C 0.6004(5) 0.0555(7) 0.4402(5)
C33_2 C 0.2778(7) 0.0663(9) 0.1069(5)
H7_2 H 0.3833 0.1406 0.2185
H8_2 H 0.5761 0.0500 0.4482
H11_2 H 0.2833 0.0906 0.1149
N14_2 N 0.4186(6) 0.1203(7) 0.2173(3)
N15_2 N 0.6317(4) 0.0853(6) 0.4494(3)
N18_2 N 0.2480(6) 0.0350(7) 0.1161(3)
C34_2 C 0.4175(7) 0.0903(9) 0.2350(5)
C35_2 C 0.6606(5) 0.0842(7) 0.4317(5)
C38_2 C 0.2491(7) 0.0061(9) 0.0984(5)
C39_2 C 0.3840(8) 0.0744(10) 0.2540(4)
C40_2 C 0.6430(6) 0.0507(8) 0.4127(4)
C43_2 C 0.2826(8) 0.0237(9) 0.0794(4)
N19_2 N 0.3664(6) 0.0943(7) 0.2485(4)
N20_2 N 0.6055(4) 0.0331(6) 0.4182(4)
N23_2 N 0.3002(6) 0.0612(7) 0.0849(4)
C44_2 C 0.3680(10) 0.0420(12) 0.2775(5)
C45_2 C 0.6594(7) 0.0347(10) 0.3892(5)
C48_2 C 0.2986(10) 0.0073(12) 0.0559(5)
O28_2 O 0.3399(5) 0.0385(6) 0.2954(3)
O29_2 O 0.6348(4) 0.0066(5) 0.3713(3)
O32_2 O 0.3267(5) 0.0319(6) 0.0380(3)
O34_2 O 0.6985(4) 0.0385(6) 0.2954(3)
O35_2 O 0.3783(7) 0.0178(8) 0.2801(3)
O36_2 O 0.6939(4) 0.0450(7) 0.3866(3)
O40_2 O 0.6394(4) 0.0178(8) 0.2801(3)
O41_2 O 0.4766(5) 0.1068(6) 0.2114(4)
O42_2 O 0.7032(3) 0.1433(5) 0.4553(4)
C49_2 C 0.4498(9) 0.0836(10) 0.2305(5)
C50_2 C 0.6996(5) 0.1165(9) 0.4362(5)
O46_2 O 0.4501(6) 0.0570(7) 0.2447(5)
O47_2 O 0.7265(4) 0.1168(6) 0.4220(5)
O51_2 O 0.6068(4) 0.0570(7) 0.2447(5)
C55_2 C 0.6095(5) 0.0721(7) 0.5446(5)
C56_2 C 0.2612(7) 0.0572(9) 0.2113(5)
C57_2 C 0.4054(7) 0.1293(9) 0.1221(5)
H13_2 H 0.5883 0.0541 0.5316
H14_2 H 0.2792 0.0784 0.1983
H15_2 H 0.3874 0.1325 0.1351
N26_2 N 0.6164(4) 0.0658(6) 0.5769(4)
N27_2 N 0.2675(6) 0.0503(7) 0.2436(4)
N28_2 N 0.3991(6) 0.1161(7) 0.0898(4)
N33_2 N 0.6356(4) 0.1063(6) 0.5326(4)
N34_2 N 0.2270(6) 0.0311(7) 0.1993(4)
N35_2 N 0.4396(6) 0.1374(7) 0.1341(4)
C60_2 C 0.6485(5) 0.0975(7) 0.5875(5)
C61_2 C 0.2358(7) 0.0182(9) 0.2542(5)
C62_2 C 0.4308(7) 0.1157(9) 0.0792(5)
C65_2 C 0.6603(5) 0.1221(7) 0.5594(5)
C66_2 C 0.2112(7) 0.0064(9) 0.2261(5)
C67_2 C 0.4554(7) 0.1285(9) 0.1073(5)
C70_2 C 0.6931(5) 0.1613(8) 0.5523(7)
C72_2 C 0.4946(8) 0.1349(9) 0.1144(7)
C75_2 C 0.6633(6) 0.1008(9) 0.6213(6)
C76_2 C 0.2325(9) 0.0034(11) 0.2880(6)
C77_2 C 0.4341(9) 0.1042(11) 0.0454(6)
O53_2 O 0.6969(4) 0.1752(6) 0.5251(3)
O55_2 O 0.5085(6) 0.1450(7) 0.1416(3)
O58_2 O 0.7148(4) 0.1748(6) 0.5808(4)
O60_2 O 0.5081(6) 0.1267(7) 0.0859(4)
O63_2 O 0.6464(4) 0.0723(6) 0.6414(3)
O64_2 O 0.2610(6) 0.0203(7) 0.3081(3)
O65_2 O 0.4056(6) 0.0926(7) 0.0253(3)
O69_2 O 0.7592(4) 0.0203(7) 0.3081(3)
O71_2 O 0.6934(5) 0.1315(6) 0.6294(3)
O73_2 O 0.4648(6) 0.1048(8) 0.0373(3)
C79_2 C 0.3149(4) 0.1575(5) 0.2714(7)
C80_2 C 0.5092(3) 0.0184(4) 0.6047(7)
H17_2 H 0.3113 0.1557 0.2473
H18_2 H 0.5110 0.0220 0.5806
C82_2 C 0.3225(12) 0.1182(14) 0.3494(5)
C83_2 C 0.3225(12) 0.2044(16) 0.3494(5)
C84_2 C 0.4623(7) 0.0108(12) 0.6827(5)
C85_2 C 0.5485(10) 0.0108(12) 0.6827(5)
C87_2 C 0.3201(6) 0.1429(7) 0.3214(5)
C88_2 C 0.3201(6) 0.1773(7) 0.3214(5)
C89_2 C 0.4894(4) 0.0132(6) 0.6547(5)
C90_2 C 0.5238(4) 0.0132(6) 0.6547(5)
N38_2 N 0.3176(6) 0.1316(7) 0.2895(3)
N39_2 N 0.3176(6) 0.1861(7) 0.2895(3)
N40_2 N 0.4806(4) 0.0157(6) 0.6228(3)
N41_2 N 0.5351(4) 0.0157(6) 0.6228(3)
O76_2 O 0.3212(7) 0.0892(8) 0.3425(3)
O78_2 O 0.4346(4) 0.0121(7) 0.6758(3)
O79_2 O 0.5775(6) 0.0121(7) 0.6758(3)
O81_2 O 0.7679(4) 0.0892(8) 0.3425(3)
O83_2 O 0.3263(5) 0.1327(6) 0.3810(3)
O85_2 O 0.4730(3) 0.0070(5) 0.7143(3)
O86_2 O 0.5340(4) 0.0070(5) 0.7143(3)
O87_2 O 0.8063(3) 0.1327(6) 0.3810(3)
Na3_2 Na 0.3042(4) 0.0193(4) 0.34647(17)
Na4_2 Na 0.3817(2) 0.0291(4) 0.67980(17)
Na7_2 Na 0.7150(2) 0.0193(4) 0.34647(17)
Na9_2 Na 0.6474(3) 0.0291(4) 0.67980(17)
Na14_2 Na 0.7520(2) 0.0808(4) 0.4087(2)
Na16_2 Na 0.4187(2) 0.0045(4) 0.7420(2)
Na19_2 Na 0.5859(4) 0.0045(4) 0.7420(2)
O89_2 O 0.3333(5) 0.0445(5) 0.6667
O91_2 O 0.2690(11) 0.0240(13) 0.3939(5)
O92_2 O 0.4216(6) 0.0643(11) 0.7272(5)
O95_2 O 0.7549(6) 0.0240(13) 0.3939(5)
O97_2 O 0.753(3) 0.078(4) 0.470(2)
O99_2 O 0.420(3) 0.008(5) 0.803(2)
H19_2 H 0.476759 0.175984 0.599831
H20_2 H 0.600446 0.234625 0.424544
H21_2 H 0.64417 0.25179 0.46304
H22_2 H 0.585123 0.310836 0.203627
H25_2 H 0.567958 0.267113 0.242122
H30_2 H 0.509317 0.143426 0.0668355
H31_2 H 0.724623 0.157661 0.587256
H36 H 0.40275 0.0089533 0.187583
Na10_2 Na 0.3624(4) 0.0484(5) 0.98687(17)
Na11_2 Na 0.3141(3) 0.9516(5) 0.01313(17)
Cd2_2 Cd 0.40959(4) 0.98190(6) 0.38568(3)
C14_2 C 0.4908(3) 0.9816(4) 0.3953(7)
H4_2 H 0.4890 0.9780 0.4194
C15_2 C 0.4515(10) 0.9892(12) 0.3173(5)
C16_2 C 0.4762(4) 0.9868(6) 0.3453(5)
N6_2 N 0.4649(4) 0.9843(6) 0.3772(3)
O11_2 O 0.4225(6) 0.9879(7) 0.3242(3)
O12_2 O 0.4660(4) 0.9930(5) 0.2857(3)
Na1_2 Na 0.3526(3) 0.9709(4) 0.32020(17)
O13_2 O 0.2888 0.9555(5) 0.3333
O14_2 O 0.3573(9) 0.9357(11) 0.2728(5)
Cd5_2 Cd 0.34887(3) 0.86237(4) 0.51705(3)
Cd6_2 Cd 0.31780(3) 0.84683(5) 0.81628(3)
Cd9_2 Cd 0.51350(3) 0.86237(4) 0.51705(3)
Cd12_2 Cd 0.57231(4) 0.98190(6) 0.38568(3)
Cd13_2 Cd 0.23898(4) 0.92374(7) 0.71901(3)
Cd17_2 Cd 0.25708(4) 0.90564(7) 0.94765(3)
C18_2 C 0.4376(3) 0.8752(4) 0.5138(6)
H6_2 H 0.4502 0.9004 0.5051
N10_2 N 0.3999(4) 0.8552(6) 0.5207(3)
N11_2 N 0.4553(4) 0.8552(6) 0.5207(3)
N12_2 N 0.2668(4) 0.7886(7) 0.8126(3)
C22_2 C 0.3945(4) 0.8219(6) 0.5326(4)
C23_2 C 0.4274(5) 0.8219(6) 0.5326(4)
C27_2 C 0.3567(6) 0.7950(8) 0.5433(5)
C28_2 C 0.4383(6) 0.7950(8) 0.5433(5)
O19_2 O 0.3294(4) 0.8012(6) 0.5413(4)
O20_2 O 0.4718(4) 0.8012(6) 0.5413(4)
O21_2 O 0.3373(4) 0.8051(7) 0.7920(4)
O22_2 O 0.1345(6) 0.9961(7) 0.1254(4)
O26_2 O 0.3498(4) 0.7616(6) 0.5550(4)
O27_2 O 0.4118(4) 0.7616(6) 0.5550(4)
C31_2 C 0.3996(5) 0.9445(7) 0.5598(5)
C32_2 C 0.2671(5) 0.8782(9) 0.7735(5)
H9_2 H 0.4239 0.9500 0.5518
H10_2 H 0.2428 0.8594 0.7815
N16_2 N 0.3683(4) 0.9147(6) 0.5506(3)
N17_2 N 0.2984(4) 0.8797(7) 0.7827(3)
C36_2 C 0.3394(5) 0.9158(7) 0.5683(5)
C37_2 C 0.3273(5) 0.9097(9) 0.7650(5)
C41_2 C 0.3570(6) 0.9493(8) 0.5873(4)
C42_2 C 0.3097(6) 0.9256(10) 0.7460(4)
N21_2 N 0.3945(4) 0.9669(6) 0.5818(4)
N22_2 N 0.2722(4) 0.9057(7) 0.7515(4)
N24_2 N 0.5724(4) 0.9669(6) 0.5818(4)
C46_2 C 0.3406(7) 0.9653(10) 0.6108(5)
C47_2 C 0.3261(7) 0.9580(12) 0.7225(5)
O30_2 O 0.3652(4) 0.9934(5) 0.6287(3)
O31_2 O 0.3015(4) 0.9615(6) 0.7046(3)
O33_2 O 0.6282(3) 0.9934(5) 0.6287(3)
O37_2 O 0.3061(4) 0.9550(7) 0.6134(3)
O38_2 O 0.3606(4) 0.9822(8) 0.7199(3)
O39_2 O 0.2883(7) 0.9728(9) 0.0533(3)
O43_2 O 0.2968(3) 0.8567(5) 0.5447(4)
O44_2 O 0.3699(3) 0.8932(6) 0.7886(4)
O45_2 O 0.1900(5) 0.9635(6) 0.1220(4)
C51_2 C 0.3004(5) 0.8835(9) 0.5638(5)
C52_2 C 0.3663(5) 0.9164(10) 0.7695(5)
C53_2 C 0.2168(9) 0.9671(11) 0.1029(5)
O48_2 O 0.2735(4) 0.8832(6) 0.5780(5)
O49_2 O 0.3932(4) 0.9430(7) 0.7553(5)
O50_2 O 0.2165(6) 0.9402(8) 0.0887(5)
C54_2 C 0.3905(5) 0.9279(7) 0.4554(5)
C58_2 C 0.2762(5) 0.8707(9) 0.8779(5)
H12_2 H 0.4117 0.9459 0.4684
H16_2 H 0.2550 0.8675 0.8649
N25_2 N 0.3836(4) 0.9342(6) 0.4231(4)
N29_2 N 0.2831(4) 0.8839(7) 0.9102(4)
N30_2 N 0.5506(4) 0.9342(6) 0.4231(4)
N31_2 N 0.2173(4) 0.9497(7) 0.7564(4)
N32_2 N 0.3644(4) 0.8937(6) 0.4674(4)
N36_2 N 0.3023(4) 0.8626(7) 0.8659(4)
C59_2 C 0.3515(5) 0.9025(7) 0.4125(5)
C63_2 C 0.3152(5) 0.8843(9) 0.9208(5)
C64_2 C 0.3397(5) 0.8779(7) 0.4406(5)
C68_2 C 0.3270(5) 0.8715(9) 0.8927(5)
C69_2 C 0.3069(5) 0.8387(8) 0.4477(7)
C71_2 C 0.1720(8) 0.9736(10) 0.2190(7)
C73_2 C 0.3598(5) 0.8651(9) 0.8856(7)
C74_2 C 0.3367(6) 0.8992(9) 0.3787(6)
C78_2 C 0.3300(6) 0.8958(11) 0.9546(6)
O52_2 O 0.3031(4) 0.8248(6) 0.4749(3)
O54_2 O 0.1581(6) 0.9698(7) 0.1918(3)
O56_2 O 0.3636(4) 0.8550(7) 0.8584(3)
O57_2 O 0.2852(4) 0.8252(6) 0.4192(4)
O59_2 O 0.1585(6) 0.9519(8) 0.2475(4)
O61_2 O 0.3815(4) 0.8733(7) 0.9141(4)
O62_2 O 0.3536(4) 0.9277(6) 0.3586(3)
O66_2 O 0.3131(4) 0.9074(7) 0.9747(3)
O67_2 O 0.5741(4) 0.9277(6) 0.3586(3)
O68_2 O 0.2408(4) 0.9797(7) 0.6919(3)
O70_2 O 0.3066(5) 0.8685(6) 0.3706(3)
O72_2 O 0.2018(6) 0.9733(7) 0.2961(3)
O74_2 O 0.3601(5) 0.8952(8) 0.9627(3)
C81_2 C 0.5377(7) 0.9892(12) 0.3173(5)
C86_2 C 0.5106(4) 0.9868(6) 0.3453(5)
N37_2 N 0.5194(4) 0.9843(6) 0.3772(3)
N42_2 N 0.1861(4) 0.8684(7) 0.7105(3)
O75_2 O 0.5654(4) 0.9879(7) 0.3242(3)
O80_2 O 0.2321(4) 0.9108(8) 0.6575(3)
O82_2 O 0.5270(3) 0.9930(5) 0.2857(3)
O88_2 O 0.1937(3) 0.8673(6) 0.6190(3)
Na5_2 Na 0.6183(2) 0.9709(4) 0.32020(17)
Na6_2 Na 0.2850(2) 0.9807(4) 0.65353(17)
Na13_2 Na 0.4141(4) 0.9955(4) 0.2580(2)
Na15_2 Na 0.2480(2) 0.9192(4) 0.5913(2)
Na17_2 Na 0.5813(2) 0.9955(4) 0.2580(2)
Na20_2 Na 0.2525(4) 0.9147(6) 0.0754(2)
O90_2 O 0.6667(5) 0.9555(5) 0.3333
O93_2 O 0.5784(6) 0.9357(11) 0.2728(5)
O94_2 O 0.2451(6) 0.9760(13) 0.6061(5)
O96_2 O 0.411(4) 0.992(5) 0.197(2)
O98_2 O 0.247(3) 0.922(4) 0.530(2)
O100_2 O 0.580(3) 0.992(5) 0.197(2)
H26_2 H 0.365822 0.765375 0.575456
H27_2 H 0.39238 0.74821 0.53696
H28_2 H 0.365891 0.856574 0.933164
H29_2 H 0.15735 0.967442 0.266498
H32_2 H 0.300776 0.824016 0.400169
H33 H 0.403062 0.982624 0.813055
Na11_3 Na 0.0484(5) 0.3624(4) 0.01313(17)
Cd2_3 Cd 0.01810(6) 0.42769(4) 0.38568(3)
C14_3 C 0.0184(4) 0.5092(3) 0.3953(7)
H4_3 H 0.0220 0.5110 0.4194
C15_3 C 0.0108(12) 0.4623(7) 0.3173(5)
C16_3 C 0.0132(6) 0.4894(4) 0.3453(5)
N6_3 N 0.0157(6) 0.4806(4) 0.3772(3)
O11_3 O 0.0121(7) 0.4346(4) 0.3242(3)
O12_3 O 0.0070(5) 0.4730(3) 0.2857(3)
Na1_3 Na 0.0291(4) 0.3817(2) 0.32020(17)
O13_3 O 0.0445(5) 0.3333(5) 0.3333
O14_3 O 0.0643(11) 0.4216(6) 0.2728(5)
Cd5_3 Cd 0.13763(4) 0.48650(3) 0.51705(3)
Cd6_3 Cd 0.15317(5) 0.47096(4) 0.81628(3)
Cd9_3 Cd 0.13763(4) 0.65113(3) 0.51705(3)
Cd12_3 Cd 0.01810(6) 0.59041(4) 0.38568(3)
Cd13_3 Cd 0.07626(7) 0.31523(6) 0.71901(3)
Cd17_3 Cd 0.09436(7) 0.35143(6) 0.94765(3)
C18_3 C 0.1248(4) 0.5624(3) 0.5138(6)
H6_3 H 0.0996 0.5498 0.5051
N10_3 N 0.1448(6) 0.5447(4) 0.5207(3)
N11_3 N 0.1448(6) 0.6001(4) 0.5207(3)
N12_3 N 0.2114(7) 0.4781(6) 0.8126(3)
C22_3 C 0.1781(6) 0.5726(5) 0.5326(4)
C23_3 C 0.1781(6) 0.6055(4) 0.5326(4)
C27_3 C 0.2050(8) 0.5617(6) 0.5433(5)
C28_3 C 0.2050(8) 0.6433(6) 0.5433(5)
O19_3 O 0.1988(6) 0.5282(4) 0.5413(4)
O20_3 O 0.1988(6) 0.6706(4) 0.5413(4)
O21_3 O 0.1949(7) 0.5321(6) 0.7920(4)
O22_3 O 0.0039(7) 0.1385(4) 0.1254(4)
O26_3 O 0.2384(6) 0.5882(4) 0.5550(4)
O27_3 O 0.2384(6) 0.6502(4) 0.5550(4)
C31_3 C 0.0555(7) 0.4551(5) 0.5598(5)
C32_3 C 0.1218(9) 0.3888(7) 0.7735(5)
H9_3 H 0.0500 0.4739 0.5518
H10_3 H 0.1406 0.3833 0.7815
N16_3 N 0.0853(6) 0.4536(4) 0.5506(3)
N17_3 N 0.1203(7) 0.4186(6) 0.7827(3)
C36_3 C 0.0842(7) 0.4236(5) 0.5683(5)
C37_3 C 0.0903(9) 0.4175(7) 0.7650(5)
C41_3 C 0.0507(8) 0.4077(5) 0.5873(4)
C42_3 C 0.0744(10) 0.3840(8) 0.7460(4)
N21_3 N 0.0331(6) 0.4276(4) 0.5818(4)
N22_3 N 0.0943(7) 0.3664(6) 0.7515(4)
N24_3 N 0.0331(6) 0.6055(4) 0.5818(4)
C46_3 C 0.0347(10) 0.3753(7) 0.6108(5)
C47_3 C 0.0420(12) 0.3680(10) 0.7225(5)
O30_3 O 0.0066(5) 0.3718(3) 0.6287(3)
O31_3 O 0.0385(6) 0.3399(5) 0.7046(3)
O33_3 O 0.0066(5) 0.6348(4) 0.6287(3)
O37_3 O 0.0450(7) 0.3511(6) 0.6134(3)
O38_3 O 0.0178(8) 0.3783(7) 0.7199(3)
O39_3 O 0.0272(9) 0.3156(6) 0.0533(3)
O43_3 O 0.1433(5) 0.4401(4) 0.5447(4)
O44_3 O 0.1068(6) 0.4766(5) 0.7886(4)
O45_3 O 0.0365(6) 0.2266(4) 0.1220(4)
C51_3 C 0.1165(9) 0.4169(7) 0.5638(5)
C52_3 C 0.0836(10) 0.4498(9) 0.7695(5)
C53_3 C 0.0329(11) 0.2498(7) 0.1029(5)
O48_3 O 0.1168(6) 0.3903(5) 0.5780(5)
O49_3 O 0.0570(7) 0.4501(6) 0.7553(5)
O50_3 O 0.0598(8) 0.2764(5) 0.0887(5)
C54_3 C 0.0721(7) 0.4626(5) 0.4554(5)
C58_3 C 0.1293(9) 0.4054(7) 0.8779(5)
H12_3 H 0.0541 0.4658 0.4684
H16_3 H 0.1325 0.3874 0.8649
N25_3 N 0.0658(6) 0.4494(4) 0.4231(4)
N29_3 N 0.1161(7) 0.3991(6) 0.9102(4)
N30_3 N 0.0658(6) 0.6164(4) 0.4231(4)
N31_3 N 0.0503(7) 0.2675(6) 0.7564(4)
N32_3 N 0.1063(6) 0.4707(4) 0.4674(4)
N36_3 N 0.1374(7) 0.4396(6) 0.8659(4)
C59_3 C 0.0975(7) 0.4490(5) 0.4125(5)
C63_3 C 0.1157(9) 0.4308(7) 0.9208(5)
C64_3 C 0.1221(7) 0.4618(5) 0.4406(5)
C68_3 C 0.1285(9) 0.4554(7) 0.8927(5)
C69_3 C 0.1613(8) 0.4682(6) 0.4477(7)
C71_3 C 0.0264(10) 0.1985(6) 0.2190(7)
C73_3 C 0.1349(9) 0.4946(8) 0.8856(7)
C74_3 C 0.1008(9) 0.4375(7) 0.3787(6)
C78_3 C 0.1042(11) 0.4341(9) 0.9546(6)
O52_3 O 0.1752(6) 0.4783(4) 0.4749(3)
O54_3 O 0.0302(7) 0.1884(4) 0.1918(3)
O56_3 O 0.1450(7) 0.5085(6) 0.8584(3)
O57_3 O 0.1748(6) 0.4600(5) 0.4192(4)
O59_3 O 0.0481(8) 0.2067(5) 0.2475(4)
O61_3 O 0.1267(7) 0.5081(6) 0.9141(4)
O62_3 O 0.0723(6) 0.4259(4) 0.3586(3)
O66_3 O 0.0926(7) 0.4056(6) 0.9747(3)
O67_3 O 0.0723(6) 0.6464(4) 0.3586(3)
O68_3 O 0.0203(7) 0.2610(6) 0.6919(3)
O70_3 O 0.1315(6) 0.4381(4) 0.3706(3)
O72_3 O 0.0267(7) 0.2286(4) 0.2961(3)
O74_3 O 0.1048(8) 0.4648(6) 0.9627(3)
C81_3 C 0.0108(12) 0.5485(10) 0.3173(5)
C86_3 C 0.0132(6) 0.5238(4) 0.3453(5)
N37_3 N 0.0157(6) 0.5351(4) 0.3772(3)
N42_3 N 0.1316(7) 0.3176(6) 0.7105(3)
O75_3 O 0.0121(7) 0.5775(6) 0.3242(3)
O80_3 O 0.0892(8) 0.3212(7) 0.6575(3)
O82_3 O 0.0070(5) 0.5340(4) 0.2857(3)
O88_3 O 0.1327(6) 0.3263(5) 0.6190(3)
Na5_3 Na 0.0291(4) 0.6474(3) 0.32020(17)
Na6_3 Na 0.0193(4) 0.3042(4) 0.65353(17)
Na13_3 Na 0.0045(4) 0.4187(2) 0.2580(2)
Na15_3 Na 0.0808(4) 0.3288(4) 0.5913(2)
Na17_3 Na 0.0045(4) 0.5859(4) 0.2580(2)
Na20_3 Na 0.0853(6) 0.3379(4) 0.0754(2)
O90_3 O 0.0445(5) 0.7112 0.3333
O93_3 O 0.0643(11) 0.6427(9) 0.2728(5)
O94_3 O 0.0240(13) 0.2690(11) 0.6061(5)
O96_3 O 0.008(5) 0.420(3) 0.197(2)
O98_3 O 0.078(4) 0.325(3) 0.530(2)
O100_3 O 0.008(5) 0.589(4) 0.197(2)
H26_3 H 0.234625 0.600446 0.575456
H27_3 H 0.25179 0.64417 0.53696
H28_3 H 0.143426 0.509317 0.933164
H29_3 H 0.0325576 0.189907 0.266498
H32_3 H 0.175984 0.476759 0.400169
H33_2 H 0.0173757 0.420438 0.813055
Cd1_3 Cd 0.86237(4) 0.34887(3) 0.48295(3)
C1_3 C 0.8752(4) 0.4376(3) 0.4862(6)
H1_3 H 0.9004 0.4502 0.4949
N1_3 N 0.8552(6) 0.3999(4) 0.4793(3)
C2_3 C 0.8219(6) 0.3945(4) 0.4674(4)
C3_3 C 0.7950(8) 0.3567(6) 0.4567(5)
O1_3 O 0.8012(6) 0.3294(4) 0.4587(4)
O2_3 O 0.7616(6) 0.3498(4) 0.4450(4)
C4_3 C 0.9445(7) 0.3996(5) 0.4402(5)
H2_3 H 0.9500 0.4239 0.4482
N2_3 N 0.9147(6) 0.3683(4) 0.4494(3)
C5_3 C 0.9158(7) 0.3394(5) 0.4317(5)
C6_3 C 0.9493(8) 0.3570(6) 0.4127(4)
N3_3 N 0.9669(6) 0.3945(4) 0.4182(4)
C7_3 C 0.9653(10) 0.3406(7) 0.3892(5)
O3_3 O 0.9934(5) 0.3652(4) 0.3713(3)
O4_3 O 0.9550(7) 0.3061(4) 0.3866(3)
O5_3 O 0.8567(5) 0.2968(3) 0.4553(4)
C8_3 C 0.8835(9) 0.3004(5) 0.4362(5)
O6_3 O 0.8832(6) 0.2735(4) 0.4220(5)
C9_3 C 0.9279(7) 0.3905(5) 0.5446(5)
H3_3 H 0.9459 0.4117 0.5316
N4_3 N 0.9342(6) 0.3836(4) 0.5769(4)
N5_3 N 0.8937(6) 0.3644(4) 0.5326(4)
C10_3 C 0.9025(7) 0.3515(5) 0.5875(5)
C11_3 C 0.8779(7) 0.3397(5) 0.5594(5)
C12_3 C 0.8387(8) 0.3069(5) 0.5523(7)
C13_3 C 0.8992(9) 0.3367(6) 0.6213(6)
O7_3 O 0.8248(6) 0.3031(4) 0.5251(3)
O8_3 O 0.8252(6) 0.2852(4) 0.5808(4)
O9_3 O 0.9277(6) 0.3536(4) 0.6414(3)
O10_3 O 0.8685(6) 0.3066(5) 0.6294(3)
Na2_3 Na 0.9192(4) 0.2480(2) 0.4087(2)
O15_3 O 0.922(4) 0.247(3) 0.470(2)
Cd3_3 Cd 0.86237(4) 0.51350(3) 0.48295(3)
Cd4_3 Cd 0.84683(5) 0.31780(3) 0.18372(3)
Cd7_3 Cd 0.98446(5) 0.18017(3) 0.14962(3)
Cd8_3 Cd 0.68220(5) 0.15317(3) 0.18372(3)
Cd10_3 Cd 0.98190(6) 0.40959(4) 0.61432(3)
Cd11_3 Cd 0.92374(7) 0.23898(4) 0.28099(3)
Cd14_3 Cd 0.98190(6) 0.57231(4) 0.61432(3)
Cd15_3 Cd 0.76102(7) 0.07626(4) 0.28099(3)
Cd16_3 Cd 0.90564(7) 0.25708(4) 0.05235(3)
C17_3 C 0.7709(5) 0.2291(3) 0.1805(6)
H5_3 H 0.7835 0.2165 0.1718
N7_3 N 0.8552(6) 0.4553(4) 0.4793(3)
N8_3 N 0.7886(7) 0.2668(4) 0.1874(3)
N9_3 N 0.7332(7) 0.2114(4) 0.1874(3)
N13_3 N 0.9334(7) 0.1220(4) 0.1460(3)
C19_3 C 0.8219(6) 0.4274(5) 0.4674(4)
C20_3 C 0.7607(7) 0.2722(4) 0.1993(4)
C21_3 C 0.7278(8) 0.2393(5) 0.1993(4)
C24_3 C 0.7950(8) 0.4383(6) 0.4567(5)
C25_3 C 0.7716(10) 0.3100(6) 0.2100(5)
C26_3 C 0.6900(10) 0.2284(6) 0.2100(5)
O16_3 O 0.8012(6) 0.4718(4) 0.4587(4)
O17_3 O 0.8051(7) 0.3373(4) 0.2080(4)
O18_3 O 0.6627(7) 0.1949(4) 0.2080(4)
O23_3 O 0.7616(6) 0.4118(4) 0.4450(4)
O24_3 O 0.7451(7) 0.3169(4) 0.2217(4)
O25_3 O 0.6831(7) 0.2549(4) 0.2217(4)
C29_3 C 0.8782(9) 0.2671(5) 0.2265(5)
C30_3 C 0.9445(7) 0.5449(5) 0.4402(5)
C33_3 C 0.9337(9) 0.2116(5) 0.1069(5)
H7_3 H 0.8594 0.2428 0.2185
H8_3 H 0.9500 0.5261 0.4482
H11_3 H 0.9094 0.1928 0.1149
N14_3 N 0.8797(7) 0.2984(4) 0.2173(3)
N15_3 N 0.9147(6) 0.5464(4) 0.4494(3)
N18_3 N 0.9650(7) 0.2131(4) 0.1161(3)
C34_3 C 0.9097(9) 0.3273(5) 0.2350(5)
C35_3 C 0.9158(7) 0.5764(5) 0.4317(5)
C38_3 C 0.9939(9) 0.2431(5) 0.0984(5)
C39_3 C 0.9256(10) 0.3097(6) 0.2540(4)
C40_3 C 0.9493(8) 0.5923(5) 0.4127(4)
C43_3 C 0.9763(9) 0.2590(5) 0.0794(4)
N19_3 N 0.9057(7) 0.2722(4) 0.2485(4)
N20_3 N 0.9669(6) 0.5724(4) 0.4182(4)
N23_3 N 0.9388(7) 0.2391(4) 0.0849(4)
C44_3 C 0.9580(12) 0.3261(7) 0.2775(5)
C45_3 C 0.9653(10) 0.6247(7) 0.3892(5)
C48_3 C 0.9927(12) 0.2914(7) 0.0559(5)
O28_3 O 0.9615(6) 0.3015(4) 0.2954(3)
O29_3 O 0.9934(5) 0.6282(3) 0.3713(3)
O32_3 O 0.9681(6) 0.2949(3) 0.0380(3)
O34_3 O 0.9615(6) 0.6601(5) 0.2954(3)
O35_3 O 0.9822(8) 0.3606(4) 0.2801(3)
O36_3 O 0.9550(7) 0.6489(6) 0.3866(3)
O40_3 O 0.9822(8) 0.6217(7) 0.2801(3)
O41_3 O 0.8932(6) 0.3699(3) 0.2114(4)
O42_3 O 0.8567(5) 0.5599(4) 0.4553(4)
C49_3 C 0.9164(10) 0.3663(5) 0.2305(5)
C50_3 C 0.8835(9) 0.5831(7) 0.4362(5)
O46_3 O 0.9430(7) 0.3932(4) 0.2447(5)
O47_3 O 0.8832(6) 0.6097(5) 0.4220(5)
O51_3 O 0.9430(7) 0.5499(6) 0.2447(5)
C55_3 C 0.9279(7) 0.5374(5) 0.5446(5)
C56_3 C 0.9428(9) 0.2041(5) 0.2113(5)
C57_3 C 0.8707(9) 0.2762(5) 0.1221(5)
H13_3 H 0.9459 0.5342 0.5316
H14_3 H 0.9216 0.2009 0.1983
H15_3 H 0.8675 0.2550 0.1351
N26_3 N 0.9342(6) 0.5506(4) 0.5769(4)
N27_3 N 0.9497(7) 0.2173(4) 0.2436(4)
N28_3 N 0.8839(7) 0.2831(4) 0.0898(4)
N33_3 N 0.8937(6) 0.5293(4) 0.5326(4)
N34_3 N 0.9689(7) 0.1960(4) 0.1993(4)
N35_3 N 0.8626(7) 0.3023(4) 0.1341(4)
C60_3 C 0.9025(7) 0.5510(5) 0.5875(5)
C61_3 C 0.9818(9) 0.2177(5) 0.2542(5)
C62_3 C 0.8843(9) 0.3152(5) 0.0792(5)
C65_3 C 0.8779(7) 0.5382(5) 0.5594(5)
C66_3 C 0.9936(9) 0.2049(5) 0.2261(5)
C67_3 C 0.8715(9) 0.3270(5) 0.1073(5)
C70_3 C 0.8387(8) 0.5318(6) 0.5523(7)
C72_3 C 0.8651(9) 0.3598(5) 0.1144(7)
C75_3 C 0.8992(9) 0.5625(7) 0.6213(6)
C76_3 C 0.9966(11) 0.2292(7) 0.2880(6)
C77_3 C 0.8958(11) 0.3300(6) 0.0454(6)
O53_3 O 0.8248(6) 0.5217(4) 0.5251(3)
O55_3 O 0.8550(7) 0.3636(4) 0.1416(3)
O58_3 O 0.8252(6) 0.5400(5) 0.5808(4)
O60_3 O 0.8733(7) 0.3815(4) 0.0859(4)
O63_3 O 0.9277(6) 0.5741(4) 0.6414(3)
O64_3 O 0.9797(7) 0.2408(4) 0.3081(3)
O65_3 O 0.9074(7) 0.3131(4) 0.0253(3)
O69_3 O 0.9797(7) 0.7390(6) 0.3081(3)
O71_3 O 0.8685(6) 0.5619(4) 0.6294(3)
O73_3 O 0.8952(8) 0.3601(5) 0.0373(3)
C79_3 C 0.8425(5) 0.1575(3) 0.2714(7)
C80_3 C 0.9816(4) 0.4908(3) 0.6047(7)
H17_3 H 0.8443 0.1557 0.2473
H18_3 H 0.9780 0.4890 0.5806
C82_3 C 0.8818(14) 0.2044(7) 0.3494(5)
C83_3 C 0.7956(16) 0.1182(10) 0.3494(5)
C84_3 C 0.9892(12) 0.4515(10) 0.6827(5)
C85_3 C 0.9892(12) 0.5377(7) 0.6827(5)
C87_3 C 0.8571(7) 0.1773(4) 0.3214(5)
C88_3 C 0.8227(7) 0.1429(4) 0.3214(5)
C89_3 C 0.9868(6) 0.4762(4) 0.6547(5)
C90_3 C 0.9868(6) 0.5106(4) 0.6547(5)
N38_3 N 0.8684(7) 0.1861(4) 0.2895(3)
N39_3 N 0.8139(7) 0.1316(4) 0.2895(3)
N40_3 N 0.9843(6) 0.4649(4) 0.6228(3)
N41_3 N 0.9843(6) 0.5194(4) 0.6228(3)
O76_3 O 0.9108(8) 0.2321(4) 0.3425(3)
O78_3 O 0.9879(7) 0.4225(6) 0.6758(3)
O79_3 O 0.9879(7) 0.5654(4) 0.6758(3)
O83_3 O 0.8673(6) 0.1937(3) 0.3810(3)
O85_3 O 0.9930(5) 0.4660(4) 0.7143(3)
O86_3 O 0.9930(5) 0.5270(3) 0.7143(3)
Na3_3 Na 0.9807(4) 0.2850(2) 0.34647(17)
Na4_3 Na 0.9709(4) 0.3526(3) 0.67980(17)
Na9_3 Na 0.9709(4) 0.6183(2) 0.67980(17)
Na16_3 Na 0.9955(4) 0.4141(4) 0.7420(2)
Na19_3 Na 0.9955(4) 0.5813(2) 0.7420(2)
O89_3 O 0.9555(5) 0.2888 0.6667
O91_3 O 0.9760(13) 0.2451(6) 0.3939(5)
O92_3 O 0.9357(11) 0.3573(9) 0.7272(5)
O95_3 O 0.9760(13) 0.7310(11) 0.3939(5)
O97_3 O 0.922(4) 0.675(3) 0.470(2)
O99_3 O 0.992(5) 0.411(4) 0.803(2)
H19_3 H 0.824016 0.300776 0.599831
H20_3 H 0.765375 0.365822 0.424544
H21_3 H 0.74821 0.39238 0.46304
H22_3 H 0.689164 0.274287 0.203627
H25_3 H 0.732887 0.300845 0.242122
H30_3 H 0.856574 0.365891 0.0668355
H31_3 H 0.842339 0.566962 0.587256
H36_2 H 0.991047 0.393797 0.187583
Na10_3 Na 0.9516(5) 0.3141(3) 0.98687(17)
Cd7_4 Cd 0.80430(4) 0.81983(3) 0.85038(3)
Cd8_4 Cd 0.52904(4) 0.84683(3) 0.81628(3)
Cd15_4 Cd 0.68477(6) 0.92374(4) 0.71901(3)
C17_4 C 0.5419(4) 0.7709(3) 0.8195(6)
H5_4 H 0.5671 0.7835 0.8282
N9_4 N 0.5219(6) 0.7886(4) 0.8126(3)
N13_4 N 0.8115(6) 0.8780(4) 0.8540(3)
C20_4 C 0.4886(6) 0.7278(4) 0.8007(4)
C21_4 C 0.4886(6) 0.7607(5) 0.8007(4)
C25_4 C 0.4617(8) 0.6900(6) 0.7900(5)
C26_4 C 0.4617(8) 0.7716(6) 0.7900(5)
O18_4 O 0.4679(6) 0.8051(4) 0.7920(4)
O22_4 O 0.8655(6) 0.8615(4) 0.8746(4)
O24_4 O 0.4283(6) 0.6831(4) 0.7783(4)
O25_4 O 0.4283(6) 0.7451(4) 0.7783(4)
C30_4 C 0.3996(5) 0.4551(5) 0.5598(5)
C33_4 C 0.7222(7) 0.7884(5) 0.8931(5)
H8_4 H 0.4239 0.4739 0.5518
H11_4 H 0.7167 0.8072 0.8851
N15_4 N 0.3683(4) 0.4536(4) 0.5506(3)
N18_4 N 0.7520(6) 0.7869(4) 0.8839(3)
C35_4 C 0.3394(5) 0.4236(5) 0.5683(5)
C38_4 C 0.7509(7) 0.7569(5) 0.9016(5)
C40_4 C 0.3570(6) 0.4077(5) 0.5873(4)
C43_4 C 0.7174(8) 0.7410(5) 0.9206(4)
N23_4 N 0.6998(6) 0.7609(4) 0.9151(4)
C45_4 C 0.3406(7) 0.3753(7) 0.6108(5)
C48_4 C 0.7014(10) 0.7086(7) 0.9441(5)
O32_4 O 0.6733(5) 0.7051(3) 0.9620(3)
O34_4 O 0.3015(4) 0.3399(5) 0.7046(3)
O36_4 O 0.3061(4) 0.3511(6) 0.6134(3)
O39_4 O 0.7117(7) 0.6844(6) 0.9467(3)
O40_4 O 0.3606(4) 0.3783(7) 0.7199(3)
O42_4 O 0.2968(3) 0.4401(4) 0.5447(4)
O45_4 O 0.8100(5) 0.7734(4) 0.8780(4)
C50_4 C 0.3004(5) 0.4169(7) 0.5638(5)
C53_4 C 0.7832(9) 0.7502(7) 0.8971(5)
O47_4 O 0.2735(4) 0.3903(5) 0.5780(5)
O50_4 O 0.7835(6) 0.7236(5) 0.9113(5)
O51_4 O 0.3932(4) 0.4501(6) 0.7553(5)
C55_4 C 0.3905(5) 0.4626(5) 0.4554(5)
C56_4 C 0.7388(7) 0.7959(5) 0.7887(5)
H13_4 H 0.4117 0.4658 0.4684
H14_4 H 0.7208 0.7991 0.8017
N33_4 N 0.3644(4) 0.4707(4) 0.4674(4)
N34_4 N 0.7730(6) 0.8040(4) 0.8007(4)
C60_4 C 0.3515(5) 0.4490(5) 0.4125(5)
C61_4 C 0.7642(7) 0.7823(5) 0.7458(5)
C65_4 C 0.3397(5) 0.4618(5) 0.4406(5)
C66_4 C 0.7888(7) 0.7951(5) 0.7739(5)
C70_4 C 0.3069(5) 0.4682(6) 0.4477(7)
C71_4 C 0.8280(8) 0.8015(6) 0.7810(7)
C75_4 C 0.3367(6) 0.4375(7) 0.3787(6)
C76_4 C 0.7675(9) 0.7708(7) 0.7120(6)
O53_4 O 0.3031(4) 0.4783(4) 0.4749(3)
O54_4 O 0.8419(6) 0.8116(4) 0.8082(3)
O58_4 O 0.2852(4) 0.4600(5) 0.4192(4)
O59_4 O 0.8415(6) 0.7933(5) 0.7525(4)
O69_4 O 0.2408(4) 0.2610(6) 0.6919(3)
O71_4 O 0.3066(5) 0.4381(4) 0.3706(3)
O72_4 O 0.7982(6) 0.7714(4) 0.7039(3)
C79_4 C 0.6851(4) 0.8425(3) 0.7286(7)
H17_4 H 0.6887 0.8443 0.7527
C82_4 C 0.6775(12) 0.7956(7) 0.6506(5)
C83_4 C 0.6775(12) 0.8818(10) 0.6506(5)
C87_4 C 0.6799(6) 0.8227(4) 0.6786(5)
C88_4 C 0.6799(6) 0.8571(4) 0.6786(5)
N39_4 N 0.6824(6) 0.8684(4) 0.7105(3)
O77_2 O 0.6788(7) 0.9108(6) 0.6575(3)
O81_3 O 0.2321(4) 0.3212(7) 0.6575(3)
O84_2 O 0.6737(5) 0.8673(4) 0.6190(3)
O87_3 O 0.1937(3) 0.3263(5) 0.6190(3)
Na7_3 Na 0.2850(2) 0.3042(4) 0.65353(17)
Na8_2 Na 0.6958(4) 0.9807(3) 0.65353(17)
Na14_3 Na 0.2480(2) 0.3288(4) 0.5913(2)
Na18_2 Na 0.6712(4) 0.9192(4) 0.5913(2)
Na20_4 Na 0.7475(4) 0.6621(4) 0.9246(2)
O90_4 O 0.3333(5) 0.2888 0.6667
O93_4 O 0.4216(6) 0.3573(9) 0.7272(5)
O95_4 O 0.2451(6) 0.2690(11) 0.6061(5)
O97_4 O 0.247(3) 0.325(3) 0.530(2)
O100_4 O 0.420(3) 0.411(4) 0.803(2)
H22_4 H 0.414877 0.725713 0.796373
H25_4 H 0.432042 0.699155 0.757878
H29_4 H 0.84265 0.810093 0.733502
H31_4 H 0.275377 0.433038 0.412744
Cd7_5 Cd 0.01554(5) 0.19570(4) 0.85038(3)
Cd8_5 Cd 0.31780(5) 0.47096(4) 0.81628(3)
Cd15_5 Cd 0.23898(7) 0.31523(6) 0.71901(3)
C17_5 C 0.2291(5) 0.4581(4) 0.8195(6)
H5_5 H 0.2165 0.4329 0.8282
N9_5 N 0.2668(7) 0.4781(6) 0.8126(3)
N13_5 N 0.0666(7) 0.1885(6) 0.8540(3)
C20_5 C 0.2393(7) 0.5114(6) 0.8007(4)
C21_5 C 0.2722(8) 0.5114(6) 0.8007(4)
C25_5 C 0.2284(10) 0.5383(8) 0.7900(5)
C26_5 C 0.3100(10) 0.5383(8) 0.7900(5)
O18_5 O 0.3373(7) 0.5321(6) 0.7920(4)
O24_5 O 0.2549(7) 0.5717(6) 0.7783(4)
O25_5 O 0.3169(7) 0.5717(6) 0.7783(4)
C30_5 C 0.0555(7) 0.6004(5) 0.5598(5)
C33_5 C 0.0663(9) 0.2778(7) 0.8931(5)
H8_5 H 0.0500 0.5761 0.5518
H11_5 H 0.0906 0.2833 0.8851
N15_5 N 0.0853(6) 0.6317(4) 0.5506(3)
N18_5 N 0.0350(7) 0.2480(6) 0.8839(3)
C35_5 C 0.0842(7) 0.6606(5) 0.5683(5)
C38_5 C 0.0061(9) 0.2491(7) 0.9016(5)
C40_5 C 0.0507(8) 0.6430(6) 0.5873(4)
C43_5 C 0.0237(9) 0.2826(8) 0.9206(4)
N23_5 N 0.0612(7) 0.3002(6) 0.9151(4)
C45_5 C 0.0347(10) 0.6594(7) 0.6108(5)
C48_5 C 0.0073(12) 0.2986(10) 0.9441(5)
O32_5 O 0.0319(6) 0.3267(5) 0.9620(3)
O34_5 O 0.0385(6) 0.6985(4) 0.7046(3)
O36_5 O 0.0450(7) 0.6939(4) 0.6134(3)
O40_5 O 0.0178(8) 0.6394(4) 0.7199(3)
O42_5 O 0.1433(5) 0.7032(3) 0.5447(4)
C50_5 C 0.1165(9) 0.6996(5) 0.5638(5)
O47_5 O 0.1168(6) 0.7265(4) 0.5780(5)
O51_5 O 0.0570(7) 0.6068(4) 0.7553(5)
C55_5 C 0.0721(7) 0.6095(5) 0.4554(5)
C56_5 C 0.0572(9) 0.2612(7) 0.7887(5)
H13_5 H 0.0541 0.5883 0.4684
H14_5 H 0.0784 0.2792 0.8017
N33_5 N 0.1063(6) 0.6356(4) 0.4674(4)
N34_5 N 0.0311(7) 0.2270(6) 0.8007(4)
C60_5 C 0.0975(7) 0.6485(5) 0.4125(5)
C61_5 C 0.0182(9) 0.2358(7) 0.7458(5)
C65_5 C 0.1221(7) 0.6603(5) 0.4406(5)
C66_5 C 0.0064(9) 0.2112(7) 0.7739(5)
C70_5 C 0.1613(8) 0.6931(5) 0.4477(7)
C75_5 C 0.1008(9) 0.6633(6) 0.3787(6)
C76_5 C 0.0034(11) 0.2325(9) 0.7120(6)
O53_5 O 0.1752(6) 0.6969(4) 0.4749(3)
O58_5 O 0.1748(6) 0.7148(4) 0.4192(4)
O69_5 O 0.0203(7) 0.7592(4) 0.6919(3)
O71_5 O 0.1315(6) 0.6934(5) 0.3706(3)
C79_5 C 0.1575(5) 0.3149(4) 0.7286(7)
H17_5 H 0.1557 0.3113 0.7527
C82_5 C 0.1182(14) 0.3225(12) 0.6506(5)
C83_5 C 0.2044(16) 0.3225(12) 0.6506(5)
C87_5 C 0.1429(7) 0.3201(6) 0.6786(5)
C88_5 C 0.1773(7) 0.3201(6) 0.6786(5)
N39_5 N 0.1861(7) 0.3176(6) 0.7105(3)
O81_4 O 0.0892(8) 0.7679(4) 0.6575(3)
O87_4 O 0.1327(6) 0.8063(3) 0.6190(3)
Na7_4 Na 0.0193(4) 0.7150(2) 0.65353(17)
Na14_4 Na 0.0808(4) 0.7520(2) 0.5913(2)
O95_5 O 0.0240(13) 0.7549(6) 0.6061(5)
O97_5 O 0.078(4) 0.753(3) 0.530(2)
H22_5 H 0.310836 0.585123 0.796373
H25_5 H 0.267113 0.567958 0.757878
H31_5 H 0.157661 0.724623 0.412744
H36_3 H 0.0089533 0.40275 0.812417
O22_5 O 0.9961(7) 0.1345(6) 0.8746(4)
O39_5 O 0.9728(9) 0.2883(7) 0.9467(3)
O45_5 O 0.9635(6) 0.1900(5) 0.8780(4)
C53_5 C 0.9671(11) 0.2168(9) 0.8971(5)
O50_5 O 0.9402(8) 0.2165(6) 0.9113(5)
C71_5 C 0.9736(10) 0.1720(8) 0.7810(7)
O54_5 O 0.9698(7) 0.1581(6) 0.8082(3)
O59_5 O 0.9519(8) 0.1585(6) 0.7525(4)
O72_5 O 0.9733(7) 0.2018(6) 0.7039(3)
Na20_5 Na 0.9147(6) 0.2525(4) 0.9246(2)
O90_5 O 0.9555(5) 0.6667(5) 0.6667
O93_5 O 0.9357(11) 0.5784(6) 0.7272(5)
O100_5 O 0.992(5) 0.580(3) 0.803(2)
H29_5 H 0.967442 0.15735 0.733502
H33_3 H 0.982624 0.403062 0.186945
O22_6 O 0.1385(4) 0.0039(7) 0.8746(4)
O39_6 O 0.3156(6) 0.0272(9) 0.9467(3)
O45_6 O 0.2266(4) 0.0365(6) 0.8780(4)
C53_6 C 0.2498(7) 0.0329(11) 0.8971(5)
O50_6 O 0.2764(5) 0.0598(8) 0.9113(5)
C71_6 C 0.1985(6) 0.0264(10) 0.7810(7)
O54_6 O 0.1884(4) 0.0302(7) 0.8082(3)
O59_6 O 0.2067(5) 0.0481(8) 0.7525(4)
O72_6 O 0.2286(4) 0.0267(7) 0.7039(3)
Na20_6 Na 0.3379(4) 0.0853(6) 0.9246(2)
O90_6 O 0.7112 0.0445(5) 0.6667
O93_6 O 0.6427(9) 0.0643(11) 0.7272(5)
O100_6 O 0.589(4) 0.008(5) 0.803(2)
H29_6 H 0.189907 0.0325576 0.733502
H33_4 H 0.420438 0.0173757 0.186945
Cd7_6 Cd 0.18017(3) 0.98446(5) 0.85038(3)
Cd8_6 Cd 0.15317(3) 0.68220(5) 0.81628(3)
Cd15_6 Cd 0.07626(4) 0.76102(7) 0.71901(3)
C17_6 C 0.2291(3) 0.7709(5) 0.8195(6)
H5_6 H 0.2165 0.7835 0.8282
N9_6 N 0.2114(4) 0.7332(7) 0.8126(3)
N13_6 N 0.1220(4) 0.9334(7) 0.8540(3)
C20_6 C 0.2722(4) 0.7607(7) 0.8007(4)
C21_6 C 0.2393(5) 0.7278(8) 0.8007(4)
C25_6 C 0.3100(6) 0.7716(10) 0.7900(5)
C26_6 C 0.2284(6) 0.6900(10) 0.7900(5)
O18_6 O 0.1949(4) 0.6627(7) 0.7920(4)
O24_6 O 0.3169(4) 0.7451(7) 0.7783(4)
O25_6 O 0.2549(4) 0.6831(7) 0.7783(4)
C30_6 C 0.5449(5) 0.9445(7) 0.5598(5)
C33_6 C 0.2116(5) 0.9337(9) 0.8931(5)
H8_6 H 0.5261 0.9500 0.5518
H11_6 H 0.1928 0.9094 0.8851
N15_6 N 0.5464(4) 0.9147(6) 0.5506(3)
N18_6 N 0.2131(4) 0.9650(7) 0.8839(3)
C35_6 C 0.5764(5) 0.9158(7) 0.5683(5)
C38_6 C 0.2431(5) 0.9939(9) 0.9016(5)
C40_6 C 0.5923(5) 0.9493(8) 0.5873(4)
C43_6 C 0.2590(5) 0.9763(9) 0.9206(4)
N23_6 N 0.2391(4) 0.9388(7) 0.9151(4)
C45_6 C 0.6247(7) 0.9653(10) 0.6108(5)
C48_6 C 0.2914(7) 0.9927(12) 0.9441(5)
O32_6 O 0.2949(3) 0.9681(6) 0.9620(3)
O34_6 O 0.6601(5) 0.9615(6) 0.7046(3)
O36_6 O 0.6489(6) 0.9550(7) 0.6134(3)
O40_6 O 0.6217(7) 0.9822(8) 0.7199(3)
O42_6 O 0.5599(4) 0.8567(5) 0.5447(4)
C50_6 C 0.5831(7) 0.8835(9) 0.5638(5)
O47_6 O 0.6097(5) 0.8832(6) 0.5780(5)
O51_6 O 0.5499(6) 0.9430(7) 0.7553(5)
C55_6 C 0.5374(5) 0.9279(7) 0.4554(5)
C56_6 C 0.2041(5) 0.9428(9) 0.7887(5)
H13_6 H 0.5342 0.9459 0.4684
H14_6 H 0.2009 0.9216 0.8017
N33_6 N 0.5293(4) 0.8937(6) 0.4674(4)
N34_6 N 0.1960(4) 0.9689(7) 0.8007(4)
C60_6 C 0.5510(5) 0.9025(7) 0.4125(5)
C61_6 C 0.2177(5) 0.9818(9) 0.7458(5)
C65_6 C 0.5382(5) 0.8779(7) 0.4406(5)
C66_6 C 0.2049(5) 0.9936(9) 0.7739(5)
C70_6 C 0.5318(6) 0.8387(8) 0.4477(7)
C75_6 C 0.5625(7) 0.8992(9) 0.3787(6)
C76_6 C 0.2292(7) 0.9966(11) 0.7120(6)
O53_6 O 0.5217(4) 0.8248(6) 0.4749(3)
O58_6 O 0.5400(5) 0.8252(6) 0.4192(4)
O69_6 O 0.7390(6) 0.9797(7) 0.6919(3)
O71_6 O 0.5619(4) 0.8685(6) 0.3706(3)
C79_6 C 0.1575(3) 0.8425(5) 0.7286(7)
H17_6 H 0.1557 0.8443 0.7527
C82_6 C 0.2044(7) 0.8818(14) 0.6506(5)
C83_6 C 0.1182(10) 0.7956(16) 0.6506(5)
C87_6 C 0.1773(4) 0.8571(7) 0.6786(5)
C88_6 C 0.1429(4) 0.8227(7) 0.6786(5)
N39_6 N 0.1316(4) 0.8139(7) 0.7105(3)
O95_6 O 0.7310(11) 0.9760(13) 0.6061(5)
O97_6 O 0.675(3) 0.922(4) 0.530(2)
H22_6 H 0.274287 0.689164 0.796373
H25_6 H 0.300845 0.732887 0.757878
H31_6 H 0.566962 0.842339 0.412744
H36_4 H 0.393797 0.991047 0.812417
N42_4 N 0.3490(6) 0.1473(4) 0.0439(3)
O89_4 O 0.3779 0.0000(5) 0.0000
O80_4 O 0.3454(7) 0.1013(4) 0.9909(3)
O88_4 O 0.3403(5) 0.1397(3) 0.9524(3)
O94_4 O 0.3976(11) 0.0883(6) 0.9395(5)
O98_4 O 0.342(3) 0.086(3) 0.863(2)
C84_4 C 0.2152(10) 0.8710(7) 0.0160(5)
C85_4 C 0.1290(7) 0.7848(10) 0.0160(5)
O78_4 O 0.2442(6) 0.8987(4) 0.0091(3)
O79_4 O 0.1013(4) 0.7558(6) 0.0091(3)
O85_4 O 0.2007(4) 0.8603(3) 0.0476(3)
O86_4 O 0.1397(3) 0.7993(4) 0.0476(3)
Na9_4 Na 0.0484(2) 0.6859(3) 0.01313(17)
Na19_4 Na 0.0853(2) 0.7475(4) 0.0754(2)
O92_4 O 0.3094(9) 0.9117(6) 0.0605(5)
O99_4 O 0.255(4) 0.914(3) 0.137(2)
Cd9_4 Cd 0.01554(3) 0.81983(3) 0.85038(3)
Cd14_4 Cd 0.09436(4) 0.74292(4) 0.94765(3)
C18_4 C 0.1043(3) 0.8957(3) 0.8471(6)
H6_4 H 0.1169 0.8831 0.8384
N11_4 N 0.0666(4) 0.8780(4) 0.8540(3)
C22_4 C 0.0941(5) 0.9388(4) 0.8659(4)
C23_4 C 0.0612(4) 0.9059(5) 0.8659(4)
C27_4 C 0.1050(6) 0.9766(6) 0.8766(5)
C28_4 C 0.0234(6) 0.8950(6) 0.8766(5)
O26_4 O 0.0785(4) 0.9835(4) 0.8883(4)
O27_4 O 0.0165(4) 0.9215(4) 0.8883(4)
C30_7 C 0.1218(5) 0.7329(5) 0.7735(5)
H8_7 H 0.1406 0.7572 0.7815
N15_7 N 0.1203(4) 0.7016(4) 0.7827(3)
C35_7 C 0.0903(5) 0.6727(5) 0.7650(5)
C40_7 C 0.0744(5) 0.6903(6) 0.7460(4)
N20_4 N 0.0943(4) 0.7278(4) 0.7515(4)
N24_4 N 0.0612(4) 0.7609(4) 0.9151(4)
C45_7 C 0.0420(7) 0.6739(7) 0.7225(5)
O33_4 O 0.0319(4) 0.7051(3) 0.9620(3)
O42_7 O 0.1068(4) 0.6301(3) 0.7886(4)
C50_7 C 0.0836(7) 0.6337(5) 0.7695(5)
C55_7 C 0.1293(5) 0.7238(5) 0.8779(5)
H13_7 H 0.1325 0.7450 0.8649
N26_4 N 0.1161(4) 0.7169(4) 0.9102(4)
N30_4 N 0.0503(4) 0.7827(4) 0.7564(4)
N33_7 N 0.1374(4) 0.6977(4) 0.8659(4)
C60_7 C 0.1157(5) 0.6848(5) 0.9208(5)
C65_7 C 0.1285(5) 0.6730(5) 0.8927(5)
C70_7 C 0.1349(6) 0.6402(5) 0.8856(7)
C75_7 C 0.1042(7) 0.6700(6) 0.9546(6)
O53_7 O 0.1450(4) 0.6364(4) 0.8584(3)
O58_7 O 0.1267(5) 0.6185(4) 0.9141(4)
O63_4 O 0.0926(4) 0.6869(4) 0.9747(3)
O71_7 O 0.1048(4) 0.6399(5) 0.9627(3)
C80_4 C 0.1759(3) 0.8241(3) 0.9380(7)
H18_4 H 0.1777 0.8223 0.9139
C89_4 C 0.1905(4) 0.8439(4) 0.9880(5)
C90_4 C 0.1561(4) 0.8095(4) 0.9880(5)
N40_4 N 0.2018(4) 0.8527(4) 0.9561(3)
N41_4 N 0.1473(4) 0.7982(4) 0.9561(3)
H26_4 H 0.0662203 0.967512 0.908789
H27_4 H 0.0224971 0.940954 0.870294
H31_7 H 0.0997047 0.60871 0.92059
O20_4 O 0.9961(4) 0.8615(4) 0.8746(4)
C84_5 C 0.1290(7) 0.3441(12) 0.0160(5)
C85_5 C 0.2152(10) 0.3441(12) 0.0160(5)
O78_5 O 0.1013(4) 0.3454(7) 0.0091(3)
O79_5 O 0.2442(6) 0.3454(7) 0.0091(3)
O85_5 O 0.1397(3) 0.3403(5) 0.0476(3)
O86_5 O 0.2007(4) 0.3403(5) 0.0476(3)
Na9_5 Na 0.3141(3) 0.3624(4) 0.01313(17)
Na19_5 Na 0.2525(4) 0.3379(4) 0.0754(2)
O92_5 O 0.0883(6) 0.3976(11) 0.0605(5)
O99_5 O 0.086(3) 0.342(5) 0.137(2)
Cd9_5 Cd 0.18017(3) 0.19570(4) 0.85038(3)
Cd14_5 Cd 0.25708(4) 0.35143(6) 0.94765(3)
C18_5 C 0.1043(3) 0.2085(4) 0.8471(6)
H6_5 H 0.1169 0.2337 0.8384
N11_5 N 0.1220(4) 0.1885(6) 0.8540(3)
C22_5 C 0.0612(4) 0.1552(6) 0.8659(4)
C23_5 C 0.0941(5) 0.1552(6) 0.8659(4)
C27_5 C 0.0234(6) 0.1283(8) 0.8766(5)
C28_5 C 0.1050(6) 0.1283(8) 0.8766(5)
O20_5 O 0.1385(4) 0.1345(6) 0.8746(4)
O26_5 O 0.0165(4) 0.0949(6) 0.8883(4)
O27_5 O 0.0785(4) 0.0949(6) 0.8883(4)
C30_8 C 0.2671(5) 0.3888(7) 0.7735(5)
H8_8 H 0.2428 0.3833 0.7815
N15_8 N 0.2984(4) 0.4186(6) 0.7827(3)
C35_8 C 0.3273(5) 0.4175(7) 0.7650(5)
C40_8 C 0.3097(6) 0.3840(8) 0.7460(4)
N20_5 N 0.2722(4) 0.3664(6) 0.7515(4)
N24_5 N 0.2391(4) 0.3002(6) 0.9151(4)
C45_8 C 0.3261(7) 0.3680(10) 0.7225(5)
O33_5 O 0.2949(3) 0.3267(5) 0.9620(3)
O42_8 O 0.3699(3) 0.4766(5) 0.7886(4)
C50_8 C 0.3663(5) 0.4498(9) 0.7695(5)
C55_8 C 0.2762(5) 0.4054(7) 0.8779(5)
H13_8 H 0.2550 0.3874 0.8649
N26_5 N 0.2831(4) 0.3991(6) 0.9102(4)
N30_5 N 0.2173(4) 0.2675(6) 0.7564(4)
N33_8 N 0.3023(4) 0.4396(6) 0.8659(4)
C60_8 C 0.3152(5) 0.4308(7) 0.9208(5)
C65_8 C 0.3270(5) 0.4554(7) 0.8927(5)
C70_8 C 0.3598(5) 0.4946(8) 0.8856(7)
C75_8 C 0.3300(6) 0.4341(9) 0.9546(6)
O53_8 O 0.3636(4) 0.5085(6) 0.8584(3)
O58_8 O 0.3815(4) 0.5081(6) 0.9141(4)
O63_5 O 0.3131(4) 0.4056(6) 0.9747(3)
O71_8 O 0.3601(5) 0.4648(6) 0.9627(3)
C80_5 C 0.1759(3) 0.3517(4) 0.9380(7)
H18_5 H 0.1777 0.3553 0.9139
C89_5 C 0.1561(4) 0.3465(6) 0.9880(5)
C90_5 C 0.1905(4) 0.3465(6) 0.9880(5)
N40_5 N 0.1473(4) 0.3490(6) 0.9561(3)
N41_5 N 0.2018(4) 0.3490(6) 0.9561(3)
H26_5 H 0.0324884 0.0987087 0.908789
H27_5 H 0.0590464 0.0815435 0.870294
H31_8 H 0.39129 0.490994 0.92059
N42_5 N 0.8527(4) 0.2018(7) 0.0439(3)
O89_5 O 1.0000(5) 0.3778(5) 0.0000
O80_5 O 0.8987(4) 0.2442(8) 0.9909(3)
O88_5 O 0.8603(3) 0.2007(6) 0.9524(3)
O94_5 O 0.9117(6) 0.3094(13) 0.9395(5)
O98_5 O 0.914(3) 0.255(4) 0.863(2)
O20_6 O 0.8655(6) 0.0039(4) 0.8746(4)
C84_6 C 0.6559(12) 0.7848(10) 0.0160(5)
C85_6 C 0.6559(12) 0.8710(7) 0.0160(5)
N42_6 N 0.7982(7) 0.6510(6) 0.0439(3)
O78_6 O 0.6546(7) 0.7558(6) 0.0091(3)
O79_6 O 0.6546(7) 0.8987(4) 0.0091(3)
O85_6 O 0.6597(5) 0.7993(4) 0.0476(3)
O86_6 O 0.6597(5) 0.8603(3) 0.0476(3)
Na9_6 Na 0.6376(4) 0.9516(2) 0.01313(17)
Na19_6 Na 0.6621(4) 0.9147(2) 0.0754(2)
O89_6 O 0.6222(5) 0.6221 0.0000
O92_6 O 0.6024(11) 0.6906(9) 0.0605(5)
O99_6 O 0.658(5) 0.745(4) 0.137(2)
Cd9_6 Cd 0.80430(4) 0.98446(3) 0.85038(3)
Cd14_6 Cd 0.64857(6) 0.90564(4) 0.94765(3)
C18_6 C 0.7915(4) 0.8957(3) 0.8471(6)
H6_6 H 0.7663 0.8831 0.8384
N11_6 N 0.8115(6) 0.9334(4) 0.8540(3)
C22_6 C 0.8448(6) 0.9059(5) 0.8659(4)
C23_6 C 0.8448(6) 0.9388(4) 0.8659(4)
C27_6 C 0.8717(8) 0.8950(6) 0.8766(5)
C28_6 C 0.8717(8) 0.9766(6) 0.8766(5)
O26_6 O 0.9051(6) 0.9215(4) 0.8883(4)
O27_6 O 0.9051(6) 0.9835(4) 0.8883(4)
C30_9 C 0.6112(7) 0.8782(5) 0.7735(5)
H8_9 H 0.6167 0.8594 0.7815
N15_9 N 0.5814(6) 0.8797(4) 0.7827(3)
C35_9 C 0.5825(7) 0.9097(5) 0.7650(5)
C40_9 C 0.6160(8) 0.9256(5) 0.7460(4)
N20_6 N 0.6336(6) 0.9057(4) 0.7515(4)
N24_6 N 0.6998(6) 0.9388(4) 0.9151(4)
C45_9 C 0.6320(10) 0.9580(7) 0.7225(5)
O33_6 O 0.6733(5) 0.9681(4) 0.9620(3)
O42_9 O 0.5234(5) 0.8932(4) 0.7886(4)
C50_9 C 0.5502(9) 0.9164(7) 0.7695(5)
C55_9 C 0.5946(7) 0.8707(5) 0.8779(5)
H13_9 H 0.6126 0.8675 0.8649
N26_6 N 0.6009(6) 0.8839(4) 0.9102(4)
N30_6 N 0.7325(6) 0.9497(4) 0.7564(4)
N33_9 N 0.5604(6) 0.8626(4) 0.8659(4)
C60_9 C 0.5692(7) 0.8843(5) 0.9208(5)
C65_9 C 0.5446(7) 0.8715(5) 0.8927(5)
C70_9 C 0.5054(8) 0.8651(6) 0.8856(7)
C75_9 C 0.5659(9) 0.8958(7) 0.9546(6)
O53_9 O 0.4915(6) 0.8550(4) 0.8584(3)
O58_9 O 0.4919(6) 0.8733(5) 0.9141(4)
O63_6 O 0.5944(6) 0.9074(4) 0.9747(3)
O71_9 O 0.5352(6) 0.8952(4) 0.9627(3)
C80_6 C 0.6483(4) 0.8241(3) 0.9380(7)
H18_6 H 0.6447 0.8223 0.9139
C89_6 C 0.6535(6) 0.8095(4) 0.9880(5)
C90_6 C 0.6535(6) 0.8439(4) 0.9880(5)
N40_6 N 0.6510(6) 0.7982(4) 0.9561(3)
N41_6 N 0.6510(6) 0.8527(4) 0.9561(3)
O80_6 O 0.7558(8) 0.6546(7) 0.9909(3)
O88_6 O 0.7993(6) 0.6597(5) 0.9524(3)
O94_6 O 0.6906(13) 0.6024(11) 0.9395(5)
O98_6 O 0.745(4) 0.658(3) 0.863(2)
H26_6 H 0.901291 0.93378 0.908789
H27_6 H 0.918456 0.977503 0.870294
H31_9 H 0.509006 0.900295 0.92059
Cd8_7 Cd 0.19570(4) 0.18017(3) 0.14962(3)
Cd15_7 Cd 0.35143(6) 0.25708(4) 0.05235(3)
C17_7 C 0.2085(4) 0.1043(3) 0.1529(6)
H5_7 H 0.2337 0.1169 0.1616
N9_7 N 0.1885(6) 0.1220(4) 0.1460(3)
C20_7 C 0.1552(6) 0.0612(4) 0.1341(4)
C21_7 C 0.1552(6) 0.0941(5) 0.1341(4)
C25_7 C 0.1283(8) 0.0234(6) 0.1234(5)
C26_7 C 0.1283(8) 0.1050(6) 0.1234(5)
O18_7 O 0.1345(6) 0.1385(4) 0.1254(4)
O24_7 O 0.0949(6) 0.0165(4) 0.1117(4)
O25_7 O 0.0949(6) 0.0785(4) 0.1117(4)
C79_7 C 0.3517(4) 0.1759(3) 0.0620(7)
H17_7 H 0.3553 0.1777 0.0861
C87_7 C 0.3465(6) 0.1561(4) 0.0120(5)
C88_7 C 0.3465(6) 0.1905(4) 0.0120(5)
N39_7 N 0.3490(6) 0.2018(4) 0.0439(3)
H22_7 H 0.0815435 0.0590464 0.129706
H25_7 H 0.0987087 0.0324884 0.091211
C82_7 C 0.3441(12) 0.1290(7) 0.9840(5)
C83_7 C 0.3441(12) 0.2152(10) 0.9840(5)
O77_3 O 0.3454(7) 0.2442(6) 0.9909(3)
O84_3 O 0.3403(5) 0.2007(4) 0.9524(3)
Na8_3 Na 0.3624(4) 0.3141(3) 0.98687(17)
Na18_3 Na 0.3379(4) 0.2525(4) 0.9246(2)
O40_7 O 0.0272(4) 0.7117(7) 0.0533(3)
O51_7 O 0.0598(4) 0.7835(6) 0.0887(5)
O93_7 O 0.0883(6) 0.6906(9) 0.0605(5)
O100_7 O 0.086(3) 0.745(4) 0.137(2)
C30_10 C 0.0663(5) 0.7884(5) 0.8931(5)
H8_10 H 0.0906 0.8072 0.8851
N15_10 N 0.0350(4) 0.7869(4) 0.8839(3)
C35_10 C 0.0061(5) 0.7569(5) 0.9016(5)
C40_10 C 0.0237(6) 0.7410(5) 0.9206(4)
C45_10 C 0.0073(7) 0.7086(7) 0.9441(5)
C55_10 C 0.0572(5) 0.7959(5) 0.7887(5)
H13_10 H 0.0784 0.7991 0.8017
N33_10 N 0.0311(4) 0.8040(4) 0.8007(4)
C60_10 C 0.0182(5) 0.7823(5) 0.7458(5)
C65_10 C 0.0064(5) 0.7951(5) 0.7739(5)
C75_10 C 0.0034(6) 0.7708(7) 0.7120(6)
O34_7 O 0.9681(4) 0.6733(5) 0.0380(3)
O69_7 O 0.9074(4) 0.5944(6) 0.0253(3)
O90_7 O 1.0000(5) 0.6221 0.0000
O36_7 O 0.9728(4) 0.6844(6) 0.9467(3)
O42_10 O 0.9635(3) 0.7734(4) 0.8780(4)
C50_10 C 0.9671(5) 0.7502(7) 0.8971(5)
O47_7 O 0.9402(4) 0.7236(5) 0.9113(5)
C70_10 C 0.9736(5) 0.8015(6) 0.7810(7)
O53_10 O 0.9698(4) 0.8116(4) 0.8082(3)
O58_10 O 0.9519(4) 0.7933(5) 0.7525(4)
O71_10 O 0.9733(5) 0.7714(4) 0.7039(3)
O81_5 O 0.8987(4) 0.6546(7) 0.9909(3)
O87_5 O 0.8603(3) 0.6597(5) 0.9524(3)
Na7_5 Na 0.9516(2) 0.6376(4) 0.98687(17)
Na14_5 Na 0.9147(2) 0.6621(4) 0.9246(2)
O95_7 O 0.9117(6) 0.6024(11) 0.9395(5)
O97_7 O 0.914(3) 0.658(3) 0.863(2)
H31_10 H 0.942044 0.766371 0.746077
O18_8 O 0.0039(7) 0.8655(6) 0.1254(4)
O34_8 O 0.7051(6) 0.0319(4) 0.0380(3)
O69_8 O 0.6869(7) 0.0926(4) 0.0253(3)
O90_8 O 0.6222(5) 0.0000(5) 0.0000
O36_8 O 0.7117(7) 0.0272(4) 0.9467(3)
O42_11 O 0.8100(5) 0.0365(3) 0.8780(4)
C50_11 C 0.7832(9) 0.0329(5) 0.8971(5)
O47_8 O 0.7835(6) 0.0598(4) 0.9113(5)
C70_11 C 0.8280(8) 0.0264(5) 0.7810(7)
O53_11 O 0.8419(6) 0.0302(4) 0.8082(3)
O58_11 O 0.8415(6) 0.0481(4) 0.7525(4)
O71_11 O 0.7982(6) 0.0267(5) 0.7039(3)
O81_6 O 0.7558(8) 0.1013(4) 0.9909(3)
O87_6 O 0.7993(6) 0.1397(3) 0.9524(3)
Na7_6 Na 0.6859(4) 0.0484(2) 0.98687(17)
Na14_6 Na 0.7475(4) 0.0853(2) 0.9246(2)
O95_8 O 0.6906(13) 0.0883(6) 0.9395(5)
O97_8 O 0.745(4) 0.086(3) 0.863(2)
H31_11 H 0.824328 0.0579562 0.746077
Cd8_8 Cd 0.98446(5) 0.80430(4) 0.14962(3)
Cd15_8 Cd 0.90564(7) 0.64857(6) 0.05235(3)
C17_8 C 0.8957(5) 0.7915(4) 0.1529(6)
H5_8 H 0.8831 0.7663 0.1616
N9_8 N 0.9334(7) 0.8115(6) 0.1460(3)
C20_8 C 0.9059(7) 0.8448(6) 0.1341(4)
C21_8 C 0.9388(8) 0.8448(6) 0.1341(4)
C25_8 C 0.8950(10) 0.8717(8) 0.1234(5)
C26_8 C 0.9766(10) 0.8717(8) 0.1234(5)
O24_8 O 0.9215(7) 0.9051(6) 0.1117(4)
O25_8 O 0.9835(7) 0.9051(6) 0.1117(4)
O40_8 O 0.6844(8) 0.9728(4) 0.0533(3)
O51_8 O 0.7236(7) 0.9402(4) 0.0887(5)
C79_8 C 0.8241(5) 0.6483(4) 0.0620(7)
H17_8 H 0.8223 0.6447 0.0861
C87_8 C 0.8095(7) 0.6535(6) 0.0120(5)
C88_8 C 0.8439(7) 0.6535(6) 0.0120(5)
N39_8 N 0.8527(7) 0.6510(6) 0.0439(3)
O93_8 O 0.6024(11) 0.9117(6) 0.0605(5)
O100_8 O 0.658(5) 0.914(3) 0.137(2)
H22_8 H 0.977503 0.918456 0.129706
H25_8 H 0.93378 0.901291 0.091211
C30_11 C 0.7222(7) 0.9337(5) 0.8931(5)
H8_11 H 0.7167 0.9094 0.8851
N15_11 N 0.7520(6) 0.9650(4) 0.8839(3)
C35_11 C 0.7509(7) 0.9939(5) 0.9016(5)
C40_11 C 0.7174(8) 0.9763(6) 0.9206(4)
C45_11 C 0.7014(10) 0.9927(7) 0.9441(5)
C55_11 C 0.7388(7) 0.9428(5) 0.7887(5)
H13_11 H 0.7208 0.9216 0.8017
N33_11 N 0.7730(6) 0.9689(4) 0.8007(4)
C60_11 C 0.7642(7) 0.9818(5) 0.7458(5)
C65_11 C 0.7888(7) 0.9936(5) 0.7739(5)
C75_11 C 0.7675(9) 0.9966(6) 0.7120(6)
C82_8 C 0.7848(14) 0.6559(12) 0.9840(5)
C83_8 C 0.8710(16) 0.6559(12) 0.9840(5)
O34_9 O 0.3267(5) 0.2949(6) 0.0380(3)
O40_9 O 0.2883(7) 0.3156(8) 0.0533(3)
O51_9 O 0.2165(6) 0.2764(7) 0.0887(5)
O69_9 O 0.4056(6) 0.3131(7) 0.0253(3)
O90_9 O 0.3779 0.3778(5) 0.0000
O93_9 O 0.3094(9) 0.3976(11) 0.0605(5)
O100_9 O 0.255(4) 0.342(5) 0.137(2)
C30_12 C 0.2116(5) 0.2778(7) 0.8931(5)
H8_12 H 0.1928 0.2833 0.8851
N15_12 N 0.2131(4) 0.2480(6) 0.8839(3)
C35_12 C 0.2431(5) 0.2491(7) 0.9016(5)
C40_12 C 0.2590(5) 0.2826(8) 0.9206(4)
C45_12 C 0.2914(7) 0.2986(10) 0.9441(5)
O36_9 O 0.3156(6) 0.2883(7) 0.9467(3)
O42_12 O 0.2266(4) 0.1900(5) 0.8780(4)
C50_12 C 0.2498(7) 0.2168(9) 0.8971(5)
O47_9 O 0.2764(5) 0.2165(6) 0.9113(5)
C55_12 C 0.2041(5) 0.2612(7) 0.7887(5)
H13_12 H 0.2009 0.2792 0.8017
N33_12 N 0.1960(4) 0.2270(6) 0.8007(4)
C60_12 C 0.2177(5) 0.2358(7) 0.7458(5)
C65_12 C 0.2049(5) 0.2112(7) 0.7739(5)
C70_12 C 0.1985(6) 0.1720(8) 0.7810(7)
C75_12 C 0.2292(7) 0.2325(9) 0.7120(6)
O53_12 O 0.1884(4) 0.1581(6) 0.8082(3)
O58_12 O 0.2067(5) 0.1585(6) 0.7525(4)
O71_12 O 0.2286(4) 0.2018(6) 0.7039(3)
O95_9 O 0.3976(11) 0.3094(13) 0.9395(5)
O97_9 O 0.342(3) 0.255(4) 0.863(2)
H31_12 H 0.233629 0.175672 0.746077
Cd8_9 Cd 0.81983(3) 0.01554(5) 0.14962(3)
Cd15_9 Cd 0.74292(4) 0.09436(7) 0.05235(3)
C17_9 C 0.8957(3) 0.1043(5) 0.1529(6)
H5_9 H 0.8831 0.1169 0.1616
N9_9 N 0.8780(4) 0.0666(7) 0.1460(3)
C20_9 C 0.9388(4) 0.0941(7) 0.1341(4)
C21_9 C 0.9059(5) 0.0612(8) 0.1341(4)
C25_9 C 0.9766(6) 0.1050(10) 0.1234(5)
C26_9 C 0.8950(6) 0.0234(10) 0.1234(5)
O24_9 O 0.9835(4) 0.0785(7) 0.1117(4)
O25_9 O 0.9215(4) 0.0165(7) 0.1117(4)
C79_9 C 0.8241(3) 0.1759(5) 0.0620(7)
H17_9 H 0.8223 0.1777 0.0861
C87_9 C 0.8439(4) 0.1905(7) 0.0120(5)
C88_9 C 0.8095(4) 0.1561(7) 0.0120(5)
N39_9 N 0.7982(4) 0.1473(7) 0.0439(3)
H22_9 H 0.940954 0.0224971 0.129706
H25_9 H 0.967512 0.0662203 0.091211
C82_9 C 0.8710(7) 0.2152(14) 0.9840(5)
C83_9 C 0.7848(10) 0.1290(16) 0.9840(5)
O18_9 O 0.8615(4) 0.9961(7) 0.1254(4)
O13_4 O 0.0000(5) 0.3779 1.0000
C30_13 C 0.7884(5) 0.0663(5) 0.1069(5)
H8_13 H 0.8072 0.0906 0.1149
N15_13 N 0.7869(4) 0.0350(4) 0.1161(3)
C35_13 C 0.7569(5) 0.0061(5) 0.0984(5)
C40_13 C 0.7410(5) 0.0237(6) 0.0794(4)
N20_7 N 0.7609(4) 0.0612(4) 0.0849(4)
N24_7 N 0.7278(4) 0.0943(4) 0.2485(4)
C45_13 C 0.7086(7) 0.0073(7) 0.0559(5)
C55_13 C 0.7959(5) 0.0572(5) 0.2113(5)
H13_13 H 0.7991 0.0784 0.1983
N26_7 N 0.7827(4) 0.0503(4) 0.2436(4)
N30_7 N 0.7169(4) 0.1161(4) 0.0898(4)
N33_13 N 0.8040(4) 0.0311(4) 0.1993(4)
C60_13 C 0.7823(5) 0.0182(5) 0.2542(5)
C65_13 C 0.7951(5) 0.0064(5) 0.2261(5)
C75_13 C 0.7708(7) 0.0034(6) 0.2880(6)
O42_13 O 0.7734(4) 0.9635(3) 0.1220(4)
C50_13 C 0.7502(7) 0.9671(5) 0.1029(5)
C70_13 C 0.8015(6) 0.9736(5) 0.2190(7)
O53_13 O 0.8116(4) 0.9698(4) 0.1918(3)
O58_13 O 0.7933(5) 0.9519(4) 0.2475(4)
O71_13 O 0.7714(4) 0.9733(5) 0.2961(3)
H31_13 H 0.766371 0.942044 0.253923
O90_10 O 0.6221 1.0000(5) 1.0000
O42_14 O 0.0365(3) 0.8100(5) 0.1220(4)
C50_14 C 0.0329(5) 0.7832(9) 0.1029(5)
C70_14 C 0.0264(5) 0.8280(8) 0.2190(7)
O53_14 O 0.0302(4) 0.8419(6) 0.1918(3)
O58_14 O 0.0481(4) 0.8415(6) 0.2475(4)
O71_14 O 0.0267(5) 0.7982(6) 0.2961(3)
H31_14 H 0.0579562 0.824328 0.253923
O90_11 O 0.0000(5) 0.6222(5) 1.0000
C30_14 C 0.9337(5) 0.7222(7) 0.1069(5)
H8_14 H 0.9094 0.7167 0.1149
N15_14 N 0.9650(4) 0.7520(6) 0.1161(3)
C35_14 C 0.9939(5) 0.7509(7) 0.0984(5)
C40_14 C 0.9763(6) 0.7174(8) 0.0794(4)
N20_8 N 0.9388(4) 0.6998(6) 0.0849(4)
N24_8 N 0.9057(4) 0.6336(6) 0.2485(4)
C45_14 C 0.9927(7) 0.7014(10) 0.0559(5)
C55_14 C 0.9428(5) 0.7388(7) 0.2113(5)
H13_14 H 0.9216 0.7208 0.1983
N26_8 N 0.9497(4) 0.7325(6) 0.2436(4)
N30_8 N 0.8839(4) 0.6009(6) 0.0898(4)
N33_14 N 0.9689(4) 0.7730(6) 0.1993(4)
C60_14 C 0.9818(5) 0.7642(7) 0.2542(5)
C65_14 C 0.9936(5) 0.7888(7) 0.2261(5)
C75_14 C 0.9966(6) 0.7675(9) 0.2880(6)
O13_5 O 0.6221 0.6222(5) 1.0000
C30_15 C 0.2778(7) 0.2116(5) 0.1069(5)
H8_15 H 0.2833 0.1928 0.1149
N15_15 N 0.2480(6) 0.2131(4) 0.1161(3)
C35_15 C 0.2491(7) 0.2431(5) 0.0984(5)
C40_15 C 0.2826(8) 0.2590(5) 0.0794(4)
N20_9 N 0.3002(6) 0.2391(4) 0.0849(4)
N24_9 N 0.3664(6) 0.2722(4) 0.2485(4)
C45_15 C 0.2986(10) 0.2914(7) 0.0559(5)
O42_15 O 0.1900(5) 0.2266(4) 0.1220(4)
C50_15 C 0.2168(9) 0.2498(7) 0.1029(5)
C55_15 C 0.2612(7) 0.2041(5) 0.2113(5)
H13_15 H 0.2792 0.2009 0.1983
N26_9 N 0.2675(6) 0.2173(4) 0.2436(4)
N30_9 N 0.3991(6) 0.2831(4) 0.0898(4)
N33_15 N 0.2270(6) 0.1960(4) 0.1993(4)
C60_15 C 0.2358(7) 0.2177(5) 0.2542(5)
C65_15 C 0.2112(7) 0.2049(5) 0.2261(5)
C70_15 C 0.1720(8) 0.1985(6) 0.2190(7)
C75_15 C 0.2325(9) 0.2292(7) 0.2880(6)
O53_15 O 0.1581(6) 0.1884(4) 0.1918(3)
O58_15 O 0.1585(6) 0.2067(5) 0.2475(4)
O71_15 O 0.2018(6) 0.2286(4) 0.2961(3)
H31_15 H 0.175672 0.233629 0.253923
O90_12 O 0.3778(5) 0.3779 1.0000
O13_6 O 0.3778(5) 1.0000(5) 1.0000
C30_16 C 0.7329(5) 0.1218(5) 0.2265(5)
H8_16 H 0.7572 0.1406 0.2185
N15_16 N 0.7016(4) 0.1203(4) 0.2173(3)
C35_16 C 0.6727(5) 0.0903(5) 0.2350(5)
C40_16 C 0.6903(6) 0.0744(5) 0.2540(4)
C45_16 C 0.6739(7) 0.0420(7) 0.2775(5)
O42_16 O 0.6301(3) 0.1068(4) 0.2114(4)
C50_16 C 0.6337(5) 0.0836(7) 0.2305(5)
C55_16 C 0.7238(5) 0.1293(5) 0.1221(5)
H13_16 H 0.7450 0.1325 0.1351
N33_16 N 0.6977(4) 0.1374(4) 0.1341(4)
C60_16 C 0.6848(5) 0.1157(5) 0.0792(5)
C65_16 C 0.6730(5) 0.1285(5) 0.1073(5)
C70_16 C 0.6402(5) 0.1349(6) 0.1144(7)
C75_16 C 0.6700(6) 0.1042(7) 0.0454(6)
O53_16 O 0.6364(4) 0.1450(4) 0.1416(3)
O58_16 O 0.6185(4) 0.1267(5) 0.0859(4)
O71_16 O 0.6399(5) 0.1048(4) 0.0373(3)
H31_16 H 0.60871 0.0997047 0.0794102
C30_17 C 0.3888(7) 0.2671(5) 0.2265(5)
H8_17 H 0.3833 0.2428 0.2185
N15_17 N 0.4186(6) 0.2984(4) 0.2173(3)
C35_17 C 0.4175(7) 0.3273(5) 0.2350(5)
C40_17 C 0.3840(8) 0.3097(6) 0.2540(4)
C45_17 C 0.3680(10) 0.3261(7) 0.2775(5)
O42_17 O 0.4766(5) 0.3699(3) 0.2114(4)
C50_17 C 0.4498(9) 0.3663(5) 0.2305(5)
C55_17 C 0.4054(7) 0.2762(5) 0.1221(5)
H13_17 H 0.3874 0.2550 0.1351
N33_17 N 0.4396(6) 0.3023(4) 0.1341(4)
C60_17 C 0.4308(7) 0.3152(5) 0.0792(5)
C65_17 C 0.4554(7) 0.3270(5) 0.1073(5)
C70_17 C 0.4946(8) 0.3598(5) 0.1144(7)
C75_17 C 0.4341(9) 0.3300(6) 0.0454(6)
O53_17 O 0.5085(6) 0.3636(4) 0.1416(3)
O58_17 O 0.5081(6) 0.3815(4) 0.0859(4)
O71_17 O 0.4648(6) 0.3601(5) 0.0373(3)
H31_17 H 0.490994 0.39129 0.0794102
C30_18 C 0.8782(5) 0.6112(7) 0.2265(5)
H8_18 H 0.8594 0.6167 0.2185
N15_18 N 0.8797(4) 0.5814(6) 0.2173(3)
C35_18 C 0.9097(5) 0.5825(7) 0.2350(5)
C40_18 C 0.9256(5) 0.6160(8) 0.2540(4)
C45_18 C 0.9580(7) 0.6320(10) 0.2775(5)
O42_18 O 0.8932(4) 0.5234(5) 0.2114(4)
C50_18 C 0.9164(7) 0.5502(9) 0.2305(5)
C55_18 C 0.8707(5) 0.5946(7) 0.1221(5)
H13_18 H 0.8675 0.6126 0.1351
N33_18 N 0.8626(4) 0.5604(6) 0.1341(4)
C60_18 C 0.8843(5) 0.5692(7) 0.0792(5)
C65_18 C 0.8715(5) 0.5446(7) 0.1073(5)
C70_18 C 0.8651(6) 0.5054(8) 0.1144(7)
C75_18 C 0.8958(7) 0.5659(9) 0.0454(6)
O53_18 O 0.8550(4) 0.4915(6) 0.1416(3)
O58_18 O 0.8733(5) 0.4919(6) 0.0859(4)
O71_18 O 0.8952(4) 0.5352(6) 0.0373(3)
H31_18 H 0.900295 0.509006 0.0794102
H19_4 H 0.300776 0.476759 0.400169
H20_4 H 0.365822 0.600446 0.575456
H21_4 H 0.39238 0.64417 0.53696
H22_10 H 0.274287 0.585123 0.796373
H25_10 H 0.300845 0.567958 0.757878
H26_7 H 0.600446 0.365822 0.424544
H27_7 H 0.64417 0.39238 0.46304
H28_4 H 0.509317 0.365891 0.0668355
H29_7 H 0.189907 0.15735 0.733502
H30_4 H 0.365891 0.509317 0.933164
H31_19 H 0.566962 0.724623 0.412744
H32_4 H 0.476759 0.300776 0.599831
H26_8 H 0.634178 0.234625 0.424544
H27_8 H 0.60762 0.25179 0.46304
H28_5 H 0.634109 0.143426 0.0668355
H29_8 H 0.84265 0.0325576 0.733502
H32_5 H 0.699224 0.175984 0.599831
H33_5 H 0.596938 0.0173757 0.186945
H19_5 H 0.523241 0.824016 0.400169
H20_5 H 0.399554 0.765375 0.575456
H21_5 H 0.35583 0.74821 0.53696
H22_11 H 0.414877 0.689164 0.796373
H25_11 H 0.432042 0.732887 0.757878
H30_5 H 0.490683 0.856574 0.933164
H31_20 H 0.275377 0.842339 0.412744
H36_5 H 0.59725 0.991047 0.812417
H19_6 H 0.175984 0.699224 0.400169
H20_6 H 0.234625 0.634178 0.575456
H21_6 H 0.25179 0.60762 0.53696
H22_12 H 0.310836 0.725713 0.796373
H25_12 H 0.267113 0.699155 0.757878
H30_6 H 0.143426 0.634109 0.933164
H31_21 H 0.157661 0.433038 0.412744
H36_6 H 0.0089533 0.606203 0.812417
H26_9 H 0.765375 0.399554 0.424544
H27_9 H 0.74821 0.35583 0.46304
H28_6 H 0.856574 0.490683 0.0668355
H29_9 H 0.967442 0.810093 0.733502
H32_6 H 0.824016 0.523241 0.599831
H33_6 H 0.982624 0.579562 0.186945
H22_13 H 0.585123 0.274287 0.203627
H25_13 H 0.567958 0.300845 0.242122
H29_10 H 0.15735 0.189907 0.266498
H31_22 H 0.724623 0.566962 0.587256
H29_11 H 0.0325576 0.84265 0.266498
H33_7 H 0.0173757 0.596938 0.813055
H22_14 H 0.689164 0.414877 0.203627
H25_14 H 0.732887 0.432042 0.242122
H31_23 H 0.842339 0.275377 0.587256
H36_7 H 0.991047 0.59725 0.187583
H22_15 H 0.725713 0.310836 0.203627
H25_15 H 0.699155 0.267113 0.242122
H31_24 H 0.433038 0.157661 0.587256
H36_8 H 0.606203 0.0089533 0.187583
H29_12 H 0.810093 0.967442 0.266498
H33_8 H 0.579562 0.982624 0.813055
H26_10 H 0.93378 0.0324884 0.091211
H27_10 H 0.977503 0.0590464 0.129706
H31_25 H 0.900295 0.39129 0.0794102
H26_11 H 0.967512 0.901291 0.091211
H27_11 H 0.940954 0.918456 0.129706
H31_26 H 0.60871 0.509006 0.0794102
H26_12 H 0.0987087 0.0662203 0.091211
H27_12 H 0.0815435 0.0224971 0.129706
H31_27 H 0.490994 0.0997047 0.0794102
H31_28 H 0.0579562 0.233629 0.253923
H22_16 H 0.918456 0.940954 0.870294
H25_16 H 0.901291 0.967512 0.908789
H22_17 H 0.0224971 0.0815435 0.870294
H25_17 H 0.0662203 0.0987087 0.908789
H31_29 H 0.175672 0.942044 0.253923
H22_18 H 0.0590464 0.977503 0.870294
H25_18 H 0.0324884 0.93378 0.908789
H31_30 H 0.766371 0.824328 0.253923
H31_31 H 0.233629 0.0579562 0.746077
H31_32 H 0.942044 0.175672 0.746077
H31_33 H 0.824328 0.766371 0.746077
H31_34 H 0.39129 0.900295 0.92059
H31_35 H 0.509006 0.60871 0.92059
H31_36 H 0.0997047 0.490994 0.92059
loop_
_geom_bond_atom_site_label_1
_geom_bond_atom_site_label_2
_geom_bond_site_symmetry_1
_geom_bond_site_symmetry_2
Cd1 N1 1_555 1_555
Cd2 N3 1_555 1_555
C1 H1 1_555 1_555
N1 C1 1_555 1_555
C2 N1 1_555 1_555
C3 C2 1_555 1_555
O1 Cd1 1_555 1_555
O2 C3 1_555 1_555
C4 H2 1_555 1_555
N2 Cd1 1_555 1_555
C5 N2 1_555 1_555
C6 C5 1_555 1_555
N3 C4 1_555 1_555
C7 C6 1_555 1_555
O3 Cd2 1_555 1_555
O4 C7 1_555 1_555
O5 Cd1 1_555 1_555
C8 C5 1_555 1_555
O6 C8 1_555 1_555
C9 H3 1_555 1_555
N4 C9 1_555 1_555
N5 Cd1 1_555 1_555
C10 N4 1_555 1_555
C11 N5 1_555 1_555
C12 C11 1_555 1_555
C13 C10 1_555 1_555
O7 Cd1 1_555 1_555
O8 C12 1_555 1_555
O9 C13 1_555 1_555
O10 C13 1_555 1_555
C14 H4 1_555 1_555
C15 C16 1_555 1_555
C16 N6 1_555 1_555
N6 Cd2 1_555 1_555
O11 Cd2 1_555 1_555
O12 C15 1_555 1_555
Na1 O3 1_555 1_555
Na2 O4 1_555 1_555
O13 Na1 1_555 1_555
O14 Na1 1_555 1_555
O15 Na2 1_555 1_555
Cd3 N7 1_555 1_555
Cd4 N8 1_555 1_555
Cd5 N10 1_555 1_555
Cd6 N12 1_555 1_555
Cd7 N13 1_555 1_555
Cd8 N9 1_555 1_555
Cd9 N11 1_555 1_555
Cd10 N4 1_555 1_555
Cd11 N19 1_555 1_555
Cd12 N20 1_555 1_555
Cd13 N22 1_555 1_555
Cd14 N24 1_555 1_555
Cd15 N39 1_555 1_555
Cd16 N23 1_555 1_555
Cd17 N29 1_555 1_555
C17 H5 1_555 1_555
C18 H6 1_555 1_555
N7 C1 1_555 1_555
N8 C17 1_555 1_555
N9 C17 1_555 1_555
N10 C18 1_555 1_555
N11 C18 1_555 1_555
C19 C2 1_555 1_555
C20 N8 1_555 1_555
C21 N9 1_555 1_555
C22 N10 1_555 1_555
C23 N11 1_555 1_555
C24 C19 1_555 1_555
C25 C20 1_555 1_555
C26 C21 1_555 1_555
C27 C22 1_555 1_555
C28 C23 1_555 1_555
O16 Cd3 1_555 1_555
O17 Cd4 1_555 1_555
O18 Cd8 1_555 1_555
O19 Cd5 1_555 1_555
O20 Cd9 1_555 1_555
O21 Cd6 1_555 1_555
O22 Cd7 1_555 1_555
O23 C24 1_555 1_555
O24 C25 1_555 1_555
O25 C26 1_555 1_555
O26 C27 1_555 1_555
O27 C28 1_555 1_555
C29 H7 1_555 1_555
C30 H8 1_555 1_555
C31 H9 1_555 1_555
C32 H10 1_555 1_555
C33 H11 1_555 1_555
N14 Cd4 1_555 1_555
N15 Cd3 1_555 1_555
N16 Cd5 1_555 1_555
N17 Cd6 1_555 1_555
N18 Cd7 1_555 1_555
C34 N14 1_555 1_555
C35 N15 1_555 1_555
C36 N16 1_555 1_555
C37 N17 1_555 1_555
C38 N18 1_555 1_555
C39 C34 1_555 1_555
C40 C35 1_555 1_555
C41 C36 1_555 1_555
C42 C37 1_555 1_555
C43 C38 1_555 1_555
N19 C29 1_555 1_555
N20 C30 1_555 1_555
N21 Cd10 1_555 1_555
N22 C32 1_555 1_555
N23 C33 1_555 1_555
C44 C39 1_555 1_555
C45 C40 1_555 1_555
C46 C41 1_555 1_555
C47 C42 1_555 1_555
C48 C43 1_555 1_555
O28 Cd11 1_555 1_555
O29 Cd12 1_555 1_555
O30 Cd10 1_555 1_555
O31 Cd13 1_555 1_555
O32 Cd16 1_555 1_555
O33 Cd14 1_555 1_555
O34 Na7 1_555 1_555
O35 Na1 1_555 1_555
O36 C45 1_555 1_555
O37 C46 1_555 1_555
O38 C47 1_555 1_555
O39 C48 1_555 1_555
O40 Na5 1_555 1_555
O41 Cd4 1_555 1_555
O42 Cd3 1_555 1_555
O43 Cd5 1_555 1_555
O44 Cd6 1_555 1_555
O45 Cd7 1_555 1_555
C49 C34 1_555 1_555
C50 C35 1_555 1_555
C51 C36 1_555 1_555
C52 C37 1_555 1_555
C53 C38 1_555 1_555
O46 C49 1_555 1_555
O47 C50 1_555 1_555
O48 C51 1_555 1_555
O49 C52 1_555 1_555
O50 C53 1_555 1_555
O51 Na17 1_555 1_555
C54 H12 1_555 1_555
C55 H13 1_555 1_555
C56 H14 1_555 1_555
C57 H15 1_555 1_555
C58 H16 1_555 1_555
N25 Cd2 1_555 1_555
N26 Cd14 1_555 1_555
N27 Cd11 1_555 1_555
N28 Cd16 1_555 1_555
N29 C58 1_555 1_555
N30 Cd12 1_555 1_555
N31 Cd13 1_555 1_555
N32 Cd5 1_555 1_555
N33 Cd3 1_555 1_555
N34 Cd7 1_555 1_555
N35 Cd4 1_555 1_555
N36 Cd6 1_555 1_555
C59 N25 1_555 1_555
C60 N26 1_555 1_555
C61 N27 1_555 1_555
C62 N28 1_555 1_555
C63 N29 1_555 1_555
C64 N32 1_555 1_555
C65 N33 1_555 1_555
C66 N34 1_555 1_555
C67 N35 1_555 1_555
C68 N36 1_555 1_555
C69 C64 1_555 1_555
C70 C65 1_555 1_555
C71 C66 1_555 1_555
C72 C67 1_555 1_555
C73 C68 1_555 1_555
C74 C59 1_555 1_555
C75 C60 1_555 1_555
C76 C61 1_555 1_555
C77 C62 1_555 1_555
C78 C63 1_555 1_555
O52 Cd5 1_555 1_555
O53 Cd3 1_555 1_555
O54 Cd7 1_555 1_555
O55 Cd4 1_555 1_555
O56 Cd6 1_555 1_555
O57 C69 1_555 1_555
O58 C70 1_555 1_555
O59 C71 1_555 1_555
O60 C72 1_555 1_555
O61 C73 1_555 1_555
O62 Cd2 1_555 1_555
O63 Cd14 1_555 1_555
O64 Cd11 1_555 1_555
O65 Cd16 1_555 1_555
O66 Cd17 1_555 1_555
O67 Cd12 1_555 1_555
O68 Cd13 1_555 1_555
O69 Na7 1_555 1_555
O70 C74 1_555 1_555
O71 C75 1_555 1_555
O72 C76 1_555 1_555
O73 C77 1_555 1_555
O74 C78 1_555 1_555
C79 H17 1_555 1_555
C80 H18 1_555 1_555
C81 C86 1_555 1_555
C82 C87 1_555 1_555
C83 C88 1_555 1_555
C84 C89 1_555 1_555
C85 C90 1_555 1_555
C86 C16 1_555 1_555
C87 C88 1_555 1_555
C88 N39 1_555 1_555
C89 C90 1_555 1_555
C90 N41 1_555 1_555
N37 C14 1_555 1_555
N38 Cd11 1_555 1_555
N39 C79 1_555 1_555
N40 Cd10 1_555 1_555
N41 Cd14 1_555 1_555
N42 Cd13 1_555 1_555
O75 Cd12 1_555 1_555
O76 Na2 1_555 1_555
O77 Cd15 1_555 1_555
O78 Cd10 1_555 1_555
O79 Cd14 1_555 1_555
O80 Cd13 1_555 1_555
O81 Na7 1_555 1_555
O82 C81 1_555 1_555
O83 Na2 1_555 1_555
O84 C83 1_555 1_555
O85 C84 1_555 1_555
O86 C85 1_555 1_555
O87 Na14 1_555 1_555
O88 Na15 1_555 1_555
Na3 O4 1_555 1_555
Na4 O9 1_555 1_555
Na5 O29 1_555 1_555
Na6 O31 1_555 1_555
Na7 O36 1_555 1_555
Na8 O77 1_555 1_555
Na9 O33 1_555 1_555
Na11 O39 1_555 1_555
Na13 O11 1_555 1_555
Na14 O36 1_555 1_555
Na15 O37 1_555 1_555
Na16 O38 1_555 1_555
Na17 O40 1_555 1_555
Na18 O77 1_555 1_555
Na19 O79 1_555 1_555
Na20 O39 1_555 1_555
O89 Na4 1_555 1_555
O90 Na5 1_555 1_555
O91 Na2 1_555 1_555
O92 Na4 1_555 1_555
O93 Na5 1_555 1_555
O94 Na6 1_555 1_555
O95 Na7 1_555 1_555
O96 Na13 1_555 1_555
O97 Na14 1_555 1_555
O98 Na15 1_555 1_555
O99 Na16 1_555 1_555
O100 Na17 1_555 1_555
C3 O1 1_555 1_555
C4 N2 1_555 1_555
C6 N3 1_555 1_555
C7 O3 1_555 1_555
O5 C8 1_555 1_555
O6 Na2 1_555 1_555
C9 N5 1_555 1_555
C10 C11 1_555 1_555
C12 O7 1_555 1_555
O9 Cd10 1_555 1_555
C14 N6 1_555 1_555
C15 O11 1_555 1_555
O11 Na1 1_555 1_555
O12 Na13 1_555 1_555
Na1 O62 1_555 1_555
O13 Na3 1_555 1_555
O14 Na13 1_555 1_555
Cd11 O76 1_555 1_555
Cd12 N37 1_555 1_555
N7 C19 1_555 1_555
C20 C21 1_555 1_555
C22 C23 1_555 1_555
C24 O16 1_555 1_555
C25 O17 1_555 1_555
C26 O18 1_555 1_555
C27 O19 1_555 1_555
C28 O20 1_555 1_555
C29 N14 1_555 1_555
C30 N15 1_555 1_555
C31 N16 1_555 1_555
C31 N21 1_555 1_555
C32 N17 1_555 1_555
C33 N18 1_555 1_555
C39 N19 1_555 1_555
C40 N20 1_555 1_555
C41 N21 1_555 1_555
C42 N22 1_555 1_555
C43 N23 1_555 1_555
C44 O28 1_555 1_555
C44 O35 1_555 1_555
C45 O29 1_555 1_555
C46 O30 1_555 1_555
C47 O31 1_555 1_555
C48 O32 1_555 1_555
O28 Na3 1_555 1_555
O30 Na4 1_555 1_555
O35 Na13 1_555 1_555
O37 Na6 1_555 1_555
O38 Na4 1_555 1_555
O41 C49 1_555 1_555
O42 C50 1_555 1_555
O43 C51 1_555 1_555
O44 C52 1_555 1_555
O45 C53 1_555 1_555
O46 Na13 1_555 1_555
O47 Na14 1_555 1_555
O48 Na15 1_555 1_555
O49 Na16 1_555 1_555
O50 Na20 1_555 1_555
C54 N25 1_555 1_555
C54 N32 1_555 1_555
C55 N26 1_555 1_555
C55 N33 1_555 1_555
C56 N27 1_555 1_555
C56 N34 1_555 1_555
C57 N28 1_555 1_555
C57 N35 1_555 1_555
C58 N36 1_555 1_555
C59 C64 1_555 1_555
C60 C65 1_555 1_555
C61 C66 1_555 1_555
C62 C67 1_555 1_555
C63 C68 1_555 1_555
C69 O52 1_555 1_555
C70 O53 1_555 1_555
C71 O54 1_555 1_555
C72 O55 1_555 1_555
C73 O56 1_555 1_555
C74 O62 1_555 1_555
C75 O63 1_555 1_555
C76 O64 1_555 1_555
C77 O65 1_555 1_555
C78 O66 1_555 1_555
O63 Na9 1_555 1_555
O64 Na3 1_555 1_555
O67 Na5 1_555 1_555
O68 Na6 1_555 1_555
C79 N38 1_555 1_555
C80 N40 1_555 1_555
C80 N41 1_555 1_555
C81 O75 1_555 1_555
C82 O76 1_555 1_555
C82 O83 1_555 1_555
C83 O77 1_555 1_555
C84 O78 1_555 1_555
C85 O79 1_555 1_555
C86 N37 1_555 1_555
C87 N38 1_555 1_555
C89 N40 1_555 1_555
O75 Na5 1_555 1_555
O75 Na17 1_555 1_555
O76 Na3 1_555 1_555
O78 Na4 1_555 1_555
O78 Na16 1_555 1_555
O79 Na9 1_555 1_555
O80 Na6 1_555 1_555
O80 Na15 1_555 1_555
O81 Na14 1_555 1_555
O82 Na17 1_555 1_555
O84 Na18 1_555 1_555
O85 Na16 1_555 1_555
O86 Na19 1_555 1_555
Na3 O91 1_555 1_555
Na6 O89 1_555 1_555
Na7 O90 1_555 1_555
Na14 O95 1_555 1_555
Na15 O94 1_555 1_555
Na16 O92 1_555 1_555
Na17 O93 1_555 1_555
O8 H19 1_555 1_555
O2 H20 1_555 1_555
O23 H21 1_555 1_555
O25 H22 1_555 1_555
O24 H25 1_555 1_555
O26 H26 1_555 1_555
O27 H27 1_555 1_555
O61 H28 1_555 1_555
O59 H29 1_555 1_555
O60 H30 1_555 1_555
O58 H31 1_555 1_555
O57 H32 1_555 1_555
Cd1_2 N1_2 1_555 1_555
C1_2 H1_2 1_555 1_555
N1_2 C1_2 1_555 1_555
C2_2 N1_2 1_555 1_555
C3_2 C2_2 1_555 1_555
O1_2 Cd1_2 1_555 1_555
O2_2 C3_2 1_555 1_555
C4_2 H2_2 1_555 1_555
N2_2 Cd1_2 1_555 1_555
C5_2 N2_2 1_555 1_555
C6_2 C5_2 1_555 1_555
N3_2 C4_2 1_555 1_555
C7_2 C6_2 1_555 1_555
O4_2 C7_2 1_555 1_555
O5_2 Cd1_2 1_555 1_555
C8_2 C5_2 1_555 1_555
O6_2 C8_2 1_555 1_555
C9_2 H3_2 1_555 1_555
N4_2 C9_2 1_555 1_555
N5_2 Cd1_2 1_555 1_555
C10_2 N4_2 1_555 1_555
C11_2 N5_2 1_555 1_555
C12_2 C11_2 1_555 1_555
C13_2 C10_2 1_555 1_555
O7_2 Cd1_2 1_555 1_555
O8_2 C12_2 1_555 1_555
O9_2 C13_2 1_555 1_555
O10_2 C13_2 1_555 1_555
Na2_2 O4_2 1_555 1_555
O15_2 Na2_2 1_555 1_555
Cd3_2 N7_2 1_555 1_555
Cd4_2 N8_2 1_555 1_555
Cd7_2 N13_2 1_555 1_555
Cd8_2 N9_2 1_555 1_555
Cd10_2 N4_2 1_555 1_555
Cd11_2 N19_2 1_555 1_555
Cd15_2 N39_2 1_555 1_555
Cd16_2 N23_2 1_555 1_555
C17_2 H5_2 1_555 1_555
N7_2 C1_2 1_555 1_555
N8_2 C17_2 1_555 1_555
N9_2 C17_2 1_555 1_555
C19_2 C2_2 1_555 1_555
C20_2 N8_2 1_555 1_555
C21_2 N9_2 1_555 1_555
C24_2 C19_2 1_555 1_555
C25_2 C20_2 1_555 1_555
C26_2 C21_2 1_555 1_555
O16_2 Cd3_2 1_555 1_555
O17_2 Cd4_2 1_555 1_555
O18_2 Cd8_2 1_555 1_555
O23_2 C24_2 1_555 1_555
O24_2 C25_2 1_555 1_555
O25_2 C26_2 1_555 1_555
C29_2 H7_2 1_555 1_555
C30_2 H8_2 1_555 1_555
C33_2 H11_2 1_555 1_555
N14_2 Cd4_2 1_555 1_555
N15_2 Cd3_2 1_555 1_555
N18_2 Cd7_2 1_555 1_555
C34_2 N14_2 1_555 1_555
C35_2 N15_2 1_555 1_555
C38_2 N18_2 1_555 1_555
C39_2 C34_2 1_555 1_555
C40_2 C35_2 1_555 1_555
C43_2 C38_2 1_555 1_555
N19_2 C29_2 1_555 1_555
N20_2 C30_2 1_555 1_555
N23_2 C33_2 1_555 1_555
C44_2 C39_2 1_555 1_555
C45_2 C40_2 1_555 1_555
C48_2 C43_2 1_555 1_555
O28_2 Cd11_2 1_555 1_555
O32_2 Cd16_2 1_555 1_555
O34_2 Na7_2 1_555 1_555
O36_2 C45_2 1_555 1_555
O41_2 Cd4_2 1_555 1_555
O42_2 Cd3_2 1_555 1_555
C49_2 C34_2 1_555 1_555
C50_2 C35_2 1_555 1_555
O46_2 C49_2 1_555 1_555
O47_2 C50_2 1_555 1_555
C55_2 H13_2 1_555 1_555
C56_2 H14_2 1_555 1_555
C57_2 H15_2 1_555 1_555
N26_2 Cd14_2 1_555 1_555
N27_2 Cd11_2 1_555 1_555
N28_2 Cd16_2 1_555 1_555
N33_2 Cd3_2 1_555 1_555
N34_2 Cd7_2 1_555 1_555
N35_2 Cd4_2 1_555 1_555
C60_2 N26_2 1_555 1_555
C61_2 N27_2 1_555 1_555
C62_2 N28_2 1_555 1_555
C65_2 N33_2 1_555 1_555
C66_2 N34_2 1_555 1_555
C67_2 N35_2 1_555 1_555
C70_2 C65_2 1_555 1_555
C72_2 C67_2 1_555 1_555
C75_2 C60_2 1_555 1_555
C76_2 C61_2 1_555 1_555
C77_2 C62_2 1_555 1_555
O53_2 Cd3_2 1_555 1_555
O55_2 Cd4_2 1_555 1_555
O58_2 C70_2 1_555 1_555
O60_2 C72_2 1_555 1_555
O63_2 Cd14_2 1_555 1_555
O64_2 Cd11_2 1_555 1_555
O65_2 Cd16_2 1_555 1_555
O69_2 Na7_2 1_555 1_555
O71_2 C75_2 1_555 1_555
O73_2 C77_2 1_555 1_555
C79_2 H17_2 1_555 1_555
C80_2 H18_2 1_555 1_555
C82_2 C87_2 1_555 1_555
C83_2 C88_2 1_555 1_555
C84_2 C89_2 1_555 1_555
C85_2 C90_2 1_555 1_555
C87_2 C88_2 1_555 1_555
C88_2 N39_2 1_555 1_555
C89_2 C90_2 1_555 1_555
C90_2 N41_2 1_555 1_555
N38_2 Cd11_2 1_555 1_555
N39_2 C79_2 1_555 1_555
N40_2 Cd10_2 1_555 1_555
N41_2 Cd14_2 1_555 1_555
O76_2 Na2_2 1_555 1_555
O81 Cd15_2 1_555 1_555
O78_2 Cd10_2 1_555 1_555
O79_2 Cd14_2 1_555 1_555
O81_2 Na7_2 1_555 1_555
O83_2 Na2_2 1_555 1_555
O87 C83_2 1_555 1_555
O85_2 C84_2 1_555 1_555
O86_2 C85_2 1_555 1_555
O87_2 Na14_2 1_555 1_555
Na3_2 O4_2 1_555 1_555
Na4_2 O9_2 1_555 1_555
Na7_2 O36_2 1_555 1_555
Na14_2 O36_2 1_555 1_555
Na19_2 O79_2 1_555 1_555
O89_2 Na4_2 1_555 1_555
O91_2 Na2_2 1_555 1_555
O92_2 Na4_2 1_555 1_555
O95_2 Na7_2 1_555 1_555
O97_2 Na14_2 1_555 1_555
O99_2 Na16_2 1_555 1_555
C3_2 O1_2 1_555 1_555
C4_2 N2_2 1_555 1_555
C6_2 N3_2 1_555 1_555
C7_2 O3_2 1_555 1_555
O5_2 C8_2 1_555 1_555
O6_2 Na2_2 1_555 1_555
C9_2 N5_2 1_555 1_555
C10_2 C11_2 1_555 1_555
C12_2 O7_2 1_555 1_555
O9_2 Cd10_2 1_555 1_555
Cd11_2 O76_2 1_555 1_555
N7_2 C19_2 1_555 1_555
C20_2 C21_2 1_555 1_555
C24_2 O16_2 1_555 1_555
C25_2 O17_2 1_555 1_555
C26_2 O18_2 1_555 1_555
C29_2 N14_2 1_555 1_555
C30_2 N15_2 1_555 1_555
C33_2 N18_2 1_555 1_555
C39_2 N19_2 1_555 1_555
C40_2 N20_2 1_555 1_555
C43_2 N23_2 1_555 1_555
C44_2 O28_2 1_555 1_555
C44_2 O35_2 1_555 1_555
C45_2 O29_2 1_555 1_555
C48_2 O32_2 1_555 1_555
O28_2 Na3_2 1_555 1_555
O41_2 C49_2 1_555 1_555
O42_2 C50_2 1_555 1_555
O47_2 Na14_2 1_555 1_555
C55_2 N26_2 1_555 1_555
C55_2 N33_2 1_555 1_555
C56_2 N27_2 1_555 1_555
C56_2 N34_2 1_555 1_555
C57_2 N28_2 1_555 1_555
C57_2 N35_2 1_555 1_555
C60_2 C65_2 1_555 1_555
C61_2 C66_2 1_555 1_555
C62_2 C67_2 1_555 1_555
C70_2 O53_2 1_555 1_555
C72_2 O55_2 1_555 1_555
C75_2 O63_2 1_555 1_555
C76_2 O64_2 1_555 1_555
C77_2 O65_2 1_555 1_555
O63_2 Na9_2 1_555 1_555
O64_2 Na3_2 1_555 1_555
C79_2 N38_2 1_555 1_555
C80_2 N40_2 1_555 1_555
C80_2 N41_2 1_555 1_555
C82_2 O76_2 1_555 1_555
C82_2 O83_2 1_555 1_555
C83_2 O81 1_555 1_555
C84_2 O78_2 1_555 1_555
C85_2 O79_2 1_555 1_555
C87_2 N38_2 1_555 1_555
C89_2 N40_2 1_555 1_555
O76_2 Na3_2 1_555 1_555
O78_2 Na4_2 1_555 1_555
O78_2 Na16_2 1_555 1_555
O79_2 Na9_2 1_555 1_555
O81_2 Na14_2 1_555 1_555
O85_2 Na16_2 1_555 1_555
O86_2 Na19_2 1_555 1_555
Na3_2 O91_2 1_555 1_555
Na14_2 O95_2 1_555 1_555
Na16_2 O92_2 1_555 1_555
O8_2 H19_2 1_555 1_555
O2_2 H20_2 1_555 1_555
O23_2 H21_2 1_555 1_555
O25_2 H22_2 1_555 1_555
O24_2 H25_2 1_555 1_555
O60_2 H30_2 1_555 1_555
O58_2 H31_2 1_555 1_555
C14_2 H4_2 1_555 1_555
C15_2 C16_2 1_555 1_555
C16_2 N6_2 1_555 1_555
N6_2 Cd2_2 1_555 1_555
O11_2 Cd2_2 1_555 1_555
O12_2 C15_2 1_555 1_555
O13_2 Na1_2 1_555 1_555
O14_2 Na1_2 1_555 1_555
Cd5_2 N10_2 1_555 1_555
Cd6_2 N12_2 1_555 1_555
Cd9_2 N11_2 1_555 1_555
Cd13_2 N22_2 1_555 1_555
Cd17_2 N29_2 1_555 1_555
C18_2 H6_2 1_555 1_555
N10_2 C18_2 1_555 1_555
N11_2 C18_2 1_555 1_555
C22_2 N10_2 1_555 1_555
C23_2 N11_2 1_555 1_555
C27_2 C22_2 1_555 1_555
C28_2 C23_2 1_555 1_555
O19_2 Cd5_2 1_555 1_555
O20_2 Cd9_2 1_555 1_555
O21_2 Cd6_2 1_555 1_555
O26_2 C27_2 1_555 1_555
O27_2 C28_2 1_555 1_555
C31_2 H9_2 1_555 1_555
C32_2 H10_2 1_555 1_555
N16_2 Cd5_2 1_555 1_555
N17_2 Cd6_2 1_555 1_555
C36_2 N16_2 1_555 1_555
C37_2 N17_2 1_555 1_555
C41_2 C36_2 1_555 1_555
C42_2 C37_2 1_555 1_555
N22_2 C32_2 1_555 1_555
C46_2 C41_2 1_555 1_555
C47_2 C42_2 1_555 1_555
O31_2 Cd13_2 1_555 1_555
O37_2 C46_2 1_555 1_555
O38_2 C47_2 1_555 1_555
O43_2 Cd5_2 1_555 1_555
O44_2 Cd6_2 1_555 1_555
C51_2 C36_2 1_555 1_555
C52_2 C37_2 1_555 1_555
O48_2 C51_2 1_555 1_555
O49_2 C52_2 1_555 1_555
O50_2 C53_2 1_555 1_555
C54_2 H12_2 1_555 1_555
C58_2 H16_2 1_555 1_555
N25_2 Cd2_2 1_555 1_555
N29_2 C58_2 1_555 1_555
N30_2 Cd12_2 1_555 1_555
N31_2 Cd13_2 1_555 1_555
N32_2 Cd5_2 1_555 1_555
N36_2 Cd6_2 1_555 1_555
C59_2 N25_2 1_555 1_555
C63_2 N29_2 1_555 1_555
C64_2 N32_2 1_555 1_555
C68_2 N36_2 1_555 1_555
C69_2 C64_2 1_555 1_555
C73_2 C68_2 1_555 1_555
C74_2 C59_2 1_555 1_555
C78_2 C63_2 1_555 1_555
O52_2 Cd5_2 1_555 1_555
O56_2 Cd6_2 1_555 1_555
O57_2 C69_2 1_555 1_555
O59_2 C71_2 1_555 1_555
O61_2 C73_2 1_555 1_555
O62_2 Cd2_2 1_555 1_555
O66_2 Cd17_2 1_555 1_555
O67_2 Cd12_2 1_555 1_555
O68_2 Cd13_2 1_555 1_555
O70_2 C74_2 1_555 1_555
O74_2 C78_2 1_555 1_555
C81_2 C86_2 1_555 1_555
C86_2 C16_2 1_555 1_555
N37_2 C14_2 1_555 1_555
N42_2 Cd13_2 1_555 1_555
O75_2 Cd12_2 1_555 1_555
O80_2 Cd13_2 1_555 1_555
O82_2 C81_2 1_555 1_555
O88_2 Na15_2 1_555 1_555
Na6_2 O31_2 1_555 1_555
Na11_2 O39_2 1_555 1_555
Na13_2 O11_2 1_555 1_555
Na15_2 O37_2 1_555 1_555
Na20_2 O39_2 1_555 1_555
O90_2 Na5_2 1_555 1_555
O93_2 Na5_2 1_555 1_555
O94_2 Na6_2 1_555 1_555
O96_2 Na13_2 1_555 1_555
O98_2 Na15_2 1_555 1_555
O100_2 Na17_2 1_555 1_555
C14_2 N6_2 1_555 1_555
C15_2 O11_2 1_555 1_555
O11_2 Na1_2 1_555 1_555
O12_2 Na13_2 1_555 1_555
Na1_2 O62_2 1_555 1_555
O14_2 Na13_2 1_555 1_555
Cd12_2 N37_2 1_555 1_555
C22_2 C23_2 1_555 1_555
C27_2 O19_2 1_555 1_555
C28_2 O20_2 1_555 1_555
C31_2 N16_2 1_555 1_555
C31_2 N21_2 1_555 1_555
C32_2 N17_2 1_555 1_555
C41_2 N21_2 1_555 1_555
C42_2 N22_2 1_555 1_555
C46_2 O30_2 1_555 1_555
C47_2 O31_2 1_555 1_555
O37_2 Na6_2 1_555 1_555
O43_2 C51_2 1_555 1_555
O44_2 C52_2 1_555 1_555
O45_2 C53_2 1_555 1_555
O48_2 Na15_2 1_555 1_555
O50_2 Na20_2 1_555 1_555
C54_2 N25_2 1_555 1_555
C54_2 N32_2 1_555 1_555
C58_2 N36_2 1_555 1_555
C59_2 C64_2 1_555 1_555
C63_2 C68_2 1_555 1_555
C69_2 O52_2 1_555 1_555
C71_2 O54_2 1_555 1_555
C73_2 O56_2 1_555 1_555
C74_2 O62_2 1_555 1_555
C78_2 O66_2 1_555 1_555
O67_2 Na5_2 1_555 1_555
O68_2 Na6_2 1_555 1_555
C81_2 O75_2 1_555 1_555
C86_2 N37_2 1_555 1_555
O75_2 Na5_2 1_555 1_555
O75_2 Na17_2 1_555 1_555
O80_2 Na6_2 1_555 1_555
O80_2 Na15_2 1_555 1_555
O82_2 Na17_2 1_555 1_555
Na15_2 O94_2 1_555 1_555
Na17_2 O93_2 1_555 1_555
O26_2 H26_2 1_555 1_555
O27_2 H27_2 1_555 1_555
O61_2 H28_2 1_555 1_555
O59_2 H29_2 1_555 1_555
O57_2 H32_2 1_555 1_555
C14_3 H4_3 1_555 1_555
C15_3 C16_3 1_555 1_555
C16_3 N6_3 1_555 1_555
N6_3 Cd2_3 1_555 1_555
O11_3 Cd2_3 1_555 1_555
O12_3 C15_3 1_555 1_555
O13_3 Na1_3 1_555 1_555
O14_3 Na1_3 1_555 1_555
Cd5_3 N10_3 1_555 1_555
Cd6_3 N12_3 1_555 1_555
Cd9_3 N11_3 1_555 1_555
Cd13_3 N22_3 1_555 1_555
Cd17_3 N29_3 1_555 1_555
C18_3 H6_3 1_555 1_555
N10_3 C18_3 1_555 1_555
N11_3 C18_3 1_555 1_555
C22_3 N10_3 1_555 1_555
C23_3 N11_3 1_555 1_555
C27_3 C22_3 1_555 1_555
C28_3 C23_3 1_555 1_555
O19_3 Cd5_3 1_555 1_555
O20_3 Cd9_3 1_555 1_555
O21_3 Cd6_3 1_555 1_555
O26_3 C27_3 1_555 1_555
O27_3 C28_3 1_555 1_555
C31_3 H9_3 1_555 1_555
C32_3 H10_3 1_555 1_555
N16_3 Cd5_3 1_555 1_555
N17_3 Cd6_3 1_555 1_555
C36_3 N16_3 1_555 1_555
C37_3 N17_3 1_555 1_555
C41_3 C36_3 1_555 1_555
C42_3 C37_3 1_555 1_555
N22_3 C32_3 1_555 1_555
C46_3 C41_3 1_555 1_555
C47_3 C42_3 1_555 1_555
O31_3 Cd13_3 1_555 1_555
O37_3 C46_3 1_555 1_555
O38_3 C47_3 1_555 1_555
O43_3 Cd5_3 1_555 1_555
O44_3 Cd6_3 1_555 1_555
C51_3 C36_3 1_555 1_555
C52_3 C37_3 1_555 1_555
O48_3 C51_3 1_555 1_555
O49_3 C52_3 1_555 1_555
O50_3 C53_3 1_555 1_555
C54_3 H12_3 1_555 1_555
C58_3 H16_3 1_555 1_555
N25_3 Cd2_3 1_555 1_555
N29_3 C58_3 1_555 1_555
N30_3 Cd12_3 1_555 1_555
N31_3 Cd13_3 1_555 1_555
N32_3 Cd5_3 1_555 1_555
N36_3 Cd6_3 1_555 1_555
C59_3 N25_3 1_555 1_555
C63_3 N29_3 1_555 1_555
C64_3 N32_3 1_555 1_555
C68_3 N36_3 1_555 1_555
C69_3 C64_3 1_555 1_555
C73_3 C68_3 1_555 1_555
C74_3 C59_3 1_555 1_555
C78_3 C63_3 1_555 1_555
O52_3 Cd5_3 1_555 1_555
O56_3 Cd6_3 1_555 1_555
O57_3 C69_3 1_555 1_555
O59_3 C71_3 1_555 1_555
O61_3 C73_3 1_555 1_555
O62_3 Cd2_3 1_555 1_555
O66_3 Cd17_3 1_555 1_555
O67_3 Cd12_3 1_555 1_555
O68_3 Cd13_3 1_555 1_555
O70_3 C74_3 1_555 1_555
O74_3 C78_3 1_555 1_555
C81_3 C86_3 1_555 1_555
C86_3 C16_3 1_555 1_555
N37_3 C14_3 1_555 1_555
N42_3 Cd13_3 1_555 1_555
O75_3 Cd12_3 1_555 1_555
O80_3 Cd13_3 1_555 1_555
O82_3 C81_3 1_555 1_555
O88_3 Na15_3 1_555 1_555
Na6_3 O31_3 1_555 1_555
Na11_3 O39_3 1_555 1_555
Na13_3 O11_3 1_555 1_555
Na15_3 O37_3 1_555 1_555
Na20_3 O39_3 1_555 1_555
O90_3 Na5_3 1_555 1_555
O93_3 Na5_3 1_555 1_555
O94_3 Na6_3 1_555 1_555
O96_3 Na13_3 1_555 1_555
O98_3 Na15_3 1_555 1_555
O100_3 Na17_3 1_555 1_555
C14_3 N6_3 1_555 1_555
C15_3 O11_3 1_555 1_555
O11_3 Na1_3 1_555 1_555
O12_3 Na13_3 1_555 1_555
Na1_3 O62_3 1_555 1_555
O14_3 Na13_3 1_555 1_555
Cd12_3 N37_3 1_555 1_555
C22_3 C23_3 1_555 1_555
C27_3 O19_3 1_555 1_555
C28_3 O20_3 1_555 1_555
C31_3 N16_3 1_555 1_555
C31_3 N21_3 1_555 1_555
C32_3 N17_3 1_555 1_555
C41_3 N21_3 1_555 1_555
C42_3 N22_3 1_555 1_555
C46_3 O30_3 1_555 1_555
C47_3 O31_3 1_555 1_555
O37_3 Na6_3 1_555 1_555
O43_3 C51_3 1_555 1_555
O44_3 C52_3 1_555 1_555
O45_3 C53_3 1_555 1_555
O48_3 Na15_3 1_555 1_555
O50_3 Na20_3 1_555 1_555
C54_3 N25_3 1_555 1_555
C54_3 N32_3 1_555 1_555
C58_3 N36_3 1_555 1_555
C59_3 C64_3 1_555 1_555
C63_3 C68_3 1_555 1_555
C69_3 O52_3 1_555 1_555
C71_3 O54_3 1_555 1_555
C73_3 O56_3 1_555 1_555
C74_3 O62_3 1_555 1_555
C78_3 O66_3 1_555 1_555
O67_3 Na5_3 1_555 1_555
O68_3 Na6_3 1_555 1_555
C81_3 O75_3 1_555 1_555
C86_3 N37_3 1_555 1_555
O75_3 Na5_3 1_555 1_555
O75_3 Na17_3 1_555 1_555
O80_3 Na6_3 1_555 1_555
O80_3 Na15_3 1_555 1_555
O82_3 Na17_3 1_555 1_555
Na15_3 O94_3 1_555 1_555
Na17_3 O93_3 1_555 1_555
O26_3 H26_3 1_555 1_555
O27_3 H27_3 1_555 1_555
O61_3 H28_3 1_555 1_555
O59_3 H29_3 1_555 1_555
O57_3 H32_3 1_555 1_555
Cd1_3 N1_3 1_555 1_555
C1_3 H1_3 1_555 1_555
N1_3 C1_3 1_555 1_555
C2_3 N1_3 1_555 1_555
C3_3 C2_3 1_555 1_555
O1_3 Cd1_3 1_555 1_555
O2_3 C3_3 1_555 1_555
C4_3 H2_3 1_555 1_555
N2_3 Cd1_3 1_555 1_555
C5_3 N2_3 1_555 1_555
C6_3 C5_3 1_555 1_555
N3_3 C4_3 1_555 1_555
C7_3 C6_3 1_555 1_555
O4_3 C7_3 1_555 1_555
O5_3 Cd1_3 1_555 1_555
C8_3 C5_3 1_555 1_555
O6_3 C8_3 1_555 1_555
C9_3 H3_3 1_555 1_555
N4_3 C9_3 1_555 1_555
N5_3 Cd1_3 1_555 1_555
C10_3 N4_3 1_555 1_555
C11_3 N5_3 1_555 1_555
C12_3 C11_3 1_555 1_555
C13_3 C10_3 1_555 1_555
O7_3 Cd1_3 1_555 1_555
O8_3 C12_3 1_555 1_555
O9_3 C13_3 1_555 1_555
O10_3 C13_3 1_555 1_555
Na2_3 O4_3 1_555 1_555
O15_3 Na2_3 1_555 1_555
Cd3_3 N7_3 1_555 1_555
Cd4_3 N8_3 1_555 1_555
Cd7_3 N13_3 1_555 1_555
Cd8_3 N9_3 1_555 1_555
Cd10_3 N4_3 1_555 1_555
Cd11_3 N19_3 1_555 1_555
Cd15_3 N39_3 1_555 1_555
Cd16_3 N23_3 1_555 1_555
C17_3 H5_3 1_555 1_555
N7_3 C1_3 1_555 1_555
N8_3 C17_3 1_555 1_555
N9_3 C17_3 1_555 1_555
C19_3 C2_3 1_555 1_555
C20_3 N8_3 1_555 1_555
C21_3 N9_3 1_555 1_555
C24_3 C19_3 1_555 1_555
C25_3 C20_3 1_555 1_555
C26_3 C21_3 1_555 1_555
O16_3 Cd3_3 1_555 1_555
O17_3 Cd4_3 1_555 1_555
O18_3 Cd8_3 1_555 1_555
O23_3 C24_3 1_555 1_555
O24_3 C25_3 1_555 1_555
O25_3 C26_3 1_555 1_555
C29_3 H7_3 1_555 1_555
C30_3 H8_3 1_555 1_555
C33_3 H11_3 1_555 1_555
N14_3 Cd4_3 1_555 1_555
N15_3 Cd3_3 1_555 1_555
N18_3 Cd7_3 1_555 1_555
C34_3 N14_3 1_555 1_555
C35_3 N15_3 1_555 1_555
C38_3 N18_3 1_555 1_555
C39_3 C34_3 1_555 1_555
C40_3 C35_3 1_555 1_555
C43_3 C38_3 1_555 1_555
N19_3 C29_3 1_555 1_555
N20_3 C30_3 1_555 1_555
N23_3 C33_3 1_555 1_555
C44_3 C39_3 1_555 1_555
C45_3 C40_3 1_555 1_555
C48_3 C43_3 1_555 1_555
O28_3 Cd11_3 1_555 1_555
O32_3 Cd16_3 1_555 1_555
O34_3 Na8 1_555 1_555
O36_3 C45_3 1_555 1_555
O41_3 Cd4_3 1_555 1_555
O42_3 Cd3_3 1_555 1_555
C49_3 C34_3 1_555 1_555
C50_3 C35_3 1_555 1_555
O46_3 C49_3 1_555 1_555
O47_3 C50_3 1_555 1_555
C55_3 H13_3 1_555 1_555
C56_3 H14_3 1_555 1_555
C57_3 H15_3 1_555 1_555
N26_3 Cd14_3 1_555 1_555
N27_3 Cd11_3 1_555 1_555
N28_3 Cd16_3 1_555 1_555
N33_3 Cd3_3 1_555 1_555
N34_3 Cd7_3 1_555 1_555
N35_3 Cd4_3 1_555 1_555
C60_3 N26_3 1_555 1_555
C61_3 N27_3 1_555 1_555
C62_3 N28_3 1_555 1_555
C65_3 N33_3 1_555 1_555
C66_3 N34_3 1_555 1_555
C67_3 N35_3 1_555 1_555
C70_3 C65_3 1_555 1_555
C72_3 C67_3 1_555 1_555
C75_3 C60_3 1_555 1_555
C76_3 C61_3 1_555 1_555
C77_3 C62_3 1_555 1_555
O53_3 Cd3_3 1_555 1_555
O55_3 Cd4_3 1_555 1_555
O58_3 C70_3 1_555 1_555
O60_3 C72_3 1_555 1_555
O63_3 Cd14_3 1_555 1_555
O64_3 Cd11_3 1_555 1_555
O65_3 Cd16_3 1_555 1_555
O69_3 Na8 1_555 1_555
O71_3 C75_3 1_555 1_555
O73_3 C77_3 1_555 1_555
C79_3 H17_3 1_555 1_555
C80_3 H18_3 1_555 1_555
C82_3 C87_3 1_555 1_555
C83_3 C88_3 1_555 1_555
C84_3 C89_3 1_555 1_555
C85_3 C90_3 1_555 1_555
C87_3 C88_3 1_555 1_555
C88_3 N39_3 1_555 1_555
C89_3 C90_3 1_555 1_555
C90_3 N41_3 1_555 1_555
N38_3 Cd11_3 1_555 1_555
N39_3 C79_3 1_555 1_555
N40_3 Cd10_3 1_555 1_555
N41_3 Cd14_3 1_555 1_555
O76_3 Na2_3 1_555 1_555
O81_2 Cd15_3 1_555 1_555
O78_3 Cd10_3 1_555 1_555
O79_3 Cd14_3 1_555 1_555
O83_3 Na2_3 1_555 1_555
O87_2 C83_3 1_555 1_555
O85_3 C84_3 1_555 1_555
O86_3 C85_3 1_555 1_555
Na3_3 O4_3 1_555 1_555
Na4_3 O9_3 1_555 1_555
Na8 O36_3 1_555 1_555
Na18 O36_3 1_555 1_555
Na19_3 O79_3 1_555 1_555
O89_3 Na4_3 1_555 1_555
O91_3 Na2_3 1_555 1_555
O92_3 Na4_3 1_555 1_555
O95_3 Na8 1_555 1_555
O97_3 Na18 1_555 1_555
O99_3 Na16_3 1_555 1_555
C3_3 O1_3 1_555 1_555
C4_3 N2_3 1_555 1_555
C6_3 N3_3 1_555 1_555
C7_3 O3_3 1_555 1_555
O5_3 C8_3 1_555 1_555
O6_3 Na2_3 1_555 1_555
C9_3 N5_3 1_555 1_555
C10_3 C11_3 1_555 1_555
C12_3 O7_3 1_555 1_555
O9_3 Cd10_3 1_555 1_555
Cd11_3 O76_3 1_555 1_555
N7_3 C19_3 1_555 1_555
C20_3 C21_3 1_555 1_555
C24_3 O16_3 1_555 1_555
C25_3 O17_3 1_555 1_555
C26_3 O18_3 1_555 1_555
C29_3 N14_3 1_555 1_555
C30_3 N15_3 1_555 1_555
C33_3 N18_3 1_555 1_555
C39_3 N19_3 1_555 1_555
C40_3 N20_3 1_555 1_555
C43_3 N23_3 1_555 1_555
C44_3 O28_3 1_555 1_555
C44_3 O35_3 1_555 1_555
C45_3 O29_3 1_555 1_555
C48_3 O32_3 1_555 1_555
O28_3 Na3_3 1_555 1_555
O41_3 C49_3 1_555 1_555
O42_3 C50_3 1_555 1_555
O47_3 Na18 1_555 1_555
C55_3 N26_3 1_555 1_555
C55_3 N33_3 1_555 1_555
C56_3 N27_3 1_555 1_555
C56_3 N34_3 1_555 1_555
C57_3 N28_3 1_555 1_555
C57_3 N35_3 1_555 1_555
C60_3 C65_3 1_555 1_555
C61_3 C66_3 1_555 1_555
C62_3 C67_3 1_555 1_555
C70_3 O53_3 1_555 1_555
C72_3 O55_3 1_555 1_555
C75_3 O63_3 1_555 1_555
C76_3 O64_3 1_555 1_555
C77_3 O65_3 1_555 1_555
O63_3 Na9_3 1_555 1_555
O64_3 Na3_3 1_555 1_555
C79_3 N38_3 1_555 1_555
C80_3 N40_3 1_555 1_555
C80_3 N41_3 1_555 1_555
C82_3 O76_3 1_555 1_555
C82_3 O83_3 1_555 1_555
C83_3 O81_2 1_555 1_555
C84_3 O78_3 1_555 1_555
C85_3 O79_3 1_555 1_555
C87_3 N38_3 1_555 1_555
C89_3 N40_3 1_555 1_555
O76_3 Na3_3 1_555 1_555
O78_3 Na4_3 1_555 1_555
O78_3 Na16_3 1_555 1_555
O79_3 Na9_3 1_555 1_555
O85_3 Na16_3 1_555 1_555
O86_3 Na19_3 1_555 1_555
Na3_3 O91_3 1_555 1_555
Na18 O95_3 1_555 1_555
Na16_3 O92_3 1_555 1_555
O8_3 H19_3 1_555 1_555
O2_3 H20_3 1_555 1_555
O23_3 H21_3 1_555 1_555
O25_3 H22_3 1_555 1_555
O24_3 H25_3 1_555 1_555
O60_3 H30_3 1_555 1_555
O58_3 H31_3 1_555 1_555
Cd7_4 N13_4 1_555 1_555
Cd8_4 N9_4 1_555 1_555
Cd15_4 N39_4 1_555 1_555
Cd17 N23_4 1_555 1_555
C17_4 H5_4 1_555 1_555
N12 C17_4 1_555 1_555
N9_4 C17_4 1_555 1_555
C20_4 N12 1_555 1_555
C21_4 N9_4 1_555 1_555
C25_4 C20_4 1_555 1_555
C26_4 C21_4 1_555 1_555
O18_4 Cd8_4 1_555 1_555
O22_4 Cd7_4 1_555 1_555
O24_4 C25_4 1_555 1_555
O25_4 C26_4 1_555 1_555
C30_4 H8_4 1_555 1_555
C33_4 H11_4 1_555 1_555
N15_4 Cd9 1_555 1_555
N18_4 Cd7_4 1_555 1_555
C35_4 N15_4 1_555 1_555
C38_4 N18_4 1_555 1_555
C40_4 C35_4 1_555 1_555
C43_4 C38_4 1_555 1_555
N24 C30_4 1_555 1_555
N23_4 C33_4 1_555 1_555
C45_4 C40_4 1_555 1_555
C48_4 C43_4 1_555 1_555
O32_4 Cd17 1_555 1_555
O34_4 Na7_3 1_555 1_555
O36_4 C45_4 1_555 1_555
O39_4 C48_4 1_555 1_555
O40_4 Na9 1_555 1_555
O42_4 Cd9 1_555 1_555
O45_4 Cd7_4 1_555 1_555
C50_4 C35_4 1_555 1_555
C53_4 C38_4 1_555 1_555
O47_4 C50_4 1_555 1_555
O50_4 C53_4 1_555 1_555
O51_4 Na19 1_555 1_555
C55_4 H13_4 1_555 1_555
C56_4 H14_4 1_555 1_555
N33_4 Cd9 1_555 1_555
N34_4 Cd7_4 1_555 1_555
C60_4 N30 1_555 1_555
C61_4 N31 1_555 1_555
C65_4 N33_4 1_555 1_555
C66_4 N34_4 1_555 1_555
C70_4 C65_4 1_555 1_555
C71_4 C66_4 1_555 1_555
C75_4 C60_4 1_555 1_555
C76_4 C61_4 1_555 1_555
O53_4 Cd9 1_555 1_555
O54_4 Cd7_4 1_555 1_555
O58_4 C70_4 1_555 1_555
O59_4 C71_4 1_555 1_555
O69_4 Na7_3 1_555 1_555
O71_4 C75_4 1_555 1_555
O72_4 C76_4 1_555 1_555
C79_4 H17_4 1_555 1_555
C82_4 C87_4 1_555 1_555
C83_4 C88_4 1_555 1_555
C87_4 C88_4 1_555 1_555
C88_4 N39_4 1_555 1_555
N39_4 C79_4 1_555 1_555
O77_2 Cd15_4 1_555 1_555
O81_3 Na7_3 1_555 1_555
O84_2 C83_4 1_555 1_555
O87_3 Na14_3 1_555 1_555
Na7_3 O36_4 1_555 1_555
Na8_2 O77_2 1_555 1_555
Na10 O39_4 1_555 1_555
Na14_3 O36_4 1_555 1_555
Na19 O40_4 1_555 1_555
Na18_2 O77_2 1_555 1_555
Na20_4 O39_4 1_555 1_555
O90_4 Na9 1_555 1_555
O93_4 Na9 1_555 1_555
O95_4 Na7_3 1_555 1_555
O97_4 Na14_3 1_555 1_555
O100_4 Na19 1_555 1_555
C20_4 C21_4 1_555 1_555
C25_4 O21 1_555 1_555
C26_4 O18_4 1_555 1_555
C30_4 N15_4 1_555 1_555
C33_4 N18_4 1_555 1_555
C40_4 N24 1_555 1_555
C43_4 N23_4 1_555 1_555
C45_4 O33 1_555 1_555
C48_4 O32_4 1_555 1_555
O42_4 C50_4 1_555 1_555
O45_4 C53_4 1_555 1_555
O47_4 Na14_3 1_555 1_555
O50_4 Na20_4 1_555 1_555
C55_4 N30 1_555 1_555
C55_4 N33_4 1_555 1_555
C56_4 N31 1_555 1_555
C56_4 N34_4 1_555 1_555
C60_4 C65_4 1_555 1_555
C61_4 C66_4 1_555 1_555
C70_4 O53_4 1_555 1_555
C71_4 O54_4 1_555 1_555
C75_4 O67 1_555 1_555
C76_4 O68 1_555 1_555
C79_4 N42 1_555 1_555
C82_4 O80 1_555 1_555
C82_4 O88 1_555 1_555
C83_4 O77_2 1_555 1_555
C87_4 N42 1_555 1_555
O81_3 Na14_3 1_555 1_555
O84_2 Na18_2 1_555 1_555
Na7_3 O90_4 1_555 1_555
Na14_3 O95_4 1_555 1_555
Na19 O93_4 1_555 1_555
O25_4 H22_4 1_555 1_555
O24_4 H25_4 1_555 1_555
O59_4 H29_4 1_555 1_555
O58_4 H31_4 1_555 1_555
Cd7_5 N13_5 1_555 1_555
Cd8_5 N9_5 1_555 1_555
Cd15_5 N39_5 1_555 1_555
Cd17_3 N23_5 1_555 1_555
C17_5 H5_5 1_555 1_555
N12_3 C17_5 1_555 1_555
N9_5 C17_5 1_555 1_555
C20_5 N12_3 1_555 1_555
C21_5 N9_5 1_555 1_555
C25_5 C20_5 1_555 1_555
C26_5 C21_5 1_555 1_555
O18_5 Cd8_5 1_555 1_555
O24_5 C25_5 1_555 1_555
O25_5 C26_5 1_555 1_555
C30_5 H8_5 1_555 1_555
C33_5 H11_5 1_555 1_555
N15_5 Cd9_3 1_555 1_555
N18_5 Cd7_5 1_555 1_555
C35_5 N15_5 1_555 1_555
C38_5 N18_5 1_555 1_555
C40_5 C35_5 1_555 1_555
C43_5 C38_5 1_555 1_555
N24_3 C30_5 1_555 1_555
N23_5 C33_5 1_555 1_555
C45_5 C40_5 1_555 1_555
C48_5 C43_5 1_555 1_555
O32_5 Cd17_3 1_555 1_555
O34_5 Na7_4 1_555 1_555
O36_5 C45_5 1_555 1_555
O42_5 Cd9_3 1_555 1_555
C50_5 C35_5 1_555 1_555
O47_5 C50_5 1_555 1_555
C55_5 H13_5 1_555 1_555
C56_5 H14_5 1_555 1_555
N33_5 Cd9_3 1_555 1_555
N34_5 Cd7_5 1_555 1_555
C60_5 N30_3 1_555 1_555
C61_5 N31_3 1_555 1_555
C65_5 N33_5 1_555 1_555
C66_5 N34_5 1_555 1_555
C70_5 C65_5 1_555 1_555
C75_5 C60_5 1_555 1_555
C76_5 C61_5 1_555 1_555
O53_5 Cd9_3 1_555 1_555
O58_5 C70_5 1_555 1_555
O69_5 Na7_4 1_555 1_555
O71_5 C75_5 1_555 1_555
C79_5 H17_5 1_555 1_555
C82_5 C87_5 1_555 1_555
C83_5 C88_5 1_555 1_555
C87_5 C88_5 1_555 1_555
C88_5 N39_5 1_555 1_555
N39_5 C79_5 1_555 1_555
O81_3 Cd15_5 1_555 1_555
O81_4 Na7_4 1_555 1_555
O87_3 C83_5 1_555 1_555
O87_4 Na14_4 1_555 1_555
Na7_4 O36_5 1_555 1_555
Na14_4 O36_5 1_555 1_555
O95_5 Na7_4 1_555 1_555
O97_5 Na14_4 1_555 1_555
C20_5 C21_5 1_555 1_555
C25_5 O21_3 1_555 1_555
C26_5 O18_5 1_555 1_555
C30_5 N15_5 1_555 1_555
C33_5 N18_5 1_555 1_555
C40_5 N24_3 1_555 1_555
C43_5 N23_5 1_555 1_555
C45_5 O33_3 1_555 1_555
C48_5 O32_5 1_555 1_555
O42_5 C50_5 1_555 1_555
O47_5 Na14_4 1_555 1_555
C55_5 N30_3 1_555 1_555
C55_5 N33_5 1_555 1_555
C56_5 N31_3 1_555 1_555
C56_5 N34_5 1_555 1_555
C60_5 C65_5 1_555 1_555
C61_5 C66_5 1_555 1_555
C70_5 O53_5 1_555 1_555
C75_5 O67_3 1_555 1_555
C76_5 O68_3 1_555 1_555
C79_5 N42_3 1_555 1_555
C82_5 O80_3 1_555 1_555
C82_5 O88_3 1_555 1_555
C83_5 O81_3 1_555 1_555
C87_5 N42_3 1_555 1_555
O81_4 Na14_4 1_555 1_555
Na14_4 O95_5 1_555 1_555
O25_5 H22_5 1_555 1_555
O24_5 H25_5 1_555 1_555
O58_5 H31_5 1_555 1_555
O50_5 C53_5 1_555 1_555
O59_5 C71_5 1_555 1_555
Na10_3 O39_5 1_555 1_555
Na20_5 O39_5 1_555 1_555
O90_5 Na9_3 1_555 1_555
O93_5 Na9_3 1_555 1_555
O100_5 Na19_3 1_555 1_555
O45_5 C53_5 1_555 1_555
O50_5 Na20_5 1_555 1_555
C71_5 O54_5 1_555 1_555
Na19_3 O93_5 1_555 1_555
O59_5 H29_5 1_555 1_555
O50_6 C53_6 1_555 1_555
O59_6 C71_6 1_555 1_555
Na10_2 O39_6 1_555 1_555
Na20_6 O39_6 1_555 1_555
O90_6 Na9_2 1_555 1_555
O93_6 Na9_2 1_555 1_555
O100_6 Na19_2 1_555 1_555
O45_6 C53_6 1_555 1_555
O50_6 Na20_6 1_555 1_555
C71_6 O54_6 1_555 1_555
Na19_2 O93_6 1_555 1_555
O59_6 H29_6 1_555 1_555
Cd7_6 N13_6 1_555 1_555
Cd8_6 N9_6 1_555 1_555
Cd15_6 N39_6 1_555 1_555
Cd17_2 N23_6 1_555 1_555
C17_6 H5_6 1_555 1_555
N12_2 C17_6 1_555 1_555
N9_6 C17_6 1_555 1_555
C20_6 N12_2 1_555 1_555
C21_6 N9_6 1_555 1_555
C25_6 C20_6 1_555 1_555
C26_6 C21_6 1_555 1_555
O18_6 Cd8_6 1_555 1_555
O24_6 C25_6 1_555 1_555
O25_6 C26_6 1_555 1_555
C30_6 H8_6 1_555 1_555
C33_6 H11_6 1_555 1_555
N15_6 Cd9_2 1_555 1_555
N18_6 Cd7_6 1_555 1_555
C35_6 N15_6 1_555 1_555
C38_6 N18_6 1_555 1_555
C40_6 C35_6 1_555 1_555
C43_6 C38_6 1_555 1_555
N24_2 C30_6 1_555 1_555
N23_6 C33_6 1_555 1_555
C45_6 C40_6 1_555 1_555
C48_6 C43_6 1_555 1_555
O32_6 Cd17_2 1_555 1_555
O34_6 Na8_2 1_555 1_555
O36_6 C45_6 1_555 1_555
O42_6 Cd9_2 1_555 1_555
C50_6 C35_6 1_555 1_555
O47_6 C50_6 1_555 1_555
C55_6 H13_6 1_555 1_555
C56_6 H14_6 1_555 1_555
N33_6 Cd9_2 1_555 1_555
N34_6 Cd7_6 1_555 1_555
C60_6 N30_2 1_555 1_555
C61_6 N31_2 1_555 1_555
C65_6 N33_6 1_555 1_555
C66_6 N34_6 1_555 1_555
C70_6 C65_6 1_555 1_555
C75_6 C60_6 1_555 1_555
C76_6 C61_6 1_555 1_555
O53_6 Cd9_2 1_555 1_555
O58_6 C70_6 1_555 1_555
O69_6 Na8_2 1_555 1_555
O71_6 C75_6 1_555 1_555
C79_6 H17_6 1_555 1_555
C82_6 C87_6 1_555 1_555
C83_6 C88_6 1_555 1_555
C87_6 C88_6 1_555 1_555
C88_6 N39_6 1_555 1_555
N39_6 C79_6 1_555 1_555
O81_4 Cd15_6 1_555 1_555
O87_4 C83_6 1_555 1_555
Na8_2 O36_6 1_555 1_555
Na18_2 O36_6 1_555 1_555
O95_6 Na8_2 1_555 1_555
O97_6 Na18_2 1_555 1_555
C20_6 C21_6 1_555 1_555
C25_6 O21_2 1_555 1_555
C26_6 O18_6 1_555 1_555
C30_6 N15_6 1_555 1_555
C33_6 N18_6 1_555 1_555
C40_6 N24_2 1_555 1_555
C43_6 N23_6 1_555 1_555
C45_6 O33_2 1_555 1_555
C48_6 O32_6 1_555 1_555
O42_6 C50_6 1_555 1_555
O47_6 Na18_2 1_555 1_555
C55_6 N30_2 1_555 1_555
C55_6 N33_6 1_555 1_555
C56_6 N31_2 1_555 1_555
C56_6 N34_6 1_555 1_555
C60_6 C65_6 1_555 1_555
C61_6 C66_6 1_555 1_555
C70_6 O53_6 1_555 1_555
C75_6 O67_2 1_555 1_555
C76_6 O68_2 1_555 1_555
C79_6 N42_2 1_555 1_555
C82_6 O80_2 1_555 1_555
C82_6 O88_2 1_555 1_555
C83_6 O81_4 1_555 1_555
C87_6 N42_2 1_555 1_555
Na18_2 O95_6 1_555 1_555
O25_6 H22_6 1_555 1_555
O24_6 H25_6 1_555 1_555
O58_6 H31_6 1_555 1_555
N42_4 Cd16_2 1_555 1_555
O88_4 Na20_6 1_555 1_555
O94_4 Na10_2 1_555 1_555
O98_4 Na20_6 1_555 1_555
O80_4 Na10_2 1_555 1_555
O80_4 Na20_6 1_555 1_555
Na20_6 O94_4 1_555 1_555
O85_4 C84_4 1_555 1_555
O86_4 C85_4 1_555 1_555
Na19_4 O79_4 1_555 1_555
O92_4 Na11_2 1_555 1_555
O99_4 Na20_2 1_555 1_555
C84_4 O78_4 1_555 1_555
C85_4 O79_4 1_555 1_555
O78_4 Na11_2 1_555 1_555
O78_4 Na20_2 1_555 1_555
O79_4 Na9_4 1_555 1_555
O85_4 Na20_2 1_555 1_555
O86_4 Na19_4 1_555 1_555
Na20_2 O92_4 1_555 1_555
Cd9_4 N11_4 1_555 1_555
Cd15_6 N20_4 1_555 1_555
Cd14_4 N24_4 1_555 1_555
C18_4 H6_4 1_555 1_555
N13_6 C18_4 1_555 1_555
N11_4 C18_4 1_555 1_555
C22_4 N13_6 1_555 1_555
C23_4 N11_4 1_555 1_555
C27_4 C22_4 1_555 1_555
C28_4 C23_4 1_555 1_555
O26_4 C27_4 1_555 1_555
O27_4 C28_4 1_555 1_555
C30_7 H8_7 1_555 1_555
N15_7 Cd8_6 1_555 1_555
C35_7 N15_7 1_555 1_555
C40_7 C35_7 1_555 1_555
N20_4 C30_7 1_555 1_555
C45_7 C40_7 1_555 1_555
O34_5 Cd15_6 1_555 1_555
O33_4 Cd14_4 1_555 1_555
O40_5 C45_7 1_555 1_555
O42_7 Cd8_6 1_555 1_555
C50_7 C35_7 1_555 1_555
O51_5 C50_7 1_555 1_555
C55_7 H13_7 1_555 1_555
N26_4 Cd14_4 1_555 1_555
N30_4 Cd15_6 1_555 1_555
N33_7 Cd8_6 1_555 1_555
C60_7 N26_4 1_555 1_555
C65_7 N33_7 1_555 1_555
C70_7 C65_7 1_555 1_555
C75_7 C60_7 1_555 1_555
O53_7 Cd8_6 1_555 1_555
O58_7 C70_7 1_555 1_555
O63_4 Cd14_4 1_555 1_555
O69_5 Cd15_6 1_555 1_555
O71_7 C75_7 1_555 1_555
C80_4 H18_4 1_555 1_555
C89_4 C90_4 1_555 1_555
C90_4 N41_4 1_555 1_555
N40_4 Cd17_2 1_555 1_555
N41_4 Cd14_4 1_555 1_555
C22_4 C23_4 1_555 1_555
C30_7 N15_7 1_555 1_555
C40_7 N20_4 1_555 1_555
C45_7 O34_5 1_555 1_555
O42_7 C50_7 1_555 1_555
C55_7 N26_4 1_555 1_555
C55_7 N33_7 1_555 1_555
C60_7 C65_7 1_555 1_555
C70_7 O53_7 1_555 1_555
C75_7 O63_4 1_555 1_555
C80_4 N40_4 1_555 1_555
C80_4 N41_4 1_555 1_555
C89_4 N40_4 1_555 1_555
O26_4 H26_4 1_555 1_555
O27_4 H27_4 1_555 1_555
O58_7 H31_7 1_555 1_555
O85_5 C84_5 1_555 1_555
O86_5 C85_5 1_555 1_555
Na19_5 O79_5 1_555 1_555
O92_5 Na11_3 1_555 1_555
O99_5 Na20_3 1_555 1_555
C84_5 O78_5 1_555 1_555
C85_5 O79_5 1_555 1_555
O78_5 Na11_3 1_555 1_555
O78_5 Na20_3 1_555 1_555
O79_5 Na9_5 1_555 1_555
O85_5 Na20_3 1_555 1_555
O86_5 Na19_5 1_555 1_555
Na20_3 O92_5 1_555 1_555
Cd9_5 N11_5 1_555 1_555
Cd15_5 N20_5 1_555 1_555
Cd14_5 N24_5 1_555 1_555
C18_5 H6_5 1_555 1_555
N13_5 C18_5 1_555 1_555
N11_5 C18_5 1_555 1_555
C22_5 N13_5 1_555 1_555
C23_5 N11_5 1_555 1_555
C27_5 C22_5 1_555 1_555
C28_5 C23_5 1_555 1_555
O20_5 Cd9_5 1_555 1_555
O26_5 C27_5 1_555 1_555
O27_5 C28_5 1_555 1_555
C30_8 H8_8 1_555 1_555
N15_8 Cd8_5 1_555 1_555
C35_8 N15_8 1_555 1_555
C40_8 C35_8 1_555 1_555
N20_5 C30_8 1_555 1_555
C45_8 C40_8 1_555 1_555
O34_4 Cd15_5 1_555 1_555
O33_5 Cd14_5 1_555 1_555
O40_4 C45_8 1_555 1_555
O42_8 Cd8_5 1_555 1_555
C50_8 C35_8 1_555 1_555
O51_4 C50_8 1_555 1_555
C55_8 H13_8 1_555 1_555
N26_5 Cd14_5 1_555 1_555
N30_5 Cd15_5 1_555 1_555
N33_8 Cd8_5 1_555 1_555
C60_8 N26_5 1_555 1_555
C65_8 N33_8 1_555 1_555
C70_8 C65_8 1_555 1_555
C75_8 C60_8 1_555 1_555
O53_8 Cd8_5 1_555 1_555
O58_8 C70_8 1_555 1_555
O63_5 Cd14_5 1_555 1_555
O69_4 Cd15_5 1_555 1_555
O71_8 C75_8 1_555 1_555
C80_5 H18_5 1_555 1_555
C89_5 C90_5 1_555 1_555
C90_5 N41_5 1_555 1_555
N40_5 Cd17_3 1_555 1_555
N41_5 Cd14_5 1_555 1_555
C22_5 C23_5 1_555 1_555
C28_5 O20_5 1_555 1_555
C30_8 N15_8 1_555 1_555
C40_8 N20_5 1_555 1_555
C45_8 O34_4 1_555 1_555
O42_8 C50_8 1_555 1_555
C55_8 N26_5 1_555 1_555
C55_8 N33_8 1_555 1_555
C60_8 C65_8 1_555 1_555
C70_8 O53_8 1_555 1_555
C75_8 O63_5 1_555 1_555
C80_5 N40_5 1_555 1_555
C80_5 N41_5 1_555 1_555
C89_5 N40_5 1_555 1_555
O26_5 H26_5 1_555 1_555
O27_5 H27_5 1_555 1_555
O58_8 H31_8 1_555 1_555
N42_5 Cd16_3 1_555 1_555
O88_5 Na20_5 1_555 1_555
O94_5 Na10_3 1_555 1_555
O98_5 Na20_5 1_555 1_555
O80_5 Na10_3 1_555 1_555
O80_5 Na20_5 1_555 1_555
Na20_5 O94_5 1_555 1_555
N42_6 Cd16 1_555 1_555
O85_6 C84_6 1_555 1_555
O86_6 C85_6 1_555 1_555
Na19_6 O79_6 1_555 1_555
O89_6 Na11 1_555 1_555
O92_6 Na11 1_555 1_555
O99_6 Na20 1_555 1_555
C84_6 O78_6 1_555 1_555
C85_6 O79_6 1_555 1_555
O78_6 Na11 1_555 1_555
O78_6 Na20 1_555 1_555
O79_6 Na9_6 1_555 1_555
O85_6 Na20 1_555 1_555
O86_6 Na19_6 1_555 1_555
Na20 O92_6 1_555 1_555
Cd9_6 N11_6 1_555 1_555
Cd15_4 N20_6 1_555 1_555
Cd14_6 N24_6 1_555 1_555
C18_6 H6_6 1_555 1_555
N13_4 C18_6 1_555 1_555
N11_6 C18_6 1_555 1_555
C22_6 N13_4 1_555 1_555
C23_6 N11_6 1_555 1_555
C27_6 C22_6 1_555 1_555
C28_6 C23_6 1_555 1_555
O26_6 C27_6 1_555 1_555
O27_6 C28_6 1_555 1_555
C30_9 H8_9 1_555 1_555
N15_9 Cd8_4 1_555 1_555
C35_9 N15_9 1_555 1_555
C40_9 C35_9 1_555 1_555
N20_6 C30_9 1_555 1_555
C45_9 C40_9 1_555 1_555
O34_6 Cd15_4 1_555 1_555
O33_6 Cd14_6 1_555 1_555
O40_6 C45_9 1_555 1_555
O42_9 Cd8_4 1_555 1_555
C50_9 C35_9 1_555 1_555
O51_6 C50_9 1_555 1_555
C55_9 H13_9 1_555 1_555
N26_6 Cd14_6 1_555 1_555
N30_6 Cd15_4 1_555 1_555
N33_9 Cd8_4 1_555 1_555
C60_9 N26_6 1_555 1_555
C65_9 N33_9 1_555 1_555
C70_9 C65_9 1_555 1_555
C75_9 C60_9 1_555 1_555
O53_9 Cd8_4 1_555 1_555
O58_9 C70_9 1_555 1_555
O63_6 Cd14_6 1_555 1_555
O69_6 Cd15_4 1_555 1_555
O71_9 C75_9 1_555 1_555
C80_6 H18_6 1_555 1_555
C89_6 C90_6 1_555 1_555
C90_6 N41_6 1_555 1_555
N40_6 Cd17 1_555 1_555
N41_6 Cd14_6 1_555 1_555
O88_6 Na20_4 1_555 1_555
O94_6 Na10 1_555 1_555
O98_6 Na20_4 1_555 1_555
C22_6 C23_6 1_555 1_555
C27_6 O22_4 1_555 1_555
C30_9 N15_9 1_555 1_555
C40_9 N20_6 1_555 1_555
C45_9 O34_6 1_555 1_555
O42_9 C50_9 1_555 1_555
C55_9 N26_6 1_555 1_555
C55_9 N33_9 1_555 1_555
C60_9 C65_9 1_555 1_555
C70_9 O53_9 1_555 1_555
C75_9 O63_6 1_555 1_555
C80_6 N40_6 1_555 1_555
C80_6 N41_6 1_555 1_555
C89_6 N40_6 1_555 1_555
O80_6 Na10 1_555 1_555
O80_6 Na20_4 1_555 1_555
Na20_4 O94_6 1_555 1_555
O26_6 H26_6 1_555 1_555
O27_6 H27_6 1_555 1_555
O58_9 H31_9 1_555 1_555
Cd8_7 N9_7 1_555 1_555
Cd15_7 N39_7 1_555 1_555
C17_7 H5_7 1_555 1_555
N13_2 C17_7 1_555 1_555
N9_7 C17_7 1_555 1_555
C20_7 N13_2 1_555 1_555
C21_7 N9_7 1_555 1_555
C25_7 C20_7 1_555 1_555
C26_7 C21_7 1_555 1_555
O18_7 Cd8_7 1_555 1_555
O24_7 C25_7 1_555 1_555
O25_7 C26_7 1_555 1_555
C79_7 H17_7 1_555 1_555
C87_7 C88_7 1_555 1_555
C88_7 N39_7 1_555 1_555
N39_7 C79_7 1_555 1_555
C20_7 C21_7 1_555 1_555
C26_7 O18_7 1_555 1_555
C79_7 N42_4 1_555 1_555
C87_7 N42_4 1_555 1_555
O25_7 H22_7 1_555 1_555
O24_7 H25_7 1_555 1_555
O84_3 C83_7 1_555 1_555
Na8_3 O77_3 1_555 1_555
Na18_3 O77_3 1_555 1_555
C82_7 O80_4 1_555 1_555
C82_7 O88_4 1_555 1_555
C83_7 O77_3 1_555 1_555
O84_3 Na18_3 1_555 1_555
O40_7 Na9_4 1_555 1_555
O51_7 Na19_4 1_555 1_555
Na19_4 O40_7 1_555 1_555
O93_7 Na9_4 1_555 1_555
O100_7 Na19_4 1_555 1_555
Na19_4 O93_7 1_555 1_555
C30_10 H8_10 1_555 1_555
N15_10 Cd9_4 1_555 1_555
C35_10 N15_10 1_555 1_555
C40_10 C35_10 1_555 1_555
N24_4 C30_10 1_555 1_555
C45_10 C40_10 1_555 1_555
C55_10 H13_10 1_555 1_555
N33_10 Cd9_4 1_555 1_555
C60_10 N30_4 1_555 1_555
C65_10 N33_10 1_555 1_555
C75_10 C60_10 1_555 1_555
C30_10 N15_10 1_555 1_555
C40_10 N24_4 1_555 1_555
C45_10 O33_4 1_555 1_555
C55_10 N30_4 1_555 1_555
C55_10 N33_10 1_555 1_555
C60_10 C65_10 1_555 1_555
C75_10 O69_5 1_555 1_555
O47_7 C50_10 1_555 1_555
O58_10 C70_10 1_555 1_555
O81_5 Na7_5 1_555 1_555
O87_5 Na14_5 1_555 1_555
Na7_5 O36_7 1_555 1_555
Na14_5 O36_7 1_555 1_555
O95_7 Na7_5 1_555 1_555
O97_7 Na14_5 1_555 1_555
O42_10 C50_10 1_555 1_555
O47_7 Na14_5 1_555 1_555
C70_10 O53_10 1_555 1_555
O81_5 Na14_5 1_555 1_555
Na14_5 O95_7 1_555 1_555
O58_10 H31_10 1_555 1_555
O47_8 C50_11 1_555 1_555
O58_11 C70_11 1_555 1_555
O81_6 Na7_6 1_555 1_555
O87_6 Na14_6 1_555 1_555
Na7_6 O36_8 1_555 1_555
Na14_6 O36_8 1_555 1_555
O95_8 Na7_6 1_555 1_555
O97_8 Na14_6 1_555 1_555
O42_11 C50_11 1_555 1_555
O47_8 Na14_6 1_555 1_555
C70_11 O53_11 1_555 1_555
O81_6 Na14_6 1_555 1_555
Na14_6 O95_8 1_555 1_555
O58_11 H31_11 1_555 1_555
Cd8_8 N9_8 1_555 1_555
Cd15_8 N39_8 1_555 1_555
C17_8 H5_8 1_555 1_555
N13 C17_8 1_555 1_555
N9_8 C17_8 1_555 1_555
C20_8 N13 1_555 1_555
C21_8 N9_8 1_555 1_555
C25_8 C20_8 1_555 1_555
C26_8 C21_8 1_555 1_555
O24_8 C25_8 1_555 1_555
O25_8 C26_8 1_555 1_555
O40_8 Na9_6 1_555 1_555
O51_8 Na19_6 1_555 1_555
C79_8 H17_8 1_555 1_555
C87_8 C88_8 1_555 1_555
C88_8 N39_8 1_555 1_555
N39_8 C79_8 1_555 1_555
Na19_6 O40_8 1_555 1_555
O93_8 Na9_6 1_555 1_555
O100_8 Na19_6 1_555 1_555
C20_8 C21_8 1_555 1_555
C25_8 O22 1_555 1_555
C79_8 N42_6 1_555 1_555
C87_8 N42_6 1_555 1_555
Na19_6 O93_8 1_555 1_555
O25_8 H22_8 1_555 1_555
O24_8 H25_8 1_555 1_555
C30_11 H8_11 1_555 1_555
N15_11 Cd9_6 1_555 1_555
C35_11 N15_11 1_555 1_555
C40_11 C35_11 1_555 1_555
N24_6 C30_11 1_555 1_555
C45_11 C40_11 1_555 1_555
C55_11 H13_11 1_555 1_555
N33_11 Cd9_6 1_555 1_555
C60_11 N30_6 1_555 1_555
C65_11 N33_11 1_555 1_555
C75_11 C60_11 1_555 1_555
O87_5 C83_8 1_555 1_555
C30_11 N15_11 1_555 1_555
C40_11 N24_6 1_555 1_555
C45_11 O33_6 1_555 1_555
C55_11 N30_6 1_555 1_555
C55_11 N33_11 1_555 1_555
C60_11 C65_11 1_555 1_555
C75_11 O69_6 1_555 1_555
C82_8 O80_6 1_555 1_555
C82_8 O88_6 1_555 1_555
C83_8 O81_5 1_555 1_555
O40_9 Na9_5 1_555 1_555
O51_9 Na19_5 1_555 1_555
Na19_5 O40_9 1_555 1_555
O90_9 Na9_5 1_555 1_555
O93_9 Na9_5 1_555 1_555
O100_9 Na19_5 1_555 1_555
Na19_5 O93_9 1_555 1_555
C30_12 H8_12 1_555 1_555
N15_12 Cd9_5 1_555 1_555
C35_12 N15_12 1_555 1_555
C40_12 C35_12 1_555 1_555
N24_5 C30_12 1_555 1_555
C45_12 C40_12 1_555 1_555
O36_9 C45_12 1_555 1_555
O42_12 Cd9_5 1_555 1_555
C50_12 C35_12 1_555 1_555
O47_9 C50_12 1_555 1_555
C55_12 H13_12 1_555 1_555
N33_12 Cd9_5 1_555 1_555
C60_12 N30_5 1_555 1_555
C65_12 N33_12 1_555 1_555
C70_12 C65_12 1_555 1_555
C75_12 C60_12 1_555 1_555
O53_12 Cd9_5 1_555 1_555
O58_12 C70_12 1_555 1_555
O71_12 C75_12 1_555 1_555
Na8_3 O36_9 1_555 1_555
Na18_3 O36_9 1_555 1_555
O95_9 Na8_3 1_555 1_555
O97_9 Na18_3 1_555 1_555
C30_12 N15_12 1_555 1_555
C40_12 N24_5 1_555 1_555
C45_12 O33_5 1_555 1_555
O42_12 C50_12 1_555 1_555
O47_9 Na18_3 1_555 1_555
C55_12 N30_5 1_555 1_555
C55_12 N33_12 1_555 1_555
C60_12 C65_12 1_555 1_555
C70_12 O53_12 1_555 1_555
C75_12 O69_4 1_555 1_555
Na18_3 O95_9 1_555 1_555
O58_12 H31_12 1_555 1_555
Cd8_9 N9_9 1_555 1_555
Cd15_9 N39_9 1_555 1_555
C17_9 H5_9 1_555 1_555
N13_3 C17_9 1_555 1_555
N9_9 C17_9 1_555 1_555
C20_9 N13_3 1_555 1_555
C21_9 N9_9 1_555 1_555
C25_9 C20_9 1_555 1_555
C26_9 C21_9 1_555 1_555
O24_9 C25_9 1_555 1_555
O25_9 C26_9 1_555 1_555
C79_9 H17_9 1_555 1_555
C87_9 C88_9 1_555 1_555
C88_9 N39_9 1_555 1_555
N39_9 C79_9 1_555 1_555
C20_9 C21_9 1_555 1_555
C79_9 N42_5 1_555 1_555
C87_9 N42_5 1_555 1_555
O25_9 H22_9 1_555 1_555
O24_9 H25_9 1_555 1_555
O87_6 C83_9 1_555 1_555
C82_9 O80_5 1_555 1_555
C82_9 O88_5 1_555 1_555
C83_9 O81_6 1_555 1_555
Cd15_9 N20_7 1_555 1_555
Cd15_3 N24_7 1_555 1_555
C30_13 H8_13 1_555 1_555
N15_13 Cd8_9 1_555 1_555
C35_13 N15_13 1_555 1_555
C40_13 C35_13 1_555 1_555
N20_7 C30_13 1_555 1_555
C45_13 C40_13 1_555 1_555
O34_8 Cd15_9 1_555 1_555
O34_2 Cd15_3 1_555 1_555
C55_13 H13_13 1_555 1_555
N26_7 Cd15_3 1_555 1_555
N30_7 Cd15_9 1_555 1_555
N33_13 Cd8_9 1_555 1_555
C60_13 N26_7 1_555 1_555
C65_13 N33_13 1_555 1_555
C75_13 C60_13 1_555 1_555
O69_2 Cd15_3 1_555 1_555
O69_8 Cd15_9 1_555 1_555
C30_13 N15_13 1_555 1_555
C40_13 N20_7 1_555 1_555
C45_13 O34_8 1_555 1_555
C55_13 N26_7 1_555 1_555
C55_13 N33_13 1_555 1_555
C60_13 C65_13 1_555 1_555
C75_13 O69_2 1_555 1_555
O51_8 C50_13 1_555 1_555
O58_13 C70_13 1_555 1_555
O42_13 C50_13 1_555 1_555
C70_13 O53_13 1_555 1_555
O58_13 H31_13 1_555 1_555
O51_7 C50_14 1_555 1_555
O58_14 C70_14 1_555 1_555
O42_14 C50_14 1_555 1_555
C70_14 O53_14 1_555 1_555
O58_14 H31_14 1_555 1_555
Cd15_8 N20_8 1_555 1_555
Cd15 N24_8 1_555 1_555
C30_14 H8_14 1_555 1_555
N15_14 Cd8_8 1_555 1_555
C35_14 N15_14 1_555 1_555
C40_14 C35_14 1_555 1_555
N20_8 C30_14 1_555 1_555
C45_14 C40_14 1_555 1_555
O34_7 Cd15_8 1_555 1_555
O34_3 Cd15 1_555 1_555
C55_14 H13_14 1_555 1_555
N26_8 Cd15 1_555 1_555
N30_8 Cd15_8 1_555 1_555
N33_14 Cd8_8 1_555 1_555
C60_14 N26_8 1_555 1_555
C65_14 N33_14 1_555 1_555
C75_14 C60_14 1_555 1_555
O69_3 Cd15 1_555 1_555
O69_7 Cd15_8 1_555 1_555
C30_14 N15_14 1_555 1_555
C40_14 N20_8 1_555 1_555
C45_14 O34_7 1_555 1_555
C55_14 N26_8 1_555 1_555
C55_14 N33_14 1_555 1_555
C60_14 C65_14 1_555 1_555
C75_14 O69_3 1_555 1_555
O13_5 Na10 1_555 1_555
Cd15_7 N20_9 1_555 1_555
Cd15_2 N24_9 1_555 1_555
C30_15 H8_15 1_555 1_555
N15_15 Cd8_7 1_555 1_555
C35_15 N15_15 1_555 1_555
C40_15 C35_15 1_555 1_555
N20_9 C30_15 1_555 1_555
C45_15 C40_15 1_555 1_555
O34_9 Cd15_7 1_555 1_555
O34 Cd15_2 1_555 1_555
O40_9 C45_15 1_555 1_555
O42_15 Cd8_7 1_555 1_555
C50_15 C35_15 1_555 1_555
O51_9 C50_15 1_555 1_555
C55_15 H13_15 1_555 1_555
N26_9 Cd15_2 1_555 1_555
N30_9 Cd15_7 1_555 1_555
N33_15 Cd8_7 1_555 1_555
C60_15 N26_9 1_555 1_555
C65_15 N33_15 1_555 1_555
C70_15 C65_15 1_555 1_555
C75_15 C60_15 1_555 1_555
O53_15 Cd8_7 1_555 1_555
O58_15 C70_15 1_555 1_555
O69 Cd15_2 1_555 1_555
O69_9 Cd15_7 1_555 1_555
O71_15 C75_15 1_555 1_555
C30_15 N15_15 1_555 1_555
C40_15 N20_9 1_555 1_555
C45_15 O34_9 1_555 1_555
O42_15 C50_15 1_555 1_555
C55_15 N26_9 1_555 1_555
C55_15 N33_15 1_555 1_555
C60_15 C65_15 1_555 1_555
C70_15 O53_15 1_555 1_555
C75_15 O69 1_555 1_555
O58_15 H31_15 1_555 1_555
O90_12 Na8_3 1_555 1_555
C30_16 H8_16 1_555 1_555
N15_16 Cd8_3 1_555 1_555
C35_16 N15_16 1_555 1_555
C40_16 C35_16 1_555 1_555
N24_7 C30_16 1_555 1_555
C45_16 C40_16 1_555 1_555
O40_2 C45_16 1_555 1_555
O42_16 Cd8_3 1_555 1_555
C50_16 C35_16 1_555 1_555
O51_2 C50_16 1_555 1_555
C55_16 H13_16 1_555 1_555
N33_16 Cd8_3 1_555 1_555
C60_16 N30_7 1_555 1_555
C65_16 N33_16 1_555 1_555
C70_16 C65_16 1_555 1_555
C75_16 C60_16 1_555 1_555
O53_16 Cd8_3 1_555 1_555
O58_16 C70_16 1_555 1_555
O71_16 C75_16 1_555 1_555
C30_16 N15_16 1_555 1_555
C40_16 N24_7 1_555 1_555
C45_16 O34_2 1_555 1_555
O42_16 C50_16 1_555 1_555
C55_16 N30_7 1_555 1_555
C55_16 N33_16 1_555 1_555
C60_16 C65_16 1_555 1_555
C70_16 O53_16 1_555 1_555
C75_16 O69_8 1_555 1_555
O58_16 H31_16 1_555 1_555
C30_17 H8_17 1_555 1_555
N15_17 Cd8_2 1_555 1_555
C35_17 N15_17 1_555 1_555
C40_17 C35_17 1_555 1_555
N24_9 C30_17 1_555 1_555
C45_17 C40_17 1_555 1_555
O40 C45_17 1_555 1_555
O42_17 Cd8_2 1_555 1_555
C50_17 C35_17 1_555 1_555
O51 C50_17 1_555 1_555
C55_17 H13_17 1_555 1_555
N33_17 Cd8_2 1_555 1_555
C60_17 N30_9 1_555 1_555
C65_17 N33_17 1_555 1_555
C70_17 C65_17 1_555 1_555
C75_17 C60_17 1_555 1_555
O53_17 Cd8_2 1_555 1_555
O58_17 C70_17 1_555 1_555
O71_17 C75_17 1_555 1_555
C30_17 N15_17 1_555 1_555
C40_17 N24_9 1_555 1_555
C45_17 O34 1_555 1_555
O42_17 C50_17 1_555 1_555
C55_17 N30_9 1_555 1_555
C55_17 N33_17 1_555 1_555
C60_17 C65_17 1_555 1_555
C70_17 O53_17 1_555 1_555
C75_17 O69_9 1_555 1_555
O58_17 H31_17 1_555 1_555
C30_18 H8_18 1_555 1_555
N15_18 Cd8 1_555 1_555
C35_18 N15_18 1_555 1_555
C40_18 C35_18 1_555 1_555
N24_8 C30_18 1_555 1_555
C45_18 C40_18 1_555 1_555
O40_3 C45_18 1_555 1_555
O42_18 Cd8 1_555 1_555
C50_18 C35_18 1_555 1_555
O51_3 C50_18 1_555 1_555
C55_18 H13_18 1_555 1_555
N33_18 Cd8 1_555 1_555
C60_18 N30_8 1_555 1_555
C65_18 N33_18 1_555 1_555
C70_18 C65_18 1_555 1_555
C75_18 C60_18 1_555 1_555
O53_18 Cd8 1_555 1_555
O58_18 C70_18 1_555 1_555
O71_18 C75_18 1_555 1_555
C30_18 N15_18 1_555 1_555
C40_18 N24_8 1_555 1_555
C45_18 O34_3 1_555 1_555
O42_18 C50_18 1_555 1_555
C55_18 N30_8 1_555 1_555
C55_18 N33_18 1_555 1_555
C60_18 C65_18 1_555 1_555
C70_18 O53_18 1_555 1_555
C75_18 O69_7 1_555 1_555
O58_18 H31_18 1_555 1_555
O58_4 H19_4 1_555 1_555
O27 H20_4 1_555 1_555
O26 H21_4 1_555 1_555
O24_5 H22_10 1_555 1_555
O25_5 H25_10 1_555 1_555
O23 H26_7 1_555 1_555
O2 H27_7 1_555 1_555
O58_17 H28_4 1_555 1_555
O58_12 H29_7 1_555 1_555
O58_8 H30_4 1_555 1_555
O57 H31_19 1_555 1_555
O58 H32_4 1_555 1_555
O23_2 H26_8 1_555 1_555
O2_2 H27_8 1_555 1_555
O58_16 H28_5 1_555 1_555
O58_11 H29_8 1_555 1_555
O58_2 H32_5 1_555 1_555
O58_6 H19_5 1_555 1_555
O27_2 H20_5 1_555 1_555
O26_2 H21_5 1_555 1_555
O24_4 H22_11 1_555 1_555
O25_4 H25_11 1_555 1_555
O58_9 H30_5 1_555 1_555
O57_2 H31_20 1_555 1_555
O58_5 H19_6 1_555 1_555
O27_3 H20_6 1_555 1_555
O26_3 H21_6 1_555 1_555
O24_6 H22_12 1_555 1_555
O25_6 H25_12 1_555 1_555
O58_7 H30_6 1_555 1_555
O57_3 H31_21 1_555 1_555
O23_3 H26_9 1_555 1_555
O2_3 H27_9 1_555 1_555
O58_18 H28_6 1_555 1_555
O58_10 H29_9 1_555 1_555
O58_3 H32_6 1_555 1_555
O24_2 H22_13 1_555 1_555
O25_2 H25_13 1_555 1_555
O58_15 H29_10 1_555 1_555
O8 H31_22 1_555 1_555
O58_14 H29_11 1_555 1_555
O24 H22_14 1_555 1_555
O25 H25_14 1_555 1_555
O8_3 H31_23 1_555 1_555
O24_3 H22_15 1_555 1_555
O25_3 H25_15 1_555 1_555
O8_2 H31_24 1_555 1_555
O58_13 H29_12 1_555 1_555
O25_9 H26_10 1_555 1_555
O24_9 H27_10 1_555 1_555
O60_3 H31_25 1_555 1_555
O25_8 H26_11 1_555 1_555
O24_8 H27_11 1_555 1_555
O60 H31_26 1_555 1_555
O25_7 H26_12 1_555 1_555
O24_7 H27_12 1_555 1_555
O60_2 H31_27 1_555 1_555
O59_3 H31_28 1_555 1_555
O26_6 H22_16 1_555 1_555
O27_6 H25_16 1_555 1_555
O26_5 H22_17 1_555 1_555
O27_5 H25_17 1_555 1_555
O59_2 H31_29 1_555 1_555
O26_4 H22_18 1_555 1_555
O27_4 H25_18 1_555 1_555
O59 H31_30 1_555 1_555
O59_6 H31_31 1_555 1_555
O59_5 H31_32 1_555 1_555
O59_4 H31_33 1_555 1_555
O61_2 H31_34 1_555 1_555
O61 H31_35 1_555 1_555
O61_3 H31_36 1_555 1_555

#END
