
###############################################################################
#
# This file contains modified crystal structure data generated from the
# MOF subset of the Cambridge Structural Database (CSD) v543 
# hosted by the Cambridge Crystallographic Data Centre (CCDC).
#
# This work is licensed under the Creative Commons
# Attribution-NonCommercial-ShareAlike 4.0 International License.
# To view a copy of this license, visit
# http://creativecommons.org/licenses/by-nc-sa/4.0/
# or send a letter to
# Creative Commons, PO Box 1866, Mountain View, CA 94042, USA.
#
# CIF created using the CSD Python API on 29 September 2022
# The structure has been converted into the P1 space group
# The structure has a 3D framework
# The original CSD entry LUXMAT is in the cubic crystal system
# The framework has been calculated to contain at least 10.0% void space
# The void calculation uses a probe of radius 1.32A, grid spacing 0.4
# The framework is charged, counterions have been retained in the structure
# Generated hydrogen atom positions removed from atoms on special positions
#
###############################################################################

data_LUXMAT
_chemical_formula_moiety         '(C240 H276 Co8 N48 O84 36+)n'
_symmetry_cell_setting           triclinic
_symmetry_space_group_name_H-M   'P 1'
_symmetry_Int_Tables_number      1
_space_group_name_Hall           'P 1'
loop_
_symmetry_equiv_pos_site_id
_symmetry_equiv_pos_as_xyz
1 x,y,z
_cell_length_a                   23.2292(11)
_cell_length_b                   23.2292(11)
_cell_length_c                   23.2292(11)
_cell_angle_alpha                90
_cell_angle_beta                 90
_cell_angle_gamma                90
_cell_volume                     12534.4
loop_
_atom_site_label
_atom_site_type_symbol
_atom_site_fract_x
_atom_site_fract_y
_atom_site_fract_z
Co1 Co 0.2500 0.7500 0.2500
O1 O 0.32389(7) 0.77616(7) 0.29122(7)
N1 N 0.32328(8) 0.77993(9) 0.34916(8)
C1 C 0.36175(11) 0.74742(10) 0.37870(12)
H1 H 0.3863 0.7228 0.3588
C2 C 0.36472(11) 0.75036(11) 0.43613(12)
H2 H 0.3923 0.7287 0.4555
C3 C 0.32679(10) 0.78576(10) 0.46813(10)
C4 C 0.28952(10) 0.81860(11) 0.43733(11)
H3 H 0.2641 0.8428 0.4566
C5 C 0.28857(11) 0.81667(10) 0.37673(9)
H4 H 0.2641 0.8407 0.3561
Co2 Co 0.2500 0.7500 0.7500
Co3 Co 0.7500 0.7500 0.2500
Co4 Co 0.2500 0.2500 0.2500
O2 O 0.32389(7) 0.77616(7) 0.70878(7)
O3 O 0.29122(7) 0.67611(7) 0.22384(7)
O4 O 0.70878(7) 0.67611(7) 0.22384(7)
O5 O 0.22384(7) 0.70878(7) 0.32389(7)
O6 O 0.22384(7) 0.29122(7) 0.32389(7)
O7 O 0.17611(7) 0.72384(7) 0.20878(7)
O8 O 0.20878(7) 0.82389(7) 0.27616(7)
O9 O 0.27616(7) 0.79122(7) 0.17611(7)
N2 N 0.32328(8) 0.77993(9) 0.65084(8)
N3 N 0.34916(8) 0.67672(8) 0.22007(9)
N4 N 0.65084(8) 0.67672(8) 0.22007(9)
N5 N 0.22007(9) 0.65084(8) 0.32328(8)
N6 N 0.22007(9) 0.34916(8) 0.32328(8)
C6 C 0.36175(11) 0.74742(10) 0.62130(12)
C7 C 0.37870(12) 0.63825(11) 0.25258(10)
C8 C 0.62130(12) 0.63825(11) 0.25258(10)
C9 C 0.25258(10) 0.62130(12) 0.36175(11)
C10 C 0.25258(10) 0.37870(12) 0.36175(11)
H5 H 0.3863 0.7228 0.6412
H6 H 0.3588 0.6137 0.2772
H7 H 0.6412 0.6137 0.2772
H8 H 0.2772 0.6412 0.3863
H9 H 0.2772 0.3588 0.3863
C11 C 0.36472(11) 0.75036(11) 0.56387(12)
C12 C 0.43613(12) 0.63528(11) 0.24964(11)
C13 C 0.56387(12) 0.63528(11) 0.24964(11)
C14 C 0.24964(11) 0.56387(12) 0.36472(11)
C15 C 0.24964(11) 0.43613(12) 0.36472(11)
H10 H 0.3923 0.7287 0.5445
H11 H 0.4555 0.6077 0.2713
H12 H 0.5445 0.6077 0.2713
H13 H 0.2713 0.5445 0.3923
H14 H 0.2713 0.4555 0.3923
C16 C 0.32679(10) 0.78576(10) 0.53187(10)
C17 C 0.46813(10) 0.67321(10) 0.21424(10)
C18 C 0.53187(10) 0.67321(10) 0.21424(10)
C19 C 0.21424(10) 0.53187(10) 0.32679(10)
C20 C 0.21424(10) 0.46813(10) 0.32679(10)
C21 C 0.28952(10) 0.81860(11) 0.56267(11)
C22 C 0.43733(11) 0.71048(10) 0.18140(11)
C23 C 0.56267(11) 0.71048(10) 0.18140(11)
C24 C 0.18140(11) 0.56267(11) 0.28952(10)
C25 C 0.18140(11) 0.43733(11) 0.28952(10)
H15 H 0.2641 0.8428 0.5434
H16 H 0.4566 0.7359 0.1572
H17 H 0.5434 0.7359 0.1572
H18 H 0.1572 0.5434 0.2641
H19 H 0.1572 0.4566 0.2641
C26 C 0.28857(11) 0.81667(10) 0.62327(9)
C27 C 0.37673(9) 0.71143(11) 0.18333(10)
C28 C 0.62327(9) 0.71143(11) 0.18333(10)
C29 C 0.18333(10) 0.62327(9) 0.28857(11)
C30 C 0.18333(10) 0.37673(9) 0.28857(11)
H20 H 0.2641 0.8407 0.6439
H21 H 0.3561 0.7359 0.1593
H22 H 0.6439 0.7359 0.1593
H23 H 0.1593 0.6439 0.2641
H24 H 0.1593 0.3561 0.2641
Co1_2 Co 0.7500 0.2500 0.2500
O1_2 O 0.67611(7) 0.22384(7) 0.29122(7)
N1_2 N 0.67672(8) 0.22007(9) 0.34916(8)
C1_2 C 0.63825(11) 0.25258(10) 0.37870(12)
H1_2 H 0.6137 0.2772 0.3588
C2_2 C 0.63528(11) 0.24964(11) 0.43613(12)
H2_2 H 0.6077 0.2713 0.4555
C3_2 C 0.67321(10) 0.21424(10) 0.46813(10)
C4_2 C 0.71048(10) 0.18140(11) 0.43733(11)
H3_2 H 0.7359 0.1572 0.4566
C5_2 C 0.71143(11) 0.18333(10) 0.37673(9)
H4_2 H 0.7359 0.1593 0.3561
Co2_2 Co 0.7500 0.2500 0.7500
O2_2 O 0.67611(7) 0.22384(7) 0.70878(7)
O3_2 O 0.70878(7) 0.32389(7) 0.22384(7)
O4_2 O 0.29122(7) 0.32389(7) 0.22384(7)
O5_2 O 0.77616(7) 0.29122(7) 0.32389(7)
O6_2 O 0.77616(7) 0.70878(7) 0.32389(7)
O7_2 O 0.82389(7) 0.27616(7) 0.20878(7)
O8_2 O 0.79122(7) 0.17611(7) 0.27616(7)
O9_2 O 0.72384(7) 0.20878(7) 0.17611(7)
N2_2 N 0.67672(8) 0.22007(9) 0.65084(8)
N3_2 N 0.65084(8) 0.32328(8) 0.22007(9)
N4_2 N 0.34916(8) 0.32328(8) 0.22007(9)
N5_2 N 0.77993(9) 0.34916(8) 0.32328(8)
N6_2 N 0.77993(9) 0.65084(8) 0.32328(8)
C6_2 C 0.63825(11) 0.25258(10) 0.62130(12)
C7_2 C 0.62130(12) 0.36175(11) 0.25258(10)
C8_2 C 0.37870(12) 0.36175(11) 0.25258(10)
C9_2 C 0.74742(10) 0.37870(12) 0.36175(11)
C10_2 C 0.74742(10) 0.62130(12) 0.36175(11)
H5_2 H 0.6137 0.2772 0.6412
H6_2 H 0.6412 0.3863 0.2772
H7_2 H 0.3588 0.3863 0.2772
H8_2 H 0.7228 0.3588 0.3863
H9_2 H 0.7228 0.6412 0.3863
C11_2 C 0.63528(11) 0.24964(11) 0.56387(12)
C12_2 C 0.56387(12) 0.36472(11) 0.24964(11)
C13_2 C 0.43613(12) 0.36472(11) 0.24964(11)
C14_2 C 0.75036(11) 0.43613(12) 0.36472(11)
C15_2 C 0.75036(11) 0.56387(12) 0.36472(11)
H10_2 H 0.6077 0.2713 0.5445
H11_2 H 0.5445 0.3923 0.2713
H12_2 H 0.4555 0.3923 0.2713
H13_2 H 0.7287 0.4555 0.3923
H14_2 H 0.7287 0.5445 0.3923
C16_2 C 0.67321(10) 0.21424(10) 0.53187(10)
C17_2 C 0.53187(10) 0.32679(10) 0.21424(10)
C18_2 C 0.46813(10) 0.32679(10) 0.21424(10)
C19_2 C 0.78576(10) 0.46813(10) 0.32679(10)
C20_2 C 0.78576(10) 0.53187(10) 0.32679(10)
C21_2 C 0.71048(10) 0.18140(11) 0.56267(11)
C22_2 C 0.56267(11) 0.28952(10) 0.18140(11)
C23_2 C 0.43733(11) 0.28952(10) 0.18140(11)
C24_2 C 0.81860(11) 0.43733(11) 0.28952(10)
C25_2 C 0.81860(11) 0.56267(11) 0.28952(10)
H15_2 H 0.7359 0.1572 0.5434
H16_2 H 0.5434 0.2641 0.1572
H17_2 H 0.4566 0.2641 0.1572
H18_2 H 0.8428 0.4566 0.2641
H19_2 H 0.8428 0.5434 0.2641
C26_2 C 0.71143(11) 0.18333(10) 0.62327(9)
C27_2 C 0.62327(9) 0.28857(11) 0.18333(10)
C28_2 C 0.37673(9) 0.28857(11) 0.18333(10)
C29_2 C 0.81667(10) 0.37673(9) 0.28857(11)
C30_2 C 0.81667(10) 0.62327(9) 0.28857(11)
H20_2 H 0.7359 0.1593 0.6439
H21_2 H 0.6439 0.2641 0.1593
H22_2 H 0.3561 0.2641 0.1593
H23_2 H 0.8407 0.3561 0.2641
H24_2 H 0.8407 0.6439 0.2641
Co1_3 Co 0.7500 0.7500 0.7500
O1_3 O 0.67611(7) 0.77616(7) 0.70878(7)
N1_3 N 0.67672(8) 0.77993(9) 0.65084(8)
C1_3 C 0.63825(11) 0.74742(10) 0.62130(12)
H1_3 H 0.6137 0.7228 0.6412
C2_3 C 0.63528(11) 0.75036(11) 0.56387(12)
H2_3 H 0.6077 0.7287 0.5445
C3_3 C 0.67321(10) 0.78576(10) 0.53187(10)
C4_3 C 0.71048(10) 0.81860(11) 0.56267(11)
H3_3 H 0.7359 0.8428 0.5434
C5_3 C 0.71143(11) 0.81667(10) 0.62327(9)
H4_3 H 0.7359 0.8407 0.6439
O2_3 O 0.67611(7) 0.77616(7) 0.29122(7)
O3_3 O 0.70878(7) 0.67611(7) 0.77616(7)
O4_3 O 0.29122(7) 0.67611(7) 0.77616(7)
O5_3 O 0.77616(7) 0.70878(7) 0.67611(7)
O6_3 O 0.77616(7) 0.29122(7) 0.67611(7)
O7_3 O 0.82389(7) 0.72384(7) 0.79122(7)
O8_3 O 0.79122(7) 0.82389(7) 0.72384(7)
O9_3 O 0.72384(7) 0.79122(7) 0.82389(7)
N2_3 N 0.67672(8) 0.77993(9) 0.34916(8)
N3_3 N 0.65084(8) 0.67672(8) 0.77993(9)
N4_3 N 0.34916(8) 0.67672(8) 0.77993(9)
N5_3 N 0.77993(9) 0.65084(8) 0.67672(8)
N6_3 N 0.77993(9) 0.34916(8) 0.67672(8)
C6_3 C 0.63825(11) 0.74742(10) 0.37870(12)
C7_3 C 0.62130(12) 0.63825(11) 0.74742(10)
C8_3 C 0.37870(12) 0.63825(11) 0.74742(10)
C9_3 C 0.74742(10) 0.62130(12) 0.63825(11)
C10_3 C 0.74742(10) 0.37870(12) 0.63825(11)
H5_3 H 0.6137 0.7228 0.3588
H6_3 H 0.6412 0.6137 0.7228
H7_3 H 0.3588 0.6137 0.7228
H8_3 H 0.7228 0.6412 0.6137
H9_3 H 0.7228 0.3588 0.6137
C11_3 C 0.63528(11) 0.75036(11) 0.43613(12)
C12_3 C 0.56387(12) 0.63528(11) 0.75036(11)
C13_3 C 0.43613(12) 0.63528(11) 0.75036(11)
C14_3 C 0.75036(11) 0.56387(12) 0.63528(11)
C15_3 C 0.75036(11) 0.43613(12) 0.63528(11)
H10_3 H 0.6077 0.7287 0.4555
H11_3 H 0.5445 0.6077 0.7287
H12_3 H 0.4555 0.6077 0.7287
H13_3 H 0.7287 0.5445 0.6077
H14_3 H 0.7287 0.4555 0.6077
C16_3 C 0.67321(10) 0.78576(10) 0.46813(10)
C17_3 C 0.53187(10) 0.67321(10) 0.78576(10)
C18_3 C 0.46813(10) 0.67321(10) 0.78576(10)
C19_3 C 0.78576(10) 0.53187(10) 0.67321(10)
C20_3 C 0.78576(10) 0.46813(10) 0.67321(10)
C21_3 C 0.71048(10) 0.81860(11) 0.43733(11)
C22_3 C 0.56267(11) 0.71048(10) 0.81860(11)
C23_3 C 0.43733(11) 0.71048(10) 0.81860(11)
C24_3 C 0.81860(11) 0.56267(11) 0.71048(10)
C25_3 C 0.81860(11) 0.43733(11) 0.71048(10)
H15_3 H 0.7359 0.8428 0.4566
H16_3 H 0.5434 0.7359 0.8428
H17_3 H 0.4566 0.7359 0.8428
H18_3 H 0.8428 0.5434 0.7359
H19_3 H 0.8428 0.4566 0.7359
C26_3 C 0.71143(11) 0.81667(10) 0.37673(9)
C27_3 C 0.62327(9) 0.71143(11) 0.81667(10)
C28_3 C 0.37673(9) 0.71143(11) 0.81667(10)
C29_3 C 0.81667(10) 0.62327(9) 0.71143(11)
C30_3 C 0.81667(10) 0.37673(9) 0.71143(11)
H20_3 H 0.7359 0.8407 0.3561
H21_3 H 0.6439 0.7359 0.8407
H22_3 H 0.3561 0.7359 0.8407
H23_3 H 0.8407 0.6439 0.7359
H24_3 H 0.8407 0.3561 0.7359
Co1_4 Co 0.2500 0.2500 0.7500
O1_4 O 0.32389(7) 0.22384(7) 0.70878(7)
N1_4 N 0.32328(8) 0.22007(9) 0.65084(8)
C1_4 C 0.36175(11) 0.25258(10) 0.62130(12)
H1_4 H 0.3863 0.2772 0.6412
C2_4 C 0.36472(11) 0.24964(11) 0.56387(12)
H2_4 H 0.3923 0.2713 0.5445
C3_4 C 0.32679(10) 0.21424(10) 0.53187(10)
C4_4 C 0.28952(10) 0.18140(11) 0.56267(11)
H3_4 H 0.2641 0.1572 0.5434
C5_4 C 0.28857(11) 0.18333(10) 0.62327(9)
H4_4 H 0.2641 0.1593 0.6439
O2_4 O 0.32389(7) 0.22384(7) 0.29122(7)
O3_4 O 0.29122(7) 0.32389(7) 0.77616(7)
O4_4 O 0.70878(7) 0.32389(7) 0.77616(7)
O5_4 O 0.22384(7) 0.29122(7) 0.67611(7)
O6_4 O 0.22384(7) 0.70878(7) 0.67611(7)
O7_4 O 0.17611(7) 0.27616(7) 0.79122(7)
O8_4 O 0.20878(7) 0.17611(7) 0.72384(7)
O9_4 O 0.27616(7) 0.20878(7) 0.82389(7)
N2_4 N 0.32328(8) 0.22007(9) 0.34916(8)
N3_4 N 0.34916(8) 0.32328(8) 0.77993(9)
N4_4 N 0.65084(8) 0.32328(8) 0.77993(9)
N5_4 N 0.22007(9) 0.34916(8) 0.67672(8)
N6_4 N 0.22007(9) 0.65084(8) 0.67672(8)
C6_4 C 0.36175(11) 0.25258(10) 0.37870(12)
C7_4 C 0.37870(12) 0.36175(11) 0.74742(10)
C8_4 C 0.62130(12) 0.36175(11) 0.74742(10)
C9_4 C 0.25258(10) 0.37870(12) 0.63825(11)
C10_4 C 0.25258(10) 0.62130(12) 0.63825(11)
H5_4 H 0.3863 0.2772 0.3588
H6_4 H 0.3588 0.3863 0.7228
H7_4 H 0.6412 0.3863 0.7228
H8_4 H 0.2772 0.3588 0.6137
H9_4 H 0.2772 0.6412 0.6137
C11_4 C 0.36472(11) 0.24964(11) 0.43613(12)
C12_4 C 0.43613(12) 0.36472(11) 0.75036(11)
C13_4 C 0.56387(12) 0.36472(11) 0.75036(11)
C14_4 C 0.24964(11) 0.43613(12) 0.63528(11)
C15_4 C 0.24964(11) 0.56387(12) 0.63528(11)
H10_4 H 0.3923 0.2713 0.4555
H11_4 H 0.4555 0.3923 0.7287
H12_4 H 0.5445 0.3923 0.7287
H13_4 H 0.2713 0.4555 0.6077
H14_4 H 0.2713 0.5445 0.6077
C16_4 C 0.32679(10) 0.21424(10) 0.46813(10)
C17_4 C 0.46813(10) 0.32679(10) 0.78576(10)
C18_4 C 0.53187(10) 0.32679(10) 0.78576(10)
C19_4 C 0.21424(10) 0.46813(10) 0.67321(10)
C20_4 C 0.21424(10) 0.53187(10) 0.67321(10)
C21_4 C 0.28952(10) 0.18140(11) 0.43733(11)
C22_4 C 0.43733(11) 0.28952(10) 0.81860(11)
C23_4 C 0.56267(11) 0.28952(10) 0.81860(11)
C24_4 C 0.18140(11) 0.43733(11) 0.71048(10)
C25_4 C 0.18140(11) 0.56267(11) 0.71048(10)
H15_4 H 0.2641 0.1572 0.4566
H16_4 H 0.4566 0.2641 0.8428
H17_4 H 0.5434 0.2641 0.8428
H18_4 H 0.1572 0.4566 0.7359
H19_4 H 0.1572 0.5434 0.7359
C26_4 C 0.28857(11) 0.18333(10) 0.37673(9)
C27_4 C 0.37673(9) 0.28857(11) 0.81667(10)
C28_4 C 0.62327(9) 0.28857(11) 0.81667(10)
C29_4 C 0.18333(10) 0.37673(9) 0.71143(11)
C30_4 C 0.18333(10) 0.62327(9) 0.71143(11)
H20_4 H 0.2641 0.1593 0.3561
H21_4 H 0.3561 0.2641 0.8407
H22_4 H 0.6439 0.2641 0.8407
H23_4 H 0.1593 0.3561 0.7359
H24_4 H 0.1593 0.6439 0.7359
N4_5 N 0.15084(8) 0.17672(8) 0.72007(9)
C8_5 C 0.12130(12) 0.13825(11) 0.75258(10)
H7_5 H 0.1412 0.1137 0.7772
C13_5 C 0.06387(12) 0.13528(11) 0.74964(11)
H12_5 H 0.0445 0.1077 0.7713
C18_5 C 0.03187(10) 0.17321(10) 0.71424(10)
C23_5 C 0.06267(11) 0.21048(10) 0.68140(11)
H17_5 H 0.0434 0.2359 0.6572
C28_5 C 0.12327(9) 0.21143(11) 0.68333(10)
H22_5 H 0.1439 0.2359 0.6593
N2_5 N 0.82328(8) 0.27993(9) 0.15084(8)
C6_5 C 0.86175(11) 0.24742(10) 0.12130(12)
H5_5 H 0.8863 0.2228 0.1412
C11_5 C 0.86472(11) 0.25036(11) 0.06387(12)
H10_5 H 0.8923 0.2287 0.0445
C16_5 C 0.82679(10) 0.28576(10) 0.03187(10)
C21_5 C 0.78952(10) 0.31860(11) 0.06267(11)
H15_5 H 0.7641 0.3428 0.0434
C26_5 C 0.78857(11) 0.31667(10) 0.12327(9)
H20_5 H 0.7641 0.3407 0.1439
O1_5 O 0.82389(7) 0.27616(7) 0.79122(7)
N1_5 N 0.82328(8) 0.27993(9) 0.84916(8)
C1_5 C 0.86175(11) 0.24742(10) 0.87870(12)
H1_5 H 0.8863 0.2228 0.8588
C2_5 C 0.86472(11) 0.25036(11) 0.93613(12)
H2_5 H 0.8923 0.2287 0.9555
C3_5 C 0.82679(10) 0.28576(10) 0.96813(10)
C4_5 C 0.78952(10) 0.31860(11) 0.93733(11)
H3_5 H 0.7641 0.3428 0.9566
C5_5 C 0.78857(11) 0.31667(10) 0.87673(9)
H4_5 H 0.7641 0.3407 0.8561
O3_5 O 0.79122(7) 0.17611(7) 0.72384(7)
O5_5 O 0.72384(7) 0.20878(7) 0.82389(7)
N3_5 N 0.84916(8) 0.17672(8) 0.72007(9)
N5_5 N 0.72007(9) 0.15084(8) 0.82328(8)
C7_5 C 0.87870(12) 0.13825(11) 0.75258(10)
C9_5 C 0.75258(10) 0.12130(12) 0.86175(11)
H6_5 H 0.8588 0.1137 0.7772
H8_5 H 0.7772 0.1412 0.8863
C12_5 C 0.93613(12) 0.13528(11) 0.74964(11)
C14_5 C 0.74964(11) 0.06387(12) 0.86472(11)
H11_5 H 0.9555 0.1077 0.7713
H13_5 H 0.7713 0.0445 0.8923
C17_5 C 0.96813(10) 0.17321(10) 0.71424(10)
C19_5 C 0.71424(10) 0.03187(10) 0.82679(10)
C22_5 C 0.93733(11) 0.21048(10) 0.68140(11)
C24_5 C 0.68140(11) 0.06267(11) 0.78952(10)
H16_5 H 0.9566 0.2359 0.6572
H18_5 H 0.6572 0.0434 0.7641
C27_5 C 0.87673(9) 0.21143(11) 0.68333(10)
C29_5 C 0.68333(10) 0.12327(9) 0.78857(11)
H21_5 H 0.8561 0.2359 0.6593
H23_5 H 0.6593 0.1439 0.7641
N6_5 N 0.72007(9) 0.84916(8) 0.82328(8)
C10_5 C 0.75258(10) 0.87870(12) 0.86175(11)
H9_5 H 0.7772 0.8588 0.8863
C15_5 C 0.74964(11) 0.93613(12) 0.86472(11)
H14_5 H 0.7713 0.9555 0.8923
C20_5 C 0.71424(10) 0.96813(10) 0.82679(10)
C25_5 C 0.68140(11) 0.93733(11) 0.78952(10)
H19_5 H 0.6572 0.9566 0.7641
C30_5 C 0.68333(10) 0.87673(9) 0.78857(11)
H24_5 H 0.6593 0.8561 0.7641
N6_6 N 0.27993(9) 0.15084(8) 0.82328(8)
C10_6 C 0.24742(10) 0.12130(12) 0.86175(11)
H9_6 H 0.2228 0.1412 0.8863
C15_6 C 0.25036(11) 0.06387(12) 0.86472(11)
H14_6 H 0.2287 0.0445 0.8923
C20_6 C 0.28576(10) 0.03187(10) 0.82679(10)
C25_6 C 0.31860(11) 0.06267(11) 0.78952(10)
H19_6 H 0.3428 0.0434 0.7641
C30_6 C 0.31667(10) 0.12327(9) 0.78857(11)
H24_6 H 0.3407 0.1439 0.7641
N2_6 N 0.17672(8) 0.72007(9) 0.15084(8)
C6_6 C 0.13825(11) 0.75258(10) 0.12130(12)
H5_6 H 0.1137 0.7772 0.1412
C11_6 C 0.13528(11) 0.74964(11) 0.06387(12)
H10_6 H 0.1077 0.7713 0.0445
C16_6 C 0.17321(10) 0.71424(10) 0.03187(10)
C21_6 C 0.21048(10) 0.68140(11) 0.06267(11)
H15_6 H 0.2359 0.6572 0.0434
C26_6 C 0.21143(11) 0.68333(10) 0.12327(9)
H20_6 H 0.2359 0.6593 0.1439
O1_6 O 0.17611(7) 0.72384(7) 0.79122(7)
N1_6 N 0.17672(8) 0.72007(9) 0.84916(8)
C1_6 C 0.13825(11) 0.75258(10) 0.87870(12)
H1_6 H 0.1137 0.7772 0.8588
C2_6 C 0.13528(11) 0.74964(11) 0.93613(12)
H2_6 H 0.1077 0.7713 0.9555
C3_6 C 0.17321(10) 0.71424(10) 0.96813(10)
C4_6 C 0.21048(10) 0.68140(11) 0.93733(11)
H3_6 H 0.2359 0.6572 0.9566
C5_6 C 0.21143(11) 0.68333(10) 0.87673(9)
H4_6 H 0.2359 0.6593 0.8561
O3_6 O 0.20878(7) 0.82389(7) 0.72384(7)
O5_6 O 0.27616(7) 0.79122(7) 0.82389(7)
N3_6 N 0.15084(8) 0.82328(8) 0.72007(9)
N5_6 N 0.27993(9) 0.84916(8) 0.82328(8)
C7_6 C 0.12130(12) 0.86175(11) 0.75258(10)
C9_6 C 0.24742(10) 0.87870(12) 0.86175(11)
H6_6 H 0.1412 0.8863 0.7772
H8_6 H 0.2228 0.8588 0.8863
C12_6 C 0.06387(12) 0.86472(11) 0.74964(11)
C14_6 C 0.25036(11) 0.93613(12) 0.86472(11)
H11_6 H 0.0445 0.8923 0.7713
H13_6 H 0.2287 0.9555 0.8923
C17_6 C 0.03187(10) 0.82679(10) 0.71424(10)
C19_6 C 0.28576(10) 0.96813(10) 0.82679(10)
C22_6 C 0.06267(11) 0.78952(10) 0.68140(11)
C24_6 C 0.31860(11) 0.93733(11) 0.78952(10)
H16_6 H 0.0434 0.7641 0.6572
H18_6 H 0.3428 0.9566 0.7641
C27_6 C 0.12327(9) 0.78857(11) 0.68333(10)
C29_6 C 0.31667(10) 0.87673(9) 0.78857(11)
H21_6 H 0.1439 0.7641 0.6593
H23_6 H 0.3407 0.8561 0.7641
N4_6 N 0.84916(8) 0.82328(8) 0.72007(9)
C8_6 C 0.87870(12) 0.86175(11) 0.75258(10)
H7_6 H 0.8588 0.8863 0.7772
C13_6 C 0.93613(12) 0.86472(11) 0.74964(11)
H12_6 H 0.9555 0.8923 0.7713
C18_6 C 0.96813(10) 0.82679(10) 0.71424(10)
C23_6 C 0.93733(11) 0.78952(10) 0.68140(11)
H17_6 H 0.9566 0.7641 0.6572
C28_6 C 0.87673(9) 0.78857(11) 0.68333(10)
H22_6 H 0.8561 0.7641 0.6593
O1_7 O 0.17611(7) 0.27616(7) 0.20878(7)
N1_7 N 0.17672(8) 0.27993(9) 0.15084(8)
C1_7 C 0.13825(11) 0.24742(10) 0.12130(12)
H1_7 H 0.1137 0.2228 0.1412
C2_7 C 0.13528(11) 0.25036(11) 0.06387(12)
H2_7 H 0.1077 0.2287 0.0445
C3_7 C 0.17321(10) 0.28576(10) 0.03187(10)
C4_7 C 0.21048(10) 0.31860(11) 0.06267(11)
H3_7 H 0.2359 0.3428 0.0434
C5_7 C 0.21143(11) 0.31667(10) 0.12327(9)
H4_7 H 0.2359 0.3407 0.1439
O3_7 O 0.20878(7) 0.17611(7) 0.27616(7)
O5_7 O 0.27616(7) 0.20878(7) 0.17611(7)
N3_7 N 0.15084(8) 0.17672(8) 0.27993(9)
N5_7 N 0.27993(9) 0.15084(8) 0.17672(8)
C7_7 C 0.12130(12) 0.13825(11) 0.24742(10)
C9_7 C 0.24742(10) 0.12130(12) 0.13825(11)
H6_7 H 0.1412 0.1137 0.2228
H8_7 H 0.2228 0.1412 0.1137
C12_7 C 0.06387(12) 0.13528(11) 0.25036(11)
C14_7 C 0.25036(11) 0.06387(12) 0.13528(11)
H11_7 H 0.0445 0.1077 0.2287
H13_7 H 0.2287 0.0445 0.1077
C17_7 C 0.03187(10) 0.17321(10) 0.28576(10)
C19_7 C 0.28576(10) 0.03187(10) 0.17321(10)
C22_7 C 0.06267(11) 0.21048(10) 0.31860(11)
C24_7 C 0.31860(11) 0.06267(11) 0.21048(10)
H16_7 H 0.0434 0.2359 0.3428
H18_7 H 0.3428 0.0434 0.2359
C27_7 C 0.12327(9) 0.21143(11) 0.31667(10)
C29_7 C 0.31667(10) 0.12327(9) 0.21143(11)
H21_7 H 0.1439 0.2359 0.3407
H23_7 H 0.3407 0.1439 0.2359
N2_7 N 0.17672(8) 0.27993(9) 0.84916(8)
C6_7 C 0.13825(11) 0.24742(10) 0.87870(12)
H5_7 H 0.1137 0.2228 0.8588
C11_7 C 0.13528(11) 0.25036(11) 0.93613(12)
H10_7 H 0.1077 0.2287 0.9555
C16_7 C 0.17321(10) 0.28576(10) 0.96813(10)
C21_7 C 0.21048(10) 0.31860(11) 0.93733(11)
H15_7 H 0.2359 0.3428 0.9566
C26_7 C 0.21143(11) 0.31667(10) 0.87673(9)
H20_7 H 0.2359 0.3407 0.8561
N6_7 N 0.27993(9) 0.84916(8) 0.17672(8)
C10_7 C 0.24742(10) 0.87870(12) 0.13825(11)
H9_7 H 0.2228 0.8588 0.1137
C15_7 C 0.25036(11) 0.93613(12) 0.13528(11)
H14_7 H 0.2287 0.9555 0.1077
C20_7 C 0.28576(10) 0.96813(10) 0.17321(10)
C25_7 C 0.31860(11) 0.93733(11) 0.21048(10)
H19_7 H 0.3428 0.9566 0.2359
C30_7 C 0.31667(10) 0.87673(9) 0.21143(11)
H24_7 H 0.3407 0.8561 0.2359
N4_7 N 0.84916(8) 0.17672(8) 0.27993(9)
C8_7 C 0.87870(12) 0.13825(11) 0.24742(10)
H7_7 H 0.8588 0.1137 0.2228
C13_7 C 0.93613(12) 0.13528(11) 0.25036(11)
H12_7 H 0.9555 0.1077 0.2287
C18_7 C 0.96813(10) 0.17321(10) 0.28576(10)
C23_7 C 0.93733(11) 0.21048(10) 0.31860(11)
H17_7 H 0.9566 0.2359 0.3428
C28_7 C 0.87673(9) 0.21143(11) 0.31667(10)
H22_7 H 0.8561 0.2359 0.3407
N4_8 N 0.15084(8) 0.82328(8) 0.27993(9)
C8_8 C 0.12130(12) 0.86175(11) 0.24742(10)
H7_8 H 0.1412 0.8863 0.2228
C13_8 C 0.06387(12) 0.86472(11) 0.25036(11)
H12_8 H 0.0445 0.8923 0.2287
C18_8 C 0.03187(10) 0.82679(10) 0.28576(10)
C23_8 C 0.06267(11) 0.78952(10) 0.31860(11)
H17_8 H 0.0434 0.7641 0.3428
C28_8 C 0.12327(9) 0.78857(11) 0.31667(10)
H22_8 H 0.1439 0.7641 0.3407
N6_8 N 0.72007(9) 0.15084(8) 0.17672(8)
C10_8 C 0.75258(10) 0.12130(12) 0.13825(11)
H9_8 H 0.7772 0.1412 0.1137
C15_8 C 0.74964(11) 0.06387(12) 0.13528(11)
H14_8 H 0.7713 0.0445 0.1077
C20_8 C 0.71424(10) 0.03187(10) 0.17321(10)
C25_8 C 0.68140(11) 0.06267(11) 0.21048(10)
H19_8 H 0.6572 0.0434 0.2359
C30_8 C 0.68333(10) 0.12327(9) 0.21143(11)
H24_8 H 0.6593 0.1439 0.2359
O1_8 O 0.82389(7) 0.72384(7) 0.20878(7)
N1_8 N 0.82328(8) 0.72007(9) 0.15084(8)
C1_8 C 0.86175(11) 0.75258(10) 0.12130(12)
H1_8 H 0.8863 0.7772 0.1412
C2_8 C 0.86472(11) 0.74964(11) 0.06387(12)
H2_8 H 0.8923 0.7713 0.0445
C3_8 C 0.82679(10) 0.71424(10) 0.03187(10)
C4_8 C 0.78952(10) 0.68140(11) 0.06267(11)
H3_8 H 0.7641 0.6572 0.0434
C5_8 C 0.78857(11) 0.68333(10) 0.12327(9)
H4_8 H 0.7641 0.6593 0.1439
O3_8 O 0.79122(7) 0.82389(7) 0.27616(7)
O5_8 O 0.72384(7) 0.79122(7) 0.17611(7)
N3_8 N 0.84916(8) 0.82328(8) 0.27993(9)
N5_8 N 0.72007(9) 0.84916(8) 0.17672(8)
C7_8 C 0.87870(12) 0.86175(11) 0.24742(10)
C9_8 C 0.75258(10) 0.87870(12) 0.13825(11)
H6_8 H 0.8588 0.8863 0.2228
H8_8 H 0.7772 0.8588 0.1137
C12_8 C 0.93613(12) 0.86472(11) 0.25036(11)
C14_8 C 0.74964(11) 0.93613(12) 0.13528(11)
H11_8 H 0.9555 0.8923 0.2287
H13_8 H 0.7713 0.9555 0.1077
C17_8 C 0.96813(10) 0.82679(10) 0.28576(10)
C19_8 C 0.71424(10) 0.96813(10) 0.17321(10)
C22_8 C 0.93733(11) 0.78952(10) 0.31860(11)
C24_8 C 0.68140(11) 0.93733(11) 0.21048(10)
H16_8 H 0.9566 0.7641 0.3428
H18_8 H 0.6572 0.9566 0.2359
C27_8 C 0.87673(9) 0.78857(11) 0.31667(10)
C29_8 C 0.68333(10) 0.87673(9) 0.21143(11)
H21_8 H 0.8561 0.7641 0.3407
H23_8 H 0.6593 0.8561 0.2359
N2_8 N 0.82328(8) 0.72007(9) 0.84916(8)
C6_8 C 0.86175(11) 0.75258(10) 0.87870(12)
H5_8 H 0.8863 0.7772 0.8588
C11_8 C 0.86472(11) 0.74964(11) 0.93613(12)
H10_8 H 0.8923 0.7713 0.9555
C16_8 C 0.82679(10) 0.71424(10) 0.96813(10)
C21_8 C 0.78952(10) 0.68140(11) 0.93733(11)
H15_8 H 0.7641 0.6572 0.9566
C26_8 C 0.78857(11) 0.68333(10) 0.87673(9)
H20_8 H 0.7641 0.6593 0.8561
O10 O -0.0000 0.16633(14) 0.10561(12)
H25 H -0.0000 0.2065(19) 0.1147(18)
H26 H 0.038(3) 0.154(3) 0.121(3)
O10_2 O 1.0000 0.16633(14) 0.10561(12)
H25_2 H 1.0000 0.2065(19) 0.1147(18)
H27 H 0.962(3) 0.154(3) 0.121(3)
O10_3 O 0.0000 0.83367(14) 0.10561(12)
H25_3 H -0.0000 0.7935(19) 0.1147(18)
H27_2 H 0.038(3) 0.846(3) 0.121(3)
O10_4 O 1.0000 0.83367(14) 0.10561(12)
H25_4 H 1.0000 0.7935(19) 0.1147(18)
H26_2 H 0.962(3) 0.846(3) 0.121(3)
O10_5 O -0.0000 0.16633(14) 0.89439(12)
H25_5 H 0.0000 0.2065(19) 0.8853(18)
H27_3 H 0.038(3) 0.154(3) 0.879(3)
O10_6 O 1.0000 0.16633(14) 0.89439(12)
H25_6 H 1.0000 0.2065(19) 0.8853(18)
H26_3 H 0.962(3) 0.154(3) 0.879(3)
O10_7 O -0.0000 0.83367(14) 0.89439(12)
H25_7 H -0.0000 0.7935(19) 0.8853(18)
H26_4 H 0.038(3) 0.846(3) 0.879(3)
O10_8 O 1.0000 0.83367(14) 0.89439(12)
H25_8 H 1.0000 0.7935(19) 0.8853(18)
H27_4 H 0.962(3) 0.846(3) 0.879(3)
O10_9 O 0.10561(12) -0.0000 0.16633(14)
H25_9 H 0.1147(18) -0.0000 0.2065(19)
H26_5 H 0.121(3) 0.038(3) 0.154(3)
O10_10 O 0.10561(12) 1.0000 0.16633(14)
H25_10 H 0.1147(18) 1.0000 0.2065(19)
H27_5 H 0.121(3) 0.962(3) 0.154(3)
O10_11 O 0.10561(12) -0.0000 0.83367(14)
H25_11 H 0.1147(18) 0.0000 0.7935(19)
H27_6 H 0.121(3) 0.038(3) 0.846(3)
O10_12 O 0.10561(12) 1.0000 0.83367(14)
H25_12 H 0.1147(18) 1.0000 0.7935(19)
H26_6 H 0.121(3) 0.962(3) 0.846(3)
O10_13 O 0.89439(12) -0.0000 0.16633(14)
H25_13 H 0.8853(18) 0.0000 0.2065(19)
H27_7 H 0.879(3) 0.038(3) 0.154(3)
O10_14 O 0.89439(12) 1.0000 0.16633(14)
H25_14 H 0.8853(18) 1.0000 0.2065(19)
H26_7 H 0.879(3) 0.962(3) 0.154(3)
O10_15 O 0.89439(12) -0.0000 0.83367(14)
H25_15 H 0.8853(18) -0.0000 0.7935(19)
H26_8 H 0.879(3) 0.038(3) 0.846(3)
O10_16 O 0.89439(12) 1.0000 0.83367(14)
H25_16 H 0.8853(18) 1.0000 0.7935(19)
H27_8 H 0.879(3) 0.962(3) 0.846(3)
O10_17 O 0.16633(14) 0.10561(12) -0.0000
H25_17 H 0.2065(19) 0.1147(18) -0.0000
H26_9 H 0.154(3) 0.121(3) 0.038(3)
O10_18 O 0.16633(14) 0.10561(12) 1.0000
H25_18 H 0.2065(19) 0.1147(18) 1.0000
H27_9 H 0.154(3) 0.121(3) 0.962(3)
O10_19 O 0.83367(14) 0.10561(12) 0.0000
H25_19 H 0.7935(19) 0.1147(18) 0.0000
H27_10 H 0.846(3) 0.121(3) 0.038(3)
O10_20 O 0.83367(14) 0.10561(12) 1.0000
H25_20 H 0.7935(19) 0.1147(18) 1.0000
H26_10 H 0.846(3) 0.121(3) 0.962(3)
O10_21 O 0.16633(14) 0.89439(12) 0.0000
H25_21 H 0.2065(19) 0.8853(18) 0.0000
H27_11 H 0.154(3) 0.879(3) 0.038(3)
O10_22 O 0.16633(14) 0.89439(12) 1.0000
H25_22 H 0.2065(19) 0.8853(18) 1.0000
H26_11 H 0.154(3) 0.879(3) 0.962(3)
O10_23 O 0.83367(14) 0.89439(12) -0.0000
H25_23 H 0.7935(19) 0.8853(18) -0.0000
H26_12 H 0.846(3) 0.879(3) 0.038(3)
O10_24 O 0.83367(14) 0.89439(12) 1.0000
H25_24 H 0.7935(19) 0.8853(18) 1.0000
H27_12 H 0.846(3) 0.879(3) 0.962(3)
O10_25 O 0.5000 0.66633(14) 0.60561(12)
O10_26 O 0.5000 0.33367(14) 0.60561(12)
O10_27 O 0.5000 0.66633(14) 0.39439(12)
O10_28 O 0.5000 0.33367(14) 0.39439(12)
O10_29 O 0.60561(12) 0.5000 0.66633(14)
O10_30 O 0.60561(12) 0.5000 0.33367(14)
O10_31 O 0.39439(12) 0.5000 0.66633(14)
O10_32 O 0.39439(12) 0.5000 0.33367(14)
O10_33 O 0.66633(14) 0.60561(12) 0.5000
O10_34 O 0.33367(14) 0.60561(12) 0.5000
O10_35 O 0.66633(14) 0.39439(12) 0.5000
O10_36 O 0.33367(14) 0.39439(12) 0.5000
loop_
_geom_bond_atom_site_label_1
_geom_bond_atom_site_label_2
_geom_bond_site_symmetry_1
_geom_bond_site_symmetry_2
Co1 O1 1_555 1_555
O1 N1 1_555 1_555
N1 C1 1_555 1_555
C1 H1 1_555 1_555
C2 C1 1_555 1_555
H2 C2 1_555 1_555
C3 C2 1_555 1_555
C4 C3 1_555 1_555
H3 C4 1_555 1_555
C5 N1 1_555 1_555
H4 C5 1_555 1_555
Co2 O2 1_555 1_555
Co3 O4 1_555 1_555
Co4 O6 1_555 1_555
O2 N2 1_555 1_555
O3 Co1 1_555 1_555
O4 N4 1_555 1_555
O5 Co1 1_555 1_555
O6 N6 1_555 1_555
O7 Co1 1_555 1_555
O8 Co1 1_555 1_555
O9 Co1 1_555 1_555
N2 C6 1_555 1_555
N3 O3 1_555 1_555
N4 C8 1_555 1_555
N5 O5 1_555 1_555
N6 C10 1_555 1_555
C6 H5 1_555 1_555
C7 N3 1_555 1_555
C8 H7 1_555 1_555
C9 N5 1_555 1_555
C10 H9 1_555 1_555
H6 C7 1_555 1_555
H8 C9 1_555 1_555
C11 C6 1_555 1_555
C12 C7 1_555 1_555
C13 C8 1_555 1_555
C14 C9 1_555 1_555
C15 C10 1_555 1_555
H10 C11 1_555 1_555
H11 C12 1_555 1_555
H12 C13 1_555 1_555
H13 C14 1_555 1_555
H14 C15 1_555 1_555
C16 C3 1_555 1_555
C17 C12 1_555 1_555
C18 C13 1_555 1_555
C19 C14 1_555 1_555
C20 C15 1_555 1_555
C21 C16 1_555 1_555
C22 C17 1_555 1_555
C23 C18 1_555 1_555
C24 C19 1_555 1_555
C25 C20 1_555 1_555
H15 C21 1_555 1_555
H16 C22 1_555 1_555
H17 C23 1_555 1_555
H18 C24 1_555 1_555
H19 C25 1_555 1_555
C26 N2 1_555 1_555
C27 N3 1_555 1_555
C28 N4 1_555 1_555
C29 N5 1_555 1_555
C30 N6 1_555 1_555
H20 C26 1_555 1_555
H21 C27 1_555 1_555
H22 C28 1_555 1_555
H23 C29 1_555 1_555
H24 C30 1_555 1_555
C4 C5 1_555 1_555
C11 C16 1_555 1_555
C17 C18 1_555 1_555
C19 C20 1_555 1_555
C21 C26 1_555 1_555
C22 C27 1_555 1_555
C23 C28 1_555 1_555
C24 C29 1_555 1_555
C25 C30 1_555 1_555
Co1_2 O1_2 1_555 1_555
O1_2 N1_2 1_555 1_555
N1_2 C1_2 1_555 1_555
C1_2 H1_2 1_555 1_555
C2_2 C1_2 1_555 1_555
H2_2 C2_2 1_555 1_555
C3_2 C2_2 1_555 1_555
C4_2 C3_2 1_555 1_555
H3_2 C4_2 1_555 1_555
C5_2 N1_2 1_555 1_555
H4_2 C5_2 1_555 1_555
Co2_2 O2_2 1_555 1_555
Co4 O4_2 1_555 1_555
Co3 O6_2 1_555 1_555
O2_2 N2_2 1_555 1_555
O3_2 Co1_2 1_555 1_555
O4_2 N4_2 1_555 1_555
O5_2 Co1_2 1_555 1_555
O6_2 N6_2 1_555 1_555
O7_2 Co1_2 1_555 1_555
O8_2 Co1_2 1_555 1_555
O9_2 Co1_2 1_555 1_555
N2_2 C6_2 1_555 1_555
N3_2 O3_2 1_555 1_555
N4_2 C8_2 1_555 1_555
N5_2 O5_2 1_555 1_555
N6_2 C10_2 1_555 1_555
C6_2 H5_2 1_555 1_555
C7_2 N3_2 1_555 1_555
C8_2 H7_2 1_555 1_555
C9_2 N5_2 1_555 1_555
C10_2 H9_2 1_555 1_555
H6_2 C7_2 1_555 1_555
H8_2 C9_2 1_555 1_555
C11_2 C6_2 1_555 1_555
C12_2 C7_2 1_555 1_555
C13_2 C8_2 1_555 1_555
C14_2 C9_2 1_555 1_555
C15_2 C10_2 1_555 1_555
H10_2 C11_2 1_555 1_555
H11_2 C12_2 1_555 1_555
H12_2 C13_2 1_555 1_555
H13_2 C14_2 1_555 1_555
H14_2 C15_2 1_555 1_555
C16_2 C3_2 1_555 1_555
C17_2 C12_2 1_555 1_555
C18_2 C13_2 1_555 1_555
C19_2 C14_2 1_555 1_555
C20_2 C15_2 1_555 1_555
C21_2 C16_2 1_555 1_555
C22_2 C17_2 1_555 1_555
C23_2 C18_2 1_555 1_555
C24_2 C19_2 1_555 1_555
C25_2 C20_2 1_555 1_555
H15_2 C21_2 1_555 1_555
H16_2 C22_2 1_555 1_555
H17_2 C23_2 1_555 1_555
H18_2 C24_2 1_555 1_555
H19_2 C25_2 1_555 1_555
C26_2 N2_2 1_555 1_555
C27_2 N3_2 1_555 1_555
C28_2 N4_2 1_555 1_555
C29_2 N5_2 1_555 1_555
C30_2 N6_2 1_555 1_555
H20_2 C26_2 1_555 1_555
H21_2 C27_2 1_555 1_555
H22_2 C28_2 1_555 1_555
H23_2 C29_2 1_555 1_555
H24_2 C30_2 1_555 1_555
C4_2 C5_2 1_555 1_555
C11_2 C16_2 1_555 1_555
C17_2 C18_2 1_555 1_555
C19_2 C20_2 1_555 1_555
C21_2 C26_2 1_555 1_555
C22_2 C27_2 1_555 1_555
C23_2 C28_2 1_555 1_555
C24_2 C29_2 1_555 1_555
C25_2 C30_2 1_555 1_555
Co1_3 O1_3 1_555 1_555
O1_3 N1_3 1_555 1_555
N1_3 C1_3 1_555 1_555
C1_3 H1_3 1_555 1_555
C2_3 C1_3 1_555 1_555
H2_3 C2_3 1_555 1_555
C3_3 C2_3 1_555 1_555
C4_3 C3_3 1_555 1_555
H3_3 C4_3 1_555 1_555
C5_3 N1_3 1_555 1_555
H4_3 C5_3 1_555 1_555
Co3 O2_3 1_555 1_555
Co2 O4_3 1_555 1_555
Co2_2 O6_3 1_555 1_555
O2_3 N2_3 1_555 1_555
O3_3 Co1_3 1_555 1_555
O4_3 N4_3 1_555 1_555
O5_3 Co1_3 1_555 1_555
O6_3 N6_3 1_555 1_555
O7_3 Co1_3 1_555 1_555
O8_3 Co1_3 1_555 1_555
O9_3 Co1_3 1_555 1_555
N2_3 C6_3 1_555 1_555
N3_3 O3_3 1_555 1_555
N4_3 C8_3 1_555 1_555
N5_3 O5_3 1_555 1_555
N6_3 C10_3 1_555 1_555
C6_3 H5_3 1_555 1_555
C7_3 N3_3 1_555 1_555
C8_3 H7_3 1_555 1_555
C9_3 N5_3 1_555 1_555
C10_3 H9_3 1_555 1_555
H6_3 C7_3 1_555 1_555
H8_3 C9_3 1_555 1_555
C11_3 C6_3 1_555 1_555
C12_3 C7_3 1_555 1_555
C13_3 C8_3 1_555 1_555
C14_3 C9_3 1_555 1_555
C15_3 C10_3 1_555 1_555
H10_3 C11_3 1_555 1_555
H11_3 C12_3 1_555 1_555
H12_3 C13_3 1_555 1_555
H13_3 C14_3 1_555 1_555
H14_3 C15_3 1_555 1_555
C16_3 C3_3 1_555 1_555
C17_3 C12_3 1_555 1_555
C18_3 C13_3 1_555 1_555
C19_3 C14_3 1_555 1_555
C20_3 C15_3 1_555 1_555
C21_3 C16_3 1_555 1_555
C22_3 C17_3 1_555 1_555
C23_3 C18_3 1_555 1_555
C24_3 C19_3 1_555 1_555
C25_3 C20_3 1_555 1_555
H15_3 C21_3 1_555 1_555
H16_3 C22_3 1_555 1_555
H17_3 C23_3 1_555 1_555
H18_3 C24_3 1_555 1_555
H19_3 C25_3 1_555 1_555
C26_3 N2_3 1_555 1_555
C27_3 N3_3 1_555 1_555
C28_3 N4_3 1_555 1_555
C29_3 N5_3 1_555 1_555
C30_3 N6_3 1_555 1_555
H20_3 C26_3 1_555 1_555
H21_3 C27_3 1_555 1_555
H22_3 C28_3 1_555 1_555
H23_3 C29_3 1_555 1_555
H24_3 C30_3 1_555 1_555
C4_3 C5_3 1_555 1_555
C11_3 C16_3 1_555 1_555
C17_3 C18_3 1_555 1_555
C19_3 C20_3 1_555 1_555
C21_3 C26_3 1_555 1_555
C22_3 C27_3 1_555 1_555
C23_3 C28_3 1_555 1_555
C24_3 C29_3 1_555 1_555
C25_3 C30_3 1_555 1_555
Co1_4 O1_4 1_555 1_555
O1_4 N1_4 1_555 1_555
N1_4 C1_4 1_555 1_555
C1_4 H1_4 1_555 1_555
C2_4 C1_4 1_555 1_555
H2_4 C2_4 1_555 1_555
C3_4 C2_4 1_555 1_555
C4_4 C3_4 1_555 1_555
H3_4 C4_4 1_555 1_555
C5_4 N1_4 1_555 1_555
H4_4 C5_4 1_555 1_555
Co4 O2_4 1_555 1_555
Co2_2 O4_4 1_555 1_555
Co2 O6_4 1_555 1_555
O2_4 N2_4 1_555 1_555
O3_4 Co1_4 1_555 1_555
O4_4 N4_4 1_555 1_555
O5_4 Co1_4 1_555 1_555
O6_4 N6_4 1_555 1_555
O7_4 Co1_4 1_555 1_555
O8_4 Co1_4 1_555 1_555
O9_4 Co1_4 1_555 1_555
N2_4 C6_4 1_555 1_555
N3_4 O3_4 1_555 1_555
N4_4 C8_4 1_555 1_555
N5_4 O5_4 1_555 1_555
N6_4 C10_4 1_555 1_555
C6_4 H5_4 1_555 1_555
C7_4 N3_4 1_555 1_555
C8_4 H7_4 1_555 1_555
C9_4 N5_4 1_555 1_555
C10_4 H9_4 1_555 1_555
H6_4 C7_4 1_555 1_555
H8_4 C9_4 1_555 1_555
C11_4 C6_4 1_555 1_555
C12_4 C7_4 1_555 1_555
C13_4 C8_4 1_555 1_555
C14_4 C9_4 1_555 1_555
C15_4 C10_4 1_555 1_555
H10_4 C11_4 1_555 1_555
H11_4 C12_4 1_555 1_555
H12_4 C13_4 1_555 1_555
H13_4 C14_4 1_555 1_555
H14_4 C15_4 1_555 1_555
C16_4 C3_4 1_555 1_555
C17_4 C12_4 1_555 1_555
C18_4 C13_4 1_555 1_555
C19_4 C14_4 1_555 1_555
C20_4 C15_4 1_555 1_555
C21_4 C16_4 1_555 1_555
C22_4 C17_4 1_555 1_555
C23_4 C18_4 1_555 1_555
C24_4 C19_4 1_555 1_555
C25_4 C20_4 1_555 1_555
H15_4 C21_4 1_555 1_555
H16_4 C22_4 1_555 1_555
H17_4 C23_4 1_555 1_555
H18_4 C24_4 1_555 1_555
H19_4 C25_4 1_555 1_555
C26_4 N2_4 1_555 1_555
C27_4 N3_4 1_555 1_555
C28_4 N4_4 1_555 1_555
C29_4 N5_4 1_555 1_555
C30_4 N6_4 1_555 1_555
H20_4 C26_4 1_555 1_555
H21_4 C27_4 1_555 1_555
H22_4 C28_4 1_555 1_555
H23_4 C29_4 1_555 1_555
H24_4 C30_4 1_555 1_555
C4_4 C5_4 1_555 1_555
C11_4 C16_4 1_555 1_555
C17_4 C18_4 1_555 1_555
C19_4 C20_4 1_555 1_555
C21_4 C26_4 1_555 1_555
C22_4 C27_4 1_555 1_555
C23_4 C28_4 1_555 1_555
C24_4 C29_4 1_555 1_555
C25_4 C30_4 1_555 1_555
O8_4 N4_5 1_555 1_555
N4_5 C8_5 1_555 1_555
C8_5 H7_5 1_555 1_555
C13_5 C8_5 1_555 1_555
H12_5 C13_5 1_555 1_555
C18_5 C13_5 1_555 1_555
C23_5 C18_5 1_555 1_555
H17_5 C23_5 1_555 1_555
C28_5 N4_5 1_555 1_555
H22_5 C28_5 1_555 1_555
C23_5 C28_5 1_555 1_555
O7_2 N2_5 1_555 1_555
N2_5 C6_5 1_555 1_555
C6_5 H5_5 1_555 1_555
C11_5 C6_5 1_555 1_555
H10_5 C11_5 1_555 1_555
C21_5 C16_5 1_555 1_555
H15_5 C21_5 1_555 1_555
C26_5 N2_5 1_555 1_555
H20_5 C26_5 1_555 1_555
C11_5 C16_5 1_555 1_555
C21_5 C26_5 1_555 1_555
Co2_2 O1_5 1_555 1_555
O1_5 N1_5 1_555 1_555
N1_5 C1_5 1_555 1_555
C1_5 H1_5 1_555 1_555
C2_5 C1_5 1_555 1_555
H2_5 C2_5 1_555 1_555
C3_5 C2_5 1_555 1_555
C4_5 C3_5 1_555 1_555
H3_5 C4_5 1_555 1_555
C5_5 N1_5 1_555 1_555
H4_5 C5_5 1_555 1_555
O3_5 Co2_2 1_555 1_555
O5_5 Co2_2 1_555 1_555
N3_5 O3_5 1_555 1_555
N5_5 O5_5 1_555 1_555
C7_5 N3_5 1_555 1_555
C9_5 N5_5 1_555 1_555
H6_5 C7_5 1_555 1_555
H8_5 C9_5 1_555 1_555
C12_5 C7_5 1_555 1_555
C14_5 C9_5 1_555 1_555
H11_5 C12_5 1_555 1_555
H13_5 C14_5 1_555 1_555
C17_5 C12_5 1_555 1_555
C19_5 C14_5 1_555 1_555
C22_5 C17_5 1_555 1_555
C24_5 C19_5 1_555 1_555
H16_5 C22_5 1_555 1_555
H18_5 C24_5 1_555 1_555
C27_5 N3_5 1_555 1_555
C29_5 N5_5 1_555 1_555
H21_5 C27_5 1_555 1_555
H23_5 C29_5 1_555 1_555
C4_5 C5_5 1_555 1_555
C22_5 C27_5 1_555 1_555
C24_5 C29_5 1_555 1_555
O9_3 N6_5 1_555 1_555
N6_5 C10_5 1_555 1_555
C10_5 H9_5 1_555 1_555
C15_5 C10_5 1_555 1_555
H14_5 C15_5 1_555 1_555
C20_5 C15_5 1_555 1_555
C25_5 C20_5 1_555 1_555
H19_5 C25_5 1_555 1_555
C30_5 N6_5 1_555 1_555
H24_5 C30_5 1_555 1_555
C25_5 C30_5 1_555 1_555
O9_4 N6_6 1_555 1_555
N6_6 C10_6 1_555 1_555
C10_6 H9_6 1_555 1_555
C15_6 C10_6 1_555 1_555
H14_6 C15_6 1_555 1_555
C20_6 C15_6 1_555 1_555
C25_6 C20_6 1_555 1_555
H19_6 C25_6 1_555 1_555
C30_6 N6_6 1_555 1_555
H24_6 C30_6 1_555 1_555
C25_6 C30_6 1_555 1_555
O7 N2_6 1_555 1_555
N2_6 C6_6 1_555 1_555
C6_6 H5_6 1_555 1_555
C11_6 C6_6 1_555 1_555
H10_6 C11_6 1_555 1_555
C21_6 C16_6 1_555 1_555
H15_6 C21_6 1_555 1_555
C26_6 N2_6 1_555 1_555
H20_6 C26_6 1_555 1_555
C11_6 C16_6 1_555 1_555
C21_6 C26_6 1_555 1_555
Co2 O1_6 1_555 1_555
O1_6 N1_6 1_555 1_555
N1_6 C1_6 1_555 1_555
C1_6 H1_6 1_555 1_555
C2_6 C1_6 1_555 1_555
H2_6 C2_6 1_555 1_555
C3_6 C2_6 1_555 1_555
C4_6 C3_6 1_555 1_555
H3_6 C4_6 1_555 1_555
C5_6 N1_6 1_555 1_555
H4_6 C5_6 1_555 1_555
O3_6 Co2 1_555 1_555
O5_6 Co2 1_555 1_555
N3_6 O3_6 1_555 1_555
N5_6 O5_6 1_555 1_555
C7_6 N3_6 1_555 1_555
C9_6 N5_6 1_555 1_555
H6_6 C7_6 1_555 1_555
H8_6 C9_6 1_555 1_555
C12_6 C7_6 1_555 1_555
C14_6 C9_6 1_555 1_555
H11_6 C12_6 1_555 1_555
H13_6 C14_6 1_555 1_555
C17_6 C12_6 1_555 1_555
C19_6 C14_6 1_555 1_555
C22_6 C17_6 1_555 1_555
C24_6 C19_6 1_555 1_555
H16_6 C22_6 1_555 1_555
H18_6 C24_6 1_555 1_555
C27_6 N3_6 1_555 1_555
C29_6 N5_6 1_555 1_555
H21_6 C27_6 1_555 1_555
H23_6 C29_6 1_555 1_555
C4_6 C5_6 1_555 1_555
C22_6 C27_6 1_555 1_555
C24_6 C29_6 1_555 1_555
O8_3 N4_6 1_555 1_555
N4_6 C8_6 1_555 1_555
C8_6 H7_6 1_555 1_555
C13_6 C8_6 1_555 1_555
H12_6 C13_6 1_555 1_555
C18_6 C13_6 1_555 1_555
C23_6 C18_6 1_555 1_555
H17_6 C23_6 1_555 1_555
C28_6 N4_6 1_555 1_555
H22_6 C28_6 1_555 1_555
C23_6 C28_6 1_555 1_555
Co4 O1_7 1_555 1_555
O1_7 N1_7 1_555 1_555
N1_7 C1_7 1_555 1_555
C1_7 H1_7 1_555 1_555
C2_7 C1_7 1_555 1_555
H2_7 C2_7 1_555 1_555
C3_7 C2_7 1_555 1_555
C4_7 C3_7 1_555 1_555
H3_7 C4_7 1_555 1_555
C5_7 N1_7 1_555 1_555
H4_7 C5_7 1_555 1_555
O3_7 Co4 1_555 1_555
O5_7 Co4 1_555 1_555
N3_7 O3_7 1_555 1_555
N5_7 O5_7 1_555 1_555
C7_7 N3_7 1_555 1_555
C9_7 N5_7 1_555 1_555
H6_7 C7_7 1_555 1_555
H8_7 C9_7 1_555 1_555
C12_7 C7_7 1_555 1_555
C14_7 C9_7 1_555 1_555
H11_7 C12_7 1_555 1_555
H13_7 C14_7 1_555 1_555
C17_7 C12_7 1_555 1_555
C19_7 C14_7 1_555 1_555
C22_7 C17_7 1_555 1_555
C24_7 C19_7 1_555 1_555
H16_7 C22_7 1_555 1_555
H18_7 C24_7 1_555 1_555
C27_7 N3_7 1_555 1_555
C29_7 N5_7 1_555 1_555
H21_7 C27_7 1_555 1_555
H23_7 C29_7 1_555 1_555
C4_7 C5_7 1_555 1_555
C22_7 C27_7 1_555 1_555
C24_7 C29_7 1_555 1_555
O7_4 N2_7 1_555 1_555
N2_7 C6_7 1_555 1_555
C6_7 H5_7 1_555 1_555
C11_7 C6_7 1_555 1_555
H10_7 C11_7 1_555 1_555
C21_7 C16_7 1_555 1_555
H15_7 C21_7 1_555 1_555
C26_7 N2_7 1_555 1_555
H20_7 C26_7 1_555 1_555
C11_7 C16_7 1_555 1_555
C21_7 C26_7 1_555 1_555
O9 N6_7 1_555 1_555
N6_7 C10_7 1_555 1_555
C10_7 H9_7 1_555 1_555
C15_7 C10_7 1_555 1_555
H14_7 C15_7 1_555 1_555
C20_7 C15_7 1_555 1_555
C25_7 C20_7 1_555 1_555
H19_7 C25_7 1_555 1_555
C30_7 N6_7 1_555 1_555
H24_7 C30_7 1_555 1_555
C25_7 C30_7 1_555 1_555
O8_2 N4_7 1_555 1_555
N4_7 C8_7 1_555 1_555
C8_7 H7_7 1_555 1_555
C13_7 C8_7 1_555 1_555
H12_7 C13_7 1_555 1_555
C18_7 C13_7 1_555 1_555
C23_7 C18_7 1_555 1_555
H17_7 C23_7 1_555 1_555
C28_7 N4_7 1_555 1_555
H22_7 C28_7 1_555 1_555
C23_7 C28_7 1_555 1_555
O8 N4_8 1_555 1_555
N4_8 C8_8 1_555 1_555
C8_8 H7_8 1_555 1_555
C13_8 C8_8 1_555 1_555
H12_8 C13_8 1_555 1_555
C18_8 C13_8 1_555 1_555
C23_8 C18_8 1_555 1_555
H17_8 C23_8 1_555 1_555
C28_8 N4_8 1_555 1_555
H22_8 C28_8 1_555 1_555
C23_8 C28_8 1_555 1_555
O9_2 N6_8 1_555 1_555
N6_8 C10_8 1_555 1_555
C10_8 H9_8 1_555 1_555
C15_8 C10_8 1_555 1_555
H14_8 C15_8 1_555 1_555
C20_8 C15_8 1_555 1_555
C25_8 C20_8 1_555 1_555
H19_8 C25_8 1_555 1_555
C30_8 N6_8 1_555 1_555
H24_8 C30_8 1_555 1_555
C25_8 C30_8 1_555 1_555
Co3 O1_8 1_555 1_555
O1_8 N1_8 1_555 1_555
N1_8 C1_8 1_555 1_555
C1_8 H1_8 1_555 1_555
C2_8 C1_8 1_555 1_555
H2_8 C2_8 1_555 1_555
C3_8 C2_8 1_555 1_555
C4_8 C3_8 1_555 1_555
H3_8 C4_8 1_555 1_555
C5_8 N1_8 1_555 1_555
H4_8 C5_8 1_555 1_555
O3_8 Co3 1_555 1_555
O5_8 Co3 1_555 1_555
N3_8 O3_8 1_555 1_555
N5_8 O5_8 1_555 1_555
C7_8 N3_8 1_555 1_555
C9_8 N5_8 1_555 1_555
H6_8 C7_8 1_555 1_555
H8_8 C9_8 1_555 1_555
C12_8 C7_8 1_555 1_555
C14_8 C9_8 1_555 1_555
H11_8 C12_8 1_555 1_555
H13_8 C14_8 1_555 1_555
C17_8 C12_8 1_555 1_555
C19_8 C14_8 1_555 1_555
C22_8 C17_8 1_555 1_555
C24_8 C19_8 1_555 1_555
H16_8 C22_8 1_555 1_555
H18_8 C24_8 1_555 1_555
C27_8 N3_8 1_555 1_555
C29_8 N5_8 1_555 1_555
H21_8 C27_8 1_555 1_555
H23_8 C29_8 1_555 1_555
C4_8 C5_8 1_555 1_555
C22_8 C27_8 1_555 1_555
C24_8 C29_8 1_555 1_555
O7_3 N2_8 1_555 1_555
N2_8 C6_8 1_555 1_555
C6_8 H5_8 1_555 1_555
C11_8 C6_8 1_555 1_555
H10_8 C11_8 1_555 1_555
C21_8 C16_8 1_555 1_555
H15_8 C21_8 1_555 1_555
C26_8 N2_8 1_555 1_555
H20_8 C26_8 1_555 1_555
C11_8 C16_8 1_555 1_555
C21_8 C26_8 1_555 1_555
O10 H25 1_555 1_555
H26 O10 1_555 1_555
O10_2 H25_2 1_555 1_555
H27 O10_2 1_555 1_555
O10_3 H25_3 1_555 1_555
H27_2 O10_3 1_555 1_555
O10_4 H25_4 1_555 1_555
H26_2 O10_4 1_555 1_555
O10_5 H25_5 1_555 1_555
H27_3 O10_5 1_555 1_555
O10_6 H25_6 1_555 1_555
H26_3 O10_6 1_555 1_555
O10_7 H25_7 1_555 1_555
H26_4 O10_7 1_555 1_555
O10_8 H25_8 1_555 1_555
H27_4 O10_8 1_555 1_555
O10_9 H25_9 1_555 1_555
H26_5 O10_9 1_555 1_555
O10_10 H25_10 1_555 1_555
H27_5 O10_10 1_555 1_555
O10_11 H25_11 1_555 1_555
H27_6 O10_11 1_555 1_555
O10_12 H25_12 1_555 1_555
H26_6 O10_12 1_555 1_555
O10_13 H25_13 1_555 1_555
H27_7 O10_13 1_555 1_555
O10_14 H25_14 1_555 1_555
H26_7 O10_14 1_555 1_555
O10_15 H25_15 1_555 1_555
H26_8 O10_15 1_555 1_555
O10_16 H25_16 1_555 1_555
H27_8 O10_16 1_555 1_555
O10_17 H25_17 1_555 1_555
H26_9 O10_17 1_555 1_555
O10_18 H25_18 1_555 1_555
H27_9 O10_18 1_555 1_555
O10_19 H25_19 1_555 1_555
H27_10 O10_19 1_555 1_555
O10_20 H25_20 1_555 1_555
H26_10 O10_20 1_555 1_555
O10_21 H25_21 1_555 1_555
H27_11 O10_21 1_555 1_555
O10_22 H25_22 1_555 1_555
H26_11 O10_22 1_555 1_555
O10_23 H25_23 1_555 1_555
H26_12 O10_23 1_555 1_555
O10_24 H25_24 1_555 1_555
H27_12 O10_24 1_555 1_555

#END
