
###############################################################################
#
# This file contains modified crystal structure data generated from the
# MOF subset of the Cambridge Structural Database (CSD) v543 
# hosted by the Cambridge Crystallographic Data Centre (CCDC).
#
# This work is licensed under the Creative Commons
# Attribution-NonCommercial-ShareAlike 4.0 International License.
# To view a copy of this license, visit
# http://creativecommons.org/licenses/by-nc-sa/4.0/
# or send a letter to
# Creative Commons, PO Box 1866, Mountain View, CA 94042, USA.
#
# CIF created using the CSD Python API on 29 September 2022
# The structure has been converted into the P1 space group
# The structure has a 3D framework
# The original CSD entry LUYHAP is in the rhombohedral crystal system
# The framework has been calculated to contain at least 10.0% void space
# The void calculation uses a probe of radius 1.32A, grid spacing 0.4
#
###############################################################################

data_LUYHAP
_chemical_formula_moiety         '(C180 H90 Cu18 O84)n'
_symmetry_cell_setting           triclinic
_symmetry_space_group_name_H-M   'P 1'
_symmetry_Int_Tables_number      1
_space_group_name_Hall           'P 1'
loop_
_symmetry_equiv_pos_site_id
_symmetry_equiv_pos_as_xyz
1 x,y,z
_cell_length_a                   18.2386(8)
_cell_length_b                   18.2386(8)
_cell_length_c                   42.049(2)
_cell_angle_alpha                90
_cell_angle_beta                 90
_cell_angle_gamma                120
_cell_volume                     12113.5
loop_
_atom_site_label
_atom_site_type_symbol
_atom_site_fract_x
_atom_site_fract_y
_atom_site_fract_z
O9 O 0.58659(19) 0.02417(18) 0.04296(7)
O10 O 0.43758(26) 0.02417(18) 0.04296(7)
Cu4 Cu 0.525974(17) 0.05195(3) 0.974665(14)
Cu7 Cu 0.38528(3) 0.192641(17) 0.692002(14)
Cu8 Cu 0.28138(3) 0.140693(17) 0.641332(14)
O6 O 0.30916(18) 0.08008(19) 0.70963(7)
O13 O 0.22548(17) 0.03725(19) 0.66640(7)
C10 C 0.2450(3) 0.0280(3) 0.69406(11)
Cu1 Cu 0.05195(3) 0.525974(17) 0.025335(14)
O2 O 0.10785(17) 0.62942(19) 0.00027(7)
O3 O 0.1425(2) 0.57123(12) 0.06300(10)
H1 H 0.1963 0.5981 0.0632
H2 H 0.1216 0.5608 0.0816
Cu2 Cu 0.474026(17) 0.94805(3) 0.025335(14)
O11 O 0.37058(19) 0.89215(17) 0.00027(7)
O14 O 0.10785(17) 0.47843(25) 0.00027(7)
O15 O 0.52157(25) 0.89215(17) 0.00027(7)
O16 O 0.42877(12) 0.8575(2) 0.06300(10)
H5 H 0.4019 0.8037 0.0632
H6 H 0.4392 0.8784 0.0816
O1 O 0.02417(18) 0.58659(19) 0.95704(7)
C1 C 0.0883(3) 0.6387(3) 0.97261(11)
C2 C 0.2215(2) 0.7785(2) 0.97108(14)
H3 H 0.2318 0.7682 0.9923
C3 C 0.1488(3) 0.7202(3) 0.95614(10)
C4 C 0.1346(3) 0.7348(4) 0.92533(12)
H4 H 0.0842 0.6943 0.9149
C5 C 0.1923(3) 0.8077(3) 0.9088(2)
C6 C 0.1801(5) 0.8199(5) 0.8769(2)
C7 C 0.1724(6) 0.8276(6) 0.8487(3)
O4 O 0.41341(19) 0.97583(18) 0.95704(7)
C8 C 0.3613(3) 0.9117(3) 0.97261(11)
C11 C 0.1118(2) 0.8882(2) 0.69559(14)
H7 H 0.1015 0.8985 0.6744
C12 C 0.2798(3) 0.8512(3) 0.95614(10)
C13 C 0.0535(3) 0.8155(3) 0.71053(10)
C14 C 0.1845(3) 0.9465(3) 0.71053(10)
C15 C 0.2652(4) 0.8654(3) 0.92533(12)
C16 C 0.0681(4) 0.8013(3) 0.74134(12)
C17 C 0.1987(3) 0.9319(4) 0.74134(12)
H8 H 0.3057 0.9158 0.9149
H9 H 0.2491 0.9724 0.7518
H10 H 0.0276 0.7509 0.7518
C18 C 0.1410(3) 0.8590(3) 0.7579(2)
C19 C 0.1532(5) 0.8468(5) 0.7898(2)
C20 C 0.1609(6) 0.8391(6) 0.8180(3)
O7 O 0.97583(18) 0.41341(19) 0.04296(7)
O8 O 0.97583(18) 0.56242(26) 0.04296(7)
Cu3 Cu 0.94805(3) 0.474024(34) 0.974665(14)
Cu5 Cu 0.807359(17) 0.61472(3) 0.692002(14)
Cu6 Cu 0.859307(17) 0.71862(3) 0.641332(14)
O5 O 0.91992(19) 0.69084(18) 0.70963(7)
O12 O 0.96275(19) 0.77452(17) 0.66640(7)
C9 C 0.9720(3) 0.7550(3) 0.69406(11)
Cu1_2 Cu 0.474026(17) 0.525976(34) 0.025335(14)
O2_2 O 0.37058(19) 0.47843(25) 0.00027(7)
O3_2 O 0.42877(12) 0.57127(23) 0.06300(10)
H1_2 H 0.4019 0.5982 0.0632
H2_2 H 0.4392 0.5608 0.0816
O7_2 O 0.58659(19) 0.56242(26) 0.04296(7)
O8_2 O 0.43758(26) 0.41341(32) 0.04296(7)
O14_2 O 0.52157(25) 0.62942(30) 0.00027(7)
O1_2 O 0.41341(19) 0.43758(26) 0.95704(7)
C1_2 C 0.3613(3) 0.4496(4) 0.97261(11)
C2_2 C 0.2215(2) 0.4430(3) 0.97108(14)
H3_2 H 0.2318 0.4636 0.9923
C3_2 C 0.2798(3) 0.4286(4) 0.95614(10)
C4_2 C 0.2652(4) 0.3998(5) 0.92533(12)
H4_2 H 0.3057 0.3899 0.9149
C5_2 C 0.1923(3) 0.3846(4) 0.9088(2)
C6_2 C 0.1801(5) 0.3602(7) 0.8769(2)
C7_2 C 0.1724(6) 0.3448(8) 0.8487(3)
Cu3_2 Cu 0.525976(34) 0.474026(45) 0.974665(14)
O4_2 O 0.02417(18) 0.43758(26) 0.95704(7)
O5_2 O 0.30916(18) 0.22909(26) 0.70963(7)
O12_2 O 0.22548(17) 0.18824(25) 0.66640(7)
C8_2 C 0.0883(3) 0.4496(4) 0.97261(11)
C9_2 C 0.2450(3) 0.2171(4) 0.69406(11)
C11_2 C 0.1118(2) 0.2237(3) 0.69559(14)
H7_2 H 0.1015 0.2031 0.6744
C12_2 C 0.1488(3) 0.4286(4) 0.95614(10)
C13_2 C 0.1845(3) 0.2381(4) 0.71053(10)
C14_2 C 0.0535(3) 0.2381(4) 0.71053(10)
C15_2 C 0.1346(3) 0.3998(5) 0.92533(12)
C16_2 C 0.1987(3) 0.2669(5) 0.74134(12)
C17_2 C 0.0681(4) 0.2669(5) 0.74134(12)
H8_2 H 0.0842 0.3899 0.9149
H9_2 H 0.0276 0.2768 0.7518
H10_2 H 0.2491 0.2768 0.7518
C18_2 C 0.1410(3) 0.2821(4) 0.7579(2)
C19_2 C 0.1532(5) 0.3065(7) 0.7898(2)
C20_2 C 0.1609(6) 0.3219(8) 0.8180(3)
Cu7_2 Cu 0.807359(17) 0.192643(34) 0.692002(14)
Cu8_2 Cu 0.859307(17) 0.140691(34) 0.641332(14)
O6_2 O 0.91992(19) 0.22909(26) 0.70963(7)
O13_2 O 0.96275(19) 0.18824(25) 0.66640(7)
C10_2 C 0.9720(3) 0.2171(4) 0.69406(11)
O5_3 O 0.77091(26) 0.08008(19) 0.70963(7)
O12_3 O 0.81176(25) 0.03725(19) 0.66640(7)
C9_3 C 0.7829(4) 0.0280(3) 0.69406(11)
O1_3 O 0.56242(26) 0.97583(18) 0.95704(7)
C1_3 C 0.5504(4) 0.9117(3) 0.97261(11)
C2_3 C 0.5570(3) 0.7785(2) 0.97108(14)
H3_3 H 0.5364 0.7682 0.9923
C3_3 C 0.5714(4) 0.8512(3) 0.95614(10)
C4_3 C 0.6002(5) 0.8654(3) 0.92533(12)
H4_3 H 0.6101 0.9158 0.9149
C5_3 C 0.6154(4) 0.8077(3) 0.9088(2)
C6_3 C 0.6398(7) 0.8199(5) 0.8769(2)
C7_3 C 0.6552(8) 0.8276(6) 0.8487(3)
O4_3 O 0.56242(26) 0.58659(19) 0.95704(7)
O6_3 O 0.77091(26) 0.69084(18) 0.70963(7)
O13_3 O 0.81176(25) 0.77452(17) 0.66640(7)
C8_3 C 0.5504(4) 0.6387(3) 0.97261(11)
C10_3 C 0.7829(4) 0.7550(3) 0.69406(11)
C11_3 C 0.7763(3) 0.8882(2) 0.69559(14)
H7_3 H 0.7969 0.8985 0.6744
C12_3 C 0.5714(4) 0.7202(3) 0.95614(10)
C13_3 C 0.7619(4) 0.9465(3) 0.71053(10)
C14_3 C 0.7619(4) 0.8155(3) 0.71053(10)
C15_3 C 0.6002(5) 0.7348(4) 0.92533(12)
C16_3 C 0.7331(5) 0.9319(4) 0.74134(12)
C17_3 C 0.7331(5) 0.8013(3) 0.74134(12)
H8_3 H 0.6101 0.6943 0.9149
H9_3 H 0.7232 0.7509 0.7518
H10_3 H 0.7232 0.9724 0.7518
C18_3 C 0.7179(4) 0.8590(3) 0.7579(2)
C19_3 C 0.6935(7) 0.8468(5) 0.7898(2)
C20_3 C 0.6781(8) 0.8391(6) 0.8180(3)
C1_4 C 0.4496(4) 0.3613(3) 0.02739(11)
C2_4 C 0.4430(3) 0.2215(2) 0.02892(14)
H3_4 H 0.4636 0.2318 0.0077
C3_4 C 0.4286(4) 0.2798(3) 0.04386(10)
C4_4 C 0.3998(5) 0.2652(4) 0.07467(12)
H4_4 H 0.3899 0.3057 0.0851
C5_4 C 0.3846(4) 0.1923(3) 0.0912(2)
C6_4 C 0.3602(7) 0.1801(5) 0.1231(2)
C7_4 C 0.3448(8) 0.1724(6) 0.1513(3)
Cu5_2 Cu 0.192643(34) 0.38528(3) 0.307998(14)
Cu6_2 Cu 0.140691(34) 0.28138(3) 0.358668(14)
O5_4 O 0.22909(26) 0.30916(18) 0.29037(7)
O12_4 O 0.18824(25) 0.22548(17) 0.33360(7)
C8_4 C 0.4496(4) 0.0883(3) 0.02739(11)
C9_4 C 0.2171(4) 0.2450(3) 0.30594(11)
C11_4 C 0.2237(3) 0.1118(2) 0.30441(14)
H7_4 H 0.2031 0.1015 0.3256
C12_4 C 0.4286(4) 0.1488(3) 0.04386(10)
C13_4 C 0.2381(4) 0.1845(3) 0.28947(10)
C14_4 C 0.2381(4) 0.0535(3) 0.28947(10)
C15_4 C 0.3998(5) 0.1346(3) 0.07467(12)
C16_4 C 0.2669(5) 0.1987(3) 0.25866(12)
C17_4 C 0.2669(5) 0.0681(4) 0.25866(12)
H8_4 H 0.3899 0.0842 0.0851
H9_4 H 0.2768 0.0276 0.2482
H10_4 H 0.2768 0.2491 0.2482
C18_4 C 0.2821(4) 0.1410(3) 0.2421(2)
C19_4 C 0.3065(7) 0.1532(5) 0.2102(2)
C20_4 C 0.3219(8) 0.1609(6) 0.1820(3)
O2_3 O 0.47843(25) 0.37058(19) 0.99973(7)
O3_3 O 0.57127(23) 0.42877(12) 0.93700(10)
H1_3 H 0.5982 0.4019 0.9368
H2_3 H 0.5608 0.4392 0.9184
O11_2 O 0.47843(25) 0.10785(17) 0.99973(7)
O14_3 O 0.62942(30) 0.52157(25) 0.99973(7)
O15_2 O 0.62942(30) 0.10785(17) 0.99973(7)
O16_2 O 0.57127(23) 0.1425(2) 0.93700(10)
H5_2 H 0.5982 0.1963 0.9368
H6_2 H 0.5608 0.1216 0.9184
Cu7_3 Cu 0.192643(34) 0.807359(17) 0.307998(14)
Cu8_3 Cu 0.140691(34) 0.859307(17) 0.358668(14)
O6_4 O 0.22909(26) 0.91992(19) 0.29037(7)
O13_4 O 0.18824(25) 0.96275(19) 0.33360(7)
C10_4 C 0.2171(4) 0.9720(3) 0.30594(11)
O5_5 O 0.08008(19) 0.77091(26) 0.29037(7)
O12_5 O 0.03725(19) 0.81176(25) 0.33360(7)
C9_5 C 0.0280(3) 0.7829(4) 0.30594(11)
C1_5 C 0.9117(3) 0.5504(4) 0.02739(11)
C2_5 C 0.7785(2) 0.5570(3) 0.02892(14)
H3_5 H 0.7682 0.5364 0.0077
C3_5 C 0.8512(3) 0.5714(4) 0.04386(10)
C4_5 C 0.8654(3) 0.6002(5) 0.07467(12)
H4_5 H 0.9158 0.6101 0.0851
C5_5 C 0.8077(3) 0.6154(4) 0.0912(2)
C6_5 C 0.8199(5) 0.6398(7) 0.1231(2)
C7_5 C 0.8276(6) 0.6552(8) 0.1513(3)
Cu7_4 Cu 0.61472(3) 0.807357(34) 0.307998(14)
Cu8_4 Cu 0.71862(3) 0.859309(34) 0.358668(14)
O6_5 O 0.69084(18) 0.77091(26) 0.29037(7)
O13_5 O 0.77452(17) 0.81176(25) 0.33360(7)
C8_5 C 0.6387(3) 0.5504(4) 0.02739(11)
C10_5 C 0.7550(3) 0.7829(4) 0.30594(11)
C11_5 C 0.8882(2) 0.7763(3) 0.30441(14)
H7_5 H 0.8985 0.7969 0.3256
C12_5 C 0.7202(3) 0.5714(4) 0.04386(10)
C13_5 C 0.9465(3) 0.7619(4) 0.28947(10)
C14_5 C 0.8155(3) 0.7619(4) 0.28947(10)
C15_5 C 0.7348(4) 0.6002(5) 0.07467(12)
C16_5 C 0.9319(4) 0.7331(5) 0.25866(12)
C17_5 C 0.8013(3) 0.7331(5) 0.25866(12)
H8_5 H 0.6943 0.6101 0.0851
H9_5 H 0.7509 0.7232 0.2482
H10_5 H 0.9724 0.7232 0.2482
C18_5 C 0.8590(3) 0.7179(4) 0.2421(2)
C19_5 C 0.8468(5) 0.6935(7) 0.2102(2)
C20_5 C 0.8391(6) 0.6781(8) 0.1820(3)
O2_4 O 0.89215(17) 0.52157(25) 0.99973(7)
O3_4 O 0.8575(2) 0.42873(23) 0.93700(10)
H1_4 H 0.8037 0.4018 0.9368
H2_4 H 0.8784 0.4392 0.9184
O14_4 O 0.89215(17) 0.37058(30) 0.99973(7)
O6_6 O 0.08008(19) 0.30916(18) 0.29037(7)
O13_6 O 0.03725(19) 0.22548(17) 0.33360(7)
C10_6 C 0.0280(3) 0.2450(3) 0.30594(11)
C1_6 C 0.6387(3) 0.0883(3) 0.02739(11)
C2_6 C 0.7785(2) 0.2215(2) 0.02892(14)
H3_6 H 0.7682 0.2318 0.0077
C3_6 C 0.7202(3) 0.1488(3) 0.04386(10)
C4_6 C 0.7348(4) 0.1346(3) 0.07467(12)
H4_6 H 0.6943 0.0842 0.0851
C5_6 C 0.8077(3) 0.1923(3) 0.0912(2)
C6_6 C 0.8199(5) 0.1801(5) 0.1231(2)
C7_6 C 0.8276(6) 0.1724(6) 0.1513(3)
C8_6 C 0.9117(3) 0.3613(3) 0.02739(11)
C11_6 C 0.8882(2) 0.1118(2) 0.30441(14)
H7_6 H 0.8985 0.1015 0.3256
C12_6 C 0.8512(3) 0.2798(3) 0.04386(10)
C13_6 C 0.8155(3) 0.0535(3) 0.28947(10)
C14_6 C 0.9465(3) 0.1845(3) 0.28947(10)
C15_6 C 0.8654(3) 0.2652(4) 0.07467(12)
C16_6 C 0.8013(3) 0.0681(4) 0.25866(12)
C17_6 C 0.9319(4) 0.1987(3) 0.25866(12)
H8_6 H 0.9158 0.3057 0.0851
H9_6 H 0.9724 0.2491 0.2482
H10_6 H 0.7509 0.0276 0.2482
C18_6 C 0.8590(3) 0.1410(3) 0.2421(2)
C19_6 C 0.8468(5) 0.1532(5) 0.2102(2)
C20_6 C 0.8391(6) 0.1609(6) 0.1820(3)
O5_6 O 0.69084(18) 0.91992(19) 0.29037(7)
O12_6 O 0.77452(17) 0.96275(19) 0.33360(7)
C9_6 C 0.7550(3) 0.9720(3) 0.30594(11)
O9_2 O 0.25326(19) 0.35750(18) 0.37629(7)
O10_2 O 0.10425(26) 0.35750(18) 0.37629(7)
O16_3 O 0.09544(12) 0.1908(2) 0.39633(10)
H5_3 H 0.0686 0.1370 0.3965
H6_3 H 0.1059 0.2117 0.4149
O3_5 O 0.8092(2) 0.90456(12) 0.39633(10)
H1_5 H 0.8630 0.9314 0.3965
H2_5 H 0.7883 0.8941 0.4149
O7_3 O 0.64250(18) 0.74674(19) 0.37629(7)
O8_3 O 0.64250(18) 0.89575(26) 0.37629(7)
O3_6 O 0.09544(12) 0.90460(23) 0.39633(10)
H1_6 H 0.0686 0.9315 0.3965
H2_6 H 0.1059 0.8941 0.4149
O7_4 O 0.25326(19) 0.89575(26) 0.37629(7)
O8_4 O 0.10425(26) 0.74674(32) 0.37629(7)
O2_5 O 0.14510(25) 0.70391(19) 0.33306(7)
O3_7 O 0.23794(23) 0.76210(12) 0.27033(10)
H1_7 H 0.2649 0.7352 0.2701
H2_7 H 0.2275 0.7725 0.2517
C1_7 C 0.1163(4) 0.6946(3) 0.36072(11)
C2_7 C 0.1097(3) 0.5548(2) 0.36225(14)
H3_7 H 0.1303 0.5651 0.3410
C3_7 C 0.0953(4) 0.6131(3) 0.37719(10)
C4_7 C 0.0665(5) 0.5985(4) 0.40800(12)
H4_7 H 0.0566 0.6390 0.4184
C5_7 C 0.0513(4) 0.5256(3) 0.4245(2)
C6_7 C 0.0269(7) 0.5134(5) 0.4564(2)
C7_7 C 0.0115(8) 0.5057(6) 0.4846(3)
O11_3 O 0.14510(25) 0.44118(17) 0.33306(7)
O14_5 O 0.29609(30) 0.85490(25) 0.33306(7)
O15_3 O 0.29609(30) 0.44118(17) 0.33306(7)
O16_4 O 0.23794(23) 0.4758(2) 0.27033(10)
H5_4 H 0.2649 0.5296 0.2701
H6_4 H 0.2275 0.4549 0.2517
C8_7 C 0.1163(4) 0.4216(3) 0.36072(11)
C12_7 C 0.0953(4) 0.4821(3) 0.37719(10)
C15_7 C 0.0665(5) 0.4679(3) 0.40800(12)
H8_7 H 0.0566 0.4175 0.4184
O5_7 O 0.89575(26) 0.64250(18) 0.62371(7)
O6_7 O 0.89575(26) 0.25326(19) 0.62371(7)
O12_7 O 0.85490(25) 0.55882(17) 0.66694(7)
O13_7 O 0.85490(25) 0.29609(19) 0.66694(7)
C9_7 C 0.8837(4) 0.5784(3) 0.63928(11)
C10_7 C 0.8837(4) 0.3054(3) 0.63928(11)
C11_7 C 0.8903(3) 0.4452(2) 0.63775(14)
H7_7 H 0.8697 0.4349 0.6590
C13_7 C 0.9047(4) 0.5179(3) 0.62281(10)
C14_7 C 0.9047(4) 0.3869(3) 0.62281(10)
C16_7 C 0.9335(5) 0.5321(3) 0.59200(12)
C17_7 C 0.9335(5) 0.4015(4) 0.59200(12)
H9_7 H 0.9434 0.3610 0.5816
H10_7 H 0.9434 0.5825 0.5816
C18_7 C 0.9487(4) 0.4744(3) 0.5755(2)
C19_7 C 0.9731(7) 0.4866(5) 0.5436(2)
C20_7 C 0.9885(8) 0.4943(6) 0.5154(3)
O5_8 O 0.74674(19) 0.10425(26) 0.62371(7)
O6_8 O 0.35750(18) 0.10425(26) 0.62371(7)
O12_8 O 0.70391(19) 0.14510(25) 0.66694(7)
O13_8 O 0.44118(17) 0.14510(25) 0.66694(7)
C9_8 C 0.6946(3) 0.1163(4) 0.63928(11)
C10_8 C 0.4216(3) 0.1163(4) 0.63928(11)
C11_8 C 0.5548(2) 0.1097(3) 0.63775(14)
H7_8 H 0.5651 0.1303 0.6590
C13_8 C 0.6131(3) 0.0953(4) 0.62281(10)
C14_8 C 0.4821(3) 0.0953(4) 0.62281(10)
C16_8 C 0.5985(4) 0.0665(5) 0.59200(12)
C17_8 C 0.4679(3) 0.0665(5) 0.59200(12)
H9_8 H 0.4175 0.0566 0.5816
H10_8 H 0.6390 0.0566 0.5816
C18_8 C 0.5256(3) 0.0513(4) 0.5755(2)
C19_8 C 0.5134(5) 0.0269(7) 0.5436(2)
C20_8 C 0.5057(6) 0.0115(8) 0.5154(3)
O2_6 O 0.55882(17) 0.85490(25) 0.33306(7)
O3_8 O 0.5242(2) 0.76206(23) 0.27033(10)
H1_8 H 0.4704 0.7351 0.2701
H2_8 H 0.5451 0.7725 0.2517
C1_8 C 0.5784(3) 0.8837(4) 0.36072(11)
C2_8 C 0.4452(2) 0.8903(3) 0.36225(14)
H3_8 H 0.4349 0.8697 0.3410
C3_8 C 0.5179(3) 0.9047(4) 0.37719(10)
C4_8 C 0.5321(3) 0.9335(5) 0.40800(12)
H4_8 H 0.5825 0.9434 0.4184
C5_8 C 0.4744(3) 0.9487(4) 0.4245(2)
C6_8 C 0.4866(5) 0.9731(7) 0.4564(2)
C7_8 C 0.4943(6) 0.9885(8) 0.4846(3)
O14_6 O 0.55882(17) 0.70391(30) 0.33306(7)
C8_8 C 0.3054(3) 0.8837(4) 0.36072(11)
C12_8 C 0.3869(3) 0.9047(4) 0.37719(10)
C15_8 C 0.4015(4) 0.9335(5) 0.40800(12)
H8_8 H 0.3610 0.9434 0.4184
C1_9 C 0.3054(3) 0.4216(3) 0.36072(11)
C2_9 C 0.4452(2) 0.5548(2) 0.36225(14)
H3_9 H 0.4349 0.5651 0.3410
C3_9 C 0.3869(3) 0.4821(3) 0.37719(10)
C4_9 C 0.4015(4) 0.4679(3) 0.40800(12)
H4_9 H 0.3610 0.4175 0.4184
C5_9 C 0.4744(3) 0.5256(3) 0.4245(2)
C6_9 C 0.4866(5) 0.5134(5) 0.4564(2)
C7_9 C 0.4943(6) 0.5057(6) 0.4846(3)
O5_9 O 0.35750(18) 0.25326(19) 0.62371(7)
O6_9 O 0.74674(19) 0.64250(18) 0.62371(7)
O12_9 O 0.44118(17) 0.29609(19) 0.66694(7)
O13_9 O 0.70391(19) 0.55882(17) 0.66694(7)
C8_9 C 0.5784(3) 0.6946(3) 0.36072(11)
C9_9 C 0.4216(3) 0.3054(3) 0.63928(11)
C10_9 C 0.6946(3) 0.5784(3) 0.63928(11)
C11_9 C 0.5548(2) 0.4452(2) 0.63775(14)
H7_9 H 0.5651 0.4349 0.6590
C12_9 C 0.5179(3) 0.6131(3) 0.37719(10)
C13_9 C 0.4821(3) 0.3869(3) 0.62281(10)
C14_9 C 0.6131(3) 0.5179(3) 0.62281(10)
C15_9 C 0.5321(3) 0.5985(4) 0.40800(12)
C16_9 C 0.4679(3) 0.4015(4) 0.59200(12)
C17_9 C 0.5985(4) 0.5321(3) 0.59200(12)
H8_9 H 0.5825 0.6390 0.4184
H9_9 H 0.6390 0.5825 0.5816
H10_9 H 0.4175 0.3610 0.5816
C18_9 C 0.5256(3) 0.4744(3) 0.5755(2)
C19_9 C 0.5134(5) 0.4866(5) 0.5436(2)
C20_9 C 0.5057(6) 0.4943(6) 0.5154(3)
O3_9 O 0.4758(2) 0.23790(12) 0.72967(10)
H1_9 H 0.5296 0.2648 0.7299
H2_9 H 0.4549 0.2275 0.7483
O16_5 O 0.76210(12) 0.5242(2) 0.72967(10)
H5_5 H 0.7352 0.4704 0.7299
H6_5 H 0.7725 0.5451 0.7483
O3_10 O 0.76210(12) 0.23794(23) 0.72967(10)
H1_10 H 0.7352 0.2649 0.7299
H2_10 H 0.7725 0.2275 0.7483
O3_11 O 0.90460(23) 0.09544(12) 0.60367(10)
H1_11 H 0.9315 0.0686 0.6035
H2_11 H 0.8941 0.1059 0.5851
O16_6 O 0.90460(23) 0.8092(2) 0.60367(10)
H5_6 H 0.9315 0.8630 0.6035
H6_6 H 0.8941 0.7883 0.5851
O3_12 O 0.1908(2) 0.09540(23) 0.60367(10)
H1_12 H 0.1370 0.0685 0.6035
H2_12 H 0.2117 0.1059 0.5851
loop_
_geom_bond_atom_site_label_1
_geom_bond_atom_site_label_2
_geom_bond_site_symmetry_1
_geom_bond_site_symmetry_2
Cu7 Cu8 1_555 1_555
Cu8 O13 1_555 1_555
O6 Cu7 1_555 1_555
O13 C10 1_555 1_555
C10 O6 1_555 1_555
Cu1 O2 1_555 1_555
O3 Cu1 1_555 1_555
H1 O3 1_555 1_555
H2 O3 1_555 1_555
O11 Cu2 1_555 1_555
O14 Cu1 1_555 1_555
O15 Cu2 1_555 1_555
O16 Cu2 1_555 1_555
H5 O16 1_555 1_555
H6 O16 1_555 1_555
O1 C1 1_555 1_555
C1 C3 1_555 1_555
C2 H3 1_555 1_555
C3 C2 1_555 1_555
C4 C3 1_555 1_555
H4 C4 1_555 1_555
C5 C4 1_555 1_555
C6 C5 1_555 1_555
C7 C6 1_555 1_555
O4 C8 1_555 1_555
C11 H7 1_555 1_555
C12 C2 1_555 1_555
C15 C5 1_555 1_555
C16 C13 1_555 1_555
C17 C14 1_555 1_555
H8 C15 1_555 1_555
H9 C17 1_555 1_555
H10 C16 1_555 1_555
C18 C16 1_555 1_555
C19 C18 1_555 1_555
C20 C7 1_555 1_555
C8 C12 1_555 1_555
C11 C13 1_555 1_555
C11 C14 1_555 1_555
C12 C15 1_555 1_555
C17 C18 1_555 1_555
C19 C20 1_555 1_555
Cu5 Cu6 1_555 1_555
Cu6 O12 1_555 1_555
O5 Cu5 1_555 1_555
O12 C9 1_555 1_555
C9 O5 1_555 1_555
Cu1_2 O2_2 1_555 1_555
O3_2 Cu1_2 1_555 1_555
H1_2 O3_2 1_555 1_555
H2_2 O3_2 1_555 1_555
O7_2 Cu1_2 1_555 1_555
O8_2 Cu1_2 1_555 1_555
O14_2 Cu1_2 1_555 1_555
O1_2 C1_2 1_555 1_555
C1_2 C3_2 1_555 1_555
C2_2 H3_2 1_555 1_555
C3_2 C2_2 1_555 1_555
C4_2 C3_2 1_555 1_555
H4_2 C4_2 1_555 1_555
C5_2 C4_2 1_555 1_555
C6_2 C5_2 1_555 1_555
C7_2 C6_2 1_555 1_555
Cu8 O12_2 1_555 1_555
O4_2 C8_2 1_555 1_555
O5_2 Cu7 1_555 1_555
O12_2 C9_2 1_555 1_555
C9_2 O5_2 1_555 1_555
C11_2 H7_2 1_555 1_555
C12_2 C2_2 1_555 1_555
C13_2 C9_2 1_555 1_555
C15_2 C5_2 1_555 1_555
C16_2 C13_2 1_555 1_555
C17_2 C14_2 1_555 1_555
H8_2 C15_2 1_555 1_555
H9_2 C17_2 1_555 1_555
H10_2 C16_2 1_555 1_555
C18_2 C16_2 1_555 1_555
C19_2 C18_2 1_555 1_555
C20_2 C7_2 1_555 1_555
O1_2 Cu3_2 1_555 1_555
C8_2 C12_2 1_555 1_555
C11_2 C13_2 1_555 1_555
C11_2 C14_2 1_555 1_555
C12_2 C15_2 1_555 1_555
C17_2 C18_2 1_555 1_555
C19_2 C20_2 1_555 1_555
Cu7_2 Cu8_2 1_555 1_555
Cu8_2 O13_2 1_555 1_555
O6_2 Cu7_2 1_555 1_555
O13_2 C10_2 1_555 1_555
C10_2 O6_2 1_555 1_555
Cu8_2 O12_3 1_555 1_555
O5_3 Cu7_2 1_555 1_555
O12_3 C9_3 1_555 1_555
C9_3 O5_3 1_555 1_555
O1_3 C1_3 1_555 1_555
C1_3 C3_3 1_555 1_555
C2_3 H3_3 1_555 1_555
C3_3 C2_3 1_555 1_555
C4_3 C3_3 1_555 1_555
H4_3 C4_3 1_555 1_555
C5_3 C4_3 1_555 1_555
C6_3 C5_3 1_555 1_555
C7_3 C6_3 1_555 1_555
Cu3_2 O4_3 1_555 1_555
Cu6 O13_3 1_555 1_555
O4_3 C8_3 1_555 1_555
O6_3 Cu5 1_555 1_555
O13_3 C10_3 1_555 1_555
C10_3 O6_3 1_555 1_555
C11_3 H7_3 1_555 1_555
C12_3 C2_3 1_555 1_555
C14_3 C10_3 1_555 1_555
C15_3 C5_3 1_555 1_555
C16_3 C13_3 1_555 1_555
C17_3 C14_3 1_555 1_555
H8_3 C15_3 1_555 1_555
H9_3 C17_3 1_555 1_555
H10_3 C16_3 1_555 1_555
C18_3 C16_3 1_555 1_555
C19_3 C18_3 1_555 1_555
C20_3 C7_3 1_555 1_555
C8_3 C12_3 1_555 1_555
C11_3 C13_3 1_555 1_555
C11_3 C14_3 1_555 1_555
C12_3 C15_3 1_555 1_555
C17_3 C18_3 1_555 1_555
C19_3 C20_3 1_555 1_555
O8_2 C1_4 1_555 1_555
C1_4 C3_4 1_555 1_555
C2_4 H3_4 1_555 1_555
C3_4 C2_4 1_555 1_555
C4_4 C3_4 1_555 1_555
H4_4 C4_4 1_555 1_555
C5_4 C4_4 1_555 1_555
C6_4 C5_4 1_555 1_555
C7_4 C6_4 1_555 1_555
Cu5_2 Cu6_2 1_555 1_555
Cu6_2 O12_4 1_555 1_555
O10 C8_4 1_555 1_555
O5_4 Cu5_2 1_555 1_555
O12_4 C9_4 1_555 1_555
C9_4 O5_4 1_555 1_555
C11_4 H7_4 1_555 1_555
C12_4 C2_4 1_555 1_555
C13_4 C9_4 1_555 1_555
C15_4 C5_4 1_555 1_555
C16_4 C13_4 1_555 1_555
C17_4 C14_4 1_555 1_555
H8_4 C15_4 1_555 1_555
H9_4 C17_4 1_555 1_555
H10_4 C16_4 1_555 1_555
C18_4 C16_4 1_555 1_555
C19_4 C18_4 1_555 1_555
C20_4 C7_4 1_555 1_555
C8_4 C12_4 1_555 1_555
C11_4 C13_4 1_555 1_555
C11_4 C14_4 1_555 1_555
C12_4 C15_4 1_555 1_555
C17_4 C18_4 1_555 1_555
C19_4 C20_4 1_555 1_555
Cu3_2 O2_3 1_555 1_555
O3_3 Cu3_2 1_555 1_555
H1_3 O3_3 1_555 1_555
H2_3 O3_3 1_555 1_555
O11_2 Cu4 1_555 1_555
O14_3 Cu3_2 1_555 1_555
O15_2 Cu4 1_555 1_555
O16_2 Cu4 1_555 1_555
H5_2 O16_2 1_555 1_555
H6_2 O16_2 1_555 1_555
Cu7_3 Cu8_3 1_555 1_555
Cu8_3 O13_4 1_555 1_555
O6_4 Cu7_3 1_555 1_555
O13_4 C10_4 1_555 1_555
C10_4 O6_4 1_555 1_555
Cu8_3 O12_5 1_555 1_555
O5_5 Cu7_3 1_555 1_555
O12_5 C9_5 1_555 1_555
C9_5 O5_5 1_555 1_555
O8 C1_5 1_555 1_555
C1_5 C3_5 1_555 1_555
C2_5 H3_5 1_555 1_555
C3_5 C2_5 1_555 1_555
C4_5 C3_5 1_555 1_555
H4_5 C4_5 1_555 1_555
C5_5 C4_5 1_555 1_555
C6_5 C5_5 1_555 1_555
C7_5 C6_5 1_555 1_555
Cu7_4 Cu8_4 1_555 1_555
Cu8_4 O13_5 1_555 1_555
O7_2 C8_5 1_555 1_555
O6_5 Cu7_4 1_555 1_555
O13_5 C10_5 1_555 1_555
C10_5 O6_5 1_555 1_555
C11_5 H7_5 1_555 1_555
C12_5 C2_5 1_555 1_555
C14_5 C10_5 1_555 1_555
C15_5 C5_5 1_555 1_555
C16_5 C13_5 1_555 1_555
C17_5 C14_5 1_555 1_555
H8_5 C15_5 1_555 1_555
H9_5 C17_5 1_555 1_555
H10_5 C16_5 1_555 1_555
C18_5 C16_5 1_555 1_555
C19_5 C18_5 1_555 1_555
C20_5 C7_5 1_555 1_555
C8_5 C12_5 1_555 1_555
C11_5 C13_5 1_555 1_555
C11_5 C14_5 1_555 1_555
C12_5 C15_5 1_555 1_555
C17_5 C18_5 1_555 1_555
C19_5 C20_5 1_555 1_555
Cu3 O2_4 1_555 1_555
O3_4 Cu3 1_555 1_555
H1_4 O3_4 1_555 1_555
H2_4 O3_4 1_555 1_555
O14_4 Cu3 1_555 1_555
Cu6_2 O13_6 1_555 1_555
O6_6 Cu5_2 1_555 1_555
O13_6 C10_6 1_555 1_555
C10_6 O6_6 1_555 1_555
O9 C1_6 1_555 1_555
C1_6 C3_6 1_555 1_555
C2_6 H3_6 1_555 1_555
C3_6 C2_6 1_555 1_555
C4_6 C3_6 1_555 1_555
H4_6 C4_6 1_555 1_555
C5_6 C4_6 1_555 1_555
C6_6 C5_6 1_555 1_555
C7_6 C6_6 1_555 1_555
O7 C8_6 1_555 1_555
C11_6 H7_6 1_555 1_555
C12_6 C2_6 1_555 1_555
C15_6 C5_6 1_555 1_555
C16_6 C13_6 1_555 1_555
C17_6 C14_6 1_555 1_555
H8_6 C15_6 1_555 1_555
H9_6 C17_6 1_555 1_555
H10_6 C16_6 1_555 1_555
C18_6 C16_6 1_555 1_555
C19_6 C18_6 1_555 1_555
C20_6 C7_6 1_555 1_555
C8_6 C12_6 1_555 1_555
C11_6 C13_6 1_555 1_555
C11_6 C14_6 1_555 1_555
C12_6 C15_6 1_555 1_555
C17_6 C18_6 1_555 1_555
C19_6 C20_6 1_555 1_555
Cu8_4 O12_6 1_555 1_555
O5_6 Cu7_4 1_555 1_555
O12_6 C9_6 1_555 1_555
C9_6 O5_6 1_555 1_555
O9_2 Cu6_2 1_555 1_555
O10_2 Cu6_2 1_555 1_555
O16_3 Cu6_2 1_555 1_555
H5_3 O16_3 1_555 1_555
H6_3 O16_3 1_555 1_555
O3_5 Cu8_4 1_555 1_555
H1_5 O3_5 1_555 1_555
H2_5 O3_5 1_555 1_555
O7_3 Cu8_4 1_555 1_555
O8_3 Cu8_4 1_555 1_555
O3_6 Cu8_3 1_555 1_555
H1_6 O3_6 1_555 1_555
H2_6 O3_6 1_555 1_555
O7_4 Cu8_3 1_555 1_555
O8_4 Cu8_3 1_555 1_555
Cu7_3 O2_5 1_555 1_555
O8_4 C1_7 1_555 1_555
O2_5 C1_7 1_555 1_555
O3_7 Cu7_3 1_555 1_555
H1_7 O3_7 1_555 1_555
H2_7 O3_7 1_555 1_555
C1_7 C3_7 1_555 1_555
C2_7 H3_7 1_555 1_555
C3_7 C2_7 1_555 1_555
C4_7 C3_7 1_555 1_555
H4_7 C4_7 1_555 1_555
C5_7 C4_7 1_555 1_555
C6_7 C5_7 1_555 1_555
C7_7 C6_7 1_555 1_555
O10_2 C8_7 1_555 1_555
O11_3 Cu5_2 1_555 1_555
O14_5 Cu7_3 1_555 1_555
O15_3 Cu5_2 1_555 1_555
O16_4 Cu5_2 1_555 1_555
H5_4 O16_4 1_555 1_555
H6_4 O16_4 1_555 1_555
C8_7 O11_3 1_555 1_555
C12_7 C2_7 1_555 1_555
C15_7 C5_7 1_555 1_555
H8_7 C15_7 1_555 1_555
C8_7 C12_7 1_555 1_555
C12_7 C15_7 1_555 1_555
Cu5 O12_7 1_555 1_555
Cu7_2 O13_7 1_555 1_555
O5_7 Cu6 1_555 1_555
O6_7 Cu8_2 1_555 1_555
O12_7 C9_7 1_555 1_555
O13_7 C10_7 1_555 1_555
C9_7 O5_7 1_555 1_555
C10_7 O6_7 1_555 1_555
C11_7 H7_7 1_555 1_555
C13_7 C9_7 1_555 1_555
C14_7 C10_7 1_555 1_555
C16_7 C13_7 1_555 1_555
C17_7 C14_7 1_555 1_555
H9_7 C17_7 1_555 1_555
H10_7 C16_7 1_555 1_555
C18_7 C16_7 1_555 1_555
C19_7 C18_7 1_555 1_555
C11_7 C13_7 1_555 1_555
C11_7 C14_7 1_555 1_555
C17_7 C18_7 1_555 1_555
C19_7 C20_7 1_555 1_555
Cu7_2 O12_8 1_555 1_555
Cu7 O13_8 1_555 1_555
O5_8 Cu8_2 1_555 1_555
O6_8 Cu8 1_555 1_555
O12_8 C9_8 1_555 1_555
O13_8 C10_8 1_555 1_555
C9_8 O5_8 1_555 1_555
C10_8 O6_8 1_555 1_555
C11_8 H7_8 1_555 1_555
C13_8 C9_8 1_555 1_555
C14_8 C10_8 1_555 1_555
C16_8 C13_8 1_555 1_555
C17_8 C14_8 1_555 1_555
H9_8 C17_8 1_555 1_555
H10_8 C16_8 1_555 1_555
C18_8 C16_8 1_555 1_555
C19_8 C18_8 1_555 1_555
C11_8 C13_8 1_555 1_555
C11_8 C14_8 1_555 1_555
C17_8 C18_8 1_555 1_555
C19_8 C20_8 1_555 1_555
Cu7_4 O2_6 1_555 1_555
O8_3 C1_8 1_555 1_555
O2_6 C1_8 1_555 1_555
O3_8 Cu7_4 1_555 1_555
H1_8 O3_8 1_555 1_555
H2_8 O3_8 1_555 1_555
C1_8 C3_8 1_555 1_555
C2_8 H3_8 1_555 1_555
C3_8 C2_8 1_555 1_555
C4_8 C3_8 1_555 1_555
H4_8 C4_8 1_555 1_555
C5_8 C4_8 1_555 1_555
C6_8 C5_8 1_555 1_555
C7_8 C6_8 1_555 1_555
O7_4 C8_8 1_555 1_555
O14_6 Cu7_4 1_555 1_555
C8_8 O14_5 1_555 1_555
C12_8 C2_8 1_555 1_555
C15_8 C5_8 1_555 1_555
H8_8 C15_8 1_555 1_555
C8_8 C12_8 1_555 1_555
C12_8 C15_8 1_555 1_555
O9_2 C1_9 1_555 1_555
O15_3 C1_9 1_555 1_555
C1_9 C3_9 1_555 1_555
C2_9 H3_9 1_555 1_555
C3_9 C2_9 1_555 1_555
C4_9 C3_9 1_555 1_555
H4_9 C4_9 1_555 1_555
C5_9 C4_9 1_555 1_555
C6_9 C5_9 1_555 1_555
C7_9 C6_9 1_555 1_555
Cu7 O12_9 1_555 1_555
Cu5 O13_9 1_555 1_555
O7_3 C8_9 1_555 1_555
O5_9 Cu8 1_555 1_555
O6_9 Cu6 1_555 1_555
O12_9 C9_9 1_555 1_555
O13_9 C10_9 1_555 1_555
C8_9 O14_6 1_555 1_555
C9_9 O5_9 1_555 1_555
C10_9 O6_9 1_555 1_555
C11_9 H7_9 1_555 1_555
C12_9 C2_9 1_555 1_555
C13_9 C9_9 1_555 1_555
C14_9 C10_9 1_555 1_555
C15_9 C5_9 1_555 1_555
C16_9 C13_9 1_555 1_555
C17_9 C14_9 1_555 1_555
H8_9 C15_9 1_555 1_555
H9_9 C17_9 1_555 1_555
H10_9 C16_9 1_555 1_555
C18_9 C16_9 1_555 1_555
C19_9 C18_9 1_555 1_555
C20_9 C7_9 1_555 1_555
C8_9 C12_9 1_555 1_555
C11_9 C13_9 1_555 1_555
C11_9 C14_9 1_555 1_555
C12_9 C15_9 1_555 1_555
C17_9 C18_9 1_555 1_555
C19_9 C20_9 1_555 1_555
O3_9 Cu7 1_555 1_555
H1_9 O3_9 1_555 1_555
H2_9 O3_9 1_555 1_555
O16_5 Cu5 1_555 1_555
H5_5 O16_5 1_555 1_555
H6_5 O16_5 1_555 1_555
O3_10 Cu7_2 1_555 1_555
H1_10 O3_10 1_555 1_555
H2_10 O3_10 1_555 1_555
O3_11 Cu8_2 1_555 1_555
H1_11 O3_11 1_555 1_555
H2_11 O3_11 1_555 1_555
O16_6 Cu6 1_555 1_555
H5_6 O16_6 1_555 1_555
H6_6 O16_6 1_555 1_555
O3_12 Cu8 1_555 1_555
H1_12 O3_12 1_555 1_555
H2_12 O3_12 1_555 1_555

#END
