
###############################################################################
#
# This file contains modified crystal structure data generated from the
# MOF subset of the Cambridge Structural Database (CSD) v543 
# hosted by the Cambridge Crystallographic Data Centre (CCDC).
#
# This work is licensed under the Creative Commons
# Attribution-NonCommercial-ShareAlike 4.0 International License.
# To view a copy of this license, visit
# http://creativecommons.org/licenses/by-nc-sa/4.0/
# or send a letter to
# Creative Commons, PO Box 1866, Mountain View, CA 94042, USA.
#
# CIF created using the CSD Python API on 29 September 2022
# The structure has been converted into the P1 space group
# The structure has a 3D framework
# The original CSD entry LUZFEU is in the orthorhombic crystal system
# The framework has been calculated to contain at least 10.0% void space
# The void calculation uses a probe of radius 1.32A, grid spacing 0.4
#
###############################################################################

data_LUZFEU
_chemical_formula_moiety         '(C176 H160 N16 O48 Zn8)n'
_symmetry_cell_setting           triclinic
_symmetry_space_group_name_H-M   'P 1'
_symmetry_Int_Tables_number      1
_space_group_name_Hall           'P 1'
loop_
_symmetry_equiv_pos_site_id
_symmetry_equiv_pos_as_xyz
1 x,y,z
_cell_length_a                   9.941(2)
_cell_length_b                   31.431(8)
_cell_length_c                   23.508(6)
_cell_angle_alpha                90
_cell_angle_beta                 90
_cell_angle_gamma                90
_cell_volume                     7345.21
loop_
_atom_site_label
_atom_site_type_symbol
_atom_site_fract_x
_atom_site_fract_y
_atom_site_fract_z
Zn2 Zn 0.47378(8) 0.42639(2) 0.38964(3)
O1 O 0.5933(6) 0.43654(18) 0.3247(2)
O2 O 0.3846(6) 0.44539(16) 0.5016(2)
O4 O 0.7967(6) 0.43421(19) 0.2886(3)
O5 O 0.6079(8) 0.87834(17) 0.6812(3)
O6 O 0.2910(5) 0.44475(13) 0.36752(19)
O7 O 0.5309(5) 0.47276(14) 0.4405(2)
O9 O 0.3842(5) 0.34504(14) 0.34492(18)
O10 O 0.4621(5) 0.86706(14) 0.7493(2)
O11 O 0.0999(5) 0.44514(14) 0.3204(2)
O12 O 0.5119(6) 0.36862(16) 0.4164(2)
N1 N 0.5641(5) 0.17000(14) 0.4591(2)
N2 N 0.5612(5) 0.11216(14) 0.5079(2)
N3 N 0.5712(5) 0.67569(15) 0.6697(2)
N4 N 0.5720(5) 0.61225(15) 0.6358(2)
C1 C 0.6102(6) 0.07826(17) 0.5981(3)
C2 C 0.5300(6) 0.08057(17) 0.5506(2)
C4 C 0.5519(6) 0.72124(18) 0.6766(3)
C5 C 0.4228(7) 0.51369(19) 0.5765(3)
H1 H 0.354745 0.493495 0.585270
C6 C 0.4421(6) 0.21920(19) 0.3984(2)
C7 C 0.2151(7) 0.43155(18) 0.3286(3)
H2 H 0.248022 0.409916 0.304064
C8 C 0.4878(6) 0.29439(19) 0.4059(3)
C9 C 0.4469(6) 0.5475(2) 0.6138(3)
C10 C 0.5353(7) 0.80715(19) 0.6945(3)
C11 C 0.4573(7) 0.33944(19) 0.3862(3)
C12 C 0.4655(6) 0.4728(2) 0.4871(3)
C13 C 0.4740(7) 0.01813(19) 0.6281(3)
C14 C 0.5172(7) 0.1519(2) 0.5060(3)
H3 H 0.461493 0.165163 0.533611
C15 C 0.5217(7) 0.65133(19) 0.6290(3)
H4 H 0.460944 0.660054 0.600089
C16 C 0.6409(7) 0.1050(2) 0.4604(3)
H5 H 0.686342 0.079312 0.451087
C17 C 0.5822(6) 0.04513(18) 0.6368(3)
H6 H 0.638218 0.041272 0.669148
C18 C 0.5948(7) 0.53867(19) 0.5135(3)
H7 H 0.643198 0.535551 0.478870
C19 C 0.3695(7) 0.1823(2) 0.3713(3)
H8 H 0.281365 0.191746 0.357606
H9 H 0.357431 0.159599 0.399466
H10 H 0.422570 0.171502 0.339280
C20 C 0.4584(6) 0.7796(2) 0.7281(3)
H11 H 0.401934 0.790616 0.757189
C21 C 0.5378(6) 0.21310(18) 0.4413(2)
C22 C 0.4232(7) 0.05352(19) 0.5389(3)
C23 C 0.4651(6) 0.7352(2) 0.7186(3)
C24 C 0.6272(7) 0.74858(19) 0.6415(3)
C25 C 0.6157(7) 0.79238(19) 0.6514(3)
H12 H 0.663860 0.811906 0.628242
C26 C 0.3851(7) 0.70504(19) 0.7542(3)
H13 H 0.348995 0.682325 0.730016
H14 H 0.310710 0.720350 0.772296
H15 H 0.443132 0.692636 0.783490
C27 C 0.5454(7) 0.57663(19) 0.5979(3)
C28 C 0.7090(8) 0.4226(2) 0.3177(4)
H16 H 0.729698 0.398210 0.339886
C29 C 0.7238(7) 0.1087(2) 0.6078(3)
H17 H 0.791118 0.105244 0.577713
H18 H 0.765313 0.102909 0.644837
H19 H 0.689409 0.137935 0.607275
C30 C 0.5809(7) 0.28714(18) 0.4489(3)
H20 H 0.626304 0.310535 0.465826
C31 C 0.7147(8) 0.2375(2) 0.5118(3)
H21 H 0.673417 0.223643 0.544842
H22 H 0.755707 0.264408 0.523562
H23 H 0.784027 0.218785 0.495810
C32 C 0.5341(8) 0.8545(2) 0.7081(3)
C33 C 0.7207(9) 0.7319(2) 0.5960(3)
H24 H 0.793495 0.715580 0.613831
H25 H 0.758924 0.755793 0.574717
H26 H 0.670474 0.713397 0.570021
C34 C 0.6085(6) 0.24595(19) 0.4675(2)
C35 C 0.4967(6) 0.50929(19) 0.5270(3)
C36 C 0.6555(7) 0.6115(2) 0.6813(3)
H27 H 0.704832 0.587788 0.695096
C37 C 0.4190(6) 0.26056(18) 0.3811(2)
H28 H 0.355357 0.265987 0.351781
C38 C 0.6548(8) 0.6517(2) 0.7035(3)
H29 H 0.702781 0.661164 0.736046
C39 C 0.3955(6) 0.02219(19) 0.5796(3)
H30 H 0.321758 0.003435 0.573948
C40 C 0.6416(7) 0.14156(19) 0.4300(3)
H31 H 0.687108 0.146468 0.395037
C41 C 0.6249(7) 0.57288(18) 0.5492(3)
C42 C 0.3684(8) 0.5522(3) 0.6684(3)
H32 H 0.322265 0.525459 0.677030
H33 H 0.301907 0.575025 0.664050
H34 H 0.430098 0.559330 0.699479
C43 C 0.7346(9) 0.6043(2) 0.5356(3)
H35 H 0.784257 0.594618 0.502021
H36 H 0.796183 0.606452 0.568041
H37 H 0.694678 0.632209 0.527968
C44 C 0.3412(8) 0.0569(2) 0.4843(3)
H38 H 0.309005 0.086204 0.479734
H39 H 0.264034 0.037569 0.486397
H40 H 0.397640 0.049208 0.451759
Zn3 Zn 0.52173(7) 0.92731(2) 0.75624(3)
Zn5 Zn 0.97827(7) 0.42731(2) 0.25624(3)
O3 O 0.3412(6) 0.96228(19) 0.6662(3)
O8 O 0.5358(5) 0.97732(14) 0.7084(2)
C3 C 0.4470(7) 0.98243(19) 0.6703(3)
O13 O 0.7033(6) 0.93421(19) 0.7886(3)
O16 O 0.4001(5) 0.94514(14) 0.8204(2)
O10_2 O 0.0379(5) 0.36706(14) 0.2493(2)
C5_2 C 0.0772(7) 0.01369(19) 0.0765(3)
C9_2 C 0.0531(6) 0.0475(2) 0.1138(3)
H4_2 H 0.039056 0.160054 0.100089
C20_2 C 0.0416(6) 0.2796(2) 0.2281(3)
H11_2 H 0.098066 0.290616 0.257189
C23_2 C 0.0349(6) 0.2352(2) 0.2186(3)
C26_2 C 0.1149(7) 0.20504(19) 0.2542(3)
H13_2 H 0.151005 0.182325 0.230016
H14_2 H 0.189290 0.220350 0.272296
H15_2 H 0.056868 0.192636 0.283490
C35_2 C 0.0033(6) 0.00929(19) 0.0270(3)
C42_2 C 0.1316(8) 0.0522(3) 0.1684(3)
H32_2 H 0.177735 0.025459 0.177030
H33_2 H 0.198093 0.075025 0.164050
H34_2 H 0.069902 0.059330 0.199479
O2_2 O 0.1154(6) 0.94539(16) 0.0016(2)
O3_2 O 0.1588(6) 0.46228(19) 0.1662(3)
C3_2 C 0.0530(7) 0.48243(19) 0.1703(3)
H1_2 H 0.145255 0.993495 0.085270
C13_2 C 0.0260(7) 0.51813(19) 0.1281(3)
H3_2 H 0.038507 0.665163 0.033611
C22_2 C 0.0768(7) 0.55352(19) 0.0389(3)
C39_2 C 0.1045(6) 0.52219(19) 0.0796(3)
H30_2 H 0.178242 0.503435 0.073948
Zn2_2 Zn 0.02622(8) 0.92639(2) 0.88964(3)
O6_2 O 0.2090(5) 0.94475(13) 0.86752(19)
O9_2 O 0.1158(5) 0.84504(14) 0.84492(18)
C6_2 C 0.0579(6) 0.71920(19) 0.8984(2)
C7_2 C 0.2849(7) 0.93155(18) 0.8286(3)
H2_2 H 0.251978 0.909916 0.804064
C8_2 C 0.0122(6) 0.79439(19) 0.9059(3)
C11_2 C 0.0427(7) 0.83944(19) 0.8862(3)
C12_2 C 0.0345(6) 0.9728(2) 0.9871(3)
C19_2 C 0.1305(7) 0.6823(2) 0.8713(3)
H8_2 H 0.218635 0.691746 0.857606
H9_2 H 0.142569 0.659599 0.899466
H10_2 H 0.077430 0.671502 0.839280
C37_2 C 0.0810(6) 0.76056(18) 0.8811(2)
H28_2 H 0.144643 0.765987 0.851781
C44_2 C 0.1588(8) 0.5569(2) 0.9843(3)
H38_2 H 0.190995 0.586204 0.979734
H39_2 H 0.235966 0.537569 0.986397
H40_2 H 0.102360 0.549208 0.951759
O5_2 O 0.8921(8) 0.37834(17) 0.1812(3)
N3_2 N 0.9288(5) 0.17569(15) 0.1697(2)
N4_2 N 0.9280(5) 0.11225(15) 0.1358(2)
C4_2 C 0.9481(6) 0.22124(18) 0.1766(3)
C10_2 C 0.9647(7) 0.30715(19) 0.1945(3)
C15_2 C 0.9783(7) 0.15133(19) 0.1290(3)
C18_2 C 0.9052(7) 0.03867(19) 0.0135(3)
C24_2 C 0.8728(7) 0.24858(19) 0.1415(3)
C25_2 C 0.8843(7) 0.29238(19) 0.1514(3)
H12_2 H 0.836140 0.311906 0.128242
C27_2 C 0.9546(7) 0.07663(19) 0.0979(3)
C32_2 C 0.9659(8) 0.3545(2) 0.2081(3)
C33_2 C 0.7793(9) 0.2319(2) 0.0960(3)
H24_2 H 0.706505 0.215580 0.113831
H25_2 H 0.741076 0.255793 0.074717
H26_2 H 0.829526 0.213397 0.070021
C36_2 C 0.8445(7) 0.1115(2) 0.1813(3)
H27_2 H 0.795168 0.087788 0.195096
C38_2 C 0.8452(8) 0.1517(2) 0.2035(3)
H29_2 H 0.797219 0.161164 0.236046
C41_2 C 0.8751(7) 0.07288(18) 0.0492(3)
C43_2 C 0.7654(9) 0.1043(2) 0.0356(3)
H35_2 H 0.715743 0.094618 0.002021
H36_2 H 0.703817 0.106452 0.068041
H37_2 H 0.805322 0.132209 0.027968
O8_2 O 0.9642(5) 0.47732(14) 0.2084(2)
N2_2 N 0.9388(5) 0.61216(14) 0.0079(2)
C1_2 C 0.8898(6) 0.57826(17) 0.0981(3)
C2_2 C 0.9700(6) 0.58057(17) 0.0506(2)
C14_2 C 0.9828(7) 0.6519(2) 0.0060(3)
C17_2 C 0.9178(6) 0.54513(18) 0.1368(3)
H6_2 H 0.861782 0.541272 0.169148
C29_2 C 0.7762(7) 0.6087(2) 0.1078(3)
H17_2 H 0.708882 0.605244 0.077713
H18_2 H 0.734687 0.602909 0.144837
H19_2 H 0.810591 0.637935 0.107275
C31_2 C 0.7853(8) 0.7375(2) 0.0118(3)
H21_2 H 0.826583 0.723643 0.044842
H22_2 H 0.744293 0.764408 0.023562
O1_2 O 0.9067(6) 0.93654(18) 0.8247(2)
O7_2 O 0.9691(5) 0.97276(14) 0.9405(2)
O12_2 O 0.9881(6) 0.86862(16) 0.9164(2)
N1_2 N 0.9359(5) 0.67000(14) 0.9591(2)
C16_2 C 0.8591(7) 0.6050(2) 0.9604(3)
H5_2 H 0.813658 0.579312 0.951087
C21_2 C 0.9622(6) 0.71310(18) 0.9413(2)
C28_2 C 0.7910(8) 0.9226(2) 0.8177(4)
H16_2 H 0.770302 0.898210 0.839886
C30_2 C 0.9191(7) 0.78714(18) 0.9489(3)
H20_2 H 0.873696 0.810535 0.965826
H23_2 H 0.715973 0.718785 0.995810
C34_2 C 0.8915(6) 0.74595(19) 0.9675(2)
C40_2 C 0.8584(7) 0.64156(19) 0.9300(3)
H31_2 H 0.812892 0.646468 0.895037
Zn4 Zn 0.02173(7) 0.57269(2) 0.75624(3)
Zn1 Zn 0.47827(7) 0.07269(2) 0.25624(3)
O3_3 O 0.6588(6) 0.03772(19) 0.1662(3)
O8_3 O 0.4642(5) 0.02268(14) 0.2084(2)
C3_3 C 0.5530(7) 0.01757(19) 0.1703(3)
O13_2 O 0.2967(6) 0.06579(19) 0.2886(3)
O14 O 0.3921(8) 0.12166(17) 0.1812(3)
O15 O 0.5379(5) 0.13294(14) 0.2493(2)
O16_2 O 0.5999(5) 0.05486(14) 0.3204(2)
O2_3 O 0.6154(6) 0.55461(16) 0.0016(2)
N2_3 N 0.4388(5) 0.88784(14) 0.0079(2)
N3_3 N 0.4288(5) 0.32431(15) 0.1697(2)
N4_3 N 0.4280(5) 0.38775(15) 0.1358(2)
C1_3 C 0.3898(6) 0.92174(17) 0.0981(3)
C2_3 C 0.4700(6) 0.91943(17) 0.0506(2)
C4_3 C 0.4481(6) 0.27876(18) 0.1766(3)
C5_3 C 0.5772(7) 0.48631(19) 0.0765(3)
H1_3 H 0.645255 0.506505 0.085270
C9_3 C 0.5531(6) 0.4525(2) 0.1138(3)
C10_3 C 0.4647(7) 0.19285(19) 0.1945(3)
C13_3 C 0.5260(7) 0.98187(19) 0.1281(3)
C14_3 C 0.4828(7) 0.8481(2) 0.0060(3)
H3_3 H 0.538507 0.834837 0.033611
C15_3 C 0.4783(7) 0.34867(19) 0.1290(3)
H4_3 H 0.539056 0.339946 0.100089
C17_3 C 0.4178(6) 0.95487(18) 0.1368(3)
H6_3 H 0.361782 0.958728 0.169148
C18_3 C 0.4052(7) 0.46133(19) 0.0135(3)
C20_3 C 0.5416(6) 0.2204(2) 0.2281(3)
H11_3 H 0.598066 0.209384 0.257189
C22_3 C 0.5768(7) 0.94648(19) 0.0389(3)
C23_3 C 0.5349(6) 0.2648(2) 0.2186(3)
C24_3 C 0.3728(7) 0.25142(19) 0.1415(3)
C25_3 C 0.3843(7) 0.20762(19) 0.1514(3)
H12_3 H 0.336140 0.188094 0.128242
C26_3 C 0.6149(7) 0.29496(19) 0.2542(3)
H13_3 H 0.651005 0.317675 0.230016
H14_3 H 0.689290 0.279650 0.272296
H15_3 H 0.556868 0.307364 0.283490
C27_3 C 0.4546(7) 0.42337(19) 0.0979(3)
C29_3 C 0.2762(7) 0.8913(2) 0.1078(3)
H17_3 H 0.208882 0.894756 0.077713
H18_3 H 0.234687 0.897091 0.144837
H19_3 H 0.310591 0.862065 0.107275
C31_3 C 0.2853(8) 0.7625(2) 0.0118(3)
H21_3 H 0.326583 0.776357 0.044842
H22_3 H 0.244293 0.735592 0.023562
C32_3 C 0.4659(8) 0.1455(2) 0.2081(3)
C33_3 C 0.2793(9) 0.2681(2) 0.0960(3)
H24_3 H 0.206505 0.284420 0.113831
H25_3 H 0.241076 0.244207 0.074717
H26_3 H 0.329526 0.286603 0.070021
C35_3 C 0.5033(6) 0.49071(19) 0.0270(3)
C36_3 C 0.3445(7) 0.3885(2) 0.1813(3)
H27_3 H 0.295168 0.412212 0.195096
C38_3 C 0.3452(8) 0.3483(2) 0.2035(3)
H29_3 H 0.297219 0.338836 0.236046
C39_3 C 0.6045(6) 0.97781(19) 0.0796(3)
H30_3 H 0.678242 0.996565 0.073948
C41_3 C 0.3751(7) 0.42712(18) 0.0492(3)
C42_3 C 0.6316(8) 0.4478(3) 0.1684(3)
H32_3 H 0.677735 0.474541 0.177030
H33_3 H 0.698093 0.424975 0.164050
H34_3 H 0.569902 0.440670 0.199479
C43_3 C 0.2654(9) 0.3957(2) 0.0356(3)
H35_3 H 0.215743 0.405382 0.002021
H36_3 H 0.203817 0.393548 0.068041
H37_3 H 0.305322 0.367791 0.027968
Zn2_3 Zn 0.52622(8) 0.57361(2) 0.88964(3)
O1_3 O 0.4067(6) 0.56346(18) 0.8247(2)
O4_2 O 0.2033(6) 0.56579(19) 0.7886(3)
O6_3 O 0.7090(5) 0.55525(13) 0.86752(19)
O7_3 O 0.4691(5) 0.52724(14) 0.9405(2)
O9_3 O 0.6158(5) 0.65496(14) 0.84492(18)
O11_2 O 0.9001(5) 0.55486(14) 0.8204(2)
O12_3 O 0.4881(6) 0.63138(16) 0.9164(2)
N1_3 N 0.4359(5) 0.83000(14) 0.9591(2)
C6_3 C 0.5579(6) 0.78080(19) 0.8984(2)
C7_3 C 0.7849(7) 0.56845(18) 0.8286(3)
H2_3 H 0.751978 0.590084 0.804064
C8_3 C 0.5122(6) 0.70561(19) 0.9059(3)
C11_3 C 0.5427(7) 0.66056(19) 0.8862(3)
C12_3 C 0.5345(6) 0.5272(2) 0.9871(3)
C16_3 C 0.3591(7) 0.8950(2) 0.9604(3)
H5_3 H 0.313658 0.920688 0.951087
H7_2 H 0.356802 0.464449 0.978870
C19_3 C 0.6305(7) 0.8177(2) 0.8713(3)
H8_3 H 0.718635 0.808254 0.857606
H9_3 H 0.642569 0.840401 0.899466
H10_3 H 0.577430 0.828498 0.839280
C21_3 C 0.4622(6) 0.78690(18) 0.9413(2)
C28_3 C 0.2910(8) 0.5774(2) 0.8177(4)
H16_3 H 0.270302 0.601790 0.839886
C30_3 C 0.4191(7) 0.71286(18) 0.9489(3)
H20_3 H 0.373696 0.689465 0.965826
H23_3 H 0.215973 0.781215 0.995810
C34_3 C 0.3915(6) 0.75405(19) 0.9675(2)
C37_3 C 0.5810(6) 0.73944(18) 0.8811(2)
H28_3 H 0.644643 0.734013 0.851781
C40_3 C 0.3584(7) 0.85844(19) 0.9300(3)
H31_3 H 0.312892 0.853532 0.895037
C44_3 C 0.6588(8) 0.9431(2) 0.9843(3)
H38_3 H 0.690995 0.913796 0.979734
H39_3 H 0.735966 0.962431 0.986397
H40_3 H 0.602360 0.950792 0.951759
O1_4 O 0.0933(6) 0.06346(18) 0.3247(2)
O7_4 O 0.0309(5) 0.02724(14) 0.4405(2)
O8_4 O 0.0358(5) 0.52268(14) 0.7084(2)
O12_4 O 0.0119(6) 0.13138(16) 0.4164(2)
N1_4 N 0.0641(5) 0.33000(14) 0.4591(2)
N2_4 N 0.0612(5) 0.38784(14) 0.5079(2)
C1_4 C 0.1102(6) 0.42174(17) 0.5981(3)
C2_4 C 0.0300(6) 0.41943(17) 0.5506(2)
C14_4 C 0.0172(7) 0.3481(2) 0.5060(3)
C16_4 C 0.1409(7) 0.3950(2) 0.4604(3)
H5_4 H 0.186342 0.420688 0.451087
C17_4 C 0.0822(6) 0.45487(18) 0.6368(3)
H6_4 H 0.138218 0.458728 0.669148
C21_4 C 0.0378(6) 0.28690(18) 0.4413(2)
C28_4 C 0.2090(8) 0.0774(2) 0.3177(4)
H16_4 H 0.229698 0.101790 0.339886
C29_4 C 0.2238(7) 0.3913(2) 0.6078(3)
H17_4 H 0.291118 0.394756 0.577713
H18_4 H 0.265313 0.397091 0.644837
H19_4 H 0.189409 0.362065 0.607275
C30_4 C 0.0809(7) 0.21286(18) 0.4489(3)
H20_4 H 0.126304 0.189465 0.465826
C31_4 C 0.2147(8) 0.2625(2) 0.5118(3)
H21_4 H 0.173417 0.276357 0.544842
H22_4 H 0.255707 0.235592 0.523562
H23_4 H 0.284027 0.281215 0.495810
C34_4 C 0.1085(6) 0.25405(19) 0.4675(2)
C40_4 C 0.1416(7) 0.35844(19) 0.4300(3)
H31_4 H 0.187108 0.353532 0.395037
O14_2 O 0.1079(8) 0.62166(17) 0.6812(3)
N3_4 N 0.0712(5) 0.82431(15) 0.6697(2)
N4_4 N 0.0720(5) 0.88775(15) 0.6358(2)
C4_4 C 0.0519(6) 0.77876(18) 0.6766(3)
C10_4 C 0.0353(7) 0.69285(19) 0.6945(3)
C15_4 C 0.0217(7) 0.84867(19) 0.6290(3)
C18_4 C 0.0948(7) 0.96133(19) 0.5135(3)
H7_3 H 0.143198 0.964449 0.478870
C24_4 C 0.1272(7) 0.75142(19) 0.6415(3)
C25_4 C 0.1157(7) 0.70762(19) 0.6514(3)
H12_4 H 0.163860 0.688094 0.628242
C27_4 C 0.0454(7) 0.92337(19) 0.5979(3)
C32_4 C 0.0341(8) 0.6455(2) 0.7081(3)
C33_4 C 0.2207(9) 0.7681(2) 0.5960(3)
H24_4 H 0.293495 0.784420 0.613831
H25_4 H 0.258924 0.744207 0.574717
H26_4 H 0.170474 0.786603 0.570021
C36_4 C 0.1555(7) 0.8885(2) 0.6813(3)
H27_4 H 0.204832 0.912212 0.695096
C38_4 C 0.1548(8) 0.8483(2) 0.7035(3)
H29_4 H 0.202781 0.838836 0.736046
C41_4 C 0.1249(7) 0.92712(18) 0.5492(3)
C43_4 C 0.2346(9) 0.8957(2) 0.5356(3)
H35_4 H 0.284257 0.905382 0.502021
H36_4 H 0.296183 0.893548 0.568041
H37_4 H 0.194678 0.867791 0.527968
Zn2_4 Zn 0.97378(8) 0.07361(2) 0.38964(3)
O2_4 O 0.8846(6) 0.05461(16) 0.5016(2)
O3_4 O 0.8412(6) 0.53772(19) 0.6662(3)
O6_4 O 0.7910(5) 0.05525(13) 0.36752(19)
O9_4 O 0.8842(5) 0.15496(14) 0.34492(18)
C3_4 C 0.9470(7) 0.51757(19) 0.6703(3)
H1_4 H 0.854745 0.006505 0.585270
C6_4 C 0.9421(6) 0.28080(19) 0.3984(2)
C7_4 C 0.7151(7) 0.06845(18) 0.3286(3)
H2_4 H 0.748022 0.090084 0.304064
C8_4 C 0.9878(6) 0.20561(19) 0.4059(3)
C11_4 C 0.9573(7) 0.16056(19) 0.3862(3)
C12_4 C 0.9655(6) 0.0272(2) 0.4871(3)
C13_4 C 0.9740(7) 0.48187(19) 0.6281(3)
H3_4 H 0.961493 0.334837 0.533611
C19_4 C 0.8695(7) 0.3177(2) 0.3713(3)
H8_4 H 0.781365 0.308254 0.357606
H9_4 H 0.857431 0.340401 0.399466
H10_4 H 0.922570 0.328498 0.339280
C22_4 C 0.9232(7) 0.44648(19) 0.5389(3)
C37_4 C 0.9190(6) 0.23944(18) 0.3811(2)
H28_4 H 0.855357 0.234013 0.351781
C39_4 C 0.8955(6) 0.47781(19) 0.5796(3)
H30_4 H 0.821758 0.496565 0.573948
C44_4 C 0.8412(8) 0.4431(2) 0.4843(3)
H38_4 H 0.809005 0.413796 0.479734
H39_4 H 0.764034 0.462431 0.486397
H40_4 H 0.897640 0.450792 0.451759
O15_2 O 0.9621(5) 0.63294(14) 0.7493(2)
C5_4 C 0.9228(7) 0.98631(19) 0.5765(3)
C9_4 C 0.9469(6) 0.9525(2) 0.6138(3)
H4_4 H 0.960944 0.839946 0.600089
C20_4 C 0.9584(6) 0.7204(2) 0.7281(3)
H11_4 H 0.901934 0.709384 0.757189
C23_4 C 0.9651(6) 0.7648(2) 0.7186(3)
C26_4 C 0.8851(7) 0.79496(19) 0.7542(3)
H13_4 H 0.848995 0.817675 0.730016
H14_4 H 0.810710 0.779650 0.772296
H15_4 H 0.943132 0.807364 0.783490
C35_4 C 0.9967(6) 0.99071(19) 0.5270(3)
C42_4 C 0.8684(8) 0.9478(3) 0.6684(3)
H32_4 H 0.822265 0.974541 0.677030
H33_4 H 0.801907 0.924975 0.664050
H34_4 H 0.930098 0.940670 0.699479
H7_4 H 0.856802 0.035551 0.978870
loop_
_geom_bond_atom_site_label_1
_geom_bond_atom_site_label_2
_geom_bond_site_symmetry_1
_geom_bond_site_symmetry_2
Zn2 O1 1_555 1_555
O1 C28 1_555 1_555
O2 C12 1_555 1_555
O4 C28 1_555 1_555
O5 C32 1_555 1_555
O6 Zn2 1_555 1_555
O7 Zn2 1_555 1_555
O9 C11 1_555 1_555
O10 C32 1_555 1_555
O11 C7 1_555 1_555
O12 Zn2 1_555 1_555
N1 C14 1_555 1_555
N2 C2 1_555 1_555
N3 C4 1_555 1_555
N4 C15 1_555 1_555
C1 C2 1_555 1_555
C2 C22 1_555 1_555
C4 C23 1_555 1_555
C5 H1 1_555 1_555
C6 C19 1_555 1_555
C7 O6 1_555 1_555
H2 C7 1_555 1_555
C8 C11 1_555 1_555
C9 C5 1_555 1_555
C10 C20 1_555 1_555
C11 O12 1_555 1_555
C12 O7 1_555 1_555
C13 C17 1_555 1_555
C14 N2 1_555 1_555
H3 C14 1_555 1_555
C15 N3 1_555 1_555
H4 C15 1_555 1_555
C16 N2 1_555 1_555
H5 C16 1_555 1_555
C17 C1 1_555 1_555
H6 C17 1_555 1_555
C18 H7 1_555 1_555
C19 H8 1_555 1_555
H9 C19 1_555 1_555
H10 C19 1_555 1_555
C20 H11 1_555 1_555
C21 N1 1_555 1_555
C22 C39 1_555 1_555
C23 C20 1_555 1_555
C24 C4 1_555 1_555
C25 C10 1_555 1_555
H12 C25 1_555 1_555
C26 C23 1_555 1_555
H13 C26 1_555 1_555
H14 C26 1_555 1_555
H15 C26 1_555 1_555
C27 N4 1_555 1_555
C28 H16 1_555 1_555
C29 C1 1_555 1_555
H17 C29 1_555 1_555
H18 C29 1_555 1_555
H19 C29 1_555 1_555
C30 C8 1_555 1_555
H20 C30 1_555 1_555
C31 H21 1_555 1_555
H22 C31 1_555 1_555
H23 C31 1_555 1_555
C32 C10 1_555 1_555
C33 C24 1_555 1_555
H24 C33 1_555 1_555
H25 C33 1_555 1_555
H26 C33 1_555 1_555
C34 C21 1_555 1_555
C35 C5 1_555 1_555
C36 N4 1_555 1_555
H27 C36 1_555 1_555
C37 C6 1_555 1_555
H28 C37 1_555 1_555
C38 N3 1_555 1_555
H29 C38 1_555 1_555
C39 C13 1_555 1_555
H30 C39 1_555 1_555
C40 N1 1_555 1_555
H31 C40 1_555 1_555
C41 C18 1_555 1_555
C42 C9 1_555 1_555
H32 C42 1_555 1_555
H33 C42 1_555 1_555
H34 C42 1_555 1_555
C43 C41 1_555 1_555
H35 C43 1_555 1_555
H36 C43 1_555 1_555
H37 C43 1_555 1_555
C44 C22 1_555 1_555
H38 C44 1_555 1_555
H39 C44 1_555 1_555
H40 C44 1_555 1_555
Zn3 O5 1_555 1_555
Zn5 O4 1_555 1_555
O10 Zn3 1_555 1_555
C6 C21 1_555 1_555
C8 C37 1_555 1_555
C9 C27 1_555 1_555
C12 C35 1_555 1_555
C16 C40 1_555 1_555
C18 C35 1_555 1_555
C24 C25 1_555 1_555
C27 C41 1_555 1_555
C30 C34 1_555 1_555
C31 C34 1_555 1_555
C36 C38 1_555 1_555
Zn3 O8 1_555 1_555
O3 C3 1_555 1_555
O8 C3 1_555 1_555
O13 Zn3 1_555 1_555
O16 Zn3 1_555 1_555
C9_2 C5_2 1_555 1_555
C20_2 H11_2 1_555 1_555
C23_2 C20_2 1_555 1_555
C26_2 C23_2 1_555 1_555
H13_2 C26_2 1_555 1_555
H14_2 C26_2 1_555 1_555
H15_2 C26_2 1_555 1_555
C35_2 C5_2 1_555 1_555
C42_2 C9_2 1_555 1_555
H32_2 C42_2 1_555 1_555
H33_2 C42_2 1_555 1_555
H34_2 C42_2 1_555 1_555
O3_2 C3_2 1_555 1_555
C3_2 C13_2 1_555 1_555
C22_2 C39_2 1_555 1_555
C39_2 C13_2 1_555 1_555
H30_2 C39_2 1_555 1_555
O6_2 Zn2_2 1_555 1_555
O9_2 C11_2 1_555 1_555
O16 C7_2 1_555 1_555
C6_2 C19_2 1_555 1_555
C7_2 O6_2 1_555 1_555
H2_2 C7_2 1_555 1_555
C8_2 C11_2 1_555 1_555
C19_2 H8_2 1_555 1_555
H9_2 C19_2 1_555 1_555
H10_2 C19_2 1_555 1_555
C37_2 C6_2 1_555 1_555
H28_2 C37_2 1_555 1_555
H38_2 C44_2 1_555 1_555
H39_2 C44_2 1_555 1_555
H40_2 C44_2 1_555 1_555
C8_2 C37_2 1_555 1_555
O5_2 C32_2 1_555 1_555
N3_2 C4_2 1_555 1_555
N4_2 C15_2 1_555 1_555
C15_2 N3_2 1_555 1_555
C24_2 C4_2 1_555 1_555
C25_2 C10_2 1_555 1_555
H12_2 C25_2 1_555 1_555
C27_2 N4_2 1_555 1_555
C32_2 C10_2 1_555 1_555
C33_2 C24_2 1_555 1_555
H24_2 C33_2 1_555 1_555
H25_2 C33_2 1_555 1_555
H26_2 C33_2 1_555 1_555
C36_2 N4_2 1_555 1_555
H27_2 C36_2 1_555 1_555
C38_2 N3_2 1_555 1_555
H29_2 C38_2 1_555 1_555
C41_2 C18_2 1_555 1_555
C43_2 C41_2 1_555 1_555
H35_2 C43_2 1_555 1_555
H36_2 C43_2 1_555 1_555
H37_2 C43_2 1_555 1_555
Zn5 O5_2 1_555 1_555
C24_2 C25_2 1_555 1_555
C27_2 C41_2 1_555 1_555
C36_2 C38_2 1_555 1_555
Zn5 O8_2 1_555 1_555
N2_2 C2_2 1_555 1_555
C1_2 C2_2 1_555 1_555
C14_2 N2_2 1_555 1_555
C17_2 C1_2 1_555 1_555
H6_2 C17_2 1_555 1_555
C29_2 C1_2 1_555 1_555
H17_2 C29_2 1_555 1_555
H18_2 C29_2 1_555 1_555
H19_2 C29_2 1_555 1_555
C31_2 H21_2 1_555 1_555
H22_2 C31_2 1_555 1_555
O1_2 C28_2 1_555 1_555
O13 C28_2 1_555 1_555
H5_2 C16_2 1_555 1_555
C21_2 N1_2 1_555 1_555
C28_2 H16_2 1_555 1_555
H20_2 C30_2 1_555 1_555
C34_2 C21_2 1_555 1_555
C40_2 N1_2 1_555 1_555
H31_2 C40_2 1_555 1_555
C16_2 C40_2 1_555 1_555
C30_2 C34_2 1_555 1_555
Zn1 O8_3 1_555 1_555
O3_3 C3_3 1_555 1_555
O8_3 C3_3 1_555 1_555
O13_2 Zn1 1_555 1_555
O14 Zn1 1_555 1_555
O15 Zn1 1_555 1_555
O16_2 Zn1 1_555 1_555
O14 C32_3 1_555 1_555
O15 C32_3 1_555 1_555
N2_3 C2_3 1_555 1_555
N3_3 C4_3 1_555 1_555
N4_3 C15_3 1_555 1_555
C1_3 C2_3 1_555 1_555
C2_3 C22_3 1_555 1_555
C4_3 C23_3 1_555 1_555
C5_3 H1_3 1_555 1_555
C9_3 C5_3 1_555 1_555
C10_3 C20_3 1_555 1_555
C13_3 C17_3 1_555 1_555
C14_3 N2_3 1_555 1_555
H3_3 C14_3 1_555 1_555
C15_3 N3_3 1_555 1_555
H4_3 C15_3 1_555 1_555
C17_3 C1_3 1_555 1_555
H6_3 C17_3 1_555 1_555
C20_3 H11_3 1_555 1_555
C22_3 C39_3 1_555 1_555
C23_3 C20_3 1_555 1_555
C24_3 C4_3 1_555 1_555
C25_3 C10_3 1_555 1_555
H12_3 C25_3 1_555 1_555
C26_3 C23_3 1_555 1_555
H13_3 C26_3 1_555 1_555
H14_3 C26_3 1_555 1_555
H15_3 C26_3 1_555 1_555
C27_3 N4_3 1_555 1_555
C29_3 C1_3 1_555 1_555
H17_3 C29_3 1_555 1_555
H18_3 C29_3 1_555 1_555
H19_3 C29_3 1_555 1_555
C31_3 H21_3 1_555 1_555
H22_3 C31_3 1_555 1_555
C32_3 C10_3 1_555 1_555
C33_3 C24_3 1_555 1_555
H24_3 C33_3 1_555 1_555
H25_3 C33_3 1_555 1_555
H26_3 C33_3 1_555 1_555
C35_3 C5_3 1_555 1_555
C36_3 N4_3 1_555 1_555
H27_3 C36_3 1_555 1_555
C38_3 N3_3 1_555 1_555
H29_3 C38_3 1_555 1_555
C39_3 C13_3 1_555 1_555
H30_3 C39_3 1_555 1_555
C41_3 C18_3 1_555 1_555
C42_3 C9_3 1_555 1_555
H32_3 C42_3 1_555 1_555
H33_3 C42_3 1_555 1_555
H34_3 C42_3 1_555 1_555
C43_3 C41_3 1_555 1_555
H35_3 C43_3 1_555 1_555
H36_3 C43_3 1_555 1_555
H37_3 C43_3 1_555 1_555
C9_3 C27_3 1_555 1_555
C18_3 C35_3 1_555 1_555
C24_3 C25_3 1_555 1_555
C27_3 C41_3 1_555 1_555
C36_3 C38_3 1_555 1_555
Zn2_3 O1_3 1_555 1_555
O1_3 C28_3 1_555 1_555
O4_2 C28_3 1_555 1_555
O6_3 Zn2_3 1_555 1_555
O7_3 Zn2_3 1_555 1_555
O9_3 C11_3 1_555 1_555
O11_2 C7_3 1_555 1_555
O12_3 Zn2_3 1_555 1_555
C6_3 C19_3 1_555 1_555
C7_3 O6_3 1_555 1_555
H2_3 C7_3 1_555 1_555
C8_3 C11_3 1_555 1_555
C11_3 O12_3 1_555 1_555
C12_3 O7_3 1_555 1_555
H5_3 C16_3 1_555 1_555
C19_3 H8_3 1_555 1_555
H9_3 C19_3 1_555 1_555
H10_3 C19_3 1_555 1_555
C21_3 N1_3 1_555 1_555
C28_3 H16_3 1_555 1_555
C30_3 C8_3 1_555 1_555
H20_3 C30_3 1_555 1_555
C34_3 C21_3 1_555 1_555
C37_3 C6_3 1_555 1_555
H28_3 C37_3 1_555 1_555
C40_3 N1_3 1_555 1_555
H31_3 C40_3 1_555 1_555
H38_3 C44_3 1_555 1_555
H39_3 C44_3 1_555 1_555
H40_3 C44_3 1_555 1_555
Zn4 O4_2 1_555 1_555
C6_3 C21_3 1_555 1_555
C8_3 C37_3 1_555 1_555
C16_3 C40_3 1_555 1_555
C30_3 C34_3 1_555 1_555
Zn4 O8_4 1_555 1_555
O1_4 C28_4 1_555 1_555
O13_2 C28_4 1_555 1_555
N1_4 C14_4 1_555 1_555
N2_4 C2_4 1_555 1_555
C1_4 C2_4 1_555 1_555
C14_4 N2_4 1_555 1_555
C16_4 N2_4 1_555 1_555
H5_4 C16_4 1_555 1_555
C17_4 C1_4 1_555 1_555
H6_4 C17_4 1_555 1_555
C21_4 N1_4 1_555 1_555
C28_4 H16_4 1_555 1_555
C29_4 C1_4 1_555 1_555
H17_4 C29_4 1_555 1_555
H18_4 C29_4 1_555 1_555
H19_4 C29_4 1_555 1_555
H20_4 C30_4 1_555 1_555
C31_4 H21_4 1_555 1_555
H22_4 C31_4 1_555 1_555
H23_4 C31_4 1_555 1_555
C34_4 C21_4 1_555 1_555
C40_4 N1_4 1_555 1_555
H31_4 C40_4 1_555 1_555
O14_2 Zn4 1_555 1_555
C16_4 C40_4 1_555 1_555
C30_4 C34_4 1_555 1_555
C31_4 C34_4 1_555 1_555
O14_2 C32_4 1_555 1_555
N3_4 C4_4 1_555 1_555
N4_4 C15_4 1_555 1_555
C15_4 N3_4 1_555 1_555
C18_4 H7_3 1_555 1_555
C24_4 C4_4 1_555 1_555
C25_4 C10_4 1_555 1_555
H12_4 C25_4 1_555 1_555
C27_4 N4_4 1_555 1_555
C32_4 C10_4 1_555 1_555
C33_4 C24_4 1_555 1_555
H24_4 C33_4 1_555 1_555
H25_4 C33_4 1_555 1_555
H26_4 C33_4 1_555 1_555
C36_4 N4_4 1_555 1_555
H27_4 C36_4 1_555 1_555
C38_4 N3_4 1_555 1_555
H29_4 C38_4 1_555 1_555
C41_4 C18_4 1_555 1_555
C43_4 C41_4 1_555 1_555
H35_4 C43_4 1_555 1_555
H36_4 C43_4 1_555 1_555
H37_4 C43_4 1_555 1_555
C24_4 C25_4 1_555 1_555
C27_4 C41_4 1_555 1_555
C36_4 C38_4 1_555 1_555
O2_4 C12_4 1_555 1_555
O3_4 C3_4 1_555 1_555
O6_4 Zn2_4 1_555 1_555
O9_4 C11_4 1_555 1_555
O16_2 C7_4 1_555 1_555
C3_4 C13_4 1_555 1_555
C6_4 C19_4 1_555 1_555
C7_4 O6_4 1_555 1_555
H2_4 C7_4 1_555 1_555
C8_4 C11_4 1_555 1_555
C19_4 H8_4 1_555 1_555
H9_4 C19_4 1_555 1_555
H10_4 C19_4 1_555 1_555
C22_4 C39_4 1_555 1_555
C37_4 C6_4 1_555 1_555
H28_4 C37_4 1_555 1_555
C39_4 C13_4 1_555 1_555
H30_4 C39_4 1_555 1_555
C44_4 C22_4 1_555 1_555
H38_4 C44_4 1_555 1_555
H39_4 C44_4 1_555 1_555
H40_4 C44_4 1_555 1_555
C8_4 C37_4 1_555 1_555
C9_4 C5_4 1_555 1_555
C20_4 H11_4 1_555 1_555
C23_4 C20_4 1_555 1_555
C26_4 C23_4 1_555 1_555
H13_4 C26_4 1_555 1_555
H14_4 C26_4 1_555 1_555
H15_4 C26_4 1_555 1_555
C35_4 C5_4 1_555 1_555
C42_4 C9_4 1_555 1_555
H32_4 C42_4 1_555 1_555
H33_4 C42_4 1_555 1_555
H34_4 C42_4 1_555 1_555

#END
