
###############################################################################
#
# This file contains modified crystal structure data generated from the
# MOF subset of the Cambridge Structural Database (CSD) v543 
# hosted by the Cambridge Crystallographic Data Centre (CCDC).
#
# This work is licensed under the Creative Commons
# Attribution-NonCommercial-ShareAlike 4.0 International License.
# To view a copy of this license, visit
# http://creativecommons.org/licenses/by-nc-sa/4.0/
# or send a letter to
# Creative Commons, PO Box 1866, Mountain View, CA 94042, USA.
#
# CIF created using the CSD Python API on 29 September 2022
# The structure has been converted into the P1 space group
# The structure has a 3D framework
# The original CSD entry MABHUW is in the monoclinic crystal system
# The framework has been calculated to contain at least 10.0% void space
# The void calculation uses a probe of radius 1.32A, grid spacing 0.4
#
###############################################################################

data_MABHUW
_chemical_formula_moiety         '(C44 H44 N4 O24 Zn4)n'
_symmetry_cell_setting           triclinic
_symmetry_space_group_name_H-M   'P 1'
_symmetry_Int_Tables_number      1
_space_group_name_Hall           'P 1'
loop_
_symmetry_equiv_pos_site_id
_symmetry_equiv_pos_as_xyz
1 x,y,z
_cell_length_a                   9.4352(3)
_cell_length_b                   15.3422(4)
_cell_length_c                   13.2775(4)
_cell_angle_alpha                90
_cell_angle_beta                 106.271(3)
_cell_angle_gamma                90
_cell_volume                     1845.03
loop_
_atom_site_label
_atom_site_type_symbol
_atom_site_fract_x
_atom_site_fract_y
_atom_site_fract_z
O1 O 0.0645(4) 0.1040(2) 0.6203(3)
Zn3 Zn 0.37451(6) 0.40433(3) 0.01331(4)
Zn1 Zn 0.87451(6) 0.09567(3) 0.51331(4)
O3 O 0.7164(4) 0.0978(2) 0.5832(3)
O4 O 0.8340(4) 0.1917(2) 0.4088(3)
C1 C 0.7087(5) 0.1645(3) 0.6406(4)
O5 O 0.8072(4) 0.2214(2) 0.6650(3)
C2 C 0.5719(5) 0.1713(3) 0.6761(3)
C3 C 0.5651(6) 0.2338(3) 0.7506(4)
C4 C 0.4486(6) 0.1189(3) 0.6344(4)
C5 C 0.4382(5) 0.2440(3) 0.7834(4)
H1 H 0.6474 0.2696 0.7792
C6 C 0.3233(5) 0.1302(3) 0.6652(3)
H2 H 0.4518 0.0757 0.5849
C7 C 0.4397(6) 0.3113(3) 0.8667(4)
C8 C 0.3129(5) 0.1912(3) 0.7401(4)
C9 C 0.1858(5) 0.0767(3) 0.6128(3)
O6 O 0.5347(5) 0.3665(3) 0.8886(3)
H3 H 0.2262 0.1971 0.7612
O7 O 0.3340(4) 0.3083(2) 0.9088(3)
O8 O 0.2061(4) 0.0097(2) 0.5640(2)
O2 O 0.7939(4) 0.9903(2) 0.4360(2)
Zn2 Zn 0.12549(6) 0.90433(3) 0.48669(4)
C4_2 C 0.0514(6) 0.6189(3) 0.8656(4)
C5_2 C 0.0618(5) 0.7440(3) 0.7166(4)
C6_2 C 0.1767(5) 0.6302(3) 0.8348(3)
H2_2 H 0.0482 0.5757 0.9151
C7_2 C 0.0603(6) 0.8113(3) 0.6333(4)
C8_2 C 0.1871(5) 0.6912(3) 0.7599(4)
C9_2 C 0.3142(5) 0.5767(3) 0.8872(3)
H3_2 H 0.2738 0.6971 0.7388
O7_2 O 0.1660(4) 0.8083(2) 0.5912(3)
O8_2 O 0.2939(4) 0.5097(2) 0.9360(2)
O9 O 0.4355(4) 0.6040(2) 0.8797(3)
Zn4 Zn 0.62549(6) 0.59567(3) 0.98669(4)
O2_2 O 0.7061(4) 0.4903(2) 0.0640(2)
O4_2 O 0.6660(4) 0.6917(2) 0.0912(3)
O3_2 O 0.7836(4) 0.5978(2) 0.9168(3)
C1_2 C 0.7913(5) 0.6645(3) 0.8594(4)
O5_2 O 0.6928(4) 0.7214(2) 0.8350(3)
C2_2 C 0.9281(5) 0.6713(3) 0.8239(3)
C3_2 C 0.9349(6) 0.7338(3) 0.7494(4)
H1_2 H 0.8526 0.7696 0.7208
O6_2 O 0.9653(5) 0.8665(3) 0.6114(3)
O3_3 O 0.2836(4) 0.9022(2) 0.4168(3)
C1_3 C 0.2913(5) 0.8355(3) 0.3594(4)
O5_3 O 0.1928(4) 0.7786(2) 0.3350(3)
C2_3 C 0.4281(5) 0.8287(3) 0.3239(3)
C3_3 C 0.4349(6) 0.7662(3) 0.2494(4)
C4_3 C 0.5514(6) 0.8811(3) 0.3656(4)
C5_3 C 0.5618(5) 0.7560(3) 0.2166(4)
H1_3 H 0.3526 0.7304 0.2208
C6_3 C 0.6767(5) 0.8698(3) 0.3348(3)
H2_3 H 0.5482 0.9243 0.4151
C7_3 C 0.5603(6) 0.6887(3) 0.1333(4)
C8_3 C 0.6871(5) 0.8088(3) 0.2599(4)
C9_3 C 0.8142(5) 0.9233(3) 0.3872(3)
O6_3 O 0.4653(5) 0.6335(3) 0.1114(3)
H3_3 H 0.7738 0.8029 0.2388
O9_2 O 0.9355(4) 0.8960(2) 0.3797(3)
O1_2 O 0.5645(4) 0.3960(2) 0.1203(3)
O3_4 O 0.2164(4) 0.4022(2) 0.0832(3)
C1_4 C 0.2087(5) 0.3355(3) 0.1406(4)
O5_4 O 0.3072(4) 0.2786(2) 0.1650(3)
C2_4 C 0.0719(5) 0.3287(3) 0.1761(3)
C3_4 C 0.0651(6) 0.2662(3) 0.2506(4)
H1_4 H 0.1474 0.2304 0.2792
O6_4 O 0.0347(5) 0.1335(3) 0.3886(3)
C4_4 C 0.9486(6) 0.3811(3) 0.1344(4)
C5_4 C 0.9382(5) 0.2560(3) 0.2834(4)
C6_4 C 0.8233(5) 0.3698(3) 0.1652(3)
H2_4 H 0.9518 0.4243 0.0849
C7_4 C 0.9397(6) 0.1887(3) 0.3667(4)
C8_4 C 0.8129(5) 0.3088(3) 0.2401(4)
C9_4 C 0.6858(5) 0.4233(3) 0.1128(3)
H3_4 H 0.7262 0.3029 0.2612
H7 H 0.0297 0.3208 0.5674
C11 C 0.0537(9) 0.4056(4) 0.7401(7)
H9 H 0.0892 0.4616 0.7233
H10 H 0.1287 0.3616 0.7434
H11 H 0.0328 0.4093 0.8075
N1 N 0.9219(7) 0.3826(3) 0.6607(5)
H4 H 0.8558 0.4262 0.6528
H5 H 0.8821 0.3346 0.6807
C10 C 0.9546(11) 0.3656(6) 0.5579(7)
H6 H 0.8654 0.3464 0.5065
H8 H 0.9900 0.4188 0.5336
N1_2 N 0.5781(7) 0.8826(3) 0.8393(5)
H4_2 H 0.6442 0.9262 0.8472
H5_2 H 0.6179 0.8346 0.8193
C10_2 C 0.5454(11) 0.8656(6) 0.9421(7)
H6_2 H 0.6346 0.8464 0.9935
H7_2 H 0.4703 0.8208 0.9326
H8_2 H 0.5100 0.9188 0.9664
C11_2 C 0.4463(9) 0.9056(4) 0.7599(7)
H9_2 H 0.4108 0.9616 0.7767
H10_2 H 0.3713 0.8616 0.7566
H11_2 H 0.4672 0.9093 0.6925
N1_3 N 0.0781(7) 0.6174(3) 0.3393(5)
H4_3 H 0.1442 0.5738 0.3472
H5_3 H 0.1179 0.6654 0.3193
C10_3 C 0.0454(11) 0.6344(6) 0.4421(7)
H6_3 H 0.1346 0.6536 0.4935
H8_3 H 0.0100 0.5812 0.4664
H7_3 H 0.9703 0.6792 0.4326
C11_3 C 0.9463(9) 0.5944(4) 0.2599(7)
H9_3 H 0.9108 0.5384 0.2767
H10_3 H 0.8713 0.6384 0.2566
H11_3 H 0.9672 0.5907 0.1925
N1_4 N 0.4219(7) 0.1174(3) 0.1607(5)
H4_4 H 0.3558 0.0738 0.1528
H5_4 H 0.3821 0.1654 0.1807
C10_4 C 0.4546(11) 0.1344(6) 0.0579(7)
H6_4 H 0.3654 0.1536 0.0065
H7_4 H 0.5297 0.1792 0.0674
H8_4 H 0.4900 0.0812 0.0336
C11_4 C 0.5537(9) 0.0944(4) 0.2401(7)
H9_4 H 0.5892 0.0384 0.2233
H10_4 H 0.6287 0.1384 0.2434
H11_4 H 0.5328 0.0907 0.3075
loop_
_geom_bond_atom_site_label_1
_geom_bond_atom_site_label_2
_geom_bond_site_symmetry_1
_geom_bond_site_symmetry_2
O3 Zn1 1_555 1_555
O4 Zn1 1_555 1_555
C1 O3 1_555 1_555
O5 C1 1_555 1_555
C2 C1 1_555 1_555
C3 C2 1_555 1_555
C4 C2 1_555 1_555
C5 C3 1_555 1_555
H1 C3 1_555 1_555
C6 C4 1_555 1_555
H2 C4 1_555 1_555
C7 C5 1_555 1_555
C8 C5 1_555 1_555
C9 C6 1_555 1_555
O6 C7 1_555 1_555
H3 C8 1_555 1_555
O7 C7 1_555 1_555
O8 C9 1_555 1_555
O1 C9 1_555 1_555
C6 C8 1_555 1_555
C6_2 C4_2 1_555 1_555
H2_2 C4_2 1_555 1_555
C7_2 C5_2 1_555 1_555
C8_2 C5_2 1_555 1_555
C9_2 C6_2 1_555 1_555
H3_2 C8_2 1_555 1_555
O7_2 C7_2 1_555 1_555
O8_2 C9_2 1_555 1_555
O9 C9_2 1_555 1_555
Zn2 O7_2 1_555 1_555
Zn4 O9 1_555 1_555
C6_2 C8_2 1_555 1_555
O3_2 Zn4 1_555 1_555
C1_2 O3_2 1_555 1_555
O5_2 C1_2 1_555 1_555
C2_2 C1_2 1_555 1_555
C3_2 C2_2 1_555 1_555
H1_2 C3_2 1_555 1_555
O3_3 Zn2 1_555 1_555
C1_3 O3_3 1_555 1_555
O5_3 C1_3 1_555 1_555
C2_3 C1_3 1_555 1_555
C3_3 C2_3 1_555 1_555
C4_3 C2_3 1_555 1_555
C5_3 C3_3 1_555 1_555
H1_3 C3_3 1_555 1_555
C6_3 C4_3 1_555 1_555
H2_3 C4_3 1_555 1_555
C7_3 C5_3 1_555 1_555
C8_3 C5_3 1_555 1_555
C9_3 C6_3 1_555 1_555
O6_3 C7_3 1_555 1_555
H3_3 C8_3 1_555 1_555
O4_2 C7_3 1_555 1_555
O2 C9_3 1_555 1_555
O9_2 C9_3 1_555 1_555
C6_3 C8_3 1_555 1_555
Zn3 O1_2 1_555 1_555
O3_4 Zn3 1_555 1_555
C1_4 O3_4 1_555 1_555
O5_4 C1_4 1_555 1_555
C2_4 C1_4 1_555 1_555
C3_4 C2_4 1_555 1_555
H1_4 C3_4 1_555 1_555
C6_4 C4_4 1_555 1_555
H2_4 C4_4 1_555 1_555
C7_4 C5_4 1_555 1_555
C8_4 C5_4 1_555 1_555
C9_4 C6_4 1_555 1_555
H3_4 C8_4 1_555 1_555
O4 C7_4 1_555 1_555
O2_2 C9_4 1_555 1_555
O1_2 C9_4 1_555 1_555
C6_4 C8_4 1_555 1_555
H9 C11 1_555 1_555
H10 C11 1_555 1_555
H11 C11 1_555 1_555
N1 H4 1_555 1_555
H5 N1 1_555 1_555
C10 N1 1_555 1_555
H6 C10 1_555 1_555
H8 C10 1_555 1_555
N1_2 H4_2 1_555 1_555
H5_2 N1_2 1_555 1_555
C10_2 N1_2 1_555 1_555
H6_2 C10_2 1_555 1_555
H7_2 C10_2 1_555 1_555
H8_2 C10_2 1_555 1_555
C11_2 N1_2 1_555 1_555
H9_2 C11_2 1_555 1_555
H10_2 C11_2 1_555 1_555
H11_2 C11_2 1_555 1_555
N1_3 H4_3 1_555 1_555
H5_3 N1_3 1_555 1_555
C10_3 N1_3 1_555 1_555
H6_3 C10_3 1_555 1_555
H8_3 C10_3 1_555 1_555
H9_3 C11_3 1_555 1_555
H10_3 C11_3 1_555 1_555
H11_3 C11_3 1_555 1_555
N1_4 H4_4 1_555 1_555
H5_4 N1_4 1_555 1_555
C10_4 N1_4 1_555 1_555
H6_4 C10_4 1_555 1_555
H7_4 C10_4 1_555 1_555
H8_4 C10_4 1_555 1_555
C11_4 N1_4 1_555 1_555
H9_4 C11_4 1_555 1_555
H10_4 C11_4 1_555 1_555
H11_4 C11_4 1_555 1_555

#END
