
###############################################################################
#
# This file contains modified crystal structure data generated from the
# MOF subset of the Cambridge Structural Database (CSD) v543 
# hosted by the Cambridge Crystallographic Data Centre (CCDC).
#
# This work is licensed under the Creative Commons
# Attribution-NonCommercial-ShareAlike 4.0 International License.
# To view a copy of this license, visit
# http://creativecommons.org/licenses/by-nc-sa/4.0/
# or send a letter to
# Creative Commons, PO Box 1866, Mountain View, CA 94042, USA.
#
# CIF created using the CSD Python API on 29 September 2022
# The structure has been converted into the P1 space group
# The structure has a 3D framework
# The original CSD entry MABJUV01 is in the monoclinic crystal system
# The framework has been calculated to contain at least 10.0% void space
# The void calculation uses a probe of radius 1.32A, grid spacing 0.4
#
###############################################################################

data_MABJUV01
_chemical_formula_moiety         '(C80 H80 Cu8 N8 O32)n'
_symmetry_cell_setting           triclinic
_symmetry_space_group_name_H-M   'P 1'
_symmetry_Int_Tables_number      1
_space_group_name_Hall           'P 1'
loop_
_symmetry_equiv_pos_site_id
_symmetry_equiv_pos_as_xyz
1 x,y,z
_cell_length_a                   21.191(2)
_cell_length_b                   13.1900(13)
_cell_length_c                   8.5212(9)
_cell_angle_alpha                90
_cell_angle_beta                 100.314(2)
_cell_angle_gamma                90
_cell_volume                     2343.27
loop_
_atom_site_label
_atom_site_type_symbol
_atom_site_fract_x
_atom_site_fract_y
_atom_site_fract_z
Cu8 Cu 0.802578(15) 0.79418(2) 0.07530(4)
O12 O 0.74287(10) 0.58145(15) 0.0105(3)
O14 O 0.66106(10) 0.72374(16) 0.1210(2)
Cu1 Cu 0.302578(15) 0.29418(2) 0.07530(4)
N1 N 0.38018(11) 0.37120(18) 0.2280(3)
O1 O 0.33309(9) 0.15576(14) 0.1327(2)
O2 O 0.24287(10) 0.08145(15) 0.0105(3)
C1 C 0.29801(13) 0.0793(2) 0.0937(3)
C6 C 0.38065(15) 0.4719(2) 0.2398(4)
H7 H 0.3482 0.5093 0.1728
C7 C 0.42627(16) 0.5243(2) 0.3453(5)
H8 H 0.4243 0.5962 0.3500
C8 C 0.47476(13) 0.4730(2) 0.4440(3)
C9 C 0.47340(15) 0.3680(2) 0.4330(4)
H9 H 0.5049 0.3286 0.4995
C10 C 0.42610(15) 0.3212(2) 0.3252(4)
H10 H 0.4262 0.2492 0.3198
C11 C 0.52524(13) 0.5270(2) 0.5560(3)
C12 C 0.57373(16) 0.4757(2) 0.6547(5)
C13 C 0.61935(15) 0.5281(2) 0.7602(4)
N2 N 0.61982(11) 0.62880(18) 0.7720(3)
C14 C 0.57390(15) 0.6788(2) 0.6748(4)
C15 C 0.52660(15) 0.6320(2) 0.5670(4)
H11 H 0.4951 0.6714 0.5005
H12 H 0.5738 0.7508 0.6802
H13 H 0.6518 0.4907 0.8272
H14 H 0.5757 0.4038 0.6500
H17 H 0.1642 0.5959 0.0511
H18 H 0.2335 0.6145 0.0058
Cu2 Cu 0.697422(15) 0.70582(2) 0.92470(4)
O9 O 0.25264(10) 0.29090(15) 0.2496(2)
O11 O 0.66691(9) 0.84424(14) 0.8673(2)
O13 O 0.74736(10) 0.70910(15) 0.7504(2)
O5 O 0.16691(9) 0.34424(14) 0.8673(2)
O6 O 0.25713(10) 0.41855(15) 0.9895(3)
O7 O 0.25264(10) 0.70910(15) 0.7496(2)
O8 O 0.16106(10) 0.77626(16) 0.6210(2)
C16 C 0.20199(13) 0.4207(2) 0.9063(3)
C17 C 0.17548(14) 0.5221(2) 0.8422(3)
H15 H 0.1950 0.5398 0.7485
H16 H 0.1287 0.5150 0.8048
C18 C 0.18709(14) 0.6096(2) 0.9616(3)
C19 C 0.16371(14) 0.7106(2) 0.8827(3)
H19 H 0.1735 0.7658 0.9620
H20 H 0.1166 0.7078 0.8480
C20 C 0.19484(14) 0.73412(19) 0.7403(3)
Cu3 Cu 0.197422(15) 0.20582(2) 0.92470(4)
O10 O 0.33894(10) 0.27626(16) 0.8790(2)
Cu6 Cu 0.302578(15) 0.70582(2) 0.57530(4)
Cu7 Cu 0.197422(15) 0.79418(2) 0.42470(4)
O3 O 0.24736(10) 0.79090(15) 0.2504(2)
O4 O 0.33894(10) 0.72374(16) 0.3790(2)
C2 C 0.32452(14) 0.9779(2) 0.1578(3)
H1 H 0.3050 0.9602 0.2515
H2 H 0.3713 0.9850 0.1952
C3 C 0.31291(14) 0.8904(2) 0.0384(3)
C4 C 0.33629(14) 0.7894(2) 0.1173(3)
H5 H 0.3265 0.7342 0.0380
H6 H 0.3834 0.7922 0.1520
C5 C 0.30516(14) 0.76588(19) 0.2597(3)
O14_2 O 0.16106(10) 0.22374(16) 0.1210(2)
C11_2 C 0.02524(13) 0.0270(2) 0.5560(3)
C13_2 C 0.11935(15) 0.0281(2) 0.7602(4)
N2_2 N 0.11982(11) 0.12880(18) 0.7720(3)
C14_2 C 0.07390(15) 0.1788(2) 0.6748(4)
C15_2 C 0.02660(15) 0.1320(2) 0.5670(4)
H12_2 H 0.0738 0.2508 0.6802
O13_2 O 0.24736(10) 0.20910(15) 0.7504(2)
O7_2 O 0.75264(10) 0.20910(15) 0.7496(2)
O8_2 O 0.66106(10) 0.27626(16) 0.6210(2)
C17_2 C 0.67548(14) 0.0221(2) 0.8422(3)
H15_2 H 0.6950 0.0398 0.7485
H16_2 H 0.6287 0.0150 0.8048
C18_2 C 0.68709(14) 0.1096(2) 0.9616(3)
C19_2 C 0.66371(14) 0.2106(2) 0.8827(3)
H19_2 H 0.6735 0.2658 0.9620
H20_2 H 0.6166 0.2078 0.8480
C20_2 C 0.69484(14) 0.23412(19) 0.7403(3)
Cu6_2 Cu 0.802578(15) 0.20582(2) 0.57530(4)
Cu7_2 Cu 0.697422(15) 0.29418(2) 0.42470(4)
N1_2 N 0.88018(11) 0.87120(18) 0.2280(3)
O1_2 O 0.83309(9) 0.65576(14) 0.1327(2)
O3_2 O 0.74736(10) 0.29090(15) 0.2504(2)
O4_2 O 0.83894(10) 0.22374(16) 0.3790(2)
C1_2 C 0.79801(13) 0.5793(2) 0.0937(3)
C2_2 C 0.82452(14) 0.4779(2) 0.1578(3)
H1_2 H 0.8050 0.4602 0.2515
H2_2 H 0.8713 0.4850 0.1952
C3_2 C 0.81291(14) 0.3904(2) 0.0384(3)
C4_2 C 0.83629(14) 0.2894(2) 0.1173(3)
H5_2 H 0.8265 0.2342 0.0380
H6_2 H 0.8834 0.2922 0.1520
C5_2 C 0.80516(14) 0.26588(19) 0.2597(3)
C6_2 C 0.88065(15) 0.9719(2) 0.2398(4)
C8_2 C 0.97476(13) 0.9730(2) 0.4440(3)
C9_2 C 0.97340(15) 0.8680(2) 0.4330(4)
C10_2 C 0.92610(15) 0.8212(2) 0.3252(4)
H10_2 H 0.9262 0.7492 0.3198
O9_2 O 0.75264(10) 0.79090(15) 0.2496(2)
H3 H 0.8358 0.4041 0.9489
H4 H 0.7665 0.3855 0.9942
O6_2 O 0.75713(10) 0.91855(15) 0.9895(3)
C16_2 C 0.70199(13) 0.9207(2) 0.9063(3)
O10_2 O 0.83894(10) 0.77626(16) 0.8790(2)
N1_3 N 0.61982(11) 0.37120(18) 0.2720(3)
O1_3 O 0.66691(9) 0.15576(14) 0.3673(2)
O2_2 O 0.75713(10) 0.08145(15) 0.4895(3)
C1_3 C 0.70199(13) 0.0793(2) 0.4063(3)
C6_3 C 0.61935(15) 0.4719(2) 0.2602(4)
H7_2 H 0.6518 0.5093 0.3272
C7_2 C 0.57373(16) 0.5243(2) 0.1547(5)
H8_2 H 0.5757 0.5962 0.1500
C8_3 C 0.52524(13) 0.4730(2) 0.0560(3)
C9_3 C 0.52660(15) 0.3680(2) 0.0670(4)
H9_2 H 0.4951 0.3286 0.0005
C10_3 C 0.57390(15) 0.3212(2) 0.1748(4)
H10_3 H 0.5738 0.2492 0.1802
O5_2 O 0.83309(9) 0.34424(14) 0.6327(2)
O6_3 O 0.74287(10) 0.41855(15) 0.5105(3)
C16_3 C 0.79801(13) 0.4207(2) 0.5937(3)
C17_3 C 0.82452(14) 0.5221(2) 0.6578(3)
H15_3 H 0.8050 0.5398 0.7515
H16_3 H 0.8713 0.5150 0.6952
C18_3 C 0.81291(14) 0.6096(2) 0.5384(3)
H17_2 H 0.8358 0.5959 0.4489
H18_2 H 0.7665 0.6145 0.4942
C19_3 C 0.83629(14) 0.7106(2) 0.6173(3)
H19_3 H 0.8265 0.7658 0.5380
H20_3 H 0.8834 0.7078 0.6520
C20_3 C 0.80516(14) 0.73412(19) 0.7597(3)
C11_3 C 0.47476(13) 0.5270(2) 0.9440(3)
C12_2 C 0.42627(16) 0.4757(2) 0.8453(5)
C13_3 C 0.38065(15) 0.5281(2) 0.7398(4)
N2_3 N 0.38018(11) 0.62880(18) 0.7280(3)
C14_3 C 0.42610(15) 0.6788(2) 0.8252(4)
C15_3 C 0.47340(15) 0.6320(2) 0.9330(4)
H11_2 H 0.5049 0.6714 0.9995
H12_3 H 0.4262 0.7508 0.8198
H13_2 H 0.3482 0.4907 0.6728
H14_2 H 0.4243 0.4038 0.8500
O11_2 O 0.33309(9) 0.84424(14) 0.6327(2)
O12_2 O 0.25713(10) 0.58145(15) 0.4895(3)
C2_3 C 0.67548(14) 0.9779(2) 0.3422(3)
H1_3 H 0.6950 0.9602 0.2485
H2_3 H 0.6287 0.9850 0.3048
C3_3 C 0.68709(14) 0.8904(2) 0.4616(3)
H3_2 H 0.6642 0.9041 0.5511
H4_2 H 0.7335 0.8855 0.5058
C4_3 C 0.66371(14) 0.7894(2) 0.3827(3)
H5_3 H 0.6735 0.7342 0.4620
H6_3 H 0.6166 0.7922 0.3480
C5_3 C 0.69484(14) 0.76588(19) 0.2403(3)
H7_3 H 0.1518 0.0093 0.3272
C7_3 C 0.07373(16) 0.0243(2) 0.1547(5)
H8_3 H 0.0757 0.0962 0.1500
C17_4 C 0.32452(14) 0.0221(2) 0.6578(3)
H15_4 H 0.3050 0.0398 0.7515
H16_4 H 0.3713 0.0150 0.6952
C18_4 C 0.31291(14) 0.1096(2) 0.5384(3)
H17_3 H 0.3358 0.0959 0.4489
H18_3 H 0.2665 0.1145 0.4942
C19_4 C 0.33629(14) 0.2106(2) 0.6173(3)
H19_4 H 0.3265 0.2658 0.5380
H20_4 H 0.3834 0.2078 0.6520
C20_4 C 0.30516(14) 0.23412(19) 0.7597(3)
N1_4 N 0.11982(11) 0.87120(18) 0.2720(3)
O1_4 O 0.16691(9) 0.65576(14) 0.3673(2)
C1_4 C 0.20199(13) 0.5793(2) 0.4063(3)
C2_4 C 0.17548(14) 0.4779(2) 0.3422(3)
H1_4 H 0.1950 0.4602 0.2485
H2_4 H 0.1287 0.4850 0.3048
C3_4 C 0.18709(14) 0.3904(2) 0.4616(3)
H3_3 H 0.1642 0.4041 0.5511
H4_3 H 0.2335 0.3855 0.5058
C4_4 C 0.16371(14) 0.2894(2) 0.3827(3)
H5_4 H 0.1735 0.2342 0.4620
H6_4 H 0.1166 0.2922 0.3480
C5_4 C 0.19484(14) 0.26588(19) 0.2403(3)
C6_4 C 0.11935(15) 0.9719(2) 0.2602(4)
C8_4 C 0.02524(13) 0.9730(2) 0.0560(3)
C9_4 C 0.02660(15) 0.8680(2) 0.0670(4)
C10_4 C 0.07390(15) 0.8212(2) 0.1748(4)
H10_4 H 0.0738 0.7492 0.1802
O6_4 O 0.24287(10) 0.91855(15) 0.5105(3)
C16_4 C 0.29801(13) 0.9207(2) 0.5937(3)
C11_4 C 0.97476(13) 0.0270(2) 0.9440(3)
C13_4 C 0.88065(15) 0.0281(2) 0.7398(4)
N2_4 N 0.88018(11) 0.12880(18) 0.7280(3)
C14_4 C 0.92610(15) 0.1788(2) 0.8252(4)
C15_4 C 0.97340(15) 0.1320(2) 0.9330(4)
H12_4 H 0.9262 0.2508 0.8198
C12_3 C 0.92627(16) 0.9757(2) 0.8453(5)
H13_3 H 0.8482 0.9907 0.6728
H14_3 H 0.9243 0.9038 0.8500
H3_4 H 0.3358 0.9041 0.9489
H4_4 H 0.2665 0.8855 0.9942
H9_3 H 0.0049 0.8286 0.4995
C12_4 C 0.07373(16) 0.9757(2) 0.6547(5)
H13_4 H 0.1518 0.9907 0.8272
H14_4 H 0.0757 0.9038 0.6500
H7_4 H 0.8482 0.0093 0.1728
C7_4 C 0.92627(16) 0.0243(2) 0.3453(5)
H8_4 H 0.9243 0.0962 0.3500
H11_3 H 0.9951 0.1714 0.5005
H17_4 H 0.6642 0.0959 0.0511
H18_4 H 0.7335 0.1145 0.0058
H11_4 H 0.0049 0.1714 0.9995
H9_4 H 0.9951 0.8286 0.0005
loop_
_geom_bond_atom_site_label_1
_geom_bond_atom_site_label_2
_geom_bond_site_symmetry_1
_geom_bond_site_symmetry_2
Cu1 N1 1_555 1_555
N1 C6 1_555 1_555
O1 Cu1 1_555 1_555
O2 C1 1_555 1_555
C1 O1 1_555 1_555
C6 H7 1_555 1_555
C7 C6 1_555 1_555
H8 C7 1_555 1_555
C8 C7 1_555 1_555
C9 C8 1_555 1_555
H9 C9 1_555 1_555
C10 N1 1_555 1_555
H10 C10 1_555 1_555
C11 C8 1_555 1_555
C12 C11 1_555 1_555
C13 C12 1_555 1_555
N2 C13 1_555 1_555
C14 N2 1_555 1_555
C15 C11 1_555 1_555
H11 C15 1_555 1_555
H12 C14 1_555 1_555
H13 C13 1_555 1_555
H14 C12 1_555 1_555
Cu2 N2 1_555 1_555
O9 Cu1 1_555 1_555
O11 Cu2 1_555 1_555
O13 Cu2 1_555 1_555
C9 C10 1_555 1_555
C14 C15 1_555 1_555
O5 C16 1_555 1_555
O7 C20 1_555 1_555
O8 C20 1_555 1_555
C16 O6 1_555 1_555
C17 C16 1_555 1_555
H15 C17 1_555 1_555
H16 C17 1_555 1_555
C18 C17 1_555 1_555
C19 C18 1_555 1_555
H19 C19 1_555 1_555
H20 C19 1_555 1_555
C20 C19 1_555 1_555
Cu6 O7 1_555 1_555
Cu7 O8 1_555 1_555
O5 Cu3 1_555 1_555
Cu6 Cu7 1_555 1_555
O3 C5 1_555 1_555
O4 C5 1_555 1_555
H1 C2 1_555 1_555
H2 C2 1_555 1_555
C3 C2 1_555 1_555
C4 C3 1_555 1_555
H5 C4 1_555 1_555
H6 C4 1_555 1_555
C5 C4 1_555 1_555
Cu7 O3 1_555 1_555
Cu6 O4 1_555 1_555
N2_2 C13_2 1_555 1_555
C14_2 N2_2 1_555 1_555
C15_2 C11_2 1_555 1_555
H12_2 C14_2 1_555 1_555
Cu3 N2_2 1_555 1_555
O13_2 Cu3 1_555 1_555
C14_2 C15_2 1_555 1_555
O7_2 C20_2 1_555 1_555
O8_2 C20_2 1_555 1_555
H15_2 C17_2 1_555 1_555
H16_2 C17_2 1_555 1_555
C18_2 C17_2 1_555 1_555
C19_2 C18_2 1_555 1_555
H19_2 C19_2 1_555 1_555
H20_2 C19_2 1_555 1_555
C20_2 C19_2 1_555 1_555
Cu6_2 O7_2 1_555 1_555
Cu7_2 O8_2 1_555 1_555
Cu6_2 Cu7_2 1_555 1_555
Cu8 N1_2 1_555 1_555
N1_2 C6_2 1_555 1_555
O1_2 Cu8 1_555 1_555
O12 C1_2 1_555 1_555
O3_2 C5_2 1_555 1_555
O4_2 C5_2 1_555 1_555
C1_2 O1_2 1_555 1_555
C2_2 C1_2 1_555 1_555
H1_2 C2_2 1_555 1_555
H2_2 C2_2 1_555 1_555
C3_2 C2_2 1_555 1_555
C4_2 C3_2 1_555 1_555
H5_2 C4_2 1_555 1_555
H6_2 C4_2 1_555 1_555
C5_2 C4_2 1_555 1_555
C9_2 C8_2 1_555 1_555
C10_2 N1_2 1_555 1_555
H10_2 C10_2 1_555 1_555
O9_2 Cu8 1_555 1_555
Cu7_2 O3_2 1_555 1_555
Cu6_2 O4_2 1_555 1_555
C9_2 C10_2 1_555 1_555
O11 C16_2 1_555 1_555
C16_2 O6_2 1_555 1_555
Cu7_2 N1_3 1_555 1_555
N1_3 C6_3 1_555 1_555
O1_3 Cu7_2 1_555 1_555
O2_2 C1_3 1_555 1_555
C1_3 O1_3 1_555 1_555
C6_3 H7_2 1_555 1_555
C7_2 C6_3 1_555 1_555
H8_2 C7_2 1_555 1_555
C8_3 C7_2 1_555 1_555
C9_3 C8_3 1_555 1_555
H9_2 C9_3 1_555 1_555
C10_3 N1_3 1_555 1_555
H10_3 C10_3 1_555 1_555
O5_2 C16_3 1_555 1_555
O6_3 Cu7_2 1_555 1_555
O13 C20_3 1_555 1_555
O10_2 C20_3 1_555 1_555
C16_3 O6_3 1_555 1_555
C17_3 C16_3 1_555 1_555
H15_3 C17_3 1_555 1_555
H16_3 C17_3 1_555 1_555
C18_3 C17_3 1_555 1_555
H17_2 C18_3 1_555 1_555
H18_2 C18_3 1_555 1_555
C19_3 C18_3 1_555 1_555
H19_3 C19_3 1_555 1_555
H20_3 C19_3 1_555 1_555
C20_3 C19_3 1_555 1_555
O2_2 Cu6_2 1_555 1_555
C9_3 C10_3 1_555 1_555
O5_2 Cu6_2 1_555 1_555
C12_2 C11_3 1_555 1_555
C13_3 C12_2 1_555 1_555
N2_3 C13_3 1_555 1_555
C14_3 N2_3 1_555 1_555
C15_3 C11_3 1_555 1_555
H11_2 C15_3 1_555 1_555
H12_3 C14_3 1_555 1_555
H13_2 C13_3 1_555 1_555
H14_2 C12_2 1_555 1_555
Cu6 N2_3 1_555 1_555
O11_2 Cu6 1_555 1_555
O12_2 Cu6 1_555 1_555
C14_3 C15_3 1_555 1_555
O9_2 C5_3 1_555 1_555
O14 C5_3 1_555 1_555
H1_3 C2_3 1_555 1_555
H2_3 C2_3 1_555 1_555
C3_3 C2_3 1_555 1_555
H3_2 C3_3 1_555 1_555
H4_2 C3_3 1_555 1_555
C4_3 C3_3 1_555 1_555
H5_3 C4_3 1_555 1_555
H6_3 C4_3 1_555 1_555
C5_3 C4_3 1_555 1_555
H8_3 C7_3 1_555 1_555
O13_2 C20_4 1_555 1_555
O10 C20_4 1_555 1_555
H15_4 C17_4 1_555 1_555
H16_4 C17_4 1_555 1_555
C18_4 C17_4 1_555 1_555
H17_3 C18_4 1_555 1_555
H18_3 C18_4 1_555 1_555
C19_4 C18_4 1_555 1_555
H19_4 C19_4 1_555 1_555
H20_4 C19_4 1_555 1_555
C20_4 C19_4 1_555 1_555
Cu7 N1_4 1_555 1_555
N1_4 C6_4 1_555 1_555
O1_4 Cu7 1_555 1_555
O12_2 C1_4 1_555 1_555
O9 C5_4 1_555 1_555
O14_2 C5_4 1_555 1_555
C1_4 O1_4 1_555 1_555
C2_4 C1_4 1_555 1_555
H1_4 C2_4 1_555 1_555
H2_4 C2_4 1_555 1_555
C3_4 C2_4 1_555 1_555
H3_3 C3_4 1_555 1_555
H4_3 C3_4 1_555 1_555
C4_4 C3_4 1_555 1_555
H5_4 C4_4 1_555 1_555
H6_4 C4_4 1_555 1_555
C5_4 C4_4 1_555 1_555
C9_4 C8_4 1_555 1_555
C10_4 N1_4 1_555 1_555
H10_4 C10_4 1_555 1_555
O11_2 C16_4 1_555 1_555
O6_4 Cu7 1_555 1_555
C16_4 O6_4 1_555 1_555
C9_4 C10_4 1_555 1_555
N2_4 C13_4 1_555 1_555
C14_4 N2_4 1_555 1_555
C15_4 C11_4 1_555 1_555
H12_4 C14_4 1_555 1_555
Cu6_2 N2_4 1_555 1_555
C14_4 C15_4 1_555 1_555
H14_3 C12_3 1_555 1_555
H14_4 C12_4 1_555 1_555
H8_4 C7_4 1_555 1_555

#END
