
###############################################################################
#
# This file contains modified crystal structure data generated from the
# MOF subset of the Cambridge Structural Database (CSD) v543 
# hosted by the Cambridge Crystallographic Data Centre (CCDC).
#
# This work is licensed under the Creative Commons
# Attribution-NonCommercial-ShareAlike 4.0 International License.
# To view a copy of this license, visit
# http://creativecommons.org/licenses/by-nc-sa/4.0/
# or send a letter to
# Creative Commons, PO Box 1866, Mountain View, CA 94042, USA.
#
# CIF created using the CSD Python API on 29 September 2022
# The structure has been converted into the P1 space group
# The structure has a 3D framework
# The original CSD entry MABJOP is in the monoclinic crystal system
# The framework has been calculated to contain at least 10.0% void space
# The void calculation uses a probe of radius 1.32A, grid spacing 0.4
#
###############################################################################

data_MABJOP
_chemical_formula_moiety         '(C80 H80 Cu8 N8 O32)n'
_symmetry_cell_setting           triclinic
_symmetry_space_group_name_H-M   'P 1'
_symmetry_Int_Tables_number      1
_space_group_name_Hall           'P 1'
loop_
_symmetry_equiv_pos_site_id
_symmetry_equiv_pos_as_xyz
1 x,y,z
_cell_length_a                   21.011(2)
_cell_length_b                   13.0520(14)
_cell_length_c                   8.5284(9)
_cell_angle_alpha                90
_cell_angle_beta                 100.679(2)
_cell_angle_gamma                90
_cell_volume                     2298.28
loop_
_atom_site_label
_atom_site_type_symbol
_atom_site_fract_x
_atom_site_fract_y
_atom_site_fract_z
Cu8 Cu 0.801817(14) 0.79578(2) 0.07435(3)
O12 O 0.74473(9) 0.57939(13) 0.0089(2)
O14 O 0.66245(9) 0.71969(14) 0.1212(2)
Cu1 Cu 0.301817(14) 0.29578(2) 0.07435(3)
N1 N 0.37960(11) 0.37295(17) 0.2273(2)
O1 O 0.33367(9) 0.15761(13) 0.1341(2)
O2 O 0.24473(9) 0.07939(13) 0.0089(2)
C1 C 0.30023(12) 0.07989(19) 0.0933(3)
C6 C 0.37956(16) 0.4727(3) 0.2441(5)
H7 H 0.3461 0.5111 0.1798
C7 C 0.42551(17) 0.5246(3) 0.3500(5)
H8 H 0.4230 0.5971 0.3579
C8 C 0.47466(13) 0.4730(2) 0.4439(3)
C9 C 0.47349(15) 0.3690(2) 0.4294(4)
H9 H 0.5056 0.3287 0.4948
C10 C 0.42608(16) 0.3225(2) 0.3208(4)
H10 H 0.4268 0.2500 0.3124
C11 C 0.52534(13) 0.5270(2) 0.5561(3)
C12 C 0.57449(17) 0.4754(3) 0.6500(5)
C13 C 0.62044(16) 0.5273(3) 0.7559(5)
N2 N 0.62040(11) 0.62705(17) 0.7727(2)
C14 C 0.57392(16) 0.6775(2) 0.6792(4)
C15 C 0.52651(15) 0.6310(2) 0.5706(4)
H11 H 0.4944 0.6713 0.5052
H12 H 0.5732 0.7500 0.6876
H13 H 0.6539 0.4889 0.8202
H14 H 0.5770 0.4029 0.6421
H17 H 0.2332 0.6145 0.0004
H18 H 0.1641 0.6003 0.0513
Cu2 Cu 0.698183(14) 0.70422(2) 0.92565(3)
O9 O 0.25255(9) 0.29395(14) 0.2482(2)
O11 O 0.66633(9) 0.84239(13) 0.8659(2)
O13 O 0.74745(9) 0.70605(14) 0.7518(2)
O5 O 0.16633(9) 0.34239(13) 0.8659(2)
O6 O 0.25527(9) 0.42061(13) 0.9911(2)
O7 O 0.25255(9) 0.70605(14) 0.7482(2)
O8 O 0.16245(9) 0.78031(14) 0.6212(2)
C16 C 0.19977(12) 0.42011(19) 0.9067(3)
C17 C 0.17143(14) 0.5213(2) 0.8448(3)
H15 H 0.1878 0.5381 0.7461
H16 H 0.1238 0.5136 0.8153
C18 C 0.18602(13) 0.6112(2) 0.9593(3)
C19 C 0.16351(13) 0.71210(19) 0.8791(3)
H19 H 0.1732 0.7682 0.9580
H20 H 0.1160 0.7097 0.8422
C20 C 0.19558(13) 0.73499(19) 0.7388(3)
Cu3 Cu 0.198183(14) 0.20422(2) 0.92565(3)
O10 O 0.33755(9) 0.28031(14) 0.8788(2)
Cu6 Cu 0.301817(14) 0.70422(2) 0.57435(3)
Cu7 Cu 0.198183(14) 0.79578(2) 0.42565(3)
O3 O 0.24745(9) 0.79395(14) 0.2518(2)
O4 O 0.33755(9) 0.71969(14) 0.3788(2)
C2 C 0.32857(14) 0.9787(2) 0.1552(3)
H1 H 0.3122 0.9619 0.2539
H2 H 0.3762 0.9864 0.1847
C3 C 0.31398(13) 0.8888(2) 0.0407(3)
C4 C 0.33649(13) 0.78790(19) 0.1209(3)
H5 H 0.3268 0.7318 0.0420
H6 H 0.3840 0.7903 0.1578
C5 C 0.30442(13) 0.76501(19) 0.2612(3)
O14_2 O 0.16245(9) 0.21969(14) 0.1212(2)
C11_2 C 0.02534(13) 0.0270(2) 0.5561(3)
C13_2 C 0.12044(16) 0.0273(3) 0.7559(5)
N2_2 N 0.12040(11) 0.12705(17) 0.7727(2)
C14_2 C 0.07392(16) 0.1775(2) 0.6792(4)
C15_2 C 0.02651(15) 0.1310(2) 0.5706(4)
H12_2 H 0.0732 0.2500 0.6876
O13_2 O 0.24745(9) 0.20605(14) 0.7518(2)
O7_2 O 0.75255(9) 0.20605(14) 0.7482(2)
O8_2 O 0.66245(9) 0.28031(14) 0.6212(2)
C17_2 C 0.67143(14) 0.0213(2) 0.8448(3)
H15_2 H 0.6878 0.0381 0.7461
H16_2 H 0.6238 0.0136 0.8153
C18_2 C 0.68602(13) 0.1112(2) 0.9593(3)
C19_2 C 0.66351(13) 0.21210(19) 0.8791(3)
H19_2 H 0.6732 0.2682 0.9580
H20_2 H 0.6160 0.2097 0.8422
C20_2 C 0.69558(13) 0.23499(19) 0.7388(3)
Cu6_2 Cu 0.801817(14) 0.20422(2) 0.57435(3)
Cu7_2 Cu 0.698183(14) 0.29578(2) 0.42565(3)
N1_2 N 0.87960(11) 0.87295(17) 0.2273(2)
O1_2 O 0.83367(9) 0.65761(13) 0.1341(2)
O3_2 O 0.74745(9) 0.29395(14) 0.2518(2)
O4_2 O 0.83755(9) 0.21969(14) 0.3788(2)
C1_2 C 0.80023(12) 0.57989(19) 0.0933(3)
C2_2 C 0.82857(14) 0.4787(2) 0.1552(3)
H1_2 H 0.8122 0.4619 0.2539
H2_2 H 0.8762 0.4864 0.1847
C3_2 C 0.81398(13) 0.3888(2) 0.0407(3)
C4_2 C 0.83649(13) 0.28790(19) 0.1209(3)
H5_2 H 0.8268 0.2318 0.0420
H6_2 H 0.8840 0.2903 0.1578
C5_2 C 0.80442(13) 0.26501(19) 0.2612(3)
C6_2 C 0.87956(16) 0.9727(3) 0.2441(5)
C8_2 C 0.97466(13) 0.9730(2) 0.4439(3)
C9_2 C 0.97349(15) 0.8690(2) 0.4294(4)
C10_2 C 0.92608(16) 0.8225(2) 0.3208(4)
H10_2 H 0.9268 0.7500 0.3124
O9_2 O 0.75255(9) 0.79395(14) 0.2482(2)
H3 H 0.7668 0.3855 0.9996
H4 H 0.8359 0.3997 0.9487
O6_2 O 0.75527(9) 0.92061(13) 0.9911(2)
C16_2 C 0.69977(12) 0.92011(19) 0.9067(3)
O10_2 O 0.83755(9) 0.78031(14) 0.8788(2)
N1_3 N 0.62040(11) 0.37295(17) 0.2727(2)
O1_3 O 0.66633(9) 0.15761(13) 0.3659(2)
O2_2 O 0.75527(9) 0.07939(13) 0.4911(2)
C1_3 C 0.69977(12) 0.07989(19) 0.4067(3)
C6_3 C 0.62044(16) 0.4727(3) 0.2559(5)
H7_2 H 0.6539 0.5111 0.3202
C7_2 C 0.57449(17) 0.5246(3) 0.1500(5)
H8_2 H 0.5770 0.5971 0.1421
C8_3 C 0.52534(13) 0.4730(2) 0.0561(3)
C9_3 C 0.52651(15) 0.3690(2) 0.0706(4)
H9_2 H 0.4944 0.3287 0.0052
C10_3 C 0.57392(16) 0.3225(2) 0.1792(4)
H10_3 H 0.5732 0.2500 0.1876
O5_2 O 0.83367(9) 0.34239(13) 0.6341(2)
O6_3 O 0.74473(9) 0.42061(13) 0.5089(2)
C16_3 C 0.80023(12) 0.42011(19) 0.5933(3)
C17_3 C 0.82857(14) 0.5213(2) 0.6552(3)
H15_3 H 0.8122 0.5381 0.7539
H16_3 H 0.8762 0.5136 0.6847
C18_3 C 0.81398(13) 0.6112(2) 0.5407(3)
H17_2 H 0.7668 0.6145 0.4996
H18_2 H 0.8359 0.6003 0.4487
C19_3 C 0.83649(13) 0.71210(19) 0.6209(3)
H19_3 H 0.8268 0.7682 0.5420
H20_3 H 0.8840 0.7097 0.6578
C20_3 C 0.80442(13) 0.73499(19) 0.7612(3)
C11_3 C 0.47466(13) 0.5270(2) 0.9439(3)
C12_2 C 0.42551(17) 0.4754(3) 0.8500(5)
C13_3 C 0.37956(16) 0.5273(3) 0.7441(5)
N2_3 N 0.37960(11) 0.62705(17) 0.7273(2)
C14_3 C 0.42608(16) 0.6775(2) 0.8208(4)
C15_3 C 0.47349(15) 0.6310(2) 0.9294(4)
H11_2 H 0.5056 0.6713 0.9948
H12_3 H 0.4268 0.7500 0.8124
H13_2 H 0.3461 0.4889 0.6798
H14_2 H 0.4230 0.4029 0.8579
O11_2 O 0.33367(9) 0.84239(13) 0.6341(2)
O12_2 O 0.25527(9) 0.57939(13) 0.4911(2)
C2_3 C 0.67143(14) 0.9787(2) 0.3448(3)
H1_3 H 0.6878 0.9619 0.2461
H2_3 H 0.6238 0.9864 0.3153
C3_3 C 0.68602(13) 0.8888(2) 0.4593(3)
H3_2 H 0.7332 0.8855 0.5004
H4_2 H 0.6641 0.8997 0.5513
C4_3 C 0.66351(13) 0.78790(19) 0.3791(3)
H5_3 H 0.6732 0.7318 0.4580
H6_3 H 0.6160 0.7903 0.3422
C5_3 C 0.69558(13) 0.76501(19) 0.2388(3)
H7_3 H 0.1539 0.0111 0.3202
C7_3 C 0.07449(17) 0.0246(3) 0.1500(5)
H8_3 H 0.0770 0.0971 0.1421
C17_4 C 0.32857(14) 0.0213(2) 0.6552(3)
H15_4 H 0.3122 0.0381 0.7539
H16_4 H 0.3762 0.0136 0.6847
C18_4 C 0.31398(13) 0.1112(2) 0.5407(3)
H17_3 H 0.2668 0.1145 0.4996
H18_3 H 0.3359 0.1003 0.4487
C19_4 C 0.33649(13) 0.21210(19) 0.6209(3)
H19_4 H 0.3268 0.2682 0.5420
H20_4 H 0.3840 0.2097 0.6578
C20_4 C 0.30442(13) 0.23499(19) 0.7612(3)
N1_4 N 0.12040(11) 0.87295(17) 0.2727(2)
O1_4 O 0.16633(9) 0.65761(13) 0.3659(2)
C1_4 C 0.19977(12) 0.57989(19) 0.4067(3)
C2_4 C 0.17143(14) 0.4787(2) 0.3448(3)
H1_4 H 0.1878 0.4619 0.2461
H2_4 H 0.1238 0.4864 0.3153
C3_4 C 0.18602(13) 0.3888(2) 0.4593(3)
H3_3 H 0.2332 0.3855 0.5004
H4_3 H 0.1641 0.3997 0.5513
C4_4 C 0.16351(13) 0.28790(19) 0.3791(3)
H5_4 H 0.1732 0.2318 0.4580
H6_4 H 0.1160 0.2903 0.3422
C5_4 C 0.19558(13) 0.26501(19) 0.2388(3)
C6_4 C 0.12044(16) 0.9727(3) 0.2559(5)
C8_4 C 0.02534(13) 0.9730(2) 0.0561(3)
C9_4 C 0.02651(15) 0.8690(2) 0.0706(4)
C10_4 C 0.07392(16) 0.8225(2) 0.1792(4)
H10_4 H 0.0732 0.7500 0.1876
O6_4 O 0.24473(9) 0.92061(13) 0.5089(2)
C16_4 C 0.30023(12) 0.92011(19) 0.5933(3)
C11_4 C 0.97466(13) 0.0270(2) 0.9439(3)
C13_4 C 0.87956(16) 0.0273(3) 0.7441(5)
N2_4 N 0.87960(11) 0.12705(17) 0.7273(2)
C14_4 C 0.92608(16) 0.1775(2) 0.8208(4)
C15_4 C 0.97349(15) 0.1310(2) 0.9294(4)
H12_4 H 0.9268 0.2500 0.8124
C12_3 C 0.92551(17) 0.9754(3) 0.8500(5)
H13_3 H 0.8461 0.9889 0.6798
H14_3 H 0.9230 0.9029 0.8579
H3_4 H 0.2668 0.8855 0.9996
H4_4 H 0.3359 0.8997 0.9487
H9_3 H 0.0056 0.8287 0.4948
C12_4 C 0.07449(17) 0.9754(3) 0.6500(5)
H13_4 H 0.1539 0.9889 0.8202
H14_4 H 0.0770 0.9029 0.6421
H7_4 H 0.8461 0.0111 0.1798
C7_4 C 0.92551(17) 0.0246(3) 0.3500(5)
H8_4 H 0.9230 0.0971 0.3579
H11_3 H 0.9944 0.1713 0.5052
H17_4 H 0.7332 0.1145 0.0004
H18_4 H 0.6641 0.1003 0.0513
H11_4 H 0.0056 0.1713 0.9948
H9_4 H 0.9944 0.8287 0.0052
loop_
_geom_bond_atom_site_label_1
_geom_bond_atom_site_label_2
_geom_bond_site_symmetry_1
_geom_bond_site_symmetry_2
Cu1 N1 1_555 1_555
N1 C6 1_555 1_555
O1 Cu1 1_555 1_555
O2 C1 1_555 1_555
C1 O1 1_555 1_555
C6 H7 1_555 1_555
C7 C6 1_555 1_555
H8 C7 1_555 1_555
C8 C7 1_555 1_555
C9 C8 1_555 1_555
H9 C9 1_555 1_555
C10 N1 1_555 1_555
H10 C10 1_555 1_555
C11 C8 1_555 1_555
C12 C11 1_555 1_555
C13 C12 1_555 1_555
N2 C13 1_555 1_555
C14 N2 1_555 1_555
C15 C11 1_555 1_555
H11 C15 1_555 1_555
H12 C14 1_555 1_555
H13 C13 1_555 1_555
H14 C12 1_555 1_555
Cu2 N2 1_555 1_555
O9 Cu1 1_555 1_555
O11 Cu2 1_555 1_555
O13 Cu2 1_555 1_555
C9 C10 1_555 1_555
C14 C15 1_555 1_555
O5 C16 1_555 1_555
O7 C20 1_555 1_555
O8 C20 1_555 1_555
C16 O6 1_555 1_555
C17 C16 1_555 1_555
H15 C17 1_555 1_555
H16 C17 1_555 1_555
C18 C17 1_555 1_555
C19 C18 1_555 1_555
H19 C19 1_555 1_555
H20 C19 1_555 1_555
C20 C19 1_555 1_555
Cu6 O7 1_555 1_555
Cu7 O8 1_555 1_555
O5 Cu3 1_555 1_555
Cu6 Cu7 1_555 1_555
O3 C5 1_555 1_555
O4 C5 1_555 1_555
H1 C2 1_555 1_555
H2 C2 1_555 1_555
C3 C2 1_555 1_555
C4 C3 1_555 1_555
H5 C4 1_555 1_555
H6 C4 1_555 1_555
C5 C4 1_555 1_555
Cu7 O3 1_555 1_555
Cu6 O4 1_555 1_555
N2_2 C13_2 1_555 1_555
C14_2 N2_2 1_555 1_555
C15_2 C11_2 1_555 1_555
H12_2 C14_2 1_555 1_555
Cu3 N2_2 1_555 1_555
O13_2 Cu3 1_555 1_555
C14_2 C15_2 1_555 1_555
O7_2 C20_2 1_555 1_555
O8_2 C20_2 1_555 1_555
H15_2 C17_2 1_555 1_555
H16_2 C17_2 1_555 1_555
C18_2 C17_2 1_555 1_555
C19_2 C18_2 1_555 1_555
H19_2 C19_2 1_555 1_555
H20_2 C19_2 1_555 1_555
C20_2 C19_2 1_555 1_555
Cu6_2 O7_2 1_555 1_555
Cu7_2 O8_2 1_555 1_555
Cu6_2 Cu7_2 1_555 1_555
Cu8 N1_2 1_555 1_555
N1_2 C6_2 1_555 1_555
O1_2 Cu8 1_555 1_555
O12 C1_2 1_555 1_555
O3_2 C5_2 1_555 1_555
O4_2 C5_2 1_555 1_555
C1_2 O1_2 1_555 1_555
C2_2 C1_2 1_555 1_555
H1_2 C2_2 1_555 1_555
H2_2 C2_2 1_555 1_555
C3_2 C2_2 1_555 1_555
C4_2 C3_2 1_555 1_555
H5_2 C4_2 1_555 1_555
H6_2 C4_2 1_555 1_555
C5_2 C4_2 1_555 1_555
C9_2 C8_2 1_555 1_555
C10_2 N1_2 1_555 1_555
H10_2 C10_2 1_555 1_555
O9_2 Cu8 1_555 1_555
Cu7_2 O3_2 1_555 1_555
Cu6_2 O4_2 1_555 1_555
C9_2 C10_2 1_555 1_555
O11 C16_2 1_555 1_555
C16_2 O6_2 1_555 1_555
Cu7_2 N1_3 1_555 1_555
N1_3 C6_3 1_555 1_555
O1_3 Cu7_2 1_555 1_555
O2_2 C1_3 1_555 1_555
C1_3 O1_3 1_555 1_555
C6_3 H7_2 1_555 1_555
C7_2 C6_3 1_555 1_555
H8_2 C7_2 1_555 1_555
C8_3 C7_2 1_555 1_555
C9_3 C8_3 1_555 1_555
H9_2 C9_3 1_555 1_555
C10_3 N1_3 1_555 1_555
H10_3 C10_3 1_555 1_555
O5_2 C16_3 1_555 1_555
O6_3 Cu7_2 1_555 1_555
O13 C20_3 1_555 1_555
O10_2 C20_3 1_555 1_555
C16_3 O6_3 1_555 1_555
C17_3 C16_3 1_555 1_555
H15_3 C17_3 1_555 1_555
H16_3 C17_3 1_555 1_555
C18_3 C17_3 1_555 1_555
H17_2 C18_3 1_555 1_555
H18_2 C18_3 1_555 1_555
C19_3 C18_3 1_555 1_555
H19_3 C19_3 1_555 1_555
H20_3 C19_3 1_555 1_555
C20_3 C19_3 1_555 1_555
O2_2 Cu6_2 1_555 1_555
C9_3 C10_3 1_555 1_555
O5_2 Cu6_2 1_555 1_555
C12_2 C11_3 1_555 1_555
C13_3 C12_2 1_555 1_555
N2_3 C13_3 1_555 1_555
C14_3 N2_3 1_555 1_555
C15_3 C11_3 1_555 1_555
H11_2 C15_3 1_555 1_555
H12_3 C14_3 1_555 1_555
H13_2 C13_3 1_555 1_555
H14_2 C12_2 1_555 1_555
Cu6 N2_3 1_555 1_555
O11_2 Cu6 1_555 1_555
O12_2 Cu6 1_555 1_555
C14_3 C15_3 1_555 1_555
O9_2 C5_3 1_555 1_555
O14 C5_3 1_555 1_555
H1_3 C2_3 1_555 1_555
H2_3 C2_3 1_555 1_555
C3_3 C2_3 1_555 1_555
H3_2 C3_3 1_555 1_555
H4_2 C3_3 1_555 1_555
C4_3 C3_3 1_555 1_555
H5_3 C4_3 1_555 1_555
H6_3 C4_3 1_555 1_555
C5_3 C4_3 1_555 1_555
H8_3 C7_3 1_555 1_555
O13_2 C20_4 1_555 1_555
O10 C20_4 1_555 1_555
H15_4 C17_4 1_555 1_555
H16_4 C17_4 1_555 1_555
C18_4 C17_4 1_555 1_555
H17_3 C18_4 1_555 1_555
H18_3 C18_4 1_555 1_555
C19_4 C18_4 1_555 1_555
H19_4 C19_4 1_555 1_555
H20_4 C19_4 1_555 1_555
C20_4 C19_4 1_555 1_555
Cu7 N1_4 1_555 1_555
N1_4 C6_4 1_555 1_555
O1_4 Cu7 1_555 1_555
O12_2 C1_4 1_555 1_555
O9 C5_4 1_555 1_555
O14_2 C5_4 1_555 1_555
C1_4 O1_4 1_555 1_555
C2_4 C1_4 1_555 1_555
H1_4 C2_4 1_555 1_555
H2_4 C2_4 1_555 1_555
C3_4 C2_4 1_555 1_555
H3_3 C3_4 1_555 1_555
H4_3 C3_4 1_555 1_555
C4_4 C3_4 1_555 1_555
H5_4 C4_4 1_555 1_555
H6_4 C4_4 1_555 1_555
C5_4 C4_4 1_555 1_555
C9_4 C8_4 1_555 1_555
C10_4 N1_4 1_555 1_555
H10_4 C10_4 1_555 1_555
O11_2 C16_4 1_555 1_555
O6_4 Cu7 1_555 1_555
C16_4 O6_4 1_555 1_555
C9_4 C10_4 1_555 1_555
N2_4 C13_4 1_555 1_555
C14_4 N2_4 1_555 1_555
C15_4 C11_4 1_555 1_555
H12_4 C14_4 1_555 1_555
Cu6_2 N2_4 1_555 1_555
C14_4 C15_4 1_555 1_555
H14_3 C12_3 1_555 1_555
H14_4 C12_4 1_555 1_555
H8_4 C7_4 1_555 1_555

#END
