
###############################################################################
#
# This file contains modified crystal structure data generated from the
# MOF subset of the Cambridge Structural Database (CSD) v543 
# hosted by the Cambridge Crystallographic Data Centre (CCDC).
#
# This work is licensed under the Creative Commons
# Attribution-NonCommercial-ShareAlike 4.0 International License.
# To view a copy of this license, visit
# http://creativecommons.org/licenses/by-nc-sa/4.0/
# or send a letter to
# Creative Commons, PO Box 1866, Mountain View, CA 94042, USA.
#
# CIF created using the CSD Python API on 29 September 2022
# The structure has been converted into the P1 space group
# The structure has a 3D framework
# The original CSD entry MABJUV is in the monoclinic crystal system
# The framework has been calculated to contain at least 10.0% void space
# The void calculation uses a probe of radius 1.32A, grid spacing 0.4
#
###############################################################################

data_MABJUV
_chemical_formula_moiety         '(C80 H80 Cu8 N8 O32)n'
_symmetry_cell_setting           triclinic
_symmetry_space_group_name_H-M   'P 1'
_symmetry_Int_Tables_number      1
_space_group_name_Hall           'P 1'
loop_
_symmetry_equiv_pos_site_id
_symmetry_equiv_pos_as_xyz
1 x,y,z
_cell_length_a                   21.351(2)
_cell_length_b                   13.1381(13)
_cell_length_c                   8.5699(9)
_cell_angle_alpha                90
_cell_angle_beta                 101.007(2)
_cell_angle_gamma                90
_cell_volume                     2359.73
loop_
_atom_site_label
_atom_site_type_symbol
_atom_site_fract_x
_atom_site_fract_y
_atom_site_fract_z
Cu8 Cu 0.802182(15) 0.79456(3) 0.07568(4)
O12 O 0.74366(10) 0.58061(16) 0.0091(3)
O14 O 0.66302(11) 0.72172(17) 0.1199(3)
Cu1 Cu 0.302182(15) 0.29456(3) 0.07568(4)
N1 N 0.37958(11) 0.3723(2) 0.2283(3)
O1 O 0.33266(10) 0.15573(16) 0.1346(3)
O2 O 0.24366(10) 0.08061(16) 0.0091(3)
C1 C 0.29854(14) 0.0790(2) 0.0941(3)
C6 C 0.38007(17) 0.4726(3) 0.2419(5)
H7 H 0.3473 0.5104 0.1764
C7 C 0.42610(19) 0.5249(3) 0.3469(6)
H8 H 0.4244 0.5971 0.3521
C8 C 0.47442(14) 0.4730(2) 0.4440(3)
C9 C 0.47312(17) 0.3688(3) 0.4310(4)
H9 H 0.5050 0.3289 0.4956
C10 C 0.42512(18) 0.3222(3) 0.3233(4)
H10 H 0.4250 0.2500 0.3175
C11 C 0.52558(14) 0.5270(2) 0.5560(3)
C12 C 0.57390(19) 0.4751(3) 0.6531(6)
C13 C 0.61993(17) 0.5274(3) 0.7581(5)
N2 N 0.62042(11) 0.6277(2) 0.7717(3)
C14 C 0.57488(18) 0.6778(3) 0.6767(4)
C15 C 0.52688(17) 0.6312(3) 0.5690(4)
H11 H 0.4950 0.6711 0.5044
H12 H 0.5750 0.7500 0.6825
H13 H 0.6527 0.4896 0.8236
H14 H 0.5756 0.4029 0.6479
H17 H 0.1654 0.5981 0.0476
H18 H 0.2342 0.6147 0.0030
Cu2 Cu 0.697818(15) 0.70544(3) 0.92432(4)
O9 O 0.25333(10) 0.29171(16) 0.2488(3)
O11 O 0.66734(10) 0.84427(16) 0.8654(3)
O13 O 0.74667(10) 0.70829(16) 0.7512(3)
O5 O 0.16734(10) 0.34427(16) 0.8654(3)
O6 O 0.25634(10) 0.41939(16) 0.9909(3)
O7 O 0.25333(10) 0.70829(16) 0.7488(3)
O8 O 0.16302(11) 0.77828(17) 0.6199(3)
C16 C 0.20146(14) 0.4210(2) 0.9059(3)
C17 C 0.17542(15) 0.5224(2) 0.8417(3)
H15 H 0.1942 0.5392 0.7478
H16 H 0.1288 0.5156 0.8049
C18 C 0.18788(15) 0.6107(2) 0.9586(3)
C19 C 0.16543(15) 0.7124(2) 0.8796(4)
H19 H 0.1756 0.7677 0.9588
H20 H 0.1185 0.7106 0.8439
C20 C 0.19641(14) 0.7352(2) 0.7386(3)
Cu3 Cu 0.197818(15) 0.20544(3) 0.92432(4)
O10 O 0.33698(11) 0.27828(17) 0.8801(3)
Cu6 Cu 0.302182(15) 0.70544(3) 0.57568(4)
Cu7 Cu 0.197818(15) 0.79456(3) 0.42432(4)
O3 O 0.24667(10) 0.79171(16) 0.2512(3)
O4 O 0.33698(11) 0.72172(17) 0.3801(3)
C2 C 0.32458(15) 0.9776(2) 0.1583(3)
H1 H 0.3058 0.9608 0.2522
H2 H 0.3712 0.9844 0.1951
C3 C 0.31212(15) 0.8893(2) 0.0414(3)
C4 C 0.33457(15) 0.7876(2) 0.1204(4)
H5 H 0.3244 0.7323 0.0412
H6 H 0.3815 0.7894 0.1561
C5 C 0.30359(14) 0.7648(2) 0.2614(3)
O14_2 O 0.16302(11) 0.22172(17) 0.1199(3)
C11_2 C 0.02558(14) 0.0270(2) 0.5560(3)
C13_2 C 0.11993(17) 0.0274(3) 0.7581(5)
N2_2 N 0.12042(11) 0.1277(2) 0.7717(3)
C14_2 C 0.07488(18) 0.1778(3) 0.6767(4)
C15_2 C 0.02688(17) 0.1312(3) 0.5690(4)
H12_2 H 0.0750 0.2500 0.6825
O13_2 O 0.24667(10) 0.20829(16) 0.7512(3)
O7_2 O 0.75333(10) 0.20829(16) 0.7488(3)
O8_2 O 0.66302(11) 0.27828(17) 0.6199(3)
C17_2 C 0.67542(15) 0.0224(2) 0.8417(3)
H15_2 H 0.6942 0.0392 0.7478
H16_2 H 0.6288 0.0156 0.8049
C18_2 C 0.68788(15) 0.1107(2) 0.9586(3)
C19_2 C 0.66543(15) 0.2124(2) 0.8796(4)
H19_2 H 0.6756 0.2677 0.9588
H20_2 H 0.6185 0.2106 0.8439
C20_2 C 0.69641(14) 0.2352(2) 0.7386(3)
Cu6_2 Cu 0.802182(15) 0.20544(3) 0.57568(4)
Cu7_2 Cu 0.697818(15) 0.29456(3) 0.42432(4)
N1_2 N 0.87958(11) 0.8723(2) 0.2283(3)
O1_2 O 0.83266(10) 0.65573(16) 0.1346(3)
O3_2 O 0.74667(10) 0.29171(16) 0.2512(3)
O4_2 O 0.83698(11) 0.22172(17) 0.3801(3)
C1_2 C 0.79854(14) 0.5790(2) 0.0941(3)
C2_2 C 0.82458(15) 0.4776(2) 0.1583(3)
H1_2 H 0.8058 0.4608 0.2522
H2_2 H 0.8712 0.4844 0.1951
C3_2 C 0.81212(15) 0.3893(2) 0.0414(3)
C4_2 C 0.83457(15) 0.2876(2) 0.1204(4)
H5_2 H 0.8244 0.2323 0.0412
H6_2 H 0.8815 0.2894 0.1561
C5_2 C 0.80359(14) 0.2648(2) 0.2614(3)
C6_2 C 0.88007(17) 0.9726(3) 0.2419(5)
C8_2 C 0.97442(14) 0.9730(2) 0.4440(3)
C9_2 C 0.97312(17) 0.8688(3) 0.4310(4)
C10_2 C 0.92512(18) 0.8222(3) 0.3233(4)
H10_2 H 0.9250 0.7500 0.3175
O9_2 O 0.75333(10) 0.79171(16) 0.2488(3)
H3 H 0.8346 0.4019 0.9524
H4 H 0.7658 0.3853 0.9970
O6_2 O 0.75634(10) 0.91939(16) 0.9909(3)
C16_2 C 0.70146(14) 0.9210(2) 0.9059(3)
O10_2 O 0.83698(11) 0.77828(17) 0.8801(3)
N1_3 N 0.62042(11) 0.3723(2) 0.2717(3)
O1_3 O 0.66734(10) 0.15573(16) 0.3654(3)
O2_2 O 0.75634(10) 0.08061(16) 0.4909(3)
C1_3 C 0.70146(14) 0.0790(2) 0.4059(3)
C6_3 C 0.61993(17) 0.4726(3) 0.2581(5)
H7_2 H 0.6527 0.5104 0.3236
C7_2 C 0.57390(19) 0.5249(3) 0.1531(6)
H8_2 H 0.5756 0.5971 0.1479
C8_3 C 0.52558(14) 0.4730(2) 0.0560(3)
C9_3 C 0.52688(17) 0.3688(3) 0.0690(4)
H9_2 H 0.4950 0.3289 0.0044
C10_3 C 0.57488(18) 0.3222(3) 0.1767(4)
H10_3 H 0.5750 0.2500 0.1825
O5_2 O 0.83266(10) 0.34427(16) 0.6346(3)
O6_3 O 0.74366(10) 0.41939(16) 0.5091(3)
C16_3 C 0.79854(14) 0.4210(2) 0.5941(3)
C17_3 C 0.82458(15) 0.5224(2) 0.6583(3)
H15_3 H 0.8058 0.5392 0.7522
H16_3 H 0.8712 0.5156 0.6951
C18_3 C 0.81212(15) 0.6107(2) 0.5414(3)
H17_2 H 0.8346 0.5981 0.4524
H18_2 H 0.7658 0.6147 0.4970
C19_3 C 0.83457(15) 0.7124(2) 0.6204(4)
H19_3 H 0.8244 0.7677 0.5412
H20_3 H 0.8815 0.7106 0.6561
C20_3 C 0.80359(14) 0.7352(2) 0.7614(3)
C11_3 C 0.47442(14) 0.5270(2) 0.9440(3)
C12_2 C 0.42610(19) 0.4751(3) 0.8469(6)
C13_3 C 0.38007(17) 0.5274(3) 0.7419(5)
N2_3 N 0.37958(11) 0.6277(2) 0.7283(3)
C14_3 C 0.42512(18) 0.6778(3) 0.8233(4)
C15_3 C 0.47312(17) 0.6312(3) 0.9310(4)
H11_2 H 0.5050 0.6711 0.9956
H12_3 H 0.4250 0.7500 0.8175
H13_2 H 0.3473 0.4896 0.6764
H14_2 H 0.4244 0.4029 0.8521
O11_2 O 0.33266(10) 0.84427(16) 0.6346(3)
O12_2 O 0.25634(10) 0.58061(16) 0.4909(3)
C2_3 C 0.67542(15) 0.9776(2) 0.3417(3)
H1_3 H 0.6942 0.9608 0.2478
H2_3 H 0.6288 0.9844 0.3049
C3_3 C 0.68788(15) 0.8893(2) 0.4586(3)
H3_2 H 0.6654 0.9019 0.5476
H4_2 H 0.7342 0.8853 0.5030
C4_3 C 0.66543(15) 0.7876(2) 0.3796(4)
H5_3 H 0.6756 0.7323 0.4588
H6_3 H 0.6185 0.7894 0.3439
C5_3 C 0.69641(14) 0.7648(2) 0.2386(3)
H7_3 H 0.1527 0.0104 0.3236
C7_3 C 0.07390(19) 0.0249(3) 0.1531(6)
H8_3 H 0.0756 0.0971 0.1479
C17_4 C 0.32458(15) 0.0224(2) 0.6583(3)
H15_4 H 0.3058 0.0392 0.7522
H16_4 H 0.3712 0.0156 0.6951
C18_4 C 0.31212(15) 0.1107(2) 0.5414(3)
H17_3 H 0.3346 0.0981 0.4524
H18_3 H 0.2658 0.1147 0.4970
C19_4 C 0.33457(15) 0.2124(2) 0.6204(4)
H19_4 H 0.3244 0.2677 0.5412
H20_4 H 0.3815 0.2106 0.6561
C20_4 C 0.30359(14) 0.2352(2) 0.7614(3)
N1_4 N 0.12042(11) 0.8723(2) 0.2717(3)
O1_4 O 0.16734(10) 0.65573(16) 0.3654(3)
C1_4 C 0.20146(14) 0.5790(2) 0.4059(3)
C2_4 C 0.17542(15) 0.4776(2) 0.3417(3)
H1_4 H 0.1942 0.4608 0.2478
H2_4 H 0.1288 0.4844 0.3049
C3_4 C 0.18788(15) 0.3893(2) 0.4586(3)
H3_3 H 0.1654 0.4019 0.5476
H4_3 H 0.2342 0.3853 0.5030
C4_4 C 0.16543(15) 0.2876(2) 0.3796(4)
H5_4 H 0.1756 0.2323 0.4588
H6_4 H 0.1185 0.2894 0.3439
C5_4 C 0.19641(14) 0.2648(2) 0.2386(3)
C6_4 C 0.11993(17) 0.9726(3) 0.2581(5)
C8_4 C 0.02558(14) 0.9730(2) 0.0560(3)
C9_4 C 0.02688(17) 0.8688(3) 0.0690(4)
C10_4 C 0.07488(18) 0.8222(3) 0.1767(4)
H10_4 H 0.0750 0.7500 0.1825
O6_4 O 0.24366(10) 0.91939(16) 0.5091(3)
C16_4 C 0.29854(14) 0.9210(2) 0.5941(3)
C11_4 C 0.97442(14) 0.0270(2) 0.9440(3)
C13_4 C 0.88007(17) 0.0274(3) 0.7419(5)
N2_4 N 0.87958(11) 0.1277(2) 0.7283(3)
C14_4 C 0.92512(18) 0.1778(3) 0.8233(4)
C15_4 C 0.97312(17) 0.1312(3) 0.9310(4)
H12_4 H 0.9250 0.2500 0.8175
C12_3 C 0.92610(19) 0.9751(3) 0.8469(6)
H13_3 H 0.8473 0.9896 0.6764
H14_3 H 0.9244 0.9029 0.8521
H3_4 H 0.3346 0.9019 0.9524
H4_4 H 0.2658 0.8853 0.9970
H9_3 H 0.0050 0.8289 0.4956
C12_4 C 0.07390(19) 0.9751(3) 0.6531(6)
H13_4 H 0.1527 0.9896 0.8236
H14_4 H 0.0756 0.9029 0.6479
H7_4 H 0.8473 0.0104 0.1764
C7_4 C 0.92610(19) 0.0249(3) 0.3469(6)
H8_4 H 0.9244 0.0971 0.3521
H11_3 H 0.9950 0.1711 0.5044
H17_4 H 0.6654 0.0981 0.0476
H18_4 H 0.7342 0.1147 0.0030
H11_4 H 0.0050 0.1711 0.9956
H9_4 H 0.9950 0.8289 0.0044
loop_
_geom_bond_atom_site_label_1
_geom_bond_atom_site_label_2
_geom_bond_site_symmetry_1
_geom_bond_site_symmetry_2
Cu1 N1 1_555 1_555
N1 C6 1_555 1_555
O1 Cu1 1_555 1_555
O2 C1 1_555 1_555
C1 O1 1_555 1_555
C6 H7 1_555 1_555
C7 C6 1_555 1_555
H8 C7 1_555 1_555
C8 C7 1_555 1_555
C9 C8 1_555 1_555
H9 C9 1_555 1_555
C10 N1 1_555 1_555
H10 C10 1_555 1_555
C11 C8 1_555 1_555
C12 C11 1_555 1_555
C13 C12 1_555 1_555
N2 C13 1_555 1_555
C14 N2 1_555 1_555
C15 C11 1_555 1_555
H11 C15 1_555 1_555
H12 C14 1_555 1_555
H13 C13 1_555 1_555
H14 C12 1_555 1_555
Cu2 N2 1_555 1_555
O9 Cu1 1_555 1_555
O11 Cu2 1_555 1_555
O13 Cu2 1_555 1_555
C9 C10 1_555 1_555
C14 C15 1_555 1_555
O5 C16 1_555 1_555
O7 C20 1_555 1_555
O8 C20 1_555 1_555
C16 O6 1_555 1_555
C17 C16 1_555 1_555
H15 C17 1_555 1_555
H16 C17 1_555 1_555
C18 C17 1_555 1_555
C19 C18 1_555 1_555
H19 C19 1_555 1_555
H20 C19 1_555 1_555
C20 C19 1_555 1_555
Cu6 O7 1_555 1_555
Cu7 O8 1_555 1_555
O5 Cu3 1_555 1_555
Cu6 Cu7 1_555 1_555
O3 C5 1_555 1_555
O4 C5 1_555 1_555
H1 C2 1_555 1_555
H2 C2 1_555 1_555
C3 C2 1_555 1_555
C4 C3 1_555 1_555
H5 C4 1_555 1_555
H6 C4 1_555 1_555
C5 C4 1_555 1_555
Cu7 O3 1_555 1_555
Cu6 O4 1_555 1_555
N2_2 C13_2 1_555 1_555
C14_2 N2_2 1_555 1_555
C15_2 C11_2 1_555 1_555
H12_2 C14_2 1_555 1_555
Cu3 N2_2 1_555 1_555
O13_2 Cu3 1_555 1_555
C14_2 C15_2 1_555 1_555
O7_2 C20_2 1_555 1_555
O8_2 C20_2 1_555 1_555
H15_2 C17_2 1_555 1_555
H16_2 C17_2 1_555 1_555
C18_2 C17_2 1_555 1_555
C19_2 C18_2 1_555 1_555
H19_2 C19_2 1_555 1_555
H20_2 C19_2 1_555 1_555
C20_2 C19_2 1_555 1_555
Cu6_2 O7_2 1_555 1_555
Cu7_2 O8_2 1_555 1_555
Cu6_2 Cu7_2 1_555 1_555
Cu8 N1_2 1_555 1_555
N1_2 C6_2 1_555 1_555
O1_2 Cu8 1_555 1_555
O12 C1_2 1_555 1_555
O3_2 C5_2 1_555 1_555
O4_2 C5_2 1_555 1_555
C1_2 O1_2 1_555 1_555
C2_2 C1_2 1_555 1_555
H1_2 C2_2 1_555 1_555
H2_2 C2_2 1_555 1_555
C3_2 C2_2 1_555 1_555
C4_2 C3_2 1_555 1_555
H5_2 C4_2 1_555 1_555
H6_2 C4_2 1_555 1_555
C5_2 C4_2 1_555 1_555
C9_2 C8_2 1_555 1_555
C10_2 N1_2 1_555 1_555
H10_2 C10_2 1_555 1_555
O9_2 Cu8 1_555 1_555
Cu7_2 O3_2 1_555 1_555
Cu6_2 O4_2 1_555 1_555
C9_2 C10_2 1_555 1_555
O11 C16_2 1_555 1_555
C16_2 O6_2 1_555 1_555
Cu7_2 N1_3 1_555 1_555
N1_3 C6_3 1_555 1_555
O1_3 Cu7_2 1_555 1_555
O2_2 C1_3 1_555 1_555
C1_3 O1_3 1_555 1_555
C6_3 H7_2 1_555 1_555
C7_2 C6_3 1_555 1_555
H8_2 C7_2 1_555 1_555
C8_3 C7_2 1_555 1_555
C9_3 C8_3 1_555 1_555
H9_2 C9_3 1_555 1_555
C10_3 N1_3 1_555 1_555
H10_3 C10_3 1_555 1_555
O5_2 C16_3 1_555 1_555
O6_3 Cu7_2 1_555 1_555
O13 C20_3 1_555 1_555
O10_2 C20_3 1_555 1_555
C16_3 O6_3 1_555 1_555
C17_3 C16_3 1_555 1_555
H15_3 C17_3 1_555 1_555
H16_3 C17_3 1_555 1_555
C18_3 C17_3 1_555 1_555
H17_2 C18_3 1_555 1_555
H18_2 C18_3 1_555 1_555
C19_3 C18_3 1_555 1_555
H19_3 C19_3 1_555 1_555
H20_3 C19_3 1_555 1_555
C20_3 C19_3 1_555 1_555
O2_2 Cu6_2 1_555 1_555
C9_3 C10_3 1_555 1_555
O5_2 Cu6_2 1_555 1_555
C12_2 C11_3 1_555 1_555
C13_3 C12_2 1_555 1_555
N2_3 C13_3 1_555 1_555
C14_3 N2_3 1_555 1_555
C15_3 C11_3 1_555 1_555
H11_2 C15_3 1_555 1_555
H12_3 C14_3 1_555 1_555
H13_2 C13_3 1_555 1_555
H14_2 C12_2 1_555 1_555
Cu6 N2_3 1_555 1_555
O11_2 Cu6 1_555 1_555
O12_2 Cu6 1_555 1_555
C14_3 C15_3 1_555 1_555
O9_2 C5_3 1_555 1_555
O14 C5_3 1_555 1_555
H1_3 C2_3 1_555 1_555
H2_3 C2_3 1_555 1_555
C3_3 C2_3 1_555 1_555
H3_2 C3_3 1_555 1_555
H4_2 C3_3 1_555 1_555
C4_3 C3_3 1_555 1_555
H5_3 C4_3 1_555 1_555
H6_3 C4_3 1_555 1_555
C5_3 C4_3 1_555 1_555
H8_3 C7_3 1_555 1_555
O13_2 C20_4 1_555 1_555
O10 C20_4 1_555 1_555
H15_4 C17_4 1_555 1_555
H16_4 C17_4 1_555 1_555
C18_4 C17_4 1_555 1_555
H17_3 C18_4 1_555 1_555
H18_3 C18_4 1_555 1_555
C19_4 C18_4 1_555 1_555
H19_4 C19_4 1_555 1_555
H20_4 C19_4 1_555 1_555
C20_4 C19_4 1_555 1_555
Cu7 N1_4 1_555 1_555
N1_4 C6_4 1_555 1_555
O1_4 Cu7 1_555 1_555
O12_2 C1_4 1_555 1_555
O9 C5_4 1_555 1_555
O14_2 C5_4 1_555 1_555
C1_4 O1_4 1_555 1_555
C2_4 C1_4 1_555 1_555
H1_4 C2_4 1_555 1_555
H2_4 C2_4 1_555 1_555
C3_4 C2_4 1_555 1_555
H3_3 C3_4 1_555 1_555
H4_3 C3_4 1_555 1_555
C4_4 C3_4 1_555 1_555
H5_4 C4_4 1_555 1_555
H6_4 C4_4 1_555 1_555
C5_4 C4_4 1_555 1_555
C9_4 C8_4 1_555 1_555
C10_4 N1_4 1_555 1_555
H10_4 C10_4 1_555 1_555
O11_2 C16_4 1_555 1_555
O6_4 Cu7 1_555 1_555
C16_4 O6_4 1_555 1_555
C9_4 C10_4 1_555 1_555
N2_4 C13_4 1_555 1_555
C14_4 N2_4 1_555 1_555
C15_4 C11_4 1_555 1_555
H12_4 C14_4 1_555 1_555
Cu6_2 N2_4 1_555 1_555
C14_4 C15_4 1_555 1_555
H14_3 C12_3 1_555 1_555
H14_4 C12_4 1_555 1_555
H8_4 C7_4 1_555 1_555

#END
