
###############################################################################
#
# This file contains modified crystal structure data generated from the
# MOF subset of the Cambridge Structural Database (CSD) v543 
# hosted by the Cambridge Crystallographic Data Centre (CCDC).
#
# This work is licensed under the Creative Commons
# Attribution-NonCommercial-ShareAlike 4.0 International License.
# To view a copy of this license, visit
# http://creativecommons.org/licenses/by-nc-sa/4.0/
# or send a letter to
# Creative Commons, PO Box 1866, Mountain View, CA 94042, USA.
#
# CIF created using the CSD Python API on 29 September 2022
# The structure has been converted into the P1 space group
# The structure has a 3D framework
# The original CSD entry MABKIK is in the monoclinic crystal system
# The framework has been calculated to contain at least 10.0% void space
# The void calculation uses a probe of radius 1.32A, grid spacing 0.4
#
###############################################################################

data_MABKIK
_chemical_formula_moiety         '(C88 H96 Cu8 N8 O30)n'
_symmetry_cell_setting           triclinic
_symmetry_space_group_name_H-M   'P 1'
_symmetry_Int_Tables_number      1
_space_group_name_Hall           'P 1'
loop_
_symmetry_equiv_pos_site_id
_symmetry_equiv_pos_as_xyz
1 x,y,z
_cell_length_a                   23.911(3)
_cell_length_b                   11.8685(15)
_cell_length_c                   9.2063(12)
_cell_angle_alpha                90
_cell_angle_beta                 90.350(2)
_cell_angle_gamma                90
_cell_volume                     2612.59
loop_
_atom_site_label
_atom_site_type_symbol
_atom_site_fract_x
_atom_site_fract_y
_atom_site_fract_z
Cu1 Cu 0.204990(18) 0.22769(4) 0.42146(5)
N1 N 0.13981(12) 0.1669(3) 0.2759(3)
O1 O 0.23488(11) 0.0752(2) 0.4543(3)
O2 O 0.31199(11) 0.1105(2) 0.5847(3)
C1 C 0.27874(16) 0.0449(3) 0.5206(4)
C6 C 0.14393(15) 0.0641(3) 0.2176(4)
H7 H 0.1739 0.0170 0.2479
C7 C 0.10673(15) 0.0232(3) 0.1157(4)
C8 C 0.06149(14) 0.0892(3) 0.0718(4)
C9 C 0.05680(15) 0.1948(3) 0.1324(4)
H9 H 0.0267 0.2429 0.1054
C10 C 0.09615(15) 0.2303(3) 0.2330(4)
H10 H 0.0921 0.3033 0.2739
O5 O 0.26512(11) 0.4248(2) 0.5457(3)
O6 O 0.18801(11) 0.3895(2) 0.4153(3)
O7 O 0.16414(11) 0.7739(2) 0.1076(3)
O8 O 0.24189(11) 0.7495(2) 0.2387(3)
C18 C 0.22126(16) 0.4551(3) 0.4794(4)
C19 C 0.21030(17) 0.5798(3) 0.4753(5)
H19 H 0.2107 0.6085 0.5762
H20 H 0.2415 0.6166 0.4233
C20 C 0.15557(16) 0.6159(3) 0.4035(4)
H21 H 0.1491 0.5697 0.3155
H22 H 0.1244 0.6016 0.4712
C21 C 0.15562(17) 0.7418(3) 0.3607(4)
H23 H 0.1716 0.7873 0.4410
H24 H 0.1168 0.7675 0.3429
C22 C 0.18979(16) 0.7577(3) 0.2260(5)
Cu3 Cu 0.295010(18) 0.27231(4) 0.57854(5)
O9 O 0.16414(11) 0.2261(2) 0.6076(3)
O10 O 0.25811(11) 0.2495(2) 0.2613(3)
Cu7 Cu 0.295010(18) 0.72769(4) 0.07854(5)
C11 C 0.01901(15) 0.0444(3) 0.9649(5)
H11 H 0.0386 0.0104 0.8813
Cu6 Cu 0.204990(18) 0.77231(4) 0.92146(5)
O3 O 0.33586(11) 0.7261(2) 0.8924(3)
O4 O 0.25811(11) 0.7505(2) 0.7613(3)
C2 C 0.28970(17) 0.9202(3) 0.5247(5)
H1 H 0.2893 0.8915 0.4238
H2 H 0.2585 0.8834 0.5767
C3 C 0.34443(16) 0.8841(3) 0.5965(4)
H3 H 0.3509 0.9303 0.6845
H4 H 0.3756 0.8984 0.5288
C4 C 0.34438(17) 0.7582(3) 0.6393(4)
H5 H 0.3284 0.7127 0.5590
H6 H 0.3832 0.7325 0.6571
C5 C 0.31021(16) 0.7423(3) 0.7740(5)
H8 H 0.1119 0.9503 0.0755
H18 H 0.0042 0.8925 0.0719
H12 H 0.9958 0.1075 0.9281
H16 H 0.8881 0.0497 0.9245
C12 C 0.98099(15) 0.9556(3) 0.0351(5)
H17 H 0.9614 0.9896 0.1187
C13 C 0.93851(14) 0.9108(3) 0.9282(4)
C14 C 0.89327(15) 0.9768(3) 0.8843(4)
C15 C 0.85607(15) 0.9359(3) 0.7824(4)
N2 N 0.86019(12) 0.8331(3) 0.7241(3)
C16 C 0.90385(15) 0.7697(3) 0.7670(4)
C17 C 0.94320(15) 0.8052(3) 0.8676(4)
H13 H 0.9733 0.7571 0.8946
H14 H 0.9079 0.6967 0.7261
H15 H 0.8261 0.9830 0.7521
Cu2 Cu 0.795010(18) 0.77231(4) 0.57854(5)
Cu8 Cu 0.704990(18) 0.72769(4) 0.42146(5)
O11 O 0.76512(11) 0.9248(2) 0.5457(3)
O12 O 0.81199(11) 0.6105(2) 0.5847(3)
O13 O 0.83586(11) 0.7739(2) 0.3924(3)
O14 O 0.74189(11) 0.7505(2) 0.7387(3)
O7_2 O 0.66414(11) 0.2739(2) 0.1076(3)
O8_2 O 0.74189(11) 0.2495(2) 0.2387(3)
C19_2 C 0.71030(17) 0.0798(3) 0.4753(5)
H19_2 H 0.7107 0.1085 0.5762
H20_2 H 0.7415 0.1166 0.4233
C20_2 C 0.65557(16) 0.1159(3) 0.4035(4)
H21_2 H 0.6491 0.0697 0.3155
H22_2 H 0.6244 0.1016 0.4712
C21_2 C 0.65562(17) 0.2418(3) 0.3607(4)
H23_2 H 0.6716 0.2873 0.4410
H24_2 H 0.6168 0.2675 0.3429
C22_2 C 0.68979(16) 0.2577(3) 0.2260(5)
Cu7_2 Cu 0.795010(18) 0.22769(4) 0.07854(5)
Cu6_2 Cu 0.704990(18) 0.27231(4) 0.92146(5)
N1_2 N 0.63981(12) 0.6669(3) 0.2759(3)
O1_2 O 0.73488(11) 0.5752(2) 0.4543(3)
O3_2 O 0.83586(11) 0.2261(2) 0.8924(3)
O4_2 O 0.75811(11) 0.2505(2) 0.7613(3)
C1_2 C 0.77874(16) 0.5449(3) 0.5206(4)
C2_2 C 0.78970(17) 0.4202(3) 0.5247(5)
H1_2 H 0.7893 0.3915 0.4238
H2_2 H 0.7585 0.3834 0.5767
C3_2 C 0.84443(16) 0.3841(3) 0.5965(4)
H3_2 H 0.8509 0.4303 0.6845
H4_2 H 0.8756 0.3984 0.5288
C4_2 C 0.84438(17) 0.2582(3) 0.6393(4)
H5_2 H 0.8284 0.2127 0.5590
H6_2 H 0.8832 0.2325 0.6571
C5_2 C 0.81021(16) 0.2423(3) 0.7740(5)
C6_2 C 0.64393(15) 0.5641(3) 0.2176(4)
H7_2 H 0.6739 0.5170 0.2479
C7_2 C 0.60673(15) 0.5232(3) 0.1157(4)
H8_2 H 0.6119 0.4503 0.0755
C8_2 C 0.56149(14) 0.5892(3) 0.0718(4)
C9_2 C 0.55680(15) 0.6948(3) 0.1324(4)
H9_2 H 0.5267 0.7429 0.1054
C10_2 C 0.59615(15) 0.7303(3) 0.2330(4)
H10_2 H 0.5921 0.8033 0.2739
C12_2 C 0.48099(15) 0.4556(3) 0.0351(5)
H17_2 H 0.4614 0.4896 0.1187
H18_2 H 0.5042 0.3925 0.0719
O6_2 O 0.68801(11) 0.8895(2) 0.4153(3)
C18_2 C 0.72126(16) 0.9551(3) 0.4794(4)
O9_2 O 0.66414(11) 0.7261(2) 0.6076(3)
O10_2 O 0.75811(11) 0.7495(2) 0.2613(3)
C11_2 C 0.51901(15) 0.5444(3) 0.9649(5)
H11_2 H 0.5386 0.5104 0.8813
H12_2 H 0.4958 0.6075 0.9281
C13_2 C 0.43851(14) 0.4108(3) 0.9282(4)
C14_2 C 0.39327(15) 0.4768(3) 0.8843(4)
C15_2 C 0.35607(15) 0.4359(3) 0.7824(4)
N2_2 N 0.36019(12) 0.3331(3) 0.7241(3)
C16_2 C 0.40385(15) 0.2697(3) 0.7670(4)
C17_2 C 0.44320(15) 0.3052(3) 0.8676(4)
H13_2 H 0.4733 0.2571 0.8946
H14_2 H 0.4079 0.1967 0.7261
H15_2 H 0.3261 0.4830 0.7521
H16_2 H 0.3881 0.5497 0.9245
O13_2 O 0.33586(11) 0.2739(2) 0.3924(3)
O14_2 O 0.24189(11) 0.2505(2) 0.7387(3)
C12_3 C 0.01901(15) 0.9556(3) 0.4649(5)
C13_3 C 0.06149(14) 0.9108(3) 0.5718(4)
C14_3 C 0.10673(15) 0.9768(3) 0.6157(4)
C15_3 C 0.14393(15) 0.9359(3) 0.7176(4)
N2_3 N 0.13981(12) 0.8331(3) 0.7759(3)
C16_3 C 0.09615(15) 0.7697(3) 0.7330(4)
C17_3 C 0.05680(15) 0.8052(3) 0.6324(4)
H13_3 H 0.0267 0.7571 0.6054
H14_3 H 0.0921 0.6967 0.7739
H15_3 H 0.1739 0.9830 0.7479
H17_3 H 0.0386 0.9896 0.3813
O11_2 O 0.23488(11) 0.9248(2) 0.9543(3)
O12_2 O 0.18801(11) 0.6105(2) 0.9153(3)
N1_3 N 0.86019(12) 0.1669(3) 0.2241(3)
O1_3 O 0.76512(11) 0.0752(2) 0.0457(3)
C6_3 C 0.85607(15) 0.0641(3) 0.2824(4)
H7_3 H 0.8261 0.0170 0.2521
C7_3 C 0.89327(15) 0.0232(3) 0.3843(4)
C8_3 C 0.93851(14) 0.0892(3) 0.4282(4)
C9_3 C 0.94320(15) 0.1948(3) 0.3676(4)
H9_3 H 0.9733 0.2429 0.3946
C10_3 C 0.90385(15) 0.2303(3) 0.2670(4)
H10_3 H 0.9079 0.3033 0.2261
C11_3 C 0.98099(15) 0.0444(3) 0.5351(5)
H11_3 H 0.9614 0.0104 0.6187
O6_3 O 0.81199(11) 0.3895(2) 0.0847(3)
C18_3 C 0.77874(16) 0.4551(3) 0.0206(4)
C19_3 C 0.78970(17) 0.5798(3) 0.0247(5)
H20_3 H 0.7585 0.6166 0.0767
C20_3 C 0.84443(16) 0.6159(3) 0.0965(4)
H21_3 H 0.8509 0.5697 0.1845
H22_3 H 0.8756 0.6016 0.0288
C21_3 C 0.84438(17) 0.7418(3) 0.1393(4)
H23_3 H 0.8284 0.7873 0.0590
H24_3 H 0.8832 0.7675 0.1571
C22_3 C 0.81021(16) 0.7577(3) 0.2740(5)
O2_2 O 0.68801(11) 0.1105(2) 0.9153(3)
C1_3 C 0.72126(16) 0.0449(3) 0.9794(4)
O5_2 O 0.73488(11) 0.4248(2) 0.9543(3)
H19_3 H 0.7893 0.6085 0.9238
C2_3 C 0.71030(17) 0.9202(3) 0.9753(5)
H2_3 H 0.7415 0.8834 0.9233
C3_3 C 0.65557(16) 0.8841(3) 0.9035(4)
H3_3 H 0.6491 0.9303 0.8155
H4_3 H 0.6244 0.8984 0.9712
C4_3 C 0.65562(17) 0.7582(3) 0.8607(4)
H5_3 H 0.6716 0.7127 0.9410
H6_3 H 0.6168 0.7325 0.8429
C5_3 C 0.68979(16) 0.7423(3) 0.7260(5)
C19_4 C 0.28970(17) 0.0798(3) 0.0247(5)
H20_4 H 0.2585 0.1166 0.0767
C20_4 C 0.34443(16) 0.1159(3) 0.0965(4)
H21_4 H 0.3509 0.0697 0.1845
H22_4 H 0.3756 0.1016 0.0288
C21_4 C 0.34438(17) 0.2418(3) 0.1393(4)
H23_4 H 0.3284 0.2873 0.0590
H24_4 H 0.3832 0.2675 0.1571
C22_4 C 0.31021(16) 0.2577(3) 0.2740(5)
N1_4 N 0.36019(12) 0.6669(3) 0.2241(3)
O1_4 O 0.26512(11) 0.5752(2) 0.0457(3)
H1_3 H 0.2107 0.3915 0.0762
C6_4 C 0.35607(15) 0.5641(3) 0.2824(4)
H7_4 H 0.3261 0.5170 0.2521
C7_4 C 0.39327(15) 0.5232(3) 0.3843(4)
H8_3 H 0.3881 0.4503 0.4245
C8_4 C 0.43851(14) 0.5892(3) 0.4282(4)
C9_4 C 0.44320(15) 0.6948(3) 0.3676(4)
H9_4 H 0.4733 0.7429 0.3946
C10_4 C 0.40385(15) 0.7303(3) 0.2670(4)
H10_4 H 0.4079 0.8033 0.2261
C11_4 C 0.48099(15) 0.5444(3) 0.5351(5)
H11_4 H 0.4614 0.5104 0.6187
H12_3 H 0.5042 0.6075 0.5719
C12_4 C 0.51901(15) 0.4556(3) 0.4649(5)
C13_4 C 0.56149(14) 0.4108(3) 0.5718(4)
C14_4 C 0.60673(15) 0.4768(3) 0.6157(4)
C15_4 C 0.64393(15) 0.4359(3) 0.7176(4)
N2_4 N 0.63981(12) 0.3331(3) 0.7759(3)
C16_4 C 0.59615(15) 0.2697(3) 0.7330(4)
C17_4 C 0.55680(15) 0.3052(3) 0.6324(4)
H13_4 H 0.5267 0.2571 0.6054
H14_4 H 0.5921 0.1967 0.7739
H15_4 H 0.6739 0.4830 0.7479
H16_3 H 0.6119 0.5497 0.5755
H17_4 H 0.5386 0.4896 0.3813
H18_3 H 0.4958 0.3925 0.4281
O6_4 O 0.31199(11) 0.8895(2) 0.0847(3)
C18_4 C 0.27874(16) 0.9551(3) 0.0206(4)
C1_4 C 0.22126(16) 0.5449(3) 0.9794(4)
C2_4 C 0.21030(17) 0.4202(3) 0.9753(5)
H2_4 H 0.2415 0.3834 0.9233
C3_4 C 0.15557(16) 0.3841(3) 0.9035(4)
H3_4 H 0.1491 0.4303 0.8155
H4_4 H 0.1244 0.3984 0.9712
C4_4 C 0.15562(17) 0.2582(3) 0.8607(4)
H5_4 H 0.1716 0.2127 0.9410
H6_4 H 0.1168 0.2325 0.8429
C5_4 C 0.18979(16) 0.2423(3) 0.7260(5)
H12_4 H 0.0042 0.1075 0.5719
H16_4 H 0.1119 0.0497 0.5755
H19_4 H 0.2893 0.1085 0.9238
H1_4 H 0.7107 0.8915 0.0762
H8_4 H 0.8881 0.9503 0.4245
H18_4 H 0.9958 0.8925 0.4281
loop_
_geom_bond_atom_site_label_1
_geom_bond_atom_site_label_2
_geom_bond_site_symmetry_1
_geom_bond_site_symmetry_2
Cu1 N1 1_555 1_555
N1 C6 1_555 1_555
O1 Cu1 1_555 1_555
O2 C1 1_555 1_555
C1 O1 1_555 1_555
C6 H7 1_555 1_555
C7 C6 1_555 1_555
C8 C7 1_555 1_555
C9 C8 1_555 1_555
H9 C9 1_555 1_555
C10 N1 1_555 1_555
H10 C10 1_555 1_555
O5 C18 1_555 1_555
O6 Cu1 1_555 1_555
O7 C22 1_555 1_555
O8 C22 1_555 1_555
C18 O6 1_555 1_555
C19 C18 1_555 1_555
H19 C19 1_555 1_555
H20 C19 1_555 1_555
C20 C19 1_555 1_555
H21 C20 1_555 1_555
H22 C20 1_555 1_555
C21 C20 1_555 1_555
H23 C21 1_555 1_555
H24 C21 1_555 1_555
C22 C21 1_555 1_555
Cu3 Cu1 1_555 1_555
O9 Cu1 1_555 1_555
O10 Cu1 1_555 1_555
Cu7 O8 1_555 1_555
O2 Cu3 1_555 1_555
C9 C10 1_555 1_555
O5 Cu3 1_555 1_555
H11 C11 1_555 1_555
O3 C5 1_555 1_555
O4 C5 1_555 1_555
H1 C2 1_555 1_555
H2 C2 1_555 1_555
C3 C2 1_555 1_555
H3 C3 1_555 1_555
H4 C3 1_555 1_555
C4 C3 1_555 1_555
H5 C4 1_555 1_555
H6 C4 1_555 1_555
C5 C4 1_555 1_555
Cu6 O4 1_555 1_555
H17 C12 1_555 1_555
C14 C13 1_555 1_555
C15 C14 1_555 1_555
N2 C15 1_555 1_555
C16 N2 1_555 1_555
C17 C13 1_555 1_555
H13 C17 1_555 1_555
H14 C16 1_555 1_555
H15 C15 1_555 1_555
Cu2 N2 1_555 1_555
Cu8 Cu2 1_555 1_555
O11 Cu2 1_555 1_555
O12 Cu2 1_555 1_555
O13 Cu2 1_555 1_555
O14 Cu2 1_555 1_555
C16 C17 1_555 1_555
O7_2 C22_2 1_555 1_555
O8_2 C22_2 1_555 1_555
H19_2 C19_2 1_555 1_555
H20_2 C19_2 1_555 1_555
C20_2 C19_2 1_555 1_555
H21_2 C20_2 1_555 1_555
H22_2 C20_2 1_555 1_555
C21_2 C20_2 1_555 1_555
H23_2 C21_2 1_555 1_555
H24_2 C21_2 1_555 1_555
C22_2 C21_2 1_555 1_555
Cu7_2 O8_2 1_555 1_555
Cu8 N1_2 1_555 1_555
N1_2 C6_2 1_555 1_555
O1_2 Cu8 1_555 1_555
O12 C1_2 1_555 1_555
O3_2 C5_2 1_555 1_555
O4_2 C5_2 1_555 1_555
C1_2 O1_2 1_555 1_555
C2_2 C1_2 1_555 1_555
H1_2 C2_2 1_555 1_555
H2_2 C2_2 1_555 1_555
C3_2 C2_2 1_555 1_555
H3_2 C3_2 1_555 1_555
H4_2 C3_2 1_555 1_555
C4_2 C3_2 1_555 1_555
H5_2 C4_2 1_555 1_555
H6_2 C4_2 1_555 1_555
C5_2 C4_2 1_555 1_555
C6_2 H7_2 1_555 1_555
C7_2 C6_2 1_555 1_555
H8_2 C7_2 1_555 1_555
C8_2 C7_2 1_555 1_555
C9_2 C8_2 1_555 1_555
H9_2 C9_2 1_555 1_555
C10_2 N1_2 1_555 1_555
H10_2 C10_2 1_555 1_555
H17_2 C12_2 1_555 1_555
H18_2 C12_2 1_555 1_555
O11 C18_2 1_555 1_555
O6_2 Cu8 1_555 1_555
C18_2 O6_2 1_555 1_555
O9_2 Cu8 1_555 1_555
O10_2 Cu8 1_555 1_555
Cu6_2 O4_2 1_555 1_555
C9_2 C10_2 1_555 1_555
H11_2 C11_2 1_555 1_555
H12_2 C11_2 1_555 1_555
C14_2 C13_2 1_555 1_555
C15_2 C14_2 1_555 1_555
N2_2 C15_2 1_555 1_555
C16_2 N2_2 1_555 1_555
C17_2 C13_2 1_555 1_555
H13_2 C17_2 1_555 1_555
H14_2 C16_2 1_555 1_555
H15_2 C15_2 1_555 1_555
H16_2 C14_2 1_555 1_555
Cu3 N2_2 1_555 1_555
O13_2 Cu3 1_555 1_555
O14_2 Cu3 1_555 1_555
C16_2 C17_2 1_555 1_555
C13_3 C12_3 1_555 1_555
C14_3 C13_3 1_555 1_555
C15_3 C14_3 1_555 1_555
N2_3 C15_3 1_555 1_555
C16_3 N2_3 1_555 1_555
C17_3 C13_3 1_555 1_555
H13_3 C17_3 1_555 1_555
H14_3 C16_3 1_555 1_555
H15_3 C15_3 1_555 1_555
H17_3 C12_3 1_555 1_555
Cu6 N2_3 1_555 1_555
O11_2 Cu6 1_555 1_555
O12_2 Cu6 1_555 1_555
C16_3 C17_3 1_555 1_555
Cu7_2 N1_3 1_555 1_555
N1_3 C6_3 1_555 1_555
O1_3 Cu7_2 1_555 1_555
C6_3 H7_3 1_555 1_555
C7_3 C6_3 1_555 1_555
C8_3 C7_3 1_555 1_555
C9_3 C8_3 1_555 1_555
H9_3 C9_3 1_555 1_555
C10_3 N1_3 1_555 1_555
H10_3 C10_3 1_555 1_555
C11_3 C8_3 1_555 1_555
H11_3 C11_3 1_555 1_555
O6_3 Cu7_2 1_555 1_555
O13 C22_3 1_555 1_555
O10_2 C22_3 1_555 1_555
C18_3 O6_3 1_555 1_555
C19_3 C18_3 1_555 1_555
H20_3 C19_3 1_555 1_555
C20_3 C19_3 1_555 1_555
H21_3 C20_3 1_555 1_555
H22_3 C20_3 1_555 1_555
C21_3 C20_3 1_555 1_555
H23_3 C21_3 1_555 1_555
H24_3 C21_3 1_555 1_555
C22_3 C21_3 1_555 1_555
C9_3 C10_3 1_555 1_555
O2_2 C1_3 1_555 1_555
O2_2 Cu6_2 1_555 1_555
O5_2 Cu6_2 1_555 1_555
O9_2 C5_3 1_555 1_555
O14 C5_3 1_555 1_555
H2_3 C2_3 1_555 1_555
C3_3 C2_3 1_555 1_555
H3_3 C3_3 1_555 1_555
H4_3 C3_3 1_555 1_555
C4_3 C3_3 1_555 1_555
H5_3 C4_3 1_555 1_555
H6_3 C4_3 1_555 1_555
C5_3 C4_3 1_555 1_555
O13_2 C22_4 1_555 1_555
O10 C22_4 1_555 1_555
H20_4 C19_4 1_555 1_555
C20_4 C19_4 1_555 1_555
H21_4 C20_4 1_555 1_555
H22_4 C20_4 1_555 1_555
C21_4 C20_4 1_555 1_555
H23_4 C21_4 1_555 1_555
H24_4 C21_4 1_555 1_555
C22_4 C21_4 1_555 1_555
Cu7 N1_4 1_555 1_555
N1_4 C6_4 1_555 1_555
O1_4 Cu7 1_555 1_555
C6_4 H7_4 1_555 1_555
C7_4 C6_4 1_555 1_555
H8_3 C7_4 1_555 1_555
C8_4 C7_4 1_555 1_555
C9_4 C8_4 1_555 1_555
H9_4 C9_4 1_555 1_555
C10_4 N1_4 1_555 1_555
H10_4 C10_4 1_555 1_555
C11_4 C8_4 1_555 1_555
H11_4 C11_4 1_555 1_555
H12_3 C11_4 1_555 1_555
C12_4 C11_4 1_555 1_555
C13_4 C12_4 1_555 1_555
C14_4 C13_4 1_555 1_555
C15_4 C14_4 1_555 1_555
N2_4 C15_4 1_555 1_555
C16_4 N2_4 1_555 1_555
C17_4 C13_4 1_555 1_555
H13_4 C17_4 1_555 1_555
H14_4 C16_4 1_555 1_555
H15_4 C15_4 1_555 1_555
H16_3 C14_4 1_555 1_555
H17_4 C12_4 1_555 1_555
H18_3 C12_4 1_555 1_555
O6_4 Cu7 1_555 1_555
C18_4 O6_4 1_555 1_555
Cu6_2 N2_4 1_555 1_555
C9_4 C10_4 1_555 1_555
C16_4 C17_4 1_555 1_555
O12_2 C1_4 1_555 1_555
O9 C5_4 1_555 1_555
O14_2 C5_4 1_555 1_555
C2_4 C1_4 1_555 1_555
H2_4 C2_4 1_555 1_555
C3_4 C2_4 1_555 1_555
H3_4 C3_4 1_555 1_555
H4_4 C3_4 1_555 1_555
C4_4 C3_4 1_555 1_555
H5_4 C4_4 1_555 1_555
H6_4 C4_4 1_555 1_555
C5_4 C4_4 1_555 1_555

#END
