
###############################################################################
#
# This file contains modified crystal structure data generated from the
# MOF subset of the Cambridge Structural Database (CSD) v543 
# hosted by the Cambridge Crystallographic Data Centre (CCDC).
#
# This work is licensed under the Creative Commons
# Attribution-NonCommercial-ShareAlike 4.0 International License.
# To view a copy of this license, visit
# http://creativecommons.org/licenses/by-nc-sa/4.0/
# or send a letter to
# Creative Commons, PO Box 1866, Mountain View, CA 94042, USA.
#
# CIF created using the CSD Python API on 29 September 2022
# The structure has been converted into the P1 space group
# The structure has a 3D framework
# The original CSD entry MABKEG is in the monoclinic crystal system
# The framework has been calculated to contain at least 10.0% void space
# The void calculation uses a probe of radius 1.32A, grid spacing 0.4
#
###############################################################################

data_MABKEG
_chemical_formula_moiety         '(C88 H96 Cu8 N8 O30)n'
_symmetry_cell_setting           triclinic
_symmetry_space_group_name_H-M   'P 1'
_symmetry_Int_Tables_number      1
_space_group_name_Hall           'P 1'
loop_
_symmetry_equiv_pos_site_id
_symmetry_equiv_pos_as_xyz
1 x,y,z
_cell_length_a                   24.047(8)
_cell_length_b                   11.784(4)
_cell_length_c                   9.059(3)
_cell_angle_alpha                90
_cell_angle_beta                 91.044(6)
_cell_angle_gamma                90
_cell_volume                     2566.62
loop_
_atom_site_label
_atom_site_type_symbol
_atom_site_fract_x
_atom_site_fract_y
_atom_site_fract_z
Cu1 Cu 0.20600(3) 0.22708(7) 0.41969(10)
N1 N 0.1408(2) 0.1663(5) 0.2732(7)
O1 O 0.2357(2) 0.0743(4) 0.4510(6)
O2 O 0.31094(19) 0.1108(4) 0.5874(6)
C1 C 0.2791(3) 0.0452(6) 0.5204(8)
C6 C 0.1443(3) 0.0646(6) 0.2134(8)
H7 H 0.1748 0.0177 0.2424
C7 C 0.1069(3) 0.0227(6) 0.1125(8)
C8 C 0.0610(3) 0.0886(6) 0.0723(8)
C9 C 0.0576(3) 0.1941(6) 0.1332(8)
H9 H 0.0281 0.2435 0.1049
C10 C 0.0967(3) 0.2289(6) 0.2348(8)
H10 H 0.0922 0.3010 0.2802
O5 O 0.2643(2) 0.4257(4) 0.5490(6)
O6 O 0.18906(19) 0.3892(4) 0.4126(6)
O7 O 0.16530(19) 0.7777(4) 0.1055(6)
O8 O 0.24142(19) 0.7486(4) 0.2402(6)
C18 C 0.2209(3) 0.4548(6) 0.4796(8)
C19 C 0.2102(3) 0.5790(6) 0.4762(9)
H19 H 0.2104 0.6072 0.5792
H20 H 0.2415 0.6162 0.4255
C20 C 0.1566(3) 0.6162(6) 0.4016(9)
H21 H 0.1505 0.5702 0.3113
H22 H 0.1254 0.6010 0.4686
C21 C 0.1562(3) 0.7420(6) 0.3597(8)
H23 H 0.1718 0.7879 0.4421
H24 H 0.1175 0.7675 0.3398
C22 C 0.1904(3) 0.7582(5) 0.2247(8)
Cu3 Cu 0.29400(3) 0.27292(7) 0.58031(10)
O9 O 0.16530(19) 0.2223(4) 0.6055(6)
O10 O 0.25858(19) 0.2486(4) 0.2598(6)
Cu7 Cu 0.29400(3) 0.72708(7) 0.08031(10)
C11 C 0.0187(3) 0.0445(6) 0.9637(8)
H11 H 0.0377 0.0100 0.8788
Cu6 Cu 0.20600(3) 0.77292(7) 0.91969(10)
O3 O 0.33470(19) 0.7223(4) 0.8945(6)
O4 O 0.25858(19) 0.7514(4) 0.7598(6)
C2 C 0.2898(3) 0.9210(6) 0.5238(9)
H1 H 0.2896 0.8928 0.4208
H2 H 0.2585 0.8838 0.5745
C3 C 0.3434(3) 0.8838(6) 0.5984(9)
H3 H 0.3495 0.9298 0.6887
H4 H 0.3746 0.8990 0.5314
C4 C 0.3438(3) 0.7580(6) 0.6403(8)
H5 H 0.3282 0.7121 0.5579
H6 H 0.3825 0.7325 0.6602
C5 C 0.3096(3) 0.7418(5) 0.7753(8)
H8 H 0.1121 0.9498 0.0702
H18 H 0.0045 0.8919 0.0738
H12 H 0.9955 0.1081 0.9262
H16 H 0.8879 0.0502 0.9298
C12 C 0.9813(3) 0.9555(6) 0.0363(8)
H17 H 0.9623 0.9900 0.1212
C13 C 0.9390(3) 0.9114(6) 0.9277(8)
C14 C 0.8931(3) 0.9773(6) 0.8875(8)
C15 C 0.8557(3) 0.9354(6) 0.7866(8)
N2 N 0.8592(2) 0.8337(5) 0.7268(7)
C16 C 0.9033(3) 0.7711(6) 0.7652(8)
C17 C 0.9424(3) 0.8059(6) 0.8668(8)
H13 H 0.9719 0.7565 0.8951
H14 H 0.9078 0.6990 0.7198
H15 H 0.8252 0.9823 0.7576
Cu2 Cu 0.79400(3) 0.77292(7) 0.58031(10)
Cu8 Cu 0.70600(3) 0.72708(7) 0.41969(10)
O11 O 0.7643(2) 0.9257(4) 0.5490(6)
O12 O 0.81094(19) 0.6108(4) 0.5874(6)
O13 O 0.83470(19) 0.7777(4) 0.3945(6)
O14 O 0.74142(19) 0.7514(4) 0.7402(6)
O7_2 O 0.66530(19) 0.2777(4) 0.1055(6)
O8_2 O 0.74142(19) 0.2486(4) 0.2402(6)
C19_2 C 0.7102(3) 0.0790(6) 0.4762(9)
H19_2 H 0.7104 0.1072 0.5792
H20_2 H 0.7415 0.1162 0.4255
C20_2 C 0.6566(3) 0.1162(6) 0.4016(9)
H21_2 H 0.6505 0.0702 0.3113
H22_2 H 0.6254 0.1010 0.4686
C21_2 C 0.6562(3) 0.2420(6) 0.3597(8)
H23_2 H 0.6718 0.2879 0.4421
H24_2 H 0.6175 0.2675 0.3398
C22_2 C 0.6904(3) 0.2582(5) 0.2247(8)
Cu7_2 Cu 0.79400(3) 0.22708(7) 0.08031(10)
Cu6_2 Cu 0.70600(3) 0.27292(7) 0.91969(10)
N1_2 N 0.6408(2) 0.6663(5) 0.2732(7)
O1_2 O 0.7357(2) 0.5743(4) 0.4510(6)
O3_2 O 0.83470(19) 0.2223(4) 0.8945(6)
O4_2 O 0.75858(19) 0.2514(4) 0.7598(6)
C1_2 C 0.7791(3) 0.5452(6) 0.5204(8)
C2_2 C 0.7898(3) 0.4210(6) 0.5238(9)
H1_2 H 0.7896 0.3928 0.4208
H2_2 H 0.7585 0.3838 0.5745
C3_2 C 0.8434(3) 0.3838(6) 0.5984(9)
H3_2 H 0.8495 0.4298 0.6887
H4_2 H 0.8746 0.3990 0.5314
C4_2 C 0.8438(3) 0.2580(6) 0.6403(8)
H5_2 H 0.8282 0.2121 0.5579
H6_2 H 0.8825 0.2325 0.6602
C5_2 C 0.8096(3) 0.2418(5) 0.7753(8)
C6_2 C 0.6443(3) 0.5646(6) 0.2134(8)
H7_2 H 0.6748 0.5177 0.2424
C7_2 C 0.6069(3) 0.5227(6) 0.1125(8)
H8_2 H 0.6121 0.4498 0.0702
C8_2 C 0.5610(3) 0.5886(6) 0.0723(8)
C9_2 C 0.5576(3) 0.6941(6) 0.1332(8)
H9_2 H 0.5281 0.7435 0.1049
C10_2 C 0.5967(3) 0.7289(6) 0.2348(8)
H10_2 H 0.5922 0.8010 0.2802
C12_2 C 0.4813(3) 0.4555(6) 0.0363(8)
H17_2 H 0.4623 0.4900 0.1212
H18_2 H 0.5045 0.3919 0.0738
O6_2 O 0.68906(19) 0.8892(4) 0.4126(6)
C18_2 C 0.7209(3) 0.9548(6) 0.4796(8)
O9_2 O 0.66530(19) 0.7223(4) 0.6055(6)
O10_2 O 0.75858(19) 0.7486(4) 0.2598(6)
C11_2 C 0.5187(3) 0.5445(6) 0.9637(8)
H11_2 H 0.5377 0.5100 0.8788
H12_2 H 0.4955 0.6081 0.9262
C13_2 C 0.4390(3) 0.4114(6) 0.9277(8)
C14_2 C 0.3931(3) 0.4773(6) 0.8875(8)
C15_2 C 0.3557(3) 0.4354(6) 0.7866(8)
N2_2 N 0.3592(2) 0.3337(5) 0.7268(7)
C16_2 C 0.4033(3) 0.2711(6) 0.7652(8)
C17_2 C 0.4424(3) 0.3059(6) 0.8668(8)
H13_2 H 0.4719 0.2565 0.8951
H14_2 H 0.4078 0.1990 0.7198
H15_2 H 0.3252 0.4823 0.7576
H16_2 H 0.3879 0.5502 0.9298
O13_2 O 0.33470(19) 0.2777(4) 0.3945(6)
O14_2 O 0.24142(19) 0.2514(4) 0.7402(6)
C12_3 C 0.0187(3) 0.9555(6) 0.4637(8)
C13_3 C 0.0610(3) 0.9114(6) 0.5723(8)
C14_3 C 0.1069(3) 0.9773(6) 0.6125(8)
C15_3 C 0.1443(3) 0.9354(6) 0.7134(8)
N2_3 N 0.1408(2) 0.8337(5) 0.7732(7)
C16_3 C 0.0967(3) 0.7711(6) 0.7348(8)
C17_3 C 0.0576(3) 0.8059(6) 0.6332(8)
H13_3 H 0.0281 0.7565 0.6049
H14_3 H 0.0922 0.6990 0.7802
H15_3 H 0.1748 0.9823 0.7424
H17_3 H 0.0377 0.9900 0.3788
O11_2 O 0.2357(2) 0.9257(4) 0.9510(6)
O12_2 O 0.18906(19) 0.6108(4) 0.9126(6)
N1_3 N 0.8592(2) 0.1663(5) 0.2268(7)
O1_3 O 0.7643(2) 0.0743(4) 0.0490(6)
C6_3 C 0.8557(3) 0.0646(6) 0.2866(8)
H7_3 H 0.8252 0.0177 0.2576
C7_3 C 0.8931(3) 0.0227(6) 0.3875(8)
C8_3 C 0.9390(3) 0.0886(6) 0.4277(8)
C9_3 C 0.9424(3) 0.1941(6) 0.3668(8)
H9_3 H 0.9719 0.2435 0.3951
C10_3 C 0.9033(3) 0.2289(6) 0.2652(8)
H10_3 H 0.9078 0.3010 0.2198
C11_3 C 0.9813(3) 0.0445(6) 0.5363(8)
H11_3 H 0.9623 0.0100 0.6212
O6_3 O 0.81094(19) 0.3892(4) 0.0874(6)
C18_3 C 0.7791(3) 0.4548(6) 0.0204(8)
C19_3 C 0.7898(3) 0.5790(6) 0.0238(9)
H20_3 H 0.7585 0.6162 0.0745
C20_3 C 0.8434(3) 0.6162(6) 0.0984(9)
H21_3 H 0.8495 0.5702 0.1887
H22_3 H 0.8746 0.6010 0.0314
C21_3 C 0.8438(3) 0.7420(6) 0.1403(8)
H23_3 H 0.8282 0.7879 0.0579
H24_3 H 0.8825 0.7675 0.1602
C22_3 C 0.8096(3) 0.7582(5) 0.2753(8)
O2_2 O 0.68906(19) 0.1108(4) 0.9126(6)
C1_3 C 0.7209(3) 0.0452(6) 0.9796(8)
O5_2 O 0.7357(2) 0.4257(4) 0.9510(6)
H19_3 H 0.7896 0.6072 0.9208
C2_3 C 0.7102(3) 0.9210(6) 0.9762(9)
H2_3 H 0.7415 0.8838 0.9255
C3_3 C 0.6566(3) 0.8838(6) 0.9016(9)
H3_3 H 0.6505 0.9298 0.8113
H4_3 H 0.6254 0.8990 0.9686
C4_3 C 0.6562(3) 0.7580(6) 0.8597(8)
H5_3 H 0.6718 0.7121 0.9421
H6_3 H 0.6175 0.7325 0.8398
C5_3 C 0.6904(3) 0.7418(5) 0.7247(8)
C19_4 C 0.2898(3) 0.0790(6) 0.0238(9)
H20_4 H 0.2585 0.1162 0.0745
C20_4 C 0.3434(3) 0.1162(6) 0.0984(9)
H21_4 H 0.3495 0.0702 0.1887
H22_4 H 0.3746 0.1010 0.0314
C21_4 C 0.3438(3) 0.2420(6) 0.1403(8)
H23_4 H 0.3282 0.2879 0.0579
H24_4 H 0.3825 0.2675 0.1602
C22_4 C 0.3096(3) 0.2582(5) 0.2753(8)
N1_4 N 0.3592(2) 0.6663(5) 0.2268(7)
O1_4 O 0.2643(2) 0.5743(4) 0.0490(6)
H1_3 H 0.2104 0.3928 0.0792
C6_4 C 0.3557(3) 0.5646(6) 0.2866(8)
H7_4 H 0.3252 0.5177 0.2576
C7_4 C 0.3931(3) 0.5227(6) 0.3875(8)
H8_3 H 0.3879 0.4498 0.4298
C8_4 C 0.4390(3) 0.5886(6) 0.4277(8)
C9_4 C 0.4424(3) 0.6941(6) 0.3668(8)
H9_4 H 0.4719 0.7435 0.3951
C10_4 C 0.4033(3) 0.7289(6) 0.2652(8)
H10_4 H 0.4078 0.8010 0.2198
C11_4 C 0.4813(3) 0.5445(6) 0.5363(8)
H11_4 H 0.4623 0.5100 0.6212
H12_3 H 0.5045 0.6081 0.5738
C12_4 C 0.5187(3) 0.4555(6) 0.4637(8)
C13_4 C 0.5610(3) 0.4114(6) 0.5723(8)
C14_4 C 0.6069(3) 0.4773(6) 0.6125(8)
C15_4 C 0.6443(3) 0.4354(6) 0.7134(8)
N2_4 N 0.6408(2) 0.3337(5) 0.7732(7)
C16_4 C 0.5967(3) 0.2711(6) 0.7348(8)
C17_4 C 0.5576(3) 0.3059(6) 0.6332(8)
H13_4 H 0.5281 0.2565 0.6049
H14_4 H 0.5922 0.1990 0.7802
H15_4 H 0.6748 0.4823 0.7424
H16_3 H 0.6121 0.5502 0.5702
H17_4 H 0.5377 0.4900 0.3788
H18_3 H 0.4955 0.3919 0.4262
O6_4 O 0.31094(19) 0.8892(4) 0.0874(6)
C18_4 C 0.2791(3) 0.9548(6) 0.0204(8)
C1_4 C 0.2209(3) 0.5452(6) 0.9796(8)
C2_4 C 0.2102(3) 0.4210(6) 0.9762(9)
H2_4 H 0.2415 0.3838 0.9255
C3_4 C 0.1566(3) 0.3838(6) 0.9016(9)
H3_4 H 0.1505 0.4298 0.8113
H4_4 H 0.1254 0.3990 0.9686
C4_4 C 0.1562(3) 0.2580(6) 0.8597(8)
H5_4 H 0.1718 0.2121 0.9421
H6_4 H 0.1175 0.2325 0.8398
C5_4 C 0.1904(3) 0.2418(5) 0.7247(8)
H12_4 H 0.0045 0.1081 0.5738
H16_4 H 0.1121 0.0502 0.5702
H19_4 H 0.2896 0.1072 0.9208
H1_4 H 0.7104 0.8928 0.0792
H8_4 H 0.8879 0.9498 0.4298
H18_4 H 0.9955 0.8919 0.4262
loop_
_geom_bond_atom_site_label_1
_geom_bond_atom_site_label_2
_geom_bond_site_symmetry_1
_geom_bond_site_symmetry_2
Cu1 N1 1_555 1_555
N1 C6 1_555 1_555
O1 Cu1 1_555 1_555
O2 C1 1_555 1_555
C1 O1 1_555 1_555
C6 H7 1_555 1_555
C7 C6 1_555 1_555
C8 C7 1_555 1_555
C9 C8 1_555 1_555
H9 C9 1_555 1_555
C10 N1 1_555 1_555
H10 C10 1_555 1_555
O5 C18 1_555 1_555
O6 Cu1 1_555 1_555
O7 C22 1_555 1_555
O8 C22 1_555 1_555
C18 O6 1_555 1_555
C19 C18 1_555 1_555
H19 C19 1_555 1_555
H20 C19 1_555 1_555
C20 C19 1_555 1_555
H21 C20 1_555 1_555
H22 C20 1_555 1_555
C21 C20 1_555 1_555
H23 C21 1_555 1_555
H24 C21 1_555 1_555
C22 C21 1_555 1_555
Cu3 Cu1 1_555 1_555
O9 Cu1 1_555 1_555
O10 Cu1 1_555 1_555
Cu7 O8 1_555 1_555
O2 Cu3 1_555 1_555
C9 C10 1_555 1_555
O5 Cu3 1_555 1_555
H11 C11 1_555 1_555
O3 C5 1_555 1_555
O4 C5 1_555 1_555
H1 C2 1_555 1_555
H2 C2 1_555 1_555
C3 C2 1_555 1_555
H3 C3 1_555 1_555
H4 C3 1_555 1_555
C4 C3 1_555 1_555
H5 C4 1_555 1_555
H6 C4 1_555 1_555
C5 C4 1_555 1_555
Cu6 O4 1_555 1_555
H17 C12 1_555 1_555
C14 C13 1_555 1_555
C15 C14 1_555 1_555
N2 C15 1_555 1_555
C16 N2 1_555 1_555
C17 C13 1_555 1_555
H13 C17 1_555 1_555
H14 C16 1_555 1_555
H15 C15 1_555 1_555
Cu2 N2 1_555 1_555
Cu8 Cu2 1_555 1_555
O11 Cu2 1_555 1_555
O12 Cu2 1_555 1_555
O13 Cu2 1_555 1_555
O14 Cu2 1_555 1_555
C16 C17 1_555 1_555
O7_2 C22_2 1_555 1_555
O8_2 C22_2 1_555 1_555
H19_2 C19_2 1_555 1_555
H20_2 C19_2 1_555 1_555
C20_2 C19_2 1_555 1_555
H21_2 C20_2 1_555 1_555
H22_2 C20_2 1_555 1_555
C21_2 C20_2 1_555 1_555
H23_2 C21_2 1_555 1_555
H24_2 C21_2 1_555 1_555
C22_2 C21_2 1_555 1_555
Cu7_2 O8_2 1_555 1_555
Cu8 N1_2 1_555 1_555
N1_2 C6_2 1_555 1_555
O1_2 Cu8 1_555 1_555
O12 C1_2 1_555 1_555
O3_2 C5_2 1_555 1_555
O4_2 C5_2 1_555 1_555
C1_2 O1_2 1_555 1_555
C2_2 C1_2 1_555 1_555
H1_2 C2_2 1_555 1_555
H2_2 C2_2 1_555 1_555
C3_2 C2_2 1_555 1_555
H3_2 C3_2 1_555 1_555
H4_2 C3_2 1_555 1_555
C4_2 C3_2 1_555 1_555
H5_2 C4_2 1_555 1_555
H6_2 C4_2 1_555 1_555
C5_2 C4_2 1_555 1_555
C6_2 H7_2 1_555 1_555
C7_2 C6_2 1_555 1_555
H8_2 C7_2 1_555 1_555
C8_2 C7_2 1_555 1_555
C9_2 C8_2 1_555 1_555
H9_2 C9_2 1_555 1_555
C10_2 N1_2 1_555 1_555
H10_2 C10_2 1_555 1_555
H17_2 C12_2 1_555 1_555
H18_2 C12_2 1_555 1_555
O11 C18_2 1_555 1_555
O6_2 Cu8 1_555 1_555
C18_2 O6_2 1_555 1_555
O9_2 Cu8 1_555 1_555
O10_2 Cu8 1_555 1_555
Cu6_2 O4_2 1_555 1_555
C9_2 C10_2 1_555 1_555
H11_2 C11_2 1_555 1_555
H12_2 C11_2 1_555 1_555
C14_2 C13_2 1_555 1_555
C15_2 C14_2 1_555 1_555
N2_2 C15_2 1_555 1_555
C16_2 N2_2 1_555 1_555
C17_2 C13_2 1_555 1_555
H13_2 C17_2 1_555 1_555
H14_2 C16_2 1_555 1_555
H15_2 C15_2 1_555 1_555
H16_2 C14_2 1_555 1_555
Cu3 N2_2 1_555 1_555
O13_2 Cu3 1_555 1_555
O14_2 Cu3 1_555 1_555
C16_2 C17_2 1_555 1_555
C13_3 C12_3 1_555 1_555
C14_3 C13_3 1_555 1_555
C15_3 C14_3 1_555 1_555
N2_3 C15_3 1_555 1_555
C16_3 N2_3 1_555 1_555
C17_3 C13_3 1_555 1_555
H13_3 C17_3 1_555 1_555
H14_3 C16_3 1_555 1_555
H15_3 C15_3 1_555 1_555
H17_3 C12_3 1_555 1_555
Cu6 N2_3 1_555 1_555
O11_2 Cu6 1_555 1_555
O12_2 Cu6 1_555 1_555
C16_3 C17_3 1_555 1_555
Cu7_2 N1_3 1_555 1_555
N1_3 C6_3 1_555 1_555
O1_3 Cu7_2 1_555 1_555
C6_3 H7_3 1_555 1_555
C7_3 C6_3 1_555 1_555
C8_3 C7_3 1_555 1_555
C9_3 C8_3 1_555 1_555
H9_3 C9_3 1_555 1_555
C10_3 N1_3 1_555 1_555
H10_3 C10_3 1_555 1_555
C11_3 C8_3 1_555 1_555
H11_3 C11_3 1_555 1_555
O6_3 Cu7_2 1_555 1_555
O13 C22_3 1_555 1_555
O10_2 C22_3 1_555 1_555
C18_3 O6_3 1_555 1_555
C19_3 C18_3 1_555 1_555
H20_3 C19_3 1_555 1_555
C20_3 C19_3 1_555 1_555
H21_3 C20_3 1_555 1_555
H22_3 C20_3 1_555 1_555
C21_3 C20_3 1_555 1_555
H23_3 C21_3 1_555 1_555
H24_3 C21_3 1_555 1_555
C22_3 C21_3 1_555 1_555
C9_3 C10_3 1_555 1_555
O2_2 C1_3 1_555 1_555
O2_2 Cu6_2 1_555 1_555
O5_2 Cu6_2 1_555 1_555
O9_2 C5_3 1_555 1_555
O14 C5_3 1_555 1_555
H2_3 C2_3 1_555 1_555
C3_3 C2_3 1_555 1_555
H3_3 C3_3 1_555 1_555
H4_3 C3_3 1_555 1_555
C4_3 C3_3 1_555 1_555
H5_3 C4_3 1_555 1_555
H6_3 C4_3 1_555 1_555
C5_3 C4_3 1_555 1_555
O13_2 C22_4 1_555 1_555
O10 C22_4 1_555 1_555
H20_4 C19_4 1_555 1_555
C20_4 C19_4 1_555 1_555
H21_4 C20_4 1_555 1_555
H22_4 C20_4 1_555 1_555
C21_4 C20_4 1_555 1_555
H23_4 C21_4 1_555 1_555
H24_4 C21_4 1_555 1_555
C22_4 C21_4 1_555 1_555
Cu7 N1_4 1_555 1_555
N1_4 C6_4 1_555 1_555
O1_4 Cu7 1_555 1_555
C6_4 H7_4 1_555 1_555
C7_4 C6_4 1_555 1_555
H8_3 C7_4 1_555 1_555
C8_4 C7_4 1_555 1_555
C9_4 C8_4 1_555 1_555
H9_4 C9_4 1_555 1_555
C10_4 N1_4 1_555 1_555
H10_4 C10_4 1_555 1_555
C11_4 C8_4 1_555 1_555
H11_4 C11_4 1_555 1_555
H12_3 C11_4 1_555 1_555
C12_4 C11_4 1_555 1_555
C13_4 C12_4 1_555 1_555
C14_4 C13_4 1_555 1_555
C15_4 C14_4 1_555 1_555
N2_4 C15_4 1_555 1_555
C16_4 N2_4 1_555 1_555
C17_4 C13_4 1_555 1_555
H13_4 C17_4 1_555 1_555
H14_4 C16_4 1_555 1_555
H15_4 C15_4 1_555 1_555
H16_3 C14_4 1_555 1_555
H17_4 C12_4 1_555 1_555
H18_3 C12_4 1_555 1_555
O6_4 Cu7 1_555 1_555
C18_4 O6_4 1_555 1_555
Cu6_2 N2_4 1_555 1_555
C9_4 C10_4 1_555 1_555
C16_4 C17_4 1_555 1_555
O12_2 C1_4 1_555 1_555
O9 C5_4 1_555 1_555
O14_2 C5_4 1_555 1_555
C2_4 C1_4 1_555 1_555
H2_4 C2_4 1_555 1_555
C3_4 C2_4 1_555 1_555
H3_4 C3_4 1_555 1_555
H4_4 C3_4 1_555 1_555
C4_4 C3_4 1_555 1_555
H5_4 C4_4 1_555 1_555
H6_4 C4_4 1_555 1_555
C5_4 C4_4 1_555 1_555

#END
