
###############################################################################
#
# This file contains modified crystal structure data generated from the
# MOF subset of the Cambridge Structural Database (CSD) v543 
# hosted by the Cambridge Crystallographic Data Centre (CCDC).
#
# This work is licensed under the Creative Commons
# Attribution-NonCommercial-ShareAlike 4.0 International License.
# To view a copy of this license, visit
# http://creativecommons.org/licenses/by-nc-sa/4.0/
# or send a letter to
# Creative Commons, PO Box 1866, Mountain View, CA 94042, USA.
#
# CIF created using the CSD Python API on 29 September 2022
# The structure has been converted into the P1 space group
# The structure has a 3D framework
# The original CSD entry MABKIK01 is in the monoclinic crystal system
# The framework has been calculated to contain at least 10.0% void space
# The void calculation uses a probe of radius 1.32A, grid spacing 0.4
#
###############################################################################

data_MABKIK01
_chemical_formula_moiety         '(C88 H96 Cu8 N8 O32)n'
_symmetry_cell_setting           triclinic
_symmetry_space_group_name_H-M   'P 1'
_symmetry_Int_Tables_number      1
_space_group_name_Hall           'P 1'
loop_
_symmetry_equiv_pos_site_id
_symmetry_equiv_pos_as_xyz
1 x,y,z
_cell_length_a                   24.238(2)
_cell_length_b                   13.0527(13)
_cell_length_c                   8.6313(8)
_cell_angle_alpha                90
_cell_angle_beta                 91.473(2)
_cell_angle_gamma                90
_cell_volume                     2729.79
loop_
_atom_site_label
_atom_site_type_symbol
_atom_site_fract_x
_atom_site_fract_y
_atom_site_fract_z
Cu1 Cu 0.205251(14) 0.20430(3) 0.44606(4)
N1 N 0.13951(9) 0.13937(18) 0.3045(3)
O1 O 0.24332(9) 0.07640(15) 0.5073(2)
O2 O 0.31986(9) 0.15457(16) 0.5916(3)
C1 C 0.29118(12) 0.0758(2) 0.5674(3)
C6 C 0.14480(12) 0.0455(2) 0.2452(3)
H7 H 0.1743 0.0035 0.2821
C7 C 0.10891(12) 0.0069(2) 0.1318(3)
C8 C 0.06572(12) 0.0669(2) 0.0762(3)
C9 C 0.06086(12) 0.1641(2) 0.1360(3)
H9 H 0.0320 0.2080 0.1000
C10 C 0.09809(12) 0.1974(2) 0.2484(3)
H10 H 0.0942 0.2649 0.2879
O5 O 0.25668(9) 0.42360(15) 0.4927(2)
O6 O 0.18014(9) 0.34543(16) 0.4084(3)
O7 O 0.17339(9) 0.78338(17) 0.1536(2)
O8 O 0.25045(9) 0.70961(16) 0.2429(2)
C18 C 0.20882(12) 0.4242(2) 0.4326(3)
C19 C 0.18388(13) 0.5247(2) 0.3800(3)
H19 H 0.1973 0.5403 0.2753
H20 H 0.1433 0.5162 0.3710
C20 C 0.19634(13) 0.6160(2) 0.4847(3)
H21 H 0.1784 0.6058 0.5854
H22 H 0.2367 0.6206 0.5047
C21 C 0.17566(13) 0.7160(2) 0.4113(3)
H23 H 0.1837 0.7733 0.4835
H24 H 0.1351 0.7120 0.3952
C22 C 0.20203(12) 0.7382(2) 0.2574(3)
Cu3 Cu 0.294749(14) 0.29570(3) 0.55394(4)
O9 O 0.17339(9) 0.21662(17) 0.6536(2)
O10 O 0.24955(9) 0.20961(16) 0.2571(2)
Cu7 Cu 0.294749(14) 0.70430(3) 0.05394(4)
C11 C 0.02388(13) 0.0254(3) 0.9596(3)
H12 H 0.0097 0.0821 0.8936
Cu6 Cu 0.205251(14) 0.79570(3) 0.94606(4)
O3 O 0.32661(9) 0.71662(17) 0.8464(2)
O4 O 0.24955(9) 0.79039(16) 0.7571(2)
C2 C 0.31612(13) 0.9753(2) 0.6200(3)
H1 H 0.3027 0.9597 0.7247
H2 H 0.3567 0.9838 0.6290
C3 C 0.30366(13) 0.8840(2) 0.5153(3)
H3 H 0.3216 0.8942 0.4146
H4 H 0.2633 0.8794 0.4953
C4 C 0.32434(13) 0.7840(2) 0.5887(3)
H5 H 0.3163 0.7267 0.5165
H6 H 0.3649 0.7880 0.6048
C5 C 0.29797(12) 0.7618(2) 0.7426(3)
H8 H 0.1140 0.9397 0.0926
H16 H 0.8860 0.0603 0.9074
C12 C 0.97612(13) 0.9746(3) 0.0404(3)
H18 H 0.9903 0.9179 0.1064
C13 C 0.93428(12) 0.9331(2) 0.9238(3)
C14 C 0.89109(12) 0.9931(2) 0.8682(3)
C15 C 0.85520(12) 0.9545(2) 0.7548(3)
N2 N 0.86049(9) 0.86063(18) 0.6955(3)
C16 C 0.90191(12) 0.8026(2) 0.7516(3)
C17 C 0.93914(12) 0.8359(2) 0.8640(3)
H13 H 0.9680 0.7920 0.9000
H14 H 0.9058 0.7351 0.7121
H15 H 0.8257 0.9965 0.7179
Cu2 Cu 0.794749(14) 0.79570(3) 0.55394(4)
Cu8 Cu 0.705251(14) 0.70430(3) 0.44606(4)
O11 O 0.75668(9) 0.92360(15) 0.4927(2)
O12 O 0.81986(9) 0.65457(16) 0.5916(3)
O13 O 0.82661(9) 0.78338(17) 0.3464(2)
O14 O 0.75045(9) 0.79039(16) 0.7429(2)
O7_2 O 0.67339(9) 0.28338(17) 0.1536(2)
O8_2 O 0.75045(9) 0.20961(16) 0.2429(2)
C19_2 C 0.68388(13) 0.0247(2) 0.3800(3)
H19_2 H 0.6973 0.0403 0.2753
H20_2 H 0.6433 0.0162 0.3710
C20_2 C 0.69634(13) 0.1160(2) 0.4847(3)
H21_2 H 0.6784 0.1058 0.5854
H22_2 H 0.7367 0.1206 0.5047
C21_2 C 0.67566(13) 0.2160(2) 0.4113(3)
H23_2 H 0.6837 0.2733 0.4835
H24_2 H 0.6351 0.2120 0.3952
C22_2 C 0.70203(12) 0.2382(2) 0.2574(3)
Cu7_2 Cu 0.794749(14) 0.20430(3) 0.05394(4)
Cu6_2 Cu 0.705251(14) 0.29570(3) 0.94606(4)
N1_2 N 0.63951(9) 0.63937(18) 0.3045(3)
O1_2 O 0.74332(9) 0.57640(15) 0.5073(2)
O3_2 O 0.82661(9) 0.21662(17) 0.8464(2)
O4_2 O 0.74955(9) 0.29039(16) 0.7571(2)
C1_2 C 0.79118(12) 0.5758(2) 0.5674(3)
C2_2 C 0.81612(13) 0.4753(2) 0.6200(3)
H1_2 H 0.8027 0.4597 0.7247
H2_2 H 0.8567 0.4838 0.6290
C3_2 C 0.80366(13) 0.3840(2) 0.5153(3)
H3_2 H 0.8216 0.3942 0.4146
H4_2 H 0.7633 0.3794 0.4953
C4_2 C 0.82434(13) 0.2840(2) 0.5887(3)
H5_2 H 0.8163 0.2267 0.5165
H6_2 H 0.8649 0.2880 0.6048
C5_2 C 0.79797(12) 0.2618(2) 0.7426(3)
C6_2 C 0.64480(12) 0.5455(2) 0.2452(3)
H7_2 H 0.6743 0.5035 0.2821
C7_2 C 0.60891(12) 0.5069(2) 0.1318(3)
H8_2 H 0.6140 0.4397 0.0926
C8_2 C 0.56572(12) 0.5669(2) 0.0762(3)
C9_2 C 0.56086(12) 0.6641(2) 0.1360(3)
H9_2 H 0.5320 0.7080 0.1000
C10_2 C 0.59809(12) 0.6974(2) 0.2484(3)
H10_2 H 0.5942 0.7649 0.2879
C12_2 C 0.47612(13) 0.4746(3) 0.0404(3)
H17 H 0.4581 0.5251 0.1081
H18_2 H 0.4903 0.4179 0.1064
O6_2 O 0.68014(9) 0.84543(16) 0.4084(3)
C18_2 C 0.70882(12) 0.9242(2) 0.4326(3)
O9_2 O 0.67339(9) 0.71662(17) 0.6536(2)
O10_2 O 0.74955(9) 0.70961(16) 0.2571(2)
C11_2 C 0.52388(13) 0.5254(3) 0.9596(3)
H11 H 0.5419 0.4749 0.8919
H12_2 H 0.5097 0.5821 0.8936
C13_2 C 0.43428(12) 0.4331(2) 0.9238(3)
C14_2 C 0.39109(12) 0.4931(2) 0.8682(3)
C15_2 C 0.35520(12) 0.4545(2) 0.7548(3)
N2_2 N 0.36049(9) 0.36063(18) 0.6955(3)
C16_2 C 0.40191(12) 0.3026(2) 0.7516(3)
C17_2 C 0.43914(12) 0.3359(2) 0.8640(3)
H13_2 H 0.4680 0.2920 0.9000
H14_2 H 0.4058 0.2351 0.7121
H15_2 H 0.3257 0.4965 0.7179
H16_2 H 0.3860 0.5603 0.9074
O13_2 O 0.32661(9) 0.28338(17) 0.3464(2)
O14_2 O 0.25045(9) 0.29039(16) 0.7429(2)
O11_2 O 0.24332(9) 0.92360(15) 0.0073(2)
C12_3 C 0.02388(13) 0.9746(3) 0.4596(3)
C13_3 C 0.06572(12) 0.9331(2) 0.5762(3)
C14_3 C 0.10891(12) 0.9931(2) 0.6318(3)
C15_3 C 0.14480(12) 0.9545(2) 0.7452(3)
N2_3 N 0.13951(9) 0.86063(18) 0.8045(3)
C16_3 C 0.09809(12) 0.8026(2) 0.7484(3)
C17_3 C 0.06086(12) 0.8359(2) 0.6360(3)
H13_3 H 0.0320 0.7920 0.6000
H14_3 H 0.0942 0.7351 0.7879
H15_3 H 0.1743 0.9965 0.7821
H18_3 H 0.0097 0.9179 0.3936
O12_2 O 0.18014(9) 0.65457(16) 0.9084(3)
N1_3 N 0.86049(9) 0.13937(18) 0.1955(3)
C6_3 C 0.85520(12) 0.0455(2) 0.2548(3)
H7_3 H 0.8257 0.0035 0.2179
C7_3 C 0.89109(12) 0.0069(2) 0.3682(3)
C8_3 C 0.93428(12) 0.0669(2) 0.4238(3)
C9_3 C 0.93914(12) 0.1641(2) 0.3640(3)
H9_3 H 0.9680 0.2080 0.4000
C10_3 C 0.90191(12) 0.1974(2) 0.2516(3)
H10_3 H 0.9058 0.2649 0.2121
C11_3 C 0.97612(13) 0.0254(3) 0.5404(3)
H12_3 H 0.9903 0.0821 0.6064
O5_2 O 0.74332(9) 0.42360(15) 0.0073(2)
O6_3 O 0.81986(9) 0.34543(16) 0.0916(3)
C18_3 C 0.79118(12) 0.4242(2) 0.0674(3)
C19_3 C 0.81612(13) 0.5247(2) 0.1200(3)
H19_3 H 0.8027 0.5403 0.2247
H20_3 H 0.8567 0.5162 0.1290
C20_3 C 0.80366(13) 0.6160(2) 0.0153(3)
C21_3 C 0.82434(13) 0.7160(2) 0.0887(3)
H23_3 H 0.8163 0.7733 0.0165
H24_3 H 0.8649 0.7120 0.1048
C22_3 C 0.79797(12) 0.7382(2) 0.2426(3)
O1_3 O 0.75668(9) 0.07640(15) 0.9927(2)
O2_2 O 0.68014(9) 0.15457(16) 0.9084(3)
C1_3 C 0.70882(12) 0.0758(2) 0.9326(3)
H21_3 H 0.8216 0.6058 0.9146
H22_3 H 0.7633 0.6206 0.9953
C2_3 C 0.68388(13) 0.9753(2) 0.8800(3)
H1_3 H 0.6973 0.9597 0.7753
H2_3 H 0.6433 0.9838 0.8710
C3_3 C 0.69634(13) 0.8840(2) 0.9847(3)
C4_3 C 0.67566(13) 0.7840(2) 0.9113(3)
H5_3 H 0.6837 0.7267 0.9835
H6_3 H 0.6351 0.7880 0.8952
C5_3 C 0.70203(12) 0.7618(2) 0.7574(3)
C19_4 C 0.31612(13) 0.0247(2) 0.1200(3)
H19_4 H 0.3027 0.0403 0.2247
H20_4 H 0.3567 0.0162 0.1290
C20_4 C 0.30366(13) 0.1160(2) 0.0153(3)
C21_4 C 0.32434(13) 0.2160(2) 0.0887(3)
H23_4 H 0.3163 0.2733 0.0165
H24_4 H 0.3649 0.2120 0.1048
C22_4 C 0.29797(12) 0.2382(2) 0.2426(3)
N1_4 N 0.36049(9) 0.63937(18) 0.1955(3)
H3_3 H 0.1784 0.3942 0.0854
H4_3 H 0.2367 0.3794 0.0047
C6_4 C 0.35520(12) 0.5455(2) 0.2548(3)
H7_4 H 0.3257 0.5035 0.2179
C7_4 C 0.39109(12) 0.5069(2) 0.3682(3)
H8_3 H 0.3860 0.4397 0.4074
C8_4 C 0.43428(12) 0.5669(2) 0.4238(3)
C9_4 C 0.43914(12) 0.6641(2) 0.3640(3)
H9_4 H 0.4680 0.7080 0.4000
C10_4 C 0.40191(12) 0.6974(2) 0.2516(3)
H10_4 H 0.4058 0.7649 0.2121
C11_4 C 0.47612(13) 0.5254(3) 0.5404(3)
H11_2 H 0.4581 0.4749 0.6081
H12_4 H 0.4903 0.5821 0.6064
C12_4 C 0.52388(13) 0.4746(3) 0.4596(3)
C13_4 C 0.56572(12) 0.4331(2) 0.5762(3)
C14_4 C 0.60891(12) 0.4931(2) 0.6318(3)
C15_4 C 0.64480(12) 0.4545(2) 0.7452(3)
N2_4 N 0.63951(9) 0.36063(18) 0.8045(3)
C16_4 C 0.59809(12) 0.3026(2) 0.7484(3)
C17_4 C 0.56086(12) 0.3359(2) 0.6360(3)
H13_4 H 0.5320 0.2920 0.6000
H14_4 H 0.5942 0.2351 0.7879
H15_4 H 0.6743 0.4965 0.7821
H16_3 H 0.6140 0.5603 0.5926
H17_2 H 0.5419 0.5251 0.3919
H18_4 H 0.5097 0.4179 0.3936
O6_4 O 0.31986(9) 0.84543(16) 0.0916(3)
C18_4 C 0.29118(12) 0.9242(2) 0.0674(3)
O1_4 O 0.25668(9) 0.57640(15) 0.9927(2)
C1_4 C 0.20882(12) 0.5758(2) 0.9326(3)
C2_4 C 0.18388(13) 0.4753(2) 0.8800(3)
H1_4 H 0.1973 0.4597 0.7753
H2_4 H 0.1433 0.4838 0.8710
C3_4 C 0.19634(13) 0.3840(2) 0.9847(3)
C4_4 C 0.17566(13) 0.2840(2) 0.9113(3)
H5_4 H 0.1837 0.2267 0.9835
H6_4 H 0.1351 0.2880 0.8952
C5_4 C 0.20203(12) 0.2618(2) 0.7574(3)
H11_3 H 0.0419 0.9749 0.8919
H17_3 H 0.9581 0.0251 0.1081
H16_4 H 0.1140 0.0603 0.5926
H17_4 H 0.0419 0.0251 0.3919
H21_4 H 0.3216 0.1058 0.9146
H22_4 H 0.2633 0.1206 0.9953
H3_4 H 0.6784 0.8942 0.0854
H4_4 H 0.7367 0.8794 0.0047
H8_4 H 0.8860 0.9397 0.4074
H11_4 H 0.9581 0.9749 0.6081
loop_
_geom_bond_atom_site_label_1
_geom_bond_atom_site_label_2
_geom_bond_site_symmetry_1
_geom_bond_site_symmetry_2
Cu1 N1 1_555 1_555
N1 C6 1_555 1_555
O1 Cu1 1_555 1_555
O2 C1 1_555 1_555
C1 O1 1_555 1_555
C6 H7 1_555 1_555
C7 C6 1_555 1_555
C8 C7 1_555 1_555
C9 C8 1_555 1_555
H9 C9 1_555 1_555
C10 N1 1_555 1_555
H10 C10 1_555 1_555
O5 C18 1_555 1_555
O6 Cu1 1_555 1_555
O7 C22 1_555 1_555
O8 C22 1_555 1_555
C18 O6 1_555 1_555
C19 C18 1_555 1_555
H19 C19 1_555 1_555
H20 C19 1_555 1_555
C20 C19 1_555 1_555
H21 C20 1_555 1_555
H22 C20 1_555 1_555
C21 C20 1_555 1_555
H23 C21 1_555 1_555
H24 C21 1_555 1_555
C22 C21 1_555 1_555
Cu3 Cu1 1_555 1_555
O9 Cu1 1_555 1_555
O10 Cu1 1_555 1_555
Cu7 O8 1_555 1_555
O2 Cu3 1_555 1_555
C9 C10 1_555 1_555
O5 Cu3 1_555 1_555
H12 C11 1_555 1_555
O3 C5 1_555 1_555
O4 C5 1_555 1_555
H1 C2 1_555 1_555
H2 C2 1_555 1_555
C3 C2 1_555 1_555
H3 C3 1_555 1_555
H4 C3 1_555 1_555
C4 C3 1_555 1_555
H5 C4 1_555 1_555
H6 C4 1_555 1_555
C5 C4 1_555 1_555
Cu6 O4 1_555 1_555
H18 C12 1_555 1_555
C14 C13 1_555 1_555
C15 C14 1_555 1_555
N2 C15 1_555 1_555
C16 N2 1_555 1_555
C17 C13 1_555 1_555
H13 C17 1_555 1_555
H14 C16 1_555 1_555
H15 C15 1_555 1_555
Cu2 N2 1_555 1_555
Cu8 Cu2 1_555 1_555
O11 Cu2 1_555 1_555
O12 Cu2 1_555 1_555
O13 Cu2 1_555 1_555
O14 Cu2 1_555 1_555
C16 C17 1_555 1_555
O7_2 C22_2 1_555 1_555
O8_2 C22_2 1_555 1_555
H19_2 C19_2 1_555 1_555
H20_2 C19_2 1_555 1_555
C20_2 C19_2 1_555 1_555
H21_2 C20_2 1_555 1_555
H22_2 C20_2 1_555 1_555
C21_2 C20_2 1_555 1_555
H23_2 C21_2 1_555 1_555
H24_2 C21_2 1_555 1_555
C22_2 C21_2 1_555 1_555
Cu7_2 O8_2 1_555 1_555
Cu8 N1_2 1_555 1_555
N1_2 C6_2 1_555 1_555
O1_2 Cu8 1_555 1_555
O12 C1_2 1_555 1_555
O3_2 C5_2 1_555 1_555
O4_2 C5_2 1_555 1_555
C1_2 O1_2 1_555 1_555
C2_2 C1_2 1_555 1_555
H1_2 C2_2 1_555 1_555
H2_2 C2_2 1_555 1_555
C3_2 C2_2 1_555 1_555
H3_2 C3_2 1_555 1_555
H4_2 C3_2 1_555 1_555
C4_2 C3_2 1_555 1_555
H5_2 C4_2 1_555 1_555
H6_2 C4_2 1_555 1_555
C5_2 C4_2 1_555 1_555
C6_2 H7_2 1_555 1_555
C7_2 C6_2 1_555 1_555
H8_2 C7_2 1_555 1_555
C8_2 C7_2 1_555 1_555
C9_2 C8_2 1_555 1_555
H9_2 C9_2 1_555 1_555
C10_2 N1_2 1_555 1_555
H10_2 C10_2 1_555 1_555
H17 C12_2 1_555 1_555
H18_2 C12_2 1_555 1_555
O11 C18_2 1_555 1_555
O6_2 Cu8 1_555 1_555
C18_2 O6_2 1_555 1_555
O9_2 Cu8 1_555 1_555
O10_2 Cu8 1_555 1_555
Cu6_2 O4_2 1_555 1_555
C9_2 C10_2 1_555 1_555
H11 C11_2 1_555 1_555
H12_2 C11_2 1_555 1_555
C14_2 C13_2 1_555 1_555
C15_2 C14_2 1_555 1_555
N2_2 C15_2 1_555 1_555
C16_2 N2_2 1_555 1_555
C17_2 C13_2 1_555 1_555
H13_2 C17_2 1_555 1_555
H14_2 C16_2 1_555 1_555
H15_2 C15_2 1_555 1_555
H16_2 C14_2 1_555 1_555
Cu3 N2_2 1_555 1_555
O13_2 Cu3 1_555 1_555
O14_2 Cu3 1_555 1_555
C16_2 C17_2 1_555 1_555
C13_3 C12_3 1_555 1_555
C14_3 C13_3 1_555 1_555
C15_3 C14_3 1_555 1_555
N2_3 C15_3 1_555 1_555
C16_3 N2_3 1_555 1_555
C17_3 C13_3 1_555 1_555
H13_3 C17_3 1_555 1_555
H14_3 C16_3 1_555 1_555
H15_3 C15_3 1_555 1_555
H18_3 C12_3 1_555 1_555
Cu6 N2_3 1_555 1_555
O12_2 Cu6 1_555 1_555
C16_3 C17_3 1_555 1_555
Cu7_2 N1_3 1_555 1_555
N1_3 C6_3 1_555 1_555
C6_3 H7_3 1_555 1_555
C7_3 C6_3 1_555 1_555
C8_3 C7_3 1_555 1_555
C9_3 C8_3 1_555 1_555
H9_3 C9_3 1_555 1_555
C10_3 N1_3 1_555 1_555
H10_3 C10_3 1_555 1_555
C11_3 C8_3 1_555 1_555
H12_3 C11_3 1_555 1_555
O5_2 C18_3 1_555 1_555
O6_3 Cu7_2 1_555 1_555
O13 C22_3 1_555 1_555
O10_2 C22_3 1_555 1_555
C18_3 O6_3 1_555 1_555
C19_3 C18_3 1_555 1_555
H19_3 C19_3 1_555 1_555
H20_3 C19_3 1_555 1_555
C20_3 C19_3 1_555 1_555
C21_3 C20_3 1_555 1_555
H23_3 C21_3 1_555 1_555
H24_3 C21_3 1_555 1_555
C22_3 C21_3 1_555 1_555
C9_3 C10_3 1_555 1_555
O2_2 C1_3 1_555 1_555
C1_3 O1_3 1_555 1_555
O2_2 Cu6_2 1_555 1_555
O9_2 C5_3 1_555 1_555
O14 C5_3 1_555 1_555
H1_3 C2_3 1_555 1_555
H2_3 C2_3 1_555 1_555
C3_3 C2_3 1_555 1_555
C4_3 C3_3 1_555 1_555
H5_3 C4_3 1_555 1_555
H6_3 C4_3 1_555 1_555
C5_3 C4_3 1_555 1_555
O13_2 C22_4 1_555 1_555
O10 C22_4 1_555 1_555
H19_4 C19_4 1_555 1_555
H20_4 C19_4 1_555 1_555
C20_4 C19_4 1_555 1_555
C21_4 C20_4 1_555 1_555
H23_4 C21_4 1_555 1_555
H24_4 C21_4 1_555 1_555
C22_4 C21_4 1_555 1_555
Cu7 N1_4 1_555 1_555
N1_4 C6_4 1_555 1_555
C6_4 H7_4 1_555 1_555
C7_4 C6_4 1_555 1_555
H8_3 C7_4 1_555 1_555
C8_4 C7_4 1_555 1_555
C9_4 C8_4 1_555 1_555
H9_4 C9_4 1_555 1_555
C10_4 N1_4 1_555 1_555
H10_4 C10_4 1_555 1_555
C11_4 C8_4 1_555 1_555
H11_2 C11_4 1_555 1_555
H12_4 C11_4 1_555 1_555
C12_4 C11_4 1_555 1_555
C13_4 C12_4 1_555 1_555
C14_4 C13_4 1_555 1_555
C15_4 C14_4 1_555 1_555
N2_4 C15_4 1_555 1_555
C16_4 N2_4 1_555 1_555
C17_4 C13_4 1_555 1_555
H13_4 C17_4 1_555 1_555
H14_4 C16_4 1_555 1_555
H15_4 C15_4 1_555 1_555
H16_3 C14_4 1_555 1_555
H17_2 C12_4 1_555 1_555
H18_4 C12_4 1_555 1_555
O11_2 C18_4 1_555 1_555
O6_4 Cu7 1_555 1_555
C18_4 O6_4 1_555 1_555
Cu6_2 N2_4 1_555 1_555
C9_4 C10_4 1_555 1_555
C16_4 C17_4 1_555 1_555
O12_2 C1_4 1_555 1_555
O9 C5_4 1_555 1_555
O14_2 C5_4 1_555 1_555
C1_4 O1_4 1_555 1_555
C2_4 C1_4 1_555 1_555
H1_4 C2_4 1_555 1_555
H2_4 C2_4 1_555 1_555
C3_4 C2_4 1_555 1_555
C4_4 C3_4 1_555 1_555
H5_4 C4_4 1_555 1_555
H6_4 C4_4 1_555 1_555
C5_4 C4_4 1_555 1_555

#END
