
###############################################################################
#
# This file contains modified crystal structure data generated from the
# MOF subset of the Cambridge Structural Database (CSD) v543 
# hosted by the Cambridge Crystallographic Data Centre (CCDC).
#
# This work is licensed under the Creative Commons
# Attribution-NonCommercial-ShareAlike 4.0 International License.
# To view a copy of this license, visit
# http://creativecommons.org/licenses/by-nc-sa/4.0/
# or send a letter to
# Creative Commons, PO Box 1866, Mountain View, CA 94042, USA.
#
# CIF created using the CSD Python API on 29 September 2022
# The structure has been converted into the P1 space group
# The structure has a 3D framework
# The original CSD entry MABLAD is in the monoclinic crystal system
# The framework has been calculated to contain at least 10.0% void space
# The void calculation uses a probe of radius 1.32A, grid spacing 0.4
#
###############################################################################

data_MABLAD
_chemical_formula_moiety         '(C192 H128 Co8 N16 O32)n'
_symmetry_cell_setting           triclinic
_symmetry_space_group_name_H-M   'P 1'
_symmetry_Int_Tables_number      1
_space_group_name_Hall           'P 1'
loop_
_symmetry_equiv_pos_site_id
_symmetry_equiv_pos_as_xyz
1 x,y,z
_cell_length_a                   9.523(2)
_cell_length_b                   20.618(4)
_cell_length_c                   25.874(5)
_cell_angle_alpha                90.00
_cell_angle_beta                 96.20(3)
_cell_angle_gamma                90.00
_cell_volume                     5050.52
loop_
_atom_site_label
_atom_site_type_symbol
_atom_site_fract_x
_atom_site_fract_y
_atom_site_fract_z
C23 C 0.036(2) 0.6623(8) 0.9235(7)
H15 H 0.1031 0.6713 0.9008
H16 H 0.0114 0.5669 0.9033
Co4 Co 0.0947(2) 0.80277(9) 0.95575(6)
O3 O 0.5670(9) 0.3107(4) 0.0322(3)
O4 O 0.7189(10) 0.2364(5) 0.0602(3)
C8 C 0.6296(14) 0.2787(6) 0.0675(5)
C9 C 0.5930(15) 0.2869(6) 0.1220(4)
C10 C 0.6851(15) 0.2686(7) 0.1631(5)
H5 H 0.7711 0.2503 0.1571
C11 C 0.6536(16) 0.2765(7) 0.2147(5)
H6 H 0.7212 0.2679 0.2426
C12 C 0.5188(15) 0.2975(7) 0.2231(5)
C13 C 0.4271(16) 0.3137(8) 0.1812(5)
H7 H 0.3373 0.3282 0.1865
C14 C 0.4633(17) 0.3092(8) 0.1306(5)
H8 H 0.3989 0.3216 0.1027
H9 H 0.6012 0.4333 0.0155
H10 H 0.7050 0.5329 0.0180
H13 H 0.7678 0.6289 0.0081
H14 H 0.8630 0.7289 0.0019
C32 C 0.4812(15) 0.2975(7) 0.2769(5)
C33 C 0.3464(16) 0.2765(7) 0.2853(5)
C34 C 0.3149(15) 0.2686(7) 0.3369(5)
C35 C 0.4070(15) 0.2869(6) 0.3780(4)
C36 C 0.3704(14) 0.2787(6) 0.4325(5)
O7 O 0.4330(9) 0.3107(4) 0.4678(3)
O8 O 0.2811(10) 0.2364(5) 0.4398(3)
C37 C 0.5367(17) 0.3092(8) 0.3694(5)
C38 C 0.5729(16) 0.3137(8) 0.3188(5)
H21 H 0.6627 0.3282 0.3135
H22 H 0.6011 0.3216 0.3973
H23 H 0.2289 0.2503 0.3429
H24 H 0.2788 0.2679 0.2574
H26 H 0.2050 0.0329 0.0180
H29 H 0.2678 0.1289 0.0081
H30 H 0.3630 0.2289 0.0019
Co3 Co 0.9053(2) 0.19723(9) 0.04425(6)
Co5 Co 0.4053(2) 0.30277(9) 0.54425(6)
Co6 Co 0.0947(2) 0.19723(9) 0.45575(6)
Co1 Co 0.5947(2) 0.30277(9) 0.95575(6)
O1 O 0.3887(9) 0.3477(5) 0.9344(3)
O2 O 0.5196(10) 0.3194(5) 0.8735(3)
N1 N 0.6971(13) 0.3963(5) 0.9593(4)
N2 N 0.9998(12) 0.7078(5) 0.9532(4)
C1 C 0.4071(17) 0.3415(7) 0.8868(5)
C2 C 0.2917(16) 0.3596(7) 0.8472(5)
C3 C 0.1542(19) 0.3644(9) 0.8601(6)
H1 H 0.1354 0.3601 0.8945
C4 C 0.0480(17) 0.3754(9) 0.8219(6)
C5 C 0.0589(17) 0.3792(7) 0.7710(5)
C6 C 0.1996(18) 0.3763(8) 0.7580(5)
H3 H 0.2167 0.3818 0.7236
C7 C 0.3119(17) 0.3653(8) 0.7956(5)
H4 H 0.4026 0.3617 0.7857
C15 C 0.666(2) 0.4426(7) 0.9920(7)
C16 C 0.724(2) 0.5030(8) 0.9927(7)
C17 C 0.8103(15) 0.5194(6) 0.9561(5)
C18 C 0.845(2) 0.4711(8) 0.9251(7)
H11 H 0.9116 0.4786 0.9020
C19 C 0.784(2) 0.4111(8) 0.9268(7)
H12 H 0.8067 0.3797 0.9033
C20 C 0.8718(16) 0.5862(7) 0.9551(5)
C21 C 0.8352(16) 0.6356(7) 0.9852(6)
C22 C 0.8958(14) 0.6953(7) 0.9824(6)
C24 C 0.978(2) 0.5994(8) 0.9238(8)
H20 H 0.0418 0.3809 0.6678
N4 N 0.4998(12) 0.2078(5) 0.9532(4)
C40 C 0.224(2) 0.0030(8) 0.9927(7)
C41 C 0.3103(15) 0.0194(6) 0.9561(5)
C44 C 0.3718(16) 0.0862(7) 0.9551(5)
C45 C 0.3352(16) 0.1356(7) 0.9852(6)
C46 C 0.3958(14) 0.1953(7) 0.9824(6)
C47 C 0.536(2) 0.1623(8) 0.9235(7)
H31 H 0.6031 0.1713 0.9008
C48 C 0.478(2) 0.0994(8) 0.9238(8)
H32 H 0.5114 0.0669 0.9033
O9 O 0.7811(10) 0.2636(5) 0.9398(3)
H25 H 0.1012 0.9333 0.0155
N3 N 0.1971(13) 0.8963(5) 0.9593(4)
C39 C 0.166(2) 0.9426(7) 0.9920(7)
C42 C 0.345(2) 0.9711(8) 0.9251(7)
H27 H 0.4116 0.9786 0.9020
C43 C 0.284(2) 0.9111(8) 0.9268(7)
H28 H 0.3067 0.8797 0.9033
H2 H 0.9582 0.3809 0.8322
C25 C 0.9411(17) 0.3792(7) 0.7290(5)
C26 C 0.9520(17) 0.3754(9) 0.6781(6)
C27 C 0.8458(19) 0.3644(9) 0.6399(6)
C28 C 0.7083(16) 0.3596(7) 0.6528(5)
C29 C 0.5929(17) 0.3415(7) 0.6132(5)
O5 O 0.6113(9) 0.3477(5) 0.5656(3)
O6 O 0.4804(10) 0.3194(5) 0.6265(3)
C30 C 0.6881(17) 0.3653(8) 0.7044(5)
C31 C 0.8004(18) 0.3763(8) 0.7420(5)
H17 H 0.7833 0.3818 0.7764
H18 H 0.5974 0.3617 0.7143
H19 H 0.8646 0.3601 0.6055
O11 O 0.2189(10) 0.2636(5) 0.5602(3)
N5 N 0.3029(13) 0.3963(5) 0.5407(4)
N6 N 0.5002(12) 0.2078(5) 0.5468(4)
O3_2 O 0.0670(9) 0.8107(4) 0.0322(3)
O4_2 O 0.2189(10) 0.7364(5) 0.0602(3)
C8_2 C 0.1296(14) 0.7787(6) 0.0675(5)
C9_2 C 0.0930(15) 0.7869(6) 0.1220(4)
C10_2 C 0.1851(15) 0.7686(7) 0.1631(5)
H5_2 H 0.2711 0.7503 0.1571
C11_2 C 0.1536(16) 0.7765(7) 0.2147(5)
H6_2 H 0.2212 0.7679 0.2426
C12_2 C 0.0188(15) 0.7975(7) 0.2231(5)
C37_2 C 0.0367(17) 0.8092(8) 0.3694(5)
C38_2 C 0.0729(16) 0.8137(8) 0.3188(5)
H21_2 H 0.1627 0.8282 0.3135
H22_2 H 0.1011 0.8216 0.3973
Co3_2 Co 0.4053(2) 0.69723(9) 0.04425(6)
O2_2 O 0.0196(10) 0.8194(5) 0.8735(3)
O9_2 O 0.2811(10) 0.7636(5) 0.9398(3)
C13_2 C 0.9271(16) 0.8137(8) 0.1812(5)
H7_2 H 0.8373 0.8282 0.1865
C14_2 C 0.9633(17) 0.8092(8) 0.1306(5)
H8_2 H 0.8989 0.8216 0.1027
C32_2 C 0.9812(15) 0.7975(7) 0.2769(5)
C33_2 C 0.8464(16) 0.7765(7) 0.2853(5)
C34_2 C 0.8149(15) 0.7686(7) 0.3369(5)
C35_2 C 0.9070(15) 0.7869(6) 0.3780(4)
C36_2 C 0.8704(14) 0.7787(6) 0.4325(5)
O7_2 O 0.9330(9) 0.8107(4) 0.4678(3)
O8_2 O 0.7811(10) 0.7364(5) 0.4398(3)
H23_2 H 0.7289 0.7503 0.3429
H24_2 H 0.7788 0.7679 0.2574
Co5_2 Co 0.9053(2) 0.80277(9) 0.54425(6)
Co6_2 Co 0.5947(2) 0.69723(9) 0.45575(6)
O1_2 O 0.8887(9) 0.8477(5) 0.9344(3)
C1_2 C 0.9071(17) 0.8415(7) 0.8868(5)
C2_2 C 0.7917(16) 0.8596(7) 0.8472(5)
C3_2 C 0.6542(19) 0.8644(9) 0.8601(6)
H1_2 H 0.6354 0.8601 0.8945
C4_2 C 0.5480(17) 0.8754(9) 0.8219(6)
H2_2 H 0.4582 0.8809 0.8322
C5_2 C 0.5589(17) 0.8792(7) 0.7710(5)
C6_2 C 0.6996(18) 0.8763(8) 0.7580(5)
H3_2 H 0.7167 0.8818 0.7236
C7_2 C 0.8119(17) 0.8653(8) 0.7956(5)
H4_2 H 0.9026 0.8617 0.7857
C25_2 C 0.4411(17) 0.8792(7) 0.7290(5)
C26_2 C 0.4520(17) 0.8754(9) 0.6781(6)
C27_2 C 0.3458(19) 0.8644(9) 0.6399(6)
C28_2 C 0.2083(16) 0.8596(7) 0.6528(5)
C29_2 C 0.0929(17) 0.8415(7) 0.6132(5)
O5_2 O 0.1113(9) 0.8477(5) 0.5656(3)
C30_2 C 0.1881(17) 0.8653(8) 0.7044(5)
C31_2 C 0.3004(18) 0.8763(8) 0.7420(5)
H17_2 H 0.2833 0.8818 0.7764
H18_2 H 0.0974 0.8617 0.7143
H19_2 H 0.3646 0.8601 0.6055
H20_2 H 0.5418 0.8809 0.6678
N6_2 N 0.0002(12) 0.7078(5) 0.5468(4)
O6_2 O 0.9804(10) 0.8194(5) 0.6265(3)
O11_2 O 0.7189(10) 0.7636(5) 0.5602(3)
N5_2 N 0.8029(13) 0.8963(5) 0.5407(4)
C23_2 C 0.036(2) 0.3377(8) 0.4235(7)
H15_2 H 0.1031 0.3287 0.4008
H16_2 H 0.0114 0.4331 0.4033
N3_2 N 0.1971(13) 0.1037(5) 0.4593(4)
C39_2 C 0.166(2) 0.0574(7) 0.4920(7)
H25_2 H 0.1012 0.0667 0.5155
C42_2 C 0.345(2) 0.0289(8) 0.4251(7)
H27_2 H 0.4116 0.0214 0.4020
C43_2 C 0.284(2) 0.0889(8) 0.4268(7)
H28_2 H 0.3067 0.1203 0.4033
O1_3 O 0.3887(9) 0.6523(5) 0.4344(3)
O2_3 O 0.5196(10) 0.6806(5) 0.3735(3)
O3_3 O 0.5670(9) 0.6893(4) 0.5322(3)
N1_2 N 0.6971(13) 0.6037(5) 0.4593(4)
N2_2 N 0.9998(12) 0.2922(5) 0.4532(4)
C1_3 C 0.4071(17) 0.6585(7) 0.3868(5)
C2_3 C 0.2917(16) 0.6404(7) 0.3472(5)
C3_3 C 0.1542(19) 0.6356(9) 0.3601(6)
H1_3 H 0.1354 0.6399 0.3945
C4_3 C 0.0480(17) 0.6246(9) 0.3219(6)
C5_3 C 0.0589(17) 0.6208(7) 0.2710(5)
C6_3 C 0.1996(18) 0.6237(8) 0.2580(5)
H3_3 H 0.2167 0.6182 0.2236
C7_3 C 0.3119(17) 0.6347(8) 0.2956(5)
H4_3 H 0.4026 0.6383 0.2857
C8_3 C 0.6296(14) 0.7213(6) 0.5675(5)
C9_3 C 0.5930(15) 0.7131(6) 0.6220(4)
C10_3 C 0.6851(15) 0.7314(7) 0.6631(5)
H5_3 H 0.7711 0.7497 0.6571
C11_3 C 0.6536(16) 0.7235(7) 0.7147(5)
H6_3 H 0.7212 0.7321 0.7426
C12_3 C 0.5188(15) 0.7025(7) 0.7231(5)
C13_3 C 0.4271(16) 0.6863(8) 0.6812(5)
H7_3 H 0.3373 0.6718 0.6865
C14_3 C 0.4633(17) 0.6908(8) 0.6306(5)
H8_3 H 0.3989 0.6784 0.6027
C15_2 C 0.666(2) 0.5574(7) 0.4920(7)
H9_2 H 0.6012 0.5667 0.5155
C16_2 C 0.724(2) 0.4970(8) 0.4927(7)
H10_2 H 0.7050 0.4671 0.5180
C17_2 C 0.8103(15) 0.4806(6) 0.4561(5)
C18_2 C 0.845(2) 0.5289(8) 0.4251(7)
H11_2 H 0.9116 0.5214 0.4020
C19_2 C 0.784(2) 0.5889(8) 0.4268(7)
H12_2 H 0.8067 0.6203 0.4033
C20_2 C 0.8718(16) 0.4138(7) 0.4551(5)
C21_2 C 0.8352(16) 0.3644(7) 0.4852(6)
H13_2 H 0.7678 0.3711 0.5081
C22_2 C 0.8958(14) 0.3047(7) 0.4824(6)
H14_2 H 0.8630 0.2711 0.5019
C24_2 C 0.978(2) 0.4006(8) 0.4238(8)
H20_3 H 0.0418 0.6191 0.1678
C32_3 C 0.4812(15) 0.7025(7) 0.7769(5)
C33_3 C 0.3464(16) 0.7235(7) 0.7853(5)
C34_3 C 0.3149(15) 0.7314(7) 0.8369(5)
C35_3 C 0.4070(15) 0.7131(6) 0.8780(4)
C36_3 C 0.3704(14) 0.7213(6) 0.9325(5)
O7_3 O 0.4330(9) 0.6893(4) 0.9678(3)
C37_3 C 0.5367(17) 0.6908(8) 0.8694(5)
C38_3 C 0.5729(16) 0.6863(8) 0.8188(5)
H21_3 H 0.6627 0.6718 0.8135
H22_3 H 0.6011 0.6784 0.8973
H23_3 H 0.2289 0.7497 0.8429
H24_3 H 0.2788 0.7321 0.7574
N4_2 N 0.4998(12) 0.7922(5) 0.4532(4)
C40_2 C 0.224(2) 0.9970(8) 0.4927(7)
H26_2 H 0.2050 0.9671 0.5180
C41_2 C 0.3103(15) 0.9806(6) 0.4561(5)
C44_2 C 0.3718(16) 0.9138(7) 0.4551(5)
C45_2 C 0.3352(16) 0.8644(7) 0.4852(6)
H29_2 H 0.2678 0.8711 0.5081
C46_2 C 0.3958(14) 0.8047(7) 0.4824(6)
H30_2 H 0.3630 0.7711 0.5019
C47_2 C 0.536(2) 0.8377(8) 0.4235(7)
H31_2 H 0.6031 0.8287 0.4008
C48_2 C 0.478(2) 0.9006(8) 0.4238(8)
H32_2 H 0.5114 0.9331 0.4033
H2_3 H 0.9582 0.6191 0.3322
C25_3 C 0.9411(17) 0.6208(7) 0.2290(5)
C26_3 C 0.9520(17) 0.6246(9) 0.1781(6)
C27_3 C 0.8458(19) 0.6356(9) 0.1399(6)
C28_3 C 0.7083(16) 0.6404(7) 0.1528(5)
C29_3 C 0.5929(17) 0.6585(7) 0.1132(5)
O5_3 O 0.6113(9) 0.6523(5) 0.0656(3)
O6_3 O 0.4804(10) 0.6806(5) 0.1265(3)
C30_3 C 0.6881(17) 0.6347(8) 0.2044(5)
C31_3 C 0.8004(18) 0.6237(8) 0.2420(5)
H17_3 H 0.7833 0.6182 0.2764
H18_3 H 0.5974 0.6383 0.2143
H19_3 H 0.8646 0.6399 0.1055
N5_3 N 0.3029(13) 0.6037(5) 0.0407(4)
N6_3 N 0.5002(12) 0.7922(5) 0.0468(4)
O2_4 O 0.0196(10) 0.1806(5) 0.3735(3)
O3_4 O 0.0670(9) 0.1893(4) 0.5322(3)
C8_4 C 0.1296(14) 0.2213(6) 0.5675(5)
C9_4 C 0.0930(15) 0.2131(6) 0.6220(4)
C10_4 C 0.1851(15) 0.2314(7) 0.6631(5)
H5_4 H 0.2711 0.2497 0.6571
C11_4 C 0.1536(16) 0.2235(7) 0.7147(5)
H6_4 H 0.2212 0.2321 0.7426
C12_4 C 0.0188(15) 0.2025(7) 0.7231(5)
C37_4 C 0.0367(17) 0.1908(8) 0.8694(5)
C38_4 C 0.0729(16) 0.1863(8) 0.8188(5)
H21_4 H 0.1627 0.1718 0.8135
H22_4 H 0.1011 0.1784 0.8973
O1_4 O 0.8887(9) 0.1523(5) 0.4344(3)
C1_4 C 0.9071(17) 0.1585(7) 0.3868(5)
C2_4 C 0.7917(16) 0.1404(7) 0.3472(5)
C3_4 C 0.6542(19) 0.1356(9) 0.3601(6)
H1_4 H 0.6354 0.1399 0.3945
C4_4 C 0.5480(17) 0.1246(9) 0.3219(6)
H2_4 H 0.4582 0.1191 0.3322
C5_4 C 0.5589(17) 0.1208(7) 0.2710(5)
C6_4 C 0.6996(18) 0.1237(8) 0.2580(5)
H3_4 H 0.7167 0.1182 0.2236
C7_4 C 0.8119(17) 0.1347(8) 0.2956(5)
H4_4 H 0.9026 0.1383 0.2857
C13_4 C 0.9271(16) 0.1863(8) 0.6812(5)
H7_4 H 0.8373 0.1718 0.6865
C14_4 C 0.9633(17) 0.1908(8) 0.6306(5)
H8_4 H 0.8989 0.1784 0.6027
C25_4 C 0.4411(17) 0.1208(7) 0.2290(5)
C26_4 C 0.4520(17) 0.1246(9) 0.1781(6)
C27_4 C 0.3458(19) 0.1356(9) 0.1399(6)
C28_4 C 0.2083(16) 0.1404(7) 0.1528(5)
C29_4 C 0.0929(17) 0.1585(7) 0.1132(5)
O5_4 O 0.1113(9) 0.1523(5) 0.0656(3)
C30_4 C 0.1881(17) 0.1347(8) 0.2044(5)
C31_4 C 0.3004(18) 0.1237(8) 0.2420(5)
H17_4 H 0.2833 0.1182 0.2764
H18_4 H 0.0974 0.1383 0.2143
H19_4 H 0.3646 0.1399 0.1055
H20_4 H 0.5418 0.1191 0.1678
C32_4 C 0.9812(15) 0.2025(7) 0.7769(5)
C33_4 C 0.8464(16) 0.2235(7) 0.7853(5)
C34_4 C 0.8149(15) 0.2314(7) 0.8369(5)
C35_4 C 0.9070(15) 0.2131(6) 0.8780(4)
C36_4 C 0.8704(14) 0.2213(6) 0.9325(5)
O7_4 O 0.9330(9) 0.1893(4) 0.9678(3)
H23_4 H 0.7289 0.2497 0.8429
H24_4 H 0.7788 0.2321 0.7574
N6_4 N 0.0002(12) 0.2922(5) 0.0468(4)
O6_4 O 0.9804(10) 0.1806(5) 0.1265(3)
N5_4 N 0.8029(13) 0.1037(5) 0.0407(4)
C39_3 C 0.834(2) 0.0574(7) 0.0080(7)
C42_3 C 0.655(2) 0.0289(8) 0.0749(7)
H27_3 H 0.5884 0.0214 0.0980
C43_3 C 0.716(2) 0.0889(8) 0.0732(7)
H28_3 H 0.6933 0.1203 0.0967
H25_3 H 0.8988 0.0667 0.9845
C15_3 C 0.334(2) 0.5574(7) 0.0080(7)
C16_3 C 0.276(2) 0.4970(8) 0.0073(7)
C17_3 C 0.1897(15) 0.4806(6) 0.0439(5)
C18_3 C 0.155(2) 0.5289(8) 0.0749(7)
H11_3 H 0.0884 0.5214 0.0980
C19_3 C 0.216(2) 0.5889(8) 0.0732(7)
H12_3 H 0.1933 0.6203 0.0967
C20_3 C 0.1282(16) 0.4138(7) 0.0449(5)
C21_3 C 0.1648(16) 0.3644(7) 0.0148(6)
C22_3 C 0.1042(14) 0.3047(7) 0.0176(6)
C24_3 C 0.022(2) 0.4006(8) 0.0762(8)
C40_3 C 0.776(2) 0.9970(8) 0.0073(7)
C41_3 C 0.6897(15) 0.9806(6) 0.0439(5)
C44_3 C 0.6282(16) 0.9138(7) 0.0449(5)
C45_3 C 0.6648(16) 0.8644(7) 0.0148(6)
C46_3 C 0.6042(14) 0.8047(7) 0.0176(6)
C47_3 C 0.464(2) 0.8377(8) 0.0765(7)
H31_3 H 0.3969 0.8287 0.0992
C48_3 C 0.522(2) 0.9006(8) 0.0762(8)
H32_3 H 0.4886 0.9331 0.0967
H9_3 H 0.3988 0.5667 0.9845
H10_3 H 0.2950 0.4671 0.9820
H13_3 H 0.2322 0.3711 0.9919
H14_3 H 0.1370 0.2711 0.9981
H26_3 H 0.7950 0.9671 0.9820
H29_3 H 0.7322 0.8711 0.9919
H30_3 H 0.6370 0.7711 0.9981
C23_3 C 0.964(2) 0.3377(8) 0.0765(7)
H15_3 H 0.8969 0.3287 0.0992
H16_3 H 0.9886 0.4331 0.0967
C15_4 C 0.334(2) 0.4426(7) 0.5080(7)
H9_4 H 0.3988 0.4333 0.4845
C16_4 C 0.276(2) 0.5030(8) 0.5073(7)
H10_4 H 0.2950 0.5329 0.4820
C17_4 C 0.1897(15) 0.5194(6) 0.5439(5)
C18_4 C 0.155(2) 0.4711(8) 0.5749(7)
H11_4 H 0.0884 0.4786 0.5980
C19_4 C 0.216(2) 0.4111(8) 0.5732(7)
H12_4 H 0.1933 0.3797 0.5967
C20_4 C 0.1282(16) 0.5862(7) 0.5449(5)
C21_4 C 0.1648(16) 0.6356(7) 0.5148(6)
H13_4 H 0.2322 0.6289 0.4919
C22_4 C 0.1042(14) 0.6953(7) 0.5176(6)
H14_4 H 0.1370 0.7289 0.4981
C24_4 C 0.022(2) 0.5994(8) 0.5762(8)
C40_4 C 0.776(2) 0.0030(8) 0.5073(7)
H26_4 H 0.7950 0.0329 0.4820
C41_4 C 0.6897(15) 0.0194(6) 0.5439(5)
C44_4 C 0.6282(16) 0.0862(7) 0.5449(5)
C45_4 C 0.6648(16) 0.1356(7) 0.5148(6)
H29_4 H 0.7322 0.1289 0.4919
C46_4 C 0.6042(14) 0.1953(7) 0.5176(6)
H30_4 H 0.6370 0.2289 0.4981
C47_4 C 0.464(2) 0.1623(8) 0.5765(7)
H31_4 H 0.3969 0.1713 0.5992
C48_4 C 0.522(2) 0.0994(8) 0.5762(8)
H32_4 H 0.4886 0.0669 0.5967
C39_4 C 0.834(2) 0.9426(7) 0.5080(7)
H25_4 H 0.8988 0.9333 0.4845
C42_4 C 0.655(2) 0.9711(8) 0.5749(7)
H27_4 H 0.5884 0.9786 0.5980
C43_4 C 0.716(2) 0.9111(8) 0.5732(7)
H28_4 H 0.6933 0.8797 0.5967
C23_4 C 0.964(2) 0.6623(8) 0.5765(7)
H15_4 H 0.8969 0.6713 0.5992
H16_4 H 0.9886 0.5669 0.5967
loop_
_geom_bond_atom_site_label_1
_geom_bond_atom_site_label_2
_geom_bond_site_symmetry_1
_geom_bond_site_symmetry_2
H15 C23 1_555 1_555
O4 C8 1_555 1_555
C8 O3 1_555 1_555
C9 C8 1_555 1_555
C10 C9 1_555 1_555
H5 C10 1_555 1_555
C11 C10 1_555 1_555
H6 C11 1_555 1_555
C12 C11 1_555 1_555
C13 C12 1_555 1_555
H7 C13 1_555 1_555
C14 C9 1_555 1_555
H8 C14 1_555 1_555
C32 C12 1_555 1_555
C33 C32 1_555 1_555
C34 C33 1_555 1_555
C35 C34 1_555 1_555
C36 C35 1_555 1_555
O7 C36 1_555 1_555
O8 C36 1_555 1_555
C37 C35 1_555 1_555
C38 C32 1_555 1_555
H21 C38 1_555 1_555
H22 C37 1_555 1_555
H23 C34 1_555 1_555
H24 C33 1_555 1_555
Co3 O4 1_555 1_555
Co5 O7 1_555 1_555
Co6 O8 1_555 1_555
C13 C14 1_555 1_555
C37 C38 1_555 1_555
Co1 O1 1_555 1_555
O1 C1 1_555 1_555
O2 Co1 1_555 1_555
N1 Co1 1_555 1_555
N2 C22 1_555 1_555
C1 O2 1_555 1_555
C2 C1 1_555 1_555
C3 C2 1_555 1_555
H1 C3 1_555 1_555
C4 C3 1_555 1_555
C5 C4 1_555 1_555
C6 C5 1_555 1_555
H3 C6 1_555 1_555
C7 C2 1_555 1_555
H4 C7 1_555 1_555
C15 N1 1_555 1_555
C16 C15 1_555 1_555
C17 C16 1_555 1_555
C18 C17 1_555 1_555
H11 C18 1_555 1_555
C19 N1 1_555 1_555
H12 C19 1_555 1_555
C20 C17 1_555 1_555
C21 C20 1_555 1_555
C22 C21 1_555 1_555
C24 C20 1_555 1_555
N4 Co1 1_555 1_555
C41 C40 1_555 1_555
C44 C41 1_555 1_555
C45 C44 1_555 1_555
C46 N4 1_555 1_555
C47 N4 1_555 1_555
H31 C47 1_555 1_555
C48 C44 1_555 1_555
H32 C48 1_555 1_555
O9 Co1 1_555 1_555
C6 C7 1_555 1_555
C18 C19 1_555 1_555
C45 C46 1_555 1_555
C47 C48 1_555 1_555
N3 C39 1_555 1_555
H27 C42 1_555 1_555
C43 N3 1_555 1_555
H28 C43 1_555 1_555
Co4 N3 1_555 1_555
C42 C43 1_555 1_555
C26 C25 1_555 1_555
C27 C26 1_555 1_555
C28 C27 1_555 1_555
C29 C28 1_555 1_555
O5 C29 1_555 1_555
O6 C29 1_555 1_555
C30 C28 1_555 1_555
C31 C25 1_555 1_555
H17 C31 1_555 1_555
H18 C30 1_555 1_555
H19 C27 1_555 1_555
Co5 O5 1_555 1_555
O11 Co5 1_555 1_555
N5 Co5 1_555 1_555
N6 Co5 1_555 1_555
O6 Co5 1_555 1_555
C30 C31 1_555 1_555
O4_2 C8_2 1_555 1_555
C8_2 O3_2 1_555 1_555
C9_2 C8_2 1_555 1_555
C10_2 C9_2 1_555 1_555
H5_2 C10_2 1_555 1_555
C11_2 C10_2 1_555 1_555
H6_2 C11_2 1_555 1_555
C12_2 C11_2 1_555 1_555
H21_2 C38_2 1_555 1_555
H22_2 C37_2 1_555 1_555
Co3_2 O4_2 1_555 1_555
C37_2 C38_2 1_555 1_555
O2_2 Co4 1_555 1_555
O9_2 Co4 1_555 1_555
H7_2 C13_2 1_555 1_555
H8_2 C14_2 1_555 1_555
C33_2 C32_2 1_555 1_555
C34_2 C33_2 1_555 1_555
C35_2 C34_2 1_555 1_555
C36_2 C35_2 1_555 1_555
O7_2 C36_2 1_555 1_555
O8_2 C36_2 1_555 1_555
H23_2 C34_2 1_555 1_555
H24_2 C33_2 1_555 1_555
Co5_2 O7_2 1_555 1_555
Co6_2 O8_2 1_555 1_555
C13_2 C14_2 1_555 1_555
O1_2 C1_2 1_555 1_555
C2_2 C1_2 1_555 1_555
C3_2 C2_2 1_555 1_555
H1_2 C3_2 1_555 1_555
C4_2 C3_2 1_555 1_555
H2_2 C4_2 1_555 1_555
C5_2 C4_2 1_555 1_555
C6_2 C5_2 1_555 1_555
H3_2 C6_2 1_555 1_555
C7_2 C2_2 1_555 1_555
H4_2 C7_2 1_555 1_555
C25_2 C5_2 1_555 1_555
C26_2 C25_2 1_555 1_555
C27_2 C26_2 1_555 1_555
C28_2 C27_2 1_555 1_555
C29_2 C28_2 1_555 1_555
O5_2 C29_2 1_555 1_555
C30_2 C28_2 1_555 1_555
C31_2 C25_2 1_555 1_555
H17_2 C31_2 1_555 1_555
H18_2 C30_2 1_555 1_555
H19_2 C27_2 1_555 1_555
H20_2 C26_2 1_555 1_555
C6_2 C7_2 1_555 1_555
C30_2 C31_2 1_555 1_555
O11_2 Co5_2 1_555 1_555
N5_2 Co5_2 1_555 1_555
O6_2 Co5_2 1_555 1_555
H15_2 C23_2 1_555 1_555
N3_2 C39_2 1_555 1_555
C39_2 H25_2 1_555 1_555
H27_2 C42_2 1_555 1_555
C43_2 N3_2 1_555 1_555
H28_2 C43_2 1_555 1_555
Co6 N3_2 1_555 1_555
C42_2 C43_2 1_555 1_555
Co6_2 O1_3 1_555 1_555
O1_3 C1_3 1_555 1_555
O2_3 Co6_2 1_555 1_555
O3_3 Co6_2 1_555 1_555
O11_2 C8_3 1_555 1_555
N1_2 Co6_2 1_555 1_555
N2_2 C22_2 1_555 1_555
C1_3 O2_3 1_555 1_555
C2_3 C1_3 1_555 1_555
C3_3 C2_3 1_555 1_555
H1_3 C3_3 1_555 1_555
C4_3 C3_3 1_555 1_555
C5_3 C4_3 1_555 1_555
C6_3 C5_3 1_555 1_555
H3_3 C6_3 1_555 1_555
C7_3 C2_3 1_555 1_555
H4_3 C7_3 1_555 1_555
C8_3 O3_3 1_555 1_555
C9_3 C8_3 1_555 1_555
C10_3 C9_3 1_555 1_555
H5_3 C10_3 1_555 1_555
C11_3 C10_3 1_555 1_555
H6_3 C11_3 1_555 1_555
C12_3 C11_3 1_555 1_555
C13_3 C12_3 1_555 1_555
H7_3 C13_3 1_555 1_555
C14_3 C9_3 1_555 1_555
H8_3 C14_3 1_555 1_555
C15_2 N1_2 1_555 1_555
H9_2 C15_2 1_555 1_555
C16_2 C15_2 1_555 1_555
H10_2 C16_2 1_555 1_555
C17_2 C16_2 1_555 1_555
C18_2 C17_2 1_555 1_555
H11_2 C18_2 1_555 1_555
C19_2 N1_2 1_555 1_555
H12_2 C19_2 1_555 1_555
C20_2 C17_2 1_555 1_555
C21_2 C20_2 1_555 1_555
H13_2 C21_2 1_555 1_555
C22_2 C21_2 1_555 1_555
H14_2 C22_2 1_555 1_555
C24_2 C20_2 1_555 1_555
C32_3 C12_3 1_555 1_555
C33_3 C32_3 1_555 1_555
C34_3 C33_3 1_555 1_555
C35_3 C34_3 1_555 1_555
C36_3 C35_3 1_555 1_555
O7_3 C36_3 1_555 1_555
O9_2 C36_3 1_555 1_555
C37_3 C35_3 1_555 1_555
C38_3 C32_3 1_555 1_555
H21_3 C38_3 1_555 1_555
H22_3 C37_3 1_555 1_555
H23_3 C34_3 1_555 1_555
H24_3 C33_3 1_555 1_555
N4_2 Co6_2 1_555 1_555
H26_2 C40_2 1_555 1_555
C41_2 C40_2 1_555 1_555
C44_2 C41_2 1_555 1_555
C45_2 C44_2 1_555 1_555
H29_2 C45_2 1_555 1_555
C46_2 N4_2 1_555 1_555
H30_2 C46_2 1_555 1_555
C47_2 N4_2 1_555 1_555
H31_2 C47_2 1_555 1_555
C48_2 C44_2 1_555 1_555
H32_2 C48_2 1_555 1_555
C6_3 C7_3 1_555 1_555
C13_3 C14_3 1_555 1_555
C18_2 C19_2 1_555 1_555
C37_3 C38_3 1_555 1_555
C45_2 C46_2 1_555 1_555
C47_2 C48_2 1_555 1_555
C26_3 C25_3 1_555 1_555
C27_3 C26_3 1_555 1_555
C28_3 C27_3 1_555 1_555
C29_3 C28_3 1_555 1_555
O5_3 C29_3 1_555 1_555
O6_3 C29_3 1_555 1_555
C30_3 C28_3 1_555 1_555
C31_3 C25_3 1_555 1_555
H17_3 C31_3 1_555 1_555
H18_3 C30_3 1_555 1_555
H19_3 C27_3 1_555 1_555
Co3_2 O5_3 1_555 1_555
N5_3 Co3_2 1_555 1_555
N6_3 Co3_2 1_555 1_555
O6_3 Co3_2 1_555 1_555
C30_3 C31_3 1_555 1_555
O2_4 Co6 1_555 1_555
O3_4 Co6 1_555 1_555
O11 C8_4 1_555 1_555
C8_4 O3_4 1_555 1_555
C9_4 C8_4 1_555 1_555
C10_4 C9_4 1_555 1_555
H5_4 C10_4 1_555 1_555
C11_4 C10_4 1_555 1_555
H6_4 C11_4 1_555 1_555
C12_4 C11_4 1_555 1_555
H21_4 C38_4 1_555 1_555
H22_4 C37_4 1_555 1_555
C37_4 C38_4 1_555 1_555
O1_4 C1_4 1_555 1_555
C2_4 C1_4 1_555 1_555
C3_4 C2_4 1_555 1_555
H1_4 C3_4 1_555 1_555
C4_4 C3_4 1_555 1_555
H2_4 C4_4 1_555 1_555
C5_4 C4_4 1_555 1_555
C6_4 C5_4 1_555 1_555
H3_4 C6_4 1_555 1_555
C7_4 C2_4 1_555 1_555
H4_4 C7_4 1_555 1_555
H7_4 C13_4 1_555 1_555
H8_4 C14_4 1_555 1_555
C25_4 C5_4 1_555 1_555
C26_4 C25_4 1_555 1_555
C27_4 C26_4 1_555 1_555
C28_4 C27_4 1_555 1_555
C29_4 C28_4 1_555 1_555
O5_4 C29_4 1_555 1_555
C30_4 C28_4 1_555 1_555
C31_4 C25_4 1_555 1_555
H17_4 C31_4 1_555 1_555
H18_4 C30_4 1_555 1_555
H19_4 C27_4 1_555 1_555
H20_4 C26_4 1_555 1_555
C33_4 C32_4 1_555 1_555
C34_4 C33_4 1_555 1_555
C35_4 C34_4 1_555 1_555
C36_4 C35_4 1_555 1_555
O7_4 C36_4 1_555 1_555
O9 C36_4 1_555 1_555
H23_4 C34_4 1_555 1_555
H24_4 C33_4 1_555 1_555
C6_4 C7_4 1_555 1_555
C13_4 C14_4 1_555 1_555
C30_4 C31_4 1_555 1_555
N5_4 Co3 1_555 1_555
O6_4 Co3 1_555 1_555
N5_4 C39_3 1_555 1_555
H27_3 C42_3 1_555 1_555
C43_3 N5_4 1_555 1_555
H28_3 C43_3 1_555 1_555
C42_3 C43_3 1_555 1_555
N6_4 C22_3 1_555 1_555
C15_3 N5_3 1_555 1_555
C16_3 C15_3 1_555 1_555
C17_3 C16_3 1_555 1_555
C18_3 C17_3 1_555 1_555
H11_3 C18_3 1_555 1_555
C19_3 N5_3 1_555 1_555
H12_3 C19_3 1_555 1_555
C20_3 C17_3 1_555 1_555
C21_3 C20_3 1_555 1_555
C22_3 C21_3 1_555 1_555
C24_3 C20_3 1_555 1_555
C41_3 C40_3 1_555 1_555
C44_3 C41_3 1_555 1_555
C45_3 C44_3 1_555 1_555
C46_3 N6_3 1_555 1_555
C47_3 N6_3 1_555 1_555
H31_3 C47_3 1_555 1_555
C48_3 C44_3 1_555 1_555
H32_3 C48_3 1_555 1_555
C18_3 C19_3 1_555 1_555
C45_3 C46_3 1_555 1_555
C47_3 C48_3 1_555 1_555
H15_3 C23_3 1_555 1_555
N6_2 C22_4 1_555 1_555
C15_4 N5 1_555 1_555
H9_4 C15_4 1_555 1_555
C16_4 C15_4 1_555 1_555
H10_4 C16_4 1_555 1_555
C17_4 C16_4 1_555 1_555
C18_4 C17_4 1_555 1_555
H11_4 C18_4 1_555 1_555
C19_4 N5 1_555 1_555
H12_4 C19_4 1_555 1_555
C20_4 C17_4 1_555 1_555
C21_4 C20_4 1_555 1_555
H13_4 C21_4 1_555 1_555
C22_4 C21_4 1_555 1_555
H14_4 C22_4 1_555 1_555
C24_4 C20_4 1_555 1_555
H26_4 C40_4 1_555 1_555
C41_4 C40_4 1_555 1_555
C44_4 C41_4 1_555 1_555
C45_4 C44_4 1_555 1_555
H29_4 C45_4 1_555 1_555
C46_4 N6 1_555 1_555
H30_4 C46_4 1_555 1_555
C47_4 N6 1_555 1_555
H31_4 C47_4 1_555 1_555
C48_4 C44_4 1_555 1_555
H32_4 C48_4 1_555 1_555
C18_4 C19_4 1_555 1_555
C45_4 C46_4 1_555 1_555
C47_4 C48_4 1_555 1_555
N5_2 C39_4 1_555 1_555
C39_4 H25_4 1_555 1_555
H27_4 C42_4 1_555 1_555
C43_4 N5_2 1_555 1_555
H28_4 C43_4 1_555 1_555
C42_4 C43_4 1_555 1_555
H15_4 C23_4 1_555 1_555

#END
