
###############################################################################
#
# This file contains modified crystal structure data generated from the
# MOF subset of the Cambridge Structural Database (CSD) v543 
# hosted by the Cambridge Crystallographic Data Centre (CCDC).
#
# This work is licensed under the Creative Commons
# Attribution-NonCommercial-ShareAlike 4.0 International License.
# To view a copy of this license, visit
# http://creativecommons.org/licenses/by-nc-sa/4.0/
# or send a letter to
# Creative Commons, PO Box 1866, Mountain View, CA 94042, USA.
#
# CIF created using the CSD Python API on 29 September 2022
# The structure has been converted into the P1 space group
# The structure has a 3D framework
# The original CSD entry MACKAE is in the cubic crystal system
# The original CSD entry MACKAE is in a Sohncke space group
# The framework has been calculated to contain at least 10.0% void space
# The void calculation uses a probe of radius 1.32A, grid spacing 0.4
# The framework is charged, counterions have been retained in the structure
#
###############################################################################

data_MACKAE
_chemical_formula_moiety         '(C48 O114 U24 12-)n'
_symmetry_cell_setting           triclinic
_symmetry_space_group_name_H-M   'P 1'
_symmetry_Int_Tables_number      1
_space_group_name_Hall           'P 1'
loop_
_symmetry_equiv_pos_site_id
_symmetry_equiv_pos_as_xyz
1 x,y,z
_cell_length_a                   16.6897(7)
_cell_length_b                   16.6897(7)
_cell_length_c                   16.6897(7)
_cell_angle_alpha                90
_cell_angle_beta                 90
_cell_angle_gamma                90
_cell_volume                     4648.85
loop_
_atom_site_label
_atom_site_type_symbol
_atom_site_fract_x
_atom_site_fract_y
_atom_site_fract_z
U4 U 0.235264(16) 0.389877(16) 0.774314(16)
U8 U 0.110123(16) 0.725686(16) 0.735264(16)
U13 U 0.389877(16) 0.225686(16) 0.764736(16)
U14 U 0.225686(16) 0.235264(16) 0.610123(16)
O9 O 0.3513(4) 0.3372(3) 0.8469(3)
O10 O 0.1531(3) 0.3513(4) 0.6628(3)
O17 O 0.2985(4) 0.4396(4) 0.7036(4)
O22 O 0.1710(3) 0.3450(4) 0.8476(4)
O25 O 0.0017(4) 0.6364(3) 0.7704(3)
O32 O 0.2704(3) 0.4983(4) 0.8636(3)
O35 O 0.1373(4) 0.4977(3) 0.7673(3)
O41 O 0.2704(4) 0.2704(4) 0.7296(4)
C3 C 0.0616(5) 0.4983(4) 0.7702(4)
C8 C 0.0019(5) 0.5619(4) 0.7708(5)
U11 U 0.735264(16) 0.110123(16) 0.725686(16)
U12 U 0.774314(16) 0.235264(16) 0.389877(16)
O29 O 0.7704(3) 0.0017(4) 0.6364(3)
O39 O 0.7673(3) 0.1373(4) 0.4977(3)
C7 C 0.7702(4) 0.0616(5) 0.4983(4)
C12 C 0.7708(5) 0.0019(5) 0.5619(4)
U5 U 0.725686(16) 0.735264(16) 0.110123(16)
U9 U 0.764736(16) 0.389877(16) 0.225686(16)
U15 U 0.735264(16) 0.889877(16) 0.274314(16)
O11 O 0.6531(3) 0.8513(4) 0.1628(3)
O12 O 0.8372(3) 0.6531(3) 0.1487(4)
O18 O 0.7964(4) 0.7985(4) 0.0604(4)
O23 O 0.6524(4) 0.6710(3) 0.1550(4)
O27 O 0.7296(3) 0.4983(4) 0.1364(3)
O33 O 0.6364(3) 0.7704(3) 0.0017(4)
O36 O 0.7327(3) 0.6373(4) 0.0023(3)
O42 O 0.7704(4) 0.7704(4) 0.2296(4)
C4 C 0.7298(4) 0.5616(5) 0.0017(4)
C10 C 0.7292(5) 0.4981(5) 0.0619(4)
U1 U 0.764736(16) 0.610123(16) 0.774314(16)
O1 O 0.6487(4) 0.6628(3) 0.8469(3)
O2 O 0.7015(4) 0.5604(4) 0.7036(4)
O3 O 0.8290(3) 0.6550(4) 0.8476(4)
O4 O 0.9983(4) 0.3636(3) 0.7704(3)
O5 O 0.8627(4) 0.5023(3) 0.7673(3)
O6 O 0.7296(4) 0.7296(4) 0.7296(4)
C1 C 0.9384(5) 0.5017(4) 0.7702(4)
C2 C 0.9981(5) 0.4381(4) 0.7708(5)
U2 U 0.774314(16) 0.764736(16) 0.610123(16)
U3 U 0.610123(16) 0.774314(16) 0.764736(16)
U6 U 0.725686(16) 0.264736(16) 0.889877(16)
U7 U 0.889877(16) 0.274314(16) 0.735264(16)
O7 O 0.8469(3) 0.6487(4) 0.6628(3)
O8 O 0.6628(3) 0.8469(3) 0.6487(4)
O13 O 0.6531(3) 0.1487(4) 0.8372(3)
O14 O 0.8372(3) 0.3469(3) 0.8513(4)
O15 O 0.7036(4) 0.7015(4) 0.5604(4)
O16 O 0.5604(4) 0.7036(4) 0.7015(4)
O19 O 0.7964(4) 0.2015(4) 0.9396(4)
O20 O 0.8476(4) 0.8290(3) 0.6550(4)
O21 O 0.6550(4) 0.8476(4) 0.8290(3)
O24 O 0.6524(4) 0.3290(3) 0.8450(4)
O26 O 0.7296(3) 0.5017(4) 0.8636(3)
O28 O 0.7704(3) 0.9983(4) 0.3636(3)
O30 O 0.8636(3) 0.7296(3) 0.5017(4)
O31 O 0.5017(4) 0.8636(3) 0.7296(3)
O34 O 0.6364(3) 0.2296(3) 0.9983(4)
O37 O 0.7327(3) 0.3627(4) 0.9977(3)
O38 O 0.7673(3) 0.8627(4) 0.5023(3)
O40 O 0.5023(3) 0.7673(3) 0.8627(4)
O43 O 0.7704(4) 0.2296(4) 0.7704(4)
C5 C 0.7298(4) 0.4384(5) 0.9983(4)
C6 C 0.7702(4) 0.9384(5) 0.5017(4)
C9 C 0.7292(5) 0.5019(5) 0.9381(4)
C11 C 0.7708(5) 0.9981(5) 0.4381(4)
U5_2 U 0.274314(16) 0.264736(16) 0.110123(16)
U9_2 U 0.235264(16) 0.610123(16) 0.225686(16)
U15_2 U 0.264736(16) 0.110123(16) 0.274314(16)
O11_2 O 0.3469(3) 0.1487(4) 0.1628(3)
O12_2 O 0.1628(3) 0.3469(3) 0.1487(4)
O18_2 O 0.2036(4) 0.2015(4) 0.0604(4)
O23_2 O 0.3476(4) 0.3290(3) 0.1550(4)
O27_2 O 0.2704(3) 0.5017(4) 0.1364(3)
O33_2 O 0.3636(3) 0.2296(3) 0.0017(4)
O36_2 O 0.2673(3) 0.3627(4) 0.0023(3)
O42_2 O 0.2296(4) 0.2296(4) 0.2296(4)
C4_2 C 0.2702(4) 0.4384(5) 0.0017(4)
C10_2 C 0.2708(5) 0.5019(5) 0.0619(4)
U6_2 U 0.274314(16) 0.735264(16) 0.889877(16)
O8_2 O 0.3372(3) 0.1531(3) 0.6487(4)
O13_2 O 0.3469(3) 0.8513(4) 0.8372(3)
O14_2 O 0.1628(3) 0.6531(3) 0.8513(4)
O15_2 O 0.2964(4) 0.2985(4) 0.5604(4)
O16_2 O 0.4396(4) 0.2964(4) 0.7015(4)
O19_2 O 0.2036(4) 0.7985(4) 0.9396(4)
O20_2 O 0.1524(4) 0.1710(3) 0.6550(4)
O21_2 O 0.3450(4) 0.1524(4) 0.8290(3)
O24_2 O 0.3476(4) 0.6710(3) 0.8450(4)
O28_2 O 0.2296(3) 0.0017(4) 0.3636(3)
O30_2 O 0.1364(3) 0.2704(3) 0.5017(4)
O31_2 O 0.4983(4) 0.1364(3) 0.7296(3)
O34_2 O 0.3636(3) 0.7704(3) 0.9983(4)
O37_2 O 0.2673(3) 0.6373(4) 0.9977(3)
O38_2 O 0.2327(3) 0.1373(4) 0.5023(3)
O40_2 O 0.4977(3) 0.2327(3) 0.8627(4)
O43_2 O 0.2296(4) 0.7704(4) 0.7704(4)
C5_2 C 0.2702(4) 0.5616(5) 0.9983(4)
C6_2 C 0.2298(4) 0.0616(5) 0.5017(4)
C9_2 C 0.2708(5) 0.4981(5) 0.9381(4)
C11_2 C 0.2292(5) 0.0019(5) 0.4381(4)
U11_2 U 0.264736(16) 0.889877(16) 0.725686(16)
U12_2 U 0.225686(16) 0.764736(16) 0.389877(16)
O29_2 O 0.2296(3) 0.9983(4) 0.6364(3)
O39_2 O 0.2327(3) 0.8627(4) 0.4977(3)
C7_2 C 0.2298(4) 0.9384(5) 0.4983(4)
C12_2 C 0.2292(5) 0.9981(5) 0.5619(4)
O1_2 O 0.3513(4) 0.6628(3) 0.1531(3)
O2_2 O 0.2985(4) 0.5604(4) 0.2964(4)
O3_2 O 0.1710(3) 0.6550(4) 0.1524(4)
O4_2 O 0.0017(4) 0.3636(3) 0.2296(3)
O5_2 O 0.1373(4) 0.5023(3) 0.2327(3)
O6_2 O 0.2704(4) 0.7296(4) 0.2704(4)
C1_2 C 0.0616(5) 0.5017(4) 0.2298(4)
C2_2 C 0.0019(5) 0.4381(4) 0.2292(5)
U3_2 U 0.389877(16) 0.774314(16) 0.235264(16)
U7_2 U 0.110123(16) 0.274314(16) 0.264736(16)
O7_2 O 0.1531(3) 0.6487(4) 0.3372(3)
O8_3 O 0.3372(3) 0.8469(3) 0.3513(4)
O15_3 O 0.2964(4) 0.7015(4) 0.4396(4)
O16_3 O 0.4396(4) 0.7036(4) 0.2985(4)
O20_3 O 0.1524(4) 0.8290(3) 0.3450(4)
O21_3 O 0.3450(4) 0.8476(4) 0.1710(3)
O30_3 O 0.1364(3) 0.7296(3) 0.4983(4)
O31_3 O 0.4983(4) 0.8636(3) 0.2704(3)
O40_3 O 0.4977(3) 0.7673(3) 0.1373(4)
U8_2 U 0.889877(16) 0.725686(16) 0.264736(16)
U13_2 U 0.610123(16) 0.225686(16) 0.235264(16)
O9_2 O 0.6487(4) 0.3372(3) 0.1531(3)
O10_2 O 0.8469(3) 0.3513(4) 0.3372(3)
O17_2 O 0.7015(4) 0.4396(4) 0.2964(4)
O22_2 O 0.8290(3) 0.3450(4) 0.1524(4)
O25_2 O 0.9983(4) 0.6364(3) 0.2296(3)
O35_2 O 0.8627(4) 0.4977(3) 0.2327(3)
O41_2 O 0.7296(4) 0.2704(4) 0.2704(4)
C3_2 C 0.9384(5) 0.4983(4) 0.2298(4)
C8_2 C 0.9981(5) 0.5619(4) 0.2292(5)
O8_4 O 0.6628(3) 0.1531(3) 0.3513(4)
O15_4 O 0.7036(4) 0.2985(4) 0.4396(4)
O16_4 O 0.5604(4) 0.2964(4) 0.2985(4)
O20_4 O 0.8476(4) 0.1710(3) 0.3450(4)
O21_4 O 0.6550(4) 0.1524(4) 0.1710(3)
O30_4 O 0.8636(3) 0.2704(3) 0.4983(4)
O31_4 O 0.5017(4) 0.1364(3) 0.2704(3)
O40_4 O 0.5023(3) 0.2327(3) 0.1373(4)
O12_3 O 0.1487(4) 0.8372(3) 0.6531(3)
O18_3 O 0.0604(4) 0.7964(4) 0.7985(4)
O23_3 O 0.1550(4) 0.6524(4) 0.6710(3)
O36_3 O 0.0023(3) 0.7327(3) 0.6373(4)
C4_3 C 0.0017(4) 0.7298(4) 0.5616(5)
C10_3 C 0.0619(4) 0.7292(5) 0.4981(5)
C7_3 C 0.4983(4) 0.7702(4) 0.0616(5)
C12_3 C 0.5619(4) 0.7708(5) 0.0019(5)
O14_3 O 0.8513(4) 0.8372(3) 0.3469(3)
O19_3 O 0.9396(4) 0.7964(4) 0.2015(4)
O24_3 O 0.8450(4) 0.6524(4) 0.3290(3)
O37_3 O 0.9977(3) 0.7327(3) 0.3627(4)
C5_3 C 0.9983(4) 0.7298(4) 0.4384(5)
C6_3 C 0.5017(4) 0.7702(4) 0.9384(5)
C9_3 C 0.9381(4) 0.7292(5) 0.5019(5)
C11_3 C 0.4381(4) 0.7708(5) 0.9981(5)
O12_4 O 0.1487(4) 0.1628(3) 0.3469(3)
O18_4 O 0.0604(4) 0.2036(4) 0.2015(4)
O23_4 O 0.1550(4) 0.3476(4) 0.3290(3)
O36_4 O 0.0023(3) 0.2673(3) 0.3627(4)
C4_4 C 0.0017(4) 0.2702(4) 0.4384(5)
C10_4 C 0.0619(4) 0.2708(5) 0.5019(5)
O14_4 O 0.8513(4) 0.1628(3) 0.6531(3)
O19_4 O 0.9396(4) 0.2036(4) 0.7985(4)
O24_4 O 0.8450(4) 0.3476(4) 0.6710(3)
O37_4 O 0.9977(3) 0.2673(3) 0.6373(4)
C5_4 C 0.9983(4) 0.2702(4) 0.5616(5)
C6_4 C 0.5017(4) 0.2298(4) 0.0616(5)
C9_4 C 0.9381(4) 0.2708(5) 0.4981(5)
C11_4 C 0.4381(4) 0.2292(5) 0.0019(5)
C7_4 C 0.4983(4) 0.2298(4) 0.9384(5)
C12_4 C 0.5619(4) 0.2292(5) 0.9981(5)
O18_5 O 0.7985(4) 0.0604(4) 0.7964(4)
O23_5 O 0.6710(3) 0.1550(4) 0.6524(4)
O36_5 O 0.6373(4) 0.0023(3) 0.7327(3)
C4_5 C 0.5616(5) 0.0017(4) 0.7298(4)
C10_5 C 0.4981(5) 0.0619(4) 0.7292(5)
O19_5 O 0.2015(4) 0.9396(4) 0.7964(4)
O24_5 O 0.3290(3) 0.8450(4) 0.6524(4)
O37_5 O 0.3627(4) 0.9977(3) 0.7327(3)
C5_5 C 0.4384(5) 0.9983(4) 0.7298(4)
C9_5 C 0.5019(5) 0.9381(4) 0.7292(5)
O18_6 O 0.2015(4) 0.0604(4) 0.2036(4)
O23_6 O 0.3290(3) 0.1550(4) 0.3476(4)
O36_6 O 0.3627(4) 0.0023(3) 0.2673(3)
C4_6 C 0.4384(5) 0.0017(4) 0.2702(4)
C10_6 C 0.5019(5) 0.0619(4) 0.2708(5)
O19_6 O 0.7985(4) 0.9396(4) 0.2036(4)
O24_6 O 0.6710(3) 0.8450(4) 0.3476(4)
O37_6 O 0.6373(4) 0.9977(3) 0.2673(3)
C5_6 C 0.5616(5) 0.9983(4) 0.2702(4)
C9_6 C 0.4981(5) 0.9381(4) 0.2708(5)
loop_
_geom_bond_atom_site_label_1
_geom_bond_atom_site_label_2
_geom_bond_site_symmetry_1
_geom_bond_site_symmetry_2
U4 O9 1_555 1_555
U8 O25 1_555 1_555
U13 O9 1_555 1_555
U14 O10 1_555 1_555
O10 U4 1_555 1_555
O17 U4 1_555 1_555
O22 U4 1_555 1_555
O25 C8 1_555 1_555
O32 U4 1_555 1_555
O35 U4 1_555 1_555
O41 U4 1_555 1_555
U13 O41 1_555 1_555
U14 O41 1_555 1_555
O35 C3 1_555 1_555
C3 C8 1_555 1_555
U11 O29 1_555 1_555
U12 O39 1_555 1_555
O29 C12 1_555 1_555
O39 C7 1_555 1_555
C7 C12 1_555 1_555
U5 O11 1_555 1_555
U9 O27 1_555 1_555
U15 O11 1_555 1_555
O12 U5 1_555 1_555
O18 U5 1_555 1_555
O23 U5 1_555 1_555
O27 C10 1_555 1_555
O33 U5 1_555 1_555
O36 U5 1_555 1_555
O42 U5 1_555 1_555
C4 O36 1_555 1_555
C10 C4 1_555 1_555
U15 O42 1_555 1_555
U1 O1 1_555 1_555
O1 U3 1_555 1_555
O2 U1 1_555 1_555
O3 U1 1_555 1_555
O4 C2 1_555 1_555
O5 U1 1_555 1_555
O6 U1 1_555 1_555
C1 O5 1_555 1_555
C2 C1 1_555 1_555
U2 O6 1_555 1_555
U3 O6 1_555 1_555
U6 O13 1_555 1_555
U7 O4 1_555 1_555
U15 O28 1_555 1_555
O7 U1 1_555 1_555
O8 U2 1_555 1_555
O14 U6 1_555 1_555
O15 U2 1_555 1_555
O16 U3 1_555 1_555
O19 U6 1_555 1_555
O20 U2 1_555 1_555
O21 U3 1_555 1_555
O24 U6 1_555 1_555
O26 U1 1_555 1_555
O28 C11 1_555 1_555
O30 U2 1_555 1_555
O31 U3 1_555 1_555
O34 U6 1_555 1_555
O37 U6 1_555 1_555
O38 U2 1_555 1_555
O40 U3 1_555 1_555
O43 U6 1_555 1_555
C5 O37 1_555 1_555
C6 O38 1_555 1_555
C9 O26 1_555 1_555
C11 C6 1_555 1_555
U2 O7 1_555 1_555
U3 O8 1_555 1_555
U7 O14 1_555 1_555
U7 O43 1_555 1_555
C5 C9 1_555 1_555
U5_2 O11_2 1_555 1_555
U9_2 O27_2 1_555 1_555
U15_2 O11_2 1_555 1_555
O12_2 U5_2 1_555 1_555
O18_2 U5_2 1_555 1_555
O23_2 U5_2 1_555 1_555
O27_2 C10_2 1_555 1_555
O33_2 U5_2 1_555 1_555
O36_2 U5_2 1_555 1_555
O42_2 U5_2 1_555 1_555
C4_2 O36_2 1_555 1_555
C10_2 C4_2 1_555 1_555
U15_2 O42_2 1_555 1_555
U6_2 O13_2 1_555 1_555
U15_2 O28_2 1_555 1_555
O8_2 U14 1_555 1_555
O14_2 U6_2 1_555 1_555
O15_2 U14 1_555 1_555
O16_2 U13 1_555 1_555
O19_2 U6_2 1_555 1_555
O20_2 U14 1_555 1_555
O21_2 U13 1_555 1_555
O24_2 U6_2 1_555 1_555
O28_2 C11_2 1_555 1_555
O30_2 U14 1_555 1_555
O31_2 U13 1_555 1_555
O34_2 U6_2 1_555 1_555
O37_2 U6_2 1_555 1_555
O38_2 U14 1_555 1_555
O40_2 U13 1_555 1_555
O43_2 U6_2 1_555 1_555
C5_2 O37_2 1_555 1_555
C6_2 O38_2 1_555 1_555
C9_2 O32 1_555 1_555
C11_2 C6_2 1_555 1_555
U13 O8_2 1_555 1_555
U8 O14_2 1_555 1_555
U8 O43_2 1_555 1_555
C5_2 C9_2 1_555 1_555
U11_2 O29_2 1_555 1_555
U12_2 O39_2 1_555 1_555
O29_2 C12_2 1_555 1_555
O39_2 C7_2 1_555 1_555
C7_2 C12_2 1_555 1_555
U9_2 O1_2 1_555 1_555
O1_2 U3_2 1_555 1_555
O2_2 U9_2 1_555 1_555
O3_2 U9_2 1_555 1_555
O4_2 C2_2 1_555 1_555
O5_2 U9_2 1_555 1_555
O6_2 U9_2 1_555 1_555
C1_2 O5_2 1_555 1_555
C2_2 C1_2 1_555 1_555
U12_2 O6_2 1_555 1_555
U3_2 O6_2 1_555 1_555
U7_2 O4_2 1_555 1_555
O7_2 U9_2 1_555 1_555
O8_3 U12_2 1_555 1_555
O15_3 U12_2 1_555 1_555
O16_3 U3_2 1_555 1_555
O20_3 U12_2 1_555 1_555
O21_3 U3_2 1_555 1_555
O30_3 U12_2 1_555 1_555
O31_3 U3_2 1_555 1_555
O40_3 U3_2 1_555 1_555
U12_2 O7_2 1_555 1_555
U3_2 O8_3 1_555 1_555
U7_2 O12_2 1_555 1_555
U7_2 O42_2 1_555 1_555
U11_2 O13_2 1_555 1_555
U11_2 O43_2 1_555 1_555
U9 O9_2 1_555 1_555
U8_2 O25_2 1_555 1_555
U13_2 O9_2 1_555 1_555
U12 O10_2 1_555 1_555
O10_2 U9 1_555 1_555
O17_2 U9 1_555 1_555
O22_2 U9 1_555 1_555
O25_2 C8_2 1_555 1_555
O35_2 U9 1_555 1_555
O41_2 U9 1_555 1_555
U13_2 O41_2 1_555 1_555
U12 O41_2 1_555 1_555
O35_2 C3_2 1_555 1_555
C3_2 C8_2 1_555 1_555
O8_4 U12 1_555 1_555
O15_4 U12 1_555 1_555
O16_4 U13_2 1_555 1_555
O20_4 U12 1_555 1_555
O21_4 U13_2 1_555 1_555
O30_4 U12 1_555 1_555
O31_4 U13_2 1_555 1_555
O40_4 U13_2 1_555 1_555
U13_2 O8_4 1_555 1_555
U8_2 O12 1_555 1_555
U8_2 O42 1_555 1_555
U11 O13 1_555 1_555
U11 O43 1_555 1_555
O12_3 U8 1_555 1_555
O18_3 U8 1_555 1_555
O23_3 U8 1_555 1_555
O30_3 C10_3 1_555 1_555
O36_3 U8 1_555 1_555
C4_3 O36_3 1_555 1_555
C10_3 C4_3 1_555 1_555
O33 C12_3 1_555 1_555
O40_3 C7_3 1_555 1_555
C7_3 C12_3 1_555 1_555
O14_3 U8_2 1_555 1_555
O19_3 U8_2 1_555 1_555
O24_3 U8_2 1_555 1_555
O34_2 C11_3 1_555 1_555
O37_3 U8_2 1_555 1_555
C5_3 O37_3 1_555 1_555
C6_3 O40 1_555 1_555
C9_3 O30 1_555 1_555
C11_3 C6_3 1_555 1_555
U15 O14_3 1_555 1_555
C5_3 C9_3 1_555 1_555
O12_4 U7_2 1_555 1_555
O18_4 U7_2 1_555 1_555
O23_4 U7_2 1_555 1_555
O30_2 C10_4 1_555 1_555
O36_4 U7_2 1_555 1_555
C4_4 O36_4 1_555 1_555
C10_4 C4_4 1_555 1_555
O14_4 U7 1_555 1_555
O19_4 U7 1_555 1_555
O24_4 U7 1_555 1_555
O33_2 C11_4 1_555 1_555
O37_4 U7 1_555 1_555
C5_4 O37_4 1_555 1_555
C6_4 O40_4 1_555 1_555
C9_4 O30_4 1_555 1_555
C11_4 C6_4 1_555 1_555
U11 O14_4 1_555 1_555
C5_4 C9_4 1_555 1_555
O34 C12_4 1_555 1_555
O40_2 C7_4 1_555 1_555
C7_4 C12_4 1_555 1_555
U15_2 O12_4 1_555 1_555
U11_2 O12_3 1_555 1_555
O18_5 U11 1_555 1_555
O23_5 U11 1_555 1_555
O31_2 C10_5 1_555 1_555
O36_5 U11 1_555 1_555
C4_5 O36_5 1_555 1_555
C10_5 C4_5 1_555 1_555
O19_5 U11_2 1_555 1_555
O24_5 U11_2 1_555 1_555
O37_5 U11_2 1_555 1_555
C5_5 O37_5 1_555 1_555
C9_5 O31 1_555 1_555
C5_5 C9_5 1_555 1_555
O18_6 U15_2 1_555 1_555
O23_6 U15_2 1_555 1_555
O31_4 C10_6 1_555 1_555
O36_6 U15_2 1_555 1_555
C4_6 O36_6 1_555 1_555
C10_6 C4_6 1_555 1_555
O19_6 U15 1_555 1_555
O24_6 U15 1_555 1_555
O37_6 U15 1_555 1_555
C5_6 O37_6 1_555 1_555
C9_6 O31_3 1_555 1_555
C5_6 C9_6 1_555 1_555

#END
