
###############################################################################
#
# This file contains modified crystal structure data generated from the
# MOF subset of the Cambridge Structural Database (CSD) v543 
# hosted by the Cambridge Crystallographic Data Centre (CCDC).
#
# This work is licensed under the Creative Commons
# Attribution-NonCommercial-ShareAlike 4.0 International License.
# To view a copy of this license, visit
# http://creativecommons.org/licenses/by-nc-sa/4.0/
# or send a letter to
# Creative Commons, PO Box 1866, Mountain View, CA 94042, USA.
#
# CIF created using the CSD Python API on 29 September 2022
# The structure has been converted into the P1 space group
# The structure has a 3D framework
# The original CSD entry MACUFR02 is in the rhombohedral crystal system
# The framework has been calculated to contain at least 10.0% void space
# The void calculation uses a probe of radius 1.32A, grid spacing 0.4
# The framework is charged, counterions have been retained in the structure
#
###############################################################################

data_MACUFR02
_chemical_formula_moiety         '(C22 H22 Cu5 O28 3-)n'
_symmetry_cell_setting           triclinic
_symmetry_space_group_name_H-M   'P 1'
_symmetry_Int_Tables_number      1
_space_group_name_Hall           'P 1'
loop_
_symmetry_equiv_pos_site_id
_symmetry_equiv_pos_as_xyz
1 x,y,z
_cell_length_a                   8.1929(3)
_cell_length_b                   8.1929(3)
_cell_length_c                   22.2399(15)
_cell_angle_alpha                90
_cell_angle_beta                 90
_cell_angle_gamma                120
_cell_volume                     1292.82
loop_
_atom_site_label
_atom_site_type_symbol
_atom_site_fract_x
_atom_site_fract_y
_atom_site_fract_z
Cu4 Cu -0.0000 0.0000 0.5000
Cu4_2 Cu -0.0000 1.0000 0.5000
O6 O 0.0079(2) 0.7913(2) 0.44646(7)
Cu4_3 Cu 1.0000 0.0000 0.5000
Cu1 Cu 0.6667 0.3333 0.3333
O1 O 0.4580(2) 0.3412(2) 0.38687(7)
C1 C 0.3333(6) 0.2092(4) 0.4167
H1 H 0.3333 0.0957 0.4167
Cu4_4 Cu 1.0000 1.0000 0.5000
O2 O 0.2087(2) 0.2165(3) 0.44646(7)
O3 O 0.6588(2) 0.1168(3) 0.38687(7)
O5 O 0.8832(3) 0.5420(2) 0.38687(7)
O7 O 0.8753(2) 0.3255(2) 0.27980(7)
O8 O 0.6745(2) 0.5499(3) 0.27980(7)
O9 O 0.4501(3) 0.1247(2) 0.27980(7)
C2 C 0.7908(4) 0.1241(7) 0.4167
C3 C 0.8759(7) 0.6667(6) 0.4167
H2 H 0.9043 0.2376 0.4167
H3 H 0.7624 0.6667 0.4167
O4 O 0.7835(3) 0.9921(2) 0.44646(7)
Cu3 Cu 0.0000 -0.0000 -0.0000
Cu3_2 Cu 0.0000 -0.0000 1.0000
Cu3_3 Cu 0.0000 1.0000 -0.0000
Cu3_4 Cu 0.0000 1.0000 1.0000
Cu3_5 Cu 1.0000 -0.0000 -0.0000
O4_2 O 0.7913(4) 0.0079(2) 0.05354(7)
Cu3_6 Cu 1.0000 -0.0000 1.0000
Cu1_2 Cu 0.3334 0.6667 0.1667
O1_2 O 0.1168(3) 0.6588(2) 0.11313(7)
C1_2 C 0.1241(7) 0.7908(4) 0.0833
H1_2 H 0.2376 0.9043 0.0833
Cu3_7 Cu 1.0000 1.0000 -0.0000
O3_2 O 0.5420(4) 0.8832(3) 0.11313(7)
O5_2 O 0.3412(4) 0.4580(2) 0.11313(7)
O6_2 O 0.2165(3) 0.2087(2) 0.05354(7)
O7_2 O 0.5499(3) 0.6745(2) 0.22020(7)
O8_2 O 0.1247(4) 0.4501(3) 0.22020(7)
O9_2 O 0.3255(4) 0.8753(2) 0.22020(7)
C2_2 C 0.6667(8) 0.8759(7) 0.0833
C3_2 C 0.2092(9) 0.3333(6) 0.0833
H2_2 H 0.6667 0.7624 0.0833
H3_2 H 0.0957 0.3333 0.0833
Cu3_8 Cu 1.0000 1.0000 1.0000
O2_2 O 0.9921(4) 0.7835(3) 0.05354(7)
Cu4_5 Cu 0.6666 0.3334 0.8334
O6_3 O 0.6745(2) 0.1247(2) 0.77980(7)
C3_3 C 0.5426(7) 0.0000(6) 0.7500
H3_3 H 0.4291 0.0000 0.7500
Cu1_3 Cu 0.3334 0.6666 0.6666
O1_3 O 0.1247(2) 0.6745(2) 0.72020(7)
C1_3 C -0.0000(6) 0.5425(4) 0.7500
H1_3 H -0.0000 0.4290 0.7500
O3_3 O 0.3255(2) 0.4501(3) 0.72020(7)
O4_3 O 0.4501(3) 0.3255(2) 0.77980(7)
O5_3 O 0.5499(3) 0.8753(2) 0.72020(7)
O7_3 O 0.5420(2) 0.6588(2) 0.61313(7)
O8_3 O 0.3412(2) 0.8832(3) 0.61313(7)
O9_3 O 0.1168(3) 0.4580(2) 0.61313(7)
C2_3 C 0.4575(4) 0.4574(7) 0.7500
C3_4 C 0.5426(7) 1.0000(6) 0.7500
H2_3 H 0.5710 0.5709 0.7500
H3_4 H 0.4291 1.0000 0.7500
C1_4 C 1.0000(6) 0.5425(4) 0.7500
H1_4 H 1.0000 0.4290 0.7500
O2_3 O 0.8753(2) 0.5499(3) 0.77980(7)
O7_4 O 0.2165(3) 0.0079(2) 0.55354(7)
O9_4 O 0.9921(4) 0.2087(2) 0.55354(7)
O8_4 O 0.7913(4) 0.7835(3) 0.55354(7)
O8_5 O 0.0079(2) 0.2165(3) 0.94646(7)
O7_5 O 0.2087(2) 0.9921(2) 0.94646(7)
O9_5 O 0.7835(3) 0.7913(2) 0.94646(7)
O7_6 O 0.8832(3) 0.3412(2) 0.88687(7)
O8_6 O 0.4580(4) 0.1168(3) 0.88687(7)
O9_6 O 0.6588(4) 0.5420(2) 0.88687(7)
C1_5 C 0.6667(6) 0.7908(4) 0.5833
H1_5 H 0.6667 0.9043 0.5833
C2_4 C 0.2092(4) 0.8759(7) 0.5833
C3_5 C 0.1241(7) 0.3333(6) 0.5833
H2_4 H 0.0957 0.7624 0.5833
H3_5 H 0.2376 0.3333 0.5833
C1_6 C 0.8759(7) 0.2092(4) 0.9167
H1_6 H 0.7624 0.0957 0.9167
C2_5 C 0.3333(8) 0.1241(7) 0.9167
C3_6 C 0.7908(9) 0.6667(6) 0.9167
H2_5 H 0.3333 0.2376 0.9167
H3_6 H 0.9043 0.6667 0.9167
C1_7 C 0.0000(6) 0.4575(4) 0.2500
H1_7 H 0.0000 0.5710 0.2500
C1_8 C 1.0000(6) 0.4575(4) 0.2500
H1_8 H 1.0000 0.5710 0.2500
C2_6 C 0.5425(4) 0.5426(7) 0.2500
C3_7 C 0.4574(7) -0.0000(6) 0.2500
H2_6 H 0.4290 0.4291 0.2500
H3_7 H 0.5709 -0.0000 0.2500
C3_8 C 0.4574(7) 1.0000(6) 0.2500
H3_8 H 0.5709 1.0000 0.2500
loop_
_geom_bond_atom_site_label_1
_geom_bond_atom_site_label_2
_geom_bond_site_symmetry_1
_geom_bond_site_symmetry_2
Cu4_2 O6 1_555 1_555
Cu1 O1 1_555 1_555
O1 C1 1_555 1_555
C1 H1 1_555 1_555
Cu4 O2 1_555 1_555
O2 C1 1_555 1_555
O3 Cu1 1_555 1_555
O5 Cu1 1_555 1_555
O7 Cu1 1_555 1_555
O8 Cu1 1_555 1_555
O9 Cu1 1_555 1_555
C2 O3 1_555 1_555
C3 O5 1_555 1_555
H2 C2 1_555 1_555
H3 C3 1_555 1_555
Cu4_4 O4 1_555 1_555
Cu3_5 O4_2 1_555 1_555
Cu1_2 O1_2 1_555 1_555
O1_2 C1_2 1_555 1_555
C1_2 H1_2 1_555 1_555
Cu3 O6_2 1_555 1_555
O3_2 Cu1_2 1_555 1_555
O5_2 Cu1_2 1_555 1_555
O6_2 C3_2 1_555 1_555
O7_2 Cu1_2 1_555 1_555
O8_2 Cu1_2 1_555 1_555
O9_2 Cu1_2 1_555 1_555
C2_2 O3_2 1_555 1_555
C3_2 O5_2 1_555 1_555
H2_2 C2_2 1_555 1_555
H3_2 C3_2 1_555 1_555
Cu3_7 O2_2 1_555 1_555
Cu4_5 O6_3 1_555 1_555
O6_3 C3_3 1_555 1_555
H3_3 C3_3 1_555 1_555
Cu1_3 O1_3 1_555 1_555
O1_3 C1_3 1_555 1_555
C1_3 H1_3 1_555 1_555
Cu4_5 O4_3 1_555 1_555
O3_3 Cu1_3 1_555 1_555
O4_3 C2_3 1_555 1_555
O5_3 Cu1_3 1_555 1_555
O7_3 Cu1_3 1_555 1_555
O8_3 Cu1_3 1_555 1_555
O9_3 Cu1_3 1_555 1_555
C2_3 O3_3 1_555 1_555
C3_4 O5_3 1_555 1_555
H2_3 C2_3 1_555 1_555
H3_4 C3_4 1_555 1_555
C1_4 H1_4 1_555 1_555
Cu4_5 O2_3 1_555 1_555
O2_3 C1_4 1_555 1_555
O7_4 Cu4 1_555 1_555
O9_4 Cu4_3 1_555 1_555
O8_4 Cu4_4 1_555 1_555
O8_5 Cu3_2 1_555 1_555
O7_5 Cu3_4 1_555 1_555
O9_5 Cu3_8 1_555 1_555
O7_6 Cu4_5 1_555 1_555
O8_6 Cu4_5 1_555 1_555
O9_6 Cu4_5 1_555 1_555
O7_3 C1_5 1_555 1_555
C1_5 H1_5 1_555 1_555
O8_4 C1_5 1_555 1_555
C2_4 O8_3 1_555 1_555
C3_5 O9_3 1_555 1_555
H2_4 C2_4 1_555 1_555
H3_5 C3_5 1_555 1_555
O7_6 C1_6 1_555 1_555
C1_6 H1_6 1_555 1_555
O9_5 C3_6 1_555 1_555
C2_5 O8_6 1_555 1_555
C3_6 O9_6 1_555 1_555
H2_5 C2_5 1_555 1_555
H3_6 C3_6 1_555 1_555
C1_7 H1_7 1_555 1_555
O8_2 C1_7 1_555 1_555
O7 C1_8 1_555 1_555
C1_8 H1_8 1_555 1_555
O7_2 C2_6 1_555 1_555
C2_6 O8 1_555 1_555
C3_7 O9 1_555 1_555
H2_6 C2_6 1_555 1_555
H3_7 C3_7 1_555 1_555
O9_2 C3_8 1_555 1_555
H3_8 C3_8 1_555 1_555

#END
