
###############################################################################
#
# This file contains modified crystal structure data generated from the
# MOF subset of the Cambridge Structural Database (CSD) v543 
# hosted by the Cambridge Crystallographic Data Centre (CCDC).
#
# This work is licensed under the Creative Commons
# Attribution-NonCommercial-ShareAlike 4.0 International License.
# To view a copy of this license, visit
# http://creativecommons.org/licenses/by-nc-sa/4.0/
# or send a letter to
# Creative Commons, PO Box 1866, Mountain View, CA 94042, USA.
#
# CIF created using the CSD Python API on 29 September 2022
# The structure has been converted into the P1 space group
# The structure has a 3D framework
# The original CSD entry MADVUJ is in the orthorhombic crystal system
# The framework has been calculated to contain at least 10.0% void space
# The void calculation uses a probe of radius 1.32A, grid spacing 0.4
#
###############################################################################

data_MADVUJ
_chemical_formula_moiety         '(C64 H64 Cu3 I2 S8)n'
_symmetry_cell_setting           triclinic
_symmetry_space_group_name_H-M   'P 1'
_symmetry_Int_Tables_number      1
_space_group_name_Hall           'P 1'
loop_
_symmetry_equiv_pos_site_id
_symmetry_equiv_pos_as_xyz
1 x,y,z
_cell_length_a                   7.201(3)
_cell_length_b                   20.784(9)
_cell_length_c                   12.400(5)
_cell_angle_alpha                90
_cell_angle_beta                 90
_cell_angle_gamma                90
_cell_volume                     1855.85
loop_
_atom_site_label
_atom_site_type_symbol
_atom_site_fract_x
_atom_site_fract_y
_atom_site_fract_z
I1 I 0.12819(4) 0.2500 0.14065(2)
Cu2 Cu 0.26352(8) 0.2500 0.33781(5)
Cu1 Cu 0.76352(8) 0.2500 0.16219(5)
S1 S 0.6317(1) 0.16211(4) 0.07298(7)
C7 C 0.8197(5) 0.1136(2) 0.0157(3)
C8 C 0.5308(5) 0.1107(2) 0.1763(3)
H5 H 0.8990 0.1002 0.0726
H7 H 0.6289 0.0946 0.2199
H8 H 0.4500 0.1362 0.2192
C14 C 0.4210(4) 0.0537(2) 0.1339(3)
C15 C 0.3094(5) 0.0592(2) 0.0425(3)
H10 H 0.2897 0.1003 0.0108
I2 I 0.62819(4) 0.2500 0.35935(2)
S3 S 0.6317(1) 0.33789(4) 0.07298(7)
H2 H 0.0049 0.5103 0.2514
H8_2 H 0.0500 0.6362 0.7192
C9 C 0.0308(5) 0.3893(2) 0.3237(3)
S2 S 0.1317(1) 0.33789(4) 0.42702(7)
C10 C 0.3197(5) 0.3864(2) 0.4843(3)
C11 C 0.2504(5) 0.4452(2) 0.5431(3)
C12 C 0.1519(5) 0.4402(2) 0.6398(3)
C13 C 0.0648(5) 0.4939(2) 0.6839(3)
C14_2 C 0.0790(4) 0.5537(2) 0.6339(3)
C15_2 C 0.1906(5) 0.5592(2) 0.5425(3)
C16 C 0.2730(5) 0.5054(2) 0.4976(3)
H9 H 0.3464 0.5099 0.4344
H10_2 H 0.2103 0.6003 0.5108
H12 H 0.1443 0.3999 0.6757
H13 H 0.3990 0.3998 0.4274
H14 H 0.3877 0.3605 0.5335
H15 H 0.1289 0.4054 0.2801
C5 C 0.7730(5) 0.5054(2) 0.0024(3)
C7_2 C 0.8197(5) 0.3864(2) 0.0157(3)
C8_2 C 0.5308(5) 0.3893(2) 0.1763(3)
H4 H 0.8464 0.5099 0.0656
H5_2 H 0.8990 0.3998 0.0726
H7_2 H 0.6289 0.4054 0.2199
H8_3 H 0.4500 0.3638 0.2192
C11_2 C 0.2496(5) 0.5548(2) 0.0431(3)
C12_2 C 0.3481(5) 0.5598(2) 0.1398(3)
C13_2 C 0.4352(5) 0.5061(2) 0.1839(3)
C14_3 C 0.4210(4) 0.4463(2) 0.1339(3)
C15_3 C 0.3094(5) 0.4408(2) 0.0425(3)
H10_3 H 0.2897 0.3997 0.0108
H11 H 0.5049 0.5103 0.2486
H12_2 H 0.3557 0.6001 0.1757
H14_2 H 0.1123 0.6395 0.0335
S1_2 S 0.1317(1) 0.16211(4) 0.42702(7)
C1 C 0.1519(5) 0.0598(2) 0.6398(3)
C2 C 0.0648(5) 0.0061(2) 0.6839(3)
C6 C 0.2504(5) 0.0548(2) 0.5431(3)
C7_3 C 0.3197(5) 0.1136(2) 0.4843(3)
C8_3 C 0.0308(5) 0.1107(2) 0.3237(3)
H1 H 0.1443 0.1001 0.6757
H5_3 H 0.3990 0.1002 0.4274
H6 H 0.3877 0.1395 0.5335
H7_3 H 0.1289 0.0946 0.2801
C1_2 C 0.6519(5) 0.0598(2) 0.8602(3)
C2_2 C 0.5648(5) 0.0061(2) 0.8161(3)
C6_2 C 0.7504(5) 0.0548(2) 0.9569(3)
H1_2 H 0.6443 0.1001 0.8243
H2_2 H 0.4951 0.0103 0.7514
H6_2 H 0.8877 0.1395 0.9665
C16_2 C 0.2270(5) 0.0054(2) 0.9976(3)
H9_2 H 0.1536 0.0099 0.9344
C5_2 C 0.7730(5) 0.9946(2) 0.0024(3)
H4_2 H 0.8464 0.9901 0.0656
C11_3 C 0.2496(5) 0.9452(2) 0.0431(3)
C12_3 C 0.3481(5) 0.9402(2) 0.1398(3)
C13_3 C 0.4352(5) 0.9939(2) 0.1839(3)
H11_2 H 0.5049 0.9897 0.2486
H12_3 H 0.3557 0.8999 0.1757
H14_3 H 0.1123 0.8605 0.0335
C3 C 0.5790(4) 0.9463(2) 0.8661(3)
C4 C 0.6906(5) 0.9408(2) 0.9575(3)
H3 H 0.7103 0.8997 0.9892
C9_2 C 0.4692(5) 0.8893(2) 0.8237(3)
S2_2 S 0.3683(1) 0.83789(4) 0.92702(7)
C10_2 C 0.1803(5) 0.8864(2) 0.9843(3)
H13_2 H 0.1010 0.8998 0.9274
H15_2 H 0.3711 0.9054 0.7801
H16 H 0.5500 0.8638 0.7808
Cu3 Cu 0.23648(8) 0.7500 0.83781(5)
I1_2 I 0.37181(4) 0.7500 0.64065(2)
Cu1_2 Cu 0.73648(8) 0.7500 0.66219(5)
S1_3 S 0.8683(1) 0.66211(4) 0.57298(7)
C1_3 C 0.8481(5) 0.5598(2) 0.3602(3)
C2_3 C 0.9352(5) 0.5061(2) 0.3161(3)
C3_2 C 0.9210(4) 0.4463(2) 0.3661(3)
C4_2 C 0.8094(5) 0.4408(2) 0.4575(3)
C5_3 C 0.7270(5) 0.4946(2) 0.5024(3)
C6_3 C 0.7496(5) 0.5548(2) 0.4569(3)
C7_4 C 0.6803(5) 0.6136(2) 0.5157(3)
C8_4 C 0.9692(5) 0.6107(2) 0.6763(3)
H1_3 H 0.8557 0.6001 0.3243
H3_2 H 0.7897 0.3997 0.4892
H4_3 H 0.6536 0.4901 0.5656
H5_4 H 0.6010 0.6002 0.5726
H6_3 H 0.6123 0.6395 0.4665
H7_4 H 0.8711 0.5946 0.7199
H11_3 H 0.9951 0.4897 0.7486
H16_2 H 0.9500 0.3638 0.2808
I2_2 I 0.87181(4) 0.7500 0.85935(2)
S3_2 S 0.8683(1) 0.83789(4) 0.57298(7)
C1_4 C 0.6519(5) 0.4402(2) 0.8602(3)
C2_4 C 0.5648(5) 0.4939(2) 0.8161(3)
C3_3 C 0.5790(4) 0.5537(2) 0.8661(3)
C4_3 C 0.6906(5) 0.5592(2) 0.9575(3)
C6_4 C 0.7504(5) 0.4452(2) 0.9569(3)
H1_4 H 0.6443 0.3999 0.8243
H2_3 H 0.4951 0.4897 0.7514
H3_3 H 0.7103 0.6003 0.9892
H6_4 H 0.8877 0.3605 0.9665
C9_3 C 0.4692(5) 0.6107(2) 0.8237(3)
S2_3 S 0.3683(1) 0.66211(4) 0.92702(7)
C10_3 C 0.1803(5) 0.6136(2) 0.9843(3)
C16_3 C 0.2270(5) 0.4946(2) 0.9976(3)
H9_3 H 0.1536 0.4901 0.9344
H13_3 H 0.1010 0.6002 0.9274
H15_3 H 0.3711 0.5946 0.7801
H16_3 H 0.5500 0.6362 0.7808
C9_4 C 0.9692(5) 0.8893(2) 0.6763(3)
C10_4 C 0.6803(5) 0.8864(2) 0.5157(3)
C11_4 C 0.7496(5) 0.9452(2) 0.4569(3)
C12_4 C 0.8481(5) 0.9402(2) 0.3602(3)
C13_4 C 0.9352(5) 0.9939(2) 0.3161(3)
H12_4 H 0.8557 0.8999 0.3243
H13_4 H 0.6010 0.8998 0.5726
H14_4 H 0.6123 0.8605 0.4665
H15_4 H 0.8711 0.9054 0.7199
C3_4 C 0.0790(4) 0.9463(2) 0.6339(3)
C4_4 C 0.1906(5) 0.9408(2) 0.5425(3)
C5_4 C 0.2730(5) 0.9946(2) 0.4976(3)
H3_4 H 0.2103 0.8997 0.5108
H4_4 H 0.3464 0.9901 0.4344
H11_4 H 0.0049 0.9897 0.2514
H16_4 H 0.0500 0.8638 0.7192
H2_4 H 0.9951 0.0103 0.7486
H8_4 H 0.9500 0.1362 0.2808
C14_4 C 0.9210(4) 0.0537(2) 0.3661(3)
C15_4 C 0.8094(5) 0.0592(2) 0.4575(3)
C16_4 C 0.7270(5) 0.0054(2) 0.5024(3)
H9_4 H 0.6536 0.0099 0.5656
H10_4 H 0.7897 0.1003 0.4892
loop_
_geom_bond_atom_site_label_1
_geom_bond_atom_site_label_2
_geom_bond_site_symmetry_1
_geom_bond_site_symmetry_2
Cu2 I1 1_555 1_555
Cu1 S1 1_555 1_555
S1 C7 1_555 1_555
C8 S1 1_555 1_555
H5 C7 1_555 1_555
H7 C8 1_555 1_555
H8 C8 1_555 1_555
C14 C8 1_555 1_555
C15 C14 1_555 1_555
H10 C15 1_555 1_555
I2 Cu1 1_555 1_555
S3 Cu1 1_555 1_555
S2 C9 1_555 1_555
C10 S2 1_555 1_555
C11 C10 1_555 1_555
C12 C11 1_555 1_555
C13 C12 1_555 1_555
C15_2 C14_2 1_555 1_555
C16 C11 1_555 1_555
H9 C16 1_555 1_555
H10_2 C15_2 1_555 1_555
H12 C12 1_555 1_555
H13 C10 1_555 1_555
H14 C10 1_555 1_555
H15 C9 1_555 1_555
Cu2 S2 1_555 1_555
C13 C14_2 1_555 1_555
C15_2 C16 1_555 1_555
S3 C7_2 1_555 1_555
C8_2 S3 1_555 1_555
H4 C5 1_555 1_555
H5_2 C7_2 1_555 1_555
H7_2 C8_2 1_555 1_555
H8_3 C8_2 1_555 1_555
C12_2 C11_2 1_555 1_555
C13_2 C12_2 1_555 1_555
C14_3 C8_2 1_555 1_555
C15_3 C14_3 1_555 1_555
H10_3 C15_3 1_555 1_555
H11 C13_2 1_555 1_555
H12_2 C12_2 1_555 1_555
C13_2 C14_3 1_555 1_555
I2 Cu2 1_555 1_555
Cu2 S1_2 1_555 1_555
S1_2 C7_3 1_555 1_555
C1 C2 1_555 1_555
C6 C1 1_555 1_555
C7_3 C6 1_555 1_555
C8_3 S1_2 1_555 1_555
H1 C1 1_555 1_555
H5_3 C7_3 1_555 1_555
H6 C7_3 1_555 1_555
H7_3 C8_3 1_555 1_555
C1_2 C2_2 1_555 1_555
C6_2 C1_2 1_555 1_555
H1_2 C1_2 1_555 1_555
H2_2 C2_2 1_555 1_555
H9_2 C16_2 1_555 1_555
H4_2 C5_2 1_555 1_555
C12_3 C11_3 1_555 1_555
C13_3 C12_3 1_555 1_555
H11_2 C13_3 1_555 1_555
H12_3 C12_3 1_555 1_555
C3 C4 1_555 1_555
H3 C4 1_555 1_555
C9_2 C3 1_555 1_555
S2_2 C9_2 1_555 1_555
C10_2 S2_2 1_555 1_555
H13_2 C10_2 1_555 1_555
H15_2 C9_2 1_555 1_555
H16 C9_2 1_555 1_555
Cu3 S2_2 1_555 1_555
I1_2 Cu1_2 1_555 1_555
Cu1_2 S1_3 1_555 1_555
S1_3 C7_4 1_555 1_555
C1_3 C2_3 1_555 1_555
C2_3 C3_2 1_555 1_555
C3_2 C4_2 1_555 1_555
C4_2 C5_3 1_555 1_555
C5_3 C6_3 1_555 1_555
C6_3 C1_3 1_555 1_555
C7_4 C6_3 1_555 1_555
C8_4 S1_3 1_555 1_555
H1_3 C1_3 1_555 1_555
H3_2 C4_2 1_555 1_555
H4_3 C5_3 1_555 1_555
H5_4 C7_4 1_555 1_555
H6_3 C7_4 1_555 1_555
H7_4 C8_4 1_555 1_555
Cu3 I1_2 1_555 1_555
I2_2 Cu1_2 1_555 1_555
S3_2 Cu1_2 1_555 1_555
C1_4 C2_4 1_555 1_555
C2_4 C3_3 1_555 1_555
C3_3 C4_3 1_555 1_555
C6_4 C1_4 1_555 1_555
H1_4 C1_4 1_555 1_555
H2_3 C2_4 1_555 1_555
H3_3 C4_3 1_555 1_555
C9_3 C3_3 1_555 1_555
S2_3 C9_3 1_555 1_555
C10_3 S2_3 1_555 1_555
H9_3 C16_3 1_555 1_555
H13_3 C10_3 1_555 1_555
H15_3 C9_3 1_555 1_555
H16_3 C9_3 1_555 1_555
Cu3 S2_3 1_555 1_555
S3_2 C9_4 1_555 1_555
C10_4 S3_2 1_555 1_555
C11_4 C10_4 1_555 1_555
C12_4 C11_4 1_555 1_555
C13_4 C12_4 1_555 1_555
H12_4 C12_4 1_555 1_555
H13_4 C10_4 1_555 1_555
H14_4 C10_4 1_555 1_555
H15_4 C9_4 1_555 1_555
C3_4 C4_4 1_555 1_555
C4_4 C5_4 1_555 1_555
H3_4 C4_4 1_555 1_555
H4_4 C5_4 1_555 1_555
C15_4 C14_4 1_555 1_555
H9_4 C16_4 1_555 1_555
H10_4 C15_4 1_555 1_555
C15_4 C16_4 1_555 1_555

#END
