
###############################################################################
#
# This file contains modified crystal structure data generated from the
# MOF subset of the Cambridge Structural Database (CSD) v543 
# hosted by the Cambridge Crystallographic Data Centre (CCDC).
#
# This work is licensed under the Creative Commons
# Attribution-NonCommercial-ShareAlike 4.0 International License.
# To view a copy of this license, visit
# http://creativecommons.org/licenses/by-nc-sa/4.0/
# or send a letter to
# Creative Commons, PO Box 1866, Mountain View, CA 94042, USA.
#
# CIF created using the CSD Python API on 29 September 2022
# The structure has been converted into the P1 space group
# The structure has a 3D framework
# The original CSD entry MADWAQ is in the orthorhombic crystal system
# The framework has been calculated to contain at least 10.0% void space
# The void calculation uses a probe of radius 1.32A, grid spacing 0.4
#
###############################################################################

data_MADWAQ
_chemical_formula_moiety         '(C64 H64 Br2 Cu3 S8)n'
_symmetry_cell_setting           triclinic
_symmetry_space_group_name_H-M   'P 1'
_symmetry_Int_Tables_number      1
_space_group_name_Hall           'P 1'
loop_
_symmetry_equiv_pos_site_id
_symmetry_equiv_pos_as_xyz
1 x,y,z
_cell_length_a                   7.0820(6)
_cell_length_b                   20.724(2)
_cell_length_c                   12.357(1)
_cell_angle_alpha                90
_cell_angle_beta                 90
_cell_angle_gamma                90
_cell_volume                     1813.6
loop_
_atom_site_label
_atom_site_type_symbol
_atom_site_fract_x
_atom_site_fract_y
_atom_site_fract_z
Br1 Br 0.10504(4) 0.7500 0.65171(2)
Cu2 Cu 0.25542(5) 0.7500 0.83266(2)
Cu1 Cu 0.75542(5) 0.7500 0.66734(2)
S1 S 0.62276(6) 0.66318(2) 0.57594(4)
C1 C 0.4393(3) 0.49182(9) 0.6870(2)
C2 C 0.3552(3) 0.43699(9) 0.6426(2)
C3 C 0.2533(3) 0.44146(9) 0.5459(2)
C4 C 0.2273(3) 0.5019(1) 0.5002(2)
C5 C 0.3074(3) 0.55656(9) 0.5453(2)
C6 C 0.4212(3) 0.55184(9) 0.6369(2)
C7 C 0.5286(3) 0.60943(9) 0.6794(2)
C8 C 0.8146(3) 0.6177(1) 0.5130(2)
H1 H 0.5103 0.4882 0.7523
H2 H 0.3673 0.3964 0.6785
H3 H 0.1523 0.5060 0.4360
H4 H 0.2849 0.5978 0.5135
H5 H 0.6318 0.5940 0.7215
H6 H 0.4464 0.6338 0.7243
H7 H 0.8782 0.6451 0.4631
H8 H 0.9012 0.6049 0.5681
C9 C 0.1854(3) 0.3823(1) 0.4870(2)
S2 S 0.37724(6) 0.33682(2) 0.42406(4)
C10 C 0.4714(3) 0.39057(9) 0.3206(2)
C11 C 0.5788(3) 0.44816(9) 0.3631(2)
C12 C 0.5607(3) 0.50818(9) 0.3130(2)
C13 C 0.6448(3) 0.56301(9) 0.3574(2)
C14 C 0.7467(3) 0.55854(9) 0.4541(2)
C15 C 0.7727(3) 0.4981(1) 0.4998(2)
C16 C 0.6926(3) 0.44344(9) 0.4547(2)
H9 H 0.7151 0.4022 0.4865
H10 H 0.8477 0.4940 0.5640
H11 H 0.6327 0.6036 0.3215
H12 H 0.4897 0.5118 0.2477
H13 H 0.3682 0.4060 0.2785
H14 H 0.5536 0.3662 0.2757
H15 H 0.1218 0.3549 0.5369
H16 H 0.0988 0.3951 0.4319
Br2 Br 0.60504(4) 0.7500 0.84829(2)
S3 S 0.62276(6) 0.83682(2) 0.57594(4)
Cu3 Cu 0.24458(5) 0.2500 0.33266(2)
C9_2 C 0.3146(3) 0.8823(1) 0.9870(2)
S2_2 S 0.12276(6) 0.83682(2) 0.92406(4)
C10_2 C 0.0286(3) 0.89057(9) 0.8206(2)
H13_2 H 0.1318 0.9060 0.7785
H16_2 H 0.4012 0.8951 0.9319
Br1_2 Br 0.39496(4) 0.2500 0.15171(2)
Cu1_2 Cu 0.74458(5) 0.2500 0.16734(2)
S1_2 S 0.87724(6) 0.16318(2) 0.07594(4)
C7_2 C 0.9714(3) 0.10943(9) 0.1794(2)
C8_2 C 0.6854(3) 0.1177(1) 0.0130(2)
H5_2 H 0.8682 0.0940 0.2215
H8_2 H 0.5988 0.1049 0.0681
Br2_2 Br 0.89496(4) 0.2500 0.34829(2)
S3_2 S 0.87724(6) 0.33682(2) 0.07594(4)
C1_2 C 0.4393(3) 0.00818(9) 0.6870(2)
C2_2 C 0.3552(3) 0.06301(9) 0.6426(2)
C3_2 C 0.2533(3) 0.05854(9) 0.5459(2)
H1_2 H 0.5103 0.0118 0.7523
H2_2 H 0.3673 0.1036 0.6785
C9_3 C 0.1854(3) 0.1177(1) 0.4870(2)
S2_3 S 0.37724(6) 0.16318(2) 0.42406(4)
C10_3 C 0.4714(3) 0.10943(9) 0.3206(2)
C11_2 C 0.5788(3) 0.05184(9) 0.3631(2)
C15_2 C 0.7727(3) 0.0019(1) 0.4998(2)
C16_2 C 0.6926(3) 0.05656(9) 0.4547(2)
H9_2 H 0.7151 0.0978 0.4865
H10_2 H 0.8477 0.0060 0.5640
H13_3 H 0.3682 0.0940 0.2785
H14_2 H 0.5536 0.1338 0.2757
H15_2 H 0.1218 0.1451 0.5369
H16_3 H 0.0988 0.1049 0.4319
C4_2 C 0.2273(3) 0.9981(1) 0.5002(2)
C5_2 C 0.3074(3) 0.94344(9) 0.5453(2)
C6_2 C 0.4212(3) 0.94816(9) 0.6369(2)
C7_3 C 0.5286(3) 0.89057(9) 0.6794(2)
C8_3 C 0.8146(3) 0.8823(1) 0.5130(2)
H3_2 H 0.1523 0.9940 0.4360
H4_2 H 0.2849 0.9022 0.5135
H5_3 H 0.6318 0.9060 0.7215
H6_2 H 0.4464 0.8662 0.7243
H7_2 H 0.8782 0.8549 0.4631
H8_3 H 0.9012 0.8951 0.5681
C12_2 C 0.5607(3) 0.99182(9) 0.3130(2)
C13_2 C 0.6448(3) 0.93699(9) 0.3574(2)
C14_2 C 0.7467(3) 0.94146(9) 0.4541(2)
H11_2 H 0.6327 0.8964 0.3215
H12_2 H 0.4897 0.9882 0.2477
S1_3 S 0.12276(6) 0.66318(2) 0.92406(4)
C7_4 C 0.0286(3) 0.60943(9) 0.8206(2)
C8_4 C 0.3146(3) 0.6177(1) 0.9870(2)
H1_3 H 0.0103 0.4882 0.7477
H5_4 H 0.1318 0.5940 0.7785
H8_4 H 0.4012 0.6049 0.9319
H10_3 H 0.3477 0.4940 0.9360
H3_3 H 0.6523 0.5060 0.0640
C9_4 C 0.6854(3) 0.3823(1) 0.0130(2)
C10_4 C 0.9714(3) 0.39057(9) 0.1794(2)
H12_3 H 0.9897 0.5118 0.2523
H13_4 H 0.8682 0.4060 0.2215
H16_4 H 0.5988 0.3951 0.0681
C4_3 C 0.2727(3) 0.0019(1) 0.0002(2)
C5_3 C 0.1926(3) 0.05656(9) 0.0453(2)
C6_3 C 0.0788(3) 0.05184(9) 0.1369(2)
H4_3 H 0.2151 0.0978 0.0135
H6_3 H 0.0536 0.1338 0.2243
H3_4 H 0.3477 0.0060 0.9360
H12_4 H 0.0103 0.0118 0.7477
C1_3 C 0.0607(3) 0.99182(9) 0.1870(2)
C2_3 C 0.1448(3) 0.93699(9) 0.1426(2)
C3_3 C 0.2467(3) 0.94146(9) 0.0459(2)
H2_3 H 0.1327 0.8964 0.1785
H15_3 H 0.3782 0.8549 0.0369
H7_3 H 0.6218 0.1451 0.9631
C12_3 C 0.9393(3) 0.00818(9) 0.8130(2)
C13_3 C 0.8552(3) 0.06301(9) 0.8574(2)
C14_3 C 0.7533(3) 0.05854(9) 0.9541(2)
H11_3 H 0.8673 0.1036 0.8215
H1_4 H 0.9897 0.9882 0.2523
H10_4 H 0.6523 0.9940 0.0640
C11_3 C 0.9212(3) 0.94816(9) 0.8631(2)
C15_3 C 0.7273(3) 0.9981(1) 0.9998(2)
C16_3 C 0.8074(3) 0.94344(9) 0.9547(2)
H9_3 H 0.7849 0.9022 0.9865
H14_3 H 0.9464 0.8662 0.7757
H7_4 H 0.3782 0.6451 0.0369
C11_4 C 0.0788(3) 0.44816(9) 0.1369(2)
C12_4 C 0.0607(3) 0.50818(9) 0.1870(2)
C13_4 C 0.1448(3) 0.56301(9) 0.1426(2)
C14_4 C 0.2467(3) 0.55854(9) 0.0459(2)
C15_4 C 0.2727(3) 0.4981(1) 0.0002(2)
C16_4 C 0.1926(3) 0.44344(9) 0.0453(2)
H9_4 H 0.2151 0.4022 0.0135
H11_4 H 0.1327 0.6036 0.1785
H14_4 H 0.0536 0.3662 0.2243
C1_4 C 0.9393(3) 0.49182(9) 0.8130(2)
C2_4 C 0.8552(3) 0.43699(9) 0.8574(2)
C3_4 C 0.7533(3) 0.44146(9) 0.9541(2)
C4_4 C 0.7273(3) 0.5019(1) 0.9998(2)
C5_4 C 0.8074(3) 0.55656(9) 0.9547(2)
C6_4 C 0.9212(3) 0.55184(9) 0.8631(2)
H2_4 H 0.8673 0.3964 0.8215
H4_4 H 0.7849 0.5978 0.9865
H6_4 H 0.9464 0.6338 0.7757
H15_4 H 0.6218 0.3549 0.9631
loop_
_geom_bond_atom_site_label_1
_geom_bond_atom_site_label_2
_geom_bond_site_symmetry_1
_geom_bond_site_symmetry_2
Cu2 Br1 1_555 1_555
Cu1 S1 1_555 1_555
S1 C7 1_555 1_555
C1 C2 1_555 1_555
C2 C3 1_555 1_555
C3 C4 1_555 1_555
C4 C5 1_555 1_555
C5 C6 1_555 1_555
C6 C1 1_555 1_555
C7 C6 1_555 1_555
C8 S1 1_555 1_555
H1 C1 1_555 1_555
H2 C2 1_555 1_555
H3 C4 1_555 1_555
H4 C5 1_555 1_555
H5 C7 1_555 1_555
H6 C7 1_555 1_555
H7 C8 1_555 1_555
H8 C8 1_555 1_555
C9 C3 1_555 1_555
S2 C9 1_555 1_555
C10 S2 1_555 1_555
C11 C10 1_555 1_555
C12 C11 1_555 1_555
C13 C12 1_555 1_555
C14 C8 1_555 1_555
C15 C14 1_555 1_555
C16 C11 1_555 1_555
H9 C16 1_555 1_555
H10 C15 1_555 1_555
H11 C13 1_555 1_555
H12 C12 1_555 1_555
H13 C10 1_555 1_555
H14 C10 1_555 1_555
H15 C9 1_555 1_555
H16 C9 1_555 1_555
Br2 Cu1 1_555 1_555
S3 Cu1 1_555 1_555
Cu3 S2 1_555 1_555
C13 C14 1_555 1_555
C15 C16 1_555 1_555
S2_2 C9_2 1_555 1_555
C10_2 S2_2 1_555 1_555
H13_2 C10_2 1_555 1_555
H16_2 C9_2 1_555 1_555
Cu2 S2_2 1_555 1_555
Br1_2 Cu1_2 1_555 1_555
Cu1_2 S1_2 1_555 1_555
S1_2 C7_2 1_555 1_555
C8_2 S1_2 1_555 1_555
H5_2 C7_2 1_555 1_555
H8_2 C8_2 1_555 1_555
Cu3 Br1_2 1_555 1_555
Br2_2 Cu1_2 1_555 1_555
S3_2 Cu1_2 1_555 1_555
C1_2 C2_2 1_555 1_555
C2_2 C3_2 1_555 1_555
H1_2 C1_2 1_555 1_555
H2_2 C2_2 1_555 1_555
C9_3 C3_2 1_555 1_555
S2_3 C9_3 1_555 1_555
C10_3 S2_3 1_555 1_555
C11_2 C10_3 1_555 1_555
C16_2 C11_2 1_555 1_555
H9_2 C16_2 1_555 1_555
H10_2 C15_2 1_555 1_555
H13_3 C10_3 1_555 1_555
H14_2 C10_3 1_555 1_555
H15_2 C9_3 1_555 1_555
H16_3 C9_3 1_555 1_555
Cu3 S2_3 1_555 1_555
C15_2 C16_2 1_555 1_555
S3 C7_3 1_555 1_555
C4_2 C5_2 1_555 1_555
C5_2 C6_2 1_555 1_555
C7_3 C6_2 1_555 1_555
C8_3 S3 1_555 1_555
H3_2 C4_2 1_555 1_555
H4_2 C5_2 1_555 1_555
H5_3 C7_3 1_555 1_555
H6_2 C7_3 1_555 1_555
H7_2 C8_3 1_555 1_555
H8_3 C8_3 1_555 1_555
C13_2 C12_2 1_555 1_555
C14_2 C8_3 1_555 1_555
H11_2 C13_2 1_555 1_555
H12_2 C12_2 1_555 1_555
C13_2 C14_2 1_555 1_555
Br2 Cu2 1_555 1_555
Cu2 S1_3 1_555 1_555
S1_3 C7_4 1_555 1_555
C8_4 S1_3 1_555 1_555
H5_4 C7_4 1_555 1_555
H8_4 C8_4 1_555 1_555
S3_2 C9_4 1_555 1_555
C10_4 S3_2 1_555 1_555
H13_4 C10_4 1_555 1_555
H16_4 C9_4 1_555 1_555
C4_3 C5_3 1_555 1_555
C5_3 C6_3 1_555 1_555
H4_3 C5_3 1_555 1_555
C1_3 C2_3 1_555 1_555
C2_3 C3_3 1_555 1_555
H2_3 C2_3 1_555 1_555
C13_3 C12_3 1_555 1_555
H11_3 C13_3 1_555 1_555
C13_3 C14_3 1_555 1_555
C16_3 C11_3 1_555 1_555
H9_3 C16_3 1_555 1_555
C15_3 C16_3 1_555 1_555
C12_4 C11_4 1_555 1_555
C13_4 C12_4 1_555 1_555
C15_4 C14_4 1_555 1_555
C16_4 C11_4 1_555 1_555
H9_4 C16_4 1_555 1_555
H11_4 C13_4 1_555 1_555
C13_4 C14_4 1_555 1_555
C15_4 C16_4 1_555 1_555
C1_4 C2_4 1_555 1_555
C2_4 C3_4 1_555 1_555
C3_4 C4_4 1_555 1_555
C4_4 C5_4 1_555 1_555
C5_4 C6_4 1_555 1_555
C6_4 C1_4 1_555 1_555
H2_4 C2_4 1_555 1_555
H4_4 C5_4 1_555 1_555

#END
