
###############################################################################
#
# This file contains modified crystal structure data generated from the
# MOF subset of the Cambridge Structural Database (CSD) v543 
# hosted by the Cambridge Crystallographic Data Centre (CCDC).
#
# This work is licensed under the Creative Commons
# Attribution-NonCommercial-ShareAlike 4.0 International License.
# To view a copy of this license, visit
# http://creativecommons.org/licenses/by-nc-sa/4.0/
# or send a letter to
# Creative Commons, PO Box 1866, Mountain View, CA 94042, USA.
#
# CIF created using the CSD Python API on 29 September 2022
# The structure has been converted into the P1 space group
# The structure has a 3D framework
# The original CSD entry MAFDII is in the orthorhombic crystal system
# The framework has been calculated to contain at least 10.0% void space
# The void calculation uses a probe of radius 1.32A, grid spacing 0.4
#
###############################################################################

data_MAFDII
_chemical_formula_moiety         '(C448 H256 In26 O184)n'
_symmetry_cell_setting           triclinic
_symmetry_space_group_name_H-M   'P 1'
_symmetry_Int_Tables_number      1
_space_group_name_Hall           'P 1'
loop_
_symmetry_equiv_pos_site_id
_symmetry_equiv_pos_as_xyz
1 x,y,z
_cell_length_a                   19.2396(9)
_cell_length_b                   20.3017(9)
_cell_length_c                   46.143(2)
_cell_angle_alpha                90
_cell_angle_beta                 90
_cell_angle_gamma                90
_cell_volume                     18023.3
loop_
_atom_site_label
_atom_site_type_symbol
_atom_site_fract_x
_atom_site_fract_y
_atom_site_fract_z
In4 In 0.2500 -0.0000 0.7500
In1 In 0.0000 0.5000 -0.0000
In2 In 0.1250 0.6250 0.013434(17)
O6 O 0.0998(3) 0.5256(3) 0.01301(13)
In5 In 0.2500 0.7500 -0.0000
O12 O 0.0414(4) 0.6446(3) 0.04350(14)
O13 O 0.2086(4) 0.6054(3) 0.04350(14)
O17 O 0.1502(3) 0.7244(3) 0.01301(13)
In1_2 In 0.0000 0.5000 1.0000
C1 C 0.0309(5) 0.6134(4) 0.95769(19)
C2 C 0.0283(5) 0.6444(5) 0.9278(2)
C4 C 0.0617(6) 0.7047(6) 0.9234(2)
H2 H 0.0839 0.7260 0.9387
C6 C 0.0613(7) 0.7323(7) 0.8961(3)
H4 H 0.0847 0.7716 0.8927
C7 C 0.0269(7) 0.7021(8) 0.8742(3)
C8 C 0.0744(8) 0.7651(8) 0.8353(3)
C9 C 0.1395(9) 0.7453(9) 0.8370(4)
H5 H 0.1507 0.7082 0.8479
C10 C 0.0565(7) 0.8216(8) 0.8203(3)
H6 H 0.0108 0.8364 0.8201
C11 C 0.1923(7) 0.7804(6) 0.8225(3)
H7 H 0.2382 0.7663 0.8234
C12 C 0.1067(6) 0.8553(6) 0.8060(2)
H8 H 0.0948 0.8923 0.7952
C13 C 0.1744(6) 0.8359(5) 0.8072(2)
C14 C 0.2296(5) 0.8733(4) 0.7904(2)
O1 O 0.0086(4) 0.5557(3) 0.96034(13)
O2 O 0.0543(4) 0.6474(3) 0.97818(14)
O3 O 0.0196(6) 0.7296(7) 0.8471(2)
O4 O 0.2914(4) 0.8554(3) 0.79350(14)
O5 O 0.2082(3) 0.9181(3) 0.77431(14)
In3 In 0.0000 0.2500 0.7500
In4_2 In 0.2500 1.0000 0.7500
In5_2 In 0.2500 0.7500 1.0000
In6 In 0.3750 0.8750 0.763434(17)
C15 C 0.2191(5) 0.6366(4) 0.95769(19)
C16 C 0.2217(5) 0.6056(5) 0.9278(2)
C17 C 0.2565(7) 0.6360(6) 0.9055(2)
H9 H 0.2782 0.6763 0.9086
C18 C 0.1883(6) 0.5453(6) 0.9234(2)
H10 H 0.1661 0.5240 0.9387
C19 C 0.2590(8) 0.6071(8) 0.8786(3)
H11 H 0.2841 0.6264 0.8637
C20 C 0.1887(7) 0.5177(7) 0.8961(3)
H12 H 0.1653 0.4784 0.8927
C21 C 0.2231(7) 0.5479(8) 0.8742(3)
C22 C 0.1756(8) 0.4849(8) 0.8353(3)
C23 C 0.1105(9) 0.5047(9) 0.8370(4)
H13 H 0.0993 0.5418 0.8479
C24 C 0.1935(7) 0.4284(8) 0.8203(3)
H14 H 0.2392 0.4136 0.8201
C25 C 0.0577(7) 0.4696(6) 0.8225(3)
H15 H 0.0118 0.4837 0.8234
C26 C 0.1433(6) 0.3947(6) 0.8060(2)
H16 H 0.1552 0.3577 0.7952
C27 C 0.0756(6) 0.4141(5) 0.8072(2)
C28 C 0.0204(5) 0.3767(4) 0.7904(2)
O7 O 0.2414(4) 0.6943(3) 0.96034(13)
O9 O 0.1957(4) 0.6026(3) 0.97818(14)
O10 O 0.2304(6) 0.5204(7) 0.8471(2)
O14 O 0.0418(3) 0.3319(3) 0.77431(14)
O15 O 0.0418(3) 0.4181(3) 0.97569(14)
In1_3 In 1.0000 0.5000 -0.0000
O8 O 0.9914(4) 0.4443(3) 0.03966(13)
O16 O 0.9582(3) 0.5819(3) 0.02431(14)
In1_4 In 1.0000 0.5000 1.0000
C3 C 0.9935(7) 0.6140(6) 0.9055(2)
H1 H 0.9718 0.5737 0.9086
C5 C 0.9910(8) 0.6429(8) 0.8786(3)
H3 H 0.9659 0.6236 0.8637
In3_2 In 1.0000 0.2500 0.7500
In7 In 0.8750 0.3750 0.763434(17)
O11 O 0.9586(4) 0.3946(3) 0.79350(14)
O18 O 0.9002(3) 0.4744(3) 0.98699(13)
In1_5 In 0.7500 0.2500 -0.0000
In2_2 In 0.6250 0.1250 0.013434(17)
O6_2 O 0.6502(3) 0.2244(3) 0.01301(13)
In5_3 In 0.5000 0.0000 -0.0000
O8_2 O 0.7586(4) 0.3057(3) 0.03966(13)
O12_2 O 0.7086(4) 0.1054(3) 0.04350(14)
O13_2 O 0.5414(4) 0.1446(3) 0.04350(14)
O16_2 O 0.7918(3) 0.1681(3) 0.02431(14)
O17_2 O 0.5998(3) 0.0256(3) 0.01301(13)
In1_6 In 0.7500 0.2500 1.0000
C1_2 C 0.7191(5) 0.1366(4) 0.95769(19)
C2_2 C 0.7217(5) 0.1056(5) 0.9278(2)
C3_2 C 0.7565(7) 0.1360(6) 0.9055(2)
H1_2 H 0.7782 0.1763 0.9086
C4_2 C 0.6883(6) 0.0453(6) 0.9234(2)
H2_2 H 0.6661 0.0240 0.9387
C5_2 C 0.7590(8) 0.1071(8) 0.8786(3)
H3_2 H 0.7841 0.1264 0.8637
C6_2 C 0.6887(7) 0.0177(7) 0.8961(3)
C7_2 C 0.7231(7) 0.0479(8) 0.8742(3)
C9_2 C 0.6105(9) 0.0047(9) 0.8370(4)
H5_2 H 0.5993 0.0418 0.8479
O1_2 O 0.7414(4) 0.1943(3) 0.96034(13)
O2_2 O 0.6957(4) 0.1026(3) 0.97818(14)
O3_2 O 0.7304(6) 0.0204(7) 0.8471(2)
In3_3 In 0.7500 0.5000 0.7500
In5_4 In 0.5000 0.0000 1.0000
C15_2 C 0.5309(5) 0.1134(4) 0.95769(19)
C16_2 C 0.5283(5) 0.1444(5) 0.9278(2)
C17_2 C 0.4935(7) 0.1140(6) 0.9055(2)
H9_2 H 0.4718 0.0737 0.9086
C18_2 C 0.5617(6) 0.2047(6) 0.9234(2)
H10_2 H 0.5839 0.2260 0.9387
C19_2 C 0.4910(8) 0.1429(8) 0.8786(3)
H11_2 H 0.4659 0.1236 0.8637
C20_2 C 0.5613(7) 0.2323(7) 0.8961(3)
H12_2 H 0.5847 0.2716 0.8927
C21_2 C 0.5269(7) 0.2021(8) 0.8742(3)
C22_2 C 0.5744(8) 0.2651(8) 0.8353(3)
C23_2 C 0.6395(9) 0.2453(9) 0.8370(4)
H13_2 H 0.6507 0.2082 0.8479
C24_2 C 0.5565(7) 0.3216(8) 0.8203(3)
H14_2 H 0.5108 0.3364 0.8201
C25_2 C 0.6923(7) 0.2804(6) 0.8225(3)
H15_2 H 0.7382 0.2663 0.8234
C26_2 C 0.6067(6) 0.3553(6) 0.8060(2)
H16_2 H 0.5948 0.3923 0.7952
C27_2 C 0.6744(6) 0.3359(5) 0.8072(2)
C28_2 C 0.7296(5) 0.3733(4) 0.7904(2)
O7_2 O 0.5086(4) 0.0557(3) 0.96034(13)
O9_2 O 0.5543(4) 0.1474(3) 0.97818(14)
O10_2 O 0.5196(6) 0.2296(7) 0.8471(2)
O11_2 O 0.7914(4) 0.3554(3) 0.79350(14)
O14_2 O 0.7082(3) 0.4181(3) 0.77431(14)
O15_2 O 0.7082(3) 0.3319(3) 0.97569(14)
O18_2 O 0.8498(3) 0.2756(3) 0.98699(13)
In5_5 In 0.5000 1.0000 -0.0000
H4_2 H 0.6653 0.9784 0.8927
C8_2 C 0.6756(8) 0.9849(8) 0.8353(3)
C10_2 C 0.6935(7) 0.9284(8) 0.8203(3)
H6_2 H 0.7392 0.9136 0.8201
C11_2 C 0.5577(7) 0.9696(6) 0.8225(3)
H7_2 H 0.5118 0.9837 0.8234
C12_2 C 0.6433(6) 0.8947(6) 0.8060(2)
H8_2 H 0.6552 0.8577 0.7952
C13_2 C 0.5756(6) 0.9141(5) 0.8072(2)
C14_2 C 0.5204(5) 0.8767(4) 0.7904(2)
O4_2 O 0.4586(4) 0.8946(3) 0.79350(14)
O5_2 O 0.5418(3) 0.8319(3) 0.77431(14)
In4_3 In 0.5000 0.7500 0.7500
In5_6 In 0.5000 1.0000 1.0000
In2_3 In 0.6250 0.6250 0.736566(17)
C1_3 C 0.7191(5) 0.6134(4) 0.79231(19)
C2_3 C 0.7217(5) 0.6444(5) 0.8222(2)
C3_3 C 0.7565(7) 0.6140(6) 0.8445(2)
H1_3 H 0.7782 0.5737 0.8414
C4_3 C 0.6883(6) 0.7047(6) 0.8266(2)
H2_3 H 0.6661 0.7260 0.8113
C5_3 C 0.7590(8) 0.6429(8) 0.8714(3)
H3_3 H 0.7841 0.6236 0.8863
C6_3 C 0.6887(7) 0.7323(7) 0.8539(3)
H4_3 H 0.6653 0.7716 0.8573
C7_3 C 0.7231(7) 0.7021(8) 0.8758(3)
C8_3 C 0.6756(8) 0.7651(8) 0.9147(3)
C9_3 C 0.6105(9) 0.7453(9) 0.9130(4)
H5_3 H 0.5993 0.7082 0.9021
C10_3 C 0.6935(7) 0.8216(8) 0.9297(3)
H6_3 H 0.7392 0.8364 0.9299
C11_3 C 0.5577(7) 0.7804(6) 0.9275(3)
H7_3 H 0.5118 0.7663 0.9266
C12_3 C 0.6433(6) 0.8553(6) 0.9440(2)
H8_3 H 0.6552 0.8923 0.9548
C13_3 C 0.5756(6) 0.8359(5) 0.9428(2)
C14_3 C 0.5204(5) 0.8733(4) 0.9596(2)
O1_3 O 0.7414(4) 0.5557(3) 0.78966(13)
O2_3 O 0.6957(4) 0.6474(3) 0.77182(14)
O3_3 O 0.7304(6) 0.7296(7) 0.9029(2)
O4_3 O 0.4586(4) 0.8554(3) 0.95650(14)
O5_3 O 0.5418(3) 0.9181(3) 0.97569(14)
O6_3 O 0.6502(3) 0.5256(3) 0.73699(13)
In6_2 In 0.3750 0.8750 0.986566(17)
In7_2 In 0.8750 0.3750 0.986566(17)
C15_3 C 0.5309(5) 0.6366(4) 0.79231(19)
C16_3 C 0.5283(5) 0.6056(5) 0.8222(2)
C17_3 C 0.4935(7) 0.6360(6) 0.8445(2)
H9_3 H 0.4718 0.6763 0.8414
C18_3 C 0.5617(6) 0.5453(6) 0.8266(2)
H10_3 H 0.5839 0.5240 0.8113
C19_3 C 0.4910(8) 0.6071(8) 0.8714(3)
H11_3 H 0.4659 0.6264 0.8863
C20_3 C 0.5613(7) 0.5177(7) 0.8539(3)
H12_3 H 0.5847 0.4784 0.8573
C21_3 C 0.5269(7) 0.5479(8) 0.8758(3)
C22_3 C 0.5744(8) 0.4849(8) 0.9147(3)
C23_3 C 0.6395(9) 0.5047(9) 0.9130(4)
H13_3 H 0.6507 0.5418 0.9021
C24_3 C 0.5565(7) 0.4284(8) 0.9297(3)
H14_3 H 0.5108 0.4136 0.9299
C25_3 C 0.6923(7) 0.4696(6) 0.9275(3)
H15_3 H 0.7382 0.4837 0.9266
C26_3 C 0.6067(6) 0.3947(6) 0.9440(2)
H16_3 H 0.5948 0.3577 0.9548
C27_3 C 0.6744(6) 0.4141(5) 0.9428(2)
C28_3 C 0.7296(5) 0.3767(4) 0.9596(2)
O7_3 O 0.5086(4) 0.6943(3) 0.78966(13)
O8_3 O 0.7586(4) 0.4443(3) 0.71034(13)
O9_3 O 0.5543(4) 0.6026(3) 0.77182(14)
O10_3 O 0.5196(6) 0.5204(7) 0.9029(2)
O11_3 O 0.7914(4) 0.3946(3) 0.95650(14)
O12_3 O 0.7086(4) 0.6446(3) 0.70650(14)
O13_3 O 0.5414(4) 0.6054(3) 0.70650(14)
O16_3 O 0.7918(3) 0.5819(3) 0.72569(14)
O17_3 O 0.5998(3) 0.7244(3) 0.73699(13)
O18_3 O 0.8498(3) 0.4744(3) 0.76301(13)
In2_4 In 0.1250 0.1250 0.736566(17)
C1_4 C 0.0309(5) 0.1366(4) 0.79231(19)
C2_4 C 0.0283(5) 0.1056(5) 0.8222(2)
C4_4 C 0.0617(6) 0.0453(6) 0.8266(2)
H2_4 H 0.0839 0.0240 0.8113
C6_4 C 0.0613(7) 0.0177(7) 0.8539(3)
C7_4 C 0.0269(7) 0.0479(8) 0.8758(3)
C9_4 C 0.1395(9) 0.0047(9) 0.9130(4)
H5_4 H 0.1507 0.0418 0.9021
O1_4 O 0.0086(4) 0.1943(3) 0.78966(13)
O2_4 O 0.0543(4) 0.1026(3) 0.77182(14)
O3_4 O 0.0196(6) 0.0204(7) 0.9029(2)
O6_4 O 0.0998(3) 0.2244(3) 0.73699(13)
C15_4 C 0.2191(5) 0.1134(4) 0.79231(19)
C16_4 C 0.2217(5) 0.1444(5) 0.8222(2)
C17_4 C 0.2565(7) 0.1140(6) 0.8445(2)
H9_4 H 0.2782 0.0737 0.8414
C18_4 C 0.1883(6) 0.2047(6) 0.8266(2)
H10_4 H 0.1661 0.2260 0.8113
C19_4 C 0.2590(8) 0.1429(8) 0.8714(3)
H11_4 H 0.2841 0.1236 0.8863
C20_4 C 0.1887(7) 0.2323(7) 0.8539(3)
H12_4 H 0.1653 0.2716 0.8573
C21_4 C 0.2231(7) 0.2021(8) 0.8758(3)
C22_4 C 0.1756(8) 0.2651(8) 0.9147(3)
C23_4 C 0.1105(9) 0.2453(9) 0.9130(4)
H13_4 H 0.0993 0.2082 0.9021
C24_4 C 0.1935(7) 0.3216(8) 0.9297(3)
H14_4 H 0.2392 0.3364 0.9299
C25_4 C 0.0577(7) 0.2804(6) 0.9275(3)
H15_4 H 0.0118 0.2663 0.9266
C26_4 C 0.1433(6) 0.3553(6) 0.9440(2)
H16_4 H 0.1552 0.3923 0.9548
C27_4 C 0.0756(6) 0.3359(5) 0.9428(2)
C28_4 C 0.0204(5) 0.3733(4) 0.9596(2)
O7_4 O 0.2414(4) 0.0557(3) 0.78966(13)
O9_4 O 0.1957(4) 0.1474(3) 0.77182(14)
O10_4 O 0.2304(6) 0.2296(7) 0.9029(2)
O12_4 O 0.0414(4) 0.1054(3) 0.70650(14)
O13_4 O 0.2086(4) 0.1446(3) 0.70650(14)
O17_4 O 0.1502(3) 0.0256(3) 0.73699(13)
H4_4 H 0.0847 0.9784 0.8573
C8_4 C 0.0744(8) 0.9849(8) 0.9147(3)
C10_4 C 0.0565(7) 0.9284(8) 0.9297(3)
H6_4 H 0.0108 0.9136 0.9299
C11_4 C 0.1923(7) 0.9696(6) 0.9275(3)
H7_4 H 0.2382 0.9837 0.9266
C12_4 C 0.1067(6) 0.8947(6) 0.9440(2)
H8_4 H 0.0948 0.8577 0.9548
C13_4 C 0.1744(6) 0.9141(5) 0.9428(2)
C14_4 C 0.2296(5) 0.8767(4) 0.9596(2)
O4_4 O 0.2914(4) 0.8946(3) 0.95650(14)
O5_4 O 0.2082(3) 0.8319(3) 0.97569(14)
C3_4 C 0.9935(7) 0.1360(6) 0.8445(2)
H1_4 H 0.9718 0.1763 0.8414
C5_4 C 0.9910(8) 0.1071(8) 0.8714(3)
H3_4 H 0.9659 0.1264 0.8863
O8_4 O 0.9914(4) 0.3057(3) 0.71034(13)
O11_4 O 0.9586(4) 0.3554(3) 0.95650(14)
O16_4 O 0.9582(3) 0.1681(3) 0.72569(14)
O18_4 O 0.9002(3) 0.2756(3) 0.76301(13)
In1_7 In -0.0000 -0.0000 0.5000
In2_5 In 0.1250 0.1250 0.513434(17)
C1_5 C 0.0309(5) 0.1134(4) 0.45769(19)
C2_5 C 0.0283(5) 0.1444(5) 0.4278(2)
C4_5 C 0.0617(6) 0.2047(6) 0.4234(2)
H2_5 H 0.0839 0.2260 0.4387
C6_5 C 0.0613(7) 0.2323(7) 0.3961(3)
H4_5 H 0.0847 0.2716 0.3927
C7_5 C 0.0269(7) 0.2021(8) 0.3742(3)
C8_5 C 0.0744(8) 0.2651(8) 0.3353(3)
C9_5 C 0.1395(9) 0.2453(9) 0.3370(4)
H5_5 H 0.1507 0.2082 0.3479
C10_5 C 0.0565(7) 0.3216(8) 0.3203(3)
H6_5 H 0.0108 0.3364 0.3201
C11_5 C 0.1923(7) 0.2804(6) 0.3225(3)
H7_5 H 0.2382 0.2663 0.3234
C12_5 C 0.1067(6) 0.3553(6) 0.3060(2)
H8_5 H 0.0948 0.3923 0.2952
C13_5 C 0.1744(6) 0.3359(5) 0.3072(2)
C14_5 C 0.2296(5) 0.3733(4) 0.2904(2)
O1_5 O 0.0086(4) 0.0557(3) 0.46034(13)
O2_5 O 0.0543(4) 0.1474(3) 0.47818(14)
O3_5 O 0.0196(6) 0.2296(7) 0.3471(2)
O4_5 O 0.2914(4) 0.3554(3) 0.29350(14)
O5_5 O 0.2082(3) 0.4181(3) 0.27431(14)
O6_5 O 0.0998(3) 0.0256(3) 0.51301(13)
In4_4 In 0.2500 0.5000 0.2500
In5_7 In 0.2500 0.2500 0.5000
In6_3 In 0.3750 0.3750 0.263434(17)
C15_5 C 0.2191(5) 0.1366(4) 0.45769(19)
C16_5 C 0.2217(5) 0.1056(5) 0.4278(2)
C17_5 C 0.2565(7) 0.1360(6) 0.4055(2)
H9_5 H 0.2782 0.1763 0.4086
C18_5 C 0.1883(6) 0.0453(6) 0.4234(2)
H10_5 H 0.1661 0.0240 0.4387
C19_5 C 0.2590(8) 0.1071(8) 0.3786(3)
H11_5 H 0.2841 0.1264 0.3637
C20_5 C 0.1887(7) 0.0177(7) 0.3961(3)
C21_5 C 0.2231(7) 0.0479(8) 0.3742(3)
C23_5 C 0.1105(9) 0.0047(9) 0.3370(4)
H13_5 H 0.0993 0.0418 0.3479
O7_5 O 0.2414(4) 0.1943(3) 0.46034(13)
O9_5 O 0.1957(4) 0.1026(3) 0.47818(14)
O10_5 O 0.2304(6) 0.0204(7) 0.3471(2)
O12_5 O 0.0414(4) 0.1446(3) 0.54350(14)
O13_5 O 0.2086(4) 0.1054(3) 0.54350(14)
O17_5 O 0.1502(3) 0.2244(3) 0.51301(13)
In1_8 In 0.0000 1.0000 0.5000
In3_4 In 0.0000 0.7500 0.2500
H12_5 H 0.1653 0.9784 0.3927
C22_5 C 0.1756(8) 0.9849(8) 0.3353(3)
C24_5 C 0.1935(7) 0.9284(8) 0.3203(3)
H14_5 H 0.2392 0.9136 0.3201
C25_5 C 0.0577(7) 0.9696(6) 0.3225(3)
H15_5 H 0.0118 0.9837 0.3234
C26_5 C 0.1433(6) 0.8947(6) 0.3060(2)
H16_5 H 0.1552 0.8577 0.2952
C27_5 C 0.0756(6) 0.9141(5) 0.3072(2)
C28_5 C 0.0204(5) 0.8767(4) 0.2904(2)
O14_3 O 0.0418(3) 0.8319(3) 0.27431(14)
O15_3 O 0.0418(3) 0.9181(3) 0.47569(14)
In1_9 In 1.0000 -0.0000 0.5000
C3_5 C 0.9935(7) 0.1140(6) 0.4055(2)
H1_5 H 0.9718 0.0737 0.4086
C5_5 C 0.9910(8) 0.1429(8) 0.3786(3)
H3_5 H 0.9659 0.1236 0.3637
O16_5 O 0.9582(3) 0.0819(3) 0.52431(14)
In1_10 In 1.0000 1.0000 0.5000
In3_5 In 1.0000 0.7500 0.2500
In7_3 In 0.8750 0.8750 0.263434(17)
O8_5 O 0.9914(4) 0.9443(3) 0.53966(13)
O11_5 O 0.9586(4) 0.8946(3) 0.29350(14)
O18_5 O 0.9002(3) 0.9744(3) 0.48699(13)
In3_6 In 0.7500 0.0000 0.2500
In1_11 In 0.7500 0.7500 0.5000
In2_6 In 0.6250 0.6250 0.513434(17)
C1_6 C 0.7191(5) 0.6366(4) 0.45769(19)
C2_6 C 0.7217(5) 0.6056(5) 0.4278(2)
C3_6 C 0.7565(7) 0.6360(6) 0.4055(2)
H1_6 H 0.7782 0.6763 0.4086
C4_6 C 0.6883(6) 0.5453(6) 0.4234(2)
H2_6 H 0.6661 0.5240 0.4387
C5_6 C 0.7590(8) 0.6071(8) 0.3786(3)
H3_6 H 0.7841 0.6264 0.3637
C6_6 C 0.6887(7) 0.5177(7) 0.3961(3)
H4_6 H 0.6653 0.4784 0.3927
C7_6 C 0.7231(7) 0.5479(8) 0.3742(3)
C8_6 C 0.6756(8) 0.4849(8) 0.3353(3)
C9_6 C 0.6105(9) 0.5047(9) 0.3370(4)
H5_6 H 0.5993 0.5418 0.3479
C10_6 C 0.6935(7) 0.4284(8) 0.3203(3)
H6_6 H 0.7392 0.4136 0.3201
C11_6 C 0.5577(7) 0.4696(6) 0.3225(3)
H7_6 H 0.5118 0.4837 0.3234
C12_6 C 0.6433(6) 0.3947(6) 0.3060(2)
H8_6 H 0.6552 0.3577 0.2952
C13_6 C 0.5756(6) 0.4141(5) 0.3072(2)
C14_6 C 0.5204(5) 0.3767(4) 0.2904(2)
O1_6 O 0.7414(4) 0.6943(3) 0.46034(13)
O2_6 O 0.6957(4) 0.6026(3) 0.47818(14)
O3_6 O 0.7304(6) 0.5204(7) 0.3471(2)
O4_6 O 0.4586(4) 0.3946(3) 0.29350(14)
O5_6 O 0.5418(3) 0.3319(3) 0.27431(14)
O6_6 O 0.6502(3) 0.7244(3) 0.51301(13)
In3_7 In 0.7500 1.0000 0.2500
In4_5 In 0.5000 0.2500 0.2500
In5_8 In 0.5000 0.5000 0.5000
C15_6 C 0.5309(5) 0.6134(4) 0.45769(19)
C16_6 C 0.5283(5) 0.6444(5) 0.4278(2)
C17_6 C 0.4935(7) 0.6140(6) 0.4055(2)
H9_6 H 0.4718 0.5737 0.4086
C18_6 C 0.5617(6) 0.7047(6) 0.4234(2)
H10_6 H 0.5839 0.7260 0.4387
C19_6 C 0.4910(8) 0.6429(8) 0.3786(3)
H11_6 H 0.4659 0.6236 0.3637
C20_6 C 0.5613(7) 0.7323(7) 0.3961(3)
H12_6 H 0.5847 0.7716 0.3927
C21_6 C 0.5269(7) 0.7021(8) 0.3742(3)
C22_6 C 0.5744(8) 0.7651(8) 0.3353(3)
C23_6 C 0.6395(9) 0.7453(9) 0.3370(4)
H13_6 H 0.6507 0.7082 0.3479
C24_6 C 0.5565(7) 0.8216(8) 0.3203(3)
H14_6 H 0.5108 0.8364 0.3201
C25_6 C 0.6923(7) 0.7804(6) 0.3225(3)
H15_6 H 0.7382 0.7663 0.3234
C26_6 C 0.6067(6) 0.8553(6) 0.3060(2)
H16_6 H 0.5948 0.8923 0.2952
C27_6 C 0.6744(6) 0.8359(5) 0.3072(2)
C28_6 C 0.7296(5) 0.8733(4) 0.2904(2)
O7_6 O 0.5086(4) 0.5557(3) 0.46034(13)
O8_6 O 0.7586(4) 0.8057(3) 0.53966(13)
O9_6 O 0.5543(4) 0.6474(3) 0.47818(14)
O10_6 O 0.5196(6) 0.7296(7) 0.3471(2)
O11_6 O 0.7914(4) 0.8554(3) 0.29350(14)
O12_6 O 0.7086(4) 0.6054(3) 0.54350(14)
O13_6 O 0.5414(4) 0.6446(3) 0.54350(14)
O14_4 O 0.7082(3) 0.9181(3) 0.27431(14)
O15_4 O 0.7082(3) 0.8319(3) 0.47569(14)
O16_6 O 0.7918(3) 0.6681(3) 0.52431(14)
O17_6 O 0.5998(3) 0.5256(3) 0.51301(13)
O18_6 O 0.8498(3) 0.7756(3) 0.48699(13)
In2_7 In 0.6250 0.1250 0.236566(17)
C1_7 C 0.7191(5) 0.1134(4) 0.29231(19)
C2_7 C 0.7217(5) 0.1444(5) 0.3222(2)
C3_7 C 0.7565(7) 0.1140(6) 0.3445(2)
H1_7 H 0.7782 0.0737 0.3414
C4_7 C 0.6883(6) 0.2047(6) 0.3266(2)
H2_7 H 0.6661 0.2260 0.3113
C5_7 C 0.7590(8) 0.1429(8) 0.3714(3)
H3_7 H 0.7841 0.1236 0.3863
C6_7 C 0.6887(7) 0.2323(7) 0.3539(3)
H4_7 H 0.6653 0.2716 0.3573
C7_7 C 0.7231(7) 0.2021(8) 0.3758(3)
C8_7 C 0.6756(8) 0.2651(8) 0.4147(3)
C9_7 C 0.6105(9) 0.2453(9) 0.4130(4)
H5_7 H 0.5993 0.2082 0.4021
C10_7 C 0.6935(7) 0.3216(8) 0.4297(3)
H6_7 H 0.7392 0.3364 0.4299
C11_7 C 0.5577(7) 0.2804(6) 0.4275(3)
H7_7 H 0.5118 0.2663 0.4266
C12_7 C 0.6433(6) 0.3553(6) 0.4440(2)
H8_7 H 0.6552 0.3923 0.4548
C13_7 C 0.5756(6) 0.3359(5) 0.4428(2)
C14_7 C 0.5204(5) 0.3733(4) 0.4596(2)
O1_7 O 0.7414(4) 0.0557(3) 0.28966(13)
O2_7 O 0.6957(4) 0.1474(3) 0.27182(14)
O3_7 O 0.7304(6) 0.2296(7) 0.4029(2)
O4_7 O 0.4586(4) 0.3554(3) 0.45650(14)
O5_7 O 0.5418(3) 0.4181(3) 0.47569(14)
O6_7 O 0.6502(3) 0.0256(3) 0.23699(13)
In6_4 In 0.3750 0.3750 0.486566(17)
C15_7 C 0.5309(5) 0.1366(4) 0.29231(19)
C16_7 C 0.5283(5) 0.1056(5) 0.3222(2)
C17_7 C 0.4935(7) 0.1360(6) 0.3445(2)
H9_7 H 0.4718 0.1763 0.3414
C18_7 C 0.5617(6) 0.0453(6) 0.3266(2)
H10_7 H 0.5839 0.0240 0.3113
C19_7 C 0.4910(8) 0.1071(8) 0.3714(3)
H11_7 H 0.4659 0.1264 0.3863
C20_7 C 0.5613(7) 0.0177(7) 0.3539(3)
C21_7 C 0.5269(7) 0.0479(8) 0.3758(3)
C23_7 C 0.6395(9) 0.0047(9) 0.4130(4)
H13_7 H 0.6507 0.0418 0.4021
O7_7 O 0.5086(4) 0.1943(3) 0.28966(13)
O9_7 O 0.5543(4) 0.1026(3) 0.27182(14)
O10_7 O 0.5196(6) 0.0204(7) 0.4029(2)
O12_7 O 0.7086(4) 0.1446(3) 0.20650(14)
O13_7 O 0.5414(4) 0.1054(3) 0.20650(14)
O16_7 O 0.7918(3) 0.0819(3) 0.22569(14)
O17_7 O 0.5998(3) 0.2244(3) 0.23699(13)
In7_4 In 0.8750 0.8750 0.486566(17)
H12_7 H 0.5847 0.9784 0.3573
C22_7 C 0.5744(8) 0.9849(8) 0.4147(3)
C24_7 C 0.5565(7) 0.9284(8) 0.4297(3)
H14_7 H 0.5108 0.9136 0.4299
C25_7 C 0.6923(7) 0.9696(6) 0.4275(3)
H15_7 H 0.7382 0.9837 0.4266
C26_7 C 0.6067(6) 0.8947(6) 0.4440(2)
H16_7 H 0.5948 0.8577 0.4548
C27_7 C 0.6744(6) 0.9141(5) 0.4428(2)
C28_7 C 0.7296(5) 0.8767(4) 0.4596(2)
O8_7 O 0.7586(4) 0.9443(3) 0.21034(13)
O11_7 O 0.7914(4) 0.8946(3) 0.45650(14)
O18_7 O 0.8498(3) 0.9744(3) 0.26301(13)
In2_8 In 0.1250 0.6250 0.236566(17)
C1_8 C 0.0309(5) 0.6366(4) 0.29231(19)
C2_8 C 0.0283(5) 0.6056(5) 0.3222(2)
C4_8 C 0.0617(6) 0.5453(6) 0.3266(2)
H2_8 H 0.0839 0.5240 0.3113
C6_8 C 0.0613(7) 0.5177(7) 0.3539(3)
H4_8 H 0.0847 0.4784 0.3573
C7_8 C 0.0269(7) 0.5479(8) 0.3758(3)
C8_8 C 0.0744(8) 0.4849(8) 0.4147(3)
C9_8 C 0.1395(9) 0.5047(9) 0.4130(4)
H5_8 H 0.1507 0.5418 0.4021
C10_8 C 0.0565(7) 0.4284(8) 0.4297(3)
H6_8 H 0.0108 0.4136 0.4299
C11_8 C 0.1923(7) 0.4696(6) 0.4275(3)
H7_8 H 0.2382 0.4837 0.4266
C12_8 C 0.1067(6) 0.3947(6) 0.4440(2)
H8_8 H 0.0948 0.3577 0.4548
C13_8 C 0.1744(6) 0.4141(5) 0.4428(2)
C14_8 C 0.2296(5) 0.3767(4) 0.4596(2)
O1_8 O 0.0086(4) 0.6943(3) 0.28966(13)
O2_8 O 0.0543(4) 0.6026(3) 0.27182(14)
O3_8 O 0.0196(6) 0.5204(7) 0.4029(2)
O4_8 O 0.2914(4) 0.3946(3) 0.45650(14)
O5_8 O 0.2082(3) 0.3319(3) 0.47569(14)
O6_8 O 0.0998(3) 0.7244(3) 0.23699(13)
C15_8 C 0.2191(5) 0.6134(4) 0.29231(19)
C16_8 C 0.2217(5) 0.6444(5) 0.3222(2)
C17_8 C 0.2565(7) 0.6140(6) 0.3445(2)
H9_8 H 0.2782 0.5737 0.3414
C18_8 C 0.1883(6) 0.7047(6) 0.3266(2)
H10_8 H 0.1661 0.7260 0.3113
C19_8 C 0.2590(8) 0.6429(8) 0.3714(3)
H11_8 H 0.2841 0.6236 0.3863
C20_8 C 0.1887(7) 0.7323(7) 0.3539(3)
H12_8 H 0.1653 0.7716 0.3573
C21_8 C 0.2231(7) 0.7021(8) 0.3758(3)
C22_8 C 0.1756(8) 0.7651(8) 0.4147(3)
C23_8 C 0.1105(9) 0.7453(9) 0.4130(4)
H13_8 H 0.0993 0.7082 0.4021
C24_8 C 0.1935(7) 0.8216(8) 0.4297(3)
H14_8 H 0.2392 0.8364 0.4299
C25_8 C 0.0577(7) 0.7804(6) 0.4275(3)
H15_8 H 0.0118 0.7663 0.4266
C26_8 C 0.1433(6) 0.8553(6) 0.4440(2)
H16_8 H 0.1552 0.8923 0.4548
C27_8 C 0.0756(6) 0.8359(5) 0.4428(2)
C28_8 C 0.0204(5) 0.8733(4) 0.4596(2)
O7_8 O 0.2414(4) 0.5557(3) 0.28966(13)
O9_8 O 0.1957(4) 0.6474(3) 0.27182(14)
O10_8 O 0.2304(6) 0.7296(7) 0.4029(2)
O12_8 O 0.0414(4) 0.6054(3) 0.20650(14)
O13_8 O 0.2086(4) 0.6446(3) 0.20650(14)
O17_8 O 0.1502(3) 0.5256(3) 0.23699(13)
C3_8 C 0.9935(7) 0.6360(6) 0.3445(2)
H1_8 H 0.9718 0.6763 0.3414
C5_8 C 0.9910(8) 0.6071(8) 0.3714(3)
H3_8 H 0.9659 0.6264 0.3863
O8_8 O 0.9914(4) 0.8057(3) 0.21034(13)
O11_8 O 0.9586(4) 0.8554(3) 0.45650(14)
O16_8 O 0.9582(3) 0.6681(3) 0.22569(14)
O18_8 O 0.9002(3) 0.7756(3) 0.26301(13)
O8_9 O 0.4914(4) 0.4443(3) 0.53966(13)
O16_9 O 0.4582(3) 0.5819(3) 0.52431(14)
O18_9 O 0.4002(3) 0.4744(3) 0.48699(13)
O8_10 O 0.2586(4) 0.3057(3) 0.53966(13)
O16_10 O 0.2918(3) 0.1681(3) 0.52431(14)
O18_10 O 0.3498(3) 0.2756(3) 0.48699(13)
O8_11 O 0.2586(4) 0.4443(3) 0.21034(13)
O16_11 O 0.2918(3) 0.5819(3) 0.22569(14)
O18_11 O 0.3498(3) 0.4744(3) 0.26301(13)
O8_12 O 0.4914(4) 0.3057(3) 0.21034(13)
O16_12 O 0.4582(3) 0.1681(3) 0.22569(14)
O18_12 O 0.4002(3) 0.2756(3) 0.26301(13)
O16_13 O 0.4582(3) 0.0819(3) 0.02431(14)
O8_13 O 0.4914(4) 0.9443(3) 0.03966(13)
O18_13 O 0.4002(3) 0.9744(3) 0.98699(13)
O8_14 O 0.2586(4) 0.8057(3) 0.03966(13)
O16_14 O 0.2918(3) 0.6681(3) 0.02431(14)
O18_14 O 0.3498(3) 0.7756(3) 0.98699(13)
O16_15 O 0.2918(3) 0.0819(3) 0.72569(14)
O8_15 O 0.2586(4) 0.9443(3) 0.71034(13)
O18_15 O 0.3498(3) 0.9744(3) 0.76301(13)
O8_16 O 0.4914(4) 0.8057(3) 0.71034(13)
O16_16 O 0.4582(3) 0.6681(3) 0.72569(14)
O18_16 O 0.4002(3) 0.7756(3) 0.76301(13)
C3_9 C 0.0065(7) 0.3860(6) 0.0945(2)
H1_9 H 0.0282 0.4263 0.0914
C5_9 C 0.0090(8) 0.3571(8) 0.1214(3)
H3_9 H 0.0341 0.3764 0.1363
C1_9 C 0.9691(5) 0.3866(4) 0.04231(19)
C2_9 C 0.9717(5) 0.3556(5) 0.0722(2)
C4_9 C 0.9383(6) 0.2953(6) 0.0766(2)
H2_9 H 0.9161 0.2740 0.0613
C6_9 C 0.9387(7) 0.2677(7) 0.1039(3)
H4_9 H 0.9153 0.2284 0.1073
C7_9 C 0.9731(7) 0.2979(8) 0.1258(3)
C8_9 C 0.9256(8) 0.2349(8) 0.1647(3)
C9_9 C 0.8605(9) 0.2547(9) 0.1630(4)
H5_9 H 0.8493 0.2918 0.1521
C10_9 C 0.9435(7) 0.1784(8) 0.1797(3)
H6_9 H 0.9892 0.1636 0.1799
C11_9 C 0.8077(7) 0.2196(6) 0.1775(3)
H7_9 H 0.7618 0.2337 0.1766
C12_9 C 0.8933(6) 0.1447(6) 0.1940(2)
H8_9 H 0.9052 0.1077 0.2048
C13_9 C 0.8256(6) 0.1641(5) 0.1928(2)
C14_9 C 0.7704(5) 0.1267(4) 0.2096(2)
O2_9 O 0.9457(4) 0.3526(3) 0.02182(14)
O3_9 O 0.9804(6) 0.2704(7) 0.1529(2)
C15_9 C 0.7809(5) 0.3634(4) 0.04231(19)
C16_9 C 0.7783(5) 0.3944(5) 0.0722(2)
C17_9 C 0.7435(7) 0.3640(6) 0.0945(2)
H9_9 H 0.7218 0.3237 0.0914
C18_9 C 0.8117(6) 0.4547(6) 0.0766(2)
H10_9 H 0.8339 0.4760 0.0613
C19_9 C 0.7410(8) 0.3929(8) 0.1214(3)
H11_9 H 0.7159 0.3736 0.1363
C20_9 C 0.8113(7) 0.4823(7) 0.1039(3)
H12_9 H 0.8347 0.5216 0.1073
C21_9 C 0.7769(7) 0.4521(8) 0.1258(3)
C22_9 C 0.8244(8) 0.5151(8) 0.1647(3)
C23_9 C 0.8895(9) 0.4953(9) 0.1630(4)
H13_9 H 0.9007 0.4582 0.1521
C24_9 C 0.8065(7) 0.5716(8) 0.1797(3)
H14_9 H 0.7608 0.5864 0.1799
C25_9 C 0.9423(7) 0.5304(6) 0.1775(3)
H15_9 H 0.9882 0.5163 0.1766
C26_9 C 0.8567(6) 0.6053(6) 0.1940(2)
H16_9 H 0.8448 0.6423 0.2048
C27_9 C 0.9244(6) 0.5859(5) 0.1928(2)
C28_9 C 0.9796(5) 0.6233(4) 0.2096(2)
O9_9 O 0.8043(4) 0.3974(3) 0.02182(14)
O10_9 O 0.7696(6) 0.4796(7) 0.1529(2)
H4_10 H 0.3347 0.0216 0.1073
C8_10 C 0.3244(8) 0.0151(8) 0.1647(3)
C10_10 C 0.3065(7) 0.0716(8) 0.1797(3)
H6_10 H 0.2608 0.0864 0.1799
C11_10 C 0.4423(7) 0.0304(6) 0.1775(3)
H7_10 H 0.4882 0.0163 0.1766
C12_10 C 0.3567(6) 0.1053(6) 0.1940(2)
H8_10 H 0.3448 0.1423 0.2048
C13_10 C 0.4244(6) 0.0859(5) 0.1928(2)
C14_10 C 0.4796(5) 0.1233(4) 0.2096(2)
C1_10 C 0.2809(5) 0.8634(4) 0.04231(19)
C2_10 C 0.2783(5) 0.8944(5) 0.0722(2)
C3_10 C 0.2435(7) 0.8640(6) 0.0945(2)
H1_10 H 0.2218 0.8237 0.0914
C4_10 C 0.3117(6) 0.9547(6) 0.0766(2)
H2_10 H 0.3339 0.9760 0.0613
C5_10 C 0.2410(8) 0.8929(8) 0.1214(3)
H3_10 H 0.2159 0.8736 0.1363
C6_10 C 0.3113(7) 0.9823(7) 0.1039(3)
C7_10 C 0.2769(7) 0.9521(8) 0.1258(3)
C9_10 C 0.3895(9) 0.9953(9) 0.1630(4)
H5_10 H 0.4007 0.9582 0.1521
O2_10 O 0.3043(4) 0.8974(3) 0.02182(14)
O3_10 O 0.2696(6) 0.9796(7) 0.1529(2)
C15_10 C 0.4691(5) 0.8866(4) 0.04231(19)
C16_10 C 0.4717(5) 0.8556(5) 0.0722(2)
C17_10 C 0.5065(7) 0.8860(6) 0.0945(2)
H9_10 H 0.5282 0.9263 0.0914
C18_10 C 0.4383(6) 0.7953(6) 0.0766(2)
H10_10 H 0.4161 0.7740 0.0613
C19_10 C 0.5090(8) 0.8571(8) 0.1214(3)
H11_10 H 0.5341 0.8764 0.1363
C20_10 C 0.4387(7) 0.7677(7) 0.1039(3)
H12_10 H 0.4153 0.7284 0.1073
C21_10 C 0.4731(7) 0.7979(8) 0.1258(3)
C22_10 C 0.4256(8) 0.7349(8) 0.1647(3)
C23_10 C 0.3605(9) 0.7547(9) 0.1630(4)
H13_10 H 0.3493 0.7918 0.1521
C24_10 C 0.4435(7) 0.6784(8) 0.1797(3)
H14_10 H 0.4892 0.6636 0.1799
C25_10 C 0.3077(7) 0.7196(6) 0.1775(3)
H15_10 H 0.2618 0.7337 0.1766
C26_10 C 0.3933(6) 0.6447(6) 0.1940(2)
H16_10 H 0.4052 0.6077 0.2048
C27_10 C 0.3256(6) 0.6641(5) 0.1928(2)
C28_10 C 0.2704(5) 0.6267(4) 0.2096(2)
O9_10 O 0.4457(4) 0.8526(3) 0.02182(14)
O10_10 O 0.4804(6) 0.7704(7) 0.1529(2)
C1_11 C 0.2809(5) 0.3866(4) 0.20769(19)
C2_11 C 0.2783(5) 0.3556(5) 0.1778(2)
C3_11 C 0.2435(7) 0.3860(6) 0.1555(2)
H1_11 H 0.2218 0.4263 0.1586
C4_11 C 0.3117(6) 0.2953(6) 0.1734(2)
H2_11 H 0.3339 0.2740 0.1887
C5_11 C 0.2410(8) 0.3571(8) 0.1286(3)
H3_11 H 0.2159 0.3764 0.1137
C6_11 C 0.3113(7) 0.2677(7) 0.1461(3)
H4_11 H 0.3347 0.2284 0.1427
C7_11 C 0.2769(7) 0.2979(8) 0.1242(3)
C8_11 C 0.3244(8) 0.2349(8) 0.0853(3)
C9_11 C 0.3895(9) 0.2547(9) 0.0870(4)
H5_11 H 0.4007 0.2918 0.0979
C10_11 C 0.3065(7) 0.1784(8) 0.0703(3)
H6_11 H 0.2608 0.1636 0.0701
C11_11 C 0.4423(7) 0.2196(6) 0.0725(3)
H7_11 H 0.4882 0.2337 0.0734
C12_11 C 0.3567(6) 0.1447(6) 0.0560(2)
H8_11 H 0.3448 0.1077 0.0452
C13_11 C 0.4244(6) 0.1641(5) 0.0572(2)
C14_11 C 0.4796(5) 0.1267(4) 0.0404(2)
O2_11 O 0.3043(4) 0.3526(3) 0.22818(14)
O3_11 O 0.2696(6) 0.2704(7) 0.0971(2)
C15_11 C 0.4691(5) 0.3634(4) 0.20769(19)
C16_11 C 0.4717(5) 0.3944(5) 0.1778(2)
C17_11 C 0.5065(7) 0.3640(6) 0.1555(2)
H9_11 H 0.5282 0.3237 0.1586
C18_11 C 0.4383(6) 0.4547(6) 0.1734(2)
H10_11 H 0.4161 0.4760 0.1887
C19_11 C 0.5090(8) 0.3929(8) 0.1286(3)
H11_11 H 0.5341 0.3736 0.1137
C20_11 C 0.4387(7) 0.4823(7) 0.1461(3)
H12_11 H 0.4153 0.5216 0.1427
C21_11 C 0.4731(7) 0.4521(8) 0.1242(3)
C22_11 C 0.4256(8) 0.5151(8) 0.0853(3)
C23_11 C 0.3605(9) 0.4953(9) 0.0870(4)
H13_11 H 0.3493 0.4582 0.0979
C24_11 C 0.4435(7) 0.5716(8) 0.0703(3)
H14_11 H 0.4892 0.5864 0.0701
C25_11 C 0.3077(7) 0.5304(6) 0.0725(3)
H15_11 H 0.2618 0.5163 0.0734
C26_11 C 0.3933(6) 0.6053(6) 0.0560(2)
H16_11 H 0.4052 0.6423 0.0452
C27_11 C 0.3256(6) 0.5859(5) 0.0572(2)
C28_11 C 0.2704(5) 0.6233(4) 0.0404(2)
O9_11 O 0.4457(4) 0.3974(3) 0.22818(14)
O10_11 O 0.4804(6) 0.4796(7) 0.0971(2)
C3_12 C 0.0065(7) 0.8640(6) 0.1555(2)
H1_12 H 0.0282 0.8237 0.1586
C5_12 C 0.0090(8) 0.8929(8) 0.1286(3)
H3_12 H 0.0341 0.8736 0.1137
H4_12 H 0.9153 0.0216 0.1427
C8_12 C 0.9256(8) 0.0151(8) 0.0853(3)
C10_12 C 0.9435(7) 0.0716(8) 0.0703(3)
H6_12 H 0.9892 0.0864 0.0701
C11_12 C 0.8077(7) 0.0304(6) 0.0725(3)
H7_12 H 0.7618 0.0163 0.0734
C12_12 C 0.8933(6) 0.1053(6) 0.0560(2)
H8_12 H 0.9052 0.1423 0.0452
C13_12 C 0.8256(6) 0.0859(5) 0.0572(2)
C14_12 C 0.7704(5) 0.1233(4) 0.0404(2)
C1_12 C 0.9691(5) 0.8634(4) 0.20769(19)
C2_12 C 0.9717(5) 0.8944(5) 0.1778(2)
C4_12 C 0.9383(6) 0.9547(6) 0.1734(2)
H2_12 H 0.9161 0.9760 0.1887
C6_12 C 0.9387(7) 0.9823(7) 0.1461(3)
C7_12 C 0.9731(7) 0.9521(8) 0.1242(3)
C9_12 C 0.8605(9) 0.9953(9) 0.0870(4)
H5_12 H 0.8493 0.9582 0.0979
O2_12 O 0.9457(4) 0.8974(3) 0.22818(14)
O3_12 O 0.9804(6) 0.9796(7) 0.0971(2)
C15_12 C 0.7809(5) 0.8866(4) 0.20769(19)
C16_12 C 0.7783(5) 0.8556(5) 0.1778(2)
C17_12 C 0.7435(7) 0.8860(6) 0.1555(2)
H9_12 H 0.7218 0.9263 0.1586
C18_12 C 0.8117(6) 0.7953(6) 0.1734(2)
H10_12 H 0.8339 0.7740 0.1887
C19_12 C 0.7410(8) 0.8571(8) 0.1286(3)
H11_12 H 0.7159 0.8764 0.1137
C20_12 C 0.8113(7) 0.7677(7) 0.1461(3)
H12_12 H 0.8347 0.7284 0.1427
C21_12 C 0.7769(7) 0.7979(8) 0.1242(3)
C22_12 C 0.8244(8) 0.7349(8) 0.0853(3)
C23_12 C 0.8895(9) 0.7547(9) 0.0870(4)
H13_12 H 0.9007 0.7918 0.0979
C24_12 C 0.8065(7) 0.6784(8) 0.0703(3)
H14_12 H 0.7608 0.6636 0.0701
C25_12 C 0.9423(7) 0.7196(6) 0.0725(3)
H15_12 H 0.9882 0.7337 0.0734
C26_12 C 0.8567(6) 0.6447(6) 0.0560(2)
H16_12 H 0.8448 0.6077 0.0452
C27_12 C 0.9244(6) 0.6641(5) 0.0572(2)
C28_12 C 0.9796(5) 0.6267(4) 0.0404(2)
O9_12 O 0.8043(4) 0.8526(3) 0.22818(14)
O10_12 O 0.7696(6) 0.7704(7) 0.0971(2)
C3_13 C 0.0065(7) 0.8860(6) 0.5945(2)
H1_13 H 0.0282 0.9263 0.5914
C5_13 C 0.0090(8) 0.8571(8) 0.6214(3)
H3_13 H 0.0341 0.8764 0.6363
H12_13 H 0.8347 0.0216 0.6073
C22_13 C 0.8244(8) 0.0151(8) 0.6647(3)
C24_13 C 0.8065(7) 0.0716(8) 0.6797(3)
H14_13 H 0.7608 0.0864 0.6799
C25_13 C 0.9423(7) 0.0304(6) 0.6775(3)
H15_13 H 0.9882 0.0163 0.6766
C26_13 C 0.8567(6) 0.1053(6) 0.6940(2)
H16_13 H 0.8448 0.1423 0.7048
C27_13 C 0.9244(6) 0.0859(5) 0.6928(2)
C28_13 C 0.9796(5) 0.1233(4) 0.7096(2)
C1_13 C 0.9691(5) 0.8866(4) 0.54231(19)
C2_13 C 0.9717(5) 0.8556(5) 0.5722(2)
C4_13 C 0.9383(6) 0.7953(6) 0.5766(2)
H2_13 H 0.9161 0.7740 0.5613
C6_13 C 0.9387(7) 0.7677(7) 0.6039(3)
H4_13 H 0.9153 0.7284 0.6073
C7_13 C 0.9731(7) 0.7979(8) 0.6258(3)
C8_13 C 0.9256(8) 0.7349(8) 0.6647(3)
C9_13 C 0.8605(9) 0.7547(9) 0.6630(4)
H5_13 H 0.8493 0.7918 0.6521
C10_13 C 0.9435(7) 0.6784(8) 0.6797(3)
H6_13 H 0.9892 0.6636 0.6799
C11_13 C 0.8077(7) 0.7196(6) 0.6775(3)
H7_13 H 0.7618 0.7337 0.6766
C12_13 C 0.8933(6) 0.6447(6) 0.6940(2)
H8_13 H 0.9052 0.6077 0.7048
C13_13 C 0.8256(6) 0.6641(5) 0.6928(2)
C14_13 C 0.7704(5) 0.6267(4) 0.7096(2)
O2_13 O 0.9457(4) 0.8526(3) 0.52182(14)
O3_13 O 0.9804(6) 0.7704(7) 0.6529(2)
C15_13 C 0.7809(5) 0.8634(4) 0.54231(19)
C16_13 C 0.7783(5) 0.8944(5) 0.5722(2)
C17_13 C 0.7435(7) 0.8640(6) 0.5945(2)
H9_13 H 0.7218 0.8237 0.5914
C18_13 C 0.8117(6) 0.9547(6) 0.5766(2)
H10_13 H 0.8339 0.9760 0.5613
C19_13 C 0.7410(8) 0.8929(8) 0.6214(3)
H11_13 H 0.7159 0.8736 0.6363
C20_13 C 0.8113(7) 0.9823(7) 0.6039(3)
C21_13 C 0.7769(7) 0.9521(8) 0.6258(3)
C23_13 C 0.8895(9) 0.9953(9) 0.6630(4)
H13_13 H 0.9007 0.9582 0.6521
O9_13 O 0.8043(4) 0.8974(3) 0.52182(14)
O10_13 O 0.7696(6) 0.9796(7) 0.6529(2)
C1_14 C 0.2809(5) 0.3634(4) 0.54231(19)
C2_14 C 0.2783(5) 0.3944(5) 0.5722(2)
C3_14 C 0.2435(7) 0.3640(6) 0.5945(2)
H1_14 H 0.2218 0.3237 0.5914
C4_14 C 0.3117(6) 0.4547(6) 0.5766(2)
H2_14 H 0.3339 0.4760 0.5613
C5_14 C 0.2410(8) 0.3929(8) 0.6214(3)
H3_14 H 0.2159 0.3736 0.6363
C6_14 C 0.3113(7) 0.4823(7) 0.6039(3)
H4_14 H 0.3347 0.5216 0.6073
C7_14 C 0.2769(7) 0.4521(8) 0.6258(3)
C8_14 C 0.3244(8) 0.5151(8) 0.6647(3)
C9_14 C 0.3895(9) 0.4953(9) 0.6630(4)
H5_14 H 0.4007 0.4582 0.6521
C10_14 C 0.3065(7) 0.5716(8) 0.6797(3)
H6_14 H 0.2608 0.5864 0.6799
C11_14 C 0.4423(7) 0.5304(6) 0.6775(3)
H7_14 H 0.4882 0.5163 0.6766
C12_14 C 0.3567(6) 0.6053(6) 0.6940(2)
H8_14 H 0.3448 0.6423 0.7048
C13_14 C 0.4244(6) 0.5859(5) 0.6928(2)
C14_14 C 0.4796(5) 0.6233(4) 0.7096(2)
O2_14 O 0.3043(4) 0.3974(3) 0.52182(14)
O3_14 O 0.2696(6) 0.4796(7) 0.6529(2)
C15_14 C 0.4691(5) 0.3866(4) 0.54231(19)
C16_14 C 0.4717(5) 0.3556(5) 0.5722(2)
C17_14 C 0.5065(7) 0.3860(6) 0.5945(2)
H9_14 H 0.5282 0.4263 0.5914
C18_14 C 0.4383(6) 0.2953(6) 0.5766(2)
H10_14 H 0.4161 0.2740 0.5613
C19_14 C 0.5090(8) 0.3571(8) 0.6214(3)
H11_14 H 0.5341 0.3764 0.6363
C20_14 C 0.4387(7) 0.2677(7) 0.6039(3)
H12_14 H 0.4153 0.2284 0.6073
C21_14 C 0.4731(7) 0.2979(8) 0.6258(3)
C22_14 C 0.4256(8) 0.2349(8) 0.6647(3)
C23_14 C 0.3605(9) 0.2547(9) 0.6630(4)
H13_14 H 0.3493 0.2918 0.6521
C24_14 C 0.4435(7) 0.1784(8) 0.6797(3)
H14_14 H 0.4892 0.1636 0.6799
C25_14 C 0.3077(7) 0.2196(6) 0.6775(3)
H15_14 H 0.2618 0.2337 0.6766
C26_14 C 0.3933(6) 0.1447(6) 0.6940(2)
H16_14 H 0.4052 0.1077 0.7048
C27_14 C 0.3256(6) 0.1641(5) 0.6928(2)
C28_14 C 0.2704(5) 0.1267(4) 0.7096(2)
O9_14 O 0.4457(4) 0.3526(3) 0.52182(14)
O10_14 O 0.4804(6) 0.2704(7) 0.6529(2)
H12_15 H 0.4153 0.0216 0.6427
C22_15 C 0.4256(8) 0.0151(8) 0.5853(3)
C24_15 C 0.4435(7) 0.0716(8) 0.5703(3)
H14_15 H 0.4892 0.0864 0.5701
C25_15 C 0.3077(7) 0.0304(6) 0.5725(3)
H15_15 H 0.2618 0.0163 0.5734
C26_15 C 0.3933(6) 0.1053(6) 0.5560(2)
H16_15 H 0.4052 0.1423 0.5452
C27_15 C 0.3256(6) 0.0859(5) 0.5572(2)
C28_15 C 0.2704(5) 0.1233(4) 0.5404(2)
C1_15 C 0.2809(5) 0.8866(4) 0.70769(19)
C2_15 C 0.2783(5) 0.8556(5) 0.6778(2)
C3_15 C 0.2435(7) 0.8860(6) 0.6555(2)
H1_15 H 0.2218 0.9263 0.6586
C4_15 C 0.3117(6) 0.7953(6) 0.6734(2)
H2_15 H 0.3339 0.7740 0.6887
C5_15 C 0.2410(8) 0.8571(8) 0.6286(3)
H3_15 H 0.2159 0.8764 0.6137
C6_15 C 0.3113(7) 0.7677(7) 0.6461(3)
H4_15 H 0.3347 0.7284 0.6427
C7_15 C 0.2769(7) 0.7979(8) 0.6242(3)
C8_15 C 0.3244(8) 0.7349(8) 0.5853(3)
C9_15 C 0.3895(9) 0.7547(9) 0.5870(4)
H5_15 H 0.4007 0.7918 0.5979
C10_15 C 0.3065(7) 0.6784(8) 0.5703(3)
H6_15 H 0.2608 0.6636 0.5701
C11_15 C 0.4423(7) 0.7196(6) 0.5725(3)
H7_15 H 0.4882 0.7337 0.5734
C12_15 C 0.3567(6) 0.6447(6) 0.5560(2)
H8_15 H 0.3448 0.6077 0.5452
C13_15 C 0.4244(6) 0.6641(5) 0.5572(2)
C14_15 C 0.4796(5) 0.6267(4) 0.5404(2)
O2_15 O 0.3043(4) 0.8526(3) 0.72818(14)
O3_15 O 0.2696(6) 0.7704(7) 0.5971(2)
C15_15 C 0.4691(5) 0.8634(4) 0.70769(19)
C16_15 C 0.4717(5) 0.8944(5) 0.6778(2)
C17_15 C 0.5065(7) 0.8640(6) 0.6555(2)
H9_15 H 0.5282 0.8237 0.6586
C18_15 C 0.4383(6) 0.9547(6) 0.6734(2)
H10_15 H 0.4161 0.9760 0.6887
C19_15 C 0.5090(8) 0.8929(8) 0.6286(3)
H11_15 H 0.5341 0.8736 0.6137
C20_15 C 0.4387(7) 0.9823(7) 0.6461(3)
C21_15 C 0.4731(7) 0.9521(8) 0.6242(3)
C23_15 C 0.3605(9) 0.9953(9) 0.5870(4)
H13_15 H 0.3493 0.9582 0.5979
O9_15 O 0.4457(4) 0.8974(3) 0.72818(14)
O10_15 O 0.4804(6) 0.9796(7) 0.5971(2)
C3_16 C 0.0065(7) 0.3640(6) 0.6555(2)
H1_16 H 0.0282 0.3237 0.6586
C5_16 C 0.0090(8) 0.3929(8) 0.6286(3)
H3_16 H 0.0341 0.3736 0.6137
C1_16 C 0.9691(5) 0.3634(4) 0.70769(19)
C2_16 C 0.9717(5) 0.3944(5) 0.6778(2)
C4_16 C 0.9383(6) 0.4547(6) 0.6734(2)
H2_16 H 0.9161 0.4760 0.6887
C6_16 C 0.9387(7) 0.4823(7) 0.6461(3)
H4_16 H 0.9153 0.5216 0.6427
C7_16 C 0.9731(7) 0.4521(8) 0.6242(3)
C8_16 C 0.9256(8) 0.5151(8) 0.5853(3)
C9_16 C 0.8605(9) 0.4953(9) 0.5870(4)
H5_16 H 0.8493 0.4582 0.5979
C10_16 C 0.9435(7) 0.5716(8) 0.5703(3)
H6_16 H 0.9892 0.5864 0.5701
C11_16 C 0.8077(7) 0.5304(6) 0.5725(3)
H7_16 H 0.7618 0.5163 0.5734
C12_16 C 0.8933(6) 0.6053(6) 0.5560(2)
H8_16 H 0.9052 0.6423 0.5452
C13_16 C 0.8256(6) 0.5859(5) 0.5572(2)
C14_16 C 0.7704(5) 0.6233(4) 0.5404(2)
O2_16 O 0.9457(4) 0.3974(3) 0.72818(14)
O3_16 O 0.9804(6) 0.4796(7) 0.5971(2)
C15_16 C 0.7809(5) 0.3866(4) 0.70769(19)
C16_16 C 0.7783(5) 0.3556(5) 0.6778(2)
C17_16 C 0.7435(7) 0.3860(6) 0.6555(2)
H9_16 H 0.7218 0.4263 0.6586
C18_16 C 0.8117(6) 0.2953(6) 0.6734(2)
H10_16 H 0.8339 0.2740 0.6887
C19_16 C 0.7410(8) 0.3571(8) 0.6286(3)
H11_16 H 0.7159 0.3764 0.6137
C20_16 C 0.8113(7) 0.2677(7) 0.6461(3)
H12_16 H 0.8347 0.2284 0.6427
C21_16 C 0.7769(7) 0.2979(8) 0.6242(3)
C22_16 C 0.8244(8) 0.2349(8) 0.5853(3)
C23_16 C 0.8895(9) 0.2547(9) 0.5870(4)
H13_16 H 0.9007 0.2918 0.5979
C24_16 C 0.8065(7) 0.1784(8) 0.5703(3)
H14_16 H 0.7608 0.1636 0.5701
C25_16 C 0.9423(7) 0.2196(6) 0.5725(3)
H15_16 H 0.9882 0.2337 0.5734
C26_16 C 0.8567(6) 0.1447(6) 0.5560(2)
H16_16 H 0.8448 0.1077 0.5452
C27_16 C 0.9244(6) 0.1641(5) 0.5572(2)
C28_16 C 0.9796(5) 0.1267(4) 0.5404(2)
O9_16 O 0.8043(4) 0.3526(3) 0.72818(14)
O10_16 O 0.7696(6) 0.2704(7) 0.5971(2)
loop_
_geom_bond_atom_site_label_1
_geom_bond_atom_site_label_2
_geom_bond_site_symmetry_1
_geom_bond_site_symmetry_2
O6 In1 1_555 1_555
O12 In2 1_555 1_555
O13 In2 1_555 1_555
O17 In2 1_555 1_555
In2 O6 1_555 1_555
In5 O17 1_555 1_555
In1_2 O1 1_555 1_555
C1 C2 1_555 1_555
C4 C2 1_555 1_555
H2 C4 1_555 1_555
C6 C4 1_555 1_555
H4 C6 1_555 1_555
C8 C9 1_555 1_555
C9 H5 1_555 1_555
C10 C8 1_555 1_555
H6 C10 1_555 1_555
C11 C9 1_555 1_555
H7 C11 1_555 1_555
C12 C10 1_555 1_555
H8 C12 1_555 1_555
C13 C11 1_555 1_555
C14 C13 1_555 1_555
O1 C1 1_555 1_555
O2 C1 1_555 1_555
O3 C7 1_555 1_555
O4 C14 1_555 1_555
O5 C14 1_555 1_555
In3 O14 1_555 1_555
In4_2 O5 1_555 1_555
In5_2 O7 1_555 1_555
In6 O4 1_555 1_555
C15 C16 1_555 1_555
C16 C17 1_555 1_555
C17 H9 1_555 1_555
C18 C16 1_555 1_555
H10 C18 1_555 1_555
C19 C17 1_555 1_555
H11 C19 1_555 1_555
C20 C18 1_555 1_555
H12 C20 1_555 1_555
C21 C19 1_555 1_555
C22 C23 1_555 1_555
C23 H13 1_555 1_555
C24 C22 1_555 1_555
H14 C24 1_555 1_555
C25 C23 1_555 1_555
H15 C25 1_555 1_555
C26 C24 1_555 1_555
H16 C26 1_555 1_555
C27 C25 1_555 1_555
C28 C27 1_555 1_555
O7 C15 1_555 1_555
O10 C21 1_555 1_555
O14 C28 1_555 1_555
O15 In1_2 1_555 1_555
C6 C7 1_555 1_555
C8 O3 1_555 1_555
C12 C13 1_555 1_555
C15 O9 1_555 1_555
C20 C21 1_555 1_555
C22 O10 1_555 1_555
C26 C27 1_555 1_555
O8 In1_3 1_555 1_555
O16 In1_3 1_555 1_555
C3 H1 1_555 1_555
C5 C3 1_555 1_555
H3 C5 1_555 1_555
In7 O11 1_555 1_555
O18 In1_4 1_555 1_555
O6_2 In1_5 1_555 1_555
O8_2 In1_5 1_555 1_555
O12_2 In2_2 1_555 1_555
O13_2 In2_2 1_555 1_555
O16_2 In1_5 1_555 1_555
O17_2 In2_2 1_555 1_555
In2_2 O6_2 1_555 1_555
In5_3 O17_2 1_555 1_555
In1_6 O1_2 1_555 1_555
C1_2 C2_2 1_555 1_555
C2_2 C3_2 1_555 1_555
C3_2 H1_2 1_555 1_555
C4_2 C2_2 1_555 1_555
H2_2 C4_2 1_555 1_555
C5_2 C3_2 1_555 1_555
H3_2 C5_2 1_555 1_555
C6_2 C4_2 1_555 1_555
C7_2 C5_2 1_555 1_555
C9_2 H5_2 1_555 1_555
O1_2 C1_2 1_555 1_555
O2_2 C1_2 1_555 1_555
O3_2 C7_2 1_555 1_555
In3_3 O14_2 1_555 1_555
In5_4 O7_2 1_555 1_555
In7 O11_2 1_555 1_555
C15_2 C16_2 1_555 1_555
C16_2 C17_2 1_555 1_555
C17_2 H9_2 1_555 1_555
C18_2 C16_2 1_555 1_555
H10_2 C18_2 1_555 1_555
C19_2 C17_2 1_555 1_555
H11_2 C19_2 1_555 1_555
C20_2 C18_2 1_555 1_555
H12_2 C20_2 1_555 1_555
C21_2 C19_2 1_555 1_555
C22_2 C23_2 1_555 1_555
C23_2 H13_2 1_555 1_555
C24_2 C22_2 1_555 1_555
H14_2 C24_2 1_555 1_555
C25_2 C23_2 1_555 1_555
H15_2 C25_2 1_555 1_555
C26_2 C24_2 1_555 1_555
H16_2 C26_2 1_555 1_555
C27_2 C25_2 1_555 1_555
C28_2 C27_2 1_555 1_555
O7_2 C15_2 1_555 1_555
O10_2 C21_2 1_555 1_555
O11_2 C28_2 1_555 1_555
O14_2 C28_2 1_555 1_555
O15_2 In1_6 1_555 1_555
O18_2 In1_6 1_555 1_555
C6_2 C7_2 1_555 1_555
C15_2 O9_2 1_555 1_555
C20_2 C21_2 1_555 1_555
C22_2 O10_2 1_555 1_555
C26_2 C27_2 1_555 1_555
C10_2 C8_2 1_555 1_555
H6_2 C10_2 1_555 1_555
H7_2 C11_2 1_555 1_555
C12_2 C10_2 1_555 1_555
H8_2 C12_2 1_555 1_555
C13_2 C11_2 1_555 1_555
C14_2 C13_2 1_555 1_555
O4_2 C14_2 1_555 1_555
O5_2 C14_2 1_555 1_555
In4_3 O5_2 1_555 1_555
In6 O4_2 1_555 1_555
C12_2 C13_2 1_555 1_555
In3_3 O1_3 1_555 1_555
In2_3 O2_3 1_555 1_555
C1_3 C2_3 1_555 1_555
C2_3 C3_3 1_555 1_555
C3_3 H1_3 1_555 1_555
C4_3 C2_3 1_555 1_555
H2_3 C4_3 1_555 1_555
C5_3 C3_3 1_555 1_555
H3_3 C5_3 1_555 1_555
C6_3 C4_3 1_555 1_555
H4_3 C6_3 1_555 1_555
C7_3 C5_3 1_555 1_555
C8_3 C9_3 1_555 1_555
C9_3 H5_3 1_555 1_555
C10_3 C8_3 1_555 1_555
H6_3 C10_3 1_555 1_555
C11_3 C9_3 1_555 1_555
H7_3 C11_3 1_555 1_555
C12_3 C10_3 1_555 1_555
H8_3 C12_3 1_555 1_555
C13_3 C11_3 1_555 1_555
C14_3 C13_3 1_555 1_555
O1_3 C1_3 1_555 1_555
O2_3 C1_3 1_555 1_555
O3_3 C7_3 1_555 1_555
O4_3 C14_3 1_555 1_555
O5_3 C14_3 1_555 1_555
O6_3 In3_3 1_555 1_555
In5_6 O5_3 1_555 1_555
In4_3 O7_3 1_555 1_555
In6_2 O4_3 1_555 1_555
In7_2 O11_3 1_555 1_555
C15_3 C16_3 1_555 1_555
C16_3 C17_3 1_555 1_555
C17_3 H9_3 1_555 1_555
C18_3 C16_3 1_555 1_555
H10_3 C18_3 1_555 1_555
C19_3 C17_3 1_555 1_555
H11_3 C19_3 1_555 1_555
C20_3 C18_3 1_555 1_555
H12_3 C20_3 1_555 1_555
C21_3 C19_3 1_555 1_555
C22_3 C23_3 1_555 1_555
C23_3 H13_3 1_555 1_555
C24_3 C22_3 1_555 1_555
H14_3 C24_3 1_555 1_555
C25_3 C23_3 1_555 1_555
H15_3 C25_3 1_555 1_555
C26_3 C24_3 1_555 1_555
H16_3 C26_3 1_555 1_555
C27_3 C25_3 1_555 1_555
C28_3 C27_3 1_555 1_555
O7_3 C15_3 1_555 1_555
O8_3 In3_3 1_555 1_555
O9_3 In2_3 1_555 1_555
O10_3 C21_3 1_555 1_555
O11_3 C28_3 1_555 1_555
O12_3 In2_3 1_555 1_555
O13_3 In2_3 1_555 1_555
O15_2 C28_3 1_555 1_555
O16_3 In3_3 1_555 1_555
O17_3 In2_3 1_555 1_555
O18_3 In3_3 1_555 1_555
In2_3 O6_3 1_555 1_555
C6_3 C7_3 1_555 1_555
C8_3 O3_3 1_555 1_555
C12_3 C13_3 1_555 1_555
In4_3 O17_3 1_555 1_555
C15_3 O9_3 1_555 1_555
C20_3 C21_3 1_555 1_555
C22_3 O10_3 1_555 1_555
C26_3 C27_3 1_555 1_555
In3 O1_4 1_555 1_555
In2_4 O2_4 1_555 1_555
C1_4 C2_4 1_555 1_555
C4_4 C2_4 1_555 1_555
H2_4 C4_4 1_555 1_555
C6_4 C4_4 1_555 1_555
C9_4 H5_4 1_555 1_555
O1_4 C1_4 1_555 1_555
O2_4 C1_4 1_555 1_555
O3_4 C7_4 1_555 1_555
O6_4 In3 1_555 1_555
In4 O7_4 1_555 1_555
C15_4 C16_4 1_555 1_555
C16_4 C17_4 1_555 1_555
C17_4 H9_4 1_555 1_555
C18_4 C16_4 1_555 1_555
H10_4 C18_4 1_555 1_555
C19_4 C17_4 1_555 1_555
H11_4 C19_4 1_555 1_555
C20_4 C18_4 1_555 1_555
H12_4 C20_4 1_555 1_555
C21_4 C19_4 1_555 1_555
C22_4 C23_4 1_555 1_555
C23_4 H13_4 1_555 1_555
C24_4 C22_4 1_555 1_555
H14_4 C24_4 1_555 1_555
C25_4 C23_4 1_555 1_555
H15_4 C25_4 1_555 1_555
C26_4 C24_4 1_555 1_555
H16_4 C26_4 1_555 1_555
C27_4 C25_4 1_555 1_555
C28_4 C27_4 1_555 1_555
O7_4 C15_4 1_555 1_555
O9_4 In2_4 1_555 1_555
O10_4 C21_4 1_555 1_555
O12_4 In2_4 1_555 1_555
O13_4 In2_4 1_555 1_555
O15 C28_4 1_555 1_555
O17_4 In2_4 1_555 1_555
In2_4 O6_4 1_555 1_555
C6_4 C7_4 1_555 1_555
In4 O17_4 1_555 1_555
C15_4 O9_4 1_555 1_555
C20_4 C21_4 1_555 1_555
C22_4 O10_4 1_555 1_555
C26_4 C27_4 1_555 1_555
C10_4 C8_4 1_555 1_555
H6_4 C10_4 1_555 1_555
H7_4 C11_4 1_555 1_555
C12_4 C10_4 1_555 1_555
H8_4 C12_4 1_555 1_555
C13_4 C11_4 1_555 1_555
C14_4 C13_4 1_555 1_555
O4_4 C14_4 1_555 1_555
O5_4 C14_4 1_555 1_555
In5_2 O5_4 1_555 1_555
In6_2 O4_4 1_555 1_555
C12_4 C13_4 1_555 1_555
C3_4 H1_4 1_555 1_555
C5_4 C3_4 1_555 1_555
H3_4 C5_4 1_555 1_555
In7_2 O11_4 1_555 1_555
O8_4 In3_2 1_555 1_555
O16_4 In3_2 1_555 1_555
O18_4 In3_2 1_555 1_555
In1_7 O1_5 1_555 1_555
In2_5 O2_5 1_555 1_555
C1_5 C2_5 1_555 1_555
C4_5 C2_5 1_555 1_555
H2_5 C4_5 1_555 1_555
C6_5 C4_5 1_555 1_555
H4_5 C6_5 1_555 1_555
C8_5 C9_5 1_555 1_555
C9_5 H5_5 1_555 1_555
C10_5 C8_5 1_555 1_555
H6_5 C10_5 1_555 1_555
C11_5 C9_5 1_555 1_555
H7_5 C11_5 1_555 1_555
C12_5 C10_5 1_555 1_555
H8_5 C12_5 1_555 1_555
C13_5 C11_5 1_555 1_555
C14_5 C13_5 1_555 1_555
O1_5 C1_5 1_555 1_555
O2_5 C1_5 1_555 1_555
O3_5 C7_5 1_555 1_555
O4_5 C14_5 1_555 1_555
O5_5 C14_5 1_555 1_555
O6_5 In1_7 1_555 1_555
In4_4 O5_5 1_555 1_555
In5_7 O7_5 1_555 1_555
In6_3 O4_5 1_555 1_555
C15_5 C16_5 1_555 1_555
C16_5 C17_5 1_555 1_555
C17_5 H9_5 1_555 1_555
C18_5 C16_5 1_555 1_555
H10_5 C18_5 1_555 1_555
C19_5 C17_5 1_555 1_555
H11_5 C19_5 1_555 1_555
C20_5 C18_5 1_555 1_555
C21_5 C19_5 1_555 1_555
C23_5 H13_5 1_555 1_555
O7_5 C15_5 1_555 1_555
O9_5 In2_5 1_555 1_555
O10_5 C21_5 1_555 1_555
O12_5 In2_5 1_555 1_555
O13_5 In2_5 1_555 1_555
O17_5 In2_5 1_555 1_555
In2_5 O6_5 1_555 1_555
C6_5 C7_5 1_555 1_555
C8_5 O3_5 1_555 1_555
C12_5 C13_5 1_555 1_555
In5_7 O17_5 1_555 1_555
C15_5 O9_5 1_555 1_555
C20_5 C21_5 1_555 1_555
In3_4 O14_3 1_555 1_555
C24_5 C22_5 1_555 1_555
H14_5 C24_5 1_555 1_555
H15_5 C25_5 1_555 1_555
C26_5 C24_5 1_555 1_555
H16_5 C26_5 1_555 1_555
C27_5 C25_5 1_555 1_555
C28_5 C27_5 1_555 1_555
O14_3 C28_5 1_555 1_555
O15_3 In1_8 1_555 1_555
C26_5 C27_5 1_555 1_555
C3_5 H1_5 1_555 1_555
C5_5 C3_5 1_555 1_555
H3_5 C5_5 1_555 1_555
O16_5 In1_9 1_555 1_555
In7_3 O11_5 1_555 1_555
O8_5 In1_10 1_555 1_555
O18_5 In1_10 1_555 1_555
In1_11 O1_6 1_555 1_555
In2_6 O2_6 1_555 1_555
C1_6 C2_6 1_555 1_555
C2_6 C3_6 1_555 1_555
C3_6 H1_6 1_555 1_555
C4_6 C2_6 1_555 1_555
H2_6 C4_6 1_555 1_555
C5_6 C3_6 1_555 1_555
H3_6 C5_6 1_555 1_555
C6_6 C4_6 1_555 1_555
H4_6 C6_6 1_555 1_555
C7_6 C5_6 1_555 1_555
C8_6 C9_6 1_555 1_555
C9_6 H5_6 1_555 1_555
C10_6 C8_6 1_555 1_555
H6_6 C10_6 1_555 1_555
C11_6 C9_6 1_555 1_555
H7_6 C11_6 1_555 1_555
C12_6 C10_6 1_555 1_555
H8_6 C12_6 1_555 1_555
C13_6 C11_6 1_555 1_555
C14_6 C13_6 1_555 1_555
O1_6 C1_6 1_555 1_555
O2_6 C1_6 1_555 1_555
O3_6 C7_6 1_555 1_555
O4_6 C14_6 1_555 1_555
O5_6 C14_6 1_555 1_555
O6_6 In1_11 1_555 1_555
In3_7 O14_4 1_555 1_555
In4_5 O5_6 1_555 1_555
In5_8 O7_6 1_555 1_555
In6_3 O4_6 1_555 1_555
In7_3 O11_6 1_555 1_555
C15_6 C16_6 1_555 1_555
C16_6 C17_6 1_555 1_555
C17_6 H9_6 1_555 1_555
C18_6 C16_6 1_555 1_555
H10_6 C18_6 1_555 1_555
C19_6 C17_6 1_555 1_555
H11_6 C19_6 1_555 1_555
C20_6 C18_6 1_555 1_555
H12_6 C20_6 1_555 1_555
C21_6 C19_6 1_555 1_555
C22_6 C23_6 1_555 1_555
C23_6 H13_6 1_555 1_555
C24_6 C22_6 1_555 1_555
H14_6 C24_6 1_555 1_555
C25_6 C23_6 1_555 1_555
H15_6 C25_6 1_555 1_555
C26_6 C24_6 1_555 1_555
H16_6 C26_6 1_555 1_555
C27_6 C25_6 1_555 1_555
C28_6 C27_6 1_555 1_555
O7_6 C15_6 1_555 1_555
O8_6 In1_11 1_555 1_555
O9_6 In2_6 1_555 1_555
O10_6 C21_6 1_555 1_555
O11_6 C28_6 1_555 1_555
O12_6 In2_6 1_555 1_555
O13_6 In2_6 1_555 1_555
O14_4 C28_6 1_555 1_555
O15_4 In1_11 1_555 1_555
O16_6 In1_11 1_555 1_555
O17_6 In2_6 1_555 1_555
O18_6 In1_11 1_555 1_555
In2_6 O6_6 1_555 1_555
C6_6 C7_6 1_555 1_555
C8_6 O3_6 1_555 1_555
C12_6 C13_6 1_555 1_555
In5_8 O17_6 1_555 1_555
C15_6 O9_6 1_555 1_555
C20_6 C21_6 1_555 1_555
C22_6 O10_6 1_555 1_555
C26_6 C27_6 1_555 1_555
In3_6 O1_7 1_555 1_555
In2_7 O2_7 1_555 1_555
C1_7 C2_7 1_555 1_555
C2_7 C3_7 1_555 1_555
C3_7 H1_7 1_555 1_555
C4_7 C2_7 1_555 1_555
H2_7 C4_7 1_555 1_555
C5_7 C3_7 1_555 1_555
H3_7 C5_7 1_555 1_555
C6_7 C4_7 1_555 1_555
H4_7 C6_7 1_555 1_555
C7_7 C5_7 1_555 1_555
C8_7 C9_7 1_555 1_555
C9_7 H5_7 1_555 1_555
C10_7 C8_7 1_555 1_555
H6_7 C10_7 1_555 1_555
C11_7 C9_7 1_555 1_555
H7_7 C11_7 1_555 1_555
C12_7 C10_7 1_555 1_555
H8_7 C12_7 1_555 1_555
C13_7 C11_7 1_555 1_555
C14_7 C13_7 1_555 1_555
O1_7 C1_7 1_555 1_555
O2_7 C1_7 1_555 1_555
O3_7 C7_7 1_555 1_555
O4_7 C14_7 1_555 1_555
O5_7 C14_7 1_555 1_555
O6_7 In3_6 1_555 1_555
In5_8 O5_7 1_555 1_555
In4_5 O7_7 1_555 1_555
In6_4 O4_7 1_555 1_555
C15_7 C16_7 1_555 1_555
C16_7 C17_7 1_555 1_555
C17_7 H9_7 1_555 1_555
C18_7 C16_7 1_555 1_555
H10_7 C18_7 1_555 1_555
C19_7 C17_7 1_555 1_555
H11_7 C19_7 1_555 1_555
C20_7 C18_7 1_555 1_555
C21_7 C19_7 1_555 1_555
C23_7 H13_7 1_555 1_555
O7_7 C15_7 1_555 1_555
O9_7 In2_7 1_555 1_555
O10_7 C21_7 1_555 1_555
O12_7 In2_7 1_555 1_555
O13_7 In2_7 1_555 1_555
O16_7 In3_6 1_555 1_555
O17_7 In2_7 1_555 1_555
In2_7 O6_7 1_555 1_555
C6_7 C7_7 1_555 1_555
C8_7 O3_7 1_555 1_555
C12_7 C13_7 1_555 1_555
In4_5 O17_7 1_555 1_555
C15_7 O9_7 1_555 1_555
C20_7 C21_7 1_555 1_555
In7_4 O11_7 1_555 1_555
C24_7 C22_7 1_555 1_555
H14_7 C24_7 1_555 1_555
H15_7 C25_7 1_555 1_555
C26_7 C24_7 1_555 1_555
H16_7 C26_7 1_555 1_555
C27_7 C25_7 1_555 1_555
C28_7 C27_7 1_555 1_555
O8_7 In3_7 1_555 1_555
O11_7 C28_7 1_555 1_555
O15_4 C28_7 1_555 1_555
O18_7 In3_7 1_555 1_555
C26_7 C27_7 1_555 1_555
In3_4 O1_8 1_555 1_555
In2_8 O2_8 1_555 1_555
C1_8 C2_8 1_555 1_555
C4_8 C2_8 1_555 1_555
H2_8 C4_8 1_555 1_555
C6_8 C4_8 1_555 1_555
H4_8 C6_8 1_555 1_555
C8_8 C9_8 1_555 1_555
C9_8 H5_8 1_555 1_555
C10_8 C8_8 1_555 1_555
H6_8 C10_8 1_555 1_555
C11_8 C9_8 1_555 1_555
H7_8 C11_8 1_555 1_555
C12_8 C10_8 1_555 1_555
H8_8 C12_8 1_555 1_555
C13_8 C11_8 1_555 1_555
C14_8 C13_8 1_555 1_555
O1_8 C1_8 1_555 1_555
O2_8 C1_8 1_555 1_555
O3_8 C7_8 1_555 1_555
O4_8 C14_8 1_555 1_555
O5_8 C14_8 1_555 1_555
O6_8 In3_4 1_555 1_555
In5_7 O5_8 1_555 1_555
In4_4 O7_8 1_555 1_555
In6_4 O4_8 1_555 1_555
C15_8 C16_8 1_555 1_555
C16_8 C17_8 1_555 1_555
C17_8 H9_8 1_555 1_555
C18_8 C16_8 1_555 1_555
H10_8 C18_8 1_555 1_555
C19_8 C17_8 1_555 1_555
H11_8 C19_8 1_555 1_555
C20_8 C18_8 1_555 1_555
H12_8 C20_8 1_555 1_555
C21_8 C19_8 1_555 1_555
C22_8 C23_8 1_555 1_555
C23_8 H13_8 1_555 1_555
C24_8 C22_8 1_555 1_555
H14_8 C24_8 1_555 1_555
C25_8 C23_8 1_555 1_555
H15_8 C25_8 1_555 1_555
C26_8 C24_8 1_555 1_555
H16_8 C26_8 1_555 1_555
C27_8 C25_8 1_555 1_555
C28_8 C27_8 1_555 1_555
O7_8 C15_8 1_555 1_555
O9_8 In2_8 1_555 1_555
O10_8 C21_8 1_555 1_555
O12_8 In2_8 1_555 1_555
O13_8 In2_8 1_555 1_555
O15_3 C28_8 1_555 1_555
O17_8 In2_8 1_555 1_555
In2_8 O6_8 1_555 1_555
C6_8 C7_8 1_555 1_555
C8_8 O3_8 1_555 1_555
C12_8 C13_8 1_555 1_555
In4_4 O17_8 1_555 1_555
C15_8 O9_8 1_555 1_555
C20_8 C21_8 1_555 1_555
C22_8 O10_8 1_555 1_555
C26_8 C27_8 1_555 1_555
C3_8 H1_8 1_555 1_555
C5_8 C3_8 1_555 1_555
H3_8 C5_8 1_555 1_555
In7_4 O11_8 1_555 1_555
O8_8 In3_5 1_555 1_555
O16_8 In3_5 1_555 1_555
O18_8 In3_5 1_555 1_555
O8_9 In5_8 1_555 1_555
O16_9 In5_8 1_555 1_555
O18_9 In5_8 1_555 1_555
O8_10 In5_7 1_555 1_555
O16_10 In5_7 1_555 1_555
O18_10 In5_7 1_555 1_555
O8_11 In4_4 1_555 1_555
O16_11 In4_4 1_555 1_555
O18_11 In4_4 1_555 1_555
O8_12 In4_5 1_555 1_555
O16_12 In4_5 1_555 1_555
O18_12 In4_5 1_555 1_555
O16_13 In5_3 1_555 1_555
O8_13 In5_5 1_555 1_555
O18_13 In5_6 1_555 1_555
O8_14 In5 1_555 1_555
O16_14 In5 1_555 1_555
O18_14 In5_2 1_555 1_555
O16_15 In4 1_555 1_555
O8_15 In4_2 1_555 1_555
O18_15 In4_2 1_555 1_555
O8_16 In4_3 1_555 1_555
O16_16 In4_3 1_555 1_555
O18_16 In4_3 1_555 1_555
C3_9 H1_9 1_555 1_555
C5_9 C3_9 1_555 1_555
H3_9 C5_9 1_555 1_555
C1_9 C2_9 1_555 1_555
C4_9 C2_9 1_555 1_555
H2_9 C4_9 1_555 1_555
C6_9 C4_9 1_555 1_555
H4_9 C6_9 1_555 1_555
C8_9 C9_9 1_555 1_555
C9_9 H5_9 1_555 1_555
C10_9 C8_9 1_555 1_555
H6_9 C10_9 1_555 1_555
C11_9 C9_9 1_555 1_555
H7_9 C11_9 1_555 1_555
C12_9 C10_9 1_555 1_555
H8_9 C12_9 1_555 1_555
C13_9 C11_9 1_555 1_555
C14_9 C13_9 1_555 1_555
O8 C1_9 1_555 1_555
O2_9 C1_9 1_555 1_555
O3_9 C7_9 1_555 1_555
O12_7 C14_9 1_555 1_555
O16_7 C14_9 1_555 1_555
C15_9 C16_9 1_555 1_555
C16_9 C17_9 1_555 1_555
C17_9 H9_9 1_555 1_555
C18_9 C16_9 1_555 1_555
H10_9 C18_9 1_555 1_555
C19_9 C17_9 1_555 1_555
H11_9 C19_9 1_555 1_555
C20_9 C18_9 1_555 1_555
H12_9 C20_9 1_555 1_555
C21_9 C19_9 1_555 1_555
C22_9 C23_9 1_555 1_555
C23_9 H13_9 1_555 1_555
C24_9 C22_9 1_555 1_555
H14_9 C24_9 1_555 1_555
C25_9 C23_9 1_555 1_555
H15_9 C25_9 1_555 1_555
C26_9 C24_9 1_555 1_555
H16_9 C26_9 1_555 1_555
C27_9 C25_9 1_555 1_555
C28_9 C27_9 1_555 1_555
O8_2 C15_9 1_555 1_555
O10_9 C21_9 1_555 1_555
O16_8 C28_9 1_555 1_555
C6_9 C7_9 1_555 1_555
C8_9 O3_9 1_555 1_555
C12_9 C13_9 1_555 1_555
C15_9 O9_9 1_555 1_555
C20_9 C21_9 1_555 1_555
C22_9 O10_9 1_555 1_555
C26_9 C27_9 1_555 1_555
O18_2 In7_2 1_555 1_555
In7_2 O18 1_555 1_555
C10_10 C8_10 1_555 1_555
H6_10 C10_10 1_555 1_555
H7_10 C11_10 1_555 1_555
C12_10 C10_10 1_555 1_555
H8_10 C12_10 1_555 1_555
C13_10 C11_10 1_555 1_555
C14_10 C13_10 1_555 1_555
O13_7 C14_10 1_555 1_555
O16_12 C14_10 1_555 1_555
C12_10 C13_10 1_555 1_555
C1_10 C2_10 1_555 1_555
C2_10 C3_10 1_555 1_555
C3_10 H1_10 1_555 1_555
C4_10 C2_10 1_555 1_555
H2_10 C4_10 1_555 1_555
C5_10 C3_10 1_555 1_555
H3_10 C5_10 1_555 1_555
C6_10 C4_10 1_555 1_555
C7_10 C5_10 1_555 1_555
C9_10 H5_10 1_555 1_555
O8_14 C1_10 1_555 1_555
O2_10 C1_10 1_555 1_555
O3_10 C7_10 1_555 1_555
C15_10 C16_10 1_555 1_555
C16_10 C17_10 1_555 1_555
C17_10 H9_10 1_555 1_555
C18_10 C16_10 1_555 1_555
H10_10 C18_10 1_555 1_555
C19_10 C17_10 1_555 1_555
H11_10 C19_10 1_555 1_555
C20_10 C18_10 1_555 1_555
H12_10 C20_10 1_555 1_555
C21_10 C19_10 1_555 1_555
C22_10 C23_10 1_555 1_555
C23_10 H13_10 1_555 1_555
C24_10 C22_10 1_555 1_555
H14_10 C24_10 1_555 1_555
C25_10 C23_10 1_555 1_555
H15_10 C25_10 1_555 1_555
C26_10 C24_10 1_555 1_555
H16_10 C26_10 1_555 1_555
C27_10 C25_10 1_555 1_555
C28_10 C27_10 1_555 1_555
O8_13 C15_10 1_555 1_555
O10_10 C21_10 1_555 1_555
O13_8 C28_10 1_555 1_555
O16_11 C28_10 1_555 1_555
C6_10 C7_10 1_555 1_555
C15_10 O9_10 1_555 1_555
C20_10 C21_10 1_555 1_555
C22_10 O10_10 1_555 1_555
C26_10 C27_10 1_555 1_555
O18_13 In6_2 1_555 1_555
In6_2 O18_14 1_555 1_555
In6_3 O2_11 1_555 1_555
C1_11 C2_11 1_555 1_555
C2_11 C3_11 1_555 1_555
C3_11 H1_11 1_555 1_555
C4_11 C2_11 1_555 1_555
H2_11 C4_11 1_555 1_555
C5_11 C3_11 1_555 1_555
H3_11 C5_11 1_555 1_555
C6_11 C4_11 1_555 1_555
H4_11 C6_11 1_555 1_555
C7_11 C5_11 1_555 1_555
C8_11 C9_11 1_555 1_555
C9_11 H5_11 1_555 1_555
C10_11 C8_11 1_555 1_555
H6_11 C10_11 1_555 1_555
C11_11 C9_11 1_555 1_555
H7_11 C11_11 1_555 1_555
C12_11 C10_11 1_555 1_555
H8_11 C12_11 1_555 1_555
C13_11 C11_11 1_555 1_555
C14_11 C13_11 1_555 1_555
O8_11 C1_11 1_555 1_555
O2_11 C1_11 1_555 1_555
O3_11 C7_11 1_555 1_555
O13_2 C14_11 1_555 1_555
O16_13 C14_11 1_555 1_555
C15_11 C16_11 1_555 1_555
C16_11 C17_11 1_555 1_555
C17_11 H9_11 1_555 1_555
C18_11 C16_11 1_555 1_555
H10_11 C18_11 1_555 1_555
C19_11 C17_11 1_555 1_555
H11_11 C19_11 1_555 1_555
C20_11 C18_11 1_555 1_555
H12_11 C20_11 1_555 1_555
C21_11 C19_11 1_555 1_555
C22_11 C23_11 1_555 1_555
C23_11 H13_11 1_555 1_555
C24_11 C22_11 1_555 1_555
H14_11 C24_11 1_555 1_555
C25_11 C23_11 1_555 1_555
H15_11 C25_11 1_555 1_555
C26_11 C24_11 1_555 1_555
H16_11 C26_11 1_555 1_555
C27_11 C25_11 1_555 1_555
C28_11 C27_11 1_555 1_555
O8_12 C15_11 1_555 1_555
O9_11 In6_3 1_555 1_555
O10_11 C21_11 1_555 1_555
O13 C28_11 1_555 1_555
O16_14 C28_11 1_555 1_555
O18_12 In6_3 1_555 1_555
In6_3 O18_11 1_555 1_555
C6_11 C7_11 1_555 1_555
C8_11 O3_11 1_555 1_555
C12_11 C13_11 1_555 1_555
C15_11 O9_11 1_555 1_555
C20_11 C21_11 1_555 1_555
C22_11 O10_11 1_555 1_555
C26_11 C27_11 1_555 1_555
C3_12 H1_12 1_555 1_555
C5_12 C3_12 1_555 1_555
H3_12 C5_12 1_555 1_555
C10_12 C8_12 1_555 1_555
H6_12 C10_12 1_555 1_555
H7_12 C11_12 1_555 1_555
C12_12 C10_12 1_555 1_555
H8_12 C12_12 1_555 1_555
C13_12 C11_12 1_555 1_555
C14_12 C13_12 1_555 1_555
O12_2 C14_12 1_555 1_555
O16_2 C14_12 1_555 1_555
C12_12 C13_12 1_555 1_555
In7_3 O2_12 1_555 1_555
C1_12 C2_12 1_555 1_555
C4_12 C2_12 1_555 1_555
H2_12 C4_12 1_555 1_555
C6_12 C4_12 1_555 1_555
C9_12 H5_12 1_555 1_555
O8_8 C1_12 1_555 1_555
O2_12 C1_12 1_555 1_555
O3_12 C7_12 1_555 1_555
C15_12 C16_12 1_555 1_555
C16_12 C17_12 1_555 1_555
C17_12 H9_12 1_555 1_555
C18_12 C16_12 1_555 1_555
H10_12 C18_12 1_555 1_555
C19_12 C17_12 1_555 1_555
H11_12 C19_12 1_555 1_555
C20_12 C18_12 1_555 1_555
H12_12 C20_12 1_555 1_555
C21_12 C19_12 1_555 1_555
C22_12 C23_12 1_555 1_555
C23_12 H13_12 1_555 1_555
C24_12 C22_12 1_555 1_555
H14_12 C24_12 1_555 1_555
C25_12 C23_12 1_555 1_555
H15_12 C25_12 1_555 1_555
C26_12 C24_12 1_555 1_555
H16_12 C26_12 1_555 1_555
C27_12 C25_12 1_555 1_555
C28_12 C27_12 1_555 1_555
O8_7 C15_12 1_555 1_555
O9_12 In7_3 1_555 1_555
O10_12 C21_12 1_555 1_555
O16 C28_12 1_555 1_555
O18_7 In7_3 1_555 1_555
In7_3 O18_8 1_555 1_555
C6_12 C7_12 1_555 1_555
C15_12 O9_12 1_555 1_555
C20_12 C21_12 1_555 1_555
C22_12 O10_12 1_555 1_555
C26_12 C27_12 1_555 1_555
C3_13 H1_13 1_555 1_555
C5_13 C3_13 1_555 1_555
H3_13 C5_13 1_555 1_555
C24_13 C22_13 1_555 1_555
H14_13 C24_13 1_555 1_555
H15_13 C25_13 1_555 1_555
C26_13 C24_13 1_555 1_555
H16_13 C26_13 1_555 1_555
C27_13 C25_13 1_555 1_555
C28_13 C27_13 1_555 1_555
O16_4 C28_13 1_555 1_555
C26_13 C27_13 1_555 1_555
In7_4 O2_13 1_555 1_555
C1_13 C2_13 1_555 1_555
C4_13 C2_13 1_555 1_555
H2_13 C4_13 1_555 1_555
C6_13 C4_13 1_555 1_555
H4_13 C6_13 1_555 1_555
C8_13 C9_13 1_555 1_555
C9_13 H5_13 1_555 1_555
C10_13 C8_13 1_555 1_555
H6_13 C10_13 1_555 1_555
C11_13 C9_13 1_555 1_555
H7_13 C11_13 1_555 1_555
C12_13 C10_13 1_555 1_555
H8_13 C12_13 1_555 1_555
C13_13 C11_13 1_555 1_555
C14_13 C13_13 1_555 1_555
O8_5 C1_13 1_555 1_555
O2_13 C1_13 1_555 1_555
O3_13 C7_13 1_555 1_555
O12_3 C14_13 1_555 1_555
O16_3 C14_13 1_555 1_555
C15_13 C16_13 1_555 1_555
C16_13 C17_13 1_555 1_555
C17_13 H9_13 1_555 1_555
C18_13 C16_13 1_555 1_555
H10_13 C18_13 1_555 1_555
C19_13 C17_13 1_555 1_555
H11_13 C19_13 1_555 1_555
C20_13 C18_13 1_555 1_555
C21_13 C19_13 1_555 1_555
C23_13 H13_13 1_555 1_555
O8_6 C15_13 1_555 1_555
O9_13 In7_4 1_555 1_555
O10_13 C21_13 1_555 1_555
O18_6 In7_4 1_555 1_555
In7_4 O18_5 1_555 1_555
C6_13 C7_13 1_555 1_555
C8_13 O3_13 1_555 1_555
C12_13 C13_13 1_555 1_555
C15_13 O9_13 1_555 1_555
C20_13 C21_13 1_555 1_555
In6_4 O2_14 1_555 1_555
C1_14 C2_14 1_555 1_555
C2_14 C3_14 1_555 1_555
C3_14 H1_14 1_555 1_555
C4_14 C2_14 1_555 1_555
H2_14 C4_14 1_555 1_555
C5_14 C3_14 1_555 1_555
H3_14 C5_14 1_555 1_555
C6_14 C4_14 1_555 1_555
H4_14 C6_14 1_555 1_555
C7_14 C5_14 1_555 1_555
C8_14 C9_14 1_555 1_555
C9_14 H5_14 1_555 1_555
C10_14 C8_14 1_555 1_555
H6_14 C10_14 1_555 1_555
C11_14 C9_14 1_555 1_555
H7_14 C11_14 1_555 1_555
C12_14 C10_14 1_555 1_555
H8_14 C12_14 1_555 1_555
C13_14 C11_14 1_555 1_555
C14_14 C13_14 1_555 1_555
O8_10 C1_14 1_555 1_555
O2_14 C1_14 1_555 1_555
O3_14 C7_14 1_555 1_555
O13_3 C14_14 1_555 1_555
O16_16 C14_14 1_555 1_555
C15_14 C16_14 1_555 1_555
C16_14 C17_14 1_555 1_555
C17_14 H9_14 1_555 1_555
C18_14 C16_14 1_555 1_555
H10_14 C18_14 1_555 1_555
C19_14 C17_14 1_555 1_555
H11_14 C19_14 1_555 1_555
C20_14 C18_14 1_555 1_555
H12_14 C20_14 1_555 1_555
C21_14 C19_14 1_555 1_555
C22_14 C23_14 1_555 1_555
C23_14 H13_14 1_555 1_555
C24_14 C22_14 1_555 1_555
H14_14 C24_14 1_555 1_555
C25_14 C23_14 1_555 1_555
H15_14 C25_14 1_555 1_555
C26_14 C24_14 1_555 1_555
H16_14 C26_14 1_555 1_555
C27_14 C25_14 1_555 1_555
C28_14 C27_14 1_555 1_555
O8_9 C15_14 1_555 1_555
O9_14 In6_4 1_555 1_555
O10_14 C21_14 1_555 1_555
O13_4 C28_14 1_555 1_555
O16_15 C28_14 1_555 1_555
O18_9 In6_4 1_555 1_555
In6_4 O18_10 1_555 1_555
C6_14 C7_14 1_555 1_555
C8_14 O3_14 1_555 1_555
C12_14 C13_14 1_555 1_555
C15_14 O9_14 1_555 1_555
C20_14 C21_14 1_555 1_555
C22_14 O10_14 1_555 1_555
C26_14 C27_14 1_555 1_555
C24_15 C22_15 1_555 1_555
H14_15 C24_15 1_555 1_555
H15_15 C25_15 1_555 1_555
C26_15 C24_15 1_555 1_555
H16_15 C26_15 1_555 1_555
C27_15 C25_15 1_555 1_555
C28_15 C27_15 1_555 1_555
O13_5 C28_15 1_555 1_555
O16_10 C28_15 1_555 1_555
C26_15 C27_15 1_555 1_555
In6 O2_15 1_555 1_555
C1_15 C2_15 1_555 1_555
C2_15 C3_15 1_555 1_555
C3_15 H1_15 1_555 1_555
C4_15 C2_15 1_555 1_555
H2_15 C4_15 1_555 1_555
C5_15 C3_15 1_555 1_555
H3_15 C5_15 1_555 1_555
C6_15 C4_15 1_555 1_555
H4_15 C6_15 1_555 1_555
C7_15 C5_15 1_555 1_555
C8_15 C9_15 1_555 1_555
C9_15 H5_15 1_555 1_555
C10_15 C8_15 1_555 1_555
H6_15 C10_15 1_555 1_555
C11_15 C9_15 1_555 1_555
H7_15 C11_15 1_555 1_555
C12_15 C10_15 1_555 1_555
H8_15 C12_15 1_555 1_555
C13_15 C11_15 1_555 1_555
C14_15 C13_15 1_555 1_555
O8_15 C1_15 1_555 1_555
O2_15 C1_15 1_555 1_555
O3_15 C7_15 1_555 1_555
O13_6 C14_15 1_555 1_555
O16_9 C14_15 1_555 1_555
C15_15 C16_15 1_555 1_555
C16_15 C17_15 1_555 1_555
C17_15 H9_15 1_555 1_555
C18_15 C16_15 1_555 1_555
H10_15 C18_15 1_555 1_555
C19_15 C17_15 1_555 1_555
H11_15 C19_15 1_555 1_555
C20_15 C18_15 1_555 1_555
C21_15 C19_15 1_555 1_555
C23_15 H13_15 1_555 1_555
O8_16 C15_15 1_555 1_555
O9_15 In6 1_555 1_555
O10_15 C21_15 1_555 1_555
O18_16 In6 1_555 1_555
In6 O18_15 1_555 1_555
C6_15 C7_15 1_555 1_555
C8_15 O3_15 1_555 1_555
C12_15 C13_15 1_555 1_555
C15_15 O9_15 1_555 1_555
C20_15 C21_15 1_555 1_555
C3_16 H1_16 1_555 1_555
C5_16 C3_16 1_555 1_555
H3_16 C5_16 1_555 1_555
In7 O2_16 1_555 1_555
C1_16 C2_16 1_555 1_555
C4_16 C2_16 1_555 1_555
H2_16 C4_16 1_555 1_555
C6_16 C4_16 1_555 1_555
H4_16 C6_16 1_555 1_555
C8_16 C9_16 1_555 1_555
C9_16 H5_16 1_555 1_555
C10_16 C8_16 1_555 1_555
H6_16 C10_16 1_555 1_555
C11_16 C9_16 1_555 1_555
H7_16 C11_16 1_555 1_555
C12_16 C10_16 1_555 1_555
H8_16 C12_16 1_555 1_555
C13_16 C11_16 1_555 1_555
C14_16 C13_16 1_555 1_555
O8_4 C1_16 1_555 1_555
O2_16 C1_16 1_555 1_555
O3_16 C7_16 1_555 1_555
O12_6 C14_16 1_555 1_555
O16_6 C14_16 1_555 1_555
C15_16 C16_16 1_555 1_555
C16_16 C17_16 1_555 1_555
C17_16 H9_16 1_555 1_555
C18_16 C16_16 1_555 1_555
H10_16 C18_16 1_555 1_555
C19_16 C17_16 1_555 1_555
H11_16 C19_16 1_555 1_555
C20_16 C18_16 1_555 1_555
H12_16 C20_16 1_555 1_555
C21_16 C19_16 1_555 1_555
C22_16 C23_16 1_555 1_555
C23_16 H13_16 1_555 1_555
C24_16 C22_16 1_555 1_555
H14_16 C24_16 1_555 1_555
C25_16 C23_16 1_555 1_555
H15_16 C25_16 1_555 1_555
C26_16 C24_16 1_555 1_555
H16_16 C26_16 1_555 1_555
C27_16 C25_16 1_555 1_555
C28_16 C27_16 1_555 1_555
O8_3 C15_16 1_555 1_555
O9_16 In7 1_555 1_555
O10_16 C21_16 1_555 1_555
O16_5 C28_16 1_555 1_555
O18_3 In7 1_555 1_555
In7 O18_4 1_555 1_555
C6_16 C7_16 1_555 1_555
C8_16 O3_16 1_555 1_555
C12_16 C13_16 1_555 1_555
C15_16 O9_16 1_555 1_555
C20_16 C21_16 1_555 1_555
C22_16 O10_16 1_555 1_555
C26_16 C27_16 1_555 1_555

#END
