
###############################################################################
#
# This file contains modified crystal structure data generated from the
# MOF subset of the Cambridge Structural Database (CSD) v543 
# hosted by the Cambridge Crystallographic Data Centre (CCDC).
#
# This work is licensed under the Creative Commons
# Attribution-NonCommercial-ShareAlike 4.0 International License.
# To view a copy of this license, visit
# http://creativecommons.org/licenses/by-nc-sa/4.0/
# or send a letter to
# Creative Commons, PO Box 1866, Mountain View, CA 94042, USA.
#
# CIF created using the CSD Python API on 29 September 2022
# The structure has been converted into the P1 space group
# The structure has a 3D framework
# The original CSD entry MAFJIO is in the hexagonal crystal system
# The original CSD entry MAFJIO is in a Sohncke space group
# The framework has been calculated to contain at least 10.0% void space
# The void calculation uses a probe of radius 1.32A, grid spacing 0.4
# H atom positions have been added when not included in the experimental data
# Generated hydrogen atom positions removed from atoms on special positions
#
###############################################################################

data_MAFJIO
_chemical_formula_moiety         '(C114 H120 Cu12 O60)n'
_symmetry_cell_setting           triclinic
_symmetry_space_group_name_H-M   'P 1'
_symmetry_Int_Tables_number      1
_space_group_name_Hall           'P 1'
loop_
_symmetry_equiv_pos_site_id
_symmetry_equiv_pos_as_xyz
1 x,y,z
_cell_length_a                   18.5773(3)
_cell_length_b                   18.5773(3)
_cell_length_c                   22.6933(5)
_cell_angle_alpha                90
_cell_angle_beta                 90
_cell_angle_gamma                120
_cell_volume                     6782.56
loop_
_atom_site_label
_atom_site_type_symbol
_atom_site_fract_x
_atom_site_fract_y
_atom_site_fract_z
Cu2 Cu 0.501979(19) 0.045646(17) 0.048797(18)
Cu4 Cu 0.543667(25) 0.045646(17) 0.451203(18)
O10 O 0.46804(16) 0.11552(10) 0.00950(9)
O16 O 0.60927(11) 0.10415(11) 0.00657(10)
O18 O 0.53381(19) 0.11057(16) 0.13146(13)
O1 O 0.03215(10) 0.61579(11) 0.42966(8)
O2 O 0.11552(10) 0.64748(12) 0.50950(9)
O3 O 0.43281(11) 0.96838(12) 0.42290(9)
O4 O 0.39073(11) 0.89585(11) 0.50657(10)
O5 O 0.16934(12) 0.89686(12) 0.32085(10)
C1 C 0.37896(15) 0.91361(15) 0.45564(15)
C2 C 0.09551(15) 0.66327(15) 0.45977(13)
C3 C 0.26796(16) 0.89929(16) 0.38580(14)
H1 H 0.3076 0.9504 0.3683
C4 C 0.29195(16) 0.86686(16) 0.43187(13)
C5 C 0.23443(15) 0.79083(16) 0.45738(14)
H2 H 0.2497 0.7695 0.4901
C6 C 0.15441(15) 0.74696(15) 0.43388(13)
C7 C 0.12880(16) 0.77933(15) 0.38780(12)
H3 H 0.0740 0.7491 0.3724
C8 C 0.18673(16) 0.85818(17) 0.36483(13)
C9 C 0.08484(17) 0.85766(18) 0.30141(14)
H4 H 0.0479 0.8566 0.3332
H5 H 0.0654 0.8001 0.2881
C10 C 0.08748(15) 0.91252(15) 0.2500
H6 H 0.1085 0.9698 0.2647
Cu3 Cu 0.045646(17) 0.543667(25) 0.548797(18)
Cu5 Cu 0.498021(19) 0.954354(17) 0.548797(18)
O7 O 0.38421(11) 0.96785(10) 0.07034(8)
O11 O 0.03162(12) 0.56719(11) 0.07710(9)
O12 O 0.03162(12) 0.46443(16) 0.42290(9)
O13 O 0.53557(16) 0.96838(12) 0.07710(9)
O17 O 0.10314(12) 0.83066(12) 0.17915(10)
C11 C 0.08639(15) 0.62104(15) 0.04436(15)
C12 C 0.33673(15) 0.90449(15) 0.04023(13)
C13 C 0.10071(16) 0.73204(16) 0.11420(14)
H7 H 0.0496 0.6924 0.1317
C14 C 0.13314(16) 0.70805(16) 0.06813(13)
C15 C 0.20917(16) 0.76557(15) 0.04262(14)
H8 H 0.2305 0.7503 0.0099
C16 C 0.25304(15) 0.84559(15) 0.06612(13)
C17 C 0.22067(15) 0.87120(16) 0.11220(12)
H9 H 0.2509 0.9260 0.1276
C18 C 0.14182(17) 0.81327(16) 0.13517(13)
C19 C 0.14234(18) 0.91516(17) 0.19859(14)
H10 H 0.1434 0.9521 0.1668
H11 H 0.1999 0.9346 0.2119
H12 H 0.0302 0.8915 0.2353
Cu7 Cu 0.045646(17) 0.501979(19) 0.951203(18)
Cu8 Cu 0.456333(25) 0.954354(17) 0.951203(18)
O8 O 0.35252(12) 0.88448(10) 0.99050(9)
O14 O 0.10415(11) 0.60927(11) 0.99343(10)
Cu1 Cu 0.954354(17) 0.498021(19) 0.451203(18)
O6 O 0.88943(16) 0.46619(19) 0.36854(13)
Cu6 Cu 0.954354(17) 0.456333(25) 0.048797(18)
O9 O 0.88448(10) 0.53196(16) 0.49050(9)
O15 O 0.89585(11) 0.39073(11) 0.49343(10)
O6_2 O 0.11057(16) 0.53381(19) 0.86854(13)
O9_2 O 0.11552(10) 0.46804(16) 0.99050(9)
O2_2 O 0.88448(10) 0.35252(12) 0.00950(9)
O1_2 O 0.96785(10) 0.38421(11) 0.92966(8)
O3_2 O 0.56719(11) 0.03162(12) 0.92290(9)
O5_2 O 0.83066(12) 0.10314(12) 0.82085(10)
C1_2 C 0.62104(15) 0.08639(15) 0.95564(15)
C2_2 C 0.90449(15) 0.33673(15) 0.95977(13)
C3_2 C 0.73204(16) 0.10071(16) 0.88580(14)
H1_2 H 0.6924 0.0496 0.8683
C4_2 C 0.70805(16) 0.13314(16) 0.93187(13)
C5_2 C 0.76557(15) 0.20917(16) 0.95738(14)
H2_2 H 0.7503 0.2305 0.9901
C6_2 C 0.84559(15) 0.25304(15) 0.93388(13)
C7_2 C 0.87120(16) 0.22067(15) 0.88780(12)
H3_2 H 0.9260 0.2509 0.8724
C8_2 C 0.81327(16) 0.14182(17) 0.86483(13)
C9_2 C 0.91516(17) 0.14234(18) 0.80141(14)
H4_2 H 0.9521 0.1434 0.8332
H5_2 H 0.9346 0.1999 0.7881
C10_2 C 0.91252(15) 0.08748(15) 0.7500
H6_2 H 0.8915 0.0302 0.7647
O7_2 O 0.61579(11) 0.03215(10) 0.57034(8)
O8_2 O 0.64748(12) 0.11552(10) 0.49050(9)
O11_2 O 0.96838(12) 0.43281(11) 0.57710(9)
O12_2 O 0.96838(12) 0.53557(16) 0.92290(9)
O13_2 O 0.46443(16) 0.03162(12) 0.57710(9)
O17_2 O 0.89686(12) 0.16934(12) 0.67915(10)
C11_2 C 0.91361(15) 0.37896(15) 0.54436(15)
C12_2 C 0.66327(15) 0.09551(15) 0.54023(13)
C13_2 C 0.89929(16) 0.26796(16) 0.61420(14)
H7_2 H 0.9504 0.3076 0.6317
C14_2 C 0.86686(16) 0.29195(16) 0.56813(13)
C15_2 C 0.79083(16) 0.23443(15) 0.54262(14)
H8_2 H 0.7695 0.2497 0.5099
C16_2 C 0.74696(15) 0.15441(15) 0.56612(13)
C17_2 C 0.77933(15) 0.12880(16) 0.61220(12)
H9_2 H 0.7491 0.0740 0.6276
C18_2 C 0.85818(17) 0.18673(16) 0.63517(13)
C19_2 C 0.85766(18) 0.08484(17) 0.69859(14)
H10_2 H 0.8566 0.0479 0.6668
H11_2 H 0.8001 0.0654 0.7119
H12_2 H 0.9698 0.1085 0.7353
O10_2 O 0.53196(16) 0.88448(10) 0.50950(9)
O18_2 O 0.46619(19) 0.88943(16) 0.63146(13)
Cu1_2 Cu 0.501979(19) 0.456333(25) 0.451203(18)
O1_3 O 0.38421(11) 0.41636(15) 0.42966(8)
O2_3 O 0.35252(12) 0.46804(16) 0.50950(9)
O4_2 O 0.10415(11) 0.49488(16) 0.50657(10)
O5_3 O 0.10314(12) 0.27248(17) 0.32085(10)
O6_3 O 0.53381(19) 0.42324(25) 0.36854(13)
C1_3 C 0.08639(15) 0.46535(21) 0.45564(15)
C2_3 C 0.33673(15) 0.43224(21) 0.45977(13)
C3_3 C 0.10071(16) 0.36867(23) 0.38580(14)
H1_3 H 0.0496 0.3572 0.3683
C4_3 C 0.13314(16) 0.42509(23) 0.43187(13)
C5_3 C 0.20917(16) 0.44360(22) 0.45738(14)
H2_3 H 0.2305 0.4802 0.4901
C6_3 C 0.25304(15) 0.40745(21) 0.43388(13)
C7_3 C 0.22067(15) 0.34947(22) 0.38780(12)
H3_3 H 0.2509 0.3249 0.3724
C8_3 C 0.14182(17) 0.32855(23) 0.36483(13)
C9_3 C 0.14234(18) 0.22718(25) 0.30141(14)
H4_3 H 0.1434 0.1913 0.3332
H5_3 H 0.1999 0.2653 0.2881
C10_3 C 0.08748(15) 0.17496(21) 0.2500
H6_3 H 0.0302 0.1387 0.2647
Cu3_2 Cu 0.456333(25) 0.501979(30) 0.548797(18)
Cu6_2 Cu 0.543667(25) 0.498021(30) 0.048797(18)
O7_3 O 0.03215(10) 0.41636(15) 0.07034(8)
O9_3 O 0.46804(16) 0.35252(19) 0.49050(9)
O11_3 O 0.43281(11) 0.46443(16) 0.07710(9)
O12_3 O 0.53557(16) 0.56719(20) 0.42290(9)
O15_2 O 0.60927(11) 0.50512(16) 0.49343(10)
O17_3 O 0.16934(12) 0.27248(17) 0.17915(10)
C11_3 C 0.37896(15) 0.46535(21) 0.04436(15)
C12_3 C 0.09551(15) 0.43224(21) 0.04023(13)
C13_3 C 0.26796(16) 0.36867(23) 0.11420(14)
H7_3 H 0.3076 0.3572 0.1317
C14_3 C 0.29195(16) 0.42509(23) 0.06813(13)
C15_3 C 0.23443(15) 0.44360(22) 0.04262(14)
H8_3 H 0.2497 0.4802 0.0099
C16_3 C 0.15441(15) 0.40745(21) 0.06612(13)
C17_3 C 0.12880(16) 0.34947(22) 0.11220(12)
H9_3 H 0.0740 0.3249 0.1276
C18_3 C 0.18673(16) 0.32855(23) 0.13517(13)
C19_3 C 0.08484(17) 0.22718(25) 0.19859(14)
H10_3 H 0.0479 0.1913 0.1668
H11_3 H 0.0654 0.2653 0.2119
H12_3 H 0.1085 0.1387 0.2353
Cu7_2 Cu 0.498021(19) 0.543667(25) 0.951203(18)
O14_2 O 0.39073(11) 0.49488(16) 0.99343(10)
O16_2 O 0.89585(11) 0.50512(16) 0.00657(10)
O18_3 O 0.88943(16) 0.42324(25) 0.13146(13)
O6_4 O 0.57676(25) 0.11057(16) 0.36854(13)
O15_3 O 0.49488(16) 0.10415(11) 0.49343(10)
O1_4 O 0.58364(15) 0.96785(10) 0.42966(8)
O4_3 O 0.50512(16) 0.60927(11) 0.50657(10)
O5_4 O 0.72752(17) 0.83066(12) 0.32085(10)
C1_4 C 0.53465(21) 0.62104(15) 0.45564(15)
C2_4 C 0.56776(21) 0.90449(15) 0.45977(13)
C3_4 C 0.63133(23) 0.73204(16) 0.38580(14)
H1_4 H 0.6428 0.6924 0.3683
C4_4 C 0.57491(23) 0.70805(16) 0.43187(13)
C5_4 C 0.55640(22) 0.76557(15) 0.45738(14)
H2_4 H 0.5198 0.7503 0.4901
C6_4 C 0.59255(21) 0.84559(15) 0.43388(13)
C7_4 C 0.65053(22) 0.87120(16) 0.38780(12)
H3_4 H 0.6751 0.9260 0.3724
C8_4 C 0.67145(23) 0.81327(16) 0.36483(13)
C9_4 C 0.77282(25) 0.91516(17) 0.30141(14)
H4_4 H 0.8087 0.9521 0.3332
H5_4 H 0.7347 0.9346 0.2881
C10_4 C 0.82504(21) 0.91252(15) 0.2500
H6_4 H 0.8613 0.8915 0.2647
O7_4 O 0.58364(15) 0.61579(11) 0.07034(8)
O10_3 O 0.64748(19) 0.53196(16) 0.00950(9)
O16_3 O 0.49488(16) 0.39073(11) 0.00657(10)
O17_4 O 0.72752(17) 0.89686(12) 0.17915(10)
O18_4 O 0.57676(25) 0.46619(19) 0.13146(13)
C11_4 C 0.53465(21) 0.91361(15) 0.04436(15)
C12_4 C 0.56776(21) 0.66327(15) 0.04023(13)
C13_4 C 0.63133(23) 0.89929(16) 0.11420(14)
H7_4 H 0.6428 0.9504 0.1317
C14_4 C 0.57491(23) 0.86686(16) 0.06813(13)
C15_4 C 0.55640(22) 0.79083(16) 0.04262(14)
H8_4 H 0.5198 0.7695 0.0099
C16_4 C 0.59255(21) 0.74696(15) 0.06612(13)
C17_4 C 0.65053(22) 0.77933(15) 0.11220(12)
H9_4 H 0.6751 0.7491 0.1276
C18_4 C 0.67145(23) 0.85818(17) 0.13517(13)
C19_4 C 0.77282(25) 0.85766(18) 0.19859(14)
H10_4 H 0.8087 0.8566 0.1668
H11_4 H 0.7347 0.8001 0.2119
H12_4 H 0.8613 0.9698 0.2353
O8_3 O 0.53196(16) 0.64748(12) 0.99050(9)
O14_3 O 0.50512(16) 0.89585(11) 0.99343(10)
O1_5 O 0.41636(15) 0.03215(10) 0.92966(8)
O3_3 O 0.46443(16) 0.43281(11) 0.92290(9)
O5_5 O 0.27248(17) 0.16934(12) 0.82085(10)
C1_5 C 0.46535(21) 0.37896(15) 0.95564(15)
C2_5 C 0.43224(21) 0.09551(15) 0.95977(13)
C3_5 C 0.36867(23) 0.26796(16) 0.88580(14)
H1_5 H 0.3572 0.3076 0.8683
C4_5 C 0.42509(23) 0.29195(16) 0.93187(13)
C5_5 C 0.44360(22) 0.23443(15) 0.95738(14)
H2_5 H 0.4802 0.2497 0.9901
C6_5 C 0.40745(21) 0.15441(15) 0.93388(13)
C7_5 C 0.34947(22) 0.12880(16) 0.88780(12)
H3_5 H 0.3249 0.0740 0.8724
C8_5 C 0.32855(23) 0.18673(16) 0.86483(13)
C9_5 C 0.22718(25) 0.08484(17) 0.80141(14)
H4_5 H 0.1913 0.0479 0.8332
H5_5 H 0.2653 0.0654 0.7881
C10_5 C 0.17496(21) 0.08748(15) 0.7500
H6_5 H 0.1387 0.1085 0.7647
O7_5 O 0.41636(15) 0.38421(11) 0.57034(8)
O13_3 O 0.56719(20) 0.53557(16) 0.57710(9)
O17_5 O 0.27248(17) 0.10314(12) 0.67915(10)
O18_5 O 0.42324(25) 0.53381(19) 0.63146(13)
C11_5 C 0.46535(21) 0.08639(15) 0.54436(15)
C12_5 C 0.43224(21) 0.33673(15) 0.54023(13)
C13_5 C 0.36867(23) 0.10071(16) 0.61420(14)
H7_5 H 0.3572 0.0496 0.6317
C14_5 C 0.42509(23) 0.13314(16) 0.56813(13)
C15_5 C 0.44360(22) 0.20917(16) 0.54262(14)
H8_5 H 0.4802 0.2305 0.5099
C16_5 C 0.40745(21) 0.25304(15) 0.56612(13)
C17_5 C 0.34947(22) 0.22067(15) 0.61220(12)
H9_5 H 0.3249 0.2509 0.6276
C18_5 C 0.32855(23) 0.14182(17) 0.63517(13)
C19_5 C 0.22718(25) 0.14234(18) 0.69859(14)
H10_5 H 0.1913 0.1434 0.6668
H11_5 H 0.2653 0.1999 0.7119
H12_5 H 0.1387 0.0302 0.7353
O6_5 O 0.42324(25) 0.88943(16) 0.86854(13)
O18_6 O 0.11057(16) 0.57676(25) 0.63146(13)
O1_6 O 0.61579(11) 0.58364(15) 0.92966(8)
O5_6 O 0.89686(12) 0.72752(17) 0.82085(10)
O6_6 O 0.46619(19) 0.57676(25) 0.86854(13)
C1_6 C 0.91361(15) 0.53465(21) 0.95564(15)
C2_6 C 0.66327(15) 0.56776(21) 0.95977(13)
C3_6 C 0.89929(16) 0.63133(23) 0.88580(14)
H1_6 H 0.9504 0.6428 0.8683
C4_6 C 0.86686(16) 0.57491(23) 0.93187(13)
C5_6 C 0.79083(16) 0.55640(22) 0.95738(14)
H2_6 H 0.7695 0.5198 0.9901
C6_6 C 0.74696(15) 0.59255(21) 0.93388(13)
C7_6 C 0.77933(15) 0.65053(22) 0.88780(12)
H3_6 H 0.7491 0.6751 0.8724
C8_6 C 0.85818(17) 0.67145(23) 0.86483(13)
C9_6 C 0.85766(18) 0.77282(25) 0.80141(14)
H4_6 H 0.8566 0.8087 0.8332
H5_6 H 0.8001 0.7347 0.7881
C10_6 C 0.91252(15) 0.82504(21) 0.7500
H6_6 H 0.9698 0.8613 0.7647
O7_6 O 0.96785(10) 0.58364(15) 0.57034(8)
O17_6 O 0.83066(12) 0.72752(17) 0.67915(10)
C11_6 C 0.62104(15) 0.53465(21) 0.54436(15)
C12_6 C 0.90449(15) 0.56776(21) 0.54023(13)
C13_6 C 0.73204(16) 0.63133(23) 0.61420(14)
H7_6 H 0.6924 0.6428 0.6317
C14_6 C 0.70805(16) 0.57491(23) 0.56813(13)
C15_6 C 0.76557(15) 0.55640(22) 0.54262(14)
H8_6 H 0.7503 0.5198 0.5099
C16_6 C 0.84559(15) 0.59255(21) 0.56612(13)
C17_6 C 0.87120(16) 0.65053(22) 0.61220(12)
H9_6 H 0.9260 0.6751 0.6276
C18_6 C 0.81327(16) 0.67145(23) 0.63517(13)
C19_6 C 0.91516(17) 0.77282(25) 0.69859(14)
H10_6 H 0.9521 0.8087 0.6668
H11_6 H 0.9346 0.7347 0.7119
H12_6 H 0.8915 0.8613 0.7353
loop_
_geom_bond_atom_site_label_1
_geom_bond_atom_site_label_2
_geom_bond_site_symmetry_1
_geom_bond_site_symmetry_2
O10 Cu2 1_555 1_555
O16 Cu2 1_555 1_555
O18 Cu2 1_555 1_555
O1 C2 1_555 1_555
O2 C2 1_555 1_555
O3 C1 1_555 1_555
O4 C1 1_555 1_555
O5 C8 1_555 1_555
C1 C4 1_555 1_555
C2 C6 1_555 1_555
C3 H1 1_555 1_555
C4 C3 1_555 1_555
C5 C4 1_555 1_555
H2 C5 1_555 1_555
C6 C5 1_555 1_555
C7 C6 1_555 1_555
H3 C7 1_555 1_555
C8 C3 1_555 1_555
C9 O5 1_555 1_555
H4 C9 1_555 1_555
H5 C9 1_555 1_555
C10 C9 1_555 1_555
H6 C10 1_555 1_555
Cu5 O4 1_555 1_555
O17 C18 1_555 1_555
C11 O11 1_555 1_555
C12 O7 1_555 1_555
C13 H7 1_555 1_555
C14 C11 1_555 1_555
C15 C14 1_555 1_555
H8 C15 1_555 1_555
C16 C12 1_555 1_555
C17 C16 1_555 1_555
H9 C17 1_555 1_555
C18 C13 1_555 1_555
C19 C10 1_555 1_555
H10 C19 1_555 1_555
H11 C19 1_555 1_555
H12 C10 1_555 1_555
O2 Cu3 1_555 1_555
C7 C8 1_555 1_555
O17 C19 1_555 1_555
C13 C14 1_555 1_555
C15 C16 1_555 1_555
C17 C18 1_555 1_555
Cu7 O14 1_555 1_555
Cu8 O8 1_555 1_555
O6 Cu1 1_555 1_555
O9 Cu1 1_555 1_555
O15 Cu1 1_555 1_555
O6_2 Cu7 1_555 1_555
O9_2 Cu7 1_555 1_555
O2_2 Cu6 1_555 1_555
O1_2 C2_2 1_555 1_555
O3_2 C1_2 1_555 1_555
O5_2 C8_2 1_555 1_555
C1_2 C4_2 1_555 1_555
C2_2 C6_2 1_555 1_555
C3_2 H1_2 1_555 1_555
C4_2 C3_2 1_555 1_555
C5_2 C4_2 1_555 1_555
H2_2 C5_2 1_555 1_555
C6_2 C5_2 1_555 1_555
C7_2 C6_2 1_555 1_555
H3_2 C7_2 1_555 1_555
C8_2 C3_2 1_555 1_555
C9_2 O5_2 1_555 1_555
H4_2 C9_2 1_555 1_555
H5_2 C9_2 1_555 1_555
C10_2 C9_2 1_555 1_555
H6_2 C10_2 1_555 1_555
Cu4 O8_2 1_555 1_555
O8_2 C12_2 1_555 1_555
O15 C11_2 1_555 1_555
O17_2 C18_2 1_555 1_555
C11_2 O11_2 1_555 1_555
C12_2 O7_2 1_555 1_555
C13_2 H7_2 1_555 1_555
C14_2 C11_2 1_555 1_555
C15_2 C14_2 1_555 1_555
H8_2 C15_2 1_555 1_555
C16_2 C12_2 1_555 1_555
C17_2 C16_2 1_555 1_555
H9_2 C17_2 1_555 1_555
C18_2 C13_2 1_555 1_555
C19_2 C10_2 1_555 1_555
H10_2 C19_2 1_555 1_555
H11_2 C19_2 1_555 1_555
H12_2 C10_2 1_555 1_555
C7_2 C8_2 1_555 1_555
O17_2 C19_2 1_555 1_555
C13_2 C14_2 1_555 1_555
C15_2 C16_2 1_555 1_555
C17_2 C18_2 1_555 1_555
O10_2 Cu5 1_555 1_555
O18_2 Cu5 1_555 1_555
Cu1_2 O1_3 1_555 1_555
O1_3 C2_3 1_555 1_555
O2_3 C2_3 1_555 1_555
O12 C1_3 1_555 1_555
O4_2 C1_3 1_555 1_555
O5_3 C8_3 1_555 1_555
O6_3 Cu1_2 1_555 1_555
C1_3 C4_3 1_555 1_555
C2_3 C6_3 1_555 1_555
C3_3 H1_3 1_555 1_555
C4_3 C3_3 1_555 1_555
C5_3 C4_3 1_555 1_555
H2_3 C5_3 1_555 1_555
C6_3 C5_3 1_555 1_555
C7_3 C6_3 1_555 1_555
H3_3 C7_3 1_555 1_555
C8_3 C3_3 1_555 1_555
C9_3 O5_3 1_555 1_555
H4_3 C9_3 1_555 1_555
H5_3 C9_3 1_555 1_555
C10_3 C9_3 1_555 1_555
H6_3 C10_3 1_555 1_555
Cu3_2 Cu1_2 1_555 1_555
Cu3 O4_2 1_555 1_555
O9_3 Cu1_2 1_555 1_555
O11_3 Cu6_2 1_555 1_555
O12_3 Cu1_2 1_555 1_555
O15_2 Cu1_2 1_555 1_555
O17_3 C18_3 1_555 1_555
C11_3 O11_3 1_555 1_555
C12_3 O7_3 1_555 1_555
C13_3 H7_3 1_555 1_555
C14_3 C11_3 1_555 1_555
C15_3 C14_3 1_555 1_555
H8_3 C15_3 1_555 1_555
C16_3 C12_3 1_555 1_555
C17_3 C16_3 1_555 1_555
H9_3 C17_3 1_555 1_555
C18_3 C13_3 1_555 1_555
C19_3 C10_3 1_555 1_555
H10_3 C19_3 1_555 1_555
H11_3 C19_3 1_555 1_555
H12_3 C10_3 1_555 1_555
O2_3 Cu3_2 1_555 1_555
C7_3 C8_3 1_555 1_555
O17_3 C19_3 1_555 1_555
C13_3 C14_3 1_555 1_555
C15_3 C16_3 1_555 1_555
C17_3 C18_3 1_555 1_555
Cu7_2 O14_2 1_555 1_555
O16_2 Cu6 1_555 1_555
O18_3 Cu6 1_555 1_555
O6_4 Cu4 1_555 1_555
O15_3 Cu4 1_555 1_555
O1_4 C2_4 1_555 1_555
O10_2 C2_4 1_555 1_555
O12_3 C1_4 1_555 1_555
O4_3 C1_4 1_555 1_555
O5_4 C8_4 1_555 1_555
C1_4 C4_4 1_555 1_555
C2_4 C6_4 1_555 1_555
C3_4 H1_4 1_555 1_555
C4_4 C3_4 1_555 1_555
C5_4 C4_4 1_555 1_555
H2_4 C5_4 1_555 1_555
C6_4 C5_4 1_555 1_555
C7_4 C6_4 1_555 1_555
H3_4 C7_4 1_555 1_555
C8_4 C3_4 1_555 1_555
C9_4 O5_4 1_555 1_555
H4_4 C9_4 1_555 1_555
H5_4 C9_4 1_555 1_555
C10_4 C9_4 1_555 1_555
H6_4 C10_4 1_555 1_555
Cu3_2 O4_3 1_555 1_555
O7_4 Cu6_2 1_555 1_555
O10_3 Cu6_2 1_555 1_555
O16_3 Cu6_2 1_555 1_555
O17_4 C18_4 1_555 1_555
O18_4 Cu6_2 1_555 1_555
C11_4 O13 1_555 1_555
C12_4 O7_4 1_555 1_555
C13_4 H7_4 1_555 1_555
C14_4 C11_4 1_555 1_555
C15_4 C14_4 1_555 1_555
H8_4 C15_4 1_555 1_555
C16_4 C12_4 1_555 1_555
C17_4 C16_4 1_555 1_555
H9_4 C17_4 1_555 1_555
C18_4 C13_4 1_555 1_555
C19_4 C10_4 1_555 1_555
H10_4 C19_4 1_555 1_555
H11_4 C19_4 1_555 1_555
H12_4 C10_4 1_555 1_555
C7_4 C8_4 1_555 1_555
O17_4 C19_4 1_555 1_555
C13_4 C14_4 1_555 1_555
C15_4 C16_4 1_555 1_555
C17_4 C18_4 1_555 1_555
Cu8 O14_3 1_555 1_555
Cu7_2 O8_3 1_555 1_555
O1_5 C2_5 1_555 1_555
O3_3 C1_5 1_555 1_555
O5_5 C8_5 1_555 1_555
C1_5 C4_5 1_555 1_555
C2_5 C6_5 1_555 1_555
C3_5 H1_5 1_555 1_555
C4_5 C3_5 1_555 1_555
C5_5 C4_5 1_555 1_555
H2_5 C5_5 1_555 1_555
C6_5 C5_5 1_555 1_555
C7_5 C6_5 1_555 1_555
H3_5 C7_5 1_555 1_555
C8_5 C3_5 1_555 1_555
C9_5 O5_5 1_555 1_555
H4_5 C9_5 1_555 1_555
H5_5 C9_5 1_555 1_555
C10_5 C9_5 1_555 1_555
H6_5 C10_5 1_555 1_555
Cu7_2 O3_3 1_555 1_555
O7_5 Cu3_2 1_555 1_555
O9_3 C12_5 1_555 1_555
O13_3 Cu3_2 1_555 1_555
O15_3 C11_5 1_555 1_555
O17_5 C18_5 1_555 1_555
O18_5 Cu3_2 1_555 1_555
C11_5 O13_2 1_555 1_555
C12_5 O7_5 1_555 1_555
C13_5 H7_5 1_555 1_555
C14_5 C11_5 1_555 1_555
C15_5 C14_5 1_555 1_555
H8_5 C15_5 1_555 1_555
C16_5 C12_5 1_555 1_555
C17_5 C16_5 1_555 1_555
H9_5 C17_5 1_555 1_555
C18_5 C13_5 1_555 1_555
C19_5 C10_5 1_555 1_555
H10_5 C19_5 1_555 1_555
H11_5 C19_5 1_555 1_555
H12_5 C10_5 1_555 1_555
C7_5 C8_5 1_555 1_555
O17_5 C19_5 1_555 1_555
C13_5 C14_5 1_555 1_555
C15_5 C16_5 1_555 1_555
C17_5 C18_5 1_555 1_555
O6_5 Cu8 1_555 1_555
O18_6 Cu3 1_555 1_555
Cu7_2 O1_6 1_555 1_555
O1_6 C2_6 1_555 1_555
O12_2 C1_6 1_555 1_555
O5_6 C8_6 1_555 1_555
O6_6 Cu7_2 1_555 1_555
C1_6 C4_6 1_555 1_555
C2_6 C6_6 1_555 1_555
C3_6 H1_6 1_555 1_555
C4_6 C3_6 1_555 1_555
C5_6 C4_6 1_555 1_555
H2_6 C5_6 1_555 1_555
C6_6 C5_6 1_555 1_555
C7_6 C6_6 1_555 1_555
H3_6 C7_6 1_555 1_555
C8_6 C3_6 1_555 1_555
C9_6 O5_6 1_555 1_555
H4_6 C9_6 1_555 1_555
H5_6 C9_6 1_555 1_555
C10_6 C9_6 1_555 1_555
H6_6 C10_6 1_555 1_555
O9 C12_6 1_555 1_555
O15_2 C11_6 1_555 1_555
O17_6 C18_6 1_555 1_555
C11_6 O13_3 1_555 1_555
C12_6 O7_6 1_555 1_555
C13_6 H7_6 1_555 1_555
C14_6 C11_6 1_555 1_555
C15_6 C14_6 1_555 1_555
H8_6 C15_6 1_555 1_555
C16_6 C12_6 1_555 1_555
C17_6 C16_6 1_555 1_555
H9_6 C17_6 1_555 1_555
C18_6 C13_6 1_555 1_555
C19_6 C10_6 1_555 1_555
H10_6 C19_6 1_555 1_555
H11_6 C19_6 1_555 1_555
H12_6 C10_6 1_555 1_555
C7_6 C8_6 1_555 1_555
O17_6 C19_6 1_555 1_555
C13_6 C14_6 1_555 1_555
C15_6 C16_6 1_555 1_555
C17_6 C18_6 1_555 1_555

#END
