
###############################################################################
#
# This file contains modified crystal structure data generated from the
# MOF subset of the Cambridge Structural Database (CSD) v543 
# hosted by the Cambridge Crystallographic Data Centre (CCDC).
#
# This work is licensed under the Creative Commons
# Attribution-NonCommercial-ShareAlike 4.0 International License.
# To view a copy of this license, visit
# http://creativecommons.org/licenses/by-nc-sa/4.0/
# or send a letter to
# Creative Commons, PO Box 1866, Mountain View, CA 94042, USA.
#
# CIF created using the CSD Python API on 29 September 2022
# The structure has been converted into the P1 space group
# The structure has a 3D framework
# The original CSD entry MAFLUD is in the triclinic crystal system
# The framework has been calculated to contain at least 10.0% void space
# The void calculation uses a probe of radius 1.32A, grid spacing 0.4
#
###############################################################################

data_MAFLUD
_chemical_formula_moiety         '(C20 H12 N6 O8 Zn3)n'
_symmetry_cell_setting           triclinic
_symmetry_space_group_name_H-M   'P 1'
_symmetry_Int_Tables_number      1
_space_group_name_Hall           'P 1'
loop_
_symmetry_equiv_pos_site_id
_symmetry_equiv_pos_as_xyz
1 x,y,z
_cell_length_a                   9.1768(5)
_cell_length_b                   10.9017(8)
_cell_length_c                   11.3961(9)
_cell_angle_alpha                117.938(8)
_cell_angle_beta                 100.535(5)
_cell_angle_gamma                98.517(5)
_cell_volume                     953.707
loop_
_atom_site_label
_atom_site_type_symbol
_atom_site_fract_x
_atom_site_fract_y
_atom_site_fract_z
Zn1 Zn 0.30986(8) 0.37463(8) 0.37705(7)
Zn2 Zn -0.0000 0.5000 0.5000
O1 O 0.2034(6) 0.3905(5) 0.2252(5)
O2 O 0.2415(6) 0.2137(5) 0.4036(5)
O3 O 0.0398(5) 0.5064(5) 0.3269(5)
O4 O 0.0316(6) 0.2910(5) 0.4224(5)
N1 N 0.3473(5) 0.5555(5) 0.5604(5)
N2 N 0.2322(6) 0.5967(6) 0.6125(6)
N3 N 0.4824(6) 0.6407(6) 0.6553(5)
C3 C 0.1120(8) 0.2095(7) 0.4279(7)
C5 C 0.1138(9) 0.4294(9) 0.0014(7)
H4 H 0.1897 0.3816 0.0021
C6 C 0.2955(9) 0.7100(9) 0.7414(7)
H5 H 0.2425 0.7607 0.8022
C7 C 0.0535(8) 0.1004(7) 0.4644(7)
C8 C 0.0983(8) 0.4569(7) 0.2306(6)
C9 C 0.0487(8) 0.4784(7) 0.1110(7)
C10 C 0.4513(9) 0.7377(9) 0.7674(8)
H6 H 0.5235 0.8112 0.8490
Zn6 Zn 0.69014(8) 0.62537(8) 0.62295(7)
N9 N 0.5176(6) 0.3593(6) 0.3447(5)
C11 C 0.0667(9) 0.4509(9) 0.8916(8)
H7 H 0.1116 0.4185 0.8195
C2 C 0.1308(9) 0.9981(8) 0.4564(9)
H2 H 0.2197 0.9976 0.4282
C17 C 0.0770(10) 0.8963(9) 0.4901(9)
H10 H 0.1280 0.8264 0.4822
Zn2_2 Zn 1.0000 0.5000 0.5000
C1 C 0.9333(9) 0.5491(9) 0.1084(8)
H1 H 0.8884 0.5815 0.1805
C4 C 0.9230(10) 0.1037(9) 0.5099(9)
H3 H 0.8720 0.1736 0.5178
C15 C 0.8692(9) 0.0019(8) 0.5436(9)
H9 H 0.7803 0.0024 0.5718
O10 O 0.9602(5) 0.4936(5) 0.6731(5)
O11 O 0.9684(6) 0.7090(5) 0.5776(5)
N7 N 0.7678(6) 0.4033(6) 0.3875(6)
O5 O 0.7966(6) 0.6095(5) 0.7748(5)
C12 C 0.8862(9) 0.5706(9) 0.9986(7)
H8 H 0.8103 0.6184 0.9979
C13 C 0.9017(8) 0.5431(7) 0.7694(6)
C14 C 0.9513(8) 0.5216(7) 0.8890(7)
O7 O 0.7585(6) 0.7863(5) 0.5964(5)
C16 C 0.8880(8) 0.7905(7) 0.5721(7)
C18 C 0.9465(8) 0.8996(7) 0.5356(7)
N4 N 0.6527(5) 0.4445(5) 0.4396(5)
C19 C 0.7045(9) 0.2900(9) 0.2586(7)
H11 H 0.7575 0.2393 0.1978
C20 C 0.5487(9) 0.2623(9) 0.2326(8)
H12 H 0.4765 0.1888 0.1510
loop_
_geom_bond_atom_site_label_1
_geom_bond_atom_site_label_2
_geom_bond_site_symmetry_1
_geom_bond_site_symmetry_2
Zn1 O1 1_555 1_555
Zn2 O3 1_555 1_555
O1 C8 1_555 1_555
O2 Zn1 1_555 1_555
O3 C8 1_555 1_555
O4 Zn2 1_555 1_555
N1 Zn1 1_555 1_555
N2 Zn2 1_555 1_555
N3 N1 1_555 1_555
C3 O2 1_555 1_555
C5 H4 1_555 1_555
C6 N2 1_555 1_555
H5 C6 1_555 1_555
C8 C9 1_555 1_555
C10 N3 1_555 1_555
H6 C10 1_555 1_555
Zn6 N3 1_555 1_555
N9 Zn1 1_555 1_555
O4 C3 1_555 1_555
N1 N2 1_555 1_555
C3 C7 1_555 1_555
C5 C9 1_555 1_555
C6 C10 1_555 1_555
H7 C11 1_555 1_555
C2 H2 1_555 1_555
C17 C2 1_555 1_555
H10 C17 1_555 1_555
C1 H1 1_555 1_555
C4 H3 1_555 1_555
C15 C4 1_555 1_555
H9 C15 1_555 1_555
O10 Zn2_2 1_555 1_555
O11 Zn2_2 1_555 1_555
N7 Zn2_2 1_555 1_555
O5 C13 1_555 1_555
O10 C13 1_555 1_555
H8 C12 1_555 1_555
C13 C14 1_555 1_555
Zn6 O5 1_555 1_555
C12 C14 1_555 1_555
O7 C16 1_555 1_555
O11 C16 1_555 1_555
C16 C18 1_555 1_555
Zn6 O7 1_555 1_555
N4 Zn6 1_555 1_555
N7 N4 1_555 1_555
N9 N4 1_555 1_555
C19 N7 1_555 1_555
H11 C19 1_555 1_555
C20 N9 1_555 1_555
H12 C20 1_555 1_555
C19 C20 1_555 1_555

#END
