
###############################################################################
#
# This file contains modified crystal structure data generated from the
# MOF subset of the Cambridge Structural Database (CSD) v543 
# hosted by the Cambridge Crystallographic Data Centre (CCDC).
#
# This work is licensed under the Creative Commons
# Attribution-NonCommercial-ShareAlike 4.0 International License.
# To view a copy of this license, visit
# http://creativecommons.org/licenses/by-nc-sa/4.0/
# or send a letter to
# Creative Commons, PO Box 1866, Mountain View, CA 94042, USA.
#
# CIF created using the CSD Python API on 29 September 2022
# The structure has been converted into the P1 space group
# The structure has a 3D framework
# The original CSD entry MAFLOX is in the monoclinic crystal system
# The framework has been calculated to contain at least 10.0% void space
# The void calculation uses a probe of radius 1.32A, grid spacing 0.4
#
###############################################################################

data_MAFLOX
_chemical_formula_moiety         '(C44 H28 N18 O16 Zn8)n'
_symmetry_cell_setting           triclinic
_symmetry_space_group_name_H-M   'P 1'
_symmetry_Int_Tables_number      1
_space_group_name_Hall           'P 1'
loop_
_symmetry_equiv_pos_site_id
_symmetry_equiv_pos_as_xyz
1 x,y,z
_cell_length_a                   11.9442(16)
_cell_length_b                   19.1318(10)
_cell_length_c                   9.2109(7)
_cell_angle_alpha                90
_cell_angle_beta                 109.821(12)
_cell_angle_gamma                90
_cell_volume                     1980.12
loop_
_atom_site_label
_atom_site_type_symbol
_atom_site_fract_x
_atom_site_fract_y
_atom_site_fract_z
Zn8 Zn 0.0000 0.0000 0.5000
Zn8_2 Zn 0.0000 1.0000 0.5000
Zn5 Zn 0.87946(7) 0.0000 0.80786(7)
Zn8_3 Zn 1.0000 0.0000 0.5000
Zn4 Zn 0.12054(7) -0.0000 0.19214(7)
Zn1 Zn 0.62054(7) 0.5000 0.19214(7)
Zn2 Zn 0.5000 0.5000 0.5000
O1 O 0.6888(3) 0.58702(14) 0.2826(3)
O2 O 0.6127(4) 0.57827(16) 0.4699(3)
N1 N 0.4435(4) 0.5000 0.1528(4)
N2 N 0.3964(4) 0.5000 0.2641(4)
N3 N 0.3544(4) 0.5000 0.0147(4)
C1 C 0.6858(5) 0.7127(2) 0.5720(5)
H1 H 0.6422 0.6879 0.6215
C2 C 0.7754(6) 0.7204(2) 0.3796(5)
H2 H 0.7928 0.7007 0.2976
C3 C 0.7111(4) 0.6827(2) 0.4517(4)
C4 C 0.6671(4) 0.6103(2) 0.3997(4)
C5 C 0.2804(7) 0.5000 0.1972(9)
H3 H 0.2254 0.5000 0.2484
C6 C 0.2538(7) 0.5000 0.0457(9)
O3 O 0.8112(3) 0.91298(14) 0.7174(3)
O4 O 0.8873(4) 0.92173(16) 0.5301(3)
C7 C 0.8142(5) 0.7873(2) 0.4280(5)
H5 H 0.8578 0.8121 0.3785
C8 C 0.7246(6) 0.7796(2) 0.6204(5)
H6 H 0.7072 0.7993 0.7024
C9 C 0.7889(4) 0.8173(2) 0.5483(4)
C10 C 0.8329(4) 0.8897(2) 0.6003(4)
H10 H 0.8225 0.5000 0.0269
Zn5_2 Zn 0.87946(7) 1.0000 0.80786(7)
Zn8_4 Zn 1.0000 1.0000 0.5000
O10 O 0.6888(3) 0.41298(14) 0.2826(3)
O11 O 0.3873(4) 0.57827(16) 0.5301(3)
O12 O 0.3873(4) 0.42173(16) 0.5301(3)
O13 O 0.6127(4) 0.42173(16) 0.4699(3)
N7 N 0.6036(4) 0.5000 0.7359(4)
H4 H 0.1775 0.5000 0.9731
Zn3 Zn 0.37946(7) 0.5000 0.80786(7)
O5 O 0.3112(3) 0.58702(14) 0.7174(3)
N4 N 0.5565(4) 0.5000 0.8472(4)
N6 N 0.6456(4) 0.5000 0.9853(4)
C11 C 0.3142(5) 0.7127(2) 0.4280(5)
H7 H 0.3578 0.6879 0.3785
C12 C 0.2246(6) 0.7204(2) 0.6204(5)
H8 H 0.2072 0.7007 0.7024
C13 C 0.2889(4) 0.6827(2) 0.5483(4)
C14 C 0.3329(4) 0.6103(2) 0.6003(4)
C15 C 0.7196(7) 0.5000 0.8028(9)
H9 H 0.7746 0.5000 0.7516
C16 C 0.7462(7) 0.5000 0.9543(9)
O7 O 0.1888(3) 0.91298(14) 0.2826(3)
O8 O 0.1127(4) 0.92173(16) 0.4699(3)
C17 C 0.1858(5) 0.7873(2) 0.5720(5)
H11 H 0.1422 0.8121 0.6215
C18 C 0.2754(6) 0.7796(2) 0.3796(5)
H12 H 0.2928 0.7993 0.2976
C19 C 0.2111(4) 0.8173(2) 0.4517(4)
C20 C 0.1671(4) 0.8897(2) 0.3997(4)
Zn4_2 Zn 0.12054(7) 1.0000 0.19214(7)
O9 O 0.3112(3) 0.41298(14) 0.7174(3)
O1_2 O 0.1888(3) 0.08702(14) 0.2826(3)
O2_2 O 0.1127(4) 0.07827(16) 0.4699(3)
C1_2 C 0.1858(5) 0.2127(2) 0.5720(5)
H1_2 H 0.1422 0.1879 0.6215
C2_2 C 0.2754(6) 0.2204(2) 0.3796(5)
H2_2 H 0.2928 0.2007 0.2976
C3_2 C 0.2111(4) 0.1827(2) 0.4517(4)
C4_2 C 0.1671(4) 0.1103(2) 0.3997(4)
C7_2 C 0.3142(5) 0.2873(2) 0.4280(5)
H5_2 H 0.3578 0.3121 0.3785
C8_2 C 0.2246(6) 0.2796(2) 0.6204(5)
H6_2 H 0.2072 0.2993 0.7024
C9_2 C 0.2889(4) 0.3173(2) 0.5483(4)
C10_2 C 0.3329(4) 0.3897(2) 0.6003(4)
H10_2 H 0.3225 0.0000 0.0269
N7_2 N 0.1036(4) -0.0000 0.7359(4)
N4_2 N 0.0565(4) 0.0000 0.8472(4)
N6_2 N 0.1456(4) 0.0000 0.9853(4)
C15_2 C 0.2196(7) 0.0000 0.8028(9)
H9_2 H 0.2746 0.0000 0.7516
C16_2 C 0.2462(7) 0.0000 0.9543(9)
H10_3 H 0.3225 1.0000 0.0269
N7_3 N 0.1036(4) 1.0000 0.7359(4)
N4_3 N 0.0565(4) 1.0000 0.8472(4)
N6_3 N 0.1456(4) 1.0000 0.9853(4)
C15_3 C 0.2196(7) 1.0000 0.8028(9)
H9_3 H 0.2746 1.0000 0.7516
C16_3 C 0.2462(7) 1.0000 0.9543(9)
N1_2 N 0.9435(4) 0.0000 0.1528(4)
N2_2 N 0.8964(4) 0.0000 0.2641(4)
N3_2 N 0.8544(4) 0.0000 0.0147(4)
C5_2 C 0.7804(7) 0.0000 0.1972(9)
H3_2 H 0.7254 0.0000 0.2484
C6_2 C 0.7538(7) 0.0000 0.0457(9)
O11_2 O 0.8873(4) 0.07827(16) 0.5301(3)
H4_2 H 0.6775 0.0000 0.9731
O5_2 O 0.8112(3) 0.08702(14) 0.7174(3)
C11_2 C 0.8142(5) 0.2127(2) 0.4280(5)
H7_2 H 0.8578 0.1879 0.3785
C12_2 C 0.7246(6) 0.2204(2) 0.6204(5)
H8_2 H 0.7072 0.2007 0.7024
C13_2 C 0.7889(4) 0.1827(2) 0.5483(4)
C14_2 C 0.8329(4) 0.1103(2) 0.6003(4)
C17_2 C 0.6858(5) 0.2873(2) 0.5720(5)
H11_2 H 0.6422 0.3121 0.6215
C18_2 C 0.7754(6) 0.2796(2) 0.3796(5)
H12_2 H 0.7928 0.2993 0.2976
C19_2 C 0.7111(4) 0.3173(2) 0.4517(4)
C20_2 C 0.6671(4) 0.3897(2) 0.3997(4)
N1_3 N 0.9435(4) 1.0000 0.1528(4)
N2_3 N 0.8964(4) 1.0000 0.2641(4)
N3_3 N 0.8544(4) 1.0000 0.0147(4)
C5_3 C 0.7804(7) 1.0000 0.1972(9)
H3_3 H 0.7254 1.0000 0.2484
C6_3 C 0.7538(7) 1.0000 0.0457(9)
H4_3 H 0.6775 1.0000 0.9731
loop_
_geom_bond_atom_site_label_1
_geom_bond_atom_site_label_2
_geom_bond_site_symmetry_1
_geom_bond_site_symmetry_2
Zn1 O1 1_555 1_555
Zn2 O2 1_555 1_555
O1 C4 1_555 1_555
O2 C4 1_555 1_555
N1 Zn1 1_555 1_555
N2 Zn2 1_555 1_555
N3 N1 1_555 1_555
C1 H1 1_555 1_555
C2 H2 1_555 1_555
C3 C1 1_555 1_555
C4 C3 1_555 1_555
C5 N2 1_555 1_555
H3 C5 1_555 1_555
C6 N3 1_555 1_555
O3 C10 1_555 1_555
O4 C10 1_555 1_555
C7 C2 1_555 1_555
H5 C7 1_555 1_555
C8 C1 1_555 1_555
H6 C8 1_555 1_555
C9 C7 1_555 1_555
C10 C9 1_555 1_555
Zn5_2 O3 1_555 1_555
Zn8_4 O4 1_555 1_555
O10 Zn1 1_555 1_555
O11 Zn2 1_555 1_555
O12 Zn2 1_555 1_555
O13 Zn2 1_555 1_555
N7 Zn2 1_555 1_555
N1 N2 1_555 1_555
C2 C3 1_555 1_555
C5 C6 1_555 1_555
C8 C9 1_555 1_555
O5 Zn3 1_555 1_555
O11 C14 1_555 1_555
N4 Zn3 1_555 1_555
N7 N4 1_555 1_555
C11 H7 1_555 1_555
C12 H8 1_555 1_555
C13 C11 1_555 1_555
C14 O5 1_555 1_555
C15 N7 1_555 1_555
H9 C15 1_555 1_555
C16 N6 1_555 1_555
O7 C20 1_555 1_555
O8 C20 1_555 1_555
C17 C12 1_555 1_555
H11 C17 1_555 1_555
C18 C11 1_555 1_555
H12 C18 1_555 1_555
C19 C17 1_555 1_555
C20 C19 1_555 1_555
Zn4_2 O7 1_555 1_555
Zn8_2 O8 1_555 1_555
O9 Zn3 1_555 1_555
N4 N6 1_555 1_555
C12 C13 1_555 1_555
C13 C14 1_555 1_555
C15 C16 1_555 1_555
C18 C19 1_555 1_555
Zn4 O1_2 1_555 1_555
Zn8 O2_2 1_555 1_555
O1_2 C4_2 1_555 1_555
O2_2 C4_2 1_555 1_555
C1_2 H1_2 1_555 1_555
C2_2 H2_2 1_555 1_555
C3_2 C1_2 1_555 1_555
C4_2 C3_2 1_555 1_555
O9 C10_2 1_555 1_555
O12 C10_2 1_555 1_555
C7_2 C2_2 1_555 1_555
H5_2 C7_2 1_555 1_555
C8_2 C1_2 1_555 1_555
H6_2 C8_2 1_555 1_555
C9_2 C7_2 1_555 1_555
C10_2 C9_2 1_555 1_555
N7_2 Zn8 1_555 1_555
C2_2 C3_2 1_555 1_555
C8_2 C9_2 1_555 1_555
N7_2 N4_2 1_555 1_555
C15_2 N7_2 1_555 1_555
H9_2 C15_2 1_555 1_555
C16_2 N6_2 1_555 1_555
N4_2 N6_2 1_555 1_555
C15_2 C16_2 1_555 1_555
N7_3 Zn8_2 1_555 1_555
N7_3 N4_3 1_555 1_555
C15_3 N7_3 1_555 1_555
H9_3 C15_3 1_555 1_555
C16_3 N6_3 1_555 1_555
N4_3 N6_3 1_555 1_555
C15_3 C16_3 1_555 1_555
N2_2 Zn8_3 1_555 1_555
N3_2 N1_2 1_555 1_555
C5_2 N2_2 1_555 1_555
H3_2 C5_2 1_555 1_555
C6_2 N3_2 1_555 1_555
O11_2 Zn8_3 1_555 1_555
N1_2 N2_2 1_555 1_555
C5_2 C6_2 1_555 1_555
O5_2 Zn5 1_555 1_555
O11_2 C14_2 1_555 1_555
C11_2 H7_2 1_555 1_555
C12_2 H8_2 1_555 1_555
C13_2 C11_2 1_555 1_555
C14_2 O5_2 1_555 1_555
O10 C20_2 1_555 1_555
O13 C20_2 1_555 1_555
C17_2 C12_2 1_555 1_555
H11_2 C17_2 1_555 1_555
C18_2 C11_2 1_555 1_555
H12_2 C18_2 1_555 1_555
C19_2 C17_2 1_555 1_555
C20_2 C19_2 1_555 1_555
C12_2 C13_2 1_555 1_555
C13_2 C14_2 1_555 1_555
C18_2 C19_2 1_555 1_555
N2_3 Zn8_4 1_555 1_555
N3_3 N1_3 1_555 1_555
C5_3 N2_3 1_555 1_555
H3_3 C5_3 1_555 1_555
C6_3 N3_3 1_555 1_555
N1_3 N2_3 1_555 1_555
C5_3 C6_3 1_555 1_555

#END
