
###############################################################################
#
# This file contains modified crystal structure data generated from the
# MOF subset of the Cambridge Structural Database (CSD) v543 
# hosted by the Cambridge Crystallographic Data Centre (CCDC).
#
# This work is licensed under the Creative Commons
# Attribution-NonCommercial-ShareAlike 4.0 International License.
# To view a copy of this license, visit
# http://creativecommons.org/licenses/by-nc-sa/4.0/
# or send a letter to
# Creative Commons, PO Box 1866, Mountain View, CA 94042, USA.
#
# CIF created using the CSD Python API on 29 September 2022
# The structure has been converted into the P1 space group
# The structure has a 3D framework
# The original CSD entry MAFMOY01 is in the monoclinic crystal system
# The framework has been calculated to contain at least 10.0% void space
# The void calculation uses a probe of radius 1.32A, grid spacing 0.4
#
###############################################################################

data_MAFMOY01
_chemical_formula_moiety         '(C40 H24 N12 O16 Zn7)n'
_symmetry_cell_setting           triclinic
_symmetry_space_group_name_H-M   'P 1'
_symmetry_Int_Tables_number      1
_space_group_name_Hall           'P 1'
loop_
_symmetry_equiv_pos_site_id
_symmetry_equiv_pos_as_xyz
1 x,y,z
_cell_length_a                   8.6890(2)
_cell_length_b                   19.7634(5)
_cell_length_c                   7.9614(2)
_cell_angle_alpha                90
_cell_angle_beta                 113.798(2)
_cell_angle_gamma                90
_cell_volume                     1250.92
loop_
_atom_site_label
_atom_site_type_symbol
_atom_site_fract_x
_atom_site_fract_y
_atom_site_fract_z
Zn1 Zn 0.5000 0.5000 0.0000
H2 H 0.7220 0.1936 0.0435
H5 H 0.2046 0.5762 0.0968
O9 O 0.5399(3) 0.59370(11) 0.1238(3)
O13 O 0.4777(3) 0.45630(11) 0.2357(3)
N7 N 0.7568(3) 0.47577(13) 0.1010(4)
Zn1_2 Zn 0.5000 0.5000 1.0000
Zn2 Zn 0.22151(4) 0.480400(16) 0.53543(5)
O1 O 0.4601(3) 0.40630(11) 0.8762(3)
O2 O 0.3108(3) 0.38984(11) 0.5767(3)
O3 O 0.6910(3) 0.06850(11) 0.9965(3)
O4 O 0.4777(3) 0.04370(11) 0.7357(3)
N1 N 0.2432(3) 0.52423(13) 0.8990(4)
N2 N 0.1361(3) 0.50847(13) 0.7294(4)
C1 C 0.4036(4) 0.36988(15) 0.7374(4)
C2 C 0.4463(4) 0.29614(15) 0.7638(4)
C3 C 0.5876(4) 0.27520(16) 0.9137(5)
H1 H 0.6571 0.3071 0.9947
C4 C 0.6259(4) 0.20719(16) 0.9437(5)
C5 C 0.5216(4) 0.15918(15) 0.8254(4)
C6 C 0.3799(4) 0.18017(15) 0.6759(5)
H3 H 0.3094 0.1481 0.5962
C7 C 0.3420(4) 0.24820(15) 0.6438(5)
H4 H 0.2472 0.2618 0.5425
C8 C 0.5646(4) 0.08561(15) 0.8539(5)
C9 C 0.1601(5) 0.5589(2) 0.9781(5)
N6 N 0.0154(3) 0.46650(14) 0.3005(4)
C20 C 0.0032(5) 0.4352(2) 0.1467(6)
H12 H 0.0898 0.4134 0.1279
Zn6 Zn 0.5000 0.0000 0.5000
O10 O 0.3090(3) 0.56850(11) 0.5035(3)
O12 O 0.5223(3) 0.54370(11) 0.7643(3)
Zn6_2 Zn 0.5000 1.0000 0.5000
Zn7 Zn 0.77849(4) 0.980400(16) 0.96457(5)
Zn8 Zn 0.22151(4) 0.019600(16) 0.03543(5)
N3 N 0.9846(3) 0.53350(14) 0.6995(4)
C10 C 0.9968(5) 0.5648(2) 0.8533(6)
H6 H 0.9102 0.5866 0.8721
Zn3 Zn 0.77849(4) 0.519600(16) 0.46457(5)
O6 O 0.6892(3) 0.61016(11) 0.4233(3)
O7 O 0.3090(3) 0.93150(11) 0.0035(3)
O8 O 0.5223(3) 0.95630(11) 0.2643(3)
N5 N 0.8639(3) 0.49153(13) 0.2706(4)
C11 C 0.5964(4) 0.63012(15) 0.2626(4)
C12 C 0.5537(4) 0.70386(15) 0.2362(4)
C13 C 0.4124(4) 0.72480(16) 0.0863(5)
H7 H 0.3429 0.6929 0.0053
C14 C 0.3741(4) 0.79281(16) 0.0563(5)
C15 C 0.4784(4) 0.84082(15) 0.1746(4)
C16 C 0.6201(4) 0.81983(15) 0.3241(5)
H9 H 0.6906 0.8519 0.4038
C17 C 0.6580(4) 0.75180(15) 0.3562(5)
H10 H 0.7528 0.7382 0.4575
C18 C 0.4354(4) 0.91439(15) 0.1461(5)
C19 C 0.8399(5) 0.4411(2) 0.0219(5)
O11 O 0.6910(3) 0.43150(11) 0.4965(3)
H8 H 0.2780 0.8064 0.9565
H11 H 0.7954 0.4238 0.9032
O5 O 0.4601(3) 0.09370(11) 0.3762(3)
O6_2 O 0.3108(3) 0.11016(11) 0.0767(3)
C11_2 C 0.4036(4) 0.13012(15) 0.2374(4)
C12_2 C 0.4463(4) 0.20386(15) 0.2638(4)
C13_2 C 0.5876(4) 0.22480(16) 0.4137(5)
H7_2 H 0.6571 0.1929 0.4947
C14_2 C 0.6259(4) 0.29281(16) 0.4437(5)
H8_2 H 0.7220 0.3064 0.5435
C15_2 C 0.5216(4) 0.34082(15) 0.3254(4)
C16_2 C 0.3799(4) 0.31983(15) 0.1759(5)
H9_2 H 0.3094 0.3519 0.0962
C17_2 C 0.3420(4) 0.25180(15) 0.1438(5)
H10_2 H 0.2472 0.2382 0.0425
C18_2 C 0.5646(4) 0.41439(15) 0.3539(5)
N3_2 N 0.0154(3) 0.03350(14) 0.8005(4)
C10_2 C 0.0032(5) 0.0648(2) 0.6467(6)
H6_2 H 0.0898 0.0866 0.6279
N4 N 0.2432(3) 0.97577(13) 0.3990(4)
N5_2 N 0.1361(3) 0.99153(13) 0.2294(4)
C19_2 C 0.1601(5) 0.9411(2) 0.4781(5)
H11_2 H 0.2046 0.9238 0.5968
N1_2 N 0.7568(3) 0.02423(13) 0.6010(4)
N2_2 N 0.8639(3) 0.00847(13) 0.7706(4)
C9_2 C 0.8399(5) 0.0589(2) 0.5219(5)
H5_2 H 0.7954 0.0762 0.4032
N6_2 N 0.9846(3) 0.96650(14) 0.1995(4)
C20_2 C 0.9968(5) 0.9352(2) 0.3533(6)
H12_2 H 0.9102 0.9134 0.3721
O1_2 O 0.5399(3) 0.90630(11) 0.6238(3)
O2_2 O 0.6892(3) 0.88984(11) 0.9233(3)
C1_2 C 0.5964(4) 0.86988(15) 0.7626(4)
C2_2 C 0.5537(4) 0.79614(15) 0.7362(4)
C3_2 C 0.4124(4) 0.77520(16) 0.5863(5)
H1_2 H 0.3429 0.8071 0.5053
C4_2 C 0.3741(4) 0.70719(16) 0.5563(5)
H2_2 H 0.2780 0.6936 0.4565
C5_2 C 0.4784(4) 0.65918(15) 0.6746(4)
C6_2 C 0.6201(4) 0.68017(15) 0.8241(5)
H3_2 H 0.6906 0.6481 0.9038
C7_2 C 0.6580(4) 0.74820(15) 0.8562(5)
H4_2 H 0.7528 0.7618 0.9575
C8_2 C 0.4354(4) 0.58561(15) 0.6461(5)
loop_
_geom_bond_atom_site_label_1
_geom_bond_atom_site_label_2
_geom_bond_site_symmetry_1
_geom_bond_site_symmetry_2
O9 Zn1 1_555 1_555
O13 Zn1 1_555 1_555
N7 Zn1 1_555 1_555
Zn1_2 O1 1_555 1_555
Zn2 O2 1_555 1_555
O1 C1 1_555 1_555
O2 C1 1_555 1_555
O3 C8 1_555 1_555
O4 C8 1_555 1_555
N1 Zn1_2 1_555 1_555
N2 Zn2 1_555 1_555
C1 C2 1_555 1_555
C2 C3 1_555 1_555
C3 H1 1_555 1_555
C4 C3 1_555 1_555
C5 C4 1_555 1_555
C6 C5 1_555 1_555
H3 C6 1_555 1_555
C7 C2 1_555 1_555
H4 C7 1_555 1_555
C8 C5 1_555 1_555
C9 N1 1_555 1_555
N6 Zn2 1_555 1_555
C20 N6 1_555 1_555
H12 C20 1_555 1_555
Zn6 O4 1_555 1_555
O10 Zn2 1_555 1_555
O12 Zn1_2 1_555 1_555
N1 N2 1_555 1_555
C6 C7 1_555 1_555
C10 N3 1_555 1_555
H6 C10 1_555 1_555
Zn3 N3 1_555 1_555
O9 C11 1_555 1_555
O6 Zn3 1_555 1_555
O7 C18 1_555 1_555
O8 C18 1_555 1_555
N7 N5 1_555 1_555
N5 Zn3 1_555 1_555
C11 O6 1_555 1_555
C12 C11 1_555 1_555
C13 C12 1_555 1_555
H7 C13 1_555 1_555
C14 C13 1_555 1_555
C15 C14 1_555 1_555
C16 C15 1_555 1_555
H9 C16 1_555 1_555
C17 C12 1_555 1_555
H10 C17 1_555 1_555
C18 C15 1_555 1_555
C19 N7 1_555 1_555
Zn6_2 O8 1_555 1_555
O11 Zn3 1_555 1_555
C16 C17 1_555 1_555
O5 C11_2 1_555 1_555
O6_2 Zn8 1_555 1_555
O11 C18_2 1_555 1_555
O13 C18_2 1_555 1_555
C11_2 O6_2 1_555 1_555
C12_2 C11_2 1_555 1_555
C13_2 C12_2 1_555 1_555
H7_2 C13_2 1_555 1_555
C14_2 C13_2 1_555 1_555
H8_2 C14_2 1_555 1_555
C15_2 C14_2 1_555 1_555
C16_2 C15_2 1_555 1_555
H9_2 C16_2 1_555 1_555
C17_2 C12_2 1_555 1_555
H10_2 C17_2 1_555 1_555
C18_2 C15_2 1_555 1_555
Zn6 O5 1_555 1_555
C16_2 C17_2 1_555 1_555
C10_2 N3_2 1_555 1_555
H6_2 C10_2 1_555 1_555
N4 N5_2 1_555 1_555
C19_2 N4 1_555 1_555
H11_2 C19_2 1_555 1_555
N4 Zn6_2 1_555 1_555
N1_2 Zn6 1_555 1_555
C9_2 N1_2 1_555 1_555
H5_2 C9_2 1_555 1_555
N1_2 N2_2 1_555 1_555
C20_2 N6_2 1_555 1_555
H12_2 C20_2 1_555 1_555
Zn6_2 O1_2 1_555 1_555
Zn7 O2_2 1_555 1_555
O1_2 C1_2 1_555 1_555
O2_2 C1_2 1_555 1_555
O10 C8_2 1_555 1_555
O12 C8_2 1_555 1_555
C1_2 C2_2 1_555 1_555
C2_2 C3_2 1_555 1_555
C3_2 H1_2 1_555 1_555
C4_2 C3_2 1_555 1_555
H2_2 C4_2 1_555 1_555
C5_2 C4_2 1_555 1_555
C6_2 C5_2 1_555 1_555
H3_2 C6_2 1_555 1_555
C7_2 C2_2 1_555 1_555
H4_2 C7_2 1_555 1_555
C8_2 C5_2 1_555 1_555
C6_2 C7_2 1_555 1_555

#END
