
###############################################################################
#
# This file contains modified crystal structure data generated from the
# MOF subset of the Cambridge Structural Database (CSD) v543 
# hosted by the Cambridge Crystallographic Data Centre (CCDC).
#
# This work is licensed under the Creative Commons
# Attribution-NonCommercial-ShareAlike 4.0 International License.
# To view a copy of this license, visit
# http://creativecommons.org/licenses/by-nc-sa/4.0/
# or send a letter to
# Creative Commons, PO Box 1866, Mountain View, CA 94042, USA.
#
# CIF created using the CSD Python API on 29 September 2022
# The structure has been converted into the P1 space group
# The structure has a 3D framework
# The original CSD entry MAFMAK is in the triclinic crystal system
# The framework has been calculated to contain at least 10.0% void space
# The void calculation uses a probe of radius 1.32A, grid spacing 0.4
#
###############################################################################

data_MAFMAK
_chemical_formula_moiety         '(C20 H12 N6 O8 Zn3)n'
_symmetry_cell_setting           triclinic
_symmetry_space_group_name_H-M   'P 1'
_symmetry_Int_Tables_number      1
_space_group_name_Hall           'P 1'
loop_
_symmetry_equiv_pos_site_id
_symmetry_equiv_pos_as_xyz
1 x,y,z
_cell_length_a                   9.2142(6)
_cell_length_b                   11.1531(19)
_cell_length_c                   11.3582(19)
_cell_angle_alpha                112.294(16)
_cell_angle_beta                 99.494(9)
_cell_angle_gamma                99.046(9)
_cell_volume                     1033.84
loop_
_atom_site_label
_atom_site_type_symbol
_atom_site_fract_x
_atom_site_fract_y
_atom_site_fract_z
H5 H 0.0063 0.7892 0.3098
Zn4 Zn 0.18384(8) 0.61180(10) 0.11164(8)
N8 N 0.0240(5) 0.3672(7) 0.8614(5)
C15 C 0.4331(10) 0.1063(10) 0.0314(11)
H9 H 0.3885 0.1785 0.0535
Zn9 Zn 0.5000 0.5000 0.0000
O7 O 0.7320(6) 0.2264(6) 0.9051(6)
O8 O 0.5393(7) 0.3092(7) 0.9571(7)
C16 C 0.6201(10) 0.0014(10) 0.9429(11)
H10 H 0.7022 0.0025 0.9050
C17 C 0.5535(7) 0.1068(8) 0.9726(8)
C18 C 0.6102(8) 0.2246(8) 0.9423(8)
Zn7 Zn 0.81616(8) 0.38820(10) 0.88836(8)
Zn9_2 Zn 0.5000 0.5000 1.0000
O1 O 0.2805(6) 0.5946(7) 0.2657(5)
O2 O 0.2680(6) 0.7736(6) 0.0949(6)
N1 N 0.8443(5) 0.5505(6) 0.0537(5)
C1 C 0.5639(9) 0.4561(12) 0.3949(8)
H1 H 0.6073 0.4264 0.3239
O3 O 0.4607(7) 0.6908(7) 0.0429(7)
O4 O 0.4588(6) 0.5033(8) 0.1752(5)
N2 N 0.7302(6) 0.5959(7) 0.1010(6)
C3 C 0.3799(10) 0.9986(10) 0.0571(11)
H3 H 0.2978 0.9975 0.0950
C4 C 0.3853(10) 0.5660(13) 0.4948(9)
H4 H 0.3083 0.6104 0.4919
N3 N 0.9760(5) 0.6328(7) 0.1386(5)
C5 C 0.4493(7) 0.5220(9) 0.3898(7)
C6 C 0.4465(7) 0.8932(8) 0.0274(8)
C7 C 0.3898(8) 0.7754(8) 0.0577(8)
C8 C 0.3936(7) 0.5431(8) 0.2672(6)
C9 C 0.9384(10) 0.7221(11) 0.2353(9)
C10 C 0.7888(10) 0.7020(11) 0.2106(9)
H6 H 0.7348 0.7546 0.2625
O5 O 0.7195(6) 0.4054(7) 0.7343(5)
C11 C 0.4361(9) 0.5439(12) 0.6051(8)
H7 H 0.3927 0.5736 0.6761
O6 O 0.5412(6) 0.4967(8) 0.8248(5)
C12 C 0.6147(10) 0.4340(13) 0.5052(9)
H8 H 0.6917 0.3896 0.5081
C13 C 0.5507(7) 0.4780(9) 0.6102(7)
C14 C 0.6064(7) 0.4569(8) 0.7328(6)
C2 C 0.5669(10) 0.8937(10) 0.9686(11)
H2 H 0.6115 0.8215 0.9465
N4 N 0.1557(5) 0.4495(6) 0.9463(5)
N5 N 0.2698(6) 0.4041(7) 0.8990(6)
C19 C 0.0616(10) 0.2779(11) 0.7647(9)
C20 C 0.2112(10) 0.2980(11) 0.7894(9)
H12 H 0.2652 0.2454 0.7375
H11 H 0.9937 0.2108 0.6902
loop_
_geom_bond_atom_site_label_1
_geom_bond_atom_site_label_2
_geom_bond_site_symmetry_1
_geom_bond_site_symmetry_2
H9 C15 1_555 1_555
O7 C18 1_555 1_555
O8 C18 1_555 1_555
H10 C16 1_555 1_555
C18 C17 1_555 1_555
Zn7 O7 1_555 1_555
Zn9_2 O8 1_555 1_555
C16 C17 1_555 1_555
Zn4 O1 1_555 1_555
Zn9 O3 1_555 1_555
O1 C8 1_555 1_555
O2 Zn4 1_555 1_555
N1 N2 1_555 1_555
C1 H1 1_555 1_555
O3 C7 1_555 1_555
O4 Zn9 1_555 1_555
N2 Zn9 1_555 1_555
C3 H3 1_555 1_555
C4 H4 1_555 1_555
N3 N1 1_555 1_555
C5 C1 1_555 1_555
C7 O2 1_555 1_555
C8 O4 1_555 1_555
C9 N3 1_555 1_555
C10 N2 1_555 1_555
H6 C10 1_555 1_555
O5 C14 1_555 1_555
C11 C4 1_555 1_555
H7 C11 1_555 1_555
O6 C14 1_555 1_555
C12 C1 1_555 1_555
H8 C12 1_555 1_555
C13 C11 1_555 1_555
C14 C13 1_555 1_555
Zn7 O5 1_555 1_555
Zn9_2 O6 1_555 1_555
C3 C6 1_555 1_555
C4 C5 1_555 1_555
C5 C8 1_555 1_555
C6 C7 1_555 1_555
C9 C10 1_555 1_555
C12 C13 1_555 1_555
C2 H2 1_555 1_555
N5 Zn9_2 1_555 1_555
N8 N4 1_555 1_555
C19 N8 1_555 1_555
C20 N5 1_555 1_555
H12 C20 1_555 1_555
N4 N5 1_555 1_555
C19 C20 1_555 1_555

#END
