
###############################################################################
#
# This file contains modified crystal structure data generated from the
# MOF subset of the Cambridge Structural Database (CSD) v543 
# hosted by the Cambridge Crystallographic Data Centre (CCDC).
#
# This work is licensed under the Creative Commons
# Attribution-NonCommercial-ShareAlike 4.0 International License.
# To view a copy of this license, visit
# http://creativecommons.org/licenses/by-nc-sa/4.0/
# or send a letter to
# Creative Commons, PO Box 1866, Mountain View, CA 94042, USA.
#
# CIF created using the CSD Python API on 29 September 2022
# The structure has been converted into the P1 space group
# The structure has a 3D framework
# The original CSD entry MAFMIS is in the monoclinic crystal system
# The framework has been calculated to contain at least 10.0% void space
# The void calculation uses a probe of radius 1.32A, grid spacing 0.4
#
###############################################################################

data_MAFMIS
_chemical_formula_moiety         '(C44 H28 N18 O16 Zn14)n'
_symmetry_cell_setting           triclinic
_symmetry_space_group_name_H-M   'P 1'
_symmetry_Int_Tables_number      1
_space_group_name_Hall           'P 1'
loop_
_symmetry_equiv_pos_site_id
_symmetry_equiv_pos_as_xyz
1 x,y,z
_cell_length_a                   12.1742(4)
_cell_length_b                   18.9858(5)
_cell_length_c                   9.1980(3)
_cell_angle_alpha                90
_cell_angle_beta                 108.810(4)
_cell_angle_gamma                90
_cell_volume                     2012.45
loop_
_atom_site_label
_atom_site_type_symbol
_atom_site_fract_x
_atom_site_fract_y
_atom_site_fract_z
Zn5 Zn 0.0000 0.5000 0.0000
Zn5_2 Zn -0.0000 0.5000 1.0000
Zn1 Zn 0.5000 0.0000 0.0000
Zn2 Zn 0.38367(3) 0.0000 0.31148(3)
O1 O 0.31199(14) 0.08656(8) 0.21823(18)
O2 O 0.39177(18) 0.07976(9) 0.03411(19)
N1 N 0.55573(16) -0.0000 0.3467(2)
N2 N 0.6392(2) -0.0000 0.4810(2)
N3 N 0.6001(2) -0.0000 0.2333(2)
C2 C 0.2248(2) 0.21986(13) 0.1212(3)
H2 H 0.2075 0.1998 0.2035
C3 C 0.29029(19) 0.18292(11) 0.0499(2)
C4 C 0.33518(18) 0.11054(10) 0.1033(2)
C5 C 0.7392(3) -0.0000 0.4516(4)
H3 H 0.8128 -0.0000 0.5244
C6 C 0.7155(3) -0.0000 0.2979(4)
H4 H 0.7697 0.0000 0.2462
C7 C 0.1845(3) 0.28656(13) 0.0715(3)
H5 H 0.1402 0.3110 0.1203
C11 C 0.6845(3) 0.21344(13) 0.0715(3)
H7 H 0.6402 0.1890 0.1203
O7 O 0.81199(14) 0.41344(8) 0.21823(18)
O8 O 0.89177(18) 0.42024(9) 0.03411(19)
C18 C 0.7248(2) 0.28014(13) 0.1212(3)
H12 H 0.7075 0.3002 0.2035
C19 C 0.79029(19) 0.31708(11) 0.0499(2)
C20 C 0.83518(18) 0.38946(10) 0.1033(2)
Zn5_3 Zn 1.0000 0.5000 0.0000
Zn7 Zn 0.61633(3) 0.0000 0.68852(3)
Zn8 Zn 0.88367(3) 0.5000 0.31148(3)
N8 N 0.3608(2) -0.0000 0.5190(2)
Zn1_2 Zn 0.5000 0.0000 1.0000
C1 C 0.3155(3) 0.21344(13) 0.9285(3)
H1 H 0.3598 0.1890 0.8797
O3 O 0.18801(14) 0.41344(8) 0.78177(18)
O4 O 0.10823(18) 0.42024(9) 0.96589(19)
C8 C 0.2752(2) 0.28014(13) 0.8788(3)
H6 H 0.2925 0.3002 0.7965
C9 C 0.20971(19) 0.31708(11) 0.9501(2)
C10 C 0.16482(18) 0.38946(10) 0.8967(2)
O5 O 0.68801(14) 0.08656(8) 0.78177(18)
O6 O 0.60823(18) 0.07976(9) 0.96589(19)
N4 N 0.44427(16) 0.0000 0.6533(2)
N6 N 0.3999(2) -0.0000 0.7667(2)
C12 C 0.7752(2) 0.21986(13) 0.8788(3)
H8 H 0.7925 0.1998 0.7965
C13 C 0.70971(19) 0.18292(11) 0.9501(2)
C14 C 0.66482(18) 0.11054(10) 0.8967(2)
C15 C 0.2608(3) 0.0000 0.5484(4)
H9 H 0.1872 0.0000 0.4756
C16 C 0.2845(3) -0.0000 0.7021(4)
H10 H 0.2303 0.0000 0.7538
C17 C 0.8155(3) 0.28656(13) 0.9285(3)
H11 H 0.8598 0.3110 0.8797
Zn5_4 Zn 1.0000 0.5000 1.0000
Zn9 Zn 0.11633(3) 0.5000 0.68852(3)
Zn1_3 Zn 0.5000 1.0000 0.0000
Zn2_2 Zn 0.38367(3) 1.0000 0.31148(3)
N1_2 N 0.55573(16) 1.0000 0.3467(2)
N2_2 N 0.6392(2) 1.0000 0.4810(2)
N3_2 N 0.6001(2) 1.0000 0.2333(2)
C5_2 C 0.7392(3) 1.0000 0.4516(4)
H3_2 H 0.8128 1.0000 0.5244
C6_2 C 0.7155(3) 1.0000 0.2979(4)
H4_2 H 0.7697 1.0000 0.2462
Zn7_2 Zn 0.61633(3) 1.0000 0.68852(3)
O10 O 0.31199(14) 0.91344(8) 0.21823(18)
O12 O 0.39177(18) 0.92024(9) 0.03411(19)
N8_2 N 0.3608(2) 1.0000 0.5190(2)
Zn1_4 Zn 0.5000 1.0000 1.0000
N4_2 N 0.44427(16) 1.0000 0.6533(2)
N6_2 N 0.3999(2) 1.0000 0.7667(2)
C15_2 C 0.2608(3) 1.0000 0.5484(4)
H9_2 H 0.1872 1.0000 0.4756
C16_2 C 0.2845(3) 1.0000 0.7021(4)
H10_2 H 0.2303 1.0000 0.7538
O9 O 0.68801(14) 0.91344(8) 0.78177(18)
O11 O 0.60823(18) 0.92024(9) 0.96589(19)
N1_3 N 0.05573(16) 0.5000 0.3467(2)
N2_3 N 0.1392(2) 0.5000 0.4810(2)
N3_3 N 0.1001(2) 0.5000 0.2333(2)
C5_3 C 0.2392(3) 0.5000 0.4516(4)
H3_3 H 0.3128 0.5000 0.5244
C6_3 C 0.2155(3) 0.5000 0.2979(4)
H4_3 H 0.2697 0.5000 0.2462
C11_2 C 0.1845(3) 0.71344(13) 0.0715(3)
H7_2 H 0.1402 0.6890 0.1203
C18_2 C 0.2248(2) 0.78014(13) 0.1212(3)
H12_2 H 0.2075 0.8002 0.2035
C19_2 C 0.29029(19) 0.81708(11) 0.0499(2)
C20_2 C 0.33518(18) 0.88946(10) 0.1033(2)
O5_2 O 0.18801(14) 0.58656(8) 0.78177(18)
O6_2 O 0.10823(18) 0.57976(9) 0.96589(19)
C12_2 C 0.2752(2) 0.71986(13) 0.8788(3)
H8_2 H 0.2925 0.6998 0.7965
C13_2 C 0.20971(19) 0.68292(11) 0.9501(2)
C14_2 C 0.16482(18) 0.61054(10) 0.8967(2)
C17_2 C 0.3155(3) 0.78656(13) 0.9285(3)
H11_2 H 0.3598 0.8110 0.8797
O1_2 O 0.81199(14) 0.58656(8) 0.21823(18)
O2_2 O 0.89177(18) 0.57976(9) 0.03411(19)
C2_2 C 0.7248(2) 0.71986(13) 0.1212(3)
H2_2 H 0.7075 0.6998 0.2035
C3_2 C 0.79029(19) 0.68292(11) 0.0499(2)
C4_2 C 0.83518(18) 0.61054(10) 0.1033(2)
C7_2 C 0.6845(3) 0.78656(13) 0.0715(3)
H5_2 H 0.6402 0.8110 0.1203
N8_3 N 0.8608(2) 0.5000 0.5190(2)
C1_2 C 0.8155(3) 0.71344(13) 0.9285(3)
H1_2 H 0.8598 0.6890 0.8797
C8_2 C 0.7752(2) 0.78014(13) 0.8788(3)
H6_2 H 0.7925 0.8002 0.7965
C9_2 C 0.70971(19) 0.81708(11) 0.9501(2)
C10_2 C 0.66482(18) 0.88946(10) 0.8967(2)
N4_3 N 0.94427(16) 0.5000 0.6533(2)
N6_3 N 0.8999(2) 0.5000 0.7667(2)
C15_3 C 0.7608(3) 0.5000 0.5484(4)
H9_3 H 0.6872 0.5000 0.4756
C16_3 C 0.7845(3) 0.5000 0.7021(4)
H10_3 H 0.7303 0.5000 0.7538
loop_
_geom_bond_atom_site_label_1
_geom_bond_atom_site_label_2
_geom_bond_site_symmetry_1
_geom_bond_site_symmetry_2
Zn1 O2 1_555 1_555
Zn2 O1 1_555 1_555
O1 C4 1_555 1_555
O2 C4 1_555 1_555
N1 Zn2 1_555 1_555
N2 N1 1_555 1_555
N3 Zn1 1_555 1_555
C2 H2 1_555 1_555
C4 C3 1_555 1_555
C5 N2 1_555 1_555
H3 C5 1_555 1_555
C6 N3 1_555 1_555
H4 C6 1_555 1_555
C7 C2 1_555 1_555
H5 C7 1_555 1_555
C11 H7 1_555 1_555
O7 C20 1_555 1_555
O8 C20 1_555 1_555
C18 C11 1_555 1_555
H12 C18 1_555 1_555
C20 C19 1_555 1_555
Zn5_3 O8 1_555 1_555
Zn7 N2 1_555 1_555
Zn8 O7 1_555 1_555
N8 Zn2 1_555 1_555
N1 N3 1_555 1_555
C2 C3 1_555 1_555
C5 C6 1_555 1_555
C18 C19 1_555 1_555
C1 H1 1_555 1_555
O3 C10 1_555 1_555
O4 C10 1_555 1_555
C8 C1 1_555 1_555
H6 C8 1_555 1_555
C10 C9 1_555 1_555
Zn7 O5 1_555 1_555
O5 C14 1_555 1_555
O6 Zn1_2 1_555 1_555
N4 Zn7 1_555 1_555
N8 N4 1_555 1_555
N6 Zn1_2 1_555 1_555
C12 H8 1_555 1_555
C14 O6 1_555 1_555
C15 N8 1_555 1_555
H9 C15 1_555 1_555
C16 N6 1_555 1_555
H10 C16 1_555 1_555
C17 C12 1_555 1_555
H11 C17 1_555 1_555
Zn5_2 O4 1_555 1_555
Zn9 O3 1_555 1_555
C8 C9 1_555 1_555
N4 N6 1_555 1_555
C12 C13 1_555 1_555
C13 C14 1_555 1_555
C15 C16 1_555 1_555
N1_2 Zn2_2 1_555 1_555
N2_2 N1_2 1_555 1_555
N3_2 Zn1_3 1_555 1_555
C5_2 N2_2 1_555 1_555
H3_2 C5_2 1_555 1_555
C6_2 N3_2 1_555 1_555
H4_2 C6_2 1_555 1_555
Zn7_2 N2_2 1_555 1_555
O10 Zn2_2 1_555 1_555
O12 Zn1_3 1_555 1_555
N8_2 Zn2_2 1_555 1_555
N1_2 N3_2 1_555 1_555
C5_2 C6_2 1_555 1_555
N4_2 Zn7_2 1_555 1_555
N8_2 N4_2 1_555 1_555
N6_2 Zn1_4 1_555 1_555
C15_2 N8_2 1_555 1_555
H9_2 C15_2 1_555 1_555
C16_2 N6_2 1_555 1_555
H10_2 C16_2 1_555 1_555
O9 Zn7_2 1_555 1_555
O11 Zn1_4 1_555 1_555
N4_2 N6_2 1_555 1_555
C15_2 C16_2 1_555 1_555
N2_3 N1_3 1_555 1_555
N3_3 Zn5 1_555 1_555
C5_3 N2_3 1_555 1_555
H3_3 C5_3 1_555 1_555
C6_3 N3_3 1_555 1_555
H4_3 C6_3 1_555 1_555
C11_2 H7_2 1_555 1_555
O10 C20_2 1_555 1_555
O12 C20_2 1_555 1_555
C18_2 C11_2 1_555 1_555
H12_2 C18_2 1_555 1_555
C20_2 C19_2 1_555 1_555
Zn9 N2_3 1_555 1_555
N1_3 N3_3 1_555 1_555
C5_3 C6_3 1_555 1_555
C18_2 C19_2 1_555 1_555
Zn9 O5_2 1_555 1_555
O5_2 C14_2 1_555 1_555
O6_2 Zn5_2 1_555 1_555
C12_2 H8_2 1_555 1_555
C14_2 O6_2 1_555 1_555
C17_2 C12_2 1_555 1_555
H11_2 C17_2 1_555 1_555
C12_2 C13_2 1_555 1_555
C13_2 C14_2 1_555 1_555
Zn5_3 O2_2 1_555 1_555
Zn8 O1_2 1_555 1_555
O1_2 C4_2 1_555 1_555
O2_2 C4_2 1_555 1_555
C2_2 H2_2 1_555 1_555
C4_2 C3_2 1_555 1_555
C7_2 C2_2 1_555 1_555
H5_2 C7_2 1_555 1_555
N8_3 Zn8 1_555 1_555
C2_2 C3_2 1_555 1_555
C1_2 H1_2 1_555 1_555
O9 C10_2 1_555 1_555
O11 C10_2 1_555 1_555
C8_2 C1_2 1_555 1_555
H6_2 C8_2 1_555 1_555
C10_2 C9_2 1_555 1_555
N8_3 N4_3 1_555 1_555
N6_3 Zn5_4 1_555 1_555
C15_3 N8_3 1_555 1_555
H9_3 C15_3 1_555 1_555
C16_3 N6_3 1_555 1_555
H10_3 C16_3 1_555 1_555
C8_2 C9_2 1_555 1_555
N4_3 N6_3 1_555 1_555
C15_3 C16_3 1_555 1_555

#END
