
###############################################################################
#
# This file contains modified crystal structure data generated from the
# MOF subset of the Cambridge Structural Database (CSD) v543 
# hosted by the Cambridge Crystallographic Data Centre (CCDC).
#
# This work is licensed under the Creative Commons
# Attribution-NonCommercial-ShareAlike 4.0 International License.
# To view a copy of this license, visit
# http://creativecommons.org/licenses/by-nc-sa/4.0/
# or send a letter to
# Creative Commons, PO Box 1866, Mountain View, CA 94042, USA.
#
# CIF created using the CSD Python API on 29 September 2022
# The structure has been converted into the P1 space group
# The structure has a 3D framework
# The original CSD entry MAFMOY is in the monoclinic crystal system
# The framework has been calculated to contain at least 10.0% void space
# The void calculation uses a probe of radius 1.32A, grid spacing 0.4
#
###############################################################################

data_MAFMOY
_chemical_formula_moiety         '(C40 H24 N12 O12 Zn9)n'
_symmetry_cell_setting           triclinic
_symmetry_space_group_name_H-M   'P 1'
_symmetry_Int_Tables_number      1
_space_group_name_Hall           'P 1'
loop_
_symmetry_equiv_pos_site_id
_symmetry_equiv_pos_as_xyz
1 x,y,z
_cell_length_a                   8.6854(5)
_cell_length_b                   19.7877(8)
_cell_length_c                   7.9849(5)
_cell_angle_alpha                90
_cell_angle_beta                 113.775(7)
_cell_angle_gamma                90
_cell_volume                     1255.86
loop_
_atom_site_label
_atom_site_type_symbol
_atom_site_fract_x
_atom_site_fract_y
_atom_site_fract_z
Zn1 Zn 0.0000 0.5000 0.5000
O4 O 0.1902(4) 0.06845(15) 0.4959(5)
C3 C 0.0873(5) 0.2751(2) 0.4138(6)
H3 H 0.1569 0.3070 0.4944
C4 C 0.1251(5) 0.2072(2) 0.4439(6)
H4 H 0.2206 0.1937 0.5440
C6 C 0.0633(5) 0.0855(2) 0.3514(7)
C8 C 0.0210(5) 0.15890(19) 0.3252(6)
Zn6 Zn 0.0000 0.0000 0.0000
O9 O 0.0241(4) 0.54365(15) 0.2665(5)
O11 O 0.0393(4) 0.59369(14) 0.6229(5)
N7 N 0.2586(4) 0.47600(17) 0.6017(5)
Zn6_2 Zn 0.0000 -0.0000 1.0000
Zn6_3 Zn 0.0000 1.0000 0.0000
Zn7 Zn 0.27824(6) 0.98055(2) 0.46418(8)
Zn6_4 Zn 0.0000 1.0000 1.0000
Zn1_2 Zn 1.0000 0.5000 0.5000
Zn2 Zn 0.72176(6) 0.48055(2) 0.03582(8)
O1 O 0.9759(4) 0.04365(15) 0.2335(5)
O2 O 0.8116(4) 0.39021(14) 0.0772(4)
O3 O 0.9607(4) 0.40631(14) 0.3771(5)
C1 C 0.8419(5) 0.2484(2) 0.1436(6)
H1 H 0.7477 0.2621 0.0421
C2 C 0.8789(5) 0.18053(19) 0.1754(6)
H2 H 0.8079 0.1487 0.0958
C5 C 0.9038(5) 0.37001(19) 0.2377(6)
C7 C 0.9456(5) 0.29607(19) 0.2633(6)
N4 N 0.7414(4) 0.52400(17) 0.3983(5)
N5 N 0.6361(4) 0.50825(17) 0.2294(5)
N6 N 0.4840(4) 0.53340(18) 0.1996(5)
C19 C 0.6595(5) 0.5586(3) 0.4769(7)
H11 H 0.7040 0.5756 0.5956
C20 C 0.4949(5) 0.5651(3) 0.3506(7)
H12 H 0.4083 0.5874 0.3682
Zn6_5 Zn 1.0000 0.0000 0.0000
O10 O 0.9759(4) 0.45635(15) 0.7335(5)
O12 O 0.8098(4) 0.56845(15) 0.0041(5)
N2 N 0.3639(4) 0.49175(17) 0.7706(5)
N3 N 0.5160(4) 0.46660(18) 0.8004(5)
C9 C 0.3405(5) 0.4414(3) 0.5231(7)
H5 H 0.2960 0.4244 0.4044
C10 C 0.5051(5) 0.4349(3) 0.6494(7)
H6 H 0.5917 0.4126 0.6318
Zn3 Zn 0.27824(6) 0.51945(2) 0.96418(8)
O5 O 0.0241(4) 0.95635(15) 0.7665(5)
O6 O 0.1884(4) 0.60979(14) 0.9228(4)
C11 C 0.1581(5) 0.7516(2) 0.8564(6)
H7 H 0.2523 0.7379 0.9579
C12 C 0.1211(5) 0.81947(19) 0.8246(6)
H8 H 0.1921 0.8513 0.9042
C15 C 0.0962(5) 0.62999(19) 0.7623(6)
C17 C 0.0544(5) 0.70393(19) 0.7367(6)
Zn6_6 Zn 1.0000 -0.0000 1.0000
O13 O 0.1902(4) 0.43155(15) 0.9959(5)
Zn6_7 Zn 1.0000 1.0000 0.0000
Zn6_8 Zn 1.0000 1.0000 1.0000
Zn8 Zn 0.72176(6) 0.01945(2) 0.53582(8)
O8 O 0.8098(4) 0.93155(15) 0.5041(5)
C13 C 0.9127(5) 0.7249(2) 0.5862(6)
H9 H 0.8431 0.6930 0.5056
C14 C 0.8749(5) 0.7928(2) 0.5561(6)
H10 H 0.7794 0.8063 0.4560
C16 C 0.9367(5) 0.9145(2) 0.6486(7)
C18 C 0.9790(5) 0.84110(19) 0.6748(6)
H10_2 H 0.2206 0.3063 0.0440
C13_2 C 0.0873(5) 0.2249(2) 0.9138(6)
H9_2 H 0.1569 0.1930 0.9944
C14_2 C 0.1251(5) 0.2928(2) 0.9439(6)
C16_2 C 0.0633(5) 0.4145(2) 0.8514(7)
C18_2 C 0.0210(5) 0.34110(19) 0.8252(6)
O6_2 O 0.8116(4) 0.10979(14) 0.5772(4)
O7 O 0.9607(4) 0.09369(14) 0.8771(5)
N4_2 N 0.2586(4) 0.02400(17) 0.1017(5)
N5_2 N 0.3639(4) 0.00825(17) 0.2706(5)
N6_2 N 0.5160(4) 0.03340(18) 0.3004(5)
C11_2 C 0.8419(5) 0.2516(2) 0.6436(6)
H7_2 H 0.7477 0.2379 0.5421
C12_2 C 0.8789(5) 0.31947(19) 0.6754(6)
H8_2 H 0.8079 0.3513 0.5958
C15_2 C 0.9038(5) 0.12999(19) 0.7377(6)
C17_2 C 0.9456(5) 0.20393(19) 0.7633(6)
C19_2 C 0.3405(5) 0.0586(3) 0.0231(7)
C20_2 C 0.5051(5) 0.0651(3) 0.1494(7)
H12_2 H 0.5917 0.0874 0.1318
H11_2 H 0.2960 0.0756 0.9044
H5_2 H 0.7040 0.9244 0.0956
O2_2 O 0.1884(4) 0.89021(14) 0.4228(4)
O3_2 O 0.0393(4) 0.90631(14) 0.1229(5)
N1 N 0.7414(4) 0.97600(17) 0.8983(5)
N2_2 N 0.6361(4) 0.99175(17) 0.7294(5)
N3_2 N 0.4840(4) 0.96660(18) 0.6996(5)
C1_2 C 0.1581(5) 0.7484(2) 0.3564(6)
H1_2 H 0.2523 0.7621 0.4579
C2_2 C 0.1211(5) 0.68053(19) 0.3246(6)
H2_2 H 0.1921 0.6487 0.4042
C5_2 C 0.0962(5) 0.87001(19) 0.2623(6)
C7_2 C 0.0544(5) 0.79607(19) 0.2367(6)
C9_2 C 0.6595(5) 0.9414(3) 0.9769(7)
C10_2 C 0.4949(5) 0.9349(3) 0.8506(7)
H6_2 H 0.4083 0.9126 0.8682
C3_2 C 0.9127(5) 0.7751(2) 0.0862(6)
H3_2 H 0.8431 0.8070 0.0056
C4_2 C 0.8749(5) 0.7072(2) 0.0561(6)
C6_2 C 0.9367(5) 0.5855(2) 0.1486(7)
C8_2 C 0.9790(5) 0.65890(19) 0.1748(6)
H4_2 H 0.7794 0.6937 0.9560
loop_
_geom_bond_atom_site_label_1
_geom_bond_atom_site_label_2
_geom_bond_site_symmetry_1
_geom_bond_site_symmetry_2
O4 C6 1_555 1_555
C3 H3 1_555 1_555
C4 C3 1_555 1_555
H4 C4 1_555 1_555
C6 C8 1_555 1_555
O9 Zn1 1_555 1_555
O11 Zn1 1_555 1_555
N7 Zn1 1_555 1_555
C4 C8 1_555 1_555
Zn1_2 O3 1_555 1_555
Zn2 O2 1_555 1_555
O2 C5 1_555 1_555
O3 C5 1_555 1_555
C1 H1 1_555 1_555
C2 C1 1_555 1_555
H2 C2 1_555 1_555
C5 C7 1_555 1_555
C7 C1 1_555 1_555
N4 Zn1_2 1_555 1_555
N5 Zn2 1_555 1_555
C19 N4 1_555 1_555
H11 C19 1_555 1_555
C20 N6 1_555 1_555
H12 C20 1_555 1_555
Zn6_5 O1 1_555 1_555
O10 Zn1_2 1_555 1_555
O12 Zn2 1_555 1_555
N4 N5 1_555 1_555
N5 N6 1_555 1_555
C19 C20 1_555 1_555
N7 N2 1_555 1_555
N2 N3 1_555 1_555
C9 N7 1_555 1_555
H5 C9 1_555 1_555
C10 N3 1_555 1_555
H6 C10 1_555 1_555
Zn3 N2 1_555 1_555
O6 Zn3 1_555 1_555
O11 C15 1_555 1_555
C11 H7 1_555 1_555
C12 C11 1_555 1_555
H8 C12 1_555 1_555
C15 O6 1_555 1_555
C17 C11 1_555 1_555
Zn6_4 O5 1_555 1_555
O13 Zn3 1_555 1_555
C9 C10 1_555 1_555
C15 C17 1_555 1_555
O8 C16 1_555 1_555
C13 H9 1_555 1_555
C14 C13 1_555 1_555
H10 C14 1_555 1_555
C16 C18 1_555 1_555
C14 C18 1_555 1_555
O13 C16_2 1_555 1_555
C13_2 H9_2 1_555 1_555
C14_2 C13_2 1_555 1_555
C16_2 C18_2 1_555 1_555
C14_2 C18_2 1_555 1_555
O6_2 Zn8 1_555 1_555
O7 C15_2 1_555 1_555
N4_2 Zn6 1_555 1_555
N6_2 Zn8 1_555 1_555
C11_2 H7_2 1_555 1_555
C12_2 C11_2 1_555 1_555
H8_2 C12_2 1_555 1_555
C15_2 O6_2 1_555 1_555
C17_2 C11_2 1_555 1_555
C19_2 N4_2 1_555 1_555
C20_2 N6_2 1_555 1_555
H12_2 C20_2 1_555 1_555
O7 Zn6_6 1_555 1_555
N4_2 N5_2 1_555 1_555
N5_2 N6_2 1_555 1_555
C15_2 C17_2 1_555 1_555
C19_2 C20_2 1_555 1_555
Zn6_3 O3_2 1_555 1_555
Zn7 O2_2 1_555 1_555
O2_2 C5_2 1_555 1_555
O3_2 C5_2 1_555 1_555
N1 N2_2 1_555 1_555
N2_2 N3_2 1_555 1_555
N3_2 Zn7 1_555 1_555
C1_2 H1_2 1_555 1_555
C2_2 C1_2 1_555 1_555
H2_2 C2_2 1_555 1_555
C5_2 C7_2 1_555 1_555
C7_2 C1_2 1_555 1_555
C9_2 N1 1_555 1_555
C10_2 N3_2 1_555 1_555
H6_2 C10_2 1_555 1_555
Zn6_8 N1 1_555 1_555
C9_2 C10_2 1_555 1_555
O12 C6_2 1_555 1_555
C3_2 H3_2 1_555 1_555
C4_2 C3_2 1_555 1_555
C6_2 C8_2 1_555 1_555
C4_2 C8_2 1_555 1_555

#END
