
###############################################################################
#
# This file contains modified crystal structure data generated from the
# MOF subset of the Cambridge Structural Database (CSD) v543 
# hosted by the Cambridge Crystallographic Data Centre (CCDC).
#
# This work is licensed under the Creative Commons
# Attribution-NonCommercial-ShareAlike 4.0 International License.
# To view a copy of this license, visit
# http://creativecommons.org/licenses/by-nc-sa/4.0/
# or send a letter to
# Creative Commons, PO Box 1866, Mountain View, CA 94042, USA.
#
# CIF created using the CSD Python API on 29 September 2022
# The structure has been converted into the P1 space group
# The structure has a 3D framework
# The original CSD entry MAFZIE is in the orthorhombic crystal system
# The framework has been calculated to contain at least 10.0% void space
# The void calculation uses a probe of radius 1.32A, grid spacing 0.4
# H atom positions have been added when not included in the experimental data
# Generated hydrogen atom positions removed from atoms on special positions
#
###############################################################################

data_MAFZIE
_chemical_formula_moiety         '(C176 H216 N8 O128 P16 Zn24)n'
_symmetry_cell_setting           triclinic
_symmetry_space_group_name_H-M   'P 1'
_symmetry_Int_Tables_number      1
_space_group_name_Hall           'P 1'
loop_
_symmetry_equiv_pos_site_id
_symmetry_equiv_pos_as_xyz
1 x,y,z
_cell_length_a                   13.707(5)
_cell_length_b                   17.121(7)
_cell_length_c                   36.018(14)
_cell_angle_alpha                90
_cell_angle_beta                 90
_cell_angle_gamma                90
_cell_volume                     8452.62
loop_
_atom_site_label
_atom_site_type_symbol
_atom_site_fract_x
_atom_site_fract_y
_atom_site_fract_z
C1 C 0.1821(6) 0.6176(5) 0.8218(2)
C2 C 0.1889(6) 0.6409(5) 0.7850(2)
H1 H 0.1506 0.6823 0.7769
C3 C 0.2506(7) 0.6047(5) 0.7602(2)
C4 C 0.3105(6) 0.5449(5) 0.7728(2)
H2 H 0.3534 0.5206 0.7564
C5 C 0.3068(6) 0.5211(5) 0.8094(2)
C6 C 0.2415(6) 0.5576(5) 0.8337(2)
H3 H 0.2380 0.5412 0.8583
C7 C 0.2548(8) 0.6318(6) 0.7203(3)
C8 C 0.3690(7) 0.4544(5) 0.8222(3)
O2 O 0.1264(5) 0.7521(4) 0.8485(2)
O3 O 0.1117(5) 0.6362(4) 0.89004(17)
O4 O 0.1976(7) 0.6808(6) 0.7104(2)
O5 O 0.3185(5) 0.6013(4) 0.70031(17)
O6 O 0.4215(7) 0.4200(5) 0.8007(2)
O7 O 0.3627(5) 0.4369(4) 0.85633(18)
O15 O 0.1304(6) 0.8452(4) 0.9241(2)
P1 P 0.09793(17) 0.66740(13) 0.85140(6)
Zn2 Zn 0.01341(7) 0.64723(5) 0.92783(2)
Zn3 Zn 0.07369(8) 0.84166(6) 0.87205(3)
O17 O 0.1373(5) 0.9369(4) 0.85633(18)
O18 O 0.0679(5) 0.6323(4) 0.97619(16)
Zn4 Zn 0.36464(7) 0.63506(5) 0.65310(2)
Zn8 Zn 0.42631(8) 0.34166(6) 0.87205(3)
H22 H 0.202598 0.848809 0.922605
H23 H 0.104463 0.891523 0.937434
C16 C 0.6343(7) 0.0213(5) 0.9078(3)
O13 O 0.5710(6) 0.0553(4) 0.92611(19)
O14 O 0.6656(5) 0.0438(4) 0.87714(17)
Zn5 Zn 0.63536(7) 0.13506(5) 0.84690(2)
Zn7 Zn 0.48659(7) 0.14723(5) 0.92783(2)
C15 C 0.6299(7) 0.8250(5) 0.0096(3)
O11 O 0.6595(6) 0.7629(4) 0.0231(2)
O12 O 0.5679(5) 0.8677(4) 0.02381(16)
Zn6 Zn 0.51341(7) 0.85277(5) 0.07217(2)
C9 C 0.7819(6) 0.8369(4) 0.9208(2)
C10 C 0.7446(6) 0.8103(5) 0.9550(2)
H4 H 0.7692 0.7649 0.9656
C11 C 0.6705(7) 0.8522(5) 0.9729(2)
C12 C 0.6350(7) 0.9199(5) 0.9570(2)
H5 H 0.5857 0.9477 0.9688
C13 C 0.6719(6) 0.9471(5) 0.9235(2)
C14 C 0.7446(6) 0.9055(4) 0.9060(2)
H6 H 0.7694 0.9239 0.8836
O1 O 0.9992(4) 0.6527(4) 0.83596(18)
O8 O 0.8183(4) 0.7273(3) 0.87134(16)
O9 O 0.9347(4) 0.7382(3) 0.92541(16)
O10 O 0.9349(4) 0.8407(3) 0.87547(17)
P2 P 0.87501(17) 0.78219(13) 0.89694(6)
Zn1 Zn 0.86464(7) 0.63506(5) 0.84690(2)
O16 O 0.8185(5) 0.6013(4) 0.79969(17)
O19 O 0.9290(6) 0.5553(4) 0.92611(19)
O20 O 0.8344(5) 0.5438(4) 0.87714(17)
Zn7_2 Zn 0.01341(7) 0.85277(5) 0.42783(2)
C1_2 C 0.3179(6) 0.3824(5) 0.3218(2)
C2_2 C 0.3111(6) 0.3591(5) 0.2850(2)
H1_2 H 0.3494 0.3177 0.2769
C3_2 C 0.2494(7) 0.3953(5) 0.2602(2)
C4_2 C 0.1895(6) 0.4551(5) 0.2728(2)
H2_2 H 0.1466 0.4794 0.2564
C5_2 C 0.1932(6) 0.4789(5) 0.3094(2)
C6_2 C 0.2585(6) 0.4424(5) 0.3337(2)
H3_2 H 0.2620 0.4588 0.3583
C7_2 C 0.2452(8) 0.3682(6) 0.2203(3)
C8_2 C 0.1310(7) 0.5456(5) 0.3222(3)
C9_2 C 0.7181(6) 0.1631(4) 0.4208(2)
C10_2 C 0.7554(6) 0.1897(5) 0.4550(2)
H4_2 H 0.7308 0.2351 0.4656
C11_2 C 0.8295(7) 0.1478(5) 0.4729(2)
C12_2 C 0.8650(7) 0.0801(5) 0.4570(2)
H5_2 H 0.9143 0.0523 0.4688
C13_2 C 0.8281(6) 0.0529(5) 0.4235(2)
C14_2 C 0.7554(6) 0.0945(4) 0.4060(2)
H6_2 H 0.7306 0.0761 0.3836
C15_2 C 0.8701(7) 0.1750(5) 0.5096(3)
O1_2 O 0.5008(4) 0.3473(4) 0.33596(18)
O2_2 O 0.3736(5) 0.2479(4) 0.3485(2)
O3_2 O 0.3883(5) 0.3638(4) 0.39004(17)
O4_2 O 0.3024(7) 0.3192(6) 0.2104(2)
O5_2 O 0.1815(5) 0.3987(4) 0.20031(17)
O6_2 O 0.0785(7) 0.5800(5) 0.3007(2)
O7_2 O 0.1373(5) 0.5631(4) 0.35633(18)
O8_2 O 0.6817(4) 0.2727(3) 0.37134(16)
O9_2 O 0.5653(4) 0.2618(3) 0.42541(16)
O10_2 O 0.5651(4) 0.1593(3) 0.37547(17)
O11_2 O 0.8405(6) 0.2371(4) 0.5231(2)
O12_2 O 0.9321(5) 0.1323(4) 0.52381(16)
O15_2 O 0.3696(6) 0.1548(4) 0.4241(2)
P1_2 P 0.40207(17) 0.33260(13) 0.35140(6)
P2_2 P 0.62499(17) 0.21781(13) 0.39694(6)
Zn1_2 Zn 0.63536(7) 0.36494(5) 0.34690(2)
Zn2_2 Zn 0.48659(7) 0.35277(5) 0.42783(2)
Zn3_2 Zn 0.42631(8) 0.15834(6) 0.37205(3)
O16_2 O 0.6815(5) 0.3987(4) 0.29969(17)
O17_2 O 0.3627(5) 0.0631(4) 0.35633(18)
O18_2 O 0.4321(5) 0.3677(4) 0.47619(16)
O19_2 O 0.5710(6) 0.4447(4) 0.42611(19)
O20_2 O 0.6656(5) 0.4562(4) 0.37714(17)
Zn4_2 Zn 0.13536(7) 0.36494(5) 0.15310(2)
Zn6_2 Zn 0.98659(7) 0.14723(5) 0.57217(2)
Zn8_2 Zn 0.07369(8) 0.65834(6) 0.37205(3)
H22_2 H 0.297402 0.151191 0.422605
H23_2 H 0.395537 0.108477 0.437434
C16_2 C 0.8657(7) 0.9787(5) 0.4078(3)
O13_2 O 0.9290(6) 0.9447(4) 0.42611(19)
O14_2 O 0.8344(5) 0.9562(4) 0.37714(17)
Zn5_2 Zn 0.86464(7) 0.86494(5) 0.34690(2)
C8_3 C 0.8690(7) 0.0456(5) 0.1778(3)
O6_3 O 0.9215(7) 0.0800(5) 0.1993(2)
O7_3 O 0.8627(5) 0.0631(4) 0.14367(18)
Zn8_3 Zn 0.92631(8) 0.15834(6) 0.12795(3)
C1_3 C 0.6821(6) 0.8824(5) 0.1782(2)
C2_3 C 0.6889(6) 0.8591(5) 0.2150(2)
H1_3 H 0.6506 0.8177 0.2231
C3_3 C 0.7506(7) 0.8953(5) 0.2398(2)
C4_3 C 0.8105(6) 0.9551(5) 0.2272(2)
H2_3 H 0.8534 0.9794 0.2436
C5_3 C 0.8068(6) 0.9789(5) 0.1906(2)
C6_3 C 0.7415(6) 0.9424(5) 0.1663(2)
H3_3 H 0.7380 0.9588 0.1417
C7_3 C 0.7548(8) 0.8682(6) 0.2797(3)
C9_3 C 0.2819(6) 0.6631(4) 0.0792(2)
C10_3 C 0.2446(6) 0.6897(5) 0.0450(2)
H4_3 H 0.2692 0.7351 0.0344
C11_3 C 0.1705(7) 0.6478(5) 0.0271(2)
C12_3 C 0.1350(7) 0.5801(5) 0.0430(2)
H5_3 H 0.0857 0.5523 0.0312
C13_3 C 0.1719(6) 0.5529(5) 0.0765(2)
C14_3 C 0.2446(6) 0.5945(4) 0.0940(2)
H6_3 H 0.2694 0.5761 0.1164
C16_3 C 0.1343(7) 0.4787(5) 0.0922(3)
O1_3 O 0.4992(4) 0.8473(4) 0.16404(18)
O2_3 O 0.6264(5) 0.7479(4) 0.1515(2)
O3_3 O 0.6117(5) 0.8638(4) 0.10996(17)
O4_3 O 0.6976(7) 0.8192(6) 0.2896(2)
O5_3 O 0.8185(5) 0.8987(4) 0.29969(17)
O8_3 O 0.3183(4) 0.7727(3) 0.12866(16)
O9_3 O 0.4347(4) 0.7618(3) 0.07459(16)
O10_3 O 0.4349(4) 0.6593(3) 0.12453(17)
O13_3 O 0.0710(6) 0.4447(4) 0.07389(19)
O14_3 O 0.1656(5) 0.4562(4) 0.12286(17)
O15_3 O 0.6304(6) 0.6548(4) 0.0759(2)
P1_3 P 0.59793(17) 0.83260(13) 0.14860(6)
P2_3 P 0.37501(17) 0.71781(13) 0.10306(6)
Zn1_3 Zn 0.36464(7) 0.86494(5) 0.15310(2)
Zn3_3 Zn 0.57369(8) 0.65834(6) 0.12795(3)
O16_3 O 0.3185(5) 0.8987(4) 0.20031(17)
O17_3 O 0.6373(5) 0.5631(4) 0.14367(18)
O19_3 O 0.4290(6) 0.9447(4) 0.07389(19)
O20_3 O 0.3344(5) 0.9562(4) 0.12286(17)
H22_3 H 0.702598 0.651191 0.0773947
H23_3 H 0.604463 0.608477 0.0625663
C15_3 C 0.1299(7) 0.6750(5) 0.9904(3)
O11_3 O 0.1595(6) 0.7371(4) 0.9769(2)
Zn7_3 Zn 0.98659(7) 0.35277(5) 0.07217(2)
C9_4 C 0.2181(6) 0.3369(4) 0.5792(2)
C10_4 C 0.2554(6) 0.3103(5) 0.5450(2)
H4_4 H 0.2308 0.2649 0.5344
C11_4 C 0.3295(7) 0.3522(5) 0.5271(2)
C12_4 C 0.3650(7) 0.4199(5) 0.5430(2)
H5_4 H 0.4143 0.4477 0.5312
C13_4 C 0.3281(6) 0.4471(5) 0.5765(2)
C14_4 C 0.2554(6) 0.4055(4) 0.5940(2)
H6_4 H 0.2306 0.4239 0.6164
C15_4 C 0.3701(7) 0.3250(5) 0.4904(3)
C16_4 C 0.3657(7) 0.5213(5) 0.5922(3)
O1_4 O 0.0008(4) 0.1527(4) 0.66404(18)
O8_4 O 0.1817(4) 0.2273(3) 0.62866(16)
O9_4 O 0.0653(4) 0.2382(3) 0.57459(16)
O10_4 O 0.0651(4) 0.3407(3) 0.62453(17)
O11_4 O 0.3405(6) 0.2629(4) 0.4769(2)
O13_4 O 0.4290(6) 0.5553(4) 0.57389(19)
O14_4 O 0.3344(5) 0.5438(4) 0.62286(17)
P2_4 P 0.12499(17) 0.28219(13) 0.60306(6)
Zn1_4 Zn 0.13536(7) 0.13506(5) 0.65310(2)
O16_4 O 0.1815(5) 0.1013(4) 0.70031(17)
O19_4 O 0.0710(6) 0.0553(4) 0.57389(19)
O20_4 O 0.1656(5) 0.0438(4) 0.62286(17)
Zn7_4 Zn 0.51341(7) 0.64723(5) 0.57217(2)
C1_4 C 0.8179(6) 0.1176(5) 0.6782(2)
C2_4 C 0.8111(6) 0.1409(5) 0.7150(2)
H1_4 H 0.8494 0.1823 0.7231
C3_4 C 0.7494(7) 0.1047(5) 0.7398(2)
C4_4 C 0.6895(6) 0.0449(5) 0.7272(2)
H2_4 H 0.6466 0.0206 0.7436
C5_4 C 0.6932(6) 0.0211(5) 0.6906(2)
C6_4 C 0.7585(6) 0.0576(5) 0.6663(2)
H3_4 H 0.7620 0.0412 0.6417
C7_4 C 0.7452(8) 0.1318(6) 0.7797(3)
O2_4 O 0.8736(5) 0.2521(4) 0.6515(2)
O3_4 O 0.8883(5) 0.1362(4) 0.60996(17)
O4_4 O 0.8024(7) 0.1808(6) 0.7896(2)
O5_4 O 0.6815(5) 0.1013(4) 0.79969(17)
O15_4 O 0.8696(6) 0.3452(4) 0.5759(2)
P1_4 P 0.90207(17) 0.16740(13) 0.64860(6)
Zn3_4 Zn 0.92631(8) 0.34166(6) 0.62795(3)
O17_4 O 0.8627(5) 0.4369(4) 0.64367(18)
H22_4 H 0.797402 0.348809 0.577395
H23_4 H 0.895537 0.391523 0.562566
C8_4 C 0.6310(7) 0.9544(5) 0.6778(3)
O6_4 O 0.5785(7) 0.9200(5) 0.6993(2)
O7_4 O 0.6373(5) 0.9369(4) 0.64367(18)
Zn8_4 Zn 0.57369(8) 0.84166(6) 0.62795(3)
C9_5 C 0.2181(6) 0.1631(4) 0.0792(2)
C10_5 C 0.2554(6) 0.1897(5) 0.0450(2)
H4_5 H 0.2308 0.2351 0.0344
C11_5 C 0.3295(7) 0.1478(5) 0.0271(2)
C12_5 C 0.3650(7) 0.0801(5) 0.0430(2)
H5_5 H 0.4143 0.0523 0.0312
C13_5 C 0.3281(6) 0.0529(5) 0.0765(2)
C14_5 C 0.2554(6) 0.0945(4) 0.0940(2)
H6_5 H 0.2306 0.0761 0.1164
O1_5 O 0.0008(4) 0.3473(4) 0.16404(18)
O8_5 O 0.1817(4) 0.2727(3) 0.12866(16)
O9_5 O 0.0653(4) 0.2618(3) 0.07459(16)
O10_5 O 0.0651(4) 0.1593(3) 0.12453(17)
P2_5 P 0.12499(17) 0.21781(13) 0.10306(6)
C15_5 C 0.3701(7) 0.1750(5) 0.9904(3)
O11_5 O 0.3405(6) 0.2371(4) 0.9769(2)
O12_3 O 0.4321(5) 0.1323(4) 0.97619(16)
C16_5 C 0.3657(7) 0.9787(5) 0.0922(3)
C1_5 C 0.8179(6) 0.3824(5) 0.1782(2)
C2_5 C 0.8111(6) 0.3591(5) 0.2150(2)
H1_5 H 0.8494 0.3177 0.2231
C3_5 C 0.7494(7) 0.3953(5) 0.2398(2)
C4_5 C 0.6895(6) 0.4551(5) 0.2272(2)
H2_5 H 0.6466 0.4794 0.2436
C5_5 C 0.6932(6) 0.4789(5) 0.1906(2)
C6_5 C 0.7585(6) 0.4424(5) 0.1663(2)
H3_5 H 0.7620 0.4588 0.1417
C7_5 C 0.7452(8) 0.3682(6) 0.2797(3)
C8_5 C 0.6310(7) 0.5456(5) 0.1778(3)
O2_5 O 0.8736(5) 0.2479(4) 0.1515(2)
O3_5 O 0.8883(5) 0.3638(4) 0.10996(17)
O4_5 O 0.8024(7) 0.3192(6) 0.2896(2)
O6_5 O 0.5785(7) 0.5800(5) 0.1993(2)
O15_5 O 0.8696(6) 0.1548(4) 0.0759(2)
P1_5 P 0.90207(17) 0.33260(13) 0.14860(6)
O18_3 O 0.9321(5) 0.3677(4) 0.02381(16)
H22_5 H 0.797402 0.151191 0.0773947
H23_5 H 0.895537 0.108477 0.0625663
C16_6 C 0.1343(7) 0.0213(5) 0.5922(3)
C1_6 C 0.6821(6) 0.6176(5) 0.6782(2)
C2_6 C 0.6889(6) 0.6409(5) 0.7150(2)
H1_6 H 0.6506 0.6823 0.7231
C3_6 C 0.7506(7) 0.6047(5) 0.7398(2)
C4_6 C 0.8105(6) 0.5449(5) 0.7272(2)
H2_6 H 0.8534 0.5206 0.7436
C5_6 C 0.8068(6) 0.5211(5) 0.6906(2)
C6_6 C 0.7415(6) 0.5576(5) 0.6663(2)
H3_6 H 0.7380 0.5412 0.6417
C7_6 C 0.7548(8) 0.6318(6) 0.7797(3)
C8_6 C 0.8690(7) 0.4544(5) 0.6778(3)
C9_6 C 0.2819(6) 0.8369(4) 0.5792(2)
C10_6 C 0.2446(6) 0.8103(5) 0.5450(2)
H4_6 H 0.2692 0.7649 0.5344
C11_6 C 0.1705(7) 0.8522(5) 0.5271(2)
C12_6 C 0.1350(7) 0.9199(5) 0.5430(2)
H5_6 H 0.0857 0.9477 0.5312
C13_6 C 0.1719(6) 0.9471(5) 0.5765(2)
C14_6 C 0.2446(6) 0.9055(4) 0.5940(2)
H6_6 H 0.2694 0.9239 0.6164
C15_6 C 0.1299(7) 0.8250(5) 0.4904(3)
O1_6 O 0.4992(4) 0.6527(4) 0.66404(18)
O2_6 O 0.6264(5) 0.7521(4) 0.6515(2)
O3_6 O 0.6117(5) 0.6362(4) 0.60996(17)
O4_6 O 0.6976(7) 0.6808(6) 0.7896(2)
O6_6 O 0.9215(7) 0.4200(5) 0.6993(2)
O8_6 O 0.3183(4) 0.7273(3) 0.62866(16)
O9_6 O 0.4347(4) 0.7382(3) 0.57459(16)
O10_6 O 0.4349(4) 0.8407(3) 0.62453(17)
O11_6 O 0.1595(6) 0.7629(4) 0.4769(2)
O12_4 O 0.0679(5) 0.8677(4) 0.47619(16)
O15_6 O 0.6304(6) 0.8452(4) 0.5759(2)
P1_6 P 0.59793(17) 0.66740(13) 0.64860(6)
P2_6 P 0.37501(17) 0.78219(13) 0.60306(6)
O18_4 O 0.5679(5) 0.6323(4) 0.52381(16)
H22_6 H 0.702598 0.848809 0.577395
H23_6 H 0.604463 0.891523 0.562566
C15_7 C 0.8701(7) 0.3250(5) 0.0096(3)
O11_7 O 0.8405(6) 0.2629(4) 0.0231(2)
C1_7 C 0.3179(6) 0.1176(5) 0.8218(2)
C2_7 C 0.3111(6) 0.1409(5) 0.7850(2)
H1_7 H 0.3494 0.1823 0.7769
C3_7 C 0.2494(7) 0.1047(5) 0.7602(2)
C4_7 C 0.1895(6) 0.0449(5) 0.7728(2)
H2_7 H 0.1466 0.0206 0.7564
C5_7 C 0.1932(6) 0.0211(5) 0.8094(2)
C6_7 C 0.2585(6) 0.0576(5) 0.8337(2)
H3_7 H 0.2620 0.0412 0.8583
C7_7 C 0.2452(8) 0.1318(6) 0.7203(3)
C9_7 C 0.7181(6) 0.3369(4) 0.9208(2)
C10_7 C 0.7554(6) 0.3103(5) 0.9550(2)
H4_7 H 0.7308 0.2649 0.9656
C11_7 C 0.8295(7) 0.3522(5) 0.9729(2)
C12_7 C 0.8650(7) 0.4199(5) 0.9570(2)
H5_7 H 0.9143 0.4477 0.9688
C13_7 C 0.8281(6) 0.4471(5) 0.9235(2)
C14_7 C 0.7554(6) 0.4055(4) 0.9060(2)
H6_7 H 0.7306 0.4239 0.8836
C16_7 C 0.8657(7) 0.5213(5) 0.9078(3)
O1_7 O 0.5008(4) 0.1527(4) 0.83596(18)
O2_7 O 0.3736(5) 0.2521(4) 0.8485(2)
O3_7 O 0.3883(5) 0.1362(4) 0.89004(17)
O4_7 O 0.3024(7) 0.1808(6) 0.7104(2)
O8_7 O 0.6817(4) 0.2273(3) 0.87134(16)
O9_7 O 0.5653(4) 0.2382(3) 0.92541(16)
O10_7 O 0.5651(4) 0.3407(3) 0.87547(17)
O15_7 O 0.3696(6) 0.3452(4) 0.9241(2)
P1_7 P 0.40207(17) 0.16740(13) 0.85140(6)
P2_7 P 0.62499(17) 0.28219(13) 0.89694(6)
H22_7 H 0.297402 0.348809 0.922605
H23_7 H 0.395537 0.391523 0.937434
C8_7 C 0.1310(7) 0.9544(5) 0.8222(3)
O6_7 O 0.0785(7) 0.9200(5) 0.8007(2)
C8_8 C 0.3690(7) 0.0456(5) 0.3222(3)
O6_8 O 0.4215(7) 0.0800(5) 0.3007(2)
C1_8 C 0.1821(6) 0.8824(5) 0.3218(2)
C2_8 C 0.1889(6) 0.8591(5) 0.2850(2)
H1_8 H 0.1506 0.8177 0.2769
C3_8 C 0.2506(7) 0.8953(5) 0.2602(2)
C4_8 C 0.3105(6) 0.9551(5) 0.2728(2)
H2_8 H 0.3534 0.9794 0.2564
C5_8 C 0.3068(6) 0.9789(5) 0.3094(2)
C6_8 C 0.2415(6) 0.9424(5) 0.3337(2)
H3_8 H 0.2380 0.9588 0.3583
C7_8 C 0.2548(8) 0.8682(6) 0.2203(3)
O2_8 O 0.1264(5) 0.7479(4) 0.3485(2)
O3_8 O 0.1117(5) 0.8638(4) 0.39004(17)
O4_8 O 0.1976(7) 0.8192(6) 0.2104(2)
O15_8 O 0.1304(6) 0.6548(4) 0.4241(2)
P1_8 P 0.09793(17) 0.83260(13) 0.35140(6)
H22_8 H 0.202598 0.651191 0.422605
H23_8 H 0.104463 0.608477 0.437434
C9_8 C 0.7819(6) 0.6631(4) 0.4208(2)
C10_8 C 0.7446(6) 0.6897(5) 0.4550(2)
H4_8 H 0.7692 0.7351 0.4656
C11_8 C 0.6705(7) 0.6478(5) 0.4729(2)
C12_8 C 0.6350(7) 0.5801(5) 0.4570(2)
H5_8 H 0.5857 0.5523 0.4688
C13_8 C 0.6719(6) 0.5529(5) 0.4235(2)
C14_8 C 0.7446(6) 0.5945(4) 0.4060(2)
H6_8 H 0.7694 0.5761 0.3836
C15_8 C 0.6299(7) 0.6750(5) 0.5096(3)
C16_8 C 0.6343(7) 0.4787(5) 0.4078(3)
O1_8 O 0.9992(4) 0.8473(4) 0.33596(18)
O8_8 O 0.8183(4) 0.7727(3) 0.37134(16)
O9_8 O 0.9347(4) 0.7618(3) 0.42541(16)
O10_8 O 0.9349(4) 0.6593(3) 0.37547(17)
O11_8 O 0.6595(6) 0.7371(4) 0.5231(2)
P2_8 P 0.87501(17) 0.71781(13) 0.39694(6)
C17 C 0.5107(14) 0.4454(12) 0.7032(6)
H7 H 0.4600 0.4088 0.6974
H8 H 0.5386 0.4651 0.6806
H9 H 0.4839 0.4880 0.7172
C18 C 0.5907(16) 0.4043(14) 0.7262(6)
H10 H 0.6261 0.3698 0.7096
H11 H 0.6363 0.4441 0.7344
C19 C 0.6416(16) 0.3358(15) 0.7785(6)
H12 H 0.6892 0.3085 0.7634
H13 H 0.6172 0.2999 0.7971
C20 C 0.5413(14) 0.2295(12) 0.7312(6)
H14 H 0.5720 0.2506 0.7094
H15 H 0.4856 0.1990 0.7240
H16 H 0.5869 0.1969 0.7442
C21 C 0.5126(19) 0.2881(11) 0.7534(7)
H17 H 0.5093 0.2668 0.7783
H18 H 0.4462 0.3006 0.7463
C22 C 0.6869(17) 0.4024(12) 0.7963(5)
H19 H 0.7237 0.3851 0.8175
H20 H 0.6374 0.4384 0.8043
H21 H 0.7298 0.4279 0.7791
N1 N 0.5647(10) 0.3622(8) 0.7562(4)
H27 H 0.523247 0.397726 0.772328
H7_2 H 0.0400 0.5912 0.1974
H9_2 H 0.0161 0.5120 0.2172
H15_2 H 0.0144 0.8010 0.2240
H18_2 H 0.0538 0.6994 0.2463
C17_2 C 0.9893(14) 0.5546(12) 0.2032(6)
H8_2 H 0.9614 0.5349 0.1806
C18_2 C 0.9093(16) 0.5957(14) 0.2262(6)
H10_2 H 0.8739 0.6302 0.2096
H11_2 H 0.8637 0.5559 0.2344
C19_2 C 0.8584(16) 0.6642(15) 0.2785(6)
H12_2 H 0.8108 0.6915 0.2634
H13_2 H 0.8828 0.7001 0.2971
C20_2 C 0.9587(14) 0.7705(12) 0.2312(6)
H14_2 H 0.9280 0.7494 0.2094
H16_2 H 0.9131 0.8031 0.2442
C21_2 C 0.9874(19) 0.7119(11) 0.2534(7)
H17_2 H 0.9907 0.7332 0.2783
C22_2 C 0.8131(17) 0.5976(12) 0.2963(5)
H19_2 H 0.7763 0.6149 0.3175
H20_2 H 0.8626 0.5616 0.3043
H21_2 H 0.7702 0.5721 0.2791
N1_2 N 0.9353(10) 0.6378(8) 0.2562(4)
H27_2 H 0.976753 0.602274 0.272328
C17_3 C 0.0107(14) 0.0546(12) 0.2968(6)
H8_3 H 0.0386 0.0349 0.3194
C18_3 C 0.0907(16) 0.0957(14) 0.2738(6)
H10_3 H 0.1261 0.1302 0.2904
H11_3 H 0.1363 0.0559 0.2656
C19_3 C 0.1416(16) 0.1642(15) 0.2215(6)
H12_3 H 0.1892 0.1915 0.2366
H13_3 H 0.1172 0.2001 0.2029
C20_3 C 0.0413(14) 0.2705(12) 0.2688(6)
H14_3 H 0.0720 0.2494 0.2906
H16_3 H 0.0869 0.3031 0.2558
C21_3 C 0.0126(19) 0.2119(11) 0.2466(7)
H17_3 H 0.0093 0.2332 0.2217
C22_3 C 0.1869(17) 0.0976(12) 0.2037(5)
H19_3 H 0.2237 0.1149 0.1825
H20_3 H 0.1374 0.0616 0.1957
H21_3 H 0.2298 0.0721 0.2209
N1_3 N 0.0647(10) 0.1378(8) 0.2438(4)
H27_3 H 0.0232474 0.102274 0.227672
H7_3 H 0.9600 0.0912 0.3026
H9_3 H 0.9839 0.0120 0.2828
H15_3 H 0.9856 0.3010 0.2760
H18_3 H 0.9462 0.1994 0.2537
C17_4 C 0.4893(14) 0.9454(12) 0.7968(6)
H7_4 H 0.5400 0.9088 0.8026
H8_4 H 0.4614 0.9651 0.8194
H9_4 H 0.5161 0.9880 0.7828
C18_4 C 0.4093(16) 0.9043(14) 0.7738(6)
H10_4 H 0.3739 0.8698 0.7904
H11_4 H 0.3637 0.9441 0.7656
C19_4 C 0.3584(16) 0.8358(15) 0.7215(6)
H12_4 H 0.3108 0.8085 0.7366
H13_4 H 0.3828 0.7999 0.7029
C20_4 C 0.4587(14) 0.7295(12) 0.7688(6)
H14_4 H 0.4280 0.7506 0.7906
H15_4 H 0.5144 0.6990 0.7760
H16_4 H 0.4131 0.6969 0.7558
C21_4 C 0.4874(19) 0.7881(11) 0.7466(7)
H17_4 H 0.4907 0.7668 0.7217
H18_4 H 0.5538 0.8006 0.7537
C22_4 C 0.3131(17) 0.9024(12) 0.7037(5)
H19_4 H 0.2763 0.8851 0.6825
H20_4 H 0.3626 0.9384 0.6957
H21_4 H 0.2702 0.9279 0.7209
N1_4 N 0.4353(10) 0.8622(8) 0.7438(4)
H27_4 H 0.476753 0.897726 0.727672
C17_5 C 0.4893(14) 0.5546(12) 0.2968(6)
H7_5 H 0.5400 0.5912 0.3026
H8_5 H 0.4614 0.5349 0.3194
H9_5 H 0.5161 0.5120 0.2828
C18_5 C 0.4093(16) 0.5957(14) 0.2738(6)
H10_5 H 0.3739 0.6302 0.2904
H11_5 H 0.3637 0.5559 0.2656
C19_5 C 0.3584(16) 0.6642(15) 0.2215(6)
H12_5 H 0.3108 0.6915 0.2366
H13_5 H 0.3828 0.7001 0.2029
C20_5 C 0.4587(14) 0.7705(12) 0.2688(6)
H14_5 H 0.4280 0.7494 0.2906
H15_5 H 0.5144 0.8010 0.2760
H16_5 H 0.4131 0.8031 0.2558
C21_5 C 0.4874(19) 0.7119(11) 0.2466(7)
H17_5 H 0.4907 0.7332 0.2217
H18_5 H 0.5538 0.6994 0.2537
C22_5 C 0.3131(17) 0.5976(12) 0.2037(5)
H19_5 H 0.2763 0.6149 0.1825
H20_5 H 0.3626 0.5616 0.1957
H21_5 H 0.2702 0.5721 0.2209
N1_5 N 0.4353(10) 0.6378(8) 0.2438(4)
H27_5 H 0.476753 0.602274 0.227672
C17_6 C 0.0107(14) 0.4454(12) 0.7968(6)
H8_6 H 0.0386 0.4651 0.8194
C18_6 C 0.0907(16) 0.4043(14) 0.7738(6)
H10_6 H 0.1261 0.3698 0.7904
H11_6 H 0.1363 0.4441 0.7656
C19_6 C 0.1416(16) 0.3358(15) 0.7215(6)
H12_6 H 0.1892 0.3085 0.7366
H13_6 H 0.1172 0.2999 0.7029
C20_6 C 0.0413(14) 0.2295(12) 0.7688(6)
H14_6 H 0.0720 0.2506 0.7906
H16_6 H 0.0869 0.1969 0.7558
C21_6 C 0.0126(19) 0.2881(11) 0.7466(7)
H17_6 H 0.0093 0.2668 0.7217
C22_6 C 0.1869(17) 0.4024(12) 0.7037(5)
H19_6 H 0.2237 0.3851 0.6825
H20_6 H 0.1374 0.4384 0.6957
H21_6 H 0.2298 0.4279 0.7209
N1_6 N 0.0647(10) 0.3622(8) 0.7438(4)
H27_6 H 0.0232474 0.397726 0.727672
H7_6 H 0.9600 0.4088 0.8026
H9_6 H 0.9839 0.4880 0.7828
H15_6 H 0.9856 0.1990 0.7760
H18_6 H 0.9462 0.3006 0.7537
H7_7 H 0.0400 0.9088 0.6974
H9_7 H 0.0161 0.9880 0.7172
H15_7 H 0.0144 0.6990 0.7240
H18_7 H 0.0538 0.8006 0.7463
C17_7 C 0.9893(14) 0.9454(12) 0.7032(6)
H8_7 H 0.9614 0.9651 0.6806
C18_7 C 0.9093(16) 0.9043(14) 0.7262(6)
H10_7 H 0.8739 0.8698 0.7096
H11_7 H 0.8637 0.9441 0.7344
C19_7 C 0.8584(16) 0.8358(15) 0.7785(6)
H12_7 H 0.8108 0.8085 0.7634
H13_7 H 0.8828 0.7999 0.7971
C20_7 C 0.9587(14) 0.7295(12) 0.7312(6)
H14_7 H 0.9280 0.7506 0.7094
H16_7 H 0.9131 0.6969 0.7442
C21_7 C 0.9874(19) 0.7881(11) 0.7534(7)
H17_7 H 0.9907 0.7668 0.7783
C22_7 C 0.8131(17) 0.9024(12) 0.7963(5)
H19_7 H 0.7763 0.8851 0.8175
H20_7 H 0.8626 0.9384 0.8043
H21_7 H 0.7702 0.9279 0.7791
N1_7 N 0.9353(10) 0.8622(8) 0.7562(4)
H27_7 H 0.976753 0.897726 0.772328
C17_8 C 0.5107(14) 0.0546(12) 0.2032(6)
H7_8 H 0.4600 0.0912 0.1974
H8_8 H 0.5386 0.0349 0.1806
H9_8 H 0.4839 0.0120 0.2172
C18_8 C 0.5907(16) 0.0957(14) 0.2262(6)
H10_8 H 0.6261 0.1302 0.2096
H11_8 H 0.6363 0.0559 0.2344
C19_8 C 0.6416(16) 0.1642(15) 0.2785(6)
H12_8 H 0.6892 0.1915 0.2634
H13_8 H 0.6172 0.2001 0.2971
C20_8 C 0.5413(14) 0.2705(12) 0.2312(6)
H14_8 H 0.5720 0.2494 0.2094
H15_8 H 0.4856 0.3010 0.2240
H16_8 H 0.5869 0.3031 0.2442
C21_8 C 0.5126(19) 0.2119(11) 0.2534(7)
H17_8 H 0.5093 0.2332 0.2783
H18_8 H 0.4462 0.1994 0.2463
C22_8 C 0.6869(17) 0.0976(12) 0.2963(5)
H19_8 H 0.7237 0.1149 0.3175
H20_8 H 0.6374 0.0616 0.3043
H21_8 H 0.7298 0.0721 0.2791
N1_8 N 0.5647(10) 0.1378(8) 0.2562(4)
H27_8 H 0.523247 0.102274 0.272328
O21 O 0.3730(7) 0.2493(8) 0.6482(3)
O21_2 O 0.1270(7) 0.7507(8) 0.1482(3)
O21_3 O 0.8730(7) 0.2507(8) 0.3518(3)
O21_4 O 0.6270(7) 0.7493(8) 0.8518(3)
O21_5 O 0.6270(7) 0.7507(8) 0.3518(3)
O21_6 O 0.8730(7) 0.2493(8) 0.8518(3)
O21_7 O 0.1270(7) 0.7493(8) 0.6482(3)
O21_8 O 0.3730(7) 0.2507(8) 0.1482(3)
loop_
_geom_bond_atom_site_label_1
_geom_bond_atom_site_label_2
_geom_bond_site_symmetry_1
_geom_bond_site_symmetry_2
C1 C2 1_555 1_555
C2 H1 1_555 1_555
C3 C2 1_555 1_555
C4 C3 1_555 1_555
H2 C4 1_555 1_555
C5 C4 1_555 1_555
C6 C1 1_555 1_555
H3 C6 1_555 1_555
C7 C3 1_555 1_555
C8 C5 1_555 1_555
O2 P1 1_555 1_555
O3 P1 1_555 1_555
O4 C7 1_555 1_555
O5 C7 1_555 1_555
O6 C8 1_555 1_555
O7 C8 1_555 1_555
O15 Zn3 1_555 1_555
P1 C1 1_555 1_555
Zn2 O3 1_555 1_555
Zn3 O2 1_555 1_555
O17 Zn3 1_555 1_555
O18 Zn2 1_555 1_555
Zn4 O5 1_555 1_555
Zn8 O7 1_555 1_555
C5 C6 1_555 1_555
O15 H22 1_555 1_555
O15 H23 1_555 1_555
O13 C16 1_555 1_555
O14 C16 1_555 1_555
Zn5 O14 1_555 1_555
Zn7 O13 1_555 1_555
O11 C15 1_555 1_555
O12 C15 1_555 1_555
Zn6 O12 1_555 1_555
C9 C10 1_555 1_555
C10 H4 1_555 1_555
C11 C10 1_555 1_555
C12 C11 1_555 1_555
H5 C12 1_555 1_555
C13 C12 1_555 1_555
C14 C9 1_555 1_555
H6 C14 1_555 1_555
O8 P2 1_555 1_555
O9 P2 1_555 1_555
O10 P2 1_555 1_555
P2 C9 1_555 1_555
Zn1 O1 1_555 1_555
O16 Zn1 1_555 1_555
O20 Zn1 1_555 1_555
C13 C14 1_555 1_555
O8 Zn1 1_555 1_555
C1_2 C2_2 1_555 1_555
C2_2 H1_2 1_555 1_555
C3_2 C2_2 1_555 1_555
C4_2 C3_2 1_555 1_555
H2_2 C4_2 1_555 1_555
C5_2 C4_2 1_555 1_555
C6_2 C1_2 1_555 1_555
H3_2 C6_2 1_555 1_555
C7_2 C3_2 1_555 1_555
C8_2 C5_2 1_555 1_555
C9_2 C10_2 1_555 1_555
C10_2 H4_2 1_555 1_555
C11_2 C10_2 1_555 1_555
C12_2 C11_2 1_555 1_555
H5_2 C12_2 1_555 1_555
C13_2 C12_2 1_555 1_555
C14_2 C9_2 1_555 1_555
H6_2 C14_2 1_555 1_555
C15_2 C11_2 1_555 1_555
O1_2 P1_2 1_555 1_555
O2_2 P1_2 1_555 1_555
O3_2 P1_2 1_555 1_555
O4_2 C7_2 1_555 1_555
O5_2 C7_2 1_555 1_555
O6_2 C8_2 1_555 1_555
O7_2 C8_2 1_555 1_555
O8_2 P2_2 1_555 1_555
O9_2 P2_2 1_555 1_555
O10_2 P2_2 1_555 1_555
O11_2 C15_2 1_555 1_555
O12_2 C15_2 1_555 1_555
O15_2 Zn3_2 1_555 1_555
P1_2 C1_2 1_555 1_555
P2_2 C9_2 1_555 1_555
Zn1_2 O1_2 1_555 1_555
Zn2_2 O3_2 1_555 1_555
Zn3_2 O2_2 1_555 1_555
O16_2 Zn1_2 1_555 1_555
O17_2 Zn3_2 1_555 1_555
O18_2 Zn2_2 1_555 1_555
O19_2 Zn2_2 1_555 1_555
O20_2 Zn1_2 1_555 1_555
Zn4_2 O5_2 1_555 1_555
Zn6_2 O12_2 1_555 1_555
Zn8_2 O7_2 1_555 1_555
C5_2 C6_2 1_555 1_555
C13_2 C14_2 1_555 1_555
O8_2 Zn1_2 1_555 1_555
O9_2 Zn2_2 1_555 1_555
O10_2 Zn3_2 1_555 1_555
O15_2 H22_2 1_555 1_555
O15_2 H23_2 1_555 1_555
O13_2 C16_2 1_555 1_555
O14_2 C16_2 1_555 1_555
Zn5_2 O14_2 1_555 1_555
O6_3 C8_3 1_555 1_555
O7_3 C8_3 1_555 1_555
Zn8_3 O7_3 1_555 1_555
C1_3 C2_3 1_555 1_555
C2_3 H1_3 1_555 1_555
C3_3 C2_3 1_555 1_555
C4_3 C3_3 1_555 1_555
H2_3 C4_3 1_555 1_555
C5_3 C4_3 1_555 1_555
C6_3 C1_3 1_555 1_555
H3_3 C6_3 1_555 1_555
C7_3 C3_3 1_555 1_555
C9_3 C10_3 1_555 1_555
C10_3 H4_3 1_555 1_555
C11_3 C10_3 1_555 1_555
C12_3 C11_3 1_555 1_555
H5_3 C12_3 1_555 1_555
C13_3 C12_3 1_555 1_555
C14_3 C9_3 1_555 1_555
H6_3 C14_3 1_555 1_555
C16_3 C13_3 1_555 1_555
O1_3 P1_3 1_555 1_555
O2_3 P1_3 1_555 1_555
O3_3 P1_3 1_555 1_555
O4_3 C7_3 1_555 1_555
O5_3 C7_3 1_555 1_555
O8_3 P2_3 1_555 1_555
O9_3 P2_3 1_555 1_555
O10_3 P2_3 1_555 1_555
O13_3 C16_3 1_555 1_555
O14_3 C16_3 1_555 1_555
O15_3 Zn3_3 1_555 1_555
P1_3 C1_3 1_555 1_555
P2_3 C9_3 1_555 1_555
Zn1_3 O1_3 1_555 1_555
Zn6 O3_3 1_555 1_555
Zn3_3 O2_3 1_555 1_555
O16_3 Zn1_3 1_555 1_555
O17_3 Zn3_3 1_555 1_555
O19_3 Zn6 1_555 1_555
O20_3 Zn1_3 1_555 1_555
Zn5_2 O5_3 1_555 1_555
Zn4_2 O14_3 1_555 1_555
C5_3 C6_3 1_555 1_555
C13_3 C14_3 1_555 1_555
O8_3 Zn1_3 1_555 1_555
O9_3 Zn6 1_555 1_555
O10_3 Zn3_3 1_555 1_555
O15_3 H22_3 1_555 1_555
O15_3 H23_3 1_555 1_555
O11_3 C15_3 1_555 1_555
O18 C15_3 1_555 1_555
C9_4 C10_4 1_555 1_555
C10_4 H4_4 1_555 1_555
C11_4 C10_4 1_555 1_555
C12_4 C11_4 1_555 1_555
H5_4 C12_4 1_555 1_555
C13_4 C12_4 1_555 1_555
C14_4 C9_4 1_555 1_555
H6_4 C14_4 1_555 1_555
C15_4 C11_4 1_555 1_555
C16_4 C13_4 1_555 1_555
O8_4 P2_4 1_555 1_555
O9_4 P2_4 1_555 1_555
O10_4 P2_4 1_555 1_555
O11_4 C15_4 1_555 1_555
O18_2 C15_4 1_555 1_555
O13_4 C16_4 1_555 1_555
O14_4 C16_4 1_555 1_555
P2_4 C9_4 1_555 1_555
Zn1_4 O1_4 1_555 1_555
O16_4 Zn1_4 1_555 1_555
O20_4 Zn1_4 1_555 1_555
Zn4 O14_4 1_555 1_555
Zn7_4 O13_4 1_555 1_555
C13_4 C14_4 1_555 1_555
O8_4 Zn1_4 1_555 1_555
C1_4 C2_4 1_555 1_555
C2_4 H1_4 1_555 1_555
C3_4 C2_4 1_555 1_555
C4_4 C3_4 1_555 1_555
H2_4 C4_4 1_555 1_555
C5_4 C4_4 1_555 1_555
C6_4 C1_4 1_555 1_555
H3_4 C6_4 1_555 1_555
C7_4 C3_4 1_555 1_555
O2_4 P1_4 1_555 1_555
O3_4 P1_4 1_555 1_555
O4_4 C7_4 1_555 1_555
O5_4 C7_4 1_555 1_555
O15_4 Zn3_4 1_555 1_555
P1_4 C1_4 1_555 1_555
Zn6_2 O3_4 1_555 1_555
Zn3_4 O2_4 1_555 1_555
O17_4 Zn3_4 1_555 1_555
Zn5 O5_4 1_555 1_555
C5_4 C6_4 1_555 1_555
O15_4 H22_4 1_555 1_555
O15_4 H23_4 1_555 1_555
O6_4 C8_4 1_555 1_555
O7_4 C8_4 1_555 1_555
Zn8_4 O7_4 1_555 1_555
C9_5 C10_5 1_555 1_555
C10_5 H4_5 1_555 1_555
C11_5 C10_5 1_555 1_555
C12_5 C11_5 1_555 1_555
H5_5 C12_5 1_555 1_555
C13_5 C12_5 1_555 1_555
C14_5 C9_5 1_555 1_555
H6_5 C14_5 1_555 1_555
O8_5 P2_5 1_555 1_555
O9_5 P2_5 1_555 1_555
O10_5 P2_5 1_555 1_555
P2_5 C9_5 1_555 1_555
Zn4_2 O1_5 1_555 1_555
C13_5 C14_5 1_555 1_555
O8_5 Zn4_2 1_555 1_555
O11_5 C15_5 1_555 1_555
O12_3 C15_5 1_555 1_555
Zn7 O12_3 1_555 1_555
O19_3 C16_5 1_555 1_555
O20_3 C16_5 1_555 1_555
C1_5 C2_5 1_555 1_555
C2_5 H1_5 1_555 1_555
C3_5 C2_5 1_555 1_555
C4_5 C3_5 1_555 1_555
H2_5 C4_5 1_555 1_555
C5_5 C4_5 1_555 1_555
C6_5 C1_5 1_555 1_555
H3_5 C6_5 1_555 1_555
C7_5 C3_5 1_555 1_555
C8_5 C5_5 1_555 1_555
O2_5 P1_5 1_555 1_555
O3_5 P1_5 1_555 1_555
O4_5 C7_5 1_555 1_555
O16_2 C7_5 1_555 1_555
O6_5 C8_5 1_555 1_555
O17_3 C8_5 1_555 1_555
O15_5 Zn8_3 1_555 1_555
P1_5 C1_5 1_555 1_555
Zn7_3 O3_5 1_555 1_555
Zn8_3 O2_5 1_555 1_555
O18_3 Zn7_3 1_555 1_555
C5_5 C6_5 1_555 1_555
O15_5 H22_5 1_555 1_555
O15_5 H23_5 1_555 1_555
O19_4 C16_6 1_555 1_555
O20_4 C16_6 1_555 1_555
C1_6 C2_6 1_555 1_555
C2_6 H1_6 1_555 1_555
C3_6 C2_6 1_555 1_555
C4_6 C3_6 1_555 1_555
H2_6 C4_6 1_555 1_555
C5_6 C4_6 1_555 1_555
C6_6 C1_6 1_555 1_555
H3_6 C6_6 1_555 1_555
C7_6 C3_6 1_555 1_555
C8_6 C5_6 1_555 1_555
C9_6 C10_6 1_555 1_555
C10_6 H4_6 1_555 1_555
C11_6 C10_6 1_555 1_555
C12_6 C11_6 1_555 1_555
H5_6 C12_6 1_555 1_555
C13_6 C12_6 1_555 1_555
C14_6 C9_6 1_555 1_555
H6_6 C14_6 1_555 1_555
C15_6 C11_6 1_555 1_555
O1_6 P1_6 1_555 1_555
O2_6 P1_6 1_555 1_555
O3_6 P1_6 1_555 1_555
O4_6 C7_6 1_555 1_555
O16 C7_6 1_555 1_555
O6_6 C8_6 1_555 1_555
O17_4 C8_6 1_555 1_555
O8_6 P2_6 1_555 1_555
O9_6 P2_6 1_555 1_555
O10_6 P2_6 1_555 1_555
O11_6 C15_6 1_555 1_555
O12_4 C15_6 1_555 1_555
O15_6 Zn8_4 1_555 1_555
P1_6 C1_6 1_555 1_555
P2_6 C9_6 1_555 1_555
Zn4 O1_6 1_555 1_555
Zn7_4 O3_6 1_555 1_555
Zn8_4 O2_6 1_555 1_555
O18_4 Zn7_4 1_555 1_555
Zn7_2 O12_4 1_555 1_555
C5_6 C6_6 1_555 1_555
C13_6 C14_6 1_555 1_555
O8_6 Zn4 1_555 1_555
O9_6 Zn7_4 1_555 1_555
O10_6 Zn8_4 1_555 1_555
O15_6 H22_6 1_555 1_555
O15_6 H23_6 1_555 1_555
O11_7 C15_7 1_555 1_555
O18_3 C15_7 1_555 1_555
C1_7 C2_7 1_555 1_555
C2_7 H1_7 1_555 1_555
C3_7 C2_7 1_555 1_555
C4_7 C3_7 1_555 1_555
H2_7 C4_7 1_555 1_555
C5_7 C4_7 1_555 1_555
C6_7 C1_7 1_555 1_555
H3_7 C6_7 1_555 1_555
C7_7 C3_7 1_555 1_555
C9_7 C10_7 1_555 1_555
C10_7 H4_7 1_555 1_555
C11_7 C10_7 1_555 1_555
C12_7 C11_7 1_555 1_555
H5_7 C12_7 1_555 1_555
C13_7 C12_7 1_555 1_555
C14_7 C9_7 1_555 1_555
H6_7 C14_7 1_555 1_555
C16_7 C13_7 1_555 1_555
O1_7 P1_7 1_555 1_555
O2_7 P1_7 1_555 1_555
O3_7 P1_7 1_555 1_555
O4_7 C7_7 1_555 1_555
O16_4 C7_7 1_555 1_555
O8_7 P2_7 1_555 1_555
O9_7 P2_7 1_555 1_555
O10_7 P2_7 1_555 1_555
O19 C16_7 1_555 1_555
O20 C16_7 1_555 1_555
O15_7 Zn8 1_555 1_555
P1_7 C1_7 1_555 1_555
P2_7 C9_7 1_555 1_555
Zn5 O1_7 1_555 1_555
Zn7 O3_7 1_555 1_555
Zn8 O2_7 1_555 1_555
C5_7 C6_7 1_555 1_555
C13_7 C14_7 1_555 1_555
O8_7 Zn5 1_555 1_555
O9_7 Zn7 1_555 1_555
O10_7 Zn8 1_555 1_555
O15_7 H22_7 1_555 1_555
O15_7 H23_7 1_555 1_555
O6_7 C8_7 1_555 1_555
O17 C8_7 1_555 1_555
O6_8 C8_8 1_555 1_555
O17_2 C8_8 1_555 1_555
C1_8 C2_8 1_555 1_555
C2_8 H1_8 1_555 1_555
C3_8 C2_8 1_555 1_555
C4_8 C3_8 1_555 1_555
H2_8 C4_8 1_555 1_555
C5_8 C4_8 1_555 1_555
C6_8 C1_8 1_555 1_555
H3_8 C6_8 1_555 1_555
C7_8 C3_8 1_555 1_555
O2_8 P1_8 1_555 1_555
O3_8 P1_8 1_555 1_555
O4_8 C7_8 1_555 1_555
O16_3 C7_8 1_555 1_555
O15_8 Zn8_2 1_555 1_555
P1_8 C1_8 1_555 1_555
Zn7_2 O3_8 1_555 1_555
Zn8_2 O2_8 1_555 1_555
C5_8 C6_8 1_555 1_555
O15_8 H22_8 1_555 1_555
O15_8 H23_8 1_555 1_555
C9_8 C10_8 1_555 1_555
C10_8 H4_8 1_555 1_555
C11_8 C10_8 1_555 1_555
C12_8 C11_8 1_555 1_555
H5_8 C12_8 1_555 1_555
C13_8 C12_8 1_555 1_555
C14_8 C9_8 1_555 1_555
H6_8 C14_8 1_555 1_555
C15_8 C11_8 1_555 1_555
C16_8 C13_8 1_555 1_555
O8_8 P2_8 1_555 1_555
O9_8 P2_8 1_555 1_555
O10_8 P2_8 1_555 1_555
O11_8 C15_8 1_555 1_555
O18_4 C15_8 1_555 1_555
O19_2 C16_8 1_555 1_555
O20_2 C16_8 1_555 1_555
P2_8 C9_8 1_555 1_555
Zn5_2 O1_8 1_555 1_555
C13_8 C14_8 1_555 1_555
O8_8 Zn5_2 1_555 1_555
C17 H7 1_555 1_555
H8 C17 1_555 1_555
H9 C17 1_555 1_555
C18 C17 1_555 1_555
H10 C18 1_555 1_555
H11 C18 1_555 1_555
C19 H12 1_555 1_555
H13 C19 1_555 1_555
C20 H14 1_555 1_555
H15 C20 1_555 1_555
H16 C20 1_555 1_555
C21 C20 1_555 1_555
H17 C21 1_555 1_555
H18 C21 1_555 1_555
C22 C19 1_555 1_555
H19 C22 1_555 1_555
H20 C22 1_555 1_555
H21 C22 1_555 1_555
N1 C18 1_555 1_555
C19 N1 1_555 1_555
C21 N1 1_555 1_555
N1 H27 1_555 1_555
H8_2 C17_2 1_555 1_555
C18_2 C17_2 1_555 1_555
H10_2 C18_2 1_555 1_555
H11_2 C18_2 1_555 1_555
C19_2 H12_2 1_555 1_555
H13_2 C19_2 1_555 1_555
C20_2 H14_2 1_555 1_555
H16_2 C20_2 1_555 1_555
C21_2 C20_2 1_555 1_555
H17_2 C21_2 1_555 1_555
C22_2 C19_2 1_555 1_555
H19_2 C22_2 1_555 1_555
H20_2 C22_2 1_555 1_555
H21_2 C22_2 1_555 1_555
N1_2 C18_2 1_555 1_555
C19_2 N1_2 1_555 1_555
C21_2 N1_2 1_555 1_555
N1_2 H27_2 1_555 1_555
H8_3 C17_3 1_555 1_555
C18_3 C17_3 1_555 1_555
H10_3 C18_3 1_555 1_555
H11_3 C18_3 1_555 1_555
C19_3 H12_3 1_555 1_555
H13_3 C19_3 1_555 1_555
C20_3 H14_3 1_555 1_555
H16_3 C20_3 1_555 1_555
C21_3 C20_3 1_555 1_555
H17_3 C21_3 1_555 1_555
C22_3 C19_3 1_555 1_555
H19_3 C22_3 1_555 1_555
H20_3 C22_3 1_555 1_555
H21_3 C22_3 1_555 1_555
N1_3 C18_3 1_555 1_555
C19_3 N1_3 1_555 1_555
C21_3 N1_3 1_555 1_555
N1_3 H27_3 1_555 1_555
C17_4 H7_4 1_555 1_555
H8_4 C17_4 1_555 1_555
H9_4 C17_4 1_555 1_555
C18_4 C17_4 1_555 1_555
H10_4 C18_4 1_555 1_555
H11_4 C18_4 1_555 1_555
C19_4 H12_4 1_555 1_555
H13_4 C19_4 1_555 1_555
C20_4 H14_4 1_555 1_555
H15_4 C20_4 1_555 1_555
H16_4 C20_4 1_555 1_555
C21_4 C20_4 1_555 1_555
H17_4 C21_4 1_555 1_555
H18_4 C21_4 1_555 1_555
C22_4 C19_4 1_555 1_555
H19_4 C22_4 1_555 1_555
H20_4 C22_4 1_555 1_555
H21_4 C22_4 1_555 1_555
N1_4 C18_4 1_555 1_555
C19_4 N1_4 1_555 1_555
C21_4 N1_4 1_555 1_555
N1_4 H27_4 1_555 1_555
C17_5 H7_5 1_555 1_555
H8_5 C17_5 1_555 1_555
H9_5 C17_5 1_555 1_555
C18_5 C17_5 1_555 1_555
H10_5 C18_5 1_555 1_555
H11_5 C18_5 1_555 1_555
C19_5 H12_5 1_555 1_555
H13_5 C19_5 1_555 1_555
C20_5 H14_5 1_555 1_555
H15_5 C20_5 1_555 1_555
H16_5 C20_5 1_555 1_555
C21_5 C20_5 1_555 1_555
H17_5 C21_5 1_555 1_555
H18_5 C21_5 1_555 1_555
C22_5 C19_5 1_555 1_555
H19_5 C22_5 1_555 1_555
H20_5 C22_5 1_555 1_555
H21_5 C22_5 1_555 1_555
N1_5 C18_5 1_555 1_555
C19_5 N1_5 1_555 1_555
C21_5 N1_5 1_555 1_555
N1_5 H27_5 1_555 1_555
H8_6 C17_6 1_555 1_555
C18_6 C17_6 1_555 1_555
H10_6 C18_6 1_555 1_555
H11_6 C18_6 1_555 1_555
C19_6 H12_6 1_555 1_555
H13_6 C19_6 1_555 1_555
C20_6 H14_6 1_555 1_555
H16_6 C20_6 1_555 1_555
C21_6 C20_6 1_555 1_555
H17_6 C21_6 1_555 1_555
C22_6 C19_6 1_555 1_555
H19_6 C22_6 1_555 1_555
H20_6 C22_6 1_555 1_555
H21_6 C22_6 1_555 1_555
N1_6 C18_6 1_555 1_555
C19_6 N1_6 1_555 1_555
C21_6 N1_6 1_555 1_555
N1_6 H27_6 1_555 1_555
H8_7 C17_7 1_555 1_555
C18_7 C17_7 1_555 1_555
H10_7 C18_7 1_555 1_555
H11_7 C18_7 1_555 1_555
C19_7 H12_7 1_555 1_555
H13_7 C19_7 1_555 1_555
C20_7 H14_7 1_555 1_555
H16_7 C20_7 1_555 1_555
C21_7 C20_7 1_555 1_555
H17_7 C21_7 1_555 1_555
C22_7 C19_7 1_555 1_555
H19_7 C22_7 1_555 1_555
H20_7 C22_7 1_555 1_555
H21_7 C22_7 1_555 1_555
N1_7 C18_7 1_555 1_555
C19_7 N1_7 1_555 1_555
C21_7 N1_7 1_555 1_555
N1_7 H27_7 1_555 1_555
C17_8 H7_8 1_555 1_555
H8_8 C17_8 1_555 1_555
H9_8 C17_8 1_555 1_555
C18_8 C17_8 1_555 1_555
H10_8 C18_8 1_555 1_555
H11_8 C18_8 1_555 1_555
C19_8 H12_8 1_555 1_555
H13_8 C19_8 1_555 1_555
C20_8 H14_8 1_555 1_555
H15_8 C20_8 1_555 1_555
H16_8 C20_8 1_555 1_555
C21_8 C20_8 1_555 1_555
H17_8 C21_8 1_555 1_555
H18_8 C21_8 1_555 1_555
C22_8 C19_8 1_555 1_555
H19_8 C22_8 1_555 1_555
H20_8 C22_8 1_555 1_555
H21_8 C22_8 1_555 1_555
N1_8 C18_8 1_555 1_555
C19_8 N1_8 1_555 1_555
C21_8 N1_8 1_555 1_555
N1_8 H27_8 1_555 1_555

#END
