
###############################################################################
#
# This file contains modified crystal structure data generated from the
# MOF subset of the Cambridge Structural Database (CSD) v543 
# hosted by the Cambridge Crystallographic Data Centre (CCDC).
#
# This work is licensed under the Creative Commons
# Attribution-NonCommercial-ShareAlike 4.0 International License.
# To view a copy of this license, visit
# http://creativecommons.org/licenses/by-nc-sa/4.0/
# or send a letter to
# Creative Commons, PO Box 1866, Mountain View, CA 94042, USA.
#
# CIF created using the CSD Python API on 29 September 2022
# The structure has been converted into the P1 space group
# The structure has a 3D framework
# The original CSD entry MAFZUQ is in the monoclinic crystal system
# The framework has been calculated to contain at least 10.0% void space
# The void calculation uses a probe of radius 1.32A, grid spacing 0.4
# The framework is charged, counterions have been retained in the structure
# Generated hydrogen atom positions removed from atoms on special positions
#
###############################################################################

data_MAFZUQ
_chemical_formula_moiety         '(C64 H48 O60 P8 Zn10)n'
_symmetry_cell_setting           triclinic
_symmetry_space_group_name_H-M   'P 1'
_symmetry_Int_Tables_number      1
_space_group_name_Hall           'P 1'
loop_
_symmetry_equiv_pos_site_id
_symmetry_equiv_pos_as_xyz
1 x,y,z
_cell_length_a                   26.918(12)
_cell_length_b                   9.920(5)
_cell_length_c                   10.161(5)
_cell_angle_alpha                90
_cell_angle_beta                 112.179(6)
_cell_angle_gamma                90
_cell_volume                     2512.5
loop_
_atom_site_label
_atom_site_type_symbol
_atom_site_fract_x
_atom_site_fract_y
_atom_site_fract_z
Zn2 Zn 0.137007(18) 0.57870(5) 0.26844(5)
P1 P 0.09363(4) 0.37398(11) 0.01032(12)
O1 O 0.09113(11) 0.4480(3) 0.1391(3)
C1 C 0.20195(17) 0.0673(5) 0.1544(6)
C2 C 0.12374(15) 0.2119(4) 0.0716(5)
C4 C 0.09424(16) 0.1077(4) 0.1003(5)
H1 H 0.0580 0.1208 0.0819
C6 C 0.17817(16) 0.1899(5) 0.0995(5)
H3 H 0.1985 0.2578 0.0813
C7 C 0.26036(19) 0.0442(5) 0.1820(6)
O3 O 0.29082(12) 0.1437(4) 0.2052(5)
Zn9 Zn 0.362993(18) 0.07870(5) 0.23156(5)
O12 O 0.20918(12) 0.6437(4) 0.2948(5)
O18 O 0.10260(13) 0.7580(3) 0.1990(4)
O22 O 0.12883(12) 0.5504(3) 0.4481(3)
Zn1 Zn 0.0000 0.22811(7) 0.7500
O2 O 0.03687(11) 0.3488(3) 0.9051(3)
O7 O 0.12883(12) 0.4496(3) 0.9481(3)
Zn11 Zn 0.137007(18) 0.42130(5) 0.76844(5)
O16 O 0.04222(12) 0.0914(3) 0.6962(4)
C3 C 0.11786(15) 0.9858(5) 0.1557(5)
C5 C 0.17213(17) 0.9649(5) 0.1832(6)
H2 H 0.1883 0.8832 0.2205
O4 O 0.27729(14) 0.9284(4) 0.1836(5)
C8 C 0.08592(16) 0.8757(4) 0.1868(5)
O5 O 0.04222(12) 0.9086(3) 0.1962(4)
Zn4 Zn 0.0000 0.77189(7) 0.2500
Zn1_2 Zn 1.0000 0.22811(7) 0.7500
Zn5 Zn 0.862993(18) 0.57870(5) 0.23156(5)
Zn8 Zn 0.637007(18) 0.07870(5) 0.26844(5)
Zn10 Zn 0.862993(18) 0.42130(5) 0.73156(5)
P2 P 0.90637(4) 0.37398(11) 0.48968(12)
O8 O 0.90887(11) 0.4480(3) 0.3609(3)
O9 O 0.96313(11) 0.3488(3) 0.5949(3)
C9 C 0.79805(17) 0.0673(5) 0.3456(6)
C10 C 0.87626(15) 0.2119(4) 0.4284(5)
C12 C 0.90576(16) 0.1077(4) 0.3997(5)
H4 H 0.9420 0.1208 0.4181
C14 C 0.82183(16) 0.1899(5) 0.4005(5)
H6 H 0.8015 0.2578 0.4187
C15 C 0.73964(19) 0.0442(5) 0.3180(6)
O10 O 0.70918(12) 0.1437(4) 0.2948(5)
O11 O 0.79082(12) 0.6437(4) 0.2052(5)
O15 O 0.95778(12) 0.0914(3) 0.8038(4)
O19 O 0.89740(13) 0.7580(3) 0.3010(4)
O20 O 0.87117(12) 0.4496(3) 0.5519(3)
O21 O 0.87117(12) 0.5504(3) 0.0519(3)
Zn4_2 Zn 1.0000 0.77189(7) 0.2500
C11 C 0.88214(15) 0.9858(5) 0.3443(5)
C13 C 0.82787(17) 0.9649(5) 0.3168(6)
H5 H 0.8117 0.8832 0.2795
O13 O 0.72271(14) 0.9284(4) 0.3164(5)
C16 C 0.91408(16) 0.8757(4) 0.3132(5)
O14 O 0.95778(12) 0.9086(3) 0.3038(4)
O18_2 O 0.60260(13) 0.2580(3) 0.1990(4)
O22_2 O 0.62883(12) 0.0504(3) 0.4481(3)
O19_2 O 0.39740(13) 0.2580(3) 0.3010(4)
O21_2 O 0.37117(12) 0.0504(3) 0.0519(3)
P1_2 P 0.59363(4) 0.87398(11) 0.01032(12)
O1_2 O 0.59113(11) 0.9480(3) 0.1391(3)
C1_2 C 0.70195(17) 0.5673(5) 0.1544(6)
C2_2 C 0.62374(15) 0.7119(4) 0.0716(5)
C3_2 C 0.61786(15) 0.4858(5) 0.1557(5)
C4_2 C 0.59424(16) 0.6077(4) 0.1003(5)
H1_2 H 0.5580 0.6208 0.0819
C5_2 C 0.67213(17) 0.4649(5) 0.1832(6)
H2_2 H 0.6883 0.3832 0.2205
C6_2 C 0.67817(16) 0.6899(5) 0.0995(5)
H3_2 H 0.6985 0.7578 0.0813
C7_2 C 0.76036(19) 0.5442(5) 0.1820(6)
O4_2 O 0.77729(14) 0.4284(4) 0.1836(5)
C8_2 C 0.58592(16) 0.3757(4) 0.1868(5)
O5_2 O 0.54222(12) 0.4086(3) 0.1962(4)
Zn4_3 Zn 0.5000 0.27189(7) 0.2500
Zn1_3 Zn 0.5000 0.72811(7) 0.7500
O2_2 O 0.53687(11) 0.8488(3) 0.9051(3)
O7_2 O 0.62883(12) 0.9496(3) 0.9481(3)
Zn10_2 Zn 0.362993(18) 0.92130(5) 0.73156(5)
Zn11_2 Zn 0.637007(18) 0.92130(5) 0.76844(5)
P2_2 P 0.40637(4) 0.87398(11) 0.48968(12)
O8_2 O 0.40887(11) 0.9480(3) 0.3609(3)
O9_2 O 0.46313(11) 0.8488(3) 0.5949(3)
C9_2 C 0.29805(17) 0.5673(5) 0.3456(6)
C10_2 C 0.37626(15) 0.7119(4) 0.4284(5)
C11_2 C 0.38214(15) 0.4858(5) 0.3443(5)
C12_2 C 0.40576(16) 0.6077(4) 0.3997(5)
H4_2 H 0.4420 0.6208 0.4181
C13_2 C 0.32787(17) 0.4649(5) 0.3168(6)
H5_2 H 0.3117 0.3832 0.2795
C14_2 C 0.32183(16) 0.6899(5) 0.4005(5)
H6_2 H 0.3015 0.7578 0.4187
C15_2 C 0.23964(19) 0.5442(5) 0.3180(6)
O13_2 O 0.22271(14) 0.4284(4) 0.3164(5)
C16_2 C 0.41408(16) 0.3757(4) 0.3132(5)
O14_2 O 0.45778(12) 0.4086(3) 0.3038(4)
O15_2 O 0.45778(12) 0.5914(3) 0.8038(4)
O16_2 O 0.54222(12) 0.5914(3) 0.6962(4)
O20_2 O 0.37117(12) 0.9496(3) 0.5519(3)
C11_3 C 0.11786(15) 0.0142(5) 0.6557(5)
C13_3 C 0.17213(17) 0.0351(5) 0.6832(6)
H5_3 H 0.1883 0.1168 0.7205
O13_3 O 0.27729(14) 0.0716(4) 0.6836(5)
C16_3 C 0.08592(16) 0.1243(4) 0.6868(5)
O17 O 0.10260(13) 0.2420(3) 0.6990(4)
P2_3 P 0.09363(4) 0.62602(11) 0.51032(12)
O8_3 O 0.09113(11) 0.5520(3) 0.6391(3)
O9_3 O 0.03687(11) 0.6512(3) 0.4051(3)
C9_3 C 0.20195(17) 0.9327(5) 0.6544(6)
C10_3 C 0.12374(15) 0.7881(4) 0.5716(5)
C12_3 C 0.09424(16) 0.8923(4) 0.6003(5)
H4_3 H 0.0580 0.8792 0.5819
C14_3 C 0.17817(16) 0.8101(5) 0.5995(5)
H6_3 H 0.1985 0.7422 0.5813
C15_3 C 0.26036(19) 0.9558(5) 0.6820(6)
O10_2 O 0.29082(12) 0.8563(4) 0.7052(5)
O11_2 O 0.20918(12) 0.3563(4) 0.7948(5)
C3_3 C 0.88214(15) 0.0142(5) 0.8443(5)
C5_3 C 0.82787(17) 0.0351(5) 0.8168(6)
H2_3 H 0.8117 0.1168 0.7795
O4_3 O 0.72271(14) 0.0716(4) 0.8164(5)
C8_3 C 0.91408(16) 0.1243(4) 0.8132(5)
O6 O 0.89740(13) 0.2420(3) 0.8010(4)
O2_3 O 0.96313(11) 0.6512(3) 0.0949(3)
P1_3 P 0.90637(4) 0.62602(11) 0.98968(12)
O1_3 O 0.90887(11) 0.5520(3) 0.8609(3)
C1_3 C 0.79805(17) 0.9327(5) 0.8456(6)
C2_3 C 0.87626(15) 0.7881(4) 0.9284(5)
C4_3 C 0.90576(16) 0.8923(4) 0.8997(5)
H1_3 H 0.9420 0.8792 0.9181
C6_3 C 0.82183(16) 0.8101(5) 0.9005(5)
H3_3 H 0.8015 0.7422 0.9187
C7_3 C 0.73964(19) 0.9558(5) 0.8180(6)
O3_2 O 0.70918(12) 0.8563(4) 0.7948(5)
O12_2 O 0.79082(12) 0.3563(4) 0.7052(5)
O2_4 O 0.46313(11) 0.1512(3) 0.0949(3)
P2_4 P 0.59363(4) 0.12602(11) 0.51032(12)
O8_4 O 0.59113(11) 0.0520(3) 0.6391(3)
O9_4 O 0.53687(11) 0.1512(3) 0.4051(3)
C9_4 C 0.70195(17) 0.4327(5) 0.6544(6)
C10_4 C 0.62374(15) 0.2881(4) 0.5716(5)
C11_4 C 0.61786(15) 0.5142(5) 0.6557(5)
C12_4 C 0.59424(16) 0.3923(4) 0.6003(5)
H4_4 H 0.5580 0.3792 0.5819
C13_4 C 0.67213(17) 0.5351(5) 0.6832(6)
H5_4 H 0.6883 0.6168 0.7205
C14_4 C 0.67817(16) 0.3101(5) 0.5995(5)
H6_4 H 0.6985 0.2422 0.5813
C15_4 C 0.76036(19) 0.4558(5) 0.6820(6)
O13_4 O 0.77729(14) 0.5716(4) 0.6836(5)
C16_4 C 0.58592(16) 0.6243(4) 0.6868(5)
O17_2 O 0.60260(13) 0.7420(3) 0.6990(4)
P1_4 P 0.40637(4) 0.12602(11) 0.98968(12)
O1_4 O 0.40887(11) 0.0520(3) 0.8609(3)
C1_4 C 0.29805(17) 0.4327(5) 0.8456(6)
C2_4 C 0.37626(15) 0.2881(4) 0.9284(5)
C3_4 C 0.38214(15) 0.5142(5) 0.8443(5)
C4_4 C 0.40576(16) 0.3923(4) 0.8997(5)
H1_4 H 0.4420 0.3792 0.9181
C5_4 C 0.32787(17) 0.5351(5) 0.8168(6)
H2_4 H 0.3117 0.6168 0.7795
C6_4 C 0.32183(16) 0.3101(5) 0.9005(5)
H3_4 H 0.3015 0.2422 0.9187
C7_4 C 0.23964(19) 0.4558(5) 0.8180(6)
O4_4 O 0.22271(14) 0.5716(4) 0.8164(5)
C8_4 C 0.41408(16) 0.6243(4) 0.8132(5)
O6_2 O 0.39740(13) 0.7420(3) 0.8010(4)
O23 O 0.3073(6) 0.7552(10) 0.0174(13)
H7 H 0.3313 0.7253 0.0966
H9 H 0.2801 0.7840 0.0348
H8 H 0.3091 0.7479 0.9334
O23_2 O 0.6927(6) 0.7552(10) 0.4826(13)
O23_3 O 0.8073(6) 0.2552(10) 0.0174(13)
H7_2 H 0.8313 0.2253 0.0966
H9_2 H 0.7801 0.2840 0.0348
H8_2 H 0.8091 0.2479 0.9334
O23_4 O 0.1927(6) 0.2552(10) 0.4826(13)
H8_3 H 0.6909 0.2521 0.0666
O23_5 O 0.6927(6) 0.2448(10) 0.9826(13)
H7_3 H 0.6687 0.2747 0.9034
H9_3 H 0.7199 0.2160 0.9652
O23_6 O 0.3073(6) 0.2448(10) 0.5174(13)
H8_4 H 0.1909 0.7521 0.0666
O23_7 O 0.1927(6) 0.7448(10) 0.9826(13)
H7_4 H 0.1687 0.7747 0.9034
H9_4 H 0.2199 0.7160 0.9652
O23_8 O 0.8073(6) 0.7448(10) 0.5174(13)
loop_
_geom_bond_atom_site_label_1
_geom_bond_atom_site_label_2
_geom_bond_site_symmetry_1
_geom_bond_site_symmetry_2
Zn2 O1 1_555 1_555
P1 O1 1_555 1_555
C2 P1 1_555 1_555
C4 C2 1_555 1_555
H1 C4 1_555 1_555
C6 C1 1_555 1_555
H3 C6 1_555 1_555
C7 C1 1_555 1_555
O3 C7 1_555 1_555
Zn9 O3 1_555 1_555
O12 Zn2 1_555 1_555
O18 Zn2 1_555 1_555
O22 Zn2 1_555 1_555
C2 C6 1_555 1_555
Zn1 O2 1_555 1_555
Zn11 O7 1_555 1_555
O16 Zn1 1_555 1_555
C5 C3 1_555 1_555
H2 C5 1_555 1_555
C8 C3 1_555 1_555
O5 C8 1_555 1_555
O18 C8 1_555 1_555
Zn4 O5 1_555 1_555
Zn5 O8 1_555 1_555
Zn8 O10 1_555 1_555
Zn10 O20 1_555 1_555
P2 O8 1_555 1_555
O9 Zn1_2 1_555 1_555
C10 P2 1_555 1_555
C12 C10 1_555 1_555
H4 C12 1_555 1_555
C14 C9 1_555 1_555
H6 C14 1_555 1_555
C15 C9 1_555 1_555
O10 C15 1_555 1_555
O11 Zn5 1_555 1_555
O15 Zn1_2 1_555 1_555
O19 Zn5 1_555 1_555
O20 P2 1_555 1_555
O21 Zn5 1_555 1_555
P2 O9 1_555 1_555
C10 C14 1_555 1_555
Zn4_2 O14 1_555 1_555
C13 C11 1_555 1_555
H5 C13 1_555 1_555
C16 C11 1_555 1_555
O14 C16 1_555 1_555
O19 C16 1_555 1_555
O18_2 Zn8 1_555 1_555
O22_2 Zn8 1_555 1_555
O19_2 Zn9 1_555 1_555
O21_2 Zn9 1_555 1_555
P1_2 O1_2 1_555 1_555
C1_2 C5_2 1_555 1_555
C2_2 P1_2 1_555 1_555
C3_2 C4_2 1_555 1_555
C4_2 C2_2 1_555 1_555
H1_2 C4_2 1_555 1_555
C5_2 C3_2 1_555 1_555
H2_2 C5_2 1_555 1_555
C6_2 C1_2 1_555 1_555
H3_2 C6_2 1_555 1_555
C7_2 C1_2 1_555 1_555
O11 C7_2 1_555 1_555
O4_2 C7_2 1_555 1_555
C8_2 C3_2 1_555 1_555
O5_2 C8_2 1_555 1_555
O18_2 C8_2 1_555 1_555
Zn4_3 O5_2 1_555 1_555
C2_2 C6_2 1_555 1_555
Zn1_3 O2_2 1_555 1_555
Zn4_3 O14_2 1_555 1_555
Zn10_2 O20_2 1_555 1_555
Zn11_2 O7_2 1_555 1_555
P2_2 O8_2 1_555 1_555
O9_2 Zn1_3 1_555 1_555
C9_2 C13_2 1_555 1_555
C10_2 P2_2 1_555 1_555
C11_2 C12_2 1_555 1_555
C12_2 C10_2 1_555 1_555
H4_2 C12_2 1_555 1_555
C13_2 C11_2 1_555 1_555
H5_2 C13_2 1_555 1_555
C14_2 C9_2 1_555 1_555
H6_2 C14_2 1_555 1_555
C15_2 C9_2 1_555 1_555
O12 C15_2 1_555 1_555
O13_2 C15_2 1_555 1_555
C16_2 C11_2 1_555 1_555
O14_2 C16_2 1_555 1_555
O15_2 Zn1_3 1_555 1_555
O16_2 Zn1_3 1_555 1_555
O19_2 C16_2 1_555 1_555
O20_2 P2_2 1_555 1_555
P2_2 O9_2 1_555 1_555
C10_2 C14_2 1_555 1_555
Zn11 O17 1_555 1_555
C13_3 C11_3 1_555 1_555
H5_3 C13_3 1_555 1_555
C16_3 C11_3 1_555 1_555
O16 C16_3 1_555 1_555
O17 C16_3 1_555 1_555
Zn11 O8_3 1_555 1_555
Zn10_2 O10_2 1_555 1_555
P2_3 O8_3 1_555 1_555
O9_3 Zn4 1_555 1_555
C10_3 P2_3 1_555 1_555
C12_3 C10_3 1_555 1_555
H4_3 C12_3 1_555 1_555
C14_3 C9_3 1_555 1_555
H6_3 C14_3 1_555 1_555
C15_3 C9_3 1_555 1_555
O10_2 C15_3 1_555 1_555
O11_2 Zn11 1_555 1_555
O22 P2_3 1_555 1_555
P2_3 O9_3 1_555 1_555
C10_3 C14_3 1_555 1_555
C5_3 C3_3 1_555 1_555
H2_3 C5_3 1_555 1_555
C8_3 C3_3 1_555 1_555
O15 C8_3 1_555 1_555
O6 C8_3 1_555 1_555
Zn10 O6 1_555 1_555
Zn4_2 O2_3 1_555 1_555
Zn10 O1_3 1_555 1_555
P1_3 O1_3 1_555 1_555
C2_3 P1_3 1_555 1_555
C4_3 C2_3 1_555 1_555
H1_3 C4_3 1_555 1_555
C6_3 C1_3 1_555 1_555
H3_3 C6_3 1_555 1_555
C7_3 C1_3 1_555 1_555
O3_2 C7_3 1_555 1_555
Zn11_2 O3_2 1_555 1_555
O12_2 Zn10 1_555 1_555
C2_3 C6_3 1_555 1_555
Zn4_3 O2_4 1_555 1_555
Zn11_2 O17_2 1_555 1_555
P2_4 O8_4 1_555 1_555
O9_4 Zn4_3 1_555 1_555
C9_4 C13_4 1_555 1_555
C10_4 P2_4 1_555 1_555
C11_4 C12_4 1_555 1_555
C12_4 C10_4 1_555 1_555
H4_4 C12_4 1_555 1_555
C13_4 C11_4 1_555 1_555
H5_4 C13_4 1_555 1_555
C14_4 C9_4 1_555 1_555
H6_4 C14_4 1_555 1_555
C15_4 C9_4 1_555 1_555
O12_2 C15_4 1_555 1_555
O13_4 C15_4 1_555 1_555
C16_4 C11_4 1_555 1_555
O16_2 C16_4 1_555 1_555
O17_2 C16_4 1_555 1_555
O22_2 P2_4 1_555 1_555
P2_4 O9_4 1_555 1_555
C10_4 C14_4 1_555 1_555
P1_4 O1_4 1_555 1_555
C1_4 C5_4 1_555 1_555
C2_4 P1_4 1_555 1_555
C3_4 C4_4 1_555 1_555
C4_4 C2_4 1_555 1_555
H1_4 C4_4 1_555 1_555
C5_4 C3_4 1_555 1_555
H2_4 C5_4 1_555 1_555
C6_4 C1_4 1_555 1_555
H3_4 C6_4 1_555 1_555
C7_4 C1_4 1_555 1_555
O11_2 C7_4 1_555 1_555
O4_4 C7_4 1_555 1_555
C8_4 C3_4 1_555 1_555
O15_2 C8_4 1_555 1_555
O6_2 C8_4 1_555 1_555
Zn10_2 O6_2 1_555 1_555
C2_4 C6_4 1_555 1_555
O23 H7 1_555 1_555
H9 O23 1_555 1_555
O23_3 H7_2 1_555 1_555
H9_2 O23_3 1_555 1_555
O23_5 H7_3 1_555 1_555
H9_3 O23_5 1_555 1_555
O23_7 H7_4 1_555 1_555
H9_4 O23_7 1_555 1_555

#END
