
###############################################################################
#
# This file contains modified crystal structure data generated from the
# MOF subset of the Cambridge Structural Database (CSD) v543 
# hosted by the Cambridge Crystallographic Data Centre (CCDC).
#
# This work is licensed under the Creative Commons
# Attribution-NonCommercial-ShareAlike 4.0 International License.
# To view a copy of this license, visit
# http://creativecommons.org/licenses/by-nc-sa/4.0/
# or send a letter to
# Creative Commons, PO Box 1866, Mountain View, CA 94042, USA.
#
# CIF created using the CSD Python API on 29 September 2022
# The structure has been converted into the P1 space group
# The structure has a 3D framework
# The original CSD entry MAGBON is in the tetragonal crystal system
# The framework has been calculated to contain at least 10.0% void space
# The void calculation uses a probe of radius 1.32A, grid spacing 0.4
# The framework is charged, counterions have been retained in the structure
# H atom positions have been added when not included in the experimental data
# Generated hydrogen atom positions removed from atoms on special positions
#
###############################################################################

data_MAGBON
_chemical_formula_moiety         '(C160 H216 N8 O136 P16 Zn24 16+)n'
_symmetry_cell_setting           triclinic
_symmetry_space_group_name_H-M   'P 1'
_symmetry_Int_Tables_number      1
_space_group_name_Hall           'P 1'
loop_
_symmetry_equiv_pos_site_id
_symmetry_equiv_pos_as_xyz
1 x,y,z
_cell_length_a                   18.450(4)
_cell_length_b                   18.450(4)
_cell_length_c                   23.201(7)
_cell_angle_alpha                90
_cell_angle_beta                 90
_cell_angle_gamma                90
_cell_volume                     7897.68
loop_
_atom_site_label
_atom_site_type_symbol
_atom_site_fract_x
_atom_site_fract_y
_atom_site_fract_z
Zn4 Zn 0.12705(6) 0.7500 0.1250
Zn9 Zn 0.27518(4) 0.73032(4) 0.02687(3)
C16 C 0.1052(3) 0.7283(5) 0.0090(3)
O15 O 0.1708(3) 0.7203(4) 0.0076(2)
O18 O 0.0678(2) 0.7396(3) 0.05430(18)
Zn8 Zn 0.22482(4) 0.73032(4) 0.72313(3)
C11 C 0.0716(4) 0.7251(4) 0.8492(3)
C12 C 0.1054(3) 0.7247(4) 0.9016(3)
H5 H 0.1557 0.7214 0.9033
C13 C 0.0658(4) 0.7290(4) 0.9524(3)
C15 C 0.1134(4) 0.7230(5) 0.7938(3)
O11 O 0.1823(3) 0.7214(4) 0.7991(2)
O14 O 0.0827(3) 0.7274(4) 0.7479(2)
O5 O 0.4173(3) 0.7274(4) 0.0021(2)
O12 O 0.7214(4) 0.6823(3) 0.0491(2)
Zn1 Zn 0.7500 0.87295(6) 0.8750
Zn2 Zn 0.73032(4) 0.72482(4) 0.97313(3)
C1 C 0.5453(3) 0.7350(4) 0.8528(3)
C2 C 0.5029(4) 0.7311(4) 0.9035(3)
H1 H 0.5256 0.7326 0.9393
C3 C 0.4284(4) 0.7251(4) 0.9008(3)
C4 C 0.3946(3) 0.7247(4) 0.8484(3)
H2 H 0.3443 0.7214 0.8467
C5 C 0.4342(4) 0.7290(4) 0.7976(3)
C6 C 0.5090(4) 0.7334(4) 0.8006(3)
H3 H 0.5355 0.7354 0.7666
C7 C 0.3866(4) 0.7230(5) 0.9562(3)
C8 C 0.3948(3) 0.7283(5) 0.7410(3)
O1 O 0.6587(3) 0.8222(3) 0.8619(2)
O2 O 0.6636(3) 0.7024(3) 0.9135(2)
O3 O 0.6727(3) 0.7071(3) 0.8047(2)
O4 O 0.3177(3) 0.7214(4) 0.9509(2)
O6 O 0.3292(3) 0.7203(4) 0.7424(2)
O7 O 0.4322(2) 0.7396(3) 0.69570(18)
P1 P 0.64134(9) 0.74269(11) 0.85834(7)
Zn3 Zn 0.37295(6) 0.7500 0.6250
Zn5 Zn 0.76968(4) 0.72482(4) 0.77687(3)
C9 C 0.9547(3) 0.7350(4) 0.8972(3)
C10 C 0.9971(4) 0.7311(4) 0.8465(3)
H4 H 0.9744 0.7326 0.8107
C14 C 0.9910(4) 0.7334(4) 0.9494(3)
H6 H 0.9645 0.7354 0.9834
O8 O 0.8413(3) 0.8222(3) 0.8881(2)
O9 O 0.8364(3) 0.7024(3) 0.8365(2)
O10 O 0.8273(3) 0.7071(3) 0.9453(2)
O13 O 0.7786(4) 0.6823(3) 0.7009(2)
O16 O 0.7203(4) 0.8292(3) 0.9924(2)
O17 O 0.7797(4) 0.8292(3) 0.7576(2)
O19 O 0.7604(3) 0.9322(2) 0.80430(18)
O20 O 0.7396(3) 0.9322(2) 0.94570(18)
P2 P 0.85866(9) 0.74269(11) 0.89166(7)
O5_2 O 0.5827(3) 0.2726(4) 0.0021(2)
Zn6 Zn 0.72482(4) 0.26968(4) 0.02687(3)
O12_2 O 0.2786(4) 0.3177(3) 0.0491(2)
Zn1_2 Zn 0.2500 0.12705(6) 0.8750
Zn2_2 Zn 0.26968(4) 0.27518(4) 0.97313(3)
C1_2 C 0.4547(3) 0.2650(4) 0.8528(3)
C2_2 C 0.4971(4) 0.2689(4) 0.9035(3)
H1_2 H 0.4744 0.2674 0.9393
C3_2 C 0.5716(4) 0.2749(4) 0.9008(3)
C4_2 C 0.6054(3) 0.2753(4) 0.8484(3)
H2_2 H 0.6557 0.2786 0.8467
C5_2 C 0.5658(4) 0.2710(4) 0.7976(3)
C6_2 C 0.4910(4) 0.2666(4) 0.8006(3)
H3_2 H 0.4645 0.2646 0.7666
C7_2 C 0.6134(4) 0.2770(5) 0.9562(3)
C8_2 C 0.6052(3) 0.2717(5) 0.7410(3)
O1_2 O 0.3413(3) 0.1778(3) 0.8619(2)
O2_2 O 0.3364(3) 0.2976(3) 0.9135(2)
O3_2 O 0.3273(3) 0.2929(3) 0.8047(2)
O4_2 O 0.6823(3) 0.2786(4) 0.9509(2)
O6_2 O 0.6708(3) 0.2797(4) 0.7424(2)
O7_2 O 0.5678(2) 0.2604(3) 0.69570(18)
P1_2 P 0.35866(9) 0.25731(11) 0.85834(7)
Zn3_2 Zn 0.62705(6) 0.2500 0.6250
Zn5_2 Zn 0.23032(4) 0.27518(4) 0.77687(3)
Zn7 Zn 0.77518(4) 0.26968(4) 0.72313(3)
C9_2 C 0.0453(3) 0.2650(4) 0.8972(3)
C10_2 C 0.0029(4) 0.2689(4) 0.8465(3)
H4_2 H 0.0256 0.2674 0.8107
C14_2 C 0.0090(4) 0.2666(4) 0.9494(3)
H6_2 H 0.0355 0.2646 0.9834
O8_2 O 0.1587(3) 0.1778(3) 0.8881(2)
O9_2 O 0.1636(3) 0.2976(3) 0.8365(2)
O10_2 O 0.1727(3) 0.2929(3) 0.9453(2)
O13_2 O 0.2214(4) 0.3177(3) 0.7009(2)
O16_2 O 0.2797(4) 0.1708(3) 0.9924(2)
O17_2 O 0.2203(4) 0.1708(3) 0.7576(2)
O19_2 O 0.2396(3) 0.0678(2) 0.80430(18)
O20_2 O 0.2604(3) 0.0678(2) 0.94570(18)
P2_2 P 0.14134(9) 0.25731(11) 0.89166(7)
Zn4_2 Zn 0.87295(6) 0.2500 0.1250
C16_2 C 0.8948(3) 0.2717(5) 0.0090(3)
O15_2 O 0.8292(3) 0.2797(4) 0.0076(2)
O18_2 O 0.9322(2) 0.2604(3) 0.05430(18)
C11_2 C 0.9284(4) 0.2749(4) 0.8492(3)
C12_2 C 0.8946(3) 0.2753(4) 0.9016(3)
H5_2 H 0.8443 0.2786 0.9033
C13_2 C 0.9342(4) 0.2710(4) 0.9524(3)
C15_2 C 0.8866(4) 0.2770(5) 0.7938(3)
O11_2 O 0.8177(3) 0.2786(4) 0.7991(2)
O14_2 O 0.9173(3) 0.2726(4) 0.7479(2)
C1_3 C 0.7350(4) 0.4547(3) 0.1472(3)
C2_3 C 0.7311(4) 0.4971(4) 0.0965(3)
H1_3 H 0.7326 0.4744 0.0607
C3_3 C 0.7251(4) 0.5716(4) 0.0992(3)
C4_3 C 0.7247(4) 0.6054(3) 0.1516(3)
H2_3 H 0.7214 0.6557 0.1533
C5_3 C 0.7290(4) 0.5658(4) 0.2024(3)
C6_3 C 0.7334(4) 0.4910(4) 0.1994(3)
H3_3 H 0.7354 0.4645 0.2334
C7_3 C 0.7230(5) 0.6134(4) 0.0438(3)
C8_3 C 0.7283(5) 0.6052(3) 0.2590(3)
O1_3 O 0.8222(3) 0.3413(3) 0.1381(2)
O2_3 O 0.7024(3) 0.3364(3) 0.0865(2)
O3_3 O 0.7071(3) 0.3273(3) 0.1953(2)
O6_3 O 0.7203(4) 0.6708(3) 0.2576(2)
O7_3 O 0.7396(3) 0.5678(2) 0.30430(18)
P1_3 P 0.74269(11) 0.35866(9) 0.14166(7)
Zn3_3 Zn 0.7500 0.62705(6) 0.3750
Zn5_3 Zn 0.72482(4) 0.23032(4) 0.22313(3)
Zn7_2 Zn 0.73032(4) 0.77518(4) 0.27687(3)
C9_3 C 0.7350(4) 0.0453(3) 0.1028(3)
C10_3 C 0.7311(4) 0.0029(4) 0.1535(3)
H4_3 H 0.7326 0.0256 0.1893
C14_3 C 0.7334(4) 0.0090(4) 0.0506(3)
H6_3 H 0.7354 0.0355 0.0166
O8_3 O 0.8222(3) 0.1587(3) 0.1119(2)
O9_3 O 0.7024(3) 0.1636(3) 0.1635(2)
O10_3 O 0.7071(3) 0.1727(3) 0.0547(2)
O13_3 O 0.6823(3) 0.2214(4) 0.2991(2)
O17_3 O 0.8292(3) 0.2203(4) 0.2424(2)
O19_3 O 0.9322(2) 0.2396(3) 0.19570(18)
P2_3 P 0.74269(11) 0.14134(9) 0.10834(7)
O5_3 O 0.7274(4) 0.5827(3) 0.9979(2)
C11_3 C 0.7251(4) 0.9284(4) 0.1508(3)
C12_3 C 0.7247(4) 0.8946(3) 0.0984(3)
H5_3 H 0.7214 0.8443 0.0967
C13_3 C 0.7290(4) 0.9342(4) 0.0476(3)
C15_3 C 0.7230(5) 0.8866(4) 0.2062(3)
O11_3 O 0.7214(4) 0.8177(3) 0.2009(2)
O14_3 O 0.7274(4) 0.9173(3) 0.2521(2)
C16_3 C 0.7283(5) 0.8948(3) 0.9910(3)
Zn8_2 Zn 0.26968(4) 0.22482(4) 0.27687(3)
C11_4 C 0.2749(4) 0.0716(4) 0.1508(3)
C12_4 C 0.2753(4) 0.1054(3) 0.0984(3)
H5_4 H 0.2786 0.1557 0.0967
C13_4 C 0.2710(4) 0.0658(4) 0.0476(3)
C15_4 C 0.2770(5) 0.1134(4) 0.2062(3)
O11_4 O 0.2786(4) 0.1823(3) 0.2009(2)
O14_4 O 0.2726(4) 0.0827(3) 0.2521(2)
C16_4 C 0.2717(5) 0.1052(3) 0.9910(3)
C1_4 C 0.2650(4) 0.5453(3) 0.1472(3)
C2_4 C 0.2689(4) 0.5029(4) 0.0965(3)
H1_4 H 0.2674 0.5256 0.0607
C3_4 C 0.2749(4) 0.4284(4) 0.0992(3)
C4_4 C 0.2753(4) 0.3946(3) 0.1516(3)
H2_4 H 0.2786 0.3443 0.1533
C5_4 C 0.2710(4) 0.4342(4) 0.2024(3)
C6_4 C 0.2666(4) 0.5090(4) 0.1994(3)
H3_4 H 0.2646 0.5355 0.2334
C7_4 C 0.2770(5) 0.3866(4) 0.0438(3)
C8_4 C 0.2717(5) 0.3948(3) 0.2590(3)
O1_4 O 0.1778(3) 0.6587(3) 0.1381(2)
O2_4 O 0.2976(3) 0.6636(3) 0.0865(2)
O3_4 O 0.2929(3) 0.6727(3) 0.1953(2)
O6_4 O 0.2797(4) 0.3292(3) 0.2576(2)
O7_4 O 0.2604(3) 0.4322(2) 0.30430(18)
P1_4 P 0.25731(11) 0.64134(9) 0.14166(7)
Zn3_4 Zn 0.2500 0.37295(6) 0.3750
Zn5_4 Zn 0.27518(4) 0.76968(4) 0.22313(3)
C9_4 C 0.2650(4) 0.9547(3) 0.1028(3)
C10_4 C 0.2689(4) 0.9971(4) 0.1535(3)
H4_4 H 0.2674 0.9744 0.1893
C14_4 C 0.2666(4) 0.9910(4) 0.0506(3)
H6_4 H 0.2646 0.9645 0.0166
O8_4 O 0.1778(3) 0.8413(3) 0.1119(2)
O9_4 O 0.2976(3) 0.8364(3) 0.1635(2)
O10_4 O 0.2929(3) 0.8273(3) 0.0547(2)
O13_4 O 0.3177(3) 0.7786(4) 0.2991(2)
O17_4 O 0.1708(3) 0.7797(4) 0.2424(2)
O19_4 O 0.0678(2) 0.7604(3) 0.19570(18)
P2_4 P 0.25731(11) 0.85866(9) 0.10834(7)
O5_4 O 0.2726(4) 0.4173(3) 0.9979(2)
C1_5 C 0.7650(4) 0.4547(3) 0.6028(3)
C2_5 C 0.7689(4) 0.4971(4) 0.6535(3)
H1_5 H 0.7674 0.4744 0.6893
C3_5 C 0.7749(4) 0.5716(4) 0.6508(3)
C4_5 C 0.7753(4) 0.6054(3) 0.5984(3)
H2_5 H 0.7786 0.6557 0.5967
C5_5 C 0.7710(4) 0.5658(4) 0.5476(3)
C6_5 C 0.7666(4) 0.4910(4) 0.5506(3)
H3_5 H 0.7646 0.4645 0.5166
C7_5 C 0.7770(5) 0.6134(4) 0.7062(3)
C8_5 C 0.7717(5) 0.6052(3) 0.4910(3)
O1_5 O 0.6778(3) 0.3413(3) 0.6119(2)
O2_5 O 0.7976(3) 0.3364(3) 0.6635(2)
O3_5 O 0.7929(3) 0.3273(3) 0.5547(2)
O5_5 O 0.7726(4) 0.5827(3) 0.7521(2)
O6_5 O 0.7797(4) 0.6708(3) 0.4924(2)
O7_5 O 0.7604(3) 0.5678(2) 0.44570(18)
P1_5 P 0.75731(11) 0.35866(9) 0.60834(7)
Zn5_5 Zn 0.77518(4) 0.23032(4) 0.52687(3)
Zn7_3 Zn 0.76968(4) 0.77518(4) 0.47313(3)
C9_5 C 0.7650(4) 0.0453(3) 0.6472(3)
C10_5 C 0.7689(4) 0.0029(4) 0.5965(3)
H4_5 H 0.7674 0.0256 0.5607
C14_5 C 0.7666(4) 0.0090(4) 0.6994(3)
H6_5 H 0.7646 0.0355 0.7334
O8_5 O 0.6778(3) 0.1587(3) 0.6381(2)
O9_5 O 0.7976(3) 0.1636(3) 0.5865(2)
O10_5 O 0.7929(3) 0.1727(3) 0.6953(2)
O13_5 O 0.8177(3) 0.2214(4) 0.4509(2)
O17_5 O 0.6708(3) 0.2203(4) 0.5076(2)
O19_5 O 0.5678(2) 0.2396(3) 0.55430(18)
P2_5 P 0.75731(11) 0.14134(9) 0.64166(7)
C11_5 C 0.7749(4) 0.9284(4) 0.5992(3)
C12_5 C 0.7753(4) 0.8946(3) 0.6516(3)
H5_5 H 0.7786 0.8443 0.6533
C13_5 C 0.7710(4) 0.9342(4) 0.7024(3)
C15_5 C 0.7770(5) 0.8866(4) 0.5438(3)
C16_5 C 0.7717(5) 0.8948(3) 0.7590(3)
O11_5 O 0.7786(4) 0.8177(3) 0.5491(2)
O14_5 O 0.7726(4) 0.9173(3) 0.4979(2)
Zn8_3 Zn 0.23032(4) 0.22482(4) 0.47313(3)
C11_6 C 0.2251(4) 0.0716(4) 0.5992(3)
C12_6 C 0.2247(4) 0.1054(3) 0.6516(3)
H5_6 H 0.2214 0.1557 0.6533
C13_6 C 0.2290(4) 0.0658(4) 0.7024(3)
C15_6 C 0.2230(5) 0.1134(4) 0.5438(3)
C16_6 C 0.2283(5) 0.1052(3) 0.7590(3)
O11_6 O 0.2214(4) 0.1823(3) 0.5491(2)
O14_6 O 0.2274(4) 0.0827(3) 0.4979(2)
C1_6 C 0.2350(4) 0.5453(3) 0.6028(3)
C2_6 C 0.2311(4) 0.5029(4) 0.6535(3)
H1_6 H 0.2326 0.5256 0.6893
C3_6 C 0.2251(4) 0.4284(4) 0.6508(3)
C4_6 C 0.2247(4) 0.3946(3) 0.5984(3)
H2_6 H 0.2214 0.3443 0.5967
C5_6 C 0.2290(4) 0.4342(4) 0.5476(3)
C6_6 C 0.2334(4) 0.5090(4) 0.5506(3)
H3_6 H 0.2354 0.5355 0.5166
C7_6 C 0.2230(5) 0.3866(4) 0.7062(3)
C8_6 C 0.2283(5) 0.3948(3) 0.4910(3)
O1_6 O 0.3222(3) 0.6587(3) 0.6119(2)
O2_6 O 0.2024(3) 0.6636(3) 0.6635(2)
O3_6 O 0.2071(3) 0.6727(3) 0.5547(2)
O5_6 O 0.2274(4) 0.4173(3) 0.7521(2)
O6_6 O 0.2203(4) 0.3292(3) 0.4924(2)
O7_6 O 0.2396(3) 0.4322(2) 0.44570(18)
P1_6 P 0.24269(11) 0.64134(9) 0.60834(7)
Zn5_6 Zn 0.22482(4) 0.76968(4) 0.52687(3)
C9_6 C 0.2350(4) 0.9547(3) 0.6472(3)
C10_6 C 0.2311(4) 0.9971(4) 0.5965(3)
H4_6 H 0.2326 0.9744 0.5607
C14_6 C 0.2334(4) 0.9910(4) 0.6994(3)
H6_6 H 0.2354 0.9645 0.7334
O8_6 O 0.3222(3) 0.8413(3) 0.6381(2)
O9_6 O 0.2024(3) 0.8364(3) 0.5865(2)
O10_6 O 0.2071(3) 0.8273(3) 0.6953(2)
O13_6 O 0.1823(3) 0.7786(4) 0.4509(2)
O17_6 O 0.3292(3) 0.7797(4) 0.5076(2)
O19_6 O 0.4322(2) 0.7604(3) 0.55430(18)
P2_6 P 0.24269(11) 0.85866(9) 0.64166(7)
C1_7 C 0.0453(3) 0.2350(4) 0.3528(3)
C2_7 C 0.0029(4) 0.2311(4) 0.4035(3)
H1_7 H 0.0256 0.2326 0.4393
C6_7 C 0.0090(4) 0.2334(4) 0.3006(3)
H3_7 H 0.0355 0.2354 0.2666
O1_7 O 0.1587(3) 0.3222(3) 0.3619(2)
O2_7 O 0.1636(3) 0.2024(3) 0.4135(2)
O3_7 O 0.1727(3) 0.2071(3) 0.3047(2)
P1_7 P 0.14134(9) 0.24269(11) 0.35834(7)
C9_7 C 0.4547(3) 0.2350(4) 0.3972(3)
C10_7 C 0.4971(4) 0.2311(4) 0.3465(3)
H4_7 H 0.4744 0.2326 0.3107
C11_7 C 0.5716(4) 0.2251(4) 0.3492(3)
C12_7 C 0.6054(3) 0.2247(4) 0.4016(3)
H5_7 H 0.6557 0.2214 0.4033
C13_7 C 0.5658(4) 0.2290(4) 0.4524(3)
C14_7 C 0.4910(4) 0.2334(4) 0.4494(3)
H6_7 H 0.4645 0.2354 0.4834
C15_7 C 0.6134(4) 0.2230(5) 0.2938(3)
C16_7 C 0.6052(3) 0.2283(5) 0.5090(3)
O8_7 O 0.3413(3) 0.3222(3) 0.3881(2)
O9_7 O 0.3364(3) 0.2024(3) 0.3365(2)
O10_7 O 0.3273(3) 0.2071(3) 0.4453(2)
O14_7 O 0.5827(3) 0.2274(4) 0.2479(2)
P2_7 P 0.35866(9) 0.24269(11) 0.39166(7)
C3_7 C 0.9284(4) 0.2251(4) 0.4008(3)
C4_7 C 0.8946(3) 0.2247(4) 0.3484(3)
H2_7 H 0.8443 0.2214 0.3467
C5_7 C 0.9342(4) 0.2290(4) 0.2976(3)
C7_7 C 0.8866(4) 0.2230(5) 0.4562(3)
C8_7 C 0.8948(3) 0.2283(5) 0.2410(3)
O5_7 O 0.9173(3) 0.2274(4) 0.5021(2)
C3_8 C 0.0716(4) 0.7749(4) 0.4008(3)
C4_8 C 0.1054(3) 0.7753(4) 0.3484(3)
H2_8 H 0.1557 0.7786 0.3467
C5_8 C 0.0658(4) 0.7710(4) 0.2976(3)
C7_8 C 0.1134(4) 0.7770(5) 0.4562(3)
C8_8 C 0.1052(3) 0.7717(5) 0.2410(3)
O5_8 O 0.0827(3) 0.7726(4) 0.5021(2)
C1_8 C 0.9547(3) 0.7650(4) 0.3528(3)
C2_8 C 0.9971(4) 0.7689(4) 0.4035(3)
H1_8 H 0.9744 0.7674 0.4393
C6_8 C 0.9910(4) 0.7666(4) 0.3006(3)
H3_8 H 0.9645 0.7646 0.2666
O1_8 O 0.8413(3) 0.6778(3) 0.3619(2)
O2_8 O 0.8364(3) 0.7976(3) 0.4135(2)
O3_8 O 0.8273(3) 0.7929(3) 0.3047(2)
P1_8 P 0.85866(9) 0.75731(11) 0.35834(7)
C9_8 C 0.5453(3) 0.7650(4) 0.3972(3)
C10_8 C 0.5029(4) 0.7689(4) 0.3465(3)
H4_8 H 0.5256 0.7674 0.3107
C11_8 C 0.4284(4) 0.7749(4) 0.3492(3)
C12_8 C 0.3946(3) 0.7753(4) 0.4016(3)
H5_8 H 0.3443 0.7786 0.4033
C13_8 C 0.4342(4) 0.7710(4) 0.4524(3)
C14_8 C 0.5090(4) 0.7666(4) 0.4494(3)
H6_8 H 0.5355 0.7646 0.4834
C15_8 C 0.3866(4) 0.7770(5) 0.2938(3)
C16_8 C 0.3948(3) 0.7717(5) 0.5090(3)
O8_8 O 0.6587(3) 0.6778(3) 0.3881(2)
O9_8 O 0.6636(3) 0.7976(3) 0.3365(2)
O10_8 O 0.6727(3) 0.7929(3) 0.4453(2)
O14_8 O 0.4173(3) 0.7726(4) 0.2479(2)
P2_8 P 0.64134(9) 0.75731(11) 0.39166(7)
C17 C 0.5506(14) 0.787(2) 0.116(3)
H7 H 0.5694 0.7918 0.0776
H8 H 0.5808 0.8153 0.1422
C18 C 0.4770(14) 0.8125(18) 0.1188(12)
H9 H 0.4700 0.8447 0.1514
H10 H 0.4642 0.8380 0.0837
N1 N 0.4360(7) 0.7500 0.1250
H11 H 0.398(4) 0.734(6) 0.098(3)
C19 C 0.5506(14) 0.713(2) 0.134(3)
H12 H 0.5694 0.7082 0.1724
H13 H 0.5808 0.6847 0.1078
C20 C 0.4770(14) 0.6875(18) 0.1312(12)
H14 H 0.4700 0.6553 0.0986
H15 H 0.4642 0.6620 0.1663
H16 H 0.398(4) 0.766(6) 0.152(3)
C17_2 C 0.4494(14) 0.213(2) 0.116(3)
H7_2 H 0.4306 0.2082 0.0776
H8_2 H 0.4192 0.1847 0.1422
C18_2 C 0.5230(14) 0.1875(18) 0.1188(12)
H9_2 H 0.5300 0.1553 0.1514
H10_2 H 0.5358 0.1620 0.0837
N1_2 N 0.5640(7) 0.2500 0.1250
H11_2 H 0.602(4) 0.266(6) 0.098(3)
C19_2 C 0.4494(14) 0.287(2) 0.134(3)
H12_2 H 0.4306 0.2918 0.1724
H13_2 H 0.4192 0.3153 0.1078
C20_2 C 0.5230(14) 0.3125(18) 0.1312(12)
H14_2 H 0.5300 0.3447 0.0986
H15_2 H 0.5358 0.3380 0.1663
H16_2 H 0.602(4) 0.234(6) 0.152(3)
C17_3 C 0.787(2) 0.4494(14) 0.884(3)
H7_3 H 0.7918 0.4306 0.9224
H8_3 H 0.8153 0.4192 0.8578
C18_3 C 0.8125(18) 0.5230(14) 0.8812(12)
H9_3 H 0.8447 0.5300 0.8486
H10_3 H 0.8380 0.5358 0.9163
N1_3 N 0.7500 0.5640(7) 0.8750
H11_3 H 0.734(6) 0.602(4) 0.902(3)
C19_3 C 0.713(2) 0.4494(14) 0.866(3)
H12_3 H 0.7082 0.4306 0.8276
H13_3 H 0.6847 0.4192 0.8922
C20_3 C 0.6875(18) 0.5230(14) 0.8688(12)
H14_3 H 0.6553 0.5300 0.9014
H15_3 H 0.6620 0.5358 0.8337
H16_3 H 0.766(6) 0.602(4) 0.848(3)
C17_4 C 0.213(2) 0.5506(14) 0.884(3)
H7_4 H 0.2082 0.5694 0.9224
H8_4 H 0.1847 0.5808 0.8578
C18_4 C 0.1875(18) 0.4770(14) 0.8812(12)
H9_4 H 0.1553 0.4700 0.8486
H10_4 H 0.1620 0.4642 0.9163
N1_4 N 0.2500 0.4360(7) 0.8750
H11_4 H 0.266(6) 0.398(4) 0.902(3)
C19_4 C 0.287(2) 0.5506(14) 0.866(3)
H12_4 H 0.2918 0.5694 0.8276
H13_4 H 0.3153 0.5808 0.8922
C20_4 C 0.3125(18) 0.4770(14) 0.8688(12)
H14_4 H 0.3447 0.4700 0.9014
H15_4 H 0.3380 0.4642 0.8337
H16_4 H 0.234(6) 0.398(4) 0.848(3)
C18_5 C 0.0230(14) 0.8125(18) 0.6312(12)
H9_5 H 0.0300 0.8447 0.5986
H10_5 H 0.0358 0.8380 0.6663
N1_5 N 0.0640(7) 0.7500 0.6250
H11_5 H 0.102(4) 0.734(6) 0.652(3)
C20_5 C 0.0230(14) 0.6875(18) 0.6188(12)
H14_5 H 0.0300 0.6553 0.6514
H15_5 H 0.0358 0.6620 0.5837
H16_5 H 0.102(4) 0.766(6) 0.598(3)
C17_5 C 0.9494(14) 0.787(2) 0.634(3)
H7_5 H 0.9306 0.7918 0.6724
H8_5 H 0.9192 0.8153 0.6078
C19_5 C 0.9494(14) 0.713(2) 0.616(3)
H12_5 H 0.9306 0.7082 0.5776
H13_5 H 0.9192 0.6847 0.6422
C17_6 C 0.0506(14) 0.213(2) 0.634(3)
H7_6 H 0.0694 0.2082 0.6724
H8_6 H 0.0808 0.1847 0.6078
C19_6 C 0.0506(14) 0.287(2) 0.616(3)
H12_6 H 0.0694 0.2918 0.5776
H13_6 H 0.0808 0.3153 0.6422
C18_6 C 0.9770(14) 0.1875(18) 0.6312(12)
H9_6 H 0.9700 0.1553 0.5986
H10_6 H 0.9642 0.1620 0.6663
N1_6 N 0.9360(7) 0.2500 0.6250
H11_6 H 0.898(4) 0.266(6) 0.652(3)
C20_6 C 0.9770(14) 0.3125(18) 0.6188(12)
H14_6 H 0.9700 0.3447 0.6514
H15_6 H 0.9642 0.3380 0.5837
H16_6 H 0.898(4) 0.234(6) 0.598(3)
C18_7 C 0.3125(18) 0.0230(14) 0.3812(12)
H9_7 H 0.3447 0.0300 0.3486
H10_7 H 0.3380 0.0358 0.4163
N1_7 N 0.2500 0.0640(7) 0.3750
H11_7 H 0.234(6) 0.102(4) 0.402(3)
C20_7 C 0.1875(18) 0.0230(14) 0.3688(12)
H14_7 H 0.1553 0.0300 0.4014
H15_7 H 0.1620 0.0358 0.3337
H16_7 H 0.266(6) 0.102(4) 0.348(3)
C17_7 C 0.287(2) 0.9494(14) 0.384(3)
H7_7 H 0.2918 0.9306 0.4224
H8_7 H 0.3153 0.9192 0.3578
C19_7 C 0.213(2) 0.9494(14) 0.366(3)
H12_7 H 0.2082 0.9306 0.3276
H13_7 H 0.1847 0.9192 0.3922
C17_8 C 0.713(2) 0.0506(14) 0.384(3)
H7_8 H 0.7082 0.0694 0.4224
H8_8 H 0.6847 0.0808 0.3578
C19_8 C 0.787(2) 0.0506(14) 0.366(3)
H12_8 H 0.7918 0.0694 0.3276
H13_8 H 0.8153 0.0808 0.3922
C18_8 C 0.6875(18) 0.9770(14) 0.3812(12)
H9_8 H 0.6553 0.9700 0.3486
H10_8 H 0.6620 0.9642 0.4163
N1_8 N 0.7500 0.9360(7) 0.3750
H11_8 H 0.766(6) 0.898(4) 0.402(3)
C20_8 C 0.8125(18) 0.9770(14) 0.3688(12)
H14_8 H 0.8447 0.9700 0.4014
H15_8 H 0.8380 0.9642 0.3337
H16_8 H 0.734(6) 0.898(4) 0.348(3)
O21 O 0.5619(16) 0.6636(18) 0.5768(10)
O21_2 O 0.4381(16) 0.3364(18) 0.5768(10)
O21_3 O 0.6636(18) 0.4381(16) 0.4232(10)
O21_4 O 0.3364(18) 0.5619(16) 0.4232(10)
O21_5 O 0.9381(16) 0.6636(18) 0.1732(10)
O21_6 O 0.0619(16) 0.3364(18) 0.1732(10)
O21_7 O 0.8364(18) 0.4381(16) 0.3268(10)
O21_8 O 0.1636(18) 0.5619(16) 0.3268(10)
O21_9 O 0.0619(16) 0.1636(18) 0.0768(10)
O21_10 O 0.9381(16) 0.8364(18) 0.0768(10)
O21_11 O 0.1636(18) 0.9381(16) 0.9232(10)
O21_12 O 0.8364(18) 0.0619(16) 0.9232(10)
O21_13 O 0.4381(16) 0.1636(18) 0.6732(10)
O21_14 O 0.5619(16) 0.8364(18) 0.6732(10)
O21_15 O 0.3364(18) 0.9381(16) 0.8268(10)
O21_16 O 0.6636(18) 0.0619(16) 0.8268(10)
O22 O 0.6488(16) 0.7500 0.6250
O22_2 O 0.3512(16) 0.2500 0.6250
O22_3 O 0.7500 0.3512(16) 0.3750
O22_4 O 0.2500 0.6488(16) 0.3750
O22_5 O 0.8512(16) 0.7500 0.1250
O22_6 O 0.1488(16) 0.2500 0.1250
O22_7 O 0.2500 0.8512(16) 0.8750
O22_8 O 0.7500 0.1488(16) 0.8750
loop_
_geom_bond_atom_site_label_1
_geom_bond_atom_site_label_2
_geom_bond_site_symmetry_1
_geom_bond_site_symmetry_2
Zn4 O18 1_555 1_555
Zn9 O15 1_555 1_555
O15 C16 1_555 1_555
O18 C16 1_555 1_555
Zn8 O11 1_555 1_555
C12 C11 1_555 1_555
H5 C12 1_555 1_555
C13 C12 1_555 1_555
C15 C11 1_555 1_555
O11 C15 1_555 1_555
O14 C15 1_555 1_555
Zn1 O1 1_555 1_555
Zn2 O2 1_555 1_555
C1 C2 1_555 1_555
C2 H1 1_555 1_555
C3 C2 1_555 1_555
C4 C3 1_555 1_555
H2 C4 1_555 1_555
C5 C4 1_555 1_555
C6 C1 1_555 1_555
H3 C6 1_555 1_555
C7 C3 1_555 1_555
C8 C5 1_555 1_555
O1 P1 1_555 1_555
O2 P1 1_555 1_555
O3 P1 1_555 1_555
O4 C7 1_555 1_555
O6 C8 1_555 1_555
O7 C8 1_555 1_555
P1 C1 1_555 1_555
Zn3 O7 1_555 1_555
Zn5 O3 1_555 1_555
Zn8 O6 1_555 1_555
C9 C10 1_555 1_555
C10 H4 1_555 1_555
C14 C9 1_555 1_555
H6 C14 1_555 1_555
O8 Zn1 1_555 1_555
O9 Zn5 1_555 1_555
O10 Zn2 1_555 1_555
O13 Zn5 1_555 1_555
O16 Zn2 1_555 1_555
O17 Zn5 1_555 1_555
O19 Zn1 1_555 1_555
O20 Zn1 1_555 1_555
P2 C9 1_555 1_555
C5 C6 1_555 1_555
O8 P2 1_555 1_555
O9 P2 1_555 1_555
O10 P2 1_555 1_555
Zn1_2 O1_2 1_555 1_555
Zn2_2 O2_2 1_555 1_555
C1_2 C2_2 1_555 1_555
C2_2 H1_2 1_555 1_555
C3_2 C2_2 1_555 1_555
C4_2 C3_2 1_555 1_555
H2_2 C4_2 1_555 1_555
C5_2 C4_2 1_555 1_555
C6_2 C1_2 1_555 1_555
H3_2 C6_2 1_555 1_555
C7_2 C3_2 1_555 1_555
C8_2 C5_2 1_555 1_555
O1_2 P1_2 1_555 1_555
O2_2 P1_2 1_555 1_555
O3_2 P1_2 1_555 1_555
O4_2 C7_2 1_555 1_555
O6_2 C8_2 1_555 1_555
O7_2 C8_2 1_555 1_555
P1_2 C1_2 1_555 1_555
Zn3_2 O7_2 1_555 1_555
Zn5_2 O3_2 1_555 1_555
Zn7 O6_2 1_555 1_555
C9_2 C10_2 1_555 1_555
C10_2 H4_2 1_555 1_555
C14_2 C9_2 1_555 1_555
H6_2 C14_2 1_555 1_555
O8_2 Zn1_2 1_555 1_555
O9_2 Zn5_2 1_555 1_555
O10_2 Zn2_2 1_555 1_555
O13_2 Zn5_2 1_555 1_555
O16_2 Zn2_2 1_555 1_555
O17_2 Zn5_2 1_555 1_555
O19_2 Zn1_2 1_555 1_555
O20_2 Zn1_2 1_555 1_555
P2_2 C9_2 1_555 1_555
C5_2 C6_2 1_555 1_555
O8_2 P2_2 1_555 1_555
O9_2 P2_2 1_555 1_555
O10_2 P2_2 1_555 1_555
Zn4_2 O18_2 1_555 1_555
Zn6 O15_2 1_555 1_555
O15_2 C16_2 1_555 1_555
O18_2 C16_2 1_555 1_555
Zn7 O11_2 1_555 1_555
C12_2 C11_2 1_555 1_555
H5_2 C12_2 1_555 1_555
C13_2 C12_2 1_555 1_555
C15_2 C11_2 1_555 1_555
O11_2 C15_2 1_555 1_555
O14_2 C15_2 1_555 1_555
Zn4_2 O1_3 1_555 1_555
Zn6 O2_3 1_555 1_555
C1_3 C2_3 1_555 1_555
C2_3 H1_3 1_555 1_555
C3_3 C2_3 1_555 1_555
C4_3 C3_3 1_555 1_555
H2_3 C4_3 1_555 1_555
C5_3 C4_3 1_555 1_555
C6_3 C1_3 1_555 1_555
H3_3 C6_3 1_555 1_555
C7_3 C3_3 1_555 1_555
C8_3 C5_3 1_555 1_555
O1_3 P1_3 1_555 1_555
O2_3 P1_3 1_555 1_555
O3_3 P1_3 1_555 1_555
O12 C7_3 1_555 1_555
O6_3 C8_3 1_555 1_555
O7_3 C8_3 1_555 1_555
P1_3 C1_3 1_555 1_555
Zn3_3 O7_3 1_555 1_555
Zn5_3 O3_3 1_555 1_555
Zn7_2 O6_3 1_555 1_555
C9_3 C10_3 1_555 1_555
C10_3 H4_3 1_555 1_555
C14_3 C9_3 1_555 1_555
H6_3 C14_3 1_555 1_555
O8_3 Zn4_2 1_555 1_555
O9_3 Zn5_3 1_555 1_555
O10_3 Zn6 1_555 1_555
O13_3 Zn5_3 1_555 1_555
O17_3 Zn5_3 1_555 1_555
O19_3 Zn4_2 1_555 1_555
P2_3 C9_3 1_555 1_555
C5_3 C6_3 1_555 1_555
O8_3 P2_3 1_555 1_555
O9_3 P2_3 1_555 1_555
O10_3 P2_3 1_555 1_555
Zn7_2 O11_3 1_555 1_555
C12_3 C11_3 1_555 1_555
H5_3 C12_3 1_555 1_555
C13_3 C12_3 1_555 1_555
C15_3 C11_3 1_555 1_555
O11_3 C15_3 1_555 1_555
O14_3 C15_3 1_555 1_555
O16 C16_3 1_555 1_555
O20 C16_3 1_555 1_555
Zn8_2 O11_4 1_555 1_555
C12_4 C11_4 1_555 1_555
H5_4 C12_4 1_555 1_555
C13_4 C12_4 1_555 1_555
C15_4 C11_4 1_555 1_555
O11_4 C15_4 1_555 1_555
O14_4 C15_4 1_555 1_555
O16_2 C16_4 1_555 1_555
O20_2 C16_4 1_555 1_555
Zn4 O1_4 1_555 1_555
Zn9 O2_4 1_555 1_555
C1_4 C2_4 1_555 1_555
C2_4 H1_4 1_555 1_555
C3_4 C2_4 1_555 1_555
C4_4 C3_4 1_555 1_555
H2_4 C4_4 1_555 1_555
C5_4 C4_4 1_555 1_555
C6_4 C1_4 1_555 1_555
H3_4 C6_4 1_555 1_555
C7_4 C3_4 1_555 1_555
C8_4 C5_4 1_555 1_555
O1_4 P1_4 1_555 1_555
O2_4 P1_4 1_555 1_555
O3_4 P1_4 1_555 1_555
O12_2 C7_4 1_555 1_555
O6_4 C8_4 1_555 1_555
O7_4 C8_4 1_555 1_555
P1_4 C1_4 1_555 1_555
Zn3_4 O7_4 1_555 1_555
Zn5_4 O3_4 1_555 1_555
Zn8_2 O6_4 1_555 1_555
C9_4 C10_4 1_555 1_555
C10_4 H4_4 1_555 1_555
C14_4 C9_4 1_555 1_555
H6_4 C14_4 1_555 1_555
O8_4 Zn4 1_555 1_555
O9_4 Zn5_4 1_555 1_555
O10_4 Zn9 1_555 1_555
O13_4 Zn5_4 1_555 1_555
O17_4 Zn5_4 1_555 1_555
O19_4 Zn4 1_555 1_555
P2_4 C9_4 1_555 1_555
C5_4 C6_4 1_555 1_555
O8_4 P2_4 1_555 1_555
O9_4 P2_4 1_555 1_555
O10_4 P2_4 1_555 1_555
Zn3_2 O1_5 1_555 1_555
Zn7 O2_5 1_555 1_555
C1_5 C2_5 1_555 1_555
C2_5 H1_5 1_555 1_555
C3_5 C2_5 1_555 1_555
C4_5 C3_5 1_555 1_555
H2_5 C4_5 1_555 1_555
C5_5 C4_5 1_555 1_555
C6_5 C1_5 1_555 1_555
H3_5 C6_5 1_555 1_555
C7_5 C3_5 1_555 1_555
C8_5 C5_5 1_555 1_555
O1_5 P1_5 1_555 1_555
O2_5 P1_5 1_555 1_555
O3_5 P1_5 1_555 1_555
O13 C7_5 1_555 1_555
O5_5 C7_5 1_555 1_555
O6_5 C8_5 1_555 1_555
O7_5 C8_5 1_555 1_555
P1_5 C1_5 1_555 1_555
Zn3_3 O7_5 1_555 1_555
Zn5_5 O3_5 1_555 1_555
Zn7_3 O6_5 1_555 1_555
C9_5 C10_5 1_555 1_555
C10_5 H4_5 1_555 1_555
C14_5 C9_5 1_555 1_555
H6_5 C14_5 1_555 1_555
O8_5 Zn3_2 1_555 1_555
O9_5 Zn5_5 1_555 1_555
O10_5 Zn7 1_555 1_555
O13_5 Zn5_5 1_555 1_555
O17_5 Zn5_5 1_555 1_555
O19_5 Zn3_2 1_555 1_555
P2_5 C9_5 1_555 1_555
C5_5 C6_5 1_555 1_555
O8_5 P2_5 1_555 1_555
O9_5 P2_5 1_555 1_555
O10_5 P2_5 1_555 1_555
Zn7_3 O11_5 1_555 1_555
C12_5 C11_5 1_555 1_555
H5_5 C12_5 1_555 1_555
C13_5 C12_5 1_555 1_555
C15_5 C11_5 1_555 1_555
C16_5 C13_5 1_555 1_555
O11_5 C15_5 1_555 1_555
O14_5 C15_5 1_555 1_555
O17 C16_5 1_555 1_555
O19 C16_5 1_555 1_555
Zn8_3 O11_6 1_555 1_555
C12_6 C11_6 1_555 1_555
H5_6 C12_6 1_555 1_555
C13_6 C12_6 1_555 1_555
C15_6 C11_6 1_555 1_555
C16_6 C13_6 1_555 1_555
O11_6 C15_6 1_555 1_555
O14_6 C15_6 1_555 1_555
O17_2 C16_6 1_555 1_555
O19_2 C16_6 1_555 1_555
Zn3 O1_6 1_555 1_555
Zn8 O2_6 1_555 1_555
C1_6 C2_6 1_555 1_555
C2_6 H1_6 1_555 1_555
C3_6 C2_6 1_555 1_555
C4_6 C3_6 1_555 1_555
H2_6 C4_6 1_555 1_555
C5_6 C4_6 1_555 1_555
C6_6 C1_6 1_555 1_555
H3_6 C6_6 1_555 1_555
C7_6 C3_6 1_555 1_555
C8_6 C5_6 1_555 1_555
O1_6 P1_6 1_555 1_555
O2_6 P1_6 1_555 1_555
O3_6 P1_6 1_555 1_555
O13_2 C7_6 1_555 1_555
O5_6 C7_6 1_555 1_555
O6_6 C8_6 1_555 1_555
O7_6 C8_6 1_555 1_555
P1_6 C1_6 1_555 1_555
Zn3_4 O7_6 1_555 1_555
Zn5_6 O3_6 1_555 1_555
Zn8_3 O6_6 1_555 1_555
C9_6 C10_6 1_555 1_555
C10_6 H4_6 1_555 1_555
C14_6 C9_6 1_555 1_555
H6_6 C14_6 1_555 1_555
O8_6 Zn3 1_555 1_555
O9_6 Zn5_6 1_555 1_555
O10_6 Zn8 1_555 1_555
O13_6 Zn5_6 1_555 1_555
O17_6 Zn5_6 1_555 1_555
O19_6 Zn3 1_555 1_555
P2_6 C9_6 1_555 1_555
C5_6 C6_6 1_555 1_555
O8_6 P2_6 1_555 1_555
O9_6 P2_6 1_555 1_555
O10_6 P2_6 1_555 1_555
Zn3_4 O1_7 1_555 1_555
Zn8_3 O2_7 1_555 1_555
C1_7 C2_7 1_555 1_555
C2_7 H1_7 1_555 1_555
C6_7 C1_7 1_555 1_555
H3_7 C6_7 1_555 1_555
O1_7 P1_7 1_555 1_555
O2_7 P1_7 1_555 1_555
O3_7 P1_7 1_555 1_555
P1_7 C1_7 1_555 1_555
Zn8_2 O3_7 1_555 1_555
C9_7 C10_7 1_555 1_555
C10_7 H4_7 1_555 1_555
C11_7 C10_7 1_555 1_555
C12_7 C11_7 1_555 1_555
H5_7 C12_7 1_555 1_555
C13_7 C12_7 1_555 1_555
C14_7 C9_7 1_555 1_555
H6_7 C14_7 1_555 1_555
C15_7 C11_7 1_555 1_555
C16_7 C13_7 1_555 1_555
O8_7 Zn3_4 1_555 1_555
O9_7 Zn8_2 1_555 1_555
O10_7 Zn8_3 1_555 1_555
O13_3 C15_7 1_555 1_555
O14_7 C15_7 1_555 1_555
O17_5 C16_7 1_555 1_555
O19_5 C16_7 1_555 1_555
P2_7 C9_7 1_555 1_555
C13_7 C14_7 1_555 1_555
O8_7 P2_7 1_555 1_555
O9_7 P2_7 1_555 1_555
O10_7 P2_7 1_555 1_555
C4_7 C3_7 1_555 1_555
H2_7 C4_7 1_555 1_555
C5_7 C4_7 1_555 1_555
C7_7 C3_7 1_555 1_555
C8_7 C5_7 1_555 1_555
O13_5 C7_7 1_555 1_555
O5_7 C7_7 1_555 1_555
O17_3 C8_7 1_555 1_555
O19_3 C8_7 1_555 1_555
C4_8 C3_8 1_555 1_555
H2_8 C4_8 1_555 1_555
C5_8 C4_8 1_555 1_555
C7_8 C3_8 1_555 1_555
C8_8 C5_8 1_555 1_555
O13_6 C7_8 1_555 1_555
O5_8 C7_8 1_555 1_555
O17_4 C8_8 1_555 1_555
O19_4 C8_8 1_555 1_555
Zn3_3 O1_8 1_555 1_555
Zn7_3 O2_8 1_555 1_555
C1_8 C2_8 1_555 1_555
C2_8 H1_8 1_555 1_555
C6_8 C1_8 1_555 1_555
H3_8 C6_8 1_555 1_555
O1_8 P1_8 1_555 1_555
O2_8 P1_8 1_555 1_555
O3_8 P1_8 1_555 1_555
P1_8 C1_8 1_555 1_555
Zn7_2 O3_8 1_555 1_555
C9_8 C10_8 1_555 1_555
C10_8 H4_8 1_555 1_555
C11_8 C10_8 1_555 1_555
C12_8 C11_8 1_555 1_555
H5_8 C12_8 1_555 1_555
C13_8 C12_8 1_555 1_555
C14_8 C9_8 1_555 1_555
H6_8 C14_8 1_555 1_555
C15_8 C11_8 1_555 1_555
C16_8 C13_8 1_555 1_555
O8_8 Zn3_3 1_555 1_555
O9_8 Zn7_2 1_555 1_555
O10_8 Zn7_3 1_555 1_555
O13_4 C15_8 1_555 1_555
O14_8 C15_8 1_555 1_555
O17_6 C16_8 1_555 1_555
O19_6 C16_8 1_555 1_555
P2_8 C9_8 1_555 1_555
C13_8 C14_8 1_555 1_555
O8_8 P2_8 1_555 1_555
O9_8 P2_8 1_555 1_555
O10_8 P2_8 1_555 1_555
C17 H7 1_555 1_555
H8 C17 1_555 1_555
C18 C17 1_555 1_555
H9 C18 1_555 1_555
H10 C18 1_555 1_555
N1 C18 1_555 1_555
H11 N1 1_555 1_555
C19 C17 1_555 1_555
H12 C19 1_555 1_555
H13 C19 1_555 1_555
C20 N1 1_555 1_555
H14 C20 1_555 1_555
H15 C20 1_555 1_555
H16 N1 1_555 1_555
C19 C20 1_555 1_555
C17_2 H7_2 1_555 1_555
H8_2 C17_2 1_555 1_555
C18_2 C17_2 1_555 1_555
H9_2 C18_2 1_555 1_555
H10_2 C18_2 1_555 1_555
N1_2 C18_2 1_555 1_555
H11_2 N1_2 1_555 1_555
C19_2 C17_2 1_555 1_555
H12_2 C19_2 1_555 1_555
H13_2 C19_2 1_555 1_555
C20_2 N1_2 1_555 1_555
H14_2 C20_2 1_555 1_555
H15_2 C20_2 1_555 1_555
H16_2 N1_2 1_555 1_555
C19_2 C20_2 1_555 1_555
C17_3 H7_3 1_555 1_555
H8_3 C17_3 1_555 1_555
C18_3 C17_3 1_555 1_555
H9_3 C18_3 1_555 1_555
H10_3 C18_3 1_555 1_555
N1_3 C18_3 1_555 1_555
H11_3 N1_3 1_555 1_555
C19_3 C17_3 1_555 1_555
H12_3 C19_3 1_555 1_555
H13_3 C19_3 1_555 1_555
C20_3 N1_3 1_555 1_555
H14_3 C20_3 1_555 1_555
H15_3 C20_3 1_555 1_555
H16_3 N1_3 1_555 1_555
C19_3 C20_3 1_555 1_555
C17_4 H7_4 1_555 1_555
H8_4 C17_4 1_555 1_555
C18_4 C17_4 1_555 1_555
H9_4 C18_4 1_555 1_555
H10_4 C18_4 1_555 1_555
N1_4 C18_4 1_555 1_555
H11_4 N1_4 1_555 1_555
C19_4 C17_4 1_555 1_555
H12_4 C19_4 1_555 1_555
H13_4 C19_4 1_555 1_555
C20_4 N1_4 1_555 1_555
H14_4 C20_4 1_555 1_555
H15_4 C20_4 1_555 1_555
H16_4 N1_4 1_555 1_555
C19_4 C20_4 1_555 1_555
H9_5 C18_5 1_555 1_555
H10_5 C18_5 1_555 1_555
N1_5 C18_5 1_555 1_555
H11_5 N1_5 1_555 1_555
C20_5 N1_5 1_555 1_555
H14_5 C20_5 1_555 1_555
H15_5 C20_5 1_555 1_555
H16_5 N1_5 1_555 1_555
C17_5 H7_5 1_555 1_555
H8_5 C17_5 1_555 1_555
C19_5 C17_5 1_555 1_555
H12_5 C19_5 1_555 1_555
H13_5 C19_5 1_555 1_555
C17_6 H7_6 1_555 1_555
H8_6 C17_6 1_555 1_555
C19_6 C17_6 1_555 1_555
H12_6 C19_6 1_555 1_555
H13_6 C19_6 1_555 1_555
H9_6 C18_6 1_555 1_555
H10_6 C18_6 1_555 1_555
N1_6 C18_6 1_555 1_555
H11_6 N1_6 1_555 1_555
C20_6 N1_6 1_555 1_555
H14_6 C20_6 1_555 1_555
H15_6 C20_6 1_555 1_555
H16_6 N1_6 1_555 1_555
H9_7 C18_7 1_555 1_555
H10_7 C18_7 1_555 1_555
N1_7 C18_7 1_555 1_555
H11_7 N1_7 1_555 1_555
C20_7 N1_7 1_555 1_555
H14_7 C20_7 1_555 1_555
H15_7 C20_7 1_555 1_555
H16_7 N1_7 1_555 1_555
C17_7 H7_7 1_555 1_555
H8_7 C17_7 1_555 1_555
C19_7 C17_7 1_555 1_555
H12_7 C19_7 1_555 1_555
H13_7 C19_7 1_555 1_555
C17_8 H7_8 1_555 1_555
H8_8 C17_8 1_555 1_555
C19_8 C17_8 1_555 1_555
H12_8 C19_8 1_555 1_555
H13_8 C19_8 1_555 1_555
H9_8 C18_8 1_555 1_555
H10_8 C18_8 1_555 1_555
N1_8 C18_8 1_555 1_555
H11_8 N1_8 1_555 1_555
C20_8 N1_8 1_555 1_555
H14_8 C20_8 1_555 1_555
H15_8 C20_8 1_555 1_555
H16_8 N1_8 1_555 1_555

#END
