
###############################################################################
#
# This file contains modified crystal structure data generated from the
# MOF subset of the Cambridge Structural Database (CSD) v543 
# hosted by the Cambridge Crystallographic Data Centre (CCDC).
#
# This work is licensed under the Creative Commons
# Attribution-NonCommercial-ShareAlike 4.0 International License.
# To view a copy of this license, visit
# http://creativecommons.org/licenses/by-nc-sa/4.0/
# or send a letter to
# Creative Commons, PO Box 1866, Mountain View, CA 94042, USA.
#
# CIF created using the CSD Python API on 29 September 2022
# The structure has been converted into the P1 space group
# The structure has a 3D framework
# The original CSD entry MAGXOK is in the trigonal crystal system
# The framework has been calculated to contain at least 10.0% void space
# The void calculation uses a probe of radius 1.32A, grid spacing 0.4
# H atom positions have been added when not included in the experimental data
#
###############################################################################

data_MAGXOK
_chemical_formula_moiety         '(C486 H270 Bi54 O372)n'
_symmetry_cell_setting           triclinic
_symmetry_space_group_name_H-M   'P 1'
_symmetry_Int_Tables_number      1
_space_group_name_Hall           'P 1'
loop_
_symmetry_equiv_pos_site_id
_symmetry_equiv_pos_as_xyz
1 x,y,z
_cell_length_a                   47.210(2)
_cell_length_b                   47.210(2)
_cell_length_c                   9.9682(4)
_cell_angle_alpha                90
_cell_angle_beta                 90
_cell_angle_gamma                120
_cell_volume                     19240.5
loop_
_atom_site_label
_atom_site_type_symbol
_atom_site_fract_x
_atom_site_fract_y
_atom_site_fract_z
O15 O 0.4806(7) 0.3716(6) 0.199(3)
O16 O 0.5123(8) 0.4165(7) 0.302(3)
O17 O 0.5946(8) 0.5181(8) 0.063(3)
O33 O 0.2500(7) 0.4283(8) 0.208(3)
O34 O 0.2947(7) 0.4417(8) 0.091(3)
O43 O 0.1660(8) 0.1895(8) 0.005(3)
O44 O 0.1176(7) 0.1639(7) 0.119(3)
C21 C 0.5139(7) 0.4217(7) 0.074(2)
C22 C 0.5392(7) 0.4541(7) 0.074(2)
H8 H 0.5465 0.4654 0.1549
C26 C 0.5005(10) 0.4049(12) 0.198(5)
H16 H 0.2059 0.4217 0.0604
C53 C 0.2677(10) 0.4352(9) 0.107(4)
C71 C 0.1380(10) 0.1756(12) 0.005(3)
Bi10 Bi 0.16317(5) 0.18023(5) 0.26028(18)
Bi15 Bi 0.35355(5) 0.44328(5) 0.0186(2)
Bi17 Bi 0.29030(5) 0.43887(4) 0.35346(16)
Bi22 Bi 0.48135(5) 0.37664(5) 0.45220(18)
Bi23 Bi 0.42290(4) 0.31309(4) 0.11613(19)
O75 O 0.4758(10) 0.3088(9) 0.032(3)
O76 O 0.2505(9) 0.2876(8) 0.061(3)
O77 O 0.2251(7) 0.2394(7) 0.164(3)
O92 O 0.1816(10) 0.2588(7) 0.011(3)
H29 H 0.280958 0.25334 0.0130646
Bi2 Bi 0.22677(5) 0.18577(5) 0.60595(18)
Bi3 Bi 0.22153(5) 0.24481(5) 0.91747(18)
Bi6 Bi 0.34873(4) 0.50376(5) 0.68778(17)
Bi7 Bi 0.48796(5) 0.31780(5) 0.78442(18)
O1 O 0.2784(7) 0.2182(7) 0.706(3)
O2 O 0.2770(7) 0.2255(8) 0.503(3)
O3 O 0.3792(7) 0.2949(7) 0.260(3)
O4 O 0.4242(7) 0.3261(7) 0.362(3)
O5 O 0.4277(7) 0.3208(8) 0.859(3)
O6 O 0.3821(8) 0.2987(9) 0.973(3)
O7 O 0.4492(8) 0.3997(8) 0.400(3)
O8 O 0.4404(8) 0.3800(8) 0.611(3)
O9 O 0.3695(8) 0.4165(8) 0.873(3)
O10 O 0.3434(8) 0.4383(8) 0.774(3)
O11 O 0.3411(8) 0.4355(8) 0.273(3)
O12 O 0.3707(9) 0.4193(8) 0.158(3)
O13 O 0.5105(8) 0.4182(7) 0.593(3)
O14 O 0.4845(8) 0.3748(7) 0.670(3)
O18 O 0.6021(7) 0.5129(6) 0.859(3)
O19 O 0.5180(9) 0.2073(7) 0.403(3)
O20 O 0.5108(9) 0.2043(7) 0.180(3)
O23 O 0.4806(10) 0.3170(9) 0.522(3)
O24 O 0.4968(9) 0.2871(8) 0.638(3)
O25 O 0.2850(8) 0.3919(8) 0.499(3)
O26 O 0.2690(7) 0.3839(7) 0.286(3)
O29 O 0.2327(7) 0.2440(7) 0.669(3)
O30 O 0.2489(7) 0.2894(7) 0.781(3)
O31 O 0.1537(6) 0.4190(7) 0.755(3)
O32 O 0.1501(8) 0.4076(9) 0.964(3)
O35 O 0.2933(7) 0.4481(8) 0.590(3)
O36 O 0.2479(8) 0.4237(8) 0.496(3)
O39 O 0.3521(8) 0.4975(9) 0.428(3)
O40 O 0.3778(8) 0.5462(8) 0.542(3)
O41 O 0.4585(7) 0.6446(7) 0.302(3)
O42 O 0.4624(7) 0.6412(7) 0.100(3)
O45 O 0.0221(7) 0.1565(7) 0.861(3)
O46 O 0.0215(7) 0.1500(7) 0.649(3)
O47 O 0.1234(8) 0.1693(8) 0.403(3)
O48 O 0.1681(8) 0.1896(8) 0.522(3)
O52 O 0.2495(7) 0.0707(7) 0.206(3)
O53 O 0.2388(8) 0.1558(8) 0.457(3)
O54 O 0.2176(7) 0.1812(7) 0.358(3)
O55 O 0.1627(11) 0.2307(11) 0.260(3)
O56 O 0.1717(9) 0.1353(8) 0.615(4)
O57 O 0.2733(10) 0.2515(10) 0.919(3)
O58 O 0.3068(10) 0.3887(9) 0.024(4)
O59 O 0.2884(8) 0.4902(9) 0.349(3)
O60 O 0.4012(8) 0.5049(10) 0.680(3)
O61 O 0.4354(7) 0.2629(7) 0.785(3)
O62 O 0.5362(9) 0.3785(11) 0.441(4)
O63 O 0.4144(10) 0.3599(8) 0.114(4)
C1 C 0.3289(5) 0.2584(7) 0.613(3)
C2 C 0.3456(7) 0.2721(8) 0.494(2)
H1 H 0.3347 0.2654 0.4122
C3 C 0.3786(7) 0.2957(8) 0.497(2)
C4 C 0.3949(5) 0.3056(7) 0.619(3)
H2 H 0.4169 0.3215 0.6212
C5 C 0.3782(7) 0.2920(7) 0.738(2)
C6 C 0.3452(7) 0.2683(7) 0.735(2)
H3 H 0.3341 0.2592 0.8143
C7 C 0.2929(7) 0.2340(10) 0.597(5)
C8 C 0.3961(11) 0.3074(11) 0.365(3)
C9 C 0.3969(13) 0.3057(12) 0.862(5)
C10 C 0.4064(7) 0.4027(8) 0.519(3)
C11 C 0.3945(7) 0.4073(8) 0.640(2)
H4 H 0.4020 0.4036 0.7210
C12 C 0.3714(8) 0.4173(8) 0.640(2)
C13 C 0.3602(7) 0.4229(9) 0.520(3)
H5 H 0.3447 0.4296 0.5198
C14 C 0.3721(7) 0.4183(8) 0.399(2)
C15 C 0.3952(7) 0.4082(8) 0.399(2)
H6 H 0.4031 0.4052 0.3180
C16 C 0.4317(10) 0.3921(12) 0.510(5)
C17 C 0.3598(11) 0.4241(11) 0.769(5)
C18 C 0.3591(11) 0.4232(11) 0.267(3)
C19 C 0.5173(7) 0.4202(7) 0.834(2)
C20 C 0.5030(6) 0.4048(5) 0.954(3)
H7 H 0.4861 0.3832 0.9539
C23 C 0.5535(6) 0.4695(5) 0.954(3)
C24 C 0.5426(7) 0.4526(7) 0.834(2)
H9 H 0.5522 0.4629 0.7533
C25 C 0.5044(11) 0.4007(12) 0.705(4)
C27 C 0.5826(9) 0.5038(8) 0.966(5)
C28 C 0.5099(7) 0.2470(6) 0.288(3)
C29 C 0.5054(7) 0.2597(7) 0.407(2)
H10 H 0.5080 0.2518 0.4894
C30 C 0.4972(7) 0.2841(7) 0.404(2)
C31 C 0.4934(7) 0.2959(6) 0.281(3)
H11 H 0.4879 0.3122 0.2789
C32 C 0.4979(7) 0.2832(7) 0.162(2)
C33 C 0.5061(7) 0.2588(7) 0.166(2)
H12 H 0.5091 0.2503 0.0864
C34 C 0.5143(11) 0.2175(11) 0.285(4)
C35 C 0.4899(12) 0.2958(12) 0.530(4)
C36 C 0.4906(12) 0.2917(12) 0.022(4)
C37 C 0.2638(9) 0.3398(5) 0.412(3)
C38 C 0.2591(8) 0.3225(6) 0.294(2)
H13 H 0.2622 0.3330 0.2117
C39 C 0.2497(8) 0.2896(6) 0.298(2)
C40 C 0.2450(10) 0.2739(5) 0.421(3)
H14 H 0.2387 0.2518 0.4238
C41 C 0.2497(9) 0.2912(6) 0.540(2)
C42 C 0.2591(9) 0.3242(6) 0.535(2)
H15 H 0.2623 0.3357 0.6146
C43 C 0.2733(12) 0.3753(10) 0.395(5)
C44 C 0.2401(12) 0.2722(11) 0.173(4)
C45 C 0.2466(13) 0.2758(11) 0.665(4)
C46 C 0.1980(4) 0.4193(6) 0.860(3)
C47 C 0.2158(6) 0.4239(7) 0.977(2)
C48 C 0.2483(6) 0.4318(7) 0.970(2)
C49 C 0.2631(4) 0.4350(7) 0.846(2)
H17 H 0.2849 0.4403 0.8415
C50 C 0.2453(5) 0.4304(6) 0.7291(19)
C51 C 0.2128(5) 0.4225(6) 0.736(2)
H18 H 0.2008 0.4194 0.6578
C52 C 0.1631(6) 0.4129(9) 0.859(4)
C54 C 0.2633(10) 0.4354(10) 0.606(4)
C55 C 0.3826(7) 0.5462(6) 0.076(2)
C56 C 0.3684(6) 0.5302(5) 0.195(3)
H19 H 0.3515 0.5086 0.1936
C57 C 0.3794(6) 0.5466(6) 0.317(2)
C58 C 0.4046(6) 0.5789(6) 0.3187(19)
H20 H 0.4119 0.5899 0.4000
C59 C 0.4188(6) 0.5949(5) 0.199(2)
C60 C 0.4078(6) 0.5786(6) 0.078(2)
C62 C 0.3679(12) 0.5280(12) 0.425(4)
C63 C 0.4501(10) 0.6289(11) 0.198(4)
C64 C 0.1187(6) 0.1691(7) 0.879(2)
C65 C 0.0860(6) 0.1608(7) 0.877(2)
H22 H 0.0746 0.1571 0.9576
C66 C 0.0704(5) 0.1583(7) 0.756(2)
C67 C 0.0874(6) 0.1640(7) 0.636(2)
H23 H 0.0769 0.1623 0.5550
C68 C 0.1200(6) 0.1722(7) 0.637(2)
C69 C 0.1357(5) 0.1747(7) 0.759(3)
H24 H 0.1576 0.1802 0.7594
C70 C 0.1374(13) 0.1757(12) 0.510(5)
C72 C 0.0362(8) 0.1527(11) 0.746(4)
C75 C 0.2478(8) 0.1156(6) 0.104(3)
C76 C 0.2457(7) 0.1289(7) 0.226(2)
H26 H 0.2492 0.1209 0.3061
C77 C 0.2384(7) 0.1540(7) 0.228(2)
C78 C 0.2332(8) 0.1658(6) 0.109(3)
H27 H 0.2284 0.1826 0.1100
C80 C 0.2288(11) 0.1631(11) 0.345(5)
C81 C 0.2501(11) 0.0848(11) 0.101(5)
Bi14 Bi 0.24481(5) 0.02328(7) 0.08253(18)
Bi16 Bi 0.64645(5) 0.55672(5) 0.9814(2)
Bi19 Bi 0.50376(5) 0.15503(6) 0.31222(17)
Bi21 Bi 0.51204(5) 0.68220(5) 0.21558(18)
Bi24 Bi 0.10981(6) 0.42290(4) 0.88387(19)
O71 O 0.3979(7) 0.4871(6) 0.141(3)
O72 O 0.3107(11) 0.5180(9) 0.597(3)
O73 O 0.3065(11) 0.5108(9) 0.820(3)
O74 O 0.5001(10) 0.2888(8) 0.926(3)
O78 O 0.4190(7) 0.2653(9) 0.245(3)
O79 O 0.4076(9) 0.2575(12) 0.036(3)
O82 O 0.3770(7) 0.5461(8) 0.835(3)
O83 O 0.3553(8) 0.4981(9) 0.942(3)
O84 O 0.5415(7) 0.3554(7) 0.698(3)
O85 O 0.5376(7) 0.3588(7) 0.900(3)
O88 O 0.1565(7) 0.1344(10) 0.139(3)
O89 O 0.1500(7) 0.1285(10) 0.351(3)
O90 O 0.2190(7) 0.1825(7) 0.857(3)
O91 O 0.2346(7) 0.1542(7) 0.750(3)
O93 O 0.1788(10) 0.2495(7) 0.794(3)
H28 H 0.288438 0.271698 0.869093
H30 H 0.291286 0.498381 0.255379
H31 H 0.266942 0.486034 0.383802
H32 H 0.43838 0.247063 0.729863
H33 H 0.429866 0.254668 0.878479
H34 H 0.406556 0.502772 0.585539
H35 H 0.418633 0.525923 0.7176
H36 H 0.541604 0.376945 0.345996
H37 H 0.553492 0.399401 0.480048
H38 H 0.41696 0.368755 0.206337
H39 H 0.430749 0.377088 0.0539638
H40 H 0.160189 0.135546 0.697984
H41 H 0.158713 0.134606 0.535426
H42 H 0.287814 0.389356 0.0633622
H44 H 0.167104 0.239967 0.352075
H45 H 0.179849 0.24639 0.19803
O51 O 0.2588(7) 0.0772(7) 0.989(3)
H21 H 0.4174 0.5893 0.9978
C61 C 0.3693(11) 0.5290(12) 0.942(4)
C73 C 0.2353(8) 0.1526(7) 0.987(2)
C74 C 0.2426(8) 0.1275(7) 0.985(2)
H25 H 0.2440 0.1186 0.9035
C79 C 0.2302(11) 0.1663(10) 0.863(3)
O70 O 0.4054(8) 0.4819(8) 0.937(3)
H43 H 0.301378 0.379878 0.93131
Bi11 Bi 0.98294(7) 0.16317(5) 0.73972(18)
O15_2 O 0.6284(6) 0.1090(9) 0.199(3)
O16_2 O 0.5835(7) 0.0958(11) 0.302(3)
O17_2 O 0.4819(8) 0.0765(11) 0.063(3)
C21_2 C 0.5783(7) 0.0922(10) 0.074(2)
C22_2 C 0.5459(7) 0.0851(10) 0.074(2)
H8_2 H 0.5346 0.0811 0.1549
C26_2 C 0.5951(12) 0.0956(16) 0.198(5)
Bi22_2 Bi 0.62336(5) 0.10471(7) 0.45220(18)
Bi23_2 Bi 0.68691(4) 0.10981(6) 0.11613(19)
O75_2 O 0.6912(9) 0.1670(13) 0.032(3)
H29_2 H 0.74666 0.0276185 0.0130646
Bi2_2 Bi 0.81423(5) 0.04100(7) 0.60595(18)
Bi7_2 Bi 0.68220(5) 0.17016(7) 0.78442(18)
O1_2 O 0.7818(7) 0.0602(10) 0.706(3)
O2_2 O 0.7745(8) 0.0515(11) 0.503(3)
O3_2 O 0.7051(7) 0.0843(10) 0.260(3)
O4_2 O 0.6739(7) 0.0981(10) 0.362(3)
O5_2 O 0.6792(8) 0.1069(11) 0.859(3)
O6_2 O 0.7013(9) 0.0834(12) 0.973(3)
O7_2 O 0.6003(8) 0.0495(11) 0.400(3)
O8_2 O 0.6200(8) 0.0604(11) 0.611(3)
O13_2 O 0.5818(7) 0.0923(11) 0.593(3)
O14_2 O 0.6252(7) 0.1097(11) 0.670(3)
O18_2 O 0.4871(6) 0.0892(9) 0.859(3)
O19_2 O 0.7927(7) 0.3107(11) 0.403(3)
O20_2 O 0.7957(7) 0.3065(11) 0.180(3)
O23_2 O 0.6830(9) 0.1636(13) 0.522(3)
O24_2 O 0.7129(8) 0.2097(12) 0.638(3)
O52_2 O 0.9293(7) 0.1788(10) 0.206(3)
O53_2 O 0.8442(8) 0.0830(11) 0.457(3)
O54_2 O 0.8188(7) 0.0364(10) 0.358(3)
O56_2 O 0.8647(8) 0.0364(12) 0.615(4)
O57_2 O 0.7485(10) 0.0218(14) 0.919(3)
O61_2 O 0.7371(7) 0.1725(10) 0.785(3)
O62_2 O 0.6215(11) 0.1577(14) 0.441(4)
O63_2 O 0.6401(8) 0.0545(13) 0.114(4)
C1_2 C 0.7416(7) 0.0705(9) 0.613(3)
C2_2 C 0.7279(8) 0.0735(11) 0.494(2)
H1_2 H 0.7346 0.0693 0.4122
C3_2 C 0.7043(8) 0.0829(11) 0.497(2)
C4_2 C 0.6944(7) 0.0893(9) 0.619(3)
H2_2 H 0.6785 0.0954 0.6212
C5_2 C 0.7080(7) 0.0862(10) 0.738(2)
C6_2 C 0.7317(7) 0.0769(10) 0.735(2)
H3_2 H 0.7408 0.0749 0.8143
C7_2 C 0.7660(10) 0.0589(12) 0.597(5)
C8_2 C 0.6926(11) 0.0887(16) 0.365(3)
C9_2 C 0.6943(12) 0.0912(18) 0.862(5)
C10_2 C 0.5973(8) 0.0037(11) 0.519(3)
C16_2 C 0.6079(12) 0.0396(16) 0.510(5)
C19_2 C 0.5798(7) 0.0971(10) 0.834(2)
C20_2 C 0.5952(5) 0.0982(8) 0.954(3)
H7_2 H 0.6168 0.1029 0.9539
C23_2 C 0.5305(5) 0.0840(8) 0.954(3)
C24_2 C 0.5474(7) 0.0900(10) 0.834(2)
H9_2 H 0.5371 0.0893 0.7533
C25_2 C 0.5993(12) 0.1037(16) 0.705(4)
C27_2 C 0.4962(8) 0.0788(12) 0.966(5)
C28_2 C 0.7530(6) 0.2629(9) 0.288(3)
C29_2 C 0.7403(7) 0.2457(10) 0.407(2)
H10_2 H 0.7482 0.2562 0.4894
C30_2 C 0.7159(7) 0.2131(10) 0.404(2)
C31_2 C 0.7041(6) 0.1975(9) 0.281(3)
H11_2 H 0.6878 0.1757 0.2789
C32_2 C 0.7168(7) 0.2147(10) 0.162(2)
C33_2 C 0.7412(7) 0.2473(10) 0.166(2)
H12_2 H 0.7497 0.2588 0.0864
C34_2 C 0.7825(11) 0.2968(16) 0.285(4)
C35_2 C 0.7042(12) 0.1941(17) 0.530(4)
C36_2 C 0.7083(12) 0.1989(17) 0.022(4)
C75_2 C 0.8844(6) 0.1322(10) 0.104(3)
C76_2 C 0.8711(7) 0.1168(10) 0.226(2)
H26_2 H 0.8791 0.1283 0.3061
C77_2 C 0.8460(7) 0.0844(10) 0.228(2)
C78_2 C 0.8342(6) 0.0674(10) 0.109(3)
H27_2 H 0.8174 0.0458 0.1100
C80_2 C 0.8369(11) 0.0657(16) 0.345(5)
C81_2 C 0.9152(11) 0.1653(16) 0.101(5)
Bi14_2 Bi 0.97672(7) 0.22153(9) 0.08253(18)
Bi16_2 Bi 0.44328(5) 0.08973(7) 0.9814(2)
Bi19_2 Bi 0.84497(6) 0.34873(8) 0.31222(17)
O74_2 O 0.7112(8) 0.2113(13) 0.926(3)
O78_2 O 0.7347(9) 0.1537(11) 0.245(3)
O79_2 O 0.7425(12) 0.1501(15) 0.036(3)
O84_2 O 0.6446(7) 0.1861(10) 0.698(3)
O85_2 O 0.6412(7) 0.1788(10) 0.900(3)
O88_2 O 0.8656(10) 0.0221(12) 0.139(3)
O89_2 O 0.8715(10) 0.0215(12) 0.351(3)
O90_2 O 0.8175(7) 0.0365(10) 0.857(3)
O91_2 O 0.8458(7) 0.0804(10) 0.750(3)
H28_2 H 0.728302 0.0167396 0.869093
H32_2 H 0.752937 0.191317 0.729863
H33_2 H 0.745332 0.175198 0.878479
H36_2 H 0.623055 0.164659 0.345996
H37_2 H 0.600599 0.154092 0.480048
H38_2 H 0.631245 0.0482047 0.206337
H39_2 H 0.622912 0.0536611 0.0539638
H40_2 H 0.864454 0.0246427 0.697984
H41_2 H 0.865394 0.0241076 0.535426
O51_2 O 0.9228(7) 0.1816(10) 0.989(3)
C73_2 C 0.8474(7) 0.0827(11) 0.987(2)
C74_2 C 0.8725(7) 0.1151(11) 0.985(2)
H25_2 H 0.8814 0.1254 0.9035
C79_2 C 0.8337(10) 0.0639(15) 0.863(3)
O33_2 O 0.5717(8) 0.8217(11) 0.208(3)
O34_2 O 0.5583(8) 0.8530(11) 0.091(3)
O43_2 O 0.8105(8) 0.9765(11) 0.005(3)
O44_2 O 0.8361(7) 0.9537(10) 0.119(3)
H16_2 H 0.5783 0.7842 0.0604
C53_2 C 0.5648(9) 0.8325(13) 0.107(4)
C71_2 C 0.8244(12) 0.9624(16) 0.005(3)
Bi10_2 Bi 0.81977(5) 0.98294(7) 0.26028(18)
Bi15_2 Bi 0.55672(5) 0.91027(7) 0.0186(2)
Bi17_2 Bi 0.56113(4) 0.85143(6) 0.35346(16)
O76_2 O 0.7124(8) 0.9629(12) 0.061(3)
O77_2 O 0.7606(7) 0.9857(10) 0.164(3)
O92_2 O 0.7412(7) 0.9228(12) 0.011(3)
Bi3_2 Bi 0.75519(5) 0.97672(7) 0.91747(18)
Bi6_2 Bi 0.49624(5) 0.84497(6) 0.68778(17)
O9_2 O 0.5835(8) 0.9530(11) 0.873(3)
O10_2 O 0.5617(8) 0.9051(11) 0.774(3)
O11_2 O 0.5645(8) 0.9056(11) 0.273(3)
O12_2 O 0.5807(8) 0.9514(12) 0.158(3)
O25_2 O 0.6081(8) 0.8931(11) 0.499(3)
O26_2 O 0.6161(7) 0.8851(10) 0.286(3)
O29_2 O 0.7560(7) 0.9887(10) 0.669(3)
O30_2 O 0.7106(7) 0.9595(10) 0.781(3)
O31_2 O 0.5810(7) 0.7347(9) 0.755(3)
O32_2 O 0.5924(9) 0.7425(12) 0.964(3)
O35_2 O 0.5519(8) 0.8452(11) 0.590(3)
O36_2 O 0.5763(8) 0.8242(11) 0.496(3)
O39_2 O 0.5025(9) 0.8546(12) 0.428(3)
O40_2 O 0.4538(8) 0.8316(11) 0.542(3)
O41_2 O 0.3554(7) 0.8139(10) 0.302(3)
O42_2 O 0.3588(7) 0.8212(10) 0.100(3)
O45_2 O 0.8435(7) 0.8656(10) 0.861(3)
O46_2 O 0.8500(7) 0.8715(10) 0.649(3)
O47_2 O 0.8307(8) 0.9541(11) 0.403(3)
O48_2 O 0.8104(8) 0.9785(11) 0.522(3)
O55_2 O 0.7693(11) 0.9320(16) 0.260(3)
O58_2 O 0.6113(9) 0.9181(13) 0.024(4)
O59_2 O 0.5098(9) 0.7982(12) 0.349(3)
O60_2 O 0.4951(10) 0.8963(13) 0.680(3)
C11_2 C 0.5927(8) 0.9872(11) 0.640(2)
H4_2 H 0.5964 0.9984 0.7210
C12_2 C 0.5827(8) 0.9541(11) 0.640(2)
C13_2 C 0.5771(9) 0.9373(11) 0.520(3)
H5_2 H 0.5704 0.9151 0.5198
C14_2 C 0.5817(8) 0.9538(11) 0.399(2)
C15_2 C 0.5918(8) 0.9870(11) 0.399(2)
H6_2 H 0.5948 0.9979 0.3180
C17_2 C 0.5759(11) 0.9357(16) 0.769(5)
C18_2 C 0.5768(11) 0.9359(16) 0.267(3)
C37_2 C 0.6602(5) 0.9240(10) 0.412(3)
C38_2 C 0.6775(6) 0.9366(10) 0.294(2)
H13_2 H 0.6670 0.9292 0.2117
C39_2 C 0.7104(6) 0.9601(10) 0.298(2)
C40_2 C 0.7261(5) 0.9711(11) 0.421(3)
H14_2 H 0.7482 0.9869 0.4238
C41_2 C 0.7088(6) 0.9585(11) 0.540(2)
C42_2 C 0.6758(6) 0.9349(11) 0.535(2)
H15_2 H 0.6643 0.9266 0.6146
C43_2 C 0.6247(10) 0.8980(16) 0.395(5)
C44_2 C 0.7278(11) 0.9679(16) 0.173(4)
C45_2 C 0.7242(11) 0.9708(17) 0.665(4)
C46_2 C 0.5807(6) 0.7787(7) 0.860(3)
C47_2 C 0.5761(7) 0.7919(9) 0.977(2)
C48_2 C 0.5682(7) 0.8165(9) 0.970(2)
C49_2 C 0.5650(7) 0.8281(8) 0.846(2)
H17_2 H 0.5597 0.8446 0.8415
C50_2 C 0.5696(6) 0.8149(8) 0.7291(19)
C51_2 C 0.5775(6) 0.7903(8) 0.736(2)
H18_2 H 0.5806 0.7814 0.6578
C52_2 C 0.5871(9) 0.7502(11) 0.859(4)
C54_2 C 0.5646(10) 0.8279(14) 0.606(4)
C55_2 C 0.4538(6) 0.8364(9) 0.076(2)
C56_2 C 0.4698(5) 0.8382(8) 0.195(3)
H19_2 H 0.4914 0.8429 0.1936
C57_2 C 0.4534(6) 0.8328(8) 0.317(2)
C58_2 C 0.4211(6) 0.8257(8) 0.3187(19)
H20_2 H 0.4101 0.8220 0.4000
C59_2 C 0.4051(5) 0.8239(8) 0.199(2)
C60_2 C 0.4214(6) 0.8292(8) 0.078(2)
C62_2 C 0.4720(12) 0.8399(17) 0.425(4)
C63_2 C 0.3711(11) 0.8212(15) 0.198(4)
C64_2 C 0.8309(7) 0.9496(9) 0.879(2)
C65_2 C 0.8392(7) 0.9252(9) 0.877(2)
H22_2 H 0.8429 0.9175 0.9576
C66_2 C 0.8417(7) 0.9121(9) 0.756(2)
C67_2 C 0.8360(7) 0.9234(9) 0.636(2)
H23_2 H 0.8377 0.9146 0.5550
C68_2 C 0.8278(7) 0.9478(9) 0.637(2)
C69_2 C 0.8253(7) 0.9610(9) 0.759(3)
H24_2 H 0.8198 0.9774 0.7594
C70_2 C 0.8243(12) 0.9617(18) 0.510(5)
C72_2 C 0.8473(11) 0.8835(14) 0.746(4)
Bi11_2 Bi 0.83683(5) 0.81977(9) 0.73972(18)
Bi21_2 Bi 0.31780(5) 0.82984(7) 0.21558(18)
Bi24_2 Bi 0.57710(4) 0.68691(7) 0.88387(19)
O71_2 O 0.5129(6) 0.9108(9) 0.141(3)
O72_2 O 0.4820(9) 0.7927(14) 0.597(3)
O73_2 O 0.4892(9) 0.7957(14) 0.820(3)
O82_2 O 0.4539(8) 0.8309(11) 0.835(3)
O83_2 O 0.5019(9) 0.8572(12) 0.942(3)
O93_2 O 0.7505(7) 0.9293(12) 0.794(3)
H30_2 H 0.501619 0.792904 0.255379
H31_2 H 0.513966 0.780908 0.383802
H34_2 H 0.497228 0.903784 0.585539
H35_2 H 0.474077 0.892709 0.7176
H42_2 H 0.610644 0.898458 0.0633622
H44_2 H 0.760033 0.927137 0.352075
H45_2 H 0.75361 0.933459 0.19803
H21_2 H 0.4107 0.8281 0.9978
C61_2 C 0.4710(12) 0.8403(16) 0.942(4)
O70_2 O 0.5181(8) 0.9235(11) 0.937(3)
H43_2 H 0.620122 0.9215 0.93131
Bi11_3 Bi 0.18023(9) 0.01706(7) 0.73972(18)
O33_3 O 0.1783(11) 0.7500(7) 0.208(3)
O34_3 O 0.1470(11) 0.7053(7) 0.091(3)
O43_3 O 0.0235(11) 0.8340(8) 0.005(3)
O44_3 O 0.0463(10) 0.8824(7) 0.119(3)
H16_3 H 0.2158 0.7941 0.0604
C53_3 C 0.1675(13) 0.7323(10) 0.107(4)
C71_3 C 0.0376(16) 0.8620(10) 0.005(3)
Bi10_3 Bi 0.01706(7) 0.83683(5) 0.26028(18)
Bi15_3 Bi 0.08973(7) 0.64645(5) 0.0186(2)
Bi17_3 Bi 0.14857(6) 0.70970(5) 0.35346(16)
O76_3 O 0.0371(12) 0.7495(9) 0.061(3)
O77_3 O 0.0143(10) 0.7749(7) 0.164(3)
O92_3 O 0.0772(12) 0.8184(10) 0.011(3)
Bi3_3 Bi 0.02328(7) 0.77847(5) 0.91747(18)
Bi6_3 Bi 0.15503(6) 0.65127(4) 0.68778(17)
O9_3 O 0.0470(11) 0.6305(8) 0.873(3)
O10_3 O 0.0949(11) 0.6566(8) 0.774(3)
O11_3 O 0.0944(11) 0.6589(8) 0.273(3)
O12_3 O 0.0486(12) 0.6293(9) 0.158(3)
O25_3 O 0.1069(11) 0.7150(8) 0.499(3)
O26_3 O 0.1149(10) 0.7310(7) 0.286(3)
O29_3 O 0.0113(10) 0.7673(7) 0.669(3)
O30_3 O 0.0405(10) 0.7511(7) 0.781(3)
O31_3 O 0.2653(9) 0.8463(6) 0.755(3)
O32_3 O 0.2575(12) 0.8499(8) 0.964(3)
O35_3 O 0.1548(11) 0.7067(7) 0.590(3)
O36_3 O 0.1758(11) 0.7521(8) 0.496(3)
O39_3 O 0.1454(12) 0.6479(8) 0.428(3)
O40_3 O 0.1684(11) 0.6222(8) 0.542(3)
O41_3 O 0.1861(10) 0.5415(7) 0.302(3)
O42_3 O 0.1788(10) 0.5376(7) 0.100(3)
O45_3 O 0.1344(10) 0.9779(7) 0.861(3)
O46_3 O 0.1285(10) 0.9785(7) 0.649(3)
O47_3 O 0.0459(11) 0.8766(8) 0.403(3)
O48_3 O 0.0215(11) 0.8319(8) 0.522(3)
O55_3 O 0.0680(16) 0.8373(11) 0.260(3)
O58_3 O 0.0819(13) 0.6932(10) 0.024(4)
O59_3 O 0.2018(12) 0.7116(8) 0.349(3)
O60_3 O 0.1037(13) 0.5988(8) 0.680(3)
C11_3 C 0.0128(11) 0.6055(7) 0.640(2)
H4_3 H 0.0016 0.5980 0.7210
C12_3 C 0.0459(11) 0.6286(8) 0.640(2)
C13_3 C 0.0627(11) 0.6398(7) 0.520(3)
H5_3 H 0.0849 0.6553 0.5198
C14_3 C 0.0462(11) 0.6279(7) 0.399(2)
C15_3 C 0.0130(11) 0.6048(7) 0.399(2)
H6_3 H 0.0021 0.5969 0.3180
C17_3 C 0.0643(16) 0.6402(11) 0.769(5)
C18_3 C 0.0641(16) 0.6409(11) 0.267(3)
C37_3 C 0.0760(10) 0.7362(9) 0.412(3)
C38_3 C 0.0634(10) 0.7409(8) 0.294(2)
H13_3 H 0.0708 0.7378 0.2117
C39_3 C 0.0399(10) 0.7503(8) 0.298(2)
C40_3 C 0.0289(11) 0.7550(10) 0.421(3)
H14_3 H 0.0131 0.7613 0.4238
C41_3 C 0.0415(11) 0.7503(9) 0.540(2)
C42_3 C 0.0651(11) 0.7409(9) 0.535(2)
H15_3 H 0.0734 0.7377 0.6146
C43_3 C 0.1020(16) 0.7267(12) 0.395(5)
C44_3 C 0.0321(16) 0.7599(12) 0.173(4)
C45_3 C 0.0292(17) 0.7534(13) 0.665(4)
C46_3 C 0.2213(7) 0.8020(4) 0.860(3)
C47_3 C 0.2081(9) 0.7842(6) 0.977(2)
C48_3 C 0.1835(9) 0.7517(6) 0.970(2)
C49_3 C 0.1719(8) 0.7369(4) 0.846(2)
H17_3 H 0.1554 0.7151 0.8415
C50_3 C 0.1851(8) 0.7547(5) 0.7291(19)
C51_3 C 0.2097(8) 0.7872(5) 0.736(2)
H18_3 H 0.2186 0.7992 0.6578
C52_3 C 0.2498(11) 0.8369(6) 0.859(4)
C54_3 C 0.1721(14) 0.7367(10) 0.606(4)
C55_3 C 0.1636(9) 0.6174(7) 0.076(2)
C56_3 C 0.1618(8) 0.6316(6) 0.195(3)
H19_3 H 0.1571 0.6485 0.1936
C57_3 C 0.1672(8) 0.6206(6) 0.317(2)
C58_3 C 0.1743(8) 0.5954(6) 0.3187(19)
H20_3 H 0.1780 0.5881 0.4000
C59_3 C 0.1761(8) 0.5812(6) 0.199(2)
C60_3 C 0.1708(8) 0.5922(6) 0.078(2)
C62_3 C 0.1601(17) 0.6321(12) 0.425(4)
C63_3 C 0.1788(15) 0.5499(10) 0.198(4)
C64_3 C 0.0504(9) 0.8813(6) 0.879(2)
C65_3 C 0.0748(9) 0.9140(6) 0.877(2)
H22_3 H 0.0825 0.9254 0.9576
C66_3 C 0.0879(9) 0.9296(5) 0.756(2)
C67_3 C 0.0766(9) 0.9126(6) 0.636(2)
H23_3 H 0.0854 0.9231 0.5550
C68_3 C 0.0522(9) 0.8800(6) 0.637(2)
C69_3 C 0.0390(9) 0.8643(5) 0.759(3)
H24_3 H 0.0226 0.8424 0.7594
C70_3 C 0.0383(18) 0.8626(13) 0.510(5)
C72_3 C 0.1165(14) 0.9638(8) 0.746(4)
Bi21_3 Bi 0.17016(7) 0.48796(5) 0.21558(18)
Bi24_3 Bi 0.31309(7) 0.89019(6) 0.88387(19)
O71_3 O 0.0892(9) 0.6021(7) 0.141(3)
O72_3 O 0.2073(14) 0.6893(11) 0.597(3)
O73_3 O 0.2043(14) 0.6935(11) 0.820(3)
O82_3 O 0.1691(11) 0.6230(7) 0.835(3)
O83_3 O 0.1428(12) 0.6447(8) 0.942(3)
O93_3 O 0.0707(12) 0.8212(10) 0.794(3)
H30_3 H 0.207096 0.708714 0.255379
H31_3 H 0.219092 0.733058 0.383802
H34_3 H 0.0962161 0.593444 0.585539
H35_3 H 0.107291 0.581367 0.7176
H42_3 H 0.101542 0.712186 0.0633622
H44_3 H 0.0728629 0.832896 0.352075
H45_3 H 0.0665407 0.820151 0.19803
H21_3 H 0.1719 0.5826 0.9978
C61_3 C 0.1597(16) 0.6307(11) 0.942(4)
O70_3 O 0.0765(11) 0.5946(8) 0.937(3)
H43_3 H 0.0785 0.698622 0.93131
O15_3 O 0.8910(9) 0.5194(7) 0.199(3)
O16_3 O 0.9042(11) 0.4877(8) 0.302(3)
O17_3 O 0.9235(11) 0.4054(8) 0.063(3)
C21_3 C 0.9078(10) 0.4861(7) 0.074(2)
C22_3 C 0.9149(10) 0.4608(7) 0.074(2)
H8_3 H 0.9189 0.4535 0.1549
C26_3 C 0.9044(16) 0.4995(10) 0.198(5)
Bi22_3 Bi 0.89529(7) 0.51865(5) 0.45220(18)
Bi23_3 Bi 0.89019(6) 0.57710(4) 0.11613(19)
O75_3 O 0.8330(13) 0.5242(10) 0.032(3)
H29_3 H 0.972381 0.719042 0.0130646
Bi2_3 Bi 0.95900(7) 0.77323(5) 0.60595(18)
Bi7_3 Bi 0.82984(7) 0.51204(5) 0.78442(18)
O1_3 O 0.9398(10) 0.7216(7) 0.706(3)
O2_3 O 0.9485(11) 0.7230(7) 0.503(3)
O3_3 O 0.9157(10) 0.6208(7) 0.260(3)
O4_3 O 0.9019(10) 0.5758(7) 0.362(3)
O5_3 O 0.8931(11) 0.5723(7) 0.859(3)
O6_3 O 0.9166(12) 0.6179(8) 0.973(3)
O7_3 O 0.9505(11) 0.5508(8) 0.400(3)
O8_3 O 0.9396(11) 0.5596(8) 0.611(3)
O13_3 O 0.9077(11) 0.4895(8) 0.593(3)
O14_3 O 0.8903(11) 0.5155(8) 0.670(3)
O18_3 O 0.9108(9) 0.3979(7) 0.859(3)
O19_3 O 0.6893(11) 0.4820(9) 0.403(3)
O20_3 O 0.6935(11) 0.4892(9) 0.180(3)
O23_3 O 0.8364(13) 0.5194(10) 0.522(3)
O24_3 O 0.7903(12) 0.5032(9) 0.638(3)
O52_3 O 0.8212(10) 0.7505(7) 0.206(3)
O53_3 O 0.9170(11) 0.7612(8) 0.457(3)
O54_3 O 0.9636(10) 0.7824(7) 0.358(3)
O56_3 O 0.9636(12) 0.8283(9) 0.615(4)
O57_3 O 0.9782(14) 0.7267(10) 0.919(3)
O61_3 O 0.8275(10) 0.5646(7) 0.785(3)
O62_3 O 0.8423(14) 0.4638(9) 0.441(4)
O63_3 O 0.9455(13) 0.5856(10) 0.114(4)
C1_3 C 0.9295(9) 0.6711(5) 0.613(3)
C2_3 C 0.9265(11) 0.6544(7) 0.494(2)
H1_3 H 0.9307 0.6653 0.4122
C3_3 C 0.9171(11) 0.6214(7) 0.497(2)
C4_3 C 0.9107(9) 0.6051(5) 0.619(3)
H2_3 H 0.9046 0.5831 0.6212
C5_3 C 0.9138(10) 0.6218(7) 0.738(2)
C6_3 C 0.9231(10) 0.6548(7) 0.735(2)
H3_3 H 0.9251 0.6659 0.8143
C7_3 C 0.9411(12) 0.7071(7) 0.597(5)
C8_3 C 0.9113(16) 0.6039(11) 0.365(3)
C9_3 C 0.9088(18) 0.6031(13) 0.862(5)
C10_3 C 0.9963(11) 0.5936(7) 0.519(3)
C16_3 C 0.9604(16) 0.5683(10) 0.510(5)
C19_3 C 0.9029(10) 0.4827(7) 0.834(2)
C20_3 C 0.9018(8) 0.4970(6) 0.954(3)
H7_3 H 0.8971 0.5139 0.9539
C23_3 C 0.9160(8) 0.4465(6) 0.954(3)
C24_3 C 0.9100(10) 0.4574(7) 0.834(2)
H9_3 H 0.9107 0.4478 0.7533
C25_3 C 0.8963(16) 0.4956(11) 0.705(4)
C27_3 C 0.9212(12) 0.4174(9) 0.966(5)
C28_3 C 0.7371(9) 0.4901(7) 0.288(3)
C29_3 C 0.7543(10) 0.4946(7) 0.407(2)
H10_3 H 0.7438 0.4920 0.4894
C30_3 C 0.7869(10) 0.5028(7) 0.404(2)
C31_3 C 0.8025(9) 0.5066(7) 0.281(3)
H11_3 H 0.8243 0.5121 0.2789
C32_3 C 0.7853(10) 0.5021(7) 0.162(2)
C33_3 C 0.7527(10) 0.4939(7) 0.166(2)
H12_3 H 0.7412 0.4909 0.0864
C34_3 C 0.7032(16) 0.4857(11) 0.285(4)
C35_3 C 0.8059(17) 0.5101(12) 0.530(4)
C36_3 C 0.8011(17) 0.5094(12) 0.022(4)
C75_3 C 0.8678(10) 0.7522(8) 0.104(3)
C76_3 C 0.8832(10) 0.7543(7) 0.226(2)
H26_3 H 0.8717 0.7508 0.3061
C77_3 C 0.9156(10) 0.7616(7) 0.228(2)
C78_3 C 0.9326(10) 0.7668(8) 0.109(3)
H27_3 H 0.9542 0.7716 0.1100
C80_3 C 0.9343(16) 0.7712(11) 0.345(5)
C81_3 C 0.8347(16) 0.7499(11) 0.101(5)
Bi14_3 Bi 0.77847(9) 0.75519(5) 0.08253(18)
Bi16_3 Bi 0.91027(7) 0.35355(5) 0.9814(2)
Bi19_3 Bi 0.65127(8) 0.49624(5) 0.31222(17)
O74_3 O 0.7887(13) 0.4999(10) 0.926(3)
O78_3 O 0.8463(11) 0.5810(7) 0.245(3)
O79_3 O 0.8499(15) 0.5924(9) 0.036(3)
O84_3 O 0.8139(10) 0.4585(7) 0.698(3)
O85_3 O 0.8212(10) 0.4624(7) 0.900(3)
O88_3 O 0.9779(12) 0.8435(7) 0.139(3)
O89_3 O 0.9785(12) 0.8500(7) 0.351(3)
O90_3 O 0.9635(10) 0.7810(7) 0.857(3)
O91_3 O 0.9196(10) 0.7654(7) 0.750(3)
H28_3 H 0.98326 0.711562 0.869093
H32_3 H 0.808683 0.56162 0.729863
H33_3 H 0.824802 0.570134 0.878479
H36_3 H 0.835341 0.458396 0.345996
H37_3 H 0.845908 0.446508 0.480048
H38_3 H 0.951795 0.58304 0.206337
H39_3 H 0.946339 0.569251 0.0539638
H40_3 H 0.975357 0.839811 0.697984
H41_3 H 0.975892 0.841287 0.535426
O51_3 O 0.8184(10) 0.7412(7) 0.989(3)
C73_3 C 0.9173(11) 0.7647(8) 0.987(2)
C74_3 C 0.8849(11) 0.7574(8) 0.985(2)
H25_3 H 0.8746 0.7560 0.9035
C79_3 C 0.9361(15) 0.7698(11) 0.863(3)
O21 O 0.4999(10) 0.7112(8) 0.074(3)
O37 O 0.6230(7) 0.4539(8) 0.165(3)
O38 O 0.6447(8) 0.5019(9) 0.058(3)
O49 O 0.7810(7) 0.8175(7) 0.143(3)
O50 O 0.7654(7) 0.8458(7) 0.250(3)
H21_4 H 0.5826 0.4107 0.0022
C61_4 C 0.6307(11) 0.4710(12) 0.058(4)
C73_4 C 0.7647(8) 0.8474(7) 0.013(2)
C74_4 C 0.7574(8) 0.8725(7) 0.015(2)
H25_4 H 0.7560 0.8814 0.0965
C79_4 C 0.7698(11) 0.8337(10) 0.137(3)
Bi12 Bi 0.77323(5) 0.81423(5) 0.39405(18)
O64 O 0.5723(7) 0.6792(8) 0.141(3)
O65 O 0.6179(8) 0.7013(9) 0.027(3)
O66 O 0.6305(8) 0.5835(8) 0.127(3)
O67 O 0.6566(8) 0.5617(8) 0.226(3)
H43_4 H 0.698622 0.620122 0.0686895
Bi5 Bi 0.70970(5) 0.56113(4) 0.64654(16)
Bi8 Bi 0.51865(5) 0.62336(5) 0.54780(18)
O1_4 O 0.7216(7) 0.7818(7) 0.294(3)
O2_4 O 0.7230(7) 0.7745(8) 0.497(3)
O3_4 O 0.6208(7) 0.7051(7) 0.740(3)
O4_4 O 0.5758(7) 0.6739(7) 0.638(3)
O7_4 O 0.5508(8) 0.6003(8) 0.600(3)
O8_4 O 0.5596(8) 0.6200(8) 0.389(3)
O11_4 O 0.6589(8) 0.5645(8) 0.727(3)
O12_4 O 0.6293(9) 0.5807(8) 0.842(3)
O13_4 O 0.4895(8) 0.5818(7) 0.407(3)
O14_4 O 0.5155(8) 0.6252(7) 0.330(3)
O22 O 0.5242(10) 0.6912(9) 0.968(3)
O23_4 O 0.5194(10) 0.6830(9) 0.478(3)
O24_4 O 0.5032(9) 0.7129(8) 0.362(3)
O25_4 O 0.7150(8) 0.6081(8) 0.501(3)
O26_4 O 0.7310(7) 0.6161(7) 0.714(3)
O27 O 0.7495(9) 0.7124(8) 0.939(3)
O28 O 0.7749(7) 0.7606(7) 0.836(3)
O29_4 O 0.7673(7) 0.7560(7) 0.331(3)
O30_4 O 0.7511(7) 0.7106(7) 0.219(3)
O35_4 O 0.7067(7) 0.5519(8) 0.410(3)
O36_4 O 0.7521(8) 0.5763(8) 0.504(3)
O39_4 O 0.6479(8) 0.5025(9) 0.572(3)
O40_4 O 0.6222(8) 0.4538(8) 0.458(3)
O47_4 O 0.8766(8) 0.8307(8) 0.597(3)
O48_4 O 0.8319(8) 0.8104(8) 0.478(3)
O53_4 O 0.7612(8) 0.8442(8) 0.543(3)
O54_4 O 0.7824(7) 0.8188(7) 0.642(3)
O55_4 O 0.8373(11) 0.7693(11) 0.740(3)
O56_4 O 0.8283(9) 0.8647(8) 0.385(4)
O57_4 O 0.7267(10) 0.7485(10) 0.081(3)
O58_4 O 0.6932(10) 0.6113(9) 0.976(4)
O59_4 O 0.7116(8) 0.5098(9) 0.651(3)
O60_4 O 0.5988(8) 0.4951(10) 0.320(3)
O61_4 O 0.5646(7) 0.7371(7) 0.215(3)
O62_4 O 0.4638(9) 0.6215(11) 0.559(4)
O63_4 O 0.5856(10) 0.6401(8) 0.886(4)
C1_4 C 0.6711(5) 0.7416(7) 0.387(3)
C2_4 C 0.6544(7) 0.7279(8) 0.506(2)
H1_4 H 0.6653 0.7346 0.5878
C3_4 C 0.6214(7) 0.7043(8) 0.503(2)
C4_4 C 0.6051(5) 0.6944(7) 0.381(3)
H2_4 H 0.5831 0.6785 0.3788
C5_4 C 0.6218(7) 0.7080(7) 0.262(2)
C6_4 C 0.6548(7) 0.7317(7) 0.265(2)
H3_4 H 0.6659 0.7408 0.1857
C7_4 C 0.7071(7) 0.7660(10) 0.403(5)
C8_4 C 0.6039(11) 0.6926(11) 0.635(3)
C9_4 C 0.6031(13) 0.6943(12) 0.138(5)
C10_4 C 0.5936(7) 0.5973(8) 0.481(3)
C11_4 C 0.6055(7) 0.5927(8) 0.360(2)
H4_4 H 0.5980 0.5964 0.2790
C12_4 C 0.6286(8) 0.5827(8) 0.360(2)
C13_4 C 0.6398(7) 0.5771(9) 0.480(3)
H5_4 H 0.6553 0.5704 0.4802
C14_4 C 0.6279(7) 0.5817(8) 0.601(2)
C15_4 C 0.6048(7) 0.5918(8) 0.601(2)
H6_4 H 0.5969 0.5948 0.6820
C16_4 C 0.5683(10) 0.6079(12) 0.490(5)
C17_4 C 0.6402(11) 0.5759(11) 0.231(5)
C18_4 C 0.6409(11) 0.5768(11) 0.733(3)
C19_4 C 0.4827(7) 0.5798(7) 0.166(2)
C20_4 C 0.4970(6) 0.5952(5) 0.046(3)
H7_4 H 0.5139 0.6168 0.0461
C23_4 C 0.4465(6) 0.5305(5) 0.046(3)
C24_4 C 0.4574(7) 0.5474(7) 0.166(2)
H9_4 H 0.4478 0.5371 0.2467
C25_4 C 0.4956(11) 0.5993(12) 0.295(4)
C27_4 C 0.4174(9) 0.4962(8) 0.034(5)
C28_4 C 0.4901(7) 0.7530(6) 0.712(3)
C29_4 C 0.4946(7) 0.7403(7) 0.593(2)
H10_4 H 0.4920 0.7482 0.5106
C30_4 C 0.5028(7) 0.7159(7) 0.596(2)
C31_4 C 0.5066(7) 0.7041(6) 0.719(3)
H11_4 H 0.5121 0.6878 0.7211
C32_4 C 0.5021(7) 0.7168(7) 0.838(2)
C33_4 C 0.4939(7) 0.7412(7) 0.834(2)
H12_4 H 0.4909 0.7497 0.9136
C34_4 C 0.4857(11) 0.7825(11) 0.715(4)
C35_4 C 0.5101(12) 0.7042(12) 0.470(4)
C36_4 C 0.5094(12) 0.7083(12) 0.978(4)
C37_4 C 0.7362(9) 0.6602(5) 0.588(3)
C38_4 C 0.7409(8) 0.6775(6) 0.706(2)
H13_4 H 0.7378 0.6670 0.7883
C39_4 C 0.7503(8) 0.7104(6) 0.702(2)
C40_4 C 0.7550(10) 0.7261(5) 0.579(3)
H14_4 H 0.7613 0.7482 0.5762
C41_4 C 0.7503(9) 0.7088(6) 0.460(2)
C42_4 C 0.7409(9) 0.6758(6) 0.465(2)
H15_4 H 0.7377 0.6643 0.3854
C43_4 C 0.7267(12) 0.6247(10) 0.605(5)
C44_4 C 0.7599(12) 0.7278(11) 0.827(4)
C45_4 C 0.7534(13) 0.7242(11) 0.335(4)
C46_4 C 0.8020(4) 0.5807(6) 0.140(3)
C47_4 C 0.7842(6) 0.5761(7) 0.023(2)
C48_4 C 0.7517(6) 0.5682(7) 0.030(2)
C49_4 C 0.7369(4) 0.5650(7) 0.154(2)
H17_4 H 0.7151 0.5597 0.1585
C50_4 C 0.7547(5) 0.5696(6) 0.2709(19)
C51_4 C 0.7872(5) 0.5775(6) 0.264(2)
H18_4 H 0.7992 0.5806 0.3422
C52_4 C 0.8369(6) 0.5871(9) 0.141(4)
C54_4 C 0.7367(10) 0.5646(10) 0.394(4)
C55_4 C 0.6174(7) 0.4538(6) 0.924(2)
C56_4 C 0.6316(6) 0.4698(5) 0.805(3)
H19_4 H 0.6485 0.4914 0.8064
C57_4 C 0.6206(6) 0.4534(6) 0.683(2)
C58_4 C 0.5954(6) 0.4211(6) 0.6813(19)
H20_4 H 0.5881 0.4101 0.6000
C59_4 C 0.5812(6) 0.4051(5) 0.801(2)
C60_4 C 0.5922(6) 0.4214(6) 0.922(2)
C62_4 C 0.6321(12) 0.4720(12) 0.575(4)
C63_4 C 0.5499(10) 0.3711(11) 0.802(4)
C64_4 C 0.8813(6) 0.8309(7) 0.121(2)
C65_4 C 0.9140(6) 0.8392(7) 0.123(2)
H22_4 H 0.9254 0.8429 0.0424
C66_4 C 0.9296(5) 0.8417(7) 0.244(2)
C67_4 C 0.9126(6) 0.8360(7) 0.364(2)
H23_4 H 0.9231 0.8377 0.4450
C68_4 C 0.8800(6) 0.8278(7) 0.363(2)
C69_4 C 0.8643(5) 0.8253(7) 0.241(3)
H24_4 H 0.8424 0.8198 0.2406
C70_4 C 0.8626(13) 0.8243(12) 0.490(5)
C72_4 C 0.9638(8) 0.8473(11) 0.254(4)
C75_4 C 0.7522(8) 0.8844(6) 0.896(3)
C76_4 C 0.7543(7) 0.8711(7) 0.774(2)
H26_4 H 0.7508 0.8791 0.6939
C77_4 C 0.7616(7) 0.8460(7) 0.772(2)
C78_4 C 0.7668(8) 0.8342(6) 0.891(3)
H27_4 H 0.7716 0.8174 0.8900
C80_4 C 0.7712(11) 0.8369(11) 0.655(5)
C81_4 C 0.7499(11) 0.9152(11) 0.899(5)
O68 O 0.5194(7) 0.6284(6) 0.801(3)
O69 O 0.4877(8) 0.5835(7) 0.698(3)
O80 O 0.7500(7) 0.5717(8) 0.792(3)
O81 O 0.7053(7) 0.5583(8) 0.909(3)
O86 O 0.8340(8) 0.8105(8) 0.995(3)
O87 O 0.8824(7) 0.8361(7) 0.881(3)
H28_4 H 0.711562 0.728302 0.130907
H30_4 H 0.708714 0.501619 0.744621
H31_4 H 0.733058 0.513966 0.616198
H32_4 H 0.56162 0.752937 0.270137
H33_4 H 0.570134 0.745332 0.121521
H34_4 H 0.593444 0.497228 0.414461
H35_4 H 0.581367 0.474077 0.2824
H36_4 H 0.458396 0.623055 0.654004
H37_4 H 0.446508 0.600599 0.519952
H38_4 H 0.58304 0.631245 0.793663
H39_4 H 0.569251 0.622912 0.946036
H40_4 H 0.839811 0.864454 0.302016
H41_4 H 0.841287 0.865394 0.464574
H42_4 H 0.712186 0.610644 0.936638
H44_4 H 0.832896 0.760033 0.647925
H45_4 H 0.820151 0.75361 0.80197
C21_4 C 0.4861(7) 0.5783(7) 0.926(2)
C22_4 C 0.4608(7) 0.5459(7) 0.926(2)
H8_4 H 0.4535 0.5346 0.8451
C26_4 C 0.4995(10) 0.5951(12) 0.802(5)
H16_4 H 0.7941 0.5783 0.9396
C53_4 C 0.7323(10) 0.5648(9) 0.893(4)
C71_4 C 0.8620(10) 0.8244(12) 0.995(3)
H29_4 H 0.719042 0.74666 0.986935
O37_2 O 0.5461(8) 0.1691(11) 0.165(3)
O38_2 O 0.4981(9) 0.1428(12) 0.058(3)
H21_5 H 0.5893 0.1719 0.0022
C61_5 C 0.5290(12) 0.1597(16) 0.058(4)
O66_2 O 0.4165(8) 0.0470(11) 0.127(3)
O67_2 O 0.4383(8) 0.0949(11) 0.226(3)
H43_5 H 0.379878 0.0785 0.0686895
Bi5_2 Bi 0.43887(4) 0.14857(6) 0.64654(16)
O11_5 O 0.4355(8) 0.0944(11) 0.727(3)
O12_5 O 0.4193(8) 0.0486(12) 0.842(3)
O25_5 O 0.3919(8) 0.1069(11) 0.501(3)
O26_5 O 0.3839(7) 0.1149(10) 0.714(3)
O27_2 O 0.2876(8) 0.0371(12) 0.939(3)
O28_2 O 0.2394(7) 0.0143(10) 0.836(3)
O29_5 O 0.2440(7) 0.0113(10) 0.331(3)
O30_5 O 0.2894(7) 0.0405(10) 0.219(3)
O35_5 O 0.4481(8) 0.1548(11) 0.410(3)
O36_5 O 0.4237(8) 0.1758(11) 0.504(3)
O39_5 O 0.4975(9) 0.1454(12) 0.572(3)
O40_5 O 0.5462(8) 0.1684(11) 0.458(3)
O47_5 O 0.1693(8) 0.0459(11) 0.597(3)
O48_5 O 0.1896(8) 0.0215(11) 0.478(3)
O55_5 O 0.2307(11) 0.0680(16) 0.740(3)
O58_5 O 0.3887(9) 0.0819(13) 0.976(4)
O59_5 O 0.4902(9) 0.2018(12) 0.651(3)
O60_5 O 0.5049(10) 0.1037(13) 0.320(3)
C11_5 C 0.4073(8) 0.0128(11) 0.360(2)
H4_5 H 0.4036 0.0016 0.2790
C12_5 C 0.4173(8) 0.0459(11) 0.360(2)
C13_5 C 0.4229(9) 0.0627(11) 0.480(3)
H5_5 H 0.4296 0.0849 0.4802
C14_5 C 0.4183(8) 0.0462(11) 0.601(2)
C15_5 C 0.4082(8) 0.0130(11) 0.601(2)
H6_5 H 0.4052 0.0021 0.6820
C17_5 C 0.4241(11) 0.0643(16) 0.231(5)
C18_5 C 0.4232(11) 0.0641(16) 0.733(3)
C37_5 C 0.3398(5) 0.0760(10) 0.588(3)
C38_5 C 0.3225(6) 0.0634(10) 0.706(2)
H13_5 H 0.3330 0.0708 0.7883
C39_5 C 0.2896(6) 0.0399(10) 0.702(2)
C40_5 C 0.2739(5) 0.0289(11) 0.579(3)
H14_5 H 0.2518 0.0131 0.5762
C41_5 C 0.2912(6) 0.0415(11) 0.460(2)
C42_5 C 0.3242(6) 0.0651(11) 0.465(2)
H15_5 H 0.3357 0.0734 0.3854
C43_5 C 0.3753(10) 0.1020(16) 0.605(5)
C44_5 C 0.2722(11) 0.0321(16) 0.827(4)
C45_5 C 0.2758(11) 0.0292(17) 0.335(4)
C46_5 C 0.4193(6) 0.2213(7) 0.140(3)
C47_5 C 0.4239(7) 0.2081(9) 0.023(2)
C48_5 C 0.4318(7) 0.1835(9) 0.030(2)
C49_5 C 0.4350(7) 0.1719(8) 0.154(2)
H17_5 H 0.4403 0.1554 0.1585
C50_5 C 0.4304(6) 0.1851(8) 0.2709(19)
C51_5 C 0.4225(6) 0.2097(8) 0.264(2)
H18_5 H 0.4194 0.2186 0.3422
C52_5 C 0.4129(9) 0.2498(11) 0.141(4)
C54_5 C 0.4354(10) 0.1721(14) 0.394(4)
C55_5 C 0.5462(6) 0.1636(9) 0.924(2)
C56_5 C 0.5302(5) 0.1618(8) 0.805(3)
H19_5 H 0.5086 0.1571 0.8064
C57_5 C 0.5466(6) 0.1672(8) 0.683(2)
C58_5 C 0.5789(6) 0.1743(8) 0.6813(19)
H20_5 H 0.5899 0.1780 0.6000
C59_5 C 0.5949(5) 0.1761(8) 0.801(2)
C60_5 C 0.5786(6) 0.1708(8) 0.922(2)
C62_5 C 0.5280(12) 0.1601(17) 0.575(4)
C63_5 C 0.6289(11) 0.1788(15) 0.802(4)
C64_5 C 0.1691(7) 0.0504(9) 0.121(2)
C65_5 C 0.1608(7) 0.0748(9) 0.123(2)
H22_5 H 0.1571 0.0825 0.0424
C66_5 C 0.1583(7) 0.0879(9) 0.244(2)
C67_5 C 0.1640(7) 0.0766(9) 0.364(2)
H23_5 H 0.1623 0.0854 0.4450
C68_5 C 0.1722(7) 0.0522(9) 0.363(2)
C69_5 C 0.1747(7) 0.0390(9) 0.241(3)
H24_5 H 0.1802 0.0226 0.2406
C70_5 C 0.1757(12) 0.0383(18) 0.490(5)
C72_5 C 0.1527(11) 0.1165(14) 0.254(4)
O80_2 O 0.4283(8) 0.1783(11) 0.792(3)
O81_2 O 0.4417(8) 0.1470(11) 0.909(3)
O86_2 O 0.1895(8) 0.0235(11) 0.995(3)
O87_2 O 0.1639(7) 0.0463(10) 0.881(3)
H30_5 H 0.498381 0.207096 0.744621
H31_5 H 0.486034 0.219092 0.616198
H34_5 H 0.502772 0.0962161 0.414461
H35_5 H 0.525923 0.107291 0.2824
H42_5 H 0.389356 0.101542 0.936638
H44_5 H 0.239967 0.0728629 0.647925
H45_5 H 0.24639 0.0665407 0.80197
H16_5 H 0.4217 0.2158 0.9396
C53_5 C 0.4352(9) 0.1675(13) 0.893(4)
C71_5 C 0.1756(12) 0.0376(16) 0.995(3)
O21_2 O 0.2888(8) 0.7887(13) 0.074(3)
O49_2 O 0.1825(7) 0.9635(10) 0.143(3)
O50_2 O 0.1542(7) 0.9196(10) 0.250(3)
C73_5 C 0.1526(7) 0.9173(11) 0.013(2)
C74_5 C 0.1275(7) 0.8849(11) 0.015(2)
H25_5 H 0.1186 0.8746 0.0965
C79_5 C 0.1663(10) 0.9361(15) 0.137(3)
Bi12_2 Bi 0.18577(5) 0.95900(7) 0.39405(18)
O64_2 O 0.3208(8) 0.8931(11) 0.141(3)
O65_2 O 0.2987(9) 0.9166(12) 0.027(3)
Bi8_2 Bi 0.37664(5) 0.89529(7) 0.54780(18)
O1_5 O 0.2182(7) 0.9398(10) 0.294(3)
O2_5 O 0.2255(8) 0.9485(11) 0.497(3)
O3_5 O 0.2949(7) 0.9157(10) 0.740(3)
O4_5 O 0.3261(7) 0.9019(10) 0.638(3)
O7_5 O 0.3997(8) 0.9505(11) 0.600(3)
O8_5 O 0.3800(8) 0.9396(11) 0.389(3)
O13_5 O 0.4182(7) 0.9077(11) 0.407(3)
O14_5 O 0.3748(7) 0.8903(11) 0.330(3)
O22_2 O 0.3088(9) 0.8330(13) 0.968(3)
O23_5 O 0.3170(9) 0.8364(13) 0.478(3)
O24_5 O 0.2871(8) 0.7903(12) 0.362(3)
O53_5 O 0.1558(8) 0.9170(11) 0.543(3)
O54_5 O 0.1812(7) 0.9636(10) 0.642(3)
O56_5 O 0.1353(8) 0.9636(12) 0.385(4)
O57_5 O 0.2515(10) 0.9782(14) 0.081(3)
O61_5 O 0.2629(7) 0.8275(10) 0.215(3)
O62_5 O 0.3785(11) 0.8423(14) 0.559(4)
O63_5 O 0.3599(8) 0.9455(13) 0.886(4)
C1_5 C 0.2584(7) 0.9295(9) 0.387(3)
C2_5 C 0.2721(8) 0.9265(11) 0.506(2)
H1_5 H 0.2654 0.9307 0.5878
C3_5 C 0.2957(8) 0.9171(11) 0.503(2)
C4_5 C 0.3056(7) 0.9107(9) 0.381(3)
H2_5 H 0.3215 0.9046 0.3788
C5_5 C 0.2920(7) 0.9138(10) 0.262(2)
C6_5 C 0.2683(7) 0.9231(10) 0.265(2)
H3_5 H 0.2592 0.9251 0.1857
C7_5 C 0.2340(10) 0.9411(12) 0.403(5)
C8_5 C 0.3074(11) 0.9113(16) 0.635(3)
C9_5 C 0.3057(12) 0.9088(18) 0.138(5)
C10_5 C 0.4027(8) 0.9963(11) 0.481(3)
C16_5 C 0.3921(12) 0.9604(16) 0.490(5)
C19_5 C 0.4202(7) 0.9029(10) 0.166(2)
C20_5 C 0.4048(5) 0.9018(8) 0.046(3)
H7_5 H 0.3832 0.8971 0.0461
C23_5 C 0.4695(5) 0.9160(8) 0.046(3)
C24_5 C 0.4526(7) 0.9100(10) 0.166(2)
H9_5 H 0.4629 0.9107 0.2467
C25_5 C 0.4007(12) 0.8963(16) 0.295(4)
C27_5 C 0.5038(8) 0.9212(12) 0.034(5)
C28_5 C 0.2470(6) 0.7371(9) 0.712(3)
C29_5 C 0.2597(7) 0.7543(10) 0.593(2)
H10_5 H 0.2518 0.7438 0.5106
C30_5 C 0.2841(7) 0.7869(10) 0.596(2)
C31_5 C 0.2959(6) 0.8025(9) 0.719(3)
H11_5 H 0.3122 0.8243 0.7211
C32_5 C 0.2832(7) 0.7853(10) 0.838(2)
C33_5 C 0.2588(7) 0.7527(10) 0.834(2)
H12_5 H 0.2503 0.7412 0.9136
C34_5 C 0.2175(11) 0.7032(16) 0.715(4)
C35_5 C 0.2958(12) 0.8059(17) 0.470(4)
C36_5 C 0.2917(12) 0.8011(17) 0.978(4)
C75_5 C 0.1156(6) 0.8678(10) 0.896(3)
C76_5 C 0.1289(7) 0.8832(10) 0.774(2)
H26_5 H 0.1209 0.8717 0.6939
C77_5 C 0.1540(7) 0.9156(10) 0.772(2)
C78_5 C 0.1658(6) 0.9326(10) 0.891(3)
H27_5 H 0.1826 0.9542 0.8900
C80_5 C 0.1631(11) 0.9343(16) 0.655(5)
C81_5 C 0.0848(11) 0.8347(16) 0.899(5)
O68_2 O 0.3716(6) 0.8910(9) 0.801(3)
O69_2 O 0.4165(7) 0.9042(11) 0.698(3)
H28_5 H 0.271698 0.98326 0.130907
H32_5 H 0.247063 0.808683 0.270137
H33_5 H 0.254668 0.824802 0.121521
H36_5 H 0.376945 0.835341 0.654004
H37_5 H 0.399401 0.845908 0.519952
H38_5 H 0.368755 0.951795 0.793663
H39_5 H 0.377088 0.946339 0.946036
H40_5 H 0.135546 0.975357 0.302016
H41_5 H 0.134606 0.975892 0.464574
C21_5 C 0.4217(7) 0.9078(10) 0.926(2)
C22_5 C 0.4541(7) 0.9149(10) 0.926(2)
H8_5 H 0.4654 0.9189 0.8451
C26_5 C 0.4049(12) 0.9044(16) 0.802(5)
H29_5 H 0.25334 0.972381 0.986935
O21_3 O 0.2113(13) 0.5001(10) 0.074(3)
O49_3 O 0.0365(10) 0.2190(7) 0.143(3)
O50_3 O 0.0804(10) 0.2346(7) 0.250(3)
C73_6 C 0.0827(11) 0.2353(8) 0.013(2)
C74_6 C 0.1151(11) 0.2426(8) 0.015(2)
H25_6 H 0.1254 0.2440 0.0965
C79_6 C 0.0639(15) 0.2302(11) 0.137(3)
Bi12_3 Bi 0.04100(7) 0.22677(5) 0.39405(18)
O64_3 O 0.1069(11) 0.4277(7) 0.141(3)
O65_3 O 0.0834(12) 0.3821(8) 0.027(3)
Bi8_3 Bi 0.10471(7) 0.48135(5) 0.54780(18)
O1_6 O 0.0602(10) 0.2784(7) 0.294(3)
O2_6 O 0.0515(11) 0.2770(7) 0.497(3)
O3_6 O 0.0843(10) 0.3792(7) 0.740(3)
O4_6 O 0.0981(10) 0.4242(7) 0.638(3)
O7_6 O 0.0495(11) 0.4492(8) 0.600(3)
O8_6 O 0.0604(11) 0.4404(8) 0.389(3)
O13_6 O 0.0923(11) 0.5105(8) 0.407(3)
O14_6 O 0.1097(11) 0.4845(8) 0.330(3)
O22_3 O 0.1670(13) 0.4758(10) 0.968(3)
O23_6 O 0.1636(13) 0.4806(10) 0.478(3)
O24_6 O 0.2097(12) 0.4968(9) 0.362(3)
O53_6 O 0.0830(11) 0.2388(8) 0.543(3)
O54_6 O 0.0364(10) 0.2176(7) 0.642(3)
O56_6 O 0.0364(12) 0.1717(9) 0.385(4)
O57_6 O 0.0218(14) 0.2733(10) 0.081(3)
O61_6 O 0.1725(10) 0.4354(7) 0.215(3)
O62_6 O 0.1577(14) 0.5362(9) 0.559(4)
O63_6 O 0.0545(13) 0.4144(10) 0.886(4)
C1_6 C 0.0705(9) 0.3289(5) 0.387(3)
C2_6 C 0.0735(11) 0.3456(7) 0.506(2)
H1_6 H 0.0693 0.3347 0.5878
C3_6 C 0.0829(11) 0.3786(7) 0.503(2)
C4_6 C 0.0893(9) 0.3949(5) 0.381(3)
H2_6 H 0.0954 0.4169 0.3788
C5_6 C 0.0862(10) 0.3782(7) 0.262(2)
C6_6 C 0.0769(10) 0.3452(7) 0.265(2)
H3_6 H 0.0749 0.3341 0.1857
C7_6 C 0.0589(12) 0.2929(7) 0.403(5)
C8_6 C 0.0887(16) 0.3961(11) 0.635(3)
C9_6 C 0.0912(18) 0.3969(13) 0.138(5)
C10_6 C 0.0037(11) 0.4064(7) 0.481(3)
C16_6 C 0.0396(16) 0.4317(10) 0.490(5)
C19_6 C 0.0971(10) 0.5173(7) 0.166(2)
C20_6 C 0.0982(8) 0.5030(6) 0.046(3)
H7_6 H 0.1029 0.4861 0.0461
C23_6 C 0.0840(8) 0.5535(6) 0.046(3)
C24_6 C 0.0900(10) 0.5426(7) 0.166(2)
H9_6 H 0.0893 0.5522 0.2467
C25_6 C 0.1037(16) 0.5044(11) 0.295(4)
C27_6 C 0.0788(12) 0.5826(9) 0.034(5)
C28_6 C 0.2629(9) 0.5099(7) 0.712(3)
C29_6 C 0.2457(10) 0.5054(7) 0.593(2)
H10_6 H 0.2562 0.5080 0.5106
C30_6 C 0.2131(10) 0.4972(7) 0.596(2)
C31_6 C 0.1975(9) 0.4934(7) 0.719(3)
H11_6 H 0.1757 0.4879 0.7211
C32_6 C 0.2147(10) 0.4979(7) 0.838(2)
C33_6 C 0.2473(10) 0.5061(7) 0.834(2)
H12_6 H 0.2588 0.5091 0.9136
C34_6 C 0.2968(16) 0.5143(11) 0.715(4)
C35_6 C 0.1941(17) 0.4899(12) 0.470(4)
C36_6 C 0.1989(17) 0.4906(12) 0.978(4)
C75_6 C 0.1322(10) 0.2478(8) 0.896(3)
C76_6 C 0.1168(10) 0.2457(7) 0.774(2)
H26_6 H 0.1283 0.2492 0.6939
C77_6 C 0.0844(10) 0.2384(7) 0.772(2)
C78_6 C 0.0674(10) 0.2332(8) 0.891(3)
H27_6 H 0.0458 0.2284 0.8900
C80_6 C 0.0657(16) 0.2288(11) 0.655(5)
C81_6 C 0.1653(16) 0.2501(11) 0.899(5)
O68_3 O 0.1090(9) 0.4806(7) 0.801(3)
O69_3 O 0.0958(11) 0.5123(8) 0.698(3)
H28_6 H 0.0167396 0.288438 0.130907
H32_6 H 0.191317 0.43838 0.270137
H33_6 H 0.175198 0.429866 0.121521
H36_6 H 0.164659 0.541604 0.654004
H37_6 H 0.154092 0.553492 0.519952
H38_6 H 0.0482047 0.41696 0.793663
H39_6 H 0.0536611 0.430749 0.946036
H40_6 H 0.0246427 0.160189 0.302016
H41_6 H 0.0241076 0.158713 0.464574
C21_6 C 0.0922(10) 0.5139(7) 0.926(2)
C22_6 C 0.0851(10) 0.5392(7) 0.926(2)
H8_6 H 0.0811 0.5465 0.8451
C26_6 C 0.0956(16) 0.5005(10) 0.802(5)
H29_6 H 0.0276185 0.280958 0.986935
O37_3 O 0.8309(11) 0.3770(7) 0.165(3)
O38_3 O 0.8572(12) 0.3553(8) 0.058(3)
H21_6 H 0.8281 0.4174 0.0022
C61_6 C 0.8403(16) 0.3693(11) 0.058(4)
O66_3 O 0.9530(11) 0.3695(8) 0.127(3)
O67_3 O 0.9051(11) 0.3434(8) 0.226(3)
H43_6 H 0.9215 0.301378 0.0686895
Bi5_3 Bi 0.85143(6) 0.29030(5) 0.64654(16)
O11_6 O 0.9056(11) 0.3411(8) 0.727(3)
O12_6 O 0.9514(12) 0.3707(9) 0.842(3)
O25_6 O 0.8931(11) 0.2850(8) 0.501(3)
O26_6 O 0.8851(10) 0.2690(7) 0.714(3)
O27_3 O 0.9629(12) 0.2505(9) 0.939(3)
O28_3 O 0.9857(10) 0.2251(7) 0.836(3)
O29_6 O 0.9887(10) 0.2327(7) 0.331(3)
O30_6 O 0.9595(10) 0.2489(7) 0.219(3)
O35_6 O 0.8452(11) 0.2933(7) 0.410(3)
O36_6 O 0.8242(11) 0.2479(8) 0.504(3)
O39_6 O 0.8546(12) 0.3521(8) 0.572(3)
O40_6 O 0.8316(11) 0.3778(8) 0.458(3)
O47_6 O 0.9541(11) 0.1234(8) 0.597(3)
O48_6 O 0.9785(11) 0.1681(8) 0.478(3)
O55_6 O 0.9320(16) 0.1627(11) 0.740(3)
O58_6 O 0.9181(13) 0.3068(10) 0.976(4)
O59_6 O 0.7982(12) 0.2884(8) 0.651(3)
O60_6 O 0.8963(13) 0.4012(8) 0.320(3)
C11_6 C 0.9872(11) 0.3945(7) 0.360(2)
H4_6 H 0.9984 0.4020 0.2790
C12_6 C 0.9541(11) 0.3714(8) 0.360(2)
C13_6 C 0.9373(11) 0.3602(7) 0.480(3)
H5_6 H 0.9151 0.3447 0.4802
C14_6 C 0.9538(11) 0.3721(7) 0.601(2)
C15_6 C 0.9870(11) 0.3952(7) 0.601(2)
H6_6 H 0.9979 0.4031 0.6820
C17_6 C 0.9357(16) 0.3598(11) 0.231(5)
C18_6 C 0.9359(16) 0.3591(11) 0.733(3)
C37_6 C 0.9240(10) 0.2638(9) 0.588(3)
C38_6 C 0.9366(10) 0.2591(8) 0.706(2)
H13_6 H 0.9292 0.2622 0.7883
C39_6 C 0.9601(10) 0.2497(8) 0.702(2)
C40_6 C 0.9711(11) 0.2450(10) 0.579(3)
H14_6 H 0.9869 0.2387 0.5762
C41_6 C 0.9585(11) 0.2497(9) 0.460(2)
C42_6 C 0.9349(11) 0.2591(9) 0.465(2)
H15_6 H 0.9266 0.2623 0.3854
C43_6 C 0.8980(16) 0.2733(12) 0.605(5)
C44_6 C 0.9679(16) 0.2401(12) 0.827(4)
C45_6 C 0.9708(17) 0.2466(13) 0.335(4)
C46_6 C 0.7787(7) 0.1980(4) 0.140(3)
C47_6 C 0.7919(9) 0.2158(6) 0.023(2)
C48_6 C 0.8165(9) 0.2483(6) 0.030(2)
C49_6 C 0.8281(8) 0.2631(4) 0.154(2)
H17_6 H 0.8446 0.2849 0.1585
C50_6 C 0.8149(8) 0.2453(5) 0.2709(19)
C51_6 C 0.7903(8) 0.2128(5) 0.264(2)
H18_6 H 0.7814 0.2008 0.3422
C52_6 C 0.7502(11) 0.1631(6) 0.141(4)
C54_6 C 0.8279(14) 0.2633(10) 0.394(4)
C55_6 C 0.8364(9) 0.3826(7) 0.924(2)
C56_6 C 0.8382(8) 0.3684(6) 0.805(3)
H19_6 H 0.8429 0.3515 0.8064
C57_6 C 0.8328(8) 0.3794(6) 0.683(2)
C58_6 C 0.8257(8) 0.4046(6) 0.6813(19)
H20_6 H 0.8220 0.4119 0.6000
C59_6 C 0.8239(8) 0.4188(6) 0.801(2)
C60_6 C 0.8292(8) 0.4078(6) 0.922(2)
C62_6 C 0.8399(17) 0.3679(12) 0.575(4)
C63_6 C 0.8212(15) 0.4501(10) 0.802(4)
C64_6 C 0.9496(9) 0.1187(6) 0.121(2)
C65_6 C 0.9252(9) 0.0860(6) 0.123(2)
H22_6 H 0.9175 0.0746 0.0424
C66_6 C 0.9121(9) 0.0704(5) 0.244(2)
C67_6 C 0.9234(9) 0.0874(6) 0.364(2)
H23_6 H 0.9146 0.0769 0.4450
C68_6 C 0.9478(9) 0.1200(6) 0.363(2)
C69_6 C 0.9610(9) 0.1357(5) 0.241(3)
H24_6 H 0.9774 0.1576 0.2406
C70_6 C 0.9617(18) 0.1374(13) 0.490(5)
C72_6 C 0.8835(14) 0.0362(8) 0.254(4)
O80_3 O 0.8217(11) 0.2500(7) 0.792(3)
O81_3 O 0.8530(11) 0.2947(7) 0.909(3)
O86_3 O 0.9765(11) 0.1660(8) 0.995(3)
O87_3 O 0.9537(10) 0.1176(7) 0.881(3)
H30_6 H 0.792904 0.291286 0.744621
H31_6 H 0.780908 0.266942 0.616198
H34_6 H 0.903784 0.406556 0.414461
H35_6 H 0.892709 0.418633 0.2824
H42_6 H 0.898458 0.287814 0.936638
H44_6 H 0.927137 0.167104 0.647925
H45_6 H 0.933459 0.179849 0.80197
H16_6 H 0.7842 0.2059 0.9396
C53_6 C 0.8325(13) 0.2677(10) 0.893(4)
C71_6 C 0.9624(16) 0.1380(10) 0.995(3)
loop_
_geom_bond_atom_site_label_1
_geom_bond_atom_site_label_2
_geom_bond_site_symmetry_1
_geom_bond_site_symmetry_2
O15 C26 1_555 1_555
O16 C26 1_555 1_555
O33 C53 1_555 1_555
O34 C53 1_555 1_555
O44 C71 1_555 1_555
C22 C21 1_555 1_555
H8 C22 1_555 1_555
C26 C21 1_555 1_555
C71 O43 1_555 1_555
Bi10 O43 1_555 1_555
Bi17 O33 1_555 1_555
Bi22 O15 1_555 1_555
O15 Bi23 1_555 1_555
O16 Bi22 1_555 1_555
O34 Bi15 1_555 1_555
O34 Bi17 1_555 1_555
O44 Bi10 1_555 1_555
Bi23 O75 1_555 1_555
Bi10 O47 1_555 1_555
Bi2 O1 1_555 1_555
Bi3 O29 1_555 1_555
Bi15 O11 1_555 1_555
Bi17 O11 1_555 1_555
Bi6 O35 1_555 1_555
Bi7 O23 1_555 1_555
Bi22 O4 1_555 1_555
Bi23 O3 1_555 1_555
O1 C7 1_555 1_555
O2 Bi2 1_555 1_555
O3 C8 1_555 1_555
O4 Bi23 1_555 1_555
O5 C9 1_555 1_555
O6 C9 1_555 1_555
O7 Bi22 1_555 1_555
O8 Bi22 1_555 1_555
O9 C17 1_555 1_555
O10 C17 1_555 1_555
O11 C18 1_555 1_555
O12 Bi15 1_555 1_555
O13 Bi22 1_555 1_555
O14 Bi22 1_555 1_555
O18 C27 1_555 1_555
O19 C34 1_555 1_555
O20 C34 1_555 1_555
O23 Bi22 1_555 1_555
O24 Bi7 1_555 1_555
O25 Bi17 1_555 1_555
O26 Bi17 1_555 1_555
O76 C44 1_555 1_555
O77 C44 1_555 1_555
O29 Bi2 1_555 1_555
O30 Bi3 1_555 1_555
O31 C52 1_555 1_555
O32 C52 1_555 1_555
O35 Bi17 1_555 1_555
O36 Bi17 1_555 1_555
O39 Bi6 1_555 1_555
O40 Bi6 1_555 1_555
O41 C63 1_555 1_555
O42 C63 1_555 1_555
O45 C72 1_555 1_555
O46 C72 1_555 1_555
O47 C70 1_555 1_555
O48 Bi10 1_555 1_555
O52 C81 1_555 1_555
O53 Bi2 1_555 1_555
O54 Bi10 1_555 1_555
O55 Bi10 1_555 1_555
O56 Bi2 1_555 1_555
O57 Bi3 1_555 1_555
O58 Bi15 1_555 1_555
O59 Bi17 1_555 1_555
O60 Bi6 1_555 1_555
O61 Bi7 1_555 1_555
O62 Bi22 1_555 1_555
O63 Bi23 1_555 1_555
C1 C2 1_555 1_555
C2 H1 1_555 1_555
C3 C2 1_555 1_555
C4 C3 1_555 1_555
H2 C4 1_555 1_555
C5 C4 1_555 1_555
C6 C1 1_555 1_555
H3 C6 1_555 1_555
C7 O2 1_555 1_555
C8 O4 1_555 1_555
C9 C5 1_555 1_555
C10 C11 1_555 1_555
C11 H4 1_555 1_555
C12 C11 1_555 1_555
C13 C12 1_555 1_555
H5 C13 1_555 1_555
C14 C13 1_555 1_555
C15 C10 1_555 1_555
H6 C15 1_555 1_555
C16 O7 1_555 1_555
C17 C12 1_555 1_555
C18 O12 1_555 1_555
C19 C20 1_555 1_555
C20 H7 1_555 1_555
C24 C19 1_555 1_555
H9 C24 1_555 1_555
C25 O13 1_555 1_555
C27 C23 1_555 1_555
C28 C29 1_555 1_555
C29 H10 1_555 1_555
C30 C29 1_555 1_555
C31 C30 1_555 1_555
H11 C31 1_555 1_555
C32 C31 1_555 1_555
C33 C28 1_555 1_555
H12 C33 1_555 1_555
C34 C28 1_555 1_555
C35 O23 1_555 1_555
C36 O75 1_555 1_555
C37 C38 1_555 1_555
C38 H13 1_555 1_555
C39 C38 1_555 1_555
C40 C39 1_555 1_555
H14 C40 1_555 1_555
C41 C40 1_555 1_555
C42 C37 1_555 1_555
H15 C42 1_555 1_555
C43 O25 1_555 1_555
C44 C39 1_555 1_555
C45 O29 1_555 1_555
C46 C47 1_555 1_555
C48 C47 1_555 1_555
C49 C48 1_555 1_555
H17 C49 1_555 1_555
C50 C49 1_555 1_555
C51 C46 1_555 1_555
H18 C51 1_555 1_555
C52 C46 1_555 1_555
C54 O35 1_555 1_555
C55 C56 1_555 1_555
C56 H19 1_555 1_555
C57 C56 1_555 1_555
C58 C57 1_555 1_555
H20 C58 1_555 1_555
C59 C58 1_555 1_555
C60 C55 1_555 1_555
C62 O39 1_555 1_555
C63 C59 1_555 1_555
C64 C65 1_555 1_555
C65 H22 1_555 1_555
C66 C65 1_555 1_555
C67 C66 1_555 1_555
H23 C67 1_555 1_555
C68 C67 1_555 1_555
C69 C64 1_555 1_555
H24 C69 1_555 1_555
C70 O48 1_555 1_555
C72 C66 1_555 1_555
C76 C75 1_555 1_555
H26 C76 1_555 1_555
C77 C76 1_555 1_555
H27 C78 1_555 1_555
C80 O53 1_555 1_555
C81 C75 1_555 1_555
Bi19 O19 1_555 1_555
Bi21 O41 1_555 1_555
Bi24 O31 1_555 1_555
O71 Bi15 1_555 1_555
O72 Bi6 1_555 1_555
O73 Bi6 1_555 1_555
O74 Bi7 1_555 1_555
O78 Bi23 1_555 1_555
O79 Bi23 1_555 1_555
O82 Bi6 1_555 1_555
O83 Bi6 1_555 1_555
O84 Bi7 1_555 1_555
O85 Bi7 1_555 1_555
O88 Bi10 1_555 1_555
O89 Bi10 1_555 1_555
O90 Bi2 1_555 1_555
O91 Bi2 1_555 1_555
O93 Bi3 1_555 1_555
Bi2 O54 1_555 1_555
O8 C16 1_555 1_555
O14 C25 1_555 1_555
O18 Bi16 1_555 1_555
O20 Bi19 1_555 1_555
O24 C35 1_555 1_555
O26 C43 1_555 1_555
O30 C45 1_555 1_555
O32 Bi24 1_555 1_555
O36 C54 1_555 1_555
O40 C62 1_555 1_555
O42 Bi21 1_555 1_555
O52 Bi14 1_555 1_555
O54 C80 1_555 1_555
C1 C7 1_555 1_555
C3 C8 1_555 1_555
C5 C6 1_555 1_555
C10 C16 1_555 1_555
C14 C15 1_555 1_555
C14 C18 1_555 1_555
C19 C25 1_555 1_555
C23 C24 1_555 1_555
C30 C35 1_555 1_555
C32 C33 1_555 1_555
C32 C36 1_555 1_555
C37 C43 1_555 1_555
C41 C42 1_555 1_555
C41 C45 1_555 1_555
C50 C51 1_555 1_555
C50 C54 1_555 1_555
C57 C62 1_555 1_555
C59 C60 1_555 1_555
C68 C69 1_555 1_555
C68 C70 1_555 1_555
C77 C78 1_555 1_555
C77 C80 1_555 1_555
O57 H28 1_555 1_555
O59 H30 1_555 1_555
O59 H31 1_555 1_555
O61 H32 1_555 1_555
O61 H33 1_555 1_555
O60 H34 1_555 1_555
O60 H35 1_555 1_555
O62 H36 1_555 1_555
O62 H37 1_555 1_555
O63 H38 1_555 1_555
O63 H39 1_555 1_555
O56 H40 1_555 1_555
O56 H41 1_555 1_555
O58 H42 1_555 1_555
O55 H44 1_555 1_555
O55 H45 1_555 1_555
O82 C61 1_555 1_555
O90 C79 1_555 1_555
O91 C79 1_555 1_555
C61 O83 1_555 1_555
C73 C74 1_555 1_555
C74 H25 1_555 1_555
C79 C73 1_555 1_555
O15_2 C26_2 1_555 1_555
O16_2 C26_2 1_555 1_555
C22_2 C21_2 1_555 1_555
H8_2 C22_2 1_555 1_555
C26_2 C21_2 1_555 1_555
Bi22_2 O15_2 1_555 1_555
O15_2 Bi23_2 1_555 1_555
O16_2 Bi22_2 1_555 1_555
Bi23_2 O75_2 1_555 1_555
Bi2_2 O1_2 1_555 1_555
Bi7_2 O23_2 1_555 1_555
Bi22_2 O4_2 1_555 1_555
Bi23_2 O3_2 1_555 1_555
O1_2 C7_2 1_555 1_555
O2_2 Bi2_2 1_555 1_555
O3_2 C8_2 1_555 1_555
O4_2 Bi23_2 1_555 1_555
O5_2 C9_2 1_555 1_555
O6_2 C9_2 1_555 1_555
O7_2 Bi22_2 1_555 1_555
O8_2 Bi22_2 1_555 1_555
O13_2 Bi22_2 1_555 1_555
O14_2 Bi22_2 1_555 1_555
O18_2 C27_2 1_555 1_555
O19_2 C34_2 1_555 1_555
O20_2 C34_2 1_555 1_555
O23_2 Bi22_2 1_555 1_555
O24_2 Bi7_2 1_555 1_555
O52_2 C81_2 1_555 1_555
O53_2 Bi2_2 1_555 1_555
O56_2 Bi2_2 1_555 1_555
O61_2 Bi7_2 1_555 1_555
O62_2 Bi22_2 1_555 1_555
O63_2 Bi23_2 1_555 1_555
C1_2 C2_2 1_555 1_555
C2_2 H1_2 1_555 1_555
C3_2 C2_2 1_555 1_555
C4_2 C3_2 1_555 1_555
H2_2 C4_2 1_555 1_555
C5_2 C4_2 1_555 1_555
C6_2 C1_2 1_555 1_555
H3_2 C6_2 1_555 1_555
C7_2 O2_2 1_555 1_555
C8_2 O4_2 1_555 1_555
C9_2 C5_2 1_555 1_555
C16_2 O7_2 1_555 1_555
C19_2 C20_2 1_555 1_555
C20_2 H7_2 1_555 1_555
C24_2 C19_2 1_555 1_555
H9_2 C24_2 1_555 1_555
C25_2 O13_2 1_555 1_555
C27_2 C23_2 1_555 1_555
C28_2 C29_2 1_555 1_555
C29_2 H10_2 1_555 1_555
C30_2 C29_2 1_555 1_555
C31_2 C30_2 1_555 1_555
H11_2 C31_2 1_555 1_555
C32_2 C31_2 1_555 1_555
C33_2 C28_2 1_555 1_555
H12_2 C33_2 1_555 1_555
C34_2 C28_2 1_555 1_555
C35_2 O23_2 1_555 1_555
C36_2 O75_2 1_555 1_555
C76_2 C75_2 1_555 1_555
H26_2 C76_2 1_555 1_555
C77_2 C76_2 1_555 1_555
H27_2 C78_2 1_555 1_555
C80_2 O53_2 1_555 1_555
C81_2 C75_2 1_555 1_555
Bi19_2 O19_2 1_555 1_555
O74_2 Bi7_2 1_555 1_555
O78_2 Bi23_2 1_555 1_555
O79_2 Bi23_2 1_555 1_555
O84_2 Bi7_2 1_555 1_555
O85_2 Bi7_2 1_555 1_555
O90_2 Bi2_2 1_555 1_555
O91_2 Bi2_2 1_555 1_555
Bi2_2 O54_2 1_555 1_555
O8_2 C16_2 1_555 1_555
O14_2 C25_2 1_555 1_555
O18_2 Bi16_2 1_555 1_555
O20_2 Bi19_2 1_555 1_555
O24_2 C35_2 1_555 1_555
O52_2 Bi14_2 1_555 1_555
O54_2 C80_2 1_555 1_555
C1_2 C7_2 1_555 1_555
C3_2 C8_2 1_555 1_555
C5_2 C6_2 1_555 1_555
C10_2 C16_2 1_555 1_555
C19_2 C25_2 1_555 1_555
C23_2 C24_2 1_555 1_555
C30_2 C35_2 1_555 1_555
C32_2 C33_2 1_555 1_555
C32_2 C36_2 1_555 1_555
C77_2 C78_2 1_555 1_555
C77_2 C80_2 1_555 1_555
O57_2 H28_2 1_555 1_555
O61_2 H32_2 1_555 1_555
O61_2 H33_2 1_555 1_555
O62_2 H36_2 1_555 1_555
O62_2 H37_2 1_555 1_555
O63_2 H38_2 1_555 1_555
O63_2 H39_2 1_555 1_555
O56_2 H40_2 1_555 1_555
O56_2 H41_2 1_555 1_555
O90_2 C79_2 1_555 1_555
O91_2 C79_2 1_555 1_555
C73_2 C74_2 1_555 1_555
C74_2 H25_2 1_555 1_555
C79_2 C73_2 1_555 1_555
O33_2 C53_2 1_555 1_555
O34_2 C53_2 1_555 1_555
O44_2 C71_2 1_555 1_555
C71_2 O43_2 1_555 1_555
Bi10_2 O43_2 1_555 1_555
Bi17_2 O33_2 1_555 1_555
O34_2 Bi15_2 1_555 1_555
O34_2 Bi17_2 1_555 1_555
O44_2 Bi10_2 1_555 1_555
Bi10_2 O47_2 1_555 1_555
Bi3_2 O29_2 1_555 1_555
Bi15_2 O11_2 1_555 1_555
Bi17_2 O11_2 1_555 1_555
Bi6_2 O35_2 1_555 1_555
O9_2 C17_2 1_555 1_555
O10_2 C17_2 1_555 1_555
O11_2 C18_2 1_555 1_555
O12_2 Bi15_2 1_555 1_555
O25_2 Bi17_2 1_555 1_555
O26_2 Bi17_2 1_555 1_555
O76_2 C44_2 1_555 1_555
O77_2 C44_2 1_555 1_555
O30_2 Bi3_2 1_555 1_555
O31_2 C52_2 1_555 1_555
O32_2 C52_2 1_555 1_555
O35_2 Bi17_2 1_555 1_555
O36_2 Bi17_2 1_555 1_555
O39_2 Bi6_2 1_555 1_555
O40_2 Bi6_2 1_555 1_555
O41_2 C63_2 1_555 1_555
O42_2 C63_2 1_555 1_555
O45_2 C72_2 1_555 1_555
O46_2 C72_2 1_555 1_555
O47_2 C70_2 1_555 1_555
O48_2 Bi10_2 1_555 1_555
O55_2 Bi10_2 1_555 1_555
O58_2 Bi15_2 1_555 1_555
O59_2 Bi17_2 1_555 1_555
O60_2 Bi6_2 1_555 1_555
C11_2 H4_2 1_555 1_555
C12_2 C11_2 1_555 1_555
C13_2 C12_2 1_555 1_555
H5_2 C13_2 1_555 1_555
C14_2 C13_2 1_555 1_555
H6_2 C15_2 1_555 1_555
C17_2 C12_2 1_555 1_555
C18_2 O12_2 1_555 1_555
C37_2 C38_2 1_555 1_555
C38_2 H13_2 1_555 1_555
C39_2 C38_2 1_555 1_555
C40_2 C39_2 1_555 1_555
H14_2 C40_2 1_555 1_555
C41_2 C40_2 1_555 1_555
C42_2 C37_2 1_555 1_555
H15_2 C42_2 1_555 1_555
C43_2 O25_2 1_555 1_555
C44_2 C39_2 1_555 1_555
C45_2 O29_2 1_555 1_555
C46_2 C47_2 1_555 1_555
C48_2 C47_2 1_555 1_555
C49_2 C48_2 1_555 1_555
H17_2 C49_2 1_555 1_555
C50_2 C49_2 1_555 1_555
C51_2 C46_2 1_555 1_555
H18_2 C51_2 1_555 1_555
C52_2 C46_2 1_555 1_555
C54_2 O35_2 1_555 1_555
C55_2 C56_2 1_555 1_555
C56_2 H19_2 1_555 1_555
C57_2 C56_2 1_555 1_555
C58_2 C57_2 1_555 1_555
H20_2 C58_2 1_555 1_555
C59_2 C58_2 1_555 1_555
C60_2 C55_2 1_555 1_555
C62_2 O39_2 1_555 1_555
C63_2 C59_2 1_555 1_555
C64_2 C65_2 1_555 1_555
C65_2 H22_2 1_555 1_555
C66_2 C65_2 1_555 1_555
C67_2 C66_2 1_555 1_555
H23_2 C67_2 1_555 1_555
C68_2 C67_2 1_555 1_555
C69_2 C64_2 1_555 1_555
H24_2 C69_2 1_555 1_555
C70_2 O48_2 1_555 1_555
C72_2 C66_2 1_555 1_555
Bi11_2 O45_2 1_555 1_555
Bi21_2 O41_2 1_555 1_555
Bi24_2 O31_2 1_555 1_555
O71_2 Bi15_2 1_555 1_555
O72_2 Bi6_2 1_555 1_555
O73_2 Bi6_2 1_555 1_555
O82_2 Bi6_2 1_555 1_555
O83_2 Bi6_2 1_555 1_555
O93_2 Bi3_2 1_555 1_555
O26_2 C43_2 1_555 1_555
O30_2 C45_2 1_555 1_555
O32_2 Bi24_2 1_555 1_555
O36_2 C54_2 1_555 1_555
O40_2 C62_2 1_555 1_555
O42_2 Bi21_2 1_555 1_555
O46_2 Bi11_2 1_555 1_555
C14_2 C15_2 1_555 1_555
C14_2 C18_2 1_555 1_555
C37_2 C43_2 1_555 1_555
C41_2 C42_2 1_555 1_555
C41_2 C45_2 1_555 1_555
C50_2 C51_2 1_555 1_555
C50_2 C54_2 1_555 1_555
C57_2 C62_2 1_555 1_555
C59_2 C60_2 1_555 1_555
C68_2 C69_2 1_555 1_555
C68_2 C70_2 1_555 1_555
O59_2 H30_2 1_555 1_555
O59_2 H31_2 1_555 1_555
O60_2 H34_2 1_555 1_555
O60_2 H35_2 1_555 1_555
O58_2 H42_2 1_555 1_555
O55_2 H44_2 1_555 1_555
O55_2 H45_2 1_555 1_555
O82_2 C61_2 1_555 1_555
C61_2 O83_2 1_555 1_555
O33_3 C53_3 1_555 1_555
O34_3 C53_3 1_555 1_555
O44_3 C71_3 1_555 1_555
C71_3 O43_3 1_555 1_555
Bi10_3 O43_3 1_555 1_555
Bi17_3 O33_3 1_555 1_555
O34_3 Bi15_3 1_555 1_555
O34_3 Bi17_3 1_555 1_555
O44_3 Bi10_3 1_555 1_555
Bi10_3 O47_3 1_555 1_555
Bi3_3 O29_3 1_555 1_555
Bi15_3 O11_3 1_555 1_555
Bi17_3 O11_3 1_555 1_555
Bi6_3 O35_3 1_555 1_555
O9_3 C17_3 1_555 1_555
O10_3 C17_3 1_555 1_555
O11_3 C18_3 1_555 1_555
O12_3 Bi15_3 1_555 1_555
O25_3 Bi17_3 1_555 1_555
O26_3 Bi17_3 1_555 1_555
O76_3 C44_3 1_555 1_555
O77_3 C44_3 1_555 1_555
O30_3 Bi3_3 1_555 1_555
O31_3 C52_3 1_555 1_555
O32_3 C52_3 1_555 1_555
O35_3 Bi17_3 1_555 1_555
O36_3 Bi17_3 1_555 1_555
O39_3 Bi6_3 1_555 1_555
O40_3 Bi6_3 1_555 1_555
O41_3 C63_3 1_555 1_555
O42_3 C63_3 1_555 1_555
O45_3 C72_3 1_555 1_555
O46_3 C72_3 1_555 1_555
O47_3 C70_3 1_555 1_555
O48_3 Bi10_3 1_555 1_555
O55_3 Bi10_3 1_555 1_555
O58_3 Bi15_3 1_555 1_555
O59_3 Bi17_3 1_555 1_555
O60_3 Bi6_3 1_555 1_555
C11_3 H4_3 1_555 1_555
C12_3 C11_3 1_555 1_555
C13_3 C12_3 1_555 1_555
H5_3 C13_3 1_555 1_555
C14_3 C13_3 1_555 1_555
H6_3 C15_3 1_555 1_555
C17_3 C12_3 1_555 1_555
C18_3 O12_3 1_555 1_555
C37_3 C38_3 1_555 1_555
C38_3 H13_3 1_555 1_555
C39_3 C38_3 1_555 1_555
C40_3 C39_3 1_555 1_555
H14_3 C40_3 1_555 1_555
C41_3 C40_3 1_555 1_555
C42_3 C37_3 1_555 1_555
H15_3 C42_3 1_555 1_555
C43_3 O25_3 1_555 1_555
C44_3 C39_3 1_555 1_555
C45_3 O29_3 1_555 1_555
C46_3 C47_3 1_555 1_555
C48_3 C47_3 1_555 1_555
C49_3 C48_3 1_555 1_555
H17_3 C49_3 1_555 1_555
C50_3 C49_3 1_555 1_555
C51_3 C46_3 1_555 1_555
H18_3 C51_3 1_555 1_555
C52_3 C46_3 1_555 1_555
C54_3 O35_3 1_555 1_555
C55_3 C56_3 1_555 1_555
C56_3 H19_3 1_555 1_555
C57_3 C56_3 1_555 1_555
C58_3 C57_3 1_555 1_555
H20_3 C58_3 1_555 1_555
C59_3 C58_3 1_555 1_555
C60_3 C55_3 1_555 1_555
C62_3 O39_3 1_555 1_555
C63_3 C59_3 1_555 1_555
C64_3 C65_3 1_555 1_555
C65_3 H22_3 1_555 1_555
C66_3 C65_3 1_555 1_555
C67_3 C66_3 1_555 1_555
H23_3 C67_3 1_555 1_555
C68_3 C67_3 1_555 1_555
C69_3 C64_3 1_555 1_555
H24_3 C69_3 1_555 1_555
C70_3 O48_3 1_555 1_555
C72_3 C66_3 1_555 1_555
Bi21_3 O41_3 1_555 1_555
Bi24_3 O31_3 1_555 1_555
O71_3 Bi15_3 1_555 1_555
O72_3 Bi6_3 1_555 1_555
O73_3 Bi6_3 1_555 1_555
O82_3 Bi6_3 1_555 1_555
O83_3 Bi6_3 1_555 1_555
O93_3 Bi3_3 1_555 1_555
O26_3 C43_3 1_555 1_555
O30_3 C45_3 1_555 1_555
O32_3 Bi24_3 1_555 1_555
O36_3 C54_3 1_555 1_555
O40_3 C62_3 1_555 1_555
O42_3 Bi21_3 1_555 1_555
C14_3 C15_3 1_555 1_555
C14_3 C18_3 1_555 1_555
C37_3 C43_3 1_555 1_555
C41_3 C42_3 1_555 1_555
C41_3 C45_3 1_555 1_555
C50_3 C51_3 1_555 1_555
C50_3 C54_3 1_555 1_555
C57_3 C62_3 1_555 1_555
C59_3 C60_3 1_555 1_555
C68_3 C69_3 1_555 1_555
C68_3 C70_3 1_555 1_555
O59_3 H30_3 1_555 1_555
O59_3 H31_3 1_555 1_555
O60_3 H34_3 1_555 1_555
O60_3 H35_3 1_555 1_555
O58_3 H42_3 1_555 1_555
O55_3 H44_3 1_555 1_555
O55_3 H45_3 1_555 1_555
O82_3 C61_3 1_555 1_555
C61_3 O83_3 1_555 1_555
O15_3 C26_3 1_555 1_555
O16_3 C26_3 1_555 1_555
C22_3 C21_3 1_555 1_555
H8_3 C22_3 1_555 1_555
C26_3 C21_3 1_555 1_555
Bi22_3 O15_3 1_555 1_555
O15_3 Bi23_3 1_555 1_555
O16_3 Bi22_3 1_555 1_555
Bi23_3 O75_3 1_555 1_555
Bi2_3 O1_3 1_555 1_555
Bi7_3 O23_3 1_555 1_555
Bi22_3 O4_3 1_555 1_555
Bi23_3 O3_3 1_555 1_555
O1_3 C7_3 1_555 1_555
O2_3 Bi2_3 1_555 1_555
O3_3 C8_3 1_555 1_555
O4_3 Bi23_3 1_555 1_555
O5_3 C9_3 1_555 1_555
O6_3 C9_3 1_555 1_555
O7_3 Bi22_3 1_555 1_555
O8_3 Bi22_3 1_555 1_555
O13_3 Bi22_3 1_555 1_555
O14_3 Bi22_3 1_555 1_555
O18_3 C27_3 1_555 1_555
O19_3 C34_3 1_555 1_555
O20_3 C34_3 1_555 1_555
O23_3 Bi22_3 1_555 1_555
O24_3 Bi7_3 1_555 1_555
O52_3 C81_3 1_555 1_555
O53_3 Bi2_3 1_555 1_555
O56_3 Bi2_3 1_555 1_555
O61_3 Bi7_3 1_555 1_555
O62_3 Bi22_3 1_555 1_555
O63_3 Bi23_3 1_555 1_555
C1_3 C2_3 1_555 1_555
C2_3 H1_3 1_555 1_555
C3_3 C2_3 1_555 1_555
C4_3 C3_3 1_555 1_555
H2_3 C4_3 1_555 1_555
C5_3 C4_3 1_555 1_555
C6_3 C1_3 1_555 1_555
H3_3 C6_3 1_555 1_555
C7_3 O2_3 1_555 1_555
C8_3 O4_3 1_555 1_555
C9_3 C5_3 1_555 1_555
C16_3 O7_3 1_555 1_555
C19_3 C20_3 1_555 1_555
C20_3 H7_3 1_555 1_555
C24_3 C19_3 1_555 1_555
H9_3 C24_3 1_555 1_555
C25_3 O13_3 1_555 1_555
C27_3 C23_3 1_555 1_555
C28_3 C29_3 1_555 1_555
C29_3 H10_3 1_555 1_555
C30_3 C29_3 1_555 1_555
C31_3 C30_3 1_555 1_555
H11_3 C31_3 1_555 1_555
C32_3 C31_3 1_555 1_555
C33_3 C28_3 1_555 1_555
H12_3 C33_3 1_555 1_555
C34_3 C28_3 1_555 1_555
C35_3 O23_3 1_555 1_555
C36_3 O75_3 1_555 1_555
C76_3 C75_3 1_555 1_555
H26_3 C76_3 1_555 1_555
C77_3 C76_3 1_555 1_555
H27_3 C78_3 1_555 1_555
C80_3 O53_3 1_555 1_555
C81_3 C75_3 1_555 1_555
Bi19_3 O19_3 1_555 1_555
O74_3 Bi7_3 1_555 1_555
O78_3 Bi23_3 1_555 1_555
O79_3 Bi23_3 1_555 1_555
O84_3 Bi7_3 1_555 1_555
O85_3 Bi7_3 1_555 1_555
O90_3 Bi2_3 1_555 1_555
O91_3 Bi2_3 1_555 1_555
Bi2_3 O54_3 1_555 1_555
O8_3 C16_3 1_555 1_555
O14_3 C25_3 1_555 1_555
O18_3 Bi16_3 1_555 1_555
O20_3 Bi19_3 1_555 1_555
O24_3 C35_3 1_555 1_555
O52_3 Bi14_3 1_555 1_555
O54_3 C80_3 1_555 1_555
C1_3 C7_3 1_555 1_555
C3_3 C8_3 1_555 1_555
C5_3 C6_3 1_555 1_555
C10_3 C16_3 1_555 1_555
C19_3 C25_3 1_555 1_555
C23_3 C24_3 1_555 1_555
C30_3 C35_3 1_555 1_555
C32_3 C33_3 1_555 1_555
C32_3 C36_3 1_555 1_555
C77_3 C78_3 1_555 1_555
C77_3 C80_3 1_555 1_555
O57_3 H28_3 1_555 1_555
O61_3 H32_3 1_555 1_555
O61_3 H33_3 1_555 1_555
O62_3 H36_3 1_555 1_555
O62_3 H37_3 1_555 1_555
O63_3 H38_3 1_555 1_555
O63_3 H39_3 1_555 1_555
O56_3 H40_3 1_555 1_555
O56_3 H41_3 1_555 1_555
O90_3 C79_3 1_555 1_555
O91_3 C79_3 1_555 1_555
C73_3 C74_3 1_555 1_555
C74_3 H25_3 1_555 1_555
C79_3 C73_3 1_555 1_555
O37 C61_4 1_555 1_555
O49 C79_4 1_555 1_555
O50 C79_4 1_555 1_555
C61_4 O38 1_555 1_555
C73_4 C74_4 1_555 1_555
C74_4 H25_4 1_555 1_555
C79_4 C73_4 1_555 1_555
Bi12 O49 1_555 1_555
Bi19_3 O37 1_555 1_555
Bi21 O21 1_555 1_555
O38 Bi19_3 1_555 1_555
O50 Bi12 1_555 1_555
Bi11_2 O47_4 1_555 1_555
Bi12 O1_4 1_555 1_555
Bi14_3 O29_4 1_555 1_555
Bi16 O11_4 1_555 1_555
Bi5 O11_4 1_555 1_555
Bi19_3 O35_4 1_555 1_555
Bi21 O23_4 1_555 1_555
Bi8 O4_4 1_555 1_555
Bi24_2 O3_4 1_555 1_555
O1_4 C7_4 1_555 1_555
O2_4 Bi12 1_555 1_555
O3_4 C8_4 1_555 1_555
O4_4 Bi24_2 1_555 1_555
O64 C9_4 1_555 1_555
O65 C9_4 1_555 1_555
O7_4 Bi8 1_555 1_555
O8_4 Bi8 1_555 1_555
O66 C17_4 1_555 1_555
O67 C17_4 1_555 1_555
O11_4 C18_4 1_555 1_555
O12_4 Bi16 1_555 1_555
O13_4 Bi8 1_555 1_555
O14_4 Bi8 1_555 1_555
O71 C27_4 1_555 1_555
O72_2 C34_4 1_555 1_555
O73_2 C34_4 1_555 1_555
O22 Bi24_2 1_555 1_555
O23_4 Bi8 1_555 1_555
O24_4 Bi21 1_555 1_555
O25_4 Bi5 1_555 1_555
O26_4 Bi5 1_555 1_555
O27 C44_4 1_555 1_555
O28 C44_4 1_555 1_555
O29_4 Bi12 1_555 1_555
O30_4 Bi14_3 1_555 1_555
O78_3 C52_4 1_555 1_555
O79_3 C52_4 1_555 1_555
O35_4 Bi5 1_555 1_555
O36_4 Bi5 1_555 1_555
O39_4 Bi19_3 1_555 1_555
O40_4 Bi19_3 1_555 1_555
O84 C63_4 1_555 1_555
O85 C63_4 1_555 1_555
O88_3 C72_4 1_555 1_555
O89_3 C72_4 1_555 1_555
O47_4 C70_4 1_555 1_555
O48_4 Bi11_2 1_555 1_555
O93_2 C81_4 1_555 1_555
O53_4 Bi12 1_555 1_555
O54_4 Bi11_2 1_555 1_555
O55_4 Bi11_2 1_555 1_555
O56_4 Bi12 1_555 1_555
O57_4 Bi14_3 1_555 1_555
O58_4 Bi16 1_555 1_555
O59_4 Bi5 1_555 1_555
O60_4 Bi19_3 1_555 1_555
O61_4 Bi21 1_555 1_555
O62_4 Bi8 1_555 1_555
O63_4 Bi24_2 1_555 1_555
C1_4 C2_4 1_555 1_555
C2_4 H1_4 1_555 1_555
C3_4 C2_4 1_555 1_555
C4_4 C3_4 1_555 1_555
H2_4 C4_4 1_555 1_555
C5_4 C4_4 1_555 1_555
C6_4 C1_4 1_555 1_555
H3_4 C6_4 1_555 1_555
C7_4 O2_4 1_555 1_555
C8_4 O4_4 1_555 1_555
C9_4 C5_4 1_555 1_555
C10_4 C11_4 1_555 1_555
C11_4 H4_4 1_555 1_555
C12_4 C11_4 1_555 1_555
C13_4 C12_4 1_555 1_555
H5_4 C13_4 1_555 1_555
C14_4 C13_4 1_555 1_555
C15_4 C10_4 1_555 1_555
H6_4 C15_4 1_555 1_555
C16_4 O7_4 1_555 1_555
C17_4 C12_4 1_555 1_555
C18_4 O12_4 1_555 1_555
C19_4 C20_4 1_555 1_555
C20_4 H7_4 1_555 1_555
C24_4 C19_4 1_555 1_555
H9_4 C24_4 1_555 1_555
C25_4 O13_4 1_555 1_555
C27_4 C23_4 1_555 1_555
C28_4 C29_4 1_555 1_555
C29_4 H10_4 1_555 1_555
C30_4 C29_4 1_555 1_555
C31_4 C30_4 1_555 1_555
H11_4 C31_4 1_555 1_555
C32_4 C31_4 1_555 1_555
C33_4 C28_4 1_555 1_555
H12_4 C33_4 1_555 1_555
C34_4 C28_4 1_555 1_555
C35_4 O23_4 1_555 1_555
C36_4 O22 1_555 1_555
C37_4 C38_4 1_555 1_555
C38_4 H13_4 1_555 1_555
C39_4 C38_4 1_555 1_555
C40_4 C39_4 1_555 1_555
H14_4 C40_4 1_555 1_555
C41_4 C40_4 1_555 1_555
C42_4 C37_4 1_555 1_555
H15_4 C42_4 1_555 1_555
C43_4 O25_4 1_555 1_555
C44_4 C39_4 1_555 1_555
C45_4 O29_4 1_555 1_555
C46_4 C47_4 1_555 1_555
C48_4 C47_4 1_555 1_555
C49_4 C48_4 1_555 1_555
H17_4 C49_4 1_555 1_555
C50_4 C49_4 1_555 1_555
C51_4 C46_4 1_555 1_555
H18_4 C51_4 1_555 1_555
C52_4 C46_4 1_555 1_555
C54_4 O35_4 1_555 1_555
C55_4 C56_4 1_555 1_555
C56_4 H19_4 1_555 1_555
C57_4 C56_4 1_555 1_555
C58_4 C57_4 1_555 1_555
H20_4 C58_4 1_555 1_555
C59_4 C58_4 1_555 1_555
C60_4 C55_4 1_555 1_555
C62_4 O39_4 1_555 1_555
C63_4 C59_4 1_555 1_555
C64_4 C65_4 1_555 1_555
C65_4 H22_4 1_555 1_555
C66_4 C65_4 1_555 1_555
C67_4 C66_4 1_555 1_555
H23_4 C67_4 1_555 1_555
C68_4 C67_4 1_555 1_555
C69_4 C64_4 1_555 1_555
H24_4 C69_4 1_555 1_555
C70_4 O48_4 1_555 1_555
C72_4 C66_4 1_555 1_555
C76_4 C75_4 1_555 1_555
H26_4 C76_4 1_555 1_555
C77_4 C76_4 1_555 1_555
H27_4 C78_4 1_555 1_555
C80_4 O53_4 1_555 1_555
C81_4 C75_4 1_555 1_555
O68 Bi8 1_555 1_555
O69 Bi8 1_555 1_555
O80 Bi5 1_555 1_555
O81 Bi16 1_555 1_555
O86 Bi11_2 1_555 1_555
O87 Bi11_2 1_555 1_555
Bi12 O54_4 1_555 1_555
Bi5 O81 1_555 1_555
Bi24_2 O68 1_555 1_555
O8_4 C16_4 1_555 1_555
O14_4 C25_4 1_555 1_555
O24_4 C35_4 1_555 1_555
O26_4 C43_4 1_555 1_555
O30_4 C45_4 1_555 1_555
O36_4 C54_4 1_555 1_555
O40_4 C62_4 1_555 1_555
O54_4 C80_4 1_555 1_555
C1_4 C7_4 1_555 1_555
C3_4 C8_4 1_555 1_555
C5_4 C6_4 1_555 1_555
C10_4 C16_4 1_555 1_555
C14_4 C15_4 1_555 1_555
C14_4 C18_4 1_555 1_555
C19_4 C25_4 1_555 1_555
C23_4 C24_4 1_555 1_555
C30_4 C35_4 1_555 1_555
C32_4 C33_4 1_555 1_555
C32_4 C36_4 1_555 1_555
C37_4 C43_4 1_555 1_555
C41_4 C42_4 1_555 1_555
C41_4 C45_4 1_555 1_555
C50_4 C51_4 1_555 1_555
C50_4 C54_4 1_555 1_555
C57_4 C62_4 1_555 1_555
C59_4 C60_4 1_555 1_555
C68_4 C69_4 1_555 1_555
C68_4 C70_4 1_555 1_555
C77_4 C78_4 1_555 1_555
C77_4 C80_4 1_555 1_555
O57_4 H28_4 1_555 1_555
O59_4 H30_4 1_555 1_555
O59_4 H31_4 1_555 1_555
O61_4 H32_4 1_555 1_555
O61_4 H33_4 1_555 1_555
O60_4 H34_4 1_555 1_555
O60_4 H35_4 1_555 1_555
O62_4 H36_4 1_555 1_555
O62_4 H37_4 1_555 1_555
O63_4 H38_4 1_555 1_555
O63_4 H39_4 1_555 1_555
O56_4 H40_4 1_555 1_555
O56_4 H41_4 1_555 1_555
O58_4 H42_4 1_555 1_555
O55_4 H44_4 1_555 1_555
O55_4 H45_4 1_555 1_555
O68 C26_4 1_555 1_555
O69 C26_4 1_555 1_555
O80 C53_4 1_555 1_555
O81 C53_4 1_555 1_555
O87 C71_4 1_555 1_555
C22_4 C21_4 1_555 1_555
H8_4 C22_4 1_555 1_555
C26_4 C21_4 1_555 1_555
C71_4 O86 1_555 1_555
O37_2 C61_5 1_555 1_555
C61_5 O38_2 1_555 1_555
Bi19 O37_2 1_555 1_555
O38_2 Bi19 1_555 1_555
Bi11_3 O47_5 1_555 1_555
Bi14 O29_5 1_555 1_555
Bi16_2 O11_5 1_555 1_555
Bi5_2 O11_5 1_555 1_555
Bi19 O35_5 1_555 1_555
O66_2 C17_5 1_555 1_555
O67_2 C17_5 1_555 1_555
O11_5 C18_5 1_555 1_555
O12_5 Bi16_2 1_555 1_555
O25_5 Bi5_2 1_555 1_555
O26_5 Bi5_2 1_555 1_555
O27_2 C44_5 1_555 1_555
O28_2 C44_5 1_555 1_555
O30_5 Bi14 1_555 1_555
O78 C52_5 1_555 1_555
O79 C52_5 1_555 1_555
O35_5 Bi5_2 1_555 1_555
O36_5 Bi5_2 1_555 1_555
O39_5 Bi19 1_555 1_555
O40_5 Bi19 1_555 1_555
O84_2 C63_5 1_555 1_555
O85_2 C63_5 1_555 1_555
O88 C72_5 1_555 1_555
O89 C72_5 1_555 1_555
O47_5 C70_5 1_555 1_555
O48_5 Bi11_3 1_555 1_555
O55_5 Bi11_3 1_555 1_555
O58_5 Bi16_2 1_555 1_555
O59_5 Bi5_2 1_555 1_555
O60_5 Bi19 1_555 1_555
C11_5 H4_5 1_555 1_555
C12_5 C11_5 1_555 1_555
C13_5 C12_5 1_555 1_555
H5_5 C13_5 1_555 1_555
C14_5 C13_5 1_555 1_555
H6_5 C15_5 1_555 1_555
C17_5 C12_5 1_555 1_555
C18_5 O12_5 1_555 1_555
C37_5 C38_5 1_555 1_555
C38_5 H13_5 1_555 1_555
C39_5 C38_5 1_555 1_555
C40_5 C39_5 1_555 1_555
H14_5 C40_5 1_555 1_555
C41_5 C40_5 1_555 1_555
C42_5 C37_5 1_555 1_555
H15_5 C42_5 1_555 1_555
C43_5 O25_5 1_555 1_555
C44_5 C39_5 1_555 1_555
C45_5 O29_5 1_555 1_555
C46_5 C47_5 1_555 1_555
C48_5 C47_5 1_555 1_555
C49_5 C48_5 1_555 1_555
H17_5 C49_5 1_555 1_555
C50_5 C49_5 1_555 1_555
C51_5 C46_5 1_555 1_555
H18_5 C51_5 1_555 1_555
C52_5 C46_5 1_555 1_555
C54_5 O35_5 1_555 1_555
C55_5 C56_5 1_555 1_555
C56_5 H19_5 1_555 1_555
C57_5 C56_5 1_555 1_555
C58_5 C57_5 1_555 1_555
H20_5 C58_5 1_555 1_555
C59_5 C58_5 1_555 1_555
C60_5 C55_5 1_555 1_555
C62_5 O39_5 1_555 1_555
C63_5 C59_5 1_555 1_555
C64_5 C65_5 1_555 1_555
C65_5 H22_5 1_555 1_555
C66_5 C65_5 1_555 1_555
C67_5 C66_5 1_555 1_555
H23_5 C67_5 1_555 1_555
C68_5 C67_5 1_555 1_555
C69_5 C64_5 1_555 1_555
H24_5 C69_5 1_555 1_555
C70_5 O48_5 1_555 1_555
C72_5 C66_5 1_555 1_555
O80_2 Bi5_2 1_555 1_555
O81_2 Bi16_2 1_555 1_555
O86_2 Bi11_3 1_555 1_555
O87_2 Bi11_3 1_555 1_555
Bi5_2 O81_2 1_555 1_555
O26_5 C43_5 1_555 1_555
O30_5 C45_5 1_555 1_555
O36_5 C54_5 1_555 1_555
O40_5 C62_5 1_555 1_555
C14_5 C15_5 1_555 1_555
C14_5 C18_5 1_555 1_555
C37_5 C43_5 1_555 1_555
C41_5 C42_5 1_555 1_555
C41_5 C45_5 1_555 1_555
C50_5 C51_5 1_555 1_555
C50_5 C54_5 1_555 1_555
C57_5 C62_5 1_555 1_555
C59_5 C60_5 1_555 1_555
C68_5 C69_5 1_555 1_555
C68_5 C70_5 1_555 1_555
O59_5 H30_5 1_555 1_555
O59_5 H31_5 1_555 1_555
O60_5 H34_5 1_555 1_555
O60_5 H35_5 1_555 1_555
O58_5 H42_5 1_555 1_555
O55_5 H44_5 1_555 1_555
O55_5 H45_5 1_555 1_555
O80_2 C53_5 1_555 1_555
O81_2 C53_5 1_555 1_555
O87_2 C71_5 1_555 1_555
C71_5 O86_2 1_555 1_555
O49_2 C79_5 1_555 1_555
O50_2 C79_5 1_555 1_555
C73_5 C74_5 1_555 1_555
C74_5 H25_5 1_555 1_555
C79_5 C73_5 1_555 1_555
Bi12_2 O49_2 1_555 1_555
Bi21_2 O21_2 1_555 1_555
O50_2 Bi12_2 1_555 1_555
Bi12_2 O1_5 1_555 1_555
Bi21_2 O23_5 1_555 1_555
Bi8_2 O4_5 1_555 1_555
Bi24_3 O3_5 1_555 1_555
O1_5 C7_5 1_555 1_555
O2_5 Bi12_2 1_555 1_555
O3_5 C8_5 1_555 1_555
O4_5 Bi24_3 1_555 1_555
O64_2 C9_5 1_555 1_555
O65_2 C9_5 1_555 1_555
O7_5 Bi8_2 1_555 1_555
O8_5 Bi8_2 1_555 1_555
O13_5 Bi8_2 1_555 1_555
O14_5 Bi8_2 1_555 1_555
O71_2 C27_5 1_555 1_555
O72_3 C34_5 1_555 1_555
O73_3 C34_5 1_555 1_555
O22_2 Bi24_3 1_555 1_555
O23_5 Bi8_2 1_555 1_555
O24_5 Bi21_2 1_555 1_555
O93_3 C81_5 1_555 1_555
O53_5 Bi12_2 1_555 1_555
O56_5 Bi12_2 1_555 1_555
O61_5 Bi21_2 1_555 1_555
O62_5 Bi8_2 1_555 1_555
O63_5 Bi24_3 1_555 1_555
C1_5 C2_5 1_555 1_555
C2_5 H1_5 1_555 1_555
C3_5 C2_5 1_555 1_555
C4_5 C3_5 1_555 1_555
H2_5 C4_5 1_555 1_555
C5_5 C4_5 1_555 1_555
C6_5 C1_5 1_555 1_555
H3_5 C6_5 1_555 1_555
C7_5 O2_5 1_555 1_555
C8_5 O4_5 1_555 1_555
C9_5 C5_5 1_555 1_555
C16_5 O7_5 1_555 1_555
C19_5 C20_5 1_555 1_555
C20_5 H7_5 1_555 1_555
C24_5 C19_5 1_555 1_555
H9_5 C24_5 1_555 1_555
C25_5 O13_5 1_555 1_555
C27_5 C23_5 1_555 1_555
C28_5 C29_5 1_555 1_555
C29_5 H10_5 1_555 1_555
C30_5 C29_5 1_555 1_555
C31_5 C30_5 1_555 1_555
H11_5 C31_5 1_555 1_555
C32_5 C31_5 1_555 1_555
C33_5 C28_5 1_555 1_555
H12_5 C33_5 1_555 1_555
C34_5 C28_5 1_555 1_555
C35_5 O23_5 1_555 1_555
C36_5 O22_2 1_555 1_555
C76_5 C75_5 1_555 1_555
H26_5 C76_5 1_555 1_555
C77_5 C76_5 1_555 1_555
H27_5 C78_5 1_555 1_555
C80_5 O53_5 1_555 1_555
C81_5 C75_5 1_555 1_555
O68_2 Bi8_2 1_555 1_555
O69_2 Bi8_2 1_555 1_555
Bi12_2 O54_5 1_555 1_555
Bi24_3 O68_2 1_555 1_555
O8_5 C16_5 1_555 1_555
O14_5 C25_5 1_555 1_555
O24_5 C35_5 1_555 1_555
O54_5 C80_5 1_555 1_555
C1_5 C7_5 1_555 1_555
C3_5 C8_5 1_555 1_555
C5_5 C6_5 1_555 1_555
C10_5 C16_5 1_555 1_555
C19_5 C25_5 1_555 1_555
C23_5 C24_5 1_555 1_555
C30_5 C35_5 1_555 1_555
C32_5 C33_5 1_555 1_555
C32_5 C36_5 1_555 1_555
C77_5 C78_5 1_555 1_555
C77_5 C80_5 1_555 1_555
O57_5 H28_5 1_555 1_555
O61_5 H32_5 1_555 1_555
O61_5 H33_5 1_555 1_555
O62_5 H36_5 1_555 1_555
O62_5 H37_5 1_555 1_555
O63_5 H38_5 1_555 1_555
O63_5 H39_5 1_555 1_555
O56_5 H40_5 1_555 1_555
O56_5 H41_5 1_555 1_555
O68_2 C26_5 1_555 1_555
O69_2 C26_5 1_555 1_555
C22_5 C21_5 1_555 1_555
H8_5 C22_5 1_555 1_555
C26_5 C21_5 1_555 1_555
O49_3 C79_6 1_555 1_555
O50_3 C79_6 1_555 1_555
C73_6 C74_6 1_555 1_555
C74_6 H25_6 1_555 1_555
C79_6 C73_6 1_555 1_555
Bi12_3 O49_3 1_555 1_555
Bi21_3 O21_3 1_555 1_555
O50_3 Bi12_3 1_555 1_555
Bi12_3 O1_6 1_555 1_555
Bi21_3 O23_6 1_555 1_555
Bi8_3 O4_6 1_555 1_555
Bi24 O3_6 1_555 1_555
O1_6 C7_6 1_555 1_555
O2_6 Bi12_3 1_555 1_555
O3_6 C8_6 1_555 1_555
O4_6 Bi24 1_555 1_555
O64_3 C9_6 1_555 1_555
O65_3 C9_6 1_555 1_555
O7_6 Bi8_3 1_555 1_555
O8_6 Bi8_3 1_555 1_555
O13_6 Bi8_3 1_555 1_555
O14_6 Bi8_3 1_555 1_555
O71_3 C27_6 1_555 1_555
O72 C34_6 1_555 1_555
O73 C34_6 1_555 1_555
O22_3 Bi24 1_555 1_555
O23_6 Bi8_3 1_555 1_555
O24_6 Bi21_3 1_555 1_555
O93 C81_6 1_555 1_555
O53_6 Bi12_3 1_555 1_555
O56_6 Bi12_3 1_555 1_555
O61_6 Bi21_3 1_555 1_555
O62_6 Bi8_3 1_555 1_555
O63_6 Bi24 1_555 1_555
C1_6 C2_6 1_555 1_555
C2_6 H1_6 1_555 1_555
C3_6 C2_6 1_555 1_555
C4_6 C3_6 1_555 1_555
H2_6 C4_6 1_555 1_555
C5_6 C4_6 1_555 1_555
C6_6 C1_6 1_555 1_555
H3_6 C6_6 1_555 1_555
C7_6 O2_6 1_555 1_555
C8_6 O4_6 1_555 1_555
C9_6 C5_6 1_555 1_555
C16_6 O7_6 1_555 1_555
C19_6 C20_6 1_555 1_555
C20_6 H7_6 1_555 1_555
C24_6 C19_6 1_555 1_555
H9_6 C24_6 1_555 1_555
C25_6 O13_6 1_555 1_555
C27_6 C23_6 1_555 1_555
C28_6 C29_6 1_555 1_555
C29_6 H10_6 1_555 1_555
C30_6 C29_6 1_555 1_555
C31_6 C30_6 1_555 1_555
H11_6 C31_6 1_555 1_555
C32_6 C31_6 1_555 1_555
C33_6 C28_6 1_555 1_555
H12_6 C33_6 1_555 1_555
C34_6 C28_6 1_555 1_555
C35_6 O23_6 1_555 1_555
C36_6 O22_3 1_555 1_555
C76_6 C75_6 1_555 1_555
H26_6 C76_6 1_555 1_555
C77_6 C76_6 1_555 1_555
H27_6 C78_6 1_555 1_555
C80_6 O53_6 1_555 1_555
C81_6 C75_6 1_555 1_555
O68_3 Bi8_3 1_555 1_555
O69_3 Bi8_3 1_555 1_555
Bi12_3 O54_6 1_555 1_555
Bi24 O68_3 1_555 1_555
O8_6 C16_6 1_555 1_555
O14_6 C25_6 1_555 1_555
O24_6 C35_6 1_555 1_555
O54_6 C80_6 1_555 1_555
C1_6 C7_6 1_555 1_555
C3_6 C8_6 1_555 1_555
C5_6 C6_6 1_555 1_555
C10_6 C16_6 1_555 1_555
C19_6 C25_6 1_555 1_555
C23_6 C24_6 1_555 1_555
C30_6 C35_6 1_555 1_555
C32_6 C33_6 1_555 1_555
C32_6 C36_6 1_555 1_555
C77_6 C78_6 1_555 1_555
C77_6 C80_6 1_555 1_555
O57_6 H28_6 1_555 1_555
O61_6 H32_6 1_555 1_555
O61_6 H33_6 1_555 1_555
O62_6 H36_6 1_555 1_555
O62_6 H37_6 1_555 1_555
O63_6 H38_6 1_555 1_555
O63_6 H39_6 1_555 1_555
O56_6 H40_6 1_555 1_555
O56_6 H41_6 1_555 1_555
O68_3 C26_6 1_555 1_555
O69_3 C26_6 1_555 1_555
C22_6 C21_6 1_555 1_555
H8_6 C22_6 1_555 1_555
C26_6 C21_6 1_555 1_555
O37_3 C61_6 1_555 1_555
C61_6 O38_3 1_555 1_555
Bi19_2 O37_3 1_555 1_555
O38_3 Bi19_2 1_555 1_555
Bi11 O47_6 1_555 1_555
Bi14_2 O29_6 1_555 1_555
Bi16_3 O11_6 1_555 1_555
Bi5_3 O11_6 1_555 1_555
Bi19_2 O35_6 1_555 1_555
O66_3 C17_6 1_555 1_555
O67_3 C17_6 1_555 1_555
O11_6 C18_6 1_555 1_555
O12_6 Bi16_3 1_555 1_555
O25_6 Bi5_3 1_555 1_555
O26_6 Bi5_3 1_555 1_555
O27_3 C44_6 1_555 1_555
O28_3 C44_6 1_555 1_555
O30_6 Bi14_2 1_555 1_555
O78_2 C52_6 1_555 1_555
O79_2 C52_6 1_555 1_555
O35_6 Bi5_3 1_555 1_555
O36_6 Bi5_3 1_555 1_555
O39_6 Bi19_2 1_555 1_555
O40_6 Bi19_2 1_555 1_555
O84_3 C63_6 1_555 1_555
O85_3 C63_6 1_555 1_555
O88_2 C72_6 1_555 1_555
O89_2 C72_6 1_555 1_555
O47_6 C70_6 1_555 1_555
O48_6 Bi11 1_555 1_555
O55_6 Bi11 1_555 1_555
O58_6 Bi16_3 1_555 1_555
O59_6 Bi5_3 1_555 1_555
O60_6 Bi19_2 1_555 1_555
C11_6 H4_6 1_555 1_555
C12_6 C11_6 1_555 1_555
C13_6 C12_6 1_555 1_555
H5_6 C13_6 1_555 1_555
C14_6 C13_6 1_555 1_555
H6_6 C15_6 1_555 1_555
C17_6 C12_6 1_555 1_555
C18_6 O12_6 1_555 1_555
C37_6 C38_6 1_555 1_555
C38_6 H13_6 1_555 1_555
C39_6 C38_6 1_555 1_555
C40_6 C39_6 1_555 1_555
H14_6 C40_6 1_555 1_555
C41_6 C40_6 1_555 1_555
C42_6 C37_6 1_555 1_555
H15_6 C42_6 1_555 1_555
C43_6 O25_6 1_555 1_555
C44_6 C39_6 1_555 1_555
C45_6 O29_6 1_555 1_555
C46_6 C47_6 1_555 1_555
C48_6 C47_6 1_555 1_555
C49_6 C48_6 1_555 1_555
H17_6 C49_6 1_555 1_555
C50_6 C49_6 1_555 1_555
C51_6 C46_6 1_555 1_555
H18_6 C51_6 1_555 1_555
C52_6 C46_6 1_555 1_555
C54_6 O35_6 1_555 1_555
C55_6 C56_6 1_555 1_555
C56_6 H19_6 1_555 1_555
C57_6 C56_6 1_555 1_555
C58_6 C57_6 1_555 1_555
H20_6 C58_6 1_555 1_555
C59_6 C58_6 1_555 1_555
C60_6 C55_6 1_555 1_555
C62_6 O39_6 1_555 1_555
C63_6 C59_6 1_555 1_555
C64_6 C65_6 1_555 1_555
C65_6 H22_6 1_555 1_555
C66_6 C65_6 1_555 1_555
C67_6 C66_6 1_555 1_555
H23_6 C67_6 1_555 1_555
C68_6 C67_6 1_555 1_555
C69_6 C64_6 1_555 1_555
H24_6 C69_6 1_555 1_555
C70_6 O48_6 1_555 1_555
C72_6 C66_6 1_555 1_555
O80_3 Bi5_3 1_555 1_555
O81_3 Bi16_3 1_555 1_555
O86_3 Bi11 1_555 1_555
O87_3 Bi11 1_555 1_555
Bi5_3 O81_3 1_555 1_555
O26_6 C43_6 1_555 1_555
O30_6 C45_6 1_555 1_555
O36_6 C54_6 1_555 1_555
O40_6 C62_6 1_555 1_555
C14_6 C15_6 1_555 1_555
C14_6 C18_6 1_555 1_555
C37_6 C43_6 1_555 1_555
C41_6 C42_6 1_555 1_555
C41_6 C45_6 1_555 1_555
C50_6 C51_6 1_555 1_555
C50_6 C54_6 1_555 1_555
C57_6 C62_6 1_555 1_555
C59_6 C60_6 1_555 1_555
C68_6 C69_6 1_555 1_555
C68_6 C70_6 1_555 1_555
O59_6 H30_6 1_555 1_555
O59_6 H31_6 1_555 1_555
O60_6 H34_6 1_555 1_555
O60_6 H35_6 1_555 1_555
O58_6 H42_6 1_555 1_555
O55_6 H44_6 1_555 1_555
O55_6 H45_6 1_555 1_555
O80_3 C53_6 1_555 1_555
O81_3 C53_6 1_555 1_555
O87_3 C71_6 1_555 1_555
C71_6 O86_3 1_555 1_555

#END
