
###############################################################################
#
# This file contains modified crystal structure data generated from the
# MOF subset of the Cambridge Structural Database (CSD) v543 
# hosted by the Cambridge Crystallographic Data Centre (CCDC).
#
# This work is licensed under the Creative Commons
# Attribution-NonCommercial-ShareAlike 4.0 International License.
# To view a copy of this license, visit
# http://creativecommons.org/licenses/by-nc-sa/4.0/
# or send a letter to
# Creative Commons, PO Box 1866, Mountain View, CA 94042, USA.
#
# CIF created using the CSD Python API on 29 September 2022
# The structure has been converted into the P1 space group
# The structure has a 3D framework
# The original CSD entry MAHCEG is in the cubic crystal system
# The original CSD entry MAHCEG is in a Sohncke space group
# The framework has been calculated to contain at least 10.0% void space
# The void calculation uses a probe of radius 1.32A, grid spacing 0.4
#
###############################################################################

data_MAHCEG
_chemical_formula_moiety         '(C504 H264 Cu24 N24 O194 Zn32)n'
_symmetry_cell_setting           triclinic
_symmetry_space_group_name_H-M   'P 1'
_symmetry_Int_Tables_number      1
_space_group_name_Hall           'P 1'
loop_
_symmetry_equiv_pos_site_id
_symmetry_equiv_pos_as_xyz
1 x,y,z
_cell_length_a                   33.7553(4)
_cell_length_b                   33.7553(4)
_cell_length_c                   33.7553(4)
_cell_angle_alpha                90
_cell_angle_beta                 90
_cell_angle_gamma                90
_cell_volume                     38461.5
loop_
_atom_site_label
_atom_site_type_symbol
_atom_site_fract_x
_atom_site_fract_y
_atom_site_fract_z
Zn1 Zn 0.22596(2) 0.26854(2) 0.30169(2)
Zn2 Zn 0.22066(2) 0.22066(2) 0.22066(2)
C1 C 0.15514(17) 0.2236(2) 0.2760(2)
C2 C 0.11436(17) 0.2107(2) 0.2871(2)
C3 C 0.0962(2) 0.2263(3) 0.3196(3)
H1 H 0.1095 0.2456 0.3340
C4 C 0.0586(3) 0.2148(4) 0.3322(4)
H2 H 0.0465 0.2265 0.3540
C5 C 0.0403(2) 0.1849(3) 0.3108(3)
C6 C 0.0574(3) 0.1700(4) 0.2780(4)
H3 H 0.0437 0.1514 0.2630
C7 C 0.0954(2) 0.1819(3) 0.2659(3)
H4 H 0.1074 0.1704 0.2440
C8 C 0.00471(19) 0.1394(3) 0.3550(3)
C9 C 0.0391(2) 0.1257(3) 0.3716(3)
H5 H 0.0634 0.1354 0.3627
C10 C 0.0382(2) 0.0980(3) 0.4010(3)
H6 H 0.0620 0.0892 0.4118
C11 C 0.0031(2) 0.0827(2) 0.4153(2)
C20 C 0.0020(2) 0.05213(19) 0.44687(19)
N1 N 0.00364(17) 0.1685(3) 0.3251(3)
O1 O 0.25372(11) 0.25372(11) 0.25372(11)
O2 O 0.17244(13) 0.24622(17) 0.29942(17)
O3 O 0.16890(14) 0.21035(18) 0.24417(17)
O6 O 0.03484(12) 0.04125(16) 0.46011(15)
Cu2 Cu 0.03881(3) 0.0000 0.5000
O18 O 0.10326(19) 0.0000 0.5000
H23 H 0.1114 0.0221 0.4939
Zn6 Zn 0.30169(2) 0.22596(2) 0.26854(2)
C64 C 0.2760(2) 0.15514(17) 0.2236(2)
C65 C 0.2871(2) 0.11436(17) 0.2107(2)
C66 C 0.3196(3) 0.0962(2) 0.2263(3)
H35 H 0.3340 0.1095 0.2456
C67 C 0.3322(4) 0.0586(3) 0.2148(4)
H36 H 0.3540 0.0465 0.2265
C68 C 0.3108(3) 0.0403(2) 0.1849(3)
C69 C 0.2780(4) 0.0574(3) 0.1700(4)
H37 H 0.2630 0.0437 0.1514
C70 C 0.2659(3) 0.0954(2) 0.1819(3)
H38 H 0.2440 0.1074 0.1704
C71 C 0.3550(3) 0.00471(19) 0.1394(3)
C72 C 0.3716(3) 0.0391(2) 0.1257(3)
H39 H 0.3627 0.0634 0.1354
C73 C 0.4010(3) 0.0382(2) 0.0980(3)
H40 H 0.4118 0.0620 0.0892
C74 C 0.4153(2) 0.0031(2) 0.0827(2)
C83 C 0.44687(19) 0.0020(2) 0.05213(19)
N4 N 0.3251(3) 0.00364(17) 0.1685(3)
O26 O 0.29942(17) 0.17244(13) 0.24622(17)
O27 O 0.24417(17) 0.16890(14) 0.21035(18)
O30 O 0.46011(15) 0.03484(12) 0.04125(16)
C96 C 0.03185(19) 0.0967(3) 0.6013(3)
H53 H 0.0560 0.0873 0.5921
C97 C 0.0311(2) 0.1240(4) 0.6309(3)
C98 C 0.06764(19) 0.1648(4) 0.6741(3)
C99 C 0.03243(18) 0.1833(3) 0.6876(3)
C100 C 0.0360(2) 0.2131(3) 0.7155(3)
H54 H 0.0133 0.2247 0.7259
C101 C 0.07317(19) 0.2260(3) 0.7282(3)
H55 H 0.0752 0.2469 0.7459
C102 C 0.10698(18) 0.2076(3) 0.7143(3)
C103 C 0.10424(19) 0.1778(3) 0.6865(3)
H56 H 0.1271 0.1665 0.6762
C105 C 0.14762(18) 0.2196(3) 0.7272(2)
O36 O 0.06689(14) 0.1347(3) 0.6470(3)
O37 O 0.03142(12) 0.04004(16) 0.54198(16)
O39 O 0.17521(12) 0.19759(19) 0.71652(17)
O40 O 0.15031(13) 0.24993(17) 0.74940(18)
Zn9 Zn 0.26854(2) 0.30169(2) 0.22596(2)
Zn15 Zn 0.19831(2) 0.27404(2) 0.76854(2)
Zn19 Zn 0.23146(2) 0.19831(2) 0.72596(2)
Cu6 Cu 0.5000 0.03881(3) 0.0000
O50 O 0.21035(18) 0.24417(17) 0.16890(14)
O58 O 0.21652(17) 0.32479(12) 0.30241(19)
O60 O 0.30241(19) 0.21652(17) 0.32479(12)
O61 O 0.34969(13) 0.25007(17) 0.24940(18)
O65 O 0.25007(17) 0.24940(18) 0.34969(13)
Cu6_2 Cu 0.5000 0.03881(3) 1.0000
Cu2_2 Cu 0.03881(3) 1.0000 0.5000
C33 C 0.03185(19) 0.9033(3) 0.3987(3)
H19 H 0.0560 0.9127 0.4079
C34 C 0.0311(2) 0.8760(4) 0.3691(3)
C35 C 0.06764(19) 0.8352(4) 0.3259(3)
C36 C 0.03243(18) 0.8167(3) 0.3124(3)
C37 C 0.0360(2) 0.7869(3) 0.2845(3)
H20 H 0.0133 0.7753 0.2741
C38 C 0.07317(19) 0.7740(3) 0.2718(3)
H21 H 0.0752 0.7531 0.2541
C39 C 0.10698(18) 0.7924(3) 0.2857(3)
C40 C 0.10424(19) 0.8222(3) 0.3135(3)
H22 H 0.1271 0.8335 0.3238
C42 C 0.14762(18) 0.7804(3) 0.2728(2)
O13 O 0.06689(14) 0.8653(3) 0.3530(3)
O14 O 0.03142(12) 0.95996(16) 0.45802(16)
O16 O 0.17521(12) 0.80241(19) 0.28348(17)
O17 O 0.15031(13) 0.75007(17) 0.25060(18)
O18_2 O 0.10326(19) 1.0000 0.5000
H24 H 0.1114 0.9779 0.5061
Zn5 Zn 0.22596(2) 0.73146(2) 0.69831(2)
C43 C 0.15514(17) 0.7764(2) 0.7240(2)
C44 C 0.11436(17) 0.7893(2) 0.7129(2)
C45 C 0.0962(2) 0.7737(3) 0.6804(3)
H25 H 0.1095 0.7544 0.6660
C46 C 0.0586(3) 0.7852(4) 0.6678(4)
H26 H 0.0465 0.7735 0.6460
C47 C 0.0403(2) 0.8151(3) 0.6892(3)
C48 C 0.0574(3) 0.8300(4) 0.7220(4)
H27 H 0.0437 0.8486 0.7370
C49 C 0.0954(2) 0.8181(3) 0.7341(3)
H28 H 0.1074 0.8296 0.7560
C50 C 0.00471(19) 0.8606(3) 0.6450(3)
C51 C 0.0391(2) 0.8743(3) 0.6284(3)
H29 H 0.0634 0.8646 0.6373
C52 C 0.0382(2) 0.9020(3) 0.5990(3)
H30 H 0.0620 0.9108 0.5882
C53 C 0.0031(2) 0.9173(2) 0.5847(2)
C62 C 0.0020(2) 0.94787(19) 0.55313(19)
N3 N 0.00364(17) 0.8315(3) 0.6749(3)
O19 O 0.17244(13) 0.75378(17) 0.70058(17)
O20 O 0.16890(14) 0.78965(18) 0.75583(17)
O23 O 0.03484(12) 0.95875(16) 0.53989(15)
Cu3 Cu 0.5000 0.96119(3) 0.0000
C75 C 0.3987(3) 0.96815(19) 0.0967(3)
H41 H 0.4079 0.9440 0.0873
C76 C 0.3691(3) 0.9689(2) 0.1240(4)
C77 C 0.3259(3) 0.93236(19) 0.1648(4)
C78 C 0.3124(3) 0.96757(18) 0.1833(3)
C79 C 0.2845(3) 0.9640(2) 0.2131(3)
H42 H 0.2741 0.9867 0.2247
C80 C 0.2718(3) 0.92683(19) 0.2260(3)
H43 H 0.2541 0.9248 0.2469
C81 C 0.2857(3) 0.89302(18) 0.2076(3)
C82 C 0.3135(3) 0.89576(19) 0.1778(3)
H44 H 0.3238 0.8729 0.1665
C84 C 0.2728(2) 0.85238(18) 0.2196(3)
O28 O 0.3530(3) 0.93311(14) 0.1347(3)
O29 O 0.45802(16) 0.96858(12) 0.04004(16)
O31 O 0.28348(17) 0.82479(12) 0.19759(19)
O32 O 0.25060(18) 0.84969(13) 0.24993(17)
O33 O 0.5000 0.89674(19) 0.0000
H46 H 0.5061 0.8886 0.0221
Zn13 Zn 0.27404(2) 0.76854(2) 0.19831(2)
Zn16 Zn 0.19831(2) 0.72596(2) 0.23146(2)
Zn18 Zn 0.23146(2) 0.80169(2) 0.27404(2)
Zn21 Zn 0.22066(2) 0.77934(2) 0.77934(2)
O48 O 0.25372(11) 0.74628(11) 0.74628(11)
O54 O 0.53989(15) 0.96516(12) 0.04125(16)
O57 O 0.21652(17) 0.67521(12) 0.69759(19)
O64 O 0.25007(17) 0.75060(18) 0.65031(13)
Cu3_2 Cu 0.5000 0.96119(3) 1.0000
O33_2 O 0.5000 0.89674(19) 1.0000
H45 H 0.4939 0.8886 0.9779
O52 O 0.54198(16) 0.96858(12) 0.95996(16)
O53 O 0.46011(15) 0.96516(12) 0.95875(16)
Cu1 Cu 0.96119(3) 0.0000 0.5000
C12 C 0.96815(19) 0.0967(3) 0.3987(3)
H7 H 0.9440 0.0873 0.4079
C13 C 0.9689(2) 0.1240(4) 0.3691(3)
C14 C 0.93236(19) 0.1648(4) 0.3259(3)
C15 C 0.96757(18) 0.1833(3) 0.3124(3)
C16 C 0.9640(2) 0.2131(3) 0.2845(3)
H8 H 0.9867 0.2247 0.2741
C17 C 0.92683(19) 0.2260(3) 0.2718(3)
H9 H 0.9248 0.2469 0.2541
C18 C 0.89302(18) 0.2076(3) 0.2857(3)
C19 C 0.89576(19) 0.1778(3) 0.3135(3)
H10 H 0.8729 0.1665 0.3238
C21 C 0.85238(18) 0.2196(3) 0.2728(2)
O4 O 0.93311(14) 0.1347(3) 0.3530(3)
O5 O 0.96858(12) 0.04004(16) 0.45802(16)
O7 O 0.82479(12) 0.19759(19) 0.28348(17)
O8 O 0.84969(13) 0.24993(17) 0.25060(18)
O9 O 0.89674(19) 0.0000 0.5000
H12 H 0.8886 0.0221 0.5061
Zn7 Zn 0.77404(2) 0.26854(2) 0.69831(2)
C85 C 0.84486(17) 0.2236(2) 0.7240(2)
C86 C 0.88564(17) 0.2107(2) 0.7129(2)
C87 C 0.9038(2) 0.2263(3) 0.6804(3)
H47 H 0.8905 0.2456 0.6660
C88 C 0.9414(3) 0.2148(4) 0.6678(4)
H48 H 0.9535 0.2265 0.6460
C89 C 0.9597(2) 0.1849(3) 0.6892(3)
C90 C 0.9426(3) 0.1700(4) 0.7220(4)
H49 H 0.9563 0.1514 0.7370
C91 C 0.9046(2) 0.1819(3) 0.7341(3)
H50 H 0.8926 0.1704 0.7560
C92 C 0.99529(19) 0.1394(3) 0.6450(3)
C93 C 0.9609(2) 0.1257(3) 0.6284(3)
H51 H 0.9366 0.1354 0.6373
C94 C 0.9618(2) 0.0980(3) 0.5990(3)
H52 H 0.9380 0.0892 0.5882
C95 C 0.9969(2) 0.0827(2) 0.5847(2)
C104 C 0.9980(2) 0.05213(19) 0.55313(19)
N5 N 0.99636(17) 0.1685(3) 0.6749(3)
O34 O 0.82756(13) 0.24622(17) 0.70058(17)
O35 O 0.83110(14) 0.21035(18) 0.75583(17)
O38 O 0.96516(12) 0.04125(16) 0.53989(15)
C117 C 0.6013(3) 0.03185(19) 0.0967(3)
H63 H 0.5921 0.0560 0.0873
C118 C 0.6309(3) 0.0311(2) 0.1240(4)
C119 C 0.6741(3) 0.06764(19) 0.1648(4)
C120 C 0.6876(3) 0.03243(18) 0.1833(3)
C121 C 0.7155(3) 0.0360(2) 0.2131(3)
H64 H 0.7259 0.0133 0.2247
C122 C 0.7282(3) 0.07317(19) 0.2260(3)
H65 H 0.7459 0.0752 0.2469
C123 C 0.7143(3) 0.10698(18) 0.2076(3)
C124 C 0.6865(3) 0.10424(19) 0.1778(3)
H66 H 0.6762 0.1271 0.1665
C126 C 0.7272(2) 0.14762(18) 0.2196(3)
O43 O 0.6470(3) 0.06689(14) 0.1347(3)
O44 O 0.54198(16) 0.03142(12) 0.04004(16)
O46 O 0.71652(17) 0.17521(12) 0.19759(19)
O47 O 0.74940(18) 0.15031(13) 0.24993(17)
Zn11 Zn 0.72596(2) 0.23146(2) 0.19831(2)
Zn14 Zn 0.80169(2) 0.27404(2) 0.23146(2)
Zn20 Zn 0.76854(2) 0.19831(2) 0.27404(2)
Zn22 Zn 0.77934(2) 0.22066(2) 0.77934(2)
O49 O 0.74628(11) 0.25372(11) 0.74628(11)
O55 O 0.78348(17) 0.32479(12) 0.69759(19)
O66 O 0.74993(17) 0.24940(18) 0.65031(13)
Cu1_2 Cu 0.96119(3) 1.0000 0.5000
O9_2 O 0.89674(19) 1.0000 0.5000
H11 H 0.8886 0.9779 0.4939
Zn3 Zn 0.77404(2) 0.73146(2) 0.30169(2)
Zn4 Zn 0.77934(2) 0.77934(2) 0.22066(2)
C22 C 0.84486(17) 0.7764(2) 0.2760(2)
C23 C 0.88564(17) 0.7893(2) 0.2871(2)
C24 C 0.9038(2) 0.7737(3) 0.3196(3)
H13 H 0.8905 0.7544 0.3340
C25 C 0.9414(3) 0.7852(4) 0.3322(4)
H14 H 0.9535 0.7735 0.3540
C26 C 0.9597(2) 0.8151(3) 0.3108(3)
C27 C 0.9426(3) 0.8300(4) 0.2780(4)
H15 H 0.9563 0.8486 0.2630
C28 C 0.9046(2) 0.8181(3) 0.2659(3)
H16 H 0.8926 0.8296 0.2440
C29 C 0.99529(19) 0.8606(3) 0.3550(3)
C30 C 0.9609(2) 0.8743(3) 0.3716(3)
H17 H 0.9366 0.8646 0.3627
C31 C 0.9618(2) 0.9020(3) 0.4010(3)
H18 H 0.9380 0.9108 0.4118
C32 C 0.9969(2) 0.9173(2) 0.4153(2)
C41 C 0.9980(2) 0.94787(19) 0.44687(19)
N2 N 0.99636(17) 0.8315(3) 0.3251(3)
O10 O 0.74628(11) 0.74628(11) 0.25372(11)
O11 O 0.82756(13) 0.75378(17) 0.29942(17)
O12 O 0.83110(14) 0.78965(18) 0.24417(17)
O15 O 0.96516(12) 0.95875(16) 0.46011(15)
C54 C 0.96815(19) 0.9033(3) 0.6013(3)
H31 H 0.9440 0.9127 0.5921
C55 C 0.9689(2) 0.8760(4) 0.6309(3)
C56 C 0.93236(19) 0.8352(4) 0.6741(3)
C57 C 0.96757(18) 0.8167(3) 0.6876(3)
C58 C 0.9640(2) 0.7869(3) 0.7155(3)
H32 H 0.9867 0.7753 0.7259
C59 C 0.92683(19) 0.7740(3) 0.7282(3)
H33 H 0.9248 0.7531 0.7459
C60 C 0.89302(18) 0.7924(3) 0.7143(3)
C61 C 0.89576(19) 0.8222(3) 0.6865(3)
H34 H 0.8729 0.8335 0.6762
C63 C 0.85238(18) 0.7804(3) 0.7272(2)
O21 O 0.93311(14) 0.8653(3) 0.6470(3)
O22 O 0.96858(12) 0.95996(16) 0.54198(16)
O24 O 0.82479(12) 0.80241(19) 0.71652(17)
O25 O 0.84969(13) 0.75007(17) 0.74940(18)
Zn8 Zn 0.69831(2) 0.77404(2) 0.26854(2)
C106 C 0.7240(2) 0.84486(17) 0.2236(2)
C107 C 0.7129(2) 0.88564(17) 0.2107(2)
C108 C 0.6804(3) 0.9038(2) 0.2263(3)
H57 H 0.6660 0.8905 0.2456
C109 C 0.6678(4) 0.9414(3) 0.2148(4)
H58 H 0.6460 0.9535 0.2265
C110 C 0.6892(3) 0.9597(2) 0.1849(3)
C111 C 0.7220(4) 0.9426(3) 0.1700(4)
H59 H 0.7370 0.9563 0.1514
C112 C 0.7341(3) 0.9046(2) 0.1819(3)
H60 H 0.7560 0.8926 0.1704
C113 C 0.6450(3) 0.99529(19) 0.1394(3)
C114 C 0.6284(3) 0.9609(2) 0.1257(3)
H61 H 0.6373 0.9366 0.1354
C115 C 0.5990(3) 0.9618(2) 0.0980(3)
H62 H 0.5882 0.9380 0.0892
C116 C 0.5847(2) 0.9969(2) 0.0827(2)
C125 C 0.55313(19) 0.9980(2) 0.05213(19)
N6 N 0.6749(3) 0.99636(17) 0.1685(3)
O41 O 0.70058(17) 0.82756(13) 0.24622(17)
O42 O 0.75583(17) 0.83110(14) 0.21035(18)
Zn10 Zn 0.73146(2) 0.69831(2) 0.22596(2)
Zn12 Zn 0.80169(2) 0.72596(2) 0.76854(2)
Zn17 Zn 0.76854(2) 0.80169(2) 0.72596(2)
O51 O 0.78965(18) 0.75583(17) 0.16890(14)
O56 O 0.78348(17) 0.67521(12) 0.30241(19)
O59 O 0.69759(19) 0.78348(17) 0.32479(12)
O62 O 0.65031(13) 0.74993(17) 0.24940(18)
O63 O 0.74993(17) 0.75060(18) 0.34969(13)
O33_3 O 0.5000 0.10326(19) 0.0000
H46_2 H 0.4939 0.1114 0.0221
O33_4 O 0.5000 0.10326(19) 1.0000
H45_2 H 0.5061 0.1114 0.9779
O52_2 O 0.45802(16) 0.03142(12) 0.95996(16)
O53_2 O 0.53989(15) 0.03484(12) 0.95875(16)
C75_2 C 0.3987(3) 0.03185(19) 0.9033(3)
H41_2 H 0.4079 0.0560 0.9127
C76_2 C 0.3691(3) 0.0311(2) 0.8760(4)
C77_2 C 0.3259(3) 0.06764(19) 0.8352(4)
C78_2 C 0.3124(3) 0.03243(18) 0.8167(3)
C79_2 C 0.2845(3) 0.0360(2) 0.7869(3)
H42_2 H 0.2741 0.0133 0.7753
C80_2 C 0.2718(3) 0.07317(19) 0.7740(3)
H43_2 H 0.2541 0.0752 0.7531
C81_2 C 0.2857(3) 0.10698(18) 0.7924(3)
C82_2 C 0.3135(3) 0.10424(19) 0.8222(3)
H44_2 H 0.3238 0.1271 0.8335
C84_2 C 0.2728(2) 0.14762(18) 0.7804(3)
O28_2 O 0.3530(3) 0.06689(14) 0.8653(3)
O31_2 O 0.28348(17) 0.17521(12) 0.80241(19)
O32_2 O 0.25060(18) 0.15031(13) 0.75007(17)
Zn13_2 Zn 0.27404(2) 0.23146(2) 0.80169(2)
Zn6_2 Zn 0.30169(2) 0.77404(2) 0.73146(2)
C64_2 C 0.2760(2) 0.84486(17) 0.7764(2)
C65_2 C 0.2871(2) 0.88564(17) 0.7893(2)
C66_2 C 0.3196(3) 0.9038(2) 0.7737(3)
H35_2 H 0.3340 0.8905 0.7544
C67_2 C 0.3322(4) 0.9414(3) 0.7852(4)
H36_2 H 0.3540 0.9535 0.7735
C68_2 C 0.3108(3) 0.9597(2) 0.8151(3)
C69_2 C 0.2780(4) 0.9426(3) 0.8300(4)
H37_2 H 0.2630 0.9563 0.8486
C70_2 C 0.2659(3) 0.9046(2) 0.8181(3)
H38_2 H 0.2440 0.8926 0.8296
C71_2 C 0.3550(3) 0.99529(19) 0.8606(3)
C72_2 C 0.3716(3) 0.9609(2) 0.8743(3)
H39_2 H 0.3627 0.9366 0.8646
C73_2 C 0.4010(3) 0.9618(2) 0.9020(3)
H40_2 H 0.4118 0.9380 0.9108
C74_2 C 0.4153(2) 0.9969(2) 0.9173(2)
C83_2 C 0.44687(19) 0.9980(2) 0.94787(19)
N4_2 N 0.3251(3) 0.99636(17) 0.8315(3)
O26_2 O 0.29942(17) 0.82756(13) 0.75378(17)
O27_2 O 0.24417(17) 0.83110(14) 0.78965(18)
Zn9_2 Zn 0.26854(2) 0.69831(2) 0.77404(2)
O50_2 O 0.21035(18) 0.75583(17) 0.83110(14)
O60_2 O 0.30241(19) 0.78348(17) 0.67521(12)
O61_2 O 0.34969(13) 0.74993(17) 0.75060(18)
Zn8_2 Zn 0.69831(2) 0.22596(2) 0.73146(2)
C106_2 C 0.7240(2) 0.15514(17) 0.7764(2)
C107_2 C 0.7129(2) 0.11436(17) 0.7893(2)
C108_2 C 0.6804(3) 0.0962(2) 0.7737(3)
H57_2 H 0.6660 0.1095 0.7544
C109_2 C 0.6678(4) 0.0586(3) 0.7852(4)
H58_2 H 0.6460 0.0465 0.7735
C110_2 C 0.6892(3) 0.0403(2) 0.8151(3)
C111_2 C 0.7220(4) 0.0574(3) 0.8300(4)
H59_2 H 0.7370 0.0437 0.8486
C112_2 C 0.7341(3) 0.0954(2) 0.8181(3)
H60_2 H 0.7560 0.1074 0.8296
C113_2 C 0.6450(3) 0.00471(19) 0.8606(3)
C114_2 C 0.6284(3) 0.0391(2) 0.8743(3)
H61_2 H 0.6373 0.0634 0.8646
C115_2 C 0.5990(3) 0.0382(2) 0.9020(3)
H62_2 H 0.5882 0.0620 0.9108
C116_2 C 0.5847(2) 0.0031(2) 0.9173(2)
C125_2 C 0.55313(19) 0.0020(2) 0.94787(19)
N6_2 N 0.6749(3) 0.00364(17) 0.8315(3)
O41_2 O 0.70058(17) 0.17244(13) 0.75378(17)
O42_2 O 0.75583(17) 0.16890(14) 0.78965(18)
Zn10_2 Zn 0.73146(2) 0.30169(2) 0.77404(2)
O51_2 O 0.78965(18) 0.24417(17) 0.83110(14)
O59_2 O 0.69759(19) 0.21652(17) 0.67521(12)
O62_2 O 0.65031(13) 0.25007(17) 0.75060(18)
C117_2 C 0.6013(3) 0.96815(19) 0.9033(3)
H63_2 H 0.5921 0.9440 0.9127
C118_2 C 0.6309(3) 0.9689(2) 0.8760(4)
C119_2 C 0.6741(3) 0.93236(19) 0.8352(4)
C120_2 C 0.6876(3) 0.96757(18) 0.8167(3)
C121_2 C 0.7155(3) 0.9640(2) 0.7869(3)
H64_2 H 0.7259 0.9867 0.7753
C122_2 C 0.7282(3) 0.92683(19) 0.7740(3)
H65_2 H 0.7459 0.9248 0.7531
C123_2 C 0.7143(3) 0.89302(18) 0.7924(3)
C124_2 C 0.6865(3) 0.89576(19) 0.8222(3)
H66_2 H 0.6762 0.8729 0.8335
C126_2 C 0.7272(2) 0.85238(18) 0.7804(3)
O43_2 O 0.6470(3) 0.93311(14) 0.8653(3)
O46_2 O 0.71652(17) 0.82479(12) 0.80241(19)
O47_2 O 0.74940(18) 0.84969(13) 0.75007(17)
Zn11_2 Zn 0.72596(2) 0.76854(2) 0.80169(2)
C64_3 C 0.2236(2) 0.2760(2) 0.15514(17)
C65_3 C 0.2107(2) 0.2871(2) 0.11436(17)
C66_3 C 0.2263(3) 0.3196(3) 0.0962(2)
H35_3 H 0.2456 0.3340 0.1095
C67_3 C 0.2148(4) 0.3322(4) 0.0586(3)
H36_3 H 0.2265 0.3540 0.0465
C68_3 C 0.1849(3) 0.3108(3) 0.0403(2)
C69_3 C 0.1700(4) 0.2780(4) 0.0574(3)
H37_3 H 0.1514 0.2630 0.0437
C70_3 C 0.1819(3) 0.2659(3) 0.0954(2)
H38_3 H 0.1704 0.2440 0.1074
C71_3 C 0.1394(3) 0.3550(3) 0.00471(19)
C72_3 C 0.1257(3) 0.3716(3) 0.0391(2)
H39_3 H 0.1354 0.3627 0.0634
C73_3 C 0.0980(3) 0.4010(3) 0.0382(2)
H40_3 H 0.0892 0.4118 0.0620
C74_3 C 0.0827(2) 0.4153(2) 0.0031(2)
C83_3 C 0.05213(19) 0.44687(19) 0.0020(2)
N4_3 N 0.1685(3) 0.3251(3) 0.00364(17)
O26_3 O 0.24622(17) 0.29942(17) 0.17244(13)
O30_2 O 0.04125(16) 0.46011(15) 0.03484(12)
Cu6_3 Cu 0.0000 0.5000 0.03881(3)
O60_3 O 0.32479(12) 0.30241(19) 0.21652(17)
O61_3 O 0.24940(18) 0.34969(13) 0.25007(17)
Cu3_3 Cu -0.0000 0.5000 0.96119(3)
C75_3 C 0.0967(3) 0.3987(3) 0.96815(19)
H41_3 H 0.0873 0.4079 0.9440
C76_3 C 0.1240(4) 0.3691(3) 0.9689(2)
C77_3 C 0.1648(4) 0.3259(3) 0.93236(19)
C78_3 C 0.1833(3) 0.3124(3) 0.96757(18)
C79_3 C 0.2131(3) 0.2845(3) 0.9640(2)
H42_3 H 0.2247 0.2741 0.9867
C80_3 C 0.2260(3) 0.2718(3) 0.92683(19)
H43_3 H 0.2469 0.2541 0.9248
C81_3 C 0.2076(3) 0.2857(3) 0.89302(18)
C82_3 C 0.1778(3) 0.3135(3) 0.89576(19)
H44_3 H 0.1665 0.3238 0.8729
C84_3 C 0.2196(3) 0.2728(2) 0.85238(18)
O28_3 O 0.1347(3) 0.3530(3) 0.93311(14)
O29_2 O 0.04004(16) 0.45802(16) 0.96858(12)
O31_3 O 0.19759(19) 0.28348(17) 0.82479(12)
O32_3 O 0.24993(17) 0.25060(18) 0.84969(13)
O33_5 O 0.0000 0.5000 0.89674(19)
H46_3 H 0.0221 0.5061 0.8886
O54_2 O 0.04125(16) 0.53989(15) 0.96516(12)
C117_3 C 0.0967(3) 0.6013(3) 0.03185(19)
H63_3 H 0.0873 0.5921 0.0560
C118_3 C 0.1240(4) 0.6309(3) 0.0311(2)
C119_3 C 0.1648(4) 0.6741(3) 0.06764(19)
C120_3 C 0.1833(3) 0.6876(3) 0.03243(18)
C121_3 C 0.2131(3) 0.7155(3) 0.0360(2)
H64_3 H 0.2247 0.7259 0.0133
C122_3 C 0.2260(3) 0.7282(3) 0.07317(19)
H65_3 H 0.2469 0.7459 0.0752
C123_3 C 0.2076(3) 0.7143(3) 0.10698(18)
C124_3 C 0.1778(3) 0.6865(3) 0.10424(19)
H66_3 H 0.1665 0.6762 0.1271
C126_3 C 0.2196(3) 0.7272(2) 0.14762(18)
O43_3 O 0.1347(3) 0.6470(3) 0.06689(14)
O44_2 O 0.04004(16) 0.54198(16) 0.03142(12)
O46_3 O 0.19759(19) 0.71652(17) 0.17521(12)
O47_3 O 0.24993(17) 0.74940(18) 0.15031(13)
C106_3 C 0.2236(2) 0.7240(2) 0.84486(17)
C107_3 C 0.2107(2) 0.7129(2) 0.88564(17)
C108_3 C 0.2263(3) 0.6804(3) 0.9038(2)
H57_3 H 0.2456 0.6660 0.8905
C109_3 C 0.2148(4) 0.6678(4) 0.9414(3)
H58_3 H 0.2265 0.6460 0.9535
C110_3 C 0.1849(3) 0.6892(3) 0.9597(2)
C111_3 C 0.1700(4) 0.7220(4) 0.9426(3)
H59_3 H 0.1514 0.7370 0.9563
C112_3 C 0.1819(3) 0.7341(3) 0.9046(2)
H60_3 H 0.1704 0.7560 0.8926
C113_3 C 0.1394(3) 0.6450(3) 0.99529(19)
C114_3 C 0.1257(3) 0.6284(3) 0.9609(2)
H61_3 H 0.1354 0.6373 0.9366
C115_3 C 0.0980(3) 0.5990(3) 0.9618(2)
H62_3 H 0.0892 0.5882 0.9380
C116_3 C 0.0827(2) 0.5847(2) 0.9969(2)
C125_3 C 0.05213(19) 0.55313(19) 0.9980(2)
N6_3 N 0.1685(3) 0.6749(3) 0.99636(17)
O41_3 O 0.24622(17) 0.70058(17) 0.82756(13)
O59_3 O 0.32479(12) 0.69759(19) 0.78348(17)
O62_3 O 0.24940(18) 0.65031(13) 0.74993(17)
Cu6_4 Cu 1.0000 0.5000 0.03881(3)
Cu3_4 Cu 1.0000 0.5000 0.96119(3)
O33_6 O 1.0000 0.5000 0.89674(19)
H45_3 H 0.9779 0.4939 0.8886
O52_3 O 0.95996(16) 0.54198(16) 0.96858(12)
O53_3 O 0.95875(16) 0.46011(15) 0.96516(12)
O33_7 O 0.0000 0.5000 0.10326(19)
H46_4 H 0.0221 0.4939 0.1114
O33_8 O 1.0000 0.5000 0.10326(19)
H45_4 H 0.9779 0.5061 0.1114
O52_4 O 0.95996(16) 0.45802(16) 0.03142(12)
O53_4 O 0.95875(16) 0.53989(15) 0.03484(12)
C117_4 C 0.9033(3) 0.3987(3) 0.03185(19)
H63_4 H 0.9127 0.4079 0.0560
C118_4 C 0.8760(4) 0.3691(3) 0.0311(2)
C119_4 C 0.8352(4) 0.3259(3) 0.06764(19)
C120_4 C 0.8167(3) 0.3124(3) 0.03243(18)
C121_4 C 0.7869(3) 0.2845(3) 0.0360(2)
H64_4 H 0.7753 0.2741 0.0133
C122_4 C 0.7740(3) 0.2718(3) 0.07317(19)
H65_4 H 0.7531 0.2541 0.0752
C123_4 C 0.7924(3) 0.2857(3) 0.10698(18)
C124_4 C 0.8222(3) 0.3135(3) 0.10424(19)
H66_4 H 0.8335 0.3238 0.1271
C126_4 C 0.7804(3) 0.2728(2) 0.14762(18)
O43_4 O 0.8653(3) 0.3530(3) 0.06689(14)
O46_4 O 0.80241(19) 0.28348(17) 0.17521(12)
O47_4 O 0.75007(17) 0.25060(18) 0.15031(13)
C106_4 C 0.7764(2) 0.2760(2) 0.84486(17)
C107_4 C 0.7893(2) 0.2871(2) 0.88564(17)
C108_4 C 0.7737(3) 0.3196(3) 0.9038(2)
H57_4 H 0.7544 0.3340 0.8905
C109_4 C 0.7852(4) 0.3322(4) 0.9414(3)
H58_4 H 0.7735 0.3540 0.9535
C110_4 C 0.8151(3) 0.3108(3) 0.9597(2)
C111_4 C 0.8300(4) 0.2780(4) 0.9426(3)
H59_4 H 0.8486 0.2630 0.9563
C112_4 C 0.8181(3) 0.2659(3) 0.9046(2)
H60_4 H 0.8296 0.2440 0.8926
C113_4 C 0.8606(3) 0.3550(3) 0.99529(19)
C114_4 C 0.8743(3) 0.3716(3) 0.9609(2)
H61_4 H 0.8646 0.3627 0.9366
C115_4 C 0.9020(3) 0.4010(3) 0.9618(2)
H62_4 H 0.9108 0.4118 0.9380
C116_4 C 0.9173(2) 0.4153(2) 0.9969(2)
C125_4 C 0.94787(19) 0.44687(19) 0.9980(2)
N6_4 N 0.8315(3) 0.3251(3) 0.99636(17)
O41_4 O 0.75378(17) 0.29942(17) 0.82756(13)
O59_4 O 0.67521(12) 0.30241(19) 0.78348(17)
O62_4 O 0.75060(18) 0.34969(13) 0.74993(17)
C64_4 C 0.7764(2) 0.7240(2) 0.15514(17)
C65_4 C 0.7893(2) 0.7129(2) 0.11436(17)
C66_4 C 0.7737(3) 0.6804(3) 0.0962(2)
H35_4 H 0.7544 0.6660 0.1095
C67_4 C 0.7852(4) 0.6678(4) 0.0586(3)
H36_4 H 0.7735 0.6460 0.0465
C68_4 C 0.8151(3) 0.6892(3) 0.0403(2)
C69_4 C 0.8300(4) 0.7220(4) 0.0574(3)
H37_4 H 0.8486 0.7370 0.0437
C70_4 C 0.8181(3) 0.7341(3) 0.0954(2)
H38_4 H 0.8296 0.7560 0.1074
C71_4 C 0.8606(3) 0.6450(3) 0.00471(19)
C72_4 C 0.8743(3) 0.6284(3) 0.0391(2)
H39_4 H 0.8646 0.6373 0.0634
C73_4 C 0.9020(3) 0.5990(3) 0.0382(2)
H40_4 H 0.9108 0.5882 0.0620
C74_4 C 0.9173(2) 0.5847(2) 0.0031(2)
C83_4 C 0.94787(19) 0.55313(19) 0.0020(2)
N4_4 N 0.8315(3) 0.6749(3) 0.00364(17)
O26_4 O 0.75378(17) 0.70058(17) 0.17244(13)
O60_4 O 0.67521(12) 0.69759(19) 0.21652(17)
O61_4 O 0.75060(18) 0.65031(13) 0.25007(17)
C75_4 C 0.9033(3) 0.6013(3) 0.96815(19)
H41_4 H 0.9127 0.5921 0.9440
C76_4 C 0.8760(4) 0.6309(3) 0.9689(2)
C77_4 C 0.8352(4) 0.6741(3) 0.93236(19)
C78_4 C 0.8167(3) 0.6876(3) 0.96757(18)
C79_4 C 0.7869(3) 0.7155(3) 0.9640(2)
H42_4 H 0.7753 0.7259 0.9867
C80_4 C 0.7740(3) 0.7282(3) 0.92683(19)
H43_4 H 0.7531 0.7459 0.9248
C81_4 C 0.7924(3) 0.7143(3) 0.89302(18)
C82_4 C 0.8222(3) 0.6865(3) 0.89576(19)
H44_4 H 0.8335 0.6762 0.8729
C84_4 C 0.7804(3) 0.7272(2) 0.85238(18)
O28_4 O 0.8653(3) 0.6470(3) 0.93311(14)
O31_4 O 0.80241(19) 0.71652(17) 0.82479(12)
O32_4 O 0.75007(17) 0.74940(18) 0.84969(13)
Cu3_5 Cu 0.0000 0.46119(3) 0.5000
O33_9 O 0.0000 0.39674(19) 0.5000
H46_5 H 0.0061 0.3886 0.5221
Cu6_5 Cu -0.0000 0.53881(3) 0.5000
O52_5 O 0.04198(16) 0.46858(12) 0.45996(16)
O54_3 O 0.03989(15) 0.46516(12) 0.54125(16)
Cu1_3 Cu 0.46119(3) 0.5000 0.0000
O9_3 O 0.39674(19) 0.5000 0.0000
H12_2 H 0.3886 0.5221 0.0061
Cu2_3 Cu 0.53881(3) 0.5000 0.0000
O18_3 O 0.60326(19) 0.5000 0.0000
H24_2 H 0.6114 0.4779 0.0061
C43_2 C 0.65514(17) 0.2764(2) 0.2240(2)
C44_2 C 0.61436(17) 0.2893(2) 0.2129(2)
C45_2 C 0.5962(2) 0.2737(3) 0.1804(3)
H25_2 H 0.6095 0.2544 0.1660
C46_2 C 0.5586(3) 0.2852(4) 0.1678(4)
H26_2 H 0.5465 0.2735 0.1460
C47_2 C 0.5403(2) 0.3151(3) 0.1892(3)
C48_2 C 0.5574(3) 0.3300(4) 0.2220(4)
H27_2 H 0.5437 0.3486 0.2370
C49_2 C 0.5954(2) 0.3181(3) 0.2341(3)
H28_2 H 0.6074 0.3296 0.2560
C50_2 C 0.50471(19) 0.3606(3) 0.1450(3)
C51_2 C 0.5391(2) 0.3743(3) 0.1284(3)
H29_2 H 0.5634 0.3646 0.1373
C52_2 C 0.5382(2) 0.4020(3) 0.0990(3)
H30_2 H 0.5620 0.4108 0.0882
C53_2 C 0.5031(2) 0.4173(2) 0.0847(2)
C54_2 C 0.46815(19) 0.4033(3) 0.1013(3)
H31_2 H 0.4440 0.4127 0.0921
C55_2 C 0.4689(2) 0.3760(4) 0.1309(3)
C56_2 C 0.43236(19) 0.3352(4) 0.1741(3)
C57_2 C 0.46757(18) 0.3167(3) 0.1876(3)
C58_2 C 0.4640(2) 0.2869(3) 0.2155(3)
H32_2 H 0.4867 0.2753 0.2259
C59_2 C 0.42683(19) 0.2740(3) 0.2282(3)
H33_2 H 0.4248 0.2531 0.2459
C60_2 C 0.39302(18) 0.2924(3) 0.2143(3)
C61_2 C 0.39576(19) 0.3222(3) 0.1865(3)
H34_2 H 0.3729 0.3335 0.1762
C62_2 C 0.5020(2) 0.44787(19) 0.05313(19)
C63_2 C 0.35238(18) 0.2804(3) 0.2272(2)
N3_2 N 0.50364(17) 0.3315(3) 0.1749(3)
O19_2 O 0.67244(13) 0.25378(17) 0.20058(17)
O20_2 O 0.66890(14) 0.28965(18) 0.25583(17)
O21_2 O 0.43311(14) 0.3653(3) 0.1470(3)
O22_2 O 0.46858(12) 0.45996(16) 0.04198(16)
O23_2 O 0.53484(12) 0.45875(16) 0.03989(15)
C85_2 C 0.34486(17) 0.7236(2) 0.2240(2)
C86_2 C 0.38564(17) 0.7107(2) 0.2129(2)
C87_2 C 0.4038(2) 0.7263(3) 0.1804(3)
H47_2 H 0.3905 0.7456 0.1660
C88_2 C 0.4414(3) 0.7148(4) 0.1678(4)
H48_2 H 0.4535 0.7265 0.1460
C89_2 C 0.4597(2) 0.6849(3) 0.1892(3)
C90_2 C 0.4426(3) 0.6700(4) 0.2220(4)
H49_2 H 0.4563 0.6514 0.2370
C91_2 C 0.4046(2) 0.6819(3) 0.2341(3)
H50_2 H 0.3926 0.6704 0.2560
C92_2 C 0.49529(19) 0.6394(3) 0.1450(3)
C93_2 C 0.4609(2) 0.6257(3) 0.1284(3)
H51_2 H 0.4366 0.6354 0.1373
C94_2 C 0.4618(2) 0.5980(3) 0.0990(3)
H52_2 H 0.4380 0.5892 0.0882
C95_2 C 0.4969(2) 0.5827(2) 0.0847(2)
C96_2 C 0.53185(19) 0.5967(3) 0.1013(3)
H53_2 H 0.5560 0.5873 0.0921
C97_2 C 0.5311(2) 0.6240(4) 0.1309(3)
C98_2 C 0.56764(19) 0.6648(4) 0.1741(3)
C99_2 C 0.53243(18) 0.6833(3) 0.1876(3)
C100_2 C 0.5360(2) 0.7131(3) 0.2155(3)
H54_2 H 0.5133 0.7247 0.2259
C101_2 C 0.57317(19) 0.7260(3) 0.2282(3)
H55_2 H 0.5752 0.7469 0.2459
C102_2 C 0.60698(18) 0.7076(3) 0.2143(3)
C103_2 C 0.60424(19) 0.6778(3) 0.1865(3)
H56_2 H 0.6271 0.6665 0.1762
C104_2 C 0.4980(2) 0.55213(19) 0.05313(19)
C105_2 C 0.64762(18) 0.7196(3) 0.2272(2)
N5_2 N 0.49636(17) 0.6685(3) 0.1749(3)
O34_2 O 0.32756(13) 0.74622(17) 0.20058(17)
O35_2 O 0.33110(14) 0.71035(18) 0.25583(17)
O36_2 O 0.56689(14) 0.6347(3) 0.1470(3)
O37_2 O 0.53142(12) 0.54004(16) 0.04198(16)
O38_2 O 0.46516(12) 0.54125(16) 0.03989(15)
Zn21_2 Zn 0.72066(2) 0.27934(2) 0.27934(2)
Zn22_2 Zn 0.27934(2) 0.72066(2) 0.27934(2)
O48_2 O 0.75372(11) 0.24628(11) 0.24628(11)
O49_2 O 0.24628(11) 0.75372(11) 0.24628(11)
Zn2_2 Zn 0.72066(2) 0.72066(2) 0.72066(2)
Cu1_4 Cu 0.46119(3) 0.5000 1.0000
C1_2 C 0.65514(17) 0.7236(2) 0.7760(2)
C2_2 C 0.61436(17) 0.7107(2) 0.7871(2)
C3_2 C 0.5962(2) 0.7263(3) 0.8196(3)
H1_2 H 0.6095 0.7456 0.8340
C4_2 C 0.5586(3) 0.7148(4) 0.8322(4)
H2_2 H 0.5465 0.7265 0.8540
C5_2 C 0.5403(2) 0.6849(3) 0.8108(3)
C6_2 C 0.5574(3) 0.6700(4) 0.7780(4)
H3_2 H 0.5437 0.6514 0.7630
C7_2 C 0.5954(2) 0.6819(3) 0.7659(3)
H4_2 H 0.6074 0.6704 0.7440
C8_2 C 0.50471(19) 0.6394(3) 0.8550(3)
C9_2 C 0.5391(2) 0.6257(3) 0.8716(3)
H5_2 H 0.5634 0.6354 0.8627
C10_2 C 0.5382(2) 0.5980(3) 0.9010(3)
H6_2 H 0.5620 0.5892 0.9118
C11_2 C 0.5031(2) 0.5827(2) 0.9153(2)
C12_2 C 0.46815(19) 0.5967(3) 0.8987(3)
H7_2 H 0.4440 0.5873 0.9079
C13_2 C 0.4689(2) 0.6240(4) 0.8691(3)
C14_2 C 0.43236(19) 0.6648(4) 0.8259(3)
C15_2 C 0.46757(18) 0.6833(3) 0.8124(3)
C16_2 C 0.4640(2) 0.7131(3) 0.7845(3)
H8_2 H 0.4867 0.7247 0.7741
C17_2 C 0.42683(19) 0.7260(3) 0.7718(3)
H9_2 H 0.4248 0.7469 0.7541
C18_2 C 0.39302(18) 0.7076(3) 0.7857(3)
C19_2 C 0.39576(19) 0.6778(3) 0.8135(3)
H10_2 H 0.3729 0.6665 0.8238
C20_2 C 0.5020(2) 0.55213(19) 0.94687(19)
C21_2 C 0.35238(18) 0.7196(3) 0.7728(2)
N1_2 N 0.50364(17) 0.6685(3) 0.8251(3)
O1_2 O 0.75372(11) 0.75372(11) 0.75372(11)
O2_2 O 0.67244(13) 0.74622(17) 0.79942(17)
O3_2 O 0.66890(14) 0.71035(18) 0.74417(17)
O4_2 O 0.43311(14) 0.6347(3) 0.8530(3)
O5_2 O 0.46858(12) 0.54004(16) 0.95802(16)
O6_2 O 0.53484(12) 0.54125(16) 0.96011(15)
O9_4 O 0.39674(19) 0.5000 1.0000
H11_2 H 0.3886 0.4779 0.9939
Zn4_2 Zn 0.27934(2) 0.27934(2) 0.72066(2)
Cu2_4 Cu 0.53881(3) 0.5000 1.0000
C22_2 C 0.34486(17) 0.2764(2) 0.7760(2)
C23_2 C 0.38564(17) 0.2893(2) 0.7871(2)
C24_2 C 0.4038(2) 0.2737(3) 0.8196(3)
H13_2 H 0.3905 0.2544 0.8340
C25_2 C 0.4414(3) 0.2852(4) 0.8322(4)
H14_2 H 0.4535 0.2735 0.8540
C26_2 C 0.4597(2) 0.3151(3) 0.8108(3)
C27_2 C 0.4426(3) 0.3300(4) 0.7780(4)
H15_2 H 0.4563 0.3486 0.7630
C28_2 C 0.4046(2) 0.3181(3) 0.7659(3)
H16_2 H 0.3926 0.3296 0.7440
C29_2 C 0.49529(19) 0.3606(3) 0.8550(3)
C30_2 C 0.4609(2) 0.3743(3) 0.8716(3)
H17_2 H 0.4366 0.3646 0.8627
C31_2 C 0.4618(2) 0.4020(3) 0.9010(3)
H18_2 H 0.4380 0.4108 0.9118
C32_2 C 0.4969(2) 0.4173(2) 0.9153(2)
C33_2 C 0.53185(19) 0.4033(3) 0.8987(3)
H19_2 H 0.5560 0.4127 0.9079
C34_2 C 0.5311(2) 0.3760(4) 0.8691(3)
C35_2 C 0.56764(19) 0.3352(4) 0.8259(3)
C36_2 C 0.53243(18) 0.3167(3) 0.8124(3)
C37_2 C 0.5360(2) 0.2869(3) 0.7845(3)
H20_2 H 0.5133 0.2753 0.7741
C38_2 C 0.57317(19) 0.2740(3) 0.7718(3)
H21_2 H 0.5752 0.2531 0.7541
C39_2 C 0.60698(18) 0.2924(3) 0.7857(3)
C40_2 C 0.60424(19) 0.3222(3) 0.8135(3)
H22_2 H 0.6271 0.3335 0.8238
C41_2 C 0.4980(2) 0.44787(19) 0.94687(19)
C42_2 C 0.64762(18) 0.2804(3) 0.7728(2)
N2_2 N 0.49636(17) 0.3315(3) 0.8251(3)
O10_2 O 0.24628(11) 0.24628(11) 0.75372(11)
O11_2 O 0.32756(13) 0.25378(17) 0.79942(17)
O12_2 O 0.33110(14) 0.28965(18) 0.74417(17)
O13_2 O 0.56689(14) 0.3653(3) 0.8530(3)
O14_2 O 0.53142(12) 0.45996(16) 0.95802(16)
O15_2 O 0.46516(12) 0.45875(16) 0.96011(15)
O18_4 O 0.60326(19) 0.5000 1.0000
H23_2 H 0.6114 0.5221 0.9939
Cu3_6 Cu 1.0000 0.46119(3) 0.5000
C64_5 C 0.7760(2) 0.65514(17) 0.7236(2)
C65_5 C 0.7871(2) 0.61436(17) 0.7107(2)
C66_5 C 0.8196(3) 0.5962(2) 0.7263(3)
H35_5 H 0.8340 0.6095 0.7456
C67_5 C 0.8322(4) 0.5586(3) 0.7148(4)
H36_5 H 0.8540 0.5465 0.7265
C68_5 C 0.8108(3) 0.5403(2) 0.6849(3)
C69_5 C 0.7780(4) 0.5574(3) 0.6700(4)
H37_5 H 0.7630 0.5437 0.6514
C70_5 C 0.7659(3) 0.5954(2) 0.6819(3)
H38_5 H 0.7440 0.6074 0.6704
C71_5 C 0.8550(3) 0.50471(19) 0.6394(3)
C72_5 C 0.8716(3) 0.5391(2) 0.6257(3)
H39_5 H 0.8627 0.5634 0.6354
C73_5 C 0.9010(3) 0.5382(2) 0.5980(3)
H40_5 H 0.9118 0.5620 0.5892
C74_5 C 0.9153(2) 0.5031(2) 0.5827(2)
C75_5 C 0.8987(3) 0.46815(19) 0.5967(3)
H41_5 H 0.9079 0.4440 0.5873
C76_5 C 0.8691(3) 0.4689(2) 0.6240(4)
C77_5 C 0.8259(3) 0.43236(19) 0.6648(4)
C78_5 C 0.8124(3) 0.46757(18) 0.6833(3)
C79_5 C 0.7845(3) 0.4640(2) 0.7131(3)
H42_5 H 0.7741 0.4867 0.7247
C80_5 C 0.7718(3) 0.42683(19) 0.7260(3)
H43_5 H 0.7541 0.4248 0.7469
C81_5 C 0.7857(3) 0.39302(18) 0.7076(3)
C82_5 C 0.8135(3) 0.39576(19) 0.6778(3)
H44_5 H 0.8238 0.3729 0.6665
C83_5 C 0.94687(19) 0.5020(2) 0.55213(19)
C84_5 C 0.7728(2) 0.35238(18) 0.7196(3)
N4_5 N 0.8251(3) 0.50364(17) 0.6685(3)
O26_5 O 0.79942(17) 0.67244(13) 0.74622(17)
O27_3 O 0.74417(17) 0.66890(14) 0.71035(18)
O28_5 O 0.8530(3) 0.43311(14) 0.6347(3)
O29_3 O 0.95802(16) 0.46858(12) 0.54004(16)
O30_3 O 0.96011(15) 0.53484(12) 0.54125(16)
O33_10 O 1.0000 0.39674(19) 0.5000
H45_5 H 0.9939 0.3886 0.4779
C106_5 C 0.2240(2) 0.34486(17) 0.7236(2)
C107_5 C 0.2129(2) 0.38564(17) 0.7107(2)
C108_5 C 0.1804(3) 0.4038(2) 0.7263(3)
H57_5 H 0.1660 0.3905 0.7456
C109_5 C 0.1678(4) 0.4414(3) 0.7148(4)
H58_5 H 0.1460 0.4535 0.7265
C110_5 C 0.1892(3) 0.4597(2) 0.6849(3)
C111_5 C 0.2220(4) 0.4426(3) 0.6700(4)
H59_5 H 0.2370 0.4563 0.6514
C112_5 C 0.2341(3) 0.4046(2) 0.6819(3)
H60_5 H 0.2560 0.3926 0.6704
C113_5 C 0.1450(3) 0.49529(19) 0.6394(3)
C114_5 C 0.1284(3) 0.4609(2) 0.6257(3)
H61_5 H 0.1373 0.4366 0.6354
C115_5 C 0.0990(3) 0.4618(2) 0.5980(3)
H62_5 H 0.0882 0.4380 0.5892
C116_5 C 0.0847(2) 0.4969(2) 0.5827(2)
C117_5 C 0.1013(3) 0.53185(19) 0.5967(3)
H63_5 H 0.0921 0.5560 0.5873
C118_5 C 0.1309(3) 0.5311(2) 0.6240(4)
C119_5 C 0.1741(3) 0.56764(19) 0.6648(4)
C120_5 C 0.1876(3) 0.53243(18) 0.6833(3)
C121_5 C 0.2155(3) 0.5360(2) 0.7131(3)
H64_5 H 0.2259 0.5133 0.7247
C122_5 C 0.2282(3) 0.57317(19) 0.7260(3)
H65_5 H 0.2459 0.5752 0.7469
C123_5 C 0.2143(3) 0.60698(18) 0.7076(3)
C124_5 C 0.1865(3) 0.60424(19) 0.6778(3)
H66_5 H 0.1762 0.6271 0.6665
C125_5 C 0.05313(19) 0.4980(2) 0.55213(19)
C126_5 C 0.2272(2) 0.64762(18) 0.7196(3)
N6_5 N 0.1749(3) 0.49636(17) 0.6685(3)
O41_5 O 0.20058(17) 0.32756(13) 0.74622(17)
O42_3 O 0.25583(17) 0.33110(14) 0.71035(18)
O43_5 O 0.1470(3) 0.56689(14) 0.6347(3)
O44_3 O 0.04198(16) 0.53142(12) 0.54004(16)
Cu6_6 Cu 1.0000 0.53881(3) 0.5000
O50_3 O 0.71035(18) 0.74417(17) 0.66890(14)
O51_3 O 0.28965(18) 0.25583(17) 0.66890(14)
O53_5 O 0.96011(15) 0.46516(12) 0.45875(16)
O33_11 O -0.0000 0.60326(19) 0.5000
H45_6 H 0.0061 0.6114 0.4779
O53_6 O 0.03989(15) 0.53484(12) 0.45875(16)
O33_12 O 1.0000 0.60326(19) 0.5000
H46_6 H 0.9939 0.6114 0.5221
O52_6 O 0.95802(16) 0.53142(12) 0.45996(16)
C64_6 C 0.7760(2) 0.34486(17) 0.2764(2)
C65_6 C 0.7871(2) 0.38564(17) 0.2893(2)
C66_6 C 0.8196(3) 0.4038(2) 0.2737(3)
H35_6 H 0.8340 0.3905 0.2544
C67_6 C 0.8322(4) 0.4414(3) 0.2852(4)
H36_6 H 0.8540 0.4535 0.2735
C68_6 C 0.8108(3) 0.4597(2) 0.3151(3)
C69_6 C 0.7780(4) 0.4426(3) 0.3300(4)
H37_6 H 0.7630 0.4563 0.3486
C70_6 C 0.7659(3) 0.4046(2) 0.3181(3)
H38_6 H 0.7440 0.3926 0.3296
C71_6 C 0.8550(3) 0.49529(19) 0.3606(3)
C72_6 C 0.8716(3) 0.4609(2) 0.3743(3)
H39_6 H 0.8627 0.4366 0.3646
C73_6 C 0.9010(3) 0.4618(2) 0.4020(3)
H40_6 H 0.9118 0.4380 0.4108
C74_6 C 0.9153(2) 0.4969(2) 0.4173(2)
C75_6 C 0.8987(3) 0.53185(19) 0.4033(3)
H41_6 H 0.9079 0.5560 0.4127
C76_6 C 0.8691(3) 0.5311(2) 0.3760(4)
C77_6 C 0.8259(3) 0.56764(19) 0.3352(4)
C78_6 C 0.8124(3) 0.53243(18) 0.3167(3)
C79_6 C 0.7845(3) 0.5360(2) 0.2869(3)
H42_6 H 0.7741 0.5133 0.2753
C80_6 C 0.7718(3) 0.57317(19) 0.2740(3)
H43_6 H 0.7541 0.5752 0.2531
C81_6 C 0.7857(3) 0.60698(18) 0.2924(3)
C82_6 C 0.8135(3) 0.60424(19) 0.3222(3)
H44_6 H 0.8238 0.6271 0.3335
C83_6 C 0.94687(19) 0.4980(2) 0.44787(19)
C84_6 C 0.7728(2) 0.64762(18) 0.2804(3)
N4_6 N 0.8251(3) 0.49636(17) 0.3315(3)
O26_6 O 0.79942(17) 0.32756(13) 0.25378(17)
O27_4 O 0.74417(17) 0.33110(14) 0.28965(18)
O28_6 O 0.8530(3) 0.56689(14) 0.3653(3)
C106_6 C 0.2240(2) 0.65514(17) 0.2764(2)
C107_6 C 0.2129(2) 0.61436(17) 0.2893(2)
C108_6 C 0.1804(3) 0.5962(2) 0.2737(3)
H57_6 H 0.1660 0.6095 0.2544
C109_6 C 0.1678(4) 0.5586(3) 0.2852(4)
H58_6 H 0.1460 0.5465 0.2735
C110_6 C 0.1892(3) 0.5403(2) 0.3151(3)
C111_6 C 0.2220(4) 0.5574(3) 0.3300(4)
H59_6 H 0.2370 0.5437 0.3486
C112_6 C 0.2341(3) 0.5954(2) 0.3181(3)
H60_6 H 0.2560 0.6074 0.3296
C113_6 C 0.1450(3) 0.50471(19) 0.3606(3)
C114_6 C 0.1284(3) 0.5391(2) 0.3743(3)
H61_6 H 0.1373 0.5634 0.3646
C115_6 C 0.0990(3) 0.5382(2) 0.4020(3)
H62_6 H 0.0882 0.5620 0.4108
C116_6 C 0.0847(2) 0.5031(2) 0.4173(2)
C117_6 C 0.1013(3) 0.46815(19) 0.4033(3)
H63_6 H 0.0921 0.4440 0.4127
C118_6 C 0.1309(3) 0.4689(2) 0.3760(4)
C119_6 C 0.1741(3) 0.43236(19) 0.3352(4)
C120_6 C 0.1876(3) 0.46757(18) 0.3167(3)
C121_6 C 0.2155(3) 0.4640(2) 0.2869(3)
H64_6 H 0.2259 0.4867 0.2753
C122_6 C 0.2282(3) 0.42683(19) 0.2740(3)
H65_6 H 0.2459 0.4248 0.2531
C123_6 C 0.2143(3) 0.39302(18) 0.2924(3)
C124_6 C 0.1865(3) 0.39576(19) 0.3222(3)
H66_6 H 0.1762 0.3729 0.3335
C125_6 C 0.05313(19) 0.5020(2) 0.44787(19)
C126_6 C 0.2272(2) 0.35238(18) 0.2804(3)
N6_6 N 0.1749(3) 0.50364(17) 0.3315(3)
O41_6 O 0.20058(17) 0.67244(13) 0.25378(17)
O42_4 O 0.25583(17) 0.66890(14) 0.28965(18)
O43_6 O 0.1470(3) 0.43311(14) 0.3653(3)
O50_4 O 0.71035(18) 0.25583(17) 0.33110(14)
O51_4 O 0.28965(18) 0.74417(17) 0.33110(14)
Cu3_7 Cu 0.5000 0.0000 0.46119(3)
O33_13 O 0.5000 0.0000 0.39674(19)
H46_7 H 0.5221 0.0061 0.3886
Cu6_7 Cu 0.5000 -0.0000 0.53881(3)
O52_7 O 0.45996(16) 0.04198(16) 0.46858(12)
O54_4 O 0.54125(16) 0.03989(15) 0.46516(12)
Cu3_8 Cu 0.5000 1.0000 0.46119(3)
C64_7 C 0.7236(2) 0.7760(2) 0.65514(17)
C65_7 C 0.7107(2) 0.7871(2) 0.61436(17)
C66_7 C 0.7263(3) 0.8196(3) 0.5962(2)
H35_7 H 0.7456 0.8340 0.6095
C67_7 C 0.7148(4) 0.8322(4) 0.5586(3)
H36_7 H 0.7265 0.8540 0.5465
C68_7 C 0.6849(3) 0.8108(3) 0.5403(2)
C69_7 C 0.6700(4) 0.7780(4) 0.5574(3)
H37_7 H 0.6514 0.7630 0.5437
C70_7 C 0.6819(3) 0.7659(3) 0.5954(2)
H38_7 H 0.6704 0.7440 0.6074
C71_7 C 0.6394(3) 0.8550(3) 0.50471(19)
C72_7 C 0.6257(3) 0.8716(3) 0.5391(2)
H39_7 H 0.6354 0.8627 0.5634
C73_7 C 0.5980(3) 0.9010(3) 0.5382(2)
H40_7 H 0.5892 0.9118 0.5620
C74_7 C 0.5827(2) 0.9153(2) 0.5031(2)
C75_7 C 0.5967(3) 0.8987(3) 0.46815(19)
H41_7 H 0.5873 0.9079 0.4440
C76_7 C 0.6240(4) 0.8691(3) 0.4689(2)
C77_7 C 0.6648(4) 0.8259(3) 0.43236(19)
C78_7 C 0.6833(3) 0.8124(3) 0.46757(18)
C79_7 C 0.7131(3) 0.7845(3) 0.4640(2)
H42_7 H 0.7247 0.7741 0.4867
C80_7 C 0.7260(3) 0.7718(3) 0.42683(19)
H43_7 H 0.7469 0.7541 0.4248
C81_7 C 0.7076(3) 0.7857(3) 0.39302(18)
C82_7 C 0.6778(3) 0.8135(3) 0.39576(19)
H44_7 H 0.6665 0.8238 0.3729
C83_7 C 0.55213(19) 0.94687(19) 0.5020(2)
C84_7 C 0.7196(3) 0.7728(2) 0.35238(18)
N4_7 N 0.6685(3) 0.8251(3) 0.50364(17)
O26_7 O 0.74622(17) 0.79942(17) 0.67244(13)
O28_7 O 0.6347(3) 0.8530(3) 0.43311(14)
O29_4 O 0.54004(16) 0.95802(16) 0.46858(12)
O30_4 O 0.54125(16) 0.96011(15) 0.53484(12)
O33_14 O 0.5000 1.0000 0.39674(19)
H45_7 H 0.4779 0.9939 0.3886
C106_7 C 0.7236(2) 0.2240(2) 0.34486(17)
C107_7 C 0.7107(2) 0.2129(2) 0.38564(17)
C108_7 C 0.7263(3) 0.1804(3) 0.4038(2)
H57_7 H 0.7456 0.1660 0.3905
C109_7 C 0.7148(4) 0.1678(4) 0.4414(3)
H58_7 H 0.7265 0.1460 0.4535
C110_7 C 0.6849(3) 0.1892(3) 0.4597(2)
C111_7 C 0.6700(4) 0.2220(4) 0.4426(3)
H59_7 H 0.6514 0.2370 0.4563
C112_7 C 0.6819(3) 0.2341(3) 0.4046(2)
H60_7 H 0.6704 0.2560 0.3926
C113_7 C 0.6394(3) 0.1450(3) 0.49529(19)
C114_7 C 0.6257(3) 0.1284(3) 0.4609(2)
H61_7 H 0.6354 0.1373 0.4366
C115_7 C 0.5980(3) 0.0990(3) 0.4618(2)
H62_7 H 0.5892 0.0882 0.4380
C116_7 C 0.5827(2) 0.0847(2) 0.4969(2)
C117_7 C 0.5967(3) 0.1013(3) 0.53185(19)
H63_7 H 0.5873 0.0921 0.5560
C118_7 C 0.6240(4) 0.1309(3) 0.5311(2)
C119_7 C 0.6648(4) 0.1741(3) 0.56764(19)
C120_7 C 0.6833(3) 0.1876(3) 0.53243(18)
C121_7 C 0.7131(3) 0.2155(3) 0.5360(2)
H64_7 H 0.7247 0.2259 0.5133
C122_7 C 0.7260(3) 0.2282(3) 0.57317(19)
H65_7 H 0.7469 0.2459 0.5752
C123_7 C 0.7076(3) 0.2143(3) 0.60698(18)
C124_7 C 0.6778(3) 0.1865(3) 0.60424(19)
H66_7 H 0.6665 0.1762 0.6271
C125_7 C 0.55213(19) 0.05313(19) 0.4980(2)
C126_7 C 0.7196(3) 0.2272(2) 0.64762(18)
N6_7 N 0.6685(3) 0.1749(3) 0.49636(17)
O41_7 O 0.74622(17) 0.20058(17) 0.32756(13)
O43_7 O 0.6347(3) 0.1470(3) 0.56689(14)
O44_4 O 0.54004(16) 0.04198(16) 0.53142(12)
Cu6_8 Cu 0.5000 1.0000 0.53881(3)
O53_7 O 0.45875(16) 0.96011(15) 0.46516(12)
O33_15 O 0.5000 0.0000 0.60326(19)
H45_8 H 0.4779 0.0061 0.6114
O53_8 O 0.45875(16) 0.03989(15) 0.53484(12)
O33_16 O 0.5000 1.0000 0.60326(19)
H46_8 H 0.5221 0.9939 0.6114
O52_8 O 0.45996(16) 0.95802(16) 0.53142(12)
C64_8 C 0.2764(2) 0.2240(2) 0.65514(17)
C65_8 C 0.2893(2) 0.2129(2) 0.61436(17)
C66_8 C 0.2737(3) 0.1804(3) 0.5962(2)
H35_8 H 0.2544 0.1660 0.6095
C67_8 C 0.2852(4) 0.1678(4) 0.5586(3)
H36_8 H 0.2735 0.1460 0.5465
C68_8 C 0.3151(3) 0.1892(3) 0.5403(2)
C69_8 C 0.3300(4) 0.2220(4) 0.5574(3)
H37_8 H 0.3486 0.2370 0.5437
C70_8 C 0.3181(3) 0.2341(3) 0.5954(2)
H38_8 H 0.3296 0.2560 0.6074
C71_8 C 0.3606(3) 0.1450(3) 0.50471(19)
C72_8 C 0.3743(3) 0.1284(3) 0.5391(2)
H39_8 H 0.3646 0.1373 0.5634
C73_8 C 0.4020(3) 0.0990(3) 0.5382(2)
H40_8 H 0.4108 0.0882 0.5620
C74_8 C 0.4173(2) 0.0847(2) 0.5031(2)
C75_8 C 0.4033(3) 0.1013(3) 0.46815(19)
H41_8 H 0.4127 0.0921 0.4440
C76_8 C 0.3760(4) 0.1309(3) 0.4689(2)
C77_8 C 0.3352(4) 0.1741(3) 0.43236(19)
C78_8 C 0.3167(3) 0.1876(3) 0.46757(18)
C79_8 C 0.2869(3) 0.2155(3) 0.4640(2)
H42_8 H 0.2753 0.2259 0.4867
C80_8 C 0.2740(3) 0.2282(3) 0.42683(19)
H43_8 H 0.2531 0.2459 0.4248
C81_8 C 0.2924(3) 0.2143(3) 0.39302(18)
C82_8 C 0.3222(3) 0.1865(3) 0.39576(19)
H44_8 H 0.3335 0.1762 0.3729
C83_8 C 0.44787(19) 0.05313(19) 0.5020(2)
C84_8 C 0.2804(3) 0.2272(2) 0.35238(18)
N4_8 N 0.3315(3) 0.1749(3) 0.50364(17)
O26_8 O 0.25378(17) 0.20058(17) 0.67244(13)
O28_8 O 0.3653(3) 0.1470(3) 0.43311(14)
C106_8 C 0.2764(2) 0.7760(2) 0.34486(17)
C107_8 C 0.2893(2) 0.7871(2) 0.38564(17)
C108_8 C 0.2737(3) 0.8196(3) 0.4038(2)
H57_8 H 0.2544 0.8340 0.3905
C109_8 C 0.2852(4) 0.8322(4) 0.4414(3)
H58_8 H 0.2735 0.8540 0.4535
C110_8 C 0.3151(3) 0.8108(3) 0.4597(2)
C111_8 C 0.3300(4) 0.7780(4) 0.4426(3)
H59_8 H 0.3486 0.7630 0.4563
C112_8 C 0.3181(3) 0.7659(3) 0.4046(2)
H60_8 H 0.3296 0.7440 0.3926
C113_8 C 0.3606(3) 0.8550(3) 0.49529(19)
C114_8 C 0.3743(3) 0.8716(3) 0.4609(2)
H61_8 H 0.3646 0.8627 0.4366
C115_8 C 0.4020(3) 0.9010(3) 0.4618(2)
H62_8 H 0.4108 0.9118 0.4380
C116_8 C 0.4173(2) 0.9153(2) 0.4969(2)
C117_8 C 0.4033(3) 0.8987(3) 0.53185(19)
H63_8 H 0.4127 0.9079 0.5560
C118_8 C 0.3760(4) 0.8691(3) 0.5311(2)
C119_8 C 0.3352(4) 0.8259(3) 0.56764(19)
C120_8 C 0.3167(3) 0.8124(3) 0.53243(18)
C121_8 C 0.2869(3) 0.7845(3) 0.5360(2)
H64_8 H 0.2753 0.7741 0.5133
C122_8 C 0.2740(3) 0.7718(3) 0.57317(19)
H65_8 H 0.2531 0.7541 0.5752
C123_8 C 0.2924(3) 0.7857(3) 0.60698(18)
C124_8 C 0.3222(3) 0.8135(3) 0.60424(19)
H66_8 H 0.3335 0.8238 0.6271
C125_8 C 0.44787(19) 0.94687(19) 0.4980(2)
C126_8 C 0.2804(3) 0.7728(2) 0.64762(18)
N6_8 N 0.3315(3) 0.8251(3) 0.49636(17)
O41_8 O 0.25378(17) 0.79942(17) 0.32756(13)
O43_8 O 0.3653(3) 0.8530(3) 0.56689(14)
loop_
_geom_bond_atom_site_label_1
_geom_bond_atom_site_label_2
_geom_bond_site_symmetry_1
_geom_bond_site_symmetry_2
Zn1 O1 1_555 1_555
Zn2 O1 1_555 1_555
C1 C2 1_555 1_555
C2 C3 1_555 1_555
C3 H1 1_555 1_555
C4 C3 1_555 1_555
H2 C4 1_555 1_555
C5 C4 1_555 1_555
C6 C5 1_555 1_555
H3 C6 1_555 1_555
C7 C2 1_555 1_555
H4 C7 1_555 1_555
C8 C9 1_555 1_555
C9 H5 1_555 1_555
C10 C9 1_555 1_555
H6 C10 1_555 1_555
C11 C10 1_555 1_555
C20 C11 1_555 1_555
N1 C5 1_555 1_555
O1 Zn6 1_555 1_555
O2 Zn1 1_555 1_555
O3 Zn2 1_555 1_555
O6 C20 1_555 1_555
Cu2 O6 1_555 1_555
O18 Cu2 1_555 1_555
H23 O18 1_555 1_555
Zn6 O26 1_555 1_555
C64 C65 1_555 1_555
C65 C66 1_555 1_555
C66 H35 1_555 1_555
C67 C66 1_555 1_555
H36 C67 1_555 1_555
C68 C67 1_555 1_555
C69 C68 1_555 1_555
H37 C69 1_555 1_555
C70 C65 1_555 1_555
H38 C70 1_555 1_555
C71 C72 1_555 1_555
C72 H39 1_555 1_555
C73 C72 1_555 1_555
H40 C73 1_555 1_555
C74 C73 1_555 1_555
C83 C74 1_555 1_555
N4 C68 1_555 1_555
O26 C64 1_555 1_555
O27 Zn2 1_555 1_555
O30 C83 1_555 1_555
H53 C96 1_555 1_555
C98 C99 1_555 1_555
C99 C100 1_555 1_555
C100 H54 1_555 1_555
C101 C100 1_555 1_555
H55 C101 1_555 1_555
C102 C101 1_555 1_555
C103 C98 1_555 1_555
H56 C103 1_555 1_555
C105 C102 1_555 1_555
O36 C97 1_555 1_555
O37 Cu2 1_555 1_555
O39 C105 1_555 1_555
O40 C105 1_555 1_555
Zn9 O1 1_555 1_555
Zn15 O40 1_555 1_555
Zn19 O39 1_555 1_555
Cu6 O30 1_555 1_555
O50 Zn2 1_555 1_555
O58 Zn1 1_555 1_555
O60 Zn6 1_555 1_555
O61 Zn6 1_555 1_555
O65 Zn1 1_555 1_555
C1 O2 1_555 1_555
C1 O3 1_555 1_555
C6 C7 1_555 1_555
C8 N1 1_555 1_555
C64 O27 1_555 1_555
C69 C70 1_555 1_555
C71 N4 1_555 1_555
C96 C97 1_555 1_555
C98 O36 1_555 1_555
C102 C103 1_555 1_555
H19 C33 1_555 1_555
C35 C36 1_555 1_555
C36 C37 1_555 1_555
C37 H20 1_555 1_555
C38 C37 1_555 1_555
H21 C38 1_555 1_555
C39 C38 1_555 1_555
C40 C35 1_555 1_555
H22 C40 1_555 1_555
C42 C39 1_555 1_555
O13 C34 1_555 1_555
O14 Cu2_2 1_555 1_555
O16 C42 1_555 1_555
O17 C42 1_555 1_555
O18_2 Cu2_2 1_555 1_555
H24 O18_2 1_555 1_555
Zn5 O19 1_555 1_555
C43 C44 1_555 1_555
C44 C45 1_555 1_555
C45 H25 1_555 1_555
C46 C45 1_555 1_555
H26 C46 1_555 1_555
C47 C46 1_555 1_555
C48 C47 1_555 1_555
H27 C48 1_555 1_555
C49 C44 1_555 1_555
H28 C49 1_555 1_555
C50 C51 1_555 1_555
C51 H29 1_555 1_555
C52 C51 1_555 1_555
H30 C52 1_555 1_555
C53 C52 1_555 1_555
C62 C53 1_555 1_555
N3 C47 1_555 1_555
O19 C43 1_555 1_555
O20 C43 1_555 1_555
O23 Cu2_2 1_555 1_555
Cu3 O29 1_555 1_555
H41 C75 1_555 1_555
C77 C78 1_555 1_555
C78 C79 1_555 1_555
C79 H42 1_555 1_555
C80 C79 1_555 1_555
H43 C80 1_555 1_555
C81 C80 1_555 1_555
C82 C77 1_555 1_555
H44 C82 1_555 1_555
C84 C81 1_555 1_555
O28 C76 1_555 1_555
O31 C84 1_555 1_555
O32 C84 1_555 1_555
O33 Cu3 1_555 1_555
H46 O33 1_555 1_555
Zn13 O31 1_555 1_555
Zn16 O17 1_555 1_555
Zn18 O16 1_555 1_555
Zn21 O20 1_555 1_555
O48 Zn5 1_555 1_555
O54 Cu3 1_555 1_555
O57 Zn5 1_555 1_555
O64 Zn5 1_555 1_555
C33 C34 1_555 1_555
C35 O13 1_555 1_555
C39 C40 1_555 1_555
C48 C49 1_555 1_555
C50 N3 1_555 1_555
C62 O23 1_555 1_555
C75 C76 1_555 1_555
C77 O28 1_555 1_555
C81 C82 1_555 1_555
O32 Zn18 1_555 1_555
Zn21 O48 1_555 1_555
O33_2 Cu3_2 1_555 1_555
H45 O33_2 1_555 1_555
O52 Cu3_2 1_555 1_555
O53 Cu3_2 1_555 1_555
Cu1 O5 1_555 1_555
H7 C12 1_555 1_555
C14 C15 1_555 1_555
C15 C16 1_555 1_555
C16 H8 1_555 1_555
C17 C16 1_555 1_555
H9 C17 1_555 1_555
C18 C17 1_555 1_555
C19 C14 1_555 1_555
H10 C19 1_555 1_555
C21 C18 1_555 1_555
O4 C13 1_555 1_555
O7 C21 1_555 1_555
O8 C21 1_555 1_555
O9 Cu1 1_555 1_555
H12 O9 1_555 1_555
Zn7 O34 1_555 1_555
C85 C86 1_555 1_555
C86 C87 1_555 1_555
C87 H47 1_555 1_555
C88 C87 1_555 1_555
H48 C88 1_555 1_555
C89 C88 1_555 1_555
C90 C89 1_555 1_555
H49 C90 1_555 1_555
C91 C86 1_555 1_555
H50 C91 1_555 1_555
C92 C93 1_555 1_555
C93 H51 1_555 1_555
C94 C93 1_555 1_555
H52 C94 1_555 1_555
C95 C94 1_555 1_555
C104 C95 1_555 1_555
N5 C89 1_555 1_555
O34 C85 1_555 1_555
O35 C85 1_555 1_555
O38 Cu1 1_555 1_555
H63 C117 1_555 1_555
C119 C120 1_555 1_555
C120 C121 1_555 1_555
C121 H64 1_555 1_555
C122 C121 1_555 1_555
H65 C122 1_555 1_555
C123 C122 1_555 1_555
C124 C119 1_555 1_555
H66 C124 1_555 1_555
C126 C123 1_555 1_555
O43 C118 1_555 1_555
O46 C126 1_555 1_555
O47 C126 1_555 1_555
Zn11 O46 1_555 1_555
Zn14 O8 1_555 1_555
Zn20 O7 1_555 1_555
Zn22 O35 1_555 1_555
Cu6 O44 1_555 1_555
O49 Zn7 1_555 1_555
O55 Zn7 1_555 1_555
O66 Zn7 1_555 1_555
C12 C13 1_555 1_555
C14 O4 1_555 1_555
C18 C19 1_555 1_555
C90 C91 1_555 1_555
C92 N5 1_555 1_555
C104 O38 1_555 1_555
C117 C118 1_555 1_555
C119 O43 1_555 1_555
C123 C124 1_555 1_555
O47 Zn20 1_555 1_555
Zn22 O49 1_555 1_555
O9_2 Cu1_2 1_555 1_555
H11 O9_2 1_555 1_555
Zn3 O10 1_555 1_555
Zn4 O10 1_555 1_555
C22 C23 1_555 1_555
C23 C24 1_555 1_555
C24 H13 1_555 1_555
C25 C24 1_555 1_555
H14 C25 1_555 1_555
C26 C25 1_555 1_555
C27 C26 1_555 1_555
H15 C27 1_555 1_555
C28 C23 1_555 1_555
H16 C28 1_555 1_555
C29 C30 1_555 1_555
C30 H17 1_555 1_555
C31 C30 1_555 1_555
H18 C31 1_555 1_555
C32 C31 1_555 1_555
C41 C32 1_555 1_555
N2 C26 1_555 1_555
O10 Zn8 1_555 1_555
O11 Zn3 1_555 1_555
O12 Zn4 1_555 1_555
O15 Cu1_2 1_555 1_555
H31 C54 1_555 1_555
C56 C57 1_555 1_555
C57 C58 1_555 1_555
C58 H32 1_555 1_555
C59 C58 1_555 1_555
H33 C59 1_555 1_555
C60 C59 1_555 1_555
C61 C56 1_555 1_555
H34 C61 1_555 1_555
C63 C60 1_555 1_555
O21 C55 1_555 1_555
O22 Cu1_2 1_555 1_555
O24 C63 1_555 1_555
O25 C63 1_555 1_555
Zn8 O41 1_555 1_555
C106 C107 1_555 1_555
C107 C108 1_555 1_555
C108 H57 1_555 1_555
C109 C108 1_555 1_555
H58 C109 1_555 1_555
C110 C109 1_555 1_555
C111 C110 1_555 1_555
H59 C111 1_555 1_555
C112 C107 1_555 1_555
H60 C112 1_555 1_555
C113 C114 1_555 1_555
C114 H61 1_555 1_555
C115 C114 1_555 1_555
H62 C115 1_555 1_555
C116 C115 1_555 1_555
C125 C116 1_555 1_555
N6 C110 1_555 1_555
O41 C106 1_555 1_555
O42 Zn4 1_555 1_555
O54 C125 1_555 1_555
Zn10 O10 1_555 1_555
Zn12 O25 1_555 1_555
Zn17 O24 1_555 1_555
O51 Zn4 1_555 1_555
O56 Zn3 1_555 1_555
O59 Zn8 1_555 1_555
O62 Zn8 1_555 1_555
O63 Zn3 1_555 1_555
C22 O11 1_555 1_555
C22 O12 1_555 1_555
C27 C28 1_555 1_555
C29 N2 1_555 1_555
C41 O15 1_555 1_555
C54 C55 1_555 1_555
C56 O21 1_555 1_555
C60 C61 1_555 1_555
C106 O42 1_555 1_555
C111 C112 1_555 1_555
C113 N6 1_555 1_555
O33_3 Cu6 1_555 1_555
H46_2 O33_3 1_555 1_555
O33_4 Cu6_2 1_555 1_555
H45_2 O33_4 1_555 1_555
O52_2 Cu6_2 1_555 1_555
O53_2 Cu6_2 1_555 1_555
H41_2 C75_2 1_555 1_555
C77_2 C78_2 1_555 1_555
C78_2 C79_2 1_555 1_555
C79_2 H42_2 1_555 1_555
C80_2 C79_2 1_555 1_555
H43_2 C80_2 1_555 1_555
C81_2 C80_2 1_555 1_555
C82_2 C77_2 1_555 1_555
H44_2 C82_2 1_555 1_555
C84_2 C81_2 1_555 1_555
O28_2 C76_2 1_555 1_555
O31_2 C84_2 1_555 1_555
O32_2 C84_2 1_555 1_555
Zn13_2 O31_2 1_555 1_555
C75_2 C76_2 1_555 1_555
C77_2 O28_2 1_555 1_555
C81_2 C82_2 1_555 1_555
O32_2 Zn19 1_555 1_555
O48 Zn6_2 1_555 1_555
Zn6_2 O26_2 1_555 1_555
C64_2 C65_2 1_555 1_555
C65_2 C66_2 1_555 1_555
C66_2 H35_2 1_555 1_555
C67_2 C66_2 1_555 1_555
H36_2 C67_2 1_555 1_555
C68_2 C67_2 1_555 1_555
C69_2 C68_2 1_555 1_555
H37_2 C69_2 1_555 1_555
C70_2 C65_2 1_555 1_555
H38_2 C70_2 1_555 1_555
C71_2 C72_2 1_555 1_555
C72_2 H39_2 1_555 1_555
C73_2 C72_2 1_555 1_555
H40_2 C73_2 1_555 1_555
C74_2 C73_2 1_555 1_555
C83_2 C74_2 1_555 1_555
N4_2 C68_2 1_555 1_555
O26_2 C64_2 1_555 1_555
O27_2 Zn21 1_555 1_555
O53 C83_2 1_555 1_555
Zn9_2 O48 1_555 1_555
O50_2 Zn21 1_555 1_555
O60_2 Zn6_2 1_555 1_555
O61_2 Zn6_2 1_555 1_555
C64_2 O27_2 1_555 1_555
C69_2 C70_2 1_555 1_555
C71_2 N4_2 1_555 1_555
O49 Zn8_2 1_555 1_555
Zn8_2 O41_2 1_555 1_555
C106_2 C107_2 1_555 1_555
C107_2 C108_2 1_555 1_555
C108_2 H57_2 1_555 1_555
C109_2 C108_2 1_555 1_555
H58_2 C109_2 1_555 1_555
C110_2 C109_2 1_555 1_555
C111_2 C110_2 1_555 1_555
H59_2 C111_2 1_555 1_555
C112_2 C107_2 1_555 1_555
H60_2 C112_2 1_555 1_555
C113_2 C114_2 1_555 1_555
C114_2 H61_2 1_555 1_555
C115_2 C114_2 1_555 1_555
H62_2 C115_2 1_555 1_555
C116_2 C115_2 1_555 1_555
C125_2 C116_2 1_555 1_555
N6_2 C110_2 1_555 1_555
O41_2 C106_2 1_555 1_555
O42_2 Zn22 1_555 1_555
O53_2 C125_2 1_555 1_555
Zn10_2 O49 1_555 1_555
O51_2 Zn22 1_555 1_555
O59_2 Zn8_2 1_555 1_555
O62_2 Zn8_2 1_555 1_555
C106_2 O42_2 1_555 1_555
C111_2 C112_2 1_555 1_555
C113_2 N6_2 1_555 1_555
H63_2 C117_2 1_555 1_555
C119_2 C120_2 1_555 1_555
C120_2 C121_2 1_555 1_555
C121_2 H64_2 1_555 1_555
C122_2 C121_2 1_555 1_555
H65_2 C122_2 1_555 1_555
C123_2 C122_2 1_555 1_555
C124_2 C119_2 1_555 1_555
H66_2 C124_2 1_555 1_555
C126_2 C123_2 1_555 1_555
O43_2 C118_2 1_555 1_555
O46_2 C126_2 1_555 1_555
O47_2 C126_2 1_555 1_555
Zn11_2 O46_2 1_555 1_555
C117_2 C118_2 1_555 1_555
C119_2 O43_2 1_555 1_555
C123_2 C124_2 1_555 1_555
O47_2 Zn17 1_555 1_555
Zn9 O26_3 1_555 1_555
C64_3 C65_3 1_555 1_555
C65_3 C66_3 1_555 1_555
C66_3 H35_3 1_555 1_555
C67_3 C66_3 1_555 1_555
H36_3 C67_3 1_555 1_555
C68_3 C67_3 1_555 1_555
C69_3 C68_3 1_555 1_555
H37_3 C69_3 1_555 1_555
C70_3 C65_3 1_555 1_555
H38_3 C70_3 1_555 1_555
C71_3 C72_3 1_555 1_555
C72_3 H39_3 1_555 1_555
C73_3 C72_3 1_555 1_555
H40_3 C73_3 1_555 1_555
C74_3 C73_3 1_555 1_555
C83_3 C74_3 1_555 1_555
N4_3 C68_3 1_555 1_555
O26_3 C64_3 1_555 1_555
O30_2 C83_3 1_555 1_555
Cu6_3 O30_2 1_555 1_555
O60_3 Zn9 1_555 1_555
O61_3 Zn9 1_555 1_555
C64_3 O50 1_555 1_555
C69_3 C70_3 1_555 1_555
C71_3 N4_3 1_555 1_555
Cu3_3 O29_2 1_555 1_555
H41_3 C75_3 1_555 1_555
C77_3 C78_3 1_555 1_555
C78_3 C79_3 1_555 1_555
C79_3 H42_3 1_555 1_555
C80_3 C79_3 1_555 1_555
H43_3 C80_3 1_555 1_555
C81_3 C80_3 1_555 1_555
C82_3 C77_3 1_555 1_555
H44_3 C82_3 1_555 1_555
C84_3 C81_3 1_555 1_555
O28_3 C76_3 1_555 1_555
O31_3 C84_3 1_555 1_555
O32_3 C84_3 1_555 1_555
O33_5 Cu3_3 1_555 1_555
H46_3 O33_5 1_555 1_555
Zn15 O31_3 1_555 1_555
O54_2 Cu3_3 1_555 1_555
C75_3 C76_3 1_555 1_555
C77_3 O28_3 1_555 1_555
C81_3 C82_3 1_555 1_555
O32_3 Zn13_2 1_555 1_555
H63_3 C117_3 1_555 1_555
C119_3 C120_3 1_555 1_555
C120_3 C121_3 1_555 1_555
C121_3 H64_3 1_555 1_555
C122_3 C121_3 1_555 1_555
H65_3 C122_3 1_555 1_555
C123_3 C122_3 1_555 1_555
C124_3 C119_3 1_555 1_555
H66_3 C124_3 1_555 1_555
C126_3 C123_3 1_555 1_555
O43_3 C118_3 1_555 1_555
O46_3 C126_3 1_555 1_555
O47_3 C126_3 1_555 1_555
Zn16 O46_3 1_555 1_555
Cu6_3 O44_2 1_555 1_555
C117_3 C118_3 1_555 1_555
C119_3 O43_3 1_555 1_555
C123_3 C124_3 1_555 1_555
O47_3 Zn13 1_555 1_555
Zn9_2 O41_3 1_555 1_555
C106_3 C107_3 1_555 1_555
C107_3 C108_3 1_555 1_555
C108_3 H57_3 1_555 1_555
C109_3 C108_3 1_555 1_555
H58_3 C109_3 1_555 1_555
C110_3 C109_3 1_555 1_555
C111_3 C110_3 1_555 1_555
H59_3 C111_3 1_555 1_555
C112_3 C107_3 1_555 1_555
H60_3 C112_3 1_555 1_555
C113_3 C114_3 1_555 1_555
C114_3 H61_3 1_555 1_555
C115_3 C114_3 1_555 1_555
H62_3 C115_3 1_555 1_555
C116_3 C115_3 1_555 1_555
C125_3 C116_3 1_555 1_555
N6_3 C110_3 1_555 1_555
O41_3 C106_3 1_555 1_555
O54_2 C125_3 1_555 1_555
O59_3 Zn9_2 1_555 1_555
O62_3 Zn9_2 1_555 1_555
C106_3 O50_2 1_555 1_555
C111_3 C112_3 1_555 1_555
C113_3 N6_3 1_555 1_555
O33_6 Cu3_4 1_555 1_555
H45_3 O33_6 1_555 1_555
O52_3 Cu3_4 1_555 1_555
O53_3 Cu3_4 1_555 1_555
O33_7 Cu6_3 1_555 1_555
H46_4 O33_7 1_555 1_555
O33_8 Cu6_4 1_555 1_555
H45_4 O33_8 1_555 1_555
O52_4 Cu6_4 1_555 1_555
O53_4 Cu6_4 1_555 1_555
H63_4 C117_4 1_555 1_555
C119_4 C120_4 1_555 1_555
C120_4 C121_4 1_555 1_555
C121_4 H64_4 1_555 1_555
C122_4 C121_4 1_555 1_555
H65_4 C122_4 1_555 1_555
C123_4 C122_4 1_555 1_555
C124_4 C119_4 1_555 1_555
H66_4 C124_4 1_555 1_555
C126_4 C123_4 1_555 1_555
O43_4 C118_4 1_555 1_555
O46_4 C126_4 1_555 1_555
O47_4 C126_4 1_555 1_555
Zn14 O46_4 1_555 1_555
C117_4 C118_4 1_555 1_555
C119_4 O43_4 1_555 1_555
C123_4 C124_4 1_555 1_555
O47_4 Zn11 1_555 1_555
Zn10_2 O41_4 1_555 1_555
C106_4 C107_4 1_555 1_555
C107_4 C108_4 1_555 1_555
C108_4 H57_4 1_555 1_555
C109_4 C108_4 1_555 1_555
H58_4 C109_4 1_555 1_555
C110_4 C109_4 1_555 1_555
C111_4 C110_4 1_555 1_555
H59_4 C111_4 1_555 1_555
C112_4 C107_4 1_555 1_555
H60_4 C112_4 1_555 1_555
C113_4 C114_4 1_555 1_555
C114_4 H61_4 1_555 1_555
C115_4 C114_4 1_555 1_555
H62_4 C115_4 1_555 1_555
C116_4 C115_4 1_555 1_555
C125_4 C116_4 1_555 1_555
N6_4 C110_4 1_555 1_555
O41_4 C106_4 1_555 1_555
O53_3 C125_4 1_555 1_555
O59_4 Zn10_2 1_555 1_555
O62_4 Zn10_2 1_555 1_555
C106_4 O51_2 1_555 1_555
C111_4 C112_4 1_555 1_555
C113_4 N6_4 1_555 1_555
Zn10 O26_4 1_555 1_555
C64_4 C65_4 1_555 1_555
C65_4 C66_4 1_555 1_555
C66_4 H35_4 1_555 1_555
C67_4 C66_4 1_555 1_555
H36_4 C67_4 1_555 1_555
C68_4 C67_4 1_555 1_555
C69_4 C68_4 1_555 1_555
H37_4 C69_4 1_555 1_555
C70_4 C65_4 1_555 1_555
H38_4 C70_4 1_555 1_555
C71_4 C72_4 1_555 1_555
C72_4 H39_4 1_555 1_555
C73_4 C72_4 1_555 1_555
H40_4 C73_4 1_555 1_555
C74_4 C73_4 1_555 1_555
C83_4 C74_4 1_555 1_555
N4_4 C68_4 1_555 1_555
O26_4 C64_4 1_555 1_555
O53_4 C83_4 1_555 1_555
O60_4 Zn10 1_555 1_555
O61_4 Zn10 1_555 1_555
C64_4 O51 1_555 1_555
C69_4 C70_4 1_555 1_555
C71_4 N4_4 1_555 1_555
H41_4 C75_4 1_555 1_555
C77_4 C78_4 1_555 1_555
C78_4 C79_4 1_555 1_555
C79_4 H42_4 1_555 1_555
C80_4 C79_4 1_555 1_555
H43_4 C80_4 1_555 1_555
C81_4 C80_4 1_555 1_555
C82_4 C77_4 1_555 1_555
H44_4 C82_4 1_555 1_555
C84_4 C81_4 1_555 1_555
O28_4 C76_4 1_555 1_555
O31_4 C84_4 1_555 1_555
O32_4 C84_4 1_555 1_555
Zn12 O31_4 1_555 1_555
C75_4 C76_4 1_555 1_555
C77_4 O28_4 1_555 1_555
C81_4 C82_4 1_555 1_555
O32_4 Zn11_2 1_555 1_555
O33_9 Cu3_5 1_555 1_555
H46_5 O33_9 1_555 1_555
O52_5 Cu3_5 1_555 1_555
O54_3 Cu3_5 1_555 1_555
O9_3 Cu1_3 1_555 1_555
H12_2 O9_3 1_555 1_555
O18_3 Cu2_3 1_555 1_555
H24_2 O18_3 1_555 1_555
Zn11 O19_2 1_555 1_555
C43_2 C44_2 1_555 1_555
C44_2 C45_2 1_555 1_555
C45_2 H25_2 1_555 1_555
C46_2 C45_2 1_555 1_555
H26_2 C46_2 1_555 1_555
C47_2 C46_2 1_555 1_555
C48_2 C47_2 1_555 1_555
H27_2 C48_2 1_555 1_555
C49_2 C44_2 1_555 1_555
H28_2 C49_2 1_555 1_555
C50_2 C51_2 1_555 1_555
C51_2 H29_2 1_555 1_555
C52_2 C51_2 1_555 1_555
H30_2 C52_2 1_555 1_555
C53_2 C52_2 1_555 1_555
C54_2 C53_2 1_555 1_555
H31_2 C54_2 1_555 1_555
C55_2 C50_2 1_555 1_555
C56_2 C57_2 1_555 1_555
C57_2 C58_2 1_555 1_555
C58_2 H32_2 1_555 1_555
C59_2 C58_2 1_555 1_555
H33_2 C59_2 1_555 1_555
C60_2 C59_2 1_555 1_555
C61_2 C56_2 1_555 1_555
H34_2 C61_2 1_555 1_555
C62_2 C53_2 1_555 1_555
C63_2 C60_2 1_555 1_555
N3_2 C47_2 1_555 1_555
O19_2 C43_2 1_555 1_555
O20_2 C43_2 1_555 1_555
O21_2 C55_2 1_555 1_555
O22_2 Cu1_3 1_555 1_555
O23_2 Cu2_3 1_555 1_555
O60_3 C63_2 1_555 1_555
O61 C63_2 1_555 1_555
Zn13 O34_2 1_555 1_555
C85_2 C86_2 1_555 1_555
C86_2 C87_2 1_555 1_555
C87_2 H47_2 1_555 1_555
C88_2 C87_2 1_555 1_555
H48_2 C88_2 1_555 1_555
C89_2 C88_2 1_555 1_555
C90_2 C89_2 1_555 1_555
H49_2 C90_2 1_555 1_555
C91_2 C86_2 1_555 1_555
H50_2 C91_2 1_555 1_555
C92_2 C93_2 1_555 1_555
C93_2 H51_2 1_555 1_555
C94_2 C93_2 1_555 1_555
H52_2 C94_2 1_555 1_555
C95_2 C94_2 1_555 1_555
C96_2 C95_2 1_555 1_555
H53_2 C96_2 1_555 1_555
C97_2 C92_2 1_555 1_555
C98_2 C99_2 1_555 1_555
C99_2 C100_2 1_555 1_555
C100_2 H54_2 1_555 1_555
C101_2 C100_2 1_555 1_555
H55_2 C101_2 1_555 1_555
C102_2 C101_2 1_555 1_555
C103_2 C98_2 1_555 1_555
H56_2 C103_2 1_555 1_555
C104_2 C95_2 1_555 1_555
C105_2 C102_2 1_555 1_555
N5_2 C89_2 1_555 1_555
O34_2 C85_2 1_555 1_555
O35_2 C85_2 1_555 1_555
O36_2 C97_2 1_555 1_555
O37_2 Cu2_3 1_555 1_555
O38_2 Cu1_3 1_555 1_555
O60_4 C105_2 1_555 1_555
O62 C105_2 1_555 1_555
Zn21_2 O20_2 1_555 1_555
Zn22_2 O35_2 1_555 1_555
O48_2 Zn11 1_555 1_555
O49_2 Zn13 1_555 1_555
C48_2 C49_2 1_555 1_555
C50_2 N3_2 1_555 1_555
C54_2 C55_2 1_555 1_555
C56_2 O21_2 1_555 1_555
C57_2 N3_2 1_555 1_555
C60_2 C61_2 1_555 1_555
C62_2 O22_2 1_555 1_555
C62_2 O23_2 1_555 1_555
C90_2 C91_2 1_555 1_555
C92_2 N5_2 1_555 1_555
C96_2 C97_2 1_555 1_555
C98_2 O36_2 1_555 1_555
C99_2 N5_2 1_555 1_555
C102_2 C103_2 1_555 1_555
C104_2 O37_2 1_555 1_555
C104_2 O38_2 1_555 1_555
Zn21_2 O48_2 1_555 1_555
Zn22_2 O49_2 1_555 1_555
Zn11_2 O1_2 1_555 1_555
Zn2_2 O1_2 1_555 1_555
Cu1_4 O5_2 1_555 1_555
C1_2 C2_2 1_555 1_555
C2_2 C3_2 1_555 1_555
C3_2 H1_2 1_555 1_555
C4_2 C3_2 1_555 1_555
H2_2 C4_2 1_555 1_555
C5_2 C4_2 1_555 1_555
C6_2 C5_2 1_555 1_555
H3_2 C6_2 1_555 1_555
C7_2 C2_2 1_555 1_555
H4_2 C7_2 1_555 1_555
C8_2 C9_2 1_555 1_555
C9_2 H5_2 1_555 1_555
C10_2 C9_2 1_555 1_555
H6_2 C10_2 1_555 1_555
C11_2 C10_2 1_555 1_555
C12_2 C11_2 1_555 1_555
H7_2 C12_2 1_555 1_555
C13_2 C8_2 1_555 1_555
C14_2 C15_2 1_555 1_555
C15_2 C16_2 1_555 1_555
C16_2 H8_2 1_555 1_555
C17_2 C16_2 1_555 1_555
H9_2 C17_2 1_555 1_555
C18_2 C17_2 1_555 1_555
C19_2 C14_2 1_555 1_555
H10_2 C19_2 1_555 1_555
C20_2 C11_2 1_555 1_555
C21_2 C18_2 1_555 1_555
N1_2 C5_2 1_555 1_555
O1_2 Zn12 1_555 1_555
O2_2 Zn11_2 1_555 1_555
O3_2 Zn2_2 1_555 1_555
O4_2 C13_2 1_555 1_555
O5_2 C20_2 1_555 1_555
O6_2 C20_2 1_555 1_555
O59_3 C21_2 1_555 1_555
O61_2 C21_2 1_555 1_555
O9_4 Cu1_4 1_555 1_555
H11_2 O9_4 1_555 1_555
Zn13_2 O10_2 1_555 1_555
Zn4_2 O10_2 1_555 1_555
Cu2_4 O6_2 1_555 1_555
C22_2 C23_2 1_555 1_555
C23_2 C24_2 1_555 1_555
C24_2 H13_2 1_555 1_555
C25_2 C24_2 1_555 1_555
H14_2 C25_2 1_555 1_555
C26_2 C25_2 1_555 1_555
C27_2 C26_2 1_555 1_555
H15_2 C27_2 1_555 1_555
C28_2 C23_2 1_555 1_555
H16_2 C28_2 1_555 1_555
C29_2 C30_2 1_555 1_555
C30_2 H17_2 1_555 1_555
C31_2 C30_2 1_555 1_555
H18_2 C31_2 1_555 1_555
C32_2 C31_2 1_555 1_555
C33_2 C32_2 1_555 1_555
H19_2 C33_2 1_555 1_555
C34_2 C29_2 1_555 1_555
C35_2 C36_2 1_555 1_555
C36_2 C37_2 1_555 1_555
C37_2 H20_2 1_555 1_555
C38_2 C37_2 1_555 1_555
H21_2 C38_2 1_555 1_555
C39_2 C38_2 1_555 1_555
C40_2 C35_2 1_555 1_555
H22_2 C40_2 1_555 1_555
C41_2 C32_2 1_555 1_555
C42_2 C39_2 1_555 1_555
N2_2 C26_2 1_555 1_555
O10_2 Zn15 1_555 1_555
O11_2 Zn13_2 1_555 1_555
O12_2 Zn4_2 1_555 1_555
O13_2 C34_2 1_555 1_555
O14_2 Cu2_4 1_555 1_555
O15_2 Cu1_4 1_555 1_555
O59_4 C42_2 1_555 1_555
O62_2 C42_2 1_555 1_555
O18_4 Cu2_4 1_555 1_555
H23_2 O18_4 1_555 1_555
Zn12 O26_5 1_555 1_555
Cu3_6 O29_3 1_555 1_555
C64_5 C65_5 1_555 1_555
C65_5 C66_5 1_555 1_555
C66_5 H35_5 1_555 1_555
C67_5 C66_5 1_555 1_555
H36_5 C67_5 1_555 1_555
C68_5 C67_5 1_555 1_555
C69_5 C68_5 1_555 1_555
H37_5 C69_5 1_555 1_555
C70_5 C65_5 1_555 1_555
H38_5 C70_5 1_555 1_555
C71_5 C72_5 1_555 1_555
C72_5 H39_5 1_555 1_555
C73_5 C72_5 1_555 1_555
H40_5 C73_5 1_555 1_555
C74_5 C73_5 1_555 1_555
C75_5 C74_5 1_555 1_555
H41_5 C75_5 1_555 1_555
C76_5 C71_5 1_555 1_555
C77_5 C78_5 1_555 1_555
C78_5 C79_5 1_555 1_555
C79_5 H42_5 1_555 1_555
C80_5 C79_5 1_555 1_555
H43_5 C80_5 1_555 1_555
C81_5 C80_5 1_555 1_555
C82_5 C77_5 1_555 1_555
H44_5 C82_5 1_555 1_555
C83_5 C74_5 1_555 1_555
C84_5 C81_5 1_555 1_555
N4_5 C68_5 1_555 1_555
O26_5 C64_5 1_555 1_555
O27_3 Zn2_2 1_555 1_555
O28_5 C76_5 1_555 1_555
O29_3 C83_5 1_555 1_555
O30_3 C83_5 1_555 1_555
O55 C84_5 1_555 1_555
O62_4 C84_5 1_555 1_555
O33_10 Cu3_6 1_555 1_555
H45_5 O33_10 1_555 1_555
Zn15 O41_5 1_555 1_555
C106_5 C107_5 1_555 1_555
C107_5 C108_5 1_555 1_555
C108_5 H57_5 1_555 1_555
C109_5 C108_5 1_555 1_555
H58_5 C109_5 1_555 1_555
C110_5 C109_5 1_555 1_555
C111_5 C110_5 1_555 1_555
H59_5 C111_5 1_555 1_555
C112_5 C107_5 1_555 1_555
H60_5 C112_5 1_555 1_555
C113_5 C114_5 1_555 1_555
C114_5 H61_5 1_555 1_555
C115_5 C114_5 1_555 1_555
H62_5 C115_5 1_555 1_555
C116_5 C115_5 1_555 1_555
C117_5 C116_5 1_555 1_555
H63_5 C117_5 1_555 1_555
C118_5 C113_5 1_555 1_555
C119_5 C120_5 1_555 1_555
C120_5 C121_5 1_555 1_555
C121_5 H64_5 1_555 1_555
C122_5 C121_5 1_555 1_555
H65_5 C122_5 1_555 1_555
C123_5 C122_5 1_555 1_555
C124_5 C119_5 1_555 1_555
H66_5 C124_5 1_555 1_555
C125_5 C116_5 1_555 1_555
C126_5 C123_5 1_555 1_555
N6_5 C110_5 1_555 1_555
O41_5 C106_5 1_555 1_555
O42_3 Zn4_2 1_555 1_555
O43_5 C118_5 1_555 1_555
O44_3 C125_5 1_555 1_555
O54_3 C125_5 1_555 1_555
O57 C126_5 1_555 1_555
O62_3 C126_5 1_555 1_555
Zn17 O1_2 1_555 1_555
Zn19 O10_2 1_555 1_555
Cu6_5 O44_3 1_555 1_555
Cu6_6 O30_3 1_555 1_555
O50_3 Zn2_2 1_555 1_555
O51_3 Zn4_2 1_555 1_555
O53_5 Cu3_6 1_555 1_555
C1_2 O2_2 1_555 1_555
C1_2 O3_2 1_555 1_555
C6_2 C7_2 1_555 1_555
C8_2 N1_2 1_555 1_555
C12_2 C13_2 1_555 1_555
C14_2 O4_2 1_555 1_555
C15_2 N1_2 1_555 1_555
C18_2 C19_2 1_555 1_555
C22_2 O11_2 1_555 1_555
C22_2 O12_2 1_555 1_555
C27_2 C28_2 1_555 1_555
C29_2 N2_2 1_555 1_555
C33_2 C34_2 1_555 1_555
C35_2 O13_2 1_555 1_555
C36_2 N2_2 1_555 1_555
C39_2 C40_2 1_555 1_555
C41_2 O14_2 1_555 1_555
C41_2 O15_2 1_555 1_555
C64_5 O27_3 1_555 1_555
C69_5 C70_5 1_555 1_555
C71_5 N4_5 1_555 1_555
C75_5 C76_5 1_555 1_555
C77_5 O28_5 1_555 1_555
C78_5 N4_5 1_555 1_555
C81_5 C82_5 1_555 1_555
C106_5 O42_3 1_555 1_555
C111_5 C112_5 1_555 1_555
C113_5 N6_5 1_555 1_555
C117_5 C118_5 1_555 1_555
C119_5 O43_5 1_555 1_555
C120_5 N6_5 1_555 1_555
C123_5 C124_5 1_555 1_555
O33_11 Cu6_5 1_555 1_555
H45_6 O33_11 1_555 1_555
O53_6 Cu6_5 1_555 1_555
O33_12 Cu6_6 1_555 1_555
H46_6 O33_12 1_555 1_555
O52_6 Cu6_6 1_555 1_555
O48_2 Zn14 1_555 1_555
O49_2 Zn16 1_555 1_555
Zn14 O26_6 1_555 1_555
C64_6 C65_6 1_555 1_555
C65_6 C66_6 1_555 1_555
C66_6 H35_6 1_555 1_555
C67_6 C66_6 1_555 1_555
H36_6 C67_6 1_555 1_555
C68_6 C67_6 1_555 1_555
C69_6 C68_6 1_555 1_555
H37_6 C69_6 1_555 1_555
C70_6 C65_6 1_555 1_555
H38_6 C70_6 1_555 1_555
C71_6 C72_6 1_555 1_555
C72_6 H39_6 1_555 1_555
C73_6 C72_6 1_555 1_555
H40_6 C73_6 1_555 1_555
C74_6 C73_6 1_555 1_555
C75_6 C74_6 1_555 1_555
H41_6 C75_6 1_555 1_555
C76_6 C71_6 1_555 1_555
C77_6 C78_6 1_555 1_555
C78_6 C79_6 1_555 1_555
C79_6 H42_6 1_555 1_555
C80_6 C79_6 1_555 1_555
H43_6 C80_6 1_555 1_555
C81_6 C80_6 1_555 1_555
C82_6 C77_6 1_555 1_555
H44_6 C82_6 1_555 1_555
C83_6 C74_6 1_555 1_555
C84_6 C81_6 1_555 1_555
N4_6 C68_6 1_555 1_555
O26_6 C64_6 1_555 1_555
O27_4 Zn21_2 1_555 1_555
O28_6 C76_6 1_555 1_555
O52_6 C83_6 1_555 1_555
O53_5 C83_6 1_555 1_555
O56 C84_6 1_555 1_555
O61_4 C84_6 1_555 1_555
Zn16 O41_6 1_555 1_555
C106_6 C107_6 1_555 1_555
C107_6 C108_6 1_555 1_555
C108_6 H57_6 1_555 1_555
C109_6 C108_6 1_555 1_555
H58_6 C109_6 1_555 1_555
C110_6 C109_6 1_555 1_555
C111_6 C110_6 1_555 1_555
H59_6 C111_6 1_555 1_555
C112_6 C107_6 1_555 1_555
H60_6 C112_6 1_555 1_555
C113_6 C114_6 1_555 1_555
C114_6 H61_6 1_555 1_555
C115_6 C114_6 1_555 1_555
H62_6 C115_6 1_555 1_555
C116_6 C115_6 1_555 1_555
C117_6 C116_6 1_555 1_555
H63_6 C117_6 1_555 1_555
C118_6 C113_6 1_555 1_555
C119_6 C120_6 1_555 1_555
C120_6 C121_6 1_555 1_555
C121_6 H64_6 1_555 1_555
C122_6 C121_6 1_555 1_555
H65_6 C122_6 1_555 1_555
C123_6 C122_6 1_555 1_555
C124_6 C119_6 1_555 1_555
H66_6 C124_6 1_555 1_555
C125_6 C116_6 1_555 1_555
C126_6 C123_6 1_555 1_555
N6_6 C110_6 1_555 1_555
O41_6 C106_6 1_555 1_555
O42_4 Zn22_2 1_555 1_555
O43_6 C118_6 1_555 1_555
O52_5 C125_6 1_555 1_555
O53_6 C125_6 1_555 1_555
O58 C126_6 1_555 1_555
O61_3 C126_6 1_555 1_555
Zn20 O48_2 1_555 1_555
Zn18 O49_2 1_555 1_555
O50_4 Zn21_2 1_555 1_555
O51_4 Zn22_2 1_555 1_555
C64_6 O27_4 1_555 1_555
C69_6 C70_6 1_555 1_555
C71_6 N4_6 1_555 1_555
C75_6 C76_6 1_555 1_555
C77_6 O28_6 1_555 1_555
C78_6 N4_6 1_555 1_555
C81_6 C82_6 1_555 1_555
C106_6 O42_4 1_555 1_555
C111_6 C112_6 1_555 1_555
C113_6 N6_6 1_555 1_555
C117_6 C118_6 1_555 1_555
C119_6 O43_6 1_555 1_555
C120_6 N6_6 1_555 1_555
C123_6 C124_6 1_555 1_555
O33_13 Cu3_7 1_555 1_555
H46_7 O33_13 1_555 1_555
O52_7 Cu3_7 1_555 1_555
O54_4 Cu3_7 1_555 1_555
Zn17 O26_7 1_555 1_555
Cu3_8 O29_4 1_555 1_555
C64_7 C65_7 1_555 1_555
C65_7 C66_7 1_555 1_555
C66_7 H35_7 1_555 1_555
C67_7 C66_7 1_555 1_555
H36_7 C67_7 1_555 1_555
C68_7 C67_7 1_555 1_555
C69_7 C68_7 1_555 1_555
H37_7 C69_7 1_555 1_555
C70_7 C65_7 1_555 1_555
H38_7 C70_7 1_555 1_555
C71_7 C72_7 1_555 1_555
C72_7 H39_7 1_555 1_555
C73_7 C72_7 1_555 1_555
H40_7 C73_7 1_555 1_555
C74_7 C73_7 1_555 1_555
C75_7 C74_7 1_555 1_555
H41_7 C75_7 1_555 1_555
C76_7 C71_7 1_555 1_555
C77_7 C78_7 1_555 1_555
C78_7 C79_7 1_555 1_555
C79_7 H42_7 1_555 1_555
C80_7 C79_7 1_555 1_555
H43_7 C80_7 1_555 1_555
C81_7 C80_7 1_555 1_555
C82_7 C77_7 1_555 1_555
H44_7 C82_7 1_555 1_555
C83_7 C74_7 1_555 1_555
C84_7 C81_7 1_555 1_555
N4_7 C68_7 1_555 1_555
O26_7 C64_7 1_555 1_555
O28_7 C76_7 1_555 1_555
O29_4 C83_7 1_555 1_555
O30_4 C83_7 1_555 1_555
O59 C84_7 1_555 1_555
O63 C84_7 1_555 1_555
O33_14 Cu3_8 1_555 1_555
H45_7 O33_14 1_555 1_555
Zn20 O41_7 1_555 1_555
C106_7 C107_7 1_555 1_555
C107_7 C108_7 1_555 1_555
C108_7 H57_7 1_555 1_555
C109_7 C108_7 1_555 1_555
H58_7 C109_7 1_555 1_555
C110_7 C109_7 1_555 1_555
C111_7 C110_7 1_555 1_555
H59_7 C111_7 1_555 1_555
C112_7 C107_7 1_555 1_555
H60_7 C112_7 1_555 1_555
C113_7 C114_7 1_555 1_555
C114_7 H61_7 1_555 1_555
C115_7 C114_7 1_555 1_555
H62_7 C115_7 1_555 1_555
C116_7 C115_7 1_555 1_555
C117_7 C116_7 1_555 1_555
H63_7 C117_7 1_555 1_555
C118_7 C113_7 1_555 1_555
C119_7 C120_7 1_555 1_555
C120_7 C121_7 1_555 1_555
C121_7 H64_7 1_555 1_555
C122_7 C121_7 1_555 1_555
H65_7 C122_7 1_555 1_555
C123_7 C122_7 1_555 1_555
C124_7 C119_7 1_555 1_555
H66_7 C124_7 1_555 1_555
C125_7 C116_7 1_555 1_555
C126_7 C123_7 1_555 1_555
N6_7 C110_7 1_555 1_555
O41_7 C106_7 1_555 1_555
O43_7 C118_7 1_555 1_555
O44_4 C125_7 1_555 1_555
O54_4 C125_7 1_555 1_555
O59_2 C126_7 1_555 1_555
O66 C126_7 1_555 1_555
Cu6_7 O44_4 1_555 1_555
Cu6_8 O30_4 1_555 1_555
O53_7 Cu3_8 1_555 1_555
C64_7 O50_3 1_555 1_555
C69_7 C70_7 1_555 1_555
C71_7 N4_7 1_555 1_555
C75_7 C76_7 1_555 1_555
C77_7 O28_7 1_555 1_555
C78_7 N4_7 1_555 1_555
C81_7 C82_7 1_555 1_555
C106_7 O50_4 1_555 1_555
C111_7 C112_7 1_555 1_555
C113_7 N6_7 1_555 1_555
C117_7 C118_7 1_555 1_555
C119_7 O43_7 1_555 1_555
C120_7 N6_7 1_555 1_555
C123_7 C124_7 1_555 1_555
O33_15 Cu6_7 1_555 1_555
H45_8 O33_15 1_555 1_555
O53_8 Cu6_7 1_555 1_555
O33_16 Cu6_8 1_555 1_555
H46_8 O33_16 1_555 1_555
O52_8 Cu6_8 1_555 1_555
Zn19 O26_8 1_555 1_555
C64_8 C65_8 1_555 1_555
C65_8 C66_8 1_555 1_555
C66_8 H35_8 1_555 1_555
C67_8 C66_8 1_555 1_555
H36_8 C67_8 1_555 1_555
C68_8 C67_8 1_555 1_555
C69_8 C68_8 1_555 1_555
H37_8 C69_8 1_555 1_555
C70_8 C65_8 1_555 1_555
H38_8 C70_8 1_555 1_555
C71_8 C72_8 1_555 1_555
C72_8 H39_8 1_555 1_555
C73_8 C72_8 1_555 1_555
H40_8 C73_8 1_555 1_555
C74_8 C73_8 1_555 1_555
C75_8 C74_8 1_555 1_555
H41_8 C75_8 1_555 1_555
C76_8 C71_8 1_555 1_555
C77_8 C78_8 1_555 1_555
C78_8 C79_8 1_555 1_555
C79_8 H42_8 1_555 1_555
C80_8 C79_8 1_555 1_555
H43_8 C80_8 1_555 1_555
C81_8 C80_8 1_555 1_555
C82_8 C77_8 1_555 1_555
H44_8 C82_8 1_555 1_555
C83_8 C74_8 1_555 1_555
C84_8 C81_8 1_555 1_555
N4_8 C68_8 1_555 1_555
O26_8 C64_8 1_555 1_555
O28_8 C76_8 1_555 1_555
O52_7 C83_8 1_555 1_555
O53_8 C83_8 1_555 1_555
O60 C84_8 1_555 1_555
O65 C84_8 1_555 1_555
Zn18 O41_8 1_555 1_555
C106_8 C107_8 1_555 1_555
C107_8 C108_8 1_555 1_555
C108_8 H57_8 1_555 1_555
C109_8 C108_8 1_555 1_555
H58_8 C109_8 1_555 1_555
C110_8 C109_8 1_555 1_555
C111_8 C110_8 1_555 1_555
H59_8 C111_8 1_555 1_555
C112_8 C107_8 1_555 1_555
H60_8 C112_8 1_555 1_555
C113_8 C114_8 1_555 1_555
C114_8 H61_8 1_555 1_555
C115_8 C114_8 1_555 1_555
H62_8 C115_8 1_555 1_555
C116_8 C115_8 1_555 1_555
C117_8 C116_8 1_555 1_555
H63_8 C117_8 1_555 1_555
C118_8 C113_8 1_555 1_555
C119_8 C120_8 1_555 1_555
C120_8 C121_8 1_555 1_555
C121_8 H64_8 1_555 1_555
C122_8 C121_8 1_555 1_555
H65_8 C122_8 1_555 1_555
C123_8 C122_8 1_555 1_555
C124_8 C119_8 1_555 1_555
H66_8 C124_8 1_555 1_555
C125_8 C116_8 1_555 1_555
C126_8 C123_8 1_555 1_555
N6_8 C110_8 1_555 1_555
O41_8 C106_8 1_555 1_555
O43_8 C118_8 1_555 1_555
O52_8 C125_8 1_555 1_555
O53_7 C125_8 1_555 1_555
O60_2 C126_8 1_555 1_555
O64 C126_8 1_555 1_555
C64_8 O51_3 1_555 1_555
C69_8 C70_8 1_555 1_555
C71_8 N4_8 1_555 1_555
C75_8 C76_8 1_555 1_555
C77_8 O28_8 1_555 1_555
C78_8 N4_8 1_555 1_555
C81_8 C82_8 1_555 1_555
C106_8 O51_4 1_555 1_555
C111_8 C112_8 1_555 1_555
C113_8 N6_8 1_555 1_555
C117_8 C118_8 1_555 1_555
C119_8 O43_8 1_555 1_555
C120_8 N6_8 1_555 1_555
C123_8 C124_8 1_555 1_555

#END
