
###############################################################################
#
# This file contains modified crystal structure data generated from the
# MOF subset of the Cambridge Structural Database (CSD) v543 
# hosted by the Cambridge Crystallographic Data Centre (CCDC).
#
# This work is licensed under the Creative Commons
# Attribution-NonCommercial-ShareAlike 4.0 International License.
# To view a copy of this license, visit
# http://creativecommons.org/licenses/by-nc-sa/4.0/
# or send a letter to
# Creative Commons, PO Box 1866, Mountain View, CA 94042, USA.
#
# CIF created using the CSD Python API on 29 September 2022
# The structure has been converted into the P1 space group
# The structure has a 3D framework
# The original CSD entry MAHCIK is in the cubic crystal system
# The original CSD entry MAHCIK is in a Sohncke space group
# The framework has been calculated to contain at least 10.0% void space
# The void calculation uses a probe of radius 1.32A, grid spacing 0.4
#
###############################################################################

data_MAHCIK
_chemical_formula_moiety         '(C504 H264 N24 O192 Zn56)n'
_symmetry_cell_setting           triclinic
_symmetry_space_group_name_H-M   'P 1'
_symmetry_Int_Tables_number      1
_space_group_name_Hall           'P 1'
loop_
_symmetry_equiv_pos_site_id
_symmetry_equiv_pos_as_xyz
1 x,y,z
_cell_length_a                   33.5988(8)
_cell_length_b                   33.5988(8)
_cell_length_c                   33.5988(8)
_cell_angle_alpha                90
_cell_angle_beta                 90
_cell_angle_gamma                90
_cell_volume                     37929
loop_
_atom_site_label
_atom_site_type_symbol
_atom_site_fract_x
_atom_site_fract_y
_atom_site_fract_z
Zn27 Zn 0.0000 0.54384(6) 0.5000
Zn28 Zn 0.0000 0.45616(6) 0.5000
Zn1 Zn 0.72341(4) 0.72341(4) 0.27659(4)
Zn2 Zn 0.72677(4) 0.77192(5) 0.19688(4)
Zn3 Zn 0.54384(6) 0.5000 0.0000
C1 C 0.53980(13) 0.69167(12) 0.18538(13)
C2 C 0.56230(16) 0.72214(13) 0.16875(17)
H1 H 0.5525 0.7363 0.1471
C3 C 0.59941(16) 0.73142(18) 0.1845(2)
H2 H 0.6145 0.7518 0.1734
C4 C 0.61402(14) 0.7102(2) 0.2169(2)
C5 C 0.59153(15) 0.6798(2) 0.23352(18)
H3 H 0.6013 0.6656 0.2552
C6 C 0.55441(14) 0.67048(15) 0.21777(14)
H4 H 0.5394 0.6501 0.2289
C7 C 0.5012(2) 0.58408(15) 0.08183(15)
C8 C 0.5371(2) 0.60131(14) 0.09323(14)
H5 H 0.5598 0.5972 0.0781
C9 C 0.53883(16) 0.62475(12) 0.12728(13)
H6 H 0.5628 0.6363 0.1349
C10 C 0.50477(15) 0.63096(10) 0.14991(12)
C11 C 0.46893(16) 0.61373(12) 0.13851(14)
C12 C 0.4671(2) 0.59029(14) 0.10447(16)
H7 H 0.4432 0.5788 0.0968
C13 C 0.39470(14) 0.7109(2) 0.21891(19)
C14 C 0.39578(13) 0.6812(2) 0.19013(19)
H8 H 0.3722 0.6705 0.1804
C15 C 0.43212(13) 0.66759(15) 0.17583(15)
C16 C 0.46739(13) 0.68366(12) 0.19030(12)
C17 C 0.46632(15) 0.71335(13) 0.21908(13)
H9 H 0.4899 0.7241 0.2288
C18 C 0.42997(16) 0.72698(17) 0.23339(16)
H10 H 0.4292 0.7469 0.2526
O1 O 0.3225(3) 0.6947(4) 0.2144(4)
C19 C 0.3481(5) 0.7102(5) 0.2304(4)
O2 O 0.3517(2) 0.7497(3) 0.2517(3)
C20 C 0.5013(4) 0.5567(4) 0.0505(4)
O3 O 0.5332(3) 0.5453(2) 0.0394(2)
O4 O 0.6054(3) 0.5000 0.0000
O5 O 0.4687(3) 0.5399(3) 0.0426(3)
O6 O 0.4350(3) 0.6322(4) 0.1488(4)
C21 C 0.6591(3) 0.7291(4) 0.2257(3)
O7 O 0.6727(2) 0.7488(2) 0.1992(2)
O8 O 0.6712(2) 0.7137(3) 0.2562(2)
O9 O 0.75533(19) 0.75533(19) 0.24467(19)
N1 N 0.5062(3) 0.6715(5) 0.1721(4)
H12 H 0.6135 0.4770 0.0014
Zn4 Zn 0.27659(4) 0.27659(4) 0.27659(4)
Zn5 Zn 0.27323(4) 0.22808(5) 0.19688(4)
Zn6 Zn 0.45616(6) 0.5000 0.0000
C22 C 0.46020(13) 0.30833(12) 0.18538(13)
C23 C 0.43770(16) 0.27786(13) 0.16875(17)
H13 H 0.4475 0.2637 0.1471
C24 C 0.40059(16) 0.26858(18) 0.1845(2)
H14 H 0.3855 0.2482 0.1734
C25 C 0.38598(14) 0.2898(2) 0.2169(2)
C26 C 0.40847(15) 0.3202(2) 0.23352(18)
H15 H 0.3987 0.3344 0.2552
C27 C 0.44559(14) 0.32952(15) 0.21777(14)
H16 H 0.4606 0.3499 0.2289
C28 C 0.4988(2) 0.41592(15) 0.08183(15)
C29 C 0.4629(2) 0.39869(14) 0.09323(14)
H17 H 0.4402 0.4028 0.0781
C30 C 0.46117(16) 0.37525(12) 0.12728(13)
H18 H 0.4372 0.3637 0.1349
C31 C 0.49523(15) 0.36904(10) 0.14991(12)
C32 C 0.53107(16) 0.38627(12) 0.13851(14)
C33 C 0.5329(2) 0.40971(14) 0.10447(16)
H19 H 0.5568 0.4212 0.0968
C34 C 0.60530(14) 0.2891(2) 0.21891(19)
C35 C 0.60422(13) 0.3188(2) 0.19013(19)
H20 H 0.6278 0.3295 0.1804
C36 C 0.56788(13) 0.33241(15) 0.17583(15)
C37 C 0.53261(13) 0.31634(12) 0.19030(12)
C38 C 0.53368(15) 0.28665(13) 0.21908(13)
H21 H 0.5101 0.2759 0.2288
C39 C 0.57003(16) 0.27302(17) 0.23339(16)
H22 H 0.5708 0.2531 0.2526
O10 O 0.6775(3) 0.3053(4) 0.2144(4)
C40 C 0.6519(5) 0.2898(5) 0.2304(4)
O11 O 0.6483(2) 0.2503(3) 0.2517(3)
C41 C 0.4987(4) 0.4433(4) 0.0505(4)
O12 O 0.4668(3) 0.4547(2) 0.0394(2)
O13 O 0.3946(3) 0.5000 0.0000
O14 O 0.5313(3) 0.4601(3) 0.0426(3)
O15 O 0.5650(3) 0.3678(4) 0.1488(4)
C42 C 0.3409(3) 0.2709(4) 0.2257(3)
O16 O 0.3273(2) 0.2512(2) 0.1992(2)
O17 O 0.3288(2) 0.2863(3) 0.2562(2)
O18 O 0.24467(19) 0.24467(19) 0.24467(19)
N2 N 0.4938(3) 0.3285(5) 0.1721(4)
H24 H 0.3865 0.5230 0.0014
Zn9 Zn 0.19688(4) 0.27323(4) 0.22808(5)
C85 C 0.18538(13) 0.46020(13) 0.30833(12)
C86 C 0.16875(17) 0.43770(16) 0.27786(13)
H45 H 0.1471 0.4475 0.2637
C87 C 0.1845(2) 0.40059(16) 0.26858(18)
H46 H 0.1734 0.3855 0.2482
C88 C 0.2169(2) 0.38598(14) 0.2898(2)
C89 C 0.23352(18) 0.40847(15) 0.3202(2)
H47 H 0.2552 0.3987 0.3344
C90 C 0.21777(14) 0.44559(14) 0.32952(15)
H48 H 0.2289 0.4606 0.3499
C91 C 0.08183(15) 0.4988(2) 0.41592(15)
C92 C 0.09323(14) 0.4629(2) 0.39869(14)
H49 H 0.0781 0.4402 0.4028
C93 C 0.12728(13) 0.46117(16) 0.37525(12)
H50 H 0.1349 0.4372 0.3637
C94 C 0.14991(12) 0.49523(15) 0.36904(10)
C95 C 0.13851(14) 0.53107(16) 0.38627(12)
C96 C 0.10447(16) 0.5329(2) 0.40971(14)
H51 H 0.0968 0.5568 0.4212
C97 C 0.21891(19) 0.60530(14) 0.2891(2)
C98 C 0.19013(19) 0.60422(13) 0.3188(2)
H52 H 0.1804 0.6278 0.3295
C99 C 0.17583(15) 0.56788(13) 0.33241(15)
C100 C 0.19030(12) 0.53261(13) 0.31634(12)
C101 C 0.21908(13) 0.53368(15) 0.28665(13)
H53 H 0.2288 0.5101 0.2759
C102 C 0.23339(16) 0.57003(16) 0.27302(17)
H54 H 0.2526 0.5708 0.2531
O33 O 0.2144(4) 0.6775(3) 0.3053(4)
C103 C 0.2304(4) 0.6519(5) 0.2898(5)
O34 O 0.2517(3) 0.6483(2) 0.2503(3)
C104 C 0.0505(4) 0.4987(4) 0.4433(4)
O35 O 0.0394(2) 0.4668(3) 0.4547(2)
O36 O 0.0000 0.3946(3) 0.5000
O37 O 0.0426(3) 0.5313(3) 0.4601(3)
O38 O 0.1488(4) 0.5650(3) 0.3678(4)
C105 C 0.2257(3) 0.3409(3) 0.2709(4)
O39 O 0.1992(2) 0.3273(2) 0.2512(2)
O40 O 0.2562(2) 0.3288(2) 0.2863(3)
N5 N 0.1721(4) 0.4938(3) 0.3285(5)
H56 H 0.0014 0.3865 0.5230
Zn11 Zn 0.80312(4) 0.72677(4) 0.22808(5)
C106 C 0.81462(13) 0.53980(13) 0.30833(12)
C107 C 0.83125(17) 0.56230(16) 0.27786(13)
H57 H 0.8529 0.5525 0.2637
C108 C 0.8155(2) 0.59941(16) 0.26858(18)
H58 H 0.8266 0.6145 0.2482
C109 C 0.7831(2) 0.61402(14) 0.2898(2)
C110 C 0.76648(18) 0.59153(15) 0.3202(2)
H59 H 0.7448 0.6013 0.3344
C111 C 0.78223(14) 0.55441(14) 0.32952(15)
H60 H 0.7711 0.5394 0.3499
C112 C 0.91817(15) 0.5012(2) 0.41592(15)
C113 C 0.90677(14) 0.5371(2) 0.39869(14)
H61 H 0.9219 0.5598 0.4028
C114 C 0.87272(13) 0.53883(16) 0.37525(12)
H62 H 0.8651 0.5628 0.3637
C115 C 0.85009(12) 0.50477(15) 0.36904(10)
C116 C 0.86149(14) 0.46893(16) 0.38627(12)
C117 C 0.89553(16) 0.4671(2) 0.40971(14)
H63 H 0.9032 0.4432 0.4212
C118 C 0.78109(19) 0.39470(14) 0.2891(2)
C119 C 0.80987(19) 0.39578(13) 0.3188(2)
H64 H 0.8196 0.3722 0.3295
C120 C 0.82417(15) 0.43212(13) 0.33241(15)
C121 C 0.80970(12) 0.46739(13) 0.31634(12)
C122 C 0.78092(13) 0.46632(15) 0.28665(13)
H65 H 0.7712 0.4899 0.2759
C123 C 0.76661(16) 0.42997(16) 0.27302(17)
H66 H 0.7474 0.4292 0.2531
O41 O 0.7856(4) 0.3225(3) 0.3053(4)
C124 C 0.7696(4) 0.3481(5) 0.2898(5)
O42 O 0.7483(3) 0.3517(2) 0.2503(3)
C125 C 0.9495(4) 0.5013(4) 0.4433(4)
O43 O 0.9606(2) 0.5332(3) 0.4547(2)
O44 O 0.9574(3) 0.4687(3) 0.4601(3)
O45 O 0.8512(4) 0.4350(3) 0.3678(4)
C126 C 0.7743(3) 0.6591(3) 0.2709(4)
O46 O 0.8008(2) 0.6727(2) 0.2512(2)
O47 O 0.7438(2) 0.6712(2) 0.2863(3)
N6 N 0.8279(4) 0.5062(3) 0.3285(5)
Zn14 Zn 0.22808(5) 0.19688(4) 0.27323(4)
Zn15 Zn 0.77192(5) 0.80312(4) 0.27323(4)
Zn16 Zn 0.22677(4) 0.72808(5) 0.30312(4)
Zn17 Zn 0.69688(4) 0.22677(4) 0.27192(5)
Zn18 Zn 0.77323(4) 0.27192(5) 0.30312(4)
Zn20 Zn 0.30312(4) 0.77323(4) 0.27192(5)
Zn22 Zn 0.27192(5) 0.69688(4) 0.22677(4)
Zn24 Zn 0.72808(5) 0.30312(4) 0.22677(4)
Zn27_2 Zn 1.0000 0.54384(6) 0.5000
Zn28_2 Zn 1.0000 0.45616(6) 0.5000
O48 O 0.7144(4) 0.8225(3) 0.1947(4)
O50 O 0.2856(4) 0.1775(3) 0.1947(4)
O52 O 0.8053(4) 0.7144(4) 0.1775(3)
O53 O 0.1947(4) 0.2856(4) 0.1775(3)
O54 O 0.8517(2) 0.7503(3) 0.2483(3)
O55 O 0.1483(2) 0.2497(3) 0.2483(3)
O57 O 0.7503(3) 0.7517(3) 0.1483(2)
O59 O 0.2497(3) 0.2483(3) 0.1483(2)
O61 O 0.0426(3) 0.4687(3) 0.5399(3)
O63 O 0.2863(3) 0.2562(2) 0.3288(2)
O64 O 0.7137(3) 0.7438(2) 0.3288(2)
Zn3_2 Zn 0.54384(6) 0.5000 1.0000
O4_2 O 0.6054(3) 0.5000 1.0000
H11 H 0.6135 0.5230 0.9986
Zn6_2 Zn 0.45616(6) 0.5000 1.0000
O13_2 O 0.3946(3) 0.5000 1.0000
H23 H 0.3865 0.4770 0.9986
Zn7 Zn 0.72677(4) 0.22808(5) 0.80312(4)
C43 C 0.53980(13) 0.30833(12) 0.81462(13)
C44 C 0.56230(16) 0.27786(13) 0.83125(17)
H25 H 0.5525 0.2637 0.8529
C45 C 0.59941(16) 0.26858(18) 0.8155(2)
H26 H 0.6145 0.2482 0.8266
C46 C 0.61402(14) 0.2898(2) 0.7831(2)
C47 C 0.59153(15) 0.3202(2) 0.76648(18)
H27 H 0.6013 0.3344 0.7448
C48 C 0.55441(14) 0.32952(15) 0.78223(14)
H28 H 0.5394 0.3499 0.7711
C49 C 0.5012(2) 0.41592(15) 0.91817(15)
C50 C 0.5371(2) 0.39869(14) 0.90677(14)
H29 H 0.5598 0.4028 0.9219
C51 C 0.53883(16) 0.37525(12) 0.87272(13)
H30 H 0.5628 0.3637 0.8651
C52 C 0.50477(15) 0.36904(10) 0.85009(12)
C53 C 0.46893(16) 0.38627(12) 0.86149(14)
C54 C 0.4671(2) 0.40971(14) 0.89553(16)
H31 H 0.4432 0.4212 0.9032
C55 C 0.39470(14) 0.2891(2) 0.78109(19)
C56 C 0.39578(13) 0.3188(2) 0.80987(19)
H32 H 0.3722 0.3295 0.8196
C57 C 0.43212(13) 0.33241(15) 0.82417(15)
C58 C 0.46739(13) 0.31634(12) 0.80970(12)
C59 C 0.46632(15) 0.28665(13) 0.78092(13)
H33 H 0.4899 0.2759 0.7712
C60 C 0.42997(16) 0.27302(17) 0.76661(16)
H34 H 0.4292 0.2531 0.7474
O19 O 0.3225(3) 0.3053(4) 0.7856(4)
C61 C 0.3481(5) 0.2898(5) 0.7696(4)
O20 O 0.3517(2) 0.2503(3) 0.7483(3)
C62 C 0.5013(4) 0.4433(4) 0.9495(4)
O21 O 0.5332(3) 0.4547(2) 0.9606(2)
O22 O 0.4687(3) 0.4601(3) 0.9574(3)
O23 O 0.4350(3) 0.3678(4) 0.8512(4)
C63 C 0.6591(3) 0.2709(4) 0.7743(3)
O24 O 0.6727(2) 0.2512(2) 0.8008(2)
O25 O 0.6712(2) 0.2863(3) 0.7438(2)
N3 N 0.5062(3) 0.3285(5) 0.8279(4)
Zn8 Zn 0.27323(4) 0.77192(5) 0.80312(4)
C64 C 0.46020(13) 0.69167(12) 0.81462(13)
C65 C 0.43770(16) 0.72214(13) 0.83125(17)
H35 H 0.4475 0.7363 0.8529
C66 C 0.40059(16) 0.73142(18) 0.8155(2)
H36 H 0.3855 0.7518 0.8266
C67 C 0.38598(14) 0.7102(2) 0.7831(2)
C68 C 0.40847(15) 0.6798(2) 0.76648(18)
H37 H 0.3987 0.6656 0.7448
C69 C 0.44559(14) 0.67048(15) 0.78223(14)
H38 H 0.4606 0.6501 0.7711
C70 C 0.4988(2) 0.58408(15) 0.91817(15)
C71 C 0.4629(2) 0.60131(14) 0.90677(14)
H39 H 0.4402 0.5972 0.9219
C72 C 0.46117(16) 0.62475(12) 0.87272(13)
H40 H 0.4372 0.6363 0.8651
C73 C 0.49523(15) 0.63096(10) 0.85009(12)
C74 C 0.53107(16) 0.61373(12) 0.86149(14)
C75 C 0.5329(2) 0.59029(14) 0.89553(16)
H41 H 0.5568 0.5788 0.9032
C76 C 0.60530(14) 0.7109(2) 0.78109(19)
C77 C 0.60422(13) 0.6812(2) 0.80987(19)
H42 H 0.6278 0.6705 0.8196
C78 C 0.56788(13) 0.66759(15) 0.82417(15)
C79 C 0.53261(13) 0.68366(12) 0.80970(12)
C80 C 0.53368(15) 0.71335(13) 0.78092(13)
H43 H 0.5101 0.7241 0.7712
C81 C 0.57003(16) 0.72698(17) 0.76661(16)
H44 H 0.5708 0.7469 0.7474
O26 O 0.6775(3) 0.6947(4) 0.7856(4)
C82 C 0.6519(5) 0.7102(5) 0.7696(4)
O27 O 0.6483(2) 0.7497(3) 0.7483(3)
C83 C 0.4987(4) 0.5567(4) 0.9495(4)
O28 O 0.4668(3) 0.5453(2) 0.9606(2)
O29 O 0.5313(3) 0.5399(3) 0.9574(3)
O30 O 0.5650(3) 0.6322(4) 0.8512(4)
C84 C 0.3409(3) 0.7291(4) 0.7743(3)
O31 O 0.3273(2) 0.7488(2) 0.8008(2)
O32 O 0.3288(2) 0.7137(3) 0.7438(2)
N4 N 0.4938(3) 0.6715(5) 0.8279(4)
Zn12 Zn 0.72341(4) 0.27659(4) 0.72341(4)
Zn13 Zn 0.27659(4) 0.72341(4) 0.72341(4)
Zn19 Zn 0.69688(4) 0.77323(4) 0.72808(5)
Zn21 Zn 0.30312(4) 0.22677(4) 0.72808(5)
Zn23 Zn 0.72808(5) 0.69688(4) 0.77323(4)
Zn25 Zn 0.27192(5) 0.30312(4) 0.77323(4)
O49 O 0.7144(4) 0.1775(3) 0.8053(4)
O51 O 0.2856(4) 0.8225(3) 0.8053(4)
O56 O 0.2497(3) 0.7517(3) 0.8517(2)
O58 O 0.7503(3) 0.2483(3) 0.8517(2)
O65 O 0.75533(19) 0.24467(19) 0.75533(19)
O66 O 0.24467(19) 0.75533(19) 0.75533(19)
O36_2 O 1.0000 0.3946(3) 0.5000
H55 H 0.9986 0.3865 0.4770
O60 O 0.9606(2) 0.4668(3) 0.5453(2)
O36_3 O 0.0000 0.6054(3) 0.5000
H55_2 H 0.0014 0.6135 0.4770
O60_2 O 0.0394(2) 0.5332(3) 0.5453(2)
O36_4 O 1.0000 0.6054(3) 0.5000
H56_2 H 0.9986 0.6135 0.5230
O61_2 O 0.9574(3) 0.5313(3) 0.5399(3)
Zn9_2 Zn 0.19688(4) 0.72677(4) 0.77192(5)
C85_2 C 0.18538(13) 0.53980(13) 0.69167(12)
C86_2 C 0.16875(17) 0.56230(16) 0.72214(13)
H45_2 H 0.1471 0.5525 0.7363
C87_2 C 0.1845(2) 0.59941(16) 0.73142(18)
H46_2 H 0.1734 0.6145 0.7518
C88_2 C 0.2169(2) 0.61402(14) 0.7102(2)
C89_2 C 0.23352(18) 0.59153(15) 0.6798(2)
H47_2 H 0.2552 0.6013 0.6656
C90_2 C 0.21777(14) 0.55441(14) 0.67048(15)
H48_2 H 0.2289 0.5394 0.6501
C91_2 C 0.08183(15) 0.5012(2) 0.58408(15)
C92_2 C 0.09323(14) 0.5371(2) 0.60131(14)
H49_2 H 0.0781 0.5598 0.5972
C93_2 C 0.12728(13) 0.53883(16) 0.62475(12)
H50_2 H 0.1349 0.5628 0.6363
C94_2 C 0.14991(12) 0.50477(15) 0.63096(10)
C95_2 C 0.13851(14) 0.46893(16) 0.61373(12)
C96_2 C 0.10447(16) 0.4671(2) 0.59029(14)
H51_2 H 0.0968 0.4432 0.5788
C97_2 C 0.21891(19) 0.39470(14) 0.7109(2)
C98_2 C 0.19013(19) 0.39578(13) 0.6812(2)
H52_2 H 0.1804 0.3722 0.6705
C99_2 C 0.17583(15) 0.43212(13) 0.66759(15)
C100_2 C 0.19030(12) 0.46739(13) 0.68366(12)
C101_2 C 0.21908(13) 0.46632(15) 0.71335(13)
H53_2 H 0.2288 0.4899 0.7241
C102_2 C 0.23339(16) 0.42997(16) 0.72698(17)
H54_2 H 0.2526 0.4292 0.7469
O33_2 O 0.2144(4) 0.3225(3) 0.6947(4)
C103_2 C 0.2304(4) 0.3481(5) 0.7102(5)
O34_2 O 0.2517(3) 0.3517(2) 0.7497(3)
C104_2 C 0.0505(4) 0.5013(4) 0.5567(4)
O38_2 O 0.1488(4) 0.4350(3) 0.6322(4)
C105_2 C 0.2257(3) 0.6591(3) 0.7291(4)
O39_2 O 0.1992(2) 0.6727(2) 0.7488(2)
O40_2 O 0.2562(2) 0.6712(2) 0.7137(3)
N5_2 N 0.1721(4) 0.5062(3) 0.6715(5)
Zn11_2 Zn 0.80312(4) 0.27323(4) 0.77192(5)
C106_2 C 0.81462(13) 0.46020(13) 0.69167(12)
C107_2 C 0.83125(17) 0.43770(16) 0.72214(13)
H57_2 H 0.8529 0.4475 0.7363
C108_2 C 0.8155(2) 0.40059(16) 0.73142(18)
H58_2 H 0.8266 0.3855 0.7518
C109_2 C 0.7831(2) 0.38598(14) 0.7102(2)
C110_2 C 0.76648(18) 0.40847(15) 0.6798(2)
H59_2 H 0.7448 0.3987 0.6656
C111_2 C 0.78223(14) 0.44559(14) 0.67048(15)
H60_2 H 0.7711 0.4606 0.6501
C112_2 C 0.91817(15) 0.4988(2) 0.58408(15)
C113_2 C 0.90677(14) 0.4629(2) 0.60131(14)
H61_2 H 0.9219 0.4402 0.5972
C114_2 C 0.87272(13) 0.46117(16) 0.62475(12)
H62_2 H 0.8651 0.4372 0.6363
C115_2 C 0.85009(12) 0.49523(15) 0.63096(10)
C116_2 C 0.86149(14) 0.53107(16) 0.61373(12)
C117_2 C 0.89553(16) 0.5329(2) 0.59029(14)
H63_2 H 0.9032 0.5568 0.5788
C118_2 C 0.78109(19) 0.60530(14) 0.7109(2)
C119_2 C 0.80987(19) 0.60422(13) 0.6812(2)
H64_2 H 0.8196 0.6278 0.6705
C120_2 C 0.82417(15) 0.56788(13) 0.66759(15)
C121_2 C 0.80970(12) 0.53261(13) 0.68366(12)
C122_2 C 0.78092(13) 0.53368(15) 0.71335(13)
H65_2 H 0.7712 0.5101 0.7241
C123_2 C 0.76661(16) 0.57003(16) 0.72698(17)
H66_2 H 0.7474 0.5708 0.7469
O41_2 O 0.7856(4) 0.6775(3) 0.6947(4)
C124_2 C 0.7696(4) 0.6519(5) 0.7102(5)
O42_2 O 0.7483(3) 0.6483(2) 0.7497(3)
C125_2 C 0.9495(4) 0.4987(4) 0.5567(4)
O45_2 O 0.8512(4) 0.5650(3) 0.6322(4)
C126_2 C 0.7743(3) 0.3409(3) 0.7291(4)
O46_2 O 0.8008(2) 0.3273(2) 0.7488(2)
O47_2 O 0.7438(2) 0.3288(2) 0.7137(3)
N6_2 N 0.8279(4) 0.4938(3) 0.6715(5)
Zn14_2 Zn 0.22808(5) 0.80312(4) 0.72677(4)
Zn15_2 Zn 0.77192(5) 0.19688(4) 0.72677(4)
Zn16_2 Zn 0.22677(4) 0.27192(5) 0.69688(4)
Zn18_2 Zn 0.77323(4) 0.72808(5) 0.69688(4)
O52_2 O 0.8053(4) 0.2856(4) 0.8225(3)
O53_2 O 0.1947(4) 0.7144(4) 0.8225(3)
O54_2 O 0.8517(2) 0.2497(3) 0.7517(3)
O55_2 O 0.1483(2) 0.7503(3) 0.7517(3)
O63_2 O 0.2863(3) 0.7438(2) 0.6712(2)
O64_2 O 0.7137(3) 0.2562(2) 0.6712(2)
Zn27_3 Zn 0.5000 0.0000 0.54384(6)
Zn28_3 Zn 0.5000 0.0000 0.45616(6)
C85_3 C 0.30833(12) 0.18538(13) 0.46020(13)
C86_3 C 0.27786(13) 0.16875(17) 0.43770(16)
H45_3 H 0.2637 0.1471 0.4475
C87_3 C 0.26858(18) 0.1845(2) 0.40059(16)
H46_3 H 0.2482 0.1734 0.3855
C88_3 C 0.2898(2) 0.2169(2) 0.38598(14)
C89_3 C 0.3202(2) 0.23352(18) 0.40847(15)
H47_3 H 0.3344 0.2552 0.3987
C90_3 C 0.32952(15) 0.21777(14) 0.44559(14)
H48_3 H 0.3499 0.2289 0.4606
C91_3 C 0.41592(15) 0.08183(15) 0.4988(2)
C92_3 C 0.39869(14) 0.09323(14) 0.4629(2)
H49_3 H 0.4028 0.0781 0.4402
C93_3 C 0.37525(12) 0.12728(13) 0.46117(16)
H50_3 H 0.3637 0.1349 0.4372
C94_3 C 0.36904(10) 0.14991(12) 0.49523(15)
C95_3 C 0.38627(12) 0.13851(14) 0.53107(16)
C96_3 C 0.40971(14) 0.10447(16) 0.5329(2)
H51_3 H 0.4212 0.0968 0.5568
C97_3 C 0.2891(2) 0.21891(19) 0.60530(14)
C98_3 C 0.3188(2) 0.19013(19) 0.60422(13)
H52_3 H 0.3295 0.1804 0.6278
C99_3 C 0.33241(15) 0.17583(15) 0.56788(13)
C100_3 C 0.31634(12) 0.19030(12) 0.53261(13)
C101_3 C 0.28665(13) 0.21908(13) 0.53368(15)
H53_3 H 0.2759 0.2288 0.5101
C102_3 C 0.27302(17) 0.23339(16) 0.57003(16)
H54_3 H 0.2531 0.2526 0.5708
O33_3 O 0.3053(4) 0.2144(4) 0.6775(3)
C103_3 C 0.2898(5) 0.2304(4) 0.6519(5)
O34_3 O 0.2503(3) 0.2517(3) 0.6483(2)
C104_3 C 0.4433(4) 0.0505(4) 0.4987(4)
O35_2 O 0.4547(2) 0.0394(2) 0.4668(3)
O36_5 O 0.5000 0.0000 0.3946(3)
O37_2 O 0.4601(3) 0.0426(3) 0.5313(3)
O38_3 O 0.3678(4) 0.1488(4) 0.5650(3)
C105_3 C 0.2709(4) 0.2257(3) 0.3409(3)
O39_3 O 0.2512(2) 0.1992(2) 0.3273(2)
N5_3 N 0.3285(5) 0.1721(4) 0.4938(3)
H56_3 H 0.5230 0.0014 0.3865
C106_3 C 0.30833(12) 0.81462(13) 0.53980(13)
C107_3 C 0.27786(13) 0.83125(17) 0.56230(16)
H57_3 H 0.2637 0.8529 0.5525
C108_3 C 0.26858(18) 0.8155(2) 0.59941(16)
H58_3 H 0.2482 0.8266 0.6145
C109_3 C 0.2898(2) 0.7831(2) 0.61402(14)
C110_3 C 0.3202(2) 0.76648(18) 0.59153(15)
H59_3 H 0.3344 0.7448 0.6013
C111_3 C 0.32952(15) 0.78223(14) 0.55441(14)
H60_3 H 0.3499 0.7711 0.5394
C112_3 C 0.41592(15) 0.91817(15) 0.5012(2)
C113_3 C 0.39869(14) 0.90677(14) 0.5371(2)
H61_3 H 0.4028 0.9219 0.5598
C114_3 C 0.37525(12) 0.87272(13) 0.53883(16)
H62_3 H 0.3637 0.8651 0.5628
C115_3 C 0.36904(10) 0.85009(12) 0.50477(15)
C116_3 C 0.38627(12) 0.86149(14) 0.46893(16)
C117_3 C 0.40971(14) 0.89553(16) 0.4671(2)
H63_3 H 0.4212 0.9032 0.4432
C118_3 C 0.2891(2) 0.78109(19) 0.39470(14)
C119_3 C 0.3188(2) 0.80987(19) 0.39578(13)
H64_3 H 0.3295 0.8196 0.3722
C120_3 C 0.33241(15) 0.82417(15) 0.43212(13)
C121_3 C 0.31634(12) 0.80970(12) 0.46739(13)
C122_3 C 0.28665(13) 0.78092(13) 0.46632(15)
H65_3 H 0.2759 0.7712 0.4899
C123_3 C 0.27302(17) 0.76661(16) 0.42997(16)
H66_3 H 0.2531 0.7474 0.4292
O41_3 O 0.3053(4) 0.7856(4) 0.3225(3)
C124_3 C 0.2898(5) 0.7696(4) 0.3481(5)
O42_3 O 0.2503(3) 0.7483(3) 0.3517(2)
C125_3 C 0.4433(4) 0.9495(4) 0.5013(4)
O43_2 O 0.4547(2) 0.9606(2) 0.5332(3)
O44_2 O 0.4601(3) 0.9574(3) 0.4687(3)
O45_3 O 0.3678(4) 0.8512(4) 0.4350(3)
C126_3 C 0.2709(4) 0.7743(3) 0.6591(3)
O46_3 O 0.2512(2) 0.8008(2) 0.6727(2)
N6_3 N 0.3285(5) 0.8279(4) 0.5062(3)
Zn27_4 Zn 0.5000 1.0000 0.54384(6)
Zn28_4 Zn 0.5000 1.0000 0.45616(6)
O52_3 O 0.1775(3) 0.8053(4) 0.7144(4)
O53_3 O 0.1775(3) 0.1947(4) 0.2856(4)
O54_3 O 0.2483(3) 0.8517(2) 0.7503(3)
O55_3 O 0.2483(3) 0.1483(2) 0.2497(3)
O61_3 O 0.5399(3) 0.0426(3) 0.4687(3)
O36_6 O 0.5000 1.0000 0.3946(3)
H55_3 H 0.4770 0.9986 0.3865
O60_3 O 0.5453(2) 0.9606(2) 0.4668(3)
O36_7 O 0.5000 0.0000 0.6054(3)
H55_4 H 0.4770 0.0014 0.6135
O60_4 O 0.5453(2) 0.0394(2) 0.5332(3)
O36_8 O 0.5000 1.0000 0.6054(3)
H56_4 H 0.5230 0.9986 0.6135
O61_4 O 0.5399(3) 0.9574(3) 0.5313(3)
C85_4 C 0.69167(12) 0.81462(13) 0.46020(13)
C86_4 C 0.72214(13) 0.83125(17) 0.43770(16)
H45_4 H 0.7363 0.8529 0.4475
C87_4 C 0.73142(18) 0.8155(2) 0.40059(16)
H46_4 H 0.7518 0.8266 0.3855
C88_4 C 0.7102(2) 0.7831(2) 0.38598(14)
C89_4 C 0.6798(2) 0.76648(18) 0.40847(15)
H47_4 H 0.6656 0.7448 0.3987
C90_4 C 0.67048(15) 0.78223(14) 0.44559(14)
H48_4 H 0.6501 0.7711 0.4606
C91_4 C 0.58408(15) 0.91817(15) 0.4988(2)
C92_4 C 0.60131(14) 0.90677(14) 0.4629(2)
H49_4 H 0.5972 0.9219 0.4402
C93_4 C 0.62475(12) 0.87272(13) 0.46117(16)
H50_4 H 0.6363 0.8651 0.4372
C94_4 C 0.63096(10) 0.85009(12) 0.49523(15)
C95_4 C 0.61373(12) 0.86149(14) 0.53107(16)
C96_4 C 0.59029(14) 0.89553(16) 0.5329(2)
H51_4 H 0.5788 0.9032 0.5568
C97_4 C 0.7109(2) 0.78109(19) 0.60530(14)
C98_4 C 0.6812(2) 0.80987(19) 0.60422(13)
H52_4 H 0.6705 0.8196 0.6278
C99_4 C 0.66759(15) 0.82417(15) 0.56788(13)
C100_4 C 0.68366(12) 0.80970(12) 0.53261(13)
C101_4 C 0.71335(13) 0.78092(13) 0.53368(15)
H53_4 H 0.7241 0.7712 0.5101
C102_4 C 0.72698(17) 0.76661(16) 0.57003(16)
H54_4 H 0.7469 0.7474 0.5708
O33_4 O 0.6947(4) 0.7856(4) 0.6775(3)
C103_4 C 0.7102(5) 0.7696(4) 0.6519(5)
O34_4 O 0.7497(3) 0.7483(3) 0.6483(2)
C104_4 C 0.5567(4) 0.9495(4) 0.4987(4)
O38_4 O 0.6322(4) 0.8512(4) 0.5650(3)
C105_4 C 0.7291(4) 0.7743(3) 0.3409(3)
O39_4 O 0.7488(2) 0.8008(2) 0.3273(2)
N5_4 N 0.6715(5) 0.8279(4) 0.4938(3)
C106_4 C 0.69167(12) 0.18538(13) 0.53980(13)
C107_4 C 0.72214(13) 0.16875(17) 0.56230(16)
H57_4 H 0.7363 0.1471 0.5525
C108_4 C 0.73142(18) 0.1845(2) 0.59941(16)
H58_4 H 0.7518 0.1734 0.6145
C109_4 C 0.7102(2) 0.2169(2) 0.61402(14)
C110_4 C 0.6798(2) 0.23352(18) 0.59153(15)
H59_4 H 0.6656 0.2552 0.6013
C111_4 C 0.67048(15) 0.21777(14) 0.55441(14)
H60_4 H 0.6501 0.2289 0.5394
C112_4 C 0.58408(15) 0.08183(15) 0.5012(2)
C113_4 C 0.60131(14) 0.09323(14) 0.5371(2)
H61_4 H 0.5972 0.0781 0.5598
C114_4 C 0.62475(12) 0.12728(13) 0.53883(16)
H62_4 H 0.6363 0.1349 0.5628
C115_4 C 0.63096(10) 0.14991(12) 0.50477(15)
C116_4 C 0.61373(12) 0.13851(14) 0.46893(16)
C117_4 C 0.59029(14) 0.10447(16) 0.4671(2)
H63_4 H 0.5788 0.0968 0.4432
C118_4 C 0.7109(2) 0.21891(19) 0.39470(14)
C119_4 C 0.6812(2) 0.19013(19) 0.39578(13)
H64_4 H 0.6705 0.1804 0.3722
C120_4 C 0.66759(15) 0.17583(15) 0.43212(13)
C121_4 C 0.68366(12) 0.19030(12) 0.46739(13)
C122_4 C 0.71335(13) 0.21908(13) 0.46632(15)
H65_4 H 0.7241 0.2288 0.4899
C123_4 C 0.72698(17) 0.23339(16) 0.42997(16)
H66_4 H 0.7469 0.2526 0.4292
O41_4 O 0.6947(4) 0.2144(4) 0.3225(3)
C124_4 C 0.7102(5) 0.2304(4) 0.3481(5)
O42_4 O 0.7497(3) 0.2517(3) 0.3517(2)
C125_4 C 0.5567(4) 0.0505(4) 0.5013(4)
O45_4 O 0.6322(4) 0.1488(4) 0.4350(3)
C126_4 C 0.7291(4) 0.2257(3) 0.6591(3)
O46_4 O 0.7488(2) 0.1992(2) 0.6727(2)
N6_4 N 0.6715(5) 0.1721(4) 0.5062(3)
O52_4 O 0.8225(3) 0.1947(4) 0.7144(4)
O53_4 O 0.8225(3) 0.8053(4) 0.2856(4)
O54_4 O 0.7517(3) 0.1483(2) 0.7503(3)
O55_4 O 0.7517(3) 0.8517(2) 0.2497(3)
Zn27_5 Zn 0.5000 0.04384(6) 0.0000
Zn1_2 Zn 0.22341(4) 0.22341(4) 0.77659(4)
Zn3_3 Zn 0.04384(6) 0.0000 0.5000
C1_2 C 0.03980(13) 0.19167(12) 0.68538(13)
C2_2 C 0.06230(16) 0.22214(13) 0.66875(17)
H1_2 H 0.0525 0.2363 0.6471
C3_2 C 0.09941(16) 0.23142(18) 0.6845(2)
H2_2 H 0.1145 0.2518 0.6734
C4_2 C 0.11402(14) 0.2102(2) 0.7169(2)
C5_2 C 0.09153(15) 0.1798(2) 0.73352(18)
H3_2 H 0.1013 0.1656 0.7552
C6_2 C 0.05441(14) 0.17048(15) 0.71777(14)
H4_2 H 0.0394 0.1501 0.7289
C7_2 C 0.0012(2) 0.08408(15) 0.58183(15)
C8_2 C 0.0371(2) 0.10131(14) 0.59323(14)
H5_2 H 0.0598 0.0972 0.5781
C9_2 C 0.03883(16) 0.12475(12) 0.62728(13)
H6_2 H 0.0628 0.1363 0.6349
C10_2 C 0.00477(15) 0.13096(10) 0.64991(12)
C20_2 C 0.0013(4) 0.0567(4) 0.5505(4)
O3_2 O 0.0332(3) 0.0453(2) 0.5394(2)
O4_3 O 0.1054(3) 0.0000 0.5000
H11_2 H 0.1135 0.0230 0.4986
C21_2 C 0.1591(3) 0.2291(4) 0.7257(3)
O7_2 O 0.1727(2) 0.2488(2) 0.6992(2)
O8_2 O 0.1712(2) 0.2137(3) 0.7562(2)
O9_2 O 0.25533(19) 0.25533(19) 0.74467(19)
N1_2 N 0.0062(3) 0.1715(5) 0.6721(4)
C74_2 C 0.03107(16) 0.11373(12) 0.36149(14)
C75_2 C 0.0329(2) 0.09029(14) 0.39553(16)
H41_2 H 0.0568 0.0788 0.4032
C76_2 C 0.10530(14) 0.2109(2) 0.28109(19)
C77_2 C 0.10422(13) 0.1812(2) 0.30987(19)
H42_2 H 0.1278 0.1705 0.3196
C78_2 C 0.06788(13) 0.16759(15) 0.32417(15)
C79_2 C 0.03261(13) 0.18366(12) 0.30970(12)
C80_2 C 0.03368(15) 0.21335(13) 0.28092(13)
H43_2 H 0.0101 0.2241 0.2712
C81_2 C 0.07003(16) 0.22698(17) 0.26661(16)
H44_2 H 0.0708 0.2469 0.2474
C82_2 C 0.1519(5) 0.2102(5) 0.2696(4)
O29_2 O 0.0313(3) 0.0399(3) 0.4574(3)
O30_2 O 0.0650(3) 0.1322(4) 0.3512(4)
C106_5 C 0.31462(13) 0.03980(13) 0.80833(12)
C107_5 C 0.33125(17) 0.06230(16) 0.77786(13)
H57_5 H 0.3529 0.0525 0.7637
C108_5 C 0.3155(2) 0.09941(16) 0.76858(18)
H58_5 H 0.3266 0.1145 0.7482
C109_5 C 0.2831(2) 0.11402(14) 0.7898(2)
C110_5 C 0.26648(18) 0.09153(15) 0.8202(2)
H59_5 H 0.2448 0.1013 0.8344
C111_5 C 0.28223(14) 0.05441(14) 0.82952(15)
H60_5 H 0.2711 0.0394 0.8499
C112_5 C 0.41817(15) 0.0012(2) 0.91592(15)
C113_5 C 0.40677(14) 0.0371(2) 0.89869(14)
H61_5 H 0.4219 0.0598 0.9028
C114_5 C 0.37272(13) 0.03883(16) 0.87525(12)
H62_5 H 0.3651 0.0628 0.8637
C115_5 C 0.35009(12) 0.00477(15) 0.86904(10)
C125_5 C 0.4495(4) 0.0013(4) 0.9433(4)
O43_3 O 0.4606(2) 0.0332(3) 0.9547(2)
C126_5 C 0.2743(3) 0.1591(3) 0.7709(4)
O46_5 O 0.3008(2) 0.1727(2) 0.7512(2)
O47_3 O 0.2438(2) 0.1712(2) 0.7863(3)
N6_5 N 0.3279(4) 0.0062(3) 0.8285(5)
Zn27_6 Zn 0.5000 0.04384(6) 1.0000
O64_3 O 0.2137(3) 0.2438(2) 0.8288(2)
Zn28_5 Zn 0.5000 0.95616(6) 0.0000
Zn3_4 Zn 0.04384(6) 1.0000 0.5000
O4_4 O 0.1054(3) 1.0000 0.5000
H12_2 H 0.1135 0.9770 0.5014
C32_2 C 0.03107(16) 0.88627(12) 0.63851(14)
C33_2 C 0.0329(2) 0.90971(14) 0.60447(16)
H19_2 H 0.0568 0.9212 0.5968
C34_2 C 0.10530(14) 0.7891(2) 0.71891(19)
C35_2 C 0.10422(13) 0.8188(2) 0.69013(19)
H20_2 H 0.1278 0.8295 0.6804
C36_2 C 0.06788(13) 0.83241(15) 0.67583(15)
C37_2 C 0.03261(13) 0.81634(12) 0.69030(12)
C38_2 C 0.03368(15) 0.78665(13) 0.71908(13)
H21_2 H 0.0101 0.7759 0.7288
C39_2 C 0.07003(16) 0.77302(17) 0.73339(16)
H22_2 H 0.0708 0.7531 0.7526
C40_2 C 0.1519(5) 0.7898(5) 0.7304(4)
O14_2 O 0.0313(3) 0.9601(3) 0.5426(3)
O15_2 O 0.0650(3) 0.8678(4) 0.6488(4)
C43_2 C 0.03980(13) 0.80833(12) 0.31462(13)
C44_2 C 0.06230(16) 0.77786(13) 0.33125(17)
H25_2 H 0.0525 0.7637 0.3529
C45_2 C 0.09941(16) 0.76858(18) 0.3155(2)
H26_2 H 0.1145 0.7482 0.3266
C46_2 C 0.11402(14) 0.7898(2) 0.2831(2)
C47_2 C 0.09153(15) 0.8202(2) 0.26648(18)
H27_2 H 0.1013 0.8344 0.2448
C48_2 C 0.05441(14) 0.82952(15) 0.28223(14)
H28_2 H 0.0394 0.8499 0.2711
C49_2 C 0.0012(2) 0.91592(15) 0.41817(15)
C50_2 C 0.0371(2) 0.89869(14) 0.40677(14)
H29_2 H 0.0598 0.9028 0.4219
C51_2 C 0.03883(16) 0.87525(12) 0.37272(13)
H30_2 H 0.0628 0.8637 0.3651
C52_2 C 0.00477(15) 0.86904(10) 0.35009(12)
C62_2 C 0.0013(4) 0.9433(4) 0.4495(4)
O21_2 O 0.0332(3) 0.9547(2) 0.4606(2)
C63_2 C 0.1591(3) 0.7709(4) 0.2743(3)
O24_2 O 0.1727(2) 0.7512(2) 0.3008(2)
O25_2 O 0.1712(2) 0.7863(3) 0.2438(2)
N3_2 N 0.0062(3) 0.8285(5) 0.3279(4)
C116_5 C 0.36149(14) 0.96893(16) 0.88627(12)
C117_5 C 0.39553(16) 0.9671(2) 0.90971(14)
H63_5 H 0.4032 0.9432 0.9212
C118_5 C 0.28109(19) 0.89470(14) 0.7891(2)
C119_5 C 0.30987(19) 0.89578(13) 0.8188(2)
H64_5 H 0.3196 0.8722 0.8295
C120_5 C 0.32417(15) 0.93212(13) 0.83241(15)
C121_5 C 0.30970(12) 0.96739(13) 0.81634(12)
C122_5 C 0.28092(13) 0.96632(15) 0.78665(13)
H65_5 H 0.2712 0.9899 0.7759
C123_5 C 0.26661(16) 0.92997(16) 0.77302(17)
H66_5 H 0.2474 0.9292 0.7531
C124_5 C 0.2696(4) 0.8481(5) 0.7898(5)
O44_3 O 0.4574(3) 0.9687(3) 0.9601(3)
O45_5 O 0.3512(4) 0.9350(3) 0.8678(4)
Zn12_2 Zn 0.22341(4) 0.77659(4) 0.22341(4)
Zn28_6 Zn 0.5000 0.95616(6) 1.0000
O65_2 O 0.25533(19) 0.74467(19) 0.25533(19)
C11_2 C 0.96893(16) 0.11373(12) 0.63851(14)
C12_2 C 0.9671(2) 0.09029(14) 0.60447(16)
H7_2 H 0.9432 0.0788 0.5968
C13_2 C 0.89470(14) 0.2109(2) 0.71891(19)
C14_2 C 0.89578(13) 0.1812(2) 0.69013(19)
H8_2 H 0.8722 0.1705 0.6804
C15_2 C 0.93212(13) 0.16759(15) 0.67583(15)
C16_2 C 0.96739(13) 0.18366(12) 0.69030(12)
C17_2 C 0.96632(15) 0.21335(13) 0.71908(13)
H9_2 H 0.9899 0.2241 0.7288
C18_2 C 0.92997(16) 0.22698(17) 0.73339(16)
H10_2 H 0.9292 0.2469 0.7526
C19_2 C 0.8481(5) 0.2102(5) 0.7304(4)
O5_2 O 0.9687(3) 0.0399(3) 0.5426(3)
O6_2 O 0.9350(3) 0.1322(4) 0.6488(4)
Zn6_3 Zn 0.95616(6) 0.0000 0.5000
O13_3 O 0.8946(3) 0.0000 0.5000
H24_2 H 0.8865 0.0230 0.5014
C64_2 C 0.96020(13) 0.19167(12) 0.31462(13)
C65_2 C 0.93770(16) 0.22214(13) 0.33125(17)
H35_2 H 0.9475 0.2363 0.3529
C66_2 C 0.90059(16) 0.23142(18) 0.3155(2)
H36_2 H 0.8855 0.2518 0.3266
C67_2 C 0.88598(14) 0.2102(2) 0.2831(2)
C68_2 C 0.90847(15) 0.1798(2) 0.26648(18)
H37_2 H 0.8987 0.1656 0.2448
C69_2 C 0.94559(14) 0.17048(15) 0.28223(14)
H38_2 H 0.9606 0.1501 0.2711
C70_2 C 0.9988(2) 0.08408(15) 0.41817(15)
C71_2 C 0.9629(2) 0.10131(14) 0.40677(14)
H39_2 H 0.9402 0.0972 0.4219
C72_2 C 0.96117(16) 0.12475(12) 0.37272(13)
H40_2 H 0.9372 0.1363 0.3651
C73_2 C 0.99523(15) 0.13096(10) 0.35009(12)
C83_2 C 0.9987(4) 0.0567(4) 0.4495(4)
O28_2 O 0.9668(3) 0.0453(2) 0.4606(2)
C84_2 C 0.8409(3) 0.2291(4) 0.2743(3)
O31_2 O 0.8273(2) 0.2488(2) 0.3008(2)
O32_2 O 0.8288(2) 0.2137(3) 0.2438(2)
N4_2 N 0.9938(3) 0.1715(5) 0.3279(4)
C95_5 C 0.63851(14) 0.03107(16) 0.88627(12)
C96_5 C 0.60447(16) 0.0329(2) 0.90971(14)
H51_5 H 0.5968 0.0568 0.9212
C97_5 C 0.71891(19) 0.10530(14) 0.7891(2)
C98_5 C 0.69013(19) 0.10422(13) 0.8188(2)
H52_5 H 0.6804 0.1278 0.8295
C99_5 C 0.67583(15) 0.06788(13) 0.83241(15)
C100_5 C 0.69030(12) 0.03261(13) 0.81634(12)
C101_5 C 0.71908(13) 0.03368(15) 0.78665(13)
H53_5 H 0.7288 0.0101 0.7759
C102_5 C 0.73339(16) 0.07003(16) 0.77302(17)
H54_5 H 0.7526 0.0708 0.7531
C103_5 C 0.7304(4) 0.1519(5) 0.7898(5)
O37_3 O 0.5426(3) 0.0313(3) 0.9601(3)
O38_5 O 0.6488(4) 0.0650(3) 0.8678(4)
Zn13_2 Zn 0.77659(4) 0.22341(4) 0.22341(4)
O66_2 O 0.74467(19) 0.25533(19) 0.25533(19)
O36_9 O 0.5000 0.8946(3) 0.0000
H56_5 H 0.5014 0.8865 0.0230
O60_5 O 0.4606(2) 0.9668(3) 0.0453(2)
O61_5 O 0.5426(3) 0.9687(3) 0.0399(3)
Zn4_2 Zn 0.77659(4) 0.77659(4) 0.77659(4)
Zn6_4 Zn 0.95616(6) 1.0000 0.5000
C22_2 C 0.96020(13) 0.80833(12) 0.68538(13)
C23_2 C 0.93770(16) 0.77786(13) 0.66875(17)
H13_2 H 0.9475 0.7637 0.6471
C24_2 C 0.90059(16) 0.76858(18) 0.6845(2)
H14_2 H 0.8855 0.7482 0.6734
C25_2 C 0.88598(14) 0.7898(2) 0.7169(2)
C26_2 C 0.90847(15) 0.8202(2) 0.73352(18)
H15_2 H 0.8987 0.8344 0.7552
C27_2 C 0.94559(14) 0.82952(15) 0.71777(14)
H16_2 H 0.9606 0.8499 0.7289
C28_2 C 0.9988(2) 0.91592(15) 0.58183(15)
C29_2 C 0.9629(2) 0.89869(14) 0.59323(14)
H17_2 H 0.9402 0.9028 0.5781
C30_2 C 0.96117(16) 0.87525(12) 0.62728(13)
H18_2 H 0.9372 0.8637 0.6349
C31_2 C 0.99523(15) 0.86904(10) 0.64991(12)
C41_2 C 0.9987(4) 0.9433(4) 0.5505(4)
O12_2 O 0.9668(3) 0.9547(2) 0.5394(2)
O13_4 O 0.8946(3) 1.0000 0.5000
H23_2 H 0.8865 0.9770 0.4986
C42_2 C 0.8409(3) 0.7709(4) 0.7257(3)
O16_2 O 0.8273(2) 0.7512(2) 0.6992(2)
O17_2 O 0.8288(2) 0.7863(3) 0.7562(2)
O18_2 O 0.74467(19) 0.74467(19) 0.74467(19)
N2_2 N 0.9938(3) 0.8285(5) 0.6721(4)
C53_2 C 0.96893(16) 0.88627(12) 0.36149(14)
C54_2 C 0.9671(2) 0.90971(14) 0.39553(16)
H31_2 H 0.9432 0.9212 0.4032
C55_2 C 0.89470(14) 0.7891(2) 0.28109(19)
C56_2 C 0.89578(13) 0.8188(2) 0.30987(19)
H32_2 H 0.8722 0.8295 0.3196
C57_2 C 0.93212(13) 0.83241(15) 0.32417(15)
C58_2 C 0.96739(13) 0.81634(12) 0.30970(12)
C59_2 C 0.96632(15) 0.78665(13) 0.28092(13)
H33_2 H 0.9899 0.7759 0.2712
C60_2 C 0.92997(16) 0.77302(17) 0.26661(16)
H34_2 H 0.9292 0.7531 0.2474
C61_2 C 0.8481(5) 0.7898(5) 0.2696(4)
O22_2 O 0.9687(3) 0.9601(3) 0.4574(3)
O23_2 O 0.9350(3) 0.8678(4) 0.3512(4)
C85_5 C 0.68538(13) 0.96020(13) 0.80833(12)
C86_5 C 0.66875(17) 0.93770(16) 0.77786(13)
H45_5 H 0.6471 0.9475 0.7637
C87_5 C 0.6845(2) 0.90059(16) 0.76858(18)
H46_5 H 0.6734 0.8855 0.7482
C88_5 C 0.7169(2) 0.88598(14) 0.7898(2)
C89_5 C 0.73352(18) 0.90847(15) 0.8202(2)
H47_5 H 0.7552 0.8987 0.8344
C90_5 C 0.71777(14) 0.94559(14) 0.82952(15)
H48_5 H 0.7289 0.9606 0.8499
C91_5 C 0.58183(15) 0.9988(2) 0.91592(15)
C92_5 C 0.59323(14) 0.9629(2) 0.89869(14)
H49_5 H 0.5781 0.9402 0.9028
C93_5 C 0.62728(13) 0.96117(16) 0.87525(12)
H50_5 H 0.6349 0.9372 0.8637
C94_5 C 0.64991(12) 0.99523(15) 0.86904(10)
C104_5 C 0.5505(4) 0.9987(4) 0.9433(4)
O35_3 O 0.5394(2) 0.9668(3) 0.9547(2)
O36_10 O 0.5000 0.8946(3) 1.0000
H55_5 H 0.4986 0.8865 0.9770
C105_5 C 0.7257(3) 0.8409(3) 0.7709(4)
O39_5 O 0.6992(2) 0.8273(2) 0.7512(2)
O40_3 O 0.7562(2) 0.8288(2) 0.7863(3)
N5_5 N 0.6721(4) 0.9938(3) 0.8285(5)
O63_3 O 0.7863(3) 0.7562(2) 0.8288(2)
O36_11 O 0.5000 0.1054(3) 0.0000
H56_6 H 0.4986 0.1135 0.0230
O60_6 O 0.5394(2) 0.0332(3) 0.0453(2)
O61_6 O 0.4574(3) 0.0313(3) 0.0399(3)
O36_12 O 0.5000 0.1054(3) 1.0000
H55_6 H 0.5014 0.1135 0.9770
C116_6 C 0.36149(14) 0.03107(16) 0.11373(12)
C117_6 C 0.39553(16) 0.0329(2) 0.09029(14)
H63_6 H 0.4032 0.0568 0.0788
C118_6 C 0.28109(19) 0.10530(14) 0.2109(2)
C119_6 C 0.30987(19) 0.10422(13) 0.1812(2)
H64_6 H 0.3196 0.1278 0.1705
C120_6 C 0.32417(15) 0.06788(13) 0.16759(15)
C121_6 C 0.30970(12) 0.03261(13) 0.18366(12)
C122_6 C 0.28092(13) 0.03368(15) 0.21335(13)
H65_6 H 0.2712 0.0101 0.2241
C123_6 C 0.26661(16) 0.07003(16) 0.22698(17)
H66_6 H 0.2474 0.0708 0.2469
C124_6 C 0.2696(4) 0.1519(5) 0.2102(5)
O45_6 O 0.3512(4) 0.0650(3) 0.1322(4)
C106_6 C 0.31462(13) 0.96020(13) 0.19167(12)
C107_6 C 0.33125(17) 0.93770(16) 0.22214(13)
H57_6 H 0.3529 0.9475 0.2363
C108_6 C 0.3155(2) 0.90059(16) 0.23142(18)
H58_6 H 0.3266 0.8855 0.2518
C109_6 C 0.2831(2) 0.88598(14) 0.2102(2)
C110_6 C 0.26648(18) 0.90847(15) 0.1798(2)
H59_6 H 0.2448 0.8987 0.1656
C111_6 C 0.28223(14) 0.94559(14) 0.17048(15)
H60_6 H 0.2711 0.9606 0.1501
C112_6 C 0.41817(15) 0.9988(2) 0.08408(15)
C113_6 C 0.40677(14) 0.9629(2) 0.10131(14)
H61_6 H 0.4219 0.9402 0.0972
C114_6 C 0.37272(13) 0.96117(16) 0.12475(12)
H62_6 H 0.3651 0.9372 0.1363
C115_6 C 0.35009(12) 0.99523(15) 0.13096(10)
C125_6 C 0.4495(4) 0.9987(4) 0.0567(4)
C126_6 C 0.2743(3) 0.8409(3) 0.2291(4)
O46_6 O 0.3008(2) 0.8273(2) 0.2488(2)
O47_4 O 0.2438(2) 0.8288(2) 0.2137(3)
N6_6 N 0.3279(4) 0.9938(3) 0.1715(5)
O64_4 O 0.2137(3) 0.7562(2) 0.1712(2)
C85_6 C 0.68538(13) 0.03980(13) 0.19167(12)
C86_6 C 0.66875(17) 0.06230(16) 0.22214(13)
H45_6 H 0.6471 0.0525 0.2363
C87_6 C 0.6845(2) 0.09941(16) 0.23142(18)
H46_6 H 0.6734 0.1145 0.2518
C88_6 C 0.7169(2) 0.11402(14) 0.2102(2)
C89_6 C 0.73352(18) 0.09153(15) 0.1798(2)
H47_6 H 0.7552 0.1013 0.1656
C90_6 C 0.71777(14) 0.05441(14) 0.17048(15)
H48_6 H 0.7289 0.0394 0.1501
C91_6 C 0.58183(15) 0.0012(2) 0.08408(15)
C92_6 C 0.59323(14) 0.0371(2) 0.10131(14)
H49_6 H 0.5781 0.0598 0.0972
C93_6 C 0.62728(13) 0.03883(16) 0.12475(12)
H50_6 H 0.6349 0.0628 0.1363
C94_6 C 0.64991(12) 0.00477(15) 0.13096(10)
C104_6 C 0.5505(4) 0.0013(4) 0.0567(4)
C105_6 C 0.7257(3) 0.1591(3) 0.2291(4)
O39_6 O 0.6992(2) 0.1727(2) 0.2488(2)
O40_4 O 0.7562(2) 0.1712(2) 0.2137(3)
N5_6 N 0.6721(4) 0.0062(3) 0.1715(5)
O63_4 O 0.7863(3) 0.2438(2) 0.1712(2)
C95_6 C 0.63851(14) 0.96893(16) 0.11373(12)
C96_6 C 0.60447(16) 0.9671(2) 0.09029(14)
H51_6 H 0.5968 0.9432 0.0788
C97_6 C 0.71891(19) 0.89470(14) 0.2109(2)
C98_6 C 0.69013(19) 0.89578(13) 0.1812(2)
H52_6 H 0.6804 0.8722 0.1705
C99_6 C 0.67583(15) 0.93212(13) 0.16759(15)
C100_6 C 0.69030(12) 0.96739(13) 0.18366(12)
C101_6 C 0.71908(13) 0.96632(15) 0.21335(13)
H53_6 H 0.7288 0.9899 0.2241
C102_6 C 0.73339(16) 0.92997(16) 0.22698(17)
H54_6 H 0.7526 0.9292 0.2469
C103_6 C 0.7304(4) 0.8481(5) 0.2102(5)
O38_6 O 0.6488(4) 0.9350(3) 0.1322(4)
Zn27_7 Zn 0.0000 0.5000 0.04384(6)
Zn28_7 Zn 0.0000 0.5000 0.95616(6)
O36_13 O 0.0000 0.5000 0.8946(3)
H56_7 H 0.0230 0.5014 0.8865
O60_7 O 0.0453(2) 0.4606(2) 0.9668(3)
O61_7 O 0.0399(3) 0.5426(3) 0.9687(3)
C106_7 C 0.80833(12) 0.31462(13) 0.03980(13)
C107_7 C 0.77786(13) 0.33125(17) 0.06230(16)
H57_7 H 0.7637 0.3529 0.0525
C108_7 C 0.76858(18) 0.3155(2) 0.09941(16)
H58_7 H 0.7482 0.3266 0.1145
C109_7 C 0.7898(2) 0.2831(2) 0.11402(14)
C110_7 C 0.8202(2) 0.26648(18) 0.09153(15)
H59_7 H 0.8344 0.2448 0.1013
C111_7 C 0.82952(15) 0.28223(14) 0.05441(14)
H60_7 H 0.8499 0.2711 0.0394
C112_7 C 0.91592(15) 0.41817(15) 0.0012(2)
C113_7 C 0.89869(14) 0.40677(14) 0.0371(2)
H61_7 H 0.9028 0.4219 0.0598
C114_7 C 0.87525(12) 0.37272(13) 0.03883(16)
H62_7 H 0.8637 0.3651 0.0628
C115_7 C 0.86904(10) 0.35009(12) 0.00477(15)
C125_7 C 0.9433(4) 0.4495(4) 0.0013(4)
O43_4 O 0.9547(2) 0.4606(2) 0.0332(3)
C126_7 C 0.7709(4) 0.2743(3) 0.1591(3)
O46_7 O 0.7512(2) 0.3008(2) 0.1727(2)
N6_7 N 0.8285(5) 0.3279(4) 0.0062(3)
Zn27_8 Zn 1.0000 0.5000 0.04384(6)
C116_7 C 0.88627(12) 0.36149(14) 0.96893(16)
C117_7 C 0.90971(14) 0.39553(16) 0.9671(2)
H63_7 H 0.9212 0.4032 0.9432
C118_7 C 0.7891(2) 0.28109(19) 0.89470(14)
C119_7 C 0.8188(2) 0.30987(19) 0.89578(13)
H64_7 H 0.8295 0.3196 0.8722
C120_7 C 0.83241(15) 0.32417(15) 0.93212(13)
C121_7 C 0.81634(12) 0.30970(12) 0.96739(13)
C122_7 C 0.78665(13) 0.28092(13) 0.96632(15)
H65_7 H 0.7759 0.2712 0.9899
C123_7 C 0.77302(17) 0.26661(16) 0.92997(16)
H66_7 H 0.7531 0.2474 0.9292
C124_7 C 0.7898(5) 0.2696(4) 0.8481(5)
O44_4 O 0.9601(3) 0.4574(3) 0.9687(3)
O45_7 O 0.8678(4) 0.3512(4) 0.9350(3)
Zn28_8 Zn 1.0000 0.5000 0.95616(6)
C95_7 C 0.88627(12) 0.63851(14) 0.03107(16)
C96_7 C 0.90971(14) 0.60447(16) 0.0329(2)
H51_7 H 0.9212 0.5968 0.0568
C97_7 C 0.7891(2) 0.71891(19) 0.10530(14)
C98_7 C 0.8188(2) 0.69013(19) 0.10422(13)
H52_7 H 0.8295 0.6804 0.1278
C99_7 C 0.83241(15) 0.67583(15) 0.06788(13)
C100_7 C 0.81634(12) 0.69030(12) 0.03261(13)
C101_7 C 0.78665(13) 0.71908(13) 0.03368(15)
H53_7 H 0.7759 0.7288 0.0101
C102_7 C 0.77302(17) 0.73339(16) 0.07003(16)
H54_7 H 0.7531 0.7526 0.0708
C103_7 C 0.7898(5) 0.7304(4) 0.1519(5)
O37_4 O 0.9601(3) 0.5426(3) 0.0313(3)
O38_7 O 0.8678(4) 0.6488(4) 0.0650(3)
C85_7 C 0.80833(12) 0.68538(13) 0.96020(13)
C86_7 C 0.77786(13) 0.66875(17) 0.93770(16)
H45_7 H 0.7637 0.6471 0.9475
C87_7 C 0.76858(18) 0.6845(2) 0.90059(16)
H46_7 H 0.7482 0.6734 0.8855
C88_7 C 0.7898(2) 0.7169(2) 0.88598(14)
C89_7 C 0.8202(2) 0.73352(18) 0.90847(15)
H47_7 H 0.8344 0.7552 0.8987
C90_7 C 0.82952(15) 0.71777(14) 0.94559(14)
H48_7 H 0.8499 0.7289 0.9606
C91_7 C 0.91592(15) 0.58183(15) 0.9988(2)
C92_7 C 0.89869(14) 0.59323(14) 0.9629(2)
H49_7 H 0.9028 0.5781 0.9402
C93_7 C 0.87525(12) 0.62728(13) 0.96117(16)
H50_7 H 0.8637 0.6349 0.9372
C94_7 C 0.86904(10) 0.64991(12) 0.99523(15)
C104_7 C 0.9433(4) 0.5505(4) 0.9987(4)
O35_4 O 0.9547(2) 0.5394(2) 0.9668(3)
O36_14 O 1.0000 0.5000 0.8946(3)
H55_7 H 0.9770 0.4986 0.8865
C105_7 C 0.7709(4) 0.7257(3) 0.8409(3)
O39_7 O 0.7512(2) 0.6992(2) 0.8273(2)
N5_7 N 0.8285(5) 0.6721(4) 0.9938(3)
O36_15 O 0.0000 0.5000 0.1054(3)
H56_8 H 0.0230 0.4986 0.1135
O60_8 O 0.0453(2) 0.5394(2) 0.0332(3)
O61_8 O 0.0399(3) 0.4574(3) 0.0313(3)
O36_16 O 1.0000 0.5000 0.1054(3)
H55_8 H 0.9770 0.5014 0.1135
C95_8 C 0.11373(12) 0.36149(14) 0.03107(16)
C96_8 C 0.09029(14) 0.39553(16) 0.0329(2)
H51_8 H 0.0788 0.4032 0.0568
C97_8 C 0.2109(2) 0.28109(19) 0.10530(14)
C98_8 C 0.1812(2) 0.30987(19) 0.10422(13)
H52_8 H 0.1705 0.3196 0.1278
C99_8 C 0.16759(15) 0.32417(15) 0.06788(13)
C100_8 C 0.18366(12) 0.30970(12) 0.03261(13)
C101_8 C 0.21335(13) 0.28092(13) 0.03368(15)
H53_8 H 0.2241 0.2712 0.0101
C102_8 C 0.22698(17) 0.26661(16) 0.07003(16)
H54_8 H 0.2469 0.2474 0.0708
C103_8 C 0.2102(5) 0.2696(4) 0.1519(5)
O38_8 O 0.1322(4) 0.3512(4) 0.0650(3)
C85_8 C 0.19167(12) 0.31462(13) 0.96020(13)
C86_8 C 0.22214(13) 0.33125(17) 0.93770(16)
H45_8 H 0.2363 0.3529 0.9475
C87_8 C 0.23142(18) 0.3155(2) 0.90059(16)
H46_8 H 0.2518 0.3266 0.8855
C88_8 C 0.2102(2) 0.2831(2) 0.88598(14)
C89_8 C 0.1798(2) 0.26648(18) 0.90847(15)
H47_8 H 0.1656 0.2448 0.8987
C90_8 C 0.17048(15) 0.28223(14) 0.94559(14)
H48_8 H 0.1501 0.2711 0.9606
C91_8 C 0.08408(15) 0.41817(15) 0.9988(2)
C92_8 C 0.10131(14) 0.40677(14) 0.9629(2)
H49_8 H 0.0972 0.4219 0.9402
C93_8 C 0.12475(12) 0.37272(13) 0.96117(16)
H50_8 H 0.1363 0.3651 0.9372
C94_8 C 0.13096(10) 0.35009(12) 0.99523(15)
C104_8 C 0.0567(4) 0.4495(4) 0.9987(4)
C105_8 C 0.2291(4) 0.2743(3) 0.8409(3)
O39_8 O 0.2488(2) 0.3008(2) 0.8273(2)
N5_8 N 0.1715(5) 0.3279(4) 0.9938(3)
C106_8 C 0.19167(12) 0.68538(13) 0.03980(13)
C107_8 C 0.22214(13) 0.66875(17) 0.06230(16)
H57_8 H 0.2363 0.6471 0.0525
C108_8 C 0.23142(18) 0.6845(2) 0.09941(16)
H58_8 H 0.2518 0.6734 0.1145
C109_8 C 0.2102(2) 0.7169(2) 0.11402(14)
C110_8 C 0.1798(2) 0.73352(18) 0.09153(15)
H59_8 H 0.1656 0.7552 0.1013
C111_8 C 0.17048(15) 0.71777(14) 0.05441(14)
H60_8 H 0.1501 0.7289 0.0394
C112_8 C 0.08408(15) 0.58183(15) 0.0012(2)
C113_8 C 0.10131(14) 0.59323(14) 0.0371(2)
H61_8 H 0.0972 0.5781 0.0598
C114_8 C 0.12475(12) 0.62728(13) 0.03883(16)
H62_8 H 0.1363 0.6349 0.0628
C115_8 C 0.13096(10) 0.64991(12) 0.00477(15)
C125_8 C 0.0567(4) 0.5505(4) 0.0013(4)
C126_8 C 0.2291(4) 0.7257(3) 0.1591(3)
O46_8 O 0.2488(2) 0.6992(2) 0.1727(2)
N6_8 N 0.1715(5) 0.6721(4) 0.0062(3)
C116_8 C 0.11373(12) 0.63851(14) 0.96893(16)
C117_8 C 0.09029(14) 0.60447(16) 0.9671(2)
H63_8 H 0.0788 0.5968 0.9432
C118_8 C 0.2109(2) 0.71891(19) 0.89470(14)
C119_8 C 0.1812(2) 0.69013(19) 0.89578(13)
H64_8 H 0.1705 0.6804 0.8722
C120_8 C 0.16759(15) 0.67583(15) 0.93212(13)
C121_8 C 0.18366(12) 0.69030(12) 0.96739(13)
C122_8 C 0.21335(13) 0.71908(13) 0.96632(15)
H65_8 H 0.2241 0.7288 0.9899
C123_8 C 0.22698(17) 0.73339(16) 0.92997(16)
H66_8 H 0.2469 0.7526 0.9292
C124_8 C 0.2102(5) 0.7304(4) 0.8481(5)
O45_8 O 0.1322(4) 0.6488(4) 0.9350(3)
loop_
_geom_bond_atom_site_label_1
_geom_bond_atom_site_label_2
_geom_bond_site_symmetry_1
_geom_bond_site_symmetry_2
Zn1 O8 1_555 1_555
Zn2 O7 1_555 1_555
Zn3 O3 1_555 1_555
C1 C2 1_555 1_555
C2 H1 1_555 1_555
C3 C2 1_555 1_555
H2 C3 1_555 1_555
C4 C3 1_555 1_555
C5 C4 1_555 1_555
H3 C5 1_555 1_555
C6 C1 1_555 1_555
H4 C6 1_555 1_555
C7 C8 1_555 1_555
C8 H5 1_555 1_555
C9 C8 1_555 1_555
H6 C9 1_555 1_555
C10 C9 1_555 1_555
C11 C10 1_555 1_555
C12 C7 1_555 1_555
H7 C12 1_555 1_555
C13 C14 1_555 1_555
C14 H8 1_555 1_555
C15 C14 1_555 1_555
C16 C15 1_555 1_555
C17 C16 1_555 1_555
H9 C17 1_555 1_555
C18 C13 1_555 1_555
H10 C18 1_555 1_555
O1 C19 1_555 1_555
C19 C13 1_555 1_555
O2 C19 1_555 1_555
C20 C7 1_555 1_555
O3 C20 1_555 1_555
O4 Zn3 1_555 1_555
O5 C20 1_555 1_555
O6 C11 1_555 1_555
C21 C4 1_555 1_555
O7 C21 1_555 1_555
O8 C21 1_555 1_555
O9 Zn1 1_555 1_555
N1 C1 1_555 1_555
H12 O4 1_555 1_555
Zn4 O17 1_555 1_555
Zn5 O16 1_555 1_555
Zn6 O5 1_555 1_555
C22 C23 1_555 1_555
C23 H13 1_555 1_555
C24 C23 1_555 1_555
H14 C24 1_555 1_555
C25 C24 1_555 1_555
C26 C25 1_555 1_555
H15 C26 1_555 1_555
C27 C22 1_555 1_555
H16 C27 1_555 1_555
C28 C29 1_555 1_555
C29 H17 1_555 1_555
C30 C29 1_555 1_555
H18 C30 1_555 1_555
C31 C30 1_555 1_555
C32 C31 1_555 1_555
C33 C28 1_555 1_555
H19 C33 1_555 1_555
C34 C35 1_555 1_555
C35 H20 1_555 1_555
C36 C35 1_555 1_555
C37 C36 1_555 1_555
C38 C37 1_555 1_555
H21 C38 1_555 1_555
C39 C34 1_555 1_555
H22 C39 1_555 1_555
O10 C40 1_555 1_555
C40 C34 1_555 1_555
O11 C40 1_555 1_555
C41 C28 1_555 1_555
O12 Zn6 1_555 1_555
O13 Zn6 1_555 1_555
O14 Zn3 1_555 1_555
O15 C32 1_555 1_555
C42 C25 1_555 1_555
O16 C42 1_555 1_555
O17 C42 1_555 1_555
O18 Zn4 1_555 1_555
N2 C22 1_555 1_555
H24 O13 1_555 1_555
Zn9 O18 1_555 1_555
Zn28 O35 1_555 1_555
C85 C86 1_555 1_555
C86 H45 1_555 1_555
C87 C86 1_555 1_555
H46 C87 1_555 1_555
C88 C87 1_555 1_555
C89 C88 1_555 1_555
H47 C89 1_555 1_555
C90 C85 1_555 1_555
H48 C90 1_555 1_555
C91 C92 1_555 1_555
C92 H49 1_555 1_555
C93 C92 1_555 1_555
H50 C93 1_555 1_555
C94 C93 1_555 1_555
C95 C94 1_555 1_555
C96 C91 1_555 1_555
H51 C96 1_555 1_555
C97 C98 1_555 1_555
C98 H52 1_555 1_555
C99 C98 1_555 1_555
C100 C99 1_555 1_555
C101 C100 1_555 1_555
H53 C101 1_555 1_555
C102 C97 1_555 1_555
H54 C102 1_555 1_555
O33 C103 1_555 1_555
C103 C97 1_555 1_555
O34 C103 1_555 1_555
C104 C91 1_555 1_555
O35 C104 1_555 1_555
O36 Zn28 1_555 1_555
O37 C104 1_555 1_555
O38 C95 1_555 1_555
C105 C88 1_555 1_555
O39 Zn9 1_555 1_555
O40 Zn4 1_555 1_555
N5 C85 1_555 1_555
H56 O36 1_555 1_555
Zn11 O9 1_555 1_555
C106 C107 1_555 1_555
C107 H57 1_555 1_555
C108 C107 1_555 1_555
H58 C108 1_555 1_555
C109 C108 1_555 1_555
C110 C109 1_555 1_555
H59 C110 1_555 1_555
C111 C106 1_555 1_555
H60 C111 1_555 1_555
C112 C113 1_555 1_555
C113 H61 1_555 1_555
C114 C113 1_555 1_555
H62 C114 1_555 1_555
C115 C114 1_555 1_555
C116 C115 1_555 1_555
C117 C112 1_555 1_555
H63 C117 1_555 1_555
C118 C119 1_555 1_555
C119 H64 1_555 1_555
C120 C119 1_555 1_555
C121 C120 1_555 1_555
C122 C121 1_555 1_555
H65 C122 1_555 1_555
C123 C118 1_555 1_555
H66 C123 1_555 1_555
O41 C124 1_555 1_555
C124 C118 1_555 1_555
O42 C124 1_555 1_555
C125 C112 1_555 1_555
O43 C125 1_555 1_555
O44 C125 1_555 1_555
O45 C116 1_555 1_555
C126 C109 1_555 1_555
O46 Zn11 1_555 1_555
O47 Zn1 1_555 1_555
N6 C106 1_555 1_555
Zn14 O18 1_555 1_555
Zn15 O9 1_555 1_555
Zn16 O33 1_555 1_555
Zn17 O11 1_555 1_555
Zn18 O41 1_555 1_555
Zn20 O2 1_555 1_555
Zn22 O1 1_555 1_555
Zn24 O10 1_555 1_555
Zn27 O37 1_555 1_555
Zn27_2 O43 1_555 1_555
Zn28_2 O44 1_555 1_555
O48 Zn2 1_555 1_555
O50 Zn5 1_555 1_555
O52 Zn11 1_555 1_555
O53 Zn9 1_555 1_555
O54 Zn11 1_555 1_555
O55 Zn9 1_555 1_555
O57 Zn2 1_555 1_555
O59 Zn5 1_555 1_555
O61 Zn28 1_555 1_555
O63 Zn4 1_555 1_555
O64 Zn1 1_555 1_555
Zn2 O9 1_555 1_555
C5 C6 1_555 1_555
C10 N1 1_555 1_555
C11 C12 1_555 1_555
C15 O6 1_555 1_555
C16 N1 1_555 1_555
C17 C18 1_555 1_555
Zn5 O18 1_555 1_555
C26 C27 1_555 1_555
C31 N2 1_555 1_555
C32 C33 1_555 1_555
C36 O15 1_555 1_555
C37 N2 1_555 1_555
C38 C39 1_555 1_555
C41 O12 1_555 1_555
C41 O14 1_555 1_555
C89 C90 1_555 1_555
C94 N5 1_555 1_555
C95 C96 1_555 1_555
C99 O38 1_555 1_555
C100 N5 1_555 1_555
C101 C102 1_555 1_555
O34 Zn22 1_555 1_555
C105 O39 1_555 1_555
C105 O40 1_555 1_555
C110 C111 1_555 1_555
C115 N6 1_555 1_555
C116 C117 1_555 1_555
C120 O45 1_555 1_555
C121 N6 1_555 1_555
C122 C123 1_555 1_555
O42 Zn24 1_555 1_555
C126 O46 1_555 1_555
C126 O47 1_555 1_555
O4_2 Zn3_2 1_555 1_555
H11 O4_2 1_555 1_555
O13_2 Zn6_2 1_555 1_555
H23 O13_2 1_555 1_555
Zn7 O24 1_555 1_555
C43 C44 1_555 1_555
C44 H25 1_555 1_555
C45 C44 1_555 1_555
H26 C45 1_555 1_555
C46 C45 1_555 1_555
C47 C46 1_555 1_555
H27 C47 1_555 1_555
C48 C43 1_555 1_555
H28 C48 1_555 1_555
C49 C50 1_555 1_555
C50 H29 1_555 1_555
C51 C50 1_555 1_555
H30 C51 1_555 1_555
C52 C51 1_555 1_555
C53 C52 1_555 1_555
C54 C49 1_555 1_555
H31 C54 1_555 1_555
C55 C56 1_555 1_555
C56 H32 1_555 1_555
C57 C56 1_555 1_555
C58 C57 1_555 1_555
C59 C58 1_555 1_555
H33 C59 1_555 1_555
C60 C55 1_555 1_555
H34 C60 1_555 1_555
O19 C61 1_555 1_555
C61 C55 1_555 1_555
O20 C61 1_555 1_555
C62 C49 1_555 1_555
O21 Zn3_2 1_555 1_555
O22 Zn6_2 1_555 1_555
O23 C53 1_555 1_555
C63 C46 1_555 1_555
O24 C63 1_555 1_555
O25 C63 1_555 1_555
N3 C43 1_555 1_555
Zn8 O31 1_555 1_555
C64 C65 1_555 1_555
C65 H35 1_555 1_555
C66 C65 1_555 1_555
H36 C66 1_555 1_555
C67 C66 1_555 1_555
C68 C67 1_555 1_555
H37 C68 1_555 1_555
C69 C64 1_555 1_555
H38 C69 1_555 1_555
C70 C71 1_555 1_555
C71 H39 1_555 1_555
C72 C71 1_555 1_555
H40 C72 1_555 1_555
C73 C72 1_555 1_555
C74 C73 1_555 1_555
C75 C70 1_555 1_555
H41 C75 1_555 1_555
C76 C77 1_555 1_555
C77 H42 1_555 1_555
C78 C77 1_555 1_555
C79 C78 1_555 1_555
C80 C79 1_555 1_555
H43 C80 1_555 1_555
C81 C76 1_555 1_555
H44 C81 1_555 1_555
O26 C82 1_555 1_555
C82 C76 1_555 1_555
O27 C82 1_555 1_555
C83 C70 1_555 1_555
O28 Zn6_2 1_555 1_555
O29 Zn3_2 1_555 1_555
O30 C74 1_555 1_555
C84 C67 1_555 1_555
O31 C84 1_555 1_555
O32 C84 1_555 1_555
N4 C64 1_555 1_555
Zn12 O25 1_555 1_555
Zn13 O32 1_555 1_555
Zn19 O27 1_555 1_555
Zn21 O20 1_555 1_555
Zn23 O26 1_555 1_555
Zn25 O19 1_555 1_555
O49 Zn7 1_555 1_555
O51 Zn8 1_555 1_555
O56 Zn8 1_555 1_555
O58 Zn7 1_555 1_555
O65 Zn7 1_555 1_555
O66 Zn8 1_555 1_555
C47 C48 1_555 1_555
C52 N3 1_555 1_555
C53 C54 1_555 1_555
C57 O23 1_555 1_555
C58 N3 1_555 1_555
C59 C60 1_555 1_555
C62 O21 1_555 1_555
C62 O22 1_555 1_555
C68 C69 1_555 1_555
C73 N4 1_555 1_555
C74 C75 1_555 1_555
C78 O30 1_555 1_555
C79 N4 1_555 1_555
C80 C81 1_555 1_555
C83 O28 1_555 1_555
C83 O29 1_555 1_555
Zn12 O65 1_555 1_555
Zn13 O66 1_555 1_555
O36_2 Zn28_2 1_555 1_555
H55 O36_2 1_555 1_555
O60 Zn28_2 1_555 1_555
O36_3 Zn27 1_555 1_555
H55_2 O36_3 1_555 1_555
O60_2 Zn27 1_555 1_555
O36_4 Zn27_2 1_555 1_555
H56_2 O36_4 1_555 1_555
O61_2 Zn27_2 1_555 1_555
Zn9_2 O66 1_555 1_555
C85_2 C86_2 1_555 1_555
C86_2 H45_2 1_555 1_555
C87_2 C86_2 1_555 1_555
H46_2 C87_2 1_555 1_555
C88_2 C87_2 1_555 1_555
C89_2 C88_2 1_555 1_555
H47_2 C89_2 1_555 1_555
C90_2 C85_2 1_555 1_555
H48_2 C90_2 1_555 1_555
C91_2 C92_2 1_555 1_555
C92_2 H49_2 1_555 1_555
C93_2 C92_2 1_555 1_555
H50_2 C93_2 1_555 1_555
C94_2 C93_2 1_555 1_555
C95_2 C94_2 1_555 1_555
C96_2 C91_2 1_555 1_555
H51_2 C96_2 1_555 1_555
C97_2 C98_2 1_555 1_555
C98_2 H52_2 1_555 1_555
C99_2 C98_2 1_555 1_555
C100_2 C99_2 1_555 1_555
C101_2 C100_2 1_555 1_555
H53_2 C101_2 1_555 1_555
C102_2 C97_2 1_555 1_555
H54_2 C102_2 1_555 1_555
O33_2 C103_2 1_555 1_555
C103_2 C97_2 1_555 1_555
O34_2 C103_2 1_555 1_555
C104_2 C91_2 1_555 1_555
O60_2 C104_2 1_555 1_555
O61 C104_2 1_555 1_555
O38_2 C95_2 1_555 1_555
C105_2 C88_2 1_555 1_555
O39_2 Zn9_2 1_555 1_555
O40_2 Zn13 1_555 1_555
N5_2 C85_2 1_555 1_555
Zn11_2 O65 1_555 1_555
C106_2 C107_2 1_555 1_555
C107_2 H57_2 1_555 1_555
C108_2 C107_2 1_555 1_555
H58_2 C108_2 1_555 1_555
C109_2 C108_2 1_555 1_555
C110_2 C109_2 1_555 1_555
H59_2 C110_2 1_555 1_555
C111_2 C106_2 1_555 1_555
H60_2 C111_2 1_555 1_555
C112_2 C113_2 1_555 1_555
C113_2 H61_2 1_555 1_555
C114_2 C113_2 1_555 1_555
H62_2 C114_2 1_555 1_555
C115_2 C114_2 1_555 1_555
C116_2 C115_2 1_555 1_555
C117_2 C112_2 1_555 1_555
H63_2 C117_2 1_555 1_555
C118_2 C119_2 1_555 1_555
C119_2 H64_2 1_555 1_555
C120_2 C119_2 1_555 1_555
C121_2 C120_2 1_555 1_555
C122_2 C121_2 1_555 1_555
H65_2 C122_2 1_555 1_555
C123_2 C118_2 1_555 1_555
H66_2 C123_2 1_555 1_555
O41_2 C124_2 1_555 1_555
C124_2 C118_2 1_555 1_555
O42_2 C124_2 1_555 1_555
C125_2 C112_2 1_555 1_555
O60 C125_2 1_555 1_555
O61_2 C125_2 1_555 1_555
O45_2 C116_2 1_555 1_555
C126_2 C109_2 1_555 1_555
O46_2 Zn11_2 1_555 1_555
O47_2 Zn12 1_555 1_555
N6_2 C106_2 1_555 1_555
Zn14_2 O66 1_555 1_555
Zn15_2 O65 1_555 1_555
Zn16_2 O33_2 1_555 1_555
Zn18_2 O41_2 1_555 1_555
O52_2 Zn11_2 1_555 1_555
O53_2 Zn9_2 1_555 1_555
O54_2 Zn11_2 1_555 1_555
O55_2 Zn9_2 1_555 1_555
O63_2 Zn13 1_555 1_555
O64_2 Zn12 1_555 1_555
C89_2 C90_2 1_555 1_555
C94_2 N5_2 1_555 1_555
C95_2 C96_2 1_555 1_555
C99_2 O38_2 1_555 1_555
C100_2 N5_2 1_555 1_555
C101_2 C102_2 1_555 1_555
O34_2 Zn25 1_555 1_555
C105_2 O39_2 1_555 1_555
C105_2 O40_2 1_555 1_555
C110_2 C111_2 1_555 1_555
C115_2 N6_2 1_555 1_555
C116_2 C117_2 1_555 1_555
C120_2 O45_2 1_555 1_555
C121_2 N6_2 1_555 1_555
C122_2 C123_2 1_555 1_555
O42_2 Zn23 1_555 1_555
C126_2 O46_2 1_555 1_555
C126_2 O47_2 1_555 1_555
Zn28_3 O35_2 1_555 1_555
C85_3 C86_3 1_555 1_555
C86_3 H45_3 1_555 1_555
C87_3 C86_3 1_555 1_555
H46_3 C87_3 1_555 1_555
C88_3 C87_3 1_555 1_555
C89_3 C88_3 1_555 1_555
H47_3 C89_3 1_555 1_555
C90_3 C85_3 1_555 1_555
H48_3 C90_3 1_555 1_555
C91_3 C92_3 1_555 1_555
C92_3 H49_3 1_555 1_555
C93_3 C92_3 1_555 1_555
H50_3 C93_3 1_555 1_555
C94_3 C93_3 1_555 1_555
C95_3 C94_3 1_555 1_555
C96_3 C91_3 1_555 1_555
H51_3 C96_3 1_555 1_555
C97_3 C98_3 1_555 1_555
C98_3 H52_3 1_555 1_555
C99_3 C98_3 1_555 1_555
C100_3 C99_3 1_555 1_555
C101_3 C100_3 1_555 1_555
H53_3 C101_3 1_555 1_555
C102_3 C97_3 1_555 1_555
H54_3 C102_3 1_555 1_555
O33_3 C103_3 1_555 1_555
C103_3 C97_3 1_555 1_555
O34_3 C103_3 1_555 1_555
C104_3 C91_3 1_555 1_555
O35_2 C104_3 1_555 1_555
O36_5 Zn28_3 1_555 1_555
O37_2 C104_3 1_555 1_555
O38_3 C95_3 1_555 1_555
C105_3 C88_3 1_555 1_555
O39_3 Zn14 1_555 1_555
N5_3 C85_3 1_555 1_555
H56_3 O36_5 1_555 1_555
C106_3 C107_3 1_555 1_555
C107_3 H57_3 1_555 1_555
C108_3 C107_3 1_555 1_555
H58_3 C108_3 1_555 1_555
C109_3 C108_3 1_555 1_555
C110_3 C109_3 1_555 1_555
H59_3 C110_3 1_555 1_555
C111_3 C106_3 1_555 1_555
H60_3 C111_3 1_555 1_555
C112_3 C113_3 1_555 1_555
C113_3 H61_3 1_555 1_555
C114_3 C113_3 1_555 1_555
H62_3 C114_3 1_555 1_555
C115_3 C114_3 1_555 1_555
C116_3 C115_3 1_555 1_555
C117_3 C112_3 1_555 1_555
H63_3 C117_3 1_555 1_555
C118_3 C119_3 1_555 1_555
C119_3 H64_3 1_555 1_555
C120_3 C119_3 1_555 1_555
C121_3 C120_3 1_555 1_555
C122_3 C121_3 1_555 1_555
H65_3 C122_3 1_555 1_555
C123_3 C118_3 1_555 1_555
H66_3 C123_3 1_555 1_555
O41_3 C124_3 1_555 1_555
C124_3 C118_3 1_555 1_555
O42_3 C124_3 1_555 1_555
C125_3 C112_3 1_555 1_555
O43_2 C125_3 1_555 1_555
O44_2 C125_3 1_555 1_555
O45_3 C116_3 1_555 1_555
C126_3 C109_3 1_555 1_555
O46_3 Zn14_2 1_555 1_555
N6_3 C106_3 1_555 1_555
Zn21 O33_3 1_555 1_555
Zn20 O41_3 1_555 1_555
Zn27_3 O37_2 1_555 1_555
Zn27_4 O43_2 1_555 1_555
Zn28_4 O44_2 1_555 1_555
O52_3 Zn14_2 1_555 1_555
O53_3 Zn14 1_555 1_555
O54_3 Zn14_2 1_555 1_555
O55_3 Zn14 1_555 1_555
O61_3 Zn28_3 1_555 1_555
C89_3 C90_3 1_555 1_555
C94_3 N5_3 1_555 1_555
C95_3 C96_3 1_555 1_555
C99_3 O38_3 1_555 1_555
C100_3 N5_3 1_555 1_555
C101_3 C102_3 1_555 1_555
O34_3 Zn16_2 1_555 1_555
C105_3 O39_3 1_555 1_555
C105_3 O63 1_555 1_555
C110_3 C111_3 1_555 1_555
C115_3 N6_3 1_555 1_555
C116_3 C117_3 1_555 1_555
C120_3 O45_3 1_555 1_555
C121_3 N6_3 1_555 1_555
C122_3 C123_3 1_555 1_555
O42_3 Zn16 1_555 1_555
C126_3 O46_3 1_555 1_555
C126_3 O63_2 1_555 1_555
O36_6 Zn28_4 1_555 1_555
H55_3 O36_6 1_555 1_555
O60_3 Zn28_4 1_555 1_555
O36_7 Zn27_3 1_555 1_555
H55_4 O36_7 1_555 1_555
O60_4 Zn27_3 1_555 1_555
O36_8 Zn27_4 1_555 1_555
H56_4 O36_8 1_555 1_555
O61_4 Zn27_4 1_555 1_555
C85_4 C86_4 1_555 1_555
C86_4 H45_4 1_555 1_555
C87_4 C86_4 1_555 1_555
H46_4 C87_4 1_555 1_555
C88_4 C87_4 1_555 1_555
C89_4 C88_4 1_555 1_555
H47_4 C89_4 1_555 1_555
C90_4 C85_4 1_555 1_555
H48_4 C90_4 1_555 1_555
C91_4 C92_4 1_555 1_555
C92_4 H49_4 1_555 1_555
C93_4 C92_4 1_555 1_555
H50_4 C93_4 1_555 1_555
C94_4 C93_4 1_555 1_555
C95_4 C94_4 1_555 1_555
C96_4 C91_4 1_555 1_555
H51_4 C96_4 1_555 1_555
C97_4 C98_4 1_555 1_555
C98_4 H52_4 1_555 1_555
C99_4 C98_4 1_555 1_555
C100_4 C99_4 1_555 1_555
C101_4 C100_4 1_555 1_555
H53_4 C101_4 1_555 1_555
C102_4 C97_4 1_555 1_555
H54_4 C102_4 1_555 1_555
O33_4 C103_4 1_555 1_555
C103_4 C97_4 1_555 1_555
O34_4 C103_4 1_555 1_555
C104_4 C91_4 1_555 1_555
O60_3 C104_4 1_555 1_555
O61_4 C104_4 1_555 1_555
O38_4 C95_4 1_555 1_555
C105_4 C88_4 1_555 1_555
O39_4 Zn15 1_555 1_555
N5_4 C85_4 1_555 1_555
C106_4 C107_4 1_555 1_555
C107_4 H57_4 1_555 1_555
C108_4 C107_4 1_555 1_555
H58_4 C108_4 1_555 1_555
C109_4 C108_4 1_555 1_555
C110_4 C109_4 1_555 1_555
H59_4 C110_4 1_555 1_555
C111_4 C106_4 1_555 1_555
H60_4 C111_4 1_555 1_555
C112_4 C113_4 1_555 1_555
C113_4 H61_4 1_555 1_555
C114_4 C113_4 1_555 1_555
H62_4 C114_4 1_555 1_555
C115_4 C114_4 1_555 1_555
C116_4 C115_4 1_555 1_555
C117_4 C112_4 1_555 1_555
H63_4 C117_4 1_555 1_555
C118_4 C119_4 1_555 1_555
C119_4 H64_4 1_555 1_555
C120_4 C119_4 1_555 1_555
C121_4 C120_4 1_555 1_555
C122_4 C121_4 1_555 1_555
H65_4 C122_4 1_555 1_555
C123_4 C118_4 1_555 1_555
H66_4 C123_4 1_555 1_555
O41_4 C124_4 1_555 1_555
C124_4 C118_4 1_555 1_555
O42_4 C124_4 1_555 1_555
C125_4 C112_4 1_555 1_555
O60_4 C125_4 1_555 1_555
O61_3 C125_4 1_555 1_555
O45_4 C116_4 1_555 1_555
C126_4 C109_4 1_555 1_555
O46_4 Zn15_2 1_555 1_555
N6_4 C106_4 1_555 1_555
Zn19 O33_4 1_555 1_555
Zn17 O41_4 1_555 1_555
O52_4 Zn15_2 1_555 1_555
O53_4 Zn15 1_555 1_555
O54_4 Zn15_2 1_555 1_555
O55_4 Zn15 1_555 1_555
C89_4 C90_4 1_555 1_555
C94_4 N5_4 1_555 1_555
C95_4 C96_4 1_555 1_555
C99_4 O38_4 1_555 1_555
C100_4 N5_4 1_555 1_555
C101_4 C102_4 1_555 1_555
O34_4 Zn18_2 1_555 1_555
C105_4 O39_4 1_555 1_555
C105_4 O64 1_555 1_555
C110_4 C111_4 1_555 1_555
C115_4 N6_4 1_555 1_555
C116_4 C117_4 1_555 1_555
C120_4 O45_4 1_555 1_555
C121_4 N6_4 1_555 1_555
C122_4 C123_4 1_555 1_555
O42_4 Zn18 1_555 1_555
C126_4 O46_4 1_555 1_555
C126_4 O64_2 1_555 1_555
Zn1_2 O8_2 1_555 1_555
Zn16_2 O7_2 1_555 1_555
Zn3_3 O3_2 1_555 1_555
C1_2 C2_2 1_555 1_555
C2_2 H1_2 1_555 1_555
C3_2 C2_2 1_555 1_555
H2_2 C3_2 1_555 1_555
C4_2 C3_2 1_555 1_555
C5_2 C4_2 1_555 1_555
H3_2 C5_2 1_555 1_555
C6_2 C1_2 1_555 1_555
H4_2 C6_2 1_555 1_555
C7_2 C8_2 1_555 1_555
C8_2 H5_2 1_555 1_555
C9_2 C8_2 1_555 1_555
H6_2 C9_2 1_555 1_555
C10_2 C9_2 1_555 1_555
C20_2 C7_2 1_555 1_555
O3_2 C20_2 1_555 1_555
O4_3 Zn3_3 1_555 1_555
H11_2 O4_3 1_555 1_555
C21_2 C4_2 1_555 1_555
O7_2 C21_2 1_555 1_555
O8_2 C21_2 1_555 1_555
O9_2 Zn1_2 1_555 1_555
N1_2 C1_2 1_555 1_555
H41_2 C75_2 1_555 1_555
C76_2 C77_2 1_555 1_555
C77_2 H42_2 1_555 1_555
C78_2 C77_2 1_555 1_555
C79_2 C78_2 1_555 1_555
C80_2 C79_2 1_555 1_555
H43_2 C80_2 1_555 1_555
C81_2 C76_2 1_555 1_555
H44_2 C81_2 1_555 1_555
O53_3 C82_2 1_555 1_555
C82_2 C76_2 1_555 1_555
O55 C82_2 1_555 1_555
O29_2 Zn3_3 1_555 1_555
O30_2 C74_2 1_555 1_555
Zn21 O9_2 1_555 1_555
C106_5 C107_5 1_555 1_555
C107_5 H57_5 1_555 1_555
C108_5 C107_5 1_555 1_555
H58_5 C108_5 1_555 1_555
C109_5 C108_5 1_555 1_555
C110_5 C109_5 1_555 1_555
H59_5 C110_5 1_555 1_555
C111_5 C106_5 1_555 1_555
H60_5 C111_5 1_555 1_555
C112_5 C113_5 1_555 1_555
C113_5 H61_5 1_555 1_555
C114_5 C113_5 1_555 1_555
H62_5 C114_5 1_555 1_555
C115_5 C114_5 1_555 1_555
C125_5 C112_5 1_555 1_555
O43_3 C125_5 1_555 1_555
C126_5 C109_5 1_555 1_555
O46_5 Zn21 1_555 1_555
O47_3 Zn1_2 1_555 1_555
N6_5 C106_5 1_555 1_555
Zn25 O9_2 1_555 1_555
Zn27_6 O43_3 1_555 1_555
O64_3 Zn1_2 1_555 1_555
Zn16_2 O9_2 1_555 1_555
C5_2 C6_2 1_555 1_555
C10_2 N1_2 1_555 1_555
C74_2 C75_2 1_555 1_555
C78_2 O30_2 1_555 1_555
C80_2 C81_2 1_555 1_555
C110_5 C111_5 1_555 1_555
C115_5 N6_5 1_555 1_555
C126_5 O46_5 1_555 1_555
C126_5 O47_3 1_555 1_555
O4_4 Zn3_4 1_555 1_555
H12_2 O4_4 1_555 1_555
H19_2 C33_2 1_555 1_555
C34_2 C35_2 1_555 1_555
C35_2 H20_2 1_555 1_555
C36_2 C35_2 1_555 1_555
C37_2 C36_2 1_555 1_555
C38_2 C37_2 1_555 1_555
H21_2 C38_2 1_555 1_555
C39_2 C34_2 1_555 1_555
H22_2 C39_2 1_555 1_555
O52_3 C40_2 1_555 1_555
C40_2 C34_2 1_555 1_555
O55_2 C40_2 1_555 1_555
O14_2 Zn3_4 1_555 1_555
O15_2 C32_2 1_555 1_555
Zn16 O24_2 1_555 1_555
C43_2 C44_2 1_555 1_555
C44_2 H25_2 1_555 1_555
C45_2 C44_2 1_555 1_555
H26_2 C45_2 1_555 1_555
C46_2 C45_2 1_555 1_555
C47_2 C46_2 1_555 1_555
H27_2 C47_2 1_555 1_555
C48_2 C43_2 1_555 1_555
H28_2 C48_2 1_555 1_555
C49_2 C50_2 1_555 1_555
C50_2 H29_2 1_555 1_555
C51_2 C50_2 1_555 1_555
H30_2 C51_2 1_555 1_555
C52_2 C51_2 1_555 1_555
C62_2 C49_2 1_555 1_555
O21_2 Zn3_4 1_555 1_555
C63_2 C46_2 1_555 1_555
O24_2 C63_2 1_555 1_555
O25_2 C63_2 1_555 1_555
N3_2 C43_2 1_555 1_555
H63_5 C117_5 1_555 1_555
C118_5 C119_5 1_555 1_555
C119_5 H64_5 1_555 1_555
C120_5 C119_5 1_555 1_555
C121_5 C120_5 1_555 1_555
C122_5 C121_5 1_555 1_555
H65_5 C122_5 1_555 1_555
C123_5 C118_5 1_555 1_555
H66_5 C123_5 1_555 1_555
O51 C124_5 1_555 1_555
C124_5 C118_5 1_555 1_555
O54_3 C124_5 1_555 1_555
O45_5 C116_5 1_555 1_555
Zn12_2 O25_2 1_555 1_555
Zn28_6 O44_3 1_555 1_555
O65_2 Zn16 1_555 1_555
C32_2 C33_2 1_555 1_555
C36_2 O15_2 1_555 1_555
C38_2 C39_2 1_555 1_555
C47_2 C48_2 1_555 1_555
C52_2 N3_2 1_555 1_555
C62_2 O21_2 1_555 1_555
C116_5 C117_5 1_555 1_555
C120_5 O45_5 1_555 1_555
C122_5 C123_5 1_555 1_555
Zn12_2 O65_2 1_555 1_555
H7_2 C12_2 1_555 1_555
C13_2 C14_2 1_555 1_555
C14_2 H8_2 1_555 1_555
C15_2 C14_2 1_555 1_555
C16_2 C15_2 1_555 1_555
C17_2 C16_2 1_555 1_555
H9_2 C17_2 1_555 1_555
C18_2 C13_2 1_555 1_555
H10_2 C18_2 1_555 1_555
O52_4 C19_2 1_555 1_555
C19_2 C13_2 1_555 1_555
O54_2 C19_2 1_555 1_555
O6_2 C11_2 1_555 1_555
Zn6_3 O5_2 1_555 1_555
O13_3 Zn6_3 1_555 1_555
H24_2 O13_3 1_555 1_555
Zn18 O31_2 1_555 1_555
C64_2 C65_2 1_555 1_555
C65_2 H35_2 1_555 1_555
C66_2 C65_2 1_555 1_555
H36_2 C66_2 1_555 1_555
C67_2 C66_2 1_555 1_555
C68_2 C67_2 1_555 1_555
H37_2 C68_2 1_555 1_555
C69_2 C64_2 1_555 1_555
H38_2 C69_2 1_555 1_555
C70_2 C71_2 1_555 1_555
C71_2 H39_2 1_555 1_555
C72_2 C71_2 1_555 1_555
H40_2 C72_2 1_555 1_555
C73_2 C72_2 1_555 1_555
C83_2 C70_2 1_555 1_555
O28_2 Zn6_3 1_555 1_555
C84_2 C67_2 1_555 1_555
O31_2 C84_2 1_555 1_555
O32_2 C84_2 1_555 1_555
N4_2 C64_2 1_555 1_555
H51_5 C96_5 1_555 1_555
C97_5 C98_5 1_555 1_555
C98_5 H52_5 1_555 1_555
C99_5 C98_5 1_555 1_555
C100_5 C99_5 1_555 1_555
C101_5 C100_5 1_555 1_555
H53_5 C101_5 1_555 1_555
C102_5 C97_5 1_555 1_555
H54_5 C102_5 1_555 1_555
O49 C103_5 1_555 1_555
C103_5 C97_5 1_555 1_555
O54_4 C103_5 1_555 1_555
O38_5 C95_5 1_555 1_555
Zn13_2 O32_2 1_555 1_555
Zn27_6 O37_3 1_555 1_555
O66_2 Zn18 1_555 1_555
C11_2 C12_2 1_555 1_555
C15_2 O6_2 1_555 1_555
C17_2 C18_2 1_555 1_555
C68_2 C69_2 1_555 1_555
C73_2 N4_2 1_555 1_555
C83_2 O28_2 1_555 1_555
C95_5 C96_5 1_555 1_555
C99_5 O38_5 1_555 1_555
C101_5 C102_5 1_555 1_555
Zn13_2 O66_2 1_555 1_555
O36_9 Zn28_5 1_555 1_555
H56_5 O36_9 1_555 1_555
O60_5 Zn28_5 1_555 1_555
O61_5 Zn28_5 1_555 1_555
Zn4_2 O17_2 1_555 1_555
Zn18_2 O16_2 1_555 1_555
C22_2 C23_2 1_555 1_555
C23_2 H13_2 1_555 1_555
C24_2 C23_2 1_555 1_555
H14_2 C24_2 1_555 1_555
C25_2 C24_2 1_555 1_555
C26_2 C25_2 1_555 1_555
H15_2 C26_2 1_555 1_555
C27_2 C22_2 1_555 1_555
H16_2 C27_2 1_555 1_555
C28_2 C29_2 1_555 1_555
C29_2 H17_2 1_555 1_555
C30_2 C29_2 1_555 1_555
H18_2 C30_2 1_555 1_555
C31_2 C30_2 1_555 1_555
C41_2 C28_2 1_555 1_555
O12_2 Zn6_4 1_555 1_555
O13_4 Zn6_4 1_555 1_555
H23_2 O13_4 1_555 1_555
C42_2 C25_2 1_555 1_555
O16_2 C42_2 1_555 1_555
O17_2 C42_2 1_555 1_555
O18_2 Zn4_2 1_555 1_555
N2_2 C22_2 1_555 1_555
H31_2 C54_2 1_555 1_555
C55_2 C56_2 1_555 1_555
C56_2 H32_2 1_555 1_555
C57_2 C56_2 1_555 1_555
C58_2 C57_2 1_555 1_555
C59_2 C58_2 1_555 1_555
H33_2 C59_2 1_555 1_555
C60_2 C55_2 1_555 1_555
H34_2 C60_2 1_555 1_555
O53_4 C61_2 1_555 1_555
C61_2 C55_2 1_555 1_555
O54 C61_2 1_555 1_555
O22_2 Zn6_4 1_555 1_555
O23_2 C53_2 1_555 1_555
Zn19 O18_2 1_555 1_555
Zn28_6 O35_3 1_555 1_555
C85_5 C86_5 1_555 1_555
C86_5 H45_5 1_555 1_555
C87_5 C86_5 1_555 1_555
H46_5 C87_5 1_555 1_555
C88_5 C87_5 1_555 1_555
C89_5 C88_5 1_555 1_555
H47_5 C89_5 1_555 1_555
C90_5 C85_5 1_555 1_555
H48_5 C90_5 1_555 1_555
C91_5 C92_5 1_555 1_555
C92_5 H49_5 1_555 1_555
C93_5 C92_5 1_555 1_555
H50_5 C93_5 1_555 1_555
C94_5 C93_5 1_555 1_555
C104_5 C91_5 1_555 1_555
O35_3 C104_5 1_555 1_555
O36_10 Zn28_6 1_555 1_555
H55_5 O36_10 1_555 1_555
C105_5 C88_5 1_555 1_555
O39_5 Zn19 1_555 1_555
O40_3 Zn4_2 1_555 1_555
N5_5 C85_5 1_555 1_555
Zn23 O18_2 1_555 1_555
O63_3 Zn4_2 1_555 1_555
Zn18_2 O18_2 1_555 1_555
C26_2 C27_2 1_555 1_555
C31_2 N2_2 1_555 1_555
C41_2 O12_2 1_555 1_555
C53_2 C54_2 1_555 1_555
C57_2 O23_2 1_555 1_555
C59_2 C60_2 1_555 1_555
C89_5 C90_5 1_555 1_555
C94_5 N5_5 1_555 1_555
C105_5 O39_5 1_555 1_555
C105_5 O40_3 1_555 1_555
O36_11 Zn27_5 1_555 1_555
H56_6 O36_11 1_555 1_555
O60_6 Zn27_5 1_555 1_555
O61_6 Zn27_5 1_555 1_555
O36_12 Zn27_6 1_555 1_555
H55_6 O36_12 1_555 1_555
H63_6 C117_6 1_555 1_555
C118_6 C119_6 1_555 1_555
C119_6 H64_6 1_555 1_555
C120_6 C119_6 1_555 1_555
C121_6 C120_6 1_555 1_555
C122_6 C121_6 1_555 1_555
H65_6 C122_6 1_555 1_555
C123_6 C118_6 1_555 1_555
H66_6 C123_6 1_555 1_555
O50 C124_6 1_555 1_555
C124_6 C118_6 1_555 1_555
O55_3 C124_6 1_555 1_555
O45_6 C116_6 1_555 1_555
C116_6 C117_6 1_555 1_555
C120_6 O45_6 1_555 1_555
C122_6 C123_6 1_555 1_555
Zn20 O65_2 1_555 1_555
C106_6 C107_6 1_555 1_555
C107_6 H57_6 1_555 1_555
C108_6 C107_6 1_555 1_555
H58_6 C108_6 1_555 1_555
C109_6 C108_6 1_555 1_555
C110_6 C109_6 1_555 1_555
H59_6 C110_6 1_555 1_555
C111_6 C106_6 1_555 1_555
H60_6 C111_6 1_555 1_555
C112_6 C113_6 1_555 1_555
C113_6 H61_6 1_555 1_555
C114_6 C113_6 1_555 1_555
H62_6 C114_6 1_555 1_555
C115_6 C114_6 1_555 1_555
C125_6 C112_6 1_555 1_555
O60_5 C125_6 1_555 1_555
C126_6 C109_6 1_555 1_555
O46_6 Zn20 1_555 1_555
O47_4 Zn12_2 1_555 1_555
N6_6 C106_6 1_555 1_555
Zn22 O65_2 1_555 1_555
O64_4 Zn12_2 1_555 1_555
C110_6 C111_6 1_555 1_555
C115_6 N6_6 1_555 1_555
C126_6 O46_6 1_555 1_555
C126_6 O47_4 1_555 1_555
Zn17 O66_2 1_555 1_555
C85_6 C86_6 1_555 1_555
C86_6 H45_6 1_555 1_555
C87_6 C86_6 1_555 1_555
H46_6 C87_6 1_555 1_555
C88_6 C87_6 1_555 1_555
C89_6 C88_6 1_555 1_555
H47_6 C89_6 1_555 1_555
C90_6 C85_6 1_555 1_555
H48_6 C90_6 1_555 1_555
C91_6 C92_6 1_555 1_555
C92_6 H49_6 1_555 1_555
C93_6 C92_6 1_555 1_555
H50_6 C93_6 1_555 1_555
C94_6 C93_6 1_555 1_555
C104_6 C91_6 1_555 1_555
O60_6 C104_6 1_555 1_555
C105_6 C88_6 1_555 1_555
O39_6 Zn17 1_555 1_555
O40_4 Zn13_2 1_555 1_555
N5_6 C85_6 1_555 1_555
Zn24 O66_2 1_555 1_555
O63_4 Zn13_2 1_555 1_555
C89_6 C90_6 1_555 1_555
C94_6 N5_6 1_555 1_555
C105_6 O39_6 1_555 1_555
C105_6 O40_4 1_555 1_555
H51_6 C96_6 1_555 1_555
C97_6 C98_6 1_555 1_555
C98_6 H52_6 1_555 1_555
C99_6 C98_6 1_555 1_555
C100_6 C99_6 1_555 1_555
C101_6 C100_6 1_555 1_555
H53_6 C101_6 1_555 1_555
C102_6 C97_6 1_555 1_555
H54_6 C102_6 1_555 1_555
O48 C103_6 1_555 1_555
C103_6 C97_6 1_555 1_555
O55_4 C103_6 1_555 1_555
O38_6 C95_6 1_555 1_555
C95_6 C96_6 1_555 1_555
C99_6 O38_6 1_555 1_555
C101_6 C102_6 1_555 1_555
O36_13 Zn28_7 1_555 1_555
H56_7 O36_13 1_555 1_555
O60_7 Zn28_7 1_555 1_555
O61_7 Zn28_7 1_555 1_555
C106_7 C107_7 1_555 1_555
C107_7 H57_7 1_555 1_555
C108_7 C107_7 1_555 1_555
H58_7 C108_7 1_555 1_555
C109_7 C108_7 1_555 1_555
C110_7 C109_7 1_555 1_555
H59_7 C110_7 1_555 1_555
C111_7 C106_7 1_555 1_555
H60_7 C111_7 1_555 1_555
C112_7 C113_7 1_555 1_555
C113_7 H61_7 1_555 1_555
C114_7 C113_7 1_555 1_555
H62_7 C114_7 1_555 1_555
C115_7 C114_7 1_555 1_555
C125_7 C112_7 1_555 1_555
O43_4 C125_7 1_555 1_555
C126_7 C109_7 1_555 1_555
O46_7 Zn24 1_555 1_555
N6_7 C106_7 1_555 1_555
Zn27_8 O43_4 1_555 1_555
C110_7 C111_7 1_555 1_555
C115_7 N6_7 1_555 1_555
C126_7 O46_7 1_555 1_555
C126_7 O63_4 1_555 1_555
H63_7 C117_7 1_555 1_555
C118_7 C119_7 1_555 1_555
C119_7 H64_7 1_555 1_555
C120_7 C119_7 1_555 1_555
C121_7 C120_7 1_555 1_555
C122_7 C121_7 1_555 1_555
H65_7 C122_7 1_555 1_555
C123_7 C118_7 1_555 1_555
H66_7 C123_7 1_555 1_555
O52_2 C124_7 1_555 1_555
C124_7 C118_7 1_555 1_555
O58 C124_7 1_555 1_555
O45_7 C116_7 1_555 1_555
Zn28_8 O44_4 1_555 1_555
C116_7 C117_7 1_555 1_555
C120_7 O45_7 1_555 1_555
C122_7 C123_7 1_555 1_555
H51_7 C96_7 1_555 1_555
C97_7 C98_7 1_555 1_555
C98_7 H52_7 1_555 1_555
C99_7 C98_7 1_555 1_555
C100_7 C99_7 1_555 1_555
C101_7 C100_7 1_555 1_555
H53_7 C101_7 1_555 1_555
C102_7 C97_7 1_555 1_555
H54_7 C102_7 1_555 1_555
O52 C103_7 1_555 1_555
C103_7 C97_7 1_555 1_555
O57 C103_7 1_555 1_555
O38_7 C95_7 1_555 1_555
Zn27_8 O37_4 1_555 1_555
C95_7 C96_7 1_555 1_555
C99_7 O38_7 1_555 1_555
C101_7 C102_7 1_555 1_555
Zn28_8 O35_4 1_555 1_555
C85_7 C86_7 1_555 1_555
C86_7 H45_7 1_555 1_555
C87_7 C86_7 1_555 1_555
H46_7 C87_7 1_555 1_555
C88_7 C87_7 1_555 1_555
C89_7 C88_7 1_555 1_555
H47_7 C89_7 1_555 1_555
C90_7 C85_7 1_555 1_555
H48_7 C90_7 1_555 1_555
C91_7 C92_7 1_555 1_555
C92_7 H49_7 1_555 1_555
C93_7 C92_7 1_555 1_555
H50_7 C93_7 1_555 1_555
C94_7 C93_7 1_555 1_555
C104_7 C91_7 1_555 1_555
O35_4 C104_7 1_555 1_555
O36_14 Zn28_8 1_555 1_555
H55_7 O36_14 1_555 1_555
C105_7 C88_7 1_555 1_555
O39_7 Zn23 1_555 1_555
N5_7 C85_7 1_555 1_555
C89_7 C90_7 1_555 1_555
C94_7 N5_7 1_555 1_555
C105_7 O39_7 1_555 1_555
C105_7 O63_3 1_555 1_555
O36_15 Zn27_7 1_555 1_555
H56_8 O36_15 1_555 1_555
O60_8 Zn27_7 1_555 1_555
O61_8 Zn27_7 1_555 1_555
O36_16 Zn27_8 1_555 1_555
H55_8 O36_16 1_555 1_555
H51_8 C96_8 1_555 1_555
C97_8 C98_8 1_555 1_555
C98_8 H52_8 1_555 1_555
C99_8 C98_8 1_555 1_555
C100_8 C99_8 1_555 1_555
C101_8 C100_8 1_555 1_555
H53_8 C101_8 1_555 1_555
C102_8 C97_8 1_555 1_555
H54_8 C102_8 1_555 1_555
O53 C103_8 1_555 1_555
C103_8 C97_8 1_555 1_555
O59 C103_8 1_555 1_555
O38_8 C95_8 1_555 1_555
C95_8 C96_8 1_555 1_555
C99_8 O38_8 1_555 1_555
C101_8 C102_8 1_555 1_555
C85_8 C86_8 1_555 1_555
C86_8 H45_8 1_555 1_555
C87_8 C86_8 1_555 1_555
H46_8 C87_8 1_555 1_555
C88_8 C87_8 1_555 1_555
C89_8 C88_8 1_555 1_555
H47_8 C89_8 1_555 1_555
C90_8 C85_8 1_555 1_555
H48_8 C90_8 1_555 1_555
C91_8 C92_8 1_555 1_555
C92_8 H49_8 1_555 1_555
C93_8 C92_8 1_555 1_555
H50_8 C93_8 1_555 1_555
C94_8 C93_8 1_555 1_555
C104_8 C91_8 1_555 1_555
O60_7 C104_8 1_555 1_555
C105_8 C88_8 1_555 1_555
O39_8 Zn25 1_555 1_555
N5_8 C85_8 1_555 1_555
C89_8 C90_8 1_555 1_555
C94_8 N5_8 1_555 1_555
C105_8 O39_8 1_555 1_555
C105_8 O64_3 1_555 1_555
C106_8 C107_8 1_555 1_555
C107_8 H57_8 1_555 1_555
C108_8 C107_8 1_555 1_555
H58_8 C108_8 1_555 1_555
C109_8 C108_8 1_555 1_555
C110_8 C109_8 1_555 1_555
H59_8 C110_8 1_555 1_555
C111_8 C106_8 1_555 1_555
H60_8 C111_8 1_555 1_555
C112_8 C113_8 1_555 1_555
C113_8 H61_8 1_555 1_555
C114_8 C113_8 1_555 1_555
H62_8 C114_8 1_555 1_555
C115_8 C114_8 1_555 1_555
C125_8 C112_8 1_555 1_555
O60_8 C125_8 1_555 1_555
C126_8 C109_8 1_555 1_555
O46_8 Zn22 1_555 1_555
N6_8 C106_8 1_555 1_555
C110_8 C111_8 1_555 1_555
C115_8 N6_8 1_555 1_555
C126_8 O46_8 1_555 1_555
C126_8 O64_4 1_555 1_555
H63_8 C117_8 1_555 1_555
C118_8 C119_8 1_555 1_555
C119_8 H64_8 1_555 1_555
C120_8 C119_8 1_555 1_555
C121_8 C120_8 1_555 1_555
C122_8 C121_8 1_555 1_555
H65_8 C122_8 1_555 1_555
C123_8 C118_8 1_555 1_555
H66_8 C123_8 1_555 1_555
O53_2 C124_8 1_555 1_555
C124_8 C118_8 1_555 1_555
O56 C124_8 1_555 1_555
O45_8 C116_8 1_555 1_555
C116_8 C117_8 1_555 1_555
C120_8 O45_8 1_555 1_555
C122_8 C123_8 1_555 1_555

#END
