
###############################################################################
#
# This file contains modified crystal structure data generated from the
# MOF subset of the Cambridge Structural Database (CSD) v543 
# hosted by the Cambridge Crystallographic Data Centre (CCDC).
#
# This work is licensed under the Creative Commons
# Attribution-NonCommercial-ShareAlike 4.0 International License.
# To view a copy of this license, visit
# http://creativecommons.org/licenses/by-nc-sa/4.0/
# or send a letter to
# Creative Commons, PO Box 1866, Mountain View, CA 94042, USA.
#
# CIF created using the CSD Python API on 29 September 2022
# The structure has been converted into the P1 space group
# The structure has a 3D framework
# The original CSD entry MAHCOQ is in the cubic crystal system
# The original CSD entry MAHCOQ is in a Sohncke space group
# The framework has been calculated to contain at least 10.0% void space
# The void calculation uses a probe of radius 1.32A, grid spacing 0.4
#
###############################################################################

data_MAHCOQ
_chemical_formula_moiety         '(C504 H264 Co24 N24 O192 Zn32)n'
_symmetry_cell_setting           triclinic
_symmetry_space_group_name_H-M   'P 1'
_symmetry_Int_Tables_number      1
_space_group_name_Hall           'P 1'
loop_
_symmetry_equiv_pos_site_id
_symmetry_equiv_pos_as_xyz
1 x,y,z
_cell_length_a                   33.7837(3)
_cell_length_b                   33.7837(3)
_cell_length_c                   33.7837(3)
_cell_angle_alpha                90
_cell_angle_beta                 90
_cell_angle_gamma                90
_cell_volume                     38558.6
loop_
_atom_site_label
_atom_site_type_symbol
_atom_site_fract_x
_atom_site_fract_y
_atom_site_fract_z
Co5 Co 0.45644(8) -0.0000 0.5000
Co6 Co 0.54356(8) -0.0000 0.5000
Co1 Co 0.5000 0.45644(8) 0.0000
O5 O 0.5000 0.3982(5) 0.0000
H12 H 0.497(5) 0.3924(8) 0.0266(10)
Co2 Co 0.5000 0.54356(8) 0.0000
O14 O 0.5000 0.6018(5) 0.0000
H24 H 0.503(5) 0.6076(8) 0.0266(10)
C43 C 0.6755(11) 0.6018(5) 0.1893(10)
H25 H 0.6620 0.6242 0.1807
C44 C 0.6390(9) 0.4940(5) 0.1449(9)
C45 C 0.7263(10) 0.5729(5) 0.2293(7)
H26 H 0.7481 0.5747 0.2461
O19 O 0.6338(9) 0.5663(4) 0.1477(8)
C46 C 0.7121(8) 0.5365(6) 0.2170(9)
H27 H 0.7221 0.5139 0.2291
N3 N 0.6700(8) 0.4954(5) 0.1757(8)
C47 C 0.6245(10) 0.5308(6) 0.1314(8)
C48 C 0.6651(9) 0.5680(6) 0.1769(10)
C49 C 0.6851(10) 0.5320(5) 0.1890(9)
C50 C 0.7073(8) 0.6062(6) 0.2159(8)
C51 C 0.5965(9) 0.5324(6) 0.1030(11)
H28 H 0.5862 0.5566 0.0948
C52 C 0.5834(6) 0.4970(7) 0.0861(7)
C53 C 0.6275(9) 0.4607(6) 0.1292(10)
H29 H 0.6381 0.4366 0.1375
C54 C 0.5537(6) 0.4954(7) 0.0539(6)
O20 O 0.5407(5) 0.5316(5) 0.0432(5)
C55 C 0.7151(8) 0.6465(5) 0.2297(9)
O21 O 0.6981(7) 0.6760(3) 0.2149(5)
O22 O 0.5420(5) 0.4638(5) 0.0399(6)
C56 C 0.7131(6) 0.3849(5) 0.2120(7)
C57 C 0.7291(11) 0.4044(7) 0.1814(10)
H30 H 0.7494 0.3926 0.1671
C58 C 0.6880(11) 0.4581(7) 0.1879(11)
C59 C 0.7160(13) 0.4423(7) 0.1704(12)
H31 H 0.7285 0.4556 0.1498
C60 C 0.5994(10) 0.4624(7) 0.1000(10)
H32 H 0.5906 0.4388 0.0890
C61 C 0.6702(10) 0.4428(8) 0.2182(12)
H33 H 0.6493 0.4557 0.2307
O23 O 0.7110(5) 0.3303(3) 0.2545(5)
C62 C 0.7242(6) 0.3453(5) 0.2214(7)
O24 O 0.7471(4) 0.3273(3) 0.2004(4)
Zn5 Zn 0.76952(7) 0.27358(7) 0.19818(6)
C63 C 0.6845(10) 0.4042(6) 0.2315(9)
H34 H 0.6736 0.3928 0.2540
O25 O 0.7504(5) 0.6508(4) 0.2465(6)
C64 C 0.3245(11) 0.3982(5) 0.1893(10)
H35 H 0.3380 0.3758 0.1807
C65 C 0.3610(9) 0.5060(5) 0.1449(9)
C66 C 0.2737(10) 0.4271(5) 0.2293(7)
H36 H 0.2519 0.4253 0.2461
O26 O 0.3662(9) 0.4337(4) 0.1477(8)
C67 C 0.2879(8) 0.4635(6) 0.2170(9)
H37 H 0.2779 0.4861 0.2291
N4 N 0.3300(8) 0.5046(5) 0.1757(8)
C68 C 0.3755(10) 0.4692(6) 0.1314(8)
C69 C 0.3349(9) 0.4320(6) 0.1769(10)
C70 C 0.3149(10) 0.4680(5) 0.1890(9)
C71 C 0.2927(8) 0.3938(6) 0.2159(8)
C72 C 0.4035(9) 0.4676(6) 0.1030(11)
H38 H 0.4138 0.4434 0.0948
C73 C 0.4166(6) 0.5030(7) 0.0861(7)
C74 C 0.3725(9) 0.5393(6) 0.1292(10)
H39 H 0.3619 0.5634 0.1375
C75 C 0.4463(6) 0.5046(7) 0.0539(6)
O27 O 0.4593(5) 0.4684(5) 0.0432(5)
C76 C 0.2849(8) 0.3535(5) 0.2297(9)
O28 O 0.3019(7) 0.3240(3) 0.2149(5)
O29 O 0.4580(5) 0.5362(5) 0.0399(6)
C77 C 0.2869(6) 0.6151(5) 0.2120(7)
C78 C 0.2709(11) 0.5956(7) 0.1814(10)
H40 H 0.2506 0.6074 0.1671
C79 C 0.3120(11) 0.5419(7) 0.1879(11)
C80 C 0.2840(13) 0.5577(7) 0.1704(12)
H41 H 0.2715 0.5444 0.1498
C81 C 0.4006(10) 0.5376(7) 0.1000(10)
H42 H 0.4094 0.5612 0.0890
C82 C 0.3298(10) 0.5572(8) 0.2182(12)
H43 H 0.3507 0.5443 0.2307
O30 O 0.2890(5) 0.6697(3) 0.2545(5)
C83 C 0.2758(6) 0.6547(5) 0.2214(7)
O31 O 0.2529(4) 0.6727(3) 0.2004(4)
Zn6 Zn 0.23048(7) 0.72642(7) 0.19818(6)
C84 C 0.3155(10) 0.5958(6) 0.2315(9)
H44 H 0.3264 0.6072 0.2540
O32 O 0.2496(5) 0.3492(4) 0.2465(6)
O53 O 0.8240(3) 0.2851(5) 0.1981(7)
O54 O 0.1760(3) 0.7149(5) 0.1981(7)
Zn9 Zn 0.72139(7) 0.27861(7) 0.27861(7)
Zn10 Zn 0.27861(7) 0.72139(7) 0.27861(7)
O59 O 0.7543(4) 0.2457(4) 0.2457(4)
O60 O 0.2457(4) 0.7543(4) 0.2457(4)
Zn16 Zn 0.30182(6) 0.26952(7) 0.22642(7)
Zn18 Zn 0.69818(6) 0.73048(7) 0.22642(7)
Zn21 Zn 0.22642(7) 0.30182(6) 0.26952(7)
Zn22 Zn 0.77358(7) 0.69818(6) 0.26952(7)
O62 O 0.2535(6) 0.7496(5) 0.1508(4)
O64 O 0.7465(6) 0.2504(5) 0.1508(4)
Co1_2 Co 0.5000 0.45644(8) 1.0000
C1 C 0.3245(11) 0.6018(5) 0.8107(10)
H1 H 0.3380 0.6242 0.8193
C2 C 0.3610(9) 0.4940(5) 0.8551(9)
C3 C 0.2737(10) 0.5729(5) 0.7707(7)
H2 H 0.2519 0.5747 0.7539
O1 O 0.3662(9) 0.5663(4) 0.8523(8)
C4 C 0.2879(8) 0.5365(6) 0.7830(9)
H3 H 0.2779 0.5139 0.7709
N1 N 0.3300(8) 0.4954(5) 0.8243(8)
C5 C 0.3755(10) 0.5308(6) 0.8686(8)
C6 C 0.3349(9) 0.5680(6) 0.8231(10)
C7 C 0.3149(10) 0.5320(5) 0.8110(9)
C8 C 0.2927(8) 0.6062(6) 0.7841(8)
C9 C 0.4035(9) 0.5324(6) 0.8970(11)
H4 H 0.4138 0.5566 0.9052
C10 C 0.4166(6) 0.4970(7) 0.9139(7)
C11 C 0.3725(9) 0.4607(6) 0.8708(10)
H5 H 0.3619 0.4366 0.8625
C12 C 0.4463(6) 0.4954(7) 0.9461(6)
O2 O 0.4593(5) 0.5316(5) 0.9568(5)
C13 C 0.2849(8) 0.6465(5) 0.7703(9)
O3 O 0.3019(7) 0.6760(3) 0.7851(5)
O4 O 0.4580(5) 0.4638(5) 0.9601(6)
C14 C 0.2869(6) 0.3849(5) 0.7880(7)
C15 C 0.2709(11) 0.4044(7) 0.8186(10)
H6 H 0.2506 0.3926 0.8329
C16 C 0.3120(11) 0.4581(7) 0.8121(11)
C17 C 0.2840(13) 0.4423(7) 0.8296(12)
H7 H 0.2715 0.4556 0.8502
C18 C 0.4006(10) 0.4624(7) 0.9000(10)
H8 H 0.4094 0.4388 0.9110
C19 C 0.3298(10) 0.4428(8) 0.7818(12)
H9 H 0.3507 0.4557 0.7693
O5_2 O 0.5000 0.3982(5) 1.0000
O6 O 0.2890(5) 0.3303(3) 0.7455(5)
Zn1 Zn 0.27861(7) 0.27861(7) 0.72139(7)
C20 C 0.2758(6) 0.3453(5) 0.7786(7)
O7 O 0.2529(4) 0.3273(3) 0.7996(4)
O8 O 0.2457(4) 0.2457(4) 0.7543(4)
Zn2 Zn 0.23048(7) 0.27358(7) 0.80182(6)
C21 C 0.3155(10) 0.4042(6) 0.7685(9)
H10 H 0.3264 0.3928 0.7460
O9 O 0.2496(5) 0.6508(4) 0.7535(6)
H11 H 0.503(5) 0.3924(8) 0.9734(10)
Co2_2 Co 0.5000 0.54356(8) 1.0000
C22 C 0.6755(11) 0.3982(5) 0.8107(10)
H13 H 0.6620 0.3758 0.8193
C23 C 0.6390(9) 0.5060(5) 0.8551(9)
C24 C 0.7263(10) 0.4271(5) 0.7707(7)
H14 H 0.7481 0.4253 0.7539
O10 O 0.6338(9) 0.4337(4) 0.8523(8)
C25 C 0.7121(8) 0.4635(6) 0.7830(9)
H15 H 0.7221 0.4861 0.7709
N2 N 0.6700(8) 0.5046(5) 0.8243(8)
C26 C 0.6245(10) 0.4692(6) 0.8686(8)
C27 C 0.6651(9) 0.4320(6) 0.8231(10)
C28 C 0.6851(10) 0.4680(5) 0.8110(9)
C29 C 0.7073(8) 0.3938(6) 0.7841(8)
C30 C 0.5965(9) 0.4676(6) 0.8970(11)
H16 H 0.5862 0.4434 0.9052
C31 C 0.5834(6) 0.5030(7) 0.9139(7)
C32 C 0.6275(9) 0.5393(6) 0.8708(10)
H17 H 0.6381 0.5634 0.8625
C33 C 0.5537(6) 0.5046(7) 0.9461(6)
O11 O 0.5407(5) 0.4684(5) 0.9568(5)
C34 C 0.7151(8) 0.3535(5) 0.7703(9)
O12 O 0.6981(7) 0.3240(3) 0.7851(5)
O13 O 0.5420(5) 0.5362(5) 0.9601(6)
C35 C 0.7131(6) 0.6151(5) 0.7880(7)
C36 C 0.7291(11) 0.5956(7) 0.8186(10)
H18 H 0.7494 0.6074 0.8329
C37 C 0.6880(11) 0.5419(7) 0.8121(11)
C38 C 0.7160(13) 0.5577(7) 0.8296(12)
H19 H 0.7285 0.5444 0.8502
C39 C 0.5994(10) 0.5376(7) 0.9000(10)
H20 H 0.5906 0.5612 0.9110
C40 C 0.6702(10) 0.5572(8) 0.7818(12)
H21 H 0.6493 0.5443 0.7693
O14_2 O 0.5000 0.6018(5) 1.0000
O15 O 0.7110(5) 0.6697(3) 0.7455(5)
Zn3 Zn 0.72139(7) 0.72139(7) 0.72139(7)
C41 C 0.7242(6) 0.6547(5) 0.7786(7)
O16 O 0.7471(4) 0.6727(3) 0.7996(4)
O17 O 0.7543(4) 0.7543(4) 0.7543(4)
Zn4 Zn 0.76952(7) 0.72642(7) 0.80182(6)
C42 C 0.6845(10) 0.5958(6) 0.7685(9)
H22 H 0.6736 0.6072 0.7460
O18 O 0.7504(5) 0.3492(4) 0.7535(6)
H23 H 0.497(5) 0.6076(8) 0.9734(10)
Co3 Co -0.0000 0.5000 0.54356(8)
C85 C 0.1893(10) 0.3245(11) 0.3982(5)
H45 H 0.1807 0.3380 0.3758
C86 C 0.1449(9) 0.3610(9) 0.5060(5)
C87 C 0.2293(7) 0.2737(10) 0.4271(5)
H46 H 0.2461 0.2519 0.4253
O33 O 0.1477(8) 0.3662(9) 0.4337(4)
C88 C 0.2170(9) 0.2879(8) 0.4635(6)
H47 H 0.2291 0.2779 0.4861
N5 N 0.1757(8) 0.3300(8) 0.5046(5)
C89 C 0.1314(8) 0.3755(10) 0.4692(6)
C90 C 0.1769(10) 0.3349(9) 0.4320(6)
C91 C 0.1890(9) 0.3149(10) 0.4680(5)
C92 C 0.2159(8) 0.2927(8) 0.3938(6)
C93 C 0.1030(11) 0.4035(9) 0.4676(6)
H48 H 0.0948 0.4138 0.4434
C94 C 0.0861(7) 0.4166(6) 0.5030(7)
C95 C 0.1292(10) 0.3725(9) 0.5393(6)
H49 H 0.1375 0.3619 0.5634
C96 C 0.0539(6) 0.4463(6) 0.5046(7)
O34 O 0.0432(5) 0.4593(5) 0.4684(5)
C97 C 0.2297(9) 0.2849(8) 0.3535(5)
O35 O 0.2149(5) 0.3019(7) 0.3240(3)
O36 O 0.0399(6) 0.4580(5) 0.5362(5)
C98 C 0.2120(7) 0.2869(6) 0.6151(5)
C99 C 0.1814(10) 0.2709(11) 0.5956(7)
H50 H 0.1671 0.2506 0.6074
C100 C 0.1879(11) 0.3120(11) 0.5419(7)
C101 C 0.1704(12) 0.2840(13) 0.5577(7)
H51 H 0.1498 0.2715 0.5444
C102 C 0.1000(10) 0.4006(10) 0.5376(7)
H52 H 0.0890 0.4094 0.5612
C103 C 0.2182(12) 0.3298(10) 0.5572(8)
H53 H 0.2307 0.3507 0.5443
O37 O -0.0000 0.5000 0.6018(5)
O38 O 0.2545(5) 0.2890(5) 0.6697(3)
C104 C 0.2214(7) 0.2758(6) 0.6547(5)
O39 O 0.2004(4) 0.2529(4) 0.6727(3)
Zn7 Zn 0.19818(6) 0.23048(7) 0.72642(7)
C105 C 0.2315(9) 0.3155(10) 0.5958(6)
H54 H 0.2540 0.3264 0.6072
O40 O 0.2465(6) 0.2496(5) 0.3492(4)
H55 H 0.0266(10) 0.503(5) 0.6076(8)
C106 C 0.3982(5) 0.8107(10) 0.6755(11)
H57 H 0.3758 0.8193 0.6620
C107 C 0.5060(5) 0.8551(9) 0.6390(9)
C108 C 0.4271(5) 0.7707(7) 0.7263(10)
H58 H 0.4253 0.7539 0.7481
O41 O 0.4337(4) 0.8523(8) 0.6338(9)
C109 C 0.4635(6) 0.7830(9) 0.7121(8)
H59 H 0.4861 0.7709 0.7221
N6 N 0.5046(5) 0.8243(8) 0.6700(8)
C110 C 0.4692(6) 0.8686(8) 0.6245(10)
C111 C 0.4320(6) 0.8231(10) 0.6651(9)
C112 C 0.4680(5) 0.8110(9) 0.6851(10)
C113 C 0.3938(6) 0.7841(8) 0.7073(8)
C114 C 0.4676(6) 0.8970(11) 0.5965(9)
H60 H 0.4434 0.9052 0.5862
C115 C 0.5030(7) 0.9139(7) 0.5834(6)
C116 C 0.5393(6) 0.8708(10) 0.6275(9)
H61 H 0.5634 0.8625 0.6381
C117 C 0.5046(7) 0.9461(6) 0.5537(6)
O42 O 0.4684(5) 0.9568(5) 0.5407(5)
C118 C 0.3535(5) 0.7703(9) 0.7151(8)
O43 O 0.3240(3) 0.7851(5) 0.6981(7)
O44 O 0.5362(5) 0.9601(6) 0.5420(5)
C119 C 0.6151(5) 0.7880(7) 0.7131(6)
C120 C 0.5956(7) 0.8186(10) 0.7291(11)
H62 H 0.6074 0.8329 0.7494
C121 C 0.5419(7) 0.8121(11) 0.6880(11)
C122 C 0.5577(7) 0.8296(12) 0.7160(13)
H63 H 0.5444 0.8502 0.7285
C123 C 0.5376(7) 0.9000(10) 0.5994(10)
H64 H 0.5612 0.9110 0.5906
C124 C 0.5572(8) 0.7818(12) 0.6702(10)
H65 H 0.5443 0.7693 0.6493
O45 O 0.6697(3) 0.7455(5) 0.7110(5)
C125 C 0.6547(5) 0.7786(7) 0.7242(6)
O46 O 0.6727(3) 0.7996(4) 0.7471(4)
Zn8 Zn 0.72642(7) 0.80182(6) 0.76952(7)
C126 C 0.5958(6) 0.7685(9) 0.6845(10)
H66 H 0.6072 0.7460 0.6736
O47 O 0.3492(4) 0.7535(6) 0.7504(5)
Co4 Co -0.0000 0.5000 0.45644(8)
Co5_2 Co 0.45644(8) 1.0000 0.5000
Co6_2 Co 0.54356(8) 1.0000 0.5000
O49 O 0.0432(5) 0.5407(5) 0.5316(5)
O50 O 0.1981(7) 0.1760(3) 0.7149(5)
O51 O 0.7149(5) 0.8019(7) 0.8240(3)
O52 O 0.1760(3) 0.2851(5) 0.8019(7)
O55 O 0.8240(3) 0.7149(5) 0.8019(7)
O57 O 0.7455(5) 0.7110(5) 0.6697(3)
O58 O 0.3303(3) 0.2545(5) 0.7110(5)
Zn11 Zn 0.80182(6) 0.76952(7) 0.72642(7)
Zn12 Zn 0.27358(7) 0.19818(6) 0.76952(7)
Zn13 Zn 0.26952(7) 0.22642(7) 0.30182(6)
Zn14 Zn 0.26952(7) 0.77358(7) 0.69818(6)
Zn15 Zn 0.30182(6) 0.73048(7) 0.77358(7)
Zn17 Zn 0.69818(6) 0.26952(7) 0.77358(7)
Zn19 Zn 0.77358(7) 0.30182(6) 0.73048(7)
Zn23 Zn 0.22642(7) 0.69818(6) 0.73048(7)
O61 O 0.7496(5) 0.8492(4) 0.7465(6)
O63 O 0.2535(6) 0.2504(5) 0.8492(4)
O65 O 0.7465(6) 0.7496(5) 0.8492(4)
O66 O 0.1508(4) 0.2535(6) 0.7496(5)
Co3_2 Co 1.0000 0.5000 0.54356(8)
O37_2 O 1.0000 0.5000 0.6018(5)
H56 H 0.9734(10) 0.497(5) 0.6076(8)
Co4_2 Co 1.0000 0.5000 0.45644(8)
O48 O 0.9568(5) 0.4593(5) 0.5316(5)
O56 O 0.9601(6) 0.5420(5) 0.5362(5)
C85_2 C 0.8107(10) 0.6755(11) 0.3982(5)
H45_2 H 0.8193 0.6620 0.3758
C86_2 C 0.8551(9) 0.6390(9) 0.5060(5)
C87_2 C 0.7707(7) 0.7263(10) 0.4271(5)
H46_2 H 0.7539 0.7481 0.4253
O33_2 O 0.8523(8) 0.6338(9) 0.4337(4)
C88_2 C 0.7830(9) 0.7121(8) 0.4635(6)
H47_2 H 0.7709 0.7221 0.4861
N5_2 N 0.8243(8) 0.6700(8) 0.5046(5)
C89_2 C 0.8686(8) 0.6245(10) 0.4692(6)
C90_2 C 0.8231(10) 0.6651(9) 0.4320(6)
C91_2 C 0.8110(9) 0.6851(10) 0.4680(5)
C92_2 C 0.7841(8) 0.7073(8) 0.3938(6)
C93_2 C 0.8970(11) 0.5965(9) 0.4676(6)
H48_2 H 0.9052 0.5862 0.4434
C94_2 C 0.9139(7) 0.5834(6) 0.5030(7)
C95_2 C 0.8708(10) 0.6275(9) 0.5393(6)
H49_2 H 0.8625 0.6381 0.5634
C96_2 C 0.9461(6) 0.5537(6) 0.5046(7)
O34_2 O 0.9568(5) 0.5407(5) 0.4684(5)
C97_2 C 0.7703(9) 0.7151(8) 0.3535(5)
O35_2 O 0.7851(5) 0.6981(7) 0.3240(3)
C98_2 C 0.7880(7) 0.7131(6) 0.6151(5)
C99_2 C 0.8186(10) 0.7291(11) 0.5956(7)
H50_2 H 0.8329 0.7494 0.6074
C100_2 C 0.8121(11) 0.6880(11) 0.5419(7)
C101_2 C 0.8296(12) 0.7160(13) 0.5577(7)
H51_2 H 0.8502 0.7285 0.5444
C102_2 C 0.9000(10) 0.5994(10) 0.5376(7)
H52_2 H 0.9110 0.5906 0.5612
C103_2 C 0.7818(12) 0.6702(10) 0.5572(8)
H53_2 H 0.7693 0.6493 0.5443
C104_2 C 0.7786(7) 0.7242(6) 0.6547(5)
O39_2 O 0.7996(4) 0.7471(4) 0.6727(3)
C105_2 C 0.7685(9) 0.6845(10) 0.5958(6)
H54_2 H 0.7460 0.6736 0.6072
O40_2 O 0.7535(6) 0.7504(5) 0.3492(4)
C106_2 C 0.6018(5) 0.1893(10) 0.6755(11)
H57_2 H 0.6242 0.1807 0.6620
C107_2 C 0.4940(5) 0.1449(9) 0.6390(9)
C108_2 C 0.5729(5) 0.2293(7) 0.7263(10)
H58_2 H 0.5747 0.2461 0.7481
O41_2 O 0.5663(4) 0.1477(8) 0.6338(9)
C109_2 C 0.5365(6) 0.2170(9) 0.7121(8)
H59_2 H 0.5139 0.2291 0.7221
N6_2 N 0.4954(5) 0.1757(8) 0.6700(8)
C110_2 C 0.5308(6) 0.1314(8) 0.6245(10)
C111_2 C 0.5680(6) 0.1769(10) 0.6651(9)
C112_2 C 0.5320(5) 0.1890(9) 0.6851(10)
C113_2 C 0.6062(6) 0.2159(8) 0.7073(8)
C114_2 C 0.5324(6) 0.1030(11) 0.5965(9)
H60_2 H 0.5566 0.0948 0.5862
C115_2 C 0.4970(7) 0.0861(7) 0.5834(6)
C116_2 C 0.4607(6) 0.1292(10) 0.6275(9)
H61_2 H 0.4366 0.1375 0.6381
C117_2 C 0.4954(7) 0.0539(6) 0.5537(6)
O42_2 O 0.5316(5) 0.0432(5) 0.5407(5)
C118_2 C 0.6465(5) 0.2297(9) 0.7151(8)
O43_2 O 0.6760(3) 0.2149(5) 0.6981(7)
O44_2 O 0.4638(5) 0.0399(6) 0.5420(5)
C119_2 C 0.3849(5) 0.2120(7) 0.7131(6)
C120_2 C 0.4044(7) 0.1814(10) 0.7291(11)
H62_2 H 0.3926 0.1671 0.7494
C121_2 C 0.4581(7) 0.1879(11) 0.6880(11)
C122_2 C 0.4423(7) 0.1704(12) 0.7160(13)
H63_2 H 0.4556 0.1498 0.7285
C123_2 C 0.4624(7) 0.1000(10) 0.5994(10)
H64_2 H 0.4388 0.0890 0.5906
C124_2 C 0.4428(8) 0.2182(12) 0.6702(10)
H65_2 H 0.4557 0.2307 0.6493
C125_2 C 0.3453(5) 0.2214(7) 0.7242(6)
O46_2 O 0.3273(3) 0.2004(4) 0.7471(4)
C126_2 C 0.4042(6) 0.2315(9) 0.6845(10)
H66_2 H 0.3928 0.2540 0.6736
O47_2 O 0.6508(4) 0.2465(6) 0.7504(5)
O50_2 O 0.8019(7) 0.8240(3) 0.7149(5)
O51_2 O 0.2851(5) 0.1981(7) 0.8240(3)
Zn13_2 Zn 0.73048(7) 0.77358(7) 0.30182(6)
Zn14_2 Zn 0.73048(7) 0.22642(7) 0.69818(6)
O61_2 O 0.2504(5) 0.1508(4) 0.7465(6)
O66_2 O 0.8492(4) 0.7465(6) 0.7496(5)
O37_3 O -0.0000 0.5000 0.3982(5)
H56_2 H 0.0266(10) 0.497(5) 0.3924(8)
O56_2 O 0.0399(6) 0.5420(5) 0.4638(5)
C85_3 C 0.8107(10) 0.3245(11) 0.6018(5)
H45_3 H 0.8193 0.3380 0.6242
C86_3 C 0.8551(9) 0.3610(9) 0.4940(5)
C87_3 C 0.7707(7) 0.2737(10) 0.5729(5)
H46_3 H 0.7539 0.2519 0.5747
O33_3 O 0.8523(8) 0.3662(9) 0.5663(4)
C88_3 C 0.7830(9) 0.2879(8) 0.5365(6)
H47_3 H 0.7709 0.2779 0.5139
N5_3 N 0.8243(8) 0.3300(8) 0.4954(5)
C89_3 C 0.8686(8) 0.3755(10) 0.5308(6)
C90_3 C 0.8231(10) 0.3349(9) 0.5680(6)
C91_3 C 0.8110(9) 0.3149(10) 0.5320(5)
C92_3 C 0.7841(8) 0.2927(8) 0.6062(6)
C93_3 C 0.8970(11) 0.4035(9) 0.5324(6)
H48_3 H 0.9052 0.4138 0.5566
C94_3 C 0.9139(7) 0.4166(6) 0.4970(7)
C95_3 C 0.8708(10) 0.3725(9) 0.4607(6)
H49_3 H 0.8625 0.3619 0.4366
C96_3 C 0.9461(6) 0.4463(6) 0.4954(7)
C97_3 C 0.7703(9) 0.2849(8) 0.6465(5)
O35_3 O 0.7851(5) 0.3019(7) 0.6760(3)
O36_2 O 0.9601(6) 0.4580(5) 0.4638(5)
C98_3 C 0.7880(7) 0.2869(6) 0.3849(5)
C99_3 C 0.8186(10) 0.2709(11) 0.4044(7)
H50_3 H 0.8329 0.2506 0.3926
C100_3 C 0.8121(11) 0.3120(11) 0.4581(7)
C101_3 C 0.8296(12) 0.2840(13) 0.4423(7)
H51_3 H 0.8502 0.2715 0.4556
C102_3 C 0.9000(10) 0.4006(10) 0.4624(7)
H52_3 H 0.9110 0.4094 0.4388
C103_3 C 0.7818(12) 0.3298(10) 0.4428(8)
H53_3 H 0.7693 0.3507 0.4557
O37_4 O 1.0000 0.5000 0.3982(5)
O38_2 O 0.7455(5) 0.2890(5) 0.3303(3)
C104_3 C 0.7786(7) 0.2758(6) 0.3453(5)
O39_3 O 0.7996(4) 0.2529(4) 0.3273(3)
Zn7_2 Zn 0.80182(6) 0.23048(7) 0.27358(7)
C105_3 C 0.7685(9) 0.3155(10) 0.4042(6)
H54_3 H 0.7460 0.3264 0.3928
O40_3 O 0.7535(6) 0.2496(5) 0.6508(4)
H55_2 H 0.9734(10) 0.503(5) 0.3924(8)
C106_3 C 0.6018(5) 0.8107(10) 0.3245(11)
H57_3 H 0.6242 0.8193 0.3380
C107_3 C 0.4940(5) 0.8551(9) 0.3610(9)
C108_3 C 0.5729(5) 0.7707(7) 0.2737(10)
H58_3 H 0.5747 0.7539 0.2519
O41_3 O 0.5663(4) 0.8523(8) 0.3662(9)
C109_3 C 0.5365(6) 0.7830(9) 0.2879(8)
H59_3 H 0.5139 0.7709 0.2779
N6_3 N 0.4954(5) 0.8243(8) 0.3300(8)
C110_3 C 0.5308(6) 0.8686(8) 0.3755(10)
C111_3 C 0.5680(6) 0.8231(10) 0.3349(9)
C112_3 C 0.5320(5) 0.8110(9) 0.3149(10)
C113_3 C 0.6062(6) 0.7841(8) 0.2927(8)
C114_3 C 0.5324(6) 0.8970(11) 0.4035(9)
H60_3 H 0.5566 0.9052 0.4138
C115_3 C 0.4970(7) 0.9139(7) 0.4166(6)
C116_3 C 0.4607(6) 0.8708(10) 0.3725(9)
H61_3 H 0.4366 0.8625 0.3619
C117_3 C 0.4954(7) 0.9461(6) 0.4463(6)
O42_3 O 0.5316(5) 0.9568(5) 0.4593(5)
C118_3 C 0.6465(5) 0.7703(9) 0.2849(8)
O43_3 O 0.6760(3) 0.7851(5) 0.3019(7)
O44_3 O 0.4638(5) 0.9601(6) 0.4580(5)
C119_3 C 0.3849(5) 0.7880(7) 0.2869(6)
C120_3 C 0.4044(7) 0.8186(10) 0.2709(11)
H62_3 H 0.3926 0.8329 0.2506
C121_3 C 0.4581(7) 0.8121(11) 0.3120(11)
C122_3 C 0.4423(7) 0.8296(12) 0.2840(13)
H63_3 H 0.4556 0.8502 0.2715
C123_3 C 0.4624(7) 0.9000(10) 0.4006(10)
H64_3 H 0.4388 0.9110 0.4094
C124_3 C 0.4428(8) 0.7818(12) 0.3298(10)
H65_3 H 0.4557 0.7693 0.3507
O45_2 O 0.3303(3) 0.7455(5) 0.2890(5)
C125_3 C 0.3453(5) 0.7786(7) 0.2758(6)
O46_3 O 0.3273(3) 0.7996(4) 0.2529(4)
Zn8_2 Zn 0.27358(7) 0.80182(6) 0.23048(7)
C126_3 C 0.4042(6) 0.7685(9) 0.3155(10)
H66_3 H 0.3928 0.7460 0.3264
O47_3 O 0.6508(4) 0.7535(6) 0.2496(5)
O50_3 O 0.8019(7) 0.1760(3) 0.2851(5)
O51_3 O 0.2851(5) 0.8019(7) 0.1760(3)
O57_2 O 0.2545(5) 0.7110(5) 0.3303(3)
O58_2 O 0.6697(3) 0.2545(5) 0.2890(5)
Zn11_2 Zn 0.19818(6) 0.76952(7) 0.27358(7)
Zn12_2 Zn 0.72642(7) 0.19818(6) 0.23048(7)
O61_3 O 0.2504(5) 0.8492(4) 0.2535(6)
O66_3 O 0.8492(4) 0.2535(6) 0.2504(5)
C85_4 C 0.1893(10) 0.6755(11) 0.6018(5)
H45_4 H 0.1807 0.6620 0.6242
C86_4 C 0.1449(9) 0.6390(9) 0.4940(5)
C87_4 C 0.2293(7) 0.7263(10) 0.5729(5)
H46_4 H 0.2461 0.7481 0.5747
O33_4 O 0.1477(8) 0.6338(9) 0.5663(4)
C88_4 C 0.2170(9) 0.7121(8) 0.5365(6)
H47_4 H 0.2291 0.7221 0.5139
N5_4 N 0.1757(8) 0.6700(8) 0.4954(5)
C89_4 C 0.1314(8) 0.6245(10) 0.5308(6)
C90_4 C 0.1769(10) 0.6651(9) 0.5680(6)
C91_4 C 0.1890(9) 0.6851(10) 0.5320(5)
C92_4 C 0.2159(8) 0.7073(8) 0.6062(6)
C93_4 C 0.1030(11) 0.5965(9) 0.5324(6)
H48_4 H 0.0948 0.5862 0.5566
C94_4 C 0.0861(7) 0.5834(6) 0.4970(7)
C95_4 C 0.1292(10) 0.6275(9) 0.4607(6)
H49_4 H 0.1375 0.6381 0.4366
C96_4 C 0.0539(6) 0.5537(6) 0.4954(7)
C97_4 C 0.2297(9) 0.7151(8) 0.6465(5)
O35_4 O 0.2149(5) 0.6981(7) 0.6760(3)
C98_4 C 0.2120(7) 0.7131(6) 0.3849(5)
C99_4 C 0.1814(10) 0.7291(11) 0.4044(7)
H50_4 H 0.1671 0.7494 0.3926
C100_4 C 0.1879(11) 0.6880(11) 0.4581(7)
C101_4 C 0.1704(12) 0.7160(13) 0.4423(7)
H51_4 H 0.1498 0.7285 0.4556
C102_4 C 0.1000(10) 0.5994(10) 0.4624(7)
H52_4 H 0.0890 0.5906 0.4388
C103_4 C 0.2182(12) 0.6702(10) 0.4428(8)
H53_4 H 0.2307 0.6493 0.4557
C104_4 C 0.2214(7) 0.7242(6) 0.3453(5)
O39_4 O 0.2004(4) 0.7471(4) 0.3273(3)
C105_4 C 0.2315(9) 0.6845(10) 0.4042(6)
H54_4 H 0.2540 0.6736 0.3928
O40_4 O 0.2465(6) 0.7504(5) 0.6508(4)
C106_4 C 0.3982(5) 0.1893(10) 0.3245(11)
H57_4 H 0.3758 0.1807 0.3380
C107_4 C 0.5060(5) 0.1449(9) 0.3610(9)
C108_4 C 0.4271(5) 0.2293(7) 0.2737(10)
H58_4 H 0.4253 0.2461 0.2519
O41_4 O 0.4337(4) 0.1477(8) 0.3662(9)
C109_4 C 0.4635(6) 0.2170(9) 0.2879(8)
H59_4 H 0.4861 0.2291 0.2779
N6_4 N 0.5046(5) 0.1757(8) 0.3300(8)
C110_4 C 0.4692(6) 0.1314(8) 0.3755(10)
C111_4 C 0.4320(6) 0.1769(10) 0.3349(9)
C112_4 C 0.4680(5) 0.1890(9) 0.3149(10)
C113_4 C 0.3938(6) 0.2159(8) 0.2927(8)
C114_4 C 0.4676(6) 0.1030(11) 0.4035(9)
H60_4 H 0.4434 0.0948 0.4138
C115_4 C 0.5030(7) 0.0861(7) 0.4166(6)
C116_4 C 0.5393(6) 0.1292(10) 0.3725(9)
H61_4 H 0.5634 0.1375 0.3619
C117_4 C 0.5046(7) 0.0539(6) 0.4463(6)
O42_4 O 0.4684(5) 0.0432(5) 0.4593(5)
C118_4 C 0.3535(5) 0.2297(9) 0.2849(8)
O43_4 O 0.3240(3) 0.2149(5) 0.3019(7)
O44_4 O 0.5362(5) 0.0399(6) 0.4580(5)
C119_4 C 0.6151(5) 0.2120(7) 0.2869(6)
C120_4 C 0.5956(7) 0.1814(10) 0.2709(11)
H62_4 H 0.6074 0.1671 0.2506
C121_4 C 0.5419(7) 0.1879(11) 0.3120(11)
C122_4 C 0.5577(7) 0.1704(12) 0.2840(13)
H63_4 H 0.5444 0.1498 0.2715
C123_4 C 0.5376(7) 0.1000(10) 0.4006(10)
H64_4 H 0.5612 0.0890 0.4094
C124_4 C 0.5572(8) 0.2182(12) 0.3298(10)
H65_4 H 0.5443 0.2307 0.3507
C125_4 C 0.6547(5) 0.2214(7) 0.2758(6)
O46_4 O 0.6727(3) 0.2004(4) 0.2529(4)
C126_4 C 0.5958(6) 0.2315(9) 0.3155(10)
H66_4 H 0.6072 0.2540 0.3264
O47_4 O 0.3492(4) 0.2465(6) 0.2496(5)
O50_4 O 0.1981(7) 0.8240(3) 0.2851(5)
O51_4 O 0.7149(5) 0.1981(7) 0.1760(3)
O61_4 O 0.7496(5) 0.1508(4) 0.2535(6)
O66_4 O 0.1508(4) 0.7465(6) 0.2504(5)
O37_5 O 0.6018(5) -0.0000 0.5000
H55_3 H 0.6076(8) 0.0266(10) 0.503(5)
O37_6 O 0.6018(5) 1.0000 0.5000
H56_3 H 0.6076(8) 0.9734(10) 0.497(5)
O37_7 O 0.3982(5) -0.0000 0.5000
H56_4 H 0.3924(8) 0.0266(10) 0.497(5)
O37_8 O 0.3982(5) 1.0000 0.5000
H55_4 H 0.3924(8) 0.9734(10) 0.503(5)
Co2_3 Co -0.0000 0.04356(8) 0.5000
C23_2 C 0.1390(9) 0.0060(5) 0.3551(9)
N2_2 N 0.1700(8) 0.0046(5) 0.3243(8)
C31_2 C 0.0834(6) 0.0030(7) 0.4139(7)
C32_2 C 0.1275(9) 0.0393(6) 0.3708(10)
H17_2 H 0.1381 0.0634 0.3625
C33_2 C 0.0537(6) 0.0046(7) 0.4461(6)
O13_2 O 0.0420(5) 0.0362(5) 0.4601(6)
C35_2 C 0.2131(6) 0.1151(5) 0.2880(7)
C36_2 C 0.2291(11) 0.0956(7) 0.3186(10)
H18_2 H 0.2494 0.1074 0.3329
C37_2 C 0.1880(11) 0.0419(7) 0.3121(11)
C38_2 C 0.2160(13) 0.0577(7) 0.3296(12)
H19_2 H 0.2285 0.0444 0.3502
C39_2 C 0.0994(10) 0.0376(7) 0.4000(10)
H20_2 H 0.0906 0.0612 0.4110
C40_2 C 0.1702(10) 0.0572(8) 0.2818(12)
H21_2 H 0.1493 0.0443 0.2693
O14_3 O -0.0000 0.1018(5) 0.5000
O15_2 O 0.2110(5) 0.1697(3) 0.2455(5)
Zn3_2 Zn 0.22139(7) 0.22139(7) 0.22139(7)
C41_2 C 0.2242(6) 0.1547(5) 0.2786(7)
O16_2 O 0.2471(4) 0.1727(3) 0.2996(4)
O17_2 O 0.2543(4) 0.2543(4) 0.2543(4)
C42_2 C 0.1845(10) 0.0958(6) 0.2685(9)
H22_2 H 0.1736 0.1072 0.2460
H24_2 H 0.003(5) 0.1076(8) 0.5266(10)
C43_2 C 0.1755(11) 0.1018(5) 0.6893(10)
H25_2 H 0.1620 0.1242 0.6807
C45_2 C 0.2263(10) 0.0729(5) 0.7293(7)
H26_2 H 0.2481 0.0747 0.7461
O19_2 O 0.1338(9) 0.0663(4) 0.6477(8)
C46_2 C 0.2121(8) 0.0365(6) 0.7170(9)
H27_2 H 0.2221 0.0139 0.7291
C47_2 C 0.1245(10) 0.0308(6) 0.6314(8)
C48_2 C 0.1651(9) 0.0680(6) 0.6769(10)
C49_2 C 0.1851(10) 0.0320(5) 0.6890(9)
C50_2 C 0.2073(8) 0.1062(6) 0.7159(8)
C51_2 C 0.0965(9) 0.0324(6) 0.6030(11)
H28_2 H 0.0862 0.0566 0.5948
O20_2 O 0.0407(5) 0.0316(5) 0.5432(5)
C55_2 C 0.2151(8) 0.1465(5) 0.7297(9)
C107_5 C 0.0060(5) 0.3551(9) 0.1390(9)
N6_5 N 0.0046(5) 0.3243(8) 0.1700(8)
C115_5 C 0.0030(7) 0.4139(7) 0.0834(6)
C116_5 C 0.0393(6) 0.3708(10) 0.1275(9)
H61_5 H 0.0634 0.3625 0.1381
C117_5 C 0.0046(7) 0.4461(6) 0.0537(6)
O44_5 O 0.0362(5) 0.4601(6) 0.0420(5)
C119_5 C 0.1151(5) 0.2880(7) 0.2131(6)
C120_5 C 0.0956(7) 0.3186(10) 0.2291(11)
H62_5 H 0.1074 0.3329 0.2494
C121_5 C 0.0419(7) 0.3121(11) 0.1880(11)
C122_5 C 0.0577(7) 0.3296(12) 0.2160(13)
H63_5 H 0.0444 0.3502 0.2285
C123_5 C 0.0376(7) 0.4000(10) 0.0994(10)
H64_5 H 0.0612 0.4110 0.0906
C124_5 C 0.0572(8) 0.2818(12) 0.1702(10)
H65_5 H 0.0443 0.2693 0.1493
O45_3 O 0.1697(3) 0.2455(5) 0.2110(5)
C125_5 C 0.1547(5) 0.2786(7) 0.2242(6)
O46_5 O 0.1727(3) 0.2996(4) 0.2471(4)
C126_5 C 0.0958(6) 0.2685(9) 0.1845(10)
H66_5 H 0.1072 0.2460 0.1736
Co6_3 Co 0.04356(8) 0.5000 0.0000
O57_3 O 0.2455(5) 0.2110(5) 0.1697(3)
Co6_4 Co 0.04356(8) 0.5000 1.0000
Co1_3 Co -0.0000 0.95644(8) 0.5000
O5_3 O -0.0000 0.8982(5) 0.5000
H11_2 H 0.003(5) 0.8924(8) 0.4734(10)
C22_2 C 0.1755(11) 0.8982(5) 0.3107(10)
H13_2 H 0.1620 0.8758 0.3193
C24_2 C 0.2263(10) 0.9271(5) 0.2707(7)
H14_2 H 0.2481 0.9253 0.2539
O10_2 O 0.1338(9) 0.9337(4) 0.3523(8)
C25_2 C 0.2121(8) 0.9635(6) 0.2830(9)
H15_2 H 0.2221 0.9861 0.2709
C26_2 C 0.1245(10) 0.9692(6) 0.3686(8)
C27_2 C 0.1651(9) 0.9320(6) 0.3231(10)
C28_2 C 0.1851(10) 0.9680(5) 0.3110(9)
C29_2 C 0.2073(8) 0.8938(6) 0.2841(8)
C30_2 C 0.0965(9) 0.9676(6) 0.3970(11)
H16_2 H 0.0862 0.9434 0.4052
O11_2 O 0.0407(5) 0.9684(5) 0.4568(5)
C34_2 C 0.2151(8) 0.8535(5) 0.2703(9)
C44_2 C 0.1390(9) 0.9940(5) 0.6449(9)
N3_2 N 0.1700(8) 0.9954(5) 0.6757(8)
C52_2 C 0.0834(6) 0.9970(7) 0.5861(7)
C53_2 C 0.1275(9) 0.9607(6) 0.6292(10)
H29_2 H 0.1381 0.9366 0.6375
C54_2 C 0.0537(6) 0.9954(7) 0.5539(6)
O22_2 O 0.0420(5) 0.9638(5) 0.5399(6)
C56_2 C 0.2131(6) 0.8849(5) 0.7120(7)
C57_2 C 0.2291(11) 0.9044(7) 0.6814(10)
H30_2 H 0.2494 0.8926 0.6671
C58_2 C 0.1880(11) 0.9581(7) 0.6879(11)
C59_2 C 0.2160(13) 0.9423(7) 0.6704(12)
H31_2 H 0.2285 0.9556 0.6498
C60_2 C 0.0994(10) 0.9624(7) 0.6000(10)
H32_2 H 0.0906 0.9388 0.5890
C61_2 C 0.1702(10) 0.9428(8) 0.7182(12)
H33_2 H 0.1493 0.9557 0.7307
O23_2 O 0.2110(5) 0.8303(3) 0.7545(5)
C62_2 C 0.2242(6) 0.8453(5) 0.7214(7)
O24_2 O 0.2471(4) 0.8273(3) 0.7004(4)
C63_2 C 0.1845(10) 0.9042(6) 0.7315(9)
H34_2 H 0.1736 0.8928 0.7540
Zn9_2 Zn 0.22139(7) 0.77861(7) 0.77861(7)
O59_2 O 0.2543(4) 0.7457(4) 0.7457(4)
C1_2 C 0.8245(11) 0.1018(5) 0.3107(10)
H1_2 H 0.8380 0.1242 0.3193
C3_2 C 0.7737(10) 0.0729(5) 0.2707(7)
H2_2 H 0.7519 0.0747 0.2539
O1_2 O 0.8662(9) 0.0663(4) 0.3523(8)
C4_2 C 0.7879(8) 0.0365(6) 0.2830(9)
H3_2 H 0.7779 0.0139 0.2709
C5_2 C 0.8755(10) 0.0308(6) 0.3686(8)
C6_2 C 0.8349(9) 0.0680(6) 0.3231(10)
C7_2 C 0.8149(10) 0.0320(5) 0.3110(9)
C8_2 C 0.7927(8) 0.1062(6) 0.2841(8)
C9_2 C 0.9035(9) 0.0324(6) 0.3970(11)
H4_2 H 0.9138 0.0566 0.4052
O2_2 O 0.9593(5) 0.0316(5) 0.4568(5)
C13_2 C 0.7849(8) 0.1465(5) 0.2703(9)
Co2_4 Co 1.0000 0.04356(8) 0.5000
O14_4 O 1.0000 0.1018(5) 0.5000
H23_2 H 0.997(5) 0.1076(8) 0.4734(10)
C65_2 C 0.8610(9) 0.0060(5) 0.6449(9)
N4_2 N 0.8300(8) 0.0046(5) 0.6757(8)
C73_2 C 0.9166(6) 0.0030(7) 0.5861(7)
C74_2 C 0.8725(9) 0.0393(6) 0.6292(10)
H39_2 H 0.8619 0.0634 0.6375
C75_2 C 0.9463(6) 0.0046(7) 0.5539(6)
O29_2 O 0.9580(5) 0.0362(5) 0.5399(6)
C77_2 C 0.7869(6) 0.1151(5) 0.7120(7)
C78_2 C 0.7709(11) 0.0956(7) 0.6814(10)
H40_2 H 0.7506 0.1074 0.6671
C79_2 C 0.8120(11) 0.0419(7) 0.6879(11)
C80_2 C 0.7840(13) 0.0577(7) 0.6704(12)
H41_2 H 0.7715 0.0444 0.6498
C81_2 C 0.9006(10) 0.0376(7) 0.6000(10)
H42_2 H 0.9094 0.0612 0.5890
C82_2 C 0.8298(10) 0.0572(8) 0.7182(12)
H43_2 H 0.8507 0.0443 0.7307
O30_2 O 0.7890(5) 0.1697(3) 0.7545(5)
C83_2 C 0.7758(6) 0.1547(5) 0.7214(7)
O31_2 O 0.7529(4) 0.1727(3) 0.7004(4)
C84_2 C 0.8155(10) 0.0958(6) 0.7315(9)
H44_2 H 0.8264 0.1072 0.7540
Co3_3 Co 0.5000 -0.0000 0.04356(8)
O37_9 O 0.5000 -0.0000 0.1018(5)
H55_5 H 0.5266(10) 0.003(5) 0.1076(8)
C106_5 C 0.8982(5) 0.3107(10) 0.1755(11)
H57_5 H 0.8758 0.3193 0.1620
C108_5 C 0.9271(5) 0.2707(7) 0.2263(10)
H58_5 H 0.9253 0.2539 0.2481
O41_5 O 0.9337(4) 0.3523(8) 0.1338(9)
C109_5 C 0.9635(6) 0.2830(9) 0.2121(8)
H59_5 H 0.9861 0.2709 0.2221
C110_5 C 0.9692(6) 0.3686(8) 0.1245(10)
C111_5 C 0.9320(6) 0.3231(10) 0.1651(9)
C112_5 C 0.9680(5) 0.3110(9) 0.1851(10)
C113_5 C 0.8938(6) 0.2841(8) 0.2073(8)
C114_5 C 0.9676(6) 0.3970(11) 0.0965(9)
H60_5 H 0.9434 0.4052 0.0862
O42_5 O 0.9684(5) 0.4568(5) 0.0407(5)
C118_5 C 0.8535(5) 0.2703(9) 0.2151(8)
Co5_3 Co 0.95644(8) 0.5000 0.0000
O49_2 O 0.5432(5) 0.0407(5) 0.0316(5)
O56_3 O 0.4601(6) 0.0420(5) 0.0362(5)
Zn10_2 Zn 0.77861(7) 0.22139(7) 0.77861(7)
O60_2 O 0.7457(4) 0.2543(4) 0.7457(4)
Co4_3 Co 0.5000 -0.0000 0.95644(8)
Co5_4 Co 0.95644(8) 0.5000 1.0000
Co1_4 Co 1.0000 0.95644(8) 0.5000
C2_2 C 0.8610(9) 0.9940(5) 0.3551(9)
N1_2 N 0.8300(8) 0.9954(5) 0.3243(8)
C10_2 C 0.9166(6) 0.9970(7) 0.4139(7)
C11_2 C 0.8725(9) 0.9607(6) 0.3708(10)
H5_2 H 0.8619 0.9366 0.3625
C12_2 C 0.9463(6) 0.9954(7) 0.4461(6)
O4_2 O 0.9580(5) 0.9638(5) 0.4601(6)
C14_2 C 0.7869(6) 0.8849(5) 0.2880(7)
C15_2 C 0.7709(11) 0.9044(7) 0.3186(10)
H6_2 H 0.7506 0.8926 0.3329
C16_2 C 0.8120(11) 0.9581(7) 0.3121(11)
C17_2 C 0.7840(13) 0.9423(7) 0.3296(12)
H7_2 H 0.7715 0.9556 0.3502
C18_2 C 0.9006(10) 0.9624(7) 0.4000(10)
H8_2 H 0.9094 0.9388 0.4110
C19_2 C 0.8298(10) 0.9428(8) 0.2818(12)
H9_2 H 0.8507 0.9557 0.2693
O5_4 O 1.0000 0.8982(5) 0.5000
O6_2 O 0.7890(5) 0.8303(3) 0.2455(5)
Zn1_2 Zn 0.77861(7) 0.77861(7) 0.22139(7)
C20_2 C 0.7758(6) 0.8453(5) 0.2786(7)
O7_2 O 0.7529(4) 0.8273(3) 0.2996(4)
O8_2 O 0.7457(4) 0.7457(4) 0.2543(4)
C21_2 C 0.8155(10) 0.9042(6) 0.2685(9)
H10_2 H 0.8264 0.8928 0.2460
H12_2 H 0.997(5) 0.8924(8) 0.5266(10)
C64_2 C 0.8245(11) 0.8982(5) 0.6893(10)
H35_2 H 0.8380 0.8758 0.6807
C66_2 C 0.7737(10) 0.9271(5) 0.7293(7)
H36_2 H 0.7519 0.9253 0.7461
O26_2 O 0.8662(9) 0.9337(4) 0.6477(8)
C67_2 C 0.7879(8) 0.9635(6) 0.7170(9)
H37_2 H 0.7779 0.9861 0.7291
C68_2 C 0.8755(10) 0.9692(6) 0.6314(8)
C69_2 C 0.8349(9) 0.9320(6) 0.6769(10)
C70_2 C 0.8149(10) 0.9680(5) 0.6890(9)
C71_2 C 0.7927(8) 0.8938(6) 0.7159(8)
C72_2 C 0.9035(9) 0.9676(6) 0.6030(11)
H38_2 H 0.9138 0.9434 0.5948
O27_2 O 0.9593(5) 0.9684(5) 0.5432(5)
C76_2 C 0.7849(8) 0.8535(5) 0.7297(9)
Co3_4 Co 0.5000 1.0000 0.04356(8)
C86_5 C 0.6449(9) 0.8610(9) 0.0060(5)
N5_5 N 0.6757(8) 0.8300(8) 0.0046(5)
C94_5 C 0.5861(7) 0.9166(6) 0.0030(7)
C95_5 C 0.6292(10) 0.8725(9) 0.0393(6)
H49_5 H 0.6375 0.8619 0.0634
C96_5 C 0.5539(6) 0.9463(6) 0.0046(7)
O36_3 O 0.5399(6) 0.9580(5) 0.0362(5)
C98_5 C 0.7120(7) 0.7869(6) 0.1151(5)
C99_5 C 0.6814(10) 0.7709(11) 0.0956(7)
H50_5 H 0.6671 0.7506 0.1074
C100_5 C 0.6879(11) 0.8120(11) 0.0419(7)
C101_5 C 0.6704(12) 0.7840(13) 0.0577(7)
H51_5 H 0.6498 0.7715 0.0444
C102_5 C 0.6000(10) 0.9006(10) 0.0376(7)
H52_5 H 0.5890 0.9094 0.0612
C103_5 C 0.7182(12) 0.8298(10) 0.0572(8)
H53_5 H 0.7307 0.8507 0.0443
O37_10 O 0.5000 1.0000 0.1018(5)
O38_3 O 0.7545(5) 0.7890(5) 0.1697(3)
C104_5 C 0.7214(7) 0.7758(6) 0.1547(5)
O39_5 O 0.7004(4) 0.7529(4) 0.1727(3)
C105_5 C 0.7315(9) 0.8155(10) 0.0958(6)
H54_5 H 0.7540 0.8264 0.1072
H56_5 H 0.4734(10) 0.997(5) 0.1076(8)
O48_2 O 0.4568(5) 0.9593(5) 0.0316(5)
O58_3 O 0.8303(3) 0.7545(5) 0.2110(5)
C85_5 C 0.6893(10) 0.8245(11) 0.8982(5)
H45_5 H 0.6807 0.8380 0.8758
C87_5 C 0.7293(7) 0.7737(10) 0.9271(5)
H46_5 H 0.7461 0.7519 0.9253
O33_5 O 0.6477(8) 0.8662(9) 0.9337(4)
C88_5 C 0.7170(9) 0.7879(8) 0.9635(6)
H47_5 H 0.7291 0.7779 0.9861
C89_5 C 0.6314(8) 0.8755(10) 0.9692(6)
C90_5 C 0.6769(10) 0.8349(9) 0.9320(6)
C91_5 C 0.6890(9) 0.8149(10) 0.9680(5)
C92_5 C 0.7159(8) 0.7927(8) 0.8938(6)
C93_5 C 0.6030(11) 0.9035(9) 0.9676(6)
H48_5 H 0.5948 0.9138 0.9434
O34_3 O 0.5432(5) 0.9593(5) 0.9684(5)
C97_5 C 0.7297(9) 0.7849(8) 0.8535(5)
Co4_4 Co 0.5000 1.0000 0.95644(8)
C86_6 C 0.3551(9) 0.1390(9) 0.0060(5)
N5_6 N 0.3243(8) 0.1700(8) 0.0046(5)
C94_6 C 0.4139(7) 0.0834(6) 0.0030(7)
C95_6 C 0.3708(10) 0.1275(9) 0.0393(6)
H49_6 H 0.3625 0.1381 0.0634
C96_6 C 0.4461(6) 0.0537(6) 0.0046(7)
C98_6 C 0.2880(7) 0.2131(6) 0.1151(5)
C99_6 C 0.3186(10) 0.2291(11) 0.0956(7)
H50_6 H 0.3329 0.2494 0.1074
C100_6 C 0.3121(11) 0.1880(11) 0.0419(7)
C101_6 C 0.3296(12) 0.2160(13) 0.0577(7)
H51_6 H 0.3502 0.2285 0.0444
C102_6 C 0.4000(10) 0.0994(10) 0.0376(7)
H52_6 H 0.4110 0.0906 0.0612
C103_6 C 0.2818(12) 0.1702(10) 0.0572(8)
H53_6 H 0.2693 0.1493 0.0443
C104_6 C 0.2786(7) 0.2242(6) 0.1547(5)
O39_6 O 0.2996(4) 0.2471(4) 0.1727(3)
C105_6 C 0.2685(9) 0.1845(10) 0.0958(6)
H54_6 H 0.2460 0.1736 0.1072
C85_6 C 0.3107(10) 0.1755(11) 0.8982(5)
H45_6 H 0.3193 0.1620 0.8758
C87_6 C 0.2707(7) 0.2263(10) 0.9271(5)
H46_6 H 0.2539 0.2481 0.9253
O33_6 O 0.3523(8) 0.1338(9) 0.9337(4)
C88_6 C 0.2830(9) 0.2121(8) 0.9635(6)
H47_6 H 0.2709 0.2221 0.9861
C89_6 C 0.3686(8) 0.1245(10) 0.9692(6)
C90_6 C 0.3231(10) 0.1651(9) 0.9320(6)
C91_6 C 0.3110(9) 0.1851(10) 0.9680(5)
C92_6 C 0.2841(8) 0.2073(8) 0.8938(6)
C93_6 C 0.3970(11) 0.0965(9) 0.9676(6)
H48_6 H 0.4052 0.0862 0.9434
O34_4 O 0.4568(5) 0.0407(5) 0.9684(5)
C97_6 C 0.2703(9) 0.2151(8) 0.8535(5)
C106_6 C 0.1018(5) 0.6893(10) 0.1755(11)
H57_6 H 0.1242 0.6807 0.1620
C108_6 C 0.0729(5) 0.7293(7) 0.2263(10)
H58_6 H 0.0747 0.7461 0.2481
O41_6 O 0.0663(4) 0.6477(8) 0.1338(9)
C109_6 C 0.0365(6) 0.7170(9) 0.2121(8)
H59_6 H 0.0139 0.7291 0.2221
C110_6 C 0.0308(6) 0.6314(8) 0.1245(10)
C111_6 C 0.0680(6) 0.6769(10) 0.1651(9)
C112_6 C 0.0320(5) 0.6890(9) 0.1851(10)
C113_6 C 0.1062(6) 0.7159(8) 0.2073(8)
C114_6 C 0.0324(6) 0.6030(11) 0.0965(9)
H60_6 H 0.0566 0.5948 0.0862
O42_6 O 0.0316(5) 0.5432(5) 0.0407(5)
C118_6 C 0.1465(5) 0.7297(9) 0.2151(8)
C107_6 C 0.9940(5) 0.6449(9) 0.1390(9)
N6_6 N 0.9954(5) 0.6757(8) 0.1700(8)
C115_6 C 0.9970(7) 0.5861(7) 0.0834(6)
C116_6 C 0.9607(6) 0.6292(10) 0.1275(9)
H61_6 H 0.9366 0.6375 0.1381
C117_6 C 0.9954(7) 0.5539(6) 0.0537(6)
O44_6 O 0.9638(5) 0.5399(6) 0.0420(5)
C119_6 C 0.8849(5) 0.7120(7) 0.2131(6)
C120_6 C 0.9044(7) 0.6814(10) 0.2291(11)
H62_6 H 0.8926 0.6671 0.2494
C121_6 C 0.9581(7) 0.6879(11) 0.1880(11)
C122_6 C 0.9423(7) 0.6704(12) 0.2160(13)
H63_6 H 0.9556 0.6498 0.2285
C123_6 C 0.9624(7) 0.6000(10) 0.0994(10)
H64_6 H 0.9388 0.5890 0.0906
C124_6 C 0.9428(8) 0.7182(12) 0.1702(10)
H65_6 H 0.9557 0.7307 0.1493
C125_6 C 0.8453(5) 0.7214(7) 0.2242(6)
O46_6 O 0.8273(3) 0.7004(4) 0.2471(4)
C126_6 C 0.9042(6) 0.7315(9) 0.1845(10)
H66_6 H 0.8928 0.7540 0.1736
O37_11 O 0.5000 -0.0000 0.8982(5)
H55_6 H 0.4734(10) 0.003(5) 0.8924(8)
C106_7 C 0.1018(5) 0.3107(10) 0.8245(11)
H57_7 H 0.1242 0.3193 0.8380
C108_7 C 0.0729(5) 0.2707(7) 0.7737(10)
H58_7 H 0.0747 0.2539 0.7519
O41_7 O 0.0663(4) 0.3523(8) 0.8662(9)
C109_7 C 0.0365(6) 0.2830(9) 0.7879(8)
H59_7 H 0.0139 0.2709 0.7779
C110_7 C 0.0308(6) 0.3686(8) 0.8755(10)
C111_7 C 0.0680(6) 0.3231(10) 0.8349(9)
C112_7 C 0.0320(5) 0.3110(9) 0.8149(10)
C113_7 C 0.1062(6) 0.2841(8) 0.7927(8)
C114_7 C 0.0324(6) 0.3970(11) 0.9035(9)
H60_7 H 0.0566 0.4052 0.9138
O42_7 O 0.0316(5) 0.4568(5) 0.9593(5)
C118_7 C 0.1465(5) 0.2703(9) 0.7849(8)
O56_4 O 0.5399(6) 0.0420(5) 0.9638(5)
C85_7 C 0.3107(10) 0.8245(11) 0.1018(5)
H45_7 H 0.3193 0.8380 0.1242
C87_7 C 0.2707(7) 0.7737(10) 0.0729(5)
H46_7 H 0.2539 0.7519 0.0747
O33_7 O 0.3523(8) 0.8662(9) 0.0663(4)
C88_7 C 0.2830(9) 0.7879(8) 0.0365(6)
H47_7 H 0.2709 0.7779 0.0139
C89_7 C 0.3686(8) 0.8755(10) 0.0308(6)
C90_7 C 0.3231(10) 0.8349(9) 0.0680(6)
C91_7 C 0.3110(9) 0.8149(10) 0.0320(5)
C92_7 C 0.2841(8) 0.7927(8) 0.1062(6)
C93_7 C 0.3970(11) 0.9035(9) 0.0324(6)
H48_7 H 0.4052 0.9138 0.0566
C97_7 C 0.2703(9) 0.7849(8) 0.1465(5)
C86_7 C 0.3551(9) 0.8610(9) 0.9940(5)
N5_7 N 0.3243(8) 0.8300(8) 0.9954(5)
C94_7 C 0.4139(7) 0.9166(6) 0.9970(7)
C95_7 C 0.3708(10) 0.8725(9) 0.9607(6)
H49_7 H 0.3625 0.8619 0.9366
C96_7 C 0.4461(6) 0.9463(6) 0.9954(7)
O36_4 O 0.4601(6) 0.9580(5) 0.9638(5)
C98_7 C 0.2880(7) 0.7869(6) 0.8849(5)
C99_7 C 0.3186(10) 0.7709(11) 0.9044(7)
H50_7 H 0.3329 0.7506 0.8926
C100_7 C 0.3121(11) 0.8120(11) 0.9581(7)
C101_7 C 0.3296(12) 0.7840(13) 0.9423(7)
H51_7 H 0.3502 0.7715 0.9556
C102_7 C 0.4000(10) 0.9006(10) 0.9624(7)
H52_7 H 0.4110 0.9094 0.9388
C103_7 C 0.2818(12) 0.8298(10) 0.9428(8)
H53_7 H 0.2693 0.8507 0.9557
O37_12 O 0.5000 1.0000 0.8982(5)
O38_4 O 0.2455(5) 0.7890(5) 0.8303(3)
C104_7 C 0.2786(7) 0.7758(6) 0.8453(5)
O39_7 O 0.2996(4) 0.7529(4) 0.8273(3)
C105_7 C 0.2685(9) 0.8155(10) 0.9042(6)
H54_7 H 0.2460 0.8264 0.8928
H56_6 H 0.5266(10) 0.997(5) 0.8924(8)
O58_4 O 0.1697(3) 0.7545(5) 0.7890(5)
C107_7 C 0.9940(5) 0.3551(9) 0.8610(9)
N6_7 N 0.9954(5) 0.3243(8) 0.8300(8)
C115_7 C 0.9970(7) 0.4139(7) 0.9166(6)
C116_7 C 0.9607(6) 0.3708(10) 0.8725(9)
H61_7 H 0.9366 0.3625 0.8619
C117_7 C 0.9954(7) 0.4461(6) 0.9463(6)
O44_7 O 0.9638(5) 0.4601(6) 0.9580(5)
C119_7 C 0.8849(5) 0.2880(7) 0.7869(6)
C120_7 C 0.9044(7) 0.3186(10) 0.7709(11)
H62_7 H 0.8926 0.3329 0.7506
C121_7 C 0.9581(7) 0.3121(11) 0.8120(11)
C122_7 C 0.9423(7) 0.3296(12) 0.7840(13)
H63_7 H 0.9556 0.3502 0.7715
C123_7 C 0.9624(7) 0.4000(10) 0.9006(10)
H64_7 H 0.9388 0.4110 0.9094
C124_7 C 0.9428(8) 0.2818(12) 0.8298(10)
H65_7 H 0.9557 0.2693 0.8507
O45_4 O 0.8303(3) 0.2455(5) 0.7890(5)
C125_7 C 0.8453(5) 0.2786(7) 0.7758(6)
O46_7 O 0.8273(3) 0.2996(4) 0.7529(4)
C126_7 C 0.9042(6) 0.2685(9) 0.8155(10)
H66_7 H 0.8928 0.2460 0.8264
O57_4 O 0.7545(5) 0.2110(5) 0.8303(3)
C107_8 C 0.0060(5) 0.6449(9) 0.8610(9)
N6_8 N 0.0046(5) 0.6757(8) 0.8300(8)
C115_8 C 0.0030(7) 0.5861(7) 0.9166(6)
C116_8 C 0.0393(6) 0.6292(10) 0.8725(9)
H61_8 H 0.0634 0.6375 0.8619
C117_8 C 0.0046(7) 0.5539(6) 0.9463(6)
O44_8 O 0.0362(5) 0.5399(6) 0.9580(5)
C119_8 C 0.1151(5) 0.7120(7) 0.7869(6)
C120_8 C 0.0956(7) 0.6814(10) 0.7709(11)
H62_8 H 0.1074 0.6671 0.7506
C121_8 C 0.0419(7) 0.6879(11) 0.8120(11)
C122_8 C 0.0577(7) 0.6704(12) 0.7840(13)
H63_8 H 0.0444 0.6498 0.7715
C123_8 C 0.0376(7) 0.6000(10) 0.9006(10)
H64_8 H 0.0612 0.5890 0.9094
C124_8 C 0.0572(8) 0.7182(12) 0.8298(10)
H65_8 H 0.0443 0.7307 0.8507
C125_8 C 0.1547(5) 0.7214(7) 0.7758(6)
O46_8 O 0.1727(3) 0.7004(4) 0.7529(4)
C126_8 C 0.0958(6) 0.7315(9) 0.8155(10)
H66_8 H 0.1072 0.7540 0.8264
C85_8 C 0.6893(10) 0.1755(11) 0.1018(5)
H45_8 H 0.6807 0.1620 0.1242
C87_8 C 0.7293(7) 0.2263(10) 0.0729(5)
H46_8 H 0.7461 0.2481 0.0747
O33_8 O 0.6477(8) 0.1338(9) 0.0663(4)
C88_8 C 0.7170(9) 0.2121(8) 0.0365(6)
H47_8 H 0.7291 0.2221 0.0139
C89_8 C 0.6314(8) 0.1245(10) 0.0308(6)
C90_8 C 0.6769(10) 0.1651(9) 0.0680(6)
C91_8 C 0.6890(9) 0.1851(10) 0.0320(5)
C92_8 C 0.7159(8) 0.2073(8) 0.1062(6)
C93_8 C 0.6030(11) 0.0965(9) 0.0324(6)
H48_8 H 0.5948 0.0862 0.0566
C97_8 C 0.7297(9) 0.2151(8) 0.1465(5)
C86_8 C 0.6449(9) 0.1390(9) 0.9940(5)
N5_8 N 0.6757(8) 0.1700(8) 0.9954(5)
C94_8 C 0.5861(7) 0.0834(6) 0.9970(7)
C95_8 C 0.6292(10) 0.1275(9) 0.9607(6)
H49_8 H 0.6375 0.1381 0.9366
C96_8 C 0.5539(6) 0.0537(6) 0.9954(7)
C98_8 C 0.7120(7) 0.2131(6) 0.8849(5)
C99_8 C 0.6814(10) 0.2291(11) 0.9044(7)
H50_8 H 0.6671 0.2494 0.8926
C100_8 C 0.6879(11) 0.1880(11) 0.9581(7)
C101_8 C 0.6704(12) 0.2160(13) 0.9423(7)
H51_8 H 0.6498 0.2285 0.9556
C102_8 C 0.6000(10) 0.0994(10) 0.9624(7)
H52_8 H 0.5890 0.0906 0.9388
C103_8 C 0.7182(12) 0.1702(10) 0.9428(8)
H53_8 H 0.7307 0.1493 0.9557
C104_8 C 0.7214(7) 0.2242(6) 0.8453(5)
O39_8 O 0.7004(4) 0.2471(4) 0.8273(3)
C105_8 C 0.7315(9) 0.1845(10) 0.9042(6)
H54_8 H 0.7540 0.1736 0.8928
C106_8 C 0.8982(5) 0.6893(10) 0.8245(11)
H57_8 H 0.8758 0.6807 0.8380
C108_8 C 0.9271(5) 0.7293(7) 0.7737(10)
H58_8 H 0.9253 0.7461 0.7519
O41_8 O 0.9337(4) 0.6477(8) 0.8662(9)
C109_8 C 0.9635(6) 0.7170(9) 0.7879(8)
H59_8 H 0.9861 0.7291 0.7779
C110_8 C 0.9692(6) 0.6314(8) 0.8755(10)
C111_8 C 0.9320(6) 0.6769(10) 0.8349(9)
C112_8 C 0.9680(5) 0.6890(9) 0.8149(10)
C113_8 C 0.8938(6) 0.7159(8) 0.7927(8)
C114_8 C 0.9676(6) 0.6030(11) 0.9035(9)
H60_8 H 0.9434 0.5948 0.9138
O42_8 O 0.9684(5) 0.5432(5) 0.9593(5)
C118_8 C 0.8535(5) 0.7297(9) 0.7849(8)
O37_13 O 0.1018(5) 0.5000 -0.0000
H55_7 H 0.1076(8) 0.5266(10) 0.003(5)
O37_14 O 0.1018(5) 0.5000 1.0000
H56_7 H 0.1076(8) 0.4734(10) 0.997(5)
O37_15 O 0.8982(5) 0.5000 -0.0000
H55_8 H 0.8924(8) 0.4734(10) 0.003(5)
O37_16 O 0.8982(5) 0.5000 1.0000
H56_8 H 0.8924(8) 0.5266(10) 0.997(5)
loop_
_geom_bond_atom_site_label_1
_geom_bond_atom_site_label_2
_geom_bond_site_symmetry_1
_geom_bond_site_symmetry_2
O5 Co1 1_555 1_555
H12 O5 1_555 1_555
O14 Co2 1_555 1_555
H24 O14 1_555 1_555
C43 H25 1_555 1_555
C44 N3 1_555 1_555
C45 H26 1_555 1_555
O19 C47 1_555 1_555
C46 C45 1_555 1_555
H27 C46 1_555 1_555
N3 C49 1_555 1_555
C47 C44 1_555 1_555
C48 C43 1_555 1_555
C49 C46 1_555 1_555
C50 C43 1_555 1_555
C51 C47 1_555 1_555
H28 C51 1_555 1_555
C52 C51 1_555 1_555
C53 C44 1_555 1_555
H29 C53 1_555 1_555
C54 C52 1_555 1_555
O20 Co2 1_555 1_555
C55 C50 1_555 1_555
O21 C55 1_555 1_555
O22 Co1 1_555 1_555
C56 C57 1_555 1_555
C57 H30 1_555 1_555
C58 N3 1_555 1_555
C59 C57 1_555 1_555
H31 C59 1_555 1_555
C60 C52 1_555 1_555
H32 C60 1_555 1_555
C61 C58 1_555 1_555
H33 C61 1_555 1_555
O23 C62 1_555 1_555
C62 C56 1_555 1_555
O24 C62 1_555 1_555
Zn5 O24 1_555 1_555
C63 C56 1_555 1_555
H34 C63 1_555 1_555
O25 C55 1_555 1_555
C64 H35 1_555 1_555
C65 N4 1_555 1_555
C66 H36 1_555 1_555
O26 C68 1_555 1_555
C67 C66 1_555 1_555
H37 C67 1_555 1_555
N4 C70 1_555 1_555
C68 C65 1_555 1_555
C69 C64 1_555 1_555
C70 C67 1_555 1_555
C71 C64 1_555 1_555
C72 C68 1_555 1_555
H38 C72 1_555 1_555
C73 C72 1_555 1_555
C74 C65 1_555 1_555
H39 C74 1_555 1_555
C75 C73 1_555 1_555
O27 Co1 1_555 1_555
C76 C71 1_555 1_555
O28 C76 1_555 1_555
O29 Co2 1_555 1_555
C77 C78 1_555 1_555
C78 H40 1_555 1_555
C79 N4 1_555 1_555
C80 C78 1_555 1_555
H41 C80 1_555 1_555
C81 C73 1_555 1_555
H42 C81 1_555 1_555
C82 C79 1_555 1_555
H43 C82 1_555 1_555
O30 C83 1_555 1_555
C83 C77 1_555 1_555
O31 C83 1_555 1_555
Zn6 O31 1_555 1_555
C84 C77 1_555 1_555
H44 C84 1_555 1_555
O32 C76 1_555 1_555
O53 Zn5 1_555 1_555
O54 Zn6 1_555 1_555
Zn9 O23 1_555 1_555
Zn10 O30 1_555 1_555
O59 Zn5 1_555 1_555
O60 Zn6 1_555 1_555
Zn16 O28 1_555 1_555
Zn18 O21 1_555 1_555
Zn21 O32 1_555 1_555
Zn22 O25 1_555 1_555
O62 Zn6 1_555 1_555
O64 Zn5 1_555 1_555
C45 C50 1_555 1_555
O19 C48 1_555 1_555
C48 C49 1_555 1_555
C53 C60 1_555 1_555
C54 O20 1_555 1_555
C54 O22 1_555 1_555
C58 C59 1_555 1_555
C61 C63 1_555 1_555
C66 C71 1_555 1_555
O26 C69 1_555 1_555
C69 C70 1_555 1_555
C74 C81 1_555 1_555
C75 O27 1_555 1_555
C75 O29 1_555 1_555
C79 C80 1_555 1_555
C82 C84 1_555 1_555
Zn9 O59 1_555 1_555
Zn10 O60 1_555 1_555
Co1_2 O4 1_555 1_555
C1 H1 1_555 1_555
C2 N1 1_555 1_555
C3 H2 1_555 1_555
O1 C5 1_555 1_555
C4 C3 1_555 1_555
H3 C4 1_555 1_555
N1 C7 1_555 1_555
C5 C2 1_555 1_555
C6 C1 1_555 1_555
C7 C4 1_555 1_555
C8 C1 1_555 1_555
C9 C5 1_555 1_555
H4 C9 1_555 1_555
C10 C9 1_555 1_555
C11 C2 1_555 1_555
H5 C11 1_555 1_555
C12 C10 1_555 1_555
O2 C12 1_555 1_555
C13 C8 1_555 1_555
O3 C13 1_555 1_555
O4 C12 1_555 1_555
C14 C15 1_555 1_555
C15 H6 1_555 1_555
C16 N1 1_555 1_555
C17 C15 1_555 1_555
H7 C17 1_555 1_555
C18 C10 1_555 1_555
H8 C18 1_555 1_555
C19 C16 1_555 1_555
H9 C19 1_555 1_555
O5_2 Co1_2 1_555 1_555
O6 Zn1 1_555 1_555
Zn1 O8 1_555 1_555
C20 C14 1_555 1_555
O7 C20 1_555 1_555
O8 Zn2 1_555 1_555
Zn2 O7 1_555 1_555
C21 C14 1_555 1_555
H10 C21 1_555 1_555
O9 C13 1_555 1_555
H11 O5_2 1_555 1_555
Co2_2 O2 1_555 1_555
C22 H13 1_555 1_555
C23 N2 1_555 1_555
C24 H14 1_555 1_555
O10 C26 1_555 1_555
C25 C24 1_555 1_555
H15 C25 1_555 1_555
N2 C28 1_555 1_555
C26 C23 1_555 1_555
C27 C22 1_555 1_555
C28 C25 1_555 1_555
C29 C22 1_555 1_555
C30 C26 1_555 1_555
H16 C30 1_555 1_555
C31 C30 1_555 1_555
C32 C23 1_555 1_555
H17 C32 1_555 1_555
C33 C31 1_555 1_555
O11 Co1_2 1_555 1_555
C34 C29 1_555 1_555
O12 C34 1_555 1_555
O13 Co2_2 1_555 1_555
C35 C36 1_555 1_555
C36 H18 1_555 1_555
C37 N2 1_555 1_555
C38 C36 1_555 1_555
H19 C38 1_555 1_555
C39 C31 1_555 1_555
H20 C39 1_555 1_555
C40 C37 1_555 1_555
H21 C40 1_555 1_555
O14_2 Co2_2 1_555 1_555
O15 Zn3 1_555 1_555
Zn3 O17 1_555 1_555
C41 C35 1_555 1_555
O16 C41 1_555 1_555
O17 Zn4 1_555 1_555
Zn4 O16 1_555 1_555
C42 C35 1_555 1_555
H22 C42 1_555 1_555
O18 C34 1_555 1_555
H23 O14_2 1_555 1_555
Co3 O36 1_555 1_555
C85 H45 1_555 1_555
C86 N5 1_555 1_555
C87 H46 1_555 1_555
O33 C89 1_555 1_555
C88 C87 1_555 1_555
H47 C88 1_555 1_555
N5 C91 1_555 1_555
C89 C86 1_555 1_555
C90 C85 1_555 1_555
C91 C88 1_555 1_555
C92 C85 1_555 1_555
C93 C89 1_555 1_555
H48 C93 1_555 1_555
C94 C93 1_555 1_555
C95 C86 1_555 1_555
H49 C95 1_555 1_555
C96 C94 1_555 1_555
O34 C96 1_555 1_555
C97 C92 1_555 1_555
O35 C97 1_555 1_555
O36 C96 1_555 1_555
C98 C99 1_555 1_555
C99 H50 1_555 1_555
C100 N5 1_555 1_555
C101 C99 1_555 1_555
H51 C101 1_555 1_555
C102 C94 1_555 1_555
H52 C102 1_555 1_555
C103 C100 1_555 1_555
H53 C103 1_555 1_555
O37 Co3 1_555 1_555
O38 Zn1 1_555 1_555
C104 C98 1_555 1_555
O39 C104 1_555 1_555
Zn7 O8 1_555 1_555
C105 C98 1_555 1_555
H54 C105 1_555 1_555
O40 C97 1_555 1_555
H55 O37 1_555 1_555
C106 H57 1_555 1_555
C107 N6 1_555 1_555
C108 H58 1_555 1_555
O41 C110 1_555 1_555
C109 C108 1_555 1_555
H59 C109 1_555 1_555
N6 C112 1_555 1_555
C110 C107 1_555 1_555
C111 C106 1_555 1_555
C112 C109 1_555 1_555
C113 C106 1_555 1_555
C114 C110 1_555 1_555
H60 C114 1_555 1_555
C115 C114 1_555 1_555
C116 C107 1_555 1_555
H61 C116 1_555 1_555
C117 C115 1_555 1_555
O42 C117 1_555 1_555
C118 C113 1_555 1_555
O43 C118 1_555 1_555
O44 C117 1_555 1_555
C119 C120 1_555 1_555
C120 H62 1_555 1_555
C121 N6 1_555 1_555
C122 C120 1_555 1_555
H63 C122 1_555 1_555
C123 C115 1_555 1_555
H64 C123 1_555 1_555
C124 C121 1_555 1_555
H65 C124 1_555 1_555
O45 Zn3 1_555 1_555
C125 C119 1_555 1_555
O46 C125 1_555 1_555
Zn8 O17 1_555 1_555
C126 C119 1_555 1_555
H66 C126 1_555 1_555
O47 C118 1_555 1_555
Co4 O34 1_555 1_555
Co5_2 O42 1_555 1_555
Co6_2 O44 1_555 1_555
O49 Co3 1_555 1_555
O50 Zn7 1_555 1_555
O51 Zn8 1_555 1_555
O52 Zn2 1_555 1_555
O55 Zn4 1_555 1_555
O57 Zn3 1_555 1_555
O58 Zn1 1_555 1_555
Zn11 O17 1_555 1_555
Zn12 O8 1_555 1_555
Zn13 O40 1_555 1_555
Zn14 O43 1_555 1_555
Zn15 O3 1_555 1_555
Zn17 O12 1_555 1_555
Zn19 O18 1_555 1_555
Zn21 O35 1_555 1_555
Zn23 O9 1_555 1_555
O61 Zn8 1_555 1_555
O63 Zn2 1_555 1_555
O65 Zn4 1_555 1_555
O66 Zn7 1_555 1_555
C3 C8 1_555 1_555
O1 C6 1_555 1_555
C6 C7 1_555 1_555
C11 C18 1_555 1_555
C16 C17 1_555 1_555
C19 C21 1_555 1_555
O6 C20 1_555 1_555
C24 C29 1_555 1_555
O10 C27 1_555 1_555
C27 C28 1_555 1_555
C32 C39 1_555 1_555
C33 O11 1_555 1_555
C33 O13 1_555 1_555
C37 C38 1_555 1_555
C40 C42 1_555 1_555
O15 C41 1_555 1_555
C87 C92 1_555 1_555
O33 C90 1_555 1_555
C90 C91 1_555 1_555
C95 C102 1_555 1_555
C100 C101 1_555 1_555
C103 C105 1_555 1_555
O38 C104 1_555 1_555
O39 Zn7 1_555 1_555
C108 C113 1_555 1_555
O41 C111 1_555 1_555
C111 C112 1_555 1_555
C116 C123 1_555 1_555
C121 C122 1_555 1_555
C124 C126 1_555 1_555
O45 C125 1_555 1_555
O46 Zn8 1_555 1_555
O47 Zn15 1_555 1_555
O37_2 Co3_2 1_555 1_555
H56 O37_2 1_555 1_555
O48 Co3_2 1_555 1_555
O56 Co3_2 1_555 1_555
C85_2 H45_2 1_555 1_555
C86_2 N5_2 1_555 1_555
C87_2 H46_2 1_555 1_555
O33_2 C89_2 1_555 1_555
C88_2 C87_2 1_555 1_555
H47_2 C88_2 1_555 1_555
N5_2 C91_2 1_555 1_555
C89_2 C86_2 1_555 1_555
C90_2 C85_2 1_555 1_555
C91_2 C88_2 1_555 1_555
C92_2 C85_2 1_555 1_555
C93_2 C89_2 1_555 1_555
H48_2 C93_2 1_555 1_555
C94_2 C93_2 1_555 1_555
C95_2 C86_2 1_555 1_555
H49_2 C95_2 1_555 1_555
C96_2 C94_2 1_555 1_555
O34_2 C96_2 1_555 1_555
C97_2 C92_2 1_555 1_555
O35_2 C97_2 1_555 1_555
O56 C96_2 1_555 1_555
C98_2 C99_2 1_555 1_555
C99_2 H50_2 1_555 1_555
C100_2 N5_2 1_555 1_555
C101_2 C99_2 1_555 1_555
H51_2 C101_2 1_555 1_555
C102_2 C94_2 1_555 1_555
H52_2 C102_2 1_555 1_555
C103_2 C100_2 1_555 1_555
H53_2 C103_2 1_555 1_555
C104_2 C98_2 1_555 1_555
O39_2 C104_2 1_555 1_555
C105_2 C98_2 1_555 1_555
H54_2 C105_2 1_555 1_555
O40_2 C97_2 1_555 1_555
C106_2 H57_2 1_555 1_555
C107_2 N6_2 1_555 1_555
C108_2 H58_2 1_555 1_555
O41_2 C110_2 1_555 1_555
C109_2 C108_2 1_555 1_555
H59_2 C109_2 1_555 1_555
N6_2 C112_2 1_555 1_555
C110_2 C107_2 1_555 1_555
C111_2 C106_2 1_555 1_555
C112_2 C109_2 1_555 1_555
C113_2 C106_2 1_555 1_555
C114_2 C110_2 1_555 1_555
H60_2 C114_2 1_555 1_555
C115_2 C114_2 1_555 1_555
C116_2 C107_2 1_555 1_555
H61_2 C116_2 1_555 1_555
C117_2 C115_2 1_555 1_555
O42_2 C117_2 1_555 1_555
C118_2 C113_2 1_555 1_555
O43_2 C118_2 1_555 1_555
O44_2 C117_2 1_555 1_555
C119_2 C120_2 1_555 1_555
C120_2 H62_2 1_555 1_555
C121_2 N6_2 1_555 1_555
C122_2 C120_2 1_555 1_555
H63_2 C122_2 1_555 1_555
C123_2 C115_2 1_555 1_555
H64_2 C123_2 1_555 1_555
C124_2 C121_2 1_555 1_555
H65_2 C124_2 1_555 1_555
C125_2 C119_2 1_555 1_555
O46_2 C125_2 1_555 1_555
C126_2 C119_2 1_555 1_555
H66_2 C126_2 1_555 1_555
O47_2 C118_2 1_555 1_555
Co4_2 O34_2 1_555 1_555
Co6 O42_2 1_555 1_555
Co5 O44_2 1_555 1_555
O50_2 Zn11 1_555 1_555
O51_2 Zn12 1_555 1_555
Zn13_2 O40_2 1_555 1_555
Zn14_2 O43_2 1_555 1_555
Zn22 O35_2 1_555 1_555
O61_2 Zn12 1_555 1_555
O66_2 Zn11 1_555 1_555
C87_2 C92_2 1_555 1_555
O33_2 C90_2 1_555 1_555
C90_2 C91_2 1_555 1_555
C95_2 C102_2 1_555 1_555
C100_2 C101_2 1_555 1_555
C103_2 C105_2 1_555 1_555
O57 C104_2 1_555 1_555
O39_2 Zn11 1_555 1_555
C108_2 C113_2 1_555 1_555
O41_2 C111_2 1_555 1_555
C111_2 C112_2 1_555 1_555
C116_2 C123_2 1_555 1_555
C121_2 C122_2 1_555 1_555
C124_2 C126_2 1_555 1_555
O58 C125_2 1_555 1_555
O46_2 Zn12 1_555 1_555
O47_2 Zn17 1_555 1_555
O37_3 Co4 1_555 1_555
H56_2 O37_3 1_555 1_555
O56_2 Co4 1_555 1_555
Co4_2 O36_2 1_555 1_555
C85_3 H45_3 1_555 1_555
C86_3 N5_3 1_555 1_555
C87_3 H46_3 1_555 1_555
O33_3 C89_3 1_555 1_555
C88_3 C87_3 1_555 1_555
H47_3 C88_3 1_555 1_555
N5_3 C91_3 1_555 1_555
C89_3 C86_3 1_555 1_555
C90_3 C85_3 1_555 1_555
C91_3 C88_3 1_555 1_555
C92_3 C85_3 1_555 1_555
C93_3 C89_3 1_555 1_555
H48_3 C93_3 1_555 1_555
C94_3 C93_3 1_555 1_555
C95_3 C86_3 1_555 1_555
H49_3 C95_3 1_555 1_555
C96_3 C94_3 1_555 1_555
O48 C96_3 1_555 1_555
C97_3 C92_3 1_555 1_555
O35_3 C97_3 1_555 1_555
O36_2 C96_3 1_555 1_555
C98_3 C99_3 1_555 1_555
C99_3 H50_3 1_555 1_555
C100_3 N5_3 1_555 1_555
C101_3 C99_3 1_555 1_555
H51_3 C101_3 1_555 1_555
C102_3 C94_3 1_555 1_555
H52_3 C102_3 1_555 1_555
C103_3 C100_3 1_555 1_555
H53_3 C103_3 1_555 1_555
O37_4 Co4_2 1_555 1_555
O38_2 Zn9 1_555 1_555
C104_3 C98_3 1_555 1_555
O39_3 C104_3 1_555 1_555
Zn7_2 O59 1_555 1_555
C105_3 C98_3 1_555 1_555
H54_3 C105_3 1_555 1_555
O40_3 C97_3 1_555 1_555
H55_2 O37_4 1_555 1_555
C106_3 H57_3 1_555 1_555
C107_3 N6_3 1_555 1_555
C108_3 H58_3 1_555 1_555
O41_3 C110_3 1_555 1_555
C109_3 C108_3 1_555 1_555
H59_3 C109_3 1_555 1_555
N6_3 C112_3 1_555 1_555
C110_3 C107_3 1_555 1_555
C111_3 C106_3 1_555 1_555
C112_3 C109_3 1_555 1_555
C113_3 C106_3 1_555 1_555
C114_3 C110_3 1_555 1_555
H60_3 C114_3 1_555 1_555
C115_3 C114_3 1_555 1_555
C116_3 C107_3 1_555 1_555
H61_3 C116_3 1_555 1_555
C117_3 C115_3 1_555 1_555
O42_3 C117_3 1_555 1_555
C118_3 C113_3 1_555 1_555
O43_3 C118_3 1_555 1_555
O44_3 C117_3 1_555 1_555
C119_3 C120_3 1_555 1_555
C120_3 H62_3 1_555 1_555
C121_3 N6_3 1_555 1_555
C122_3 C120_3 1_555 1_555
H63_3 C122_3 1_555 1_555
C123_3 C115_3 1_555 1_555
H64_3 C123_3 1_555 1_555
C124_3 C121_3 1_555 1_555
H65_3 C124_3 1_555 1_555
O45_2 Zn10 1_555 1_555
C125_3 C119_3 1_555 1_555
O46_3 C125_3 1_555 1_555
Zn8_2 O60 1_555 1_555
C126_3 C119_3 1_555 1_555
H66_3 C126_3 1_555 1_555
O47_3 C118_3 1_555 1_555
Co6_2 O42_3 1_555 1_555
Co5_2 O44_3 1_555 1_555
O50_3 Zn7_2 1_555 1_555
O51_3 Zn8_2 1_555 1_555
O57_2 Zn10 1_555 1_555
O58_2 Zn9 1_555 1_555
Zn11_2 O60 1_555 1_555
Zn12_2 O59 1_555 1_555
Zn14_2 O40_3 1_555 1_555
Zn13_2 O43_3 1_555 1_555
Zn19 O35_3 1_555 1_555
O61_3 Zn8_2 1_555 1_555
O66_3 Zn7_2 1_555 1_555
C87_3 C92_3 1_555 1_555
O33_3 C90_3 1_555 1_555
C90_3 C91_3 1_555 1_555
C95_3 C102_3 1_555 1_555
C100_3 C101_3 1_555 1_555
C103_3 C105_3 1_555 1_555
O38_2 C104_3 1_555 1_555
O39_3 Zn7_2 1_555 1_555
C108_3 C113_3 1_555 1_555
O41_3 C111_3 1_555 1_555
C111_3 C112_3 1_555 1_555
C116_3 C123_3 1_555 1_555
C121_3 C122_3 1_555 1_555
C124_3 C126_3 1_555 1_555
O45_2 C125_3 1_555 1_555
O46_3 Zn8_2 1_555 1_555
O47_3 Zn18 1_555 1_555
C85_4 H45_4 1_555 1_555
C86_4 N5_4 1_555 1_555
C87_4 H46_4 1_555 1_555
O33_4 C89_4 1_555 1_555
C88_4 C87_4 1_555 1_555
H47_4 C88_4 1_555 1_555
N5_4 C91_4 1_555 1_555
C89_4 C86_4 1_555 1_555
C90_4 C85_4 1_555 1_555
C91_4 C88_4 1_555 1_555
C92_4 C85_4 1_555 1_555
C93_4 C89_4 1_555 1_555
H48_4 C93_4 1_555 1_555
C94_4 C93_4 1_555 1_555
C95_4 C86_4 1_555 1_555
H49_4 C95_4 1_555 1_555
C96_4 C94_4 1_555 1_555
O49 C96_4 1_555 1_555
C97_4 C92_4 1_555 1_555
O35_4 C97_4 1_555 1_555
O56_2 C96_4 1_555 1_555
C98_4 C99_4 1_555 1_555
C99_4 H50_4 1_555 1_555
C100_4 N5_4 1_555 1_555
C101_4 C99_4 1_555 1_555
H51_4 C101_4 1_555 1_555
C102_4 C94_4 1_555 1_555
H52_4 C102_4 1_555 1_555
C103_4 C100_4 1_555 1_555
H53_4 C103_4 1_555 1_555
C104_4 C98_4 1_555 1_555
O39_4 C104_4 1_555 1_555
C105_4 C98_4 1_555 1_555
H54_4 C105_4 1_555 1_555
O40_4 C97_4 1_555 1_555
C106_4 H57_4 1_555 1_555
C107_4 N6_4 1_555 1_555
C108_4 H58_4 1_555 1_555
O41_4 C110_4 1_555 1_555
C109_4 C108_4 1_555 1_555
H59_4 C109_4 1_555 1_555
N6_4 C112_4 1_555 1_555
C110_4 C107_4 1_555 1_555
C111_4 C106_4 1_555 1_555
C112_4 C109_4 1_555 1_555
C113_4 C106_4 1_555 1_555
C114_4 C110_4 1_555 1_555
H60_4 C114_4 1_555 1_555
C115_4 C114_4 1_555 1_555
C116_4 C107_4 1_555 1_555
H61_4 C116_4 1_555 1_555
C117_4 C115_4 1_555 1_555
O42_4 C117_4 1_555 1_555
C118_4 C113_4 1_555 1_555
O43_4 C118_4 1_555 1_555
O44_4 C117_4 1_555 1_555
C119_4 C120_4 1_555 1_555
C120_4 H62_4 1_555 1_555
C121_4 N6_4 1_555 1_555
C122_4 C120_4 1_555 1_555
H63_4 C122_4 1_555 1_555
C123_4 C115_4 1_555 1_555
H64_4 C123_4 1_555 1_555
C124_4 C121_4 1_555 1_555
H65_4 C124_4 1_555 1_555
C125_4 C119_4 1_555 1_555
O46_4 C125_4 1_555 1_555
C126_4 C119_4 1_555 1_555
H66_4 C126_4 1_555 1_555
O47_4 C118_4 1_555 1_555
Co5 O42_4 1_555 1_555
Co6 O44_4 1_555 1_555
O50_4 Zn11_2 1_555 1_555
O51_4 Zn12_2 1_555 1_555
Zn14 O40_4 1_555 1_555
Zn13 O43_4 1_555 1_555
Zn23 O35_4 1_555 1_555
O61_4 Zn12_2 1_555 1_555
O66_4 Zn11_2 1_555 1_555
C87_4 C92_4 1_555 1_555
O33_4 C90_4 1_555 1_555
C90_4 C91_4 1_555 1_555
C95_4 C102_4 1_555 1_555
C100_4 C101_4 1_555 1_555
C103_4 C105_4 1_555 1_555
O57_2 C104_4 1_555 1_555
O39_4 Zn11_2 1_555 1_555
C108_4 C113_4 1_555 1_555
O41_4 C111_4 1_555 1_555
C111_4 C112_4 1_555 1_555
C116_4 C123_4 1_555 1_555
C121_4 C122_4 1_555 1_555
C124_4 C126_4 1_555 1_555
O58_2 C125_4 1_555 1_555
O46_4 Zn12_2 1_555 1_555
O47_4 Zn16 1_555 1_555
O37_5 Co6 1_555 1_555
H55_3 O37_5 1_555 1_555
O37_6 Co6_2 1_555 1_555
H56_3 O37_6 1_555 1_555
O37_7 Co5 1_555 1_555
H56_4 O37_7 1_555 1_555
O37_8 Co5_2 1_555 1_555
H55_4 O37_8 1_555 1_555
C23_2 N2_2 1_555 1_555
C32_2 C23_2 1_555 1_555
H17_2 C32_2 1_555 1_555
C33_2 C31_2 1_555 1_555
O13_2 Co2_3 1_555 1_555
C35_2 C36_2 1_555 1_555
C36_2 H18_2 1_555 1_555
C37_2 N2_2 1_555 1_555
C38_2 C36_2 1_555 1_555
H19_2 C38_2 1_555 1_555
C39_2 C31_2 1_555 1_555
H20_2 C39_2 1_555 1_555
C40_2 C37_2 1_555 1_555
H21_2 C40_2 1_555 1_555
O14_3 Co2_3 1_555 1_555
O15_2 Zn3_2 1_555 1_555
Zn3_2 O17_2 1_555 1_555
C41_2 C35_2 1_555 1_555
O16_2 C41_2 1_555 1_555
O17_2 Zn13 1_555 1_555
Zn13 O16_2 1_555 1_555
C42_2 C35_2 1_555 1_555
H22_2 C42_2 1_555 1_555
H24_2 O14_3 1_555 1_555
C43_2 H25_2 1_555 1_555
C45_2 H26_2 1_555 1_555
O19_2 C47_2 1_555 1_555
C46_2 C45_2 1_555 1_555
H27_2 C46_2 1_555 1_555
C48_2 C43_2 1_555 1_555
C49_2 C46_2 1_555 1_555
C50_2 C43_2 1_555 1_555
C51_2 C47_2 1_555 1_555
H28_2 C51_2 1_555 1_555
O20_2 Co2_3 1_555 1_555
C55_2 C50_2 1_555 1_555
O50 C55_2 1_555 1_555
O61_2 C55_2 1_555 1_555
C107_5 N6_5 1_555 1_555
C116_5 C107_5 1_555 1_555
H61_5 C116_5 1_555 1_555
C117_5 C115_5 1_555 1_555
O44_5 C117_5 1_555 1_555
C119_5 C120_5 1_555 1_555
C120_5 H62_5 1_555 1_555
C121_5 N6_5 1_555 1_555
C122_5 C120_5 1_555 1_555
H63_5 C122_5 1_555 1_555
C123_5 C115_5 1_555 1_555
H64_5 C123_5 1_555 1_555
C124_5 C121_5 1_555 1_555
H65_5 C124_5 1_555 1_555
O45_3 Zn3_2 1_555 1_555
C125_5 C119_5 1_555 1_555
O46_5 C125_5 1_555 1_555
Zn21 O17_2 1_555 1_555
C126_5 C119_5 1_555 1_555
H66_5 C126_5 1_555 1_555
Co6_3 O44_5 1_555 1_555
O57_3 Zn3_2 1_555 1_555
Zn16 O17_2 1_555 1_555
C32_2 C39_2 1_555 1_555
C33_2 O13_2 1_555 1_555
C37_2 C38_2 1_555 1_555
C40_2 C42_2 1_555 1_555
O15_2 C41_2 1_555 1_555
C45_2 C50_2 1_555 1_555
O19_2 C48_2 1_555 1_555
C48_2 C49_2 1_555 1_555
C116_5 C123_5 1_555 1_555
C121_5 C122_5 1_555 1_555
C124_5 C126_5 1_555 1_555
O45_3 C125_5 1_555 1_555
O46_5 Zn21 1_555 1_555
O5_3 Co1_3 1_555 1_555
H11_2 O5_3 1_555 1_555
C22_2 H13_2 1_555 1_555
C24_2 H14_2 1_555 1_555
O10_2 C26_2 1_555 1_555
C25_2 C24_2 1_555 1_555
H15_2 C25_2 1_555 1_555
C27_2 C22_2 1_555 1_555
C28_2 C25_2 1_555 1_555
C29_2 C22_2 1_555 1_555
C30_2 C26_2 1_555 1_555
H16_2 C30_2 1_555 1_555
O11_2 Co1_3 1_555 1_555
C34_2 C29_2 1_555 1_555
O50_4 C34_2 1_555 1_555
O61_3 C34_2 1_555 1_555
C44_2 N3_2 1_555 1_555
C53_2 C44_2 1_555 1_555
H29_2 C53_2 1_555 1_555
C54_2 C52_2 1_555 1_555
O22_2 Co1_3 1_555 1_555
C56_2 C57_2 1_555 1_555
C57_2 H30_2 1_555 1_555
C58_2 N3_2 1_555 1_555
C59_2 C57_2 1_555 1_555
H31_2 C59_2 1_555 1_555
C60_2 C52_2 1_555 1_555
H32_2 C60_2 1_555 1_555
C61_2 C58_2 1_555 1_555
H33_2 C61_2 1_555 1_555
O23_2 C62_2 1_555 1_555
C62_2 C56_2 1_555 1_555
O24_2 C62_2 1_555 1_555
Zn14 O24_2 1_555 1_555
C63_2 C56_2 1_555 1_555
H34_2 C63_2 1_555 1_555
Zn9_2 O23_2 1_555 1_555
O59_2 Zn14 1_555 1_555
C24_2 C29_2 1_555 1_555
O10_2 C27_2 1_555 1_555
C27_2 C28_2 1_555 1_555
C53_2 C60_2 1_555 1_555
C54_2 O22_2 1_555 1_555
C58_2 C59_2 1_555 1_555
C61_2 C63_2 1_555 1_555
Zn9_2 O59_2 1_555 1_555
C1_2 H1_2 1_555 1_555
C3_2 H2_2 1_555 1_555
O1_2 C5_2 1_555 1_555
C4_2 C3_2 1_555 1_555
H3_2 C4_2 1_555 1_555
C6_2 C1_2 1_555 1_555
C7_2 C4_2 1_555 1_555
C8_2 C1_2 1_555 1_555
C9_2 C5_2 1_555 1_555
H4_2 C9_2 1_555 1_555
C13_2 C8_2 1_555 1_555
O50_3 C13_2 1_555 1_555
O61_4 C13_2 1_555 1_555
Co2_4 O2_2 1_555 1_555
O14_4 Co2_4 1_555 1_555
H23_2 O14_4 1_555 1_555
C65_2 N4_2 1_555 1_555
C74_2 C65_2 1_555 1_555
H39_2 C74_2 1_555 1_555
C75_2 C73_2 1_555 1_555
O29_2 Co2_4 1_555 1_555
C77_2 C78_2 1_555 1_555
C78_2 H40_2 1_555 1_555
C79_2 N4_2 1_555 1_555
C80_2 C78_2 1_555 1_555
H41_2 C80_2 1_555 1_555
C81_2 C73_2 1_555 1_555
H42_2 C81_2 1_555 1_555
C82_2 C79_2 1_555 1_555
H43_2 C82_2 1_555 1_555
O30_2 C83_2 1_555 1_555
C83_2 C77_2 1_555 1_555
O31_2 C83_2 1_555 1_555
Zn14_2 O31_2 1_555 1_555
C84_2 C77_2 1_555 1_555
H44_2 C84_2 1_555 1_555
O37_9 Co3_3 1_555 1_555
H55_5 O37_9 1_555 1_555
C106_5 H57_5 1_555 1_555
C108_5 H58_5 1_555 1_555
O41_5 C110_5 1_555 1_555
C109_5 C108_5 1_555 1_555
H59_5 C109_5 1_555 1_555
C111_5 C106_5 1_555 1_555
C112_5 C109_5 1_555 1_555
C113_5 C106_5 1_555 1_555
C114_5 C110_5 1_555 1_555
H60_5 C114_5 1_555 1_555
C118_5 C113_5 1_555 1_555
O53 C118_5 1_555 1_555
O66_3 C118_5 1_555 1_555
Co5_3 O42_5 1_555 1_555
O49_2 Co3_3 1_555 1_555
O56_3 Co3_3 1_555 1_555
Zn10_2 O30_2 1_555 1_555
O60_2 Zn14_2 1_555 1_555
C3_2 C8_2 1_555 1_555
O1_2 C6_2 1_555 1_555
C6_2 C7_2 1_555 1_555
C74_2 C81_2 1_555 1_555
C75_2 O29_2 1_555 1_555
C79_2 C80_2 1_555 1_555
C82_2 C84_2 1_555 1_555
C108_5 C113_5 1_555 1_555
O41_5 C111_5 1_555 1_555
C111_5 C112_5 1_555 1_555
Zn10_2 O60_2 1_555 1_555
Co1_4 O4_2 1_555 1_555
C2_2 N1_2 1_555 1_555
C11_2 C2_2 1_555 1_555
H5_2 C11_2 1_555 1_555
C12_2 C10_2 1_555 1_555
O4_2 C12_2 1_555 1_555
C14_2 C15_2 1_555 1_555
C15_2 H6_2 1_555 1_555
C16_2 N1_2 1_555 1_555
C17_2 C15_2 1_555 1_555
H7_2 C17_2 1_555 1_555
C18_2 C10_2 1_555 1_555
H8_2 C18_2 1_555 1_555
C19_2 C16_2 1_555 1_555
H9_2 C19_2 1_555 1_555
O5_4 Co1_4 1_555 1_555
O6_2 Zn1_2 1_555 1_555
Zn1_2 O8_2 1_555 1_555
C20_2 C14_2 1_555 1_555
O7_2 C20_2 1_555 1_555
O8_2 Zn13_2 1_555 1_555
Zn13_2 O7_2 1_555 1_555
C21_2 C14_2 1_555 1_555
H10_2 C21_2 1_555 1_555
H12_2 O5_4 1_555 1_555
C64_2 H35_2 1_555 1_555
C66_2 H36_2 1_555 1_555
O26_2 C68_2 1_555 1_555
C67_2 C66_2 1_555 1_555
H37_2 C67_2 1_555 1_555
C69_2 C64_2 1_555 1_555
C70_2 C67_2 1_555 1_555
C71_2 C64_2 1_555 1_555
C72_2 C68_2 1_555 1_555
H38_2 C72_2 1_555 1_555
O27_2 Co1_4 1_555 1_555
C76_2 C71_2 1_555 1_555
O50_2 C76_2 1_555 1_555
O61 C76_2 1_555 1_555
Co3_4 O36_3 1_555 1_555
C86_5 N5_5 1_555 1_555
C95_5 C86_5 1_555 1_555
H49_5 C95_5 1_555 1_555
C96_5 C94_5 1_555 1_555
O36_3 C96_5 1_555 1_555
C98_5 C99_5 1_555 1_555
C99_5 H50_5 1_555 1_555
C100_5 N5_5 1_555 1_555
C101_5 C99_5 1_555 1_555
H51_5 C101_5 1_555 1_555
C102_5 C94_5 1_555 1_555
H52_5 C102_5 1_555 1_555
C103_5 C100_5 1_555 1_555
H53_5 C103_5 1_555 1_555
O37_10 Co3_4 1_555 1_555
O38_3 Zn1_2 1_555 1_555
C104_5 C98_5 1_555 1_555
O39_5 C104_5 1_555 1_555
Zn18 O8_2 1_555 1_555
C105_5 C98_5 1_555 1_555
H54_5 C105_5 1_555 1_555
H56_5 O37_10 1_555 1_555
O48_2 Co3_4 1_555 1_555
O58_3 Zn1_2 1_555 1_555
Zn22 O8_2 1_555 1_555
C11_2 C18_2 1_555 1_555
C16_2 C17_2 1_555 1_555
C19_2 C21_2 1_555 1_555
O6_2 C20_2 1_555 1_555
C66_2 C71_2 1_555 1_555
O26_2 C69_2 1_555 1_555
C69_2 C70_2 1_555 1_555
C95_5 C102_5 1_555 1_555
C100_5 C101_5 1_555 1_555
C103_5 C105_5 1_555 1_555
O38_3 C104_5 1_555 1_555
O39_5 Zn18 1_555 1_555
C85_5 H45_5 1_555 1_555
C87_5 H46_5 1_555 1_555
O33_5 C89_5 1_555 1_555
C88_5 C87_5 1_555 1_555
H47_5 C88_5 1_555 1_555
C90_5 C85_5 1_555 1_555
C91_5 C88_5 1_555 1_555
C92_5 C85_5 1_555 1_555
C93_5 C89_5 1_555 1_555
H48_5 C93_5 1_555 1_555
C97_5 C92_5 1_555 1_555
O51 C97_5 1_555 1_555
O65 C97_5 1_555 1_555
Co4_4 O34_3 1_555 1_555
C87_5 C92_5 1_555 1_555
O33_5 C90_5 1_555 1_555
C90_5 C91_5 1_555 1_555
C86_6 N5_6 1_555 1_555
C95_6 C86_6 1_555 1_555
H49_6 C95_6 1_555 1_555
C96_6 C94_6 1_555 1_555
O56_3 C96_6 1_555 1_555
C98_6 C99_6 1_555 1_555
C99_6 H50_6 1_555 1_555
C100_6 N5_6 1_555 1_555
C101_6 C99_6 1_555 1_555
H51_6 C101_6 1_555 1_555
C102_6 C94_6 1_555 1_555
H52_6 C102_6 1_555 1_555
C103_6 C100_6 1_555 1_555
H53_6 C103_6 1_555 1_555
C104_6 C98_6 1_555 1_555
O39_6 C104_6 1_555 1_555
C105_6 C98_6 1_555 1_555
H54_6 C105_6 1_555 1_555
C95_6 C102_6 1_555 1_555
C100_6 C101_6 1_555 1_555
C103_6 C105_6 1_555 1_555
O57_3 C104_6 1_555 1_555
O39_6 Zn16 1_555 1_555
C85_6 H45_6 1_555 1_555
C87_6 H46_6 1_555 1_555
O33_6 C89_6 1_555 1_555
C88_6 C87_6 1_555 1_555
H47_6 C88_6 1_555 1_555
C90_6 C85_6 1_555 1_555
C91_6 C88_6 1_555 1_555
C92_6 C85_6 1_555 1_555
C93_6 C89_6 1_555 1_555
H48_6 C93_6 1_555 1_555
C97_6 C92_6 1_555 1_555
O51_2 C97_6 1_555 1_555
O63 C97_6 1_555 1_555
Co4_3 O34_4 1_555 1_555
C87_6 C92_6 1_555 1_555
O33_6 C90_6 1_555 1_555
C90_6 C91_6 1_555 1_555
C106_6 H57_6 1_555 1_555
C108_6 H58_6 1_555 1_555
O41_6 C110_6 1_555 1_555
C109_6 C108_6 1_555 1_555
H59_6 C109_6 1_555 1_555
C111_6 C106_6 1_555 1_555
C112_6 C109_6 1_555 1_555
C113_6 C106_6 1_555 1_555
C114_6 C110_6 1_555 1_555
H60_6 C114_6 1_555 1_555
C118_6 C113_6 1_555 1_555
O54 C118_6 1_555 1_555
O66_4 C118_6 1_555 1_555
Co6_3 O42_6 1_555 1_555
C108_6 C113_6 1_555 1_555
O41_6 C111_6 1_555 1_555
C111_6 C112_6 1_555 1_555
C107_6 N6_6 1_555 1_555
C116_6 C107_6 1_555 1_555
H61_6 C116_6 1_555 1_555
C117_6 C115_6 1_555 1_555
O44_6 C117_6 1_555 1_555
C119_6 C120_6 1_555 1_555
C120_6 H62_6 1_555 1_555
C121_6 N6_6 1_555 1_555
C122_6 C120_6 1_555 1_555
H63_6 C122_6 1_555 1_555
C123_6 C115_6 1_555 1_555
H64_6 C123_6 1_555 1_555
C124_6 C121_6 1_555 1_555
H65_6 C124_6 1_555 1_555
C125_6 C119_6 1_555 1_555
O46_6 C125_6 1_555 1_555
C126_6 C119_6 1_555 1_555
H66_6 C126_6 1_555 1_555
Co5_3 O44_6 1_555 1_555
C116_6 C123_6 1_555 1_555
C121_6 C122_6 1_555 1_555
C124_6 C126_6 1_555 1_555
O58_3 C125_6 1_555 1_555
O46_6 Zn22 1_555 1_555
O37_11 Co4_3 1_555 1_555
H55_6 O37_11 1_555 1_555
C106_7 H57_7 1_555 1_555
C108_7 H58_7 1_555 1_555
O41_7 C110_7 1_555 1_555
C109_7 C108_7 1_555 1_555
H59_7 C109_7 1_555 1_555
C111_7 C106_7 1_555 1_555
C112_7 C109_7 1_555 1_555
C113_7 C106_7 1_555 1_555
C114_7 C110_7 1_555 1_555
H60_7 C114_7 1_555 1_555
C118_7 C113_7 1_555 1_555
O52 C118_7 1_555 1_555
O66 C118_7 1_555 1_555
Co6_4 O42_7 1_555 1_555
O56_4 Co4_3 1_555 1_555
C108_7 C113_7 1_555 1_555
O41_7 C111_7 1_555 1_555
C111_7 C112_7 1_555 1_555
C85_7 H45_7 1_555 1_555
C87_7 H46_7 1_555 1_555
O33_7 C89_7 1_555 1_555
C88_7 C87_7 1_555 1_555
H47_7 C88_7 1_555 1_555
C90_7 C85_7 1_555 1_555
C91_7 C88_7 1_555 1_555
C92_7 C85_7 1_555 1_555
C93_7 C89_7 1_555 1_555
H48_7 C93_7 1_555 1_555
C97_7 C92_7 1_555 1_555
O51_3 C97_7 1_555 1_555
O62 C97_7 1_555 1_555
C87_7 C92_7 1_555 1_555
O33_7 C90_7 1_555 1_555
C90_7 C91_7 1_555 1_555
Co4_4 O36_4 1_555 1_555
C86_7 N5_7 1_555 1_555
C95_7 C86_7 1_555 1_555
H49_7 C95_7 1_555 1_555
C96_7 C94_7 1_555 1_555
O36_4 C96_7 1_555 1_555
C98_7 C99_7 1_555 1_555
C99_7 H50_7 1_555 1_555
C100_7 N5_7 1_555 1_555
C101_7 C99_7 1_555 1_555
H51_7 C101_7 1_555 1_555
C102_7 C94_7 1_555 1_555
H52_7 C102_7 1_555 1_555
C103_7 C100_7 1_555 1_555
H53_7 C103_7 1_555 1_555
O37_12 Co4_4 1_555 1_555
O38_4 Zn9_2 1_555 1_555
C104_7 C98_7 1_555 1_555
O39_7 C104_7 1_555 1_555
Zn15 O59_2 1_555 1_555
C105_7 C98_7 1_555 1_555
H54_7 C105_7 1_555 1_555
H56_6 O37_12 1_555 1_555
O58_4 Zn9_2 1_555 1_555
Zn23 O59_2 1_555 1_555
C95_7 C102_7 1_555 1_555
C100_7 C101_7 1_555 1_555
C103_7 C105_7 1_555 1_555
O38_4 C104_7 1_555 1_555
O39_7 Zn15 1_555 1_555
C107_7 N6_7 1_555 1_555
C116_7 C107_7 1_555 1_555
H61_7 C116_7 1_555 1_555
C117_7 C115_7 1_555 1_555
O44_7 C117_7 1_555 1_555
C119_7 C120_7 1_555 1_555
C120_7 H62_7 1_555 1_555
C121_7 N6_7 1_555 1_555
C122_7 C120_7 1_555 1_555
H63_7 C122_7 1_555 1_555
C123_7 C115_7 1_555 1_555
H64_7 C123_7 1_555 1_555
C124_7 C121_7 1_555 1_555
H65_7 C124_7 1_555 1_555
O45_4 Zn10_2 1_555 1_555
C125_7 C119_7 1_555 1_555
O46_7 C125_7 1_555 1_555
Zn19 O60_2 1_555 1_555
C126_7 C119_7 1_555 1_555
H66_7 C126_7 1_555 1_555
Co5_4 O44_7 1_555 1_555
O57_4 Zn10_2 1_555 1_555
Zn17 O60_2 1_555 1_555
C116_7 C123_7 1_555 1_555
C121_7 C122_7 1_555 1_555
C124_7 C126_7 1_555 1_555
O45_4 C125_7 1_555 1_555
O46_7 Zn19 1_555 1_555
C107_8 N6_8 1_555 1_555
C116_8 C107_8 1_555 1_555
H61_8 C116_8 1_555 1_555
C117_8 C115_8 1_555 1_555
O44_8 C117_8 1_555 1_555
C119_8 C120_8 1_555 1_555
C120_8 H62_8 1_555 1_555
C121_8 N6_8 1_555 1_555
C122_8 C120_8 1_555 1_555
H63_8 C122_8 1_555 1_555
C123_8 C115_8 1_555 1_555
H64_8 C123_8 1_555 1_555
C124_8 C121_8 1_555 1_555
H65_8 C124_8 1_555 1_555
C125_8 C119_8 1_555 1_555
O46_8 C125_8 1_555 1_555
C126_8 C119_8 1_555 1_555
H66_8 C126_8 1_555 1_555
Co6_4 O44_8 1_555 1_555
C116_8 C123_8 1_555 1_555
C121_8 C122_8 1_555 1_555
C124_8 C126_8 1_555 1_555
O58_4 C125_8 1_555 1_555
O46_8 Zn23 1_555 1_555
C85_8 H45_8 1_555 1_555
C87_8 H46_8 1_555 1_555
O33_8 C89_8 1_555 1_555
C88_8 C87_8 1_555 1_555
H47_8 C88_8 1_555 1_555
C90_8 C85_8 1_555 1_555
C91_8 C88_8 1_555 1_555
C92_8 C85_8 1_555 1_555
C93_8 C89_8 1_555 1_555
H48_8 C93_8 1_555 1_555
C97_8 C92_8 1_555 1_555
O51_4 C97_8 1_555 1_555
O64 C97_8 1_555 1_555
C87_8 C92_8 1_555 1_555
O33_8 C90_8 1_555 1_555
C90_8 C91_8 1_555 1_555
C86_8 N5_8 1_555 1_555
C95_8 C86_8 1_555 1_555
H49_8 C95_8 1_555 1_555
C96_8 C94_8 1_555 1_555
O56_4 C96_8 1_555 1_555
C98_8 C99_8 1_555 1_555
C99_8 H50_8 1_555 1_555
C100_8 N5_8 1_555 1_555
C101_8 C99_8 1_555 1_555
H51_8 C101_8 1_555 1_555
C102_8 C94_8 1_555 1_555
H52_8 C102_8 1_555 1_555
C103_8 C100_8 1_555 1_555
H53_8 C103_8 1_555 1_555
C104_8 C98_8 1_555 1_555
O39_8 C104_8 1_555 1_555
C105_8 C98_8 1_555 1_555
H54_8 C105_8 1_555 1_555
C95_8 C102_8 1_555 1_555
C100_8 C101_8 1_555 1_555
C103_8 C105_8 1_555 1_555
O57_4 C104_8 1_555 1_555
O39_8 Zn17 1_555 1_555
C106_8 H57_8 1_555 1_555
C108_8 H58_8 1_555 1_555
O41_8 C110_8 1_555 1_555
C109_8 C108_8 1_555 1_555
H59_8 C109_8 1_555 1_555
C111_8 C106_8 1_555 1_555
C112_8 C109_8 1_555 1_555
C113_8 C106_8 1_555 1_555
C114_8 C110_8 1_555 1_555
H60_8 C114_8 1_555 1_555
C118_8 C113_8 1_555 1_555
O55 C118_8 1_555 1_555
O66_2 C118_8 1_555 1_555
Co5_4 O42_8 1_555 1_555
C108_8 C113_8 1_555 1_555
O41_8 C111_8 1_555 1_555
C111_8 C112_8 1_555 1_555
O37_13 Co6_3 1_555 1_555
H55_7 O37_13 1_555 1_555
O37_14 Co6_4 1_555 1_555
H56_7 O37_14 1_555 1_555
O37_15 Co5_3 1_555 1_555
H55_8 O37_15 1_555 1_555
O37_16 Co5_4 1_555 1_555
H56_8 O37_16 1_555 1_555

#END
