
###############################################################################
#
# This file contains modified crystal structure data generated from the
# MOF subset of the Cambridge Structural Database (CSD) v543 
# hosted by the Cambridge Crystallographic Data Centre (CCDC).
#
# This work is licensed under the Creative Commons
# Attribution-NonCommercial-ShareAlike 4.0 International License.
# To view a copy of this license, visit
# http://creativecommons.org/licenses/by-nc-sa/4.0/
# or send a letter to
# Creative Commons, PO Box 1866, Mountain View, CA 94042, USA.
#
# CIF created using the CSD Python API on 29 September 2022
# The structure has been converted into the P1 space group
# The structure has a 3D framework
# The original CSD entry MAHDOR is in the monoclinic crystal system
# The framework has been calculated to contain at least 10.0% void space
# The void calculation uses a probe of radius 1.32A, grid spacing 0.4
# H atom positions have been added when not included in the experimental data
#
###############################################################################

data_MAHDOR
_chemical_formula_moiety         '(C266 H216 Cu32 I32 N72 O24)n'
_symmetry_cell_setting           triclinic
_symmetry_space_group_name_H-M   'P 1'
_symmetry_Int_Tables_number      1
_space_group_name_Hall           'P 1'
loop_
_symmetry_equiv_pos_site_id
_symmetry_equiv_pos_as_xyz
1 x,y,z
_cell_length_a                   19.4538(5)
_cell_length_b                   32.5779(7)
_cell_length_c                   22.6155(6)
_cell_angle_alpha                90
_cell_angle_beta                 103.876(2)
_cell_angle_gamma                90
_cell_volume                     13914.6
loop_
_atom_site_label
_atom_site_type_symbol
_atom_site_fract_x
_atom_site_fract_y
_atom_site_fract_z
C1 C 0.0266(6) 0.0516(3) 0.5196(5)
C2 C 0.0746(6) 0.0355(3) 0.4921(5)
H2 H 0.0733 0.0415 0.4516
C3 C 0.1275(6) 0.0090(3) 0.5272(4)
C4 C 0.1238(5) 0.0005(3) 0.5866(4)
C5 C 0.0703(5) 0.0185(3) 0.6094(4)
H4 H 0.0680 0.0123 0.6490
H5 H 0.3744 0.0020 0.6403
H7 H 0.4614 0.0133 0.7309
C22 C 0.6127(8) 0.0150(4) 0.5902(10)
C23 C 0.5668(8) 0.0410(4) 0.5516(9)
H19 H 0.5184 0.0359 0.5427
C24 C 0.5919(8) 0.0743(4) 0.5262(10)
H20 H 0.5616 0.0919 0.4997
C25 C 0.6640(8) 0.0806(4) 0.5417(9)
H21 H 0.6819 0.1027 0.5239
C26 C 0.6833(8) 0.0257(4) 0.6036(10)
H22 H 0.7145 0.0091 0.6312
C36 C 0.0831(7) 0.0140(4) 0.9799(6)
H29 H 0.0549 0.0315 0.9964
C37 C 0.0691(7) 0.0095(4) 0.9174(6)
C39 C 0.0105(7) 0.0273(4) 0.8736(6)
I6 I 0.02503(4) 0.11977(2) 0.69779(3)
N1 N 0.0227(4) 0.0438(2) 0.5770(3)
N7 N 0.7102(6) 0.0569(4) 0.5810(5)
N11 N 0.0045(4) 0.0353(3) 0.8180(4)
Cu12 Cu 0.81226(8) 0.07356(5) 0.61363(8)
H3 H 0.1629 0.9978 0.5109
C6 C 0.1749(5) 0.9742(3) 0.6265(4)
C7 C 0.2679(6) 0.9367(3) 0.6516(5)
C8 C 0.3293(6) 0.9141(3) 0.6419(5)
C9 C 0.3941(7) 0.9362(4) 0.6483(6)
C10 C 0.4519(7) 0.9148(4) 0.6359(6)
C11 C 0.4464(7) 0.8726(4) 0.6178(6)
C12 C 0.3825(6) 0.8538(3) 0.6125(6)
C13 C 0.3244(6) 0.8733(3) 0.6246(5)
C14 C 0.3974(7) 0.9809(4) 0.6651(6)
C15 C 0.4422(8) 0.9860(4) 0.7264(7)
H6 H 0.4146 0.9816 0.7557
H8 H 0.4802 0.9664 0.7329
C16 C 0.2559(6) 0.8487(3) 0.6205(5)
H9 H 0.2164 0.8676 0.6160
H10 H 0.2472 0.8315 0.5844
C17 C 0.2590(6) 0.8224(3) 0.6749(5)
H11 H 0.2969 0.8029 0.6788
H12 H 0.2150 0.8080 0.6704
H13 H 0.2672 0.8393 0.7107
C18 C 0.5089(7) 0.8507(4) 0.6012(6)
H14 H 0.5403 0.8707 0.5896
H15 H 0.4919 0.8324 0.5671
C19 C 0.5491(8) 0.8261(4) 0.6574(7)
H16 H 0.5693 0.8447 0.6898
H17 H 0.5861 0.8104 0.6468
H18 H 0.5168 0.8080 0.6704
C20 C 0.5169(7) 0.9355(4) 0.6370(6)
C21 C 0.5886(8) 0.9798(4) 0.6162(10)
C27 C 0.3744(6) 0.8122(3) 0.5859(6)
C28 C 0.3478(6) 0.7696(3) 0.5124(5)
C29 C 0.3222(6) 0.7539(3) 0.4496(5)
C30 C 0.2973(6) 0.7812(4) 0.4016(5)
H23 H 0.2957 0.8094 0.4080
C31 C 0.2750(7) 0.7643(4) 0.3438(5)
H24 H 0.2591 0.7812 0.3102
C32 C 0.2763(7) 0.7211(4) 0.3360(5)
H25 H 0.2595 0.7097 0.2975
C33 C 0.3239(6) 0.7130(3) 0.4387(5)
H26 H 0.3414 0.6956 0.4715
C34 C 0.1816(8) 0.9689(5) 0.9903(6)
C38 C 0.1174(7) 0.9839(4) 0.8947(6)
H30 H 0.1091 0.9810 0.8526
Cu1 Cu 0.27826(8) 0.92273(5) 0.78633(6)
Cu2 Cu 0.24100(8) 0.93385(5) 0.89086(7)
Cu3 Cu 0.37437(8) 0.93349(5) 0.89031(7)
Cu4 Cu 0.30147(9) 0.86490(5) 0.87068(7)
I1 I 0.39780(4) 0.87973(2) 0.80645(3)
I2 I 0.29543(4) 0.997326(19) 0.84088(3)
I3 I 0.16788(4) 0.88105(2) 0.81029(3)
I4 I 0.33424(3) 0.897660(18) 0.98238(3)
N2 N 0.1818(5) 0.9648(3) 0.6830(4)
N3 N 0.2409(5) 0.9402(3) 0.6981(4)
N4 N 0.3020(5) 0.6968(3) 0.3843(4)
N5 N 0.3744(5) 0.7476(3) 0.5597(5)
N6 N 0.3931(6) 0.7761(4) 0.6090(5)
N8 N 0.6271(8) 0.9566(5) 0.6567(7)
N9 N 0.5806(7) 0.9280(4) 0.6736(9)
N10 N 0.1722(6) 0.9641(4) 0.9282(5)
O1 O 0.2285(3) 0.9574(2) 0.6034(3)
O2 O 0.5196(5) 0.9693(3) 0.6060(6)
O3 O 0.3455(5) 0.8101(2) 0.5242(4)
Cu10 Cu 0.30147(9) 0.63510(5) 0.37068(7)
N19 N 0.3020(5) 0.8032(3) 0.8843(4)
N21 N 0.4723(5) 0.9573(3) 0.9245(4)
H54 H 0.443455 0.984719 0.646154
C62 C 0.8633(6) 0.2422(4) 0.0540(5)
C63 C 0.8691(6) 0.2838(4) 0.0671(5)
H50 H 0.8548 0.3020 0.0348
C64 C 0.9121(7) 0.2723(4) 0.1692(6)
H51 H 0.9275 0.2823 0.2087
C65 C 0.9088(7) 0.2302(4) 0.1598(6)
H52 H 0.9243 0.2123 0.1922
C66 C 0.8822(7) 0.2155(4) 0.1017(5)
H53 H 0.8772 0.1873 0.0949
N16 N 0.8935(5) 0.2996(3) 0.1224(4)
Cu11 Cu 0.89460(8) 0.36064(4) 0.13692(7)
H1 H 0.9934 0.0696 0.4969
C40 C 0.9197(6) 0.0641(3) 0.8509(5)
C41 C 0.8562(6) 0.0866(3) 0.8585(5)
C42 C 0.8651(6) 0.1277(3) 0.8802(5)
C43 C 0.8051(6) 0.1489(3) 0.8851(5)
C44 C 0.7378(6) 0.1321(3) 0.8713(5)
C45 C 0.7301(6) 0.0904(3) 0.8510(5)
C46 C 0.7903(6) 0.0679(3) 0.8457(5)
C47 C 0.7838(6) 0.0232(3) 0.8254(5)
H31 H 0.8307 0.0120 0.8282
H32 H 0.7618 0.0075 0.8524
C48 C 0.7401(7) 0.0190(4) 0.7608(5)
H33 H 0.6947 0.0315 0.7574
H35 H 0.7640 0.0325 0.7336
C49 C 0.6748(6) 0.1584(3) 0.8743(5)
H36 H 0.6371 0.1411 0.8815
H37 H 0.6881 0.1774 0.9082
C50 C 0.6480(7) 0.1823(4) 0.8164(6)
H38 H 0.6847 0.2001 0.8097
H39 H 0.6078 0.1985 0.8197
H40 H 0.6343 0.1636 0.7828
C51 C 0.9360(6) 0.1475(3) 0.8935(5)
H41 H 0.9719 0.1262 0.9014
H42 H 0.9418 0.1637 0.9303
C52 C 0.9488(6) 0.1752(4) 0.8425(5)
H43 H 0.9422 0.1596 0.8055
H44 H 0.9963 0.1856 0.8536
H45 H 0.9159 0.1976 0.8364
C53 C 0.6619(6) 0.0703(3) 0.8442(5)
C54 C 0.5900(6) 0.0294(4) 0.8709(5)
C60 C 0.8128(6) 0.1900(3) 0.9136(5)
C61 C 0.8393(6) 0.2298(4) 0.9907(5)
Cu5 Cu 0.94759(8) 0.06919(5) 0.61357(6)
Cu6 Cu 0.91023(9) 0.07956(5) 0.71656(7)
Cu7 Cu 0.89460(8) 0.13936(4) 0.63692(7)
I5 I 0.85621(4) 0.107032(19) 0.52308(3)
I7 I 0.88392(4) 0.00664(2) 0.65669(3)
I8 I 0.79629(4) 0.12728(2) 0.70050(3)
N12 N 0.9450(4) 0.0603(3) 0.8031(4)
N14 N 0.5544(6) 0.0504(5) 0.8282(7)
N15 N 0.6012(7) 0.0781(4) 0.8104(6)
N17 N 0.8176(6) 0.2527(3) 0.9432(5)
N18 N 0.8026(7) 0.2257(3) 0.8926(5)
O4 O 0.9608(5) 0.0466(3) 0.8985(4)
O5 O 0.8362(4) 0.1894(2) 0.9774(3)
O6 O 0.6592(4) 0.0416(2) 0.8881(3)
N22 N 0.8935(5) 0.2004(3) 0.6224(4)
H34 H 0.7340 0.9905 0.7503
C55 C 0.5664(6) 0.9996(4) 0.9097(5)
C56 C 0.6084(6) 0.9869(4) 0.9650(5)
H46 H 0.6537 0.9977 0.9789
C57 C 0.5829(6) 0.9578(4) 1.0000(5)
C58 C 0.5136(6) 0.9448(4) 0.9777(5)
C59 C 0.4970(6) 0.9842(3) 0.8920(5)
H49 H 0.4675 0.9935 0.8559
C1_2 C 0.0266(6) 0.4484(3) 0.0196(5)
C3_2 C 0.1275(6) 0.4910(3) 0.0272(4)
H3_2 H 0.1629 0.5022 0.0109
C4_2 C 0.1238(5) 0.4995(3) 0.0866(4)
C5_2 C 0.0703(5) 0.4815(3) 0.1094(4)
H4_2 H 0.0680 0.4877 0.1490
C6_2 C 0.1749(5) 0.5258(3) 0.1265(4)
C7_2 C 0.2679(6) 0.5633(3) 0.1516(5)
C8_2 C 0.3293(6) 0.5859(3) 0.1419(5)
C9_2 C 0.3941(7) 0.5638(4) 0.1483(6)
C10_2 C 0.4519(7) 0.5852(4) 0.1359(6)
C11_2 C 0.4464(7) 0.6274(4) 0.1178(6)
C12_2 C 0.3825(6) 0.6462(3) 0.1125(6)
C13_2 C 0.3244(6) 0.6267(3) 0.1246(5)
C14_2 C 0.3974(7) 0.5191(4) 0.1651(6)
H5_2 H 0.3744 0.4980 0.1403
C15_2 C 0.4422(8) 0.5140(4) 0.2264(7)
H6_2 H 0.4146 0.5184 0.2557
H7_2 H 0.4614 0.4867 0.2309
H8_2 H 0.4802 0.5336 0.2329
C16_2 C 0.2559(6) 0.6513(3) 0.1205(5)
H9_2 H 0.2164 0.6324 0.1160
H10_2 H 0.2472 0.6685 0.0844
C17_2 C 0.2590(6) 0.6776(3) 0.1749(5)
H11_2 H 0.2969 0.6971 0.1788
H12_2 H 0.2150 0.6920 0.1704
H13_2 H 0.2672 0.6607 0.2107
C18_2 C 0.5089(7) 0.6493(4) 0.1012(6)
H14_2 H 0.5403 0.6293 0.0896
H15_2 H 0.4919 0.6676 0.0671
C19_2 C 0.5491(8) 0.6739(4) 0.1574(7)
H16_2 H 0.5693 0.6553 0.1898
H17_2 H 0.5861 0.6896 0.1468
H18_2 H 0.5168 0.6920 0.1704
C20_2 C 0.5169(7) 0.5645(4) 0.1370(6)
C21_2 C 0.5886(8) 0.5202(4) 0.1162(10)
C22_2 C 0.6127(8) 0.4850(4) 0.0902(10)
C23_2 C 0.5668(8) 0.4590(4) 0.0516(9)
H19_2 H 0.5184 0.4641 0.0427
C24_2 C 0.5919(8) 0.4257(4) 0.0262(10)
C25_2 C 0.6640(8) 0.4194(4) 0.0417(9)
H21_2 H 0.6819 0.3973 0.0239
C26_2 C 0.6833(8) 0.4743(4) 0.1036(10)
H22_2 H 0.7145 0.4909 0.1312
C27_2 C 0.3744(6) 0.6878(3) 0.0859(6)
C28_2 C 0.3478(6) 0.7304(3) 0.0124(5)
C34_2 C 0.1816(8) 0.5311(5) 0.4903(6)
H27 H 0.2191 0.5447 0.5160
C35 C 0.1362(7) 0.5060(4) 0.5172(6)
H28 H 0.1435 0.5038 0.5593
C36_2 C 0.0831(7) 0.4860(4) 0.4799(6)
H29_2 H 0.0549 0.4685 0.4964
C37_2 C 0.0691(7) 0.4905(4) 0.4174(6)
C38_2 C 0.1174(7) 0.5161(4) 0.3947(6)
H30_2 H 0.1091 0.5190 0.3526
C39_2 C 0.0105(7) 0.4727(4) 0.3736(6)
Cu1_2 Cu 0.27826(8) 0.57727(5) 0.28633(6)
Cu2_2 Cu 0.24100(8) 0.56615(5) 0.39086(7)
Cu3_2 Cu 0.37437(8) 0.56651(5) 0.39031(7)
I1_2 I 0.39780(4) 0.62027(2) 0.30645(3)
I2_2 I 0.29543(4) 0.502674(19) 0.34088(3)
I3_2 I 0.16788(4) 0.61895(2) 0.31029(3)
I4_2 I 0.33424(3) 0.602340(18) 0.48238(3)
I6_2 I 0.02503(4) 0.38023(2) 0.19779(3)
N1_2 N 0.0227(4) 0.4562(2) 0.0770(3)
N2_2 N 0.1818(5) 0.5352(3) 0.1830(4)
N3_2 N 0.2409(5) 0.5598(3) 0.1981(4)
N5_2 N 0.3744(5) 0.7524(3) 0.0597(5)
N6_2 N 0.3931(6) 0.7239(4) 0.1090(5)
N7_2 N 0.7102(6) 0.4431(4) 0.0810(5)
N8_2 N 0.6271(8) 0.5434(5) 0.1567(7)
N9_2 N 0.5806(7) 0.5720(4) 0.1736(9)
N10_2 N 0.1722(6) 0.5359(4) 0.4282(5)
N11_2 N 0.0045(4) 0.4647(3) 0.3180(4)
O1_2 O 0.2285(3) 0.5426(2) 0.1034(3)
O2_2 O 0.5196(5) 0.5307(3) 0.1060(6)
O3_2 O 0.3455(5) 0.6899(2) 0.0242(4)
Cu12_2 Cu 0.81226(8) 0.42644(5) 0.11363(8)
N21_2 N 0.4723(5) 0.5427(3) 0.4245(4)
H54_2 H 0.443455 0.515281 0.146154
C2_2 C 0.0746(6) 0.4645(3) 0.9921(5)
H2_2 H 0.0733 0.4585 0.9516
H20_2 H 0.5616 0.4081 0.9997
C29_2 C 0.3222(6) 0.7461(3) 0.9496(5)
C30_2 C 0.2973(6) 0.7188(4) 0.9016(5)
H23_2 H 0.2957 0.6906 0.9080
C31_2 C 0.2750(7) 0.7357(4) 0.8438(5)
H24_2 H 0.2591 0.7188 0.8102
C32_2 C 0.2763(7) 0.7789(4) 0.8360(5)
H25_2 H 0.2595 0.7903 0.7975
C33_2 C 0.3239(6) 0.7870(3) 0.9387(5)
H26_2 H 0.3414 0.8044 0.9715
C40_2 C 0.9197(6) 0.4359(3) 0.3509(5)
C41_2 C 0.8562(6) 0.4134(3) 0.3585(5)
C42_2 C 0.8651(6) 0.3723(3) 0.3802(5)
C43_2 C 0.8051(6) 0.3511(3) 0.3851(5)
C44_2 C 0.7378(6) 0.3679(3) 0.3713(5)
C45_2 C 0.7301(6) 0.4096(3) 0.3510(5)
C46_2 C 0.7903(6) 0.4321(3) 0.3457(5)
C47_2 C 0.7838(6) 0.4768(3) 0.3254(5)
H31_2 H 0.8307 0.4880 0.3282
H32_2 H 0.7618 0.4925 0.3524
C48_2 C 0.7401(7) 0.4810(4) 0.2608(5)
H33_2 H 0.6947 0.4685 0.2574
H34_2 H 0.7340 0.5095 0.2503
H35_2 H 0.7640 0.4675 0.2336
C49_2 C 0.6748(6) 0.3416(3) 0.3743(5)
H36_2 H 0.6371 0.3589 0.3815
H37_2 H 0.6881 0.3226 0.4082
C50_2 C 0.6480(7) 0.3177(4) 0.3164(6)
H38_2 H 0.6847 0.2999 0.3097
H39_2 H 0.6078 0.3015 0.3197
H40_2 H 0.6343 0.3364 0.2828
C51_2 C 0.9360(6) 0.3525(3) 0.3935(5)
H41_2 H 0.9719 0.3738 0.4014
H42_2 H 0.9418 0.3363 0.4303
C52_2 C 0.9488(6) 0.3248(4) 0.3425(5)
H43_2 H 0.9422 0.3404 0.3055
H44_2 H 0.9963 0.3144 0.3536
H45_2 H 0.9159 0.3024 0.3364
C53_2 C 0.6619(6) 0.4297(3) 0.3442(5)
C54_2 C 0.5900(6) 0.4706(4) 0.3709(5)
C55_2 C 0.5664(6) 0.5004(4) 0.4097(5)
C56_2 C 0.6084(6) 0.5131(4) 0.4650(5)
H46_2 H 0.6537 0.5023 0.4789
C57_2 C 0.5829(6) 0.5422(4) 0.5000(5)
H47 H 0.6110 0.5523 0.5363
C58_2 C 0.5136(6) 0.5552(4) 0.4777(5)
H48 H 0.4947 0.5736 0.5009
C59_2 C 0.4970(6) 0.5158(3) 0.3920(5)
H49_2 H 0.4675 0.5065 0.3559
C60_2 C 0.8128(6) 0.3100(3) 0.4136(5)
C61_2 C 0.8393(6) 0.2702(4) 0.4907(5)
C62_2 C 0.8633(6) 0.2578(4) 0.5540(5)
C63_2 C 0.8691(6) 0.2162(4) 0.5671(5)
H50_2 H 0.8548 0.1980 0.5348
C64_2 C 0.9121(7) 0.2277(4) 0.6692(6)
H51_2 H 0.9275 0.2177 0.7087
C65_2 C 0.9088(7) 0.2698(4) 0.6598(6)
H52_2 H 0.9243 0.2877 0.6922
C66_2 C 0.8822(7) 0.2845(4) 0.6017(5)
H53_2 H 0.8772 0.3127 0.5949
Cu5_2 Cu 0.94759(8) 0.43081(5) 0.11357(6)
Cu6_2 Cu 0.91023(9) 0.42044(5) 0.21656(7)
I5_2 I 0.85621(4) 0.392968(19) 0.02308(3)
I7_2 I 0.88392(4) 0.49336(2) 0.15669(3)
I8_2 I 0.79629(4) 0.37272(2) 0.20050(3)
N12_2 N 0.9450(4) 0.4397(3) 0.3031(4)
N14_2 N 0.5544(6) 0.4496(5) 0.3282(7)
N15_2 N 0.6012(7) 0.4219(4) 0.3104(6)
N17_2 N 0.8176(6) 0.2473(3) 0.4432(5)
N18_2 N 0.8026(7) 0.2743(3) 0.3926(5)
O4_2 O 0.9608(5) 0.4534(3) 0.3985(4)
O5_2 O 0.8362(4) 0.3106(2) 0.4774(3)
O6_2 O 0.6592(4) 0.4584(2) 0.3881(3)
H27_2 H 0.2191 0.9553 0.0160
C35_2 C 0.1362(7) 0.9940(4) 0.0172(6)
H28_2 H 0.1435 0.9962 0.0593
C57_3 C 0.5829(6) 0.9578(4) 0.0000(5)
H47_2 H 0.6110 0.9477 0.0363
H48_2 H 0.4947 0.9264 0.0009
H1_2 H 0.0066 0.5696 0.0031
C40_3 C 0.0803(6) 0.5641(3) 0.6491(5)
C41_3 C 0.1438(6) 0.5866(3) 0.6415(5)
C42_3 C 0.1349(6) 0.6277(3) 0.6198(5)
C43_3 C 0.1949(6) 0.6489(3) 0.6149(5)
C44_3 C 0.2622(6) 0.6321(3) 0.6287(5)
C45_3 C 0.2699(6) 0.5904(3) 0.6490(5)
C46_3 C 0.2097(6) 0.5679(3) 0.6543(5)
C47_3 C 0.2162(6) 0.5232(3) 0.6746(5)
H31_3 H 0.1693 0.5120 0.6718
H32_3 H 0.2382 0.5075 0.6476
C48_3 C 0.2599(7) 0.5190(4) 0.7392(5)
H33_3 H 0.3053 0.5315 0.7426
H34_3 H 0.2660 0.4905 0.7497
H35_3 H 0.2360 0.5325 0.7664
C49_3 C 0.3252(6) 0.6584(3) 0.6257(5)
H36_3 H 0.3629 0.6411 0.6185
H37_3 H 0.3119 0.6774 0.5918
C50_3 C 0.3520(7) 0.6823(4) 0.6836(6)
H38_3 H 0.3153 0.7001 0.6903
H39_3 H 0.3922 0.6985 0.6803
H40_3 H 0.3657 0.6636 0.7172
C51_3 C 0.0640(6) 0.6475(3) 0.6065(5)
H41_3 H 0.0281 0.6262 0.5986
H42_3 H 0.0582 0.6637 0.5697
C52_3 C 0.0512(6) 0.6752(4) 0.6575(5)
H43_3 H 0.0578 0.6596 0.6945
H44_3 H 0.0037 0.6856 0.6464
H45_3 H 0.0841 0.6976 0.6636
C53_3 C 0.3381(6) 0.5703(3) 0.6558(5)
C54_3 C 0.4100(6) 0.5294(4) 0.6291(5)
C55_3 C 0.4336(6) 0.4996(4) 0.5903(5)
C56_3 C 0.3916(6) 0.4869(4) 0.5350(5)
H46_3 H 0.3463 0.4977 0.5211
C57_4 C 0.4171(6) 0.4578(4) 0.5000(5)
H47_3 H 0.3890 0.4477 0.4637
C58_3 C 0.4864(6) 0.4448(4) 0.5223(5)
H48_3 H 0.5053 0.4264 0.4991
C59_3 C 0.5030(6) 0.4842(3) 0.6080(5)
H49_3 H 0.5325 0.4935 0.6441
C60_3 C 0.1872(6) 0.6900(3) 0.5864(5)
C61_3 C 0.1607(6) 0.7298(4) 0.5093(5)
C62_3 C 0.1367(6) 0.7422(4) 0.4460(5)
C63_3 C 0.1309(6) 0.7838(4) 0.4329(5)
H50_3 H 0.1452 0.8020 0.4652
C64_3 C 0.0879(7) 0.7723(4) 0.3308(6)
H51_3 H 0.0725 0.7823 0.2913
C65_3 C 0.0912(7) 0.7302(4) 0.3402(6)
H52_3 H 0.0757 0.7123 0.3078
C66_3 C 0.1178(7) 0.7155(4) 0.3983(5)
H53_3 H 0.1228 0.6873 0.4051
Cu5_3 Cu 0.05241(8) 0.56919(5) 0.88643(6)
Cu6_3 Cu 0.08977(9) 0.57956(5) 0.78344(7)
Cu7_2 Cu 0.10540(8) 0.63936(4) 0.86308(7)
Cu8 Cu 0.18774(8) 0.57356(5) 0.88637(8)
I5_3 I 0.14379(4) 0.607032(19) 0.97692(3)
I7_3 I 0.11608(4) 0.50664(2) 0.84331(3)
I8_3 I 0.20371(4) 0.62728(2) 0.79950(3)
N12_3 N 0.0550(4) 0.5603(3) 0.6969(4)
N13 N 0.5277(5) 0.4573(3) 0.5755(4)
N14_3 N 0.4456(6) 0.5504(5) 0.6718(7)
N15_3 N 0.3988(7) 0.5781(4) 0.6896(6)
N16_2 N 0.1065(5) 0.7996(3) 0.3776(4)
N17_3 N 0.1824(6) 0.7527(3) 0.5568(5)
N18_3 N 0.1974(7) 0.7257(3) 0.6074(5)
O4_3 O 0.0392(5) 0.5466(3) 0.6015(4)
O5_3 O 0.1638(4) 0.6894(2) 0.5226(3)
O6_3 O 0.3408(4) 0.5416(2) 0.6119(3)
Cu9 Cu 0.62563(8) 0.43349(5) 0.60969(7)
Cu11_2 Cu 0.10540(8) 0.86064(4) 0.36308(7)
N20 N 0.2898(6) 0.5569(4) 0.9190(5)
N22_2 N 0.1065(5) 0.7004(3) 0.8776(4)
C2_3 C 0.9254(6) 0.5355(3) 0.0079(5)
H2_3 H 0.9267 0.5415 0.0484
H20_3 H 0.4384 0.5919 0.0003
C29_3 C 0.6778(6) 0.2539(3) 0.0504(5)
C30_3 C 0.7027(6) 0.2812(4) 0.0984(5)
H23_3 H 0.7043 0.3094 0.0920
C31_3 C 0.7250(7) 0.2643(4) 0.1562(5)
H24_3 H 0.7409 0.2812 0.1898
C32_3 C 0.7237(7) 0.2211(4) 0.1640(5)
H25_3 H 0.7405 0.2097 0.2025
C33_3 C 0.6761(6) 0.2130(3) 0.0613(5)
H26_3 H 0.6586 0.1956 0.0285
N4_2 N 0.6980(5) 0.1968(3) 0.1157(4)
Cu10_2 Cu 0.69853(9) 0.13510(5) 0.12932(7)
C1_3 C 0.9734(6) 0.5516(3) 0.9804(5)
C3_3 C 0.8725(6) 0.5090(3) 0.9728(4)
H3_3 H 0.8371 0.4978 0.9891
C4_3 C 0.8762(5) 0.5005(3) 0.9134(4)
C5_3 C 0.9297(5) 0.5185(3) 0.8906(4)
H4_3 H 0.9320 0.5123 0.8510
C6_3 C 0.8251(5) 0.4742(3) 0.8735(4)
C7_3 C 0.7321(6) 0.4367(3) 0.8484(5)
C8_3 C 0.6707(6) 0.4141(3) 0.8581(5)
C9_3 C 0.6059(7) 0.4362(4) 0.8517(6)
C10_3 C 0.5481(7) 0.4148(4) 0.8641(6)
C11_3 C 0.5536(7) 0.3726(4) 0.8822(6)
C12_3 C 0.6175(6) 0.3538(3) 0.8875(6)
C13_3 C 0.6756(6) 0.3733(3) 0.8754(5)
C14_3 C 0.6026(7) 0.4809(4) 0.8349(6)
H5_3 H 0.6256 0.5020 0.8597
C15_3 C 0.5578(8) 0.4860(4) 0.7736(7)
H6_3 H 0.5854 0.4816 0.7443
H7_3 H 0.5386 0.5133 0.7691
H8_3 H 0.5198 0.4664 0.7671
C16_3 C 0.7441(6) 0.3487(3) 0.8795(5)
H9_3 H 0.7836 0.3676 0.8840
H10_3 H 0.7528 0.3315 0.9156
C17_3 C 0.7410(6) 0.3224(3) 0.8251(5)
H11_3 H 0.7031 0.3029 0.8212
H12_3 H 0.7850 0.3080 0.8296
H13_3 H 0.7328 0.3393 0.7893
C18_3 C 0.4911(7) 0.3507(4) 0.8988(6)
H14_3 H 0.4597 0.3707 0.9104
H15_3 H 0.5081 0.3324 0.9329
C19_3 C 0.4509(8) 0.3261(4) 0.8426(7)
H16_3 H 0.4307 0.3447 0.8102
H17_3 H 0.4139 0.3104 0.8532
H18_3 H 0.4832 0.3080 0.8296
C20_3 C 0.4831(7) 0.4355(4) 0.8630(6)
C21_3 C 0.4114(8) 0.4798(4) 0.8838(10)
C22_3 C 0.3873(8) 0.5150(4) 0.9098(10)
C23_3 C 0.4332(8) 0.5410(4) 0.9484(9)
H19_3 H 0.4816 0.5359 0.9573
C24_3 C 0.4081(8) 0.5743(4) 0.9738(10)
C25_3 C 0.3360(8) 0.5806(4) 0.9583(9)
H21_3 H 0.3181 0.6027 0.9761
C26_3 C 0.3167(8) 0.5257(4) 0.8964(10)
H22_3 H 0.2855 0.5091 0.8688
C27_3 C 0.6256(6) 0.3122(3) 0.9141(6)
C28_3 C 0.6522(6) 0.2696(3) 0.9876(5)
C34_3 C 0.8184(8) 0.4689(5) 0.5097(6)
H27_3 H 0.7809 0.4553 0.4840
C35_3 C 0.8638(7) 0.4940(4) 0.4828(6)
H28_3 H 0.8565 0.4962 0.4407
C36_3 C 0.9169(7) 0.5140(4) 0.5201(6)
H29_3 H 0.9451 0.5315 0.5036
C37_3 C 0.9309(7) 0.5095(4) 0.5826(6)
C38_3 C 0.8826(7) 0.4839(4) 0.6053(6)
H30_3 H 0.8909 0.4810 0.6474
C39_3 C 0.9895(7) 0.5273(4) 0.6264(6)
Cu1_3 Cu 0.72174(8) 0.42273(5) 0.71367(6)
Cu2_3 Cu 0.75900(8) 0.43385(5) 0.60914(7)
Cu4_2 Cu 0.69853(9) 0.36490(5) 0.62932(7)
I1_3 I 0.60220(4) 0.37973(2) 0.69355(3)
I2_3 I 0.70457(4) 0.497326(19) 0.65912(3)
I3_3 I 0.83212(4) 0.38105(2) 0.68971(3)
I4_3 I 0.66576(3) 0.397660(18) 0.51762(3)
I6_3 I 0.97497(4) 0.61977(2) 0.80221(3)
N1_3 N 0.9773(4) 0.5438(2) 0.9230(3)
N2_3 N 0.8182(5) 0.4648(3) 0.8170(4)
N3_3 N 0.7591(5) 0.4402(3) 0.8019(4)
N5_3 N 0.6256(5) 0.2476(3) 0.9403(5)
N6_3 N 0.6069(6) 0.2761(4) 0.8910(5)
N8_3 N 0.3729(8) 0.4566(5) 0.8433(7)
N9_3 N 0.4194(7) 0.4280(4) 0.8264(9)
N10_3 N 0.8278(6) 0.4641(4) 0.5718(5)
N11_3 N 0.9955(4) 0.5353(3) 0.6820(4)
O1_3 O 0.7715(3) 0.4574(2) 0.8966(3)
O2_3 O 0.4804(5) 0.4693(3) 0.8940(6)
O3_3 O 0.6545(5) 0.3101(2) 0.9758(4)
N19_2 N 0.6980(5) 0.3032(3) 0.6157(4)
H54_3 H 0.556545 0.484719 0.853846
H34_4 H 0.2660 0.0095 0.2497
C55_4 C 0.4336(6) 0.0004(4) 0.0903(5)
C56_4 C 0.3916(6) 0.0131(4) 0.0350(5)
H46_4 H 0.3463 0.0023 0.0211
C57_5 C 0.4171(6) 0.0422(4) 0.0000(5)
C58_4 C 0.4864(6) 0.0552(4) 0.0223(5)
C59_4 C 0.5030(6) 0.0158(3) 0.1080(5)
H49_4 H 0.5325 0.0065 0.1441
N13_2 N 0.5277(5) 0.0427(3) 0.0755(4)
Cu9_2 Cu 0.62563(8) 0.06651(5) 0.10969(7)
H1_3 H 0.0066 0.9304 0.5031
C40_4 C 0.0803(6) 0.9359(3) 0.1491(5)
C41_4 C 0.1438(6) 0.9134(3) 0.1415(5)
C42_4 C 0.1349(6) 0.8723(3) 0.1198(5)
C43_4 C 0.1949(6) 0.8511(3) 0.1149(5)
C44_4 C 0.2622(6) 0.8679(3) 0.1287(5)
C45_4 C 0.2699(6) 0.9096(3) 0.1490(5)
C46_4 C 0.2097(6) 0.9321(3) 0.1543(5)
C47_4 C 0.2162(6) 0.9768(3) 0.1746(5)
H31_4 H 0.1693 0.9880 0.1718
H32_4 H 0.2382 0.9925 0.1476
C48_4 C 0.2599(7) 0.9810(4) 0.2392(5)
H33_4 H 0.3053 0.9685 0.2426
H35_4 H 0.2360 0.9675 0.2664
C49_4 C 0.3252(6) 0.8416(3) 0.1257(5)
H36_4 H 0.3629 0.8589 0.1185
H37_4 H 0.3119 0.8226 0.0918
C50_4 C 0.3520(7) 0.8177(4) 0.1836(6)
H38_4 H 0.3153 0.7999 0.1903
H39_4 H 0.3922 0.8015 0.1803
H40_4 H 0.3657 0.8364 0.2172
C51_4 C 0.0640(6) 0.8525(3) 0.1065(5)
H41_4 H 0.0281 0.8738 0.0986
H42_4 H 0.0582 0.8363 0.0697
C52_4 C 0.0512(6) 0.8248(4) 0.1575(5)
H43_4 H 0.0578 0.8404 0.1945
H44_4 H 0.0037 0.8144 0.1464
H45_4 H 0.0841 0.8024 0.1636
C53_4 C 0.3381(6) 0.9297(3) 0.1558(5)
C54_4 C 0.4100(6) 0.9706(4) 0.1291(5)
C60_4 C 0.1872(6) 0.8100(3) 0.0864(5)
C61_4 C 0.1607(6) 0.7702(4) 0.0093(5)
Cu5_4 Cu 0.05241(8) 0.93081(5) 0.38643(6)
Cu6_4 Cu 0.08977(9) 0.92044(5) 0.28344(7)
Cu8_2 Cu 0.18774(8) 0.92644(5) 0.38637(8)
I5_4 I 0.14379(4) 0.892968(19) 0.47692(3)
I7_4 I 0.11608(4) 0.99336(2) 0.34331(3)
I8_4 I 0.20371(4) 0.87272(2) 0.29950(3)
N12_4 N 0.0550(4) 0.9397(3) 0.1969(4)
N14_4 N 0.4456(6) 0.9496(5) 0.1718(7)
N15_4 N 0.3988(7) 0.9219(4) 0.1896(6)
N17_4 N 0.1824(6) 0.7473(3) 0.0568(5)
N18_4 N 0.1974(7) 0.7743(3) 0.1074(5)
O4_4 O 0.0392(5) 0.9534(3) 0.1015(4)
O5_4 O 0.1638(4) 0.8106(2) 0.0226(3)
O6_4 O 0.3408(4) 0.9584(2) 0.1119(3)
N20_2 N 0.2898(6) 0.9431(4) 0.4190(5)
C62_4 C 0.1367(6) 0.7578(4) 0.9460(5)
C63_4 C 0.1309(6) 0.7162(4) 0.9329(5)
H50_4 H 0.1452 0.6980 0.9652
C64_4 C 0.0879(7) 0.7277(4) 0.8308(6)
H51_4 H 0.0725 0.7177 0.7913
C65_4 C 0.0912(7) 0.7698(4) 0.8402(6)
H52_4 H 0.0757 0.7877 0.8078
C66_4 C 0.1178(7) 0.7845(4) 0.8983(5)
H53_4 H 0.1228 0.8127 0.9051
H3_4 H 0.8371 0.0022 0.4891
C6_4 C 0.8251(5) 0.0258(3) 0.3735(4)
C7_4 C 0.7321(6) 0.0633(3) 0.3484(5)
C8_4 C 0.6707(6) 0.0859(3) 0.3581(5)
C9_4 C 0.6059(7) 0.0638(4) 0.3517(6)
C10_4 C 0.5481(7) 0.0852(4) 0.3641(6)
C11_4 C 0.5536(7) 0.1274(4) 0.3822(6)
C12_4 C 0.6175(6) 0.1462(3) 0.3875(6)
C13_4 C 0.6756(6) 0.1267(3) 0.3754(5)
C14_4 C 0.6026(7) 0.0191(4) 0.3349(6)
C15_4 C 0.5578(8) 0.0140(4) 0.2736(7)
H6_4 H 0.5854 0.0184 0.2443
H8_4 H 0.5198 0.0336 0.2671
C16_4 C 0.7441(6) 0.1513(3) 0.3795(5)
H9_4 H 0.7836 0.1324 0.3840
H10_4 H 0.7528 0.1685 0.4156
C17_4 C 0.7410(6) 0.1776(3) 0.3251(5)
H11_4 H 0.7031 0.1971 0.3212
H12_4 H 0.7850 0.1920 0.3296
H13_4 H 0.7328 0.1607 0.2893
C18_4 C 0.4911(7) 0.1493(4) 0.3988(6)
H14_4 H 0.4597 0.1293 0.4104
H15_4 H 0.5081 0.1676 0.4329
C19_4 C 0.4509(8) 0.1739(4) 0.3426(7)
H16_4 H 0.4307 0.1553 0.3102
H17_4 H 0.4139 0.1896 0.3532
H18_4 H 0.4832 0.1920 0.3296
C20_4 C 0.4831(7) 0.0645(4) 0.3630(6)
C21_4 C 0.4114(8) 0.0202(4) 0.3838(10)
C27_4 C 0.6256(6) 0.1878(3) 0.4141(6)
C28_4 C 0.6522(6) 0.2304(3) 0.4876(5)
C29_4 C 0.6778(6) 0.2461(3) 0.5504(5)
C30_4 C 0.7027(6) 0.2188(4) 0.5984(5)
H23_4 H 0.7043 0.1906 0.5920
C31_4 C 0.7250(7) 0.2357(4) 0.6562(5)
H24_4 H 0.7409 0.2188 0.6898
C32_4 C 0.7237(7) 0.2789(4) 0.6640(5)
H25_4 H 0.7405 0.2903 0.7025
C33_4 C 0.6761(6) 0.2870(3) 0.5613(5)
H26_4 H 0.6586 0.3044 0.5285
C34_4 C 0.8184(8) 0.0311(5) 0.0097(6)
C38_4 C 0.8826(7) 0.0161(4) 0.1053(6)
H30_4 H 0.8909 0.0190 0.1474
Cu1_4 Cu 0.72174(8) 0.07727(5) 0.21367(6)
Cu2_4 Cu 0.75900(8) 0.06615(5) 0.10914(7)
I1_4 I 0.60220(4) 0.12027(2) 0.19355(3)
I2_4 I 0.70457(4) 0.002674(19) 0.15912(3)
I3_4 I 0.83212(4) 0.11895(2) 0.18971(3)
I4_4 I 0.66576(3) 0.102340(18) 0.01762(3)
N2_4 N 0.8182(5) 0.0352(3) 0.3170(4)
N3_4 N 0.7591(5) 0.0598(3) 0.3019(4)
N5_4 N 0.6256(5) 0.2524(3) 0.4403(5)
N6_4 N 0.6069(6) 0.2239(4) 0.3910(5)
N8_4 N 0.3729(8) 0.0434(5) 0.3433(7)
N9_4 N 0.4194(7) 0.0720(4) 0.3264(9)
N10_4 N 0.8278(6) 0.0359(4) 0.0718(5)
O1_4 O 0.7715(3) 0.0426(2) 0.3966(3)
O2_4 O 0.4804(5) 0.0307(3) 0.3940(6)
O3_4 O 0.6545(5) 0.1899(2) 0.4758(4)
H54_4 H 0.556545 0.0152815 0.353846
C1_4 C 0.9734(6) 0.9484(3) 0.4804(5)
C2_4 C 0.9254(6) 0.9645(3) 0.5079(5)
H2_4 H 0.9267 0.9585 0.5484
C3_4 C 0.8725(6) 0.9910(3) 0.4728(4)
C4_4 C 0.8762(5) 0.9995(3) 0.4134(4)
C5_4 C 0.9297(5) 0.9815(3) 0.3906(4)
H4_4 H 0.9320 0.9877 0.3510
H5_4 H 0.6256 0.9980 0.3597
H7_4 H 0.5386 0.9867 0.2691
C22_4 C 0.3873(8) 0.9850(4) 0.4098(10)
C23_4 C 0.4332(8) 0.9590(4) 0.4484(9)
H19_4 H 0.4816 0.9641 0.4573
C24_4 C 0.4081(8) 0.9257(4) 0.4738(10)
H20_4 H 0.4384 0.9081 0.5003
C25_4 C 0.3360(8) 0.9194(4) 0.4583(9)
H21_4 H 0.3181 0.8973 0.4761
C26_4 C 0.3167(8) 0.9743(4) 0.3964(10)
H22_4 H 0.2855 0.9909 0.3688
C36_4 C 0.9169(7) 0.9860(4) 0.0201(6)
H29_4 H 0.9451 0.9685 0.0036
C37_4 C 0.9309(7) 0.9905(4) 0.0826(6)
C39_4 C 0.9895(7) 0.9727(4) 0.1264(6)
I6_4 I 0.97497(4) 0.88023(2) 0.30221(3)
N1_4 N 0.9773(4) 0.9562(2) 0.4230(3)
N11_4 N 0.9955(4) 0.9647(3) 0.1820(4)
C57_6 C 0.4171(6) 0.0422(4) 1.0000(5)
H47_4 H 0.3890 0.0523 0.9637
H48_4 H 0.5053 0.0736 0.9991
H27_4 H 0.7809 0.0447 0.9840
C35_4 C 0.8638(7) 0.0060(4) 0.9828(6)
H28_4 H 0.8565 0.0038 0.9407
H1_4 H 0.9934 0.4304 0.9969
loop_
_geom_bond_atom_site_label_1
_geom_bond_atom_site_label_2
_geom_bond_site_symmetry_1
_geom_bond_site_symmetry_2
C2 C1 1_555 1_555
H2 C2 1_555 1_555
C3 C2 1_555 1_555
C4 C3 1_555 1_555
C5 C4 1_555 1_555
H4 C5 1_555 1_555
C22 C23 1_555 1_555
C23 H19 1_555 1_555
C24 C23 1_555 1_555
H20 C24 1_555 1_555
C25 C24 1_555 1_555
H21 C25 1_555 1_555
C26 C22 1_555 1_555
H22 C26 1_555 1_555
H29 C36 1_555 1_555
C37 C36 1_555 1_555
C39 C37 1_555 1_555
N1 C1 1_555 1_555
N7 C25 1_555 1_555
N11 C39 1_555 1_555
Cu12 N7 1_555 1_555
C5 N1 1_555 1_555
C26 N7 1_555 1_555
C7 C8 1_555 1_555
C8 C9 1_555 1_555
C9 C10 1_555 1_555
C10 C11 1_555 1_555
C11 C12 1_555 1_555
C12 C13 1_555 1_555
C13 C8 1_555 1_555
C14 C9 1_555 1_555
C15 C14 1_555 1_555
H6 C15 1_555 1_555
H8 C15 1_555 1_555
C16 C13 1_555 1_555
H9 C16 1_555 1_555
H10 C16 1_555 1_555
C17 C16 1_555 1_555
H11 C17 1_555 1_555
H12 C17 1_555 1_555
H13 C17 1_555 1_555
C18 C11 1_555 1_555
H14 C18 1_555 1_555
H15 C18 1_555 1_555
C19 C18 1_555 1_555
H16 C19 1_555 1_555
H17 C19 1_555 1_555
H18 C19 1_555 1_555
C20 C10 1_555 1_555
C27 C12 1_555 1_555
C28 C29 1_555 1_555
C29 C30 1_555 1_555
C30 H23 1_555 1_555
C31 C30 1_555 1_555
H24 C31 1_555 1_555
C32 C31 1_555 1_555
H25 C32 1_555 1_555
C33 C29 1_555 1_555
H26 C33 1_555 1_555
H30 C38 1_555 1_555
Cu1 Cu2 1_555 1_555
Cu2 Cu3 1_555 1_555
Cu3 Cu1 1_555 1_555
Cu4 Cu1 1_555 1_555
I1 Cu1 1_555 1_555
I2 Cu1 1_555 1_555
I3 Cu1 1_555 1_555
I4 Cu2 1_555 1_555
N2 C6 1_555 1_555
N3 C7 1_555 1_555
N4 C32 1_555 1_555
N5 C28 1_555 1_555
N6 C27 1_555 1_555
N8 C21 1_555 1_555
N9 C20 1_555 1_555
N10 C34 1_555 1_555
O1 C6 1_555 1_555
O2 C20 1_555 1_555
O3 C27 1_555 1_555
Cu10 N4 1_555 1_555
N19 Cu4 1_555 1_555
N21 Cu3 1_555 1_555
C7 O1 1_555 1_555
C21 O2 1_555 1_555
C28 O3 1_555 1_555
C33 N4 1_555 1_555
C38 N10 1_555 1_555
Cu1 N3 1_555 1_555
Cu2 Cu4 1_555 1_555
Cu2 I2 1_555 1_555
Cu2 I3 1_555 1_555
Cu2 N10 1_555 1_555
Cu3 Cu4 1_555 1_555
Cu3 I1 1_555 1_555
Cu3 I2 1_555 1_555
Cu3 I4 1_555 1_555
Cu4 I1 1_555 1_555
Cu4 I3 1_555 1_555
Cu4 I4 1_555 1_555
N2 N3 1_555 1_555
N5 N6 1_555 1_555
N8 N9 1_555 1_555
C14 H54 1_555 1_555
C62 C63 1_555 1_555
C63 H50 1_555 1_555
C64 H51 1_555 1_555
C65 C64 1_555 1_555
H52 C65 1_555 1_555
C66 C62 1_555 1_555
H53 C66 1_555 1_555
N16 C63 1_555 1_555
Cu11 N16 1_555 1_555
C64 N16 1_555 1_555
C65 C66 1_555 1_555
C40 C41 1_555 1_555
C41 C42 1_555 1_555
C42 C43 1_555 1_555
C43 C44 1_555 1_555
C44 C45 1_555 1_555
C45 C46 1_555 1_555
C46 C41 1_555 1_555
C47 C46 1_555 1_555
H31 C47 1_555 1_555
H32 C47 1_555 1_555
C48 C47 1_555 1_555
H33 C48 1_555 1_555
H35 C48 1_555 1_555
C49 C44 1_555 1_555
H36 C49 1_555 1_555
H37 C49 1_555 1_555
C50 C49 1_555 1_555
H38 C50 1_555 1_555
H39 C50 1_555 1_555
H40 C50 1_555 1_555
C51 C42 1_555 1_555
H41 C51 1_555 1_555
H42 C51 1_555 1_555
C52 C51 1_555 1_555
H43 C52 1_555 1_555
H44 C52 1_555 1_555
H45 C52 1_555 1_555
C53 C45 1_555 1_555
C60 C43 1_555 1_555
Cu5 Cu6 1_555 1_555
Cu6 Cu7 1_555 1_555
Cu7 Cu5 1_555 1_555
Cu12 Cu5 1_555 1_555
I5 Cu5 1_555 1_555
I7 Cu5 1_555 1_555
I8 Cu6 1_555 1_555
N12 C40 1_555 1_555
N14 C54 1_555 1_555
N15 C53 1_555 1_555
N17 C61 1_555 1_555
N18 C60 1_555 1_555
O5 C60 1_555 1_555
O6 C53 1_555 1_555
N22 Cu7 1_555 1_555
C40 O4 1_555 1_555
C54 O6 1_555 1_555
C61 O5 1_555 1_555
Cu6 Cu12 1_555 1_555
Cu6 I7 1_555 1_555
Cu6 N12 1_555 1_555
Cu7 Cu12 1_555 1_555
Cu7 I5 1_555 1_555
Cu7 I8 1_555 1_555
Cu12 I5 1_555 1_555
Cu12 I7 1_555 1_555
Cu12 I8 1_555 1_555
N14 N15 1_555 1_555
N17 N18 1_555 1_555
C55 C56 1_555 1_555
C56 H46 1_555 1_555
C57 C56 1_555 1_555
C58 C57 1_555 1_555
C59 C55 1_555 1_555
H49 C59 1_555 1_555
N21 C58 1_555 1_555
C59 N21 1_555 1_555
H3_2 C3_2 1_555 1_555
C4_2 C3_2 1_555 1_555
C5_2 C4_2 1_555 1_555
H4_2 C5_2 1_555 1_555
C6_2 C4_2 1_555 1_555
C7_2 C8_2 1_555 1_555
C8_2 C9_2 1_555 1_555
C9_2 C10_2 1_555 1_555
C10_2 C11_2 1_555 1_555
C11_2 C12_2 1_555 1_555
C12_2 C13_2 1_555 1_555
C13_2 C8_2 1_555 1_555
C14_2 C9_2 1_555 1_555
H5_2 C14_2 1_555 1_555
C15_2 C14_2 1_555 1_555
H6_2 C15_2 1_555 1_555
H7_2 C15_2 1_555 1_555
H8_2 C15_2 1_555 1_555
C16_2 C13_2 1_555 1_555
H9_2 C16_2 1_555 1_555
H10_2 C16_2 1_555 1_555
C17_2 C16_2 1_555 1_555
H11_2 C17_2 1_555 1_555
H12_2 C17_2 1_555 1_555
H13_2 C17_2 1_555 1_555
C18_2 C11_2 1_555 1_555
H14_2 C18_2 1_555 1_555
H15_2 C18_2 1_555 1_555
C19_2 C18_2 1_555 1_555
H16_2 C19_2 1_555 1_555
H17_2 C19_2 1_555 1_555
H18_2 C19_2 1_555 1_555
C20_2 C10_2 1_555 1_555
C21_2 C22_2 1_555 1_555
C22_2 C23_2 1_555 1_555
C23_2 H19_2 1_555 1_555
C24_2 C23_2 1_555 1_555
C25_2 C24_2 1_555 1_555
H21_2 C25_2 1_555 1_555
C26_2 C22_2 1_555 1_555
H22_2 C26_2 1_555 1_555
C27_2 C12_2 1_555 1_555
C34_2 H27 1_555 1_555
C35 C34_2 1_555 1_555
H28 C35 1_555 1_555
C36_2 C35 1_555 1_555
H29_2 C36_2 1_555 1_555
C37_2 C36_2 1_555 1_555
C38_2 C37_2 1_555 1_555
H30_2 C38_2 1_555 1_555
C39_2 C37_2 1_555 1_555
Cu1_2 Cu2_2 1_555 1_555
Cu2_2 Cu3_2 1_555 1_555
Cu3_2 Cu1_2 1_555 1_555
Cu10 Cu1_2 1_555 1_555
I1_2 Cu1_2 1_555 1_555
I2_2 Cu1_2 1_555 1_555
I3_2 Cu1_2 1_555 1_555
I4_2 Cu2_2 1_555 1_555
N1_2 C1_2 1_555 1_555
N2_2 C6_2 1_555 1_555
N3_2 C7_2 1_555 1_555
N5_2 C28_2 1_555 1_555
N6_2 C27_2 1_555 1_555
N7_2 C25_2 1_555 1_555
N8_2 C21_2 1_555 1_555
N9_2 C20_2 1_555 1_555
N10_2 C34_2 1_555 1_555
N11_2 C39_2 1_555 1_555
O1_2 C6_2 1_555 1_555
O2_2 C20_2 1_555 1_555
O3_2 C27_2 1_555 1_555
Cu12_2 N7_2 1_555 1_555
N21_2 Cu3_2 1_555 1_555
C5_2 N1_2 1_555 1_555
C7_2 O1_2 1_555 1_555
C21_2 O2_2 1_555 1_555
C26_2 N7_2 1_555 1_555
C28_2 O3_2 1_555 1_555
C38_2 N10_2 1_555 1_555
Cu1_2 N3_2 1_555 1_555
Cu2_2 Cu10 1_555 1_555
Cu2_2 I2_2 1_555 1_555
Cu2_2 I3_2 1_555 1_555
Cu2_2 N10_2 1_555 1_555
Cu3_2 Cu10 1_555 1_555
Cu3_2 I1_2 1_555 1_555
Cu3_2 I2_2 1_555 1_555
Cu3_2 I4_2 1_555 1_555
Cu10 I1_2 1_555 1_555
Cu10 I3_2 1_555 1_555
Cu10 I4_2 1_555 1_555
N2_2 N3_2 1_555 1_555
N5_2 N6_2 1_555 1_555
N8_2 N9_2 1_555 1_555
C14_2 H54_2 1_555 1_555
H2_2 C2_2 1_555 1_555
C29_2 C30_2 1_555 1_555
C30_2 H23_2 1_555 1_555
C31_2 C30_2 1_555 1_555
H24_2 C31_2 1_555 1_555
C32_2 C31_2 1_555 1_555
H25_2 C32_2 1_555 1_555
C33_2 C29_2 1_555 1_555
H26_2 C33_2 1_555 1_555
N19 C32_2 1_555 1_555
C33_2 N19 1_555 1_555
C40_2 C41_2 1_555 1_555
C41_2 C42_2 1_555 1_555
C42_2 C43_2 1_555 1_555
C43_2 C44_2 1_555 1_555
C44_2 C45_2 1_555 1_555
C45_2 C46_2 1_555 1_555
C46_2 C41_2 1_555 1_555
C47_2 C46_2 1_555 1_555
H31_2 C47_2 1_555 1_555
H32_2 C47_2 1_555 1_555
C48_2 C47_2 1_555 1_555
H33_2 C48_2 1_555 1_555
H34_2 C48_2 1_555 1_555
H35_2 C48_2 1_555 1_555
C49_2 C44_2 1_555 1_555
H36_2 C49_2 1_555 1_555
H37_2 C49_2 1_555 1_555
C50_2 C49_2 1_555 1_555
H38_2 C50_2 1_555 1_555
H39_2 C50_2 1_555 1_555
H40_2 C50_2 1_555 1_555
C51_2 C42_2 1_555 1_555
H41_2 C51_2 1_555 1_555
H42_2 C51_2 1_555 1_555
C52_2 C51_2 1_555 1_555
H43_2 C52_2 1_555 1_555
H44_2 C52_2 1_555 1_555
H45_2 C52_2 1_555 1_555
C53_2 C45_2 1_555 1_555
C54_2 C55_2 1_555 1_555
C55_2 C56_2 1_555 1_555
C56_2 H46_2 1_555 1_555
C57_2 C56_2 1_555 1_555
H47 C57_2 1_555 1_555
C58_2 C57_2 1_555 1_555
H48 C58_2 1_555 1_555
C59_2 C55_2 1_555 1_555
H49_2 C59_2 1_555 1_555
C60_2 C43_2 1_555 1_555
C61_2 C62_2 1_555 1_555
C62_2 C63_2 1_555 1_555
C63_2 H50_2 1_555 1_555
C64_2 H51_2 1_555 1_555
C65_2 C64_2 1_555 1_555
H52_2 C65_2 1_555 1_555
C66_2 C62_2 1_555 1_555
H53_2 C66_2 1_555 1_555
Cu5_2 Cu6_2 1_555 1_555
Cu6_2 Cu11 1_555 1_555
Cu11 Cu5_2 1_555 1_555
Cu12_2 Cu5_2 1_555 1_555
I5_2 Cu5_2 1_555 1_555
I7_2 Cu5_2 1_555 1_555
I8_2 Cu6_2 1_555 1_555
N12_2 C40_2 1_555 1_555
N21_2 C58_2 1_555 1_555
N14_2 C54_2 1_555 1_555
N15_2 C53_2 1_555 1_555
N22 C63_2 1_555 1_555
N17_2 C61_2 1_555 1_555
N18_2 C60_2 1_555 1_555
O5_2 C60_2 1_555 1_555
O6_2 C53_2 1_555 1_555
C40_2 O4_2 1_555 1_555
C54_2 O6_2 1_555 1_555
C59_2 N21_2 1_555 1_555
C61_2 O5_2 1_555 1_555
C64_2 N22 1_555 1_555
C65_2 C66_2 1_555 1_555
Cu6_2 Cu12_2 1_555 1_555
Cu6_2 I7_2 1_555 1_555
Cu6_2 N12_2 1_555 1_555
Cu11 Cu12_2 1_555 1_555
Cu11 I5_2 1_555 1_555
Cu11 I8_2 1_555 1_555
Cu12_2 I5_2 1_555 1_555
Cu12_2 I7_2 1_555 1_555
Cu12_2 I8_2 1_555 1_555
N14_2 N15_2 1_555 1_555
N17_2 N18_2 1_555 1_555
H28_2 C35_2 1_555 1_555
H47_2 C57_3 1_555 1_555
C40_3 C41_3 1_555 1_555
C41_3 C42_3 1_555 1_555
C42_3 C43_3 1_555 1_555
C43_3 C44_3 1_555 1_555
C44_3 C45_3 1_555 1_555
C45_3 C46_3 1_555 1_555
C46_3 C41_3 1_555 1_555
C47_3 C46_3 1_555 1_555
H31_3 C47_3 1_555 1_555
H32_3 C47_3 1_555 1_555
C48_3 C47_3 1_555 1_555
H33_3 C48_3 1_555 1_555
H34_3 C48_3 1_555 1_555
H35_3 C48_3 1_555 1_555
C49_3 C44_3 1_555 1_555
H36_3 C49_3 1_555 1_555
H37_3 C49_3 1_555 1_555
C50_3 C49_3 1_555 1_555
H38_3 C50_3 1_555 1_555
H39_3 C50_3 1_555 1_555
H40_3 C50_3 1_555 1_555
C51_3 C42_3 1_555 1_555
H41_3 C51_3 1_555 1_555
H42_3 C51_3 1_555 1_555
C52_3 C51_3 1_555 1_555
H43_3 C52_3 1_555 1_555
H44_3 C52_3 1_555 1_555
H45_3 C52_3 1_555 1_555
C53_3 C45_3 1_555 1_555
C54_3 C55_3 1_555 1_555
C55_3 C56_3 1_555 1_555
C56_3 H46_3 1_555 1_555
C57_4 C56_3 1_555 1_555
H47_3 C57_4 1_555 1_555
C58_3 C57_4 1_555 1_555
H48_3 C58_3 1_555 1_555
C59_3 C55_3 1_555 1_555
H49_3 C59_3 1_555 1_555
C60_3 C43_3 1_555 1_555
C61_3 C62_3 1_555 1_555
C62_3 C63_3 1_555 1_555
C63_3 H50_3 1_555 1_555
C64_3 H51_3 1_555 1_555
C65_3 C64_3 1_555 1_555
H52_3 C65_3 1_555 1_555
C66_3 C62_3 1_555 1_555
H53_3 C66_3 1_555 1_555
Cu5_3 Cu6_3 1_555 1_555
Cu6_3 Cu7_2 1_555 1_555
Cu7_2 Cu5_3 1_555 1_555
Cu8 Cu5_3 1_555 1_555
I5_3 Cu5_3 1_555 1_555
I7_3 Cu5_3 1_555 1_555
I8_3 Cu6_3 1_555 1_555
N12_3 C40_3 1_555 1_555
N13 C58_3 1_555 1_555
N14_3 C54_3 1_555 1_555
N15_3 C53_3 1_555 1_555
N16_2 C63_3 1_555 1_555
N17_3 C61_3 1_555 1_555
N18_3 C60_3 1_555 1_555
O5_3 C60_3 1_555 1_555
O6_3 C53_3 1_555 1_555
Cu9 N13 1_555 1_555
Cu11_2 N16_2 1_555 1_555
N20 Cu8 1_555 1_555
N22_2 Cu7_2 1_555 1_555
C40_3 O4_3 1_555 1_555
C54_3 O6_3 1_555 1_555
C59_3 N13 1_555 1_555
C61_3 O5_3 1_555 1_555
C64_3 N16_2 1_555 1_555
C65_3 C66_3 1_555 1_555
Cu6_3 Cu8 1_555 1_555
Cu6_3 I7_3 1_555 1_555
Cu6_3 N12_3 1_555 1_555
Cu7_2 Cu8 1_555 1_555
Cu7_2 I5_3 1_555 1_555
Cu7_2 I8_3 1_555 1_555
Cu8 I5_3 1_555 1_555
Cu8 I7_3 1_555 1_555
Cu8 I8_3 1_555 1_555
N14_3 N15_3 1_555 1_555
N17_3 N18_3 1_555 1_555
H2_3 C2_3 1_555 1_555
C29_3 C30_3 1_555 1_555
C30_3 H23_3 1_555 1_555
C31_3 C30_3 1_555 1_555
H24_3 C31_3 1_555 1_555
C32_3 C31_3 1_555 1_555
H25_3 C32_3 1_555 1_555
C33_3 C29_3 1_555 1_555
H26_3 C33_3 1_555 1_555
N4_2 C32_3 1_555 1_555
Cu10_2 N4_2 1_555 1_555
C33_3 N4_2 1_555 1_555
H3_3 C3_3 1_555 1_555
C4_3 C3_3 1_555 1_555
C5_3 C4_3 1_555 1_555
H4_3 C5_3 1_555 1_555
C6_3 C4_3 1_555 1_555
C7_3 C8_3 1_555 1_555
C8_3 C9_3 1_555 1_555
C9_3 C10_3 1_555 1_555
C10_3 C11_3 1_555 1_555
C11_3 C12_3 1_555 1_555
C12_3 C13_3 1_555 1_555
C13_3 C8_3 1_555 1_555
C14_3 C9_3 1_555 1_555
H5_3 C14_3 1_555 1_555
C15_3 C14_3 1_555 1_555
H6_3 C15_3 1_555 1_555
H7_3 C15_3 1_555 1_555
H8_3 C15_3 1_555 1_555
C16_3 C13_3 1_555 1_555
H9_3 C16_3 1_555 1_555
H10_3 C16_3 1_555 1_555
C17_3 C16_3 1_555 1_555
H11_3 C17_3 1_555 1_555
H12_3 C17_3 1_555 1_555
H13_3 C17_3 1_555 1_555
C18_3 C11_3 1_555 1_555
H14_3 C18_3 1_555 1_555
H15_3 C18_3 1_555 1_555
C19_3 C18_3 1_555 1_555
H16_3 C19_3 1_555 1_555
H17_3 C19_3 1_555 1_555
H18_3 C19_3 1_555 1_555
C20_3 C10_3 1_555 1_555
C21_3 C22_3 1_555 1_555
C22_3 C23_3 1_555 1_555
C23_3 H19_3 1_555 1_555
C24_3 C23_3 1_555 1_555
C25_3 C24_3 1_555 1_555
H21_3 C25_3 1_555 1_555
C26_3 C22_3 1_555 1_555
H22_3 C26_3 1_555 1_555
C27_3 C12_3 1_555 1_555
C34_3 H27_3 1_555 1_555
C35_3 C34_3 1_555 1_555
H28_3 C35_3 1_555 1_555
C36_3 C35_3 1_555 1_555
H29_3 C36_3 1_555 1_555
C37_3 C36_3 1_555 1_555
C38_3 C37_3 1_555 1_555
H30_3 C38_3 1_555 1_555
C39_3 C37_3 1_555 1_555
Cu1_3 Cu2_3 1_555 1_555
Cu2_3 Cu9 1_555 1_555
Cu9 Cu1_3 1_555 1_555
Cu4_2 Cu1_3 1_555 1_555
I1_3 Cu1_3 1_555 1_555
I2_3 Cu1_3 1_555 1_555
I3_3 Cu1_3 1_555 1_555
I4_3 Cu2_3 1_555 1_555
N1_3 C1_3 1_555 1_555
N2_3 C6_3 1_555 1_555
N3_3 C7_3 1_555 1_555
N5_3 C28_3 1_555 1_555
N6_3 C27_3 1_555 1_555
N20 C25_3 1_555 1_555
N8_3 C21_3 1_555 1_555
N9_3 C20_3 1_555 1_555
N10_3 C34_3 1_555 1_555
N11_3 C39_3 1_555 1_555
O1_3 C6_3 1_555 1_555
O2_3 C20_3 1_555 1_555
O3_3 C27_3 1_555 1_555
N19_2 Cu4_2 1_555 1_555
C5_3 N1_3 1_555 1_555
C7_3 O1_3 1_555 1_555
C21_3 O2_3 1_555 1_555
C26_3 N20 1_555 1_555
C28_3 O3_3 1_555 1_555
C38_3 N10_3 1_555 1_555
Cu1_3 N3_3 1_555 1_555
Cu2_3 Cu4_2 1_555 1_555
Cu2_3 I2_3 1_555 1_555
Cu2_3 I3_3 1_555 1_555
Cu2_3 N10_3 1_555 1_555
Cu9 Cu4_2 1_555 1_555
Cu9 I1_3 1_555 1_555
Cu9 I2_3 1_555 1_555
Cu9 I4_3 1_555 1_555
Cu4_2 I1_3 1_555 1_555
Cu4_2 I3_3 1_555 1_555
Cu4_2 I4_3 1_555 1_555
N2_3 N3_3 1_555 1_555
N5_3 N6_3 1_555 1_555
N8_3 N9_3 1_555 1_555
C14_3 H54_3 1_555 1_555
C55_4 C56_4 1_555 1_555
C56_4 H46_4 1_555 1_555
C57_5 C56_4 1_555 1_555
C58_4 C57_5 1_555 1_555
C59_4 C55_4 1_555 1_555
H49_4 C59_4 1_555 1_555
N13_2 C58_4 1_555 1_555
Cu9_2 N13_2 1_555 1_555
C59_4 N13_2 1_555 1_555
C40_4 C41_4 1_555 1_555
C41_4 C42_4 1_555 1_555
C42_4 C43_4 1_555 1_555
C43_4 C44_4 1_555 1_555
C44_4 C45_4 1_555 1_555
C45_4 C46_4 1_555 1_555
C46_4 C41_4 1_555 1_555
C47_4 C46_4 1_555 1_555
H31_4 C47_4 1_555 1_555
H32_4 C47_4 1_555 1_555
C48_4 C47_4 1_555 1_555
H33_4 C48_4 1_555 1_555
H35_4 C48_4 1_555 1_555
C49_4 C44_4 1_555 1_555
H36_4 C49_4 1_555 1_555
H37_4 C49_4 1_555 1_555
C50_4 C49_4 1_555 1_555
H38_4 C50_4 1_555 1_555
H39_4 C50_4 1_555 1_555
H40_4 C50_4 1_555 1_555
C51_4 C42_4 1_555 1_555
H41_4 C51_4 1_555 1_555
H42_4 C51_4 1_555 1_555
C52_4 C51_4 1_555 1_555
H43_4 C52_4 1_555 1_555
H44_4 C52_4 1_555 1_555
H45_4 C52_4 1_555 1_555
C53_4 C45_4 1_555 1_555
C60_4 C43_4 1_555 1_555
Cu5_4 Cu6_4 1_555 1_555
Cu6_4 Cu11_2 1_555 1_555
Cu11_2 Cu5_4 1_555 1_555
Cu8_2 Cu5_4 1_555 1_555
I5_4 Cu5_4 1_555 1_555
I7_4 Cu5_4 1_555 1_555
I8_4 Cu6_4 1_555 1_555
N12_4 C40_4 1_555 1_555
N14_4 C54_4 1_555 1_555
N15_4 C53_4 1_555 1_555
N17_4 C61_4 1_555 1_555
N18_4 C60_4 1_555 1_555
O5_4 C60_4 1_555 1_555
O6_4 C53_4 1_555 1_555
N20_2 Cu8_2 1_555 1_555
C40_4 O4_4 1_555 1_555
C54_4 O6_4 1_555 1_555
C61_4 O5_4 1_555 1_555
Cu6_4 Cu8_2 1_555 1_555
Cu6_4 I7_4 1_555 1_555
Cu6_4 N12_4 1_555 1_555
Cu11_2 Cu8_2 1_555 1_555
Cu11_2 I5_4 1_555 1_555
Cu11_2 I8_4 1_555 1_555
Cu8_2 I5_4 1_555 1_555
Cu8_2 I7_4 1_555 1_555
Cu8_2 I8_4 1_555 1_555
N14_4 N15_4 1_555 1_555
N17_4 N18_4 1_555 1_555
C62_4 C63_4 1_555 1_555
C63_4 H50_4 1_555 1_555
C64_4 H51_4 1_555 1_555
C65_4 C64_4 1_555 1_555
H52_4 C65_4 1_555 1_555
C66_4 C62_4 1_555 1_555
H53_4 C66_4 1_555 1_555
N22_2 C63_4 1_555 1_555
C64_4 N22_2 1_555 1_555
C65_4 C66_4 1_555 1_555
C7_4 C8_4 1_555 1_555
C8_4 C9_4 1_555 1_555
C9_4 C10_4 1_555 1_555
C10_4 C11_4 1_555 1_555
C11_4 C12_4 1_555 1_555
C12_4 C13_4 1_555 1_555
C13_4 C8_4 1_555 1_555
C14_4 C9_4 1_555 1_555
C15_4 C14_4 1_555 1_555
H6_4 C15_4 1_555 1_555
H8_4 C15_4 1_555 1_555
C16_4 C13_4 1_555 1_555
H9_4 C16_4 1_555 1_555
H10_4 C16_4 1_555 1_555
C17_4 C16_4 1_555 1_555
H11_4 C17_4 1_555 1_555
H12_4 C17_4 1_555 1_555
H13_4 C17_4 1_555 1_555
C18_4 C11_4 1_555 1_555
H14_4 C18_4 1_555 1_555
H15_4 C18_4 1_555 1_555
C19_4 C18_4 1_555 1_555
H16_4 C19_4 1_555 1_555
H17_4 C19_4 1_555 1_555
H18_4 C19_4 1_555 1_555
C20_4 C10_4 1_555 1_555
C27_4 C12_4 1_555 1_555
C28_4 C29_4 1_555 1_555
C29_4 C30_4 1_555 1_555
C30_4 H23_4 1_555 1_555
C31_4 C30_4 1_555 1_555
H24_4 C31_4 1_555 1_555
C32_4 C31_4 1_555 1_555
H25_4 C32_4 1_555 1_555
C33_4 C29_4 1_555 1_555
H26_4 C33_4 1_555 1_555
H30_4 C38_4 1_555 1_555
Cu1_4 Cu2_4 1_555 1_555
Cu2_4 Cu9_2 1_555 1_555
Cu9_2 Cu1_4 1_555 1_555
Cu10_2 Cu1_4 1_555 1_555
I1_4 Cu1_4 1_555 1_555
I2_4 Cu1_4 1_555 1_555
I3_4 Cu1_4 1_555 1_555
I4_4 Cu2_4 1_555 1_555
N2_4 C6_4 1_555 1_555
N3_4 C7_4 1_555 1_555
N19_2 C32_4 1_555 1_555
N5_4 C28_4 1_555 1_555
N6_4 C27_4 1_555 1_555
N8_4 C21_4 1_555 1_555
N9_4 C20_4 1_555 1_555
N10_4 C34_4 1_555 1_555
O1_4 C6_4 1_555 1_555
O2_4 C20_4 1_555 1_555
O3_4 C27_4 1_555 1_555
C7_4 O1_4 1_555 1_555
C21_4 O2_4 1_555 1_555
C28_4 O3_4 1_555 1_555
C33_4 N19_2 1_555 1_555
C38_4 N10_4 1_555 1_555
Cu1_4 N3_4 1_555 1_555
Cu2_4 Cu10_2 1_555 1_555
Cu2_4 I2_4 1_555 1_555
Cu2_4 I3_4 1_555 1_555
Cu2_4 N10_4 1_555 1_555
Cu9_2 Cu10_2 1_555 1_555
Cu9_2 I1_4 1_555 1_555
Cu9_2 I2_4 1_555 1_555
Cu9_2 I4_4 1_555 1_555
Cu10_2 I1_4 1_555 1_555
Cu10_2 I3_4 1_555 1_555
Cu10_2 I4_4 1_555 1_555
N2_4 N3_4 1_555 1_555
N5_4 N6_4 1_555 1_555
N8_4 N9_4 1_555 1_555
C14_4 H54_4 1_555 1_555
C2_4 C1_4 1_555 1_555
H2_4 C2_4 1_555 1_555
C3_4 C2_4 1_555 1_555
C4_4 C3_4 1_555 1_555
C5_4 C4_4 1_555 1_555
H4_4 C5_4 1_555 1_555
C22_4 C23_4 1_555 1_555
C23_4 H19_4 1_555 1_555
C24_4 C23_4 1_555 1_555
H20_4 C24_4 1_555 1_555
C25_4 C24_4 1_555 1_555
H21_4 C25_4 1_555 1_555
C26_4 C22_4 1_555 1_555
H22_4 C26_4 1_555 1_555
H29_4 C36_4 1_555 1_555
C37_4 C36_4 1_555 1_555
C39_4 C37_4 1_555 1_555
N1_4 C1_4 1_555 1_555
N20_2 C25_4 1_555 1_555
N11_4 C39_4 1_555 1_555
C5_4 N1_4 1_555 1_555
C26_4 N20_2 1_555 1_555
H47_4 C57_6 1_555 1_555
H28_4 C35_4 1_555 1_555

#END
