
###############################################################################
#
# This file contains modified crystal structure data generated from the
# MOF subset of the Cambridge Structural Database (CSD) v543 
# hosted by the Cambridge Crystallographic Data Centre (CCDC).
#
# This work is licensed under the Creative Commons
# Attribution-NonCommercial-ShareAlike 4.0 International License.
# To view a copy of this license, visit
# http://creativecommons.org/licenses/by-nc-sa/4.0/
# or send a letter to
# Creative Commons, PO Box 1866, Mountain View, CA 94042, USA.
#
# CIF created using the CSD Python API on 29 September 2022
# The structure has been converted into the P1 space group
# The structure has a 3D framework
# The original CSD entry MAHGAG is in the orthorhombic crystal system
# The framework has been calculated to contain at least 10.0% void space
# The void calculation uses a probe of radius 1.32A, grid spacing 0.4
#
###############################################################################

data_MAHGAG
_chemical_formula_moiety         '(C112 H80 Cd1 N16 O32)n'
_symmetry_cell_setting           triclinic
_symmetry_space_group_name_H-M   'P 1'
_symmetry_Int_Tables_number      1
_space_group_name_Hall           'P 1'
loop_
_symmetry_equiv_pos_site_id
_symmetry_equiv_pos_as_xyz
1 x,y,z
_cell_length_a                   18.0671(13)
_cell_length_b                   14.9071(11)
_cell_length_c                   15.1602(11)
_cell_angle_alpha                90
_cell_angle_beta                 90
_cell_angle_gamma                90
_cell_volume                     4083.07
loop_
_atom_site_label
_atom_site_type_symbol
_atom_site_fract_x
_atom_site_fract_y
_atom_site_fract_z
O1 O 0.1584(2) 0.3096(3) 0.0017(7)
O2 O 0.4226(2) 0.0271(3) 0.0095(4)
O3 O 0.0615(3) 0.2233(3) 0.0070(7)
C3 C 0.1793(4) 0.1524(4) 0.0117(5)
C6 C 0.1301(3) 0.2345(4) 0.0082(7)
C7 C 0.2699(3) 0.0035(4) 0.0162(5)
C8 C 0.2546(3) 0.1625(4) 0.0027(8)
C9 C 0.1486(4) 0.0684(4) 0.0200(5)
H5 H 0.0974 0.0622 0.0202
C11 C 0.3001(3) 0.0864(4) 0.0069(6)
O4 O 0.4104(3) 0.1713(3) 0.9814(6)
C2 C 0.3824(3) 0.0960(4) 0.9866(6)
H4 H 0.2751 0.2190 0.9940
Cd2 Cd 0.53380(2) 0.12337(3) 0.99737(7)
Cd3 Cd 0.03380(2) 0.37663(3) 0.99737(7)
C1 C 0.1932(4) 0.9923(4) 0.0279(5)
N1 N 0.1665(4) 0.9067(4) 0.0397(5)
C4 C 0.1247(6) 0.9221(8) 0.2312(7)
H1 H 0.1707 0.9443 0.2146
H3 H 0.3005 0.9533 0.0148
C10 C 0.0750(5) 0.8926(5) 0.1614(6)
C12 C 0.0906(5) 0.8844(5) 0.0669(6)
H6 H 0.0567 0.9231 0.0351
H7 H 0.0803 0.8231 0.0491
C13 C 0.1102(6) 0.9199(10) 0.3120(6)
H8 H 0.1463 0.9401 0.3510
C14 C 0.0101(5) 0.8686(6) 0.1939(7)
N2 N 0.0458(3) 0.8899(4) 0.3462(4)
H10 H 0.193(5) 0.867(4) 0.049(5)
Cd4 Cd 0.03380(2) 0.87663(3) 0.49737(7)
O5 O 0.3416(2) 0.8096(3) 0.0017(7)
O6 O 0.5774(2) 0.9729(3) 0.0095(4)
O7 O 0.4385(3) 0.7233(3) 0.0070(7)
Cd1 Cd 0.46620(2) 0.87663(3) 0.99737(7)
O8 O 0.5896(3) 0.8287(3) 0.9814(6)
N3 N 0.4542(3) 0.8899(4) 0.8462(4)
C1_2 C 0.8068(4) 0.0077(4) 0.0279(5)
N1_2 N 0.8335(4) 0.0933(4) 0.0397(5)
C4_2 C 0.8753(6) 0.0779(8) 0.2312(7)
H1_2 H 0.8293 0.0557 0.2146
H3_2 H 0.6995 0.0467 0.0148
C10_2 C 0.9250(5) 0.1074(5) 0.1614(6)
C12_2 C 0.9094(5) 0.1156(5) 0.0669(6)
H6_2 H 0.9433 0.0769 0.0351
H7_2 H 0.9197 0.1769 0.0491
C13_2 C 0.8898(6) 0.0801(10) 0.3120(6)
H8_2 H 0.8537 0.0599 0.3510
C14_2 C 0.9899(5) 0.1314(6) 0.1939(7)
N2_2 N 0.9542(3) 0.1101(4) 0.3462(4)
H10_2 H 0.807(5) 0.133(4) 0.049(5)
Cd4_2 Cd 0.96620(2) 0.12337(3) 0.49737(7)
O5_2 O 0.6584(2) 0.1904(3) 0.0017(7)
O7_2 O 0.5615(3) 0.2767(3) 0.0070(7)
N3_2 N 0.5458(3) 0.1101(4) 0.8462(4)
O1_2 O 0.8416(2) 0.6904(3) 0.0017(7)
O3_2 O 0.9385(3) 0.7767(3) 0.0070(7)
C3_2 C 0.8207(4) 0.8476(4) 0.0117(5)
C6_2 C 0.8699(3) 0.7655(4) 0.0082(7)
C7_2 C 0.7301(3) 0.9965(4) 0.0162(5)
C8_2 C 0.7454(3) 0.8375(4) 0.0027(8)
C9_2 C 0.8514(4) 0.9316(4) 0.0200(5)
H5_2 H 0.9026 0.9378 0.0202
C11_2 C 0.6999(3) 0.9136(4) 0.0069(6)
C2_2 C 0.6176(3) 0.9040(4) 0.9866(6)
H4_2 H 0.7249 0.7810 0.9940
Cd3_2 Cd 0.96620(2) 0.62337(3) 0.99737(7)
O6_2 O 0.0774(2) 0.5271(3) 0.0095(4)
O8_2 O 0.0896(3) 0.6713(3) 0.9814(6)
O2_2 O 0.9226(2) 0.4729(3) 0.0095(4)
C1_3 C 0.6932(4) 0.5077(4) 0.0279(5)
N1_3 N 0.6665(4) 0.5933(4) 0.0397(5)
C3_3 C 0.6793(4) 0.3476(4) 0.0117(5)
C4_3 C 0.6247(6) 0.5779(8) 0.2312(7)
H1_3 H 0.6707 0.5557 0.2146
C5 C 0.4985(6) 0.6300(6) 0.2898(7)
H2 H 0.4517 0.6453 0.3102
C6_3 C 0.6301(3) 0.2655(4) 0.0082(7)
C7_3 C 0.7699(3) 0.4965(4) 0.0162(5)
H3_3 H 0.8005 0.5467 0.0148
C8_3 C 0.7546(3) 0.3375(4) 0.0027(8)
C9_3 C 0.6486(4) 0.4316(4) 0.0200(5)
H5_3 H 0.5974 0.4378 0.0202
C10_3 C 0.5750(5) 0.6074(5) 0.1614(6)
C11_3 C 0.8001(3) 0.4136(4) 0.0069(6)
C12_3 C 0.5906(5) 0.6156(5) 0.0669(6)
H6_3 H 0.5567 0.5769 0.0351
H7_3 H 0.5803 0.6769 0.0491
C13_3 C 0.6102(6) 0.5801(10) 0.3120(6)
H8_3 H 0.6463 0.5599 0.3510
C14_3 C 0.5101(5) 0.6314(6) 0.1939(7)
H9 H 0.4721 0.6491 0.1563
N2_3 N 0.5458(3) 0.6101(4) 0.3462(4)
H10_3 H 0.693(5) 0.633(4) 0.049(5)
Cd4_3 Cd 0.53380(2) 0.62337(3) 0.49737(7)
O4_2 O 0.9104(3) 0.3287(3) 0.9814(6)
C2_3 C 0.8824(3) 0.4040(4) 0.9866(6)
H4_3 H 0.7751 0.2810 0.9940
N3_3 N 0.9542(3) 0.6101(4) 0.8462(4)
C1_4 C 0.3068(4) 0.4923(4) 0.0279(5)
N1_4 N 0.3335(4) 0.4067(4) 0.0397(5)
C3_4 C 0.3207(4) 0.6524(4) 0.0117(5)
C4_4 C 0.3753(6) 0.4221(8) 0.2312(7)
H1_4 H 0.3293 0.4443 0.2146
C5_2 C 0.5015(6) 0.3700(6) 0.2898(7)
H2_2 H 0.5483 0.3547 0.3102
C6_4 C 0.3699(3) 0.7345(4) 0.0082(7)
C7_4 C 0.2301(3) 0.5035(4) 0.0162(5)
H3_4 H 0.1995 0.4533 0.0148
C8_4 C 0.2454(3) 0.6625(4) 0.0027(8)
C9_4 C 0.3514(4) 0.5684(4) 0.0200(5)
H5_4 H 0.4026 0.5622 0.0202
C10_4 C 0.4250(5) 0.3926(5) 0.1614(6)
C11_4 C 0.1999(3) 0.5864(4) 0.0069(6)
C12_4 C 0.4094(5) 0.3844(5) 0.0669(6)
H6_4 H 0.4433 0.4231 0.0351
H7_4 H 0.4197 0.3231 0.0491
C13_4 C 0.3898(6) 0.4199(10) 0.3120(6)
H8_4 H 0.3537 0.4401 0.3510
C14_4 C 0.4899(5) 0.3686(6) 0.1939(7)
H9_2 H 0.5279 0.3509 0.1563
N2_4 N 0.4542(3) 0.3899(4) 0.3462(4)
H10_4 H 0.307(5) 0.367(4) 0.049(5)
Cd4_4 Cd 0.46620(2) 0.37663(3) 0.49737(7)
C2_4 C 0.1176(3) 0.5960(4) 0.9866(6)
H4_4 H 0.2249 0.7190 0.9940
N3_4 N 0.0458(3) 0.3899(4) 0.8462(4)
O1_3 O 0.1584(2) 0.8096(3) 0.5017(7)
O2_3 O 0.4226(2) 0.5271(3) 0.5095(4)
O3_3 O 0.0615(3) 0.7233(3) 0.5070(7)
C1_5 C 0.1932(4) 0.4923(4) 0.5279(5)
O4_3 O 0.4104(3) 0.6713(3) 0.4814(6)
C2_5 C 0.3824(3) 0.5960(4) 0.4866(6)
N1_5 N 0.1665(4) 0.4067(4) 0.5397(5)
C3_5 C 0.1793(4) 0.6524(4) 0.5117(5)
C4_5 C 0.1247(6) 0.4221(8) 0.7312(7)
H1_5 H 0.1707 0.4443 0.7146
C6_5 C 0.1301(3) 0.7345(4) 0.5082(7)
C7_5 C 0.2699(3) 0.5035(4) 0.5162(5)
H3_5 H 0.3005 0.4533 0.5148
C8_5 C 0.2546(3) 0.6625(4) 0.5027(8)
H4_5 H 0.2751 0.7190 0.4940
C9_5 C 0.1486(4) 0.5684(4) 0.5200(5)
H5_5 H 0.0974 0.5622 0.5202
C10_5 C 0.0750(5) 0.3926(5) 0.6614(6)
C11_5 C 0.3001(3) 0.5864(4) 0.5069(6)
C12_5 C 0.0906(5) 0.3844(5) 0.5669(6)
H6_5 H 0.0567 0.4231 0.5351
H7_5 H 0.0803 0.3231 0.5491
C13_5 C 0.1102(6) 0.4199(10) 0.8120(6)
H8_5 H 0.1463 0.4401 0.8510
C14_5 C 0.0101(5) 0.3686(6) 0.6939(7)
H10_5 H 0.193(5) 0.367(4) 0.549(5)
O5_3 O 0.3416(2) 0.3096(3) 0.5017(7)
O6_3 O 0.5774(2) 0.4729(3) 0.5095(4)
O7_3 O 0.4385(3) 0.2233(3) 0.5070(7)
O8_3 O 0.5896(3) 0.3287(3) 0.4814(6)
O1_4 O 0.8416(2) 0.1904(3) 0.5017(7)
O3_4 O 0.9385(3) 0.2767(3) 0.5070(7)
C1_6 C 0.8068(4) 0.5077(4) 0.5279(5)
C2_6 C 0.6176(3) 0.4040(4) 0.4866(6)
N1_6 N 0.8335(4) 0.5933(4) 0.5397(5)
C3_6 C 0.8207(4) 0.3476(4) 0.5117(5)
C4_6 C 0.8753(6) 0.5779(8) 0.7312(7)
H1_6 H 0.8293 0.5557 0.7146
C6_6 C 0.8699(3) 0.2655(4) 0.5082(7)
C7_6 C 0.7301(3) 0.4965(4) 0.5162(5)
H3_6 H 0.6995 0.5467 0.5148
C8_6 C 0.7454(3) 0.3375(4) 0.5027(8)
H4_6 H 0.7249 0.2810 0.4940
C9_6 C 0.8514(4) 0.4316(4) 0.5200(5)
H5_6 H 0.9026 0.4378 0.5202
C10_6 C 0.9250(5) 0.6074(5) 0.6614(6)
C11_6 C 0.6999(3) 0.4136(4) 0.5069(6)
C12_6 C 0.9094(5) 0.6156(5) 0.5669(6)
H6_6 H 0.9433 0.5769 0.5351
H7_6 H 0.9197 0.6769 0.5491
C13_6 C 0.8898(6) 0.5801(10) 0.8120(6)
H8_6 H 0.8537 0.5599 0.8510
C14_6 C 0.9899(5) 0.6314(6) 0.6939(7)
H10_6 H 0.807(5) 0.633(4) 0.549(5)
O5_4 O 0.6584(2) 0.6904(3) 0.5017(7)
O7_4 O 0.5615(3) 0.7767(3) 0.5070(7)
O6_4 O 0.0774(2) 0.0271(3) 0.5095(4)
O8_4 O 0.0896(3) 0.1713(3) 0.4814(6)
C1_7 C 0.6932(4) 0.0077(4) 0.5279(5)
N1_7 N 0.6665(4) 0.0933(4) 0.5397(5)
C4_7 C 0.6247(6) 0.0779(8) 0.7312(7)
H1_7 H 0.6707 0.0557 0.7146
C5_3 C 0.4985(6) 0.1300(6) 0.7898(7)
H2_3 H 0.4517 0.1453 0.8102
H3_7 H 0.8005 0.0467 0.5148
C10_7 C 0.5750(5) 0.1074(5) 0.6614(6)
C12_7 C 0.5906(5) 0.1156(5) 0.5669(6)
H6_7 H 0.5567 0.0769 0.5351
H7_7 H 0.5803 0.1769 0.5491
C13_7 C 0.6102(6) 0.0801(10) 0.8120(6)
H8_7 H 0.6463 0.0599 0.8510
C14_7 C 0.5101(5) 0.1314(6) 0.6939(7)
H9_3 H 0.4721 0.1491 0.6563
H10_7 H 0.693(5) 0.133(4) 0.549(5)
O2_4 O 0.9226(2) 0.9729(3) 0.5095(4)
O4_4 O 0.9104(3) 0.8287(3) 0.4814(6)
C2_7 C 0.8824(3) 0.9040(4) 0.4866(6)
C3_7 C 0.6793(4) 0.8476(4) 0.5117(5)
C6_7 C 0.6301(3) 0.7655(4) 0.5082(7)
C7_7 C 0.7699(3) 0.9965(4) 0.5162(5)
C8_7 C 0.7546(3) 0.8375(4) 0.5027(8)
H4_7 H 0.7751 0.7810 0.4940
C9_7 C 0.6486(4) 0.9316(4) 0.5200(5)
H5_7 H 0.5974 0.9378 0.5202
C11_7 C 0.8001(3) 0.9136(4) 0.5069(6)
C2_8 C 0.1176(3) 0.0960(4) 0.4866(6)
C3_8 C 0.3207(4) 0.1524(4) 0.5117(5)
C6_8 C 0.3699(3) 0.2345(4) 0.5082(7)
C7_8 C 0.2301(3) 0.0035(4) 0.5162(5)
C8_8 C 0.2454(3) 0.1625(4) 0.5027(8)
H4_8 H 0.2249 0.2190 0.4940
C9_8 C 0.3514(4) 0.0684(4) 0.5200(5)
H5_8 H 0.4026 0.0622 0.5202
C11_8 C 0.1999(3) 0.0864(4) 0.5069(6)
C1_8 C 0.3068(4) 0.9923(4) 0.5279(5)
N1_8 N 0.3335(4) 0.9067(4) 0.5397(5)
C4_8 C 0.3753(6) 0.9221(8) 0.7312(7)
H1_8 H 0.3293 0.9443 0.7146
C5_4 C 0.5015(6) 0.8700(6) 0.7898(7)
H2_4 H 0.5483 0.8547 0.8102
H3_8 H 0.1995 0.9533 0.5148
C10_8 C 0.4250(5) 0.8926(5) 0.6614(6)
C12_8 C 0.4094(5) 0.8844(5) 0.5669(6)
H6_8 H 0.4433 0.9231 0.5351
H7_8 H 0.4197 0.8231 0.5491
C13_8 C 0.3898(6) 0.9199(10) 0.8120(6)
H8_8 H 0.3537 0.9401 0.8510
C14_8 C 0.4899(5) 0.8686(6) 0.6939(7)
H9_4 H 0.5279 0.8509 0.6563
H10_8 H 0.307(5) 0.867(4) 0.549(5)
C5_5 C 0.9985(6) 0.8700(6) 0.2898(7)
H2_5 H 0.9517 0.8547 0.3102
H9_5 H 0.9721 0.8509 0.1563
C5_6 C 0.0015(6) 0.1300(6) 0.2898(7)
H2_6 H 0.0483 0.1453 0.3102
H9_6 H 0.0279 0.1491 0.1563
C5_7 C 0.9985(6) 0.3700(6) 0.7898(7)
H2_7 H 0.9517 0.3547 0.8102
H9_7 H 0.9721 0.3509 0.6563
C5_8 C 0.0015(6) 0.6300(6) 0.7898(7)
H2_8 H 0.0483 0.6453 0.8102
H9_8 H 0.0279 0.6491 0.6563
loop_
_geom_bond_atom_site_label_1
_geom_bond_atom_site_label_2
_geom_bond_site_symmetry_1
_geom_bond_site_symmetry_2
O1 C6 1_555 1_555
O3 C6 1_555 1_555
C3 C6 1_555 1_555
C8 C3 1_555 1_555
H5 C9 1_555 1_555
C11 C7 1_555 1_555
C3 C9 1_555 1_555
C8 C11 1_555 1_555
O4 C2 1_555 1_555
O4 Cd2 1_555 1_555
C1 N1 1_555 1_555
N1 C12 1_555 1_555
C4 H1 1_555 1_555
C10 C4 1_555 1_555
C12 C10 1_555 1_555
H6 C12 1_555 1_555
H7 C12 1_555 1_555
C13 C4 1_555 1_555
H8 C13 1_555 1_555
H10 N1 1_555 1_555
Cd4 N2 1_555 1_555
C10 C14 1_555 1_555
C13 N2 1_555 1_555
O8 Cd1 1_555 1_555
N3 Cd1 1_555 1_555
C1_2 N1_2 1_555 1_555
N1_2 C12_2 1_555 1_555
C4_2 H1_2 1_555 1_555
C10_2 C4_2 1_555 1_555
C12_2 C10_2 1_555 1_555
H6_2 C12_2 1_555 1_555
H7_2 C12_2 1_555 1_555
C13_2 C4_2 1_555 1_555
H8_2 C13_2 1_555 1_555
H10_2 N1_2 1_555 1_555
Cd4_2 N2_2 1_555 1_555
C10_2 C14_2 1_555 1_555
C13_2 N2_2 1_555 1_555
N3_2 Cd2 1_555 1_555
O1_2 C6_2 1_555 1_555
O3_2 C6_2 1_555 1_555
C3_2 C6_2 1_555 1_555
C8_2 C3_2 1_555 1_555
H5_2 C9_2 1_555 1_555
C11_2 C7_2 1_555 1_555
C3_2 C9_2 1_555 1_555
C8_2 C11_2 1_555 1_555
O8 C2_2 1_555 1_555
O5_2 C6_3 1_555 1_555
O7_2 C6_3 1_555 1_555
C1_3 N1_3 1_555 1_555
N1_3 C12_3 1_555 1_555
C3_3 C6_3 1_555 1_555
C4_3 H1_3 1_555 1_555
C5 H2 1_555 1_555
C7_3 C1_3 1_555 1_555
H3_3 C7_3 1_555 1_555
C8_3 C3_3 1_555 1_555
C9_3 C1_3 1_555 1_555
H5_3 C9_3 1_555 1_555
C10_3 C4_3 1_555 1_555
C11_3 C7_3 1_555 1_555
C12_3 C10_3 1_555 1_555
H6_3 C12_3 1_555 1_555
H7_3 C12_3 1_555 1_555
C13_3 C4_3 1_555 1_555
H8_3 C13_3 1_555 1_555
C14_3 C5 1_555 1_555
H9 C14_3 1_555 1_555
N2_3 C5 1_555 1_555
H10_3 N1_3 1_555 1_555
Cd4_3 N2_3 1_555 1_555
C3_3 C9_3 1_555 1_555
C8_3 C11_3 1_555 1_555
C10_3 C14_3 1_555 1_555
C13_3 N2_3 1_555 1_555
O4_2 C2_3 1_555 1_555
N3_3 Cd3_2 1_555 1_555
O5 C6_4 1_555 1_555
O7 C6_4 1_555 1_555
C1_4 N1_4 1_555 1_555
N1_4 C12_4 1_555 1_555
C3_4 C6_4 1_555 1_555
C4_4 H1_4 1_555 1_555
C5_2 H2_2 1_555 1_555
C7_4 C1_4 1_555 1_555
H3_4 C7_4 1_555 1_555
C8_4 C3_4 1_555 1_555
C9_4 C1_4 1_555 1_555
H5_4 C9_4 1_555 1_555
C10_4 C4_4 1_555 1_555
C11_4 C7_4 1_555 1_555
C12_4 C10_4 1_555 1_555
H6_4 C12_4 1_555 1_555
H7_4 C12_4 1_555 1_555
C13_4 C4_4 1_555 1_555
H8_4 C13_4 1_555 1_555
C14_4 C5_2 1_555 1_555
H9_2 C14_4 1_555 1_555
N2_4 C5_2 1_555 1_555
H10_4 N1_4 1_555 1_555
Cd4_4 N2_4 1_555 1_555
C3_4 C9_4 1_555 1_555
C8_4 C11_4 1_555 1_555
C10_4 C14_4 1_555 1_555
C13_4 N2_4 1_555 1_555
O8_2 C2_4 1_555 1_555
N3_4 Cd3 1_555 1_555
Cd4_4 O2_3 1_555 1_555
O1_3 C6_5 1_555 1_555
O2_3 C2_5 1_555 1_555
O3_3 C6_5 1_555 1_555
C1_5 N1_5 1_555 1_555
O4_3 C2_5 1_555 1_555
C2_5 C11_5 1_555 1_555
N1_5 C12_5 1_555 1_555
C3_5 C6_5 1_555 1_555
C4_5 H1_5 1_555 1_555
C7_5 C1_5 1_555 1_555
H3_5 C7_5 1_555 1_555
C8_5 C3_5 1_555 1_555
H4_5 C8_5 1_555 1_555
C9_5 C1_5 1_555 1_555
H5_5 C9_5 1_555 1_555
C10_5 C4_5 1_555 1_555
C11_5 C7_5 1_555 1_555
C12_5 C10_5 1_555 1_555
H6_5 C12_5 1_555 1_555
H7_5 C12_5 1_555 1_555
C13_5 C4_5 1_555 1_555
H8_5 C13_5 1_555 1_555
H10_5 N1_5 1_555 1_555
Cd4_3 O2_3 1_555 1_555
Cd4 O1_3 1_555 1_555
O5_3 Cd4_4 1_555 1_555
O6_3 Cd4_4 1_555 1_555
O7_3 Cd4_4 1_555 1_555
O8_3 Cd4_4 1_555 1_555
O3_3 Cd4 1_555 1_555
O4_3 Cd4_3 1_555 1_555
C3_5 C9_5 1_555 1_555
C8_5 C11_5 1_555 1_555
C10_5 C14_5 1_555 1_555
C13_5 N3_4 1_555 1_555
Cd4_3 O6_3 1_555 1_555
O1_4 C6_6 1_555 1_555
O6_3 C2_6 1_555 1_555
O3_4 C6_6 1_555 1_555
C1_6 N1_6 1_555 1_555
O8_3 C2_6 1_555 1_555
C2_6 C11_6 1_555 1_555
N1_6 C12_6 1_555 1_555
C3_6 C6_6 1_555 1_555
C4_6 H1_6 1_555 1_555
C7_6 C1_6 1_555 1_555
H3_6 C7_6 1_555 1_555
C8_6 C3_6 1_555 1_555
H4_6 C8_6 1_555 1_555
C9_6 C1_6 1_555 1_555
H5_6 C9_6 1_555 1_555
C10_6 C4_6 1_555 1_555
C11_6 C7_6 1_555 1_555
C12_6 C10_6 1_555 1_555
H6_6 C12_6 1_555 1_555
H7_6 C12_6 1_555 1_555
C13_6 C4_6 1_555 1_555
H8_6 C13_6 1_555 1_555
H10_6 N1_6 1_555 1_555
Cd4_2 O1_4 1_555 1_555
O5_4 Cd4_3 1_555 1_555
O7_4 Cd4_3 1_555 1_555
O3_4 Cd4_2 1_555 1_555
C3_6 C9_6 1_555 1_555
C8_6 C11_6 1_555 1_555
C10_6 C14_6 1_555 1_555
C13_6 N3_3 1_555 1_555
C1_7 N1_7 1_555 1_555
N1_7 C12_7 1_555 1_555
C4_7 H1_7 1_555 1_555
C5_3 H2_3 1_555 1_555
C10_7 C4_7 1_555 1_555
C12_7 C10_7 1_555 1_555
H6_7 C12_7 1_555 1_555
H7_7 C12_7 1_555 1_555
C13_7 C4_7 1_555 1_555
H8_7 C13_7 1_555 1_555
C14_7 C5_3 1_555 1_555
H9_3 C14_7 1_555 1_555
N3_2 C5_3 1_555 1_555
H10_7 N1_7 1_555 1_555
C10_7 C14_7 1_555 1_555
C13_7 N3_2 1_555 1_555
O5_4 C6_7 1_555 1_555
O2_4 C2_7 1_555 1_555
O7_4 C6_7 1_555 1_555
O4_4 C2_7 1_555 1_555
C2_7 C11_7 1_555 1_555
C3_7 C6_7 1_555 1_555
C8_7 C3_7 1_555 1_555
H4_7 C8_7 1_555 1_555
H5_7 C9_7 1_555 1_555
C11_7 C7_7 1_555 1_555
C3_7 C9_7 1_555 1_555
C8_7 C11_7 1_555 1_555
O5_3 C6_8 1_555 1_555
O6_4 C2_8 1_555 1_555
O7_3 C6_8 1_555 1_555
O8_4 C2_8 1_555 1_555
C2_8 C11_8 1_555 1_555
C3_8 C6_8 1_555 1_555
C8_8 C3_8 1_555 1_555
H4_8 C8_8 1_555 1_555
H5_8 C9_8 1_555 1_555
C11_8 C7_8 1_555 1_555
C3_8 C9_8 1_555 1_555
C8_8 C11_8 1_555 1_555
C1_8 N1_8 1_555 1_555
N1_8 C12_8 1_555 1_555
C4_8 H1_8 1_555 1_555
C5_4 H2_4 1_555 1_555
C10_8 C4_8 1_555 1_555
C12_8 C10_8 1_555 1_555
H6_8 C12_8 1_555 1_555
H7_8 C12_8 1_555 1_555
C13_8 C4_8 1_555 1_555
H8_8 C13_8 1_555 1_555
C14_8 C5_4 1_555 1_555
H9_4 C14_8 1_555 1_555
N3 C5_4 1_555 1_555
H10_8 N1_8 1_555 1_555
C10_8 C14_8 1_555 1_555
C13_8 N3 1_555 1_555
C5_5 H2_5 1_555 1_555
C5_6 H2_6 1_555 1_555
C5_7 H2_7 1_555 1_555
C5_8 H2_8 1_555 1_555

#END
