
###############################################################################
#
# This file contains modified crystal structure data generated from the
# MOF subset of the Cambridge Structural Database (CSD) v543 
# hosted by the Cambridge Crystallographic Data Centre (CCDC).
#
# This work is licensed under the Creative Commons
# Attribution-NonCommercial-ShareAlike 4.0 International License.
# To view a copy of this license, visit
# http://creativecommons.org/licenses/by-nc-sa/4.0/
# or send a letter to
# Creative Commons, PO Box 1866, Mountain View, CA 94042, USA.
#
# CIF created using the CSD Python API on 29 September 2022
# The structure has been converted into the P1 space group
# The structure has a 3D framework
# The original CSD entry MAHNUI is in the monoclinic crystal system
# The framework has been calculated to contain at least 10.0% void space
# The void calculation uses a probe of radius 1.32A, grid spacing 0.4
# H atom positions have been added when not included in the experimental data
# Generated hydrogen atom positions removed from atoms on special positions
#
###############################################################################

data_MAHNUI
_chemical_formula_moiety         '(C216 H160 Cd14 N16 O58)n'
_symmetry_cell_setting           triclinic
_symmetry_space_group_name_H-M   'P 1'
_symmetry_Int_Tables_number      1
_space_group_name_Hall           'P 1'
loop_
_symmetry_equiv_pos_site_id
_symmetry_equiv_pos_as_xyz
1 x,y,z
_cell_length_a                   13.1243(12)
_cell_length_b                   25.790(2)
_cell_length_c                   20.1869(18)
_cell_angle_alpha                90
_cell_angle_beta                 106.870(3)
_cell_angle_gamma                90
_cell_volume                     6538.73
loop_
_atom_site_label
_atom_site_type_symbol
_atom_site_fract_x
_atom_site_fract_y
_atom_site_fract_z
Cd4 Cd 0.33896(2) 0.615871(9) 0.076097(13)
O5 O 0.0674(2) 0.18549(13) 0.45254(16)
O7 O 0.1196(6) 0.6375(7) 0.7256(4)
H5 H 0.1226(16) 0.611(4) 0.704(9)
C14 C 0.0230(6) 0.6474(4) 0.7216(4)
H9 H 0.0311(6) 0.6851(4) 0.7206(4)
N3 N 0.2035(4) 0.63259(17) 0.9790(2)
C28 C 0.1859(4) 0.67540(18) 0.9463(2)
H20 H 0.2248(4) 0.70423(18) 0.9670(2)
C29 C 0.1129(4) 0.6818(2) 0.8821(3)
H21 H 0.1060(4) 0.7142(2) 0.8610(3)
C30 C 0.0536(5) 0.6438(3) 0.8504(4)
C32 C 0.1405(13) 0.5947(4) 0.9488(7)
H23 H 0.1493(13) 0.5624(4) 0.9703(7)
C33 C 0.0627(12) 0.6001(5) 0.8876(7)
H24 H 0.0151(12) 0.5731(5) 0.8713(7)
Cd6 Cd 0.16104(2) 0.115871(9) 0.423903(13)
Cd10 Cd -0.000 0.155900(13) 0.250
Cd1 Cd 0.66104(2) 0.615871(9) 0.423903(13)
N1 N 0.6103(2) 0.29405(11) 0.38473(19)
O1 O 0.6973(7) 0.53762(14) 0.3918(4)
C1 C 0.6471(4) 0.51324(14) 0.4239(2)
O2 O 0.6052(3) 0.53606(11) 0.4615(2)
N2 N 0.7965(4) 0.63259(17) 0.5210(2)
C2 C 0.6389(4) 0.45530(15) 0.4167(3)
O3 O 0.1976(2) 0.14966(10) 0.32950(16)
C3 C 0.6932(6) 0.43005(18) 0.3764(4)
H1 H 0.7364(6) 0.44897(18) 0.3560(4)
C4 C 0.6835(5) 0.37707(16) 0.3664(4)
H2 H 0.7203(5) 0.36053(16) 0.3393(4)
O4 O 0.12254(19) 0.22073(11) 0.27815(15)
C5 C 0.6198(3) 0.34877(13) 0.3962(2)
C6 C 0.5668(3) 0.37337(14) 0.4374(2)
H3 H 0.5251(3) 0.35424(14) 0.4586(2)
O6 O 0.9832(2) 0.14251(10) 0.35903(14)
C7 C 0.5760(3) 0.42649(15) 0.4468(2)
H4 H 0.5392(3) 0.44294(15) 0.4739(2)
C8 C 0.5092(2) 0.27010(13) 0.36805(19)
O8 O -0.000 0.06997(19) 0.250
C9 C 0.4976(3) 0.21954(13) 0.3885(2)
H6 H 0.5571(3) 0.20106(13) 0.4138(2)
C10 C 0.9862(3) 0.17783(14) 0.40390(18)
C11 C 0.8141(4) 0.67540(18) 0.5537(2)
H7 H 0.7752(4) 0.70423(18) 0.5330(2)
C12 C 0.8871(4) 0.6818(2) 0.6179(3)
H8 H 0.8940(4) 0.7142(2) 0.6390(3)
C13 C 0.9464(5) 0.6438(3) 0.6496(4)
C15 C 0.3984(3) 0.19663(14) 0.37152(19)
H10 H 0.3918(3) 0.16281(14) 0.38571(19)
C16 C 0.3085(2) 0.22306(13) 0.33373(18)
C17 C 0.3202(3) 0.27343(15) 0.3133(2)
H11 H 0.2606(3) 0.29189(15) 0.2882(2)
C18 C 0.4191(3) 0.29650(14) 0.3298(2)
H12 H 0.4256(3) 0.33019(14) 0.3151(2)
C19 C 0.2028(3) 0.19631(15) 0.31353(19)
C20 C 0.7029(2) 0.26484(13) 0.38908(19)
C21 C 0.7993(3) 0.27805(16) 0.4370(2)
H13 H 0.8022(3) 0.30595(16) 0.4667(2)
C22 C 0.8903(3) 0.25011(16) 0.4408(2)
H14 H 0.9542(3) 0.25962(16) 0.4728(2)
C23 C 0.8880(3) 0.20835(13) 0.39801(18)
C24 C 0.7917(3) 0.19475(14) 0.35075(19)
H15 H 0.7887(3) 0.16615(14) 0.32219(19)
C25 C 0.7006(3) 0.22285(15) 0.34549(19)
H16 H 0.6373(3) 0.21373(15) 0.31267(19)
C26 C 0.8595(13) 0.5947(4) 0.5512(7)
H17 H 0.8507(13) 0.5624(4) 0.5297(7)
C27 C 0.9373(12) 0.6001(5) 0.6124(7)
H18 H 0.9849(12) 0.5731(5) 0.6287(7)
O9 O 0.8804(6) 0.6375(7) 0.7744(4)
H19 H 0.8774(16) 0.611(4) 0.796(9)
C31 C 0.9770(6) 0.6474(4) 0.7784(4)
H22 H 0.9689(6) 0.6851(4) 0.7794(4)
Cd10_2 Cd 1.000 0.155900(13) 0.250
O16 O 0.6976(2) 0.64966(10) 0.32950(16)
O18 O 0.5674(2) 0.68549(13) 0.45254(16)
O21 O 0.0168(2) 0.14251(10) 0.14097(14)
O22 O 0.4832(2) 0.64251(10) 0.35903(14)
H37 H 0.0142833 0.0571356 0.298213
O8_2 O 1.000 0.06997(19) 0.250
N4 N 0.3897(2) 0.29405(11) 0.11527(19)
O10 O 0.3027(7) 0.53762(14) 0.1082(4)
C34 C 0.3529(4) 0.51324(14) 0.0761(2)
O11 O 0.3948(3) 0.53606(11) 0.0385(2)
C35 C 0.3611(4) 0.45530(15) 0.0833(3)
O12 O 0.8024(2) 0.14966(10) 0.17050(16)
C36 C 0.3068(6) 0.43005(18) 0.1236(4)
H25 H 0.2636(6) 0.44897(18) 0.1440(4)
C37 C 0.3165(5) 0.37707(16) 0.1336(4)
H26 H 0.2797(5) 0.36053(16) 0.1607(4)
O13 O 0.87746(19) 0.22073(11) 0.22185(15)
C38 C 0.3802(3) 0.34877(13) 0.1038(2)
C39 C 0.4332(3) 0.37337(14) 0.0626(2)
H27 H 0.4749(3) 0.35424(14) 0.0414(2)
C40 C 0.4240(3) 0.42649(15) 0.0532(2)
H28 H 0.4608(3) 0.44294(15) 0.0261(2)
C41 C 0.4908(2) 0.27010(13) 0.13195(19)
C42 C 0.5024(3) 0.21954(13) 0.1115(2)
H29 H 0.4429(3) 0.20106(13) 0.0862(2)
C43 C 0.0138(3) 0.17783(14) 0.09610(18)
C44 C 0.6016(3) 0.19663(14) 0.12848(19)
H30 H 0.6082(3) 0.16281(14) 0.11429(19)
C45 C 0.6915(2) 0.22306(13) 0.16627(18)
C46 C 0.6798(3) 0.27343(15) 0.1867(2)
H31 H 0.7394(3) 0.29189(15) 0.2118(2)
C47 C 0.5809(3) 0.29650(14) 0.1702(2)
H32 H 0.5744(3) 0.33019(14) 0.1849(2)
C48 C 0.7972(3) 0.19631(15) 0.18647(19)
C49 C 0.2971(2) 0.26484(13) 0.11092(19)
C50 C 0.2007(3) 0.27805(16) 0.0630(2)
H33 H 0.1978(3) 0.30595(16) 0.0333(2)
C51 C 0.1097(3) 0.25011(16) 0.0592(2)
H34 H 0.0458(3) 0.25962(16) 0.0272(2)
C52 C 0.1120(3) 0.20835(13) 0.10199(18)
C53 C 0.2083(3) 0.19475(14) 0.14925(19)
H35 H 0.2113(3) 0.16615(14) 0.17781(19)
C54 C 0.2994(3) 0.22285(15) 0.15451(19)
H36 H 0.3627(3) 0.21373(15) 0.18733(19)
Cd8 Cd 0.83896(2) 0.115871(9) 0.076097(13)
O17 O 0.3024(2) 0.64966(10) 0.17050(16)
O19 O 0.4326(2) 0.68549(13) 0.04746(16)
O23 O 0.5168(2) 0.64251(10) 0.14097(14)
H38 H 0.929499 0.0571356 0.221636
O14 O 0.9326(2) 0.18549(13) 0.04746(16)
H38_2 H 0.0705006 0.0571356 0.278364
H37_2 H 0.985717 0.0571356 0.201787
O1_2 O 0.1973(7) 0.03762(14) 0.3918(4)
C1_2 C 0.1471(4) 0.01324(14) 0.4239(2)
O2_2 O 0.1052(3) 0.03606(11) 0.4615(2)
N2_2 N 0.2965(4) 0.13259(17) 0.5210(2)
O7_2 O 0.6196(6) 0.1375(7) 0.7256(4)
H5_2 H 0.6226(16) 0.111(4) 0.704(9)
C11_2 C 0.3141(4) 0.17540(18) 0.5537(2)
H7_2 H 0.2752(4) 0.20423(18) 0.5330(2)
C12_2 C 0.3871(4) 0.1818(2) 0.6179(3)
H8_2 H 0.3940(4) 0.2142(2) 0.6390(3)
C13_2 C 0.4464(5) 0.1438(3) 0.6496(4)
C14_2 C 0.5230(6) 0.1474(4) 0.7216(4)
H9_2 H 0.5311(6) 0.1851(4) 0.7206(4)
C26_2 C 0.3595(13) 0.0947(4) 0.5512(7)
H17_2 H 0.3507(13) 0.0624(4) 0.5297(7)
C27_2 C 0.4373(12) 0.1001(5) 0.6124(7)
H18_2 H 0.4849(12) 0.0731(5) 0.6287(7)
N3_2 N 0.7035(4) 0.13259(17) 0.9790(2)
O9_2 O 0.3804(6) 0.1375(7) 0.7744(4)
H19_2 H 0.3774(16) 0.111(4) 0.796(9)
C28_2 C 0.6859(4) 0.17540(18) 0.9463(2)
H20_2 H 0.7248(4) 0.20423(18) 0.9670(2)
C29_2 C 0.6129(4) 0.1818(2) 0.8821(3)
H21_2 H 0.6060(4) 0.2142(2) 0.8610(3)
C30_2 C 0.5536(5) 0.1438(3) 0.8504(4)
C31_2 C 0.4770(6) 0.1474(4) 0.7784(4)
H22_2 H 0.4689(6) 0.1851(4) 0.7794(4)
C32_2 C 0.6405(13) 0.0947(4) 0.9488(7)
H23_2 H 0.6493(13) 0.0624(4) 0.9703(7)
C33_2 C 0.5627(12) 0.1001(5) 0.8876(7)
H24_2 H 0.5151(12) 0.0731(5) 0.8713(7)
N1_2 N 0.1103(2) 0.79405(11) 0.38473(19)
C2_2 C 0.1389(4) 0.95530(15) 0.4167(3)
C3_2 C 0.1932(6) 0.93005(18) 0.3764(4)
H1_2 H 0.2364(6) 0.94897(18) 0.3560(4)
C4_2 C 0.1835(5) 0.87707(16) 0.3664(4)
H2_2 H 0.2203(5) 0.86053(16) 0.3393(4)
C5_2 C 0.1198(3) 0.84877(13) 0.3962(2)
C6_2 C 0.0668(3) 0.87337(14) 0.4374(2)
H3_2 H 0.0251(3) 0.85424(14) 0.4586(2)
C7_2 C 0.0760(3) 0.92649(15) 0.4468(2)
H4_2 H 0.0392(3) 0.94294(15) 0.4739(2)
C8_2 C 0.0092(2) 0.77010(13) 0.36805(19)
H6_2 H 0.0571(3) 0.70106(13) 0.4138(2)
C10_2 C 0.4862(3) 0.67783(14) 0.40390(18)
C20_2 C 0.2029(2) 0.76484(13) 0.38908(19)
C21_2 C 0.2993(3) 0.77805(16) 0.4370(2)
H13_2 H 0.3022(3) 0.80595(16) 0.4667(2)
C22_2 C 0.3903(3) 0.75011(16) 0.4408(2)
H14_2 H 0.4542(3) 0.75962(16) 0.4728(2)
C23_2 C 0.3880(3) 0.70835(13) 0.39801(18)
C24_2 C 0.2917(3) 0.69475(14) 0.35075(19)
H15_2 H 0.2887(3) 0.66615(14) 0.32219(19)
C25_2 C 0.2006(3) 0.72285(15) 0.34549(19)
H16_2 H 0.1373(3) 0.71373(15) 0.31267(19)
Cd10_3 Cd 0.500 0.655900(13) 0.250
O4_2 O 0.62254(19) 0.72073(11) 0.27815(15)
O8_3 O 0.500 0.56997(19) 0.250
C9_2 C 0.9976(3) 0.71954(13) 0.3885(2)
C15_2 C 0.8984(3) 0.69663(14) 0.37152(19)
H10_2 H 0.8918(3) 0.66281(14) 0.38571(19)
C16_2 C 0.8085(2) 0.72306(13) 0.33373(18)
C17_2 C 0.8202(3) 0.77343(15) 0.3133(2)
H11_2 H 0.7606(3) 0.79189(15) 0.2882(2)
C18_2 C 0.9191(3) 0.79650(14) 0.3298(2)
H12_2 H 0.9256(3) 0.83019(14) 0.3151(2)
C19_2 C 0.7028(3) 0.69631(15) 0.31353(19)
O13_2 O 0.37746(19) 0.72073(11) 0.22185(15)
C42_2 C 0.0024(3) 0.71954(13) 0.1115(2)
C44_2 C 0.1016(3) 0.69663(14) 0.12848(19)
H30_2 H 0.1082(3) 0.66281(14) 0.11429(19)
C45_2 C 0.1915(2) 0.72306(13) 0.16627(18)
C46_2 C 0.1798(3) 0.77343(15) 0.1867(2)
H31_2 H 0.2394(3) 0.79189(15) 0.2118(2)
C47_2 C 0.0809(3) 0.79650(14) 0.1702(2)
H32_2 H 0.0744(3) 0.83019(14) 0.1849(2)
C48_2 C 0.2972(3) 0.69631(15) 0.18647(19)
O10_2 O 0.8027(7) 0.03762(14) 0.1082(4)
C34_2 C 0.8529(4) 0.01324(14) 0.0761(2)
O11_2 O 0.8948(3) 0.03606(11) 0.0385(2)
N4_2 N 0.8897(2) 0.79405(11) 0.11527(19)
C35_2 C 0.8611(4) 0.95530(15) 0.0833(3)
C36_2 C 0.8068(6) 0.93005(18) 0.1236(4)
H25_2 H 0.7636(6) 0.94897(18) 0.1440(4)
C37_2 C 0.8165(5) 0.87707(16) 0.1336(4)
H26_2 H 0.7797(5) 0.86053(16) 0.1607(4)
C38_2 C 0.8802(3) 0.84877(13) 0.1038(2)
C39_2 C 0.9332(3) 0.87337(14) 0.0626(2)
H27_2 H 0.9749(3) 0.85424(14) 0.0414(2)
C40_2 C 0.9240(3) 0.92649(15) 0.0532(2)
H28_2 H 0.9608(3) 0.94294(15) 0.0261(2)
C41_2 C 0.9908(2) 0.77010(13) 0.13195(19)
H29_2 H 0.9429(3) 0.70106(13) 0.0862(2)
C43_2 C 0.5138(3) 0.67783(14) 0.09610(18)
C49_2 C 0.7971(2) 0.76484(13) 0.11092(19)
C50_2 C 0.7007(3) 0.77805(16) 0.0630(2)
H33_2 H 0.6978(3) 0.80595(16) 0.0333(2)
C51_2 C 0.6097(3) 0.75011(16) 0.0592(2)
H34_2 H 0.5458(3) 0.75962(16) 0.0272(2)
C52_2 C 0.6120(3) 0.70835(13) 0.10199(18)
C53_2 C 0.7083(3) 0.69475(14) 0.14925(19)
H35_2 H 0.7113(3) 0.66615(14) 0.17781(19)
C54_2 C 0.7994(3) 0.72285(15) 0.15451(19)
H36_2 H 0.8627(3) 0.71373(15) 0.18733(19)
O14_2 O 0.0674(2) 0.81451(13) 0.95254(16)
Cd7 Cd 0.16104(2) 0.884129(9) 0.923903(13)
Cd9 Cd -0.000 0.844100(13) 0.750
N5 N 0.7965(4) 0.36741(17) 0.0210(2)
O8_4 O -0.000 0.93003(19) 0.750
Cd3 Cd 0.66104(2) 0.384129(9) 0.923903(13)
N4_3 N 0.6103(2) 0.70595(11) 0.88473(19)
O10_3 O 0.6973(7) 0.46238(14) 0.8918(4)
C34_3 C 0.6471(4) 0.48676(14) 0.9239(2)
O11_3 O 0.6052(3) 0.46394(11) 0.9615(2)
C35_3 C 0.6389(4) 0.54470(15) 0.9167(3)
O12_2 O 0.1976(2) 0.85034(10) 0.82950(16)
C36_3 C 0.6932(6) 0.56995(18) 0.8764(4)
H25_3 H 0.7364(6) 0.55103(18) 0.8560(4)
C37_3 C 0.6835(5) 0.62293(16) 0.8664(4)
H26_3 H 0.7203(5) 0.63947(16) 0.8393(4)
O13_3 O 0.12254(19) 0.77927(11) 0.77815(15)
C38_3 C 0.6198(3) 0.65123(13) 0.8962(2)
C39_3 C 0.5668(3) 0.62663(14) 0.9374(2)
H27_3 H 0.5251(3) 0.64576(14) 0.9586(2)
O15 O 0.9832(2) 0.85749(10) 0.85903(14)
C40_3 C 0.5760(3) 0.57351(15) 0.9468(2)
H28_3 H 0.5392(3) 0.55706(15) 0.9739(2)
C41_3 C 0.5092(2) 0.72990(13) 0.86805(19)
C42_3 C 0.4976(3) 0.78046(13) 0.8885(2)
H29_3 H 0.5571(3) 0.79894(13) 0.9138(2)
C43_3 C 0.9862(3) 0.82217(14) 0.90390(18)
C44_3 C 0.3984(3) 0.80337(14) 0.87152(19)
H30_3 H 0.3918(3) 0.83719(14) 0.88571(19)
C45_3 C 0.3085(2) 0.77694(13) 0.83373(18)
C46_3 C 0.3202(3) 0.72657(15) 0.8133(2)
H31_3 H 0.2606(3) 0.70811(15) 0.7882(2)
C47_3 C 0.4191(3) 0.70350(14) 0.8298(2)
H32_3 H 0.4256(3) 0.66981(14) 0.8151(2)
C48_3 C 0.2028(3) 0.80369(15) 0.81353(19)
C49_3 C 0.7029(2) 0.73516(13) 0.88908(19)
C50_3 C 0.7993(3) 0.72195(16) 0.9370(2)
H33_3 H 0.8022(3) 0.69405(16) 0.9667(2)
C51_3 C 0.8903(3) 0.74989(16) 0.9408(2)
H34_3 H 0.9542(3) 0.74038(16) 0.9728(2)
C52_3 C 0.8880(3) 0.79165(13) 0.89801(18)
C53_3 C 0.7917(3) 0.80525(14) 0.85075(19)
H35_3 H 0.7887(3) 0.83385(14) 0.82219(19)
C54_3 C 0.7006(3) 0.77715(15) 0.84549(19)
H36_3 H 0.6373(3) 0.78627(15) 0.81267(19)
Cd9_2 Cd 1.000 0.844100(13) 0.750
O17_2 O 0.6976(2) 0.35034(10) 0.82950(16)
O19_2 O 0.5674(2) 0.31451(13) 0.95254(16)
O20 O 0.0168(2) 0.85749(10) 0.64097(14)
O23_2 O 0.4832(2) 0.35749(10) 0.85903(14)
H38_3 H 0.0705006 0.942864 0.778364
Cd1_2 Cd 0.33896(2) 0.384129(9) 0.576097(13)
N1_3 N 0.3897(2) 0.70595(11) 0.61527(19)
O1_3 O 0.3027(7) 0.46238(14) 0.6082(4)
C1_3 C 0.3529(4) 0.48676(14) 0.5761(2)
O2_3 O 0.3948(3) 0.46394(11) 0.5385(2)
N2_3 N 0.2035(4) 0.36741(17) 0.4790(2)
C2_3 C 0.3611(4) 0.54470(15) 0.5833(3)
O3_2 O 0.8024(2) 0.85034(10) 0.67050(16)
C3_3 C 0.3068(6) 0.56995(18) 0.6236(4)
H1_3 H 0.2636(6) 0.55103(18) 0.6440(4)
C4_3 C 0.3165(5) 0.62293(16) 0.6336(4)
H2_3 H 0.2797(5) 0.63947(16) 0.6607(4)
O4_3 O 0.87746(19) 0.77927(11) 0.72185(15)
C5_3 C 0.3802(3) 0.65123(13) 0.6038(2)
C6_3 C 0.4332(3) 0.62663(14) 0.5626(2)
H3_3 H 0.4749(3) 0.64576(14) 0.5414(2)
C7_3 C 0.4240(3) 0.57351(15) 0.5532(2)
H4_3 H 0.4608(3) 0.55706(15) 0.5261(2)
C8_3 C 0.4908(2) 0.72990(13) 0.63195(19)
O8_5 O 1.000 0.93003(19) 0.750
C9_3 C 0.5024(3) 0.78046(13) 0.6115(2)
H6_3 H 0.4429(3) 0.79894(13) 0.5862(2)
C10_3 C 0.0138(3) 0.82217(14) 0.59610(18)
C11_3 C 0.1859(4) 0.32460(18) 0.4463(2)
H7_3 H 0.2248(4) 0.29577(18) 0.4670(2)
C12_3 C 0.1129(4) 0.3182(2) 0.3821(3)
H8_3 H 0.1060(4) 0.2858(2) 0.3610(3)
C13_3 C 0.0536(5) 0.3562(3) 0.3504(4)
C15_3 C 0.6016(3) 0.80337(14) 0.62848(19)
H10_3 H 0.6082(3) 0.83719(14) 0.61429(19)
C16_3 C 0.6915(2) 0.77694(13) 0.66627(18)
C17_3 C 0.6798(3) 0.72657(15) 0.6867(2)
H11_3 H 0.7394(3) 0.70811(15) 0.7118(2)
C18_3 C 0.5809(3) 0.70350(14) 0.6702(2)
H12_3 H 0.5744(3) 0.66981(14) 0.6849(2)
C19_3 C 0.7972(3) 0.80369(15) 0.68647(19)
C20_3 C 0.2971(2) 0.73516(13) 0.61092(19)
C21_3 C 0.2007(3) 0.72195(16) 0.5630(2)
H13_3 H 0.1978(3) 0.69405(16) 0.5333(2)
C22_3 C 0.1097(3) 0.74989(16) 0.5592(2)
H14_3 H 0.0458(3) 0.74038(16) 0.5272(2)
C23_3 C 0.1120(3) 0.79165(13) 0.60199(18)
C24_3 C 0.2083(3) 0.80525(14) 0.64925(19)
H15_3 H 0.2113(3) 0.83385(14) 0.67781(19)
C25_3 C 0.2994(3) 0.77715(15) 0.65451(19)
H16_3 H 0.3627(3) 0.78627(15) 0.68733(19)
C26_3 C 0.1405(13) 0.4053(4) 0.4488(7)
H17_3 H 0.1493(13) 0.4376(4) 0.4703(7)
C27_3 C 0.0627(12) 0.3999(5) 0.3876(7)
H18_3 H 0.0151(12) 0.4269(5) 0.3713(7)
O9_3 O 0.1196(6) 0.3625(7) 0.2256(4)
H19_3 H 0.1226(16) 0.389(4) 0.204(9)
C31_3 C 0.0230(6) 0.3526(4) 0.2216(4)
H22_3 H 0.0311(6) 0.3149(4) 0.2206(4)
Cd5 Cd 0.83896(2) 0.884129(9) 0.576097(13)
O16_2 O 0.3024(2) 0.35034(10) 0.67050(16)
O18_2 O 0.4326(2) 0.31451(13) 0.54746(16)
O22_2 O 0.5168(2) 0.35749(10) 0.64097(14)
H37_3 H 0.985717 0.942864 0.701787
O5_2 O 0.9326(2) 0.81451(13) 0.54746(16)
O7_3 O 0.8804(6) 0.3625(7) 0.2744(4)
H5_3 H 0.8774(16) 0.389(4) 0.296(9)
C14_3 C 0.9770(6) 0.3526(4) 0.2784(4)
H9_3 H 0.9689(6) 0.3149(4) 0.2794(4)
C28_3 C 0.8141(4) 0.32460(18) 0.0537(2)
H20_3 H 0.7752(4) 0.29577(18) 0.0330(2)
C29_3 C 0.8871(4) 0.3182(2) 0.1179(3)
H21_3 H 0.8940(4) 0.2858(2) 0.1390(3)
C30_3 C 0.9464(5) 0.3562(3) 0.1496(4)
C32_3 C 0.8595(13) 0.4053(4) 0.0512(7)
H23_3 H 0.8507(13) 0.4376(4) 0.0297(7)
C33_3 C 0.9373(12) 0.3999(5) 0.1124(7)
H24_3 H 0.9849(12) 0.4269(5) 0.1287(7)
H37_4 H 0.0142833 0.942864 0.798213
H38_4 H 0.929499 0.942864 0.721636
N4_4 N 0.1103(2) 0.20595(11) 0.88473(19)
C35_4 C 0.1389(4) 0.04470(15) 0.9167(3)
C36_4 C 0.1932(6) 0.06995(18) 0.8764(4)
H25_4 H 0.2364(6) 0.05103(18) 0.8560(4)
C37_4 C 0.1835(5) 0.12293(16) 0.8664(4)
H26_4 H 0.2203(5) 0.13947(16) 0.8393(4)
C38_4 C 0.1198(3) 0.15123(13) 0.8962(2)
C39_4 C 0.0668(3) 0.12663(14) 0.9374(2)
H27_4 H 0.0251(3) 0.14576(14) 0.9586(2)
C40_4 C 0.0760(3) 0.07351(15) 0.9468(2)
H28_4 H 0.0392(3) 0.05706(15) 0.9739(2)
C41_4 C 0.0092(2) 0.22990(13) 0.86805(19)
H29_4 H 0.0571(3) 0.29894(13) 0.9138(2)
C43_4 C 0.4862(3) 0.32217(14) 0.90390(18)
C49_4 C 0.2029(2) 0.23516(13) 0.88908(19)
C50_4 C 0.2993(3) 0.22195(16) 0.9370(2)
H33_4 H 0.3022(3) 0.19405(16) 0.9667(2)
C51_4 C 0.3903(3) 0.24989(16) 0.9408(2)
H34_4 H 0.4542(3) 0.24038(16) 0.9728(2)
C52_4 C 0.3880(3) 0.29165(13) 0.89801(18)
C53_4 C 0.2917(3) 0.30525(14) 0.85075(19)
H35_4 H 0.2887(3) 0.33385(14) 0.82219(19)
C54_4 C 0.2006(3) 0.27715(15) 0.84549(19)
H36_4 H 0.1373(3) 0.28627(15) 0.81267(19)
Cd9_3 Cd 0.500 0.344100(13) 0.750
N5_2 N 0.2965(4) 0.86741(17) 0.0210(2)
O10_4 O 0.1973(7) 0.96238(14) 0.8918(4)
C34_4 C 0.1471(4) 0.98676(14) 0.9239(2)
O11_4 O 0.1052(3) 0.96394(11) 0.9615(2)
O4_4 O 0.37746(19) 0.27927(11) 0.72185(15)
O8_6 O 0.500 0.43003(19) 0.750
C9_4 C 0.0024(3) 0.28046(13) 0.6115(2)
C15_4 C 0.1016(3) 0.30337(14) 0.62848(19)
H10_4 H 0.1082(3) 0.33719(14) 0.61429(19)
C16_4 C 0.1915(2) 0.27694(13) 0.66627(18)
C17_4 C 0.1798(3) 0.22657(15) 0.6867(2)
H11_4 H 0.2394(3) 0.20811(15) 0.7118(2)
C18_4 C 0.0809(3) 0.20350(14) 0.6702(2)
H12_4 H 0.0744(3) 0.16981(14) 0.6849(2)
C19_4 C 0.2972(3) 0.30369(15) 0.68647(19)
O13_4 O 0.62254(19) 0.27927(11) 0.77815(15)
C42_4 C 0.9976(3) 0.28046(13) 0.8885(2)
C44_4 C 0.8984(3) 0.30337(14) 0.87152(19)
H30_4 H 0.8918(3) 0.33719(14) 0.88571(19)
C45_4 C 0.8085(2) 0.27694(13) 0.83373(18)
C46_4 C 0.8202(3) 0.22657(15) 0.8133(2)
H31_4 H 0.7606(3) 0.20811(15) 0.7882(2)
C47_4 C 0.9191(3) 0.20350(14) 0.8298(2)
H32_4 H 0.9256(3) 0.16981(14) 0.8151(2)
C48_4 C 0.7028(3) 0.30369(15) 0.81353(19)
N1_4 N 0.8897(2) 0.20595(11) 0.61527(19)
C2_4 C 0.8611(4) 0.04470(15) 0.5833(3)
C3_4 C 0.8068(6) 0.06995(18) 0.6236(4)
H1_4 H 0.7636(6) 0.05103(18) 0.6440(4)
C4_4 C 0.8165(5) 0.12293(16) 0.6336(4)
H2_4 H 0.7797(5) 0.13947(16) 0.6607(4)
C5_4 C 0.8802(3) 0.15123(13) 0.6038(2)
C6_4 C 0.9332(3) 0.12663(14) 0.5626(2)
H3_4 H 0.9749(3) 0.14576(14) 0.5414(2)
C7_4 C 0.9240(3) 0.07351(15) 0.5532(2)
H4_4 H 0.9608(3) 0.05706(15) 0.5261(2)
C8_4 C 0.9908(2) 0.22990(13) 0.63195(19)
H6_4 H 0.9429(3) 0.29894(13) 0.5862(2)
C10_4 C 0.5138(3) 0.32217(14) 0.59610(18)
C20_4 C 0.7971(2) 0.23516(13) 0.61092(19)
C21_4 C 0.7007(3) 0.22195(16) 0.5630(2)
H13_4 H 0.6978(3) 0.19405(16) 0.5333(2)
C22_4 C 0.6097(3) 0.24989(16) 0.5592(2)
H14_4 H 0.5458(3) 0.24038(16) 0.5272(2)
C23_4 C 0.6120(3) 0.29165(13) 0.60199(18)
C24_4 C 0.7083(3) 0.30525(14) 0.64925(19)
H15_4 H 0.7113(3) 0.33385(14) 0.67781(19)
C25_4 C 0.7994(3) 0.27715(15) 0.65451(19)
H16_4 H 0.8627(3) 0.28627(15) 0.68733(19)
O1_4 O 0.8027(7) 0.96238(14) 0.6082(4)
C1_4 C 0.8529(4) 0.98676(14) 0.5761(2)
O2_4 O 0.8948(3) 0.96394(11) 0.5385(2)
N2_4 N 0.7035(4) 0.86741(17) 0.4790(2)
O7_4 O 0.3804(6) 0.8625(7) 0.2744(4)
H5_4 H 0.3774(16) 0.889(4) 0.296(9)
C11_4 C 0.6859(4) 0.82460(18) 0.4463(2)
H7_4 H 0.7248(4) 0.79577(18) 0.4670(2)
C12_4 C 0.6129(4) 0.8182(2) 0.3821(3)
H8_4 H 0.6060(4) 0.7858(2) 0.3610(3)
C13_4 C 0.5536(5) 0.8562(3) 0.3504(4)
C14_4 C 0.4770(6) 0.8526(4) 0.2784(4)
H9_4 H 0.4689(6) 0.8149(4) 0.2794(4)
C26_4 C 0.6405(13) 0.9053(4) 0.4488(7)
H17_4 H 0.6493(13) 0.9376(4) 0.4703(7)
C27_4 C 0.5627(12) 0.8999(5) 0.3876(7)
H18_4 H 0.5151(12) 0.9269(5) 0.3713(7)
O9_4 O 0.6196(6) 0.8625(7) 0.2256(4)
H19_4 H 0.6226(16) 0.889(4) 0.204(9)
C28_4 C 0.3141(4) 0.82460(18) 0.0537(2)
H20_4 H 0.2752(4) 0.79577(18) 0.0330(2)
C29_4 C 0.3871(4) 0.8182(2) 0.1179(3)
H21_4 H 0.3940(4) 0.7858(2) 0.1390(3)
C30_4 C 0.4464(5) 0.8562(3) 0.1496(4)
C31_4 C 0.5230(6) 0.8526(4) 0.2216(4)
H22_4 H 0.5311(6) 0.8149(4) 0.2206(4)
C32_4 C 0.3595(13) 0.9053(4) 0.0512(7)
H23_4 H 0.3507(13) 0.9376(4) 0.0297(7)
C33_4 C 0.4373(12) 0.8999(5) 0.1124(7)
H24_4 H 0.4849(12) 0.9269(5) 0.1287(7)
loop_
_geom_bond_atom_site_label_1
_geom_bond_atom_site_label_2
_geom_bond_site_symmetry_1
_geom_bond_site_symmetry_2
O7 H5 1_555 1_555
C14 O7 1_555 1_555
H9 C14 1_555 1_555
N3 C28 1_555 1_555
C28 H20 1_555 1_555
C29 C28 1_555 1_555
H21 C29 1_555 1_555
C30 C29 1_555 1_555
C32 N3 1_555 1_555
H23 C32 1_555 1_555
C33 C30 1_555 1_555
H24 C33 1_555 1_555
Cd6 O5 1_555 1_555
C32 C33 1_555 1_555
Cd1 O1 1_555 1_555
N1 C5 1_555 1_555
O1 C1 1_555 1_555
C1 O2 1_555 1_555
O2 Cd1 1_555 1_555
Cd10 O3 1_555 1_555
N2 Cd1 1_555 1_555
C2 C1 1_555 1_555
O3 C19 1_555 1_555
C3 C2 1_555 1_555
H1 C3 1_555 1_555
C4 C3 1_555 1_555
H2 C4 1_555 1_555
O4 Cd10 1_555 1_555
C5 C4 1_555 1_555
C6 C5 1_555 1_555
H3 C6 1_555 1_555
O6 C10 1_555 1_555
C7 C2 1_555 1_555
H4 C7 1_555 1_555
C8 N1 1_555 1_555
O8 Cd10 1_555 1_555
C9 C8 1_555 1_555
H6 C9 1_555 1_555
C10 C23 1_555 1_555
C11 N2 1_555 1_555
H7 C11 1_555 1_555
C12 C11 1_555 1_555
H8 C12 1_555 1_555
C13 C12 1_555 1_555
C15 C9 1_555 1_555
H10 C15 1_555 1_555
C16 C15 1_555 1_555
C17 C16 1_555 1_555
H11 C17 1_555 1_555
C18 C8 1_555 1_555
H12 C18 1_555 1_555
C19 O4 1_555 1_555
C20 N1 1_555 1_555
C21 C20 1_555 1_555
H13 C21 1_555 1_555
C22 C21 1_555 1_555
H14 C22 1_555 1_555
C23 C22 1_555 1_555
C24 C23 1_555 1_555
H15 C24 1_555 1_555
C25 C20 1_555 1_555
H16 C25 1_555 1_555
C26 N2 1_555 1_555
H17 C26 1_555 1_555
C27 C13 1_555 1_555
H18 C27 1_555 1_555
O9 H19 1_555 1_555
H22 C31 1_555 1_555
Cd6 O3 1_555 1_555
Cd10_2 O6 1_555 1_555
O16 Cd1 1_555 1_555
O18 Cd1 1_555 1_555
O21 Cd10 1_555 1_555
O22 Cd1 1_555 1_555
C6 C7 1_555 1_555
C16 C19 1_555 1_555
C17 C18 1_555 1_555
C24 C25 1_555 1_555
C26 C27 1_555 1_555
O9 C31 1_555 1_555
O8 H37 1_555 1_555
O8_2 Cd10_2 1_555 1_555
Cd4 O10 1_555 1_555
N4 C38 1_555 1_555
O10 C34 1_555 1_555
C34 O11 1_555 1_555
O11 Cd4 1_555 1_555
C35 C34 1_555 1_555
O12 Cd10_2 1_555 1_555
C36 C35 1_555 1_555
H25 C36 1_555 1_555
C37 C36 1_555 1_555
H26 C37 1_555 1_555
O13 Cd10_2 1_555 1_555
C38 C37 1_555 1_555
C39 C38 1_555 1_555
H27 C39 1_555 1_555
O21 C43 1_555 1_555
C40 C35 1_555 1_555
H28 C40 1_555 1_555
C41 N4 1_555 1_555
C42 C41 1_555 1_555
H29 C42 1_555 1_555
C43 C52 1_555 1_555
C44 C42 1_555 1_555
H30 C44 1_555 1_555
C45 C44 1_555 1_555
C46 C45 1_555 1_555
H31 C46 1_555 1_555
C47 C41 1_555 1_555
H32 C47 1_555 1_555
C48 O12 1_555 1_555
C49 N4 1_555 1_555
C50 C49 1_555 1_555
H33 C50 1_555 1_555
C51 C50 1_555 1_555
H34 C51 1_555 1_555
C52 C51 1_555 1_555
C53 C52 1_555 1_555
H35 C53 1_555 1_555
C54 C49 1_555 1_555
H36 C54 1_555 1_555
Cd8 O12 1_555 1_555
O17 Cd4 1_555 1_555
O19 Cd4 1_555 1_555
O23 Cd4 1_555 1_555
O13 C48 1_555 1_555
C39 C40 1_555 1_555
C45 C48 1_555 1_555
C46 C47 1_555 1_555
C53 C54 1_555 1_555
O8_2 H38 1_555 1_555
Cd8 O14 1_555 1_555
O8 H38_2 1_555 1_555
O8_2 H37_2 1_555 1_555
Cd6 O1_2 1_555 1_555
O1_2 C1_2 1_555 1_555
C1_2 O2_2 1_555 1_555
O2_2 Cd6 1_555 1_555
N2_2 Cd6 1_555 1_555
O7_2 H5_2 1_555 1_555
C11_2 N2_2 1_555 1_555
H7_2 C11_2 1_555 1_555
C12_2 C11_2 1_555 1_555
H8_2 C12_2 1_555 1_555
C13_2 C12_2 1_555 1_555
C14_2 O7_2 1_555 1_555
H9_2 C14_2 1_555 1_555
C26_2 N2_2 1_555 1_555
H17_2 C26_2 1_555 1_555
C27_2 C13_2 1_555 1_555
H18_2 C27_2 1_555 1_555
N3_2 C28_2 1_555 1_555
O9_2 H19_2 1_555 1_555
C28_2 H20_2 1_555 1_555
C29_2 C28_2 1_555 1_555
H21_2 C29_2 1_555 1_555
C30_2 C29_2 1_555 1_555
C31_2 C14_2 1_555 1_555
H22_2 C31_2 1_555 1_555
C32_2 N3_2 1_555 1_555
H23_2 C32_2 1_555 1_555
C33_2 C30_2 1_555 1_555
H24_2 C33_2 1_555 1_555
C13_2 C14_2 1_555 1_555
C26_2 C27_2 1_555 1_555
O9_2 C31_2 1_555 1_555
C30_2 C31_2 1_555 1_555
C32_2 C33_2 1_555 1_555
N1_2 C5_2 1_555 1_555
C3_2 C2_2 1_555 1_555
H1_2 C3_2 1_555 1_555
C4_2 C3_2 1_555 1_555
H2_2 C4_2 1_555 1_555
C5_2 C4_2 1_555 1_555
O18 C10_2 1_555 1_555
C6_2 C5_2 1_555 1_555
H3_2 C6_2 1_555 1_555
O22 C10_2 1_555 1_555
C7_2 C2_2 1_555 1_555
H4_2 C7_2 1_555 1_555
C8_2 N1_2 1_555 1_555
C10_2 C23_2 1_555 1_555
C20_2 N1_2 1_555 1_555
C21_2 C20_2 1_555 1_555
H13_2 C21_2 1_555 1_555
C22_2 C21_2 1_555 1_555
H14_2 C22_2 1_555 1_555
C23_2 C22_2 1_555 1_555
C24_2 C23_2 1_555 1_555
H15_2 C24_2 1_555 1_555
C25_2 C20_2 1_555 1_555
H16_2 C25_2 1_555 1_555
Cd10_3 O22 1_555 1_555
C6_2 C7_2 1_555 1_555
C24_2 C25_2 1_555 1_555
Cd10_3 O16 1_555 1_555
O16 C19_2 1_555 1_555
O4_2 Cd10_3 1_555 1_555
O8_3 Cd10_3 1_555 1_555
C15_2 C9_2 1_555 1_555
H10_2 C15_2 1_555 1_555
C16_2 C15_2 1_555 1_555
C17_2 C16_2 1_555 1_555
H11_2 C17_2 1_555 1_555
H12_2 C18_2 1_555 1_555
C19_2 O4_2 1_555 1_555
O17 Cd10_3 1_555 1_555
O13_2 Cd10_3 1_555 1_555
C44_2 C42_2 1_555 1_555
H30_2 C44_2 1_555 1_555
C45_2 C44_2 1_555 1_555
C46_2 C45_2 1_555 1_555
H31_2 C46_2 1_555 1_555
H32_2 C47_2 1_555 1_555
C48_2 O17 1_555 1_555
O23 Cd10_3 1_555 1_555
C16_2 C19_2 1_555 1_555
C17_2 C18_2 1_555 1_555
O13_2 C48_2 1_555 1_555
C45_2 C48_2 1_555 1_555
C46_2 C47_2 1_555 1_555
Cd8 O10_2 1_555 1_555
O10_2 C34_2 1_555 1_555
C34_2 O11_2 1_555 1_555
O11_2 Cd8 1_555 1_555
N4_2 C38_2 1_555 1_555
C36_2 C35_2 1_555 1_555
H25_2 C36_2 1_555 1_555
C37_2 C36_2 1_555 1_555
H26_2 C37_2 1_555 1_555
C38_2 C37_2 1_555 1_555
O19 C43_2 1_555 1_555
C39_2 C38_2 1_555 1_555
H27_2 C39_2 1_555 1_555
O23 C43_2 1_555 1_555
C40_2 C35_2 1_555 1_555
H28_2 C40_2 1_555 1_555
C41_2 N4_2 1_555 1_555
C43_2 C52_2 1_555 1_555
C49_2 N4_2 1_555 1_555
C50_2 C49_2 1_555 1_555
H33_2 C50_2 1_555 1_555
C51_2 C50_2 1_555 1_555
H34_2 C51_2 1_555 1_555
C52_2 C51_2 1_555 1_555
C53_2 C52_2 1_555 1_555
H35_2 C53_2 1_555 1_555
C54_2 C49_2 1_555 1_555
H36_2 C54_2 1_555 1_555
C39_2 C40_2 1_555 1_555
C53_2 C54_2 1_555 1_555
Cd7 O14_2 1_555 1_555
O8_4 Cd9 1_555 1_555
Cd3 O10_3 1_555 1_555
N4_3 C38_3 1_555 1_555
O10_3 C34_3 1_555 1_555
C34_3 O11_3 1_555 1_555
O11_3 Cd3 1_555 1_555
C35_3 C34_3 1_555 1_555
O12_2 Cd9 1_555 1_555
C36_3 C35_3 1_555 1_555
H25_3 C36_3 1_555 1_555
C37_3 C36_3 1_555 1_555
H26_3 C37_3 1_555 1_555
O13_3 Cd9 1_555 1_555
C38_3 C37_3 1_555 1_555
C39_3 C38_3 1_555 1_555
H27_3 C39_3 1_555 1_555
O15 C43_3 1_555 1_555
C40_3 C35_3 1_555 1_555
H28_3 C40_3 1_555 1_555
C41_3 N4_3 1_555 1_555
C42_3 C41_3 1_555 1_555
H29_3 C42_3 1_555 1_555
C43_3 C52_3 1_555 1_555
C44_3 C42_3 1_555 1_555
H30_3 C44_3 1_555 1_555
C45_3 C44_3 1_555 1_555
C46_3 C45_3 1_555 1_555
H31_3 C46_3 1_555 1_555
C47_3 C41_3 1_555 1_555
H32_3 C47_3 1_555 1_555
C48_3 O12_2 1_555 1_555
C49_3 N4_3 1_555 1_555
C50_3 C49_3 1_555 1_555
H33_3 C50_3 1_555 1_555
C51_3 C50_3 1_555 1_555
H34_3 C51_3 1_555 1_555
C52_3 C51_3 1_555 1_555
C53_3 C52_3 1_555 1_555
H35_3 C53_3 1_555 1_555
C54_3 C49_3 1_555 1_555
H36_3 C54_3 1_555 1_555
Cd7 O12_2 1_555 1_555
Cd9_2 O15 1_555 1_555
O17_2 Cd3 1_555 1_555
O19_2 Cd3 1_555 1_555
O20 Cd9 1_555 1_555
O23_2 Cd3 1_555 1_555
O13_3 C48_3 1_555 1_555
C39_3 C40_3 1_555 1_555
C45_3 C48_3 1_555 1_555
C46_3 C47_3 1_555 1_555
C53_3 C54_3 1_555 1_555
O8_4 H38_3 1_555 1_555
Cd1_2 O1_3 1_555 1_555
N1_3 C5_3 1_555 1_555
O1_3 C1_3 1_555 1_555
C1_3 O2_3 1_555 1_555
O2_3 Cd1_2 1_555 1_555
Cd9_2 O3_2 1_555 1_555
N2_3 Cd1_2 1_555 1_555
C2_3 C1_3 1_555 1_555
O3_2 C19_3 1_555 1_555
C3_3 C2_3 1_555 1_555
H1_3 C3_3 1_555 1_555
C4_3 C3_3 1_555 1_555
H2_3 C4_3 1_555 1_555
O4_3 Cd9_2 1_555 1_555
C5_3 C4_3 1_555 1_555
C6_3 C5_3 1_555 1_555
H3_3 C6_3 1_555 1_555
O20 C10_3 1_555 1_555
C7_3 C2_3 1_555 1_555
H4_3 C7_3 1_555 1_555
C8_3 N1_3 1_555 1_555
O8_5 Cd9_2 1_555 1_555
C9_3 C8_3 1_555 1_555
H6_3 C9_3 1_555 1_555
C10_3 C23_3 1_555 1_555
C11_3 N2_3 1_555 1_555
H7_3 C11_3 1_555 1_555
C12_3 C11_3 1_555 1_555
H8_3 C12_3 1_555 1_555
C13_3 C12_3 1_555 1_555
C15_3 C9_3 1_555 1_555
H10_3 C15_3 1_555 1_555
C16_3 C15_3 1_555 1_555
C17_3 C16_3 1_555 1_555
H11_3 C17_3 1_555 1_555
C18_3 C8_3 1_555 1_555
H12_3 C18_3 1_555 1_555
C19_3 O4_3 1_555 1_555
C20_3 N1_3 1_555 1_555
C21_3 C20_3 1_555 1_555
H13_3 C21_3 1_555 1_555
C22_3 C21_3 1_555 1_555
H14_3 C22_3 1_555 1_555
C23_3 C22_3 1_555 1_555
C24_3 C23_3 1_555 1_555
H15_3 C24_3 1_555 1_555
C25_3 C20_3 1_555 1_555
H16_3 C25_3 1_555 1_555
C26_3 N2_3 1_555 1_555
H17_3 C26_3 1_555 1_555
C27_3 C13_3 1_555 1_555
H18_3 C27_3 1_555 1_555
O9_3 H19_3 1_555 1_555
H22_3 C31_3 1_555 1_555
Cd5 O3_2 1_555 1_555
O16_2 Cd1_2 1_555 1_555
O18_2 Cd1_2 1_555 1_555
O22_2 Cd1_2 1_555 1_555
C6_3 C7_3 1_555 1_555
C16_3 C19_3 1_555 1_555
C17_3 C18_3 1_555 1_555
C24_3 C25_3 1_555 1_555
C26_3 C27_3 1_555 1_555
O9_3 C31_3 1_555 1_555
O8_5 H37_3 1_555 1_555
O7_3 H5_3 1_555 1_555
C14_3 O7_3 1_555 1_555
H9_3 C14_3 1_555 1_555
N5 C28_3 1_555 1_555
C28_3 H20_3 1_555 1_555
C29_3 C28_3 1_555 1_555
H21_3 C29_3 1_555 1_555
C30_3 C29_3 1_555 1_555
C32_3 N5 1_555 1_555
H23_3 C32_3 1_555 1_555
C33_3 C30_3 1_555 1_555
H24_3 C33_3 1_555 1_555
Cd5 O5_2 1_555 1_555
C32_3 C33_3 1_555 1_555
O8_4 H37_4 1_555 1_555
O8_5 H38_4 1_555 1_555
N4_4 C38_4 1_555 1_555
C36_4 C35_4 1_555 1_555
H25_4 C36_4 1_555 1_555
C37_4 C36_4 1_555 1_555
H26_4 C37_4 1_555 1_555
C38_4 C37_4 1_555 1_555
O19_2 C43_4 1_555 1_555
C39_4 C38_4 1_555 1_555
H27_4 C39_4 1_555 1_555
O23_2 C43_4 1_555 1_555
C40_4 C35_4 1_555 1_555
H28_4 C40_4 1_555 1_555
C41_4 N4_4 1_555 1_555
C43_4 C52_4 1_555 1_555
C49_4 N4_4 1_555 1_555
C50_4 C49_4 1_555 1_555
H33_4 C50_4 1_555 1_555
C51_4 C50_4 1_555 1_555
H34_4 C51_4 1_555 1_555
C52_4 C51_4 1_555 1_555
C53_4 C52_4 1_555 1_555
H35_4 C53_4 1_555 1_555
C54_4 C49_4 1_555 1_555
H36_4 C54_4 1_555 1_555
Cd9_3 O23_2 1_555 1_555
C39_4 C40_4 1_555 1_555
C53_4 C54_4 1_555 1_555
Cd7 O10_4 1_555 1_555
O10_4 C34_4 1_555 1_555
C34_4 O11_4 1_555 1_555
O11_4 Cd7 1_555 1_555
Cd9_3 O16_2 1_555 1_555
O16_2 C19_4 1_555 1_555
O4_4 Cd9_3 1_555 1_555
O8_6 Cd9_3 1_555 1_555
C15_4 C9_4 1_555 1_555
H10_4 C15_4 1_555 1_555
C16_4 C15_4 1_555 1_555
C17_4 C16_4 1_555 1_555
H11_4 C17_4 1_555 1_555
H12_4 C18_4 1_555 1_555
C19_4 O4_4 1_555 1_555
O17_2 Cd9_3 1_555 1_555
O13_4 Cd9_3 1_555 1_555
C44_4 C42_4 1_555 1_555
H30_4 C44_4 1_555 1_555
C45_4 C44_4 1_555 1_555
C46_4 C45_4 1_555 1_555
H31_4 C46_4 1_555 1_555
H32_4 C47_4 1_555 1_555
C48_4 O17_2 1_555 1_555
O22_2 Cd9_3 1_555 1_555
C16_4 C19_4 1_555 1_555
C17_4 C18_4 1_555 1_555
O13_4 C48_4 1_555 1_555
C45_4 C48_4 1_555 1_555
C46_4 C47_4 1_555 1_555
N1_4 C5_4 1_555 1_555
C3_4 C2_4 1_555 1_555
H1_4 C3_4 1_555 1_555
C4_4 C3_4 1_555 1_555
H2_4 C4_4 1_555 1_555
C5_4 C4_4 1_555 1_555
O18_2 C10_4 1_555 1_555
C6_4 C5_4 1_555 1_555
H3_4 C6_4 1_555 1_555
O22_2 C10_4 1_555 1_555
C7_4 C2_4 1_555 1_555
H4_4 C7_4 1_555 1_555
C8_4 N1_4 1_555 1_555
C10_4 C23_4 1_555 1_555
C20_4 N1_4 1_555 1_555
C21_4 C20_4 1_555 1_555
H13_4 C21_4 1_555 1_555
C22_4 C21_4 1_555 1_555
H14_4 C22_4 1_555 1_555
C23_4 C22_4 1_555 1_555
C24_4 C23_4 1_555 1_555
H15_4 C24_4 1_555 1_555
C25_4 C20_4 1_555 1_555
H16_4 C25_4 1_555 1_555
C6_4 C7_4 1_555 1_555
C24_4 C25_4 1_555 1_555
Cd5 O1_4 1_555 1_555
O1_4 C1_4 1_555 1_555
C1_4 O2_4 1_555 1_555
O2_4 Cd5 1_555 1_555
N2_4 Cd5 1_555 1_555
O7_4 H5_4 1_555 1_555
C11_4 N2_4 1_555 1_555
H7_4 C11_4 1_555 1_555
C12_4 C11_4 1_555 1_555
H8_4 C12_4 1_555 1_555
C13_4 C12_4 1_555 1_555
C14_4 O7_4 1_555 1_555
H9_4 C14_4 1_555 1_555
C26_4 N2_4 1_555 1_555
H17_4 C26_4 1_555 1_555
C27_4 C13_4 1_555 1_555
H18_4 C27_4 1_555 1_555
N5_2 C28_4 1_555 1_555
O9_4 H19_4 1_555 1_555
C28_4 H20_4 1_555 1_555
C29_4 C28_4 1_555 1_555
H21_4 C29_4 1_555 1_555
C30_4 C29_4 1_555 1_555
C31_4 C14_4 1_555 1_555
H22_4 C31_4 1_555 1_555
C32_4 N5_2 1_555 1_555
H23_4 C32_4 1_555 1_555
C33_4 C30_4 1_555 1_555
H24_4 C33_4 1_555 1_555
C13_4 C14_4 1_555 1_555
C26_4 C27_4 1_555 1_555
O9_4 C31_4 1_555 1_555
C30_4 C31_4 1_555 1_555
C32_4 C33_4 1_555 1_555

#END
