
###############################################################################
#
# This file contains modified crystal structure data generated from the
# MOF subset of the Cambridge Structural Database (CSD) v543 
# hosted by the Cambridge Crystallographic Data Centre (CCDC).
#
# This work is licensed under the Creative Commons
# Attribution-NonCommercial-ShareAlike 4.0 International License.
# To view a copy of this license, visit
# http://creativecommons.org/licenses/by-nc-sa/4.0/
# or send a letter to
# Creative Commons, PO Box 1866, Mountain View, CA 94042, USA.
#
# CIF created using the CSD Python API on 29 September 2022
# The structure has been converted into the P1 space group
# The structure has a 3D framework
# The original CSD entry MAJCOT is in the hexagonal crystal system
# The framework has been calculated to contain at least 10.0% void space
# The void calculation uses a probe of radius 1.32A, grid spacing 0.4
# The framework is charged, counterions have been retained in the structure
# H atom positions have been added when not included in the experimental data
# Generated hydrogen atom positions removed from atoms on special positions
#
###############################################################################

data_MAJCOT
_chemical_formula_moiety         '(C264 H320 Cu36 O112 Zr26 63+)n'
_symmetry_cell_setting           triclinic
_symmetry_space_group_name_H-M   'P 1'
_symmetry_Int_Tables_number      1
_space_group_name_Hall           'P 1'
loop_
_symmetry_equiv_pos_site_id
_symmetry_equiv_pos_as_xyz
1 x,y,z
_cell_length_a                   39.5305(14)
_cell_length_b                   39.5305(14)
_cell_length_c                   16.5773(6)
_cell_angle_alpha                90
_cell_angle_beta                 90
_cell_angle_gamma                120
_cell_volume                     22434.1
loop_
_atom_site_label
_atom_site_type_symbol
_atom_site_fract_x
_atom_site_fract_y
_atom_site_fract_z
Cu1 Cu 0.4383(10) 0.0608(10) 0.5000
Cu1_2 Cu 0.9392(10) 0.3775(14) 0.5000
Cu1_3 Cu 0.6225(14) 0.5617(10) 0.5000
Cu1_4 Cu 0.5617(10) 0.9392(10) 0.5000
Cu1_5 Cu 0.0608(10) 0.6225(14) 0.5000
Cu1_6 Cu 0.3775(14) 0.4383(10) 0.5000
Cu1_7 Cu 0.0608(10) 0.4383(10) 0.5000
Cu1_8 Cu 0.3775(14) 0.9392(10) 0.5000
Cu1_9 Cu 0.5617(10) 0.6225(14) 0.5000
Cu1_10 Cu 0.9392(10) 0.5617(10) 0.5000
Cu1_11 Cu 0.6225(14) 0.0608(10) 0.5000
Cu1_12 Cu 0.4383(10) 0.3775(14) 0.5000
Cu2 Cu 0.5343(3) 0.0687(6) 0.2895(10)
Cu2_2 Cu 0.9313(6) 0.4656(7) 0.2895(10)
Cu2_3 Cu 0.5344(7) 0.4657(3) 0.2895(10)
Cu2_4 Cu 0.4657(3) 0.9313(6) 0.2895(10)
Cu2_5 Cu 0.0687(6) 0.5344(7) 0.2895(10)
Cu2_6 Cu 0.4656(7) 0.5343(3) 0.2895(10)
Cu2_7 Cu 0.0687(6) 0.5343(3) 0.7105(10)
Cu2_8 Cu 0.4656(7) 0.9313(6) 0.7105(10)
Cu2_9 Cu 0.4657(3) 0.5344(7) 0.7105(10)
Cu2_10 Cu 0.9313(6) 0.4657(3) 0.7105(10)
Cu2_11 Cu 0.5344(7) 0.0687(6) 0.7105(10)
Cu2_12 Cu 0.5343(3) 0.4656(7) 0.7105(10)
Cu3 Cu 0.5086(5) 0.0172(9) 0.1948(17)
Cu3_2 Cu 0.9828(9) 0.4914(10) 0.1948(17)
Cu3_3 Cu 0.5086(10) 0.4914(5) 0.1948(17)
Cu3_4 Cu 0.4914(5) 0.9828(9) 0.1948(17)
Cu3_5 Cu 0.0172(9) 0.5086(10) 0.1948(17)
Cu3_6 Cu 0.4914(10) 0.5086(5) 0.1948(17)
Cu3_7 Cu 0.0172(9) 0.5086(5) 0.8052(17)
Cu3_8 Cu 0.4914(10) 0.9828(9) 0.8052(17)
Cu3_9 Cu 0.4914(5) 0.5086(10) 0.8052(17)
Cu3_10 Cu 0.9828(9) 0.4914(5) 0.8052(17)
Cu3_11 Cu 0.5086(10) 0.0172(9) 0.8052(17)
Cu3_12 Cu 0.5086(5) 0.4914(10) 0.8052(17)
Zr7 Zr -0.0000 0.45546(3) 0.39355(5)
Zr9 Zr -0.0000 0.45546(3) 0.60645(5)
O7 O 0.89454(15) 0.41355(18) 0.4189(3)
O8 O 0.93959(18) 0.4081(3) 0.3500(4)
C13 C 0.9052(2) 0.4005(3) 0.3688(6)
C14 C 0.7816(3) 0.2803(3) 0.0860(5)
C15 C 0.7814(3) 0.2794(3) 0.1703(4)
C16 C 0.8728(2) 0.3680(3) 0.3174(4)
C17 C 0.7510(2) 0.2490(2) 0.0424(8)
C18 C 0.8138(2) 0.3108(3) 0.2210(4)
C19 C 0.8116(3) 0.3117(3) 0.0406(5)
H7 H 0.8321 0.3331 0.0685
C20 C 0.8824(3) 0.3484(4) 0.2573(6)
H8 H 0.9086 0.3543 0.2501
C21 C 0.7515(2) 0.2485(2) 0.2105(7)
H9 H 0.7522 0.2478 0.2678
C22 C 0.8525(3) 0.3202(4) 0.2090(6)
H10 H 0.8586 0.3074 0.1678
C23 C 0.8359(2) 0.3584(3) 0.3275(6)
H11 H 0.8296 0.3710 0.3688
C24 C 0.8058(3) 0.3303(4) 0.2797(6)
H12 H 0.7797 0.3247 0.2878
O9 O 0.58645(18) 0.10546(15) 0.4189(3)
O10 O 0.5919(3) 0.06041(18) 0.3500(4)
C25 C 0.5995(3) 0.0948(2) 0.3688(6)
C26 C 0.7197(3) 0.2184(3) 0.0860(5)
C27 C 0.7206(3) 0.2186(3) 0.1703(4)
C28 C 0.6320(3) 0.1272(2) 0.3174(4)
C29 C 0.6892(3) 0.1862(2) 0.2210(4)
C30 C 0.6883(3) 0.1884(3) 0.0406(5)
H13 H 0.6669 0.1679 0.0685
C31 C 0.6516(4) 0.1176(3) 0.2573(6)
H14 H 0.6457 0.0914 0.2501
C32 C 0.6798(4) 0.1475(3) 0.2090(6)
H15 H 0.6926 0.1414 0.1678
C33 C 0.6416(3) 0.1641(2) 0.3275(6)
H16 H 0.6290 0.1704 0.3688
C34 C 0.6697(4) 0.1942(3) 0.2797(6)
H17 H 0.6753 0.2203 0.2878
Zr4 Zr 0.53578(2) 0.07156(3) 0.5000
Zr6 Zr 0.92844(3) 0.46422(4) 0.5000
Zr7_2 Zr 1.0000 0.45546(3) 0.39355(5)
Zr8 Zr 0.54454(3) -0.0000 0.39355(5)
Zr2 Zr 0.45546(3) -0.0000 0.39355(5)
O1 O 0.58645(18) 0.10546(15) 0.5811(3)
O2 O 0.4577(3) 0.0000 0.2633(5)
O3 O 0.5919(3) 0.06041(18) 0.6500(4)
C1 C 0.5995(3) 0.0948(2) 0.6312(6)
C2 C 0.7197(3) 0.2184(3) 0.9140(5)
C3 C 0.7206(3) 0.2186(3) 0.8297(4)
C4 C 0.6320(3) 0.1272(2) 0.6826(4)
C5 C 0.7510(2) 0.2490(2) 0.9576(8)
C6 C 0.6892(3) 0.1862(2) 0.7790(4)
C7 C 0.6883(3) 0.1884(3) 0.9594(5)
H1 H 0.6669 0.1679 0.9315
C8 C 0.6516(4) 0.1176(3) 0.7427(6)
H2 H 0.6457 0.0914 0.7499
C9 C 0.7515(2) 0.2485(2) 0.7895(7)
H3 H 0.7522 0.2478 0.7322
C10 C 0.6798(4) 0.1475(3) 0.7910(6)
H4 H 0.6926 0.1414 0.8322
C11 C 0.6416(3) 0.1641(2) 0.6725(6)
H5 H 0.6290 0.1704 0.6312
C12 C 0.6697(4) 0.1942(3) 0.7203(6)
H6 H 0.6753 0.2203 0.7122
O4 O 0.46805(14) 0.03650(14) 0.5000
O5 O 0.4008(3) -0.0000 0.3965(7)
O6 O 0.51837(13) 0.0367(3) 0.3900(5)
O11 O 0.89454(15) 0.41355(18) 0.5811(3)
O12 O 0.93959(18) 0.4081(3) 0.6500(4)
C35 C 0.9052(2) 0.4005(3) 0.6312(6)
C36 C 0.7816(3) 0.2803(3) 0.9140(5)
C37 C 0.7814(3) 0.2794(3) 0.8297(4)
C38 C 0.8728(2) 0.3680(3) 0.6826(4)
C39 C 0.8138(2) 0.3108(3) 0.7790(4)
C40 C 0.8116(3) 0.3117(3) 0.9594(5)
H18 H 0.8321 0.3331 0.9315
C41 C 0.8824(3) 0.3484(4) 0.7427(6)
H19 H 0.9086 0.3543 0.7499
C42 C 0.8525(3) 0.3202(4) 0.7910(6)
H20 H 0.8586 0.3074 0.8322
C43 C 0.8359(2) 0.3584(3) 0.6725(6)
H21 H 0.8296 0.3710 0.6312
C44 C 0.8058(3) 0.3303(4) 0.7203(6)
H22 H 0.7797 0.3247 0.7122
O13 O 0.5423(3) 0.0000 0.2633(5)
O14 O 0.5992(3) -0.0000 0.3965(7)
O15 O 0.56845(20) 0.03650(14) 0.5000
O16 O 0.51833(33) 0.0367(3) 0.6100(5)
Zr9_2 Zr 1.0000 0.45546(3) 0.60645(5)
Zr10 Zr 0.45546(3) -0.0000 0.60645(5)
Zr11 Zr 0.54454(3) -0.0000 0.60645(5)
O17 O 0.51901(23) 0.10546(15) 0.4189(3)
O19 O 0.51901(23) 0.10546(15) 0.5811(3)
O21 O 0.46851(35) 0.06041(18) 0.3500(4)
Zr8_2 Zr 0.54454(3) 1.0000 0.39355(5)
Zr2_2 Zr 0.45546(3) 1.0000 0.39355(5)
O2_2 O 0.4577(3) 1.0000 0.2633(5)
O5_2 O 0.4008(3) 1.0000 0.3965(7)
O13_2 O 0.5423(3) 1.0000 0.2633(5)
O14_2 O 0.5992(3) 1.0000 0.3965(7)
Zr10_2 Zr 0.45546(3) 1.0000 0.60645(5)
Zr11_2 Zr 0.54454(3) 1.0000 0.60645(5)
O20 O 0.53149(35) 0.93959(18) 0.3500(4)
O22 O 0.4081(3) 0.93959(18) 0.3500(4)
O24 O 0.53195(14) 0.96350(14) 0.5000
O25 O 0.43155(20) 0.96350(14) 0.5000
O26 O 0.48163(13) 0.9633(3) 0.3900(5)
Zr8_3 Zr -0.0000 0.54454(3) 0.39355(5)
O2_3 O 0.0000 0.4577(3) 0.2633(5)
O5_3 O -0.0000 0.4008(3) 0.3965(7)
O13_3 O -0.0000 0.5423(3) 0.2633(5)
O14_3 O -0.0000 0.5992(3) 0.3965(7)
Zr11_3 Zr -0.0000 0.54454(3) 0.60645(5)
O20_2 O 0.06041(18) 0.59190(39) 0.3500(4)
O22_2 O 0.06041(18) 0.46851(35) 0.3500(4)
O24_2 O 0.03650(14) 0.56845(20) 0.5000
O25_2 O 0.03650(14) 0.46805(24) 0.5000
O26_2 O 0.0367(3) 0.51833(33) 0.3900(5)
O7_2 O 0.58645(18) 0.48099(23) 0.4189(3)
O8_2 O 0.5919(3) 0.53149(35) 0.3500(4)
C13_2 C 0.5995(3) 0.5047(4) 0.3688(6)
C14_2 C 0.7197(3) 0.5013(4) 0.0860(5)
C15_2 C 0.7206(3) 0.5020(4) 0.1703(4)
C16_2 C 0.6320(3) 0.5048(4) 0.3174(4)
C17_2 C 0.7510(2) 0.5020(3) 0.0424(8)
C18_2 C 0.6892(3) 0.5030(4) 0.2210(4)
C19_2 C 0.6883(3) 0.4999(4) 0.0406(5)
H7_2 H 0.6669 0.4990 0.0685
C20_2 C 0.6516(4) 0.5340(5) 0.2573(6)
H8_2 H 0.6457 0.5543 0.2501
C21_2 C 0.7515(2) 0.5030(3) 0.2105(7)
H9_2 H 0.7522 0.5044 0.2678
C22_2 C 0.6798(4) 0.5323(5) 0.2090(6)
H10_2 H 0.6926 0.5512 0.1678
C23_2 C 0.6416(3) 0.4775(4) 0.3275(6)
H11_2 H 0.6290 0.4586 0.3688
C24_2 C 0.6697(4) 0.4755(5) 0.2797(6)
H12_2 H 0.6753 0.4550 0.2878
O9_2 O 0.89454(15) 0.48099(23) 0.4189(3)
O10_2 O 0.93959(18) 0.53149(35) 0.3500(4)
C25_2 C 0.9052(2) 0.5047(4) 0.3688(6)
C26_2 C 0.7816(3) 0.5013(4) 0.0860(5)
C27_2 C 0.7814(3) 0.5020(4) 0.1703(4)
C28_2 C 0.8728(2) 0.5048(4) 0.3174(4)
C29_2 C 0.8138(2) 0.5030(4) 0.2210(4)
C30_2 C 0.8116(3) 0.4999(4) 0.0406(5)
H13_2 H 0.8321 0.4990 0.0685
C31_2 C 0.8824(3) 0.5340(5) 0.2573(6)
H14_2 H 0.9086 0.5543 0.2501
C32_2 C 0.8525(3) 0.5323(5) 0.2090(6)
H15_2 H 0.8586 0.5512 0.1678
C33_2 C 0.8359(2) 0.4775(4) 0.3275(6)
H16_2 H 0.8296 0.4586 0.3688
C34_2 C 0.8058(3) 0.4755(5) 0.2797(6)
H17_2 H 0.7797 0.4550 0.2878
Zr6_2 Zr 0.53578(4) 0.46422(5) 0.5000
Zr7_3 Zr 0.54454(3) 0.54454(3) 0.39355(5)
Zr8_4 Zr 1.0000 0.54454(3) 0.39355(5)
O1_2 O 0.89454(15) 0.48099(23) 0.5811(3)
O2_4 O 1.0000 0.4577(3) 0.2633(5)
O3_2 O 0.93959(18) 0.53149(35) 0.6500(4)
C1_2 C 0.9052(2) 0.5047(4) 0.6312(6)
C2_2 C 0.7816(3) 0.5013(4) 0.9140(5)
C3_2 C 0.7814(3) 0.5020(4) 0.8297(4)
C4_2 C 0.8728(2) 0.5048(4) 0.6826(4)
C5_2 C 0.7510(2) 0.5020(3) 0.9576(8)
C6_2 C 0.8138(2) 0.5030(4) 0.7790(4)
C7_2 C 0.8116(3) 0.4999(4) 0.9594(5)
H1_2 H 0.8321 0.4990 0.9315
C8_2 C 0.8824(3) 0.5340(5) 0.7427(6)
H2_2 H 0.9086 0.5543 0.7499
C9_2 C 0.7515(2) 0.5030(3) 0.7895(7)
H3_2 H 0.7522 0.5044 0.7322
C10_2 C 0.8525(3) 0.5323(5) 0.7910(6)
H4_2 H 0.8586 0.5512 0.8322
C11_2 C 0.8359(2) 0.4775(4) 0.6725(6)
H5_2 H 0.8296 0.4586 0.6312
C12_2 C 0.8058(3) 0.4755(5) 0.7203(6)
H6_2 H 0.7797 0.4550 0.7122
O4_2 O 0.96350(14) 0.43155(20) 0.5000
O5_4 O 1.0000 0.4008(3) 0.3965(7)
O6_2 O 0.9633(3) 0.48167(33) 0.3900(5)
O11_2 O 0.58645(18) 0.48099(23) 0.5811(3)
O12_2 O 0.5919(3) 0.53149(35) 0.6500(4)
C35_2 C 0.5995(3) 0.5047(4) 0.6312(6)
C36_2 C 0.7197(3) 0.5013(4) 0.9140(5)
C37_2 C 0.7206(3) 0.5020(4) 0.8297(4)
C38_2 C 0.6320(3) 0.5048(4) 0.6826(4)
C39_2 C 0.6892(3) 0.5030(4) 0.7790(4)
C40_2 C 0.6883(3) 0.4999(4) 0.9594(5)
H18_2 H 0.6669 0.4990 0.9315
C41_2 C 0.6516(4) 0.5340(5) 0.7427(6)
H19_2 H 0.6457 0.5543 0.7499
C42_2 C 0.6798(4) 0.5323(5) 0.7910(6)
H20_2 H 0.6926 0.5512 0.8322
C43_2 C 0.6416(3) 0.4775(4) 0.6725(6)
H21_2 H 0.6290 0.4586 0.6312
C44_2 C 0.6697(4) 0.4755(5) 0.7203(6)
H22_2 H 0.6753 0.4550 0.7122
O13_4 O 1.0000 0.5423(3) 0.2633(5)
O14_4 O 1.0000 0.5992(3) 0.3965(7)
O15_2 O 0.96350(14) 0.53195(24) 0.5000
O16_2 O 0.9633(3) 0.48163(45) 0.6100(5)
Zr9_3 Zr 0.54454(3) 0.54454(3) 0.60645(5)
Zr11_4 Zr 1.0000 0.54454(3) 0.60645(5)
C13_3 C 0.4953(4) 0.0948(2) 0.3688(6)
C14_3 C 0.4987(4) 0.2184(3) 0.0860(5)
C15_3 C 0.4980(4) 0.2186(3) 0.1703(4)
C16_3 C 0.4952(4) 0.1272(2) 0.3174(4)
C17_3 C 0.4980(3) 0.2490(2) 0.0424(8)
C18_3 C 0.4970(4) 0.1862(2) 0.2210(4)
C19_3 C 0.5001(4) 0.1884(3) 0.0406(5)
H7_3 H 0.5010 0.1679 0.0685
C20_3 C 0.4660(5) 0.1176(3) 0.2573(6)
H8_3 H 0.4457 0.0914 0.2501
C21_3 C 0.4970(3) 0.2485(2) 0.2105(7)
H9_3 H 0.4956 0.2478 0.2678
C22_3 C 0.4677(5) 0.1475(3) 0.2090(6)
H10_3 H 0.4488 0.1414 0.1678
C23_3 C 0.5225(4) 0.1641(2) 0.3275(6)
H11_3 H 0.5414 0.1704 0.3688
C24_3 C 0.5245(5) 0.1942(3) 0.2797(6)
H12_3 H 0.5450 0.2203 0.2878
O9_3 O 0.51901(23) 0.41355(18) 0.4189(3)
O10_3 O 0.46851(35) 0.4081(3) 0.3500(4)
C25_3 C 0.4953(4) 0.4005(3) 0.3688(6)
C26_3 C 0.4987(4) 0.2803(3) 0.0860(5)
C27_3 C 0.4980(4) 0.2794(3) 0.1703(4)
C28_3 C 0.4952(4) 0.3680(3) 0.3174(4)
C29_3 C 0.4970(4) 0.3108(3) 0.2210(4)
C30_3 C 0.5001(4) 0.3117(3) 0.0406(5)
H13_3 H 0.5010 0.3331 0.0685
C31_3 C 0.4660(5) 0.3484(4) 0.2573(6)
H14_3 H 0.4457 0.3543 0.2501
C32_3 C 0.4677(5) 0.3202(4) 0.2090(6)
H15_3 H 0.4488 0.3074 0.1678
C33_3 C 0.5225(4) 0.3584(3) 0.3275(6)
H16_3 H 0.5414 0.3710 0.3688
C34_3 C 0.5245(5) 0.3303(4) 0.2797(6)
H17_3 H 0.5450 0.3247 0.2878
Zr8_5 Zr 0.45546(3) 0.45546(3) 0.39355(5)
O1_3 O 0.51901(23) 0.41355(18) 0.5811(3)
O2_5 O 0.5423(3) 0.5423(3) 0.2633(5)
O3_3 O 0.46851(35) 0.4081(3) 0.6500(4)
C1_3 C 0.4953(4) 0.4005(3) 0.6312(6)
C2_3 C 0.4987(4) 0.2803(3) 0.9140(5)
C3_3 C 0.4980(4) 0.2794(3) 0.8297(4)
C4_3 C 0.4952(4) 0.3680(3) 0.6826(4)
C5_3 C 0.4980(3) 0.2490(2) 0.9576(8)
C6_3 C 0.4970(4) 0.3108(3) 0.7790(4)
C7_3 C 0.5001(4) 0.3117(3) 0.9594(5)
H1_3 H 0.5010 0.3331 0.9315
C8_3 C 0.4660(5) 0.3484(4) 0.7427(6)
H2_3 H 0.4457 0.3543 0.7499
C9_3 C 0.4970(3) 0.2485(2) 0.7895(7)
H3_3 H 0.4956 0.2478 0.7322
C10_3 C 0.4677(5) 0.3202(4) 0.7910(6)
H4_3 H 0.4488 0.3074 0.8322
C11_3 C 0.5225(4) 0.3584(3) 0.6725(6)
H5_3 H 0.5414 0.3710 0.6312
C12_3 C 0.5245(5) 0.3303(4) 0.7203(6)
H6_3 H 0.5450 0.3247 0.7122
O4_3 O 0.56845(20) 0.53195(14) 0.5000
O5_5 O 0.5992(3) 0.5992(3) 0.3965(7)
O6_3 O 0.51833(33) 0.48163(13) 0.3900(5)
O12_3 O 0.46851(35) 0.06041(18) 0.6500(4)
C35_3 C 0.4953(4) 0.0948(2) 0.6312(6)
C36_3 C 0.4987(4) 0.2184(3) 0.9140(5)
C37_3 C 0.4980(4) 0.2186(3) 0.8297(4)
C38_3 C 0.4952(4) 0.1272(2) 0.6826(4)
C39_3 C 0.4970(4) 0.1862(2) 0.7790(4)
C40_3 C 0.5001(4) 0.1884(3) 0.9594(5)
H18_3 H 0.5010 0.1679 0.9315
C41_3 C 0.4660(5) 0.1176(3) 0.7427(6)
H19_3 H 0.4457 0.0914 0.7499
C42_3 C 0.4677(5) 0.1475(3) 0.7910(6)
H20_3 H 0.4488 0.1414 0.8322
C43_3 C 0.5225(4) 0.1641(2) 0.6725(6)
H21_3 H 0.5414 0.1704 0.6312
C44_3 C 0.5245(5) 0.1942(3) 0.7203(6)
H22_3 H 0.5450 0.2203 0.7122
O13_5 O 0.4577(3) 0.4577(3) 0.2633(5)
O14_5 O 0.4008(3) 0.4008(3) 0.3965(7)
O15_3 O 0.46805(24) 0.43155(20) 0.5000
O16_3 O 0.51837(45) 0.48167(33) 0.6100(5)
Zr11_5 Zr 0.45546(3) 0.45546(3) 0.60645(5)
O20_3 O 0.40810(39) 0.46851(35) 0.3500(4)
O22_3 O 0.53149(35) 0.5919(3) 0.3500(4)
O24_3 O 0.43155(20) 0.46805(14) 0.5000
O25_3 O 0.53195(24) 0.56845(20) 0.5000
O26_3 O 0.48167(33) 0.51837(13) 0.3900(5)
O7_3 O 0.10546(15) 0.58645(18) 0.4189(3)
C13_4 C 0.0948(2) 0.5995(3) 0.3688(6)
C14_4 C 0.2184(3) 0.7197(3) 0.0860(5)
C15_4 C 0.2186(3) 0.7206(3) 0.1703(4)
C16_4 C 0.1272(2) 0.6320(3) 0.3174(4)
C17_4 C 0.2490(2) 0.7510(2) 0.0424(8)
C18_4 C 0.1862(2) 0.6892(3) 0.2210(4)
C19_4 C 0.1884(3) 0.6883(3) 0.0406(5)
H7_4 H 0.1679 0.6669 0.0685
C20_4 C 0.1176(3) 0.6516(4) 0.2573(6)
H8_4 H 0.0914 0.6457 0.2501
C21_4 C 0.2485(2) 0.7515(2) 0.2105(7)
H9_4 H 0.2478 0.7522 0.2678
C22_4 C 0.1475(3) 0.6798(4) 0.2090(6)
H10_4 H 0.1414 0.6926 0.1678
C23_4 C 0.1641(2) 0.6416(3) 0.3275(6)
H11_4 H 0.1704 0.6290 0.3688
C24_4 C 0.1942(3) 0.6697(4) 0.2797(6)
H12_4 H 0.2203 0.6753 0.2878
O9_4 O 0.41355(18) 0.89454(15) 0.4189(3)
C25_4 C 0.4005(3) 0.9052(2) 0.3688(6)
C26_4 C 0.2803(3) 0.7816(3) 0.0860(5)
C27_4 C 0.2794(3) 0.7814(3) 0.1703(4)
C28_4 C 0.3680(3) 0.8728(2) 0.3174(4)
C29_4 C 0.3108(3) 0.8138(2) 0.2210(4)
C30_4 C 0.3117(3) 0.8116(3) 0.0406(5)
H13_4 H 0.3331 0.8321 0.0685
C31_4 C 0.3484(4) 0.8824(3) 0.2573(6)
H14_4 H 0.3543 0.9086 0.2501
C32_4 C 0.3202(4) 0.8525(3) 0.2090(6)
H15_4 H 0.3074 0.8586 0.1678
C33_4 C 0.3584(3) 0.8359(2) 0.3275(6)
H16_4 H 0.3710 0.8296 0.3688
C34_4 C 0.3303(4) 0.8058(3) 0.2797(6)
H17_4 H 0.3247 0.7797 0.2878
Zr4_2 Zr 0.46422(2) 0.92844(3) 0.5000
Zr6_3 Zr 0.07156(3) 0.53578(4) 0.5000
O1_4 O 0.41355(18) 0.89454(15) 0.5811(3)
O3_4 O 0.4081(3) 0.93959(18) 0.6500(4)
C1_4 C 0.4005(3) 0.9052(2) 0.6312(6)
C2_4 C 0.2803(3) 0.7816(3) 0.9140(5)
C3_4 C 0.2794(3) 0.7814(3) 0.8297(4)
C4_4 C 0.3680(3) 0.8728(2) 0.6826(4)
C5_4 C 0.2490(2) 0.7510(2) 0.9576(8)
C6_4 C 0.3108(3) 0.8138(2) 0.7790(4)
C7_4 C 0.3117(3) 0.8116(3) 0.9594(5)
H1_4 H 0.3331 0.8321 0.9315
C8_4 C 0.3484(4) 0.8824(3) 0.7427(6)
H2_4 H 0.3543 0.9086 0.7499
C9_4 C 0.2485(2) 0.7515(2) 0.7895(7)
H3_4 H 0.2478 0.7522 0.7322
C10_4 C 0.3202(4) 0.8525(3) 0.7910(6)
H4_4 H 0.3074 0.8586 0.8322
C11_4 C 0.3584(3) 0.8359(2) 0.6725(6)
H5_4 H 0.3710 0.8296 0.6312
C12_4 C 0.3303(4) 0.8058(3) 0.7203(6)
H6_4 H 0.3247 0.7797 0.7122
O11_3 O 0.10546(15) 0.58645(18) 0.5811(3)
O12_4 O 0.06041(18) 0.5919(3) 0.6500(4)
C35_4 C 0.0948(2) 0.5995(3) 0.6312(6)
C36_4 C 0.2184(3) 0.7197(3) 0.9140(5)
C37_4 C 0.2186(3) 0.7206(3) 0.8297(4)
C38_4 C 0.1272(2) 0.6320(3) 0.6826(4)
C39_4 C 0.1862(2) 0.6892(3) 0.7790(4)
C40_4 C 0.1884(3) 0.6883(3) 0.9594(5)
H18_4 H 0.1679 0.6669 0.9315
C41_4 C 0.1176(3) 0.6516(4) 0.7427(6)
H19_4 H 0.0914 0.6457 0.7499
C42_4 C 0.1475(3) 0.6798(4) 0.7910(6)
H20_4 H 0.1414 0.6926 0.8322
C43_4 C 0.1641(2) 0.6416(3) 0.6725(6)
H21_4 H 0.1704 0.6290 0.6312
C44_4 C 0.1942(3) 0.6697(4) 0.7203(6)
H22_4 H 0.2203 0.6753 0.7122
O16_4 O 0.48167(33) 0.9633(3) 0.6100(5)
O17_2 O 0.48099(23) 0.89454(15) 0.4189(3)
O19_2 O 0.48099(23) 0.89454(15) 0.5811(3)
O7_4 O 0.41355(18) 0.51901(23) 0.4189(3)
C13_5 C 0.4005(3) 0.4953(4) 0.3688(6)
C14_5 C 0.2803(3) 0.4987(4) 0.0860(5)
C15_5 C 0.2794(3) 0.4980(4) 0.1703(4)
C16_5 C 0.3680(3) 0.4952(4) 0.3174(4)
C17_5 C 0.2490(2) 0.4980(3) 0.0424(8)
C18_5 C 0.3108(3) 0.4970(4) 0.2210(4)
C19_5 C 0.3117(3) 0.5001(4) 0.0406(5)
H7_5 H 0.3331 0.5010 0.0685
C20_5 C 0.3484(4) 0.4660(5) 0.2573(6)
H8_5 H 0.3543 0.4457 0.2501
C21_5 C 0.2485(2) 0.4970(3) 0.2105(7)
H9_5 H 0.2478 0.4956 0.2678
C22_5 C 0.3202(4) 0.4677(5) 0.2090(6)
H10_5 H 0.3074 0.4488 0.1678
C23_5 C 0.3584(3) 0.5225(4) 0.3275(6)
H11_5 H 0.3710 0.5414 0.3688
C24_5 C 0.3303(4) 0.5245(5) 0.2797(6)
H12_5 H 0.3247 0.5450 0.2878
O9_5 O 0.10546(15) 0.51901(23) 0.4189(3)
C25_5 C 0.0948(2) 0.4953(4) 0.3688(6)
C26_5 C 0.2184(3) 0.4987(4) 0.0860(5)
C27_5 C 0.2186(3) 0.4980(4) 0.1703(4)
C28_5 C 0.1272(2) 0.4952(4) 0.3174(4)
C29_5 C 0.1862(2) 0.4970(4) 0.2210(4)
C30_5 C 0.1884(3) 0.5001(4) 0.0406(5)
H13_5 H 0.1679 0.5010 0.0685
C31_5 C 0.1176(3) 0.4660(5) 0.2573(6)
H14_5 H 0.0914 0.4457 0.2501
C32_5 C 0.1475(3) 0.4677(5) 0.2090(6)
H15_5 H 0.1414 0.4488 0.1678
C33_5 C 0.1641(2) 0.5225(4) 0.3275(6)
H16_5 H 0.1704 0.5414 0.3688
C34_5 C 0.1942(3) 0.5245(5) 0.2797(6)
H17_5 H 0.2203 0.5450 0.2878
Zr6_4 Zr 0.46422(4) 0.53578(5) 0.5000
O1_5 O 0.10546(15) 0.51901(23) 0.5811(3)
O3_5 O 0.06041(18) 0.46851(35) 0.6500(4)
C1_5 C 0.0948(2) 0.4953(4) 0.6312(6)
C2_5 C 0.2184(3) 0.4987(4) 0.9140(5)
C3_5 C 0.2186(3) 0.4980(4) 0.8297(4)
C4_5 C 0.1272(2) 0.4952(4) 0.6826(4)
C5_5 C 0.2490(2) 0.4980(3) 0.9576(8)
C6_5 C 0.1862(2) 0.4970(4) 0.7790(4)
C7_5 C 0.1884(3) 0.5001(4) 0.9594(5)
H1_5 H 0.1679 0.5010 0.9315
C8_5 C 0.1176(3) 0.4660(5) 0.7427(6)
H2_5 H 0.0914 0.4457 0.7499
C9_5 C 0.2485(2) 0.4970(3) 0.7895(7)
H3_5 H 0.2478 0.4956 0.7322
C10_5 C 0.1475(3) 0.4677(5) 0.7910(6)
H4_5 H 0.1414 0.4488 0.8322
C11_5 C 0.1641(2) 0.5225(4) 0.6725(6)
H5_5 H 0.1704 0.5414 0.6312
C12_5 C 0.1942(3) 0.5245(5) 0.7203(6)
H6_5 H 0.2203 0.5450 0.7122
O11_4 O 0.41355(18) 0.51901(23) 0.5811(3)
O12_5 O 0.4081(3) 0.46851(35) 0.6500(4)
C35_5 C 0.4005(3) 0.4953(4) 0.6312(6)
C36_5 C 0.2803(3) 0.4987(4) 0.9140(5)
C37_5 C 0.2794(3) 0.4980(4) 0.8297(4)
C38_5 C 0.3680(3) 0.4952(4) 0.6826(4)
C39_5 C 0.3108(3) 0.4970(4) 0.7790(4)
C40_5 C 0.3117(3) 0.5001(4) 0.9594(5)
H18_5 H 0.3331 0.5010 0.9315
C41_5 C 0.3484(4) 0.4660(5) 0.7427(6)
H19_5 H 0.3543 0.4457 0.7499
C42_5 C 0.3202(4) 0.4677(5) 0.7910(6)
H20_5 H 0.3074 0.4488 0.8322
C43_5 C 0.3584(3) 0.5225(4) 0.6725(6)
H21_5 H 0.3710 0.5414 0.6312
C44_5 C 0.3303(4) 0.5245(5) 0.7203(6)
H22_5 H 0.3247 0.5450 0.7122
O16_5 O 0.0367(3) 0.51837(45) 0.6100(5)
C13_6 C 0.5047(4) 0.9052(2) 0.3688(6)
C14_6 C 0.5013(4) 0.7816(3) 0.0860(5)
C15_6 C 0.5020(4) 0.7814(3) 0.1703(4)
C16_6 C 0.5048(4) 0.8728(2) 0.3174(4)
C17_6 C 0.5020(3) 0.7510(2) 0.0424(8)
C18_6 C 0.5030(4) 0.8138(2) 0.2210(4)
C19_6 C 0.4999(4) 0.8116(3) 0.0406(5)
H7_6 H 0.4990 0.8321 0.0685
C20_6 C 0.5340(5) 0.8824(3) 0.2573(6)
H8_6 H 0.5543 0.9086 0.2501
C21_6 C 0.5030(3) 0.7515(2) 0.2105(7)
H9_6 H 0.5044 0.7522 0.2678
C22_6 C 0.5323(5) 0.8525(3) 0.2090(6)
H10_6 H 0.5512 0.8586 0.1678
C23_6 C 0.4775(4) 0.8359(2) 0.3275(6)
H11_6 H 0.4586 0.8296 0.3688
C24_6 C 0.4755(5) 0.8058(3) 0.2797(6)
H12_6 H 0.4550 0.7797 0.2878
O9_6 O 0.48099(23) 0.58645(18) 0.4189(3)
C25_6 C 0.5047(4) 0.5995(3) 0.3688(6)
C26_6 C 0.5013(4) 0.7197(3) 0.0860(5)
C27_6 C 0.5020(4) 0.7206(3) 0.1703(4)
C28_6 C 0.5048(4) 0.6320(3) 0.3174(4)
C29_6 C 0.5030(4) 0.6892(3) 0.2210(4)
C30_6 C 0.4999(4) 0.6883(3) 0.0406(5)
H13_6 H 0.4990 0.6669 0.0685
C31_6 C 0.5340(5) 0.6516(4) 0.2573(6)
H14_6 H 0.5543 0.6457 0.2501
C32_6 C 0.5323(5) 0.6798(4) 0.2090(6)
H15_6 H 0.5512 0.6926 0.1678
C33_6 C 0.4775(4) 0.6416(3) 0.3275(6)
H16_6 H 0.4586 0.6290 0.3688
C34_6 C 0.4755(5) 0.6697(4) 0.2797(6)
H17_6 H 0.4550 0.6753 0.2878
O1_6 O 0.48099(23) 0.58645(18) 0.5811(3)
O3_6 O 0.53149(35) 0.5919(3) 0.6500(4)
C1_6 C 0.5047(4) 0.5995(3) 0.6312(6)
C2_6 C 0.5013(4) 0.7197(3) 0.9140(5)
C3_6 C 0.5020(4) 0.7206(3) 0.8297(4)
C4_6 C 0.5048(4) 0.6320(3) 0.6826(4)
C5_6 C 0.5020(3) 0.7510(2) 0.9576(8)
C6_6 C 0.5030(4) 0.6892(3) 0.7790(4)
C7_6 C 0.4999(4) 0.6883(3) 0.9594(5)
H1_6 H 0.4990 0.6669 0.9315
C8_6 C 0.5340(5) 0.6516(4) 0.7427(6)
H2_6 H 0.5543 0.6457 0.7499
C9_6 C 0.5030(3) 0.7515(2) 0.7895(7)
H3_6 H 0.5044 0.7522 0.7322
C10_6 C 0.5323(5) 0.6798(4) 0.7910(6)
H4_6 H 0.5512 0.6926 0.8322
C11_6 C 0.4775(4) 0.6416(3) 0.6725(6)
H5_6 H 0.4586 0.6290 0.6312
C12_6 C 0.4755(5) 0.6697(4) 0.7203(6)
H6_6 H 0.4550 0.6753 0.7122
O12_6 O 0.53149(35) 0.93959(18) 0.6500(4)
C35_6 C 0.5047(4) 0.9052(2) 0.6312(6)
C36_6 C 0.5013(4) 0.7816(3) 0.9140(5)
C37_6 C 0.5020(4) 0.7814(3) 0.8297(4)
C38_6 C 0.5048(4) 0.8728(2) 0.6826(4)
C39_6 C 0.5030(4) 0.8138(2) 0.7790(4)
C40_6 C 0.4999(4) 0.8116(3) 0.9594(5)
H18_6 H 0.4990 0.8321 0.9315
C41_6 C 0.5340(5) 0.8824(3) 0.7427(6)
H19_6 H 0.5543 0.9086 0.7499
C42_6 C 0.5323(5) 0.8525(3) 0.7910(6)
H20_6 H 0.5512 0.8586 0.8322
C43_6 C 0.4775(4) 0.8359(2) 0.6725(6)
H21_6 H 0.4586 0.8296 0.6312
C44_6 C 0.4755(5) 0.8058(3) 0.7203(6)
H22_6 H 0.4550 0.7797 0.7122
O16_6 O 0.48163(45) 0.51833(33) 0.6100(5)
O2_6 O -0.0000 0.4577(3) 0.7367(5)
O5_6 O 0.0000 0.4008(3) 0.6035(7)
O13_6 O -0.0000 0.5423(3) 0.7367(5)
O14_6 O -0.0000 0.5992(3) 0.6035(7)
O2_7 O 1.0000 0.4577(3) 0.7367(5)
O5_7 O 1.0000 0.4008(3) 0.6035(7)
O13_7 O 1.0000 0.5423(3) 0.7367(5)
O14_7 O 1.0000 0.5992(3) 0.6035(7)
O2_8 O 0.4577(3) -0.0000 0.7367(5)
O5_8 O 0.4008(3) 0.0000 0.6035(7)
O13_8 O 0.5423(3) -0.0000 0.7367(5)
O14_8 O 0.5992(3) 0.0000 0.6035(7)
O2_9 O 0.4577(3) 1.0000 0.7367(5)
O5_9 O 0.4008(3) 1.0000 0.6035(7)
O13_9 O 0.5423(3) 1.0000 0.7367(5)
O14_9 O 0.5992(3) 1.0000 0.6035(7)
O2_10 O 0.5423(3) 0.5423(3) 0.7367(5)
O5_10 O 0.5992(3) 0.5992(3) 0.6035(7)
O13_10 O 0.4577(3) 0.4577(3) 0.7367(5)
O14_10 O 0.4008(3) 0.4008(3) 0.6035(7)
loop_
_geom_bond_atom_site_label_1
_geom_bond_atom_site_label_2
_geom_bond_site_symmetry_1
_geom_bond_site_symmetry_2
O7 C13 1_555 1_555
O8 C13 1_555 1_555
C13 C16 1_555 1_555
C14 C15 1_555 1_555
C15 C18 1_555 1_555
C16 C20 1_555 1_555
C18 C22 1_555 1_555
C19 C14 1_555 1_555
H7 C19 1_555 1_555
C20 H8 1_555 1_555
C21 C15 1_555 1_555
H9 C21 1_555 1_555
C22 C20 1_555 1_555
H10 C22 1_555 1_555
C23 C16 1_555 1_555
H11 C23 1_555 1_555
C24 C18 1_555 1_555
H12 C24 1_555 1_555
O9 C25 1_555 1_555
O10 C25 1_555 1_555
C25 C28 1_555 1_555
C26 C17 1_555 1_555
C27 C21 1_555 1_555
C28 C31 1_555 1_555
C29 C27 1_555 1_555
H13 C30 1_555 1_555
C31 H14 1_555 1_555
C32 C29 1_555 1_555
H15 C32 1_555 1_555
C33 C28 1_555 1_555
H16 C33 1_555 1_555
C34 C29 1_555 1_555
H17 C34 1_555 1_555
Zr4 O9 1_555 1_555
Zr6 O7 1_555 1_555
Zr7_2 O8 1_555 1_555
Zr8 O10 1_555 1_555
C14 C17 1_555 1_555
C23 C24 1_555 1_555
C26 C27 1_555 1_555
C26 C30 1_555 1_555
C31 C32 1_555 1_555
C33 C34 1_555 1_555
Zr4 O1 1_555 1_555
Zr2 O2 1_555 1_555
O1 C1 1_555 1_555
O3 C1 1_555 1_555
C1 C4 1_555 1_555
C2 C3 1_555 1_555
C3 C6 1_555 1_555
C4 C8 1_555 1_555
C5 C2 1_555 1_555
C6 C10 1_555 1_555
C7 C2 1_555 1_555
H1 C7 1_555 1_555
C8 H2 1_555 1_555
C9 C3 1_555 1_555
H3 C9 1_555 1_555
C10 C8 1_555 1_555
H4 C10 1_555 1_555
C11 C4 1_555 1_555
H5 C11 1_555 1_555
C12 C6 1_555 1_555
H6 C12 1_555 1_555
O4 Zr4 1_555 1_555
O5 Zr2 1_555 1_555
O6 Zr4 1_555 1_555
O11 C35 1_555 1_555
O12 C35 1_555 1_555
C35 C38 1_555 1_555
C36 C5 1_555 1_555
C37 C9 1_555 1_555
C38 C41 1_555 1_555
C39 C37 1_555 1_555
H18 C40 1_555 1_555
C41 H19 1_555 1_555
C42 C39 1_555 1_555
H20 C42 1_555 1_555
C43 C38 1_555 1_555
H21 C43 1_555 1_555
C44 C39 1_555 1_555
H22 C44 1_555 1_555
Zr8 O6 1_555 1_555
O13 Zr8 1_555 1_555
O14 Zr8 1_555 1_555
O15 Zr4 1_555 1_555
O16 Zr4 1_555 1_555
Zr6 O11 1_555 1_555
Zr9_2 O12 1_555 1_555
Zr10 O4 1_555 1_555
Zr11 O3 1_555 1_555
O17 Zr4 1_555 1_555
O19 Zr4 1_555 1_555
O21 Zr2 1_555 1_555
Zr2 O4 1_555 1_555
Zr2 O6 1_555 1_555
C11 C12 1_555 1_555
C36 C37 1_555 1_555
C36 C40 1_555 1_555
C41 C42 1_555 1_555
C43 C44 1_555 1_555
Zr8 O15 1_555 1_555
O15 Zr11 1_555 1_555
O16 Zr10 1_555 1_555
O16 Zr11 1_555 1_555
Zr2_2 O2_2 1_555 1_555
O5_2 Zr2_2 1_555 1_555
O13_2 Zr8_2 1_555 1_555
O14_2 Zr8_2 1_555 1_555
O20 Zr8_2 1_555 1_555
O22 Zr2_2 1_555 1_555
O24 Zr8_2 1_555 1_555
O25 Zr2_2 1_555 1_555
O26 Zr2_2 1_555 1_555
Zr8_2 O26 1_555 1_555
Zr10_2 O25 1_555 1_555
Zr11_2 O24 1_555 1_555
Zr7 O2_3 1_555 1_555
O5_3 Zr7 1_555 1_555
O13_3 Zr8_3 1_555 1_555
O14_3 Zr8_3 1_555 1_555
O20_2 Zr8_3 1_555 1_555
O22_2 Zr7 1_555 1_555
O24_2 Zr8_3 1_555 1_555
O25_2 Zr7 1_555 1_555
O26_2 Zr7 1_555 1_555
Zr8_3 O26_2 1_555 1_555
Zr9 O25_2 1_555 1_555
Zr11_3 O24_2 1_555 1_555
O7_2 C13_2 1_555 1_555
O8_2 C13_2 1_555 1_555
C13_2 C16_2 1_555 1_555
C14_2 C15_2 1_555 1_555
C15_2 C18_2 1_555 1_555
C16_2 C20_2 1_555 1_555
C18_2 C22_2 1_555 1_555
C19_2 C14_2 1_555 1_555
H7_2 C19_2 1_555 1_555
C20_2 H8_2 1_555 1_555
C21_2 C15_2 1_555 1_555
H9_2 C21_2 1_555 1_555
C22_2 C20_2 1_555 1_555
H10_2 C22_2 1_555 1_555
C23_2 C16_2 1_555 1_555
H11_2 C23_2 1_555 1_555
C24_2 C18_2 1_555 1_555
H12_2 C24_2 1_555 1_555
O9_2 C25_2 1_555 1_555
O10_2 C25_2 1_555 1_555
C25_2 C28_2 1_555 1_555
C26_2 C17_2 1_555 1_555
C27_2 C21_2 1_555 1_555
C28_2 C31_2 1_555 1_555
C29_2 C27_2 1_555 1_555
H13_2 C30_2 1_555 1_555
C31_2 H14_2 1_555 1_555
C32_2 C29_2 1_555 1_555
H15_2 C32_2 1_555 1_555
C33_2 C28_2 1_555 1_555
H16_2 C33_2 1_555 1_555
C34_2 C29_2 1_555 1_555
H17_2 C34_2 1_555 1_555
Zr6 O9_2 1_555 1_555
Zr6_2 O7_2 1_555 1_555
Zr7_3 O8_2 1_555 1_555
Zr8_4 O10_2 1_555 1_555
C14_2 C17_2 1_555 1_555
C23_2 C24_2 1_555 1_555
C26_2 C27_2 1_555 1_555
C26_2 C30_2 1_555 1_555
C31_2 C32_2 1_555 1_555
C33_2 C34_2 1_555 1_555
Zr6 O1_2 1_555 1_555
Zr7_2 O2_4 1_555 1_555
O1_2 C1_2 1_555 1_555
O3_2 C1_2 1_555 1_555
C1_2 C4_2 1_555 1_555
C2_2 C3_2 1_555 1_555
C3_2 C6_2 1_555 1_555
C4_2 C8_2 1_555 1_555
C5_2 C2_2 1_555 1_555
C6_2 C10_2 1_555 1_555
C7_2 C2_2 1_555 1_555
H1_2 C7_2 1_555 1_555
C8_2 H2_2 1_555 1_555
C9_2 C3_2 1_555 1_555
H3_2 C9_2 1_555 1_555
C10_2 C8_2 1_555 1_555
H4_2 C10_2 1_555 1_555
C11_2 C4_2 1_555 1_555
H5_2 C11_2 1_555 1_555
C12_2 C6_2 1_555 1_555
H6_2 C12_2 1_555 1_555
O4_2 Zr6 1_555 1_555
O5_4 Zr7_2 1_555 1_555
O6_2 Zr6 1_555 1_555
O11_2 C35_2 1_555 1_555
O12_2 C35_2 1_555 1_555
C35_2 C38_2 1_555 1_555
C36_2 C5_2 1_555 1_555
C37_2 C9_2 1_555 1_555
C38_2 C41_2 1_555 1_555
C39_2 C37_2 1_555 1_555
H18_2 C40_2 1_555 1_555
C41_2 H19_2 1_555 1_555
C42_2 C39_2 1_555 1_555
H20_2 C42_2 1_555 1_555
C43_2 C38_2 1_555 1_555
H21_2 C43_2 1_555 1_555
C44_2 C39_2 1_555 1_555
H22_2 C44_2 1_555 1_555
Zr8_4 O6_2 1_555 1_555
O13_4 Zr8_4 1_555 1_555
O14_4 Zr8_4 1_555 1_555
O15_2 Zr6 1_555 1_555
O16_2 Zr6 1_555 1_555
Zr6_2 O11_2 1_555 1_555
Zr9_3 O12_2 1_555 1_555
Zr9_2 O4_2 1_555 1_555
Zr11_4 O3_2 1_555 1_555
Zr7_2 O4_2 1_555 1_555
Zr7_2 O6_2 1_555 1_555
C11_2 C12_2 1_555 1_555
C36_2 C37_2 1_555 1_555
C36_2 C40_2 1_555 1_555
C41_2 C42_2 1_555 1_555
C43_2 C44_2 1_555 1_555
Zr8_4 O15_2 1_555 1_555
O15_2 Zr11_4 1_555 1_555
O16_2 Zr9_2 1_555 1_555
O16_2 Zr11_4 1_555 1_555
O17 C13_3 1_555 1_555
O21 C13_3 1_555 1_555
C13_3 C16_3 1_555 1_555
C14_3 C15_3 1_555 1_555
C15_3 C18_3 1_555 1_555
C16_3 C20_3 1_555 1_555
C18_3 C22_3 1_555 1_555
C19_3 C14_3 1_555 1_555
H7_3 C19_3 1_555 1_555
C20_3 H8_3 1_555 1_555
C21_3 C15_3 1_555 1_555
H9_3 C21_3 1_555 1_555
C22_3 C20_3 1_555 1_555
H10_3 C22_3 1_555 1_555
C23_3 C16_3 1_555 1_555
H11_3 C23_3 1_555 1_555
C24_3 C18_3 1_555 1_555
H12_3 C24_3 1_555 1_555
O9_3 C25_3 1_555 1_555
O10_3 C25_3 1_555 1_555
C25_3 C28_3 1_555 1_555
C26_3 C17_3 1_555 1_555
C27_3 C21_3 1_555 1_555
C28_3 C31_3 1_555 1_555
C29_3 C27_3 1_555 1_555
H13_3 C30_3 1_555 1_555
C31_3 H14_3 1_555 1_555
C32_3 C29_3 1_555 1_555
H15_3 C32_3 1_555 1_555
C33_3 C28_3 1_555 1_555
H16_3 C33_3 1_555 1_555
C34_3 C29_3 1_555 1_555
H17_3 C34_3 1_555 1_555
Zr6_2 O9_3 1_555 1_555
Zr8_5 O10_3 1_555 1_555
C14_3 C17_3 1_555 1_555
C23_3 C24_3 1_555 1_555
C26_3 C27_3 1_555 1_555
C26_3 C30_3 1_555 1_555
C31_3 C32_3 1_555 1_555
C33_3 C34_3 1_555 1_555
Zr6_2 O1_3 1_555 1_555
Zr7_3 O2_5 1_555 1_555
O1_3 C1_3 1_555 1_555
O3_3 C1_3 1_555 1_555
C1_3 C4_3 1_555 1_555
C2_3 C3_3 1_555 1_555
C3_3 C6_3 1_555 1_555
C4_3 C8_3 1_555 1_555
C5_3 C2_3 1_555 1_555
C6_3 C10_3 1_555 1_555
C7_3 C2_3 1_555 1_555
H1_3 C7_3 1_555 1_555
C8_3 H2_3 1_555 1_555
C9_3 C3_3 1_555 1_555
H3_3 C9_3 1_555 1_555
C10_3 C8_3 1_555 1_555
H4_3 C10_3 1_555 1_555
C11_3 C4_3 1_555 1_555
H5_3 C11_3 1_555 1_555
C12_3 C6_3 1_555 1_555
H6_3 C12_3 1_555 1_555
O4_3 Zr6_2 1_555 1_555
O5_5 Zr7_3 1_555 1_555
O6_3 Zr6_2 1_555 1_555
O19 C35_3 1_555 1_555
O12_3 C35_3 1_555 1_555
C35_3 C38_3 1_555 1_555
C36_3 C5_3 1_555 1_555
C37_3 C9_3 1_555 1_555
C38_3 C41_3 1_555 1_555
C39_3 C37_3 1_555 1_555
H18_3 C40_3 1_555 1_555
C41_3 H19_3 1_555 1_555
C42_3 C39_3 1_555 1_555
H20_3 C42_3 1_555 1_555
C43_3 C38_3 1_555 1_555
H21_3 C43_3 1_555 1_555
C44_3 C39_3 1_555 1_555
H22_3 C44_3 1_555 1_555
Zr8_5 O6_3 1_555 1_555
O13_5 Zr8_5 1_555 1_555
O14_5 Zr8_5 1_555 1_555
O15_3 Zr6_2 1_555 1_555
O16_3 Zr6_2 1_555 1_555
Zr10 O12_3 1_555 1_555
Zr9_3 O4_3 1_555 1_555
Zr11_5 O3_3 1_555 1_555
O20_3 Zr8_5 1_555 1_555
O22_3 Zr7_3 1_555 1_555
O24_3 Zr8_5 1_555 1_555
O25_3 Zr7_3 1_555 1_555
O26_3 Zr7_3 1_555 1_555
Zr7_3 O4_3 1_555 1_555
Zr7_3 O6_3 1_555 1_555
C11_3 C12_3 1_555 1_555
C36_3 C37_3 1_555 1_555
C36_3 C40_3 1_555 1_555
C41_3 C42_3 1_555 1_555
C43_3 C44_3 1_555 1_555
Zr8_5 O15_3 1_555 1_555
Zr8_5 O26_3 1_555 1_555
O15_3 Zr11_5 1_555 1_555
O16_3 Zr9_3 1_555 1_555
O16_3 Zr11_5 1_555 1_555
Zr9_3 O25_3 1_555 1_555
Zr11_5 O24_3 1_555 1_555
O7_3 C13_4 1_555 1_555
O20_2 C13_4 1_555 1_555
C13_4 C16_4 1_555 1_555
C14_4 C15_4 1_555 1_555
C15_4 C18_4 1_555 1_555
C16_4 C20_4 1_555 1_555
C18_4 C22_4 1_555 1_555
C19_4 C14_4 1_555 1_555
H7_4 C19_4 1_555 1_555
C20_4 H8_4 1_555 1_555
C21_4 C15_4 1_555 1_555
H9_4 C21_4 1_555 1_555
C22_4 C20_4 1_555 1_555
H10_4 C22_4 1_555 1_555
C23_4 C16_4 1_555 1_555
H11_4 C23_4 1_555 1_555
C24_4 C18_4 1_555 1_555
H12_4 C24_4 1_555 1_555
O9_4 C25_4 1_555 1_555
O22 C25_4 1_555 1_555
C25_4 C28_4 1_555 1_555
C26_4 C17_4 1_555 1_555
C27_4 C21_4 1_555 1_555
C28_4 C31_4 1_555 1_555
C29_4 C27_4 1_555 1_555
H13_4 C30_4 1_555 1_555
C31_4 H14_4 1_555 1_555
C32_4 C29_4 1_555 1_555
H15_4 C32_4 1_555 1_555
C33_4 C28_4 1_555 1_555
H16_4 C33_4 1_555 1_555
C34_4 C29_4 1_555 1_555
H17_4 C34_4 1_555 1_555
Zr4_2 O9_4 1_555 1_555
Zr6_3 O7_3 1_555 1_555
C14_4 C17_4 1_555 1_555
C23_4 C24_4 1_555 1_555
C26_4 C27_4 1_555 1_555
C26_4 C30_4 1_555 1_555
C31_4 C32_4 1_555 1_555
C33_4 C34_4 1_555 1_555
Zr4_2 O1_4 1_555 1_555
O1_4 C1_4 1_555 1_555
O3_4 C1_4 1_555 1_555
C1_4 C4_4 1_555 1_555
C2_4 C3_4 1_555 1_555
C3_4 C6_4 1_555 1_555
C4_4 C8_4 1_555 1_555
C5_4 C2_4 1_555 1_555
C6_4 C10_4 1_555 1_555
C7_4 C2_4 1_555 1_555
H1_4 C7_4 1_555 1_555
C8_4 H2_4 1_555 1_555
C9_4 C3_4 1_555 1_555
H3_4 C9_4 1_555 1_555
C10_4 C8_4 1_555 1_555
H4_4 C10_4 1_555 1_555
C11_4 C4_4 1_555 1_555
H5_4 C11_4 1_555 1_555
C12_4 C6_4 1_555 1_555
H6_4 C12_4 1_555 1_555
O24 Zr4_2 1_555 1_555
O26 Zr4_2 1_555 1_555
O11_3 C35_4 1_555 1_555
O12_4 C35_4 1_555 1_555
C35_4 C38_4 1_555 1_555
C36_4 C5_4 1_555 1_555
C37_4 C9_4 1_555 1_555
C38_4 C41_4 1_555 1_555
C39_4 C37_4 1_555 1_555
H18_4 C40_4 1_555 1_555
C41_4 H19_4 1_555 1_555
C42_4 C39_4 1_555 1_555
H20_4 C42_4 1_555 1_555
C43_4 C38_4 1_555 1_555
H21_4 C43_4 1_555 1_555
C44_4 C39_4 1_555 1_555
H22_4 C44_4 1_555 1_555
O25 Zr4_2 1_555 1_555
O16_4 Zr4_2 1_555 1_555
Zr6_3 O11_3 1_555 1_555
Zr11_3 O12_4 1_555 1_555
Zr10_2 O3_4 1_555 1_555
O17_2 Zr4_2 1_555 1_555
O19_2 Zr4_2 1_555 1_555
C11_4 C12_4 1_555 1_555
C36_4 C37_4 1_555 1_555
C36_4 C40_4 1_555 1_555
C41_4 C42_4 1_555 1_555
C43_4 C44_4 1_555 1_555
O16_4 Zr11_2 1_555 1_555
O16_4 Zr10_2 1_555 1_555
O7_4 C13_5 1_555 1_555
O20_3 C13_5 1_555 1_555
C13_5 C16_5 1_555 1_555
C14_5 C15_5 1_555 1_555
C15_5 C18_5 1_555 1_555
C16_5 C20_5 1_555 1_555
C18_5 C22_5 1_555 1_555
C19_5 C14_5 1_555 1_555
H7_5 C19_5 1_555 1_555
C20_5 H8_5 1_555 1_555
C21_5 C15_5 1_555 1_555
H9_5 C21_5 1_555 1_555
C22_5 C20_5 1_555 1_555
H10_5 C22_5 1_555 1_555
C23_5 C16_5 1_555 1_555
H11_5 C23_5 1_555 1_555
C24_5 C18_5 1_555 1_555
H12_5 C24_5 1_555 1_555
O9_5 C25_5 1_555 1_555
O22_2 C25_5 1_555 1_555
C25_5 C28_5 1_555 1_555
C26_5 C17_5 1_555 1_555
C27_5 C21_5 1_555 1_555
C28_5 C31_5 1_555 1_555
C29_5 C27_5 1_555 1_555
H13_5 C30_5 1_555 1_555
C31_5 H14_5 1_555 1_555
C32_5 C29_5 1_555 1_555
H15_5 C32_5 1_555 1_555
C33_5 C28_5 1_555 1_555
H16_5 C33_5 1_555 1_555
C34_5 C29_5 1_555 1_555
H17_5 C34_5 1_555 1_555
Zr6_3 O9_5 1_555 1_555
Zr6_4 O7_4 1_555 1_555
C14_5 C17_5 1_555 1_555
C23_5 C24_5 1_555 1_555
C26_5 C27_5 1_555 1_555
C26_5 C30_5 1_555 1_555
C31_5 C32_5 1_555 1_555
C33_5 C34_5 1_555 1_555
Zr6_3 O1_5 1_555 1_555
O1_5 C1_5 1_555 1_555
O3_5 C1_5 1_555 1_555
C1_5 C4_5 1_555 1_555
C2_5 C3_5 1_555 1_555
C3_5 C6_5 1_555 1_555
C4_5 C8_5 1_555 1_555
C5_5 C2_5 1_555 1_555
C6_5 C10_5 1_555 1_555
C7_5 C2_5 1_555 1_555
H1_5 C7_5 1_555 1_555
C8_5 H2_5 1_555 1_555
C9_5 C3_5 1_555 1_555
H3_5 C9_5 1_555 1_555
C10_5 C8_5 1_555 1_555
H4_5 C10_5 1_555 1_555
C11_5 C4_5 1_555 1_555
H5_5 C11_5 1_555 1_555
C12_5 C6_5 1_555 1_555
H6_5 C12_5 1_555 1_555
O24_2 Zr6_3 1_555 1_555
O26_2 Zr6_3 1_555 1_555
O11_4 C35_5 1_555 1_555
O12_5 C35_5 1_555 1_555
C35_5 C38_5 1_555 1_555
C36_5 C5_5 1_555 1_555
C37_5 C9_5 1_555 1_555
C38_5 C41_5 1_555 1_555
C39_5 C37_5 1_555 1_555
H18_5 C40_5 1_555 1_555
C41_5 H19_5 1_555 1_555
C42_5 C39_5 1_555 1_555
H20_5 C42_5 1_555 1_555
C43_5 C38_5 1_555 1_555
H21_5 C43_5 1_555 1_555
C44_5 C39_5 1_555 1_555
H22_5 C44_5 1_555 1_555
O25_2 Zr6_3 1_555 1_555
O16_5 Zr6_3 1_555 1_555
Zr6_4 O11_4 1_555 1_555
Zr11_5 O12_5 1_555 1_555
Zr9 O3_5 1_555 1_555
C11_5 C12_5 1_555 1_555
C36_5 C37_5 1_555 1_555
C36_5 C40_5 1_555 1_555
C41_5 C42_5 1_555 1_555
C43_5 C44_5 1_555 1_555
O16_5 Zr11_3 1_555 1_555
O16_5 Zr9 1_555 1_555
O17_2 C13_6 1_555 1_555
O20 C13_6 1_555 1_555
C13_6 C16_6 1_555 1_555
C14_6 C15_6 1_555 1_555
C15_6 C18_6 1_555 1_555
C16_6 C20_6 1_555 1_555
C18_6 C22_6 1_555 1_555
C19_6 C14_6 1_555 1_555
H7_6 C19_6 1_555 1_555
C20_6 H8_6 1_555 1_555
C21_6 C15_6 1_555 1_555
H9_6 C21_6 1_555 1_555
C22_6 C20_6 1_555 1_555
H10_6 C22_6 1_555 1_555
C23_6 C16_6 1_555 1_555
H11_6 C23_6 1_555 1_555
C24_6 C18_6 1_555 1_555
H12_6 C24_6 1_555 1_555
O9_6 C25_6 1_555 1_555
O22_3 C25_6 1_555 1_555
C25_6 C28_6 1_555 1_555
C26_6 C17_6 1_555 1_555
C27_6 C21_6 1_555 1_555
C28_6 C31_6 1_555 1_555
C29_6 C27_6 1_555 1_555
H13_6 C30_6 1_555 1_555
C31_6 H14_6 1_555 1_555
C32_6 C29_6 1_555 1_555
H15_6 C32_6 1_555 1_555
C33_6 C28_6 1_555 1_555
H16_6 C33_6 1_555 1_555
C34_6 C29_6 1_555 1_555
H17_6 C34_6 1_555 1_555
Zr6_4 O9_6 1_555 1_555
C14_6 C17_6 1_555 1_555
C23_6 C24_6 1_555 1_555
C26_6 C27_6 1_555 1_555
C26_6 C30_6 1_555 1_555
C31_6 C32_6 1_555 1_555
C33_6 C34_6 1_555 1_555
Zr6_4 O1_6 1_555 1_555
O1_6 C1_6 1_555 1_555
O3_6 C1_6 1_555 1_555
C1_6 C4_6 1_555 1_555
C2_6 C3_6 1_555 1_555
C3_6 C6_6 1_555 1_555
C4_6 C8_6 1_555 1_555
C5_6 C2_6 1_555 1_555
C6_6 C10_6 1_555 1_555
C7_6 C2_6 1_555 1_555
H1_6 C7_6 1_555 1_555
C8_6 H2_6 1_555 1_555
C9_6 C3_6 1_555 1_555
H3_6 C9_6 1_555 1_555
C10_6 C8_6 1_555 1_555
H4_6 C10_6 1_555 1_555
C11_6 C4_6 1_555 1_555
H5_6 C11_6 1_555 1_555
C12_6 C6_6 1_555 1_555
H6_6 C12_6 1_555 1_555
O24_3 Zr6_4 1_555 1_555
O26_3 Zr6_4 1_555 1_555
O19_2 C35_6 1_555 1_555
O12_6 C35_6 1_555 1_555
C35_6 C38_6 1_555 1_555
C36_6 C5_6 1_555 1_555
C37_6 C9_6 1_555 1_555
C38_6 C41_6 1_555 1_555
C39_6 C37_6 1_555 1_555
H18_6 C40_6 1_555 1_555
C41_6 H19_6 1_555 1_555
C42_6 C39_6 1_555 1_555
H20_6 C42_6 1_555 1_555
C43_6 C38_6 1_555 1_555
H21_6 C43_6 1_555 1_555
C44_6 C39_6 1_555 1_555
H22_6 C44_6 1_555 1_555
O25_3 Zr6_4 1_555 1_555
O16_6 Zr6_4 1_555 1_555
Zr11_2 O12_6 1_555 1_555
Zr9_3 O3_6 1_555 1_555
C11_6 C12_6 1_555 1_555
C36_6 C37_6 1_555 1_555
C36_6 C40_6 1_555 1_555
C41_6 C42_6 1_555 1_555
C43_6 C44_6 1_555 1_555
O16_6 Zr11_5 1_555 1_555
O16_6 Zr9_3 1_555 1_555
Zr9 O2_6 1_555 1_555
O5_6 Zr9 1_555 1_555
O13_6 Zr11_3 1_555 1_555
O14_6 Zr11_3 1_555 1_555
Zr9_2 O2_7 1_555 1_555
O5_7 Zr9_2 1_555 1_555
O13_7 Zr11_4 1_555 1_555
O14_7 Zr11_4 1_555 1_555
Zr10 O2_8 1_555 1_555
O5_8 Zr10 1_555 1_555
O13_8 Zr11 1_555 1_555
O14_8 Zr11 1_555 1_555
Zr10_2 O2_9 1_555 1_555
O5_9 Zr10_2 1_555 1_555
O13_9 Zr11_2 1_555 1_555
O14_9 Zr11_2 1_555 1_555
Zr9_3 O2_10 1_555 1_555
O5_10 Zr9_3 1_555 1_555
O13_10 Zr11_5 1_555 1_555
O14_10 Zr11_5 1_555 1_555

#END
