
###############################################################################
#
# This file contains modified crystal structure data generated from the
# MOF subset of the Cambridge Structural Database (CSD) v543 
# hosted by the Cambridge Crystallographic Data Centre (CCDC).
#
# This work is licensed under the Creative Commons
# Attribution-NonCommercial-ShareAlike 4.0 International License.
# To view a copy of this license, visit
# http://creativecommons.org/licenses/by-nc-sa/4.0/
# or send a letter to
# Creative Commons, PO Box 1866, Mountain View, CA 94042, USA.
#
# CIF created using the CSD Python API on 29 September 2022
# The structure has been converted into the P1 space group
# The structure has a 3D framework
# The original CSD entry MAJCUZ is in the hexagonal crystal system
# The framework has been calculated to contain at least 10.0% void space
# The void calculation uses a probe of radius 1.32A, grid spacing 0.4
# The framework is charged, counterions have been retained in the structure
# H atom positions have been added when not included in the experimental data
#
###############################################################################

data_MAJCUZ
_chemical_formula_moiety         '(C284 H152 Cu24 O112 Zr26 48+)n'
_symmetry_cell_setting           triclinic
_symmetry_space_group_name_H-M   'P 1'
_symmetry_Int_Tables_number      1
_space_group_name_Hall           'P 1'
loop_
_symmetry_equiv_pos_site_id
_symmetry_equiv_pos_as_xyz
1 x,y,z
_cell_length_a                   39.611(3)
_cell_length_b                   39.611(3)
_cell_length_c                   16.4454(14)
_cell_angle_alpha                90
_cell_angle_beta                 90
_cell_angle_gamma                120
_cell_volume                     22346.4
loop_
_atom_site_label
_atom_site_type_symbol
_atom_site_fract_x
_atom_site_fract_y
_atom_site_fract_z
Cu1 Cu 0.4661(4) 0.5339(4) 0.7199(16)
Cu1_2 Cu 0.4661(4) 0.9322(6) 0.7199(16)
Cu1_3 Cu 0.0678(6) 0.5339(4) 0.7199(16)
Cu1_4 Cu 0.5339(4) 0.4661(4) 0.7199(16)
Cu1_5 Cu 0.5339(4) 0.0678(6) 0.7199(16)
Cu1_6 Cu 0.9322(6) 0.4661(4) 0.7199(16)
Cu1_7 Cu 0.5339(4) 0.4661(4) 0.2801(16)
Cu1_8 Cu 0.9322(6) 0.4661(4) 0.2801(16)
Cu1_9 Cu 0.5339(4) 0.0678(6) 0.2801(16)
Cu1_10 Cu 0.4661(4) 0.5339(4) 0.2801(16)
Cu1_11 Cu 0.0678(6) 0.5339(4) 0.2801(16)
Cu1_12 Cu 0.4661(4) 0.9322(6) 0.2801(16)
Cu2 Cu 0.5547(10) 0.6267(7) 0.5000
Cu2_2 Cu 0.3733(7) 0.9280(12) 0.5000
Cu2_3 Cu 0.0720(12) 0.4453(10) 0.5000
Cu2_4 Cu 0.4453(10) 0.3733(7) 0.5000
Cu2_5 Cu 0.6267(7) 0.0720(12) 0.5000
Cu2_6 Cu 0.9280(12) 0.5547(10) 0.5000
Cu2_7 Cu 0.6267(7) 0.5547(10) 0.5000
Cu2_8 Cu 0.9280(12) 0.3733(7) 0.5000
Cu2_9 Cu 0.4453(10) 0.0720(12) 0.5000
Cu2_10 Cu 0.3733(7) 0.4453(10) 0.5000
Cu2_11 Cu 0.0720(12) 0.6267(7) 0.5000
Cu2_12 Cu 0.5547(10) 0.9280(12) 0.5000
Zr11 Zr 0.54458(2) -0.00000(3) 0.39287(4)
Zr7 Zr 0.54458(2) -0.00000(3) 0.60713(4)
O7 O 0.48275(15) 0.89631(21) 0.4174(3)
O8 O 0.53423(15) 0.94227(21) 0.3486(2)
C15 C 0.5080(2) 0.9071(3) 0.3663(4)
C16 C 0.5104(3) 0.8174(4) 0.2213(4)
C17 C 0.5121(5) 0.7561(5) 0.0433(6)
C18 C 0.5092(2) 0.8757(3) 0.3171(4)
C19 C 0.5102(4) 0.7862(4) 0.0867(5)
C20 C 0.5101(3) 0.7855(4) 0.1716(4)
C21 C 0.5395(3) 0.8855(4) 0.2587(5)
H7 H 0.5598 0.9118 0.2530
C22 C 0.5109(5) 0.7555(5) 0.2115(6)
H8 H 0.5119 0.7559 0.2692
C23 C 0.4819(3) 0.8372(4) 0.3265(5)
H9 H 0.4619 0.8299 0.3658
C24 C 0.5394(3) 0.8569(4) 0.2103(5)
H10 H 0.5588 0.8637 0.1697
C25 C 0.5095(3) 0.8170(4) 0.0401(5)
H11 H 0.5090 0.8377 0.0682
C26 C 0.4829(3) 0.8088(4) 0.2802(5)
H12 H 0.4639 0.7824 0.2895
O9 O 0.48275(15) 0.58644(14) 0.4174(3)
O10 O 0.53423(15) 0.59196(15) 0.3486(2)
C27 C 0.5080(2) 0.6009(2) 0.3663(4)
C28 C 0.5104(3) 0.6930(2) 0.2213(4)
C29 C 0.5092(2) 0.6335(2) 0.3171(4)
C30 C 0.5102(4) 0.7240(2) 0.0867(5)
C31 C 0.5101(3) 0.7246(2) 0.1716(4)
C32 C 0.5395(3) 0.6540(2) 0.2587(5)
H13 H 0.5598 0.6480 0.2530
C33 C 0.4819(3) 0.6447(3) 0.3265(5)
H14 H 0.4619 0.6320 0.3658
C34 C 0.5394(3) 0.6825(3) 0.2103(5)
H15 H 0.5588 0.6951 0.1697
C35 C 0.5095(3) 0.6925(3) 0.0401(5)
H16 H 0.5090 0.6713 0.0682
C36 C 0.4829(3) 0.6741(3) 0.2802(5)
H17 H 0.4639 0.6815 0.2895
Zr4 Zr 0.46403(2) 0.53597(2) 0.5000
Zr6 Zr 0.46403(2) 0.92806(3) 0.5000
Zr9 Zr 0.54458(2) 0.54458(2) 0.39287(4)
Zr11_2 Zr 0.54458(2) 1.00000(3) 0.39287(4)
Zr2 Zr 0.54458(2) 0.54458(2) 0.60713(4)
O1 O 0.5309(2) 0.5678(2) 0.5000
O2 O 0.48185(11) 0.51815(11) 0.6083(5)
O3 O 0.48275(15) 0.58644(14) 0.5826(3)
O4 O 0.53423(15) 0.59196(15) 0.6514(2)
O5 O 0.5990(2) 0.5990(2) 0.5729(7)
O6 O 0.5309(7) 0.5309(7) 0.7405(8)
C1 C 0.5080(2) 0.6009(2) 0.6337(4)
C2 C 0.5104(3) 0.6930(2) 0.7787(4)
C3 C 0.5121(5) 0.7560(2) 0.9567(6)
C4 C 0.5092(2) 0.6335(2) 0.6829(4)
C5 C 0.5102(4) 0.7240(2) 0.9133(5)
C6 C 0.5101(3) 0.7246(2) 0.8284(4)
C7 C 0.5395(3) 0.6540(2) 0.7413(5)
H1 H 0.5598 0.6480 0.7470
C8 C 0.5109(5) 0.7554(2) 0.7885(6)
H2 H 0.5119 0.7560 0.7308
C9 C 0.4819(3) 0.6447(3) 0.6735(5)
H3 H 0.4619 0.6320 0.6342
C10 C 0.5394(3) 0.6825(3) 0.7897(5)
H4 H 0.5588 0.6951 0.8303
C11 C 0.5095(3) 0.6925(3) 0.9599(5)
H5 H 0.5090 0.6713 0.9318
C12 C 0.4829(3) 0.6741(3) 0.7198(5)
H6 H 0.4639 0.6815 0.7105
C13 C 0.6131(7) 0.6131(7) 0.5000
C14 C 0.5000 0.5000 0.7741(18)
O11 O 0.48275(15) 0.89631(21) 0.5826(3)
O12 O 0.53423(15) 0.94227(21) 0.6514(2)
C37 C 0.5080(2) 0.9071(3) 0.6337(4)
C38 C 0.5104(3) 0.8174(4) 0.7787(4)
C39 C 0.5092(2) 0.8757(3) 0.6829(4)
C40 C 0.5102(4) 0.7862(4) 0.9133(5)
C41 C 0.5101(3) 0.7855(4) 0.8284(4)
C42 C 0.5395(3) 0.8855(4) 0.7413(5)
H18 H 0.5598 0.9118 0.7470
C43 C 0.4819(3) 0.8372(4) 0.6735(5)
H19 H 0.4619 0.8299 0.6342
C44 C 0.5394(3) 0.8569(4) 0.7897(5)
H20 H 0.5588 0.8637 0.8303
C45 C 0.5095(3) 0.8170(4) 0.9599(5)
H21 H 0.5090 0.8377 0.9318
C46 C 0.4829(3) 0.8088(4) 0.7198(5)
H22 H 0.4639 0.7824 0.7105
O13 O 0.5990(2) 0.5990(2) 0.4271(7)
O14 O 0.4691(7) 0.4691(7) 0.7405(8)
Zr3 Zr 0.45542(2) 0.45542(2) 0.60713(4)
O15 O 0.4322(2) 0.4691(2) 0.5000
O16 O 0.48185(11) 0.51815(11) 0.3917(5)
Zr7_2 Zr 0.54458(2) 1.00000(3) 0.60713(4)
Zr10 Zr 0.45542(2) 0.45542(2) 0.39287(4)
O17 O 0.4691(2) 0.4322(2) 0.5000
O18 O 0.5678(2) 0.5309(2) 0.5000
O19 O 0.51815(11) 0.48185(11) 0.6083(5)
O20 O 0.41356(14) 0.51725(15) 0.4174(3)
O22 O 0.41356(14) 0.51725(15) 0.5826(3)
O23 O 0.46577(15) 0.40804(15) 0.6514(2)
O24 O 0.40804(15) 0.46577(15) 0.6514(2)
O25 O 0.59196(15) 0.53423(15) 0.6514(2)
O26 O 0.4010(2) 0.4010(2) 0.5729(7)
H23 H 0.5 0.5 0.840319
H24 H 0.640592 0.640592 0.5
Zr9_2 Zr 0.45542(2) -0.00000(3) 0.39287(4)
Zr2_2 Zr 0.45542(2) -0.00000(3) 0.60713(4)
O5_2 O 0.4010(2) -0.0000(3) 0.5729(7)
O6_2 O 0.4691(7) 0.0000(10) 0.7405(8)
C13_2 C 0.3869(7) -0.0000(10) 0.5000
C14_2 C 0.5000 0.0000 0.7741(18)
O13_2 O 0.4010(2) -0.0000(3) 0.4271(7)
O14_2 O 0.5309(7) -0.0000(10) 0.7405(8)
O17_2 O 0.5678(2) 0.0369(3) 0.5000
O18_2 O 0.4691(2) 0.0369(3) 0.5000
O19_2 O 0.51815(11) 0.03630(16) 0.6083(5)
O23_2 O 0.59196(15) 0.05773(21) 0.6514(2)
O25_2 O 0.46577(15) 0.05773(21) 0.6514(2)
O26_2 O 0.5990(2) -0.0000(3) 0.5729(7)
H23_2 H 0.5 0 0.840319
H24_2 H 0.359408 -1.11022e-16 0.5
O7_2 O 0.10369(21) 0.58644(26) 0.4174(3)
O8_2 O 0.05773(21) 0.59196(26) 0.3486(2)
C15_2 C 0.0929(3) 0.6009(4) 0.3663(4)
C16_2 C 0.1826(4) 0.6930(5) 0.2213(4)
C17_2 C 0.2439(5) 0.7560(7) 0.0433(6)
C18_2 C 0.1243(3) 0.6335(4) 0.3171(4)
C19_2 C 0.2138(4) 0.7240(6) 0.0867(5)
C20_2 C 0.2145(4) 0.7246(5) 0.1716(4)
C21_2 C 0.1145(4) 0.6540(5) 0.2587(5)
H7_2 H 0.0882 0.6480 0.2530
C22_2 C 0.2445(5) 0.7554(7) 0.2115(6)
H8_2 H 0.2441 0.7560 0.2692
C23_2 C 0.1628(4) 0.6447(5) 0.3265(5)
H9_2 H 0.1701 0.6320 0.3658
C24_2 C 0.1431(4) 0.6825(5) 0.2103(5)
H10_2 H 0.1363 0.6951 0.1697
C25_2 C 0.1830(4) 0.6925(5) 0.0401(5)
H11_2 H 0.1623 0.6713 0.0682
C26_2 C 0.1912(4) 0.6741(5) 0.2802(5)
H12_2 H 0.2176 0.6815 0.2895
O9_2 O 0.41356(14) 0.89631(21) 0.4174(3)
O10_2 O 0.40804(15) 0.94227(21) 0.3486(2)
C27_2 C 0.3991(2) 0.9071(3) 0.3663(4)
C28_2 C 0.3070(2) 0.8174(4) 0.2213(4)
C29_2 C 0.3665(2) 0.8757(3) 0.3171(4)
C30_2 C 0.2760(2) 0.7862(4) 0.0867(5)
C31_2 C 0.2754(2) 0.7855(4) 0.1716(4)
C32_2 C 0.3460(2) 0.8855(4) 0.2587(5)
H13_2 H 0.3520 0.9118 0.2530
C33_2 C 0.3553(3) 0.8372(4) 0.3265(5)
H14_2 H 0.3680 0.8299 0.3658
C34_2 C 0.3175(3) 0.8569(4) 0.2103(5)
H15_2 H 0.3049 0.8637 0.1697
C35_2 C 0.3075(3) 0.8170(4) 0.0401(5)
H16_2 H 0.3287 0.8377 0.0682
C36_2 C 0.3259(3) 0.8088(4) 0.2802(5)
H17_2 H 0.3185 0.7824 0.2895
Zr6_2 Zr 0.07194(3) 0.53597(4) 0.5000
Zr9_3 Zr 0.45542(2) 1.00000(3) 0.39287(4)
Zr11_3 Zr 0.00000(3) 0.54458(4) 0.39287(4)
Zr2_3 Zr 0.45542(2) 1.00000(3) 0.60713(4)
O1_2 O 0.4322(2) 0.9631(3) 0.5000
O2_2 O 0.48185(11) 0.96370(16) 0.6083(5)
O3_2 O 0.41356(14) 0.89631(21) 0.5826(3)
O4_2 O 0.40804(15) 0.94227(21) 0.6514(2)
O5_3 O 0.4010(2) 1.0000(3) 0.5729(7)
O6_3 O 0.4691(7) 1.0000(10) 0.7405(8)
C1_2 C 0.3991(2) 0.9071(3) 0.6337(4)
C2_2 C 0.3070(2) 0.8174(4) 0.7787(4)
C3_2 C 0.2440(2) 0.7561(5) 0.9567(6)
C4_2 C 0.3665(2) 0.8757(3) 0.6829(4)
C5_2 C 0.2760(2) 0.7862(4) 0.9133(5)
C6_2 C 0.2754(2) 0.7855(4) 0.8284(4)
C7_2 C 0.3460(2) 0.8855(4) 0.7413(5)
H1_2 H 0.3520 0.9118 0.7470
C8_2 C 0.2446(2) 0.7555(5) 0.7885(6)
H2_2 H 0.2440 0.7559 0.7308
C9_2 C 0.3553(3) 0.8372(4) 0.6735(5)
H3_2 H 0.3680 0.8299 0.6342
C10_2 C 0.3175(3) 0.8569(4) 0.7897(5)
H4_2 H 0.3049 0.8637 0.8303
C11_2 C 0.3075(3) 0.8170(4) 0.9599(5)
H5_2 H 0.3287 0.8377 0.9318
C12_2 C 0.3259(3) 0.8088(4) 0.7198(5)
H6_2 H 0.3185 0.7824 0.7105
C13_3 C 0.3869(7) 1.0000(10) 0.5000
C14_3 C 0.5000 1.0000 0.7741(18)
O11_2 O 0.10369(21) 0.58644(26) 0.5826(3)
O12_2 O 0.05773(21) 0.59196(26) 0.6514(2)
C37_2 C 0.0929(3) 0.6009(4) 0.6337(4)
C38_2 C 0.1826(4) 0.6930(5) 0.7787(4)
C39_2 C 0.1243(3) 0.6335(4) 0.6829(4)
C40_2 C 0.2138(4) 0.7240(6) 0.9133(5)
C41_2 C 0.2145(4) 0.7246(5) 0.8284(4)
C42_2 C 0.1145(4) 0.6540(5) 0.7413(5)
H18_2 H 0.0882 0.6480 0.7470
C43_2 C 0.1628(4) 0.6447(5) 0.6735(5)
H19_2 H 0.1701 0.6320 0.6342
C44_2 C 0.1431(4) 0.6825(5) 0.7897(5)
H20_2 H 0.1363 0.6951 0.8303
C45_2 C 0.1830(4) 0.6925(5) 0.9599(5)
H21_2 H 0.1623 0.6713 0.9318
C46_2 C 0.1912(4) 0.6741(5) 0.7198(5)
H22_2 H 0.2176 0.6815 0.7105
O13_3 O 0.4010(2) 1.0000(3) 0.4271(7)
O14_3 O 0.5309(7) 1.0000(10) 0.7405(8)
O15_2 O 0.5309(2) 0.9631(3) 0.5000
O16_2 O 0.48185(11) 0.96370(16) 0.3917(5)
Zr7_3 Zr -0.00000(3) 0.54458(4) 0.60713(4)
O26_3 O 0.5990(2) 1.0000(3) 0.5729(7)
H23_3 H 0.5 1 0.840319
H24_3 H 0.359408 1 0.5
Zr11_4 Zr 1.00000(3) 0.54458(4) 0.39287(4)
Zr7_4 Zr 1.00000(3) 0.54458(4) 0.60713(4)
O8_3 O 0.40804(26) 0.46577(15) 0.3486(2)
C15_3 C 0.3991(4) 0.4920(2) 0.3663(4)
C16_3 C 0.3070(5) 0.4896(3) 0.2213(4)
C17_3 C 0.2440(7) 0.4879(5) 0.0433(6)
C18_3 C 0.3665(4) 0.4908(2) 0.3171(4)
C19_3 C 0.2760(6) 0.4898(4) 0.0867(5)
C20_3 C 0.2754(5) 0.4899(3) 0.1716(4)
C21_3 C 0.3460(5) 0.4605(3) 0.2587(5)
H7_3 H 0.3520 0.4402 0.2530
C22_3 C 0.2446(7) 0.4891(5) 0.2115(6)
H8_3 H 0.2440 0.4881 0.2692
C23_3 C 0.3553(5) 0.5181(3) 0.3265(5)
H9_3 H 0.3680 0.5381 0.3658
C24_3 C 0.3175(5) 0.4606(3) 0.2103(5)
H10_3 H 0.3049 0.4412 0.1697
C25_3 C 0.3075(5) 0.4905(3) 0.0401(5)
H11_3 H 0.3287 0.4910 0.0682
C26_3 C 0.3259(5) 0.5171(3) 0.2802(5)
H12_3 H 0.3185 0.5361 0.2895
O9_3 O 0.10369(21) 0.51725(15) 0.4174(3)
O10_3 O 0.05773(21) 0.46577(15) 0.3486(2)
C27_3 C 0.0929(3) 0.4920(2) 0.3663(4)
C28_3 C 0.1826(4) 0.4896(3) 0.2213(4)
C29_3 C 0.1243(3) 0.4908(2) 0.3171(4)
C30_3 C 0.2138(4) 0.4898(4) 0.0867(5)
C31_3 C 0.2145(4) 0.4899(3) 0.1716(4)
C32_3 C 0.1145(4) 0.4605(3) 0.2587(5)
H13_3 H 0.0882 0.4402 0.2530
C33_3 C 0.1628(4) 0.5181(3) 0.3265(5)
H14_3 H 0.1701 0.5381 0.3658
C34_3 C 0.1431(4) 0.4606(3) 0.2103(5)
H15_3 H 0.1363 0.4412 0.1697
C35_3 C 0.1830(4) 0.4905(3) 0.0401(5)
H16_3 H 0.1623 0.4910 0.0682
C36_3 C 0.1912(4) 0.5171(3) 0.2802(5)
H17_3 H 0.2176 0.5361 0.2895
Zr9_4 Zr 0.00000(3) 0.45542(2) 0.39287(4)
Zr2_4 Zr -0.00000(3) 0.45542(2) 0.60713(4)
O1_3 O 0.0369(3) 0.4691(2) 0.5000
O2_3 O 0.03630(16) 0.51815(11) 0.6083(5)
O3_3 O 0.10369(21) 0.51725(15) 0.5826(3)
O4_3 O 0.05773(21) 0.46577(15) 0.6514(2)
O5_4 O -0.0000(3) 0.4010(2) 0.5729(7)
O6_4 O -0.0000(10) 0.4691(7) 0.7405(8)
C1_3 C 0.0929(3) 0.4920(2) 0.6337(4)
C2_3 C 0.1826(4) 0.4896(3) 0.7787(4)
C3_3 C 0.2439(5) 0.4879(5) 0.9567(6)
C4_3 C 0.1243(3) 0.4908(2) 0.6829(4)
C5_3 C 0.2138(4) 0.4898(4) 0.9133(5)
C6_3 C 0.2145(4) 0.4899(3) 0.8284(4)
C7_3 C 0.1145(4) 0.4605(3) 0.7413(5)
H1_3 H 0.0882 0.4402 0.7470
C8_3 C 0.2445(5) 0.4891(5) 0.7885(6)
H2_3 H 0.2441 0.4881 0.7308
C9_3 C 0.1628(4) 0.5181(3) 0.6735(5)
H3_3 H 0.1701 0.5381 0.6342
C10_3 C 0.1431(4) 0.4606(3) 0.7897(5)
H4_3 H 0.1363 0.4412 0.8303
C11_3 C 0.1830(4) 0.4905(3) 0.9599(5)
H5_3 H 0.1623 0.4910 0.9318
C12_3 C 0.1912(4) 0.5171(3) 0.7198(5)
H6_3 H 0.2176 0.5361 0.7105
C13_4 C 0.0000(10) 0.3869(7) 0.5000
C14_4 C -0.0000 0.5000 0.7741(18)
C37_3 C 0.3991(4) 0.4920(2) 0.6337(4)
C38_3 C 0.3070(5) 0.4896(3) 0.7787(4)
C39_3 C 0.3665(4) 0.4908(2) 0.6829(4)
C40_3 C 0.2760(6) 0.4898(4) 0.9133(5)
C41_3 C 0.2754(5) 0.4899(3) 0.8284(4)
C42_3 C 0.3460(5) 0.4605(3) 0.7413(5)
H18_3 H 0.3520 0.4402 0.7470
C43_3 C 0.3553(5) 0.5181(3) 0.6735(5)
H19_3 H 0.3680 0.5381 0.6342
C44_3 C 0.3175(5) 0.4606(3) 0.7897(5)
H20_3 H 0.3049 0.4412 0.8303
C45_3 C 0.3075(5) 0.4905(3) 0.9599(5)
H21_3 H 0.3287 0.4910 0.9318
C46_3 C 0.3259(5) 0.5171(3) 0.7198(5)
H22_3 H 0.3185 0.5361 0.7105
O13_4 O -0.0000(3) 0.4010(2) 0.4271(7)
O14_4 O -0.0000(10) 0.5309(7) 0.7405(8)
O15_3 O 0.0369(3) 0.5678(2) 0.5000
O16_3 O 0.03630(16) 0.51815(11) 0.3917(5)
O26_4 O 0.0000(3) 0.5990(2) 0.5729(7)
H23_4 H -4.27252e-17 0.5 0.840319
H24_4 H 1.13356e-16 0.359408 0.5
Zr9_5 Zr 1.00000(3) 0.45542(2) 0.39287(4)
Zr2_5 Zr 1.00000(3) 0.45542(2) 0.60713(4)
O5_5 O 1.0000(3) 0.4010(2) 0.5729(7)
O6_5 O 1.0000(10) 0.4691(7) 0.7405(8)
C13_5 C 1.0000(10) 0.3869(7) 0.5000
C14_5 C 1.0000 0.5000 0.7741(18)
O13_5 O 1.0000(3) 0.4010(2) 0.4271(7)
O14_5 O 1.0000(10) 0.5309(7) 0.7405(8)
O17_3 O 0.9631(3) 0.5309(2) 0.5000
O18_3 O 0.9631(3) 0.4322(2) 0.5000
O19_3 O 0.96370(16) 0.48185(11) 0.6083(5)
O23_3 O 0.94227(21) 0.53423(15) 0.6514(2)
O25_3 O 0.94227(21) 0.40804(15) 0.6514(2)
O26_5 O 1.0000(3) 0.5990(2) 0.5729(7)
H23_5 H 1 0.5 0.840319
H24_5 H 1 0.359408 0.5
O7_3 O 0.51725(15) 0.10369(21) 0.4174(3)
O8_4 O 0.46577(15) 0.05773(21) 0.3486(2)
C15_4 C 0.4920(2) 0.0929(3) 0.3663(4)
C16_4 C 0.4896(3) 0.1826(4) 0.2213(4)
C17_4 C 0.4879(5) 0.2439(5) 0.0433(6)
C18_4 C 0.4908(2) 0.1243(3) 0.3171(4)
C19_4 C 0.4898(4) 0.2138(4) 0.0867(5)
C20_4 C 0.4899(3) 0.2145(4) 0.1716(4)
C21_4 C 0.4605(3) 0.1145(4) 0.2587(5)
H7_4 H 0.4402 0.0882 0.2530
C22_4 C 0.4891(5) 0.2445(5) 0.2115(6)
H8_4 H 0.4881 0.2441 0.2692
C23_4 C 0.5181(3) 0.1628(4) 0.3265(5)
H9_4 H 0.5381 0.1701 0.3658
C24_4 C 0.4606(3) 0.1431(4) 0.2103(5)
H10_4 H 0.4412 0.1363 0.1697
C25_4 C 0.4905(3) 0.1830(4) 0.0401(5)
H11_4 H 0.4910 0.1623 0.0682
C26_4 C 0.5171(3) 0.1912(4) 0.2802(5)
H12_4 H 0.5361 0.2176 0.2895
O9_4 O 0.51725(15) 0.41356(14) 0.4174(3)
O10_4 O 0.46577(15) 0.40804(15) 0.3486(2)
C27_4 C 0.4920(2) 0.3991(2) 0.3663(4)
C28_4 C 0.4896(3) 0.3070(2) 0.2213(4)
C29_4 C 0.4908(2) 0.3665(2) 0.3171(4)
C30_4 C 0.4898(4) 0.2760(2) 0.0867(5)
C31_4 C 0.4899(3) 0.2754(2) 0.1716(4)
C32_4 C 0.4605(3) 0.3460(2) 0.2587(5)
H13_4 H 0.4402 0.3520 0.2530
C33_4 C 0.5181(3) 0.3553(3) 0.3265(5)
H14_4 H 0.5381 0.3680 0.3658
C34_4 C 0.4606(3) 0.3175(3) 0.2103(5)
H15_4 H 0.4412 0.3049 0.1697
C35_4 C 0.4905(3) 0.3075(3) 0.0401(5)
H16_4 H 0.4910 0.3287 0.0682
C36_4 C 0.5171(3) 0.3259(3) 0.2802(5)
H17_4 H 0.5361 0.3185 0.2895
Zr4_2 Zr 0.53597(2) 0.46403(2) 0.5000
Zr6_3 Zr 0.53597(2) 0.07194(3) 0.5000
O3_4 O 0.51725(15) 0.41356(14) 0.5826(3)
C1_4 C 0.4920(2) 0.3991(2) 0.6337(4)
C2_4 C 0.4896(3) 0.3070(2) 0.7787(4)
C3_4 C 0.4879(5) 0.2440(2) 0.9567(6)
C4_4 C 0.4908(2) 0.3665(2) 0.6829(4)
C5_4 C 0.4898(4) 0.2760(2) 0.9133(5)
C6_4 C 0.4899(3) 0.2754(2) 0.8284(4)
C7_4 C 0.4605(3) 0.3460(2) 0.7413(5)
H1_4 H 0.4402 0.3520 0.7470
C8_4 C 0.4891(5) 0.2446(2) 0.7885(6)
H2_4 H 0.4881 0.2440 0.7308
C9_4 C 0.5181(3) 0.3553(3) 0.6735(5)
H3_4 H 0.5381 0.3680 0.6342
C10_4 C 0.4606(3) 0.3175(3) 0.7897(5)
H4_4 H 0.4412 0.3049 0.8303
C11_4 C 0.4905(3) 0.3075(3) 0.9599(5)
H5_4 H 0.4910 0.3287 0.9318
C12_4 C 0.5171(3) 0.3259(3) 0.7198(5)
H6_4 H 0.5361 0.3185 0.7105
C13_6 C 0.3869(7) 0.3869(7) 0.5000
O11_3 O 0.51725(15) 0.10369(21) 0.5826(3)
C37_4 C 0.4920(2) 0.0929(3) 0.6337(4)
C38_4 C 0.4896(3) 0.1826(4) 0.7787(4)
C39_4 C 0.4908(2) 0.1243(3) 0.6829(4)
C40_4 C 0.4898(4) 0.2138(4) 0.9133(5)
C41_4 C 0.4899(3) 0.2145(4) 0.8284(4)
C42_4 C 0.4605(3) 0.1145(4) 0.7413(5)
H18_4 H 0.4402 0.0882 0.7470
C43_4 C 0.5181(3) 0.1628(4) 0.6735(5)
H19_4 H 0.5381 0.1701 0.6342
C44_4 C 0.4606(3) 0.1431(4) 0.7897(5)
H20_4 H 0.4412 0.1363 0.8303
C45_4 C 0.4905(3) 0.1830(4) 0.9599(5)
H21_4 H 0.4910 0.1623 0.9318
C46_4 C 0.5171(3) 0.1912(4) 0.7198(5)
H22_4 H 0.5361 0.2176 0.7105
O13_6 O 0.4010(2) 0.4010(2) 0.4271(7)
O16_4 O 0.51815(11) 0.48185(11) 0.3917(5)
O20_2 O 0.58644(14) 0.48275(15) 0.4174(3)
O22_2 O 0.58644(14) 0.48275(15) 0.5826(3)
H24_6 H 0.359408 0.359408 0.5
O7_4 O 0.89631(21) 0.41356(26) 0.4174(3)
O8_5 O 0.94227(21) 0.40804(26) 0.3486(2)
C15_5 C 0.9071(3) 0.3991(4) 0.3663(4)
C16_5 C 0.8174(4) 0.3070(5) 0.2213(4)
C17_5 C 0.7561(5) 0.2440(7) 0.0433(6)
C18_5 C 0.8757(3) 0.3665(4) 0.3171(4)
C19_5 C 0.7862(4) 0.2760(6) 0.0867(5)
C20_5 C 0.7855(4) 0.2754(5) 0.1716(4)
C21_5 C 0.8855(4) 0.3460(5) 0.2587(5)
H7_5 H 0.9118 0.3520 0.2530
C22_5 C 0.7555(5) 0.2446(7) 0.2115(6)
H8_5 H 0.7559 0.2440 0.2692
C23_5 C 0.8372(4) 0.3553(5) 0.3265(5)
H9_5 H 0.8299 0.3680 0.3658
C24_5 C 0.8569(4) 0.3175(5) 0.2103(5)
H10_5 H 0.8637 0.3049 0.1697
C25_5 C 0.8170(4) 0.3075(5) 0.0401(5)
H11_5 H 0.8377 0.3287 0.0682
C26_5 C 0.8088(4) 0.3259(5) 0.2802(5)
H12_5 H 0.7824 0.3185 0.2895
O9_5 O 0.58644(14) 0.10369(21) 0.4174(3)
O10_5 O 0.59196(15) 0.05773(21) 0.3486(2)
C27_5 C 0.6009(2) 0.0929(3) 0.3663(4)
C28_5 C 0.6930(2) 0.1826(4) 0.2213(4)
C29_5 C 0.6335(2) 0.1243(3) 0.3171(4)
C30_5 C 0.7240(2) 0.2138(4) 0.0867(5)
C31_5 C 0.7246(2) 0.2145(4) 0.1716(4)
C32_5 C 0.6540(2) 0.1145(4) 0.2587(5)
H13_5 H 0.6480 0.0882 0.2530
C33_5 C 0.6447(3) 0.1628(4) 0.3265(5)
H14_5 H 0.6320 0.1701 0.3658
C34_5 C 0.6825(3) 0.1431(4) 0.2103(5)
H15_5 H 0.6951 0.1363 0.1697
C35_5 C 0.6925(3) 0.1830(4) 0.0401(5)
H16_5 H 0.6713 0.1623 0.0682
C36_5 C 0.6741(3) 0.1912(4) 0.2802(5)
H17_5 H 0.6815 0.2176 0.2895
Zr6_4 Zr 0.92806(3) 0.46403(4) 0.5000
O3_5 O 0.58644(14) 0.10369(21) 0.5826(3)
C1_5 C 0.6009(2) 0.0929(3) 0.6337(4)
C2_5 C 0.6930(2) 0.1826(4) 0.7787(4)
C3_5 C 0.7560(2) 0.2439(5) 0.9567(6)
C4_5 C 0.6335(2) 0.1243(3) 0.6829(4)
C5_5 C 0.7240(2) 0.2138(4) 0.9133(5)
C6_5 C 0.7246(2) 0.2145(4) 0.8284(4)
C7_5 C 0.6540(2) 0.1145(4) 0.7413(5)
H1_5 H 0.6480 0.0882 0.7470
C8_5 C 0.7554(2) 0.2445(5) 0.7885(6)
H2_5 H 0.7560 0.2441 0.7308
C9_5 C 0.6447(3) 0.1628(4) 0.6735(5)
H3_5 H 0.6320 0.1701 0.6342
C10_5 C 0.6825(3) 0.1431(4) 0.7897(5)
H4_5 H 0.6951 0.1363 0.8303
C11_5 C 0.6925(3) 0.1830(4) 0.9599(5)
H5_5 H 0.6713 0.1623 0.9318
C12_5 C 0.6741(3) 0.1912(4) 0.7198(5)
H6_5 H 0.6815 0.2176 0.7105
C13_7 C 0.6131(7) -0.0000(10) 0.5000
O11_4 O 0.89631(21) 0.41356(26) 0.5826(3)
C37_5 C 0.9071(3) 0.3991(4) 0.6337(4)
C38_5 C 0.8174(4) 0.3070(5) 0.7787(4)
C39_5 C 0.8757(3) 0.3665(4) 0.6829(4)
C40_5 C 0.7862(4) 0.2760(6) 0.9133(5)
C41_5 C 0.7855(4) 0.2754(5) 0.8284(4)
C42_5 C 0.8855(4) 0.3460(5) 0.7413(5)
H18_5 H 0.9118 0.3520 0.7470
C43_5 C 0.8372(4) 0.3553(5) 0.6735(5)
H19_5 H 0.8299 0.3680 0.6342
C44_5 C 0.8569(4) 0.3175(5) 0.7897(5)
H20_5 H 0.8637 0.3049 0.8303
C45_5 C 0.8170(4) 0.3075(5) 0.9599(5)
H21_5 H 0.8377 0.3287 0.9318
C46_5 C 0.8088(4) 0.3259(5) 0.7198(5)
H22_5 H 0.7824 0.3185 0.7105
O13_7 O 0.5990(2) -0.0000(3) 0.4271(7)
O16_5 O 0.51815(11) 0.03630(16) 0.3917(5)
H24_7 H 0.640592 1.11022e-16 0.5
C13_8 C 0.6131(7) 1.0000(10) 0.5000
O13_8 O 0.5990(2) 1.0000(3) 0.4271(7)
H24_8 H 0.640592 1 0.5
C13_9 C -0.0000(10) 0.6131(7) 0.5000
O13_9 O -0.0000(3) 0.5990(2) 0.4271(7)
H24_9 H -1.36444e-16 0.640592 0.5
O8_6 O 0.59196(26) 0.53423(15) 0.3486(2)
C15_6 C 0.6009(4) 0.5080(2) 0.3663(4)
C16_6 C 0.6930(5) 0.5104(3) 0.2213(4)
C17_6 C 0.7560(7) 0.5121(5) 0.0433(6)
C18_6 C 0.6335(4) 0.5092(2) 0.3171(4)
C19_6 C 0.7240(6) 0.5102(4) 0.0867(5)
C20_6 C 0.7246(5) 0.5101(3) 0.1716(4)
C21_6 C 0.6540(5) 0.5395(3) 0.2587(5)
H7_6 H 0.6480 0.5598 0.2530
C22_6 C 0.7554(7) 0.5109(5) 0.2115(6)
H8_6 H 0.7560 0.5119 0.2692
C23_6 C 0.6447(5) 0.4819(3) 0.3265(5)
H9_6 H 0.6320 0.4619 0.3658
C24_6 C 0.6825(5) 0.5394(3) 0.2103(5)
H10_6 H 0.6951 0.5588 0.1697
C25_6 C 0.6925(5) 0.5095(3) 0.0401(5)
H11_6 H 0.6713 0.5090 0.0682
C26_6 C 0.6741(5) 0.4829(3) 0.2802(5)
H12_6 H 0.6815 0.4639 0.2895
O9_6 O 0.89631(21) 0.48275(15) 0.4174(3)
O10_6 O 0.94227(21) 0.53423(15) 0.3486(2)
C27_6 C 0.9071(3) 0.5080(2) 0.3663(4)
C28_6 C 0.8174(4) 0.5104(3) 0.2213(4)
C29_6 C 0.8757(3) 0.5092(2) 0.3171(4)
C30_6 C 0.7862(4) 0.5102(4) 0.0867(5)
C31_6 C 0.7855(4) 0.5101(3) 0.1716(4)
C32_6 C 0.8855(4) 0.5395(3) 0.2587(5)
H13_6 H 0.9118 0.5598 0.2530
C33_6 C 0.8372(4) 0.4819(3) 0.3265(5)
H14_6 H 0.8299 0.4619 0.3658
C34_6 C 0.8569(4) 0.5394(3) 0.2103(5)
H15_6 H 0.8637 0.5588 0.1697
C35_6 C 0.8170(4) 0.5095(3) 0.0401(5)
H16_6 H 0.8377 0.5090 0.0682
C36_6 C 0.8088(4) 0.4829(3) 0.2802(5)
H17_6 H 0.7824 0.4639 0.2895
O3_6 O 0.89631(21) 0.48275(15) 0.5826(3)
C1_6 C 0.9071(3) 0.5080(2) 0.6337(4)
C2_6 C 0.8174(4) 0.5104(3) 0.7787(4)
C3_6 C 0.7561(5) 0.5121(5) 0.9567(6)
C4_6 C 0.8757(3) 0.5092(2) 0.6829(4)
C5_6 C 0.7862(4) 0.5102(4) 0.9133(5)
C6_6 C 0.7855(4) 0.5101(3) 0.8284(4)
C7_6 C 0.8855(4) 0.5395(3) 0.7413(5)
H1_6 H 0.9118 0.5598 0.7470
C8_6 C 0.7555(5) 0.5109(5) 0.7885(6)
H2_6 H 0.7559 0.5119 0.7308
C9_6 C 0.8372(4) 0.4819(3) 0.6735(5)
H3_6 H 0.8299 0.4619 0.6342
C10_6 C 0.8569(4) 0.5394(3) 0.7897(5)
H4_6 H 0.8637 0.5588 0.8303
C11_6 C 0.8170(4) 0.5095(3) 0.9599(5)
H5_6 H 0.8377 0.5090 0.9318
C12_6 C 0.8088(4) 0.4829(3) 0.7198(5)
H6_6 H 0.7824 0.4639 0.7105
C13_10 C 1.0000(10) 0.6131(7) 0.5000
C37_6 C 0.6009(4) 0.5080(2) 0.6337(4)
C38_6 C 0.6930(5) 0.5104(3) 0.7787(4)
C39_6 C 0.6335(4) 0.5092(2) 0.6829(4)
C40_6 C 0.7240(6) 0.5102(4) 0.9133(5)
C41_6 C 0.7246(5) 0.5101(3) 0.8284(4)
C42_6 C 0.6540(5) 0.5395(3) 0.7413(5)
H18_6 H 0.6480 0.5598 0.7470
C43_6 C 0.6447(5) 0.4819(3) 0.6735(5)
H19_6 H 0.6320 0.4619 0.6342
C44_6 C 0.6825(5) 0.5394(3) 0.7897(5)
H20_6 H 0.6951 0.5588 0.8303
C45_6 C 0.6925(5) 0.5095(3) 0.9599(5)
H21_6 H 0.6713 0.5090 0.9318
C46_6 C 0.6741(5) 0.4829(3) 0.7198(5)
H22_6 H 0.6815 0.4639 0.7105
O13_10 O 1.0000(3) 0.5990(2) 0.4271(7)
O16_6 O 0.96370(16) 0.48185(11) 0.3917(5)
H24_10 H 1 0.640592 0.5
O6_6 O 0.5309(7) 0.5309(7) 0.2595(8)
C14_6 C 0.5000 0.5000 0.2259(18)
O14_6 O 0.4691(7) 0.4691(7) 0.2595(8)
H23_6 H 0.5 0.5 0.159681
O6_7 O 0.0000(10) 0.4691(7) 0.2595(8)
C14_7 C -0.0000 0.5000 0.2259(18)
O14_7 O -0.0000(10) 0.5309(7) 0.2595(8)
H23_7 H -8.11881e-18 0.5 0.159681
O6_8 O 1.0000(10) 0.4691(7) 0.2595(8)
C14_8 C 1.0000 0.5000 0.2259(18)
O14_8 O 1.0000(10) 0.5309(7) 0.2595(8)
H23_8 H 1 0.5 0.159681
O6_9 O 0.4691(7) -0.0000(10) 0.2595(8)
C14_9 C 0.5000 0.0000 0.2259(18)
O14_9 O 0.5309(7) 0.0000(10) 0.2595(8)
H23_9 H 0.5 -1.54074e-33 0.159681
O6_10 O 0.4691(7) 1.0000(10) 0.2595(8)
C14_10 C 0.5000 1.0000 0.2259(18)
O14_10 O 0.5309(7) 1.0000(10) 0.2595(8)
H23_10 H 0.5 1 0.159681
loop_
_geom_bond_atom_site_label_1
_geom_bond_atom_site_label_2
_geom_bond_site_symmetry_1
_geom_bond_site_symmetry_2
O7 C15 1_555 1_555
O8 C15 1_555 1_555
C15 C18 1_555 1_555
C16 C20 1_555 1_555
C18 C21 1_555 1_555
C19 C17 1_555 1_555
C20 C19 1_555 1_555
C21 H7 1_555 1_555
C22 C20 1_555 1_555
H8 C22 1_555 1_555
C23 C18 1_555 1_555
H9 C23 1_555 1_555
C24 C16 1_555 1_555
H10 C24 1_555 1_555
C25 C19 1_555 1_555
H11 C25 1_555 1_555
C26 C16 1_555 1_555
H12 C26 1_555 1_555
O9 C27 1_555 1_555
O10 C27 1_555 1_555
C27 C29 1_555 1_555
C28 C31 1_555 1_555
C29 C32 1_555 1_555
C30 C17 1_555 1_555
C31 C22 1_555 1_555
C32 H13 1_555 1_555
C33 C29 1_555 1_555
H14 C33 1_555 1_555
C34 C28 1_555 1_555
H15 C34 1_555 1_555
H16 C35 1_555 1_555
C36 C28 1_555 1_555
H17 C36 1_555 1_555
Zr4 O9 1_555 1_555
Zr6 O7 1_555 1_555
Zr9 O10 1_555 1_555
Zr11_2 O8 1_555 1_555
C21 C24 1_555 1_555
C23 C26 1_555 1_555
C30 C31 1_555 1_555
C30 C35 1_555 1_555
C32 C34 1_555 1_555
C33 C36 1_555 1_555
Zr4 O1 1_555 1_555
Zr2 O1 1_555 1_555
O1 Zr9 1_555 1_555
O2 Zr4 1_555 1_555
O3 Zr4 1_555 1_555
O4 Zr2 1_555 1_555
O5 Zr2 1_555 1_555
O6 Zr2 1_555 1_555
C1 O3 1_555 1_555
C2 C6 1_555 1_555
C3 C5 1_555 1_555
C4 C1 1_555 1_555
C5 C6 1_555 1_555
C6 C8 1_555 1_555
C7 C4 1_555 1_555
H1 C7 1_555 1_555
C8 H2 1_555 1_555
C9 C4 1_555 1_555
H3 C9 1_555 1_555
C10 C2 1_555 1_555
H4 C10 1_555 1_555
C11 C5 1_555 1_555
H5 C11 1_555 1_555
C12 C2 1_555 1_555
H6 C12 1_555 1_555
C13 O5 1_555 1_555
C14 O6 1_555 1_555
O11 C37 1_555 1_555
O12 C37 1_555 1_555
C37 C39 1_555 1_555
C38 C41 1_555 1_555
C39 C42 1_555 1_555
C40 C3 1_555 1_555
C41 C8 1_555 1_555
C42 H18 1_555 1_555
C43 C39 1_555 1_555
H19 C43 1_555 1_555
C44 C38 1_555 1_555
H20 C44 1_555 1_555
H21 C45 1_555 1_555
C46 C38 1_555 1_555
H22 C46 1_555 1_555
O13 C13 1_555 1_555
O14 C14 1_555 1_555
Zr3 O2 1_555 1_555
O15 Zr4 1_555 1_555
O16 Zr4 1_555 1_555
Zr6 O11 1_555 1_555
Zr7_2 O12 1_555 1_555
Zr9 O13 1_555 1_555
Zr10 O15 1_555 1_555
O17 Zr3 1_555 1_555
O18 Zr2 1_555 1_555
O19 Zr2 1_555 1_555
O20 Zr4 1_555 1_555
O22 Zr4 1_555 1_555
O23 Zr3 1_555 1_555
O24 Zr3 1_555 1_555
O25 Zr2 1_555 1_555
O26 Zr3 1_555 1_555
Zr2 O2 1_555 1_555
O4 C1 1_555 1_555
C7 C10 1_555 1_555
C9 C12 1_555 1_555
C40 C41 1_555 1_555
C40 C45 1_555 1_555
C42 C44 1_555 1_555
C43 C46 1_555 1_555
O14 Zr3 1_555 1_555
Zr3 O15 1_555 1_555
Zr3 O19 1_555 1_555
O16 Zr9 1_555 1_555
O16 Zr10 1_555 1_555
Zr9 O18 1_555 1_555
Zr10 O17 1_555 1_555
C14 H23 1_555 1_555
C13 H24 1_555 1_555
O5_2 Zr2_2 1_555 1_555
O6_2 Zr2_2 1_555 1_555
C13_2 O5_2 1_555 1_555
C14_2 O6_2 1_555 1_555
O13_2 C13_2 1_555 1_555
O14_2 C14_2 1_555 1_555
Zr9_2 O13_2 1_555 1_555
O17_2 Zr7 1_555 1_555
O18_2 Zr2_2 1_555 1_555
O19_2 Zr2_2 1_555 1_555
O23_2 Zr7 1_555 1_555
O25_2 Zr2_2 1_555 1_555
O26_2 Zr7 1_555 1_555
O14_2 Zr7 1_555 1_555
Zr7 O19_2 1_555 1_555
Zr9_2 O18_2 1_555 1_555
Zr11 O17_2 1_555 1_555
C14_2 H23_2 1_555 1_555
C13_2 H24_2 1_555 1_555
O7_2 C15_2 1_555 1_555
O8_2 C15_2 1_555 1_555
C15_2 C18_2 1_555 1_555
C16_2 C20_2 1_555 1_555
C18_2 C21_2 1_555 1_555
C19_2 C17_2 1_555 1_555
C20_2 C19_2 1_555 1_555
C21_2 H7_2 1_555 1_555
C22_2 C20_2 1_555 1_555
H8_2 C22_2 1_555 1_555
C23_2 C18_2 1_555 1_555
H9_2 C23_2 1_555 1_555
C24_2 C16_2 1_555 1_555
H10_2 C24_2 1_555 1_555
C25_2 C19_2 1_555 1_555
H11_2 C25_2 1_555 1_555
C26_2 C16_2 1_555 1_555
H12_2 C26_2 1_555 1_555
O9_2 C27_2 1_555 1_555
O10_2 C27_2 1_555 1_555
C27_2 C29_2 1_555 1_555
C28_2 C31_2 1_555 1_555
C29_2 C32_2 1_555 1_555
C30_2 C17_2 1_555 1_555
C31_2 C22_2 1_555 1_555
C32_2 H13_2 1_555 1_555
C33_2 C29_2 1_555 1_555
H14_2 C33_2 1_555 1_555
C34_2 C28_2 1_555 1_555
H15_2 C34_2 1_555 1_555
H16_2 C35_2 1_555 1_555
C36_2 C28_2 1_555 1_555
H17_2 C36_2 1_555 1_555
Zr6 O9_2 1_555 1_555
Zr6_2 O7_2 1_555 1_555
Zr9_3 O10_2 1_555 1_555
Zr11_3 O8_2 1_555 1_555
C21_2 C24_2 1_555 1_555
C23_2 C26_2 1_555 1_555
C30_2 C31_2 1_555 1_555
C30_2 C35_2 1_555 1_555
C32_2 C34_2 1_555 1_555
C33_2 C36_2 1_555 1_555
Zr6 O1_2 1_555 1_555
Zr2_3 O1_2 1_555 1_555
O1_2 Zr9_3 1_555 1_555
O2_2 Zr6 1_555 1_555
O3_2 Zr6 1_555 1_555
O4_2 Zr2_3 1_555 1_555
O5_3 Zr2_3 1_555 1_555
O6_3 Zr2_3 1_555 1_555
C1_2 O3_2 1_555 1_555
C2_2 C6_2 1_555 1_555
C3_2 C5_2 1_555 1_555
C4_2 C1_2 1_555 1_555
C5_2 C6_2 1_555 1_555
C6_2 C8_2 1_555 1_555
C7_2 C4_2 1_555 1_555
H1_2 C7_2 1_555 1_555
C8_2 H2_2 1_555 1_555
C9_2 C4_2 1_555 1_555
H3_2 C9_2 1_555 1_555
C10_2 C2_2 1_555 1_555
H4_2 C10_2 1_555 1_555
C11_2 C5_2 1_555 1_555
H5_2 C11_2 1_555 1_555
C12_2 C2_2 1_555 1_555
H6_2 C12_2 1_555 1_555
C13_3 O5_3 1_555 1_555
C14_3 O6_3 1_555 1_555
O11_2 C37_2 1_555 1_555
O12_2 C37_2 1_555 1_555
C37_2 C39_2 1_555 1_555
C38_2 C41_2 1_555 1_555
C39_2 C42_2 1_555 1_555
C40_2 C3_2 1_555 1_555
C41_2 C8_2 1_555 1_555
C42_2 H18_2 1_555 1_555
C43_2 C39_2 1_555 1_555
H19_2 C43_2 1_555 1_555
C44_2 C38_2 1_555 1_555
H20_2 C44_2 1_555 1_555
H21_2 C45_2 1_555 1_555
C46_2 C38_2 1_555 1_555
H22_2 C46_2 1_555 1_555
O13_3 C13_3 1_555 1_555
O14_3 C14_3 1_555 1_555
Zr7_2 O2_2 1_555 1_555
O15_2 Zr6 1_555 1_555
O16_2 Zr6 1_555 1_555
Zr6_2 O11_2 1_555 1_555
Zr7_3 O12_2 1_555 1_555
Zr9_3 O13_3 1_555 1_555
Zr11_2 O15_2 1_555 1_555
O26_3 Zr7_2 1_555 1_555
Zr2_3 O2_2 1_555 1_555
O4_2 C1_2 1_555 1_555
C7_2 C10_2 1_555 1_555
C9_2 C12_2 1_555 1_555
C40_2 C41_2 1_555 1_555
C40_2 C45_2 1_555 1_555
C42_2 C44_2 1_555 1_555
C43_2 C46_2 1_555 1_555
O14_3 Zr7_2 1_555 1_555
Zr7_2 O15_2 1_555 1_555
O16_2 Zr9_3 1_555 1_555
O16_2 Zr11_2 1_555 1_555
C14_3 H23_3 1_555 1_555
C13_3 H24_3 1_555 1_555
O20 C15_3 1_555 1_555
O8_3 C15_3 1_555 1_555
C15_3 C18_3 1_555 1_555
C16_3 C20_3 1_555 1_555
C18_3 C21_3 1_555 1_555
C19_3 C17_3 1_555 1_555
C20_3 C19_3 1_555 1_555
C21_3 H7_3 1_555 1_555
C22_3 C20_3 1_555 1_555
H8_3 C22_3 1_555 1_555
C23_3 C18_3 1_555 1_555
H9_3 C23_3 1_555 1_555
C24_3 C16_3 1_555 1_555
H10_3 C24_3 1_555 1_555
C25_3 C19_3 1_555 1_555
H11_3 C25_3 1_555 1_555
C26_3 C16_3 1_555 1_555
H12_3 C26_3 1_555 1_555
O9_3 C27_3 1_555 1_555
O10_3 C27_3 1_555 1_555
C27_3 C29_3 1_555 1_555
C28_3 C31_3 1_555 1_555
C29_3 C32_3 1_555 1_555
C30_3 C17_3 1_555 1_555
C31_3 C22_3 1_555 1_555
C32_3 H13_3 1_555 1_555
C33_3 C29_3 1_555 1_555
H14_3 C33_3 1_555 1_555
C34_3 C28_3 1_555 1_555
H15_3 C34_3 1_555 1_555
H16_3 C35_3 1_555 1_555
C36_3 C28_3 1_555 1_555
H17_3 C36_3 1_555 1_555
Zr6_2 O9_3 1_555 1_555
Zr9_4 O10_3 1_555 1_555
Zr10 O8_3 1_555 1_555
C21_3 C24_3 1_555 1_555
C23_3 C26_3 1_555 1_555
C30_3 C31_3 1_555 1_555
C30_3 C35_3 1_555 1_555
C32_3 C34_3 1_555 1_555
C33_3 C36_3 1_555 1_555
Zr6_2 O1_3 1_555 1_555
Zr2_4 O1_3 1_555 1_555
O1_3 Zr9_4 1_555 1_555
O2_3 Zr6_2 1_555 1_555
O3_3 Zr6_2 1_555 1_555
O4_3 Zr2_4 1_555 1_555
O5_4 Zr2_4 1_555 1_555
O6_4 Zr2_4 1_555 1_555
C1_3 O3_3 1_555 1_555
C2_3 C6_3 1_555 1_555
C3_3 C5_3 1_555 1_555
C4_3 C1_3 1_555 1_555
C5_3 C6_3 1_555 1_555
C6_3 C8_3 1_555 1_555
C7_3 C4_3 1_555 1_555
H1_3 C7_3 1_555 1_555
C8_3 H2_3 1_555 1_555
C9_3 C4_3 1_555 1_555
H3_3 C9_3 1_555 1_555
C10_3 C2_3 1_555 1_555
H4_3 C10_3 1_555 1_555
C11_3 C5_3 1_555 1_555
H5_3 C11_3 1_555 1_555
C12_3 C2_3 1_555 1_555
H6_3 C12_3 1_555 1_555
C13_4 O5_4 1_555 1_555
C14_4 O6_4 1_555 1_555
O22 C37_3 1_555 1_555
O24 C37_3 1_555 1_555
C37_3 C39_3 1_555 1_555
C38_3 C41_3 1_555 1_555
C39_3 C42_3 1_555 1_555
C40_3 C3_3 1_555 1_555
C41_3 C8_3 1_555 1_555
C42_3 H18_3 1_555 1_555
C43_3 C39_3 1_555 1_555
H19_3 C43_3 1_555 1_555
C44_3 C38_3 1_555 1_555
H20_3 C44_3 1_555 1_555
H21_3 C45_3 1_555 1_555
C46_3 C38_3 1_555 1_555
H22_3 C46_3 1_555 1_555
O13_4 C13_4 1_555 1_555
O14_4 C14_4 1_555 1_555
Zr7_3 O2_3 1_555 1_555
O15_3 Zr6_2 1_555 1_555
O16_3 Zr6_2 1_555 1_555
Zr9_4 O13_4 1_555 1_555
Zr11_3 O15_3 1_555 1_555
O26_4 Zr7_3 1_555 1_555
Zr2_4 O2_3 1_555 1_555
O4_3 C1_3 1_555 1_555
C7_3 C10_3 1_555 1_555
C9_3 C12_3 1_555 1_555
C40_3 C41_3 1_555 1_555
C40_3 C45_3 1_555 1_555
C42_3 C44_3 1_555 1_555
C43_3 C46_3 1_555 1_555
O14_4 Zr7_3 1_555 1_555
Zr7_3 O15_3 1_555 1_555
O16_3 Zr9_4 1_555 1_555
O16_3 Zr11_3 1_555 1_555
C14_4 H23_4 1_555 1_555
C13_4 H24_4 1_555 1_555
O5_5 Zr2_5 1_555 1_555
O6_5 Zr2_5 1_555 1_555
C13_5 O5_5 1_555 1_555
C14_5 O6_5 1_555 1_555
O13_5 C13_5 1_555 1_555
O14_5 C14_5 1_555 1_555
Zr9_5 O13_5 1_555 1_555
O17_3 Zr7_4 1_555 1_555
O18_3 Zr2_5 1_555 1_555
O19_3 Zr2_5 1_555 1_555
O23_3 Zr7_4 1_555 1_555
O25_3 Zr2_5 1_555 1_555
O26_5 Zr7_4 1_555 1_555
O14_5 Zr7_4 1_555 1_555
Zr7_4 O19_3 1_555 1_555
Zr9_5 O18_3 1_555 1_555
Zr11_4 O17_3 1_555 1_555
C14_5 H23_5 1_555 1_555
C13_5 H24_5 1_555 1_555
O7_3 C15_4 1_555 1_555
O8_4 C15_4 1_555 1_555
C15_4 C18_4 1_555 1_555
C16_4 C20_4 1_555 1_555
C18_4 C21_4 1_555 1_555
C19_4 C17_4 1_555 1_555
C20_4 C19_4 1_555 1_555
C21_4 H7_4 1_555 1_555
C22_4 C20_4 1_555 1_555
H8_4 C22_4 1_555 1_555
C23_4 C18_4 1_555 1_555
H9_4 C23_4 1_555 1_555
C24_4 C16_4 1_555 1_555
H10_4 C24_4 1_555 1_555
C25_4 C19_4 1_555 1_555
H11_4 C25_4 1_555 1_555
C26_4 C16_4 1_555 1_555
H12_4 C26_4 1_555 1_555
O9_4 C27_4 1_555 1_555
O10_4 C27_4 1_555 1_555
C27_4 C29_4 1_555 1_555
C28_4 C31_4 1_555 1_555
C29_4 C32_4 1_555 1_555
C30_4 C17_4 1_555 1_555
C31_4 C22_4 1_555 1_555
C32_4 H13_4 1_555 1_555
C33_4 C29_4 1_555 1_555
H14_4 C33_4 1_555 1_555
C34_4 C28_4 1_555 1_555
H15_4 C34_4 1_555 1_555
H16_4 C35_4 1_555 1_555
C36_4 C28_4 1_555 1_555
H17_4 C36_4 1_555 1_555
Zr4_2 O9_4 1_555 1_555
Zr6_3 O7_3 1_555 1_555
Zr10 O10_4 1_555 1_555
Zr9_2 O8_4 1_555 1_555
C21_4 C24_4 1_555 1_555
C23_4 C26_4 1_555 1_555
C30_4 C31_4 1_555 1_555
C30_4 C35_4 1_555 1_555
C32_4 C34_4 1_555 1_555
C33_4 C36_4 1_555 1_555
Zr4_2 O17 1_555 1_555
O19 Zr4_2 1_555 1_555
O3_4 Zr4_2 1_555 1_555
C1_4 O3_4 1_555 1_555
C2_4 C6_4 1_555 1_555
C3_4 C5_4 1_555 1_555
C4_4 C1_4 1_555 1_555
C5_4 C6_4 1_555 1_555
C6_4 C8_4 1_555 1_555
C7_4 C4_4 1_555 1_555
H1_4 C7_4 1_555 1_555
C8_4 H2_4 1_555 1_555
C9_4 C4_4 1_555 1_555
H3_4 C9_4 1_555 1_555
C10_4 C2_4 1_555 1_555
H4_4 C10_4 1_555 1_555
C11_4 C5_4 1_555 1_555
H5_4 C11_4 1_555 1_555
C12_4 C2_4 1_555 1_555
H6_4 C12_4 1_555 1_555
C13_6 O26 1_555 1_555
O11_3 C37_4 1_555 1_555
O25_2 C37_4 1_555 1_555
C37_4 C39_4 1_555 1_555
C38_4 C41_4 1_555 1_555
C39_4 C42_4 1_555 1_555
C40_4 C3_4 1_555 1_555
C41_4 C8_4 1_555 1_555
C42_4 H18_4 1_555 1_555
C43_4 C39_4 1_555 1_555
H19_4 C43_4 1_555 1_555
C44_4 C38_4 1_555 1_555
H20_4 C44_4 1_555 1_555
H21_4 C45_4 1_555 1_555
C46_4 C38_4 1_555 1_555
H22_4 C46_4 1_555 1_555
O13_6 C13_6 1_555 1_555
O18 Zr4_2 1_555 1_555
O16_4 Zr4_2 1_555 1_555
Zr6_3 O11_3 1_555 1_555
Zr10 O13_6 1_555 1_555
O20_2 Zr4_2 1_555 1_555
O22_2 Zr4_2 1_555 1_555
O23 C1_4 1_555 1_555
C7_4 C10_4 1_555 1_555
C9_4 C12_4 1_555 1_555
C40_4 C41_4 1_555 1_555
C40_4 C45_4 1_555 1_555
C42_4 C44_4 1_555 1_555
C43_4 C46_4 1_555 1_555
O16_4 Zr10 1_555 1_555
O16_4 Zr9 1_555 1_555
C13_6 H24_6 1_555 1_555
O7_4 C15_5 1_555 1_555
O8_5 C15_5 1_555 1_555
C15_5 C18_5 1_555 1_555
C16_5 C20_5 1_555 1_555
C18_5 C21_5 1_555 1_555
C19_5 C17_5 1_555 1_555
C20_5 C19_5 1_555 1_555
C21_5 H7_5 1_555 1_555
C22_5 C20_5 1_555 1_555
H8_5 C22_5 1_555 1_555
C23_5 C18_5 1_555 1_555
H9_5 C23_5 1_555 1_555
C24_5 C16_5 1_555 1_555
H10_5 C24_5 1_555 1_555
C25_5 C19_5 1_555 1_555
H11_5 C25_5 1_555 1_555
C26_5 C16_5 1_555 1_555
H12_5 C26_5 1_555 1_555
O9_5 C27_5 1_555 1_555
O10_5 C27_5 1_555 1_555
C27_5 C29_5 1_555 1_555
C28_5 C31_5 1_555 1_555
C29_5 C32_5 1_555 1_555
C30_5 C17_5 1_555 1_555
C31_5 C22_5 1_555 1_555
C32_5 H13_5 1_555 1_555
C33_5 C29_5 1_555 1_555
H14_5 C33_5 1_555 1_555
C34_5 C28_5 1_555 1_555
H15_5 C34_5 1_555 1_555
H16_5 C35_5 1_555 1_555
C36_5 C28_5 1_555 1_555
H17_5 C36_5 1_555 1_555
Zr6_3 O9_5 1_555 1_555
Zr6_4 O7_4 1_555 1_555
Zr11 O10_5 1_555 1_555
Zr9_5 O8_5 1_555 1_555
C21_5 C24_5 1_555 1_555
C23_5 C26_5 1_555 1_555
C30_5 C31_5 1_555 1_555
C30_5 C35_5 1_555 1_555
C32_5 C34_5 1_555 1_555
C33_5 C36_5 1_555 1_555
Zr6_3 O17_2 1_555 1_555
O19_2 Zr6_3 1_555 1_555
O3_5 Zr6_3 1_555 1_555
C1_5 O3_5 1_555 1_555
C2_5 C6_5 1_555 1_555
C3_5 C5_5 1_555 1_555
C4_5 C1_5 1_555 1_555
C5_5 C6_5 1_555 1_555
C6_5 C8_5 1_555 1_555
C7_5 C4_5 1_555 1_555
H1_5 C7_5 1_555 1_555
C8_5 H2_5 1_555 1_555
C9_5 C4_5 1_555 1_555
H3_5 C9_5 1_555 1_555
C10_5 C2_5 1_555 1_555
H4_5 C10_5 1_555 1_555
C11_5 C5_5 1_555 1_555
H5_5 C11_5 1_555 1_555
C12_5 C2_5 1_555 1_555
H6_5 C12_5 1_555 1_555
C13_7 O26_2 1_555 1_555
O11_4 C37_5 1_555 1_555
O25_3 C37_5 1_555 1_555
C37_5 C39_5 1_555 1_555
C38_5 C41_5 1_555 1_555
C39_5 C42_5 1_555 1_555
C40_5 C3_5 1_555 1_555
C41_5 C8_5 1_555 1_555
C42_5 H18_5 1_555 1_555
C43_5 C39_5 1_555 1_555
H19_5 C43_5 1_555 1_555
C44_5 C38_5 1_555 1_555
H20_5 C44_5 1_555 1_555
H21_5 C45_5 1_555 1_555
C46_5 C38_5 1_555 1_555
H22_5 C46_5 1_555 1_555
O13_7 C13_7 1_555 1_555
O18_2 Zr6_3 1_555 1_555
O16_5 Zr6_3 1_555 1_555
Zr6_4 O11_4 1_555 1_555
Zr11 O13_7 1_555 1_555
O23_2 C1_5 1_555 1_555
C7_5 C10_5 1_555 1_555
C9_5 C12_5 1_555 1_555
C40_5 C41_5 1_555 1_555
C40_5 C45_5 1_555 1_555
C42_5 C44_5 1_555 1_555
C43_5 C46_5 1_555 1_555
O16_5 Zr11 1_555 1_555
O16_5 Zr9_2 1_555 1_555
C13_7 H24_7 1_555 1_555
C13_8 O26_3 1_555 1_555
O13_8 C13_8 1_555 1_555
Zr11_2 O13_8 1_555 1_555
C13_8 H24_8 1_555 1_555
C13_9 O26_4 1_555 1_555
O13_9 C13_9 1_555 1_555
Zr11_3 O13_9 1_555 1_555
C13_9 H24_9 1_555 1_555
O20_2 C15_6 1_555 1_555
O8_6 C15_6 1_555 1_555
C15_6 C18_6 1_555 1_555
C16_6 C20_6 1_555 1_555
C18_6 C21_6 1_555 1_555
C19_6 C17_6 1_555 1_555
C20_6 C19_6 1_555 1_555
C21_6 H7_6 1_555 1_555
C22_6 C20_6 1_555 1_555
H8_6 C22_6 1_555 1_555
C23_6 C18_6 1_555 1_555
H9_6 C23_6 1_555 1_555
C24_6 C16_6 1_555 1_555
H10_6 C24_6 1_555 1_555
C25_6 C19_6 1_555 1_555
H11_6 C25_6 1_555 1_555
C26_6 C16_6 1_555 1_555
H12_6 C26_6 1_555 1_555
O9_6 C27_6 1_555 1_555
O10_6 C27_6 1_555 1_555
C27_6 C29_6 1_555 1_555
C28_6 C31_6 1_555 1_555
C29_6 C32_6 1_555 1_555
C30_6 C17_6 1_555 1_555
C31_6 C22_6 1_555 1_555
C32_6 H13_6 1_555 1_555
C33_6 C29_6 1_555 1_555
H14_6 C33_6 1_555 1_555
C34_6 C28_6 1_555 1_555
H15_6 C34_6 1_555 1_555
H16_6 C35_6 1_555 1_555
C36_6 C28_6 1_555 1_555
H17_6 C36_6 1_555 1_555
Zr6_4 O9_6 1_555 1_555
Zr11_4 O10_6 1_555 1_555
Zr9 O8_6 1_555 1_555
C21_6 C24_6 1_555 1_555
C23_6 C26_6 1_555 1_555
C30_6 C31_6 1_555 1_555
C30_6 C35_6 1_555 1_555
C32_6 C34_6 1_555 1_555
C33_6 C36_6 1_555 1_555
Zr6_4 O17_3 1_555 1_555
O19_3 Zr6_4 1_555 1_555
O3_6 Zr6_4 1_555 1_555
C1_6 O3_6 1_555 1_555
C2_6 C6_6 1_555 1_555
C3_6 C5_6 1_555 1_555
C4_6 C1_6 1_555 1_555
C5_6 C6_6 1_555 1_555
C6_6 C8_6 1_555 1_555
C7_6 C4_6 1_555 1_555
H1_6 C7_6 1_555 1_555
C8_6 H2_6 1_555 1_555
C9_6 C4_6 1_555 1_555
H3_6 C9_6 1_555 1_555
C10_6 C2_6 1_555 1_555
H4_6 C10_6 1_555 1_555
C11_6 C5_6 1_555 1_555
H5_6 C11_6 1_555 1_555
C12_6 C2_6 1_555 1_555
H6_6 C12_6 1_555 1_555
C13_10 O26_5 1_555 1_555
O22_2 C37_6 1_555 1_555
O25 C37_6 1_555 1_555
C37_6 C39_6 1_555 1_555
C38_6 C41_6 1_555 1_555
C39_6 C42_6 1_555 1_555
C40_6 C3_6 1_555 1_555
C41_6 C8_6 1_555 1_555
C42_6 H18_6 1_555 1_555
C43_6 C39_6 1_555 1_555
H19_6 C43_6 1_555 1_555
C44_6 C38_6 1_555 1_555
H20_6 C44_6 1_555 1_555
H21_6 C45_6 1_555 1_555
C46_6 C38_6 1_555 1_555
H22_6 C46_6 1_555 1_555
O13_10 C13_10 1_555 1_555
O18_3 Zr6_4 1_555 1_555
O16_6 Zr6_4 1_555 1_555
Zr11_4 O13_10 1_555 1_555
O23_3 C1_6 1_555 1_555
C7_6 C10_6 1_555 1_555
C9_6 C12_6 1_555 1_555
C40_6 C41_6 1_555 1_555
C40_6 C45_6 1_555 1_555
C42_6 C44_6 1_555 1_555
C43_6 C46_6 1_555 1_555
O16_6 Zr11_4 1_555 1_555
O16_6 Zr9_5 1_555 1_555
C13_10 H24_10 1_555 1_555
O6_6 Zr9 1_555 1_555
C14_6 O6_6 1_555 1_555
O14_6 C14_6 1_555 1_555
O14_6 Zr10 1_555 1_555
C14_6 H23_6 1_555 1_555
O6_7 Zr9_4 1_555 1_555
C14_7 O6_7 1_555 1_555
O14_7 C14_7 1_555 1_555
O14_7 Zr11_3 1_555 1_555
C14_7 H23_7 1_555 1_555
O6_8 Zr9_5 1_555 1_555
C14_8 O6_8 1_555 1_555
O14_8 C14_8 1_555 1_555
O14_8 Zr11_4 1_555 1_555
C14_8 H23_8 1_555 1_555
O6_9 Zr9_2 1_555 1_555
C14_9 O6_9 1_555 1_555
O14_9 C14_9 1_555 1_555
O14_9 Zr11 1_555 1_555
C14_9 H23_9 1_555 1_555
O6_10 Zr9_3 1_555 1_555
C14_10 O6_10 1_555 1_555
O14_10 C14_10 1_555 1_555
O14_10 Zr11_2 1_555 1_555
C14_10 H23_10 1_555 1_555

#END
