
###############################################################################
#
# This file contains modified crystal structure data generated from the
# MOF subset of the Cambridge Structural Database (CSD) v543 
# hosted by the Cambridge Crystallographic Data Centre (CCDC).
#
# This work is licensed under the Creative Commons
# Attribution-NonCommercial-ShareAlike 4.0 International License.
# To view a copy of this license, visit
# http://creativecommons.org/licenses/by-nc-sa/4.0/
# or send a letter to
# Creative Commons, PO Box 1866, Mountain View, CA 94042, USA.
#
# CIF created using the CSD Python API on 29 September 2022
# The structure has been converted into the P1 space group
# The structure has a 3D framework
# The original CSD entry MAJCEJ is in the hexagonal crystal system
# The framework has been calculated to contain at least 10.0% void space
# The void calculation uses a probe of radius 1.32A, grid spacing 0.4
# The framework is charged, counterions have been retained in the structure
# H atom positions have been added when not included in the experimental data
# Generated hydrogen atom positions removed from atoms on special positions
#
###############################################################################

data_MAJCEJ
_chemical_formula_moiety         '(C264 H276 Cu24 O112 Zr26 45+)n'
_symmetry_cell_setting           triclinic
_symmetry_space_group_name_H-M   'P 1'
_symmetry_Int_Tables_number      1
_space_group_name_Hall           'P 1'
loop_
_symmetry_equiv_pos_site_id
_symmetry_equiv_pos_as_xyz
1 x,y,z
_cell_length_a                   40.051(3)
_cell_length_b                   40.051(3)
_cell_length_c                   16.1766(15)
_cell_angle_alpha                90
_cell_angle_beta                 90
_cell_angle_gamma                120
_cell_volume                     22472.1
loop_
_atom_site_label
_atom_site_type_symbol
_atom_site_fract_x
_atom_site_fract_y
_atom_site_fract_z
Zr1 Zr 0.46464(2) 0.53536(2) 0.5000
Zr2 Zr 0.54439(3) 0.54439(3) 0.39169(6)
O1 O 0.48248(11) 0.51752(11) 0.3927(5)
O2 O 0.5287(2) 0.5630(3) 0.5000
O3 O 0.41481(15) 0.51850(16) 0.4171(3)
O4 O 0.5405(2) 0.5405(2) 0.2573(5)
O5 O 0.5979(2) 0.5979(2) 0.4027(6)
O6 O 0.40888(17) 0.46796(19) 0.3483(4)
C1 C 0.3998(3) 0.4937(3) 0.3656(6)
C2 C 0.2459(3) 0.4919(5) 0.0463(8)
C3 C 0.3083(3) 0.4923(3) 0.2240(6)
C4 C 0.2768(3) 0.4920(4) 0.0877(6)
C5 C 0.3290(3) 0.5204(3) 0.2796(6)
H1 H 0.3244 0.5414 0.2855
C6 C 0.3571(3) 0.5192(3) 0.3282(6)
H2 H 0.3698 0.5379 0.3704
C7 C 0.3079(3) 0.4948(4) 0.0415(6)
H3 H 0.3295 0.4968 0.0700
C8 C 0.3661(3) 0.4922(3) 0.3159(5)
C9 C 0.2765(3) 0.4935(3) 0.1743(5)
C10 C 0.3171(3) 0.4622(4) 0.2147(7)
H4 H 0.3032 0.4418 0.1766
C11 C 0.3463(3) 0.4630(4) 0.2618(6)
H5 H 0.3525 0.4431 0.2563
C12 C 0.2470(2) 0.4941(5) 0.2130(8)
H6 H 0.2475 0.4949 0.2717
O11 O 0.10369(22) 0.51850(16) 0.4171(3)
O12 O 0.05908(25) 0.46796(19) 0.3483(4)
C35 C 0.0939(4) 0.4937(3) 0.3656(6)
C36 C 0.1840(4) 0.4923(3) 0.2240(6)
C37 C 0.2152(5) 0.4920(4) 0.0877(6)
C38 C 0.1914(4) 0.5204(3) 0.2796(6)
H18 H 0.2170 0.5414 0.2855
C39 C 0.1621(4) 0.5192(3) 0.3282(6)
H19 H 0.1681 0.5379 0.3704
C40 C 0.1869(5) 0.4948(4) 0.0415(6)
H20 H 0.1673 0.4968 0.0700
C41 C 0.1261(4) 0.4922(3) 0.3159(5)
C42 C 0.2170(4) 0.4935(3) 0.1743(5)
C43 C 0.1451(5) 0.4622(4) 0.2147(7)
H21 H 0.1386 0.4418 0.1766
C44 C 0.1167(5) 0.4630(4) 0.2618(6)
H22 H 0.0906 0.4431 0.2563
Zr3 Zr 0.45561(3) 0.45561(3) 0.39169(6)
O13 O 0.4595(2) 0.4595(2) 0.2573(5)
O14 O 0.4021(2) 0.4021(2) 0.4027(6)
O15 O 0.48248(11) 0.51752(11) 0.6073(5)
O16 O 0.4370(3) 0.4713(2) 0.5000
Zr6 Zr 0.07072(3) 0.53536(2) 0.5000
Zr7 Zr 0.00000(4) 0.45561(3) 0.39169(6)
Zr8 Zr 0.54439(3) 0.54439(3) 0.60831(6)
Zr11 Zr 0.45561(3) 0.45561(3) 0.60831(6)
O17 O 0.51752(11) 0.48248(11) 0.3927(5)
O18 O 0.4713(2) 0.4370(3) 0.5000
O19 O 0.5630(3) 0.5287(2) 0.5000
O20 O 0.48150(16) 0.58519(15) 0.5829(3)
O21 O 0.41481(15) 0.51850(16) 0.5829(3)
O22 O 0.48150(16) 0.58519(15) 0.4171(3)
O23 O 0.59112(17) 0.53204(19) 0.3483(4)
O24 O 0.53204(19) 0.59112(17) 0.3483(4)
O25 O 0.46796(19) 0.40888(17) 0.3483(4)
O7 O 0.10369(22) 0.51850(16) 0.5829(3)
O8 O 0.05908(25) 0.46796(19) 0.6517(4)
C13 C 0.0939(4) 0.4937(3) 0.6344(6)
C14 C 0.2460(6) 0.4919(5) 0.9537(8)
C15 C 0.1840(4) 0.4923(3) 0.7760(6)
C16 C 0.2152(5) 0.4920(4) 0.9123(6)
C17 C 0.1914(4) 0.5204(3) 0.7204(6)
H7 H 0.2170 0.5414 0.7145
C18 C 0.1621(4) 0.5192(3) 0.6718(6)
H8 H 0.1681 0.5379 0.6296
C19 C 0.1869(5) 0.4948(4) 0.9585(6)
H9 H 0.1673 0.4968 0.9300
C20 C 0.1261(4) 0.4922(3) 0.6841(5)
C21 C 0.2170(4) 0.4935(3) 0.8257(5)
C22 C 0.1451(5) 0.4622(4) 0.7853(7)
H10 H 0.1386 0.4418 0.8234
C23 C 0.1167(5) 0.4630(4) 0.7382(6)
H11 H 0.0906 0.4431 0.7437
C24 C 0.2471(5) 0.4941(5) 0.7870(8)
H12 H 0.2474 0.4949 0.7283
O10 O 0.40888(17) 0.46796(19) 0.6517(4)
C25 C 0.3998(3) 0.4937(3) 0.6344(6)
C26 C 0.3083(3) 0.4923(3) 0.7760(6)
C27 C 0.2768(3) 0.4920(4) 0.9123(6)
C28 C 0.3290(3) 0.5204(3) 0.7204(6)
H13 H 0.3244 0.5414 0.7145
C29 C 0.3571(3) 0.5192(3) 0.6718(6)
H14 H 0.3698 0.5379 0.6296
C30 C 0.3079(3) 0.4948(4) 0.9585(6)
H15 H 0.3295 0.4968 0.9300
C31 C 0.3661(3) 0.4922(3) 0.6841(5)
C32 C 0.2765(3) 0.4935(3) 0.8257(5)
C33 C 0.3171(3) 0.4622(4) 0.7853(7)
H16 H 0.3032 0.4418 0.8234
C34 C 0.3463(3) 0.4630(4) 0.7382(6)
H17 H 0.3525 0.4431 0.7437
Zr9 Zr 0.00000(4) 0.45561(3) 0.60831(6)
Zr7_2 Zr 1.00000(4) 0.45561(3) 0.39169(6)
Zr9_2 Zr 1.00000(4) 0.45561(3) 0.60831(6)
Zr2_2 Zr 0.45561(3) 0.00000(4) 0.39169(6)
O4_2 O 0.4595(2) 0.0000(3) 0.2573(5)
O5_2 O 0.4021(2) -0.0000(3) 0.4027(6)
Zr3_2 Zr 0.54439(3) -0.00000(4) 0.39169(6)
O13_2 O 0.5405(2) 0.0000(3) 0.2573(5)
O14_2 O 0.5979(2) 0.0000(3) 0.4027(6)
Zr8_2 Zr 0.45561(3) 0.00000(4) 0.60831(6)
Zr11_2 Zr 0.54439(3) -0.00000(4) 0.60831(6)
O17_2 O 0.51752(11) 0.03504(16) 0.3927(5)
O18_2 O 0.5630(3) 0.0343(4) 0.5000
O19_2 O 0.4713(2) 0.0343(4) 0.5000
O23_2 O 0.46796(19) 0.05908(25) 0.3483(4)
O25_2 O 0.59112(17) 0.05908(25) 0.3483(4)
Zr1_2 Zr 0.46464(2) 0.92928(3) 0.5000
Zr2_3 Zr 0.45561(3) 1.00000(4) 0.39169(6)
O1_2 O 0.48248(11) 0.96496(16) 0.3927(5)
O2_2 O 0.4370(3) 0.9657(4) 0.5000
O3_2 O 0.48150(16) 0.89631(22) 0.4171(3)
O4_3 O 0.4595(2) 1.0000(3) 0.2573(5)
O5_3 O 0.4021(2) 1.0000(3) 0.4027(6)
O6_2 O 0.53204(19) 0.94092(25) 0.3483(4)
C1_2 C 0.5063(3) 0.9061(4) 0.3656(6)
C2_2 C 0.5081(5) 0.7540(6) 0.0463(8)
C3_2 C 0.5077(3) 0.8160(4) 0.2240(6)
C4_2 C 0.5080(4) 0.7848(5) 0.0877(6)
C5_2 C 0.4796(3) 0.8086(4) 0.2796(6)
H1_2 H 0.4586 0.7830 0.2855
C6_2 C 0.4808(3) 0.8379(4) 0.3282(6)
H2_2 H 0.4621 0.8319 0.3704
C7_2 C 0.5052(4) 0.8131(5) 0.0415(6)
H3_2 H 0.5032 0.8327 0.0700
C8_2 C 0.5078(3) 0.8739(4) 0.3159(5)
C9_2 C 0.5065(3) 0.7830(4) 0.1743(5)
C10_2 C 0.5378(4) 0.8549(5) 0.2147(7)
H4_2 H 0.5582 0.8614 0.1766
C11_2 C 0.5370(4) 0.8833(5) 0.2618(6)
H5_2 H 0.5569 0.9094 0.2563
C12_2 C 0.5059(5) 0.7529(5) 0.2130(8)
H6_2 H 0.5051 0.7526 0.2717
C35_2 C 0.5063(3) 0.6002(5) 0.3656(6)
C36_2 C 0.5077(3) 0.6917(5) 0.2240(6)
C37_2 C 0.5080(4) 0.7232(6) 0.0877(6)
C38_2 C 0.4796(3) 0.6710(5) 0.2796(6)
H18_2 H 0.4586 0.6756 0.2855
C39_2 C 0.4808(3) 0.6429(5) 0.3282(6)
H19_2 H 0.4621 0.6302 0.3704
C40_2 C 0.5052(4) 0.6921(6) 0.0415(6)
H20_2 H 0.5032 0.6705 0.0700
C41_2 C 0.5078(3) 0.6339(5) 0.3159(5)
C42_2 C 0.5065(3) 0.7235(5) 0.1743(5)
C43_2 C 0.5378(4) 0.6829(6) 0.2147(7)
H21_2 H 0.5582 0.6968 0.1766
C44_2 C 0.5370(4) 0.6537(6) 0.2618(6)
H22_2 H 0.5569 0.6475 0.2563
Zr3_3 Zr 0.54439(3) 1.00000(4) 0.39169(6)
O13_3 O 0.5405(2) 1.0000(3) 0.2573(5)
O14_3 O 0.5979(2) 1.0000(3) 0.4027(6)
O15_2 O 0.48248(11) 0.96496(16) 0.6073(5)
O16_2 O 0.5287(2) 0.9657(4) 0.5000
Zr8_3 Zr 0.45561(3) 1.00000(4) 0.60831(6)
Zr11_3 Zr 0.54439(3) 1.00000(4) 0.60831(6)
O20_2 O 0.41481(15) 0.89631(22) 0.5829(3)
O21_2 O 0.48150(16) 0.89631(22) 0.5829(3)
O22_2 O 0.41481(15) 0.89631(22) 0.4171(3)
O24_2 O 0.40888(17) 0.94092(25) 0.3483(4)
O8_2 O 0.53204(19) 0.59112(31) 0.6517(4)
C13_2 C 0.5063(3) 0.6002(5) 0.6344(6)
C14_2 C 0.5081(5) 0.7541(8) 0.9537(8)
C15_2 C 0.5077(3) 0.6917(5) 0.7760(6)
C16_2 C 0.5080(4) 0.7232(6) 0.9123(6)
C17_2 C 0.4796(3) 0.6710(5) 0.7204(6)
H7_2 H 0.4586 0.6756 0.7145
C18_2 C 0.4808(3) 0.6429(5) 0.6718(6)
H8_2 H 0.4621 0.6302 0.6296
C19_2 C 0.5052(4) 0.6921(6) 0.9585(6)
H9_2 H 0.5032 0.6705 0.9300
C20_2 C 0.5078(3) 0.6339(5) 0.6841(5)
C21_2 C 0.5065(3) 0.7235(5) 0.8257(5)
C22_2 C 0.5378(4) 0.6829(6) 0.7853(7)
H10_2 H 0.5582 0.6968 0.8234
C23_2 C 0.5370(4) 0.6537(6) 0.7382(6)
H11_2 H 0.5569 0.6475 0.7437
C24_2 C 0.5059(5) 0.7530(7) 0.7870(8)
H12_2 H 0.5051 0.7525 0.7283
O10_2 O 0.53204(19) 0.94092(25) 0.6517(4)
C25_2 C 0.5063(3) 0.9061(4) 0.6344(6)
C26_2 C 0.5077(3) 0.8160(4) 0.7760(6)
C27_2 C 0.5080(4) 0.7848(5) 0.9123(6)
C28_2 C 0.4796(3) 0.8086(4) 0.7204(6)
H13_2 H 0.4586 0.7830 0.7145
C29_2 C 0.4808(3) 0.8379(4) 0.6718(6)
H14_2 H 0.4621 0.8319 0.6296
C30_2 C 0.5052(4) 0.8131(5) 0.9585(6)
H15_2 H 0.5032 0.8327 0.9300
C31_2 C 0.5078(3) 0.8739(4) 0.6841(5)
C32_2 C 0.5065(3) 0.7830(4) 0.8257(5)
C33_2 C 0.5378(4) 0.8549(5) 0.7853(7)
H16_2 H 0.5582 0.8614 0.8234
C34_2 C 0.5370(4) 0.8833(5) 0.7382(6)
H17_2 H 0.5569 0.9094 0.7437
O1_3 O 0.03504(16) 0.51752(11) 0.3927(5)
O2_3 O 0.0343(4) 0.4713(2) 0.5000
O3_3 O 0.10369(22) 0.58519(15) 0.4171(3)
O4_4 O 0.0000(3) 0.4595(2) 0.2573(5)
O5_4 O 0.0000(3) 0.4021(2) 0.4027(6)
O6_3 O 0.05908(25) 0.59112(17) 0.3483(4)
C1_3 C 0.0939(4) 0.6002(3) 0.3656(6)
C2_3 C 0.2460(6) 0.7541(3) 0.0463(8)
C3_3 C 0.1840(4) 0.6917(3) 0.2240(6)
C4_3 C 0.2152(5) 0.7232(3) 0.0877(6)
C5_3 C 0.1914(4) 0.6710(3) 0.2796(6)
H1_3 H 0.2170 0.6756 0.2855
C6_3 C 0.1621(4) 0.6429(3) 0.3282(6)
H2_3 H 0.1681 0.6302 0.3704
C7_3 C 0.1869(5) 0.6921(3) 0.0415(6)
H3_3 H 0.1673 0.6705 0.0700
C8_3 C 0.1261(4) 0.6339(3) 0.3159(5)
C9_3 C 0.2170(4) 0.7235(3) 0.1743(5)
C10_3 C 0.1451(5) 0.6829(3) 0.2147(7)
H4_3 H 0.1386 0.6968 0.1766
C11_3 C 0.1167(5) 0.6537(3) 0.2618(6)
H5_3 H 0.0906 0.6475 0.2563
C12_3 C 0.2471(5) 0.7530(2) 0.2130(8)
H6_3 H 0.2474 0.7525 0.2717
C35_3 C 0.3998(5) 0.9061(4) 0.3656(6)
C36_3 C 0.3083(5) 0.8160(4) 0.2240(6)
C37_3 C 0.2768(6) 0.7848(5) 0.0877(6)
C38_3 C 0.3290(5) 0.8086(4) 0.2796(6)
H18_3 H 0.3244 0.7830 0.2855
C39_3 C 0.3571(5) 0.8379(4) 0.3282(6)
H19_3 H 0.3698 0.8319 0.3704
C40_3 C 0.3079(6) 0.8131(5) 0.0415(6)
H20_3 H 0.3295 0.8327 0.0700
C41_3 C 0.3661(5) 0.8739(4) 0.3159(5)
C42_3 C 0.2765(5) 0.7830(4) 0.1743(5)
C43_3 C 0.3171(6) 0.8549(5) 0.2147(7)
H21_3 H 0.3032 0.8614 0.1766
C44_3 C 0.3463(6) 0.8833(5) 0.2618(6)
H22_3 H 0.3525 0.9094 0.2563
Zr3_4 Zr 0.00000(4) 0.54439(3) 0.39169(6)
O13_4 O -0.0000(3) 0.5405(2) 0.2573(5)
O14_4 O -0.0000(3) 0.5979(2) 0.4027(6)
O15_3 O 0.03504(16) 0.51752(11) 0.6073(5)
O16_3 O 0.0343(4) 0.5630(3) 0.5000
Zr11_4 Zr 0.00000(4) 0.54439(3) 0.60831(6)
O21_3 O 0.10369(22) 0.58519(15) 0.5829(3)
O8_3 O 0.40888(31) 0.94092(25) 0.6517(4)
C13_3 C 0.3998(5) 0.9061(4) 0.6344(6)
C14_3 C 0.2459(8) 0.7540(6) 0.9537(8)
C15_3 C 0.3083(5) 0.8160(4) 0.7760(6)
C16_3 C 0.2768(6) 0.7848(5) 0.9123(6)
C17_3 C 0.3290(5) 0.8086(4) 0.7204(6)
H7_3 H 0.3244 0.7830 0.7145
C18_3 C 0.3571(5) 0.8379(4) 0.6718(6)
H8_3 H 0.3698 0.8319 0.6296
C19_3 C 0.3079(6) 0.8131(5) 0.9585(6)
H9_3 H 0.3295 0.8327 0.9300
C20_3 C 0.3661(5) 0.8739(4) 0.6841(5)
C21_3 C 0.2765(5) 0.7830(4) 0.8257(5)
C22_3 C 0.3171(6) 0.8549(5) 0.7853(7)
H10_3 H 0.3032 0.8614 0.8234
C23_3 C 0.3463(6) 0.8833(5) 0.7382(6)
H11_3 H 0.3525 0.9094 0.7437
C24_3 C 0.2470(7) 0.7529(5) 0.7870(8)
H12_3 H 0.2475 0.7526 0.7283
O10_3 O 0.05908(25) 0.59112(17) 0.6517(4)
C25_3 C 0.0939(4) 0.6002(3) 0.6344(6)
C26_3 C 0.1840(4) 0.6917(3) 0.7760(6)
C27_3 C 0.2152(5) 0.7232(3) 0.9123(6)
C28_3 C 0.1914(4) 0.6710(3) 0.7204(6)
H13_3 H 0.2170 0.6756 0.7145
C29_3 C 0.1621(4) 0.6429(3) 0.6718(6)
H14_3 H 0.1681 0.6302 0.6296
C30_3 C 0.1869(5) 0.6921(3) 0.9585(6)
H15_3 H 0.1673 0.6705 0.9300
C31_3 C 0.1261(4) 0.6339(3) 0.6841(5)
C32_3 C 0.2170(4) 0.7235(3) 0.8257(5)
C33_3 C 0.1451(5) 0.6829(3) 0.7853(7)
H16_3 H 0.1386 0.6968 0.8234
C34_3 C 0.1167(5) 0.6537(3) 0.7382(6)
H17_3 H 0.0906 0.6475 0.7437
O4_5 O 1.0000(3) 0.4595(2) 0.2573(5)
O5_5 O 1.0000(3) 0.4021(2) 0.4027(6)
Zr3_5 Zr 1.00000(4) 0.54439(3) 0.39169(6)
O13_5 O 1.0000(3) 0.5405(2) 0.2573(5)
O14_5 O 1.0000(3) 0.5979(2) 0.4027(6)
Zr11_5 Zr 1.00000(4) 0.54439(3) 0.60831(6)
O17_3 O 0.96496(16) 0.48248(11) 0.3927(5)
O18_3 O 0.9657(4) 0.5287(2) 0.5000
O19_3 O 0.9657(4) 0.4370(3) 0.5000
O23_3 O 0.94092(25) 0.40888(17) 0.3483(4)
O25_3 O 0.94092(25) 0.53204(19) 0.3483(4)
Zr1_3 Zr 0.53536(2) 0.46464(2) 0.5000
O3_4 O 0.58519(15) 0.48150(16) 0.4171(3)
C1_4 C 0.6002(3) 0.5063(3) 0.3656(6)
C2_4 C 0.7541(3) 0.5081(5) 0.0463(8)
C3_4 C 0.6917(3) 0.5077(3) 0.2240(6)
C4_4 C 0.7232(3) 0.5080(4) 0.0877(6)
C5_4 C 0.6710(3) 0.4796(3) 0.2796(6)
H1_4 H 0.6756 0.4586 0.2855
C6_4 C 0.6429(3) 0.4808(3) 0.3282(6)
H2_4 H 0.6302 0.4621 0.3704
C7_4 C 0.6921(3) 0.5052(4) 0.0415(6)
H3_4 H 0.6705 0.5032 0.0700
C8_4 C 0.6339(3) 0.5078(3) 0.3159(5)
C9_4 C 0.7235(3) 0.5065(3) 0.1743(5)
C10_4 C 0.6829(3) 0.5378(4) 0.2147(7)
H4_4 H 0.6968 0.5582 0.1766
C11_4 C 0.6537(3) 0.5370(4) 0.2618(6)
H5_4 H 0.6475 0.5569 0.2563
C12_4 C 0.7530(2) 0.5059(5) 0.2130(8)
H6_4 H 0.7525 0.5051 0.2717
O11_2 O 0.89631(22) 0.48150(16) 0.4171(3)
C35_4 C 0.9061(4) 0.5063(3) 0.3656(6)
C36_4 C 0.8160(4) 0.5077(3) 0.2240(6)
C37_4 C 0.7848(5) 0.5080(4) 0.0877(6)
C38_4 C 0.8086(4) 0.4796(3) 0.2796(6)
H18_4 H 0.7830 0.4586 0.2855
C39_4 C 0.8379(4) 0.4808(3) 0.3282(6)
H19_4 H 0.8319 0.4621 0.3704
C40_4 C 0.8131(5) 0.5052(4) 0.0415(6)
H20_4 H 0.8327 0.5032 0.0700
C41_4 C 0.8739(4) 0.5078(3) 0.3159(5)
C42_4 C 0.7830(4) 0.5065(3) 0.1743(5)
C43_4 C 0.8549(5) 0.5378(4) 0.2147(7)
H21_4 H 0.8614 0.5582 0.1766
C44_4 C 0.8833(5) 0.5370(4) 0.2618(6)
H22_4 H 0.9094 0.5569 0.2563
O15_4 O 0.51752(11) 0.48248(11) 0.6073(5)
Zr6_2 Zr 0.92928(3) 0.46464(2) 0.5000
O20_3 O 0.51850(16) 0.41481(15) 0.5829(3)
O21_4 O 0.58519(15) 0.48150(16) 0.5829(3)
O22_3 O 0.51850(16) 0.41481(15) 0.4171(3)
O7_2 O 0.89631(22) 0.48150(16) 0.5829(3)
O8_4 O 0.94092(25) 0.53204(19) 0.6517(4)
C13_4 C 0.9061(4) 0.5063(3) 0.6344(6)
C14_4 C 0.7540(6) 0.5081(5) 0.9537(8)
C15_4 C 0.8160(4) 0.5077(3) 0.7760(6)
C16_4 C 0.7848(5) 0.5080(4) 0.9123(6)
C17_4 C 0.8086(4) 0.4796(3) 0.7204(6)
H7_4 H 0.7830 0.4586 0.7145
C18_4 C 0.8379(4) 0.4808(3) 0.6718(6)
H8_4 H 0.8319 0.4621 0.6296
C19_4 C 0.8131(5) 0.5052(4) 0.9585(6)
H9_4 H 0.8327 0.5032 0.9300
C20_4 C 0.8739(4) 0.5078(3) 0.6841(5)
C21_4 C 0.7830(4) 0.5065(3) 0.8257(5)
C22_4 C 0.8549(5) 0.5378(4) 0.7853(7)
H10_4 H 0.8614 0.5582 0.8234
C23_4 C 0.8833(5) 0.5370(4) 0.7382(6)
H11_4 H 0.9094 0.5569 0.7437
C24_4 C 0.7529(5) 0.5059(5) 0.7870(8)
H12_4 H 0.7526 0.5051 0.7283
O10_4 O 0.59112(17) 0.53204(19) 0.6517(4)
C25_4 C 0.6002(3) 0.5063(3) 0.6344(6)
C26_4 C 0.6917(3) 0.5077(3) 0.7760(6)
C27_4 C 0.7232(3) 0.5080(4) 0.9123(6)
C28_4 C 0.6710(3) 0.4796(3) 0.7204(6)
H13_4 H 0.6756 0.4586 0.7145
C29_4 C 0.6429(3) 0.4808(3) 0.6718(6)
H14_4 H 0.6302 0.4621 0.6296
C30_4 C 0.6921(3) 0.5052(4) 0.9585(6)
H15_4 H 0.6705 0.5032 0.9300
C31_4 C 0.6339(3) 0.5078(3) 0.6841(5)
C32_4 C 0.7235(3) 0.5065(3) 0.8257(5)
C33_4 C 0.6829(3) 0.5378(4) 0.7853(7)
H16_4 H 0.6968 0.5582 0.8234
C34_4 C 0.6537(3) 0.5370(4) 0.7382(6)
H17_4 H 0.6475 0.5569 0.7437
Zr1_4 Zr 0.53536(2) 0.07072(3) 0.5000
O3_5 O 0.51850(16) 0.10369(22) 0.4171(3)
C1_5 C 0.4937(3) 0.0939(4) 0.3656(6)
C2_5 C 0.4919(5) 0.2460(6) 0.0463(8)
C3_5 C 0.4923(3) 0.1840(4) 0.2240(6)
C4_5 C 0.4920(4) 0.2152(5) 0.0877(6)
C5_5 C 0.5204(3) 0.1914(4) 0.2796(6)
H1_5 H 0.5414 0.2170 0.2855
C6_5 C 0.5192(3) 0.1621(4) 0.3282(6)
H2_5 H 0.5379 0.1681 0.3704
C7_5 C 0.4948(4) 0.1869(5) 0.0415(6)
H3_5 H 0.4968 0.1673 0.0700
C8_5 C 0.4922(3) 0.1261(4) 0.3159(5)
C9_5 C 0.4935(3) 0.2170(4) 0.1743(5)
C10_5 C 0.4622(4) 0.1451(5) 0.2147(7)
H4_5 H 0.4418 0.1386 0.1766
C11_5 C 0.4630(4) 0.1167(5) 0.2618(6)
H5_5 H 0.4431 0.0906 0.2563
C12_5 C 0.4941(5) 0.2471(5) 0.2130(8)
H6_5 H 0.4949 0.2474 0.2717
C35_5 C 0.4937(3) 0.3998(5) 0.3656(6)
C36_5 C 0.4923(3) 0.3083(5) 0.2240(6)
C37_5 C 0.4920(4) 0.2768(6) 0.0877(6)
C38_5 C 0.5204(3) 0.3290(5) 0.2796(6)
H18_5 H 0.5414 0.3244 0.2855
C39_5 C 0.5192(3) 0.3571(5) 0.3282(6)
H19_5 H 0.5379 0.3698 0.3704
C40_5 C 0.4948(4) 0.3079(6) 0.0415(6)
H20_5 H 0.4968 0.3295 0.0700
C41_5 C 0.4922(3) 0.3661(5) 0.3159(5)
C42_5 C 0.4935(3) 0.2765(5) 0.1743(5)
C43_5 C 0.4622(4) 0.3171(6) 0.2147(7)
H21_5 H 0.4418 0.3032 0.1766
C44_5 C 0.4630(4) 0.3463(6) 0.2618(6)
H22_5 H 0.4431 0.3525 0.2563
O15_5 O 0.51752(11) 0.03504(16) 0.6073(5)
O20_4 O 0.58519(15) 0.10369(22) 0.5829(3)
O21_5 O 0.51850(16) 0.10369(22) 0.5829(3)
O22_4 O 0.58519(15) 0.10369(22) 0.4171(3)
O8_5 O 0.46796(19) 0.40888(31) 0.6517(4)
C13_5 C 0.4937(3) 0.3998(5) 0.6344(6)
C14_5 C 0.4919(5) 0.2459(8) 0.9537(8)
C15_5 C 0.4923(3) 0.3083(5) 0.7760(6)
C16_5 C 0.4920(4) 0.2768(6) 0.9123(6)
C17_5 C 0.5204(3) 0.3290(5) 0.7204(6)
H7_5 H 0.5414 0.3244 0.7145
C18_5 C 0.5192(3) 0.3571(5) 0.6718(6)
H8_5 H 0.5379 0.3698 0.6296
C19_5 C 0.4948(4) 0.3079(6) 0.9585(6)
H9_5 H 0.4968 0.3295 0.9300
C20_5 C 0.4922(3) 0.3661(5) 0.6841(5)
C21_5 C 0.4935(3) 0.2765(5) 0.8257(5)
C22_5 C 0.4622(4) 0.3171(6) 0.7853(7)
H10_5 H 0.4418 0.3032 0.8234
C23_5 C 0.4630(4) 0.3463(6) 0.7382(6)
H11_5 H 0.4431 0.3525 0.7437
C24_5 C 0.4941(5) 0.2470(7) 0.7870(8)
H12_5 H 0.4949 0.2475 0.7283
O10_5 O 0.46796(19) 0.05908(25) 0.6517(4)
C25_5 C 0.4937(3) 0.0939(4) 0.6344(6)
C26_5 C 0.4923(3) 0.1840(4) 0.7760(6)
C27_5 C 0.4920(4) 0.2152(5) 0.9123(6)
C28_5 C 0.5204(3) 0.1914(4) 0.7204(6)
H13_5 H 0.5414 0.2170 0.7145
C29_5 C 0.5192(3) 0.1621(4) 0.6718(6)
H14_5 H 0.5379 0.1681 0.6296
C30_5 C 0.4948(4) 0.1869(5) 0.9585(6)
H15_5 H 0.4968 0.1673 0.9300
C31_5 C 0.4922(3) 0.1261(4) 0.6841(5)
C32_5 C 0.4935(3) 0.2170(4) 0.8257(5)
C33_5 C 0.4622(4) 0.1451(5) 0.7853(7)
H16_5 H 0.4418 0.1386 0.8234
C34_5 C 0.4630(4) 0.1167(5) 0.7382(6)
H17_5 H 0.4431 0.0906 0.7437
O3_6 O 0.89631(22) 0.41481(15) 0.4171(3)
C1_6 C 0.9061(4) 0.3998(3) 0.3656(6)
C2_6 C 0.7540(6) 0.2459(3) 0.0463(8)
C3_6 C 0.8160(4) 0.3083(3) 0.2240(6)
C4_6 C 0.7848(5) 0.2768(3) 0.0877(6)
C5_6 C 0.8086(4) 0.3290(3) 0.2796(6)
H1_6 H 0.7830 0.3244 0.2855
C6_6 C 0.8379(4) 0.3571(3) 0.3282(6)
H2_6 H 0.8319 0.3698 0.3704
C7_6 C 0.8131(5) 0.3079(3) 0.0415(6)
H3_6 H 0.8327 0.3295 0.0700
C8_6 C 0.8739(4) 0.3661(3) 0.3159(5)
C9_6 C 0.7830(4) 0.2765(3) 0.1743(5)
C10_6 C 0.8549(5) 0.3171(3) 0.2147(7)
H4_6 H 0.8614 0.3032 0.1766
C11_6 C 0.8833(5) 0.3463(3) 0.2618(6)
H5_6 H 0.9094 0.3525 0.2563
C12_6 C 0.7529(5) 0.2470(2) 0.2130(8)
H6_6 H 0.7526 0.2475 0.2717
C35_6 C 0.6002(5) 0.0939(4) 0.3656(6)
C36_6 C 0.6917(5) 0.1840(4) 0.2240(6)
C37_6 C 0.7232(6) 0.2152(5) 0.0877(6)
C38_6 C 0.6710(5) 0.1914(4) 0.2796(6)
H18_6 H 0.6756 0.2170 0.2855
C39_6 C 0.6429(5) 0.1621(4) 0.3282(6)
H19_6 H 0.6302 0.1681 0.3704
C40_6 C 0.6921(6) 0.1869(5) 0.0415(6)
H20_6 H 0.6705 0.1673 0.0700
C41_6 C 0.6339(5) 0.1261(4) 0.3159(5)
C42_6 C 0.7235(5) 0.2170(4) 0.1743(5)
C43_6 C 0.6829(6) 0.1451(5) 0.2147(7)
H21_6 H 0.6968 0.1386 0.1766
C44_6 C 0.6537(6) 0.1167(5) 0.2618(6)
H22_6 H 0.6475 0.0906 0.2563
O15_6 O 0.96496(16) 0.48248(11) 0.6073(5)
O21_6 O 0.89631(22) 0.41481(15) 0.5829(3)
O8_6 O 0.59112(31) 0.05908(25) 0.6517(4)
C13_6 C 0.6002(5) 0.0939(4) 0.6344(6)
C14_6 C 0.7541(8) 0.2460(6) 0.9537(8)
C15_6 C 0.6917(5) 0.1840(4) 0.7760(6)
C16_6 C 0.7232(6) 0.2152(5) 0.9123(6)
C17_6 C 0.6710(5) 0.1914(4) 0.7204(6)
H7_6 H 0.6756 0.2170 0.7145
C18_6 C 0.6429(5) 0.1621(4) 0.6718(6)
H8_6 H 0.6302 0.1681 0.6296
C19_6 C 0.6921(6) 0.1869(5) 0.9585(6)
H9_6 H 0.6705 0.1673 0.9300
C20_6 C 0.6339(5) 0.1261(4) 0.6841(5)
C21_6 C 0.7235(5) 0.2170(4) 0.8257(5)
C22_6 C 0.6829(6) 0.1451(5) 0.7853(7)
H10_6 H 0.6968 0.1386 0.8234
C23_6 C 0.6537(6) 0.1167(5) 0.7382(6)
H11_6 H 0.6475 0.0906 0.7437
C24_6 C 0.7530(7) 0.2471(5) 0.7870(8)
H12_6 H 0.7525 0.2474 0.7283
O10_6 O 0.94092(25) 0.40888(17) 0.6517(4)
C25_6 C 0.9061(4) 0.3998(3) 0.6344(6)
C26_6 C 0.8160(4) 0.3083(3) 0.7760(6)
C27_6 C 0.7848(5) 0.2768(3) 0.9123(6)
C28_6 C 0.8086(4) 0.3290(3) 0.7204(6)
H13_6 H 0.7830 0.3244 0.7145
C29_6 C 0.8379(4) 0.3571(3) 0.6718(6)
H14_6 H 0.8319 0.3698 0.6296
C30_6 C 0.8131(5) 0.3079(3) 0.9585(6)
H15_6 H 0.8327 0.3295 0.9300
C31_6 C 0.8739(4) 0.3661(3) 0.6841(5)
C32_6 C 0.7830(4) 0.2765(3) 0.8257(5)
C33_6 C 0.8549(5) 0.3171(3) 0.7853(7)
H16_6 H 0.8614 0.3032 0.8234
C34_6 C 0.8833(5) 0.3463(3) 0.7382(6)
H17_6 H 0.9094 0.3525 0.7437
O4_6 O 0.5405(2) 0.5405(2) 0.7427(5)
O5_6 O 0.5979(2) 0.5979(2) 0.5973(6)
O13_6 O 0.4595(2) 0.4595(2) 0.7427(5)
O14_6 O 0.4021(2) 0.4021(2) 0.5973(6)
O4_7 O 0.0000(3) 0.4595(2) 0.7427(5)
O5_7 O -0.0000(3) 0.4021(2) 0.5973(6)
O13_7 O 0.0000(3) 0.5405(2) 0.7427(5)
O14_7 O 0.0000(3) 0.5979(2) 0.5973(6)
O4_8 O 1.0000(3) 0.4595(2) 0.7427(5)
O5_8 O 1.0000(3) 0.4021(2) 0.5973(6)
O13_8 O 1.0000(3) 0.5405(2) 0.7427(5)
O14_8 O 1.0000(3) 0.5979(2) 0.5973(6)
O4_9 O 0.4595(2) 0.0000(3) 0.7427(5)
O5_9 O 0.4021(2) 0.0000(3) 0.5973(6)
O13_9 O 0.5405(2) -0.0000(3) 0.7427(5)
O14_9 O 0.5979(2) -0.0000(3) 0.5973(6)
O4_10 O 0.4595(2) 1.0000(3) 0.7427(5)
O5_10 O 0.4021(2) 1.0000(3) 0.5973(6)
O13_10 O 0.5405(2) 1.0000(3) 0.7427(5)
O14_10 O 0.5979(2) 1.0000(3) 0.5973(6)
Cu1 Cu 0.5167(4) 0.4833(4) 0.2507(17)
Cu1_2 Cu 0.5167(4) 0.0334(6) 0.2507(17)
Cu1_3 Cu 0.9666(6) 0.4833(4) 0.2507(17)
Cu1_4 Cu 0.4833(4) 0.5167(4) 0.2507(17)
Cu1_5 Cu 0.4833(4) 0.9666(6) 0.2507(17)
Cu1_6 Cu 0.0334(6) 0.5167(4) 0.2507(17)
Cu1_7 Cu 0.4833(4) 0.5167(4) 0.7493(17)
Cu1_8 Cu 0.0334(6) 0.5167(4) 0.7493(17)
Cu1_9 Cu 0.4833(4) 0.9666(6) 0.7493(17)
Cu1_10 Cu 0.5167(4) 0.4833(4) 0.7493(17)
Cu1_11 Cu 0.9666(6) 0.4833(4) 0.7493(17)
Cu1_12 Cu 0.5167(4) 0.0334(6) 0.7493(17)
Cu2 Cu 0.5731(6) 0.6224(6) 0.5000
Cu2_2 Cu 0.3776(6) 0.9507(8) 0.5000
Cu2_3 Cu 0.0493(8) 0.4269(6) 0.5000
Cu2_4 Cu 0.4269(6) 0.3776(6) 0.5000
Cu2_5 Cu 0.6224(6) 0.0493(8) 0.5000
Cu2_6 Cu 0.9507(8) 0.5731(6) 0.5000
Cu2_7 Cu 0.6224(6) 0.5731(6) 0.5000
Cu2_8 Cu 0.9507(8) 0.3776(6) 0.5000
Cu2_9 Cu 0.4269(6) 0.0493(8) 0.5000
Cu2_10 Cu 0.3776(6) 0.4269(6) 0.5000
Cu2_11 Cu 0.0493(8) 0.6224(6) 0.5000
Cu2_12 Cu 0.5731(6) 0.9507(8) 0.5000
loop_
_geom_bond_atom_site_label_1
_geom_bond_atom_site_label_2
_geom_bond_site_symmetry_1
_geom_bond_site_symmetry_2
Zr1 O1 1_555 1_555
Zr2 O1 1_555 1_555
O1 Zr3 1_555 1_555
O2 Zr1 1_555 1_555
O3 Zr1 1_555 1_555
O4 Zr2 1_555 1_555
O5 Zr2 1_555 1_555
O6 C1 1_555 1_555
C1 O3 1_555 1_555
C2 C4 1_555 1_555
C3 C5 1_555 1_555
C4 C7 1_555 1_555
C5 H1 1_555 1_555
C6 C5 1_555 1_555
H2 C6 1_555 1_555
C7 H3 1_555 1_555
C8 C1 1_555 1_555
C9 C3 1_555 1_555
C10 C3 1_555 1_555
H4 C10 1_555 1_555
C11 C8 1_555 1_555
H5 C11 1_555 1_555
C12 C9 1_555 1_555
H6 C12 1_555 1_555
O11 C35 1_555 1_555
O12 C35 1_555 1_555
C35 C41 1_555 1_555
C36 C38 1_555 1_555
C37 C2 1_555 1_555
C38 H18 1_555 1_555
C39 C38 1_555 1_555
H19 C39 1_555 1_555
H20 C40 1_555 1_555
C41 C39 1_555 1_555
C42 C12 1_555 1_555
C43 C36 1_555 1_555
H21 C43 1_555 1_555
C44 C41 1_555 1_555
H22 C44 1_555 1_555
Zr3 O6 1_555 1_555
O13 Zr3 1_555 1_555
O14 Zr3 1_555 1_555
O15 Zr1 1_555 1_555
O16 Zr1 1_555 1_555
Zr6 O11 1_555 1_555
Zr7 O12 1_555 1_555
Zr8 O2 1_555 1_555
Zr11 O15 1_555 1_555
O17 Zr2 1_555 1_555
O18 Zr3 1_555 1_555
O19 Zr2 1_555 1_555
O20 Zr1 1_555 1_555
O21 Zr1 1_555 1_555
O22 Zr1 1_555 1_555
O23 Zr2 1_555 1_555
O24 Zr2 1_555 1_555
O25 Zr3 1_555 1_555
Zr2 O2 1_555 1_555
C4 C9 1_555 1_555
C6 C8 1_555 1_555
C10 C11 1_555 1_555
C36 C42 1_555 1_555
C37 C40 1_555 1_555
C37 C42 1_555 1_555
C43 C44 1_555 1_555
Zr3 O16 1_555 1_555
Zr3 O17 1_555 1_555
O15 Zr8 1_555 1_555
O16 Zr11 1_555 1_555
Zr8 O19 1_555 1_555
Zr11 O18 1_555 1_555
O7 C13 1_555 1_555
O8 C13 1_555 1_555
C13 C20 1_555 1_555
C15 C17 1_555 1_555
C16 C14 1_555 1_555
C17 H7 1_555 1_555
C18 C17 1_555 1_555
H8 C18 1_555 1_555
C19 C16 1_555 1_555
H9 C19 1_555 1_555
C20 C18 1_555 1_555
C21 C15 1_555 1_555
C22 C15 1_555 1_555
H10 C22 1_555 1_555
C23 C20 1_555 1_555
H11 C23 1_555 1_555
C24 C21 1_555 1_555
H12 C24 1_555 1_555
O21 C25 1_555 1_555
O10 C25 1_555 1_555
C25 C31 1_555 1_555
C26 C28 1_555 1_555
C27 C14 1_555 1_555
C28 H13 1_555 1_555
C29 C28 1_555 1_555
H14 C29 1_555 1_555
H15 C30 1_555 1_555
C31 C29 1_555 1_555
C32 C24 1_555 1_555
C33 C26 1_555 1_555
H16 C33 1_555 1_555
C34 C31 1_555 1_555
H17 C34 1_555 1_555
Zr6 O7 1_555 1_555
Zr9 O8 1_555 1_555
Zr11 O10 1_555 1_555
C16 C21 1_555 1_555
C22 C23 1_555 1_555
C26 C32 1_555 1_555
C27 C30 1_555 1_555
C27 C32 1_555 1_555
C33 C34 1_555 1_555
O4_2 Zr2_2 1_555 1_555
O5_2 Zr2_2 1_555 1_555
O13_2 Zr3_2 1_555 1_555
O14_2 Zr3_2 1_555 1_555
O17_2 Zr2_2 1_555 1_555
O18_2 Zr3_2 1_555 1_555
O19_2 Zr2_2 1_555 1_555
O23_2 Zr2_2 1_555 1_555
O25_2 Zr3_2 1_555 1_555
Zr3_2 O17_2 1_555 1_555
Zr8_2 O19_2 1_555 1_555
Zr11_2 O18_2 1_555 1_555
Zr1_2 O1_2 1_555 1_555
Zr2_3 O1_2 1_555 1_555
O1_2 Zr3_3 1_555 1_555
O2_2 Zr1_2 1_555 1_555
O3_2 Zr1_2 1_555 1_555
O4_3 Zr2_3 1_555 1_555
O5_3 Zr2_3 1_555 1_555
O6_2 C1_2 1_555 1_555
C1_2 O3_2 1_555 1_555
C2_2 C4_2 1_555 1_555
C3_2 C5_2 1_555 1_555
C4_2 C7_2 1_555 1_555
C5_2 H1_2 1_555 1_555
C6_2 C5_2 1_555 1_555
H2_2 C6_2 1_555 1_555
C7_2 H3_2 1_555 1_555
C8_2 C1_2 1_555 1_555
C9_2 C3_2 1_555 1_555
C10_2 C3_2 1_555 1_555
H4_2 C10_2 1_555 1_555
C11_2 C8_2 1_555 1_555
H5_2 C11_2 1_555 1_555
C12_2 C9_2 1_555 1_555
H6_2 C12_2 1_555 1_555
O22 C35_2 1_555 1_555
O24 C35_2 1_555 1_555
C35_2 C41_2 1_555 1_555
C36_2 C38_2 1_555 1_555
C37_2 C2_2 1_555 1_555
C38_2 H18_2 1_555 1_555
C39_2 C38_2 1_555 1_555
H19_2 C39_2 1_555 1_555
H20_2 C40_2 1_555 1_555
C41_2 C39_2 1_555 1_555
C42_2 C12_2 1_555 1_555
C43_2 C36_2 1_555 1_555
H21_2 C43_2 1_555 1_555
C44_2 C41_2 1_555 1_555
H22_2 C44_2 1_555 1_555
Zr3_3 O6_2 1_555 1_555
O13_3 Zr3_3 1_555 1_555
O14_3 Zr3_3 1_555 1_555
O15_2 Zr1_2 1_555 1_555
O16_2 Zr1_2 1_555 1_555
Zr8_3 O2_2 1_555 1_555
Zr11_3 O15_2 1_555 1_555
O20_2 Zr1_2 1_555 1_555
O21_2 Zr1_2 1_555 1_555
O22_2 Zr1_2 1_555 1_555
O24_2 Zr2_3 1_555 1_555
Zr2_3 O2_2 1_555 1_555
C4_2 C9_2 1_555 1_555
C6_2 C8_2 1_555 1_555
C10_2 C11_2 1_555 1_555
C36_2 C42_2 1_555 1_555
C37_2 C40_2 1_555 1_555
C37_2 C42_2 1_555 1_555
C43_2 C44_2 1_555 1_555
Zr3_3 O16_2 1_555 1_555
O15_2 Zr8_3 1_555 1_555
O16_2 Zr11_3 1_555 1_555
O20 C13_2 1_555 1_555
O8_2 C13_2 1_555 1_555
C13_2 C20_2 1_555 1_555
C15_2 C17_2 1_555 1_555
C16_2 C14_2 1_555 1_555
C17_2 H7_2 1_555 1_555
C18_2 C17_2 1_555 1_555
H8_2 C18_2 1_555 1_555
C19_2 C16_2 1_555 1_555
H9_2 C19_2 1_555 1_555
C20_2 C18_2 1_555 1_555
C21_2 C15_2 1_555 1_555
C22_2 C15_2 1_555 1_555
H10_2 C22_2 1_555 1_555
C23_2 C20_2 1_555 1_555
H11_2 C23_2 1_555 1_555
C24_2 C21_2 1_555 1_555
H12_2 C24_2 1_555 1_555
O21_2 C25_2 1_555 1_555
O10_2 C25_2 1_555 1_555
C25_2 C31_2 1_555 1_555
C26_2 C28_2 1_555 1_555
C27_2 C14_2 1_555 1_555
C28_2 H13_2 1_555 1_555
C29_2 C28_2 1_555 1_555
H14_2 C29_2 1_555 1_555
H15_2 C30_2 1_555 1_555
C31_2 C29_2 1_555 1_555
C32_2 C24_2 1_555 1_555
C33_2 C26_2 1_555 1_555
H16_2 C33_2 1_555 1_555
C34_2 C31_2 1_555 1_555
H17_2 C34_2 1_555 1_555
Zr8 O8_2 1_555 1_555
Zr11_3 O10_2 1_555 1_555
C16_2 C21_2 1_555 1_555
C22_2 C23_2 1_555 1_555
C26_2 C32_2 1_555 1_555
C27_2 C30_2 1_555 1_555
C27_2 C32_2 1_555 1_555
C33_2 C34_2 1_555 1_555
Zr6 O1_3 1_555 1_555
Zr7 O1_3 1_555 1_555
O1_3 Zr3_4 1_555 1_555
O2_3 Zr6 1_555 1_555
O3_3 Zr6 1_555 1_555
O4_4 Zr7 1_555 1_555
O5_4 Zr7 1_555 1_555
O6_3 C1_3 1_555 1_555
C1_3 O3_3 1_555 1_555
C2_3 C4_3 1_555 1_555
C3_3 C5_3 1_555 1_555
C4_3 C7_3 1_555 1_555
C5_3 H1_3 1_555 1_555
C6_3 C5_3 1_555 1_555
H2_3 C6_3 1_555 1_555
C7_3 H3_3 1_555 1_555
C8_3 C1_3 1_555 1_555
C9_3 C3_3 1_555 1_555
C10_3 C3_3 1_555 1_555
H4_3 C10_3 1_555 1_555
C11_3 C8_3 1_555 1_555
H5_3 C11_3 1_555 1_555
C12_3 C9_3 1_555 1_555
H6_3 C12_3 1_555 1_555
O22_2 C35_3 1_555 1_555
O24_2 C35_3 1_555 1_555
C35_3 C41_3 1_555 1_555
C36_3 C38_3 1_555 1_555
C37_3 C2_3 1_555 1_555
C38_3 H18_3 1_555 1_555
C39_3 C38_3 1_555 1_555
H19_3 C39_3 1_555 1_555
H20_3 C40_3 1_555 1_555
C41_3 C39_3 1_555 1_555
C42_3 C12_3 1_555 1_555
C43_3 C36_3 1_555 1_555
H21_3 C43_3 1_555 1_555
C44_3 C41_3 1_555 1_555
H22_3 C44_3 1_555 1_555
Zr3_4 O6_3 1_555 1_555
O13_4 Zr3_4 1_555 1_555
O14_4 Zr3_4 1_555 1_555
O15_3 Zr6 1_555 1_555
O16_3 Zr6 1_555 1_555
Zr9 O2_3 1_555 1_555
Zr11_4 O15_3 1_555 1_555
O21_3 Zr6 1_555 1_555
Zr7 O2_3 1_555 1_555
C4_3 C9_3 1_555 1_555
C6_3 C8_3 1_555 1_555
C10_3 C11_3 1_555 1_555
C36_3 C42_3 1_555 1_555
C37_3 C40_3 1_555 1_555
C37_3 C42_3 1_555 1_555
C43_3 C44_3 1_555 1_555
Zr3_4 O16_3 1_555 1_555
O15_3 Zr9 1_555 1_555
O16_3 Zr11_4 1_555 1_555
O20_2 C13_3 1_555 1_555
O8_3 C13_3 1_555 1_555
C13_3 C20_3 1_555 1_555
C15_3 C17_3 1_555 1_555
C16_3 C14_3 1_555 1_555
C17_3 H7_3 1_555 1_555
C18_3 C17_3 1_555 1_555
H8_3 C18_3 1_555 1_555
C19_3 C16_3 1_555 1_555
H9_3 C19_3 1_555 1_555
C20_3 C18_3 1_555 1_555
C21_3 C15_3 1_555 1_555
C22_3 C15_3 1_555 1_555
H10_3 C22_3 1_555 1_555
C23_3 C20_3 1_555 1_555
H11_3 C23_3 1_555 1_555
C24_3 C21_3 1_555 1_555
H12_3 C24_3 1_555 1_555
O21_3 C25_3 1_555 1_555
O10_3 C25_3 1_555 1_555
C25_3 C31_3 1_555 1_555
C26_3 C28_3 1_555 1_555
C27_3 C14_3 1_555 1_555
C28_3 H13_3 1_555 1_555
C29_3 C28_3 1_555 1_555
H14_3 C29_3 1_555 1_555
H15_3 C30_3 1_555 1_555
C31_3 C29_3 1_555 1_555
C32_3 C24_3 1_555 1_555
C33_3 C26_3 1_555 1_555
H16_3 C33_3 1_555 1_555
C34_3 C31_3 1_555 1_555
H17_3 C34_3 1_555 1_555
Zr8_3 O8_3 1_555 1_555
Zr11_4 O10_3 1_555 1_555
C16_3 C21_3 1_555 1_555
C22_3 C23_3 1_555 1_555
C26_3 C32_3 1_555 1_555
C27_3 C30_3 1_555 1_555
C27_3 C32_3 1_555 1_555
C33_3 C34_3 1_555 1_555
O4_5 Zr7_2 1_555 1_555
O5_5 Zr7_2 1_555 1_555
O13_5 Zr3_5 1_555 1_555
O14_5 Zr3_5 1_555 1_555
O17_3 Zr7_2 1_555 1_555
O18_3 Zr3_5 1_555 1_555
O19_3 Zr7_2 1_555 1_555
O23_3 Zr7_2 1_555 1_555
O25_3 Zr3_5 1_555 1_555
Zr3_5 O17_3 1_555 1_555
Zr9_2 O19_3 1_555 1_555
Zr11_5 O18_3 1_555 1_555
Zr1_3 O17 1_555 1_555
O18 Zr1_3 1_555 1_555
O3_4 Zr1_3 1_555 1_555
O23 C1_4 1_555 1_555
C1_4 O3_4 1_555 1_555
C2_4 C4_4 1_555 1_555
C3_4 C5_4 1_555 1_555
C4_4 C7_4 1_555 1_555
C5_4 H1_4 1_555 1_555
C6_4 C5_4 1_555 1_555
H2_4 C6_4 1_555 1_555
C7_4 H3_4 1_555 1_555
C8_4 C1_4 1_555 1_555
C9_4 C3_4 1_555 1_555
C10_4 C3_4 1_555 1_555
H4_4 C10_4 1_555 1_555
C11_4 C8_4 1_555 1_555
H5_4 C11_4 1_555 1_555
C12_4 C9_4 1_555 1_555
H6_4 C12_4 1_555 1_555
O11_2 C35_4 1_555 1_555
O25_3 C35_4 1_555 1_555
C35_4 C41_4 1_555 1_555
C36_4 C38_4 1_555 1_555
C37_4 C2_4 1_555 1_555
C38_4 H18_4 1_555 1_555
C39_4 C38_4 1_555 1_555
H19_4 C39_4 1_555 1_555
H20_4 C40_4 1_555 1_555
C41_4 C39_4 1_555 1_555
C42_4 C12_4 1_555 1_555
C43_4 C36_4 1_555 1_555
H21_4 C43_4 1_555 1_555
C44_4 C41_4 1_555 1_555
H22_4 C44_4 1_555 1_555
O15_4 Zr1_3 1_555 1_555
O19 Zr1_3 1_555 1_555
Zr6_2 O11_2 1_555 1_555
Zr8 O15_4 1_555 1_555
O20_3 Zr1_3 1_555 1_555
O21_4 Zr1_3 1_555 1_555
O22_3 Zr1_3 1_555 1_555
C4_4 C9_4 1_555 1_555
C6_4 C8_4 1_555 1_555
C10_4 C11_4 1_555 1_555
C36_4 C42_4 1_555 1_555
C37_4 C40_4 1_555 1_555
C37_4 C42_4 1_555 1_555
C43_4 C44_4 1_555 1_555
O15_4 Zr11 1_555 1_555
O7_2 C13_4 1_555 1_555
O8_4 C13_4 1_555 1_555
C13_4 C20_4 1_555 1_555
C15_4 C17_4 1_555 1_555
C16_4 C14_4 1_555 1_555
C17_4 H7_4 1_555 1_555
C18_4 C17_4 1_555 1_555
H8_4 C18_4 1_555 1_555
C19_4 C16_4 1_555 1_555
H9_4 C19_4 1_555 1_555
C20_4 C18_4 1_555 1_555
C21_4 C15_4 1_555 1_555
C22_4 C15_4 1_555 1_555
H10_4 C22_4 1_555 1_555
C23_4 C20_4 1_555 1_555
H11_4 C23_4 1_555 1_555
C24_4 C21_4 1_555 1_555
H12_4 C24_4 1_555 1_555
O21_4 C25_4 1_555 1_555
O10_4 C25_4 1_555 1_555
C25_4 C31_4 1_555 1_555
C26_4 C28_4 1_555 1_555
C27_4 C14_4 1_555 1_555
C28_4 H13_4 1_555 1_555
C29_4 C28_4 1_555 1_555
H14_4 C29_4 1_555 1_555
H15_4 C30_4 1_555 1_555
C31_4 C29_4 1_555 1_555
C32_4 C24_4 1_555 1_555
C33_4 C26_4 1_555 1_555
H16_4 C33_4 1_555 1_555
C34_4 C31_4 1_555 1_555
H17_4 C34_4 1_555 1_555
Zr6_2 O7_2 1_555 1_555
Zr11_5 O8_4 1_555 1_555
Zr8 O10_4 1_555 1_555
C16_4 C21_4 1_555 1_555
C22_4 C23_4 1_555 1_555
C26_4 C32_4 1_555 1_555
C27_4 C30_4 1_555 1_555
C27_4 C32_4 1_555 1_555
C33_4 C34_4 1_555 1_555
Zr1_4 O17_2 1_555 1_555
O18_2 Zr1_4 1_555 1_555
O3_5 Zr1_4 1_555 1_555
O23_2 C1_5 1_555 1_555
C1_5 O3_5 1_555 1_555
C2_5 C4_5 1_555 1_555
C3_5 C5_5 1_555 1_555
C4_5 C7_5 1_555 1_555
C5_5 H1_5 1_555 1_555
C6_5 C5_5 1_555 1_555
H2_5 C6_5 1_555 1_555
C7_5 H3_5 1_555 1_555
C8_5 C1_5 1_555 1_555
C9_5 C3_5 1_555 1_555
C10_5 C3_5 1_555 1_555
H4_5 C10_5 1_555 1_555
C11_5 C8_5 1_555 1_555
H5_5 C11_5 1_555 1_555
C12_5 C9_5 1_555 1_555
H6_5 C12_5 1_555 1_555
O22_3 C35_5 1_555 1_555
O25 C35_5 1_555 1_555
C35_5 C41_5 1_555 1_555
C36_5 C38_5 1_555 1_555
C37_5 C2_5 1_555 1_555
C38_5 H18_5 1_555 1_555
C39_5 C38_5 1_555 1_555
H19_5 C39_5 1_555 1_555
H20_5 C40_5 1_555 1_555
C41_5 C39_5 1_555 1_555
C42_5 C12_5 1_555 1_555
C43_5 C36_5 1_555 1_555
H21_5 C43_5 1_555 1_555
C44_5 C41_5 1_555 1_555
H22_5 C44_5 1_555 1_555
O15_5 Zr1_4 1_555 1_555
O19_2 Zr1_4 1_555 1_555
Zr8_2 O15_5 1_555 1_555
O20_4 Zr1_4 1_555 1_555
O21_5 Zr1_4 1_555 1_555
O22_4 Zr1_4 1_555 1_555
C4_5 C9_5 1_555 1_555
C6_5 C8_5 1_555 1_555
C10_5 C11_5 1_555 1_555
C36_5 C42_5 1_555 1_555
C37_5 C40_5 1_555 1_555
C37_5 C42_5 1_555 1_555
C43_5 C44_5 1_555 1_555
O15_5 Zr11_2 1_555 1_555
O20_3 C13_5 1_555 1_555
O8_5 C13_5 1_555 1_555
C13_5 C20_5 1_555 1_555
C15_5 C17_5 1_555 1_555
C16_5 C14_5 1_555 1_555
C17_5 H7_5 1_555 1_555
C18_5 C17_5 1_555 1_555
H8_5 C18_5 1_555 1_555
C19_5 C16_5 1_555 1_555
H9_5 C19_5 1_555 1_555
C20_5 C18_5 1_555 1_555
C21_5 C15_5 1_555 1_555
C22_5 C15_5 1_555 1_555
H10_5 C22_5 1_555 1_555
C23_5 C20_5 1_555 1_555
H11_5 C23_5 1_555 1_555
C24_5 C21_5 1_555 1_555
H12_5 C24_5 1_555 1_555
O21_5 C25_5 1_555 1_555
O10_5 C25_5 1_555 1_555
C25_5 C31_5 1_555 1_555
C26_5 C28_5 1_555 1_555
C27_5 C14_5 1_555 1_555
C28_5 H13_5 1_555 1_555
C29_5 C28_5 1_555 1_555
H14_5 C29_5 1_555 1_555
H15_5 C30_5 1_555 1_555
C31_5 C29_5 1_555 1_555
C32_5 C24_5 1_555 1_555
C33_5 C26_5 1_555 1_555
H16_5 C33_5 1_555 1_555
C34_5 C31_5 1_555 1_555
H17_5 C34_5 1_555 1_555
Zr11 O8_5 1_555 1_555
Zr8_2 O10_5 1_555 1_555
C16_5 C21_5 1_555 1_555
C22_5 C23_5 1_555 1_555
C26_5 C32_5 1_555 1_555
C27_5 C30_5 1_555 1_555
C27_5 C32_5 1_555 1_555
C33_5 C34_5 1_555 1_555
Zr6_2 O17_3 1_555 1_555
O18_3 Zr6_2 1_555 1_555
O3_6 Zr6_2 1_555 1_555
O23_3 C1_6 1_555 1_555
C1_6 O3_6 1_555 1_555
C2_6 C4_6 1_555 1_555
C3_6 C5_6 1_555 1_555
C4_6 C7_6 1_555 1_555
C5_6 H1_6 1_555 1_555
C6_6 C5_6 1_555 1_555
H2_6 C6_6 1_555 1_555
C7_6 H3_6 1_555 1_555
C8_6 C1_6 1_555 1_555
C9_6 C3_6 1_555 1_555
C10_6 C3_6 1_555 1_555
H4_6 C10_6 1_555 1_555
C11_6 C8_6 1_555 1_555
H5_6 C11_6 1_555 1_555
C12_6 C9_6 1_555 1_555
H6_6 C12_6 1_555 1_555
O22_4 C35_6 1_555 1_555
O25_2 C35_6 1_555 1_555
C35_6 C41_6 1_555 1_555
C36_6 C38_6 1_555 1_555
C37_6 C2_6 1_555 1_555
C38_6 H18_6 1_555 1_555
C39_6 C38_6 1_555 1_555
H19_6 C39_6 1_555 1_555
H20_6 C40_6 1_555 1_555
C41_6 C39_6 1_555 1_555
C42_6 C12_6 1_555 1_555
C43_6 C36_6 1_555 1_555
H21_6 C43_6 1_555 1_555
C44_6 C41_6 1_555 1_555
H22_6 C44_6 1_555 1_555
O15_6 Zr6_2 1_555 1_555
O19_3 Zr6_2 1_555 1_555
Zr9_2 O15_6 1_555 1_555
O21_6 Zr6_2 1_555 1_555
C4_6 C9_6 1_555 1_555
C6_6 C8_6 1_555 1_555
C10_6 C11_6 1_555 1_555
C36_6 C42_6 1_555 1_555
C37_6 C40_6 1_555 1_555
C37_6 C42_6 1_555 1_555
C43_6 C44_6 1_555 1_555
O15_6 Zr11_5 1_555 1_555
O20_4 C13_6 1_555 1_555
O8_6 C13_6 1_555 1_555
C13_6 C20_6 1_555 1_555
C15_6 C17_6 1_555 1_555
C16_6 C14_6 1_555 1_555
C17_6 H7_6 1_555 1_555
C18_6 C17_6 1_555 1_555
H8_6 C18_6 1_555 1_555
C19_6 C16_6 1_555 1_555
H9_6 C19_6 1_555 1_555
C20_6 C18_6 1_555 1_555
C21_6 C15_6 1_555 1_555
C22_6 C15_6 1_555 1_555
H10_6 C22_6 1_555 1_555
C23_6 C20_6 1_555 1_555
H11_6 C23_6 1_555 1_555
C24_6 C21_6 1_555 1_555
H12_6 C24_6 1_555 1_555
O21_6 C25_6 1_555 1_555
O10_6 C25_6 1_555 1_555
C25_6 C31_6 1_555 1_555
C26_6 C28_6 1_555 1_555
C27_6 C14_6 1_555 1_555
C28_6 H13_6 1_555 1_555
C29_6 C28_6 1_555 1_555
H14_6 C29_6 1_555 1_555
H15_6 C30_6 1_555 1_555
C31_6 C29_6 1_555 1_555
C32_6 C24_6 1_555 1_555
C33_6 C26_6 1_555 1_555
H16_6 C33_6 1_555 1_555
C34_6 C31_6 1_555 1_555
H17_6 C34_6 1_555 1_555
Zr11_2 O8_6 1_555 1_555
Zr9_2 O10_6 1_555 1_555
C16_6 C21_6 1_555 1_555
C22_6 C23_6 1_555 1_555
C26_6 C32_6 1_555 1_555
C27_6 C30_6 1_555 1_555
C27_6 C32_6 1_555 1_555
C33_6 C34_6 1_555 1_555
O4_6 Zr8 1_555 1_555
O5_6 Zr8 1_555 1_555
O13_6 Zr11 1_555 1_555
O14_6 Zr11 1_555 1_555
O4_7 Zr9 1_555 1_555
O5_7 Zr9 1_555 1_555
O13_7 Zr11_4 1_555 1_555
O14_7 Zr11_4 1_555 1_555
O4_8 Zr9_2 1_555 1_555
O5_8 Zr9_2 1_555 1_555
O13_8 Zr11_5 1_555 1_555
O14_8 Zr11_5 1_555 1_555
O4_9 Zr8_2 1_555 1_555
O5_9 Zr8_2 1_555 1_555
O13_9 Zr11_2 1_555 1_555
O14_9 Zr11_2 1_555 1_555
O4_10 Zr8_3 1_555 1_555
O5_10 Zr8_3 1_555 1_555
O13_10 Zr11_3 1_555 1_555
O14_10 Zr11_3 1_555 1_555

#END
