
###############################################################################
#
# This file contains modified crystal structure data generated from the
# MOF subset of the Cambridge Structural Database (CSD) v543 
# hosted by the Cambridge Crystallographic Data Centre (CCDC).
#
# This work is licensed under the Creative Commons
# Attribution-NonCommercial-ShareAlike 4.0 International License.
# To view a copy of this license, visit
# http://creativecommons.org/licenses/by-nc-sa/4.0/
# or send a letter to
# Creative Commons, PO Box 1866, Mountain View, CA 94042, USA.
#
# CIF created using the CSD Python API on 29 September 2022
# The structure has been converted into the P1 space group
# The structure has a 3D framework
# The original CSD entry MAJCIN is in the hexagonal crystal system
# The framework has been calculated to contain at least 10.0% void space
# The void calculation uses a probe of radius 1.32A, grid spacing 0.4
# The framework is charged, counterions have been retained in the structure
# H atom positions have been added when not included in the experimental data
# Generated hydrogen atom positions removed from atoms on special positions
#
###############################################################################

data_MAJCIN
_chemical_formula_moiety         '(C264 H276 Cu24 O112 Zr26 39+)n'
_symmetry_cell_setting           triclinic
_symmetry_space_group_name_H-M   'P 1'
_symmetry_Int_Tables_number      1
_space_group_name_Hall           'P 1'
loop_
_symmetry_equiv_pos_site_id
_symmetry_equiv_pos_as_xyz
1 x,y,z
_cell_length_a                   40.142(2)
_cell_length_b                   40.142(2)
_cell_length_c                   16.2684(12)
_cell_angle_alpha                90
_cell_angle_beta                 90
_cell_angle_gamma                120
_cell_volume                     22702.5
loop_
_atom_site_label
_atom_site_type_symbol
_atom_site_fract_x
_atom_site_fract_y
_atom_site_fract_z
Cu1 Cu 0.5735(4) 0.6187(4) 0.5000
Cu1_2 Cu 0.3813(4) 0.9548(6) 0.5000
Cu1_3 Cu 0.0452(6) 0.4265(4) 0.5000
Cu1_4 Cu 0.4265(4) 0.3813(4) 0.5000
Cu1_5 Cu 0.6187(4) 0.0452(6) 0.5000
Cu1_6 Cu 0.9548(6) 0.5735(4) 0.5000
Cu1_7 Cu 0.6187(4) 0.5735(4) 0.5000
Cu1_8 Cu 0.9548(6) 0.3813(4) 0.5000
Cu1_9 Cu 0.4265(4) 0.0452(6) 0.5000
Cu1_10 Cu 0.3813(4) 0.4265(4) 0.5000
Cu1_11 Cu 0.0452(6) 0.6187(4) 0.5000
Cu1_12 Cu 0.5735(4) 0.9548(6) 0.5000
Cu2 Cu 0.4799(3) 0.5201(3) 0.7429(13)
Cu2_2 Cu 0.4799(3) 0.9598(4) 0.7429(13)
Cu2_3 Cu 0.0402(4) 0.5201(3) 0.7429(13)
Cu2_4 Cu 0.5201(3) 0.4799(3) 0.7429(13)
Cu2_5 Cu 0.5201(3) 0.0402(4) 0.7429(13)
Cu2_6 Cu 0.9598(4) 0.4799(3) 0.7429(13)
Cu2_7 Cu 0.5201(3) 0.4799(3) 0.2571(13)
Cu2_8 Cu 0.9598(4) 0.4799(3) 0.2571(13)
Cu2_9 Cu 0.5201(3) 0.0402(4) 0.2571(13)
Cu2_10 Cu 0.4799(3) 0.5201(3) 0.2571(13)
Cu2_11 Cu 0.0402(4) 0.5201(3) 0.2571(13)
Cu2_12 Cu 0.4799(3) 0.9598(4) 0.2571(13)
Zr1 Zr 0.46466(2) 0.53534(2) 0.5000
Zr2 Zr 0.54346(3) 0.54346(3) 0.60749(7)
O1 O 0.4151(2) 0.5198(2) 0.4195(4)
O2 O 0.48240(12) 0.51760(12) 0.6087(5)
O3 O 0.5274(3) 0.5623(3) 0.5000
O4 O 0.5420(3) 0.5420(3) 0.7372(6)
O5 O 0.5970(3) 0.5970(3) 0.6012(7)
O6 O 0.4092(2) 0.4694(3) 0.3481(5)
C1 C 0.3995(4) 0.4958(4) 0.3705(7)
C2 C 0.3670(4) 0.4945(5) 0.3183(7)
C3 C 0.3593(4) 0.5231(5) 0.3274(7)
C4 C 0.3477(4) 0.4677(5) 0.2615(8)
H1 H 0.3728 0.5429 0.3666
C5 C 0.3309(4) 0.5230(5) 0.2781(8)
C6 C 0.3189(4) 0.4686(5) 0.2130(8)
H2 H 0.3534 0.4476 0.2534
H3 H 0.3264 0.5439 0.2838
C7 C 0.3098(4) 0.4961(5) 0.2239(7)
H4 H 0.3059 0.4494 0.1722
C8 C 0.2793(3) 0.4990(5) 0.1734(6)
C9 C 0.2500(3) 0.5000(6) 0.2124(9)
C10 C 0.2801(3) 0.4995(5) 0.0886(6)
H5 H 0.2507 0.5013 0.2707
C11 C 0.3110(4) 0.5008(5) 0.0410(6)
C12 C 0.2494(3) 0.4988(7) 0.0464(8)
H6 H 0.3321 0.5017 0.0691
O11 O 0.1047(3) 0.5198(2) 0.4195(4)
C35 C 0.0963(6) 0.4958(4) 0.3705(7)
C36 C 0.1275(6) 0.4945(5) 0.3183(7)
C37 C 0.1638(6) 0.5231(5) 0.3274(7)
C38 C 0.1200(6) 0.4677(5) 0.2615(8)
H18 H 0.1701 0.5429 0.3666
C39 C 0.1921(6) 0.5230(5) 0.2781(8)
C40 C 0.1497(6) 0.4686(5) 0.2130(8)
H19 H 0.0942 0.4476 0.2534
H20 H 0.2175 0.5439 0.2838
C41 C 0.1863(6) 0.4961(5) 0.2239(7)
H21 H 0.1435 0.4494 0.1722
C42 C 0.2197(6) 0.4990(5) 0.1734(6)
C43 C 0.2194(6) 0.4995(5) 0.0886(6)
C44 C 0.1898(6) 0.5008(5) 0.0410(6)
H22 H 0.1696 0.5017 0.0691
O12 O 0.0602(4) 0.4694(3) 0.3481(5)
Zr3 Zr 0.45654(3) 0.45654(3) 0.60749(7)
O13 O 0.4580(3) 0.4580(3) 0.7372(6)
O14 O 0.4030(3) 0.4030(3) 0.6012(7)
O15 O 0.48240(12) 0.51760(12) 0.3913(5)
O16 O 0.4377(3) 0.4726(3) 0.5000
Zr6 Zr 0.07068(3) 0.53534(2) 0.5000
Zr9 Zr 0.54346(3) 0.54346(3) 0.39251(7)
Zr10 Zr -0.00000(4) 0.45654(3) 0.39251(7)
Zr11 Zr 0.45654(3) 0.45654(3) 0.39251(7)
O17 O 0.4802(2) 0.5849(2) 0.5805(4)
O18 O 0.4151(2) 0.5198(2) 0.5805(4)
O19 O 0.4802(2) 0.5849(2) 0.4195(4)
O20 O 0.51760(12) 0.48240(12) 0.6087(5)
O21 O 0.4726(3) 0.4377(3) 0.5000
O22 O 0.5623(3) 0.5274(3) 0.5000
O23 O 0.4694(3) 0.4092(2) 0.6519(5)
O24 O 0.5306(3) 0.5908(2) 0.6519(5)
O25 O 0.5908(2) 0.5306(3) 0.6519(5)
O26 O 0.4092(2) 0.4694(3) 0.6519(5)
O7 O 0.1047(3) 0.5198(2) 0.5805(4)
C13 C 0.0963(6) 0.4958(4) 0.6295(7)
C14 C 0.1275(6) 0.4945(5) 0.6817(7)
C15 C 0.1638(6) 0.5231(5) 0.6726(7)
C16 C 0.1200(6) 0.4677(5) 0.7385(8)
H7 H 0.1701 0.5429 0.6334
C17 C 0.1921(6) 0.5230(5) 0.7219(8)
C18 C 0.1497(6) 0.4686(5) 0.7870(8)
H8 H 0.0942 0.4476 0.7466
H9 H 0.2175 0.5439 0.7162
C19 C 0.1863(6) 0.4961(5) 0.7761(7)
H10 H 0.1435 0.4494 0.8278
C20 C 0.2197(6) 0.4990(5) 0.8266(6)
C21 C 0.2500(7) 0.5000(6) 0.7876(9)
C22 C 0.2194(6) 0.4995(5) 0.9114(6)
H11 H 0.2506 0.5013 0.7293
C23 C 0.1898(6) 0.5008(5) 0.9590(6)
C24 C 0.2494(8) 0.4988(7) 0.9536(8)
H12 H 0.1696 0.5017 0.9309
O8 O 0.0602(4) 0.4694(3) 0.6519(5)
C25 C 0.3995(4) 0.4958(4) 0.6295(7)
C26 C 0.3670(4) 0.4945(5) 0.6817(7)
C27 C 0.3593(4) 0.5231(5) 0.6726(7)
C28 C 0.3477(4) 0.4677(5) 0.7385(8)
H13 H 0.3728 0.5429 0.6334
C29 C 0.3309(4) 0.5230(5) 0.7219(8)
C30 C 0.3189(4) 0.4686(5) 0.7870(8)
H14 H 0.3534 0.4476 0.7466
H15 H 0.3264 0.5439 0.7162
C31 C 0.3098(4) 0.4961(5) 0.7761(7)
H16 H 0.3059 0.4494 0.8278
C32 C 0.2793(3) 0.4990(5) 0.8266(6)
C33 C 0.2801(3) 0.4995(5) 0.9114(6)
C34 C 0.3110(4) 0.5008(5) 0.9590(6)
H17 H 0.3321 0.5017 0.9309
Zr7 Zr -0.00000(4) 0.45654(3) 0.60749(7)
Zr10_2 Zr 1.00000(4) 0.45654(3) 0.39251(7)
Zr7_2 Zr 1.00000(4) 0.45654(3) 0.60749(7)
Zr2_2 Zr 0.45654(3) 0.00000(4) 0.60749(7)
O4_2 O 0.4580(3) -0.0000(4) 0.7372(6)
O5_2 O 0.4030(3) 0.0000(4) 0.6012(7)
Zr3_2 Zr 0.54346(3) -0.00000(4) 0.60749(7)
O13_2 O 0.5420(3) -0.0000(4) 0.7372(6)
O14_2 O 0.5970(3) -0.0000(4) 0.6012(7)
Zr9_2 Zr 0.45654(3) 0.00000(4) 0.39251(7)
Zr11_2 Zr 0.54346(3) 0.00000(4) 0.39251(7)
O20_2 O 0.51760(12) 0.03520(17) 0.6087(5)
O21_2 O 0.5623(3) 0.0349(4) 0.5000
O22_2 O 0.4726(3) 0.0349(4) 0.5000
O23_2 O 0.5908(2) 0.0602(4) 0.6519(5)
O25_2 O 0.4694(3) 0.0602(4) 0.6519(5)
Zr1_2 Zr 0.46466(2) 0.92932(3) 0.5000
Zr2_3 Zr 0.45654(3) 1.00000(4) 0.60749(7)
O1_2 O 0.4802(2) 0.8953(3) 0.4195(4)
O2_2 O 0.48240(12) 0.96480(17) 0.6087(5)
O3_2 O 0.4377(3) 0.9651(4) 0.5000
O4_3 O 0.4580(3) 1.0000(4) 0.7372(6)
O5_3 O 0.4030(3) 1.0000(4) 0.6012(7)
O6_2 O 0.5306(3) 0.9398(4) 0.3481(5)
C1_2 C 0.5042(4) 0.9037(6) 0.3705(7)
C2_2 C 0.5055(5) 0.8725(6) 0.3183(7)
C3_2 C 0.4769(5) 0.8362(6) 0.3274(7)
C4_2 C 0.5323(5) 0.8800(6) 0.2615(8)
H1_2 H 0.4571 0.8299 0.3666
C5_2 C 0.4770(5) 0.8079(6) 0.2781(8)
C6_2 C 0.5314(5) 0.8503(6) 0.2130(8)
H2_2 H 0.5524 0.9058 0.2534
H3_2 H 0.4561 0.7825 0.2838
C7_2 C 0.5039(5) 0.8137(6) 0.2239(7)
H4_2 H 0.5506 0.8565 0.1722
C8_2 C 0.5010(5) 0.7803(6) 0.1734(6)
C9_2 C 0.5000(6) 0.7500(7) 0.2124(9)
C10_2 C 0.5005(5) 0.7806(6) 0.0886(6)
H5_2 H 0.4987 0.7494 0.2707
C11_2 C 0.4992(5) 0.8102(6) 0.0410(6)
C12_2 C 0.5012(7) 0.7506(8) 0.0464(8)
H6_2 H 0.4983 0.8304 0.0691
C35_2 C 0.5042(4) 0.6005(7) 0.3705(7)
C36_2 C 0.5055(5) 0.6330(8) 0.3183(7)
C37_2 C 0.4769(5) 0.6407(8) 0.3274(7)
C38_2 C 0.5323(5) 0.6523(8) 0.2615(8)
H18_2 H 0.4571 0.6272 0.3666
C39_2 C 0.4770(5) 0.6691(8) 0.2781(8)
C40_2 C 0.5314(5) 0.6811(8) 0.2130(8)
H19_2 H 0.5524 0.6466 0.2534
H20_2 H 0.4561 0.6736 0.2838
C41_2 C 0.5039(5) 0.6902(8) 0.2239(7)
H21_2 H 0.5506 0.6941 0.1722
C42_2 C 0.5010(5) 0.7207(8) 0.1734(6)
C43_2 C 0.5005(5) 0.7199(8) 0.0886(6)
C44_2 C 0.4992(5) 0.6890(8) 0.0410(6)
H22_2 H 0.4983 0.6679 0.0691
O12_2 O 0.5306(3) 0.5908(5) 0.3481(5)
Zr3_3 Zr 0.54346(3) 1.00000(4) 0.60749(7)
O13_3 O 0.5420(3) 1.0000(4) 0.7372(6)
O14_3 O 0.5970(3) 1.0000(4) 0.6012(7)
O15_2 O 0.48240(12) 0.96480(17) 0.3913(5)
O16_2 O 0.5274(3) 0.9651(4) 0.5000
Zr9_3 Zr 0.45654(3) 1.00000(4) 0.39251(7)
Zr11_3 Zr 0.54346(3) 1.00000(4) 0.39251(7)
O17_2 O 0.4151(2) 0.8953(3) 0.5805(4)
O18_2 O 0.4802(2) 0.8953(3) 0.5805(4)
O19_2 O 0.4151(2) 0.8953(3) 0.4195(4)
O24_2 O 0.4092(2) 0.9398(4) 0.6519(5)
O26_2 O 0.5306(3) 0.9398(4) 0.6519(5)
C13_2 C 0.5042(4) 0.6005(7) 0.6295(7)
C14_2 C 0.5055(5) 0.6330(8) 0.6817(7)
C15_2 C 0.4769(5) 0.6407(8) 0.6726(7)
C16_2 C 0.5323(5) 0.6523(8) 0.7385(8)
H7_2 H 0.4571 0.6272 0.6334
C17_2 C 0.4770(5) 0.6691(8) 0.7219(8)
C18_2 C 0.5314(5) 0.6811(8) 0.7870(8)
H8_2 H 0.5524 0.6466 0.7466
H9_2 H 0.4561 0.6736 0.7162
C19_2 C 0.5039(5) 0.6902(8) 0.7761(7)
H10_2 H 0.5506 0.6941 0.8278
C20_2 C 0.5010(5) 0.7207(8) 0.8266(6)
C21_2 C 0.5000(6) 0.7500(9) 0.7876(9)
C22_2 C 0.5005(5) 0.7199(8) 0.9114(6)
H11_2 H 0.4987 0.7493 0.7293
C23_2 C 0.4992(5) 0.6890(8) 0.9590(6)
C24_2 C 0.5012(7) 0.7506(11) 0.9536(8)
H12_2 H 0.4983 0.6679 0.9309
C25_2 C 0.5042(4) 0.9037(6) 0.6295(7)
C26_2 C 0.5055(5) 0.8725(6) 0.6817(7)
C27_2 C 0.4769(5) 0.8362(6) 0.6726(7)
C28_2 C 0.5323(5) 0.8800(6) 0.7385(8)
H13_2 H 0.4571 0.8299 0.6334
C29_2 C 0.4770(5) 0.8079(6) 0.7219(8)
C30_2 C 0.5314(5) 0.8503(6) 0.7870(8)
H14_2 H 0.5524 0.9058 0.7466
H15_2 H 0.4561 0.7825 0.7162
C31_2 C 0.5039(5) 0.8137(6) 0.7761(7)
H16_2 H 0.5506 0.8565 0.8278
C32_2 C 0.5010(5) 0.7803(6) 0.8266(6)
C33_2 C 0.5005(5) 0.7806(6) 0.9114(6)
C34_2 C 0.4992(5) 0.8102(6) 0.9590(6)
H17_2 H 0.4983 0.8304 0.9309
O1_3 O 0.1047(3) 0.5849(2) 0.4195(4)
O2_3 O 0.03520(17) 0.51760(12) 0.6087(5)
O3_3 O 0.0349(4) 0.4726(3) 0.5000
O4_4 O -0.0000(4) 0.4580(3) 0.7372(6)
O5_4 O -0.0000(4) 0.4030(3) 0.6012(7)
O6_3 O 0.0602(4) 0.5908(2) 0.3481(5)
C1_3 C 0.0963(6) 0.6005(4) 0.3705(7)
C2_3 C 0.1275(6) 0.6330(4) 0.3183(7)
C3_3 C 0.1638(6) 0.6407(4) 0.3274(7)
C4_3 C 0.1200(6) 0.6523(4) 0.2615(8)
H1_3 H 0.1701 0.6272 0.3666
C5_3 C 0.1921(6) 0.6691(4) 0.2781(8)
C6_3 C 0.1497(6) 0.6811(4) 0.2130(8)
H2_3 H 0.0942 0.6466 0.2534
H3_3 H 0.2175 0.6736 0.2838
C7_3 C 0.1863(6) 0.6902(4) 0.2239(7)
H4_3 H 0.1435 0.6941 0.1722
C8_3 C 0.2197(6) 0.7207(3) 0.1734(6)
C9_3 C 0.2500(7) 0.7500(3) 0.2124(9)
C10_3 C 0.2194(6) 0.7199(3) 0.0886(6)
H5_3 H 0.2506 0.7493 0.2707
C11_3 C 0.1898(6) 0.6890(4) 0.0410(6)
C12_3 C 0.2494(8) 0.7506(3) 0.0464(8)
H6_3 H 0.1696 0.6679 0.0691
C35_3 C 0.3995(7) 0.9037(6) 0.3705(7)
C36_3 C 0.3670(8) 0.8725(6) 0.3183(7)
C37_3 C 0.3593(8) 0.8362(6) 0.3274(7)
C38_3 C 0.3477(8) 0.8800(6) 0.2615(8)
H18_3 H 0.3728 0.8299 0.3666
C39_3 C 0.3309(8) 0.8079(6) 0.2781(8)
C40_3 C 0.3189(8) 0.8503(6) 0.2130(8)
H19_3 H 0.3534 0.9058 0.2534
H20_3 H 0.3264 0.7825 0.2838
C41_3 C 0.3098(8) 0.8137(6) 0.2239(7)
H21_3 H 0.3059 0.8565 0.1722
C42_3 C 0.2793(8) 0.7803(6) 0.1734(6)
C43_3 C 0.2801(8) 0.7806(6) 0.0886(6)
C44_3 C 0.3110(8) 0.8102(6) 0.0410(6)
H22_3 H 0.3321 0.8304 0.0691
O12_3 O 0.4092(5) 0.9398(4) 0.3481(5)
Zr3_4 Zr -0.00000(4) 0.54346(3) 0.60749(7)
O13_4 O -0.0000(4) 0.5420(3) 0.7372(6)
O14_4 O 0.0000(4) 0.5970(3) 0.6012(7)
O15_3 O 0.03520(17) 0.51760(12) 0.3913(5)
O16_3 O 0.0349(4) 0.5623(3) 0.5000
Zr11_4 Zr -0.00000(4) 0.54346(3) 0.39251(7)
O18_3 O 0.1047(3) 0.5849(2) 0.5805(4)
O26_3 O 0.0602(4) 0.5908(2) 0.6519(5)
C13_3 C 0.3995(7) 0.9037(6) 0.6295(7)
C14_3 C 0.3670(8) 0.8725(6) 0.6817(7)
C15_3 C 0.3593(8) 0.8362(6) 0.6726(7)
C16_3 C 0.3477(8) 0.8800(6) 0.7385(8)
H7_3 H 0.3728 0.8299 0.6334
C17_3 C 0.3309(8) 0.8079(6) 0.7219(8)
C18_3 C 0.3189(8) 0.8503(6) 0.7870(8)
H8_3 H 0.3534 0.9058 0.7466
H9_3 H 0.3264 0.7825 0.7162
C19_3 C 0.3098(8) 0.8137(6) 0.7761(7)
H10_3 H 0.3059 0.8565 0.8278
C20_3 C 0.2793(8) 0.7803(6) 0.8266(6)
C21_3 C 0.2500(9) 0.7500(7) 0.7876(9)
C22_3 C 0.2801(8) 0.7806(6) 0.9114(6)
H11_3 H 0.2507 0.7494 0.7293
C23_3 C 0.3110(8) 0.8102(6) 0.9590(6)
C24_3 C 0.2494(11) 0.7506(8) 0.9536(8)
H12_3 H 0.3321 0.8304 0.9309
C25_3 C 0.0963(6) 0.6005(4) 0.6295(7)
C26_3 C 0.1275(6) 0.6330(4) 0.6817(7)
C27_3 C 0.1638(6) 0.6407(4) 0.6726(7)
C28_3 C 0.1200(6) 0.6523(4) 0.7385(8)
H13_3 H 0.1701 0.6272 0.6334
C29_3 C 0.1921(6) 0.6691(4) 0.7219(8)
C30_3 C 0.1497(6) 0.6811(4) 0.7870(8)
H14_3 H 0.0942 0.6466 0.7466
H15_3 H 0.2175 0.6736 0.7162
C31_3 C 0.1863(6) 0.6902(4) 0.7761(7)
H16_3 H 0.1435 0.6941 0.8278
C32_3 C 0.2197(6) 0.7207(3) 0.8266(6)
C33_3 C 0.2194(6) 0.7199(3) 0.9114(6)
C34_3 C 0.1898(6) 0.6890(4) 0.9590(6)
H17_3 H 0.1696 0.6679 0.9309
O4_5 O 1.0000(4) 0.4580(3) 0.7372(6)
O5_5 O 1.0000(4) 0.4030(3) 0.6012(7)
Zr3_5 Zr 1.00000(4) 0.54346(3) 0.60749(7)
O13_5 O 1.0000(4) 0.5420(3) 0.7372(6)
O14_5 O 1.0000(4) 0.5970(3) 0.6012(7)
Zr11_5 Zr 1.00000(4) 0.54346(3) 0.39251(7)
O20_3 O 0.96480(17) 0.48240(12) 0.6087(5)
O21_3 O 0.9651(4) 0.5274(3) 0.5000
O22_3 O 0.9651(4) 0.4377(3) 0.5000
O23_3 O 0.9398(4) 0.5306(3) 0.6519(5)
O25_3 O 0.9398(4) 0.4092(2) 0.6519(5)
Zr1_3 Zr 0.53534(2) 0.46466(2) 0.5000
O1_4 O 0.5849(2) 0.4802(2) 0.4195(4)
O6_4 O 0.5908(2) 0.5306(3) 0.3481(5)
C1_4 C 0.6005(4) 0.5042(4) 0.3705(7)
C2_4 C 0.6330(4) 0.5055(5) 0.3183(7)
C3_4 C 0.6407(4) 0.4769(5) 0.3274(7)
C4_4 C 0.6523(4) 0.5323(5) 0.2615(8)
H1_4 H 0.6272 0.4571 0.3666
C5_4 C 0.6691(4) 0.4770(5) 0.2781(8)
C6_4 C 0.6811(4) 0.5314(5) 0.2130(8)
H2_4 H 0.6466 0.5524 0.2534
H3_4 H 0.6736 0.4561 0.2838
C7_4 C 0.6902(4) 0.5039(5) 0.2239(7)
H4_4 H 0.6941 0.5506 0.1722
C8_4 C 0.7207(3) 0.5010(5) 0.1734(6)
C9_4 C 0.7500(3) 0.5000(6) 0.2124(9)
C10_4 C 0.7199(3) 0.5005(5) 0.0886(6)
H5_4 H 0.7493 0.4987 0.2707
C11_4 C 0.6890(4) 0.4992(5) 0.0410(6)
C12_4 C 0.7506(3) 0.5012(7) 0.0464(8)
H6_4 H 0.6679 0.4983 0.0691
O11_2 O 0.8953(3) 0.4802(2) 0.4195(4)
C35_4 C 0.9037(6) 0.5042(4) 0.3705(7)
C36_4 C 0.8725(6) 0.5055(5) 0.3183(7)
C37_4 C 0.8362(6) 0.4769(5) 0.3274(7)
C38_4 C 0.8800(6) 0.5323(5) 0.2615(8)
H18_4 H 0.8299 0.4571 0.3666
C39_4 C 0.8079(6) 0.4770(5) 0.2781(8)
C40_4 C 0.8503(6) 0.5314(5) 0.2130(8)
H19_4 H 0.9058 0.5524 0.2534
H20_4 H 0.7825 0.4561 0.2838
C41_4 C 0.8137(6) 0.5039(5) 0.2239(7)
H21_4 H 0.8565 0.5506 0.1722
C42_4 C 0.7803(6) 0.5010(5) 0.1734(6)
C43_4 C 0.7806(6) 0.5005(5) 0.0886(6)
C44_4 C 0.8102(6) 0.4992(5) 0.0410(6)
H22_4 H 0.8304 0.4983 0.0691
O12_4 O 0.9398(4) 0.5306(3) 0.3481(5)
O15_4 O 0.51760(12) 0.48240(12) 0.3913(5)
Zr6_2 Zr 0.92932(3) 0.46466(2) 0.5000
O17_3 O 0.5198(2) 0.4151(2) 0.5805(4)
O18_4 O 0.5849(2) 0.4802(2) 0.5805(4)
O19_3 O 0.5198(2) 0.4151(2) 0.4195(4)
O7_2 O 0.8953(3) 0.4802(2) 0.5805(4)
C13_4 C 0.9037(6) 0.5042(4) 0.6295(7)
C14_4 C 0.8725(6) 0.5055(5) 0.6817(7)
C15_4 C 0.8362(6) 0.4769(5) 0.6726(7)
C16_4 C 0.8800(6) 0.5323(5) 0.7385(8)
H7_4 H 0.8299 0.4571 0.6334
C17_4 C 0.8079(6) 0.4770(5) 0.7219(8)
C18_4 C 0.8503(6) 0.5314(5) 0.7870(8)
H8_4 H 0.9058 0.5524 0.7466
H9_4 H 0.7825 0.4561 0.7162
C19_4 C 0.8137(6) 0.5039(5) 0.7761(7)
H10_4 H 0.8565 0.5506 0.8278
C20_4 C 0.7803(6) 0.5010(5) 0.8266(6)
C21_4 C 0.7500(7) 0.5000(6) 0.7876(9)
C22_4 C 0.7806(6) 0.5005(5) 0.9114(6)
H11_4 H 0.7494 0.4987 0.7293
C23_4 C 0.8102(6) 0.4992(5) 0.9590(6)
C24_4 C 0.7506(8) 0.5012(7) 0.9536(8)
H12_4 H 0.8304 0.4983 0.9309
C25_4 C 0.6005(4) 0.5042(4) 0.6295(7)
C26_4 C 0.6330(4) 0.5055(5) 0.6817(7)
C27_4 C 0.6407(4) 0.4769(5) 0.6726(7)
C28_4 C 0.6523(4) 0.5323(5) 0.7385(8)
H13_4 H 0.6272 0.4571 0.6334
C29_4 C 0.6691(4) 0.4770(5) 0.7219(8)
C30_4 C 0.6811(4) 0.5314(5) 0.7870(8)
H14_4 H 0.6466 0.5524 0.7466
H15_4 H 0.6736 0.4561 0.7162
C31_4 C 0.6902(4) 0.5039(5) 0.7761(7)
H16_4 H 0.6941 0.5506 0.8278
C32_4 C 0.7207(3) 0.5010(5) 0.8266(6)
C33_4 C 0.7199(3) 0.5005(5) 0.9114(6)
C34_4 C 0.6890(4) 0.4992(5) 0.9590(6)
H17_4 H 0.6679 0.4983 0.9309
Zr1_4 Zr 0.53534(2) 0.07068(3) 0.5000
O1_5 O 0.5198(2) 0.1047(3) 0.4195(4)
O6_5 O 0.4694(3) 0.0602(4) 0.3481(5)
C1_5 C 0.4958(4) 0.0963(6) 0.3705(7)
C2_5 C 0.4945(5) 0.1275(6) 0.3183(7)
C3_5 C 0.5231(5) 0.1638(6) 0.3274(7)
C4_5 C 0.4677(5) 0.1200(6) 0.2615(8)
H1_5 H 0.5429 0.1701 0.3666
C5_5 C 0.5230(5) 0.1921(6) 0.2781(8)
C6_5 C 0.4686(5) 0.1497(6) 0.2130(8)
H2_5 H 0.4476 0.0942 0.2534
H3_5 H 0.5439 0.2175 0.2838
C7_5 C 0.4961(5) 0.1863(6) 0.2239(7)
H4_5 H 0.4494 0.1435 0.1722
C8_5 C 0.4990(5) 0.2197(6) 0.1734(6)
C9_5 C 0.5000(6) 0.2500(7) 0.2124(9)
C10_5 C 0.4995(5) 0.2194(6) 0.0886(6)
H5_5 H 0.5013 0.2506 0.2707
C11_5 C 0.5008(5) 0.1898(6) 0.0410(6)
C12_5 C 0.4988(7) 0.2494(8) 0.0464(8)
H6_5 H 0.5017 0.1696 0.0691
C35_5 C 0.4958(4) 0.3995(7) 0.3705(7)
C36_5 C 0.4945(5) 0.3670(8) 0.3183(7)
C37_5 C 0.5231(5) 0.3593(8) 0.3274(7)
C38_5 C 0.4677(5) 0.3477(8) 0.2615(8)
H18_5 H 0.5429 0.3728 0.3666
C39_5 C 0.5230(5) 0.3309(8) 0.2781(8)
C40_5 C 0.4686(5) 0.3189(8) 0.2130(8)
H19_5 H 0.4476 0.3534 0.2534
H20_5 H 0.5439 0.3264 0.2838
C41_5 C 0.4961(5) 0.3098(8) 0.2239(7)
H21_5 H 0.4494 0.3059 0.1722
C42_5 C 0.4990(5) 0.2793(8) 0.1734(6)
C43_5 C 0.4995(5) 0.2801(8) 0.0886(6)
C44_5 C 0.5008(5) 0.3110(8) 0.0410(6)
H22_5 H 0.5017 0.3321 0.0691
O12_5 O 0.4694(3) 0.4092(5) 0.3481(5)
O15_5 O 0.51760(12) 0.03520(17) 0.3913(5)
O17_4 O 0.5849(2) 0.1047(3) 0.5805(4)
O18_5 O 0.5198(2) 0.1047(3) 0.5805(4)
O19_4 O 0.5849(2) 0.1047(3) 0.4195(4)
C13_5 C 0.4958(4) 0.3995(7) 0.6295(7)
C14_5 C 0.4945(5) 0.3670(8) 0.6817(7)
C15_5 C 0.5231(5) 0.3593(8) 0.6726(7)
C16_5 C 0.4677(5) 0.3477(8) 0.7385(8)
H7_5 H 0.5429 0.3728 0.6334
C17_5 C 0.5230(5) 0.3309(8) 0.7219(8)
C18_5 C 0.4686(5) 0.3189(8) 0.7870(8)
H8_5 H 0.4476 0.3534 0.7466
H9_5 H 0.5439 0.3264 0.7162
C19_5 C 0.4961(5) 0.3098(8) 0.7761(7)
H10_5 H 0.4494 0.3059 0.8278
C20_5 C 0.4990(5) 0.2793(8) 0.8266(6)
C21_5 C 0.5000(6) 0.2500(9) 0.7876(9)
C22_5 C 0.4995(5) 0.2801(8) 0.9114(6)
H11_5 H 0.5013 0.2507 0.7293
C23_5 C 0.5008(5) 0.3110(8) 0.9590(6)
C24_5 C 0.4988(7) 0.2494(11) 0.9536(8)
H12_5 H 0.5017 0.3321 0.9309
C25_5 C 0.4958(4) 0.0963(6) 0.6295(7)
C26_5 C 0.4945(5) 0.1275(6) 0.6817(7)
C27_5 C 0.5231(5) 0.1638(6) 0.6726(7)
C28_5 C 0.4677(5) 0.1200(6) 0.7385(8)
H13_5 H 0.5429 0.1701 0.6334
C29_5 C 0.5230(5) 0.1921(6) 0.7219(8)
C30_5 C 0.4686(5) 0.1497(6) 0.7870(8)
H14_5 H 0.4476 0.0942 0.7466
H15_5 H 0.5439 0.2175 0.7162
C31_5 C 0.4961(5) 0.1863(6) 0.7761(7)
H16_5 H 0.4494 0.1435 0.8278
C32_5 C 0.4990(5) 0.2197(6) 0.8266(6)
C33_5 C 0.4995(5) 0.2194(6) 0.9114(6)
C34_5 C 0.5008(5) 0.1898(6) 0.9590(6)
H17_5 H 0.5017 0.1696 0.9309
O1_6 O 0.8953(3) 0.4151(2) 0.4195(4)
O6_6 O 0.9398(4) 0.4092(2) 0.3481(5)
C1_6 C 0.9037(6) 0.3995(4) 0.3705(7)
C2_6 C 0.8725(6) 0.3670(4) 0.3183(7)
C3_6 C 0.8362(6) 0.3593(4) 0.3274(7)
C4_6 C 0.8800(6) 0.3477(4) 0.2615(8)
H1_6 H 0.8299 0.3728 0.3666
C5_6 C 0.8079(6) 0.3309(4) 0.2781(8)
C6_6 C 0.8503(6) 0.3189(4) 0.2130(8)
H2_6 H 0.9058 0.3534 0.2534
H3_6 H 0.7825 0.3264 0.2838
C7_6 C 0.8137(6) 0.3098(4) 0.2239(7)
H4_6 H 0.8565 0.3059 0.1722
C8_6 C 0.7803(6) 0.2793(3) 0.1734(6)
C9_6 C 0.7500(7) 0.2500(3) 0.2124(9)
C10_6 C 0.7806(6) 0.2801(3) 0.0886(6)
H5_6 H 0.7494 0.2507 0.2707
C11_6 C 0.8102(6) 0.3110(4) 0.0410(6)
C12_6 C 0.7506(8) 0.2494(3) 0.0464(8)
H6_6 H 0.8304 0.3321 0.0691
C35_6 C 0.6005(7) 0.0963(6) 0.3705(7)
C36_6 C 0.6330(8) 0.1275(6) 0.3183(7)
C37_6 C 0.6407(8) 0.1638(6) 0.3274(7)
C38_6 C 0.6523(8) 0.1200(6) 0.2615(8)
H18_6 H 0.6272 0.1701 0.3666
C39_6 C 0.6691(8) 0.1921(6) 0.2781(8)
C40_6 C 0.6811(8) 0.1497(6) 0.2130(8)
H19_6 H 0.6466 0.0942 0.2534
H20_6 H 0.6736 0.2175 0.2838
C41_6 C 0.6902(8) 0.1863(6) 0.2239(7)
H21_6 H 0.6941 0.1435 0.1722
C42_6 C 0.7207(8) 0.2197(6) 0.1734(6)
C43_6 C 0.7199(8) 0.2194(6) 0.0886(6)
C44_6 C 0.6890(8) 0.1898(6) 0.0410(6)
H22_6 H 0.6679 0.1696 0.0691
O12_6 O 0.5908(5) 0.0602(4) 0.3481(5)
O15_6 O 0.96480(17) 0.48240(12) 0.3913(5)
O18_6 O 0.8953(3) 0.4151(2) 0.5805(4)
C13_6 C 0.6005(7) 0.0963(6) 0.6295(7)
C14_6 C 0.6330(8) 0.1275(6) 0.6817(7)
C15_6 C 0.6407(8) 0.1638(6) 0.6726(7)
C16_6 C 0.6523(8) 0.1200(6) 0.7385(8)
H7_6 H 0.6272 0.1701 0.6334
C17_6 C 0.6691(8) 0.1921(6) 0.7219(8)
C18_6 C 0.6811(8) 0.1497(6) 0.7870(8)
H8_6 H 0.6466 0.0942 0.7466
H9_6 H 0.6736 0.2175 0.7162
C19_6 C 0.6902(8) 0.1863(6) 0.7761(7)
H10_6 H 0.6941 0.1435 0.8278
C20_6 C 0.7207(8) 0.2197(6) 0.8266(6)
C21_6 C 0.7500(9) 0.2500(7) 0.7876(9)
C22_6 C 0.7199(8) 0.2194(6) 0.9114(6)
H11_6 H 0.7493 0.2506 0.7293
C23_6 C 0.6890(8) 0.1898(6) 0.9590(6)
C24_6 C 0.7506(11) 0.2494(8) 0.9536(8)
H12_6 H 0.6679 0.1696 0.9309
C25_6 C 0.9037(6) 0.3995(4) 0.6295(7)
C26_6 C 0.8725(6) 0.3670(4) 0.6817(7)
C27_6 C 0.8362(6) 0.3593(4) 0.6726(7)
C28_6 C 0.8800(6) 0.3477(4) 0.7385(8)
H13_6 H 0.8299 0.3728 0.6334
C29_6 C 0.8079(6) 0.3309(4) 0.7219(8)
C30_6 C 0.8503(6) 0.3189(4) 0.7870(8)
H14_6 H 0.9058 0.3534 0.7466
H15_6 H 0.7825 0.3264 0.7162
C31_6 C 0.8137(6) 0.3098(4) 0.7761(7)
H16_6 H 0.8565 0.3059 0.8278
C32_6 C 0.7803(6) 0.2793(3) 0.8266(6)
C33_6 C 0.7806(6) 0.2801(3) 0.9114(6)
C34_6 C 0.8102(6) 0.3110(4) 0.9590(6)
H17_6 H 0.8304 0.3321 0.9309
O4_6 O 0.5420(3) 0.5420(3) 0.2628(6)
O5_6 O 0.5970(3) 0.5970(3) 0.3988(7)
O13_6 O 0.4580(3) 0.4580(3) 0.2628(6)
O14_6 O 0.4030(3) 0.4030(3) 0.3988(7)
O4_7 O -0.0000(4) 0.4580(3) 0.2628(6)
O5_7 O -0.0000(4) 0.4030(3) 0.3988(7)
O13_7 O -0.0000(4) 0.5420(3) 0.2628(6)
O14_7 O -0.0000(4) 0.5970(3) 0.3988(7)
O4_8 O 1.0000(4) 0.4580(3) 0.2628(6)
O5_8 O 1.0000(4) 0.4030(3) 0.3988(7)
O13_8 O 1.0000(4) 0.5420(3) 0.2628(6)
O14_8 O 1.0000(4) 0.5970(3) 0.3988(7)
O4_9 O 0.4580(3) 0.0000(4) 0.2628(6)
O5_9 O 0.4030(3) 0.0000(4) 0.3988(7)
O13_9 O 0.5420(3) 0.0000(4) 0.2628(6)
O14_9 O 0.5970(3) 0.0000(4) 0.3988(7)
O4_10 O 0.4580(3) 1.0000(4) 0.2628(6)
O5_10 O 0.4030(3) 1.0000(4) 0.3988(7)
O13_10 O 0.5420(3) 1.0000(4) 0.2628(6)
O14_10 O 0.5970(3) 1.0000(4) 0.3988(7)
loop_
_geom_bond_atom_site_label_1
_geom_bond_atom_site_label_2
_geom_bond_site_symmetry_1
_geom_bond_site_symmetry_2
Zr1 O1 1_555 1_555
Zr2 O2 1_555 1_555
O1 C1 1_555 1_555
O2 Zr1 1_555 1_555
O3 Zr1 1_555 1_555
O4 Zr2 1_555 1_555
O5 Zr2 1_555 1_555
O6 C1 1_555 1_555
C1 C2 1_555 1_555
C2 C3 1_555 1_555
C3 H1 1_555 1_555
C4 C2 1_555 1_555
C5 C3 1_555 1_555
C6 C4 1_555 1_555
H2 C4 1_555 1_555
H3 C5 1_555 1_555
C7 C5 1_555 1_555
H4 C6 1_555 1_555
C8 C7 1_555 1_555
C9 C8 1_555 1_555
C10 C8 1_555 1_555
H5 C9 1_555 1_555
C11 C10 1_555 1_555
C12 C10 1_555 1_555
H6 C11 1_555 1_555
O11 C35 1_555 1_555
C35 C36 1_555 1_555
C36 C37 1_555 1_555
C37 H18 1_555 1_555
C38 C36 1_555 1_555
C39 C37 1_555 1_555
C40 C38 1_555 1_555
H19 C38 1_555 1_555
H20 C39 1_555 1_555
C41 C39 1_555 1_555
H21 C40 1_555 1_555
C42 C9 1_555 1_555
C43 C12 1_555 1_555
H22 C44 1_555 1_555
O12 C35 1_555 1_555
Zr3 O2 1_555 1_555
O13 Zr3 1_555 1_555
O14 Zr3 1_555 1_555
O15 Zr1 1_555 1_555
O16 Zr1 1_555 1_555
Zr6 O11 1_555 1_555
Zr9 O3 1_555 1_555
Zr10 O12 1_555 1_555
Zr11 O6 1_555 1_555
O17 Zr1 1_555 1_555
O18 Zr1 1_555 1_555
O19 Zr1 1_555 1_555
O20 Zr2 1_555 1_555
O21 Zr3 1_555 1_555
O22 Zr2 1_555 1_555
O23 Zr3 1_555 1_555
O24 Zr2 1_555 1_555
O25 Zr2 1_555 1_555
O26 Zr3 1_555 1_555
Zr2 O3 1_555 1_555
C6 C7 1_555 1_555
C40 C41 1_555 1_555
C41 C42 1_555 1_555
C42 C43 1_555 1_555
C43 C44 1_555 1_555
Zr3 O16 1_555 1_555
Zr3 O20 1_555 1_555
O15 Zr9 1_555 1_555
O15 Zr11 1_555 1_555
O16 Zr11 1_555 1_555
Zr9 O22 1_555 1_555
Zr11 O21 1_555 1_555
O7 C13 1_555 1_555
C13 C14 1_555 1_555
C14 C15 1_555 1_555
C15 H7 1_555 1_555
C16 C14 1_555 1_555
C17 C15 1_555 1_555
C18 C16 1_555 1_555
H8 C16 1_555 1_555
H9 C17 1_555 1_555
C19 C17 1_555 1_555
H10 C18 1_555 1_555
C20 C19 1_555 1_555
C21 C20 1_555 1_555
C22 C20 1_555 1_555
H11 C21 1_555 1_555
C23 C22 1_555 1_555
H12 C23 1_555 1_555
O8 C13 1_555 1_555
O18 C25 1_555 1_555
C25 C26 1_555 1_555
C26 C27 1_555 1_555
C27 H13 1_555 1_555
C28 C26 1_555 1_555
C29 C27 1_555 1_555
C30 C28 1_555 1_555
H14 C28 1_555 1_555
H15 C29 1_555 1_555
C31 C29 1_555 1_555
H16 C30 1_555 1_555
C32 C21 1_555 1_555
C33 C24 1_555 1_555
H17 C34 1_555 1_555
O26 C25 1_555 1_555
Zr6 O7 1_555 1_555
Zr7 O8 1_555 1_555
C18 C19 1_555 1_555
C22 C24 1_555 1_555
C30 C31 1_555 1_555
C31 C32 1_555 1_555
C32 C33 1_555 1_555
C33 C34 1_555 1_555
O4_2 Zr2_2 1_555 1_555
O5_2 Zr2_2 1_555 1_555
O13_2 Zr3_2 1_555 1_555
O14_2 Zr3_2 1_555 1_555
O20_2 Zr2_2 1_555 1_555
O21_2 Zr3_2 1_555 1_555
O22_2 Zr2_2 1_555 1_555
O23_2 Zr3_2 1_555 1_555
O25_2 Zr2_2 1_555 1_555
Zr3_2 O20_2 1_555 1_555
Zr9_2 O22_2 1_555 1_555
Zr11_2 O21_2 1_555 1_555
Zr1_2 O1_2 1_555 1_555
Zr2_3 O2_2 1_555 1_555
O1_2 C1_2 1_555 1_555
O2_2 Zr1_2 1_555 1_555
O3_2 Zr1_2 1_555 1_555
O4_3 Zr2_3 1_555 1_555
O5_3 Zr2_3 1_555 1_555
O6_2 C1_2 1_555 1_555
C1_2 C2_2 1_555 1_555
C2_2 C3_2 1_555 1_555
C3_2 H1_2 1_555 1_555
C4_2 C2_2 1_555 1_555
C5_2 C3_2 1_555 1_555
C6_2 C4_2 1_555 1_555
H2_2 C4_2 1_555 1_555
H3_2 C5_2 1_555 1_555
C7_2 C5_2 1_555 1_555
H4_2 C6_2 1_555 1_555
C8_2 C7_2 1_555 1_555
C9_2 C8_2 1_555 1_555
C10_2 C8_2 1_555 1_555
H5_2 C9_2 1_555 1_555
C11_2 C10_2 1_555 1_555
C12_2 C10_2 1_555 1_555
H6_2 C11_2 1_555 1_555
O19 C35_2 1_555 1_555
C35_2 C36_2 1_555 1_555
C36_2 C37_2 1_555 1_555
C37_2 H18_2 1_555 1_555
C38_2 C36_2 1_555 1_555
C39_2 C37_2 1_555 1_555
C40_2 C38_2 1_555 1_555
H19_2 C38_2 1_555 1_555
H20_2 C39_2 1_555 1_555
C41_2 C39_2 1_555 1_555
H21_2 C40_2 1_555 1_555
C42_2 C9_2 1_555 1_555
C43_2 C12_2 1_555 1_555
H22_2 C44_2 1_555 1_555
O12_2 C35_2 1_555 1_555
Zr3_3 O2_2 1_555 1_555
O13_3 Zr3_3 1_555 1_555
O14_3 Zr3_3 1_555 1_555
O15_2 Zr1_2 1_555 1_555
O16_2 Zr1_2 1_555 1_555
Zr9_3 O3_2 1_555 1_555
Zr9 O12_2 1_555 1_555
Zr11_3 O6_2 1_555 1_555
O17_2 Zr1_2 1_555 1_555
O18_2 Zr1_2 1_555 1_555
O19_2 Zr1_2 1_555 1_555
O24_2 Zr2_3 1_555 1_555
O26_2 Zr3_3 1_555 1_555
Zr2_3 O3_2 1_555 1_555
C6_2 C7_2 1_555 1_555
C40_2 C41_2 1_555 1_555
C41_2 C42_2 1_555 1_555
C42_2 C43_2 1_555 1_555
C43_2 C44_2 1_555 1_555
Zr3_3 O16_2 1_555 1_555
O15_2 Zr9_3 1_555 1_555
O15_2 Zr11_3 1_555 1_555
O16_2 Zr11_3 1_555 1_555
O17 C13_2 1_555 1_555
C13_2 C14_2 1_555 1_555
C14_2 C15_2 1_555 1_555
C15_2 H7_2 1_555 1_555
C16_2 C14_2 1_555 1_555
C17_2 C15_2 1_555 1_555
C18_2 C16_2 1_555 1_555
H8_2 C16_2 1_555 1_555
H9_2 C17_2 1_555 1_555
C19_2 C17_2 1_555 1_555
H10_2 C18_2 1_555 1_555
C20_2 C19_2 1_555 1_555
C21_2 C20_2 1_555 1_555
C22_2 C20_2 1_555 1_555
H11_2 C21_2 1_555 1_555
C23_2 C22_2 1_555 1_555
H12_2 C23_2 1_555 1_555
O24 C13_2 1_555 1_555
O18_2 C25_2 1_555 1_555
C25_2 C26_2 1_555 1_555
C26_2 C27_2 1_555 1_555
C27_2 H13_2 1_555 1_555
C28_2 C26_2 1_555 1_555
C29_2 C27_2 1_555 1_555
C30_2 C28_2 1_555 1_555
H14_2 C28_2 1_555 1_555
H15_2 C29_2 1_555 1_555
C31_2 C29_2 1_555 1_555
H16_2 C30_2 1_555 1_555
C32_2 C21_2 1_555 1_555
C33_2 C24_2 1_555 1_555
H17_2 C34_2 1_555 1_555
O26_2 C25_2 1_555 1_555
C18_2 C19_2 1_555 1_555
C22_2 C24_2 1_555 1_555
C30_2 C31_2 1_555 1_555
C31_2 C32_2 1_555 1_555
C32_2 C33_2 1_555 1_555
C33_2 C34_2 1_555 1_555
Zr6 O1_3 1_555 1_555
Zr7 O2_3 1_555 1_555
O1_3 C1_3 1_555 1_555
O2_3 Zr6 1_555 1_555
O3_3 Zr6 1_555 1_555
O4_4 Zr7 1_555 1_555
O5_4 Zr7 1_555 1_555
O6_3 C1_3 1_555 1_555
C1_3 C2_3 1_555 1_555
C2_3 C3_3 1_555 1_555
C3_3 H1_3 1_555 1_555
C4_3 C2_3 1_555 1_555
C5_3 C3_3 1_555 1_555
C6_3 C4_3 1_555 1_555
H2_3 C4_3 1_555 1_555
H3_3 C5_3 1_555 1_555
C7_3 C5_3 1_555 1_555
H4_3 C6_3 1_555 1_555
C8_3 C7_3 1_555 1_555
C9_3 C8_3 1_555 1_555
C10_3 C8_3 1_555 1_555
H5_3 C9_3 1_555 1_555
C11_3 C10_3 1_555 1_555
C12_3 C10_3 1_555 1_555
H6_3 C11_3 1_555 1_555
O19_2 C35_3 1_555 1_555
C35_3 C36_3 1_555 1_555
C36_3 C37_3 1_555 1_555
C37_3 H18_3 1_555 1_555
C38_3 C36_3 1_555 1_555
C39_3 C37_3 1_555 1_555
C40_3 C38_3 1_555 1_555
H19_3 C38_3 1_555 1_555
H20_3 C39_3 1_555 1_555
C41_3 C39_3 1_555 1_555
H21_3 C40_3 1_555 1_555
C42_3 C9_3 1_555 1_555
C43_3 C12_3 1_555 1_555
H22_3 C44_3 1_555 1_555
O12_3 C35_3 1_555 1_555
Zr3_4 O2_3 1_555 1_555
O13_4 Zr3_4 1_555 1_555
O14_4 Zr3_4 1_555 1_555
O15_3 Zr6 1_555 1_555
O16_3 Zr6 1_555 1_555
Zr10 O3_3 1_555 1_555
Zr9_3 O12_3 1_555 1_555
Zr11_4 O6_3 1_555 1_555
O18_3 Zr6 1_555 1_555
O26_3 Zr3_4 1_555 1_555
Zr7 O3_3 1_555 1_555
C6_3 C7_3 1_555 1_555
C40_3 C41_3 1_555 1_555
C41_3 C42_3 1_555 1_555
C42_3 C43_3 1_555 1_555
C43_3 C44_3 1_555 1_555
Zr3_4 O16_3 1_555 1_555
O15_3 Zr10 1_555 1_555
O15_3 Zr11_4 1_555 1_555
O16_3 Zr11_4 1_555 1_555
O17_2 C13_3 1_555 1_555
C13_3 C14_3 1_555 1_555
C14_3 C15_3 1_555 1_555
C15_3 H7_3 1_555 1_555
C16_3 C14_3 1_555 1_555
C17_3 C15_3 1_555 1_555
C18_3 C16_3 1_555 1_555
H8_3 C16_3 1_555 1_555
H9_3 C17_3 1_555 1_555
C19_3 C17_3 1_555 1_555
H10_3 C18_3 1_555 1_555
C20_3 C19_3 1_555 1_555
C21_3 C20_3 1_555 1_555
C22_3 C20_3 1_555 1_555
H11_3 C21_3 1_555 1_555
C23_3 C22_3 1_555 1_555
H12_3 C23_3 1_555 1_555
O24_2 C13_3 1_555 1_555
O18_3 C25_3 1_555 1_555
C25_3 C26_3 1_555 1_555
C26_3 C27_3 1_555 1_555
C27_3 H13_3 1_555 1_555
C28_3 C26_3 1_555 1_555
C29_3 C27_3 1_555 1_555
C30_3 C28_3 1_555 1_555
H14_3 C28_3 1_555 1_555
H15_3 C29_3 1_555 1_555
C31_3 C29_3 1_555 1_555
H16_3 C30_3 1_555 1_555
C32_3 C21_3 1_555 1_555
C33_3 C24_3 1_555 1_555
H17_3 C34_3 1_555 1_555
O26_3 C25_3 1_555 1_555
C18_3 C19_3 1_555 1_555
C22_3 C24_3 1_555 1_555
C30_3 C31_3 1_555 1_555
C31_3 C32_3 1_555 1_555
C32_3 C33_3 1_555 1_555
C33_3 C34_3 1_555 1_555
O4_5 Zr7_2 1_555 1_555
O5_5 Zr7_2 1_555 1_555
O13_5 Zr3_5 1_555 1_555
O14_5 Zr3_5 1_555 1_555
O20_3 Zr7_2 1_555 1_555
O21_3 Zr3_5 1_555 1_555
O22_3 Zr7_2 1_555 1_555
O23_3 Zr3_5 1_555 1_555
O25_3 Zr7_2 1_555 1_555
Zr3_5 O20_3 1_555 1_555
Zr10_2 O22_3 1_555 1_555
Zr11_5 O21_3 1_555 1_555
Zr1_3 O1_4 1_555 1_555
O1_4 C1_4 1_555 1_555
O20 Zr1_3 1_555 1_555
O21 Zr1_3 1_555 1_555
O6_4 C1_4 1_555 1_555
C1_4 C2_4 1_555 1_555
C2_4 C3_4 1_555 1_555
C3_4 H1_4 1_555 1_555
C4_4 C2_4 1_555 1_555
C5_4 C3_4 1_555 1_555
C6_4 C4_4 1_555 1_555
H2_4 C4_4 1_555 1_555
H3_4 C5_4 1_555 1_555
C7_4 C5_4 1_555 1_555
H4_4 C6_4 1_555 1_555
C8_4 C7_4 1_555 1_555
C9_4 C8_4 1_555 1_555
C10_4 C8_4 1_555 1_555
H5_4 C9_4 1_555 1_555
C11_4 C10_4 1_555 1_555
C12_4 C10_4 1_555 1_555
H6_4 C11_4 1_555 1_555
O11_2 C35_4 1_555 1_555
C35_4 C36_4 1_555 1_555
C36_4 C37_4 1_555 1_555
C37_4 H18_4 1_555 1_555
C38_4 C36_4 1_555 1_555
C39_4 C37_4 1_555 1_555
C40_4 C38_4 1_555 1_555
H19_4 C38_4 1_555 1_555
H20_4 C39_4 1_555 1_555
C41_4 C39_4 1_555 1_555
H21_4 C40_4 1_555 1_555
C42_4 C9_4 1_555 1_555
C43_4 C12_4 1_555 1_555
H22_4 C44_4 1_555 1_555
O12_4 C35_4 1_555 1_555
O15_4 Zr1_3 1_555 1_555
O22 Zr1_3 1_555 1_555
Zr6_2 O11_2 1_555 1_555
Zr11_5 O12_4 1_555 1_555
Zr9 O6_4 1_555 1_555
O17_3 Zr1_3 1_555 1_555
O18_4 Zr1_3 1_555 1_555
O19_3 Zr1_3 1_555 1_555
C6_4 C7_4 1_555 1_555
C40_4 C41_4 1_555 1_555
C41_4 C42_4 1_555 1_555
C42_4 C43_4 1_555 1_555
C43_4 C44_4 1_555 1_555
O15_4 Zr11 1_555 1_555
O15_4 Zr9 1_555 1_555
O7_2 C13_4 1_555 1_555
C13_4 C14_4 1_555 1_555
C14_4 C15_4 1_555 1_555
C15_4 H7_4 1_555 1_555
C16_4 C14_4 1_555 1_555
C17_4 C15_4 1_555 1_555
C18_4 C16_4 1_555 1_555
H8_4 C16_4 1_555 1_555
H9_4 C17_4 1_555 1_555
C19_4 C17_4 1_555 1_555
H10_4 C18_4 1_555 1_555
C20_4 C19_4 1_555 1_555
C21_4 C20_4 1_555 1_555
C22_4 C20_4 1_555 1_555
H11_4 C21_4 1_555 1_555
C23_4 C22_4 1_555 1_555
H12_4 C23_4 1_555 1_555
O23_3 C13_4 1_555 1_555
O18_4 C25_4 1_555 1_555
C25_4 C26_4 1_555 1_555
C26_4 C27_4 1_555 1_555
C27_4 H13_4 1_555 1_555
C28_4 C26_4 1_555 1_555
C29_4 C27_4 1_555 1_555
C30_4 C28_4 1_555 1_555
H14_4 C28_4 1_555 1_555
H15_4 C29_4 1_555 1_555
C31_4 C29_4 1_555 1_555
H16_4 C30_4 1_555 1_555
C32_4 C21_4 1_555 1_555
C33_4 C24_4 1_555 1_555
H17_4 C34_4 1_555 1_555
O25 C25_4 1_555 1_555
Zr6_2 O7_2 1_555 1_555
C18_4 C19_4 1_555 1_555
C22_4 C24_4 1_555 1_555
C30_4 C31_4 1_555 1_555
C31_4 C32_4 1_555 1_555
C32_4 C33_4 1_555 1_555
C33_4 C34_4 1_555 1_555
Zr1_4 O1_5 1_555 1_555
O1_5 C1_5 1_555 1_555
O20_2 Zr1_4 1_555 1_555
O21_2 Zr1_4 1_555 1_555
O6_5 C1_5 1_555 1_555
C1_5 C2_5 1_555 1_555
C2_5 C3_5 1_555 1_555
C3_5 H1_5 1_555 1_555
C4_5 C2_5 1_555 1_555
C5_5 C3_5 1_555 1_555
C6_5 C4_5 1_555 1_555
H2_5 C4_5 1_555 1_555
H3_5 C5_5 1_555 1_555
C7_5 C5_5 1_555 1_555
H4_5 C6_5 1_555 1_555
C8_5 C7_5 1_555 1_555
C9_5 C8_5 1_555 1_555
C10_5 C8_5 1_555 1_555
H5_5 C9_5 1_555 1_555
C11_5 C10_5 1_555 1_555
C12_5 C10_5 1_555 1_555
H6_5 C11_5 1_555 1_555
O19_3 C35_5 1_555 1_555
C35_5 C36_5 1_555 1_555
C36_5 C37_5 1_555 1_555
C37_5 H18_5 1_555 1_555
C38_5 C36_5 1_555 1_555
C39_5 C37_5 1_555 1_555
C40_5 C38_5 1_555 1_555
H19_5 C38_5 1_555 1_555
H20_5 C39_5 1_555 1_555
C41_5 C39_5 1_555 1_555
H21_5 C40_5 1_555 1_555
C42_5 C9_5 1_555 1_555
C43_5 C12_5 1_555 1_555
H22_5 C44_5 1_555 1_555
O12_5 C35_5 1_555 1_555
O15_5 Zr1_4 1_555 1_555
O22_2 Zr1_4 1_555 1_555
Zr11 O12_5 1_555 1_555
Zr9_2 O6_5 1_555 1_555
O17_4 Zr1_4 1_555 1_555
O18_5 Zr1_4 1_555 1_555
O19_4 Zr1_4 1_555 1_555
C6_5 C7_5 1_555 1_555
C40_5 C41_5 1_555 1_555
C41_5 C42_5 1_555 1_555
C42_5 C43_5 1_555 1_555
C43_5 C44_5 1_555 1_555
O15_5 Zr11_2 1_555 1_555
O15_5 Zr9_2 1_555 1_555
O17_3 C13_5 1_555 1_555
C13_5 C14_5 1_555 1_555
C14_5 C15_5 1_555 1_555
C15_5 H7_5 1_555 1_555
C16_5 C14_5 1_555 1_555
C17_5 C15_5 1_555 1_555
C18_5 C16_5 1_555 1_555
H8_5 C16_5 1_555 1_555
H9_5 C17_5 1_555 1_555
C19_5 C17_5 1_555 1_555
H10_5 C18_5 1_555 1_555
C20_5 C19_5 1_555 1_555
C21_5 C20_5 1_555 1_555
C22_5 C20_5 1_555 1_555
H11_5 C21_5 1_555 1_555
C23_5 C22_5 1_555 1_555
H12_5 C23_5 1_555 1_555
O23 C13_5 1_555 1_555
O18_5 C25_5 1_555 1_555
C25_5 C26_5 1_555 1_555
C26_5 C27_5 1_555 1_555
C27_5 H13_5 1_555 1_555
C28_5 C26_5 1_555 1_555
C29_5 C27_5 1_555 1_555
C30_5 C28_5 1_555 1_555
H14_5 C28_5 1_555 1_555
H15_5 C29_5 1_555 1_555
C31_5 C29_5 1_555 1_555
H16_5 C30_5 1_555 1_555
C32_5 C21_5 1_555 1_555
C33_5 C24_5 1_555 1_555
H17_5 C34_5 1_555 1_555
O25_2 C25_5 1_555 1_555
C18_5 C19_5 1_555 1_555
C22_5 C24_5 1_555 1_555
C30_5 C31_5 1_555 1_555
C31_5 C32_5 1_555 1_555
C32_5 C33_5 1_555 1_555
C33_5 C34_5 1_555 1_555
Zr6_2 O1_6 1_555 1_555
O1_6 C1_6 1_555 1_555
O20_3 Zr6_2 1_555 1_555
O21_3 Zr6_2 1_555 1_555
O6_6 C1_6 1_555 1_555
C1_6 C2_6 1_555 1_555
C2_6 C3_6 1_555 1_555
C3_6 H1_6 1_555 1_555
C4_6 C2_6 1_555 1_555
C5_6 C3_6 1_555 1_555
C6_6 C4_6 1_555 1_555
H2_6 C4_6 1_555 1_555
H3_6 C5_6 1_555 1_555
C7_6 C5_6 1_555 1_555
H4_6 C6_6 1_555 1_555
C8_6 C7_6 1_555 1_555
C9_6 C8_6 1_555 1_555
C10_6 C8_6 1_555 1_555
H5_6 C9_6 1_555 1_555
C11_6 C10_6 1_555 1_555
C12_6 C10_6 1_555 1_555
H6_6 C11_6 1_555 1_555
O19_4 C35_6 1_555 1_555
C35_6 C36_6 1_555 1_555
C36_6 C37_6 1_555 1_555
C37_6 H18_6 1_555 1_555
C38_6 C36_6 1_555 1_555
C39_6 C37_6 1_555 1_555
C40_6 C38_6 1_555 1_555
H19_6 C38_6 1_555 1_555
H20_6 C39_6 1_555 1_555
C41_6 C39_6 1_555 1_555
H21_6 C40_6 1_555 1_555
C42_6 C9_6 1_555 1_555
C43_6 C12_6 1_555 1_555
H22_6 C44_6 1_555 1_555
O12_6 C35_6 1_555 1_555
O15_6 Zr6_2 1_555 1_555
O22_3 Zr6_2 1_555 1_555
Zr11_2 O12_6 1_555 1_555
Zr10_2 O6_6 1_555 1_555
O18_6 Zr6_2 1_555 1_555
C6_6 C7_6 1_555 1_555
C40_6 C41_6 1_555 1_555
C41_6 C42_6 1_555 1_555
C42_6 C43_6 1_555 1_555
C43_6 C44_6 1_555 1_555
O15_6 Zr11_5 1_555 1_555
O15_6 Zr10_2 1_555 1_555
O17_4 C13_6 1_555 1_555
C13_6 C14_6 1_555 1_555
C14_6 C15_6 1_555 1_555
C15_6 H7_6 1_555 1_555
C16_6 C14_6 1_555 1_555
C17_6 C15_6 1_555 1_555
C18_6 C16_6 1_555 1_555
H8_6 C16_6 1_555 1_555
H9_6 C17_6 1_555 1_555
C19_6 C17_6 1_555 1_555
H10_6 C18_6 1_555 1_555
C20_6 C19_6 1_555 1_555
C21_6 C20_6 1_555 1_555
C22_6 C20_6 1_555 1_555
H11_6 C21_6 1_555 1_555
C23_6 C22_6 1_555 1_555
H12_6 C23_6 1_555 1_555
O23_2 C13_6 1_555 1_555
O18_6 C25_6 1_555 1_555
C25_6 C26_6 1_555 1_555
C26_6 C27_6 1_555 1_555
C27_6 H13_6 1_555 1_555
C28_6 C26_6 1_555 1_555
C29_6 C27_6 1_555 1_555
C30_6 C28_6 1_555 1_555
H14_6 C28_6 1_555 1_555
H15_6 C29_6 1_555 1_555
C31_6 C29_6 1_555 1_555
H16_6 C30_6 1_555 1_555
C32_6 C21_6 1_555 1_555
C33_6 C24_6 1_555 1_555
H17_6 C34_6 1_555 1_555
O25_3 C25_6 1_555 1_555
C18_6 C19_6 1_555 1_555
C22_6 C24_6 1_555 1_555
C30_6 C31_6 1_555 1_555
C31_6 C32_6 1_555 1_555
C32_6 C33_6 1_555 1_555
C33_6 C34_6 1_555 1_555
O4_6 Zr9 1_555 1_555
O5_6 Zr9 1_555 1_555
O13_6 Zr11 1_555 1_555
O14_6 Zr11 1_555 1_555
O4_7 Zr10 1_555 1_555
O5_7 Zr10 1_555 1_555
O13_7 Zr11_4 1_555 1_555
O14_7 Zr11_4 1_555 1_555
O4_8 Zr10_2 1_555 1_555
O5_8 Zr10_2 1_555 1_555
O13_8 Zr11_5 1_555 1_555
O14_8 Zr11_5 1_555 1_555
O4_9 Zr9_2 1_555 1_555
O5_9 Zr9_2 1_555 1_555
O13_9 Zr11_2 1_555 1_555
O14_9 Zr11_2 1_555 1_555
O4_10 Zr9_3 1_555 1_555
O5_10 Zr9_3 1_555 1_555
O13_10 Zr11_3 1_555 1_555
O14_10 Zr11_3 1_555 1_555

#END
