
###############################################################################
#
# This file contains modified crystal structure data generated from the
# MOF subset of the Cambridge Structural Database (CSD) v543 
# hosted by the Cambridge Crystallographic Data Centre (CCDC).
#
# This work is licensed under the Creative Commons
# Attribution-NonCommercial-ShareAlike 4.0 International License.
# To view a copy of this license, visit
# http://creativecommons.org/licenses/by-nc-sa/4.0/
# or send a letter to
# Creative Commons, PO Box 1866, Mountain View, CA 94042, USA.
#
# CIF created using the CSD Python API on 29 September 2022
# The structure has been converted into the P1 space group
# The structure has a 3D framework
# The original CSD entry MAJHUC is in the triclinic crystal system
# The framework has been calculated to contain at least 10.0% void space
# The void calculation uses a probe of radius 1.32A, grid spacing 0.4
#
###############################################################################

data_MAJHUC
_chemical_formula_moiety         '(C98 H100 Mn8 N12 O21)n'
_symmetry_cell_setting           triclinic
_symmetry_space_group_name_H-M   'P 1'
_symmetry_Int_Tables_number      1
_space_group_name_Hall           'P 1'
loop_
_symmetry_equiv_pos_site_id
_symmetry_equiv_pos_as_xyz
1 x,y,z
_cell_length_a                   11.3475(5)
_cell_length_b                   11.786(1)
_cell_length_c                   21.203(2)
_cell_angle_alpha                96.259(8)
_cell_angle_beta                 90.978(6)
_cell_angle_gamma                108.258(5)
_cell_volume                     2672.96
loop_
_atom_site_label
_atom_site_type_symbol
_atom_site_fract_x
_atom_site_fract_y
_atom_site_fract_z
Mn5 Mn 0.0000 0.0000 0.5000
Mn6 Mn 0.13715(3) 0.47770(3) 0.240595(16)
N10 N 0.06290(18) 0.63613(19) 0.23059(10)
N15 N 0.33022(18) 0.61899(18) 0.24748(9)
O13 O 0.12368(17) 0.50655(15) 0.34214(8)
O18 O 0.22499(17) 0.34349(16) 0.26186(8)
H51 H 0.2149 0.2927 0.2413
H52 H 0.2071 0.3204 0.3031
O20 O 0.15044(15) 0.44396(16) 0.13954(7)
C53 C 0.0269(2) 0.6909(2) 0.28218(13)
H57 H 0.0293 0.6609 0.3208
C74 C 0.0190(3) 0.7809(3) 0.17024(16)
H73 H 0.0180 0.8095 0.1311
C81 C 0.0597(3) 0.6827(3) 0.17546(14)
H82 H 0.0860 0.6475 0.1393
Mn5_2 Mn 0.0000 1.0000 0.5000
C27 C 0.7928(2) 0.0714(2) 0.58202(13)
H26 H 0.7931 0.1174 0.5490
C28 C 0.7194(2) 0.0817(2) 0.63241(13)
H27 H 0.6727 0.1341 0.6330
C29 C 0.7160(2) 0.0126(2) 0.68240(12)
C34 C 0.6387(2) 0.0190(3) 0.73913(13)
H34 H 0.6810 0.0061 0.7765
H35 H 0.6301 0.0986 0.7465
Mn5_3 Mn 1.0000 0.0000 0.5000
N8 N 0.13648(19) 0.00126(18) 0.42198(10)
N11 N 0.93779(19) 0.34070(19) 0.23237(10)
O15 O 0.02560(16) 0.19191(14) 0.49797(8)
O21 O 0.15658(17) 0.04467(16) 0.57398(8)
H53 H 0.2361 0.0900 0.5619
C57 C 0.3869(2) 0.6651(2) 0.19686(11)
H60 H 0.3414 0.6463 0.1581
C60 C 0.5097(2) 0.7394(2) 0.19879(12)
H63 H 0.5445 0.7691 0.1622
C61 C 0.5795(2) 0.7686(2) 0.25593(12)
C62 C 0.5198(2) 0.7233(2) 0.30907(12)
H64 H 0.5624 0.7428 0.3486
C63 C 0.1415(2) 0.0693(2) 0.37476(13)
H65 H 0.0954 0.1223 0.3771
C65 C 0.9864(2) 0.7903(2) 0.28052(14)
H66 H 0.9637 0.8260 0.3176
C66 C 0.9796(2) 0.8367(2) 0.22301(15)
C68 C 0.3984(2) 0.6500(2) 0.30332(12)
H67 H 0.3614 0.6202 0.3395
C69 C 0.7172(2) 0.8411(3) 0.26299(14)
H68 H 0.7608 0.7921 0.2808
H69 H 0.7271 0.9108 0.2939
C70 C 0.8588(2) 0.3329(3) 0.18299(13)
H70 H 0.8863 0.3844 0.1522
C71 C 0.7387(2) 0.2528(3) 0.17500(13)
H71 H 0.6885 0.2510 0.1395
C72 C 0.6937(2) 0.1750(2) 0.22064(12)
C73 C 0.7746(2) 0.1849(3) 0.27277(14)
H72 H 0.7485 0.1368 0.3051
C75 C 0.7825(2) 0.8853(2) 0.20416(14)
H74 H 0.7632 0.8192 0.1701
H75 H 0.7519 0.9473 0.1904
C82 C 0.2123(3) 0.0641(2) 0.32254(13)
H83 H 0.2119 0.1122 0.2906
C84 C 0.8935(2) 0.2661(2) 0.27662(13)
H86 H 0.9458 0.2695 0.3115
C85 C 0.5638(2) 0.0854(3) 0.21229(14)
H87 H 0.5701 0.0068 0.1974
H88 H 0.5182 0.1079 0.1793
C90 C 0.9251(2) 0.9367(3) 0.21723(18)
H92 H 0.9440 0.9917 0.2562
H93 H 0.9622 0.9813 0.1828
C93 C 0.4896(3) 0.0745(3) 0.27062(17)
H97 H 0.5357 0.0540 0.3041
H98 H 0.4803 0.1522 0.2848
Mn11 Mn 0.5000 0.5000 0.0000
O22 O 0.0896(2) 0.26740(19) 0.07721(10)
O24 O 0.31887(15) 0.50349(18) 0.02765(9)
O26 O 0.32552(19) 0.6953(2) 0.03500(13)
C64 C 0.1036(2) 0.3779(2) 0.08851(11)
C86 C 0.2691(2) 0.5848(3) 0.02779(11)
C97 C 0.1283(2) 0.5431(2) 0.01612(11)
C98 C 0.0537(2) 0.4382(2) 0.03926(11)
N2 N 0.86352(19) 0.99874(18) 0.57802(10)
N4 N 0.06221(19) 0.65930(19) 0.76763(10)
N6 N 0.66978(18) 0.38101(18) 0.75252(9)
O4 O 0.11369(19) 0.80813(15) 0.57841(9)
C1 C 0.0321(2) 0.75687(19) 0.53514(11)
C3 C 0.0077(2) 0.62213(19) 0.51734(10)
C8 C 0.6131(2) 0.3349(2) 0.80314(11)
H10 H 0.6586 0.3537 0.8419
C11 C 0.4903(2) 0.2606(2) 0.80121(12)
H13 H 0.4555 0.2309 0.8378
C12 C 0.4205(2) 0.2314(2) 0.74407(12)
C13 C 0.4802(2) 0.2767(2) 0.69093(12)
H14 H 0.4376 0.2572 0.6514
C14 C 0.8585(2) 0.9307(2) 0.62524(13)
H15 H 0.9046 0.8777 0.6229
C16 C 0.0136(2) 0.2097(2) 0.71948(14)
H16 H 0.0363 0.1740 0.6824
C17 C 0.0204(2) 0.1633(2) 0.77699(15)
C19 C 0.6016(2) 0.3500(2) 0.69668(12)
H17 H 0.6386 0.3798 0.6605
C20 C 0.2828(2) 0.1589(3) 0.73701(14)
H18 H 0.2392 0.2079 0.7192
H19 H 0.2729 0.0892 0.7061
C21 C 0.1412(2) 0.6671(3) 0.81701(13)
H20 H 0.1137 0.6156 0.8478
C22 C 0.2613(2) 0.7472(3) 0.82500(13)
H21 H 0.3115 0.7490 0.8605
C23 C 0.3063(2) 0.8250(2) 0.77936(12)
C24 C 0.2254(2) 0.8151(3) 0.72723(14)
H22 H 0.2515 0.8632 0.6949
C26 C 0.2175(2) 0.1147(2) 0.79584(14)
H24 H 0.2368 0.1808 0.8299
H25 H 0.2481 0.0527 0.8096
C33 C 0.7877(3) 0.9359(2) 0.67746(13)
H33 H 0.7881 0.8878 0.7094
C35 C 0.1065(2) 0.7339(2) 0.72338(13)
H36 H 0.0542 0.7305 0.6885
C36 C 0.4362(2) 0.9146(3) 0.78771(14)
H37 H 0.4299 0.9932 0.8026
H38 H 0.4818 0.8921 0.8207
C40 C 0.0598(2) 0.5867(2) 0.46234(10)
H41 H 0.0998 0.6447 0.4367
C41 C 0.0749(2) 0.0633(3) 0.78277(18)
H42 H 0.0560 0.0083 0.7438
H43 H 0.0378 0.0187 0.8172
C43 C 0.0734(2) 0.6036(2) 0.97787(11)
H46 H 0.1228 0.6739 0.9633
C44 C 0.5104(3) 0.9255(3) 0.72938(17)
H47 H 0.4643 0.9460 0.6959
H48 H 0.5197 0.8478 0.7152
Mn5_4 Mn 1.0000 1.0000 0.5000
Mn7 Mn 0.86285(3) 0.52230(3) 0.759405(16)
Mn11_2 Mn 0.5000 0.5000 1.0000
O16 O 0.15322(18) 0.34796(16) 0.38138(8)
H54 H 0.1669 0.9650 0.5863
C51 C 0.1154(2) 0.4371(2) 0.38513(10)
C56 C 0.0539(2) 0.46669(19) 0.44453(10)
C76 C 0.2072(2) 0.9286(2) 0.41798(13)
H76 H 0.2069 0.8826 0.4510
C77 C 0.2806(2) 0.9183(2) 0.36759(13)
H77 H 0.3273 0.8659 0.3670
C78 C 0.2840(2) 0.9874(2) 0.31760(12)
C83 C 0.3613(2) 0.9810(3) 0.26087(13)
H84 H 0.3190 0.9939 0.2235
H85 H 0.3699 0.9014 0.2535
H4 H 0.8331 0.0350 0.4137
N1 N 0.56090(19) 0.4930(2) 0.10259(10)
N5 N 0.3800(3) 0.1867(3) 0.52171(13)
O9 O 0.5652(2) 0.6995(2) 0.01229(12)
H5 H 0.5095 0.7219 0.0285
H6 H 0.6416 0.7207 0.0150
C5 C 0.4808(2) 0.4372(3) 0.14377(13)
H8 H 0.3985 0.3990 0.1294
C6 C 0.5137(2) 0.4333(2) 0.20672(13)
H9 H 0.4543 0.3926 0.2331
C9 C 0.6792(2) 0.5481(2) 0.12535(12)
H11 H 0.7368 0.5879 0.0980
C10 C 0.7190(2) 0.5483(2) 0.18712(12)
H12 H 0.8018 0.5873 0.2002
C18 C 0.6358(2) 0.4904(2) 0.23033(12)
C30 C 0.6820(3) 0.4913(3) 0.29802(12)
H28 H 0.7130 0.5743 0.3175
H29 H 0.7518 0.4603 0.2965
C31 C 0.5881(3) 0.4200(3) 0.34079(13)
H30 H 0.5525 0.3380 0.3205
H31 H 0.5213 0.4548 0.3457
C38 C 0.5812(3) 0.2505(4) 0.47674(17)
H39 H 0.6589 0.2405 0.4725
C39 C 0.4326(3) 0.3451(3) 0.45541(16)
H40 H 0.4074 0.4016 0.4362
C42 C 0.6437(3) 0.4176(3) 0.40619(15)
H44 H 0.6730 0.4989 0.4280
H45 H 0.7148 0.3891 0.4013
C45 C 0.3515(3) 0.2688(3) 0.49249(16)
H49 H 0.2727 0.2760 0.4970
C46 C 0.4941(4) 0.1782(4) 0.51318(18)
H50 H 0.5163 0.1205 0.5328
C47 C 0.5511(3) 0.3372(3) 0.44698(13)
C92 C 0.9266(2) 0.3964(2) 0.02213(11)
H96 H 0.8772 0.3261 0.0367
N3 N 0.93710(18) 0.36387(19) 0.76941(10)
O1 O 0.87632(17) 0.49345(15) 0.65786(8)
O2 O 0.97440(16) 0.80809(14) 0.50203(8)
O3 O 0.84678(18) 0.65204(16) 0.61862(8)
O5 O 0.77501(17) 0.65651(16) 0.73814(8)
H1 H 0.7851 0.7073 0.7587
H2 H 0.7929 0.6796 0.6969
O6 O 0.84956(15) 0.55604(16) 0.86046(7)
O7 O 0.84342(17) 0.95533(16) 0.42602(8)
H3 H 0.7639 0.9100 0.4381
O8 O 0.9104(2) 0.73260(19) 0.92279(10)
O10 O 0.68113(15) 0.49651(18) 0.97235(9)
O11 O 0.67448(19) 0.3047(2) 0.96500(13)
C2 C 0.8846(2) 0.5629(2) 0.61487(10)
C4 C 0.9731(2) 0.3091(2) 0.71782(13)
H7 H 0.9707 0.3391 0.6792
C7 C 0.9461(2) 0.53331(19) 0.55547(10)
C15 C 0.8964(2) 0.6221(2) 0.91149(11)
C25 C 0.9810(3) 0.2191(3) 0.82976(16)
H23 H 0.9820 0.1905 0.8689
C32 C 0.9403(3) 0.3173(3) 0.82454(14)
H32 H 0.9140 0.3525 0.8607
C37 C 0.7309(2) 0.4152(3) 0.97221(11)
C48 C 0.8717(2) 0.4569(2) 0.98388(11)
C49 C 0.9463(2) 0.5618(2) 0.96074(11)
N7 N 0.43910(19) 0.5070(2) 0.89741(10)
N12 N 0.6200(3) 0.8133(3) 0.47829(13)
O17 O 0.88631(19) 0.19187(15) 0.42159(9)
O23 O 0.4348(2) 0.3005(2) 0.98771(12)
H55 H 0.4905 0.2781 0.9715
H56 H 0.3584 0.2793 0.9850
C50 C 0.9679(2) 0.24313(19) 0.46486(11)
C52 C 0.9923(2) 0.37787(19) 0.48266(10)
C54 C 0.5192(2) 0.5628(3) 0.85623(13)
H58 H 0.6015 0.6010 0.8706
C55 C 0.4863(2) 0.5667(2) 0.79328(13)
H59 H 0.5457 0.6074 0.7669
C58 C 0.3208(2) 0.4519(2) 0.87465(12)
H61 H 0.2632 0.4121 0.9020
C59 C 0.2810(2) 0.4517(2) 0.81288(12)
H62 H 0.1982 0.4127 0.7998
C67 C 0.3642(2) 0.5096(2) 0.76967(12)
C79 C 0.3180(3) 0.5087(3) 0.70198(12)
H78 H 0.2870 0.4257 0.6825
H79 H 0.2482 0.5397 0.7035
C80 C 0.4119(3) 0.5800(3) 0.65921(13)
H80 H 0.4475 0.6620 0.6795
H81 H 0.4787 0.5452 0.6543
C87 C 0.4188(3) 0.7495(4) 0.52326(17)
H89 H 0.3411 0.7595 0.5275
C88 C 0.5674(3) 0.6549(3) 0.54459(16)
H90 H 0.5926 0.5984 0.5638
C89 C 0.9402(2) 0.4133(2) 0.53766(10)
H91 H 0.9002 0.3553 0.5633
C91 C 0.3563(3) 0.5824(3) 0.59381(15)
H94 H 0.3270 0.5011 0.5720
H95 H 0.2852 0.6109 0.5987
C94 C 0.6485(3) 0.7312(3) 0.50751(16)
H99 H 0.7273 0.7240 0.5030
C95 C 0.5059(4) 0.8218(4) 0.48682(18)
H100 H 0.4837 0.8795 0.4672
C96 C 0.4489(3) 0.6628(3) 0.55302(13)
loop_
_geom_bond_atom_site_label_1
_geom_bond_atom_site_label_2
_geom_bond_site_symmetry_1
_geom_bond_site_symmetry_2
Mn6 N10 1_555 1_555
N10 C53 1_555 1_555
N15 Mn6 1_555 1_555
O13 Mn6 1_555 1_555
O18 Mn6 1_555 1_555
H51 O18 1_555 1_555
H52 O18 1_555 1_555
O20 Mn6 1_555 1_555
C53 H57 1_555 1_555
H73 C74 1_555 1_555
C81 N10 1_555 1_555
H82 C81 1_555 1_555
C74 C81 1_555 1_555
H26 C27 1_555 1_555
C28 C27 1_555 1_555
H27 C28 1_555 1_555
C29 C28 1_555 1_555
C34 C29 1_555 1_555
H34 C34 1_555 1_555
H35 C34 1_555 1_555
N8 Mn5 1_555 1_555
N15 C57 1_555 1_555
O15 Mn5 1_555 1_555
O21 Mn5 1_555 1_555
H53 O21 1_555 1_555
C57 H60 1_555 1_555
C60 C57 1_555 1_555
H63 C60 1_555 1_555
C61 C60 1_555 1_555
C62 C61 1_555 1_555
H64 C62 1_555 1_555
C63 N8 1_555 1_555
H65 C63 1_555 1_555
H66 C65 1_555 1_555
C66 C65 1_555 1_555
C68 N15 1_555 1_555
H67 C68 1_555 1_555
C69 C61 1_555 1_555
H68 C69 1_555 1_555
H69 C69 1_555 1_555
C70 N11 1_555 1_555
H70 C70 1_555 1_555
C71 C70 1_555 1_555
H71 C71 1_555 1_555
C72 C71 1_555 1_555
C73 C72 1_555 1_555
H72 C73 1_555 1_555
C75 C69 1_555 1_555
H74 C75 1_555 1_555
H75 C75 1_555 1_555
C82 C63 1_555 1_555
H83 C82 1_555 1_555
C84 N11 1_555 1_555
H86 C84 1_555 1_555
C85 C72 1_555 1_555
H87 C85 1_555 1_555
H88 C85 1_555 1_555
C90 C66 1_555 1_555
H92 C90 1_555 1_555
H93 C90 1_555 1_555
H97 C93 1_555 1_555
H98 C93 1_555 1_555
C62 C68 1_555 1_555
C73 C84 1_555 1_555
C75 C90 1_555 1_555
C85 C93 1_555 1_555
Mn11 O24 1_555 1_555
O20 C64 1_555 1_555
O22 C64 1_555 1_555
O24 C86 1_555 1_555
O26 C86 1_555 1_555
C64 C98 1_555 1_555
C86 C97 1_555 1_555
C97 C98 1_555 1_555
N2 C14 1_555 1_555
N6 C8 1_555 1_555
O4 C1 1_555 1_555
C1 C3 1_555 1_555
C8 H10 1_555 1_555
C11 C8 1_555 1_555
H13 C11 1_555 1_555
C12 C11 1_555 1_555
C13 C12 1_555 1_555
H14 C13 1_555 1_555
C14 H15 1_555 1_555
H16 C16 1_555 1_555
C17 C16 1_555 1_555
C19 N6 1_555 1_555
H17 C19 1_555 1_555
C20 C12 1_555 1_555
H18 C20 1_555 1_555
H19 C20 1_555 1_555
C21 N4 1_555 1_555
H20 C21 1_555 1_555
C22 C21 1_555 1_555
H21 C22 1_555 1_555
C23 C22 1_555 1_555
C24 C23 1_555 1_555
H22 C24 1_555 1_555
C26 C20 1_555 1_555
H24 C26 1_555 1_555
H25 C26 1_555 1_555
C33 C14 1_555 1_555
H33 C33 1_555 1_555
C35 N4 1_555 1_555
H36 C35 1_555 1_555
C36 C23 1_555 1_555
H37 C36 1_555 1_555
H38 C36 1_555 1_555
C40 C3 1_555 1_555
H41 C40 1_555 1_555
C41 C17 1_555 1_555
H42 C41 1_555 1_555
H43 C41 1_555 1_555
C43 H46 1_555 1_555
H47 C44 1_555 1_555
H48 C44 1_555 1_555
Mn5_4 N2 1_555 1_555
Mn7 N6 1_555 1_555
O13 C51 1_555 1_555
O16 C51 1_555 1_555
C51 C56 1_555 1_555
C56 C40 1_555 1_555
H76 C76 1_555 1_555
C77 C76 1_555 1_555
H77 C77 1_555 1_555
C78 C77 1_555 1_555
C83 C78 1_555 1_555
H84 C83 1_555 1_555
H85 C83 1_555 1_555
C13 C19 1_555 1_555
C24 C35 1_555 1_555
C26 C41 1_555 1_555
C36 C44 1_555 1_555
Mn11 N1 1_555 1_555
N1 C5 1_555 1_555
N5 C45 1_555 1_555
O9 Mn11 1_555 1_555
H5 O9 1_555 1_555
H6 O9 1_555 1_555
C5 H8 1_555 1_555
C6 C5 1_555 1_555
H9 C6 1_555 1_555
C9 N1 1_555 1_555
H11 C9 1_555 1_555
C10 C9 1_555 1_555
H12 C10 1_555 1_555
C18 C6 1_555 1_555
C30 C18 1_555 1_555
H28 C30 1_555 1_555
H29 C30 1_555 1_555
C31 C30 1_555 1_555
H30 C31 1_555 1_555
H31 C31 1_555 1_555
C38 H39 1_555 1_555
C39 H40 1_555 1_555
C42 C31 1_555 1_555
H44 C42 1_555 1_555
H45 C42 1_555 1_555
C45 C39 1_555 1_555
H49 C45 1_555 1_555
C46 N5 1_555 1_555
H50 C46 1_555 1_555
C47 C38 1_555 1_555
H96 C92 1_555 1_555
C10 C18 1_555 1_555
C38 C46 1_555 1_555
C39 C47 1_555 1_555
C42 C47 1_555 1_555
Mn5_4 O2 1_555 1_555
Mn7 N3 1_555 1_555
N3 C4 1_555 1_555
O1 Mn7 1_555 1_555
O3 C2 1_555 1_555
O5 Mn7 1_555 1_555
H1 O5 1_555 1_555
H2 O5 1_555 1_555
O6 Mn7 1_555 1_555
O7 Mn5_4 1_555 1_555
H3 O7 1_555 1_555
O8 C15 1_555 1_555
O10 Mn11_2 1_555 1_555
O11 C37 1_555 1_555
C2 O1 1_555 1_555
C4 H7 1_555 1_555
C7 C2 1_555 1_555
C15 O6 1_555 1_555
H23 C25 1_555 1_555
C32 N3 1_555 1_555
H32 C32 1_555 1_555
C37 O10 1_555 1_555
C48 C37 1_555 1_555
C49 C15 1_555 1_555
N7 Mn11_2 1_555 1_555
N12 C94 1_555 1_555
O17 C50 1_555 1_555
O23 Mn11_2 1_555 1_555
H55 O23 1_555 1_555
H56 O23 1_555 1_555
C50 C52 1_555 1_555
C54 N7 1_555 1_555
H58 C54 1_555 1_555
C55 C54 1_555 1_555
H59 C55 1_555 1_555
C58 N7 1_555 1_555
H61 C58 1_555 1_555
C59 C58 1_555 1_555
H62 C59 1_555 1_555
C67 C55 1_555 1_555
C79 C67 1_555 1_555
H78 C79 1_555 1_555
H79 C79 1_555 1_555
C80 C79 1_555 1_555
H80 C80 1_555 1_555
H81 C80 1_555 1_555
C87 H89 1_555 1_555
C88 H90 1_555 1_555
C89 C7 1_555 1_555
H91 C89 1_555 1_555
C91 C80 1_555 1_555
H94 C91 1_555 1_555
H95 C91 1_555 1_555
C94 C88 1_555 1_555
H99 C94 1_555 1_555
C95 N12 1_555 1_555
H100 C95 1_555 1_555
C96 C87 1_555 1_555
C25 C32 1_555 1_555
C48 C49 1_555 1_555
C52 C89 1_555 1_555
C59 C67 1_555 1_555
C87 C95 1_555 1_555
C88 C96 1_555 1_555
C91 C96 1_555 1_555

#END
