
###############################################################################
#
# This file contains modified crystal structure data generated from the
# MOF subset of the Cambridge Structural Database (CSD) v543 
# hosted by the Cambridge Crystallographic Data Centre (CCDC).
#
# This work is licensed under the Creative Commons
# Attribution-NonCommercial-ShareAlike 4.0 International License.
# To view a copy of this license, visit
# http://creativecommons.org/licenses/by-nc-sa/4.0/
# or send a letter to
# Creative Commons, PO Box 1866, Mountain View, CA 94042, USA.
#
# CIF created using the CSD Python API on 29 September 2022
# The structure has been converted into the P1 space group
# The structure has a 3D framework
# The original CSD entry MAKFOW is in the triclinic crystal system
# The framework has been calculated to contain at least 10.0% void space
# The void calculation uses a probe of radius 1.32A, grid spacing 0.4
# H atom positions have been added when not included in the experimental data
#
###############################################################################

data_MAKFOW
_chemical_formula_moiety         '(C108 H66 Gd6 N20 O38)n'
_symmetry_cell_setting           triclinic
_symmetry_space_group_name_H-M   'P 1'
_symmetry_Int_Tables_number      1
_space_group_name_Hall           'P 1'
loop_
_symmetry_equiv_pos_site_id
_symmetry_equiv_pos_as_xyz
1 x,y,z
_cell_length_a                   15.0975(5)
_cell_length_b                   16.7752(7)
_cell_length_c                   16.9014(7)
_cell_angle_alpha                110.493(4)
_cell_angle_beta                 91.562(3)
_cell_angle_gamma                99.176(3)
_cell_volume                     3942.3
loop_
_atom_site_label
_atom_site_type_symbol
_atom_site_fract_x
_atom_site_fract_y
_atom_site_fract_z
N1 N 0.8495(12) 0.5215(16) 0.6824(13)
C1 C 0.9150(13) 0.4910(13) 0.6201(11)
C2 C 0.887(2) 0.559(2) 0.7724(12)
H26 H 0.939716 0.614674 0.781365
H27 H 0.833655 0.579324 0.812813
H28 H 0.915165 0.510537 0.789108
H29 H 0.94388 0.440806 0.632932
H30 H 0.880895 0.464802 0.556327
H31 H 0.968432 0.544944 0.625189
H32 H 0.799984 0.470412 0.675838
H33 H 0.822867 0.567473 0.668621
N1_2 N 0.1505(12) 0.4785(16) 0.3176(13)
C1_2 C 0.0850(13) 0.5090(13) 0.3799(11)
C2_2 C 0.113(2) 0.441(2) 0.2276(12)
H26_2 H 0.0602839 0.385326 0.218635
H27_2 H 0.166345 0.420676 0.187187
H28_2 H 0.0848354 0.489463 0.210892
H29_2 H 0.0561196 0.559194 0.367068
H30_2 H 0.119105 0.535198 0.443673
H31_2 H 0.0315681 0.455056 0.374811
H32_2 H 0.200016 0.529588 0.324162
H33_2 H 0.177133 0.432527 0.331379
O17 O 0.3329(4) 0.5580(4) 0.8097(3)
O18 O 0.4257(4) 0.5272(4) 0.7090(3)
N10 N 0.0651(6) 0.3041(7) 0.3974(6)
C46 C 0.0549(7) 0.3589(7) 0.4741(6)
C47 C 0.1247(7) 0.3921(7) 0.5440(6)
C48 C 0.1096(7) 0.4446(7) 0.6246(7)
H21 H 0.0505 0.4555 0.6360
C49 C 0.1790(6) 0.4814(6) 0.6887(6)
H22 H 0.1670 0.5150 0.7442
C50 C 0.2674(7) 0.4690(6) 0.6711(6)
C51 C 0.3451(6) 0.5198(5) 0.7337(5)
C52 C 0.2826(7) 0.4145(6) 0.5898(6)
H23 H 0.3416 0.4036 0.5782
C53 C 0.2129(7) 0.3771(6) 0.5272(6)
H24 H 0.2241 0.3411 0.4723
Gd11 Gd 0.48501(3) 0.63751(3) 0.85370(3)
Gd13 Gd 0.54914(3) 0.52922(3) 0.61810(3)
Gd4 Gd 0.55988(3) 0.12226(3) 0.02872(3)
O2 O 0.5052(4) 0.0617(4) 0.8840(3)
C5 C 0.4425(10) 0.0390(7) 0.7123(7)
H4 H 0.4521 0.0974 0.7504
C6 C 0.4229(10) 0.0198(8) 0.6275(7)
H5 H 0.4190 0.0646 0.6061
Gd2 Gd 0.51499(3) 0.36249(3) 0.14630(3)
Gd3 Gd 0.45086(3) 0.47078(3) 0.38190(3)
O1 O 0.4355(5) 0.9253(4) 0.8568(4)
O3 O 0.3735(4) 0.7749(4) 0.0242(3)
O5 O 0.4665(5) 0.4870(4) 0.1552(4)
O6 O 0.4029(5) 0.5191(4) 0.2789(4)
O7 O 0.3076(4) 0.3686(4) 0.3131(4)
O8 O 0.4301(4) 0.3346(3) 0.2519(3)
O9 O 0.4209(4) 0.0365(4) 0.0323(4)
O13 O 0.5849(4) 0.2546(3) 0.1640(3)
O14 O 0.7036(4) 0.1944(4) 0.1285(3)
O15 O 0.5775(4) 0.4653(4) 0.4610(3)
O16 O 0.6754(4) 0.4622(4) 0.5584(3)
O19 O 0.5131(4) 0.6179(4) 0.4389(4)
O20 O 0.5739(5) 0.6505(4) 0.5721(4)
N2 N 0.3991(8) 0.8357(6) 0.4232(6)
H1 H 0.4165 0.7935 0.4355
N3 N 0.3589(11) 0.9587(7) 0.4389(7)
N4 N 0.3551(10) 0.9099(7) 0.3514(6)
N5 N 0.0151(5) 0.0163(5) 0.1212(5)
N6 N 0.0054(6) 0.1463(7) 0.2065(7)
N8 N 0.9712(5) 0.3772(6) 0.4780(5)
H3 H 0.9491 0.4116 0.5222
N9 N 0.9846(6) 0.2896(7) 0.3506(5)
C3 C 0.4667(7) 0.9867(5) 0.8350(5)
C4 C 0.4483(8) 0.9733(7) 0.7423(6)
C7 C 0.4087(9) 0.9351(7) 0.5736(6)
C8 C 0.4162(13) 0.8697(8) 0.6010(8)
H6 H 0.4084 0.8119 0.5618
C9 C 0.4354(12) 0.8875(8) 0.6869(8)
H7 H 0.4396 0.8421 0.7075
C10 C 0.3885(9) 0.9134(7) 0.4781(6)
C11 C 0.3780(9) 0.8361(6) 0.3473(6)
C12 C 0.3823(8) 0.7621(6) 0.2685(5)
C13 C 0.3786(7) 0.7694(6) 0.1894(5)
H8 H 0.3686 0.8218 0.1838
C14 C 0.3899(7) 0.6989(6) 0.1176(5)
C15 C 0.3943(6) 0.7088(5) 0.0335(4)
C16 C 0.4078(6) 0.6234(5) 0.1255(5)
H9 H 0.4191 0.5772 0.0772
C17 C 0.4092(6) 0.6160(5) 0.2055(5)
C18 C 0.4278(6) 0.5345(6) 0.2134(5)
C19 C 0.3960(7) 0.6847(6) 0.2767(5)
H10 H 0.3961 0.6791 0.3307
C20 C 0.3476(6) 0.3144(6) 0.2622(5)
C21 C 0.2987(6) 0.2249(5) 0.2135(5)
C22 C 0.2061(6) 0.2046(6) 0.2150(6)
H11 H 0.1741 0.2471 0.2483
C23 C 0.1599(6) 0.1207(6) 0.1670(6)
C24 C 0.2070(6) 0.0602(6) 0.1184(6)
H12 H 0.1758 0.0039 0.0850
C25 C 0.3003(6) 0.0805(5) 0.1175(5)
C26 C 0.3473(6) 0.0143(5) 0.0607(5)
C27 C 0.3457(6) 0.1625(6) 0.1657(5)
H13 H 0.4093 0.1762 0.1662
C28 C 0.0628(7) 0.0957(7) 0.1657(7)
C37 C 0.6640(5) 0.2429(5) 0.1824(5)
C38 C 0.7056(5) 0.2887(5) 0.2705(5)
C39 C 0.6555(6) 0.3360(5) 0.3348(5)
H18 H 0.5939 0.3361 0.3221
C40 C 0.6961(6) 0.3820(6) 0.4160(5)
C41 C 0.6475(6) 0.4393(5) 0.4818(5)
C42 C 0.7850(6) 0.3806(6) 0.4352(5)
H19 H 0.8123 0.4130 0.4910
C43 C 0.8348(6) 0.3340(6) 0.3759(5)
C44 C 0.7961(6) 0.2873(6) 0.2930(5)
H20 H 0.8307 0.2545 0.2518
C45 C 0.9280(7) 0.3319(7) 0.4002(6)
C54 C 0.5474(7) 0.6730(7) 0.5120(6)
H25 H 0.5533 0.7330 0.5215
Gd8 Gd 0.44012(3) 0.87774(3) 0.97128(3)
O21 O 0.5645(5) 0.0747(4) 0.1432(4)
O24 O 0.5808(4) 0.3523(4) 0.0245(3)
O27 O 0.3659(5) 0.3176(4) 0.0728(4)
O28 O 0.4502(4) 0.2153(4) 0.0348(4)
O29 O 0.4225(4) 0.5347(4) 0.5390(3)
O30 O 0.3246(4) 0.5378(4) 0.4416(3)
O31 O 0.6671(4) 0.4420(4) 0.1903(3)
O32 O 0.5743(4) 0.4728(4) 0.2910(3)
O33 O 0.4261(5) 0.3495(4) 0.4279(4)
O4 O 0.4192(4) 0.6477(4) 0.9755(3)
O23 O 0.6265(4) 0.2251(4) 0.9758(3)
O26 O 0.6867(4) 0.0652(4) 0.9596(3)
O10 O 0.3133(4) 0.9348(4) 0.0404(3)
H2 H 0.0358 0.9708 0.0887
O25 O 0.5791(4) 0.9635(4) 0.9677(4)
O11 O 0.6341(5) 0.6824(4) 0.9272(4)
O12 O 0.5498(4) 0.7847(4) 0.9652(4)
C34 C 0.6254(6) 0.7579(6) 0.9699(5)
H16 H 0.8030 0.7512 0.9718
C34_2 C 0.3746(6) 0.2421(6) 0.0301(5)
H16_2 H 0.1970 0.2488 0.0282
H2_2 H 0.9642 0.0292 0.9113
O22 O 0.4948(4) 0.9383(4) 0.1160(3)
O5_2 O 0.5335(5) 0.5130(4) 0.8448(4)
O6_2 O 0.5971(5) 0.4809(4) 0.7211(4)
O7_2 O 0.6924(4) 0.6314(4) 0.6869(4)
O8_2 O 0.5699(4) 0.6654(3) 0.7481(3)
O13_2 O 0.4151(4) 0.7454(3) 0.8360(3)
O14_2 O 0.2964(4) 0.8056(4) 0.8715(3)
O19_2 O 0.4869(4) 0.3821(4) 0.5611(4)
N2_2 N 0.6009(8) 0.1643(6) 0.5768(6)
H1_2 H 0.5835 0.2065 0.5645
N3_2 N 0.6411(11) 0.0413(7) 0.5611(7)
N4_2 N 0.6449(10) 0.0901(7) 0.6486(6)
N5_2 N 0.9849(5) 0.9837(5) 0.8788(5)
N6_2 N 0.9946(6) 0.8537(7) 0.7935(7)
N8_2 N 0.0288(5) 0.6228(6) 0.5220(5)
H3_2 H 0.0509 0.5884 0.4778
N9_2 N 0.0154(6) 0.7104(7) 0.6494(5)
C3_2 C 0.5333(7) 0.0133(5) 0.1650(5)
C4_2 C 0.5517(8) 0.0267(7) 0.2577(6)
C7_2 C 0.5913(9) 0.0649(7) 0.4264(6)
C8_2 C 0.5838(13) 0.1303(8) 0.3990(8)
H6_2 H 0.5916 0.1881 0.4382
C9_2 C 0.5646(12) 0.1125(8) 0.3131(8)
H7_2 H 0.5604 0.1579 0.2925
C10_2 C 0.6115(9) 0.0866(7) 0.5219(6)
C11_2 C 0.6220(9) 0.1639(6) 0.6527(6)
C12_2 C 0.6177(8) 0.2379(6) 0.7315(5)
C13_2 C 0.6214(7) 0.2306(6) 0.8106(5)
H8_2 H 0.6314 0.1782 0.8162
C14_2 C 0.6101(7) 0.3011(6) 0.8824(5)
C15_2 C 0.6057(6) 0.2912(5) 0.9665(4)
C16_2 C 0.5922(6) 0.3766(5) 0.8745(5)
H9_2 H 0.5809 0.4228 0.9228
C17_2 C 0.5908(6) 0.3840(5) 0.7945(5)
C18_2 C 0.5722(6) 0.4655(6) 0.7866(5)
C19_2 C 0.6040(7) 0.3153(6) 0.7233(5)
H10_2 H 0.6039 0.3209 0.6693
C20_2 C 0.6524(6) 0.6856(6) 0.7378(5)
C21_2 C 0.7013(6) 0.7751(5) 0.7865(5)
C22_2 C 0.7939(6) 0.7954(6) 0.7850(6)
H11_2 H 0.8259 0.7529 0.7517
C23_2 C 0.8401(6) 0.8793(6) 0.8330(6)
C24_2 C 0.7930(6) 0.9398(6) 0.8816(6)
H12_2 H 0.8242 0.9961 0.9150
C25_2 C 0.6997(6) 0.9195(5) 0.8825(5)
C26_2 C 0.6527(6) 0.9857(5) 0.9393(5)
C27_2 C 0.6543(6) 0.8375(6) 0.8343(5)
H13_2 H 0.5907 0.8238 0.8338
C28_2 C 0.9372(7) 0.9043(7) 0.8343(7)
C37_2 C 0.3360(5) 0.7571(5) 0.8176(5)
C38_2 C 0.2944(5) 0.7113(5) 0.7295(5)
C39_2 C 0.3445(6) 0.6640(5) 0.6652(5)
H18_2 H 0.4061 0.6639 0.6779
C40_2 C 0.3039(6) 0.6180(6) 0.5840(5)
C41_2 C 0.3525(6) 0.5607(5) 0.5182(5)
C42_2 C 0.2150(6) 0.6194(6) 0.5648(5)
H19_2 H 0.1877 0.5870 0.5090
C43_2 C 0.1652(6) 0.6660(6) 0.6241(5)
C44_2 C 0.2039(6) 0.7127(6) 0.7070(5)
H20_2 H 0.1693 0.7455 0.7482
C45_2 C 0.0720(7) 0.6681(7) 0.5998(6)
C54_2 C 0.4526(7) 0.3270(7) 0.4880(6)
H25_2 H 0.4467 0.2670 0.4785
C5_2 C 0.5575(10) 0.9610(7) 0.2877(7)
H4_2 H 0.5479 0.9026 0.2496
C6_2 C 0.5771(10) 0.9802(8) 0.3725(7)
H5_2 H 0.5810 0.9354 0.3939
N10_2 N 0.9349(6) 0.6959(7) 0.6026(6)
C46_2 C 0.9451(7) 0.6411(7) 0.5259(6)
C47_2 C 0.8753(7) 0.6079(7) 0.4560(6)
C48_2 C 0.8904(7) 0.5554(7) 0.3754(7)
H21_2 H 0.9495 0.5445 0.3640
C49_2 C 0.8210(6) 0.5186(6) 0.3113(6)
H22_2 H 0.8330 0.4850 0.2558
C50_2 C 0.7326(7) 0.5310(6) 0.3289(6)
C51_2 C 0.6549(6) 0.4802(5) 0.2663(5)
C52_2 C 0.7174(7) 0.5855(6) 0.4102(6)
H23_2 H 0.6584 0.5964 0.4218
C53_2 C 0.7871(7) 0.6229(6) 0.4728(6)
H24_2 H 0.7759 0.6589 0.5277
N7 N 0.9198(6) 0.0989(7) 0.1895(7)
C29 C 0.9295(7) 0.0218(6) 0.1374(6)
H14 H 0.7580 0.0194 0.1600
C30 C 0.8536(7) 0.9504(7) 0.1011(6)
C31 C 0.7664(7) 0.9656(7) 0.1200(6)
C32 C 0.6926(6) 0.9013(7) 0.0798(6)
H15 H 0.6336 0.9113 0.0929
C33 C 0.7039(6) 0.8227(6) 0.0208(5)
C35 C 0.7936(7) 0.8067(7) 0.0073(7)
C36 C 0.8653(7) 0.8705(7) 0.0452(7)
H17 H 0.9244 0.8603 0.0331
C30_2 C 0.1464(7) 0.0496(7) 0.8989(6)
C31_2 C 0.2336(7) 0.0344(7) 0.8800(6)
C32_2 C 0.3074(6) 0.0987(7) 0.9202(6)
H15_2 H 0.3664 0.0887 0.9071
C33_2 C 0.2961(6) 0.1773(6) 0.9792(5)
C35_2 C 0.2064(7) 0.1933(7) 0.9927(7)
C36_2 C 0.1347(7) 0.1295(7) 0.9548(7)
H17_2 H 0.0756 0.1397 0.9669
N7_2 N 0.0802(6) 0.9011(7) 0.8105(7)
C29_2 C 0.0705(7) 0.9782(6) 0.8626(6)
H14_2 H 0.2420 0.9806 0.8400
loop_
_geom_bond_atom_site_label_1
_geom_bond_atom_site_label_2
_geom_bond_site_symmetry_1
_geom_bond_site_symmetry_2
N1 C1 1_555 1_555
C2 N1 1_555 1_555
C2 H26 1_555 1_555
C2 H27 1_555 1_555
C2 H28 1_555 1_555
C1 H29 1_555 1_555
C1 H30 1_555 1_555
C1 H31 1_555 1_555
N1 H32 1_555 1_555
N1 H33 1_555 1_555
N1_2 C1_2 1_555 1_555
C2_2 N1_2 1_555 1_555
C2_2 H26_2 1_555 1_555
C2_2 H27_2 1_555 1_555
C2_2 H28_2 1_555 1_555
C1_2 H29_2 1_555 1_555
C1_2 H30_2 1_555 1_555
C1_2 H31_2 1_555 1_555
N1_2 H32_2 1_555 1_555
N1_2 H33_2 1_555 1_555
O17 C51 1_555 1_555
O18 C51 1_555 1_555
N10 C46 1_555 1_555
C47 C46 1_555 1_555
C48 C47 1_555 1_555
H21 C48 1_555 1_555
C49 C48 1_555 1_555
H22 C49 1_555 1_555
C50 C49 1_555 1_555
C51 C50 1_555 1_555
C52 C50 1_555 1_555
H23 C52 1_555 1_555
C53 C47 1_555 1_555
H24 C53 1_555 1_555
Gd11 O17 1_555 1_555
Gd13 O18 1_555 1_555
O18 Gd11 1_555 1_555
C52 C53 1_555 1_555
C5 H4 1_555 1_555
C6 C5 1_555 1_555
H5 C6 1_555 1_555
Gd4 O9 1_555 1_555
Gd2 O5 1_555 1_555
Gd3 O6 1_555 1_555
O1 C3 1_555 1_555
O3 C15 1_555 1_555
O5 C18 1_555 1_555
O6 C18 1_555 1_555
O7 Gd3 1_555 1_555
O8 Gd2 1_555 1_555
O9 C26 1_555 1_555
O13 Gd4 1_555 1_555
O14 Gd4 1_555 1_555
O15 Gd3 1_555 1_555
O16 C41 1_555 1_555
O19 Gd3 1_555 1_555
O20 C54 1_555 1_555
N2 H1 1_555 1_555
N3 N4 1_555 1_555
N4 C11 1_555 1_555
N8 H3 1_555 1_555
C3 C4 1_555 1_555
C8 C7 1_555 1_555
H6 C8 1_555 1_555
C9 C4 1_555 1_555
H7 C9 1_555 1_555
C10 N2 1_555 1_555
C11 N2 1_555 1_555
C12 C11 1_555 1_555
C13 C12 1_555 1_555
H8 C13 1_555 1_555
C14 C13 1_555 1_555
C15 C14 1_555 1_555
C16 C14 1_555 1_555
H9 C16 1_555 1_555
C17 C16 1_555 1_555
C18 C17 1_555 1_555
C19 C12 1_555 1_555
H10 C19 1_555 1_555
C20 O7 1_555 1_555
C21 C20 1_555 1_555
C22 C21 1_555 1_555
H11 C22 1_555 1_555
C23 C22 1_555 1_555
C24 C23 1_555 1_555
H12 C24 1_555 1_555
C25 C24 1_555 1_555
C26 C25 1_555 1_555
C27 C21 1_555 1_555
H13 C27 1_555 1_555
C28 N5 1_555 1_555
C37 O13 1_555 1_555
C38 C37 1_555 1_555
C39 C38 1_555 1_555
H18 C39 1_555 1_555
C40 C39 1_555 1_555
C41 O15 1_555 1_555
C42 C40 1_555 1_555
H19 C42 1_555 1_555
C43 C42 1_555 1_555
C44 C38 1_555 1_555
H20 C44 1_555 1_555
C45 N8 1_555 1_555
C54 O19 1_555 1_555
H25 C54 1_555 1_555
Gd8 O1 1_555 1_555
Gd13 O15 1_555 1_555
O21 Gd4 1_555 1_555
O24 Gd2 1_555 1_555
O27 Gd2 1_555 1_555
O28 Gd4 1_555 1_555
O29 Gd3 1_555 1_555
O30 Gd3 1_555 1_555
O31 Gd2 1_555 1_555
O32 Gd2 1_555 1_555
O33 Gd3 1_555 1_555
Gd2 O13 1_555 1_555
Gd2 O28 1_555 1_555
Gd3 O8 1_555 1_555
Gd3 O32 1_555 1_555
O8 C20 1_555 1_555
O14 C37 1_555 1_555
O16 Gd13 1_555 1_555
O20 Gd13 1_555 1_555
N3 C10 1_555 1_555
N6 C28 1_555 1_555
N9 C45 1_555 1_555
C7 C10 1_555 1_555
C8 C9 1_555 1_555
C17 C19 1_555 1_555
C23 C28 1_555 1_555
C25 C27 1_555 1_555
C40 C41 1_555 1_555
C43 C44 1_555 1_555
C43 C45 1_555 1_555
Gd13 O29 1_555 1_555
Gd11 O4 1_555 1_555
Gd8 O25 1_555 1_555
O11 C34 1_555 1_555
O12 C34 1_555 1_555
Gd8 O12 1_555 1_555
Gd11 O11 1_555 1_555
O12 Gd11 1_555 1_555
O27 C34_2 1_555 1_555
O28 C34_2 1_555 1_555
Gd11 O5_2 1_555 1_555
Gd13 O6_2 1_555 1_555
O21 C3_2 1_555 1_555
O23 C15_2 1_555 1_555
O5_2 C18_2 1_555 1_555
O6_2 C18_2 1_555 1_555
O7_2 Gd13 1_555 1_555
O8_2 Gd11 1_555 1_555
O25 C26_2 1_555 1_555
O13_2 Gd8 1_555 1_555
O14_2 Gd8 1_555 1_555
O30 C41_2 1_555 1_555
O19_2 Gd13 1_555 1_555
O33 C54_2 1_555 1_555
N2_2 H1_2 1_555 1_555
N3_2 N4_2 1_555 1_555
N4_2 C11_2 1_555 1_555
N8_2 H3_2 1_555 1_555
C3_2 C4_2 1_555 1_555
C8_2 C7_2 1_555 1_555
H6_2 C8_2 1_555 1_555
C9_2 C4_2 1_555 1_555
H7_2 C9_2 1_555 1_555
C10_2 N2_2 1_555 1_555
C11_2 N2_2 1_555 1_555
C12_2 C11_2 1_555 1_555
C13_2 C12_2 1_555 1_555
H8_2 C13_2 1_555 1_555
C14_2 C13_2 1_555 1_555
C15_2 C14_2 1_555 1_555
C16_2 C14_2 1_555 1_555
H9_2 C16_2 1_555 1_555
C17_2 C16_2 1_555 1_555
C18_2 C17_2 1_555 1_555
C19_2 C12_2 1_555 1_555
H10_2 C19_2 1_555 1_555
C20_2 O7_2 1_555 1_555
C21_2 C20_2 1_555 1_555
C22_2 C21_2 1_555 1_555
H11_2 C22_2 1_555 1_555
C23_2 C22_2 1_555 1_555
C24_2 C23_2 1_555 1_555
H12_2 C24_2 1_555 1_555
C25_2 C24_2 1_555 1_555
C26_2 C25_2 1_555 1_555
C27_2 C21_2 1_555 1_555
H13_2 C27_2 1_555 1_555
C28_2 N5_2 1_555 1_555
C37_2 O13_2 1_555 1_555
C38_2 C37_2 1_555 1_555
C39_2 C38_2 1_555 1_555
H18_2 C39_2 1_555 1_555
C40_2 C39_2 1_555 1_555
C41_2 O29 1_555 1_555
C42_2 C40_2 1_555 1_555
H19_2 C42_2 1_555 1_555
C43_2 C42_2 1_555 1_555
C44_2 C38_2 1_555 1_555
H20_2 C44_2 1_555 1_555
C45_2 N8_2 1_555 1_555
C54_2 O19_2 1_555 1_555
H25_2 C54_2 1_555 1_555
Gd11 O13_2 1_555 1_555
Gd13 O8_2 1_555 1_555
O8_2 C20_2 1_555 1_555
O14_2 C37_2 1_555 1_555
N3_2 C10_2 1_555 1_555
N6_2 C28_2 1_555 1_555
N9_2 C45_2 1_555 1_555
C7_2 C10_2 1_555 1_555
C8_2 C9_2 1_555 1_555
C17_2 C19_2 1_555 1_555
C23_2 C28_2 1_555 1_555
C25_2 C27_2 1_555 1_555
C40_2 C41_2 1_555 1_555
C43_2 C44_2 1_555 1_555
C43_2 C45_2 1_555 1_555
C5_2 H4_2 1_555 1_555
C6_2 C5_2 1_555 1_555
H5_2 C6_2 1_555 1_555
O31 C51_2 1_555 1_555
O32 C51_2 1_555 1_555
N10_2 C46_2 1_555 1_555
C47_2 C46_2 1_555 1_555
C48_2 C47_2 1_555 1_555
H21_2 C48_2 1_555 1_555
C49_2 C48_2 1_555 1_555
H22_2 C49_2 1_555 1_555
C50_2 C49_2 1_555 1_555
C51_2 C50_2 1_555 1_555
C52_2 C50_2 1_555 1_555
H23_2 C52_2 1_555 1_555
C53_2 C47_2 1_555 1_555
H24_2 C53_2 1_555 1_555
C52_2 C53_2 1_555 1_555
N7 C29 1_555 1_555
C31 C30 1_555 1_555
C32 C31 1_555 1_555
H15 C32 1_555 1_555
C33 C32 1_555 1_555
C35 C33 1_555 1_555
C36 C30 1_555 1_555
H17 C36 1_555 1_555
C35 C36 1_555 1_555
C31_2 C30_2 1_555 1_555
C32_2 C31_2 1_555 1_555
H15_2 C32_2 1_555 1_555
C33_2 C32_2 1_555 1_555
C35_2 C33_2 1_555 1_555
C36_2 C30_2 1_555 1_555
H17_2 C36_2 1_555 1_555
C35_2 C36_2 1_555 1_555
N7_2 C29_2 1_555 1_555

#END
