
###############################################################################
#
# This file contains modified crystal structure data generated from the
# MOF subset of the Cambridge Structural Database (CSD) v543 
# hosted by the Cambridge Crystallographic Data Centre (CCDC).
#
# This work is licensed under the Creative Commons
# Attribution-NonCommercial-ShareAlike 4.0 International License.
# To view a copy of this license, visit
# http://creativecommons.org/licenses/by-nc-sa/4.0/
# or send a letter to
# Creative Commons, PO Box 1866, Mountain View, CA 94042, USA.
#
# CIF created using the CSD Python API on 29 September 2022
# The structure has been converted into the P1 space group
# The structure has a 3D framework
# The original CSD entry MAKFIQ is in the triclinic crystal system
# The framework has been calculated to contain at least 10.0% void space
# The void calculation uses a probe of radius 1.32A, grid spacing 0.4
# H atom positions have been added when not included in the experimental data
#
###############################################################################

data_MAKFIQ
_chemical_formula_moiety         '(C108 H66 Eu4 N20 O40)n'
_symmetry_cell_setting           triclinic
_symmetry_space_group_name_H-M   'P 1'
_symmetry_Int_Tables_number      1
_space_group_name_Hall           'P 1'
loop_
_symmetry_equiv_pos_site_id
_symmetry_equiv_pos_as_xyz
1 x,y,z
_cell_length_a                   15.1321(6)
_cell_length_b                   16.9762(4)
_cell_length_c                   17.0413(6)
_cell_angle_alpha                110.922(3)
_cell_angle_beta                 93.255(3)
_cell_angle_gamma                97.511(3)
_cell_volume                     4028.57
loop_
_atom_site_label
_atom_site_type_symbol
_atom_site_fract_x
_atom_site_fract_y
_atom_site_fract_z
N1 N 0.273(3) 0.419(2) 0.167(4)
C1 C 0.174(3) 0.386(4) 0.151(4)
C2 C 0.327(2) 0.351(3) 0.123(3)
H23 H 0.307519 0.327324 0.0550869
H24 H 0.398061 0.377863 0.136432
H25 H 0.314533 0.29856 0.145612
H26 H 0.292011 0.440883 0.230149
H27 H 0.285473 0.467692 0.145775
H28 H 0.159712 0.333976 0.173945
H29 H 0.137837 0.437365 0.184039
H30 H 0.152697 0.36274 0.0834199
N1_2 N 0.727(3) 0.581(2) 0.833(4)
C1_2 C 0.826(3) 0.614(4) 0.849(4)
C2_2 C 0.673(2) 0.649(3) 0.877(3)
H23_2 H 0.692481 0.672676 0.944913
H24_2 H 0.601939 0.622137 0.863568
H25_2 H 0.685467 0.70144 0.854388
H26_2 H 0.707989 0.559117 0.769851
H27_2 H 0.714527 0.532308 0.854225
H28_2 H 0.840288 0.666024 0.826055
H29_2 H 0.862163 0.562635 0.815961
H30_2 H 0.847303 0.63726 0.91658
Eu12 Eu 0.05239(3) 0.02966(2) 0.11919(2)
O1 O 0.9186(3) 0.2476(3) 0.3351(3)
O5 O 0.9208(3) 0.0355(3) 0.0387(3)
O12 O 0.0748(4) 0.1500(4) 0.0727(3)
O16 O 0.7986(3) 0.3043(3) 0.3706(3)
N2 N 0.5261(4) 0.1219(5) 0.0213(4)
C4 C 0.0458(5) 0.1697(5) 0.0130(4)
H1 H 0.0517 0.2290 0.0228
C7 C 0.7945(5) 0.2109(4) 0.2275(4)
C10 C 0.8032(5) 0.1181(5) 0.0834(4)
C18 C 0.8382(5) 0.2568(4) 0.3158(4)
C21 C 0.8512(5) 0.0602(4) 0.0169(4)
C23 C 0.8440(5) 0.1645(5) 0.1648(4)
H6 H 0.9058 0.1648 0.1783
C26 C 0.7146(5) 0.1209(5) 0.0634(5)
H7 H 0.6871 0.0903 0.0072
C31 C 0.7043(5) 0.2125(5) 0.2061(5)
H12 H 0.6703 0.2442 0.2480
H14 H 0.2731 0.1558 0.0282
N4 N 0.4348(7) 0.1971(8) 0.1006(6)
C38 C 0.6643(6) 0.1679(6) 0.1241(5)
N7 N 0.5149(6) 0.2126(7) 0.1482(6)
C42 C 0.5701(6) 0.1686(7) 0.0989(6)
C45 C 0.4442(6) 0.1408(7) 0.0249(6)
Eu4 Eu 0.05785(3) 0.62127(2) 0.52860(2)
Eu9 Eu 0.94215(3) 0.37873(2) 0.47140(2)
Eu15 Eu 0.99207(3) 0.13973(2) 0.35590(2)
H32 H 0.379182 0.223131 0.119009
O3 O 0.8206(3) 0.0382(3) 0.9410(3)
O13 O 0.0089(4) 0.1176(3) 0.9396(3)
C24 C 0.2269(5) 0.0265(5) 0.8291(5)
C28 C 0.2129(5) 0.0830(5) 0.9095(5)
H9 H 0.1544 0.0956 0.9201
C30 C 0.3137(6) 0.0149(6) 0.8128(5)
C34 C 0.2836(6) 0.1204(5) 0.9734(5)
C40 C 0.3846(6) 0.0519(6) 0.8753(6)
H17 H 0.4434 0.0411 0.8635
C44 C 0.3703(6) 0.1054(6) 0.9563(6)
Eu3 Eu 0.00793(3) 0.86027(2) 0.64410(2)
O7 O 0.0687(3) 0.9696(3) 0.7897(3)
O19 O 0.1600(4) 0.9385(4) 0.6899(3)
C12 C 0.1485(5) 0.9767(4) 0.7657(4)
H11 H 0.3246 0.9807 0.7576
Eu10 Eu 0.94761(3) 0.97034(2) 0.88081(2)
O21 O 0.0814(3) 0.7524(3) 0.6649(3)
O23 O 0.1187(4) 0.7241(3) 0.4758(3)
O25 O 0.0792(3) 0.9645(3) 0.9613(3)
O27 O 0.0793(3) 0.4628(3) 0.4645(3)
O28 O 0.1859(3) 0.5628(3) 0.4605(3)
O32 O 0.2014(3) 0.6957(3) 0.6294(3)
O33 O 0.0701(4) 0.8494(3) 0.5215(3)
O34 O 0.0701(4) 0.5742(3) 0.6450(3)
O11 O 0.9994(3) 0.5600(3) 0.3828(3)
O18 O 0.9299(4) 0.4258(3) 0.3550(3)
C3 C 0.9593(6) 0.4855(4) 0.3329(4)
C48 C 0.9400(8) 0.5353(7) 0.2115(7)
H19 H 0.9504 0.5933 0.2491
C49 C 0.9433(7) 0.4706(6) 0.2432(7)
C50 C 0.9223(9) 0.5163(7) 0.1282(6)
H20 H 0.9207 0.5618 0.1084
C52 C 0.9058(9) 0.4318(7) 0.0689(7)
C53 C 0.9227(11) 0.3861(7) 0.1868(7)
H21 H 0.9194 0.3414 0.2083
C54 C 0.9068(11) 0.3650(7) 0.0995(7)
H22 H 0.8969 0.3071 0.0617
O4 O 0.8813(4) 0.2759(3) 0.5242(3)
O9 O 0.8966(4) 0.0193(3) 0.7756(3)
O17 O 0.9299(4) 0.1506(3) 0.4785(3)
C5 C 0.9064(5) 0.1168(4) 0.7047(4)
C6 C 0.9028(5) 0.2111(4) 0.5354(4)
C8 C 0.8953(5) 0.2013(4) 0.6182(4)
C9 C 0.8840(6) 0.2712(5) 0.6890(4)
H2 H 0.8766 0.3240 0.6841
C13 C 0.9194(5) 0.0351(4) 0.7127(4)
C14 C 0.9079(5) 0.1253(4) 0.6273(4)
H3 H 0.9178 0.0784 0.5794
C15 C 0.8837(6) 0.2621(5) 0.7676(4)
C20 C 0.8926(5) 0.1854(4) 0.7753(4)
H5 H 0.8893 0.1793 0.8284
C36 C 0.8792(7) 0.3388(5) 0.8452(5)
N5 N 0.8967(7) 0.3347(6) 0.9235(5)
N9 N 0.8624(8) 0.4109(7) 0.8489(7)
N10 N 0.8650(8) 0.4584(7) 0.9360(7)
C51 C 0.8870(9) 0.4135(8) 0.9757(7)
H33 H 0.849843 0.430281 0.800085
O2 O 0.9261(3) 0.8344(3) 0.7505(3)
O6 O 0.0565(3) 0.2869(3) 0.4668(3)
O8 O 0.9207(3) 0.5372(3) 0.5355(3)
O10 O 0.8141(3) 0.4372(3) 0.5395(3)
O14 O 0.8036(3) 0.8683(3) 0.8086(3)
O15 O 0.1416(4) 0.1861(3) 0.4314(4)
O20 O 0.9570(4) 0.9849(3) 0.6534(3)
N3 N 0.5196(5) 0.5193(5) 0.6203(5)
C11 C 0.8441(5) 0.8149(5) 0.7597(5)
C16 C 0.7996(5) 0.5821(5) 0.6163(5)
C17 C 0.8437(5) 0.6636(4) 0.6656(4)
H4 H 0.9069 0.6768 0.6677
C19 C 0.7962(5) 0.7255(5) 0.7117(5)
C22 C 0.8480(5) 0.5155(4) 0.5611(4)
C25 C 0.1325(5) 0.2617(5) 0.4718(5)
C27 C 0.7088(6) 0.5610(5) 0.6178(5)
H8 H 0.6788 0.5045 0.5865
C29 C 0.2006(6) 0.4049(5) 0.5801(5)
H10 H 0.1420 0.4145 0.5938
C32 C 0.2983(6) 0.3096(5) 0.5093(6)
H13 H 0.3073 0.2545 0.4736
C33 C 0.2118(6) 0.3258(5) 0.5228(5)
C35 C 0.7046(5) 0.7051(5) 0.7121(6)
H15 H 0.6718 0.7473 0.7442
C37 C 0.2717(6) 0.4697(6) 0.6175(6)
H16 H 0.2623 0.5242 0.6545
C39 C 0.6611(6) 0.6231(5) 0.6657(6)
C41 C 0.3571(6) 0.4539(6) 0.6000(6)
N6 N 0.5070(6) 0.6484(6) 0.7044(8)
C43 C 0.5637(6) 0.5970(6) 0.6647(7)
N8 N 0.4246(6) 0.6014(6) 0.6885(8)
C46 C 0.4335(6) 0.5240(6) 0.6367(7)
C47 C 0.3720(6) 0.3733(6) 0.5475(6)
H18 H 0.4312 0.3622 0.5381
O26 O 0.9435(3) 0.7131(3) 0.5332(3)
O30 O 0.9252(4) 0.8500(4) 0.9273(3)
O31 O 0.8584(4) 0.8139(3) 0.5686(4)
H31 H 0.523301 0.711608 0.740147
O2_2 O 0.0739(3) 0.1656(3) 0.2495(3)
O14_2 O 0.1964(3) 0.1317(3) 0.1914(3)
O20_2 O 0.0430(4) 0.0151(3) 0.3466(3)
N3_2 N 0.4804(5) 0.4807(5) 0.3797(5)
C11_2 C 0.1559(5) 0.1851(5) 0.2403(5)
C16_2 C 0.2004(5) 0.4179(5) 0.3837(5)
C17_2 C 0.1563(5) 0.3364(4) 0.3344(4)
H4_2 H 0.0931 0.3232 0.3323
C19_2 C 0.2038(5) 0.2745(5) 0.2883(5)
C22_2 C 0.1520(5) 0.4845(4) 0.4389(4)
C25_2 C 0.8675(5) 0.7383(5) 0.5282(5)
C27_2 C 0.2912(6) 0.4390(5) 0.3822(5)
H8_2 H 0.3212 0.4955 0.4135
C29_2 C 0.7994(6) 0.5951(5) 0.4199(5)
H10_2 H 0.8580 0.5855 0.4062
C32_2 C 0.7017(6) 0.6904(5) 0.4907(6)
H13_2 H 0.6927 0.7455 0.5264
C33_2 C 0.7882(6) 0.6742(5) 0.4772(5)
C35_2 C 0.2954(5) 0.2949(5) 0.2879(6)
H15_2 H 0.3282 0.2527 0.2558
C37_2 C 0.7283(6) 0.5303(6) 0.3825(6)
H16_2 H 0.7377 0.4758 0.3455
C39_2 C 0.3389(6) 0.3769(5) 0.3343(6)
C41_2 C 0.6429(6) 0.5461(6) 0.4000(6)
N6_2 N 0.4930(6) 0.3516(6) 0.2956(8)
C43_2 C 0.4363(6) 0.4030(6) 0.3353(7)
N8_2 N 0.5754(6) 0.3986(6) 0.3115(8)
C46_2 C 0.5665(6) 0.4760(6) 0.3633(7)
C47_2 C 0.6280(6) 0.6267(6) 0.4525(6)
H18_2 H 0.5688 0.6378 0.4619
O29 O 0.0006(3) 0.4400(3) 0.6172(3)
H31_2 H 0.476699 0.288392 0.259853
O9_2 O 0.1034(4) 0.9807(3) 0.2244(3)
C5_2 C 0.0936(5) 0.8832(4) 0.2953(4)
C6_2 C 0.0972(5) 0.7889(4) 0.4646(4)
C8_2 C 0.1047(5) 0.7987(4) 0.3818(4)
C9_2 C 0.1160(6) 0.7288(5) 0.3110(4)
H2_2 H 0.1234 0.6760 0.3159
C13_2 C 0.0806(5) 0.9649(4) 0.2873(4)
C14_2 C 0.0921(5) 0.8747(4) 0.3727(4)
H3_2 H 0.0822 0.9216 0.4206
C15_2 C 0.1163(6) 0.7379(5) 0.2324(4)
C20_2 C 0.1074(5) 0.8146(4) 0.2247(4)
H5_2 H 0.1107 0.8207 0.1716
C36_2 C 0.1208(7) 0.6612(5) 0.1548(5)
N5_2 N 0.1033(7) 0.6653(6) 0.0765(5)
N9_2 N 0.1376(8) 0.5891(7) 0.1511(7)
N10_2 N 0.1350(8) 0.5416(7) 0.0640(7)
C51_2 C 0.1130(9) 0.5865(8) 0.0243(7)
O22 O 0.1794(3) 0.9618(3) 0.0590(3)
H33_2 H 0.150157 0.569719 0.199915
C3_2 C 0.0407(6) 0.5145(4) 0.6671(4)
C48_2 C 0.0600(8) 0.4647(7) 0.7885(7)
H19_2 H 0.0496 0.4067 0.7509
C49_2 C 0.0567(7) 0.5294(6) 0.7568(7)
C50_2 C 0.0777(9) 0.4837(7) 0.8718(6)
H20_2 H 0.0793 0.4382 0.8916
C52_2 C 0.0942(9) 0.5682(7) 0.9311(7)
C53_2 C 0.0773(11) 0.6139(7) 0.8132(7)
H21_2 H 0.0806 0.6586 0.7917
C54_2 C 0.0932(11) 0.6350(7) 0.9005(7)
H22_2 H 0.1031 0.6929 0.9383
O7_2 O 0.9313(3) 0.0304(3) 0.2103(3)
O19_2 O 0.8400(4) 0.0615(4) 0.3101(3)
C12_2 C 0.8515(5) 0.0233(4) 0.2343(4)
H11_2 H 0.6754 0.0193 0.2424
O13_2 O 0.9911(4) 0.8824(3) 0.0604(3)
C24_2 C 0.7731(5) 0.9735(5) 0.1709(5)
C28_2 C 0.7871(5) 0.9170(5) 0.0905(5)
H9_2 H 0.8456 0.9044 0.0799
C30_2 C 0.6863(6) 0.9851(6) 0.1872(5)
C34_2 C 0.7164(6) 0.8796(5) 0.0266(5)
C40_2 C 0.6154(6) 0.9481(6) 0.1247(6)
H17_2 H 0.5566 0.9589 0.1365
C44_2 C 0.6297(6) 0.8946(6) 0.0437(6)
N2_2 N 0.4739(4) 0.8781(5) 0.9787(4)
C4_2 C 0.9542(5) 0.8303(5) 0.9870(4)
H1_2 H 0.9483 0.7710 0.9772
C7_2 C 0.2055(5) 0.7891(4) 0.7725(4)
C10_2 C 0.1968(5) 0.8819(5) 0.9166(4)
C18_2 C 0.1618(5) 0.7432(4) 0.6842(4)
C21_2 C 0.1488(5) 0.9398(4) 0.9831(4)
C23_2 C 0.1560(5) 0.8355(5) 0.8352(4)
H6_2 H 0.0942 0.8352 0.8217
C26_2 C 0.2854(5) 0.8791(5) 0.9366(5)
H7_2 H 0.3129 0.9097 0.9928
C31_2 C 0.2957(5) 0.7875(5) 0.7939(5)
H12_2 H 0.3297 0.7558 0.7520
H14_2 H 0.7269 0.8442 0.9718
N4_2 N 0.5652(7) 0.8029(8) 0.8994(6)
C38_2 C 0.3357(6) 0.8321(6) 0.8759(5)
N7_2 N 0.4851(6) 0.7874(7) 0.8518(6)
C42_2 C 0.4299(6) 0.8314(7) 0.9011(6)
C45_2 C 0.5558(6) 0.8592(7) 0.9751(6)
H32_2 H 0.620818 0.776869 0.880991
loop_
_geom_bond_atom_site_label_1
_geom_bond_atom_site_label_2
_geom_bond_site_symmetry_1
_geom_bond_site_symmetry_2
N1 C1 1_555 1_555
C2 N1 1_555 1_555
C2 H23 1_555 1_555
C2 H24 1_555 1_555
C2 H25 1_555 1_555
N1 H26 1_555 1_555
N1 H27 1_555 1_555
C1 H28 1_555 1_555
C1 H29 1_555 1_555
C1 H30 1_555 1_555
N1_2 C1_2 1_555 1_555
C2_2 N1_2 1_555 1_555
C2_2 H23_2 1_555 1_555
C2_2 H24_2 1_555 1_555
C2_2 H25_2 1_555 1_555
N1_2 H26_2 1_555 1_555
N1_2 H27_2 1_555 1_555
C1_2 H28_2 1_555 1_555
C1_2 H29_2 1_555 1_555
C1_2 H30_2 1_555 1_555
O1 C18 1_555 1_555
O5 C21 1_555 1_555
O12 C4 1_555 1_555
O16 C18 1_555 1_555
N2 C42 1_555 1_555
H1 C4 1_555 1_555
C7 C18 1_555 1_555
C10 C21 1_555 1_555
C23 C7 1_555 1_555
H6 C23 1_555 1_555
C26 C10 1_555 1_555
H7 C26 1_555 1_555
C31 C7 1_555 1_555
H12 C31 1_555 1_555
N4 N7 1_555 1_555
C38 C26 1_555 1_555
N7 C42 1_555 1_555
C42 C38 1_555 1_555
C45 N2 1_555 1_555
Eu9 O1 1_555 1_555
Eu12 O12 1_555 1_555
Eu15 O1 1_555 1_555
O16 Eu9 1_555 1_555
C10 C23 1_555 1_555
C31 C38 1_555 1_555
N4 C45 1_555 1_555
N4 H32 1_555 1_555
C28 C24 1_555 1_555
H9 C28 1_555 1_555
C30 C24 1_555 1_555
C34 C28 1_555 1_555
C40 C30 1_555 1_555
H17 C40 1_555 1_555
C44 C34 1_555 1_555
C40 C44 1_555 1_555
O19 Eu3 1_555 1_555
C12 O7 1_555 1_555
O21 Eu4 1_555 1_555
O23 Eu4 1_555 1_555
O27 Eu4 1_555 1_555
O28 Eu4 1_555 1_555
O32 Eu4 1_555 1_555
O33 Eu3 1_555 1_555
O34 Eu4 1_555 1_555
Eu3 O7 1_555 1_555
Eu3 O21 1_555 1_555
O19 C12 1_555 1_555
O11 C3 1_555 1_555
O18 C3 1_555 1_555
C3 C49 1_555 1_555
C48 H19 1_555 1_555
C49 C48 1_555 1_555
C50 C48 1_555 1_555
H20 C50 1_555 1_555
C52 C50 1_555 1_555
C53 C49 1_555 1_555
H21 C53 1_555 1_555
C54 C52 1_555 1_555
H22 C54 1_555 1_555
Eu9 O18 1_555 1_555
C53 C54 1_555 1_555
O4 C6 1_555 1_555
O17 C6 1_555 1_555
C5 C13 1_555 1_555
C6 C8 1_555 1_555
C8 C9 1_555 1_555
C9 H2 1_555 1_555
C13 O9 1_555 1_555
C14 C5 1_555 1_555
H3 C14 1_555 1_555
C15 C9 1_555 1_555
C20 C5 1_555 1_555
H5 C20 1_555 1_555
C36 C15 1_555 1_555
N5 C36 1_555 1_555
N9 C36 1_555 1_555
N10 N9 1_555 1_555
C51 N5 1_555 1_555
Eu9 O4 1_555 1_555
Eu15 O17 1_555 1_555
C8 C14 1_555 1_555
C15 C20 1_555 1_555
N10 C51 1_555 1_555
N9 H33 1_555 1_555
Eu10 O2 1_555 1_555
O2 C11 1_555 1_555
O6 C25 1_555 1_555
O8 C22 1_555 1_555
O10 C22 1_555 1_555
O14 Eu10 1_555 1_555
O15 C25 1_555 1_555
N3 C43 1_555 1_555
C11 O14 1_555 1_555
C16 C17 1_555 1_555
C17 H4 1_555 1_555
C19 C11 1_555 1_555
C22 C16 1_555 1_555
C25 C33 1_555 1_555
C27 C16 1_555 1_555
H8 C27 1_555 1_555
C29 H10 1_555 1_555
C32 H13 1_555 1_555
C33 C29 1_555 1_555
C35 C19 1_555 1_555
H15 C35 1_555 1_555
C37 C29 1_555 1_555
H16 C37 1_555 1_555
C39 C27 1_555 1_555
C41 C37 1_555 1_555
N6 C43 1_555 1_555
C43 C39 1_555 1_555
N8 N6 1_555 1_555
C46 N3 1_555 1_555
C47 C32 1_555 1_555
H18 C47 1_555 1_555
Eu9 O8 1_555 1_555
O30 Eu10 1_555 1_555
O10 Eu9 1_555 1_555
C17 C19 1_555 1_555
C32 C33 1_555 1_555
C35 C39 1_555 1_555
C41 C46 1_555 1_555
C41 C47 1_555 1_555
N8 C46 1_555 1_555
N6 H31 1_555 1_555
Eu12 O2_2 1_555 1_555
O2_2 C11_2 1_555 1_555
O26 C25_2 1_555 1_555
O27 C22_2 1_555 1_555
O28 C22_2 1_555 1_555
O14_2 Eu12 1_555 1_555
O31 C25_2 1_555 1_555
N3_2 C43_2 1_555 1_555
C11_2 O14_2 1_555 1_555
C16_2 C17_2 1_555 1_555
C17_2 H4_2 1_555 1_555
C19_2 C11_2 1_555 1_555
C22_2 C16_2 1_555 1_555
C25_2 C33_2 1_555 1_555
C27_2 C16_2 1_555 1_555
H8_2 C27_2 1_555 1_555
C29_2 H10_2 1_555 1_555
C32_2 H13_2 1_555 1_555
C33_2 C29_2 1_555 1_555
C35_2 C19_2 1_555 1_555
H15_2 C35_2 1_555 1_555
C37_2 C29_2 1_555 1_555
H16_2 C37_2 1_555 1_555
C39_2 C27_2 1_555 1_555
C41_2 C37_2 1_555 1_555
N6_2 C43_2 1_555 1_555
C43_2 C39_2 1_555 1_555
N8_2 N6_2 1_555 1_555
C46_2 N3_2 1_555 1_555
C47_2 C32_2 1_555 1_555
H18_2 C47_2 1_555 1_555
C17_2 C19_2 1_555 1_555
C32_2 C33_2 1_555 1_555
C35_2 C39_2 1_555 1_555
C41_2 C46_2 1_555 1_555
C41_2 C47_2 1_555 1_555
N8_2 C46_2 1_555 1_555
N6_2 H31_2 1_555 1_555
O23 C6_2 1_555 1_555
O33 C6_2 1_555 1_555
C5_2 C13_2 1_555 1_555
C6_2 C8_2 1_555 1_555
C8_2 C9_2 1_555 1_555
C9_2 H2_2 1_555 1_555
C13_2 O9_2 1_555 1_555
C14_2 C5_2 1_555 1_555
H3_2 C14_2 1_555 1_555
C15_2 C9_2 1_555 1_555
C20_2 C5_2 1_555 1_555
H5_2 C20_2 1_555 1_555
C36_2 C15_2 1_555 1_555
N5_2 C36_2 1_555 1_555
N9_2 C36_2 1_555 1_555
N10_2 N9_2 1_555 1_555
C51_2 N5_2 1_555 1_555
C8_2 C14_2 1_555 1_555
C15_2 C20_2 1_555 1_555
N10_2 C51_2 1_555 1_555
N9_2 H33_2 1_555 1_555
O29 C3_2 1_555 1_555
O34 C3_2 1_555 1_555
C3_2 C49_2 1_555 1_555
C48_2 H19_2 1_555 1_555
C49_2 C48_2 1_555 1_555
C50_2 C48_2 1_555 1_555
H20_2 C50_2 1_555 1_555
C52_2 C50_2 1_555 1_555
C53_2 C49_2 1_555 1_555
H21_2 C53_2 1_555 1_555
C54_2 C52_2 1_555 1_555
H22_2 C54_2 1_555 1_555
C53_2 C54_2 1_555 1_555
O19_2 Eu15 1_555 1_555
C12_2 O7_2 1_555 1_555
Eu15 O7_2 1_555 1_555
O19_2 C12_2 1_555 1_555
C28_2 C24_2 1_555 1_555
H9_2 C28_2 1_555 1_555
C30_2 C24_2 1_555 1_555
C34_2 C28_2 1_555 1_555
C40_2 C30_2 1_555 1_555
H17_2 C40_2 1_555 1_555
C44_2 C34_2 1_555 1_555
C40_2 C44_2 1_555 1_555
O21 C18_2 1_555 1_555
O25 C21_2 1_555 1_555
O30 C4_2 1_555 1_555
O32 C18_2 1_555 1_555
N2_2 C42_2 1_555 1_555
H1_2 C4_2 1_555 1_555
C7_2 C18_2 1_555 1_555
C10_2 C21_2 1_555 1_555
C23_2 C7_2 1_555 1_555
H6_2 C23_2 1_555 1_555
C26_2 C10_2 1_555 1_555
H7_2 C26_2 1_555 1_555
C31_2 C7_2 1_555 1_555
H12_2 C31_2 1_555 1_555
N4_2 N7_2 1_555 1_555
C38_2 C26_2 1_555 1_555
N7_2 C42_2 1_555 1_555
C42_2 C38_2 1_555 1_555
C45_2 N2_2 1_555 1_555
C10_2 C23_2 1_555 1_555
C31_2 C38_2 1_555 1_555
N4_2 C45_2 1_555 1_555
N4_2 H32_2 1_555 1_555

#END
