
###############################################################################
#
# This file contains modified crystal structure data generated from the
# MOF subset of the Cambridge Structural Database (CSD) v543 
# hosted by the Cambridge Crystallographic Data Centre (CCDC).
#
# This work is licensed under the Creative Commons
# Attribution-NonCommercial-ShareAlike 4.0 International License.
# To view a copy of this license, visit
# http://creativecommons.org/licenses/by-nc-sa/4.0/
# or send a letter to
# Creative Commons, PO Box 1866, Mountain View, CA 94042, USA.
#
# CIF created using the CSD Python API on 29 September 2022
# The structure has been converted into the P1 space group
# The structure has a 3D framework
# The original CSD entry MAKGAJ is in the triclinic crystal system
# The framework has been calculated to contain at least 10.0% void space
# The void calculation uses a probe of radius 1.32A, grid spacing 0.4
# The framework is charged, counterions have been retained in the structure
# H atom positions have been added when not included in the experimental data
#
###############################################################################

data_MAKGAJ
_chemical_formula_moiety         '(C108 H66 Dy6 N20 O38)n'
_symmetry_cell_setting           triclinic
_symmetry_space_group_name_H-M   'P 1'
_symmetry_Int_Tables_number      1
_space_group_name_Hall           'P 1'
loop_
_symmetry_equiv_pos_site_id
_symmetry_equiv_pos_as_xyz
1 x,y,z
_cell_length_a                   15.1589(5)
_cell_length_b                   16.8609(4)
_cell_length_c                   16.9700(3)
_cell_angle_alpha                110.902(2)
_cell_angle_beta                 92.490(2)
_cell_angle_gamma                98.552(2)
_cell_volume                     3985
loop_
_atom_site_label
_atom_site_type_symbol
_atom_site_fract_x
_atom_site_fract_y
_atom_site_fract_z
C1 C 0.173(4) 0.369(3) 0.475(3)
C2 C 0.166(4) 0.253(3) 0.330(3)
N1 N 0.225(2) 0.314(3) 0.409(3)
H26 H 0.132049 0.289989 0.301109
H27 H 0.207181 0.215387 0.285143
H28 H 0.116343 0.209759 0.346939
H29 H 0.12345 0.327541 0.494166
H30 H 0.218964 0.411278 0.530006
H31 H 0.139156 0.407771 0.448336
H32 H 0.256612 0.278695 0.434892
H33 H 0.271251 0.353473 0.392176
C1_2 C 0.827(4) 0.631(3) 0.525(3)
C2_2 C 0.834(4) 0.747(3) 0.670(3)
N1_2 N 0.775(2) 0.686(3) 0.591(3)
H26_2 H 0.867951 0.710011 0.698891
H27_2 H 0.792819 0.784613 0.714857
H28_2 H 0.883657 0.790241 0.653061
H29_2 H 0.87655 0.672459 0.505834
H30_2 H 0.781036 0.588722 0.469994
H31_2 H 0.860844 0.592229 0.551664
H32_2 H 0.743388 0.721305 0.565108
H33_2 H 0.728749 0.646527 0.607824
Dy14 Dy 0.049843(18) 0.029284(17) 0.618661(15)
O1 O 0.9268(2) 0.0289(2) 0.70913(19)
O2 O 0.8357(3) 0.0608(2) 0.8094(2)
O7 O 0.0355(3) 0.0143(2) 0.8450(2)
C3 C 0.8470(3) 0.0216(3) 0.7332(3)
H7 H 0.6723 0.0201 0.7428
Dy11 Dy 0.987682(18) 0.138811(16) 0.854168(15)
O35 O 0.0126(3) 0.1175(2) 0.4403(2)
O9 O 0.0741(3) 0.8507(2) 0.02388(19)
Dy5 Dy 0.058442(18) 0.621894(16) 0.028394(15)
Dy8 Dy 0.012318(18) 0.861189(16) 0.145832(15)
O3 O 0.2024(2) 0.6956(2) 0.1280(2)
O4 O 0.0821(2) 0.7534(2) 0.16426(19)
O5 O 0.0766(2) 0.9646(2) 0.4617(2)
O6 O 0.1750(2) 0.9625(2) 0.5600(2)
O8 O 0.0972(3) 0.9803(2) 0.7221(2)
O10 O 0.1213(2) 0.7240(2) 0.9749(2)
O12 O 0.0667(3) 0.5754(2) 0.1422(2)
N2 N 0.4697(3) 0.8775(3) 0.4789(3)
H1 H 0.4485 0.9133 0.5224
N3 N 0.4805(4) 0.7859(5) 0.3532(4)
N4 N 0.5618(5) 0.8021(5) 0.3995(4)
N5 N 0.1372(5) 0.5433(4) 0.5621(3)
N6 N 0.1440(5) 0.5913(4) 0.6485(3)
N7 N 0.0989(5) 0.6660(3) 0.5765(3)
H2 H 0.0813 0.7082 0.5645
C4 C 0.7689(4) 0.9714(3) 0.6701(3)
C5 C 0.7825(4) 0.9166(3) 0.5898(3)
H4 H 0.8412 0.9057 0.5782
C6 C 0.7120(4) 0.8780(4) 0.5268(3)
H5 H 0.7219 0.8408 0.4722
C7 C 0.6253(4) 0.8945(4) 0.5445(3)
C8 C 0.6118(4) 0.9469(4) 0.6254(4)
H6 H 0.5530 0.9569 0.6380
C9 C 0.6825(4) 0.9847(4) 0.6875(3)
C10 C 0.5517(4) 0.8580(5) 0.4754(4)
C11 C 0.4264(4) 0.8308(5) 0.4019(4)
C12 C 0.3337(4) 0.8317(4) 0.3770(3)
C13 C 0.2936(4) 0.7863(4) 0.2942(3)
H8 H 0.3272 0.7537 0.2524
C14 C 0.2038(3) 0.7887(3) 0.2725(3)
C15 C 0.1630(3) 0.7434(3) 0.1834(3)
C16 C 0.1541(3) 0.8350(3) 0.3348(3)
H9 H 0.0926 0.8346 0.3209
C17 C 0.1942(3) 0.8816(3) 0.4168(3)
C18 C 0.1469(3) 0.9385(3) 0.4831(3)
C19 C 0.2835(4) 0.8798(4) 0.4376(3)
H10 H 0.3107 0.9117 0.4938
C20 C 0.1005(3) 0.7904(3) 0.9662(3)
C21 C 0.1045(3) 0.7997(3) 0.8817(3)
C22 C 0.0907(3) 0.8756(3) 0.8742(3)
H11 H 0.0807 0.9223 0.9226
C23 C 0.0914(3) 0.8838(3) 0.7953(3)
C24 C 0.0734(3) 0.9661(3) 0.7872(3)
C25 C 0.1042(4) 0.8160(3) 0.7242(3)
H12 H 0.1049 0.8222 0.6708
C26 C 0.1163(4) 0.7372(3) 0.7313(3)
C27 C 0.1172(4) 0.7297(3) 0.8102(3)
H13 H 0.1264 0.6773 0.8157
C28 C 0.1214(4) 0.6651(4) 0.6536(3)
C29 C 0.1092(5) 0.5886(4) 0.5218(4)
C30 C 0.0916(5) 0.5675(4) 0.4294(4)
C31 C 0.0774(6) 0.4815(4) 0.3713(4)
H14 H 0.0800 0.4360 0.3915
C32 C 0.0597(5) 0.4626(4) 0.2859(4)
H15 H 0.0504 0.4045 0.2473
C33 C 0.0555(4) 0.5289(4) 0.2564(4)
C34 C 0.0382(4) 0.5136(3) 0.1651(3)
C35 C 0.0721(7) 0.6145(4) 0.3135(4)
H16 H 0.0718 0.6600 0.2929
C36 C 0.0888(6) 0.6335(5) 0.3998(4)
H17 H 0.0982 0.6917 0.4384
O21 O 0.0732(2) 0.9711(2) 0.29087(19)
O22 O 0.1643(3) 0.9392(2) 0.1906(2)
O29 O 0.0017(2) 0.5605(2) 0.8841(2)
O32 O 0.0779(2) 0.4635(2) 0.9665(2)
O34 O 0.1843(2) 0.5647(2) 0.9604(2)
O23 O 0.9234(2) 0.0354(2) 0.5383(2)
O24 O 0.8250(2) 0.0375(2) 0.4400(2)
O26 O 0.9028(3) 0.0197(2) 0.2779(2)
Dy3 Dy 0.950157(18) 0.970716(17) 0.381339(15)
O11 O 0.9983(2) 0.4395(2) 0.1159(2)
O13 O 0.8634(3) 0.8158(2) 0.0715(2)
O14 O 0.9474(2) 0.7146(2) 0.0346(2)
O19 O 0.9241(3) 0.8497(3) 0.4266(2)
O20 O 0.9874(3) 0.8825(2) 0.5597(2)
C37 C 0.8712(3) 0.7393(3) 0.0297(3)
H21 H 0.6980 0.7479 0.0304
C54 C 0.9517(4) 0.8302(4) 0.4875(3)
H25 H 0.9449 0.7705 0.4782
O25 O 0.9645(3) 0.9857(2) 0.1550(2)
O30 O 0.8076(3) 0.8689(2) 0.3101(2)
O31 O 0.9300(2) 0.8356(2) 0.25123(19)
O33 O 0.9221(2) 0.5365(2) 0.0335(2)
O15 O 0.1924(3) 0.1311(2) 0.6899(2)
O16 O 0.0700(2) 0.1644(2) 0.74877(19)
N8 N 0.4916(4) 0.3521(4) 0.7989(6)
N9 N 0.5776(4) 0.3982(4) 0.8169(6)
N10 N 0.4815(3) 0.4823(3) 0.8795(3)
H3 H 0.4605 0.5284 0.9102
C38 C 0.7922(4) 0.6767(3) 0.9785(3)
C39 C 0.8032(4) 0.5959(4) 0.9213(3)
H18 H 0.8619 0.5849 0.9094
C40 C 0.7293(4) 0.5315(4) 0.8818(4)
H19 H 0.7374 0.4771 0.8428
C41 C 0.6437(4) 0.5472(4) 0.8997(4)
C42 C 0.6325(4) 0.6294(4) 0.9544(4)
H20 H 0.5739 0.6414 0.9646
C43 C 0.7062(4) 0.6927(4) 0.9932(4)
C44 C 0.5674(4) 0.4761(4) 0.8642(4)
C45 C 0.4359(4) 0.4035(4) 0.8378(4)
C46 C 0.3387(4) 0.3778(4) 0.8354(4)
C47 C 0.2946(4) 0.2959(4) 0.7883(4)
H22 H 0.3269 0.2536 0.7556
C48 C 0.2011(3) 0.2748(3) 0.7887(3)
C49 C 0.1535(3) 0.1847(3) 0.7392(3)
C50 C 0.1542(3) 0.3370(3) 0.8350(3)
H23 H 0.0909 0.3232 0.8333
C51 C 0.1985(4) 0.4196(3) 0.8840(3)
C52 C 0.1518(3) 0.4866(3) 0.9394(3)
C53 C 0.2908(4) 0.4395(3) 0.8832(3)
H24 H 0.3216 0.4961 0.9158
Dy7 Dy 0.941558(18) 0.378106(16) 0.971606(15)
O18 O 0.8157(2) 0.4353(2) 0.0396(2)
N8_2 N 0.5084(4) 0.6479(4) 0.2011(6)
N9_2 N 0.4224(4) 0.6018(4) 0.1831(6)
N10_2 N 0.5185(3) 0.5177(3) 0.1205(3)
H3_2 H 0.5395 0.4716 0.0898
C38_2 C 0.2078(4) 0.3233(3) 0.0215(3)
C39_2 C 0.1968(4) 0.4041(4) 0.0787(3)
H18_2 H 0.1381 0.4151 0.0906
C40_2 C 0.2707(4) 0.4685(4) 0.1182(4)
H19_2 H 0.2626 0.5229 0.1572
C41_2 C 0.3563(4) 0.4528(4) 0.1003(4)
C42_2 C 0.3675(4) 0.3706(4) 0.0456(4)
H20_2 H 0.4261 0.3586 0.0354
C43_2 C 0.2938(4) 0.3073(4) 0.0068(4)
C44_2 C 0.4326(4) 0.5239(4) 0.1358(4)
C45_2 C 0.5641(4) 0.5965(4) 0.1622(4)
C46_2 C 0.6613(4) 0.6222(4) 0.1646(4)
C47_2 C 0.7054(4) 0.7041(4) 0.2117(4)
H22_2 H 0.6731 0.7464 0.2444
C48_2 C 0.7989(3) 0.7252(3) 0.2113(3)
C49_2 C 0.8465(3) 0.8153(3) 0.2608(3)
C50_2 C 0.8458(3) 0.6630(3) 0.1650(3)
H23_2 H 0.9091 0.6768 0.1667
C51_2 C 0.8015(4) 0.5804(3) 0.1160(3)
C52_2 C 0.8482(3) 0.5134(3) 0.0606(3)
C53_2 C 0.7092(4) 0.5605(3) 0.1168(3)
H24_2 H 0.6784 0.5039 0.0842
O13_2 O 0.1366(3) 0.1842(2) 0.9285(2)
O14_2 O 0.0526(2) 0.2854(2) 0.9654(2)
O19_2 O 0.0759(3) 0.1503(3) 0.5734(2)
C37_2 C 0.1288(3) 0.2607(3) 0.9703(3)
H21_2 H 0.3020 0.2521 0.9696
C54_2 C 0.0483(4) 0.1698(4) 0.5125(3)
H25_2 H 0.0551 0.2295 0.5218
O28 O 0.8787(2) 0.2760(2) 0.0251(2)
O3_2 O 0.7976(2) 0.3044(2) 0.8720(2)
O4_2 O 0.9179(2) 0.2466(2) 0.83574(19)
O12_2 O 0.9333(3) 0.4246(2) 0.8578(2)
N2_2 N 0.5303(3) 0.1225(3) 0.5211(3)
H1_2 H 0.5515 0.0867 0.4776
N3_2 N 0.5195(4) 0.2141(5) 0.6468(4)
N4_2 N 0.4382(5) 0.1979(5) 0.6005(4)
N5_2 N 0.8628(5) 0.4567(4) 0.4379(3)
N6_2 N 0.8560(5) 0.4087(4) 0.3515(3)
N7_2 N 0.9011(5) 0.3340(3) 0.4235(3)
H2_2 H 0.9187 0.2918 0.4355
C4_2 C 0.2311(4) 0.0286(3) 0.3299(3)
C5_2 C 0.2175(4) 0.0834(3) 0.4102(3)
H4_2 H 0.1588 0.0943 0.4218
C6_2 C 0.2880(4) 0.1220(4) 0.4732(3)
H5_2 H 0.2781 0.1592 0.5278
C7_2 C 0.3747(4) 0.1055(4) 0.4555(3)
C8_2 C 0.3882(4) 0.0531(4) 0.3746(4)
H6_2 H 0.4470 0.0431 0.3620
C9_2 C 0.3175(4) 0.0153(4) 0.3125(3)
C10_2 C 0.4483(4) 0.1420(5) 0.5246(4)
C11_2 C 0.5736(4) 0.1692(5) 0.5981(4)
C12_2 C 0.6663(4) 0.1683(4) 0.6230(3)
C13_2 C 0.7064(4) 0.2137(4) 0.7058(3)
H8_2 H 0.6728 0.2463 0.7476
C14_2 C 0.7962(3) 0.2113(3) 0.7275(3)
C15_2 C 0.8370(3) 0.2566(3) 0.8166(3)
C16_2 C 0.8459(3) 0.1650(3) 0.6652(3)
H9_2 H 0.9074 0.1654 0.6791
C17_2 C 0.8058(3) 0.1184(3) 0.5832(3)
C18_2 C 0.8531(3) 0.0615(3) 0.5169(3)
C19_2 C 0.7165(4) 0.1202(4) 0.5624(3)
H10_2 H 0.6893 0.0883 0.5062
C20_2 C 0.8995(3) 0.2096(3) 0.0338(3)
C21_2 C 0.8955(3) 0.2003(3) 0.1183(3)
C22_2 C 0.9093(3) 0.1244(3) 0.1258(3)
H11_2 H 0.9193 0.0777 0.0774
C23_2 C 0.9086(3) 0.1162(3) 0.2047(3)
C24_2 C 0.9266(3) 0.0339(3) 0.2128(3)
C25_2 C 0.8958(4) 0.1840(3) 0.2758(3)
H12_2 H 0.8951 0.1778 0.3292
C26_2 C 0.8837(4) 0.2628(3) 0.2687(3)
C27_2 C 0.8828(4) 0.2703(3) 0.1898(3)
H13_2 H 0.8736 0.3227 0.1843
C28_2 C 0.8786(4) 0.3349(4) 0.3464(3)
C29_2 C 0.8908(5) 0.4114(4) 0.4782(4)
C30_2 C 0.9084(5) 0.4325(4) 0.5706(4)
C31_2 C 0.9226(6) 0.5185(4) 0.6287(4)
H14_2 H 0.9200 0.5640 0.6085
C32_2 C 0.9403(5) 0.5374(4) 0.7141(4)
H15_2 H 0.9496 0.5955 0.7527
C33_2 C 0.9445(4) 0.4711(4) 0.7436(4)
C34_2 C 0.9618(4) 0.4864(3) 0.8349(3)
C35_2 C 0.9279(7) 0.3855(4) 0.6865(4)
H16_2 H 0.9282 0.3400 0.7071
C36_2 C 0.9112(6) 0.3665(5) 0.6002(4)
H17_2 H 0.9018 0.3083 0.5616
O27 O 0.9259(3) 0.1493(2) 0.97612(19)
C3_2 C 0.1530(3) 0.9784(3) 0.2668(3)
H7_2 H 0.3277 0.9799 0.2572
loop_
_geom_bond_atom_site_label_1
_geom_bond_atom_site_label_2
_geom_bond_site_symmetry_1
_geom_bond_site_symmetry_2
C1 N1 1_555 1_555
C2 N1 1_555 1_555
C2 H26 1_555 1_555
C2 H27 1_555 1_555
C2 H28 1_555 1_555
C1 H29 1_555 1_555
C1 H30 1_555 1_555
C1 H31 1_555 1_555
N1 H32 1_555 1_555
N1 H33 1_555 1_555
C1_2 N1_2 1_555 1_555
C2_2 N1_2 1_555 1_555
C2_2 H26_2 1_555 1_555
C2_2 H27_2 1_555 1_555
C2_2 H28_2 1_555 1_555
C1_2 H29_2 1_555 1_555
C1_2 H30_2 1_555 1_555
C1_2 H31_2 1_555 1_555
N1_2 H32_2 1_555 1_555
N1_2 H33_2 1_555 1_555
O1 C3 1_555 1_555
O2 C3 1_555 1_555
Dy11 O1 1_555 1_555
O2 Dy11 1_555 1_555
Dy8 O9 1_555 1_555
Dy5 O3 1_555 1_555
Dy8 O4 1_555 1_555
O3 C15 1_555 1_555
O4 Dy5 1_555 1_555
O5 C18 1_555 1_555
O6 C18 1_555 1_555
O8 C24 1_555 1_555
O10 C20 1_555 1_555
O12 Dy5 1_555 1_555
N2 H1 1_555 1_555
N3 N4 1_555 1_555
N4 C10 1_555 1_555
N5 N6 1_555 1_555
N6 C28 1_555 1_555
N7 H2 1_555 1_555
C4 C5 1_555 1_555
C5 H4 1_555 1_555
C6 C5 1_555 1_555
H5 C6 1_555 1_555
C7 C6 1_555 1_555
C8 C7 1_555 1_555
H6 C8 1_555 1_555
C9 C4 1_555 1_555
C10 N2 1_555 1_555
C11 N2 1_555 1_555
C12 C11 1_555 1_555
C13 C12 1_555 1_555
H8 C13 1_555 1_555
C14 C13 1_555 1_555
C15 O4 1_555 1_555
C16 C14 1_555 1_555
H9 C16 1_555 1_555
C17 C16 1_555 1_555
C18 C17 1_555 1_555
C19 C12 1_555 1_555
H10 C19 1_555 1_555
C20 C21 1_555 1_555
C21 C22 1_555 1_555
C22 H11 1_555 1_555
C23 C22 1_555 1_555
C24 C23 1_555 1_555
C25 C23 1_555 1_555
H12 C25 1_555 1_555
C26 C25 1_555 1_555
C27 C21 1_555 1_555
H13 C27 1_555 1_555
C28 N7 1_555 1_555
C29 N5 1_555 1_555
C30 C29 1_555 1_555
C31 C30 1_555 1_555
H14 C31 1_555 1_555
C32 C31 1_555 1_555
H15 C32 1_555 1_555
C33 C32 1_555 1_555
C34 O12 1_555 1_555
C35 C33 1_555 1_555
H16 C35 1_555 1_555
C36 C30 1_555 1_555
H17 C36 1_555 1_555
O21 Dy8 1_555 1_555
O22 Dy8 1_555 1_555
N3 C11 1_555 1_555
N7 C29 1_555 1_555
C7 C10 1_555 1_555
C8 C9 1_555 1_555
C14 C15 1_555 1_555
C17 C19 1_555 1_555
C26 C27 1_555 1_555
C26 C28 1_555 1_555
C33 C34 1_555 1_555
C35 C36 1_555 1_555
O19 Dy3 1_555 1_555
O20 C54 1_555 1_555
C37 O13 1_555 1_555
C54 O19 1_555 1_555
H25 C54 1_555 1_555
O30 Dy3 1_555 1_555
Dy3 O31 1_555 1_555
O14 C37 1_555 1_555
O15 C49 1_555 1_555
O16 C49 1_555 1_555
O32 C52 1_555 1_555
O34 C52 1_555 1_555
N8 N9 1_555 1_555
N9 C44 1_555 1_555
N10 H3 1_555 1_555
C39 C38 1_555 1_555
H18 C39 1_555 1_555
C40 C39 1_555 1_555
H19 C40 1_555 1_555
C41 C40 1_555 1_555
C42 C41 1_555 1_555
H20 C42 1_555 1_555
C43 C38 1_555 1_555
C44 N10 1_555 1_555
C45 N8 1_555 1_555
C46 C45 1_555 1_555
C47 C46 1_555 1_555
H22 C47 1_555 1_555
C48 C47 1_555 1_555
C49 C48 1_555 1_555
C50 C48 1_555 1_555
H23 C50 1_555 1_555
C51 C50 1_555 1_555
C52 C51 1_555 1_555
C53 C46 1_555 1_555
H24 C53 1_555 1_555
Dy14 O15 1_555 1_555
O16 Dy14 1_555 1_555
N10 C45 1_555 1_555
C41 C44 1_555 1_555
C42 C43 1_555 1_555
C51 C53 1_555 1_555
O30 C49_2 1_555 1_555
O31 C49_2 1_555 1_555
O33 C52_2 1_555 1_555
O18 C52_2 1_555 1_555
N8_2 N9_2 1_555 1_555
N9_2 C44_2 1_555 1_555
N10_2 H3_2 1_555 1_555
C39_2 C38_2 1_555 1_555
H18_2 C39_2 1_555 1_555
C40_2 C39_2 1_555 1_555
H19_2 C40_2 1_555 1_555
C41_2 C40_2 1_555 1_555
C42_2 C41_2 1_555 1_555
H20_2 C42_2 1_555 1_555
C43_2 C38_2 1_555 1_555
C44_2 N10_2 1_555 1_555
C45_2 N8_2 1_555 1_555
C46_2 C45_2 1_555 1_555
C47_2 C46_2 1_555 1_555
H22_2 C47_2 1_555 1_555
C48_2 C47_2 1_555 1_555
C49_2 C48_2 1_555 1_555
C50_2 C48_2 1_555 1_555
H23_2 C50_2 1_555 1_555
C51_2 C50_2 1_555 1_555
C52_2 C51_2 1_555 1_555
C53_2 C46_2 1_555 1_555
H24_2 C53_2 1_555 1_555
N10_2 C45_2 1_555 1_555
C41_2 C44_2 1_555 1_555
C42_2 C43_2 1_555 1_555
C51_2 C53_2 1_555 1_555
O19_2 Dy14 1_555 1_555
O35 C54_2 1_555 1_555
C37_2 O13_2 1_555 1_555
C54_2 O19_2 1_555 1_555
H25_2 C54_2 1_555 1_555
O14_2 C37_2 1_555 1_555
Dy7 O3_2 1_555 1_555
Dy11 O4_2 1_555 1_555
O3_2 C15_2 1_555 1_555
O4_2 Dy7 1_555 1_555
O23 C18_2 1_555 1_555
O24 C18_2 1_555 1_555
O26 C24_2 1_555 1_555
O28 C20_2 1_555 1_555
O12_2 Dy7 1_555 1_555
N2_2 H1_2 1_555 1_555
N3_2 N4_2 1_555 1_555
N4_2 C10_2 1_555 1_555
N5_2 N6_2 1_555 1_555
N6_2 C28_2 1_555 1_555
N7_2 H2_2 1_555 1_555
C4_2 C5_2 1_555 1_555
C5_2 H4_2 1_555 1_555
C6_2 C5_2 1_555 1_555
H5_2 C6_2 1_555 1_555
C7_2 C6_2 1_555 1_555
C8_2 C7_2 1_555 1_555
H6_2 C8_2 1_555 1_555
C9_2 C4_2 1_555 1_555
C10_2 N2_2 1_555 1_555
C11_2 N2_2 1_555 1_555
C12_2 C11_2 1_555 1_555
C13_2 C12_2 1_555 1_555
H8_2 C13_2 1_555 1_555
C14_2 C13_2 1_555 1_555
C15_2 O4_2 1_555 1_555
C16_2 C14_2 1_555 1_555
H9_2 C16_2 1_555 1_555
C17_2 C16_2 1_555 1_555
C18_2 C17_2 1_555 1_555
C19_2 C12_2 1_555 1_555
H10_2 C19_2 1_555 1_555
C20_2 C21_2 1_555 1_555
C21_2 C22_2 1_555 1_555
C22_2 H11_2 1_555 1_555
C23_2 C22_2 1_555 1_555
C24_2 C23_2 1_555 1_555
C25_2 C23_2 1_555 1_555
H12_2 C25_2 1_555 1_555
C26_2 C25_2 1_555 1_555
C27_2 C21_2 1_555 1_555
H13_2 C27_2 1_555 1_555
C28_2 N7_2 1_555 1_555
C29_2 N5_2 1_555 1_555
C30_2 C29_2 1_555 1_555
C31_2 C30_2 1_555 1_555
H14_2 C31_2 1_555 1_555
C32_2 C31_2 1_555 1_555
H15_2 C32_2 1_555 1_555
C33_2 C32_2 1_555 1_555
C34_2 O12_2 1_555 1_555
C35_2 C33_2 1_555 1_555
H16_2 C35_2 1_555 1_555
C36_2 C30_2 1_555 1_555
H17_2 C36_2 1_555 1_555
O27 Dy11 1_555 1_555
N3_2 C11_2 1_555 1_555
N7_2 C29_2 1_555 1_555
C7_2 C10_2 1_555 1_555
C8_2 C9_2 1_555 1_555
C14_2 C15_2 1_555 1_555
C17_2 C19_2 1_555 1_555
C26_2 C27_2 1_555 1_555
C26_2 C28_2 1_555 1_555
C33_2 C34_2 1_555 1_555
C35_2 C36_2 1_555 1_555
O21 C3_2 1_555 1_555
O22 C3_2 1_555 1_555

#END
