
###############################################################################
#
# This file contains modified crystal structure data generated from the
# MOF subset of the Cambridge Structural Database (CSD) v543 
# hosted by the Cambridge Crystallographic Data Centre (CCDC).
#
# This work is licensed under the Creative Commons
# Attribution-NonCommercial-ShareAlike 4.0 International License.
# To view a copy of this license, visit
# http://creativecommons.org/licenses/by-nc-sa/4.0/
# or send a letter to
# Creative Commons, PO Box 1866, Mountain View, CA 94042, USA.
#
# CIF created using the CSD Python API on 29 September 2022
# The structure has been converted into the P1 space group
# The structure has a 3D framework
# The original CSD entry MAKHOY is in the cubic crystal system
# The framework has been calculated to contain at least 10.0% void space
# The void calculation uses a probe of radius 1.32A, grid spacing 0.4
# H atom positions have been added when not included in the experimental data
# Generated hydrogen atom positions removed from atoms on special positions
#
###############################################################################

data_MAKHOY
_chemical_formula_moiety         '(C2880 H3648 N192 O2016 Zn480)n'
_symmetry_cell_setting           triclinic
_symmetry_space_group_name_H-M   'P 1'
_symmetry_Int_Tables_number      1
_space_group_name_Hall           'P 1'
loop_
_symmetry_equiv_pos_site_id
_symmetry_equiv_pos_as_xyz
1 x,y,z
_cell_length_a                   53.077(2)
_cell_length_b                   53.077(2)
_cell_length_c                   53.077(2)
_cell_angle_alpha                90
_cell_angle_beta                 90
_cell_angle_gamma                90
_cell_volume                     149527
loop_
_atom_site_label
_atom_site_type_symbol
_atom_site_fract_x
_atom_site_fract_y
_atom_site_fract_z
Zn1 Zn 0.39813(2) 0.5000 0.39124(2)
Zn2 Zn 0.35936(2) 0.5000 0.35071(2)
Zn3 Zn 0.39466(2) 0.64489(2) 0.25016(2)
O1 O 0.41264(9) 0.52713(8) 0.36897(9)
O2 O 0.38325(8) 0.52684(8) 0.33866(9)
O3 O 0.38241(7) 0.59425(8) 0.27558(8)
O4 O 0.41175(8) 0.62450(7) 0.27678(8)
O5 O 0.47359(8) 0.62607(8) 0.34443(9)
O6 O 0.47316(8) 0.59577(9) 0.37387(9)
O7 O 0.36807(7) 0.65569(8) 0.22493(7)
O8 O 0.33820(8) 0.62580(7) 0.22235(8)
O9 O 0.42227(16) 0.5000 0.41895(16)
O10 O 0.33428(15) 0.5000 0.32318(15)
O11 O 0.41931(7) 0.67071(7) 0.23801(7)
N1 N 0.43122(12) 0.68998(10) 0.20204(11)
C1 C 0.41417(11) 0.55933(11) 0.33785(12)
C2 C 0.40374(11) 0.56998(10) 0.31665(11)
H1 H 0.3900 0.5620 0.3085
C3 C 0.41339(10) 0.59250(11) 0.30713(11)
C4 C 0.43390(10) 0.60365(11) 0.31885(11)
H2 H 0.4409 0.6187 0.3121
C5 C 0.44426(11) 0.59321(11) 0.34019(12)
C6 C 0.43488(11) 0.56990(11) 0.35024(12)
H3 H 0.4423 0.5621 0.3645
C7 C 0.40267(12) 0.53569(12) 0.34872(13)
C8 C 0.40144(10) 0.60462(10) 0.28484(10)
C9 C 0.46663(11) 0.60588(14) 0.35347(13)
C10 C 0.33857(10) 0.65915(10) 0.19262(10)
C11 C 0.35048(9) 0.68015(11) 0.18295(11)
H4 H 0.3653 0.6863 0.1908
C12 C 0.35031(12) 0.64542(11) 0.21459(11)
C13 C 0.42248(12) 0.67200(12) 0.21484(13)
H5 H 0.4177 0.6575 0.2055
C14 C 0.4355(2) 0.68939(19) 0.17555(17)
H6 H 0.4348 0.6719 0.1696
H7 H 0.4521 0.6965 0.1718
H8 H 0.4225 0.6993 0.1670
C15 C 0.4321(2) 0.71422(16) 0.21336(17)
H9 H 0.4208 0.7146 0.2279
H10 H 0.4268 0.7269 0.2011
H11 H 0.4493 0.7178 0.2189
O12 O 0.34431(8) 0.72493(7) 0.13193(7)
O13 O 0.37420(7) 0.72235(8) 0.16180(8)
C16 C 0.34085(10) 0.69262(10) 0.16143(10)
C17 C 0.31985(11) 0.68295(11) 0.14952(9)
H12 H 0.3137 0.6908 0.1347
C18 C 0.35458(11) 0.71459(11) 0.14969(12)
O14 O 0.27507(7) 0.63193(7) 0.15569(8)
O15 O 0.27765(8) 0.66180(8) 0.12580(7)
C19 C 0.30738(10) 0.66143(10) 0.15915(10)
C20 C 0.31705(11) 0.64952(9) 0.18015(11)
H13 H 0.3092 0.6347 0.1863
C21 C 0.28541(11) 0.64969(12) 0.14542(11)
Zn4 Zn 0.39124(2) 0.60187(2) 0.5000
Zn5 Zn 0.35071(2) 0.64064(2) 0.5000
Zn6 Zn 0.25016(2) 0.60534(2) 0.35511(2)
O16 O 0.36897(9) 0.58736(9) 0.47287(8)
O17 O 0.33866(9) 0.61675(8) 0.47316(8)
O18 O 0.27558(8) 0.61759(7) 0.40575(8)
O19 O 0.27678(8) 0.58825(8) 0.37550(7)
O20 O 0.34443(9) 0.52641(8) 0.37393(8)
O21 O 0.37387(9) 0.52684(8) 0.40423(9)
O22 O 0.22493(7) 0.63193(7) 0.34431(8)
O23 O 0.22235(8) 0.66180(8) 0.37420(7)
O24 O 0.41895(16) 0.57773(16) 0.5000
O25 O 0.32318(15) 0.66572(15) 0.5000
O26 O 0.23801(7) 0.58069(7) 0.32929(7)
N2 N 0.20204(11) 0.56878(12) 0.31002(10)
C22 C 0.33785(12) 0.58583(11) 0.44067(11)
C23 C 0.31665(11) 0.59626(11) 0.43002(10)
H14 H 0.3085 0.6100 0.4380
C24 C 0.30713(11) 0.58661(10) 0.40750(11)
C25 C 0.31885(11) 0.56610(10) 0.39635(11)
H15 H 0.3121 0.5591 0.3813
C26 C 0.34019(12) 0.55574(11) 0.40679(11)
C27 C 0.35024(12) 0.56512(11) 0.43010(11)
H16 H 0.3645 0.5577 0.4379
C28 C 0.34872(13) 0.59733(12) 0.46431(12)
C29 C 0.28484(10) 0.59856(10) 0.39538(10)
C30 C 0.35347(13) 0.53337(11) 0.39412(14)
C31 C 0.19262(10) 0.66143(10) 0.34085(10)
C32 C 0.18295(11) 0.64952(9) 0.31985(11)
H17 H 0.1908 0.6347 0.3137
C33 C 0.21459(11) 0.64969(12) 0.35458(11)
C34 C 0.21484(13) 0.57752(12) 0.32800(12)
H18 H 0.2055 0.5823 0.3425
C35 C 0.17555(17) 0.5645(2) 0.31061(19)
H19 H 0.1696 0.5652 0.3281
H20 H 0.1718 0.5479 0.3035
H21 H 0.1670 0.5775 0.3007
C36 C 0.21336(17) 0.5679(2) 0.28578(16)
H22 H 0.2279 0.5792 0.2854
H23 H 0.2011 0.5732 0.2731
H24 H 0.2189 0.5507 0.2822
O27 O 0.13193(7) 0.65569(8) 0.27507(7)
O28 O 0.16180(8) 0.62580(7) 0.27765(8)
C37 C 0.16143(10) 0.65915(10) 0.30738(10)
C38 C 0.14952(9) 0.68015(11) 0.31705(11)
H25 H 0.1347 0.6863 0.3092
C39 C 0.14969(12) 0.64542(11) 0.28541(11)
O29 O 0.15569(8) 0.72493(7) 0.36807(7)
O30 O 0.12580(7) 0.72235(8) 0.33820(8)
C40 C 0.15915(10) 0.69262(10) 0.33857(10)
C41 C 0.18015(11) 0.68295(11) 0.35048(9)
H26 H 0.1863 0.6908 0.3653
C42 C 0.14542(11) 0.71459(11) 0.35031(12)
Zn7 Zn 0.5000 0.60876(2) 0.39813(2)
Zn8 Zn 0.5000 0.64929(2) 0.35936(2)
Zn9 Zn 0.35511(2) 0.74984(2) 0.39466(2)
O31 O 0.47287(8) 0.63103(9) 0.41264(9)
O32 O 0.47316(8) 0.66134(9) 0.38325(8)
O33 O 0.40575(8) 0.72442(8) 0.38241(7)
O34 O 0.37550(7) 0.72322(8) 0.41175(8)
O35 O 0.37393(8) 0.65557(9) 0.47359(8)
O36 O 0.40423(9) 0.62613(9) 0.47316(8)
O37 O 0.5000 0.58105(16) 0.42227(16)
O38 O 0.5000 0.67682(15) 0.33428(15)
O39 O 0.32929(7) 0.76199(7) 0.41931(7)
N3 N 0.31002(10) 0.79796(11) 0.43122(12)
C43 C 0.44067(11) 0.66215(12) 0.41417(11)
C44 C 0.43002(10) 0.68335(11) 0.40374(11)
H27 H 0.4380 0.6915 0.3900
C45 C 0.40750(11) 0.69287(11) 0.41339(10)
C46 C 0.39635(11) 0.68115(11) 0.43390(10)
H28 H 0.3813 0.6879 0.4409
C47 C 0.40679(11) 0.65981(12) 0.44426(11)
C48 C 0.43010(11) 0.64976(12) 0.43488(11)
H29 H 0.4379 0.6355 0.4423
C49 C 0.46431(12) 0.65128(13) 0.40267(12)
C50 C 0.39538(10) 0.71516(10) 0.40144(10)
C51 C 0.39412(14) 0.64653(13) 0.46663(11)
C52 C 0.32800(12) 0.78516(13) 0.42248(12)
H30 H 0.3425 0.7945 0.4177
C53 C 0.31061(19) 0.82445(17) 0.4355(2)
H31 H 0.3281 0.8304 0.4348
H32 H 0.3035 0.8282 0.4521
H33 H 0.3007 0.8330 0.4225
C54 C 0.28578(16) 0.78664(17) 0.4321(2)
H34 H 0.2854 0.7721 0.4208
H35 H 0.2731 0.7989 0.4268
H36 H 0.2822 0.7811 0.4493
Zn10 Zn 0.35511(2) 0.75016(2) 0.10534(2)
O40 O 0.47287(8) 0.86897(9) 0.08736(9)
O41 O 0.47316(8) 0.83866(9) 0.11675(8)
O42 O 0.40575(8) 0.77558(8) 0.11759(7)
O43 O 0.37550(7) 0.77678(8) 0.08825(8)
O44 O 0.37393(8) 0.84443(9) 0.02641(8)
O45 O 0.40423(9) 0.87387(9) 0.02684(8)
O46 O 0.32929(7) 0.73801(7) 0.08069(7)
N4 N 0.31002(10) 0.70204(11) 0.06878(12)
C55 C 0.44067(11) 0.83785(12) 0.08583(11)
C56 C 0.43002(10) 0.81665(11) 0.09626(11)
H37 H 0.4380 0.8085 0.1100
C57 C 0.40750(11) 0.80713(11) 0.08661(10)
C58 C 0.39635(11) 0.81885(11) 0.06610(10)
H38 H 0.3813 0.8121 0.0591
C59 C 0.40679(11) 0.84019(12) 0.05574(11)
C60 C 0.43010(11) 0.85024(12) 0.06512(11)
H39 H 0.4379 0.8645 0.0577
C61 C 0.46431(12) 0.84872(13) 0.09733(12)
C62 C 0.39538(10) 0.78484(10) 0.09856(10)
C63 C 0.39412(14) 0.85347(13) 0.03337(11)
C64 C 0.32800(12) 0.71484(13) 0.07752(12)
H40 H 0.3425 0.7055 0.0823
C65 C 0.31061(19) 0.67555(17) 0.0645(2)
H41 H 0.3281 0.6696 0.0652
H42 H 0.3035 0.6718 0.0479
H43 H 0.3007 0.6670 0.0775
C66 C 0.28578(16) 0.71336(17) 0.0679(2)
H44 H 0.2854 0.7279 0.0792
H45 H 0.2731 0.7011 0.0732
H46 H 0.2822 0.7189 0.0507
Zn11 Zn 0.14489(2) 0.60534(2) 0.25016(2)
O47 O 0.02713(8) 0.58736(9) 0.36897(9)
O48 O 0.02684(8) 0.61675(8) 0.33866(9)
O49 O 0.09425(8) 0.61759(7) 0.27558(8)
O50 O 0.12450(7) 0.58825(8) 0.27678(8)
O51 O 0.12607(8) 0.52641(8) 0.34443(9)
O52 O 0.09577(9) 0.52684(8) 0.37387(9)
O53 O 0.17071(7) 0.58069(7) 0.23801(7)
N5 N 0.18998(10) 0.56878(12) 0.20204(11)
C67 C 0.05933(11) 0.58583(11) 0.33785(12)
C68 C 0.06998(10) 0.59626(11) 0.31665(11)
H47 H 0.0620 0.6100 0.3085
C69 C 0.09250(11) 0.58661(10) 0.30713(11)
C70 C 0.10365(11) 0.56610(10) 0.31885(11)
H48 H 0.1187 0.5591 0.3121
C71 C 0.09321(11) 0.55574(11) 0.34019(12)
C72 C 0.06990(11) 0.56512(11) 0.35024(12)
H49 H 0.0621 0.5577 0.3645
C73 C 0.03569(12) 0.59733(12) 0.34872(13)
C74 C 0.10462(10) 0.59856(10) 0.28484(10)
C75 C 0.10588(14) 0.53337(11) 0.35347(13)
C76 C 0.17200(12) 0.57752(12) 0.21484(13)
H50 H 0.1575 0.5823 0.2055
C77 C 0.18939(19) 0.5645(2) 0.17555(17)
H51 H 0.1719 0.5652 0.1696
H52 H 0.1965 0.5479 0.1718
H53 H 0.1993 0.5775 0.1670
C78 C 0.21422(16) 0.5679(2) 0.21336(17)
H54 H 0.2146 0.5792 0.2279
H55 H 0.2269 0.5732 0.2011
H56 H 0.2178 0.5507 0.2189
Zn12 Zn 0.39466(2) 0.35511(2) 0.25016(2)
O54 O 0.41264(9) 0.47287(8) 0.36897(9)
O55 O 0.38325(8) 0.47316(8) 0.33866(9)
O56 O 0.38241(7) 0.40575(8) 0.27558(8)
O57 O 0.41175(8) 0.37550(7) 0.27678(8)
O58 O 0.47359(8) 0.37393(8) 0.34443(9)
O59 O 0.47316(8) 0.40423(9) 0.37387(9)
O60 O 0.41931(7) 0.32929(7) 0.23801(7)
N6 N 0.43122(12) 0.31002(10) 0.20204(11)
C79 C 0.41417(11) 0.44067(11) 0.33785(12)
C80 C 0.40374(11) 0.43002(10) 0.31665(11)
H57 H 0.3900 0.4380 0.3085
C81 C 0.41339(10) 0.40750(11) 0.30713(11)
C82 C 0.43390(10) 0.39635(11) 0.31885(11)
H58 H 0.4409 0.3813 0.3121
C83 C 0.44426(11) 0.40679(11) 0.34019(12)
C84 C 0.43488(11) 0.43010(11) 0.35024(12)
H59 H 0.4423 0.4379 0.3645
C85 C 0.40267(12) 0.46431(12) 0.34872(13)
C86 C 0.40144(10) 0.39538(10) 0.28484(10)
C87 C 0.46663(11) 0.39412(14) 0.35347(13)
C88 C 0.42248(12) 0.32800(12) 0.21484(13)
H60 H 0.4177 0.3425 0.2055
C89 C 0.4355(2) 0.31061(19) 0.17555(17)
H61 H 0.4348 0.3281 0.1696
H62 H 0.4521 0.3035 0.1718
H63 H 0.4225 0.3007 0.1670
C90 C 0.4321(2) 0.28578(16) 0.21336(17)
H64 H 0.4208 0.2854 0.2279
H65 H 0.4268 0.2731 0.2011
H66 H 0.4493 0.2822 0.2189
Zn13 Zn 0.5000 0.39124(2) 0.39813(2)
Zn14 Zn 0.39124(2) 0.89813(2) 0.0000
Zn15 Zn 0.5000 0.89124(2) 0.10187(2)
Zn16 Zn 0.0000 0.60187(2) 0.39124(2)
Zn17 Zn 0.10876(2) 0.5000 0.39813(2)
Zn18 Zn 0.5000 0.35071(2) 0.35936(2)
Zn19 Zn 0.35071(2) 0.85936(2) 0.0000
Zn20 Zn 0.5000 0.85071(2) 0.14064(2)
Zn21 Zn -0.0000 0.64064(2) 0.35071(2)
Zn22 Zn 0.14929(2) 0.5000 0.35936(2)
Zn23 Zn 0.10534(2) 0.74984(2) 0.35511(2)
Zn24 Zn 0.24984(2) 0.64489(2) 0.39466(2)
Zn25 Zn 0.10534(2) 0.64489(2) 0.24984(2)
Zn26 Zn 0.24984(2) 0.60534(2) 0.14489(2)
Zn27 Zn 0.39466(2) 0.75016(2) 0.35511(2)
Zn28 Zn 0.14489(2) 0.75016(2) 0.39466(2)
Zn29 Zn 0.35511(2) 0.60534(2) 0.24984(2)
Zn30 Zn 0.39466(2) 0.74984(2) 0.14489(2)
Zn31 Zn 0.25016(2) 0.64489(2) 0.10534(2)
Zn32 Zn 0.35511(2) 0.39466(2) 0.24984(2)
O61 O 0.36897(9) 0.58736(9) 0.52713(8)
O62 O 0.52713(8) 0.63103(9) 0.41264(9)
O63 O 0.33866(9) 0.61675(8) 0.52684(8)
O64 O 0.52684(8) 0.66134(9) 0.38325(8)
O65 O 0.22442(8) 0.59425(8) 0.38241(7)
O66 O 0.11759(7) 0.59425(8) 0.22442(8)
O67 O 0.38241(7) 0.77558(8) 0.40575(8)
O68 O 0.40575(8) 0.61759(7) 0.22442(8)
O69 O 0.38241(7) 0.72442(8) 0.09425(8)
O70 O 0.40575(8) 0.38241(7) 0.22442(8)
O71 O 0.52641(8) 0.62607(8) 0.34443(9)
O72 O 0.34443(9) 0.47359(8) 0.37393(8)
O73 O 0.37393(8) 0.65557(9) 0.52641(8)
O74 O 0.52684(8) 0.59577(9) 0.37387(9)
O75 O 0.37387(9) 0.47316(8) 0.40423(9)
O76 O 0.40423(9) 0.62613(9) 0.52684(8)
O77 O 0.34431(8) 0.77507(7) 0.36807(7)
O78 O 0.15569(8) 0.63193(7) 0.22493(7)
O79 O 0.36807(7) 0.34431(8) 0.22493(7)
O80 O 0.27765(8) 0.62580(7) 0.33820(8)
O81 O 0.33820(8) 0.72235(8) 0.37420(7)
O82 O 0.37420(7) 0.66180(8) 0.27765(8)
O83 O 0.33820(8) 0.77765(8) 0.12580(7)
O84 O 0.37420(7) 0.33820(8) 0.27765(8)
Zn14_2 Zn 0.39124(2) 0.89813(2) 1.0000
Zn19_2 Zn 0.35071(2) 0.85936(2) 1.0000
Zn16_2 Zn 1.0000 0.60187(2) 0.39124(2)
Zn21_2 Zn 1.0000 0.64064(2) 0.35071(2)
Zn16_3 Zn -0.0000 0.39813(2) 0.39124(2)
Zn21_3 Zn 0.0000 0.35936(2) 0.35071(2)
Zn1_2 Zn 0.60187(2) 0.5000 0.39124(2)
Zn2_2 Zn 0.64064(2) 0.5000 0.35071(2)
Zn3_2 Zn 0.60534(2) 0.35511(2) 0.25016(2)
O1_2 O 0.58736(9) 0.47287(8) 0.36897(9)
O2_2 O 0.61675(8) 0.47316(8) 0.33866(9)
O3_2 O 0.61759(7) 0.40575(8) 0.27558(8)
O4_2 O 0.58825(8) 0.37550(7) 0.27678(8)
O5_2 O 0.52641(8) 0.37393(8) 0.34443(9)
O6_2 O 0.52684(8) 0.40423(9) 0.37387(9)
O7_2 O 0.63193(7) 0.34431(8) 0.22493(7)
O8_2 O 0.66180(8) 0.37420(7) 0.22235(8)
O9_2 O 0.57773(16) 0.5000 0.41895(16)
O10_2 O 0.66572(15) 0.5000 0.32318(15)
O11_2 O 0.58069(7) 0.32929(7) 0.23801(7)
N1_2 N 0.56878(12) 0.31002(10) 0.20204(11)
C1_2 C 0.58583(11) 0.44067(11) 0.33785(12)
C2_2 C 0.59626(11) 0.43002(10) 0.31665(11)
H1_2 H 0.6100 0.4380 0.3085
C3_2 C 0.58661(10) 0.40750(11) 0.30713(11)
C4_2 C 0.56610(10) 0.39635(11) 0.31885(11)
H2_2 H 0.5591 0.3813 0.3121
C5_2 C 0.55574(11) 0.40679(11) 0.34019(12)
C6_2 C 0.56512(11) 0.43010(11) 0.35024(12)
H3_2 H 0.5577 0.4379 0.3645
C7_2 C 0.59733(12) 0.46431(12) 0.34872(13)
C8_2 C 0.59856(10) 0.39538(10) 0.28484(10)
C9_2 C 0.53337(11) 0.39412(14) 0.35347(13)
C10_2 C 0.66143(10) 0.34085(10) 0.19262(10)
C11_2 C 0.64952(9) 0.31985(11) 0.18295(11)
H4_2 H 0.6347 0.3137 0.1908
C12_2 C 0.64969(12) 0.35458(11) 0.21459(11)
C13_2 C 0.57752(12) 0.32800(12) 0.21484(13)
H5_2 H 0.5823 0.3425 0.2055
C14_2 C 0.5645(2) 0.31061(19) 0.17555(17)
H6_2 H 0.5652 0.3281 0.1696
H7_2 H 0.5479 0.3035 0.1718
H8_2 H 0.5775 0.3007 0.1670
C15_2 C 0.5679(2) 0.28578(16) 0.21336(17)
H9_2 H 0.5792 0.2854 0.2279
H10_2 H 0.5732 0.2731 0.2011
H11_2 H 0.5507 0.2822 0.2189
O12_2 O 0.65569(8) 0.27507(7) 0.13193(7)
O13_2 O 0.62580(7) 0.27765(8) 0.16180(8)
C16_2 C 0.65915(10) 0.30738(10) 0.16143(10)
C17_2 C 0.68015(11) 0.31705(11) 0.14952(9)
H12_2 H 0.6863 0.3092 0.1347
C18_2 C 0.64542(11) 0.28541(11) 0.14969(12)
O14_2 O 0.72493(7) 0.36807(7) 0.15569(8)
O15_2 O 0.72235(8) 0.33820(8) 0.12580(7)
C19_2 C 0.69262(10) 0.33857(10) 0.15915(10)
C20_2 C 0.68295(11) 0.35048(9) 0.18015(11)
H13_2 H 0.6908 0.3653 0.1863
C21_2 C 0.71459(11) 0.35031(12) 0.14542(11)
Zn4_2 Zn 0.60876(2) 0.39813(2) 0.5000
Zn5_2 Zn 0.64929(2) 0.35936(2) 0.5000
Zn6_2 Zn 0.74984(2) 0.39466(2) 0.35511(2)
O16_2 O 0.63103(9) 0.41264(9) 0.47287(8)
O17_2 O 0.66134(9) 0.38325(8) 0.47316(8)
O18_2 O 0.72442(8) 0.38241(7) 0.40575(8)
O19_2 O 0.72322(8) 0.41175(8) 0.37550(7)
O20_2 O 0.65557(9) 0.47359(8) 0.37393(8)
O21_2 O 0.62613(9) 0.47316(8) 0.40423(9)
O22_2 O 0.77507(7) 0.36807(7) 0.34431(8)
O23_2 O 0.77765(8) 0.33820(8) 0.37420(7)
O24_2 O 0.58105(16) 0.42227(16) 0.5000
O25_2 O 0.67682(15) 0.33428(15) 0.5000
O26_2 O 0.76199(7) 0.41931(7) 0.32929(7)
N2_2 N 0.79796(11) 0.43122(12) 0.31002(10)
C22_2 C 0.66215(12) 0.41417(11) 0.44067(11)
C23_2 C 0.68335(11) 0.40374(11) 0.43002(10)
H14_2 H 0.6915 0.3900 0.4380
C24_2 C 0.69287(11) 0.41339(10) 0.40750(11)
C25_2 C 0.68115(11) 0.43390(10) 0.39635(11)
H15_2 H 0.6879 0.4409 0.3813
C26_2 C 0.65981(12) 0.44426(11) 0.40679(11)
C27_2 C 0.64976(12) 0.43488(11) 0.43010(11)
H16_2 H 0.6355 0.4423 0.4379
C28_2 C 0.65128(13) 0.40267(12) 0.46431(12)
C29_2 C 0.71516(10) 0.40144(10) 0.39538(10)
C30_2 C 0.64653(13) 0.46663(11) 0.39412(14)
C31_2 C 0.80738(10) 0.33857(10) 0.34085(10)
C32_2 C 0.81705(11) 0.35048(9) 0.31985(11)
H17_2 H 0.8092 0.3653 0.3137
C33_2 C 0.78541(11) 0.35031(12) 0.35458(11)
C34_2 C 0.78516(13) 0.42248(12) 0.32800(12)
H18_2 H 0.7945 0.4177 0.3425
C35_2 C 0.82445(17) 0.4355(2) 0.31061(19)
H19_2 H 0.8304 0.4348 0.3281
H20_2 H 0.8282 0.4521 0.3035
H21_2 H 0.8330 0.4225 0.3007
C36_2 C 0.78664(17) 0.4321(2) 0.28578(16)
H22_2 H 0.7721 0.4208 0.2854
H23_2 H 0.7989 0.4268 0.2731
H24_2 H 0.7811 0.4493 0.2822
O27_2 O 0.86807(7) 0.34431(8) 0.27507(7)
O28_2 O 0.83820(8) 0.37420(7) 0.27765(8)
C37_2 C 0.83857(10) 0.34085(10) 0.30738(10)
C38_2 C 0.85048(9) 0.31985(11) 0.31705(11)
H25_2 H 0.8653 0.3137 0.3092
C39_2 C 0.85031(12) 0.35458(11) 0.28541(11)
O29_2 O 0.84431(8) 0.27507(7) 0.36807(7)
O30_2 O 0.87420(7) 0.27765(8) 0.33820(8)
C40_2 C 0.84085(10) 0.30738(10) 0.33857(10)
C41_2 C 0.81985(11) 0.31705(11) 0.35048(9)
H26_2 H 0.8137 0.3092 0.3653
C42_2 C 0.85458(11) 0.28541(11) 0.35031(12)
Zn9_2 Zn 0.64489(2) 0.25016(2) 0.39466(2)
O31_2 O 0.52713(8) 0.36897(9) 0.41264(9)
O32_2 O 0.52684(8) 0.33866(9) 0.38325(8)
O33_2 O 0.59425(8) 0.27558(8) 0.38241(7)
O34_2 O 0.62450(7) 0.27678(8) 0.41175(8)
O35_2 O 0.62607(8) 0.34443(9) 0.47359(8)
O36_2 O 0.59577(9) 0.37387(9) 0.47316(8)
O37_2 O 0.5000 0.41895(16) 0.42227(16)
O38_2 O 0.5000 0.32318(15) 0.33428(15)
O39_2 O 0.67071(7) 0.23801(7) 0.41931(7)
N3_2 N 0.68998(10) 0.20204(11) 0.43122(12)
C43_2 C 0.55933(11) 0.33785(12) 0.41417(11)
C44_2 C 0.56998(10) 0.31665(11) 0.40374(11)
H27_2 H 0.5620 0.3085 0.3900
C45_2 C 0.59250(11) 0.30713(11) 0.41339(10)
C46_2 C 0.60365(11) 0.31885(11) 0.43390(10)
H28_2 H 0.6187 0.3121 0.4409
C47_2 C 0.59321(11) 0.34019(12) 0.44426(11)
C48_2 C 0.56990(11) 0.35024(12) 0.43488(11)
H29_2 H 0.5621 0.3645 0.4423
C49_2 C 0.53569(12) 0.34872(13) 0.40267(12)
C50_2 C 0.60462(10) 0.28484(10) 0.40144(10)
C51_2 C 0.60588(14) 0.35347(13) 0.46663(11)
C52_2 C 0.67200(12) 0.21484(13) 0.42248(12)
H30_2 H 0.6575 0.2055 0.4177
C53_2 C 0.68939(19) 0.17555(17) 0.4355(2)
H31_2 H 0.6719 0.1696 0.4348
H32_2 H 0.6965 0.1718 0.4521
H33_2 H 0.6993 0.1670 0.4225
C54_2 C 0.71422(16) 0.21336(17) 0.4321(2)
H34_2 H 0.7146 0.2279 0.4208
H35_2 H 0.7269 0.2011 0.4268
H36_2 H 0.7178 0.2189 0.4493
Zn10_2 Zn 0.64489(2) 0.24984(2) 0.10534(2)
O40_2 O 0.52713(8) 0.13103(9) 0.08736(9)
O41_2 O 0.52684(8) 0.16134(9) 0.11675(8)
O42_2 O 0.59425(8) 0.22442(8) 0.11759(7)
O43_2 O 0.62450(7) 0.22322(8) 0.08825(8)
O44_2 O 0.62607(8) 0.15557(9) 0.02641(8)
O45_2 O 0.59577(9) 0.12613(9) 0.02684(8)
O46_2 O 0.67071(7) 0.26199(7) 0.08069(7)
N4_2 N 0.68998(10) 0.29796(11) 0.06878(12)
C55_2 C 0.55933(11) 0.16215(12) 0.08583(11)
C56_2 C 0.56998(10) 0.18335(11) 0.09626(11)
H37_2 H 0.5620 0.1915 0.1100
C57_2 C 0.59250(11) 0.19287(11) 0.08661(10)
C58_2 C 0.60365(11) 0.18115(11) 0.06610(10)
H38_2 H 0.6187 0.1879 0.0591
C59_2 C 0.59321(11) 0.15981(12) 0.05574(11)
C60_2 C 0.56990(11) 0.14976(12) 0.06512(11)
H39_2 H 0.5621 0.1355 0.0577
C61_2 C 0.53569(12) 0.15128(13) 0.09733(12)
C62_2 C 0.60462(10) 0.21516(10) 0.09856(10)
C63_2 C 0.60588(14) 0.14653(13) 0.03337(11)
C64_2 C 0.67200(12) 0.28516(13) 0.07752(12)
H40_2 H 0.6575 0.2945 0.0823
C65_2 C 0.68939(19) 0.32445(17) 0.0645(2)
H41_2 H 0.6719 0.3304 0.0652
H42_2 H 0.6965 0.3282 0.0479
H43_2 H 0.6993 0.3330 0.0775
C66_2 C 0.71422(16) 0.28664(17) 0.0679(2)
H44_2 H 0.7146 0.2721 0.0792
H45_2 H 0.7269 0.2989 0.0732
H46_2 H 0.7178 0.2811 0.0507
Zn11_2 Zn 0.85511(2) 0.39466(2) 0.25016(2)
O47_2 O 0.97287(8) 0.41264(9) 0.36897(9)
O48_2 O 0.97316(8) 0.38325(8) 0.33866(9)
O49_2 O 0.90575(8) 0.38241(7) 0.27558(8)
O50_2 O 0.87550(7) 0.41175(8) 0.27678(8)
O51_2 O 0.87393(8) 0.47359(8) 0.34443(9)
O52_2 O 0.90423(9) 0.47316(8) 0.37387(9)
O53_2 O 0.82929(7) 0.41931(7) 0.23801(7)
N5_2 N 0.81002(10) 0.43122(12) 0.20204(11)
C67_2 C 0.94067(11) 0.41417(11) 0.33785(12)
C68_2 C 0.93002(10) 0.40374(11) 0.31665(11)
H47_2 H 0.9380 0.3900 0.3085
C69_2 C 0.90750(11) 0.41339(10) 0.30713(11)
C70_2 C 0.89635(11) 0.43390(10) 0.31885(11)
H48_2 H 0.8813 0.4409 0.3121
C71_2 C 0.90679(11) 0.44426(11) 0.34019(12)
C72_2 C 0.93010(11) 0.43488(11) 0.35024(12)
H49_2 H 0.9379 0.4423 0.3645
C73_2 C 0.96431(12) 0.40267(12) 0.34872(13)
C74_2 C 0.89538(10) 0.40144(10) 0.28484(10)
C75_2 C 0.89412(14) 0.46663(11) 0.35347(13)
C76_2 C 0.82800(12) 0.42248(12) 0.21484(13)
H50_2 H 0.8425 0.4177 0.2055
C77_2 C 0.81061(19) 0.4355(2) 0.17555(17)
H51_2 H 0.8281 0.4348 0.1696
H52_2 H 0.8035 0.4521 0.1718
H53_2 H 0.8007 0.4225 0.1670
C78_2 C 0.78578(16) 0.4321(2) 0.21336(17)
H54_2 H 0.7854 0.4208 0.2279
H55_2 H 0.7731 0.4268 0.2011
H56_2 H 0.7822 0.4493 0.2189
Zn12_2 Zn 0.60534(2) 0.64489(2) 0.25016(2)
O54_2 O 0.58736(9) 0.52713(8) 0.36897(9)
O55_2 O 0.61675(8) 0.52684(8) 0.33866(9)
O56_2 O 0.61759(7) 0.59425(8) 0.27558(8)
O57_2 O 0.58825(8) 0.62450(7) 0.27678(8)
O60_2 O 0.58069(7) 0.67071(7) 0.23801(7)
N6_2 N 0.56878(12) 0.68998(10) 0.20204(11)
C79_2 C 0.58583(11) 0.55933(11) 0.33785(12)
C80_2 C 0.59626(11) 0.56998(10) 0.31665(11)
H57_2 H 0.6100 0.5620 0.3085
C81_2 C 0.58661(10) 0.59250(11) 0.30713(11)
C82_2 C 0.56610(10) 0.60365(11) 0.31885(11)
H58_2 H 0.5591 0.6187 0.3121
C83_2 C 0.55574(11) 0.59321(11) 0.34019(12)
C84_2 C 0.56512(11) 0.56990(11) 0.35024(12)
H59_2 H 0.5577 0.5621 0.3645
C85_2 C 0.59733(12) 0.53569(12) 0.34872(13)
C86_2 C 0.59856(10) 0.60462(10) 0.28484(10)
C87_2 C 0.53337(11) 0.60588(14) 0.35347(13)
C88_2 C 0.57752(12) 0.67200(12) 0.21484(13)
H60_2 H 0.5823 0.6575 0.2055
C89_2 C 0.5645(2) 0.68939(19) 0.17555(17)
H61_2 H 0.5652 0.6719 0.1696
H62_2 H 0.5479 0.6965 0.1718
H63_2 H 0.5775 0.6993 0.1670
C90_2 C 0.5679(2) 0.71422(16) 0.21336(17)
H64_2 H 0.5792 0.7146 0.2279
H65_2 H 0.5732 0.7269 0.2011
H66_2 H 0.5507 0.7178 0.2189
Zn14_3 Zn 0.60876(2) 0.10187(2) 0.0000
Zn15_2 Zn 0.5000 0.10876(2) 0.10187(2)
Zn16_4 Zn 1.0000 0.39813(2) 0.39124(2)
Zn17_2 Zn 0.89124(2) 0.5000 0.39813(2)
Zn19_3 Zn 0.64929(2) 0.14064(2) 0.0000
Zn20_2 Zn 0.5000 0.14929(2) 0.14064(2)
Zn21_4 Zn 1.0000 0.35936(2) 0.35071(2)
Zn22_2 Zn 0.85071(2) 0.5000 0.35936(2)
Zn23_2 Zn 0.89466(2) 0.25016(2) 0.35511(2)
Zn24_2 Zn 0.75016(2) 0.35511(2) 0.39466(2)
Zn25_2 Zn 0.89466(2) 0.35511(2) 0.24984(2)
Zn26_2 Zn 0.75016(2) 0.39466(2) 0.14489(2)
Zn27_2 Zn 0.60534(2) 0.24984(2) 0.35511(2)
Zn28_2 Zn 0.85511(2) 0.24984(2) 0.39466(2)
Zn29_2 Zn 0.64489(2) 0.39466(2) 0.24984(2)
Zn30_2 Zn 0.60534(2) 0.25016(2) 0.14489(2)
Zn31_2 Zn 0.74984(2) 0.35511(2) 0.10534(2)
Zn32_2 Zn 0.64489(2) 0.60534(2) 0.24984(2)
O61_2 O 0.63103(9) 0.41264(9) 0.52713(8)
O62_2 O 0.47287(8) 0.36897(9) 0.41264(9)
O63_2 O 0.66134(9) 0.38325(8) 0.52684(8)
O64_2 O 0.47316(8) 0.33866(9) 0.38325(8)
O65_2 O 0.77558(8) 0.40575(8) 0.38241(7)
O66_2 O 0.88241(7) 0.40575(8) 0.22442(8)
O67_2 O 0.61759(7) 0.22442(8) 0.40575(8)
O68_2 O 0.59425(8) 0.38241(7) 0.22442(8)
O69_2 O 0.61759(7) 0.27558(8) 0.09425(8)
O70_2 O 0.59425(8) 0.61759(7) 0.22442(8)
O72_2 O 0.65557(9) 0.52641(8) 0.37393(8)
O73_2 O 0.62607(8) 0.34443(9) 0.52641(8)
O75_2 O 0.62613(9) 0.52684(8) 0.40423(9)
O76_2 O 0.59577(9) 0.37387(9) 0.52684(8)
O77_2 O 0.65569(8) 0.22493(7) 0.36807(7)
O78_2 O 0.84431(8) 0.36807(7) 0.22493(7)
O79_2 O 0.63193(7) 0.65569(8) 0.22493(7)
O80_2 O 0.72235(8) 0.37420(7) 0.33820(8)
O81_2 O 0.66180(8) 0.27765(8) 0.37420(7)
O82_2 O 0.62580(7) 0.33820(8) 0.27765(8)
O83_2 O 0.66180(8) 0.22235(8) 0.12580(7)
O84_2 O 0.62580(7) 0.66180(8) 0.27765(8)
Zn14_4 Zn 0.60876(2) 0.10187(2) 1.0000
Zn19_4 Zn 0.64929(2) 0.14064(2) 1.0000
Zn16_5 Zn -0.0000 0.60187(2) 0.60876(2)
Zn21_5 Zn -0.0000 0.64064(2) 0.64929(2)
Zn14_5 Zn 0.60876(2) 0.89813(2) 0.0000
Zn19_5 Zn 0.64929(2) 0.85936(2) 0.0000
Zn1_3 Zn 0.60187(2) 0.5000 0.60876(2)
Zn2_3 Zn 0.64064(2) 0.5000 0.64929(2)
Zn3_3 Zn 0.60534(2) 0.64489(2) 0.74984(2)
O1_3 O 0.58736(9) 0.52713(8) 0.63103(9)
O2_3 O 0.61675(8) 0.52684(8) 0.66134(9)
O3_3 O 0.61759(7) 0.59425(8) 0.72442(8)
O4_3 O 0.58825(8) 0.62450(7) 0.72322(8)
O5_3 O 0.52641(8) 0.62607(8) 0.65557(9)
O6_3 O 0.52684(8) 0.59577(9) 0.62613(9)
O7_3 O 0.63193(7) 0.65569(8) 0.77507(7)
O8_3 O 0.66180(8) 0.62580(7) 0.77765(8)
O9_3 O 0.57773(16) 0.5000 0.58105(16)
O10_3 O 0.66572(15) 0.5000 0.67682(15)
O11_3 O 0.58069(7) 0.67071(7) 0.76199(7)
N1_3 N 0.56878(12) 0.68998(10) 0.79796(11)
C1_3 C 0.58583(11) 0.55933(11) 0.66215(12)
C2_3 C 0.59626(11) 0.56998(10) 0.68335(11)
H1_3 H 0.6100 0.5620 0.6915
C3_3 C 0.58661(10) 0.59250(11) 0.69287(11)
C4_3 C 0.56610(10) 0.60365(11) 0.68115(11)
H2_3 H 0.5591 0.6187 0.6879
C5_3 C 0.55574(11) 0.59321(11) 0.65981(12)
C6_3 C 0.56512(11) 0.56990(11) 0.64976(12)
H3_3 H 0.5577 0.5621 0.6355
C7_3 C 0.59733(12) 0.53569(12) 0.65128(13)
C8_3 C 0.59856(10) 0.60462(10) 0.71516(10)
C9_3 C 0.53337(11) 0.60588(14) 0.64653(13)
C10_3 C 0.66143(10) 0.65915(10) 0.80738(10)
C11_3 C 0.64952(9) 0.68015(11) 0.81705(11)
H4_3 H 0.6347 0.6863 0.8092
C12_3 C 0.64969(12) 0.64542(11) 0.78541(11)
C13_3 C 0.57752(12) 0.67200(12) 0.78516(13)
H5_3 H 0.5823 0.6575 0.7945
C14_3 C 0.5645(2) 0.68939(19) 0.82445(17)
H6_3 H 0.5652 0.6719 0.8304
H7_3 H 0.5479 0.6965 0.8282
H8_3 H 0.5775 0.6993 0.8330
C15_3 C 0.5679(2) 0.71422(16) 0.78664(17)
H9_3 H 0.5792 0.7146 0.7721
H10_3 H 0.5732 0.7269 0.7989
H11_3 H 0.5507 0.7178 0.7811
O12_3 O 0.65569(8) 0.72493(7) 0.86807(7)
O13_3 O 0.62580(7) 0.72235(8) 0.83820(8)
C16_3 C 0.65915(10) 0.69262(10) 0.83857(10)
C17_3 C 0.68015(11) 0.68295(11) 0.85048(9)
H12_3 H 0.6863 0.6908 0.8653
C18_3 C 0.64542(11) 0.71459(11) 0.85031(12)
O14_3 O 0.72493(7) 0.63193(7) 0.84431(8)
O15_3 O 0.72235(8) 0.66180(8) 0.87420(7)
C19_3 C 0.69262(10) 0.66143(10) 0.84085(10)
C20_3 C 0.68295(11) 0.64952(9) 0.81985(11)
H13_3 H 0.6908 0.6347 0.8137
C21_3 C 0.71459(11) 0.64969(12) 0.85458(11)
Zn4_3 Zn 0.60876(2) 0.60187(2) 0.5000
Zn5_3 Zn 0.64929(2) 0.64064(2) 0.5000
Zn6_3 Zn 0.74984(2) 0.60534(2) 0.64489(2)
O16_3 O 0.63103(9) 0.58736(9) 0.52713(8)
O17_3 O 0.66134(9) 0.61675(8) 0.52684(8)
O18_3 O 0.72442(8) 0.61759(7) 0.59425(8)
O19_3 O 0.72322(8) 0.58825(8) 0.62450(7)
O20_3 O 0.65557(9) 0.52641(8) 0.62607(8)
O21_3 O 0.62613(9) 0.52684(8) 0.59577(9)
O22_3 O 0.77507(7) 0.63193(7) 0.65569(8)
O23_3 O 0.77765(8) 0.66180(8) 0.62580(7)
O24_3 O 0.58105(16) 0.57773(16) 0.5000
O25_3 O 0.67682(15) 0.66572(15) 0.5000
O26_3 O 0.76199(7) 0.58069(7) 0.67071(7)
N2_3 N 0.79796(11) 0.56878(12) 0.68998(10)
C22_3 C 0.66215(12) 0.58583(11) 0.55933(11)
C23_3 C 0.68335(11) 0.59626(11) 0.56998(10)
H14_3 H 0.6915 0.6100 0.5620
C24_3 C 0.69287(11) 0.58661(10) 0.59250(11)
C25_3 C 0.68115(11) 0.56610(10) 0.60365(11)
H15_3 H 0.6879 0.5591 0.6187
C26_3 C 0.65981(12) 0.55574(11) 0.59321(11)
C27_3 C 0.64976(12) 0.56512(11) 0.56990(11)
H16_3 H 0.6355 0.5577 0.5621
C28_3 C 0.65128(13) 0.59733(12) 0.53569(12)
C29_3 C 0.71516(10) 0.59856(10) 0.60462(10)
C30_3 C 0.64653(13) 0.53337(11) 0.60588(14)
C31_3 C 0.80738(10) 0.66143(10) 0.65915(10)
C32_3 C 0.81705(11) 0.64952(9) 0.68015(11)
H17_3 H 0.8092 0.6347 0.6863
C33_3 C 0.78541(11) 0.64969(12) 0.64542(11)
C34_3 C 0.78516(13) 0.57752(12) 0.67200(12)
H18_3 H 0.7945 0.5823 0.6575
C35_3 C 0.82445(17) 0.5645(2) 0.68939(19)
H19_3 H 0.8304 0.5652 0.6719
H20_3 H 0.8282 0.5479 0.6965
H21_3 H 0.8330 0.5775 0.6993
C36_3 C 0.78664(17) 0.5679(2) 0.71422(16)
H22_3 H 0.7721 0.5792 0.7146
H23_3 H 0.7989 0.5732 0.7269
H24_3 H 0.7811 0.5507 0.7178
O27_3 O 0.86807(7) 0.65569(8) 0.72493(7)
O28_3 O 0.83820(8) 0.62580(7) 0.72235(8)
C37_3 C 0.83857(10) 0.65915(10) 0.69262(10)
C38_3 C 0.85048(9) 0.68015(11) 0.68295(11)
H25_3 H 0.8653 0.6863 0.6908
C39_3 C 0.85031(12) 0.64542(11) 0.71459(11)
O29_3 O 0.84431(8) 0.72493(7) 0.63193(7)
O30_3 O 0.87420(7) 0.72235(8) 0.66180(8)
C40_3 C 0.84085(10) 0.69262(10) 0.66143(10)
C41_3 C 0.81985(11) 0.68295(11) 0.64952(9)
H26_3 H 0.8137 0.6908 0.6347
C42_3 C 0.85458(11) 0.71459(11) 0.64969(12)
Zn7_2 Zn 0.5000 0.60876(2) 0.60187(2)
Zn8_2 Zn 0.5000 0.64929(2) 0.64064(2)
Zn9_3 Zn 0.64489(2) 0.74984(2) 0.60534(2)
O31_3 O 0.52713(8) 0.63103(9) 0.58736(9)
O32_3 O 0.52684(8) 0.66134(9) 0.61675(8)
O33_3 O 0.59425(8) 0.72442(8) 0.61759(7)
O34_3 O 0.62450(7) 0.72322(8) 0.58825(8)
O35_3 O 0.62607(8) 0.65557(9) 0.52641(8)
O36_3 O 0.59577(9) 0.62613(9) 0.52684(8)
O37_3 O 0.5000 0.58105(16) 0.57773(16)
O38_3 O 0.5000 0.67682(15) 0.66572(15)
O39_3 O 0.67071(7) 0.76199(7) 0.58069(7)
N3_3 N 0.68998(10) 0.79796(11) 0.56878(12)
C43_3 C 0.55933(11) 0.66215(12) 0.58583(11)
C44_3 C 0.56998(10) 0.68335(11) 0.59626(11)
H27_3 H 0.5620 0.6915 0.6100
C45_3 C 0.59250(11) 0.69287(11) 0.58661(10)
C46_3 C 0.60365(11) 0.68115(11) 0.56610(10)
H28_3 H 0.6187 0.6879 0.5591
C47_3 C 0.59321(11) 0.65981(12) 0.55574(11)
C48_3 C 0.56990(11) 0.64976(12) 0.56512(11)
H29_3 H 0.5621 0.6355 0.5577
C49_3 C 0.53569(12) 0.65128(13) 0.59733(12)
C50_3 C 0.60462(10) 0.71516(10) 0.59856(10)
C51_3 C 0.60588(14) 0.64653(13) 0.53337(11)
C52_3 C 0.67200(12) 0.78516(13) 0.57752(12)
H30_3 H 0.6575 0.7945 0.5823
C53_3 C 0.68939(19) 0.82445(17) 0.5645(2)
H31_3 H 0.6719 0.8304 0.5652
H32_3 H 0.6965 0.8282 0.5479
H33_3 H 0.6993 0.8330 0.5775
C54_3 C 0.71422(16) 0.78664(17) 0.5679(2)
H34_3 H 0.7146 0.7721 0.5792
H35_3 H 0.7269 0.7989 0.5732
H36_3 H 0.7178 0.7811 0.5507
Zn10_3 Zn 0.64489(2) 0.75016(2) 0.89466(2)
O40_3 O 0.52713(8) 0.86897(9) 0.91264(9)
O41_3 O 0.52684(8) 0.83866(9) 0.88325(8)
O42_3 O 0.59425(8) 0.77558(8) 0.88241(7)
O43_3 O 0.62450(7) 0.77678(8) 0.91175(8)
O44_3 O 0.62607(8) 0.84443(9) 0.97359(8)
O45_3 O 0.59577(9) 0.87387(9) 0.97316(8)
O46_3 O 0.67071(7) 0.73801(7) 0.91931(7)
N4_3 N 0.68998(10) 0.70204(11) 0.93122(12)
C55_3 C 0.55933(11) 0.83785(12) 0.91417(11)
C56_3 C 0.56998(10) 0.81665(11) 0.90374(11)
H37_3 H 0.5620 0.8085 0.8900
C57_3 C 0.59250(11) 0.80713(11) 0.91339(10)
C58_3 C 0.60365(11) 0.81885(11) 0.93390(10)
H38_3 H 0.6187 0.8121 0.9409
C59_3 C 0.59321(11) 0.84019(12) 0.94426(11)
C60_3 C 0.56990(11) 0.85024(12) 0.93488(11)
H39_3 H 0.5621 0.8645 0.9423
C61_3 C 0.53569(12) 0.84872(13) 0.90267(12)
C62_3 C 0.60462(10) 0.78484(10) 0.90144(10)
C63_3 C 0.60588(14) 0.85347(13) 0.96663(11)
C64_3 C 0.67200(12) 0.71484(13) 0.92248(12)
H40_3 H 0.6575 0.7055 0.9177
C65_3 C 0.68939(19) 0.67555(17) 0.9355(2)
H41_3 H 0.6719 0.6696 0.9348
H42_3 H 0.6965 0.6718 0.9521
H43_3 H 0.6993 0.6670 0.9225
C66_3 C 0.71422(16) 0.71336(17) 0.9321(2)
H44_3 H 0.7146 0.7279 0.9208
H45_3 H 0.7269 0.7011 0.9268
H46_3 H 0.7178 0.7189 0.9493
Zn11_3 Zn 0.85511(2) 0.60534(2) 0.74984(2)
O47_3 O 0.97287(8) 0.58736(9) 0.63103(9)
O48_3 O 0.97316(8) 0.61675(8) 0.66134(9)
O49_3 O 0.90575(8) 0.61759(7) 0.72442(8)
O50_3 O 0.87550(7) 0.58825(8) 0.72322(8)
O51_3 O 0.87393(8) 0.52641(8) 0.65557(9)
O52_3 O 0.90423(9) 0.52684(8) 0.62613(9)
O53_3 O 0.82929(7) 0.58069(7) 0.76199(7)
N5_3 N 0.81002(10) 0.56878(12) 0.79796(11)
C67_3 C 0.94067(11) 0.58583(11) 0.66215(12)
C68_3 C 0.93002(10) 0.59626(11) 0.68335(11)
H47_3 H 0.9380 0.6100 0.6915
C69_3 C 0.90750(11) 0.58661(10) 0.69287(11)
C70_3 C 0.89635(11) 0.56610(10) 0.68115(11)
H48_3 H 0.8813 0.5591 0.6879
C71_3 C 0.90679(11) 0.55574(11) 0.65981(12)
C72_3 C 0.93010(11) 0.56512(11) 0.64976(12)
H49_3 H 0.9379 0.5577 0.6355
C73_3 C 0.96431(12) 0.59733(12) 0.65128(13)
C74_3 C 0.89538(10) 0.59856(10) 0.71516(10)
C75_3 C 0.89412(14) 0.53337(11) 0.64653(13)
C76_3 C 0.82800(12) 0.57752(12) 0.78516(13)
H50_3 H 0.8425 0.5823 0.7945
C77_3 C 0.81061(19) 0.5645(2) 0.82445(17)
H51_3 H 0.8281 0.5652 0.8304
H52_3 H 0.8035 0.5479 0.8282
H53_3 H 0.8007 0.5775 0.8330
C78_3 C 0.78578(16) 0.5679(2) 0.78664(17)
H54_3 H 0.7854 0.5792 0.7721
H55_3 H 0.7731 0.5732 0.7989
H56_3 H 0.7822 0.5507 0.7811
Zn12_3 Zn 0.60534(2) 0.35511(2) 0.74984(2)
O54_3 O 0.58736(9) 0.47287(8) 0.63103(9)
O55_3 O 0.61675(8) 0.47316(8) 0.66134(9)
O56_3 O 0.61759(7) 0.40575(8) 0.72442(8)
O57_3 O 0.58825(8) 0.37550(7) 0.72322(8)
O58_2 O 0.52641(8) 0.37393(8) 0.65557(9)
O59_2 O 0.52684(8) 0.40423(9) 0.62613(9)
O60_3 O 0.58069(7) 0.32929(7) 0.76199(7)
N6_3 N 0.56878(12) 0.31002(10) 0.79796(11)
C79_3 C 0.58583(11) 0.44067(11) 0.66215(12)
C80_3 C 0.59626(11) 0.43002(10) 0.68335(11)
H57_3 H 0.6100 0.4380 0.6915
C81_3 C 0.58661(10) 0.40750(11) 0.69287(11)
C82_3 C 0.56610(10) 0.39635(11) 0.68115(11)
H58_3 H 0.5591 0.3813 0.6879
C83_3 C 0.55574(11) 0.40679(11) 0.65981(12)
C84_3 C 0.56512(11) 0.43010(11) 0.64976(12)
H59_3 H 0.5577 0.4379 0.6355
C85_3 C 0.59733(12) 0.46431(12) 0.65128(13)
C86_3 C 0.59856(10) 0.39538(10) 0.71516(10)
C87_3 C 0.53337(11) 0.39412(14) 0.64653(13)
C88_3 C 0.57752(12) 0.32800(12) 0.78516(13)
H60_3 H 0.5823 0.3425 0.7945
C89_3 C 0.5645(2) 0.31061(19) 0.82445(17)
H61_3 H 0.5652 0.3281 0.8304
H62_3 H 0.5479 0.3035 0.8282
H63_3 H 0.5775 0.3007 0.8330
C90_3 C 0.5679(2) 0.28578(16) 0.78664(17)
H64_3 H 0.5792 0.2854 0.7721
H65_3 H 0.5732 0.2731 0.7989
H66_3 H 0.5507 0.2822 0.7811
Zn13_2 Zn 0.5000 0.39124(2) 0.60187(2)
Zn14_6 Zn 0.60876(2) 0.89813(2) 1.0000
Zn15_3 Zn 0.5000 0.89124(2) 0.89813(2)
Zn16_6 Zn 1.0000 0.60187(2) 0.60876(2)
Zn17_3 Zn 0.89124(2) 0.5000 0.60187(2)
Zn18_2 Zn 0.5000 0.35071(2) 0.64064(2)
Zn19_6 Zn 0.64929(2) 0.85936(2) 1.0000
Zn20_3 Zn 0.5000 0.85071(2) 0.85936(2)
Zn21_6 Zn 1.0000 0.64064(2) 0.64929(2)
Zn22_3 Zn 0.85071(2) 0.5000 0.64064(2)
Zn23_3 Zn 0.89466(2) 0.74984(2) 0.64489(2)
Zn24_3 Zn 0.75016(2) 0.64489(2) 0.60534(2)
Zn25_3 Zn 0.89466(2) 0.64489(2) 0.75016(2)
Zn26_3 Zn 0.75016(2) 0.60534(2) 0.85511(2)
Zn27_3 Zn 0.60534(2) 0.75016(2) 0.64489(2)
Zn28_3 Zn 0.85511(2) 0.75016(2) 0.60534(2)
Zn29_3 Zn 0.64489(2) 0.60534(2) 0.75016(2)
Zn30_3 Zn 0.60534(2) 0.74984(2) 0.85511(2)
Zn31_3 Zn 0.74984(2) 0.64489(2) 0.89466(2)
Zn32_3 Zn 0.64489(2) 0.39466(2) 0.75016(2)
O61_3 O 0.63103(9) 0.58736(9) 0.47287(8)
O62_3 O 0.47287(8) 0.63103(9) 0.58736(9)
O63_3 O 0.66134(9) 0.61675(8) 0.47316(8)
O64_3 O 0.47316(8) 0.66134(9) 0.61675(8)
O65_3 O 0.77558(8) 0.59425(8) 0.61759(7)
O66_3 O 0.88241(7) 0.59425(8) 0.77558(8)
O67_3 O 0.61759(7) 0.77558(8) 0.59425(8)
O68_3 O 0.59425(8) 0.61759(7) 0.77558(8)
O69_3 O 0.61759(7) 0.72442(8) 0.90575(8)
O70_3 O 0.59425(8) 0.38241(7) 0.77558(8)
O71_2 O 0.47359(8) 0.62607(8) 0.65557(9)
O72_3 O 0.65557(9) 0.47359(8) 0.62607(8)
O73_3 O 0.62607(8) 0.65557(9) 0.47359(8)
O74_2 O 0.47316(8) 0.59577(9) 0.62613(9)
O75_3 O 0.62613(9) 0.47316(8) 0.59577(9)
O76_3 O 0.59577(9) 0.62613(9) 0.47316(8)
O77_3 O 0.65569(8) 0.77507(7) 0.63193(7)
O78_3 O 0.84431(8) 0.63193(7) 0.77507(7)
O79_3 O 0.63193(7) 0.34431(8) 0.77507(7)
O80_3 O 0.72235(8) 0.62580(7) 0.66180(8)
O81_3 O 0.66180(8) 0.72235(8) 0.62580(7)
O82_3 O 0.62580(7) 0.66180(8) 0.72235(8)
O83_3 O 0.66180(8) 0.77765(8) 0.87420(7)
O84_3 O 0.62580(7) 0.33820(8) 0.72235(8)
Zn14_7 Zn 0.39124(2) 0.10187(2) 0.0000
Zn19_7 Zn 0.35071(2) 0.14064(2) 0.0000
Zn1_4 Zn 0.39813(2) 0.5000 0.60876(2)
Zn2_4 Zn 0.35936(2) 0.5000 0.64929(2)
Zn3_4 Zn 0.39466(2) 0.35511(2) 0.74984(2)
O1_4 O 0.41264(9) 0.47287(8) 0.63103(9)
O2_4 O 0.38325(8) 0.47316(8) 0.66134(9)
O3_4 O 0.38241(7) 0.40575(8) 0.72442(8)
O4_4 O 0.41175(8) 0.37550(7) 0.72322(8)
O5_4 O 0.47359(8) 0.37393(8) 0.65557(9)
O6_4 O 0.47316(8) 0.40423(9) 0.62613(9)
O7_4 O 0.36807(7) 0.34431(8) 0.77507(7)
O8_4 O 0.33820(8) 0.37420(7) 0.77765(8)
O9_4 O 0.42227(16) 0.5000 0.58105(16)
O10_4 O 0.33428(15) 0.5000 0.67682(15)
O11_4 O 0.41931(7) 0.32929(7) 0.76199(7)
N1_4 N 0.43122(12) 0.31002(10) 0.79796(11)
C1_4 C 0.41417(11) 0.44067(11) 0.66215(12)
C2_4 C 0.40374(11) 0.43002(10) 0.68335(11)
H1_4 H 0.3900 0.4380 0.6915
C3_4 C 0.41339(10) 0.40750(11) 0.69287(11)
C4_4 C 0.43390(10) 0.39635(11) 0.68115(11)
H2_4 H 0.4409 0.3813 0.6879
C5_4 C 0.44426(11) 0.40679(11) 0.65981(12)
C6_4 C 0.43488(11) 0.43010(11) 0.64976(12)
H3_4 H 0.4423 0.4379 0.6355
C7_4 C 0.40267(12) 0.46431(12) 0.65128(13)
C8_4 C 0.40144(10) 0.39538(10) 0.71516(10)
C9_4 C 0.46663(11) 0.39412(14) 0.64653(13)
C10_4 C 0.33857(10) 0.34085(10) 0.80738(10)
C11_4 C 0.35048(9) 0.31985(11) 0.81705(11)
H4_4 H 0.3653 0.3137 0.8092
C12_4 C 0.35031(12) 0.35458(11) 0.78541(11)
C13_4 C 0.42248(12) 0.32800(12) 0.78516(13)
H5_4 H 0.4177 0.3425 0.7945
C14_4 C 0.4355(2) 0.31061(19) 0.82445(17)
H6_4 H 0.4348 0.3281 0.8304
H7_4 H 0.4521 0.3035 0.8282
H8_4 H 0.4225 0.3007 0.8330
C15_4 C 0.4321(2) 0.28578(16) 0.78664(17)
H9_4 H 0.4208 0.2854 0.7721
H10_4 H 0.4268 0.2731 0.7989
H11_4 H 0.4493 0.2822 0.7811
O12_4 O 0.34431(8) 0.27507(7) 0.86807(7)
O13_4 O 0.37420(7) 0.27765(8) 0.83820(8)
C16_4 C 0.34085(10) 0.30738(10) 0.83857(10)
C17_4 C 0.31985(11) 0.31705(11) 0.85048(9)
H12_4 H 0.3137 0.3092 0.8653
C18_4 C 0.35458(11) 0.28541(11) 0.85031(12)
O14_4 O 0.27507(7) 0.36807(7) 0.84431(8)
O15_4 O 0.27765(8) 0.33820(8) 0.87420(7)
C19_4 C 0.30738(10) 0.33857(10) 0.84085(10)
C20_4 C 0.31705(11) 0.35048(9) 0.81985(11)
H13_4 H 0.3092 0.3653 0.8137
C21_4 C 0.28541(11) 0.35031(12) 0.85458(11)
Zn4_4 Zn 0.39124(2) 0.39813(2) 0.5000
Zn5_4 Zn 0.35071(2) 0.35936(2) 0.5000
Zn6_4 Zn 0.25016(2) 0.39466(2) 0.64489(2)
O16_4 O 0.36897(9) 0.41264(9) 0.52713(8)
O17_4 O 0.33866(9) 0.38325(8) 0.52684(8)
O18_4 O 0.27558(8) 0.38241(7) 0.59425(8)
O19_4 O 0.27678(8) 0.41175(8) 0.62450(7)
O20_4 O 0.34443(9) 0.47359(8) 0.62607(8)
O21_4 O 0.37387(9) 0.47316(8) 0.59577(9)
O22_4 O 0.22493(7) 0.36807(7) 0.65569(8)
O23_4 O 0.22235(8) 0.33820(8) 0.62580(7)
O24_4 O 0.41895(16) 0.42227(16) 0.5000
O25_4 O 0.32318(15) 0.33428(15) 0.5000
O26_4 O 0.23801(7) 0.41931(7) 0.67071(7)
N2_4 N 0.20204(11) 0.43122(12) 0.68998(10)
C22_4 C 0.33785(12) 0.41417(11) 0.55933(11)
C23_4 C 0.31665(11) 0.40374(11) 0.56998(10)
H14_4 H 0.3085 0.3900 0.5620
C24_4 C 0.30713(11) 0.41339(10) 0.59250(11)
C25_4 C 0.31885(11) 0.43390(10) 0.60365(11)
H15_4 H 0.3121 0.4409 0.6187
C26_4 C 0.34019(12) 0.44426(11) 0.59321(11)
C27_4 C 0.35024(12) 0.43488(11) 0.56990(11)
H16_4 H 0.3645 0.4423 0.5621
C28_4 C 0.34872(13) 0.40267(12) 0.53569(12)
C29_4 C 0.28484(10) 0.40144(10) 0.60462(10)
C30_4 C 0.35347(13) 0.46663(11) 0.60588(14)
C31_4 C 0.19262(10) 0.33857(10) 0.65915(10)
C32_4 C 0.18295(11) 0.35048(9) 0.68015(11)
H17_4 H 0.1908 0.3653 0.6863
C33_4 C 0.21459(11) 0.35031(12) 0.64542(11)
C34_4 C 0.21484(13) 0.42248(12) 0.67200(12)
H18_4 H 0.2055 0.4177 0.6575
C35_4 C 0.17555(17) 0.4355(2) 0.68939(19)
H19_4 H 0.1696 0.4348 0.6719
H20_4 H 0.1718 0.4521 0.6965
H21_4 H 0.1670 0.4225 0.6993
C36_4 C 0.21336(17) 0.4321(2) 0.71422(16)
H22_4 H 0.2279 0.4208 0.7146
H23_4 H 0.2011 0.4268 0.7269
H24_4 H 0.2189 0.4493 0.7178
O27_4 O 0.13193(7) 0.34431(8) 0.72493(7)
O28_4 O 0.16180(8) 0.37420(7) 0.72235(8)
C37_4 C 0.16143(10) 0.34085(10) 0.69262(10)
C38_4 C 0.14952(9) 0.31985(11) 0.68295(11)
H25_4 H 0.1347 0.3137 0.6908
C39_4 C 0.14969(12) 0.35458(11) 0.71459(11)
O29_4 O 0.15569(8) 0.27507(7) 0.63193(7)
O30_4 O 0.12580(7) 0.27765(8) 0.66180(8)
C40_4 C 0.15915(10) 0.30738(10) 0.66143(10)
C41_4 C 0.18015(11) 0.31705(11) 0.64952(9)
H26_4 H 0.1863 0.3092 0.6347
C42_4 C 0.14542(11) 0.28541(11) 0.64969(12)
Zn9_4 Zn 0.35511(2) 0.25016(2) 0.60534(2)
O31_4 O 0.47287(8) 0.36897(9) 0.58736(9)
O32_4 O 0.47316(8) 0.33866(9) 0.61675(8)
O33_4 O 0.40575(8) 0.27558(8) 0.61759(7)
O34_4 O 0.37550(7) 0.27678(8) 0.58825(8)
O35_4 O 0.37393(8) 0.34443(9) 0.52641(8)
O36_4 O 0.40423(9) 0.37387(9) 0.52684(8)
O37_4 O 0.5000 0.41895(16) 0.57773(16)
O38_4 O 0.5000 0.32318(15) 0.66572(15)
O39_4 O 0.32929(7) 0.23801(7) 0.58069(7)
N3_4 N 0.31002(10) 0.20204(11) 0.56878(12)
C43_4 C 0.44067(11) 0.33785(12) 0.58583(11)
C44_4 C 0.43002(10) 0.31665(11) 0.59626(11)
H27_4 H 0.4380 0.3085 0.6100
C45_4 C 0.40750(11) 0.30713(11) 0.58661(10)
C46_4 C 0.39635(11) 0.31885(11) 0.56610(10)
H28_4 H 0.3813 0.3121 0.5591
C47_4 C 0.40679(11) 0.34019(12) 0.55574(11)
C48_4 C 0.43010(11) 0.35024(12) 0.56512(11)
H29_4 H 0.4379 0.3645 0.5577
C49_4 C 0.46431(12) 0.34872(13) 0.59733(12)
C50_4 C 0.39538(10) 0.28484(10) 0.59856(10)
C51_4 C 0.39412(14) 0.35347(13) 0.53337(11)
C52_4 C 0.32800(12) 0.21484(13) 0.57752(12)
H30_4 H 0.3425 0.2055 0.5823
C53_4 C 0.31061(19) 0.17555(17) 0.5645(2)
H31_4 H 0.3281 0.1696 0.5652
H32_4 H 0.3035 0.1718 0.5479
H33_4 H 0.3007 0.1670 0.5775
C54_4 C 0.28578(16) 0.21336(17) 0.5679(2)
H34_4 H 0.2854 0.2279 0.5792
H35_4 H 0.2731 0.2011 0.5732
H36_4 H 0.2822 0.2189 0.5507
Zn10_4 Zn 0.35511(2) 0.24984(2) 0.89466(2)
O40_4 O 0.47287(8) 0.13103(9) 0.91264(9)
O41_4 O 0.47316(8) 0.16134(9) 0.88325(8)
O42_4 O 0.40575(8) 0.22442(8) 0.88241(7)
O43_4 O 0.37550(7) 0.22322(8) 0.91175(8)
O44_4 O 0.37393(8) 0.15557(9) 0.97359(8)
O45_4 O 0.40423(9) 0.12613(9) 0.97316(8)
O46_4 O 0.32929(7) 0.26199(7) 0.91931(7)
N4_4 N 0.31002(10) 0.29796(11) 0.93122(12)
C55_4 C 0.44067(11) 0.16215(12) 0.91417(11)
C56_4 C 0.43002(10) 0.18335(11) 0.90374(11)
H37_4 H 0.4380 0.1915 0.8900
C57_4 C 0.40750(11) 0.19287(11) 0.91339(10)
C58_4 C 0.39635(11) 0.18115(11) 0.93390(10)
H38_4 H 0.3813 0.1879 0.9409
C59_4 C 0.40679(11) 0.15981(12) 0.94426(11)
C60_4 C 0.43010(11) 0.14976(12) 0.93488(11)
H39_4 H 0.4379 0.1355 0.9423
C61_4 C 0.46431(12) 0.15128(13) 0.90267(12)
C62_4 C 0.39538(10) 0.21516(10) 0.90144(10)
C63_4 C 0.39412(14) 0.14653(13) 0.96663(11)
C64_4 C 0.32800(12) 0.28516(13) 0.92248(12)
H40_4 H 0.3425 0.2945 0.9177
C65_4 C 0.31061(19) 0.32445(17) 0.9355(2)
H41_4 H 0.3281 0.3304 0.9348
H42_4 H 0.3035 0.3282 0.9521
H43_4 H 0.3007 0.3330 0.9225
C66_4 C 0.28578(16) 0.28664(17) 0.9321(2)
H44_4 H 0.2854 0.2721 0.9208
H45_4 H 0.2731 0.2989 0.9268
H46_4 H 0.2822 0.2811 0.9493
Zn11_4 Zn 0.14489(2) 0.39466(2) 0.74984(2)
O47_4 O 0.02713(8) 0.41264(9) 0.63103(9)
O48_4 O 0.02684(8) 0.38325(8) 0.66134(9)
O49_4 O 0.09425(8) 0.38241(7) 0.72442(8)
O50_4 O 0.12450(7) 0.41175(8) 0.72322(8)
O51_4 O 0.12607(8) 0.47359(8) 0.65557(9)
O52_4 O 0.09577(9) 0.47316(8) 0.62613(9)
O53_4 O 0.17071(7) 0.41931(7) 0.76199(7)
N5_4 N 0.18998(10) 0.43122(12) 0.79796(11)
C67_4 C 0.05933(11) 0.41417(11) 0.66215(12)
C68_4 C 0.06998(10) 0.40374(11) 0.68335(11)
H47_4 H 0.0620 0.3900 0.6915
C69_4 C 0.09250(11) 0.41339(10) 0.69287(11)
C70_4 C 0.10365(11) 0.43390(10) 0.68115(11)
H48_4 H 0.1187 0.4409 0.6879
C71_4 C 0.09321(11) 0.44426(11) 0.65981(12)
C72_4 C 0.06990(11) 0.43488(11) 0.64976(12)
H49_4 H 0.0621 0.4423 0.6355
C73_4 C 0.03569(12) 0.40267(12) 0.65128(13)
C74_4 C 0.10462(10) 0.40144(10) 0.71516(10)
C75_4 C 0.10588(14) 0.46663(11) 0.64653(13)
C76_4 C 0.17200(12) 0.42248(12) 0.78516(13)
H50_4 H 0.1575 0.4177 0.7945
C77_4 C 0.18939(19) 0.4355(2) 0.82445(17)
H51_4 H 0.1719 0.4348 0.8304
H52_4 H 0.1965 0.4521 0.8282
H53_4 H 0.1993 0.4225 0.8330
C78_4 C 0.21422(16) 0.4321(2) 0.78664(17)
H54_4 H 0.2146 0.4208 0.7721
H55_4 H 0.2269 0.4268 0.7989
H56_4 H 0.2178 0.4493 0.7811
Zn12_4 Zn 0.39466(2) 0.64489(2) 0.74984(2)
O54_4 O 0.41264(9) 0.52713(8) 0.63103(9)
O55_4 O 0.38325(8) 0.52684(8) 0.66134(9)
O56_4 O 0.38241(7) 0.59425(8) 0.72442(8)
O57_4 O 0.41175(8) 0.62450(7) 0.72322(8)
O60_4 O 0.41931(7) 0.67071(7) 0.76199(7)
N6_4 N 0.43122(12) 0.68998(10) 0.79796(11)
C79_4 C 0.41417(11) 0.55933(11) 0.66215(12)
C80_4 C 0.40374(11) 0.56998(10) 0.68335(11)
H57_4 H 0.3900 0.5620 0.6915
C81_4 C 0.41339(10) 0.59250(11) 0.69287(11)
C82_4 C 0.43390(10) 0.60365(11) 0.68115(11)
H58_4 H 0.4409 0.6187 0.6879
C83_4 C 0.44426(11) 0.59321(11) 0.65981(12)
C84_4 C 0.43488(11) 0.56990(11) 0.64976(12)
H59_4 H 0.4423 0.5621 0.6355
C85_4 C 0.40267(12) 0.53569(12) 0.65128(13)
C86_4 C 0.40144(10) 0.60462(10) 0.71516(10)
C87_4 C 0.46663(11) 0.60588(14) 0.64653(13)
C88_4 C 0.42248(12) 0.67200(12) 0.78516(13)
H60_4 H 0.4177 0.6575 0.7945
C89_4 C 0.4355(2) 0.68939(19) 0.82445(17)
H61_4 H 0.4348 0.6719 0.8304
H62_4 H 0.4521 0.6965 0.8282
H63_4 H 0.4225 0.6993 0.8330
C90_4 C 0.4321(2) 0.71422(16) 0.78664(17)
H64_4 H 0.4208 0.7146 0.7721
H65_4 H 0.4268 0.7269 0.7989
H66_4 H 0.4493 0.7178 0.7811
Zn14_8 Zn 0.39124(2) 0.10187(2) 1.0000
Zn15_4 Zn 0.5000 0.10876(2) 0.89813(2)
Zn16_7 Zn 0.0000 0.39813(2) 0.60876(2)
Zn17_4 Zn 0.10876(2) 0.5000 0.60187(2)
Zn19_8 Zn 0.35071(2) 0.14064(2) 1.0000
Zn20_4 Zn 0.5000 0.14929(2) 0.85936(2)
Zn21_7 Zn -0.0000 0.35936(2) 0.64929(2)
Zn22_4 Zn 0.14929(2) 0.5000 0.64064(2)
Zn23_4 Zn 0.10534(2) 0.25016(2) 0.64489(2)
Zn24_4 Zn 0.24984(2) 0.35511(2) 0.60534(2)
Zn25_4 Zn 0.10534(2) 0.35511(2) 0.75016(2)
Zn26_4 Zn 0.24984(2) 0.39466(2) 0.85511(2)
Zn27_4 Zn 0.39466(2) 0.24984(2) 0.64489(2)
Zn28_4 Zn 0.14489(2) 0.24984(2) 0.60534(2)
Zn29_4 Zn 0.35511(2) 0.39466(2) 0.75016(2)
Zn30_4 Zn 0.39466(2) 0.25016(2) 0.85511(2)
Zn31_4 Zn 0.25016(2) 0.35511(2) 0.89466(2)
Zn32_4 Zn 0.35511(2) 0.60534(2) 0.75016(2)
O61_4 O 0.36897(9) 0.41264(9) 0.47287(8)
O62_4 O 0.52713(8) 0.36897(9) 0.58736(9)
O63_4 O 0.33866(9) 0.38325(8) 0.47316(8)
O64_4 O 0.52684(8) 0.33866(9) 0.61675(8)
O65_4 O 0.22442(8) 0.40575(8) 0.61759(7)
O66_4 O 0.11759(7) 0.40575(8) 0.77558(8)
O67_4 O 0.38241(7) 0.22442(8) 0.59425(8)
O68_4 O 0.40575(8) 0.38241(7) 0.77558(8)
O69_4 O 0.38241(7) 0.27558(8) 0.90575(8)
O70_4 O 0.40575(8) 0.61759(7) 0.77558(8)
O72_4 O 0.34443(9) 0.52641(8) 0.62607(8)
O73_4 O 0.37393(8) 0.34443(9) 0.47359(8)
O75_4 O 0.37387(9) 0.52684(8) 0.59577(9)
O76_4 O 0.40423(9) 0.37387(9) 0.47316(8)
O77_4 O 0.34431(8) 0.22493(7) 0.63193(7)
O78_4 O 0.15569(8) 0.36807(7) 0.77507(7)
O79_4 O 0.36807(7) 0.65569(8) 0.77507(7)
O80_4 O 0.27765(8) 0.37420(7) 0.66180(8)
O81_4 O 0.33820(8) 0.27765(8) 0.62580(7)
O82_4 O 0.37420(7) 0.33820(8) 0.72235(8)
O83_4 O 0.33820(8) 0.22235(8) 0.87420(7)
O84_4 O 0.37420(7) 0.66180(8) 0.72235(8)
Zn16_8 Zn 1.0000 0.39813(2) 0.60876(2)
Zn21_8 Zn 1.0000 0.35936(2) 0.64929(2)
O23_5 O 0.37420(7) 0.22235(8) 0.66180(8)
C31_5 C 0.34085(10) 0.19262(10) 0.66143(10)
C32_5 C 0.31985(11) 0.18295(11) 0.64952(9)
H17_5 H 0.3137 0.1908 0.6347
C33_5 C 0.35458(11) 0.21459(11) 0.64969(12)
O27_5 O 0.27507(7) 0.13193(7) 0.65569(8)
O28_5 O 0.27765(8) 0.16180(8) 0.62580(7)
C37_5 C 0.30738(10) 0.16143(10) 0.65915(10)
C38_5 C 0.31705(11) 0.14952(9) 0.68015(11)
H25_5 H 0.3092 0.1347 0.6863
C39_5 C 0.28541(11) 0.14969(12) 0.64542(11)
O29_5 O 0.36807(7) 0.15569(8) 0.72493(7)
O30_5 O 0.33820(8) 0.12580(7) 0.72235(8)
C40_5 C 0.33857(10) 0.15915(10) 0.69262(10)
C41_5 C 0.35048(9) 0.18015(11) 0.68295(11)
H26_5 H 0.3653 0.1863 0.6908
C42_5 C 0.35031(12) 0.14542(11) 0.71459(11)
O40_5 O 0.08736(9) 0.47287(8) 0.86897(9)
O41_5 O 0.11675(8) 0.47316(8) 0.83866(9)
O43_5 O 0.08825(8) 0.37550(7) 0.77678(8)
O44_5 O 0.02641(8) 0.37393(8) 0.84443(9)
O45_5 O 0.02684(8) 0.40423(9) 0.87387(9)
O46_5 O 0.08069(7) 0.32929(7) 0.73801(7)
N4_5 N 0.06878(12) 0.31002(10) 0.70204(11)
C55_5 C 0.08583(11) 0.44067(11) 0.83785(12)
C56_5 C 0.09626(11) 0.43002(10) 0.81665(11)
H37_5 H 0.1100 0.4380 0.8085
C57_5 C 0.08661(10) 0.40750(11) 0.80713(11)
C58_5 C 0.06610(10) 0.39635(11) 0.81885(11)
H38_5 H 0.0591 0.3813 0.8121
C59_5 C 0.05574(11) 0.40679(11) 0.84019(12)
C60_5 C 0.06512(11) 0.43010(11) 0.85024(12)
H39_5 H 0.0577 0.4379 0.8645
C61_5 C 0.09733(12) 0.46431(12) 0.84872(13)
C62_5 C 0.09856(10) 0.39538(10) 0.78484(10)
C63_5 C 0.03337(11) 0.39412(14) 0.85347(13)
C64_5 C 0.07752(12) 0.32800(12) 0.71484(13)
H40_5 H 0.0823 0.3425 0.7055
C65_5 C 0.0645(2) 0.31061(19) 0.67555(17)
H41_5 H 0.0652 0.3281 0.6696
H42_5 H 0.0479 0.3035 0.6718
H43_5 H 0.0775 0.3007 0.6670
C66_5 C 0.0679(2) 0.28578(16) 0.71336(17)
H44_5 H 0.0792 0.2854 0.7279
H45_5 H 0.0732 0.2731 0.7011
H46_5 H 0.0507 0.2822 0.7189
Zn11_5 Zn 0.25016(2) 0.14489(2) 0.60534(2)
O47_5 O 0.36897(9) 0.02713(8) 0.58736(9)
O48_5 O 0.33866(9) 0.02684(8) 0.61675(8)
O49_5 O 0.27558(8) 0.09425(8) 0.61759(7)
O50_5 O 0.27678(8) 0.12450(7) 0.58825(8)
O51_5 O 0.34443(9) 0.12607(8) 0.52641(8)
O52_5 O 0.37387(9) 0.09577(9) 0.52684(8)
O53_5 O 0.23801(7) 0.17071(7) 0.58069(7)
N5_5 N 0.20204(11) 0.18998(10) 0.56878(12)
C67_5 C 0.33785(12) 0.05933(11) 0.58583(11)
C68_5 C 0.31665(11) 0.06998(10) 0.59626(11)
H47_5 H 0.3085 0.0620 0.6100
C69_5 C 0.30713(11) 0.09250(11) 0.58661(10)
C70_5 C 0.31885(11) 0.10365(11) 0.56610(10)
H48_5 H 0.3121 0.1187 0.5591
C71_5 C 0.34019(12) 0.09321(11) 0.55574(11)
C72_5 C 0.35024(12) 0.06990(11) 0.56512(11)
H49_5 H 0.3645 0.0621 0.5577
C73_5 C 0.34872(13) 0.03569(12) 0.59733(12)
C74_5 C 0.28484(10) 0.10462(10) 0.59856(10)
C75_5 C 0.35347(13) 0.10588(14) 0.53337(11)
C76_5 C 0.21484(13) 0.17200(12) 0.57752(12)
H50_5 H 0.2055 0.1575 0.5823
C77_5 C 0.17555(17) 0.18939(19) 0.5645(2)
H51_5 H 0.1696 0.1719 0.5652
H52_5 H 0.1718 0.1965 0.5479
H53_5 H 0.1670 0.1993 0.5775
C78_5 C 0.21336(17) 0.21422(16) 0.5679(2)
H54_5 H 0.2279 0.2146 0.5792
H55_5 H 0.2011 0.2269 0.5732
H56_5 H 0.2189 0.2178 0.5507
Zn12_5 Zn 0.25016(2) 0.39466(2) 0.35511(2)
O56_5 O 0.27558(8) 0.38241(7) 0.40575(8)
O57_5 O 0.27678(8) 0.41175(8) 0.37550(7)
O60_5 O 0.23801(7) 0.41931(7) 0.32929(7)
N6_5 N 0.20204(11) 0.43122(12) 0.31002(10)
C79_5 C 0.33785(12) 0.41417(11) 0.44067(11)
C80_5 C 0.31665(11) 0.40374(11) 0.43002(10)
H57_5 H 0.3085 0.3900 0.4380
C81_5 C 0.30713(11) 0.41339(10) 0.40750(11)
C82_5 C 0.31885(11) 0.43390(10) 0.39635(11)
H58_5 H 0.3121 0.4409 0.3813
C83_5 C 0.34019(12) 0.44426(11) 0.40679(11)
C84_5 C 0.35024(12) 0.43488(11) 0.43010(11)
H59_5 H 0.3645 0.4423 0.4379
C85_5 C 0.34872(13) 0.40267(12) 0.46431(12)
C86_5 C 0.28484(10) 0.40144(10) 0.39538(10)
C87_5 C 0.35347(13) 0.46663(11) 0.39412(14)
C88_5 C 0.21484(13) 0.42248(12) 0.32800(12)
H60_5 H 0.2055 0.4177 0.3425
C89_5 C 0.17555(17) 0.4355(2) 0.31061(19)
H61_5 H 0.1696 0.4348 0.3281
H62_5 H 0.1718 0.4521 0.3035
H63_5 H 0.1670 0.4225 0.3007
C90_5 C 0.21336(17) 0.4321(2) 0.28578(16)
H64_5 H 0.2279 0.4208 0.2854
H65_5 H 0.2011 0.4268 0.2731
H66_5 H 0.2189 0.4493 0.2822
Zn14_9 Zn -0.0000 0.39124(2) 0.89813(2)
Zn15_5 Zn 0.10187(2) 0.5000 0.89124(2)
Zn16_9 Zn 0.39124(2) 0.0000 0.60187(2)
Zn17_5 Zn 0.39813(2) 0.10876(2) 0.5000
Zn19_9 Zn -0.0000 0.35071(2) 0.85936(2)
Zn20_5 Zn 0.14064(2) 0.5000 0.85071(2)
Zn21_9 Zn 0.35071(2) -0.0000 0.64064(2)
Zn22_5 Zn 0.35936(2) 0.14929(2) 0.5000
Zn23_5 Zn 0.35511(2) 0.10534(2) 0.74984(2)
Zn25_5 Zn 0.24984(2) 0.10534(2) 0.64489(2)
Zn28_5 Zn 0.39466(2) 0.14489(2) 0.75016(2)
Zn32_5 Zn 0.24984(2) 0.35511(2) 0.39466(2)
O66_5 O 0.22442(8) 0.11759(7) 0.59425(8)
O70_5 O 0.22442(8) 0.40575(8) 0.38241(7)
O78_5 O 0.22493(7) 0.15569(8) 0.63193(7)
O79_5 O 0.22493(7) 0.36807(7) 0.34431(8)
O83_5 O 0.12580(7) 0.33820(8) 0.77765(8)
O84_5 O 0.27765(8) 0.37420(7) 0.33820(8)
Zn16_10 Zn 0.39124(2) 1.0000 0.60187(2)
Zn21_10 Zn 0.35071(2) 1.0000 0.64064(2)
Zn14_10 Zn 1.0000 0.39124(2) 0.89813(2)
Zn19_10 Zn 1.0000 0.35071(2) 0.85936(2)
Zn16_11 Zn 0.39124(2) -0.0000 0.39813(2)
Zn21_11 Zn 0.35071(2) 0.0000 0.35936(2)
O23_6 O 0.37420(7) 0.77765(8) 0.33820(8)
C31_6 C 0.34085(10) 0.80738(10) 0.33857(10)
C32_6 C 0.31985(11) 0.81705(11) 0.35048(9)
H17_6 H 0.3137 0.8092 0.3653
C33_6 C 0.35458(11) 0.78541(11) 0.35031(12)
O27_6 O 0.27507(7) 0.86807(7) 0.34431(8)
O28_6 O 0.27765(8) 0.83820(8) 0.37420(7)
C37_6 C 0.30738(10) 0.83857(10) 0.34085(10)
C38_6 C 0.31705(11) 0.85048(9) 0.31985(11)
H25_6 H 0.3092 0.8653 0.3137
C39_6 C 0.28541(11) 0.85031(12) 0.35458(11)
O29_6 O 0.36807(7) 0.84431(8) 0.27507(7)
O30_6 O 0.33820(8) 0.87420(7) 0.27765(8)
C40_6 C 0.33857(10) 0.84085(10) 0.30738(10)
C41_6 C 0.35048(9) 0.81985(11) 0.31705(11)
H26_6 H 0.3653 0.8137 0.3092
C42_6 C 0.35031(12) 0.85458(11) 0.28541(11)
O40_6 O 0.08736(9) 0.52713(8) 0.13103(9)
O41_6 O 0.11675(8) 0.52684(8) 0.16134(9)
O43_6 O 0.08825(8) 0.62450(7) 0.22322(8)
O44_6 O 0.02641(8) 0.62607(8) 0.15557(9)
O45_6 O 0.02684(8) 0.59577(9) 0.12613(9)
O46_6 O 0.08069(7) 0.67071(7) 0.26199(7)
N4_6 N 0.06878(12) 0.68998(10) 0.29796(11)
C55_6 C 0.08583(11) 0.55933(11) 0.16215(12)
C56_6 C 0.09626(11) 0.56998(10) 0.18335(11)
H37_6 H 0.1100 0.5620 0.1915
C57_6 C 0.08661(10) 0.59250(11) 0.19287(11)
C58_6 C 0.06610(10) 0.60365(11) 0.18115(11)
H38_6 H 0.0591 0.6187 0.1879
C59_6 C 0.05574(11) 0.59321(11) 0.15981(12)
C60_6 C 0.06512(11) 0.56990(11) 0.14976(12)
H39_6 H 0.0577 0.5621 0.1355
C61_6 C 0.09733(12) 0.53569(12) 0.15128(13)
C62_6 C 0.09856(10) 0.60462(10) 0.21516(10)
C63_6 C 0.03337(11) 0.60588(14) 0.14653(13)
C64_6 C 0.07752(12) 0.67200(12) 0.28516(13)
H40_6 H 0.0823 0.6575 0.2945
C65_6 C 0.0645(2) 0.68939(19) 0.32445(17)
H41_6 H 0.0652 0.6719 0.3304
H42_6 H 0.0479 0.6965 0.3282
H43_6 H 0.0775 0.6993 0.3330
C66_6 C 0.0679(2) 0.71422(16) 0.28664(17)
H44_6 H 0.0792 0.7146 0.2721
H45_6 H 0.0732 0.7269 0.2989
H46_6 H 0.0507 0.7178 0.2811
Zn11_6 Zn 0.25016(2) 0.85511(2) 0.39466(2)
O47_6 O 0.36897(9) 0.97287(8) 0.41264(9)
O48_6 O 0.33866(9) 0.97316(8) 0.38325(8)
O49_6 O 0.27558(8) 0.90575(8) 0.38241(7)
O50_6 O 0.27678(8) 0.87550(7) 0.41175(8)
O51_6 O 0.34443(9) 0.87393(8) 0.47359(8)
O52_6 O 0.37387(9) 0.90423(9) 0.47316(8)
O53_6 O 0.23801(7) 0.82929(7) 0.41931(7)
N5_6 N 0.20204(11) 0.81002(10) 0.43122(12)
C67_6 C 0.33785(12) 0.94067(11) 0.41417(11)
C68_6 C 0.31665(11) 0.93002(10) 0.40374(11)
H47_6 H 0.3085 0.9380 0.3900
C69_6 C 0.30713(11) 0.90750(11) 0.41339(10)
C70_6 C 0.31885(11) 0.89635(11) 0.43390(10)
H48_6 H 0.3121 0.8813 0.4409
C71_6 C 0.34019(12) 0.90679(11) 0.44426(11)
C72_6 C 0.35024(12) 0.93010(11) 0.43488(11)
H49_6 H 0.3645 0.9379 0.4423
C73_6 C 0.34872(13) 0.96431(12) 0.40267(12)
C74_6 C 0.28484(10) 0.89538(10) 0.40144(10)
C75_6 C 0.35347(13) 0.89412(14) 0.46663(11)
C76_6 C 0.21484(13) 0.82800(12) 0.42248(12)
H50_6 H 0.2055 0.8425 0.4177
C77_6 C 0.17555(17) 0.81061(19) 0.4355(2)
H51_6 H 0.1696 0.8281 0.4348
H52_6 H 0.1718 0.8035 0.4521
H53_6 H 0.1670 0.8007 0.4225
C78_6 C 0.21336(17) 0.78578(16) 0.4321(2)
H54_6 H 0.2279 0.7854 0.4208
H55_6 H 0.2011 0.7731 0.4268
H56_6 H 0.2189 0.7822 0.4493
Zn12_6 Zn 0.25016(2) 0.60534(2) 0.64489(2)
O56_6 O 0.27558(8) 0.61759(7) 0.59425(8)
O57_6 O 0.27678(8) 0.58825(8) 0.62450(7)
O60_6 O 0.23801(7) 0.58069(7) 0.67071(7)
N6_6 N 0.20204(11) 0.56878(12) 0.68998(10)
C79_6 C 0.33785(12) 0.58583(11) 0.55933(11)
C80_6 C 0.31665(11) 0.59626(11) 0.56998(10)
H57_6 H 0.3085 0.6100 0.5620
C81_6 C 0.30713(11) 0.58661(10) 0.59250(11)
C82_6 C 0.31885(11) 0.56610(10) 0.60365(11)
H58_6 H 0.3121 0.5591 0.6187
C83_6 C 0.34019(12) 0.55574(11) 0.59321(11)
C84_6 C 0.35024(12) 0.56512(11) 0.56990(11)
H59_6 H 0.3645 0.5577 0.5621
C85_6 C 0.34872(13) 0.59733(12) 0.53569(12)
C86_6 C 0.28484(10) 0.59856(10) 0.60462(10)
C87_6 C 0.35347(13) 0.53337(11) 0.60588(14)
C88_6 C 0.21484(13) 0.57752(12) 0.67200(12)
H60_6 H 0.2055 0.5823 0.6575
C89_6 C 0.17555(17) 0.5645(2) 0.68939(19)
H61_6 H 0.1696 0.5652 0.6719
H62_6 H 0.1718 0.5479 0.6965
H63_6 H 0.1670 0.5775 0.6993
C90_6 C 0.21336(17) 0.5679(2) 0.71422(16)
H64_6 H 0.2279 0.5792 0.7146
H65_6 H 0.2011 0.5732 0.7269
H66_6 H 0.2189 0.5507 0.7178
Zn14_11 Zn 0.0000 0.60876(2) 0.10187(2)
Zn15_6 Zn 0.10187(2) 0.5000 0.10876(2)
Zn16_12 Zn 0.39124(2) 1.0000 0.39813(2)
Zn17_6 Zn 0.39813(2) 0.89124(2) 0.5000
Zn19_11 Zn -0.0000 0.64929(2) 0.14064(2)
Zn20_6 Zn 0.14064(2) 0.5000 0.14929(2)
Zn21_12 Zn 0.35071(2) 1.0000 0.35936(2)
Zn22_6 Zn 0.35936(2) 0.85071(2) 0.5000
Zn23_6 Zn 0.35511(2) 0.89466(2) 0.25016(2)
Zn25_6 Zn 0.24984(2) 0.89466(2) 0.35511(2)
Zn28_6 Zn 0.39466(2) 0.85511(2) 0.24984(2)
Zn32_6 Zn 0.24984(2) 0.64489(2) 0.60534(2)
O66_6 O 0.22442(8) 0.88241(7) 0.40575(8)
O70_6 O 0.22442(8) 0.59425(8) 0.61759(7)
O78_6 O 0.22493(7) 0.84431(8) 0.36807(7)
O79_6 O 0.22493(7) 0.63193(7) 0.65569(8)
O83_6 O 0.12580(7) 0.66180(8) 0.22235(8)
O84_6 O 0.27765(8) 0.62580(7) 0.66180(8)
Zn14_12 Zn 1.0000 0.60876(2) 0.10187(2)
Zn19_12 Zn 1.0000 0.64929(2) 0.14064(2)
Zn14_13 Zn 0.0000 0.60876(2) 0.89813(2)
Zn19_13 Zn -0.0000 0.64929(2) 0.85936(2)
Zn16_13 Zn 0.60876(2) -0.0000 0.60187(2)
Zn21_13 Zn 0.64929(2) -0.0000 0.64064(2)
O23_7 O 0.62580(7) 0.77765(8) 0.66180(8)
C31_7 C 0.65915(10) 0.80738(10) 0.66143(10)
C32_7 C 0.68015(11) 0.81705(11) 0.64952(9)
H17_7 H 0.6863 0.8092 0.6347
C33_7 C 0.64542(11) 0.78541(11) 0.64969(12)
O27_7 O 0.72493(7) 0.86807(7) 0.65569(8)
O28_7 O 0.72235(8) 0.83820(8) 0.62580(7)
C37_7 C 0.69262(10) 0.83857(10) 0.65915(10)
C38_7 C 0.68295(11) 0.85048(9) 0.68015(11)
H25_7 H 0.6908 0.8653 0.6863
C39_7 C 0.71459(11) 0.85031(12) 0.64542(11)
O29_7 O 0.63193(7) 0.84431(8) 0.72493(7)
O30_7 O 0.66180(8) 0.87420(7) 0.72235(8)
C40_7 C 0.66143(10) 0.84085(10) 0.69262(10)
C41_7 C 0.64952(9) 0.81985(11) 0.68295(11)
H26_7 H 0.6347 0.8137 0.6908
C42_7 C 0.64969(12) 0.85458(11) 0.71459(11)
O40_7 O 0.91264(9) 0.52713(8) 0.86897(9)
O41_7 O 0.88325(8) 0.52684(8) 0.83866(9)
O43_7 O 0.91175(8) 0.62450(7) 0.77678(8)
O44_7 O 0.97359(8) 0.62607(8) 0.84443(9)
O45_7 O 0.97316(8) 0.59577(9) 0.87387(9)
O46_7 O 0.91931(7) 0.67071(7) 0.73801(7)
N4_7 N 0.93122(12) 0.68998(10) 0.70204(11)
C55_7 C 0.91417(11) 0.55933(11) 0.83785(12)
C56_7 C 0.90374(11) 0.56998(10) 0.81665(11)
H37_7 H 0.8900 0.5620 0.8085
C57_7 C 0.91339(10) 0.59250(11) 0.80713(11)
C58_7 C 0.93390(10) 0.60365(11) 0.81885(11)
H38_7 H 0.9409 0.6187 0.8121
C59_7 C 0.94426(11) 0.59321(11) 0.84019(12)
C60_7 C 0.93488(11) 0.56990(11) 0.85024(12)
H39_7 H 0.9423 0.5621 0.8645
C61_7 C 0.90267(12) 0.53569(12) 0.84872(13)
C62_7 C 0.90144(10) 0.60462(10) 0.78484(10)
C63_7 C 0.96663(11) 0.60588(14) 0.85347(13)
C64_7 C 0.92248(12) 0.67200(12) 0.71484(13)
H40_7 H 0.9177 0.6575 0.7055
C65_7 C 0.9355(2) 0.68939(19) 0.67555(17)
H41_7 H 0.9348 0.6719 0.6696
H42_7 H 0.9521 0.6965 0.6718
H43_7 H 0.9225 0.6993 0.6670
C66_7 C 0.9321(2) 0.71422(16) 0.71336(17)
H44_7 H 0.9208 0.7146 0.7279
H45_7 H 0.9268 0.7269 0.7011
H46_7 H 0.9493 0.7178 0.7189
Zn11_7 Zn 0.74984(2) 0.85511(2) 0.60534(2)
O47_7 O 0.63103(9) 0.97287(8) 0.58736(9)
O48_7 O 0.66134(9) 0.97316(8) 0.61675(8)
O49_7 O 0.72442(8) 0.90575(8) 0.61759(7)
O50_7 O 0.72322(8) 0.87550(7) 0.58825(8)
O51_7 O 0.65557(9) 0.87393(8) 0.52641(8)
O52_7 O 0.62613(9) 0.90423(9) 0.52684(8)
O53_7 O 0.76199(7) 0.82929(7) 0.58069(7)
N5_7 N 0.79796(11) 0.81002(10) 0.56878(12)
C67_7 C 0.66215(12) 0.94067(11) 0.58583(11)
C68_7 C 0.68335(11) 0.93002(10) 0.59626(11)
H47_7 H 0.6915 0.9380 0.6100
C69_7 C 0.69287(11) 0.90750(11) 0.58661(10)
C70_7 C 0.68115(11) 0.89635(11) 0.56610(10)
H48_7 H 0.6879 0.8813 0.5591
C71_7 C 0.65981(12) 0.90679(11) 0.55574(11)
C72_7 C 0.64976(12) 0.93010(11) 0.56512(11)
H49_7 H 0.6355 0.9379 0.5577
C73_7 C 0.65128(13) 0.96431(12) 0.59733(12)
C74_7 C 0.71516(10) 0.89538(10) 0.59856(10)
C75_7 C 0.64653(13) 0.89412(14) 0.53337(11)
C76_7 C 0.78516(13) 0.82800(12) 0.57752(12)
H50_7 H 0.7945 0.8425 0.5823
C77_7 C 0.82445(17) 0.81061(19) 0.5645(2)
H51_7 H 0.8304 0.8281 0.5652
H52_7 H 0.8282 0.8035 0.5479
H53_7 H 0.8330 0.8007 0.5775
C78_7 C 0.78664(17) 0.78578(16) 0.5679(2)
H54_7 H 0.7721 0.7854 0.5792
H55_7 H 0.7989 0.7731 0.5732
H56_7 H 0.7811 0.7822 0.5507
Zn12_7 Zn 0.74984(2) 0.60534(2) 0.35511(2)
O56_7 O 0.72442(8) 0.61759(7) 0.40575(8)
O57_7 O 0.72322(8) 0.58825(8) 0.37550(7)
O60_7 O 0.76199(7) 0.58069(7) 0.32929(7)
N6_7 N 0.79796(11) 0.56878(12) 0.31002(10)
C79_7 C 0.66215(12) 0.58583(11) 0.44067(11)
C80_7 C 0.68335(11) 0.59626(11) 0.43002(10)
H57_7 H 0.6915 0.6100 0.4380
C81_7 C 0.69287(11) 0.58661(10) 0.40750(11)
C82_7 C 0.68115(11) 0.56610(10) 0.39635(11)
H58_7 H 0.6879 0.5591 0.3813
C83_7 C 0.65981(12) 0.55574(11) 0.40679(11)
C84_7 C 0.64976(12) 0.56512(11) 0.43010(11)
H59_7 H 0.6355 0.5577 0.4379
C85_7 C 0.65128(13) 0.59733(12) 0.46431(12)
C86_7 C 0.71516(10) 0.59856(10) 0.39538(10)
C87_7 C 0.64653(13) 0.53337(11) 0.39412(14)
C88_7 C 0.78516(13) 0.57752(12) 0.32800(12)
H60_7 H 0.7945 0.5823 0.3425
C89_7 C 0.82445(17) 0.5645(2) 0.31061(19)
H61_7 H 0.8304 0.5652 0.3281
H62_7 H 0.8282 0.5479 0.3035
H63_7 H 0.8330 0.5775 0.3007
C90_7 C 0.78664(17) 0.5679(2) 0.28578(16)
H64_7 H 0.7721 0.5792 0.2854
H65_7 H 0.7989 0.5732 0.2731
H66_7 H 0.7811 0.5507 0.2822
Zn14_14 Zn 1.0000 0.60876(2) 0.89813(2)
Zn15_7 Zn 0.89813(2) 0.5000 0.89124(2)
Zn16_14 Zn 0.60876(2) 1.0000 0.60187(2)
Zn17_7 Zn 0.60187(2) 0.89124(2) 0.5000
Zn19_14 Zn 1.0000 0.64929(2) 0.85936(2)
Zn20_7 Zn 0.85936(2) 0.5000 0.85071(2)
Zn21_14 Zn 0.64929(2) 1.0000 0.64064(2)
Zn22_7 Zn 0.64064(2) 0.85071(2) 0.5000
Zn23_7 Zn 0.64489(2) 0.89466(2) 0.74984(2)
Zn25_7 Zn 0.75016(2) 0.89466(2) 0.64489(2)
Zn28_7 Zn 0.60534(2) 0.85511(2) 0.75016(2)
Zn32_7 Zn 0.75016(2) 0.64489(2) 0.39466(2)
O66_7 O 0.77558(8) 0.88241(7) 0.59425(8)
O70_7 O 0.77558(8) 0.59425(8) 0.38241(7)
O78_7 O 0.77507(7) 0.84431(8) 0.63193(7)
O79_7 O 0.77507(7) 0.63193(7) 0.34431(8)
O83_7 O 0.87420(7) 0.66180(8) 0.77765(8)
O84_7 O 0.72235(8) 0.62580(7) 0.33820(8)
Zn14_15 Zn 0.0000 0.39124(2) 0.10187(2)
Zn19_15 Zn -0.0000 0.35071(2) 0.14064(2)
O23_8 O 0.62580(7) 0.22235(8) 0.33820(8)
C31_8 C 0.65915(10) 0.19262(10) 0.33857(10)
C32_8 C 0.68015(11) 0.18295(11) 0.35048(9)
H17_8 H 0.6863 0.1908 0.3653
C33_8 C 0.64542(11) 0.21459(11) 0.35031(12)
O27_8 O 0.72493(7) 0.13193(7) 0.34431(8)
O28_8 O 0.72235(8) 0.16180(8) 0.37420(7)
C37_8 C 0.69262(10) 0.16143(10) 0.34085(10)
C38_8 C 0.68295(11) 0.14952(9) 0.31985(11)
H25_8 H 0.6908 0.1347 0.3137
C39_8 C 0.71459(11) 0.14969(12) 0.35458(11)
O29_8 O 0.63193(7) 0.15569(8) 0.27507(7)
O30_8 O 0.66180(8) 0.12580(7) 0.27765(8)
C40_8 C 0.66143(10) 0.15915(10) 0.30738(10)
C41_8 C 0.64952(9) 0.18015(11) 0.31705(11)
H26_8 H 0.6347 0.1863 0.3092
C42_8 C 0.64969(12) 0.14542(11) 0.28541(11)
O40_8 O 0.91264(9) 0.47287(8) 0.13103(9)
O41_8 O 0.88325(8) 0.47316(8) 0.16134(9)
O43_8 O 0.91175(8) 0.37550(7) 0.22322(8)
O44_8 O 0.97359(8) 0.37393(8) 0.15557(9)
O45_8 O 0.97316(8) 0.40423(9) 0.12613(9)
O46_8 O 0.91931(7) 0.32929(7) 0.26199(7)
N4_8 N 0.93122(12) 0.31002(10) 0.29796(11)
C55_8 C 0.91417(11) 0.44067(11) 0.16215(12)
C56_8 C 0.90374(11) 0.43002(10) 0.18335(11)
H37_8 H 0.8900 0.4380 0.1915
C57_8 C 0.91339(10) 0.40750(11) 0.19287(11)
C58_8 C 0.93390(10) 0.39635(11) 0.18115(11)
H38_8 H 0.9409 0.3813 0.1879
C59_8 C 0.94426(11) 0.40679(11) 0.15981(12)
C60_8 C 0.93488(11) 0.43010(11) 0.14976(12)
H39_8 H 0.9423 0.4379 0.1355
C61_8 C 0.90267(12) 0.46431(12) 0.15128(13)
C62_8 C 0.90144(10) 0.39538(10) 0.21516(10)
C63_8 C 0.96663(11) 0.39412(14) 0.14653(13)
C64_8 C 0.92248(12) 0.32800(12) 0.28516(13)
H40_8 H 0.9177 0.3425 0.2945
C65_8 C 0.9355(2) 0.31061(19) 0.32445(17)
H41_8 H 0.9348 0.3281 0.3304
H42_8 H 0.9521 0.3035 0.3282
H43_8 H 0.9225 0.3007 0.3330
C66_8 C 0.9321(2) 0.28578(16) 0.28664(17)
H44_8 H 0.9208 0.2854 0.2721
H45_8 H 0.9268 0.2731 0.2989
H46_8 H 0.9493 0.2822 0.2811
Zn11_8 Zn 0.74984(2) 0.14489(2) 0.39466(2)
O47_8 O 0.63103(9) 0.02713(8) 0.41264(9)
O48_8 O 0.66134(9) 0.02684(8) 0.38325(8)
O49_8 O 0.72442(8) 0.09425(8) 0.38241(7)
O50_8 O 0.72322(8) 0.12450(7) 0.41175(8)
O51_8 O 0.65557(9) 0.12607(8) 0.47359(8)
O52_8 O 0.62613(9) 0.09577(9) 0.47316(8)
O53_8 O 0.76199(7) 0.17071(7) 0.41931(7)
N5_8 N 0.79796(11) 0.18998(10) 0.43122(12)
C67_8 C 0.66215(12) 0.05933(11) 0.41417(11)
C68_8 C 0.68335(11) 0.06998(10) 0.40374(11)
H47_8 H 0.6915 0.0620 0.3900
C69_8 C 0.69287(11) 0.09250(11) 0.41339(10)
C70_8 C 0.68115(11) 0.10365(11) 0.43390(10)
H48_8 H 0.6879 0.1187 0.4409
C71_8 C 0.65981(12) 0.09321(11) 0.44426(11)
C72_8 C 0.64976(12) 0.06990(11) 0.43488(11)
H49_8 H 0.6355 0.0621 0.4423
C73_8 C 0.65128(13) 0.03569(12) 0.40267(12)
C74_8 C 0.71516(10) 0.10462(10) 0.40144(10)
C75_8 C 0.64653(13) 0.10588(14) 0.46663(11)
C76_8 C 0.78516(13) 0.17200(12) 0.42248(12)
H50_8 H 0.7945 0.1575 0.4177
C77_8 C 0.82445(17) 0.18939(19) 0.4355(2)
H51_8 H 0.8304 0.1719 0.4348
H52_8 H 0.8282 0.1965 0.4521
H53_8 H 0.8330 0.1993 0.4225
C78_8 C 0.78664(17) 0.21422(16) 0.4321(2)
H54_8 H 0.7721 0.2146 0.4208
H55_8 H 0.7989 0.2269 0.4268
H56_8 H 0.7811 0.2178 0.4493
Zn12_8 Zn 0.74984(2) 0.39466(2) 0.64489(2)
O56_8 O 0.72442(8) 0.38241(7) 0.59425(8)
O57_8 O 0.72322(8) 0.41175(8) 0.62450(7)
O60_8 O 0.76199(7) 0.41931(7) 0.67071(7)
N6_8 N 0.79796(11) 0.43122(12) 0.68998(10)
C79_8 C 0.66215(12) 0.41417(11) 0.55933(11)
C80_8 C 0.68335(11) 0.40374(11) 0.56998(10)
H57_8 H 0.6915 0.3900 0.5620
C81_8 C 0.69287(11) 0.41339(10) 0.59250(11)
C82_8 C 0.68115(11) 0.43390(10) 0.60365(11)
H58_8 H 0.6879 0.4409 0.6187
C83_8 C 0.65981(12) 0.44426(11) 0.59321(11)
C84_8 C 0.64976(12) 0.43488(11) 0.56990(11)
H59_8 H 0.6355 0.4423 0.5621
C85_8 C 0.65128(13) 0.40267(12) 0.53569(12)
C86_8 C 0.71516(10) 0.40144(10) 0.60462(10)
C87_8 C 0.64653(13) 0.46663(11) 0.60588(14)
C88_8 C 0.78516(13) 0.42248(12) 0.67200(12)
H60_8 H 0.7945 0.4177 0.6575
C89_8 C 0.82445(17) 0.4355(2) 0.68939(19)
H61_8 H 0.8304 0.4348 0.6719
H62_8 H 0.8282 0.4521 0.6965
H63_8 H 0.8330 0.4225 0.6993
C90_8 C 0.78664(17) 0.4321(2) 0.71422(16)
H64_8 H 0.7721 0.4208 0.7146
H65_8 H 0.7989 0.4268 0.7269
H66_8 H 0.7811 0.4493 0.7178
Zn14_16 Zn 1.0000 0.39124(2) 0.10187(2)
Zn15_8 Zn 0.89813(2) 0.5000 0.10876(2)
Zn16_15 Zn 0.60876(2) 0.0000 0.39813(2)
Zn17_8 Zn 0.60187(2) 0.10876(2) 0.5000
Zn19_16 Zn 1.0000 0.35071(2) 0.14064(2)
Zn20_8 Zn 0.85936(2) 0.5000 0.14929(2)
Zn21_15 Zn 0.64929(2) -0.0000 0.35936(2)
Zn22_8 Zn 0.64064(2) 0.14929(2) 0.5000
Zn23_8 Zn 0.64489(2) 0.10534(2) 0.25016(2)
Zn25_8 Zn 0.75016(2) 0.10534(2) 0.35511(2)
Zn28_8 Zn 0.60534(2) 0.14489(2) 0.24984(2)
Zn32_8 Zn 0.75016(2) 0.35511(2) 0.60534(2)
O66_8 O 0.77558(8) 0.11759(7) 0.40575(8)
O70_8 O 0.77558(8) 0.40575(8) 0.61759(7)
O78_8 O 0.77507(7) 0.15569(8) 0.36807(7)
O79_8 O 0.77507(7) 0.36807(7) 0.65569(8)
O83_8 O 0.87420(7) 0.33820(8) 0.22235(8)
O84_8 O 0.72235(8) 0.37420(7) 0.66180(8)
Zn16_16 Zn 0.60876(2) 1.0000 0.39813(2)
Zn21_16 Zn 0.64929(2) 1.0000 0.35936(2)
O40_9 O 0.86897(9) 0.08736(9) 0.47287(8)
O41_9 O 0.83866(9) 0.11675(8) 0.47316(8)
O43_9 O 0.77678(8) 0.08825(8) 0.37550(7)
O44_9 O 0.84443(9) 0.02641(8) 0.37393(8)
O45_9 O 0.87387(9) 0.02684(8) 0.40423(9)
O46_9 O 0.73801(7) 0.08069(7) 0.32929(7)
N4_9 N 0.70204(11) 0.06878(12) 0.31002(10)
C55_9 C 0.83785(12) 0.08583(11) 0.44067(11)
C56_9 C 0.81665(11) 0.09626(11) 0.43002(10)
H37_9 H 0.8085 0.1100 0.4380
C57_9 C 0.80713(11) 0.08661(10) 0.40750(11)
C58_9 C 0.81885(11) 0.06610(10) 0.39635(11)
H38_9 H 0.8121 0.0591 0.3813
C59_9 C 0.84019(12) 0.05574(11) 0.40679(11)
C60_9 C 0.85024(12) 0.06512(11) 0.43010(11)
H39_9 H 0.8645 0.0577 0.4379
C61_9 C 0.84872(13) 0.09733(12) 0.46431(12)
C62_9 C 0.78484(10) 0.09856(10) 0.39538(10)
C63_9 C 0.85347(13) 0.03337(11) 0.39412(14)
C64_9 C 0.71484(13) 0.07752(12) 0.32800(12)
H40_9 H 0.7055 0.0823 0.3425
C65_9 C 0.67555(17) 0.0645(2) 0.31061(19)
H41_9 H 0.6696 0.0652 0.3281
H42_9 H 0.6718 0.0479 0.3035
H43_9 H 0.6670 0.0775 0.3007
C66_9 C 0.71336(17) 0.0679(2) 0.28578(16)
H44_9 H 0.7279 0.0792 0.2854
H45_9 H 0.7011 0.0732 0.2731
H46_9 H 0.7189 0.0507 0.2822
O47_9 O 0.58736(9) 0.36897(9) 0.02713(8)
O48_9 O 0.61675(8) 0.33866(9) 0.02684(8)
O50_9 O 0.58825(8) 0.27678(8) 0.12450(7)
O51_9 O 0.52641(8) 0.34443(9) 0.12607(8)
O52_9 O 0.52684(8) 0.37387(9) 0.09577(9)
O53_9 O 0.58069(7) 0.23801(7) 0.17071(7)
N5_9 N 0.56878(12) 0.20204(11) 0.18998(10)
C67_9 C 0.58583(11) 0.33785(12) 0.05933(11)
C68_9 C 0.59626(11) 0.31665(11) 0.06998(10)
H47_9 H 0.6100 0.3085 0.0620
C69_9 C 0.58661(10) 0.30713(11) 0.09250(11)
C70_9 C 0.56610(10) 0.31885(11) 0.10365(11)
H48_9 H 0.5591 0.3121 0.1187
C71_9 C 0.55574(11) 0.34019(12) 0.09321(11)
C72_9 C 0.56512(11) 0.35024(12) 0.06990(11)
H49_9 H 0.5577 0.3645 0.0621
C73_9 C 0.59733(12) 0.34872(13) 0.03569(12)
C74_9 C 0.59856(10) 0.28484(10) 0.10462(10)
C75_9 C 0.53337(11) 0.35347(13) 0.10588(14)
C76_9 C 0.57752(12) 0.21484(13) 0.17200(12)
H50_9 H 0.5823 0.2055 0.1575
C77_9 C 0.5645(2) 0.17555(17) 0.18939(19)
H51_9 H 0.5652 0.1696 0.1719
H52_9 H 0.5479 0.1718 0.1965
H53_9 H 0.5775 0.1670 0.1993
C78_9 C 0.5679(2) 0.21336(17) 0.21422(16)
H54_9 H 0.5792 0.2279 0.2146
H55_9 H 0.5732 0.2011 0.2269
H56_9 H 0.5507 0.2189 0.2178
Zn12_9 Zn 0.35511(2) 0.25016(2) 0.39466(2)
O56_9 O 0.40575(8) 0.27558(8) 0.38241(7)
O57_9 O 0.37550(7) 0.27678(8) 0.41175(8)
O60_9 O 0.32929(7) 0.23801(7) 0.41931(7)
N6_9 N 0.31002(10) 0.20204(11) 0.43122(12)
C79_9 C 0.44067(11) 0.33785(12) 0.41417(11)
C80_9 C 0.43002(10) 0.31665(11) 0.40374(11)
H57_9 H 0.4380 0.3085 0.3900
C81_9 C 0.40750(11) 0.30713(11) 0.41339(10)
C82_9 C 0.39635(11) 0.31885(11) 0.43390(10)
H58_9 H 0.3813 0.3121 0.4409
C83_9 C 0.40679(11) 0.34019(12) 0.44426(11)
C84_9 C 0.43010(11) 0.35024(12) 0.43488(11)
H59_9 H 0.4379 0.3645 0.4423
C85_9 C 0.46431(12) 0.34872(13) 0.40267(12)
C86_9 C 0.39538(10) 0.28484(10) 0.40144(10)
C87_9 C 0.39412(14) 0.35347(13) 0.46663(11)
C88_9 C 0.32800(12) 0.21484(13) 0.42248(12)
H60_9 H 0.3425 0.2055 0.4177
C89_9 C 0.31061(19) 0.17555(17) 0.4355(2)
H61_9 H 0.3281 0.1696 0.4348
H62_9 H 0.3035 0.1718 0.4521
H63_9 H 0.3007 0.1670 0.4225
C90_9 C 0.28578(16) 0.21336(17) 0.4321(2)
H64_9 H 0.2854 0.2279 0.4208
H65_9 H 0.2731 0.2011 0.4268
H66_9 H 0.2822 0.2189 0.4493
Zn14_17 Zn 0.89813(2) 0.0000 0.39124(2)
Zn15_9 Zn 0.89124(2) 0.10187(2) 0.5000
Zn16_17 Zn 0.60187(2) 0.39124(2) 0.0000
Zn17_9 Zn 0.5000 0.39813(2) 0.10876(2)
Zn19_17 Zn 0.85936(2) 0.0000 0.35071(2)
Zn20_9 Zn 0.85071(2) 0.14064(2) 0.5000
Zn21_17 Zn 0.64064(2) 0.35071(2) -0.0000
Zn22_9 Zn 0.5000 0.35936(2) 0.14929(2)
Zn32_9 Zn 0.39466(2) 0.24984(2) 0.35511(2)
O70_9 O 0.38241(7) 0.22442(8) 0.40575(8)
O78_9 O 0.63193(7) 0.22493(7) 0.15569(8)
O79_9 O 0.34431(8) 0.22493(7) 0.36807(7)
O83_9 O 0.77765(8) 0.12580(7) 0.33820(8)
O84_9 O 0.33820(8) 0.27765(8) 0.37420(7)
Zn16_18 Zn 0.60187(2) 0.39124(2) 1.0000
Zn21_18 Zn 0.64064(2) 0.35071(2) 1.0000
Zn14_18 Zn 0.89813(2) 1.0000 0.39124(2)
Zn19_18 Zn 0.85936(2) 1.0000 0.35071(2)
Zn16_19 Zn 0.39813(2) 0.39124(2) -0.0000
Zn21_19 Zn 0.35936(2) 0.35071(2) 0.0000
O40_10 O 0.13103(9) 0.08736(9) 0.52713(8)
O41_10 O 0.16134(9) 0.11675(8) 0.52684(8)
O43_10 O 0.22322(8) 0.08825(8) 0.62450(7)
O44_10 O 0.15557(9) 0.02641(8) 0.62607(8)
O45_10 O 0.12613(9) 0.02684(8) 0.59577(9)
O46_10 O 0.26199(7) 0.08069(7) 0.67071(7)
N4_10 N 0.29796(11) 0.06878(12) 0.68998(10)
C55_10 C 0.16215(12) 0.08583(11) 0.55933(11)
C56_10 C 0.18335(11) 0.09626(11) 0.56998(10)
H37_10 H 0.1915 0.1100 0.5620
C57_10 C 0.19287(11) 0.08661(10) 0.59250(11)
C58_10 C 0.18115(11) 0.06610(10) 0.60365(11)
H38_10 H 0.1879 0.0591 0.6187
C59_10 C 0.15981(12) 0.05574(11) 0.59321(11)
C60_10 C 0.14976(12) 0.06512(11) 0.56990(11)
H39_10 H 0.1355 0.0577 0.5621
C61_10 C 0.15128(13) 0.09733(12) 0.53569(12)
C62_10 C 0.21516(10) 0.09856(10) 0.60462(10)
C63_10 C 0.14653(13) 0.03337(11) 0.60588(14)
C64_10 C 0.28516(13) 0.07752(12) 0.67200(12)
H40_10 H 0.2945 0.0823 0.6575
C65_10 C 0.32445(17) 0.0645(2) 0.68939(19)
H41_10 H 0.3304 0.0652 0.6719
H42_10 H 0.3282 0.0479 0.6965
H43_10 H 0.3330 0.0775 0.6993
C66_10 C 0.28664(17) 0.0679(2) 0.71422(16)
H44_10 H 0.2721 0.0792 0.7146
H45_10 H 0.2989 0.0732 0.7269
H46_10 H 0.2811 0.0507 0.7178
O47_10 O 0.41264(9) 0.36897(9) 0.97287(8)
O48_10 O 0.38325(8) 0.33866(9) 0.97316(8)
O50_10 O 0.41175(8) 0.27678(8) 0.87550(7)
O51_10 O 0.47359(8) 0.34443(9) 0.87393(8)
O52_10 O 0.47316(8) 0.37387(9) 0.90423(9)
O53_10 O 0.41931(7) 0.23801(7) 0.82929(7)
N5_10 N 0.43122(12) 0.20204(11) 0.81002(10)
C67_10 C 0.41417(11) 0.33785(12) 0.94067(11)
C68_10 C 0.40374(11) 0.31665(11) 0.93002(10)
H47_10 H 0.3900 0.3085 0.9380
C69_10 C 0.41339(10) 0.30713(11) 0.90750(11)
C70_10 C 0.43390(10) 0.31885(11) 0.89635(11)
H48_10 H 0.4409 0.3121 0.8813
C71_10 C 0.44426(11) 0.34019(12) 0.90679(11)
C72_10 C 0.43488(11) 0.35024(12) 0.93010(11)
H49_10 H 0.4423 0.3645 0.9379
C73_10 C 0.40267(12) 0.34872(13) 0.96431(12)
C74_10 C 0.40144(10) 0.28484(10) 0.89538(10)
C75_10 C 0.46663(11) 0.35347(13) 0.89412(14)
C76_10 C 0.42248(12) 0.21484(13) 0.82800(12)
H50_10 H 0.4177 0.2055 0.8425
C77_10 C 0.4355(2) 0.17555(17) 0.81061(19)
H51_10 H 0.4348 0.1696 0.8281
H52_10 H 0.4521 0.1718 0.8035
H53_10 H 0.4225 0.1670 0.8007
C78_10 C 0.4321(2) 0.21336(17) 0.78578(16)
H54_10 H 0.4208 0.2279 0.7854
H55_10 H 0.4268 0.2011 0.7731
H56_10 H 0.4493 0.2189 0.7822
Zn12_10 Zn 0.64489(2) 0.25016(2) 0.60534(2)
O56_10 O 0.59425(8) 0.27558(8) 0.61759(7)
O57_10 O 0.62450(7) 0.27678(8) 0.58825(8)
O60_10 O 0.67071(7) 0.23801(7) 0.58069(7)
N6_10 N 0.68998(10) 0.20204(11) 0.56878(12)
C79_10 C 0.55933(11) 0.33785(12) 0.58583(11)
C80_10 C 0.56998(10) 0.31665(11) 0.59626(11)
H57_10 H 0.5620 0.3085 0.6100
C81_10 C 0.59250(11) 0.30713(11) 0.58661(10)
C82_10 C 0.60365(11) 0.31885(11) 0.56610(10)
H58_10 H 0.6187 0.3121 0.5591
C83_10 C 0.59321(11) 0.34019(12) 0.55574(11)
C84_10 C 0.56990(11) 0.35024(12) 0.56512(11)
H59_10 H 0.5621 0.3645 0.5577
C85_10 C 0.53569(12) 0.34872(13) 0.59733(12)
C86_10 C 0.60462(10) 0.28484(10) 0.59856(10)
C87_10 C 0.60588(14) 0.35347(13) 0.53337(11)
C88_10 C 0.67200(12) 0.21484(13) 0.57752(12)
H60_10 H 0.6575 0.2055 0.5823
C89_10 C 0.68939(19) 0.17555(17) 0.5645(2)
H61_10 H 0.6719 0.1696 0.5652
H62_10 H 0.6965 0.1718 0.5479
H63_10 H 0.6993 0.1670 0.5775
C90_10 C 0.71422(16) 0.21336(17) 0.5679(2)
H64_10 H 0.7146 0.2279 0.5792
H65_10 H 0.7269 0.2011 0.5732
H66_10 H 0.7178 0.2189 0.5507
Zn14_19 Zn 0.10187(2) 0.0000 0.60876(2)
Zn15_10 Zn 0.10876(2) 0.10187(2) 0.5000
Zn16_20 Zn 0.39813(2) 0.39124(2) 1.0000
Zn17_10 Zn 0.5000 0.39813(2) 0.89124(2)
Zn19_19 Zn 0.14064(2) -0.0000 0.64929(2)
Zn20_10 Zn 0.14929(2) 0.14064(2) 0.5000
Zn21_20 Zn 0.35936(2) 0.35071(2) 1.0000
Zn22_10 Zn 0.5000 0.35936(2) 0.85071(2)
Zn32_10 Zn 0.60534(2) 0.24984(2) 0.64489(2)
O70_10 O 0.61759(7) 0.22442(8) 0.59425(8)
O78_10 O 0.36807(7) 0.22493(7) 0.84431(8)
O79_10 O 0.65569(8) 0.22493(7) 0.63193(7)
O83_10 O 0.22235(8) 0.12580(7) 0.66180(8)
O84_10 O 0.66180(8) 0.27765(8) 0.62580(7)
Zn14_20 Zn 0.10187(2) 1.0000 0.60876(2)
Zn19_20 Zn 0.14064(2) 1.0000 0.64929(2)
Zn14_21 Zn 0.89813(2) 0.0000 0.60876(2)
Zn19_21 Zn 0.85936(2) -0.0000 0.64929(2)
Zn16_21 Zn 0.60187(2) 0.60876(2) -0.0000
Zn21_21 Zn 0.64064(2) 0.64929(2) 0.0000
O40_11 O 0.86897(9) 0.91264(9) 0.52713(8)
O41_11 O 0.83866(9) 0.88325(8) 0.52684(8)
O43_11 O 0.77678(8) 0.91175(8) 0.62450(7)
O44_11 O 0.84443(9) 0.97359(8) 0.62607(8)
O45_11 O 0.87387(9) 0.97316(8) 0.59577(9)
O46_11 O 0.73801(7) 0.91931(7) 0.67071(7)
N4_11 N 0.70204(11) 0.93122(12) 0.68998(10)
C55_11 C 0.83785(12) 0.91417(11) 0.55933(11)
C56_11 C 0.81665(11) 0.90374(11) 0.56998(10)
H37_11 H 0.8085 0.8900 0.5620
C57_11 C 0.80713(11) 0.91339(10) 0.59250(11)
C58_11 C 0.81885(11) 0.93390(10) 0.60365(11)
H38_11 H 0.8121 0.9409 0.6187
C59_11 C 0.84019(12) 0.94426(11) 0.59321(11)
C60_11 C 0.85024(12) 0.93488(11) 0.56990(11)
H39_11 H 0.8645 0.9423 0.5621
C61_11 C 0.84872(13) 0.90267(12) 0.53569(12)
C62_11 C 0.78484(10) 0.90144(10) 0.60462(10)
C63_11 C 0.85347(13) 0.96663(11) 0.60588(14)
C64_11 C 0.71484(13) 0.92248(12) 0.67200(12)
H40_11 H 0.7055 0.9177 0.6575
C65_11 C 0.67555(17) 0.9355(2) 0.68939(19)
H41_11 H 0.6696 0.9348 0.6719
H42_11 H 0.6718 0.9521 0.6965
H43_11 H 0.6670 0.9225 0.6993
C66_11 C 0.71336(17) 0.9321(2) 0.71422(16)
H44_11 H 0.7279 0.9208 0.7146
H45_11 H 0.7011 0.9268 0.7269
H46_11 H 0.7189 0.9493 0.7178
O47_11 O 0.58736(9) 0.63103(9) 0.97287(8)
O48_11 O 0.61675(8) 0.66134(9) 0.97316(8)
O50_11 O 0.58825(8) 0.72322(8) 0.87550(7)
O51_11 O 0.52641(8) 0.65557(9) 0.87393(8)
O52_11 O 0.52684(8) 0.62613(9) 0.90423(9)
O53_11 O 0.58069(7) 0.76199(7) 0.82929(7)
N5_11 N 0.56878(12) 0.79796(11) 0.81002(10)
C67_11 C 0.58583(11) 0.66215(12) 0.94067(11)
C68_11 C 0.59626(11) 0.68335(11) 0.93002(10)
H47_11 H 0.6100 0.6915 0.9380
C69_11 C 0.58661(10) 0.69287(11) 0.90750(11)
C70_11 C 0.56610(10) 0.68115(11) 0.89635(11)
H48_11 H 0.5591 0.6879 0.8813
C71_11 C 0.55574(11) 0.65981(12) 0.90679(11)
C72_11 C 0.56512(11) 0.64976(12) 0.93010(11)
H49_11 H 0.5577 0.6355 0.9379
C73_11 C 0.59733(12) 0.65128(13) 0.96431(12)
C74_11 C 0.59856(10) 0.71516(10) 0.89538(10)
C75_11 C 0.53337(11) 0.64653(13) 0.89412(14)
C76_11 C 0.57752(12) 0.78516(13) 0.82800(12)
H50_11 H 0.5823 0.7945 0.8425
C77_11 C 0.5645(2) 0.82445(17) 0.81061(19)
H51_11 H 0.5652 0.8304 0.8281
H52_11 H 0.5479 0.8282 0.8035
H53_11 H 0.5775 0.8330 0.8007
C78_11 C 0.5679(2) 0.78664(17) 0.78578(16)
H54_11 H 0.5792 0.7721 0.7854
H55_11 H 0.5732 0.7989 0.7731
H56_11 H 0.5507 0.7811 0.7822
Zn12_11 Zn 0.35511(2) 0.74984(2) 0.60534(2)
O56_11 O 0.40575(8) 0.72442(8) 0.61759(7)
O57_11 O 0.37550(7) 0.72322(8) 0.58825(8)
O60_11 O 0.32929(7) 0.76199(7) 0.58069(7)
N6_11 N 0.31002(10) 0.79796(11) 0.56878(12)
C79_11 C 0.44067(11) 0.66215(12) 0.58583(11)
C80_11 C 0.43002(10) 0.68335(11) 0.59626(11)
H57_11 H 0.4380 0.6915 0.6100
C81_11 C 0.40750(11) 0.69287(11) 0.58661(10)
C82_11 C 0.39635(11) 0.68115(11) 0.56610(10)
H58_11 H 0.3813 0.6879 0.5591
C83_11 C 0.40679(11) 0.65981(12) 0.55574(11)
C84_11 C 0.43010(11) 0.64976(12) 0.56512(11)
H59_11 H 0.4379 0.6355 0.5577
C85_11 C 0.46431(12) 0.65128(13) 0.59733(12)
C86_11 C 0.39538(10) 0.71516(10) 0.59856(10)
C87_11 C 0.39412(14) 0.64653(13) 0.53337(11)
C88_11 C 0.32800(12) 0.78516(13) 0.57752(12)
H60_11 H 0.3425 0.7945 0.5823
C89_11 C 0.31061(19) 0.82445(17) 0.5645(2)
H61_11 H 0.3281 0.8304 0.5652
H62_11 H 0.3035 0.8282 0.5479
H63_11 H 0.3007 0.8330 0.5775
C90_11 C 0.28578(16) 0.78664(17) 0.5679(2)
H64_11 H 0.2854 0.7721 0.5792
H65_11 H 0.2731 0.7989 0.5732
H66_11 H 0.2822 0.7811 0.5507
Zn14_22 Zn 0.89813(2) 1.0000 0.60876(2)
Zn15_11 Zn 0.89124(2) 0.89813(2) 0.5000
Zn16_22 Zn 0.60187(2) 0.60876(2) 1.0000
Zn17_11 Zn 0.5000 0.60187(2) 0.89124(2)
Zn19_22 Zn 0.85936(2) 1.0000 0.64929(2)
Zn20_11 Zn 0.85071(2) 0.85936(2) 0.5000
Zn21_22 Zn 0.64064(2) 0.64929(2) 1.0000
Zn22_11 Zn 0.5000 0.64064(2) 0.85071(2)
Zn32_11 Zn 0.39466(2) 0.75016(2) 0.64489(2)
O70_11 O 0.38241(7) 0.77558(8) 0.59425(8)
O78_11 O 0.63193(7) 0.77507(7) 0.84431(8)
O79_11 O 0.34431(8) 0.77507(7) 0.63193(7)
O83_11 O 0.77765(8) 0.87420(7) 0.66180(8)
O84_11 O 0.33820(8) 0.72235(8) 0.62580(7)
Zn14_23 Zn 0.10187(2) 0.0000 0.39124(2)
Zn19_23 Zn 0.14064(2) 0.0000 0.35071(2)
O40_12 O 0.13103(9) 0.91264(9) 0.47287(8)
O41_12 O 0.16134(9) 0.88325(8) 0.47316(8)
O43_12 O 0.22322(8) 0.91175(8) 0.37550(7)
O44_12 O 0.15557(9) 0.97359(8) 0.37393(8)
O45_12 O 0.12613(9) 0.97316(8) 0.40423(9)
O46_12 O 0.26199(7) 0.91931(7) 0.32929(7)
N4_12 N 0.29796(11) 0.93122(12) 0.31002(10)
C55_12 C 0.16215(12) 0.91417(11) 0.44067(11)
C56_12 C 0.18335(11) 0.90374(11) 0.43002(10)
H37_12 H 0.1915 0.8900 0.4380
C57_12 C 0.19287(11) 0.91339(10) 0.40750(11)
C58_12 C 0.18115(11) 0.93390(10) 0.39635(11)
H38_12 H 0.1879 0.9409 0.3813
C59_12 C 0.15981(12) 0.94426(11) 0.40679(11)
C60_12 C 0.14976(12) 0.93488(11) 0.43010(11)
H39_12 H 0.1355 0.9423 0.4379
C61_12 C 0.15128(13) 0.90267(12) 0.46431(12)
C62_12 C 0.21516(10) 0.90144(10) 0.39538(10)
C63_12 C 0.14653(13) 0.96663(11) 0.39412(14)
C64_12 C 0.28516(13) 0.92248(12) 0.32800(12)
H40_12 H 0.2945 0.9177 0.3425
C65_12 C 0.32445(17) 0.9355(2) 0.31061(19)
H41_12 H 0.3304 0.9348 0.3281
H42_12 H 0.3282 0.9521 0.3035
H43_12 H 0.3330 0.9225 0.3007
C66_12 C 0.28664(17) 0.9321(2) 0.28578(16)
H44_12 H 0.2721 0.9208 0.2854
H45_12 H 0.2989 0.9268 0.2731
H46_12 H 0.2811 0.9493 0.2822
O47_12 O 0.41264(9) 0.63103(9) 0.02713(8)
O48_12 O 0.38325(8) 0.66134(9) 0.02684(8)
O50_12 O 0.41175(8) 0.72322(8) 0.12450(7)
O51_12 O 0.47359(8) 0.65557(9) 0.12607(8)
O52_12 O 0.47316(8) 0.62613(9) 0.09577(9)
O53_12 O 0.41931(7) 0.76199(7) 0.17071(7)
N5_12 N 0.43122(12) 0.79796(11) 0.18998(10)
C67_12 C 0.41417(11) 0.66215(12) 0.05933(11)
C68_12 C 0.40374(11) 0.68335(11) 0.06998(10)
H47_12 H 0.3900 0.6915 0.0620
C69_12 C 0.41339(10) 0.69287(11) 0.09250(11)
C70_12 C 0.43390(10) 0.68115(11) 0.10365(11)
H48_12 H 0.4409 0.6879 0.1187
C71_12 C 0.44426(11) 0.65981(12) 0.09321(11)
C72_12 C 0.43488(11) 0.64976(12) 0.06990(11)
H49_12 H 0.4423 0.6355 0.0621
C73_12 C 0.40267(12) 0.65128(13) 0.03569(12)
C74_12 C 0.40144(10) 0.71516(10) 0.10462(10)
C75_12 C 0.46663(11) 0.64653(13) 0.10588(14)
C76_12 C 0.42248(12) 0.78516(13) 0.17200(12)
H50_12 H 0.4177 0.7945 0.1575
C77_12 C 0.4355(2) 0.82445(17) 0.18939(19)
H51_12 H 0.4348 0.8304 0.1719
H52_12 H 0.4521 0.8282 0.1965
H53_12 H 0.4225 0.8330 0.1993
C78_12 C 0.4321(2) 0.78664(17) 0.21422(16)
H54_12 H 0.4208 0.7721 0.2146
H55_12 H 0.4268 0.7989 0.2269
H56_12 H 0.4493 0.7811 0.2178
Zn12_12 Zn 0.64489(2) 0.74984(2) 0.39466(2)
O56_12 O 0.59425(8) 0.72442(8) 0.38241(7)
O57_12 O 0.62450(7) 0.72322(8) 0.41175(8)
O60_12 O 0.67071(7) 0.76199(7) 0.41931(7)
N6_12 N 0.68998(10) 0.79796(11) 0.43122(12)
C79_12 C 0.55933(11) 0.66215(12) 0.41417(11)
C80_12 C 0.56998(10) 0.68335(11) 0.40374(11)
H57_12 H 0.5620 0.6915 0.3900
C81_12 C 0.59250(11) 0.69287(11) 0.41339(10)
C82_12 C 0.60365(11) 0.68115(11) 0.43390(10)
H58_12 H 0.6187 0.6879 0.4409
C83_12 C 0.59321(11) 0.65981(12) 0.44426(11)
C84_12 C 0.56990(11) 0.64976(12) 0.43488(11)
H59_12 H 0.5621 0.6355 0.4423
C85_12 C 0.53569(12) 0.65128(13) 0.40267(12)
C86_12 C 0.60462(10) 0.71516(10) 0.40144(10)
C87_12 C 0.60588(14) 0.64653(13) 0.46663(11)
C88_12 C 0.67200(12) 0.78516(13) 0.42248(12)
H60_12 H 0.6575 0.7945 0.4177
C89_12 C 0.68939(19) 0.82445(17) 0.4355(2)
H61_12 H 0.6719 0.8304 0.4348
H62_12 H 0.6965 0.8282 0.4521
H63_12 H 0.6993 0.8330 0.4225
C90_12 C 0.71422(16) 0.78664(17) 0.4321(2)
H64_12 H 0.7146 0.7721 0.4208
H65_12 H 0.7269 0.7989 0.4268
H66_12 H 0.7178 0.7811 0.4493
Zn14_24 Zn 0.10187(2) 1.0000 0.39124(2)
Zn15_12 Zn 0.10876(2) 0.89813(2) 0.5000
Zn16_23 Zn 0.39813(2) 0.60876(2) 0.0000
Zn17_12 Zn 0.5000 0.60187(2) 0.10876(2)
Zn19_24 Zn 0.14064(2) 1.0000 0.35071(2)
Zn20_12 Zn 0.14929(2) 0.85936(2) 0.5000
Zn21_23 Zn 0.35936(2) 0.64929(2) -0.0000
Zn22_12 Zn 0.5000 0.64064(2) 0.14929(2)
Zn32_12 Zn 0.60534(2) 0.75016(2) 0.35511(2)
O70_12 O 0.61759(7) 0.77558(8) 0.40575(8)
O78_12 O 0.36807(7) 0.77507(7) 0.15569(8)
O79_12 O 0.65569(8) 0.77507(7) 0.36807(7)
O83_12 O 0.22235(8) 0.87420(7) 0.33820(8)
O84_12 O 0.66180(8) 0.72235(8) 0.37420(7)
Zn16_24 Zn 0.39813(2) 0.60876(2) 1.0000
Zn21_24 Zn 0.35936(2) 0.64929(2) 1.0000
Zn7_3 Zn 0.10876(2) 0.0000 0.10187(2)
Zn8_3 Zn 0.14929(2) 0.0000 0.14064(2)
O37_5 O 0.08105(16) 0.0000 0.07773(16)
O38_5 O 0.17682(15) 0.0000 0.16572(15)
O62_5 O 0.13103(9) 0.02713(8) 0.08736(9)
O64_5 O 0.16134(9) 0.02684(8) 0.11675(8)
O71_3 O 0.12607(8) 0.02641(8) 0.15557(9)
O74_3 O 0.09577(9) 0.02684(8) 0.12613(9)
Zn1_5 Zn -0.0000 0.89813(2) 0.10876(2)
Zn2_5 Zn 0.0000 0.85936(2) 0.14929(2)
Zn3_5 Zn 0.14489(2) 0.89466(2) 0.24984(2)
O1_5 O 0.02713(8) 0.91264(9) 0.13103(9)
O2_5 O 0.02684(8) 0.88325(8) 0.16134(9)
O3_5 O 0.09425(8) 0.88241(7) 0.22442(8)
O4_5 O 0.12450(7) 0.91175(8) 0.22322(8)
O5_5 O 0.12607(8) 0.97359(8) 0.15557(9)
O6_5 O 0.09577(9) 0.97316(8) 0.12613(9)
O7_5 O 0.15569(8) 0.86807(7) 0.27507(7)
O8_5 O 0.12580(7) 0.83820(8) 0.27765(8)
O9_5 O 0.0000 0.92227(16) 0.08105(16)
O10_5 O -0.0000 0.83428(15) 0.17682(15)
O11_5 O 0.17071(7) 0.91931(7) 0.26199(7)
N1_5 N 0.18998(10) 0.93122(12) 0.29796(11)
C1_5 C 0.05933(11) 0.91417(11) 0.16215(12)
C2_5 C 0.06998(10) 0.90374(11) 0.18335(11)
H1_5 H 0.0620 0.8900 0.1915
C3_5 C 0.09250(11) 0.91339(10) 0.19287(11)
C4_5 C 0.10365(11) 0.93390(10) 0.18115(11)
H2_5 H 0.1187 0.9409 0.1879
C5_5 C 0.09321(11) 0.94426(11) 0.15981(12)
C6_5 C 0.06990(11) 0.93488(11) 0.14976(12)
H3_5 H 0.0621 0.9423 0.1355
C7_5 C 0.03569(12) 0.90267(12) 0.15128(13)
C8_5 C 0.10462(10) 0.90144(10) 0.21516(10)
C9_5 C 0.10588(14) 0.96663(11) 0.14653(13)
C10_5 C 0.15915(10) 0.83857(10) 0.30738(10)
C11_5 C 0.18015(11) 0.85048(9) 0.31705(11)
H4_5 H 0.1863 0.8653 0.3092
C12_5 C 0.14542(11) 0.85031(12) 0.28541(11)
C13_5 C 0.17200(12) 0.92248(12) 0.28516(13)
H5_5 H 0.1575 0.9177 0.2945
C14_5 C 0.18939(19) 0.9355(2) 0.32445(17)
H6_5 H 0.1719 0.9348 0.3304
H7_5 H 0.1965 0.9521 0.3282
H8_5 H 0.1993 0.9225 0.3330
C15_5 C 0.21422(16) 0.9321(2) 0.28664(17)
H9_5 H 0.2146 0.9208 0.2721
H10_5 H 0.2269 0.9268 0.2989
H11_5 H 0.2178 0.9493 0.2811
C16_5 C 0.19262(10) 0.84085(10) 0.33857(10)
C17_5 C 0.18295(11) 0.81985(11) 0.35048(9)
H12_5 H 0.1908 0.8137 0.3653
C18_5 C 0.21459(11) 0.85458(11) 0.35031(12)
O14_5 O 0.13193(7) 0.77507(7) 0.34431(8)
O15_5 O 0.16180(8) 0.77765(8) 0.37420(7)
C19_5 C 0.16143(10) 0.80738(10) 0.34085(10)
C20_5 C 0.14952(9) 0.81705(11) 0.31985(11)
H13_5 H 0.1347 0.8092 0.3137
C21_5 C 0.14969(12) 0.78541(11) 0.35458(11)
Zn4_5 Zn 0.10187(2) 0.89124(2) 0.0000
Zn5_5 Zn 0.14064(2) 0.85071(2) 0.0000
Zn6_5 Zn 0.10534(2) 0.75016(2) 0.14489(2)
O16_5 O 0.08736(9) 0.86897(9) 0.02713(8)
O17_5 O 0.11675(8) 0.83866(9) 0.02684(8)
O18_5 O 0.11759(7) 0.77558(8) 0.09425(8)
O19_5 O 0.08825(8) 0.77678(8) 0.12450(7)
O20_5 O 0.02641(8) 0.84443(9) 0.12607(8)
O21_5 O 0.02684(8) 0.87387(9) 0.09577(9)
O22_5 O 0.13193(7) 0.72493(7) 0.15569(8)
O23_9 O 0.16180(8) 0.72235(8) 0.12580(7)
O24_5 O 0.07773(16) 0.91895(16) 0.0000
O25_5 O 0.16572(15) 0.82318(15) 0.0000
O26_5 O 0.08069(7) 0.73801(7) 0.17071(7)
N2_5 N 0.06878(12) 0.70204(11) 0.18998(10)
C22_5 C 0.08583(11) 0.83785(12) 0.05933(11)
C23_5 C 0.09626(11) 0.81665(11) 0.06998(10)
H14_5 H 0.1100 0.8085 0.0620
C24_5 C 0.08661(10) 0.80713(11) 0.09250(11)
C25_5 C 0.06610(10) 0.81885(11) 0.10365(11)
H15_5 H 0.0591 0.8121 0.1187
C26_5 C 0.05574(11) 0.84019(12) 0.09321(11)
C27_5 C 0.06512(11) 0.85024(12) 0.06990(11)
H16_5 H 0.0577 0.8645 0.0621
C28_5 C 0.09733(12) 0.84872(13) 0.03569(12)
C29_5 C 0.09856(10) 0.78484(10) 0.10462(10)
C30_5 C 0.03337(11) 0.85347(13) 0.10588(14)
C31_9 C 0.16143(10) 0.69262(10) 0.15915(10)
C32_9 C 0.14952(9) 0.68295(11) 0.18015(11)
H17_9 H 0.1347 0.6908 0.1863
C33_9 C 0.14969(12) 0.71459(11) 0.14542(11)
C34_5 C 0.07752(12) 0.71484(13) 0.17200(12)
H18_5 H 0.0823 0.7055 0.1575
C35_5 C 0.0645(2) 0.67555(17) 0.18939(19)
H19_5 H 0.0652 0.6696 0.1719
H20_5 H 0.0479 0.6718 0.1965
H21_5 H 0.0775 0.6670 0.1993
C36_5 C 0.0679(2) 0.71336(17) 0.21422(16)
H22_5 H 0.0792 0.7279 0.2146
H23_5 H 0.0732 0.7011 0.2269
H24_5 H 0.0507 0.7189 0.2178
C37_9 C 0.15915(10) 0.66143(10) 0.19262(10)
C38_9 C 0.18015(11) 0.64952(9) 0.18295(11)
H25_9 H 0.1863 0.6347 0.1908
C39_9 C 0.14542(11) 0.64969(12) 0.21459(11)
O29_9 O 0.22493(7) 0.65569(8) 0.13193(7)
O30_9 O 0.22235(8) 0.62580(7) 0.16180(8)
C40_9 C 0.19262(10) 0.65915(10) 0.16143(10)
C41_9 C 0.18295(11) 0.68015(11) 0.14952(9)
H26_9 H 0.1908 0.6863 0.1347
C42_9 C 0.21459(11) 0.64542(11) 0.14969(12)
Zn7_4 Zn 0.10876(2) 1.0000 0.10187(2)
Zn8_4 Zn 0.14929(2) 1.0000 0.14064(2)
Zn9_5 Zn 0.24984(2) 0.85511(2) 0.10534(2)
O31_5 O 0.13103(9) 0.97287(8) 0.08736(9)
O32_5 O 0.16134(9) 0.97316(8) 0.11675(8)
O33_5 O 0.22442(8) 0.90575(8) 0.11759(7)
O34_5 O 0.22322(8) 0.87550(7) 0.08825(8)
O35_5 O 0.15557(9) 0.87393(8) 0.02641(8)
O36_5 O 0.12613(9) 0.90423(9) 0.02684(8)
O37_6 O 0.08105(16) 1.0000 0.07773(16)
O38_6 O 0.17682(15) 1.0000 0.16572(15)
O39_5 O 0.26199(7) 0.82929(7) 0.08069(7)
N3_5 N 0.29796(11) 0.81002(10) 0.06878(12)
C43_5 C 0.16215(12) 0.94067(11) 0.08583(11)
C44_5 C 0.18335(11) 0.93002(10) 0.09626(11)
H27_5 H 0.1915 0.9380 0.1100
C45_5 C 0.19287(11) 0.90750(11) 0.08661(10)
C46_5 C 0.18115(11) 0.89635(11) 0.06610(10)
H28_5 H 0.1879 0.8813 0.0591
C47_5 C 0.15981(12) 0.90679(11) 0.05574(11)
C48_5 C 0.14976(12) 0.93010(11) 0.06512(11)
H29_5 H 0.1355 0.9379 0.0577
C49_5 C 0.15128(13) 0.96431(12) 0.09733(12)
C50_5 C 0.21516(10) 0.89538(10) 0.09856(10)
C51_5 C 0.14653(13) 0.89412(14) 0.03337(11)
C52_5 C 0.28516(13) 0.82800(12) 0.07752(12)
H30_5 H 0.2945 0.8425 0.0823
C53_5 C 0.32445(17) 0.81061(19) 0.0645(2)
H31_5 H 0.3304 0.8281 0.0652
H32_5 H 0.3282 0.8035 0.0479
H33_5 H 0.3330 0.8007 0.0775
C54_5 C 0.28664(17) 0.78578(16) 0.0679(2)
H34_5 H 0.2721 0.7854 0.0792
H35_5 H 0.2989 0.7731 0.0732
H36_5 H 0.2811 0.7822 0.0507
Zn24_5 Zn 0.14489(2) 0.74984(2) 0.10534(2)
Zn27_5 Zn 0.25016(2) 0.89466(2) 0.14489(2)
Zn29_5 Zn 0.10534(2) 0.85511(2) 0.25016(2)
O65_5 O 0.09425(8) 0.72442(8) 0.11759(7)
O67_5 O 0.27558(8) 0.88241(7) 0.09425(8)
O68_5 O 0.11759(7) 0.90575(8) 0.27558(8)
O77_5 O 0.27507(7) 0.84431(8) 0.13193(7)
O80_5 O 0.12580(7) 0.77765(8) 0.16180(8)
O81_5 O 0.22235(8) 0.83820(8) 0.12580(7)
O82_5 O 0.16180(8) 0.87420(7) 0.22235(8)
Zn4_6 Zn 0.10187(2) 0.89124(2) 1.0000
Zn5_6 Zn 0.14064(2) 0.85071(2) 1.0000
O24_6 O 0.07773(16) 0.91895(16) 1.0000
O25_6 O 0.16572(15) 0.82318(15) 1.0000
O61_5 O 0.08736(9) 0.86897(9) 0.97287(8)
O63_5 O 0.11675(8) 0.83866(9) 0.97316(8)
O73_5 O 0.15557(9) 0.87393(8) 0.97359(8)
O76_5 O 0.12613(9) 0.90423(9) 0.97316(8)
Zn13_3 Zn 0.89124(2) -0.0000 0.10187(2)
Zn18_3 Zn 0.85071(2) -0.0000 0.14064(2)
Zn1_6 Zn 1.0000 0.89813(2) 0.10876(2)
Zn2_6 Zn 1.0000 0.85936(2) 0.14929(2)
O9_6 O 1.0000 0.92227(16) 0.08105(16)
O10_6 O 1.0000 0.83428(15) 0.17682(15)
Zn12_13 Zn 0.85511(2) 0.89466(2) 0.24984(2)
O54_5 O 0.97287(8) 0.91264(9) 0.13103(9)
O55_5 O 0.97316(8) 0.88325(8) 0.16134(9)
O56_13 O 0.90575(8) 0.88241(7) 0.22442(8)
O57_13 O 0.87550(7) 0.91175(8) 0.22322(8)
O58_3 O 0.87393(8) 0.97359(8) 0.15557(9)
O59_3 O 0.90423(9) 0.97316(8) 0.12613(9)
O60_13 O 0.82929(7) 0.91931(7) 0.26199(7)
N6_13 N 0.81002(10) 0.93122(12) 0.29796(11)
C79_13 C 0.94067(11) 0.91417(11) 0.16215(12)
C80_13 C 0.93002(10) 0.90374(11) 0.18335(11)
H57_13 H 0.9380 0.8900 0.1915
C81_13 C 0.90750(11) 0.91339(10) 0.19287(11)
C82_13 C 0.89635(11) 0.93390(10) 0.18115(11)
H58_13 H 0.8813 0.9409 0.1879
C83_13 C 0.90679(11) 0.94426(11) 0.15981(12)
C84_13 C 0.93010(11) 0.93488(11) 0.14976(12)
H59_13 H 0.9379 0.9423 0.1355
C85_13 C 0.96431(12) 0.90267(12) 0.15128(13)
C86_13 C 0.89538(10) 0.90144(10) 0.21516(10)
C87_13 C 0.89412(14) 0.96663(11) 0.14653(13)
C88_13 C 0.82800(12) 0.92248(12) 0.28516(13)
H60_13 H 0.8425 0.9177 0.2945
C89_13 C 0.81061(19) 0.9355(2) 0.32445(17)
H61_13 H 0.8281 0.9348 0.3304
H62_13 H 0.8035 0.9521 0.3282
H63_13 H 0.8007 0.9225 0.3330
C90_13 C 0.78578(16) 0.9321(2) 0.28664(17)
H64_13 H 0.7854 0.9208 0.2721
H65_13 H 0.7731 0.9268 0.2989
H66_13 H 0.7822 0.9493 0.2811
Zn13_4 Zn 0.89124(2) 1.0000 0.10187(2)
Zn18_4 Zn 0.85071(2) 1.0000 0.14064(2)
Zn32_13 Zn 0.89466(2) 0.85511(2) 0.25016(2)
O70_13 O 0.88241(7) 0.90575(8) 0.27558(8)
O72_5 O 0.97359(8) 0.84443(9) 0.12607(8)
O75_5 O 0.97316(8) 0.87387(9) 0.09577(9)
O79_13 O 0.84431(8) 0.86807(7) 0.27507(7)
O84_13 O 0.83820(8) 0.87420(7) 0.22235(8)
Zn1_7 Zn -0.0000 0.10187(2) 0.10876(2)
Zn2_7 Zn 0.0000 0.14064(2) 0.14929(2)
O9_7 O 0.0000 0.07773(16) 0.08105(16)
O10_7 O 0.0000 0.16572(15) 0.17682(15)
Zn12_14 Zn 0.14489(2) 0.10534(2) 0.24984(2)
O54_6 O 0.02713(8) 0.08736(9) 0.13103(9)
O55_6 O 0.02684(8) 0.11675(8) 0.16134(9)
O56_14 O 0.09425(8) 0.11759(7) 0.22442(8)
O57_14 O 0.12450(7) 0.08825(8) 0.22322(8)
O60_14 O 0.17071(7) 0.08069(7) 0.26199(7)
N6_14 N 0.18998(10) 0.06878(12) 0.29796(11)
C79_14 C 0.05933(11) 0.08583(11) 0.16215(12)
C80_14 C 0.06998(10) 0.09626(11) 0.18335(11)
H57_14 H 0.0620 0.1100 0.1915
C81_14 C 0.09250(11) 0.08661(10) 0.19287(11)
C82_14 C 0.10365(11) 0.06610(10) 0.18115(11)
H58_14 H 0.1187 0.0591 0.1879
C83_14 C 0.09321(11) 0.05574(11) 0.15981(12)
C84_14 C 0.06990(11) 0.06512(11) 0.14976(12)
H59_14 H 0.0621 0.0577 0.1355
C85_14 C 0.03569(12) 0.09733(12) 0.15128(13)
C86_14 C 0.10462(10) 0.09856(10) 0.21516(10)
C87_14 C 0.10588(14) 0.03337(11) 0.14653(13)
C88_14 C 0.17200(12) 0.07752(12) 0.28516(13)
H60_14 H 0.1575 0.0823 0.2945
C89_14 C 0.18939(19) 0.0645(2) 0.32445(17)
H61_14 H 0.1719 0.0652 0.3304
H62_14 H 0.1965 0.0479 0.3282
H63_14 H 0.1993 0.0775 0.3330
C90_14 C 0.21422(16) 0.0679(2) 0.28664(17)
H64_14 H 0.2146 0.0792 0.2721
H65_14 H 0.2269 0.0732 0.2989
H66_14 H 0.2178 0.0507 0.2811
Zn32_14 Zn 0.10534(2) 0.14489(2) 0.25016(2)
O70_14 O 0.11759(7) 0.09425(8) 0.27558(8)
O72_6 O 0.02641(8) 0.15557(9) 0.12607(8)
O75_6 O 0.02684(8) 0.12613(9) 0.09577(9)
O79_14 O 0.15569(8) 0.13193(7) 0.27507(7)
O84_14 O 0.16180(8) 0.12580(7) 0.22235(8)
Zn1_8 Zn 1.0000 0.10187(2) 0.10876(2)
Zn2_8 Zn 1.0000 0.14064(2) 0.14929(2)
Zn3_6 Zn 0.85511(2) 0.10534(2) 0.24984(2)
O1_6 O 0.97287(8) 0.08736(9) 0.13103(9)
O2_6 O 0.97316(8) 0.11675(8) 0.16134(9)
O3_6 O 0.90575(8) 0.11759(7) 0.22442(8)
O4_6 O 0.87550(7) 0.08825(8) 0.22322(8)
O5_6 O 0.87393(8) 0.02641(8) 0.15557(9)
O6_6 O 0.90423(9) 0.02684(8) 0.12613(9)
O7_6 O 0.84431(8) 0.13193(7) 0.27507(7)
O8_6 O 0.87420(7) 0.16180(8) 0.27765(8)
O9_8 O 1.0000 0.07773(16) 0.08105(16)
O10_8 O 1.0000 0.16572(15) 0.17682(15)
O11_6 O 0.82929(7) 0.08069(7) 0.26199(7)
N1_6 N 0.81002(10) 0.06878(12) 0.29796(11)
C1_6 C 0.94067(11) 0.08583(11) 0.16215(12)
C2_6 C 0.93002(10) 0.09626(11) 0.18335(11)
H1_6 H 0.9380 0.1100 0.1915
C3_6 C 0.90750(11) 0.08661(10) 0.19287(11)
C4_6 C 0.89635(11) 0.06610(10) 0.18115(11)
H2_6 H 0.8813 0.0591 0.1879
C5_6 C 0.90679(11) 0.05574(11) 0.15981(12)
C6_6 C 0.93010(11) 0.06512(11) 0.14976(12)
H3_6 H 0.9379 0.0577 0.1355
C7_6 C 0.96431(12) 0.09733(12) 0.15128(13)
C8_6 C 0.89538(10) 0.09856(10) 0.21516(10)
C9_6 C 0.89412(14) 0.03337(11) 0.14653(13)
C10_6 C 0.84085(10) 0.16143(10) 0.30738(10)
C11_6 C 0.81985(11) 0.14952(9) 0.31705(11)
H4_6 H 0.8137 0.1347 0.3092
C12_6 C 0.85458(11) 0.14969(12) 0.28541(11)
C13_6 C 0.82800(12) 0.07752(12) 0.28516(13)
H5_6 H 0.8425 0.0823 0.2945
C14_6 C 0.81061(19) 0.0645(2) 0.32445(17)
H6_6 H 0.8281 0.0652 0.3304
H7_6 H 0.8035 0.0479 0.3282
H8_6 H 0.8007 0.0775 0.3330
C15_6 C 0.78578(16) 0.0679(2) 0.28664(17)
H9_6 H 0.7854 0.0792 0.2721
H10_6 H 0.7731 0.0732 0.2989
H11_6 H 0.7822 0.0507 0.2811
C16_6 C 0.80738(10) 0.15915(10) 0.33857(10)
C17_6 C 0.81705(11) 0.18015(11) 0.35048(9)
H12_6 H 0.8092 0.1863 0.3653
C18_6 C 0.78541(11) 0.14542(11) 0.35031(12)
O14_6 O 0.86807(7) 0.22493(7) 0.34431(8)
O15_6 O 0.83820(8) 0.22235(8) 0.37420(7)
C19_6 C 0.83857(10) 0.19262(10) 0.34085(10)
C20_6 C 0.85048(9) 0.18295(11) 0.31985(11)
H13_6 H 0.8653 0.1908 0.3137
C21_6 C 0.85031(12) 0.21459(11) 0.35458(11)
Zn4_7 Zn 0.89813(2) 0.10876(2) 0.0000
Zn5_7 Zn 0.85936(2) 0.14929(2) 0.0000
Zn6_6 Zn 0.89466(2) 0.24984(2) 0.14489(2)
O16_6 O 0.91264(9) 0.13103(9) 0.02713(8)
O17_6 O 0.88325(8) 0.16134(9) 0.02684(8)
O18_6 O 0.88241(7) 0.22442(8) 0.09425(8)
O19_6 O 0.91175(8) 0.22322(8) 0.12450(7)
O20_6 O 0.97359(8) 0.15557(9) 0.12607(8)
O21_6 O 0.97316(8) 0.12613(9) 0.09577(9)
O22_6 O 0.86807(7) 0.27507(7) 0.15569(8)
O23_10 O 0.83820(8) 0.27765(8) 0.12580(7)
O24_7 O 0.92227(16) 0.08105(16) 0.0000
O25_7 O 0.83428(15) 0.17682(15) 0.0000
O26_6 O 0.91931(7) 0.26199(7) 0.17071(7)
N2_6 N 0.93122(12) 0.29796(11) 0.18998(10)
C22_6 C 0.91417(11) 0.16215(12) 0.05933(11)
C23_6 C 0.90374(11) 0.18335(11) 0.06998(10)
H14_6 H 0.8900 0.1915 0.0620
C24_6 C 0.91339(10) 0.19287(11) 0.09250(11)
C25_6 C 0.93390(10) 0.18115(11) 0.10365(11)
H15_6 H 0.9409 0.1879 0.1187
C26_6 C 0.94426(11) 0.15981(12) 0.09321(11)
C27_6 C 0.93488(11) 0.14976(12) 0.06990(11)
H16_6 H 0.9423 0.1355 0.0621
C28_6 C 0.90267(12) 0.15128(13) 0.03569(12)
C29_6 C 0.90144(10) 0.21516(10) 0.10462(10)
C30_6 C 0.96663(11) 0.14653(13) 0.10588(14)
C31_10 C 0.83857(10) 0.30738(10) 0.15915(10)
C32_10 C 0.85048(9) 0.31705(11) 0.18015(11)
H17_10 H 0.8653 0.3092 0.1863
C33_10 C 0.85031(12) 0.28541(11) 0.14542(11)
C34_6 C 0.92248(12) 0.28516(13) 0.17200(12)
H18_6 H 0.9177 0.2945 0.1575
C35_6 C 0.9355(2) 0.32445(17) 0.18939(19)
H19_6 H 0.9348 0.3304 0.1719
H20_6 H 0.9521 0.3282 0.1965
H21_6 H 0.9225 0.3330 0.1993
C36_6 C 0.9321(2) 0.28664(17) 0.21422(16)
H22_6 H 0.9208 0.2721 0.2146
H23_6 H 0.9268 0.2989 0.2269
H24_6 H 0.9493 0.2811 0.2178
C37_10 C 0.84085(10) 0.33857(10) 0.19262(10)
C38_10 C 0.81985(11) 0.35048(9) 0.18295(11)
H25_10 H 0.8137 0.3653 0.1908
C39_10 C 0.85458(11) 0.35031(12) 0.21459(11)
O29_10 O 0.77507(7) 0.34431(8) 0.13193(7)
O30_10 O 0.77765(8) 0.37420(7) 0.16180(8)
C40_10 C 0.80738(10) 0.34085(10) 0.16143(10)
C41_10 C 0.81705(11) 0.31985(11) 0.14952(9)
H26_10 H 0.8092 0.3137 0.1347
C42_10 C 0.78541(11) 0.35458(11) 0.14969(12)
Zn9_6 Zn 0.75016(2) 0.14489(2) 0.10534(2)
O31_6 O 0.86897(9) 0.02713(8) 0.08736(9)
O32_6 O 0.83866(9) 0.02684(8) 0.11675(8)
O33_6 O 0.77558(8) 0.09425(8) 0.11759(7)
O34_6 O 0.77678(8) 0.12450(7) 0.08825(8)
O35_6 O 0.84443(9) 0.12607(8) 0.02641(8)
O36_6 O 0.87387(9) 0.09577(9) 0.02684(8)
O37_7 O 0.91895(16) -0.0000 0.07773(16)
O38_7 O 0.82318(15) -0.0000 0.16572(15)
O39_6 O 0.73801(7) 0.17071(7) 0.08069(7)
N3_6 N 0.70204(11) 0.18998(10) 0.06878(12)
C43_6 C 0.83785(12) 0.05933(11) 0.08583(11)
C44_6 C 0.81665(11) 0.06998(10) 0.09626(11)
H27_6 H 0.8085 0.0620 0.1100
C45_6 C 0.80713(11) 0.09250(11) 0.08661(10)
C46_6 C 0.81885(11) 0.10365(11) 0.06610(10)
H28_6 H 0.8121 0.1187 0.0591
C47_6 C 0.84019(12) 0.09321(11) 0.05574(11)
C48_6 C 0.85024(12) 0.06990(11) 0.06512(11)
H29_6 H 0.8645 0.0621 0.0577
C49_6 C 0.84872(13) 0.03569(12) 0.09733(12)
C50_6 C 0.78484(10) 0.10462(10) 0.09856(10)
C51_6 C 0.85347(13) 0.10588(14) 0.03337(11)
C52_6 C 0.71484(13) 0.17200(12) 0.07752(12)
H30_6 H 0.7055 0.1575 0.0823
C53_6 C 0.67555(17) 0.18939(19) 0.0645(2)
H31_6 H 0.6696 0.1719 0.0652
H32_6 H 0.6718 0.1965 0.0479
H33_6 H 0.6670 0.1993 0.0775
C54_6 C 0.71336(17) 0.21422(16) 0.0679(2)
H34_6 H 0.7279 0.2146 0.0792
H35_6 H 0.7011 0.2269 0.0732
H36_6 H 0.7189 0.2178 0.0507
Zn24_6 Zn 0.85511(2) 0.25016(2) 0.10534(2)
Zn27_6 Zn 0.74984(2) 0.10534(2) 0.14489(2)
Zn29_6 Zn 0.89466(2) 0.14489(2) 0.25016(2)
O65_6 O 0.90575(8) 0.27558(8) 0.11759(7)
O67_6 O 0.72442(8) 0.11759(7) 0.09425(8)
O68_6 O 0.88241(7) 0.09425(8) 0.27558(8)
O77_6 O 0.72493(7) 0.15569(8) 0.13193(7)
O80_6 O 0.87420(7) 0.22235(8) 0.16180(8)
O81_6 O 0.77765(8) 0.16180(8) 0.12580(7)
O82_6 O 0.83820(8) 0.12580(7) 0.22235(8)
Zn4_8 Zn 0.89813(2) 0.10876(2) 1.0000
Zn5_8 Zn 0.85936(2) 0.14929(2) 1.0000
O24_8 O 0.92227(16) 0.08105(16) 1.0000
O25_8 O 0.83428(15) 0.17682(15) 1.0000
O61_6 O 0.91264(9) 0.13103(9) 0.97287(8)
O63_6 O 0.88325(8) 0.16134(9) 0.97316(8)
O73_6 O 0.84443(9) 0.12607(8) 0.97359(8)
O76_6 O 0.87387(9) 0.09577(9) 0.97316(8)
O37_8 O 0.91895(16) 1.0000 0.07773(16)
O38_8 O 0.82318(15) 1.0000 0.16572(15)
O62_6 O 0.86897(9) 0.97287(8) 0.08736(9)
O64_6 O 0.83866(9) 0.97316(8) 0.11675(8)
Zn4_9 Zn 0.10187(2) 0.10876(2) 0.0000
Zn5_9 Zn 0.14064(2) 0.14929(2) 0.0000
O24_9 O 0.07773(16) 0.08105(16) 0.0000
O25_9 O 0.16572(15) 0.17682(15) 0.0000
O61_7 O 0.08736(9) 0.13103(9) 0.02713(8)
O63_7 O 0.11675(8) 0.16134(9) 0.02684(8)
O73_7 O 0.15557(9) 0.12607(8) 0.02641(8)
O76_7 O 0.12613(9) 0.09577(9) 0.02684(8)
Zn1_9 Zn -0.0000 0.10187(2) 0.89124(2)
Zn2_9 Zn 0.0000 0.14064(2) 0.85071(2)
Zn3_7 Zn 0.14489(2) 0.10534(2) 0.75016(2)
O1_7 O 0.02713(8) 0.08736(9) 0.86897(9)
O2_7 O 0.02684(8) 0.11675(8) 0.83866(9)
O3_7 O 0.09425(8) 0.11759(7) 0.77558(8)
O4_7 O 0.12450(7) 0.08825(8) 0.77678(8)
O5_7 O 0.12607(8) 0.02641(8) 0.84443(9)
O6_7 O 0.09577(9) 0.02684(8) 0.87387(9)
O7_7 O 0.15569(8) 0.13193(7) 0.72493(7)
O8_7 O 0.12580(7) 0.16180(8) 0.72235(8)
O9_9 O 0.0000 0.07773(16) 0.91895(16)
O10_9 O -0.0000 0.16572(15) 0.82318(15)
O11_7 O 0.17071(7) 0.08069(7) 0.73801(7)
N1_7 N 0.18998(10) 0.06878(12) 0.70204(11)
C1_7 C 0.05933(11) 0.08583(11) 0.83785(12)
C2_7 C 0.06998(10) 0.09626(11) 0.81665(11)
H1_7 H 0.0620 0.1100 0.8085
C3_7 C 0.09250(11) 0.08661(10) 0.80713(11)
C4_7 C 0.10365(11) 0.06610(10) 0.81885(11)
H2_7 H 0.1187 0.0591 0.8121
C5_7 C 0.09321(11) 0.05574(11) 0.84019(12)
C6_7 C 0.06990(11) 0.06512(11) 0.85024(12)
H3_7 H 0.0621 0.0577 0.8645
C7_7 C 0.03569(12) 0.09733(12) 0.84872(13)
C8_7 C 0.10462(10) 0.09856(10) 0.78484(10)
C9_7 C 0.10588(14) 0.03337(11) 0.85347(13)
C10_7 C 0.15915(10) 0.16143(10) 0.69262(10)
C11_7 C 0.18015(11) 0.14952(9) 0.68295(11)
H4_7 H 0.1863 0.1347 0.6908
C12_7 C 0.14542(11) 0.14969(12) 0.71459(11)
C13_7 C 0.17200(12) 0.07752(12) 0.71484(13)
H5_7 H 0.1575 0.0823 0.7055
C14_7 C 0.18939(19) 0.0645(2) 0.67555(17)
H6_7 H 0.1719 0.0652 0.6696
H7_7 H 0.1965 0.0479 0.6718
H8_7 H 0.1993 0.0775 0.6670
C15_7 C 0.21422(16) 0.0679(2) 0.71336(17)
H9_7 H 0.2146 0.0792 0.7279
H10_7 H 0.2269 0.0732 0.7011
H11_7 H 0.2178 0.0507 0.7189
C16_7 C 0.19262(10) 0.15915(10) 0.66143(10)
C17_7 C 0.18295(11) 0.18015(11) 0.64952(9)
H12_7 H 0.1908 0.1863 0.6347
C18_7 C 0.21459(11) 0.14542(11) 0.64969(12)
O14_7 O 0.13193(7) 0.22493(7) 0.65569(8)
O15_7 O 0.16180(8) 0.22235(8) 0.62580(7)
C19_7 C 0.16143(10) 0.19262(10) 0.65915(10)
C20_7 C 0.14952(9) 0.18295(11) 0.68015(11)
H13_7 H 0.1347 0.1908 0.6863
C21_7 C 0.14969(12) 0.21459(11) 0.64542(11)
Zn4_10 Zn 0.10187(2) 0.10876(2) 1.0000
Zn5_10 Zn 0.14064(2) 0.14929(2) 1.0000
Zn6_7 Zn 0.10534(2) 0.24984(2) 0.85511(2)
O16_7 O 0.08736(9) 0.13103(9) 0.97287(8)
O17_7 O 0.11675(8) 0.16134(9) 0.97316(8)
O18_7 O 0.11759(7) 0.22442(8) 0.90575(8)
O19_7 O 0.08825(8) 0.22322(8) 0.87550(7)
O20_7 O 0.02641(8) 0.15557(9) 0.87393(8)
O21_7 O 0.02684(8) 0.12613(9) 0.90423(9)
O22_7 O 0.13193(7) 0.27507(7) 0.84431(8)
O23_11 O 0.16180(8) 0.27765(8) 0.87420(7)
O24_10 O 0.07773(16) 0.08105(16) 1.0000
O25_10 O 0.16572(15) 0.17682(15) 1.0000
O26_7 O 0.08069(7) 0.26199(7) 0.82929(7)
N2_7 N 0.06878(12) 0.29796(11) 0.81002(10)
C22_7 C 0.08583(11) 0.16215(12) 0.94067(11)
C23_7 C 0.09626(11) 0.18335(11) 0.93002(10)
H14_7 H 0.1100 0.1915 0.9380
C24_7 C 0.08661(10) 0.19287(11) 0.90750(11)
C25_7 C 0.06610(10) 0.18115(11) 0.89635(11)
H15_7 H 0.0591 0.1879 0.8813
C26_7 C 0.05574(11) 0.15981(12) 0.90679(11)
C27_7 C 0.06512(11) 0.14976(12) 0.93010(11)
H16_7 H 0.0577 0.1355 0.9379
C28_7 C 0.09733(12) 0.15128(13) 0.96431(12)
C29_7 C 0.09856(10) 0.21516(10) 0.89538(10)
C30_7 C 0.03337(11) 0.14653(13) 0.89412(14)
C31_11 C 0.16143(10) 0.30738(10) 0.84085(10)
C32_11 C 0.14952(9) 0.31705(11) 0.81985(11)
H17_11 H 0.1347 0.3092 0.8137
C33_11 C 0.14969(12) 0.28541(11) 0.85458(11)
C34_7 C 0.07752(12) 0.28516(13) 0.82800(12)
H18_7 H 0.0823 0.2945 0.8425
C35_7 C 0.0645(2) 0.32445(17) 0.81061(19)
H19_7 H 0.0652 0.3304 0.8281
H20_7 H 0.0479 0.3282 0.8035
H21_7 H 0.0775 0.3330 0.8007
C36_7 C 0.0679(2) 0.28664(17) 0.78578(16)
H22_7 H 0.0792 0.2721 0.7854
H23_7 H 0.0732 0.2989 0.7731
H24_7 H 0.0507 0.2811 0.7822
C37_11 C 0.15915(10) 0.33857(10) 0.80738(10)
C38_11 C 0.18015(11) 0.35048(9) 0.81705(11)
H25_11 H 0.1863 0.3653 0.8092
C39_11 C 0.14542(11) 0.35031(12) 0.78541(11)
O29_11 O 0.22493(7) 0.34431(8) 0.86807(7)
O30_11 O 0.22235(8) 0.37420(7) 0.83820(8)
C40_11 C 0.19262(10) 0.34085(10) 0.83857(10)
C41_11 C 0.18295(11) 0.31985(11) 0.85048(9)
H26_11 H 0.1908 0.3137 0.8653
C42_11 C 0.21459(11) 0.35458(11) 0.85031(12)
Zn7_5 Zn 0.10876(2) -0.0000 0.89813(2)
Zn8_5 Zn 0.14929(2) -0.0000 0.85936(2)
Zn9_7 Zn 0.24984(2) 0.14489(2) 0.89466(2)
O31_7 O 0.13103(9) 0.02713(8) 0.91264(9)
O32_7 O 0.16134(9) 0.02684(8) 0.88325(8)
O33_7 O 0.22442(8) 0.09425(8) 0.88241(7)
O34_7 O 0.22322(8) 0.12450(7) 0.91175(8)
O35_7 O 0.15557(9) 0.12607(8) 0.97359(8)
O36_7 O 0.12613(9) 0.09577(9) 0.97316(8)
O37_9 O 0.08105(16) -0.0000 0.92227(16)
O38_9 O 0.17682(15) -0.0000 0.83428(15)
O39_7 O 0.26199(7) 0.17071(7) 0.91931(7)
N3_7 N 0.29796(11) 0.18998(10) 0.93122(12)
C43_7 C 0.16215(12) 0.05933(11) 0.91417(11)
C44_7 C 0.18335(11) 0.06998(10) 0.90374(11)
H27_7 H 0.1915 0.0620 0.8900
C45_7 C 0.19287(11) 0.09250(11) 0.91339(10)
C46_7 C 0.18115(11) 0.10365(11) 0.93390(10)
H28_7 H 0.1879 0.1187 0.9409
C47_7 C 0.15981(12) 0.09321(11) 0.94426(11)
C48_7 C 0.14976(12) 0.06990(11) 0.93488(11)
H29_7 H 0.1355 0.0621 0.9423
C49_7 C 0.15128(13) 0.03569(12) 0.90267(12)
C50_7 C 0.21516(10) 0.10462(10) 0.90144(10)
C51_7 C 0.14653(13) 0.10588(14) 0.96663(11)
C52_7 C 0.28516(13) 0.17200(12) 0.92248(12)
H30_7 H 0.2945 0.1575 0.9177
C53_7 C 0.32445(17) 0.18939(19) 0.9355(2)
H31_7 H 0.3304 0.1719 0.9348
H32_7 H 0.3282 0.1965 0.9521
H33_7 H 0.3330 0.1993 0.9225
C54_7 C 0.28664(17) 0.21422(16) 0.9321(2)
H34_7 H 0.2721 0.2146 0.9208
H35_7 H 0.2989 0.2269 0.9268
H36_7 H 0.2811 0.2178 0.9493
Zn24_7 Zn 0.14489(2) 0.25016(2) 0.89466(2)
Zn27_7 Zn 0.25016(2) 0.10534(2) 0.85511(2)
Zn29_7 Zn 0.10534(2) 0.14489(2) 0.74984(2)
O65_7 O 0.09425(8) 0.27558(8) 0.88241(7)
O67_7 O 0.27558(8) 0.11759(7) 0.90575(8)
O68_7 O 0.11759(7) 0.09425(8) 0.72442(8)
O77_7 O 0.27507(7) 0.15569(8) 0.86807(7)
O80_7 O 0.12580(7) 0.22235(8) 0.83820(8)
O81_7 O 0.22235(8) 0.16180(8) 0.87420(7)
O82_7 O 0.16180(8) 0.12580(7) 0.77765(8)
Zn7_6 Zn 0.10876(2) 1.0000 0.89813(2)
Zn8_6 Zn 0.14929(2) 1.0000 0.85936(2)
O37_10 O 0.08105(16) 1.0000 0.92227(16)
O38_10 O 0.17682(15) 1.0000 0.83428(15)
O62_7 O 0.13103(9) 0.97287(8) 0.91264(9)
O64_7 O 0.16134(9) 0.97316(8) 0.88325(8)
O71_4 O 0.12607(8) 0.97359(8) 0.84443(9)
O74_4 O 0.09577(9) 0.97316(8) 0.87387(9)
Zn1_10 Zn 1.0000 0.10187(2) 0.89124(2)
Zn2_10 Zn 1.0000 0.14064(2) 0.85071(2)
O9_10 O 1.0000 0.07773(16) 0.91895(16)
O10_10 O 1.0000 0.16572(15) 0.82318(15)
Zn12_15 Zn 0.85511(2) 0.10534(2) 0.75016(2)
O54_7 O 0.97287(8) 0.08736(9) 0.86897(9)
O55_7 O 0.97316(8) 0.11675(8) 0.83866(9)
O56_15 O 0.90575(8) 0.11759(7) 0.77558(8)
O57_15 O 0.87550(7) 0.08825(8) 0.77678(8)
O58_4 O 0.87393(8) 0.02641(8) 0.84443(9)
O59_4 O 0.90423(9) 0.02684(8) 0.87387(9)
O60_15 O 0.82929(7) 0.08069(7) 0.73801(7)
N6_15 N 0.81002(10) 0.06878(12) 0.70204(11)
C79_15 C 0.94067(11) 0.08583(11) 0.83785(12)
C80_15 C 0.93002(10) 0.09626(11) 0.81665(11)
H57_15 H 0.9380 0.1100 0.8085
C81_15 C 0.90750(11) 0.08661(10) 0.80713(11)
C82_15 C 0.89635(11) 0.06610(10) 0.81885(11)
H58_15 H 0.8813 0.0591 0.8121
C83_15 C 0.90679(11) 0.05574(11) 0.84019(12)
C84_15 C 0.93010(11) 0.06512(11) 0.85024(12)
H59_15 H 0.9379 0.0577 0.8645
C85_15 C 0.96431(12) 0.09733(12) 0.84872(13)
C86_15 C 0.89538(10) 0.09856(10) 0.78484(10)
C87_15 C 0.89412(14) 0.03337(11) 0.85347(13)
C88_15 C 0.82800(12) 0.07752(12) 0.71484(13)
H60_15 H 0.8425 0.0823 0.7055
C89_15 C 0.81061(19) 0.0645(2) 0.67555(17)
H61_15 H 0.8281 0.0652 0.6696
H62_15 H 0.8035 0.0479 0.6718
H63_15 H 0.8007 0.0775 0.6670
C90_15 C 0.78578(16) 0.0679(2) 0.71336(17)
H64_15 H 0.7854 0.0792 0.7279
H65_15 H 0.7731 0.0732 0.7011
H66_15 H 0.7822 0.0507 0.7189
Zn13_5 Zn 0.89124(2) 0.0000 0.89813(2)
Zn18_5 Zn 0.85071(2) -0.0000 0.85936(2)
Zn32_15 Zn 0.89466(2) 0.14489(2) 0.74984(2)
O70_15 O 0.88241(7) 0.09425(8) 0.72442(8)
O72_7 O 0.97359(8) 0.15557(9) 0.87393(8)
O75_7 O 0.97316(8) 0.12613(9) 0.90423(9)
O79_15 O 0.84431(8) 0.13193(7) 0.72493(7)
O84_15 O 0.83820(8) 0.12580(7) 0.77765(8)
Zn13_6 Zn 0.89124(2) 1.0000 0.89813(2)
Zn18_6 Zn 0.85071(2) 1.0000 0.85936(2)
Zn1_11 Zn -0.0000 0.89813(2) 0.89124(2)
Zn2_11 Zn -0.0000 0.85936(2) 0.85071(2)
O9_11 O -0.0000 0.92227(16) 0.91895(16)
O10_11 O 0.0000 0.83428(15) 0.82318(15)
Zn12_16 Zn 0.14489(2) 0.89466(2) 0.75016(2)
O54_8 O 0.02713(8) 0.91264(9) 0.86897(9)
O55_8 O 0.02684(8) 0.88325(8) 0.83866(9)
O56_16 O 0.09425(8) 0.88241(7) 0.77558(8)
O57_16 O 0.12450(7) 0.91175(8) 0.77678(8)
O60_16 O 0.17071(7) 0.91931(7) 0.73801(7)
N6_16 N 0.18998(10) 0.93122(12) 0.70204(11)
C79_16 C 0.05933(11) 0.91417(11) 0.83785(12)
C80_16 C 0.06998(10) 0.90374(11) 0.81665(11)
H57_16 H 0.0620 0.8900 0.8085
C81_16 C 0.09250(11) 0.91339(10) 0.80713(11)
C82_16 C 0.10365(11) 0.93390(10) 0.81885(11)
H58_16 H 0.1187 0.9409 0.8121
C83_16 C 0.09321(11) 0.94426(11) 0.84019(12)
C84_16 C 0.06990(11) 0.93488(11) 0.85024(12)
H59_16 H 0.0621 0.9423 0.8645
C85_16 C 0.03569(12) 0.90267(12) 0.84872(13)
C86_16 C 0.10462(10) 0.90144(10) 0.78484(10)
C87_16 C 0.10588(14) 0.96663(11) 0.85347(13)
C88_16 C 0.17200(12) 0.92248(12) 0.71484(13)
H60_16 H 0.1575 0.9177 0.7055
C89_16 C 0.18939(19) 0.9355(2) 0.67555(17)
H61_16 H 0.1719 0.9348 0.6696
H62_16 H 0.1965 0.9521 0.6718
H63_16 H 0.1993 0.9225 0.6670
C90_16 C 0.21422(16) 0.9321(2) 0.71336(17)
H64_16 H 0.2146 0.9208 0.7279
H65_16 H 0.2269 0.9268 0.7011
H66_16 H 0.2178 0.9493 0.7189
Zn32_16 Zn 0.10534(2) 0.85511(2) 0.74984(2)
O70_16 O 0.11759(7) 0.90575(8) 0.72442(8)
O72_8 O 0.02641(8) 0.84443(9) 0.87393(8)
O75_8 O 0.02684(8) 0.87387(9) 0.90423(9)
O79_16 O 0.15569(8) 0.86807(7) 0.72493(7)
O84_16 O 0.16180(8) 0.87420(7) 0.77765(8)
O37_11 O 0.91895(16) 0.0000 0.92227(16)
O38_11 O 0.82318(15) 0.0000 0.83428(15)
O62_8 O 0.86897(9) 0.02713(8) 0.91264(9)
O64_8 O 0.83866(9) 0.02684(8) 0.88325(8)
Zn4_11 Zn 0.89813(2) 0.89124(2) 0.0000
Zn5_11 Zn 0.85936(2) 0.85071(2) 0.0000
O24_11 O 0.92227(16) 0.91895(16) 0.0000
O25_11 O 0.83428(15) 0.82318(15) 0.0000
O61_8 O 0.91264(9) 0.86897(9) 0.02713(8)
O63_8 O 0.88325(8) 0.83866(9) 0.02684(8)
O73_8 O 0.84443(9) 0.87393(8) 0.02641(8)
O76_8 O 0.87387(9) 0.90423(9) 0.02684(8)
Zn1_12 Zn 1.0000 0.89813(2) 0.89124(2)
Zn2_12 Zn 1.0000 0.85936(2) 0.85071(2)
Zn3_8 Zn 0.85511(2) 0.89466(2) 0.75016(2)
O1_8 O 0.97287(8) 0.91264(9) 0.86897(9)
O2_8 O 0.97316(8) 0.88325(8) 0.83866(9)
O3_8 O 0.90575(8) 0.88241(7) 0.77558(8)
O4_8 O 0.87550(7) 0.91175(8) 0.77678(8)
O5_8 O 0.87393(8) 0.97359(8) 0.84443(9)
O6_8 O 0.90423(9) 0.97316(8) 0.87387(9)
O7_8 O 0.84431(8) 0.86807(7) 0.72493(7)
O8_8 O 0.87420(7) 0.83820(8) 0.72235(8)
O9_12 O 1.0000 0.92227(16) 0.91895(16)
O10_12 O 1.0000 0.83428(15) 0.82318(15)
O11_8 O 0.82929(7) 0.91931(7) 0.73801(7)
N1_8 N 0.81002(10) 0.93122(12) 0.70204(11)
C1_8 C 0.94067(11) 0.91417(11) 0.83785(12)
C2_8 C 0.93002(10) 0.90374(11) 0.81665(11)
H1_8 H 0.9380 0.8900 0.8085
C3_8 C 0.90750(11) 0.91339(10) 0.80713(11)
C4_8 C 0.89635(11) 0.93390(10) 0.81885(11)
H2_8 H 0.8813 0.9409 0.8121
C5_8 C 0.90679(11) 0.94426(11) 0.84019(12)
C6_8 C 0.93010(11) 0.93488(11) 0.85024(12)
H3_8 H 0.9379 0.9423 0.8645
C7_8 C 0.96431(12) 0.90267(12) 0.84872(13)
C8_8 C 0.89538(10) 0.90144(10) 0.78484(10)
C9_8 C 0.89412(14) 0.96663(11) 0.85347(13)
C10_8 C 0.84085(10) 0.83857(10) 0.69262(10)
C11_8 C 0.81985(11) 0.85048(9) 0.68295(11)
H4_8 H 0.8137 0.8653 0.6908
C12_8 C 0.85458(11) 0.85031(12) 0.71459(11)
C13_8 C 0.82800(12) 0.92248(12) 0.71484(13)
H5_8 H 0.8425 0.9177 0.7055
C14_8 C 0.81061(19) 0.9355(2) 0.67555(17)
H6_8 H 0.8281 0.9348 0.6696
H7_8 H 0.8035 0.9521 0.6718
H8_8 H 0.8007 0.9225 0.6670
C15_8 C 0.78578(16) 0.9321(2) 0.71336(17)
H9_8 H 0.7854 0.9208 0.7279
H10_8 H 0.7731 0.9268 0.7011
H11_8 H 0.7822 0.9493 0.7189
C16_8 C 0.80738(10) 0.84085(10) 0.66143(10)
C17_8 C 0.81705(11) 0.81985(11) 0.64952(9)
H12_8 H 0.8092 0.8137 0.6347
C18_8 C 0.78541(11) 0.85458(11) 0.64969(12)
O14_8 O 0.86807(7) 0.77507(7) 0.65569(8)
O15_8 O 0.83820(8) 0.77765(8) 0.62580(7)
C19_8 C 0.83857(10) 0.80738(10) 0.65915(10)
C20_8 C 0.85048(9) 0.81705(11) 0.68015(11)
H13_8 H 0.8653 0.8092 0.6863
C21_8 C 0.85031(12) 0.78541(11) 0.64542(11)
Zn4_12 Zn 0.89813(2) 0.89124(2) 1.0000
Zn5_12 Zn 0.85936(2) 0.85071(2) 1.0000
Zn6_8 Zn 0.89466(2) 0.75016(2) 0.85511(2)
O16_8 O 0.91264(9) 0.86897(9) 0.97287(8)
O17_8 O 0.88325(8) 0.83866(9) 0.97316(8)
O18_8 O 0.88241(7) 0.77558(8) 0.90575(8)
O19_8 O 0.91175(8) 0.77678(8) 0.87550(7)
O20_8 O 0.97359(8) 0.84443(9) 0.87393(8)
O21_8 O 0.97316(8) 0.87387(9) 0.90423(9)
O22_8 O 0.86807(7) 0.72493(7) 0.84431(8)
O23_12 O 0.83820(8) 0.72235(8) 0.87420(7)
O24_12 O 0.92227(16) 0.91895(16) 1.0000
O25_12 O 0.83428(15) 0.82318(15) 1.0000
O26_8 O 0.91931(7) 0.73801(7) 0.82929(7)
N2_8 N 0.93122(12) 0.70204(11) 0.81002(10)
C22_8 C 0.91417(11) 0.83785(12) 0.94067(11)
C23_8 C 0.90374(11) 0.81665(11) 0.93002(10)
H14_8 H 0.8900 0.8085 0.9380
C24_8 C 0.91339(10) 0.80713(11) 0.90750(11)
C25_8 C 0.93390(10) 0.81885(11) 0.89635(11)
H15_8 H 0.9409 0.8121 0.8813
C26_8 C 0.94426(11) 0.84019(12) 0.90679(11)
C27_8 C 0.93488(11) 0.85024(12) 0.93010(11)
H16_8 H 0.9423 0.8645 0.9379
C28_8 C 0.90267(12) 0.84872(13) 0.96431(12)
C29_8 C 0.90144(10) 0.78484(10) 0.89538(10)
C30_8 C 0.96663(11) 0.85347(13) 0.89412(14)
C31_12 C 0.83857(10) 0.69262(10) 0.84085(10)
C32_12 C 0.85048(9) 0.68295(11) 0.81985(11)
H17_12 H 0.8653 0.6908 0.8137
C33_12 C 0.85031(12) 0.71459(11) 0.85458(11)
C34_8 C 0.92248(12) 0.71484(13) 0.82800(12)
H18_8 H 0.9177 0.7055 0.8425
C35_8 C 0.9355(2) 0.67555(17) 0.81061(19)
H19_8 H 0.9348 0.6696 0.8281
H20_8 H 0.9521 0.6718 0.8035
H21_8 H 0.9225 0.6670 0.8007
C36_8 C 0.9321(2) 0.71336(17) 0.78578(16)
H22_8 H 0.9208 0.7279 0.7854
H23_8 H 0.9268 0.7011 0.7731
H24_8 H 0.9493 0.7189 0.7822
C37_12 C 0.84085(10) 0.66143(10) 0.80738(10)
C38_12 C 0.81985(11) 0.64952(9) 0.81705(11)
H25_12 H 0.8137 0.6347 0.8092
C39_12 C 0.85458(11) 0.64969(12) 0.78541(11)
O29_12 O 0.77507(7) 0.65569(8) 0.86807(7)
O30_12 O 0.77765(8) 0.62580(7) 0.83820(8)
C40_12 C 0.80738(10) 0.65915(10) 0.83857(10)
C41_12 C 0.81705(11) 0.68015(11) 0.85048(9)
H26_12 H 0.8092 0.6863 0.8653
C42_12 C 0.78541(11) 0.64542(11) 0.85031(12)
Zn9_8 Zn 0.75016(2) 0.85511(2) 0.89466(2)
O31_8 O 0.86897(9) 0.97287(8) 0.91264(9)
O32_8 O 0.83866(9) 0.97316(8) 0.88325(8)
O33_8 O 0.77558(8) 0.90575(8) 0.88241(7)
O34_8 O 0.77678(8) 0.87550(7) 0.91175(8)
O35_8 O 0.84443(9) 0.87393(8) 0.97359(8)
O36_8 O 0.87387(9) 0.90423(9) 0.97316(8)
O37_12 O 0.91895(16) 1.0000 0.92227(16)
O38_12 O 0.82318(15) 1.0000 0.83428(15)
O39_8 O 0.73801(7) 0.82929(7) 0.91931(7)
N3_8 N 0.70204(11) 0.81002(10) 0.93122(12)
C43_8 C 0.83785(12) 0.94067(11) 0.91417(11)
C44_8 C 0.81665(11) 0.93002(10) 0.90374(11)
H27_8 H 0.8085 0.9380 0.8900
C45_8 C 0.80713(11) 0.90750(11) 0.91339(10)
C46_8 C 0.81885(11) 0.89635(11) 0.93390(10)
H28_8 H 0.8121 0.8813 0.9409
C47_8 C 0.84019(12) 0.90679(11) 0.94426(11)
C48_8 C 0.85024(12) 0.93010(11) 0.93488(11)
H29_8 H 0.8645 0.9379 0.9423
C49_8 C 0.84872(13) 0.96431(12) 0.90267(12)
C50_8 C 0.78484(10) 0.89538(10) 0.90144(10)
C51_8 C 0.85347(13) 0.89412(14) 0.96663(11)
C52_8 C 0.71484(13) 0.82800(12) 0.92248(12)
H30_8 H 0.7055 0.8425 0.9177
C53_8 C 0.67555(17) 0.81061(19) 0.9355(2)
H31_8 H 0.6696 0.8281 0.9348
H32_8 H 0.6718 0.8035 0.9521
H33_8 H 0.6670 0.8007 0.9225
C54_8 C 0.71336(17) 0.78578(16) 0.9321(2)
H34_8 H 0.7279 0.7854 0.9208
H35_8 H 0.7011 0.7731 0.9268
H36_8 H 0.7189 0.7822 0.9493
Zn24_8 Zn 0.85511(2) 0.74984(2) 0.89466(2)
Zn27_8 Zn 0.74984(2) 0.89466(2) 0.85511(2)
Zn29_8 Zn 0.89466(2) 0.85511(2) 0.74984(2)
O65_8 O 0.90575(8) 0.72442(8) 0.88241(7)
O67_8 O 0.72442(8) 0.88241(7) 0.90575(8)
O68_8 O 0.88241(7) 0.90575(8) 0.72442(8)
O77_8 O 0.72493(7) 0.84431(8) 0.86807(7)
O80_8 O 0.87420(7) 0.77765(8) 0.83820(8)
O81_8 O 0.77765(8) 0.83820(8) 0.87420(7)
O82_8 O 0.83820(8) 0.87420(7) 0.77765(8)
Zn12_17 Zn 0.89466(2) 0.75016(2) 0.14489(2)
O56_17 O 0.88241(7) 0.77558(8) 0.09425(8)
O57_17 O 0.91175(8) 0.77678(8) 0.12450(7)
O60_17 O 0.91931(7) 0.73801(7) 0.17071(7)
N6_17 N 0.93122(12) 0.70204(11) 0.18998(10)
C79_17 C 0.91417(11) 0.83785(12) 0.05933(11)
C80_17 C 0.90374(11) 0.81665(11) 0.06998(10)
H57_17 H 0.8900 0.8085 0.0620
C81_17 C 0.91339(10) 0.80713(11) 0.09250(11)
C82_17 C 0.93390(10) 0.81885(11) 0.10365(11)
H58_17 H 0.9409 0.8121 0.1187
C83_17 C 0.94426(11) 0.84019(12) 0.09321(11)
C84_17 C 0.93488(11) 0.85024(12) 0.06990(11)
H59_17 H 0.9423 0.8645 0.0621
C85_17 C 0.90267(12) 0.84872(13) 0.03569(12)
C86_17 C 0.90144(10) 0.78484(10) 0.10462(10)
C87_17 C 0.96663(11) 0.85347(13) 0.10588(14)
C88_17 C 0.92248(12) 0.71484(13) 0.17200(12)
H60_17 H 0.9177 0.7055 0.1575
C89_17 C 0.9355(2) 0.67555(17) 0.18939(19)
H61_17 H 0.9348 0.6696 0.1719
H62_17 H 0.9521 0.6718 0.1965
H63_17 H 0.9225 0.6670 0.1993
C90_17 C 0.9321(2) 0.71336(17) 0.21422(16)
H64_17 H 0.9208 0.7279 0.2146
H65_17 H 0.9268 0.7011 0.2269
H66_17 H 0.9493 0.7189 0.2178
Zn32_17 Zn 0.85511(2) 0.74984(2) 0.10534(2)
O70_17 O 0.90575(8) 0.72442(8) 0.11759(7)
O79_17 O 0.86807(7) 0.72493(7) 0.15569(8)
O84_17 O 0.87420(7) 0.77765(8) 0.16180(8)
O23_13 O 0.72235(8) 0.87420(7) 0.83820(8)
C31_13 C 0.69262(10) 0.84085(10) 0.83857(10)
C32_13 C 0.68295(11) 0.81985(11) 0.85048(9)
H17_13 H 0.6908 0.8137 0.8653
C33_13 C 0.71459(11) 0.85458(11) 0.85031(12)
C37_13 C 0.66143(10) 0.80738(10) 0.84085(10)
C38_13 C 0.64952(9) 0.81705(11) 0.81985(11)
H25_13 H 0.6347 0.8092 0.8137
C39_13 C 0.64969(12) 0.78541(11) 0.85458(11)
O29_13 O 0.65569(8) 0.86807(7) 0.77507(7)
O30_13 O 0.62580(7) 0.83820(8) 0.77765(8)
C40_13 C 0.65915(10) 0.83857(10) 0.80738(10)
C41_13 C 0.68015(11) 0.85048(9) 0.81705(11)
H26_13 H 0.6863 0.8653 0.8092
C42_13 C 0.64542(11) 0.85031(12) 0.78541(11)
O23_14 O 0.27765(8) 0.87420(7) 0.16180(8)
C31_14 C 0.30738(10) 0.84085(10) 0.16143(10)
C32_14 C 0.31705(11) 0.81985(11) 0.14952(9)
H17_14 H 0.3092 0.8137 0.1347
C33_14 C 0.28541(11) 0.85458(11) 0.14969(12)
C37_14 C 0.33857(10) 0.80738(10) 0.15915(10)
C38_14 C 0.35048(9) 0.81705(11) 0.18015(11)
H25_14 H 0.3653 0.8092 0.1863
C39_14 C 0.35031(12) 0.78541(11) 0.14542(11)
O29_14 O 0.34431(8) 0.86807(7) 0.22493(7)
O30_14 O 0.37420(7) 0.83820(8) 0.22235(8)
C40_14 C 0.34085(10) 0.83857(10) 0.19262(10)
C41_14 C 0.31985(11) 0.85048(9) 0.18295(11)
H26_14 H 0.3137 0.8653 0.1908
C42_14 C 0.35458(11) 0.85031(12) 0.21459(11)
Zn12_18 Zn 0.10534(2) 0.75016(2) 0.85511(2)
O56_18 O 0.11759(7) 0.77558(8) 0.90575(8)
O57_18 O 0.08825(8) 0.77678(8) 0.87550(7)
O60_18 O 0.08069(7) 0.73801(7) 0.82929(7)
N6_18 N 0.06878(12) 0.70204(11) 0.81002(10)
C79_18 C 0.08583(11) 0.83785(12) 0.94067(11)
C80_18 C 0.09626(11) 0.81665(11) 0.93002(10)
H57_18 H 0.1100 0.8085 0.9380
C81_18 C 0.08661(10) 0.80713(11) 0.90750(11)
C82_18 C 0.06610(10) 0.81885(11) 0.89635(11)
H58_18 H 0.0591 0.8121 0.8813
C83_18 C 0.05574(11) 0.84019(12) 0.90679(11)
C84_18 C 0.06512(11) 0.85024(12) 0.93010(11)
H59_18 H 0.0577 0.8645 0.9379
C85_18 C 0.09733(12) 0.84872(13) 0.96431(12)
C86_18 C 0.09856(10) 0.78484(10) 0.89538(10)
C87_18 C 0.03337(11) 0.85347(13) 0.89412(14)
C88_18 C 0.07752(12) 0.71484(13) 0.82800(12)
H60_18 H 0.0823 0.7055 0.8425
C89_18 C 0.0645(2) 0.67555(17) 0.81061(19)
H61_18 H 0.0652 0.6696 0.8281
H62_18 H 0.0479 0.6718 0.8035
H63_18 H 0.0775 0.6670 0.8007
C90_18 C 0.0679(2) 0.71336(17) 0.78578(16)
H64_18 H 0.0792 0.7279 0.7854
H65_18 H 0.0732 0.7011 0.7731
H66_18 H 0.0507 0.7189 0.7822
Zn32_18 Zn 0.14489(2) 0.74984(2) 0.89466(2)
O70_18 O 0.09425(8) 0.72442(8) 0.88241(7)
O79_18 O 0.13193(7) 0.72493(7) 0.84431(8)
O84_18 O 0.12580(7) 0.77765(8) 0.83820(8)
Zn12_19 Zn 0.10534(2) 0.24984(2) 0.14489(2)
O56_19 O 0.11759(7) 0.22442(8) 0.09425(8)
O57_19 O 0.08825(8) 0.22322(8) 0.12450(7)
O60_19 O 0.08069(7) 0.26199(7) 0.17071(7)
N6_19 N 0.06878(12) 0.29796(11) 0.18998(10)
C79_19 C 0.08583(11) 0.16215(12) 0.05933(11)
C80_19 C 0.09626(11) 0.18335(11) 0.06998(10)
H57_19 H 0.1100 0.1915 0.0620
C81_19 C 0.08661(10) 0.19287(11) 0.09250(11)
C82_19 C 0.06610(10) 0.18115(11) 0.10365(11)
H58_19 H 0.0591 0.1879 0.1187
C83_19 C 0.05574(11) 0.15981(12) 0.09321(11)
C84_19 C 0.06512(11) 0.14976(12) 0.06990(11)
H59_19 H 0.0577 0.1355 0.0621
C85_19 C 0.09733(12) 0.15128(13) 0.03569(12)
C86_19 C 0.09856(10) 0.21516(10) 0.10462(10)
C87_19 C 0.03337(11) 0.14653(13) 0.10588(14)
C88_19 C 0.07752(12) 0.28516(13) 0.17200(12)
H60_19 H 0.0823 0.2945 0.1575
C89_19 C 0.0645(2) 0.32445(17) 0.18939(19)
H61_19 H 0.0652 0.3304 0.1719
H62_19 H 0.0479 0.3282 0.1965
H63_19 H 0.0775 0.3330 0.1993
C90_19 C 0.0679(2) 0.28664(17) 0.21422(16)
H64_19 H 0.0792 0.2721 0.2146
H65_19 H 0.0732 0.2989 0.2269
H66_19 H 0.0507 0.2811 0.2178
Zn32_19 Zn 0.14489(2) 0.25016(2) 0.10534(2)
O70_19 O 0.09425(8) 0.27558(8) 0.11759(7)
O79_19 O 0.13193(7) 0.27507(7) 0.15569(8)
O84_19 O 0.12580(7) 0.22235(8) 0.16180(8)
O23_15 O 0.27765(8) 0.12580(7) 0.83820(8)
C31_15 C 0.30738(10) 0.15915(10) 0.83857(10)
C32_15 C 0.31705(11) 0.18015(11) 0.85048(9)
H17_15 H 0.3092 0.1863 0.8653
C33_15 C 0.28541(11) 0.14542(11) 0.85031(12)
C37_15 C 0.33857(10) 0.19262(10) 0.84085(10)
C38_15 C 0.35048(9) 0.18295(11) 0.81985(11)
H25_15 H 0.3653 0.1908 0.8137
C39_15 C 0.35031(12) 0.21459(11) 0.85458(11)
O29_15 O 0.34431(8) 0.13193(7) 0.77507(7)
O30_15 O 0.37420(7) 0.16180(8) 0.77765(8)
C40_15 C 0.34085(10) 0.16143(10) 0.80738(10)
C41_15 C 0.31985(11) 0.14952(9) 0.81705(11)
H26_15 H 0.3137 0.1347 0.8092
C42_15 C 0.35458(11) 0.14969(12) 0.78541(11)
O23_16 O 0.72235(8) 0.12580(7) 0.16180(8)
C31_16 C 0.69262(10) 0.15915(10) 0.16143(10)
C32_16 C 0.68295(11) 0.18015(11) 0.14952(9)
H17_16 H 0.6908 0.1863 0.1347
C33_16 C 0.71459(11) 0.14542(11) 0.14969(12)
C37_16 C 0.66143(10) 0.19262(10) 0.15915(10)
C38_16 C 0.64952(9) 0.18295(11) 0.18015(11)
H25_16 H 0.6347 0.1908 0.1863
C39_16 C 0.64969(12) 0.21459(11) 0.14542(11)
O29_16 O 0.65569(8) 0.13193(7) 0.22493(7)
O30_16 O 0.62580(7) 0.16180(8) 0.22235(8)
C40_16 C 0.65915(10) 0.16143(10) 0.19262(10)
C41_16 C 0.68015(11) 0.14952(9) 0.18295(11)
H26_16 H 0.6863 0.1347 0.1908
C42_16 C 0.64542(11) 0.14969(12) 0.21459(11)
Zn12_20 Zn 0.89466(2) 0.24984(2) 0.85511(2)
O56_20 O 0.88241(7) 0.22442(8) 0.90575(8)
O57_20 O 0.91175(8) 0.22322(8) 0.87550(7)
O60_20 O 0.91931(7) 0.26199(7) 0.82929(7)
N6_20 N 0.93122(12) 0.29796(11) 0.81002(10)
C79_20 C 0.91417(11) 0.16215(12) 0.94067(11)
C80_20 C 0.90374(11) 0.18335(11) 0.93002(10)
H57_20 H 0.8900 0.1915 0.9380
C81_20 C 0.91339(10) 0.19287(11) 0.90750(11)
C82_20 C 0.93390(10) 0.18115(11) 0.89635(11)
H58_20 H 0.9409 0.1879 0.8813
C83_20 C 0.94426(11) 0.15981(12) 0.90679(11)
C84_20 C 0.93488(11) 0.14976(12) 0.93010(11)
H59_20 H 0.9423 0.1355 0.9379
C85_20 C 0.90267(12) 0.15128(13) 0.96431(12)
C86_20 C 0.90144(10) 0.21516(10) 0.89538(10)
C87_20 C 0.96663(11) 0.14653(13) 0.89412(14)
C88_20 C 0.92248(12) 0.28516(13) 0.82800(12)
H60_20 H 0.9177 0.2945 0.8425
C89_20 C 0.9355(2) 0.32445(17) 0.81061(19)
H61_20 H 0.9348 0.3304 0.8281
H62_20 H 0.9521 0.3282 0.8035
H63_20 H 0.9225 0.3330 0.8007
C90_20 C 0.9321(2) 0.28664(17) 0.78578(16)
H64_20 H 0.9208 0.2721 0.7854
H65_20 H 0.9268 0.2989 0.7731
H66_20 H 0.9493 0.2811 0.7822
Zn32_20 Zn 0.85511(2) 0.25016(2) 0.89466(2)
O70_20 O 0.90575(8) 0.27558(8) 0.88241(7)
O79_20 O 0.86807(7) 0.27507(7) 0.84431(8)
O84_20 O 0.87420(7) 0.22235(8) 0.83820(8)
Zn12_21 Zn 0.75016(2) 0.85511(2) 0.10534(2)
O56_21 O 0.77558(8) 0.90575(8) 0.11759(7)
O57_21 O 0.77678(8) 0.87550(7) 0.08825(8)
O60_21 O 0.73801(7) 0.82929(7) 0.08069(7)
N6_21 N 0.70204(11) 0.81002(10) 0.06878(12)
C79_21 C 0.83785(12) 0.94067(11) 0.08583(11)
C80_21 C 0.81665(11) 0.93002(10) 0.09626(11)
H57_21 H 0.8085 0.9380 0.1100
C81_21 C 0.80713(11) 0.90750(11) 0.08661(10)
C82_21 C 0.81885(11) 0.89635(11) 0.06610(10)
H58_21 H 0.8121 0.8813 0.0591
C83_21 C 0.84019(12) 0.90679(11) 0.05574(11)
C84_21 C 0.85024(12) 0.93010(11) 0.06512(11)
H59_21 H 0.8645 0.9379 0.0577
C85_21 C 0.84872(13) 0.96431(12) 0.09733(12)
C86_21 C 0.78484(10) 0.89538(10) 0.09856(10)
C87_21 C 0.85347(13) 0.89412(14) 0.03337(11)
C88_21 C 0.71484(13) 0.82800(12) 0.07752(12)
H60_21 H 0.7055 0.8425 0.0823
C89_21 C 0.67555(17) 0.81061(19) 0.0645(2)
H61_21 H 0.6696 0.8281 0.0652
H62_21 H 0.6718 0.8035 0.0479
H63_21 H 0.6670 0.8007 0.0775
C90_21 C 0.71336(17) 0.78578(16) 0.0679(2)
H64_21 H 0.7279 0.7854 0.0792
H65_21 H 0.7011 0.7731 0.0732
H66_21 H 0.7189 0.7822 0.0507
Zn32_21 Zn 0.74984(2) 0.89466(2) 0.14489(2)
O70_21 O 0.72442(8) 0.88241(7) 0.09425(8)
O79_21 O 0.72493(7) 0.84431(8) 0.13193(7)
O84_21 O 0.77765(8) 0.83820(8) 0.12580(7)
Zn12_22 Zn 0.75016(2) 0.14489(2) 0.89466(2)
O56_22 O 0.77558(8) 0.09425(8) 0.88241(7)
O57_22 O 0.77678(8) 0.12450(7) 0.91175(8)
O60_22 O 0.73801(7) 0.17071(7) 0.91931(7)
N6_22 N 0.70204(11) 0.18998(10) 0.93122(12)
C79_22 C 0.83785(12) 0.05933(11) 0.91417(11)
C80_22 C 0.81665(11) 0.06998(10) 0.90374(11)
H57_22 H 0.8085 0.0620 0.8900
C81_22 C 0.80713(11) 0.09250(11) 0.91339(10)
C82_22 C 0.81885(11) 0.10365(11) 0.93390(10)
H58_22 H 0.8121 0.1187 0.9409
C83_22 C 0.84019(12) 0.09321(11) 0.94426(11)
C84_22 C 0.85024(12) 0.06990(11) 0.93488(11)
H59_22 H 0.8645 0.0621 0.9423
C85_22 C 0.84872(13) 0.03569(12) 0.90267(12)
C86_22 C 0.78484(10) 0.10462(10) 0.90144(10)
C87_22 C 0.85347(13) 0.10588(14) 0.96663(11)
C88_22 C 0.71484(13) 0.17200(12) 0.92248(12)
H60_22 H 0.7055 0.1575 0.9177
C89_22 C 0.67555(17) 0.18939(19) 0.9355(2)
H61_22 H 0.6696 0.1719 0.9348
H62_22 H 0.6718 0.1965 0.9521
H63_22 H 0.6670 0.1993 0.9225
C90_22 C 0.71336(17) 0.21422(16) 0.9321(2)
H64_22 H 0.7279 0.2146 0.9208
H65_22 H 0.7011 0.2269 0.9268
H66_22 H 0.7189 0.2178 0.9493
Zn32_22 Zn 0.74984(2) 0.10534(2) 0.85511(2)
O70_22 O 0.72442(8) 0.11759(7) 0.90575(8)
O79_22 O 0.72493(7) 0.15569(8) 0.86807(7)
O84_22 O 0.77765(8) 0.16180(8) 0.87420(7)
Zn12_23 Zn 0.24984(2) 0.85511(2) 0.89466(2)
O56_23 O 0.22442(8) 0.90575(8) 0.88241(7)
O57_23 O 0.22322(8) 0.87550(7) 0.91175(8)
O60_23 O 0.26199(7) 0.82929(7) 0.91931(7)
N6_23 N 0.29796(11) 0.81002(10) 0.93122(12)
C79_23 C 0.16215(12) 0.94067(11) 0.91417(11)
C80_23 C 0.18335(11) 0.93002(10) 0.90374(11)
H57_23 H 0.1915 0.9380 0.8900
C81_23 C 0.19287(11) 0.90750(11) 0.91339(10)
C82_23 C 0.18115(11) 0.89635(11) 0.93390(10)
H58_23 H 0.1879 0.8813 0.9409
C83_23 C 0.15981(12) 0.90679(11) 0.94426(11)
C84_23 C 0.14976(12) 0.93010(11) 0.93488(11)
H59_23 H 0.1355 0.9379 0.9423
C85_23 C 0.15128(13) 0.96431(12) 0.90267(12)
C86_23 C 0.21516(10) 0.89538(10) 0.90144(10)
C87_23 C 0.14653(13) 0.89412(14) 0.96663(11)
C88_23 C 0.28516(13) 0.82800(12) 0.92248(12)
H60_23 H 0.2945 0.8425 0.9177
C89_23 C 0.32445(17) 0.81061(19) 0.9355(2)
H61_23 H 0.3304 0.8281 0.9348
H62_23 H 0.3282 0.8035 0.9521
H63_23 H 0.3330 0.8007 0.9225
C90_23 C 0.28664(17) 0.78578(16) 0.9321(2)
H64_23 H 0.2721 0.7854 0.9208
H65_23 H 0.2989 0.7731 0.9268
H66_23 H 0.2811 0.7822 0.9493
Zn32_23 Zn 0.25016(2) 0.89466(2) 0.85511(2)
O70_23 O 0.27558(8) 0.88241(7) 0.90575(8)
O79_23 O 0.27507(7) 0.84431(8) 0.86807(7)
O84_23 O 0.22235(8) 0.83820(8) 0.87420(7)
Zn12_24 Zn 0.24984(2) 0.14489(2) 0.10534(2)
O56_24 O 0.22442(8) 0.09425(8) 0.11759(7)
O57_24 O 0.22322(8) 0.12450(7) 0.08825(8)
O60_24 O 0.26199(7) 0.17071(7) 0.08069(7)
N6_24 N 0.29796(11) 0.18998(10) 0.06878(12)
C79_24 C 0.16215(12) 0.05933(11) 0.08583(11)
C80_24 C 0.18335(11) 0.06998(10) 0.09626(11)
H57_24 H 0.1915 0.0620 0.1100
C81_24 C 0.19287(11) 0.09250(11) 0.08661(10)
C82_24 C 0.18115(11) 0.10365(11) 0.06610(10)
H58_24 H 0.1879 0.1187 0.0591
C83_24 C 0.15981(12) 0.09321(11) 0.05574(11)
C84_24 C 0.14976(12) 0.06990(11) 0.06512(11)
H59_24 H 0.1355 0.0621 0.0577
C85_24 C 0.15128(13) 0.03569(12) 0.09733(12)
C86_24 C 0.21516(10) 0.10462(10) 0.09856(10)
C87_24 C 0.14653(13) 0.10588(14) 0.03337(11)
C88_24 C 0.28516(13) 0.17200(12) 0.07752(12)
H60_24 H 0.2945 0.1575 0.0823
C89_24 C 0.32445(17) 0.18939(19) 0.0645(2)
H61_24 H 0.3304 0.1719 0.0652
H62_24 H 0.3282 0.1965 0.0479
H63_24 H 0.3330 0.1993 0.0775
C90_24 C 0.28664(17) 0.21422(16) 0.0679(2)
H64_24 H 0.2721 0.2146 0.0792
H65_24 H 0.2989 0.2269 0.0732
H66_24 H 0.2811 0.2178 0.0507
Zn32_24 Zn 0.25016(2) 0.10534(2) 0.14489(2)
O70_24 O 0.27558(8) 0.11759(7) 0.09425(8)
O79_24 O 0.27507(7) 0.15569(8) 0.13193(7)
O84_24 O 0.22235(8) 0.16180(8) 0.12580(7)
O24_13 O 0.41895(16) 0.07773(16) 0.0000
O25_13 O 0.32318(15) 0.16572(15) 0.0000
O61_9 O 0.36897(9) 0.08736(9) 0.02713(8)
O63_9 O 0.33866(9) 0.11675(8) 0.02684(8)
O73_9 O 0.37393(8) 0.15557(9) 0.02641(8)
O76_9 O 0.40423(9) 0.12613(9) 0.02684(8)
Zn1_13 Zn 0.39813(2) 0.0000 0.89124(2)
Zn2_13 Zn 0.35936(2) 0.0000 0.85071(2)
O1_9 O 0.41264(9) 0.02713(8) 0.86897(9)
O2_9 O 0.38325(8) 0.02684(8) 0.83866(9)
O3_9 O 0.38241(7) 0.09425(8) 0.77558(8)
O4_9 O 0.41175(8) 0.12450(7) 0.77678(8)
O5_9 O 0.47359(8) 0.12607(8) 0.84443(9)
O6_9 O 0.47316(8) 0.09577(9) 0.87387(9)
O9_13 O 0.42227(16) 0.0000 0.91895(16)
O10_13 O 0.33428(15) -0.0000 0.82318(15)
O11_9 O 0.41931(7) 0.17071(7) 0.73801(7)
N1_9 N 0.43122(12) 0.18998(10) 0.70204(11)
C1_9 C 0.41417(11) 0.05933(11) 0.83785(12)
C2_9 C 0.40374(11) 0.06998(10) 0.81665(11)
H1_9 H 0.3900 0.0620 0.8085
C3_9 C 0.41339(10) 0.09250(11) 0.80713(11)
C4_9 C 0.43390(10) 0.10365(11) 0.81885(11)
H2_9 H 0.4409 0.1187 0.8121
C5_9 C 0.44426(11) 0.09321(11) 0.84019(12)
C6_9 C 0.43488(11) 0.06990(11) 0.85024(12)
H3_9 H 0.4423 0.0621 0.8645
C7_9 C 0.40267(12) 0.03569(12) 0.84872(13)
C8_9 C 0.40144(10) 0.10462(10) 0.78484(10)
C9_9 C 0.46663(11) 0.10588(14) 0.85347(13)
C13_9 C 0.42248(12) 0.17200(12) 0.71484(13)
H5_9 H 0.4177 0.1575 0.7055
C14_9 C 0.4355(2) 0.18939(19) 0.67555(17)
H6_9 H 0.4348 0.1719 0.6696
H7_9 H 0.4521 0.1965 0.6718
H8_9 H 0.4225 0.1993 0.6670
C15_9 C 0.4321(2) 0.21422(16) 0.71336(17)
H9_9 H 0.4208 0.2146 0.7279
H10_9 H 0.4268 0.2269 0.7011
H11_9 H 0.4493 0.2178 0.7189
O16_9 O 0.36897(9) 0.08736(9) 0.97287(8)
O17_9 O 0.33866(9) 0.11675(8) 0.97316(8)
O19_9 O 0.27678(8) 0.08825(8) 0.87550(7)
O20_9 O 0.34443(9) 0.02641(8) 0.87393(8)
O21_9 O 0.37387(9) 0.02684(8) 0.90423(9)
O22_9 O 0.22493(7) 0.13193(7) 0.84431(8)
O24_14 O 0.41895(16) 0.07773(16) 1.0000
O25_14 O 0.32318(15) 0.16572(15) 1.0000
O26_9 O 0.23801(7) 0.08069(7) 0.82929(7)
N2_9 N 0.20204(11) 0.06878(12) 0.81002(10)
C22_9 C 0.33785(12) 0.08583(11) 0.94067(11)
C23_9 C 0.31665(11) 0.09626(11) 0.93002(10)
H14_9 H 0.3085 0.1100 0.9380
C24_9 C 0.30713(11) 0.08661(10) 0.90750(11)
C25_9 C 0.31885(11) 0.06610(10) 0.89635(11)
H15_9 H 0.3121 0.0591 0.8813
C26_9 C 0.34019(12) 0.05574(11) 0.90679(11)
C27_9 C 0.35024(12) 0.06512(11) 0.93010(11)
H16_9 H 0.3645 0.0577 0.9379
C28_9 C 0.34872(13) 0.09733(12) 0.96431(12)
C29_9 C 0.28484(10) 0.09856(10) 0.89538(10)
C30_9 C 0.35347(13) 0.03337(11) 0.89412(14)
C31_17 C 0.19262(10) 0.16143(10) 0.84085(10)
C32_17 C 0.18295(11) 0.14952(9) 0.81985(11)
H17_17 H 0.1908 0.1347 0.8137
C33_17 C 0.21459(11) 0.14969(12) 0.85458(11)
C34_9 C 0.21484(13) 0.07752(12) 0.82800(12)
H18_9 H 0.2055 0.0823 0.8425
C35_9 C 0.17555(17) 0.0645(2) 0.81061(19)
H19_9 H 0.1696 0.0652 0.8281
H20_9 H 0.1718 0.0479 0.8035
H21_9 H 0.1670 0.0775 0.8007
C36_9 C 0.21336(17) 0.0679(2) 0.78578(16)
H22_9 H 0.2279 0.0792 0.7854
H23_9 H 0.2011 0.0732 0.7731
H24_9 H 0.2189 0.0507 0.7822
O27_9 O 0.13193(7) 0.15569(8) 0.77507(7)
C37_17 C 0.16143(10) 0.15915(10) 0.80738(10)
C38_17 C 0.14952(9) 0.18015(11) 0.81705(11)
H25_17 H 0.1347 0.1863 0.8092
C39_17 C 0.14969(12) 0.14542(11) 0.78541(11)
O29_17 O 0.15569(8) 0.22493(7) 0.86807(7)
C40_17 C 0.15915(10) 0.19262(10) 0.83857(10)
C41_17 C 0.18015(11) 0.18295(11) 0.85048(9)
H26_17 H 0.1863 0.1908 0.8653
C42_17 C 0.14542(11) 0.21459(11) 0.85031(12)
O37_13 O 0.5000 0.08105(16) 0.92227(16)
O38_13 O 0.5000 0.17682(15) 0.83428(15)
O62_9 O 0.52713(8) 0.13103(9) 0.91264(9)
O64_9 O 0.52684(8) 0.16134(9) 0.88325(8)
O68_9 O 0.40575(8) 0.11759(7) 0.72442(8)
O71_5 O 0.52641(8) 0.12607(8) 0.84443(9)
O74_5 O 0.52684(8) 0.09577(9) 0.87387(9)
Zn1_14 Zn 0.39813(2) 1.0000 0.89124(2)
Zn2_14 Zn 0.35936(2) 1.0000 0.85071(2)
O9_14 O 0.42227(16) 1.0000 0.91895(16)
O10_14 O 0.33428(15) 1.0000 0.82318(15)
Zn12_25 Zn 0.39466(2) 0.85511(2) 0.75016(2)
O54_9 O 0.41264(9) 0.97287(8) 0.86897(9)
O55_9 O 0.38325(8) 0.97316(8) 0.83866(9)
O56_25 O 0.38241(7) 0.90575(8) 0.77558(8)
O57_25 O 0.41175(8) 0.87550(7) 0.77678(8)
O58_5 O 0.47359(8) 0.87393(8) 0.84443(9)
O59_5 O 0.47316(8) 0.90423(9) 0.87387(9)
O60_25 O 0.41931(7) 0.82929(7) 0.73801(7)
N6_25 N 0.43122(12) 0.81002(10) 0.70204(11)
C79_25 C 0.41417(11) 0.94067(11) 0.83785(12)
C80_25 C 0.40374(11) 0.93002(10) 0.81665(11)
H57_25 H 0.3900 0.9380 0.8085
C81_25 C 0.41339(10) 0.90750(11) 0.80713(11)
C82_25 C 0.43390(10) 0.89635(11) 0.81885(11)
H58_25 H 0.4409 0.8813 0.8121
C83_25 C 0.44426(11) 0.90679(11) 0.84019(12)
C84_25 C 0.43488(11) 0.93010(11) 0.85024(12)
H59_25 H 0.4423 0.9379 0.8645
C85_25 C 0.40267(12) 0.96431(12) 0.84872(13)
C86_25 C 0.40144(10) 0.89538(10) 0.78484(10)
C87_25 C 0.46663(11) 0.89412(14) 0.85347(13)
C88_25 C 0.42248(12) 0.82800(12) 0.71484(13)
H60_25 H 0.4177 0.8425 0.7055
C89_25 C 0.4355(2) 0.81061(19) 0.67555(17)
H61_25 H 0.4348 0.8281 0.6696
H62_25 H 0.4521 0.8035 0.6718
H63_25 H 0.4225 0.8007 0.6670
C90_25 C 0.4321(2) 0.78578(16) 0.71336(17)
H64_25 H 0.4208 0.7854 0.7279
H65_25 H 0.4268 0.7731 0.7011
H66_25 H 0.4493 0.7822 0.7189
Zn32_25 Zn 0.35511(2) 0.89466(2) 0.74984(2)
O70_25 O 0.40575(8) 0.88241(7) 0.72442(8)
O72_9 O 0.34443(9) 0.97359(8) 0.87393(8)
O75_9 O 0.37387(9) 0.97316(8) 0.90423(9)
O79_25 O 0.36807(7) 0.84431(8) 0.72493(7)
O84_25 O 0.37420(7) 0.83820(8) 0.77765(8)
Zn1_15 Zn 0.60187(2) 0.0000 0.89124(2)
Zn2_15 Zn 0.64064(2) 0.0000 0.85071(2)
O9_15 O 0.57773(16) 0.0000 0.91895(16)
O10_15 O 0.66572(15) -0.0000 0.82318(15)
Zn12_26 Zn 0.60534(2) 0.14489(2) 0.75016(2)
O54_10 O 0.58736(9) 0.02713(8) 0.86897(9)
O55_10 O 0.61675(8) 0.02684(8) 0.83866(9)
O56_26 O 0.61759(7) 0.09425(8) 0.77558(8)
O57_26 O 0.58825(8) 0.12450(7) 0.77678(8)
O60_26 O 0.58069(7) 0.17071(7) 0.73801(7)
N6_26 N 0.56878(12) 0.18998(10) 0.70204(11)
C79_26 C 0.58583(11) 0.05933(11) 0.83785(12)
C80_26 C 0.59626(11) 0.06998(10) 0.81665(11)
H57_26 H 0.6100 0.0620 0.8085
C81_26 C 0.58661(10) 0.09250(11) 0.80713(11)
C82_26 C 0.56610(10) 0.10365(11) 0.81885(11)
H58_26 H 0.5591 0.1187 0.8121
C83_26 C 0.55574(11) 0.09321(11) 0.84019(12)
C84_26 C 0.56512(11) 0.06990(11) 0.85024(12)
H59_26 H 0.5577 0.0621 0.8645
C85_26 C 0.59733(12) 0.03569(12) 0.84872(13)
C86_26 C 0.59856(10) 0.10462(10) 0.78484(10)
C87_26 C 0.53337(11) 0.10588(14) 0.85347(13)
C88_26 C 0.57752(12) 0.17200(12) 0.71484(13)
H60_26 H 0.5823 0.1575 0.7055
C89_26 C 0.5645(2) 0.18939(19) 0.67555(17)
H61_26 H 0.5652 0.1719 0.6696
H62_26 H 0.5479 0.1965 0.6718
H63_26 H 0.5775 0.1993 0.6670
C90_26 C 0.5679(2) 0.21422(16) 0.71336(17)
H64_26 H 0.5792 0.2146 0.7279
H65_26 H 0.5732 0.2269 0.7011
H66_26 H 0.5507 0.2178 0.7189
Zn32_26 Zn 0.64489(2) 0.10534(2) 0.74984(2)
O70_26 O 0.59425(8) 0.11759(7) 0.72442(8)
O72_10 O 0.65557(9) 0.02641(8) 0.87393(8)
O75_10 O 0.62613(9) 0.02684(8) 0.90423(9)
O79_26 O 0.63193(7) 0.15569(8) 0.72493(7)
O84_26 O 0.62580(7) 0.16180(8) 0.77765(8)
O24_15 O 0.58105(16) 0.92227(16) 0.0000
O25_15 O 0.67682(15) 0.83428(15) 0.0000
O61_10 O 0.63103(9) 0.91264(9) 0.02713(8)
O63_10 O 0.66134(9) 0.88325(8) 0.02684(8)
O73_10 O 0.62607(8) 0.84443(9) 0.02641(8)
O76_10 O 0.59577(9) 0.87387(9) 0.02684(8)
Zn1_16 Zn 0.60187(2) 1.0000 0.89124(2)
Zn2_16 Zn 0.64064(2) 1.0000 0.85071(2)
O1_10 O 0.58736(9) 0.97287(8) 0.86897(9)
O2_10 O 0.61675(8) 0.97316(8) 0.83866(9)
O3_10 O 0.61759(7) 0.90575(8) 0.77558(8)
O4_10 O 0.58825(8) 0.87550(7) 0.77678(8)
O5_10 O 0.52641(8) 0.87393(8) 0.84443(9)
O6_10 O 0.52684(8) 0.90423(9) 0.87387(9)
O9_16 O 0.57773(16) 1.0000 0.91895(16)
O10_16 O 0.66572(15) 1.0000 0.82318(15)
O11_10 O 0.58069(7) 0.82929(7) 0.73801(7)
N1_10 N 0.56878(12) 0.81002(10) 0.70204(11)
C1_10 C 0.58583(11) 0.94067(11) 0.83785(12)
C2_10 C 0.59626(11) 0.93002(10) 0.81665(11)
H1_10 H 0.6100 0.9380 0.8085
C3_10 C 0.58661(10) 0.90750(11) 0.80713(11)
C4_10 C 0.56610(10) 0.89635(11) 0.81885(11)
H2_10 H 0.5591 0.8813 0.8121
C5_10 C 0.55574(11) 0.90679(11) 0.84019(12)
C6_10 C 0.56512(11) 0.93010(11) 0.85024(12)
H3_10 H 0.5577 0.9379 0.8645
C7_10 C 0.59733(12) 0.96431(12) 0.84872(13)
C8_10 C 0.59856(10) 0.89538(10) 0.78484(10)
C9_10 C 0.53337(11) 0.89412(14) 0.85347(13)
C13_10 C 0.57752(12) 0.82800(12) 0.71484(13)
H5_10 H 0.5823 0.8425 0.7055
C14_10 C 0.5645(2) 0.81061(19) 0.67555(17)
H6_10 H 0.5652 0.8281 0.6696
H7_10 H 0.5479 0.8035 0.6718
H8_10 H 0.5775 0.8007 0.6670
C15_10 C 0.5679(2) 0.78578(16) 0.71336(17)
H9_10 H 0.5792 0.7854 0.7279
H10_10 H 0.5732 0.7731 0.7011
H11_10 H 0.5507 0.7822 0.7189
O16_10 O 0.63103(9) 0.91264(9) 0.97287(8)
O17_10 O 0.66134(9) 0.88325(8) 0.97316(8)
O19_10 O 0.72322(8) 0.91175(8) 0.87550(7)
O20_10 O 0.65557(9) 0.97359(8) 0.87393(8)
O21_10 O 0.62613(9) 0.97316(8) 0.90423(9)
O22_10 O 0.77507(7) 0.86807(7) 0.84431(8)
O24_16 O 0.58105(16) 0.92227(16) 1.0000
O25_16 O 0.67682(15) 0.83428(15) 1.0000
O26_10 O 0.76199(7) 0.91931(7) 0.82929(7)
N2_10 N 0.79796(11) 0.93122(12) 0.81002(10)
C22_10 C 0.66215(12) 0.91417(11) 0.94067(11)
C23_10 C 0.68335(11) 0.90374(11) 0.93002(10)
H14_10 H 0.6915 0.8900 0.9380
C24_10 C 0.69287(11) 0.91339(10) 0.90750(11)
C25_10 C 0.68115(11) 0.93390(10) 0.89635(11)
H15_10 H 0.6879 0.9409 0.8813
C26_10 C 0.65981(12) 0.94426(11) 0.90679(11)
C27_10 C 0.64976(12) 0.93488(11) 0.93010(11)
H16_10 H 0.6355 0.9423 0.9379
C28_10 C 0.65128(13) 0.90267(12) 0.96431(12)
C29_10 C 0.71516(10) 0.90144(10) 0.89538(10)
C30_10 C 0.64653(13) 0.96663(11) 0.89412(14)
C31_18 C 0.80738(10) 0.83857(10) 0.84085(10)
C32_18 C 0.81705(11) 0.85048(9) 0.81985(11)
H17_18 H 0.8092 0.8653 0.8137
C33_18 C 0.78541(11) 0.85031(12) 0.85458(11)
C34_10 C 0.78516(13) 0.92248(12) 0.82800(12)
H18_10 H 0.7945 0.9177 0.8425
C35_10 C 0.82445(17) 0.9355(2) 0.81061(19)
H19_10 H 0.8304 0.9348 0.8281
H20_10 H 0.8282 0.9521 0.8035
H21_10 H 0.8330 0.9225 0.8007
C36_10 C 0.78664(17) 0.9321(2) 0.78578(16)
H22_10 H 0.7721 0.9208 0.7854
H23_10 H 0.7989 0.9268 0.7731
H24_10 H 0.7811 0.9493 0.7822
O27_10 O 0.86807(7) 0.84431(8) 0.77507(7)
C37_18 C 0.83857(10) 0.84085(10) 0.80738(10)
C38_18 C 0.85048(9) 0.81985(11) 0.81705(11)
H25_18 H 0.8653 0.8137 0.8092
C39_18 C 0.85031(12) 0.85458(11) 0.78541(11)
O29_18 O 0.84431(8) 0.77507(7) 0.86807(7)
C40_18 C 0.84085(10) 0.80738(10) 0.83857(10)
C41_18 C 0.81985(11) 0.81705(11) 0.85048(9)
H26_18 H 0.8137 0.8092 0.8653
C42_18 C 0.85458(11) 0.78541(11) 0.85031(12)
O37_14 O 0.5000 0.91895(16) 0.92227(16)
O38_14 O 0.5000 0.82318(15) 0.83428(15)
O62_10 O 0.47287(8) 0.86897(9) 0.91264(9)
O64_10 O 0.47316(8) 0.83866(9) 0.88325(8)
O68_10 O 0.59425(8) 0.88241(7) 0.72442(8)
Zn1_17 Zn 0.60187(2) 0.0000 0.10876(2)
Zn2_17 Zn 0.64064(2) 0.0000 0.14929(2)
O1_11 O 0.58736(9) 0.02713(8) 0.13103(9)
O2_11 O 0.61675(8) 0.02684(8) 0.16134(9)
O3_11 O 0.61759(7) 0.09425(8) 0.22442(8)
O4_11 O 0.58825(8) 0.12450(7) 0.22322(8)
O5_11 O 0.52641(8) 0.12607(8) 0.15557(9)
O6_11 O 0.52684(8) 0.09577(9) 0.12613(9)
O9_17 O 0.57773(16) 0.0000 0.08105(16)
O10_17 O 0.66572(15) -0.0000 0.17682(15)
O11_11 O 0.58069(7) 0.17071(7) 0.26199(7)
N1_11 N 0.56878(12) 0.18998(10) 0.29796(11)
C1_11 C 0.58583(11) 0.05933(11) 0.16215(12)
C2_11 C 0.59626(11) 0.06998(10) 0.18335(11)
H1_11 H 0.6100 0.0620 0.1915
C3_11 C 0.58661(10) 0.09250(11) 0.19287(11)
C4_11 C 0.56610(10) 0.10365(11) 0.18115(11)
H2_11 H 0.5591 0.1187 0.1879
C5_11 C 0.55574(11) 0.09321(11) 0.15981(12)
C6_11 C 0.56512(11) 0.06990(11) 0.14976(12)
H3_11 H 0.5577 0.0621 0.1355
C7_11 C 0.59733(12) 0.03569(12) 0.15128(13)
C8_11 C 0.59856(10) 0.10462(10) 0.21516(10)
C9_11 C 0.53337(11) 0.10588(14) 0.14653(13)
C13_11 C 0.57752(12) 0.17200(12) 0.28516(13)
H5_11 H 0.5823 0.1575 0.2945
C14_11 C 0.5645(2) 0.18939(19) 0.32445(17)
H6_11 H 0.5652 0.1719 0.3304
H7_11 H 0.5479 0.1965 0.3282
H8_11 H 0.5775 0.1993 0.3330
C15_11 C 0.5679(2) 0.21422(16) 0.28664(17)
H9_11 H 0.5792 0.2146 0.2721
H10_11 H 0.5732 0.2269 0.2989
H11_11 H 0.5507 0.2178 0.2811
O16_11 O 0.63103(9) 0.08736(9) 0.02713(8)
O17_11 O 0.66134(9) 0.11675(8) 0.02684(8)
O19_11 O 0.72322(8) 0.08825(8) 0.12450(7)
O20_11 O 0.65557(9) 0.02641(8) 0.12607(8)
O21_11 O 0.62613(9) 0.02684(8) 0.09577(9)
O22_11 O 0.77507(7) 0.13193(7) 0.15569(8)
O24_17 O 0.58105(16) 0.07773(16) 0.0000
O25_17 O 0.67682(15) 0.16572(15) 0.0000
O26_11 O 0.76199(7) 0.08069(7) 0.17071(7)
N2_11 N 0.79796(11) 0.06878(12) 0.18998(10)
C22_11 C 0.66215(12) 0.08583(11) 0.05933(11)
C23_11 C 0.68335(11) 0.09626(11) 0.06998(10)
H14_11 H 0.6915 0.1100 0.0620
C24_11 C 0.69287(11) 0.08661(10) 0.09250(11)
C25_11 C 0.68115(11) 0.06610(10) 0.10365(11)
H15_11 H 0.6879 0.0591 0.1187
C26_11 C 0.65981(12) 0.05574(11) 0.09321(11)
C27_11 C 0.64976(12) 0.06512(11) 0.06990(11)
H16_11 H 0.6355 0.0577 0.0621
C28_11 C 0.65128(13) 0.09733(12) 0.03569(12)
C29_11 C 0.71516(10) 0.09856(10) 0.10462(10)
C30_11 C 0.64653(13) 0.03337(11) 0.10588(14)
C31_19 C 0.80738(10) 0.16143(10) 0.15915(10)
C32_19 C 0.81705(11) 0.14952(9) 0.18015(11)
H17_19 H 0.8092 0.1347 0.1863
C33_19 C 0.78541(11) 0.14969(12) 0.14542(11)
C34_11 C 0.78516(13) 0.07752(12) 0.17200(12)
H18_11 H 0.7945 0.0823 0.1575
C35_11 C 0.82445(17) 0.0645(2) 0.18939(19)
H19_11 H 0.8304 0.0652 0.1719
H20_11 H 0.8282 0.0479 0.1965
H21_11 H 0.8330 0.0775 0.1993
C36_11 C 0.78664(17) 0.0679(2) 0.21422(16)
H22_11 H 0.7721 0.0792 0.2146
H23_11 H 0.7989 0.0732 0.2269
H24_11 H 0.7811 0.0507 0.2178
O27_11 O 0.86807(7) 0.15569(8) 0.22493(7)
C37_19 C 0.83857(10) 0.15915(10) 0.19262(10)
C38_19 C 0.85048(9) 0.18015(11) 0.18295(11)
H25_19 H 0.8653 0.1863 0.1908
C39_19 C 0.85031(12) 0.14542(11) 0.21459(11)
O29_19 O 0.84431(8) 0.22493(7) 0.13193(7)
C40_19 C 0.84085(10) 0.19262(10) 0.16143(10)
C41_19 C 0.81985(11) 0.18295(11) 0.14952(9)
H26_19 H 0.8137 0.1908 0.1347
C42_19 C 0.85458(11) 0.21459(11) 0.14969(12)
O37_15 O 0.5000 0.08105(16) 0.07773(16)
O38_15 O 0.5000 0.17682(15) 0.16572(15)
O62_11 O 0.47287(8) 0.13103(9) 0.08736(9)
O64_11 O 0.47316(8) 0.16134(9) 0.11675(8)
O68_11 O 0.59425(8) 0.11759(7) 0.27558(8)
O71_6 O 0.47359(8) 0.12607(8) 0.15557(9)
O74_6 O 0.47316(8) 0.09577(9) 0.12613(9)
O24_18 O 0.58105(16) 0.07773(16) 1.0000
O25_18 O 0.67682(15) 0.16572(15) 1.0000
O61_11 O 0.63103(9) 0.08736(9) 0.97287(8)
O63_11 O 0.66134(9) 0.11675(8) 0.97316(8)
O73_11 O 0.62607(8) 0.15557(9) 0.97359(8)
O76_11 O 0.59577(9) 0.12613(9) 0.97316(8)
Zn1_18 Zn 0.60187(2) 1.0000 0.10876(2)
Zn2_18 Zn 0.64064(2) 1.0000 0.14929(2)
O9_18 O 0.57773(16) 1.0000 0.08105(16)
O10_18 O 0.66572(15) 1.0000 0.17682(15)
Zn12_27 Zn 0.60534(2) 0.85511(2) 0.24984(2)
O54_11 O 0.58736(9) 0.97287(8) 0.13103(9)
O55_11 O 0.61675(8) 0.97316(8) 0.16134(9)
O56_27 O 0.61759(7) 0.90575(8) 0.22442(8)
O57_27 O 0.58825(8) 0.87550(7) 0.22322(8)
O58_6 O 0.52641(8) 0.87393(8) 0.15557(9)
O59_6 O 0.52684(8) 0.90423(9) 0.12613(9)
O60_27 O 0.58069(7) 0.82929(7) 0.26199(7)
N6_27 N 0.56878(12) 0.81002(10) 0.29796(11)
C79_27 C 0.58583(11) 0.94067(11) 0.16215(12)
C80_27 C 0.59626(11) 0.93002(10) 0.18335(11)
H57_27 H 0.6100 0.9380 0.1915
C81_27 C 0.58661(10) 0.90750(11) 0.19287(11)
C82_27 C 0.56610(10) 0.89635(11) 0.18115(11)
H58_27 H 0.5591 0.8813 0.1879
C83_27 C 0.55574(11) 0.90679(11) 0.15981(12)
C84_27 C 0.56512(11) 0.93010(11) 0.14976(12)
H59_27 H 0.5577 0.9379 0.1355
C85_27 C 0.59733(12) 0.96431(12) 0.15128(13)
C86_27 C 0.59856(10) 0.89538(10) 0.21516(10)
C87_27 C 0.53337(11) 0.89412(14) 0.14653(13)
C88_27 C 0.57752(12) 0.82800(12) 0.28516(13)
H60_27 H 0.5823 0.8425 0.2945
C89_27 C 0.5645(2) 0.81061(19) 0.32445(17)
H61_27 H 0.5652 0.8281 0.3304
H62_27 H 0.5479 0.8035 0.3282
H63_27 H 0.5775 0.8007 0.3330
C90_27 C 0.5679(2) 0.78578(16) 0.28664(17)
H64_27 H 0.5792 0.7854 0.2721
H65_27 H 0.5732 0.7731 0.2989
H66_27 H 0.5507 0.7822 0.2811
Zn32_27 Zn 0.64489(2) 0.89466(2) 0.25016(2)
O70_27 O 0.59425(8) 0.88241(7) 0.27558(8)
O72_11 O 0.65557(9) 0.97359(8) 0.12607(8)
O75_11 O 0.62613(9) 0.97316(8) 0.09577(9)
O79_27 O 0.63193(7) 0.84431(8) 0.27507(7)
O84_27 O 0.62580(7) 0.83820(8) 0.22235(8)
Zn1_19 Zn 0.39813(2) 0.0000 0.10876(2)
Zn2_19 Zn 0.35936(2) 0.0000 0.14929(2)
O9_19 O 0.42227(16) 0.0000 0.08105(16)
O10_19 O 0.33428(15) -0.0000 0.17682(15)
Zn12_28 Zn 0.39466(2) 0.14489(2) 0.24984(2)
O54_12 O 0.41264(9) 0.02713(8) 0.13103(9)
O55_12 O 0.38325(8) 0.02684(8) 0.16134(9)
O56_28 O 0.38241(7) 0.09425(8) 0.22442(8)
O57_28 O 0.41175(8) 0.12450(7) 0.22322(8)
O60_28 O 0.41931(7) 0.17071(7) 0.26199(7)
N6_28 N 0.43122(12) 0.18998(10) 0.29796(11)
C79_28 C 0.41417(11) 0.05933(11) 0.16215(12)
C80_28 C 0.40374(11) 0.06998(10) 0.18335(11)
H57_28 H 0.3900 0.0620 0.1915
C81_28 C 0.41339(10) 0.09250(11) 0.19287(11)
C82_28 C 0.43390(10) 0.10365(11) 0.18115(11)
H58_28 H 0.4409 0.1187 0.1879
C83_28 C 0.44426(11) 0.09321(11) 0.15981(12)
C84_28 C 0.43488(11) 0.06990(11) 0.14976(12)
H59_28 H 0.4423 0.0621 0.1355
C85_28 C 0.40267(12) 0.03569(12) 0.15128(13)
C86_28 C 0.40144(10) 0.10462(10) 0.21516(10)
C87_28 C 0.46663(11) 0.10588(14) 0.14653(13)
C88_28 C 0.42248(12) 0.17200(12) 0.28516(13)
H60_28 H 0.4177 0.1575 0.2945
C89_28 C 0.4355(2) 0.18939(19) 0.32445(17)
H61_28 H 0.4348 0.1719 0.3304
H62_28 H 0.4521 0.1965 0.3282
H63_28 H 0.4225 0.1993 0.3330
C90_28 C 0.4321(2) 0.21422(16) 0.28664(17)
H64_28 H 0.4208 0.2146 0.2721
H65_28 H 0.4268 0.2269 0.2989
H66_28 H 0.4493 0.2178 0.2811
Zn32_28 Zn 0.35511(2) 0.10534(2) 0.25016(2)
O70_28 O 0.40575(8) 0.11759(7) 0.27558(8)
O72_12 O 0.34443(9) 0.02641(8) 0.12607(8)
O75_12 O 0.37387(9) 0.02684(8) 0.09577(9)
O79_28 O 0.36807(7) 0.15569(8) 0.27507(7)
O84_28 O 0.37420(7) 0.16180(8) 0.22235(8)
Zn1_20 Zn 0.39813(2) 1.0000 0.10876(2)
Zn2_20 Zn 0.35936(2) 1.0000 0.14929(2)
O1_12 O 0.41264(9) 0.97287(8) 0.13103(9)
O2_12 O 0.38325(8) 0.97316(8) 0.16134(9)
O3_12 O 0.38241(7) 0.90575(8) 0.22442(8)
O4_12 O 0.41175(8) 0.87550(7) 0.22322(8)
O5_12 O 0.47359(8) 0.87393(8) 0.15557(9)
O6_12 O 0.47316(8) 0.90423(9) 0.12613(9)
O9_20 O 0.42227(16) 1.0000 0.08105(16)
O10_20 O 0.33428(15) 1.0000 0.17682(15)
O11_12 O 0.41931(7) 0.82929(7) 0.26199(7)
N1_12 N 0.43122(12) 0.81002(10) 0.29796(11)
C1_12 C 0.41417(11) 0.94067(11) 0.16215(12)
C2_12 C 0.40374(11) 0.93002(10) 0.18335(11)
H1_12 H 0.3900 0.9380 0.1915
C3_12 C 0.41339(10) 0.90750(11) 0.19287(11)
C4_12 C 0.43390(10) 0.89635(11) 0.18115(11)
H2_12 H 0.4409 0.8813 0.1879
C5_12 C 0.44426(11) 0.90679(11) 0.15981(12)
C6_12 C 0.43488(11) 0.93010(11) 0.14976(12)
H3_12 H 0.4423 0.9379 0.1355
C7_12 C 0.40267(12) 0.96431(12) 0.15128(13)
C8_12 C 0.40144(10) 0.89538(10) 0.21516(10)
C9_12 C 0.46663(11) 0.89412(14) 0.14653(13)
C13_12 C 0.42248(12) 0.82800(12) 0.28516(13)
H5_12 H 0.4177 0.8425 0.2945
C14_12 C 0.4355(2) 0.81061(19) 0.32445(17)
H6_12 H 0.4348 0.8281 0.3304
H7_12 H 0.4521 0.8035 0.3282
H8_12 H 0.4225 0.8007 0.3330
C15_12 C 0.4321(2) 0.78578(16) 0.28664(17)
H9_12 H 0.4208 0.7854 0.2721
H10_12 H 0.4268 0.7731 0.2989
H11_12 H 0.4493 0.7822 0.2811
O16_12 O 0.36897(9) 0.91264(9) 0.02713(8)
O17_12 O 0.33866(9) 0.88325(8) 0.02684(8)
O19_12 O 0.27678(8) 0.91175(8) 0.12450(7)
O20_12 O 0.34443(9) 0.97359(8) 0.12607(8)
O21_12 O 0.37387(9) 0.97316(8) 0.09577(9)
O22_12 O 0.22493(7) 0.86807(7) 0.15569(8)
O24_19 O 0.41895(16) 0.92227(16) 0.0000
O25_19 O 0.32318(15) 0.83428(15) 0.0000
O26_12 O 0.23801(7) 0.91931(7) 0.17071(7)
N2_12 N 0.20204(11) 0.93122(12) 0.18998(10)
C22_12 C 0.33785(12) 0.91417(11) 0.05933(11)
C23_12 C 0.31665(11) 0.90374(11) 0.06998(10)
H14_12 H 0.3085 0.8900 0.0620
C24_12 C 0.30713(11) 0.91339(10) 0.09250(11)
C25_12 C 0.31885(11) 0.93390(10) 0.10365(11)
H15_12 H 0.3121 0.9409 0.1187
C26_12 C 0.34019(12) 0.94426(11) 0.09321(11)
C27_12 C 0.35024(12) 0.93488(11) 0.06990(11)
H16_12 H 0.3645 0.9423 0.0621
C28_12 C 0.34872(13) 0.90267(12) 0.03569(12)
C29_12 C 0.28484(10) 0.90144(10) 0.10462(10)
C30_12 C 0.35347(13) 0.96663(11) 0.10588(14)
C31_20 C 0.19262(10) 0.83857(10) 0.15915(10)
C32_20 C 0.18295(11) 0.85048(9) 0.18015(11)
H17_20 H 0.1908 0.8653 0.1863
C33_20 C 0.21459(11) 0.85031(12) 0.14542(11)
C34_12 C 0.21484(13) 0.92248(12) 0.17200(12)
H18_12 H 0.2055 0.9177 0.1575
C35_12 C 0.17555(17) 0.9355(2) 0.18939(19)
H19_12 H 0.1696 0.9348 0.1719
H20_12 H 0.1718 0.9521 0.1965
H21_12 H 0.1670 0.9225 0.1993
C36_12 C 0.21336(17) 0.9321(2) 0.21422(16)
H22_12 H 0.2279 0.9208 0.2146
H23_12 H 0.2011 0.9268 0.2269
H24_12 H 0.2189 0.9493 0.2178
O27_12 O 0.13193(7) 0.84431(8) 0.22493(7)
C37_20 C 0.16143(10) 0.84085(10) 0.19262(10)
C38_20 C 0.14952(9) 0.81985(11) 0.18295(11)
H25_20 H 0.1347 0.8137 0.1908
C39_20 C 0.14969(12) 0.85458(11) 0.21459(11)
O29_20 O 0.15569(8) 0.77507(7) 0.13193(7)
C40_20 C 0.15915(10) 0.80738(10) 0.16143(10)
C41_20 C 0.18015(11) 0.81705(11) 0.14952(9)
H26_20 H 0.1863 0.8092 0.1347
C42_20 C 0.14542(11) 0.78541(11) 0.14969(12)
O37_16 O 0.5000 0.91895(16) 0.07773(16)
O38_16 O 0.5000 0.82318(15) 0.16572(15)
O62_12 O 0.52713(8) 0.86897(9) 0.08736(9)
O64_12 O 0.52684(8) 0.83866(9) 0.11675(8)
O68_12 O 0.40575(8) 0.88241(7) 0.27558(8)
O24_20 O 0.41895(16) 0.92227(16) 1.0000
O25_20 O 0.32318(15) 0.83428(15) 1.0000
O61_12 O 0.36897(9) 0.91264(9) 0.97287(8)
O63_12 O 0.33866(9) 0.88325(8) 0.97316(8)
O73_12 O 0.37393(8) 0.84443(9) 0.97359(8)
O76_12 O 0.40423(9) 0.87387(9) 0.97316(8)
O40_13 O 0.08736(9) 0.97287(8) 0.36897(9)
O41_13 O 0.11675(8) 0.97316(8) 0.33866(9)
O43_13 O 0.08825(8) 0.87550(7) 0.27678(8)
O44_13 O 0.02641(8) 0.87393(8) 0.34443(9)
O45_13 O 0.02684(8) 0.90423(9) 0.37387(9)
O46_13 O 0.08069(7) 0.82929(7) 0.23801(7)
N4_13 N 0.06878(12) 0.81002(10) 0.20204(11)
C55_13 C 0.08583(11) 0.94067(11) 0.33785(12)
C56_13 C 0.09626(11) 0.93002(10) 0.31665(11)
H37_13 H 0.1100 0.9380 0.3085
C57_13 C 0.08661(10) 0.90750(11) 0.30713(11)
C58_13 C 0.06610(10) 0.89635(11) 0.31885(11)
H38_13 H 0.0591 0.8813 0.3121
C59_13 C 0.05574(11) 0.90679(11) 0.34019(12)
C60_13 C 0.06512(11) 0.93010(11) 0.35024(12)
H39_13 H 0.0577 0.9379 0.3645
C61_13 C 0.09733(12) 0.96431(12) 0.34872(13)
C62_13 C 0.09856(10) 0.89538(10) 0.28484(10)
C63_13 C 0.03337(11) 0.89412(14) 0.35347(13)
C64_13 C 0.07752(12) 0.82800(12) 0.21484(13)
H40_13 H 0.0823 0.8425 0.2055
C65_13 C 0.0645(2) 0.81061(19) 0.17555(17)
H41_13 H 0.0652 0.8281 0.1696
H42_13 H 0.0479 0.8035 0.1718
H43_13 H 0.0775 0.8007 0.1670
C66_13 C 0.0679(2) 0.78578(16) 0.21336(17)
H44_13 H 0.0792 0.7854 0.2279
H45_13 H 0.0732 0.7731 0.2011
H46_13 H 0.0507 0.7822 0.2189
O47_13 O 0.36897(9) 0.52713(8) 0.08736(9)
O48_13 O 0.33866(9) 0.52684(8) 0.11675(8)
O49_9 O 0.27558(8) 0.59425(8) 0.11759(7)
O50_13 O 0.27678(8) 0.62450(7) 0.08825(8)
O51_13 O 0.34443(9) 0.62607(8) 0.02641(8)
O52_13 O 0.37387(9) 0.59577(9) 0.02684(8)
O53_13 O 0.23801(7) 0.67071(7) 0.08069(7)
N5_13 N 0.20204(11) 0.68998(10) 0.06878(12)
C67_13 C 0.33785(12) 0.55933(11) 0.08583(11)
C68_13 C 0.31665(11) 0.56998(10) 0.09626(11)
H47_13 H 0.3085 0.5620 0.1100
C69_13 C 0.30713(11) 0.59250(11) 0.08661(10)
C70_13 C 0.31885(11) 0.60365(11) 0.06610(10)
H48_13 H 0.3121 0.6187 0.0591
C71_13 C 0.34019(12) 0.59321(11) 0.05574(11)
C72_13 C 0.35024(12) 0.56990(11) 0.06512(11)
H49_13 H 0.3645 0.5621 0.0577
C73_13 C 0.34872(13) 0.53569(12) 0.09733(12)
C74_13 C 0.28484(10) 0.60462(10) 0.09856(10)
C75_13 C 0.35347(13) 0.60588(14) 0.03337(11)
C76_13 C 0.21484(13) 0.67200(12) 0.07752(12)
H50_13 H 0.2055 0.6575 0.0823
C77_13 C 0.17555(17) 0.68939(19) 0.0645(2)
H51_13 H 0.1696 0.6719 0.0652
H52_13 H 0.1718 0.6965 0.0479
H53_13 H 0.1670 0.6993 0.0775
C78_13 C 0.21336(17) 0.71422(16) 0.0679(2)
H54_13 H 0.2279 0.7146 0.0792
H55_13 H 0.2011 0.7269 0.0732
H56_13 H 0.2189 0.7178 0.0507
Zn14_25 Zn -0.0000 0.89124(2) 0.39813(2)
Zn16_25 Zn 0.39124(2) 0.5000 0.10187(2)
Zn19_25 Zn 0.0000 0.85071(2) 0.35936(2)
Zn21_25 Zn 0.35071(2) 0.5000 0.14064(2)
O66_9 O 0.22442(8) 0.61759(7) 0.09425(8)
O57_29 O 0.27678(8) 0.91175(8) 0.87550(7)
O60_29 O 0.23801(7) 0.91931(7) 0.82929(7)
N6_29 N 0.20204(11) 0.93122(12) 0.81002(10)
C79_29 C 0.33785(12) 0.91417(11) 0.94067(11)
C80_29 C 0.31665(11) 0.90374(11) 0.93002(10)
H57_29 H 0.3085 0.8900 0.9380
C81_29 C 0.30713(11) 0.91339(10) 0.90750(11)
C82_29 C 0.31885(11) 0.93390(10) 0.89635(11)
H58_29 H 0.3121 0.9409 0.8813
C83_29 C 0.34019(12) 0.94426(11) 0.90679(11)
C84_29 C 0.35024(12) 0.93488(11) 0.93010(11)
H59_29 H 0.3645 0.9423 0.9379
C85_29 C 0.34872(13) 0.90267(12) 0.96431(12)
C86_29 C 0.28484(10) 0.90144(10) 0.89538(10)
C87_29 C 0.35347(13) 0.96663(11) 0.89412(14)
C88_29 C 0.21484(13) 0.92248(12) 0.82800(12)
H60_29 H 0.2055 0.9177 0.8425
C89_29 C 0.17555(17) 0.9355(2) 0.81061(19)
H61_29 H 0.1696 0.9348 0.8281
H62_29 H 0.1718 0.9521 0.8035
H63_29 H 0.1670 0.9225 0.8007
C90_29 C 0.21336(17) 0.9321(2) 0.78578(16)
H64_29 H 0.2279 0.9208 0.7854
H65_29 H 0.2011 0.9268 0.7731
H66_29 H 0.2189 0.9493 0.7822
O79_29 O 0.22493(7) 0.86807(7) 0.84431(8)
O84_29 O 0.27765(8) 0.87420(7) 0.83820(8)
Zn14_26 Zn 1.0000 0.89124(2) 0.39813(2)
Zn19_26 Zn 1.0000 0.85071(2) 0.35936(2)
O57_30 O 0.27678(8) 0.08825(8) 0.12450(7)
O60_30 O 0.23801(7) 0.08069(7) 0.17071(7)
N6_30 N 0.20204(11) 0.06878(12) 0.18998(10)
C79_30 C 0.33785(12) 0.08583(11) 0.05933(11)
C80_30 C 0.31665(11) 0.09626(11) 0.06998(10)
H57_30 H 0.3085 0.1100 0.0620
C81_30 C 0.30713(11) 0.08661(10) 0.09250(11)
C82_30 C 0.31885(11) 0.06610(10) 0.10365(11)
H58_30 H 0.3121 0.0591 0.1187
C83_30 C 0.34019(12) 0.05574(11) 0.09321(11)
C84_30 C 0.35024(12) 0.06512(11) 0.06990(11)
H59_30 H 0.3645 0.0577 0.0621
C85_30 C 0.34872(13) 0.09733(12) 0.03569(12)
C86_30 C 0.28484(10) 0.09856(10) 0.10462(10)
C87_30 C 0.35347(13) 0.03337(11) 0.10588(14)
C88_30 C 0.21484(13) 0.07752(12) 0.17200(12)
H60_30 H 0.2055 0.0823 0.1575
C89_30 C 0.17555(17) 0.0645(2) 0.18939(19)
H61_30 H 0.1696 0.0652 0.1719
H62_30 H 0.1718 0.0479 0.1965
H63_30 H 0.1670 0.0775 0.1993
C90_30 C 0.21336(17) 0.0679(2) 0.21422(16)
H64_30 H 0.2279 0.0792 0.2146
H65_30 H 0.2011 0.0732 0.2269
H66_30 H 0.2189 0.0507 0.2178
O79_30 O 0.22493(7) 0.13193(7) 0.15569(8)
O84_30 O 0.27765(8) 0.12580(7) 0.16180(8)
O40_14 O 0.08736(9) 0.02713(8) 0.63103(9)
O41_14 O 0.11675(8) 0.02684(8) 0.66134(9)
O43_14 O 0.08825(8) 0.12450(7) 0.72322(8)
O44_14 O 0.02641(8) 0.12607(8) 0.65557(9)
O45_14 O 0.02684(8) 0.09577(9) 0.62613(9)
O46_14 O 0.08069(7) 0.17071(7) 0.76199(7)
N4_14 N 0.06878(12) 0.18998(10) 0.79796(11)
C55_14 C 0.08583(11) 0.05933(11) 0.66215(12)
C56_14 C 0.09626(11) 0.06998(10) 0.68335(11)
H37_14 H 0.1100 0.0620 0.6915
C57_14 C 0.08661(10) 0.09250(11) 0.69287(11)
C58_14 C 0.06610(10) 0.10365(11) 0.68115(11)
H38_14 H 0.0591 0.1187 0.6879
C59_14 C 0.05574(11) 0.09321(11) 0.65981(12)
C60_14 C 0.06512(11) 0.06990(11) 0.64976(12)
H39_14 H 0.0577 0.0621 0.6355
C61_14 C 0.09733(12) 0.03569(12) 0.65128(13)
C62_14 C 0.09856(10) 0.10462(10) 0.71516(10)
C63_14 C 0.03337(11) 0.10588(14) 0.64653(13)
C64_14 C 0.07752(12) 0.17200(12) 0.78516(13)
H40_14 H 0.0823 0.1575 0.7945
C65_14 C 0.0645(2) 0.18939(19) 0.82445(17)
H41_14 H 0.0652 0.1719 0.8304
H42_14 H 0.0479 0.1965 0.8282
H43_14 H 0.0775 0.1993 0.8330
C66_14 C 0.0679(2) 0.21422(16) 0.78664(17)
H44_14 H 0.0792 0.2146 0.7721
H45_14 H 0.0732 0.2269 0.7989
H46_14 H 0.0507 0.2178 0.7811
O47_14 O 0.36897(9) 0.47287(8) 0.91264(9)
O48_14 O 0.33866(9) 0.47316(8) 0.88325(8)
O49_10 O 0.27558(8) 0.40575(8) 0.88241(7)
O50_14 O 0.27678(8) 0.37550(7) 0.91175(8)
O51_14 O 0.34443(9) 0.37393(8) 0.97359(8)
O52_14 O 0.37387(9) 0.40423(9) 0.97316(8)
O53_14 O 0.23801(7) 0.32929(7) 0.91931(7)
N5_14 N 0.20204(11) 0.31002(10) 0.93122(12)
C67_14 C 0.33785(12) 0.44067(11) 0.91417(11)
C68_14 C 0.31665(11) 0.43002(10) 0.90374(11)
H47_14 H 0.3085 0.4380 0.8900
C69_14 C 0.30713(11) 0.40750(11) 0.91339(10)
C70_14 C 0.31885(11) 0.39635(11) 0.93390(10)
H48_14 H 0.3121 0.3813 0.9409
C71_14 C 0.34019(12) 0.40679(11) 0.94426(11)
C72_14 C 0.35024(12) 0.43010(11) 0.93488(11)
H49_14 H 0.3645 0.4379 0.9423
C73_14 C 0.34872(13) 0.46431(12) 0.90267(12)
C74_14 C 0.28484(10) 0.39538(10) 0.90144(10)
C75_14 C 0.35347(13) 0.39412(14) 0.96663(11)
C76_14 C 0.21484(13) 0.32800(12) 0.92248(12)
H50_14 H 0.2055 0.3425 0.9177
C77_14 C 0.17555(17) 0.31061(19) 0.9355(2)
H51_14 H 0.1696 0.3281 0.9348
H52_14 H 0.1718 0.3035 0.9521
H53_14 H 0.1670 0.3007 0.9225
C78_14 C 0.21336(17) 0.28578(16) 0.9321(2)
H54_14 H 0.2279 0.2854 0.9208
H55_14 H 0.2011 0.2731 0.9268
H56_14 H 0.2189 0.2822 0.9493
Zn14_27 Zn -0.0000 0.10876(2) 0.60187(2)
Zn16_26 Zn 0.39124(2) 0.5000 0.89813(2)
Zn19_27 Zn -0.0000 0.14929(2) 0.64064(2)
Zn21_26 Zn 0.35071(2) 0.5000 0.85936(2)
O66_10 O 0.22442(8) 0.38241(7) 0.90575(8)
Zn14_28 Zn 1.0000 0.10876(2) 0.60187(2)
Zn19_28 Zn 1.0000 0.14929(2) 0.64064(2)
Zn14_29 Zn -0.0000 0.10876(2) 0.39813(2)
Zn19_29 Zn -0.0000 0.14929(2) 0.35936(2)
O40_15 O 0.91264(9) 0.02713(8) 0.36897(9)
O41_15 O 0.88325(8) 0.02684(8) 0.33866(9)
O43_15 O 0.91175(8) 0.12450(7) 0.27678(8)
O44_15 O 0.97359(8) 0.12607(8) 0.34443(9)
O45_15 O 0.97316(8) 0.09577(9) 0.37387(9)
O46_15 O 0.91931(7) 0.17071(7) 0.23801(7)
N4_15 N 0.93122(12) 0.18998(10) 0.20204(11)
C55_15 C 0.91417(11) 0.05933(11) 0.33785(12)
C56_15 C 0.90374(11) 0.06998(10) 0.31665(11)
H37_15 H 0.8900 0.0620 0.3085
C57_15 C 0.91339(10) 0.09250(11) 0.30713(11)
C58_15 C 0.93390(10) 0.10365(11) 0.31885(11)
H38_15 H 0.9409 0.1187 0.3121
C59_15 C 0.94426(11) 0.09321(11) 0.34019(12)
C60_15 C 0.93488(11) 0.06990(11) 0.35024(12)
H39_15 H 0.9423 0.0621 0.3645
C61_15 C 0.90267(12) 0.03569(12) 0.34872(13)
C62_15 C 0.90144(10) 0.10462(10) 0.28484(10)
C63_15 C 0.96663(11) 0.10588(14) 0.35347(13)
C64_15 C 0.92248(12) 0.17200(12) 0.21484(13)
H40_15 H 0.9177 0.1575 0.2055
C65_15 C 0.9355(2) 0.18939(19) 0.17555(17)
H41_15 H 0.9348 0.1719 0.1696
H42_15 H 0.9521 0.1965 0.1718
H43_15 H 0.9225 0.1993 0.1670
C66_15 C 0.9321(2) 0.21422(16) 0.21336(17)
H44_15 H 0.9208 0.2146 0.2279
H45_15 H 0.9268 0.2269 0.2011
H46_15 H 0.9493 0.2178 0.2189
O47_15 O 0.63103(9) 0.47287(8) 0.08736(9)
O48_15 O 0.66134(9) 0.47316(8) 0.11675(8)
O49_11 O 0.72442(8) 0.40575(8) 0.11759(7)
O50_15 O 0.72322(8) 0.37550(7) 0.08825(8)
O51_15 O 0.65557(9) 0.37393(8) 0.02641(8)
O52_15 O 0.62613(9) 0.40423(9) 0.02684(8)
O53_15 O 0.76199(7) 0.32929(7) 0.08069(7)
N5_15 N 0.79796(11) 0.31002(10) 0.06878(12)
C67_15 C 0.66215(12) 0.44067(11) 0.08583(11)
C68_15 C 0.68335(11) 0.43002(10) 0.09626(11)
H47_15 H 0.6915 0.4380 0.1100
C69_15 C 0.69287(11) 0.40750(11) 0.08661(10)
C70_15 C 0.68115(11) 0.39635(11) 0.06610(10)
H48_15 H 0.6879 0.3813 0.0591
C71_15 C 0.65981(12) 0.40679(11) 0.05574(11)
C72_15 C 0.64976(12) 0.43010(11) 0.06512(11)
H49_15 H 0.6355 0.4379 0.0577
C73_15 C 0.65128(13) 0.46431(12) 0.09733(12)
C74_15 C 0.71516(10) 0.39538(10) 0.09856(10)
C75_15 C 0.64653(13) 0.39412(14) 0.03337(11)
C76_15 C 0.78516(13) 0.32800(12) 0.07752(12)
H50_15 H 0.7945 0.3425 0.0823
C77_15 C 0.82445(17) 0.31061(19) 0.0645(2)
H51_15 H 0.8304 0.3281 0.0652
H52_15 H 0.8282 0.3035 0.0479
H53_15 H 0.8330 0.3007 0.0775
C78_15 C 0.78664(17) 0.28578(16) 0.0679(2)
H54_15 H 0.7721 0.2854 0.0792
H55_15 H 0.7989 0.2731 0.0732
H56_15 H 0.7811 0.2822 0.0507
Zn14_30 Zn 1.0000 0.10876(2) 0.39813(2)
Zn16_27 Zn 0.60876(2) 0.5000 0.10187(2)
Zn19_30 Zn 1.0000 0.14929(2) 0.35936(2)
Zn21_27 Zn 0.64929(2) 0.5000 0.14064(2)
O66_11 O 0.77558(8) 0.38241(7) 0.09425(8)
O57_31 O 0.72322(8) 0.08825(8) 0.87550(7)
O60_31 O 0.76199(7) 0.08069(7) 0.82929(7)
N6_31 N 0.79796(11) 0.06878(12) 0.81002(10)
C79_31 C 0.66215(12) 0.08583(11) 0.94067(11)
C80_31 C 0.68335(11) 0.09626(11) 0.93002(10)
H57_31 H 0.6915 0.1100 0.9380
C81_31 C 0.69287(11) 0.08661(10) 0.90750(11)
C82_31 C 0.68115(11) 0.06610(10) 0.89635(11)
H58_31 H 0.6879 0.0591 0.8813
C83_31 C 0.65981(12) 0.05574(11) 0.90679(11)
C84_31 C 0.64976(12) 0.06512(11) 0.93010(11)
H59_31 H 0.6355 0.0577 0.9379
C85_31 C 0.65128(13) 0.09733(12) 0.96431(12)
C86_31 C 0.71516(10) 0.09856(10) 0.89538(10)
C87_31 C 0.64653(13) 0.03337(11) 0.89412(14)
C88_31 C 0.78516(13) 0.07752(12) 0.82800(12)
H60_31 H 0.7945 0.0823 0.8425
C89_31 C 0.82445(17) 0.0645(2) 0.81061(19)
H61_31 H 0.8304 0.0652 0.8281
H62_31 H 0.8282 0.0479 0.8035
H63_31 H 0.8330 0.0775 0.8007
C90_31 C 0.78664(17) 0.0679(2) 0.78578(16)
H64_31 H 0.7721 0.0792 0.7854
H65_31 H 0.7989 0.0732 0.7731
H66_31 H 0.7811 0.0507 0.7822
O79_31 O 0.77507(7) 0.13193(7) 0.84431(8)
O84_31 O 0.72235(8) 0.12580(7) 0.83820(8)
Zn14_31 Zn 0.0000 0.89124(2) 0.60187(2)
Zn19_31 Zn -0.0000 0.85071(2) 0.64064(2)
O57_32 O 0.72322(8) 0.91175(8) 0.12450(7)
O60_32 O 0.76199(7) 0.91931(7) 0.17071(7)
N6_32 N 0.79796(11) 0.93122(12) 0.18998(10)
C79_32 C 0.66215(12) 0.91417(11) 0.05933(11)
C80_32 C 0.68335(11) 0.90374(11) 0.06998(10)
H57_32 H 0.6915 0.8900 0.0620
C81_32 C 0.69287(11) 0.91339(10) 0.09250(11)
C82_32 C 0.68115(11) 0.93390(10) 0.10365(11)
H58_32 H 0.6879 0.9409 0.1187
C83_32 C 0.65981(12) 0.94426(11) 0.09321(11)
C84_32 C 0.64976(12) 0.93488(11) 0.06990(11)
H59_32 H 0.6355 0.9423 0.0621
C85_32 C 0.65128(13) 0.90267(12) 0.03569(12)
C86_32 C 0.71516(10) 0.90144(10) 0.10462(10)
C87_32 C 0.64653(13) 0.96663(11) 0.10588(14)
C88_32 C 0.78516(13) 0.92248(12) 0.17200(12)
H60_32 H 0.7945 0.9177 0.1575
C89_32 C 0.82445(17) 0.9355(2) 0.18939(19)
H61_32 H 0.8304 0.9348 0.1719
H62_32 H 0.8282 0.9521 0.1965
H63_32 H 0.8330 0.9225 0.1993
C90_32 C 0.78664(17) 0.9321(2) 0.21422(16)
H64_32 H 0.7721 0.9208 0.2146
H65_32 H 0.7989 0.9268 0.2269
H66_32 H 0.7811 0.9493 0.2178
O79_32 O 0.77507(7) 0.86807(7) 0.15569(8)
O84_32 O 0.72235(8) 0.87420(7) 0.16180(8)
O40_16 O 0.91264(9) 0.97287(8) 0.63103(9)
O41_16 O 0.88325(8) 0.97316(8) 0.66134(9)
O43_16 O 0.91175(8) 0.87550(7) 0.72322(8)
O44_16 O 0.97359(8) 0.87393(8) 0.65557(9)
O45_16 O 0.97316(8) 0.90423(9) 0.62613(9)
O46_16 O 0.91931(7) 0.82929(7) 0.76199(7)
N4_16 N 0.93122(12) 0.81002(10) 0.79796(11)
C55_16 C 0.91417(11) 0.94067(11) 0.66215(12)
C56_16 C 0.90374(11) 0.93002(10) 0.68335(11)
H37_16 H 0.8900 0.9380 0.6915
C57_16 C 0.91339(10) 0.90750(11) 0.69287(11)
C58_16 C 0.93390(10) 0.89635(11) 0.68115(11)
H38_16 H 0.9409 0.8813 0.6879
C59_16 C 0.94426(11) 0.90679(11) 0.65981(12)
C60_16 C 0.93488(11) 0.93010(11) 0.64976(12)
H39_16 H 0.9423 0.9379 0.6355
C61_16 C 0.90267(12) 0.96431(12) 0.65128(13)
C62_16 C 0.90144(10) 0.89538(10) 0.71516(10)
C63_16 C 0.96663(11) 0.89412(14) 0.64653(13)
C64_16 C 0.92248(12) 0.82800(12) 0.78516(13)
H40_16 H 0.9177 0.8425 0.7945
C65_16 C 0.9355(2) 0.81061(19) 0.82445(17)
H41_16 H 0.9348 0.8281 0.8304
H42_16 H 0.9521 0.8035 0.8282
H43_16 H 0.9225 0.8007 0.8330
C66_16 C 0.9321(2) 0.78578(16) 0.78664(17)
H44_16 H 0.9208 0.7854 0.7721
H45_16 H 0.9268 0.7731 0.7989
H46_16 H 0.9493 0.7822 0.7811
O47_16 O 0.63103(9) 0.52713(8) 0.91264(9)
O48_16 O 0.66134(9) 0.52684(8) 0.88325(8)
O49_12 O 0.72442(8) 0.59425(8) 0.88241(7)
O50_16 O 0.72322(8) 0.62450(7) 0.91175(8)
O51_16 O 0.65557(9) 0.62607(8) 0.97359(8)
O52_16 O 0.62613(9) 0.59577(9) 0.97316(8)
O53_16 O 0.76199(7) 0.67071(7) 0.91931(7)
N5_16 N 0.79796(11) 0.68998(10) 0.93122(12)
C67_16 C 0.66215(12) 0.55933(11) 0.91417(11)
C68_16 C 0.68335(11) 0.56998(10) 0.90374(11)
H47_16 H 0.6915 0.5620 0.8900
C69_16 C 0.69287(11) 0.59250(11) 0.91339(10)
C70_16 C 0.68115(11) 0.60365(11) 0.93390(10)
H48_16 H 0.6879 0.6187 0.9409
C71_16 C 0.65981(12) 0.59321(11) 0.94426(11)
C72_16 C 0.64976(12) 0.56990(11) 0.93488(11)
H49_16 H 0.6355 0.5621 0.9423
C73_16 C 0.65128(13) 0.53569(12) 0.90267(12)
C74_16 C 0.71516(10) 0.60462(10) 0.90144(10)
C75_16 C 0.64653(13) 0.60588(14) 0.96663(11)
C76_16 C 0.78516(13) 0.67200(12) 0.92248(12)
H50_16 H 0.7945 0.6575 0.9177
C77_16 C 0.82445(17) 0.68939(19) 0.9355(2)
H51_16 H 0.8304 0.6719 0.9348
H52_16 H 0.8282 0.6965 0.9521
H53_16 H 0.8330 0.6993 0.9225
C78_16 C 0.78664(17) 0.71422(16) 0.9321(2)
H54_16 H 0.7721 0.7146 0.9208
H55_16 H 0.7989 0.7269 0.9268
H56_16 H 0.7811 0.7178 0.9493
Zn14_32 Zn 1.0000 0.89124(2) 0.60187(2)
Zn16_28 Zn 0.60876(2) 0.5000 0.89813(2)
Zn19_32 Zn 1.0000 0.85071(2) 0.64064(2)
Zn21_28 Zn 0.64929(2) 0.5000 0.85936(2)
O66_12 O 0.77558(8) 0.61759(7) 0.90575(8)
Zn15_13 Zn 0.89124(2) 0.60187(2) 0.0000
Zn20_13 Zn 0.85071(2) 0.64064(2) 0.0000
O40_17 O 0.86897(9) 0.58736(9) 0.97287(8)
O41_17 O 0.83866(9) 0.61675(8) 0.97316(8)
O43_17 O 0.77678(8) 0.58825(8) 0.87550(7)
O44_17 O 0.84443(9) 0.52641(8) 0.87393(8)
O45_17 O 0.87387(9) 0.52684(8) 0.90423(9)
O46_17 O 0.73801(7) 0.58069(7) 0.82929(7)
N4_17 N 0.70204(11) 0.56878(12) 0.81002(10)
C55_17 C 0.83785(12) 0.58583(11) 0.94067(11)
C56_17 C 0.81665(11) 0.59626(11) 0.93002(10)
H37_17 H 0.8085 0.6100 0.9380
C57_17 C 0.80713(11) 0.58661(10) 0.90750(11)
C58_17 C 0.81885(11) 0.56610(10) 0.89635(11)
H38_17 H 0.8121 0.5591 0.8813
C59_17 C 0.84019(12) 0.55574(11) 0.90679(11)
C60_17 C 0.85024(12) 0.56512(11) 0.93010(11)
H39_17 H 0.8645 0.5577 0.9379
C61_17 C 0.84872(13) 0.59733(12) 0.96431(12)
C62_17 C 0.78484(10) 0.59856(10) 0.89538(10)
C63_17 C 0.85347(13) 0.53337(11) 0.89412(14)
C64_17 C 0.71484(13) 0.57752(12) 0.82800(12)
H40_17 H 0.7055 0.5823 0.8425
C65_17 C 0.67555(17) 0.5645(2) 0.81061(19)
H41_17 H 0.6696 0.5652 0.8281
H42_17 H 0.6718 0.5479 0.8035
H43_17 H 0.6670 0.5775 0.8007
C66_17 C 0.71336(17) 0.5679(2) 0.78578(16)
H44_17 H 0.7279 0.5792 0.7854
H45_17 H 0.7011 0.5732 0.7731
H46_17 H 0.7189 0.5507 0.7822
O47_17 O 0.58736(9) 0.86897(9) 0.52713(8)
O48_17 O 0.61675(8) 0.83866(9) 0.52684(8)
O50_17 O 0.58825(8) 0.77678(8) 0.62450(7)
O51_17 O 0.52641(8) 0.84443(9) 0.62607(8)
O52_17 O 0.52684(8) 0.87387(9) 0.59577(9)
O53_17 O 0.58069(7) 0.73801(7) 0.67071(7)
N5_17 N 0.56878(12) 0.70204(11) 0.68998(10)
C67_17 C 0.58583(11) 0.83785(12) 0.55933(11)
C68_17 C 0.59626(11) 0.81665(11) 0.56998(10)
H47_17 H 0.6100 0.8085 0.5620
C69_17 C 0.58661(10) 0.80713(11) 0.59250(11)
C70_17 C 0.56610(10) 0.81885(11) 0.60365(11)
H48_17 H 0.5591 0.8121 0.6187
C71_17 C 0.55574(11) 0.84019(12) 0.59321(11)
C72_17 C 0.56512(11) 0.85024(12) 0.56990(11)
H49_17 H 0.5577 0.8645 0.5621
C73_17 C 0.59733(12) 0.84872(13) 0.53569(12)
C74_17 C 0.59856(10) 0.78484(10) 0.60462(10)
C75_17 C 0.53337(11) 0.85347(13) 0.60588(14)
C76_17 C 0.57752(12) 0.71484(13) 0.67200(12)
H50_17 H 0.5823 0.7055 0.6575
C77_17 C 0.5645(2) 0.67555(17) 0.68939(19)
H51_17 H 0.5652 0.6696 0.6719
H52_17 H 0.5479 0.6718 0.6965
H53_17 H 0.5775 0.6670 0.6993
C78_17 C 0.5679(2) 0.71336(17) 0.71422(16)
H54_17 H 0.5792 0.7279 0.7146
H55_17 H 0.5732 0.7011 0.7269
H56_17 H 0.5507 0.7189 0.7178
Zn12_29 Zn 0.35511(2) 0.75016(2) 0.89466(2)
O56_29 O 0.40575(8) 0.77558(8) 0.88241(7)
O57_33 O 0.37550(7) 0.77678(8) 0.91175(8)
O60_33 O 0.32929(7) 0.73801(7) 0.91931(7)
N6_33 N 0.31002(10) 0.70204(11) 0.93122(12)
C79_33 C 0.44067(11) 0.83785(12) 0.91417(11)
C80_33 C 0.43002(10) 0.81665(11) 0.90374(11)
H57_33 H 0.4380 0.8085 0.8900
C81_33 C 0.40750(11) 0.80713(11) 0.91339(10)
C82_33 C 0.39635(11) 0.81885(11) 0.93390(10)
H58_33 H 0.3813 0.8121 0.9409
C83_33 C 0.40679(11) 0.84019(12) 0.94426(11)
C84_33 C 0.43010(11) 0.85024(12) 0.93488(11)
H59_33 H 0.4379 0.8645 0.9423
C85_33 C 0.46431(12) 0.84872(13) 0.90267(12)
C86_33 C 0.39538(10) 0.78484(10) 0.90144(10)
C87_33 C 0.39412(14) 0.85347(13) 0.96663(11)
C88_33 C 0.32800(12) 0.71484(13) 0.92248(12)
H60_33 H 0.3425 0.7055 0.9177
C89_33 C 0.31061(19) 0.67555(17) 0.9355(2)
H61_33 H 0.3281 0.6696 0.9348
H62_33 H 0.3035 0.6718 0.9521
H63_33 H 0.3007 0.6670 0.9225
C90_33 C 0.28578(16) 0.71336(17) 0.9321(2)
H64_33 H 0.2854 0.7279 0.9208
H65_33 H 0.2731 0.7011 0.9268
H66_33 H 0.2822 0.7189 0.9493
Zn15_14 Zn 0.89124(2) 0.60187(2) 1.0000
Zn17_13 Zn 0.5000 0.89813(2) 0.60876(2)
Zn20_14 Zn 0.85071(2) 0.64064(2) 1.0000
Zn22_13 Zn 0.5000 0.85936(2) 0.64929(2)
Zn32_29 Zn 0.39466(2) 0.74984(2) 0.85511(2)
O70_29 O 0.38241(7) 0.72442(8) 0.90575(8)
O78_13 O 0.63193(7) 0.72493(7) 0.65569(8)
O79_33 O 0.34431(8) 0.72493(7) 0.86807(7)
O84_33 O 0.33820(8) 0.77765(8) 0.87420(7)
O40_18 O 0.13103(9) 0.58736(9) 0.02713(8)
O41_18 O 0.16134(9) 0.61675(8) 0.02684(8)
O43_18 O 0.22322(8) 0.58825(8) 0.12450(7)
O44_18 O 0.15557(9) 0.52641(8) 0.12607(8)
O45_18 O 0.12613(9) 0.52684(8) 0.09577(9)
O46_18 O 0.26199(7) 0.58069(7) 0.17071(7)
N4_18 N 0.29796(11) 0.56878(12) 0.18998(10)
C55_18 C 0.16215(12) 0.58583(11) 0.05933(11)
C56_18 C 0.18335(11) 0.59626(11) 0.06998(10)
H37_18 H 0.1915 0.6100 0.0620
C57_18 C 0.19287(11) 0.58661(10) 0.09250(11)
C58_18 C 0.18115(11) 0.56610(10) 0.10365(11)
H38_18 H 0.1879 0.5591 0.1187
C59_18 C 0.15981(12) 0.55574(11) 0.09321(11)
C60_18 C 0.14976(12) 0.56512(11) 0.06990(11)
H39_18 H 0.1355 0.5577 0.0621
C61_18 C 0.15128(13) 0.59733(12) 0.03569(12)
C62_18 C 0.21516(10) 0.59856(10) 0.10462(10)
C63_18 C 0.14653(13) 0.53337(11) 0.10588(14)
C64_18 C 0.28516(13) 0.57752(12) 0.17200(12)
H40_18 H 0.2945 0.5823 0.1575
C65_18 C 0.32445(17) 0.5645(2) 0.18939(19)
H41_18 H 0.3304 0.5652 0.1719
H42_18 H 0.3282 0.5479 0.1965
H43_18 H 0.3330 0.5775 0.1993
C66_18 C 0.28664(17) 0.5679(2) 0.21422(16)
H44_18 H 0.2721 0.5792 0.2146
H45_18 H 0.2989 0.5732 0.2269
H46_18 H 0.2811 0.5507 0.2178
O47_18 O 0.41264(9) 0.86897(9) 0.47287(8)
O48_18 O 0.38325(8) 0.83866(9) 0.47316(8)
O50_18 O 0.41175(8) 0.77678(8) 0.37550(7)
O51_18 O 0.47359(8) 0.84443(9) 0.37393(8)
O52_18 O 0.47316(8) 0.87387(9) 0.40423(9)
O53_18 O 0.41931(7) 0.73801(7) 0.32929(7)
N5_18 N 0.43122(12) 0.70204(11) 0.31002(10)
C67_18 C 0.41417(11) 0.83785(12) 0.44067(11)
C68_18 C 0.40374(11) 0.81665(11) 0.43002(10)
H47_18 H 0.3900 0.8085 0.4380
C69_18 C 0.41339(10) 0.80713(11) 0.40750(11)
C70_18 C 0.43390(10) 0.81885(11) 0.39635(11)
H48_18 H 0.4409 0.8121 0.3813
C71_18 C 0.44426(11) 0.84019(12) 0.40679(11)
C72_18 C 0.43488(11) 0.85024(12) 0.43010(11)
H49_18 H 0.4423 0.8645 0.4379
C73_18 C 0.40267(12) 0.84872(13) 0.46431(12)
C74_18 C 0.40144(10) 0.78484(10) 0.39538(10)
C75_18 C 0.46663(11) 0.85347(13) 0.39412(14)
C76_18 C 0.42248(12) 0.71484(13) 0.32800(12)
H50_18 H 0.4177 0.7055 0.3425
C77_18 C 0.4355(2) 0.67555(17) 0.31061(19)
H51_18 H 0.4348 0.6696 0.3281
H52_18 H 0.4521 0.6718 0.3035
H53_18 H 0.4225 0.6670 0.3007
C78_18 C 0.4321(2) 0.71336(17) 0.28578(16)
H54_18 H 0.4208 0.7279 0.2854
H55_18 H 0.4268 0.7011 0.2731
H56_18 H 0.4493 0.7189 0.2822
Zn12_30 Zn 0.64489(2) 0.75016(2) 0.10534(2)
O56_30 O 0.59425(8) 0.77558(8) 0.11759(7)
O57_34 O 0.62450(7) 0.77678(8) 0.08825(8)
O60_34 O 0.67071(7) 0.73801(7) 0.08069(7)
N6_34 N 0.68998(10) 0.70204(11) 0.06878(12)
C79_34 C 0.55933(11) 0.83785(12) 0.08583(11)
C80_34 C 0.56998(10) 0.81665(11) 0.09626(11)
H57_34 H 0.5620 0.8085 0.1100
C81_34 C 0.59250(11) 0.80713(11) 0.08661(10)
C82_34 C 0.60365(11) 0.81885(11) 0.06610(10)
H58_34 H 0.6187 0.8121 0.0591
C83_34 C 0.59321(11) 0.84019(12) 0.05574(11)
C84_34 C 0.56990(11) 0.85024(12) 0.06512(11)
H59_34 H 0.5621 0.8645 0.0577
C85_34 C 0.53569(12) 0.84872(13) 0.09733(12)
C86_34 C 0.60462(10) 0.78484(10) 0.09856(10)
C87_34 C 0.60588(14) 0.85347(13) 0.03337(11)
C88_34 C 0.67200(12) 0.71484(13) 0.07752(12)
H60_34 H 0.6575 0.7055 0.0823
C89_34 C 0.68939(19) 0.67555(17) 0.0645(2)
H61_34 H 0.6719 0.6696 0.0652
H62_34 H 0.6965 0.6718 0.0479
H63_34 H 0.6993 0.6670 0.0775
C90_34 C 0.71422(16) 0.71336(17) 0.0679(2)
H64_34 H 0.7146 0.7279 0.0792
H65_34 H 0.7269 0.7011 0.0732
H66_34 H 0.7178 0.7189 0.0507
Zn15_15 Zn 0.10876(2) 0.60187(2) -0.0000
Zn17_14 Zn 0.5000 0.89813(2) 0.39124(2)
Zn20_15 Zn 0.14929(2) 0.64064(2) -0.0000
Zn22_14 Zn 0.5000 0.85936(2) 0.35071(2)
Zn32_30 Zn 0.60534(2) 0.74984(2) 0.14489(2)
O70_30 O 0.61759(7) 0.72442(8) 0.09425(8)
O78_14 O 0.36807(7) 0.72493(7) 0.34431(8)
O79_34 O 0.65569(8) 0.72493(7) 0.13193(7)
O84_34 O 0.66180(8) 0.77765(8) 0.12580(7)
Zn15_16 Zn 0.10876(2) 0.60187(2) 1.0000
Zn20_16 Zn 0.14929(2) 0.64064(2) 1.0000
O40_19 O 0.86897(9) 0.41264(9) 0.02713(8)
O41_19 O 0.83866(9) 0.38325(8) 0.02684(8)
O43_19 O 0.77678(8) 0.41175(8) 0.12450(7)
O44_19 O 0.84443(9) 0.47359(8) 0.12607(8)
O45_19 O 0.87387(9) 0.47316(8) 0.09577(9)
O46_19 O 0.73801(7) 0.41931(7) 0.17071(7)
N4_19 N 0.70204(11) 0.43122(12) 0.18998(10)
C55_19 C 0.83785(12) 0.41417(11) 0.05933(11)
C56_19 C 0.81665(11) 0.40374(11) 0.06998(10)
H37_19 H 0.8085 0.3900 0.0620
C57_19 C 0.80713(11) 0.41339(10) 0.09250(11)
C58_19 C 0.81885(11) 0.43390(10) 0.10365(11)
H38_19 H 0.8121 0.4409 0.1187
C59_19 C 0.84019(12) 0.44426(11) 0.09321(11)
C60_19 C 0.85024(12) 0.43488(11) 0.06990(11)
H39_19 H 0.8645 0.4423 0.0621
C61_19 C 0.84872(13) 0.40267(12) 0.03569(12)
C62_19 C 0.78484(10) 0.40144(10) 0.10462(10)
C63_19 C 0.85347(13) 0.46663(11) 0.10588(14)
C64_19 C 0.71484(13) 0.42248(12) 0.17200(12)
H40_19 H 0.7055 0.4177 0.1575
C65_19 C 0.67555(17) 0.4355(2) 0.18939(19)
H41_19 H 0.6696 0.4348 0.1719
H42_19 H 0.6718 0.4521 0.1965
H43_19 H 0.6670 0.4225 0.1993
C66_19 C 0.71336(17) 0.4321(2) 0.21422(16)
H44_19 H 0.7279 0.4208 0.2146
H45_19 H 0.7011 0.4268 0.2269
H46_19 H 0.7189 0.4493 0.2178
O47_19 O 0.58736(9) 0.13103(9) 0.47287(8)
O48_19 O 0.61675(8) 0.16134(9) 0.47316(8)
O50_19 O 0.58825(8) 0.22322(8) 0.37550(7)
O51_19 O 0.52641(8) 0.15557(9) 0.37393(8)
O52_19 O 0.52684(8) 0.12613(9) 0.40423(9)
O53_19 O 0.58069(7) 0.26199(7) 0.32929(7)
N5_19 N 0.56878(12) 0.29796(11) 0.31002(10)
C67_19 C 0.58583(11) 0.16215(12) 0.44067(11)
C68_19 C 0.59626(11) 0.18335(11) 0.43002(10)
H47_19 H 0.6100 0.1915 0.4380
C69_19 C 0.58661(10) 0.19287(11) 0.40750(11)
C70_19 C 0.56610(10) 0.18115(11) 0.39635(11)
H48_19 H 0.5591 0.1879 0.3813
C71_19 C 0.55574(11) 0.15981(12) 0.40679(11)
C72_19 C 0.56512(11) 0.14976(12) 0.43010(11)
H49_19 H 0.5577 0.1355 0.4379
C73_19 C 0.59733(12) 0.15128(13) 0.46431(12)
C74_19 C 0.59856(10) 0.21516(10) 0.39538(10)
C75_19 C 0.53337(11) 0.14653(13) 0.39412(14)
C76_19 C 0.57752(12) 0.28516(13) 0.32800(12)
H50_19 H 0.5823 0.2945 0.3425
C77_19 C 0.5645(2) 0.32445(17) 0.31061(19)
H51_19 H 0.5652 0.3304 0.3281
H52_19 H 0.5479 0.3282 0.3035
H53_19 H 0.5775 0.3330 0.3007
C78_19 C 0.5679(2) 0.28664(17) 0.28578(16)
H54_19 H 0.5792 0.2721 0.2854
H55_19 H 0.5732 0.2989 0.2731
H56_19 H 0.5507 0.2811 0.2822
Zn12_31 Zn 0.35511(2) 0.24984(2) 0.10534(2)
O56_31 O 0.40575(8) 0.22442(8) 0.11759(7)
O57_35 O 0.37550(7) 0.22322(8) 0.08825(8)
O60_35 O 0.32929(7) 0.26199(7) 0.08069(7)
N6_35 N 0.31002(10) 0.29796(11) 0.06878(12)
C79_35 C 0.44067(11) 0.16215(12) 0.08583(11)
C80_35 C 0.43002(10) 0.18335(11) 0.09626(11)
H57_35 H 0.4380 0.1915 0.1100
C81_35 C 0.40750(11) 0.19287(11) 0.08661(10)
C82_35 C 0.39635(11) 0.18115(11) 0.06610(10)
H58_35 H 0.3813 0.1879 0.0591
C83_35 C 0.40679(11) 0.15981(12) 0.05574(11)
C84_35 C 0.43010(11) 0.14976(12) 0.06512(11)
H59_35 H 0.4379 0.1355 0.0577
C85_35 C 0.46431(12) 0.15128(13) 0.09733(12)
C86_35 C 0.39538(10) 0.21516(10) 0.09856(10)
C87_35 C 0.39412(14) 0.14653(13) 0.03337(11)
C88_35 C 0.32800(12) 0.28516(13) 0.07752(12)
H60_35 H 0.3425 0.2945 0.0823
C89_35 C 0.31061(19) 0.32445(17) 0.0645(2)
H61_35 H 0.3281 0.3304 0.0652
H62_35 H 0.3035 0.3282 0.0479
H63_35 H 0.3007 0.3330 0.0775
C90_35 C 0.28578(16) 0.28664(17) 0.0679(2)
H64_35 H 0.2854 0.2721 0.0792
H65_35 H 0.2731 0.2989 0.0732
H66_35 H 0.2822 0.2811 0.0507
Zn15_17 Zn 0.89124(2) 0.39813(2) -0.0000
Zn17_15 Zn 0.5000 0.10187(2) 0.39124(2)
Zn20_17 Zn 0.85071(2) 0.35936(2) -0.0000
Zn22_15 Zn 0.5000 0.14064(2) 0.35071(2)
Zn32_31 Zn 0.39466(2) 0.25016(2) 0.14489(2)
O70_31 O 0.38241(7) 0.27558(8) 0.09425(8)
O78_15 O 0.63193(7) 0.27507(7) 0.34431(8)
O79_35 O 0.34431(8) 0.27507(7) 0.13193(7)
O84_35 O 0.33820(8) 0.22235(8) 0.12580(7)
Zn15_18 Zn 0.89124(2) 0.39813(2) 1.0000
Zn20_18 Zn 0.85071(2) 0.35936(2) 1.0000
Zn15_19 Zn 0.10876(2) 0.39813(2) 0.0000
Zn20_19 Zn 0.14929(2) 0.35936(2) 0.0000
O40_20 O 0.13103(9) 0.41264(9) 0.97287(8)
O41_20 O 0.16134(9) 0.38325(8) 0.97316(8)
O43_20 O 0.22322(8) 0.41175(8) 0.87550(7)
O44_20 O 0.15557(9) 0.47359(8) 0.87393(8)
O45_20 O 0.12613(9) 0.47316(8) 0.90423(9)
O46_20 O 0.26199(7) 0.41931(7) 0.82929(7)
N4_20 N 0.29796(11) 0.43122(12) 0.81002(10)
C55_20 C 0.16215(12) 0.41417(11) 0.94067(11)
C56_20 C 0.18335(11) 0.40374(11) 0.93002(10)
H37_20 H 0.1915 0.3900 0.9380
C57_20 C 0.19287(11) 0.41339(10) 0.90750(11)
C58_20 C 0.18115(11) 0.43390(10) 0.89635(11)
H38_20 H 0.1879 0.4409 0.8813
C59_20 C 0.15981(12) 0.44426(11) 0.90679(11)
C60_20 C 0.14976(12) 0.43488(11) 0.93010(11)
H39_20 H 0.1355 0.4423 0.9379
C61_20 C 0.15128(13) 0.40267(12) 0.96431(12)
C62_20 C 0.21516(10) 0.40144(10) 0.89538(10)
C63_20 C 0.14653(13) 0.46663(11) 0.89412(14)
C64_20 C 0.28516(13) 0.42248(12) 0.82800(12)
H40_20 H 0.2945 0.4177 0.8425
C65_20 C 0.32445(17) 0.4355(2) 0.81061(19)
H41_20 H 0.3304 0.4348 0.8281
H42_20 H 0.3282 0.4521 0.8035
H43_20 H 0.3330 0.4225 0.8007
C66_20 C 0.28664(17) 0.4321(2) 0.78578(16)
H44_20 H 0.2721 0.4208 0.7854
H45_20 H 0.2989 0.4268 0.7731
H46_20 H 0.2811 0.4493 0.7822
O47_20 O 0.41264(9) 0.13103(9) 0.52713(8)
O48_20 O 0.38325(8) 0.16134(9) 0.52684(8)
O50_20 O 0.41175(8) 0.22322(8) 0.62450(7)
O51_20 O 0.47359(8) 0.15557(9) 0.62607(8)
O52_20 O 0.47316(8) 0.12613(9) 0.59577(9)
O53_20 O 0.41931(7) 0.26199(7) 0.67071(7)
N5_20 N 0.43122(12) 0.29796(11) 0.68998(10)
C67_20 C 0.41417(11) 0.16215(12) 0.55933(11)
C68_20 C 0.40374(11) 0.18335(11) 0.56998(10)
H47_20 H 0.3900 0.1915 0.5620
C69_20 C 0.41339(10) 0.19287(11) 0.59250(11)
C70_20 C 0.43390(10) 0.18115(11) 0.60365(11)
H48_20 H 0.4409 0.1879 0.6187
C71_20 C 0.44426(11) 0.15981(12) 0.59321(11)
C72_20 C 0.43488(11) 0.14976(12) 0.56990(11)
H49_20 H 0.4423 0.1355 0.5621
C73_20 C 0.40267(12) 0.15128(13) 0.53569(12)
C74_20 C 0.40144(10) 0.21516(10) 0.60462(10)
C75_20 C 0.46663(11) 0.14653(13) 0.60588(14)
C76_20 C 0.42248(12) 0.28516(13) 0.67200(12)
H50_20 H 0.4177 0.2945 0.6575
C77_20 C 0.4355(2) 0.32445(17) 0.68939(19)
H51_20 H 0.4348 0.3304 0.6719
H52_20 H 0.4521 0.3282 0.6965
H53_20 H 0.4225 0.3330 0.6993
C78_20 C 0.4321(2) 0.28664(17) 0.71422(16)
H54_20 H 0.4208 0.2721 0.7146
H55_20 H 0.4268 0.2989 0.7269
H56_20 H 0.4493 0.2811 0.7178
Zn12_32 Zn 0.64489(2) 0.24984(2) 0.89466(2)
O56_32 O 0.59425(8) 0.22442(8) 0.88241(7)
O57_36 O 0.62450(7) 0.22322(8) 0.91175(8)
O60_36 O 0.67071(7) 0.26199(7) 0.91931(7)
N6_36 N 0.68998(10) 0.29796(11) 0.93122(12)
C79_36 C 0.55933(11) 0.16215(12) 0.91417(11)
C80_36 C 0.56998(10) 0.18335(11) 0.90374(11)
H57_36 H 0.5620 0.1915 0.8900
C81_36 C 0.59250(11) 0.19287(11) 0.91339(10)
C82_36 C 0.60365(11) 0.18115(11) 0.93390(10)
H58_36 H 0.6187 0.1879 0.9409
C83_36 C 0.59321(11) 0.15981(12) 0.94426(11)
C84_36 C 0.56990(11) 0.14976(12) 0.93488(11)
H59_36 H 0.5621 0.1355 0.9423
C85_36 C 0.53569(12) 0.15128(13) 0.90267(12)
C86_36 C 0.60462(10) 0.21516(10) 0.90144(10)
C87_36 C 0.60588(14) 0.14653(13) 0.96663(11)
C88_36 C 0.67200(12) 0.28516(13) 0.92248(12)
H60_36 H 0.6575 0.2945 0.9177
C89_36 C 0.68939(19) 0.32445(17) 0.9355(2)
H61_36 H 0.6719 0.3304 0.9348
H62_36 H 0.6965 0.3282 0.9521
H63_36 H 0.6993 0.3330 0.9225
C90_36 C 0.71422(16) 0.28664(17) 0.9321(2)
H64_36 H 0.7146 0.2721 0.9208
H65_36 H 0.7269 0.2989 0.9268
H66_36 H 0.7178 0.2811 0.9493
Zn15_20 Zn 0.10876(2) 0.39813(2) 1.0000
Zn17_16 Zn 0.5000 0.10187(2) 0.60876(2)
Zn20_20 Zn 0.14929(2) 0.35936(2) 1.0000
Zn22_16 Zn 0.5000 0.14064(2) 0.64929(2)
Zn32_32 Zn 0.60534(2) 0.25016(2) 0.85511(2)
O70_32 O 0.61759(7) 0.27558(8) 0.90575(8)
O78_16 O 0.36807(7) 0.27507(7) 0.65569(8)
O79_36 O 0.65569(8) 0.27507(7) 0.86807(7)
O84_36 O 0.66180(8) 0.22235(8) 0.87420(7)
O9_21 O -0.0000 0.42227(16) 0.58105(16)
O10_21 O -0.0000 0.33428(15) 0.67682(15)
Zn4_13 Zn 0.10187(2) 0.39124(2) 0.5000
Zn5_13 Zn 0.14064(2) 0.35071(2) 0.5000
O16_13 O 0.08736(9) 0.36897(9) 0.52713(8)
O17_13 O 0.11675(8) 0.33866(9) 0.52684(8)
O18_9 O 0.11759(7) 0.27558(8) 0.59425(8)
O19_13 O 0.08825(8) 0.27678(8) 0.62450(7)
O20_13 O 0.02641(8) 0.34443(9) 0.62607(8)
O21_13 O 0.02684(8) 0.37387(9) 0.59577(9)
O24_21 O 0.07773(16) 0.41895(16) 0.5000
O25_21 O 0.16572(15) 0.32318(15) 0.5000
O26_13 O 0.08069(7) 0.23801(7) 0.67071(7)
N2_13 N 0.06878(12) 0.20204(11) 0.68998(10)
C22_13 C 0.08583(11) 0.33785(12) 0.55933(11)
C23_13 C 0.09626(11) 0.31665(11) 0.56998(10)
H14_13 H 0.1100 0.3085 0.5620
C24_13 C 0.08661(10) 0.30713(11) 0.59250(11)
C25_13 C 0.06610(10) 0.31885(11) 0.60365(11)
H15_13 H 0.0591 0.3121 0.6187
C26_13 C 0.05574(11) 0.34019(12) 0.59321(11)
C27_13 C 0.06512(11) 0.35024(12) 0.56990(11)
H16_13 H 0.0577 0.3645 0.5621
C28_13 C 0.09733(12) 0.34872(13) 0.53569(12)
C29_13 C 0.09856(10) 0.28484(10) 0.60462(10)
C30_13 C 0.03337(11) 0.35347(13) 0.60588(14)
C34_13 C 0.07752(12) 0.21484(13) 0.67200(12)
H18_13 H 0.0823 0.2055 0.6575
C35_13 C 0.0645(2) 0.17555(17) 0.68939(19)
H19_13 H 0.0652 0.1696 0.6719
H20_13 H 0.0479 0.1718 0.6965
H21_13 H 0.0775 0.1670 0.6993
C36_13 C 0.0679(2) 0.21336(17) 0.71422(16)
H22_13 H 0.0792 0.2279 0.7146
H23_13 H 0.0732 0.2011 0.7269
H24_13 H 0.0507 0.2189 0.7178
O31_9 O 0.13103(9) 0.47287(8) 0.58736(9)
O32_9 O 0.16134(9) 0.47316(8) 0.61675(8)
O34_9 O 0.22322(8) 0.37550(7) 0.58825(8)
O35_9 O 0.15557(9) 0.37393(8) 0.52641(8)
O36_9 O 0.12613(9) 0.40423(9) 0.52684(8)
O37_17 O 0.08105(16) 0.5000 0.57773(16)
O38_17 O 0.17682(15) 0.5000 0.66572(15)
O39_9 O 0.26199(7) 0.32929(7) 0.58069(7)
N3_9 N 0.29796(11) 0.31002(10) 0.56878(12)
C43_9 C 0.16215(12) 0.44067(11) 0.58583(11)
C44_9 C 0.18335(11) 0.43002(10) 0.59626(11)
H27_9 H 0.1915 0.4380 0.6100
C45_9 C 0.19287(11) 0.40750(11) 0.58661(10)
C46_9 C 0.18115(11) 0.39635(11) 0.56610(10)
H28_9 H 0.1879 0.3813 0.5591
C47_9 C 0.15981(12) 0.40679(11) 0.55574(11)
C48_9 C 0.14976(12) 0.43010(11) 0.56512(11)
H29_9 H 0.1355 0.4379 0.5577
C49_9 C 0.15128(13) 0.46431(12) 0.59733(12)
C50_9 C 0.21516(10) 0.39538(10) 0.59856(10)
C51_9 C 0.14653(13) 0.39412(14) 0.53337(11)
C52_9 C 0.28516(13) 0.32800(12) 0.57752(12)
H30_9 H 0.2945 0.3425 0.5823
C53_9 C 0.32445(17) 0.31061(19) 0.5645(2)
H31_9 H 0.3304 0.3281 0.5652
H32_9 H 0.3282 0.3035 0.5479
H33_9 H 0.3330 0.3007 0.5775
C54_9 C 0.28664(17) 0.28578(16) 0.5679(2)
H34_9 H 0.2721 0.2854 0.5792
H35_9 H 0.2989 0.2731 0.5732
H36_9 H 0.2811 0.2822 0.5507
O61_13 O 0.08736(9) 0.36897(9) 0.47287(8)
O62_13 O 0.13103(9) 0.52713(8) 0.58736(9)
O63_13 O 0.11675(8) 0.33866(9) 0.47316(8)
O64_13 O 0.16134(9) 0.52684(8) 0.61675(8)
O65_9 O 0.09425(8) 0.22442(8) 0.61759(7)
O71_7 O 0.12607(8) 0.52641(8) 0.65557(9)
O73_13 O 0.15557(9) 0.37393(8) 0.47359(8)
O74_7 O 0.09577(9) 0.52684(8) 0.62613(9)
O76_13 O 0.12613(9) 0.40423(9) 0.47316(8)
O77_9 O 0.27507(7) 0.34431(8) 0.63193(7)
O9_22 O 1.0000 0.42227(16) 0.58105(16)
O10_22 O 1.0000 0.33428(15) 0.67682(15)
Zn12_33 Zn 0.85511(2) 0.39466(2) 0.74984(2)
O54_13 O 0.97287(8) 0.41264(9) 0.63103(9)
O55_13 O 0.97316(8) 0.38325(8) 0.66134(9)
O56_33 O 0.90575(8) 0.38241(7) 0.72442(8)
O57_37 O 0.87550(7) 0.41175(8) 0.72322(8)
O58_7 O 0.87393(8) 0.47359(8) 0.65557(9)
O59_7 O 0.90423(9) 0.47316(8) 0.62613(9)
O60_37 O 0.82929(7) 0.41931(7) 0.76199(7)
N6_37 N 0.81002(10) 0.43122(12) 0.79796(11)
C79_37 C 0.94067(11) 0.41417(11) 0.66215(12)
C80_37 C 0.93002(10) 0.40374(11) 0.68335(11)
H57_37 H 0.9380 0.3900 0.6915
C81_37 C 0.90750(11) 0.41339(10) 0.69287(11)
C82_37 C 0.89635(11) 0.43390(10) 0.68115(11)
H58_37 H 0.8813 0.4409 0.6879
C83_37 C 0.90679(11) 0.44426(11) 0.65981(12)
C84_37 C 0.93010(11) 0.43488(11) 0.64976(12)
H59_37 H 0.9379 0.4423 0.6355
C85_37 C 0.96431(12) 0.40267(12) 0.65128(13)
C86_37 C 0.89538(10) 0.40144(10) 0.71516(10)
C87_37 C 0.89412(14) 0.46663(11) 0.64653(13)
C88_37 C 0.82800(12) 0.42248(12) 0.78516(13)
H60_37 H 0.8425 0.4177 0.7945
C89_37 C 0.81061(19) 0.4355(2) 0.82445(17)
H61_37 H 0.8281 0.4348 0.8304
H62_37 H 0.8035 0.4521 0.8282
H63_37 H 0.8007 0.4225 0.8330
C90_37 C 0.78578(16) 0.4321(2) 0.78664(17)
H64_37 H 0.7854 0.4208 0.7721
H65_37 H 0.7731 0.4268 0.7989
H66_37 H 0.7822 0.4493 0.7811
Zn32_33 Zn 0.89466(2) 0.35511(2) 0.75016(2)
O70_33 O 0.88241(7) 0.40575(8) 0.77558(8)
O72_13 O 0.97359(8) 0.34443(9) 0.62607(8)
O75_13 O 0.97316(8) 0.37387(9) 0.59577(9)
O79_37 O 0.84431(8) 0.36807(7) 0.77507(7)
O84_37 O 0.83820(8) 0.37420(7) 0.72235(8)
O9_23 O 0.0000 0.57773(16) 0.58105(16)
O10_23 O 0.0000 0.66572(15) 0.67682(15)
Zn12_34 Zn 0.14489(2) 0.60534(2) 0.74984(2)
O54_14 O 0.02713(8) 0.58736(9) 0.63103(9)
O55_14 O 0.02684(8) 0.61675(8) 0.66134(9)
O56_34 O 0.09425(8) 0.61759(7) 0.72442(8)
O57_38 O 0.12450(7) 0.58825(8) 0.72322(8)
O60_38 O 0.17071(7) 0.58069(7) 0.76199(7)
N6_38 N 0.18998(10) 0.56878(12) 0.79796(11)
C79_38 C 0.05933(11) 0.58583(11) 0.66215(12)
C80_38 C 0.06998(10) 0.59626(11) 0.68335(11)
H57_38 H 0.0620 0.6100 0.6915
C81_38 C 0.09250(11) 0.58661(10) 0.69287(11)
C82_38 C 0.10365(11) 0.56610(10) 0.68115(11)
H58_38 H 0.1187 0.5591 0.6879
C83_38 C 0.09321(11) 0.55574(11) 0.65981(12)
C84_38 C 0.06990(11) 0.56512(11) 0.64976(12)
H59_38 H 0.0621 0.5577 0.6355
C85_38 C 0.03569(12) 0.59733(12) 0.65128(13)
C86_38 C 0.10462(10) 0.59856(10) 0.71516(10)
C87_38 C 0.10588(14) 0.53337(11) 0.64653(13)
C88_38 C 0.17200(12) 0.57752(12) 0.78516(13)
H60_38 H 0.1575 0.5823 0.7945
C89_38 C 0.18939(19) 0.5645(2) 0.82445(17)
H61_38 H 0.1719 0.5652 0.8304
H62_38 H 0.1965 0.5479 0.8282
H63_38 H 0.1993 0.5775 0.8330
C90_38 C 0.21422(16) 0.5679(2) 0.78664(17)
H64_38 H 0.2146 0.5792 0.7721
H65_38 H 0.2269 0.5732 0.7989
H66_38 H 0.2178 0.5507 0.7811
Zn32_34 Zn 0.10534(2) 0.64489(2) 0.75016(2)
O70_34 O 0.11759(7) 0.59425(8) 0.77558(8)
O72_14 O 0.02641(8) 0.65557(9) 0.62607(8)
O75_14 O 0.02684(8) 0.62613(9) 0.59577(9)
O79_38 O 0.15569(8) 0.63193(7) 0.77507(7)
O84_38 O 0.16180(8) 0.62580(7) 0.72235(8)
O9_24 O 1.0000 0.57773(16) 0.58105(16)
O10_24 O 1.0000 0.66572(15) 0.67682(15)
Zn4_14 Zn 0.89813(2) 0.60876(2) 0.5000
Zn5_14 Zn 0.85936(2) 0.64929(2) 0.5000
O16_14 O 0.91264(9) 0.63103(9) 0.52713(8)
O17_14 O 0.88325(8) 0.66134(9) 0.52684(8)
O18_10 O 0.88241(7) 0.72442(8) 0.59425(8)
O19_14 O 0.91175(8) 0.72322(8) 0.62450(7)
O20_14 O 0.97359(8) 0.65557(9) 0.62607(8)
O21_14 O 0.97316(8) 0.62613(9) 0.59577(9)
O24_22 O 0.92227(16) 0.58105(16) 0.5000
O25_22 O 0.83428(15) 0.67682(15) 0.5000
O26_14 O 0.91931(7) 0.76199(7) 0.67071(7)
N2_14 N 0.93122(12) 0.79796(11) 0.68998(10)
C22_14 C 0.91417(11) 0.66215(12) 0.55933(11)
C23_14 C 0.90374(11) 0.68335(11) 0.56998(10)
H14_14 H 0.8900 0.6915 0.5620
C24_14 C 0.91339(10) 0.69287(11) 0.59250(11)
C25_14 C 0.93390(10) 0.68115(11) 0.60365(11)
H15_14 H 0.9409 0.6879 0.6187
C26_14 C 0.94426(11) 0.65981(12) 0.59321(11)
C27_14 C 0.93488(11) 0.64976(12) 0.56990(11)
H16_14 H 0.9423 0.6355 0.5621
C28_14 C 0.90267(12) 0.65128(13) 0.53569(12)
C29_14 C 0.90144(10) 0.71516(10) 0.60462(10)
C30_14 C 0.96663(11) 0.64653(13) 0.60588(14)
C34_14 C 0.92248(12) 0.78516(13) 0.67200(12)
H18_14 H 0.9177 0.7945 0.6575
C35_14 C 0.9355(2) 0.82445(17) 0.68939(19)
H19_14 H 0.9348 0.8304 0.6719
H20_14 H 0.9521 0.8282 0.6965
H21_14 H 0.9225 0.8330 0.6993
C36_14 C 0.9321(2) 0.78664(17) 0.71422(16)
H22_14 H 0.9208 0.7721 0.7146
H23_14 H 0.9268 0.7989 0.7269
H24_14 H 0.9493 0.7811 0.7178
O31_10 O 0.86897(9) 0.52713(8) 0.58736(9)
O32_10 O 0.83866(9) 0.52684(8) 0.61675(8)
O34_10 O 0.77678(8) 0.62450(7) 0.58825(8)
O35_10 O 0.84443(9) 0.62607(8) 0.52641(8)
O36_10 O 0.87387(9) 0.59577(9) 0.52684(8)
O37_18 O 0.91895(16) 0.5000 0.57773(16)
O38_18 O 0.82318(15) 0.5000 0.66572(15)
O39_10 O 0.73801(7) 0.67071(7) 0.58069(7)
N3_10 N 0.70204(11) 0.68998(10) 0.56878(12)
C43_10 C 0.83785(12) 0.55933(11) 0.58583(11)
C44_10 C 0.81665(11) 0.56998(10) 0.59626(11)
H27_10 H 0.8085 0.5620 0.6100
C45_10 C 0.80713(11) 0.59250(11) 0.58661(10)
C46_10 C 0.81885(11) 0.60365(11) 0.56610(10)
H28_10 H 0.8121 0.6187 0.5591
C47_10 C 0.84019(12) 0.59321(11) 0.55574(11)
C48_10 C 0.85024(12) 0.56990(11) 0.56512(11)
H29_10 H 0.8645 0.5621 0.5577
C49_10 C 0.84872(13) 0.53569(12) 0.59733(12)
C50_10 C 0.78484(10) 0.60462(10) 0.59856(10)
C51_10 C 0.85347(13) 0.60588(14) 0.53337(11)
C52_10 C 0.71484(13) 0.67200(12) 0.57752(12)
H30_10 H 0.7055 0.6575 0.5823
C53_10 C 0.67555(17) 0.68939(19) 0.5645(2)
H31_10 H 0.6696 0.6719 0.5652
H32_10 H 0.6718 0.6965 0.5479
H33_10 H 0.6670 0.6993 0.5775
C54_10 C 0.71336(17) 0.71422(16) 0.5679(2)
H34_10 H 0.7279 0.7146 0.5792
H35_10 H 0.7011 0.7269 0.5732
H36_10 H 0.7189 0.7178 0.5507
O61_14 O 0.91264(9) 0.63103(9) 0.47287(8)
O62_14 O 0.86897(9) 0.47287(8) 0.58736(9)
O63_14 O 0.88325(8) 0.66134(9) 0.47316(8)
O64_14 O 0.83866(9) 0.47316(8) 0.61675(8)
O65_10 O 0.90575(8) 0.77558(8) 0.61759(7)
O73_14 O 0.84443(9) 0.62607(8) 0.47359(8)
O76_14 O 0.87387(9) 0.59577(9) 0.47316(8)
O77_10 O 0.72493(7) 0.65569(8) 0.63193(7)
O9_25 O 0.0000 0.57773(16) 0.41895(16)
O10_25 O -0.0000 0.66572(15) 0.32318(15)
Zn4_15 Zn 0.10187(2) 0.60876(2) 0.5000
Zn5_15 Zn 0.14064(2) 0.64929(2) 0.5000
O16_15 O 0.08736(9) 0.63103(9) 0.47287(8)
O17_15 O 0.11675(8) 0.66134(9) 0.47316(8)
O18_11 O 0.11759(7) 0.72442(8) 0.40575(8)
O19_15 O 0.08825(8) 0.72322(8) 0.37550(7)
O20_15 O 0.02641(8) 0.65557(9) 0.37393(8)
O21_15 O 0.02684(8) 0.62613(9) 0.40423(9)
O24_23 O 0.07773(16) 0.58105(16) 0.5000
O25_23 O 0.16572(15) 0.67682(15) 0.5000
O26_15 O 0.08069(7) 0.76199(7) 0.32929(7)
N2_15 N 0.06878(12) 0.79796(11) 0.31002(10)
C22_15 C 0.08583(11) 0.66215(12) 0.44067(11)
C23_15 C 0.09626(11) 0.68335(11) 0.43002(10)
H14_15 H 0.1100 0.6915 0.4380
C24_15 C 0.08661(10) 0.69287(11) 0.40750(11)
C25_15 C 0.06610(10) 0.68115(11) 0.39635(11)
H15_15 H 0.0591 0.6879 0.3813
C26_15 C 0.05574(11) 0.65981(12) 0.40679(11)
C27_15 C 0.06512(11) 0.64976(12) 0.43010(11)
H16_15 H 0.0577 0.6355 0.4379
C28_15 C 0.09733(12) 0.65128(13) 0.46431(12)
C29_15 C 0.09856(10) 0.71516(10) 0.39538(10)
C30_15 C 0.03337(11) 0.64653(13) 0.39412(14)
C34_15 C 0.07752(12) 0.78516(13) 0.32800(12)
H18_15 H 0.0823 0.7945 0.3425
C35_15 C 0.0645(2) 0.82445(17) 0.31061(19)
H19_15 H 0.0652 0.8304 0.3281
H20_15 H 0.0479 0.8282 0.3035
H21_15 H 0.0775 0.8330 0.3007
C36_15 C 0.0679(2) 0.78664(17) 0.28578(16)
H22_15 H 0.0792 0.7721 0.2854
H23_15 H 0.0732 0.7989 0.2731
H24_15 H 0.0507 0.7811 0.2822
O31_11 O 0.13103(9) 0.52713(8) 0.41264(9)
O32_11 O 0.16134(9) 0.52684(8) 0.38325(8)
O34_11 O 0.22322(8) 0.62450(7) 0.41175(8)
O35_11 O 0.15557(9) 0.62607(8) 0.47359(8)
O36_11 O 0.12613(9) 0.59577(9) 0.47316(8)
O37_19 O 0.08105(16) 0.5000 0.42227(16)
O38_19 O 0.17682(15) 0.5000 0.33428(15)
O39_11 O 0.26199(7) 0.67071(7) 0.41931(7)
N3_11 N 0.29796(11) 0.68998(10) 0.43122(12)
C43_11 C 0.16215(12) 0.55933(11) 0.41417(11)
C44_11 C 0.18335(11) 0.56998(10) 0.40374(11)
H27_11 H 0.1915 0.5620 0.3900
C45_11 C 0.19287(11) 0.59250(11) 0.41339(10)
C46_11 C 0.18115(11) 0.60365(11) 0.43390(10)
H28_11 H 0.1879 0.6187 0.4409
C47_11 C 0.15981(12) 0.59321(11) 0.44426(11)
C48_11 C 0.14976(12) 0.56990(11) 0.43488(11)
H29_11 H 0.1355 0.5621 0.4423
C49_11 C 0.15128(13) 0.53569(12) 0.40267(12)
C50_11 C 0.21516(10) 0.60462(10) 0.40144(10)
C51_11 C 0.14653(13) 0.60588(14) 0.46663(11)
C52_11 C 0.28516(13) 0.67200(12) 0.42248(12)
H30_11 H 0.2945 0.6575 0.4177
C53_11 C 0.32445(17) 0.68939(19) 0.4355(2)
H31_11 H 0.3304 0.6719 0.4348
H32_11 H 0.3282 0.6965 0.4521
H33_11 H 0.3330 0.6993 0.4225
C54_11 C 0.28664(17) 0.71422(16) 0.4321(2)
H34_11 H 0.2721 0.7146 0.4208
H35_11 H 0.2989 0.7269 0.4268
H36_11 H 0.2811 0.7178 0.4493
O61_15 O 0.08736(9) 0.63103(9) 0.52713(8)
O62_15 O 0.13103(9) 0.47287(8) 0.41264(9)
O63_15 O 0.11675(8) 0.66134(9) 0.52684(8)
O64_15 O 0.16134(9) 0.47316(8) 0.38325(8)
O65_11 O 0.09425(8) 0.77558(8) 0.38241(7)
O71_8 O 0.12607(8) 0.47359(8) 0.34443(9)
O73_15 O 0.15557(9) 0.62607(8) 0.52641(8)
O74_8 O 0.09577(9) 0.47316(8) 0.37387(9)
O76_15 O 0.12613(9) 0.59577(9) 0.52684(8)
O77_11 O 0.27507(7) 0.65569(8) 0.36807(7)
O9_26 O 1.0000 0.57773(16) 0.41895(16)
O10_26 O 1.0000 0.66572(15) 0.32318(15)
Zn12_35 Zn 0.85511(2) 0.60534(2) 0.25016(2)
O54_15 O 0.97287(8) 0.58736(9) 0.36897(9)
O55_15 O 0.97316(8) 0.61675(8) 0.33866(9)
O56_35 O 0.90575(8) 0.61759(7) 0.27558(8)
O57_39 O 0.87550(7) 0.58825(8) 0.27678(8)
O58_8 O 0.87393(8) 0.52641(8) 0.34443(9)
O59_8 O 0.90423(9) 0.52684(8) 0.37387(9)
O60_39 O 0.82929(7) 0.58069(7) 0.23801(7)
N6_39 N 0.81002(10) 0.56878(12) 0.20204(11)
C79_39 C 0.94067(11) 0.58583(11) 0.33785(12)
C80_39 C 0.93002(10) 0.59626(11) 0.31665(11)
H57_39 H 0.9380 0.6100 0.3085
C81_39 C 0.90750(11) 0.58661(10) 0.30713(11)
C82_39 C 0.89635(11) 0.56610(10) 0.31885(11)
H58_39 H 0.8813 0.5591 0.3121
C83_39 C 0.90679(11) 0.55574(11) 0.34019(12)
C84_39 C 0.93010(11) 0.56512(11) 0.35024(12)
H59_39 H 0.9379 0.5577 0.3645
C85_39 C 0.96431(12) 0.59733(12) 0.34872(13)
C86_39 C 0.89538(10) 0.59856(10) 0.28484(10)
C87_39 C 0.89412(14) 0.53337(11) 0.35347(13)
C88_39 C 0.82800(12) 0.57752(12) 0.21484(13)
H60_39 H 0.8425 0.5823 0.2055
C89_39 C 0.81061(19) 0.5645(2) 0.17555(17)
H61_39 H 0.8281 0.5652 0.1696
H62_39 H 0.8035 0.5479 0.1718
H63_39 H 0.8007 0.5775 0.1670
C90_39 C 0.78578(16) 0.5679(2) 0.21336(17)
H64_39 H 0.7854 0.5792 0.2279
H65_39 H 0.7731 0.5732 0.2011
H66_39 H 0.7822 0.5507 0.2189
Zn32_35 Zn 0.89466(2) 0.64489(2) 0.24984(2)
O70_35 O 0.88241(7) 0.59425(8) 0.22442(8)
O72_15 O 0.97359(8) 0.65557(9) 0.37393(8)
O75_15 O 0.97316(8) 0.62613(9) 0.40423(9)
O79_39 O 0.84431(8) 0.63193(7) 0.22493(7)
O84_39 O 0.83820(8) 0.62580(7) 0.27765(8)
O9_27 O 0.0000 0.42227(16) 0.41895(16)
O10_27 O -0.0000 0.33428(15) 0.32318(15)
Zn12_36 Zn 0.14489(2) 0.39466(2) 0.25016(2)
O54_16 O 0.02713(8) 0.41264(9) 0.36897(9)
O55_16 O 0.02684(8) 0.38325(8) 0.33866(9)
O56_36 O 0.09425(8) 0.38241(7) 0.27558(8)
O57_40 O 0.12450(7) 0.41175(8) 0.27678(8)
O60_40 O 0.17071(7) 0.41931(7) 0.23801(7)
N6_40 N 0.18998(10) 0.43122(12) 0.20204(11)
C79_40 C 0.05933(11) 0.41417(11) 0.33785(12)
C80_40 C 0.06998(10) 0.40374(11) 0.31665(11)
H57_40 H 0.0620 0.3900 0.3085
C81_40 C 0.09250(11) 0.41339(10) 0.30713(11)
C82_40 C 0.10365(11) 0.43390(10) 0.31885(11)
H58_40 H 0.1187 0.4409 0.3121
C83_40 C 0.09321(11) 0.44426(11) 0.34019(12)
C84_40 C 0.06990(11) 0.43488(11) 0.35024(12)
H59_40 H 0.0621 0.4423 0.3645
C85_40 C 0.03569(12) 0.40267(12) 0.34872(13)
C86_40 C 0.10462(10) 0.40144(10) 0.28484(10)
C87_40 C 0.10588(14) 0.46663(11) 0.35347(13)
C88_40 C 0.17200(12) 0.42248(12) 0.21484(13)
H60_40 H 0.1575 0.4177 0.2055
C89_40 C 0.18939(19) 0.4355(2) 0.17555(17)
H61_40 H 0.1719 0.4348 0.1696
H62_40 H 0.1965 0.4521 0.1718
H63_40 H 0.1993 0.4225 0.1670
C90_40 C 0.21422(16) 0.4321(2) 0.21336(17)
H64_40 H 0.2146 0.4208 0.2279
H65_40 H 0.2269 0.4268 0.2011
H66_40 H 0.2178 0.4493 0.2189
Zn32_36 Zn 0.10534(2) 0.35511(2) 0.24984(2)
O70_36 O 0.11759(7) 0.40575(8) 0.22442(8)
O72_16 O 0.02641(8) 0.34443(9) 0.37393(8)
O75_16 O 0.02684(8) 0.37387(9) 0.40423(9)
O79_40 O 0.15569(8) 0.36807(7) 0.22493(7)
O84_40 O 0.16180(8) 0.37420(7) 0.27765(8)
O9_28 O 1.0000 0.42227(16) 0.41895(16)
O10_28 O 1.0000 0.33428(15) 0.32318(15)
Zn4_16 Zn 0.89813(2) 0.39124(2) 0.5000
Zn5_16 Zn 0.85936(2) 0.35071(2) 0.5000
O16_16 O 0.91264(9) 0.36897(9) 0.47287(8)
O17_16 O 0.88325(8) 0.33866(9) 0.47316(8)
O18_12 O 0.88241(7) 0.27558(8) 0.40575(8)
O19_16 O 0.91175(8) 0.27678(8) 0.37550(7)
O20_16 O 0.97359(8) 0.34443(9) 0.37393(8)
O21_16 O 0.97316(8) 0.37387(9) 0.40423(9)
O24_24 O 0.92227(16) 0.41895(16) 0.5000
O25_24 O 0.83428(15) 0.32318(15) 0.5000
O26_16 O 0.91931(7) 0.23801(7) 0.32929(7)
N2_16 N 0.93122(12) 0.20204(11) 0.31002(10)
C22_16 C 0.91417(11) 0.33785(12) 0.44067(11)
C23_16 C 0.90374(11) 0.31665(11) 0.43002(10)
H14_16 H 0.8900 0.3085 0.4380
C24_16 C 0.91339(10) 0.30713(11) 0.40750(11)
C25_16 C 0.93390(10) 0.31885(11) 0.39635(11)
H15_16 H 0.9409 0.3121 0.3813
C26_16 C 0.94426(11) 0.34019(12) 0.40679(11)
C27_16 C 0.93488(11) 0.35024(12) 0.43010(11)
H16_16 H 0.9423 0.3645 0.4379
C28_16 C 0.90267(12) 0.34872(13) 0.46431(12)
C29_16 C 0.90144(10) 0.28484(10) 0.39538(10)
C30_16 C 0.96663(11) 0.35347(13) 0.39412(14)
C34_16 C 0.92248(12) 0.21484(13) 0.32800(12)
H18_16 H 0.9177 0.2055 0.3425
C35_16 C 0.9355(2) 0.17555(17) 0.31061(19)
H19_16 H 0.9348 0.1696 0.3281
H20_16 H 0.9521 0.1718 0.3035
H21_16 H 0.9225 0.1670 0.3007
C36_16 C 0.9321(2) 0.21336(17) 0.28578(16)
H22_16 H 0.9208 0.2279 0.2854
H23_16 H 0.9268 0.2011 0.2731
H24_16 H 0.9493 0.2189 0.2822
O31_12 O 0.86897(9) 0.47287(8) 0.41264(9)
O32_12 O 0.83866(9) 0.47316(8) 0.38325(8)
O34_12 O 0.77678(8) 0.37550(7) 0.41175(8)
O35_12 O 0.84443(9) 0.37393(8) 0.47359(8)
O36_12 O 0.87387(9) 0.40423(9) 0.47316(8)
O37_20 O 0.91895(16) 0.5000 0.42227(16)
O38_20 O 0.82318(15) 0.5000 0.33428(15)
O39_12 O 0.73801(7) 0.32929(7) 0.41931(7)
N3_12 N 0.70204(11) 0.31002(10) 0.43122(12)
C43_12 C 0.83785(12) 0.44067(11) 0.41417(11)
C44_12 C 0.81665(11) 0.43002(10) 0.40374(11)
H27_12 H 0.8085 0.4380 0.3900
C45_12 C 0.80713(11) 0.40750(11) 0.41339(10)
C46_12 C 0.81885(11) 0.39635(11) 0.43390(10)
H28_12 H 0.8121 0.3813 0.4409
C47_12 C 0.84019(12) 0.40679(11) 0.44426(11)
C48_12 C 0.85024(12) 0.43010(11) 0.43488(11)
H29_12 H 0.8645 0.4379 0.4423
C49_12 C 0.84872(13) 0.46431(12) 0.40267(12)
C50_12 C 0.78484(10) 0.39538(10) 0.40144(10)
C51_12 C 0.85347(13) 0.39412(14) 0.46663(11)
C52_12 C 0.71484(13) 0.32800(12) 0.42248(12)
H30_12 H 0.7055 0.3425 0.4177
C53_12 C 0.67555(17) 0.31061(19) 0.4355(2)
H31_12 H 0.6696 0.3281 0.4348
H32_12 H 0.6718 0.3035 0.4521
H33_12 H 0.6670 0.3007 0.4225
C54_12 C 0.71336(17) 0.28578(16) 0.4321(2)
H34_12 H 0.7279 0.2854 0.4208
H35_12 H 0.7011 0.2731 0.4268
H36_12 H 0.7189 0.2822 0.4493
O61_16 O 0.91264(9) 0.36897(9) 0.52713(8)
O62_16 O 0.86897(9) 0.52713(8) 0.41264(9)
O63_16 O 0.88325(8) 0.33866(9) 0.52684(8)
O64_16 O 0.83866(9) 0.52684(8) 0.38325(8)
O65_12 O 0.90575(8) 0.22442(8) 0.38241(7)
O73_16 O 0.84443(9) 0.37393(8) 0.52641(8)
O76_16 O 0.87387(9) 0.40423(9) 0.52684(8)
O77_12 O 0.72493(7) 0.34431(8) 0.36807(7)
C31_21 C 0.69262(10) 0.34085(10) 0.33857(10)
C32_21 C 0.68295(11) 0.31985(11) 0.35048(9)
H17_21 H 0.6908 0.3137 0.3653
C33_21 C 0.71459(11) 0.35458(11) 0.35031(12)
C37_21 C 0.66143(10) 0.30738(10) 0.34085(10)
C38_21 C 0.64952(9) 0.31705(11) 0.31985(11)
H25_21 H 0.6347 0.3092 0.3137
C39_21 C 0.64969(12) 0.28541(11) 0.35458(11)
O29_21 O 0.65569(8) 0.36807(7) 0.27507(7)
C40_21 C 0.65915(10) 0.33857(10) 0.30738(10)
C41_21 C 0.68015(11) 0.35048(9) 0.31705(11)
H26_21 H 0.6863 0.3653 0.3092
C42_21 C 0.64542(11) 0.35031(12) 0.28541(11)
Zn12_37 Zn 0.89466(2) 0.25016(2) 0.64489(2)
O56_37 O 0.88241(7) 0.27558(8) 0.59425(8)
O57_41 O 0.91175(8) 0.27678(8) 0.62450(7)
O60_41 O 0.91931(7) 0.23801(7) 0.67071(7)
N6_41 N 0.93122(12) 0.20204(11) 0.68998(10)
C79_41 C 0.91417(11) 0.33785(12) 0.55933(11)
C80_41 C 0.90374(11) 0.31665(11) 0.56998(10)
H57_41 H 0.8900 0.3085 0.5620
C81_41 C 0.91339(10) 0.30713(11) 0.59250(11)
C82_41 C 0.93390(10) 0.31885(11) 0.60365(11)
H58_41 H 0.9409 0.3121 0.6187
C83_41 C 0.94426(11) 0.34019(12) 0.59321(11)
C84_41 C 0.93488(11) 0.35024(12) 0.56990(11)
H59_41 H 0.9423 0.3645 0.5621
C85_41 C 0.90267(12) 0.34872(13) 0.53569(12)
C86_41 C 0.90144(10) 0.28484(10) 0.60462(10)
C87_41 C 0.96663(11) 0.35347(13) 0.60588(14)
C88_41 C 0.92248(12) 0.21484(13) 0.67200(12)
H60_41 H 0.9177 0.2055 0.6575
C89_41 C 0.9355(2) 0.17555(17) 0.68939(19)
H61_41 H 0.9348 0.1696 0.6719
H62_41 H 0.9521 0.1718 0.6965
H63_41 H 0.9225 0.1670 0.6993
C90_41 C 0.9321(2) 0.21336(17) 0.71422(16)
H64_41 H 0.9208 0.2279 0.7146
H65_41 H 0.9268 0.2011 0.7269
H66_41 H 0.9493 0.2189 0.7178
Zn32_37 Zn 0.85511(2) 0.24984(2) 0.60534(2)
O70_37 O 0.90575(8) 0.22442(8) 0.61759(7)
O79_41 O 0.86807(7) 0.22493(7) 0.65569(8)
O84_41 O 0.87420(7) 0.27765(8) 0.66180(8)
C31_22 C 0.30738(10) 0.34085(10) 0.66143(10)
C32_22 C 0.31705(11) 0.31985(11) 0.64952(9)
H17_22 H 0.3092 0.3137 0.6347
C33_22 C 0.28541(11) 0.35458(11) 0.64969(12)
C37_22 C 0.33857(10) 0.30738(10) 0.65915(10)
C38_22 C 0.35048(9) 0.31705(11) 0.68015(11)
H25_22 H 0.3653 0.3092 0.6863
C39_22 C 0.35031(12) 0.28541(11) 0.64542(11)
O29_22 O 0.34431(8) 0.36807(7) 0.72493(7)
C40_22 C 0.34085(10) 0.33857(10) 0.69262(10)
C41_22 C 0.31985(11) 0.35048(9) 0.68295(11)
H26_22 H 0.3137 0.3653 0.6908
C42_22 C 0.35458(11) 0.35031(12) 0.71459(11)
Zn12_38 Zn 0.10534(2) 0.25016(2) 0.35511(2)
O56_38 O 0.11759(7) 0.27558(8) 0.40575(8)
O57_42 O 0.08825(8) 0.27678(8) 0.37550(7)
O60_42 O 0.08069(7) 0.23801(7) 0.32929(7)
N6_42 N 0.06878(12) 0.20204(11) 0.31002(10)
C79_42 C 0.08583(11) 0.33785(12) 0.44067(11)
C80_42 C 0.09626(11) 0.31665(11) 0.43002(10)
H57_42 H 0.1100 0.3085 0.4380
C81_42 C 0.08661(10) 0.30713(11) 0.40750(11)
C82_42 C 0.06610(10) 0.31885(11) 0.39635(11)
H58_42 H 0.0591 0.3121 0.3813
C83_42 C 0.05574(11) 0.34019(12) 0.40679(11)
C84_42 C 0.06512(11) 0.35024(12) 0.43010(11)
H59_42 H 0.0577 0.3645 0.4379
C85_42 C 0.09733(12) 0.34872(13) 0.46431(12)
C86_42 C 0.09856(10) 0.28484(10) 0.39538(10)
C87_42 C 0.03337(11) 0.35347(13) 0.39412(14)
C88_42 C 0.07752(12) 0.21484(13) 0.32800(12)
H60_42 H 0.0823 0.2055 0.3425
C89_42 C 0.0645(2) 0.17555(17) 0.31061(19)
H61_42 H 0.0652 0.1696 0.3281
H62_42 H 0.0479 0.1718 0.3035
H63_42 H 0.0775 0.1670 0.3007
C90_42 C 0.0679(2) 0.21336(17) 0.28578(16)
H64_42 H 0.0792 0.2279 0.2854
H65_42 H 0.0732 0.2011 0.2731
H66_42 H 0.0507 0.2189 0.2822
Zn32_38 Zn 0.14489(2) 0.24984(2) 0.39466(2)
O70_38 O 0.09425(8) 0.22442(8) 0.38241(7)
O79_42 O 0.13193(7) 0.22493(7) 0.34431(8)
O84_42 O 0.12580(7) 0.27765(8) 0.33820(8)
C31_23 C 0.30738(10) 0.65915(10) 0.33857(10)
C32_23 C 0.31705(11) 0.68015(11) 0.35048(9)
H17_23 H 0.3092 0.6863 0.3653
C33_23 C 0.28541(11) 0.64542(11) 0.35031(12)
C37_23 C 0.33857(10) 0.69262(10) 0.34085(10)
C38_23 C 0.35048(9) 0.68295(11) 0.31985(11)
H25_23 H 0.3653 0.6908 0.3137
C39_23 C 0.35031(12) 0.71459(11) 0.35458(11)
O29_23 O 0.34431(8) 0.63193(7) 0.27507(7)
C40_23 C 0.34085(10) 0.66143(10) 0.30738(10)
C41_23 C 0.31985(11) 0.64952(9) 0.31705(11)
H26_23 H 0.3137 0.6347 0.3092
C42_23 C 0.35458(11) 0.64969(12) 0.28541(11)
Zn12_39 Zn 0.10534(2) 0.74984(2) 0.64489(2)
O56_39 O 0.11759(7) 0.72442(8) 0.59425(8)
O57_43 O 0.08825(8) 0.72322(8) 0.62450(7)
O60_43 O 0.08069(7) 0.76199(7) 0.67071(7)
N6_43 N 0.06878(12) 0.79796(11) 0.68998(10)
C79_43 C 0.08583(11) 0.66215(12) 0.55933(11)
C80_43 C 0.09626(11) 0.68335(11) 0.56998(10)
H57_43 H 0.1100 0.6915 0.5620
C81_43 C 0.08661(10) 0.69287(11) 0.59250(11)
C82_43 C 0.06610(10) 0.68115(11) 0.60365(11)
H58_43 H 0.0591 0.6879 0.6187
C83_43 C 0.05574(11) 0.65981(12) 0.59321(11)
C84_43 C 0.06512(11) 0.64976(12) 0.56990(11)
H59_43 H 0.0577 0.6355 0.5621
C85_43 C 0.09733(12) 0.65128(13) 0.53569(12)
C86_43 C 0.09856(10) 0.71516(10) 0.60462(10)
C87_43 C 0.03337(11) 0.64653(13) 0.60588(14)
C88_43 C 0.07752(12) 0.78516(13) 0.67200(12)
H60_43 H 0.0823 0.7945 0.6575
C89_43 C 0.0645(2) 0.82445(17) 0.68939(19)
H61_43 H 0.0652 0.8304 0.6719
H62_43 H 0.0479 0.8282 0.6965
H63_43 H 0.0775 0.8330 0.6993
C90_43 C 0.0679(2) 0.78664(17) 0.71422(16)
H64_43 H 0.0792 0.7721 0.7146
H65_43 H 0.0732 0.7989 0.7269
H66_43 H 0.0507 0.7811 0.7178
Zn32_39 Zn 0.14489(2) 0.75016(2) 0.60534(2)
O70_39 O 0.09425(8) 0.77558(8) 0.61759(7)
O79_43 O 0.13193(7) 0.77507(7) 0.65569(8)
O84_43 O 0.12580(7) 0.72235(8) 0.66180(8)
C31_24 C 0.69262(10) 0.65915(10) 0.66143(10)
C32_24 C 0.68295(11) 0.68015(11) 0.64952(9)
H17_24 H 0.6908 0.6863 0.6347
C33_24 C 0.71459(11) 0.64542(11) 0.64969(12)
C37_24 C 0.66143(10) 0.69262(10) 0.65915(10)
C38_24 C 0.64952(9) 0.68295(11) 0.68015(11)
H25_24 H 0.6347 0.6908 0.6863
C39_24 C 0.64969(12) 0.71459(11) 0.64542(11)
O29_24 O 0.65569(8) 0.63193(7) 0.72493(7)
C40_24 C 0.65915(10) 0.66143(10) 0.69262(10)
C41_24 C 0.68015(11) 0.64952(9) 0.68295(11)
H26_24 H 0.6863 0.6347 0.6908
C42_24 C 0.64542(11) 0.64969(12) 0.71459(11)
Zn12_40 Zn 0.89466(2) 0.74984(2) 0.35511(2)
O56_40 O 0.88241(7) 0.72442(8) 0.40575(8)
O57_44 O 0.91175(8) 0.72322(8) 0.37550(7)
O60_44 O 0.91931(7) 0.76199(7) 0.32929(7)
N6_44 N 0.93122(12) 0.79796(11) 0.31002(10)
C79_44 C 0.91417(11) 0.66215(12) 0.44067(11)
C80_44 C 0.90374(11) 0.68335(11) 0.43002(10)
H57_44 H 0.8900 0.6915 0.4380
C81_44 C 0.91339(10) 0.69287(11) 0.40750(11)
C82_44 C 0.93390(10) 0.68115(11) 0.39635(11)
H58_44 H 0.9409 0.6879 0.3813
C83_44 C 0.94426(11) 0.65981(12) 0.40679(11)
C84_44 C 0.93488(11) 0.64976(12) 0.43010(11)
H59_44 H 0.9423 0.6355 0.4379
C85_44 C 0.90267(12) 0.65128(13) 0.46431(12)
C86_44 C 0.90144(10) 0.71516(10) 0.39538(10)
C87_44 C 0.96663(11) 0.64653(13) 0.39412(14)
C88_44 C 0.92248(12) 0.78516(13) 0.32800(12)
H60_44 H 0.9177 0.7945 0.3425
C89_44 C 0.9355(2) 0.82445(17) 0.31061(19)
H61_44 H 0.9348 0.8304 0.3281
H62_44 H 0.9521 0.8282 0.3035
H63_44 H 0.9225 0.8330 0.3007
C90_44 C 0.9321(2) 0.78664(17) 0.28578(16)
H64_44 H 0.9208 0.7721 0.2854
H65_44 H 0.9268 0.7989 0.2731
H66_44 H 0.9493 0.7811 0.2822
Zn32_40 Zn 0.85511(2) 0.75016(2) 0.39466(2)
O70_40 O 0.90575(8) 0.77558(8) 0.38241(7)
O79_44 O 0.86807(7) 0.77507(7) 0.34431(8)
O84_44 O 0.87420(7) 0.72235(8) 0.33820(8)
O57_45 O 0.77678(8) 0.37550(7) 0.58825(8)
O60_45 O 0.73801(7) 0.32929(7) 0.58069(7)
N6_45 N 0.70204(11) 0.31002(10) 0.56878(12)
C79_45 C 0.83785(12) 0.44067(11) 0.58583(11)
C80_45 C 0.81665(11) 0.43002(10) 0.59626(11)
H57_45 H 0.8085 0.4380 0.6100
C81_45 C 0.80713(11) 0.40750(11) 0.58661(10)
C82_45 C 0.81885(11) 0.39635(11) 0.56610(10)
H58_45 H 0.8121 0.3813 0.5591
C83_45 C 0.84019(12) 0.40679(11) 0.55574(11)
C84_45 C 0.85024(12) 0.43010(11) 0.56512(11)
H59_45 H 0.8645 0.4379 0.5577
C85_45 C 0.84872(13) 0.46431(12) 0.59733(12)
C86_45 C 0.78484(10) 0.39538(10) 0.59856(10)
C87_45 C 0.85347(13) 0.39412(14) 0.53337(11)
C88_45 C 0.71484(13) 0.32800(12) 0.57752(12)
H60_45 H 0.7055 0.3425 0.5823
C89_45 C 0.67555(17) 0.31061(19) 0.5645(2)
H61_45 H 0.6696 0.3281 0.5652
H62_45 H 0.6718 0.3035 0.5479
H63_45 H 0.6670 0.3007 0.5775
C90_45 C 0.71336(17) 0.28578(16) 0.5679(2)
H64_45 H 0.7279 0.2854 0.5792
H65_45 H 0.7011 0.2731 0.5732
H66_45 H 0.7189 0.2822 0.5507
O79_45 O 0.72493(7) 0.34431(8) 0.63193(7)
O84_45 O 0.77765(8) 0.33820(8) 0.62580(7)
O57_46 O 0.77678(8) 0.62450(7) 0.41175(8)
O60_46 O 0.73801(7) 0.67071(7) 0.41931(7)
N6_46 N 0.70204(11) 0.68998(10) 0.43122(12)
C79_46 C 0.83785(12) 0.55933(11) 0.41417(11)
C80_46 C 0.81665(11) 0.56998(10) 0.40374(11)
H57_46 H 0.8085 0.5620 0.3900
C81_46 C 0.80713(11) 0.59250(11) 0.41339(10)
C82_46 C 0.81885(11) 0.60365(11) 0.43390(10)
H58_46 H 0.8121 0.6187 0.4409
C83_46 C 0.84019(12) 0.59321(11) 0.44426(11)
C84_46 C 0.85024(12) 0.56990(11) 0.43488(11)
H59_46 H 0.8645 0.5621 0.4423
C85_46 C 0.84872(13) 0.53569(12) 0.40267(12)
C86_46 C 0.78484(10) 0.60462(10) 0.40144(10)
C87_46 C 0.85347(13) 0.60588(14) 0.46663(11)
C88_46 C 0.71484(13) 0.67200(12) 0.42248(12)
H60_46 H 0.7055 0.6575 0.4177
C89_46 C 0.67555(17) 0.68939(19) 0.4355(2)
H61_46 H 0.6696 0.6719 0.4348
H62_46 H 0.6718 0.6965 0.4521
H63_46 H 0.6670 0.6993 0.4225
C90_46 C 0.71336(17) 0.71422(16) 0.4321(2)
H64_46 H 0.7279 0.7146 0.4208
H65_46 H 0.7011 0.7269 0.4268
H66_46 H 0.7189 0.7178 0.4493
O79_46 O 0.72493(7) 0.65569(8) 0.36807(7)
O84_46 O 0.77765(8) 0.66180(8) 0.37420(7)
O57_47 O 0.22322(8) 0.37550(7) 0.41175(8)
O60_47 O 0.26199(7) 0.32929(7) 0.41931(7)
N6_47 N 0.29796(11) 0.31002(10) 0.43122(12)
C79_47 C 0.16215(12) 0.44067(11) 0.41417(11)
C80_47 C 0.18335(11) 0.43002(10) 0.40374(11)
H57_47 H 0.1915 0.4380 0.3900
C81_47 C 0.19287(11) 0.40750(11) 0.41339(10)
C82_47 C 0.18115(11) 0.39635(11) 0.43390(10)
H58_47 H 0.1879 0.3813 0.4409
C83_47 C 0.15981(12) 0.40679(11) 0.44426(11)
C84_47 C 0.14976(12) 0.43010(11) 0.43488(11)
H59_47 H 0.1355 0.4379 0.4423
C85_47 C 0.15128(13) 0.46431(12) 0.40267(12)
C86_47 C 0.21516(10) 0.39538(10) 0.40144(10)
C87_47 C 0.14653(13) 0.39412(14) 0.46663(11)
C88_47 C 0.28516(13) 0.32800(12) 0.42248(12)
H60_47 H 0.2945 0.3425 0.4177
C89_47 C 0.32445(17) 0.31061(19) 0.4355(2)
H61_47 H 0.3304 0.3281 0.4348
H62_47 H 0.3282 0.3035 0.4521
H63_47 H 0.3330 0.3007 0.4225
C90_47 C 0.28664(17) 0.28578(16) 0.4321(2)
H64_47 H 0.2721 0.2854 0.4208
H65_47 H 0.2989 0.2731 0.4268
H66_47 H 0.2811 0.2822 0.4493
O79_47 O 0.27507(7) 0.34431(8) 0.36807(7)
O84_47 O 0.22235(8) 0.33820(8) 0.37420(7)
O57_48 O 0.22322(8) 0.62450(7) 0.58825(8)
O60_48 O 0.26199(7) 0.67071(7) 0.58069(7)
N6_48 N 0.29796(11) 0.68998(10) 0.56878(12)
C79_48 C 0.16215(12) 0.55933(11) 0.58583(11)
C80_48 C 0.18335(11) 0.56998(10) 0.59626(11)
H57_48 H 0.1915 0.5620 0.6100
C81_48 C 0.19287(11) 0.59250(11) 0.58661(10)
C82_48 C 0.18115(11) 0.60365(11) 0.56610(10)
H58_48 H 0.1879 0.6187 0.5591
C83_48 C 0.15981(12) 0.59321(11) 0.55574(11)
C84_48 C 0.14976(12) 0.56990(11) 0.56512(11)
H59_48 H 0.1355 0.5621 0.5577
C85_48 C 0.15128(13) 0.53569(12) 0.59733(12)
C86_48 C 0.21516(10) 0.60462(10) 0.59856(10)
C87_48 C 0.14653(13) 0.60588(14) 0.53337(11)
C88_48 C 0.28516(13) 0.67200(12) 0.57752(12)
H60_48 H 0.2945 0.6575 0.5823
C89_48 C 0.32445(17) 0.68939(19) 0.5645(2)
H61_48 H 0.3304 0.6719 0.5652
H62_48 H 0.3282 0.6965 0.5479
H63_48 H 0.3330 0.6993 0.5775
C90_48 C 0.28664(17) 0.71422(16) 0.5679(2)
H64_48 H 0.2721 0.7146 0.5792
H65_48 H 0.2989 0.7269 0.5732
H66_48 H 0.2811 0.7178 0.5507
O79_48 O 0.27507(7) 0.65569(8) 0.63193(7)
O84_48 O 0.22235(8) 0.66180(8) 0.62580(7)
O37_21 O 0.0000 0.58105(16) 0.92227(16)
O38_21 O 0.0000 0.67682(15) 0.83428(15)
O62_17 O 0.02713(8) 0.63103(9) 0.91264(9)
O64_17 O 0.02684(8) 0.66134(9) 0.88325(8)
O71_9 O 0.02641(8) 0.62607(8) 0.84443(9)
O74_9 O 0.02684(8) 0.59577(9) 0.87387(9)
O24_25 O 0.91895(16) 0.57773(16) 0.0000
O25_25 O 0.82318(15) 0.66572(15) 0.0000
O61_17 O 0.86897(9) 0.58736(9) 0.02713(8)
O63_17 O 0.83866(9) 0.61675(8) 0.02684(8)
O73_17 O 0.87393(8) 0.65557(9) 0.02641(8)
O76_17 O 0.90423(9) 0.62613(9) 0.02684(8)
O9_29 O 0.92227(16) 0.5000 0.91895(16)
O10_29 O 0.83428(15) 0.5000 0.82318(15)
O24_26 O 0.91895(16) 0.57773(16) 1.0000
O25_26 O 0.82318(15) 0.66572(15) 1.0000
O31_13 O 0.97287(8) 0.63103(9) 0.91264(9)
O32_13 O 0.97316(8) 0.66134(9) 0.88325(8)
O34_13 O 0.87550(7) 0.72322(8) 0.91175(8)
O35_13 O 0.87393(8) 0.65557(9) 0.97359(8)
O36_13 O 0.90423(9) 0.62613(9) 0.97316(8)
O37_22 O 1.0000 0.58105(16) 0.92227(16)
O38_22 O 1.0000 0.67682(15) 0.83428(15)
O39_13 O 0.82929(7) 0.76199(7) 0.91931(7)
N3_13 N 0.81002(10) 0.79796(11) 0.93122(12)
C43_13 C 0.94067(11) 0.66215(12) 0.91417(11)
C44_13 C 0.93002(10) 0.68335(11) 0.90374(11)
H27_13 H 0.9380 0.6915 0.8900
C45_13 C 0.90750(11) 0.69287(11) 0.91339(10)
C46_13 C 0.89635(11) 0.68115(11) 0.93390(10)
H28_13 H 0.8813 0.6879 0.9409
C47_13 C 0.90679(11) 0.65981(12) 0.94426(11)
C48_13 C 0.93010(11) 0.64976(12) 0.93488(11)
H29_13 H 0.9379 0.6355 0.9423
C49_13 C 0.96431(12) 0.65128(13) 0.90267(12)
C50_13 C 0.89538(10) 0.71516(10) 0.90144(10)
C51_13 C 0.89412(14) 0.64653(13) 0.96663(11)
C52_13 C 0.82800(12) 0.78516(13) 0.92248(12)
H30_13 H 0.8425 0.7945 0.9177
C53_13 C 0.81061(19) 0.82445(17) 0.9355(2)
H31_13 H 0.8281 0.8304 0.9348
H32_13 H 0.8035 0.8282 0.9521
H33_13 H 0.8007 0.8330 0.9225
C54_13 C 0.78578(16) 0.78664(17) 0.9321(2)
H34_13 H 0.7854 0.7721 0.9208
H35_13 H 0.7731 0.7989 0.9268
H36_13 H 0.7822 0.7811 0.9493
O40_21 O 0.97287(8) 0.86897(9) 0.58736(9)
O41_21 O 0.97316(8) 0.83866(9) 0.61675(8)
O43_21 O 0.87550(7) 0.77678(8) 0.58825(8)
O44_21 O 0.87393(8) 0.84443(9) 0.52641(8)
O45_21 O 0.90423(9) 0.87387(9) 0.52684(8)
O46_21 O 0.82929(7) 0.73801(7) 0.58069(7)
N4_21 N 0.81002(10) 0.70204(11) 0.56878(12)
C55_21 C 0.94067(11) 0.83785(12) 0.58583(11)
C56_21 C 0.93002(10) 0.81665(11) 0.59626(11)
H37_21 H 0.9380 0.8085 0.6100
C57_21 C 0.90750(11) 0.80713(11) 0.58661(10)
C58_21 C 0.89635(11) 0.81885(11) 0.56610(10)
H38_21 H 0.8813 0.8121 0.5591
C59_21 C 0.90679(11) 0.84019(12) 0.55574(11)
C60_21 C 0.93010(11) 0.85024(12) 0.56512(11)
H39_21 H 0.9379 0.8645 0.5577
C61_21 C 0.96431(12) 0.84872(13) 0.59733(12)
C62_21 C 0.89538(10) 0.78484(10) 0.59856(10)
C63_21 C 0.89412(14) 0.85347(13) 0.53337(11)
C64_21 C 0.82800(12) 0.71484(13) 0.57752(12)
H40_21 H 0.8425 0.7055 0.5823
C65_21 C 0.81061(19) 0.67555(17) 0.5645(2)
H41_21 H 0.8281 0.6696 0.5652
H42_21 H 0.8035 0.6718 0.5479
H43_21 H 0.8007 0.6670 0.5775
C66_21 C 0.78578(16) 0.71336(17) 0.5679(2)
H44_21 H 0.7854 0.7279 0.5792
H45_21 H 0.7731 0.7011 0.5732
H46_21 H 0.7822 0.7189 0.5507
O47_21 O 0.52713(8) 0.58736(9) 0.86897(9)
O48_21 O 0.52684(8) 0.61675(8) 0.83866(9)
O50_21 O 0.62450(7) 0.58825(8) 0.77678(8)
O51_21 O 0.62607(8) 0.52641(8) 0.84443(9)
O52_21 O 0.59577(9) 0.52684(8) 0.87387(9)
O53_21 O 0.67071(7) 0.58069(7) 0.73801(7)
N5_21 N 0.68998(10) 0.56878(12) 0.70204(11)
C67_21 C 0.55933(11) 0.58583(11) 0.83785(12)
C68_21 C 0.56998(10) 0.59626(11) 0.81665(11)
H47_21 H 0.5620 0.6100 0.8085
C69_21 C 0.59250(11) 0.58661(10) 0.80713(11)
C70_21 C 0.60365(11) 0.56610(10) 0.81885(11)
H48_21 H 0.6187 0.5591 0.8121
C71_21 C 0.59321(11) 0.55574(11) 0.84019(12)
C72_21 C 0.56990(11) 0.56512(11) 0.85024(12)
H49_21 H 0.5621 0.5577 0.8645
C73_21 C 0.53569(12) 0.59733(12) 0.84872(13)
C74_21 C 0.60462(10) 0.59856(10) 0.78484(10)
C75_21 C 0.60588(14) 0.53337(11) 0.85347(13)
C76_21 C 0.67200(12) 0.57752(12) 0.71484(13)
H50_21 H 0.6575 0.5823 0.7055
C77_21 C 0.68939(19) 0.5645(2) 0.67555(17)
H51_21 H 0.6719 0.5652 0.6696
H52_21 H 0.6965 0.5479 0.6718
H53_21 H 0.6993 0.5775 0.6670
C78_21 C 0.71422(16) 0.5679(2) 0.71336(17)
H54_21 H 0.7146 0.5792 0.7279
H55_21 H 0.7269 0.5732 0.7011
H56_21 H 0.7178 0.5507 0.7189
O54_17 O 0.91264(9) 0.47287(8) 0.86897(9)
O55_17 O 0.88325(8) 0.47316(8) 0.83866(9)
O57_49 O 0.91175(8) 0.37550(7) 0.77678(8)
O58_9 O 0.97359(8) 0.37393(8) 0.84443(9)
O59_9 O 0.97316(8) 0.40423(9) 0.87387(9)
O60_49 O 0.91931(7) 0.32929(7) 0.73801(7)
N6_49 N 0.93122(12) 0.31002(10) 0.70204(11)
C79_49 C 0.91417(11) 0.44067(11) 0.83785(12)
C80_49 C 0.90374(11) 0.43002(10) 0.81665(11)
H57_49 H 0.8900 0.4380 0.8085
C81_49 C 0.91339(10) 0.40750(11) 0.80713(11)
C82_49 C 0.93390(10) 0.39635(11) 0.81885(11)
H58_49 H 0.9409 0.3813 0.8121
C83_49 C 0.94426(11) 0.40679(11) 0.84019(12)
C84_49 C 0.93488(11) 0.43010(11) 0.85024(12)
H59_49 H 0.9423 0.4379 0.8645
C85_49 C 0.90267(12) 0.46431(12) 0.84872(13)
C86_49 C 0.90144(10) 0.39538(10) 0.78484(10)
C87_49 C 0.96663(11) 0.39412(14) 0.85347(13)
C88_49 C 0.92248(12) 0.32800(12) 0.71484(13)
H60_49 H 0.9177 0.3425 0.7055
C89_49 C 0.9355(2) 0.31061(19) 0.67555(17)
H61_49 H 0.9348 0.3281 0.6696
H62_49 H 0.9521 0.3035 0.6718
H63_49 H 0.9225 0.3007 0.6670
C90_49 C 0.9321(2) 0.28578(16) 0.71336(17)
H64_49 H 0.9208 0.2854 0.7279
H65_49 H 0.9268 0.2731 0.7011
H66_49 H 0.9493 0.2822 0.7189
O72_17 O 0.84443(9) 0.47359(8) 0.87393(8)
O75_17 O 0.87387(9) 0.47316(8) 0.90423(9)
O79_49 O 0.86807(7) 0.34431(8) 0.72493(7)
O84_49 O 0.87420(7) 0.33820(8) 0.77765(8)
O24_27 O 0.08105(16) 0.42227(16) 0.0000
O25_27 O 0.17682(15) 0.33428(15) 0.0000
O61_18 O 0.13103(9) 0.41264(9) 0.02713(8)
O63_18 O 0.16134(9) 0.38325(8) 0.02684(8)
O73_18 O 0.12607(8) 0.34443(9) 0.02641(8)
O76_18 O 0.09577(9) 0.37387(9) 0.02684(8)
O9_30 O 0.07773(16) 0.5000 0.91895(16)
O10_30 O 0.16572(15) 0.5000 0.82318(15)
O24_28 O 0.08105(16) 0.42227(16) 1.0000
O25_28 O 0.17682(15) 0.33428(15) 1.0000
O31_14 O 0.02713(8) 0.36897(9) 0.91264(9)
O32_14 O 0.02684(8) 0.33866(9) 0.88325(8)
O34_14 O 0.12450(7) 0.27678(8) 0.91175(8)
O35_14 O 0.12607(8) 0.34443(9) 0.97359(8)
O36_14 O 0.09577(9) 0.37387(9) 0.97316(8)
O37_23 O -0.0000 0.41895(16) 0.92227(16)
O38_23 O -0.0000 0.32318(15) 0.83428(15)
O39_14 O 0.17071(7) 0.23801(7) 0.91931(7)
N3_14 N 0.18998(10) 0.20204(11) 0.93122(12)
C43_14 C 0.05933(11) 0.33785(12) 0.91417(11)
C44_14 C 0.06998(10) 0.31665(11) 0.90374(11)
H27_14 H 0.0620 0.3085 0.8900
C45_14 C 0.09250(11) 0.30713(11) 0.91339(10)
C46_14 C 0.10365(11) 0.31885(11) 0.93390(10)
H28_14 H 0.1187 0.3121 0.9409
C47_14 C 0.09321(11) 0.34019(12) 0.94426(11)
C48_14 C 0.06990(11) 0.35024(12) 0.93488(11)
H29_14 H 0.0621 0.3645 0.9423
C49_14 C 0.03569(12) 0.34872(13) 0.90267(12)
C50_14 C 0.10462(10) 0.28484(10) 0.90144(10)
C51_14 C 0.10588(14) 0.35347(13) 0.96663(11)
C52_14 C 0.17200(12) 0.21484(13) 0.92248(12)
H30_14 H 0.1575 0.2055 0.9177
C53_14 C 0.18939(19) 0.17555(17) 0.9355(2)
H31_14 H 0.1719 0.1696 0.9348
H32_14 H 0.1965 0.1718 0.9521
H33_14 H 0.1993 0.1670 0.9225
C54_14 C 0.21422(16) 0.21336(17) 0.9321(2)
H34_14 H 0.2146 0.2279 0.9208
H35_14 H 0.2269 0.2011 0.9268
H36_14 H 0.2178 0.2189 0.9493
O40_22 O 0.02713(8) 0.13103(9) 0.58736(9)
O41_22 O 0.02684(8) 0.16134(9) 0.61675(8)
O43_22 O 0.12450(7) 0.22322(8) 0.58825(8)
O44_22 O 0.12607(8) 0.15557(9) 0.52641(8)
O45_22 O 0.09577(9) 0.12613(9) 0.52684(8)
O46_22 O 0.17071(7) 0.26199(7) 0.58069(7)
N4_22 N 0.18998(10) 0.29796(11) 0.56878(12)
C55_22 C 0.05933(11) 0.16215(12) 0.58583(11)
C56_22 C 0.06998(10) 0.18335(11) 0.59626(11)
H37_22 H 0.0620 0.1915 0.6100
C57_22 C 0.09250(11) 0.19287(11) 0.58661(10)
C58_22 C 0.10365(11) 0.18115(11) 0.56610(10)
H38_22 H 0.1187 0.1879 0.5591
C59_22 C 0.09321(11) 0.15981(12) 0.55574(11)
C60_22 C 0.06990(11) 0.14976(12) 0.56512(11)
H39_22 H 0.0621 0.1355 0.5577
C61_22 C 0.03569(12) 0.15128(13) 0.59733(12)
C62_22 C 0.10462(10) 0.21516(10) 0.59856(10)
C63_22 C 0.10588(14) 0.14653(13) 0.53337(11)
C64_22 C 0.17200(12) 0.28516(13) 0.57752(12)
H40_22 H 0.1575 0.2945 0.5823
C65_22 C 0.18939(19) 0.32445(17) 0.5645(2)
H41_22 H 0.1719 0.3304 0.5652
H42_22 H 0.1965 0.3282 0.5479
H43_22 H 0.1993 0.3330 0.5775
C66_22 C 0.21422(16) 0.28664(17) 0.5679(2)
H44_22 H 0.2146 0.2721 0.5792
H45_22 H 0.2269 0.2989 0.5732
H46_22 H 0.2178 0.2811 0.5507
O47_22 O 0.47287(8) 0.41264(9) 0.86897(9)
O48_22 O 0.47316(8) 0.38325(8) 0.83866(9)
O50_22 O 0.37550(7) 0.41175(8) 0.77678(8)
O51_22 O 0.37393(8) 0.47359(8) 0.84443(9)
O52_22 O 0.40423(9) 0.47316(8) 0.87387(9)
O53_22 O 0.32929(7) 0.41931(7) 0.73801(7)
N5_22 N 0.31002(10) 0.43122(12) 0.70204(11)
C67_22 C 0.44067(11) 0.41417(11) 0.83785(12)
C68_22 C 0.43002(10) 0.40374(11) 0.81665(11)
H47_22 H 0.4380 0.3900 0.8085
C69_22 C 0.40750(11) 0.41339(10) 0.80713(11)
C70_22 C 0.39635(11) 0.43390(10) 0.81885(11)
H48_22 H 0.3813 0.4409 0.8121
C71_22 C 0.40679(11) 0.44426(11) 0.84019(12)
C72_22 C 0.43010(11) 0.43488(11) 0.85024(12)
H49_22 H 0.4379 0.4423 0.8645
C73_22 C 0.46431(12) 0.40267(12) 0.84872(13)
C74_22 C 0.39538(10) 0.40144(10) 0.78484(10)
C75_22 C 0.39412(14) 0.46663(11) 0.85347(13)
C76_22 C 0.32800(12) 0.42248(12) 0.71484(13)
H50_22 H 0.3425 0.4177 0.7055
C77_22 C 0.31061(19) 0.4355(2) 0.67555(17)
H51_22 H 0.3281 0.4348 0.6696
H52_22 H 0.3035 0.4521 0.6718
H53_22 H 0.3007 0.4225 0.6670
C78_22 C 0.28578(16) 0.4321(2) 0.71336(17)
H54_22 H 0.2854 0.4208 0.7279
H55_22 H 0.2731 0.4268 0.7011
H56_22 H 0.2822 0.4493 0.7189
O54_18 O 0.08736(9) 0.52713(8) 0.86897(9)
O55_18 O 0.11675(8) 0.52684(8) 0.83866(9)
O57_50 O 0.08825(8) 0.62450(7) 0.77678(8)
O60_50 O 0.08069(7) 0.67071(7) 0.73801(7)
N6_50 N 0.06878(12) 0.68998(10) 0.70204(11)
C79_50 C 0.08583(11) 0.55933(11) 0.83785(12)
C80_50 C 0.09626(11) 0.56998(10) 0.81665(11)
H57_50 H 0.1100 0.5620 0.8085
C81_50 C 0.08661(10) 0.59250(11) 0.80713(11)
C82_50 C 0.06610(10) 0.60365(11) 0.81885(11)
H58_50 H 0.0591 0.6187 0.8121
C83_50 C 0.05574(11) 0.59321(11) 0.84019(12)
C84_50 C 0.06512(11) 0.56990(11) 0.85024(12)
H59_50 H 0.0577 0.5621 0.8645
C85_50 C 0.09733(12) 0.53569(12) 0.84872(13)
C86_50 C 0.09856(10) 0.60462(10) 0.78484(10)
C87_50 C 0.03337(11) 0.60588(14) 0.85347(13)
C88_50 C 0.07752(12) 0.67200(12) 0.71484(13)
H60_50 H 0.0823 0.6575 0.7055
C89_50 C 0.0645(2) 0.68939(19) 0.67555(17)
H61_50 H 0.0652 0.6719 0.6696
H62_50 H 0.0479 0.6965 0.6718
H63_50 H 0.0775 0.6993 0.6670
C90_50 C 0.0679(2) 0.71422(16) 0.71336(17)
H64_50 H 0.0792 0.7146 0.7279
H65_50 H 0.0732 0.7269 0.7011
H66_50 H 0.0507 0.7178 0.7189
O72_18 O 0.15557(9) 0.52641(8) 0.87393(8)
O75_18 O 0.12613(9) 0.52684(8) 0.90423(9)
O79_50 O 0.13193(7) 0.65569(8) 0.72493(7)
O84_50 O 0.12580(7) 0.66180(8) 0.77765(8)
O37_24 O 1.0000 0.41895(16) 0.92227(16)
O38_24 O 1.0000 0.32318(15) 0.83428(15)
O62_18 O 0.97287(8) 0.36897(9) 0.91264(9)
O64_18 O 0.97316(8) 0.33866(9) 0.88325(8)
O9_31 O 0.07773(16) 0.5000 0.08105(16)
O10_31 O 0.16572(15) 0.5000 0.17682(15)
O24_29 O 0.08105(16) 0.57773(16) 0.0000
O25_29 O 0.17682(15) 0.66572(15) 0.0000
O31_15 O 0.02713(8) 0.63103(9) 0.08736(9)
O32_15 O 0.02684(8) 0.66134(9) 0.11675(8)
O34_15 O 0.12450(7) 0.72322(8) 0.08825(8)
O35_15 O 0.12607(8) 0.65557(9) 0.02641(8)
O36_15 O 0.09577(9) 0.62613(9) 0.02684(8)
O37_25 O -0.0000 0.58105(16) 0.07773(16)
O38_25 O -0.0000 0.67682(15) 0.16572(15)
O39_15 O 0.17071(7) 0.76199(7) 0.08069(7)
N3_15 N 0.18998(10) 0.79796(11) 0.06878(12)
C43_15 C 0.05933(11) 0.66215(12) 0.08583(11)
C44_15 C 0.06998(10) 0.68335(11) 0.09626(11)
H27_15 H 0.0620 0.6915 0.1100
C45_15 C 0.09250(11) 0.69287(11) 0.08661(10)
C46_15 C 0.10365(11) 0.68115(11) 0.06610(10)
H28_15 H 0.1187 0.6879 0.0591
C47_15 C 0.09321(11) 0.65981(12) 0.05574(11)
C48_15 C 0.06990(11) 0.64976(12) 0.06512(11)
H29_15 H 0.0621 0.6355 0.0577
C49_15 C 0.03569(12) 0.65128(13) 0.09733(12)
C50_15 C 0.10462(10) 0.71516(10) 0.09856(10)
C51_15 C 0.10588(14) 0.64653(13) 0.03337(11)
C52_15 C 0.17200(12) 0.78516(13) 0.07752(12)
H30_15 H 0.1575 0.7945 0.0823
C53_15 C 0.18939(19) 0.82445(17) 0.0645(2)
H31_15 H 0.1719 0.8304 0.0652
H32_15 H 0.1965 0.8282 0.0479
H33_15 H 0.1993 0.8330 0.0775
C54_15 C 0.21422(16) 0.78664(17) 0.0679(2)
H34_15 H 0.2146 0.7721 0.0792
H35_15 H 0.2269 0.7989 0.0732
H36_15 H 0.2178 0.7811 0.0507
O40_23 O 0.02713(8) 0.86897(9) 0.41264(9)
O41_23 O 0.02684(8) 0.83866(9) 0.38325(8)
O43_23 O 0.12450(7) 0.77678(8) 0.41175(8)
O44_23 O 0.12607(8) 0.84443(9) 0.47359(8)
O45_23 O 0.09577(9) 0.87387(9) 0.47316(8)
O46_23 O 0.17071(7) 0.73801(7) 0.41931(7)
N4_23 N 0.18998(10) 0.70204(11) 0.43122(12)
C55_23 C 0.05933(11) 0.83785(12) 0.41417(11)
C56_23 C 0.06998(10) 0.81665(11) 0.40374(11)
H37_23 H 0.0620 0.8085 0.3900
C57_23 C 0.09250(11) 0.80713(11) 0.41339(10)
C58_23 C 0.10365(11) 0.81885(11) 0.43390(10)
H38_23 H 0.1187 0.8121 0.4409
C59_23 C 0.09321(11) 0.84019(12) 0.44426(11)
C60_23 C 0.06990(11) 0.85024(12) 0.43488(11)
H39_23 H 0.0621 0.8645 0.4423
C61_23 C 0.03569(12) 0.84872(13) 0.40267(12)
C62_23 C 0.10462(10) 0.78484(10) 0.40144(10)
C63_23 C 0.10588(14) 0.85347(13) 0.46663(11)
C64_23 C 0.17200(12) 0.71484(13) 0.42248(12)
H40_23 H 0.1575 0.7055 0.4177
C65_23 C 0.18939(19) 0.67555(17) 0.4355(2)
H41_23 H 0.1719 0.6696 0.4348
H42_23 H 0.1965 0.6718 0.4521
H43_23 H 0.1993 0.6670 0.4225
C66_23 C 0.21422(16) 0.71336(17) 0.4321(2)
H44_23 H 0.2146 0.7279 0.4208
H45_23 H 0.2269 0.7011 0.4268
H46_23 H 0.2178 0.7189 0.4493
O47_23 O 0.47287(8) 0.58736(9) 0.13103(9)
O48_23 O 0.47316(8) 0.61675(8) 0.16134(9)
O50_23 O 0.37550(7) 0.58825(8) 0.22322(8)
O51_23 O 0.37393(8) 0.52641(8) 0.15557(9)
O52_23 O 0.40423(9) 0.52684(8) 0.12613(9)
O53_23 O 0.32929(7) 0.58069(7) 0.26199(7)
N5_23 N 0.31002(10) 0.56878(12) 0.29796(11)
C67_23 C 0.44067(11) 0.58583(11) 0.16215(12)
C68_23 C 0.43002(10) 0.59626(11) 0.18335(11)
H47_23 H 0.4380 0.6100 0.1915
C69_23 C 0.40750(11) 0.58661(10) 0.19287(11)
C70_23 C 0.39635(11) 0.56610(10) 0.18115(11)
H48_23 H 0.3813 0.5591 0.1879
C71_23 C 0.40679(11) 0.55574(11) 0.15981(12)
C72_23 C 0.43010(11) 0.56512(11) 0.14976(12)
H49_23 H 0.4379 0.5577 0.1355
C73_23 C 0.46431(12) 0.59733(12) 0.15128(13)
C74_23 C 0.39538(10) 0.59856(10) 0.21516(10)
C75_23 C 0.39412(14) 0.53337(11) 0.14653(13)
C76_23 C 0.32800(12) 0.57752(12) 0.28516(13)
H50_23 H 0.3425 0.5823 0.2945
C77_23 C 0.31061(19) 0.5645(2) 0.32445(17)
H51_23 H 0.3281 0.5652 0.3304
H52_23 H 0.3035 0.5479 0.3282
H53_23 H 0.3007 0.5775 0.3330
C78_23 C 0.28578(16) 0.5679(2) 0.28664(17)
H54_23 H 0.2854 0.5792 0.2721
H55_23 H 0.2731 0.5732 0.2989
H56_23 H 0.2822 0.5507 0.2811
O54_19 O 0.08736(9) 0.47287(8) 0.13103(9)
O55_19 O 0.11675(8) 0.47316(8) 0.16134(9)
O57_51 O 0.08825(8) 0.37550(7) 0.22322(8)
O58_10 O 0.02641(8) 0.37393(8) 0.15557(9)
O59_10 O 0.02684(8) 0.40423(9) 0.12613(9)
O60_51 O 0.08069(7) 0.32929(7) 0.26199(7)
N6_51 N 0.06878(12) 0.31002(10) 0.29796(11)
C79_51 C 0.08583(11) 0.44067(11) 0.16215(12)
C80_51 C 0.09626(11) 0.43002(10) 0.18335(11)
H57_51 H 0.1100 0.4380 0.1915
C81_51 C 0.08661(10) 0.40750(11) 0.19287(11)
C82_51 C 0.06610(10) 0.39635(11) 0.18115(11)
H58_51 H 0.0591 0.3813 0.1879
C83_51 C 0.05574(11) 0.40679(11) 0.15981(12)
C84_51 C 0.06512(11) 0.43010(11) 0.14976(12)
H59_51 H 0.0577 0.4379 0.1355
C85_51 C 0.09733(12) 0.46431(12) 0.15128(13)
C86_51 C 0.09856(10) 0.39538(10) 0.21516(10)
C87_51 C 0.03337(11) 0.39412(14) 0.14653(13)
C88_51 C 0.07752(12) 0.32800(12) 0.28516(13)
H60_51 H 0.0823 0.3425 0.2945
C89_51 C 0.0645(2) 0.31061(19) 0.32445(17)
H61_51 H 0.0652 0.3281 0.3304
H62_51 H 0.0479 0.3035 0.3282
H63_51 H 0.0775 0.3007 0.3330
C90_51 C 0.0679(2) 0.28578(16) 0.28664(17)
H64_51 H 0.0792 0.2854 0.2721
H65_51 H 0.0732 0.2731 0.2989
H66_51 H 0.0507 0.2822 0.2811
O72_19 O 0.15557(9) 0.47359(8) 0.12607(8)
O75_19 O 0.12613(9) 0.47316(8) 0.09577(9)
O79_51 O 0.13193(7) 0.34431(8) 0.27507(7)
O84_51 O 0.12580(7) 0.33820(8) 0.22235(8)
O24_30 O 0.08105(16) 0.57773(16) 1.0000
O25_30 O 0.17682(15) 0.66572(15) 1.0000
O61_19 O 0.13103(9) 0.58736(9) 0.97287(8)
O63_19 O 0.16134(9) 0.61675(8) 0.97316(8)
O73_19 O 0.12607(8) 0.65557(9) 0.97359(8)
O76_19 O 0.09577(9) 0.62613(9) 0.97316(8)
O37_26 O 1.0000 0.58105(16) 0.07773(16)
O38_26 O 1.0000 0.67682(15) 0.16572(15)
O62_19 O 0.97287(8) 0.63103(9) 0.08736(9)
O64_19 O 0.97316(8) 0.66134(9) 0.11675(8)
O71_10 O 0.97359(8) 0.62607(8) 0.15557(9)
O74_10 O 0.97316(8) 0.59577(9) 0.12613(9)
O37_27 O 0.0000 0.41895(16) 0.07773(16)
O38_27 O 0.0000 0.32318(15) 0.16572(15)
O62_20 O 0.02713(8) 0.36897(9) 0.08736(9)
O64_20 O 0.02684(8) 0.33866(9) 0.11675(8)
O9_32 O 0.92227(16) 0.5000 0.08105(16)
O10_32 O 0.83428(15) 0.5000 0.17682(15)
O24_31 O 0.91895(16) 0.42227(16) 0.0000
O25_31 O 0.82318(15) 0.33428(15) 0.0000
O31_16 O 0.97287(8) 0.36897(9) 0.08736(9)
O32_16 O 0.97316(8) 0.33866(9) 0.11675(8)
O34_16 O 0.87550(7) 0.27678(8) 0.08825(8)
O35_16 O 0.87393(8) 0.34443(9) 0.02641(8)
O36_16 O 0.90423(9) 0.37387(9) 0.02684(8)
O37_28 O 1.0000 0.41895(16) 0.07773(16)
O38_28 O 1.0000 0.32318(15) 0.16572(15)
O39_16 O 0.82929(7) 0.23801(7) 0.08069(7)
N3_16 N 0.81002(10) 0.20204(11) 0.06878(12)
C43_16 C 0.94067(11) 0.33785(12) 0.08583(11)
C44_16 C 0.93002(10) 0.31665(11) 0.09626(11)
H27_16 H 0.9380 0.3085 0.1100
C45_16 C 0.90750(11) 0.30713(11) 0.08661(10)
C46_16 C 0.89635(11) 0.31885(11) 0.06610(10)
H28_16 H 0.8813 0.3121 0.0591
C47_16 C 0.90679(11) 0.34019(12) 0.05574(11)
C48_16 C 0.93010(11) 0.35024(12) 0.06512(11)
H29_16 H 0.9379 0.3645 0.0577
C49_16 C 0.96431(12) 0.34872(13) 0.09733(12)
C50_16 C 0.89538(10) 0.28484(10) 0.09856(10)
C51_16 C 0.89412(14) 0.35347(13) 0.03337(11)
C52_16 C 0.82800(12) 0.21484(13) 0.07752(12)
H30_16 H 0.8425 0.2055 0.0823
C53_16 C 0.81061(19) 0.17555(17) 0.0645(2)
H31_16 H 0.8281 0.1696 0.0652
H32_16 H 0.8035 0.1718 0.0479
H33_16 H 0.8007 0.1670 0.0775
C54_16 C 0.78578(16) 0.21336(17) 0.0679(2)
H34_16 H 0.7854 0.2279 0.0792
H35_16 H 0.7731 0.2011 0.0732
H36_16 H 0.7822 0.2189 0.0507
O40_24 O 0.97287(8) 0.13103(9) 0.41264(9)
O41_24 O 0.97316(8) 0.16134(9) 0.38325(8)
O43_24 O 0.87550(7) 0.22322(8) 0.41175(8)
O44_24 O 0.87393(8) 0.15557(9) 0.47359(8)
O45_24 O 0.90423(9) 0.12613(9) 0.47316(8)
O46_24 O 0.82929(7) 0.26199(7) 0.41931(7)
N4_24 N 0.81002(10) 0.29796(11) 0.43122(12)
C55_24 C 0.94067(11) 0.16215(12) 0.41417(11)
C56_24 C 0.93002(10) 0.18335(11) 0.40374(11)
H37_24 H 0.9380 0.1915 0.3900
C57_24 C 0.90750(11) 0.19287(11) 0.41339(10)
C58_24 C 0.89635(11) 0.18115(11) 0.43390(10)
H38_24 H 0.8813 0.1879 0.4409
C59_24 C 0.90679(11) 0.15981(12) 0.44426(11)
C60_24 C 0.93010(11) 0.14976(12) 0.43488(11)
H39_24 H 0.9379 0.1355 0.4423
C61_24 C 0.96431(12) 0.15128(13) 0.40267(12)
C62_24 C 0.89538(10) 0.21516(10) 0.40144(10)
C63_24 C 0.89412(14) 0.14653(13) 0.46663(11)
C64_24 C 0.82800(12) 0.28516(13) 0.42248(12)
H40_24 H 0.8425 0.2945 0.4177
C65_24 C 0.81061(19) 0.32445(17) 0.4355(2)
H41_24 H 0.8281 0.3304 0.4348
H42_24 H 0.8035 0.3282 0.4521
H43_24 H 0.8007 0.3330 0.4225
C66_24 C 0.78578(16) 0.28664(17) 0.4321(2)
H44_24 H 0.7854 0.2721 0.4208
H45_24 H 0.7731 0.2989 0.4268
H46_24 H 0.7822 0.2811 0.4493
O47_24 O 0.52713(8) 0.41264(9) 0.13103(9)
O48_24 O 0.52684(8) 0.38325(8) 0.16134(9)
O50_24 O 0.62450(7) 0.41175(8) 0.22322(8)
O51_24 O 0.62607(8) 0.47359(8) 0.15557(9)
O52_24 O 0.59577(9) 0.47316(8) 0.12613(9)
O53_24 O 0.67071(7) 0.41931(7) 0.26199(7)
N5_24 N 0.68998(10) 0.43122(12) 0.29796(11)
C67_24 C 0.55933(11) 0.41417(11) 0.16215(12)
C68_24 C 0.56998(10) 0.40374(11) 0.18335(11)
H47_24 H 0.5620 0.3900 0.1915
C69_24 C 0.59250(11) 0.41339(10) 0.19287(11)
C70_24 C 0.60365(11) 0.43390(10) 0.18115(11)
H48_24 H 0.6187 0.4409 0.1879
C71_24 C 0.59321(11) 0.44426(11) 0.15981(12)
C72_24 C 0.56990(11) 0.43488(11) 0.14976(12)
H49_24 H 0.5621 0.4423 0.1355
C73_24 C 0.53569(12) 0.40267(12) 0.15128(13)
C74_24 C 0.60462(10) 0.40144(10) 0.21516(10)
C75_24 C 0.60588(14) 0.46663(11) 0.14653(13)
C76_24 C 0.67200(12) 0.42248(12) 0.28516(13)
H50_24 H 0.6575 0.4177 0.2945
C77_24 C 0.68939(19) 0.4355(2) 0.32445(17)
H51_24 H 0.6719 0.4348 0.3304
H52_24 H 0.6965 0.4521 0.3282
H53_24 H 0.6993 0.4225 0.3330
C78_24 C 0.71422(16) 0.4321(2) 0.28664(17)
H54_24 H 0.7146 0.4208 0.2721
H55_24 H 0.7269 0.4268 0.2989
H56_24 H 0.7178 0.4493 0.2811
O54_20 O 0.91264(9) 0.52713(8) 0.13103(9)
O55_20 O 0.88325(8) 0.52684(8) 0.16134(9)
O57_52 O 0.91175(8) 0.62450(7) 0.22322(8)
O60_52 O 0.91931(7) 0.67071(7) 0.26199(7)
N6_52 N 0.93122(12) 0.68998(10) 0.29796(11)
C79_52 C 0.91417(11) 0.55933(11) 0.16215(12)
C80_52 C 0.90374(11) 0.56998(10) 0.18335(11)
H57_52 H 0.8900 0.5620 0.1915
C81_52 C 0.91339(10) 0.59250(11) 0.19287(11)
C82_52 C 0.93390(10) 0.60365(11) 0.18115(11)
H58_52 H 0.9409 0.6187 0.1879
C83_52 C 0.94426(11) 0.59321(11) 0.15981(12)
C84_52 C 0.93488(11) 0.56990(11) 0.14976(12)
H59_52 H 0.9423 0.5621 0.1355
C85_52 C 0.90267(12) 0.53569(12) 0.15128(13)
C86_52 C 0.90144(10) 0.60462(10) 0.21516(10)
C87_52 C 0.96663(11) 0.60588(14) 0.14653(13)
C88_52 C 0.92248(12) 0.67200(12) 0.28516(13)
H60_52 H 0.9177 0.6575 0.2945
C89_52 C 0.9355(2) 0.68939(19) 0.32445(17)
H61_52 H 0.9348 0.6719 0.3304
H62_52 H 0.9521 0.6965 0.3282
H63_52 H 0.9225 0.6993 0.3330
C90_52 C 0.9321(2) 0.71422(16) 0.28664(17)
H64_52 H 0.9208 0.7146 0.2721
H65_52 H 0.9268 0.7269 0.2989
H66_52 H 0.9493 0.7178 0.2811
O72_20 O 0.84443(9) 0.52641(8) 0.12607(8)
O75_20 O 0.87387(9) 0.52684(8) 0.09577(9)
O79_52 O 0.86807(7) 0.65569(8) 0.27507(7)
O84_52 O 0.87420(7) 0.66180(8) 0.22235(8)
O24_32 O 0.91895(16) 0.42227(16) 1.0000
O25_32 O 0.82318(15) 0.33428(15) 1.0000
O61_20 O 0.86897(9) 0.41264(9) 0.97287(8)
O63_20 O 0.83866(9) 0.38325(8) 0.97316(8)
O73_20 O 0.87393(8) 0.34443(9) 0.97359(8)
O76_20 O 0.90423(9) 0.37387(9) 0.97316(8)
Zn12_41 Zn 0.75016(2) 0.39466(2) 0.85511(2)
O56_41 O 0.77558(8) 0.38241(7) 0.90575(8)
O57_53 O 0.77678(8) 0.41175(8) 0.87550(7)
O60_53 O 0.73801(7) 0.41931(7) 0.82929(7)
N6_53 N 0.70204(11) 0.43122(12) 0.81002(10)
C79_53 C 0.83785(12) 0.41417(11) 0.94067(11)
C80_53 C 0.81665(11) 0.40374(11) 0.93002(10)
H57_53 H 0.8085 0.3900 0.9380
C81_53 C 0.80713(11) 0.41339(10) 0.90750(11)
C82_53 C 0.81885(11) 0.43390(10) 0.89635(11)
H58_53 H 0.8121 0.4409 0.8813
C83_53 C 0.84019(12) 0.44426(11) 0.90679(11)
C84_53 C 0.85024(12) 0.43488(11) 0.93010(11)
H59_53 H 0.8645 0.4423 0.9379
C85_53 C 0.84872(13) 0.40267(12) 0.96431(12)
C86_53 C 0.78484(10) 0.40144(10) 0.89538(10)
C87_53 C 0.85347(13) 0.46663(11) 0.89412(14)
C88_53 C 0.71484(13) 0.42248(12) 0.82800(12)
H60_53 H 0.7055 0.4177 0.8425
C89_53 C 0.67555(17) 0.4355(2) 0.81061(19)
H61_53 H 0.6696 0.4348 0.8281
H62_53 H 0.6718 0.4521 0.8035
H63_53 H 0.6670 0.4225 0.8007
C90_53 C 0.71336(17) 0.4321(2) 0.78578(16)
H64_53 H 0.7279 0.4208 0.7854
H65_53 H 0.7011 0.4268 0.7731
H66_53 H 0.7189 0.4493 0.7822
Zn32_41 Zn 0.74984(2) 0.35511(2) 0.89466(2)
O70_41 O 0.72442(8) 0.40575(8) 0.88241(7)
O79_53 O 0.72493(7) 0.36807(7) 0.84431(8)
O84_53 O 0.77765(8) 0.37420(7) 0.83820(8)
Zn12_42 Zn 0.75016(2) 0.60534(2) 0.14489(2)
O56_42 O 0.77558(8) 0.61759(7) 0.09425(8)
O57_54 O 0.77678(8) 0.58825(8) 0.12450(7)
O60_54 O 0.73801(7) 0.58069(7) 0.17071(7)
N6_54 N 0.70204(11) 0.56878(12) 0.18998(10)
C79_54 C 0.83785(12) 0.58583(11) 0.05933(11)
C80_54 C 0.81665(11) 0.59626(11) 0.06998(10)
H57_54 H 0.8085 0.6100 0.0620
C81_54 C 0.80713(11) 0.58661(10) 0.09250(11)
C82_54 C 0.81885(11) 0.56610(10) 0.10365(11)
H58_54 H 0.8121 0.5591 0.1187
C83_54 C 0.84019(12) 0.55574(11) 0.09321(11)
C84_54 C 0.85024(12) 0.56512(11) 0.06990(11)
H59_54 H 0.8645 0.5577 0.0621
C85_54 C 0.84872(13) 0.59733(12) 0.03569(12)
C86_54 C 0.78484(10) 0.59856(10) 0.10462(10)
C87_54 C 0.85347(13) 0.53337(11) 0.10588(14)
C88_54 C 0.71484(13) 0.57752(12) 0.17200(12)
H60_54 H 0.7055 0.5823 0.1575
C89_54 C 0.67555(17) 0.5645(2) 0.18939(19)
H61_54 H 0.6696 0.5652 0.1719
H62_54 H 0.6718 0.5479 0.1965
H63_54 H 0.6670 0.5775 0.1993
C90_54 C 0.71336(17) 0.5679(2) 0.21422(16)
H64_54 H 0.7279 0.5792 0.2146
H65_54 H 0.7011 0.5732 0.2269
H66_54 H 0.7189 0.5507 0.2178
Zn32_42 Zn 0.74984(2) 0.64489(2) 0.10534(2)
O70_42 O 0.72442(8) 0.59425(8) 0.11759(7)
O79_54 O 0.72493(7) 0.63193(7) 0.15569(8)
O84_54 O 0.77765(8) 0.62580(7) 0.16180(8)
Zn12_43 Zn 0.24984(2) 0.60534(2) 0.85511(2)
O56_43 O 0.22442(8) 0.61759(7) 0.90575(8)
O57_55 O 0.22322(8) 0.58825(8) 0.87550(7)
O60_55 O 0.26199(7) 0.58069(7) 0.82929(7)
N6_55 N 0.29796(11) 0.56878(12) 0.81002(10)
C79_55 C 0.16215(12) 0.58583(11) 0.94067(11)
C80_55 C 0.18335(11) 0.59626(11) 0.93002(10)
H57_55 H 0.1915 0.6100 0.9380
C81_55 C 0.19287(11) 0.58661(10) 0.90750(11)
C82_55 C 0.18115(11) 0.56610(10) 0.89635(11)
H58_55 H 0.1879 0.5591 0.8813
C83_55 C 0.15981(12) 0.55574(11) 0.90679(11)
C84_55 C 0.14976(12) 0.56512(11) 0.93010(11)
H59_55 H 0.1355 0.5577 0.9379
C85_55 C 0.15128(13) 0.59733(12) 0.96431(12)
C86_55 C 0.21516(10) 0.59856(10) 0.89538(10)
C87_55 C 0.14653(13) 0.53337(11) 0.89412(14)
C88_55 C 0.28516(13) 0.57752(12) 0.82800(12)
H60_55 H 0.2945 0.5823 0.8425
C89_55 C 0.32445(17) 0.5645(2) 0.81061(19)
H61_55 H 0.3304 0.5652 0.8281
H62_55 H 0.3282 0.5479 0.8035
H63_55 H 0.3330 0.5775 0.8007
C90_55 C 0.28664(17) 0.5679(2) 0.78578(16)
H64_55 H 0.2721 0.5792 0.7854
H65_55 H 0.2989 0.5732 0.7731
H66_55 H 0.2811 0.5507 0.7822
Zn32_43 Zn 0.25016(2) 0.64489(2) 0.89466(2)
O70_43 O 0.27558(8) 0.59425(8) 0.88241(7)
O79_55 O 0.27507(7) 0.63193(7) 0.84431(8)
O84_55 O 0.22235(8) 0.62580(7) 0.83820(8)
Zn12_44 Zn 0.24984(2) 0.39466(2) 0.14489(2)
O56_44 O 0.22442(8) 0.38241(7) 0.09425(8)
O57_56 O 0.22322(8) 0.41175(8) 0.12450(7)
O60_56 O 0.26199(7) 0.41931(7) 0.17071(7)
N6_56 N 0.29796(11) 0.43122(12) 0.18998(10)
C79_56 C 0.16215(12) 0.41417(11) 0.05933(11)
C80_56 C 0.18335(11) 0.40374(11) 0.06998(10)
H57_56 H 0.1915 0.3900 0.0620
C81_56 C 0.19287(11) 0.41339(10) 0.09250(11)
C82_56 C 0.18115(11) 0.43390(10) 0.10365(11)
H58_56 H 0.1879 0.4409 0.1187
C83_56 C 0.15981(12) 0.44426(11) 0.09321(11)
C84_56 C 0.14976(12) 0.43488(11) 0.06990(11)
H59_56 H 0.1355 0.4423 0.0621
C85_56 C 0.15128(13) 0.40267(12) 0.03569(12)
C86_56 C 0.21516(10) 0.40144(10) 0.10462(10)
C87_56 C 0.14653(13) 0.46663(11) 0.10588(14)
C88_56 C 0.28516(13) 0.42248(12) 0.17200(12)
H60_56 H 0.2945 0.4177 0.1575
C89_56 C 0.32445(17) 0.4355(2) 0.18939(19)
H61_56 H 0.3304 0.4348 0.1719
H62_56 H 0.3282 0.4521 0.1965
H63_56 H 0.3330 0.4225 0.1993
C90_56 C 0.28664(17) 0.4321(2) 0.21422(16)
H64_56 H 0.2721 0.4208 0.2146
H65_56 H 0.2989 0.4268 0.2269
H66_56 H 0.2811 0.4493 0.2178
Zn32_44 Zn 0.25016(2) 0.35511(2) 0.10534(2)
O70_44 O 0.27558(8) 0.40575(8) 0.11759(7)
O79_56 O 0.27507(7) 0.36807(7) 0.15569(8)
O84_56 O 0.22235(8) 0.37420(7) 0.16180(8)
O57_57 O 0.87550(7) 0.27678(8) 0.91175(8)
O60_57 O 0.82929(7) 0.23801(7) 0.91931(7)
N6_57 N 0.81002(10) 0.20204(11) 0.93122(12)
C79_57 C 0.94067(11) 0.33785(12) 0.91417(11)
C80_57 C 0.93002(10) 0.31665(11) 0.90374(11)
H57_57 H 0.9380 0.3085 0.8900
C81_57 C 0.90750(11) 0.30713(11) 0.91339(10)
C82_57 C 0.89635(11) 0.31885(11) 0.93390(10)
H58_57 H 0.8813 0.3121 0.9409
C83_57 C 0.90679(11) 0.34019(12) 0.94426(11)
C84_57 C 0.93010(11) 0.35024(12) 0.93488(11)
H59_57 H 0.9379 0.3645 0.9423
C85_57 C 0.96431(12) 0.34872(13) 0.90267(12)
C86_57 C 0.89538(10) 0.28484(10) 0.90144(10)
C87_57 C 0.89412(14) 0.35347(13) 0.96663(11)
C88_57 C 0.82800(12) 0.21484(13) 0.92248(12)
H60_57 H 0.8425 0.2055 0.9177
C89_57 C 0.81061(19) 0.17555(17) 0.9355(2)
H61_57 H 0.8281 0.1696 0.9348
H62_57 H 0.8035 0.1718 0.9521
H63_57 H 0.8007 0.1670 0.9225
C90_57 C 0.78578(16) 0.21336(17) 0.9321(2)
H64_57 H 0.7854 0.2279 0.9208
H65_57 H 0.7731 0.2011 0.9268
H66_57 H 0.7822 0.2189 0.9493
O79_57 O 0.84431(8) 0.22493(7) 0.86807(7)
O84_57 O 0.83820(8) 0.27765(8) 0.87420(7)
O57_58 O 0.12450(7) 0.27678(8) 0.08825(8)
O60_58 O 0.17071(7) 0.23801(7) 0.08069(7)
N6_58 N 0.18998(10) 0.20204(11) 0.06878(12)
C79_58 C 0.05933(11) 0.33785(12) 0.08583(11)
C80_58 C 0.06998(10) 0.31665(11) 0.09626(11)
H57_58 H 0.0620 0.3085 0.1100
C81_58 C 0.09250(11) 0.30713(11) 0.08661(10)
C82_58 C 0.10365(11) 0.31885(11) 0.06610(10)
H58_58 H 0.1187 0.3121 0.0591
C83_58 C 0.09321(11) 0.34019(12) 0.05574(11)
C84_58 C 0.06990(11) 0.35024(12) 0.06512(11)
H59_58 H 0.0621 0.3645 0.0577
C85_58 C 0.03569(12) 0.34872(13) 0.09733(12)
C86_58 C 0.10462(10) 0.28484(10) 0.09856(10)
C87_58 C 0.10588(14) 0.35347(13) 0.03337(11)
C88_58 C 0.17200(12) 0.21484(13) 0.07752(12)
H60_58 H 0.1575 0.2055 0.0823
C89_58 C 0.18939(19) 0.17555(17) 0.0645(2)
H61_58 H 0.1719 0.1696 0.0652
H62_58 H 0.1965 0.1718 0.0479
H63_58 H 0.1993 0.1670 0.0775
C90_58 C 0.21422(16) 0.21336(17) 0.0679(2)
H64_58 H 0.2146 0.2279 0.0792
H65_58 H 0.2269 0.2011 0.0732
H66_58 H 0.2178 0.2189 0.0507
O79_58 O 0.15569(8) 0.22493(7) 0.13193(7)
O84_58 O 0.16180(8) 0.27765(8) 0.12580(7)
O57_59 O 0.87550(7) 0.72322(8) 0.08825(8)
O60_59 O 0.82929(7) 0.76199(7) 0.08069(7)
N6_59 N 0.81002(10) 0.79796(11) 0.06878(12)
C79_59 C 0.94067(11) 0.66215(12) 0.08583(11)
C80_59 C 0.93002(10) 0.68335(11) 0.09626(11)
H57_59 H 0.9380 0.6915 0.1100
C81_59 C 0.90750(11) 0.69287(11) 0.08661(10)
C82_59 C 0.89635(11) 0.68115(11) 0.06610(10)
H58_59 H 0.8813 0.6879 0.0591
C83_59 C 0.90679(11) 0.65981(12) 0.05574(11)
C84_59 C 0.93010(11) 0.64976(12) 0.06512(11)
H59_59 H 0.9379 0.6355 0.0577
C85_59 C 0.96431(12) 0.65128(13) 0.09733(12)
C86_59 C 0.89538(10) 0.71516(10) 0.09856(10)
C87_59 C 0.89412(14) 0.64653(13) 0.03337(11)
C88_59 C 0.82800(12) 0.78516(13) 0.07752(12)
H60_59 H 0.8425 0.7945 0.0823
C89_59 C 0.81061(19) 0.82445(17) 0.0645(2)
H61_59 H 0.8281 0.8304 0.0652
H62_59 H 0.8035 0.8282 0.0479
H63_59 H 0.8007 0.8330 0.0775
C90_59 C 0.78578(16) 0.78664(17) 0.0679(2)
H64_59 H 0.7854 0.7721 0.0792
H65_59 H 0.7731 0.7989 0.0732
H66_59 H 0.7822 0.7811 0.0507
O79_59 O 0.84431(8) 0.77507(7) 0.13193(7)
O84_59 O 0.83820(8) 0.72235(8) 0.12580(7)
O57_60 O 0.12450(7) 0.72322(8) 0.91175(8)
O60_60 O 0.17071(7) 0.76199(7) 0.91931(7)
N6_60 N 0.18998(10) 0.79796(11) 0.93122(12)
C79_60 C 0.05933(11) 0.66215(12) 0.91417(11)
C80_60 C 0.06998(10) 0.68335(11) 0.90374(11)
H57_60 H 0.0620 0.6915 0.8900
C81_60 C 0.09250(11) 0.69287(11) 0.91339(10)
C82_60 C 0.10365(11) 0.68115(11) 0.93390(10)
H58_60 H 0.1187 0.6879 0.9409
C83_60 C 0.09321(11) 0.65981(12) 0.94426(11)
C84_60 C 0.06990(11) 0.64976(12) 0.93488(11)
H59_60 H 0.0621 0.6355 0.9423
C85_60 C 0.03569(12) 0.65128(13) 0.90267(12)
C86_60 C 0.10462(10) 0.71516(10) 0.90144(10)
C87_60 C 0.10588(14) 0.64653(13) 0.96663(11)
C88_60 C 0.17200(12) 0.78516(13) 0.92248(12)
H60_60 H 0.1575 0.7945 0.9177
C89_60 C 0.18939(19) 0.82445(17) 0.9355(2)
H61_60 H 0.1719 0.8304 0.9348
H62_60 H 0.1965 0.8282 0.9521
H63_60 H 0.1993 0.8330 0.9225
C90_60 C 0.21422(16) 0.78664(17) 0.9321(2)
H64_60 H 0.2146 0.7721 0.9208
H65_60 H 0.2269 0.7989 0.9268
H66_60 H 0.2178 0.7811 0.9493
O79_60 O 0.15569(8) 0.77507(7) 0.86807(7)
O84_60 O 0.16180(8) 0.72235(8) 0.87420(7)
O37_29 O 0.58105(16) 0.0000 0.57773(16)
O38_29 O 0.67682(15) 0.0000 0.66572(15)
O62_21 O 0.63103(9) 0.02713(8) 0.58736(9)
O64_21 O 0.66134(9) 0.02684(8) 0.61675(8)
O71_11 O 0.62607(8) 0.02641(8) 0.65557(9)
O74_11 O 0.59577(9) 0.02684(8) 0.62613(9)
O1_13 O 0.52713(8) 0.91264(9) 0.63103(9)
O2_13 O 0.52684(8) 0.88325(8) 0.66134(9)
O4_13 O 0.62450(7) 0.91175(8) 0.72322(8)
O5_13 O 0.62607(8) 0.97359(8) 0.65557(9)
O6_13 O 0.59577(9) 0.97316(8) 0.62613(9)
O9_33 O 0.5000 0.92227(16) 0.58105(16)
O10_33 O 0.5000 0.83428(15) 0.67682(15)
O11_13 O 0.67071(7) 0.91931(7) 0.76199(7)
N1_13 N 0.68998(10) 0.93122(12) 0.79796(11)
C1_13 C 0.55933(11) 0.91417(11) 0.66215(12)
C2_13 C 0.56998(10) 0.90374(11) 0.68335(11)
H1_13 H 0.5620 0.8900 0.6915
C3_13 C 0.59250(11) 0.91339(10) 0.69287(11)
C4_13 C 0.60365(11) 0.93390(10) 0.68115(11)
H2_13 H 0.6187 0.9409 0.6879
C5_13 C 0.59321(11) 0.94426(11) 0.65981(12)
C6_13 C 0.56990(11) 0.93488(11) 0.64976(12)
H3_13 H 0.5621 0.9423 0.6355
C7_13 C 0.53569(12) 0.90267(12) 0.65128(13)
C8_13 C 0.60462(10) 0.90144(10) 0.71516(10)
C9_13 C 0.60588(14) 0.96663(11) 0.64653(13)
C13_13 C 0.67200(12) 0.92248(12) 0.78516(13)
H5_13 H 0.6575 0.9177 0.7945
C14_13 C 0.68939(19) 0.9355(2) 0.82445(17)
H6_13 H 0.6719 0.9348 0.8304
H7_13 H 0.6965 0.9521 0.8282
H8_13 H 0.6993 0.9225 0.8330
C15_13 C 0.71422(16) 0.9321(2) 0.78664(17)
H9_13 H 0.7146 0.9208 0.7721
H10_13 H 0.7269 0.9268 0.7989
H11_13 H 0.7178 0.9493 0.7811
O24_33 O 0.57773(16) 0.91895(16) 0.5000
O25_33 O 0.66572(15) 0.82318(15) 0.5000
O37_30 O 0.58105(16) 1.0000 0.57773(16)
O38_30 O 0.67682(15) 1.0000 0.66572(15)
O54_21 O 0.47287(8) 0.91264(9) 0.63103(9)
O55_21 O 0.47316(8) 0.88325(8) 0.66134(9)
O57_61 O 0.37550(7) 0.91175(8) 0.72322(8)
O58_11 O 0.37393(8) 0.97359(8) 0.65557(9)
O59_11 O 0.40423(9) 0.97316(8) 0.62613(9)
O60_61 O 0.32929(7) 0.91931(7) 0.76199(7)
N6_61 N 0.31002(10) 0.93122(12) 0.79796(11)
C79_61 C 0.44067(11) 0.91417(11) 0.66215(12)
C80_61 C 0.43002(10) 0.90374(11) 0.68335(11)
H57_61 H 0.4380 0.8900 0.6915
C81_61 C 0.40750(11) 0.91339(10) 0.69287(11)
C82_61 C 0.39635(11) 0.93390(10) 0.68115(11)
H58_61 H 0.3813 0.9409 0.6879
C83_61 C 0.40679(11) 0.94426(11) 0.65981(12)
C84_61 C 0.43010(11) 0.93488(11) 0.64976(12)
H59_61 H 0.4379 0.9423 0.6355
C85_61 C 0.46431(12) 0.90267(12) 0.65128(13)
C86_61 C 0.39538(10) 0.90144(10) 0.71516(10)
C87_61 C 0.39412(14) 0.96663(11) 0.64653(13)
C88_61 C 0.32800(12) 0.92248(12) 0.78516(13)
H60_61 H 0.3425 0.9177 0.7945
C89_61 C 0.31061(19) 0.9355(2) 0.82445(17)
H61_61 H 0.3281 0.9348 0.8304
H62_61 H 0.3035 0.9521 0.8282
H63_61 H 0.3007 0.9225 0.8330
C90_61 C 0.28578(16) 0.9321(2) 0.78664(17)
H64_61 H 0.2854 0.9208 0.7721
H65_61 H 0.2731 0.9268 0.7989
H66_61 H 0.2822 0.9493 0.7811
O61_21 O 0.58736(9) 0.86897(9) 0.47287(8)
O63_21 O 0.61675(8) 0.83866(9) 0.47316(8)
O72_21 O 0.47359(8) 0.84443(9) 0.62607(8)
O73_21 O 0.65557(9) 0.87393(8) 0.47359(8)
O75_21 O 0.47316(8) 0.87387(9) 0.59577(9)
O76_21 O 0.62613(9) 0.90423(9) 0.47316(8)
O79_61 O 0.34431(8) 0.86807(7) 0.77507(7)
O84_61 O 0.33820(8) 0.87420(7) 0.72235(8)
O1_14 O 0.47287(8) 0.08736(9) 0.63103(9)
O2_14 O 0.47316(8) 0.11675(8) 0.66134(9)
O4_14 O 0.37550(7) 0.08825(8) 0.72322(8)
O5_14 O 0.37393(8) 0.02641(8) 0.65557(9)
O6_14 O 0.40423(9) 0.02684(8) 0.62613(9)
O9_34 O 0.5000 0.07773(16) 0.58105(16)
O10_34 O 0.5000 0.16572(15) 0.67682(15)
O11_14 O 0.32929(7) 0.08069(7) 0.76199(7)
N1_14 N 0.31002(10) 0.06878(12) 0.79796(11)
C1_14 C 0.44067(11) 0.08583(11) 0.66215(12)
C2_14 C 0.43002(10) 0.09626(11) 0.68335(11)
H1_14 H 0.4380 0.1100 0.6915
C3_14 C 0.40750(11) 0.08661(10) 0.69287(11)
C4_14 C 0.39635(11) 0.06610(10) 0.68115(11)
H2_14 H 0.3813 0.0591 0.6879
C5_14 C 0.40679(11) 0.05574(11) 0.65981(12)
C6_14 C 0.43010(11) 0.06512(11) 0.64976(12)
H3_14 H 0.4379 0.0577 0.6355
C7_14 C 0.46431(12) 0.09733(12) 0.65128(13)
C8_14 C 0.39538(10) 0.09856(10) 0.71516(10)
C9_14 C 0.39412(14) 0.03337(11) 0.64653(13)
C13_14 C 0.32800(12) 0.07752(12) 0.78516(13)
H5_14 H 0.3425 0.0823 0.7945
C14_14 C 0.31061(19) 0.0645(2) 0.82445(17)
H6_14 H 0.3281 0.0652 0.8304
H7_14 H 0.3035 0.0479 0.8282
H8_14 H 0.3007 0.0775 0.8330
C15_14 C 0.28578(16) 0.0679(2) 0.78664(17)
H9_14 H 0.2854 0.0792 0.7721
H10_14 H 0.2731 0.0732 0.7989
H11_14 H 0.2822 0.0507 0.7811
O24_34 O 0.42227(16) 0.08105(16) 0.5000
O25_34 O 0.33428(15) 0.17682(15) 0.5000
O37_31 O 0.41895(16) -0.0000 0.57773(16)
O38_31 O 0.32318(15) -0.0000 0.66572(15)
O54_22 O 0.52713(8) 0.08736(9) 0.63103(9)
O55_22 O 0.52684(8) 0.11675(8) 0.66134(9)
O57_62 O 0.62450(7) 0.08825(8) 0.72322(8)
O60_62 O 0.67071(7) 0.08069(7) 0.76199(7)
N6_62 N 0.68998(10) 0.06878(12) 0.79796(11)
C79_62 C 0.55933(11) 0.08583(11) 0.66215(12)
C80_62 C 0.56998(10) 0.09626(11) 0.68335(11)
H57_62 H 0.5620 0.1100 0.6915
C81_62 C 0.59250(11) 0.08661(10) 0.69287(11)
C82_62 C 0.60365(11) 0.06610(10) 0.68115(11)
H58_62 H 0.6187 0.0591 0.6879
C83_62 C 0.59321(11) 0.05574(11) 0.65981(12)
C84_62 C 0.56990(11) 0.06512(11) 0.64976(12)
H59_62 H 0.5621 0.0577 0.6355
C85_62 C 0.53569(12) 0.09733(12) 0.65128(13)
C86_62 C 0.60462(10) 0.09856(10) 0.71516(10)
C87_62 C 0.60588(14) 0.03337(11) 0.64653(13)
C88_62 C 0.67200(12) 0.07752(12) 0.78516(13)
H60_62 H 0.6575 0.0823 0.7945
C89_62 C 0.68939(19) 0.0645(2) 0.82445(17)
H61_62 H 0.6719 0.0652 0.8304
H62_62 H 0.6965 0.0479 0.8282
H63_62 H 0.6993 0.0775 0.8330
C90_62 C 0.71422(16) 0.0679(2) 0.78664(17)
H64_62 H 0.7146 0.0792 0.7721
H65_62 H 0.7269 0.0732 0.7989
H66_62 H 0.7178 0.0507 0.7811
O61_22 O 0.41264(9) 0.13103(9) 0.47287(8)
O63_22 O 0.38325(8) 0.16134(9) 0.47316(8)
O72_22 O 0.52641(8) 0.15557(9) 0.62607(8)
O73_22 O 0.34443(9) 0.12607(8) 0.47359(8)
O75_22 O 0.52684(8) 0.12613(9) 0.59577(9)
O76_22 O 0.37387(9) 0.09577(9) 0.47316(8)
O79_62 O 0.65569(8) 0.13193(7) 0.77507(7)
O84_62 O 0.66180(8) 0.12580(7) 0.72235(8)
O37_32 O 0.41895(16) 1.0000 0.57773(16)
O38_32 O 0.32318(15) 1.0000 0.66572(15)
O62_22 O 0.36897(9) 0.97287(8) 0.58736(9)
O64_22 O 0.33866(9) 0.97316(8) 0.61675(8)
O1_15 O 0.52713(8) 0.08736(9) 0.36897(9)
O2_15 O 0.52684(8) 0.11675(8) 0.33866(9)
O4_15 O 0.62450(7) 0.08825(8) 0.27678(8)
O5_15 O 0.62607(8) 0.02641(8) 0.34443(9)
O6_15 O 0.59577(9) 0.02684(8) 0.37387(9)
O9_35 O 0.5000 0.07773(16) 0.41895(16)
O10_35 O 0.5000 0.16572(15) 0.32318(15)
O11_15 O 0.67071(7) 0.08069(7) 0.23801(7)
N1_15 N 0.68998(10) 0.06878(12) 0.20204(11)
C1_15 C 0.55933(11) 0.08583(11) 0.33785(12)
C2_15 C 0.56998(10) 0.09626(11) 0.31665(11)
H1_15 H 0.5620 0.1100 0.3085
C3_15 C 0.59250(11) 0.08661(10) 0.30713(11)
C4_15 C 0.60365(11) 0.06610(10) 0.31885(11)
H2_15 H 0.6187 0.0591 0.3121
C5_15 C 0.59321(11) 0.05574(11) 0.34019(12)
C6_15 C 0.56990(11) 0.06512(11) 0.35024(12)
H3_15 H 0.5621 0.0577 0.3645
C7_15 C 0.53569(12) 0.09733(12) 0.34872(13)
C8_15 C 0.60462(10) 0.09856(10) 0.28484(10)
C9_15 C 0.60588(14) 0.03337(11) 0.35347(13)
C13_15 C 0.67200(12) 0.07752(12) 0.21484(13)
H5_15 H 0.6575 0.0823 0.2055
C14_15 C 0.68939(19) 0.0645(2) 0.17555(17)
H6_15 H 0.6719 0.0652 0.1696
H7_15 H 0.6965 0.0479 0.1718
H8_15 H 0.6993 0.0775 0.1670
C15_15 C 0.71422(16) 0.0679(2) 0.21336(17)
H9_15 H 0.7146 0.0792 0.2279
H10_15 H 0.7269 0.0732 0.2011
H11_15 H 0.7178 0.0507 0.2189
O24_35 O 0.57773(16) 0.08105(16) 0.5000
O25_35 O 0.66572(15) 0.17682(15) 0.5000
O37_33 O 0.58105(16) -0.0000 0.42227(16)
O38_33 O 0.67682(15) -0.0000 0.33428(15)
O54_23 O 0.47287(8) 0.08736(9) 0.36897(9)
O55_23 O 0.47316(8) 0.11675(8) 0.33866(9)
O57_63 O 0.37550(7) 0.08825(8) 0.27678(8)
O58_12 O 0.37393(8) 0.02641(8) 0.34443(9)
O59_12 O 0.40423(9) 0.02684(8) 0.37387(9)
O60_63 O 0.32929(7) 0.08069(7) 0.23801(7)
N6_63 N 0.31002(10) 0.06878(12) 0.20204(11)
C79_63 C 0.44067(11) 0.08583(11) 0.33785(12)
C80_63 C 0.43002(10) 0.09626(11) 0.31665(11)
H57_63 H 0.4380 0.1100 0.3085
C81_63 C 0.40750(11) 0.08661(10) 0.30713(11)
C82_63 C 0.39635(11) 0.06610(10) 0.31885(11)
H58_63 H 0.3813 0.0591 0.3121
C83_63 C 0.40679(11) 0.05574(11) 0.34019(12)
C84_63 C 0.43010(11) 0.06512(11) 0.35024(12)
H59_63 H 0.4379 0.0577 0.3645
C85_63 C 0.46431(12) 0.09733(12) 0.34872(13)
C86_63 C 0.39538(10) 0.09856(10) 0.28484(10)
C87_63 C 0.39412(14) 0.03337(11) 0.35347(13)
C88_63 C 0.32800(12) 0.07752(12) 0.21484(13)
H60_63 H 0.3425 0.0823 0.2055
C89_63 C 0.31061(19) 0.0645(2) 0.17555(17)
H61_63 H 0.3281 0.0652 0.1696
H62_63 H 0.3035 0.0479 0.1718
H63_63 H 0.3007 0.0775 0.1670
C90_63 C 0.28578(16) 0.0679(2) 0.21336(17)
H64_63 H 0.2854 0.0792 0.2279
H65_63 H 0.2731 0.0732 0.2011
H66_63 H 0.2822 0.0507 0.2189
O61_23 O 0.58736(9) 0.13103(9) 0.52713(8)
O63_23 O 0.61675(8) 0.16134(9) 0.52684(8)
O72_23 O 0.47359(8) 0.15557(9) 0.37393(8)
O73_23 O 0.65557(9) 0.12607(8) 0.52641(8)
O75_23 O 0.47316(8) 0.12613(9) 0.40423(9)
O76_23 O 0.62613(9) 0.09577(9) 0.52684(8)
O79_63 O 0.34431(8) 0.13193(7) 0.22493(7)
O84_63 O 0.33820(8) 0.12580(7) 0.27765(8)
O37_34 O 0.58105(16) 1.0000 0.42227(16)
O38_34 O 0.67682(15) 1.0000 0.33428(15)
O62_23 O 0.63103(9) 0.97287(8) 0.41264(9)
O64_23 O 0.66134(9) 0.97316(8) 0.38325(8)
O71_12 O 0.62607(8) 0.97359(8) 0.34443(9)
O74_12 O 0.59577(9) 0.97316(8) 0.37387(9)
O37_35 O 0.41895(16) 0.0000 0.42227(16)
O38_35 O 0.32318(15) 0.0000 0.33428(15)
O62_24 O 0.36897(9) 0.02713(8) 0.41264(9)
O64_24 O 0.33866(9) 0.02684(8) 0.38325(8)
O1_16 O 0.47287(8) 0.91264(9) 0.36897(9)
O2_16 O 0.47316(8) 0.88325(8) 0.33866(9)
O4_16 O 0.37550(7) 0.91175(8) 0.27678(8)
O5_16 O 0.37393(8) 0.97359(8) 0.34443(9)
O6_16 O 0.40423(9) 0.97316(8) 0.37387(9)
O9_36 O 0.5000 0.92227(16) 0.41895(16)
O10_36 O 0.5000 0.83428(15) 0.32318(15)
O11_16 O 0.32929(7) 0.91931(7) 0.23801(7)
N1_16 N 0.31002(10) 0.93122(12) 0.20204(11)
C1_16 C 0.44067(11) 0.91417(11) 0.33785(12)
C2_16 C 0.43002(10) 0.90374(11) 0.31665(11)
H1_16 H 0.4380 0.8900 0.3085
C3_16 C 0.40750(11) 0.91339(10) 0.30713(11)
C4_16 C 0.39635(11) 0.93390(10) 0.31885(11)
H2_16 H 0.3813 0.9409 0.3121
C5_16 C 0.40679(11) 0.94426(11) 0.34019(12)
C6_16 C 0.43010(11) 0.93488(11) 0.35024(12)
H3_16 H 0.4379 0.9423 0.3645
C7_16 C 0.46431(12) 0.90267(12) 0.34872(13)
C8_16 C 0.39538(10) 0.90144(10) 0.28484(10)
C9_16 C 0.39412(14) 0.96663(11) 0.35347(13)
C13_16 C 0.32800(12) 0.92248(12) 0.21484(13)
H5_16 H 0.3425 0.9177 0.2055
C14_16 C 0.31061(19) 0.9355(2) 0.17555(17)
H6_16 H 0.3281 0.9348 0.1696
H7_16 H 0.3035 0.9521 0.1718
H8_16 H 0.3007 0.9225 0.1670
C15_16 C 0.28578(16) 0.9321(2) 0.21336(17)
H9_16 H 0.2854 0.9208 0.2279
H10_16 H 0.2731 0.9268 0.2011
H11_16 H 0.2822 0.9493 0.2189
O24_36 O 0.42227(16) 0.91895(16) 0.5000
O25_36 O 0.33428(15) 0.82318(15) 0.5000
O37_36 O 0.41895(16) 1.0000 0.42227(16)
O38_36 O 0.32318(15) 1.0000 0.33428(15)
O54_24 O 0.52713(8) 0.91264(9) 0.36897(9)
O55_24 O 0.52684(8) 0.88325(8) 0.33866(9)
O57_64 O 0.62450(7) 0.91175(8) 0.27678(8)
O60_64 O 0.67071(7) 0.91931(7) 0.23801(7)
N6_64 N 0.68998(10) 0.93122(12) 0.20204(11)
C79_64 C 0.55933(11) 0.91417(11) 0.33785(12)
C80_64 C 0.56998(10) 0.90374(11) 0.31665(11)
H57_64 H 0.5620 0.8900 0.3085
C81_64 C 0.59250(11) 0.91339(10) 0.30713(11)
C82_64 C 0.60365(11) 0.93390(10) 0.31885(11)
H58_64 H 0.6187 0.9409 0.3121
C83_64 C 0.59321(11) 0.94426(11) 0.34019(12)
C84_64 C 0.56990(11) 0.93488(11) 0.35024(12)
H59_64 H 0.5621 0.9423 0.3645
C85_64 C 0.53569(12) 0.90267(12) 0.34872(13)
C86_64 C 0.60462(10) 0.90144(10) 0.28484(10)
C87_64 C 0.60588(14) 0.96663(11) 0.35347(13)
C88_64 C 0.67200(12) 0.92248(12) 0.21484(13)
H60_64 H 0.6575 0.9177 0.2055
C89_64 C 0.68939(19) 0.9355(2) 0.17555(17)
H61_64 H 0.6719 0.9348 0.1696
H62_64 H 0.6965 0.9521 0.1718
H63_64 H 0.6993 0.9225 0.1670
C90_64 C 0.71422(16) 0.9321(2) 0.21336(17)
H64_64 H 0.7146 0.9208 0.2279
H65_64 H 0.7269 0.9268 0.2011
H66_64 H 0.7178 0.9493 0.2189
O61_24 O 0.41264(9) 0.86897(9) 0.52713(8)
O63_24 O 0.38325(8) 0.83866(9) 0.52684(8)
O72_24 O 0.52641(8) 0.84443(9) 0.37393(8)
O73_24 O 0.34443(9) 0.87393(8) 0.52641(8)
O75_24 O 0.52684(8) 0.87387(9) 0.40423(9)
O76_24 O 0.37387(9) 0.90423(9) 0.52684(8)
O79_64 O 0.65569(8) 0.86807(7) 0.22493(7)
O84_64 O 0.66180(8) 0.87420(7) 0.27765(8)
O57_65 O 0.41175(8) 0.77678(8) 0.62450(7)
O60_65 O 0.41931(7) 0.73801(7) 0.67071(7)
N6_65 N 0.43122(12) 0.70204(11) 0.68998(10)
C79_65 C 0.41417(11) 0.83785(12) 0.55933(11)
C80_65 C 0.40374(11) 0.81665(11) 0.56998(10)
H57_65 H 0.3900 0.8085 0.5620
C81_65 C 0.41339(10) 0.80713(11) 0.59250(11)
C82_65 C 0.43390(10) 0.81885(11) 0.60365(11)
H58_65 H 0.4409 0.8121 0.6187
C83_65 C 0.44426(11) 0.84019(12) 0.59321(11)
C84_65 C 0.43488(11) 0.85024(12) 0.56990(11)
H59_65 H 0.4423 0.8645 0.5621
C85_65 C 0.40267(12) 0.84872(13) 0.53569(12)
C86_65 C 0.40144(10) 0.78484(10) 0.60462(10)
C87_65 C 0.46663(11) 0.85347(13) 0.60588(14)
C88_65 C 0.42248(12) 0.71484(13) 0.67200(12)
H60_65 H 0.4177 0.7055 0.6575
C89_65 C 0.4355(2) 0.67555(17) 0.68939(19)
H61_65 H 0.4348 0.6696 0.6719
H62_65 H 0.4521 0.6718 0.6965
H63_65 H 0.4225 0.6670 0.6993
C90_65 C 0.4321(2) 0.71336(17) 0.71422(16)
H64_65 H 0.4208 0.7279 0.7146
H65_65 H 0.4268 0.7011 0.7269
H66_65 H 0.4493 0.7189 0.7178
O79_65 O 0.36807(7) 0.72493(7) 0.65569(8)
O84_65 O 0.37420(7) 0.77765(8) 0.66180(8)
O57_66 O 0.58825(8) 0.77678(8) 0.37550(7)
O60_66 O 0.58069(7) 0.73801(7) 0.32929(7)
N6_66 N 0.56878(12) 0.70204(11) 0.31002(10)
C79_66 C 0.58583(11) 0.83785(12) 0.44067(11)
C80_66 C 0.59626(11) 0.81665(11) 0.43002(10)
H57_66 H 0.6100 0.8085 0.4380
C81_66 C 0.58661(10) 0.80713(11) 0.40750(11)
C82_66 C 0.56610(10) 0.81885(11) 0.39635(11)
H58_66 H 0.5591 0.8121 0.3813
C83_66 C 0.55574(11) 0.84019(12) 0.40679(11)
C84_66 C 0.56512(11) 0.85024(12) 0.43010(11)
H59_66 H 0.5577 0.8645 0.4379
C85_66 C 0.59733(12) 0.84872(13) 0.46431(12)
C86_66 C 0.59856(10) 0.78484(10) 0.39538(10)
C87_66 C 0.53337(11) 0.85347(13) 0.39412(14)
C88_66 C 0.57752(12) 0.71484(13) 0.32800(12)
H60_66 H 0.5823 0.7055 0.3425
C89_66 C 0.5645(2) 0.67555(17) 0.31061(19)
H61_66 H 0.5652 0.6696 0.3281
H62_66 H 0.5479 0.6718 0.3035
H63_66 H 0.5775 0.6670 0.3007
C90_66 C 0.5679(2) 0.71336(17) 0.28578(16)
H64_66 H 0.5792 0.7279 0.2854
H65_66 H 0.5732 0.7011 0.2731
H66_66 H 0.5507 0.7189 0.2822
O79_66 O 0.63193(7) 0.72493(7) 0.34431(8)
O84_66 O 0.62580(7) 0.77765(8) 0.33820(8)
O57_67 O 0.58825(8) 0.22322(8) 0.62450(7)
O60_67 O 0.58069(7) 0.26199(7) 0.67071(7)
N6_67 N 0.56878(12) 0.29796(11) 0.68998(10)
C79_67 C 0.58583(11) 0.16215(12) 0.55933(11)
C80_67 C 0.59626(11) 0.18335(11) 0.56998(10)
H57_67 H 0.6100 0.1915 0.5620
C81_67 C 0.58661(10) 0.19287(11) 0.59250(11)
C82_67 C 0.56610(10) 0.18115(11) 0.60365(11)
H58_67 H 0.5591 0.1879 0.6187
C83_67 C 0.55574(11) 0.15981(12) 0.59321(11)
C84_67 C 0.56512(11) 0.14976(12) 0.56990(11)
H59_67 H 0.5577 0.1355 0.5621
C85_67 C 0.59733(12) 0.15128(13) 0.53569(12)
C86_67 C 0.59856(10) 0.21516(10) 0.60462(10)
C87_67 C 0.53337(11) 0.14653(13) 0.60588(14)
C88_67 C 0.57752(12) 0.28516(13) 0.67200(12)
H60_67 H 0.5823 0.2945 0.6575
C89_67 C 0.5645(2) 0.32445(17) 0.68939(19)
H61_67 H 0.5652 0.3304 0.6719
H62_67 H 0.5479 0.3282 0.6965
H63_67 H 0.5775 0.3330 0.6993
C90_67 C 0.5679(2) 0.28664(17) 0.71422(16)
H64_67 H 0.5792 0.2721 0.7146
H65_67 H 0.5732 0.2989 0.7269
H66_67 H 0.5507 0.2811 0.7178
O79_67 O 0.63193(7) 0.27507(7) 0.65569(8)
O84_67 O 0.62580(7) 0.22235(8) 0.66180(8)
O57_68 O 0.41175(8) 0.22322(8) 0.37550(7)
O60_68 O 0.41931(7) 0.26199(7) 0.32929(7)
N6_68 N 0.43122(12) 0.29796(11) 0.31002(10)
C79_68 C 0.41417(11) 0.16215(12) 0.44067(11)
C80_68 C 0.40374(11) 0.18335(11) 0.43002(10)
H57_68 H 0.3900 0.1915 0.4380
C81_68 C 0.41339(10) 0.19287(11) 0.40750(11)
C82_68 C 0.43390(10) 0.18115(11) 0.39635(11)
H58_68 H 0.4409 0.1879 0.3813
C83_68 C 0.44426(11) 0.15981(12) 0.40679(11)
C84_68 C 0.43488(11) 0.14976(12) 0.43010(11)
H59_68 H 0.4423 0.1355 0.4379
C85_68 C 0.40267(12) 0.15128(13) 0.46431(12)
C86_68 C 0.40144(10) 0.21516(10) 0.39538(10)
C87_68 C 0.46663(11) 0.14653(13) 0.39412(14)
C88_68 C 0.42248(12) 0.28516(13) 0.32800(12)
H60_68 H 0.4177 0.2945 0.3425
C89_68 C 0.4355(2) 0.32445(17) 0.31061(19)
H61_68 H 0.4348 0.3304 0.3281
H62_68 H 0.4521 0.3282 0.3035
H63_68 H 0.4225 0.3330 0.3007
C90_68 C 0.4321(2) 0.28664(17) 0.28578(16)
H64_68 H 0.4208 0.2721 0.2854
H65_68 H 0.4268 0.2989 0.2731
H66_68 H 0.4493 0.2811 0.2822
O79_68 O 0.36807(7) 0.27507(7) 0.34431(8)
O84_68 O 0.37420(7) 0.22235(8) 0.33820(8)
Zn12_45 Zn 0.25016(2) 0.85511(2) 0.60534(2)
O56_45 O 0.27558(8) 0.90575(8) 0.61759(7)
O57_69 O 0.27678(8) 0.87550(7) 0.58825(8)
O60_69 O 0.23801(7) 0.82929(7) 0.58069(7)
N6_69 N 0.20204(11) 0.81002(10) 0.56878(12)
C79_69 C 0.33785(12) 0.94067(11) 0.58583(11)
C80_69 C 0.31665(11) 0.93002(10) 0.59626(11)
H57_69 H 0.3085 0.9380 0.6100
C81_69 C 0.30713(11) 0.90750(11) 0.58661(10)
C82_69 C 0.31885(11) 0.89635(11) 0.56610(10)
H58_69 H 0.3121 0.8813 0.5591
C83_69 C 0.34019(12) 0.90679(11) 0.55574(11)
C84_69 C 0.35024(12) 0.93010(11) 0.56512(11)
H59_69 H 0.3645 0.9379 0.5577
C85_69 C 0.34872(13) 0.96431(12) 0.59733(12)
C86_69 C 0.28484(10) 0.89538(10) 0.59856(10)
C87_69 C 0.35347(13) 0.89412(14) 0.53337(11)
C88_69 C 0.21484(13) 0.82800(12) 0.57752(12)
H60_69 H 0.2055 0.8425 0.5823
C89_69 C 0.17555(17) 0.81061(19) 0.5645(2)
H61_69 H 0.1696 0.8281 0.5652
H62_69 H 0.1718 0.8035 0.5479
H63_69 H 0.1670 0.8007 0.5775
C90_69 C 0.21336(17) 0.78578(16) 0.5679(2)
H64_69 H 0.2279 0.7854 0.5792
H65_69 H 0.2011 0.7731 0.5732
H66_69 H 0.2189 0.7822 0.5507
Zn32_45 Zn 0.24984(2) 0.89466(2) 0.64489(2)
O70_45 O 0.22442(8) 0.88241(7) 0.59425(8)
O79_69 O 0.22493(7) 0.84431(8) 0.63193(7)
O84_69 O 0.27765(8) 0.83820(8) 0.62580(7)
Zn12_46 Zn 0.25016(2) 0.14489(2) 0.39466(2)
O56_46 O 0.27558(8) 0.09425(8) 0.38241(7)
O57_70 O 0.27678(8) 0.12450(7) 0.41175(8)
O60_70 O 0.23801(7) 0.17071(7) 0.41931(7)
N6_70 N 0.20204(11) 0.18998(10) 0.43122(12)
C79_70 C 0.33785(12) 0.05933(11) 0.41417(11)
C80_70 C 0.31665(11) 0.06998(10) 0.40374(11)
H57_70 H 0.3085 0.0620 0.3900
C81_70 C 0.30713(11) 0.09250(11) 0.41339(10)
C82_70 C 0.31885(11) 0.10365(11) 0.43390(10)
H58_70 H 0.3121 0.1187 0.4409
C83_70 C 0.34019(12) 0.09321(11) 0.44426(11)
C84_70 C 0.35024(12) 0.06990(11) 0.43488(11)
H59_70 H 0.3645 0.0621 0.4423
C85_70 C 0.34872(13) 0.03569(12) 0.40267(12)
C86_70 C 0.28484(10) 0.10462(10) 0.40144(10)
C87_70 C 0.35347(13) 0.10588(14) 0.46663(11)
C88_70 C 0.21484(13) 0.17200(12) 0.42248(12)
H60_70 H 0.2055 0.1575 0.4177
C89_70 C 0.17555(17) 0.18939(19) 0.4355(2)
H61_70 H 0.1696 0.1719 0.4348
H62_70 H 0.1718 0.1965 0.4521
H63_70 H 0.1670 0.1993 0.4225
C90_70 C 0.21336(17) 0.21422(16) 0.4321(2)
H64_70 H 0.2279 0.2146 0.4208
H65_70 H 0.2011 0.2269 0.4268
H66_70 H 0.2189 0.2178 0.4493
Zn32_46 Zn 0.24984(2) 0.10534(2) 0.35511(2)
O70_46 O 0.22442(8) 0.11759(7) 0.40575(8)
O79_70 O 0.22493(7) 0.15569(8) 0.36807(7)
O84_70 O 0.27765(8) 0.16180(8) 0.37420(7)
Zn12_47 Zn 0.74984(2) 0.85511(2) 0.39466(2)
O56_47 O 0.72442(8) 0.90575(8) 0.38241(7)
O57_71 O 0.72322(8) 0.87550(7) 0.41175(8)
O60_71 O 0.76199(7) 0.82929(7) 0.41931(7)
N6_71 N 0.79796(11) 0.81002(10) 0.43122(12)
C79_71 C 0.66215(12) 0.94067(11) 0.41417(11)
C80_71 C 0.68335(11) 0.93002(10) 0.40374(11)
H57_71 H 0.6915 0.9380 0.3900
C81_71 C 0.69287(11) 0.90750(11) 0.41339(10)
C82_71 C 0.68115(11) 0.89635(11) 0.43390(10)
H58_71 H 0.6879 0.8813 0.4409
C83_71 C 0.65981(12) 0.90679(11) 0.44426(11)
C84_71 C 0.64976(12) 0.93010(11) 0.43488(11)
H59_71 H 0.6355 0.9379 0.4423
C85_71 C 0.65128(13) 0.96431(12) 0.40267(12)
C86_71 C 0.71516(10) 0.89538(10) 0.40144(10)
C87_71 C 0.64653(13) 0.89412(14) 0.46663(11)
C88_71 C 0.78516(13) 0.82800(12) 0.42248(12)
H60_71 H 0.7945 0.8425 0.4177
C89_71 C 0.82445(17) 0.81061(19) 0.4355(2)
H61_71 H 0.8304 0.8281 0.4348
H62_71 H 0.8282 0.8035 0.4521
H63_71 H 0.8330 0.8007 0.4225
C90_71 C 0.78664(17) 0.78578(16) 0.4321(2)
H64_71 H 0.7721 0.7854 0.4208
H65_71 H 0.7989 0.7731 0.4268
H66_71 H 0.7811 0.7822 0.4493
Zn32_47 Zn 0.75016(2) 0.89466(2) 0.35511(2)
O70_47 O 0.77558(8) 0.88241(7) 0.40575(8)
O79_71 O 0.77507(7) 0.84431(8) 0.36807(7)
O84_71 O 0.72235(8) 0.83820(8) 0.37420(7)
Zn12_48 Zn 0.74984(2) 0.14489(2) 0.60534(2)
O56_48 O 0.72442(8) 0.09425(8) 0.61759(7)
O57_72 O 0.72322(8) 0.12450(7) 0.58825(8)
O60_72 O 0.76199(7) 0.17071(7) 0.58069(7)
N6_72 N 0.79796(11) 0.18998(10) 0.56878(12)
C79_72 C 0.66215(12) 0.05933(11) 0.58583(11)
C80_72 C 0.68335(11) 0.06998(10) 0.59626(11)
H57_72 H 0.6915 0.0620 0.6100
C81_72 C 0.69287(11) 0.09250(11) 0.58661(10)
C82_72 C 0.68115(11) 0.10365(11) 0.56610(10)
H58_72 H 0.6879 0.1187 0.5591
C83_72 C 0.65981(12) 0.09321(11) 0.55574(11)
C84_72 C 0.64976(12) 0.06990(11) 0.56512(11)
H59_72 H 0.6355 0.0621 0.5577
C85_72 C 0.65128(13) 0.03569(12) 0.59733(12)
C86_72 C 0.71516(10) 0.10462(10) 0.59856(10)
C87_72 C 0.64653(13) 0.10588(14) 0.53337(11)
C88_72 C 0.78516(13) 0.17200(12) 0.57752(12)
H60_72 H 0.7945 0.1575 0.5823
C89_72 C 0.82445(17) 0.18939(19) 0.5645(2)
H61_72 H 0.8304 0.1719 0.5652
H62_72 H 0.8282 0.1965 0.5479
H63_72 H 0.8330 0.1993 0.5775
C90_72 C 0.78664(17) 0.21422(16) 0.5679(2)
H64_72 H 0.7721 0.2146 0.5792
H65_72 H 0.7989 0.2269 0.5732
H66_72 H 0.7811 0.2178 0.5507
Zn32_48 Zn 0.75016(2) 0.10534(2) 0.64489(2)
O70_48 O 0.77558(8) 0.11759(7) 0.59425(8)
O79_72 O 0.77507(7) 0.15569(8) 0.63193(7)
O84_72 O 0.72235(8) 0.16180(8) 0.62580(7)
O37_37 O 0.0000 0.08105(16) 0.42227(16)
O38_37 O 0.0000 0.17682(15) 0.33428(15)
O62_25 O 0.02713(8) 0.13103(9) 0.41264(9)
O64_25 O 0.02684(8) 0.16134(9) 0.38325(8)
O71_13 O 0.02641(8) 0.12607(8) 0.34443(9)
O74_13 O 0.02684(8) 0.09577(9) 0.37387(9)
O9_37 O 0.92227(16) 0.0000 0.41895(16)
O10_37 O 0.83428(15) -0.0000 0.32318(15)
O24_37 O 0.91895(16) 0.07773(16) 0.5000
O25_37 O 0.82318(15) 0.16572(15) 0.5000
O37_38 O 1.0000 0.08105(16) 0.42227(16)
O38_38 O 1.0000 0.17682(15) 0.33428(15)
O61_25 O 0.86897(9) 0.08736(9) 0.52713(8)
O63_25 O 0.83866(9) 0.11675(8) 0.52684(8)
O73_25 O 0.87393(8) 0.15557(9) 0.52641(8)
O76_25 O 0.90423(9) 0.12613(9) 0.52684(8)
O9_38 O 0.92227(16) 1.0000 0.41895(16)
O10_38 O 0.83428(15) 1.0000 0.32318(15)
O54_25 O 0.91264(9) 0.97287(8) 0.36897(9)
O55_25 O 0.88325(8) 0.97316(8) 0.33866(9)
O57_73 O 0.91175(8) 0.87550(7) 0.27678(8)
O58_13 O 0.97359(8) 0.87393(8) 0.34443(9)
O59_13 O 0.97316(8) 0.90423(9) 0.37387(9)
O60_73 O 0.91931(7) 0.82929(7) 0.23801(7)
N6_73 N 0.93122(12) 0.81002(10) 0.20204(11)
C79_73 C 0.91417(11) 0.94067(11) 0.33785(12)
C80_73 C 0.90374(11) 0.93002(10) 0.31665(11)
H57_73 H 0.8900 0.9380 0.3085
C81_73 C 0.91339(10) 0.90750(11) 0.30713(11)
C82_73 C 0.93390(10) 0.89635(11) 0.31885(11)
H58_73 H 0.9409 0.8813 0.3121
C83_73 C 0.94426(11) 0.90679(11) 0.34019(12)
C84_73 C 0.93488(11) 0.93010(11) 0.35024(12)
H59_73 H 0.9423 0.9379 0.3645
C85_73 C 0.90267(12) 0.96431(12) 0.34872(13)
C86_73 C 0.90144(10) 0.89538(10) 0.28484(10)
C87_73 C 0.96663(11) 0.89412(14) 0.35347(13)
C88_73 C 0.92248(12) 0.82800(12) 0.21484(13)
H60_73 H 0.9177 0.8425 0.2055
C89_73 C 0.9355(2) 0.81061(19) 0.17555(17)
H61_73 H 0.9348 0.8281 0.1696
H62_73 H 0.9521 0.8035 0.1718
H63_73 H 0.9225 0.8007 0.1670
C90_73 C 0.9321(2) 0.78578(16) 0.21336(17)
H64_73 H 0.9208 0.7854 0.2279
H65_73 H 0.9268 0.7731 0.2011
H66_73 H 0.9493 0.7822 0.2189
O72_25 O 0.84443(9) 0.97359(8) 0.37393(8)
O75_25 O 0.87387(9) 0.97316(8) 0.40423(9)
O79_73 O 0.86807(7) 0.84431(8) 0.22493(7)
O84_73 O 0.87420(7) 0.83820(8) 0.27765(8)
O9_39 O 0.07773(16) 0.0000 0.41895(16)
O10_39 O 0.16572(15) -0.0000 0.32318(15)
O54_26 O 0.08736(9) 0.02713(8) 0.36897(9)
O55_26 O 0.11675(8) 0.02684(8) 0.33866(9)
O57_74 O 0.08825(8) 0.12450(7) 0.27678(8)
O60_74 O 0.08069(7) 0.17071(7) 0.23801(7)
N6_74 N 0.06878(12) 0.18998(10) 0.20204(11)
C79_74 C 0.08583(11) 0.05933(11) 0.33785(12)
C80_74 C 0.09626(11) 0.06998(10) 0.31665(11)
H57_74 H 0.1100 0.0620 0.3085
C81_74 C 0.08661(10) 0.09250(11) 0.30713(11)
C82_74 C 0.06610(10) 0.10365(11) 0.31885(11)
H58_74 H 0.0591 0.1187 0.3121
C83_74 C 0.05574(11) 0.09321(11) 0.34019(12)
C84_74 C 0.06512(11) 0.06990(11) 0.35024(12)
H59_74 H 0.0577 0.0621 0.3645
C85_74 C 0.09733(12) 0.03569(12) 0.34872(13)
C86_74 C 0.09856(10) 0.10462(10) 0.28484(10)
C87_74 C 0.03337(11) 0.10588(14) 0.35347(13)
C88_74 C 0.07752(12) 0.17200(12) 0.21484(13)
H60_74 H 0.0823 0.1575 0.2055
C89_74 C 0.0645(2) 0.18939(19) 0.17555(17)
H61_74 H 0.0652 0.1719 0.1696
H62_74 H 0.0479 0.1965 0.1718
H63_74 H 0.0775 0.1993 0.1670
C90_74 C 0.0679(2) 0.21422(16) 0.21336(17)
H64_74 H 0.0792 0.2146 0.2279
H65_74 H 0.0732 0.2269 0.2011
H66_74 H 0.0507 0.2178 0.2189
O72_26 O 0.15557(9) 0.02641(8) 0.37393(8)
O75_26 O 0.12613(9) 0.02684(8) 0.40423(9)
O79_74 O 0.13193(7) 0.15569(8) 0.22493(7)
O84_74 O 0.12580(7) 0.16180(8) 0.27765(8)
O9_40 O 0.07773(16) 1.0000 0.41895(16)
O10_40 O 0.16572(15) 1.0000 0.32318(15)
O24_38 O 0.08105(16) 0.92227(16) 0.5000
O25_38 O 0.17682(15) 0.83428(15) 0.5000
O37_39 O -0.0000 0.91895(16) 0.42227(16)
O38_39 O -0.0000 0.82318(15) 0.33428(15)
O61_26 O 0.13103(9) 0.91264(9) 0.52713(8)
O63_26 O 0.16134(9) 0.88325(8) 0.52684(8)
O73_26 O 0.12607(8) 0.84443(9) 0.52641(8)
O76_26 O 0.09577(9) 0.87387(9) 0.52684(8)
O37_40 O 1.0000 0.91895(16) 0.42227(16)
O38_40 O 1.0000 0.82318(15) 0.33428(15)
O62_26 O 0.97287(8) 0.86897(9) 0.41264(9)
O64_26 O 0.97316(8) 0.83866(9) 0.38325(8)
O9_41 O 0.07773(16) -0.0000 0.58105(16)
O10_41 O 0.16572(15) 0.0000 0.67682(15)
O24_39 O 0.08105(16) 0.07773(16) 0.5000
O25_39 O 0.17682(15) 0.16572(15) 0.5000
O37_41 O -0.0000 0.08105(16) 0.57773(16)
O38_41 O -0.0000 0.17682(15) 0.66572(15)
O61_27 O 0.13103(9) 0.08736(9) 0.47287(8)
O63_27 O 0.16134(9) 0.11675(8) 0.47316(8)
O73_27 O 0.12607(8) 0.15557(9) 0.47359(8)
O76_27 O 0.09577(9) 0.12613(9) 0.47316(8)
O9_42 O 0.07773(16) 1.0000 0.58105(16)
O10_42 O 0.16572(15) 1.0000 0.67682(15)
O54_27 O 0.08736(9) 0.97287(8) 0.63103(9)
O55_27 O 0.11675(8) 0.97316(8) 0.66134(9)
O57_75 O 0.08825(8) 0.87550(7) 0.72322(8)
O58_14 O 0.02641(8) 0.87393(8) 0.65557(9)
O59_14 O 0.02684(8) 0.90423(9) 0.62613(9)
O60_75 O 0.08069(7) 0.82929(7) 0.76199(7)
N6_75 N 0.06878(12) 0.81002(10) 0.79796(11)
C79_75 C 0.08583(11) 0.94067(11) 0.66215(12)
C80_75 C 0.09626(11) 0.93002(10) 0.68335(11)
H57_75 H 0.1100 0.9380 0.6915
C81_75 C 0.08661(10) 0.90750(11) 0.69287(11)
C82_75 C 0.06610(10) 0.89635(11) 0.68115(11)
H58_75 H 0.0591 0.8813 0.6879
C83_75 C 0.05574(11) 0.90679(11) 0.65981(12)
C84_75 C 0.06512(11) 0.93010(11) 0.64976(12)
H59_75 H 0.0577 0.9379 0.6355
C85_75 C 0.09733(12) 0.96431(12) 0.65128(13)
C86_75 C 0.09856(10) 0.89538(10) 0.71516(10)
C87_75 C 0.03337(11) 0.89412(14) 0.64653(13)
C88_75 C 0.07752(12) 0.82800(12) 0.78516(13)
H60_75 H 0.0823 0.8425 0.7945
C89_75 C 0.0645(2) 0.81061(19) 0.82445(17)
H61_75 H 0.0652 0.8281 0.8304
H62_75 H 0.0479 0.8035 0.8282
H63_75 H 0.0775 0.8007 0.8330
C90_75 C 0.0679(2) 0.78578(16) 0.78664(17)
H64_75 H 0.0792 0.7854 0.7721
H65_75 H 0.0732 0.7731 0.7989
H66_75 H 0.0507 0.7822 0.7811
O72_27 O 0.15557(9) 0.97359(8) 0.62607(8)
O75_27 O 0.12613(9) 0.97316(8) 0.59577(9)
O79_75 O 0.13193(7) 0.84431(8) 0.77507(7)
O84_75 O 0.12580(7) 0.83820(8) 0.72235(8)
O37_42 O 1.0000 0.08105(16) 0.57773(16)
O38_42 O 1.0000 0.17682(15) 0.66572(15)
O62_27 O 0.97287(8) 0.13103(9) 0.58736(9)
O64_27 O 0.97316(8) 0.16134(9) 0.61675(8)
O71_14 O 0.97359(8) 0.12607(8) 0.65557(9)
O74_14 O 0.97316(8) 0.09577(9) 0.62613(9)
O37_43 O 0.0000 0.91895(16) 0.57773(16)
O38_43 O 0.0000 0.82318(15) 0.66572(15)
O62_28 O 0.02713(8) 0.86897(9) 0.58736(9)
O64_28 O 0.02684(8) 0.83866(9) 0.61675(8)
O9_43 O 0.92227(16) -0.0000 0.58105(16)
O10_43 O 0.83428(15) 0.0000 0.67682(15)
O54_28 O 0.91264(9) 0.02713(8) 0.63103(9)
O55_28 O 0.88325(8) 0.02684(8) 0.66134(9)
O57_76 O 0.91175(8) 0.12450(7) 0.72322(8)
O60_76 O 0.91931(7) 0.17071(7) 0.76199(7)
N6_76 N 0.93122(12) 0.18998(10) 0.79796(11)
C79_76 C 0.91417(11) 0.05933(11) 0.66215(12)
C80_76 C 0.90374(11) 0.06998(10) 0.68335(11)
H57_76 H 0.8900 0.0620 0.6915
C81_76 C 0.91339(10) 0.09250(11) 0.69287(11)
C82_76 C 0.93390(10) 0.10365(11) 0.68115(11)
H58_76 H 0.9409 0.1187 0.6879
C83_76 C 0.94426(11) 0.09321(11) 0.65981(12)
C84_76 C 0.93488(11) 0.06990(11) 0.64976(12)
H59_76 H 0.9423 0.0621 0.6355
C85_76 C 0.90267(12) 0.03569(12) 0.65128(13)
C86_76 C 0.90144(10) 0.10462(10) 0.71516(10)
C87_76 C 0.96663(11) 0.10588(14) 0.64653(13)
C88_76 C 0.92248(12) 0.17200(12) 0.78516(13)
H60_76 H 0.9177 0.1575 0.7945
C89_76 C 0.9355(2) 0.18939(19) 0.82445(17)
H61_76 H 0.9348 0.1719 0.8304
H62_76 H 0.9521 0.1965 0.8282
H63_76 H 0.9225 0.1993 0.8330
C90_76 C 0.9321(2) 0.21422(16) 0.78664(17)
H64_76 H 0.9208 0.2146 0.7721
H65_76 H 0.9268 0.2269 0.7989
H66_76 H 0.9493 0.2178 0.7811
O72_28 O 0.84443(9) 0.02641(8) 0.62607(8)
O75_28 O 0.87387(9) 0.02684(8) 0.59577(9)
O79_76 O 0.86807(7) 0.15569(8) 0.77507(7)
O84_76 O 0.87420(7) 0.16180(8) 0.72235(8)
O9_44 O 0.92227(16) 1.0000 0.58105(16)
O10_44 O 0.83428(15) 1.0000 0.67682(15)
O24_40 O 0.91895(16) 0.92227(16) 0.5000
O25_40 O 0.82318(15) 0.83428(15) 0.5000
O37_44 O 1.0000 0.91895(16) 0.57773(16)
O38_44 O 1.0000 0.82318(15) 0.66572(15)
O61_28 O 0.86897(9) 0.91264(9) 0.47287(8)
O63_28 O 0.83866(9) 0.88325(8) 0.47316(8)
O73_28 O 0.87393(8) 0.84443(9) 0.47359(8)
O76_28 O 0.90423(9) 0.87387(9) 0.47316(8)
O57_77 O 0.77678(8) 0.91175(8) 0.37550(7)
O60_77 O 0.73801(7) 0.91931(7) 0.32929(7)
N6_77 N 0.70204(11) 0.93122(12) 0.31002(10)
C79_77 C 0.83785(12) 0.91417(11) 0.44067(11)
C80_77 C 0.81665(11) 0.90374(11) 0.43002(10)
H57_77 H 0.8085 0.8900 0.4380
C81_77 C 0.80713(11) 0.91339(10) 0.40750(11)
C82_77 C 0.81885(11) 0.93390(10) 0.39635(11)
H58_77 H 0.8121 0.9409 0.3813
C83_77 C 0.84019(12) 0.94426(11) 0.40679(11)
C84_77 C 0.85024(12) 0.93488(11) 0.43010(11)
H59_77 H 0.8645 0.9423 0.4379
C85_77 C 0.84872(13) 0.90267(12) 0.46431(12)
C86_77 C 0.78484(10) 0.90144(10) 0.39538(10)
C87_77 C 0.85347(13) 0.96663(11) 0.39412(14)
C88_77 C 0.71484(13) 0.92248(12) 0.32800(12)
H60_77 H 0.7055 0.9177 0.3425
C89_77 C 0.67555(17) 0.9355(2) 0.31061(19)
H61_77 H 0.6696 0.9348 0.3281
H62_77 H 0.6718 0.9521 0.3035
H63_77 H 0.6670 0.9225 0.3007
C90_77 C 0.71336(17) 0.9321(2) 0.28578(16)
H64_77 H 0.7279 0.9208 0.2854
H65_77 H 0.7011 0.9268 0.2731
H66_77 H 0.7189 0.9493 0.2822
O79_77 O 0.72493(7) 0.86807(7) 0.34431(8)
O84_77 O 0.77765(8) 0.87420(7) 0.33820(8)
O57_78 O 0.77678(8) 0.08825(8) 0.62450(7)
O60_78 O 0.73801(7) 0.08069(7) 0.67071(7)
N6_78 N 0.70204(11) 0.06878(12) 0.68998(10)
C79_78 C 0.83785(12) 0.08583(11) 0.55933(11)
C80_78 C 0.81665(11) 0.09626(11) 0.56998(10)
H57_78 H 0.8085 0.1100 0.5620
C81_78 C 0.80713(11) 0.08661(10) 0.59250(11)
C82_78 C 0.81885(11) 0.06610(10) 0.60365(11)
H58_78 H 0.8121 0.0591 0.6187
C83_78 C 0.84019(12) 0.05574(11) 0.59321(11)
C84_78 C 0.85024(12) 0.06512(11) 0.56990(11)
H59_78 H 0.8645 0.0577 0.5621
C85_78 C 0.84872(13) 0.09733(12) 0.53569(12)
C86_78 C 0.78484(10) 0.09856(10) 0.60462(10)
C87_78 C 0.85347(13) 0.03337(11) 0.60588(14)
C88_78 C 0.71484(13) 0.07752(12) 0.67200(12)
H60_78 H 0.7055 0.0823 0.6575
C89_78 C 0.67555(17) 0.0645(2) 0.68939(19)
H61_78 H 0.6696 0.0652 0.6719
H62_78 H 0.6718 0.0479 0.6965
H63_78 H 0.6670 0.0775 0.6993
C90_78 C 0.71336(17) 0.0679(2) 0.71422(16)
H64_78 H 0.7279 0.0792 0.7146
H65_78 H 0.7011 0.0732 0.7269
H66_78 H 0.7189 0.0507 0.7178
O79_78 O 0.72493(7) 0.13193(7) 0.65569(8)
O84_78 O 0.77765(8) 0.12580(7) 0.66180(8)
O57_79 O 0.22322(8) 0.08825(8) 0.37550(7)
O60_79 O 0.26199(7) 0.08069(7) 0.32929(7)
N6_79 N 0.29796(11) 0.06878(12) 0.31002(10)
C79_79 C 0.16215(12) 0.08583(11) 0.44067(11)
C80_79 C 0.18335(11) 0.09626(11) 0.43002(10)
H57_79 H 0.1915 0.1100 0.4380
C81_79 C 0.19287(11) 0.08661(10) 0.40750(11)
C82_79 C 0.18115(11) 0.06610(10) 0.39635(11)
H58_79 H 0.1879 0.0591 0.3813
C83_79 C 0.15981(12) 0.05574(11) 0.40679(11)
C84_79 C 0.14976(12) 0.06512(11) 0.43010(11)
H59_79 H 0.1355 0.0577 0.4379
C85_79 C 0.15128(13) 0.09733(12) 0.46431(12)
C86_79 C 0.21516(10) 0.09856(10) 0.39538(10)
C87_79 C 0.14653(13) 0.03337(11) 0.39412(14)
C88_79 C 0.28516(13) 0.07752(12) 0.32800(12)
H60_79 H 0.2945 0.0823 0.3425
C89_79 C 0.32445(17) 0.0645(2) 0.31061(19)
H61_79 H 0.3304 0.0652 0.3281
H62_79 H 0.3282 0.0479 0.3035
H63_79 H 0.3330 0.0775 0.3007
C90_79 C 0.28664(17) 0.0679(2) 0.28578(16)
H64_79 H 0.2721 0.0792 0.2854
H65_79 H 0.2989 0.0732 0.2731
H66_79 H 0.2811 0.0507 0.2822
O79_79 O 0.27507(7) 0.13193(7) 0.34431(8)
O84_79 O 0.22235(8) 0.12580(7) 0.33820(8)
O57_80 O 0.22322(8) 0.91175(8) 0.62450(7)
O60_80 O 0.26199(7) 0.91931(7) 0.67071(7)
N6_80 N 0.29796(11) 0.93122(12) 0.68998(10)
C79_80 C 0.16215(12) 0.91417(11) 0.55933(11)
C80_80 C 0.18335(11) 0.90374(11) 0.56998(10)
H57_80 H 0.1915 0.8900 0.5620
C81_80 C 0.19287(11) 0.91339(10) 0.59250(11)
C82_80 C 0.18115(11) 0.93390(10) 0.60365(11)
H58_80 H 0.1879 0.9409 0.6187
C83_80 C 0.15981(12) 0.94426(11) 0.59321(11)
C84_80 C 0.14976(12) 0.93488(11) 0.56990(11)
H59_80 H 0.1355 0.9423 0.5621
C85_80 C 0.15128(13) 0.90267(12) 0.53569(12)
C86_80 C 0.21516(10) 0.90144(10) 0.60462(10)
C87_80 C 0.14653(13) 0.96663(11) 0.60588(14)
C88_80 C 0.28516(13) 0.92248(12) 0.67200(12)
H60_80 H 0.2945 0.9177 0.6575
C89_80 C 0.32445(17) 0.9355(2) 0.68939(19)
H61_80 H 0.3304 0.9348 0.6719
H62_80 H 0.3282 0.9521 0.6965
H63_80 H 0.3330 0.9225 0.6993
C90_80 C 0.28664(17) 0.9321(2) 0.71422(16)
H64_80 H 0.2721 0.9208 0.7146
H65_80 H 0.2989 0.9268 0.7269
H66_80 H 0.2811 0.9493 0.7178
O79_80 O 0.27507(7) 0.86807(7) 0.65569(8)
O84_80 O 0.22235(8) 0.87420(7) 0.66180(8)
O57_81 O 0.87550(7) 0.77678(8) 0.41175(8)
O60_81 O 0.82929(7) 0.73801(7) 0.41931(7)
N6_81 N 0.81002(10) 0.70204(11) 0.43122(12)
C79_81 C 0.94067(11) 0.83785(12) 0.41417(11)
C80_81 C 0.93002(10) 0.81665(11) 0.40374(11)
H57_81 H 0.9380 0.8085 0.3900
C81_81 C 0.90750(11) 0.80713(11) 0.41339(10)
C82_81 C 0.89635(11) 0.81885(11) 0.43390(10)
H58_81 H 0.8813 0.8121 0.4409
C83_81 C 0.90679(11) 0.84019(12) 0.44426(11)
C84_81 C 0.93010(11) 0.85024(12) 0.43488(11)
H59_81 H 0.9379 0.8645 0.4423
C85_81 C 0.96431(12) 0.84872(13) 0.40267(12)
C86_81 C 0.89538(10) 0.78484(10) 0.40144(10)
C87_81 C 0.89412(14) 0.85347(13) 0.46663(11)
C88_81 C 0.82800(12) 0.71484(13) 0.42248(12)
H60_81 H 0.8425 0.7055 0.4177
C89_81 C 0.81061(19) 0.67555(17) 0.4355(2)
H61_81 H 0.8281 0.6696 0.4348
H62_81 H 0.8035 0.6718 0.4521
H63_81 H 0.8007 0.6670 0.4225
C90_81 C 0.78578(16) 0.71336(17) 0.4321(2)
H64_81 H 0.7854 0.7279 0.4208
H65_81 H 0.7731 0.7011 0.4268
H66_81 H 0.7822 0.7189 0.4493
O79_81 O 0.84431(8) 0.72493(7) 0.36807(7)
O84_81 O 0.83820(8) 0.77765(8) 0.37420(7)
O57_82 O 0.12450(7) 0.77678(8) 0.58825(8)
O60_82 O 0.17071(7) 0.73801(7) 0.58069(7)
N6_82 N 0.18998(10) 0.70204(11) 0.56878(12)
C79_82 C 0.05933(11) 0.83785(12) 0.58583(11)
C80_82 C 0.06998(10) 0.81665(11) 0.59626(11)
H57_82 H 0.0620 0.8085 0.6100
C81_82 C 0.09250(11) 0.80713(11) 0.58661(10)
C82_82 C 0.10365(11) 0.81885(11) 0.56610(10)
H58_82 H 0.1187 0.8121 0.5591
C83_82 C 0.09321(11) 0.84019(12) 0.55574(11)
C84_82 C 0.06990(11) 0.85024(12) 0.56512(11)
H59_82 H 0.0621 0.8645 0.5577
C85_82 C 0.03569(12) 0.84872(13) 0.59733(12)
C86_82 C 0.10462(10) 0.78484(10) 0.59856(10)
C87_82 C 0.10588(14) 0.85347(13) 0.53337(11)
C88_82 C 0.17200(12) 0.71484(13) 0.57752(12)
H60_82 H 0.1575 0.7055 0.5823
C89_82 C 0.18939(19) 0.67555(17) 0.5645(2)
H61_82 H 0.1719 0.6696 0.5652
H62_82 H 0.1965 0.6718 0.5479
H63_82 H 0.1993 0.6670 0.5775
C90_82 C 0.21422(16) 0.71336(17) 0.5679(2)
H64_82 H 0.2146 0.7279 0.5792
H65_82 H 0.2269 0.7011 0.5732
H66_82 H 0.2178 0.7189 0.5507
O79_82 O 0.15569(8) 0.72493(7) 0.63193(7)
O84_82 O 0.16180(8) 0.77765(8) 0.62580(7)
O57_83 O 0.87550(7) 0.22322(8) 0.58825(8)
O60_83 O 0.82929(7) 0.26199(7) 0.58069(7)
N6_83 N 0.81002(10) 0.29796(11) 0.56878(12)
C79_83 C 0.94067(11) 0.16215(12) 0.58583(11)
C80_83 C 0.93002(10) 0.18335(11) 0.59626(11)
H57_83 H 0.9380 0.1915 0.6100
C81_83 C 0.90750(11) 0.19287(11) 0.58661(10)
C82_83 C 0.89635(11) 0.18115(11) 0.56610(10)
H58_83 H 0.8813 0.1879 0.5591
C83_83 C 0.90679(11) 0.15981(12) 0.55574(11)
C84_83 C 0.93010(11) 0.14976(12) 0.56512(11)
H59_83 H 0.9379 0.1355 0.5577
C85_83 C 0.96431(12) 0.15128(13) 0.59733(12)
C86_83 C 0.89538(10) 0.21516(10) 0.59856(10)
C87_83 C 0.89412(14) 0.14653(13) 0.53337(11)
C88_83 C 0.82800(12) 0.28516(13) 0.57752(12)
H60_83 H 0.8425 0.2945 0.5823
C89_83 C 0.81061(19) 0.32445(17) 0.5645(2)
H61_83 H 0.8281 0.3304 0.5652
H62_83 H 0.8035 0.3282 0.5479
H63_83 H 0.8007 0.3330 0.5775
C90_83 C 0.78578(16) 0.28664(17) 0.5679(2)
H64_83 H 0.7854 0.2721 0.5792
H65_83 H 0.7731 0.2989 0.5732
H66_83 H 0.7822 0.2811 0.5507
O79_83 O 0.84431(8) 0.27507(7) 0.63193(7)
O84_83 O 0.83820(8) 0.22235(8) 0.62580(7)
O57_84 O 0.12450(7) 0.22322(8) 0.41175(8)
O60_84 O 0.17071(7) 0.26199(7) 0.41931(7)
N6_84 N 0.18998(10) 0.29796(11) 0.43122(12)
C79_84 C 0.05933(11) 0.16215(12) 0.41417(11)
C80_84 C 0.06998(10) 0.18335(11) 0.40374(11)
H57_84 H 0.0620 0.1915 0.3900
C81_84 C 0.09250(11) 0.19287(11) 0.41339(10)
C82_84 C 0.10365(11) 0.18115(11) 0.43390(10)
H58_84 H 0.1187 0.1879 0.4409
C83_84 C 0.09321(11) 0.15981(12) 0.44426(11)
C84_84 C 0.06990(11) 0.14976(12) 0.43488(11)
H59_84 H 0.0621 0.1355 0.4423
C85_84 C 0.03569(12) 0.15128(13) 0.40267(12)
C86_84 C 0.10462(10) 0.21516(10) 0.40144(10)
C87_84 C 0.10588(14) 0.14653(13) 0.46663(11)
C88_84 C 0.17200(12) 0.28516(13) 0.42248(12)
H60_84 H 0.1575 0.2945 0.4177
C89_84 C 0.18939(19) 0.32445(17) 0.4355(2)
H61_84 H 0.1719 0.3304 0.4348
H62_84 H 0.1965 0.3282 0.4521
H63_84 H 0.1993 0.3330 0.4225
C90_84 C 0.21422(16) 0.28664(17) 0.4321(2)
H64_84 H 0.2146 0.2721 0.4208
H65_84 H 0.2269 0.2989 0.4268
H66_84 H 0.2178 0.2811 0.4493
O79_84 O 0.15569(8) 0.27507(7) 0.36807(7)
O84_84 O 0.16180(8) 0.22235(8) 0.37420(7)
O9_45 O 0.5000 0.42227(16) 0.08105(16)
O10_45 O 0.5000 0.33428(15) 0.17682(15)
O24_41 O 0.57773(16) 0.41895(16) 0.0000
O25_41 O 0.66572(15) 0.32318(15) 0.0000
O37_45 O 0.58105(16) 0.5000 0.07773(16)
O38_45 O 0.67682(15) 0.5000 0.16572(15)
O54_29 O 0.47287(8) 0.41264(9) 0.13103(9)
O55_29 O 0.47316(8) 0.38325(8) 0.16134(9)
O57_85 O 0.37550(7) 0.41175(8) 0.22322(8)
O58_15 O 0.37393(8) 0.47359(8) 0.15557(9)
O59_15 O 0.40423(9) 0.47316(8) 0.12613(9)
O60_85 O 0.32929(7) 0.41931(7) 0.26199(7)
N6_85 N 0.31002(10) 0.43122(12) 0.29796(11)
C79_85 C 0.44067(11) 0.41417(11) 0.16215(12)
C80_85 C 0.43002(10) 0.40374(11) 0.18335(11)
H57_85 H 0.4380 0.3900 0.1915
C81_85 C 0.40750(11) 0.41339(10) 0.19287(11)
C82_85 C 0.39635(11) 0.43390(10) 0.18115(11)
H58_85 H 0.3813 0.4409 0.1879
C83_85 C 0.40679(11) 0.44426(11) 0.15981(12)
C84_85 C 0.43010(11) 0.43488(11) 0.14976(12)
H59_85 H 0.4379 0.4423 0.1355
C85_85 C 0.46431(12) 0.40267(12) 0.15128(13)
C86_85 C 0.39538(10) 0.40144(10) 0.21516(10)
C87_85 C 0.39412(14) 0.46663(11) 0.14653(13)
C88_85 C 0.32800(12) 0.42248(12) 0.28516(13)
H60_85 H 0.3425 0.4177 0.2945
C89_85 C 0.31061(19) 0.4355(2) 0.32445(17)
H61_85 H 0.3281 0.4348 0.3304
H62_85 H 0.3035 0.4521 0.3282
H63_85 H 0.3007 0.4225 0.3330
C90_85 C 0.28578(16) 0.4321(2) 0.28664(17)
H64_85 H 0.2854 0.4208 0.2721
H65_85 H 0.2731 0.4268 0.2989
H66_85 H 0.2822 0.4493 0.2811
O62_29 O 0.63103(9) 0.52713(8) 0.08736(9)
O64_29 O 0.66134(9) 0.52684(8) 0.11675(8)
O71_15 O 0.62607(8) 0.52641(8) 0.15557(9)
O72_29 O 0.47359(8) 0.34443(9) 0.12607(8)
O74_15 O 0.59577(9) 0.52684(8) 0.12613(9)
O75_29 O 0.47316(8) 0.37387(9) 0.09577(9)
O79_85 O 0.34431(8) 0.36807(7) 0.27507(7)
O84_85 O 0.33820(8) 0.37420(7) 0.22235(8)
O24_42 O 0.57773(16) 0.41895(16) 1.0000
O25_42 O 0.66572(15) 0.32318(15) 1.0000
O61_29 O 0.58736(9) 0.36897(9) 0.97287(8)
O63_29 O 0.61675(8) 0.33866(9) 0.97316(8)
O73_29 O 0.65557(9) 0.37393(8) 0.97359(8)
O76_29 O 0.62613(9) 0.40423(9) 0.97316(8)
O9_46 O 0.5000 0.57773(16) 0.08105(16)
O10_46 O 0.5000 0.66572(15) 0.17682(15)
O24_43 O 0.42227(16) 0.58105(16) 0.0000
O25_43 O 0.33428(15) 0.67682(15) 0.0000
O37_46 O 0.41895(16) 0.5000 0.07773(16)
O38_46 O 0.32318(15) 0.5000 0.16572(15)
O54_30 O 0.52713(8) 0.58736(9) 0.13103(9)
O55_30 O 0.52684(8) 0.61675(8) 0.16134(9)
O57_86 O 0.62450(7) 0.58825(8) 0.22322(8)
O60_86 O 0.67071(7) 0.58069(7) 0.26199(7)
N6_86 N 0.68998(10) 0.56878(12) 0.29796(11)
C79_86 C 0.55933(11) 0.58583(11) 0.16215(12)
C80_86 C 0.56998(10) 0.59626(11) 0.18335(11)
H57_86 H 0.5620 0.6100 0.1915
C81_86 C 0.59250(11) 0.58661(10) 0.19287(11)
C82_86 C 0.60365(11) 0.56610(10) 0.18115(11)
H58_86 H 0.6187 0.5591 0.1879
C83_86 C 0.59321(11) 0.55574(11) 0.15981(12)
C84_86 C 0.56990(11) 0.56512(11) 0.14976(12)
H59_86 H 0.5621 0.5577 0.1355
C85_86 C 0.53569(12) 0.59733(12) 0.15128(13)
C86_86 C 0.60462(10) 0.59856(10) 0.21516(10)
C87_86 C 0.60588(14) 0.53337(11) 0.14653(13)
C88_86 C 0.67200(12) 0.57752(12) 0.28516(13)
H60_86 H 0.6575 0.5823 0.2945
C89_86 C 0.68939(19) 0.5645(2) 0.32445(17)
H61_86 H 0.6719 0.5652 0.3304
H62_86 H 0.6965 0.5479 0.3282
H63_86 H 0.6993 0.5775 0.3330
C90_86 C 0.71422(16) 0.5679(2) 0.28664(17)
H64_86 H 0.7146 0.5792 0.2721
H65_86 H 0.7269 0.5732 0.2989
H66_86 H 0.7178 0.5507 0.2811
O62_30 O 0.36897(9) 0.47287(8) 0.08736(9)
O64_30 O 0.33866(9) 0.47316(8) 0.11675(8)
O72_30 O 0.52641(8) 0.65557(9) 0.12607(8)
O75_30 O 0.52684(8) 0.62613(9) 0.09577(9)
O79_86 O 0.65569(8) 0.63193(7) 0.27507(7)
O84_86 O 0.66180(8) 0.62580(7) 0.22235(8)
O24_44 O 0.42227(16) 0.58105(16) 1.0000
O25_44 O 0.33428(15) 0.67682(15) 1.0000
O61_30 O 0.41264(9) 0.63103(9) 0.97287(8)
O63_30 O 0.38325(8) 0.66134(9) 0.97316(8)
O73_30 O 0.34443(9) 0.62607(8) 0.97359(8)
O76_30 O 0.37387(9) 0.59577(9) 0.97316(8)
O24_45 O 0.57773(16) 0.58105(16) 0.0000
O25_45 O 0.66572(15) 0.67682(15) 0.0000
O61_31 O 0.58736(9) 0.63103(9) 0.02713(8)
O63_31 O 0.61675(8) 0.66134(9) 0.02684(8)
O73_31 O 0.65557(9) 0.62607(8) 0.02641(8)
O76_31 O 0.62613(9) 0.59577(9) 0.02684(8)
O9_47 O 0.5000 0.57773(16) 0.91895(16)
O10_47 O 0.5000 0.66572(15) 0.82318(15)
O24_46 O 0.57773(16) 0.58105(16) 1.0000
O25_46 O 0.66572(15) 0.67682(15) 1.0000
O37_47 O 0.58105(16) 0.5000 0.92227(16)
O38_47 O 0.67682(15) 0.5000 0.83428(15)
O54_31 O 0.47287(8) 0.58736(9) 0.86897(9)
O55_31 O 0.47316(8) 0.61675(8) 0.83866(9)
O57_87 O 0.37550(7) 0.58825(8) 0.77678(8)
O58_16 O 0.37393(8) 0.52641(8) 0.84443(9)
O59_16 O 0.40423(9) 0.52684(8) 0.87387(9)
O60_87 O 0.32929(7) 0.58069(7) 0.73801(7)
N6_87 N 0.31002(10) 0.56878(12) 0.70204(11)
C79_87 C 0.44067(11) 0.58583(11) 0.83785(12)
C80_87 C 0.43002(10) 0.59626(11) 0.81665(11)
H57_87 H 0.4380 0.6100 0.8085
C81_87 C 0.40750(11) 0.58661(10) 0.80713(11)
C82_87 C 0.39635(11) 0.56610(10) 0.81885(11)
H58_87 H 0.3813 0.5591 0.8121
C83_87 C 0.40679(11) 0.55574(11) 0.84019(12)
C84_87 C 0.43010(11) 0.56512(11) 0.85024(12)
H59_87 H 0.4379 0.5577 0.8645
C85_87 C 0.46431(12) 0.59733(12) 0.84872(13)
C86_87 C 0.39538(10) 0.59856(10) 0.78484(10)
C87_87 C 0.39412(14) 0.53337(11) 0.85347(13)
C88_87 C 0.32800(12) 0.57752(12) 0.71484(13)
H60_87 H 0.3425 0.5823 0.7055
C89_87 C 0.31061(19) 0.5645(2) 0.67555(17)
H61_87 H 0.3281 0.5652 0.6696
H62_87 H 0.3035 0.5479 0.6718
H63_87 H 0.3007 0.5775 0.6670
C90_87 C 0.28578(16) 0.5679(2) 0.71336(17)
H64_87 H 0.2854 0.5792 0.7279
H65_87 H 0.2731 0.5732 0.7011
H66_87 H 0.2822 0.5507 0.7189
O62_31 O 0.63103(9) 0.47287(8) 0.91264(9)
O64_31 O 0.66134(9) 0.47316(8) 0.88325(8)
O71_16 O 0.62607(8) 0.47359(8) 0.84443(9)
O72_31 O 0.47359(8) 0.65557(9) 0.87393(8)
O74_16 O 0.59577(9) 0.47316(8) 0.87387(9)
O75_31 O 0.47316(8) 0.62613(9) 0.90423(9)
O79_87 O 0.34431(8) 0.63193(7) 0.72493(7)
O84_87 O 0.33820(8) 0.62580(7) 0.77765(8)
O24_47 O 0.42227(16) 0.41895(16) 0.0000
O25_47 O 0.33428(15) 0.32318(15) 0.0000
O61_32 O 0.41264(9) 0.36897(9) 0.02713(8)
O63_32 O 0.38325(8) 0.33866(9) 0.02684(8)
O73_32 O 0.34443(9) 0.37393(8) 0.02641(8)
O76_32 O 0.37387(9) 0.40423(9) 0.02684(8)
O9_48 O 0.5000 0.42227(16) 0.91895(16)
O10_48 O 0.5000 0.33428(15) 0.82318(15)
O24_48 O 0.42227(16) 0.41895(16) 1.0000
O25_48 O 0.33428(15) 0.32318(15) 1.0000
O37_48 O 0.41895(16) 0.5000 0.92227(16)
O38_48 O 0.32318(15) 0.5000 0.83428(15)
O54_32 O 0.52713(8) 0.41264(9) 0.86897(9)
O55_32 O 0.52684(8) 0.38325(8) 0.83866(9)
O57_88 O 0.62450(7) 0.41175(8) 0.77678(8)
O60_88 O 0.67071(7) 0.41931(7) 0.73801(7)
N6_88 N 0.68998(10) 0.43122(12) 0.70204(11)
C79_88 C 0.55933(11) 0.41417(11) 0.83785(12)
C80_88 C 0.56998(10) 0.40374(11) 0.81665(11)
H57_88 H 0.5620 0.3900 0.8085
C81_88 C 0.59250(11) 0.41339(10) 0.80713(11)
C82_88 C 0.60365(11) 0.43390(10) 0.81885(11)
H58_88 H 0.6187 0.4409 0.8121
C83_88 C 0.59321(11) 0.44426(11) 0.84019(12)
C84_88 C 0.56990(11) 0.43488(11) 0.85024(12)
H59_88 H 0.5621 0.4423 0.8645
C85_88 C 0.53569(12) 0.40267(12) 0.84872(13)
C86_88 C 0.60462(10) 0.40144(10) 0.78484(10)
C87_88 C 0.60588(14) 0.46663(11) 0.85347(13)
C88_88 C 0.67200(12) 0.42248(12) 0.71484(13)
H60_88 H 0.6575 0.4177 0.7055
C89_88 C 0.68939(19) 0.4355(2) 0.67555(17)
H61_88 H 0.6719 0.4348 0.6696
H62_88 H 0.6965 0.4521 0.6718
H63_88 H 0.6993 0.4225 0.6670
C90_88 C 0.71422(16) 0.4321(2) 0.71336(17)
H64_88 H 0.7146 0.4208 0.7279
H65_88 H 0.7269 0.4268 0.7011
H66_88 H 0.7178 0.4493 0.7189
O62_32 O 0.36897(9) 0.52713(8) 0.91264(9)
O64_32 O 0.33866(9) 0.52684(8) 0.88325(8)
O72_32 O 0.52641(8) 0.34443(9) 0.87393(8)
O75_32 O 0.52684(8) 0.37387(9) 0.90423(9)
O79_88 O 0.65569(8) 0.36807(7) 0.72493(7)
O84_88 O 0.66180(8) 0.37420(7) 0.77765(8)
O57_89 O 0.41175(8) 0.27678(8) 0.12450(7)
O60_89 O 0.41931(7) 0.23801(7) 0.17071(7)
N6_89 N 0.43122(12) 0.20204(11) 0.18998(10)
C79_89 C 0.41417(11) 0.33785(12) 0.05933(11)
C80_89 C 0.40374(11) 0.31665(11) 0.06998(10)
H57_89 H 0.3900 0.3085 0.0620
C81_89 C 0.41339(10) 0.30713(11) 0.09250(11)
C82_89 C 0.43390(10) 0.31885(11) 0.10365(11)
H58_89 H 0.4409 0.3121 0.1187
C83_89 C 0.44426(11) 0.34019(12) 0.09321(11)
C84_89 C 0.43488(11) 0.35024(12) 0.06990(11)
H59_89 H 0.4423 0.3645 0.0621
C85_89 C 0.40267(12) 0.34872(13) 0.03569(12)
C86_89 C 0.40144(10) 0.28484(10) 0.10462(10)
C87_89 C 0.46663(11) 0.35347(13) 0.10588(14)
C88_89 C 0.42248(12) 0.21484(13) 0.17200(12)
H60_89 H 0.4177 0.2055 0.1575
C89_89 C 0.4355(2) 0.17555(17) 0.18939(19)
H61_89 H 0.4348 0.1696 0.1719
H62_89 H 0.4521 0.1718 0.1965
H63_89 H 0.4225 0.1670 0.1993
C90_89 C 0.4321(2) 0.21336(17) 0.21422(16)
H64_89 H 0.4208 0.2279 0.2146
H65_89 H 0.4268 0.2011 0.2269
H66_89 H 0.4493 0.2189 0.2178
O79_89 O 0.36807(7) 0.22493(7) 0.15569(8)
O84_89 O 0.37420(7) 0.27765(8) 0.16180(8)
O57_90 O 0.58825(8) 0.27678(8) 0.87550(7)
O60_90 O 0.58069(7) 0.23801(7) 0.82929(7)
N6_90 N 0.56878(12) 0.20204(11) 0.81002(10)
C79_90 C 0.58583(11) 0.33785(12) 0.94067(11)
C80_90 C 0.59626(11) 0.31665(11) 0.93002(10)
H57_90 H 0.6100 0.3085 0.9380
C81_90 C 0.58661(10) 0.30713(11) 0.90750(11)
C82_90 C 0.56610(10) 0.31885(11) 0.89635(11)
H58_90 H 0.5591 0.3121 0.8813
C83_90 C 0.55574(11) 0.34019(12) 0.90679(11)
C84_90 C 0.56512(11) 0.35024(12) 0.93010(11)
H59_90 H 0.5577 0.3645 0.9379
C85_90 C 0.59733(12) 0.34872(13) 0.96431(12)
C86_90 C 0.59856(10) 0.28484(10) 0.89538(10)
C87_90 C 0.53337(11) 0.35347(13) 0.89412(14)
C88_90 C 0.57752(12) 0.21484(13) 0.82800(12)
H60_90 H 0.5823 0.2055 0.8425
C89_90 C 0.5645(2) 0.17555(17) 0.81061(19)
H61_90 H 0.5652 0.1696 0.8281
H62_90 H 0.5479 0.1718 0.8035
H63_90 H 0.5775 0.1670 0.8007
C90_90 C 0.5679(2) 0.21336(17) 0.78578(16)
H64_90 H 0.5792 0.2279 0.7854
H65_90 H 0.5732 0.2011 0.7731
H66_90 H 0.5507 0.2189 0.7822
O79_90 O 0.63193(7) 0.22493(7) 0.84431(8)
O84_90 O 0.62580(7) 0.27765(8) 0.83820(8)
O57_91 O 0.58825(8) 0.72322(8) 0.12450(7)
O60_91 O 0.58069(7) 0.76199(7) 0.17071(7)
N6_91 N 0.56878(12) 0.79796(11) 0.18998(10)
C79_91 C 0.58583(11) 0.66215(12) 0.05933(11)
C80_91 C 0.59626(11) 0.68335(11) 0.06998(10)
H57_91 H 0.6100 0.6915 0.0620
C81_91 C 0.58661(10) 0.69287(11) 0.09250(11)
C82_91 C 0.56610(10) 0.68115(11) 0.10365(11)
H58_91 H 0.5591 0.6879 0.1187
C83_91 C 0.55574(11) 0.65981(12) 0.09321(11)
C84_91 C 0.56512(11) 0.64976(12) 0.06990(11)
H59_91 H 0.5577 0.6355 0.0621
C85_91 C 0.59733(12) 0.65128(13) 0.03569(12)
C86_91 C 0.59856(10) 0.71516(10) 0.10462(10)
C87_91 C 0.53337(11) 0.64653(13) 0.10588(14)
C88_91 C 0.57752(12) 0.78516(13) 0.17200(12)
H60_91 H 0.5823 0.7945 0.1575
C89_91 C 0.5645(2) 0.82445(17) 0.18939(19)
H61_91 H 0.5652 0.8304 0.1719
H62_91 H 0.5479 0.8282 0.1965
H63_91 H 0.5775 0.8330 0.1993
C90_91 C 0.5679(2) 0.78664(17) 0.21422(16)
H64_91 H 0.5792 0.7721 0.2146
H65_91 H 0.5732 0.7989 0.2269
H66_91 H 0.5507 0.7811 0.2178
O79_91 O 0.63193(7) 0.77507(7) 0.15569(8)
O84_91 O 0.62580(7) 0.72235(8) 0.16180(8)
O57_92 O 0.41175(8) 0.72322(8) 0.87550(7)
O60_92 O 0.41931(7) 0.76199(7) 0.82929(7)
N6_92 N 0.43122(12) 0.79796(11) 0.81002(10)
C79_92 C 0.41417(11) 0.66215(12) 0.94067(11)
C80_92 C 0.40374(11) 0.68335(11) 0.93002(10)
H57_92 H 0.3900 0.6915 0.9380
C81_92 C 0.41339(10) 0.69287(11) 0.90750(11)
C82_92 C 0.43390(10) 0.68115(11) 0.89635(11)
H58_92 H 0.4409 0.6879 0.8813
C83_92 C 0.44426(11) 0.65981(12) 0.90679(11)
C84_92 C 0.43488(11) 0.64976(12) 0.93010(11)
H59_92 H 0.4423 0.6355 0.9379
C85_92 C 0.40267(12) 0.65128(13) 0.96431(12)
C86_92 C 0.40144(10) 0.71516(10) 0.89538(10)
C87_92 C 0.46663(11) 0.64653(13) 0.89412(14)
C88_92 C 0.42248(12) 0.78516(13) 0.82800(12)
H60_92 H 0.4177 0.7945 0.8425
C89_92 C 0.4355(2) 0.82445(17) 0.81061(19)
H61_92 H 0.4348 0.8304 0.8281
H62_92 H 0.4521 0.8282 0.8035
H63_92 H 0.4225 0.8330 0.8007
C90_92 C 0.4321(2) 0.78664(17) 0.78578(16)
H64_92 H 0.4208 0.7721 0.7854
H65_92 H 0.4268 0.7989 0.7731
H66_92 H 0.4493 0.7811 0.7822
O79_92 O 0.36807(7) 0.77507(7) 0.84431(8)
O84_92 O 0.37420(7) 0.72235(8) 0.83820(8)
O57_93 O 0.27678(8) 0.37550(7) 0.08825(8)
O60_93 O 0.23801(7) 0.32929(7) 0.08069(7)
N6_93 N 0.20204(11) 0.31002(10) 0.06878(12)
C79_93 C 0.33785(12) 0.44067(11) 0.08583(11)
C80_93 C 0.31665(11) 0.43002(10) 0.09626(11)
H57_93 H 0.3085 0.4380 0.1100
C81_93 C 0.30713(11) 0.40750(11) 0.08661(10)
C82_93 C 0.31885(11) 0.39635(11) 0.06610(10)
H58_93 H 0.3121 0.3813 0.0591
C83_93 C 0.34019(12) 0.40679(11) 0.05574(11)
C84_93 C 0.35024(12) 0.43010(11) 0.06512(11)
H59_93 H 0.3645 0.4379 0.0577
C85_93 C 0.34872(13) 0.46431(12) 0.09733(12)
C86_93 C 0.28484(10) 0.39538(10) 0.09856(10)
C87_93 C 0.35347(13) 0.39412(14) 0.03337(11)
C88_93 C 0.21484(13) 0.32800(12) 0.07752(12)
H60_93 H 0.2055 0.3425 0.0823
C89_93 C 0.17555(17) 0.31061(19) 0.0645(2)
H61_93 H 0.1696 0.3281 0.0652
H62_93 H 0.1718 0.3035 0.0479
H63_93 H 0.1670 0.3007 0.0775
C90_93 C 0.21336(17) 0.28578(16) 0.0679(2)
H64_93 H 0.2279 0.2854 0.0792
H65_93 H 0.2011 0.2731 0.0732
H66_93 H 0.2189 0.2822 0.0507
O79_93 O 0.22493(7) 0.34431(8) 0.13193(7)
O84_93 O 0.27765(8) 0.33820(8) 0.12580(7)
O57_94 O 0.27678(8) 0.62450(7) 0.91175(8)
O60_94 O 0.23801(7) 0.67071(7) 0.91931(7)
N6_94 N 0.20204(11) 0.68998(10) 0.93122(12)
C79_94 C 0.33785(12) 0.55933(11) 0.91417(11)
C80_94 C 0.31665(11) 0.56998(10) 0.90374(11)
H57_94 H 0.3085 0.5620 0.8900
C81_94 C 0.30713(11) 0.59250(11) 0.91339(10)
C82_94 C 0.31885(11) 0.60365(11) 0.93390(10)
H58_94 H 0.3121 0.6187 0.9409
C83_94 C 0.34019(12) 0.59321(11) 0.94426(11)
C84_94 C 0.35024(12) 0.56990(11) 0.93488(11)
H59_94 H 0.3645 0.5621 0.9423
C85_94 C 0.34872(13) 0.53569(12) 0.90267(12)
C86_94 C 0.28484(10) 0.60462(10) 0.90144(10)
C87_94 C 0.35347(13) 0.60588(14) 0.96663(11)
C88_94 C 0.21484(13) 0.67200(12) 0.92248(12)
H60_94 H 0.2055 0.6575 0.9177
C89_94 C 0.17555(17) 0.68939(19) 0.9355(2)
H61_94 H 0.1696 0.6719 0.9348
H62_94 H 0.1718 0.6965 0.9521
H63_94 H 0.1670 0.6993 0.9225
C90_94 C 0.21336(17) 0.71422(16) 0.9321(2)
H64_94 H 0.2279 0.7146 0.9208
H65_94 H 0.2011 0.7269 0.9268
H66_94 H 0.2189 0.7178 0.9493
O79_94 O 0.22493(7) 0.65569(8) 0.86807(7)
O84_94 O 0.27765(8) 0.66180(8) 0.87420(7)
O57_95 O 0.72322(8) 0.37550(7) 0.91175(8)
O60_95 O 0.76199(7) 0.32929(7) 0.91931(7)
N6_95 N 0.79796(11) 0.31002(10) 0.93122(12)
C79_95 C 0.66215(12) 0.44067(11) 0.91417(11)
C80_95 C 0.68335(11) 0.43002(10) 0.90374(11)
H57_95 H 0.6915 0.4380 0.8900
C81_95 C 0.69287(11) 0.40750(11) 0.91339(10)
C82_95 C 0.68115(11) 0.39635(11) 0.93390(10)
H58_95 H 0.6879 0.3813 0.9409
C83_95 C 0.65981(12) 0.40679(11) 0.94426(11)
C84_95 C 0.64976(12) 0.43010(11) 0.93488(11)
H59_95 H 0.6355 0.4379 0.9423
C85_95 C 0.65128(13) 0.46431(12) 0.90267(12)
C86_95 C 0.71516(10) 0.39538(10) 0.90144(10)
C87_95 C 0.64653(13) 0.39412(14) 0.96663(11)
C88_95 C 0.78516(13) 0.32800(12) 0.92248(12)
H60_95 H 0.7945 0.3425 0.9177
C89_95 C 0.82445(17) 0.31061(19) 0.9355(2)
H61_95 H 0.8304 0.3281 0.9348
H62_95 H 0.8282 0.3035 0.9521
H63_95 H 0.8330 0.3007 0.9225
C90_95 C 0.78664(17) 0.28578(16) 0.9321(2)
H64_95 H 0.7721 0.2854 0.9208
H65_95 H 0.7989 0.2731 0.9268
H66_95 H 0.7811 0.2822 0.9493
O79_95 O 0.77507(7) 0.34431(8) 0.86807(7)
O84_95 O 0.72235(8) 0.33820(8) 0.87420(7)
O57_96 O 0.72322(8) 0.62450(7) 0.08825(8)
O60_96 O 0.76199(7) 0.67071(7) 0.08069(7)
N6_96 N 0.79796(11) 0.68998(10) 0.06878(12)
C79_96 C 0.66215(12) 0.55933(11) 0.08583(11)
C80_96 C 0.68335(11) 0.56998(10) 0.09626(11)
H57_96 H 0.6915 0.5620 0.1100
C81_96 C 0.69287(11) 0.59250(11) 0.08661(10)
C82_96 C 0.68115(11) 0.60365(11) 0.06610(10)
H58_96 H 0.6879 0.6187 0.0591
C83_96 C 0.65981(12) 0.59321(11) 0.05574(11)
C84_96 C 0.64976(12) 0.56990(11) 0.06512(11)
H59_96 H 0.6355 0.5621 0.0577
C85_96 C 0.65128(13) 0.53569(12) 0.09733(12)
C86_96 C 0.71516(10) 0.60462(10) 0.09856(10)
C87_96 C 0.64653(13) 0.60588(14) 0.03337(11)
C88_96 C 0.78516(13) 0.67200(12) 0.07752(12)
H60_96 H 0.7945 0.6575 0.0823
C89_96 C 0.82445(17) 0.68939(19) 0.0645(2)
H61_96 H 0.8304 0.6719 0.0652
H62_96 H 0.8282 0.6965 0.0479
H63_96 H 0.8330 0.6993 0.0775
C90_96 C 0.78664(17) 0.71422(16) 0.0679(2)
H64_96 H 0.7721 0.7146 0.0792
H65_96 H 0.7989 0.7269 0.0732
H66_96 H 0.7811 0.7178 0.0507
O79_96 O 0.77507(7) 0.65569(8) 0.13193(7)
O84_96 O 0.72235(8) 0.66180(8) 0.12580(7)
C10_9 C 0.66143(10) 0.34085(10) 0.80738(10)
C11_9 C 0.64952(9) 0.31985(11) 0.81705(11)
H4_9 H 0.6347 0.3137 0.8092
C12_9 C 0.64969(12) 0.35458(11) 0.78541(11)
C16_9 C 0.65915(10) 0.30738(10) 0.83857(10)
C17_9 C 0.68015(11) 0.31705(11) 0.85048(9)
H12_9 H 0.6863 0.3092 0.8653
C18_9 C 0.64542(11) 0.28541(11) 0.85031(12)
C19_9 C 0.69262(10) 0.33857(10) 0.84085(10)
C20_9 C 0.68295(11) 0.35048(9) 0.81985(11)
H13_9 H 0.6908 0.3653 0.8137
C21_9 C 0.71459(11) 0.35031(12) 0.85458(11)
C31_25 C 0.80738(10) 0.33857(10) 0.65915(10)
C32_25 C 0.81705(11) 0.35048(9) 0.68015(11)
H17_25 H 0.8092 0.3653 0.6863
C33_25 C 0.78541(11) 0.35031(12) 0.64542(11)
C37_25 C 0.83857(10) 0.34085(10) 0.69262(10)
C38_25 C 0.85048(9) 0.31985(11) 0.68295(11)
H25_25 H 0.8653 0.3137 0.6908
C39_25 C 0.85031(12) 0.35458(11) 0.71459(11)
C40_25 C 0.84085(10) 0.30738(10) 0.66143(10)
C41_25 C 0.81985(11) 0.31705(11) 0.64952(9)
H26_25 H 0.8137 0.3092 0.6347
C42_25 C 0.85458(11) 0.28541(11) 0.64969(12)
C10_10 C 0.33857(10) 0.65915(10) 0.80738(10)
C11_10 C 0.35048(9) 0.68015(11) 0.81705(11)
H4_10 H 0.3653 0.6863 0.8092
C12_10 C 0.35031(12) 0.64542(11) 0.78541(11)
C16_10 C 0.34085(10) 0.69262(10) 0.83857(10)
C17_10 C 0.31985(11) 0.68295(11) 0.85048(9)
H12_10 H 0.3137 0.6908 0.8653
C18_10 C 0.35458(11) 0.71459(11) 0.85031(12)
C19_10 C 0.30738(10) 0.66143(10) 0.84085(10)
C20_10 C 0.31705(11) 0.64952(9) 0.81985(11)
H13_10 H 0.3092 0.6347 0.8137
C21_10 C 0.28541(11) 0.64969(12) 0.85458(11)
C31_26 C 0.19262(10) 0.66143(10) 0.65915(10)
C32_26 C 0.18295(11) 0.64952(9) 0.68015(11)
H17_26 H 0.1908 0.6347 0.6863
C33_26 C 0.21459(11) 0.64969(12) 0.64542(11)
C37_26 C 0.16143(10) 0.65915(10) 0.69262(10)
C38_26 C 0.14952(9) 0.68015(11) 0.68295(11)
H25_26 H 0.1347 0.6863 0.6908
C39_26 C 0.14969(12) 0.64542(11) 0.71459(11)
C40_26 C 0.15915(10) 0.69262(10) 0.66143(10)
C41_26 C 0.18015(11) 0.68295(11) 0.64952(9)
H26_26 H 0.1863 0.6908 0.6347
C42_26 C 0.14542(11) 0.71459(11) 0.64969(12)
C10_11 C 0.33857(10) 0.34085(10) 0.19262(10)
C11_11 C 0.35048(9) 0.31985(11) 0.18295(11)
H4_11 H 0.3653 0.3137 0.1908
C12_11 C 0.35031(12) 0.35458(11) 0.21459(11)
C16_11 C 0.34085(10) 0.30738(10) 0.16143(10)
C17_11 C 0.31985(11) 0.31705(11) 0.14952(9)
H12_11 H 0.3137 0.3092 0.1347
C18_11 C 0.35458(11) 0.28541(11) 0.14969(12)
C19_11 C 0.30738(10) 0.33857(10) 0.15915(10)
C20_11 C 0.31705(11) 0.35048(9) 0.18015(11)
H13_11 H 0.3092 0.3653 0.1863
C21_11 C 0.28541(11) 0.35031(12) 0.14542(11)
C31_27 C 0.19262(10) 0.33857(10) 0.34085(10)
C32_27 C 0.18295(11) 0.35048(9) 0.31985(11)
H17_27 H 0.1908 0.3653 0.3137
C33_27 C 0.21459(11) 0.35031(12) 0.35458(11)
C37_27 C 0.16143(10) 0.34085(10) 0.30738(10)
C38_27 C 0.14952(9) 0.31985(11) 0.31705(11)
H25_27 H 0.1347 0.3137 0.3092
C39_27 C 0.14969(12) 0.35458(11) 0.28541(11)
C40_27 C 0.15915(10) 0.30738(10) 0.33857(10)
C41_27 C 0.18015(11) 0.31705(11) 0.35048(9)
H26_27 H 0.1863 0.3092 0.3653
C42_27 C 0.14542(11) 0.28541(11) 0.35031(12)
C10_12 C 0.66143(10) 0.65915(10) 0.19262(10)
C11_12 C 0.64952(9) 0.68015(11) 0.18295(11)
H4_12 H 0.6347 0.6863 0.1908
C12_12 C 0.64969(12) 0.64542(11) 0.21459(11)
C16_12 C 0.65915(10) 0.69262(10) 0.16143(10)
C17_12 C 0.68015(11) 0.68295(11) 0.14952(9)
H12_12 H 0.6863 0.6908 0.1347
C18_12 C 0.64542(11) 0.71459(11) 0.14969(12)
C19_12 C 0.69262(10) 0.66143(10) 0.15915(10)
C20_12 C 0.68295(11) 0.64952(9) 0.18015(11)
H13_12 H 0.6908 0.6347 0.1863
C21_12 C 0.71459(11) 0.64969(12) 0.14542(11)
C31_28 C 0.80738(10) 0.66143(10) 0.34085(10)
C32_28 C 0.81705(11) 0.64952(9) 0.31985(11)
H17_28 H 0.8092 0.6347 0.3137
C33_28 C 0.78541(11) 0.64969(12) 0.35458(11)
C37_28 C 0.83857(10) 0.65915(10) 0.30738(10)
C38_28 C 0.85048(9) 0.68015(11) 0.31705(11)
H25_28 H 0.8653 0.6863 0.3092
C39_28 C 0.85031(12) 0.64542(11) 0.28541(11)
C40_28 C 0.84085(10) 0.69262(10) 0.33857(10)
C41_28 C 0.81985(11) 0.68295(11) 0.35048(9)
H26_28 H 0.8137 0.6908 0.3653
C42_28 C 0.85458(11) 0.71459(11) 0.35031(12)
C31_29 C 0.65915(10) 0.80738(10) 0.33857(10)
C32_29 C 0.68015(11) 0.81705(11) 0.35048(9)
H17_29 H 0.6863 0.8092 0.3653
C33_29 C 0.64542(11) 0.78541(11) 0.35031(12)
C37_29 C 0.69262(10) 0.83857(10) 0.34085(10)
C38_29 C 0.68295(11) 0.85048(9) 0.31985(11)
H25_29 H 0.6908 0.8653 0.3137
C39_29 C 0.71459(11) 0.85031(12) 0.35458(11)
C40_29 C 0.66143(10) 0.84085(10) 0.30738(10)
C41_29 C 0.64952(9) 0.81985(11) 0.31705(11)
H26_29 H 0.6347 0.8137 0.3092
C42_29 C 0.64969(12) 0.85458(11) 0.28541(11)
C31_30 C 0.65915(10) 0.19262(10) 0.66143(10)
C32_30 C 0.68015(11) 0.18295(11) 0.64952(9)
H17_30 H 0.6863 0.1908 0.6347
C33_30 C 0.64542(11) 0.21459(11) 0.64969(12)
C37_30 C 0.69262(10) 0.16143(10) 0.65915(10)
C38_30 C 0.68295(11) 0.14952(9) 0.68015(11)
H25_30 H 0.6908 0.1347 0.6863
C39_30 C 0.71459(11) 0.14969(12) 0.64542(11)
C40_30 C 0.66143(10) 0.15915(10) 0.69262(10)
C41_30 C 0.64952(9) 0.18015(11) 0.68295(11)
H26_30 H 0.6347 0.1863 0.6908
C42_30 C 0.64969(12) 0.14542(11) 0.71459(11)
C31_31 C 0.34085(10) 0.19262(10) 0.33857(10)
C32_31 C 0.31985(11) 0.18295(11) 0.35048(9)
H17_31 H 0.3137 0.1908 0.3653
C33_31 C 0.35458(11) 0.21459(11) 0.35031(12)
C37_31 C 0.30738(10) 0.16143(10) 0.34085(10)
C38_31 C 0.31705(11) 0.14952(9) 0.31985(11)
H25_31 H 0.3092 0.1347 0.3137
C39_31 C 0.28541(11) 0.14969(12) 0.35458(11)
C40_31 C 0.33857(10) 0.15915(10) 0.30738(10)
C41_31 C 0.35048(9) 0.18015(11) 0.31705(11)
H26_31 H 0.3653 0.1863 0.3092
C42_31 C 0.35031(12) 0.14542(11) 0.28541(11)
C31_32 C 0.34085(10) 0.80738(10) 0.66143(10)
C32_32 C 0.31985(11) 0.81705(11) 0.64952(9)
H17_32 H 0.3137 0.8092 0.6347
C33_32 C 0.35458(11) 0.78541(11) 0.64969(12)
C37_32 C 0.30738(10) 0.83857(10) 0.65915(10)
C38_32 C 0.31705(11) 0.85048(9) 0.68015(11)
H25_32 H 0.3092 0.8653 0.6863
C39_32 C 0.28541(11) 0.85031(12) 0.64542(11)
C40_32 C 0.33857(10) 0.84085(10) 0.69262(10)
C41_32 C 0.35048(9) 0.81985(11) 0.68295(11)
H26_32 H 0.3653 0.8137 0.6908
C42_32 C 0.35031(12) 0.85458(11) 0.71459(11)
C10_13 C 0.84085(10) 0.16143(10) 0.69262(10)
C11_13 C 0.81985(11) 0.14952(9) 0.68295(11)
H4_13 H 0.8137 0.1347 0.6908
C12_13 C 0.85458(11) 0.14969(12) 0.71459(11)
C16_13 C 0.80738(10) 0.15915(10) 0.66143(10)
C17_13 C 0.81705(11) 0.18015(11) 0.64952(9)
H12_13 H 0.8092 0.1863 0.6347
C18_13 C 0.78541(11) 0.14542(11) 0.64969(12)
C19_13 C 0.83857(10) 0.19262(10) 0.65915(10)
C20_13 C 0.85048(9) 0.18295(11) 0.68015(11)
H13_13 H 0.8653 0.1908 0.6863
C21_13 C 0.85031(12) 0.21459(11) 0.64542(11)
C31_33 C 0.83857(10) 0.30738(10) 0.84085(10)
C32_33 C 0.85048(9) 0.31705(11) 0.81985(11)
H17_33 H 0.8653 0.3092 0.8137
C33_33 C 0.85031(12) 0.28541(11) 0.85458(11)
C37_33 C 0.84085(10) 0.33857(10) 0.80738(10)
C38_33 C 0.81985(11) 0.35048(9) 0.81705(11)
H25_33 H 0.8137 0.3653 0.8092
C39_33 C 0.85458(11) 0.35031(12) 0.78541(11)
C40_33 C 0.80738(10) 0.34085(10) 0.83857(10)
C41_33 C 0.81705(11) 0.31985(11) 0.85048(9)
H26_33 H 0.8092 0.3137 0.8653
C42_33 C 0.78541(11) 0.35458(11) 0.85031(12)
C10_14 C 0.15915(10) 0.83857(10) 0.69262(10)
C11_14 C 0.18015(11) 0.85048(9) 0.68295(11)
H4_14 H 0.1863 0.8653 0.6908
C12_14 C 0.14542(11) 0.85031(12) 0.71459(11)
C16_14 C 0.19262(10) 0.84085(10) 0.66143(10)
C17_14 C 0.18295(11) 0.81985(11) 0.64952(9)
H12_14 H 0.1908 0.8137 0.6347
C18_14 C 0.21459(11) 0.85458(11) 0.64969(12)
C19_14 C 0.16143(10) 0.80738(10) 0.65915(10)
C20_14 C 0.14952(9) 0.81705(11) 0.68015(11)
H13_14 H 0.1347 0.8092 0.6863
C21_14 C 0.14969(12) 0.78541(11) 0.64542(11)
C31_34 C 0.16143(10) 0.69262(10) 0.84085(10)
C32_34 C 0.14952(9) 0.68295(11) 0.81985(11)
H17_34 H 0.1347 0.6908 0.8137
C33_34 C 0.14969(12) 0.71459(11) 0.85458(11)
C37_34 C 0.15915(10) 0.66143(10) 0.80738(10)
C38_34 C 0.18015(11) 0.64952(9) 0.81705(11)
H25_34 H 0.1863 0.6347 0.8092
C39_34 C 0.14542(11) 0.64969(12) 0.78541(11)
C40_34 C 0.19262(10) 0.65915(10) 0.83857(10)
C41_34 C 0.18295(11) 0.68015(11) 0.85048(9)
H26_34 H 0.1908 0.6863 0.8653
C42_34 C 0.21459(11) 0.64542(11) 0.85031(12)
C10_15 C 0.84085(10) 0.83857(10) 0.30738(10)
C11_15 C 0.81985(11) 0.85048(9) 0.31705(11)
H4_15 H 0.8137 0.8653 0.3092
C12_15 C 0.85458(11) 0.85031(12) 0.28541(11)
C16_15 C 0.80738(10) 0.84085(10) 0.33857(10)
C17_15 C 0.81705(11) 0.81985(11) 0.35048(9)
H12_15 H 0.8092 0.8137 0.3653
C18_15 C 0.78541(11) 0.85458(11) 0.35031(12)
C19_15 C 0.83857(10) 0.80738(10) 0.34085(10)
C20_15 C 0.85048(9) 0.81705(11) 0.31985(11)
H13_15 H 0.8653 0.8092 0.3137
C21_15 C 0.85031(12) 0.78541(11) 0.35458(11)
C31_35 C 0.83857(10) 0.69262(10) 0.15915(10)
C32_35 C 0.85048(9) 0.68295(11) 0.18015(11)
H17_35 H 0.8653 0.6908 0.1863
C33_35 C 0.85031(12) 0.71459(11) 0.14542(11)
C37_35 C 0.84085(10) 0.66143(10) 0.19262(10)
C38_35 C 0.81985(11) 0.64952(9) 0.18295(11)
H25_35 H 0.8137 0.6347 0.1908
C39_35 C 0.85458(11) 0.64969(12) 0.21459(11)
C40_35 C 0.80738(10) 0.65915(10) 0.16143(10)
C41_35 C 0.81705(11) 0.68015(11) 0.14952(9)
H26_35 H 0.8092 0.6863 0.1347
C42_35 C 0.78541(11) 0.64542(11) 0.14969(12)
C10_16 C 0.15915(10) 0.16143(10) 0.30738(10)
C11_16 C 0.18015(11) 0.14952(9) 0.31705(11)
H4_16 H 0.1863 0.1347 0.3092
C12_16 C 0.14542(11) 0.14969(12) 0.28541(11)
C16_16 C 0.19262(10) 0.15915(10) 0.33857(10)
C17_16 C 0.18295(11) 0.18015(11) 0.35048(9)
H12_16 H 0.1908 0.1863 0.3653
C18_16 C 0.21459(11) 0.14542(11) 0.35031(12)
C19_16 C 0.16143(10) 0.19262(10) 0.34085(10)
C20_16 C 0.14952(9) 0.18295(11) 0.31985(11)
H13_16 H 0.1347 0.1908 0.3137
C21_16 C 0.14969(12) 0.21459(11) 0.35458(11)
C31_36 C 0.16143(10) 0.30738(10) 0.15915(10)
C32_36 C 0.14952(9) 0.31705(11) 0.18015(11)
H17_36 H 0.1347 0.3092 0.1863
C33_36 C 0.14969(12) 0.28541(11) 0.14542(11)
C37_36 C 0.15915(10) 0.33857(10) 0.19262(10)
C38_36 C 0.18015(11) 0.35048(9) 0.18295(11)
H25_36 H 0.1863 0.3653 0.1908
C39_36 C 0.14542(11) 0.35031(12) 0.21459(11)
C40_36 C 0.19262(10) 0.34085(10) 0.16143(10)
C41_36 C 0.18295(11) 0.31985(11) 0.14952(9)
H26_36 H 0.1908 0.3137 0.1347
C42_36 C 0.21459(11) 0.35458(11) 0.14969(12)
C31_37 C 0.30738(10) 0.15915(10) 0.16143(10)
C32_37 C 0.31705(11) 0.18015(11) 0.14952(9)
H17_37 H 0.3092 0.1863 0.1347
C33_37 C 0.28541(11) 0.14542(11) 0.14969(12)
C37_37 C 0.33857(10) 0.19262(10) 0.15915(10)
C38_37 C 0.35048(9) 0.18295(11) 0.18015(11)
H25_37 H 0.3653 0.1908 0.1863
C39_37 C 0.35031(12) 0.21459(11) 0.14542(11)
C40_37 C 0.34085(10) 0.16143(10) 0.19262(10)
C41_37 C 0.31985(11) 0.14952(9) 0.18295(11)
H26_37 H 0.3137 0.1347 0.1908
C42_37 C 0.35458(11) 0.14969(12) 0.21459(11)
C31_38 C 0.69262(10) 0.15915(10) 0.83857(10)
C32_38 C 0.68295(11) 0.18015(11) 0.85048(9)
H17_38 H 0.6908 0.1863 0.8653
C33_38 C 0.71459(11) 0.14542(11) 0.85031(12)
C37_38 C 0.66143(10) 0.19262(10) 0.84085(10)
C38_38 C 0.64952(9) 0.18295(11) 0.81985(11)
H25_38 H 0.6347 0.1908 0.8137
C39_38 C 0.64969(12) 0.21459(11) 0.85458(11)
C40_38 C 0.65915(10) 0.16143(10) 0.80738(10)
C41_38 C 0.68015(11) 0.14952(9) 0.81705(11)
H26_38 H 0.6863 0.1347 0.8092
C42_38 C 0.64542(11) 0.14969(12) 0.78541(11)
C31_39 C 0.69262(10) 0.84085(10) 0.16143(10)
C32_39 C 0.68295(11) 0.81985(11) 0.14952(9)
H17_39 H 0.6908 0.8137 0.1347
C33_39 C 0.71459(11) 0.85458(11) 0.14969(12)
C37_39 C 0.66143(10) 0.80738(10) 0.15915(10)
C38_39 C 0.64952(9) 0.81705(11) 0.18015(11)
H25_39 H 0.6347 0.8092 0.1863
C39_39 C 0.64969(12) 0.78541(11) 0.14542(11)
C40_39 C 0.65915(10) 0.83857(10) 0.19262(10)
C41_39 C 0.68015(11) 0.85048(9) 0.18295(11)
H26_39 H 0.6863 0.8653 0.1908
C42_39 C 0.64542(11) 0.85031(12) 0.21459(11)
C31_40 C 0.30738(10) 0.84085(10) 0.83857(10)
C32_40 C 0.31705(11) 0.81985(11) 0.85048(9)
H17_40 H 0.3092 0.8137 0.8653
C33_40 C 0.28541(11) 0.85458(11) 0.85031(12)
C37_40 C 0.33857(10) 0.80738(10) 0.84085(10)
C38_40 C 0.35048(9) 0.81705(11) 0.81985(11)
H25_40 H 0.3653 0.8092 0.8137
C39_40 C 0.35031(12) 0.78541(11) 0.85458(11)
C40_40 C 0.34085(10) 0.83857(10) 0.80738(10)
C41_40 C 0.31985(11) 0.85048(9) 0.81705(11)
H26_40 H 0.3137 0.8653 0.8092
C42_40 C 0.35458(11) 0.85031(12) 0.78541(11)
C31_41 C 0.80738(10) 0.83857(10) 0.15915(10)
C32_41 C 0.81705(11) 0.85048(9) 0.18015(11)
H17_41 H 0.8092 0.8653 0.1863
C33_41 C 0.78541(11) 0.85031(12) 0.14542(11)
C37_41 C 0.83857(10) 0.84085(10) 0.19262(10)
C38_41 C 0.85048(9) 0.81985(11) 0.18295(11)
H25_41 H 0.8653 0.8137 0.1908
C39_41 C 0.85031(12) 0.85458(11) 0.21459(11)
C40_41 C 0.84085(10) 0.80738(10) 0.16143(10)
C41_41 C 0.81985(11) 0.81705(11) 0.14952(9)
H26_41 H 0.8137 0.8092 0.1347
C42_41 C 0.85458(11) 0.78541(11) 0.14969(12)
C31_42 C 0.19262(10) 0.16143(10) 0.15915(10)
C32_42 C 0.18295(11) 0.14952(9) 0.18015(11)
H17_42 H 0.1908 0.1347 0.1863
C33_42 C 0.21459(11) 0.14969(12) 0.14542(11)
C37_42 C 0.16143(10) 0.15915(10) 0.19262(10)
C38_42 C 0.14952(9) 0.18015(11) 0.18295(11)
H25_42 H 0.1347 0.1863 0.1908
C39_42 C 0.14969(12) 0.14542(11) 0.21459(11)
C40_42 C 0.15915(10) 0.19262(10) 0.16143(10)
C41_42 C 0.18015(11) 0.18295(11) 0.14952(9)
H26_42 H 0.1863 0.1908 0.1347
C42_42 C 0.14542(11) 0.21459(11) 0.14969(12)
C31_43 C 0.19262(10) 0.83857(10) 0.84085(10)
C32_43 C 0.18295(11) 0.85048(9) 0.81985(11)
H17_43 H 0.1908 0.8653 0.8137
C33_43 C 0.21459(11) 0.85031(12) 0.85458(11)
C37_43 C 0.16143(10) 0.84085(10) 0.80738(10)
C38_43 C 0.14952(9) 0.81985(11) 0.81705(11)
H25_43 H 0.1347 0.8137 0.8092
C39_43 C 0.14969(12) 0.85458(11) 0.78541(11)
C40_43 C 0.15915(10) 0.80738(10) 0.83857(10)
C41_43 C 0.18015(11) 0.81705(11) 0.85048(9)
H26_43 H 0.1863 0.8092 0.8653
C42_43 C 0.14542(11) 0.78541(11) 0.85031(12)
C31_44 C 0.80738(10) 0.16143(10) 0.84085(10)
C32_44 C 0.81705(11) 0.14952(9) 0.81985(11)
H17_44 H 0.8092 0.1347 0.8137
C33_44 C 0.78541(11) 0.14969(12) 0.85458(11)
C37_44 C 0.83857(10) 0.15915(10) 0.80738(10)
C38_44 C 0.85048(9) 0.18015(11) 0.81705(11)
H25_44 H 0.8653 0.1863 0.8092
C39_44 C 0.85031(12) 0.14542(11) 0.78541(11)
C40_44 C 0.84085(10) 0.19262(10) 0.83857(10)
C41_44 C 0.81985(11) 0.18295(11) 0.85048(9)
H26_44 H 0.8137 0.1908 0.8653
C42_44 C 0.85458(11) 0.21459(11) 0.85031(12)
C31_45 C 0.30738(10) 0.65915(10) 0.66143(10)
C32_45 C 0.31705(11) 0.68015(11) 0.64952(9)
H17_45 H 0.3092 0.6863 0.6347
C33_45 C 0.28541(11) 0.64542(11) 0.64969(12)
C37_45 C 0.33857(10) 0.69262(10) 0.65915(10)
C38_45 C 0.35048(9) 0.68295(11) 0.68015(11)
H25_45 H 0.3653 0.6908 0.6863
C39_45 C 0.35031(12) 0.71459(11) 0.64542(11)
C40_45 C 0.34085(10) 0.66143(10) 0.69262(10)
C41_45 C 0.31985(11) 0.64952(9) 0.68295(11)
H26_45 H 0.3137 0.6347 0.6908
C42_45 C 0.35458(11) 0.64969(12) 0.71459(11)
C31_46 C 0.69262(10) 0.65915(10) 0.33857(10)
C32_46 C 0.68295(11) 0.68015(11) 0.35048(9)
H17_46 H 0.6908 0.6863 0.3653
C33_46 C 0.71459(11) 0.64542(11) 0.35031(12)
C37_46 C 0.66143(10) 0.69262(10) 0.34085(10)
C38_46 C 0.64952(9) 0.68295(11) 0.31985(11)
H25_46 H 0.6347 0.6908 0.3137
C39_46 C 0.64969(12) 0.71459(11) 0.35458(11)
C40_46 C 0.65915(10) 0.66143(10) 0.30738(10)
C41_46 C 0.68015(11) 0.64952(9) 0.31705(11)
H26_46 H 0.6863 0.6347 0.3092
C42_46 C 0.64542(11) 0.64969(12) 0.28541(11)
C31_47 C 0.69262(10) 0.34085(10) 0.66143(10)
C32_47 C 0.68295(11) 0.31985(11) 0.64952(9)
H17_47 H 0.6908 0.3137 0.6347
C33_47 C 0.71459(11) 0.35458(11) 0.64969(12)
C37_47 C 0.66143(10) 0.30738(10) 0.65915(10)
C38_47 C 0.64952(9) 0.31705(11) 0.68015(11)
H25_47 H 0.6347 0.3092 0.6863
C39_47 C 0.64969(12) 0.28541(11) 0.64542(11)
C40_47 C 0.65915(10) 0.33857(10) 0.69262(10)
C41_47 C 0.68015(11) 0.35048(9) 0.68295(11)
H26_47 H 0.6863 0.3653 0.6908
C42_47 C 0.64542(11) 0.35031(12) 0.71459(11)
C31_48 C 0.30738(10) 0.34085(10) 0.33857(10)
C32_48 C 0.31705(11) 0.31985(11) 0.35048(9)
H17_48 H 0.3092 0.3137 0.3653
C33_48 C 0.28541(11) 0.35458(11) 0.35031(12)
C37_48 C 0.33857(10) 0.30738(10) 0.34085(10)
C38_48 C 0.35048(9) 0.31705(11) 0.31985(11)
H25_48 H 0.3653 0.3092 0.3137
C39_48 C 0.35031(12) 0.28541(11) 0.35458(11)
C40_48 C 0.34085(10) 0.33857(10) 0.30738(10)
C41_48 C 0.31985(11) 0.35048(9) 0.31705(11)
H26_48 H 0.3137 0.3653 0.3092
C42_48 C 0.35458(11) 0.35031(12) 0.28541(11)
loop_
_geom_bond_atom_site_label_1
_geom_bond_atom_site_label_2
_geom_bond_site_symmetry_1
_geom_bond_site_symmetry_2
Zn1 O1 1_555 1_555
Zn2 O2 1_555 1_555
Zn3 O4 1_555 1_555
O1 C7 1_555 1_555
O2 C7 1_555 1_555
O3 C8 1_555 1_555
O4 C8 1_555 1_555
O5 C9 1_555 1_555
O6 C9 1_555 1_555
O7 Zn3 1_555 1_555
O8 C12 1_555 1_555
O9 Zn1 1_555 1_555
O10 Zn2 1_555 1_555
O11 Zn3 1_555 1_555
N1 C13 1_555 1_555
C1 C2 1_555 1_555
C2 H1 1_555 1_555
C3 C2 1_555 1_555
C4 C3 1_555 1_555
H2 C4 1_555 1_555
C5 C4 1_555 1_555
C6 C1 1_555 1_555
H3 C6 1_555 1_555
C7 C1 1_555 1_555
C8 C3 1_555 1_555
C9 C5 1_555 1_555
C10 C11 1_555 1_555
C11 H4 1_555 1_555
C12 O7 1_555 1_555
C13 O11 1_555 1_555
H5 C13 1_555 1_555
C14 N1 1_555 1_555
H6 C14 1_555 1_555
H7 C14 1_555 1_555
H8 C14 1_555 1_555
C15 N1 1_555 1_555
H9 C15 1_555 1_555
H10 C15 1_555 1_555
H11 C15 1_555 1_555
O12 C18 1_555 1_555
O13 C18 1_555 1_555
C16 C11 1_555 1_555
C17 C16 1_555 1_555
H12 C17 1_555 1_555
C18 C16 1_555 1_555
O14 C21 1_555 1_555
O15 C21 1_555 1_555
C19 C17 1_555 1_555
C20 C10 1_555 1_555
H13 C20 1_555 1_555
C21 C19 1_555 1_555
Zn4 O16 1_555 1_555
Zn5 O17 1_555 1_555
Zn6 O19 1_555 1_555
O16 C28 1_555 1_555
O17 C28 1_555 1_555
O18 C29 1_555 1_555
O19 C29 1_555 1_555
O20 Zn2 1_555 1_555
O21 Zn1 1_555 1_555
O22 Zn6 1_555 1_555
O23 C33 1_555 1_555
O24 Zn4 1_555 1_555
O25 Zn5 1_555 1_555
O26 Zn6 1_555 1_555
N2 C34 1_555 1_555
C22 C23 1_555 1_555
C23 H14 1_555 1_555
C24 C23 1_555 1_555
C25 C24 1_555 1_555
H15 C25 1_555 1_555
C26 C25 1_555 1_555
C27 C22 1_555 1_555
H16 C27 1_555 1_555
C28 C22 1_555 1_555
C29 C24 1_555 1_555
C30 O20 1_555 1_555
C31 C32 1_555 1_555
C32 H17 1_555 1_555
C33 O22 1_555 1_555
C34 O26 1_555 1_555
H18 C34 1_555 1_555
C35 N2 1_555 1_555
H19 C35 1_555 1_555
H20 C35 1_555 1_555
H21 C35 1_555 1_555
C36 N2 1_555 1_555
H22 C36 1_555 1_555
H23 C36 1_555 1_555
H24 C36 1_555 1_555
O27 C39 1_555 1_555
O28 C39 1_555 1_555
C37 C32 1_555 1_555
C38 C37 1_555 1_555
H25 C38 1_555 1_555
C39 C37 1_555 1_555
O29 C42 1_555 1_555
O30 C42 1_555 1_555
C40 C38 1_555 1_555
C41 C31 1_555 1_555
H26 C41 1_555 1_555
C42 C40 1_555 1_555
Zn7 O6 1_555 1_555
Zn8 O5 1_555 1_555
Zn9 O34 1_555 1_555
O31 Zn7 1_555 1_555
O32 Zn8 1_555 1_555
O33 C50 1_555 1_555
O34 C50 1_555 1_555
O35 Zn5 1_555 1_555
O36 Zn4 1_555 1_555
O37 Zn7 1_555 1_555
O38 Zn8 1_555 1_555
O39 Zn9 1_555 1_555
N3 C52 1_555 1_555
C43 C44 1_555 1_555
C44 H27 1_555 1_555
C45 C44 1_555 1_555
C46 C45 1_555 1_555
H28 C46 1_555 1_555
C47 C46 1_555 1_555
C48 C43 1_555 1_555
H29 C48 1_555 1_555
C49 O31 1_555 1_555
C50 C45 1_555 1_555
C51 O35 1_555 1_555
C52 O39 1_555 1_555
H30 C52 1_555 1_555
C53 N3 1_555 1_555
H31 C53 1_555 1_555
H32 C53 1_555 1_555
H33 C53 1_555 1_555
C54 N3 1_555 1_555
H34 C54 1_555 1_555
H35 C54 1_555 1_555
H36 C54 1_555 1_555
Zn10 O12 1_555 1_555
O40 C61 1_555 1_555
O41 C61 1_555 1_555
O42 C62 1_555 1_555
O43 Zn10 1_555 1_555
O44 C63 1_555 1_555
O45 C63 1_555 1_555
O46 Zn10 1_555 1_555
N4 C64 1_555 1_555
C55 C56 1_555 1_555
C56 H37 1_555 1_555
C57 C56 1_555 1_555
C58 C57 1_555 1_555
H38 C58 1_555 1_555
C59 C58 1_555 1_555
C60 C55 1_555 1_555
H39 C60 1_555 1_555
C61 C55 1_555 1_555
C62 O43 1_555 1_555
C63 C59 1_555 1_555
C64 O46 1_555 1_555
H40 C64 1_555 1_555
C65 N4 1_555 1_555
H41 C65 1_555 1_555
H42 C65 1_555 1_555
H43 C65 1_555 1_555
C66 N4 1_555 1_555
H44 C66 1_555 1_555
H45 C66 1_555 1_555
H46 C66 1_555 1_555
Zn11 O28 1_555 1_555
O47 C73 1_555 1_555
O48 C73 1_555 1_555
O49 C74 1_555 1_555
O50 Zn11 1_555 1_555
O51 C75 1_555 1_555
O52 C75 1_555 1_555
O53 Zn11 1_555 1_555
N5 C76 1_555 1_555
C67 C68 1_555 1_555
C68 H47 1_555 1_555
C69 C68 1_555 1_555
C70 C69 1_555 1_555
H48 C70 1_555 1_555
C71 C70 1_555 1_555
C72 C67 1_555 1_555
H49 C72 1_555 1_555
C73 C67 1_555 1_555
C74 O50 1_555 1_555
C75 C71 1_555 1_555
C76 O53 1_555 1_555
H50 C76 1_555 1_555
C77 N5 1_555 1_555
H51 C77 1_555 1_555
H52 C77 1_555 1_555
H53 C77 1_555 1_555
C78 N5 1_555 1_555
H54 C78 1_555 1_555
H55 C78 1_555 1_555
H56 C78 1_555 1_555
Zn12 O57 1_555 1_555
O54 Zn1 1_555 1_555
O55 Zn2 1_555 1_555
O56 C86 1_555 1_555
O57 C86 1_555 1_555
O58 C87 1_555 1_555
O59 C87 1_555 1_555
O60 Zn12 1_555 1_555
N6 C88 1_555 1_555
C79 C80 1_555 1_555
C80 H57 1_555 1_555
C81 C80 1_555 1_555
C82 C81 1_555 1_555
H58 C82 1_555 1_555
C83 C82 1_555 1_555
C84 C79 1_555 1_555
H59 C84 1_555 1_555
C85 O54 1_555 1_555
C86 C81 1_555 1_555
C87 C83 1_555 1_555
C88 O60 1_555 1_555
H60 C88 1_555 1_555
C89 N6 1_555 1_555
H61 C89 1_555 1_555
H62 C89 1_555 1_555
H63 C89 1_555 1_555
C90 N6 1_555 1_555
H64 C90 1_555 1_555
H65 C90 1_555 1_555
H66 C90 1_555 1_555
Zn13 O59 1_555 1_555
Zn14 O45 1_555 1_555
Zn15 O40 1_555 1_555
Zn16 O47 1_555 1_555
Zn17 O52 1_555 1_555
Zn18 O58 1_555 1_555
Zn19 O44 1_555 1_555
Zn20 O41 1_555 1_555
Zn21 O48 1_555 1_555
Zn22 O51 1_555 1_555
Zn23 O30 1_555 1_555
Zn24 O18 1_555 1_555
Zn25 O27 1_555 1_555
Zn26 O14 1_555 1_555
Zn27 O33 1_555 1_555
Zn28 O29 1_555 1_555
Zn29 O3 1_555 1_555
Zn30 O13 1_555 1_555
Zn31 O15 1_555 1_555
Zn32 O56 1_555 1_555
O61 Zn4 1_555 1_555
O62 Zn7 1_555 1_555
O63 Zn5 1_555 1_555
O64 Zn8 1_555 1_555
O65 Zn6 1_555 1_555
O66 Zn11 1_555 1_555
O67 Zn9 1_555 1_555
O68 Zn3 1_555 1_555
O69 Zn10 1_555 1_555
O70 Zn12 1_555 1_555
O71 Zn8 1_555 1_555
O72 Zn2 1_555 1_555
O73 Zn5 1_555 1_555
O74 Zn7 1_555 1_555
O75 Zn1 1_555 1_555
O76 Zn4 1_555 1_555
O77 Zn9 1_555 1_555
O78 Zn11 1_555 1_555
O79 Zn12 1_555 1_555
O80 Zn6 1_555 1_555
O81 Zn9 1_555 1_555
O82 Zn3 1_555 1_555
O83 Zn10 1_555 1_555
O84 Zn12 1_555 1_555
O8 Zn29 1_555 1_555
C5 C6 1_555 1_555
C10 C12 1_555 1_555
C19 C20 1_555 1_555
O21 C30 1_555 1_555
O23 Zn24 1_555 1_555
C26 C27 1_555 1_555
C26 C30 1_555 1_555
C31 C33 1_555 1_555
C40 C41 1_555 1_555
O32 C49 1_555 1_555
O36 C51 1_555 1_555
C43 C49 1_555 1_555
C47 C48 1_555 1_555
C47 C51 1_555 1_555
O42 Zn30 1_555 1_555
C57 C62 1_555 1_555
C59 C60 1_555 1_555
O49 Zn25 1_555 1_555
C69 C74 1_555 1_555
C71 C72 1_555 1_555
O55 C85 1_555 1_555
C79 C85 1_555 1_555
C83 C84 1_555 1_555
Zn1_2 O1_2 1_555 1_555
Zn2_2 O2_2 1_555 1_555
Zn3_2 O4_2 1_555 1_555
O1_2 C7_2 1_555 1_555
O2_2 C7_2 1_555 1_555
O3_2 C8_2 1_555 1_555
O4_2 C8_2 1_555 1_555
O5_2 C9_2 1_555 1_555
O6_2 C9_2 1_555 1_555
O7_2 Zn3_2 1_555 1_555
O8_2 C12_2 1_555 1_555
O9_2 Zn1_2 1_555 1_555
O10_2 Zn2_2 1_555 1_555
O11_2 Zn3_2 1_555 1_555
N1_2 C13_2 1_555 1_555
C1_2 C2_2 1_555 1_555
C2_2 H1_2 1_555 1_555
C3_2 C2_2 1_555 1_555
C4_2 C3_2 1_555 1_555
H2_2 C4_2 1_555 1_555
C5_2 C4_2 1_555 1_555
C6_2 C1_2 1_555 1_555
H3_2 C6_2 1_555 1_555
C7_2 C1_2 1_555 1_555
C8_2 C3_2 1_555 1_555
C9_2 C5_2 1_555 1_555
C10_2 C11_2 1_555 1_555
C11_2 H4_2 1_555 1_555
C12_2 O7_2 1_555 1_555
C13_2 O11_2 1_555 1_555
H5_2 C13_2 1_555 1_555
C14_2 N1_2 1_555 1_555
H6_2 C14_2 1_555 1_555
H7_2 C14_2 1_555 1_555
H8_2 C14_2 1_555 1_555
C15_2 N1_2 1_555 1_555
H9_2 C15_2 1_555 1_555
H10_2 C15_2 1_555 1_555
H11_2 C15_2 1_555 1_555
O12_2 C18_2 1_555 1_555
O13_2 C18_2 1_555 1_555
C16_2 C11_2 1_555 1_555
C17_2 C16_2 1_555 1_555
H12_2 C17_2 1_555 1_555
C18_2 C16_2 1_555 1_555
O14_2 C21_2 1_555 1_555
O15_2 C21_2 1_555 1_555
C19_2 C17_2 1_555 1_555
C20_2 C10_2 1_555 1_555
H13_2 C20_2 1_555 1_555
C21_2 C19_2 1_555 1_555
Zn4_2 O16_2 1_555 1_555
Zn5_2 O17_2 1_555 1_555
Zn6_2 O19_2 1_555 1_555
O16_2 C28_2 1_555 1_555
O17_2 C28_2 1_555 1_555
O18_2 C29_2 1_555 1_555
O19_2 C29_2 1_555 1_555
O20_2 Zn2_2 1_555 1_555
O21_2 Zn1_2 1_555 1_555
O22_2 Zn6_2 1_555 1_555
O23_2 C33_2 1_555 1_555
O24_2 Zn4_2 1_555 1_555
O25_2 Zn5_2 1_555 1_555
O26_2 Zn6_2 1_555 1_555
N2_2 C34_2 1_555 1_555
C22_2 C23_2 1_555 1_555
C23_2 H14_2 1_555 1_555
C24_2 C23_2 1_555 1_555
C25_2 C24_2 1_555 1_555
H15_2 C25_2 1_555 1_555
C26_2 C25_2 1_555 1_555
C27_2 C22_2 1_555 1_555
H16_2 C27_2 1_555 1_555
C28_2 C22_2 1_555 1_555
C29_2 C24_2 1_555 1_555
C30_2 O20_2 1_555 1_555
C31_2 C32_2 1_555 1_555
C32_2 H17_2 1_555 1_555
C33_2 O22_2 1_555 1_555
C34_2 O26_2 1_555 1_555
H18_2 C34_2 1_555 1_555
C35_2 N2_2 1_555 1_555
H19_2 C35_2 1_555 1_555
H20_2 C35_2 1_555 1_555
H21_2 C35_2 1_555 1_555
C36_2 N2_2 1_555 1_555
H22_2 C36_2 1_555 1_555
H23_2 C36_2 1_555 1_555
H24_2 C36_2 1_555 1_555
O27_2 C39_2 1_555 1_555
O28_2 C39_2 1_555 1_555
C37_2 C32_2 1_555 1_555
C38_2 C37_2 1_555 1_555
H25_2 C38_2 1_555 1_555
C39_2 C37_2 1_555 1_555
O29_2 C42_2 1_555 1_555
O30_2 C42_2 1_555 1_555
C40_2 C38_2 1_555 1_555
C41_2 C31_2 1_555 1_555
H26_2 C41_2 1_555 1_555
C42_2 C40_2 1_555 1_555
Zn13 O6_2 1_555 1_555
Zn18 O5_2 1_555 1_555
Zn9_2 O34_2 1_555 1_555
O31_2 Zn13 1_555 1_555
O32_2 Zn18 1_555 1_555
O33_2 C50_2 1_555 1_555
O34_2 C50_2 1_555 1_555
O35_2 Zn5_2 1_555 1_555
O36_2 Zn4_2 1_555 1_555
O37_2 Zn13 1_555 1_555
O38_2 Zn18 1_555 1_555
O39_2 Zn9_2 1_555 1_555
N3_2 C52_2 1_555 1_555
C43_2 C44_2 1_555 1_555
C44_2 H27_2 1_555 1_555
C45_2 C44_2 1_555 1_555
C46_2 C45_2 1_555 1_555
H28_2 C46_2 1_555 1_555
C47_2 C46_2 1_555 1_555
C48_2 C43_2 1_555 1_555
H29_2 C48_2 1_555 1_555
C49_2 O31_2 1_555 1_555
C50_2 C45_2 1_555 1_555
C51_2 O35_2 1_555 1_555
C52_2 O39_2 1_555 1_555
H30_2 C52_2 1_555 1_555
C53_2 N3_2 1_555 1_555
H31_2 C53_2 1_555 1_555
H32_2 C53_2 1_555 1_555
H33_2 C53_2 1_555 1_555
C54_2 N3_2 1_555 1_555
H34_2 C54_2 1_555 1_555
H35_2 C54_2 1_555 1_555
H36_2 C54_2 1_555 1_555
Zn10_2 O12_2 1_555 1_555
O40_2 C61_2 1_555 1_555
O41_2 C61_2 1_555 1_555
O42_2 C62_2 1_555 1_555
O43_2 Zn10_2 1_555 1_555
O44_2 C63_2 1_555 1_555
O45_2 C63_2 1_555 1_555
O46_2 Zn10_2 1_555 1_555
N4_2 C64_2 1_555 1_555
C55_2 C56_2 1_555 1_555
C56_2 H37_2 1_555 1_555
C57_2 C56_2 1_555 1_555
C58_2 C57_2 1_555 1_555
H38_2 C58_2 1_555 1_555
C59_2 C58_2 1_555 1_555
C60_2 C55_2 1_555 1_555
H39_2 C60_2 1_555 1_555
C61_2 C55_2 1_555 1_555
C62_2 O43_2 1_555 1_555
C63_2 C59_2 1_555 1_555
C64_2 O46_2 1_555 1_555
H40_2 C64_2 1_555 1_555
C65_2 N4_2 1_555 1_555
H41_2 C65_2 1_555 1_555
H42_2 C65_2 1_555 1_555
H43_2 C65_2 1_555 1_555
C66_2 N4_2 1_555 1_555
H44_2 C66_2 1_555 1_555
H45_2 C66_2 1_555 1_555
H46_2 C66_2 1_555 1_555
Zn11_2 O28_2 1_555 1_555
O47_2 C73_2 1_555 1_555
O48_2 C73_2 1_555 1_555
O49_2 C74_2 1_555 1_555
O50_2 Zn11_2 1_555 1_555
O51_2 C75_2 1_555 1_555
O52_2 C75_2 1_555 1_555
O53_2 Zn11_2 1_555 1_555
N5_2 C76_2 1_555 1_555
C67_2 C68_2 1_555 1_555
C68_2 H47_2 1_555 1_555
C69_2 C68_2 1_555 1_555
C70_2 C69_2 1_555 1_555
H48_2 C70_2 1_555 1_555
C71_2 C70_2 1_555 1_555
C72_2 C67_2 1_555 1_555
H49_2 C72_2 1_555 1_555
C73_2 C67_2 1_555 1_555
C74_2 O50_2 1_555 1_555
C75_2 C71_2 1_555 1_555
C76_2 O53_2 1_555 1_555
H50_2 C76_2 1_555 1_555
C77_2 N5_2 1_555 1_555
H51_2 C77_2 1_555 1_555
H52_2 C77_2 1_555 1_555
H53_2 C77_2 1_555 1_555
C78_2 N5_2 1_555 1_555
H54_2 C78_2 1_555 1_555
H55_2 C78_2 1_555 1_555
H56_2 C78_2 1_555 1_555
Zn12_2 O57_2 1_555 1_555
O54_2 Zn1_2 1_555 1_555
O55_2 Zn2_2 1_555 1_555
O56_2 C86_2 1_555 1_555
O57_2 C86_2 1_555 1_555
O71 C87_2 1_555 1_555
O74 C87_2 1_555 1_555
O60_2 Zn12_2 1_555 1_555
N6_2 C88_2 1_555 1_555
C79_2 C80_2 1_555 1_555
C80_2 H57_2 1_555 1_555
C81_2 C80_2 1_555 1_555
C82_2 C81_2 1_555 1_555
H58_2 C82_2 1_555 1_555
C83_2 C82_2 1_555 1_555
C84_2 C79_2 1_555 1_555
H59_2 C84_2 1_555 1_555
C85_2 O54_2 1_555 1_555
C86_2 C81_2 1_555 1_555
C87_2 C83_2 1_555 1_555
C88_2 O60_2 1_555 1_555
H60_2 C88_2 1_555 1_555
C89_2 N6_2 1_555 1_555
H61_2 C89_2 1_555 1_555
H62_2 C89_2 1_555 1_555
H63_2 C89_2 1_555 1_555
C90_2 N6_2 1_555 1_555
H64_2 C90_2 1_555 1_555
H65_2 C90_2 1_555 1_555
H66_2 C90_2 1_555 1_555
Zn14_3 O45_2 1_555 1_555
Zn15_2 O40_2 1_555 1_555
Zn16_4 O47_2 1_555 1_555
Zn17_2 O52_2 1_555 1_555
Zn19_3 O44_2 1_555 1_555
Zn20_2 O41_2 1_555 1_555
Zn21_4 O48_2 1_555 1_555
Zn22_2 O51_2 1_555 1_555
Zn23_2 O30_2 1_555 1_555
Zn24_2 O18_2 1_555 1_555
Zn25_2 O27_2 1_555 1_555
Zn26_2 O14_2 1_555 1_555
Zn27_2 O33_2 1_555 1_555
Zn28_2 O29_2 1_555 1_555
Zn29_2 O3_2 1_555 1_555
Zn30_2 O13_2 1_555 1_555
Zn31_2 O15_2 1_555 1_555
Zn32_2 O56_2 1_555 1_555
O61_2 Zn4_2 1_555 1_555
O62_2 Zn13 1_555 1_555
O63_2 Zn5_2 1_555 1_555
O64_2 Zn18 1_555 1_555
O65_2 Zn6_2 1_555 1_555
O66_2 Zn11_2 1_555 1_555
O67_2 Zn9_2 1_555 1_555
O68_2 Zn3_2 1_555 1_555
O69_2 Zn10_2 1_555 1_555
O70_2 Zn12_2 1_555 1_555
O72_2 Zn2_2 1_555 1_555
O73_2 Zn5_2 1_555 1_555
O75_2 Zn1_2 1_555 1_555
O76_2 Zn4_2 1_555 1_555
O77_2 Zn9_2 1_555 1_555
O78_2 Zn11_2 1_555 1_555
O79_2 Zn12_2 1_555 1_555
O80_2 Zn6_2 1_555 1_555
O81_2 Zn9_2 1_555 1_555
O82_2 Zn3_2 1_555 1_555
O83_2 Zn10_2 1_555 1_555
O84_2 Zn12_2 1_555 1_555
O8_2 Zn29_2 1_555 1_555
C5_2 C6_2 1_555 1_555
C10_2 C12_2 1_555 1_555
C19_2 C20_2 1_555 1_555
O21_2 C30_2 1_555 1_555
O23_2 Zn24_2 1_555 1_555
C26_2 C27_2 1_555 1_555
C26_2 C30_2 1_555 1_555
C31_2 C33_2 1_555 1_555
C40_2 C41_2 1_555 1_555
O32_2 C49_2 1_555 1_555
O36_2 C51_2 1_555 1_555
C43_2 C49_2 1_555 1_555
C47_2 C48_2 1_555 1_555
C47_2 C51_2 1_555 1_555
O42_2 Zn30_2 1_555 1_555
C57_2 C62_2 1_555 1_555
C59_2 C60_2 1_555 1_555
O49_2 Zn25_2 1_555 1_555
C69_2 C74_2 1_555 1_555
C71_2 C72_2 1_555 1_555
O55_2 C85_2 1_555 1_555
C79_2 C85_2 1_555 1_555
C83_2 C84_2 1_555 1_555
Zn1_3 O1_3 1_555 1_555
Zn2_3 O2_3 1_555 1_555
Zn3_3 O4_3 1_555 1_555
O1_3 C7_3 1_555 1_555
O2_3 C7_3 1_555 1_555
O3_3 C8_3 1_555 1_555
O4_3 C8_3 1_555 1_555
O5_3 C9_3 1_555 1_555
O6_3 C9_3 1_555 1_555
O7_3 Zn3_3 1_555 1_555
O8_3 C12_3 1_555 1_555
O9_3 Zn1_3 1_555 1_555
O10_3 Zn2_3 1_555 1_555
O11_3 Zn3_3 1_555 1_555
N1_3 C13_3 1_555 1_555
C1_3 C2_3 1_555 1_555
C2_3 H1_3 1_555 1_555
C3_3 C2_3 1_555 1_555
C4_3 C3_3 1_555 1_555
H2_3 C4_3 1_555 1_555
C5_3 C4_3 1_555 1_555
C6_3 C1_3 1_555 1_555
H3_3 C6_3 1_555 1_555
C7_3 C1_3 1_555 1_555
C8_3 C3_3 1_555 1_555
C9_3 C5_3 1_555 1_555
C10_3 C11_3 1_555 1_555
C11_3 H4_3 1_555 1_555
C12_3 O7_3 1_555 1_555
C13_3 O11_3 1_555 1_555
H5_3 C13_3 1_555 1_555
C14_3 N1_3 1_555 1_555
H6_3 C14_3 1_555 1_555
H7_3 C14_3 1_555 1_555
H8_3 C14_3 1_555 1_555
C15_3 N1_3 1_555 1_555
H9_3 C15_3 1_555 1_555
H10_3 C15_3 1_555 1_555
H11_3 C15_3 1_555 1_555
O12_3 C18_3 1_555 1_555
O13_3 C18_3 1_555 1_555
C16_3 C11_3 1_555 1_555
C17_3 C16_3 1_555 1_555
H12_3 C17_3 1_555 1_555
C18_3 C16_3 1_555 1_555
O14_3 C21_3 1_555 1_555
O15_3 C21_3 1_555 1_555
C19_3 C17_3 1_555 1_555
C20_3 C10_3 1_555 1_555
H13_3 C20_3 1_555 1_555
C21_3 C19_3 1_555 1_555
Zn4_3 O16_3 1_555 1_555
Zn5_3 O17_3 1_555 1_555
Zn6_3 O19_3 1_555 1_555
O16_3 C28_3 1_555 1_555
O17_3 C28_3 1_555 1_555
O18_3 C29_3 1_555 1_555
O19_3 C29_3 1_555 1_555
O20_3 Zn2_3 1_555 1_555
O21_3 Zn1_3 1_555 1_555
O22_3 Zn6_3 1_555 1_555
O23_3 C33_3 1_555 1_555
O24_3 Zn4_3 1_555 1_555
O25_3 Zn5_3 1_555 1_555
O26_3 Zn6_3 1_555 1_555
N2_3 C34_3 1_555 1_555
C22_3 C23_3 1_555 1_555
C23_3 H14_3 1_555 1_555
C24_3 C23_3 1_555 1_555
C25_3 C24_3 1_555 1_555
H15_3 C25_3 1_555 1_555
C26_3 C25_3 1_555 1_555
C27_3 C22_3 1_555 1_555
H16_3 C27_3 1_555 1_555
C28_3 C22_3 1_555 1_555
C29_3 C24_3 1_555 1_555
C30_3 O20_3 1_555 1_555
C31_3 C32_3 1_555 1_555
C32_3 H17_3 1_555 1_555
C33_3 O22_3 1_555 1_555
C34_3 O26_3 1_555 1_555
H18_3 C34_3 1_555 1_555
C35_3 N2_3 1_555 1_555
H19_3 C35_3 1_555 1_555
H20_3 C35_3 1_555 1_555
H21_3 C35_3 1_555 1_555
C36_3 N2_3 1_555 1_555
H22_3 C36_3 1_555 1_555
H23_3 C36_3 1_555 1_555
H24_3 C36_3 1_555 1_555
O27_3 C39_3 1_555 1_555
O28_3 C39_3 1_555 1_555
C37_3 C32_3 1_555 1_555
C38_3 C37_3 1_555 1_555
H25_3 C38_3 1_555 1_555
C39_3 C37_3 1_555 1_555
O29_3 C42_3 1_555 1_555
O30_3 C42_3 1_555 1_555
C40_3 C38_3 1_555 1_555
C41_3 C31_3 1_555 1_555
H26_3 C41_3 1_555 1_555
C42_3 C40_3 1_555 1_555
Zn7_2 O6_3 1_555 1_555
Zn8_2 O5_3 1_555 1_555
Zn9_3 O34_3 1_555 1_555
O31_3 Zn7_2 1_555 1_555
O32_3 Zn8_2 1_555 1_555
O33_3 C50_3 1_555 1_555
O34_3 C50_3 1_555 1_555
O35_3 Zn5_3 1_555 1_555
O36_3 Zn4_3 1_555 1_555
O37_3 Zn7_2 1_555 1_555
O38_3 Zn8_2 1_555 1_555
O39_3 Zn9_3 1_555 1_555
N3_3 C52_3 1_555 1_555
C43_3 C44_3 1_555 1_555
C44_3 H27_3 1_555 1_555
C45_3 C44_3 1_555 1_555
C46_3 C45_3 1_555 1_555
H28_3 C46_3 1_555 1_555
C47_3 C46_3 1_555 1_555
C48_3 C43_3 1_555 1_555
H29_3 C48_3 1_555 1_555
C49_3 O31_3 1_555 1_555
C50_3 C45_3 1_555 1_555
C51_3 O35_3 1_555 1_555
C52_3 O39_3 1_555 1_555
H30_3 C52_3 1_555 1_555
C53_3 N3_3 1_555 1_555
H31_3 C53_3 1_555 1_555
H32_3 C53_3 1_555 1_555
H33_3 C53_3 1_555 1_555
C54_3 N3_3 1_555 1_555
H34_3 C54_3 1_555 1_555
H35_3 C54_3 1_555 1_555
H36_3 C54_3 1_555 1_555
Zn10_3 O12_3 1_555 1_555
O40_3 C61_3 1_555 1_555
O41_3 C61_3 1_555 1_555
O42_3 C62_3 1_555 1_555
O43_3 Zn10_3 1_555 1_555
O44_3 C63_3 1_555 1_555
O45_3 C63_3 1_555 1_555
O46_3 Zn10_3 1_555 1_555
N4_3 C64_3 1_555 1_555
C55_3 C56_3 1_555 1_555
C56_3 H37_3 1_555 1_555
C57_3 C56_3 1_555 1_555
C58_3 C57_3 1_555 1_555
H38_3 C58_3 1_555 1_555
C59_3 C58_3 1_555 1_555
C60_3 C55_3 1_555 1_555
H39_3 C60_3 1_555 1_555
C61_3 C55_3 1_555 1_555
C62_3 O43_3 1_555 1_555
C63_3 C59_3 1_555 1_555
C64_3 O46_3 1_555 1_555
H40_3 C64_3 1_555 1_555
C65_3 N4_3 1_555 1_555
H41_3 C65_3 1_555 1_555
H42_3 C65_3 1_555 1_555
H43_3 C65_3 1_555 1_555
C66_3 N4_3 1_555 1_555
H44_3 C66_3 1_555 1_555
H45_3 C66_3 1_555 1_555
H46_3 C66_3 1_555 1_555
Zn11_3 O28_3 1_555 1_555
O47_3 C73_3 1_555 1_555
O48_3 C73_3 1_555 1_555
O49_3 C74_3 1_555 1_555
O50_3 Zn11_3 1_555 1_555
O51_3 C75_3 1_555 1_555
O52_3 C75_3 1_555 1_555
O53_3 Zn11_3 1_555 1_555
N5_3 C76_3 1_555 1_555
C67_3 C68_3 1_555 1_555
C68_3 H47_3 1_555 1_555
C69_3 C68_3 1_555 1_555
C70_3 C69_3 1_555 1_555
H48_3 C70_3 1_555 1_555
C71_3 C70_3 1_555 1_555
C72_3 C67_3 1_555 1_555
H49_3 C72_3 1_555 1_555
C73_3 C67_3 1_555 1_555
C74_3 O50_3 1_555 1_555
C75_3 C71_3 1_555 1_555
C76_3 O53_3 1_555 1_555
H50_3 C76_3 1_555 1_555
C77_3 N5_3 1_555 1_555
H51_3 C77_3 1_555 1_555
H52_3 C77_3 1_555 1_555
H53_3 C77_3 1_555 1_555
C78_3 N5_3 1_555 1_555
H54_3 C78_3 1_555 1_555
H55_3 C78_3 1_555 1_555
H56_3 C78_3 1_555 1_555
Zn12_3 O57_3 1_555 1_555
O54_3 Zn1_3 1_555 1_555
O55_3 Zn2_3 1_555 1_555
O56_3 C86_3 1_555 1_555
O57_3 C86_3 1_555 1_555
O58_2 C87_3 1_555 1_555
O59_2 C87_3 1_555 1_555
O60_3 Zn12_3 1_555 1_555
N6_3 C88_3 1_555 1_555
C79_3 C80_3 1_555 1_555
C80_3 H57_3 1_555 1_555
C81_3 C80_3 1_555 1_555
C82_3 C81_3 1_555 1_555
H58_3 C82_3 1_555 1_555
C83_3 C82_3 1_555 1_555
C84_3 C79_3 1_555 1_555
H59_3 C84_3 1_555 1_555
C85_3 O54_3 1_555 1_555
C86_3 C81_3 1_555 1_555
C87_3 C83_3 1_555 1_555
C88_3 O60_3 1_555 1_555
H60_3 C88_3 1_555 1_555
C89_3 N6_3 1_555 1_555
H61_3 C89_3 1_555 1_555
H62_3 C89_3 1_555 1_555
H63_3 C89_3 1_555 1_555
C90_3 N6_3 1_555 1_555
H64_3 C90_3 1_555 1_555
H65_3 C90_3 1_555 1_555
H66_3 C90_3 1_555 1_555
Zn13_2 O59_2 1_555 1_555
Zn14_6 O45_3 1_555 1_555
Zn15_3 O40_3 1_555 1_555
Zn16_6 O47_3 1_555 1_555
Zn17_3 O52_3 1_555 1_555
Zn18_2 O58_2 1_555 1_555
Zn19_6 O44_3 1_555 1_555
Zn20_3 O41_3 1_555 1_555
Zn21_6 O48_3 1_555 1_555
Zn22_3 O51_3 1_555 1_555
Zn23_3 O30_3 1_555 1_555
Zn24_3 O18_3 1_555 1_555
Zn25_3 O27_3 1_555 1_555
Zn26_3 O14_3 1_555 1_555
Zn27_3 O33_3 1_555 1_555
Zn28_3 O29_3 1_555 1_555
Zn29_3 O3_3 1_555 1_555
Zn30_3 O13_3 1_555 1_555
Zn31_3 O15_3 1_555 1_555
Zn32_3 O56_3 1_555 1_555
O61_3 Zn4_3 1_555 1_555
O62_3 Zn7_2 1_555 1_555
O63_3 Zn5_3 1_555 1_555
O64_3 Zn8_2 1_555 1_555
O65_3 Zn6_3 1_555 1_555
O66_3 Zn11_3 1_555 1_555
O67_3 Zn9_3 1_555 1_555
O68_3 Zn3_3 1_555 1_555
O69_3 Zn10_3 1_555 1_555
O70_3 Zn12_3 1_555 1_555
O71_2 Zn8_2 1_555 1_555
O72_3 Zn2_3 1_555 1_555
O73_3 Zn5_3 1_555 1_555
O74_2 Zn7_2 1_555 1_555
O75_3 Zn1_3 1_555 1_555
O76_3 Zn4_3 1_555 1_555
O77_3 Zn9_3 1_555 1_555
O78_3 Zn11_3 1_555 1_555
O79_3 Zn12_3 1_555 1_555
O80_3 Zn6_3 1_555 1_555
O81_3 Zn9_3 1_555 1_555
O82_3 Zn3_3 1_555 1_555
O83_3 Zn10_3 1_555 1_555
O84_3 Zn12_3 1_555 1_555
O8_3 Zn29_3 1_555 1_555
C5_3 C6_3 1_555 1_555
C10_3 C12_3 1_555 1_555
C19_3 C20_3 1_555 1_555
O21_3 C30_3 1_555 1_555
O23_3 Zn24_3 1_555 1_555
C26_3 C27_3 1_555 1_555
C26_3 C30_3 1_555 1_555
C31_3 C33_3 1_555 1_555
C40_3 C41_3 1_555 1_555
O32_3 C49_3 1_555 1_555
O36_3 C51_3 1_555 1_555
C43_3 C49_3 1_555 1_555
C47_3 C48_3 1_555 1_555
C47_3 C51_3 1_555 1_555
O42_3 Zn30_3 1_555 1_555
C57_3 C62_3 1_555 1_555
C59_3 C60_3 1_555 1_555
O49_3 Zn25_3 1_555 1_555
C69_3 C74_3 1_555 1_555
C71_3 C72_3 1_555 1_555
O55_3 C85_3 1_555 1_555
C79_3 C85_3 1_555 1_555
C83_3 C84_3 1_555 1_555
Zn1_4 O1_4 1_555 1_555
Zn2_4 O2_4 1_555 1_555
Zn3_4 O4_4 1_555 1_555
O1_4 C7_4 1_555 1_555
O2_4 C7_4 1_555 1_555
O3_4 C8_4 1_555 1_555
O4_4 C8_4 1_555 1_555
O5_4 C9_4 1_555 1_555
O6_4 C9_4 1_555 1_555
O7_4 Zn3_4 1_555 1_555
O8_4 C12_4 1_555 1_555
O9_4 Zn1_4 1_555 1_555
O10_4 Zn2_4 1_555 1_555
O11_4 Zn3_4 1_555 1_555
N1_4 C13_4 1_555 1_555
C1_4 C2_4 1_555 1_555
C2_4 H1_4 1_555 1_555
C3_4 C2_4 1_555 1_555
C4_4 C3_4 1_555 1_555
H2_4 C4_4 1_555 1_555
C5_4 C4_4 1_555 1_555
C6_4 C1_4 1_555 1_555
H3_4 C6_4 1_555 1_555
C7_4 C1_4 1_555 1_555
C8_4 C3_4 1_555 1_555
C9_4 C5_4 1_555 1_555
C10_4 C11_4 1_555 1_555
C11_4 H4_4 1_555 1_555
C12_4 O7_4 1_555 1_555
C13_4 O11_4 1_555 1_555
H5_4 C13_4 1_555 1_555
C14_4 N1_4 1_555 1_555
H6_4 C14_4 1_555 1_555
H7_4 C14_4 1_555 1_555
H8_4 C14_4 1_555 1_555
C15_4 N1_4 1_555 1_555
H9_4 C15_4 1_555 1_555
H10_4 C15_4 1_555 1_555
H11_4 C15_4 1_555 1_555
O12_4 C18_4 1_555 1_555
O13_4 C18_4 1_555 1_555
C16_4 C11_4 1_555 1_555
C17_4 C16_4 1_555 1_555
H12_4 C17_4 1_555 1_555
C18_4 C16_4 1_555 1_555
O14_4 C21_4 1_555 1_555
O15_4 C21_4 1_555 1_555
C19_4 C17_4 1_555 1_555
C20_4 C10_4 1_555 1_555
H13_4 C20_4 1_555 1_555
C21_4 C19_4 1_555 1_555
Zn4_4 O16_4 1_555 1_555
Zn5_4 O17_4 1_555 1_555
Zn6_4 O19_4 1_555 1_555
O16_4 C28_4 1_555 1_555
O17_4 C28_4 1_555 1_555
O18_4 C29_4 1_555 1_555
O19_4 C29_4 1_555 1_555
O20_4 Zn2_4 1_555 1_555
O21_4 Zn1_4 1_555 1_555
O22_4 Zn6_4 1_555 1_555
O23_4 C33_4 1_555 1_555
O24_4 Zn4_4 1_555 1_555
O25_4 Zn5_4 1_555 1_555
O26_4 Zn6_4 1_555 1_555
N2_4 C34_4 1_555 1_555
C22_4 C23_4 1_555 1_555
C23_4 H14_4 1_555 1_555
C24_4 C23_4 1_555 1_555
C25_4 C24_4 1_555 1_555
H15_4 C25_4 1_555 1_555
C26_4 C25_4 1_555 1_555
C27_4 C22_4 1_555 1_555
H16_4 C27_4 1_555 1_555
C28_4 C22_4 1_555 1_555
C29_4 C24_4 1_555 1_555
C30_4 O20_4 1_555 1_555
C31_4 C32_4 1_555 1_555
C32_4 H17_4 1_555 1_555
C33_4 O22_4 1_555 1_555
C34_4 O26_4 1_555 1_555
H18_4 C34_4 1_555 1_555
C35_4 N2_4 1_555 1_555
H19_4 C35_4 1_555 1_555
H20_4 C35_4 1_555 1_555
H21_4 C35_4 1_555 1_555
C36_4 N2_4 1_555 1_555
H22_4 C36_4 1_555 1_555
H23_4 C36_4 1_555 1_555
H24_4 C36_4 1_555 1_555
O27_4 C39_4 1_555 1_555
O28_4 C39_4 1_555 1_555
C37_4 C32_4 1_555 1_555
C38_4 C37_4 1_555 1_555
H25_4 C38_4 1_555 1_555
C39_4 C37_4 1_555 1_555
O29_4 C42_4 1_555 1_555
O30_4 C42_4 1_555 1_555
C40_4 C38_4 1_555 1_555
C41_4 C31_4 1_555 1_555
H26_4 C41_4 1_555 1_555
C42_4 C40_4 1_555 1_555
Zn13_2 O6_4 1_555 1_555
Zn18_2 O5_4 1_555 1_555
Zn9_4 O34_4 1_555 1_555
O31_4 Zn13_2 1_555 1_555
O32_4 Zn18_2 1_555 1_555
O33_4 C50_4 1_555 1_555
O34_4 C50_4 1_555 1_555
O35_4 Zn5_4 1_555 1_555
O36_4 Zn4_4 1_555 1_555
O37_4 Zn13_2 1_555 1_555
O38_4 Zn18_2 1_555 1_555
O39_4 Zn9_4 1_555 1_555
N3_4 C52_4 1_555 1_555
C43_4 C44_4 1_555 1_555
C44_4 H27_4 1_555 1_555
C45_4 C44_4 1_555 1_555
C46_4 C45_4 1_555 1_555
H28_4 C46_4 1_555 1_555
C47_4 C46_4 1_555 1_555
C48_4 C43_4 1_555 1_555
H29_4 C48_4 1_555 1_555
C49_4 O31_4 1_555 1_555
C50_4 C45_4 1_555 1_555
C51_4 O35_4 1_555 1_555
C52_4 O39_4 1_555 1_555
H30_4 C52_4 1_555 1_555
C53_4 N3_4 1_555 1_555
H31_4 C53_4 1_555 1_555
H32_4 C53_4 1_555 1_555
H33_4 C53_4 1_555 1_555
C54_4 N3_4 1_555 1_555
H34_4 C54_4 1_555 1_555
H35_4 C54_4 1_555 1_555
H36_4 C54_4 1_555 1_555
Zn10_4 O12_4 1_555 1_555
O40_4 C61_4 1_555 1_555
O41_4 C61_4 1_555 1_555
O42_4 C62_4 1_555 1_555
O43_4 Zn10_4 1_555 1_555
O44_4 C63_4 1_555 1_555
O45_4 C63_4 1_555 1_555
O46_4 Zn10_4 1_555 1_555
N4_4 C64_4 1_555 1_555
C55_4 C56_4 1_555 1_555
C56_4 H37_4 1_555 1_555
C57_4 C56_4 1_555 1_555
C58_4 C57_4 1_555 1_555
H38_4 C58_4 1_555 1_555
C59_4 C58_4 1_555 1_555
C60_4 C55_4 1_555 1_555
H39_4 C60_4 1_555 1_555
C61_4 C55_4 1_555 1_555
C62_4 O43_4 1_555 1_555
C63_4 C59_4 1_555 1_555
C64_4 O46_4 1_555 1_555
H40_4 C64_4 1_555 1_555
C65_4 N4_4 1_555 1_555
H41_4 C65_4 1_555 1_555
H42_4 C65_4 1_555 1_555
H43_4 C65_4 1_555 1_555
C66_4 N4_4 1_555 1_555
H44_4 C66_4 1_555 1_555
H45_4 C66_4 1_555 1_555
H46_4 C66_4 1_555 1_555
Zn11_4 O28_4 1_555 1_555
O47_4 C73_4 1_555 1_555
O48_4 C73_4 1_555 1_555
O49_4 C74_4 1_555 1_555
O50_4 Zn11_4 1_555 1_555
O51_4 C75_4 1_555 1_555
O52_4 C75_4 1_555 1_555
O53_4 Zn11_4 1_555 1_555
N5_4 C76_4 1_555 1_555
C67_4 C68_4 1_555 1_555
C68_4 H47_4 1_555 1_555
C69_4 C68_4 1_555 1_555
C70_4 C69_4 1_555 1_555
H48_4 C70_4 1_555 1_555
C71_4 C70_4 1_555 1_555
C72_4 C67_4 1_555 1_555
H49_4 C72_4 1_555 1_555
C73_4 C67_4 1_555 1_555
C74_4 O50_4 1_555 1_555
C75_4 C71_4 1_555 1_555
C76_4 O53_4 1_555 1_555
H50_4 C76_4 1_555 1_555
C77_4 N5_4 1_555 1_555
H51_4 C77_4 1_555 1_555
H52_4 C77_4 1_555 1_555
H53_4 C77_4 1_555 1_555
C78_4 N5_4 1_555 1_555
H54_4 C78_4 1_555 1_555
H55_4 C78_4 1_555 1_555
H56_4 C78_4 1_555 1_555
Zn12_4 O57_4 1_555 1_555
O54_4 Zn1_4 1_555 1_555
O55_4 Zn2_4 1_555 1_555
O56_4 C86_4 1_555 1_555
O57_4 C86_4 1_555 1_555
O71_2 C87_4 1_555 1_555
O74_2 C87_4 1_555 1_555
O60_4 Zn12_4 1_555 1_555
N6_4 C88_4 1_555 1_555
C79_4 C80_4 1_555 1_555
C80_4 H57_4 1_555 1_555
C81_4 C80_4 1_555 1_555
C82_4 C81_4 1_555 1_555
H58_4 C82_4 1_555 1_555
C83_4 C82_4 1_555 1_555
C84_4 C79_4 1_555 1_555
H59_4 C84_4 1_555 1_555
C85_4 O54_4 1_555 1_555
C86_4 C81_4 1_555 1_555
C87_4 C83_4 1_555 1_555
C88_4 O60_4 1_555 1_555
H60_4 C88_4 1_555 1_555
C89_4 N6_4 1_555 1_555
H61_4 C89_4 1_555 1_555
H62_4 C89_4 1_555 1_555
H63_4 C89_4 1_555 1_555
C90_4 N6_4 1_555 1_555
H64_4 C90_4 1_555 1_555
H65_4 C90_4 1_555 1_555
H66_4 C90_4 1_555 1_555
Zn14_8 O45_4 1_555 1_555
Zn15_4 O40_4 1_555 1_555
Zn16_7 O47_4 1_555 1_555
Zn17_4 O52_4 1_555 1_555
Zn19_8 O44_4 1_555 1_555
Zn20_4 O41_4 1_555 1_555
Zn21_7 O48_4 1_555 1_555
Zn22_4 O51_4 1_555 1_555
Zn23_4 O30_4 1_555 1_555
Zn24_4 O18_4 1_555 1_555
Zn25_4 O27_4 1_555 1_555
Zn26_4 O14_4 1_555 1_555
Zn27_4 O33_4 1_555 1_555
Zn28_4 O29_4 1_555 1_555
Zn29_4 O3_4 1_555 1_555
Zn30_4 O13_4 1_555 1_555
Zn31_4 O15_4 1_555 1_555
Zn32_4 O56_4 1_555 1_555
O61_4 Zn4_4 1_555 1_555
O62_4 Zn13_2 1_555 1_555
O63_4 Zn5_4 1_555 1_555
O64_4 Zn18_2 1_555 1_555
O65_4 Zn6_4 1_555 1_555
O66_4 Zn11_4 1_555 1_555
O67_4 Zn9_4 1_555 1_555
O68_4 Zn3_4 1_555 1_555
O69_4 Zn10_4 1_555 1_555
O70_4 Zn12_4 1_555 1_555
O72_4 Zn2_4 1_555 1_555
O73_4 Zn5_4 1_555 1_555
O75_4 Zn1_4 1_555 1_555
O76_4 Zn4_4 1_555 1_555
O77_4 Zn9_4 1_555 1_555
O78_4 Zn11_4 1_555 1_555
O79_4 Zn12_4 1_555 1_555
O80_4 Zn6_4 1_555 1_555
O81_4 Zn9_4 1_555 1_555
O82_4 Zn3_4 1_555 1_555
O83_4 Zn10_4 1_555 1_555
O84_4 Zn12_4 1_555 1_555
O8_4 Zn29_4 1_555 1_555
C5_4 C6_4 1_555 1_555
C10_4 C12_4 1_555 1_555
C19_4 C20_4 1_555 1_555
O21_4 C30_4 1_555 1_555
O23_4 Zn24_4 1_555 1_555
C26_4 C27_4 1_555 1_555
C26_4 C30_4 1_555 1_555
C31_4 C33_4 1_555 1_555
C40_4 C41_4 1_555 1_555
O32_4 C49_4 1_555 1_555
O36_4 C51_4 1_555 1_555
C43_4 C49_4 1_555 1_555
C47_4 C48_4 1_555 1_555
C47_4 C51_4 1_555 1_555
O42_4 Zn30_4 1_555 1_555
C57_4 C62_4 1_555 1_555
C59_4 C60_4 1_555 1_555
O49_4 Zn25_4 1_555 1_555
C69_4 C74_4 1_555 1_555
C71_4 C72_4 1_555 1_555
O55_4 C85_4 1_555 1_555
C79_4 C85_4 1_555 1_555
C83_4 C84_4 1_555 1_555
O23_5 C33_5 1_555 1_555
C31_5 C32_5 1_555 1_555
C32_5 H17_5 1_555 1_555
C33_5 O77_4 1_555 1_555
O27_5 C39_5 1_555 1_555
O28_5 C39_5 1_555 1_555
C37_5 C32_5 1_555 1_555
C38_5 C37_5 1_555 1_555
H25_5 C38_5 1_555 1_555
C39_5 C37_5 1_555 1_555
O29_5 C42_5 1_555 1_555
O30_5 C42_5 1_555 1_555
C40_5 C38_5 1_555 1_555
C41_5 C31_5 1_555 1_555
H26_5 C41_5 1_555 1_555
C42_5 C40_5 1_555 1_555
O40_5 C61_5 1_555 1_555
O41_5 C61_5 1_555 1_555
O66_4 C62_5 1_555 1_555
O43_5 Zn25_4 1_555 1_555
O44_5 C63_5 1_555 1_555
O45_5 C63_5 1_555 1_555
O46_5 Zn25_4 1_555 1_555
N4_5 C64_5 1_555 1_555
C55_5 C56_5 1_555 1_555
C56_5 H37_5 1_555 1_555
C57_5 C56_5 1_555 1_555
C58_5 C57_5 1_555 1_555
H38_5 C58_5 1_555 1_555
C59_5 C58_5 1_555 1_555
C60_5 C55_5 1_555 1_555
H39_5 C60_5 1_555 1_555
C61_5 C55_5 1_555 1_555
C62_5 O43_5 1_555 1_555
C63_5 C59_5 1_555 1_555
C64_5 O46_5 1_555 1_555
H40_5 C64_5 1_555 1_555
C65_5 N4_5 1_555 1_555
H41_5 C65_5 1_555 1_555
H42_5 C65_5 1_555 1_555
H43_5 C65_5 1_555 1_555
C66_5 N4_5 1_555 1_555
H44_5 C66_5 1_555 1_555
H45_5 C66_5 1_555 1_555
H46_5 C66_5 1_555 1_555
Zn11_5 O28_5 1_555 1_555
O47_5 C73_5 1_555 1_555
O48_5 C73_5 1_555 1_555
O49_5 C74_5 1_555 1_555
O50_5 Zn11_5 1_555 1_555
O51_5 C75_5 1_555 1_555
O52_5 C75_5 1_555 1_555
O53_5 Zn11_5 1_555 1_555
N5_5 C76_5 1_555 1_555
C67_5 C68_5 1_555 1_555
C68_5 H47_5 1_555 1_555
C69_5 C68_5 1_555 1_555
C70_5 C69_5 1_555 1_555
H48_5 C70_5 1_555 1_555
C71_5 C70_5 1_555 1_555
C72_5 C67_5 1_555 1_555
H49_5 C72_5 1_555 1_555
C73_5 C67_5 1_555 1_555
C74_5 O50_5 1_555 1_555
C75_5 C71_5 1_555 1_555
C76_5 O53_5 1_555 1_555
H50_5 C76_5 1_555 1_555
C77_5 N5_5 1_555 1_555
H51_5 C77_5 1_555 1_555
H52_5 C77_5 1_555 1_555
H53_5 C77_5 1_555 1_555
C78_5 N5_5 1_555 1_555
H54_5 C78_5 1_555 1_555
H55_5 C78_5 1_555 1_555
H56_5 C78_5 1_555 1_555
Zn12_5 O57_5 1_555 1_555
O56_5 C86_5 1_555 1_555
O57_5 C86_5 1_555 1_555
O72 C87_5 1_555 1_555
O75 C87_5 1_555 1_555
O60_5 Zn12_5 1_555 1_555
N6_5 C88_5 1_555 1_555
C79_5 C80_5 1_555 1_555
C80_5 H57_5 1_555 1_555
C81_5 C80_5 1_555 1_555
C82_5 C81_5 1_555 1_555
H58_5 C82_5 1_555 1_555
C83_5 C82_5 1_555 1_555
C84_5 C79_5 1_555 1_555
H59_5 C84_5 1_555 1_555
C85_5 O61_4 1_555 1_555
C86_5 C81_5 1_555 1_555
C87_5 C83_5 1_555 1_555
C88_5 O60_5 1_555 1_555
H60_5 C88_5 1_555 1_555
C89_5 N6_5 1_555 1_555
H61_5 C89_5 1_555 1_555
H62_5 C89_5 1_555 1_555
H63_5 C89_5 1_555 1_555
C90_5 N6_5 1_555 1_555
H64_5 C90_5 1_555 1_555
H65_5 C90_5 1_555 1_555
H66_5 C90_5 1_555 1_555
Zn14_9 O45_5 1_555 1_555
Zn15_5 O40_5 1_555 1_555
Zn16_9 O47_5 1_555 1_555
Zn17_5 O52_5 1_555 1_555
Zn19_9 O44_5 1_555 1_555
Zn20_5 O41_5 1_555 1_555
Zn21_9 O48_5 1_555 1_555
Zn22_5 O51_5 1_555 1_555
Zn23_5 O30_5 1_555 1_555
Zn25_5 O27_5 1_555 1_555
Zn28_5 O29_5 1_555 1_555
Zn32_5 O56_5 1_555 1_555
O66_5 Zn11_5 1_555 1_555
O70_5 Zn12_5 1_555 1_555
O78_5 Zn11_5 1_555 1_555
O79_5 Zn12_5 1_555 1_555
O83_5 Zn25_4 1_555 1_555
O84_5 Zn12_5 1_555 1_555
O23_5 Zn27_4 1_555 1_555
C31_5 C33_5 1_555 1_555
C40_5 C41_5 1_555 1_555
C57_5 C62_5 1_555 1_555
C59_5 C60_5 1_555 1_555
O49_5 Zn25_5 1_555 1_555
C69_5 C74_5 1_555 1_555
C71_5 C72_5 1_555 1_555
O63_4 C85_5 1_555 1_555
C79_5 C85_5 1_555 1_555
C83_5 C84_5 1_555 1_555
O23_6 C33_6 1_555 1_555
C31_6 C32_6 1_555 1_555
C32_6 H17_6 1_555 1_555
C33_6 O77 1_555 1_555
O27_6 C39_6 1_555 1_555
O28_6 C39_6 1_555 1_555
C37_6 C32_6 1_555 1_555
C38_6 C37_6 1_555 1_555
H25_6 C38_6 1_555 1_555
C39_6 C37_6 1_555 1_555
O29_6 C42_6 1_555 1_555
O30_6 C42_6 1_555 1_555
C40_6 C38_6 1_555 1_555
C41_6 C31_6 1_555 1_555
H26_6 C41_6 1_555 1_555
C42_6 C40_6 1_555 1_555
O40_6 C61_6 1_555 1_555
O41_6 C61_6 1_555 1_555
O66 C62_6 1_555 1_555
O43_6 Zn25 1_555 1_555
O44_6 C63_6 1_555 1_555
O45_6 C63_6 1_555 1_555
O46_6 Zn25 1_555 1_555
N4_6 C64_6 1_555 1_555
C55_6 C56_6 1_555 1_555
C56_6 H37_6 1_555 1_555
C57_6 C56_6 1_555 1_555
C58_6 C57_6 1_555 1_555
H38_6 C58_6 1_555 1_555
C59_6 C58_6 1_555 1_555
C60_6 C55_6 1_555 1_555
H39_6 C60_6 1_555 1_555
C61_6 C55_6 1_555 1_555
C62_6 O43_6 1_555 1_555
C63_6 C59_6 1_555 1_555
C64_6 O46_6 1_555 1_555
H40_6 C64_6 1_555 1_555
C65_6 N4_6 1_555 1_555
H41_6 C65_6 1_555 1_555
H42_6 C65_6 1_555 1_555
H43_6 C65_6 1_555 1_555
C66_6 N4_6 1_555 1_555
H44_6 C66_6 1_555 1_555
H45_6 C66_6 1_555 1_555
H46_6 C66_6 1_555 1_555
Zn11_6 O28_6 1_555 1_555
O47_6 C73_6 1_555 1_555
O48_6 C73_6 1_555 1_555
O49_6 C74_6 1_555 1_555
O50_6 Zn11_6 1_555 1_555
O51_6 C75_6 1_555 1_555
O52_6 C75_6 1_555 1_555
O53_6 Zn11_6 1_555 1_555
N5_6 C76_6 1_555 1_555
C67_6 C68_6 1_555 1_555
C68_6 H47_6 1_555 1_555
C69_6 C68_6 1_555 1_555
C70_6 C69_6 1_555 1_555
H48_6 C70_6 1_555 1_555
C71_6 C70_6 1_555 1_555
C72_6 C67_6 1_555 1_555
H49_6 C72_6 1_555 1_555
C73_6 C67_6 1_555 1_555
C74_6 O50_6 1_555 1_555
C75_6 C71_6 1_555 1_555
C76_6 O53_6 1_555 1_555
H50_6 C76_6 1_555 1_555
C77_6 N5_6 1_555 1_555
H51_6 C77_6 1_555 1_555
H52_6 C77_6 1_555 1_555
H53_6 C77_6 1_555 1_555
C78_6 N5_6 1_555 1_555
H54_6 C78_6 1_555 1_555
H55_6 C78_6 1_555 1_555
H56_6 C78_6 1_555 1_555
Zn12_6 O57_6 1_555 1_555
O56_6 C86_6 1_555 1_555
O57_6 C86_6 1_555 1_555
O72_4 C87_6 1_555 1_555
O75_4 C87_6 1_555 1_555
O60_6 Zn12_6 1_555 1_555
N6_6 C88_6 1_555 1_555
C79_6 C80_6 1_555 1_555
C80_6 H57_6 1_555 1_555
C81_6 C80_6 1_555 1_555
C82_6 C81_6 1_555 1_555
H58_6 C82_6 1_555 1_555
C83_6 C82_6 1_555 1_555
C84_6 C79_6 1_555 1_555
H59_6 C84_6 1_555 1_555
C85_6 O61 1_555 1_555
C86_6 C81_6 1_555 1_555
C87_6 C83_6 1_555 1_555
C88_6 O60_6 1_555 1_555
H60_6 C88_6 1_555 1_555
C89_6 N6_6 1_555 1_555
H61_6 C89_6 1_555 1_555
H62_6 C89_6 1_555 1_555
H63_6 C89_6 1_555 1_555
C90_6 N6_6 1_555 1_555
H64_6 C90_6 1_555 1_555
H65_6 C90_6 1_555 1_555
H66_6 C90_6 1_555 1_555
Zn14_11 O45_6 1_555 1_555
Zn15_6 O40_6 1_555 1_555
Zn16_12 O47_6 1_555 1_555
Zn17_6 O52_6 1_555 1_555
Zn19_11 O44_6 1_555 1_555
Zn20_6 O41_6 1_555 1_555
Zn21_12 O48_6 1_555 1_555
Zn22_6 O51_6 1_555 1_555
Zn23_6 O30_6 1_555 1_555
Zn25_6 O27_6 1_555 1_555
Zn28_6 O29_6 1_555 1_555
Zn32_6 O56_6 1_555 1_555
O66_6 Zn11_6 1_555 1_555
O70_6 Zn12_6 1_555 1_555
O78_6 Zn11_6 1_555 1_555
O79_6 Zn12_6 1_555 1_555
O83_6 Zn25 1_555 1_555
O84_6 Zn12_6 1_555 1_555
O23_6 Zn27 1_555 1_555
C31_6 C33_6 1_555 1_555
C40_6 C41_6 1_555 1_555
C57_6 C62_6 1_555 1_555
C59_6 C60_6 1_555 1_555
O49_6 Zn25_6 1_555 1_555
C69_6 C74_6 1_555 1_555
C71_6 C72_6 1_555 1_555
O63 C85_6 1_555 1_555
C79_6 C85_6 1_555 1_555
C83_6 C84_6 1_555 1_555
O23_7 C33_7 1_555 1_555
C31_7 C32_7 1_555 1_555
C32_7 H17_7 1_555 1_555
C33_7 O77_3 1_555 1_555
O27_7 C39_7 1_555 1_555
O28_7 C39_7 1_555 1_555
C37_7 C32_7 1_555 1_555
C38_7 C37_7 1_555 1_555
H25_7 C38_7 1_555 1_555
C39_7 C37_7 1_555 1_555
O29_7 C42_7 1_555 1_555
O30_7 C42_7 1_555 1_555
C40_7 C38_7 1_555 1_555
C41_7 C31_7 1_555 1_555
H26_7 C41_7 1_555 1_555
C42_7 C40_7 1_555 1_555
O40_7 C61_7 1_555 1_555
O41_7 C61_7 1_555 1_555
O66_3 C62_7 1_555 1_555
O43_7 Zn25_3 1_555 1_555
O44_7 C63_7 1_555 1_555
O45_7 C63_7 1_555 1_555
O46_7 Zn25_3 1_555 1_555
N4_7 C64_7 1_555 1_555
C55_7 C56_7 1_555 1_555
C56_7 H37_7 1_555 1_555
C57_7 C56_7 1_555 1_555
C58_7 C57_7 1_555 1_555
H38_7 C58_7 1_555 1_555
C59_7 C58_7 1_555 1_555
C60_7 C55_7 1_555 1_555
H39_7 C60_7 1_555 1_555
C61_7 C55_7 1_555 1_555
C62_7 O43_7 1_555 1_555
C63_7 C59_7 1_555 1_555
C64_7 O46_7 1_555 1_555
H40_7 C64_7 1_555 1_555
C65_7 N4_7 1_555 1_555
H41_7 C65_7 1_555 1_555
H42_7 C65_7 1_555 1_555
H43_7 C65_7 1_555 1_555
C66_7 N4_7 1_555 1_555
H44_7 C66_7 1_555 1_555
H45_7 C66_7 1_555 1_555
H46_7 C66_7 1_555 1_555
Zn11_7 O28_7 1_555 1_555
O47_7 C73_7 1_555 1_555
O48_7 C73_7 1_555 1_555
O49_7 C74_7 1_555 1_555
O50_7 Zn11_7 1_555 1_555
O51_7 C75_7 1_555 1_555
O52_7 C75_7 1_555 1_555
O53_7 Zn11_7 1_555 1_555
N5_7 C76_7 1_555 1_555
C67_7 C68_7 1_555 1_555
C68_7 H47_7 1_555 1_555
C69_7 C68_7 1_555 1_555
C70_7 C69_7 1_555 1_555
H48_7 C70_7 1_555 1_555
C71_7 C70_7 1_555 1_555
C72_7 C67_7 1_555 1_555
H49_7 C72_7 1_555 1_555
C73_7 C67_7 1_555 1_555
C74_7 O50_7 1_555 1_555
C75_7 C71_7 1_555 1_555
C76_7 O53_7 1_555 1_555
H50_7 C76_7 1_555 1_555
C77_7 N5_7 1_555 1_555
H51_7 C77_7 1_555 1_555
H52_7 C77_7 1_555 1_555
H53_7 C77_7 1_555 1_555
C78_7 N5_7 1_555 1_555
H54_7 C78_7 1_555 1_555
H55_7 C78_7 1_555 1_555
H56_7 C78_7 1_555 1_555
Zn12_7 O57_7 1_555 1_555
O56_7 C86_7 1_555 1_555
O57_7 C86_7 1_555 1_555
O72_2 C87_7 1_555 1_555
O75_2 C87_7 1_555 1_555
O60_7 Zn12_7 1_555 1_555
N6_7 C88_7 1_555 1_555
C79_7 C80_7 1_555 1_555
C80_7 H57_7 1_555 1_555
C81_7 C80_7 1_555 1_555
C82_7 C81_7 1_555 1_555
H58_7 C82_7 1_555 1_555
C83_7 C82_7 1_555 1_555
C84_7 C79_7 1_555 1_555
H59_7 C84_7 1_555 1_555
C85_7 O61_3 1_555 1_555
C86_7 C81_7 1_555 1_555
C87_7 C83_7 1_555 1_555
C88_7 O60_7 1_555 1_555
H60_7 C88_7 1_555 1_555
C89_7 N6_7 1_555 1_555
H61_7 C89_7 1_555 1_555
H62_7 C89_7 1_555 1_555
H63_7 C89_7 1_555 1_555
C90_7 N6_7 1_555 1_555
H64_7 C90_7 1_555 1_555
H65_7 C90_7 1_555 1_555
H66_7 C90_7 1_555 1_555
Zn14_14 O45_7 1_555 1_555
Zn15_7 O40_7 1_555 1_555
Zn16_14 O47_7 1_555 1_555
Zn17_7 O52_7 1_555 1_555
Zn19_14 O44_7 1_555 1_555
Zn20_7 O41_7 1_555 1_555
Zn21_14 O48_7 1_555 1_555
Zn22_7 O51_7 1_555 1_555
Zn23_7 O30_7 1_555 1_555
Zn25_7 O27_7 1_555 1_555
Zn28_7 O29_7 1_555 1_555
Zn32_7 O56_7 1_555 1_555
O66_7 Zn11_7 1_555 1_555
O70_7 Zn12_7 1_555 1_555
O78_7 Zn11_7 1_555 1_555
O79_7 Zn12_7 1_555 1_555
O83_7 Zn25_3 1_555 1_555
O84_7 Zn12_7 1_555 1_555
O23_7 Zn27_3 1_555 1_555
C31_7 C33_7 1_555 1_555
C40_7 C41_7 1_555 1_555
C57_7 C62_7 1_555 1_555
C59_7 C60_7 1_555 1_555
O49_7 Zn25_7 1_555 1_555
C69_7 C74_7 1_555 1_555
C71_7 C72_7 1_555 1_555
O63_3 C85_7 1_555 1_555
C79_7 C85_7 1_555 1_555
C83_7 C84_7 1_555 1_555
O23_8 C33_8 1_555 1_555
C31_8 C32_8 1_555 1_555
C32_8 H17_8 1_555 1_555
C33_8 O77_2 1_555 1_555
O27_8 C39_8 1_555 1_555
O28_8 C39_8 1_555 1_555
C37_8 C32_8 1_555 1_555
C38_8 C37_8 1_555 1_555
H25_8 C38_8 1_555 1_555
C39_8 C37_8 1_555 1_555
O29_8 C42_8 1_555 1_555
O30_8 C42_8 1_555 1_555
C40_8 C38_8 1_555 1_555
C41_8 C31_8 1_555 1_555
H26_8 C41_8 1_555 1_555
C42_8 C40_8 1_555 1_555
O40_8 C61_8 1_555 1_555
O41_8 C61_8 1_555 1_555
O66_2 C62_8 1_555 1_555
O43_8 Zn25_2 1_555 1_555
O44_8 C63_8 1_555 1_555
O45_8 C63_8 1_555 1_555
O46_8 Zn25_2 1_555 1_555
N4_8 C64_8 1_555 1_555
C55_8 C56_8 1_555 1_555
C56_8 H37_8 1_555 1_555
C57_8 C56_8 1_555 1_555
C58_8 C57_8 1_555 1_555
H38_8 C58_8 1_555 1_555
C59_8 C58_8 1_555 1_555
C60_8 C55_8 1_555 1_555
H39_8 C60_8 1_555 1_555
C61_8 C55_8 1_555 1_555
C62_8 O43_8 1_555 1_555
C63_8 C59_8 1_555 1_555
C64_8 O46_8 1_555 1_555
H40_8 C64_8 1_555 1_555
C65_8 N4_8 1_555 1_555
H41_8 C65_8 1_555 1_555
H42_8 C65_8 1_555 1_555
H43_8 C65_8 1_555 1_555
C66_8 N4_8 1_555 1_555
H44_8 C66_8 1_555 1_555
H45_8 C66_8 1_555 1_555
H46_8 C66_8 1_555 1_555
Zn11_8 O28_8 1_555 1_555
O47_8 C73_8 1_555 1_555
O48_8 C73_8 1_555 1_555
O49_8 C74_8 1_555 1_555
O50_8 Zn11_8 1_555 1_555
O51_8 C75_8 1_555 1_555
O52_8 C75_8 1_555 1_555
O53_8 Zn11_8 1_555 1_555
N5_8 C76_8 1_555 1_555
C67_8 C68_8 1_555 1_555
C68_8 H47_8 1_555 1_555
C69_8 C68_8 1_555 1_555
C70_8 C69_8 1_555 1_555
H48_8 C70_8 1_555 1_555
C71_8 C70_8 1_555 1_555
C72_8 C67_8 1_555 1_555
H49_8 C72_8 1_555 1_555
C73_8 C67_8 1_555 1_555
C74_8 O50_8 1_555 1_555
C75_8 C71_8 1_555 1_555
C76_8 O53_8 1_555 1_555
H50_8 C76_8 1_555 1_555
C77_8 N5_8 1_555 1_555
H51_8 C77_8 1_555 1_555
H52_8 C77_8 1_555 1_555
H53_8 C77_8 1_555 1_555
C78_8 N5_8 1_555 1_555
H54_8 C78_8 1_555 1_555
H55_8 C78_8 1_555 1_555
H56_8 C78_8 1_555 1_555
Zn12_8 O57_8 1_555 1_555
O56_8 C86_8 1_555 1_555
O57_8 C86_8 1_555 1_555
O72_3 C87_8 1_555 1_555
O75_3 C87_8 1_555 1_555
O60_8 Zn12_8 1_555 1_555
N6_8 C88_8 1_555 1_555
C79_8 C80_8 1_555 1_555
C80_8 H57_8 1_555 1_555
C81_8 C80_8 1_555 1_555
C82_8 C81_8 1_555 1_555
H58_8 C82_8 1_555 1_555
C83_8 C82_8 1_555 1_555
C84_8 C79_8 1_555 1_555
H59_8 C84_8 1_555 1_555
C85_8 O61_2 1_555 1_555
C86_8 C81_8 1_555 1_555
C87_8 C83_8 1_555 1_555
C88_8 O60_8 1_555 1_555
H60_8 C88_8 1_555 1_555
C89_8 N6_8 1_555 1_555
H61_8 C89_8 1_555 1_555
H62_8 C89_8 1_555 1_555
H63_8 C89_8 1_555 1_555
C90_8 N6_8 1_555 1_555
H64_8 C90_8 1_555 1_555
H65_8 C90_8 1_555 1_555
H66_8 C90_8 1_555 1_555
Zn14_16 O45_8 1_555 1_555
Zn15_8 O40_8 1_555 1_555
Zn16_15 O47_8 1_555 1_555
Zn17_8 O52_8 1_555 1_555
Zn19_16 O44_8 1_555 1_555
Zn20_8 O41_8 1_555 1_555
Zn21_15 O48_8 1_555 1_555
Zn22_8 O51_8 1_555 1_555
Zn23_8 O30_8 1_555 1_555
Zn25_8 O27_8 1_555 1_555
Zn28_8 O29_8 1_555 1_555
Zn32_8 O56_8 1_555 1_555
O66_8 Zn11_8 1_555 1_555
O70_8 Zn12_8 1_555 1_555
O78_8 Zn11_8 1_555 1_555
O79_8 Zn12_8 1_555 1_555
O83_8 Zn25_2 1_555 1_555
O84_8 Zn12_8 1_555 1_555
O23_8 Zn27_2 1_555 1_555
C31_8 C33_8 1_555 1_555
C40_8 C41_8 1_555 1_555
C57_8 C62_8 1_555 1_555
C59_8 C60_8 1_555 1_555
O49_8 Zn25_8 1_555 1_555
C69_8 C74_8 1_555 1_555
C71_8 C72_8 1_555 1_555
O63_2 C85_8 1_555 1_555
C79_8 C85_8 1_555 1_555
C83_8 C84_8 1_555 1_555
O40_9 C61_9 1_555 1_555
O41_9 C61_9 1_555 1_555
O66_8 C62_9 1_555 1_555
O43_9 Zn25_8 1_555 1_555
O44_9 C63_9 1_555 1_555
O45_9 C63_9 1_555 1_555
O46_9 Zn25_8 1_555 1_555
N4_9 C64_9 1_555 1_555
C55_9 C56_9 1_555 1_555
C56_9 H37_9 1_555 1_555
C57_9 C56_9 1_555 1_555
C58_9 C57_9 1_555 1_555
H38_9 C58_9 1_555 1_555
C59_9 C58_9 1_555 1_555
C60_9 C55_9 1_555 1_555
H39_9 C60_9 1_555 1_555
C61_9 C55_9 1_555 1_555
C62_9 O43_9 1_555 1_555
C63_9 C59_9 1_555 1_555
C64_9 O46_9 1_555 1_555
H40_9 C64_9 1_555 1_555
C65_9 N4_9 1_555 1_555
H41_9 C65_9 1_555 1_555
H42_9 C65_9 1_555 1_555
H43_9 C65_9 1_555 1_555
C66_9 N4_9 1_555 1_555
H44_9 C66_9 1_555 1_555
H45_9 C66_9 1_555 1_555
H46_9 C66_9 1_555 1_555
O47_9 C73_9 1_555 1_555
O48_9 C73_9 1_555 1_555
O69_2 C74_9 1_555 1_555
O50_9 Zn30_2 1_555 1_555
O51_9 C75_9 1_555 1_555
O52_9 C75_9 1_555 1_555
O53_9 Zn30_2 1_555 1_555
N5_9 C76_9 1_555 1_555
C67_9 C68_9 1_555 1_555
C68_9 H47_9 1_555 1_555
C69_9 C68_9 1_555 1_555
C70_9 C69_9 1_555 1_555
H48_9 C70_9 1_555 1_555
C71_9 C70_9 1_555 1_555
C72_9 C67_9 1_555 1_555
H49_9 C72_9 1_555 1_555
C73_9 C67_9 1_555 1_555
C74_9 O50_9 1_555 1_555
C75_9 C71_9 1_555 1_555
C76_9 O53_9 1_555 1_555
H50_9 C76_9 1_555 1_555
C77_9 N5_9 1_555 1_555
H51_9 C77_9 1_555 1_555
H52_9 C77_9 1_555 1_555
H53_9 C77_9 1_555 1_555
C78_9 N5_9 1_555 1_555
H54_9 C78_9 1_555 1_555
H55_9 C78_9 1_555 1_555
H56_9 C78_9 1_555 1_555
Zn12_9 O57_9 1_555 1_555
O56_9 C86_9 1_555 1_555
O57_9 C86_9 1_555 1_555
O73_4 C87_9 1_555 1_555
O76_4 C87_9 1_555 1_555
O60_9 Zn12_9 1_555 1_555
N6_9 C88_9 1_555 1_555
C79_9 C80_9 1_555 1_555
C80_9 H57_9 1_555 1_555
C81_9 C80_9 1_555 1_555
C82_9 C81_9 1_555 1_555
H58_9 C82_9 1_555 1_555
C83_9 C82_9 1_555 1_555
C84_9 C79_9 1_555 1_555
H59_9 C84_9 1_555 1_555
C85_9 O62_2 1_555 1_555
C86_9 C81_9 1_555 1_555
C87_9 C83_9 1_555 1_555
C88_9 O60_9 1_555 1_555
H60_9 C88_9 1_555 1_555
C89_9 N6_9 1_555 1_555
H61_9 C89_9 1_555 1_555
H62_9 C89_9 1_555 1_555
H63_9 C89_9 1_555 1_555
C90_9 N6_9 1_555 1_555
H64_9 C90_9 1_555 1_555
H65_9 C90_9 1_555 1_555
H66_9 C90_9 1_555 1_555
Zn14_17 O45_9 1_555 1_555
Zn15_9 O40_9 1_555 1_555
Zn16_17 O47_9 1_555 1_555
Zn17_9 O52_9 1_555 1_555
Zn19_17 O44_9 1_555 1_555
Zn20_9 O41_9 1_555 1_555
Zn21_17 O48_9 1_555 1_555
Zn22_9 O51_9 1_555 1_555
Zn32_9 O56_9 1_555 1_555
O70_9 Zn12_9 1_555 1_555
O78_9 Zn30_2 1_555 1_555
O79_9 Zn12_9 1_555 1_555
O83_9 Zn25_8 1_555 1_555
O84_9 Zn12_9 1_555 1_555
C57_9 C62_9 1_555 1_555
C59_9 C60_9 1_555 1_555
C69_9 C74_9 1_555 1_555
C71_9 C72_9 1_555 1_555
O64_2 C85_9 1_555 1_555
C79_9 C85_9 1_555 1_555
C83_9 C84_9 1_555 1_555
O40_10 C61_10 1_555 1_555
O41_10 C61_10 1_555 1_555
O66_5 C62_10 1_555 1_555
O43_10 Zn25_5 1_555 1_555
O44_10 C63_10 1_555 1_555
O45_10 C63_10 1_555 1_555
O46_10 Zn25_5 1_555 1_555
N4_10 C64_10 1_555 1_555
C55_10 C56_10 1_555 1_555
C56_10 H37_10 1_555 1_555
C57_10 C56_10 1_555 1_555
C58_10 C57_10 1_555 1_555
H38_10 C58_10 1_555 1_555
C59_10 C58_10 1_555 1_555
C60_10 C55_10 1_555 1_555
H39_10 C60_10 1_555 1_555
C61_10 C55_10 1_555 1_555
C62_10 O43_10 1_555 1_555
C63_10 C59_10 1_555 1_555
C64_10 O46_10 1_555 1_555
H40_10 C64_10 1_555 1_555
C65_10 N4_10 1_555 1_555
H41_10 C65_10 1_555 1_555
H42_10 C65_10 1_555 1_555
H43_10 C65_10 1_555 1_555
C66_10 N4_10 1_555 1_555
H44_10 C66_10 1_555 1_555
H45_10 C66_10 1_555 1_555
H46_10 C66_10 1_555 1_555
O47_10 C73_10 1_555 1_555
O48_10 C73_10 1_555 1_555
O69_4 C74_10 1_555 1_555
O50_10 Zn30_4 1_555 1_555
O51_10 C75_10 1_555 1_555
O52_10 C75_10 1_555 1_555
O53_10 Zn30_4 1_555 1_555
N5_10 C76_10 1_555 1_555
C67_10 C68_10 1_555 1_555
C68_10 H47_10 1_555 1_555
C69_10 C68_10 1_555 1_555
C70_10 C69_10 1_555 1_555
H48_10 C70_10 1_555 1_555
C71_10 C70_10 1_555 1_555
C72_10 C67_10 1_555 1_555
H49_10 C72_10 1_555 1_555
C73_10 C67_10 1_555 1_555
C74_10 O50_10 1_555 1_555
C75_10 C71_10 1_555 1_555
C76_10 O53_10 1_555 1_555
H50_10 C76_10 1_555 1_555
C77_10 N5_10 1_555 1_555
H51_10 C77_10 1_555 1_555
H52_10 C77_10 1_555 1_555
H53_10 C77_10 1_555 1_555
C78_10 N5_10 1_555 1_555
H54_10 C78_10 1_555 1_555
H55_10 C78_10 1_555 1_555
H56_10 C78_10 1_555 1_555
Zn12_10 O57_10 1_555 1_555
O56_10 C86_10 1_555 1_555
O57_10 C86_10 1_555 1_555
O73_2 C87_10 1_555 1_555
O76_2 C87_10 1_555 1_555
O60_10 Zn12_10 1_555 1_555
N6_10 C88_10 1_555 1_555
C79_10 C80_10 1_555 1_555
C80_10 H57_10 1_555 1_555
C81_10 C80_10 1_555 1_555
C82_10 C81_10 1_555 1_555
H58_10 C82_10 1_555 1_555
C83_10 C82_10 1_555 1_555
C84_10 C79_10 1_555 1_555
H59_10 C84_10 1_555 1_555
C85_10 O62_4 1_555 1_555
C86_10 C81_10 1_555 1_555
C87_10 C83_10 1_555 1_555
C88_10 O60_10 1_555 1_555
H60_10 C88_10 1_555 1_555
C89_10 N6_10 1_555 1_555
H61_10 C89_10 1_555 1_555
H62_10 C89_10 1_555 1_555
H63_10 C89_10 1_555 1_555
C90_10 N6_10 1_555 1_555
H64_10 C90_10 1_555 1_555
H65_10 C90_10 1_555 1_555
H66_10 C90_10 1_555 1_555
Zn14_19 O45_10 1_555 1_555
Zn15_10 O40_10 1_555 1_555
Zn16_20 O47_10 1_555 1_555
Zn17_10 O52_10 1_555 1_555
Zn19_19 O44_10 1_555 1_555
Zn20_10 O41_10 1_555 1_555
Zn21_20 O48_10 1_555 1_555
Zn22_10 O51_10 1_555 1_555
Zn32_10 O56_10 1_555 1_555
O70_10 Zn12_10 1_555 1_555
O78_10 Zn30_4 1_555 1_555
O79_10 Zn12_10 1_555 1_555
O83_10 Zn25_5 1_555 1_555
O84_10 Zn12_10 1_555 1_555
C57_10 C62_10 1_555 1_555
C59_10 C60_10 1_555 1_555
C69_10 C74_10 1_555 1_555
C71_10 C72_10 1_555 1_555
O64_4 C85_10 1_555 1_555
C79_10 C85_10 1_555 1_555
C83_10 C84_10 1_555 1_555
O40_11 C61_11 1_555 1_555
O41_11 C61_11 1_555 1_555
O66_7 C62_11 1_555 1_555
O43_11 Zn25_7 1_555 1_555
O44_11 C63_11 1_555 1_555
O45_11 C63_11 1_555 1_555
O46_11 Zn25_7 1_555 1_555
N4_11 C64_11 1_555 1_555
C55_11 C56_11 1_555 1_555
C56_11 H37_11 1_555 1_555
C57_11 C56_11 1_555 1_555
C58_11 C57_11 1_555 1_555
H38_11 C58_11 1_555 1_555
C59_11 C58_11 1_555 1_555
C60_11 C55_11 1_555 1_555
H39_11 C60_11 1_555 1_555
C61_11 C55_11 1_555 1_555
C62_11 O43_11 1_555 1_555
C63_11 C59_11 1_555 1_555
C64_11 O46_11 1_555 1_555
H40_11 C64_11 1_555 1_555
C65_11 N4_11 1_555 1_555
H41_11 C65_11 1_555 1_555
H42_11 C65_11 1_555 1_555
H43_11 C65_11 1_555 1_555
C66_11 N4_11 1_555 1_555
H44_11 C66_11 1_555 1_555
H45_11 C66_11 1_555 1_555
H46_11 C66_11 1_555 1_555
O47_11 C73_11 1_555 1_555
O48_11 C73_11 1_555 1_555
O69_3 C74_11 1_555 1_555
O50_11 Zn30_3 1_555 1_555
O51_11 C75_11 1_555 1_555
O52_11 C75_11 1_555 1_555
O53_11 Zn30_3 1_555 1_555
N5_11 C76_11 1_555 1_555
C67_11 C68_11 1_555 1_555
C68_11 H47_11 1_555 1_555
C69_11 C68_11 1_555 1_555
C70_11 C69_11 1_555 1_555
H48_11 C70_11 1_555 1_555
C71_11 C70_11 1_555 1_555
C72_11 C67_11 1_555 1_555
H49_11 C72_11 1_555 1_555
C73_11 C67_11 1_555 1_555
C74_11 O50_11 1_555 1_555
C75_11 C71_11 1_555 1_555
C76_11 O53_11 1_555 1_555
H50_11 C76_11 1_555 1_555
C77_11 N5_11 1_555 1_555
H51_11 C77_11 1_555 1_555
H52_11 C77_11 1_555 1_555
H53_11 C77_11 1_555 1_555
C78_11 N5_11 1_555 1_555
H54_11 C78_11 1_555 1_555
H55_11 C78_11 1_555 1_555
H56_11 C78_11 1_555 1_555
Zn12_11 O57_11 1_555 1_555
O56_11 C86_11 1_555 1_555
O57_11 C86_11 1_555 1_555
O73 C87_11 1_555 1_555
O76 C87_11 1_555 1_555
O60_11 Zn12_11 1_555 1_555
N6_11 C88_11 1_555 1_555
C79_11 C80_11 1_555 1_555
C80_11 H57_11 1_555 1_555
C81_11 C80_11 1_555 1_555
C82_11 C81_11 1_555 1_555
H58_11 C82_11 1_555 1_555
C83_11 C82_11 1_555 1_555
C84_11 C79_11 1_555 1_555
H59_11 C84_11 1_555 1_555
C85_11 O62_3 1_555 1_555
C86_11 C81_11 1_555 1_555
C87_11 C83_11 1_555 1_555
C88_11 O60_11 1_555 1_555
H60_11 C88_11 1_555 1_555
C89_11 N6_11 1_555 1_555
H61_11 C89_11 1_555 1_555
H62_11 C89_11 1_555 1_555
H63_11 C89_11 1_555 1_555
C90_11 N6_11 1_555 1_555
H64_11 C90_11 1_555 1_555
H65_11 C90_11 1_555 1_555
H66_11 C90_11 1_555 1_555
Zn14_22 O45_11 1_555 1_555
Zn15_11 O40_11 1_555 1_555
Zn16_22 O47_11 1_555 1_555
Zn17_11 O52_11 1_555 1_555
Zn19_22 O44_11 1_555 1_555
Zn20_11 O41_11 1_555 1_555
Zn21_22 O48_11 1_555 1_555
Zn22_11 O51_11 1_555 1_555
Zn32_11 O56_11 1_555 1_555
O70_11 Zn12_11 1_555 1_555
O78_11 Zn30_3 1_555 1_555
O79_11 Zn12_11 1_555 1_555
O83_11 Zn25_7 1_555 1_555
O84_11 Zn12_11 1_555 1_555
C57_11 C62_11 1_555 1_555
C59_11 C60_11 1_555 1_555
C69_11 C74_11 1_555 1_555
C71_11 C72_11 1_555 1_555
O64_3 C85_11 1_555 1_555
C79_11 C85_11 1_555 1_555
C83_11 C84_11 1_555 1_555
O40_12 C61_12 1_555 1_555
O41_12 C61_12 1_555 1_555
O66_6 C62_12 1_555 1_555
O43_12 Zn25_6 1_555 1_555
O44_12 C63_12 1_555 1_555
O45_12 C63_12 1_555 1_555
O46_12 Zn25_6 1_555 1_555
N4_12 C64_12 1_555 1_555
C55_12 C56_12 1_555 1_555
C56_12 H37_12 1_555 1_555
C57_12 C56_12 1_555 1_555
C58_12 C57_12 1_555 1_555
H38_12 C58_12 1_555 1_555
C59_12 C58_12 1_555 1_555
C60_12 C55_12 1_555 1_555
H39_12 C60_12 1_555 1_555
C61_12 C55_12 1_555 1_555
C62_12 O43_12 1_555 1_555
C63_12 C59_12 1_555 1_555
C64_12 O46_12 1_555 1_555
H40_12 C64_12 1_555 1_555
C65_12 N4_12 1_555 1_555
H41_12 C65_12 1_555 1_555
H42_12 C65_12 1_555 1_555
H43_12 C65_12 1_555 1_555
C66_12 N4_12 1_555 1_555
H44_12 C66_12 1_555 1_555
H45_12 C66_12 1_555 1_555
H46_12 C66_12 1_555 1_555
O47_12 C73_12 1_555 1_555
O48_12 C73_12 1_555 1_555
O69 C74_12 1_555 1_555
O50_12 Zn30 1_555 1_555
O51_12 C75_12 1_555 1_555
O52_12 C75_12 1_555 1_555
O53_12 Zn30 1_555 1_555
N5_12 C76_12 1_555 1_555
C67_12 C68_12 1_555 1_555
C68_12 H47_12 1_555 1_555
C69_12 C68_12 1_555 1_555
C70_12 C69_12 1_555 1_555
H48_12 C70_12 1_555 1_555
C71_12 C70_12 1_555 1_555
C72_12 C67_12 1_555 1_555
H49_12 C72_12 1_555 1_555
C73_12 C67_12 1_555 1_555
C74_12 O50_12 1_555 1_555
C75_12 C71_12 1_555 1_555
C76_12 O53_12 1_555 1_555
H50_12 C76_12 1_555 1_555
C77_12 N5_12 1_555 1_555
H51_12 C77_12 1_555 1_555
H52_12 C77_12 1_555 1_555
H53_12 C77_12 1_555 1_555
C78_12 N5_12 1_555 1_555
H54_12 C78_12 1_555 1_555
H55_12 C78_12 1_555 1_555
H56_12 C78_12 1_555 1_555
Zn12_12 O57_12 1_555 1_555
O56_12 C86_12 1_555 1_555
O57_12 C86_12 1_555 1_555
O73_3 C87_12 1_555 1_555
O76_3 C87_12 1_555 1_555
O60_12 Zn12_12 1_555 1_555
N6_12 C88_12 1_555 1_555
C79_12 C80_12 1_555 1_555
C80_12 H57_12 1_555 1_555
C81_12 C80_12 1_555 1_555
C82_12 C81_12 1_555 1_555
H58_12 C82_12 1_555 1_555
C83_12 C82_12 1_555 1_555
C84_12 C79_12 1_555 1_555
H59_12 C84_12 1_555 1_555
C85_12 O62 1_555 1_555
C86_12 C81_12 1_555 1_555
C87_12 C83_12 1_555 1_555
C88_12 O60_12 1_555 1_555
H60_12 C88_12 1_555 1_555
C89_12 N6_12 1_555 1_555
H61_12 C89_12 1_555 1_555
H62_12 C89_12 1_555 1_555
H63_12 C89_12 1_555 1_555
C90_12 N6_12 1_555 1_555
H64_12 C90_12 1_555 1_555
H65_12 C90_12 1_555 1_555
H66_12 C90_12 1_555 1_555
Zn14_24 O45_12 1_555 1_555
Zn15_12 O40_12 1_555 1_555
Zn16_23 O47_12 1_555 1_555
Zn17_12 O52_12 1_555 1_555
Zn19_24 O44_12 1_555 1_555
Zn20_12 O41_12 1_555 1_555
Zn21_23 O48_12 1_555 1_555
Zn22_12 O51_12 1_555 1_555
Zn32_12 O56_12 1_555 1_555
O70_12 Zn12_12 1_555 1_555
O78_12 Zn30 1_555 1_555
O79_12 Zn12_12 1_555 1_555
O83_12 Zn25_6 1_555 1_555
O84_12 Zn12_12 1_555 1_555
C57_12 C62_12 1_555 1_555
C59_12 C60_12 1_555 1_555
C69_12 C74_12 1_555 1_555
C71_12 C72_12 1_555 1_555
O64 C85_12 1_555 1_555
C79_12 C85_12 1_555 1_555
C83_12 C84_12 1_555 1_555
O37_5 Zn7_3 1_555 1_555
O38_5 Zn8_3 1_555 1_555
O62_5 Zn7_3 1_555 1_555
O64_5 Zn8_3 1_555 1_555
O71_3 Zn8_3 1_555 1_555
O74_3 Zn7_3 1_555 1_555
Zn1_5 O1_5 1_555 1_555
Zn2_5 O2_5 1_555 1_555
Zn3_5 O4_5 1_555 1_555
O1_5 C7_5 1_555 1_555
O2_5 C7_5 1_555 1_555
O3_5 C8_5 1_555 1_555
O4_5 C8_5 1_555 1_555
O5_5 C9_5 1_555 1_555
O6_5 C9_5 1_555 1_555
O7_5 Zn3_5 1_555 1_555
O8_5 C12_5 1_555 1_555
O9_5 Zn1_5 1_555 1_555
O10_5 Zn2_5 1_555 1_555
O11_5 Zn3_5 1_555 1_555
N1_5 C13_5 1_555 1_555
C1_5 C2_5 1_555 1_555
C2_5 H1_5 1_555 1_555
C3_5 C2_5 1_555 1_555
C4_5 C3_5 1_555 1_555
H2_5 C4_5 1_555 1_555
C5_5 C4_5 1_555 1_555
C6_5 C1_5 1_555 1_555
H3_5 C6_5 1_555 1_555
C7_5 C1_5 1_555 1_555
C8_5 C3_5 1_555 1_555
C9_5 C5_5 1_555 1_555
C10_5 C11_5 1_555 1_555
C11_5 H4_5 1_555 1_555
C12_5 O7_5 1_555 1_555
C13_5 O11_5 1_555 1_555
H5_5 C13_5 1_555 1_555
C14_5 N1_5 1_555 1_555
H6_5 C14_5 1_555 1_555
H7_5 C14_5 1_555 1_555
H8_5 C14_5 1_555 1_555
C15_5 N1_5 1_555 1_555
H9_5 C15_5 1_555 1_555
H10_5 C15_5 1_555 1_555
H11_5 C15_5 1_555 1_555
O78_6 C18_5 1_555 1_555
O83_12 C18_5 1_555 1_555
C16_5 C11_5 1_555 1_555
C17_5 C16_5 1_555 1_555
H12_5 C17_5 1_555 1_555
C18_5 C16_5 1_555 1_555
O14_5 C21_5 1_555 1_555
O15_5 C21_5 1_555 1_555
C19_5 C17_5 1_555 1_555
C20_5 C10_5 1_555 1_555
H13_5 C20_5 1_555 1_555
C21_5 C19_5 1_555 1_555
Zn4_5 O16_5 1_555 1_555
Zn5_5 O17_5 1_555 1_555
Zn6_5 O19_5 1_555 1_555
O16_5 C28_5 1_555 1_555
O17_5 C28_5 1_555 1_555
O18_5 C29_5 1_555 1_555
O19_5 C29_5 1_555 1_555
O20_5 Zn2_5 1_555 1_555
O21_5 Zn1_5 1_555 1_555
O22_5 Zn6_5 1_555 1_555
O23_9 C33_9 1_555 1_555
O24_5 Zn4_5 1_555 1_555
O25_5 Zn5_5 1_555 1_555
O26_5 Zn6_5 1_555 1_555
N2_5 C34_5 1_555 1_555
C22_5 C23_5 1_555 1_555
C23_5 H14_5 1_555 1_555
C24_5 C23_5 1_555 1_555
C25_5 C24_5 1_555 1_555
H15_5 C25_5 1_555 1_555
C26_5 C25_5 1_555 1_555
C27_5 C22_5 1_555 1_555
H16_5 C27_5 1_555 1_555
C28_5 C22_5 1_555 1_555
C29_5 C24_5 1_555 1_555
C30_5 O20_5 1_555 1_555
C31_9 C32_9 1_555 1_555
C32_9 H17_9 1_555 1_555
C33_9 O22_5 1_555 1_555
C34_5 O26_5 1_555 1_555
H18_5 C34_5 1_555 1_555
C35_5 N2_5 1_555 1_555
H19_5 C35_5 1_555 1_555
H20_5 C35_5 1_555 1_555
H21_5 C35_5 1_555 1_555
C36_5 N2_5 1_555 1_555
H22_5 C36_5 1_555 1_555
H23_5 C36_5 1_555 1_555
H24_5 C36_5 1_555 1_555
O78 C39_9 1_555 1_555
O83_6 C39_9 1_555 1_555
C37_9 C32_9 1_555 1_555
C38_9 C37_9 1_555 1_555
H25_9 C38_9 1_555 1_555
C39_9 C37_9 1_555 1_555
O29_9 C42_9 1_555 1_555
O30_9 C42_9 1_555 1_555
C40_9 C38_9 1_555 1_555
C41_9 C31_9 1_555 1_555
H26_9 C41_9 1_555 1_555
C42_9 C40_9 1_555 1_555
Zn7_4 O6_5 1_555 1_555
Zn8_4 O5_5 1_555 1_555
Zn9_5 O34_5 1_555 1_555
O31_5 Zn7_4 1_555 1_555
O32_5 Zn8_4 1_555 1_555
O33_5 C50_5 1_555 1_555
O34_5 C50_5 1_555 1_555
O35_5 Zn5_5 1_555 1_555
O36_5 Zn4_5 1_555 1_555
O37_6 Zn7_4 1_555 1_555
O38_6 Zn8_4 1_555 1_555
O39_5 Zn9_5 1_555 1_555
N3_5 C52_5 1_555 1_555
C43_5 C44_5 1_555 1_555
C44_5 H27_5 1_555 1_555
C45_5 C44_5 1_555 1_555
C46_5 C45_5 1_555 1_555
H28_5 C46_5 1_555 1_555
C47_5 C46_5 1_555 1_555
C48_5 C43_5 1_555 1_555
H29_5 C48_5 1_555 1_555
C49_5 O31_5 1_555 1_555
C50_5 C45_5 1_555 1_555
C51_5 O35_5 1_555 1_555
C52_5 O39_5 1_555 1_555
H30_5 C52_5 1_555 1_555
C53_5 N3_5 1_555 1_555
H31_5 C53_5 1_555 1_555
H32_5 C53_5 1_555 1_555
H33_5 C53_5 1_555 1_555
C54_5 N3_5 1_555 1_555
H34_5 C54_5 1_555 1_555
H35_5 C54_5 1_555 1_555
H36_5 C54_5 1_555 1_555
Zn26 O30_9 1_555 1_555
Zn24_5 O18_5 1_555 1_555
Zn23 O14_5 1_555 1_555
Zn27_5 O33_5 1_555 1_555
Zn31 O29_9 1_555 1_555
Zn29_5 O3_5 1_555 1_555
Zn28 O15_5 1_555 1_555
O65_5 Zn6_5 1_555 1_555
O67_5 Zn9_5 1_555 1_555
O68_5 Zn3_5 1_555 1_555
O77_5 Zn9_5 1_555 1_555
O80_5 Zn6_5 1_555 1_555
O81_5 Zn9_5 1_555 1_555
O82_5 Zn3_5 1_555 1_555
O8_5 Zn29_5 1_555 1_555
C5_5 C6_5 1_555 1_555
C10_5 C12_5 1_555 1_555
C19_5 C20_5 1_555 1_555
O21_5 C30_5 1_555 1_555
O23_9 Zn24_5 1_555 1_555
C26_5 C27_5 1_555 1_555
C26_5 C30_5 1_555 1_555
C31_9 C33_9 1_555 1_555
C40_9 C41_9 1_555 1_555
O32_5 C49_5 1_555 1_555
O36_5 C51_5 1_555 1_555
C43_5 C49_5 1_555 1_555
C47_5 C48_5 1_555 1_555
C47_5 C51_5 1_555 1_555
O24_6 Zn4_6 1_555 1_555
O25_6 Zn5_6 1_555 1_555
O61_5 Zn4_6 1_555 1_555
O63_5 Zn5_6 1_555 1_555
O73_5 Zn5_6 1_555 1_555
O76_5 Zn4_6 1_555 1_555
O9_6 Zn1_6 1_555 1_555
O10_6 Zn2_6 1_555 1_555
Zn12_13 O57_13 1_555 1_555
O54_5 Zn1_6 1_555 1_555
O55_5 Zn2_6 1_555 1_555
O56_13 C86_13 1_555 1_555
O57_13 C86_13 1_555 1_555
O58_3 C87_13 1_555 1_555
O59_3 C87_13 1_555 1_555
O60_13 Zn12_13 1_555 1_555
N6_13 C88_13 1_555 1_555
C79_13 C80_13 1_555 1_555
C80_13 H57_13 1_555 1_555
C81_13 C80_13 1_555 1_555
C82_13 C81_13 1_555 1_555
H58_13 C82_13 1_555 1_555
C83_13 C82_13 1_555 1_555
C84_13 C79_13 1_555 1_555
H59_13 C84_13 1_555 1_555
C85_13 O54_5 1_555 1_555
C86_13 C81_13 1_555 1_555
C87_13 C83_13 1_555 1_555
C88_13 O60_13 1_555 1_555
H60_13 C88_13 1_555 1_555
C89_13 N6_13 1_555 1_555
H61_13 C89_13 1_555 1_555
H62_13 C89_13 1_555 1_555
H63_13 C89_13 1_555 1_555
C90_13 N6_13 1_555 1_555
H64_13 C90_13 1_555 1_555
H65_13 C90_13 1_555 1_555
H66_13 C90_13 1_555 1_555
Zn13_4 O59_3 1_555 1_555
Zn18_4 O58_3 1_555 1_555
Zn32_13 O56_13 1_555 1_555
O70_13 Zn12_13 1_555 1_555
O72_5 Zn2_6 1_555 1_555
O75_5 Zn1_6 1_555 1_555
O79_13 Zn12_13 1_555 1_555
O84_13 Zn12_13 1_555 1_555
O55_5 C85_13 1_555 1_555
C79_13 C85_13 1_555 1_555
C83_13 C84_13 1_555 1_555
O9_7 Zn1_7 1_555 1_555
O10_7 Zn2_7 1_555 1_555
Zn12_14 O57_14 1_555 1_555
O54_6 Zn1_7 1_555 1_555
O55_6 Zn2_7 1_555 1_555
O56_14 C86_14 1_555 1_555
O57_14 C86_14 1_555 1_555
O71_3 C87_14 1_555 1_555
O74_3 C87_14 1_555 1_555
O60_14 Zn12_14 1_555 1_555
N6_14 C88_14 1_555 1_555
C79_14 C80_14 1_555 1_555
C80_14 H57_14 1_555 1_555
C81_14 C80_14 1_555 1_555
C82_14 C81_14 1_555 1_555
H58_14 C82_14 1_555 1_555
C83_14 C82_14 1_555 1_555
C84_14 C79_14 1_555 1_555
H59_14 C84_14 1_555 1_555
C85_14 O54_6 1_555 1_555
C86_14 C81_14 1_555 1_555
C87_14 C83_14 1_555 1_555
C88_14 O60_14 1_555 1_555
H60_14 C88_14 1_555 1_555
C89_14 N6_14 1_555 1_555
H61_14 C89_14 1_555 1_555
H62_14 C89_14 1_555 1_555
H63_14 C89_14 1_555 1_555
C90_14 N6_14 1_555 1_555
H64_14 C90_14 1_555 1_555
H65_14 C90_14 1_555 1_555
H66_14 C90_14 1_555 1_555
Zn32_14 O56_14 1_555 1_555
O70_14 Zn12_14 1_555 1_555
O72_6 Zn2_7 1_555 1_555
O75_6 Zn1_7 1_555 1_555
O79_14 Zn12_14 1_555 1_555
O84_14 Zn12_14 1_555 1_555
O55_6 C85_14 1_555 1_555
C79_14 C85_14 1_555 1_555
C83_14 C84_14 1_555 1_555
Zn1_8 O1_6 1_555 1_555
Zn2_8 O2_6 1_555 1_555
Zn3_6 O4_6 1_555 1_555
O1_6 C7_6 1_555 1_555
O2_6 C7_6 1_555 1_555
O3_6 C8_6 1_555 1_555
O4_6 C8_6 1_555 1_555
O5_6 C9_6 1_555 1_555
O6_6 C9_6 1_555 1_555
O7_6 Zn3_6 1_555 1_555
O8_6 C12_6 1_555 1_555
O9_8 Zn1_8 1_555 1_555
O10_8 Zn2_8 1_555 1_555
O11_6 Zn3_6 1_555 1_555
N1_6 C13_6 1_555 1_555
C1_6 C2_6 1_555 1_555
C2_6 H1_6 1_555 1_555
C3_6 C2_6 1_555 1_555
C4_6 C3_6 1_555 1_555
H2_6 C4_6 1_555 1_555
C5_6 C4_6 1_555 1_555
C6_6 C1_6 1_555 1_555
H3_6 C6_6 1_555 1_555
C7_6 C1_6 1_555 1_555
C8_6 C3_6 1_555 1_555
C9_6 C5_6 1_555 1_555
C10_6 C11_6 1_555 1_555
C11_6 H4_6 1_555 1_555
C12_6 O7_6 1_555 1_555
C13_6 O11_6 1_555 1_555
H5_6 C13_6 1_555 1_555
C14_6 N1_6 1_555 1_555
H6_6 C14_6 1_555 1_555
H7_6 C14_6 1_555 1_555
H8_6 C14_6 1_555 1_555
C15_6 N1_6 1_555 1_555
H9_6 C15_6 1_555 1_555
H10_6 C15_6 1_555 1_555
H11_6 C15_6 1_555 1_555
O78_8 C18_6 1_555 1_555
O83_9 C18_6 1_555 1_555
C16_6 C11_6 1_555 1_555
C17_6 C16_6 1_555 1_555
H12_6 C17_6 1_555 1_555
C18_6 C16_6 1_555 1_555
O14_6 C21_6 1_555 1_555
O15_6 C21_6 1_555 1_555
C19_6 C17_6 1_555 1_555
C20_6 C10_6 1_555 1_555
H13_6 C20_6 1_555 1_555
C21_6 C19_6 1_555 1_555
Zn4_7 O16_6 1_555 1_555
Zn5_7 O17_6 1_555 1_555
Zn6_6 O19_6 1_555 1_555
O16_6 C28_6 1_555 1_555
O17_6 C28_6 1_555 1_555
O18_6 C29_6 1_555 1_555
O19_6 C29_6 1_555 1_555
O20_6 Zn2_8 1_555 1_555
O21_6 Zn1_8 1_555 1_555
O22_6 Zn6_6 1_555 1_555
O23_10 C33_10 1_555 1_555
O24_7 Zn4_7 1_555 1_555
O25_7 Zn5_7 1_555 1_555
O26_6 Zn6_6 1_555 1_555
N2_6 C34_6 1_555 1_555
C22_6 C23_6 1_555 1_555
C23_6 H14_6 1_555 1_555
C24_6 C23_6 1_555 1_555
C25_6 C24_6 1_555 1_555
H15_6 C25_6 1_555 1_555
C26_6 C25_6 1_555 1_555
C27_6 C22_6 1_555 1_555
H16_6 C27_6 1_555 1_555
C28_6 C22_6 1_555 1_555
C29_6 C24_6 1_555 1_555
C30_6 O20_6 1_555 1_555
C31_10 C32_10 1_555 1_555
C32_10 H17_10 1_555 1_555
C33_10 O22_6 1_555 1_555
C34_6 O26_6 1_555 1_555
H18_6 C34_6 1_555 1_555
C35_6 N2_6 1_555 1_555
H19_6 C35_6 1_555 1_555
H20_6 C35_6 1_555 1_555
H21_6 C35_6 1_555 1_555
C36_6 N2_6 1_555 1_555
H22_6 C36_6 1_555 1_555
H23_6 C36_6 1_555 1_555
H24_6 C36_6 1_555 1_555
O78_2 C39_10 1_555 1_555
O83_8 C39_10 1_555 1_555
C37_10 C32_10 1_555 1_555
C38_10 C37_10 1_555 1_555
H25_10 C38_10 1_555 1_555
C39_10 C37_10 1_555 1_555
O29_10 C42_10 1_555 1_555
O30_10 C42_10 1_555 1_555
C40_10 C38_10 1_555 1_555
C41_10 C31_10 1_555 1_555
H26_10 C41_10 1_555 1_555
C42_10 C40_10 1_555 1_555
Zn13_3 O6_6 1_555 1_555
Zn18_3 O5_6 1_555 1_555
Zn9_6 O34_6 1_555 1_555
O31_6 Zn13_3 1_555 1_555
O32_6 Zn18_3 1_555 1_555
O33_6 C50_6 1_555 1_555
O34_6 C50_6 1_555 1_555
O35_6 Zn5_7 1_555 1_555
O36_6 Zn4_7 1_555 1_555
O37_7 Zn13_3 1_555 1_555
O38_7 Zn18_3 1_555 1_555
O39_6 Zn9_6 1_555 1_555
N3_6 C52_6 1_555 1_555
C43_6 C44_6 1_555 1_555
C44_6 H27_6 1_555 1_555
C45_6 C44_6 1_555 1_555
C46_6 C45_6 1_555 1_555
H28_6 C46_6 1_555 1_555
C47_6 C46_6 1_555 1_555
C48_6 C43_6 1_555 1_555
H29_6 C48_6 1_555 1_555
C49_6 O31_6 1_555 1_555
C50_6 C45_6 1_555 1_555
C51_6 O35_6 1_555 1_555
C52_6 O39_6 1_555 1_555
H30_6 C52_6 1_555 1_555
C53_6 N3_6 1_555 1_555
H31_6 C53_6 1_555 1_555
H32_6 C53_6 1_555 1_555
H33_6 C53_6 1_555 1_555
C54_6 N3_6 1_555 1_555
H34_6 C54_6 1_555 1_555
H35_6 C54_6 1_555 1_555
H36_6 C54_6 1_555 1_555
Zn26_2 O30_10 1_555 1_555
Zn24_6 O18_6 1_555 1_555
Zn23_2 O14_6 1_555 1_555
Zn27_6 O33_6 1_555 1_555
Zn31_2 O29_10 1_555 1_555
Zn29_6 O3_6 1_555 1_555
Zn28_2 O15_6 1_555 1_555
O65_6 Zn6_6 1_555 1_555
O67_6 Zn9_6 1_555 1_555
O68_6 Zn3_6 1_555 1_555
O77_6 Zn9_6 1_555 1_555
O80_6 Zn6_6 1_555 1_555
O81_6 Zn9_6 1_555 1_555
O82_6 Zn3_6 1_555 1_555
O8_6 Zn29_6 1_555 1_555
C5_6 C6_6 1_555 1_555
C10_6 C12_6 1_555 1_555
C19_6 C20_6 1_555 1_555
O21_6 C30_6 1_555 1_555
O23_10 Zn24_6 1_555 1_555
C26_6 C27_6 1_555 1_555
C26_6 C30_6 1_555 1_555
C31_10 C33_10 1_555 1_555
C40_10 C41_10 1_555 1_555
O32_6 C49_6 1_555 1_555
O36_6 C51_6 1_555 1_555
C43_6 C49_6 1_555 1_555
C47_6 C48_6 1_555 1_555
C47_6 C51_6 1_555 1_555
O24_8 Zn4_8 1_555 1_555
O25_8 Zn5_8 1_555 1_555
O61_6 Zn4_8 1_555 1_555
O63_6 Zn5_8 1_555 1_555
O73_6 Zn5_8 1_555 1_555
O76_6 Zn4_8 1_555 1_555
O37_8 Zn13_4 1_555 1_555
O38_8 Zn18_4 1_555 1_555
O62_6 Zn13_4 1_555 1_555
O64_6 Zn18_4 1_555 1_555
O24_9 Zn4_9 1_555 1_555
O25_9 Zn5_9 1_555 1_555
O61_7 Zn4_9 1_555 1_555
O63_7 Zn5_9 1_555 1_555
O73_7 Zn5_9 1_555 1_555
O76_7 Zn4_9 1_555 1_555
Zn1_9 O1_7 1_555 1_555
Zn2_9 O2_7 1_555 1_555
Zn3_7 O4_7 1_555 1_555
O1_7 C7_7 1_555 1_555
O2_7 C7_7 1_555 1_555
O3_7 C8_7 1_555 1_555
O4_7 C8_7 1_555 1_555
O5_7 C9_7 1_555 1_555
O6_7 C9_7 1_555 1_555
O7_7 Zn3_7 1_555 1_555
O8_7 C12_7 1_555 1_555
O9_9 Zn1_9 1_555 1_555
O10_9 Zn2_9 1_555 1_555
O11_7 Zn3_7 1_555 1_555
N1_7 C13_7 1_555 1_555
C1_7 C2_7 1_555 1_555
C2_7 H1_7 1_555 1_555
C3_7 C2_7 1_555 1_555
C4_7 C3_7 1_555 1_555
H2_7 C4_7 1_555 1_555
C5_7 C4_7 1_555 1_555
C6_7 C1_7 1_555 1_555
H3_7 C6_7 1_555 1_555
C7_7 C1_7 1_555 1_555
C8_7 C3_7 1_555 1_555
C9_7 C5_7 1_555 1_555
C10_7 C11_7 1_555 1_555
C11_7 H4_7 1_555 1_555
C12_7 O7_7 1_555 1_555
C13_7 O11_7 1_555 1_555
H5_7 C13_7 1_555 1_555
C14_7 N1_7 1_555 1_555
H6_7 C14_7 1_555 1_555
H7_7 C14_7 1_555 1_555
H8_7 C14_7 1_555 1_555
C15_7 N1_7 1_555 1_555
H9_7 C15_7 1_555 1_555
H10_7 C15_7 1_555 1_555
H11_7 C15_7 1_555 1_555
O78_5 C18_7 1_555 1_555
O83_10 C18_7 1_555 1_555
C16_7 C11_7 1_555 1_555
C17_7 C16_7 1_555 1_555
H12_7 C17_7 1_555 1_555
C18_7 C16_7 1_555 1_555
O14_7 C21_7 1_555 1_555
O15_7 C21_7 1_555 1_555
C19_7 C17_7 1_555 1_555
C20_7 C10_7 1_555 1_555
H13_7 C20_7 1_555 1_555
C21_7 C19_7 1_555 1_555
Zn4_10 O16_7 1_555 1_555
Zn5_10 O17_7 1_555 1_555
Zn6_7 O19_7 1_555 1_555
O16_7 C28_7 1_555 1_555
O17_7 C28_7 1_555 1_555
O18_7 C29_7 1_555 1_555
O19_7 C29_7 1_555 1_555
O20_7 Zn2_9 1_555 1_555
O21_7 Zn1_9 1_555 1_555
O22_7 Zn6_7 1_555 1_555
O23_11 C33_11 1_555 1_555
O24_10 Zn4_10 1_555 1_555
O25_10 Zn5_10 1_555 1_555
O26_7 Zn6_7 1_555 1_555
N2_7 C34_7 1_555 1_555
C22_7 C23_7 1_555 1_555
C23_7 H14_7 1_555 1_555
C24_7 C23_7 1_555 1_555
C25_7 C24_7 1_555 1_555
H15_7 C25_7 1_555 1_555
C26_7 C25_7 1_555 1_555
C27_7 C22_7 1_555 1_555
H16_7 C27_7 1_555 1_555
C28_7 C22_7 1_555 1_555
C29_7 C24_7 1_555 1_555
C30_7 O20_7 1_555 1_555
C31_11 C32_11 1_555 1_555
C32_11 H17_11 1_555 1_555
C33_11 O22_7 1_555 1_555
C34_7 O26_7 1_555 1_555
H18_7 C34_7 1_555 1_555
C35_7 N2_7 1_555 1_555
H19_7 C35_7 1_555 1_555
H20_7 C35_7 1_555 1_555
H21_7 C35_7 1_555 1_555
C36_7 N2_7 1_555 1_555
H22_7 C36_7 1_555 1_555
H23_7 C36_7 1_555 1_555
H24_7 C36_7 1_555 1_555
O78_4 C39_11 1_555 1_555
O83_5 C39_11 1_555 1_555
C37_11 C32_11 1_555 1_555
C38_11 C37_11 1_555 1_555
H25_11 C38_11 1_555 1_555
C39_11 C37_11 1_555 1_555
O29_11 C42_11 1_555 1_555
O30_11 C42_11 1_555 1_555
C40_11 C38_11 1_555 1_555
C41_11 C31_11 1_555 1_555
H26_11 C41_11 1_555 1_555
C42_11 C40_11 1_555 1_555
Zn7_5 O6_7 1_555 1_555
Zn8_5 O5_7 1_555 1_555
Zn9_7 O34_7 1_555 1_555
O31_7 Zn7_5 1_555 1_555
O32_7 Zn8_5 1_555 1_555
O33_7 C50_7 1_555 1_555
O34_7 C50_7 1_555 1_555
O35_7 Zn5_10 1_555 1_555
O36_7 Zn4_10 1_555 1_555
O37_9 Zn7_5 1_555 1_555
O38_9 Zn8_5 1_555 1_555
O39_7 Zn9_7 1_555 1_555
N3_7 C52_7 1_555 1_555
C43_7 C44_7 1_555 1_555
C44_7 H27_7 1_555 1_555
C45_7 C44_7 1_555 1_555
C46_7 C45_7 1_555 1_555
H28_7 C46_7 1_555 1_555
C47_7 C46_7 1_555 1_555
C48_7 C43_7 1_555 1_555
H29_7 C48_7 1_555 1_555
C49_7 O31_7 1_555 1_555
C50_7 C45_7 1_555 1_555
C51_7 O35_7 1_555 1_555
C52_7 O39_7 1_555 1_555
H30_7 C52_7 1_555 1_555
C53_7 N3_7 1_555 1_555
H31_7 C53_7 1_555 1_555
H32_7 C53_7 1_555 1_555
H33_7 C53_7 1_555 1_555
C54_7 N3_7 1_555 1_555
H34_7 C54_7 1_555 1_555
H35_7 C54_7 1_555 1_555
H36_7 C54_7 1_555 1_555
Zn26_4 O30_11 1_555 1_555
Zn24_7 O18_7 1_555 1_555
Zn23_4 O14_7 1_555 1_555
Zn27_7 O33_7 1_555 1_555
Zn31_4 O29_11 1_555 1_555
Zn29_7 O3_7 1_555 1_555
Zn28_4 O15_7 1_555 1_555
O65_7 Zn6_7 1_555 1_555
O67_7 Zn9_7 1_555 1_555
O68_7 Zn3_7 1_555 1_555
O77_7 Zn9_7 1_555 1_555
O80_7 Zn6_7 1_555 1_555
O81_7 Zn9_7 1_555 1_555
O82_7 Zn3_7 1_555 1_555
O8_7 Zn29_7 1_555 1_555
C5_7 C6_7 1_555 1_555
C10_7 C12_7 1_555 1_555
C19_7 C20_7 1_555 1_555
O21_7 C30_7 1_555 1_555
O23_11 Zn24_7 1_555 1_555
C26_7 C27_7 1_555 1_555
C26_7 C30_7 1_555 1_555
C31_11 C33_11 1_555 1_555
C40_11 C41_11 1_555 1_555
O32_7 C49_7 1_555 1_555
O36_7 C51_7 1_555 1_555
C43_7 C49_7 1_555 1_555
C47_7 C48_7 1_555 1_555
C47_7 C51_7 1_555 1_555
O37_10 Zn7_6 1_555 1_555
O38_10 Zn8_6 1_555 1_555
O62_7 Zn7_6 1_555 1_555
O64_7 Zn8_6 1_555 1_555
O71_4 Zn8_6 1_555 1_555
O74_4 Zn7_6 1_555 1_555
O9_10 Zn1_10 1_555 1_555
O10_10 Zn2_10 1_555 1_555
Zn12_15 O57_15 1_555 1_555
O54_7 Zn1_10 1_555 1_555
O55_7 Zn2_10 1_555 1_555
O56_15 C86_15 1_555 1_555
O57_15 C86_15 1_555 1_555
O58_4 C87_15 1_555 1_555
O59_4 C87_15 1_555 1_555
O60_15 Zn12_15 1_555 1_555
N6_15 C88_15 1_555 1_555
C79_15 C80_15 1_555 1_555
C80_15 H57_15 1_555 1_555
C81_15 C80_15 1_555 1_555
C82_15 C81_15 1_555 1_555
H58_15 C82_15 1_555 1_555
C83_15 C82_15 1_555 1_555
C84_15 C79_15 1_555 1_555
H59_15 C84_15 1_555 1_555
C85_15 O54_7 1_555 1_555
C86_15 C81_15 1_555 1_555
C87_15 C83_15 1_555 1_555
C88_15 O60_15 1_555 1_555
H60_15 C88_15 1_555 1_555
C89_15 N6_15 1_555 1_555
H61_15 C89_15 1_555 1_555
H62_15 C89_15 1_555 1_555
H63_15 C89_15 1_555 1_555
C90_15 N6_15 1_555 1_555
H64_15 C90_15 1_555 1_555
H65_15 C90_15 1_555 1_555
H66_15 C90_15 1_555 1_555
Zn13_5 O59_4 1_555 1_555
Zn18_5 O58_4 1_555 1_555
Zn32_15 O56_15 1_555 1_555
O70_15 Zn12_15 1_555 1_555
O72_7 Zn2_10 1_555 1_555
O75_7 Zn1_10 1_555 1_555
O79_15 Zn12_15 1_555 1_555
O84_15 Zn12_15 1_555 1_555
O55_7 C85_15 1_555 1_555
C79_15 C85_15 1_555 1_555
C83_15 C84_15 1_555 1_555
O9_11 Zn1_11 1_555 1_555
O10_11 Zn2_11 1_555 1_555
Zn12_16 O57_16 1_555 1_555
O54_8 Zn1_11 1_555 1_555
O55_8 Zn2_11 1_555 1_555
O56_16 C86_16 1_555 1_555
O57_16 C86_16 1_555 1_555
O71_4 C87_16 1_555 1_555
O74_4 C87_16 1_555 1_555
O60_16 Zn12_16 1_555 1_555
N6_16 C88_16 1_555 1_555
C79_16 C80_16 1_555 1_555
C80_16 H57_16 1_555 1_555
C81_16 C80_16 1_555 1_555
C82_16 C81_16 1_555 1_555
H58_16 C82_16 1_555 1_555
C83_16 C82_16 1_555 1_555
C84_16 C79_16 1_555 1_555
H59_16 C84_16 1_555 1_555
C85_16 O54_8 1_555 1_555
C86_16 C81_16 1_555 1_555
C87_16 C83_16 1_555 1_555
C88_16 O60_16 1_555 1_555
H60_16 C88_16 1_555 1_555
C89_16 N6_16 1_555 1_555
H61_16 C89_16 1_555 1_555
H62_16 C89_16 1_555 1_555
H63_16 C89_16 1_555 1_555
C90_16 N6_16 1_555 1_555
H64_16 C90_16 1_555 1_555
H65_16 C90_16 1_555 1_555
H66_16 C90_16 1_555 1_555
Zn32_16 O56_16 1_555 1_555
O70_16 Zn12_16 1_555 1_555
O72_8 Zn2_11 1_555 1_555
O75_8 Zn1_11 1_555 1_555
O79_16 Zn12_16 1_555 1_555
O84_16 Zn12_16 1_555 1_555
O55_8 C85_16 1_555 1_555
C79_16 C85_16 1_555 1_555
C83_16 C84_16 1_555 1_555
O37_11 Zn13_5 1_555 1_555
O38_11 Zn18_5 1_555 1_555
O62_8 Zn13_5 1_555 1_555
O64_8 Zn18_5 1_555 1_555
O24_11 Zn4_11 1_555 1_555
O25_11 Zn5_11 1_555 1_555
O61_8 Zn4_11 1_555 1_555
O63_8 Zn5_11 1_555 1_555
O73_8 Zn5_11 1_555 1_555
O76_8 Zn4_11 1_555 1_555
Zn1_12 O1_8 1_555 1_555
Zn2_12 O2_8 1_555 1_555
Zn3_8 O4_8 1_555 1_555
O1_8 C7_8 1_555 1_555
O2_8 C7_8 1_555 1_555
O3_8 C8_8 1_555 1_555
O4_8 C8_8 1_555 1_555
O5_8 C9_8 1_555 1_555
O6_8 C9_8 1_555 1_555
O7_8 Zn3_8 1_555 1_555
O8_8 C12_8 1_555 1_555
O9_12 Zn1_12 1_555 1_555
O10_12 Zn2_12 1_555 1_555
O11_8 Zn3_8 1_555 1_555
N1_8 C13_8 1_555 1_555
C1_8 C2_8 1_555 1_555
C2_8 H1_8 1_555 1_555
C3_8 C2_8 1_555 1_555
C4_8 C3_8 1_555 1_555
H2_8 C4_8 1_555 1_555
C5_8 C4_8 1_555 1_555
C6_8 C1_8 1_555 1_555
H3_8 C6_8 1_555 1_555
C7_8 C1_8 1_555 1_555
C8_8 C3_8 1_555 1_555
C9_8 C5_8 1_555 1_555
C10_8 C11_8 1_555 1_555
C11_8 H4_8 1_555 1_555
C12_8 O7_8 1_555 1_555
C13_8 O11_8 1_555 1_555
H5_8 C13_8 1_555 1_555
C14_8 N1_8 1_555 1_555
H6_8 C14_8 1_555 1_555
H7_8 C14_8 1_555 1_555
H8_8 C14_8 1_555 1_555
C15_8 N1_8 1_555 1_555
H9_8 C15_8 1_555 1_555
H10_8 C15_8 1_555 1_555
H11_8 C15_8 1_555 1_555
O78_7 C18_8 1_555 1_555
O83_11 C18_8 1_555 1_555
C16_8 C11_8 1_555 1_555
C17_8 C16_8 1_555 1_555
H12_8 C17_8 1_555 1_555
C18_8 C16_8 1_555 1_555
O14_8 C21_8 1_555 1_555
O15_8 C21_8 1_555 1_555
C19_8 C17_8 1_555 1_555
C20_8 C10_8 1_555 1_555
H13_8 C20_8 1_555 1_555
C21_8 C19_8 1_555 1_555
Zn4_12 O16_8 1_555 1_555
Zn5_12 O17_8 1_555 1_555
Zn6_8 O19_8 1_555 1_555
O16_8 C28_8 1_555 1_555
O17_8 C28_8 1_555 1_555
O18_8 C29_8 1_555 1_555
O19_8 C29_8 1_555 1_555
O20_8 Zn2_12 1_555 1_555
O21_8 Zn1_12 1_555 1_555
O22_8 Zn6_8 1_555 1_555
O23_12 C33_12 1_555 1_555
O24_12 Zn4_12 1_555 1_555
O25_12 Zn5_12 1_555 1_555
O26_8 Zn6_8 1_555 1_555
N2_8 C34_8 1_555 1_555
C22_8 C23_8 1_555 1_555
C23_8 H14_8 1_555 1_555
C24_8 C23_8 1_555 1_555
C25_8 C24_8 1_555 1_555
H15_8 C25_8 1_555 1_555
C26_8 C25_8 1_555 1_555
C27_8 C22_8 1_555 1_555
H16_8 C27_8 1_555 1_555
C28_8 C22_8 1_555 1_555
C29_8 C24_8 1_555 1_555
C30_8 O20_8 1_555 1_555
C31_12 C32_12 1_555 1_555
C32_12 H17_12 1_555 1_555
C33_12 O22_8 1_555 1_555
C34_8 O26_8 1_555 1_555
H18_8 C34_8 1_555 1_555
C35_8 N2_8 1_555 1_555
H19_8 C35_8 1_555 1_555
H20_8 C35_8 1_555 1_555
H21_8 C35_8 1_555 1_555
C36_8 N2_8 1_555 1_555
H22_8 C36_8 1_555 1_555
H23_8 C36_8 1_555 1_555
H24_8 C36_8 1_555 1_555
O78_3 C39_12 1_555 1_555
O83_7 C39_12 1_555 1_555
C37_12 C32_12 1_555 1_555
C38_12 C37_12 1_555 1_555
H25_12 C38_12 1_555 1_555
C39_12 C37_12 1_555 1_555
O29_12 C42_12 1_555 1_555
O30_12 C42_12 1_555 1_555
C40_12 C38_12 1_555 1_555
C41_12 C31_12 1_555 1_555
H26_12 C41_12 1_555 1_555
C42_12 C40_12 1_555 1_555
Zn13_6 O6_8 1_555 1_555
Zn18_6 O5_8 1_555 1_555
Zn9_8 O34_8 1_555 1_555
O31_8 Zn13_6 1_555 1_555
O32_8 Zn18_6 1_555 1_555
O33_8 C50_8 1_555 1_555
O34_8 C50_8 1_555 1_555
O35_8 Zn5_12 1_555 1_555
O36_8 Zn4_12 1_555 1_555
O37_12 Zn13_6 1_555 1_555
O38_12 Zn18_6 1_555 1_555
O39_8 Zn9_8 1_555 1_555
N3_8 C52_8 1_555 1_555
C43_8 C44_8 1_555 1_555
C44_8 H27_8 1_555 1_555
C45_8 C44_8 1_555 1_555
C46_8 C45_8 1_555 1_555
H28_8 C46_8 1_555 1_555
C47_8 C46_8 1_555 1_555
C48_8 C43_8 1_555 1_555
H29_8 C48_8 1_555 1_555
C49_8 O31_8 1_555 1_555
C50_8 C45_8 1_555 1_555
C51_8 O35_8 1_555 1_555
C52_8 O39_8 1_555 1_555
H30_8 C52_8 1_555 1_555
C53_8 N3_8 1_555 1_555
H31_8 C53_8 1_555 1_555
H32_8 C53_8 1_555 1_555
H33_8 C53_8 1_555 1_555
C54_8 N3_8 1_555 1_555
H34_8 C54_8 1_555 1_555
H35_8 C54_8 1_555 1_555
H36_8 C54_8 1_555 1_555
Zn26_3 O30_12 1_555 1_555
Zn24_8 O18_8 1_555 1_555
Zn23_3 O14_8 1_555 1_555
Zn27_8 O33_8 1_555 1_555
Zn31_3 O29_12 1_555 1_555
Zn29_8 O3_8 1_555 1_555
Zn28_3 O15_8 1_555 1_555
O65_8 Zn6_8 1_555 1_555
O67_8 Zn9_8 1_555 1_555
O68_8 Zn3_8 1_555 1_555
O77_8 Zn9_8 1_555 1_555
O80_8 Zn6_8 1_555 1_555
O81_8 Zn9_8 1_555 1_555
O82_8 Zn3_8 1_555 1_555
O8_8 Zn29_8 1_555 1_555
C5_8 C6_8 1_555 1_555
C10_8 C12_8 1_555 1_555
C19_8 C20_8 1_555 1_555
O21_8 C30_8 1_555 1_555
O23_12 Zn24_8 1_555 1_555
C26_8 C27_8 1_555 1_555
C26_8 C30_8 1_555 1_555
C31_12 C33_12 1_555 1_555
C40_12 C41_12 1_555 1_555
O32_8 C49_8 1_555 1_555
O36_8 C51_8 1_555 1_555
C43_8 C49_8 1_555 1_555
C47_8 C48_8 1_555 1_555
C47_8 C51_8 1_555 1_555
Zn12_17 O57_17 1_555 1_555
O56_17 C86_17 1_555 1_555
O57_17 C86_17 1_555 1_555
O72_5 C87_17 1_555 1_555
O75_5 C87_17 1_555 1_555
O60_17 Zn12_17 1_555 1_555
N6_17 C88_17 1_555 1_555
C79_17 C80_17 1_555 1_555
C80_17 H57_17 1_555 1_555
C81_17 C80_17 1_555 1_555
C82_17 C81_17 1_555 1_555
H58_17 C82_17 1_555 1_555
C83_17 C82_17 1_555 1_555
C84_17 C79_17 1_555 1_555
H59_17 C84_17 1_555 1_555
C85_17 O61_8 1_555 1_555
C86_17 C81_17 1_555 1_555
C87_17 C83_17 1_555 1_555
C88_17 O60_17 1_555 1_555
H60_17 C88_17 1_555 1_555
C89_17 N6_17 1_555 1_555
H61_17 C89_17 1_555 1_555
H62_17 C89_17 1_555 1_555
H63_17 C89_17 1_555 1_555
C90_17 N6_17 1_555 1_555
H64_17 C90_17 1_555 1_555
H65_17 C90_17 1_555 1_555
H66_17 C90_17 1_555 1_555
Zn32_17 O56_17 1_555 1_555
O70_17 Zn12_17 1_555 1_555
O79_17 Zn12_17 1_555 1_555
O84_17 Zn12_17 1_555 1_555
O63_8 C85_17 1_555 1_555
C79_17 C85_17 1_555 1_555
C83_17 C84_17 1_555 1_555
O23_13 C33_13 1_555 1_555
C31_13 C32_13 1_555 1_555
C32_13 H17_13 1_555 1_555
C33_13 O77_8 1_555 1_555
O78_11 C39_13 1_555 1_555
O83_3 C39_13 1_555 1_555
C37_13 C32_13 1_555 1_555
C38_13 C37_13 1_555 1_555
H25_13 C38_13 1_555 1_555
C39_13 C37_13 1_555 1_555
O29_13 C42_13 1_555 1_555
O30_13 C42_13 1_555 1_555
C40_13 C38_13 1_555 1_555
C41_13 C31_13 1_555 1_555
H26_13 C41_13 1_555 1_555
C42_13 C40_13 1_555 1_555
Zn28_7 O30_13 1_555 1_555
Zn23_7 O29_13 1_555 1_555
O23_13 Zn27_8 1_555 1_555
C31_13 C33_13 1_555 1_555
C40_13 C41_13 1_555 1_555
O23_14 C33_14 1_555 1_555
C31_14 C32_14 1_555 1_555
C32_14 H17_14 1_555 1_555
C33_14 O77_5 1_555 1_555
O78_12 C39_14 1_555 1_555
O83 C39_14 1_555 1_555
C37_14 C32_14 1_555 1_555
C38_14 C37_14 1_555 1_555
H25_14 C38_14 1_555 1_555
C39_14 C37_14 1_555 1_555
O29_14 C42_14 1_555 1_555
O30_14 C42_14 1_555 1_555
C40_14 C38_14 1_555 1_555
C41_14 C31_14 1_555 1_555
H26_14 C41_14 1_555 1_555
C42_14 C40_14 1_555 1_555
Zn28_6 O30_14 1_555 1_555
Zn23_6 O29_14 1_555 1_555
O23_14 Zn27_5 1_555 1_555
C31_14 C33_14 1_555 1_555
C40_14 C41_14 1_555 1_555
Zn12_18 O57_18 1_555 1_555
O56_18 C86_18 1_555 1_555
O57_18 C86_18 1_555 1_555
O72_8 C87_18 1_555 1_555
O75_8 C87_18 1_555 1_555
O60_18 Zn12_18 1_555 1_555
N6_18 C88_18 1_555 1_555
C79_18 C80_18 1_555 1_555
C80_18 H57_18 1_555 1_555
C81_18 C80_18 1_555 1_555
C82_18 C81_18 1_555 1_555
H58_18 C82_18 1_555 1_555
C83_18 C82_18 1_555 1_555
C84_18 C79_18 1_555 1_555
H59_18 C84_18 1_555 1_555
C85_18 O61_5 1_555 1_555
C86_18 C81_18 1_555 1_555
C87_18 C83_18 1_555 1_555
C88_18 O60_18 1_555 1_555
H60_18 C88_18 1_555 1_555
C89_18 N6_18 1_555 1_555
H61_18 C89_18 1_555 1_555
H62_18 C89_18 1_555 1_555
H63_18 C89_18 1_555 1_555
C90_18 N6_18 1_555 1_555
H64_18 C90_18 1_555 1_555
H65_18 C90_18 1_555 1_555
H66_18 C90_18 1_555 1_555
Zn32_18 O56_18 1_555 1_555
O70_18 Zn12_18 1_555 1_555
O79_18 Zn12_18 1_555 1_555
O84_18 Zn12_18 1_555 1_555
O63_5 C85_18 1_555 1_555
C79_18 C85_18 1_555 1_555
C83_18 C84_18 1_555 1_555
Zn12_19 O57_19 1_555 1_555
O56_19 C86_19 1_555 1_555
O57_19 C86_19 1_555 1_555
O72_6 C87_19 1_555 1_555
O75_6 C87_19 1_555 1_555
O60_19 Zn12_19 1_555 1_555
N6_19 C88_19 1_555 1_555
C79_19 C80_19 1_555 1_555
C80_19 H57_19 1_555 1_555
C81_19 C80_19 1_555 1_555
C82_19 C81_19 1_555 1_555
H58_19 C82_19 1_555 1_555
C83_19 C82_19 1_555 1_555
C84_19 C79_19 1_555 1_555
H59_19 C84_19 1_555 1_555
C85_19 O61_7 1_555 1_555
C86_19 C81_19 1_555 1_555
C87_19 C83_19 1_555 1_555
C88_19 O60_19 1_555 1_555
H60_19 C88_19 1_555 1_555
C89_19 N6_19 1_555 1_555
H61_19 C89_19 1_555 1_555
H62_19 C89_19 1_555 1_555
H63_19 C89_19 1_555 1_555
C90_19 N6_19 1_555 1_555
H64_19 C90_19 1_555 1_555
H65_19 C90_19 1_555 1_555
H66_19 C90_19 1_555 1_555
Zn32_19 O56_19 1_555 1_555
O70_19 Zn12_19 1_555 1_555
O79_19 Zn12_19 1_555 1_555
O84_19 Zn12_19 1_555 1_555
O63_7 C85_19 1_555 1_555
C79_19 C85_19 1_555 1_555
C83_19 C84_19 1_555 1_555
O23_15 C33_15 1_555 1_555
C31_15 C32_15 1_555 1_555
C32_15 H17_15 1_555 1_555
C33_15 O77_7 1_555 1_555
O78_10 C39_15 1_555 1_555
O83_4 C39_15 1_555 1_555
C37_15 C32_15 1_555 1_555
C38_15 C37_15 1_555 1_555
H25_15 C38_15 1_555 1_555
C39_15 C37_15 1_555 1_555
O29_15 C42_15 1_555 1_555
O30_15 C42_15 1_555 1_555
C40_15 C38_15 1_555 1_555
C41_15 C31_15 1_555 1_555
H26_15 C41_15 1_555 1_555
C42_15 C40_15 1_555 1_555
Zn28_5 O30_15 1_555 1_555
Zn23_5 O29_15 1_555 1_555
O23_15 Zn27_7 1_555 1_555
C31_15 C33_15 1_555 1_555
C40_15 C41_15 1_555 1_555
O23_16 C33_16 1_555 1_555
C31_16 C32_16 1_555 1_555
C32_16 H17_16 1_555 1_555
C33_16 O77_6 1_555 1_555
O78_9 C39_16 1_555 1_555
O83_2 C39_16 1_555 1_555
C37_16 C32_16 1_555 1_555
C38_16 C37_16 1_555 1_555
H25_16 C38_16 1_555 1_555
C39_16 C37_16 1_555 1_555
O29_16 C42_16 1_555 1_555
O30_16 C42_16 1_555 1_555
C40_16 C38_16 1_555 1_555
C41_16 C31_16 1_555 1_555
H26_16 C41_16 1_555 1_555
C42_16 C40_16 1_555 1_555
Zn28_8 O30_16 1_555 1_555
Zn23_8 O29_16 1_555 1_555
O23_16 Zn27_6 1_555 1_555
C31_16 C33_16 1_555 1_555
C40_16 C41_16 1_555 1_555
Zn12_20 O57_20 1_555 1_555
O56_20 C86_20 1_555 1_555
O57_20 C86_20 1_555 1_555
O72_7 C87_20 1_555 1_555
O75_7 C87_20 1_555 1_555
O60_20 Zn12_20 1_555 1_555
N6_20 C88_20 1_555 1_555
C79_20 C80_20 1_555 1_555
C80_20 H57_20 1_555 1_555
C81_20 C80_20 1_555 1_555
C82_20 C81_20 1_555 1_555
H58_20 C82_20 1_555 1_555
C83_20 C82_20 1_555 1_555
C84_20 C79_20 1_555 1_555
H59_20 C84_20 1_555 1_555
C85_20 O61_6 1_555 1_555
C86_20 C81_20 1_555 1_555
C87_20 C83_20 1_555 1_555
C88_20 O60_20 1_555 1_555
H60_20 C88_20 1_555 1_555
C89_20 N6_20 1_555 1_555
H61_20 C89_20 1_555 1_555
H62_20 C89_20 1_555 1_555
H63_20 C89_20 1_555 1_555
C90_20 N6_20 1_555 1_555
H64_20 C90_20 1_555 1_555
H65_20 C90_20 1_555 1_555
H66_20 C90_20 1_555 1_555
Zn32_20 O56_20 1_555 1_555
O70_20 Zn12_20 1_555 1_555
O79_20 Zn12_20 1_555 1_555
O84_20 Zn12_20 1_555 1_555
O63_6 C85_20 1_555 1_555
C79_20 C85_20 1_555 1_555
C83_20 C84_20 1_555 1_555
Zn12_21 O57_21 1_555 1_555
O56_21 C86_21 1_555 1_555
O57_21 C86_21 1_555 1_555
O73_8 C87_21 1_555 1_555
O76_8 C87_21 1_555 1_555
O60_21 Zn12_21 1_555 1_555
N6_21 C88_21 1_555 1_555
C79_21 C80_21 1_555 1_555
C80_21 H57_21 1_555 1_555
C81_21 C80_21 1_555 1_555
C82_21 C81_21 1_555 1_555
H58_21 C82_21 1_555 1_555
C83_21 C82_21 1_555 1_555
C84_21 C79_21 1_555 1_555
H59_21 C84_21 1_555 1_555
C85_21 O62_6 1_555 1_555
C86_21 C81_21 1_555 1_555
C87_21 C83_21 1_555 1_555
C88_21 O60_21 1_555 1_555
H60_21 C88_21 1_555 1_555
C89_21 N6_21 1_555 1_555
H61_21 C89_21 1_555 1_555
H62_21 C89_21 1_555 1_555
H63_21 C89_21 1_555 1_555
C90_21 N6_21 1_555 1_555
H64_21 C90_21 1_555 1_555
H65_21 C90_21 1_555 1_555
H66_21 C90_21 1_555 1_555
Zn32_21 O56_21 1_555 1_555
O70_21 Zn12_21 1_555 1_555
O79_21 Zn12_21 1_555 1_555
O84_21 Zn12_21 1_555 1_555
O64_6 C85_21 1_555 1_555
C79_21 C85_21 1_555 1_555
C83_21 C84_21 1_555 1_555
Zn12_22 O57_22 1_555 1_555
O56_22 C86_22 1_555 1_555
O57_22 C86_22 1_555 1_555
O73_6 C87_22 1_555 1_555
O76_6 C87_22 1_555 1_555
O60_22 Zn12_22 1_555 1_555
N6_22 C88_22 1_555 1_555
C79_22 C80_22 1_555 1_555
C80_22 H57_22 1_555 1_555
C81_22 C80_22 1_555 1_555
C82_22 C81_22 1_555 1_555
H58_22 C82_22 1_555 1_555
C83_22 C82_22 1_555 1_555
C84_22 C79_22 1_555 1_555
H59_22 C84_22 1_555 1_555
C85_22 O62_8 1_555 1_555
C86_22 C81_22 1_555 1_555
C87_22 C83_22 1_555 1_555
C88_22 O60_22 1_555 1_555
H60_22 C88_22 1_555 1_555
C89_22 N6_22 1_555 1_555
H61_22 C89_22 1_555 1_555
H62_22 C89_22 1_555 1_555
H63_22 C89_22 1_555 1_555
C90_22 N6_22 1_555 1_555
H64_22 C90_22 1_555 1_555
H65_22 C90_22 1_555 1_555
H66_22 C90_22 1_555 1_555
Zn32_22 O56_22 1_555 1_555
O70_22 Zn12_22 1_555 1_555
O79_22 Zn12_22 1_555 1_555
O84_22 Zn12_22 1_555 1_555
O64_8 C85_22 1_555 1_555
C79_22 C85_22 1_555 1_555
C83_22 C84_22 1_555 1_555
Zn12_23 O57_23 1_555 1_555
O56_23 C86_23 1_555 1_555
O57_23 C86_23 1_555 1_555
O73_5 C87_23 1_555 1_555
O76_5 C87_23 1_555 1_555
O60_23 Zn12_23 1_555 1_555
N6_23 C88_23 1_555 1_555
C79_23 C80_23 1_555 1_555
C80_23 H57_23 1_555 1_555
C81_23 C80_23 1_555 1_555
C82_23 C81_23 1_555 1_555
H58_23 C82_23 1_555 1_555
C83_23 C82_23 1_555 1_555
C84_23 C79_23 1_555 1_555
H59_23 C84_23 1_555 1_555
C85_23 O62_7 1_555 1_555
C86_23 C81_23 1_555 1_555
C87_23 C83_23 1_555 1_555
C88_23 O60_23 1_555 1_555
H60_23 C88_23 1_555 1_555
C89_23 N6_23 1_555 1_555
H61_23 C89_23 1_555 1_555
H62_23 C89_23 1_555 1_555
H63_23 C89_23 1_555 1_555
C90_23 N6_23 1_555 1_555
H64_23 C90_23 1_555 1_555
H65_23 C90_23 1_555 1_555
H66_23 C90_23 1_555 1_555
Zn32_23 O56_23 1_555 1_555
O70_23 Zn12_23 1_555 1_555
O79_23 Zn12_23 1_555 1_555
O84_23 Zn12_23 1_555 1_555
O64_7 C85_23 1_555 1_555
C79_23 C85_23 1_555 1_555
C83_23 C84_23 1_555 1_555
Zn12_24 O57_24 1_555 1_555
O56_24 C86_24 1_555 1_555
O57_24 C86_24 1_555 1_555
O73_7 C87_24 1_555 1_555
O76_7 C87_24 1_555 1_555
O60_24 Zn12_24 1_555 1_555
N6_24 C88_24 1_555 1_555
C79_24 C80_24 1_555 1_555
C80_24 H57_24 1_555 1_555
C81_24 C80_24 1_555 1_555
C82_24 C81_24 1_555 1_555
H58_24 C82_24 1_555 1_555
C83_24 C82_24 1_555 1_555
C84_24 C79_24 1_555 1_555
H59_24 C84_24 1_555 1_555
C85_24 O62_5 1_555 1_555
C86_24 C81_24 1_555 1_555
C87_24 C83_24 1_555 1_555
C88_24 O60_24 1_555 1_555
H60_24 C88_24 1_555 1_555
C89_24 N6_24 1_555 1_555
H61_24 C89_24 1_555 1_555
H62_24 C89_24 1_555 1_555
H63_24 C89_24 1_555 1_555
C90_24 N6_24 1_555 1_555
H64_24 C90_24 1_555 1_555
H65_24 C90_24 1_555 1_555
H66_24 C90_24 1_555 1_555
Zn32_24 O56_24 1_555 1_555
O70_24 Zn12_24 1_555 1_555
O79_24 Zn12_24 1_555 1_555
O84_24 Zn12_24 1_555 1_555
O64_5 C85_24 1_555 1_555
C79_24 C85_24 1_555 1_555
C83_24 C84_24 1_555 1_555
O24_13 Zn14_7 1_555 1_555
O25_13 Zn19_7 1_555 1_555
O61_9 Zn14_7 1_555 1_555
O63_9 Zn19_7 1_555 1_555
O73_9 Zn19_7 1_555 1_555
O76_9 Zn14_7 1_555 1_555
Zn1_13 O1_9 1_555 1_555
Zn2_13 O2_9 1_555 1_555
Zn28_5 O4_9 1_555 1_555
O1_9 C7_9 1_555 1_555
O2_9 C7_9 1_555 1_555
O3_9 C8_9 1_555 1_555
O4_9 C8_9 1_555 1_555
O5_9 C9_9 1_555 1_555
O6_9 C9_9 1_555 1_555
O9_13 Zn1_13 1_555 1_555
O10_13 Zn2_13 1_555 1_555
O11_9 Zn28_5 1_555 1_555
N1_9 C13_9 1_555 1_555
C1_9 C2_9 1_555 1_555
C2_9 H1_9 1_555 1_555
C3_9 C2_9 1_555 1_555
C4_9 C3_9 1_555 1_555
H2_9 C4_9 1_555 1_555
C5_9 C4_9 1_555 1_555
C6_9 C1_9 1_555 1_555
H3_9 C6_9 1_555 1_555
C7_9 C1_9 1_555 1_555
C8_9 C3_9 1_555 1_555
C9_9 C5_9 1_555 1_555
C13_9 O11_9 1_555 1_555
H5_9 C13_9 1_555 1_555
C14_9 N1_9 1_555 1_555
H6_9 C14_9 1_555 1_555
H7_9 C14_9 1_555 1_555
H8_9 C14_9 1_555 1_555
C15_9 N1_9 1_555 1_555
H9_9 C15_9 1_555 1_555
H10_9 C15_9 1_555 1_555
H11_9 C15_9 1_555 1_555
Zn14_8 O16_9 1_555 1_555
Zn19_8 O17_9 1_555 1_555
Zn27_7 O19_9 1_555 1_555
O16_9 C28_9 1_555 1_555
O17_9 C28_9 1_555 1_555
O67_7 C29_9 1_555 1_555
O19_9 C29_9 1_555 1_555
O20_9 Zn2_13 1_555 1_555
O21_9 Zn1_13 1_555 1_555
O22_9 Zn27_7 1_555 1_555
O81_7 C33_17 1_555 1_555
O24_14 Zn14_8 1_555 1_555
O25_14 Zn19_8 1_555 1_555
O26_9 Zn27_7 1_555 1_555
N2_9 C34_9 1_555 1_555
C22_9 C23_9 1_555 1_555
C23_9 H14_9 1_555 1_555
C24_9 C23_9 1_555 1_555
C25_9 C24_9 1_555 1_555
H15_9 C25_9 1_555 1_555
C26_9 C25_9 1_555 1_555
C27_9 C22_9 1_555 1_555
H16_9 C27_9 1_555 1_555
C28_9 C22_9 1_555 1_555
C29_9 C24_9 1_555 1_555
C30_9 O20_9 1_555 1_555
C31_17 C32_17 1_555 1_555
C32_17 H17_17 1_555 1_555
C33_17 O22_9 1_555 1_555
C34_9 O26_9 1_555 1_555
H18_9 C34_9 1_555 1_555
C35_9 N2_9 1_555 1_555
H19_9 C35_9 1_555 1_555
H20_9 C35_9 1_555 1_555
H21_9 C35_9 1_555 1_555
C36_9 N2_9 1_555 1_555
H22_9 C36_9 1_555 1_555
H23_9 C36_9 1_555 1_555
H24_9 C36_9 1_555 1_555
O27_9 C39_17 1_555 1_555
O82_7 C39_17 1_555 1_555
C37_17 C32_17 1_555 1_555
C38_17 C37_17 1_555 1_555
H25_17 C38_17 1_555 1_555
C39_17 C37_17 1_555 1_555
O29_17 C42_17 1_555 1_555
O80_7 C42_17 1_555 1_555
C40_17 C38_17 1_555 1_555
C41_17 C31_17 1_555 1_555
H26_17 C41_17 1_555 1_555
C42_17 C40_17 1_555 1_555
Zn15_4 O6_9 1_555 1_555
Zn20_4 O5_9 1_555 1_555
O37_13 Zn15_4 1_555 1_555
O38_13 Zn20_4 1_555 1_555
Zn29_7 O27_9 1_555 1_555
Zn24_7 O29_17 1_555 1_555
Zn23_5 O3_9 1_555 1_555
O62_9 Zn15_4 1_555 1_555
O64_9 Zn20_4 1_555 1_555
O68_9 Zn28_5 1_555 1_555
O71_5 Zn20_4 1_555 1_555
O74_5 Zn15_4 1_555 1_555
C5_9 C6_9 1_555 1_555
O21_9 C30_9 1_555 1_555
C26_9 C27_9 1_555 1_555
C26_9 C30_9 1_555 1_555
C31_17 C33_17 1_555 1_555
C40_17 C41_17 1_555 1_555
O9_14 Zn1_14 1_555 1_555
O10_14 Zn2_14 1_555 1_555
Zn12_25 O57_25 1_555 1_555
O54_9 Zn1_14 1_555 1_555
O55_9 Zn2_14 1_555 1_555
O56_25 C86_25 1_555 1_555
O57_25 C86_25 1_555 1_555
O58_5 C87_25 1_555 1_555
O59_5 C87_25 1_555 1_555
O60_25 Zn12_25 1_555 1_555
N6_25 C88_25 1_555 1_555
C79_25 C80_25 1_555 1_555
C80_25 H57_25 1_555 1_555
C81_25 C80_25 1_555 1_555
C82_25 C81_25 1_555 1_555
H58_25 C82_25 1_555 1_555
C83_25 C82_25 1_555 1_555
C84_25 C79_25 1_555 1_555
H59_25 C84_25 1_555 1_555
C85_25 O54_9 1_555 1_555
C86_25 C81_25 1_555 1_555
C87_25 C83_25 1_555 1_555
C88_25 O60_25 1_555 1_555
H60_25 C88_25 1_555 1_555
C89_25 N6_25 1_555 1_555
H61_25 C89_25 1_555 1_555
H62_25 C89_25 1_555 1_555
H63_25 C89_25 1_555 1_555
C90_25 N6_25 1_555 1_555
H64_25 C90_25 1_555 1_555
H65_25 C90_25 1_555 1_555
H66_25 C90_25 1_555 1_555
Zn15_3 O59_5 1_555 1_555
Zn20_3 O58_5 1_555 1_555
Zn32_25 O56_25 1_555 1_555
O70_25 Zn12_25 1_555 1_555
O72_9 Zn2_14 1_555 1_555
O75_9 Zn1_14 1_555 1_555
O79_25 Zn12_25 1_555 1_555
O84_25 Zn12_25 1_555 1_555
O55_9 C85_25 1_555 1_555
C79_25 C85_25 1_555 1_555
C83_25 C84_25 1_555 1_555
O9_15 Zn1_15 1_555 1_555
O10_15 Zn2_15 1_555 1_555
Zn12_26 O57_26 1_555 1_555
O54_10 Zn1_15 1_555 1_555
O55_10 Zn2_15 1_555 1_555
O56_26 C86_26 1_555 1_555
O57_26 C86_26 1_555 1_555
O71_5 C87_26 1_555 1_555
O74_5 C87_26 1_555 1_555
O60_26 Zn12_26 1_555 1_555
N6_26 C88_26 1_555 1_555
C79_26 C80_26 1_555 1_555
C80_26 H57_26 1_555 1_555
C81_26 C80_26 1_555 1_555
C82_26 C81_26 1_555 1_555
H58_26 C82_26 1_555 1_555
C83_26 C82_26 1_555 1_555
C84_26 C79_26 1_555 1_555
H59_26 C84_26 1_555 1_555
C85_26 O54_10 1_555 1_555
C86_26 C81_26 1_555 1_555
C87_26 C83_26 1_555 1_555
C88_26 O60_26 1_555 1_555
H60_26 C88_26 1_555 1_555
C89_26 N6_26 1_555 1_555
H61_26 C89_26 1_555 1_555
H62_26 C89_26 1_555 1_555
H63_26 C89_26 1_555 1_555
C90_26 N6_26 1_555 1_555
H64_26 C90_26 1_555 1_555
H65_26 C90_26 1_555 1_555
H66_26 C90_26 1_555 1_555
Zn32_26 O56_26 1_555 1_555
O70_26 Zn12_26 1_555 1_555
O72_10 Zn2_15 1_555 1_555
O75_10 Zn1_15 1_555 1_555
O79_26 Zn12_26 1_555 1_555
O84_26 Zn12_26 1_555 1_555
O55_10 C85_26 1_555 1_555
C79_26 C85_26 1_555 1_555
C83_26 C84_26 1_555 1_555
O24_15 Zn14_5 1_555 1_555
O25_15 Zn19_5 1_555 1_555
O61_10 Zn14_5 1_555 1_555
O63_10 Zn19_5 1_555 1_555
O73_10 Zn19_5 1_555 1_555
O76_10 Zn14_5 1_555 1_555
Zn1_16 O1_10 1_555 1_555
Zn2_16 O2_10 1_555 1_555
Zn28_7 O4_10 1_555 1_555
O1_10 C7_10 1_555 1_555
O2_10 C7_10 1_555 1_555
O3_10 C8_10 1_555 1_555
O4_10 C8_10 1_555 1_555
O5_10 C9_10 1_555 1_555
O6_10 C9_10 1_555 1_555
O9_16 Zn1_16 1_555 1_555
O10_16 Zn2_16 1_555 1_555
O11_10 Zn28_7 1_555 1_555
N1_10 C13_10 1_555 1_555
C1_10 C2_10 1_555 1_555
C2_10 H1_10 1_555 1_555
C3_10 C2_10 1_555 1_555
C4_10 C3_10 1_555 1_555
H2_10 C4_10 1_555 1_555
C5_10 C4_10 1_555 1_555
C6_10 C1_10 1_555 1_555
H3_10 C6_10 1_555 1_555
C7_10 C1_10 1_555 1_555
C8_10 C3_10 1_555 1_555
C9_10 C5_10 1_555 1_555
C13_10 O11_10 1_555 1_555
H5_10 C13_10 1_555 1_555
C14_10 N1_10 1_555 1_555
H6_10 C14_10 1_555 1_555
H7_10 C14_10 1_555 1_555
H8_10 C14_10 1_555 1_555
C15_10 N1_10 1_555 1_555
H9_10 C15_10 1_555 1_555
H10_10 C15_10 1_555 1_555
H11_10 C15_10 1_555 1_555
Zn14_6 O16_10 1_555 1_555
Zn19_6 O17_10 1_555 1_555
Zn27_8 O19_10 1_555 1_555
O16_10 C28_10 1_555 1_555
O17_10 C28_10 1_555 1_555
O67_8 C29_10 1_555 1_555
O19_10 C29_10 1_555 1_555
O20_10 Zn2_16 1_555 1_555
O21_10 Zn1_16 1_555 1_555
O22_10 Zn27_8 1_555 1_555
O81_8 C33_18 1_555 1_555
O24_16 Zn14_6 1_555 1_555
O25_16 Zn19_6 1_555 1_555
O26_10 Zn27_8 1_555 1_555
N2_10 C34_10 1_555 1_555
C22_10 C23_10 1_555 1_555
C23_10 H14_10 1_555 1_555
C24_10 C23_10 1_555 1_555
C25_10 C24_10 1_555 1_555
H15_10 C25_10 1_555 1_555
C26_10 C25_10 1_555 1_555
C27_10 C22_10 1_555 1_555
H16_10 C27_10 1_555 1_555
C28_10 C22_10 1_555 1_555
C29_10 C24_10 1_555 1_555
C30_10 O20_10 1_555 1_555
C31_18 C32_18 1_555 1_555
C32_18 H17_18 1_555 1_555
C33_18 O22_10 1_555 1_555
C34_10 O26_10 1_555 1_555
H18_10 C34_10 1_555 1_555
C35_10 N2_10 1_555 1_555
H19_10 C35_10 1_555 1_555
H20_10 C35_10 1_555 1_555
H21_10 C35_10 1_555 1_555
C36_10 N2_10 1_555 1_555
H22_10 C36_10 1_555 1_555
H23_10 C36_10 1_555 1_555
H24_10 C36_10 1_555 1_555
O27_10 C39_18 1_555 1_555
O82_8 C39_18 1_555 1_555
C37_18 C32_18 1_555 1_555
C38_18 C37_18 1_555 1_555
H25_18 C38_18 1_555 1_555
C39_18 C37_18 1_555 1_555
O29_18 C42_18 1_555 1_555
O80_8 C42_18 1_555 1_555
C40_18 C38_18 1_555 1_555
C41_18 C31_18 1_555 1_555
H26_18 C41_18 1_555 1_555
C42_18 C40_18 1_555 1_555
Zn15_3 O6_10 1_555 1_555
Zn20_3 O5_10 1_555 1_555
O37_14 Zn15_3 1_555 1_555
O38_14 Zn20_3 1_555 1_555
Zn29_8 O27_10 1_555 1_555
Zn24_8 O29_18 1_555 1_555
Zn23_7 O3_10 1_555 1_555
O62_10 Zn15_3 1_555 1_555
O64_10 Zn20_3 1_555 1_555
O68_10 Zn28_7 1_555 1_555
C5_10 C6_10 1_555 1_555
O21_10 C30_10 1_555 1_555
C26_10 C27_10 1_555 1_555
C26_10 C30_10 1_555 1_555
C31_18 C33_18 1_555 1_555
C40_18 C41_18 1_555 1_555
Zn1_17 O1_11 1_555 1_555
Zn2_17 O2_11 1_555 1_555
Zn28_8 O4_11 1_555 1_555
O1_11 C7_11 1_555 1_555
O2_11 C7_11 1_555 1_555
O3_11 C8_11 1_555 1_555
O4_11 C8_11 1_555 1_555
O5_11 C9_11 1_555 1_555
O6_11 C9_11 1_555 1_555
O9_17 Zn1_17 1_555 1_555
O10_17 Zn2_17 1_555 1_555
O11_11 Zn28_8 1_555 1_555
N1_11 C13_11 1_555 1_555
C1_11 C2_11 1_555 1_555
C2_11 H1_11 1_555 1_555
C3_11 C2_11 1_555 1_555
C4_11 C3_11 1_555 1_555
H2_11 C4_11 1_555 1_555
C5_11 C4_11 1_555 1_555
C6_11 C1_11 1_555 1_555
H3_11 C6_11 1_555 1_555
C7_11 C1_11 1_555 1_555
C8_11 C3_11 1_555 1_555
C9_11 C5_11 1_555 1_555
C13_11 O11_11 1_555 1_555
H5_11 C13_11 1_555 1_555
C14_11 N1_11 1_555 1_555
H6_11 C14_11 1_555 1_555
H7_11 C14_11 1_555 1_555
H8_11 C14_11 1_555 1_555
C15_11 N1_11 1_555 1_555
H9_11 C15_11 1_555 1_555
H10_11 C15_11 1_555 1_555
H11_11 C15_11 1_555 1_555
Zn14_3 O16_11 1_555 1_555
Zn19_3 O17_11 1_555 1_555
Zn27_6 O19_11 1_555 1_555
O16_11 C28_11 1_555 1_555
O17_11 C28_11 1_555 1_555
O67_6 C29_11 1_555 1_555
O19_11 C29_11 1_555 1_555
O20_11 Zn2_17 1_555 1_555
O21_11 Zn1_17 1_555 1_555
O22_11 Zn27_6 1_555 1_555
O81_6 C33_19 1_555 1_555
O24_17 Zn14_3 1_555 1_555
O25_17 Zn19_3 1_555 1_555
O26_11 Zn27_6 1_555 1_555
N2_11 C34_11 1_555 1_555
C22_11 C23_11 1_555 1_555
C23_11 H14_11 1_555 1_555
C24_11 C23_11 1_555 1_555
C25_11 C24_11 1_555 1_555
H15_11 C25_11 1_555 1_555
C26_11 C25_11 1_555 1_555
C27_11 C22_11 1_555 1_555
H16_11 C27_11 1_555 1_555
C28_11 C22_11 1_555 1_555
C29_11 C24_11 1_555 1_555
C30_11 O20_11 1_555 1_555
C31_19 C32_19 1_555 1_555
C32_19 H17_19 1_555 1_555
C33_19 O22_11 1_555 1_555
C34_11 O26_11 1_555 1_555
H18_11 C34_11 1_555 1_555
C35_11 N2_11 1_555 1_555
H19_11 C35_11 1_555 1_555
H20_11 C35_11 1_555 1_555
H21_11 C35_11 1_555 1_555
C36_11 N2_11 1_555 1_555
H22_11 C36_11 1_555 1_555
H23_11 C36_11 1_555 1_555
H24_11 C36_11 1_555 1_555
O27_11 C39_19 1_555 1_555
O82_6 C39_19 1_555 1_555
C37_19 C32_19 1_555 1_555
C38_19 C37_19 1_555 1_555
H25_19 C38_19 1_555 1_555
C39_19 C37_19 1_555 1_555
O29_19 C42_19 1_555 1_555
O80_6 C42_19 1_555 1_555
C40_19 C38_19 1_555 1_555
C41_19 C31_19 1_555 1_555
H26_19 C41_19 1_555 1_555
C42_19 C40_19 1_555 1_555
Zn15_2 O6_11 1_555 1_555
Zn20_2 O5_11 1_555 1_555
O37_15 Zn15_2 1_555 1_555
O38_15 Zn20_2 1_555 1_555
Zn29_6 O27_11 1_555 1_555
Zn24_6 O29_19 1_555 1_555
Zn23_8 O3_11 1_555 1_555
O62_11 Zn15_2 1_555 1_555
O64_11 Zn20_2 1_555 1_555
O68_11 Zn28_8 1_555 1_555
O71_6 Zn20_2 1_555 1_555
O74_6 Zn15_2 1_555 1_555
C5_11 C6_11 1_555 1_555
O21_11 C30_11 1_555 1_555
C26_11 C27_11 1_555 1_555
C26_11 C30_11 1_555 1_555
C31_19 C33_19 1_555 1_555
C40_19 C41_19 1_555 1_555
O24_18 Zn14_4 1_555 1_555
O25_18 Zn19_4 1_555 1_555
O61_11 Zn14_4 1_555 1_555
O63_11 Zn19_4 1_555 1_555
O73_11 Zn19_4 1_555 1_555
O76_11 Zn14_4 1_555 1_555
O9_18 Zn1_18 1_555 1_555
O10_18 Zn2_18 1_555 1_555
Zn12_27 O57_27 1_555 1_555
O54_11 Zn1_18 1_555 1_555
O55_11 Zn2_18 1_555 1_555
O56_27 C86_27 1_555 1_555
O57_27 C86_27 1_555 1_555
O58_6 C87_27 1_555 1_555
O59_6 C87_27 1_555 1_555
O60_27 Zn12_27 1_555 1_555
N6_27 C88_27 1_555 1_555
C79_27 C80_27 1_555 1_555
C80_27 H57_27 1_555 1_555
C81_27 C80_27 1_555 1_555
C82_27 C81_27 1_555 1_555
H58_27 C82_27 1_555 1_555
C83_27 C82_27 1_555 1_555
C84_27 C79_27 1_555 1_555
H59_27 C84_27 1_555 1_555
C85_27 O54_11 1_555 1_555
C86_27 C81_27 1_555 1_555
C87_27 C83_27 1_555 1_555
C88_27 O60_27 1_555 1_555
H60_27 C88_27 1_555 1_555
C89_27 N6_27 1_555 1_555
H61_27 C89_27 1_555 1_555
H62_27 C89_27 1_555 1_555
H63_27 C89_27 1_555 1_555
C90_27 N6_27 1_555 1_555
H64_27 C90_27 1_555 1_555
H65_27 C90_27 1_555 1_555
H66_27 C90_27 1_555 1_555
Zn15 O59_6 1_555 1_555
Zn20 O58_6 1_555 1_555
Zn32_27 O56_27 1_555 1_555
O70_27 Zn12_27 1_555 1_555
O72_11 Zn2_18 1_555 1_555
O75_11 Zn1_18 1_555 1_555
O79_27 Zn12_27 1_555 1_555
O84_27 Zn12_27 1_555 1_555
O55_11 C85_27 1_555 1_555
C79_27 C85_27 1_555 1_555
C83_27 C84_27 1_555 1_555
O9_19 Zn1_19 1_555 1_555
O10_19 Zn2_19 1_555 1_555
Zn12_28 O57_28 1_555 1_555
O54_12 Zn1_19 1_555 1_555
O55_12 Zn2_19 1_555 1_555
O56_28 C86_28 1_555 1_555
O57_28 C86_28 1_555 1_555
O71_6 C87_28 1_555 1_555
O74_6 C87_28 1_555 1_555
O60_28 Zn12_28 1_555 1_555
N6_28 C88_28 1_555 1_555
C79_28 C80_28 1_555 1_555
C80_28 H57_28 1_555 1_555
C81_28 C80_28 1_555 1_555
C82_28 C81_28 1_555 1_555
H58_28 C82_28 1_555 1_555
C83_28 C82_28 1_555 1_555
C84_28 C79_28 1_555 1_555
H59_28 C84_28 1_555 1_555
C85_28 O54_12 1_555 1_555
C86_28 C81_28 1_555 1_555
C87_28 C83_28 1_555 1_555
C88_28 O60_28 1_555 1_555
H60_28 C88_28 1_555 1_555
C89_28 N6_28 1_555 1_555
H61_28 C89_28 1_555 1_555
H62_28 C89_28 1_555 1_555
H63_28 C89_28 1_555 1_555
C90_28 N6_28 1_555 1_555
H64_28 C90_28 1_555 1_555
H65_28 C90_28 1_555 1_555
H66_28 C90_28 1_555 1_555
Zn32_28 O56_28 1_555 1_555
O70_28 Zn12_28 1_555 1_555
O72_12 Zn2_19 1_555 1_555
O75_12 Zn1_19 1_555 1_555
O79_28 Zn12_28 1_555 1_555
O84_28 Zn12_28 1_555 1_555
O55_12 C85_28 1_555 1_555
C79_28 C85_28 1_555 1_555
C83_28 C84_28 1_555 1_555
Zn1_20 O1_12 1_555 1_555
Zn2_20 O2_12 1_555 1_555
Zn28_6 O4_12 1_555 1_555
O1_12 C7_12 1_555 1_555
O2_12 C7_12 1_555 1_555
O3_12 C8_12 1_555 1_555
O4_12 C8_12 1_555 1_555
O5_12 C9_12 1_555 1_555
O6_12 C9_12 1_555 1_555
O9_20 Zn1_20 1_555 1_555
O10_20 Zn2_20 1_555 1_555
O11_12 Zn28_6 1_555 1_555
N1_12 C13_12 1_555 1_555
C1_12 C2_12 1_555 1_555
C2_12 H1_12 1_555 1_555
C3_12 C2_12 1_555 1_555
C4_12 C3_12 1_555 1_555
H2_12 C4_12 1_555 1_555
C5_12 C4_12 1_555 1_555
C6_12 C1_12 1_555 1_555
H3_12 C6_12 1_555 1_555
C7_12 C1_12 1_555 1_555
C8_12 C3_12 1_555 1_555
C9_12 C5_12 1_555 1_555
C13_12 O11_12 1_555 1_555
H5_12 C13_12 1_555 1_555
C14_12 N1_12 1_555 1_555
H6_12 C14_12 1_555 1_555
H7_12 C14_12 1_555 1_555
H8_12 C14_12 1_555 1_555
C15_12 N1_12 1_555 1_555
H9_12 C15_12 1_555 1_555
H10_12 C15_12 1_555 1_555
H11_12 C15_12 1_555 1_555
Zn14 O16_12 1_555 1_555
Zn19 O17_12 1_555 1_555
Zn27_5 O19_12 1_555 1_555
O16_12 C28_12 1_555 1_555
O17_12 C28_12 1_555 1_555
O67_5 C29_12 1_555 1_555
O19_12 C29_12 1_555 1_555
O20_12 Zn2_20 1_555 1_555
O21_12 Zn1_20 1_555 1_555
O22_12 Zn27_5 1_555 1_555
O81_5 C33_20 1_555 1_555
O24_19 Zn14 1_555 1_555
O25_19 Zn19 1_555 1_555
O26_12 Zn27_5 1_555 1_555
N2_12 C34_12 1_555 1_555
C22_12 C23_12 1_555 1_555
C23_12 H14_12 1_555 1_555
C24_12 C23_12 1_555 1_555
C25_12 C24_12 1_555 1_555
H15_12 C25_12 1_555 1_555
C26_12 C25_12 1_555 1_555
C27_12 C22_12 1_555 1_555
H16_12 C27_12 1_555 1_555
C28_12 C22_12 1_555 1_555
C29_12 C24_12 1_555 1_555
C30_12 O20_12 1_555 1_555
C31_20 C32_20 1_555 1_555
C32_20 H17_20 1_555 1_555
C33_20 O22_12 1_555 1_555
C34_12 O26_12 1_555 1_555
H18_12 C34_12 1_555 1_555
C35_12 N2_12 1_555 1_555
H19_12 C35_12 1_555 1_555
H20_12 C35_12 1_555 1_555
H21_12 C35_12 1_555 1_555
C36_12 N2_12 1_555 1_555
H22_12 C36_12 1_555 1_555
H23_12 C36_12 1_555 1_555
H24_12 C36_12 1_555 1_555
O27_12 C39_20 1_555 1_555
O82_5 C39_20 1_555 1_555
C37_20 C32_20 1_555 1_555
C38_20 C37_20 1_555 1_555
H25_20 C38_20 1_555 1_555
C39_20 C37_20 1_555 1_555
O29_20 C42_20 1_555 1_555
O80_5 C42_20 1_555 1_555
C40_20 C38_20 1_555 1_555
C41_20 C31_20 1_555 1_555
H26_20 C41_20 1_555 1_555
C42_20 C40_20 1_555 1_555
Zn15 O6_12 1_555 1_555
Zn20 O5_12 1_555 1_555
O37_16 Zn15 1_555 1_555
O38_16 Zn20 1_555 1_555
Zn29_5 O27_12 1_555 1_555
Zn24_5 O29_20 1_555 1_555
Zn23_6 O3_12 1_555 1_555
O62_12 Zn15 1_555 1_555
O64_12 Zn20 1_555 1_555
O68_12 Zn28_6 1_555 1_555
C5_12 C6_12 1_555 1_555
O21_12 C30_12 1_555 1_555
C26_12 C27_12 1_555 1_555
C26_12 C30_12 1_555 1_555
C31_20 C33_20 1_555 1_555
C40_20 C41_20 1_555 1_555
O24_20 Zn14_2 1_555 1_555
O25_20 Zn19_2 1_555 1_555
O61_12 Zn14_2 1_555 1_555
O63_12 Zn19_2 1_555 1_555
O73_12 Zn19_2 1_555 1_555
O76_12 Zn14_2 1_555 1_555
O40_13 C61_13 1_555 1_555
O41_13 C61_13 1_555 1_555
O68_5 C62_13 1_555 1_555
O43_13 Zn29_5 1_555 1_555
O44_13 C63_13 1_555 1_555
O45_13 C63_13 1_555 1_555
O46_13 Zn29_5 1_555 1_555
N4_13 C64_13 1_555 1_555
C55_13 C56_13 1_555 1_555
C56_13 H37_13 1_555 1_555
C57_13 C56_13 1_555 1_555
C58_13 C57_13 1_555 1_555
H38_13 C58_13 1_555 1_555
C59_13 C58_13 1_555 1_555
C60_13 C55_13 1_555 1_555
H39_13 C60_13 1_555 1_555
C61_13 C55_13 1_555 1_555
C62_13 O43_13 1_555 1_555
C63_13 C59_13 1_555 1_555
C64_13 O46_13 1_555 1_555
H40_13 C64_13 1_555 1_555
C65_13 N4_13 1_555 1_555
H41_13 C65_13 1_555 1_555
H42_13 C65_13 1_555 1_555
H43_13 C65_13 1_555 1_555
C66_13 N4_13 1_555 1_555
H44_13 C66_13 1_555 1_555
H45_13 C66_13 1_555 1_555
H46_13 C66_13 1_555 1_555
O47_13 C73_13 1_555 1_555
O48_13 C73_13 1_555 1_555
O49_9 C74_13 1_555 1_555
O50_13 Zn31 1_555 1_555
O51_13 C75_13 1_555 1_555
O52_13 C75_13 1_555 1_555
O53_13 Zn31 1_555 1_555
N5_13 C76_13 1_555 1_555
C67_13 C68_13 1_555 1_555
C68_13 H47_13 1_555 1_555
C69_13 C68_13 1_555 1_555
C70_13 C69_13 1_555 1_555
H48_13 C70_13 1_555 1_555
C71_13 C70_13 1_555 1_555
C72_13 C67_13 1_555 1_555
H49_13 C72_13 1_555 1_555
C73_13 C67_13 1_555 1_555
C74_13 O50_13 1_555 1_555
C75_13 C71_13 1_555 1_555
C76_13 O53_13 1_555 1_555
H50_13 C76_13 1_555 1_555
C77_13 N5_13 1_555 1_555
H51_13 C77_13 1_555 1_555
H52_13 C77_13 1_555 1_555
H53_13 C77_13 1_555 1_555
C78_13 N5_13 1_555 1_555
H54_13 C78_13 1_555 1_555
H55_13 C78_13 1_555 1_555
H56_13 C78_13 1_555 1_555
Zn14_25 O45_13 1_555 1_555
Zn14_24 O40_13 1_555 1_555
Zn16_25 O47_13 1_555 1_555
Zn16_23 O52_13 1_555 1_555
Zn19_25 O44_13 1_555 1_555
Zn19_24 O41_13 1_555 1_555
Zn21_25 O48_13 1_555 1_555
Zn21_23 O51_13 1_555 1_555
O66_9 Zn31 1_555 1_555
C57_13 C62_13 1_555 1_555
C59_13 C60_13 1_555 1_555
O49_9 Zn26 1_555 1_555
C69_13 C74_13 1_555 1_555
C71_13 C72_13 1_555 1_555
Zn32_23 O57_29 1_555 1_555
O70_23 C86_29 1_555 1_555
O57_29 C86_29 1_555 1_555
O72_9 C87_29 1_555 1_555
O75_9 C87_29 1_555 1_555
O60_29 Zn32_23 1_555 1_555
N6_29 C88_29 1_555 1_555
C79_29 C80_29 1_555 1_555
C80_29 H57_29 1_555 1_555
C81_29 C80_29 1_555 1_555
C82_29 C81_29 1_555 1_555
H58_29 C82_29 1_555 1_555
C83_29 C82_29 1_555 1_555
C84_29 C79_29 1_555 1_555
H59_29 C84_29 1_555 1_555
C85_29 O61_12 1_555 1_555
C86_29 C81_29 1_555 1_555
C87_29 C83_29 1_555 1_555
C88_29 O60_29 1_555 1_555
H60_29 C88_29 1_555 1_555
C89_29 N6_29 1_555 1_555
H61_29 C89_29 1_555 1_555
H62_29 C89_29 1_555 1_555
H63_29 C89_29 1_555 1_555
C90_29 N6_29 1_555 1_555
H64_29 C90_29 1_555 1_555
H65_29 C90_29 1_555 1_555
H66_29 C90_29 1_555 1_555
O79_29 Zn32_23 1_555 1_555
O84_29 Zn32_23 1_555 1_555
O63_12 C85_29 1_555 1_555
C79_29 C85_29 1_555 1_555
C83_29 C84_29 1_555 1_555
Zn32_24 O57_30 1_555 1_555
O70_24 C86_30 1_555 1_555
O57_30 C86_30 1_555 1_555
O72_12 C87_30 1_555 1_555
O75_12 C87_30 1_555 1_555
O60_30 Zn32_24 1_555 1_555
N6_30 C88_30 1_555 1_555
C79_30 C80_30 1_555 1_555
C80_30 H57_30 1_555 1_555
C81_30 C80_30 1_555 1_555
C82_30 C81_30 1_555 1_555
H58_30 C82_30 1_555 1_555
C83_30 C82_30 1_555 1_555
C84_30 C79_30 1_555 1_555
H59_30 C84_30 1_555 1_555
C85_30 O61_9 1_555 1_555
C86_30 C81_30 1_555 1_555
C87_30 C83_30 1_555 1_555
C88_30 O60_30 1_555 1_555
H60_30 C88_30 1_555 1_555
C89_30 N6_30 1_555 1_555
H61_30 C89_30 1_555 1_555
H62_30 C89_30 1_555 1_555
H63_30 C89_30 1_555 1_555
C90_30 N6_30 1_555 1_555
H64_30 C90_30 1_555 1_555
H65_30 C90_30 1_555 1_555
H66_30 C90_30 1_555 1_555
O79_30 Zn32_24 1_555 1_555
O84_30 Zn32_24 1_555 1_555
O63_9 C85_30 1_555 1_555
C79_30 C85_30 1_555 1_555
C83_30 C84_30 1_555 1_555
O40_14 C61_14 1_555 1_555
O41_14 C61_14 1_555 1_555
O68_7 C62_14 1_555 1_555
O43_14 Zn29_7 1_555 1_555
O44_14 C63_14 1_555 1_555
O45_14 C63_14 1_555 1_555
O46_14 Zn29_7 1_555 1_555
N4_14 C64_14 1_555 1_555
C55_14 C56_14 1_555 1_555
C56_14 H37_14 1_555 1_555
C57_14 C56_14 1_555 1_555
C58_14 C57_14 1_555 1_555
H38_14 C58_14 1_555 1_555
C59_14 C58_14 1_555 1_555
C60_14 C55_14 1_555 1_555
H39_14 C60_14 1_555 1_555
C61_14 C55_14 1_555 1_555
C62_14 O43_14 1_555 1_555
C63_14 C59_14 1_555 1_555
C64_14 O46_14 1_555 1_555
H40_14 C64_14 1_555 1_555
C65_14 N4_14 1_555 1_555
H41_14 C65_14 1_555 1_555
H42_14 C65_14 1_555 1_555
H43_14 C65_14 1_555 1_555
C66_14 N4_14 1_555 1_555
H44_14 C66_14 1_555 1_555
H45_14 C66_14 1_555 1_555
H46_14 C66_14 1_555 1_555
O47_14 C73_14 1_555 1_555
O48_14 C73_14 1_555 1_555
O49_10 C74_14 1_555 1_555
O50_14 Zn31_4 1_555 1_555
O51_14 C75_14 1_555 1_555
O52_14 C75_14 1_555 1_555
O53_14 Zn31_4 1_555 1_555
N5_14 C76_14 1_555 1_555
C67_14 C68_14 1_555 1_555
C68_14 H47_14 1_555 1_555
C69_14 C68_14 1_555 1_555
C70_14 C69_14 1_555 1_555
H48_14 C70_14 1_555 1_555
C71_14 C70_14 1_555 1_555
C72_14 C67_14 1_555 1_555
H49_14 C72_14 1_555 1_555
C73_14 C67_14 1_555 1_555
C74_14 O50_14 1_555 1_555
C75_14 C71_14 1_555 1_555
C76_14 O53_14 1_555 1_555
H50_14 C76_14 1_555 1_555
C77_14 N5_14 1_555 1_555
H51_14 C77_14 1_555 1_555
H52_14 C77_14 1_555 1_555
H53_14 C77_14 1_555 1_555
C78_14 N5_14 1_555 1_555
H54_14 C78_14 1_555 1_555
H55_14 C78_14 1_555 1_555
H56_14 C78_14 1_555 1_555
Zn14_27 O45_14 1_555 1_555
Zn14_19 O40_14 1_555 1_555
Zn16_26 O47_14 1_555 1_555
Zn16_20 O52_14 1_555 1_555
Zn19_27 O44_14 1_555 1_555
Zn19_19 O41_14 1_555 1_555
Zn21_26 O48_14 1_555 1_555
Zn21_20 O51_14 1_555 1_555
O66_10 Zn31_4 1_555 1_555
C57_14 C62_14 1_555 1_555
C59_14 C60_14 1_555 1_555
O49_10 Zn26_4 1_555 1_555
C69_14 C74_14 1_555 1_555
C71_14 C72_14 1_555 1_555
O40_15 C61_15 1_555 1_555
O41_15 C61_15 1_555 1_555
O68_6 C62_15 1_555 1_555
O43_15 Zn29_6 1_555 1_555
O44_15 C63_15 1_555 1_555
O45_15 C63_15 1_555 1_555
O46_15 Zn29_6 1_555 1_555
N4_15 C64_15 1_555 1_555
C55_15 C56_15 1_555 1_555
C56_15 H37_15 1_555 1_555
C57_15 C56_15 1_555 1_555
C58_15 C57_15 1_555 1_555
H38_15 C58_15 1_555 1_555
C59_15 C58_15 1_555 1_555
C60_15 C55_15 1_555 1_555
H39_15 C60_15 1_555 1_555
C61_15 C55_15 1_555 1_555
C62_15 O43_15 1_555 1_555
C63_15 C59_15 1_555 1_555
C64_15 O46_15 1_555 1_555
H40_15 C64_15 1_555 1_555
C65_15 N4_15 1_555 1_555
H41_15 C65_15 1_555 1_555
H42_15 C65_15 1_555 1_555
H43_15 C65_15 1_555 1_555
C66_15 N4_15 1_555 1_555
H44_15 C66_15 1_555 1_555
H45_15 C66_15 1_555 1_555
H46_15 C66_15 1_555 1_555
O47_15 C73_15 1_555 1_555
O48_15 C73_15 1_555 1_555
O49_11 C74_15 1_555 1_555
O50_15 Zn31_2 1_555 1_555
O51_15 C75_15 1_555 1_555
O52_15 C75_15 1_555 1_555
O53_15 Zn31_2 1_555 1_555
N5_15 C76_15 1_555 1_555
C67_15 C68_15 1_555 1_555
C68_15 H47_15 1_555 1_555
C69_15 C68_15 1_555 1_555
C70_15 C69_15 1_555 1_555
H48_15 C70_15 1_555 1_555
C71_15 C70_15 1_555 1_555
C72_15 C67_15 1_555 1_555
H49_15 C72_15 1_555 1_555
C73_15 C67_15 1_555 1_555
C74_15 O50_15 1_555 1_555
C75_15 C71_15 1_555 1_555
C76_15 O53_15 1_555 1_555
H50_15 C76_15 1_555 1_555
C77_15 N5_15 1_555 1_555
H51_15 C77_15 1_555 1_555
H52_15 C77_15 1_555 1_555
H53_15 C77_15 1_555 1_555
C78_15 N5_15 1_555 1_555
H54_15 C78_15 1_555 1_555
H55_15 C78_15 1_555 1_555
H56_15 C78_15 1_555 1_555
Zn14_30 O45_15 1_555 1_555
Zn14_17 O40_15 1_555 1_555
Zn16_27 O47_15 1_555 1_555
Zn16_17 O52_15 1_555 1_555
Zn19_30 O44_15 1_555 1_555
Zn19_17 O41_15 1_555 1_555
Zn21_27 O48_15 1_555 1_555
Zn21_17 O51_15 1_555 1_555
O66_11 Zn31_2 1_555 1_555
C57_15 C62_15 1_555 1_555
C59_15 C60_15 1_555 1_555
O49_11 Zn26_2 1_555 1_555
C69_15 C74_15 1_555 1_555
C71_15 C72_15 1_555 1_555
Zn32_22 O57_31 1_555 1_555
O70_22 C86_31 1_555 1_555
O57_31 C86_31 1_555 1_555
O72_10 C87_31 1_555 1_555
O75_10 C87_31 1_555 1_555
O60_31 Zn32_22 1_555 1_555
N6_31 C88_31 1_555 1_555
C79_31 C80_31 1_555 1_555
C80_31 H57_31 1_555 1_555
C81_31 C80_31 1_555 1_555
C82_31 C81_31 1_555 1_555
H58_31 C82_31 1_555 1_555
C83_31 C82_31 1_555 1_555
C84_31 C79_31 1_555 1_555
H59_31 C84_31 1_555 1_555
C85_31 O61_11 1_555 1_555
C86_31 C81_31 1_555 1_555
C87_31 C83_31 1_555 1_555
C88_31 O60_31 1_555 1_555
H60_31 C88_31 1_555 1_555
C89_31 N6_31 1_555 1_555
H61_31 C89_31 1_555 1_555
H62_31 C89_31 1_555 1_555
H63_31 C89_31 1_555 1_555
C90_31 N6_31 1_555 1_555
H64_31 C90_31 1_555 1_555
H65_31 C90_31 1_555 1_555
H66_31 C90_31 1_555 1_555
O79_31 Zn32_22 1_555 1_555
O84_31 Zn32_22 1_555 1_555
O63_11 C85_31 1_555 1_555
C79_31 C85_31 1_555 1_555
C83_31 C84_31 1_555 1_555
Zn32_21 O57_32 1_555 1_555
O70_21 C86_32 1_555 1_555
O57_32 C86_32 1_555 1_555
O72_11 C87_32 1_555 1_555
O75_11 C87_32 1_555 1_555
O60_32 Zn32_21 1_555 1_555
N6_32 C88_32 1_555 1_555
C79_32 C80_32 1_555 1_555
C80_32 H57_32 1_555 1_555
C81_32 C80_32 1_555 1_555
C82_32 C81_32 1_555 1_555
H58_32 C82_32 1_555 1_555
C83_32 C82_32 1_555 1_555
C84_32 C79_32 1_555 1_555
H59_32 C84_32 1_555 1_555
C85_32 O61_10 1_555 1_555
C86_32 C81_32 1_555 1_555
C87_32 C83_32 1_555 1_555
C88_32 O60_32 1_555 1_555
H60_32 C88_32 1_555 1_555
C89_32 N6_32 1_555 1_555
H61_32 C89_32 1_555 1_555
H62_32 C89_32 1_555 1_555
H63_32 C89_32 1_555 1_555
C90_32 N6_32 1_555 1_555
H64_32 C90_32 1_555 1_555
H65_32 C90_32 1_555 1_555
H66_32 C90_32 1_555 1_555
O79_32 Zn32_21 1_555 1_555
O84_32 Zn32_21 1_555 1_555
O63_10 C85_32 1_555 1_555
C79_32 C85_32 1_555 1_555
C83_32 C84_32 1_555 1_555
O40_16 C61_16 1_555 1_555
O41_16 C61_16 1_555 1_555
O68_8 C62_16 1_555 1_555
O43_16 Zn29_8 1_555 1_555
O44_16 C63_16 1_555 1_555
O45_16 C63_16 1_555 1_555
O46_16 Zn29_8 1_555 1_555
N4_16 C64_16 1_555 1_555
C55_16 C56_16 1_555 1_555
C56_16 H37_16 1_555 1_555
C57_16 C56_16 1_555 1_555
C58_16 C57_16 1_555 1_555
H38_16 C58_16 1_555 1_555
C59_16 C58_16 1_555 1_555
C60_16 C55_16 1_555 1_555
H39_16 C60_16 1_555 1_555
C61_16 C55_16 1_555 1_555
C62_16 O43_16 1_555 1_555
C63_16 C59_16 1_555 1_555
C64_16 O46_16 1_555 1_555
H40_16 C64_16 1_555 1_555
C65_16 N4_16 1_555 1_555
H41_16 C65_16 1_555 1_555
H42_16 C65_16 1_555 1_555
H43_16 C65_16 1_555 1_555
C66_16 N4_16 1_555 1_555
H44_16 C66_16 1_555 1_555
H45_16 C66_16 1_555 1_555
H46_16 C66_16 1_555 1_555
O47_16 C73_16 1_555 1_555
O48_16 C73_16 1_555 1_555
O49_12 C74_16 1_555 1_555
O50_16 Zn31_3 1_555 1_555
O51_16 C75_16 1_555 1_555
O52_16 C75_16 1_555 1_555
O53_16 Zn31_3 1_555 1_555
N5_16 C76_16 1_555 1_555
C67_16 C68_16 1_555 1_555
C68_16 H47_16 1_555 1_555
C69_16 C68_16 1_555 1_555
C70_16 C69_16 1_555 1_555
H48_16 C70_16 1_555 1_555
C71_16 C70_16 1_555 1_555
C72_16 C67_16 1_555 1_555
H49_16 C72_16 1_555 1_555
C73_16 C67_16 1_555 1_555
C74_16 O50_16 1_555 1_555
C75_16 C71_16 1_555 1_555
C76_16 O53_16 1_555 1_555
H50_16 C76_16 1_555 1_555
C77_16 N5_16 1_555 1_555
H51_16 C77_16 1_555 1_555
H52_16 C77_16 1_555 1_555
H53_16 C77_16 1_555 1_555
C78_16 N5_16 1_555 1_555
H54_16 C78_16 1_555 1_555
H55_16 C78_16 1_555 1_555
H56_16 C78_16 1_555 1_555
Zn14_32 O45_16 1_555 1_555
Zn14_22 O40_16 1_555 1_555
Zn16_28 O47_16 1_555 1_555
Zn16_22 O52_16 1_555 1_555
Zn19_32 O44_16 1_555 1_555
Zn19_22 O41_16 1_555 1_555
Zn21_28 O48_16 1_555 1_555
Zn21_22 O51_16 1_555 1_555
O66_12 Zn31_3 1_555 1_555
C57_16 C62_16 1_555 1_555
C59_16 C60_16 1_555 1_555
O49_12 Zn26_3 1_555 1_555
C69_16 C74_16 1_555 1_555
C71_16 C72_16 1_555 1_555
O40_17 C61_17 1_555 1_555
O41_17 C61_17 1_555 1_555
O66_12 C62_17 1_555 1_555
O43_17 Zn26_3 1_555 1_555
O44_17 C63_17 1_555 1_555
O45_17 C63_17 1_555 1_555
O46_17 Zn26_3 1_555 1_555
N4_17 C64_17 1_555 1_555
C55_17 C56_17 1_555 1_555
C56_17 H37_17 1_555 1_555
C57_17 C56_17 1_555 1_555
C58_17 C57_17 1_555 1_555
H38_17 C58_17 1_555 1_555
C59_17 C58_17 1_555 1_555
C60_17 C55_17 1_555 1_555
H39_17 C60_17 1_555 1_555
C61_17 C55_17 1_555 1_555
C62_17 O43_17 1_555 1_555
C63_17 C59_17 1_555 1_555
C64_17 O46_17 1_555 1_555
H40_17 C64_17 1_555 1_555
C65_17 N4_17 1_555 1_555
H41_17 C65_17 1_555 1_555
H42_17 C65_17 1_555 1_555
H43_17 C65_17 1_555 1_555
C66_17 N4_17 1_555 1_555
H44_17 C66_17 1_555 1_555
H45_17 C66_17 1_555 1_555
H46_17 C66_17 1_555 1_555
O47_17 C73_17 1_555 1_555
O48_17 C73_17 1_555 1_555
O67_3 C74_17 1_555 1_555
O50_17 Zn27_3 1_555 1_555
O51_17 C75_17 1_555 1_555
O52_17 C75_17 1_555 1_555
O53_17 Zn27_3 1_555 1_555
N5_17 C76_17 1_555 1_555
C67_17 C68_17 1_555 1_555
C68_17 H47_17 1_555 1_555
C69_17 C68_17 1_555 1_555
C70_17 C69_17 1_555 1_555
H48_17 C70_17 1_555 1_555
C71_17 C70_17 1_555 1_555
C72_17 C67_17 1_555 1_555
H49_17 C72_17 1_555 1_555
C73_17 C67_17 1_555 1_555
C74_17 O50_17 1_555 1_555
C75_17 C71_17 1_555 1_555
C76_17 O53_17 1_555 1_555
H50_17 C76_17 1_555 1_555
C77_17 N5_17 1_555 1_555
H51_17 C77_17 1_555 1_555
H52_17 C77_17 1_555 1_555
H53_17 C77_17 1_555 1_555
C78_17 N5_17 1_555 1_555
H54_17 C78_17 1_555 1_555
H55_17 C78_17 1_555 1_555
H56_17 C78_17 1_555 1_555
Zn12_29 O57_33 1_555 1_555
O56_29 C86_33 1_555 1_555
O57_33 C86_33 1_555 1_555
O73_12 C87_33 1_555 1_555
O76_12 C87_33 1_555 1_555
O60_33 Zn12_29 1_555 1_555
N6_33 C88_33 1_555 1_555
C79_33 C80_33 1_555 1_555
C80_33 H57_33 1_555 1_555
C81_33 C80_33 1_555 1_555
C82_33 C81_33 1_555 1_555
H58_33 C82_33 1_555 1_555
C83_33 C82_33 1_555 1_555
C84_33 C79_33 1_555 1_555
H59_33 C84_33 1_555 1_555
C85_33 O62_10 1_555 1_555
C86_33 C81_33 1_555 1_555
C87_33 C83_33 1_555 1_555
C88_33 O60_33 1_555 1_555
H60_33 C88_33 1_555 1_555
C89_33 N6_33 1_555 1_555
H61_33 C89_33 1_555 1_555
H62_33 C89_33 1_555 1_555
H63_33 C89_33 1_555 1_555
C90_33 N6_33 1_555 1_555
H64_33 C90_33 1_555 1_555
H65_33 C90_33 1_555 1_555
H66_33 C90_33 1_555 1_555
Zn15_7 O45_17 1_555 1_555
Zn15_14 O40_17 1_555 1_555
Zn17_7 O47_17 1_555 1_555
Zn17_13 O52_17 1_555 1_555
Zn20_7 O44_17 1_555 1_555
Zn20_14 O41_17 1_555 1_555
Zn22_7 O48_17 1_555 1_555
Zn22_13 O51_17 1_555 1_555
Zn32_29 O56_29 1_555 1_555
O70_29 Zn12_29 1_555 1_555
O78_13 Zn27_3 1_555 1_555
O79_33 Zn12_29 1_555 1_555
O84_33 Zn12_29 1_555 1_555
C57_17 C62_17 1_555 1_555
C59_17 C60_17 1_555 1_555
C69_17 C74_17 1_555 1_555
C71_17 C72_17 1_555 1_555
O64_10 C85_33 1_555 1_555
C79_33 C85_33 1_555 1_555
C83_33 C84_33 1_555 1_555
O40_18 C61_18 1_555 1_555
O41_18 C61_18 1_555 1_555
O66_9 C62_18 1_555 1_555
O43_18 Zn26 1_555 1_555
O44_18 C63_18 1_555 1_555
O45_18 C63_18 1_555 1_555
O46_18 Zn26 1_555 1_555
N4_18 C64_18 1_555 1_555
C55_18 C56_18 1_555 1_555
C56_18 H37_18 1_555 1_555
C57_18 C56_18 1_555 1_555
C58_18 C57_18 1_555 1_555
H38_18 C58_18 1_555 1_555
C59_18 C58_18 1_555 1_555
C60_18 C55_18 1_555 1_555
H39_18 C60_18 1_555 1_555
C61_18 C55_18 1_555 1_555
C62_18 O43_18 1_555 1_555
C63_18 C59_18 1_555 1_555
C64_18 O46_18 1_555 1_555
H40_18 C64_18 1_555 1_555
C65_18 N4_18 1_555 1_555
H41_18 C65_18 1_555 1_555
H42_18 C65_18 1_555 1_555
H43_18 C65_18 1_555 1_555
C66_18 N4_18 1_555 1_555
H44_18 C66_18 1_555 1_555
H45_18 C66_18 1_555 1_555
H46_18 C66_18 1_555 1_555
O47_18 C73_18 1_555 1_555
O48_18 C73_18 1_555 1_555
O67 C74_18 1_555 1_555
O50_18 Zn27 1_555 1_555
O51_18 C75_18 1_555 1_555
O52_18 C75_18 1_555 1_555
O53_18 Zn27 1_555 1_555
N5_18 C76_18 1_555 1_555
C67_18 C68_18 1_555 1_555
C68_18 H47_18 1_555 1_555
C69_18 C68_18 1_555 1_555
C70_18 C69_18 1_555 1_555
H48_18 C70_18 1_555 1_555
C71_18 C70_18 1_555 1_555
C72_18 C67_18 1_555 1_555
H49_18 C72_18 1_555 1_555
C73_18 C67_18 1_555 1_555
C74_18 O50_18 1_555 1_555
C75_18 C71_18 1_555 1_555
C76_18 O53_18 1_555 1_555
H50_18 C76_18 1_555 1_555
C77_18 N5_18 1_555 1_555
H51_18 C77_18 1_555 1_555
H52_18 C77_18 1_555 1_555
H53_18 C77_18 1_555 1_555
C78_18 N5_18 1_555 1_555
H54_18 C78_18 1_555 1_555
H55_18 C78_18 1_555 1_555
H56_18 C78_18 1_555 1_555
Zn12_30 O57_34 1_555 1_555
O56_30 C86_34 1_555 1_555
O57_34 C86_34 1_555 1_555
O73_10 C87_34 1_555 1_555
O76_10 C87_34 1_555 1_555
O60_34 Zn12_30 1_555 1_555
N6_34 C88_34 1_555 1_555
C79_34 C80_34 1_555 1_555
C80_34 H57_34 1_555 1_555
C81_34 C80_34 1_555 1_555
C82_34 C81_34 1_555 1_555
H58_34 C82_34 1_555 1_555
C83_34 C82_34 1_555 1_555
C84_34 C79_34 1_555 1_555
H59_34 C84_34 1_555 1_555
C85_34 O62_12 1_555 1_555
C86_34 C81_34 1_555 1_555
C87_34 C83_34 1_555 1_555
C88_34 O60_34 1_555 1_555
H60_34 C88_34 1_555 1_555
C89_34 N6_34 1_555 1_555
H61_34 C89_34 1_555 1_555
H62_34 C89_34 1_555 1_555
H63_34 C89_34 1_555 1_555
C90_34 N6_34 1_555 1_555
H64_34 C90_34 1_555 1_555
H65_34 C90_34 1_555 1_555
H66_34 C90_34 1_555 1_555
Zn15_6 O45_18 1_555 1_555
Zn15_15 O40_18 1_555 1_555
Zn17_6 O47_18 1_555 1_555
Zn17_14 O52_18 1_555 1_555
Zn20_6 O44_18 1_555 1_555
Zn20_15 O41_18 1_555 1_555
Zn22_6 O48_18 1_555 1_555
Zn22_14 O51_18 1_555 1_555
Zn32_30 O56_30 1_555 1_555
O70_30 Zn12_30 1_555 1_555
O78_14 Zn27 1_555 1_555
O79_34 Zn12_30 1_555 1_555
O84_34 Zn12_30 1_555 1_555
C57_18 C62_18 1_555 1_555
C59_18 C60_18 1_555 1_555
C69_18 C74_18 1_555 1_555
C71_18 C72_18 1_555 1_555
O64_12 C85_34 1_555 1_555
C79_34 C85_34 1_555 1_555
C83_34 C84_34 1_555 1_555
O40_19 C61_19 1_555 1_555
O41_19 C61_19 1_555 1_555
O66_11 C62_19 1_555 1_555
O43_19 Zn26_2 1_555 1_555
O44_19 C63_19 1_555 1_555
O45_19 C63_19 1_555 1_555
O46_19 Zn26_2 1_555 1_555
N4_19 C64_19 1_555 1_555
C55_19 C56_19 1_555 1_555
C56_19 H37_19 1_555 1_555
C57_19 C56_19 1_555 1_555
C58_19 C57_19 1_555 1_555
H38_19 C58_19 1_555 1_555
C59_19 C58_19 1_555 1_555
C60_19 C55_19 1_555 1_555
H39_19 C60_19 1_555 1_555
C61_19 C55_19 1_555 1_555
C62_19 O43_19 1_555 1_555
C63_19 C59_19 1_555 1_555
C64_19 O46_19 1_555 1_555
H40_19 C64_19 1_555 1_555
C65_19 N4_19 1_555 1_555
H41_19 C65_19 1_555 1_555
H42_19 C65_19 1_555 1_555
H43_19 C65_19 1_555 1_555
C66_19 N4_19 1_555 1_555
H44_19 C66_19 1_555 1_555
H45_19 C66_19 1_555 1_555
H46_19 C66_19 1_555 1_555
O47_19 C73_19 1_555 1_555
O48_19 C73_19 1_555 1_555
O67_2 C74_19 1_555 1_555
O50_19 Zn27_2 1_555 1_555
O51_19 C75_19 1_555 1_555
O52_19 C75_19 1_555 1_555
O53_19 Zn27_2 1_555 1_555
N5_19 C76_19 1_555 1_555
C67_19 C68_19 1_555 1_555
C68_19 H47_19 1_555 1_555
C69_19 C68_19 1_555 1_555
C70_19 C69_19 1_555 1_555
H48_19 C70_19 1_555 1_555
C71_19 C70_19 1_555 1_555
C72_19 C67_19 1_555 1_555
H49_19 C72_19 1_555 1_555
C73_19 C67_19 1_555 1_555
C74_19 O50_19 1_555 1_555
C75_19 C71_19 1_555 1_555
C76_19 O53_19 1_555 1_555
H50_19 C76_19 1_555 1_555
C77_19 N5_19 1_555 1_555
H51_19 C77_19 1_555 1_555
H52_19 C77_19 1_555 1_555
H53_19 C77_19 1_555 1_555
C78_19 N5_19 1_555 1_555
H54_19 C78_19 1_555 1_555
H55_19 C78_19 1_555 1_555
H56_19 C78_19 1_555 1_555
Zn12_31 O57_35 1_555 1_555
O56_31 C86_35 1_555 1_555
O57_35 C86_35 1_555 1_555
O73_9 C87_35 1_555 1_555
O76_9 C87_35 1_555 1_555
O60_35 Zn12_31 1_555 1_555
N6_35 C88_35 1_555 1_555
C79_35 C80_35 1_555 1_555
C80_35 H57_35 1_555 1_555
C81_35 C80_35 1_555 1_555
C82_35 C81_35 1_555 1_555
H58_35 C82_35 1_555 1_555
C83_35 C82_35 1_555 1_555
C84_35 C79_35 1_555 1_555
H59_35 C84_35 1_555 1_555
C85_35 O62_11 1_555 1_555
C86_35 C81_35 1_555 1_555
C87_35 C83_35 1_555 1_555
C88_35 O60_35 1_555 1_555
H60_35 C88_35 1_555 1_555
C89_35 N6_35 1_555 1_555
H61_35 C89_35 1_555 1_555
H62_35 C89_35 1_555 1_555
H63_35 C89_35 1_555 1_555
C90_35 N6_35 1_555 1_555
H64_35 C90_35 1_555 1_555
H65_35 C90_35 1_555 1_555
H66_35 C90_35 1_555 1_555
Zn15_8 O45_19 1_555 1_555
Zn15_17 O40_19 1_555 1_555
Zn17_8 O47_19 1_555 1_555
Zn17_15 O52_19 1_555 1_555
Zn20_8 O44_19 1_555 1_555
Zn20_17 O41_19 1_555 1_555
Zn22_8 O48_19 1_555 1_555
Zn22_15 O51_19 1_555 1_555
Zn32_31 O56_31 1_555 1_555
O70_31 Zn12_31 1_555 1_555
O78_15 Zn27_2 1_555 1_555
O79_35 Zn12_31 1_555 1_555
O84_35 Zn12_31 1_555 1_555
C57_19 C62_19 1_555 1_555
C59_19 C60_19 1_555 1_555
C69_19 C74_19 1_555 1_555
C71_19 C72_19 1_555 1_555
O64_11 C85_35 1_555 1_555
C79_35 C85_35 1_555 1_555
C83_35 C84_35 1_555 1_555
O40_20 C61_20 1_555 1_555
O41_20 C61_20 1_555 1_555
O66_10 C62_20 1_555 1_555
O43_20 Zn26_4 1_555 1_555
O44_20 C63_20 1_555 1_555
O45_20 C63_20 1_555 1_555
O46_20 Zn26_4 1_555 1_555
N4_20 C64_20 1_555 1_555
C55_20 C56_20 1_555 1_555
C56_20 H37_20 1_555 1_555
C57_20 C56_20 1_555 1_555
C58_20 C57_20 1_555 1_555
H38_20 C58_20 1_555 1_555
C59_20 C58_20 1_555 1_555
C60_20 C55_20 1_555 1_555
H39_20 C60_20 1_555 1_555
C61_20 C55_20 1_555 1_555
C62_20 O43_20 1_555 1_555
C63_20 C59_20 1_555 1_555
C64_20 O46_20 1_555 1_555
H40_20 C64_20 1_555 1_555
C65_20 N4_20 1_555 1_555
H41_20 C65_20 1_555 1_555
H42_20 C65_20 1_555 1_555
H43_20 C65_20 1_555 1_555
C66_20 N4_20 1_555 1_555
H44_20 C66_20 1_555 1_555
H45_20 C66_20 1_555 1_555
H46_20 C66_20 1_555 1_555
O47_20 C73_20 1_555 1_555
O48_20 C73_20 1_555 1_555
O67_4 C74_20 1_555 1_555
O50_20 Zn27_4 1_555 1_555
O51_20 C75_20 1_555 1_555
O52_20 C75_20 1_555 1_555
O53_20 Zn27_4 1_555 1_555
N5_20 C76_20 1_555 1_555
C67_20 C68_20 1_555 1_555
C68_20 H47_20 1_555 1_555
C69_20 C68_20 1_555 1_555
C70_20 C69_20 1_555 1_555
H48_20 C70_20 1_555 1_555
C71_20 C70_20 1_555 1_555
C72_20 C67_20 1_555 1_555
H49_20 C72_20 1_555 1_555
C73_20 C67_20 1_555 1_555
C74_20 O50_20 1_555 1_555
C75_20 C71_20 1_555 1_555
C76_20 O53_20 1_555 1_555
H50_20 C76_20 1_555 1_555
C77_20 N5_20 1_555 1_555
H51_20 C77_20 1_555 1_555
H52_20 C77_20 1_555 1_555
H53_20 C77_20 1_555 1_555
C78_20 N5_20 1_555 1_555
H54_20 C78_20 1_555 1_555
H55_20 C78_20 1_555 1_555
H56_20 C78_20 1_555 1_555
Zn12_32 O57_36 1_555 1_555
O56_32 C86_36 1_555 1_555
O57_36 C86_36 1_555 1_555
O73_11 C87_36 1_555 1_555
O76_11 C87_36 1_555 1_555
O60_36 Zn12_32 1_555 1_555
N6_36 C88_36 1_555 1_555
C79_36 C80_36 1_555 1_555
C80_36 H57_36 1_555 1_555
C81_36 C80_36 1_555 1_555
C82_36 C81_36 1_555 1_555
H58_36 C82_36 1_555 1_555
C83_36 C82_36 1_555 1_555
C84_36 C79_36 1_555 1_555
H59_36 C84_36 1_555 1_555
C85_36 O62_9 1_555 1_555
C86_36 C81_36 1_555 1_555
C87_36 C83_36 1_555 1_555
C88_36 O60_36 1_555 1_555
H60_36 C88_36 1_555 1_555
C89_36 N6_36 1_555 1_555
H61_36 C89_36 1_555 1_555
H62_36 C89_36 1_555 1_555
H63_36 C89_36 1_555 1_555
C90_36 N6_36 1_555 1_555
H64_36 C90_36 1_555 1_555
H65_36 C90_36 1_555 1_555
H66_36 C90_36 1_555 1_555
Zn15_5 O45_20 1_555 1_555
Zn15_20 O40_20 1_555 1_555
Zn17_5 O47_20 1_555 1_555
Zn17_16 O52_20 1_555 1_555
Zn20_5 O44_20 1_555 1_555
Zn20_20 O41_20 1_555 1_555
Zn22_5 O48_20 1_555 1_555
Zn22_16 O51_20 1_555 1_555
Zn32_32 O56_32 1_555 1_555
O70_32 Zn12_32 1_555 1_555
O78_16 Zn27_4 1_555 1_555
O79_36 Zn12_32 1_555 1_555
O84_36 Zn12_32 1_555 1_555
C57_20 C62_20 1_555 1_555
C59_20 C60_20 1_555 1_555
C69_20 C74_20 1_555 1_555
C71_20 C72_20 1_555 1_555
O64_9 C85_36 1_555 1_555
C79_36 C85_36 1_555 1_555
C83_36 C84_36 1_555 1_555
O9_21 Zn16_7 1_555 1_555
O10_21 Zn21_7 1_555 1_555
Zn4_13 O16_13 1_555 1_555
Zn5_13 O17_13 1_555 1_555
Zn23_4 O19_13 1_555 1_555
O16_13 C28_13 1_555 1_555
O17_13 C28_13 1_555 1_555
O18_9 C29_13 1_555 1_555
O19_13 C29_13 1_555 1_555
O20_13 Zn21_7 1_555 1_555
O21_13 Zn16_7 1_555 1_555
O24_21 Zn4_13 1_555 1_555
O25_21 Zn5_13 1_555 1_555
O26_13 Zn23_4 1_555 1_555
N2_13 C34_13 1_555 1_555
C22_13 C23_13 1_555 1_555
C23_13 H14_13 1_555 1_555
C24_13 C23_13 1_555 1_555
C25_13 C24_13 1_555 1_555
H15_13 C25_13 1_555 1_555
C26_13 C25_13 1_555 1_555
C27_13 C22_13 1_555 1_555
H16_13 C27_13 1_555 1_555
C28_13 C22_13 1_555 1_555
C29_13 C24_13 1_555 1_555
C30_13 O20_13 1_555 1_555
C34_13 O26_13 1_555 1_555
H18_13 C34_13 1_555 1_555
C35_13 N2_13 1_555 1_555
H19_13 C35_13 1_555 1_555
H20_13 C35_13 1_555 1_555
H21_13 C35_13 1_555 1_555
C36_13 N2_13 1_555 1_555
H22_13 C36_13 1_555 1_555
H23_13 C36_13 1_555 1_555
H24_13 C36_13 1_555 1_555
Zn24_4 O34_9 1_555 1_555
O31_9 Zn17_4 1_555 1_555
O32_9 Zn22_4 1_555 1_555
O65_4 C50_9 1_555 1_555
O34_9 C50_9 1_555 1_555
O35_9 Zn5_13 1_555 1_555
O36_9 Zn4_13 1_555 1_555
O37_17 Zn17_4 1_555 1_555
O38_17 Zn22_4 1_555 1_555
O39_9 Zn24_4 1_555 1_555
N3_9 C52_9 1_555 1_555
C43_9 C44_9 1_555 1_555
C44_9 H27_9 1_555 1_555
C45_9 C44_9 1_555 1_555
C46_9 C45_9 1_555 1_555
H28_9 C46_9 1_555 1_555
C47_9 C46_9 1_555 1_555
C48_9 C43_9 1_555 1_555
H29_9 C48_9 1_555 1_555
C49_9 O31_9 1_555 1_555
C50_9 C45_9 1_555 1_555
C51_9 O35_9 1_555 1_555
C52_9 O39_9 1_555 1_555
H30_9 C52_9 1_555 1_555
C53_9 N3_9 1_555 1_555
H31_9 C53_9 1_555 1_555
H32_9 C53_9 1_555 1_555
H33_9 C53_9 1_555 1_555
C54_9 N3_9 1_555 1_555
H34_9 C54_9 1_555 1_555
H35_9 C54_9 1_555 1_555
H36_9 C54_9 1_555 1_555
Zn28_4 O18_9 1_555 1_555
O61_13 Zn4_13 1_555 1_555
O62_13 Zn17_4 1_555 1_555
O63_13 Zn5_13 1_555 1_555
O64_13 Zn22_4 1_555 1_555
O65_9 Zn23_4 1_555 1_555
O71_7 Zn22_4 1_555 1_555
O73_13 Zn5_13 1_555 1_555
O74_7 Zn17_4 1_555 1_555
O76_13 Zn4_13 1_555 1_555
O77_9 Zn24_4 1_555 1_555
O21_13 C30_13 1_555 1_555
C26_13 C27_13 1_555 1_555
C26_13 C30_13 1_555 1_555
O32_9 C49_9 1_555 1_555
O36_9 C51_9 1_555 1_555
C43_9 C49_9 1_555 1_555
C47_9 C48_9 1_555 1_555
C47_9 C51_9 1_555 1_555
O9_22 Zn16_8 1_555 1_555
O10_22 Zn21_8 1_555 1_555
Zn12_33 O57_37 1_555 1_555
O54_13 Zn16_8 1_555 1_555
O55_13 Zn21_8 1_555 1_555
O56_33 C86_37 1_555 1_555
O57_37 C86_37 1_555 1_555
O58_7 C87_37 1_555 1_555
O59_7 C87_37 1_555 1_555
O60_37 Zn12_33 1_555 1_555
N6_37 C88_37 1_555 1_555
C79_37 C80_37 1_555 1_555
C80_37 H57_37 1_555 1_555
C81_37 C80_37 1_555 1_555
C82_37 C81_37 1_555 1_555
H58_37 C82_37 1_555 1_555
C83_37 C82_37 1_555 1_555
C84_37 C79_37 1_555 1_555
H59_37 C84_37 1_555 1_555
C85_37 O54_13 1_555 1_555
C86_37 C81_37 1_555 1_555
C87_37 C83_37 1_555 1_555
C88_37 O60_37 1_555 1_555
H60_37 C88_37 1_555 1_555
C89_37 N6_37 1_555 1_555
H61_37 C89_37 1_555 1_555
H62_37 C89_37 1_555 1_555
H63_37 C89_37 1_555 1_555
C90_37 N6_37 1_555 1_555
H64_37 C90_37 1_555 1_555
H65_37 C90_37 1_555 1_555
H66_37 C90_37 1_555 1_555
Zn17_3 O59_7 1_555 1_555
Zn22_3 O58_7 1_555 1_555
Zn32_33 O56_33 1_555 1_555
O70_33 Zn12_33 1_555 1_555
O72_13 Zn21_8 1_555 1_555
O75_13 Zn16_8 1_555 1_555
O79_37 Zn12_33 1_555 1_555
O84_37 Zn12_33 1_555 1_555
O55_13 C85_37 1_555 1_555
C79_37 C85_37 1_555 1_555
C83_37 C84_37 1_555 1_555
O9_23 Zn16_5 1_555 1_555
O10_23 Zn21_5 1_555 1_555
Zn12_34 O57_38 1_555 1_555
O54_14 Zn16_5 1_555 1_555
O55_14 Zn21_5 1_555 1_555
O56_34 C86_38 1_555 1_555
O57_38 C86_38 1_555 1_555
O71_7 C87_38 1_555 1_555
O74_7 C87_38 1_555 1_555
O60_38 Zn12_34 1_555 1_555
N6_38 C88_38 1_555 1_555
C79_38 C80_38 1_555 1_555
C80_38 H57_38 1_555 1_555
C81_38 C80_38 1_555 1_555
C82_38 C81_38 1_555 1_555
H58_38 C82_38 1_555 1_555
C83_38 C82_38 1_555 1_555
C84_38 C79_38 1_555 1_555
H59_38 C84_38 1_555 1_555
C85_38 O54_14 1_555 1_555
C86_38 C81_38 1_555 1_555
C87_38 C83_38 1_555 1_555
C88_38 O60_38 1_555 1_555
H60_38 C88_38 1_555 1_555
C89_38 N6_38 1_555 1_555
H61_38 C89_38 1_555 1_555
H62_38 C89_38 1_555 1_555
H63_38 C89_38 1_555 1_555
C90_38 N6_38 1_555 1_555
H64_38 C90_38 1_555 1_555
H65_38 C90_38 1_555 1_555
H66_38 C90_38 1_555 1_555
Zn32_34 O56_34 1_555 1_555
O70_34 Zn12_34 1_555 1_555
O72_14 Zn21_5 1_555 1_555
O75_14 Zn16_5 1_555 1_555
O79_38 Zn12_34 1_555 1_555
O84_38 Zn12_34 1_555 1_555
O55_14 C85_38 1_555 1_555
C79_38 C85_38 1_555 1_555
C83_38 C84_38 1_555 1_555
O9_24 Zn16_6 1_555 1_555
O10_24 Zn21_6 1_555 1_555
Zn4_14 O16_14 1_555 1_555
Zn5_14 O17_14 1_555 1_555
Zn23_3 O19_14 1_555 1_555
O16_14 C28_14 1_555 1_555
O17_14 C28_14 1_555 1_555
O18_10 C29_14 1_555 1_555
O19_14 C29_14 1_555 1_555
O20_14 Zn21_6 1_555 1_555
O21_14 Zn16_6 1_555 1_555
O24_22 Zn4_14 1_555 1_555
O25_22 Zn5_14 1_555 1_555
O26_14 Zn23_3 1_555 1_555
N2_14 C34_14 1_555 1_555
C22_14 C23_14 1_555 1_555
C23_14 H14_14 1_555 1_555
C24_14 C23_14 1_555 1_555
C25_14 C24_14 1_555 1_555
H15_14 C25_14 1_555 1_555
C26_14 C25_14 1_555 1_555
C27_14 C22_14 1_555 1_555
H16_14 C27_14 1_555 1_555
C28_14 C22_14 1_555 1_555
C29_14 C24_14 1_555 1_555
C30_14 O20_14 1_555 1_555
C34_14 O26_14 1_555 1_555
H18_14 C34_14 1_555 1_555
C35_14 N2_14 1_555 1_555
H19_14 C35_14 1_555 1_555
H20_14 C35_14 1_555 1_555
H21_14 C35_14 1_555 1_555
C36_14 N2_14 1_555 1_555
H22_14 C36_14 1_555 1_555
H23_14 C36_14 1_555 1_555
H24_14 C36_14 1_555 1_555
Zn24_3 O34_10 1_555 1_555
O31_10 Zn17_3 1_555 1_555
O32_10 Zn22_3 1_555 1_555
O65_3 C50_10 1_555 1_555
O34_10 C50_10 1_555 1_555
O35_10 Zn5_14 1_555 1_555
O36_10 Zn4_14 1_555 1_555
O37_18 Zn17_3 1_555 1_555
O38_18 Zn22_3 1_555 1_555
O39_10 Zn24_3 1_555 1_555
N3_10 C52_10 1_555 1_555
C43_10 C44_10 1_555 1_555
C44_10 H27_10 1_555 1_555
C45_10 C44_10 1_555 1_555
C46_10 C45_10 1_555 1_555
H28_10 C46_10 1_555 1_555
C47_10 C46_10 1_555 1_555
C48_10 C43_10 1_555 1_555
H29_10 C48_10 1_555 1_555
C49_10 O31_10 1_555 1_555
C50_10 C45_10 1_555 1_555
C51_10 O35_10 1_555 1_555
C52_10 O39_10 1_555 1_555
H30_10 C52_10 1_555 1_555
C53_10 N3_10 1_555 1_555
H31_10 C53_10 1_555 1_555
H32_10 C53_10 1_555 1_555
H33_10 C53_10 1_555 1_555
C54_10 N3_10 1_555 1_555
H34_10 C54_10 1_555 1_555
H35_10 C54_10 1_555 1_555
H36_10 C54_10 1_555 1_555
Zn28_3 O18_10 1_555 1_555
O61_14 Zn4_14 1_555 1_555
O62_14 Zn17_3 1_555 1_555
O63_14 Zn5_14 1_555 1_555
O64_14 Zn22_3 1_555 1_555
O65_10 Zn23_3 1_555 1_555
O73_14 Zn5_14 1_555 1_555
O76_14 Zn4_14 1_555 1_555
O77_10 Zn24_3 1_555 1_555
O21_14 C30_14 1_555 1_555
C26_14 C27_14 1_555 1_555
C26_14 C30_14 1_555 1_555
O32_10 C49_10 1_555 1_555
O36_10 C51_10 1_555 1_555
C43_10 C49_10 1_555 1_555
C47_10 C48_10 1_555 1_555
C47_10 C51_10 1_555 1_555
O9_25 Zn16 1_555 1_555
O10_25 Zn21 1_555 1_555
Zn4_15 O16_15 1_555 1_555
Zn5_15 O17_15 1_555 1_555
Zn23 O19_15 1_555 1_555
O16_15 C28_15 1_555 1_555
O17_15 C28_15 1_555 1_555
O18_11 C29_15 1_555 1_555
O19_15 C29_15 1_555 1_555
O20_15 Zn21 1_555 1_555
O21_15 Zn16 1_555 1_555
O24_23 Zn4_15 1_555 1_555
O25_23 Zn5_15 1_555 1_555
O26_15 Zn23 1_555 1_555
N2_15 C34_15 1_555 1_555
C22_15 C23_15 1_555 1_555
C23_15 H14_15 1_555 1_555
C24_15 C23_15 1_555 1_555
C25_15 C24_15 1_555 1_555
H15_15 C25_15 1_555 1_555
C26_15 C25_15 1_555 1_555
C27_15 C22_15 1_555 1_555
H16_15 C27_15 1_555 1_555
C28_15 C22_15 1_555 1_555
C29_15 C24_15 1_555 1_555
C30_15 O20_15 1_555 1_555
C34_15 O26_15 1_555 1_555
H18_15 C34_15 1_555 1_555
C35_15 N2_15 1_555 1_555
H19_15 C35_15 1_555 1_555
H20_15 C35_15 1_555 1_555
H21_15 C35_15 1_555 1_555
C36_15 N2_15 1_555 1_555
H22_15 C36_15 1_555 1_555
H23_15 C36_15 1_555 1_555
H24_15 C36_15 1_555 1_555
Zn24 O34_11 1_555 1_555
O31_11 Zn17 1_555 1_555
O32_11 Zn22 1_555 1_555
O65 C50_11 1_555 1_555
O34_11 C50_11 1_555 1_555
O35_11 Zn5_15 1_555 1_555
O36_11 Zn4_15 1_555 1_555
O37_19 Zn17 1_555 1_555
O38_19 Zn22 1_555 1_555
O39_11 Zn24 1_555 1_555
N3_11 C52_11 1_555 1_555
C43_11 C44_11 1_555 1_555
C44_11 H27_11 1_555 1_555
C45_11 C44_11 1_555 1_555
C46_11 C45_11 1_555 1_555
H28_11 C46_11 1_555 1_555
C47_11 C46_11 1_555 1_555
C48_11 C43_11 1_555 1_555
H29_11 C48_11 1_555 1_555
C49_11 O31_11 1_555 1_555
C50_11 C45_11 1_555 1_555
C51_11 O35_11 1_555 1_555
C52_11 O39_11 1_555 1_555
H30_11 C52_11 1_555 1_555
C53_11 N3_11 1_555 1_555
H31_11 C53_11 1_555 1_555
H32_11 C53_11 1_555 1_555
H33_11 C53_11 1_555 1_555
C54_11 N3_11 1_555 1_555
H34_11 C54_11 1_555 1_555
H35_11 C54_11 1_555 1_555
H36_11 C54_11 1_555 1_555
Zn28 O18_11 1_555 1_555
O61_15 Zn4_15 1_555 1_555
O62_15 Zn17 1_555 1_555
O63_15 Zn5_15 1_555 1_555
O64_15 Zn22 1_555 1_555
O65_11 Zn23 1_555 1_555
O71_8 Zn22 1_555 1_555
O73_15 Zn5_15 1_555 1_555
O74_8 Zn17 1_555 1_555
O76_15 Zn4_15 1_555 1_555
O77_11 Zn24 1_555 1_555
O21_15 C30_15 1_555 1_555
C26_15 C27_15 1_555 1_555
C26_15 C30_15 1_555 1_555
O32_11 C49_11 1_555 1_555
O36_11 C51_11 1_555 1_555
C43_11 C49_11 1_555 1_555
C47_11 C48_11 1_555 1_555
C47_11 C51_11 1_555 1_555
O9_26 Zn16_2 1_555 1_555
O10_26 Zn21_2 1_555 1_555
Zn12_35 O57_39 1_555 1_555
O54_15 Zn16_2 1_555 1_555
O55_15 Zn21_2 1_555 1_555
O56_35 C86_39 1_555 1_555
O57_39 C86_39 1_555 1_555
O58_8 C87_39 1_555 1_555
O59_8 C87_39 1_555 1_555
O60_39 Zn12_35 1_555 1_555
N6_39 C88_39 1_555 1_555
C79_39 C80_39 1_555 1_555
C80_39 H57_39 1_555 1_555
C81_39 C80_39 1_555 1_555
C82_39 C81_39 1_555 1_555
H58_39 C82_39 1_555 1_555
C83_39 C82_39 1_555 1_555
C84_39 C79_39 1_555 1_555
H59_39 C84_39 1_555 1_555
C85_39 O54_15 1_555 1_555
C86_39 C81_39 1_555 1_555
C87_39 C83_39 1_555 1_555
C88_39 O60_39 1_555 1_555
H60_39 C88_39 1_555 1_555
C89_39 N6_39 1_555 1_555
H61_39 C89_39 1_555 1_555
H62_39 C89_39 1_555 1_555
H63_39 C89_39 1_555 1_555
C90_39 N6_39 1_555 1_555
H64_39 C90_39 1_555 1_555
H65_39 C90_39 1_555 1_555
H66_39 C90_39 1_555 1_555
Zn17_2 O59_8 1_555 1_555
Zn22_2 O58_8 1_555 1_555
Zn32_35 O56_35 1_555 1_555
O70_35 Zn12_35 1_555 1_555
O72_15 Zn21_2 1_555 1_555
O75_15 Zn16_2 1_555 1_555
O79_39 Zn12_35 1_555 1_555
O84_39 Zn12_35 1_555 1_555
O55_15 C85_39 1_555 1_555
C79_39 C85_39 1_555 1_555
C83_39 C84_39 1_555 1_555
O9_27 Zn16_3 1_555 1_555
O10_27 Zn21_3 1_555 1_555
Zn12_36 O57_40 1_555 1_555
O54_16 Zn16_3 1_555 1_555
O55_16 Zn21_3 1_555 1_555
O56_36 C86_40 1_555 1_555
O57_40 C86_40 1_555 1_555
O71_8 C87_40 1_555 1_555
O74_8 C87_40 1_555 1_555
O60_40 Zn12_36 1_555 1_555
N6_40 C88_40 1_555 1_555
C79_40 C80_40 1_555 1_555
C80_40 H57_40 1_555 1_555
C81_40 C80_40 1_555 1_555
C82_40 C81_40 1_555 1_555
H58_40 C82_40 1_555 1_555
C83_40 C82_40 1_555 1_555
C84_40 C79_40 1_555 1_555
H59_40 C84_40 1_555 1_555
C85_40 O54_16 1_555 1_555
C86_40 C81_40 1_555 1_555
C87_40 C83_40 1_555 1_555
C88_40 O60_40 1_555 1_555
H60_40 C88_40 1_555 1_555
C89_40 N6_40 1_555 1_555
H61_40 C89_40 1_555 1_555
H62_40 C89_40 1_555 1_555
H63_40 C89_40 1_555 1_555
C90_40 N6_40 1_555 1_555
H64_40 C90_40 1_555 1_555
H65_40 C90_40 1_555 1_555
H66_40 C90_40 1_555 1_555
Zn32_36 O56_36 1_555 1_555
O70_36 Zn12_36 1_555 1_555
O72_16 Zn21_3 1_555 1_555
O75_16 Zn16_3 1_555 1_555
O79_40 Zn12_36 1_555 1_555
O84_40 Zn12_36 1_555 1_555
O55_16 C85_40 1_555 1_555
C79_40 C85_40 1_555 1_555
C83_40 C84_40 1_555 1_555
O9_28 Zn16_4 1_555 1_555
O10_28 Zn21_4 1_555 1_555
Zn4_16 O16_16 1_555 1_555
Zn5_16 O17_16 1_555 1_555
Zn23_2 O19_16 1_555 1_555
O16_16 C28_16 1_555 1_555
O17_16 C28_16 1_555 1_555
O18_12 C29_16 1_555 1_555
O19_16 C29_16 1_555 1_555
O20_16 Zn21_4 1_555 1_555
O21_16 Zn16_4 1_555 1_555
O24_24 Zn4_16 1_555 1_555
O25_24 Zn5_16 1_555 1_555
O26_16 Zn23_2 1_555 1_555
N2_16 C34_16 1_555 1_555
C22_16 C23_16 1_555 1_555
C23_16 H14_16 1_555 1_555
C24_16 C23_16 1_555 1_555
C25_16 C24_16 1_555 1_555
H15_16 C25_16 1_555 1_555
C26_16 C25_16 1_555 1_555
C27_16 C22_16 1_555 1_555
H16_16 C27_16 1_555 1_555
C28_16 C22_16 1_555 1_555
C29_16 C24_16 1_555 1_555
C30_16 O20_16 1_555 1_555
C34_16 O26_16 1_555 1_555
H18_16 C34_16 1_555 1_555
C35_16 N2_16 1_555 1_555
H19_16 C35_16 1_555 1_555
H20_16 C35_16 1_555 1_555
H21_16 C35_16 1_555 1_555
C36_16 N2_16 1_555 1_555
H22_16 C36_16 1_555 1_555
H23_16 C36_16 1_555 1_555
H24_16 C36_16 1_555 1_555
Zn24_2 O34_12 1_555 1_555
O31_12 Zn17_2 1_555 1_555
O32_12 Zn22_2 1_555 1_555
O65_2 C50_12 1_555 1_555
O34_12 C50_12 1_555 1_555
O35_12 Zn5_16 1_555 1_555
O36_12 Zn4_16 1_555 1_555
O37_20 Zn17_2 1_555 1_555
O38_20 Zn22_2 1_555 1_555
O39_12 Zn24_2 1_555 1_555
N3_12 C52_12 1_555 1_555
C43_12 C44_12 1_555 1_555
C44_12 H27_12 1_555 1_555
C45_12 C44_12 1_555 1_555
C46_12 C45_12 1_555 1_555
H28_12 C46_12 1_555 1_555
C47_12 C46_12 1_555 1_555
C48_12 C43_12 1_555 1_555
H29_12 C48_12 1_555 1_555
C49_12 O31_12 1_555 1_555
C50_12 C45_12 1_555 1_555
C51_12 O35_12 1_555 1_555
C52_12 O39_12 1_555 1_555
H30_12 C52_12 1_555 1_555
C53_12 N3_12 1_555 1_555
H31_12 C53_12 1_555 1_555
H32_12 C53_12 1_555 1_555
H33_12 C53_12 1_555 1_555
C54_12 N3_12 1_555 1_555
H34_12 C54_12 1_555 1_555
H35_12 C54_12 1_555 1_555
H36_12 C54_12 1_555 1_555
Zn28_2 O18_12 1_555 1_555
O61_16 Zn4_16 1_555 1_555
O62_16 Zn17_2 1_555 1_555
O63_16 Zn5_16 1_555 1_555
O64_16 Zn22_2 1_555 1_555
O65_12 Zn23_2 1_555 1_555
O73_16 Zn5_16 1_555 1_555
O76_16 Zn4_16 1_555 1_555
O77_12 Zn24_2 1_555 1_555
O21_16 C30_16 1_555 1_555
C26_16 C27_16 1_555 1_555
C26_16 C30_16 1_555 1_555
O32_12 C49_12 1_555 1_555
O36_12 C51_12 1_555 1_555
C43_12 C49_12 1_555 1_555
C47_12 C48_12 1_555 1_555
C47_12 C51_12 1_555 1_555
O80_2 C33_21 1_555 1_555
C31_21 C32_21 1_555 1_555
C32_21 H17_21 1_555 1_555
C33_21 O77_12 1_555 1_555
O78_15 C39_21 1_555 1_555
O81_2 C39_21 1_555 1_555
C37_21 C32_21 1_555 1_555
C38_21 C37_21 1_555 1_555
H25_21 C38_21 1_555 1_555
C39_21 C37_21 1_555 1_555
O29_21 C42_21 1_555 1_555
O82_2 C42_21 1_555 1_555
C40_21 C38_21 1_555 1_555
C41_21 C31_21 1_555 1_555
H26_21 C41_21 1_555 1_555
C42_21 C40_21 1_555 1_555
Zn12_37 O57_41 1_555 1_555
O56_37 C86_41 1_555 1_555
O57_41 C86_41 1_555 1_555
O72_13 C87_41 1_555 1_555
O75_13 C87_41 1_555 1_555
O60_41 Zn12_37 1_555 1_555
N6_41 C88_41 1_555 1_555
C79_41 C80_41 1_555 1_555
C80_41 H57_41 1_555 1_555
C81_41 C80_41 1_555 1_555
C82_41 C81_41 1_555 1_555
H58_41 C82_41 1_555 1_555
C83_41 C82_41 1_555 1_555
C84_41 C79_41 1_555 1_555
H59_41 C84_41 1_555 1_555
C85_41 O61_16 1_555 1_555
C86_41 C81_41 1_555 1_555
C87_41 C83_41 1_555 1_555
C88_41 O60_41 1_555 1_555
H60_41 C88_41 1_555 1_555
C89_41 N6_41 1_555 1_555
H61_41 C89_41 1_555 1_555
H62_41 C89_41 1_555 1_555
H63_41 C89_41 1_555 1_555
C90_41 N6_41 1_555 1_555
H64_41 C90_41 1_555 1_555
H65_41 C90_41 1_555 1_555
H66_41 C90_41 1_555 1_555
Zn29_2 O29_21 1_555 1_555
Zn32_37 O56_37 1_555 1_555
O70_37 Zn12_37 1_555 1_555
O79_41 Zn12_37 1_555 1_555
O84_41 Zn12_37 1_555 1_555
C31_21 C33_21 1_555 1_555
C40_21 C41_21 1_555 1_555
O63_16 C85_41 1_555 1_555
C79_41 C85_41 1_555 1_555
C83_41 C84_41 1_555 1_555
O80_4 C33_22 1_555 1_555
C31_22 C32_22 1_555 1_555
C32_22 H17_22 1_555 1_555
C33_22 O77_9 1_555 1_555
O78_16 C39_22 1_555 1_555
O81_4 C39_22 1_555 1_555
C37_22 C32_22 1_555 1_555
C38_22 C37_22 1_555 1_555
H25_22 C38_22 1_555 1_555
C39_22 C37_22 1_555 1_555
O29_22 C42_22 1_555 1_555
O82_4 C42_22 1_555 1_555
C40_22 C38_22 1_555 1_555
C41_22 C31_22 1_555 1_555
H26_22 C41_22 1_555 1_555
C42_22 C40_22 1_555 1_555
Zn12_38 O57_42 1_555 1_555
O56_38 C86_42 1_555 1_555
O57_42 C86_42 1_555 1_555
O72_16 C87_42 1_555 1_555
O75_16 C87_42 1_555 1_555
O60_42 Zn12_38 1_555 1_555
N6_42 C88_42 1_555 1_555
C79_42 C80_42 1_555 1_555
C80_42 H57_42 1_555 1_555
C81_42 C80_42 1_555 1_555
C82_42 C81_42 1_555 1_555
H58_42 C82_42 1_555 1_555
C83_42 C82_42 1_555 1_555
C84_42 C79_42 1_555 1_555
H59_42 C84_42 1_555 1_555
C85_42 O61_13 1_555 1_555
C86_42 C81_42 1_555 1_555
C87_42 C83_42 1_555 1_555
C88_42 O60_42 1_555 1_555
H60_42 C88_42 1_555 1_555
C89_42 N6_42 1_555 1_555
H61_42 C89_42 1_555 1_555
H62_42 C89_42 1_555 1_555
H63_42 C89_42 1_555 1_555
C90_42 N6_42 1_555 1_555
H64_42 C90_42 1_555 1_555
H65_42 C90_42 1_555 1_555
H66_42 C90_42 1_555 1_555
Zn29_4 O29_22 1_555 1_555
Zn32_38 O56_38 1_555 1_555
O70_38 Zn12_38 1_555 1_555
O79_42 Zn12_38 1_555 1_555
O84_42 Zn12_38 1_555 1_555
C31_22 C33_22 1_555 1_555
C40_22 C41_22 1_555 1_555
O63_13 C85_42 1_555 1_555
C79_42 C85_42 1_555 1_555
C83_42 C84_42 1_555 1_555
O80 C33_23 1_555 1_555
C31_23 C32_23 1_555 1_555
C32_23 H17_23 1_555 1_555
C33_23 O77_11 1_555 1_555
O78_14 C39_23 1_555 1_555
O81 C39_23 1_555 1_555
C37_23 C32_23 1_555 1_555
C38_23 C37_23 1_555 1_555
H25_23 C38_23 1_555 1_555
C39_23 C37_23 1_555 1_555
O29_23 C42_23 1_555 1_555
O82 C42_23 1_555 1_555
C40_23 C38_23 1_555 1_555
C41_23 C31_23 1_555 1_555
H26_23 C41_23 1_555 1_555
C42_23 C40_23 1_555 1_555
Zn12_39 O57_43 1_555 1_555
O56_39 C86_43 1_555 1_555
O57_43 C86_43 1_555 1_555
O72_14 C87_43 1_555 1_555
O75_14 C87_43 1_555 1_555
O60_43 Zn12_39 1_555 1_555
N6_43 C88_43 1_555 1_555
C79_43 C80_43 1_555 1_555
C80_43 H57_43 1_555 1_555
C81_43 C80_43 1_555 1_555
C82_43 C81_43 1_555 1_555
H58_43 C82_43 1_555 1_555
C83_43 C82_43 1_555 1_555
C84_43 C79_43 1_555 1_555
H59_43 C84_43 1_555 1_555
C85_43 O61_15 1_555 1_555
C86_43 C81_43 1_555 1_555
C87_43 C83_43 1_555 1_555
C88_43 O60_43 1_555 1_555
H60_43 C88_43 1_555 1_555
C89_43 N6_43 1_555 1_555
H61_43 C89_43 1_555 1_555
H62_43 C89_43 1_555 1_555
H63_43 C89_43 1_555 1_555
C90_43 N6_43 1_555 1_555
H64_43 C90_43 1_555 1_555
H65_43 C90_43 1_555 1_555
H66_43 C90_43 1_555 1_555
Zn29 O29_23 1_555 1_555
Zn32_39 O56_39 1_555 1_555
O70_39 Zn12_39 1_555 1_555
O79_43 Zn12_39 1_555 1_555
O84_43 Zn12_39 1_555 1_555
C31_23 C33_23 1_555 1_555
C40_23 C41_23 1_555 1_555
O63_15 C85_43 1_555 1_555
C79_43 C85_43 1_555 1_555
C83_43 C84_43 1_555 1_555
O80_3 C33_24 1_555 1_555
C31_24 C32_24 1_555 1_555
C32_24 H17_24 1_555 1_555
C33_24 O77_10 1_555 1_555
O78_13 C39_24 1_555 1_555
O81_3 C39_24 1_555 1_555
C37_24 C32_24 1_555 1_555
C38_24 C37_24 1_555 1_555
H25_24 C38_24 1_555 1_555
C39_24 C37_24 1_555 1_555
O29_24 C42_24 1_555 1_555
O82_3 C42_24 1_555 1_555
C40_24 C38_24 1_555 1_555
C41_24 C31_24 1_555 1_555
H26_24 C41_24 1_555 1_555
C42_24 C40_24 1_555 1_555
Zn12_40 O57_44 1_555 1_555
O56_40 C86_44 1_555 1_555
O57_44 C86_44 1_555 1_555
O72_15 C87_44 1_555 1_555
O75_15 C87_44 1_555 1_555
O60_44 Zn12_40 1_555 1_555
N6_44 C88_44 1_555 1_555
C79_44 C80_44 1_555 1_555
C80_44 H57_44 1_555 1_555
C81_44 C80_44 1_555 1_555
C82_44 C81_44 1_555 1_555
H58_44 C82_44 1_555 1_555
C83_44 C82_44 1_555 1_555
C84_44 C79_44 1_555 1_555
H59_44 C84_44 1_555 1_555
C85_44 O61_14 1_555 1_555
C86_44 C81_44 1_555 1_555
C87_44 C83_44 1_555 1_555
C88_44 O60_44 1_555 1_555
H60_44 C88_44 1_555 1_555
C89_44 N6_44 1_555 1_555
H61_44 C89_44 1_555 1_555
H62_44 C89_44 1_555 1_555
H63_44 C89_44 1_555 1_555
C90_44 N6_44 1_555 1_555
H64_44 C90_44 1_555 1_555
H65_44 C90_44 1_555 1_555
H66_44 C90_44 1_555 1_555
Zn29_3 O29_24 1_555 1_555
Zn32_40 O56_40 1_555 1_555
O70_40 Zn12_40 1_555 1_555
O79_44 Zn12_40 1_555 1_555
O84_44 Zn12_40 1_555 1_555
C31_24 C33_24 1_555 1_555
C40_24 C41_24 1_555 1_555
O63_14 C85_44 1_555 1_555
C79_44 C85_44 1_555 1_555
C83_44 C84_44 1_555 1_555
Zn32_8 O57_45 1_555 1_555
O70_8 C86_45 1_555 1_555
O57_45 C86_45 1_555 1_555
O73_16 C87_45 1_555 1_555
O76_16 C87_45 1_555 1_555
O60_45 Zn32_8 1_555 1_555
N6_45 C88_45 1_555 1_555
C79_45 C80_45 1_555 1_555
C80_45 H57_45 1_555 1_555
C81_45 C80_45 1_555 1_555
C82_45 C81_45 1_555 1_555
H58_45 C82_45 1_555 1_555
C83_45 C82_45 1_555 1_555
C84_45 C79_45 1_555 1_555
H59_45 C84_45 1_555 1_555
C85_45 O62_14 1_555 1_555
C86_45 C81_45 1_555 1_555
C87_45 C83_45 1_555 1_555
C88_45 O60_45 1_555 1_555
H60_45 C88_45 1_555 1_555
C89_45 N6_45 1_555 1_555
H61_45 C89_45 1_555 1_555
H62_45 C89_45 1_555 1_555
H63_45 C89_45 1_555 1_555
C90_45 N6_45 1_555 1_555
H64_45 C90_45 1_555 1_555
H65_45 C90_45 1_555 1_555
H66_45 C90_45 1_555 1_555
O79_45 Zn32_8 1_555 1_555
O84_45 Zn32_8 1_555 1_555
O64_14 C85_45 1_555 1_555
C79_45 C85_45 1_555 1_555
C83_45 C84_45 1_555 1_555
Zn32_7 O57_46 1_555 1_555
O70_7 C86_46 1_555 1_555
O57_46 C86_46 1_555 1_555
O73_14 C87_46 1_555 1_555
O76_14 C87_46 1_555 1_555
O60_46 Zn32_7 1_555 1_555
N6_46 C88_46 1_555 1_555
C79_46 C80_46 1_555 1_555
C80_46 H57_46 1_555 1_555
C81_46 C80_46 1_555 1_555
C82_46 C81_46 1_555 1_555
H58_46 C82_46 1_555 1_555
C83_46 C82_46 1_555 1_555
C84_46 C79_46 1_555 1_555
H59_46 C84_46 1_555 1_555
C85_46 O62_16 1_555 1_555
C86_46 C81_46 1_555 1_555
C87_46 C83_46 1_555 1_555
C88_46 O60_46 1_555 1_555
H60_46 C88_46 1_555 1_555
C89_46 N6_46 1_555 1_555
H61_46 C89_46 1_555 1_555
H62_46 C89_46 1_555 1_555
H63_46 C89_46 1_555 1_555
C90_46 N6_46 1_555 1_555
H64_46 C90_46 1_555 1_555
H65_46 C90_46 1_555 1_555
H66_46 C90_46 1_555 1_555
O79_46 Zn32_7 1_555 1_555
O84_46 Zn32_7 1_555 1_555
O64_16 C85_46 1_555 1_555
C79_46 C85_46 1_555 1_555
C83_46 C84_46 1_555 1_555
Zn32_5 O57_47 1_555 1_555
O70_5 C86_47 1_555 1_555
O57_47 C86_47 1_555 1_555
O73_13 C87_47 1_555 1_555
O76_13 C87_47 1_555 1_555
O60_47 Zn32_5 1_555 1_555
N6_47 C88_47 1_555 1_555
C79_47 C80_47 1_555 1_555
C80_47 H57_47 1_555 1_555
C81_47 C80_47 1_555 1_555
C82_47 C81_47 1_555 1_555
H58_47 C82_47 1_555 1_555
C83_47 C82_47 1_555 1_555
C84_47 C79_47 1_555 1_555
H59_47 C84_47 1_555 1_555
C85_47 O62_15 1_555 1_555
C86_47 C81_47 1_555 1_555
C87_47 C83_47 1_555 1_555
C88_47 O60_47 1_555 1_555
H60_47 C88_47 1_555 1_555
C89_47 N6_47 1_555 1_555
H61_47 C89_47 1_555 1_555
H62_47 C89_47 1_555 1_555
H63_47 C89_47 1_555 1_555
C90_47 N6_47 1_555 1_555
H64_47 C90_47 1_555 1_555
H65_47 C90_47 1_555 1_555
H66_47 C90_47 1_555 1_555
O79_47 Zn32_5 1_555 1_555
O84_47 Zn32_5 1_555 1_555
O64_15 C85_47 1_555 1_555
C79_47 C85_47 1_555 1_555
C83_47 C84_47 1_555 1_555
Zn32_6 O57_48 1_555 1_555
O70_6 C86_48 1_555 1_555
O57_48 C86_48 1_555 1_555
O73_15 C87_48 1_555 1_555
O76_15 C87_48 1_555 1_555
O60_48 Zn32_6 1_555 1_555
N6_48 C88_48 1_555 1_555
C79_48 C80_48 1_555 1_555
C80_48 H57_48 1_555 1_555
C81_48 C80_48 1_555 1_555
C82_48 C81_48 1_555 1_555
H58_48 C82_48 1_555 1_555
C83_48 C82_48 1_555 1_555
C84_48 C79_48 1_555 1_555
H59_48 C84_48 1_555 1_555
C85_48 O62_13 1_555 1_555
C86_48 C81_48 1_555 1_555
C87_48 C83_48 1_555 1_555
C88_48 O60_48 1_555 1_555
H60_48 C88_48 1_555 1_555
C89_48 N6_48 1_555 1_555
H61_48 C89_48 1_555 1_555
H62_48 C89_48 1_555 1_555
H63_48 C89_48 1_555 1_555
C90_48 N6_48 1_555 1_555
H64_48 C90_48 1_555 1_555
H65_48 C90_48 1_555 1_555
H66_48 C90_48 1_555 1_555
O79_48 Zn32_6 1_555 1_555
O84_48 Zn32_6 1_555 1_555
O64_13 C85_48 1_555 1_555
C79_48 C85_48 1_555 1_555
C83_48 C84_48 1_555 1_555
O37_21 Zn14_13 1_555 1_555
O38_21 Zn19_13 1_555 1_555
O62_17 Zn14_13 1_555 1_555
O64_17 Zn19_13 1_555 1_555
O71_9 Zn19_13 1_555 1_555
O74_9 Zn14_13 1_555 1_555
O24_25 Zn15_13 1_555 1_555
O25_25 Zn20_13 1_555 1_555
O61_17 Zn15_13 1_555 1_555
O63_17 Zn20_13 1_555 1_555
O73_17 Zn20_13 1_555 1_555
O76_17 Zn15_13 1_555 1_555
O9_29 Zn15_7 1_555 1_555
O10_29 Zn20_7 1_555 1_555
O24_26 Zn15_14 1_555 1_555
O25_26 Zn20_14 1_555 1_555
Zn24_8 O34_13 1_555 1_555
O31_13 Zn14_14 1_555 1_555
O32_13 Zn19_14 1_555 1_555
O65_8 C50_13 1_555 1_555
O34_13 C50_13 1_555 1_555
O35_13 Zn20_14 1_555 1_555
O36_13 Zn15_14 1_555 1_555
O37_22 Zn14_14 1_555 1_555
O38_22 Zn19_14 1_555 1_555
O39_13 Zn24_8 1_555 1_555
N3_13 C52_13 1_555 1_555
C43_13 C44_13 1_555 1_555
C44_13 H27_13 1_555 1_555
C45_13 C44_13 1_555 1_555
C46_13 C45_13 1_555 1_555
H28_13 C46_13 1_555 1_555
C47_13 C46_13 1_555 1_555
C48_13 C43_13 1_555 1_555
H29_13 C48_13 1_555 1_555
C49_13 O31_13 1_555 1_555
C50_13 C45_13 1_555 1_555
C51_13 O35_13 1_555 1_555
C52_13 O39_13 1_555 1_555
H30_13 C52_13 1_555 1_555
C53_13 N3_13 1_555 1_555
H31_13 C53_13 1_555 1_555
H32_13 C53_13 1_555 1_555
H33_13 C53_13 1_555 1_555
C54_13 N3_13 1_555 1_555
H34_13 C54_13 1_555 1_555
H35_13 C54_13 1_555 1_555
H36_13 C54_13 1_555 1_555
O40_21 C61_21 1_555 1_555
O41_21 C61_21 1_555 1_555
O65_10 C62_21 1_555 1_555
O43_21 Zn28_3 1_555 1_555
O44_21 C63_21 1_555 1_555
O45_21 C63_21 1_555 1_555
O46_21 Zn28_3 1_555 1_555
N4_21 C64_21 1_555 1_555
C55_21 C56_21 1_555 1_555
C56_21 H37_21 1_555 1_555
C57_21 C56_21 1_555 1_555
C58_21 C57_21 1_555 1_555
H38_21 C58_21 1_555 1_555
C59_21 C58_21 1_555 1_555
C60_21 C55_21 1_555 1_555
H39_21 C60_21 1_555 1_555
C61_21 C55_21 1_555 1_555
C62_21 O43_21 1_555 1_555
C63_21 C59_21 1_555 1_555
C64_21 O46_21 1_555 1_555
H40_21 C64_21 1_555 1_555
C65_21 N4_21 1_555 1_555
H41_21 C65_21 1_555 1_555
H42_21 C65_21 1_555 1_555
H43_21 C65_21 1_555 1_555
C66_21 N4_21 1_555 1_555
H44_21 C66_21 1_555 1_555
H45_21 C66_21 1_555 1_555
H46_21 C66_21 1_555 1_555
O47_21 C73_21 1_555 1_555
O48_21 C73_21 1_555 1_555
O68_3 C74_21 1_555 1_555
O50_21 Zn29_3 1_555 1_555
O51_21 C75_21 1_555 1_555
O52_21 C75_21 1_555 1_555
O53_21 Zn29_3 1_555 1_555
N5_21 C76_21 1_555 1_555
C67_21 C68_21 1_555 1_555
C68_21 H47_21 1_555 1_555
C69_21 C68_21 1_555 1_555
C70_21 C69_21 1_555 1_555
H48_21 C70_21 1_555 1_555
C71_21 C70_21 1_555 1_555
C72_21 C67_21 1_555 1_555
H49_21 C72_21 1_555 1_555
C73_21 C67_21 1_555 1_555
C74_21 O50_21 1_555 1_555
C75_21 C71_21 1_555 1_555
C76_21 O53_21 1_555 1_555
H50_21 C76_21 1_555 1_555
C77_21 N5_21 1_555 1_555
H51_21 C77_21 1_555 1_555
H52_21 C77_21 1_555 1_555
H53_21 C77_21 1_555 1_555
C78_21 N5_21 1_555 1_555
H54_21 C78_21 1_555 1_555
H55_21 C78_21 1_555 1_555
H56_21 C78_21 1_555 1_555
Zn32_33 O57_49 1_555 1_555
O54_17 Zn15_7 1_555 1_555
O55_17 Zn20_7 1_555 1_555
O70_33 C86_49 1_555 1_555
O57_49 C86_49 1_555 1_555
O58_9 C87_49 1_555 1_555
O59_9 C87_49 1_555 1_555
O60_49 Zn32_33 1_555 1_555
N6_49 C88_49 1_555 1_555
C79_49 C80_49 1_555 1_555
C80_49 H57_49 1_555 1_555
C81_49 C80_49 1_555 1_555
C82_49 C81_49 1_555 1_555
H58_49 C82_49 1_555 1_555
C83_49 C82_49 1_555 1_555
C84_49 C79_49 1_555 1_555
H59_49 C84_49 1_555 1_555
C85_49 O54_17 1_555 1_555
C86_49 C81_49 1_555 1_555
C87_49 C83_49 1_555 1_555
C88_49 O60_49 1_555 1_555
H60_49 C88_49 1_555 1_555
C89_49 N6_49 1_555 1_555
H61_49 C89_49 1_555 1_555
H62_49 C89_49 1_555 1_555
H63_49 C89_49 1_555 1_555
C90_49 N6_49 1_555 1_555
H64_49 C90_49 1_555 1_555
H65_49 C90_49 1_555 1_555
H66_49 C90_49 1_555 1_555
Zn14_10 O59_9 1_555 1_555
Zn15_11 O45_21 1_555 1_555
Zn14_32 O40_21 1_555 1_555
Zn17_11 O47_21 1_555 1_555
Zn16_28 O52_21 1_555 1_555
Zn19_10 O58_9 1_555 1_555
Zn20_11 O44_21 1_555 1_555
Zn19_32 O41_21 1_555 1_555
Zn22_11 O48_21 1_555 1_555
Zn21_28 O51_21 1_555 1_555
O72_17 Zn20_7 1_555 1_555
O75_17 Zn15_7 1_555 1_555
O79_49 Zn32_33 1_555 1_555
O84_49 Zn32_33 1_555 1_555
O32_13 C49_13 1_555 1_555
O36_13 C51_13 1_555 1_555
C43_13 C49_13 1_555 1_555
C47_13 C48_13 1_555 1_555
C47_13 C51_13 1_555 1_555
C57_21 C62_21 1_555 1_555
C59_21 C60_21 1_555 1_555
C69_21 C74_21 1_555 1_555
C71_21 C72_21 1_555 1_555
O55_17 C85_49 1_555 1_555
C79_49 C85_49 1_555 1_555
C83_49 C84_49 1_555 1_555
O24_27 Zn15_19 1_555 1_555
O25_27 Zn20_19 1_555 1_555
O61_18 Zn15_19 1_555 1_555
O63_18 Zn20_19 1_555 1_555
O73_18 Zn20_19 1_555 1_555
O76_18 Zn15_19 1_555 1_555
O9_30 Zn15_5 1_555 1_555
O10_30 Zn20_5 1_555 1_555
O24_28 Zn15_20 1_555 1_555
O25_28 Zn20_20 1_555 1_555
Zn24_7 O34_14 1_555 1_555
O31_14 Zn14_9 1_555 1_555
O32_14 Zn19_9 1_555 1_555
O65_7 C50_14 1_555 1_555
O34_14 C50_14 1_555 1_555
O35_14 Zn20_20 1_555 1_555
O36_14 Zn15_20 1_555 1_555
O37_23 Zn14_9 1_555 1_555
O38_23 Zn19_9 1_555 1_555
O39_14 Zn24_7 1_555 1_555
N3_14 C52_14 1_555 1_555
C43_14 C44_14 1_555 1_555
C44_14 H27_14 1_555 1_555
C45_14 C44_14 1_555 1_555
C46_14 C45_14 1_555 1_555
H28_14 C46_14 1_555 1_555
C47_14 C46_14 1_555 1_555
C48_14 C43_14 1_555 1_555
H29_14 C48_14 1_555 1_555
C49_14 O31_14 1_555 1_555
C50_14 C45_14 1_555 1_555
C51_14 O35_14 1_555 1_555
C52_14 O39_14 1_555 1_555
H30_14 C52_14 1_555 1_555
C53_14 N3_14 1_555 1_555
H31_14 C53_14 1_555 1_555
H32_14 C53_14 1_555 1_555
H33_14 C53_14 1_555 1_555
C54_14 N3_14 1_555 1_555
H34_14 C54_14 1_555 1_555
H35_14 C54_14 1_555 1_555
H36_14 C54_14 1_555 1_555
O40_22 C61_22 1_555 1_555
O41_22 C61_22 1_555 1_555
O65_9 C62_22 1_555 1_555
O43_22 Zn28_4 1_555 1_555
O44_22 C63_22 1_555 1_555
O45_22 C63_22 1_555 1_555
O46_22 Zn28_4 1_555 1_555
N4_22 C64_22 1_555 1_555
C55_22 C56_22 1_555 1_555
C56_22 H37_22 1_555 1_555
C57_22 C56_22 1_555 1_555
C58_22 C57_22 1_555 1_555
H38_22 C58_22 1_555 1_555
C59_22 C58_22 1_555 1_555
C60_22 C55_22 1_555 1_555
H39_22 C60_22 1_555 1_555
C61_22 C55_22 1_555 1_555
C62_22 O43_22 1_555 1_555
C63_22 C59_22 1_555 1_555
C64_22 O46_22 1_555 1_555
H40_22 C64_22 1_555 1_555
C65_22 N4_22 1_555 1_555
H41_22 C65_22 1_555 1_555
H42_22 C65_22 1_555 1_555
H43_22 C65_22 1_555 1_555
C66_22 N4_22 1_555 1_555
H44_22 C66_22 1_555 1_555
H45_22 C66_22 1_555 1_555
H46_22 C66_22 1_555 1_555
O47_22 C73_22 1_555 1_555
O48_22 C73_22 1_555 1_555
O68_4 C74_22 1_555 1_555
O50_22 Zn29_4 1_555 1_555
O51_22 C75_22 1_555 1_555
O52_22 C75_22 1_555 1_555
O53_22 Zn29_4 1_555 1_555
N5_22 C76_22 1_555 1_555
C67_22 C68_22 1_555 1_555
C68_22 H47_22 1_555 1_555
C69_22 C68_22 1_555 1_555
C70_22 C69_22 1_555 1_555
H48_22 C70_22 1_555 1_555
C71_22 C70_22 1_555 1_555
C72_22 C67_22 1_555 1_555
H49_22 C72_22 1_555 1_555
C73_22 C67_22 1_555 1_555
C74_22 O50_22 1_555 1_555
C75_22 C71_22 1_555 1_555
C76_22 O53_22 1_555 1_555
H50_22 C76_22 1_555 1_555
C77_22 N5_22 1_555 1_555
H51_22 C77_22 1_555 1_555
H52_22 C77_22 1_555 1_555
H53_22 C77_22 1_555 1_555
C78_22 N5_22 1_555 1_555
H54_22 C78_22 1_555 1_555
H55_22 C78_22 1_555 1_555
H56_22 C78_22 1_555 1_555
Zn32_34 O57_50 1_555 1_555
O54_18 Zn15_5 1_555 1_555
O55_18 Zn20_5 1_555 1_555
O70_34 C86_50 1_555 1_555
O57_50 C86_50 1_555 1_555
O71_9 C87_50 1_555 1_555
O74_9 C87_50 1_555 1_555
O60_50 Zn32_34 1_555 1_555
N6_50 C88_50 1_555 1_555
C79_50 C80_50 1_555 1_555
C80_50 H57_50 1_555 1_555
C81_50 C80_50 1_555 1_555
C82_50 C81_50 1_555 1_555
H58_50 C82_50 1_555 1_555
C83_50 C82_50 1_555 1_555
C84_50 C79_50 1_555 1_555
H59_50 C84_50 1_555 1_555
C85_50 O54_18 1_555 1_555
C86_50 C81_50 1_555 1_555
C87_50 C83_50 1_555 1_555
C88_50 O60_50 1_555 1_555
H60_50 C88_50 1_555 1_555
C89_50 N6_50 1_555 1_555
H61_50 C89_50 1_555 1_555
H62_50 C89_50 1_555 1_555
H63_50 C89_50 1_555 1_555
C90_50 N6_50 1_555 1_555
H64_50 C90_50 1_555 1_555
H65_50 C90_50 1_555 1_555
H66_50 C90_50 1_555 1_555
Zn15_10 O45_22 1_555 1_555
Zn14_27 O40_22 1_555 1_555
Zn17_10 O47_22 1_555 1_555
Zn16_26 O52_22 1_555 1_555
Zn20_10 O44_22 1_555 1_555
Zn19_27 O41_22 1_555 1_555
Zn22_10 O48_22 1_555 1_555
Zn21_26 O51_22 1_555 1_555
O72_18 Zn20_5 1_555 1_555
O75_18 Zn15_5 1_555 1_555
O79_50 Zn32_34 1_555 1_555
O84_50 Zn32_34 1_555 1_555
O32_14 C49_14 1_555 1_555
O36_14 C51_14 1_555 1_555
C43_14 C49_14 1_555 1_555
C47_14 C48_14 1_555 1_555
C47_14 C51_14 1_555 1_555
C57_22 C62_22 1_555 1_555
C59_22 C60_22 1_555 1_555
C69_22 C74_22 1_555 1_555
C71_22 C72_22 1_555 1_555
O55_18 C85_50 1_555 1_555
C79_50 C85_50 1_555 1_555
C83_50 C84_50 1_555 1_555
O37_24 Zn14_10 1_555 1_555
O38_24 Zn19_10 1_555 1_555
O62_18 Zn14_10 1_555 1_555
O64_18 Zn19_10 1_555 1_555
O9_31 Zn15_6 1_555 1_555
O10_31 Zn20_6 1_555 1_555
O24_29 Zn15_15 1_555 1_555
O25_29 Zn20_15 1_555 1_555
Zn24_5 O34_15 1_555 1_555
O31_15 Zn14_11 1_555 1_555
O32_15 Zn19_11 1_555 1_555
O65_5 C50_15 1_555 1_555
O34_15 C50_15 1_555 1_555
O35_15 Zn20_15 1_555 1_555
O36_15 Zn15_15 1_555 1_555
O37_25 Zn14_11 1_555 1_555
O38_25 Zn19_11 1_555 1_555
O39_15 Zn24_5 1_555 1_555
N3_15 C52_15 1_555 1_555
C43_15 C44_15 1_555 1_555
C44_15 H27_15 1_555 1_555
C45_15 C44_15 1_555 1_555
C46_15 C45_15 1_555 1_555
H28_15 C46_15 1_555 1_555
C47_15 C46_15 1_555 1_555
C48_15 C43_15 1_555 1_555
H29_15 C48_15 1_555 1_555
C49_15 O31_15 1_555 1_555
C50_15 C45_15 1_555 1_555
C51_15 O35_15 1_555 1_555
C52_15 O39_15 1_555 1_555
H30_15 C52_15 1_555 1_555
C53_15 N3_15 1_555 1_555
H31_15 C53_15 1_555 1_555
H32_15 C53_15 1_555 1_555
H33_15 C53_15 1_555 1_555
C54_15 N3_15 1_555 1_555
H34_15 C54_15 1_555 1_555
H35_15 C54_15 1_555 1_555
H36_15 C54_15 1_555 1_555
O40_23 C61_23 1_555 1_555
O41_23 C61_23 1_555 1_555
O65_11 C62_23 1_555 1_555
O43_23 Zn28 1_555 1_555
O44_23 C63_23 1_555 1_555
O45_23 C63_23 1_555 1_555
O46_23 Zn28 1_555 1_555
N4_23 C64_23 1_555 1_555
C55_23 C56_23 1_555 1_555
C56_23 H37_23 1_555 1_555
C57_23 C56_23 1_555 1_555
C58_23 C57_23 1_555 1_555
H38_23 C58_23 1_555 1_555
C59_23 C58_23 1_555 1_555
C60_23 C55_23 1_555 1_555
H39_23 C60_23 1_555 1_555
C61_23 C55_23 1_555 1_555
C62_23 O43_23 1_555 1_555
C63_23 C59_23 1_555 1_555
C64_23 O46_23 1_555 1_555
H40_23 C64_23 1_555 1_555
C65_23 N4_23 1_555 1_555
H41_23 C65_23 1_555 1_555
H42_23 C65_23 1_555 1_555
H43_23 C65_23 1_555 1_555
C66_23 N4_23 1_555 1_555
H44_23 C66_23 1_555 1_555
H45_23 C66_23 1_555 1_555
H46_23 C66_23 1_555 1_555
O47_23 C73_23 1_555 1_555
O48_23 C73_23 1_555 1_555
O68 C74_23 1_555 1_555
O50_23 Zn29 1_555 1_555
O51_23 C75_23 1_555 1_555
O52_23 C75_23 1_555 1_555
O53_23 Zn29 1_555 1_555
N5_23 C76_23 1_555 1_555
C67_23 C68_23 1_555 1_555
C68_23 H47_23 1_555 1_555
C69_23 C68_23 1_555 1_555
C70_23 C69_23 1_555 1_555
H48_23 C70_23 1_555 1_555
C71_23 C70_23 1_555 1_555
C72_23 C67_23 1_555 1_555
H49_23 C72_23 1_555 1_555
C73_23 C67_23 1_555 1_555
C74_23 O50_23 1_555 1_555
C75_23 C71_23 1_555 1_555
C76_23 O53_23 1_555 1_555
H50_23 C76_23 1_555 1_555
C77_23 N5_23 1_555 1_555
H51_23 C77_23 1_555 1_555
H52_23 C77_23 1_555 1_555
H53_23 C77_23 1_555 1_555
C78_23 N5_23 1_555 1_555
H54_23 C78_23 1_555 1_555
H55_23 C78_23 1_555 1_555
H56_23 C78_23 1_555 1_555
Zn32_36 O57_51 1_555 1_555
O54_19 Zn15_6 1_555 1_555
O55_19 Zn20_6 1_555 1_555
O70_36 C86_51 1_555 1_555
O57_51 C86_51 1_555 1_555
O58_10 C87_51 1_555 1_555
O59_10 C87_51 1_555 1_555
O60_51 Zn32_36 1_555 1_555
N6_51 C88_51 1_555 1_555
C79_51 C80_51 1_555 1_555
C80_51 H57_51 1_555 1_555
C81_51 C80_51 1_555 1_555
C82_51 C81_51 1_555 1_555
H58_51 C82_51 1_555 1_555
C83_51 C82_51 1_555 1_555
C84_51 C79_51 1_555 1_555
H59_51 C84_51 1_555 1_555
C85_51 O54_19 1_555 1_555
C86_51 C81_51 1_555 1_555
C87_51 C83_51 1_555 1_555
C88_51 O60_51 1_555 1_555
H60_51 C88_51 1_555 1_555
C89_51 N6_51 1_555 1_555
H61_51 C89_51 1_555 1_555
H62_51 C89_51 1_555 1_555
H63_51 C89_51 1_555 1_555
C90_51 N6_51 1_555 1_555
H64_51 C90_51 1_555 1_555
H65_51 C90_51 1_555 1_555
H66_51 C90_51 1_555 1_555
Zn14_15 O59_10 1_555 1_555
Zn15_12 O45_23 1_555 1_555
Zn14_25 O40_23 1_555 1_555
Zn17_12 O47_23 1_555 1_555
Zn16_25 O52_23 1_555 1_555
Zn19_15 O58_10 1_555 1_555
Zn20_12 O44_23 1_555 1_555
Zn19_25 O41_23 1_555 1_555
Zn22_12 O48_23 1_555 1_555
Zn21_25 O51_23 1_555 1_555
O72_19 Zn20_6 1_555 1_555
O75_19 Zn15_6 1_555 1_555
O79_51 Zn32_36 1_555 1_555
O84_51 Zn32_36 1_555 1_555
O32_15 C49_15 1_555 1_555
O36_15 C51_15 1_555 1_555
C43_15 C49_15 1_555 1_555
C47_15 C48_15 1_555 1_555
C47_15 C51_15 1_555 1_555
C57_23 C62_23 1_555 1_555
C59_23 C60_23 1_555 1_555
C69_23 C74_23 1_555 1_555
C71_23 C72_23 1_555 1_555
O55_19 C85_51 1_555 1_555
C79_51 C85_51 1_555 1_555
C83_51 C84_51 1_555 1_555
O24_30 Zn15_16 1_555 1_555
O25_30 Zn20_16 1_555 1_555
O61_19 Zn15_16 1_555 1_555
O63_19 Zn20_16 1_555 1_555
O73_19 Zn20_16 1_555 1_555
O76_19 Zn15_16 1_555 1_555
O37_26 Zn14_12 1_555 1_555
O38_26 Zn19_12 1_555 1_555
O62_19 Zn14_12 1_555 1_555
O64_19 Zn19_12 1_555 1_555
O71_10 Zn19_12 1_555 1_555
O74_10 Zn14_12 1_555 1_555
O37_27 Zn14_15 1_555 1_555
O38_27 Zn19_15 1_555 1_555
O62_20 Zn14_15 1_555 1_555
O64_20 Zn19_15 1_555 1_555
O9_32 Zn15_8 1_555 1_555
O10_32 Zn20_8 1_555 1_555
O24_31 Zn15_17 1_555 1_555
O25_31 Zn20_17 1_555 1_555
Zn24_6 O34_16 1_555 1_555
O31_16 Zn14_16 1_555 1_555
O32_16 Zn19_16 1_555 1_555
O65_6 C50_16 1_555 1_555
O34_16 C50_16 1_555 1_555
O35_16 Zn20_17 1_555 1_555
O36_16 Zn15_17 1_555 1_555
O37_28 Zn14_16 1_555 1_555
O38_28 Zn19_16 1_555 1_555
O39_16 Zn24_6 1_555 1_555
N3_16 C52_16 1_555 1_555
C43_16 C44_16 1_555 1_555
C44_16 H27_16 1_555 1_555
C45_16 C44_16 1_555 1_555
C46_16 C45_16 1_555 1_555
H28_16 C46_16 1_555 1_555
C47_16 C46_16 1_555 1_555
C48_16 C43_16 1_555 1_555
H29_16 C48_16 1_555 1_555
C49_16 O31_16 1_555 1_555
C50_16 C45_16 1_555 1_555
C51_16 O35_16 1_555 1_555
C52_16 O39_16 1_555 1_555
H30_16 C52_16 1_555 1_555
C53_16 N3_16 1_555 1_555
H31_16 C53_16 1_555 1_555
H32_16 C53_16 1_555 1_555
H33_16 C53_16 1_555 1_555
C54_16 N3_16 1_555 1_555
H34_16 C54_16 1_555 1_555
H35_16 C54_16 1_555 1_555
H36_16 C54_16 1_555 1_555
O40_24 C61_24 1_555 1_555
O41_24 C61_24 1_555 1_555
O65_12 C62_24 1_555 1_555
O43_24 Zn28_2 1_555 1_555
O44_24 C63_24 1_555 1_555
O45_24 C63_24 1_555 1_555
O46_24 Zn28_2 1_555 1_555
N4_24 C64_24 1_555 1_555
C55_24 C56_24 1_555 1_555
C56_24 H37_24 1_555 1_555
C57_24 C56_24 1_555 1_555
C58_24 C57_24 1_555 1_555
H38_24 C58_24 1_555 1_555
C59_24 C58_24 1_555 1_555
C60_24 C55_24 1_555 1_555
H39_24 C60_24 1_555 1_555
C61_24 C55_24 1_555 1_555
C62_24 O43_24 1_555 1_555
C63_24 C59_24 1_555 1_555
C64_24 O46_24 1_555 1_555
H40_24 C64_24 1_555 1_555
C65_24 N4_24 1_555 1_555
H41_24 C65_24 1_555 1_555
H42_24 C65_24 1_555 1_555
H43_24 C65_24 1_555 1_555
C66_24 N4_24 1_555 1_555
H44_24 C66_24 1_555 1_555
H45_24 C66_24 1_555 1_555
H46_24 C66_24 1_555 1_555
O47_24 C73_24 1_555 1_555
O48_24 C73_24 1_555 1_555
O68_2 C74_24 1_555 1_555
O50_24 Zn29_2 1_555 1_555
O51_24 C75_24 1_555 1_555
O52_24 C75_24 1_555 1_555
O53_24 Zn29_2 1_555 1_555
N5_24 C76_24 1_555 1_555
C67_24 C68_24 1_555 1_555
C68_24 H47_24 1_555 1_555
C69_24 C68_24 1_555 1_555
C70_24 C69_24 1_555 1_555
H48_24 C70_24 1_555 1_555
C71_24 C70_24 1_555 1_555
C72_24 C67_24 1_555 1_555
H49_24 C72_24 1_555 1_555
C73_24 C67_24 1_555 1_555
C74_24 O50_24 1_555 1_555
C75_24 C71_24 1_555 1_555
C76_24 O53_24 1_555 1_555
H50_24 C76_24 1_555 1_555
C77_24 N5_24 1_555 1_555
H51_24 C77_24 1_555 1_555
H52_24 C77_24 1_555 1_555
H53_24 C77_24 1_555 1_555
C78_24 N5_24 1_555 1_555
H54_24 C78_24 1_555 1_555
H55_24 C78_24 1_555 1_555
H56_24 C78_24 1_555 1_555
Zn32_35 O57_52 1_555 1_555
O54_20 Zn15_8 1_555 1_555
O55_20 Zn20_8 1_555 1_555
O70_35 C86_52 1_555 1_555
O57_52 C86_52 1_555 1_555
O71_10 C87_52 1_555 1_555
O74_10 C87_52 1_555 1_555
O60_52 Zn32_35 1_555 1_555
N6_52 C88_52 1_555 1_555
C79_52 C80_52 1_555 1_555
C80_52 H57_52 1_555 1_555
C81_52 C80_52 1_555 1_555
C82_52 C81_52 1_555 1_555
H58_52 C82_52 1_555 1_555
C83_52 C82_52 1_555 1_555
C84_52 C79_52 1_555 1_555
H59_52 C84_52 1_555 1_555
C85_52 O54_20 1_555 1_555
C86_52 C81_52 1_555 1_555
C87_52 C83_52 1_555 1_555
C88_52 O60_52 1_555 1_555
H60_52 C88_52 1_555 1_555
C89_52 N6_52 1_555 1_555
H61_52 C89_52 1_555 1_555
H62_52 C89_52 1_555 1_555
H63_52 C89_52 1_555 1_555
C90_52 N6_52 1_555 1_555
H64_52 C90_52 1_555 1_555
H65_52 C90_52 1_555 1_555
H66_52 C90_52 1_555 1_555
Zn15_9 O45_24 1_555 1_555
Zn14_30 O40_24 1_555 1_555
Zn17_9 O47_24 1_555 1_555
Zn16_27 O52_24 1_555 1_555
Zn20_9 O44_24 1_555 1_555
Zn19_30 O41_24 1_555 1_555
Zn22_9 O48_24 1_555 1_555
Zn21_27 O51_24 1_555 1_555
O72_20 Zn20_8 1_555 1_555
O75_20 Zn15_8 1_555 1_555
O79_52 Zn32_35 1_555 1_555
O84_52 Zn32_35 1_555 1_555
O32_16 C49_16 1_555 1_555
O36_16 C51_16 1_555 1_555
C43_16 C49_16 1_555 1_555
C47_16 C48_16 1_555 1_555
C47_16 C51_16 1_555 1_555
C57_24 C62_24 1_555 1_555
C59_24 C60_24 1_555 1_555
C69_24 C74_24 1_555 1_555
C71_24 C72_24 1_555 1_555
O55_20 C85_52 1_555 1_555
C79_52 C85_52 1_555 1_555
C83_52 C84_52 1_555 1_555
O24_32 Zn15_18 1_555 1_555
O25_32 Zn20_18 1_555 1_555
O61_20 Zn15_18 1_555 1_555
O63_20 Zn20_18 1_555 1_555
O73_20 Zn20_18 1_555 1_555
O76_20 Zn15_18 1_555 1_555
Zn12_41 O57_53 1_555 1_555
O56_41 C86_53 1_555 1_555
O57_53 C86_53 1_555 1_555
O72_17 C87_53 1_555 1_555
O75_17 C87_53 1_555 1_555
O60_53 Zn12_41 1_555 1_555
N6_53 C88_53 1_555 1_555
C79_53 C80_53 1_555 1_555
C80_53 H57_53 1_555 1_555
C81_53 C80_53 1_555 1_555
C82_53 C81_53 1_555 1_555
H58_53 C82_53 1_555 1_555
C83_53 C82_53 1_555 1_555
C84_53 C79_53 1_555 1_555
H59_53 C84_53 1_555 1_555
C85_53 O61_20 1_555 1_555
C86_53 C81_53 1_555 1_555
C87_53 C83_53 1_555 1_555
C88_53 O60_53 1_555 1_555
H60_53 C88_53 1_555 1_555
C89_53 N6_53 1_555 1_555
H61_53 C89_53 1_555 1_555
H62_53 C89_53 1_555 1_555
H63_53 C89_53 1_555 1_555
C90_53 N6_53 1_555 1_555
H64_53 C90_53 1_555 1_555
H65_53 C90_53 1_555 1_555
H66_53 C90_53 1_555 1_555
Zn32_41 O56_41 1_555 1_555
O70_41 Zn12_41 1_555 1_555
O79_53 Zn12_41 1_555 1_555
O84_53 Zn12_41 1_555 1_555
O63_20 C85_53 1_555 1_555
C79_53 C85_53 1_555 1_555
C83_53 C84_53 1_555 1_555
Zn12_42 O57_54 1_555 1_555
O56_42 C86_54 1_555 1_555
O57_54 C86_54 1_555 1_555
O72_20 C87_54 1_555 1_555
O75_20 C87_54 1_555 1_555
O60_54 Zn12_42 1_555 1_555
N6_54 C88_54 1_555 1_555
C79_54 C80_54 1_555 1_555
C80_54 H57_54 1_555 1_555
C81_54 C80_54 1_555 1_555
C82_54 C81_54 1_555 1_555
H58_54 C82_54 1_555 1_555
C83_54 C82_54 1_555 1_555
C84_54 C79_54 1_555 1_555
H59_54 C84_54 1_555 1_555
C85_54 O61_17 1_555 1_555
C86_54 C81_54 1_555 1_555
C87_54 C83_54 1_555 1_555
C88_54 O60_54 1_555 1_555
H60_54 C88_54 1_555 1_555
C89_54 N6_54 1_555 1_555
H61_54 C89_54 1_555 1_555
H62_54 C89_54 1_555 1_555
H63_54 C89_54 1_555 1_555
C90_54 N6_54 1_555 1_555
H64_54 C90_54 1_555 1_555
H65_54 C90_54 1_555 1_555
H66_54 C90_54 1_555 1_555
Zn32_42 O56_42 1_555 1_555
O70_42 Zn12_42 1_555 1_555
O79_54 Zn12_42 1_555 1_555
O84_54 Zn12_42 1_555 1_555
O63_17 C85_54 1_555 1_555
C79_54 C85_54 1_555 1_555
C83_54 C84_54 1_555 1_555
Zn12_43 O57_55 1_555 1_555
O56_43 C86_55 1_555 1_555
O57_55 C86_55 1_555 1_555
O72_18 C87_55 1_555 1_555
O75_18 C87_55 1_555 1_555
O60_55 Zn12_43 1_555 1_555
N6_55 C88_55 1_555 1_555
C79_55 C80_55 1_555 1_555
C80_55 H57_55 1_555 1_555
C81_55 C80_55 1_555 1_555
C82_55 C81_55 1_555 1_555
H58_55 C82_55 1_555 1_555
C83_55 C82_55 1_555 1_555
C84_55 C79_55 1_555 1_555
H59_55 C84_55 1_555 1_555
C85_55 O61_19 1_555 1_555
C86_55 C81_55 1_555 1_555
C87_55 C83_55 1_555 1_555
C88_55 O60_55 1_555 1_555
H60_55 C88_55 1_555 1_555
C89_55 N6_55 1_555 1_555
H61_55 C89_55 1_555 1_555
H62_55 C89_55 1_555 1_555
H63_55 C89_55 1_555 1_555
C90_55 N6_55 1_555 1_555
H64_55 C90_55 1_555 1_555
H65_55 C90_55 1_555 1_555
H66_55 C90_55 1_555 1_555
Zn32_43 O56_43 1_555 1_555
O70_43 Zn12_43 1_555 1_555
O79_55 Zn12_43 1_555 1_555
O84_55 Zn12_43 1_555 1_555
O63_19 C85_55 1_555 1_555
C79_55 C85_55 1_555 1_555
C83_55 C84_55 1_555 1_555
Zn12_44 O57_56 1_555 1_555
O56_44 C86_56 1_555 1_555
O57_56 C86_56 1_555 1_555
O72_19 C87_56 1_555 1_555
O75_19 C87_56 1_555 1_555
O60_56 Zn12_44 1_555 1_555
N6_56 C88_56 1_555 1_555
C79_56 C80_56 1_555 1_555
C80_56 H57_56 1_555 1_555
C81_56 C80_56 1_555 1_555
C82_56 C81_56 1_555 1_555
H58_56 C82_56 1_555 1_555
C83_56 C82_56 1_555 1_555
C84_56 C79_56 1_555 1_555
H59_56 C84_56 1_555 1_555
C85_56 O61_18 1_555 1_555
C86_56 C81_56 1_555 1_555
C87_56 C83_56 1_555 1_555
C88_56 O60_56 1_555 1_555
H60_56 C88_56 1_555 1_555
C89_56 N6_56 1_555 1_555
H61_56 C89_56 1_555 1_555
H62_56 C89_56 1_555 1_555
H63_56 C89_56 1_555 1_555
C90_56 N6_56 1_555 1_555
H64_56 C90_56 1_555 1_555
H65_56 C90_56 1_555 1_555
H66_56 C90_56 1_555 1_555
Zn32_44 O56_44 1_555 1_555
O70_44 Zn12_44 1_555 1_555
O79_56 Zn12_44 1_555 1_555
O84_56 Zn12_44 1_555 1_555
O63_18 C85_56 1_555 1_555
C79_56 C85_56 1_555 1_555
C83_56 C84_56 1_555 1_555
Zn32_20 O57_57 1_555 1_555
O70_20 C86_57 1_555 1_555
O57_57 C86_57 1_555 1_555
O73_20 C87_57 1_555 1_555
O76_20 C87_57 1_555 1_555
O60_57 Zn32_20 1_555 1_555
N6_57 C88_57 1_555 1_555
C79_57 C80_57 1_555 1_555
C80_57 H57_57 1_555 1_555
C81_57 C80_57 1_555 1_555
C82_57 C81_57 1_555 1_555
H58_57 C82_57 1_555 1_555
C83_57 C82_57 1_555 1_555
C84_57 C79_57 1_555 1_555
H59_57 C84_57 1_555 1_555
C85_57 O62_18 1_555 1_555
C86_57 C81_57 1_555 1_555
C87_57 C83_57 1_555 1_555
C88_57 O60_57 1_555 1_555
H60_57 C88_57 1_555 1_555
C89_57 N6_57 1_555 1_555
H61_57 C89_57 1_555 1_555
H62_57 C89_57 1_555 1_555
H63_57 C89_57 1_555 1_555
C90_57 N6_57 1_555 1_555
H64_57 C90_57 1_555 1_555
H65_57 C90_57 1_555 1_555
H66_57 C90_57 1_555 1_555
O79_57 Zn32_20 1_555 1_555
O84_57 Zn32_20 1_555 1_555
O64_18 C85_57 1_555 1_555
C79_57 C85_57 1_555 1_555
C83_57 C84_57 1_555 1_555
Zn32_19 O57_58 1_555 1_555
O70_19 C86_58 1_555 1_555
O57_58 C86_58 1_555 1_555
O73_18 C87_58 1_555 1_555
O76_18 C87_58 1_555 1_555
O60_58 Zn32_19 1_555 1_555
N6_58 C88_58 1_555 1_555
C79_58 C80_58 1_555 1_555
C80_58 H57_58 1_555 1_555
C81_58 C80_58 1_555 1_555
C82_58 C81_58 1_555 1_555
H58_58 C82_58 1_555 1_555
C83_58 C82_58 1_555 1_555
C84_58 C79_58 1_555 1_555
H59_58 C84_58 1_555 1_555
C85_58 O62_20 1_555 1_555
C86_58 C81_58 1_555 1_555
C87_58 C83_58 1_555 1_555
C88_58 O60_58 1_555 1_555
H60_58 C88_58 1_555 1_555
C89_58 N6_58 1_555 1_555
H61_58 C89_58 1_555 1_555
H62_58 C89_58 1_555 1_555
H63_58 C89_58 1_555 1_555
C90_58 N6_58 1_555 1_555
H64_58 C90_58 1_555 1_555
H65_58 C90_58 1_555 1_555
H66_58 C90_58 1_555 1_555
O79_58 Zn32_19 1_555 1_555
O84_58 Zn32_19 1_555 1_555
O64_20 C85_58 1_555 1_555
C79_58 C85_58 1_555 1_555
C83_58 C84_58 1_555 1_555
Zn32_17 O57_59 1_555 1_555
O70_17 C86_59 1_555 1_555
O57_59 C86_59 1_555 1_555
O73_17 C87_59 1_555 1_555
O76_17 C87_59 1_555 1_555
O60_59 Zn32_17 1_555 1_555
N6_59 C88_59 1_555 1_555
C79_59 C80_59 1_555 1_555
C80_59 H57_59 1_555 1_555
C81_59 C80_59 1_555 1_555
C82_59 C81_59 1_555 1_555
H58_59 C82_59 1_555 1_555
C83_59 C82_59 1_555 1_555
C84_59 C79_59 1_555 1_555
H59_59 C84_59 1_555 1_555
C85_59 O62_19 1_555 1_555
C86_59 C81_59 1_555 1_555
C87_59 C83_59 1_555 1_555
C88_59 O60_59 1_555 1_555
H60_59 C88_59 1_555 1_555
C89_59 N6_59 1_555 1_555
H61_59 C89_59 1_555 1_555
H62_59 C89_59 1_555 1_555
H63_59 C89_59 1_555 1_555
C90_59 N6_59 1_555 1_555
H64_59 C90_59 1_555 1_555
H65_59 C90_59 1_555 1_555
H66_59 C90_59 1_555 1_555
O79_59 Zn32_17 1_555 1_555
O84_59 Zn32_17 1_555 1_555
O64_19 C85_59 1_555 1_555
C79_59 C85_59 1_555 1_555
C83_59 C84_59 1_555 1_555
Zn32_18 O57_60 1_555 1_555
O70_18 C86_60 1_555 1_555
O57_60 C86_60 1_555 1_555
O73_19 C87_60 1_555 1_555
O76_19 C87_60 1_555 1_555
O60_60 Zn32_18 1_555 1_555
N6_60 C88_60 1_555 1_555
C79_60 C80_60 1_555 1_555
C80_60 H57_60 1_555 1_555
C81_60 C80_60 1_555 1_555
C82_60 C81_60 1_555 1_555
H58_60 C82_60 1_555 1_555
C83_60 C82_60 1_555 1_555
C84_60 C79_60 1_555 1_555
H59_60 C84_60 1_555 1_555
C85_60 O62_17 1_555 1_555
C86_60 C81_60 1_555 1_555
C87_60 C83_60 1_555 1_555
C88_60 O60_60 1_555 1_555
H60_60 C88_60 1_555 1_555
C89_60 N6_60 1_555 1_555
H61_60 C89_60 1_555 1_555
H62_60 C89_60 1_555 1_555
H63_60 C89_60 1_555 1_555
C90_60 N6_60 1_555 1_555
H64_60 C90_60 1_555 1_555
H65_60 C90_60 1_555 1_555
H66_60 C90_60 1_555 1_555
O79_60 Zn32_18 1_555 1_555
O84_60 Zn32_18 1_555 1_555
O64_17 C85_60 1_555 1_555
C79_60 C85_60 1_555 1_555
C83_60 C84_60 1_555 1_555
O37_29 Zn16_13 1_555 1_555
O38_29 Zn21_13 1_555 1_555
O62_21 Zn16_13 1_555 1_555
O64_21 Zn21_13 1_555 1_555
O71_11 Zn21_13 1_555 1_555
O74_11 Zn16_13 1_555 1_555
Zn17_13 O1_13 1_555 1_555
Zn22_13 O2_13 1_555 1_555
Zn23_7 O4_13 1_555 1_555
O1_13 C7_13 1_555 1_555
O2_13 C7_13 1_555 1_555
O68_10 C8_13 1_555 1_555
O4_13 C8_13 1_555 1_555
O5_13 C9_13 1_555 1_555
O6_13 C9_13 1_555 1_555
O9_33 Zn17_13 1_555 1_555
O10_33 Zn22_13 1_555 1_555
O11_13 Zn23_7 1_555 1_555
N1_13 C13_13 1_555 1_555
C1_13 C2_13 1_555 1_555
C2_13 H1_13 1_555 1_555
C3_13 C2_13 1_555 1_555
C4_13 C3_13 1_555 1_555
H2_13 C4_13 1_555 1_555
C5_13 C4_13 1_555 1_555
C6_13 C1_13 1_555 1_555
H3_13 C6_13 1_555 1_555
C7_13 C1_13 1_555 1_555
C8_13 C3_13 1_555 1_555
C9_13 C5_13 1_555 1_555
C13_13 O11_13 1_555 1_555
H5_13 C13_13 1_555 1_555
C14_13 N1_13 1_555 1_555
H6_13 C14_13 1_555 1_555
H7_13 C14_13 1_555 1_555
H8_13 C14_13 1_555 1_555
C15_13 N1_13 1_555 1_555
H9_13 C15_13 1_555 1_555
H10_13 C15_13 1_555 1_555
H11_13 C15_13 1_555 1_555
O24_33 Zn17_7 1_555 1_555
O25_33 Zn22_7 1_555 1_555
Zn16_14 O6_13 1_555 1_555
Zn21_14 O5_13 1_555 1_555
O37_30 Zn16_14 1_555 1_555
O38_30 Zn21_14 1_555 1_555
Zn32_25 O57_61 1_555 1_555
O54_21 Zn17_13 1_555 1_555
O55_21 Zn22_13 1_555 1_555
O70_25 C86_61 1_555 1_555
O57_61 C86_61 1_555 1_555
O58_11 C87_61 1_555 1_555
O59_11 C87_61 1_555 1_555
O60_61 Zn32_25 1_555 1_555
N6_61 C88_61 1_555 1_555
C79_61 C80_61 1_555 1_555
C80_61 H57_61 1_555 1_555
C81_61 C80_61 1_555 1_555
C82_61 C81_61 1_555 1_555
H58_61 C82_61 1_555 1_555
C83_61 C82_61 1_555 1_555
C84_61 C79_61 1_555 1_555
H59_61 C84_61 1_555 1_555
C85_61 O54_21 1_555 1_555
C86_61 C81_61 1_555 1_555
C87_61 C83_61 1_555 1_555
C88_61 O60_61 1_555 1_555
H60_61 C88_61 1_555 1_555
C89_61 N6_61 1_555 1_555
H61_61 C89_61 1_555 1_555
H62_61 C89_61 1_555 1_555
H63_61 C89_61 1_555 1_555
C90_61 N6_61 1_555 1_555
H64_61 C90_61 1_555 1_555
H65_61 C90_61 1_555 1_555
H66_61 C90_61 1_555 1_555
Zn16_10 O59_11 1_555 1_555
Zn21_10 O58_11 1_555 1_555
O61_21 Zn17_7 1_555 1_555
O63_21 Zn22_7 1_555 1_555
O72_21 Zn22_13 1_555 1_555
O73_21 Zn22_7 1_555 1_555
O75_21 Zn17_13 1_555 1_555
O76_21 Zn17_7 1_555 1_555
O79_61 Zn32_25 1_555 1_555
O84_61 Zn32_25 1_555 1_555
C5_13 C6_13 1_555 1_555
O55_21 C85_61 1_555 1_555
C79_61 C85_61 1_555 1_555
C83_61 C84_61 1_555 1_555
Zn17_16 O1_14 1_555 1_555
Zn22_16 O2_14 1_555 1_555
Zn23_5 O4_14 1_555 1_555
O1_14 C7_14 1_555 1_555
O2_14 C7_14 1_555 1_555
O68_9 C8_14 1_555 1_555
O4_14 C8_14 1_555 1_555
O5_14 C9_14 1_555 1_555
O6_14 C9_14 1_555 1_555
O9_34 Zn17_16 1_555 1_555
O10_34 Zn22_16 1_555 1_555
O11_14 Zn23_5 1_555 1_555
N1_14 C13_14 1_555 1_555
C1_14 C2_14 1_555 1_555
C2_14 H1_14 1_555 1_555
C3_14 C2_14 1_555 1_555
C4_14 C3_14 1_555 1_555
H2_14 C4_14 1_555 1_555
C5_14 C4_14 1_555 1_555
C6_14 C1_14 1_555 1_555
H3_14 C6_14 1_555 1_555
C7_14 C1_14 1_555 1_555
C8_14 C3_14 1_555 1_555
C9_14 C5_14 1_555 1_555
C13_14 O11_14 1_555 1_555
H5_14 C13_14 1_555 1_555
C14_14 N1_14 1_555 1_555
H6_14 C14_14 1_555 1_555
H7_14 C14_14 1_555 1_555
H8_14 C14_14 1_555 1_555
C15_14 N1_14 1_555 1_555
H9_14 C15_14 1_555 1_555
H10_14 C15_14 1_555 1_555
H11_14 C15_14 1_555 1_555
O24_34 Zn17_5 1_555 1_555
O25_34 Zn22_5 1_555 1_555
Zn16_9 O6_14 1_555 1_555
Zn21_9 O5_14 1_555 1_555
O37_31 Zn16_9 1_555 1_555
O38_31 Zn21_9 1_555 1_555
Zn32_26 O57_62 1_555 1_555
O54_22 Zn17_16 1_555 1_555
O55_22 Zn22_16 1_555 1_555
O70_26 C86_62 1_555 1_555
O57_62 C86_62 1_555 1_555
O71_11 C87_62 1_555 1_555
O74_11 C87_62 1_555 1_555
O60_62 Zn32_26 1_555 1_555
N6_62 C88_62 1_555 1_555
C79_62 C80_62 1_555 1_555
C80_62 H57_62 1_555 1_555
C81_62 C80_62 1_555 1_555
C82_62 C81_62 1_555 1_555
H58_62 C82_62 1_555 1_555
C83_62 C82_62 1_555 1_555
C84_62 C79_62 1_555 1_555
H59_62 C84_62 1_555 1_555
C85_62 O54_22 1_555 1_555
C86_62 C81_62 1_555 1_555
C87_62 C83_62 1_555 1_555
C88_62 O60_62 1_555 1_555
H60_62 C88_62 1_555 1_555
C89_62 N6_62 1_555 1_555
H61_62 C89_62 1_555 1_555
H62_62 C89_62 1_555 1_555
H63_62 C89_62 1_555 1_555
C90_62 N6_62 1_555 1_555
H64_62 C90_62 1_555 1_555
H65_62 C90_62 1_555 1_555
H66_62 C90_62 1_555 1_555
O61_22 Zn17_5 1_555 1_555
O63_22 Zn22_5 1_555 1_555
O72_22 Zn22_16 1_555 1_555
O73_22 Zn22_5 1_555 1_555
O75_22 Zn17_16 1_555 1_555
O76_22 Zn17_5 1_555 1_555
O79_62 Zn32_26 1_555 1_555
O84_62 Zn32_26 1_555 1_555
C5_14 C6_14 1_555 1_555
O55_22 C85_62 1_555 1_555
C79_62 C85_62 1_555 1_555
C83_62 C84_62 1_555 1_555
O37_32 Zn16_10 1_555 1_555
O38_32 Zn21_10 1_555 1_555
O62_22 Zn16_10 1_555 1_555
O64_22 Zn21_10 1_555 1_555
Zn17_15 O1_15 1_555 1_555
Zn22_15 O2_15 1_555 1_555
Zn23_8 O4_15 1_555 1_555
O1_15 C7_15 1_555 1_555
O2_15 C7_15 1_555 1_555
O68_11 C8_15 1_555 1_555
O4_15 C8_15 1_555 1_555
O5_15 C9_15 1_555 1_555
O6_15 C9_15 1_555 1_555
O9_35 Zn17_15 1_555 1_555
O10_35 Zn22_15 1_555 1_555
O11_15 Zn23_8 1_555 1_555
N1_15 C13_15 1_555 1_555
C1_15 C2_15 1_555 1_555
C2_15 H1_15 1_555 1_555
C3_15 C2_15 1_555 1_555
C4_15 C3_15 1_555 1_555
H2_15 C4_15 1_555 1_555
C5_15 C4_15 1_555 1_555
C6_15 C1_15 1_555 1_555
H3_15 C6_15 1_555 1_555
C7_15 C1_15 1_555 1_555
C8_15 C3_15 1_555 1_555
C9_15 C5_15 1_555 1_555
C13_15 O11_15 1_555 1_555
H5_15 C13_15 1_555 1_555
C14_15 N1_15 1_555 1_555
H6_15 C14_15 1_555 1_555
H7_15 C14_15 1_555 1_555
H8_15 C14_15 1_555 1_555
C15_15 N1_15 1_555 1_555
H9_15 C15_15 1_555 1_555
H10_15 C15_15 1_555 1_555
H11_15 C15_15 1_555 1_555
O24_35 Zn17_8 1_555 1_555
O25_35 Zn22_8 1_555 1_555
Zn16_15 O6_15 1_555 1_555
Zn21_15 O5_15 1_555 1_555
O37_33 Zn16_15 1_555 1_555
O38_33 Zn21_15 1_555 1_555
Zn32_28 O57_63 1_555 1_555
O54_23 Zn17_15 1_555 1_555
O55_23 Zn22_15 1_555 1_555
O70_28 C86_63 1_555 1_555
O57_63 C86_63 1_555 1_555
O58_12 C87_63 1_555 1_555
O59_12 C87_63 1_555 1_555
O60_63 Zn32_28 1_555 1_555
N6_63 C88_63 1_555 1_555
C79_63 C80_63 1_555 1_555
C80_63 H57_63 1_555 1_555
C81_63 C80_63 1_555 1_555
C82_63 C81_63 1_555 1_555
H58_63 C82_63 1_555 1_555
C83_63 C82_63 1_555 1_555
C84_63 C79_63 1_555 1_555
H59_63 C84_63 1_555 1_555
C85_63 O54_23 1_555 1_555
C86_63 C81_63 1_555 1_555
C87_63 C83_63 1_555 1_555
C88_63 O60_63 1_555 1_555
H60_63 C88_63 1_555 1_555
C89_63 N6_63 1_555 1_555
H61_63 C89_63 1_555 1_555
H62_63 C89_63 1_555 1_555
H63_63 C89_63 1_555 1_555
C90_63 N6_63 1_555 1_555
H64_63 C90_63 1_555 1_555
H65_63 C90_63 1_555 1_555
H66_63 C90_63 1_555 1_555
Zn16_11 O59_12 1_555 1_555
Zn21_11 O58_12 1_555 1_555
O61_23 Zn17_8 1_555 1_555
O63_23 Zn22_8 1_555 1_555
O72_23 Zn22_15 1_555 1_555
O73_23 Zn22_8 1_555 1_555
O75_23 Zn17_15 1_555 1_555
O76_23 Zn17_8 1_555 1_555
O79_63 Zn32_28 1_555 1_555
O84_63 Zn32_28 1_555 1_555
C5_15 C6_15 1_555 1_555
O55_23 C85_63 1_555 1_555
C79_63 C85_63 1_555 1_555
C83_63 C84_63 1_555 1_555
O37_34 Zn16_16 1_555 1_555
O38_34 Zn21_16 1_555 1_555
O62_23 Zn16_16 1_555 1_555
O64_23 Zn21_16 1_555 1_555
O71_12 Zn21_16 1_555 1_555
O74_12 Zn16_16 1_555 1_555
O37_35 Zn16_11 1_555 1_555
O38_35 Zn21_11 1_555 1_555
O62_24 Zn16_11 1_555 1_555
O64_24 Zn21_11 1_555 1_555
Zn17_14 O1_16 1_555 1_555
Zn22_14 O2_16 1_555 1_555
Zn23_6 O4_16 1_555 1_555
O1_16 C7_16 1_555 1_555
O2_16 C7_16 1_555 1_555
O68_12 C8_16 1_555 1_555
O4_16 C8_16 1_555 1_555
O5_16 C9_16 1_555 1_555
O6_16 C9_16 1_555 1_555
O9_36 Zn17_14 1_555 1_555
O10_36 Zn22_14 1_555 1_555
O11_16 Zn23_6 1_555 1_555
N1_16 C13_16 1_555 1_555
C1_16 C2_16 1_555 1_555
C2_16 H1_16 1_555 1_555
C3_16 C2_16 1_555 1_555
C4_16 C3_16 1_555 1_555
H2_16 C4_16 1_555 1_555
C5_16 C4_16 1_555 1_555
C6_16 C1_16 1_555 1_555
H3_16 C6_16 1_555 1_555
C7_16 C1_16 1_555 1_555
C8_16 C3_16 1_555 1_555
C9_16 C5_16 1_555 1_555
C13_16 O11_16 1_555 1_555
H5_16 C13_16 1_555 1_555
C14_16 N1_16 1_555 1_555
H6_16 C14_16 1_555 1_555
H7_16 C14_16 1_555 1_555
H8_16 C14_16 1_555 1_555
C15_16 N1_16 1_555 1_555
H9_16 C15_16 1_555 1_555
H10_16 C15_16 1_555 1_555
H11_16 C15_16 1_555 1_555
O24_36 Zn17_6 1_555 1_555
O25_36 Zn22_6 1_555 1_555
Zn16_12 O6_16 1_555 1_555
Zn21_12 O5_16 1_555 1_555
O37_36 Zn16_12 1_555 1_555
O38_36 Zn21_12 1_555 1_555
Zn32_27 O57_64 1_555 1_555
O54_24 Zn17_14 1_555 1_555
O55_24 Zn22_14 1_555 1_555
O70_27 C86_64 1_555 1_555
O57_64 C86_64 1_555 1_555
O71_12 C87_64 1_555 1_555
O74_12 C87_64 1_555 1_555
O60_64 Zn32_27 1_555 1_555
N6_64 C88_64 1_555 1_555
C79_64 C80_64 1_555 1_555
C80_64 H57_64 1_555 1_555
C81_64 C80_64 1_555 1_555
C82_64 C81_64 1_555 1_555
H58_64 C82_64 1_555 1_555
C83_64 C82_64 1_555 1_555
C84_64 C79_64 1_555 1_555
H59_64 C84_64 1_555 1_555
C85_64 O54_24 1_555 1_555
C86_64 C81_64 1_555 1_555
C87_64 C83_64 1_555 1_555
C88_64 O60_64 1_555 1_555
H60_64 C88_64 1_555 1_555
C89_64 N6_64 1_555 1_555
H61_64 C89_64 1_555 1_555
H62_64 C89_64 1_555 1_555
H63_64 C89_64 1_555 1_555
C90_64 N6_64 1_555 1_555
H64_64 C90_64 1_555 1_555
H65_64 C90_64 1_555 1_555
H66_64 C90_64 1_555 1_555
O61_24 Zn17_6 1_555 1_555
O63_24 Zn22_6 1_555 1_555
O72_24 Zn22_14 1_555 1_555
O73_24 Zn22_6 1_555 1_555
O75_24 Zn17_14 1_555 1_555
O76_24 Zn17_6 1_555 1_555
O79_64 Zn32_27 1_555 1_555
O84_64 Zn32_27 1_555 1_555
C5_16 C6_16 1_555 1_555
O55_24 C85_64 1_555 1_555
C79_64 C85_64 1_555 1_555
C83_64 C84_64 1_555 1_555
Zn32_11 O57_65 1_555 1_555
O70_11 C86_65 1_555 1_555
O57_65 C86_65 1_555 1_555
O72_21 C87_65 1_555 1_555
O75_21 C87_65 1_555 1_555
O60_65 Zn32_11 1_555 1_555
N6_65 C88_65 1_555 1_555
C79_65 C80_65 1_555 1_555
C80_65 H57_65 1_555 1_555
C81_65 C80_65 1_555 1_555
C82_65 C81_65 1_555 1_555
H58_65 C82_65 1_555 1_555
C83_65 C82_65 1_555 1_555
C84_65 C79_65 1_555 1_555
H59_65 C84_65 1_555 1_555
C85_65 O61_24 1_555 1_555
C86_65 C81_65 1_555 1_555
C87_65 C83_65 1_555 1_555
C88_65 O60_65 1_555 1_555
H60_65 C88_65 1_555 1_555
C89_65 N6_65 1_555 1_555
H61_65 C89_65 1_555 1_555
H62_65 C89_65 1_555 1_555
H63_65 C89_65 1_555 1_555
C90_65 N6_65 1_555 1_555
H64_65 C90_65 1_555 1_555
H65_65 C90_65 1_555 1_555
H66_65 C90_65 1_555 1_555
O79_65 Zn32_11 1_555 1_555
O84_65 Zn32_11 1_555 1_555
O63_24 C85_65 1_555 1_555
C79_65 C85_65 1_555 1_555
C83_65 C84_65 1_555 1_555
Zn32_12 O57_66 1_555 1_555
O70_12 C86_66 1_555 1_555
O57_66 C86_66 1_555 1_555
O72_24 C87_66 1_555 1_555
O75_24 C87_66 1_555 1_555
O60_66 Zn32_12 1_555 1_555
N6_66 C88_66 1_555 1_555
C79_66 C80_66 1_555 1_555
C80_66 H57_66 1_555 1_555
C81_66 C80_66 1_555 1_555
C82_66 C81_66 1_555 1_555
H58_66 C82_66 1_555 1_555
C83_66 C82_66 1_555 1_555
C84_66 C79_66 1_555 1_555
H59_66 C84_66 1_555 1_555
C85_66 O61_21 1_555 1_555
C86_66 C81_66 1_555 1_555
C87_66 C83_66 1_555 1_555
C88_66 O60_66 1_555 1_555
H60_66 C88_66 1_555 1_555
C89_66 N6_66 1_555 1_555
H61_66 C89_66 1_555 1_555
H62_66 C89_66 1_555 1_555
H63_66 C89_66 1_555 1_555
C90_66 N6_66 1_555 1_555
H64_66 C90_66 1_555 1_555
H65_66 C90_66 1_555 1_555
H66_66 C90_66 1_555 1_555
O79_66 Zn32_12 1_555 1_555
O84_66 Zn32_12 1_555 1_555
O63_21 C85_66 1_555 1_555
C79_66 C85_66 1_555 1_555
C83_66 C84_66 1_555 1_555
Zn32_10 O57_67 1_555 1_555
O70_10 C86_67 1_555 1_555
O57_67 C86_67 1_555 1_555
O72_22 C87_67 1_555 1_555
O75_22 C87_67 1_555 1_555
O60_67 Zn32_10 1_555 1_555
N6_67 C88_67 1_555 1_555
C79_67 C80_67 1_555 1_555
C80_67 H57_67 1_555 1_555
C81_67 C80_67 1_555 1_555
C82_67 C81_67 1_555 1_555
H58_67 C82_67 1_555 1_555
C83_67 C82_67 1_555 1_555
C84_67 C79_67 1_555 1_555
H59_67 C84_67 1_555 1_555
C85_67 O61_23 1_555 1_555
C86_67 C81_67 1_555 1_555
C87_67 C83_67 1_555 1_555
C88_67 O60_67 1_555 1_555
H60_67 C88_67 1_555 1_555
C89_67 N6_67 1_555 1_555
H61_67 C89_67 1_555 1_555
H62_67 C89_67 1_555 1_555
H63_67 C89_67 1_555 1_555
C90_67 N6_67 1_555 1_555
H64_67 C90_67 1_555 1_555
H65_67 C90_67 1_555 1_555
H66_67 C90_67 1_555 1_555
O79_67 Zn32_10 1_555 1_555
O84_67 Zn32_10 1_555 1_555
O63_23 C85_67 1_555 1_555
C79_67 C85_67 1_555 1_555
C83_67 C84_67 1_555 1_555
Zn32_9 O57_68 1_555 1_555
O70_9 C86_68 1_555 1_555
O57_68 C86_68 1_555 1_555
O72_23 C87_68 1_555 1_555
O75_23 C87_68 1_555 1_555
O60_68 Zn32_9 1_555 1_555
N6_68 C88_68 1_555 1_555
C79_68 C80_68 1_555 1_555
C80_68 H57_68 1_555 1_555
C81_68 C80_68 1_555 1_555
C82_68 C81_68 1_555 1_555
H58_68 C82_68 1_555 1_555
C83_68 C82_68 1_555 1_555
C84_68 C79_68 1_555 1_555
H59_68 C84_68 1_555 1_555
C85_68 O61_22 1_555 1_555
C86_68 C81_68 1_555 1_555
C87_68 C83_68 1_555 1_555
C88_68 O60_68 1_555 1_555
H60_68 C88_68 1_555 1_555
C89_68 N6_68 1_555 1_555
H61_68 C89_68 1_555 1_555
H62_68 C89_68 1_555 1_555
H63_68 C89_68 1_555 1_555
C90_68 N6_68 1_555 1_555
H64_68 C90_68 1_555 1_555
H65_68 C90_68 1_555 1_555
H66_68 C90_68 1_555 1_555
O79_68 Zn32_9 1_555 1_555
O84_68 Zn32_9 1_555 1_555
O63_22 C85_68 1_555 1_555
C79_68 C85_68 1_555 1_555
C83_68 C84_68 1_555 1_555
Zn12_45 O57_69 1_555 1_555
O56_45 C86_69 1_555 1_555
O57_69 C86_69 1_555 1_555
O73_24 C87_69 1_555 1_555
O76_24 C87_69 1_555 1_555
O60_69 Zn12_45 1_555 1_555
N6_69 C88_69 1_555 1_555
C79_69 C80_69 1_555 1_555
C80_69 H57_69 1_555 1_555
C81_69 C80_69 1_555 1_555
C82_69 C81_69 1_555 1_555
H58_69 C82_69 1_555 1_555
C83_69 C82_69 1_555 1_555
C84_69 C79_69 1_555 1_555
H59_69 C84_69 1_555 1_555
C85_69 O62_22 1_555 1_555
C86_69 C81_69 1_555 1_555
C87_69 C83_69 1_555 1_555
C88_69 O60_69 1_555 1_555
H60_69 C88_69 1_555 1_555
C89_69 N6_69 1_555 1_555
H61_69 C89_69 1_555 1_555
H62_69 C89_69 1_555 1_555
H63_69 C89_69 1_555 1_555
C90_69 N6_69 1_555 1_555
H64_69 C90_69 1_555 1_555
H65_69 C90_69 1_555 1_555
H66_69 C90_69 1_555 1_555
Zn32_45 O56_45 1_555 1_555
O70_45 Zn12_45 1_555 1_555
O79_69 Zn12_45 1_555 1_555
O84_69 Zn12_45 1_555 1_555
O64_22 C85_69 1_555 1_555
C79_69 C85_69 1_555 1_555
C83_69 C84_69 1_555 1_555
Zn12_46 O57_70 1_555 1_555
O56_46 C86_70 1_555 1_555
O57_70 C86_70 1_555 1_555
O73_22 C87_70 1_555 1_555
O76_22 C87_70 1_555 1_555
O60_70 Zn12_46 1_555 1_555
N6_70 C88_70 1_555 1_555
C79_70 C80_70 1_555 1_555
C80_70 H57_70 1_555 1_555
C81_70 C80_70 1_555 1_555
C82_70 C81_70 1_555 1_555
H58_70 C82_70 1_555 1_555
C83_70 C82_70 1_555 1_555
C84_70 C79_70 1_555 1_555
H59_70 C84_70 1_555 1_555
C85_70 O62_24 1_555 1_555
C86_70 C81_70 1_555 1_555
C87_70 C83_70 1_555 1_555
C88_70 O60_70 1_555 1_555
H60_70 C88_70 1_555 1_555
C89_70 N6_70 1_555 1_555
H61_70 C89_70 1_555 1_555
H62_70 C89_70 1_555 1_555
H63_70 C89_70 1_555 1_555
C90_70 N6_70 1_555 1_555
H64_70 C90_70 1_555 1_555
H65_70 C90_70 1_555 1_555
H66_70 C90_70 1_555 1_555
Zn32_46 O56_46 1_555 1_555
O70_46 Zn12_46 1_555 1_555
O79_70 Zn12_46 1_555 1_555
O84_70 Zn12_46 1_555 1_555
O64_24 C85_70 1_555 1_555
C79_70 C85_70 1_555 1_555
C83_70 C84_70 1_555 1_555
Zn12_47 O57_71 1_555 1_555
O56_47 C86_71 1_555 1_555
O57_71 C86_71 1_555 1_555
O73_21 C87_71 1_555 1_555
O76_21 C87_71 1_555 1_555
O60_71 Zn12_47 1_555 1_555
N6_71 C88_71 1_555 1_555
C79_71 C80_71 1_555 1_555
C80_71 H57_71 1_555 1_555
C81_71 C80_71 1_555 1_555
C82_71 C81_71 1_555 1_555
H58_71 C82_71 1_555 1_555
C83_71 C82_71 1_555 1_555
C84_71 C79_71 1_555 1_555
H59_71 C84_71 1_555 1_555
C85_71 O62_23 1_555 1_555
C86_71 C81_71 1_555 1_555
C87_71 C83_71 1_555 1_555
C88_71 O60_71 1_555 1_555
H60_71 C88_71 1_555 1_555
C89_71 N6_71 1_555 1_555
H61_71 C89_71 1_555 1_555
H62_71 C89_71 1_555 1_555
H63_71 C89_71 1_555 1_555
C90_71 N6_71 1_555 1_555
H64_71 C90_71 1_555 1_555
H65_71 C90_71 1_555 1_555
H66_71 C90_71 1_555 1_555
Zn32_47 O56_47 1_555 1_555
O70_47 Zn12_47 1_555 1_555
O79_71 Zn12_47 1_555 1_555
O84_71 Zn12_47 1_555 1_555
O64_23 C85_71 1_555 1_555
C79_71 C85_71 1_555 1_555
C83_71 C84_71 1_555 1_555
Zn12_48 O57_72 1_555 1_555
O56_48 C86_72 1_555 1_555
O57_72 C86_72 1_555 1_555
O73_23 C87_72 1_555 1_555
O76_23 C87_72 1_555 1_555
O60_72 Zn12_48 1_555 1_555
N6_72 C88_72 1_555 1_555
C79_72 C80_72 1_555 1_555
C80_72 H57_72 1_555 1_555
C81_72 C80_72 1_555 1_555
C82_72 C81_72 1_555 1_555
H58_72 C82_72 1_555 1_555
C83_72 C82_72 1_555 1_555
C84_72 C79_72 1_555 1_555
H59_72 C84_72 1_555 1_555
C85_72 O62_21 1_555 1_555
C86_72 C81_72 1_555 1_555
C87_72 C83_72 1_555 1_555
C88_72 O60_72 1_555 1_555
H60_72 C88_72 1_555 1_555
C89_72 N6_72 1_555 1_555
H61_72 C89_72 1_555 1_555
H62_72 C89_72 1_555 1_555
H63_72 C89_72 1_555 1_555
C90_72 N6_72 1_555 1_555
H64_72 C90_72 1_555 1_555
H65_72 C90_72 1_555 1_555
H66_72 C90_72 1_555 1_555
Zn32_48 O56_48 1_555 1_555
O70_48 Zn12_48 1_555 1_555
O79_72 Zn12_48 1_555 1_555
O84_72 Zn12_48 1_555 1_555
O64_21 C85_72 1_555 1_555
C79_72 C85_72 1_555 1_555
C83_72 C84_72 1_555 1_555
O37_37 Zn14_29 1_555 1_555
O38_37 Zn19_29 1_555 1_555
O62_25 Zn14_29 1_555 1_555
O64_25 Zn19_29 1_555 1_555
O71_13 Zn19_29 1_555 1_555
O74_13 Zn14_29 1_555 1_555
O9_37 Zn14_17 1_555 1_555
O10_37 Zn19_17 1_555 1_555
O24_37 Zn15_9 1_555 1_555
O25_37 Zn20_9 1_555 1_555
O37_38 Zn14_30 1_555 1_555
O38_38 Zn19_30 1_555 1_555
O61_25 Zn15_9 1_555 1_555
O63_25 Zn20_9 1_555 1_555
O73_25 Zn20_9 1_555 1_555
O76_25 Zn15_9 1_555 1_555
O9_38 Zn14_18 1_555 1_555
O10_38 Zn19_18 1_555 1_555
Zn32_13 O57_73 1_555 1_555
O54_25 Zn14_18 1_555 1_555
O55_25 Zn19_18 1_555 1_555
O70_13 C86_73 1_555 1_555
O57_73 C86_73 1_555 1_555
O58_13 C87_73 1_555 1_555
O59_13 C87_73 1_555 1_555
O60_73 Zn32_13 1_555 1_555
N6_73 C88_73 1_555 1_555
C79_73 C80_73 1_555 1_555
C80_73 H57_73 1_555 1_555
C81_73 C80_73 1_555 1_555
C82_73 C81_73 1_555 1_555
H58_73 C82_73 1_555 1_555
C83_73 C82_73 1_555 1_555
C84_73 C79_73 1_555 1_555
H59_73 C84_73 1_555 1_555
C85_73 O54_25 1_555 1_555
C86_73 C81_73 1_555 1_555
C87_73 C83_73 1_555 1_555
C88_73 O60_73 1_555 1_555
H60_73 C88_73 1_555 1_555
C89_73 N6_73 1_555 1_555
H61_73 C89_73 1_555 1_555
H62_73 C89_73 1_555 1_555
H63_73 C89_73 1_555 1_555
C90_73 N6_73 1_555 1_555
H64_73 C90_73 1_555 1_555
H65_73 C90_73 1_555 1_555
H66_73 C90_73 1_555 1_555
Zn14_26 O59_13 1_555 1_555
Zn19_26 O58_13 1_555 1_555
O72_25 Zn19_18 1_555 1_555
O75_25 Zn14_18 1_555 1_555
O79_73 Zn32_13 1_555 1_555
O84_73 Zn32_13 1_555 1_555
O55_25 C85_73 1_555 1_555
C79_73 C85_73 1_555 1_555
C83_73 C84_73 1_555 1_555
O9_39 Zn14_23 1_555 1_555
O10_39 Zn19_23 1_555 1_555
Zn32_14 O57_74 1_555 1_555
O54_26 Zn14_23 1_555 1_555
O55_26 Zn19_23 1_555 1_555
O70_14 C86_74 1_555 1_555
O57_74 C86_74 1_555 1_555
O71_13 C87_74 1_555 1_555
O74_13 C87_74 1_555 1_555
O60_74 Zn32_14 1_555 1_555
N6_74 C88_74 1_555 1_555
C79_74 C80_74 1_555 1_555
C80_74 H57_74 1_555 1_555
C81_74 C80_74 1_555 1_555
C82_74 C81_74 1_555 1_555
H58_74 C82_74 1_555 1_555
C83_74 C82_74 1_555 1_555
C84_74 C79_74 1_555 1_555
H59_74 C84_74 1_555 1_555
C85_74 O54_26 1_555 1_555
C86_74 C81_74 1_555 1_555
C87_74 C83_74 1_555 1_555
C88_74 O60_74 1_555 1_555
H60_74 C88_74 1_555 1_555
C89_74 N6_74 1_555 1_555
H61_74 C89_74 1_555 1_555
H62_74 C89_74 1_555 1_555
H63_74 C89_74 1_555 1_555
C90_74 N6_74 1_555 1_555
H64_74 C90_74 1_555 1_555
H65_74 C90_74 1_555 1_555
H66_74 C90_74 1_555 1_555
O72_26 Zn19_23 1_555 1_555
O75_26 Zn14_23 1_555 1_555
O79_74 Zn32_14 1_555 1_555
O84_74 Zn32_14 1_555 1_555
O55_26 C85_74 1_555 1_555
C79_74 C85_74 1_555 1_555
C83_74 C84_74 1_555 1_555
O9_40 Zn14_24 1_555 1_555
O10_40 Zn19_24 1_555 1_555
O24_38 Zn15_12 1_555 1_555
O25_38 Zn20_12 1_555 1_555
O37_39 Zn14_25 1_555 1_555
O38_39 Zn19_25 1_555 1_555
O61_26 Zn15_12 1_555 1_555
O63_26 Zn20_12 1_555 1_555
O73_26 Zn20_12 1_555 1_555
O76_26 Zn15_12 1_555 1_555
O37_40 Zn14_26 1_555 1_555
O38_40 Zn19_26 1_555 1_555
O62_26 Zn14_26 1_555 1_555
O64_26 Zn19_26 1_555 1_555
O9_41 Zn14_19 1_555 1_555
O10_41 Zn19_19 1_555 1_555
O24_39 Zn15_10 1_555 1_555
O25_39 Zn20_10 1_555 1_555
O37_41 Zn14_27 1_555 1_555
O38_41 Zn19_27 1_555 1_555
O61_27 Zn15_10 1_555 1_555
O63_27 Zn20_10 1_555 1_555
O73_27 Zn20_10 1_555 1_555
O76_27 Zn15_10 1_555 1_555
O9_42 Zn14_20 1_555 1_555
O10_42 Zn19_20 1_555 1_555
Zn32_16 O57_75 1_555 1_555
O54_27 Zn14_20 1_555 1_555
O55_27 Zn19_20 1_555 1_555
O70_16 C86_75 1_555 1_555
O57_75 C86_75 1_555 1_555
O58_14 C87_75 1_555 1_555
O59_14 C87_75 1_555 1_555
O60_75 Zn32_16 1_555 1_555
N6_75 C88_75 1_555 1_555
C79_75 C80_75 1_555 1_555
C80_75 H57_75 1_555 1_555
C81_75 C80_75 1_555 1_555
C82_75 C81_75 1_555 1_555
H58_75 C82_75 1_555 1_555
C83_75 C82_75 1_555 1_555
C84_75 C79_75 1_555 1_555
H59_75 C84_75 1_555 1_555
C85_75 O54_27 1_555 1_555
C86_75 C81_75 1_555 1_555
C87_75 C83_75 1_555 1_555
C88_75 O60_75 1_555 1_555
H60_75 C88_75 1_555 1_555
C89_75 N6_75 1_555 1_555
H61_75 C89_75 1_555 1_555
H62_75 C89_75 1_555 1_555
H63_75 C89_75 1_555 1_555
C90_75 N6_75 1_555 1_555
H64_75 C90_75 1_555 1_555
H65_75 C90_75 1_555 1_555
H66_75 C90_75 1_555 1_555
Zn14_31 O59_14 1_555 1_555
Zn19_31 O58_14 1_555 1_555
O72_27 Zn19_20 1_555 1_555
O75_27 Zn14_20 1_555 1_555
O79_75 Zn32_16 1_555 1_555
O84_75 Zn32_16 1_555 1_555
O55_27 C85_75 1_555 1_555
C79_75 C85_75 1_555 1_555
C83_75 C84_75 1_555 1_555
O37_42 Zn14_28 1_555 1_555
O38_42 Zn19_28 1_555 1_555
O62_27 Zn14_28 1_555 1_555
O64_27 Zn19_28 1_555 1_555
O71_14 Zn19_28 1_555 1_555
O74_14 Zn14_28 1_555 1_555
O37_43 Zn14_31 1_555 1_555
O38_43 Zn19_31 1_555 1_555
O62_28 Zn14_31 1_555 1_555
O64_28 Zn19_31 1_555 1_555
O9_43 Zn14_21 1_555 1_555
O10_43 Zn19_21 1_555 1_555
Zn32_15 O57_76 1_555 1_555
O54_28 Zn14_21 1_555 1_555
O55_28 Zn19_21 1_555 1_555
O70_15 C86_76 1_555 1_555
O57_76 C86_76 1_555 1_555
O71_14 C87_76 1_555 1_555
O74_14 C87_76 1_555 1_555
O60_76 Zn32_15 1_555 1_555
N6_76 C88_76 1_555 1_555
C79_76 C80_76 1_555 1_555
C80_76 H57_76 1_555 1_555
C81_76 C80_76 1_555 1_555
C82_76 C81_76 1_555 1_555
H58_76 C82_76 1_555 1_555
C83_76 C82_76 1_555 1_555
C84_76 C79_76 1_555 1_555
H59_76 C84_76 1_555 1_555
C85_76 O54_28 1_555 1_555
C86_76 C81_76 1_555 1_555
C87_76 C83_76 1_555 1_555
C88_76 O60_76 1_555 1_555
H60_76 C88_76 1_555 1_555
C89_76 N6_76 1_555 1_555
H61_76 C89_76 1_555 1_555
H62_76 C89_76 1_555 1_555
H63_76 C89_76 1_555 1_555
C90_76 N6_76 1_555 1_555
H64_76 C90_76 1_555 1_555
H65_76 C90_76 1_555 1_555
H66_76 C90_76 1_555 1_555
O72_28 Zn19_21 1_555 1_555
O75_28 Zn14_21 1_555 1_555
O79_76 Zn32_15 1_555 1_555
O84_76 Zn32_15 1_555 1_555
O55_28 C85_76 1_555 1_555
C79_76 C85_76 1_555 1_555
C83_76 C84_76 1_555 1_555
O9_44 Zn14_22 1_555 1_555
O10_44 Zn19_22 1_555 1_555
O24_40 Zn15_11 1_555 1_555
O25_40 Zn20_11 1_555 1_555
O37_44 Zn14_32 1_555 1_555
O38_44 Zn19_32 1_555 1_555
O61_28 Zn15_11 1_555 1_555
O63_28 Zn20_11 1_555 1_555
O73_28 Zn20_11 1_555 1_555
O76_28 Zn15_11 1_555 1_555
Zn32_47 O57_77 1_555 1_555
O70_47 C86_77 1_555 1_555
O57_77 C86_77 1_555 1_555
O72_25 C87_77 1_555 1_555
O75_25 C87_77 1_555 1_555
O60_77 Zn32_47 1_555 1_555
N6_77 C88_77 1_555 1_555
C79_77 C80_77 1_555 1_555
C80_77 H57_77 1_555 1_555
C81_77 C80_77 1_555 1_555
C82_77 C81_77 1_555 1_555
H58_77 C82_77 1_555 1_555
C83_77 C82_77 1_555 1_555
C84_77 C79_77 1_555 1_555
H59_77 C84_77 1_555 1_555
C85_77 O61_28 1_555 1_555
C86_77 C81_77 1_555 1_555
C87_77 C83_77 1_555 1_555
C88_77 O60_77 1_555 1_555
H60_77 C88_77 1_555 1_555
C89_77 N6_77 1_555 1_555
H61_77 C89_77 1_555 1_555
H62_77 C89_77 1_555 1_555
H63_77 C89_77 1_555 1_555
C90_77 N6_77 1_555 1_555
H64_77 C90_77 1_555 1_555
H65_77 C90_77 1_555 1_555
H66_77 C90_77 1_555 1_555
O79_77 Zn32_47 1_555 1_555
O84_77 Zn32_47 1_555 1_555
O63_28 C85_77 1_555 1_555
C79_77 C85_77 1_555 1_555
C83_77 C84_77 1_555 1_555
Zn32_48 O57_78 1_555 1_555
O70_48 C86_78 1_555 1_555
O57_78 C86_78 1_555 1_555
O72_28 C87_78 1_555 1_555
O75_28 C87_78 1_555 1_555
O60_78 Zn32_48 1_555 1_555
N6_78 C88_78 1_555 1_555
C79_78 C80_78 1_555 1_555
C80_78 H57_78 1_555 1_555
C81_78 C80_78 1_555 1_555
C82_78 C81_78 1_555 1_555
H58_78 C82_78 1_555 1_555
C83_78 C82_78 1_555 1_555
C84_78 C79_78 1_555 1_555
H59_78 C84_78 1_555 1_555
C85_78 O61_25 1_555 1_555
C86_78 C81_78 1_555 1_555
C87_78 C83_78 1_555 1_555
C88_78 O60_78 1_555 1_555
H60_78 C88_78 1_555 1_555
C89_78 N6_78 1_555 1_555
H61_78 C89_78 1_555 1_555
H62_78 C89_78 1_555 1_555
H63_78 C89_78 1_555 1_555
C90_78 N6_78 1_555 1_555
H64_78 C90_78 1_555 1_555
H65_78 C90_78 1_555 1_555
H66_78 C90_78 1_555 1_555
O79_78 Zn32_48 1_555 1_555
O84_78 Zn32_48 1_555 1_555
O63_25 C85_78 1_555 1_555
C79_78 C85_78 1_555 1_555
C83_78 C84_78 1_555 1_555
Zn32_46 O57_79 1_555 1_555
O70_46 C86_79 1_555 1_555
O57_79 C86_79 1_555 1_555
O72_26 C87_79 1_555 1_555
O75_26 C87_79 1_555 1_555
O60_79 Zn32_46 1_555 1_555
N6_79 C88_79 1_555 1_555
C79_79 C80_79 1_555 1_555
C80_79 H57_79 1_555 1_555
C81_79 C80_79 1_555 1_555
C82_79 C81_79 1_555 1_555
H58_79 C82_79 1_555 1_555
C83_79 C82_79 1_555 1_555
C84_79 C79_79 1_555 1_555
H59_79 C84_79 1_555 1_555
C85_79 O61_27 1_555 1_555
C86_79 C81_79 1_555 1_555
C87_79 C83_79 1_555 1_555
C88_79 O60_79 1_555 1_555
H60_79 C88_79 1_555 1_555
C89_79 N6_79 1_555 1_555
H61_79 C89_79 1_555 1_555
H62_79 C89_79 1_555 1_555
H63_79 C89_79 1_555 1_555
C90_79 N6_79 1_555 1_555
H64_79 C90_79 1_555 1_555
H65_79 C90_79 1_555 1_555
H66_79 C90_79 1_555 1_555
O79_79 Zn32_46 1_555 1_555
O84_79 Zn32_46 1_555 1_555
O63_27 C85_79 1_555 1_555
C79_79 C85_79 1_555 1_555
C83_79 C84_79 1_555 1_555
Zn32_45 O57_80 1_555 1_555
O70_45 C86_80 1_555 1_555
O57_80 C86_80 1_555 1_555
O72_27 C87_80 1_555 1_555
O75_27 C87_80 1_555 1_555
O60_80 Zn32_45 1_555 1_555
N6_80 C88_80 1_555 1_555
C79_80 C80_80 1_555 1_555
C80_80 H57_80 1_555 1_555
C81_80 C80_80 1_555 1_555
C82_80 C81_80 1_555 1_555
H58_80 C82_80 1_555 1_555
C83_80 C82_80 1_555 1_555
C84_80 C79_80 1_555 1_555
H59_80 C84_80 1_555 1_555
C85_80 O61_26 1_555 1_555
C86_80 C81_80 1_555 1_555
C87_80 C83_80 1_555 1_555
C88_80 O60_80 1_555 1_555
H60_80 C88_80 1_555 1_555
C89_80 N6_80 1_555 1_555
H61_80 C89_80 1_555 1_555
H62_80 C89_80 1_555 1_555
H63_80 C89_80 1_555 1_555
C90_80 N6_80 1_555 1_555
H64_80 C90_80 1_555 1_555
H65_80 C90_80 1_555 1_555
H66_80 C90_80 1_555 1_555
O79_80 Zn32_45 1_555 1_555
O84_80 Zn32_45 1_555 1_555
O63_26 C85_80 1_555 1_555
C79_80 C85_80 1_555 1_555
C83_80 C84_80 1_555 1_555
Zn32_40 O57_81 1_555 1_555
O70_40 C86_81 1_555 1_555
O57_81 C86_81 1_555 1_555
O73_28 C87_81 1_555 1_555
O76_28 C87_81 1_555 1_555
O60_81 Zn32_40 1_555 1_555
N6_81 C88_81 1_555 1_555
C79_81 C80_81 1_555 1_555
C80_81 H57_81 1_555 1_555
C81_81 C80_81 1_555 1_555
C82_81 C81_81 1_555 1_555
H58_81 C82_81 1_555 1_555
C83_81 C82_81 1_555 1_555
C84_81 C79_81 1_555 1_555
H59_81 C84_81 1_555 1_555
C85_81 O62_26 1_555 1_555
C86_81 C81_81 1_555 1_555
C87_81 C83_81 1_555 1_555
C88_81 O60_81 1_555 1_555
H60_81 C88_81 1_555 1_555
C89_81 N6_81 1_555 1_555
H61_81 C89_81 1_555 1_555
H62_81 C89_81 1_555 1_555
H63_81 C89_81 1_555 1_555
C90_81 N6_81 1_555 1_555
H64_81 C90_81 1_555 1_555
H65_81 C90_81 1_555 1_555
H66_81 C90_81 1_555 1_555
O79_81 Zn32_40 1_555 1_555
O84_81 Zn32_40 1_555 1_555
O64_26 C85_81 1_555 1_555
C79_81 C85_81 1_555 1_555
C83_81 C84_81 1_555 1_555
Zn32_39 O57_82 1_555 1_555
O70_39 C86_82 1_555 1_555
O57_82 C86_82 1_555 1_555
O73_26 C87_82 1_555 1_555
O76_26 C87_82 1_555 1_555
O60_82 Zn32_39 1_555 1_555
N6_82 C88_82 1_555 1_555
C79_82 C80_82 1_555 1_555
C80_82 H57_82 1_555 1_555
C81_82 C80_82 1_555 1_555
C82_82 C81_82 1_555 1_555
H58_82 C82_82 1_555 1_555
C83_82 C82_82 1_555 1_555
C84_82 C79_82 1_555 1_555
H59_82 C84_82 1_555 1_555
C85_82 O62_28 1_555 1_555
C86_82 C81_82 1_555 1_555
C87_82 C83_82 1_555 1_555
C88_82 O60_82 1_555 1_555
H60_82 C88_82 1_555 1_555
C89_82 N6_82 1_555 1_555
H61_82 C89_82 1_555 1_555
H62_82 C89_82 1_555 1_555
H63_82 C89_82 1_555 1_555
C90_82 N6_82 1_555 1_555
H64_82 C90_82 1_555 1_555
H65_82 C90_82 1_555 1_555
H66_82 C90_82 1_555 1_555
O79_82 Zn32_39 1_555 1_555
O84_82 Zn32_39 1_555 1_555
O64_28 C85_82 1_555 1_555
C79_82 C85_82 1_555 1_555
C83_82 C84_82 1_555 1_555
Zn32_37 O57_83 1_555 1_555
O70_37 C86_83 1_555 1_555
O57_83 C86_83 1_555 1_555
O73_25 C87_83 1_555 1_555
O76_25 C87_83 1_555 1_555
O60_83 Zn32_37 1_555 1_555
N6_83 C88_83 1_555 1_555
C79_83 C80_83 1_555 1_555
C80_83 H57_83 1_555 1_555
C81_83 C80_83 1_555 1_555
C82_83 C81_83 1_555 1_555
H58_83 C82_83 1_555 1_555
C83_83 C82_83 1_555 1_555
C84_83 C79_83 1_555 1_555
H59_83 C84_83 1_555 1_555
C85_83 O62_27 1_555 1_555
C86_83 C81_83 1_555 1_555
C87_83 C83_83 1_555 1_555
C88_83 O60_83 1_555 1_555
H60_83 C88_83 1_555 1_555
C89_83 N6_83 1_555 1_555
H61_83 C89_83 1_555 1_555
H62_83 C89_83 1_555 1_555
H63_83 C89_83 1_555 1_555
C90_83 N6_83 1_555 1_555
H64_83 C90_83 1_555 1_555
H65_83 C90_83 1_555 1_555
H66_83 C90_83 1_555 1_555
O79_83 Zn32_37 1_555 1_555
O84_83 Zn32_37 1_555 1_555
O64_27 C85_83 1_555 1_555
C79_83 C85_83 1_555 1_555
C83_83 C84_83 1_555 1_555
Zn32_38 O57_84 1_555 1_555
O70_38 C86_84 1_555 1_555
O57_84 C86_84 1_555 1_555
O73_27 C87_84 1_555 1_555
O76_27 C87_84 1_555 1_555
O60_84 Zn32_38 1_555 1_555
N6_84 C88_84 1_555 1_555
C79_84 C80_84 1_555 1_555
C80_84 H57_84 1_555 1_555
C81_84 C80_84 1_555 1_555
C82_84 C81_84 1_555 1_555
H58_84 C82_84 1_555 1_555
C83_84 C82_84 1_555 1_555
C84_84 C79_84 1_555 1_555
H59_84 C84_84 1_555 1_555
C85_84 O62_25 1_555 1_555
C86_84 C81_84 1_555 1_555
C87_84 C83_84 1_555 1_555
C88_84 O60_84 1_555 1_555
H60_84 C88_84 1_555 1_555
C89_84 N6_84 1_555 1_555
H61_84 C89_84 1_555 1_555
H62_84 C89_84 1_555 1_555
H63_84 C89_84 1_555 1_555
C90_84 N6_84 1_555 1_555
H64_84 C90_84 1_555 1_555
H65_84 C90_84 1_555 1_555
H66_84 C90_84 1_555 1_555
O79_84 Zn32_38 1_555 1_555
O84_84 Zn32_38 1_555 1_555
O64_25 C85_84 1_555 1_555
C79_84 C85_84 1_555 1_555
C83_84 C84_84 1_555 1_555
O9_45 Zn17_9 1_555 1_555
O10_45 Zn22_9 1_555 1_555
O24_41 Zn16_17 1_555 1_555
O25_41 Zn21_17 1_555 1_555
O37_45 Zn16_27 1_555 1_555
O38_45 Zn21_27 1_555 1_555
Zn32 O57_85 1_555 1_555
O54_29 Zn17_9 1_555 1_555
O55_29 Zn22_9 1_555 1_555
O70 C86_85 1_555 1_555
O57_85 C86_85 1_555 1_555
O58_15 C87_85 1_555 1_555
O59_15 C87_85 1_555 1_555
O60_85 Zn32 1_555 1_555
N6_85 C88_85 1_555 1_555
C79_85 C80_85 1_555 1_555
C80_85 H57_85 1_555 1_555
C81_85 C80_85 1_555 1_555
C82_85 C81_85 1_555 1_555
H58_85 C82_85 1_555 1_555
C83_85 C82_85 1_555 1_555
C84_85 C79_85 1_555 1_555
H59_85 C84_85 1_555 1_555
C85_85 O54_29 1_555 1_555
C86_85 C81_85 1_555 1_555
C87_85 C83_85 1_555 1_555
C88_85 O60_85 1_555 1_555
H60_85 C88_85 1_555 1_555
C89_85 N6_85 1_555 1_555
H61_85 C89_85 1_555 1_555
H62_85 C89_85 1_555 1_555
H63_85 C89_85 1_555 1_555
C90_85 N6_85 1_555 1_555
H64_85 C90_85 1_555 1_555
H65_85 C90_85 1_555 1_555
H66_85 C90_85 1_555 1_555
Zn16_25 O59_15 1_555 1_555
Zn21_25 O58_15 1_555 1_555
O62_29 Zn16_27 1_555 1_555
O64_29 Zn21_27 1_555 1_555
O71_15 Zn21_27 1_555 1_555
O72_29 Zn22_9 1_555 1_555
O74_15 Zn16_27 1_555 1_555
O75_29 Zn17_9 1_555 1_555
O79_85 Zn32 1_555 1_555
O84_85 Zn32 1_555 1_555
O55_29 C85_85 1_555 1_555
C79_85 C85_85 1_555 1_555
C83_85 C84_85 1_555 1_555
O24_42 Zn16_18 1_555 1_555
O25_42 Zn21_18 1_555 1_555
O61_29 Zn16_18 1_555 1_555
O63_29 Zn21_18 1_555 1_555
O73_29 Zn21_18 1_555 1_555
O76_29 Zn16_18 1_555 1_555
O9_46 Zn17_12 1_555 1_555
O10_46 Zn22_12 1_555 1_555
O24_43 Zn16_23 1_555 1_555
O25_43 Zn21_23 1_555 1_555
O37_46 Zn16_25 1_555 1_555
O38_46 Zn21_25 1_555 1_555
Zn32_2 O57_86 1_555 1_555
O54_30 Zn17_12 1_555 1_555
O55_30 Zn22_12 1_555 1_555
O70_2 C86_86 1_555 1_555
O57_86 C86_86 1_555 1_555
O71_15 C87_86 1_555 1_555
O74_15 C87_86 1_555 1_555
O60_86 Zn32_2 1_555 1_555
N6_86 C88_86 1_555 1_555
C79_86 C80_86 1_555 1_555
C80_86 H57_86 1_555 1_555
C81_86 C80_86 1_555 1_555
C82_86 C81_86 1_555 1_555
H58_86 C82_86 1_555 1_555
C83_86 C82_86 1_555 1_555
C84_86 C79_86 1_555 1_555
H59_86 C84_86 1_555 1_555
C85_86 O54_30 1_555 1_555
C86_86 C81_86 1_555 1_555
C87_86 C83_86 1_555 1_555
C88_86 O60_86 1_555 1_555
H60_86 C88_86 1_555 1_555
C89_86 N6_86 1_555 1_555
H61_86 C89_86 1_555 1_555
H62_86 C89_86 1_555 1_555
H63_86 C89_86 1_555 1_555
C90_86 N6_86 1_555 1_555
H64_86 C90_86 1_555 1_555
H65_86 C90_86 1_555 1_555
H66_86 C90_86 1_555 1_555
O62_30 Zn16_25 1_555 1_555
O64_30 Zn21_25 1_555 1_555
O72_30 Zn22_12 1_555 1_555
O75_30 Zn17_12 1_555 1_555
O79_86 Zn32_2 1_555 1_555
O84_86 Zn32_2 1_555 1_555
O55_30 C85_86 1_555 1_555
C79_86 C85_86 1_555 1_555
C83_86 C84_86 1_555 1_555
O24_44 Zn16_24 1_555 1_555
O25_44 Zn21_24 1_555 1_555
O61_30 Zn16_24 1_555 1_555
O63_30 Zn21_24 1_555 1_555
O73_30 Zn21_24 1_555 1_555
O76_30 Zn16_24 1_555 1_555
O24_45 Zn16_21 1_555 1_555
O25_45 Zn21_21 1_555 1_555
O61_31 Zn16_21 1_555 1_555
O63_31 Zn21_21 1_555 1_555
O73_31 Zn21_21 1_555 1_555
O76_31 Zn16_21 1_555 1_555
O9_47 Zn17_11 1_555 1_555
O10_47 Zn22_11 1_555 1_555
O24_46 Zn16_22 1_555 1_555
O25_46 Zn21_22 1_555 1_555
O37_47 Zn16_28 1_555 1_555
O38_47 Zn21_28 1_555 1_555
Zn32_4 O57_87 1_555 1_555
O54_31 Zn17_11 1_555 1_555
O55_31 Zn22_11 1_555 1_555
O70_4 C86_87 1_555 1_555
O57_87 C86_87 1_555 1_555
O58_16 C87_87 1_555 1_555
O59_16 C87_87 1_555 1_555
O60_87 Zn32_4 1_555 1_555
N6_87 C88_87 1_555 1_555
C79_87 C80_87 1_555 1_555
C80_87 H57_87 1_555 1_555
C81_87 C80_87 1_555 1_555
C82_87 C81_87 1_555 1_555
H58_87 C82_87 1_555 1_555
C83_87 C82_87 1_555 1_555
C84_87 C79_87 1_555 1_555
H59_87 C84_87 1_555 1_555
C85_87 O54_31 1_555 1_555
C86_87 C81_87 1_555 1_555
C87_87 C83_87 1_555 1_555
C88_87 O60_87 1_555 1_555
H60_87 C88_87 1_555 1_555
C89_87 N6_87 1_555 1_555
H61_87 C89_87 1_555 1_555
H62_87 C89_87 1_555 1_555
H63_87 C89_87 1_555 1_555
C90_87 N6_87 1_555 1_555
H64_87 C90_87 1_555 1_555
H65_87 C90_87 1_555 1_555
H66_87 C90_87 1_555 1_555
Zn16_26 O59_16 1_555 1_555
Zn21_26 O58_16 1_555 1_555
O62_31 Zn16_28 1_555 1_555
O64_31 Zn21_28 1_555 1_555
O71_16 Zn21_28 1_555 1_555
O72_31 Zn22_11 1_555 1_555
O74_16 Zn16_28 1_555 1_555
O75_31 Zn17_11 1_555 1_555
O79_87 Zn32_4 1_555 1_555
O84_87 Zn32_4 1_555 1_555
O55_31 C85_87 1_555 1_555
C79_87 C85_87 1_555 1_555
C83_87 C84_87 1_555 1_555
O24_47 Zn16_19 1_555 1_555
O25_47 Zn21_19 1_555 1_555
O61_32 Zn16_19 1_555 1_555
O63_32 Zn21_19 1_555 1_555
O73_32 Zn21_19 1_555 1_555
O76_32 Zn16_19 1_555 1_555
O9_48 Zn17_10 1_555 1_555
O10_48 Zn22_10 1_555 1_555
O24_48 Zn16_20 1_555 1_555
O25_48 Zn21_20 1_555 1_555
O37_48 Zn16_26 1_555 1_555
O38_48 Zn21_26 1_555 1_555
Zn32_3 O57_88 1_555 1_555
O54_32 Zn17_10 1_555 1_555
O55_32 Zn22_10 1_555 1_555
O70_3 C86_88 1_555 1_555
O57_88 C86_88 1_555 1_555
O71_16 C87_88 1_555 1_555
O74_16 C87_88 1_555 1_555
O60_88 Zn32_3 1_555 1_555
N6_88 C88_88 1_555 1_555
C79_88 C80_88 1_555 1_555
C80_88 H57_88 1_555 1_555
C81_88 C80_88 1_555 1_555
C82_88 C81_88 1_555 1_555
H58_88 C82_88 1_555 1_555
C83_88 C82_88 1_555 1_555
C84_88 C79_88 1_555 1_555
H59_88 C84_88 1_555 1_555
C85_88 O54_32 1_555 1_555
C86_88 C81_88 1_555 1_555
C87_88 C83_88 1_555 1_555
C88_88 O60_88 1_555 1_555
H60_88 C88_88 1_555 1_555
C89_88 N6_88 1_555 1_555
H61_88 C89_88 1_555 1_555
H62_88 C89_88 1_555 1_555
H63_88 C89_88 1_555 1_555
C90_88 N6_88 1_555 1_555
H64_88 C90_88 1_555 1_555
H65_88 C90_88 1_555 1_555
H66_88 C90_88 1_555 1_555
O62_32 Zn16_26 1_555 1_555
O64_32 Zn21_26 1_555 1_555
O72_32 Zn22_10 1_555 1_555
O75_32 Zn17_10 1_555 1_555
O79_88 Zn32_3 1_555 1_555
O84_88 Zn32_3 1_555 1_555
O55_32 C85_88 1_555 1_555
C79_88 C85_88 1_555 1_555
C83_88 C84_88 1_555 1_555
Zn32_31 O57_89 1_555 1_555
O70_31 C86_89 1_555 1_555
O57_89 C86_89 1_555 1_555
O72_29 C87_89 1_555 1_555
O75_29 C87_89 1_555 1_555
O60_89 Zn32_31 1_555 1_555
N6_89 C88_89 1_555 1_555
C79_89 C80_89 1_555 1_555
C80_89 H57_89 1_555 1_555
C81_89 C80_89 1_555 1_555
C82_89 C81_89 1_555 1_555
H58_89 C82_89 1_555 1_555
C83_89 C82_89 1_555 1_555
C84_89 C79_89 1_555 1_555
H59_89 C84_89 1_555 1_555
C85_89 O61_32 1_555 1_555
C86_89 C81_89 1_555 1_555
C87_89 C83_89 1_555 1_555
C88_89 O60_89 1_555 1_555
H60_89 C88_89 1_555 1_555
C89_89 N6_89 1_555 1_555
H61_89 C89_89 1_555 1_555
H62_89 C89_89 1_555 1_555
H63_89 C89_89 1_555 1_555
C90_89 N6_89 1_555 1_555
H64_89 C90_89 1_555 1_555
H65_89 C90_89 1_555 1_555
H66_89 C90_89 1_555 1_555
O79_89 Zn32_31 1_555 1_555
O84_89 Zn32_31 1_555 1_555
O63_32 C85_89 1_555 1_555
C79_89 C85_89 1_555 1_555
C83_89 C84_89 1_555 1_555
Zn32_32 O57_90 1_555 1_555
O70_32 C86_90 1_555 1_555
O57_90 C86_90 1_555 1_555
O72_32 C87_90 1_555 1_555
O75_32 C87_90 1_555 1_555
O60_90 Zn32_32 1_555 1_555
N6_90 C88_90 1_555 1_555
C79_90 C80_90 1_555 1_555
C80_90 H57_90 1_555 1_555
C81_90 C80_90 1_555 1_555
C82_90 C81_90 1_555 1_555
H58_90 C82_90 1_555 1_555
C83_90 C82_90 1_555 1_555
C84_90 C79_90 1_555 1_555
H59_90 C84_90 1_555 1_555
C85_90 O61_29 1_555 1_555
C86_90 C81_90 1_555 1_555
C87_90 C83_90 1_555 1_555
C88_90 O60_90 1_555 1_555
H60_90 C88_90 1_555 1_555
C89_90 N6_90 1_555 1_555
H61_90 C89_90 1_555 1_555
H62_90 C89_90 1_555 1_555
H63_90 C89_90 1_555 1_555
C90_90 N6_90 1_555 1_555
H64_90 C90_90 1_555 1_555
H65_90 C90_90 1_555 1_555
H66_90 C90_90 1_555 1_555
O79_90 Zn32_32 1_555 1_555
O84_90 Zn32_32 1_555 1_555
O63_29 C85_90 1_555 1_555
C79_90 C85_90 1_555 1_555
C83_90 C84_90 1_555 1_555
Zn32_30 O57_91 1_555 1_555
O70_30 C86_91 1_555 1_555
O57_91 C86_91 1_555 1_555
O72_30 C87_91 1_555 1_555
O75_30 C87_91 1_555 1_555
O60_91 Zn32_30 1_555 1_555
N6_91 C88_91 1_555 1_555
C79_91 C80_91 1_555 1_555
C80_91 H57_91 1_555 1_555
C81_91 C80_91 1_555 1_555
C82_91 C81_91 1_555 1_555
H58_91 C82_91 1_555 1_555
C83_91 C82_91 1_555 1_555
C84_91 C79_91 1_555 1_555
H59_91 C84_91 1_555 1_555
C85_91 O61_31 1_555 1_555
C86_91 C81_91 1_555 1_555
C87_91 C83_91 1_555 1_555
C88_91 O60_91 1_555 1_555
H60_91 C88_91 1_555 1_555
C89_91 N6_91 1_555 1_555
H61_91 C89_91 1_555 1_555
H62_91 C89_91 1_555 1_555
H63_91 C89_91 1_555 1_555
C90_91 N6_91 1_555 1_555
H64_91 C90_91 1_555 1_555
H65_91 C90_91 1_555 1_555
H66_91 C90_91 1_555 1_555
O79_91 Zn32_30 1_555 1_555
O84_91 Zn32_30 1_555 1_555
O63_31 C85_91 1_555 1_555
C79_91 C85_91 1_555 1_555
C83_91 C84_91 1_555 1_555
Zn32_29 O57_92 1_555 1_555
O70_29 C86_92 1_555 1_555
O57_92 C86_92 1_555 1_555
O72_31 C87_92 1_555 1_555
O75_31 C87_92 1_555 1_555
O60_92 Zn32_29 1_555 1_555
N6_92 C88_92 1_555 1_555
C79_92 C80_92 1_555 1_555
C80_92 H57_92 1_555 1_555
C81_92 C80_92 1_555 1_555
C82_92 C81_92 1_555 1_555
H58_92 C82_92 1_555 1_555
C83_92 C82_92 1_555 1_555
C84_92 C79_92 1_555 1_555
H59_92 C84_92 1_555 1_555
C85_92 O61_30 1_555 1_555
C86_92 C81_92 1_555 1_555
C87_92 C83_92 1_555 1_555
C88_92 O60_92 1_555 1_555
H60_92 C88_92 1_555 1_555
C89_92 N6_92 1_555 1_555
H61_92 C89_92 1_555 1_555
H62_92 C89_92 1_555 1_555
H63_92 C89_92 1_555 1_555
C90_92 N6_92 1_555 1_555
H64_92 C90_92 1_555 1_555
H65_92 C90_92 1_555 1_555
H66_92 C90_92 1_555 1_555
O79_92 Zn32_29 1_555 1_555
O84_92 Zn32_29 1_555 1_555
O63_30 C85_92 1_555 1_555
C79_92 C85_92 1_555 1_555
C83_92 C84_92 1_555 1_555
Zn32_44 O57_93 1_555 1_555
O70_44 C86_93 1_555 1_555
O57_93 C86_93 1_555 1_555
O73_32 C87_93 1_555 1_555
O76_32 C87_93 1_555 1_555
O60_93 Zn32_44 1_555 1_555
N6_93 C88_93 1_555 1_555
C79_93 C80_93 1_555 1_555
C80_93 H57_93 1_555 1_555
C81_93 C80_93 1_555 1_555
C82_93 C81_93 1_555 1_555
H58_93 C82_93 1_555 1_555
C83_93 C82_93 1_555 1_555
C84_93 C79_93 1_555 1_555
H59_93 C84_93 1_555 1_555
C85_93 O62_30 1_555 1_555
C86_93 C81_93 1_555 1_555
C87_93 C83_93 1_555 1_555
C88_93 O60_93 1_555 1_555
H60_93 C88_93 1_555 1_555
C89_93 N6_93 1_555 1_555
H61_93 C89_93 1_555 1_555
H62_93 C89_93 1_555 1_555
H63_93 C89_93 1_555 1_555
C90_93 N6_93 1_555 1_555
H64_93 C90_93 1_555 1_555
H65_93 C90_93 1_555 1_555
H66_93 C90_93 1_555 1_555
O79_93 Zn32_44 1_555 1_555
O84_93 Zn32_44 1_555 1_555
O64_30 C85_93 1_555 1_555
C79_93 C85_93 1_555 1_555
C83_93 C84_93 1_555 1_555
Zn32_43 O57_94 1_555 1_555
O70_43 C86_94 1_555 1_555
O57_94 C86_94 1_555 1_555
O73_30 C87_94 1_555 1_555
O76_30 C87_94 1_555 1_555
O60_94 Zn32_43 1_555 1_555
N6_94 C88_94 1_555 1_555
C79_94 C80_94 1_555 1_555
C80_94 H57_94 1_555 1_555
C81_94 C80_94 1_555 1_555
C82_94 C81_94 1_555 1_555
H58_94 C82_94 1_555 1_555
C83_94 C82_94 1_555 1_555
C84_94 C79_94 1_555 1_555
H59_94 C84_94 1_555 1_555
C85_94 O62_32 1_555 1_555
C86_94 C81_94 1_555 1_555
C87_94 C83_94 1_555 1_555
C88_94 O60_94 1_555 1_555
H60_94 C88_94 1_555 1_555
C89_94 N6_94 1_555 1_555
H61_94 C89_94 1_555 1_555
H62_94 C89_94 1_555 1_555
H63_94 C89_94 1_555 1_555
C90_94 N6_94 1_555 1_555
H64_94 C90_94 1_555 1_555
H65_94 C90_94 1_555 1_555
H66_94 C90_94 1_555 1_555
O79_94 Zn32_43 1_555 1_555
O84_94 Zn32_43 1_555 1_555
O64_32 C85_94 1_555 1_555
C79_94 C85_94 1_555 1_555
C83_94 C84_94 1_555 1_555
Zn32_41 O57_95 1_555 1_555
O70_41 C86_95 1_555 1_555
O57_95 C86_95 1_555 1_555
O73_29 C87_95 1_555 1_555
O76_29 C87_95 1_555 1_555
O60_95 Zn32_41 1_555 1_555
N6_95 C88_95 1_555 1_555
C79_95 C80_95 1_555 1_555
C80_95 H57_95 1_555 1_555
C81_95 C80_95 1_555 1_555
C82_95 C81_95 1_555 1_555
H58_95 C82_95 1_555 1_555
C83_95 C82_95 1_555 1_555
C84_95 C79_95 1_555 1_555
H59_95 C84_95 1_555 1_555
C85_95 O62_31 1_555 1_555
C86_95 C81_95 1_555 1_555
C87_95 C83_95 1_555 1_555
C88_95 O60_95 1_555 1_555
H60_95 C88_95 1_555 1_555
C89_95 N6_95 1_555 1_555
H61_95 C89_95 1_555 1_555
H62_95 C89_95 1_555 1_555
H63_95 C89_95 1_555 1_555
C90_95 N6_95 1_555 1_555
H64_95 C90_95 1_555 1_555
H65_95 C90_95 1_555 1_555
H66_95 C90_95 1_555 1_555
O79_95 Zn32_41 1_555 1_555
O84_95 Zn32_41 1_555 1_555
O64_31 C85_95 1_555 1_555
C79_95 C85_95 1_555 1_555
C83_95 C84_95 1_555 1_555
Zn32_42 O57_96 1_555 1_555
O70_42 C86_96 1_555 1_555
O57_96 C86_96 1_555 1_555
O73_31 C87_96 1_555 1_555
O76_31 C87_96 1_555 1_555
O60_96 Zn32_42 1_555 1_555
N6_96 C88_96 1_555 1_555
C79_96 C80_96 1_555 1_555
C80_96 H57_96 1_555 1_555
C81_96 C80_96 1_555 1_555
C82_96 C81_96 1_555 1_555
H58_96 C82_96 1_555 1_555
C83_96 C82_96 1_555 1_555
C84_96 C79_96 1_555 1_555
H59_96 C84_96 1_555 1_555
C85_96 O62_29 1_555 1_555
C86_96 C81_96 1_555 1_555
C87_96 C83_96 1_555 1_555
C88_96 O60_96 1_555 1_555
H60_96 C88_96 1_555 1_555
C89_96 N6_96 1_555 1_555
H61_96 C89_96 1_555 1_555
H62_96 C89_96 1_555 1_555
H63_96 C89_96 1_555 1_555
C90_96 N6_96 1_555 1_555
H64_96 C90_96 1_555 1_555
H65_96 C90_96 1_555 1_555
H66_96 C90_96 1_555 1_555
O79_96 Zn32_42 1_555 1_555
O84_96 Zn32_42 1_555 1_555
O64_29 C85_96 1_555 1_555
C79_96 C85_96 1_555 1_555
C83_96 C84_96 1_555 1_555
O84_88 C12_9 1_555 1_555
C10_9 C11_9 1_555 1_555
C11_9 H4_9 1_555 1_555
C12_9 O79_3 1_555 1_555
O79_36 C18_9 1_555 1_555
O84_90 C18_9 1_555 1_555
C16_9 C11_9 1_555 1_555
C17_9 C16_9 1_555 1_555
H12_9 C17_9 1_555 1_555
C18_9 C16_9 1_555 1_555
O79_53 C21_9 1_555 1_555
O84_95 C21_9 1_555 1_555
C19_9 C17_9 1_555 1_555
C20_9 C10_9 1_555 1_555
H13_9 C20_9 1_555 1_555
C21_9 C19_9 1_555 1_555
O84_45 C33_25 1_555 1_555
C31_25 C32_25 1_555 1_555
C32_25 H17_25 1_555 1_555
C33_25 O79_8 1_555 1_555
O79_49 C39_25 1_555 1_555
O84_37 C39_25 1_555 1_555
C37_25 C32_25 1_555 1_555
C38_25 C37_25 1_555 1_555
H25_25 C38_25 1_555 1_555
C39_25 C37_25 1_555 1_555
O79_83 C42_25 1_555 1_555
O84_41 C42_25 1_555 1_555
C40_25 C38_25 1_555 1_555
C41_25 C31_25 1_555 1_555
H26_25 C41_25 1_555 1_555
C42_25 C40_25 1_555 1_555
C10_9 C12_9 1_555 1_555
C19_9 C20_9 1_555 1_555
C31_25 C33_25 1_555 1_555
C40_25 C41_25 1_555 1_555
O84_87 C12_10 1_555 1_555
C10_10 C11_10 1_555 1_555
C11_10 H4_10 1_555 1_555
C12_10 O79_4 1_555 1_555
O79_33 C18_10 1_555 1_555
O84_92 C18_10 1_555 1_555
C16_10 C11_10 1_555 1_555
C17_10 C16_10 1_555 1_555
H12_10 C17_10 1_555 1_555
C18_10 C16_10 1_555 1_555
O79_55 C21_10 1_555 1_555
O84_94 C21_10 1_555 1_555
C19_10 C17_10 1_555 1_555
C20_10 C10_10 1_555 1_555
H13_10 C20_10 1_555 1_555
C21_10 C19_10 1_555 1_555
O84_48 C33_26 1_555 1_555
C31_26 C32_26 1_555 1_555
C32_26 H17_26 1_555 1_555
C33_26 O79_6 1_555 1_555
O79_50 C39_26 1_555 1_555
O84_38 C39_26 1_555 1_555
C37_26 C32_26 1_555 1_555
C38_26 C37_26 1_555 1_555
H25_26 C38_26 1_555 1_555
C39_26 C37_26 1_555 1_555
O79_82 C42_26 1_555 1_555
O84_43 C42_26 1_555 1_555
C40_26 C38_26 1_555 1_555
C41_26 C31_26 1_555 1_555
H26_26 C41_26 1_555 1_555
C42_26 C40_26 1_555 1_555
C10_10 C12_10 1_555 1_555
C19_10 C20_10 1_555 1_555
C31_26 C33_26 1_555 1_555
C40_26 C41_26 1_555 1_555
O84_85 C12_11 1_555 1_555
C10_11 C11_11 1_555 1_555
C11_11 H4_11 1_555 1_555
C12_11 O79 1_555 1_555
O79_35 C18_11 1_555 1_555
O84_89 C18_11 1_555 1_555
C16_11 C11_11 1_555 1_555
C17_11 C16_11 1_555 1_555
H12_11 C17_11 1_555 1_555
C18_11 C16_11 1_555 1_555
O79_56 C21_11 1_555 1_555
O84_93 C21_11 1_555 1_555
C19_11 C17_11 1_555 1_555
C20_11 C10_11 1_555 1_555
H13_11 C20_11 1_555 1_555
C21_11 C19_11 1_555 1_555
O84_47 C33_27 1_555 1_555
C31_27 C32_27 1_555 1_555
C32_27 H17_27 1_555 1_555
C33_27 O79_5 1_555 1_555
O79_51 C39_27 1_555 1_555
O84_40 C39_27 1_555 1_555
C37_27 C32_27 1_555 1_555
C38_27 C37_27 1_555 1_555
H25_27 C38_27 1_555 1_555
C39_27 C37_27 1_555 1_555
O79_84 C42_27 1_555 1_555
O84_42 C42_27 1_555 1_555
C40_27 C38_27 1_555 1_555
C41_27 C31_27 1_555 1_555
H26_27 C41_27 1_555 1_555
C42_27 C40_27 1_555 1_555
C10_11 C12_11 1_555 1_555
C19_11 C20_11 1_555 1_555
C31_27 C33_27 1_555 1_555
C40_27 C41_27 1_555 1_555
O84_86 C12_12 1_555 1_555
C10_12 C11_12 1_555 1_555
C11_12 H4_12 1_555 1_555
C12_12 O79_2 1_555 1_555
O79_34 C18_12 1_555 1_555
O84_91 C18_12 1_555 1_555
C16_12 C11_12 1_555 1_555
C17_12 C16_12 1_555 1_555
H12_12 C17_12 1_555 1_555
C18_12 C16_12 1_555 1_555
O79_54 C21_12 1_555 1_555
O84_96 C21_12 1_555 1_555
C19_12 C17_12 1_555 1_555
C20_12 C10_12 1_555 1_555
H13_12 C20_12 1_555 1_555
C21_12 C19_12 1_555 1_555
O84_46 C33_28 1_555 1_555
C31_28 C32_28 1_555 1_555
C32_28 H17_28 1_555 1_555
C33_28 O79_7 1_555 1_555
O79_52 C39_28 1_555 1_555
O84_39 C39_28 1_555 1_555
C37_28 C32_28 1_555 1_555
C38_28 C37_28 1_555 1_555
H25_28 C38_28 1_555 1_555
C39_28 C37_28 1_555 1_555
O79_81 C42_28 1_555 1_555
O84_44 C42_28 1_555 1_555
C40_28 C38_28 1_555 1_555
C41_28 C31_28 1_555 1_555
H26_28 C41_28 1_555 1_555
C42_28 C40_28 1_555 1_555
C10_12 C12_12 1_555 1_555
C19_12 C20_12 1_555 1_555
C31_28 C33_28 1_555 1_555
C40_28 C41_28 1_555 1_555
O84_66 C33_29 1_555 1_555
C31_29 C32_29 1_555 1_555
C32_29 H17_29 1_555 1_555
C33_29 O79_12 1_555 1_555
O79_77 C39_29 1_555 1_555
O84_71 C39_29 1_555 1_555
C37_29 C32_29 1_555 1_555
C38_29 C37_29 1_555 1_555
H25_29 C38_29 1_555 1_555
C39_29 C37_29 1_555 1_555
O79_27 C42_29 1_555 1_555
O84_64 C42_29 1_555 1_555
C40_29 C38_29 1_555 1_555
C41_29 C31_29 1_555 1_555
H26_29 C41_29 1_555 1_555
C42_29 C40_29 1_555 1_555
C31_29 C33_29 1_555 1_555
C40_29 C41_29 1_555 1_555
O84_67 C33_30 1_555 1_555
C31_30 C32_30 1_555 1_555
C32_30 H17_30 1_555 1_555
C33_30 O79_10 1_555 1_555
O79_78 C39_30 1_555 1_555
O84_72 C39_30 1_555 1_555
C37_30 C32_30 1_555 1_555
C38_30 C37_30 1_555 1_555
H25_30 C38_30 1_555 1_555
C39_30 C37_30 1_555 1_555
O79_26 C42_30 1_555 1_555
O84_62 C42_30 1_555 1_555
C40_30 C38_30 1_555 1_555
C41_30 C31_30 1_555 1_555
H26_30 C41_30 1_555 1_555
C42_30 C40_30 1_555 1_555
C31_30 C33_30 1_555 1_555
C40_30 C41_30 1_555 1_555
O84_68 C33_31 1_555 1_555
C31_31 C32_31 1_555 1_555
C32_31 H17_31 1_555 1_555
C33_31 O79_9 1_555 1_555
O79_79 C39_31 1_555 1_555
O84_70 C39_31 1_555 1_555
C37_31 C32_31 1_555 1_555
C38_31 C37_31 1_555 1_555
H25_31 C38_31 1_555 1_555
C39_31 C37_31 1_555 1_555
O79_28 C42_31 1_555 1_555
O84_63 C42_31 1_555 1_555
C40_31 C38_31 1_555 1_555
C41_31 C31_31 1_555 1_555
H26_31 C41_31 1_555 1_555
C42_31 C40_31 1_555 1_555
C31_31 C33_31 1_555 1_555
C40_31 C41_31 1_555 1_555
O84_65 C33_32 1_555 1_555
C31_32 C32_32 1_555 1_555
C32_32 H17_32 1_555 1_555
C33_32 O79_11 1_555 1_555
O79_80 C39_32 1_555 1_555
O84_69 C39_32 1_555 1_555
C37_32 C32_32 1_555 1_555
C38_32 C37_32 1_555 1_555
H25_32 C38_32 1_555 1_555
C39_32 C37_32 1_555 1_555
O79_25 C42_32 1_555 1_555
O84_61 C42_32 1_555 1_555
C40_32 C38_32 1_555 1_555
C41_32 C31_32 1_555 1_555
H26_32 C41_32 1_555 1_555
C42_32 C40_32 1_555 1_555
C31_32 C33_32 1_555 1_555
C40_32 C41_32 1_555 1_555
O84_76 C12_13 1_555 1_555
C10_13 C11_13 1_555 1_555
C11_13 H4_13 1_555 1_555
C12_13 O79_15 1_555 1_555
O79_72 C18_13 1_555 1_555
O84_78 C18_13 1_555 1_555
C16_13 C11_13 1_555 1_555
C17_13 C16_13 1_555 1_555
H12_13 C17_13 1_555 1_555
C18_13 C16_13 1_555 1_555
O79_41 C21_13 1_555 1_555
O84_83 C21_13 1_555 1_555
C19_13 C17_13 1_555 1_555
C20_13 C10_13 1_555 1_555
H13_13 C20_13 1_555 1_555
C21_13 C19_13 1_555 1_555
O84_57 C33_33 1_555 1_555
C31_33 C32_33 1_555 1_555
C32_33 H17_33 1_555 1_555
C33_33 O79_20 1_555 1_555
O79_37 C39_33 1_555 1_555
O84_49 C39_33 1_555 1_555
C37_33 C32_33 1_555 1_555
C38_33 C37_33 1_555 1_555
H25_33 C38_33 1_555 1_555
C39_33 C37_33 1_555 1_555
O79_95 C42_33 1_555 1_555
O84_53 C42_33 1_555 1_555
C40_33 C38_33 1_555 1_555
C41_33 C31_33 1_555 1_555
H26_33 C41_33 1_555 1_555
C42_33 C40_33 1_555 1_555
C10_13 C12_13 1_555 1_555
C19_13 C20_13 1_555 1_555
C31_33 C33_33 1_555 1_555
C40_33 C41_33 1_555 1_555
O84_75 C12_14 1_555 1_555
C10_14 C11_14 1_555 1_555
C11_14 H4_14 1_555 1_555
C12_14 O79_16 1_555 1_555
O79_69 C18_14 1_555 1_555
O84_80 C18_14 1_555 1_555
C16_14 C11_14 1_555 1_555
C17_14 C16_14 1_555 1_555
H12_14 C17_14 1_555 1_555
C18_14 C16_14 1_555 1_555
O79_43 C21_14 1_555 1_555
O84_82 C21_14 1_555 1_555
C19_14 C17_14 1_555 1_555
C20_14 C10_14 1_555 1_555
H13_14 C20_14 1_555 1_555
C21_14 C19_14 1_555 1_555
O84_60 C33_34 1_555 1_555
C31_34 C32_34 1_555 1_555
C32_34 H17_34 1_555 1_555
C33_34 O79_18 1_555 1_555
O79_38 C39_34 1_555 1_555
O84_50 C39_34 1_555 1_555
C37_34 C32_34 1_555 1_555
C38_34 C37_34 1_555 1_555
H25_34 C38_34 1_555 1_555
C39_34 C37_34 1_555 1_555
O79_94 C42_34 1_555 1_555
O84_55 C42_34 1_555 1_555
C40_34 C38_34 1_555 1_555
C41_34 C31_34 1_555 1_555
H26_34 C41_34 1_555 1_555
C42_34 C40_34 1_555 1_555
C10_14 C12_14 1_555 1_555
C19_14 C20_14 1_555 1_555
C31_34 C33_34 1_555 1_555
C40_34 C41_34 1_555 1_555
O84_73 C12_15 1_555 1_555
C10_15 C11_15 1_555 1_555
C11_15 H4_15 1_555 1_555
C12_15 O79_13 1_555 1_555
O79_71 C18_15 1_555 1_555
O84_77 C18_15 1_555 1_555
C16_15 C11_15 1_555 1_555
C17_15 C16_15 1_555 1_555
H12_15 C17_15 1_555 1_555
C18_15 C16_15 1_555 1_555
O79_44 C21_15 1_555 1_555
O84_81 C21_15 1_555 1_555
C19_15 C17_15 1_555 1_555
C20_15 C10_15 1_555 1_555
H13_15 C20_15 1_555 1_555
C21_15 C19_15 1_555 1_555
O84_59 C33_35 1_555 1_555
C31_35 C32_35 1_555 1_555
C32_35 H17_35 1_555 1_555
C33_35 O79_17 1_555 1_555
O79_39 C39_35 1_555 1_555
O84_52 C39_35 1_555 1_555
C37_35 C32_35 1_555 1_555
C38_35 C37_35 1_555 1_555
H25_35 C38_35 1_555 1_555
C39_35 C37_35 1_555 1_555
O79_96 C42_35 1_555 1_555
O84_54 C42_35 1_555 1_555
C40_35 C38_35 1_555 1_555
C41_35 C31_35 1_555 1_555
H26_35 C41_35 1_555 1_555
C42_35 C40_35 1_555 1_555
C10_15 C12_15 1_555 1_555
C19_15 C20_15 1_555 1_555
C31_35 C33_35 1_555 1_555
C40_35 C41_35 1_555 1_555
O84_74 C12_16 1_555 1_555
C10_16 C11_16 1_555 1_555
C11_16 H4_16 1_555 1_555
C12_16 O79_14 1_555 1_555
O79_70 C18_16 1_555 1_555
O84_79 C18_16 1_555 1_555
C16_16 C11_16 1_555 1_555
C17_16 C16_16 1_555 1_555
H12_16 C17_16 1_555 1_555
C18_16 C16_16 1_555 1_555
O79_42 C21_16 1_555 1_555
O84_84 C21_16 1_555 1_555
C19_16 C17_16 1_555 1_555
C20_16 C10_16 1_555 1_555
H13_16 C20_16 1_555 1_555
C21_16 C19_16 1_555 1_555
O84_58 C33_36 1_555 1_555
C31_36 C32_36 1_555 1_555
C32_36 H17_36 1_555 1_555
C33_36 O79_19 1_555 1_555
O79_40 C39_36 1_555 1_555
O84_51 C39_36 1_555 1_555
C37_36 C32_36 1_555 1_555
C38_36 C37_36 1_555 1_555
H25_36 C38_36 1_555 1_555
C39_36 C37_36 1_555 1_555
O79_93 C42_36 1_555 1_555
O84_56 C42_36 1_555 1_555
C40_36 C38_36 1_555 1_555
C41_36 C31_36 1_555 1_555
H26_36 C41_36 1_555 1_555
C42_36 C40_36 1_555 1_555
C10_16 C12_16 1_555 1_555
C19_16 C20_16 1_555 1_555
C31_36 C33_36 1_555 1_555
C40_36 C41_36 1_555 1_555
O84_30 C33_37 1_555 1_555
C31_37 C32_37 1_555 1_555
C32_37 H17_37 1_555 1_555
C33_37 O79_24 1_555 1_555
O79_89 C39_37 1_555 1_555
O84_35 C39_37 1_555 1_555
C37_37 C32_37 1_555 1_555
C38_37 C37_37 1_555 1_555
H25_37 C38_37 1_555 1_555
C39_37 C37_37 1_555 1_555
O79_63 C42_37 1_555 1_555
O84_28 C42_37 1_555 1_555
C40_37 C38_37 1_555 1_555
C41_37 C31_37 1_555 1_555
H26_37 C41_37 1_555 1_555
C42_37 C40_37 1_555 1_555
C31_37 C33_37 1_555 1_555
C40_37 C41_37 1_555 1_555
O84_31 C33_38 1_555 1_555
C31_38 C32_38 1_555 1_555
C32_38 H17_38 1_555 1_555
C33_38 O79_22 1_555 1_555
O79_90 C39_38 1_555 1_555
O84_36 C39_38 1_555 1_555
C37_38 C32_38 1_555 1_555
C38_38 C37_38 1_555 1_555
H25_38 C38_38 1_555 1_555
C39_38 C37_38 1_555 1_555
O79_62 C42_38 1_555 1_555
O84_26 C42_38 1_555 1_555
C40_38 C38_38 1_555 1_555
C41_38 C31_38 1_555 1_555
H26_38 C41_38 1_555 1_555
C42_38 C40_38 1_555 1_555
C31_38 C33_38 1_555 1_555
C40_38 C41_38 1_555 1_555
O84_32 C33_39 1_555 1_555
C31_39 C32_39 1_555 1_555
C32_39 H17_39 1_555 1_555
C33_39 O79_21 1_555 1_555
O79_91 C39_39 1_555 1_555
O84_34 C39_39 1_555 1_555
C37_39 C32_39 1_555 1_555
C38_39 C37_39 1_555 1_555
H25_39 C38_39 1_555 1_555
C39_39 C37_39 1_555 1_555
O79_64 C42_39 1_555 1_555
O84_27 C42_39 1_555 1_555
C40_39 C38_39 1_555 1_555
C41_39 C31_39 1_555 1_555
H26_39 C41_39 1_555 1_555
C42_39 C40_39 1_555 1_555
C31_39 C33_39 1_555 1_555
C40_39 C41_39 1_555 1_555
O84_29 C33_40 1_555 1_555
C31_40 C32_40 1_555 1_555
C32_40 H17_40 1_555 1_555
C33_40 O79_23 1_555 1_555
O79_92 C39_40 1_555 1_555
O84_33 C39_40 1_555 1_555
C37_40 C32_40 1_555 1_555
C38_40 C37_40 1_555 1_555
H25_40 C38_40 1_555 1_555
C39_40 C37_40 1_555 1_555
O79_61 C42_40 1_555 1_555
O84_25 C42_40 1_555 1_555
C40_40 C38_40 1_555 1_555
C41_40 C31_40 1_555 1_555
H26_40 C41_40 1_555 1_555
C42_40 C40_40 1_555 1_555
C31_40 C33_40 1_555 1_555
C40_40 C41_40 1_555 1_555
O84_21 C33_41 1_555 1_555
C31_41 C32_41 1_555 1_555
C32_41 H17_41 1_555 1_555
C33_41 O79_32 1_555 1_555
O79_73 C39_41 1_555 1_555
O84_13 C39_41 1_555 1_555
C37_41 C32_41 1_555 1_555
C38_41 C37_41 1_555 1_555
H25_41 C38_41 1_555 1_555
C39_41 C37_41 1_555 1_555
O79_59 C42_41 1_555 1_555
O84_17 C42_41 1_555 1_555
C40_41 C38_41 1_555 1_555
C41_41 C31_41 1_555 1_555
H26_41 C41_41 1_555 1_555
C42_41 C40_41 1_555 1_555
C31_41 C33_41 1_555 1_555
C40_41 C41_41 1_555 1_555
O84_24 C33_42 1_555 1_555
C31_42 C32_42 1_555 1_555
C32_42 H17_42 1_555 1_555
C33_42 O79_30 1_555 1_555
O79_74 C39_42 1_555 1_555
O84_14 C39_42 1_555 1_555
C37_42 C32_42 1_555 1_555
C38_42 C37_42 1_555 1_555
H25_42 C38_42 1_555 1_555
C39_42 C37_42 1_555 1_555
O79_58 C42_42 1_555 1_555
O84_19 C42_42 1_555 1_555
C40_42 C38_42 1_555 1_555
C41_42 C31_42 1_555 1_555
H26_42 C41_42 1_555 1_555
C42_42 C40_42 1_555 1_555
C31_42 C33_42 1_555 1_555
C40_42 C41_42 1_555 1_555
O84_23 C33_43 1_555 1_555
C31_43 C32_43 1_555 1_555
C32_43 H17_43 1_555 1_555
C33_43 O79_29 1_555 1_555
O79_75 C39_43 1_555 1_555
O84_16 C39_43 1_555 1_555
C37_43 C32_43 1_555 1_555
C38_43 C37_43 1_555 1_555
H25_43 C38_43 1_555 1_555
C39_43 C37_43 1_555 1_555
O79_60 C42_43 1_555 1_555
O84_18 C42_43 1_555 1_555
C40_43 C38_43 1_555 1_555
C41_43 C31_43 1_555 1_555
H26_43 C41_43 1_555 1_555
C42_43 C40_43 1_555 1_555
C31_43 C33_43 1_555 1_555
C40_43 C41_43 1_555 1_555
O84_22 C33_44 1_555 1_555
C31_44 C32_44 1_555 1_555
C32_44 H17_44 1_555 1_555
C33_44 O79_31 1_555 1_555
O79_76 C39_44 1_555 1_555
O84_15 C39_44 1_555 1_555
C37_44 C32_44 1_555 1_555
C38_44 C37_44 1_555 1_555
H25_44 C38_44 1_555 1_555
C39_44 C37_44 1_555 1_555
O79_57 C42_44 1_555 1_555
O84_20 C42_44 1_555 1_555
C40_44 C38_44 1_555 1_555
C41_44 C31_44 1_555 1_555
H26_44 C41_44 1_555 1_555
C42_44 C40_44 1_555 1_555
C31_44 C33_44 1_555 1_555
C40_44 C41_44 1_555 1_555
O84_6 C33_45 1_555 1_555
C31_45 C32_45 1_555 1_555
C32_45 H17_45 1_555 1_555
C33_45 O79_48 1_555 1_555
O79_65 C39_45 1_555 1_555
O84_11 C39_45 1_555 1_555
C37_45 C32_45 1_555 1_555
C38_45 C37_45 1_555 1_555
H25_45 C38_45 1_555 1_555
C39_45 C37_45 1_555 1_555
O79_87 C42_45 1_555 1_555
O84_4 C42_45 1_555 1_555
C40_45 C38_45 1_555 1_555
C41_45 C31_45 1_555 1_555
H26_45 C41_45 1_555 1_555
C42_45 C40_45 1_555 1_555
C31_45 C33_45 1_555 1_555
C40_45 C41_45 1_555 1_555
O84_7 C33_46 1_555 1_555
C31_46 C32_46 1_555 1_555
C32_46 H17_46 1_555 1_555
C33_46 O79_46 1_555 1_555
O79_66 C39_46 1_555 1_555
O84_12 C39_46 1_555 1_555
C37_46 C32_46 1_555 1_555
C38_46 C37_46 1_555 1_555
H25_46 C38_46 1_555 1_555
C39_46 C37_46 1_555 1_555
O79_86 C42_46 1_555 1_555
O84_2 C42_46 1_555 1_555
C40_46 C38_46 1_555 1_555
C41_46 C31_46 1_555 1_555
H26_46 C41_46 1_555 1_555
C42_46 C40_46 1_555 1_555
C31_46 C33_46 1_555 1_555
C40_46 C41_46 1_555 1_555
O84_8 C33_47 1_555 1_555
C31_47 C32_47 1_555 1_555
C32_47 H17_47 1_555 1_555
C33_47 O79_45 1_555 1_555
O79_67 C39_47 1_555 1_555
O84_10 C39_47 1_555 1_555
C37_47 C32_47 1_555 1_555
C38_47 C37_47 1_555 1_555
H25_47 C38_47 1_555 1_555
C39_47 C37_47 1_555 1_555
O79_88 C42_47 1_555 1_555
O84_3 C42_47 1_555 1_555
C40_47 C38_47 1_555 1_555
C41_47 C31_47 1_555 1_555
H26_47 C41_47 1_555 1_555
C42_47 C40_47 1_555 1_555
C31_47 C33_47 1_555 1_555
C40_47 C41_47 1_555 1_555
O84_5 C33_48 1_555 1_555
C31_48 C32_48 1_555 1_555
C32_48 H17_48 1_555 1_555
C33_48 O79_47 1_555 1_555
O79_68 C39_48 1_555 1_555
O84_9 C39_48 1_555 1_555
C37_48 C32_48 1_555 1_555
C38_48 C37_48 1_555 1_555
H25_48 C38_48 1_555 1_555
C39_48 C37_48 1_555 1_555
O79_85 C42_48 1_555 1_555
O84 C42_48 1_555 1_555
C40_48 C38_48 1_555 1_555
C41_48 C31_48 1_555 1_555
H26_48 C41_48 1_555 1_555
C42_48 C40_48 1_555 1_555
C31_48 C33_48 1_555 1_555
C40_48 C41_48 1_555 1_555

#END
