
###############################################################################
#
# This file contains modified crystal structure data generated from the
# MOF subset of the Cambridge Structural Database (CSD) v543 
# hosted by the Cambridge Crystallographic Data Centre (CCDC).
#
# This work is licensed under the Creative Commons
# Attribution-NonCommercial-ShareAlike 4.0 International License.
# To view a copy of this license, visit
# http://creativecommons.org/licenses/by-nc-sa/4.0/
# or send a letter to
# Creative Commons, PO Box 1866, Mountain View, CA 94042, USA.
#
# CIF created using the CSD Python API on 29 September 2022
# The structure has been converted into the P1 space group
# The structure has a 3D framework
# The original CSD entry MAKRAU is in the triclinic crystal system
# The framework has been calculated to contain at least 10.0% void space
# The void calculation uses a probe of radius 1.32A, grid spacing 0.4
#
###############################################################################

data_MAKRAU
_chemical_formula_moiety         '(C110 H84 K2 N10 Ni2 O26)n'
_symmetry_cell_setting           triclinic
_symmetry_space_group_name_H-M   'P 1'
_symmetry_Int_Tables_number      1
_space_group_name_Hall           'P 1'
loop_
_symmetry_equiv_pos_site_id
_symmetry_equiv_pos_as_xyz
1 x,y,z
_cell_length_a                   12.6368(13)
_cell_length_b                   14.4827(15)
_cell_length_c                   18.082(2)
_cell_angle_alpha                83.373(2)
_cell_angle_beta                 69.732(2)
_cell_angle_gamma                85.888(2)
_cell_volume                     3081.84
loop_
_atom_site_label
_atom_site_type_symbol
_atom_site_fract_x
_atom_site_fract_y
_atom_site_fract_z
O16 O 0.27041(13) 0.53415(15) 0.08002(9)
O19 O 0.46169(13) 0.36639(12) 0.03986(9)
Ni1 Ni 0.207335(17) 0.023311(14) 0.484004(12)
C1 C 0.22751(14) 0.22828(12) 0.48168(10)
C2 C 0.21777(15) 0.31363(13) 0.43553(11)
H1 H 0.2407 0.3716 0.4403
C3 C 0.16914(16) 0.29414(13) 0.38398(11)
H2 H 0.1522 0.3360 0.3463
C4 C 0.14830(14) 0.19664(12) 0.39810(10)
N1 N 0.18841(12) 0.15573(10) 0.45665(8)
C5 C 0.08994(14) 0.15206(13) 0.36168(10)
C6 C 0.07212(14) 0.05812(13) 0.37670(10)
C7 C 0.00225(15) 0.01117(13) 0.34756(11)
C17 C 0.33983(18) 0.03413(15) 0.66472(12)
H7 H 0.3641 0.0061 0.7052
C18 C 0.31930(18) 0.12552(15) 0.65053(11)
H8 H 0.3257 0.1726 0.6795
C19 C 0.28530(15) 0.13617(13) 0.58137(10)
N4 N 0.27865(12) 0.05143(10) 0.55749(8)
C20 C 0.26734(14) 0.22179(13) 0.54402(10)
C21 C 0.04534(15) 0.20786(13) 0.30327(10)
C25 C 0.04984(18) 0.24516(17) 0.16900(12)
H11 H 0.0810 0.2358 0.1156
C26 C 0.08902(17) 0.19313(15) 0.22404(11)
H12 H 0.1456 0.1476 0.2074
H14 H 0.0240 0.3895 0.0397
C45 C 0.29927(15) 0.30841(13) 0.56833(10)
C46 C 0.22514(16) 0.38305(14) 0.58785(12)
H29 H 0.1520 0.3797 0.5877
C47 C 0.25754(17) 0.46251(15) 0.60751(12)
H30 H 0.2064 0.5126 0.6203
C48 C 0.36719(16) 0.46873(14) 0.60837(11)
C49 C 0.44113(16) 0.39449(13) 0.59038(11)
H31 H 0.5137 0.3971 0.5919
C50 C 0.40739(15) 0.31536(13) 0.56987(11)
H32 H 0.4586 0.2654 0.5567
C51 C 0.50220(17) 0.56436(15) 0.62549(12)
H33 H 0.5148 0.6304 0.6202
H34 H 0.5552 0.5384 0.5791
C52 C 0.52495(17) 0.51921(14) 0.69833(11)
O10 O 0.39045(12) 0.55153(10) 0.62822(9)
O11 O 0.63276(12) 0.52530(13) 0.68773(9)
H35 H 0.6450 0.5032 0.7280
O12 O 0.45627(13) 0.48677(13) 0.75671(9)
C53 C 0.2362(3) 0.3068(3) 0.9160(2)
H36 H 0.2307 0.2451 0.9375
C54 C 0.1850(3) 0.4261(3) 0.8297(2)
H37 H 0.2012 0.4643 0.8642
H38 H 0.1106 0.4419 0.8282
H39 H 0.2392 0.4365 0.7773
C55 C 0.1325(5) 0.2654(4) 0.8293(3)
H40 H 0.1015 0.2157 0.8694
H41 H 0.1849 0.2402 0.7832
H42 H 0.0727 0.2995 0.8157
N5 N 0.1910(2) 0.3278(2) 0.85929(14)
O13 O 0.28161(17) 0.35465(19) 0.94269(12)
K1 K 0.42860(4) 0.50226(4) 0.91774(3)
O14 O 0.23051(15) 0.59076(19) 0.92437(11)
O15 O 0.66141(12) 0.48976(12) 0.82248(8)
O17 O 0.50777(12) 0.69511(11) 0.82346(8)
O18 O 0.53831(13) 0.63361(12) 0.96014(9)
K6 K 0.57140(4) 0.49774(4) 0.08226(3)
C8 C 0.01473(15) 0.92017(14) 0.36657(11)
C9 C 0.09533(15) 0.91001(12) 0.40713(10)
N2 N 0.12577(12) 0.99565(10) 0.41707(8)
C10 C 0.14341(15) 0.82528(13) 0.42529(11)
C11 C 0.21498(15) 0.81915(13) 0.46924(10)
C12 C 0.27054(16) 0.73469(13) 0.48783(11)
H5 H 0.2714 0.6777 0.4686
C13 C 0.32114(16) 0.75329(14) 0.53832(12)
H6 H 0.3622 0.7112 0.5617
C14 C 0.30019(15) 0.84987(13) 0.54952(11)
N3 N 0.23749(12) 0.89091(10) 0.50422(8)
C15 C 0.33459(15) 0.89391(13) 0.60072(10)
C16 C 0.31768(15) 0.98795(13) 0.60662(11)
C29 C 0.12658(16) 0.74104(13) 0.39058(11)
C30 C 0.15463(18) 0.74313(13) 0.30980(11)
H16 H 0.1760 0.7991 0.2788
C31 C 0.15225(18) 0.66505(14) 0.27282(11)
H17 H 0.1713 0.6689 0.2181
C32 C 0.12142(16) 0.58185(13) 0.31803(11)
C33 C 0.08727(17) 0.57952(14) 0.40015(11)
H18 H 0.0628 0.5243 0.4314
C34 C 0.08934(17) 0.65745(14) 0.43516(11)
H19 H 0.0653 0.6546 0.4901
C35 C 0.13917(17) 0.50259(15) 0.20684(12)
H20 H 0.0913 0.5523 0.1934
H21 H 0.1148 0.4446 0.1970
C36 C 0.25951(17) 0.51733(15) 0.15170(11)
O4 O 0.12146(12) 0.49969(9) 0.28842(8)
O5 O 0.33859(12) 0.51024(12) 0.17752(8)
C37 C 0.38699(15) 0.83796(13) 0.65464(11)
C38 C 0.32346(17) 0.77705(16) 0.71417(13)
H22 H 0.2499 0.7671 0.7177
C39 C 0.36596(17) 0.72989(16) 0.76929(12)
H23 H 0.3213 0.6886 0.8093
C40 C 0.47390(17) 0.74402(14) 0.76488(11)
C41 C 0.54182(16) 0.80144(15) 0.70330(12)
H24 H 0.6166 0.8086 0.6984
C42 C 0.49764(17) 0.84852(15) 0.64866(11)
H25 H 0.5432 0.8878 0.6073
C43 C 0.60467(18) 0.72436(19) 0.83375(13)
H26 H 0.6042 0.7917 0.8298
H27 H 0.6717 0.7029 0.7930
C44 C 0.60523(18) 0.68450(18) 0.91428(13)
O8 O 0.69297(15) 0.71179(18) 0.92646(11)
H28 H 0.6923 0.6906 0.9707
H3 H 0.9561 0.0387 0.3202
C22 C 0.96164(16) 0.27521(14) 0.32627(11)
H9 H 0.9316 0.2864 0.3793
C23 C 0.92138(16) 0.32654(14) 0.27193(12)
H10 H 0.8647 0.3720 0.2885
C24 C 0.96436(15) 0.31089(14) 0.19421(11)
C27 C 0.9548(2) 0.3562(2) 0.06529(13)
H13 H 0.9698 0.2913 0.0553
C28 C 0.8628(2) 0.3979(2) 0.03383(14)
O1 O 0.91487(14) 0.36451(13) 0.14675(9)
O2 O 0.76949(15) 0.40924(19) 0.07563(11)
H3_2 H 0.0439 0.9613 0.6798
C22_2 C 0.03836(16) 0.72479(14) 0.67373(11)
H9_2 H 0.0684 0.7136 0.6207
C23_2 C 0.07862(16) 0.67346(14) 0.72807(12)
H10_2 H 0.1353 0.6280 0.7115
C24_2 C 0.03564(15) 0.68911(14) 0.80579(11)
C27_2 C 0.0452(2) 0.6438(2) 0.93471(13)
H13_2 H 0.0302 0.7087 0.9447
C28_2 C 0.1372(2) 0.6021(2) 0.96617(14)
O1_2 O 0.08513(14) 0.63549(13) 0.85325(9)
C8_2 C 0.98527(15) 0.07983(14) 0.63343(11)
C9_2 C 0.90467(15) 0.08999(12) 0.59287(10)
N2_2 N 0.87423(12) 0.00435(10) 0.58293(8)
C10_2 C 0.85659(15) 0.17472(13) 0.57471(11)
C11_2 C 0.78502(15) 0.18085(13) 0.53076(10)
C12_2 C 0.72946(16) 0.26531(13) 0.51217(11)
H5_2 H 0.7286 0.3223 0.5314
C13_2 C 0.67886(16) 0.24671(14) 0.46168(12)
H6_2 H 0.6378 0.2888 0.4383
C14_2 C 0.69981(15) 0.15013(13) 0.45048(11)
N3_2 N 0.76251(12) 0.10909(10) 0.49578(8)
C15_2 C 0.66541(15) 0.10609(13) 0.39928(10)
C16_2 C 0.68232(15) 0.01205(13) 0.39338(11)
C29_2 C 0.87342(16) 0.25896(13) 0.60942(11)
C30_2 C 0.84537(18) 0.25687(13) 0.69020(11)
H16_2 H 0.8240 0.2009 0.7212
C31_2 C 0.84775(18) 0.33495(14) 0.72718(11)
H17_2 H 0.8287 0.3311 0.7819
C32_2 C 0.87858(16) 0.41815(13) 0.68197(11)
C33_2 C 0.91273(17) 0.42048(14) 0.59985(11)
H18_2 H 0.9372 0.4757 0.5686
C34_2 C 0.91066(17) 0.34255(14) 0.56484(11)
H19_2 H 0.9347 0.3454 0.5099
C35_2 C 0.86083(17) 0.49741(15) 0.79316(12)
H20_2 H 0.9087 0.4477 0.8066
H21_2 H 0.8852 0.5554 0.8030
C36_2 C 0.74049(17) 0.48267(15) 0.84830(11)
O4_2 O 0.87854(12) 0.50031(9) 0.71158(8)
O6 O 0.72959(13) 0.46585(15) 0.91998(9)
C37_2 C 0.61301(15) 0.16204(13) 0.34536(11)
C38_2 C 0.67654(17) 0.22295(16) 0.28583(13)
H22_2 H 0.7501 0.2329 0.2823
C39_2 C 0.63404(17) 0.27011(16) 0.23071(12)
H23_2 H 0.6787 0.3114 0.1907
C40_2 C 0.52610(17) 0.25598(14) 0.23512(11)
C41_2 C 0.45818(16) 0.19856(15) 0.29670(12)
H24_2 H 0.3834 0.1914 0.3016
C42_2 C 0.50236(17) 0.15148(15) 0.35134(11)
H25_2 H 0.4568 0.1122 0.3927
C43_2 C 0.39533(18) 0.27564(19) 0.16625(13)
H26_2 H 0.3958 0.2083 0.1702
H27_2 H 0.3283 0.2971 0.2070
C44_2 C 0.39477(18) 0.31550(18) 0.08572(13)
O7 O 0.49223(12) 0.30489(11) 0.17654(8)
O8_2 O 0.30703(15) 0.28821(18) 0.07354(11)
H28_2 H 0.3077 0.3094 0.0293
Ni1_2 Ni 0.792665(17) 0.976689(14) 0.515996(12)
C1_2 C 0.77249(14) 0.77172(12) 0.51832(10)
C2_2 C 0.78223(15) 0.68637(13) 0.56447(11)
H1_2 H 0.7593 0.6284 0.5597
C3_2 C 0.83086(16) 0.70586(13) 0.61602(11)
H2_2 H 0.8478 0.6640 0.6537
C4_2 C 0.85170(14) 0.80336(12) 0.60190(10)
N1_2 N 0.81159(12) 0.84427(10) 0.54335(8)
C5_2 C 0.91006(14) 0.84794(13) 0.63832(10)
C6_2 C 0.92788(14) 0.94188(13) 0.62330(10)
C7_2 C 0.99775(15) 0.98883(13) 0.65244(11)
C17_2 C 0.66017(18) 0.96587(15) 0.33528(12)
H7_2 H 0.6359 0.9939 0.2948
C18_2 C 0.68070(18) 0.87448(15) 0.34947(11)
H8_2 H 0.6743 0.8274 0.3205
C19_2 C 0.71470(15) 0.86383(13) 0.41863(10)
N4_2 N 0.72135(12) 0.94857(10) 0.44251(8)
C20_2 C 0.73266(14) 0.77821(13) 0.45598(10)
C21_2 C 0.95466(15) 0.79214(13) 0.69673(10)
C25_2 C 0.95016(18) 0.75484(17) 0.83100(12)
H11_2 H 0.9190 0.7642 0.8844
C26_2 C 0.91098(17) 0.80687(15) 0.77596(11)
H12_2 H 0.8544 0.8524 0.7926
H14_2 H 0.9760 0.6105 0.9603
C45_2 C 0.70073(15) 0.69159(13) 0.43167(10)
C46_2 C 0.77486(16) 0.61695(14) 0.41215(12)
H29_2 H 0.8480 0.6203 0.4123
C47_2 C 0.74246(17) 0.53749(15) 0.39249(12)
H30_2 H 0.7936 0.4874 0.3797
C48_2 C 0.63281(16) 0.53127(14) 0.39163(11)
C49_2 C 0.55887(16) 0.60551(13) 0.40962(11)
H31_2 H 0.4863 0.6029 0.4081
C50_2 C 0.59261(15) 0.68464(13) 0.43013(11)
H32_2 H 0.5414 0.7346 0.4433
C51_2 C 0.49780(17) 0.43564(15) 0.37451(12)
H33_2 H 0.4852 0.3696 0.3798
H34_2 H 0.4448 0.4616 0.4209
C52_2 C 0.47505(17) 0.48079(14) 0.30167(11)
O10_2 O 0.60955(12) 0.44847(10) 0.37178(9)
O11_2 O 0.36724(12) 0.47470(13) 0.31227(9)
H35_2 H 0.3550 0.4968 0.2720
O12_2 O 0.54373(13) 0.51323(13) 0.24329(9)
C53_2 C 0.7638(3) 0.6932(3) 0.0840(2)
H36_2 H 0.7693 0.7549 0.0625
C54_2 C 0.8150(3) 0.5739(3) 0.1703(2)
H37_2 H 0.7988 0.5357 0.1358
H38_2 H 0.8894 0.5581 0.1718
H39_2 H 0.7608 0.5635 0.2227
C55_2 C 0.8675(5) 0.7346(4) 0.1707(3)
H40_2 H 0.8985 0.7843 0.1306
H41_2 H 0.8151 0.7598 0.2168
H42_2 H 0.9273 0.7005 0.1843
N5_2 N 0.8090(2) 0.6722(2) 0.14071(14)
O13_2 O 0.71839(17) 0.64535(19) 0.05731(12)
O3 O 0.89885(16) 0.41701(19) 0.95912(10)
H15 H 0.8466 0.4383 0.9446
H4 H 0.9783 0.8726 0.3557
H4_2 H 0.0217 0.1274 0.6443
O3_2 O 0.10115(16) 0.58299(19) 0.04088(10)
H15_2 H 0.1534 0.5617 0.0554
loop_
_geom_bond_atom_site_label_1
_geom_bond_atom_site_label_2
_geom_bond_site_symmetry_1
_geom_bond_site_symmetry_2
Ni1 N1 1_555 1_555
C1 C2 1_555 1_555
C2 H1 1_555 1_555
C3 C2 1_555 1_555
H2 C3 1_555 1_555
C4 C3 1_555 1_555
N1 C1 1_555 1_555
C5 C4 1_555 1_555
C6 C5 1_555 1_555
C7 C6 1_555 1_555
H7 C17 1_555 1_555
C18 C17 1_555 1_555
H8 C18 1_555 1_555
C19 C18 1_555 1_555
N4 Ni1 1_555 1_555
C20 C1 1_555 1_555
C21 C5 1_555 1_555
H11 C25 1_555 1_555
C26 C21 1_555 1_555
H12 C26 1_555 1_555
C45 C20 1_555 1_555
C46 C45 1_555 1_555
H29 C46 1_555 1_555
C47 C46 1_555 1_555
H30 C47 1_555 1_555
C48 C47 1_555 1_555
C49 C48 1_555 1_555
H31 C49 1_555 1_555
C50 C45 1_555 1_555
H32 C50 1_555 1_555
C51 H33 1_555 1_555
H34 C51 1_555 1_555
C52 C51 1_555 1_555
O10 C48 1_555 1_555
O11 C52 1_555 1_555
H35 O11 1_555 1_555
O12 C52 1_555 1_555
C53 H36 1_555 1_555
C54 H37 1_555 1_555
H38 C54 1_555 1_555
H39 C54 1_555 1_555
C55 H40 1_555 1_555
H41 C55 1_555 1_555
H42 C55 1_555 1_555
N5 C53 1_555 1_555
O13 C53 1_555 1_555
K1 O12 1_555 1_555
O14 K1 1_555 1_555
O15 K1 1_555 1_555
O17 K1 1_555 1_555
O18 K1 1_555 1_555
C4 N1 1_555 1_555
C19 N4 1_555 1_555
C19 C20 1_555 1_555
C25 C26 1_555 1_555
C49 C50 1_555 1_555
C51 O10 1_555 1_555
C54 N5 1_555 1_555
C55 N5 1_555 1_555
O13 K1 1_555 1_555
C9 C8 1_555 1_555
C10 C9 1_555 1_555
C11 C10 1_555 1_555
C12 C11 1_555 1_555
H5 C12 1_555 1_555
C13 C12 1_555 1_555
H6 C13 1_555 1_555
C14 C13 1_555 1_555
C15 C14 1_555 1_555
C16 C15 1_555 1_555
C29 C10 1_555 1_555
C30 C29 1_555 1_555
H16 C30 1_555 1_555
C31 C30 1_555 1_555
H17 C31 1_555 1_555
C32 C31 1_555 1_555
C33 C32 1_555 1_555
H18 C33 1_555 1_555
C34 C29 1_555 1_555
H19 C34 1_555 1_555
C35 H20 1_555 1_555
H21 C35 1_555 1_555
C36 C35 1_555 1_555
O4 C32 1_555 1_555
O5 C36 1_555 1_555
O16 C36 1_555 1_555
C37 C15 1_555 1_555
C38 C37 1_555 1_555
H22 C38 1_555 1_555
C39 C38 1_555 1_555
H23 C39 1_555 1_555
C40 C39 1_555 1_555
C41 C40 1_555 1_555
H24 C41 1_555 1_555
C42 C37 1_555 1_555
H25 C42 1_555 1_555
C43 H26 1_555 1_555
H27 C43 1_555 1_555
C44 C43 1_555 1_555
O17 C40 1_555 1_555
O8 C44 1_555 1_555
H28 O8 1_555 1_555
O18 C44 1_555 1_555
K6 O5 1_555 1_555
C9 N2 1_555 1_555
C11 N3 1_555 1_555
C14 N3 1_555 1_555
C33 C34 1_555 1_555
C35 O4 1_555 1_555
C41 C42 1_555 1_555
C43 O17 1_555 1_555
H9 C22 1_555 1_555
C23 C22 1_555 1_555
H10 C23 1_555 1_555
C24 C23 1_555 1_555
C27 H13 1_555 1_555
C28 C27 1_555 1_555
O1 C24 1_555 1_555
O2 C28 1_555 1_555
K6 O2 1_555 1_555
C27 O1 1_555 1_555
H9_2 C22_2 1_555 1_555
C23_2 C22_2 1_555 1_555
H10_2 C23_2 1_555 1_555
C24_2 C23_2 1_555 1_555
C27_2 H13_2 1_555 1_555
C28_2 C27_2 1_555 1_555
O1_2 C24_2 1_555 1_555
O14 C28_2 1_555 1_555
C27_2 O1_2 1_555 1_555
C9_2 C8_2 1_555 1_555
C10_2 C9_2 1_555 1_555
C11_2 C10_2 1_555 1_555
C12_2 C11_2 1_555 1_555
H5_2 C12_2 1_555 1_555
C13_2 C12_2 1_555 1_555
H6_2 C13_2 1_555 1_555
C14_2 C13_2 1_555 1_555
C15_2 C14_2 1_555 1_555
C16_2 C15_2 1_555 1_555
C29_2 C10_2 1_555 1_555
C30_2 C29_2 1_555 1_555
H16_2 C30_2 1_555 1_555
C31_2 C30_2 1_555 1_555
H17_2 C31_2 1_555 1_555
C32_2 C31_2 1_555 1_555
C33_2 C32_2 1_555 1_555
H18_2 C33_2 1_555 1_555
C34_2 C29_2 1_555 1_555
H19_2 C34_2 1_555 1_555
C35_2 H20_2 1_555 1_555
H21_2 C35_2 1_555 1_555
C36_2 C35_2 1_555 1_555
O4_2 C32_2 1_555 1_555
O15 C36_2 1_555 1_555
O6 C36_2 1_555 1_555
C37_2 C15_2 1_555 1_555
C38_2 C37_2 1_555 1_555
H22_2 C38_2 1_555 1_555
C39_2 C38_2 1_555 1_555
H23_2 C39_2 1_555 1_555
C40_2 C39_2 1_555 1_555
C41_2 C40_2 1_555 1_555
H24_2 C41_2 1_555 1_555
C42_2 C37_2 1_555 1_555
H25_2 C42_2 1_555 1_555
C43_2 H26_2 1_555 1_555
H27_2 C43_2 1_555 1_555
C44_2 C43_2 1_555 1_555
O7 C40_2 1_555 1_555
O8_2 C44_2 1_555 1_555
H28_2 O8_2 1_555 1_555
O19 C44_2 1_555 1_555
K6 O7 1_555 1_555
C9_2 N2_2 1_555 1_555
C11_2 N3_2 1_555 1_555
C14_2 N3_2 1_555 1_555
C33_2 C34_2 1_555 1_555
C35_2 O4_2 1_555 1_555
C41_2 C42_2 1_555 1_555
C43_2 O7 1_555 1_555
O19 K6 1_555 1_555
Ni1_2 N1_2 1_555 1_555
C1_2 C2_2 1_555 1_555
C2_2 H1_2 1_555 1_555
C3_2 C2_2 1_555 1_555
H2_2 C3_2 1_555 1_555
C4_2 C3_2 1_555 1_555
N1_2 C1_2 1_555 1_555
C5_2 C4_2 1_555 1_555
C6_2 C5_2 1_555 1_555
C7_2 C6_2 1_555 1_555
H7_2 C17_2 1_555 1_555
C18_2 C17_2 1_555 1_555
H8_2 C18_2 1_555 1_555
C19_2 C18_2 1_555 1_555
N4_2 Ni1_2 1_555 1_555
C20_2 C1_2 1_555 1_555
C21_2 C5_2 1_555 1_555
H11_2 C25_2 1_555 1_555
C26_2 C21_2 1_555 1_555
H12_2 C26_2 1_555 1_555
C45_2 C20_2 1_555 1_555
C46_2 C45_2 1_555 1_555
H29_2 C46_2 1_555 1_555
C47_2 C46_2 1_555 1_555
H30_2 C47_2 1_555 1_555
C48_2 C47_2 1_555 1_555
C49_2 C48_2 1_555 1_555
H31_2 C49_2 1_555 1_555
C50_2 C45_2 1_555 1_555
H32_2 C50_2 1_555 1_555
C51_2 H33_2 1_555 1_555
H34_2 C51_2 1_555 1_555
C52_2 C51_2 1_555 1_555
O10_2 C48_2 1_555 1_555
O11_2 C52_2 1_555 1_555
H35_2 O11_2 1_555 1_555
O12_2 C52_2 1_555 1_555
C53_2 H36_2 1_555 1_555
C54_2 H37_2 1_555 1_555
H38_2 C54_2 1_555 1_555
H39_2 C54_2 1_555 1_555
C55_2 H40_2 1_555 1_555
H41_2 C55_2 1_555 1_555
H42_2 C55_2 1_555 1_555
N5_2 C53_2 1_555 1_555
O13_2 C53_2 1_555 1_555
K6 O12_2 1_555 1_555
C4_2 N1_2 1_555 1_555
C19_2 N4_2 1_555 1_555
C19_2 C20_2 1_555 1_555
C25_2 C26_2 1_555 1_555
C49_2 C50_2 1_555 1_555
C51_2 O10_2 1_555 1_555
C54_2 N5_2 1_555 1_555
C55_2 N5_2 1_555 1_555
O13_2 K6 1_555 1_555
H15 O3 1_555 1_555
H15_2 O3_2 1_555 1_555

#END
