
###############################################################################
#
# This file contains modified crystal structure data generated from the
# MOF subset of the Cambridge Structural Database (CSD) v543 
# hosted by the Cambridge Crystallographic Data Centre (CCDC).
#
# This work is licensed under the Creative Commons
# Attribution-NonCommercial-ShareAlike 4.0 International License.
# To view a copy of this license, visit
# http://creativecommons.org/licenses/by-nc-sa/4.0/
# or send a letter to
# Creative Commons, PO Box 1866, Mountain View, CA 94042, USA.
#
# CIF created using the CSD Python API on 29 September 2022
# The structure has been converted into the P1 space group
# The structure has a 3D framework
# The original CSD entry MALYOP is in the monoclinic crystal system
# The framework has been calculated to contain at least 10.0% void space
# The void calculation uses a probe of radius 1.32A, grid spacing 0.4
# The framework is charged, counterions have been retained in the structure
# H atom positions have been added when not included in the experimental data
#
###############################################################################

data_MALYOP
_chemical_formula_moiety         '(C232 H280 Ce4 Cl4 Cu4 N16 O32)n'
_symmetry_cell_setting           triclinic
_symmetry_space_group_name_H-M   'P 1'
_symmetry_Int_Tables_number      1
_space_group_name_Hall           'P 1'
loop_
_symmetry_equiv_pos_site_id
_symmetry_equiv_pos_as_xyz
1 x,y,z
_cell_length_a                   15.4828(15)
_cell_length_b                   24.962(2)
_cell_length_c                   22.355(2)
_cell_angle_alpha                90
_cell_angle_beta                 99.575(6)
_cell_angle_gamma                90
_cell_volume                     8519.43
loop_
_atom_site_label
_atom_site_type_symbol
_atom_site_fract_x
_atom_site_fract_y
_atom_site_fract_z
C30 C 0.2503(13) 0.5357(6) 0.3639(9)
C31 C 0.1864(16) 0.5634(6) 0.3174(11)
C32 C 0.111(2) 0.5763(7) 0.3351(7)
H36 H 0.1021 0.5685 0.3744
C33 C 0.0443(15) 0.6015(8) 0.2946(16)
C34 C 0.0597(17) 0.6129(7) 0.2380(15)
C35 C 0.135(2) 0.6022(7) 0.2175(9)
C36 C 0.2035(13) 0.5765(8) 0.2592(13)
H37 H 0.2574 0.5688 0.2481
H43 H 0.0132 0.6462 0.3948
C50 C 0.1638(16) 0.6177(11) 0.1561(10)
H49 H 0.1093 0.6209 0.1269
C51 C 0.209(2) 0.6730(13) 0.1558(12)
H50 H 0.1718 0.7003 0.1672
H51 H 0.2216 0.6803 0.1159
H52 H 0.2634 0.6725 0.1841
C52 C 0.219(2) 0.5757(13) 0.1292(12)
H53 H 0.2761 0.5738 0.1533
H54 H 0.2238 0.5856 0.0884
H55 H 0.1909 0.5413 0.1289
C58 C 0.0259(18) 0.7914(13) 0.0498(14)
H67 H 0.0391 0.8012 0.0108
H68 H 0.0769 0.7761 0.0740
H69 H 0.0083 0.8227 0.0697
Cl1 Cl 0.0420(11) 0.8157(6) 0.2936(8)
Cu1 Cu 0.0099(4) 0.7490(3) 0.2397(3)
O5 O 0.3238(8) 0.5234(4) 0.3505(4)
O6 O 0.2314(7) 0.5251(4) 0.4148(6)
Ce5 Ce 0.37507(5) 0.48240(3) 0.45724(3)
H70 H 0.0186759 0.694239 0.158709
O10 O 0.5984(8) 0.0778(4) 0.0346(4)
O12 O 0.6762(8) 0.0234(4) 0.1495(4)
O13 O 0.7686(7) 0.0251(4) 0.0852(6)
C1 C 0.5922(14) 0.0170(6) 0.9106(9)
C2 C 0.5906(17) 0.0399(6) 0.8499(10)
C3 C 0.5125(14) 0.0467(7) 0.8096(13)
H1 H 0.4602 0.0352 0.8206
C4 C 0.5117(17) 0.0704(7) 0.7534(11)
C5 C 0.590(2) 0.0876(7) 0.7395(10)
C6 C 0.6688(16) 0.0837(7) 0.7781(13)
C7 C 0.6666(15) 0.0585(8) 0.8338(10)
H2 H 0.7186 0.0543 0.8609
C8 C 0.5755(10) 0.1653(11) 0.6756(9)
H3 H 0.5665 0.1893 0.7057
C9 C 0.5993(11) 0.0906(7) 0.6295(12)
H4 H 0.6080 0.0546 0.6218
C10 C 0.5949(11) 0.1327(11) 0.5888(8)
H5 H 0.6023 0.1305 0.5485
C11 C 0.5679(16) 0.2287(5) 0.5906(5)
C12 C 0.4855(11) 0.2467(8) 0.5641(6)
C13 C 0.4747(9) 0.2990(9) 0.5427(5)
H6 H 0.4196 0.3110 0.5250
C14 C 0.5464(15) 0.3332(5) 0.5478(5)
C15 C 0.6289(11) 0.3151(8) 0.5743(6)
H7 H 0.6768 0.3380 0.5778
C16 C 0.6396(9) 0.2629(9) 0.5958(5)
C17 C 0.5315(16) 0.3926(7) 0.5262(7)
C18 C 0.4221(13) 0.0775(7) 0.7104(8)
H8 H 0.4344 0.0893 0.6708
C19 C 0.3757(13) 0.0248(9) 0.7013(8)
H10 H 0.3204 0.0296 0.6751
H11 H 0.3659 0.0112 0.7398
C20 C 0.3683(11) 0.1235(8) 0.7362(8)
H12 H 0.3237 0.1365 0.7044
H13 H 0.4070 0.1523 0.7511
H14 H 0.3414 0.1095 0.7687
C21 C 0.7508(17) 0.1084(10) 0.7631(9)
H15 H 0.7368 0.1210 0.7211
C22 C 0.8222(17) 0.0705(12) 0.7650(13)
H16 H 0.8534 0.0680 0.8058
H17 H 0.8613 0.0825 0.7387
H18 H 0.7991 0.0360 0.7519
C23 C 0.7752(17) 0.1598(13) 0.8037(14)
H19 H 0.7734 0.1511 0.8454
H20 H 0.7339 0.1878 0.7907
H21 H 0.8330 0.1715 0.7998
C24 C 0.4062(13) 0.2094(7) 0.5617(9)
H22 H 0.4272 0.1753 0.5803
C25 C 0.3635(13) 0.1980(8) 0.4958(11)
H23 H 0.3249 0.1678 0.4949
H24 H 0.4081 0.1903 0.4720
H25 H 0.3307 0.2289 0.4794
C26 C 0.3401(13) 0.2342(9) 0.6007(11)
H26 H 0.3103 0.2640 0.5795
H27 H 0.3717 0.2460 0.6390
H28 H 0.2981 0.2075 0.6074
C27 C 0.7364(14) 0.2460(7) 0.6246(10)
H29 H 0.7352 0.2077 0.6340
C28 C 0.7548(14) 0.2749(9) 0.6830(12)
H30 H 0.8067 0.2605 0.7072
H31 H 0.7062 0.2708 0.7043
H32 H 0.7635 0.3122 0.6756
C29 C 0.7958(14) 0.2529(10) 0.5793(12)
H33 H 0.8002 0.2902 0.5700
H34 H 0.7726 0.2336 0.5430
H35 H 0.8528 0.2392 0.5956
N1 N 0.5881(7) 0.1135(8) 0.6834(9)
N2 N 0.5777(8) 0.1778(6) 0.6188(11)
O1 O 0.6667(8) 0.0050(3) 0.9415(5)
O2 O 0.5236(8) 0.0097(3) 0.9299(4)
O3 O 0.5984(8) 0.4222(4) 0.5346(4)
O4 O 0.4525(9) 0.4040(4) 0.5031(5)
Ce2 Ce 0.37507(5) 0.01760(3) 0.95724(3)
Ce3 Ce 0.62493(5) 0.51760(3) 0.54276(3)
C37 C 0.9705(13) 0.6864(10) 0.1880(7)
C38 C 0.9385(17) 0.6036(8) 0.1487(11)
H38 H 0.9434 0.5671 0.1420
C39 C 0.8794(13) 0.6396(13) 0.1193(9)
H39 H 0.8313 0.6312 0.0901
C40 C 0.849(2) 0.7380(10) 0.1265(12)
C41 C 0.783(2) 0.7534(13) 0.1593(12)
C42 C 0.7428(12) 0.8033(9) 0.1386(10)
H40 H 0.6972 0.8164 0.1568
C43 C 0.7702(13) 0.8326(7) 0.0917(9)
C44 C 0.8365(15) 0.8151(9) 0.0609(7)
H41 H 0.8517 0.8353 0.0293
C45 C 0.8794(12) 0.7672(9) 0.0779(12)
C46 C 0.7214(14) 0.8870(8) 0.0803(9)
C47 C 0.9585(18) 0.6143(9) 0.3089(10)
H42 H 0.9245 0.6312 0.2730
C48 C 0.9662(15) 0.6564(11) 0.3632(12)
H44 H 0.9122 0.6571 0.3791
H45 H 0.9777 0.6914 0.3485
C49 C 0.9057(19) 0.5656(12) 0.3254(14)
H46 H 0.9339 0.5332 0.3160
H47 H 0.8475 0.5669 0.3025
H48 H 0.9029 0.5664 0.3680
C53 C 0.7587(15) 0.7156(8) 0.2076(12)
H56 H 0.7944 0.6831 0.2105
C54 C 0.6598(16) 0.7016(11) 0.1931(13)
H57 H 0.6259 0.7340 0.1892
H58 H 0.6441 0.6802 0.2253
H59 H 0.6483 0.6818 0.1558
C55 C 0.7773(16) 0.7487(9) 0.2700(12)
H60 H 0.8312 0.7682 0.2722
H61 H 0.7817 0.7244 0.3036
H62 H 0.7301 0.7734 0.2716
C56 C 0.9515(16) 0.7505(8) 0.0416(11)
H63 H 0.9760 0.7165 0.0586
Ce1 Ce 0.62493(5) 0.98240(3) 0.04276(3)
N3 N 0.9870(12) 0.6346(9) 0.1888(9)
N4 N 0.9023(10) 0.6886(9) 0.1397(8)
O7 O 0.7386(6) 0.9094(4) 0.0330(6)
O8 O 0.6703(8) 0.9032(4) 0.1125(5)
O9 O 0.4764(8) 0.9903(3) 0.0701(4)
H9 H 0.4108 0.9999 0.6832
C57 C 0.9143(16) 0.7408(11) 0.9768(11)
H64 H 0.8997 0.7745 0.9569
H65 H 0.8625 0.7193 0.9743
H66 H 0.9567 0.7225 0.9575
O11 O 0.5475(9) 0.9040(4) 0.9969(5)
C25_2 C 0.6365(13) 0.6980(8) 0.0042(11)
H23_2 H 0.6751 0.6678 0.0051
H24_2 H 0.5919 0.6903 0.0280
H25_2 H 0.6693 0.7289 0.0206
C1_2 C 0.4078(14) 0.5170(6) 0.5894(9)
C2_2 C 0.4094(17) 0.5399(6) 0.6501(10)
C3_2 C 0.4875(14) 0.5467(7) 0.6904(13)
H1_2 H 0.5398 0.5352 0.6794
C4_2 C 0.4883(17) 0.5704(7) 0.7466(11)
C5_2 C 0.410(2) 0.5876(7) 0.7605(10)
C6_2 C 0.3312(16) 0.5837(7) 0.7219(13)
C7_2 C 0.3334(15) 0.5585(8) 0.6662(10)
H2_2 H 0.2814 0.5543 0.6391
C8_2 C 0.4245(10) 0.6653(11) 0.8244(9)
H3_2 H 0.4335 0.6893 0.7943
C9_2 C 0.4007(11) 0.5906(7) 0.8705(12)
H4_2 H 0.3920 0.5546 0.8782
C10_2 C 0.4051(11) 0.6327(11) 0.9112(8)
H5_2 H 0.3977 0.6305 0.9515
C11_2 C 0.4321(16) 0.7287(5) 0.9094(5)
C12_2 C 0.5145(11) 0.7467(8) 0.9359(6)
C13_2 C 0.5253(9) 0.7990(9) 0.9573(5)
H6_2 H 0.5804 0.8110 0.9750
C14_2 C 0.4536(15) 0.8332(5) 0.9522(5)
C15_2 C 0.3711(11) 0.8151(8) 0.9257(6)
H7_2 H 0.3232 0.8380 0.9222
C16_2 C 0.3604(9) 0.7629(9) 0.9042(5)
C17_2 C 0.4685(16) 0.8926(7) 0.9738(7)
C18_2 C 0.5779(13) 0.5775(7) 0.7896(8)
H8_2 H 0.5656 0.5893 0.8292
C19_2 C 0.6243(13) 0.5248(9) 0.7987(8)
H9_2 H 0.5892 0.4999 0.8168
H10_2 H 0.6796 0.5296 0.8249
H11_2 H 0.6341 0.5112 0.7602
C20_2 C 0.6317(11) 0.6235(8) 0.7638(8)
H12_2 H 0.6763 0.6365 0.7956
H13_2 H 0.5930 0.6523 0.7489
H14_2 H 0.6586 0.6095 0.7313
C21_2 C 0.2492(17) 0.6084(10) 0.7369(9)
H15_2 H 0.2632 0.6210 0.7789
C22_2 C 0.1778(17) 0.5705(12) 0.7350(13)
H16_2 H 0.1466 0.5680 0.6942
H17_2 H 0.1387 0.5825 0.7613
H18_2 H 0.2009 0.5360 0.7481
C23_2 C 0.2248(17) 0.6598(13) 0.6963(14)
H19_2 H 0.2266 0.6511 0.6546
H20_2 H 0.2661 0.6878 0.7093
H21_2 H 0.1670 0.6715 0.7002
C24_2 C 0.5938(13) 0.7094(7) 0.9383(9)
H22_2 H 0.5728 0.6753 0.9197
C26_2 C 0.6599(13) 0.7342(9) 0.8993(11)
H26_2 H 0.6897 0.7640 0.9205
H27_2 H 0.6283 0.7460 0.8610
H28_2 H 0.7019 0.7075 0.8926
C27_2 C 0.2636(14) 0.7460(7) 0.8754(10)
H29_2 H 0.2648 0.7077 0.8660
C28_2 C 0.2452(14) 0.7749(9) 0.8170(12)
H30_2 H 0.1933 0.7605 0.7928
H31_2 H 0.2938 0.7708 0.7957
H32_2 H 0.2365 0.8122 0.8244
C29_2 C 0.2042(14) 0.7529(10) 0.9207(12)
H33_2 H 0.1998 0.7902 0.9300
H34_2 H 0.2274 0.7336 0.9570
H35_2 H 0.1472 0.7392 0.9044
C37_2 C 0.0295(13) 0.1864(10) 0.3120(7)
C38_2 C 0.0615(17) 0.1036(8) 0.3513(11)
H38_2 H 0.0566 0.0671 0.3580
C39_2 C 0.1206(13) 0.1396(13) 0.3807(9)
H39_2 H 0.1687 0.1312 0.4099
C40_2 C 0.151(2) 0.2380(10) 0.3735(12)
C41_2 C 0.217(2) 0.2534(13) 0.3407(12)
C42_2 C 0.2572(12) 0.3033(9) 0.3614(10)
H40_2 H 0.3028 0.3164 0.3432
C43_2 C 0.2298(13) 0.3326(7) 0.4083(9)
C44_2 C 0.1635(15) 0.3151(9) 0.4391(7)
H41_2 H 0.1483 0.3353 0.4707
C45_2 C 0.1206(12) 0.2672(9) 0.4221(12)
C46_2 C 0.2786(14) 0.3870(8) 0.4197(9)
C47_2 C 0.0415(18) 0.1143(9) 0.1911(10)
H42_2 H 0.0755 0.1312 0.2270
C48_2 C 0.0338(15) 0.1564(11) 0.1368(12)
H44_2 H 0.0878 0.1571 0.1209
H45_2 H 0.0223 0.1914 0.1515
C49_2 C 0.0943(19) 0.0656(12) 0.1746(14)
H46_2 H 0.0661 0.0332 0.1840
H47_2 H 0.1525 0.0669 0.1975
H48_2 H 0.0971 0.0664 0.1320
C53_2 C 0.2413(15) 0.2156(8) 0.2924(12)
H56_2 H 0.2056 0.1831 0.2895
C54_2 C 0.3402(16) 0.2016(11) 0.3069(13)
H57_2 H 0.3741 0.2340 0.3108
H58_2 H 0.3559 0.1802 0.2747
H59_2 H 0.3517 0.1818 0.3442
C55_2 C 0.2227(16) 0.2487(9) 0.2300(12)
H60_2 H 0.1688 0.2682 0.2278
H61_2 H 0.2183 0.2244 0.1964
H62_2 H 0.2699 0.2734 0.2284
C56_2 C 0.0485(16) 0.2505(8) 0.4584(11)
H63_2 H 0.0240 0.2165 0.4414
C57_2 C 0.0857(16) 0.2408(11) 0.5232(11)
H64_2 H 0.1003 0.2745 0.5431
H65_2 H 0.1375 0.2193 0.5257
H66_2 H 0.0433 0.2225 0.5425
N1_2 N 0.4119(7) 0.6135(8) 0.8166(9)
N2_2 N 0.4223(8) 0.6778(6) 0.8812(11)
N3_2 N 0.0130(12) 0.1346(9) 0.3112(9)
N4_2 N 0.0977(10) 0.1886(9) 0.3603(8)
O1_2 O 0.3333(8) 0.5050(3) 0.5585(5)
O2_2 O 0.4764(8) 0.5097(3) 0.5701(4)
O3_2 O 0.4016(8) 0.9222(4) 0.9654(4)
O7_2 O 0.2614(6) 0.4094(4) 0.4670(6)
O8_2 O 0.3297(8) 0.4032(4) 0.3875(5)
O9_2 O 0.5236(8) 0.4903(3) 0.4299(4)
O10_2 O 0.4016(8) 0.5778(4) 0.4654(4)
C30_2 C 0.7497(13) 0.0357(6) 0.1361(9)
C31_2 C 0.8136(16) 0.0634(6) 0.1826(11)
C32_2 C 0.889(2) 0.0763(7) 0.1649(7)
H36_2 H 0.8979 0.0685 0.1256
C33_2 C 0.9557(15) 0.1015(8) 0.2054(16)
C34_2 C 0.9403(17) 0.1129(7) 0.2620(15)
C35_2 C 0.865(2) 0.1022(7) 0.2825(9)
C36_2 C 0.7965(13) 0.0765(8) 0.2408(13)
H37_2 H 0.7426 0.0688 0.2519
H43_2 H 0.9868 0.1462 0.1052
C50_2 C 0.8362(16) 0.1177(11) 0.3439(10)
H49_2 H 0.8907 0.1209 0.3731
C51_2 C 0.791(2) 0.1730(13) 0.3442(12)
H50_2 H 0.8282 0.2003 0.3328
H51_2 H 0.7784 0.1803 0.3841
H52_2 H 0.7366 0.1725 0.3159
C52_2 C 0.781(2) 0.0757(13) 0.3708(12)
H53_2 H 0.7239 0.0738 0.3467
H54_2 H 0.7762 0.0856 0.4116
H55_2 H 0.8091 0.0413 0.3711
C58_2 C 0.9741(18) 0.2914(13) 0.4502(14)
H67_2 H 0.9609 0.3012 0.4892
H68_2 H 0.9231 0.2761 0.4260
H69_2 H 0.9917 0.3227 0.4303
Cl1_2 Cl 0.9580(11) 0.3157(6) 0.2064(8)
Cu1_2 Cu 0.9901(4) 0.2490(3) 0.2603(3)
H70_2 H 0.981324 0.194239 0.341291
H9_3 H 0.5892 0.0001 0.3168
C57_3 C 0.0857(16) 0.2592(11) 0.0232(11)
H64_3 H 0.1003 0.2255 0.0431
H65_3 H 0.1375 0.2807 0.0257
H66_3 H 0.0433 0.2775 0.0425
O11_2 O 0.4525(9) 0.0960(4) 0.0031(5)
C37_3 C 0.0295(13) 0.3136(10) 0.8120(7)
C38_3 C 0.0615(17) 0.3964(8) 0.8513(11)
H38_3 H 0.0566 0.4329 0.8580
C39_3 C 0.1206(13) 0.3604(13) 0.8807(9)
H39_3 H 0.1687 0.3688 0.9099
C40_3 C 0.151(2) 0.2620(10) 0.8735(12)
C41_3 C 0.217(2) 0.2466(13) 0.8407(12)
C42_3 C 0.2572(12) 0.1967(9) 0.8614(10)
H40_3 H 0.3028 0.1836 0.8432
C43_3 C 0.2298(13) 0.1674(7) 0.9083(9)
C44_3 C 0.1635(15) 0.1849(9) 0.9391(7)
H41_3 H 0.1483 0.1647 0.9707
C45_3 C 0.1206(12) 0.2328(9) 0.9221(12)
C46_3 C 0.2786(14) 0.1130(8) 0.9197(9)
C47_3 C 0.0415(18) 0.3857(9) 0.6911(10)
H42_3 H 0.0755 0.3688 0.7270
C48_3 C 0.0338(15) 0.3436(11) 0.6368(12)
H44_3 H 0.0878 0.3429 0.6209
H45_3 H 0.0223 0.3086 0.6515
C49_3 C 0.0943(19) 0.4344(12) 0.6746(14)
H46_3 H 0.0661 0.4668 0.6840
H47_3 H 0.1525 0.4331 0.6975
H48_3 H 0.0971 0.4336 0.6320
C53_3 C 0.2413(15) 0.2844(8) 0.7924(12)
H56_3 H 0.2056 0.3169 0.7895
C54_3 C 0.3402(16) 0.2984(11) 0.8069(13)
H57_3 H 0.3741 0.2660 0.8108
H58_3 H 0.3559 0.3198 0.7747
H59_3 H 0.3517 0.3182 0.8442
C55_3 C 0.2227(16) 0.2513(9) 0.7300(12)
H60_3 H 0.1688 0.2318 0.7278
H61_3 H 0.2183 0.2756 0.6964
H62_3 H 0.2699 0.2266 0.7284
C56_3 C 0.0485(16) 0.2495(8) 0.9584(11)
H63_3 H 0.0240 0.2835 0.9414
N3_3 N 0.0130(12) 0.3654(9) 0.8112(9)
N4_3 N 0.0977(10) 0.3114(9) 0.8603(8)
O7_3 O 0.2614(6) 0.0906(4) 0.9670(6)
O8_3 O 0.3297(8) 0.0968(4) 0.8875(5)
C1_3 C 0.4078(14) 0.9830(6) 0.0894(9)
C2_3 C 0.4094(17) 0.9601(6) 0.1501(10)
C3_3 C 0.4875(14) 0.9533(7) 0.1904(13)
H1_3 H 0.5398 0.9648 0.1794
C4_3 C 0.4883(17) 0.9296(7) 0.2466(11)
C5_3 C 0.410(2) 0.9124(7) 0.2605(10)
C6_3 C 0.3312(16) 0.9163(7) 0.2219(13)
C7_3 C 0.3334(15) 0.9415(8) 0.1662(10)
H2_3 H 0.2814 0.9457 0.1391
C8_3 C 0.4245(10) 0.8347(11) 0.3244(9)
H3_3 H 0.4335 0.8107 0.2943
C9_3 C 0.4007(11) 0.9094(7) 0.3705(12)
H4_3 H 0.3920 0.9454 0.3782
C10_3 C 0.4051(11) 0.8673(11) 0.4112(8)
H5_3 H 0.3977 0.8695 0.4515
C11_3 C 0.4321(16) 0.7713(5) 0.4094(5)
C12_3 C 0.5145(11) 0.7533(8) 0.4359(6)
C13_3 C 0.5253(9) 0.7010(9) 0.4573(5)
H6_3 H 0.5804 0.6890 0.4750
C14_3 C 0.4536(15) 0.6668(5) 0.4522(5)
C15_3 C 0.3711(11) 0.6849(8) 0.4257(6)
H7_3 H 0.3232 0.6620 0.4222
C16_3 C 0.3604(9) 0.7371(9) 0.4042(5)
C17_3 C 0.4685(16) 0.6074(7) 0.4738(7)
C18_3 C 0.5779(13) 0.9225(7) 0.2896(8)
H8_3 H 0.5656 0.9107 0.3292
C19_3 C 0.6243(13) 0.9752(9) 0.2987(8)
H10_3 H 0.6796 0.9704 0.3249
H11_3 H 0.6341 0.9888 0.2602
C20_3 C 0.6317(11) 0.8765(8) 0.2638(8)
H12_3 H 0.6763 0.8635 0.2956
H13_3 H 0.5930 0.8477 0.2489
H14_3 H 0.6586 0.8905 0.2313
C21_3 C 0.2492(17) 0.8916(10) 0.2369(9)
H15_3 H 0.2632 0.8790 0.2789
C22_3 C 0.1778(17) 0.9295(12) 0.2350(13)
H16_3 H 0.1466 0.9320 0.1942
H17_3 H 0.1387 0.9175 0.2613
H18_3 H 0.2009 0.9640 0.2481
C23_3 C 0.2248(17) 0.8402(13) 0.1963(14)
H19_3 H 0.2266 0.8489 0.1546
H20_3 H 0.2661 0.8122 0.2093
H21_3 H 0.1670 0.8285 0.2002
C24_3 C 0.5938(13) 0.7906(7) 0.4383(9)
H22_3 H 0.5728 0.8247 0.4197
C25_3 C 0.6365(13) 0.8020(8) 0.5042(11)
H23_3 H 0.6751 0.8322 0.5051
H24_3 H 0.5919 0.8097 0.5280
H25_3 H 0.6693 0.7711 0.5206
C26_3 C 0.6599(13) 0.7658(9) 0.3993(11)
H26_3 H 0.6897 0.7360 0.4205
H27_3 H 0.6283 0.7540 0.3610
H28_3 H 0.7019 0.7925 0.3926
C27_3 C 0.2636(14) 0.7540(7) 0.3754(10)
H29_3 H 0.2648 0.7923 0.3660
C28_3 C 0.2452(14) 0.7251(9) 0.3170(12)
H30_3 H 0.1933 0.7395 0.2928
H31_3 H 0.2938 0.7292 0.2957
H32_3 H 0.2365 0.6878 0.3244
C29_3 C 0.2042(14) 0.7471(10) 0.4207(12)
H33_3 H 0.1998 0.7098 0.4300
H34_3 H 0.2274 0.7664 0.4570
H35_3 H 0.1472 0.7608 0.4044
N1_3 N 0.4119(7) 0.8865(8) 0.3166(9)
N2_3 N 0.4223(8) 0.8222(6) 0.3812(11)
O1_3 O 0.3333(8) 0.9950(3) 0.0585(5)
O4_2 O 0.5475(9) 0.5960(4) 0.4969(5)
O12_2 O 0.3238(8) 0.9766(4) 0.8505(4)
O13_2 O 0.2314(7) 0.9749(4) 0.9148(6)
C30_3 C 0.7497(13) 0.4643(6) 0.6361(9)
C31_3 C 0.8136(16) 0.4366(6) 0.6826(11)
C32_3 C 0.889(2) 0.4237(7) 0.6649(7)
H36_3 H 0.8979 0.4315 0.6256
C33_3 C 0.9557(15) 0.3985(8) 0.7054(16)
C34_3 C 0.9403(17) 0.3871(7) 0.7620(15)
C35_3 C 0.865(2) 0.3978(7) 0.7825(9)
C36_3 C 0.7965(13) 0.4235(8) 0.7408(13)
H37_3 H 0.7426 0.4312 0.7519
H43_3 H 0.9868 0.3538 0.6052
C50_3 C 0.8362(16) 0.3823(11) 0.8439(10)
H49_3 H 0.8907 0.3791 0.8731
C51_3 C 0.791(2) 0.3270(13) 0.8442(12)
H50_3 H 0.8282 0.2997 0.8328
H51_3 H 0.7784 0.3197 0.8841
H52_3 H 0.7366 0.3275 0.8159
C52_3 C 0.781(2) 0.4243(13) 0.8708(12)
H53_3 H 0.7239 0.4262 0.8467
H54_3 H 0.7762 0.4144 0.9116
H55_3 H 0.8091 0.4587 0.8711
C58_3 C 0.9741(18) 0.2086(13) 0.9502(14)
H67_3 H 0.9609 0.1988 0.9892
H68_3 H 0.9231 0.2239 0.9260
H69_3 H 0.9917 0.1773 0.9303
Cl1_3 Cl 0.9580(11) 0.1843(6) 0.7064(8)
Cu1_3 Cu 0.9901(4) 0.2510(3) 0.7603(3)
O5_2 O 0.6762(8) 0.4766(4) 0.6495(4)
O6_2 O 0.7686(7) 0.4749(4) 0.5852(6)
H70_3 H 0.981324 0.305761 0.841291
C30_4 C 0.2503(13) 0.9643(6) 0.8639(9)
C31_4 C 0.1864(16) 0.9366(6) 0.8174(11)
C32_4 C 0.111(2) 0.9237(7) 0.8351(7)
H36_4 H 0.1021 0.9315 0.8744
C33_4 C 0.0443(15) 0.8985(8) 0.7946(16)
C34_4 C 0.0597(17) 0.8871(7) 0.7380(15)
C35_4 C 0.135(2) 0.8978(7) 0.7175(9)
C36_4 C 0.2035(13) 0.9235(8) 0.7592(13)
H37_4 H 0.2574 0.9312 0.7481
H43_4 H 0.0132 0.8538 0.8948
C50_4 C 0.1638(16) 0.8823(11) 0.6561(10)
H49_4 H 0.1093 0.8791 0.6269
C51_4 C 0.209(2) 0.8270(13) 0.6558(12)
H50_4 H 0.1718 0.7997 0.6672
H51_4 H 0.2216 0.8197 0.6159
H52_4 H 0.2634 0.8275 0.6841
C52_4 C 0.219(2) 0.9243(13) 0.6292(12)
H53_4 H 0.2761 0.9262 0.6533
H54_4 H 0.2238 0.9144 0.5884
H55_4 H 0.1909 0.9587 0.6289
C58_4 C 0.0259(18) 0.7086(13) 0.5498(14)
H67_4 H 0.0391 0.6988 0.5108
H68_4 H 0.0769 0.7239 0.5740
H69_4 H 0.0083 0.6773 0.5697
Cl1_4 Cl 0.0420(11) 0.6843(6) 0.7936(8)
Cu1_4 Cu 0.0099(4) 0.7510(3) 0.7397(3)
H70_4 H 0.0186759 0.805761 0.658709
C1_4 C 0.5922(14) 0.4830(6) 0.4106(9)
C2_4 C 0.5906(17) 0.4601(6) 0.3499(10)
C3_4 C 0.5125(14) 0.4533(7) 0.3096(13)
H1_4 H 0.4602 0.4648 0.3206
C4_4 C 0.5117(17) 0.4296(7) 0.2534(11)
C5_4 C 0.590(2) 0.4124(7) 0.2395(10)
C6_4 C 0.6688(16) 0.4163(7) 0.2781(13)
C7_4 C 0.6666(15) 0.4415(8) 0.3338(10)
H2_4 H 0.7186 0.4457 0.3609
C8_4 C 0.5755(10) 0.3347(11) 0.1756(9)
H3_4 H 0.5665 0.3107 0.2057
C9_4 C 0.5993(11) 0.4094(7) 0.1295(12)
H4_4 H 0.6080 0.4454 0.1218
C10_4 C 0.5949(11) 0.3673(11) 0.0888(8)
H5_4 H 0.6023 0.3695 0.0485
C11_4 C 0.5679(16) 0.2713(5) 0.0906(5)
C12_4 C 0.4855(11) 0.2533(8) 0.0641(6)
C13_4 C 0.4747(9) 0.2010(9) 0.0427(5)
H6_4 H 0.4196 0.1890 0.0250
C14_4 C 0.5464(15) 0.1668(5) 0.0478(5)
C15_4 C 0.6289(11) 0.1849(8) 0.0743(6)
H7_4 H 0.6768 0.1620 0.0778
C16_4 C 0.6396(9) 0.2371(9) 0.0958(5)
C17_4 C 0.5315(16) 0.1074(7) 0.0262(7)
C18_4 C 0.4221(13) 0.4225(7) 0.2104(8)
H8_4 H 0.4344 0.4107 0.1708
C19_4 C 0.3757(13) 0.4752(9) 0.2013(8)
H9_4 H 0.4108 0.5001 0.1832
H10_4 H 0.3204 0.4704 0.1751
H11_4 H 0.3659 0.4888 0.2398
C20_4 C 0.3683(11) 0.3765(8) 0.2362(8)
H12_4 H 0.3237 0.3635 0.2044
H13_4 H 0.4070 0.3477 0.2511
H14_4 H 0.3414 0.3905 0.2687
C21_4 C 0.7508(17) 0.3916(10) 0.2631(9)
H15_4 H 0.7368 0.3790 0.2211
C22_4 C 0.8222(17) 0.4295(12) 0.2650(13)
H16_4 H 0.8534 0.4320 0.3058
H17_4 H 0.8613 0.4175 0.2387
H18_4 H 0.7991 0.4640 0.2519
C23_4 C 0.7752(17) 0.3402(13) 0.3037(14)
H19_4 H 0.7734 0.3489 0.3454
H20_4 H 0.7339 0.3122 0.2907
H21_4 H 0.8330 0.3285 0.2998
C24_4 C 0.4062(13) 0.2906(7) 0.0617(9)
H22_4 H 0.4272 0.3247 0.0803
C26_4 C 0.3401(13) 0.2658(9) 0.1007(11)
H26_4 H 0.3103 0.2360 0.0795
H27_4 H 0.3717 0.2540 0.1390
H28_4 H 0.2981 0.2925 0.1074
C27_4 C 0.7364(14) 0.2540(7) 0.1246(10)
H29_4 H 0.7352 0.2923 0.1340
C28_4 C 0.7548(14) 0.2251(9) 0.1830(12)
H30_4 H 0.8067 0.2395 0.2072
H31_4 H 0.7062 0.2292 0.2043
H32_4 H 0.7635 0.1878 0.1756
C29_4 C 0.7958(14) 0.2471(10) 0.0793(12)
H33_4 H 0.8002 0.2098 0.0700
H34_4 H 0.7726 0.2664 0.0430
H35_4 H 0.8528 0.2608 0.0956
C37_4 C 0.9705(13) 0.8136(10) 0.6880(7)
C38_4 C 0.9385(17) 0.8964(8) 0.6487(11)
H38_4 H 0.9434 0.9329 0.6420
C39_4 C 0.8794(13) 0.8604(13) 0.6193(9)
H39_4 H 0.8313 0.8688 0.5901
C40_4 C 0.849(2) 0.7620(10) 0.6265(12)
C41_4 C 0.783(2) 0.7466(13) 0.6593(12)
C42_4 C 0.7428(12) 0.6967(9) 0.6386(10)
H40_4 H 0.6972 0.6836 0.6568
C43_4 C 0.7702(13) 0.6674(7) 0.5917(9)
C44_4 C 0.8365(15) 0.6849(9) 0.5609(7)
H41_4 H 0.8517 0.6647 0.5293
C45_4 C 0.8794(12) 0.7328(9) 0.5779(12)
C46_4 C 0.7214(14) 0.6130(8) 0.5803(9)
C47_4 C 0.9585(18) 0.8857(9) 0.8089(10)
H42_4 H 0.9245 0.8688 0.7730
C48_4 C 0.9662(15) 0.8436(11) 0.8632(12)
H44_4 H 0.9122 0.8429 0.8791
H45_4 H 0.9777 0.8086 0.8485
C49_4 C 0.9057(19) 0.9344(12) 0.8254(14)
H46_4 H 0.9339 0.9668 0.8160
H47_4 H 0.8475 0.9331 0.8025
H48_4 H 0.9029 0.9336 0.8680
C53_4 C 0.7587(15) 0.7844(8) 0.7076(12)
H56_4 H 0.7944 0.8169 0.7105
C54_4 C 0.6598(16) 0.7984(11) 0.6931(13)
H57_4 H 0.6259 0.7660 0.6892
H58_4 H 0.6441 0.8198 0.7253
H59_4 H 0.6483 0.8182 0.6558
C55_4 C 0.7773(16) 0.7513(9) 0.7700(12)
H60_4 H 0.8312 0.7318 0.7722
H61_4 H 0.7817 0.7756 0.8036
H62_4 H 0.7301 0.7266 0.7716
C56_4 C 0.9515(16) 0.7495(8) 0.5416(11)
H63_4 H 0.9760 0.7835 0.5586
C57_4 C 0.9143(16) 0.7592(11) 0.4768(11)
H64_4 H 0.8997 0.7255 0.4569
H65_4 H 0.8625 0.7807 0.4743
H66_4 H 0.9567 0.7775 0.4575
N1_4 N 0.5881(7) 0.3865(8) 0.1834(9)
N2_4 N 0.5777(8) 0.3222(6) 0.1188(11)
N3_4 N 0.9870(12) 0.8654(9) 0.6888(9)
N4_4 N 0.9023(10) 0.8114(9) 0.6397(8)
O1_4 O 0.6667(8) 0.4950(3) 0.4415(5)
O7_4 O 0.7386(6) 0.5906(4) 0.5330(6)
O8_4 O 0.6703(8) 0.5968(4) 0.6125(5)
C25_4 C 0.3635(13) 0.3020(8) 0.9958(11)
H23_4 H 0.3249 0.3322 0.9949
H24_4 H 0.4081 0.3097 0.9720
H25_4 H 0.3307 0.2711 0.9794
loop_
_geom_bond_atom_site_label_1
_geom_bond_atom_site_label_2
_geom_bond_site_symmetry_1
_geom_bond_site_symmetry_2
C30 C31 1_555 1_555
C31 C32 1_555 1_555
C32 H36 1_555 1_555
C33 C32 1_555 1_555
C34 C33 1_555 1_555
C35 C34 1_555 1_555
C36 C31 1_555 1_555
H37 C36 1_555 1_555
C50 C35 1_555 1_555
H49 C50 1_555 1_555
C51 C50 1_555 1_555
H50 C51 1_555 1_555
H51 C51 1_555 1_555
H52 C51 1_555 1_555
C52 C50 1_555 1_555
H53 C52 1_555 1_555
H54 C52 1_555 1_555
H55 C52 1_555 1_555
H67 C58 1_555 1_555
H68 C58 1_555 1_555
H69 C58 1_555 1_555
Cl1 Cu1 1_555 1_555
O5 C30 1_555 1_555
O6 C30 1_555 1_555
Ce5 O5 1_555 1_555
C35 C36 1_555 1_555
O6 Ce5 1_555 1_555
C1 C2 1_555 1_555
C2 C3 1_555 1_555
C3 H1 1_555 1_555
C4 C3 1_555 1_555
C5 C4 1_555 1_555
C6 C5 1_555 1_555
C7 C2 1_555 1_555
H2 C7 1_555 1_555
C8 H3 1_555 1_555
C9 H4 1_555 1_555
C10 C9 1_555 1_555
H5 C10 1_555 1_555
C11 C12 1_555 1_555
C12 C13 1_555 1_555
C13 H6 1_555 1_555
C14 C13 1_555 1_555
C15 C14 1_555 1_555
H7 C15 1_555 1_555
C16 C11 1_555 1_555
C17 C14 1_555 1_555
C18 C4 1_555 1_555
H8 C18 1_555 1_555
C19 C18 1_555 1_555
H10 C19 1_555 1_555
H11 C19 1_555 1_555
C20 C18 1_555 1_555
H12 C20 1_555 1_555
H13 C20 1_555 1_555
H14 C20 1_555 1_555
C21 C6 1_555 1_555
H15 C21 1_555 1_555
C22 C21 1_555 1_555
H16 C22 1_555 1_555
H17 C22 1_555 1_555
H18 C22 1_555 1_555
C23 C21 1_555 1_555
H19 C23 1_555 1_555
H20 C23 1_555 1_555
H21 C23 1_555 1_555
C24 C12 1_555 1_555
H22 C24 1_555 1_555
C25 C24 1_555 1_555
H23 C25 1_555 1_555
H24 C25 1_555 1_555
H25 C25 1_555 1_555
C26 C24 1_555 1_555
H26 C26 1_555 1_555
H27 C26 1_555 1_555
H28 C26 1_555 1_555
C27 C16 1_555 1_555
H29 C27 1_555 1_555
C28 C27 1_555 1_555
H30 C28 1_555 1_555
H31 C28 1_555 1_555
H32 C28 1_555 1_555
C29 C27 1_555 1_555
H33 C29 1_555 1_555
H34 C29 1_555 1_555
H35 C29 1_555 1_555
N1 C5 1_555 1_555
N2 C8 1_555 1_555
O1 C1 1_555 1_555
O2 C1 1_555 1_555
O3 C17 1_555 1_555
O4 C17 1_555 1_555
Ce2 O2 1_555 1_555
Ce3 O3 1_555 1_555
Ce5 O4 1_555 1_555
C6 C7 1_555 1_555
C8 N1 1_555 1_555
C9 N1 1_555 1_555
C10 N2 1_555 1_555
C11 N2 1_555 1_555
C15 C16 1_555 1_555
C38 H38 1_555 1_555
C39 C38 1_555 1_555
H39 C39 1_555 1_555
C40 C41 1_555 1_555
C41 C42 1_555 1_555
C42 H40 1_555 1_555
C43 C42 1_555 1_555
C44 C43 1_555 1_555
H41 C44 1_555 1_555
C45 C40 1_555 1_555
C46 C43 1_555 1_555
H42 C47 1_555 1_555
C48 C47 1_555 1_555
H44 C48 1_555 1_555
H45 C48 1_555 1_555
C49 C47 1_555 1_555
H46 C49 1_555 1_555
H47 C49 1_555 1_555
H48 C49 1_555 1_555
C53 C41 1_555 1_555
H56 C53 1_555 1_555
C54 C53 1_555 1_555
H57 C54 1_555 1_555
H58 C54 1_555 1_555
H59 C54 1_555 1_555
C55 C53 1_555 1_555
H60 C55 1_555 1_555
H61 C55 1_555 1_555
H62 C55 1_555 1_555
C56 C45 1_555 1_555
H63 C56 1_555 1_555
N4 C37 1_555 1_555
O7 C46 1_555 1_555
O8 C46 1_555 1_555
O9 Ce1 1_555 1_555
C37 N3 1_555 1_555
C38 N3 1_555 1_555
C39 N4 1_555 1_555
C40 N4 1_555 1_555
C44 C45 1_555 1_555
Ce1 O7 1_555 1_555
Ce1 O8 1_555 1_555
H64 C57 1_555 1_555
H65 C57 1_555 1_555
H66 C57 1_555 1_555
H23_2 C25_2 1_555 1_555
H24_2 C25_2 1_555 1_555
H25_2 C25_2 1_555 1_555
C1_2 C2_2 1_555 1_555
C2_2 C3_2 1_555 1_555
C3_2 H1_2 1_555 1_555
C4_2 C3_2 1_555 1_555
C5_2 C4_2 1_555 1_555
C6_2 C5_2 1_555 1_555
C7_2 C2_2 1_555 1_555
H2_2 C7_2 1_555 1_555
C8_2 H3_2 1_555 1_555
C9_2 H4_2 1_555 1_555
C10_2 C9_2 1_555 1_555
H5_2 C10_2 1_555 1_555
C11_2 C12_2 1_555 1_555
C12_2 C13_2 1_555 1_555
C13_2 H6_2 1_555 1_555
C14_2 C13_2 1_555 1_555
C15_2 C14_2 1_555 1_555
H7_2 C15_2 1_555 1_555
C16_2 C11_2 1_555 1_555
C17_2 C14_2 1_555 1_555
C18_2 C4_2 1_555 1_555
H8_2 C18_2 1_555 1_555
C19_2 C18_2 1_555 1_555
H9_2 C19_2 1_555 1_555
H10_2 C19_2 1_555 1_555
H11_2 C19_2 1_555 1_555
C20_2 C18_2 1_555 1_555
H12_2 C20_2 1_555 1_555
H13_2 C20_2 1_555 1_555
H14_2 C20_2 1_555 1_555
C21_2 C6_2 1_555 1_555
H15_2 C21_2 1_555 1_555
C22_2 C21_2 1_555 1_555
H16_2 C22_2 1_555 1_555
H17_2 C22_2 1_555 1_555
H18_2 C22_2 1_555 1_555
C23_2 C21_2 1_555 1_555
H19_2 C23_2 1_555 1_555
H20_2 C23_2 1_555 1_555
H21_2 C23_2 1_555 1_555
C24_2 C12_2 1_555 1_555
H22_2 C24_2 1_555 1_555
C26_2 C24_2 1_555 1_555
H26_2 C26_2 1_555 1_555
H27_2 C26_2 1_555 1_555
H28_2 C26_2 1_555 1_555
C27_2 C16_2 1_555 1_555
H29_2 C27_2 1_555 1_555
C28_2 C27_2 1_555 1_555
H30_2 C28_2 1_555 1_555
H31_2 C28_2 1_555 1_555
H32_2 C28_2 1_555 1_555
C29_2 C27_2 1_555 1_555
H33_2 C29_2 1_555 1_555
H34_2 C29_2 1_555 1_555
H35_2 C29_2 1_555 1_555
C38_2 H38_2 1_555 1_555
C39_2 C38_2 1_555 1_555
H39_2 C39_2 1_555 1_555
C40_2 C41_2 1_555 1_555
C41_2 C42_2 1_555 1_555
C42_2 H40_2 1_555 1_555
C43_2 C42_2 1_555 1_555
C44_2 C43_2 1_555 1_555
H41_2 C44_2 1_555 1_555
C45_2 C40_2 1_555 1_555
C46_2 C43_2 1_555 1_555
H42_2 C47_2 1_555 1_555
C48_2 C47_2 1_555 1_555
H44_2 C48_2 1_555 1_555
H45_2 C48_2 1_555 1_555
C49_2 C47_2 1_555 1_555
H46_2 C49_2 1_555 1_555
H47_2 C49_2 1_555 1_555
H48_2 C49_2 1_555 1_555
C53_2 C41_2 1_555 1_555
H56_2 C53_2 1_555 1_555
C54_2 C53_2 1_555 1_555
H57_2 C54_2 1_555 1_555
H58_2 C54_2 1_555 1_555
H59_2 C54_2 1_555 1_555
C55_2 C53_2 1_555 1_555
H60_2 C55_2 1_555 1_555
H61_2 C55_2 1_555 1_555
H62_2 C55_2 1_555 1_555
C56_2 C45_2 1_555 1_555
H63_2 C56_2 1_555 1_555
C57_2 C56_2 1_555 1_555
H64_2 C57_2 1_555 1_555
H65_2 C57_2 1_555 1_555
H66_2 C57_2 1_555 1_555
Ce5 O1_2 1_555 1_555
N1_2 C5_2 1_555 1_555
N2_2 C8_2 1_555 1_555
N4_2 C37_2 1_555 1_555
O1_2 C1_2 1_555 1_555
O2_2 C1_2 1_555 1_555
O3_2 C17_2 1_555 1_555
O11 C17_2 1_555 1_555
O7_2 C46_2 1_555 1_555
O8_2 C46_2 1_555 1_555
Ce3 O2_2 1_555 1_555
O9_2 Ce5 1_555 1_555
O10_2 Ce5 1_555 1_555
C6_2 C7_2 1_555 1_555
C8_2 N1_2 1_555 1_555
C9_2 N1_2 1_555 1_555
C10_2 N2_2 1_555 1_555
C11_2 N2_2 1_555 1_555
C15_2 C16_2 1_555 1_555
C37_2 N3_2 1_555 1_555
C38_2 N3_2 1_555 1_555
C39_2 N4_2 1_555 1_555
C40_2 N4_2 1_555 1_555
C44_2 C45_2 1_555 1_555
Ce5 O7_2 1_555 1_555
Ce5 O8_2 1_555 1_555
C30_2 C31_2 1_555 1_555
C31_2 C32_2 1_555 1_555
C32_2 H36_2 1_555 1_555
C33_2 C32_2 1_555 1_555
C34_2 C33_2 1_555 1_555
C35_2 C34_2 1_555 1_555
C36_2 C31_2 1_555 1_555
H37_2 C36_2 1_555 1_555
C50_2 C35_2 1_555 1_555
H49_2 C50_2 1_555 1_555
C51_2 C50_2 1_555 1_555
H50_2 C51_2 1_555 1_555
H51_2 C51_2 1_555 1_555
H52_2 C51_2 1_555 1_555
C52_2 C50_2 1_555 1_555
H53_2 C52_2 1_555 1_555
H54_2 C52_2 1_555 1_555
H55_2 C52_2 1_555 1_555
H67_2 C58_2 1_555 1_555
H68_2 C58_2 1_555 1_555
H69_2 C58_2 1_555 1_555
Cl1_2 Cu1_2 1_555 1_555
O12 C30_2 1_555 1_555
O13 C30_2 1_555 1_555
C35_2 C36_2 1_555 1_555
H64_3 C57_3 1_555 1_555
H65_3 C57_3 1_555 1_555
H66_3 C57_3 1_555 1_555
C38_3 H38_3 1_555 1_555
C39_3 C38_3 1_555 1_555
H39_3 C39_3 1_555 1_555
C40_3 C41_3 1_555 1_555
C41_3 C42_3 1_555 1_555
C42_3 H40_3 1_555 1_555
C43_3 C42_3 1_555 1_555
C44_3 C43_3 1_555 1_555
H41_3 C44_3 1_555 1_555
C45_3 C40_3 1_555 1_555
C46_3 C43_3 1_555 1_555
H42_3 C47_3 1_555 1_555
C48_3 C47_3 1_555 1_555
H44_3 C48_3 1_555 1_555
H45_3 C48_3 1_555 1_555
C49_3 C47_3 1_555 1_555
H46_3 C49_3 1_555 1_555
H47_3 C49_3 1_555 1_555
H48_3 C49_3 1_555 1_555
C53_3 C41_3 1_555 1_555
H56_3 C53_3 1_555 1_555
C54_3 C53_3 1_555 1_555
H57_3 C54_3 1_555 1_555
H58_3 C54_3 1_555 1_555
H59_3 C54_3 1_555 1_555
C55_3 C53_3 1_555 1_555
H60_3 C55_3 1_555 1_555
H61_3 C55_3 1_555 1_555
H62_3 C55_3 1_555 1_555
C56_3 C45_3 1_555 1_555
H63_3 C56_3 1_555 1_555
N4_3 C37_3 1_555 1_555
O7_3 C46_3 1_555 1_555
O8_3 C46_3 1_555 1_555
C37_3 N3_3 1_555 1_555
C38_3 N3_3 1_555 1_555
C39_3 N4_3 1_555 1_555
C40_3 N4_3 1_555 1_555
C44_3 C45_3 1_555 1_555
Ce2 O7_3 1_555 1_555
Ce2 O8_3 1_555 1_555
C1_3 C2_3 1_555 1_555
C2_3 C3_3 1_555 1_555
C3_3 H1_3 1_555 1_555
C4_3 C3_3 1_555 1_555
C5_3 C4_3 1_555 1_555
C6_3 C5_3 1_555 1_555
C7_3 C2_3 1_555 1_555
H2_3 C7_3 1_555 1_555
C8_3 H3_3 1_555 1_555
C9_3 H4_3 1_555 1_555
C10_3 C9_3 1_555 1_555
H5_3 C10_3 1_555 1_555
C11_3 C12_3 1_555 1_555
C12_3 C13_3 1_555 1_555
C13_3 H6_3 1_555 1_555
C14_3 C13_3 1_555 1_555
C15_3 C14_3 1_555 1_555
H7_3 C15_3 1_555 1_555
C16_3 C11_3 1_555 1_555
C17_3 C14_3 1_555 1_555
C18_3 C4_3 1_555 1_555
H8_3 C18_3 1_555 1_555
C19_3 C18_3 1_555 1_555
H10_3 C19_3 1_555 1_555
H11_3 C19_3 1_555 1_555
C20_3 C18_3 1_555 1_555
H12_3 C20_3 1_555 1_555
H13_3 C20_3 1_555 1_555
H14_3 C20_3 1_555 1_555
C21_3 C6_3 1_555 1_555
H15_3 C21_3 1_555 1_555
C22_3 C21_3 1_555 1_555
H16_3 C22_3 1_555 1_555
H17_3 C22_3 1_555 1_555
H18_3 C22_3 1_555 1_555
C23_3 C21_3 1_555 1_555
H19_3 C23_3 1_555 1_555
H20_3 C23_3 1_555 1_555
H21_3 C23_3 1_555 1_555
C24_3 C12_3 1_555 1_555
H22_3 C24_3 1_555 1_555
C25_3 C24_3 1_555 1_555
H23_3 C25_3 1_555 1_555
H24_3 C25_3 1_555 1_555
H25_3 C25_3 1_555 1_555
C26_3 C24_3 1_555 1_555
H26_3 C26_3 1_555 1_555
H27_3 C26_3 1_555 1_555
H28_3 C26_3 1_555 1_555
C27_3 C16_3 1_555 1_555
H29_3 C27_3 1_555 1_555
C28_3 C27_3 1_555 1_555
H30_3 C28_3 1_555 1_555
H31_3 C28_3 1_555 1_555
H32_3 C28_3 1_555 1_555
C29_3 C27_3 1_555 1_555
H33_3 C29_3 1_555 1_555
H34_3 C29_3 1_555 1_555
H35_3 C29_3 1_555 1_555
N1_3 C5_3 1_555 1_555
N2_3 C8_3 1_555 1_555
O1_3 C1_3 1_555 1_555
O9 C1_3 1_555 1_555
O10_2 C17_3 1_555 1_555
O4_2 C17_3 1_555 1_555
Ce3 O4_2 1_555 1_555
C6_3 C7_3 1_555 1_555
C8_3 N1_3 1_555 1_555
C9_3 N1_3 1_555 1_555
C10_3 N2_3 1_555 1_555
C11_3 N2_3 1_555 1_555
C15_3 C16_3 1_555 1_555
C30_3 C31_3 1_555 1_555
C31_3 C32_3 1_555 1_555
C32_3 H36_3 1_555 1_555
C33_3 C32_3 1_555 1_555
C34_3 C33_3 1_555 1_555
C35_3 C34_3 1_555 1_555
C36_3 C31_3 1_555 1_555
H37_3 C36_3 1_555 1_555
C50_3 C35_3 1_555 1_555
H49_3 C50_3 1_555 1_555
C51_3 C50_3 1_555 1_555
H50_3 C51_3 1_555 1_555
H51_3 C51_3 1_555 1_555
H52_3 C51_3 1_555 1_555
C52_3 C50_3 1_555 1_555
H53_3 C52_3 1_555 1_555
H54_3 C52_3 1_555 1_555
H55_3 C52_3 1_555 1_555
H67_3 C58_3 1_555 1_555
H68_3 C58_3 1_555 1_555
H69_3 C58_3 1_555 1_555
Cl1_3 Cu1_3 1_555 1_555
O5_2 C30_3 1_555 1_555
O6_2 C30_3 1_555 1_555
Ce3 O5_2 1_555 1_555
C35_3 C36_3 1_555 1_555
O6_2 Ce3 1_555 1_555
C30_4 C31_4 1_555 1_555
C31_4 C32_4 1_555 1_555
C32_4 H36_4 1_555 1_555
C33_4 C32_4 1_555 1_555
C34_4 C33_4 1_555 1_555
C35_4 C34_4 1_555 1_555
C36_4 C31_4 1_555 1_555
H37_4 C36_4 1_555 1_555
C50_4 C35_4 1_555 1_555
H49_4 C50_4 1_555 1_555
C51_4 C50_4 1_555 1_555
H50_4 C51_4 1_555 1_555
H51_4 C51_4 1_555 1_555
H52_4 C51_4 1_555 1_555
C52_4 C50_4 1_555 1_555
H53_4 C52_4 1_555 1_555
H54_4 C52_4 1_555 1_555
H55_4 C52_4 1_555 1_555
H67_4 C58_4 1_555 1_555
H68_4 C58_4 1_555 1_555
H69_4 C58_4 1_555 1_555
Cl1_4 Cu1_4 1_555 1_555
O12_2 C30_4 1_555 1_555
O13_2 C30_4 1_555 1_555
C35_4 C36_4 1_555 1_555
C1_4 C2_4 1_555 1_555
C2_4 C3_4 1_555 1_555
C3_4 H1_4 1_555 1_555
C4_4 C3_4 1_555 1_555
C5_4 C4_4 1_555 1_555
C6_4 C5_4 1_555 1_555
C7_4 C2_4 1_555 1_555
H2_4 C7_4 1_555 1_555
C8_4 H3_4 1_555 1_555
C9_4 H4_4 1_555 1_555
C10_4 C9_4 1_555 1_555
H5_4 C10_4 1_555 1_555
C11_4 C12_4 1_555 1_555
C12_4 C13_4 1_555 1_555
C13_4 H6_4 1_555 1_555
C14_4 C13_4 1_555 1_555
C15_4 C14_4 1_555 1_555
H7_4 C15_4 1_555 1_555
C16_4 C11_4 1_555 1_555
C17_4 C14_4 1_555 1_555
C18_4 C4_4 1_555 1_555
H8_4 C18_4 1_555 1_555
C19_4 C18_4 1_555 1_555
H9_4 C19_4 1_555 1_555
H10_4 C19_4 1_555 1_555
H11_4 C19_4 1_555 1_555
C20_4 C18_4 1_555 1_555
H12_4 C20_4 1_555 1_555
H13_4 C20_4 1_555 1_555
H14_4 C20_4 1_555 1_555
C21_4 C6_4 1_555 1_555
H15_4 C21_4 1_555 1_555
C22_4 C21_4 1_555 1_555
H16_4 C22_4 1_555 1_555
H17_4 C22_4 1_555 1_555
H18_4 C22_4 1_555 1_555
C23_4 C21_4 1_555 1_555
H19_4 C23_4 1_555 1_555
H20_4 C23_4 1_555 1_555
H21_4 C23_4 1_555 1_555
C24_4 C12_4 1_555 1_555
H22_4 C24_4 1_555 1_555
C26_4 C24_4 1_555 1_555
H26_4 C26_4 1_555 1_555
H27_4 C26_4 1_555 1_555
H28_4 C26_4 1_555 1_555
C27_4 C16_4 1_555 1_555
H29_4 C27_4 1_555 1_555
C28_4 C27_4 1_555 1_555
H30_4 C28_4 1_555 1_555
H31_4 C28_4 1_555 1_555
H32_4 C28_4 1_555 1_555
C29_4 C27_4 1_555 1_555
H33_4 C29_4 1_555 1_555
H34_4 C29_4 1_555 1_555
H35_4 C29_4 1_555 1_555
C38_4 H38_4 1_555 1_555
C39_4 C38_4 1_555 1_555
H39_4 C39_4 1_555 1_555
C40_4 C41_4 1_555 1_555
C41_4 C42_4 1_555 1_555
C42_4 H40_4 1_555 1_555
C43_4 C42_4 1_555 1_555
C44_4 C43_4 1_555 1_555
H41_4 C44_4 1_555 1_555
C45_4 C40_4 1_555 1_555
C46_4 C43_4 1_555 1_555
H42_4 C47_4 1_555 1_555
C48_4 C47_4 1_555 1_555
H44_4 C48_4 1_555 1_555
H45_4 C48_4 1_555 1_555
C49_4 C47_4 1_555 1_555
H46_4 C49_4 1_555 1_555
H47_4 C49_4 1_555 1_555
H48_4 C49_4 1_555 1_555
C53_4 C41_4 1_555 1_555
H56_4 C53_4 1_555 1_555
C54_4 C53_4 1_555 1_555
H57_4 C54_4 1_555 1_555
H58_4 C54_4 1_555 1_555
H59_4 C54_4 1_555 1_555
C55_4 C53_4 1_555 1_555
H60_4 C55_4 1_555 1_555
H61_4 C55_4 1_555 1_555
H62_4 C55_4 1_555 1_555
C56_4 C45_4 1_555 1_555
H63_4 C56_4 1_555 1_555
C57_4 C56_4 1_555 1_555
H64_4 C57_4 1_555 1_555
H65_4 C57_4 1_555 1_555
H66_4 C57_4 1_555 1_555
Ce3 O1_4 1_555 1_555
N1_4 C5_4 1_555 1_555
N2_4 C8_4 1_555 1_555
N4_4 C37_4 1_555 1_555
O1_4 C1_4 1_555 1_555
O9_2 C1_4 1_555 1_555
O10 C17_4 1_555 1_555
O11_2 C17_4 1_555 1_555
O7_4 C46_4 1_555 1_555
O8_4 C46_4 1_555 1_555
C6_4 C7_4 1_555 1_555
C8_4 N1_4 1_555 1_555
C9_4 N1_4 1_555 1_555
C10_4 N2_4 1_555 1_555
C11_4 N2_4 1_555 1_555
C15_4 C16_4 1_555 1_555
C37_4 N3_4 1_555 1_555
C38_4 N3_4 1_555 1_555
C39_4 N4_4 1_555 1_555
C40_4 N4_4 1_555 1_555
C44_4 C45_4 1_555 1_555
Ce3 O7_4 1_555 1_555
Ce3 O8_4 1_555 1_555
H23_4 C25_4 1_555 1_555
H24_4 C25_4 1_555 1_555
H25_4 C25_4 1_555 1_555

#END
