
###############################################################################
#
# This file contains modified crystal structure data generated from the
# MOF subset of the Cambridge Structural Database (CSD) v543 
# hosted by the Cambridge Crystallographic Data Centre (CCDC).
#
# This work is licensed under the Creative Commons
# Attribution-NonCommercial-ShareAlike 4.0 International License.
# To view a copy of this license, visit
# http://creativecommons.org/licenses/by-nc-sa/4.0/
# or send a letter to
# Creative Commons, PO Box 1866, Mountain View, CA 94042, USA.
#
# CIF created using the CSD Python API on 29 September 2022
# The structure has been converted into the P1 space group
# The structure has a 3D framework
# The original CSD entry MALYIJ is in the monoclinic crystal system
# The framework has been calculated to contain at least 10.0% void space
# The void calculation uses a probe of radius 1.32A, grid spacing 0.4
# The framework is charged, counterions have been retained in the structure
#
###############################################################################

data_MALYIJ
_chemical_formula_moiety         '(C232 H280 Ce4 N20 O44)n'
_symmetry_cell_setting           triclinic
_symmetry_space_group_name_H-M   'P 1'
_symmetry_Int_Tables_number      1
_space_group_name_Hall           'P 1'
loop_
_symmetry_equiv_pos_site_id
_symmetry_equiv_pos_as_xyz
1 x,y,z
_cell_length_a                   14.868(4)
_cell_length_b                   25.174(6)
_cell_length_c                   22.523(6)
_cell_angle_alpha                90
_cell_angle_beta                 98.458(4)
_cell_angle_gamma                90
_cell_volume                     8338.38
loop_
_atom_site_label
_atom_site_type_symbol
_atom_site_fract_x
_atom_site_fract_y
_atom_site_fract_z
C30 C 0.2415(6) 0.0265(3) 0.8646(4)
C31 C 0.1711(5) 0.0531(3) 0.8207(3)
C32 C 0.0899(6) 0.0697(3) 0.8365(3)
H36 H 0.0811 0.0650 0.8762
C33 C 0.0199(6) 0.0931(3) 0.7975(4)
C34 C 0.0405(6) 0.1002(3) 0.7385(4)
C35 C 0.1198(6) 0.0860(3) 0.7186(3)
C36 C 0.1871(5) 0.0618(3) 0.7620(4)
H37 H 0.2425 0.0517 0.7509
C47 C 0.1384(8) 0.0952(5) 0.6546(4)
H43 H 0.0803 0.1031 0.6297
C48 C 0.1779(15) 0.0458(8) 0.6290(6)
H44 H 0.1966 0.0543 0.5911
H45 H 0.1325 0.0184 0.6235
H46 H 0.2294 0.0336 0.6564
C49 C 0.1991(12) 0.1431(8) 0.6533(6)
H47 H 0.1851 0.1687 0.6822
H48 H 0.1893 0.1586 0.6139
H49 H 0.2616 0.1324 0.6629
C58 C 0.0336(8) 0.2712(6) 0.5608(7)
H68 H 0.0845 0.2544 0.5468
H69 H 0.0459 0.2752 0.6037
H70 H 0.0238 0.3055 0.5425
O5 O 0.3172(4) 0.0141(2) 0.8505(2)
O6 O 0.2201(3) 0.0172(2) 0.9159(3)
Ce5 Ce 0.37210(3) 0.978493(15) 0.958964(16)
Ce3 Ce 0.62790(3) 0.021507(15) 0.041036(16)
C1 C 0.5990(6) 0.5168(3) 0.4129(3)
C2 C 0.6007(5) 0.5416(3) 0.3515(3)
C3 C 0.5189(5) 0.5490(3) 0.3124(3)
H1 H 0.4641 0.5379 0.3235
C4 C 0.5204(5) 0.5736(3) 0.2563(3)
C5 C 0.6052(6) 0.5901(3) 0.2431(3)
C6 C 0.6859(5) 0.5842(3) 0.2807(4)
C7 C 0.6827(5) 0.5585(3) 0.3347(3)
H2 H 0.7366 0.5524 0.3604
C8 C 0.6224(6) 0.5972(3) 0.1342(4)
H3 H 0.6347 0.5618 0.1272
C9 C 0.6179(6) 0.6372(4) 0.0935(4)
H4 H 0.6267 0.6344 0.0536
C10 C 0.5907(5) 0.6696(3) 0.1795(3)
H5 H 0.5773 0.6933 0.2087
C11 C 0.5838(6) 0.7358(3) 0.0982(3)
C12 C 0.4966(5) 0.7485(3) 0.0695(3)
C13 C 0.4865(5) 0.8002(3) 0.0484(3)
H6 H 0.4299 0.8109 0.0287
C14 C 0.5570(5) 0.8367(3) 0.0553(3)
C15 C 0.6426(5) 0.8209(3) 0.0828(3)
H7 H 0.6904 0.8450 0.0861
C16 C 0.6586(5) 0.7702(3) 0.1053(3)
C17 C 0.5403(6) 0.8936(3) 0.0325(3)
C18 C 0.4307(5) 0.5827(3) 0.2151(3)
H8 H 0.4456 0.5942 0.1761
C19 C 0.3748(8) 0.5318(4) 0.2046(6)
H9 H 0.3640 0.5176 0.2424
H10 H 0.4076 0.5062 0.1844
H11 H 0.3178 0.5395 0.1802
C20 C 0.3743(7) 0.6262(5) 0.2378(4)
H12 H 0.3437 0.6124 0.2692
H13 H 0.3302 0.6388 0.2054
H14 H 0.4132 0.6550 0.2532
C21 C 0.7748(7) 0.6049(6) 0.2643(5)
H15 H 0.7622 0.6172 0.2226
C22 C 0.8050(9) 0.6546(7) 0.3038(8)
H16 H 0.7522 0.6743 0.3106
H17 H 0.8434 0.6767 0.2835
H18 H 0.8379 0.6433 0.3416
C23 C 0.8457(9) 0.5637(7) 0.2665(8)
H19 H 0.8733 0.5583 0.3074
H20 H 0.8912 0.5749 0.2431
H21 H 0.8189 0.5310 0.2506
C24 C 0.4159(6) 0.7109(3) 0.0635(4)
H22 H 0.4395 0.6767 0.0799
C25 C 0.3442(8) 0.7275(5) 0.1005(6)
H23 H 0.3276 0.7638 0.0918
H24 H 0.3677 0.7240 0.1424
H25 H 0.2916 0.7053 0.0910
C27 C 0.7527(6) 0.7542(3) 0.1354(4)
H29 H 0.7503 0.7168 0.1473
C28 C 0.7809(7) 0.7861(5) 0.1908(5)
H30 H 0.8383 0.7734 0.2108
H31 H 0.7359 0.7827 0.2171
H32 H 0.7865 0.8228 0.1802
C29 C 0.8244(7) 0.7595(5) 0.0952(6)
H33 H 0.8169 0.7318 0.0656
H34 H 0.8836 0.7567 0.1187
H35 H 0.8187 0.7935 0.0756
C37 C 0.9084(6) 0.0941(4) 0.6526(4)
H38 H 0.9050 0.0574 0.6485
C38 C 0.9512(5) 0.1743(3) 0.6843(3)
H39 H 0.9821 0.2021 0.7054
C39 C 0.8565(6) 0.1301(4) 0.6201(4)
H40 H 0.8100 0.1225 0.5889
C40 C 0.8390(6) 0.2281(3) 0.6209(4)
C41 C 0.8734(5) 0.2571(3) 0.5751(4)
C42 C 0.8313(5) 0.3062(3) 0.5606(3)
H41 H 0.8509 0.3267 0.5306
C43 C 0.7604(5) 0.3255(3) 0.5898(3)
C44 C 0.7302(5) 0.2945(3) 0.6335(3)
H42 H 0.6832 0.3070 0.6528
C45 C 0.7681(6) 0.2451(3) 0.6493(3)
C46 C 0.7202(5) 0.3799(3) 0.5744(4)
C50 C 0.9322(7) 0.1117(4) 0.8167(4)
H50 H 0.8887 0.1199 0.7808
C51 C 0.8924(9) 0.0682(7) 0.8524(8)
H51 H 0.9399 0.0529 0.8807
H52 H 0.8653 0.0411 0.8255
H53 H 0.8469 0.0833 0.8735
C52 C 0.9465(8) 0.1598(6) 0.8547(6)
H54 H 0.9818 0.1508 0.8925
H55 H 0.8886 0.1737 0.8614
H56 H 0.9782 0.1861 0.8349
C53 C 0.7336(7) 0.2121(3) 0.6977(4)
H57 H 0.7638 0.1774 0.7001
C54 C 0.6313(9) 0.2039(6) 0.6818(7)
H58 H 0.6045 0.2346 0.6610
H59 H 0.6052 0.1986 0.7179
H60 H 0.6198 0.1732 0.6564
C55 C 0.7539(10) 0.2401(5) 0.7601(5)
H61 H 0.8180 0.2467 0.7695
H62 H 0.7348 0.2176 0.7903
H63 H 0.7215 0.2731 0.7588
C56 C 0.9511(7) 0.2379(4) 0.5446(4)
H64 H 0.9665 0.2021 0.5599
C57 C 0.9257(9) 0.2331(6) 0.4784(5)
H65 H 0.9665 0.2089 0.4630
H66 H 0.9297 0.2674 0.4602
H67 H 0.8646 0.2200 0.4694
Ce1 Ce 0.62790(3) 0.478493(15) 0.541036(16)
N1 N 0.6055(4) 0.6184(3) 0.1873(3)
N2 N 0.5979(4) 0.6822(2) 0.1226(3)
N3 N 0.8822(4) 0.1790(3) 0.6397(3)
N4 N 0.9682(4) 0.1225(3) 0.6935(3)
O1 O 0.6742(3) 0.5030(2) 0.4418(2)
O2 O 0.5248(4) 0.51087(18) 0.4318(2)
O3 O 0.6082(3) 0.92441(19) 0.0387(2)
O4 O 0.4594(4) 0.90475(18) 0.0105(2)
O7 O 0.6645(4) 0.3975(2) 0.6065(2)
O8 O 0.7415(3) 0.4046(2) 0.5296(2)
Ce2 Ce 0.37210(3) 0.521507(15) 0.458964(16)
O9 O 0.4752(4) 0.48913(18) 0.5682(2)
O10 O 0.6082(3) 0.57559(19) 0.5387(2)
O11 O 0.5406(4) 0.40475(18) 0.4895(2)
O12 O 0.6828(4) 0.5141(2) 0.6495(2)
O13 O 0.7799(3) 0.5172(2) 0.5841(3)
C26 C 0.3783(8) 0.7009(5) 0.9981(5)
H26 H 0.3386 0.6706 0.9952
H27 H 0.4276 0.6942 0.9760
H28 H 0.3449 0.7315 0.9818
C1_2 C 0.4010(6) 0.0168(3) 0.0871(3)
C2_2 C 0.3993(5) 0.0416(3) 0.1485(3)
C3_2 C 0.4811(5) 0.0490(3) 0.1876(3)
H1_2 H 0.5359 0.0379 0.1765
C4_2 C 0.4796(5) 0.0736(3) 0.2437(3)
C5_2 C 0.3948(6) 0.0901(3) 0.2569(3)
C6_2 C 0.3141(5) 0.0842(3) 0.2193(4)
C7_2 C 0.3173(5) 0.0585(3) 0.1653(3)
H2_2 H 0.2634 0.0524 0.1396
C8_2 C 0.3776(6) 0.0972(3) 0.3658(4)
H3_2 H 0.3653 0.0618 0.3728
C9_2 C 0.3821(6) 0.1372(4) 0.4065(4)
H4_2 H 0.3733 0.1344 0.4464
C10_2 C 0.4093(5) 0.1696(3) 0.3205(3)
H5_2 H 0.4227 0.1933 0.2913
C11_2 C 0.4162(6) 0.2358(3) 0.4018(3)
C12_2 C 0.5034(5) 0.2485(3) 0.4305(3)
C13_2 C 0.5135(5) 0.3002(3) 0.4516(3)
H6_2 H 0.5701 0.3109 0.4713
C14_2 C 0.4430(5) 0.3367(3) 0.4447(3)
C15_2 C 0.3574(5) 0.3209(3) 0.4172(3)
H7_2 H 0.3096 0.3450 0.4139
C16_2 C 0.3414(5) 0.2702(3) 0.3947(3)
C17_2 C 0.4597(6) 0.3936(3) 0.4675(3)
C18_2 C 0.5693(5) 0.0827(3) 0.2849(3)
H8_2 H 0.5544 0.0942 0.3239
C19_2 C 0.6252(8) 0.0318(4) 0.2954(6)
H9_2 H 0.6360 0.0176 0.2576
H10_2 H 0.5924 0.0062 0.3156
H11_2 H 0.6822 0.0395 0.3198
C20_2 C 0.6257(7) 0.1262(5) 0.2622(4)
H12_2 H 0.6563 0.1124 0.2308
H13_2 H 0.6698 0.1388 0.2946
H14_2 H 0.5868 0.1550 0.2468
C21_2 C 0.2252(7) 0.1049(6) 0.2357(5)
H15_2 H 0.2378 0.1172 0.2774
C22_2 C 0.1950(9) 0.1546(7) 0.1962(8)
H16_2 H 0.2478 0.1743 0.1894
H17_2 H 0.1566 0.1767 0.2165
H18_2 H 0.1621 0.1433 0.1584
C23_2 C 0.1543(9) 0.0637(7) 0.2335(8)
H19_2 H 0.1267 0.0583 0.1926
H20_2 H 0.1088 0.0749 0.2569
H21_2 H 0.1811 0.0310 0.2494
C24_2 C 0.5841(6) 0.2109(3) 0.4365(4)
H22_2 H 0.5605 0.1767 0.4201
C25_2 C 0.6558(8) 0.2275(5) 0.3995(6)
H23_2 H 0.6724 0.2638 0.4082
H24_2 H 0.6323 0.2240 0.3576
H25_2 H 0.7084 0.2053 0.4090
C26_2 C 0.6217(8) 0.2009(5) 0.5019(5)
H26_2 H 0.6614 0.1706 0.5048
H27_2 H 0.5724 0.1942 0.5240
H28_2 H 0.6551 0.2315 0.5182
C27_2 C 0.2473(6) 0.2542(3) 0.3646(4)
H29_2 H 0.2497 0.2168 0.3527
C28_2 C 0.2191(7) 0.2861(5) 0.3092(5)
H30_2 H 0.1617 0.2734 0.2892
H31_2 H 0.2641 0.2827 0.2829
H32_2 H 0.2135 0.3228 0.3198
C29_2 C 0.1756(7) 0.2595(5) 0.4048(6)
H33_2 H 0.1831 0.2318 0.4344
H34_2 H 0.1164 0.2567 0.3813
H35_2 H 0.1813 0.2935 0.4244
N1_2 N 0.3945(4) 0.1184(3) 0.3127(3)
N2_2 N 0.4021(4) 0.1822(2) 0.3774(3)
O1_2 O 0.3258(3) 0.0030(2) 0.0582(2)
O2_2 O 0.4752(4) 0.01087(18) 0.0682(2)
O3_2 O 0.3918(3) 0.42441(19) 0.4613(2)
O10_2 O 0.3918(3) 0.07559(19) 0.9613(2)
C57_2 C 0.0743(9) 0.7331(6) 0.0216(5)
H65_2 H 0.0335 0.7089 0.0370
H66_2 H 0.0703 0.7674 0.0398
H67_2 H 0.1354 0.7200 0.0306
C37_2 C 0.0916(6) 0.5941(4) 0.8474(4)
H38_2 H 0.0950 0.5574 0.8515
C38_2 C 0.0488(5) 0.6743(3) 0.8157(3)
H39_2 H 0.0179 0.7021 0.7946
C39_2 C 0.1435(6) 0.6301(4) 0.8799(4)
H40_2 H 0.1900 0.6225 0.9111
C40_2 C 0.1610(6) 0.7281(3) 0.8791(4)
C41_2 C 0.1266(5) 0.7571(3) 0.9249(4)
C42_2 C 0.1687(5) 0.8062(3) 0.9394(3)
H41_2 H 0.1491 0.8267 0.9694
C43_2 C 0.2396(5) 0.8255(3) 0.9102(3)
C44_2 C 0.2698(5) 0.7945(3) 0.8665(3)
H42_2 H 0.3168 0.8070 0.8472
C45_2 C 0.2319(6) 0.7451(3) 0.8507(3)
C46_2 C 0.2798(5) 0.8799(3) 0.9256(4)
C50_2 C 0.0678(7) 0.6117(4) 0.6833(4)
H50_2 H 0.1113 0.6199 0.7192
C51_2 C 0.1076(9) 0.5682(7) 0.6476(8)
H51_2 H 0.0601 0.5529 0.6193
H52_2 H 0.1347 0.5411 0.6745
H53_2 H 0.1531 0.5833 0.6265
C52_2 C 0.0535(8) 0.6598(6) 0.6453(6)
H54_2 H 0.0182 0.6508 0.6075
H55_2 H 0.1114 0.6737 0.6386
H56_2 H 0.0218 0.6861 0.6651
C53_2 C 0.2664(7) 0.7121(3) 0.8023(4)
H57_2 H 0.2362 0.6774 0.7999
C54_2 C 0.3687(9) 0.7039(6) 0.8182(7)
H58_2 H 0.3955 0.7346 0.8390
H59_2 H 0.3948 0.6986 0.7821
H60_2 H 0.3802 0.6732 0.8436
C55_2 C 0.2461(10) 0.7401(5) 0.7399(5)
H61_2 H 0.1820 0.7467 0.7305
H62_2 H 0.2652 0.7176 0.7097
H63_2 H 0.2785 0.7731 0.7412
C56_2 C 0.0489(7) 0.7379(4) 0.9554(4)
H64_2 H 0.0335 0.7021 0.9401
N3_2 N 0.1178(4) 0.6790(3) 0.8603(3)
N4_2 N 0.0318(4) 0.6225(3) 0.8065(3)
O7_2 O 0.3355(4) 0.8975(2) 0.8935(2)
O8_2 O 0.2585(3) 0.9046(2) 0.9704(2)
O9_2 O 0.5248(4) 0.98913(18) 0.9318(2)
C30_2 C 0.7585(6) 0.5265(3) 0.6354(4)
C31_2 C 0.8289(5) 0.5531(3) 0.6793(3)
C32_2 C 0.9101(6) 0.5697(3) 0.6635(3)
H36_2 H 0.9189 0.5650 0.6238
C33_2 C 0.9801(6) 0.5931(3) 0.7025(4)
C34_2 C 0.9595(6) 0.6002(3) 0.7615(4)
C35_2 C 0.8802(6) 0.5860(3) 0.7814(3)
C36_2 C 0.8129(5) 0.5618(3) 0.7380(4)
H37_2 H 0.7575 0.5517 0.7491
C47_2 C 0.8616(8) 0.5952(5) 0.8454(4)
H43_2 H 0.9197 0.6031 0.8703
C48_2 C 0.8221(15) 0.5458(8) 0.8710(6)
H44_2 H 0.8034 0.5543 0.9089
H45_2 H 0.8675 0.5184 0.8765
H46_2 H 0.7706 0.5336 0.8436
C49_2 C 0.8009(12) 0.6431(8) 0.8467(6)
H47_2 H 0.8149 0.6687 0.8178
H48_2 H 0.8107 0.6586 0.8861
H49_2 H 0.7384 0.6324 0.8371
C58_2 C 0.9664(8) 0.7712(6) 0.9392(7)
H68_2 H 0.9155 0.7544 0.9532
H69_2 H 0.9541 0.7752 0.8963
H70_2 H 0.9762 0.8055 0.9575
C26_3 C 0.6217(8) 0.2991(5) 0.0019(5)
H26_3 H 0.6614 0.3294 0.0048
H27_3 H 0.5724 0.3058 0.0240
H28_3 H 0.6551 0.2685 0.0182
C1_3 C 0.4010(6) 0.4832(3) 0.5871(3)
C2_3 C 0.3993(5) 0.4584(3) 0.6485(3)
C3_3 C 0.4811(5) 0.4510(3) 0.6876(3)
H1_3 H 0.5359 0.4621 0.6765
C4_3 C 0.4796(5) 0.4264(3) 0.7437(3)
C5_3 C 0.3948(6) 0.4099(3) 0.7569(3)
C6_3 C 0.3141(5) 0.4158(3) 0.7193(4)
C7_3 C 0.3173(5) 0.4415(3) 0.6653(3)
H2_3 H 0.2634 0.4476 0.6396
C8_3 C 0.3776(6) 0.4028(3) 0.8658(4)
H3_3 H 0.3653 0.4382 0.8728
C9_3 C 0.3821(6) 0.3628(4) 0.9065(4)
H4_3 H 0.3733 0.3656 0.9464
C10_3 C 0.4093(5) 0.3304(3) 0.8205(3)
H5_3 H 0.4227 0.3067 0.7913
C11_3 C 0.4162(6) 0.2642(3) 0.9018(3)
C12_3 C 0.5034(5) 0.2515(3) 0.9305(3)
C13_3 C 0.5135(5) 0.1998(3) 0.9516(3)
H6_3 H 0.5701 0.1891 0.9713
C14_3 C 0.4430(5) 0.1633(3) 0.9447(3)
C15_3 C 0.3574(5) 0.1791(3) 0.9172(3)
H7_3 H 0.3096 0.1550 0.9139
C16_3 C 0.3414(5) 0.2298(3) 0.8947(3)
C17_3 C 0.4597(6) 0.1064(3) 0.9675(3)
C18_3 C 0.5693(5) 0.4173(3) 0.7849(3)
H8_3 H 0.5544 0.4058 0.8239
C19_3 C 0.6252(8) 0.4682(4) 0.7954(6)
H9_3 H 0.6360 0.4824 0.7576
H10_3 H 0.5924 0.4938 0.8156
H11_3 H 0.6822 0.4605 0.8198
C20_3 C 0.6257(7) 0.3738(5) 0.7622(4)
H12_3 H 0.6563 0.3876 0.7308
H13_3 H 0.6698 0.3612 0.7946
H14_3 H 0.5868 0.3450 0.7468
C21_3 C 0.2252(7) 0.3951(6) 0.7357(5)
H15_3 H 0.2378 0.3828 0.7774
C22_3 C 0.1950(9) 0.3454(7) 0.6962(8)
H16_3 H 0.2478 0.3257 0.6894
H17_3 H 0.1566 0.3233 0.7165
H18_3 H 0.1621 0.3567 0.6584
C23_3 C 0.1543(9) 0.4363(7) 0.7335(8)
H19_3 H 0.1267 0.4417 0.6926
H20_3 H 0.1088 0.4251 0.7569
H21_3 H 0.1811 0.4690 0.7494
C24_3 C 0.5841(6) 0.2891(3) 0.9365(4)
H22_3 H 0.5605 0.3233 0.9201
C25_3 C 0.6558(8) 0.2725(5) 0.8995(6)
H23_3 H 0.6724 0.2362 0.9082
H24_3 H 0.6323 0.2760 0.8576
H25_3 H 0.7084 0.2947 0.9090
C27_3 C 0.2473(6) 0.2458(3) 0.8646(4)
H29_3 H 0.2497 0.2832 0.8527
C28_3 C 0.2191(7) 0.2139(5) 0.8092(5)
H30_3 H 0.1617 0.2266 0.7892
H31_3 H 0.2641 0.2173 0.7829
H32_3 H 0.2135 0.1772 0.8198
C29_3 C 0.1756(7) 0.2405(5) 0.9048(6)
H33_3 H 0.1831 0.2682 0.9344
H34_3 H 0.1164 0.2433 0.8813
H35_3 H 0.1813 0.2065 0.9244
C37_3 C 0.0916(6) 0.9059(4) 0.3474(4)
H38_3 H 0.0950 0.9426 0.3515
C38_3 C 0.0488(5) 0.8257(3) 0.3157(3)
H39_3 H 0.0179 0.7979 0.2946
C39_3 C 0.1435(6) 0.8699(4) 0.3799(4)
H40_3 H 0.1900 0.8775 0.4111
C40_3 C 0.1610(6) 0.7719(3) 0.3791(4)
C41_3 C 0.1266(5) 0.7429(3) 0.4249(4)
C42_3 C 0.1687(5) 0.6938(3) 0.4394(3)
H41_3 H 0.1491 0.6733 0.4694
C43_3 C 0.2396(5) 0.6745(3) 0.4102(3)
C44_3 C 0.2698(5) 0.7055(3) 0.3665(3)
H42_3 H 0.3168 0.6930 0.3472
C45_3 C 0.2319(6) 0.7549(3) 0.3507(3)
C46_3 C 0.2798(5) 0.6201(3) 0.4256(4)
C50_3 C 0.0678(7) 0.8883(4) 0.1833(4)
H50_3 H 0.1113 0.8801 0.2192
C51_3 C 0.1076(9) 0.9318(7) 0.1476(8)
H51_3 H 0.0601 0.9471 0.1193
H52_3 H 0.1347 0.9589 0.1745
H53_3 H 0.1531 0.9167 0.1265
C52_3 C 0.0535(8) 0.8402(6) 0.1453(6)
H54_3 H 0.0182 0.8492 0.1075
H55_3 H 0.1114 0.8263 0.1386
H56_3 H 0.0218 0.8139 0.1651
C53_3 C 0.2664(7) 0.7879(3) 0.3023(4)
H57_3 H 0.2362 0.8226 0.2999
C54_3 C 0.3687(9) 0.7961(6) 0.3182(7)
H58_3 H 0.3955 0.7654 0.3390
H59_3 H 0.3948 0.8014 0.2821
H60_3 H 0.3802 0.8268 0.3436
C55_3 C 0.2461(10) 0.7599(5) 0.2399(5)
H61_3 H 0.1820 0.7533 0.2305
H62_3 H 0.2652 0.7824 0.2097
H63_3 H 0.2785 0.7269 0.2412
C56_3 C 0.0489(7) 0.7621(4) 0.4554(4)
H64_3 H 0.0335 0.7979 0.4401
C57_3 C 0.0743(9) 0.7669(6) 0.5216(5)
H65_3 H 0.0335 0.7911 0.5370
H66_3 H 0.0703 0.7326 0.5398
H67_3 H 0.1354 0.7800 0.5306
N1_3 N 0.3945(4) 0.3816(3) 0.8127(3)
N2_3 N 0.4021(4) 0.3178(2) 0.8774(3)
N3_3 N 0.1178(4) 0.8210(3) 0.3603(3)
N4_3 N 0.0318(4) 0.8775(3) 0.3065(3)
O1_3 O 0.3258(3) 0.4970(2) 0.5582(2)
O4_2 O 0.5406(4) 0.09525(18) 0.9895(2)
O7_3 O 0.3355(4) 0.6025(2) 0.3935(2)
O8_3 O 0.2585(3) 0.5954(2) 0.4704(2)
O11_2 O 0.4594(4) 0.59525(18) 0.5105(2)
O12_2 O 0.3172(4) 0.4859(2) 0.3505(2)
O13_2 O 0.2201(3) 0.4828(2) 0.4159(3)
C30_3 C 0.7585(6) 0.9735(3) 0.1354(4)
C31_3 C 0.8289(5) 0.9469(3) 0.1793(3)
C32_3 C 0.9101(6) 0.9303(3) 0.1635(3)
H36_3 H 0.9189 0.9350 0.1238
C33_3 C 0.9801(6) 0.9069(3) 0.2025(4)
C34_3 C 0.9595(6) 0.8998(3) 0.2615(4)
C35_3 C 0.8802(6) 0.9140(3) 0.2814(3)
C36_3 C 0.8129(5) 0.9382(3) 0.2380(4)
H37_3 H 0.7575 0.9483 0.2491
C47_3 C 0.8616(8) 0.9048(5) 0.3454(4)
H43_3 H 0.9197 0.8969 0.3703
C48_3 C 0.8221(15) 0.9542(8) 0.3710(6)
H44_3 H 0.8034 0.9457 0.4089
H45_3 H 0.8675 0.9816 0.3765
H46_3 H 0.7706 0.9664 0.3436
C49_3 C 0.8009(12) 0.8569(8) 0.3467(6)
H47_3 H 0.8149 0.8313 0.3178
H48_3 H 0.8107 0.8414 0.3861
H49_3 H 0.7384 0.8676 0.3371
C58_3 C 0.9664(8) 0.7288(6) 0.4392(7)
H68_3 H 0.9155 0.7456 0.4532
H69_3 H 0.9541 0.7248 0.3963
H70_3 H 0.9762 0.6945 0.4575
O5_2 O 0.6828(4) 0.9859(2) 0.1495(2)
O6_2 O 0.7799(3) 0.9828(2) 0.0841(3)
C30_4 C 0.2415(6) 0.4735(3) 0.3646(4)
C31_4 C 0.1711(5) 0.4469(3) 0.3207(3)
C32_4 C 0.0899(6) 0.4303(3) 0.3365(3)
H36_4 H 0.0811 0.4350 0.3762
C33_4 C 0.0199(6) 0.4069(3) 0.2975(4)
C34_4 C 0.0405(6) 0.3998(3) 0.2385(4)
C35_4 C 0.1198(6) 0.4140(3) 0.2186(3)
C36_4 C 0.1871(5) 0.4382(3) 0.2620(4)
H37_4 H 0.2425 0.4483 0.2509
C47_4 C 0.1384(8) 0.4048(5) 0.1546(4)
H43_4 H 0.0803 0.3969 0.1297
C48_4 C 0.1779(15) 0.4542(8) 0.1290(6)
H44_4 H 0.1966 0.4457 0.0911
H45_4 H 0.1325 0.4816 0.1235
H46_4 H 0.2294 0.4664 0.1564
C49_4 C 0.1991(12) 0.3569(8) 0.1533(6)
H47_4 H 0.1851 0.3313 0.1822
H48_4 H 0.1893 0.3414 0.1139
H49_4 H 0.2616 0.3676 0.1629
C58_4 C 0.0336(8) 0.2288(6) 0.0608(7)
H68_4 H 0.0845 0.2456 0.0468
H69_4 H 0.0459 0.2248 0.1037
H70_4 H 0.0238 0.1945 0.0425
C37_4 C 0.9084(6) 0.4059(4) 0.1526(4)
H38_4 H 0.9050 0.4426 0.1485
C38_4 C 0.9512(5) 0.3257(3) 0.1843(3)
H39_4 H 0.9821 0.2979 0.2054
C39_4 C 0.8565(6) 0.3699(4) 0.1201(4)
H40_4 H 0.8100 0.3775 0.0889
C40_4 C 0.8390(6) 0.2719(3) 0.1209(4)
C41_4 C 0.8734(5) 0.2429(3) 0.0751(4)
C42_4 C 0.8313(5) 0.1938(3) 0.0606(3)
H41_4 H 0.8509 0.1733 0.0306
C43_4 C 0.7604(5) 0.1745(3) 0.0898(3)
C44_4 C 0.7302(5) 0.2055(3) 0.1335(3)
H42_4 H 0.6832 0.1930 0.1528
C45_4 C 0.7681(6) 0.2549(3) 0.1493(3)
C46_4 C 0.7202(5) 0.1201(3) 0.0744(4)
C50_4 C 0.9322(7) 0.3883(4) 0.3167(4)
H50_4 H 0.8887 0.3801 0.2808
C51_4 C 0.8924(9) 0.4318(7) 0.3524(8)
H51_4 H 0.9399 0.4471 0.3807
H52_4 H 0.8653 0.4589 0.3255
H53_4 H 0.8469 0.4167 0.3735
C52_4 C 0.9465(8) 0.3402(6) 0.3547(6)
H54_4 H 0.9818 0.3492 0.3925
H55_4 H 0.8886 0.3263 0.3614
H56_4 H 0.9782 0.3139 0.3349
C53_4 C 0.7336(7) 0.2879(3) 0.1977(4)
H57_4 H 0.7638 0.3226 0.2001
C54_4 C 0.6313(9) 0.2961(6) 0.1818(7)
H58_4 H 0.6045 0.2654 0.1610
H59_4 H 0.6052 0.3014 0.2179
H60_4 H 0.6198 0.3268 0.1564
C55_4 C 0.7539(10) 0.2599(5) 0.2601(5)
H61_4 H 0.8180 0.2533 0.2695
H62_4 H 0.7348 0.2824 0.2903
H63_4 H 0.7215 0.2269 0.2588
C56_4 C 0.9511(7) 0.2621(4) 0.0446(4)
H64_4 H 0.9665 0.2979 0.0599
N3_4 N 0.8822(4) 0.3210(3) 0.1397(3)
N4_4 N 0.9682(4) 0.3775(3) 0.1935(3)
O7_4 O 0.6645(4) 0.1025(2) 0.1065(2)
O8_4 O 0.7415(3) 0.0954(2) 0.0296(2)
C57_4 C 0.9257(9) 0.2669(6) 0.9784(5)
H65_4 H 0.9665 0.2911 0.9630
H66_4 H 0.9297 0.2326 0.9602
H67_4 H 0.8646 0.2800 0.9694
C1_4 C 0.5990(6) 0.9832(3) 0.9129(3)
C2_4 C 0.6007(5) 0.9584(3) 0.8515(3)
C3_4 C 0.5189(5) 0.9510(3) 0.8124(3)
H1_4 H 0.4641 0.9621 0.8235
C4_4 C 0.5204(5) 0.9264(3) 0.7563(3)
C5_4 C 0.6052(6) 0.9099(3) 0.7431(3)
C6_4 C 0.6859(5) 0.9158(3) 0.7807(4)
C7_4 C 0.6827(5) 0.9415(3) 0.8347(3)
H2_4 H 0.7366 0.9476 0.8604
C8_4 C 0.6224(6) 0.9028(3) 0.6342(4)
H3_4 H 0.6347 0.9382 0.6272
C9_4 C 0.6179(6) 0.8628(4) 0.5935(4)
H4_4 H 0.6267 0.8656 0.5536
C10_4 C 0.5907(5) 0.8304(3) 0.6795(3)
H5_4 H 0.5773 0.8067 0.7087
C11_4 C 0.5838(6) 0.7642(3) 0.5982(3)
C12_4 C 0.4966(5) 0.7515(3) 0.5695(3)
C13_4 C 0.4865(5) 0.6998(3) 0.5484(3)
H6_4 H 0.4299 0.6891 0.5287
C14_4 C 0.5570(5) 0.6633(3) 0.5553(3)
C15_4 C 0.6426(5) 0.6791(3) 0.5828(3)
H7_4 H 0.6904 0.6550 0.5861
C16_4 C 0.6586(5) 0.7298(3) 0.6053(3)
C17_4 C 0.5403(6) 0.6064(3) 0.5325(3)
C18_4 C 0.4307(5) 0.9173(3) 0.7151(3)
H8_4 H 0.4456 0.9058 0.6761
C19_4 C 0.3748(8) 0.9682(4) 0.7046(6)
H9_4 H 0.3640 0.9824 0.7424
H10_4 H 0.4076 0.9938 0.6844
H11_4 H 0.3178 0.9605 0.6802
C20_4 C 0.3743(7) 0.8738(5) 0.7378(4)
H12_4 H 0.3437 0.8876 0.7692
H13_4 H 0.3302 0.8612 0.7054
H14_4 H 0.4132 0.8450 0.7532
C21_4 C 0.7748(7) 0.8951(6) 0.7643(5)
H15_4 H 0.7622 0.8828 0.7226
C22_4 C 0.8050(9) 0.8454(7) 0.8038(8)
H16_4 H 0.7522 0.8257 0.8106
H17_4 H 0.8434 0.8233 0.7835
H18_4 H 0.8379 0.8567 0.8416
C23_4 C 0.8457(9) 0.9363(7) 0.7665(8)
H19_4 H 0.8733 0.9417 0.8074
H20_4 H 0.8912 0.9251 0.7431
H21_4 H 0.8189 0.9690 0.7506
C24_4 C 0.4159(6) 0.7891(3) 0.5635(4)
H22_4 H 0.4395 0.8233 0.5799
C25_4 C 0.3442(8) 0.7725(5) 0.6005(6)
H23_4 H 0.3276 0.7362 0.5918
H24_4 H 0.3677 0.7760 0.6424
H25_4 H 0.2916 0.7947 0.5910
C26_4 C 0.3783(8) 0.7991(5) 0.4981(5)
H26_4 H 0.3386 0.8294 0.4952
H27_4 H 0.4276 0.8058 0.4760
H28_4 H 0.3449 0.7685 0.4818
C27_4 C 0.7527(6) 0.7458(3) 0.6354(4)
H29_4 H 0.7503 0.7832 0.6473
C28_4 C 0.7809(7) 0.7139(5) 0.6908(5)
H30_4 H 0.8383 0.7266 0.7108
H31_4 H 0.7359 0.7173 0.7171
H32_4 H 0.7865 0.6772 0.6802
C29_4 C 0.8244(7) 0.7405(5) 0.5952(6)
H33_4 H 0.8169 0.7682 0.5656
H34_4 H 0.8836 0.7433 0.6187
H35_4 H 0.8187 0.7065 0.5756
N1_4 N 0.6055(4) 0.8816(3) 0.6873(3)
N2_4 N 0.5979(4) 0.8178(2) 0.6226(3)
O1_4 O 0.6742(3) 0.9970(2) 0.9418(2)
N5 N 0.5578(15) 0.4047(6) 0.2851(10)
O14 O 0.6223(12) 0.3826(6) 0.3424(7)
O15 O 0.4631(15) 0.3957(10) 0.2751(17)
O16 O 0.632(2) 0.4303(5) 0.2381(8)
N5_2 N 0.4422(15) 0.9047(6) 0.2149(10)
O14_2 O 0.3777(12) 0.8826(6) 0.1576(7)
O15_2 O 0.5369(15) 0.8957(10) 0.2249(17)
O16_2 O 0.368(2) 0.9303(5) 0.2619(8)
N5_3 N 0.4422(15) 0.5953(6) 0.7149(10)
O14_3 O 0.3777(12) 0.6174(6) 0.6576(7)
O15_3 O 0.5369(15) 0.6043(10) 0.7249(17)
O16_3 O 0.368(2) 0.5697(5) 0.7619(8)
N5_4 N 0.5578(15) 0.0953(6) 0.7851(10)
O14_4 O 0.6223(12) 0.1174(6) 0.8424(7)
O15_4 O 0.4631(15) 0.1043(10) 0.7751(17)
O16_4 O 0.632(2) 0.0697(5) 0.7381(8)
loop_
_geom_bond_atom_site_label_1
_geom_bond_atom_site_label_2
_geom_bond_site_symmetry_1
_geom_bond_site_symmetry_2
C30 C31 1_555 1_555
C31 C32 1_555 1_555
C32 H36 1_555 1_555
C33 C32 1_555 1_555
C34 C33 1_555 1_555
C35 C34 1_555 1_555
C36 C31 1_555 1_555
H37 C36 1_555 1_555
C47 C35 1_555 1_555
H43 C47 1_555 1_555
C48 C47 1_555 1_555
H44 C48 1_555 1_555
H45 C48 1_555 1_555
H46 C48 1_555 1_555
C49 C47 1_555 1_555
H47 C49 1_555 1_555
H48 C49 1_555 1_555
H49 C49 1_555 1_555
H68 C58 1_555 1_555
H69 C58 1_555 1_555
H70 C58 1_555 1_555
O5 C30 1_555 1_555
O6 C30 1_555 1_555
C35 C36 1_555 1_555
C1 C2 1_555 1_555
C2 C3 1_555 1_555
C3 H1 1_555 1_555
C4 C3 1_555 1_555
C5 C4 1_555 1_555
C6 C5 1_555 1_555
C7 C2 1_555 1_555
H2 C7 1_555 1_555
C8 H3 1_555 1_555
C9 C8 1_555 1_555
H4 C9 1_555 1_555
C10 H5 1_555 1_555
C11 C12 1_555 1_555
C12 C13 1_555 1_555
C13 H6 1_555 1_555
C14 C13 1_555 1_555
C15 C14 1_555 1_555
H7 C15 1_555 1_555
C16 C11 1_555 1_555
C17 C14 1_555 1_555
C18 C4 1_555 1_555
H8 C18 1_555 1_555
C19 C18 1_555 1_555
H9 C19 1_555 1_555
H10 C19 1_555 1_555
H11 C19 1_555 1_555
C20 C18 1_555 1_555
H12 C20 1_555 1_555
H13 C20 1_555 1_555
H14 C20 1_555 1_555
C21 C6 1_555 1_555
H15 C21 1_555 1_555
C22 C21 1_555 1_555
H16 C22 1_555 1_555
H17 C22 1_555 1_555
H18 C22 1_555 1_555
C23 C21 1_555 1_555
H19 C23 1_555 1_555
H20 C23 1_555 1_555
H21 C23 1_555 1_555
C24 C12 1_555 1_555
H22 C24 1_555 1_555
C25 C24 1_555 1_555
H23 C25 1_555 1_555
H24 C25 1_555 1_555
H25 C25 1_555 1_555
C27 C16 1_555 1_555
H29 C27 1_555 1_555
C28 C27 1_555 1_555
H30 C28 1_555 1_555
H31 C28 1_555 1_555
H32 C28 1_555 1_555
C29 C27 1_555 1_555
H33 C29 1_555 1_555
H34 C29 1_555 1_555
H35 C29 1_555 1_555
C37 H38 1_555 1_555
C38 H39 1_555 1_555
C39 C37 1_555 1_555
H40 C39 1_555 1_555
C40 C41 1_555 1_555
C41 C42 1_555 1_555
C42 H41 1_555 1_555
C43 C42 1_555 1_555
C44 C43 1_555 1_555
H42 C44 1_555 1_555
C45 C40 1_555 1_555
C46 C43 1_555 1_555
H50 C50 1_555 1_555
C51 C50 1_555 1_555
H51 C51 1_555 1_555
H52 C51 1_555 1_555
H53 C51 1_555 1_555
C52 C50 1_555 1_555
H54 C52 1_555 1_555
H55 C52 1_555 1_555
H56 C52 1_555 1_555
C53 C45 1_555 1_555
H57 C53 1_555 1_555
C54 C53 1_555 1_555
H58 C54 1_555 1_555
H59 C54 1_555 1_555
H60 C54 1_555 1_555
C55 C53 1_555 1_555
H61 C55 1_555 1_555
H62 C55 1_555 1_555
H63 C55 1_555 1_555
C56 C41 1_555 1_555
H64 C56 1_555 1_555
C57 C56 1_555 1_555
H65 C57 1_555 1_555
H66 C57 1_555 1_555
H67 C57 1_555 1_555
Ce1 O1 1_555 1_555
N1 C5 1_555 1_555
N2 C9 1_555 1_555
N3 C38 1_555 1_555
O1 C1 1_555 1_555
O2 C1 1_555 1_555
O3 C17 1_555 1_555
O4 C17 1_555 1_555
O7 C46 1_555 1_555
O8 C46 1_555 1_555
Ce2 O2 1_555 1_555
O9 Ce1 1_555 1_555
O10 Ce1 1_555 1_555
O11 Ce1 1_555 1_555
O12 Ce1 1_555 1_555
O13 Ce1 1_555 1_555
C6 C7 1_555 1_555
C8 N1 1_555 1_555
C10 N1 1_555 1_555
C10 N2 1_555 1_555
C11 N2 1_555 1_555
C15 C16 1_555 1_555
C37 N4 1_555 1_555
C38 N4 1_555 1_555
C39 N3 1_555 1_555
C40 N3 1_555 1_555
C44 C45 1_555 1_555
Ce1 O7 1_555 1_555
Ce1 O8 1_555 1_555
H26 C26 1_555 1_555
H27 C26 1_555 1_555
H28 C26 1_555 1_555
C1_2 C2_2 1_555 1_555
C2_2 C3_2 1_555 1_555
C3_2 H1_2 1_555 1_555
C4_2 C3_2 1_555 1_555
C5_2 C4_2 1_555 1_555
C6_2 C5_2 1_555 1_555
C7_2 C2_2 1_555 1_555
H2_2 C7_2 1_555 1_555
C8_2 H3_2 1_555 1_555
C9_2 C8_2 1_555 1_555
H4_2 C9_2 1_555 1_555
C10_2 H5_2 1_555 1_555
C11_2 C12_2 1_555 1_555
C12_2 C13_2 1_555 1_555
C13_2 H6_2 1_555 1_555
C14_2 C13_2 1_555 1_555
C15_2 C14_2 1_555 1_555
H7_2 C15_2 1_555 1_555
C16_2 C11_2 1_555 1_555
C17_2 C14_2 1_555 1_555
C18_2 C4_2 1_555 1_555
H8_2 C18_2 1_555 1_555
C19_2 C18_2 1_555 1_555
H9_2 C19_2 1_555 1_555
H10_2 C19_2 1_555 1_555
H11_2 C19_2 1_555 1_555
C20_2 C18_2 1_555 1_555
H12_2 C20_2 1_555 1_555
H13_2 C20_2 1_555 1_555
H14_2 C20_2 1_555 1_555
C21_2 C6_2 1_555 1_555
H15_2 C21_2 1_555 1_555
C22_2 C21_2 1_555 1_555
H16_2 C22_2 1_555 1_555
H17_2 C22_2 1_555 1_555
H18_2 C22_2 1_555 1_555
C23_2 C21_2 1_555 1_555
H19_2 C23_2 1_555 1_555
H20_2 C23_2 1_555 1_555
H21_2 C23_2 1_555 1_555
C24_2 C12_2 1_555 1_555
H22_2 C24_2 1_555 1_555
C25_2 C24_2 1_555 1_555
H23_2 C25_2 1_555 1_555
H24_2 C25_2 1_555 1_555
H25_2 C25_2 1_555 1_555
C26_2 C24_2 1_555 1_555
H26_2 C26_2 1_555 1_555
H27_2 C26_2 1_555 1_555
H28_2 C26_2 1_555 1_555
C27_2 C16_2 1_555 1_555
H29_2 C27_2 1_555 1_555
C28_2 C27_2 1_555 1_555
H30_2 C28_2 1_555 1_555
H31_2 C28_2 1_555 1_555
H32_2 C28_2 1_555 1_555
C29_2 C27_2 1_555 1_555
H33_2 C29_2 1_555 1_555
H34_2 C29_2 1_555 1_555
H35_2 C29_2 1_555 1_555
N1_2 C5_2 1_555 1_555
N2_2 C9_2 1_555 1_555
O1_2 C1_2 1_555 1_555
O2_2 C1_2 1_555 1_555
O3_2 C17_2 1_555 1_555
O11 C17_2 1_555 1_555
Ce3 O2_2 1_555 1_555
Ce2 O3_2 1_555 1_555
C6_2 C7_2 1_555 1_555
C8_2 N1_2 1_555 1_555
C10_2 N1_2 1_555 1_555
C10_2 N2_2 1_555 1_555
C11_2 N2_2 1_555 1_555
C15_2 C16_2 1_555 1_555
H65_2 C57_2 1_555 1_555
H66_2 C57_2 1_555 1_555
H67_2 C57_2 1_555 1_555
C37_2 H38_2 1_555 1_555
C38_2 H39_2 1_555 1_555
C39_2 C37_2 1_555 1_555
H40_2 C39_2 1_555 1_555
C40_2 C41_2 1_555 1_555
C41_2 C42_2 1_555 1_555
C42_2 H41_2 1_555 1_555
C43_2 C42_2 1_555 1_555
C44_2 C43_2 1_555 1_555
H42_2 C44_2 1_555 1_555
C45_2 C40_2 1_555 1_555
C46_2 C43_2 1_555 1_555
H50_2 C50_2 1_555 1_555
C51_2 C50_2 1_555 1_555
H51_2 C51_2 1_555 1_555
H52_2 C51_2 1_555 1_555
H53_2 C51_2 1_555 1_555
C52_2 C50_2 1_555 1_555
H54_2 C52_2 1_555 1_555
H55_2 C52_2 1_555 1_555
H56_2 C52_2 1_555 1_555
C53_2 C45_2 1_555 1_555
H57_2 C53_2 1_555 1_555
C54_2 C53_2 1_555 1_555
H58_2 C54_2 1_555 1_555
H59_2 C54_2 1_555 1_555
H60_2 C54_2 1_555 1_555
C55_2 C53_2 1_555 1_555
H61_2 C55_2 1_555 1_555
H62_2 C55_2 1_555 1_555
H63_2 C55_2 1_555 1_555
C56_2 C41_2 1_555 1_555
H64_2 C56_2 1_555 1_555
N3_2 C38_2 1_555 1_555
O7_2 C46_2 1_555 1_555
O8_2 C46_2 1_555 1_555
O9_2 Ce5 1_555 1_555
C37_2 N4_2 1_555 1_555
C38_2 N4_2 1_555 1_555
C39_2 N3_2 1_555 1_555
C40_2 N3_2 1_555 1_555
C44_2 C45_2 1_555 1_555
Ce5 O7_2 1_555 1_555
Ce5 O8_2 1_555 1_555
C30_2 C31_2 1_555 1_555
C31_2 C32_2 1_555 1_555
C32_2 H36_2 1_555 1_555
C33_2 C32_2 1_555 1_555
C34_2 C33_2 1_555 1_555
C35_2 C34_2 1_555 1_555
C36_2 C31_2 1_555 1_555
H37_2 C36_2 1_555 1_555
C47_2 C35_2 1_555 1_555
H43_2 C47_2 1_555 1_555
C48_2 C47_2 1_555 1_555
H44_2 C48_2 1_555 1_555
H45_2 C48_2 1_555 1_555
H46_2 C48_2 1_555 1_555
C49_2 C47_2 1_555 1_555
H47_2 C49_2 1_555 1_555
H48_2 C49_2 1_555 1_555
H49_2 C49_2 1_555 1_555
H68_2 C58_2 1_555 1_555
H69_2 C58_2 1_555 1_555
H70_2 C58_2 1_555 1_555
O12 C30_2 1_555 1_555
O13 C30_2 1_555 1_555
C35_2 C36_2 1_555 1_555
H26_3 C26_3 1_555 1_555
H27_3 C26_3 1_555 1_555
H28_3 C26_3 1_555 1_555
C1_3 C2_3 1_555 1_555
C2_3 C3_3 1_555 1_555
C3_3 H1_3 1_555 1_555
C4_3 C3_3 1_555 1_555
C5_3 C4_3 1_555 1_555
C6_3 C5_3 1_555 1_555
C7_3 C2_3 1_555 1_555
H2_3 C7_3 1_555 1_555
C8_3 H3_3 1_555 1_555
C9_3 C8_3 1_555 1_555
H4_3 C9_3 1_555 1_555
C10_3 H5_3 1_555 1_555
C11_3 C12_3 1_555 1_555
C12_3 C13_3 1_555 1_555
C13_3 H6_3 1_555 1_555
C14_3 C13_3 1_555 1_555
C15_3 C14_3 1_555 1_555
H7_3 C15_3 1_555 1_555
C16_3 C11_3 1_555 1_555
C17_3 C14_3 1_555 1_555
C18_3 C4_3 1_555 1_555
H8_3 C18_3 1_555 1_555
C19_3 C18_3 1_555 1_555
H9_3 C19_3 1_555 1_555
H10_3 C19_3 1_555 1_555
H11_3 C19_3 1_555 1_555
C20_3 C18_3 1_555 1_555
H12_3 C20_3 1_555 1_555
H13_3 C20_3 1_555 1_555
H14_3 C20_3 1_555 1_555
C21_3 C6_3 1_555 1_555
H15_3 C21_3 1_555 1_555
C22_3 C21_3 1_555 1_555
H16_3 C22_3 1_555 1_555
H17_3 C22_3 1_555 1_555
H18_3 C22_3 1_555 1_555
C23_3 C21_3 1_555 1_555
H19_3 C23_3 1_555 1_555
H20_3 C23_3 1_555 1_555
H21_3 C23_3 1_555 1_555
C24_3 C12_3 1_555 1_555
H22_3 C24_3 1_555 1_555
C25_3 C24_3 1_555 1_555
H23_3 C25_3 1_555 1_555
H24_3 C25_3 1_555 1_555
H25_3 C25_3 1_555 1_555
C27_3 C16_3 1_555 1_555
H29_3 C27_3 1_555 1_555
C28_3 C27_3 1_555 1_555
H30_3 C28_3 1_555 1_555
H31_3 C28_3 1_555 1_555
H32_3 C28_3 1_555 1_555
C29_3 C27_3 1_555 1_555
H33_3 C29_3 1_555 1_555
H34_3 C29_3 1_555 1_555
H35_3 C29_3 1_555 1_555
C37_3 H38_3 1_555 1_555
C38_3 H39_3 1_555 1_555
C39_3 C37_3 1_555 1_555
H40_3 C39_3 1_555 1_555
C40_3 C41_3 1_555 1_555
C41_3 C42_3 1_555 1_555
C42_3 H41_3 1_555 1_555
C43_3 C42_3 1_555 1_555
C44_3 C43_3 1_555 1_555
H42_3 C44_3 1_555 1_555
C45_3 C40_3 1_555 1_555
C46_3 C43_3 1_555 1_555
H50_3 C50_3 1_555 1_555
C51_3 C50_3 1_555 1_555
H51_3 C51_3 1_555 1_555
H52_3 C51_3 1_555 1_555
H53_3 C51_3 1_555 1_555
C52_3 C50_3 1_555 1_555
H54_3 C52_3 1_555 1_555
H55_3 C52_3 1_555 1_555
H56_3 C52_3 1_555 1_555
C53_3 C45_3 1_555 1_555
H57_3 C53_3 1_555 1_555
C54_3 C53_3 1_555 1_555
H58_3 C54_3 1_555 1_555
H59_3 C54_3 1_555 1_555
H60_3 C54_3 1_555 1_555
C55_3 C53_3 1_555 1_555
H61_3 C55_3 1_555 1_555
H62_3 C55_3 1_555 1_555
H63_3 C55_3 1_555 1_555
C56_3 C41_3 1_555 1_555
H64_3 C56_3 1_555 1_555
C57_3 C56_3 1_555 1_555
H65_3 C57_3 1_555 1_555
H66_3 C57_3 1_555 1_555
H67_3 C57_3 1_555 1_555
Ce2 O1_3 1_555 1_555
N1_3 C5_3 1_555 1_555
N2_3 C9_3 1_555 1_555
N3_3 C38_3 1_555 1_555
O1_3 C1_3 1_555 1_555
O9 C1_3 1_555 1_555
O10_2 C17_3 1_555 1_555
O4_2 C17_3 1_555 1_555
O7_3 C46_3 1_555 1_555
O8_3 C46_3 1_555 1_555
O11_2 Ce2 1_555 1_555
O12_2 Ce2 1_555 1_555
O13_2 Ce2 1_555 1_555
C6_3 C7_3 1_555 1_555
C8_3 N1_3 1_555 1_555
C10_3 N1_3 1_555 1_555
C10_3 N2_3 1_555 1_555
C11_3 N2_3 1_555 1_555
C15_3 C16_3 1_555 1_555
C37_3 N4_3 1_555 1_555
C38_3 N4_3 1_555 1_555
C39_3 N3_3 1_555 1_555
C40_3 N3_3 1_555 1_555
C44_3 C45_3 1_555 1_555
Ce2 O7_3 1_555 1_555
Ce2 O8_3 1_555 1_555
C30_3 C31_3 1_555 1_555
C31_3 C32_3 1_555 1_555
C32_3 H36_3 1_555 1_555
C33_3 C32_3 1_555 1_555
C34_3 C33_3 1_555 1_555
C35_3 C34_3 1_555 1_555
C36_3 C31_3 1_555 1_555
H37_3 C36_3 1_555 1_555
C47_3 C35_3 1_555 1_555
H43_3 C47_3 1_555 1_555
C48_3 C47_3 1_555 1_555
H44_3 C48_3 1_555 1_555
H45_3 C48_3 1_555 1_555
H46_3 C48_3 1_555 1_555
C49_3 C47_3 1_555 1_555
H47_3 C49_3 1_555 1_555
H48_3 C49_3 1_555 1_555
H49_3 C49_3 1_555 1_555
H68_3 C58_3 1_555 1_555
H69_3 C58_3 1_555 1_555
H70_3 C58_3 1_555 1_555
O5_2 C30_3 1_555 1_555
O6_2 C30_3 1_555 1_555
C35_3 C36_3 1_555 1_555
C30_4 C31_4 1_555 1_555
C31_4 C32_4 1_555 1_555
C32_4 H36_4 1_555 1_555
C33_4 C32_4 1_555 1_555
C34_4 C33_4 1_555 1_555
C35_4 C34_4 1_555 1_555
C36_4 C31_4 1_555 1_555
H37_4 C36_4 1_555 1_555
C47_4 C35_4 1_555 1_555
H43_4 C47_4 1_555 1_555
C48_4 C47_4 1_555 1_555
H44_4 C48_4 1_555 1_555
H45_4 C48_4 1_555 1_555
H46_4 C48_4 1_555 1_555
C49_4 C47_4 1_555 1_555
H47_4 C49_4 1_555 1_555
H48_4 C49_4 1_555 1_555
H49_4 C49_4 1_555 1_555
H68_4 C58_4 1_555 1_555
H69_4 C58_4 1_555 1_555
H70_4 C58_4 1_555 1_555
O12_2 C30_4 1_555 1_555
O13_2 C30_4 1_555 1_555
C35_4 C36_4 1_555 1_555
C37_4 H38_4 1_555 1_555
C38_4 H39_4 1_555 1_555
C39_4 C37_4 1_555 1_555
H40_4 C39_4 1_555 1_555
C40_4 C41_4 1_555 1_555
C41_4 C42_4 1_555 1_555
C42_4 H41_4 1_555 1_555
C43_4 C42_4 1_555 1_555
C44_4 C43_4 1_555 1_555
H42_4 C44_4 1_555 1_555
C45_4 C40_4 1_555 1_555
C46_4 C43_4 1_555 1_555
H50_4 C50_4 1_555 1_555
C51_4 C50_4 1_555 1_555
H51_4 C51_4 1_555 1_555
H52_4 C51_4 1_555 1_555
H53_4 C51_4 1_555 1_555
C52_4 C50_4 1_555 1_555
H54_4 C52_4 1_555 1_555
H55_4 C52_4 1_555 1_555
H56_4 C52_4 1_555 1_555
C53_4 C45_4 1_555 1_555
H57_4 C53_4 1_555 1_555
C54_4 C53_4 1_555 1_555
H58_4 C54_4 1_555 1_555
H59_4 C54_4 1_555 1_555
H60_4 C54_4 1_555 1_555
C55_4 C53_4 1_555 1_555
H61_4 C55_4 1_555 1_555
H62_4 C55_4 1_555 1_555
H63_4 C55_4 1_555 1_555
C56_4 C41_4 1_555 1_555
H64_4 C56_4 1_555 1_555
N3_4 C38_4 1_555 1_555
O7_4 C46_4 1_555 1_555
O8_4 C46_4 1_555 1_555
C37_4 N4_4 1_555 1_555
C38_4 N4_4 1_555 1_555
C39_4 N3_4 1_555 1_555
C40_4 N3_4 1_555 1_555
C44_4 C45_4 1_555 1_555
Ce3 O7_4 1_555 1_555
Ce3 O8_4 1_555 1_555
H65_4 C57_4 1_555 1_555
H66_4 C57_4 1_555 1_555
H67_4 C57_4 1_555 1_555
C1_4 C2_4 1_555 1_555
C2_4 C3_4 1_555 1_555
C3_4 H1_4 1_555 1_555
C4_4 C3_4 1_555 1_555
C5_4 C4_4 1_555 1_555
C6_4 C5_4 1_555 1_555
C7_4 C2_4 1_555 1_555
H2_4 C7_4 1_555 1_555
C8_4 H3_4 1_555 1_555
C9_4 C8_4 1_555 1_555
H4_4 C9_4 1_555 1_555
C10_4 H5_4 1_555 1_555
C11_4 C12_4 1_555 1_555
C12_4 C13_4 1_555 1_555
C13_4 H6_4 1_555 1_555
C14_4 C13_4 1_555 1_555
C15_4 C14_4 1_555 1_555
H7_4 C15_4 1_555 1_555
C16_4 C11_4 1_555 1_555
C17_4 C14_4 1_555 1_555
C18_4 C4_4 1_555 1_555
H8_4 C18_4 1_555 1_555
C19_4 C18_4 1_555 1_555
H9_4 C19_4 1_555 1_555
H10_4 C19_4 1_555 1_555
H11_4 C19_4 1_555 1_555
C20_4 C18_4 1_555 1_555
H12_4 C20_4 1_555 1_555
H13_4 C20_4 1_555 1_555
H14_4 C20_4 1_555 1_555
C21_4 C6_4 1_555 1_555
H15_4 C21_4 1_555 1_555
C22_4 C21_4 1_555 1_555
H16_4 C22_4 1_555 1_555
H17_4 C22_4 1_555 1_555
H18_4 C22_4 1_555 1_555
C23_4 C21_4 1_555 1_555
H19_4 C23_4 1_555 1_555
H20_4 C23_4 1_555 1_555
H21_4 C23_4 1_555 1_555
C24_4 C12_4 1_555 1_555
H22_4 C24_4 1_555 1_555
C25_4 C24_4 1_555 1_555
H23_4 C25_4 1_555 1_555
H24_4 C25_4 1_555 1_555
H25_4 C25_4 1_555 1_555
C26_4 C24_4 1_555 1_555
H26_4 C26_4 1_555 1_555
H27_4 C26_4 1_555 1_555
H28_4 C26_4 1_555 1_555
C27_4 C16_4 1_555 1_555
H29_4 C27_4 1_555 1_555
C28_4 C27_4 1_555 1_555
H30_4 C28_4 1_555 1_555
H31_4 C28_4 1_555 1_555
H32_4 C28_4 1_555 1_555
C29_4 C27_4 1_555 1_555
H33_4 C29_4 1_555 1_555
H34_4 C29_4 1_555 1_555
H35_4 C29_4 1_555 1_555
N1_4 C5_4 1_555 1_555
N2_4 C9_4 1_555 1_555
O1_4 C1_4 1_555 1_555
O9_2 C1_4 1_555 1_555
O10 C17_4 1_555 1_555
O11_2 C17_4 1_555 1_555
C6_4 C7_4 1_555 1_555
C8_4 N1_4 1_555 1_555
C10_4 N1_4 1_555 1_555
C10_4 N2_4 1_555 1_555
C11_4 N2_4 1_555 1_555
C15_4 C16_4 1_555 1_555
N5 O14 1_555 1_555
O15 N5 1_555 1_555
O16 N5 1_555 1_555
N5_2 O14_2 1_555 1_555
O15_2 N5_2 1_555 1_555
O16_2 N5_2 1_555 1_555
N5_3 O14_3 1_555 1_555
O15_3 N5_3 1_555 1_555
O16_3 N5_3 1_555 1_555
N5_4 O14_4 1_555 1_555
O15_4 N5_4 1_555 1_555
O16_4 N5_4 1_555 1_555

#END
