
###############################################################################
#
# This file contains modified crystal structure data generated from the
# MOF subset of the Cambridge Structural Database (CSD) v543 
# hosted by the Cambridge Crystallographic Data Centre (CCDC).
#
# This work is licensed under the Creative Commons
# Attribution-NonCommercial-ShareAlike 4.0 International License.
# To view a copy of this license, visit
# http://creativecommons.org/licenses/by-nc-sa/4.0/
# or send a letter to
# Creative Commons, PO Box 1866, Mountain View, CA 94042, USA.
#
# CIF created using the CSD Python API on 29 September 2022
# The structure has been converted into the P1 space group
# The structure has a 3D framework
# The original CSD entry MAMVED is in the tetragonal crystal system
# The original CSD entry MAMVED is in a Sohncke space group
# The framework has been calculated to contain at least 10.0% void space
# The void calculation uses a probe of radius 1.32A, grid spacing 0.4
# H atom positions have been added when not included in the experimental data
#
###############################################################################

data_MAMVED
_chemical_formula_moiety         '(C576 H1048 O504 Rb17 8-)n'
_symmetry_cell_setting           triclinic
_symmetry_space_group_name_H-M   'P 1'
_symmetry_Int_Tables_number      1
_space_group_name_Hall           'P 1'
loop_
_symmetry_equiv_pos_site_id
_symmetry_equiv_pos_as_xyz
1 x,y,z
_cell_length_a                   27.16530(10)
_cell_length_b                   27.16530(10)
_cell_length_c                   37.9051(4)
_cell_angle_alpha                90
_cell_angle_beta                 90
_cell_angle_gamma                90
_cell_volume                     27972.2
loop_
_atom_site_label
_atom_site_type_symbol
_atom_site_fract_x
_atom_site_fract_y
_atom_site_fract_z
O1 O 0.26846(18) 0.92719(15) 0.08297(14)
H247 H 0.305014 0.92719 0.08297
O1_2 O 0.73154(18) 0.07281(15) 0.58297(14)
H247_2 H 0.694986 0.07281 0.58297
O1_3 O 0.57281(15) 0.76846(18) 0.83297(14)
H247_3 H 0.57281 0.805014 0.83297
O1_4 O 0.42719(15) 0.23154(18) 0.33297(14)
H247_4 H 0.42719 0.194986 0.33297
O1_5 O 0.23154(18) 0.42719(15) 0.66703(14)
H247_5 H 0.194986 0.42719 0.66703
O1_6 O 0.76846(18) 0.57281(15) 0.16703(14)
H247_6 H 0.805014 0.57281 0.16703
O1_7 O 0.92719(15) 0.26846(18) 0.91703(14)
H247_7 H 0.92719 0.305014 0.91703
O1_8 O 0.07281(15) 0.73154(18) 0.41703(14)
H247_8 H 0.07281 0.694986 0.41703
Rb9 Rb 0.011130(17) 0.467620(17) 0.750870(13)
O93 O 0.09247(13) 0.40850(13) 0.77475(9)
H134 H 0.0809 0.3878 0.7552
O96 O 0.04910(13) 0.46763(14) 0.82722(9)
H137 H 0.0468 0.4895 0.8477
O100 O 0.05754(14) 0.54857(13) 0.70420(9)
O106 O 0.05255(19) 0.56485(17) 0.77472(11)
H141 H 0.0783 0.5430 0.7837
O115 O 0.06431(14) 0.35787(14) 0.72654(9)
O118 O 0.02170(15) 0.42208(14) 0.67656(10)
H147 H 0.0008 0.4304 0.6564
H257 H 0.0893287 0.394216 0.798759
H259 H 0.085232 0.464505 0.823943
H261 H 0.033086 0.582848 0.792757
H264 H 0.0180042 0.386015 0.679909
Rb2 Rb 0.467620(17) 0.011130(17) 0.249130(13)
O92 O 0.40850(13) 0.09247(13) 0.22525(9)
H133 H 0.3878 0.0809 0.2448
O95 O 0.46763(14) 0.04910(13) 0.17278(9)
H136 H 0.4895 0.0468 0.1523
O99 O 0.54857(13) 0.05754(14) 0.29580(9)
O105 O 0.56485(17) 0.05255(19) 0.22528(11)
H140 H 0.5430 0.0783 0.2163
O114 O 0.35787(14) 0.06431(14) 0.27346(9)
O117 O 0.42208(14) 0.02170(15) 0.32344(10)
H146 H 0.4304 0.0008 0.3436
H256 H 0.394216 0.0893287 0.201241
H258 H 0.464505 0.085232 0.176057
H262 H 0.582848 0.033086 0.207243
H269 H 0.386015 0.0180042 0.320091
Rb8 Rb 0.257694(17) 0.209564(17) 0.747550(13)
O67 O 0.32474(15) 0.11510(15) 0.76812(11)
H119 H 0.3050 0.1290 0.7873
O69 O 0.21995(14) 0.11363(14) 0.76649(11)
H121 H 0.1878 0.1065 0.7771
O71 O 0.18426(13) 0.01432(13) 0.77871(9)
O74 O 0.13015(14) 0.10000(13) 0.79486(10)
H124 H 0.1078 0.1208 0.7811
O75 O 0.08767(17) 0.05922(15) 0.85907(12)
H125 H 0.0845 0.0404 0.8810
O79 O 0.07672(16) 0.00123(16) 0.92870(11)
H127 H 0.0472 0.0073 0.9429
O101 O 0.46181(13) 0.03478(15) 0.86668(9)
O102 O 0.40307(13) 0.08354(13) 0.81361(9)
H138 H 0.3759 0.0932 0.7980
O103 O 0.33983(13) 0.01417(14) 0.77666(9)
C73 C 0.32626(17) 0.03206(19) 0.74371(12)
H163 H 0.3563 0.0393 0.7294
C74 C 0.29684(17) 0.08013(17) 0.74987(13)
H164 H 0.2895 0.0943 0.7261
C75 C 0.24932(18) 0.07048(18) 0.76692(14)
H165 H 0.2564 0.0628 0.7922
C76 C 0.21993(18) 0.02719(19) 0.75211(14)
H166 H 0.2030 0.0370 0.7298
C79 C 0.13491(16) 0.01780(15) 0.77103(12)
H170 H 0.1310 0.0315 0.7467
C80 C 0.11069(19) 0.05389(19) 0.79784(13)
H171 H 0.0750 0.0562 0.7917
C81 C 0.1142(2) 0.0308(2) 0.83360(13)
H172 H 0.1496 0.0313 0.8407
C104 C 0.45382(19) 0.0165(2) 0.83232(13)
H199 H 0.4798 0.0306 0.8166
C105 C 0.40348(18) 0.03132(18) 0.81736(13)
H200 H 0.3776 0.0220 0.8349
C106 C 0.39121(19) 0.0060(2) 0.78179(13)
H201 H 0.4101 0.0223 0.7624
H260 H 0.495267 0.025275 0.874739
Rb1 Rb 0.242306(17) 0.709564(17) 0.002450(13)
Rb3 Rb 0.59783(4) 0.59783(4) 0.0000
O3 O 0.3333(12) 0.9261(6) 0.1566(8)
H2 H 0.3127 0.9325 0.1359
O4 O 0.20319(12) 0.49723(13) 0.02391(9)
O8 O 0.2446(2) 0.39993(19) 0.02972(15)
H5 H 0.2616 0.3762 0.0449
O32 O 0.06485(17) 0.44745(19) 0.02472(11)
H17 H 0.0430 0.4217 0.0337
O33 O 0.45250(13) 0.92588(12) 0.20093(9)
O34 O 0.53922(16) 0.94877(14) 0.12838(10)
H18 H 0.5378 0.9841 0.1231
O35 O 0.59949(14) 0.90182(14) 0.18221(11)
H19 H 0.6135 0.8760 0.1972
O36 O 0.54066(13) 0.82719(12) 0.21827(9)
O37 O 0.46539(15) 0.90688(14) 0.27465(9)
H20 H 0.4506 0.9010 0.2979
O38 O 0.34543(14) 0.85792(14) 0.09537(9)
O39 O 0.43569(14) 0.85787(14) 0.02346(9)
O40 O 0.47830(15) 0.92208(14) 0.07344(10)
H21 H 0.4992 0.9304 0.0936
O41 O 0.45511(14) 0.89177(13) 0.14485(9)
O42 O 0.33190(14) 0.67279(14) 0.06116(9)
H22 H 0.4455 0.6408 0.0036
O44 O 0.41904(15) 0.76301(13) 0.00015(10)
H23 H 0.4244 0.7959 0.0100
O45 O 0.38943(13) 0.79274(13) 0.07029(9)
O46 O 0.26564(15) 0.75220(15) 0.07447(11)
H24 H 0.2385 0.7285 0.0757
O47 O 0.45294(13) 0.53240(13) 0.11189(10)
O48 O 0.56585(17) 0.5611(2) 0.06697(12)
H25 H 0.5791 0.5701 0.0901
O49 O 0.49540(18) 0.60488(19) 0.02228(12)
H26 H 0.4687 0.6240 0.0116
O50 O 0.41076(15) 0.64073(14) 0.06394(10)
O51 O 0.34922(14) 0.52848(14) 0.08487(11)
H27 H 0.3746 0.5054 0.0768
O52 O 0.54506(14) 0.59237(14) 0.22469(9)
O53 O 0.66414(16) 0.63703(15) 0.19065(11)
H28 H 0.6574 0.6690 0.2016
O54 O 0.62212(18) 0.58785(19) 0.12915(12)
H29 H 0.6006 0.5796 0.1093
O55 O 0.51787(14) 0.58163(14) 0.12978(9)
O56 O 0.50318(16) 0.50270(14) 0.21742(10)
O57 O 0.53429(14) 0.77797(13) 0.26900(9)
O58 O 0.64334(14) 0.83006(13) 0.22419(10)
H30 H 0.6576 0.8537 0.2408
O59 O 0.65986(14) 0.72808(13) 0.21858(10)
H31 H 0.6575 0.6951 0.2082
O60 O 0.56761(14) 0.67321(14) 0.21259(10)
O61 O 0.4471(2) 0.72089(19) 0.27375(15)
H32 H 0.4273 0.6986 0.2882
O63 O 0.1964(3) 0.6798(3) 0.08368(18)
C1 C 0.17374(17) 0.53206(19) 0.00629(12)
H33 H 0.1437 0.5393 0.0206
C2 C 0.20316(17) 0.58013(17) 0.00013(13)
H34 H 0.2105 0.5943 0.0239
H36 H 0.2970 0.5370 0.0202
C5 C 0.24719(16) 0.48206(17) 0.00425(13)
C6 C 0.2715(2) 0.4422(2) 0.02784(17)
H38 H 0.3046 0.4344 0.0183
H39 H 0.2759 0.4556 0.0519
H40 H 0.3690 0.5315 0.0033
C36 C 0.1010(2) 0.4261(2) 0.00299(16)
H73 H 0.0958 0.3902 0.0010
H74 H 0.1343 0.4320 0.0129
C37 C 0.46884(19) 0.93364(17) 0.16508(12)
H75 H 0.4525 0.9636 0.1552
C38 C 0.52332(19) 0.94044(19) 0.16441(13)
H76 H 0.5329 0.9690 0.1796
C39 C 0.54645(18) 0.89364(18) 0.17828(12)
H77 H 0.5409 0.8665 0.1609
C40 C 0.52616(19) 0.87829(18) 0.21362(13)
H78 H 0.5397 0.8994 0.2329
C41 C 0.46951(18) 0.87864(16) 0.21395(12)
H79 H 0.4570 0.8519 0.1982
C42 C 0.44806(17) 0.87201(18) 0.25077(13)
H80 H 0.4117 0.8744 0.2494
H81 H 0.4564 0.8387 0.2595
C43 C 0.36998(18) 0.83988(16) 0.06393(12)
H82 H 0.3455 0.8378 0.0442
C44 C 0.41036(19) 0.87493(18) 0.05366(12)
H83 H 0.3948 0.9072 0.0476
C45 C 0.4462(2) 0.8837(2) 0.08284(15)
H84 H 0.4660 0.8531 0.0864
C46 C 0.4186(2) 0.89578(19) 0.11776(14)
H85 H 0.4053 0.9301 0.1169
C47 C 0.3791(2) 0.86113(19) 0.12477(13)
H86 H 0.3936 0.8279 0.1291
C48 C 0.3479(2) 0.8758(3) 0.15676(17)
H87 H 0.3180 0.8549 0.1574
H88 H 0.3669 0.8692 0.1785
C49 C 0.37069(18) 0.64900(17) 0.04262(14)
H89 H 0.3585 0.6168 0.0333
C50 C 0.3859(2) 0.68173(17) 0.01181(13)
C51 C 0.40543(17) 0.73084(16) 0.02704(12)
H91 H 0.4355 0.7233 0.0413
C52 C 0.36679(18) 0.75157(16) 0.05185(12)
H92 H 0.3385 0.7641 0.0376
C53 C 0.3482(2) 0.7163(2) 0.07815(17)
H93 H 0.3748 0.7082 0.0954
C54 C 0.3033(2) 0.7377(2) 0.09770(15)
H94 H 0.2903 0.7127 0.1142
H95 H 0.3139 0.7665 0.1118
C55 C 0.50278(18) 0.54106(17) 0.10891(13)
H96 H 0.5215 0.5110 0.1161
C56 C 0.5154(2) 0.5545(2) 0.06947(14)
H97 H 0.5060 0.5260 0.0542
C57 C 0.4859(2) 0.5983(2) 0.05827(14)
H98 H 0.4990 0.6277 0.0711
C58 C 0.43177(18) 0.59399(18) 0.06679(13)
H99 H 0.4157 0.5713 0.0495
C59 C 0.42263(19) 0.57451(18) 0.10491(13)
H100 H 0.4322 0.6011 0.1218
C60 C 0.37012(19) 0.5613(2) 0.11184(14)
H101 H 0.3678 0.5450 0.1351
H102 H 0.3503 0.5918 0.1129
C61 C 0.58527(18) 0.62578(17) 0.22019(12)
H103 H 0.6037 0.6274 0.2430
C62 C 0.62153(19) 0.6084(2) 0.19122(14)
H104 H 0.6316 0.5739 0.1972
C63 C 0.5940(2) 0.6064(2) 0.15662(15)
H105 H 0.5832 0.6404 0.1503
C64 C 0.5479(2) 0.57348(19) 0.16027(14)
H106 H 0.5582 0.5381 0.1611
C65 C 0.51623(19) 0.58584(19) 0.19379(14)
H107 H 0.4979 0.6171 0.1892
C66 C 0.4791(3) 0.5459(2) 0.20272(18)
H108 H 0.4550 0.5589 0.2200
H109 H 0.4609 0.5365 0.1811
C67 C 0.56391(18) 0.81424(17) 0.24976(14)
H110 H 0.5663 0.8445 0.2647
C68 C 0.61619(17) 0.79655(17) 0.24217(12)
H111 H 0.6329 0.7898 0.2652
C69 C 0.61361(18) 0.74816(17) 0.22126(12)
H112 H 0.6020 0.7561 0.1969
C70 C 0.57674(18) 0.71099(18) 0.23756(13)
H113 H 0.5918 0.6961 0.2591
C71 C 0.52785(18) 0.73465(18) 0.24758(14)
H114 H 0.5098 0.7438 0.2256
C72 C 0.4951(2) 0.7015(2) 0.27003(17)
H115 H 0.4931 0.6686 0.2590
H116 H 0.5101 0.6975 0.2937
Rb6 Rb 0.742306(17) 0.790436(17) 0.247550(13)
Rb13 Rb 0.967620(17) 0.488870(17) 0.000870(13)
O68 O 0.61510(15) 0.17526(15) 0.01812(11)
H120 H 0.6290 0.1950 0.0373
O70 O 0.61363(14) 0.28005(14) 0.01649(11)
H122 H 0.6065 0.3122 0.0271
O84 O 0.79294(14) 0.22922(14) 0.05028(11)
O85 O 0.21464(14) 0.89604(15) 0.01042(9)
H130 H 0.1944 0.8836 0.0299
O86 O 0.31787(14) 0.89291(15) 0.00020(10)
O89 O 0.72964(19) 0.3097(2) 0.06021(13)
O121 O 0.65868(13) 0.42148(13) 0.01081(9)
O137 O 0.14334(14) 0.66994(13) 0.02581(10)
H157 H 0.1576 0.6463 0.0092
O140 O 0.15986(14) 0.77192(13) 0.03142(10)
H160 H 0.1575 0.8049 0.0418
O144 O 0.6641(3) 0.2129(2) 0.0731(2)
H185 H 0.2466 0.8305 0.0107
H220 H 0.6890 0.3558 0.0025
H249 H 0.206578 0.645792 0.0899307
H250 H 0.209381 0.703175 0.101543
H253 H 0.520948 0.512011 0.23932
H254 H 0.599923 0.255565 0.033279
H255 H 0.618619 0.138888 0.0187866
H265 H 0.113405 0.688131 0.0183223
H268 H 0.145689 0.750615 0.0501284
H272 H 0.664516 0.17654 0.0757766
H273 H 0.684088 0.228106 0.0921346
Rb3_2 Rb 0.59783(4) 0.59783(4) 1.0000
O2 O 0.0250(6) 0.3235(13) 0.9133(8)
H1 H 0.0169 0.2999 0.8947
O5 O 0.17526(15) 0.61510(15) 0.98188(11)
H3 H 0.1950 0.6290 0.9627
O6 O 0.28005(14) 0.61363(14) 0.98351(11)
H4 H 0.3122 0.6065 0.9729
O7 O 0.31574(13) 0.51432(13) 0.97129(9)
O9 O 0.38796(13) 0.47007(12) 0.97758(9)
O10 O 0.36985(14) 0.60000(13) 0.95514(10)
H6 H 0.3922 0.6208 0.9689
O11 O 0.41233(17) 0.55922(15) 0.89093(12)
H7 H 0.4155 0.5404 0.8690
O12 O 0.38753(13) 0.45759(13) 0.88129(9)
O13 O 0.45399(13) 0.39590(13) 0.95089(9)
H8 H 0.4624 0.3932 0.9760
O14 O 0.41756(13) 0.38133(13) 0.86399(10)
O15 O 0.42328(16) 0.50123(16) 0.82130(11)
H9 H 0.4528 0.5073 0.8071
O16 O 0.35543(14) 0.44835(14) 0.77612(9)
H10 H 0.3299 0.4270 0.7661
O17 O 0.30656(13) 0.36938(14) 0.81015(9)
O18 O 0.40171(18) 0.28545(16) 0.83550(12)
H11 H 0.3995 0.2498 0.8391
O19 O 0.27078(14) 0.29294(14) 0.80028(11)
O20 O 0.28536(14) 0.39604(15) 0.73958(9)
H12 H 0.3056 0.3836 0.7201
O21 O 0.18213(14) 0.39291(15) 0.74980(10)
H13 H 0.1496 0.3981 0.7603
O22 O 0.15642(13) 0.35687(14) 0.82026(9)
O23 O 0.1903(2) 0.22964(19) 0.81021(13)
O24 O 0.08855(14) 0.32286(14) 0.84895(10)
O27 O 0.07865(12) 0.43974(13) 0.89656(8)
O28 O 0.04857(13) 0.44246(14) 0.95420(9)
O29 O 0.03819(13) 0.53478(15) 0.88332(9)
O30 O 0.09693(13) 0.58354(13) 0.93639(9)
H16 H 0.1241 0.5932 0.9520
O31 O 0.16017(13) 0.51417(14) 0.97334(9)
O43 O 0.42148(13) 0.65868(13) 0.98919(9)
O62 O 0.2129(2) 0.6641(3) 0.9269(2)
C3 C 0.25068(18) 0.57048(18) 0.98308(14)
H35 H 0.2436 0.5628 0.9578
C4 C 0.28007(18) 0.52719(19) 0.99789(14)
H37 H 0.2373 0.4673 0.9811
C7 C 0.36509(16) 0.51780(15) 0.97897(12)
C8 C 0.38931(19) 0.55389(19) 0.95216(13)
H41 H 0.4250 0.5562 0.9583
C9 C 0.3858(2) 0.5308(2) 0.91640(13)
H42 H 0.3504 0.5313 0.9093
C10 C 0.40331(17) 0.47633(16) 0.91491(12)
H43 H 0.4399 0.4742 0.9173
C11 C 0.37805(18) 0.44762(19) 0.94410(13)
H44 H 0.3418 0.4451 0.9398
C12 C 0.4021(2) 0.3953(2) 0.94696(14)
H45 H 0.3876 0.3779 0.9674
H46 H 0.3938 0.3763 0.9255
C13 C 0.42215(17) 0.43277(16) 0.86150(12)
H47 H 0.4559 0.4428 0.8693
C14 C 0.4141(2) 0.4494(2) 0.82305(15)
H48 H 0.4386 0.4322 0.8077
C15 C 0.36424(17) 0.43465(17) 0.81177(12)
H49 H 0.3400 0.4526 0.8269
C16 C 0.35616(16) 0.38084(18) 0.81690(12)
H50 H 0.3776 0.3621 0.8002
C17 C 0.36831(19) 0.36575(18) 0.85451(13)
H51 H 0.3439 0.3807 0.8711
C18 C 0.3676(2) 0.3098(2) 0.85822(15)
H52 H 0.3752 0.3010 0.8830
H53 H 0.3340 0.2977 0.8530
C19 C 0.29515(17) 0.33370(17) 0.78537(12)
H54 H 0.3264 0.3220 0.7742
C20 C 0.26248(18) 0.35630(18) 0.75694(13)
H55 H 0.2534 0.3305 0.7393
C21 C 0.2149(2) 0.3753(2) 0.77588(15)
H56 H 0.2241 0.4032 0.7918
C22 C 0.1919(2) 0.3354(2) 0.79742(14)
H57 H 0.1752 0.3114 0.7814
C23 C 0.23004(19) 0.30764(19) 0.82077(13)
H58 H 0.2415 0.3300 0.8400
C24 C 0.2086(2) 0.2605(2) 0.83720(15)
H59 H 0.2345 0.2430 0.8506
H60 H 0.1817 0.2691 0.8537
C25 C 0.10713(18) 0.34414(18) 0.81656(13)
H61 H 0.1043 0.3190 0.7974
C26 C 0.07650(18) 0.38927(19) 0.80600(12)
H62 H 0.0413 0.3792 0.8034
C27 C 0.08055(16) 0.42639(16) 0.83561(11)
H63 H 0.1154 0.4382 0.8370
C28 C 0.0666(2) 0.4047(2) 0.87028(14)
H64 H 0.0302 0.3989 0.8706
C29 C 0.09372(19) 0.35507(19) 0.87891(13)
H65 H 0.1295 0.3628 0.8813
C30 C 0.0774(4) 0.3334(4) 0.9129(3)
H66 H 0.0955 0.3024 0.9171
H67 H 0.0855 0.3564 0.9323
C31 C 0.04213(16) 0.45840(18) 0.91946(12)
H68 H 0.0089 0.4479 0.9109
C32 C 0.04618(19) 0.5165(2) 0.91768(13)
H69 H 0.0202 0.5306 0.9334
C33 C 0.09652(18) 0.53132(18) 0.93264(13)
H70 H 0.1224 0.5220 0.9151
C34 C 0.10879(19) 0.5060(2) 0.96821(13)
H71 H 0.0899 0.5223 0.9876
C35 C 0.0962(2) 0.45018(19) 0.96767(13)
H72 H 0.1200 0.4337 0.9513
H90 H 0.3558 0.6890 0.9975
Rb4 Rb 0.709564(17) 0.242306(17) 0.997550(13)
Rb7 Rb 0.790436(17) 0.742306(17) 0.752450(13)
Rb12 Rb 0.488870(17) 0.967620(17) 0.999130(13)
Rb14 Rb 0.532380(17) 0.988870(17) 0.749130(13)
O64 O 0.4750(6) 0.8235(13) 0.8367(8)
H117 H 0.4831 0.7999 0.8553
O65 O 0.9261(6) 0.3333(12) 0.8434(8)
H118 H 0.9325 0.3127 0.8641
O66 O 0.29681(12) 0.99723(13) 0.72609(9)
O72 O 0.2554(2) 0.89993(19) 0.72028(15)
H123 H 0.2384 0.8762 0.7051
O73 O 0.11204(13) 0.97007(12) 0.77242(9)
O76 O 0.11247(13) 0.95759(13) 0.86871(9)
O77 O 0.04601(13) 0.89590(13) 0.79911(9)
H126 H 0.0376 0.8932 0.7740
O78 O 0.08244(13) 0.88133(13) 0.88601(10)
O80 O 0.14457(14) 0.94835(14) 0.97388(9)
H128 H 0.1701 0.9270 0.9839
O81 O 0.19344(13) 0.86938(14) 0.93985(9)
O82 O 0.09829(18) 0.78545(16) 0.91450(12)
H129 H 0.1005 0.7498 0.9109
O83 O 0.22922(14) 0.79294(14) 0.94972(11)
H131 H 0.3504 0.8981 0.9897
O87 O 0.34358(13) 0.85687(14) 0.92974(9)
O88 O 0.3097(2) 0.72964(19) 0.93979(13)
O90 O 0.41145(14) 0.82286(14) 0.90105(10)
O91 O 0.40753(13) 0.90850(13) 0.97525(9)
H132 H 0.4191 0.8878 0.9948
O94 O 0.45090(13) 0.96763(14) 0.92278(9)
H135 H 0.4532 0.9895 0.9023
O97 O 0.42135(12) 0.93974(13) 0.85344(8)
O98 O 0.45143(13) 0.94246(14) 0.79580(9)
O104 O 0.43515(17) 0.94745(19) 0.72528(11)
H139 H 0.4570 0.9217 0.7163
O107 O 0.92588(12) 0.45250(13) 0.79907(9)
O108 O 0.94877(14) 0.53922(16) 0.87162(10)
H142 H 0.9841 0.5378 0.8769
O109 O 0.90182(14) 0.59949(14) 0.81779(11)
H143 H 0.8760 0.6135 0.8028
O110 O 0.82719(12) 0.54066(13) 0.78173(9)
O111 O 0.90688(14) 0.46539(15) 0.72535(9)
H144 H 0.9010 0.4506 0.7021
O112 O 0.85792(14) 0.34543(14) 0.90463(9)
O113 O 0.85787(14) 0.43569(14) 0.97654(9)
O116 O 0.92208(14) 0.47830(15) 0.92656(10)
H145 H 0.9304 0.4992 0.9064
O119 O 0.89177(13) 0.45511(14) 0.85515(9)
O120 O 0.67279(14) 0.33190(14) 0.93884(9)
H148 H 0.6408 0.4455 0.9964
O122 O 0.76301(13) 0.41904(15) 0.99985(10)
H149 H 0.7959 0.4244 0.9900
O123 O 0.79274(13) 0.38943(13) 0.92971(9)
O124 O 0.75220(15) 0.26564(15) 0.92553(11)
H150 H 0.7285 0.2385 0.9243
O125 O 0.53240(13) 0.45294(13) 0.88811(10)
O126 O 0.5611(2) 0.56585(17) 0.93303(12)
H151 H 0.5701 0.5791 0.9099
O127 O 0.60488(19) 0.49540(18) 0.97772(12)
H152 H 0.6240 0.4687 0.9884
O128 O 0.64073(14) 0.41076(15) 0.93606(10)
O129 O 0.52848(14) 0.34922(14) 0.91513(11)
H153 H 0.5054 0.3746 0.9232
O130 O 0.59237(14) 0.54506(14) 0.77531(9)
O131 O 0.63703(15) 0.66414(16) 0.80935(11)
H154 H 0.6690 0.6574 0.7984
O132 O 0.58785(19) 0.62212(18) 0.87085(12)
H155 H 0.5796 0.6006 0.8907
O133 O 0.58163(14) 0.51787(14) 0.87022(9)
O134 O 0.50270(14) 0.50318(16) 0.78258(10)
O135 O 0.77797(13) 0.53429(14) 0.73100(9)
O136 O 0.83006(13) 0.64334(14) 0.77581(10)
O138 O 0.66994(13) 0.14334(14) 0.97419(10)
H156 H 0.8537 0.6576 0.7592
H158 H 0.6463 0.1576 0.9908
O139 O 0.72808(13) 0.65986(14) 0.78142(10)
O141 O 0.77192(13) 0.15986(14) 0.96858(10)
H159 H 0.6951 0.6575 0.7918
H161 H 0.8049 0.1575 0.9582
O142 O 0.67321(14) 0.56761(14) 0.78741(10)
O143 O 0.72089(19) 0.4471(2) 0.72625(15)
H162 H 0.6986 0.4273 0.7118
O145 O 0.6798(3) 0.1964(3) 0.91632(18)
C77 C 0.25281(16) 0.98206(17) 0.74575(13)
H167 H 0.2627 0.9673 0.7689
C78 C 0.2285(2) 0.9422(2) 0.72216(17)
H168 H 0.1954 0.9344 0.7317
H169 H 0.2241 0.9556 0.6981
C82 C 0.09669(17) 0.97633(16) 0.83509(12)
H173 H 0.0601 0.9742 0.8327
C83 C 0.12195(18) 0.94762(19) 0.80590(13)
H174 H 0.1582 0.9451 0.8102
C84 C 0.0979(2) 0.8953(2) 0.80304(14)
H175 H 0.1124 0.8779 0.7826
H176 H 0.1062 0.8763 0.8245
C85 C 0.07785(17) 0.93277(16) 0.88850(12)
H177 H 0.0441 0.9428 0.8807
C86 C 0.0859(2) 0.9494(2) 0.92695(15)
H178 H 0.0614 0.9322 0.9423
C87 C 0.13576(17) 0.93465(17) 0.93823(12)
H179 H 0.1600 0.9526 0.9231
C88 C 0.14384(16) 0.88084(18) 0.93310(12)
H180 H 0.1224 0.8621 0.9498
C89 C 0.13169(19) 0.86575(18) 0.89549(13)
H181 H 0.1561 0.8807 0.8789
C90 C 0.1324(2) 0.8098(2) 0.89178(15)
H182 H 0.1248 0.8010 0.8670
H183 H 0.1660 0.7977 0.8970
C91 C 0.20485(17) 0.83370(17) 0.96463(12)
H184 H 0.1736 0.8220 0.9758
C92 C 0.23752(18) 0.85630(18) 0.99306(13)
C93 C 0.2851(2) 0.8753(2) 0.97412(15)
H186 H 0.2759 0.9032 0.9582
C94 C 0.3081(2) 0.8354(2) 0.95258(14)
H187 H 0.3248 0.8114 0.9686
C95 C 0.26996(19) 0.80764(19) 0.92923(13)
H188 H 0.2585 0.8300 0.9100
C96 C 0.2914(2) 0.7605(2) 0.91280(15)
H189 H 0.2655 0.7430 0.8994
H190 H 0.3183 0.7691 0.8963
C97 C 0.39287(18) 0.84414(18) 0.93344(13)
H191 H 0.3957 0.8190 0.9526
C98 C 0.42350(18) 0.88927(19) 0.94400(12)
H192 H 0.4587 0.8792 0.9466
C99 C 0.41945(16) 0.92639(16) 0.91439(11)
H193 H 0.3846 0.9382 0.9130
C100 C 0.4334(2) 0.9047(2) 0.87972(14)
H194 H 0.4698 0.8989 0.8794
C101 C 0.40628(19) 0.85507(19) 0.87109(13)
H195 H 0.3705 0.8628 0.8687
C102 C 0.4226(4) 0.8334(4) 0.8371(3)
H196 H 0.4045 0.8024 0.8329
H197 H 0.4145 0.8564 0.8177
C103 C 0.45787(16) 0.95840(18) 0.83054(12)
H198 H 0.4911 0.9479 0.8391
C107 C 0.4038(2) 0.95018(19) 0.78233(13)
H202 H 0.3800 0.9337 0.7987
C108 C 0.3990(2) 0.9261(2) 0.74701(16)
H203 H 0.4042 0.8902 0.7490
H204 H 0.3657 0.9320 0.7371
C109 C 0.93364(17) 0.46884(19) 0.83492(12)
H205 H 0.9636 0.4525 0.8448
C110 C 0.94044(19) 0.52332(19) 0.83559(13)
H206 H 0.9690 0.5329 0.8204
C111 C 0.89364(18) 0.54645(18) 0.82172(12)
H207 H 0.8665 0.5409 0.8391
C112 C 0.87829(18) 0.52616(19) 0.78638(13)
H208 H 0.8994 0.5397 0.7671
C113 C 0.87864(16) 0.46951(18) 0.78605(12)
H209 H 0.8519 0.4570 0.8018
C114 C 0.87201(18) 0.44806(17) 0.74923(13)
H210 H 0.8744 0.4117 0.7506
H211 H 0.8387 0.4564 0.7405
C115 C 0.83988(16) 0.36998(18) 0.93607(12)
H212 H 0.8378 0.3455 0.9558
C116 C 0.87493(18) 0.41036(19) 0.94634(12)
H213 H 0.9072 0.3948 0.9524
C117 C 0.8837(2) 0.4462(2) 0.91716(15)
H214 H 0.8531 0.4660 0.9136
C118 C 0.89578(19) 0.4186(2) 0.88224(14)
H215 H 0.9301 0.4053 0.8831
C119 C 0.86113(19) 0.3791(2) 0.87523(13)
H216 H 0.8279 0.3936 0.8709
C120 C 0.8758(3) 0.3479(2) 0.84324(17)
H217 H 0.8549 0.3180 0.8426
H218 H 0.8692 0.3669 0.8215
C121 C 0.64900(17) 0.37069(18) 0.95738(14)
H219 H 0.6168 0.3585 0.9667
C122 C 0.68173(17) 0.3859(2) 0.98819(13)
C123 C 0.73084(16) 0.40543(17) 0.97296(12)
H221 H 0.7233 0.4355 0.9587
C124 C 0.75157(16) 0.36679(18) 0.94815(12)
H222 H 0.7641 0.3385 0.9624
C125 C 0.7163(2) 0.3482(2) 0.92185(17)
H223 H 0.7082 0.3748 0.9046
C126 C 0.7377(2) 0.3033(2) 0.90230(15)
H224 H 0.7127 0.2903 0.8858
H225 H 0.7665 0.3139 0.8882
C127 C 0.54106(17) 0.50278(18) 0.89109(13)
H226 H 0.5110 0.5215 0.8839
C128 C 0.5545(2) 0.5154(2) 0.93053(14)
H227 H 0.5260 0.5060 0.9458
C129 C 0.5983(2) 0.4859(2) 0.94173(14)
H228 H 0.6277 0.4990 0.9289
C130 C 0.59399(18) 0.43177(18) 0.93321(13)
H229 H 0.5713 0.4157 0.9505
C131 C 0.57451(18) 0.42263(19) 0.89509(13)
H230 H 0.6011 0.4322 0.8782
C132 C 0.5613(2) 0.37012(19) 0.88816(14)
H231 H 0.5450 0.3678 0.8649
H232 H 0.5918 0.3503 0.8871
C133 C 0.62578(17) 0.58527(18) 0.77981(12)
H233 H 0.6274 0.6037 0.7570
C134 C 0.6084(2) 0.62153(19) 0.80878(14)
H234 H 0.5739 0.6316 0.8028
C135 C 0.6064(2) 0.5940(2) 0.84338(15)
H235 H 0.6404 0.5832 0.8497
C136 C 0.57348(19) 0.5479(2) 0.83973(14)
H236 H 0.5381 0.5582 0.8389
C137 C 0.58584(19) 0.51623(19) 0.80621(14)
H237 H 0.6171 0.4979 0.8108
C138 C 0.5459(2) 0.4791(3) 0.79728(18)
H238 H 0.5589 0.4550 0.7800
H239 H 0.5365 0.4609 0.8189
C139 C 0.81424(17) 0.56391(18) 0.75024(14)
H240 H 0.8445 0.5663 0.7353
C140 C 0.79655(17) 0.61619(17) 0.75783(12)
H241 H 0.7898 0.6329 0.7348
C141 C 0.74816(17) 0.61361(18) 0.77874(12)
H242 H 0.7561 0.6020 0.8031
C142 C 0.71099(18) 0.57674(18) 0.76244(13)
H243 H 0.6961 0.5918 0.7409
C143 C 0.73465(18) 0.52785(18) 0.75242(14)
H244 H 0.7438 0.5098 0.7744
C144 C 0.7015(2) 0.4951(2) 0.72997(17)
H245 H 0.6686 0.4931 0.7410
H246 H 0.6975 0.5101 0.7063
H248 H 0.00473283 0.525275 0.875261
H251 H 0.17654 0.664516 0.924223
H252 H 0.228106 0.684088 0.907865
H263 H 0.512011 0.520948 0.76068
H266 H 0.688131 0.113405 0.981678
H267 H 0.750615 0.145689 0.949872
H270 H 0.645792 0.206578 0.910069
H271 H 0.703175 0.209381 0.898457
Rb11 Rb 0.032380(17) 0.511130(17) 0.500870(13)
Rb1_2 Rb 0.757694(17) 0.290436(17) 0.502450(13)
Rb3_3 Rb 0.40217(4) 0.40217(4) 0.5000
O2_2 O 0.9750(6) 0.6765(13) 0.4133(8)
H1_2 H 0.9831 0.7001 0.3947
O3_2 O 0.6667(12) 0.0739(6) 0.6566(8)
H2_2 H 0.6873 0.0675 0.6359
O4_2 O 0.79681(12) 0.50277(13) 0.52391(9)
O5_2 O 0.82474(15) 0.38490(15) 0.48188(11)
H3_2 H 0.8050 0.3710 0.4627
O6_2 O 0.71995(14) 0.38637(14) 0.48351(11)
H4_2 H 0.6878 0.3935 0.4729
O7_2 O 0.68426(13) 0.48568(13) 0.47129(9)
O8_2 O 0.7554(2) 0.60007(19) 0.52972(15)
H5_2 H 0.7384 0.6238 0.5449
O9_2 O 0.61204(13) 0.52993(12) 0.47758(9)
O10_2 O 0.63015(14) 0.40000(13) 0.45514(10)
H6_2 H 0.6078 0.3792 0.4689
O11_2 O 0.58767(17) 0.44078(15) 0.39093(12)
H7_2 H 0.5845 0.4596 0.3690
O12_2 O 0.61247(13) 0.54241(13) 0.38129(9)
O13_2 O 0.54601(13) 0.60410(13) 0.45089(9)
H8_2 H 0.5376 0.6068 0.4760
O14_2 O 0.58244(13) 0.61867(13) 0.36399(10)
O15_2 O 0.57672(16) 0.49877(16) 0.32130(11)
H9_2 H 0.5472 0.4927 0.3071
O16_2 O 0.64457(14) 0.55165(14) 0.27612(9)
H10_2 H 0.6701 0.5730 0.2661
O17_2 O 0.69344(13) 0.63062(14) 0.31015(9)
O18_2 O 0.59829(18) 0.71455(16) 0.33550(12)
H11_2 H 0.6005 0.7502 0.3391
O19_2 O 0.72922(14) 0.70706(14) 0.30028(11)
O20_2 O 0.71464(14) 0.60396(15) 0.23958(9)
H12_2 H 0.6944 0.6164 0.2201
O21_2 O 0.81787(14) 0.60709(15) 0.24980(10)
H13_2 H 0.8504 0.6019 0.2603
O22_2 O 0.84358(13) 0.64313(14) 0.32026(9)
O23_2 O 0.8097(2) 0.77036(19) 0.31021(13)
O24_2 O 0.91145(14) 0.67714(14) 0.34895(10)
O25 O 0.90753(13) 0.59150(13) 0.27475(9)
H14 H 0.9191 0.6122 0.2552
O26 O 0.95090(13) 0.53237(14) 0.32722(9)
H15 H 0.9532 0.5105 0.3477
O27_2 O 0.92135(12) 0.56026(13) 0.39656(8)
O28_2 O 0.95143(13) 0.55754(14) 0.45420(9)
O29_2 O 0.96181(13) 0.46522(15) 0.38332(9)
O30_2 O 0.90307(13) 0.41646(13) 0.43639(9)
H16_2 H 0.8759 0.4068 0.4520
O31_2 O 0.83983(13) 0.48583(14) 0.47334(9)
O32_2 O 0.93515(17) 0.55255(19) 0.52472(11)
H17_2 H 0.9570 0.5783 0.5337
O33_2 O 0.54750(13) 0.07412(12) 0.70093(9)
O34_2 O 0.46078(16) 0.05123(14) 0.62838(10)
H18_2 H 0.4622 0.0159 0.6231
O35_2 O 0.40051(14) 0.09818(14) 0.68221(11)
H19_2 H 0.3865 0.1240 0.6972
O36_2 O 0.45934(13) 0.17281(12) 0.71827(9)
O37_2 O 0.53461(15) 0.09312(14) 0.77465(9)
H20_2 H 0.5494 0.0990 0.7979
O38_2 O 0.65457(14) 0.14208(14) 0.59537(9)
O39_2 O 0.56431(14) 0.14213(14) 0.52346(9)
O40_2 O 0.52170(15) 0.07792(14) 0.57344(10)
H21_2 H 0.5008 0.0696 0.5936
O41_2 O 0.54489(14) 0.10823(13) 0.64485(9)
O42_2 O 0.66810(14) 0.32721(14) 0.56116(9)
O43_2 O 0.57852(13) 0.34132(13) 0.48919(9)
H22_2 H 0.5545 0.3592 0.5036
O44_2 O 0.58096(15) 0.23699(13) 0.50015(10)
H23_2 H 0.5756 0.2041 0.5100
O45_2 O 0.61057(13) 0.20726(13) 0.57029(9)
O46_2 O 0.73436(15) 0.24780(15) 0.57447(11)
H24_2 H 0.7615 0.2715 0.5757
O47_2 O 0.54706(13) 0.46760(13) 0.61189(10)
O48_2 O 0.43415(17) 0.4389(2) 0.56697(12)
H25_2 H 0.4209 0.4299 0.5901
O49_2 O 0.50460(18) 0.39512(19) 0.52228(12)
H26_2 H 0.5313 0.3760 0.5116
O50_2 O 0.58924(15) 0.35927(14) 0.56394(10)
O51_2 O 0.65078(14) 0.47152(14) 0.58487(11)
H27_2 H 0.6254 0.4946 0.5768
O52_2 O 0.45494(14) 0.40763(14) 0.72469(9)
O53_2 O 0.33586(16) 0.36297(15) 0.69065(11)
H28_2 H 0.3426 0.3310 0.7016
O54_2 O 0.37788(18) 0.41215(19) 0.62915(12)
H29_2 H 0.3994 0.4204 0.6093
O55_2 O 0.48213(14) 0.41837(14) 0.62978(9)
O56_2 O 0.49682(16) 0.49730(14) 0.71742(10)
O57_2 O 0.46571(14) 0.22203(13) 0.76900(9)
O58_2 O 0.35666(14) 0.16994(13) 0.72419(10)
H30_2 H 0.3424 0.1463 0.7408
O59_2 O 0.34014(14) 0.27192(13) 0.71858(10)
H31_2 H 0.3425 0.3049 0.7082
O60_2 O 0.43239(14) 0.32679(14) 0.71259(10)
O61_2 O 0.5529(2) 0.27911(19) 0.77375(15)
H32_2 H 0.5727 0.3014 0.7882
O62_2 O 0.7871(2) 0.3359(3) 0.4269(2)
O63_2 O 0.8036(3) 0.3202(3) 0.58368(18)
C1_2 C 0.82626(17) 0.46794(19) 0.50629(12)
H33_2 H 0.8563 0.4607 0.5206
C2_2 C 0.79684(17) 0.41987(17) 0.50013(13)
H34_2 H 0.7895 0.4057 0.5239
C3_2 C 0.74932(18) 0.42952(18) 0.48308(14)
H35_2 H 0.7564 0.4372 0.4578
C4_2 C 0.71993(18) 0.47281(19) 0.49789(14)
H36_2 H 0.7030 0.4630 0.5202
C5_2 C 0.75281(16) 0.51794(17) 0.50425(13)
H37_2 H 0.7627 0.5327 0.4811
C6_2 C 0.7285(2) 0.5578(2) 0.52784(17)
H38_2 H 0.6954 0.5656 0.5183
H39_2 H 0.7241 0.5444 0.5519
C7_2 C 0.63491(16) 0.48220(15) 0.47897(12)
H40_2 H 0.6310 0.4685 0.5033
C8_2 C 0.61069(19) 0.44611(19) 0.45216(13)
H41_2 H 0.5750 0.4438 0.4583
C9_2 C 0.6142(2) 0.4692(2) 0.41640(13)
H42_2 H 0.6496 0.4687 0.4093
C10_2 C 0.59669(17) 0.52367(16) 0.41491(12)
H43_2 H 0.5601 0.5258 0.4173
C11_2 C 0.62195(18) 0.55238(19) 0.44410(13)
H44_2 H 0.6582 0.5549 0.4398
C12_2 C 0.5979(2) 0.6047(2) 0.44696(14)
H45_2 H 0.6124 0.6221 0.4674
H46_2 H 0.6062 0.6237 0.4255
C13_2 C 0.57785(17) 0.56723(16) 0.36150(12)
H47_2 H 0.5441 0.5572 0.3693
C14_2 C 0.5859(2) 0.5506(2) 0.32305(15)
H48_2 H 0.5614 0.5678 0.3077
C15_2 C 0.63576(17) 0.56535(17) 0.31177(12)
H49_2 H 0.6600 0.5474 0.3269
C16_2 C 0.64384(16) 0.61916(18) 0.31690(12)
H50_2 H 0.6224 0.6379 0.3002
C17_2 C 0.63169(19) 0.63425(18) 0.35451(13)
H51_2 H 0.6561 0.6193 0.3711
C18_2 C 0.6324(2) 0.6902(2) 0.35822(15)
H52_2 H 0.6248 0.6990 0.3830
H53_2 H 0.6660 0.7023 0.3530
C19_2 C 0.70485(17) 0.66630(17) 0.28537(12)
H54_2 H 0.6736 0.6780 0.2742
C20_2 C 0.73752(18) 0.64370(18) 0.25694(13)
H55_2 H 0.7466 0.6695 0.2393
C21_2 C 0.7851(2) 0.6247(2) 0.27588(15)
H56_2 H 0.7759 0.5968 0.2918
C22_2 C 0.8081(2) 0.6646(2) 0.29742(14)
H57_2 H 0.8248 0.6886 0.2814
C23_2 C 0.76996(19) 0.69236(19) 0.32077(13)
H58_2 H 0.7585 0.6700 0.3400
C24_2 C 0.7914(2) 0.7395(2) 0.33720(15)
H59_2 H 0.7655 0.7570 0.3506
H60_2 H 0.8183 0.7309 0.3537
C25_2 C 0.89287(18) 0.65586(18) 0.31656(13)
H61_2 H 0.8957 0.6810 0.2974
C26_2 C 0.92350(18) 0.61073(19) 0.30600(12)
H62_2 H 0.9587 0.6208 0.3034
C27_2 C 0.91945(16) 0.57361(16) 0.33561(11)
H63_2 H 0.8846 0.5618 0.3370
C28_2 C 0.9334(2) 0.5953(2) 0.37028(14)
H64_2 H 0.9698 0.6011 0.3706
C29_2 C 0.90628(19) 0.64493(19) 0.37891(13)
H65_2 H 0.8705 0.6372 0.3813
C30_2 C 0.9226(4) 0.6666(4) 0.4129(3)
H66_2 H 0.9045 0.6976 0.4171
H67_2 H 0.9145 0.6436 0.4323
C31_2 C 0.95787(16) 0.54160(18) 0.41946(12)
H68_2 H 0.9911 0.5521 0.4109
C32_2 C 0.95382(19) 0.4835(2) 0.41768(13)
H69_2 H 0.9798 0.4694 0.4334
C33_2 C 0.90348(18) 0.46868(18) 0.43264(13)
H70_2 H 0.8776 0.4780 0.4151
C34_2 C 0.89121(19) 0.4940(2) 0.46821(13)
H71_2 H 0.9101 0.4777 0.4876
C35_2 C 0.9038(2) 0.54982(19) 0.46767(13)
H72_2 H 0.8800 0.5663 0.4513
C36_2 C 0.8990(2) 0.5739(2) 0.50299(16)
H73_2 H 0.9042 0.6098 0.5010
H74_2 H 0.8657 0.5680 0.5129
C37_2 C 0.53116(19) 0.06636(17) 0.66508(12)
H75_2 H 0.5475 0.0364 0.6552
C38_2 C 0.47668(19) 0.05956(19) 0.66441(13)
H76_2 H 0.4671 0.0310 0.6796
C39_2 C 0.45355(18) 0.10636(18) 0.67828(12)
H77_2 H 0.4591 0.1335 0.6609
C40_2 C 0.47384(19) 0.12171(18) 0.71362(13)
H78_2 H 0.4603 0.1006 0.7329
C41_2 C 0.53049(18) 0.12136(16) 0.71395(12)
H79_2 H 0.5430 0.1481 0.6982
C42_2 C 0.55194(17) 0.12799(18) 0.75077(13)
H80_2 H 0.5883 0.1256 0.7494
H81_2 H 0.5436 0.1613 0.7595
C43_2 C 0.63002(18) 0.16012(16) 0.56393(12)
H82_2 H 0.6545 0.1622 0.5442
C44_2 C 0.58964(19) 0.12507(18) 0.55366(12)
H83_2 H 0.6052 0.0928 0.5476
C45_2 C 0.5538(2) 0.1163(2) 0.58284(15)
H84_2 H 0.5340 0.1469 0.5864
C46_2 C 0.5814(2) 0.10422(19) 0.61776(14)
H85_2 H 0.5947 0.0699 0.6169
C47_2 C 0.6209(2) 0.13887(19) 0.62477(13)
H86_2 H 0.6064 0.1721 0.6291
C48_2 C 0.6521(2) 0.1242(3) 0.65676(17)
H87_2 H 0.6820 0.1451 0.6574
H88_2 H 0.6331 0.1308 0.6785
C49_2 C 0.62931(18) 0.35100(17) 0.54262(14)
H89_2 H 0.6415 0.3832 0.5333
C50_2 C 0.6141(2) 0.31827(17) 0.51181(13)
H90_2 H 0.6442 0.3110 0.4975
C51_2 C 0.59457(17) 0.26916(16) 0.52704(12)
H91_2 H 0.5645 0.2767 0.5413
C52_2 C 0.63321(18) 0.24843(16) 0.55185(12)
H92_2 H 0.6615 0.2359 0.5376
C53_2 C 0.6518(2) 0.2837(2) 0.57815(17)
H93_2 H 0.6252 0.2918 0.5954
C54_2 C 0.6967(2) 0.2623(2) 0.59770(15)
H94_2 H 0.7097 0.2873 0.6142
H95_2 H 0.6861 0.2335 0.6118
C55_2 C 0.49722(18) 0.45894(17) 0.60891(13)
H96_2 H 0.4785 0.4890 0.6161
C56_2 C 0.4846(2) 0.4455(2) 0.56947(14)
H97_2 H 0.4940 0.4740 0.5542
C57_2 C 0.5141(2) 0.4017(2) 0.55827(14)
H98_2 H 0.5010 0.3723 0.5711
C58_2 C 0.56823(18) 0.40601(18) 0.56679(13)
H99_2 H 0.5843 0.4287 0.5495
C59_2 C 0.57737(19) 0.42549(18) 0.60491(13)
H100_2 H 0.5678 0.3989 0.6218
C60_2 C 0.62988(19) 0.4387(2) 0.61184(14)
H101_2 H 0.6322 0.4550 0.6351
H102_2 H 0.6497 0.4082 0.6129
C61_2 C 0.41473(18) 0.37422(17) 0.72019(12)
H103_2 H 0.3963 0.3726 0.7430
C62_2 C 0.37847(19) 0.3916(2) 0.69122(14)
H104_2 H 0.3684 0.4261 0.6972
C63_2 C 0.4060(2) 0.3936(2) 0.65662(15)
H105_2 H 0.4168 0.3596 0.6503
C64_2 C 0.4521(2) 0.42652(19) 0.66027(14)
H106_2 H 0.4418 0.4619 0.6611
C65_2 C 0.48377(19) 0.41416(19) 0.69379(14)
H107_2 H 0.5021 0.3829 0.6892
C66_2 C 0.5209(3) 0.4541(2) 0.70272(18)
H108_2 H 0.5450 0.4411 0.7200
H109_2 H 0.5391 0.4635 0.6811
C67_2 C 0.43609(18) 0.18576(17) 0.74976(14)
H110_2 H 0.4337 0.1555 0.7647
C68_2 C 0.38381(17) 0.20345(17) 0.74217(12)
H111_2 H 0.3671 0.2102 0.7652
C69_2 C 0.38639(18) 0.25184(17) 0.72126(12)
H112_2 H 0.3980 0.2439 0.6969
C70_2 C 0.42326(18) 0.28901(18) 0.73756(13)
H113_2 H 0.4082 0.3039 0.7591
C71_2 C 0.47215(18) 0.26535(18) 0.74758(14)
H114_2 H 0.4902 0.2562 0.7256
C72_2 C 0.5049(2) 0.2985(2) 0.77003(17)
H115_2 H 0.5069 0.3314 0.7590
H116_2 H 0.4899 0.3025 0.7937
Rb4_2 Rb 0.290436(17) 0.757694(17) 0.497550(13)
Rb7_2 Rb 0.209564(17) 0.257694(17) 0.252450(13)
Rb10 Rb 0.988870(17) 0.532380(17) 0.250870(13)
Rb12_2 Rb 0.511130(17) 0.032380(17) 0.499130(13)
O64_2 O 0.5250(6) 0.1765(13) 0.3367(8)
H117_2 H 0.5169 0.2001 0.3553
O65_2 O 0.0739(6) 0.6667(12) 0.3434(8)
H118_2 H 0.0675 0.6873 0.3641
O66_2 O 0.70319(12) 0.00277(13) 0.22609(9)
O68_2 O 0.38490(15) 0.82474(15) 0.51812(11)
H120_2 H 0.3710 0.8050 0.5373
O70_2 O 0.38637(14) 0.71995(14) 0.51649(11)
H122_2 H 0.3935 0.6878 0.5271
O72_2 O 0.7446(2) 0.10007(19) 0.22028(15)
H123_2 H 0.7616 0.1238 0.2051
O73_2 O 0.88796(13) 0.02993(12) 0.27242(9)
O76_2 O 0.88753(13) 0.04241(13) 0.36871(9)
O77_2 O 0.95399(13) 0.10410(13) 0.29911(9)
H126_2 H 0.9624 0.1068 0.2740
O78_2 O 0.91756(13) 0.11867(13) 0.38601(10)
O80_2 O 0.85543(14) 0.05165(14) 0.47388(9)
H128_2 H 0.8299 0.0730 0.4839
O81_2 O 0.80656(13) 0.13062(14) 0.43985(9)
O82_2 O 0.90171(18) 0.21455(16) 0.41450(12)
H129_2 H 0.8995 0.2502 0.4109
O83_2 O 0.77078(14) 0.20706(14) 0.44972(11)
O84_2 O 0.20706(14) 0.77078(14) 0.55028(11)
O85_2 O 0.78536(14) 0.10396(15) 0.51042(9)
H130_2 H 0.8056 0.1164 0.5299
O86_2 O 0.68213(14) 0.10709(15) 0.50020(10)
H131_2 H 0.6496 0.1019 0.4897
O87_2 O 0.65642(13) 0.14313(14) 0.42974(9)
O88_2 O 0.6903(2) 0.27036(19) 0.43979(13)
O89_2 O 0.27036(19) 0.6903(2) 0.56021(13)
O90_2 O 0.58855(14) 0.17714(14) 0.40105(10)
O91_2 O 0.59247(13) 0.09150(13) 0.47525(9)
H132_2 H 0.5809 0.1122 0.4948
O94_2 O 0.54910(13) 0.03237(14) 0.42278(9)
H135_2 H 0.5468 0.0105 0.4023
O97_2 O 0.57865(12) 0.06026(13) 0.35344(8)
O107_2 O 0.07412(12) 0.54750(13) 0.29907(9)
O108_2 O 0.05123(14) 0.46078(16) 0.37162(10)
H142_2 H 0.0159 0.4622 0.3769
O109_2 O 0.09818(14) 0.40051(14) 0.31779(11)
H143_2 H 0.1240 0.3865 0.3028
O110_2 O 0.17281(12) 0.45934(13) 0.28173(9)
O111_2 O 0.09312(14) 0.53461(15) 0.22535(9)
H144_2 H 0.0990 0.5494 0.2021
O112_2 O 0.14208(14) 0.65457(14) 0.40463(9)
O113_2 O 0.14213(14) 0.56431(14) 0.47654(9)
O116_2 O 0.07792(14) 0.52170(15) 0.42656(10)
H145_2 H 0.0696 0.5008 0.4064
O119_2 O 0.10823(13) 0.54489(14) 0.35515(9)
O120_2 O 0.32721(14) 0.66810(14) 0.43884(9)
O121_2 O 0.34132(13) 0.57852(13) 0.51081(9)
H148_2 H 0.3592 0.5545 0.4964
O122_2 O 0.23699(13) 0.58096(15) 0.49985(10)
H149_2 H 0.2041 0.5756 0.4900
O123_2 O 0.20726(13) 0.61057(13) 0.42971(9)
O124_2 O 0.24780(15) 0.73436(15) 0.42553(11)
H150_2 H 0.2715 0.7615 0.4243
O125_2 O 0.46760(13) 0.54706(13) 0.38811(10)
O126_2 O 0.4389(2) 0.43415(17) 0.43303(12)
H151_2 H 0.4299 0.4209 0.4099
O127_2 O 0.39512(19) 0.50460(18) 0.47772(12)
H152_2 H 0.3760 0.5313 0.4884
O128_2 O 0.35927(14) 0.58924(15) 0.43606(10)
O129_2 O 0.47152(14) 0.65078(14) 0.41513(11)
H153_2 H 0.4946 0.6254 0.4232
O130_2 O 0.40763(14) 0.45494(14) 0.27531(9)
O131_2 O 0.36297(15) 0.33586(16) 0.30935(11)
H154_2 H 0.3310 0.3426 0.2984
O132_2 O 0.41215(19) 0.37788(18) 0.37085(12)
H155_2 H 0.4204 0.3994 0.3907
O133_2 O 0.41837(14) 0.48213(14) 0.37022(9)
O134_2 O 0.49730(14) 0.49682(16) 0.28258(10)
O135_2 O 0.22203(13) 0.46571(14) 0.23100(9)
O136_2 O 0.16994(13) 0.35666(14) 0.27581(10)
O137_2 O 0.85666(14) 0.33006(13) 0.52581(10)
O138_2 O 0.33006(13) 0.85666(14) 0.47419(10)
H156_2 H 0.1463 0.3424 0.2592
H157_2 H 0.8424 0.3537 0.5092
H158_2 H 0.3537 0.8424 0.4908
O139_2 O 0.27192(13) 0.34014(14) 0.28142(10)
O140_2 O 0.84014(14) 0.22808(13) 0.53142(10)
O141_2 O 0.22808(13) 0.84014(14) 0.46858(10)
H159_2 H 0.3049 0.3425 0.2918
H160_2 H 0.8425 0.1951 0.5418
H161_2 H 0.1951 0.8425 0.4582
O142_2 O 0.32679(14) 0.43239(14) 0.28741(10)
O143_2 O 0.27911(19) 0.5529(2) 0.22625(15)
H162_2 H 0.3014 0.5727 0.2118
O144_2 O 0.3359(3) 0.7871(2) 0.5731(2)
O145_2 O 0.3202(3) 0.8036(3) 0.41632(18)
C77_2 C 0.74719(16) 0.01794(17) 0.24575(13)
H167_2 H 0.7373 0.0327 0.2689
C78_2 C 0.7715(2) 0.0578(2) 0.22216(17)
H168_2 H 0.8046 0.0656 0.2317
H169_2 H 0.7759 0.0444 0.1981
C82_2 C 0.90331(17) 0.02367(16) 0.33509(12)
H173_2 H 0.9399 0.0258 0.3327
C83_2 C 0.87805(18) 0.05238(19) 0.30590(13)
H174_2 H 0.8418 0.0549 0.3102
C84_2 C 0.9021(2) 0.1047(2) 0.30304(14)
H175_2 H 0.8876 0.1221 0.2826
H176_2 H 0.8938 0.1237 0.3245
C85_2 C 0.92215(17) 0.06723(16) 0.38850(12)
H177_2 H 0.9559 0.0572 0.3807
C86_2 C 0.9141(2) 0.0506(2) 0.42695(15)
H178_2 H 0.9386 0.0678 0.4423
C87_2 C 0.86424(17) 0.06535(17) 0.43823(12)
H179_2 H 0.8400 0.0474 0.4231
C88_2 C 0.85616(16) 0.11916(18) 0.43310(12)
H180_2 H 0.8776 0.1379 0.4498
C89_2 C 0.86831(19) 0.13425(18) 0.39549(13)
H181_2 H 0.8439 0.1193 0.3789
C90_2 C 0.8676(2) 0.1902(2) 0.39178(15)
H182_2 H 0.8752 0.1990 0.3670
H183_2 H 0.8340 0.2023 0.3970
C91_2 C 0.79515(17) 0.16630(17) 0.46463(12)
H184_2 H 0.8264 0.1780 0.4758
C92_2 C 0.76248(18) 0.14370(18) 0.49306(13)
H185_2 H 0.7534 0.1695 0.5107
C93_2 C 0.7149(2) 0.1247(2) 0.47412(15)
H186_2 H 0.7241 0.0968 0.4582
C94_2 C 0.6919(2) 0.1646(2) 0.45258(14)
H187_2 H 0.6752 0.1886 0.4686
C95_2 C 0.73004(19) 0.19236(19) 0.42923(13)
H188_2 H 0.7415 0.1700 0.4100
C96_2 C 0.7086(2) 0.2395(2) 0.41280(15)
H189_2 H 0.7345 0.2570 0.3994
H190_2 H 0.6817 0.2309 0.3963
C97_2 C 0.60713(18) 0.15586(18) 0.43344(13)
H191_2 H 0.6043 0.1810 0.4526
C98_2 C 0.57650(18) 0.11073(19) 0.44400(12)
H192_2 H 0.5413 0.1208 0.4466
C99_2 C 0.58055(16) 0.07361(16) 0.41439(11)
H193_2 H 0.6154 0.0618 0.4130
C100_2 C 0.5666(2) 0.0953(2) 0.37972(14)
H194_2 H 0.5302 0.1011 0.3794
C101_2 C 0.59372(19) 0.14493(19) 0.37109(13)
H195_2 H 0.6295 0.1372 0.3687
C102_2 C 0.5774(4) 0.1666(4) 0.3371(3)
H196_2 H 0.5955 0.1976 0.3329
H197_2 H 0.5855 0.1436 0.3177
C103_2 C 0.54213(16) 0.04160(18) 0.33054(12)
H198_2 H 0.5089 0.0521 0.3391
C107_2 C 0.5962(2) 0.04982(19) 0.28233(13)
H202_2 H 0.6200 0.0663 0.2987
C108_2 C 0.6010(2) 0.0739(2) 0.24701(16)
H203_2 H 0.5958 0.1098 0.2490
H204_2 H 0.6343 0.0680 0.2371
C109_2 C 0.06636(17) 0.53116(19) 0.33492(12)
H205_2 H 0.0364 0.5475 0.3448
C110_2 C 0.05956(19) 0.47668(19) 0.33559(13)
H206_2 H 0.0310 0.4671 0.3204
C111_2 C 0.10636(18) 0.45355(18) 0.32172(12)
H207_2 H 0.1335 0.4591 0.3391
C112_2 C 0.12171(18) 0.47384(19) 0.28638(13)
H208_2 H 0.1006 0.4603 0.2671
C113_2 C 0.12136(16) 0.53049(18) 0.28605(12)
H209_2 H 0.1481 0.5430 0.3018
C114_2 C 0.12799(18) 0.55194(17) 0.24923(13)
H210_2 H 0.1256 0.5883 0.2506
H211_2 H 0.1613 0.5436 0.2405
C115_2 C 0.16012(16) 0.63002(18) 0.43607(12)
H212_2 H 0.1622 0.6545 0.4558
C116_2 C 0.12507(18) 0.58964(19) 0.44634(12)
H213_2 H 0.0928 0.6052 0.4524
C117_2 C 0.1163(2) 0.5538(2) 0.41716(15)
H214_2 H 0.1469 0.5340 0.4136
C118_2 C 0.10422(19) 0.5814(2) 0.38224(14)
H215_2 H 0.0699 0.5947 0.3831
C119_2 C 0.13887(19) 0.6209(2) 0.37523(13)
H216_2 H 0.1721 0.6064 0.3709
C120_2 C 0.1242(3) 0.6521(2) 0.34324(17)
H217_2 H 0.1451 0.6820 0.3426
H218_2 H 0.1308 0.6331 0.3215
C121_2 C 0.35100(17) 0.62931(18) 0.45738(14)
H219_2 H 0.3832 0.6415 0.4667
C122_2 C 0.31827(17) 0.6141(2) 0.48819(13)
H220_2 H 0.3110 0.6442 0.5025
C123_2 C 0.26916(16) 0.59457(17) 0.47296(12)
H221_2 H 0.2767 0.5645 0.4587
C124_2 C 0.24843(16) 0.63321(18) 0.44815(12)
H222_2 H 0.2359 0.6615 0.4624
C125_2 C 0.2837(2) 0.6518(2) 0.42185(17)
H223_2 H 0.2918 0.6252 0.4046
C126_2 C 0.2623(2) 0.6967(2) 0.40230(15)
H224_2 H 0.2873 0.7097 0.3858
H225_2 H 0.2335 0.6861 0.3882
C127_2 C 0.45894(17) 0.49722(18) 0.39109(13)
H226_2 H 0.4890 0.4785 0.3839
C128_2 C 0.4455(2) 0.4846(2) 0.43053(14)
H227_2 H 0.4740 0.4940 0.4458
C129_2 C 0.4017(2) 0.5141(2) 0.44173(14)
H228_2 H 0.3723 0.5010 0.4289
C130_2 C 0.40601(18) 0.56823(18) 0.43321(13)
H229_2 H 0.4287 0.5843 0.4505
C131_2 C 0.42549(18) 0.57737(19) 0.39509(13)
H230_2 H 0.3989 0.5678 0.3782
C132_2 C 0.4387(2) 0.62988(19) 0.38816(14)
H231_2 H 0.4550 0.6322 0.3649
H232_2 H 0.4082 0.6497 0.3871
C133_2 C 0.37422(17) 0.41473(18) 0.27981(12)
H233_2 H 0.3726 0.3963 0.2570
C134_2 C 0.3916(2) 0.37847(19) 0.30878(14)
H234_2 H 0.4261 0.3684 0.3028
C135_2 C 0.3936(2) 0.4060(2) 0.34338(15)
H235_2 H 0.3596 0.4168 0.3497
C136_2 C 0.42652(19) 0.4521(2) 0.33973(14)
H236_2 H 0.4619 0.4418 0.3389
C137_2 C 0.41416(19) 0.48377(19) 0.30621(14)
H237_2 H 0.3829 0.5021 0.3108
C138_2 C 0.4541(2) 0.5209(3) 0.29728(18)
H238_2 H 0.4411 0.5450 0.2800
H239_2 H 0.4635 0.5391 0.3189
C139_2 C 0.18576(17) 0.43609(18) 0.25024(14)
H240_2 H 0.1555 0.4337 0.2353
C140_2 C 0.20345(17) 0.38381(17) 0.25783(12)
H241_2 H 0.2102 0.3671 0.2348
C141_2 C 0.25184(17) 0.38639(18) 0.27874(12)
H242_2 H 0.2439 0.3980 0.3031
C142_2 C 0.28901(18) 0.42326(18) 0.26244(13)
H243_2 H 0.3039 0.4082 0.2409
C143_2 C 0.26535(18) 0.47215(18) 0.25242(14)
H244_2 H 0.2562 0.4902 0.2744
C144_2 C 0.2985(2) 0.5049(2) 0.22997(17)
H245_2 H 0.3314 0.5069 0.2410
H246_2 H 0.3025 0.4899 0.2063
H248_2 H 0.995267 0.474725 0.375261
H249_2 H 0.793422 0.354208 0.589931
H250_2 H 0.790619 0.296825 0.601543
H251_2 H 0.82346 0.335484 0.424223
H252_2 H 0.771894 0.315912 0.407865
H253_2 H 0.479052 0.487989 0.73932
H254_2 H 0.400077 0.744435 0.533279
H255_2 H 0.381381 0.861112 0.518787
H263_2 H 0.487989 0.479052 0.26068
H265_2 H 0.886595 0.311869 0.518322
H266_2 H 0.311869 0.886595 0.481678
H267_2 H 0.249385 0.854311 0.449872
H268_2 H 0.854311 0.249385 0.550128
H270_2 H 0.354208 0.793422 0.410069
H271_2 H 0.296825 0.790619 0.398457
H272_2 H 0.335484 0.82346 0.575777
H273_2 H 0.315912 0.771894 0.592135
O67_2 O 0.67526(15) 0.88490(15) 0.26812(11)
H119_2 H 0.6950 0.8710 0.2873
O69_2 O 0.78005(14) 0.88637(14) 0.26649(11)
H121_2 H 0.8122 0.8935 0.2771
O71_2 O 0.81574(13) 0.98568(13) 0.27871(9)
O74_2 O 0.86985(14) 0.90000(13) 0.29486(10)
H124_2 H 0.8922 0.8792 0.2811
O75_2 O 0.91233(17) 0.94078(15) 0.35907(12)
H125_2 H 0.9155 0.9596 0.3810
O79_2 O 0.92328(16) 0.99877(16) 0.42870(11)
H127_2 H 0.9528 0.9927 0.4429
O92_2 O 0.59150(13) 0.90753(13) 0.72525(9)
H133_2 H 0.6122 0.9191 0.7448
O95_2 O 0.53237(14) 0.95090(13) 0.67278(9)
H136_2 H 0.5105 0.9532 0.6523
O101_2 O 0.53819(13) 0.96522(15) 0.36668(9)
O102_2 O 0.59693(13) 0.91646(13) 0.31361(9)
H138_2 H 0.6241 0.9068 0.2980
O103_2 O 0.66017(13) 0.98583(14) 0.27666(9)
O114_2 O 0.64213(14) 0.93569(14) 0.77346(9)
O117_2 O 0.57792(14) 0.97830(15) 0.82344(10)
H146_2 H 0.5696 0.9992 0.8436
C73_2 C 0.67374(17) 0.96794(19) 0.24371(12)
H163_2 H 0.6437 0.9607 0.2294
C74_2 C 0.70316(17) 0.91987(17) 0.24987(13)
H164_2 H 0.7105 0.9057 0.2261
C75_2 C 0.75068(18) 0.92952(18) 0.26692(14)
H165_2 H 0.7436 0.9372 0.2922
C76_2 C 0.78007(18) 0.97281(19) 0.25211(14)
H166_2 H 0.7970 0.9630 0.2298
C79_2 C 0.86509(16) 0.98220(15) 0.27103(12)
H170_2 H 0.8690 0.9685 0.2467
C80_2 C 0.88931(19) 0.94611(19) 0.29784(13)
H171_2 H 0.9250 0.9438 0.2917
C81_2 C 0.8858(2) 0.9692(2) 0.33360(13)
H172_2 H 0.8504 0.9687 0.3407
C104_2 C 0.54618(19) 0.9835(2) 0.33232(13)
H199_2 H 0.5202 0.9694 0.3166
C105_2 C 0.59652(18) 0.96868(18) 0.31736(13)
H200_2 H 0.6224 0.9780 0.3349
C106_2 C 0.60879(19) 0.9940(2) 0.28179(13)
H201_2 H 0.5899 0.9777 0.2624
H256_2 H 0.605784 0.910671 0.701241
H258_2 H 0.535495 0.914768 0.676057
H260_2 H 0.504733 0.974725 0.374739
H262_2 H 0.417152 0.966914 0.707243
H269_2 H 0.613985 0.981996 0.820091
O100_2 O 0.94246(14) 0.45143(13) 0.20420(9)
O106_2 O 0.94745(19) 0.43515(17) 0.27472(11)
H141_2 H 0.9217 0.4570 0.2837
O115_2 O 0.93569(14) 0.64213(14) 0.22654(9)
O118_2 O 0.97830(15) 0.57792(14) 0.17656(10)
H147_2 H 0.9992 0.5696 0.1564
H257_2 H 0.910671 0.605784 0.298759
H259_2 H 0.914768 0.535495 0.323943
H261_2 H 0.966914 0.417152 0.292757
H264_2 H 0.981996 0.613985 0.179909
O65_3 O 0.1667(12) 0.4261(6) 0.5934(8)
H118_3 H 0.1873 0.4325 0.6141
O93_2 O 0.09150(13) 0.59247(13) 0.52475(9)
H134_2 H 0.1122 0.5809 0.5052
O96_2 O 0.03237(14) 0.54910(13) 0.57722(9)
H137_2 H 0.0105 0.5468 0.5977
O107_3 O 0.04750(13) 0.42588(12) 0.54907(9)
O111_3 O 0.03461(15) 0.40688(14) 0.47535(9)
H144_3 H 0.0494 0.4010 0.4521
O112_3 O 0.15457(14) 0.35792(14) 0.65463(9)
O119_3 O 0.04489(14) 0.39177(13) 0.60515(9)
O120_3 O 0.16810(14) 0.17279(14) 0.68884(9)
O121_3 O 0.07852(13) 0.15868(13) 0.76081(9)
H148_3 H 0.0545 0.1408 0.7464
O122_3 O 0.08096(15) 0.26301(13) 0.74985(10)
H149_3 H 0.0756 0.2959 0.7400
O123_3 O 0.11057(13) 0.29274(13) 0.67971(9)
O124_3 O 0.23436(15) 0.25220(15) 0.67553(11)
H150_3 H 0.2615 0.2285 0.6743
O125_3 O 0.04706(13) 0.03240(13) 0.63811(10)
O127_3 O 0.00460(18) 0.10488(19) 0.72772(12)
H152_3 H 0.0313 0.1240 0.7384
O128_3 O 0.08924(15) 0.14073(14) 0.68606(10)
O129_3 O 0.15078(14) 0.02848(14) 0.66513(11)
H153_3 H 0.1254 0.0054 0.6732
O143_3 O 0.0529(2) 0.22089(19) 0.47625(15)
H162_3 H 0.0727 0.1986 0.4618
O144_3 O 0.2871(2) 0.1641(3) 0.8231(2)
O145_3 O 0.3036(3) 0.1798(3) 0.66632(18)
C109_3 C 0.03116(19) 0.43364(17) 0.58492(12)
H205_3 H 0.0475 0.4636 0.5948
C113_3 C 0.03049(18) 0.37864(16) 0.53605(12)
H209_3 H 0.0430 0.3519 0.5518
C114_3 C 0.05194(17) 0.37201(18) 0.49923(13)
H210_3 H 0.0883 0.3744 0.5006
H211_3 H 0.0436 0.3387 0.4905
C115_3 C 0.13002(18) 0.33988(16) 0.68607(12)
H212_3 H 0.1545 0.3378 0.7058
C116_3 C 0.08964(19) 0.37493(18) 0.69634(12)
H213_3 H 0.1052 0.4072 0.7024
C117_3 C 0.0538(2) 0.3837(2) 0.66716(15)
H214_3 H 0.0340 0.3531 0.6636
C118_3 C 0.0814(2) 0.39578(19) 0.63224(14)
H215_3 H 0.0947 0.4301 0.6331
C119_3 C 0.1209(2) 0.36113(19) 0.62523(13)
H216_3 H 0.1064 0.3279 0.6209
C120_3 C 0.1521(2) 0.3758(3) 0.59324(17)
H217_3 H 0.1820 0.3549 0.5926
H218_3 H 0.1331 0.3692 0.5715
C121_3 C 0.12931(18) 0.14900(17) 0.70738(14)
H219_3 H 0.1415 0.1168 0.7167
C122_3 C 0.1141(2) 0.18173(17) 0.73819(13)
H220_3 H 0.1442 0.1890 0.7525
C123_3 C 0.09457(17) 0.23084(16) 0.72296(12)
H221_3 H 0.0645 0.2233 0.7087
C124_3 C 0.13321(18) 0.25157(16) 0.69815(12)
H222_3 H 0.1615 0.2641 0.7124
C125_3 C 0.1518(2) 0.2163(2) 0.67185(17)
H223_3 H 0.1252 0.2082 0.6546
C126_3 C 0.1967(2) 0.2377(2) 0.65230(15)
H224_3 H 0.2097 0.2127 0.6358
H225_3 H 0.1861 0.2665 0.6382
C129_3 C 0.0141(2) 0.0983(2) 0.69173(14)
H228_3 H 0.0010 0.1277 0.6789
C130_3 C 0.06823(18) 0.09399(18) 0.68321(13)
H229_3 H 0.0843 0.0713 0.7005
C131_3 C 0.07737(19) 0.07451(18) 0.64509(13)
H230_3 H 0.0678 0.1011 0.6282
C132_3 C 0.12988(19) 0.0613(2) 0.63816(14)
H231_3 H 0.1322 0.0450 0.6149
H232_3 H 0.1497 0.0918 0.6371
H237_3 H 0.0021 0.1171 0.5608
C138_3 C 0.0209(3) 0.0459(2) 0.54728(18)
H238_3 H 0.0450 0.0589 0.5300
H239_3 H 0.0391 0.0365 0.5689
C144_3 C 0.0049(2) 0.2015(2) 0.47997(17)
H245_3 H 0.0069 0.1686 0.4910
H254_3 H 0.244435 0.0999228 0.783279
H255_3 H 0.361112 0.118619 0.768787
H257_3 H 0.105784 0.589329 0.548759
H259_3 H 0.0354954 0.585232 0.573943
H264_3 H 0.113985 0.518004 0.429909
H266_3 H 0.386595 0.188131 0.731678
H267_3 H 0.354311 0.250615 0.699872
H270_3 H 0.293422 0.145792 0.660069
H271_3 H 0.290619 0.203175 0.648457
H272_3 H 0.32346 0.164516 0.825777
H273_3 H 0.271894 0.184088 0.842135
O2_3 O 0.1765(13) 0.5250(6) 0.6633(8)
H1_3 H 0.2001 0.5169 0.6447
O4_3 O 0.00277(13) 0.70319(12) 0.77391(9)
O8_3 O 0.10007(19) 0.7446(2) 0.77972(15)
H5_3 H 0.1238 0.7616 0.7949
O9_3 O 0.02993(12) 0.88796(13) 0.72758(9)
O12_3 O 0.04241(13) 0.88753(13) 0.63129(9)
O13_3 O 0.10410(13) 0.95399(13) 0.70089(9)
H8_3 H 0.1068 0.9624 0.7260
O14_3 O 0.11867(13) 0.91756(13) 0.61399(10)
O16_3 O 0.05165(14) 0.85543(14) 0.52612(9)
H10_3 H 0.0730 0.8299 0.5161
O17_3 O 0.13062(14) 0.80656(13) 0.56015(9)
O18_3 O 0.21455(16) 0.90171(18) 0.58550(12)
H11_3 H 0.2502 0.8995 0.5891
O20_3 O 0.10396(15) 0.78536(14) 0.48958(9)
H12_3 H 0.1164 0.8056 0.4701
O21_3 O 0.10709(15) 0.68213(14) 0.49980(10)
H13_3 H 0.1019 0.6496 0.5103
O22_3 O 0.14313(14) 0.65642(13) 0.57026(9)
O24_3 O 0.17714(14) 0.58855(14) 0.59895(10)
O27_3 O 0.06026(13) 0.57865(12) 0.64656(8)
C5_3 C 0.01794(17) 0.74719(16) 0.75425(13)
H37_3 H 0.0327 0.7373 0.7311
C6_3 C 0.0578(2) 0.7715(2) 0.77784(17)
H38_3 H 0.0656 0.8046 0.7683
H39_3 H 0.0444 0.7759 0.8019
C10_3 C 0.02367(16) 0.90331(17) 0.66491(12)
H43_3 H 0.0258 0.9399 0.6673
C11_3 C 0.05238(19) 0.87805(18) 0.69410(13)
H44_3 H 0.0549 0.8418 0.6898
C12_3 C 0.1047(2) 0.9021(2) 0.69696(14)
H45_3 H 0.1221 0.8876 0.7174
H46_3 H 0.1237 0.8938 0.6755
C13_3 C 0.06723(16) 0.92215(17) 0.61150(12)
H47_3 H 0.0572 0.9559 0.6193
C14_3 C 0.0506(2) 0.9141(2) 0.57305(15)
H48_3 H 0.0678 0.9386 0.5577
C15_3 C 0.06535(17) 0.86424(17) 0.56177(12)
H49_3 H 0.0474 0.8400 0.5769
C16_3 C 0.11916(18) 0.85616(16) 0.56690(12)
H50_3 H 0.1379 0.8776 0.5502
C17_3 C 0.13425(18) 0.86831(19) 0.60451(13)
H51_3 H 0.1193 0.8439 0.6211
C18_3 C 0.1902(2) 0.8676(2) 0.60822(15)
H52_3 H 0.1990 0.8752 0.6330
H53_3 H 0.2023 0.8340 0.6030
C19_3 C 0.16630(17) 0.79515(17) 0.53537(12)
H54_3 H 0.1780 0.8264 0.5242
C20_3 C 0.14370(18) 0.76248(18) 0.50694(13)
H55_3 H 0.1695 0.7534 0.4893
C21_3 C 0.1247(2) 0.7149(2) 0.52588(15)
H56_3 H 0.0968 0.7241 0.5418
C22_3 C 0.1646(2) 0.6919(2) 0.54742(14)
H57_3 H 0.1886 0.6752 0.5314
C23_3 C 0.19236(19) 0.73004(19) 0.57077(13)
H58_3 H 0.1700 0.7415 0.5900
C24_3 C 0.2395(2) 0.7086(2) 0.58720(15)
H59_3 H 0.2570 0.7345 0.6006
H60_3 H 0.2309 0.6817 0.6037
C25_3 C 0.15586(18) 0.60713(18) 0.56656(13)
H61_3 H 0.1810 0.6043 0.5474
C26_3 C 0.11073(19) 0.57650(18) 0.55600(12)
H62_3 H 0.1208 0.5413 0.5534
C27_3 C 0.07361(16) 0.58055(16) 0.58561(11)
H63_3 H 0.0618 0.6154 0.5870
C28_3 C 0.0953(2) 0.5666(2) 0.62028(14)
H64_3 H 0.1011 0.5302 0.6206
C29_3 C 0.14493(19) 0.59372(19) 0.62891(13)
H65_3 H 0.1372 0.6295 0.6313
C30_3 C 0.1666(4) 0.5774(4) 0.6629(3)
H66_3 H 0.1976 0.5955 0.6671
H67_3 H 0.1436 0.5855 0.6823
C31_3 C 0.04160(18) 0.54213(16) 0.66946(12)
H68_3 H 0.0521 0.5089 0.6609
C35_3 C 0.04982(19) 0.5962(2) 0.71767(13)
H72_3 H 0.0663 0.6200 0.7013
C36_3 C 0.0739(2) 0.6010(2) 0.75299(16)
H73_3 H 0.1098 0.5958 0.7510
H74_3 H 0.0680 0.6343 0.7629
O57_3 O 0.72203(13) 0.03429(14) 0.01900(9)
H110_3 H 0.6555 0.0663 0.0147
H111_3 H 0.7102 0.1329 0.0152
H113_3 H 0.8039 0.0918 0.0091
H116_3 H 0.8025 0.0101 0.0437
O99_2 O 0.44246(14) 0.04857(13) 0.04580(9)
Rb3_4 Rb 0.90217(4) 0.09783(4) 0.7500
O34_3 O 0.55123(14) 0.03922(16) 0.87838(10)
H18_3 H 0.5159 0.0378 0.8731
O35_3 O 0.59818(14) 0.09949(14) 0.93221(11)
H19_3 H 0.6240 0.1135 0.9472
O36_3 O 0.67281(12) 0.04066(13) 0.96827(9)
O48_3 O 0.9389(2) 0.06585(17) 0.81697(12)
H25_3 H 0.9299 0.0791 0.8401
O52_3 O 0.90763(14) 0.04506(14) 0.97469(9)
O53_3 O 0.86297(15) 0.16414(16) 0.94065(11)
H28_3 H 0.8310 0.1574 0.9516
O54_3 O 0.91215(19) 0.12212(18) 0.87915(12)
H29_3 H 0.9204 0.1006 0.8593
O55_3 O 0.91837(14) 0.01787(14) 0.87978(9)
O56_3 O 0.99730(14) 0.00318(16) 0.96742(10)
O60_3 O 0.82679(14) 0.06761(14) 0.96259(10)
C38_3 C 0.55956(19) 0.02332(19) 0.91441(13)
H76_3 H 0.5310 0.0329 0.9296
C39_3 C 0.60636(18) 0.04645(18) 0.92828(12)
H77_3 H 0.6335 0.0409 0.9109
C40_3 C 0.62171(18) 0.02616(19) 0.96362(13)
H78_3 H 0.6006 0.0397 0.9829
C55_3 C 0.95894(17) 0.00278(18) 0.85891(13)
H96_3 H 0.9890 0.0215 0.8661
C56_3 C 0.9455(2) 0.0154(2) 0.81947(14)
H97_3 H 0.9740 0.0060 0.8042
C61_3 C 0.87422(17) 0.08527(18) 0.97019(12)
H103_3 H 0.8726 0.1037 0.9930
C62_3 C 0.8916(2) 0.12153(19) 0.94122(14)
H104_3 H 0.9261 0.1316 0.9472
C63_3 C 0.8936(2) 0.0940(2) 0.90662(15)
H105_3 H 0.8596 0.0832 0.9003
C64_3 C 0.92652(19) 0.0479(2) 0.91027(14)
H106_3 H 0.9619 0.0582 0.9111
C65_3 C 0.91416(19) 0.01623(19) 0.94379(14)
C67_3 C 0.68576(17) 0.06391(18) 0.99976(14)
C68_3 C 0.70345(17) 0.11619(17) 0.99217(12)
C69_3 C 0.75184(17) 0.11361(18) 0.97126(12)
H112_3 H 0.7439 0.1020 0.9469
C70_3 C 0.78901(18) 0.07674(18) 0.98756(13)
C71_3 C 0.76535(18) 0.02785(18) 0.99758(14)
H114_3 H 0.7562 0.0098 0.9756
O105_2 O 0.44745(19) 0.06485(17) 0.97528(11)
H140_2 H 0.4217 0.0430 0.9663
O108_3 O 0.96078(16) 0.44877(14) 0.62162(10)
H142_3 H 0.9622 0.4841 0.6269
O109_3 O 0.90051(14) 0.40182(14) 0.56779(11)
H143_3 H 0.8865 0.3760 0.5528
O110_3 O 0.95934(13) 0.32719(12) 0.53173(9)
O126_3 O 0.93415(17) 0.0611(2) 0.68303(12)
H151_3 H 0.9209 0.0701 0.6599
O130_3 O 0.95494(14) 0.09237(14) 0.52531(9)
O131_3 O 0.83586(16) 0.13703(15) 0.55935(11)
H154_3 H 0.8426 0.1690 0.5484
O132_3 O 0.87788(18) 0.08785(19) 0.62085(12)
H155_3 H 0.8994 0.0796 0.6407
O133_3 O 0.98213(14) 0.08163(14) 0.62022(9)
O134_3 O 0.99682(16) 0.00270(14) 0.53258(10)
O135_3 O 0.96571(14) 0.27797(13) 0.48100(9)
O142_3 O 0.93239(14) 0.17321(14) 0.53741(10)
C110_3 C 0.97668(19) 0.44044(19) 0.58559(13)
H206_3 H 0.9671 0.4690 0.5704
C111_3 C 0.95355(18) 0.39364(18) 0.57172(12)
H207_3 H 0.9591 0.3665 0.5891
C112_3 C 0.97384(19) 0.37829(18) 0.53638(13)
H208_3 H 0.9603 0.3994 0.5171
C127_3 C 0.99722(18) 0.04106(17) 0.64109(13)
H226_3 H 0.9785 0.0110 0.6339
C128_3 C 0.9846(2) 0.0545(2) 0.68053(14)
H227_3 H 0.9940 0.0260 0.6958
C133_3 C 0.91473(18) 0.12578(17) 0.52981(12)
H233_3 H 0.8963 0.1274 0.5070
C134_3 C 0.87847(19) 0.1084(2) 0.55878(14)
H234_3 H 0.8684 0.0739 0.5528
C135_3 C 0.9060(2) 0.1064(2) 0.59338(15)
H235_3 H 0.9168 0.1404 0.5997
C136_3 C 0.9521(2) 0.07348(19) 0.58973(14)
H236_3 H 0.9418 0.0381 0.5889
C137_3 C 0.98377(19) 0.08584(19) 0.55621(14)
C139_3 C 0.93609(18) 0.31424(17) 0.50024(14)
H240_3 H 0.9337 0.3445 0.4853
C140_3 C 0.88381(17) 0.29655(17) 0.50783(12)
H241_3 H 0.8671 0.2898 0.4848
C141_3 C 0.88639(18) 0.24816(17) 0.52874(12)
H242_3 H 0.8980 0.2561 0.5531
C142_3 C 0.92326(18) 0.21099(18) 0.51244(13)
H243_3 H 0.9082 0.1961 0.4909
C143_3 C 0.97215(18) 0.23465(18) 0.50242(14)
H244_3 H 0.9902 0.2438 0.5244
H246_3 H 0.9899 0.1975 0.4563
H253_3 H 0.987989 0.0209481 0.98932
H261_3 H 0.917152 0.533086 0.542757
H262_3 H 0.466914 0.082848 0.957243
H263_3 H 0.979052 0.0120114 0.51068
O37_3 O 0.59312(14) 0.96539(15) 0.02465(9)
H20_3 H 0.5990 0.9506 0.0479
O61_3 O 0.77911(19) 0.9471(2) 0.02375(15)
H32_3 H 0.8014 0.9273 0.0382
C42_3 C 0.62799(18) 0.94806(17) 0.00077(13)
H81_3 H 0.6613 0.9564 0.0095
C72_3 C 0.7985(2) 0.9951(2) 0.02003(17)
H115_3 H 0.8314 0.9931 0.0090
H269_3 H 0.481996 0.886015 0.0700907
O3_3 O 0.5739(6) 0.8333(12) 0.9066(8)
H2_3 H 0.5675 0.8127 0.8859
O5_3 O 0.88490(15) 0.67526(15) 0.73188(11)
H3_3 H 0.8710 0.6950 0.7127
O6_3 O 0.88637(14) 0.78005(14) 0.73351(11)
H4_3 H 0.8935 0.8122 0.7229
O7_3 O 0.98568(13) 0.81574(13) 0.72129(9)
O10_3 O 0.90000(13) 0.86985(14) 0.70514(10)
H6_3 H 0.8792 0.8922 0.7189
O11_3 O 0.94078(15) 0.91233(17) 0.64093(12)
H7_3 H 0.9596 0.9155 0.6190
O15_3 O 0.99877(16) 0.92328(16) 0.57130(11)
H9_3 H 0.9927 0.9528 0.5571
O29_3 O 0.96522(15) 0.53819(13) 0.63332(9)
O30_3 O 0.91646(13) 0.59693(13) 0.68639(9)
H16_3 H 0.9068 0.6241 0.7020
O31_3 O 0.98583(14) 0.66017(13) 0.72334(9)
O33_3 O 0.57412(12) 0.95250(13) 0.95093(9)
O38_3 O 0.64208(14) 0.84543(14) 0.84537(9)
O41_3 O 0.60823(13) 0.95511(14) 0.89485(9)
O42_3 O 0.82721(14) 0.83190(14) 0.81116(9)
O43_3 O 0.84132(13) 0.92148(13) 0.73919(9)
H22_3 H 0.8592 0.9455 0.7536
O44_3 O 0.73699(13) 0.91904(15) 0.75015(10)
H23_3 H 0.7041 0.9244 0.7600
O45_3 O 0.70726(13) 0.88943(13) 0.82029(9)
O46_3 O 0.74780(15) 0.76564(15) 0.82447(11)
H24_3 H 0.7715 0.7385 0.8257
O47_3 O 0.96760(13) 0.95294(13) 0.86189(10)
O49_3 O 0.89512(19) 0.99540(18) 0.77228(12)
H26_3 H 0.8760 0.9687 0.7616
O50_3 O 0.85927(14) 0.91076(15) 0.81394(10)
O51_3 O 0.97152(14) 0.84922(14) 0.83487(11)
H27_3 H 0.9946 0.8746 0.8268
O62_3 O 0.8359(3) 0.7129(2) 0.6769(2)
O63_3 O 0.8202(3) 0.6964(3) 0.83368(18)
C1_3 C 0.96794(19) 0.67374(17) 0.75629(12)
H33_3 H 0.9607 0.6437 0.7706
C2_3 C 0.91987(17) 0.70316(17) 0.75013(13)
H34_3 H 0.9057 0.7105 0.7739
C3_3 C 0.92952(18) 0.75068(18) 0.73308(14)
H35_3 H 0.9372 0.7436 0.7078
C4_3 C 0.97281(19) 0.78007(18) 0.74789(14)
H36_3 H 0.9630 0.7970 0.7702
C7_3 C 0.98220(15) 0.86509(16) 0.72897(12)
H40_3 H 0.9685 0.8690 0.7533
C8_3 C 0.94611(19) 0.88931(19) 0.70216(13)
H41_3 H 0.9438 0.9250 0.7083
C9_3 C 0.9692(2) 0.8858(2) 0.66640(13)
H42_3 H 0.9687 0.8504 0.6593
C32_3 C 0.9835(2) 0.54618(19) 0.66768(13)
H69_3 H 0.9694 0.5202 0.6834
C33_3 C 0.96868(18) 0.59652(18) 0.68264(13)
H70_3 H 0.9780 0.6224 0.6651
C34_3 C 0.9940(2) 0.60879(19) 0.71821(13)
H71_3 H 0.9777 0.5899 0.7376
C37_3 C 0.56636(17) 0.96884(19) 0.91508(12)
H75_3 H 0.5364 0.9525 0.9052
C41_3 C 0.62136(16) 0.96951(18) 0.96395(12)
H79_3 H 0.6481 0.9570 0.9482
H80_3 H 0.6256 0.9117 0.9994
C43_3 C 0.66012(16) 0.86998(18) 0.81393(12)
H82_3 H 0.6622 0.8455 0.7942
C44_3 C 0.62507(18) 0.91036(19) 0.80366(12)
H83_3 H 0.5928 0.8948 0.7976
C45_3 C 0.6163(2) 0.9462(2) 0.83284(15)
H84_3 H 0.6469 0.9660 0.8364
C46_3 C 0.60422(19) 0.9186(2) 0.86776(14)
H85_3 H 0.5699 0.9053 0.8669
C47_3 C 0.63887(19) 0.8791(2) 0.87477(13)
H86_3 H 0.6721 0.8936 0.8791
C48_3 C 0.6242(3) 0.8479(2) 0.90676(17)
H87_3 H 0.6451 0.8180 0.9074
H88_3 H 0.6308 0.8669 0.9285
C49_3 C 0.85100(17) 0.87069(18) 0.79262(14)
H89_3 H 0.8832 0.8585 0.7833
C50_3 C 0.81827(17) 0.8859(2) 0.76181(13)
H90_3 H 0.8110 0.8558 0.7475
C51_3 C 0.76916(16) 0.90543(17) 0.77704(12)
H91_3 H 0.7767 0.9355 0.7913
C52_3 C 0.74843(16) 0.86679(18) 0.80185(12)
H92_3 H 0.7359 0.8385 0.7876
C53_3 C 0.7837(2) 0.8482(2) 0.82815(17)
H93_3 H 0.7918 0.8748 0.8454
C54_3 C 0.7623(2) 0.8033(2) 0.84770(15)
H94_3 H 0.7873 0.7903 0.8642
H95_3 H 0.7335 0.8139 0.8618
C57_3 C 0.9017(2) 0.9859(2) 0.80827(14)
H98_3 H 0.8723 0.9990 0.8211
C58_3 C 0.90601(18) 0.93177(18) 0.81679(13)
H99_3 H 0.9287 0.9157 0.7995
C59_3 C 0.92549(18) 0.92263(19) 0.85491(13)
H100_3 H 0.8989 0.9322 0.8718
C60_3 C 0.9387(2) 0.87012(19) 0.86184(14)
H101_3 H 0.9550 0.8678 0.8851
H102_3 H 0.9082 0.8503 0.8629
H107_3 H 0.8829 0.9979 0.9392
C66_3 C 0.9541(2) 0.9791(3) 0.95272(18)
H108_3 H 0.9411 0.9550 0.9700
H109_3 H 0.9635 0.9609 0.9311
O64_3 O 0.6765(13) 0.9750(6) 0.5867(8)
H117_3 H 0.7001 0.9831 0.6053
O66_3 O 0.50277(13) 0.79681(12) 0.47609(9)
O71_3 O 0.48568(13) 0.68426(13) 0.52871(9)
O72_3 O 0.60007(19) 0.7554(2) 0.47028(15)
H123_3 H 0.6238 0.7384 0.4551
O73_3 O 0.52993(12) 0.61204(13) 0.52242(9)
O74_3 O 0.40000(13) 0.63015(14) 0.54486(10)
H124_3 H 0.3792 0.6078 0.5311
O75_3 O 0.44078(15) 0.58767(17) 0.60907(12)
H125_3 H 0.4596 0.5845 0.6310
O76_3 O 0.54241(13) 0.61247(13) 0.61871(9)
O77_3 O 0.60410(13) 0.54601(13) 0.54911(9)
H126_3 H 0.6068 0.5376 0.5240
O78_3 O 0.61867(13) 0.58244(13) 0.63601(10)
O79_3 O 0.49877(16) 0.57672(16) 0.67870(11)
H127_3 H 0.4927 0.5472 0.6929
O80_3 O 0.55165(14) 0.64457(14) 0.72388(9)
H128_3 H 0.5730 0.6701 0.7339
O81_3 O 0.63062(14) 0.69344(13) 0.68985(9)
O82_3 O 0.71455(16) 0.59829(18) 0.66450(12)
H129_3 H 0.7502 0.6005 0.6609
O83_3 O 0.70706(14) 0.72922(14) 0.69972(11)
O85_3 O 0.60396(15) 0.71464(14) 0.76042(9)
H130_3 H 0.6164 0.6944 0.7799
O86_3 O 0.60709(15) 0.81787(14) 0.75020(10)
H131_3 H 0.6019 0.8504 0.7397
O87_3 O 0.64313(14) 0.84358(13) 0.67974(9)
O88_3 O 0.77036(19) 0.8097(2) 0.68979(13)
O90_3 O 0.67714(14) 0.91145(14) 0.65105(10)
O97_3 O 0.56026(13) 0.92135(12) 0.60344(8)
O98_2 O 0.55754(14) 0.95143(13) 0.54580(9)
O101_3 O 0.46522(15) 0.96181(13) 0.61668(9)
O102_3 O 0.41646(13) 0.90307(13) 0.56361(9)
H138_3 H 0.4068 0.8759 0.5480
O103_3 O 0.48583(14) 0.83983(13) 0.52666(9)
O104_2 O 0.55255(19) 0.93515(17) 0.47528(11)
H139_2 H 0.5783 0.9570 0.4663
C73_3 C 0.46794(19) 0.82626(17) 0.49371(12)
H163_3 H 0.4607 0.8563 0.4794
C74_3 C 0.41987(17) 0.79684(17) 0.49987(13)
H164_3 H 0.4057 0.7895 0.4761
C75_3 C 0.42952(18) 0.74932(18) 0.51692(14)
H165_3 H 0.4372 0.7564 0.5422
C76_3 C 0.47281(19) 0.71993(18) 0.50211(14)
H166_3 H 0.4630 0.7030 0.4798
C77_3 C 0.51794(17) 0.75281(16) 0.49575(13)
H167_3 H 0.5327 0.7627 0.5189
C78_3 C 0.5578(2) 0.7285(2) 0.47216(17)
H168_3 H 0.5656 0.6954 0.4817
H169_3 H 0.5444 0.7241 0.4481
C79_3 C 0.48220(15) 0.63491(16) 0.52103(12)
H170_3 H 0.4685 0.6310 0.4967
C80_3 C 0.44611(19) 0.61069(19) 0.54784(13)
H171_3 H 0.4438 0.5750 0.5417
C81_3 C 0.4692(2) 0.6142(2) 0.58360(13)
H172_3 H 0.4687 0.6496 0.5907
C82_3 C 0.52367(16) 0.59669(17) 0.58509(12)
H173_3 H 0.5258 0.5601 0.5827
C83_3 C 0.55238(19) 0.62195(18) 0.55590(13)
H174_3 H 0.5549 0.6582 0.5602
C84_3 C 0.6047(2) 0.5979(2) 0.55304(14)
H175_3 H 0.6221 0.6124 0.5326
H176_3 H 0.6237 0.6062 0.5745
C85_3 C 0.56723(16) 0.57785(17) 0.63850(12)
H177_3 H 0.5572 0.5441 0.6307
C86_3 C 0.5506(2) 0.5859(2) 0.67695(15)
H178_3 H 0.5678 0.5614 0.6923
C87_3 C 0.56535(17) 0.63576(17) 0.68823(12)
H179_3 H 0.5474 0.6600 0.6731
C88_3 C 0.61916(18) 0.64384(16) 0.68310(12)
H180_3 H 0.6379 0.6224 0.6998
C89_3 C 0.63425(18) 0.63169(19) 0.64549(13)
H181_3 H 0.6193 0.6561 0.6289
C90_3 C 0.6902(2) 0.6324(2) 0.64178(15)
H182_3 H 0.6990 0.6248 0.6170
H183_3 H 0.7023 0.6660 0.6470
C91_3 C 0.66630(17) 0.70485(17) 0.71463(12)
H184_3 H 0.6780 0.6736 0.7258
C92_3 C 0.64370(18) 0.73752(18) 0.74306(13)
H185_3 H 0.6695 0.7466 0.7607
C93_3 C 0.6247(2) 0.7851(2) 0.72412(15)
H186_3 H 0.5968 0.7759 0.7082
C94_3 C 0.6646(2) 0.8081(2) 0.70258(14)
H187_3 H 0.6886 0.8248 0.7186
C95_3 C 0.69236(19) 0.76996(19) 0.67923(13)
H188_3 H 0.6700 0.7585 0.6600
C96_3 C 0.7395(2) 0.7914(2) 0.66280(15)
H189_3 H 0.7570 0.7655 0.6494
H190_3 H 0.7309 0.8183 0.6463
C97_3 C 0.65586(18) 0.89287(18) 0.68344(13)
H191_3 H 0.6810 0.8957 0.7026
C98_3 C 0.61073(19) 0.92350(18) 0.69400(12)
H192_3 H 0.6208 0.9587 0.6966
C99_3 C 0.57361(16) 0.91945(16) 0.66439(11)
H193_3 H 0.5618 0.8846 0.6630
C100_3 C 0.5953(2) 0.9334(2) 0.62972(14)
H194_3 H 0.6011 0.9698 0.6294
C101_3 C 0.64493(19) 0.90628(19) 0.62109(13)
H195_3 H 0.6372 0.8705 0.6187
C102_3 C 0.6666(4) 0.9226(4) 0.5871(3)
H196_3 H 0.6976 0.9045 0.5829
H197_3 H 0.6436 0.9145 0.5677
C103_3 C 0.54160(18) 0.95787(16) 0.58054(12)
H198_3 H 0.5521 0.9911 0.5891
C104_3 C 0.4835(2) 0.95382(19) 0.58232(13)
H199_3 H 0.4694 0.9798 0.5666
C105_3 C 0.46868(18) 0.90348(18) 0.56736(13)
H200_3 H 0.4780 0.8776 0.5849
C106_3 C 0.4940(2) 0.89121(19) 0.53179(13)
H201_3 H 0.4777 0.9101 0.5124
C107_3 C 0.54982(19) 0.9038(2) 0.53233(13)
H202_3 H 0.5663 0.8800 0.5487
C108_3 C 0.5739(2) 0.8990(2) 0.49701(16)
H203_3 H 0.6098 0.9042 0.4990
H204_3 H 0.5680 0.8657 0.4871
H248_3 H 0.974725 0.504733 0.625261
H249_3 H 0.854208 0.706578 0.839931
H250_3 H 0.796825 0.709381 0.851543
H251_3 H 0.835484 0.67654 0.674223
H252_3 H 0.815912 0.728106 0.657865
H256_3 H 0.410671 0.894216 0.951241
H258_3 H 0.414768 0.964505 0.926057
H260_3 H 0.474725 0.995267 0.624739
H265_3 H 0.811869 0.613405 0.768322
H268_3 H 0.749385 0.645689 0.800128
O3_4 O 0.4261(6) 0.1667(12) 0.4066(8)
H2_4 H 0.4325 0.1873 0.3859
O5_4 O 0.11510(15) 0.32474(15) 0.23188(11)
H3_4 H 0.1290 0.3050 0.2127
O6_4 O 0.11363(14) 0.21995(14) 0.23351(11)
H4_4 H 0.1065 0.1878 0.2229
O7_4 O 0.01432(13) 0.18426(13) 0.22129(9)
O10_4 O 0.10000(13) 0.13015(14) 0.20514(10)
H6_4 H 0.1208 0.1078 0.2189
O11_4 O 0.05922(15) 0.08767(17) 0.14093(12)
H7_4 H 0.0404 0.0845 0.1190
O15_4 O 0.00123(16) 0.07672(16) 0.07130(11)
H9_4 H 0.0073 0.0472 0.0571
O29_4 O 0.03478(15) 0.46181(13) 0.13332(9)
O30_4 O 0.08354(13) 0.40307(13) 0.18639(9)
H16_4 H 0.0932 0.3759 0.2020
O31_4 O 0.01417(14) 0.33983(13) 0.22334(9)
O33_4 O 0.42588(12) 0.04750(13) 0.45093(9)
O37_4 O 0.40688(14) 0.03461(15) 0.52465(9)
H20_4 H 0.4010 0.0494 0.5479
O38_4 O 0.35792(14) 0.15457(14) 0.34537(9)
O41_4 O 0.39177(13) 0.04489(14) 0.39485(9)
O42_4 O 0.17279(14) 0.16810(14) 0.31116(9)
O43_4 O 0.15868(13) 0.07852(13) 0.23919(9)
H22_4 H 0.1408 0.0545 0.2536
O44_4 O 0.26301(13) 0.08096(15) 0.25015(10)
H23_4 H 0.2959 0.0756 0.2600
O45_4 O 0.29274(13) 0.11057(13) 0.32029(9)
O46_4 O 0.25220(15) 0.23436(15) 0.32447(11)
H24_4 H 0.2285 0.2615 0.3257
O47_4 O 0.03240(13) 0.04706(13) 0.36189(10)
O49_4 O 0.10488(19) 0.00460(18) 0.27228(12)
H26_4 H 0.1240 0.0313 0.2616
O50_4 O 0.14073(14) 0.08924(15) 0.31394(10)
O51_4 O 0.02848(14) 0.15078(14) 0.33487(11)
H27_4 H 0.0054 0.1254 0.3268
O61_4 O 0.22089(19) 0.0529(2) 0.52375(15)
H32_4 H 0.1986 0.0727 0.5382
O62_4 O 0.1641(3) 0.2871(2) 0.1769(2)
O63_4 O 0.1798(3) 0.3036(3) 0.33368(18)
C1_4 C 0.03206(19) 0.32626(17) 0.25629(12)
H33_4 H 0.0393 0.3563 0.2706
C2_4 C 0.08013(17) 0.29684(17) 0.25013(13)
H34_4 H 0.0943 0.2895 0.2739
C3_4 C 0.07048(18) 0.24932(18) 0.23308(14)
H35_4 H 0.0628 0.2564 0.2078
C4_4 C 0.02719(19) 0.21993(18) 0.24789(14)
H36_4 H 0.0370 0.2030 0.2702
C7_4 C 0.01780(15) 0.13491(16) 0.22897(12)
H40_4 H 0.0315 0.1310 0.2533
C8_4 C 0.05389(19) 0.11069(19) 0.20216(13)
H41_4 H 0.0562 0.0750 0.2083
C9_4 C 0.0308(2) 0.1142(2) 0.16640(13)
H42_4 H 0.0313 0.1496 0.1593
C32_4 C 0.0165(2) 0.45382(19) 0.16768(13)
H69_4 H 0.0306 0.4798 0.1834
C33_4 C 0.03132(18) 0.40348(18) 0.18264(13)
H70_4 H 0.0220 0.3776 0.1651
C34_4 C 0.0060(2) 0.39121(19) 0.21821(13)
H71_4 H 0.0223 0.4101 0.2376
C37_4 C 0.43364(17) 0.03116(19) 0.41508(12)
H75_4 H 0.4636 0.0475 0.4052
C41_4 C 0.37864(16) 0.03049(18) 0.46395(12)
H79_4 H 0.3519 0.0430 0.4482
C42_4 C 0.37201(18) 0.05194(17) 0.50077(13)
H80_4 H 0.3744 0.0883 0.4994
H81_4 H 0.3387 0.0436 0.5095
C43_4 C 0.33988(16) 0.13002(18) 0.31393(12)
H82_4 H 0.3378 0.1545 0.2942
C44_4 C 0.37493(18) 0.08964(19) 0.30366(12)
H83_4 H 0.4072 0.1052 0.2976
C45_4 C 0.3837(2) 0.0538(2) 0.33284(15)
H84_4 H 0.3531 0.0340 0.3364
C46_4 C 0.39578(19) 0.0814(2) 0.36776(14)
H85_4 H 0.4301 0.0947 0.3669
C47_4 C 0.36113(19) 0.1209(2) 0.37477(13)
H86_4 H 0.3279 0.1064 0.3791
C48_4 C 0.3758(3) 0.1521(2) 0.40676(17)
H87_4 H 0.3549 0.1820 0.4074
H88_4 H 0.3692 0.1331 0.4285
C49_4 C 0.14900(17) 0.12931(18) 0.29262(14)
H89_4 H 0.1168 0.1415 0.2833
C50_4 C 0.18173(17) 0.1141(2) 0.26181(13)
H90_4 H 0.1890 0.1442 0.2475
C51_4 C 0.23084(16) 0.09457(17) 0.27704(12)
H91_4 H 0.2233 0.0645 0.2913
C52_4 C 0.25157(16) 0.13321(18) 0.30185(12)
H92_4 H 0.2641 0.1615 0.2876
C53_4 C 0.2163(2) 0.1518(2) 0.32815(17)
H93_4 H 0.2082 0.1252 0.3454
C54_4 C 0.2377(2) 0.1967(2) 0.34770(15)
H94_4 H 0.2127 0.2097 0.3642
H95_4 H 0.2665 0.1861 0.3618
C57_4 C 0.0983(2) 0.0141(2) 0.30827(14)
H98_4 H 0.1277 0.0010 0.3211
C58_4 C 0.09399(18) 0.06823(18) 0.31679(13)
H99_4 H 0.0713 0.0843 0.2995
C59_4 C 0.07451(18) 0.07737(19) 0.35491(13)
H100_4 H 0.1011 0.0678 0.3718
C60_4 C 0.0613(2) 0.12988(19) 0.36184(14)
H101_4 H 0.0450 0.1322 0.3851
H102_4 H 0.0918 0.1497 0.3629
H107_4 H 0.1171 0.0021 0.4392
C66_4 C 0.0459(2) 0.0209(3) 0.45272(18)
H108_4 H 0.0589 0.0450 0.4700
H109_4 H 0.0365 0.0391 0.4311
C72_4 C 0.2015(2) 0.0049(2) 0.52003(17)
H115_4 H 0.1686 0.0069 0.5090
O64_4 O 0.3235(13) 0.0250(6) 0.0867(8)
H117_4 H 0.2999 0.0169 0.1053
O71_4 O 0.51432(13) 0.31574(13) 0.02871(9)
O73_4 O 0.47007(12) 0.38796(13) 0.02242(9)
O74_4 O 0.60000(13) 0.36985(14) 0.04486(10)
H124_4 H 0.6208 0.3922 0.0311
O75_4 O 0.55922(15) 0.41233(17) 0.10907(12)
H125_4 H 0.5404 0.4155 0.1310
O76_4 O 0.45759(13) 0.38753(13) 0.11871(9)
O77_4 O 0.39590(13) 0.45399(13) 0.04911(9)
H126_4 H 0.3932 0.4624 0.0240
O78_4 O 0.38133(13) 0.41756(13) 0.13601(10)
O79_4 O 0.50123(16) 0.42328(16) 0.17870(11)
H127_4 H 0.5073 0.4528 0.1929
O80_4 O 0.44835(14) 0.35543(14) 0.22388(9)
H128_4 H 0.4270 0.3299 0.2339
O81_4 O 0.36938(14) 0.30656(13) 0.18985(9)
O82_4 O 0.28545(16) 0.40171(18) 0.16450(12)
H129_4 H 0.2498 0.3995 0.1609
O83_4 O 0.29294(14) 0.27078(14) 0.19972(11)
O85_4 O 0.39604(15) 0.28536(14) 0.26042(9)
H130_4 H 0.3836 0.3056 0.2799
O86_4 O 0.39291(15) 0.18213(14) 0.25020(10)
H131_4 H 0.3981 0.1496 0.2397
O87_4 O 0.35687(14) 0.15642(13) 0.17974(9)
O88_4 O 0.22964(19) 0.1903(2) 0.18979(13)
O90_4 O 0.32286(14) 0.08855(14) 0.15105(10)
O97_4 O 0.43974(13) 0.07865(12) 0.10344(8)
O101_4 O 0.53478(15) 0.03819(13) 0.11668(9)
O102_4 O 0.58354(13) 0.09693(13) 0.06361(9)
H138_4 H 0.5932 0.1241 0.0480
O103_4 O 0.51417(14) 0.16017(13) 0.02666(9)
C75_4 C 0.57048(18) 0.25068(18) 0.01692(14)
H165_4 H 0.5628 0.2436 0.0422
C76_4 C 0.52719(19) 0.28007(18) 0.00211(14)
H167_4 H 0.4673 0.2373 0.0189
C79_4 C 0.51780(15) 0.36509(16) 0.02103(12)
C80_4 C 0.55389(19) 0.38931(19) 0.04784(13)
H171_4 H 0.5562 0.4250 0.0417
C81_4 C 0.5308(2) 0.3858(2) 0.08360(13)
H172_4 H 0.5313 0.3504 0.0907
C82_4 C 0.47633(16) 0.40331(17) 0.08509(12)
H173_4 H 0.4742 0.4399 0.0827
C83_4 C 0.44762(19) 0.37805(18) 0.05590(13)
H174_4 H 0.4451 0.3418 0.0602
C84_4 C 0.3953(2) 0.4021(2) 0.05304(14)
H175_4 H 0.3779 0.3876 0.0326
H176_4 H 0.3763 0.3938 0.0745
C85_4 C 0.43277(16) 0.42215(17) 0.13850(12)
H177_4 H 0.4428 0.4559 0.1307
C86_4 C 0.4494(2) 0.4141(2) 0.17695(15)
H178_4 H 0.4322 0.4386 0.1923
C87_4 C 0.43465(17) 0.36424(17) 0.18823(12)
H179_4 H 0.4526 0.3400 0.1731
C88_4 C 0.38084(18) 0.35616(16) 0.18310(12)
H180_4 H 0.3621 0.3776 0.1998
C89_4 C 0.36575(18) 0.36831(19) 0.14549(13)
H181_4 H 0.3807 0.3439 0.1289
C90_4 C 0.3098(2) 0.3676(2) 0.14178(15)
H182_4 H 0.3010 0.3752 0.1170
H183_4 H 0.2977 0.3340 0.1470
C91_4 C 0.33370(17) 0.29515(17) 0.21463(12)
H184_4 H 0.3220 0.3264 0.2258
C92_4 C 0.35630(18) 0.26248(18) 0.24306(13)
H185_4 H 0.3305 0.2534 0.2607
C93_4 C 0.3753(2) 0.2149(2) 0.22412(15)
H186_4 H 0.4032 0.2241 0.2082
C94_4 C 0.3354(2) 0.1919(2) 0.20258(14)
H187_4 H 0.3114 0.1752 0.2186
C95_4 C 0.30764(19) 0.23004(19) 0.17923(13)
H188_4 H 0.3300 0.2415 0.1600
C96_4 C 0.2605(2) 0.2086(2) 0.16280(15)
H189_4 H 0.2430 0.2345 0.1494
H190_4 H 0.2691 0.1817 0.1463
C97_4 C 0.34414(18) 0.10713(18) 0.18344(13)
H191_4 H 0.3190 0.1043 0.2026
C98_4 C 0.38927(19) 0.07650(18) 0.19400(12)
H192_4 H 0.3792 0.0413 0.1966
C99_4 C 0.42639(16) 0.08055(16) 0.16439(11)
H193_4 H 0.4382 0.1154 0.1630
C100_4 C 0.4047(2) 0.0666(2) 0.12972(14)
H194_4 H 0.3989 0.0302 0.1294
C101_4 C 0.35507(19) 0.09372(19) 0.12109(13)
H195_4 H 0.3628 0.1295 0.1187
C102_4 C 0.3334(4) 0.0774(4) 0.0871(3)
H196_4 H 0.3024 0.0955 0.0829
H197_4 H 0.3564 0.0855 0.0677
C103_4 C 0.45840(18) 0.04213(16) 0.08054(12)
H198_4 H 0.4479 0.0089 0.0891
C104_4 C 0.5165(2) 0.04618(19) 0.08232(13)
H199_4 H 0.5306 0.0202 0.0666
C105_4 C 0.53132(18) 0.09652(18) 0.06736(13)
H200_4 H 0.5220 0.1224 0.0849
C106_4 C 0.5060(2) 0.10879(19) 0.03179(13)
H201_4 H 0.5223 0.0899 0.0124
C107_4 C 0.45018(19) 0.0962(2) 0.03233(13)
H202_4 H 0.4337 0.1200 0.0487
H248_4 H 0.025275 0.495267 0.125261
H249_4 H 0.145792 0.293422 0.339931
H250_4 H 0.203175 0.290619 0.351543
H251_4 H 0.164516 0.32346 0.174223
H252_4 H 0.184088 0.271894 0.157865
H256_4 H 0.589329 0.105784 0.451241
H258_4 H 0.585232 0.0354954 0.426057
H260_4 H 0.525275 0.00473283 0.124739
H265_4 H 0.188131 0.386595 0.268322
H268_4 H 0.250615 0.354311 0.300128
H269_4 H 0.518004 0.113985 0.570091
O66_4 O 0.49723(13) 0.20319(12) 0.97609(9)
O72_4 O 0.39993(19) 0.2446(2) 0.97028(15)
H123_4 H 0.3762 0.2616 0.9551
C73_4 C 0.53206(19) 0.17374(17) 0.99371(12)
H163_4 H 0.5393 0.1437 0.9794
C74_4 C 0.58013(17) 0.20316(17) 0.99987(13)
H164_4 H 0.5943 0.2105 0.9761
H166_4 H 0.5370 0.2970 0.9798
C77_4 C 0.48206(17) 0.24719(16) 0.99575(13)
C78_4 C 0.4422(2) 0.2715(2) 0.97216(17)
H168_4 H 0.4344 0.3046 0.9817
H169_4 H 0.4556 0.2759 0.9481
H170_4 H 0.5315 0.3690 0.9967
C108_4 C 0.4261(2) 0.1010(2) 0.99701(16)
H203_4 H 0.3902 0.0958 0.9990
H204_4 H 0.4320 0.1343 0.9871
Rb3_5 Rb 0.09783(4) 0.90217(4) 0.2500
O34_4 O 0.44877(14) 0.96078(16) 0.37838(10)
H18_4 H 0.4841 0.9622 0.3731
O35_4 O 0.40182(14) 0.90051(14) 0.43221(11)
H19_4 H 0.3760 0.8865 0.4472
O36_4 O 0.32719(12) 0.95934(13) 0.46827(9)
O48_4 O 0.0611(2) 0.93415(17) 0.31697(12)
H25_4 H 0.0701 0.9209 0.3401
O52_4 O 0.09237(14) 0.95494(14) 0.47469(9)
O53_4 O 0.13703(15) 0.83586(16) 0.44065(11)
H28_4 H 0.1690 0.8426 0.4516
O54_4 O 0.08785(19) 0.87788(18) 0.37915(12)
H29_4 H 0.0796 0.8994 0.3593
O55_4 O 0.08163(14) 0.98213(14) 0.37978(9)
O56_4 O 0.00270(14) 0.99682(16) 0.46742(10)
O57_4 O 0.27797(13) 0.96571(14) 0.51900(9)
O60_4 O 0.17321(14) 0.93239(14) 0.46259(10)
C38_4 C 0.44044(19) 0.97668(19) 0.41441(13)
H76_4 H 0.4690 0.9671 0.4296
C39_4 C 0.39364(18) 0.95355(18) 0.42828(12)
H77_4 H 0.3665 0.9591 0.4109
C40_4 C 0.37829(18) 0.97384(19) 0.46362(13)
H78_4 H 0.3994 0.9603 0.4829
C55_4 C 0.04106(17) 0.99722(18) 0.35891(13)
H96_4 H 0.0110 0.9785 0.3661
C56_4 C 0.0545(2) 0.9846(2) 0.31947(14)
H97_4 H 0.0260 0.9940 0.3042
C61_4 C 0.12578(17) 0.91473(18) 0.47019(12)
H103_4 H 0.1274 0.8963 0.4930
C62_4 C 0.1084(2) 0.87847(19) 0.44122(14)
H104_4 H 0.0739 0.8684 0.4472
C63_4 C 0.1064(2) 0.9060(2) 0.40662(15)
H105_4 H 0.1404 0.9168 0.4003
C64_4 C 0.07348(19) 0.9521(2) 0.41027(14)
H106_4 H 0.0381 0.9418 0.4111
C65_4 C 0.08584(19) 0.98377(19) 0.44379(14)
C67_4 C 0.31424(17) 0.93609(18) 0.49976(14)
H110_4 H 0.3445 0.9337 0.5147
C68_4 C 0.29655(17) 0.88381(17) 0.49217(12)
H111_4 H 0.2898 0.8671 0.5152
C69_4 C 0.24816(17) 0.88639(18) 0.47126(12)
H112_4 H 0.2561 0.8980 0.4469
C70_4 C 0.21099(18) 0.92326(18) 0.48756(13)
H113_4 H 0.1961 0.9082 0.5091
C71_4 C 0.23465(18) 0.97215(18) 0.49758(14)
H114_4 H 0.2438 0.9902 0.4756
H116_4 H 0.1975 0.9899 0.5437
O108_4 O 0.03922(16) 0.55123(14) 0.12162(10)
H142_4 H 0.0378 0.5159 0.1269
O109_4 O 0.09949(14) 0.59818(14) 0.06779(11)
H143_4 H 0.1135 0.6240 0.0528
O110_4 O 0.04066(13) 0.67281(12) 0.03173(9)
O126_4 O 0.06585(17) 0.9389(2) 0.18303(12)
H151_4 H 0.0791 0.9299 0.1599
O130_4 O 0.04506(14) 0.90763(14) 0.02531(9)
O131_4 O 0.16414(16) 0.86297(15) 0.05935(11)
H154_4 H 0.1574 0.8310 0.0484
O132_4 O 0.12212(18) 0.91215(19) 0.12085(12)
H155_4 H 0.1006 0.9204 0.1407
O133_4 O 0.01787(14) 0.91837(14) 0.12022(9)
O134_4 O 0.00318(16) 0.99730(14) 0.03258(10)
O142_4 O 0.06761(14) 0.82679(14) 0.03741(10)
C110_4 C 0.02332(19) 0.55956(19) 0.08559(13)
H206_4 H 0.0329 0.5310 0.0704
C111_4 C 0.04645(18) 0.60636(18) 0.07172(12)
H207_4 H 0.0409 0.6335 0.0891
C112_4 C 0.02616(19) 0.62171(18) 0.03638(13)
H208_4 H 0.0397 0.6006 0.0171
C127_4 C 0.00278(18) 0.95894(17) 0.14109(13)
H226_4 H 0.0215 0.9890 0.1339
C128_4 C 0.0154(2) 0.9455(2) 0.18053(14)
H227_4 H 0.0060 0.9740 0.1958
C133_4 C 0.08527(18) 0.87422(17) 0.02981(12)
H233_4 H 0.1037 0.8726 0.0070
C134_4 C 0.12153(19) 0.8916(2) 0.05878(14)
H234_4 H 0.1316 0.9261 0.0528
C135_4 C 0.0940(2) 0.8936(2) 0.09338(15)
H235_4 H 0.0832 0.8596 0.0997
C136_4 C 0.0479(2) 0.92652(19) 0.08973(14)
H236_4 H 0.0582 0.9619 0.0889
C137_4 C 0.01623(19) 0.91416(19) 0.05621(14)
C139_4 C 0.06391(18) 0.68576(17) 0.00024(14)
C140_4 C 0.11619(17) 0.70345(17) 0.00783(12)
C141_4 C 0.11361(18) 0.75184(17) 0.02874(12)
H242_4 H 0.1020 0.7439 0.0531
C142_4 C 0.07674(18) 0.78901(18) 0.01244(13)
C143_4 C 0.02785(18) 0.76535(18) 0.00242(14)
H244_4 H 0.0098 0.7562 0.0244
H253_4 H 0.0120114 0.979052 0.48932
H261_4 H 0.082848 0.466914 0.0427569
H262_4 H 0.533086 0.917152 0.457243
H263_4 H 0.0209481 0.987989 0.0106802
O135_4 O 0.03429(14) 0.72203(13) 0.98100(9)
H240_4 H 0.0663 0.6555 0.9853
H241_4 H 0.1329 0.7102 0.9848
H243_4 H 0.0918 0.8039 0.9909
H246_4 H 0.0101 0.8025 0.9563
O2_4 O 0.8235(13) 0.4750(6) 0.1633(8)
H1_4 H 0.7999 0.4831 0.1447
O4_4 O 0.99723(13) 0.29681(12) 0.27391(9)
O8_4 O 0.89993(19) 0.2554(2) 0.27972(15)
H5_4 H 0.8762 0.2384 0.2949
O9_4 O 0.97007(12) 0.11204(13) 0.22758(9)
O12_4 O 0.95759(13) 0.11247(13) 0.13129(9)
O13_4 O 0.89590(13) 0.04601(13) 0.20089(9)
H8_4 H 0.8932 0.0376 0.2260
O14_4 O 0.88133(13) 0.08244(13) 0.11399(10)
O16_4 O 0.94835(14) 0.14457(14) 0.02612(9)
H10_4 H 0.9270 0.1701 0.0161
O17_4 O 0.86938(14) 0.19344(13) 0.06015(9)
O18_4 O 0.78545(16) 0.09829(18) 0.08550(12)
H11_4 H 0.7498 0.1005 0.0891
H13_4 H 0.8981 0.3504 0.0103
O22_4 O 0.85687(14) 0.34358(13) 0.07026(9)
O24_4 O 0.82286(14) 0.41145(14) 0.09895(10)
O25_2 O 0.90850(13) 0.40753(13) 0.02475(9)
H14_2 H 0.8878 0.4191 0.0052
O26_2 O 0.96763(14) 0.45090(13) 0.07722(9)
H15_2 H 0.9895 0.4532 0.0977
O27_4 O 0.93974(13) 0.42135(12) 0.14656(8)
C5_4 C 0.98206(17) 0.25281(16) 0.25425(13)
H37_4 H 0.9673 0.2627 0.2311
C6_4 C 0.9422(2) 0.2285(2) 0.27784(17)
H38_4 H 0.9344 0.1954 0.2683
H39_4 H 0.9556 0.2241 0.3019
C10_4 C 0.97633(16) 0.09669(17) 0.16491(12)
H43_4 H 0.9742 0.0601 0.1673
C11_4 C 0.94762(19) 0.12195(18) 0.19410(13)
H44_4 H 0.9451 0.1582 0.1898
C12_4 C 0.8953(2) 0.0979(2) 0.19696(14)
H45_4 H 0.8779 0.1124 0.2174
H46_4 H 0.8763 0.1062 0.1755
C13_4 C 0.93277(16) 0.07785(17) 0.11150(12)
H47_4 H 0.9428 0.0441 0.1193
C14_4 C 0.9494(2) 0.0859(2) 0.07305(15)
H48_4 H 0.9322 0.0614 0.0577
C15_4 C 0.93465(17) 0.13576(17) 0.06177(12)
H49_4 H 0.9526 0.1600 0.0769
C16_4 C 0.88084(18) 0.14384(16) 0.06690(12)
H50_4 H 0.8621 0.1224 0.0502
C17_4 C 0.86575(18) 0.13169(19) 0.10451(13)
H51_4 H 0.8807 0.1561 0.1211
C18_4 C 0.8098(2) 0.1324(2) 0.10822(15)
H52_4 H 0.8010 0.1248 0.1330
H53_4 H 0.7977 0.1660 0.1030
C19_4 C 0.83370(17) 0.20485(17) 0.03537(12)
H54_4 H 0.8220 0.1736 0.0242
C20_4 C 0.85630(18) 0.23752(18) 0.00694(13)
C21_4 C 0.8753(2) 0.2851(2) 0.02588(15)
H56_4 H 0.9032 0.2759 0.0418
C22_4 C 0.8354(2) 0.3081(2) 0.04742(14)
H57_4 H 0.8114 0.3248 0.0314
C23_4 C 0.80764(19) 0.26996(19) 0.07077(13)
H58_4 H 0.8300 0.2585 0.0900
C24_4 C 0.7605(2) 0.2914(2) 0.08720(15)
H59_4 H 0.7430 0.2655 0.1006
H60_4 H 0.7691 0.3183 0.1037
C25_4 C 0.84414(18) 0.39287(18) 0.06656(13)
H61_4 H 0.8190 0.3957 0.0474
C26_4 C 0.88927(19) 0.42350(18) 0.05600(12)
H62_4 H 0.8792 0.4587 0.0534
C27_4 C 0.92639(16) 0.41945(16) 0.08561(11)
H63_4 H 0.9382 0.3846 0.0870
C28_4 C 0.9047(2) 0.4334(2) 0.12028(14)
H64_4 H 0.8989 0.4698 0.1206
C29_4 C 0.85507(19) 0.40628(19) 0.12891(13)
H65_4 H 0.8628 0.3705 0.1313
C30_4 C 0.8334(4) 0.4226(4) 0.1629(3)
H66_4 H 0.8024 0.4045 0.1671
H67_4 H 0.8564 0.4145 0.1823
C31_4 C 0.95840(18) 0.45787(16) 0.16946(12)
H68_4 H 0.9479 0.4911 0.1609
C35_4 C 0.95018(19) 0.4038(2) 0.21767(13)
H72_4 H 0.9337 0.3800 0.2013
C36_4 C 0.9261(2) 0.3990(2) 0.25299(16)
H73_4 H 0.8902 0.4042 0.2510
H74_4 H 0.9320 0.3657 0.2629
O20_4 O 0.89604(15) 0.21464(14) 0.98958(9)
H12_4 H 0.8836 0.1944 0.9701
O21_4 O 0.89291(15) 0.31787(14) 0.99980(10)
H55_4 H 0.8305 0.2466 0.9893
O65_4 O 0.8333(12) 0.5739(6) 0.0934(8)
H118_4 H 0.8127 0.5675 0.1141
O107_4 O 0.95250(13) 0.57412(12) 0.04907(9)
O112_4 O 0.84543(14) 0.64208(14) 0.15463(9)
O119_4 O 0.95511(14) 0.60823(13) 0.10515(9)
O120_4 O 0.83190(14) 0.82721(14) 0.18884(9)
O121_4 O 0.92148(13) 0.84132(13) 0.26081(9)
H148_4 H 0.9455 0.8592 0.2464
O122_4 O 0.91904(15) 0.73699(13) 0.24985(10)
H149_4 H 0.9244 0.7041 0.2400
O123_4 O 0.88943(13) 0.70726(13) 0.17971(9)
O124_4 O 0.76564(15) 0.74780(15) 0.17553(11)
H150_4 H 0.7385 0.7715 0.1743
O125_4 O 0.95294(13) 0.96760(13) 0.13811(10)
O127_4 O 0.99540(18) 0.89512(19) 0.22772(12)
H152_4 H 0.9687 0.8760 0.2384
O128_4 O 0.91076(15) 0.85927(14) 0.18606(10)
O129_4 O 0.84922(14) 0.97152(14) 0.16513(11)
H153_4 H 0.8746 0.9946 0.1732
O144_4 O 0.7129(2) 0.8359(3) 0.3231(2)
O145_4 O 0.6964(3) 0.8202(3) 0.16632(18)
C109_4 C 0.96884(19) 0.56636(17) 0.08492(12)
H205_4 H 0.9525 0.5364 0.0948
C113_4 C 0.96951(18) 0.62136(16) 0.03605(12)
H209_4 H 0.9570 0.6481 0.0518
H210_4 H 0.9117 0.6256 0.0006
C115_4 C 0.86998(18) 0.66012(16) 0.18607(12)
H212_4 H 0.8455 0.6622 0.2058
C116_4 C 0.91036(19) 0.62507(18) 0.19634(12)
H213_4 H 0.8948 0.5928 0.2024
C117_4 C 0.9462(2) 0.6163(2) 0.16716(15)
H214_4 H 0.9660 0.6469 0.1636
C118_4 C 0.9186(2) 0.60422(19) 0.13224(14)
H215_4 H 0.9053 0.5699 0.1331
C119_4 C 0.8791(2) 0.63887(19) 0.12523(13)
H216_4 H 0.8936 0.6721 0.1209
C120_4 C 0.8479(2) 0.6242(3) 0.09324(17)
H217_4 H 0.8180 0.6451 0.0926
H218_4 H 0.8669 0.6308 0.0715
C121_4 C 0.87069(18) 0.85100(17) 0.20738(14)
H219_4 H 0.8585 0.8832 0.2167
C122_4 C 0.8859(2) 0.81827(17) 0.23819(13)
H220_4 H 0.8558 0.8110 0.2525
C123_4 C 0.90543(17) 0.76916(16) 0.22296(12)
H221_4 H 0.9355 0.7767 0.2087
C124_4 C 0.86679(18) 0.74843(16) 0.19815(12)
H222_4 H 0.8385 0.7359 0.2124
C125_4 C 0.8482(2) 0.7837(2) 0.17185(17)
H223_4 H 0.8748 0.7918 0.1546
C126_4 C 0.8033(2) 0.7623(2) 0.15230(15)
H224_4 H 0.7903 0.7873 0.1358
H225_4 H 0.8139 0.7335 0.1382
C129_4 C 0.9859(2) 0.9017(2) 0.19173(14)
H228_4 H 0.9990 0.8723 0.1789
C130_4 C 0.93177(18) 0.90601(18) 0.18321(13)
H229_4 H 0.9157 0.9287 0.2005
C131_4 C 0.92263(19) 0.92549(18) 0.14509(13)
H230_4 H 0.9322 0.8989 0.1282
C132_4 C 0.87012(19) 0.9387(2) 0.13816(14)
H231_4 H 0.8678 0.9550 0.1149
H232_4 H 0.8503 0.9082 0.1371
H237_4 H 0.9979 0.8829 0.0608
C138_4 C 0.9791(3) 0.9541(2) 0.04728(18)
H238_4 H 0.9550 0.9411 0.0300
H239_4 H 0.9609 0.9635 0.0689
H254_4 H 0.755565 0.900077 0.283279
H255_4 H 0.638888 0.881381 0.268787
H257_4 H 0.894216 0.410671 0.0487588
H259_4 H 0.964505 0.414768 0.0739435
H266_4 H 0.613405 0.811869 0.231678
H267_4 H 0.645689 0.749385 0.199872
H270_4 H 0.706578 0.854208 0.160069
H271_4 H 0.709381 0.796825 0.148457
H272_4 H 0.67654 0.835484 0.325777
H273_4 H 0.728106 0.815912 0.342135
O111_4 O 0.96539(15) 0.59312(14) 0.97535(9)
H144_4 H 0.9506 0.5990 0.9521
O143_4 O 0.9471(2) 0.77911(19) 0.97625(15)
H162_4 H 0.9273 0.8014 0.9618
C114_4 C 0.94806(17) 0.62799(18) 0.99923(13)
H211_4 H 0.9564 0.6613 0.9905
C144_4 C 0.9951(2) 0.7985(2) 0.97997(17)
H245_4 H 0.9931 0.8314 0.9910
H264_4 H 0.886015 0.481996 0.929909
H254_5 H 0.900077 0.755565 0.716721
H255_5 H 0.881381 0.638888 0.731213
H254_6 H 0.0999228 0.244435 0.216721
H255_6 H 0.118619 0.361112 0.231213
H254_7 H 0.255565 0.599923 0.966721
H255_7 H 0.138888 0.618619 0.981213
H254_8 H 0.744435 0.400077 0.466721
H255_8 H 0.861112 0.381381 0.481213
loop_
_geom_bond_atom_site_label_1
_geom_bond_atom_site_label_2
_geom_bond_site_symmetry_1
_geom_bond_site_symmetry_2
O1 H247 1_555 1_555
O1_2 H247_2 1_555 1_555
O1_3 H247_3 1_555 1_555
O1_4 H247_4 1_555 1_555
O1_5 H247_5 1_555 1_555
O1_6 H247_6 1_555 1_555
O1_7 H247_7 1_555 1_555
O1_8 H247_8 1_555 1_555
Rb9 O93 1_555 1_555
O93 H134 1_555 1_555
O96 Rb9 1_555 1_555
H137 O96 1_555 1_555
O100 Rb9 1_555 1_555
O106 Rb9 1_555 1_555
H141 O106 1_555 1_555
O115 Rb9 1_555 1_555
O118 Rb9 1_555 1_555
H147 O118 1_555 1_555
O93 H257 1_555 1_555
O96 H259 1_555 1_555
O106 H261 1_555 1_555
O118 H264 1_555 1_555
O92 Rb2 1_555 1_555
H133 O92 1_555 1_555
O95 Rb2 1_555 1_555
H136 O95 1_555 1_555
O99 Rb2 1_555 1_555
O105 Rb2 1_555 1_555
H140 O105 1_555 1_555
O114 Rb2 1_555 1_555
O117 Rb2 1_555 1_555
H146 O117 1_555 1_555
O92 H256 1_555 1_555
O95 H258 1_555 1_555
O105 H262 1_555 1_555
O117 H269 1_555 1_555
Rb8 O67 1_555 1_555
O67 H119 1_555 1_555
O69 Rb8 1_555 1_555
H121 O69 1_555 1_555
O71 C76 1_555 1_555
O74 H124 1_555 1_555
O75 H125 1_555 1_555
O79 H127 1_555 1_555
O101 C104 1_555 1_555
O102 H138 1_555 1_555
O103 C73 1_555 1_555
C73 H163 1_555 1_555
C74 O67 1_555 1_555
H164 C74 1_555 1_555
C75 O69 1_555 1_555
H165 C75 1_555 1_555
C76 C75 1_555 1_555
H166 C76 1_555 1_555
C79 O71 1_555 1_555
H170 C79 1_555 1_555
C80 O74 1_555 1_555
H171 C80 1_555 1_555
C81 O75 1_555 1_555
H172 C81 1_555 1_555
H199 C104 1_555 1_555
C105 O102 1_555 1_555
H200 C105 1_555 1_555
C106 O103 1_555 1_555
H201 C106 1_555 1_555
C73 C74 1_555 1_555
C74 C75 1_555 1_555
C79 C80 1_555 1_555
C80 C81 1_555 1_555
C104 C105 1_555 1_555
C105 C106 1_555 1_555
O101 H260 1_555 1_555
Rb3 O48 1_555 1_555
O3 H2 1_555 1_555
O4 C1 1_555 1_555
O8 H5 1_555 1_555
O32 H17 1_555 1_555
O33 C37 1_555 1_555
O34 H18 1_555 1_555
O35 H19 1_555 1_555
O36 C40 1_555 1_555
H20 O37 1_555 1_555
O38 C43 1_555 1_555
O39 C44 1_555 1_555
O40 H21 1_555 1_555
O41 C37 1_555 1_555
O42 Rb1 1_555 1_555
O44 H23 1_555 1_555
O45 C43 1_555 1_555
O46 Rb1 1_555 1_555
H24 O46 1_555 1_555
O47 C55 1_555 1_555
O48 H25 1_555 1_555
O49 Rb3 1_555 1_555
H26 O49 1_555 1_555
O50 C49 1_555 1_555
O51 H27 1_555 1_555
O52 C61 1_555 1_555
O53 H28 1_555 1_555
O54 H29 1_555 1_555
O55 C55 1_555 1_555
O56 C66 1_555 1_555
O57 C67 1_555 1_555
O58 H30 1_555 1_555
O59 H31 1_555 1_555
O60 C61 1_555 1_555
O61 H32 1_555 1_555
O63 Rb1 1_555 1_555
C1 H33 1_555 1_555
H34 C2 1_555 1_555
C5 O4 1_555 1_555
C6 O8 1_555 1_555
H38 C6 1_555 1_555
H39 C6 1_555 1_555
C36 O32 1_555 1_555
H73 C36 1_555 1_555
H74 C36 1_555 1_555
C37 H75 1_555 1_555
C38 O34 1_555 1_555
H76 C38 1_555 1_555
C39 O35 1_555 1_555
H77 C39 1_555 1_555
C40 C39 1_555 1_555
H78 C40 1_555 1_555
C41 O33 1_555 1_555
H79 C41 1_555 1_555
C42 O37 1_555 1_555
H80 C42 1_555 1_555
H81 C42 1_555 1_555
C43 H82 1_555 1_555
C44 C43 1_555 1_555
H83 C44 1_555 1_555
C45 O40 1_555 1_555
H84 C45 1_555 1_555
C46 O41 1_555 1_555
H85 C46 1_555 1_555
C47 O38 1_555 1_555
H86 C47 1_555 1_555
C48 O3 1_555 1_555
H87 C48 1_555 1_555
H88 C48 1_555 1_555
C49 O42 1_555 1_555
H89 C49 1_555 1_555
C51 O44 1_555 1_555
H91 C51 1_555 1_555
C52 O45 1_555 1_555
H92 C52 1_555 1_555
C53 O42 1_555 1_555
H93 C53 1_555 1_555
C54 O46 1_555 1_555
H94 C54 1_555 1_555
H95 C54 1_555 1_555
C55 H96 1_555 1_555
C56 O48 1_555 1_555
H97 C56 1_555 1_555
C57 O49 1_555 1_555
H98 C57 1_555 1_555
C58 O50 1_555 1_555
H99 C58 1_555 1_555
C59 O47 1_555 1_555
H100 C59 1_555 1_555
C60 O51 1_555 1_555
H101 C60 1_555 1_555
H102 C60 1_555 1_555
C61 H103 1_555 1_555
C62 O53 1_555 1_555
H104 C62 1_555 1_555
C63 O54 1_555 1_555
H105 C63 1_555 1_555
C64 O55 1_555 1_555
H106 C64 1_555 1_555
C65 O52 1_555 1_555
H107 C65 1_555 1_555
C66 C65 1_555 1_555
H108 C66 1_555 1_555
H109 C66 1_555 1_555
C67 O36 1_555 1_555
H110 C67 1_555 1_555
C68 O58 1_555 1_555
H111 C68 1_555 1_555
C69 O59 1_555 1_555
H112 C69 1_555 1_555
C70 O60 1_555 1_555
H113 C70 1_555 1_555
C71 O57 1_555 1_555
H114 C71 1_555 1_555
C72 O61 1_555 1_555
H115 C72 1_555 1_555
H116 C72 1_555 1_555
Rb6 O58 1_555 1_555
O68 H120 1_555 1_555
H122 O70 1_555 1_555
O85 H130 1_555 1_555
O137 Rb1 1_555 1_555
H157 O137 1_555 1_555
O140 Rb1 1_555 1_555
H160 O140 1_555 1_555
O59 Rb6 1_555 1_555
C1 C2 1_555 1_555
C5 C6 1_555 1_555
C37 C38 1_555 1_555
C38 C39 1_555 1_555
C40 C41 1_555 1_555
C41 C42 1_555 1_555
C44 C45 1_555 1_555
C45 C46 1_555 1_555
C46 C47 1_555 1_555
C47 C48 1_555 1_555
C49 C50 1_555 1_555
C50 C51 1_555 1_555
C51 C52 1_555 1_555
C52 C53 1_555 1_555
C53 C54 1_555 1_555
C55 C56 1_555 1_555
C56 C57 1_555 1_555
C57 C58 1_555 1_555
C58 C59 1_555 1_555
C59 C60 1_555 1_555
C61 C62 1_555 1_555
C62 C63 1_555 1_555
C63 C64 1_555 1_555
C64 C65 1_555 1_555
C67 C68 1_555 1_555
C68 C69 1_555 1_555
C69 C70 1_555 1_555
C70 C71 1_555 1_555
C71 C72 1_555 1_555
O63 H249 1_555 1_555
O63 H250 1_555 1_555
O56 H253 1_555 1_555
O70 H254 1_555 1_555
O68 H255 1_555 1_555
O137 H265 1_555 1_555
O140 H268 1_555 1_555
O144 H272 1_555 1_555
O144 H273 1_555 1_555
O2 H1 1_555 1_555
O5 H3 1_555 1_555
H4 O6 1_555 1_555
O7 C4 1_555 1_555
O9 C7 1_555 1_555
O10 H6 1_555 1_555
O11 H7 1_555 1_555
O12 C10 1_555 1_555
O13 H8 1_555 1_555
O14 C13 1_555 1_555
O15 H9 1_555 1_555
O16 H10 1_555 1_555
O17 C16 1_555 1_555
O18 H11 1_555 1_555
O19 C19 1_555 1_555
O20 H12 1_555 1_555
O21 H13 1_555 1_555
O22 C22 1_555 1_555
O23 C24 1_555 1_555
O24 C25 1_555 1_555
O27 C28 1_555 1_555
O28 C31 1_555 1_555
O29 C32 1_555 1_555
O30 H16 1_555 1_555
C3 O6 1_555 1_555
H35 C3 1_555 1_555
C4 C3 1_555 1_555
C7 O7 1_555 1_555
C8 O10 1_555 1_555
H41 C8 1_555 1_555
C9 O11 1_555 1_555
H42 C9 1_555 1_555
C10 C9 1_555 1_555
H43 C10 1_555 1_555
C11 O9 1_555 1_555
H44 C11 1_555 1_555
C12 O13 1_555 1_555
H45 C12 1_555 1_555
H46 C12 1_555 1_555
C13 O12 1_555 1_555
H47 C13 1_555 1_555
C14 O15 1_555 1_555
H48 C14 1_555 1_555
C15 O16 1_555 1_555
H49 C15 1_555 1_555
C16 C15 1_555 1_555
H50 C16 1_555 1_555
C17 O14 1_555 1_555
H51 C17 1_555 1_555
C18 O18 1_555 1_555
H52 C18 1_555 1_555
H53 C18 1_555 1_555
C19 O17 1_555 1_555
H54 C19 1_555 1_555
C20 O20 1_555 1_555
H55 C20 1_555 1_555
C21 O21 1_555 1_555
H56 C21 1_555 1_555
C22 C21 1_555 1_555
H57 C22 1_555 1_555
C23 O19 1_555 1_555
H58 C23 1_555 1_555
C24 C23 1_555 1_555
H59 C24 1_555 1_555
H60 C24 1_555 1_555
C25 O22 1_555 1_555
H61 C25 1_555 1_555
C26 O93 1_555 1_555
H62 C26 1_555 1_555
C27 O96 1_555 1_555
H63 C27 1_555 1_555
C28 C27 1_555 1_555
H64 C28 1_555 1_555
C29 O24 1_555 1_555
H65 C29 1_555 1_555
C30 O2 1_555 1_555
H66 C30 1_555 1_555
H67 C30 1_555 1_555
C31 O27 1_555 1_555
H68 C31 1_555 1_555
C32 C31 1_555 1_555
H69 C32 1_555 1_555
C33 O30 1_555 1_555
H70 C33 1_555 1_555
C34 O31 1_555 1_555
H71 C34 1_555 1_555
C35 O28 1_555 1_555
H72 C35 1_555 1_555
Rb8 O19 1_555 1_555
Rb7 O136 1_555 1_555
Rb14 O98 1_555 1_555
O64 H117 1_555 1_555
O65 H118 1_555 1_555
O72 H123 1_555 1_555
O76 C82 1_555 1_555
O77 H126 1_555 1_555
O78 C85 1_555 1_555
O80 H128 1_555 1_555
O81 C88 1_555 1_555
O82 H129 1_555 1_555
O87 C94 1_555 1_555
O90 C97 1_555 1_555
O91 Rb12 1_555 1_555
H132 O91 1_555 1_555
O94 Rb12 1_555 1_555
H135 O94 1_555 1_555
O97 C100 1_555 1_555
O98 C103 1_555 1_555
O104 Rb14 1_555 1_555
H139 O104 1_555 1_555
O108 H142 1_555 1_555
O109 H143 1_555 1_555
O110 C112 1_555 1_555
H144 O111 1_555 1_555
O112 C115 1_555 1_555
O113 C116 1_555 1_555
H145 O116 1_555 1_555
O119 C109 1_555 1_555
O120 Rb4 1_555 1_555
O122 H149 1_555 1_555
O123 C115 1_555 1_555
O124 Rb4 1_555 1_555
H150 O124 1_555 1_555
O125 C127 1_555 1_555
O126 Rb3_2 1_555 1_555
H151 O126 1_555 1_555
O127 Rb3_2 1_555 1_555
H152 O127 1_555 1_555
O128 C121 1_555 1_555
O129 H153 1_555 1_555
O130 C133 1_555 1_555
O131 H154 1_555 1_555
O132 H155 1_555 1_555
O133 C127 1_555 1_555
O134 C138 1_555 1_555
O135 C139 1_555 1_555
O136 H156 1_555 1_555
O138 Rb4 1_555 1_555
H158 O138 1_555 1_555
O139 Rb7 1_555 1_555
O141 Rb4 1_555 1_555
H159 O139 1_555 1_555
H161 O141 1_555 1_555
O142 C133 1_555 1_555
O143 H162 1_555 1_555
O145 Rb4 1_555 1_555
C77 O66 1_555 1_555
H167 C77 1_555 1_555
C78 O72 1_555 1_555
H168 C78 1_555 1_555
H169 C78 1_555 1_555
H173 C82 1_555 1_555
C83 O73 1_555 1_555
H174 C83 1_555 1_555
C84 O77 1_555 1_555
H175 C84 1_555 1_555
H176 C84 1_555 1_555
C85 O76 1_555 1_555
H177 C85 1_555 1_555
H178 C86 1_555 1_555
C87 O80 1_555 1_555
H179 C87 1_555 1_555
C88 C87 1_555 1_555
H180 C88 1_555 1_555
C89 O78 1_555 1_555
H181 C89 1_555 1_555
C90 O82 1_555 1_555
H182 C90 1_555 1_555
H183 C90 1_555 1_555
C91 O81 1_555 1_555
H184 C91 1_555 1_555
H186 C93 1_555 1_555
C94 C93 1_555 1_555
H187 C94 1_555 1_555
C95 O83 1_555 1_555
H188 C95 1_555 1_555
C96 O88 1_555 1_555
H189 C96 1_555 1_555
H190 C96 1_555 1_555
C97 O87 1_555 1_555
H191 C97 1_555 1_555
C98 O91 1_555 1_555
H192 C98 1_555 1_555
C99 O94 1_555 1_555
H193 C99 1_555 1_555
C100 C99 1_555 1_555
H194 C100 1_555 1_555
C101 O90 1_555 1_555
H195 C101 1_555 1_555
C102 O64 1_555 1_555
H196 C102 1_555 1_555
H197 C102 1_555 1_555
C103 O97 1_555 1_555
H198 C103 1_555 1_555
C107 O98 1_555 1_555
H202 C107 1_555 1_555
C108 O104 1_555 1_555
H203 C108 1_555 1_555
H204 C108 1_555 1_555
C109 O107 1_555 1_555
H205 C109 1_555 1_555
C110 O108 1_555 1_555
H206 C110 1_555 1_555
C111 O109 1_555 1_555
H207 C111 1_555 1_555
C112 C111 1_555 1_555
H208 C112 1_555 1_555
C113 O107 1_555 1_555
H209 C113 1_555 1_555
C114 O111 1_555 1_555
H210 C114 1_555 1_555
H211 C114 1_555 1_555
C115 H212 1_555 1_555
C116 C115 1_555 1_555
H213 C116 1_555 1_555
C117 O116 1_555 1_555
H214 C117 1_555 1_555
C118 O119 1_555 1_555
H215 C118 1_555 1_555
C119 O112 1_555 1_555
H216 C119 1_555 1_555
C120 O65 1_555 1_555
H217 C120 1_555 1_555
H218 C120 1_555 1_555
C121 O120 1_555 1_555
H219 C121 1_555 1_555
C123 O122 1_555 1_555
H221 C123 1_555 1_555
C124 O123 1_555 1_555
H222 C124 1_555 1_555
C125 O120 1_555 1_555
H223 C125 1_555 1_555
C126 O124 1_555 1_555
H224 C126 1_555 1_555
H225 C126 1_555 1_555
C127 H226 1_555 1_555
C128 O126 1_555 1_555
H227 C128 1_555 1_555
C129 O127 1_555 1_555
H228 C129 1_555 1_555
C130 O128 1_555 1_555
H229 C130 1_555 1_555
C131 O125 1_555 1_555
H230 C131 1_555 1_555
C132 O129 1_555 1_555
H231 C132 1_555 1_555
H232 C132 1_555 1_555
C133 H233 1_555 1_555
C134 O131 1_555 1_555
H234 C134 1_555 1_555
C135 O132 1_555 1_555
H235 C135 1_555 1_555
C136 O133 1_555 1_555
H236 C136 1_555 1_555
C137 O130 1_555 1_555
H237 C137 1_555 1_555
C138 C137 1_555 1_555
H238 C138 1_555 1_555
H239 C138 1_555 1_555
C139 O110 1_555 1_555
H240 C139 1_555 1_555
C140 O136 1_555 1_555
H241 C140 1_555 1_555
C141 O139 1_555 1_555
H242 C141 1_555 1_555
C142 O142 1_555 1_555
H243 C142 1_555 1_555
C143 O135 1_555 1_555
H244 C143 1_555 1_555
C144 O143 1_555 1_555
H245 C144 1_555 1_555
H246 C144 1_555 1_555
O23 Rb8 1_555 1_555
C7 C8 1_555 1_555
C8 C9 1_555 1_555
C10 C11 1_555 1_555
C11 C12 1_555 1_555
C13 C14 1_555 1_555
C14 C15 1_555 1_555
C16 C17 1_555 1_555
C17 C18 1_555 1_555
C19 C20 1_555 1_555
C20 C21 1_555 1_555
C22 C23 1_555 1_555
C25 C26 1_555 1_555
C26 C27 1_555 1_555
C28 C29 1_555 1_555
C29 C30 1_555 1_555
C32 C33 1_555 1_555
C33 C34 1_555 1_555
C34 C35 1_555 1_555
O83 C91 1_555 1_555
C77 C78 1_555 1_555
C82 C83 1_555 1_555
C83 C84 1_555 1_555
C85 C86 1_555 1_555
C86 C87 1_555 1_555
C88 C89 1_555 1_555
C89 C90 1_555 1_555
C91 C92 1_555 1_555
C92 C93 1_555 1_555
C94 C95 1_555 1_555
C95 C96 1_555 1_555
C97 C98 1_555 1_555
C98 C99 1_555 1_555
C100 C101 1_555 1_555
C101 C102 1_555 1_555
C107 C108 1_555 1_555
C109 C110 1_555 1_555
C110 C111 1_555 1_555
C112 C113 1_555 1_555
C113 C114 1_555 1_555
C116 C117 1_555 1_555
C117 C118 1_555 1_555
C118 C119 1_555 1_555
C119 C120 1_555 1_555
C121 C122 1_555 1_555
C122 C123 1_555 1_555
C123 C124 1_555 1_555
C124 C125 1_555 1_555
C125 C126 1_555 1_555
C127 C128 1_555 1_555
C128 C129 1_555 1_555
C129 C130 1_555 1_555
C130 C131 1_555 1_555
C131 C132 1_555 1_555
C133 C134 1_555 1_555
C134 C135 1_555 1_555
C135 C136 1_555 1_555
C136 C137 1_555 1_555
C139 C140 1_555 1_555
C140 C141 1_555 1_555
C141 C142 1_555 1_555
C142 C143 1_555 1_555
C143 C144 1_555 1_555
O29 H248 1_555 1_555
O62 H251 1_555 1_555
O62 H252 1_555 1_555
O134 H263 1_555 1_555
O138 H266 1_555 1_555
O141 H267 1_555 1_555
O145 H270 1_555 1_555
O145 H271 1_555 1_555
Rb1_2 O5_2 1_555 1_555
Rb3_3 O48_2 1_555 1_555
O2_2 H1_2 1_555 1_555
O3_2 H2_2 1_555 1_555
O4_2 C1_2 1_555 1_555
O5_2 H3_2 1_555 1_555
O6_2 Rb1_2 1_555 1_555
H4_2 O6_2 1_555 1_555
O7_2 C4_2 1_555 1_555
O8_2 H5_2 1_555 1_555
O9_2 C7_2 1_555 1_555
O10_2 H6_2 1_555 1_555
O11_2 H7_2 1_555 1_555
O12_2 C10_2 1_555 1_555
O13_2 H8_2 1_555 1_555
O14_2 C13_2 1_555 1_555
O15_2 H9_2 1_555 1_555
O16_2 H10_2 1_555 1_555
O17_2 C16_2 1_555 1_555
O18_2 H11_2 1_555 1_555
O19_2 C19_2 1_555 1_555
O20_2 H12_2 1_555 1_555
O21_2 H13_2 1_555 1_555
O22_2 C22_2 1_555 1_555
O23_2 C24_2 1_555 1_555
O24_2 C25_2 1_555 1_555
O25 H14 1_555 1_555
O26 H15 1_555 1_555
O27_2 C28_2 1_555 1_555
O28_2 C31_2 1_555 1_555
O29_2 C32_2 1_555 1_555
O30_2 H16_2 1_555 1_555
O31_2 C1_2 1_555 1_555
O32_2 H17_2 1_555 1_555
O33_2 C37_2 1_555 1_555
O34_2 H18_2 1_555 1_555
O35_2 H19_2 1_555 1_555
O36_2 C40_2 1_555 1_555
H20_2 O37_2 1_555 1_555
O38_2 C43_2 1_555 1_555
O39_2 C44_2 1_555 1_555
O40_2 H21_2 1_555 1_555
O41_2 C37_2 1_555 1_555
O42_2 Rb1_2 1_555 1_555
O43_2 H22_2 1_555 1_555
O44_2 H23_2 1_555 1_555
O45_2 C43_2 1_555 1_555
O46_2 Rb1_2 1_555 1_555
H24_2 O46_2 1_555 1_555
O47_2 C55_2 1_555 1_555
O48_2 H25_2 1_555 1_555
O49_2 Rb3_3 1_555 1_555
H26_2 O49_2 1_555 1_555
O50_2 C49_2 1_555 1_555
O51_2 H27_2 1_555 1_555
O52_2 C61_2 1_555 1_555
O53_2 H28_2 1_555 1_555
O54_2 H29_2 1_555 1_555
O55_2 C55_2 1_555 1_555
O56_2 C66_2 1_555 1_555
O57_2 C67_2 1_555 1_555
O58_2 H30_2 1_555 1_555
O59_2 H31_2 1_555 1_555
O60_2 C61_2 1_555 1_555
O61_2 H32_2 1_555 1_555
O62_2 Rb1_2 1_555 1_555
O63_2 Rb1_2 1_555 1_555
C1_2 H33_2 1_555 1_555
C2_2 O5_2 1_555 1_555
H34_2 C2_2 1_555 1_555
C3_2 O6_2 1_555 1_555
H35_2 C3_2 1_555 1_555
C4_2 C3_2 1_555 1_555
H36_2 C4_2 1_555 1_555
C5_2 O4_2 1_555 1_555
H37_2 C5_2 1_555 1_555
C6_2 O8_2 1_555 1_555
H38_2 C6_2 1_555 1_555
H39_2 C6_2 1_555 1_555
C7_2 O7_2 1_555 1_555
H40_2 C7_2 1_555 1_555
C8_2 O10_2 1_555 1_555
H41_2 C8_2 1_555 1_555
C9_2 O11_2 1_555 1_555
H42_2 C9_2 1_555 1_555
C10_2 C9_2 1_555 1_555
H43_2 C10_2 1_555 1_555
C11_2 O9_2 1_555 1_555
H44_2 C11_2 1_555 1_555
C12_2 O13_2 1_555 1_555
H45_2 C12_2 1_555 1_555
H46_2 C12_2 1_555 1_555
C13_2 O12_2 1_555 1_555
H47_2 C13_2 1_555 1_555
C14_2 O15_2 1_555 1_555
H48_2 C14_2 1_555 1_555
C15_2 O16_2 1_555 1_555
H49_2 C15_2 1_555 1_555
C16_2 C15_2 1_555 1_555
H50_2 C16_2 1_555 1_555
C17_2 O14_2 1_555 1_555
H51_2 C17_2 1_555 1_555
C18_2 O18_2 1_555 1_555
H52_2 C18_2 1_555 1_555
H53_2 C18_2 1_555 1_555
C19_2 O17_2 1_555 1_555
H54_2 C19_2 1_555 1_555
C20_2 O20_2 1_555 1_555
H55_2 C20_2 1_555 1_555
C21_2 O21_2 1_555 1_555
H56_2 C21_2 1_555 1_555
C22_2 C21_2 1_555 1_555
H57_2 C22_2 1_555 1_555
C23_2 O19_2 1_555 1_555
H58_2 C23_2 1_555 1_555
C24_2 C23_2 1_555 1_555
H59_2 C24_2 1_555 1_555
H60_2 C24_2 1_555 1_555
C25_2 O22_2 1_555 1_555
H61_2 C25_2 1_555 1_555
C26_2 O25 1_555 1_555
H62_2 C26_2 1_555 1_555
C27_2 O26 1_555 1_555
H63_2 C27_2 1_555 1_555
C28_2 C27_2 1_555 1_555
H64_2 C28_2 1_555 1_555
C29_2 O24_2 1_555 1_555
H65_2 C29_2 1_555 1_555
C30_2 O2_2 1_555 1_555
H66_2 C30_2 1_555 1_555
H67_2 C30_2 1_555 1_555
C31_2 O27_2 1_555 1_555
H68_2 C31_2 1_555 1_555
C32_2 C31_2 1_555 1_555
H69_2 C32_2 1_555 1_555
C33_2 O30_2 1_555 1_555
H70_2 C33_2 1_555 1_555
C34_2 O31_2 1_555 1_555
H71_2 C34_2 1_555 1_555
C35_2 O28_2 1_555 1_555
H72_2 C35_2 1_555 1_555
C36_2 O32_2 1_555 1_555
H73_2 C36_2 1_555 1_555
H74_2 C36_2 1_555 1_555
C37_2 H75_2 1_555 1_555
C38_2 O34_2 1_555 1_555
H76_2 C38_2 1_555 1_555
C39_2 O35_2 1_555 1_555
H77_2 C39_2 1_555 1_555
C40_2 C39_2 1_555 1_555
H78_2 C40_2 1_555 1_555
C41_2 O33_2 1_555 1_555
H79_2 C41_2 1_555 1_555
C42_2 O37_2 1_555 1_555
H80_2 C42_2 1_555 1_555
H81_2 C42_2 1_555 1_555
C43_2 H82_2 1_555 1_555
C44_2 C43_2 1_555 1_555
H83_2 C44_2 1_555 1_555
C45_2 O40_2 1_555 1_555
H84_2 C45_2 1_555 1_555
C46_2 O41_2 1_555 1_555
H85_2 C46_2 1_555 1_555
C47_2 O38_2 1_555 1_555
H86_2 C47_2 1_555 1_555
C48_2 O3_2 1_555 1_555
H87_2 C48_2 1_555 1_555
H88_2 C48_2 1_555 1_555
C49_2 O42_2 1_555 1_555
H89_2 C49_2 1_555 1_555
C50_2 O43_2 1_555 1_555
H90_2 C50_2 1_555 1_555
C51_2 O44_2 1_555 1_555
H91_2 C51_2 1_555 1_555
C52_2 O45_2 1_555 1_555
H92_2 C52_2 1_555 1_555
C53_2 O42_2 1_555 1_555
H93_2 C53_2 1_555 1_555
C54_2 O46_2 1_555 1_555
H94_2 C54_2 1_555 1_555
H95_2 C54_2 1_555 1_555
C55_2 H96_2 1_555 1_555
C56_2 O48_2 1_555 1_555
H97_2 C56_2 1_555 1_555
C57_2 O49_2 1_555 1_555
H98_2 C57_2 1_555 1_555
C58_2 O50_2 1_555 1_555
H99_2 C58_2 1_555 1_555
C59_2 O47_2 1_555 1_555
H100_2 C59_2 1_555 1_555
C60_2 O51_2 1_555 1_555
H101_2 C60_2 1_555 1_555
H102_2 C60_2 1_555 1_555
C61_2 H103_2 1_555 1_555
C62_2 O53_2 1_555 1_555
H104_2 C62_2 1_555 1_555
C63_2 O54_2 1_555 1_555
H105_2 C63_2 1_555 1_555
C64_2 O55_2 1_555 1_555
H106_2 C64_2 1_555 1_555
C65_2 O52_2 1_555 1_555
H107_2 C65_2 1_555 1_555
C66_2 C65_2 1_555 1_555
H108_2 C66_2 1_555 1_555
H109_2 C66_2 1_555 1_555
C67_2 O36_2 1_555 1_555
H110_2 C67_2 1_555 1_555
C68_2 O58_2 1_555 1_555
H111_2 C68_2 1_555 1_555
C69_2 O59_2 1_555 1_555
H112_2 C69_2 1_555 1_555
C70_2 O60_2 1_555 1_555
H113_2 C70_2 1_555 1_555
C71_2 O57_2 1_555 1_555
H114_2 C71_2 1_555 1_555
C72_2 O61_2 1_555 1_555
H115_2 C72_2 1_555 1_555
H116_2 C72_2 1_555 1_555
Rb4_2 O68_2 1_555 1_555
Rb6 O19_2 1_555 1_555
Rb8 O58_2 1_555 1_555
Rb7_2 O136_2 1_555 1_555
Rb10 O25 1_555 1_555
Rb12_2 O39_2 1_555 1_555
Rb11 O113_2 1_555 1_555
O64_2 H117_2 1_555 1_555
O65_2 H118_2 1_555 1_555
O68_2 H120_2 1_555 1_555
O70_2 Rb4_2 1_555 1_555
H122_2 O70_2 1_555 1_555
O72_2 H123_2 1_555 1_555
O76_2 C82_2 1_555 1_555
O77_2 H126_2 1_555 1_555
O78_2 C85_2 1_555 1_555
O80_2 H128_2 1_555 1_555
O81_2 C88_2 1_555 1_555
O82_2 H129_2 1_555 1_555
O83_2 Rb1_2 1_555 1_555
O84_2 Rb4_2 1_555 1_555
O85_2 H130_2 1_555 1_555
O86_2 H131_2 1_555 1_555
O87_2 C94_2 1_555 1_555
O88_2 Rb1_2 1_555 1_555
O89_2 Rb4_2 1_555 1_555
O90_2 C97_2 1_555 1_555
O91_2 Rb12_2 1_555 1_555
H132_2 O91_2 1_555 1_555
O94_2 Rb12_2 1_555 1_555
H135_2 O94_2 1_555 1_555
O97_2 C100_2 1_555 1_555
O99 C103_2 1_555 1_555
O108_2 H142_2 1_555 1_555
O109_2 H143_2 1_555 1_555
O110_2 C112_2 1_555 1_555
H144_2 O111_2 1_555 1_555
O112_2 C115_2 1_555 1_555
O113_2 C116_2 1_555 1_555
O116_2 Rb11 1_555 1_555
H145_2 O116_2 1_555 1_555
O119_2 C109_2 1_555 1_555
O120_2 Rb4_2 1_555 1_555
O121_2 H148_2 1_555 1_555
O122_2 H149_2 1_555 1_555
O123_2 C115_2 1_555 1_555
O124_2 Rb4_2 1_555 1_555
H150_2 O124_2 1_555 1_555
O125_2 C127_2 1_555 1_555
O126_2 Rb3_3 1_555 1_555
H151_2 O126_2 1_555 1_555
O127_2 Rb3_3 1_555 1_555
H152_2 O127_2 1_555 1_555
O128_2 C121_2 1_555 1_555
O129_2 H153_2 1_555 1_555
O130_2 C133_2 1_555 1_555
O131_2 H154_2 1_555 1_555
O132_2 H155_2 1_555 1_555
O133_2 C127_2 1_555 1_555
O134_2 C138_2 1_555 1_555
O135_2 C139_2 1_555 1_555
O136_2 H156_2 1_555 1_555
O137_2 Rb1_2 1_555 1_555
O138_2 Rb4_2 1_555 1_555
H157_2 O137_2 1_555 1_555
H158_2 O138_2 1_555 1_555
O139_2 Rb7_2 1_555 1_555
O140_2 Rb1_2 1_555 1_555
O141_2 Rb4_2 1_555 1_555
H159_2 O139_2 1_555 1_555
H160_2 O140_2 1_555 1_555
H161_2 O141_2 1_555 1_555
O142_2 C133_2 1_555 1_555
O143_2 H162_2 1_555 1_555
O144_2 Rb4_2 1_555 1_555
O145_2 Rb4_2 1_555 1_555
C77_2 O66_2 1_555 1_555
H167_2 C77_2 1_555 1_555
C78_2 O72_2 1_555 1_555
H168_2 C78_2 1_555 1_555
H169_2 C78_2 1_555 1_555
H173_2 C82_2 1_555 1_555
C83_2 O73_2 1_555 1_555
H174_2 C83_2 1_555 1_555
C84_2 O77_2 1_555 1_555
H175_2 C84_2 1_555 1_555
H176_2 C84_2 1_555 1_555
C85_2 O76_2 1_555 1_555
H177_2 C85_2 1_555 1_555
H178_2 C86_2 1_555 1_555
C87_2 O80_2 1_555 1_555
H179_2 C87_2 1_555 1_555
C88_2 C87_2 1_555 1_555
H180_2 C88_2 1_555 1_555
C89_2 O78_2 1_555 1_555
H181_2 C89_2 1_555 1_555
C90_2 O82_2 1_555 1_555
H182_2 C90_2 1_555 1_555
H183_2 C90_2 1_555 1_555
C91_2 O81_2 1_555 1_555
H184_2 C91_2 1_555 1_555
C92_2 O85_2 1_555 1_555
H185_2 C92_2 1_555 1_555
C93_2 O86_2 1_555 1_555
H186_2 C93_2 1_555 1_555
C94_2 C93_2 1_555 1_555
H187_2 C94_2 1_555 1_555
C95_2 O83_2 1_555 1_555
H188_2 C95_2 1_555 1_555
C96_2 O88_2 1_555 1_555
H189_2 C96_2 1_555 1_555
H190_2 C96_2 1_555 1_555
C97_2 O87_2 1_555 1_555
H191_2 C97_2 1_555 1_555
C98_2 O91_2 1_555 1_555
H192_2 C98_2 1_555 1_555
C99_2 O94_2 1_555 1_555
H193_2 C99_2 1_555 1_555
C100_2 C99_2 1_555 1_555
H194_2 C100_2 1_555 1_555
C101_2 O90_2 1_555 1_555
H195_2 C101_2 1_555 1_555
C102_2 O64_2 1_555 1_555
H196_2 C102_2 1_555 1_555
H197_2 C102_2 1_555 1_555
C103_2 O97_2 1_555 1_555
H198_2 C103_2 1_555 1_555
C107_2 O99 1_555 1_555
H202_2 C107_2 1_555 1_555
C108_2 O105 1_555 1_555
H203_2 C108_2 1_555 1_555
H204_2 C108_2 1_555 1_555
C109_2 O107_2 1_555 1_555
H205_2 C109_2 1_555 1_555
C110_2 O108_2 1_555 1_555
H206_2 C110_2 1_555 1_555
C111_2 O109_2 1_555 1_555
H207_2 C111_2 1_555 1_555
C112_2 C111_2 1_555 1_555
H208_2 C112_2 1_555 1_555
C113_2 O107_2 1_555 1_555
H209_2 C113_2 1_555 1_555
C114_2 O111_2 1_555 1_555
H210_2 C114_2 1_555 1_555
H211_2 C114_2 1_555 1_555
C115_2 H212_2 1_555 1_555
C116_2 C115_2 1_555 1_555
H213_2 C116_2 1_555 1_555
C117_2 O116_2 1_555 1_555
H214_2 C117_2 1_555 1_555
C118_2 O119_2 1_555 1_555
H215_2 C118_2 1_555 1_555
C119_2 O112_2 1_555 1_555
H216_2 C119_2 1_555 1_555
C120_2 O65_2 1_555 1_555
H217_2 C120_2 1_555 1_555
H218_2 C120_2 1_555 1_555
C121_2 O120_2 1_555 1_555
H219_2 C121_2 1_555 1_555
C122_2 O121_2 1_555 1_555
H220_2 C122_2 1_555 1_555
C123_2 O122_2 1_555 1_555
H221_2 C123_2 1_555 1_555
C124_2 O123_2 1_555 1_555
H222_2 C124_2 1_555 1_555
C125_2 O120_2 1_555 1_555
H223_2 C125_2 1_555 1_555
C126_2 O124_2 1_555 1_555
H224_2 C126_2 1_555 1_555
H225_2 C126_2 1_555 1_555
C127_2 H226_2 1_555 1_555
C128_2 O126_2 1_555 1_555
H227_2 C128_2 1_555 1_555
C129_2 O127_2 1_555 1_555
H228_2 C129_2 1_555 1_555
C130_2 O128_2 1_555 1_555
H229_2 C130_2 1_555 1_555
C131_2 O125_2 1_555 1_555
H230_2 C131_2 1_555 1_555
C132_2 O129_2 1_555 1_555
H231_2 C132_2 1_555 1_555
H232_2 C132_2 1_555 1_555
C133_2 H233_2 1_555 1_555
C134_2 O131_2 1_555 1_555
H234_2 C134_2 1_555 1_555
C135_2 O132_2 1_555 1_555
H235_2 C135_2 1_555 1_555
C136_2 O133_2 1_555 1_555
H236_2 C136_2 1_555 1_555
C137_2 O130_2 1_555 1_555
H237_2 C137_2 1_555 1_555
C138_2 C137_2 1_555 1_555
H238_2 C138_2 1_555 1_555
H239_2 C138_2 1_555 1_555
C139_2 O110_2 1_555 1_555
H240_2 C139_2 1_555 1_555
C140_2 O136_2 1_555 1_555
H241_2 C140_2 1_555 1_555
C141_2 O139_2 1_555 1_555
H242_2 C141_2 1_555 1_555
C142_2 O142_2 1_555 1_555
H243_2 C142_2 1_555 1_555
C143_2 O135_2 1_555 1_555
H244_2 C143_2 1_555 1_555
C144_2 O143_2 1_555 1_555
H245_2 C144_2 1_555 1_555
H246_2 C144_2 1_555 1_555
O23_2 Rb6 1_555 1_555
O26 Rb10 1_555 1_555
O40_2 Rb12_2 1_555 1_555
O59_2 Rb8 1_555 1_555
C1_2 C2_2 1_555 1_555
C2_2 C3_2 1_555 1_555
C4_2 C5_2 1_555 1_555
C5_2 C6_2 1_555 1_555
C7_2 C8_2 1_555 1_555
C8_2 C9_2 1_555 1_555
C10_2 C11_2 1_555 1_555
C11_2 C12_2 1_555 1_555
C13_2 C14_2 1_555 1_555
C14_2 C15_2 1_555 1_555
C16_2 C17_2 1_555 1_555
C17_2 C18_2 1_555 1_555
C19_2 C20_2 1_555 1_555
C20_2 C21_2 1_555 1_555
C22_2 C23_2 1_555 1_555
C25_2 C26_2 1_555 1_555
C26_2 C27_2 1_555 1_555
C28_2 C29_2 1_555 1_555
C29_2 C30_2 1_555 1_555
C32_2 C33_2 1_555 1_555
C33_2 C34_2 1_555 1_555
C34_2 C35_2 1_555 1_555
C35_2 C36_2 1_555 1_555
C37_2 C38_2 1_555 1_555
C38_2 C39_2 1_555 1_555
C40_2 C41_2 1_555 1_555
C41_2 C42_2 1_555 1_555
C44_2 C45_2 1_555 1_555
C45_2 C46_2 1_555 1_555
C46_2 C47_2 1_555 1_555
C47_2 C48_2 1_555 1_555
C49_2 C50_2 1_555 1_555
C50_2 C51_2 1_555 1_555
C51_2 C52_2 1_555 1_555
C52_2 C53_2 1_555 1_555
C53_2 C54_2 1_555 1_555
C55_2 C56_2 1_555 1_555
C56_2 C57_2 1_555 1_555
C57_2 C58_2 1_555 1_555
C58_2 C59_2 1_555 1_555
C59_2 C60_2 1_555 1_555
C61_2 C62_2 1_555 1_555
C62_2 C63_2 1_555 1_555
C63_2 C64_2 1_555 1_555
C64_2 C65_2 1_555 1_555
C67_2 C68_2 1_555 1_555
C68_2 C69_2 1_555 1_555
C69_2 C70_2 1_555 1_555
C70_2 C71_2 1_555 1_555
C71_2 C72_2 1_555 1_555
O83_2 C91_2 1_555 1_555
C77_2 C78_2 1_555 1_555
C82_2 C83_2 1_555 1_555
C83_2 C84_2 1_555 1_555
C85_2 C86_2 1_555 1_555
C86_2 C87_2 1_555 1_555
C88_2 C89_2 1_555 1_555
C89_2 C90_2 1_555 1_555
C91_2 C92_2 1_555 1_555
C92_2 C93_2 1_555 1_555
C94_2 C95_2 1_555 1_555
C95_2 C96_2 1_555 1_555
C97_2 C98_2 1_555 1_555
C98_2 C99_2 1_555 1_555
C100_2 C101_2 1_555 1_555
C101_2 C102_2 1_555 1_555
C107_2 C108_2 1_555 1_555
C109_2 C110_2 1_555 1_555
C110_2 C111_2 1_555 1_555
C112_2 C113_2 1_555 1_555
C113_2 C114_2 1_555 1_555
C116_2 C117_2 1_555 1_555
C117_2 C118_2 1_555 1_555
C118_2 C119_2 1_555 1_555
C119_2 C120_2 1_555 1_555
C121_2 C122_2 1_555 1_555
C122_2 C123_2 1_555 1_555
C123_2 C124_2 1_555 1_555
C124_2 C125_2 1_555 1_555
C125_2 C126_2 1_555 1_555
C127_2 C128_2 1_555 1_555
C128_2 C129_2 1_555 1_555
C129_2 C130_2 1_555 1_555
C130_2 C131_2 1_555 1_555
C131_2 C132_2 1_555 1_555
C133_2 C134_2 1_555 1_555
C134_2 C135_2 1_555 1_555
C135_2 C136_2 1_555 1_555
C136_2 C137_2 1_555 1_555
C139_2 C140_2 1_555 1_555
C140_2 C141_2 1_555 1_555
C141_2 C142_2 1_555 1_555
C142_2 C143_2 1_555 1_555
C143_2 C144_2 1_555 1_555
O29_2 H248_2 1_555 1_555
O63_2 H249_2 1_555 1_555
O63_2 H250_2 1_555 1_555
O62_2 H251_2 1_555 1_555
O62_2 H252_2 1_555 1_555
O56_2 H253_2 1_555 1_555
O70_2 H254_2 1_555 1_555
O68_2 H255_2 1_555 1_555
O134_2 H263_2 1_555 1_555
O137_2 H265_2 1_555 1_555
O138_2 H266_2 1_555 1_555
O141_2 H267_2 1_555 1_555
O140_2 H268_2 1_555 1_555
O145_2 H270_2 1_555 1_555
O145_2 H271_2 1_555 1_555
O144_2 H272_2 1_555 1_555
O144_2 H273_2 1_555 1_555
Rb6 O67_2 1_555 1_555
O67_2 H119_2 1_555 1_555
O69_2 Rb6 1_555 1_555
H121_2 O69_2 1_555 1_555
O71_2 C76_2 1_555 1_555
O74_2 H124_2 1_555 1_555
O75_2 H125_2 1_555 1_555
O79_2 H127_2 1_555 1_555
O92_2 Rb14 1_555 1_555
H133_2 O92_2 1_555 1_555
O95_2 Rb14 1_555 1_555
H136_2 O95_2 1_555 1_555
O101_2 C104_2 1_555 1_555
O102_2 H138_2 1_555 1_555
O103_2 C73_2 1_555 1_555
O114_2 Rb14 1_555 1_555
O117_2 Rb14 1_555 1_555
H146_2 O117_2 1_555 1_555
C73_2 H163_2 1_555 1_555
C74_2 O67_2 1_555 1_555
H164_2 C74_2 1_555 1_555
C75_2 O69_2 1_555 1_555
H165_2 C75_2 1_555 1_555
C76_2 C75_2 1_555 1_555
H166_2 C76_2 1_555 1_555
C79_2 O71_2 1_555 1_555
H170_2 C79_2 1_555 1_555
C80_2 O74_2 1_555 1_555
H171_2 C80_2 1_555 1_555
C81_2 O75_2 1_555 1_555
H172_2 C81_2 1_555 1_555
H199_2 C104_2 1_555 1_555
C105_2 O102_2 1_555 1_555
H200_2 C105_2 1_555 1_555
C106_2 O103_2 1_555 1_555
H201_2 C106_2 1_555 1_555
C73_2 C74_2 1_555 1_555
C74_2 C75_2 1_555 1_555
C79_2 C80_2 1_555 1_555
C80_2 C81_2 1_555 1_555
C104_2 C105_2 1_555 1_555
C105_2 C106_2 1_555 1_555
O92_2 H256_2 1_555 1_555
O95_2 H258_2 1_555 1_555
O101_2 H260_2 1_555 1_555
O104 H262_2 1_555 1_555
O117_2 H269_2 1_555 1_555
O100_2 Rb10 1_555 1_555
O106_2 Rb10 1_555 1_555
H141_2 O106_2 1_555 1_555
O115_2 Rb10 1_555 1_555
O118_2 Rb10 1_555 1_555
H147_2 O118_2 1_555 1_555
O25 H257_2 1_555 1_555
O26 H259_2 1_555 1_555
O106_2 H261_2 1_555 1_555
O118_2 H264_2 1_555 1_555
Rb11 O93_2 1_555 1_555
O65_3 H118_3 1_555 1_555
O93_2 H134_2 1_555 1_555
O96_2 Rb11 1_555 1_555
H137_2 O96_2 1_555 1_555
O107_3 Rb11 1_555 1_555
O111_3 Rb11 1_555 1_555
H144_3 O111_3 1_555 1_555
O112_3 C115_3 1_555 1_555
O115 C116_3 1_555 1_555
O119_3 C109_3 1_555 1_555
O120_3 Rb8 1_555 1_555
O121_3 H148_3 1_555 1_555
O122_3 H149_3 1_555 1_555
O123_3 C115_3 1_555 1_555
O124_3 Rb8 1_555 1_555
H150_3 O124_3 1_555 1_555
H152_3 O127_3 1_555 1_555
O128_3 C121_3 1_555 1_555
O129_3 H153_3 1_555 1_555
O143_3 H162_3 1_555 1_555
O144_3 Rb8 1_555 1_555
O145_3 Rb8 1_555 1_555
C109_3 O107_3 1_555 1_555
H205_3 C109_3 1_555 1_555
C113_3 O107_3 1_555 1_555
H209_3 C113_3 1_555 1_555
C114_3 O111_3 1_555 1_555
H210_3 C114_3 1_555 1_555
H211_3 C114_3 1_555 1_555
C115_3 H212_3 1_555 1_555
C116_3 C115_3 1_555 1_555
H213_3 C116_3 1_555 1_555
C117_3 O118 1_555 1_555
H214_3 C117_3 1_555 1_555
C118_3 O119_3 1_555 1_555
H215_3 C118_3 1_555 1_555
C119_3 O112_3 1_555 1_555
H216_3 C119_3 1_555 1_555
C120_3 O65_3 1_555 1_555
H217_3 C120_3 1_555 1_555
H218_3 C120_3 1_555 1_555
C121_3 O120_3 1_555 1_555
H219_3 C121_3 1_555 1_555
C122_3 O121_3 1_555 1_555
H220_3 C122_3 1_555 1_555
C123_3 O122_3 1_555 1_555
H221_3 C123_3 1_555 1_555
C124_3 O123_3 1_555 1_555
H222_3 C124_3 1_555 1_555
C125_3 O120_3 1_555 1_555
H223_3 C125_3 1_555 1_555
C126_3 O124_3 1_555 1_555
H224_3 C126_3 1_555 1_555
H225_3 C126_3 1_555 1_555
C129_3 O127_3 1_555 1_555
H228_3 C129_3 1_555 1_555
C130_3 O128_3 1_555 1_555
H229_3 C130_3 1_555 1_555
C131_3 O125_3 1_555 1_555
H230_3 C131_3 1_555 1_555
C132_3 O129_3 1_555 1_555
H231_3 C132_3 1_555 1_555
H232_3 C132_3 1_555 1_555
H238_3 C138_3 1_555 1_555
H239_3 C138_3 1_555 1_555
C144_3 O143_3 1_555 1_555
H245_3 C144_3 1_555 1_555
C113_3 C114_3 1_555 1_555
C116_3 C117_3 1_555 1_555
C117_3 C118_3 1_555 1_555
C118_3 C119_3 1_555 1_555
C119_3 C120_3 1_555 1_555
C121_3 C122_3 1_555 1_555
C122_3 C123_3 1_555 1_555
C123_3 C124_3 1_555 1_555
C124_3 C125_3 1_555 1_555
C125_3 C126_3 1_555 1_555
C129_3 C130_3 1_555 1_555
C130_3 C131_3 1_555 1_555
C131_3 C132_3 1_555 1_555
O69 H254_3 1_555 1_555
O67 H255_3 1_555 1_555
O93_2 H257_3 1_555 1_555
O96_2 H259_3 1_555 1_555
O116_2 H264_3 1_555 1_555
O58_2 H266_3 1_555 1_555
O59_2 H267_3 1_555 1_555
O145_3 H270_3 1_555 1_555
O145_3 H271_3 1_555 1_555
O144_3 H272_3 1_555 1_555
O144_3 H273_3 1_555 1_555
O2_3 H1_3 1_555 1_555
O8_3 H5_3 1_555 1_555
O12_3 C10_3 1_555 1_555
O13_3 H8_3 1_555 1_555
O14_3 C13_3 1_555 1_555
O16_3 H10_3 1_555 1_555
O17_3 C16_3 1_555 1_555
O18_3 H11_3 1_555 1_555
O84_2 C19_3 1_555 1_555
O20_3 H12_3 1_555 1_555
O21_3 H13_3 1_555 1_555
O22_3 C22_3 1_555 1_555
O89_2 C24_3 1_555 1_555
O24_3 C25_3 1_555 1_555
O27_3 C28_3 1_555 1_555
O100 C31_3 1_555 1_555
C5_3 O4_3 1_555 1_555
H37_3 C5_3 1_555 1_555
C6_3 O8_3 1_555 1_555
H38_3 C6_3 1_555 1_555
H39_3 C6_3 1_555 1_555
H43_3 C10_3 1_555 1_555
C11_3 O9_3 1_555 1_555
H44_3 C11_3 1_555 1_555
C12_3 O13_3 1_555 1_555
H45_3 C12_3 1_555 1_555
H46_3 C12_3 1_555 1_555
C13_3 O12_3 1_555 1_555
H47_3 C13_3 1_555 1_555
H48_3 C14_3 1_555 1_555
C15_3 O16_3 1_555 1_555
H49_3 C15_3 1_555 1_555
C16_3 C15_3 1_555 1_555
H50_3 C16_3 1_555 1_555
C17_3 O14_3 1_555 1_555
H51_3 C17_3 1_555 1_555
C18_3 O18_3 1_555 1_555
H52_3 C18_3 1_555 1_555
H53_3 C18_3 1_555 1_555
C19_3 O17_3 1_555 1_555
H54_3 C19_3 1_555 1_555
C20_3 O20_3 1_555 1_555
H55_3 C20_3 1_555 1_555
C21_3 O21_3 1_555 1_555
H56_3 C21_3 1_555 1_555
C22_3 C21_3 1_555 1_555
H57_3 C22_3 1_555 1_555
C23_3 O84_2 1_555 1_555
H58_3 C23_3 1_555 1_555
C24_3 C23_3 1_555 1_555
H59_3 C24_3 1_555 1_555
H60_3 C24_3 1_555 1_555
C25_3 O22_3 1_555 1_555
H61_3 C25_3 1_555 1_555
C26_3 O93_2 1_555 1_555
H62_3 C26_3 1_555 1_555
C27_3 O96_2 1_555 1_555
H63_3 C27_3 1_555 1_555
C28_3 C27_3 1_555 1_555
H64_3 C28_3 1_555 1_555
C29_3 O24_3 1_555 1_555
H65_3 C29_3 1_555 1_555
C30_3 O2_3 1_555 1_555
H66_3 C30_3 1_555 1_555
H67_3 C30_3 1_555 1_555
C31_3 O27_3 1_555 1_555
H68_3 C31_3 1_555 1_555
C35_3 O100 1_555 1_555
H72_3 C35_3 1_555 1_555
C36_3 O106 1_555 1_555
H73_3 C36_3 1_555 1_555
H74_3 C36_3 1_555 1_555
C5_3 C6_3 1_555 1_555
C10_3 C11_3 1_555 1_555
C11_3 C12_3 1_555 1_555
C13_3 C14_3 1_555 1_555
C14_3 C15_3 1_555 1_555
C16_3 C17_3 1_555 1_555
C17_3 C18_3 1_555 1_555
C19_3 C20_3 1_555 1_555
C20_3 C21_3 1_555 1_555
C22_3 C23_3 1_555 1_555
C25_3 C26_3 1_555 1_555
C26_3 C27_3 1_555 1_555
C28_3 C29_3 1_555 1_555
C29_3 C30_3 1_555 1_555
C35_3 C36_3 1_555 1_555
Rb3_4 O48_3 1_555 1_555
O34_3 H18_3 1_555 1_555
O35_3 H19_3 1_555 1_555
O36_3 C40_3 1_555 1_555
O48_3 H25_3 1_555 1_555
O52_3 C61_3 1_555 1_555
O53_3 H28_3 1_555 1_555
O54_3 H29_3 1_555 1_555
O55_3 C55_3 1_555 1_555
O60_3 C61_3 1_555 1_555
C38_3 O34_3 1_555 1_555
H76_3 C38_3 1_555 1_555
C39_3 O35_3 1_555 1_555
H77_3 C39_3 1_555 1_555
C40_3 C39_3 1_555 1_555
H78_3 C40_3 1_555 1_555
C55_3 H96_3 1_555 1_555
C56_3 O48_3 1_555 1_555
H97_3 C56_3 1_555 1_555
C61_3 H103_3 1_555 1_555
C62_3 O53_3 1_555 1_555
H104_3 C62_3 1_555 1_555
C63_3 O54_3 1_555 1_555
H105_3 C63_3 1_555 1_555
C64_3 O55_3 1_555 1_555
H106_3 C64_3 1_555 1_555
C65_3 O52_3 1_555 1_555
C67_3 O36_3 1_555 1_555
C68_3 O138 1_555 1_555
C69_3 O141 1_555 1_555
H112_3 C69_3 1_555 1_555
C70_3 O60_3 1_555 1_555
H114_3 C71_3 1_555 1_555
H140_2 O105_2 1_555 1_555
O108_3 H142_3 1_555 1_555
O109_3 H143_3 1_555 1_555
O110_3 C112_3 1_555 1_555
O126_3 Rb3_4 1_555 1_555
H151_3 O126_3 1_555 1_555
O130_3 C133_3 1_555 1_555
O131_3 H154_3 1_555 1_555
O132_3 H155_3 1_555 1_555
O133_3 C127_3 1_555 1_555
O135_3 C139_3 1_555 1_555
O142_3 C133_3 1_555 1_555
C110_3 O108_3 1_555 1_555
H206_3 C110_3 1_555 1_555
C111_3 O109_3 1_555 1_555
H207_3 C111_3 1_555 1_555
C112_3 C111_3 1_555 1_555
H208_3 C112_3 1_555 1_555
C127_3 H226_3 1_555 1_555
C128_3 O126_3 1_555 1_555
H227_3 C128_3 1_555 1_555
C133_3 H233_3 1_555 1_555
C134_3 O131_3 1_555 1_555
H234_3 C134_3 1_555 1_555
C135_3 O132_3 1_555 1_555
H235_3 C135_3 1_555 1_555
C136_3 O133_3 1_555 1_555
H236_3 C136_3 1_555 1_555
C137_3 O130_3 1_555 1_555
C139_3 O110_3 1_555 1_555
H240_3 C139_3 1_555 1_555
C140_3 O137_2 1_555 1_555
H241_3 C140_3 1_555 1_555
C141_3 O140_2 1_555 1_555
H242_3 C141_3 1_555 1_555
C142_3 O142_3 1_555 1_555
H243_3 C142_3 1_555 1_555
C143_3 O135_3 1_555 1_555
H244_3 C143_3 1_555 1_555
C38_3 C39_3 1_555 1_555
C55_3 C56_3 1_555 1_555
C61_3 C62_3 1_555 1_555
C62_3 C63_3 1_555 1_555
C63_3 C64_3 1_555 1_555
C64_3 C65_3 1_555 1_555
C67_3 C68_3 1_555 1_555
C68_3 C69_3 1_555 1_555
C69_3 C70_3 1_555 1_555
C70_3 C71_3 1_555 1_555
C110_3 C111_3 1_555 1_555
C127_3 C128_3 1_555 1_555
C133_3 C134_3 1_555 1_555
C134_3 C135_3 1_555 1_555
C135_3 C136_3 1_555 1_555
C136_3 C137_3 1_555 1_555
C139_3 C140_3 1_555 1_555
C140_3 C141_3 1_555 1_555
C141_3 C142_3 1_555 1_555
C142_3 C143_3 1_555 1_555
O56_3 H253_3 1_555 1_555
O32_2 H261_3 1_555 1_555
O105_2 H262_3 1_555 1_555
O134_3 H263_3 1_555 1_555
H20_3 O37_3 1_555 1_555
O61_3 H32_3 1_555 1_555
C42_3 O37_3 1_555 1_555
H81_3 C42_3 1_555 1_555
C72_3 O61_3 1_555 1_555
H115_3 C72_3 1_555 1_555
O40 H269_3 1_555 1_555
Rb7 O5_3 1_555 1_555
Rb12 O33_3 1_555 1_555
O3_3 H2_3 1_555 1_555
O5_3 H3_3 1_555 1_555
O6_3 Rb7 1_555 1_555
H4_3 O6_3 1_555 1_555
O7_3 C4_3 1_555 1_555
O10_3 H6_3 1_555 1_555
O11_3 H7_3 1_555 1_555
O15_3 H9_3 1_555 1_555
O29_3 C32_3 1_555 1_555
O30_3 H16_3 1_555 1_555
O31_3 C1_3 1_555 1_555
O33_3 C37_3 1_555 1_555
O38_3 C43_3 1_555 1_555
O114_2 C44_3 1_555 1_555
O41_3 C37_3 1_555 1_555
O42_3 Rb7 1_555 1_555
O43_3 H22_3 1_555 1_555
O44_3 H23_3 1_555 1_555
O45_3 C43_3 1_555 1_555
O46_3 Rb7 1_555 1_555
H24_3 O46_3 1_555 1_555
H26_3 O49_3 1_555 1_555
O50_3 C49_3 1_555 1_555
O51_3 H27_3 1_555 1_555
O62_3 Rb7 1_555 1_555
O63_3 Rb7 1_555 1_555
C1_3 H33_3 1_555 1_555
C2_3 O5_3 1_555 1_555
H34_3 C2_3 1_555 1_555
C3_3 O6_3 1_555 1_555
H35_3 C3_3 1_555 1_555
C4_3 C3_3 1_555 1_555
H36_3 C4_3 1_555 1_555
C7_3 O7_3 1_555 1_555
H40_3 C7_3 1_555 1_555
C8_3 O10_3 1_555 1_555
H41_3 C8_3 1_555 1_555
C9_3 O11_3 1_555 1_555
H42_3 C9_3 1_555 1_555
H69_3 C32_3 1_555 1_555
C33_3 O30_3 1_555 1_555
H70_3 C33_3 1_555 1_555
C34_3 O31_3 1_555 1_555
H71_3 C34_3 1_555 1_555
C37_3 H75_3 1_555 1_555
C41_3 O33_3 1_555 1_555
H79_3 C41_3 1_555 1_555
C43_3 H82_3 1_555 1_555
C44_3 C43_3 1_555 1_555
H83_3 C44_3 1_555 1_555
C45_3 O117_2 1_555 1_555
H84_3 C45_3 1_555 1_555
C46_3 O41_3 1_555 1_555
H85_3 C46_3 1_555 1_555
C47_3 O38_3 1_555 1_555
H86_3 C47_3 1_555 1_555
C48_3 O3_3 1_555 1_555
H87_3 C48_3 1_555 1_555
H88_3 C48_3 1_555 1_555
C49_3 O42_3 1_555 1_555
H89_3 C49_3 1_555 1_555
C50_3 O43_3 1_555 1_555
H90_3 C50_3 1_555 1_555
C51_3 O44_3 1_555 1_555
H91_3 C51_3 1_555 1_555
C52_3 O45_3 1_555 1_555
H92_3 C52_3 1_555 1_555
C53_3 O42_3 1_555 1_555
H93_3 C53_3 1_555 1_555
C54_3 O46_3 1_555 1_555
H94_3 C54_3 1_555 1_555
H95_3 C54_3 1_555 1_555
C57_3 O49_3 1_555 1_555
H98_3 C57_3 1_555 1_555
C58_3 O50_3 1_555 1_555
H99_3 C58_3 1_555 1_555
C59_3 O47_3 1_555 1_555
H100_3 C59_3 1_555 1_555
C60_3 O51_3 1_555 1_555
H101_3 C60_3 1_555 1_555
H102_3 C60_3 1_555 1_555
H108_3 C66_3 1_555 1_555
H109_3 C66_3 1_555 1_555
O64_3 H117_3 1_555 1_555
O66_3 C73_3 1_555 1_555
O71_3 C76_3 1_555 1_555
O72_3 H123_3 1_555 1_555
O73_3 C79_3 1_555 1_555
O74_3 H124_3 1_555 1_555
O75_3 H125_3 1_555 1_555
O76_3 C82_3 1_555 1_555
O77_3 H126_3 1_555 1_555
O78_3 C85_3 1_555 1_555
O79_3 H127_3 1_555 1_555
O80_3 H128_3 1_555 1_555
O81_3 C88_3 1_555 1_555
O82_3 H129_3 1_555 1_555
O83_3 Rb7 1_555 1_555
O85_3 H130_3 1_555 1_555
O86_3 H131_3 1_555 1_555
O87_3 C94_3 1_555 1_555
O88_3 Rb7 1_555 1_555
O90_3 C97_3 1_555 1_555
O97_3 C100_3 1_555 1_555
O98_2 C103_3 1_555 1_555
O101_3 C104_3 1_555 1_555
O102_3 H138_3 1_555 1_555
O103_3 C73_3 1_555 1_555
H139_2 O104_2 1_555 1_555
C73_3 H163_3 1_555 1_555
C74_3 O68_2 1_555 1_555
H164_3 C74_3 1_555 1_555
C75_3 O70_2 1_555 1_555
H165_3 C75_3 1_555 1_555
C76_3 C75_3 1_555 1_555
H166_3 C76_3 1_555 1_555
C77_3 O66_3 1_555 1_555
H167_3 C77_3 1_555 1_555
C78_3 O72_3 1_555 1_555
H168_3 C78_3 1_555 1_555
H169_3 C78_3 1_555 1_555
C79_3 O71_3 1_555 1_555
H170_3 C79_3 1_555 1_555
C80_3 O74_3 1_555 1_555
H171_3 C80_3 1_555 1_555
C81_3 O75_3 1_555 1_555
H172_3 C81_3 1_555 1_555
C82_3 C81_3 1_555 1_555
H173_3 C82_3 1_555 1_555
C83_3 O73_3 1_555 1_555
H174_3 C83_3 1_555 1_555
C84_3 O77_3 1_555 1_555
H175_3 C84_3 1_555 1_555
H176_3 C84_3 1_555 1_555
C85_3 O76_3 1_555 1_555
H177_3 C85_3 1_555 1_555
C86_3 O79_3 1_555 1_555
H178_3 C86_3 1_555 1_555
C87_3 O80_3 1_555 1_555
H179_3 C87_3 1_555 1_555
C88_3 C87_3 1_555 1_555
H180_3 C88_3 1_555 1_555
C89_3 O78_3 1_555 1_555
H181_3 C89_3 1_555 1_555
C90_3 O82_3 1_555 1_555
H182_3 C90_3 1_555 1_555
H183_3 C90_3 1_555 1_555
C91_3 O81_3 1_555 1_555
H184_3 C91_3 1_555 1_555
C92_3 O85_3 1_555 1_555
H185_3 C92_3 1_555 1_555
C93_3 O86_3 1_555 1_555
H186_3 C93_3 1_555 1_555
C94_3 C93_3 1_555 1_555
H187_3 C94_3 1_555 1_555
C95_3 O83_3 1_555 1_555
H188_3 C95_3 1_555 1_555
C96_3 O88_3 1_555 1_555
H189_3 C96_3 1_555 1_555
H190_3 C96_3 1_555 1_555
C97_3 O87_3 1_555 1_555
H191_3 C97_3 1_555 1_555
C98_3 O92_2 1_555 1_555
H192_3 C98_3 1_555 1_555
C99_3 O95_2 1_555 1_555
H193_3 C99_3 1_555 1_555
C100_3 C99_3 1_555 1_555
H194_3 C100_3 1_555 1_555
C101_3 O90_3 1_555 1_555
H195_3 C101_3 1_555 1_555
C102_3 O64_3 1_555 1_555
H196_3 C102_3 1_555 1_555
H197_3 C102_3 1_555 1_555
C103_3 O97_3 1_555 1_555
H198_3 C103_3 1_555 1_555
C104_3 C103_3 1_555 1_555
H199_3 C104_3 1_555 1_555
C105_3 O102_3 1_555 1_555
H200_3 C105_3 1_555 1_555
C106_3 O103_3 1_555 1_555
H201_3 C106_3 1_555 1_555
C107_3 O98_2 1_555 1_555
H202_3 C107_3 1_555 1_555
C108_3 O104_2 1_555 1_555
H203_3 C108_3 1_555 1_555
H204_3 C108_3 1_555 1_555
C1_3 C2_3 1_555 1_555
C2_3 C3_3 1_555 1_555
C7_3 C8_3 1_555 1_555
C8_3 C9_3 1_555 1_555
C32_3 C33_3 1_555 1_555
C33_3 C34_3 1_555 1_555
C44_3 C45_3 1_555 1_555
C45_3 C46_3 1_555 1_555
C46_3 C47_3 1_555 1_555
C47_3 C48_3 1_555 1_555
C49_3 C50_3 1_555 1_555
C50_3 C51_3 1_555 1_555
C51_3 C52_3 1_555 1_555
C52_3 C53_3 1_555 1_555
C53_3 C54_3 1_555 1_555
C57_3 C58_3 1_555 1_555
C58_3 C59_3 1_555 1_555
C59_3 C60_3 1_555 1_555
O83_3 C91_3 1_555 1_555
C73_3 C74_3 1_555 1_555
C74_3 C75_3 1_555 1_555
C76_3 C77_3 1_555 1_555
C77_3 C78_3 1_555 1_555
C79_3 C80_3 1_555 1_555
C80_3 C81_3 1_555 1_555
C82_3 C83_3 1_555 1_555
C83_3 C84_3 1_555 1_555
C85_3 C86_3 1_555 1_555
C86_3 C87_3 1_555 1_555
C88_3 C89_3 1_555 1_555
C89_3 C90_3 1_555 1_555
C91_3 C92_3 1_555 1_555
C92_3 C93_3 1_555 1_555
C94_3 C95_3 1_555 1_555
C95_3 C96_3 1_555 1_555
C97_3 C98_3 1_555 1_555
C98_3 C99_3 1_555 1_555
C100_3 C101_3 1_555 1_555
C101_3 C102_3 1_555 1_555
C104_3 C105_3 1_555 1_555
C105_3 C106_3 1_555 1_555
C106_3 C107_3 1_555 1_555
C107_3 C108_3 1_555 1_555
O29_3 H248_3 1_555 1_555
O63_3 H249_3 1_555 1_555
O63_3 H250_3 1_555 1_555
O62_3 H251_3 1_555 1_555
O62_3 H252_3 1_555 1_555
O91 H256_3 1_555 1_555
O94 H258_3 1_555 1_555
O101_3 H260_3 1_555 1_555
O136 H265_3 1_555 1_555
O139 H268_3 1_555 1_555
Rb7_2 O5_4 1_555 1_555
Rb12_2 O33_4 1_555 1_555
O3_4 H2_4 1_555 1_555
O5_4 H3_4 1_555 1_555
O6_4 Rb7_2 1_555 1_555
H4_4 O6_4 1_555 1_555
O7_4 C4_4 1_555 1_555
O10_4 H6_4 1_555 1_555
O11_4 H7_4 1_555 1_555
O15_4 H9_4 1_555 1_555
O29_4 C32_4 1_555 1_555
O30_4 H16_4 1_555 1_555
O31_4 C1_4 1_555 1_555
O33_4 C37_4 1_555 1_555
O37_4 Rb12_2 1_555 1_555
H20_4 O37_4 1_555 1_555
O38_4 C43_4 1_555 1_555
O114 C44_4 1_555 1_555
O41_4 C37_4 1_555 1_555
O42_4 Rb7_2 1_555 1_555
O43_4 H22_4 1_555 1_555
O44_4 H23_4 1_555 1_555
O45_4 C43_4 1_555 1_555
O46_4 Rb7_2 1_555 1_555
H24_4 O46_4 1_555 1_555
H26_4 O49_4 1_555 1_555
O50_4 C49_4 1_555 1_555
O51_4 H27_4 1_555 1_555
O61_4 H32_4 1_555 1_555
O62_4 Rb7_2 1_555 1_555
O63_4 Rb7_2 1_555 1_555
C1_4 H33_4 1_555 1_555
C2_4 O5_4 1_555 1_555
H34_4 C2_4 1_555 1_555
C3_4 O6_4 1_555 1_555
H35_4 C3_4 1_555 1_555
C4_4 C3_4 1_555 1_555
H36_4 C4_4 1_555 1_555
C7_4 O7_4 1_555 1_555
H40_4 C7_4 1_555 1_555
C8_4 O10_4 1_555 1_555
H41_4 C8_4 1_555 1_555
C9_4 O11_4 1_555 1_555
H42_4 C9_4 1_555 1_555
H69_4 C32_4 1_555 1_555
C33_4 O30_4 1_555 1_555
H70_4 C33_4 1_555 1_555
C34_4 O31_4 1_555 1_555
H71_4 C34_4 1_555 1_555
C37_4 H75_4 1_555 1_555
C41_4 O33_4 1_555 1_555
H79_4 C41_4 1_555 1_555
C42_4 O37_4 1_555 1_555
H80_4 C42_4 1_555 1_555
H81_4 C42_4 1_555 1_555
C43_4 H82_4 1_555 1_555
C44_4 C43_4 1_555 1_555
H83_4 C44_4 1_555 1_555
C45_4 O117 1_555 1_555
H84_4 C45_4 1_555 1_555
C46_4 O41_4 1_555 1_555
H85_4 C46_4 1_555 1_555
C47_4 O38_4 1_555 1_555
H86_4 C47_4 1_555 1_555
C48_4 O3_4 1_555 1_555
H87_4 C48_4 1_555 1_555
H88_4 C48_4 1_555 1_555
C49_4 O42_4 1_555 1_555
H89_4 C49_4 1_555 1_555
C50_4 O43_4 1_555 1_555
H90_4 C50_4 1_555 1_555
C51_4 O44_4 1_555 1_555
H91_4 C51_4 1_555 1_555
C52_4 O45_4 1_555 1_555
H92_4 C52_4 1_555 1_555
C53_4 O42_4 1_555 1_555
H93_4 C53_4 1_555 1_555
C54_4 O46_4 1_555 1_555
H94_4 C54_4 1_555 1_555
H95_4 C54_4 1_555 1_555
C57_4 O49_4 1_555 1_555
H98_4 C57_4 1_555 1_555
C58_4 O50_4 1_555 1_555
H99_4 C58_4 1_555 1_555
C59_4 O47_4 1_555 1_555
H100_4 C59_4 1_555 1_555
C60_4 O51_4 1_555 1_555
H101_4 C60_4 1_555 1_555
H102_4 C60_4 1_555 1_555
H108_4 C66_4 1_555 1_555
H109_4 C66_4 1_555 1_555
C72_4 O61_4 1_555 1_555
H115_4 C72_4 1_555 1_555
O64_4 H117_4 1_555 1_555
O71_4 C76_4 1_555 1_555
O73_4 C79_4 1_555 1_555
O74_4 H124_4 1_555 1_555
O75_4 H125_4 1_555 1_555
O76_4 C82_4 1_555 1_555
O77_4 H126_4 1_555 1_555
O78_4 C85_4 1_555 1_555
O79_4 H127_4 1_555 1_555
O80_4 H128_4 1_555 1_555
O81_4 C88_4 1_555 1_555
O82_4 H129_4 1_555 1_555
O83_4 Rb7_2 1_555 1_555
O85_4 H130_4 1_555 1_555
O86_4 H131_4 1_555 1_555
O87_4 C94_4 1_555 1_555
O88_4 Rb7_2 1_555 1_555
O90_4 C97_4 1_555 1_555
O97_4 C100_4 1_555 1_555
O99_2 C103_4 1_555 1_555
O101_4 C104_4 1_555 1_555
O102_4 H138_4 1_555 1_555
C75_4 O70 1_555 1_555
H165_4 C75_4 1_555 1_555
C76_4 C75_4 1_555 1_555
C79_4 O71_4 1_555 1_555
C80_4 O74_4 1_555 1_555
H171_4 C80_4 1_555 1_555
C81_4 O75_4 1_555 1_555
H172_4 C81_4 1_555 1_555
C82_4 C81_4 1_555 1_555
H173_4 C82_4 1_555 1_555
C83_4 O73_4 1_555 1_555
H174_4 C83_4 1_555 1_555
C84_4 O77_4 1_555 1_555
H175_4 C84_4 1_555 1_555
H176_4 C84_4 1_555 1_555
C85_4 O76_4 1_555 1_555
H177_4 C85_4 1_555 1_555
C86_4 O79_4 1_555 1_555
H178_4 C86_4 1_555 1_555
C87_4 O80_4 1_555 1_555
H179_4 C87_4 1_555 1_555
C88_4 C87_4 1_555 1_555
H180_4 C88_4 1_555 1_555
C89_4 O78_4 1_555 1_555
H181_4 C89_4 1_555 1_555
C90_4 O82_4 1_555 1_555
H182_4 C90_4 1_555 1_555
H183_4 C90_4 1_555 1_555
C91_4 O81_4 1_555 1_555
H184_4 C91_4 1_555 1_555
C92_4 O85_4 1_555 1_555
H185_4 C92_4 1_555 1_555
C93_4 O86_4 1_555 1_555
H186_4 C93_4 1_555 1_555
C94_4 C93_4 1_555 1_555
H187_4 C94_4 1_555 1_555
C95_4 O83_4 1_555 1_555
H188_4 C95_4 1_555 1_555
C96_4 O88_4 1_555 1_555
H189_4 C96_4 1_555 1_555
H190_4 C96_4 1_555 1_555
C97_4 O87_4 1_555 1_555
H191_4 C97_4 1_555 1_555
C98_4 O92 1_555 1_555
H192_4 C98_4 1_555 1_555
C99_4 O95 1_555 1_555
H193_4 C99_4 1_555 1_555
C100_4 C99_4 1_555 1_555
H194_4 C100_4 1_555 1_555
C101_4 O90_4 1_555 1_555
H195_4 C101_4 1_555 1_555
C102_4 O64_4 1_555 1_555
H196_4 C102_4 1_555 1_555
H197_4 C102_4 1_555 1_555
C103_4 O97_4 1_555 1_555
H198_4 C103_4 1_555 1_555
C104_4 C103_4 1_555 1_555
H199_4 C104_4 1_555 1_555
C105_4 O102_4 1_555 1_555
H200_4 C105_4 1_555 1_555
C106_4 O103_4 1_555 1_555
H201_4 C106_4 1_555 1_555
C107_4 O99_2 1_555 1_555
H202_4 C107_4 1_555 1_555
C1_4 C2_4 1_555 1_555
C2_4 C3_4 1_555 1_555
C7_4 C8_4 1_555 1_555
C8_4 C9_4 1_555 1_555
C32_4 C33_4 1_555 1_555
C33_4 C34_4 1_555 1_555
C41_4 C42_4 1_555 1_555
C44_4 C45_4 1_555 1_555
C45_4 C46_4 1_555 1_555
C46_4 C47_4 1_555 1_555
C47_4 C48_4 1_555 1_555
C49_4 C50_4 1_555 1_555
C50_4 C51_4 1_555 1_555
C51_4 C52_4 1_555 1_555
C52_4 C53_4 1_555 1_555
C53_4 C54_4 1_555 1_555
C57_4 C58_4 1_555 1_555
C58_4 C59_4 1_555 1_555
C59_4 C60_4 1_555 1_555
O83_4 C91_4 1_555 1_555
C79_4 C80_4 1_555 1_555
C80_4 C81_4 1_555 1_555
C82_4 C83_4 1_555 1_555
C83_4 C84_4 1_555 1_555
C85_4 C86_4 1_555 1_555
C86_4 C87_4 1_555 1_555
C88_4 C89_4 1_555 1_555
C89_4 C90_4 1_555 1_555
C91_4 C92_4 1_555 1_555
C92_4 C93_4 1_555 1_555
C94_4 C95_4 1_555 1_555
C95_4 C96_4 1_555 1_555
C97_4 C98_4 1_555 1_555
C98_4 C99_4 1_555 1_555
C100_4 C101_4 1_555 1_555
C101_4 C102_4 1_555 1_555
C104_4 C105_4 1_555 1_555
C105_4 C106_4 1_555 1_555
C106_4 C107_4 1_555 1_555
O29_4 H248_4 1_555 1_555
O63_4 H249_4 1_555 1_555
O63_4 H250_4 1_555 1_555
O62_4 H251_4 1_555 1_555
O62_4 H252_4 1_555 1_555
O91_2 H256_4 1_555 1_555
O94_2 H258_4 1_555 1_555
O101_4 H260_4 1_555 1_555
O136_2 H265_4 1_555 1_555
O139_2 H268_4 1_555 1_555
O40_2 H269_4 1_555 1_555
O66_4 C73_4 1_555 1_555
O72_4 H123_4 1_555 1_555
C73_4 H163_4 1_555 1_555
H164_4 C74_4 1_555 1_555
C77_4 O66_4 1_555 1_555
C78_4 O72_4 1_555 1_555
H168_4 C78_4 1_555 1_555
H169_4 C78_4 1_555 1_555
C108_4 O105_2 1_555 1_555
H203_4 C108_4 1_555 1_555
H204_4 C108_4 1_555 1_555
C73_4 C74_4 1_555 1_555
C77_4 C78_4 1_555 1_555
Rb3_5 O48_4 1_555 1_555
O34_4 H18_4 1_555 1_555
O35_4 H19_4 1_555 1_555
O36_4 C40_4 1_555 1_555
O48_4 H25_4 1_555 1_555
O52_4 C61_4 1_555 1_555
O53_4 H28_4 1_555 1_555
O54_4 H29_4 1_555 1_555
O55_4 C55_4 1_555 1_555
O57_4 C67_4 1_555 1_555
O60_4 C61_4 1_555 1_555
C38_4 O34_4 1_555 1_555
H76_4 C38_4 1_555 1_555
C39_4 O35_4 1_555 1_555
H77_4 C39_4 1_555 1_555
C40_4 C39_4 1_555 1_555
H78_4 C40_4 1_555 1_555
C55_4 H96_4 1_555 1_555
C56_4 O48_4 1_555 1_555
H97_4 C56_4 1_555 1_555
C61_4 H103_4 1_555 1_555
C62_4 O53_4 1_555 1_555
H104_4 C62_4 1_555 1_555
C63_4 O54_4 1_555 1_555
H105_4 C63_4 1_555 1_555
C64_4 O55_4 1_555 1_555
H106_4 C64_4 1_555 1_555
C65_4 O52_4 1_555 1_555
C67_4 O36_4 1_555 1_555
H110_4 C67_4 1_555 1_555
C68_4 O138_2 1_555 1_555
H111_4 C68_4 1_555 1_555
C69_4 O141_2 1_555 1_555
H112_4 C69_4 1_555 1_555
C70_4 O60_4 1_555 1_555
H113_4 C70_4 1_555 1_555
C71_4 O57_4 1_555 1_555
H114_4 C71_4 1_555 1_555
O108_4 H142_4 1_555 1_555
O109_4 H143_4 1_555 1_555
O110_4 C112_4 1_555 1_555
O126_4 Rb3_5 1_555 1_555
H151_4 O126_4 1_555 1_555
O130_4 C133_4 1_555 1_555
O131_4 H154_4 1_555 1_555
O132_4 H155_4 1_555 1_555
O133_4 C127_4 1_555 1_555
O142_4 C133_4 1_555 1_555
C110_4 O108_4 1_555 1_555
H206_4 C110_4 1_555 1_555
C111_4 O109_4 1_555 1_555
H207_4 C111_4 1_555 1_555
C112_4 C111_4 1_555 1_555
H208_4 C112_4 1_555 1_555
C127_4 H226_4 1_555 1_555
C128_4 O126_4 1_555 1_555
H227_4 C128_4 1_555 1_555
C133_4 H233_4 1_555 1_555
C134_4 O131_4 1_555 1_555
H234_4 C134_4 1_555 1_555
C135_4 O132_4 1_555 1_555
H235_4 C135_4 1_555 1_555
C136_4 O133_4 1_555 1_555
H236_4 C136_4 1_555 1_555
C137_4 O130_4 1_555 1_555
C139_4 O110_4 1_555 1_555
C140_4 O137 1_555 1_555
C141_4 O140 1_555 1_555
H242_4 C141_4 1_555 1_555
C142_4 O142_4 1_555 1_555
H244_4 C143_4 1_555 1_555
C38_4 C39_4 1_555 1_555
C55_4 C56_4 1_555 1_555
C61_4 C62_4 1_555 1_555
C62_4 C63_4 1_555 1_555
C63_4 C64_4 1_555 1_555
C64_4 C65_4 1_555 1_555
C67_4 C68_4 1_555 1_555
C68_4 C69_4 1_555 1_555
C69_4 C70_4 1_555 1_555
C70_4 C71_4 1_555 1_555
C110_4 C111_4 1_555 1_555
C127_4 C128_4 1_555 1_555
C133_4 C134_4 1_555 1_555
C134_4 C135_4 1_555 1_555
C135_4 C136_4 1_555 1_555
C136_4 C137_4 1_555 1_555
C139_4 C140_4 1_555 1_555
C140_4 C141_4 1_555 1_555
C141_4 C142_4 1_555 1_555
C142_4 C143_4 1_555 1_555
O56_4 H253_4 1_555 1_555
O32 H261_4 1_555 1_555
O104_2 H262_4 1_555 1_555
O134_4 H263_4 1_555 1_555
O2_4 H1_4 1_555 1_555
O8_4 H5_4 1_555 1_555
O12_4 C10_4 1_555 1_555
O13_4 H8_4 1_555 1_555
O14_4 C13_4 1_555 1_555
O16_4 H10_4 1_555 1_555
O17_4 C16_4 1_555 1_555
O18_4 H11_4 1_555 1_555
O84 C19_4 1_555 1_555
O22_4 C22_4 1_555 1_555
O89 C24_4 1_555 1_555
O24_4 C25_4 1_555 1_555
O25_2 H14_2 1_555 1_555
O26_2 H15_2 1_555 1_555
O27_4 C28_4 1_555 1_555
O100_2 C31_4 1_555 1_555
C5_4 O4_4 1_555 1_555
H37_4 C5_4 1_555 1_555
C6_4 O8_4 1_555 1_555
H38_4 C6_4 1_555 1_555
H39_4 C6_4 1_555 1_555
H43_4 C10_4 1_555 1_555
C11_4 O9_4 1_555 1_555
H44_4 C11_4 1_555 1_555
C12_4 O13_4 1_555 1_555
H45_4 C12_4 1_555 1_555
H46_4 C12_4 1_555 1_555
C13_4 O12_4 1_555 1_555
H47_4 C13_4 1_555 1_555
H48_4 C14_4 1_555 1_555
C15_4 O16_4 1_555 1_555
H49_4 C15_4 1_555 1_555
C16_4 C15_4 1_555 1_555
H50_4 C16_4 1_555 1_555
C17_4 O14_4 1_555 1_555
H51_4 C17_4 1_555 1_555
C18_4 O18_4 1_555 1_555
H52_4 C18_4 1_555 1_555
H53_4 C18_4 1_555 1_555
C19_4 O17_4 1_555 1_555
H54_4 C19_4 1_555 1_555
H56_4 C21_4 1_555 1_555
C22_4 C21_4 1_555 1_555
H57_4 C22_4 1_555 1_555
C23_4 O84 1_555 1_555
H58_4 C23_4 1_555 1_555
C24_4 C23_4 1_555 1_555
H59_4 C24_4 1_555 1_555
H60_4 C24_4 1_555 1_555
C25_4 O22_4 1_555 1_555
H61_4 C25_4 1_555 1_555
C26_4 O25_2 1_555 1_555
H62_4 C26_4 1_555 1_555
C27_4 O26_2 1_555 1_555
H63_4 C27_4 1_555 1_555
C28_4 C27_4 1_555 1_555
H64_4 C28_4 1_555 1_555
C29_4 O24_4 1_555 1_555
H65_4 C29_4 1_555 1_555
C30_4 O2_4 1_555 1_555
H66_4 C30_4 1_555 1_555
H67_4 C30_4 1_555 1_555
C31_4 O27_4 1_555 1_555
H68_4 C31_4 1_555 1_555
C35_4 O100_2 1_555 1_555
H72_4 C35_4 1_555 1_555
C36_4 O106_2 1_555 1_555
H73_4 C36_4 1_555 1_555
H74_4 C36_4 1_555 1_555
Rb13 O25_2 1_555 1_555
O26_2 Rb13 1_555 1_555
C5_4 C6_4 1_555 1_555
C10_4 C11_4 1_555 1_555
C11_4 C12_4 1_555 1_555
C13_4 C14_4 1_555 1_555
C14_4 C15_4 1_555 1_555
C16_4 C17_4 1_555 1_555
C17_4 C18_4 1_555 1_555
C19_4 C20_4 1_555 1_555
C20_4 C21_4 1_555 1_555
C22_4 C23_4 1_555 1_555
C25_4 C26_4 1_555 1_555
C26_4 C27_4 1_555 1_555
C28_4 C29_4 1_555 1_555
C29_4 C30_4 1_555 1_555
C35_4 C36_4 1_555 1_555
O20_4 H12_4 1_555 1_555
O65_4 H118_4 1_555 1_555
O107_4 Rb13 1_555 1_555
O112_4 C115_4 1_555 1_555
O115_2 C116_4 1_555 1_555
O119_4 C109_4 1_555 1_555
O120_4 Rb6 1_555 1_555
O121_4 H148_4 1_555 1_555
O122_4 H149_4 1_555 1_555
O123_4 C115_4 1_555 1_555
O124_4 Rb6 1_555 1_555
H150_4 O124_4 1_555 1_555
H152_4 O127_4 1_555 1_555
O128_4 C121_4 1_555 1_555
O129_4 H153_4 1_555 1_555
O144_4 Rb6 1_555 1_555
O145_4 Rb6 1_555 1_555
C109_4 O107_4 1_555 1_555
H205_4 C109_4 1_555 1_555
C113_4 O107_4 1_555 1_555
H209_4 C113_4 1_555 1_555
C115_4 H212_4 1_555 1_555
C116_4 C115_4 1_555 1_555
H213_4 C116_4 1_555 1_555
C117_4 O118_2 1_555 1_555
H214_4 C117_4 1_555 1_555
C118_4 O119_4 1_555 1_555
H215_4 C118_4 1_555 1_555
C119_4 O112_4 1_555 1_555
H216_4 C119_4 1_555 1_555
C120_4 O65_4 1_555 1_555
H217_4 C120_4 1_555 1_555
H218_4 C120_4 1_555 1_555
C121_4 O120_4 1_555 1_555
H219_4 C121_4 1_555 1_555
C122_4 O121_4 1_555 1_555
H220_4 C122_4 1_555 1_555
C123_4 O122_4 1_555 1_555
H221_4 C123_4 1_555 1_555
C124_4 O123_4 1_555 1_555
H222_4 C124_4 1_555 1_555
C125_4 O120_4 1_555 1_555
H223_4 C125_4 1_555 1_555
C126_4 O124_4 1_555 1_555
H224_4 C126_4 1_555 1_555
H225_4 C126_4 1_555 1_555
C129_4 O127_4 1_555 1_555
H228_4 C129_4 1_555 1_555
C130_4 O128_4 1_555 1_555
H229_4 C130_4 1_555 1_555
C131_4 O125_4 1_555 1_555
H230_4 C131_4 1_555 1_555
C132_4 O129_4 1_555 1_555
H231_4 C132_4 1_555 1_555
H232_4 C132_4 1_555 1_555
H238_4 C138_4 1_555 1_555
H239_4 C138_4 1_555 1_555
C116_4 C117_4 1_555 1_555
C117_4 C118_4 1_555 1_555
C118_4 C119_4 1_555 1_555
C119_4 C120_4 1_555 1_555
C121_4 C122_4 1_555 1_555
C122_4 C123_4 1_555 1_555
C123_4 C124_4 1_555 1_555
C124_4 C125_4 1_555 1_555
C125_4 C126_4 1_555 1_555
C129_4 C130_4 1_555 1_555
C130_4 C131_4 1_555 1_555
C131_4 C132_4 1_555 1_555
O69_2 H254_4 1_555 1_555
O67_2 H255_4 1_555 1_555
O25_2 H257_4 1_555 1_555
O26_2 H259_4 1_555 1_555
O58 H266_4 1_555 1_555
O59 H267_4 1_555 1_555
O145_4 H270_4 1_555 1_555
O145_4 H271_4 1_555 1_555
O144_4 H272_4 1_555 1_555
O144_4 H273_4 1_555 1_555
H144_4 O111_4 1_555 1_555
O143_4 H162_4 1_555 1_555
C114_4 O111_4 1_555 1_555
H211_4 C114_4 1_555 1_555
C144_4 O143_4 1_555 1_555
H245_4 C144_4 1_555 1_555
O116 H264_4 1_555 1_555
O6_3 H254_5 1_555 1_555
O5_3 H255_5 1_555 1_555
O6_4 H254_6 1_555 1_555
O5_4 H255_6 1_555 1_555
O6 H254_7 1_555 1_555
O5 H255_7 1_555 1_555
O6_2 H254_8 1_555 1_555
O5_2 H255_8 1_555 1_555

#END
