
###############################################################################
#
# This file contains modified crystal structure data generated from the
# MOF subset of the Cambridge Structural Database (CSD) v543 
# hosted by the Cambridge Crystallographic Data Centre (CCDC).
#
# This work is licensed under the Creative Commons
# Attribution-NonCommercial-ShareAlike 4.0 International License.
# To view a copy of this license, visit
# http://creativecommons.org/licenses/by-nc-sa/4.0/
# or send a letter to
# Creative Commons, PO Box 1866, Mountain View, CA 94042, USA.
#
# CIF created using the CSD Python API on 29 September 2022
# The structure has been converted into the P1 space group
# The structure has a 3D framework
# The original CSD entry MAMXUX is in the orthorhombic crystal system
# The framework has been calculated to contain at least 10.0% void space
# The void calculation uses a probe of radius 1.32A, grid spacing 0.4
#
###############################################################################

data_MAMXUX
_chemical_formula_moiety         '(C96 H72 Cu8 N48 O28 S8)n'
_symmetry_cell_setting           triclinic
_symmetry_space_group_name_H-M   'P 1'
_symmetry_Int_Tables_number      1
_space_group_name_Hall           'P 1'
loop_
_symmetry_equiv_pos_site_id
_symmetry_equiv_pos_as_xyz
1 x,y,z
_cell_length_a                   20.6518(4)
_cell_length_b                   9.8071(2)
_cell_length_c                   15.1637(3)
_cell_angle_alpha                90
_cell_angle_beta                 90
_cell_angle_gamma                90
_cell_volume                     3071.17
loop_
_atom_site_label
_atom_site_type_symbol
_atom_site_fract_x
_atom_site_fract_y
_atom_site_fract_z
Cu5 Cu 0.31832(3) 0.27528(7) 0.01310(4)
Cu1 Cu 0.31832(3) 0.72472(7) 0.51310(4)
S1 S 0.17538(6) 0.57848(11) 0.51306(7)
O1 O 0.20928(17) 0.4467(3) 0.51248(18)
O2 O 0.13369(16) 0.5911(3) 0.4343(2)
O3 O 0.22193(19) 0.6927(4) 0.5120(2)
O4 O 0.13430(17) 0.5900(3) 0.5928(2)
N1 N 0.32212(19) 0.2919(4) 0.8827(3)
N2 N 0.3307(2) 0.2278(4) 0.7433(3)
H1 H 0.334272 0.173929 0.697144
N3 N 0.31989(19) 0.7112(4) 0.6433(3)
N4 N 0.3222(2) 0.7759(4) 0.7828(3)
H2 H 0.323132 0.829982 0.829119
C1 C 0.3208(2) 0.4082(4) 0.8309(3)
C2 C 0.3253(2) 0.3670(5) 0.7412(3)
N5 N 0.4145(2) 0.7155(6) 0.5162(3)
C3 C 0.3224(2) 0.4580(5) 0.6707(3)
H3 H 0.321908 0.429009 0.610946
C4 C 0.3294(2) 0.1880(5) 0.8280(3)
H4 H 0.333227 0.095853 0.846456
C5 C 0.3159(2) 0.5441(5) 0.8547(3)
H5 H 0.310167 0.573035 0.913984
C6 C 0.3204(2) 0.5934(4) 0.6948(3)
C7 C 0.3202(2) 0.6343(5) 0.7846(3)
C8 C 0.3224(2) 0.8150(5) 0.6992(3)
H6 H 0.324271 0.907736 0.681212
N6 N 0.5171(3) 0.7723(6) 0.5273(4)
H7 H 0.551009 0.825497 0.534184
C9 C 0.5170(3) 0.6316(7) 0.5126(4)
C10 C 0.4529(4) 0.8102(7) 0.5289(5)
H8 H 0.439338 0.901400 0.538867
C11 C 0.4510(3) 0.5943(6) 0.5072(4)
C12 C 0.5668(3) 0.5412(8) 0.5041(4)
H9 H 0.610862 0.569133 0.505859
N7 N 0.5855(2) 0.2845(6) 0.4838(3)
N8 N 0.4829(3) 0.2277(6) 0.4727(4)
H10 H 0.448991 0.174503 0.465816
C13 C 0.4830(3) 0.3684(7) 0.4874(4)
C14 C 0.5471(4) 0.1898(7) 0.4711(5)
H11 H 0.560662 0.098600 0.461133
C15 C 0.5490(3) 0.4057(6) 0.4928(4)
C16 C 0.4332(3) 0.4588(8) 0.4959(4)
H12 H 0.389138 0.430867 0.494141
Cu2 Cu 0.68168(3) 0.27528(7) 0.48690(4)
S2 S 0.82462(6) 0.42152(11) 0.48694(7)
O5 O 0.79072(17) 0.5533(3) 0.48752(18)
O6 O 0.86631(16) 0.4089(3) 0.5657(2)
O7 O 0.77807(19) 0.3073(4) 0.4880(2)
O8 O 0.86570(17) 0.4100(3) 0.4072(2)
N9 N 0.67788(19) 0.7081(4) 0.1173(3)
N10 N 0.6693(2) 0.7722(4) 0.2567(3)
H13 H 0.665728 0.826071 0.302856
N11 N 0.68011(19) 0.2888(4) 0.3567(3)
N12 N 0.6778(2) 0.2241(4) 0.2172(3)
H14 H 0.676868 0.170018 0.170881
C17 C 0.6792(2) 0.5918(4) 0.1691(3)
C18 C 0.6747(2) 0.6330(5) 0.2588(3)
C19 C 0.6776(2) 0.5420(5) 0.3293(3)
H15 H 0.678092 0.570991 0.389054
C20 C 0.6706(2) 0.8120(5) 0.1720(3)
H16 H 0.666773 0.904147 0.153544
C21 C 0.6841(2) 0.4559(5) 0.1453(3)
H17 H 0.689833 0.426965 0.086016
C22 C 0.6796(2) 0.4066(4) 0.3052(3)
C23 C 0.6798(2) 0.3657(5) 0.2154(3)
C24 C 0.6776(2) 0.1850(5) 0.3008(3)
H18 H 0.675729 0.092264 0.318788
Cu4 Cu 0.81832(3) 0.77528(7) 0.48690(4)
Cu6 Cu 0.18168(3) 0.22472(7) 0.51310(4)
O9 O 0.70928(17) 0.0533(3) 0.48752(18)
O10 O 0.29072(17) 0.9467(3) 0.51248(18)
N13 N 0.67788(19) 0.2919(4) 0.6173(3)
N14 N 0.32212(19) 0.7081(4) 0.3827(3)
Cu3 Cu 0.68168(3) 0.72472(7) 0.98690(4)
O1_2 O 0.29072(17) 0.0533(3) 0.01248(18)
N1_2 N 0.17788(19) 0.2081(4) 0.3827(3)
N2_2 N 0.1693(2) 0.2722(4) 0.2433(3)
H1_2 H 0.165728 0.326071 0.197144
C1_2 C 0.1792(2) 0.0918(4) 0.3309(3)
C2_2 C 0.1747(2) 0.1330(5) 0.2412(3)
C3_2 C 0.1776(2) 0.0420(5) 0.1707(3)
H3_2 H 0.178092 0.070991 0.110946
C4_2 C 0.1706(2) 0.3120(5) 0.3280(3)
H4_2 H 0.166773 0.404147 0.346456
Cu1_2 Cu 0.18168(3) 0.77528(7) 0.01310(4)
S1_2 S 0.32462(6) 0.92152(11) 0.01306(7)
O3_2 O 0.27807(19) 0.8073(4) 0.0120(2)
O4_2 O 0.36570(17) 0.9100(3) 0.0928(2)
N3_2 N 0.18011(19) 0.7888(4) 0.1433(3)
N4_2 N 0.1778(2) 0.7241(4) 0.2828(3)
H2_2 H 0.176868 0.670018 0.329119
N5_2 N 0.0855(2) 0.7845(6) 0.0162(3)
C5_2 C 0.1841(2) 0.9559(5) 0.3547(3)
H5_2 H 0.189833 0.926965 0.413984
C6_2 C 0.1796(2) 0.9066(4) 0.1948(3)
C7_2 C 0.1798(2) 0.8657(5) 0.2846(3)
C8_2 C 0.1776(2) 0.6850(5) 0.1992(3)
H6_2 H 0.175729 0.592264 0.181212
C10_2 C 0.0471(4) 0.6898(7) 0.0289(5)
H8_2 H 0.060662 0.598600 0.038867
C11_2 C 0.0490(3) 0.9057(6) 0.0072(4)
O10_2 O 0.20928(17) 0.5533(3) 0.01248(18)
O2_2 O 0.36631(16) 0.9089(3) 0.9343(2)
N14_2 N 0.17788(19) 0.7919(4) 0.8827(3)
O6_2 O 0.63369(16) 0.0911(3) 0.0657(2)
N13_2 N 0.82212(19) 0.2081(4) 0.1173(3)
N7_2 N 0.9145(2) 0.2155(6) 0.9838(3)
C14_2 C 0.9529(4) 0.3102(7) 0.9711(5)
H11_2 H 0.939338 0.401400 0.961133
C15_2 C 0.9510(3) 0.0943(6) 0.9928(4)
Cu2_2 Cu 0.81832(3) 0.22472(7) 0.98690(4)
S2_2 S 0.67538(6) 0.07848(11) 0.98694(7)
O7_2 O 0.72193(19) 0.1927(4) 0.9880(2)
O8_2 O 0.63430(17) 0.0900(3) 0.9072(2)
N11_2 N 0.81989(19) 0.2112(4) 0.8567(3)
N12_2 N 0.8222(2) 0.2759(4) 0.7172(3)
H14_2 H 0.823132 0.329982 0.670881
C21_2 C 0.8159(2) 0.0441(5) 0.6453(3)
H17_2 H 0.810167 0.073035 0.586016
C22_2 C 0.8204(2) 0.0934(4) 0.8052(3)
C23_2 C 0.8202(2) 0.1343(5) 0.7154(3)
C24_2 C 0.8224(2) 0.3150(5) 0.8008(3)
H18_2 H 0.824271 0.407736 0.818788
O9_2 O 0.79072(17) 0.4467(3) 0.98752(18)
O5_2 O 0.70928(17) 0.9467(3) 0.98752(18)
N9_2 N 0.82212(19) 0.7919(4) 0.6173(3)
N10_2 N 0.8307(2) 0.7278(4) 0.7567(3)
H13_2 H 0.834272 0.673929 0.802856
C17_2 C 0.8208(2) 0.9082(4) 0.6691(3)
C18_2 C 0.8253(2) 0.8670(5) 0.7588(3)
C19_2 C 0.8224(2) 0.9580(5) 0.8293(3)
H15_2 H 0.821908 0.929009 0.889054
C20_2 C 0.8294(2) 0.6880(5) 0.6720(3)
H16_2 H 0.833227 0.595853 0.653544
O2_3 O 0.86631(16) 0.5911(3) 0.0657(2)
N7_3 N 0.4145(2) 0.2845(6) 0.0162(3)
N8_2 N 0.5171(3) 0.2277(6) 0.0273(4)
H10_2 H 0.551009 0.174503 0.034184
C13_2 C 0.5170(3) 0.3684(7) 0.0126(4)
C14_3 C 0.4529(4) 0.1898(7) 0.0289(5)
H11_3 H 0.439338 0.098600 0.038867
C15_3 C 0.4510(3) 0.4057(6) 0.0072(4)
C16_2 C 0.5668(3) 0.4588(8) 0.0041(4)
H12_2 H 0.610862 0.430867 0.005859
S2_3 S 0.17538(6) 0.42152(11) 0.01306(7)
O7_3 O 0.22193(19) 0.3073(4) 0.0120(2)
O8_3 O 0.13430(17) 0.4100(3) 0.0928(2)
N10_3 N 0.3307(2) 0.7722(4) 0.2433(3)
H13_3 H 0.334272 0.826071 0.197144
N11_3 N 0.31989(19) 0.2888(4) 0.1433(3)
N12_3 N 0.3222(2) 0.2241(4) 0.2828(3)
H14_3 H 0.323132 0.170018 0.329119
C17_3 C 0.3208(2) 0.5918(4) 0.3309(3)
C18_3 C 0.3253(2) 0.6330(5) 0.2412(3)
C19_3 C 0.3224(2) 0.5420(5) 0.1707(3)
H15_3 H 0.321908 0.570991 0.110946
C20_3 C 0.3294(2) 0.8120(5) 0.3280(3)
H16_3 H 0.333227 0.904147 0.346456
C21_3 C 0.3159(2) 0.4559(5) 0.3547(3)
H17_3 H 0.310167 0.426965 0.413984
C22_3 C 0.3204(2) 0.4066(4) 0.1948(3)
C23_3 C 0.3202(2) 0.3657(5) 0.2846(3)
C24_3 C 0.3224(2) 0.1850(5) 0.1992(3)
H18_3 H 0.324271 0.092264 0.181212
S1_3 S 0.82462(6) 0.57848(11) 0.98694(7)
O3_3 O 0.77807(19) 0.6927(4) 0.9880(2)
O4_3 O 0.86570(17) 0.5900(3) 0.9072(2)
N2_3 N 0.6693(2) 0.2278(4) 0.7567(3)
H1_3 H 0.665728 0.173929 0.802856
N3_3 N 0.68011(19) 0.7112(4) 0.8567(3)
N4_3 N 0.6778(2) 0.7759(4) 0.7172(3)
H2_3 H 0.676868 0.829982 0.670881
C1_3 C 0.6792(2) 0.4082(4) 0.6691(3)
C2_3 C 0.6747(2) 0.3670(5) 0.7588(3)
N5_3 N 0.5855(2) 0.7155(6) 0.9838(3)
C3_3 C 0.6776(2) 0.4580(5) 0.8293(3)
H3_3 H 0.678092 0.429009 0.889054
C4_3 C 0.6706(2) 0.1880(5) 0.6720(3)
H4_3 H 0.666773 0.095853 0.653544
C5_3 C 0.6841(2) 0.5441(5) 0.6453(3)
H5_3 H 0.689833 0.573035 0.586016
C6_3 C 0.6796(2) 0.5934(4) 0.8052(3)
C7_3 C 0.6798(2) 0.6343(5) 0.7154(3)
C8_3 C 0.6776(2) 0.8150(5) 0.8008(3)
H6_3 H 0.675729 0.907736 0.818788
N6_2 N 0.4829(3) 0.7723(6) 0.9727(4)
H7_2 H 0.448991 0.825497 0.965816
C9_2 C 0.4830(3) 0.6316(7) 0.9874(4)
C10_3 C 0.5471(4) 0.8102(7) 0.9711(5)
H8_3 H 0.560662 0.901400 0.961133
C11_3 C 0.5490(3) 0.5943(6) 0.9928(4)
C12_2 C 0.4332(3) 0.5412(8) 0.9959(4)
H9_2 H 0.389138 0.569133 0.994141
O6_3 O 0.13369(16) 0.4089(3) 0.9343(2)
N7_4 N 0.0855(2) 0.2155(6) 0.5162(3)
C14_4 C 0.0471(4) 0.3102(7) 0.5289(5)
H11_4 H 0.060662 0.401400 0.538867
C15_4 C 0.0490(3) 0.0943(6) 0.5072(4)
S2_4 S 0.32462(6) 0.07848(11) 0.51306(7)
O6_4 O 0.36631(16) 0.0911(3) 0.4343(2)
O7_4 O 0.27807(19) 0.1927(4) 0.5120(2)
O8_4 O 0.36570(17) 0.0900(3) 0.5928(2)
N11_4 N 0.18011(19) 0.2112(4) 0.6433(3)
N12_4 N 0.1778(2) 0.2759(4) 0.7828(3)
H14_4 H 0.176868 0.329982 0.829119
C21_4 C 0.1841(2) 0.0441(5) 0.8547(3)
H17_4 H 0.189833 0.073035 0.913984
C22_4 C 0.1796(2) 0.0934(4) 0.6948(3)
C23_4 C 0.1798(2) 0.1343(5) 0.7846(3)
C24_4 C 0.1776(2) 0.3150(5) 0.6992(3)
H18_4 H 0.175729 0.407736 0.681212
N6_3 N 0.0171(3) 0.7277(6) 0.4727(4)
H7_3 H 0.051009 0.674503 0.465816
C9_3 C 0.0170(3) 0.8684(7) 0.4874(4)
C12_3 C 0.0668(3) 0.9588(8) 0.4959(4)
H9_3 H 0.110862 0.930867 0.494141
N10_4 N 0.1693(2) 0.7278(4) 0.7433(3)
H13_4 H 0.165728 0.673929 0.697144
C17_4 C 0.1792(2) 0.9082(4) 0.8309(3)
C18_4 C 0.1747(2) 0.8670(5) 0.7412(3)
C19_4 C 0.1776(2) 0.9580(5) 0.6707(3)
H15_4 H 0.178092 0.929009 0.610946
C20_4 C 0.1706(2) 0.6880(5) 0.8280(3)
H16_4 H 0.166773 0.595853 0.846456
N2_4 N 0.8307(2) 0.2722(4) 0.2567(3)
H1_4 H 0.834272 0.326071 0.302856
C1_4 C 0.8208(2) 0.0918(4) 0.1691(3)
C2_4 C 0.8253(2) 0.1330(5) 0.2588(3)
C3_4 C 0.8224(2) 0.0420(5) 0.3293(3)
H3_4 H 0.821908 0.070991 0.389054
C4_4 C 0.8294(2) 0.3120(5) 0.1720(3)
H4_4 H 0.833227 0.404147 0.153544
N8_3 N 0.9829(3) 0.2723(6) 0.5273(4)
H10_3 H 0.948991 0.325497 0.534184
C13_3 C 0.9830(3) 0.1316(7) 0.5126(4)
C16_3 C 0.9332(3) 0.0412(8) 0.5041(4)
H12_3 H 0.889138 0.069133 0.505859
S1_4 S 0.67538(6) 0.92152(11) 0.48694(7)
O2_4 O 0.63369(16) 0.9089(3) 0.5657(2)
O3_4 O 0.72193(19) 0.8073(4) 0.4880(2)
O4_4 O 0.63430(17) 0.9100(3) 0.4072(2)
N3_4 N 0.81989(19) 0.7888(4) 0.3567(3)
N4_4 N 0.8222(2) 0.7241(4) 0.2172(3)
H2_4 H 0.823132 0.670018 0.170881
N5_4 N 0.9145(2) 0.7845(6) 0.4838(3)
C5_4 C 0.8159(2) 0.9559(5) 0.1453(3)
H5_4 H 0.810167 0.926965 0.086016
C6_4 C 0.8204(2) 0.9066(4) 0.3052(3)
C7_4 C 0.8202(2) 0.8657(5) 0.2154(3)
C8_4 C 0.8224(2) 0.6850(5) 0.3008(3)
H6_4 H 0.824271 0.592264 0.318788
C10_4 C 0.9529(4) 0.6898(7) 0.4711(5)
H8_4 H 0.939338 0.598600 0.461133
C11_4 C 0.9510(3) 0.9057(6) 0.4928(4)
N8_4 N 0.0171(3) 0.2723(6) 0.9727(4)
H10_4 H 0.051009 0.325497 0.965816
C13_4 C 0.0170(3) 0.1316(7) 0.9874(4)
C16_4 C 0.0668(3) 0.0412(8) 0.9959(4)
H12_4 H 0.110862 0.069133 0.994141
N6_4 N 0.9829(3) 0.7277(6) 0.0273(4)
H7_4 H 0.948991 0.674503 0.034184
C9_4 C 0.9830(3) 0.8684(7) 0.0126(4)
C12_4 C 0.9332(3) 0.9588(8) 0.0041(4)
H9_4 H 0.889138 0.930867 0.005859
loop_
_geom_bond_atom_site_label_1
_geom_bond_atom_site_label_2
_geom_bond_site_symmetry_1
_geom_bond_site_symmetry_2
Cu1 O3 1_555 1_555
S1 O1 1_555 1_555
O1 Cu6 1_555 1_555
O2 S1 1_555 1_555
O3 S1 1_555 1_555
O4 S1 1_555 1_555
N1 C1 1_555 1_555
N2 H1 1_555 1_555
N3 Cu1 1_555 1_555
N4 H2 1_555 1_555
C1 C2 1_555 1_555
C2 N2 1_555 1_555
N5 Cu1 1_555 1_555
C3 C2 1_555 1_555
H3 C3 1_555 1_555
C4 N1 1_555 1_555
H4 C4 1_555 1_555
C5 C1 1_555 1_555
H5 C5 1_555 1_555
C6 N3 1_555 1_555
C7 N4 1_555 1_555
C8 N3 1_555 1_555
H6 C8 1_555 1_555
N6 H7 1_555 1_555
C9 N6 1_555 1_555
C10 N5 1_555 1_555
H8 C10 1_555 1_555
C11 N5 1_555 1_555
C12 C9 1_555 1_555
H9 C12 1_555 1_555
N7 C14 1_555 1_555
N8 H10 1_555 1_555
C13 N8 1_555 1_555
C14 N8 1_555 1_555
H11 C14 1_555 1_555
C15 C12 1_555 1_555
C16 C11 1_555 1_555
H12 C16 1_555 1_555
Cu2 N7 1_555 1_555
S2 O5 1_555 1_555
O5 Cu4 1_555 1_555
O6 S2 1_555 1_555
O7 Cu2 1_555 1_555
O8 S2 1_555 1_555
N9 C17 1_555 1_555
N10 H13 1_555 1_555
N11 Cu2 1_555 1_555
N12 H14 1_555 1_555
C17 C18 1_555 1_555
C18 N10 1_555 1_555
C19 C18 1_555 1_555
H15 C19 1_555 1_555
C20 N9 1_555 1_555
H16 C20 1_555 1_555
C21 C17 1_555 1_555
H17 C21 1_555 1_555
C22 N11 1_555 1_555
C23 N12 1_555 1_555
C24 N11 1_555 1_555
H18 C24 1_555 1_555
O9 Cu2 1_555 1_555
O10 Cu1 1_555 1_555
N13 Cu2 1_555 1_555
N14 Cu1 1_555 1_555
N2 C4 1_555 1_555
N4 C8 1_555 1_555
C3 C6 1_555 1_555
C5 C7 1_555 1_555
C6 C7 1_555 1_555
N6 C10 1_555 1_555
C9 C11 1_555 1_555
N7 C15 1_555 1_555
C13 C15 1_555 1_555
C13 C16 1_555 1_555
S2 O7 1_555 1_555
N10 C20 1_555 1_555
N12 C24 1_555 1_555
C19 C22 1_555 1_555
C21 C23 1_555 1_555
C22 C23 1_555 1_555
O1_2 Cu5 1_555 1_555
N1_2 C1_2 1_555 1_555
N2_2 H1_2 1_555 1_555
C1_2 C2_2 1_555 1_555
C2_2 N2_2 1_555 1_555
C3_2 C2_2 1_555 1_555
H3_2 C3_2 1_555 1_555
C4_2 N1_2 1_555 1_555
H4_2 C4_2 1_555 1_555
Cu6 N1_2 1_555 1_555
N2_2 C4_2 1_555 1_555
Cu1_2 O3_2 1_555 1_555
O3_2 S1_2 1_555 1_555
O4_2 S1_2 1_555 1_555
N3_2 Cu1_2 1_555 1_555
N4_2 H2_2 1_555 1_555
N5_2 Cu1_2 1_555 1_555
H5_2 C5_2 1_555 1_555
C6_2 N3_2 1_555 1_555
C7_2 N4_2 1_555 1_555
C8_2 N3_2 1_555 1_555
H6_2 C8_2 1_555 1_555
C10_2 N5_2 1_555 1_555
H8_2 C10_2 1_555 1_555
C11_2 N5_2 1_555 1_555
O10_2 Cu1_2 1_555 1_555
N4_2 C8_2 1_555 1_555
C5_2 C7_2 1_555 1_555
C6_2 C7_2 1_555 1_555
N7_2 C14_2 1_555 1_555
H11_2 C14_2 1_555 1_555
Cu2_2 N7_2 1_555 1_555
O7_2 Cu2_2 1_555 1_555
O8_2 S2_2 1_555 1_555
N11_2 Cu2_2 1_555 1_555
N12_2 H14_2 1_555 1_555
H17_2 C21_2 1_555 1_555
C22_2 N11_2 1_555 1_555
C23_2 N12_2 1_555 1_555
C24_2 N11_2 1_555 1_555
H18_2 C24_2 1_555 1_555
O9_2 Cu2_2 1_555 1_555
N7_2 C15_2 1_555 1_555
S2_2 O7_2 1_555 1_555
N12_2 C24_2 1_555 1_555
C21_2 C23_2 1_555 1_555
C22_2 C23_2 1_555 1_555
O5_2 Cu3 1_555 1_555
N9_2 C17_2 1_555 1_555
N10_2 H13_2 1_555 1_555
C17_2 C18_2 1_555 1_555
C18_2 N10_2 1_555 1_555
C19_2 C18_2 1_555 1_555
H15_2 C19_2 1_555 1_555
C20_2 N9_2 1_555 1_555
H16_2 C20_2 1_555 1_555
Cu4 N9_2 1_555 1_555
N10_2 C20_2 1_555 1_555
N7_3 C14_3 1_555 1_555
N8_2 H10_2 1_555 1_555
C13_2 N8_2 1_555 1_555
C14_3 N8_2 1_555 1_555
H11_3 C14_3 1_555 1_555
H12_2 C16_2 1_555 1_555
Cu5 N7_3 1_555 1_555
S2_3 O10_2 1_555 1_555
O7_3 Cu5 1_555 1_555
O8_3 S2_3 1_555 1_555
N14 C17_3 1_555 1_555
N10_3 H13_3 1_555 1_555
N11_3 Cu5 1_555 1_555
N12_3 H14_3 1_555 1_555
C17_3 C18_3 1_555 1_555
C18_3 N10_3 1_555 1_555
C19_3 C18_3 1_555 1_555
H15_3 C19_3 1_555 1_555
C20_3 N14 1_555 1_555
H16_3 C20_3 1_555 1_555
C21_3 C17_3 1_555 1_555
H17_3 C21_3 1_555 1_555
C22_3 N11_3 1_555 1_555
C23_3 N12_3 1_555 1_555
C24_3 N11_3 1_555 1_555
H18_3 C24_3 1_555 1_555
N7_3 C15_3 1_555 1_555
C13_2 C15_3 1_555 1_555
C13_2 C16_2 1_555 1_555
S2_3 O7_3 1_555 1_555
N10_3 C20_3 1_555 1_555
N12_3 C24_3 1_555 1_555
C19_3 C22_3 1_555 1_555
C21_3 C23_3 1_555 1_555
C22_3 C23_3 1_555 1_555
Cu3 O3_3 1_555 1_555
S1_3 O9_2 1_555 1_555
O3_3 S1_3 1_555 1_555
O4_3 S1_3 1_555 1_555
N13 C1_3 1_555 1_555
N2_3 H1_3 1_555 1_555
N3_3 Cu3 1_555 1_555
N4_3 H2_3 1_555 1_555
C1_3 C2_3 1_555 1_555
C2_3 N2_3 1_555 1_555
N5_3 Cu3 1_555 1_555
C3_3 C2_3 1_555 1_555
H3_3 C3_3 1_555 1_555
C4_3 N13 1_555 1_555
H4_3 C4_3 1_555 1_555
C5_3 C1_3 1_555 1_555
H5_3 C5_3 1_555 1_555
C6_3 N3_3 1_555 1_555
C7_3 N4_3 1_555 1_555
C8_3 N3_3 1_555 1_555
H6_3 C8_3 1_555 1_555
N6_2 H7_2 1_555 1_555
C9_2 N6_2 1_555 1_555
C10_3 N5_3 1_555 1_555
H8_3 C10_3 1_555 1_555
C11_3 N5_3 1_555 1_555
C12_2 C9_2 1_555 1_555
H9_2 C12_2 1_555 1_555
N2_3 C4_3 1_555 1_555
N4_3 C8_3 1_555 1_555
C3_3 C6_3 1_555 1_555
C5_3 C7_3 1_555 1_555
C6_3 C7_3 1_555 1_555
N6_2 C10_3 1_555 1_555
C9_2 C11_3 1_555 1_555
N7_4 C14_4 1_555 1_555
H11_4 C14_4 1_555 1_555
Cu6 N7_4 1_555 1_555
O6_4 S2_4 1_555 1_555
O7_4 Cu6 1_555 1_555
O8_4 S2_4 1_555 1_555
N11_4 Cu6 1_555 1_555
N12_4 H14_4 1_555 1_555
H17_4 C21_4 1_555 1_555
C22_4 N11_4 1_555 1_555
C23_4 N12_4 1_555 1_555
C24_4 N11_4 1_555 1_555
H18_4 C24_4 1_555 1_555
N7_4 C15_4 1_555 1_555
S2_4 O7_4 1_555 1_555
N12_4 C24_4 1_555 1_555
C21_4 C23_4 1_555 1_555
C22_4 C23_4 1_555 1_555
N6_3 H7_3 1_555 1_555
C9_3 N6_3 1_555 1_555
C12_3 C9_3 1_555 1_555
H9_3 C12_3 1_555 1_555
N14_2 C17_4 1_555 1_555
N10_4 H13_4 1_555 1_555
C17_4 C18_4 1_555 1_555
C18_4 N10_4 1_555 1_555
C19_4 C18_4 1_555 1_555
H15_4 C19_4 1_555 1_555
C20_4 N14_2 1_555 1_555
H16_4 C20_4 1_555 1_555
N10_4 C20_4 1_555 1_555
N13_2 C1_4 1_555 1_555
N2_4 H1_4 1_555 1_555
C1_4 C2_4 1_555 1_555
C2_4 N2_4 1_555 1_555
C3_4 C2_4 1_555 1_555
H3_4 C3_4 1_555 1_555
C4_4 N13_2 1_555 1_555
H4_4 C4_4 1_555 1_555
N8_3 H10_3 1_555 1_555
C13_3 N8_3 1_555 1_555
H12_3 C16_3 1_555 1_555
N2_4 C4_4 1_555 1_555
C13_3 C16_3 1_555 1_555
Cu4 O3_4 1_555 1_555
O2_4 S1_4 1_555 1_555
O3_4 S1_4 1_555 1_555
O4_4 S1_4 1_555 1_555
N3_4 Cu4 1_555 1_555
N4_4 H2_4 1_555 1_555
N5_4 Cu4 1_555 1_555
H5_4 C5_4 1_555 1_555
C6_4 N3_4 1_555 1_555
C7_4 N4_4 1_555 1_555
C8_4 N3_4 1_555 1_555
H6_4 C8_4 1_555 1_555
C10_4 N5_4 1_555 1_555
H8_4 C10_4 1_555 1_555
C11_4 N5_4 1_555 1_555
N4_4 C8_4 1_555 1_555
C5_4 C7_4 1_555 1_555
C6_4 C7_4 1_555 1_555
N8_4 H10_4 1_555 1_555
C13_4 N8_4 1_555 1_555
H12_4 C16_4 1_555 1_555
C13_4 C16_4 1_555 1_555
N6_4 H7_4 1_555 1_555
C9_4 N6_4 1_555 1_555
C12_4 C9_4 1_555 1_555
H9_4 C12_4 1_555 1_555

#END
