
###############################################################################
#
# This file contains modified crystal structure data generated from the
# MOF subset of the Cambridge Structural Database (CSD) v543 
# hosted by the Cambridge Crystallographic Data Centre (CCDC).
#
# This work is licensed under the Creative Commons
# Attribution-NonCommercial-ShareAlike 4.0 International License.
# To view a copy of this license, visit
# http://creativecommons.org/licenses/by-nc-sa/4.0/
# or send a letter to
# Creative Commons, PO Box 1866, Mountain View, CA 94042, USA.
#
# CIF created using the CSD Python API on 29 September 2022
# The structure has been converted into the P1 space group
# The structure has a 3D framework
# The original CSD entry MANDUD is in the monoclinic crystal system
# The framework has been calculated to contain at least 10.0% void space
# The void calculation uses a probe of radius 1.32A, grid spacing 0.4
#
###############################################################################

data_MANDUD
_chemical_formula_moiety         '(C384 H256 Gd16 O128)n'
_symmetry_cell_setting           triclinic
_symmetry_space_group_name_H-M   'P 1'
_symmetry_Int_Tables_number      1
_space_group_name_Hall           'P 1'
loop_
_symmetry_equiv_pos_site_id
_symmetry_equiv_pos_as_xyz
1 x,y,z
_cell_length_a                   35.067(3)
_cell_length_b                   24.035(3)
_cell_length_c                   26.081(3)
_cell_angle_alpha                90
_cell_angle_beta                 132.068(3)
_cell_angle_gamma                90
_cell_volume                     16318.3
loop_
_atom_site_label
_atom_site_type_symbol
_atom_site_fract_x
_atom_site_fract_y
_atom_site_fract_z
Gd1 Gd 0.40547(4) 0.23478(4) 0.39978(6)
Gd2 Gd 0.24023(4) 0.26517(4) 0.26238(5)
O1 O 0.4648(9) 0.2088(11) 0.5173(17)
H1 H 0.480612 0.230228 0.553360
H2 H 0.473142 0.174698 0.534060
O2 O 0.4758(6) 0.2997(11) 0.4582(14)
H3 H 0.499865 0.302374 0.502645
H4 H 0.481005 0.322494 0.439464
O3 O 0.1783(8) 0.2869(9) 0.1383(10)
H5 H 0.168853 0.320082 0.121259
H6 H 0.163133 0.263802 0.105619
O4 O 0.1714(9) 0.1977(11) 0.214(2)
H7 H 0.169477 0.176048 0.242688
H8 H 0.146207 0.190928 0.175848
O5 O 0.3572(8) 0.1769(7) 0.4092(10)
O6 O 0.2728(8) 0.1917(6) 0.3402(10)
O9 O 0.3728(7) 0.3103(7) 0.3270(9)
O10 O 0.2858(7) 0.3186(6) 0.2450(8)
O13 O 0.4409(6) 0.1438(6) 0.4066(8)
O14 O 0.4530(8) 0.2108(9) 0.3670(14)
C1 C 0.3124(12) 0.1656(9) 0.3845(14)
C2 C 0.3108(10) 0.1208(10) 0.4231(13)
C4 C 0.2674(11) 0.1145(11) 0.4133(16)
H9 H 0.238981 0.137093 0.381757
C5 C 0.3493(11) 0.0834(10) 0.4655(14)
H10 H 0.379081 0.087444 0.472879
C6 C 0.2656(12) 0.0747(12) 0.4504(18)
H11 H 0.237229 0.074687 0.446425
C7 C 0.3474(10) 0.0421(10) 0.4965(13)
H12 H 0.373955 0.016279 0.521817
C8 C 0.3020(12) 0.0364(11) 0.4912(17)
C17 C 0.3310(10) 0.3316(9) 0.2713(13)
C18 C 0.3368(11) 0.3703(10) 0.2338(14)
C19 C 0.2928(13) 0.3925(12) 0.1730(16)
H17 H 0.261010 0.382113 0.157613
C20 C 0.3806(18) 0.388(2) 0.252(3)
H18 H 0.410685 0.373848 0.293314
C21 C 0.2948(15) 0.4317(15) 0.1328(17)
H19 H 0.265506 0.450369 0.095466
C22 C 0.3861(16) 0.4228(19) 0.219(2)
H20 H 0.418042 0.435940 0.237075
C23 C 0.3377(16) 0.4395(13) 0.150(2)
C24 C 0.3483(16) 0.4825(13) 0.117(2)
C25 C 0.3470(15) 0.5138(11) 0.0803(19)
C26 C 0.3449(15) 0.5559(12) 0.0397(19)
C28 C 0.3908(15) 0.5832(13) 0.0684(17)
H22 H 0.421102 0.573256 0.112198
C30 C 0.3916(12) 0.6244(11) 0.0324(12)
H24 H 0.421645 0.644504 0.053735
C33 C 0.4613(12) 0.1654(12) 0.3848(18)
C34 C 0.4831(12) 0.1202(14) 0.3687(17)
C35 C 0.5058(15) 0.1385(15) 0.343(2)
H25 H 0.503085 0.175927 0.331435
C36 C 0.4863(9) 0.0669(11) 0.3814(11)
H26 H 0.471644 0.054710 0.398633
C37 C 0.5313(15) 0.1040(15) 0.333(2)
H27 H 0.548890 0.118021 0.320426
C38 C 0.5099(10) 0.0260(12) 0.3716(12)
C39 C 0.5302(11) 0.0459(12) 0.3422(15)
C40 C 0.5599(11) 0.0114(13) 0.3353(14)
O17 O 0.3432(8) 0.2025(7) 0.2859(8)
O18 O 0.2551(8) 0.1992(6) 0.2144(8)
O19 O 0.3863(6) 0.2957(6) 0.4513(8)
O20 O 0.3032(7) 0.3045(7) 0.3668(8)
O21 O 0.1967(6) 0.3506(6) 0.2488(8)
O22 O 0.1991(8) 0.2840(7) 0.3125(13)
O11 O 0.3863(6) 0.7043(6) 0.9513(8)
O12 O 0.3032(7) 0.6955(7) 0.8668(8)
C27 C 0.3025(16) 0.5681(12) 0.975(2)
H21 H 0.272513 0.548220 0.953997
C29 C 0.3024(12) 0.6094(12) 0.9380(16)
H23 H 0.271625 0.619511 0.894843
C31 C 0.3477(10) 0.6362(9) 0.9644(11)
C32 C 0.3480(9) 0.6805(9) 0.9279(10)
Gd4 Gd 0.40547(4) 0.76522(4) 0.89978(6)
Gd7 Gd 0.24023(4) 0.73483(4) 0.76238(5)
O7 O 0.3432(8) 0.7975(7) 0.7859(8)
O8 O 0.2551(8) 0.8008(6) 0.7144(8)
O15 O 0.6967(6) 0.8506(6) 0.2488(8)
O16 O 0.6991(8) 0.7840(7) 0.3125(13)
C3 C 0.3019(13) 0.8507(11) 0.6879(15)
C9 C 0.3030(11) 0.9955(9) 0.5302(13)
C10 C 0.3002(13) 0.9616(10) 0.5607(16)
C11 C 0.2535(15) 0.9083(13) 0.5833(17)
H13 H 0.221991 0.922223 0.543962
C12 C 0.3444(15) 0.9022(11) 0.6580(19)
H14 H 0.374809 0.911003 0.668691
C13 C 0.2979(14) 0.9227(11) 0.5984(17)
C14 C 0.2561(14) 0.8732(12) 0.6267(15)
H15 H 0.225498 0.863393 0.615050
C15 C 0.3450(15) 0.8677(13) 0.7023(19)
H16 H 0.376590 0.856115 0.743516
C16 C 0.3022(11) 0.8122(9) 0.7344(11)
H28 H 0.512120 0.988844 0.383385
C41 C 0.5795(11) 0.9780(14) 0.3255(16)
C42 C 0.6035(10) 0.9396(12) 0.3116(14)
C43 C 0.6218(11) 0.8896(12) 0.3444(16)
H29 H 0.615341 0.877938 0.371997
C44 C 0.6169(11) 0.9588(12) 0.2737(15)
H30 H 0.609530 0.995174 0.257324
C45 C 0.6505(11) 0.8552(12) 0.3369(17)
H31 H 0.663539 0.821152 0.359397
C46 C 0.6408(11) 0.9229(11) 0.2616(15)
H32 H 0.644391 0.932669 0.230513
C47 C 0.6586(10) 0.8745(10) 0.2944(15)
C48 C 0.6854(12) 0.8314(11) 0.2821(17)
Gd5 Gd 0.74023(4) 0.76517(4) 0.26238(5)
C35_2 C 0.0058(15) 0.6385(15) 0.343(2)
H25_2 H 0.003085 0.675927 0.331435
C37_2 C 0.0313(15) 0.6040(15) 0.333(2)
H27_2 H 0.048890 0.618021 0.320426
C38_2 C 0.0099(10) 0.5260(12) 0.3716(12)
H28_2 H 0.012120 0.488844 0.383385
C39_2 C 0.0302(11) 0.5459(12) 0.3422(15)
C40_2 C 0.0599(11) 0.5114(13) 0.3353(14)
C41_2 C 0.0795(11) 0.4780(14) 0.3255(16)
C42_2 C 0.1035(10) 0.4396(12) 0.3116(14)
C43_2 C 0.1218(11) 0.3896(12) 0.3444(16)
H29_2 H 0.115341 0.377938 0.371997
C44_2 C 0.1169(11) 0.4588(12) 0.2737(15)
H30_2 H 0.109530 0.495174 0.257324
C45_2 C 0.1505(11) 0.3552(12) 0.3369(17)
H31_2 H 0.163539 0.321152 0.359397
C46_2 C 0.1408(11) 0.4229(11) 0.2616(15)
H32_2 H 0.144391 0.432669 0.230513
C47_2 C 0.1586(10) 0.3745(10) 0.2944(15)
C48_2 C 0.1854(12) 0.3314(11) 0.2821(17)
O11_2 O 0.8863(6) 0.2043(6) 0.9513(8)
O12_2 O 0.8032(7) 0.1955(7) 0.8668(8)
C27_2 C 0.8025(16) 0.0681(12) 0.975(2)
H21_2 H 0.772513 0.048220 0.953997
C29_2 C 0.8024(12) 0.1094(12) 0.9380(16)
H23_2 H 0.771625 0.119511 0.894843
C31_2 C 0.8477(10) 0.1362(9) 0.9644(11)
C32_2 C 0.8480(9) 0.1805(9) 0.9279(10)
Gd4_2 Gd 0.90547(4) 0.26522(4) 0.89978(6)
Gd7_2 Gd 0.74023(4) 0.23483(4) 0.76238(5)
Gd1_2 Gd 0.90547(4) 0.73478(4) 0.39978(6)
O1_2 O 0.9648(9) 0.7088(11) 0.5173(17)
H1_2 H 0.980612 0.730228 0.553360
H2_2 H 0.973142 0.674698 0.534060
O2_2 O 0.9758(6) 0.7997(11) 0.4582(14)
H3_2 H 0.999865 0.802374 0.502645
H4_2 H 0.981005 0.822494 0.439464
O3_2 O 0.6783(8) 0.7869(9) 0.1383(10)
H5_2 H 0.668853 0.820082 0.121259
H6_2 H 0.663133 0.763802 0.105619
O4_2 O 0.6714(9) 0.6977(11) 0.214(2)
H7_2 H 0.669477 0.676048 0.242688
H8_2 H 0.646207 0.690928 0.175848
O5_2 O 0.8572(8) 0.6769(7) 0.4092(10)
O6_2 O 0.7728(8) 0.6917(6) 0.3402(10)
O7_2 O 0.8432(8) 0.2975(7) 0.7859(8)
O8_2 O 0.7551(8) 0.3008(6) 0.7144(8)
O9_2 O 0.8728(7) 0.8103(7) 0.3270(9)
O10_2 O 0.7858(7) 0.8186(6) 0.2450(8)
O13_2 O 0.9409(6) 0.6438(6) 0.4066(8)
O14_2 O 0.9530(8) 0.7108(9) 0.3670(14)
C1_2 C 0.8124(12) 0.6656(9) 0.3845(14)
C2_2 C 0.8108(10) 0.6208(10) 0.4231(13)
C3_2 C 0.8019(13) 0.3507(11) 0.6879(15)
C4_2 C 0.7674(11) 0.6145(11) 0.4133(16)
H9_2 H 0.738981 0.637093 0.381757
C5_2 C 0.8493(11) 0.5834(10) 0.4655(14)
H10_2 H 0.879081 0.587444 0.472879
C6_2 C 0.7656(12) 0.5747(12) 0.4504(18)
H11_2 H 0.737229 0.574687 0.446425
C7_2 C 0.8474(10) 0.5421(10) 0.4965(13)
H12_2 H 0.873955 0.516279 0.521817
C8_2 C 0.8020(12) 0.5364(11) 0.4912(17)
C9_2 C 0.8030(11) 0.4955(9) 0.5302(13)
C10_2 C 0.8002(13) 0.4616(10) 0.5607(16)
C11_2 C 0.7535(15) 0.4083(13) 0.5833(17)
H13_2 H 0.721991 0.422223 0.543962
C12_2 C 0.8444(15) 0.4022(11) 0.6580(19)
H14_2 H 0.874809 0.411003 0.668691
C13_2 C 0.7979(14) 0.4227(11) 0.5984(17)
C14_2 C 0.7561(14) 0.3732(12) 0.6267(15)
H15_2 H 0.725498 0.363393 0.615050
C15_2 C 0.8450(15) 0.3677(13) 0.7023(19)
H16_2 H 0.876590 0.356115 0.743516
C16_2 C 0.8022(11) 0.3122(9) 0.7344(11)
C17_2 C 0.8310(10) 0.8316(9) 0.2713(13)
C18_2 C 0.8368(11) 0.8703(10) 0.2338(14)
C19_2 C 0.7928(13) 0.8925(12) 0.1730(16)
H17_2 H 0.761010 0.882113 0.157613
C20_2 C 0.8806(18) 0.888(2) 0.252(3)
H18_2 H 0.910685 0.873848 0.293314
C21_2 C 0.7948(15) 0.9317(15) 0.1328(17)
H19_2 H 0.765506 0.950369 0.095466
C22_2 C 0.8861(16) 0.9228(19) 0.219(2)
H20_2 H 0.918042 0.935940 0.237075
C23_2 C 0.8377(16) 0.9395(13) 0.150(2)
C24_2 C 0.8483(16) 0.9825(13) 0.117(2)
C33_2 C 0.9613(12) 0.6654(12) 0.3848(18)
C34_2 C 0.9831(12) 0.6202(14) 0.3687(17)
C36_2 C 0.9863(9) 0.5669(11) 0.3814(11)
H26_2 H 0.971644 0.554710 0.398633
O17_2 O 0.8432(8) 0.7025(7) 0.2859(8)
O18_2 O 0.7551(8) 0.6992(6) 0.2144(8)
O19_2 O 0.8863(6) 0.7957(6) 0.4513(8)
O20_2 O 0.8032(7) 0.8045(7) 0.3668(8)
C3_3 C 0.3019(13) 0.1493(11) 0.1879(15)
C9_3 C 0.3030(11) 0.0045(9) 0.0302(13)
C10_3 C 0.3002(13) 0.0384(10) 0.0607(16)
C11_3 C 0.2535(15) 0.0917(13) 0.0833(17)
H13_3 H 0.221991 0.077777 0.043962
C12_3 C 0.3444(15) 0.0978(11) 0.1580(19)
H14_3 H 0.374809 0.088997 0.168691
C13_3 C 0.2979(14) 0.0773(11) 0.0984(17)
C14_3 C 0.2561(14) 0.1268(12) 0.1267(15)
H15_3 H 0.225498 0.136607 0.115050
C15_3 C 0.3450(15) 0.1323(13) 0.2023(19)
H16_3 H 0.376590 0.143885 0.243516
C16_3 C 0.3022(11) 0.1878(9) 0.2344(11)
O15_2 O 0.6967(6) 0.1494(6) 0.7488(8)
O16_2 O 0.6991(8) 0.2160(7) 0.8125(13)
H28_3 H 0.512120 0.011156 0.883385
C41_3 C 0.5795(11) 0.0220(14) 0.8255(16)
C42_3 C 0.6035(10) 0.0604(12) 0.8116(14)
C43_3 C 0.6218(11) 0.1104(12) 0.8444(16)
H29_3 H 0.615341 0.122062 0.871997
C44_3 C 0.6169(11) 0.0412(12) 0.7737(15)
H30_3 H 0.609530 0.004826 0.757324
C45_3 C 0.6505(11) 0.1448(12) 0.8369(17)
H31_3 H 0.663539 0.178848 0.859397
C46_3 C 0.6408(11) 0.0771(11) 0.7616(15)
H32_3 H 0.644391 0.067331 0.730513
C47_3 C 0.6586(10) 0.1255(10) 0.7944(15)
C48_3 C 0.6854(12) 0.1686(11) 0.7821(17)
O2_3 O 0.4758(6) 0.7003(11) 0.9582(14)
H4_3 H 0.481005 0.677506 0.939464
O3_3 O 0.1783(8) 0.7131(9) 0.6383(10)
H5_3 H 0.168853 0.679918 0.621259
H6_3 H 0.163133 0.736198 0.605619
O4_3 O 0.1714(9) 0.8023(11) 0.714(2)
H7_3 H 0.169477 0.823952 0.742688
H8_3 H 0.146207 0.809072 0.675848
O5_3 O 0.3572(8) 0.8231(7) 0.9092(10)
O6_3 O 0.2728(8) 0.8083(6) 0.8402(10)
O9_3 O 0.3728(7) 0.6897(7) 0.8270(9)
O10_3 O 0.2858(7) 0.6814(6) 0.7450(8)
O13_3 O 0.4409(6) 0.8562(6) 0.9066(8)
O14_3 O 0.4530(8) 0.7892(9) 0.8670(14)
C1_3 C 0.3124(12) 0.8344(9) 0.8845(14)
C2_3 C 0.3108(10) 0.8792(10) 0.9231(13)
C4_3 C 0.2674(11) 0.8855(11) 0.9133(16)
H9_3 H 0.238981 0.862907 0.881757
C5_3 C 0.3493(11) 0.9166(10) 0.9655(14)
H10_3 H 0.379081 0.912556 0.972879
C6_3 C 0.2656(12) 0.9253(12) 0.9504(18)
H11_3 H 0.237229 0.925313 0.946425
C7_3 C 0.3474(10) 0.9579(10) 0.9965(13)
C8_3 C 0.3020(12) 0.9636(11) 0.9912(17)
C17_3 C 0.3310(10) 0.6684(9) 0.7713(13)
C18_3 C 0.3368(11) 0.6297(10) 0.7338(14)
C19_3 C 0.2928(13) 0.6075(12) 0.6730(16)
H17_3 H 0.261010 0.617887 0.657613
C20_3 C 0.3806(18) 0.612(2) 0.752(3)
H18_3 H 0.410685 0.626152 0.793314
C21_3 C 0.2948(15) 0.5683(15) 0.6328(17)
H19_3 H 0.265506 0.549631 0.595466
C22_3 C 0.3861(16) 0.5772(19) 0.719(2)
H20_3 H 0.418042 0.564060 0.737075
C23_3 C 0.3377(16) 0.5605(13) 0.650(2)
C24_3 C 0.3483(16) 0.5175(13) 0.617(2)
C25_2 C 0.3470(15) 0.4862(11) 0.5803(19)
C26_2 C 0.3449(15) 0.4441(12) 0.5397(19)
C27_3 C 0.3025(16) 0.4319(12) 0.475(2)
H21_3 H 0.272513 0.451780 0.453997
C28_2 C 0.3908(15) 0.4168(13) 0.5684(17)
H22_2 H 0.421102 0.426744 0.612198
C29_3 C 0.3024(12) 0.3906(12) 0.4380(16)
H23_3 H 0.271625 0.380489 0.394843
C30_2 C 0.3916(12) 0.3756(11) 0.5324(12)
H24_2 H 0.421645 0.355496 0.553735
C31_3 C 0.3477(10) 0.3638(9) 0.4644(11)
C32_3 C 0.3480(9) 0.3195(9) 0.4279(10)
C33_3 C 0.4613(12) 0.8346(12) 0.8848(18)
C34_3 C 0.4831(12) 0.8798(14) 0.8687(17)
C35_3 C 0.5058(15) 0.8615(15) 0.843(2)
H25_3 H 0.503085 0.824073 0.831435
C36_3 C 0.4863(9) 0.9331(11) 0.8814(11)
H26_3 H 0.471644 0.945290 0.898633
C37_3 C 0.5313(15) 0.8960(15) 0.833(2)
H27_3 H 0.548890 0.881979 0.820426
C38_3 C 0.5099(10) 0.9740(12) 0.8716(12)
C39_3 C 0.5302(11) 0.9541(12) 0.8422(15)
C40_3 C 0.5599(11) 0.9886(13) 0.8353(14)
O21_2 O 0.1967(6) 0.6494(6) 0.7488(8)
O22_2 O 0.1991(8) 0.7160(7) 0.8125(13)
C35_4 C 0.0058(15) 0.3615(15) 0.843(2)
H25_4 H 0.003085 0.324073 0.831435
C37_4 C 0.0313(15) 0.3960(15) 0.833(2)
H27_4 H 0.048890 0.381979 0.820426
C38_4 C 0.0099(10) 0.4740(12) 0.8716(12)
H28_4 H 0.012120 0.511156 0.883385
C39_4 C 0.0302(11) 0.4541(12) 0.8422(15)
C40_4 C 0.0599(11) 0.4886(13) 0.8353(14)
C41_4 C 0.0795(11) 0.5220(14) 0.8255(16)
C42_4 C 0.1035(10) 0.5604(12) 0.8116(14)
C43_4 C 0.1218(11) 0.6104(12) 0.8444(16)
H29_4 H 0.115341 0.622062 0.871997
C44_4 C 0.1169(11) 0.5412(12) 0.7737(15)
H30_4 H 0.109530 0.504826 0.757324
C45_4 C 0.1505(11) 0.6448(12) 0.8369(17)
H31_4 H 0.163539 0.678848 0.859397
C46_4 C 0.1408(11) 0.5771(11) 0.7616(15)
H32_4 H 0.144391 0.567331 0.730513
C47_4 C 0.1586(10) 0.6255(10) 0.7944(15)
C48_4 C 0.1854(12) 0.6686(11) 0.7821(17)
O1_3 O 0.9648(9) 0.2912(11) 0.0173(17)
H1_3 H 0.980612 0.269772 0.053360
H2_3 H 0.973142 0.325302 0.034060
H3_3 H 0.999865 0.197626 0.002645
C3_4 C 0.8019(13) 0.6493(11) 0.1879(15)
H12_3 H 0.873955 0.483721 0.021817
C9_4 C 0.8030(11) 0.5045(9) 0.0302(13)
C10_4 C 0.8002(13) 0.5384(10) 0.0607(16)
C11_4 C 0.7535(15) 0.5917(13) 0.0833(17)
H13_4 H 0.721991 0.577777 0.043962
C12_4 C 0.8444(15) 0.5978(11) 0.1580(19)
H14_4 H 0.874809 0.588997 0.168691
C13_4 C 0.7979(14) 0.5773(11) 0.0984(17)
C14_4 C 0.7561(14) 0.6268(12) 0.1267(15)
H15_4 H 0.725498 0.636607 0.115050
C15_4 C 0.8450(15) 0.6323(13) 0.2023(19)
H16_4 H 0.876590 0.643885 0.243516
C16_4 C 0.8022(11) 0.6878(9) 0.2344(11)
O2_4 O 0.9758(6) 0.2003(11) 0.9582(14)
H4_4 H 0.981005 0.177506 0.939464
O3_4 O 0.6783(8) 0.2131(9) 0.6383(10)
H5_4 H 0.668853 0.179918 0.621259
H6_4 H 0.663133 0.236198 0.605619
O4_4 O 0.6714(9) 0.3023(11) 0.714(2)
H7_4 H 0.669477 0.323952 0.742688
H8_4 H 0.646207 0.309072 0.675848
O5_4 O 0.8572(8) 0.3231(7) 0.9092(10)
O6_4 O 0.7728(8) 0.3083(6) 0.8402(10)
O9_4 O 0.8728(7) 0.1897(7) 0.8270(9)
O10_4 O 0.7858(7) 0.1814(6) 0.7450(8)
O13_4 O 0.9409(6) 0.3562(6) 0.9066(8)
O14_4 O 0.9530(8) 0.2892(9) 0.8670(14)
C1_4 C 0.8124(12) 0.3344(9) 0.8845(14)
C2_4 C 0.8108(10) 0.3792(10) 0.9231(13)
C4_4 C 0.7674(11) 0.3855(11) 0.9133(16)
H9_4 H 0.738981 0.362907 0.881757
C5_4 C 0.8493(11) 0.4166(10) 0.9655(14)
H10_4 H 0.879081 0.412556 0.972879
C6_4 C 0.7656(12) 0.4253(12) 0.9504(18)
H11_4 H 0.737229 0.425313 0.946425
C7_4 C 0.8474(10) 0.4579(10) 0.9965(13)
C8_4 C 0.8020(12) 0.4636(11) 0.9912(17)
C17_4 C 0.8310(10) 0.1684(9) 0.7713(13)
C18_4 C 0.8368(11) 0.1297(10) 0.7338(14)
C19_4 C 0.7928(13) 0.1075(12) 0.6730(16)
H17_4 H 0.761010 0.117887 0.657613
C20_4 C 0.8806(18) 0.112(2) 0.752(3)
H18_4 H 0.910685 0.126152 0.793314
C21_4 C 0.7948(15) 0.0683(15) 0.6328(17)
H19_4 H 0.765506 0.049631 0.595466
C22_4 C 0.8861(16) 0.0772(19) 0.719(2)
H20_4 H 0.918042 0.064060 0.737075
C23_4 C 0.8377(16) 0.0605(13) 0.650(2)
C24_4 C 0.8483(16) 0.0175(13) 0.617(2)
C33_4 C 0.9613(12) 0.3346(12) 0.8848(18)
C34_4 C 0.9831(12) 0.3798(14) 0.8687(17)
C36_4 C 0.9863(9) 0.4331(11) 0.8814(11)
H26_4 H 0.971644 0.445290 0.898633
C25_3 C 0.8470(15) 0.9862(11) 0.5803(19)
C26_3 C 0.8449(15) 0.9441(12) 0.5397(19)
C27_4 C 0.8025(16) 0.9319(12) 0.475(2)
H21_4 H 0.772513 0.951780 0.453997
C28_3 C 0.8908(15) 0.9168(13) 0.5684(17)
H22_3 H 0.921102 0.926744 0.612198
C29_4 C 0.8024(12) 0.8906(12) 0.4380(16)
H23_4 H 0.771625 0.880489 0.394843
C30_3 C 0.8916(12) 0.8756(11) 0.5324(12)
H24_3 H 0.921645 0.855496 0.553735
C31_4 C 0.8477(10) 0.8638(9) 0.4644(11)
C32_4 C 0.8480(9) 0.8195(9) 0.4279(10)
Gd1_3 Gd 0.59453(4) 0.23478(4) 0.10022(6)
Gd2_2 Gd 0.75977(4) 0.26517(4) 0.23762(5)
O2_5 O 0.5242(6) 0.2997(11) 0.0418(14)
H4_5 H 0.518995 0.322494 0.060536
O3_5 O 0.8217(8) 0.2869(9) 0.3617(10)
H5_5 H 0.831147 0.320082 0.378741
H6_5 H 0.836867 0.263802 0.394381
O4_5 O 0.8286(9) 0.1977(11) 0.286(2)
H7_5 H 0.830523 0.176048 0.257312
H8_5 H 0.853793 0.190928 0.324152
O5_5 O 0.6428(8) 0.1769(7) 0.0908(10)
O6_5 O 0.7272(8) 0.1917(6) 0.1598(10)
O9_5 O 0.6272(7) 0.3103(7) 0.1730(9)
O10_5 O 0.7142(7) 0.3186(6) 0.2550(8)
O11_3 O 0.6137(6) 0.7043(6) 0.5487(8)
O12_3 O 0.6968(7) 0.6955(7) 0.6332(8)
O13_5 O 0.5591(6) 0.1438(6) 0.0934(8)
O14_5 O 0.5470(8) 0.2108(9) 0.1330(14)
C1_5 C 0.6876(12) 0.1656(9) 0.1155(14)
C2_5 C 0.6892(10) 0.1208(10) 0.0769(13)
C4_5 C 0.7326(11) 0.1145(11) 0.0867(16)
H9_5 H 0.761019 0.137093 0.118243
C5_5 C 0.6507(11) 0.0834(10) 0.0345(14)
H10_5 H 0.620919 0.087444 0.027121
C6_5 C 0.7344(12) 0.0747(12) 0.0496(18)
H11_5 H 0.762771 0.074687 0.053575
C7_5 C 0.6526(10) 0.0421(10) 0.0035(13)
C8_5 C 0.6980(12) 0.0364(11) 0.0088(17)
C17_5 C 0.6690(10) 0.3316(9) 0.2287(13)
C18_5 C 0.6632(11) 0.3703(10) 0.2662(14)
C19_5 C 0.7072(13) 0.3925(12) 0.3270(16)
H17_5 H 0.738990 0.382113 0.342387
C20_5 C 0.6194(18) 0.388(2) 0.248(3)
H18_5 H 0.589315 0.373848 0.206686
C21_5 C 0.7052(15) 0.4317(15) 0.3672(17)
H19_5 H 0.734494 0.450369 0.404534
C22_5 C 0.6139(16) 0.4228(19) 0.281(2)
H20_5 H 0.581958 0.435940 0.262925
C23_5 C 0.6623(16) 0.4395(13) 0.350(2)
C24_5 C 0.6517(16) 0.4825(13) 0.383(2)
C25_4 C 0.6530(15) 0.5138(11) 0.4197(19)
C26_4 C 0.6551(15) 0.5559(12) 0.4603(19)
C27_5 C 0.6975(16) 0.5681(12) 0.525(2)
H21_5 H 0.727487 0.548220 0.546003
C28_4 C 0.6092(15) 0.5832(13) 0.4316(17)
H22_4 H 0.578898 0.573256 0.387802
C29_5 C 0.6976(12) 0.6094(12) 0.5620(16)
H23_5 H 0.728375 0.619511 0.605157
C30_4 C 0.6084(12) 0.6244(11) 0.4676(12)
H24_4 H 0.578355 0.644504 0.446265
C31_5 C 0.6523(10) 0.6362(9) 0.5356(11)
C32_5 C 0.6520(9) 0.6805(9) 0.5721(10)
C33_5 C 0.5387(12) 0.1654(12) 0.1152(18)
C34_5 C 0.5169(12) 0.1202(14) 0.1313(17)
C35_5 C 0.4942(15) 0.1385(15) 0.157(2)
H25_5 H 0.496915 0.175927 0.168565
C36_5 C 0.5137(9) 0.0669(11) 0.1186(11)
H26_5 H 0.528356 0.054710 0.101367
C37_5 C 0.4687(15) 0.1040(15) 0.167(2)
H27_5 H 0.451110 0.118021 0.179574
C38_5 C 0.4901(10) 0.0260(12) 0.1284(12)
C39_5 C 0.4698(11) 0.0459(12) 0.1578(15)
C40_5 C 0.4401(11) 0.0114(13) 0.1647(14)
Gd4_3 Gd 0.59453(4) 0.76522(4) 0.60022(6)
Gd7_3 Gd 0.75977(4) 0.73483(4) 0.73762(5)
O17_3 O 0.6568(8) 0.2025(7) 0.2141(8)
O18_3 O 0.7449(8) 0.1992(6) 0.2856(8)
O19_3 O 0.6137(6) 0.2957(6) 0.0487(8)
O20_3 O 0.6968(7) 0.3045(7) 0.1332(8)
O21_3 O 0.8033(6) 0.3506(6) 0.2512(8)
O22_3 O 0.8009(8) 0.2840(7) 0.1875(13)
O15_3 O 0.3033(6) 0.8506(6) 0.2512(8)
O16_3 O 0.3009(8) 0.7840(7) 0.1875(13)
H28_5 H 0.487880 0.988844 0.116615
C41_5 C 0.4205(11) 0.9780(14) 0.1745(16)
C42_5 C 0.3965(10) 0.9396(12) 0.1884(14)
C43_5 C 0.3782(11) 0.8896(12) 0.1556(16)
H29_5 H 0.384659 0.877938 0.128003
C44_5 C 0.3831(11) 0.9588(12) 0.2263(15)
H30_5 H 0.390470 0.995174 0.242676
C45_5 C 0.3495(11) 0.8552(12) 0.1631(17)
H31_5 H 0.336461 0.821152 0.140603
C46_5 C 0.3592(11) 0.9229(11) 0.2384(15)
H32_5 H 0.355609 0.932669 0.269487
C47_5 C 0.3414(10) 0.8745(10) 0.2056(15)
C48_5 C 0.3146(12) 0.8314(11) 0.2179(17)
Gd5_2 Gd 0.25977(4) 0.76517(4) 0.23762(5)
O7_3 O 0.6568(8) 0.7975(7) 0.7141(8)
O8_3 O 0.7449(8) 0.8008(6) 0.7856(8)
C3_5 C 0.6981(13) 0.8507(11) 0.8121(15)
C9_5 C 0.6970(11) 0.9955(9) 0.9698(13)
C10_5 C 0.6998(13) 0.9616(10) 0.9393(16)
C11_5 C 0.7465(15) 0.9083(13) 0.9167(17)
H13_5 H 0.778009 0.922223 0.956038
C12_5 C 0.6556(15) 0.9022(11) 0.8420(19)
H14_5 H 0.625191 0.911003 0.831309
C13_5 C 0.7021(14) 0.9227(11) 0.9016(17)
C14_5 C 0.7439(14) 0.8732(12) 0.8733(15)
H15_5 H 0.774502 0.863393 0.884950
C15_5 C 0.6550(15) 0.8677(13) 0.7977(19)
H16_5 H 0.623410 0.856115 0.756484
C16_5 C 0.6978(11) 0.8122(9) 0.7656(11)
O11_4 O 0.1137(6) 0.2043(6) 0.5487(8)
O12_4 O 0.1968(7) 0.1955(7) 0.6332(8)
C25_5 C 0.1530(15) 0.0138(11) 0.4197(19)
C26_5 C 0.1551(15) 0.0559(12) 0.4603(19)
C27_6 C 0.1975(16) 0.0681(12) 0.525(2)
H21_6 H 0.227487 0.048220 0.546003
C28_5 C 0.1092(15) 0.0832(13) 0.4316(17)
H22_5 H 0.078898 0.073256 0.387802
C29_6 C 0.1976(12) 0.1094(12) 0.5620(16)
H23_6 H 0.228375 0.119511 0.605157
C30_5 C 0.1084(12) 0.1244(11) 0.4676(12)
H24_5 H 0.078355 0.144504 0.446265
C31_6 C 0.1523(10) 0.1362(9) 0.5356(11)
C32_6 C 0.1520(9) 0.1805(9) 0.5721(10)
Gd4_4 Gd 0.09453(4) 0.26522(4) 0.60022(6)
Gd7_4 Gd 0.25977(4) 0.23483(4) 0.73762(5)
Gd1_4 Gd 0.09453(4) 0.73478(4) 0.10022(6)
O2_6 O 0.0242(6) 0.7997(11) 0.0418(14)
H4_6 H 0.018995 0.822494 0.060536
O3_6 O 0.3217(8) 0.7869(9) 0.3617(10)
H5_6 H 0.331147 0.820082 0.378741
H6_6 H 0.336867 0.763802 0.394381
O4_6 O 0.3286(9) 0.6977(11) 0.286(2)
H7_6 H 0.330523 0.676048 0.257312
H8_6 H 0.353793 0.690928 0.324152
O5_6 O 0.1428(8) 0.6769(7) 0.0908(10)
O6_6 O 0.2272(8) 0.6917(6) 0.1598(10)
O9_6 O 0.1272(7) 0.8103(7) 0.1730(9)
O10_6 O 0.2142(7) 0.8186(6) 0.2550(8)
O13_6 O 0.0591(6) 0.6438(6) 0.0934(8)
O14_6 O 0.0470(8) 0.7108(9) 0.1330(14)
C1_6 C 0.1876(12) 0.6656(9) 0.1155(14)
C2_6 C 0.1892(10) 0.6208(10) 0.0769(13)
C4_6 C 0.2326(11) 0.6145(11) 0.0867(16)
H9_6 H 0.261019 0.637093 0.118243
C5_6 C 0.1507(11) 0.5834(10) 0.0345(14)
H10_6 H 0.120919 0.587444 0.027121
C6_6 C 0.2344(12) 0.5747(12) 0.0496(18)
H11_6 H 0.262771 0.574687 0.053575
C7_6 C 0.1526(10) 0.5421(10) 0.0035(13)
C8_6 C 0.1980(12) 0.5364(11) 0.0088(17)
C17_6 C 0.1690(10) 0.8316(9) 0.2287(13)
C18_6 C 0.1632(11) 0.8703(10) 0.2662(14)
C19_6 C 0.2072(13) 0.8925(12) 0.3270(16)
H17_6 H 0.238990 0.882113 0.342387
C20_6 C 0.1194(18) 0.888(2) 0.248(3)
H18_6 H 0.089315 0.873848 0.206686
C21_6 C 0.2052(15) 0.9317(15) 0.3672(17)
H19_6 H 0.234494 0.950369 0.404534
C22_6 C 0.1139(16) 0.9228(19) 0.281(2)
H20_6 H 0.081958 0.935940 0.262925
C23_6 C 0.1623(16) 0.9395(13) 0.350(2)
C24_6 C 0.1517(16) 0.9825(13) 0.383(2)
C33_6 C 0.0387(12) 0.6654(12) 0.1152(18)
C34_6 C 0.0169(12) 0.6202(14) 0.1313(17)
C36_6 C 0.0137(9) 0.5669(11) 0.1186(11)
H26_6 H 0.028356 0.554710 0.101367
O17_4 O 0.1568(8) 0.7025(7) 0.2141(8)
O18_4 O 0.2449(8) 0.6992(6) 0.2856(8)
O19_4 O 0.1137(6) 0.7957(6) 0.0487(8)
O20_4 O 0.1968(7) 0.8045(7) 0.1332(8)
O1_4 O 0.0352(9) 0.7088(11) 0.9827(17)
H1_4 H 0.019388 0.730228 0.946640
H2_4 H 0.026858 0.674698 0.965940
H3_4 H 0.000135 0.802374 0.997355
O7_4 O 0.1568(8) 0.2975(7) 0.7141(8)
O8_4 O 0.2449(8) 0.3008(6) 0.7856(8)
C3_6 C 0.1981(13) 0.3507(11) 0.8121(15)
H12_4 H 0.126045 0.516279 0.978183
C9_6 C 0.1970(11) 0.4955(9) 0.9698(13)
C10_6 C 0.1998(13) 0.4616(10) 0.9393(16)
C11_6 C 0.2465(15) 0.4083(13) 0.9167(17)
H13_6 H 0.278009 0.422223 0.956038
C12_6 C 0.1556(15) 0.4022(11) 0.8420(19)
H14_6 H 0.125191 0.411003 0.831309
C13_6 C 0.2021(14) 0.4227(11) 0.9016(17)
C14_6 C 0.2439(14) 0.3732(12) 0.8733(15)
H15_6 H 0.274502 0.363393 0.884950
C15_6 C 0.1550(15) 0.3677(13) 0.7977(19)
H16_6 H 0.123410 0.356115 0.756484
C16_6 C 0.1978(11) 0.3122(9) 0.7656(11)
C35_6 C 0.9942(15) 0.6385(15) 0.157(2)
H25_6 H 0.996915 0.675927 0.168565
C37_6 C 0.9687(15) 0.6040(15) 0.167(2)
H27_6 H 0.951110 0.618021 0.179574
C38_6 C 0.9901(10) 0.5260(12) 0.1284(12)
H28_6 H 0.987880 0.488844 0.116615
C39_6 C 0.9698(11) 0.5459(12) 0.1578(15)
C40_6 C 0.9401(11) 0.5114(13) 0.1647(14)
C41_6 C 0.9205(11) 0.4780(14) 0.1745(16)
C42_6 C 0.8965(10) 0.4396(12) 0.1884(14)
C43_6 C 0.8782(11) 0.3896(12) 0.1556(16)
H29_6 H 0.884659 0.377938 0.128003
C44_6 C 0.8831(11) 0.4588(12) 0.2263(15)
H30_6 H 0.890470 0.495174 0.242676
C45_6 C 0.8495(11) 0.3552(12) 0.1631(17)
H31_6 H 0.836461 0.321152 0.140603
C46_6 C 0.8592(11) 0.4229(11) 0.2384(15)
H32_6 H 0.855609 0.432669 0.269487
C47_6 C 0.8414(10) 0.3745(10) 0.2056(15)
C48_6 C 0.8146(12) 0.3314(11) 0.2179(17)
O15_4 O 0.3033(6) 0.1494(6) 0.7512(8)
O16_4 O 0.3009(8) 0.2160(7) 0.6875(13)
C3_7 C 0.6981(13) 0.1493(11) 0.3121(15)
C9_7 C 0.6970(11) 0.0045(9) 0.4698(13)
C10_7 C 0.6998(13) 0.0384(10) 0.4393(16)
C11_7 C 0.7465(15) 0.0917(13) 0.4167(17)
H13_7 H 0.778009 0.077777 0.456038
C12_7 C 0.6556(15) 0.0978(11) 0.3420(19)
H14_7 H 0.625191 0.088997 0.331309
C13_7 C 0.7021(14) 0.0773(11) 0.4016(17)
C14_7 C 0.7439(14) 0.1268(12) 0.3733(15)
H15_7 H 0.774502 0.136607 0.384950
C15_7 C 0.6550(15) 0.1323(13) 0.2977(19)
H16_7 H 0.623410 0.143885 0.256484
C16_7 C 0.6978(11) 0.1878(9) 0.2656(11)
H28_7 H 0.487880 0.011156 0.616615
C41_7 C 0.4205(11) 0.0220(14) 0.6745(16)
C42_7 C 0.3965(10) 0.0604(12) 0.6884(14)
C43_7 C 0.3782(11) 0.1104(12) 0.6556(16)
H29_7 H 0.384659 0.122062 0.628003
C44_7 C 0.3831(11) 0.0412(12) 0.7263(15)
H30_7 H 0.390470 0.004826 0.742676
C45_7 C 0.3495(11) 0.1448(12) 0.6631(17)
H31_7 H 0.336461 0.178848 0.640603
C46_7 C 0.3592(11) 0.0771(11) 0.7384(15)
H32_7 H 0.355609 0.067331 0.769487
C47_7 C 0.3414(10) 0.1255(10) 0.7056(15)
C48_7 C 0.3146(12) 0.1686(11) 0.7179(17)
C27_7 C 0.6975(16) 0.4319(12) 0.025(2)
H21_7 H 0.727487 0.451780 0.046003
C29_7 C 0.6976(12) 0.3906(12) 0.0620(16)
H23_7 H 0.728375 0.380489 0.105157
C31_7 C 0.6523(10) 0.3638(9) 0.0356(11)
C32_7 C 0.6520(9) 0.3195(9) 0.0721(10)
O1_5 O 0.5352(9) 0.7912(11) 0.4827(17)
H1_5 H 0.519388 0.769772 0.446640
H2_5 H 0.526858 0.825302 0.465940
O2_7 O 0.5242(6) 0.7003(11) 0.5418(14)
H3_5 H 0.500135 0.697626 0.497355
H4_7 H 0.518995 0.677506 0.560536
O3_7 O 0.8217(8) 0.7131(9) 0.8617(10)
H5_7 H 0.831147 0.679918 0.878741
H6_7 H 0.836867 0.736198 0.894381
O4_7 O 0.8286(9) 0.8023(11) 0.786(2)
H7_7 H 0.830523 0.823952 0.757312
H8_7 H 0.853793 0.809072 0.824152
O5_7 O 0.6428(8) 0.8231(7) 0.5908(10)
O6_7 O 0.7272(8) 0.8083(6) 0.6598(10)
O9_7 O 0.6272(7) 0.6897(7) 0.6730(9)
O10_7 O 0.7142(7) 0.6814(6) 0.7550(8)
O13_7 O 0.5591(6) 0.8562(6) 0.5934(8)
O14_7 O 0.5470(8) 0.7892(9) 0.6330(14)
C1_7 C 0.6876(12) 0.8344(9) 0.6155(14)
C2_7 C 0.6892(10) 0.8792(10) 0.5769(13)
C4_7 C 0.7326(11) 0.8855(11) 0.5867(16)
H9_7 H 0.761019 0.862907 0.618243
C5_7 C 0.6507(11) 0.9166(10) 0.5345(14)
H10_7 H 0.620919 0.912556 0.527121
C6_7 C 0.7344(12) 0.9253(12) 0.5496(18)
H11_7 H 0.762771 0.925313 0.553575
C7_7 C 0.6526(10) 0.9579(10) 0.5035(13)
H12_5 H 0.626045 0.983721 0.478183
C8_7 C 0.6980(12) 0.9636(11) 0.5088(17)
C17_7 C 0.6690(10) 0.6684(9) 0.7287(13)
C18_7 C 0.6632(11) 0.6297(10) 0.7662(14)
C19_7 C 0.7072(13) 0.6075(12) 0.8270(16)
H17_7 H 0.738990 0.617887 0.842387
C20_7 C 0.6194(18) 0.612(2) 0.748(3)
H18_7 H 0.589315 0.626152 0.706686
C21_7 C 0.7052(15) 0.5683(15) 0.8672(17)
H19_7 H 0.734494 0.549631 0.904534
C22_7 C 0.6139(16) 0.5772(19) 0.781(2)
H20_7 H 0.581958 0.564060 0.762925
C23_7 C 0.6623(16) 0.5605(13) 0.850(2)
C24_7 C 0.6517(16) 0.5175(13) 0.883(2)
C25_6 C 0.6530(15) 0.4862(11) 0.9197(19)
C26_6 C 0.6551(15) 0.4441(12) 0.9603(19)
C28_6 C 0.6092(15) 0.4168(13) 0.9316(17)
H22_6 H 0.578898 0.426744 0.887802
C30_6 C 0.6084(12) 0.3756(11) 0.9676(12)
H24_6 H 0.578355 0.355496 0.946265
C33_7 C 0.5387(12) 0.8346(12) 0.6152(18)
C34_7 C 0.5169(12) 0.8798(14) 0.6313(17)
C35_7 C 0.4942(15) 0.8615(15) 0.657(2)
H25_7 H 0.496915 0.824073 0.668565
C36_7 C 0.5137(9) 0.9331(11) 0.6186(11)
H26_7 H 0.528356 0.945290 0.601367
C37_7 C 0.4687(15) 0.8960(15) 0.667(2)
H27_7 H 0.451110 0.881979 0.679574
C38_7 C 0.4901(10) 0.9740(12) 0.6284(12)
C39_7 C 0.4698(11) 0.9541(12) 0.6578(15)
C40_7 C 0.4401(11) 0.9886(13) 0.6647(14)
O21_4 O 0.8033(6) 0.6494(6) 0.7512(8)
O22_4 O 0.8009(8) 0.7160(7) 0.6875(13)
O1_6 O 0.0352(9) 0.2912(11) 0.4827(17)
H1_6 H 0.019388 0.269772 0.446640
H2_6 H 0.026858 0.325302 0.465940
O2_8 O 0.0242(6) 0.2003(11) 0.5418(14)
H3_6 H 0.000135 0.197626 0.497355
H4_8 H 0.018995 0.177506 0.560536
O3_8 O 0.3217(8) 0.2131(9) 0.8617(10)
H5_8 H 0.331147 0.179918 0.878741
H6_8 H 0.336867 0.236198 0.894381
O4_8 O 0.3286(9) 0.3023(11) 0.786(2)
H7_8 H 0.330523 0.323952 0.757312
H8_8 H 0.353793 0.309072 0.824152
O5_8 O 0.1428(8) 0.3231(7) 0.5908(10)
O6_8 O 0.2272(8) 0.3083(6) 0.6598(10)
O9_8 O 0.1272(7) 0.1897(7) 0.6730(9)
O10_8 O 0.2142(7) 0.1814(6) 0.7550(8)
O13_8 O 0.0591(6) 0.3562(6) 0.5934(8)
O14_8 O 0.0470(8) 0.2892(9) 0.6330(14)
C1_8 C 0.1876(12) 0.3344(9) 0.6155(14)
C2_8 C 0.1892(10) 0.3792(10) 0.5769(13)
C3_8 C 0.1981(13) 0.6493(11) 0.3121(15)
C4_8 C 0.2326(11) 0.3855(11) 0.5867(16)
H9_8 H 0.261019 0.362907 0.618243
C5_8 C 0.1507(11) 0.4166(10) 0.5345(14)
H10_8 H 0.120919 0.412556 0.527121
C6_8 C 0.2344(12) 0.4253(12) 0.5496(18)
H11_8 H 0.262771 0.425313 0.553575
C7_8 C 0.1526(10) 0.4579(10) 0.5035(13)
H12_6 H 0.126045 0.483721 0.478183
C8_8 C 0.1980(12) 0.4636(11) 0.5088(17)
C9_8 C 0.1970(11) 0.5045(9) 0.4698(13)
C10_8 C 0.1998(13) 0.5384(10) 0.4393(16)
C11_8 C 0.2465(15) 0.5917(13) 0.4167(17)
H13_8 H 0.278009 0.577777 0.456038
C12_8 C 0.1556(15) 0.5978(11) 0.3420(19)
H14_8 H 0.125191 0.588997 0.331309
C13_8 C 0.2021(14) 0.5773(11) 0.4016(17)
C14_8 C 0.2439(14) 0.6268(12) 0.3733(15)
H15_8 H 0.274502 0.636607 0.384950
C15_8 C 0.1550(15) 0.6323(13) 0.2977(19)
H16_8 H 0.123410 0.643885 0.256484
C16_8 C 0.1978(11) 0.6878(9) 0.2656(11)
C17_8 C 0.1690(10) 0.1684(9) 0.7287(13)
C18_8 C 0.1632(11) 0.1297(10) 0.7662(14)
C19_8 C 0.2072(13) 0.1075(12) 0.8270(16)
H17_8 H 0.238990 0.117887 0.842387
C20_8 C 0.1194(18) 0.112(2) 0.748(3)
H18_8 H 0.089315 0.126152 0.706686
C21_8 C 0.2052(15) 0.0683(15) 0.8672(17)
H19_8 H 0.234494 0.049631 0.904534
C22_8 C 0.1139(16) 0.0772(19) 0.781(2)
H20_8 H 0.081958 0.064060 0.762925
C23_8 C 0.1623(16) 0.0605(13) 0.850(2)
C24_8 C 0.1517(16) 0.0175(13) 0.883(2)
C33_8 C 0.0387(12) 0.3346(12) 0.6152(18)
C34_8 C 0.0169(12) 0.3798(14) 0.6313(17)
C36_8 C 0.0137(9) 0.4331(11) 0.6186(11)
H26_8 H 0.028356 0.445290 0.601367
C27_8 C 0.1975(16) 0.9319(12) 0.025(2)
H21_8 H 0.227487 0.951780 0.046003
C29_8 C 0.1976(12) 0.8906(12) 0.0620(16)
H23_8 H 0.228375 0.880489 0.105157
C31_8 C 0.1523(10) 0.8638(9) 0.0356(11)
C32_8 C 0.1520(9) 0.8195(9) 0.0721(10)
C35_8 C 0.9942(15) 0.3615(15) 0.657(2)
H25_8 H 0.996915 0.324073 0.668565
C37_8 C 0.9687(15) 0.3960(15) 0.667(2)
H27_8 H 0.951110 0.381979 0.679574
C38_8 C 0.9901(10) 0.4740(12) 0.6284(12)
H28_8 H 0.987880 0.511156 0.616615
C39_8 C 0.9698(11) 0.4541(12) 0.6578(15)
C40_8 C 0.9401(11) 0.4886(13) 0.6647(14)
C41_8 C 0.9205(11) 0.5220(14) 0.6745(16)
C42_8 C 0.8965(10) 0.5604(12) 0.6884(14)
C43_8 C 0.8782(11) 0.6104(12) 0.6556(16)
H29_8 H 0.884659 0.622062 0.628003
C44_8 C 0.8831(11) 0.5412(12) 0.7263(15)
H30_8 H 0.890470 0.504826 0.742676
C45_8 C 0.8495(11) 0.6448(12) 0.6631(17)
H31_8 H 0.836461 0.678848 0.640603
C46_8 C 0.8592(11) 0.5771(11) 0.7384(15)
H32_8 H 0.855609 0.567331 0.769487
C47_8 C 0.8414(10) 0.6255(10) 0.7056(15)
C48_8 C 0.8146(12) 0.6686(11) 0.7179(17)
O1_7 O 0.5352(9) 0.2088(11) 0.9827(17)
H1_7 H 0.519388 0.230228 0.946640
H2_7 H 0.526858 0.174698 0.965940
H3_7 H 0.500135 0.302374 0.997355
H12_7 H 0.626045 0.016279 0.978183
C25_7 C 0.8470(15) 0.0138(11) 0.0803(19)
C26_7 C 0.8449(15) 0.0559(12) 0.0397(19)
C28_7 C 0.8908(15) 0.0832(13) 0.0684(17)
H22_7 H 0.921102 0.073256 0.112198
C30_7 C 0.8916(12) 0.1244(11) 0.0324(12)
H24_7 H 0.921645 0.144504 0.053735
O1_8 O 0.4648(9) 0.7912(11) 0.0173(17)
H1_8 H 0.480612 0.769772 0.053360
H2_8 H 0.473142 0.825302 0.034060
H3_8 H 0.499865 0.697626 0.002645
H12_8 H 0.373955 0.983721 0.021817
C25_8 C 0.1530(15) 0.9862(11) 0.9197(19)
C26_8 C 0.1551(15) 0.9441(12) 0.9603(19)
C28_8 C 0.1092(15) 0.9168(13) 0.9316(17)
H22_8 H 0.078898 0.926744 0.887802
C30_8 C 0.1084(12) 0.8756(11) 0.9676(12)
H24_8 H 0.078355 0.855496 0.946265
loop_
_geom_bond_atom_site_label_1
_geom_bond_atom_site_label_2
_geom_bond_site_symmetry_1
_geom_bond_site_symmetry_2
Gd1 O1 1_555 1_555
Gd2 O3 1_555 1_555
O1 H1 1_555 1_555
H2 O1 1_555 1_555
O2 Gd1 1_555 1_555
H3 O2 1_555 1_555
H4 O2 1_555 1_555
O3 H5 1_555 1_555
H6 O3 1_555 1_555
O4 Gd2 1_555 1_555
H7 O4 1_555 1_555
H8 O4 1_555 1_555
O5 Gd1 1_555 1_555
O6 Gd2 1_555 1_555
O9 Gd1 1_555 1_555
O10 Gd2 1_555 1_555
O13 Gd1 1_555 1_555
O14 Gd1 1_555 1_555
C1 O5 1_555 1_555
C2 C1 1_555 1_555
C4 C2 1_555 1_555
H9 C4 1_555 1_555
C5 C2 1_555 1_555
H10 C5 1_555 1_555
C6 C4 1_555 1_555
H11 C6 1_555 1_555
C7 C5 1_555 1_555
H12 C7 1_555 1_555
C8 C6 1_555 1_555
C17 O9 1_555 1_555
C18 C17 1_555 1_555
C19 C18 1_555 1_555
H17 C19 1_555 1_555
C20 C18 1_555 1_555
H18 C20 1_555 1_555
C21 C19 1_555 1_555
H19 C21 1_555 1_555
C22 C20 1_555 1_555
H20 C22 1_555 1_555
C23 C21 1_555 1_555
C24 C23 1_555 1_555
C25 C24 1_555 1_555
C26 C25 1_555 1_555
C28 C26 1_555 1_555
H22 C28 1_555 1_555
C30 C28 1_555 1_555
H24 C30 1_555 1_555
C33 O13 1_555 1_555
C34 C33 1_555 1_555
C35 C34 1_555 1_555
H25 C35 1_555 1_555
C36 C34 1_555 1_555
H26 C36 1_555 1_555
C37 C35 1_555 1_555
H27 C37 1_555 1_555
C38 C36 1_555 1_555
C39 C37 1_555 1_555
C40 C39 1_555 1_555
O17 Gd1 1_555 1_555
O18 Gd2 1_555 1_555
O19 Gd1 1_555 1_555
O20 Gd2 1_555 1_555
O21 Gd2 1_555 1_555
O22 Gd2 1_555 1_555
O6 C1 1_555 1_555
O10 C17 1_555 1_555
O14 C33 1_555 1_555
C7 C8 1_555 1_555
C22 C23 1_555 1_555
C38 C39 1_555 1_555
O11 C32 1_555 1_555
O12 C32 1_555 1_555
H21 C27 1_555 1_555
C29 C27 1_555 1_555
H23 C29 1_555 1_555
C31 C29 1_555 1_555
C32 C31 1_555 1_555
Gd4 O11 1_555 1_555
Gd7 O12 1_555 1_555
O7 C16 1_555 1_555
O8 C16 1_555 1_555
O15 C48 1_555 1_555
O16 C48 1_555 1_555
C3 C14 1_555 1_555
C10 C9 1_555 1_555
C11 H13 1_555 1_555
C12 H14 1_555 1_555
C13 C10 1_555 1_555
C14 C11 1_555 1_555
H15 C14 1_555 1_555
C15 C3 1_555 1_555
H16 C15 1_555 1_555
C16 C3 1_555 1_555
C42 C41 1_555 1_555
C43 C42 1_555 1_555
H29 C43 1_555 1_555
C44 C42 1_555 1_555
H30 C44 1_555 1_555
C45 C43 1_555 1_555
H31 C45 1_555 1_555
C46 C44 1_555 1_555
H32 C46 1_555 1_555
C47 C45 1_555 1_555
C48 C47 1_555 1_555
Gd4 O7 1_555 1_555
Gd5 O15 1_555 1_555
Gd7 O8 1_555 1_555
O16 Gd5 1_555 1_555
C11 C13 1_555 1_555
C12 C13 1_555 1_555
C12 C15 1_555 1_555
C46 C47 1_555 1_555
O21 C48_2 1_555 1_555
O22 C48_2 1_555 1_555
H25_2 C35_2 1_555 1_555
C37_2 C35_2 1_555 1_555
H27_2 C37_2 1_555 1_555
H28_2 C38_2 1_555 1_555
C39_2 C37_2 1_555 1_555
C40_2 C39_2 1_555 1_555
C41_2 C40_2 1_555 1_555
C42_2 C41_2 1_555 1_555
C43_2 C42_2 1_555 1_555
H29_2 C43_2 1_555 1_555
C44_2 C42_2 1_555 1_555
H30_2 C44_2 1_555 1_555
C45_2 C43_2 1_555 1_555
H31_2 C45_2 1_555 1_555
C46_2 C44_2 1_555 1_555
H32_2 C46_2 1_555 1_555
C47_2 C45_2 1_555 1_555
C48_2 C47_2 1_555 1_555
C38_2 C39_2 1_555 1_555
C46_2 C47_2 1_555 1_555
O11_2 C32_2 1_555 1_555
O12_2 C32_2 1_555 1_555
H21_2 C27_2 1_555 1_555
C29_2 C27_2 1_555 1_555
H23_2 C29_2 1_555 1_555
C31_2 C29_2 1_555 1_555
C32_2 C31_2 1_555 1_555
Gd4_2 O11_2 1_555 1_555
Gd7_2 O12_2 1_555 1_555
Gd1_2 O1_2 1_555 1_555
Gd5 O3_2 1_555 1_555
O1_2 H1_2 1_555 1_555
H2_2 O1_2 1_555 1_555
O2_2 Gd1_2 1_555 1_555
H3_2 O2_2 1_555 1_555
H4_2 O2_2 1_555 1_555
O3_2 H5_2 1_555 1_555
H6_2 O3_2 1_555 1_555
O4_2 Gd5 1_555 1_555
H7_2 O4_2 1_555 1_555
H8_2 O4_2 1_555 1_555
O5_2 Gd1_2 1_555 1_555
O6_2 Gd5 1_555 1_555
O7_2 C16_2 1_555 1_555
O8_2 C16_2 1_555 1_555
O9_2 Gd1_2 1_555 1_555
O10_2 Gd5 1_555 1_555
O13_2 Gd1_2 1_555 1_555
O14_2 Gd1_2 1_555 1_555
C1_2 O5_2 1_555 1_555
C2_2 C1_2 1_555 1_555
C3_2 C14_2 1_555 1_555
C4_2 C2_2 1_555 1_555
H9_2 C4_2 1_555 1_555
C5_2 C2_2 1_555 1_555
H10_2 C5_2 1_555 1_555
C6_2 C4_2 1_555 1_555
H11_2 C6_2 1_555 1_555
C7_2 C5_2 1_555 1_555
H12_2 C7_2 1_555 1_555
C8_2 C6_2 1_555 1_555
C9_2 C8_2 1_555 1_555
C10_2 C9_2 1_555 1_555
C11_2 H13_2 1_555 1_555
C12_2 H14_2 1_555 1_555
C13_2 C10_2 1_555 1_555
C14_2 C11_2 1_555 1_555
H15_2 C14_2 1_555 1_555
C15_2 C3_2 1_555 1_555
H16_2 C15_2 1_555 1_555
C16_2 C3_2 1_555 1_555
C17_2 O9_2 1_555 1_555
C18_2 C17_2 1_555 1_555
C19_2 C18_2 1_555 1_555
H17_2 C19_2 1_555 1_555
C20_2 C18_2 1_555 1_555
H18_2 C20_2 1_555 1_555
C21_2 C19_2 1_555 1_555
H19_2 C21_2 1_555 1_555
C22_2 C20_2 1_555 1_555
H20_2 C22_2 1_555 1_555
C23_2 C21_2 1_555 1_555
C24_2 C23_2 1_555 1_555
C33_2 O13_2 1_555 1_555
C34_2 C33_2 1_555 1_555
C36_2 C34_2 1_555 1_555
H26_2 C36_2 1_555 1_555
Gd4_2 O7_2 1_555 1_555
Gd7_2 O8_2 1_555 1_555
O17_2 Gd1_2 1_555 1_555
O18_2 Gd5 1_555 1_555
O19_2 Gd1_2 1_555 1_555
O20_2 Gd5 1_555 1_555
O6_2 C1_2 1_555 1_555
O10_2 C17_2 1_555 1_555
O14_2 C33_2 1_555 1_555
C7_2 C8_2 1_555 1_555
C11_2 C13_2 1_555 1_555
C12_2 C13_2 1_555 1_555
C12_2 C15_2 1_555 1_555
C22_2 C23_2 1_555 1_555
O17 C16_3 1_555 1_555
O18 C16_3 1_555 1_555
C3_3 C14_3 1_555 1_555
C10_3 C9_3 1_555 1_555
C11_3 H13_3 1_555 1_555
C12_3 H14_3 1_555 1_555
C13_3 C10_3 1_555 1_555
C14_3 C11_3 1_555 1_555
H15_3 C14_3 1_555 1_555
C15_3 C3_3 1_555 1_555
H16_3 C15_3 1_555 1_555
C16_3 C3_3 1_555 1_555
C11_3 C13_3 1_555 1_555
C12_3 C13_3 1_555 1_555
C12_3 C15_3 1_555 1_555
O15_2 C48_3 1_555 1_555
O16_2 C48_3 1_555 1_555
C42_3 C41_3 1_555 1_555
C43_3 C42_3 1_555 1_555
H29_3 C43_3 1_555 1_555
C44_3 C42_3 1_555 1_555
H30_3 C44_3 1_555 1_555
C45_3 C43_3 1_555 1_555
H31_3 C45_3 1_555 1_555
C46_3 C44_3 1_555 1_555
H32_3 C46_3 1_555 1_555
C47_3 C45_3 1_555 1_555
C48_3 C47_3 1_555 1_555
Gd7_2 O15_2 1_555 1_555
O16_2 Gd7_2 1_555 1_555
C46_3 C47_3 1_555 1_555
Gd7 O3_3 1_555 1_555
O2_3 Gd4 1_555 1_555
H4_3 O2_3 1_555 1_555
O3_3 H5_3 1_555 1_555
H6_3 O3_3 1_555 1_555
O4_3 Gd7 1_555 1_555
H7_3 O4_3 1_555 1_555
H8_3 O4_3 1_555 1_555
O5_3 Gd4 1_555 1_555
O6_3 Gd7 1_555 1_555
O9_3 Gd4 1_555 1_555
O10_3 Gd7 1_555 1_555
O19 C32_3 1_555 1_555
O20 C32_3 1_555 1_555
O13_3 Gd4 1_555 1_555
O14_3 Gd4 1_555 1_555
C1_3 O5_3 1_555 1_555
C2_3 C1_3 1_555 1_555
C4_3 C2_3 1_555 1_555
H9_3 C4_3 1_555 1_555
C5_3 C2_3 1_555 1_555
H10_3 C5_3 1_555 1_555
C6_3 C4_3 1_555 1_555
H11_3 C6_3 1_555 1_555
C7_3 C5_3 1_555 1_555
C8_3 C6_3 1_555 1_555
C17_3 O9_3 1_555 1_555
C18_3 C17_3 1_555 1_555
C19_3 C18_3 1_555 1_555
H17_3 C19_3 1_555 1_555
C20_3 C18_3 1_555 1_555
H18_3 C20_3 1_555 1_555
C21_3 C19_3 1_555 1_555
H19_3 C21_3 1_555 1_555
C22_3 C20_3 1_555 1_555
H20_3 C22_3 1_555 1_555
C23_3 C21_3 1_555 1_555
C24_3 C23_3 1_555 1_555
C25_2 C24_3 1_555 1_555
C26_2 C25_2 1_555 1_555
C27_3 C26_2 1_555 1_555
H21_3 C27_3 1_555 1_555
C28_2 C26_2 1_555 1_555
H22_2 C28_2 1_555 1_555
C29_3 C27_3 1_555 1_555
H23_3 C29_3 1_555 1_555
C30_2 C28_2 1_555 1_555
H24_2 C30_2 1_555 1_555
C31_3 C29_3 1_555 1_555
C32_3 C31_3 1_555 1_555
C33_3 O13_3 1_555 1_555
C34_3 C33_3 1_555 1_555
C35_3 C34_3 1_555 1_555
H25_3 C35_3 1_555 1_555
C36_3 C34_3 1_555 1_555
H26_3 C36_3 1_555 1_555
C37_3 C35_3 1_555 1_555
H27_3 C37_3 1_555 1_555
C38_3 C36_3 1_555 1_555
C39_3 C37_3 1_555 1_555
C40_3 C39_3 1_555 1_555
O21_2 Gd7 1_555 1_555
O22_2 Gd7 1_555 1_555
O6_3 C1_3 1_555 1_555
O10_3 C17_3 1_555 1_555
O14_3 C33_3 1_555 1_555
C7_3 C8_3 1_555 1_555
C22_3 C23_3 1_555 1_555
C30_2 C31_3 1_555 1_555
C38_3 C39_3 1_555 1_555
O21_2 C48_4 1_555 1_555
O22_2 C48_4 1_555 1_555
H25_4 C35_4 1_555 1_555
C37_4 C35_4 1_555 1_555
H27_4 C37_4 1_555 1_555
H28_4 C38_4 1_555 1_555
C39_4 C37_4 1_555 1_555
C40_4 C39_4 1_555 1_555
C41_4 C40_4 1_555 1_555
C42_4 C41_4 1_555 1_555
C43_4 C42_4 1_555 1_555
H29_4 C43_4 1_555 1_555
C44_4 C42_4 1_555 1_555
H30_4 C44_4 1_555 1_555
C45_4 C43_4 1_555 1_555
H31_4 C45_4 1_555 1_555
C46_4 C44_4 1_555 1_555
H32_4 C46_4 1_555 1_555
C47_4 C45_4 1_555 1_555
C48_4 C47_4 1_555 1_555
C38_4 C39_4 1_555 1_555
C46_4 C47_4 1_555 1_555
O1_3 H1_3 1_555 1_555
H2_3 O1_3 1_555 1_555
O17_2 C16_4 1_555 1_555
O18_2 C16_4 1_555 1_555
C3_4 C14_4 1_555 1_555
C10_4 C9_4 1_555 1_555
C11_4 H13_4 1_555 1_555
C12_4 H14_4 1_555 1_555
C13_4 C10_4 1_555 1_555
C14_4 C11_4 1_555 1_555
H15_4 C14_4 1_555 1_555
C15_4 C3_4 1_555 1_555
H16_4 C15_4 1_555 1_555
C16_4 C3_4 1_555 1_555
C11_4 C13_4 1_555 1_555
C12_4 C13_4 1_555 1_555
C12_4 C15_4 1_555 1_555
Gd7_2 O3_4 1_555 1_555
O2_4 Gd4_2 1_555 1_555
H4_4 O2_4 1_555 1_555
O3_4 H5_4 1_555 1_555
H6_4 O3_4 1_555 1_555
O4_4 Gd7_2 1_555 1_555
H7_4 O4_4 1_555 1_555
H8_4 O4_4 1_555 1_555
O5_4 Gd4_2 1_555 1_555
O6_4 Gd7_2 1_555 1_555
O9_4 Gd4_2 1_555 1_555
O10_4 Gd7_2 1_555 1_555
O13_4 Gd4_2 1_555 1_555
O14_4 Gd4_2 1_555 1_555
C1_4 O5_4 1_555 1_555
C2_4 C1_4 1_555 1_555
C4_4 C2_4 1_555 1_555
H9_4 C4_4 1_555 1_555
C5_4 C2_4 1_555 1_555
H10_4 C5_4 1_555 1_555
C6_4 C4_4 1_555 1_555
H11_4 C6_4 1_555 1_555
C7_4 C5_4 1_555 1_555
C8_4 C6_4 1_555 1_555
C17_4 O9_4 1_555 1_555
C18_4 C17_4 1_555 1_555
C19_4 C18_4 1_555 1_555
H17_4 C19_4 1_555 1_555
C20_4 C18_4 1_555 1_555
H18_4 C20_4 1_555 1_555
C21_4 C19_4 1_555 1_555
H19_4 C21_4 1_555 1_555
C22_4 C20_4 1_555 1_555
H20_4 C22_4 1_555 1_555
C23_4 C21_4 1_555 1_555
C24_4 C23_4 1_555 1_555
C33_4 O13_4 1_555 1_555
C34_4 C33_4 1_555 1_555
C36_4 C34_4 1_555 1_555
H26_4 C36_4 1_555 1_555
O6_4 C1_4 1_555 1_555
O10_4 C17_4 1_555 1_555
O14_4 C33_4 1_555 1_555
C7_4 C8_4 1_555 1_555
C22_4 C23_4 1_555 1_555
O19_2 C32_4 1_555 1_555
O20_2 C32_4 1_555 1_555
C26_3 C25_3 1_555 1_555
C27_4 C26_3 1_555 1_555
H21_4 C27_4 1_555 1_555
C28_3 C26_3 1_555 1_555
H22_3 C28_3 1_555 1_555
C29_4 C27_4 1_555 1_555
H23_4 C29_4 1_555 1_555
C30_3 C28_3 1_555 1_555
H24_3 C30_3 1_555 1_555
C31_4 C29_4 1_555 1_555
C32_4 C31_4 1_555 1_555
C30_3 C31_4 1_555 1_555
Gd2_2 O3_5 1_555 1_555
O2_5 Gd1_3 1_555 1_555
H4_5 O2_5 1_555 1_555
O3_5 H5_5 1_555 1_555
H6_5 O3_5 1_555 1_555
O4_5 Gd2_2 1_555 1_555
H7_5 O4_5 1_555 1_555
H8_5 O4_5 1_555 1_555
O5_5 Gd1_3 1_555 1_555
O6_5 Gd2_2 1_555 1_555
O9_5 Gd1_3 1_555 1_555
O10_5 Gd2_2 1_555 1_555
O11_3 C32_5 1_555 1_555
O12_3 C32_5 1_555 1_555
O13_5 Gd1_3 1_555 1_555
O14_5 Gd1_3 1_555 1_555
C1_5 O5_5 1_555 1_555
C2_5 C1_5 1_555 1_555
C4_5 C2_5 1_555 1_555
H9_5 C4_5 1_555 1_555
C5_5 C2_5 1_555 1_555
H10_5 C5_5 1_555 1_555
C6_5 C4_5 1_555 1_555
H11_5 C6_5 1_555 1_555
C7_5 C5_5 1_555 1_555
C8_5 C6_5 1_555 1_555
C17_5 O9_5 1_555 1_555
C18_5 C17_5 1_555 1_555
C19_5 C18_5 1_555 1_555
H17_5 C19_5 1_555 1_555
C20_5 C18_5 1_555 1_555
H18_5 C20_5 1_555 1_555
C21_5 C19_5 1_555 1_555
H19_5 C21_5 1_555 1_555
C22_5 C20_5 1_555 1_555
H20_5 C22_5 1_555 1_555
C23_5 C21_5 1_555 1_555
C24_5 C23_5 1_555 1_555
C25_4 C24_5 1_555 1_555
C26_4 C25_4 1_555 1_555
C27_5 C26_4 1_555 1_555
H21_5 C27_5 1_555 1_555
C28_4 C26_4 1_555 1_555
H22_4 C28_4 1_555 1_555
C29_5 C27_5 1_555 1_555
H23_5 C29_5 1_555 1_555
C30_4 C28_4 1_555 1_555
H24_4 C30_4 1_555 1_555
C31_5 C29_5 1_555 1_555
C32_5 C31_5 1_555 1_555
C33_5 O13_5 1_555 1_555
C34_5 C33_5 1_555 1_555
C35_5 C34_5 1_555 1_555
H25_5 C35_5 1_555 1_555
C36_5 C34_5 1_555 1_555
H26_5 C36_5 1_555 1_555
C37_5 C35_5 1_555 1_555
H27_5 C37_5 1_555 1_555
C38_5 C36_5 1_555 1_555
C39_5 C37_5 1_555 1_555
C40_5 C39_5 1_555 1_555
Gd4_3 O11_3 1_555 1_555
Gd7_3 O12_3 1_555 1_555
O17_3 Gd1_3 1_555 1_555
O18_3 Gd2_2 1_555 1_555
O19_3 Gd1_3 1_555 1_555
O20_3 Gd2_2 1_555 1_555
O21_3 Gd2_2 1_555 1_555
O22_3 Gd2_2 1_555 1_555
O6_5 C1_5 1_555 1_555
O10_5 C17_5 1_555 1_555
O14_5 C33_5 1_555 1_555
C7_5 C8_5 1_555 1_555
C22_5 C23_5 1_555 1_555
C30_4 C31_5 1_555 1_555
C38_5 C39_5 1_555 1_555
O15_3 C48_5 1_555 1_555
O16_3 C48_5 1_555 1_555
C42_5 C41_5 1_555 1_555
C43_5 C42_5 1_555 1_555
H29_5 C43_5 1_555 1_555
C44_5 C42_5 1_555 1_555
H30_5 C44_5 1_555 1_555
C45_5 C43_5 1_555 1_555
H31_5 C45_5 1_555 1_555
C46_5 C44_5 1_555 1_555
H32_5 C46_5 1_555 1_555
C47_5 C45_5 1_555 1_555
C48_5 C47_5 1_555 1_555
Gd5_2 O15_3 1_555 1_555
O16_3 Gd5_2 1_555 1_555
C46_5 C47_5 1_555 1_555
O7_3 C16_5 1_555 1_555
O8_3 C16_5 1_555 1_555
C3_5 C14_5 1_555 1_555
C10_5 C9_5 1_555 1_555
C11_5 H13_5 1_555 1_555
C12_5 H14_5 1_555 1_555
C13_5 C10_5 1_555 1_555
C14_5 C11_5 1_555 1_555
H15_5 C14_5 1_555 1_555
C15_5 C3_5 1_555 1_555
H16_5 C15_5 1_555 1_555
C16_5 C3_5 1_555 1_555
Gd4_3 O7_3 1_555 1_555
Gd7_3 O8_3 1_555 1_555
C11_5 C13_5 1_555 1_555
C12_5 C13_5 1_555 1_555
C12_5 C15_5 1_555 1_555
O11_4 C32_6 1_555 1_555
O12_4 C32_6 1_555 1_555
C26_5 C25_5 1_555 1_555
C27_6 C26_5 1_555 1_555
H21_6 C27_6 1_555 1_555
C28_5 C26_5 1_555 1_555
H22_5 C28_5 1_555 1_555
C29_6 C27_6 1_555 1_555
H23_6 C29_6 1_555 1_555
C30_5 C28_5 1_555 1_555
H24_5 C30_5 1_555 1_555
C31_6 C29_6 1_555 1_555
C32_6 C31_6 1_555 1_555
Gd4_4 O11_4 1_555 1_555
Gd7_4 O12_4 1_555 1_555
C30_5 C31_6 1_555 1_555
Gd5_2 O3_6 1_555 1_555
O2_6 Gd1_4 1_555 1_555
H4_6 O2_6 1_555 1_555
O3_6 H5_6 1_555 1_555
H6_6 O3_6 1_555 1_555
O4_6 Gd5_2 1_555 1_555
H7_6 O4_6 1_555 1_555
H8_6 O4_6 1_555 1_555
O5_6 Gd1_4 1_555 1_555
O6_6 Gd5_2 1_555 1_555
O9_6 Gd1_4 1_555 1_555
O10_6 Gd5_2 1_555 1_555
O13_6 Gd1_4 1_555 1_555
O14_6 Gd1_4 1_555 1_555
C1_6 O5_6 1_555 1_555
C2_6 C1_6 1_555 1_555
C4_6 C2_6 1_555 1_555
H9_6 C4_6 1_555 1_555
C5_6 C2_6 1_555 1_555
H10_6 C5_6 1_555 1_555
C6_6 C4_6 1_555 1_555
H11_6 C6_6 1_555 1_555
C7_6 C5_6 1_555 1_555
C8_6 C6_6 1_555 1_555
C17_6 O9_6 1_555 1_555
C18_6 C17_6 1_555 1_555
C19_6 C18_6 1_555 1_555
H17_6 C19_6 1_555 1_555
C20_6 C18_6 1_555 1_555
H18_6 C20_6 1_555 1_555
C21_6 C19_6 1_555 1_555
H19_6 C21_6 1_555 1_555
C22_6 C20_6 1_555 1_555
H20_6 C22_6 1_555 1_555
C23_6 C21_6 1_555 1_555
C24_6 C23_6 1_555 1_555
C33_6 O13_6 1_555 1_555
C34_6 C33_6 1_555 1_555
C36_6 C34_6 1_555 1_555
H26_6 C36_6 1_555 1_555
O17_4 Gd1_4 1_555 1_555
O18_4 Gd5_2 1_555 1_555
O19_4 Gd1_4 1_555 1_555
O20_4 Gd5_2 1_555 1_555
O6_6 C1_6 1_555 1_555
O10_6 C17_6 1_555 1_555
O14_6 C33_6 1_555 1_555
C7_6 C8_6 1_555 1_555
C22_6 C23_6 1_555 1_555
O1_4 H1_4 1_555 1_555
H2_4 O1_4 1_555 1_555
O7_4 C16_6 1_555 1_555
O8_4 C16_6 1_555 1_555
C3_6 C14_6 1_555 1_555
C10_6 C9_6 1_555 1_555
C11_6 H13_6 1_555 1_555
C12_6 H14_6 1_555 1_555
C13_6 C10_6 1_555 1_555
C14_6 C11_6 1_555 1_555
H15_6 C14_6 1_555 1_555
C15_6 C3_6 1_555 1_555
H16_6 C15_6 1_555 1_555
C16_6 C3_6 1_555 1_555
Gd4_4 O7_4 1_555 1_555
Gd7_4 O8_4 1_555 1_555
C11_6 C13_6 1_555 1_555
C12_6 C13_6 1_555 1_555
C12_6 C15_6 1_555 1_555
O21_3 C48_6 1_555 1_555
O22_3 C48_6 1_555 1_555
H25_6 C35_6 1_555 1_555
C37_6 C35_6 1_555 1_555
H27_6 C37_6 1_555 1_555
H28_6 C38_6 1_555 1_555
C39_6 C37_6 1_555 1_555
C40_6 C39_6 1_555 1_555
C41_6 C40_6 1_555 1_555
C42_6 C41_6 1_555 1_555
C43_6 C42_6 1_555 1_555
H29_6 C43_6 1_555 1_555
C44_6 C42_6 1_555 1_555
H30_6 C44_6 1_555 1_555
C45_6 C43_6 1_555 1_555
H31_6 C45_6 1_555 1_555
C46_6 C44_6 1_555 1_555
H32_6 C46_6 1_555 1_555
C47_6 C45_6 1_555 1_555
C48_6 C47_6 1_555 1_555
C38_6 C39_6 1_555 1_555
C46_6 C47_6 1_555 1_555
O17_3 C16_7 1_555 1_555
O18_3 C16_7 1_555 1_555
O15_4 C48_7 1_555 1_555
O16_4 C48_7 1_555 1_555
C3_7 C14_7 1_555 1_555
C10_7 C9_7 1_555 1_555
C11_7 H13_7 1_555 1_555
C12_7 H14_7 1_555 1_555
C13_7 C10_7 1_555 1_555
C14_7 C11_7 1_555 1_555
H15_7 C14_7 1_555 1_555
C15_7 C3_7 1_555 1_555
H16_7 C15_7 1_555 1_555
C16_7 C3_7 1_555 1_555
C42_7 C41_7 1_555 1_555
C43_7 C42_7 1_555 1_555
H29_7 C43_7 1_555 1_555
C44_7 C42_7 1_555 1_555
H30_7 C44_7 1_555 1_555
C45_7 C43_7 1_555 1_555
H31_7 C45_7 1_555 1_555
C46_7 C44_7 1_555 1_555
H32_7 C46_7 1_555 1_555
C47_7 C45_7 1_555 1_555
C48_7 C47_7 1_555 1_555
Gd7_4 O15_4 1_555 1_555
O16_4 Gd7_4 1_555 1_555
C11_7 C13_7 1_555 1_555
C12_7 C13_7 1_555 1_555
C12_7 C15_7 1_555 1_555
C46_7 C47_7 1_555 1_555
O19_3 C32_7 1_555 1_555
O20_3 C32_7 1_555 1_555
H21_7 C27_7 1_555 1_555
C29_7 C27_7 1_555 1_555
H23_7 C29_7 1_555 1_555
C31_7 C29_7 1_555 1_555
C32_7 C31_7 1_555 1_555
Gd4_3 O1_5 1_555 1_555
Gd7_3 O3_7 1_555 1_555
O1_5 H1_5 1_555 1_555
H2_5 O1_5 1_555 1_555
O2_7 Gd4_3 1_555 1_555
H3_5 O2_7 1_555 1_555
H4_7 O2_7 1_555 1_555
O3_7 H5_7 1_555 1_555
H6_7 O3_7 1_555 1_555
O4_7 Gd7_3 1_555 1_555
H7_7 O4_7 1_555 1_555
H8_7 O4_7 1_555 1_555
O5_7 Gd4_3 1_555 1_555
O6_7 Gd7_3 1_555 1_555
O9_7 Gd4_3 1_555 1_555
O10_7 Gd7_3 1_555 1_555
O13_7 Gd4_3 1_555 1_555
O14_7 Gd4_3 1_555 1_555
C1_7 O5_7 1_555 1_555
C2_7 C1_7 1_555 1_555
C4_7 C2_7 1_555 1_555
H9_7 C4_7 1_555 1_555
C5_7 C2_7 1_555 1_555
H10_7 C5_7 1_555 1_555
C6_7 C4_7 1_555 1_555
H11_7 C6_7 1_555 1_555
C7_7 C5_7 1_555 1_555
H12_5 C7_7 1_555 1_555
C8_7 C6_7 1_555 1_555
C17_7 O9_7 1_555 1_555
C18_7 C17_7 1_555 1_555
C19_7 C18_7 1_555 1_555
H17_7 C19_7 1_555 1_555
C20_7 C18_7 1_555 1_555
H18_7 C20_7 1_555 1_555
C21_7 C19_7 1_555 1_555
H19_7 C21_7 1_555 1_555
C22_7 C20_7 1_555 1_555
H20_7 C22_7 1_555 1_555
C23_7 C21_7 1_555 1_555
C24_7 C23_7 1_555 1_555
C25_6 C24_7 1_555 1_555
C26_6 C25_6 1_555 1_555
C28_6 C26_6 1_555 1_555
H22_6 C28_6 1_555 1_555
C30_6 C28_6 1_555 1_555
H24_6 C30_6 1_555 1_555
C33_7 O13_7 1_555 1_555
C34_7 C33_7 1_555 1_555
C35_7 C34_7 1_555 1_555
H25_7 C35_7 1_555 1_555
C36_7 C34_7 1_555 1_555
H26_7 C36_7 1_555 1_555
C37_7 C35_7 1_555 1_555
H27_7 C37_7 1_555 1_555
C38_7 C36_7 1_555 1_555
C39_7 C37_7 1_555 1_555
C40_7 C39_7 1_555 1_555
O21_4 Gd7_3 1_555 1_555
O22_4 Gd7_3 1_555 1_555
O6_7 C1_7 1_555 1_555
O10_7 C17_7 1_555 1_555
O14_7 C33_7 1_555 1_555
C7_7 C8_7 1_555 1_555
C22_7 C23_7 1_555 1_555
C38_7 C39_7 1_555 1_555
Gd4_4 O1_6 1_555 1_555
Gd7_4 O3_8 1_555 1_555
O1_6 H1_6 1_555 1_555
H2_6 O1_6 1_555 1_555
O2_8 Gd4_4 1_555 1_555
H3_6 O2_8 1_555 1_555
H4_8 O2_8 1_555 1_555
O3_8 H5_8 1_555 1_555
H6_8 O3_8 1_555 1_555
O4_8 Gd7_4 1_555 1_555
H7_8 O4_8 1_555 1_555
H8_8 O4_8 1_555 1_555
O5_8 Gd4_4 1_555 1_555
O6_8 Gd7_4 1_555 1_555
O17_4 C16_8 1_555 1_555
O18_4 C16_8 1_555 1_555
O9_8 Gd4_4 1_555 1_555
O10_8 Gd7_4 1_555 1_555
O13_8 Gd4_4 1_555 1_555
O14_8 Gd4_4 1_555 1_555
C1_8 O5_8 1_555 1_555
C2_8 C1_8 1_555 1_555
C3_8 C14_8 1_555 1_555
C4_8 C2_8 1_555 1_555
H9_8 C4_8 1_555 1_555
C5_8 C2_8 1_555 1_555
H10_8 C5_8 1_555 1_555
C6_8 C4_8 1_555 1_555
H11_8 C6_8 1_555 1_555
C7_8 C5_8 1_555 1_555
H12_6 C7_8 1_555 1_555
C8_8 C6_8 1_555 1_555
C9_8 C8_8 1_555 1_555
C10_8 C9_8 1_555 1_555
C11_8 H13_8 1_555 1_555
C12_8 H14_8 1_555 1_555
C13_8 C10_8 1_555 1_555
C14_8 C11_8 1_555 1_555
H15_8 C14_8 1_555 1_555
C15_8 C3_8 1_555 1_555
H16_8 C15_8 1_555 1_555
C16_8 C3_8 1_555 1_555
C17_8 O9_8 1_555 1_555
C18_8 C17_8 1_555 1_555
C19_8 C18_8 1_555 1_555
H17_8 C19_8 1_555 1_555
C20_8 C18_8 1_555 1_555
H18_8 C20_8 1_555 1_555
C21_8 C19_8 1_555 1_555
H19_8 C21_8 1_555 1_555
C22_8 C20_8 1_555 1_555
H20_8 C22_8 1_555 1_555
C23_8 C21_8 1_555 1_555
C24_8 C23_8 1_555 1_555
C33_8 O13_8 1_555 1_555
C34_8 C33_8 1_555 1_555
C36_8 C34_8 1_555 1_555
H26_8 C36_8 1_555 1_555
O6_8 C1_8 1_555 1_555
O10_8 C17_8 1_555 1_555
O14_8 C33_8 1_555 1_555
C7_8 C8_8 1_555 1_555
C11_8 C13_8 1_555 1_555
C12_8 C13_8 1_555 1_555
C12_8 C15_8 1_555 1_555
C22_8 C23_8 1_555 1_555
O19_4 C32_8 1_555 1_555
O20_4 C32_8 1_555 1_555
H21_8 C27_8 1_555 1_555
C29_8 C27_8 1_555 1_555
H23_8 C29_8 1_555 1_555
C31_8 C29_8 1_555 1_555
C32_8 C31_8 1_555 1_555
O21_4 C48_8 1_555 1_555
O22_4 C48_8 1_555 1_555
H25_8 C35_8 1_555 1_555
C37_8 C35_8 1_555 1_555
H27_8 C37_8 1_555 1_555
H28_8 C38_8 1_555 1_555
C39_8 C37_8 1_555 1_555
C40_8 C39_8 1_555 1_555
C41_8 C40_8 1_555 1_555
C42_8 C41_8 1_555 1_555
C43_8 C42_8 1_555 1_555
H29_8 C43_8 1_555 1_555
C44_8 C42_8 1_555 1_555
H30_8 C44_8 1_555 1_555
C45_8 C43_8 1_555 1_555
H31_8 C45_8 1_555 1_555
C46_8 C44_8 1_555 1_555
H32_8 C46_8 1_555 1_555
C47_8 C45_8 1_555 1_555
C48_8 C47_8 1_555 1_555
C38_8 C39_8 1_555 1_555
C46_8 C47_8 1_555 1_555
O1_7 H1_7 1_555 1_555
H2_7 O1_7 1_555 1_555
C26_7 C25_7 1_555 1_555
C28_7 C26_7 1_555 1_555
H22_7 C28_7 1_555 1_555
C30_7 C28_7 1_555 1_555
H24_7 C30_7 1_555 1_555
O1_8 H1_8 1_555 1_555
H2_8 O1_8 1_555 1_555
C26_8 C25_8 1_555 1_555
C28_8 C26_8 1_555 1_555
H22_8 C28_8 1_555 1_555
C30_8 C28_8 1_555 1_555
H24_8 C30_8 1_555 1_555

#END
