
###############################################################################
#
# This file contains modified crystal structure data generated from the
# MOF subset of the Cambridge Structural Database (CSD) v543 
# hosted by the Cambridge Crystallographic Data Centre (CCDC).
#
# This work is licensed under the Creative Commons
# Attribution-NonCommercial-ShareAlike 4.0 International License.
# To view a copy of this license, visit
# http://creativecommons.org/licenses/by-nc-sa/4.0/
# or send a letter to
# Creative Commons, PO Box 1866, Mountain View, CA 94042, USA.
#
# CIF created using the CSD Python API on 29 September 2022
# The structure has been converted into the P1 space group
# The structure has a 3D framework
# The original CSD entry MANLET is in the monoclinic crystal system
# The framework has been calculated to contain at least 10.0% void space
# The void calculation uses a probe of radius 1.32A, grid spacing 0.4
#
###############################################################################

data_MANLET
_chemical_formula_moiety         '(C304 H272 Cl16 Mn8 N30)n'
_symmetry_cell_setting           triclinic
_symmetry_space_group_name_H-M   'P 1'
_symmetry_Int_Tables_number      1
_space_group_name_Hall           'P 1'
loop_
_symmetry_equiv_pos_site_id
_symmetry_equiv_pos_as_xyz
1 x,y,z
_cell_length_a                   20.9751(13)
_cell_length_b                   15.3662(10)
_cell_length_c                   25.8748(16)
_cell_angle_alpha                90
_cell_angle_beta                 100.6160(10)
_cell_angle_gamma                90
_cell_volume                     8196.9
loop_
_atom_site_label
_atom_site_type_symbol
_atom_site_fract_x
_atom_site_fract_y
_atom_site_fract_z
C1 C 0.07993(19) 0.5871(3) 0.00724(17)
H1 H 0.0352 0.5792 0.0018
C2 C 0.11916(19) 0.5248(3) 0.03602(17)
H2 H 0.1007 0.4773 0.0500
C3 C 0.18625(19) 0.5338(3) 0.04381(15)
C4 C 0.2107(2) 0.6073(3) 0.02208(17)
H3 H 0.2552 0.6157 0.0259
C6 C 0.1067(3) 0.3450(4) 0.3548(3)
H5 H 0.0739 0.3831 0.3596
C7 C 0.1525(3) 0.3736(4) 0.3268(3)
H6 H 0.1492 0.4292 0.3124
C8 C 0.2030(2) 0.3206(3) 0.32005(16)
C9 C 0.2044(2) 0.2385(3) 0.34134(19)
H7 H 0.2375 0.2001 0.3376
C10 C 0.1559(2) 0.2129(3) 0.36853(17)
H8 H 0.1576 0.1570 0.3825
C11 C 0.4975(2) 0.5688(3) 0.36899(18)
H9 H 0.5420 0.5590 0.3757
C12 C 0.4576(2) 0.5061(3) 0.34152(17)
H10 H 0.4752 0.4553 0.3305
C13 C 0.3912(2) 0.5199(3) 0.33065(16)
C14 C 0.3681(2) 0.5963(3) 0.34911(18)
H11 H 0.3237 0.6075 0.3431
C15 C 0.4112(2) 0.6560(3) 0.37647(18)
H12 H 0.3948 0.7071 0.3882
C16 C 0.4696(2) 0.3610(3) 0.0147(2)
H13 H 0.5022 0.3995 0.0098
C17 C 0.4221(2) 0.3904(3) 0.04017(19)
H14 H 0.4224 0.4481 0.0512
C18 C 0.3732(2) 0.3342(3) 0.04961(16)
C19 C 0.3763(3) 0.2489(3) 0.0329(2)
H15 H 0.3460 0.2081 0.0396
C20 C 0.4254(2) 0.2251(3) 0.0059(2)
C21 C 0.23204(19) 0.4689(3) 0.07313(16)
C22 C 0.23639(18) 0.4604(3) 0.12808(16)
C23 C 0.1929(2) 0.5133(3) 0.15672(17)
H17 H 0.1637 0.5477 0.1318
H18 H 0.2189 0.5510 0.1817
H19 H 0.1684 0.4748 0.1748
C24 C 0.28322(19) 0.4056(3) 0.15597(15)
C25 C 0.29163(19) 0.4022(3) 0.21505(15)
C26 C 0.32623(19) 0.3591(3) 0.13092(16)
C27 C 0.3776(2) 0.3013(3) 0.16121(18)
H20 H 0.3742 0.3017 0.1977
H21 H 0.4196 0.3222 0.1575
H22 H 0.3718 0.2430 0.1478
C28 C 0.32151(19) 0.3694(3) 0.07630(16)
C29 C 0.27408(19) 0.4232(3) 0.04716(15)
C31 C 0.2547(2) 0.3583(3) 0.29388(16)
C32 C 0.3032(2) 0.4084(3) 0.32473(16)
C33 C 0.3085(2) 0.4113(3) 0.38388(17)
H26 H 0.2762 0.3739 0.3940
H27 H 0.3508 0.3920 0.4005
H28 H 0.3018 0.4699 0.3946
C34 C 0.24946(19) 0.3527(3) 0.23919(16)
C35 C 0.1973(2) 0.2981(3) 0.20710(17)
H29 H 0.1730 0.2691 0.2300
H30 H 0.1688 0.3346 0.1831
H31 H 0.2168 0.2556 0.1877
C36 C 0.34474(19) 0.4572(3) 0.29955(16)
C37 C 0.33881(19) 0.4556(3) 0.24513(15)
C38 C 0.3820(2) 0.5136(3) 0.21893(17)
H32 H 0.3718 0.5055 0.1815
H33 H 0.3750 0.5734 0.2272
H34 H 0.4266 0.4987 0.2315
N2 N 0.10734(18) 0.2648(2) 0.37536(15)
N3 N 0.47521(16) 0.6435(2) 0.38660(14)
Mn2 Mn 0.04028(3) 0.24275(4) 0.43679(2)
Mn3 Mn 0.54028(3) 0.74275(4) 0.43679(2)
C5 C 0.1680(2) 0.6673(3) 0.99480(18)
H4 H 0.1851 0.7164 0.9813
H16 H 0.4257 0.1682 0.9937
C30 C 0.2697(2) 0.4323(3) 0.98872(16)
H23 H 0.2349 0.4712 0.9749
H24 H 0.2616 0.3764 0.9723
H25 H 0.3098 0.4552 0.9816
Cl2 Cl 0.11374(5) 0.87687(7) 0.97539(4)
Mn1 Mn 0.04028(3) 0.75725(4) 0.93679(2)
N1 N 0.10311(16) 0.6584(2) 0.98683(14)
N4 N 0.47172(17) 0.2789(2) 0.99642(14)
Mn4 Mn 0.54028(3) 0.25725(4) 0.93679(2)
N5 N 0.10734(18) 0.7352(2) 0.87536(15)
Cl1 Cl 0.96448(5) 0.63741(7) 0.89517(4)
N6 N 0.97521(16) 0.8565(2) 0.88660(14)
N7 N 0.97172(17) 0.7789(2) 0.99642(14)
H9_2 H 0.0420 0.0590 0.3757
C1_2 C 0.57993(19) 0.0871(3) 0.00724(17)
H1_2 H 0.5352 0.0792 0.0018
C2_2 C 0.61916(19) 0.0248(3) 0.03602(17)
C3_2 C 0.68625(19) 0.0338(3) 0.04381(15)
C4_2 C 0.7107(2) 0.1073(3) 0.02208(17)
H3_2 H 0.7552 0.1157 0.0259
C11_2 C 0.9975(2) 0.0688(3) 0.36899(18)
C12_2 C 0.9576(2) 0.0061(3) 0.34152(17)
C13_2 C 0.8912(2) 0.0199(3) 0.33065(16)
C14_2 C 0.8681(2) 0.0963(3) 0.34911(18)
H11_2 H 0.8237 0.1075 0.3431
C15_2 C 0.9112(2) 0.1560(3) 0.37647(18)
H12_2 H 0.8948 0.2071 0.3882
C23_2 C 0.6929(2) 0.0133(3) 0.15672(17)
H17_2 H 0.6637 0.0477 0.1318
H18_2 H 0.7189 0.0510 0.1817
C38_2 C 0.8820(2) 0.0136(3) 0.21893(17)
H32_2 H 0.8718 0.0055 0.1815
H33_2 H 0.8750 0.0734 0.2272
N3_2 N 0.97521(16) 0.1435(2) 0.38660(14)
C5_2 C 0.6680(2) 0.1673(3) 0.99480(18)
H4_2 H 0.6851 0.2164 0.9813
Cl1_2 Cl 0.46448(5) 0.13741(7) 0.89517(4)
Cl2_2 Cl 0.61374(5) 0.37687(7) 0.97539(4)
N1_2 N 0.60311(16) 0.1584(2) 0.98683(14)
N5_2 N 0.60734(18) 0.2352(2) 0.87536(15)
N6_2 N 0.47521(16) 0.3565(2) 0.88660(14)
H2_2 H 0.6007 0.9773 0.0500
C6_2 C 0.6067(3) 0.8450(4) 0.3548(3)
H5_2 H 0.5739 0.8831 0.3596
C7_2 C 0.6525(3) 0.8736(4) 0.3268(3)
H6_2 H 0.6492 0.9292 0.3124
C8_2 C 0.7030(2) 0.8206(3) 0.32005(16)
C9_2 C 0.7044(2) 0.7385(3) 0.34134(19)
H7_2 H 0.7375 0.7001 0.3376
C10_2 C 0.6559(2) 0.7129(3) 0.36853(17)
H8_2 H 0.6576 0.6570 0.3825
H10_2 H 0.9752 0.9553 0.3305
C16_2 C 0.9696(2) 0.8610(3) 0.0147(2)
C17_2 C 0.9221(2) 0.8904(3) 0.04017(19)
H14_2 H 0.9224 0.9481 0.0512
C18_2 C 0.8732(2) 0.8342(3) 0.04961(16)
C19_2 C 0.8763(3) 0.7489(3) 0.0329(2)
H15_2 H 0.8460 0.7081 0.0396
C20_2 C 0.9254(2) 0.7251(3) 0.0059(2)
C21_2 C 0.73204(19) 0.9689(3) 0.07313(16)
C22_2 C 0.73639(18) 0.9604(3) 0.12808(16)
H19_2 H 0.6684 0.9748 0.1748
C24_2 C 0.78322(19) 0.9056(3) 0.15597(15)
C25_2 C 0.79163(19) 0.9022(3) 0.21505(15)
C26_2 C 0.82623(19) 0.8591(3) 0.13092(16)
C27_2 C 0.8776(2) 0.8013(3) 0.16121(18)
H20_2 H 0.8742 0.8017 0.1977
H21_2 H 0.9196 0.8222 0.1575
H22_2 H 0.8718 0.7430 0.1478
C28_2 C 0.82151(19) 0.8694(3) 0.07630(16)
C29_2 C 0.77408(19) 0.9232(3) 0.04716(15)
C31_2 C 0.7547(2) 0.8583(3) 0.29388(16)
C32_2 C 0.8032(2) 0.9084(3) 0.32473(16)
C33_2 C 0.8085(2) 0.9113(3) 0.38388(17)
H26_2 H 0.7762 0.8739 0.3940
H27_2 H 0.8508 0.8920 0.4005
H28_2 H 0.8018 0.9699 0.3946
C34_2 C 0.74946(19) 0.8527(3) 0.23919(16)
C35_2 C 0.6973(2) 0.7981(3) 0.20710(17)
H29_2 H 0.6730 0.7691 0.2300
H30_2 H 0.6688 0.8346 0.1831
H31_2 H 0.7168 0.7556 0.1877
C36_2 C 0.84474(19) 0.9572(3) 0.29955(16)
C37_2 C 0.83881(19) 0.9556(3) 0.24513(15)
H34_2 H 0.9266 0.9987 0.2315
N2_2 N 0.60734(18) 0.7648(2) 0.37536(15)
H16_2 H 0.9257 0.6682 0.9937
C30_2 C 0.7697(2) 0.9323(3) 0.98872(16)
H23_2 H 0.7349 0.9712 0.9749
H24_2 H 0.7616 0.8764 0.9723
H25_2 H 0.8098 0.9552 0.9816
C1_3 C 0.07993(19) 0.4129(3) 0.50724(17)
H1_3 H 0.0352 0.4208 0.5018
C2_3 C 0.11916(19) 0.4752(3) 0.53602(17)
H2_3 H 0.1007 0.5227 0.5500
C3_3 C 0.18625(19) 0.4662(3) 0.54381(15)
C4_3 C 0.2107(2) 0.3927(3) 0.52208(17)
H3_3 H 0.2552 0.3843 0.5259
C5_3 C 0.1680(2) 0.3327(3) 0.49480(18)
H4_3 H 0.1851 0.2836 0.4813
C6_3 C 0.1067(3) 0.6550(4) 0.8548(3)
H5_3 H 0.0739 0.6169 0.8596
C7_3 C 0.1525(3) 0.6264(4) 0.8268(3)
H6_3 H 0.1492 0.5708 0.8124
C8_3 C 0.2030(2) 0.6794(3) 0.82005(16)
C9_3 C 0.2044(2) 0.7615(3) 0.84134(19)
H7_3 H 0.2375 0.7999 0.8376
C10_3 C 0.1559(2) 0.7871(3) 0.86853(17)
H8_3 H 0.1576 0.8430 0.8825
C11_3 C 0.4975(2) 0.4312(3) 0.86899(18)
H9_3 H 0.5420 0.4410 0.8757
C12_3 C 0.4576(2) 0.4939(3) 0.84152(17)
H10_3 H 0.4752 0.5447 0.8305
C13_3 C 0.3912(2) 0.4801(3) 0.83065(16)
C14_3 C 0.3681(2) 0.4037(3) 0.84911(18)
H11_3 H 0.3237 0.3925 0.8431
C15_3 C 0.4112(2) 0.3440(3) 0.87647(18)
H12_3 H 0.3948 0.2929 0.8882
C16_3 C 0.4696(2) 0.6390(3) 0.5147(2)
H13_2 H 0.5022 0.6005 0.5098
C17_3 C 0.4221(2) 0.6096(3) 0.54017(19)
H14_3 H 0.4224 0.5519 0.5512
C18_3 C 0.3732(2) 0.6658(3) 0.54961(16)
C19_3 C 0.3763(3) 0.7511(3) 0.5329(2)
H15_3 H 0.3460 0.7919 0.5396
C20_3 C 0.4254(2) 0.7749(3) 0.5059(2)
H16_3 H 0.4257 0.8318 0.4937
C21_3 C 0.23204(19) 0.5311(3) 0.57313(16)
C22_3 C 0.23639(18) 0.5396(3) 0.62808(16)
C23_3 C 0.1929(2) 0.4867(3) 0.65672(17)
H17_3 H 0.1637 0.4523 0.6318
H18_3 H 0.2189 0.4490 0.6817
H19_3 H 0.1684 0.5252 0.6748
C24_3 C 0.28322(19) 0.5944(3) 0.65597(15)
C25_3 C 0.29163(19) 0.5978(3) 0.71505(15)
C26_3 C 0.32623(19) 0.6409(3) 0.63092(16)
C27_3 C 0.3776(2) 0.6987(3) 0.66121(18)
H20_3 H 0.3742 0.6983 0.6977
H21_3 H 0.4196 0.6778 0.6575
H22_3 H 0.3718 0.7570 0.6478
C28_3 C 0.32151(19) 0.6306(3) 0.57630(16)
C29_3 C 0.27408(19) 0.5768(3) 0.54716(15)
C30_3 C 0.2697(2) 0.5677(3) 0.48872(16)
H23_3 H 0.2349 0.5288 0.4749
H24_3 H 0.2616 0.6236 0.4723
H25_3 H 0.3098 0.5448 0.4816
C31_3 C 0.2547(2) 0.6417(3) 0.79388(16)
C32_3 C 0.3032(2) 0.5916(3) 0.82473(16)
C33_3 C 0.3085(2) 0.5887(3) 0.88388(17)
H26_3 H 0.2762 0.6261 0.8940
H27_3 H 0.3508 0.6080 0.9005
H28_3 H 0.3018 0.5301 0.8946
C34_3 C 0.24946(19) 0.6473(3) 0.73919(16)
C35_3 C 0.1973(2) 0.7019(3) 0.70710(17)
H29_3 H 0.1730 0.7309 0.7300
H30_3 H 0.1688 0.6654 0.6831
H31_3 H 0.2168 0.7444 0.6877
C36_3 C 0.34474(19) 0.5428(3) 0.79955(16)
C37_3 C 0.33881(19) 0.5444(3) 0.74513(15)
C38_3 C 0.3820(2) 0.4864(3) 0.71893(17)
H32_3 H 0.3718 0.4945 0.6815
H33_3 H 0.3750 0.4266 0.7272
H34_3 H 0.4266 0.5013 0.7315
Cl2_3 Cl 0.11374(5) 0.12313(7) 0.47539(4)
N1_3 N 0.10311(16) 0.3416(2) 0.48683(14)
N4_2 N 0.47172(17) 0.7211(2) 0.49642(14)
Cl1_3 Cl 0.96448(5) 0.36259(7) 0.39517(4)
N7_2 N 0.97172(17) 0.2211(2) 0.49642(14)
H13_3 H 0.0022 0.1005 0.5098
H9_4 H 0.0420 0.9410 0.8757
H2_4 H 0.6007 0.0227 0.5500
C6_4 C 0.6067(3) 0.1550(4) 0.8548(3)
H5_4 H 0.5739 0.1169 0.8596
C7_4 C 0.6525(3) 0.1264(4) 0.8268(3)
H6_4 H 0.6492 0.0708 0.8124
C8_4 C 0.7030(2) 0.1794(3) 0.82005(16)
C9_4 C 0.7044(2) 0.2615(3) 0.84134(19)
H7_4 H 0.7375 0.2999 0.8376
C10_4 C 0.6559(2) 0.2871(3) 0.86853(17)
H8_4 H 0.6576 0.3430 0.8825
H10_4 H 0.9752 0.0447 0.8305
C16_4 C 0.9696(2) 0.1390(3) 0.5147(2)
C17_4 C 0.9221(2) 0.1096(3) 0.54017(19)
H14_4 H 0.9224 0.0519 0.5512
C18_4 C 0.8732(2) 0.1658(3) 0.54961(16)
C19_4 C 0.8763(3) 0.2511(3) 0.5329(2)
H15_4 H 0.8460 0.2919 0.5396
C20_4 C 0.9254(2) 0.2749(3) 0.5059(2)
H16_4 H 0.9257 0.3318 0.4937
C21_4 C 0.73204(19) 0.0311(3) 0.57313(16)
C22_4 C 0.73639(18) 0.0396(3) 0.62808(16)
H19_4 H 0.6684 0.0252 0.6748
C24_4 C 0.78322(19) 0.0944(3) 0.65597(15)
C25_4 C 0.79163(19) 0.0978(3) 0.71505(15)
C26_4 C 0.82623(19) 0.1409(3) 0.63092(16)
C27_4 C 0.8776(2) 0.1987(3) 0.66121(18)
H20_4 H 0.8742 0.1983 0.6977
H21_4 H 0.9196 0.1778 0.6575
H22_4 H 0.8718 0.2570 0.6478
C28_4 C 0.82151(19) 0.1306(3) 0.57630(16)
C29_4 C 0.77408(19) 0.0768(3) 0.54716(15)
C30_4 C 0.7697(2) 0.0677(3) 0.48872(16)
H23_4 H 0.7349 0.0288 0.4749
H24_4 H 0.7616 0.1236 0.4723
H25_4 H 0.8098 0.0448 0.4816
C31_4 C 0.7547(2) 0.1417(3) 0.79388(16)
C32_4 C 0.8032(2) 0.0916(3) 0.82473(16)
C33_4 C 0.8085(2) 0.0887(3) 0.88388(17)
H26_4 H 0.7762 0.1261 0.8940
H27_4 H 0.8508 0.1080 0.9005
H28_4 H 0.8018 0.0301 0.8946
C34_4 C 0.74946(19) 0.1473(3) 0.73919(16)
C35_4 C 0.6973(2) 0.2019(3) 0.70710(17)
H29_4 H 0.6730 0.2309 0.7300
H30_4 H 0.6688 0.1654 0.6831
H31_4 H 0.7168 0.2444 0.6877
C36_4 C 0.84474(19) 0.0428(3) 0.79955(16)
C37_4 C 0.83881(19) 0.0444(3) 0.74513(15)
H34_4 H 0.9266 0.0013 0.7315
C1_4 C 0.57993(19) 0.9129(3) 0.50724(17)
H1_4 H 0.5352 0.9208 0.5018
C2_4 C 0.61916(19) 0.9752(3) 0.53602(17)
C3_4 C 0.68625(19) 0.9662(3) 0.54381(15)
C4_4 C 0.7107(2) 0.8927(3) 0.52208(17)
H3_4 H 0.7552 0.8843 0.5259
C5_4 C 0.6680(2) 0.8327(3) 0.49480(18)
H4_4 H 0.6851 0.7836 0.4813
C11_4 C 0.9975(2) 0.9312(3) 0.86899(18)
C12_4 C 0.9576(2) 0.9939(3) 0.84152(17)
C13_4 C 0.8912(2) 0.9801(3) 0.83065(16)
C14_4 C 0.8681(2) 0.9037(3) 0.84911(18)
H11_4 H 0.8237 0.8925 0.8431
C15_4 C 0.9112(2) 0.8440(3) 0.87647(18)
H12_4 H 0.8948 0.7929 0.8882
C23_4 C 0.6929(2) 0.9867(3) 0.65672(17)
H17_4 H 0.6637 0.9523 0.6318
H18_4 H 0.7189 0.9490 0.6817
C38_4 C 0.8820(2) 0.9864(3) 0.71893(17)
H32_4 H 0.8718 0.9945 0.6815
H33_4 H 0.8750 0.9266 0.7272
Cl1_4 Cl 0.46448(5) 0.86259(7) 0.39517(4)
Cl2_4 Cl 0.61374(5) 0.62313(7) 0.47539(4)
N1_4 N 0.60311(16) 0.8416(2) 0.48683(14)
H13_4 H 0.0022 0.8995 0.0098
Cl1_5 Cl 0.03552(5) 0.63741(7) 0.60483(4)
N6_3 N 0.02479(16) 0.8565(2) 0.61340(14)
N7_3 N 0.02828(17) 0.7789(2) 0.50358(14)
C1_5 C 0.92007(19) 0.5871(3) 0.49276(17)
H1_5 H 0.9648 0.5792 0.4982
C2_5 C 0.88084(19) 0.5248(3) 0.46398(17)
H2_5 H 0.8993 0.4773 0.4500
C3_5 C 0.81375(19) 0.5338(3) 0.45619(15)
C4_5 C 0.7893(2) 0.6073(3) 0.47792(17)
H3_5 H 0.7448 0.6157 0.4741
C5_5 C 0.8320(2) 0.6673(3) 0.50520(18)
H4_5 H 0.8149 0.7164 0.5187
C6_5 C 0.8933(3) 0.3450(4) 0.1452(3)
H5_5 H 0.9261 0.3831 0.1404
C7_5 C 0.8475(3) 0.3736(4) 0.1732(3)
H6_5 H 0.8508 0.4292 0.1876
C8_5 C 0.7970(2) 0.3206(3) 0.17995(16)
C9_5 C 0.7956(2) 0.2385(3) 0.15866(19)
H7_5 H 0.7625 0.2001 0.1624
C10_5 C 0.8441(2) 0.2129(3) 0.13147(17)
H8_5 H 0.8424 0.1570 0.1175
C11_5 C 0.5025(2) 0.5688(3) 0.13101(18)
H9_5 H 0.4580 0.5590 0.1243
C12_5 C 0.5424(2) 0.5061(3) 0.15848(17)
H10_5 H 0.5248 0.4553 0.1695
C13_5 C 0.6088(2) 0.5199(3) 0.16935(16)
C14_5 C 0.6319(2) 0.5963(3) 0.15089(18)
H11_5 H 0.6763 0.6075 0.1569
C15_5 C 0.5888(2) 0.6560(3) 0.12353(18)
H12_5 H 0.6052 0.7071 0.1118
C16_5 C 0.5304(2) 0.3610(3) 0.4853(2)
H13_5 H 0.4978 0.3995 0.4902
C17_5 C 0.5779(2) 0.3904(3) 0.45983(19)
H14_5 H 0.5776 0.4481 0.4488
C18_5 C 0.6268(2) 0.3342(3) 0.45039(16)
C19_5 C 0.6237(3) 0.2489(3) 0.4671(2)
H15_5 H 0.6540 0.2081 0.4604
C20_5 C 0.5746(2) 0.2251(3) 0.4941(2)
H16_5 H 0.5743 0.1682 0.5063
C21_5 C 0.76796(19) 0.4689(3) 0.42687(16)
C22_5 C 0.76361(18) 0.4604(3) 0.37192(16)
C23_5 C 0.8071(2) 0.5133(3) 0.34328(17)
H17_5 H 0.8363 0.5477 0.3682
H18_5 H 0.7811 0.5510 0.3183
H19_5 H 0.8316 0.4748 0.3252
C24_5 C 0.71678(19) 0.4056(3) 0.34403(15)
C25_5 C 0.70837(19) 0.4022(3) 0.28495(15)
C26_5 C 0.67377(19) 0.3591(3) 0.36908(16)
C27_5 C 0.6224(2) 0.3013(3) 0.33879(18)
H20_5 H 0.6258 0.3017 0.3023
H21_5 H 0.5804 0.3222 0.3425
H22_5 H 0.6282 0.2430 0.3522
C28_5 C 0.67849(19) 0.3694(3) 0.42370(16)
C29_5 C 0.72592(19) 0.4232(3) 0.45284(15)
C30_5 C 0.7303(2) 0.4323(3) 0.51128(16)
H23_5 H 0.7651 0.4712 0.5251
H24_5 H 0.7384 0.3764 0.5277
H25_5 H 0.6902 0.4552 0.5184
C31_5 C 0.7453(2) 0.3583(3) 0.20612(16)
C32_5 C 0.6968(2) 0.4084(3) 0.17527(16)
C33_5 C 0.6915(2) 0.4113(3) 0.11612(17)
H26_5 H 0.7238 0.3739 0.1060
H27_5 H 0.6492 0.3920 0.0995
H28_5 H 0.6982 0.4699 0.1054
C34_5 C 0.75054(19) 0.3527(3) 0.26081(16)
C35_5 C 0.8027(2) 0.2981(3) 0.29290(17)
H29_5 H 0.8270 0.2691 0.2700
H30_5 H 0.8312 0.3346 0.3169
H31_5 H 0.7832 0.2556 0.3123
C36_5 C 0.65526(19) 0.4572(3) 0.20045(16)
C37_5 C 0.66119(19) 0.4556(3) 0.25487(15)
C38_5 C 0.6180(2) 0.5136(3) 0.28107(17)
H32_5 H 0.6282 0.5055 0.3185
H33_5 H 0.6250 0.5734 0.2728
H34_5 H 0.5734 0.4987 0.2685
Cl2_5 Cl 0.88626(5) 0.87687(7) 0.52461(4)
Mn1_2 Mn 0.95972(3) 0.75725(4) 0.56321(2)
N1_5 N 0.89689(16) 0.6584(2) 0.51317(14)
N2_3 N 0.89266(18) 0.2648(2) 0.12464(15)
N3_3 N 0.52479(16) 0.6435(2) 0.11340(14)
N4_3 N 0.52828(17) 0.2789(2) 0.50358(14)
Mn2_2 Mn 0.95972(3) 0.24275(4) 0.06321(2)
Mn3_2 Mn 0.45972(3) 0.74275(4) 0.06321(2)
Mn4_2 Mn 0.45972(3) 0.25725(4) 0.56321(2)
N5_3 N 0.89266(18) 0.7352(2) 0.62464(15)
C1_6 C 0.42007(19) 0.0871(3) 0.49276(17)
H1_6 H 0.4648 0.0792 0.4982
C2_6 C 0.38084(19) 0.0248(3) 0.46398(17)
C3_6 C 0.31375(19) 0.0338(3) 0.45619(15)
C4_6 C 0.2893(2) 0.1073(3) 0.47792(17)
H3_6 H 0.2448 0.1157 0.4741
C5_6 C 0.3320(2) 0.1673(3) 0.50520(18)
H4_6 H 0.3149 0.2164 0.5187
C11_6 C 0.0025(2) 0.0688(3) 0.13101(18)
C12_6 C 0.0424(2) 0.0061(3) 0.15848(17)
C13_6 C 0.1088(2) 0.0199(3) 0.16935(16)
C14_6 C 0.1319(2) 0.0963(3) 0.15089(18)
H11_6 H 0.1763 0.1075 0.1569
C15_6 C 0.0888(2) 0.1560(3) 0.12353(18)
H12_6 H 0.1052 0.2071 0.1118
C23_6 C 0.3071(2) 0.0133(3) 0.34328(17)
H17_6 H 0.3363 0.0477 0.3682
H18_6 H 0.2811 0.0510 0.3183
C38_6 C 0.1180(2) 0.0136(3) 0.28107(17)
H32_6 H 0.1282 0.0055 0.3185
H33_6 H 0.1250 0.0734 0.2728
Cl1_6 Cl 0.53552(5) 0.13741(7) 0.60483(4)
Cl2_6 Cl 0.38626(5) 0.37687(7) 0.52461(4)
N1_6 N 0.39689(16) 0.1584(2) 0.51317(14)
N3_4 N 0.02479(16) 0.1435(2) 0.11340(14)
N5_4 N 0.39266(18) 0.2352(2) 0.62464(15)
N6_4 N 0.52479(16) 0.3565(2) 0.61340(14)
H2_6 H 0.3993 0.9773 0.4500
C6_6 C 0.3933(3) 0.8450(4) 0.1452(3)
H5_6 H 0.4261 0.8831 0.1404
C7_6 C 0.3475(3) 0.8736(4) 0.1732(3)
H6_6 H 0.3508 0.9292 0.1876
C8_6 C 0.2970(2) 0.8206(3) 0.17995(16)
C9_6 C 0.2956(2) 0.7385(3) 0.15866(19)
H7_6 H 0.2625 0.7001 0.1624
C10_6 C 0.3441(2) 0.7129(3) 0.13147(17)
H8_6 H 0.3424 0.6570 0.1175
H10_6 H 0.0248 0.9553 0.1695
C16_6 C 0.0304(2) 0.8610(3) 0.4853(2)
C17_6 C 0.0779(2) 0.8904(3) 0.45983(19)
H14_6 H 0.0776 0.9481 0.4488
C18_6 C 0.1268(2) 0.8342(3) 0.45039(16)
C19_6 C 0.1237(3) 0.7489(3) 0.4671(2)
H15_6 H 0.1540 0.7081 0.4604
C20_6 C 0.0746(2) 0.7251(3) 0.4941(2)
H16_6 H 0.0743 0.6682 0.5063
C21_6 C 0.26796(19) 0.9689(3) 0.42687(16)
C22_6 C 0.26361(18) 0.9604(3) 0.37192(16)
H19_6 H 0.3316 0.9748 0.3252
C24_6 C 0.21678(19) 0.9056(3) 0.34403(15)
C25_6 C 0.20837(19) 0.9022(3) 0.28495(15)
C26_6 C 0.17377(19) 0.8591(3) 0.36908(16)
C27_6 C 0.1224(2) 0.8013(3) 0.33879(18)
H20_6 H 0.1258 0.8017 0.3023
H21_6 H 0.0804 0.8222 0.3425
H22_6 H 0.1282 0.7430 0.3522
C28_6 C 0.17849(19) 0.8694(3) 0.42370(16)
C29_6 C 0.22592(19) 0.9232(3) 0.45284(15)
C30_6 C 0.2303(2) 0.9323(3) 0.51128(16)
H23_6 H 0.2651 0.9712 0.5251
H24_6 H 0.2384 0.8764 0.5277
H25_6 H 0.1902 0.9552 0.5184
C31_6 C 0.2453(2) 0.8583(3) 0.20612(16)
C32_6 C 0.1968(2) 0.9084(3) 0.17527(16)
C33_6 C 0.1915(2) 0.9113(3) 0.11612(17)
H26_6 H 0.2238 0.8739 0.1060
H27_6 H 0.1492 0.8920 0.0995
H28_6 H 0.1982 0.9699 0.1054
C34_6 C 0.25054(19) 0.8527(3) 0.26081(16)
C35_6 C 0.3027(2) 0.7981(3) 0.29290(17)
H29_6 H 0.3270 0.7691 0.2700
H30_6 H 0.3312 0.8346 0.3169
H31_6 H 0.2832 0.7556 0.3123
C36_6 C 0.15526(19) 0.9572(3) 0.20045(16)
C37_6 C 0.16119(19) 0.9556(3) 0.25487(15)
H34_6 H 0.0734 0.9987 0.2685
N2_4 N 0.39266(18) 0.7648(2) 0.12464(15)
H9_6 H 0.9580 0.0590 0.1243
H13_6 H 0.9978 0.8995 0.4902
Cl1_7 Cl 0.03552(5) 0.36259(7) 0.10483(4)
N7_4 N 0.02828(17) 0.2211(2) 0.00358(14)
C5_7 C 0.8320(2) 0.3327(3) 0.00520(18)
H4_7 H 0.8149 0.2836 0.0187
H16_7 H 0.5743 0.8318 0.0063
C30_7 C 0.7303(2) 0.5677(3) 0.01128(16)
H23_7 H 0.7651 0.5288 0.0251
H24_7 H 0.7384 0.6236 0.0277
H25_7 H 0.6902 0.5448 0.0184
Cl2_7 Cl 0.88626(5) 0.12313(7) 0.02461(4)
N1_7 N 0.89689(16) 0.3416(2) 0.01317(14)
N4_4 N 0.52828(17) 0.7211(2) 0.00358(14)
C1_7 C 0.92007(19) 0.4129(3) 0.99276(17)
H1_7 H 0.9648 0.4208 0.9982
C2_7 C 0.88084(19) 0.4752(3) 0.96398(17)
H2_7 H 0.8993 0.5227 0.9500
C3_7 C 0.81375(19) 0.4662(3) 0.95619(15)
C4_7 C 0.7893(2) 0.3927(3) 0.97792(17)
H3_7 H 0.7448 0.3843 0.9741
C6_7 C 0.8933(3) 0.6550(4) 0.6452(3)
H5_7 H 0.9261 0.6169 0.6404
C7_7 C 0.8475(3) 0.6264(4) 0.6732(3)
H6_7 H 0.8508 0.5708 0.6876
C8_7 C 0.7970(2) 0.6794(3) 0.67995(16)
C9_7 C 0.7956(2) 0.7615(3) 0.65866(19)
H7_7 H 0.7625 0.7999 0.6624
C10_7 C 0.8441(2) 0.7871(3) 0.63147(17)
H8_7 H 0.8424 0.8430 0.6175
C11_7 C 0.5025(2) 0.4312(3) 0.63101(18)
H9_7 H 0.4580 0.4410 0.6243
C12_7 C 0.5424(2) 0.4939(3) 0.65848(17)
H10_7 H 0.5248 0.5447 0.6695
C13_7 C 0.6088(2) 0.4801(3) 0.66935(16)
C14_7 C 0.6319(2) 0.4037(3) 0.65089(18)
H11_7 H 0.6763 0.3925 0.6569
C15_7 C 0.5888(2) 0.3440(3) 0.62353(18)
H12_7 H 0.6052 0.2929 0.6118
C16_7 C 0.5304(2) 0.6390(3) 0.9853(2)
H13_7 H 0.4978 0.6005 0.9902
C17_7 C 0.5779(2) 0.6096(3) 0.95983(19)
H14_7 H 0.5776 0.5519 0.9488
C18_7 C 0.6268(2) 0.6658(3) 0.95039(16)
C19_7 C 0.6237(3) 0.7511(3) 0.9671(2)
H15_7 H 0.6540 0.7919 0.9604
C20_7 C 0.5746(2) 0.7749(3) 0.9941(2)
C21_7 C 0.76796(19) 0.5311(3) 0.92687(16)
C22_7 C 0.76361(18) 0.5396(3) 0.87192(16)
C23_7 C 0.8071(2) 0.4867(3) 0.84328(17)
H17_7 H 0.8363 0.4523 0.8682
H18_7 H 0.7811 0.4490 0.8183
H19_7 H 0.8316 0.5252 0.8252
C24_7 C 0.71678(19) 0.5944(3) 0.84403(15)
C25_7 C 0.70837(19) 0.5978(3) 0.78495(15)
C26_7 C 0.67377(19) 0.6409(3) 0.86908(16)
C27_7 C 0.6224(2) 0.6987(3) 0.83879(18)
H20_7 H 0.6258 0.6983 0.8023
H21_7 H 0.5804 0.6778 0.8425
H22_7 H 0.6282 0.7570 0.8522
C28_7 C 0.67849(19) 0.6306(3) 0.92370(16)
C29_7 C 0.72592(19) 0.5768(3) 0.95284(15)
C31_7 C 0.7453(2) 0.6417(3) 0.70612(16)
C32_7 C 0.6968(2) 0.5916(3) 0.67527(16)
C33_7 C 0.6915(2) 0.5887(3) 0.61612(17)
H26_7 H 0.7238 0.6261 0.6060
H27_7 H 0.6492 0.6080 0.5995
H28_7 H 0.6982 0.5301 0.6054
C34_7 C 0.75054(19) 0.6473(3) 0.76081(16)
C35_7 C 0.8027(2) 0.7019(3) 0.79290(17)
H29_7 H 0.8270 0.7309 0.7700
H30_7 H 0.8312 0.6654 0.8169
H31_7 H 0.7832 0.7444 0.8123
C36_7 C 0.65526(19) 0.5428(3) 0.70045(16)
C37_7 C 0.66119(19) 0.5444(3) 0.75487(15)
C38_7 C 0.6180(2) 0.4864(3) 0.78107(17)
H32_7 H 0.6282 0.4945 0.8185
H33_7 H 0.6250 0.4266 0.7728
H34_7 H 0.5734 0.5013 0.7685
H16_8 H 0.0743 0.3318 0.0063
C30_8 C 0.2303(2) 0.0677(3) 0.01128(16)
H23_8 H 0.2651 0.0288 0.0251
H24_8 H 0.2384 0.1236 0.0277
H25_8 H 0.1902 0.0448 0.0184
H2_8 H 0.3993 0.0227 0.9500
C6_8 C 0.3933(3) 0.1550(4) 0.6452(3)
H5_8 H 0.4261 0.1169 0.6404
C7_8 C 0.3475(3) 0.1264(4) 0.6732(3)
H6_8 H 0.3508 0.0708 0.6876
C8_8 C 0.2970(2) 0.1794(3) 0.67995(16)
C9_8 C 0.2956(2) 0.2615(3) 0.65866(19)
H7_8 H 0.2625 0.2999 0.6624
C10_8 C 0.3441(2) 0.2871(3) 0.63147(17)
H8_8 H 0.3424 0.3430 0.6175
H10_8 H 0.0248 0.0447 0.6695
C16_8 C 0.0304(2) 0.1390(3) 0.9853(2)
C17_8 C 0.0779(2) 0.1096(3) 0.95983(19)
H14_8 H 0.0776 0.0519 0.9488
C18_8 C 0.1268(2) 0.1658(3) 0.95039(16)
C19_8 C 0.1237(3) 0.2511(3) 0.9671(2)
H15_8 H 0.1540 0.2919 0.9604
C20_8 C 0.0746(2) 0.2749(3) 0.9941(2)
C21_8 C 0.26796(19) 0.0311(3) 0.92687(16)
C22_8 C 0.26361(18) 0.0396(3) 0.87192(16)
H19_8 H 0.3316 0.0252 0.8252
C24_8 C 0.21678(19) 0.0944(3) 0.84403(15)
C25_8 C 0.20837(19) 0.0978(3) 0.78495(15)
C26_8 C 0.17377(19) 0.1409(3) 0.86908(16)
C27_8 C 0.1224(2) 0.1987(3) 0.83879(18)
H20_8 H 0.1258 0.1983 0.8023
H21_8 H 0.0804 0.1778 0.8425
H22_8 H 0.1282 0.2570 0.8522
C28_8 C 0.17849(19) 0.1306(3) 0.92370(16)
C29_8 C 0.22592(19) 0.0768(3) 0.95284(15)
C31_8 C 0.2453(2) 0.1417(3) 0.70612(16)
C32_8 C 0.1968(2) 0.0916(3) 0.67527(16)
C33_8 C 0.1915(2) 0.0887(3) 0.61612(17)
H26_8 H 0.2238 0.1261 0.6060
H27_8 H 0.1492 0.1080 0.5995
H28_8 H 0.1982 0.0301 0.6054
C34_8 C 0.25054(19) 0.1473(3) 0.76081(16)
C35_8 C 0.3027(2) 0.2019(3) 0.79290(17)
H29_8 H 0.3270 0.2309 0.7700
H30_8 H 0.3312 0.1654 0.8169
H31_8 H 0.2832 0.2444 0.8123
C36_8 C 0.15526(19) 0.0428(3) 0.70045(16)
C37_8 C 0.16119(19) 0.0444(3) 0.75487(15)
H34_8 H 0.0734 0.0013 0.7685
C5_8 C 0.3320(2) 0.8327(3) 0.00520(18)
H4_8 H 0.3149 0.7836 0.0187
Cl1_8 Cl 0.53552(5) 0.86259(7) 0.10483(4)
Cl2_8 Cl 0.38626(5) 0.62313(7) 0.02461(4)
N1_8 N 0.39689(16) 0.8416(2) 0.01317(14)
C1_8 C 0.42007(19) 0.9129(3) 0.99276(17)
H1_8 H 0.4648 0.9208 0.9982
C2_8 C 0.38084(19) 0.9752(3) 0.96398(17)
C3_8 C 0.31375(19) 0.9662(3) 0.95619(15)
C4_8 C 0.2893(2) 0.8927(3) 0.97792(17)
H3_8 H 0.2448 0.8843 0.9741
C11_8 C 0.0025(2) 0.9312(3) 0.63101(18)
C12_8 C 0.0424(2) 0.9939(3) 0.65848(17)
C13_8 C 0.1088(2) 0.9801(3) 0.66935(16)
C14_8 C 0.1319(2) 0.9037(3) 0.65089(18)
H11_8 H 0.1763 0.8925 0.6569
C15_8 C 0.0888(2) 0.8440(3) 0.62353(18)
H12_8 H 0.1052 0.7929 0.6118
C23_8 C 0.3071(2) 0.9867(3) 0.84328(17)
H17_8 H 0.3363 0.9523 0.8682
H18_8 H 0.2811 0.9490 0.8183
C38_8 C 0.1180(2) 0.9864(3) 0.78107(17)
H32_8 H 0.1282 0.9945 0.8185
H33_8 H 0.1250 0.9266 0.7728
H9_8 H 0.9580 0.9410 0.6243
H13_8 H 0.9978 0.1005 0.9902
loop_
_geom_bond_atom_site_label_1
_geom_bond_atom_site_label_2
_geom_bond_site_symmetry_1
_geom_bond_site_symmetry_2
C1 H1 1_555 1_555
C2 C1 1_555 1_555
H2 C2 1_555 1_555
C3 C2 1_555 1_555
C4 C3 1_555 1_555
H3 C4 1_555 1_555
C6 H5 1_555 1_555
C7 C6 1_555 1_555
H6 C7 1_555 1_555
C8 C7 1_555 1_555
C9 C8 1_555 1_555
H7 C9 1_555 1_555
C10 C9 1_555 1_555
H8 C10 1_555 1_555
C11 H9 1_555 1_555
C12 C11 1_555 1_555
H10 C12 1_555 1_555
C13 C12 1_555 1_555
C14 C13 1_555 1_555
H11 C14 1_555 1_555
C15 C14 1_555 1_555
H12 C15 1_555 1_555
C16 H13 1_555 1_555
C17 C16 1_555 1_555
H14 C17 1_555 1_555
C18 C17 1_555 1_555
C19 C18 1_555 1_555
H15 C19 1_555 1_555
C20 C19 1_555 1_555
C21 C3 1_555 1_555
C22 C21 1_555 1_555
C23 C22 1_555 1_555
H17 C23 1_555 1_555
H18 C23 1_555 1_555
H19 C23 1_555 1_555
C24 C22 1_555 1_555
C25 C24 1_555 1_555
C26 C24 1_555 1_555
C27 C26 1_555 1_555
H20 C27 1_555 1_555
H21 C27 1_555 1_555
H22 C27 1_555 1_555
C28 C18 1_555 1_555
C29 C21 1_555 1_555
C31 C8 1_555 1_555
C32 C31 1_555 1_555
C33 C32 1_555 1_555
H26 C33 1_555 1_555
H27 C33 1_555 1_555
H28 C33 1_555 1_555
C34 C25 1_555 1_555
C35 C34 1_555 1_555
H29 C35 1_555 1_555
H30 C35 1_555 1_555
H31 C35 1_555 1_555
C36 C13 1_555 1_555
C37 C25 1_555 1_555
C38 C37 1_555 1_555
H32 C38 1_555 1_555
H33 C38 1_555 1_555
H34 C38 1_555 1_555
N2 C6 1_555 1_555
N3 C11 1_555 1_555
Mn2 N2 1_555 1_555
Mn3 N3 1_555 1_555
C10 N2 1_555 1_555
C15 N3 1_555 1_555
C26 C28 1_555 1_555
C28 C29 1_555 1_555
C31 C34 1_555 1_555
C32 C36 1_555 1_555
C36 C37 1_555 1_555
H4 C5 1_555 1_555
H23 C30 1_555 1_555
H24 C30 1_555 1_555
H25 C30 1_555 1_555
Cl2 Mn1 1_555 1_555
Mn1 N1 1_555 1_555
Mn4 N4 1_555 1_555
N5 Mn1 1_555 1_555
C5 N1 1_555 1_555
C1_2 H1_2 1_555 1_555
C2_2 C1_2 1_555 1_555
C3_2 C2_2 1_555 1_555
C4_2 C3_2 1_555 1_555
H3_2 C4_2 1_555 1_555
C12_2 C11_2 1_555 1_555
C13_2 C12_2 1_555 1_555
C14_2 C13_2 1_555 1_555
H11_2 C14_2 1_555 1_555
C15_2 C14_2 1_555 1_555
H12_2 C15_2 1_555 1_555
H17_2 C23_2 1_555 1_555
H18_2 C23_2 1_555 1_555
H32_2 C38_2 1_555 1_555
H33_2 C38_2 1_555 1_555
N3_2 C11_2 1_555 1_555
C15_2 N3_2 1_555 1_555
H4_2 C5_2 1_555 1_555
Cl1_2 Mn4 1_555 1_555
Cl2_2 Mn4 1_555 1_555
Mn4 N1_2 1_555 1_555
N5_2 Mn4 1_555 1_555
N6_2 Mn4 1_555 1_555
C5_2 N1_2 1_555 1_555
C6_2 H5_2 1_555 1_555
C7_2 C6_2 1_555 1_555
H6_2 C7_2 1_555 1_555
C8_2 C7_2 1_555 1_555
C9_2 C8_2 1_555 1_555
H7_2 C9_2 1_555 1_555
C10_2 C9_2 1_555 1_555
H8_2 C10_2 1_555 1_555
C17_2 C16_2 1_555 1_555
H14_2 C17_2 1_555 1_555
C18_2 C17_2 1_555 1_555
C19_2 C18_2 1_555 1_555
H15_2 C19_2 1_555 1_555
C20_2 C19_2 1_555 1_555
C22_2 C21_2 1_555 1_555
C24_2 C22_2 1_555 1_555
C25_2 C24_2 1_555 1_555
C26_2 C24_2 1_555 1_555
C27_2 C26_2 1_555 1_555
H20_2 C27_2 1_555 1_555
H21_2 C27_2 1_555 1_555
H22_2 C27_2 1_555 1_555
C28_2 C18_2 1_555 1_555
C29_2 C21_2 1_555 1_555
C31_2 C8_2 1_555 1_555
C32_2 C31_2 1_555 1_555
C33_2 C32_2 1_555 1_555
H26_2 C33_2 1_555 1_555
H27_2 C33_2 1_555 1_555
H28_2 C33_2 1_555 1_555
C34_2 C25_2 1_555 1_555
C35_2 C34_2 1_555 1_555
H29_2 C35_2 1_555 1_555
H30_2 C35_2 1_555 1_555
H31_2 C35_2 1_555 1_555
C37_2 C25_2 1_555 1_555
N2_2 C6_2 1_555 1_555
Mn3 N2_2 1_555 1_555
C10_2 N2_2 1_555 1_555
C26_2 C28_2 1_555 1_555
C28_2 C29_2 1_555 1_555
C31_2 C34_2 1_555 1_555
C32_2 C36_2 1_555 1_555
C36_2 C37_2 1_555 1_555
H23_2 C30_2 1_555 1_555
H24_2 C30_2 1_555 1_555
H25_2 C30_2 1_555 1_555
C1_3 H1_3 1_555 1_555
C2_3 C1_3 1_555 1_555
H2_3 C2_3 1_555 1_555
C3_3 C2_3 1_555 1_555
C4_3 C3_3 1_555 1_555
H3_3 C4_3 1_555 1_555
C5_3 C4_3 1_555 1_555
H4_3 C5_3 1_555 1_555
C6_3 H5_3 1_555 1_555
C7_3 C6_3 1_555 1_555
H6_3 C7_3 1_555 1_555
C8_3 C7_3 1_555 1_555
C9_3 C8_3 1_555 1_555
H7_3 C9_3 1_555 1_555
C10_3 C9_3 1_555 1_555
H8_3 C10_3 1_555 1_555
C11_3 H9_3 1_555 1_555
C12_3 C11_3 1_555 1_555
H10_3 C12_3 1_555 1_555
C13_3 C12_3 1_555 1_555
C14_3 C13_3 1_555 1_555
H11_3 C14_3 1_555 1_555
C15_3 C14_3 1_555 1_555
H12_3 C15_3 1_555 1_555
C16_3 H13_2 1_555 1_555
C17_3 C16_3 1_555 1_555
H14_3 C17_3 1_555 1_555
C18_3 C17_3 1_555 1_555
C19_3 C18_3 1_555 1_555
H15_3 C19_3 1_555 1_555
C20_3 C19_3 1_555 1_555
H16_3 C20_3 1_555 1_555
C21_3 C3_3 1_555 1_555
C22_3 C21_3 1_555 1_555
C23_3 C22_3 1_555 1_555
H17_3 C23_3 1_555 1_555
H18_3 C23_3 1_555 1_555
H19_3 C23_3 1_555 1_555
C24_3 C22_3 1_555 1_555
C25_3 C24_3 1_555 1_555
C26_3 C24_3 1_555 1_555
C27_3 C26_3 1_555 1_555
H20_3 C27_3 1_555 1_555
H21_3 C27_3 1_555 1_555
H22_3 C27_3 1_555 1_555
C28_3 C18_3 1_555 1_555
C29_3 C21_3 1_555 1_555
C30_3 C29_3 1_555 1_555
H23_3 C30_3 1_555 1_555
H24_3 C30_3 1_555 1_555
H25_3 C30_3 1_555 1_555
C31_3 C8_3 1_555 1_555
C32_3 C31_3 1_555 1_555
C33_3 C32_3 1_555 1_555
H26_3 C33_3 1_555 1_555
H27_3 C33_3 1_555 1_555
H28_3 C33_3 1_555 1_555
C34_3 C25_3 1_555 1_555
C35_3 C34_3 1_555 1_555
H29_3 C35_3 1_555 1_555
H30_3 C35_3 1_555 1_555
H31_3 C35_3 1_555 1_555
C36_3 C13_3 1_555 1_555
C37_3 C25_3 1_555 1_555
C38_3 C37_3 1_555 1_555
H32_3 C38_3 1_555 1_555
H33_3 C38_3 1_555 1_555
H34_3 C38_3 1_555 1_555
Cl2_3 Mn2 1_555 1_555
Mn2 N1_3 1_555 1_555
N1_3 C1_3 1_555 1_555
N5 C6_3 1_555 1_555
N6_2 C11_3 1_555 1_555
N4_2 C16_3 1_555 1_555
Mn3 N4_2 1_555 1_555
C5_3 N1_3 1_555 1_555
C10_3 N5 1_555 1_555
C15_3 N6_2 1_555 1_555
C20_3 N4_2 1_555 1_555
C26_3 C28_3 1_555 1_555
C28_3 C29_3 1_555 1_555
C31_3 C34_3 1_555 1_555
C32_3 C36_3 1_555 1_555
C36_3 C37_3 1_555 1_555
C6_4 H5_4 1_555 1_555
C7_4 C6_4 1_555 1_555
H6_4 C7_4 1_555 1_555
C8_4 C7_4 1_555 1_555
C9_4 C8_4 1_555 1_555
H7_4 C9_4 1_555 1_555
C10_4 C9_4 1_555 1_555
H8_4 C10_4 1_555 1_555
C17_4 C16_4 1_555 1_555
H14_4 C17_4 1_555 1_555
C18_4 C17_4 1_555 1_555
C19_4 C18_4 1_555 1_555
H15_4 C19_4 1_555 1_555
C20_4 C19_4 1_555 1_555
H16_4 C20_4 1_555 1_555
C22_4 C21_4 1_555 1_555
C24_4 C22_4 1_555 1_555
C25_4 C24_4 1_555 1_555
C26_4 C24_4 1_555 1_555
C27_4 C26_4 1_555 1_555
H20_4 C27_4 1_555 1_555
H21_4 C27_4 1_555 1_555
H22_4 C27_4 1_555 1_555
C28_4 C18_4 1_555 1_555
C29_4 C21_4 1_555 1_555
C30_4 C29_4 1_555 1_555
H23_4 C30_4 1_555 1_555
H24_4 C30_4 1_555 1_555
H25_4 C30_4 1_555 1_555
C31_4 C8_4 1_555 1_555
C32_4 C31_4 1_555 1_555
C33_4 C32_4 1_555 1_555
H26_4 C33_4 1_555 1_555
H27_4 C33_4 1_555 1_555
H28_4 C33_4 1_555 1_555
C34_4 C25_4 1_555 1_555
C35_4 C34_4 1_555 1_555
H29_4 C35_4 1_555 1_555
H30_4 C35_4 1_555 1_555
H31_4 C35_4 1_555 1_555
C37_4 C25_4 1_555 1_555
N5_2 C6_4 1_555 1_555
N7_2 C16_4 1_555 1_555
C10_4 N5_2 1_555 1_555
C20_4 N7_2 1_555 1_555
C26_4 C28_4 1_555 1_555
C28_4 C29_4 1_555 1_555
C31_4 C34_4 1_555 1_555
C32_4 C36_4 1_555 1_555
C36_4 C37_4 1_555 1_555
C1_4 H1_4 1_555 1_555
C2_4 C1_4 1_555 1_555
C3_4 C2_4 1_555 1_555
C4_4 C3_4 1_555 1_555
H3_4 C4_4 1_555 1_555
C5_4 C4_4 1_555 1_555
H4_4 C5_4 1_555 1_555
C12_4 C11_4 1_555 1_555
C13_4 C12_4 1_555 1_555
C14_4 C13_4 1_555 1_555
H11_4 C14_4 1_555 1_555
C15_4 C14_4 1_555 1_555
H12_4 C15_4 1_555 1_555
H17_4 C23_4 1_555 1_555
H18_4 C23_4 1_555 1_555
H32_4 C38_4 1_555 1_555
H33_4 C38_4 1_555 1_555
Cl1_4 Mn3 1_555 1_555
Cl2_4 Mn3 1_555 1_555
Mn3 N1_4 1_555 1_555
N1_4 C1_4 1_555 1_555
N6 C11_4 1_555 1_555
C5_4 N1_4 1_555 1_555
C15_4 N6 1_555 1_555
C1_5 H1_5 1_555 1_555
C2_5 C1_5 1_555 1_555
H2_5 C2_5 1_555 1_555
C3_5 C2_5 1_555 1_555
C4_5 C3_5 1_555 1_555
H3_5 C4_5 1_555 1_555
C5_5 C4_5 1_555 1_555
H4_5 C5_5 1_555 1_555
C6_5 H5_5 1_555 1_555
C7_5 C6_5 1_555 1_555
H6_5 C7_5 1_555 1_555
C8_5 C7_5 1_555 1_555
C9_5 C8_5 1_555 1_555
H7_5 C9_5 1_555 1_555
C10_5 C9_5 1_555 1_555
H8_5 C10_5 1_555 1_555
C11_5 H9_5 1_555 1_555
C12_5 C11_5 1_555 1_555
H10_5 C12_5 1_555 1_555
C13_5 C12_5 1_555 1_555
C14_5 C13_5 1_555 1_555
H11_5 C14_5 1_555 1_555
C15_5 C14_5 1_555 1_555
H12_5 C15_5 1_555 1_555
C16_5 H13_5 1_555 1_555
C17_5 C16_5 1_555 1_555
H14_5 C17_5 1_555 1_555
C18_5 C17_5 1_555 1_555
C19_5 C18_5 1_555 1_555
H15_5 C19_5 1_555 1_555
C20_5 C19_5 1_555 1_555
H16_5 C20_5 1_555 1_555
C21_5 C3_5 1_555 1_555
C22_5 C21_5 1_555 1_555
C23_5 C22_5 1_555 1_555
H17_5 C23_5 1_555 1_555
H18_5 C23_5 1_555 1_555
H19_5 C23_5 1_555 1_555
C24_5 C22_5 1_555 1_555
C25_5 C24_5 1_555 1_555
C26_5 C24_5 1_555 1_555
C27_5 C26_5 1_555 1_555
H20_5 C27_5 1_555 1_555
H21_5 C27_5 1_555 1_555
H22_5 C27_5 1_555 1_555
C28_5 C18_5 1_555 1_555
C29_5 C21_5 1_555 1_555
C30_5 C29_5 1_555 1_555
H23_5 C30_5 1_555 1_555
H24_5 C30_5 1_555 1_555
H25_5 C30_5 1_555 1_555
C31_5 C8_5 1_555 1_555
C32_5 C31_5 1_555 1_555
C33_5 C32_5 1_555 1_555
H26_5 C33_5 1_555 1_555
H27_5 C33_5 1_555 1_555
H28_5 C33_5 1_555 1_555
C34_5 C25_5 1_555 1_555
C35_5 C34_5 1_555 1_555
H29_5 C35_5 1_555 1_555
H30_5 C35_5 1_555 1_555
H31_5 C35_5 1_555 1_555
C36_5 C13_5 1_555 1_555
C37_5 C25_5 1_555 1_555
C38_5 C37_5 1_555 1_555
H32_5 C38_5 1_555 1_555
H33_5 C38_5 1_555 1_555
H34_5 C38_5 1_555 1_555
Cl2_5 Mn1_2 1_555 1_555
Mn1_2 N1_5 1_555 1_555
N1_5 C1_5 1_555 1_555
N2_3 C6_5 1_555 1_555
N3_3 C11_5 1_555 1_555
N4_3 C16_5 1_555 1_555
Mn2_2 N2_3 1_555 1_555
Mn3_2 N3_3 1_555 1_555
Mn4_2 N4_3 1_555 1_555
N5_3 Mn1_2 1_555 1_555
C5_5 N1_5 1_555 1_555
C10_5 N2_3 1_555 1_555
C15_5 N3_3 1_555 1_555
C20_5 N4_3 1_555 1_555
C26_5 C28_5 1_555 1_555
C28_5 C29_5 1_555 1_555
C31_5 C34_5 1_555 1_555
C32_5 C36_5 1_555 1_555
C36_5 C37_5 1_555 1_555
C1_6 H1_6 1_555 1_555
C2_6 C1_6 1_555 1_555
C3_6 C2_6 1_555 1_555
C4_6 C3_6 1_555 1_555
H3_6 C4_6 1_555 1_555
C5_6 C4_6 1_555 1_555
H4_6 C5_6 1_555 1_555
C12_6 C11_6 1_555 1_555
C13_6 C12_6 1_555 1_555
C14_6 C13_6 1_555 1_555
H11_6 C14_6 1_555 1_555
C15_6 C14_6 1_555 1_555
H12_6 C15_6 1_555 1_555
H17_6 C23_6 1_555 1_555
H18_6 C23_6 1_555 1_555
H32_6 C38_6 1_555 1_555
H33_6 C38_6 1_555 1_555
Cl1_6 Mn4_2 1_555 1_555
Cl2_6 Mn4_2 1_555 1_555
Mn4_2 N1_6 1_555 1_555
N1_6 C1_6 1_555 1_555
N3_4 C11_6 1_555 1_555
N5_4 Mn4_2 1_555 1_555
N6_4 Mn4_2 1_555 1_555
C5_6 N1_6 1_555 1_555
C15_6 N3_4 1_555 1_555
C6_6 H5_6 1_555 1_555
C7_6 C6_6 1_555 1_555
H6_6 C7_6 1_555 1_555
C8_6 C7_6 1_555 1_555
C9_6 C8_6 1_555 1_555
H7_6 C9_6 1_555 1_555
C10_6 C9_6 1_555 1_555
H8_6 C10_6 1_555 1_555
C17_6 C16_6 1_555 1_555
H14_6 C17_6 1_555 1_555
C18_6 C17_6 1_555 1_555
C19_6 C18_6 1_555 1_555
H15_6 C19_6 1_555 1_555
C20_6 C19_6 1_555 1_555
H16_6 C20_6 1_555 1_555
C22_6 C21_6 1_555 1_555
C24_6 C22_6 1_555 1_555
C25_6 C24_6 1_555 1_555
C26_6 C24_6 1_555 1_555
C27_6 C26_6 1_555 1_555
H20_6 C27_6 1_555 1_555
H21_6 C27_6 1_555 1_555
H22_6 C27_6 1_555 1_555
C28_6 C18_6 1_555 1_555
C29_6 C21_6 1_555 1_555
C30_6 C29_6 1_555 1_555
H23_6 C30_6 1_555 1_555
H24_6 C30_6 1_555 1_555
H25_6 C30_6 1_555 1_555
C31_6 C8_6 1_555 1_555
C32_6 C31_6 1_555 1_555
C33_6 C32_6 1_555 1_555
H26_6 C33_6 1_555 1_555
H27_6 C33_6 1_555 1_555
H28_6 C33_6 1_555 1_555
C34_6 C25_6 1_555 1_555
C35_6 C34_6 1_555 1_555
H29_6 C35_6 1_555 1_555
H30_6 C35_6 1_555 1_555
H31_6 C35_6 1_555 1_555
C37_6 C25_6 1_555 1_555
N2_4 C6_6 1_555 1_555
N7_3 C16_6 1_555 1_555
Mn3_2 N2_4 1_555 1_555
C10_6 N2_4 1_555 1_555
C20_6 N7_3 1_555 1_555
C26_6 C28_6 1_555 1_555
C28_6 C29_6 1_555 1_555
C31_6 C34_6 1_555 1_555
C32_6 C36_6 1_555 1_555
C36_6 C37_6 1_555 1_555
H4_7 C5_7 1_555 1_555
H23_7 C30_7 1_555 1_555
H24_7 C30_7 1_555 1_555
H25_7 C30_7 1_555 1_555
Cl2_7 Mn2_2 1_555 1_555
Mn2_2 N1_7 1_555 1_555
Mn3_2 N4_4 1_555 1_555
C5_7 N1_7 1_555 1_555
C1_7 H1_7 1_555 1_555
C2_7 C1_7 1_555 1_555
H2_7 C2_7 1_555 1_555
C3_7 C2_7 1_555 1_555
C4_7 C3_7 1_555 1_555
H3_7 C4_7 1_555 1_555
C6_7 H5_7 1_555 1_555
C7_7 C6_7 1_555 1_555
H6_7 C7_7 1_555 1_555
C8_7 C7_7 1_555 1_555
C9_7 C8_7 1_555 1_555
H7_7 C9_7 1_555 1_555
C10_7 C9_7 1_555 1_555
H8_7 C10_7 1_555 1_555
C11_7 H9_7 1_555 1_555
C12_7 C11_7 1_555 1_555
H10_7 C12_7 1_555 1_555
C13_7 C12_7 1_555 1_555
C14_7 C13_7 1_555 1_555
H11_7 C14_7 1_555 1_555
C15_7 C14_7 1_555 1_555
H12_7 C15_7 1_555 1_555
C16_7 H13_7 1_555 1_555
C17_7 C16_7 1_555 1_555
H14_7 C17_7 1_555 1_555
C18_7 C17_7 1_555 1_555
C19_7 C18_7 1_555 1_555
H15_7 C19_7 1_555 1_555
C20_7 C19_7 1_555 1_555
C21_7 C3_7 1_555 1_555
C22_7 C21_7 1_555 1_555
C23_7 C22_7 1_555 1_555
H17_7 C23_7 1_555 1_555
H18_7 C23_7 1_555 1_555
H19_7 C23_7 1_555 1_555
C24_7 C22_7 1_555 1_555
C25_7 C24_7 1_555 1_555
C26_7 C24_7 1_555 1_555
C27_7 C26_7 1_555 1_555
H20_7 C27_7 1_555 1_555
H21_7 C27_7 1_555 1_555
H22_7 C27_7 1_555 1_555
C28_7 C18_7 1_555 1_555
C29_7 C21_7 1_555 1_555
C31_7 C8_7 1_555 1_555
C32_7 C31_7 1_555 1_555
C33_7 C32_7 1_555 1_555
H26_7 C33_7 1_555 1_555
H27_7 C33_7 1_555 1_555
H28_7 C33_7 1_555 1_555
C34_7 C25_7 1_555 1_555
C35_7 C34_7 1_555 1_555
H29_7 C35_7 1_555 1_555
H30_7 C35_7 1_555 1_555
H31_7 C35_7 1_555 1_555
C36_7 C13_7 1_555 1_555
C37_7 C25_7 1_555 1_555
C38_7 C37_7 1_555 1_555
H32_7 C38_7 1_555 1_555
H33_7 C38_7 1_555 1_555
H34_7 C38_7 1_555 1_555
N5_3 C6_7 1_555 1_555
N6_4 C11_7 1_555 1_555
C10_7 N5_3 1_555 1_555
C15_7 N6_4 1_555 1_555
C26_7 C28_7 1_555 1_555
C28_7 C29_7 1_555 1_555
C31_7 C34_7 1_555 1_555
C32_7 C36_7 1_555 1_555
C36_7 C37_7 1_555 1_555
H23_8 C30_8 1_555 1_555
H24_8 C30_8 1_555 1_555
H25_8 C30_8 1_555 1_555
C6_8 H5_8 1_555 1_555
C7_8 C6_8 1_555 1_555
H6_8 C7_8 1_555 1_555
C8_8 C7_8 1_555 1_555
C9_8 C8_8 1_555 1_555
H7_8 C9_8 1_555 1_555
C10_8 C9_8 1_555 1_555
H8_8 C10_8 1_555 1_555
C17_8 C16_8 1_555 1_555
H14_8 C17_8 1_555 1_555
C18_8 C17_8 1_555 1_555
C19_8 C18_8 1_555 1_555
H15_8 C19_8 1_555 1_555
C20_8 C19_8 1_555 1_555
C22_8 C21_8 1_555 1_555
C24_8 C22_8 1_555 1_555
C25_8 C24_8 1_555 1_555
C26_8 C24_8 1_555 1_555
C27_8 C26_8 1_555 1_555
H20_8 C27_8 1_555 1_555
H21_8 C27_8 1_555 1_555
H22_8 C27_8 1_555 1_555
C28_8 C18_8 1_555 1_555
C29_8 C21_8 1_555 1_555
C31_8 C8_8 1_555 1_555
C32_8 C31_8 1_555 1_555
C33_8 C32_8 1_555 1_555
H26_8 C33_8 1_555 1_555
H27_8 C33_8 1_555 1_555
H28_8 C33_8 1_555 1_555
C34_8 C25_8 1_555 1_555
C35_8 C34_8 1_555 1_555
H29_8 C35_8 1_555 1_555
H30_8 C35_8 1_555 1_555
H31_8 C35_8 1_555 1_555
C37_8 C25_8 1_555 1_555
N5_4 C6_8 1_555 1_555
C10_8 N5_4 1_555 1_555
C26_8 C28_8 1_555 1_555
C28_8 C29_8 1_555 1_555
C31_8 C34_8 1_555 1_555
C32_8 C36_8 1_555 1_555
C36_8 C37_8 1_555 1_555
H4_8 C5_8 1_555 1_555
Cl1_8 Mn3_2 1_555 1_555
Cl2_8 Mn3_2 1_555 1_555
Mn3_2 N1_8 1_555 1_555
C5_8 N1_8 1_555 1_555
C1_8 H1_8 1_555 1_555
C2_8 C1_8 1_555 1_555
C3_8 C2_8 1_555 1_555
C4_8 C3_8 1_555 1_555
H3_8 C4_8 1_555 1_555
C12_8 C11_8 1_555 1_555
C13_8 C12_8 1_555 1_555
C14_8 C13_8 1_555 1_555
H11_8 C14_8 1_555 1_555
C15_8 C14_8 1_555 1_555
H12_8 C15_8 1_555 1_555
H17_8 C23_8 1_555 1_555
H18_8 C23_8 1_555 1_555
H32_8 C38_8 1_555 1_555
H33_8 C38_8 1_555 1_555
N6_3 C11_8 1_555 1_555
C15_8 N6_3 1_555 1_555

#END
