
###############################################################################
#
# This file contains modified crystal structure data generated from the
# MOF subset of the Cambridge Structural Database (CSD) v543 
# hosted by the Cambridge Crystallographic Data Centre (CCDC).
#
# This work is licensed under the Creative Commons
# Attribution-NonCommercial-ShareAlike 4.0 International License.
# To view a copy of this license, visit
# http://creativecommons.org/licenses/by-nc-sa/4.0/
# or send a letter to
# Creative Commons, PO Box 1866, Mountain View, CA 94042, USA.
#
# CIF created using the CSD Python API on 29 September 2022
# The structure has been converted into the P1 space group
# The structure has a 3D framework
# The original CSD entry MAPCUE is in the monoclinic crystal system
# The framework has been calculated to contain at least 10.0% void space
# The void calculation uses a probe of radius 1.32A, grid spacing 0.4
# The framework is charged, counterions have been retained in the structure
#
###############################################################################

data_MAPCUE
_chemical_formula_moiety         '(C168 H88 N8 O68 Tb8 4-)n'
_symmetry_cell_setting           triclinic
_symmetry_space_group_name_H-M   'P 1'
_symmetry_Int_Tables_number      1
_space_group_name_Hall           'P 1'
loop_
_symmetry_equiv_pos_site_id
_symmetry_equiv_pos_as_xyz
1 x,y,z
_cell_length_a                   19.6084(4)
_cell_length_b                   11.9016(3)
_cell_length_c                   21.9364(5)
_cell_angle_alpha                90
_cell_angle_beta                 97.186(2)
_cell_angle_gamma                90
_cell_volume                     5079.12
loop_
_atom_site_label
_atom_site_type_symbol
_atom_site_fract_x
_atom_site_fract_y
_atom_site_fract_z
O6 O 0.05228(6) 0.71996(9) 0.47769(6)
O7 O 0.08600(7) 0.78222(9) 0.57034(6)
C11 C 0.04178(17) 0.7779(3) 0.52357(14)
H7 H 0.0131 0.9490 0.5930
Tb3 Tb 0.169243(8) 0.669162(14) 0.525737(7)
Tb1 Tb 0.830757(8) 0.330838(14) 0.474263(7)
O1 O 0.80021(11) 0.15739(17) 0.51471(9)
O2 O 0.67796(11) 0.13537(18) 0.41949(9)
O3 O 0.74268(11) 0.00212(19) 0.52434(10)
O4 O 0.76697(11) 0.23539(19) 0.39205(9)
C1 C 0.66408(17) 0.1744(3) 0.21109(14)
H1 H 0.6505 0.2299 0.1808
O5 O 0.89518(6) 0.50763(9) 0.51326(5)
H2 H 0.9292 0.4908 0.5413
H3 H 0.9118 0.5420 0.4832
C2 C 0.71848(7) 0.16747(9) 0.38192(7)
O8 O 0.59540(7) 0.09071(9) 0.09798(6)
C6 C 0.70080(15) 0.0109(3) 0.30168(13)
C7 C 0.70320(16) 0.1253(3) 0.31697(13)
C12 C 0.91787(17) 0.0045(3) 0.55822(14)
H6 H 0.9171 0.0671 0.5850
C14 C 0.63489(16) 0.0242(3) 0.13103(13)
C16 C 0.79766(17) 0.0515(3) 0.51725(13)
C18 C 0.68729(17) 0.2061(3) 0.27073(14)
H9 H 0.6925 0.2836 0.2806
C19 C 0.66058(16) 0.0605(3) 0.19545(14)
Tb4 Tb 0.669243(8) 0.169162(14) 0.525737(7)
O10 O 0.69979(11) 0.34261(17) 0.48529(9)
O11 O 0.82204(11) 0.36463(18) 0.58051(9)
O12 O 0.75732(11) 0.49788(19) 0.47566(10)
O13 O 0.94772(6) 0.28004(9) 0.52231(6)
O14 O 0.91400(7) 0.21778(9) 0.42966(6)
O15 O 0.84718(14) 0.4296(2) 0.38575(10)
C3 C 0.68855(6) 0.81718(9) 0.34566(5)
H4 H 0.6493 0.8038 0.3166
C4 C 0.92061(17) 0.8240(3) 0.47762(14)
H5 H 0.9225 0.7636 0.4496
O9 O 0.65282(14) 0.9296(2) 0.11425(10)
C5 C 0.80073(16) 0.8636(3) 0.42918(13)
C8 C 0.97711(16) 0.8465(3) 0.52218(14)
N1 N 0.77696(14) 0.9451(2) 0.38954(12)
C9 C 0.86133(16) 0.9824(3) 0.51470(14)
C10 C 0.72289(17) 0.9221(3) 0.34791(13)
C13 C 0.97525(18) 0.9353(3) 0.56244(15)
C15 C 0.68047(16) 0.9808(3) 0.24021(14)
H8 H 0.6803 0.9037 0.2290
C17 C 0.86182(16) 0.8908(3) 0.47482(14)
C20 C 0.77108(17) 0.7564(3) 0.42885(14)
H10 H 0.7898 0.7000 0.4567
C21 C 0.71372(18) 0.7349(3) 0.38688(15)
H11 H 0.6917 0.6637 0.3865
Tb2 Tb 0.669243(8) 0.830838(14) 0.025737(7)
Tb1_2 Tb 0.169243(8) 0.330838(14) 0.025737(7)
O2_2 O 0.32204(11) 0.13537(18) 0.08051(9)
O4_2 O 0.23303(11) 0.23539(19) 0.10795(9)
C1_2 C 0.33592(17) 0.1744(3) 0.28891(14)
H1_2 H 0.3495 0.2299 0.3192
H3_2 H 0.0882 0.5420 0.0168
C2_2 C 0.28152(7) 0.16747(9) 0.11808(7)
O8_2 O 0.40460(7) 0.09071(9) 0.40202(6)
C6_2 C 0.29920(15) 0.0109(3) 0.19832(13)
C7_2 C 0.29680(16) 0.1253(3) 0.18303(13)
C14_2 C 0.36511(16) 0.0242(3) 0.36897(13)
C18_2 C 0.31271(17) 0.2061(3) 0.22927(14)
H9_2 H 0.3075 0.2836 0.2194
C19_2 C 0.33942(16) 0.0605(3) 0.30455(14)
O10_2 O 0.30021(11) 0.34261(17) 0.01471(9)
O12_2 O 0.24268(11) 0.49788(19) 0.02434(10)
O14_2 O 0.08600(7) 0.21778(9) 0.07034(6)
O15_2 O 0.15282(14) 0.4296(2) 0.11425(10)
O1_2 O 0.19979(11) 0.15739(17) 0.98529(9)
O3_2 O 0.25732(11) 0.00212(19) 0.97566(10)
O5_2 O 0.10482(6) 0.50763(9) 0.98674(5)
H2_2 H 0.0708 0.4908 0.9587
C12_2 C 0.08213(17) 0.0045(3) 0.94178(14)
H6_2 H 0.0829 0.0671 0.9150
C16_2 C 0.20234(17) 0.0515(3) 0.98275(13)
Tb4_2 Tb 0.330757(8) 0.169162(14) 0.974263(7)
O11_2 O 0.17796(11) 0.36463(18) 0.91949(9)
O13_2 O 0.05228(6) 0.28004(9) 0.97769(6)
C3_2 C 0.31145(6) 0.81718(9) 0.15434(5)
H4_2 H 0.3507 0.8038 0.1834
C4_2 C 0.07939(17) 0.8240(3) 0.02238(14)
H5_2 H 0.0775 0.7636 0.0504
O9_2 O 0.34718(14) 0.9296(2) 0.38575(10)
C5_2 C 0.19927(16) 0.8636(3) 0.07082(13)
N1_2 N 0.22304(14) 0.9451(2) 0.11046(12)
C10_2 C 0.27711(17) 0.9221(3) 0.15209(13)
C15_2 C 0.31953(16) 0.9808(3) 0.25979(14)
H8_2 H 0.3197 0.9037 0.2710
C17_2 C 0.13818(16) 0.8908(3) 0.02518(14)
C20_2 C 0.22892(17) 0.7564(3) 0.07115(14)
H10_2 H 0.2102 0.7000 0.0433
C21_2 C 0.28628(18) 0.7349(3) 0.11312(15)
H11_2 H 0.3083 0.6637 0.1135
Tb2_2 Tb 0.330757(8) 0.830838(14) 0.474263(7)
O6_2 O 0.94772(6) 0.71996(9) 0.02231(6)
O7_2 O 0.91400(7) 0.78222(9) 0.92966(6)
C11_2 C 0.95822(17) 0.7779(3) 0.97643(14)
H7_2 H 0.9869 0.9490 0.9070
Tb3_2 Tb 0.830757(8) 0.669162(14) 0.974263(7)
O1_3 O 0.30021(11) 0.65739(17) 0.51471(9)
O2_3 O 0.17796(11) 0.63537(18) 0.41949(9)
O3_3 O 0.24268(11) 0.50212(19) 0.52434(10)
O4_3 O 0.26697(11) 0.73539(19) 0.39205(9)
C1_3 C 0.16408(17) 0.6744(3) 0.21109(14)
H1_3 H 0.1505 0.7299 0.1808
H2_3 H 0.4292 0.9908 0.5413
O6_3 O 0.55228(6) 0.21996(9) 0.47769(6)
O7_3 O 0.58600(7) 0.28222(9) 0.57034(6)
C2_3 C 0.21848(7) 0.66747(9) 0.38192(7)
O8_3 O 0.09540(7) 0.59071(9) 0.09798(6)
C3_3 C 0.18855(6) 0.31718(9) 0.34566(5)
H4_3 H 0.1493 0.3038 0.3166
C4_3 C 0.42061(17) 0.3240(3) 0.47762(14)
H5_3 H 0.4225 0.2636 0.4496
C5_3 C 0.30073(16) 0.3636(3) 0.42918(13)
C6_3 C 0.20080(15) 0.5109(3) 0.30168(13)
C7_3 C 0.20320(16) 0.6253(3) 0.31697(13)
C8_2 C 0.47711(16) 0.3465(3) 0.52218(14)
N1_3 N 0.27696(14) 0.4451(2) 0.38954(12)
C9_2 C 0.36133(16) 0.4824(3) 0.51470(14)
C10_3 C 0.22289(17) 0.4221(3) 0.34791(13)
C11_3 C 0.54178(17) 0.2779(3) 0.52357(14)
C12_3 C 0.41787(17) 0.5045(3) 0.55822(14)
H6_3 H 0.4171 0.5671 0.5850
C13_2 C 0.47525(18) 0.4353(3) 0.56244(15)
H7_3 H 0.5131 0.4490 0.5930
C14_3 C 0.13489(16) 0.5242(3) 0.13103(13)
C15_3 C 0.18047(16) 0.4808(3) 0.24021(14)
H8_3 H 0.1803 0.4037 0.2290
C16_3 C 0.29766(17) 0.5515(3) 0.51725(13)
C17_3 C 0.36182(16) 0.3908(3) 0.47482(14)
C18_3 C 0.18729(17) 0.7061(3) 0.27073(14)
H9_3 H 0.1925 0.7836 0.2806
C19_3 C 0.16058(16) 0.5605(3) 0.19545(14)
C20_3 C 0.27108(17) 0.2564(3) 0.42885(14)
H10_3 H 0.2898 0.2000 0.4567
C21_3 C 0.21372(18) 0.2349(3) 0.38688(15)
H11_3 H 0.1917 0.1637 0.3865
O10_3 O 0.19979(11) 0.84261(17) 0.48529(9)
O11_3 O 0.32204(11) 0.86463(18) 0.58051(9)
O12_3 O 0.25732(11) 0.99788(19) 0.47566(10)
O13_3 O 0.44772(6) 0.78004(9) 0.52231(6)
O14_3 O 0.41400(7) 0.71778(9) 0.42966(6)
O2_4 O 0.82204(11) 0.63537(18) 0.08051(9)
O4_4 O 0.73303(11) 0.73539(19) 0.10795(9)
C1_4 C 0.83592(17) 0.6744(3) 0.28891(14)
H1_4 H 0.8495 0.7299 0.3192
O6_4 O 0.44772(6) 0.21996(9) 0.02231(6)
C2_4 C 0.78152(7) 0.66747(9) 0.11808(7)
O8_4 O 0.90460(7) 0.59071(9) 0.40202(6)
C3_4 C 0.81145(6) 0.31718(9) 0.15434(5)
H4_4 H 0.8507 0.3038 0.1834
C4_4 C 0.57939(17) 0.3240(3) 0.02238(14)
H5_4 H 0.5775 0.2636 0.0504
C5_4 C 0.69927(16) 0.3636(3) 0.07082(13)
C6_4 C 0.79920(15) 0.5109(3) 0.19832(13)
C7_4 C 0.79680(16) 0.6253(3) 0.18303(13)
N1_4 N 0.72304(14) 0.4451(2) 0.11046(12)
C10_4 C 0.77711(17) 0.4221(3) 0.15209(13)
C14_4 C 0.86511(16) 0.5242(3) 0.36897(13)
C15_4 C 0.81953(16) 0.4808(3) 0.25979(14)
H8_4 H 0.8197 0.4037 0.2710
C17_4 C 0.63818(16) 0.3908(3) 0.02518(14)
C18_4 C 0.81271(17) 0.7061(3) 0.22927(14)
H9_4 H 0.8075 0.7836 0.2194
C19_4 C 0.83942(16) 0.5605(3) 0.30455(14)
C20_4 C 0.72892(17) 0.2564(3) 0.07115(14)
H10_4 H 0.7102 0.2000 0.0433
C21_4 C 0.78628(18) 0.2349(3) 0.11312(15)
H11_4 H 0.8083 0.1637 0.1135
O10_4 O 0.80021(11) 0.84261(17) 0.01471(9)
O12_4 O 0.74268(11) 0.99788(19) 0.02434(10)
O14_4 O 0.58600(7) 0.71778(9) 0.07034(6)
O1_4 O 0.69979(11) 0.65739(17) 0.98529(9)
O3_4 O 0.75732(11) 0.50212(19) 0.97566(10)
H2_4 H 0.5708 0.9908 0.9587
O7_4 O 0.41400(7) 0.28222(9) 0.92966(6)
C8_3 C 0.52289(16) 0.3465(3) 0.97782(14)
C9_3 C 0.63867(16) 0.4824(3) 0.98530(14)
C11_4 C 0.45822(17) 0.2779(3) 0.97643(14)
C12_4 C 0.58213(17) 0.5045(3) 0.94178(14)
H6_4 H 0.5829 0.5671 0.9150
C13_3 C 0.52475(18) 0.4353(3) 0.93756(15)
H7_4 H 0.4869 0.4490 0.9070
C16_4 C 0.70234(17) 0.5515(3) 0.98275(13)
O11_4 O 0.67796(11) 0.86463(18) 0.91949(9)
O13_4 O 0.55228(6) 0.78004(9) 0.97769(6)
C3_5 C 0.31145(6) 0.18282(9) 0.65434(5)
H4_5 H 0.3507 0.1962 0.6834
C4_5 C 0.07939(17) 0.1760(3) 0.52238(14)
H5_5 H 0.0775 0.2364 0.5504
O9_3 O 0.34718(14) 0.0704(2) 0.88575(10)
C5_5 C 0.19927(16) 0.1364(3) 0.57082(13)
C8_4 C 0.02289(16) 0.1535(3) 0.47782(14)
N1_5 N 0.22304(14) 0.0549(2) 0.61046(12)
C9_4 C 0.13867(16) 0.0176(3) 0.48530(14)
C10_5 C 0.27711(17) 0.0779(3) 0.65209(13)
C13_4 C 0.02475(18) 0.0647(3) 0.43756(15)
C15_5 C 0.31953(16) 0.0192(3) 0.75979(14)
H8_5 H 0.3197 0.0963 0.7710
C17_5 C 0.13818(16) 0.1092(3) 0.52518(14)
C20_5 C 0.22892(17) 0.2436(3) 0.57115(14)
H10_5 H 0.2102 0.3000 0.5433
C21_5 C 0.28628(18) 0.2651(3) 0.61312(15)
H11_5 H 0.3083 0.3363 0.6135
O4_5 O 0.23303(11) 0.76461(19) 0.60795(9)
C1_5 C 0.33592(17) 0.8256(3) 0.78891(14)
H1_5 H 0.3495 0.7701 0.8192
O5_3 O 0.10482(6) 0.49237(9) 0.48674(5)
H2_5 H 0.0708 0.5092 0.4587
H3_3 H 0.0882 0.4580 0.5168
C2_5 C 0.28152(7) 0.83253(9) 0.61808(7)
O8_5 O 0.40460(7) 0.90929(9) 0.90202(6)
C6_5 C 0.29920(15) 0.9891(3) 0.69832(13)
C7_5 C 0.29680(16) 0.8747(3) 0.68303(13)
C12_5 C 0.08213(17) 0.9955(3) 0.44178(14)
H6_5 H 0.0829 0.9329 0.4150
C14_5 C 0.36511(16) 0.9758(3) 0.86897(13)
C16_5 C 0.20234(17) 0.9485(3) 0.48275(13)
C18_5 C 0.31271(17) 0.7939(3) 0.72927(14)
H9_5 H 0.3075 0.7164 0.7194
C19_5 C 0.33942(16) 0.9395(3) 0.80455(14)
O15_3 O 0.15282(14) 0.5704(2) 0.61425(10)
C11_5 C 0.95822(17) 0.2221(3) 0.47643(14)
H7_5 H 0.9869 0.0510 0.4070
C11_6 C 0.04178(17) 0.2221(3) 0.02357(14)
H7_6 H 0.0131 0.0510 0.0930
C3_6 C 0.68855(6) 0.18282(9) 0.84566(5)
H4_6 H 0.6493 0.1962 0.8166
C4_6 C 0.92061(17) 0.1760(3) 0.97762(14)
H5_6 H 0.9225 0.2364 0.9496
O9_4 O 0.65282(14) 0.0704(2) 0.61425(10)
C5_6 C 0.80073(16) 0.1364(3) 0.92918(13)
N1_6 N 0.77696(14) 0.0549(2) 0.88954(12)
C10_6 C 0.72289(17) 0.0779(3) 0.84791(13)
C15_6 C 0.68047(16) 0.0192(3) 0.74021(14)
H8_6 H 0.6803 0.0963 0.7290
C17_6 C 0.86182(16) 0.1092(3) 0.97482(14)
C20_6 C 0.77108(17) 0.2436(3) 0.92885(14)
H10_6 H 0.7898 0.3000 0.9567
C21_6 C 0.71372(18) 0.2651(3) 0.88688(15)
H11_6 H 0.6917 0.3363 0.8865
O5_4 O 0.89518(6) 0.49237(9) 0.01326(5)
H2_6 H 0.9292 0.5092 0.0413
C12_6 C 0.91787(17) 0.9955(3) 0.05822(14)
H6_6 H 0.9171 0.9329 0.0850
C16_6 C 0.79766(17) 0.9485(3) 0.01725(13)
O4_6 O 0.76697(11) 0.76461(19) 0.89205(9)
C1_6 C 0.66408(17) 0.8256(3) 0.71109(14)
H1_6 H 0.6505 0.7701 0.6808
H3_4 H 0.9118 0.4580 0.9832
C2_6 C 0.71848(7) 0.83253(9) 0.88192(7)
O8_6 O 0.59540(7) 0.90929(9) 0.59798(6)
C6_6 C 0.70080(15) 0.9891(3) 0.80168(13)
C7_6 C 0.70320(16) 0.8747(3) 0.81697(13)
C14_6 C 0.63489(16) 0.9758(3) 0.63103(13)
C18_6 C 0.68729(17) 0.7939(3) 0.77073(14)
H9_6 H 0.6925 0.7164 0.7806
C19_6 C 0.66058(16) 0.9395(3) 0.69545(14)
O15_4 O 0.84718(14) 0.5704(2) 0.88575(10)
O4_7 O 0.73303(11) 0.26461(19) 0.60795(9)
C1_7 C 0.83592(17) 0.3256(3) 0.78891(14)
H1_7 H 0.8495 0.2701 0.8192
H2_7 H 0.5708 0.0092 0.4587
C2_7 C 0.78152(7) 0.33253(9) 0.61808(7)
O8_7 O 0.90460(7) 0.40929(9) 0.90202(6)
C3_7 C 0.81145(6) 0.68282(9) 0.65434(5)
H4_7 H 0.8507 0.6962 0.6834
C4_7 C 0.57939(17) 0.6760(3) 0.52238(14)
H5_7 H 0.5775 0.7364 0.5504
C5_7 C 0.69927(16) 0.6364(3) 0.57082(13)
C6_7 C 0.79920(15) 0.4891(3) 0.69832(13)
C7_7 C 0.79680(16) 0.3747(3) 0.68303(13)
C8_5 C 0.52289(16) 0.6535(3) 0.47782(14)
N1_7 N 0.72304(14) 0.5549(2) 0.61046(12)
C9_5 C 0.63867(16) 0.5176(3) 0.48530(14)
C10_7 C 0.77711(17) 0.5779(3) 0.65209(13)
C11_7 C 0.45822(17) 0.7221(3) 0.47643(14)
C12_7 C 0.58213(17) 0.4955(3) 0.44178(14)
H6_7 H 0.5829 0.4329 0.4150
C13_5 C 0.52475(18) 0.5647(3) 0.43756(15)
H7_7 H 0.4869 0.5510 0.4070
C14_7 C 0.86511(16) 0.4758(3) 0.86897(13)
C15_7 C 0.81953(16) 0.5192(3) 0.75979(14)
H8_7 H 0.8197 0.5963 0.7710
C16_7 C 0.70234(17) 0.4485(3) 0.48275(13)
C17_7 C 0.63818(16) 0.6092(3) 0.52518(14)
C18_7 C 0.81271(17) 0.2939(3) 0.72927(14)
H9_7 H 0.8075 0.2164 0.7194
C19_7 C 0.83942(16) 0.4395(3) 0.80455(14)
C20_7 C 0.72892(17) 0.7436(3) 0.57115(14)
H10_7 H 0.7102 0.8000 0.5433
C21_7 C 0.78628(18) 0.7651(3) 0.61312(15)
H11_7 H 0.8083 0.8363 0.6135
H2_8 H 0.4292 0.0092 0.0413
C8_6 C 0.47711(16) 0.6535(3) 0.02218(14)
C9_6 C 0.36133(16) 0.5176(3) 0.01470(14)
C11_8 C 0.54178(17) 0.7221(3) 0.02357(14)
C12_8 C 0.41787(17) 0.4955(3) 0.05822(14)
H6_8 H 0.4171 0.4329 0.0850
C13_6 C 0.47525(18) 0.5647(3) 0.06244(15)
H7_8 H 0.5131 0.5510 0.0930
C16_8 C 0.29766(17) 0.4485(3) 0.01725(13)
O4_8 O 0.26697(11) 0.26461(19) 0.89205(9)
C1_8 C 0.16408(17) 0.3256(3) 0.71109(14)
H1_8 H 0.1505 0.2701 0.6808
C2_8 C 0.21848(7) 0.33253(9) 0.88192(7)
O8_8 O 0.09540(7) 0.40929(9) 0.59798(6)
C3_8 C 0.18855(6) 0.68282(9) 0.84566(5)
H4_8 H 0.1493 0.6962 0.8166
C4_8 C 0.42061(17) 0.6760(3) 0.97762(14)
H5_8 H 0.4225 0.7364 0.9496
C5_8 C 0.30073(16) 0.6364(3) 0.92918(13)
C6_8 C 0.20080(15) 0.4891(3) 0.80168(13)
C7_8 C 0.20320(16) 0.3747(3) 0.81697(13)
N1_8 N 0.27696(14) 0.5549(2) 0.88954(12)
C10_8 C 0.22289(17) 0.5779(3) 0.84791(13)
C14_8 C 0.13489(16) 0.4758(3) 0.63103(13)
C15_8 C 0.18047(16) 0.5192(3) 0.74021(14)
H8_8 H 0.1803 0.5963 0.7290
C17_8 C 0.36182(16) 0.6092(3) 0.97482(14)
C18_8 C 0.18729(17) 0.2939(3) 0.77073(14)
H9_8 H 0.1925 0.2164 0.7806
C19_8 C 0.16058(16) 0.4395(3) 0.69545(14)
C20_8 C 0.27108(17) 0.7436(3) 0.92885(14)
H10_8 H 0.2898 0.8000 0.9567
C21_8 C 0.21372(18) 0.7651(3) 0.88688(15)
H11_8 H 0.1917 0.8363 0.8865
C8_7 C 0.02289(16) 0.8465(3) 0.97782(14)
C9_7 C 0.13867(16) 0.9824(3) 0.98530(14)
C13_7 C 0.02475(18) 0.9353(3) 0.93756(15)
O5_5 O 0.39518(6) 0.00763(9) 0.51326(5)
H3_5 H 0.4118 0.0420 0.4832
H3_6 H 0.5882 0.0420 0.0168
O5_6 O 0.60482(6) 0.00763(9) 0.98674(5)
C8_8 C 0.97711(16) 0.1535(3) 0.02218(14)
C9_8 C 0.86133(16) 0.0176(3) 0.01470(14)
C13_8 C 0.97525(18) 0.0647(3) 0.06244(15)
O5_7 O 0.60482(6) 0.99237(9) 0.48674(5)
H3_7 H 0.5882 0.9580 0.5168
O5_8 O 0.39518(6) 0.99237(9) 0.01326(5)
H3_8 H 0.4118 0.9580 0.9832
loop_
_geom_bond_atom_site_label_1
_geom_bond_atom_site_label_2
_geom_bond_site_symmetry_1
_geom_bond_site_symmetry_2
O6 C11 1_555 1_555
O7 C11 1_555 1_555
Tb3 O6 1_555 1_555
O7 Tb3 1_555 1_555
Tb1 O1 1_555 1_555
O1 C16 1_555 1_555
O2 C2 1_555 1_555
O3 C16 1_555 1_555
O4 Tb1 1_555 1_555
C1 H1 1_555 1_555
O5 Tb1 1_555 1_555
H2 O5 1_555 1_555
H3 O5 1_555 1_555
C2 O4 1_555 1_555
O8 C14 1_555 1_555
C6 C7 1_555 1_555
C7 C2 1_555 1_555
C12 H6 1_555 1_555
C14 C19 1_555 1_555
C18 C1 1_555 1_555
H9 C18 1_555 1_555
C19 C1 1_555 1_555
Tb4 O1 1_555 1_555
O10 Tb1 1_555 1_555
O11 Tb1 1_555 1_555
O12 Tb1 1_555 1_555
O13 Tb1 1_555 1_555
O14 Tb1 1_555 1_555
O15 Tb1 1_555 1_555
O2 Tb4 1_555 1_555
O3 Tb4 1_555 1_555
C7 C18 1_555 1_555
Tb4 O10 1_555 1_555
C3 H4 1_555 1_555
C4 H5 1_555 1_555
C5 N1 1_555 1_555
C8 C4 1_555 1_555
N1 C10 1_555 1_555
C10 C3 1_555 1_555
C13 C8 1_555 1_555
H8 C15 1_555 1_555
C17 C4 1_555 1_555
C20 C5 1_555 1_555
H10 C20 1_555 1_555
C21 C3 1_555 1_555
H11 C21 1_555 1_555
Tb2 O9 1_555 1_555
C5 C17 1_555 1_555
C9 C17 1_555 1_555
C20 C21 1_555 1_555
O2_2 C2_2 1_555 1_555
O4_2 Tb1_2 1_555 1_555
C1_2 H1_2 1_555 1_555
C2_2 O4_2 1_555 1_555
O8_2 C14_2 1_555 1_555
C6_2 C7_2 1_555 1_555
C7_2 C2_2 1_555 1_555
C14_2 C19_2 1_555 1_555
C18_2 C1_2 1_555 1_555
H9_2 C18_2 1_555 1_555
C19_2 C1_2 1_555 1_555
O10_2 Tb1_2 1_555 1_555
O12_2 Tb1_2 1_555 1_555
O14_2 Tb1_2 1_555 1_555
O15_2 Tb1_2 1_555 1_555
C7_2 C18_2 1_555 1_555
O1_2 C16_2 1_555 1_555
O3_2 C16_2 1_555 1_555
H2_2 O5_2 1_555 1_555
C12_2 H6_2 1_555 1_555
Tb4_2 O1_2 1_555 1_555
O3_2 Tb4_2 1_555 1_555
C3_2 H4_2 1_555 1_555
C4_2 H5_2 1_555 1_555
C5_2 N1_2 1_555 1_555
N1_2 C10_2 1_555 1_555
C10_2 C3_2 1_555 1_555
H8_2 C15_2 1_555 1_555
C17_2 C4_2 1_555 1_555
C20_2 C5_2 1_555 1_555
H10_2 C20_2 1_555 1_555
C21_2 C3_2 1_555 1_555
H11_2 C21_2 1_555 1_555
Tb2_2 O9_2 1_555 1_555
C5_2 C17_2 1_555 1_555
C20_2 C21_2 1_555 1_555
O7_2 C11_2 1_555 1_555
O7_2 Tb3_2 1_555 1_555
Tb2_2 O1_3 1_555 1_555
O1_3 C16_3 1_555 1_555
O2_3 C2_3 1_555 1_555
O3_3 C16_3 1_555 1_555
O4_3 Tb2_2 1_555 1_555
C1_3 H1_3 1_555 1_555
O6_3 C11_3 1_555 1_555
O7_3 C11_3 1_555 1_555
C2_3 O4_3 1_555 1_555
O8_3 C14_3 1_555 1_555
C3_3 H4_3 1_555 1_555
C4_3 H5_3 1_555 1_555
O15_2 C14_3 1_555 1_555
C5_3 N1_3 1_555 1_555
C6_3 C7_3 1_555 1_555
C7_3 C2_3 1_555 1_555
C8_2 C4_3 1_555 1_555
N1_3 C10_3 1_555 1_555
C9_2 C12_3 1_555 1_555
C10_3 C3_3 1_555 1_555
C11_3 C8_2 1_555 1_555
C12_3 H6_3 1_555 1_555
C13_2 C8_2 1_555 1_555
H7_3 C13_2 1_555 1_555
C14_3 C19_3 1_555 1_555
C15_3 C6_3 1_555 1_555
H8_3 C15_3 1_555 1_555
C16_3 C9_2 1_555 1_555
C17_3 C4_3 1_555 1_555
C18_3 C1_3 1_555 1_555
H9_3 C18_3 1_555 1_555
C19_3 C1_3 1_555 1_555
C20_3 C5_3 1_555 1_555
H10_3 C20_3 1_555 1_555
C21_3 C3_3 1_555 1_555
H11_3 C21_3 1_555 1_555
Tb4 O6_3 1_555 1_555
Tb3 O1_3 1_555 1_555
O10_3 Tb2_2 1_555 1_555
O11_3 Tb2_2 1_555 1_555
O12_3 Tb2_2 1_555 1_555
O13_3 Tb2_2 1_555 1_555
O14_3 Tb2_2 1_555 1_555
O2_3 Tb3 1_555 1_555
O3_3 Tb3 1_555 1_555
O7_3 Tb4 1_555 1_555
C5_3 C17_3 1_555 1_555
C6_3 C10_3 1_555 1_555
C7_3 C18_3 1_555 1_555
C9_2 C17_3 1_555 1_555
C12_3 C13_2 1_555 1_555
C15_3 C19_3 1_555 1_555
C20_3 C21_3 1_555 1_555
Tb3 O10_3 1_555 1_555
O2_4 C2_4 1_555 1_555
O4_4 Tb2 1_555 1_555
C1_4 H1_4 1_555 1_555
C2_4 O4_4 1_555 1_555
O8_4 C14_4 1_555 1_555
C3_4 H4_4 1_555 1_555
C4_4 H5_4 1_555 1_555
O15 C14_4 1_555 1_555
C5_4 N1_4 1_555 1_555
C6_4 C7_4 1_555 1_555
C7_4 C2_4 1_555 1_555
N1_4 C10_4 1_555 1_555
C10_4 C3_4 1_555 1_555
C14_4 C19_4 1_555 1_555
C15_4 C6_4 1_555 1_555
H8_4 C15_4 1_555 1_555
C17_4 C4_4 1_555 1_555
C18_4 C1_4 1_555 1_555
H9_4 C18_4 1_555 1_555
C19_4 C1_4 1_555 1_555
C20_4 C5_4 1_555 1_555
H10_4 C20_4 1_555 1_555
C21_4 C3_4 1_555 1_555
H11_4 C21_4 1_555 1_555
O10_4 Tb2 1_555 1_555
O12_4 Tb2 1_555 1_555
O14_4 Tb2 1_555 1_555
C5_4 C17_4 1_555 1_555
C6_4 C10_4 1_555 1_555
C7_4 C18_4 1_555 1_555
C15_4 C19_4 1_555 1_555
C20_4 C21_4 1_555 1_555
O1_4 C16_4 1_555 1_555
O3_4 C16_4 1_555 1_555
O7_4 C11_4 1_555 1_555
C9_3 C12_4 1_555 1_555
C11_4 C8_3 1_555 1_555
C12_4 H6_4 1_555 1_555
C13_3 C8_3 1_555 1_555
H7_4 C13_3 1_555 1_555
C16_4 C9_3 1_555 1_555
Tb3_2 O1_4 1_555 1_555
O3_4 Tb3_2 1_555 1_555
O7_4 Tb4_2 1_555 1_555
C12_4 C13_3 1_555 1_555
C3_5 H4_5 1_555 1_555
C4_5 H5_5 1_555 1_555
C5_5 N1_5 1_555 1_555
C8_4 C4_5 1_555 1_555
N1_5 C10_5 1_555 1_555
C10_5 C3_5 1_555 1_555
C13_4 C8_4 1_555 1_555
H8_5 C15_5 1_555 1_555
C17_5 C4_5 1_555 1_555
C20_5 C5_5 1_555 1_555
H10_5 C20_5 1_555 1_555
C21_5 C3_5 1_555 1_555
H11_5 C21_5 1_555 1_555
Tb4_2 O9_3 1_555 1_555
C5_5 C17_5 1_555 1_555
C9_4 C17_5 1_555 1_555
C20_5 C21_5 1_555 1_555
O10_3 C16_5 1_555 1_555
O11_3 C2_5 1_555 1_555
O12_3 C16_5 1_555 1_555
O4_5 Tb3 1_555 1_555
C1_5 H1_5 1_555 1_555
O5_3 Tb3 1_555 1_555
H2_5 O5_3 1_555 1_555
H3_3 O5_3 1_555 1_555
C2_5 O4_5 1_555 1_555
O8_5 C14_5 1_555 1_555
C6_5 C7_5 1_555 1_555
C7_5 C2_5 1_555 1_555
C12_5 H6_5 1_555 1_555
C14_5 C19_5 1_555 1_555
C18_5 C1_5 1_555 1_555
H9_5 C18_5 1_555 1_555
C19_5 C1_5 1_555 1_555
O15_3 Tb3 1_555 1_555
C7_5 C18_5 1_555 1_555
O13 C11_5 1_555 1_555
O14 C11_5 1_555 1_555
O14_2 C11_6 1_555 1_555
C3_6 H4_6 1_555 1_555
C4_6 H5_6 1_555 1_555
C5_6 N1_6 1_555 1_555
N1_6 C10_6 1_555 1_555
C10_6 C3_6 1_555 1_555
H8_6 C15_6 1_555 1_555
C17_6 C4_6 1_555 1_555
C20_6 C5_6 1_555 1_555
H10_6 C20_6 1_555 1_555
C21_6 C3_6 1_555 1_555
H11_6 C21_6 1_555 1_555
Tb4 O9_4 1_555 1_555
C5_6 C17_6 1_555 1_555
C20_6 C21_6 1_555 1_555
O10_4 C16_6 1_555 1_555
O12_4 C16_6 1_555 1_555
H2_6 O5_4 1_555 1_555
C12_6 H6_6 1_555 1_555
O11_4 C2_6 1_555 1_555
O4_6 Tb3_2 1_555 1_555
C1_6 H1_6 1_555 1_555
C2_6 O4_6 1_555 1_555
O8_6 C14_6 1_555 1_555
C6_6 C7_6 1_555 1_555
C7_6 C2_6 1_555 1_555
C14_6 C19_6 1_555 1_555
C18_6 C1_6 1_555 1_555
H9_6 C18_6 1_555 1_555
C19_6 C1_6 1_555 1_555
O15_4 Tb3_2 1_555 1_555
C7_6 C18_6 1_555 1_555
O10 C16_7 1_555 1_555
O11 C2_7 1_555 1_555
O12 C16_7 1_555 1_555
O4_7 Tb4 1_555 1_555
C1_7 H1_7 1_555 1_555
O13_3 C11_7 1_555 1_555
O14_3 C11_7 1_555 1_555
C2_7 O4_7 1_555 1_555
O8_7 C14_7 1_555 1_555
C3_7 H4_7 1_555 1_555
C4_7 H5_7 1_555 1_555
O15_4 C14_7 1_555 1_555
C5_7 N1_7 1_555 1_555
C6_7 C7_7 1_555 1_555
C7_7 C2_7 1_555 1_555
C8_5 C4_7 1_555 1_555
N1_7 C10_7 1_555 1_555
C9_5 C12_7 1_555 1_555
C10_7 C3_7 1_555 1_555
C11_7 C8_5 1_555 1_555
C12_7 H6_7 1_555 1_555
C13_5 C8_5 1_555 1_555
H7_7 C13_5 1_555 1_555
C14_7 C19_7 1_555 1_555
C15_7 C6_7 1_555 1_555
H8_7 C15_7 1_555 1_555
C16_7 C9_5 1_555 1_555
C17_7 C4_7 1_555 1_555
C18_7 C1_7 1_555 1_555
H9_7 C18_7 1_555 1_555
C19_7 C1_7 1_555 1_555
C20_7 C5_7 1_555 1_555
H10_7 C20_7 1_555 1_555
C21_7 C3_7 1_555 1_555
H11_7 C21_7 1_555 1_555
C5_7 C17_7 1_555 1_555
C6_7 C10_7 1_555 1_555
C7_7 C18_7 1_555 1_555
C9_5 C17_7 1_555 1_555
C12_7 C13_5 1_555 1_555
C15_7 C19_7 1_555 1_555
C20_7 C21_7 1_555 1_555
O10_2 C16_8 1_555 1_555
O12_2 C16_8 1_555 1_555
O14_4 C11_8 1_555 1_555
C9_6 C12_8 1_555 1_555
C11_8 C8_6 1_555 1_555
C12_8 H6_8 1_555 1_555
C13_6 C8_6 1_555 1_555
H7_8 C13_6 1_555 1_555
C16_8 C9_6 1_555 1_555
C12_8 C13_6 1_555 1_555
O11_2 C2_8 1_555 1_555
O4_8 Tb4_2 1_555 1_555
C1_8 H1_8 1_555 1_555
C2_8 O4_8 1_555 1_555
O8_8 C14_8 1_555 1_555
C3_8 H4_8 1_555 1_555
C4_8 H5_8 1_555 1_555
O15_3 C14_8 1_555 1_555
C5_8 N1_8 1_555 1_555
C6_8 C7_8 1_555 1_555
C7_8 C2_8 1_555 1_555
N1_8 C10_8 1_555 1_555
C10_8 C3_8 1_555 1_555
C14_8 C19_8 1_555 1_555
C15_8 C6_8 1_555 1_555
H8_8 C15_8 1_555 1_555
C17_8 C4_8 1_555 1_555
C18_8 C1_8 1_555 1_555
H9_8 C18_8 1_555 1_555
C19_8 C1_8 1_555 1_555
C20_8 C5_8 1_555 1_555
H10_8 C20_8 1_555 1_555
C21_8 C3_8 1_555 1_555
H11_8 C21_8 1_555 1_555
C5_8 C17_8 1_555 1_555
C6_8 C10_8 1_555 1_555
C7_8 C18_8 1_555 1_555
C15_8 C19_8 1_555 1_555
C20_8 C21_8 1_555 1_555
C13_7 C8_7 1_555 1_555
H3_5 O5_5 1_555 1_555
C13_8 C8_8 1_555 1_555
H3_7 O5_7 1_555 1_555

#END
