
###############################################################################
#
# This file contains modified crystal structure data generated from the
# MOF subset of the Cambridge Structural Database (CSD) v543 
# hosted by the Cambridge Crystallographic Data Centre (CCDC).
#
# This work is licensed under the Creative Commons
# Attribution-NonCommercial-ShareAlike 4.0 International License.
# To view a copy of this license, visit
# http://creativecommons.org/licenses/by-nc-sa/4.0/
# or send a letter to
# Creative Commons, PO Box 1866, Mountain View, CA 94042, USA.
#
# CIF created using the CSD Python API on 29 September 2022
# The structure has been converted into the P1 space group
# The structure has a 3D framework
# The original CSD entry MAPFER is in the tetragonal crystal system
# The original CSD entry MAPFER is in a Sohncke space group
# The framework has been calculated to contain at least 10.0% void space
# The void calculation uses a probe of radius 1.32A, grid spacing 0.4
# H atom positions have been added when not included in the experimental data
#
###############################################################################

data_MAPFER
_chemical_formula_moiety         '(C624 H744 N48 O92 Zn20)n'
_symmetry_cell_setting           triclinic
_symmetry_space_group_name_H-M   'P 1'
_symmetry_Int_Tables_number      1
_space_group_name_Hall           'P 1'
loop_
_symmetry_equiv_pos_site_id
_symmetry_equiv_pos_as_xyz
1 x,y,z
_cell_length_a                   32.490(5)
_cell_length_b                   32.490(5)
_cell_length_c                   25.780(5)
_cell_angle_alpha                90
_cell_angle_beta                 90
_cell_angle_gamma                90
_cell_volume                     27213.4
loop_
_atom_site_label
_atom_site_type_symbol
_atom_site_fract_x
_atom_site_fract_y
_atom_site_fract_z
Zn1 Zn 0.26466(2) 0.49999(2) 0.38379(5)
Zn2 Zn -0.0000 0.5000 0.13392(6)
O1 O 0.23258(16) 0.50746(18) 0.3226(2)
O2 O 0.1919(2) 0.5503(2) 0.3630(3)
O3 O 0.04650(19) 0.49870(18) 0.1799(2)
O4 O 0.08884(17) 0.52280(18) 0.1210(2)
O5 O 0.23208(16) 0.49106(18) 0.4471(2)
O6 O 0.1914(2) 0.4489(3) 0.4089(3)
O7 O 0.08968(18) 0.4767(2) 0.6526(2)
O8 O 0.04771(19) 0.50072(18) 0.5904(2)
O9 O 0.34435(19) 0.5174(2) 0.4472(2)
O10 O 0.30001(13) 0.54972(16) 0.3910(3)
O11 O 0.45061(17) 0.70123(15) 0.3822(3)
O12 O 0.48084(18) 0.65637(18) 0.3255(2)
C1 C 0.1998(3) 0.5277(3) 0.3249(3)
C2 C 0.1666(2) 0.5248(2) 0.2839(3)
C3 C 0.1275(2) 0.5472(3) 0.2985(3)
H1 H 0.1326 0.5766 0.3004
H2 H 0.1178 0.5379 0.3321
C4 C 0.0941(2) 0.5377(2) 0.2553(3)
H3 H 0.0753 0.5170 0.2697
C5 C 0.1141(2) 0.5186(2) 0.2074(3)
C6 C 0.1506(2) 0.5455(3) 0.1917(3)
H4 H 0.1412 0.5733 0.1849
H5 H 0.1628 0.5348 0.1602
C7 C 0.1830(3) 0.5461(3) 0.2354(3)
H6 H 0.2078 0.5322 0.2238
H7 H 0.1901 0.5744 0.2436
C8 C 0.1588(2) 0.4802(3) 0.2710(3)
H8 H 0.1459 0.4686 0.3021
C9 C 0.1267(2) 0.4744(2) 0.2273(3)
H9 H 0.1027 0.4600 0.2405
H10 H 0.1384 0.4584 0.1992
C10 C 0.0800(2) 0.5131(2) 0.1655(3)
C11 C 0.1997(2) 0.4713(3) 0.4461(3)
C12 C 0.1665(2) 0.4765(2) 0.4872(3)
C13 C 0.1275(2) 0.4531(3) 0.4742(3)
H11 H 0.1331 0.4238 0.4741
H12 H 0.1180 0.4609 0.4400
C14 C 0.0937(2) 0.4631(2) 0.5153(3)
H13 H 0.0746 0.4834 0.5007
C15 C 0.1142(2) 0.4815(2) 0.5635(3)
C16 C 0.1270(2) 0.5249(2) 0.5461(3)
H14 H 0.1029 0.5403 0.5354
H15 H 0.1399 0.5393 0.5747
C17 C 0.1571(2) 0.5213(2) 0.5010(3)
H16 H 0.1433 0.5333 0.4707
C18 C 0.1503(2) 0.4558(3) 0.5800(3)
H17 H 0.1411 0.4281 0.5878
H18 H 0.1623 0.4674 0.6112
C19 C 0.1835(3) 0.4544(3) 0.5359(4)
H19 H 0.2085 0.4678 0.5475
H20 H 0.1900 0.4260 0.5276
C20 C 0.0823(3) 0.4856(3) 0.6081(4)
C21 C 0.3346(3) 0.5456(3) 0.4156(4)
C22 C 0.3678(2) 0.5781(2) 0.3973(3)
C23 C 0.3577(3) 0.5993(3) 0.3465(4)
H21 H 0.3320 0.6145 0.3518
C24 C 0.3905(2) 0.6308(3) 0.3322(4)
H22 H 0.4043 0.6225 0.3005
H23 H 0.3779 0.6575 0.3265
C25 C 0.4214(2) 0.6336(2) 0.3759(3)
C26 C 0.4418(2) 0.5908(2) 0.3839(5)
H24 H 0.4582 0.5840 0.3536
H25 H 0.4602 0.5920 0.4135
C27 C 0.4100(2) 0.5574(2) 0.3926(4)
H26 H 0.4162 0.5423 0.4241
H27 H 0.4100 0.5383 0.3637
C28 C 0.3687(3) 0.6114(3) 0.4395(3)
H28 H 0.3763 0.5991 0.4724
H29 H 0.3415 0.6234 0.4432
C29 C 0.4000(3) 0.6456(3) 0.4254(3)
H30 H 0.3849 0.6712 0.4194
C30 C 0.4536(3) 0.6671(3) 0.3594(3)
N1 N 0.0696(2) 0.57533(19) 0.2457(2)
H31 H 0.0732 0.5899 0.2182
N2 N 0.1956(2) 0.4541(2) 0.2615(3)
H32 H 0.2152 0.4623 0.2416
N3 N 0.4288(3) 0.6521(4) 0.4672(5)
H33 H 0.4497 0.6361 0.4708
N4 N 0.3497(2) 0.5680(2) 0.3042(3)
H34 H 0.3648 0.5464 0.3007
N5 N 0.0703(2) 0.4236(2) 0.5268(3)
H35 H 0.0747 0.4089 0.5539
N6 N 0.1951(2) 0.5449(2) 0.5088(3)
H36 H 0.2154 0.5355 0.5268
C31 C 0.1973(3) 0.4138(3) 0.2875(4)
H37 H 0.1940 0.4186 0.3248
C32 C 0.2411(3) 0.3949(3) 0.2789(5)
H38 H 0.2427 0.3685 0.2957
H39 H 0.2460 0.3916 0.2424
H40 H 0.2616 0.4129 0.2934
C33 C 0.1610(2) 0.3887(2) 0.2696(3)
C34 C 0.1591(2) 0.3715(2) 0.2203(3)
H41 H 0.1803 0.3760 0.1968
C35 C 0.1253(3) 0.3478(2) 0.2060(2)
H42 H 0.1240 0.3363 0.1730
C36 C 0.0935(2) 0.3411(2) 0.2411(3)
H43 H 0.0710 0.3253 0.2316
C37 C 0.0955(2) 0.3583(2) 0.2905(3)
H44 H 0.0742 0.3538 0.3140
C38 C 0.1292(3) 0.3820(2) 0.3047(2)
H45 H 0.1306 0.3935 0.3378
C39 C 0.1964(3) 0.5885(3) 0.4823(4)
H46 H 0.1934 0.5847 0.4448
C40 C 0.2400(3) 0.6020(4) 0.4931(5)
H47 H 0.2588 0.5823 0.4785
H48 H 0.2447 0.6285 0.4777
H49 H 0.2442 0.6037 0.5299
C41 C 0.1623(2) 0.6130(2) 0.5004(3)
C42 C 0.1601(2) 0.6282(2) 0.5507(3)
H50 H 0.1818 0.6240 0.5736
C43 C 0.1254(3) 0.6498(3) 0.5668(3)
H51 H 0.1239 0.6600 0.6004
C44 C 0.0929(2) 0.6561(2) 0.5325(4)
H52 H 0.0697 0.6705 0.5433
C45 C 0.0951(2) 0.6408(2) 0.4823(3)
H53 H 0.0734 0.6450 0.4594
C46 C 0.1298(3) 0.6193(2) 0.4662(2)
H54 H 0.1313 0.6090 0.4325
C47 C 0.4223(5) 0.6872(6) 0.5043(7)
H55 H 0.4204 0.7127 0.4840
C48 C 0.4568(5) 0.6919(5) 0.5419(6)
H56 H 0.4821 0.6959 0.5233
H57 H 0.4518 0.7152 0.5638
H58 H 0.4589 0.6675 0.5627
C49 C 0.3834(3) 0.6810(5) 0.5303(5)
C50 C 0.3708(4) 0.6521(4) 0.5667(6)
H59 H 0.3893 0.6323 0.5786
C51 C 0.3307(5) 0.6527(4) 0.5853(5)
H60 H 0.3223 0.6333 0.6096
C52 C 0.3032(3) 0.6822(5) 0.5675(6)
H61 H 0.2763 0.6826 0.5800
C53 C 0.3158(4) 0.7112(4) 0.5311(6)
H62 H 0.2973 0.7309 0.5192
C54 C 0.3559(5) 0.7106(4) 0.5125(5)
H63 H 0.3643 0.7299 0.4882
C55 C 0.3141(5) 0.5765(5) 0.2686(6)
H64 H 0.2889 0.5776 0.2894
C56 C 0.3088(5) 0.5419(5) 0.2257(6)
H65 H 0.2858 0.5485 0.2039
H66 H 0.3333 0.5403 0.2051
H67 H 0.3041 0.5158 0.2423
C57 C 0.3181(5) 0.6185(4) 0.2369(5)
C58 C 0.3480(4) 0.6333(5) 0.2033(5)
H68 H 0.3679 0.6156 0.1901
C59 C 0.3483(4) 0.6747(5) 0.1894(4)
H69 H 0.3684 0.6846 0.1669
C60 C 0.3186(6) 0.7012(3) 0.2092(6)
H70 H 0.3188 0.7288 0.1999
C61 C 0.2887(4) 0.6864(6) 0.2428(6)
H71 H 0.2688 0.7041 0.2560
C62 C 0.2884(4) 0.6450(6) 0.2567(5)
H72 H 0.2683 0.6351 0.2792
C63 C 0.0388(3) 0.4129(3) 0.4867(4)
H73 H 0.0494 0.4233 0.4536
H76 H 0.0027 0.4647 0.4956
C65 C 0.0355(2) 0.36610(18) 0.4811(3)
C66 C 0.0451(3) 0.3474(3) 0.4341(3)
H77 H 0.0557 0.3630 0.4069
C67 C 0.0389(3) 0.3054(3) 0.4277(3)
H78 H 0.0453 0.2929 0.3963
C68 C 0.0231(3) 0.28205(19) 0.4683(4)
H79 H 0.0189 0.2539 0.4640
C69 C 0.0135(3) 0.3008(2) 0.5152(3)
H80 H 0.0029 0.2851 0.5424
C70 C 0.0197(3) 0.3428(3) 0.5216(3)
H81 H 0.0133 0.3553 0.5530
C71 C 0.0388(3) 0.5869(3) 0.2850(4)
H82 H 0.0475 0.5753 0.3183
H85 H 0.0012 0.5370 0.2683
C73 C 0.0341(3) 0.63174(17) 0.2917(3)
C74 C 0.0447(3) 0.6491(2) 0.3391(3)
H86 H 0.0561 0.6328 0.3650
C75 C 0.0384(3) 0.6908(2) 0.3477(3)
H87 H 0.0455 0.7025 0.3795
C76 C 0.0214(3) 0.71524(17) 0.3090(4)
H88 H 0.0172 0.7432 0.3147
C77 C 0.0108(3) 0.6979(2) 0.2615(3)
C78 C 0.0171(3) 0.6561(2) 0.2529(3)
H90 H 0.0100 0.6445 0.2212
C142 C 0.0019(3) 0.5645(3) 0.4966(4)
H164 H 0.0215 0.5719 0.4704
H165 H 0.0124 0.5720 0.5301
C150 C 0.0023(3) 0.4337(3) 0.2693(5)
H173 H 0.0232 0.4267 0.2941
H174 H 0.0104 0.4241 0.2356
H179 H 0.0006 0.2858 0.2356
Zn5 Zn 0.49999(2) 0.73534(2) 0.38379(5)
Zn6 Zn -0.0000 0.5000 0.63392(6)
O26 O 0.00072(18) 0.45229(19) 0.0904(2)
O27 O 0.29877(15) 0.45061(17) 0.3822(3)
H181 H 0.0699954 0.455312 0.664501
H182 H 0.213545 0.571716 0.366329
H183 H 0.508704 0.658215 0.341156
Zn2_2 Zn 1.0000 0.5000 0.13392(6)
C64 C 0.9981(3) 0.4355(3) 0.4966(4)
H74 H 0.9785 0.4281 0.4704
H75 H 0.9876 0.4280 0.5301
C72 C 0.9977(3) 0.5663(3) 0.2693(5)
H83 H 0.9768 0.5733 0.2941
H84 H 0.9896 0.5759 0.2356
H89 H 0.9994 0.7142 0.2356
Zn3 Zn 0.73534(2) 0.50001(2) 0.38379(5)
O13 O 0.76742(16) 0.49254(18) 0.3226(2)
O14 O 0.8081(2) 0.4497(2) 0.3630(3)
O15 O 0.95350(19) 0.50130(18) 0.1799(2)
O16 O 0.91116(17) 0.47720(18) 0.1210(2)
O17 O 0.76792(16) 0.50894(18) 0.4471(2)
O18 O 0.8086(2) 0.5511(3) 0.4089(3)
O19 O 0.91032(18) 0.5233(2) 0.6526(2)
O20 O 0.95229(19) 0.49928(18) 0.5904(2)
O21 O 0.65565(19) 0.4826(2) 0.4472(2)
O22 O 0.69999(13) 0.45028(16) 0.3910(3)
O23 O 0.54939(17) 0.29877(15) 0.3822(3)
O24 O 0.51916(18) 0.34363(18) 0.3255(2)
C79 C 0.8002(3) 0.4723(3) 0.3249(3)
C80 C 0.8334(2) 0.4752(2) 0.2839(3)
C81 C 0.8725(2) 0.4528(3) 0.2985(3)
H91 H 0.8674 0.4234 0.3004
H92 H 0.8822 0.4621 0.3321
C82 C 0.9059(2) 0.4623(2) 0.2553(3)
H93 H 0.9247 0.4830 0.2697
C83 C 0.8859(2) 0.4814(2) 0.2074(3)
C84 C 0.8494(2) 0.4545(3) 0.1917(3)
H94 H 0.8588 0.4267 0.1849
H95 H 0.8372 0.4652 0.1602
C85 C 0.8170(3) 0.4539(3) 0.2354(3)
H96 H 0.7922 0.4678 0.2238
H97 H 0.8099 0.4256 0.2436
C86 C 0.8412(2) 0.5198(3) 0.2710(3)
H98 H 0.8541 0.5314 0.3021
C87 C 0.8733(2) 0.5256(2) 0.2273(3)
H99 H 0.8973 0.5400 0.2405
H100 H 0.8616 0.5416 0.1992
C88 C 0.9200(2) 0.4869(2) 0.1655(3)
C89 C 0.8003(2) 0.5287(3) 0.4461(3)
C90 C 0.8335(2) 0.5235(2) 0.4872(3)
C91 C 0.8725(2) 0.5469(3) 0.4742(3)
H101 H 0.8669 0.5762 0.4741
H102 H 0.8820 0.5391 0.4400
C92 C 0.9063(2) 0.5369(2) 0.5153(3)
H103 H 0.9254 0.5166 0.5007
C93 C 0.8858(2) 0.5185(2) 0.5635(3)
C94 C 0.8730(2) 0.4751(2) 0.5461(3)
H104 H 0.8971 0.4597 0.5354
H105 H 0.8601 0.4607 0.5747
C95 C 0.8429(2) 0.4787(2) 0.5010(3)
H106 H 0.8567 0.4667 0.4707
C96 C 0.8497(2) 0.5442(3) 0.5800(3)
H107 H 0.8589 0.5719 0.5878
H108 H 0.8377 0.5326 0.6112
C97 C 0.8165(3) 0.5456(3) 0.5359(4)
H109 H 0.7915 0.5322 0.5475
H110 H 0.8100 0.5740 0.5276
C98 C 0.9177(3) 0.5144(3) 0.6081(4)
C99 C 0.6654(3) 0.4544(3) 0.4156(4)
C100 C 0.6322(2) 0.4219(2) 0.3973(3)
C101 C 0.6423(3) 0.4007(3) 0.3465(4)
H111 H 0.6680 0.3855 0.3518
C102 C 0.6095(2) 0.3692(3) 0.3322(4)
H112 H 0.5957 0.3775 0.3005
H113 H 0.6221 0.3425 0.3265
C103 C 0.5786(2) 0.3664(2) 0.3759(3)
C104 C 0.5582(2) 0.4092(2) 0.3839(5)
H114 H 0.5418 0.4160 0.3536
H115 H 0.5398 0.4080 0.4135
C105 C 0.5900(2) 0.4426(2) 0.3926(4)
H116 H 0.5838 0.4577 0.4241
H117 H 0.5900 0.4617 0.3637
C106 C 0.6313(3) 0.3886(3) 0.4395(3)
H118 H 0.6237 0.4009 0.4724
H119 H 0.6585 0.3766 0.4432
C107 C 0.6000(3) 0.3544(3) 0.4254(3)
H120 H 0.6151 0.3288 0.4194
C108 C 0.5464(3) 0.3329(3) 0.3594(3)
N7 N 0.9304(2) 0.42467(19) 0.2457(2)
H121 H 0.9268 0.4101 0.2182
N8 N 0.8044(2) 0.5459(2) 0.2615(3)
H122 H 0.7848 0.5377 0.2416
N9 N 0.5712(3) 0.3479(4) 0.4672(5)
H123 H 0.5503 0.3639 0.4708
N10 N 0.6503(2) 0.4320(2) 0.3042(3)
H124 H 0.6352 0.4536 0.3007
N11 N 0.9297(2) 0.5764(2) 0.5268(3)
H125 H 0.9253 0.5911 0.5539
N12 N 0.8049(2) 0.4551(2) 0.5088(3)
H126 H 0.7846 0.4645 0.5268
C109 C 0.8027(3) 0.5862(3) 0.2875(4)
H127 H 0.8060 0.5814 0.3248
C110 C 0.7589(3) 0.6051(3) 0.2789(5)
H128 H 0.7573 0.6315 0.2957
H129 H 0.7540 0.6084 0.2424
H130 H 0.7384 0.5871 0.2934
C111 C 0.8390(2) 0.6113(2) 0.2696(3)
C112 C 0.8409(2) 0.6285(2) 0.2203(3)
H131 H 0.8197 0.6240 0.1968
C113 C 0.8747(3) 0.6522(2) 0.2060(2)
H132 H 0.8760 0.6637 0.1730
C114 C 0.9065(2) 0.6589(2) 0.2411(3)
H133 H 0.9290 0.6747 0.2316
C115 C 0.9045(2) 0.6417(2) 0.2905(3)
H134 H 0.9258 0.6462 0.3140
C116 C 0.8708(3) 0.6180(2) 0.3047(2)
H135 H 0.8694 0.6065 0.3378
C117 C 0.8036(3) 0.4115(3) 0.4823(4)
H136 H 0.8066 0.4153 0.4448
C118 C 0.7600(3) 0.3980(4) 0.4931(5)
H137 H 0.7412 0.4177 0.4785
H138 H 0.7553 0.3715 0.4777
H139 H 0.7558 0.3963 0.5299
C119 C 0.8377(2) 0.3870(2) 0.5004(3)
C120 C 0.8399(2) 0.3718(2) 0.5507(3)
H140 H 0.8182 0.3760 0.5736
C121 C 0.8746(3) 0.3502(3) 0.5668(3)
H141 H 0.8761 0.3400 0.6004
C122 C 0.9071(2) 0.3439(2) 0.5325(4)
H142 H 0.9303 0.3295 0.5433
C123 C 0.9049(2) 0.3592(2) 0.4823(3)
H143 H 0.9266 0.3550 0.4594
C124 C 0.8702(3) 0.3807(2) 0.4662(2)
H144 H 0.8687 0.3910 0.4325
C125 C 0.5777(5) 0.3128(6) 0.5043(7)
H145 H 0.5796 0.2873 0.4840
C126 C 0.5432(5) 0.3081(5) 0.5419(6)
H146 H 0.5179 0.3041 0.5233
H147 H 0.5482 0.2848 0.5638
H148 H 0.5411 0.3325 0.5627
C127 C 0.6166(3) 0.3190(5) 0.5303(5)
C128 C 0.6292(4) 0.3479(4) 0.5667(6)
H149 H 0.6107 0.3677 0.5786
C129 C 0.6693(5) 0.3473(4) 0.5853(5)
H150 H 0.6777 0.3667 0.6096
C130 C 0.6968(3) 0.3178(5) 0.5675(6)
H151 H 0.7237 0.3174 0.5800
C131 C 0.6842(4) 0.2888(4) 0.5311(6)
H152 H 0.7027 0.2691 0.5192
C132 C 0.6441(5) 0.2894(4) 0.5125(5)
H153 H 0.6357 0.2701 0.4882
C133 C 0.6859(5) 0.4235(5) 0.2686(6)
H154 H 0.7111 0.4224 0.2894
C134 C 0.6912(5) 0.4581(5) 0.2257(6)
H155 H 0.7142 0.4515 0.2039
H156 H 0.6667 0.4597 0.2051
H157 H 0.6959 0.4842 0.2423
C135 C 0.6819(5) 0.3815(4) 0.2369(5)
C136 C 0.6520(4) 0.3667(5) 0.2033(5)
H158 H 0.6321 0.3844 0.1901
C137 C 0.6517(4) 0.3253(5) 0.1894(4)
H159 H 0.6316 0.3154 0.1669
C138 C 0.6814(6) 0.2988(3) 0.2092(6)
H160 H 0.6812 0.2712 0.1999
C139 C 0.7113(4) 0.3136(6) 0.2428(6)
H161 H 0.7312 0.2959 0.2560
C140 C 0.7116(4) 0.3550(6) 0.2567(5)
H162 H 0.7317 0.3649 0.2792
C141 C 0.9612(3) 0.5871(3) 0.4867(4)
H163 H 0.9506 0.5767 0.4536
H166 H 0.9973 0.5353 0.4956
C143 C 0.9645(2) 0.63390(18) 0.4811(3)
C144 C 0.9549(3) 0.6526(3) 0.4341(3)
H167 H 0.9443 0.6370 0.4069
C145 C 0.9611(3) 0.6946(3) 0.4277(3)
H168 H 0.9547 0.7071 0.3963
C146 C 0.9769(3) 0.71795(19) 0.4683(4)
H169 H 0.9811 0.7461 0.4640
C147 C 0.9865(3) 0.6992(2) 0.5152(3)
H170 H 0.9971 0.7149 0.5424
C148 C 0.9803(3) 0.6572(3) 0.5216(3)
H171 H 0.9867 0.6447 0.5530
C149 C 0.9612(3) 0.4131(3) 0.2850(4)
H172 H 0.9525 0.4247 0.3183
H175 H 0.9988 0.4630 0.2683
C151 C 0.9659(3) 0.36826(17) 0.2917(3)
C152 C 0.9553(3) 0.3509(2) 0.3391(3)
H176 H 0.9439 0.3672 0.3650
C153 C 0.9616(3) 0.3092(2) 0.3477(3)
H177 H 0.9545 0.2975 0.3795
C154 C 0.9786(3) 0.28476(17) 0.3090(4)
H178 H 0.9828 0.2568 0.3147
C155 C 0.9892(3) 0.3021(2) 0.2615(3)
C156 C 0.9829(3) 0.3439(2) 0.2529(3)
H180 H 0.9900 0.3555 0.2212
Zn4 Zn 0.50001(2) 0.26466(2) 0.38379(5)
Zn6_2 Zn 1.0000 0.5000 0.63392(6)
O25 O 0.99928(18) 0.54771(19) 0.0904(2)
O28 O 0.70123(15) 0.54939(17) 0.3822(3)
H184 H 0.491296 0.341785 0.341156
H185 H 0.786455 0.428284 0.366329
H186 H 0.930005 0.544688 0.664501
Zn2_3 Zn 0.5000 -0.0000 0.13392(6)
O1_2 O 0.49254(18) 0.23258(16) 0.3226(2)
O2_2 O 0.4497(2) 0.1919(2) 0.3630(3)
O3_2 O 0.50130(18) 0.04650(19) 0.1799(2)
O4_2 O 0.47720(18) 0.08884(17) 0.1210(2)
O5_2 O 0.50894(18) 0.23208(16) 0.4471(2)
O6_2 O 0.5511(3) 0.1914(2) 0.4089(3)
O7_2 O 0.5233(2) 0.08968(18) 0.6526(2)
O8_2 O 0.49928(18) 0.04771(19) 0.5904(2)
O9_2 O 0.4826(2) 0.34435(19) 0.4472(2)
O10_2 O 0.45028(16) 0.30001(13) 0.3910(3)
O12_2 O 0.34363(18) 0.48084(18) 0.3255(2)
C1_2 C 0.4723(3) 0.1998(3) 0.3249(3)
C2_2 C 0.4752(2) 0.1666(2) 0.2839(3)
C3_2 C 0.4528(3) 0.1275(2) 0.2985(3)
H1_2 H 0.4234 0.1326 0.3004
H2_2 H 0.4621 0.1178 0.3321
C4_2 C 0.4623(2) 0.0941(2) 0.2553(3)
H3_2 H 0.4830 0.0753 0.2697
C5_2 C 0.4814(2) 0.1141(2) 0.2074(3)
C6_2 C 0.4545(3) 0.1506(2) 0.1917(3)
H4_2 H 0.4267 0.1412 0.1849
H5_2 H 0.4652 0.1628 0.1602
C7_2 C 0.4539(3) 0.1830(3) 0.2354(3)
H6_2 H 0.4678 0.2078 0.2238
H7_2 H 0.4256 0.1901 0.2436
C8_2 C 0.5198(3) 0.1588(2) 0.2710(3)
H8_2 H 0.5314 0.1459 0.3021
C9_2 C 0.5256(2) 0.1267(2) 0.2273(3)
H9_2 H 0.5400 0.1027 0.2405
H10_2 H 0.5416 0.1384 0.1992
C10_2 C 0.4869(2) 0.0800(2) 0.1655(3)
C11_2 C 0.5287(3) 0.1997(2) 0.4461(3)
C12_2 C 0.5235(2) 0.1665(2) 0.4872(3)
C13_2 C 0.5469(3) 0.1275(2) 0.4742(3)
H11_2 H 0.5762 0.1331 0.4741
H12_2 H 0.5391 0.1180 0.4400
C14_2 C 0.5369(2) 0.0937(2) 0.5153(3)
H13_2 H 0.5166 0.0746 0.5007
C15_2 C 0.5185(2) 0.1142(2) 0.5635(3)
C16_2 C 0.4751(2) 0.1270(2) 0.5461(3)
H14_2 H 0.4597 0.1029 0.5354
H15_2 H 0.4607 0.1399 0.5747
C17_2 C 0.4787(2) 0.1571(2) 0.5010(3)
H16_2 H 0.4667 0.1433 0.4707
C18_2 C 0.5442(3) 0.1503(2) 0.5800(3)
H17_2 H 0.5719 0.1411 0.5878
H18_2 H 0.5326 0.1623 0.6112
C19_2 C 0.5456(3) 0.1835(3) 0.5359(4)
H19_2 H 0.5322 0.2085 0.5475
H20_2 H 0.5740 0.1900 0.5276
C20_2 C 0.5144(3) 0.0823(3) 0.6081(4)
C21_2 C 0.4544(3) 0.3346(3) 0.4156(4)
C22_2 C 0.4219(2) 0.3678(2) 0.3973(3)
C23_2 C 0.4007(3) 0.3577(3) 0.3465(4)
H21_2 H 0.3855 0.3320 0.3518
C24_2 C 0.3692(3) 0.3905(2) 0.3322(4)
H22_2 H 0.3775 0.4043 0.3005
H23_2 H 0.3425 0.3779 0.3265
C25_2 C 0.3664(2) 0.4214(2) 0.3759(3)
C26_2 C 0.4092(2) 0.4418(2) 0.3839(5)
H24_2 H 0.4160 0.4582 0.3536
H25_2 H 0.4080 0.4602 0.4135
C27_2 C 0.4426(2) 0.4100(2) 0.3926(4)
H26_2 H 0.4577 0.4162 0.4241
H27_2 H 0.4617 0.4100 0.3637
C28_2 C 0.3886(3) 0.3687(3) 0.4395(3)
H28_2 H 0.4009 0.3763 0.4724
H29_2 H 0.3766 0.3415 0.4432
C29_2 C 0.3544(3) 0.4000(3) 0.4254(3)
H30_2 H 0.3288 0.3849 0.4194
C30_2 C 0.3329(3) 0.4536(3) 0.3594(3)
N1_2 N 0.42467(19) 0.0696(2) 0.2457(2)
H31_2 H 0.4101 0.0732 0.2182
N2_2 N 0.5459(2) 0.1956(2) 0.2615(3)
H32_2 H 0.5377 0.2152 0.2416
N3_2 N 0.3479(4) 0.4288(3) 0.4672(5)
H33_2 H 0.3639 0.4497 0.4708
N4_2 N 0.4320(2) 0.3497(2) 0.3042(3)
H34_2 H 0.4536 0.3648 0.3007
N5_2 N 0.5764(2) 0.0703(2) 0.5268(3)
H35_2 H 0.5911 0.0747 0.5539
N6_2 N 0.4551(2) 0.1951(2) 0.5088(3)
H36_2 H 0.4645 0.2154 0.5268
C31_2 C 0.5862(3) 0.1973(3) 0.2875(4)
H37_2 H 0.5814 0.1940 0.3248
C32_2 C 0.6051(3) 0.2411(3) 0.2789(5)
H38_2 H 0.6315 0.2427 0.2957
H39_2 H 0.6084 0.2460 0.2424
H40_2 H 0.5871 0.2616 0.2934
C33_2 C 0.6113(2) 0.1610(2) 0.2696(3)
C34_2 C 0.6285(2) 0.1591(2) 0.2203(3)
H41_2 H 0.6240 0.1803 0.1968
C35_2 C 0.6522(2) 0.1253(3) 0.2060(2)
H42_2 H 0.6637 0.1240 0.1730
C36_2 C 0.6589(2) 0.0935(2) 0.2411(3)
H43_2 H 0.6747 0.0710 0.2316
C37_2 C 0.6417(2) 0.0955(2) 0.2905(3)
H44_2 H 0.6462 0.0742 0.3140
C38_2 C 0.6180(2) 0.1292(3) 0.3047(2)
H45_2 H 0.6065 0.1306 0.3378
C39_2 C 0.4115(3) 0.1964(3) 0.4823(4)
H46_2 H 0.4153 0.1934 0.4448
C40_2 C 0.3980(4) 0.2400(3) 0.4931(5)
H47_2 H 0.4177 0.2588 0.4785
H48_2 H 0.3715 0.2447 0.4777
H49_2 H 0.3963 0.2442 0.5299
C41_2 C 0.3870(2) 0.1623(2) 0.5004(3)
C42_2 C 0.3718(2) 0.1601(2) 0.5507(3)
H50_2 H 0.3760 0.1818 0.5736
C43_2 C 0.3502(3) 0.1254(3) 0.5668(3)
H51_2 H 0.3400 0.1239 0.6004
C44_2 C 0.3439(2) 0.0929(2) 0.5325(4)
H52_2 H 0.3295 0.0697 0.5433
C45_2 C 0.3592(2) 0.0951(2) 0.4823(3)
H53_2 H 0.3550 0.0734 0.4594
C46_2 C 0.3807(2) 0.1298(3) 0.4662(2)
H54_2 H 0.3910 0.1313 0.4325
C47_2 C 0.3128(6) 0.4223(5) 0.5043(7)
H55_2 H 0.2873 0.4204 0.4840
C48_2 C 0.3081(5) 0.4568(5) 0.5419(6)
H56_2 H 0.3041 0.4821 0.5233
H57_2 H 0.2848 0.4518 0.5638
H58_2 H 0.3325 0.4589 0.5627
C49_2 C 0.3190(5) 0.3834(3) 0.5303(5)
C50_2 C 0.3479(4) 0.3708(4) 0.5667(6)
H59_2 H 0.3677 0.3893 0.5786
C51_2 C 0.3473(4) 0.3307(5) 0.5853(5)
H60_2 H 0.3667 0.3223 0.6096
C52_2 C 0.3178(5) 0.3032(3) 0.5675(6)
H61_2 H 0.3174 0.2763 0.5800
C53_2 C 0.2888(4) 0.3158(4) 0.5311(6)
H62_2 H 0.2691 0.2973 0.5192
C54_2 C 0.2894(4) 0.3559(5) 0.5125(5)
H63_2 H 0.2701 0.3643 0.4882
C55_2 C 0.4235(5) 0.3141(5) 0.2686(6)
H64_2 H 0.4224 0.2889 0.2894
C56_2 C 0.4581(5) 0.3088(5) 0.2257(6)
H65_2 H 0.4515 0.2858 0.2039
H66_2 H 0.4597 0.3333 0.2051
H67_2 H 0.4842 0.3041 0.2423
C57_2 C 0.3815(4) 0.3181(5) 0.2369(5)
C58_2 C 0.3667(5) 0.3480(4) 0.2033(5)
H68_2 H 0.3844 0.3679 0.1901
C59_2 C 0.3253(5) 0.3483(4) 0.1894(4)
H69_2 H 0.3154 0.3684 0.1669
C60_2 C 0.2988(3) 0.3186(6) 0.2092(6)
H70_2 H 0.2712 0.3188 0.1999
C61_2 C 0.3136(6) 0.2887(4) 0.2428(6)
H71_2 H 0.2959 0.2688 0.2560
C62_2 C 0.3550(6) 0.2884(4) 0.2567(5)
H72_2 H 0.3649 0.2683 0.2792
C63_2 C 0.5871(3) 0.0388(3) 0.4867(4)
H73_2 H 0.5767 0.0494 0.4536
H76_2 H 0.5353 0.0027 0.4956
C65_2 C 0.63390(18) 0.0355(2) 0.4811(3)
C66_2 C 0.6526(3) 0.0451(3) 0.4341(3)
H77_2 H 0.6370 0.0557 0.4069
C67_2 C 0.6946(3) 0.0389(3) 0.4277(3)
H78_2 H 0.7071 0.0453 0.3963
C68_2 C 0.71795(19) 0.0231(3) 0.4683(4)
H79_2 H 0.7461 0.0189 0.4640
C69_2 C 0.6992(2) 0.0135(3) 0.5152(3)
H80_2 H 0.7149 0.0029 0.5424
C70_2 C 0.6572(3) 0.0197(3) 0.5216(3)
H81_2 H 0.6447 0.0133 0.5530
C71_2 C 0.4131(3) 0.0388(3) 0.2850(4)
H82_2 H 0.4247 0.0475 0.3183
H85_2 H 0.4630 0.0012 0.2683
C73_2 C 0.36826(17) 0.0341(3) 0.2917(3)
C74_2 C 0.3509(2) 0.0447(3) 0.3391(3)
H86_2 H 0.3672 0.0561 0.3650
C75_2 C 0.3092(2) 0.0384(3) 0.3477(3)
H87_2 H 0.2975 0.0455 0.3795
C76_2 C 0.28476(17) 0.0214(3) 0.3090(4)
H88_2 H 0.2568 0.0172 0.3147
C77_2 C 0.3021(2) 0.0108(3) 0.2615(3)
C78_2 C 0.3439(2) 0.0171(3) 0.2529(3)
H90_2 H 0.3555 0.0100 0.2212
C142_2 C 0.4355(3) 0.0019(3) 0.4966(4)
H164_2 H 0.4281 0.0215 0.4704
H165_2 H 0.4280 0.0124 0.5301
C150_2 C 0.5663(3) 0.0023(3) 0.2693(5)
H173_2 H 0.5733 0.0232 0.2941
H174_2 H 0.5759 0.0104 0.2356
H179_2 H 0.7142 0.0006 0.2356
Zn6_3 Zn 0.5000 -0.0000 0.63392(6)
O26_2 O 0.54771(19) 0.00072(18) 0.0904(2)
H181_2 H 0.544688 0.0699954 0.664501
H182_2 H 0.428284 0.213545 0.366329
H183_2 H 0.341785 0.508704 0.341156
Zn2_4 Zn 0.5000 1.0000 0.13392(6)
C64_2 C 0.5645(3) 0.9981(3) 0.4966(4)
H74_2 H 0.5719 0.9785 0.4704
H75_2 H 0.5720 0.9876 0.5301
C72_2 C 0.4337(3) 0.9977(3) 0.2693(5)
H83_2 H 0.4267 0.9768 0.2941
H84_2 H 0.4241 0.9896 0.2356
H89_2 H 0.2858 0.9994 0.2356
O13_2 O 0.50746(18) 0.76742(16) 0.3226(2)
O14_2 O 0.5503(2) 0.8081(2) 0.3630(3)
O15_2 O 0.49870(18) 0.95350(19) 0.1799(2)
O16_2 O 0.52280(18) 0.91116(17) 0.1210(2)
O17_2 O 0.49106(18) 0.76792(16) 0.4471(2)
O18_2 O 0.4489(3) 0.8086(2) 0.4089(3)
O19_2 O 0.4767(2) 0.91032(18) 0.6526(2)
O20_2 O 0.50072(18) 0.95229(19) 0.5904(2)
O21_2 O 0.5174(2) 0.65565(19) 0.4472(2)
O22_2 O 0.54972(16) 0.69999(13) 0.3910(3)
O24_2 O 0.65637(18) 0.51916(18) 0.3255(2)
C79_2 C 0.5277(3) 0.8002(3) 0.3249(3)
C80_2 C 0.5248(2) 0.8334(2) 0.2839(3)
C81_2 C 0.5472(3) 0.8725(2) 0.2985(3)
H91_2 H 0.5766 0.8674 0.3004
H92_2 H 0.5379 0.8822 0.3321
C82_2 C 0.5377(2) 0.9059(2) 0.2553(3)
H93_2 H 0.5170 0.9247 0.2697
C83_2 C 0.5186(2) 0.8859(2) 0.2074(3)
C84_2 C 0.5455(3) 0.8494(2) 0.1917(3)
H94_2 H 0.5733 0.8588 0.1849
H95_2 H 0.5348 0.8372 0.1602
C85_2 C 0.5461(3) 0.8170(3) 0.2354(3)
H96_2 H 0.5322 0.7922 0.2238
H97_2 H 0.5744 0.8099 0.2436
C86_2 C 0.4802(3) 0.8412(2) 0.2710(3)
H98_2 H 0.4686 0.8541 0.3021
C87_2 C 0.4744(2) 0.8733(2) 0.2273(3)
H99_2 H 0.4600 0.8973 0.2405
H100_2 H 0.4584 0.8616 0.1992
C88_2 C 0.5131(2) 0.9200(2) 0.1655(3)
C89_2 C 0.4713(3) 0.8003(2) 0.4461(3)
C90_2 C 0.4765(2) 0.8335(2) 0.4872(3)
C91_2 C 0.4531(3) 0.8725(2) 0.4742(3)
H101_2 H 0.4238 0.8669 0.4741
H102_2 H 0.4609 0.8820 0.4400
C92_2 C 0.4631(2) 0.9063(2) 0.5153(3)
H103_2 H 0.4834 0.9254 0.5007
C93_2 C 0.4815(2) 0.8858(2) 0.5635(3)
C94_2 C 0.5249(2) 0.8730(2) 0.5461(3)
H104_2 H 0.5403 0.8971 0.5354
H105_2 H 0.5393 0.8601 0.5747
C95_2 C 0.5213(2) 0.8429(2) 0.5010(3)
H106_2 H 0.5333 0.8567 0.4707
C96_2 C 0.4558(3) 0.8497(2) 0.5800(3)
H107_2 H 0.4281 0.8589 0.5878
H108_2 H 0.4674 0.8377 0.6112
C97_2 C 0.4544(3) 0.8165(3) 0.5359(4)
H109_2 H 0.4678 0.7915 0.5475
H110_2 H 0.4260 0.8100 0.5276
C98_2 C 0.4856(3) 0.9177(3) 0.6081(4)
C99_2 C 0.5456(3) 0.6654(3) 0.4156(4)
C100_2 C 0.5781(2) 0.6322(2) 0.3973(3)
C101_2 C 0.5993(3) 0.6423(3) 0.3465(4)
H111_2 H 0.6145 0.6680 0.3518
C102_2 C 0.6308(3) 0.6095(2) 0.3322(4)
H112_2 H 0.6225 0.5957 0.3005
H113_2 H 0.6575 0.6221 0.3265
C103_2 C 0.6336(2) 0.5786(2) 0.3759(3)
C104_2 C 0.5908(2) 0.5582(2) 0.3839(5)
H114_2 H 0.5840 0.5418 0.3536
H115_2 H 0.5920 0.5398 0.4135
C105_2 C 0.5574(2) 0.5900(2) 0.3926(4)
H116_2 H 0.5423 0.5838 0.4241
H117_2 H 0.5383 0.5900 0.3637
C106_2 C 0.6114(3) 0.6313(3) 0.4395(3)
H118_2 H 0.5991 0.6237 0.4724
H119_2 H 0.6234 0.6585 0.4432
C107_2 C 0.6456(3) 0.6000(3) 0.4254(3)
H120_2 H 0.6712 0.6151 0.4194
C108_2 C 0.6671(3) 0.5464(3) 0.3594(3)
N7_2 N 0.57533(19) 0.9304(2) 0.2457(2)
H121_2 H 0.5899 0.9268 0.2182
N8_2 N 0.4541(2) 0.8044(2) 0.2615(3)
H122_2 H 0.4623 0.7848 0.2416
N9_2 N 0.6521(4) 0.5712(3) 0.4672(5)
H123_2 H 0.6361 0.5503 0.4708
N10_2 N 0.5680(2) 0.6503(2) 0.3042(3)
H124_2 H 0.5464 0.6352 0.3007
N11_2 N 0.4236(2) 0.9297(2) 0.5268(3)
H125_2 H 0.4089 0.9253 0.5539
N12_2 N 0.5449(2) 0.8049(2) 0.5088(3)
H126_2 H 0.5355 0.7846 0.5268
C109_2 C 0.4138(3) 0.8027(3) 0.2875(4)
H127_2 H 0.4186 0.8060 0.3248
C110_2 C 0.3949(3) 0.7589(3) 0.2789(5)
H128_2 H 0.3685 0.7573 0.2957
H129_2 H 0.3916 0.7540 0.2424
H130_2 H 0.4129 0.7384 0.2934
C111_2 C 0.3887(2) 0.8390(2) 0.2696(3)
C112_2 C 0.3715(2) 0.8409(2) 0.2203(3)
H131_2 H 0.3760 0.8197 0.1968
C113_2 C 0.3478(2) 0.8747(3) 0.2060(2)
H132_2 H 0.3363 0.8760 0.1730
C114_2 C 0.3411(2) 0.9065(2) 0.2411(3)
H133_2 H 0.3253 0.9290 0.2316
C115_2 C 0.3583(2) 0.9045(2) 0.2905(3)
H134_2 H 0.3538 0.9258 0.3140
C116_2 C 0.3820(2) 0.8708(3) 0.3047(2)
H135_2 H 0.3935 0.8694 0.3378
C117_2 C 0.5885(3) 0.8036(3) 0.4823(4)
H136_2 H 0.5847 0.8066 0.4448
C118_2 C 0.6020(4) 0.7600(3) 0.4931(5)
H137_2 H 0.5823 0.7412 0.4785
H138_2 H 0.6285 0.7553 0.4777
H139_2 H 0.6037 0.7558 0.5299
C119_2 C 0.6130(2) 0.8377(2) 0.5004(3)
C120_2 C 0.6282(2) 0.8399(2) 0.5507(3)
H140_2 H 0.6240 0.8182 0.5736
C121_2 C 0.6498(3) 0.8746(3) 0.5668(3)
H141_2 H 0.6600 0.8761 0.6004
C122_2 C 0.6561(2) 0.9071(2) 0.5325(4)
H142_2 H 0.6705 0.9303 0.5433
C123_2 C 0.6408(2) 0.9049(2) 0.4823(3)
H143_2 H 0.6450 0.9266 0.4594
C124_2 C 0.6193(2) 0.8702(3) 0.4662(2)
H144_2 H 0.6090 0.8687 0.4325
C125_2 C 0.6872(6) 0.5777(5) 0.5043(7)
H145_2 H 0.7127 0.5796 0.4840
C126_2 C 0.6919(5) 0.5432(5) 0.5419(6)
H146_2 H 0.6959 0.5179 0.5233
H147_2 H 0.7152 0.5482 0.5638
H148_2 H 0.6675 0.5411 0.5627
C127_2 C 0.6810(5) 0.6166(3) 0.5303(5)
C128_2 C 0.6521(4) 0.6292(4) 0.5667(6)
H149_2 H 0.6323 0.6107 0.5786
C129_2 C 0.6527(4) 0.6693(5) 0.5853(5)
H150_2 H 0.6333 0.6777 0.6096
C130_2 C 0.6822(5) 0.6968(3) 0.5675(6)
H151_2 H 0.6826 0.7237 0.5800
C131_2 C 0.7112(4) 0.6842(4) 0.5311(6)
H152_2 H 0.7309 0.7027 0.5192
C132_2 C 0.7106(4) 0.6441(5) 0.5125(5)
H153_2 H 0.7299 0.6357 0.4882
C133_2 C 0.5765(5) 0.6859(5) 0.2686(6)
H154_2 H 0.5776 0.7111 0.2894
C134_2 C 0.5419(5) 0.6912(5) 0.2257(6)
H155_2 H 0.5485 0.7142 0.2039
H156_2 H 0.5403 0.6667 0.2051
H157_2 H 0.5158 0.6959 0.2423
C135_2 C 0.6185(4) 0.6819(5) 0.2369(5)
C136_2 C 0.6333(5) 0.6520(4) 0.2033(5)
H158_2 H 0.6156 0.6321 0.1901
C137_2 C 0.6747(5) 0.6517(4) 0.1894(4)
H159_2 H 0.6846 0.6316 0.1669
C138_2 C 0.7012(3) 0.6814(6) 0.2092(6)
H160_2 H 0.7288 0.6812 0.1999
C139_2 C 0.6864(6) 0.7113(4) 0.2428(6)
H161_2 H 0.7041 0.7312 0.2560
C140_2 C 0.6450(6) 0.7116(4) 0.2567(5)
H162_2 H 0.6351 0.7317 0.2792
C141_2 C 0.4129(3) 0.9612(3) 0.4867(4)
H163_2 H 0.4233 0.9506 0.4536
H166_2 H 0.4647 0.9973 0.4956
C143_2 C 0.36610(18) 0.9645(2) 0.4811(3)
C144_2 C 0.3474(3) 0.9549(3) 0.4341(3)
H167_2 H 0.3630 0.9443 0.4069
C145_2 C 0.3054(3) 0.9611(3) 0.4277(3)
H168_2 H 0.2929 0.9547 0.3963
C146_2 C 0.28205(19) 0.9769(3) 0.4683(4)
H169_2 H 0.2539 0.9811 0.4640
C147_2 C 0.3008(2) 0.9865(3) 0.5152(3)
H170_2 H 0.2851 0.9971 0.5424
C148_2 C 0.3428(3) 0.9803(3) 0.5216(3)
H171_2 H 0.3553 0.9867 0.5530
C149_2 C 0.5869(3) 0.9612(3) 0.2850(4)
H172_2 H 0.5753 0.9525 0.3183
H175_2 H 0.5370 0.9988 0.2683
C151_2 C 0.63174(17) 0.9659(3) 0.2917(3)
C152_2 C 0.6491(2) 0.9553(3) 0.3391(3)
H176_2 H 0.6328 0.9439 0.3650
C153_2 C 0.6908(2) 0.9616(3) 0.3477(3)
H177_2 H 0.7025 0.9545 0.3795
C154_2 C 0.71524(17) 0.9786(3) 0.3090(4)
H178_2 H 0.7432 0.9828 0.3147
C155_2 C 0.6979(2) 0.9892(3) 0.2615(3)
C156_2 C 0.6561(2) 0.9829(3) 0.2529(3)
H180_2 H 0.6445 0.9900 0.2212
Zn6_4 Zn 0.5000 1.0000 0.63392(6)
O25_2 O 0.45229(19) 0.99928(18) 0.0904(2)
H184_2 H 0.658215 0.491296 0.341156
H185_2 H 0.571716 0.786455 0.366329
H186_2 H 0.455312 0.930005 0.664501
Zn5_2 Zn -0.00001(2) 0.23534(2) 0.88379(5)
H183_3 H 0.00870356 0.158215 0.841156
C16_3 C 0.6270(2) 0.0249(2) 0.0461(3)
H14_3 H 0.6029 0.0403 0.0354
H15_3 H 0.6399 0.0393 0.0747
C17_3 C 0.6571(2) 0.0213(2) 0.0010(3)
N6_3 N 0.6951(2) 0.0449(2) 0.0088(3)
H36_3 H 0.7154 0.0355 0.0268
H49_3 H 0.7442 0.1037 0.0299
C41_3 C 0.6623(2) 0.1130(2) 0.0004(3)
C42_3 C 0.6601(2) 0.1282(2) 0.0507(3)
H50_3 H 0.6818 0.1240 0.0736
C43_3 C 0.6254(3) 0.1498(3) 0.0668(3)
H51_3 H 0.6239 0.1600 0.1004
C44_3 C 0.5929(2) 0.1561(2) 0.0325(4)
H52_3 H 0.5697 0.1705 0.0433
C47_3 C 0.9223(5) 0.1872(6) 0.0043(7)
C48_3 C 0.9568(5) 0.1919(5) 0.0419(6)
H56_3 H 0.9821 0.1959 0.0233
H57_3 H 0.9518 0.2152 0.0638
H58_3 H 0.9589 0.1675 0.0627
C49_3 C 0.8834(3) 0.1810(5) 0.0303(5)
C50_3 C 0.8708(4) 0.1521(4) 0.0667(6)
H59_3 H 0.8893 0.1323 0.0786
C51_3 C 0.8307(5) 0.1527(4) 0.0853(5)
H60_3 H 0.8223 0.1333 0.1096
C52_3 C 0.8032(3) 0.1822(5) 0.0675(6)
H61_3 H 0.7763 0.1826 0.0800
C53_3 C 0.8158(4) 0.2112(4) 0.0311(6)
H62_3 H 0.7973 0.2309 0.0192
C54_3 C 0.8559(5) 0.2106(4) 0.0125(5)
O19_3 O 0.41032(18) 0.0233(2) 0.1526(2)
C92_3 C 0.4063(2) 0.0369(2) 0.0153(3)
H103_3 H 0.4254 0.0166 0.0007
C93_3 C 0.3858(2) 0.0185(2) 0.0635(3)
C96_3 C 0.3497(2) 0.0442(3) 0.0800(3)
H107_3 H 0.3589 0.0719 0.0878
H108_3 H 0.3377 0.0326 0.1112
C97_3 C 0.3165(3) 0.0456(3) 0.0359(4)
H109_3 H 0.2915 0.0322 0.0475
H110_3 H 0.3100 0.0740 0.0276
C98_3 C 0.4177(3) 0.0144(3) 0.1081(4)
N11_3 N 0.4297(2) 0.0764(2) 0.0268(3)
H125_3 H 0.4253 0.0911 0.0539
H165_3 H 0.5124 0.0720 0.0301
C147_3 C 0.4865(3) 0.1992(2) 0.0152(3)
H170_3 H 0.4971 0.2149 0.0424
C148_3 C 0.4803(3) 0.1572(3) 0.0216(3)
H171_3 H 0.4867 0.1447 0.0530
H186_3 H 0.430005 0.0446882 0.164501
Zn1_2 Zn 0.76466(2) -0.00001(2) 0.88379(5)
O1_3 O 0.73258(16) 0.00746(18) 0.8226(2)
O2_3 O 0.6919(2) 0.0503(2) 0.8630(3)
O4_3 O 0.58884(17) 0.02280(18) 0.6210(2)
O9_3 O 0.84435(19) 0.0174(2) 0.9472(2)
O10_3 O 0.80001(13) 0.04972(16) 0.8910(3)
O11_2 O 0.95061(17) 0.20123(15) 0.8822(3)
O12_3 O 0.98084(18) 0.15637(18) 0.8255(2)
C1_3 C 0.6998(3) 0.0277(3) 0.8249(3)
C2_3 C 0.6666(2) 0.0248(2) 0.7839(3)
C3_3 C 0.6275(2) 0.0472(3) 0.7985(3)
H1_3 H 0.6326 0.0766 0.8004
H2_3 H 0.6178 0.0379 0.8321
C4_3 C 0.5941(2) 0.0377(2) 0.7553(3)
H3_3 H 0.5753 0.0170 0.7697
C5_3 C 0.6141(2) 0.0186(2) 0.7074(3)
C6_3 C 0.6506(2) 0.0455(3) 0.6917(3)
H4_3 H 0.6412 0.0733 0.6849
H5_3 H 0.6628 0.0348 0.6602
C7_3 C 0.6830(3) 0.0461(3) 0.7354(3)
H6_3 H 0.7078 0.0322 0.7238
H7_3 H 0.6901 0.0744 0.7436
C10_3 C 0.5800(2) 0.0131(2) 0.6655(3)
H16_3 H 0.6433 0.0333 0.9707
C21_3 C 0.8346(3) 0.0456(3) 0.9156(4)
C22_3 C 0.8678(2) 0.0781(2) 0.8973(3)
C23_3 C 0.8577(3) 0.0993(3) 0.8465(4)
H21_3 H 0.8320 0.1145 0.8518
C24_3 C 0.8905(2) 0.1308(3) 0.8322(4)
H22_3 H 0.9043 0.1225 0.8005
H23_3 H 0.8779 0.1575 0.8265
C25_3 C 0.9214(2) 0.1336(2) 0.8759(3)
C26_3 C 0.9418(2) 0.0908(2) 0.8839(5)
H24_3 H 0.9582 0.0840 0.8536
H25_3 H 0.9602 0.0920 0.9135
C27_3 C 0.9100(2) 0.0574(2) 0.8926(4)
H26_3 H 0.9162 0.0423 0.9241
H27_3 H 0.9100 0.0383 0.8637
C28_3 C 0.8687(3) 0.1114(3) 0.9395(3)
H28_3 H 0.8763 0.0991 0.9724
H29_3 H 0.8415 0.1234 0.9432
C29_3 C 0.9000(3) 0.1456(3) 0.9254(3)
H30_3 H 0.8849 0.1712 0.9194
C30_3 C 0.9536(3) 0.1671(3) 0.8594(3)
N1_3 N 0.5696(2) 0.07533(19) 0.7457(2)
H31_3 H 0.5732 0.0899 0.7182
N3_3 N 0.9288(3) 0.1521(4) 0.9672(5)
H33_3 H 0.9497 0.1361 0.9708
N4_3 N 0.8497(2) 0.0680(2) 0.8042(3)
H34_3 H 0.8648 0.0464 0.8007
C39_3 C 0.6964(3) 0.0885(3) 0.9823(4)
H46_3 H 0.6934 0.0847 0.9448
C40_3 C 0.7400(3) 0.1020(4) 0.9931(5)
H47_3 H 0.7588 0.0823 0.9785
H48_3 H 0.7447 0.1285 0.9777
C45_3 C 0.5951(2) 0.1408(2) 0.9823(3)
H53_3 H 0.5734 0.1450 0.9594
C46_3 C 0.6298(3) 0.1193(2) 0.9662(2)
H54_3 H 0.6313 0.1090 0.9325
H55_3 H 0.9204 0.2127 0.9840
H63_3 H 0.8643 0.2299 0.9882
C55_3 C 0.8141(5) 0.0765(5) 0.7686(6)
H64_3 H 0.7889 0.0776 0.7894
C56_3 C 0.8088(5) 0.0419(5) 0.7257(6)
H65_3 H 0.7858 0.0485 0.7039
H66_3 H 0.8333 0.0403 0.7051
H67_3 H 0.8041 0.0158 0.7423
C57_3 C 0.8181(5) 0.1185(4) 0.7369(5)
C58_3 C 0.8480(4) 0.1333(5) 0.7033(5)
H68_3 H 0.8679 0.1156 0.6901
C59_3 C 0.8483(4) 0.1747(5) 0.6894(4)
H69_3 H 0.8684 0.1846 0.6669
C60_3 C 0.8186(6) 0.2012(3) 0.7092(6)
H70_3 H 0.8188 0.2288 0.6999
C61_3 C 0.7887(4) 0.1864(6) 0.7428(6)
H71_3 H 0.7688 0.2041 0.7560
C62_3 C 0.7884(4) 0.1450(6) 0.7567(5)
H72_3 H 0.7683 0.1351 0.7792
C71_3 C 0.5388(3) 0.0869(3) 0.7850(4)
H82_3 H 0.5475 0.0753 0.8183
C72_3 C 0.4977(3) 0.0663(3) 0.7693(5)
H83_3 H 0.4768 0.0733 0.7941
H84_3 H 0.4896 0.0759 0.7356
H85_3 H 0.5012 0.0370 0.7683
C73_3 C 0.5341(3) 0.13174(17) 0.7917(3)
C74_3 C 0.5447(3) 0.1491(2) 0.8391(3)
H86_3 H 0.5561 0.1328 0.8650
C75_3 C 0.5384(3) 0.1908(2) 0.8477(3)
H87_3 H 0.5455 0.2025 0.8795
C76_3 C 0.5214(3) 0.21524(17) 0.8090(4)
H88_3 H 0.5172 0.2432 0.8147
C77_3 C 0.5108(3) 0.1979(2) 0.7615(3)
H89_3 H 0.4994 0.2142 0.7356
C78_3 C 0.5171(3) 0.1561(2) 0.7529(3)
H90_3 H 0.5100 0.1445 0.7212
Zn3_2 Zn 0.23534(2) 0.00001(2) 0.88379(5)
O15_3 O 0.45350(19) 0.00130(18) 0.6799(2)
O17_3 O 0.26792(16) 0.00894(18) 0.9471(2)
O18_3 O 0.3086(2) 0.0511(3) 0.9089(3)
C86_3 C 0.3412(2) 0.0198(3) 0.7710(3)
H98_3 H 0.3541 0.0314 0.8021
C87_3 C 0.3733(2) 0.0256(2) 0.7273(3)
H99_3 H 0.3973 0.0400 0.7405
H100_3 H 0.3616 0.0416 0.6992
C89_3 C 0.3003(2) 0.0287(3) 0.9461(3)
C90_3 C 0.3335(2) 0.0235(2) 0.9872(3)
C91_3 C 0.3725(2) 0.0469(3) 0.9742(3)
H101_3 H 0.3669 0.0762 0.9741
H102_3 H 0.3820 0.0391 0.9400
N8_3 N 0.3044(2) 0.0459(2) 0.7615(3)
H122_3 H 0.2848 0.0377 0.7416
C109_3 C 0.3027(3) 0.0862(3) 0.7875(4)
H127_3 H 0.3060 0.0814 0.8248
C110_3 C 0.2589(3) 0.1051(3) 0.7789(5)
H128_3 H 0.2573 0.1315 0.7957
H129_3 H 0.2540 0.1084 0.7424
H130_3 H 0.2384 0.0871 0.7934
C111_3 C 0.3390(2) 0.1113(2) 0.7696(3)
C112_3 C 0.3409(2) 0.1285(2) 0.7203(3)
H131_3 H 0.3197 0.1240 0.6968
C113_3 C 0.3747(3) 0.1522(2) 0.7060(2)
H132_3 H 0.3760 0.1637 0.6730
C114_3 C 0.4065(2) 0.1589(2) 0.7411(3)
H133_3 H 0.4290 0.1747 0.7316
C115_3 C 0.4045(2) 0.1417(2) 0.7905(3)
H134_3 H 0.4258 0.1462 0.8140
C116_3 C 0.3708(3) 0.1180(2) 0.8047(2)
H135_3 H 0.3694 0.1065 0.8378
C141_3 C 0.4612(3) 0.0871(3) 0.9867(4)
H163_3 H 0.4506 0.0767 0.9536
C142_3 C 0.5019(3) 0.0645(3) 0.9966(4)
H164_3 H 0.5215 0.0719 0.9704
H166_3 H 0.4973 0.0353 0.9956
C143_3 C 0.4645(2) 0.13390(18) 0.9811(3)
C144_3 C 0.4549(3) 0.1526(3) 0.9341(3)
H167_3 H 0.4443 0.1370 0.9069
C145_3 C 0.4611(3) 0.1946(3) 0.9277(3)
H168_3 H 0.4547 0.2071 0.8963
C146_3 C 0.4769(3) 0.21795(19) 0.9683(4)
H169_3 H 0.4811 0.2461 0.9640
Zn5_3 Zn 0.99999(2) 0.23534(2) 0.88379(5)
O28_2 O 0.20123(15) 0.04939(17) 0.8822(3)
H182_3 H 0.713545 0.071716 0.866329
O7_3 O 0.58968(18) 0.9767(2) 0.1526(2)
C14_3 C 0.5937(2) 0.9631(2) 0.0153(3)
H13_3 H 0.5746 0.9834 0.0007
C15_3 C 0.6142(2) 0.9815(2) 0.0635(3)
C18_3 C 0.6503(2) 0.9558(3) 0.0800(3)
H17_3 H 0.6411 0.9281 0.0878
H18_3 H 0.6623 0.9674 0.1112
C19_3 C 0.6835(3) 0.9544(3) 0.0359(4)
H19_3 H 0.7085 0.9678 0.0475
H20_3 H 0.6900 0.9260 0.0276
C20_3 C 0.5823(3) 0.9856(3) 0.1081(4)
N5_3 N 0.5703(2) 0.9236(2) 0.0268(3)
H35_3 H 0.5747 0.9089 0.0539
H75_3 H 0.4876 0.9280 0.0301
C69_3 C 0.5135(3) 0.8008(2) 0.0152(3)
H80_3 H 0.5029 0.7851 0.0424
C70_3 C 0.5197(3) 0.8428(3) 0.0216(3)
H81_3 H 0.5133 0.8553 0.0530
C94_3 C 0.3730(2) 0.9751(2) 0.0461(3)
H104_3 H 0.3971 0.9597 0.0354
H105_3 H 0.3601 0.9607 0.0747
C95_3 C 0.3429(2) 0.9787(2) 0.0010(3)
N12_3 N 0.3049(2) 0.9551(2) 0.0088(3)
H126_3 H 0.2846 0.9645 0.0268
H139_3 H 0.2558 0.8963 0.0299
C119_3 C 0.3377(2) 0.8870(2) 0.0004(3)
C120_3 C 0.3399(2) 0.8718(2) 0.0507(3)
H140_3 H 0.3182 0.8760 0.0736
C121_3 C 0.3746(3) 0.8502(3) 0.0668(3)
H141_3 H 0.3761 0.8400 0.1004
C122_3 C 0.4071(2) 0.8439(2) 0.0325(4)
H142_3 H 0.4303 0.8295 0.0433
C125_3 C 0.0777(5) 0.8128(6) 0.0043(7)
C126_3 C 0.0432(5) 0.8081(5) 0.0419(6)
H146_3 H 0.0179 0.8041 0.0233
H147_3 H 0.0482 0.7848 0.0638
H148_3 H 0.0411 0.8325 0.0627
C127_3 C 0.1166(3) 0.8190(5) 0.0303(5)
C128_3 C 0.1292(4) 0.8479(4) 0.0667(6)
H149_3 H 0.1107 0.8677 0.0786
C129_3 C 0.1693(5) 0.8473(4) 0.0853(5)
H150_3 H 0.1777 0.8667 0.1096
C130_3 C 0.1968(3) 0.8178(5) 0.0675(6)
H151_3 H 0.2237 0.8174 0.0800
C131_3 C 0.1842(4) 0.7888(4) 0.0311(6)
H152_3 H 0.2027 0.7691 0.0192
C132_3 C 0.1441(5) 0.7894(4) 0.0125(5)
H181_3 H 0.569995 0.955312 0.164501
Zn1_3 Zn 0.76466(2) 0.99999(2) 0.88379(5)
O3_3 O 0.54650(19) 0.99870(18) 0.6799(2)
O5_3 O 0.73208(16) 0.99106(18) 0.9471(2)
O6_3 O 0.6914(2) 0.9489(3) 0.9089(3)
C8_3 C 0.6588(2) 0.9802(3) 0.7710(3)
H8_3 H 0.6459 0.9686 0.8021
C9_3 C 0.6267(2) 0.9744(2) 0.7273(3)
H9_3 H 0.6027 0.9600 0.7405
H10_3 H 0.6384 0.9584 0.6992
C11_3 C 0.6997(2) 0.9713(3) 0.9461(3)
C12_3 C 0.6665(2) 0.9765(2) 0.9872(3)
C13_3 C 0.6275(2) 0.9531(3) 0.9742(3)
H11_3 H 0.6331 0.9238 0.9741
H12_3 H 0.6180 0.9609 0.9400
N2_3 N 0.6956(2) 0.9541(2) 0.7615(3)
H32_3 H 0.7152 0.9623 0.7416
C31_3 C 0.6973(3) 0.9138(3) 0.7875(4)
H37_3 H 0.6940 0.9186 0.8248
C32_3 C 0.7411(3) 0.8949(3) 0.7789(5)
H38_3 H 0.7427 0.8685 0.7957
H39_3 H 0.7460 0.8916 0.7424
H40_3 H 0.7616 0.9129 0.7934
C33_3 C 0.6610(2) 0.8887(2) 0.7696(3)
C34_3 C 0.6591(2) 0.8715(2) 0.7203(3)
H41_3 H 0.6803 0.8760 0.6968
C35_3 C 0.6253(3) 0.8478(2) 0.7060(2)
H42_3 H 0.6240 0.8363 0.6730
C36_3 C 0.5935(2) 0.8411(2) 0.7411(3)
H43_3 H 0.5710 0.8253 0.7316
C37_3 C 0.5955(2) 0.8583(2) 0.7905(3)
H44_3 H 0.5742 0.8538 0.8140
C38_3 C 0.6292(3) 0.8820(2) 0.8047(2)
H45_3 H 0.6306 0.8935 0.8378
C63_3 C 0.5388(3) 0.9129(3) 0.9867(4)
H73_3 H 0.5494 0.9233 0.9536
C64_3 C 0.4981(3) 0.9355(3) 0.9966(4)
H74_3 H 0.4785 0.9281 0.9704
H76_3 H 0.5027 0.9647 0.9956
C65_3 C 0.5355(2) 0.86610(18) 0.9811(3)
C66_3 C 0.5451(3) 0.8474(3) 0.9341(3)
H77_3 H 0.5557 0.8630 0.9069
C67_3 C 0.5389(3) 0.8054(3) 0.9277(3)
H78_3 H 0.5453 0.7929 0.8963
C68_3 C 0.5231(3) 0.78205(19) 0.9683(4)
H79_3 H 0.5189 0.7539 0.9640
Zn3_3 Zn 0.23534(2) 1.00001(2) 0.88379(5)
O13_3 O 0.26742(16) 0.99254(18) 0.8226(2)
O14_3 O 0.3081(2) 0.9497(2) 0.8630(3)
O16_3 O 0.41116(17) 0.97720(18) 0.6210(2)
O21_3 O 0.15565(19) 0.9826(2) 0.9472(2)
O22_3 O 0.19999(13) 0.95028(16) 0.8910(3)
O23_2 O 0.04939(17) 0.79877(15) 0.8822(3)
O24_3 O 0.01916(18) 0.84363(18) 0.8255(2)
C79_3 C 0.3002(3) 0.9723(3) 0.8249(3)
C80_3 C 0.3334(2) 0.9752(2) 0.7839(3)
C81_3 C 0.3725(2) 0.9528(3) 0.7985(3)
H91_3 H 0.3674 0.9234 0.8004
H92_3 H 0.3822 0.9621 0.8321
C82_3 C 0.4059(2) 0.9623(2) 0.7553(3)
H93_3 H 0.4247 0.9830 0.7697
C83_3 C 0.3859(2) 0.9814(2) 0.7074(3)
C84_3 C 0.3494(2) 0.9545(3) 0.6917(3)
H94_3 H 0.3588 0.9267 0.6849
H95_3 H 0.3372 0.9652 0.6602
C85_3 C 0.3170(3) 0.9539(3) 0.7354(3)
H96_3 H 0.2922 0.9678 0.7238
H97_3 H 0.3099 0.9256 0.7436
C88_3 C 0.4200(2) 0.9869(2) 0.6655(3)
H106_3 H 0.3567 0.9667 0.9707
C99_3 C 0.1654(3) 0.9544(3) 0.9156(4)
C100_3 C 0.1322(2) 0.9219(2) 0.8973(3)
C101_3 C 0.1423(3) 0.9007(3) 0.8465(4)
H111_3 H 0.1680 0.8855 0.8518
C102_3 C 0.1095(2) 0.8692(3) 0.8322(4)
H112_3 H 0.0957 0.8775 0.8005
H113_3 H 0.1221 0.8425 0.8265
C103_3 C 0.0786(2) 0.8664(2) 0.8759(3)
C104_3 C 0.0582(2) 0.9092(2) 0.8839(5)
H114_3 H 0.0418 0.9160 0.8536
H115_3 H 0.0398 0.9080 0.9135
C105_3 C 0.0900(2) 0.9426(2) 0.8926(4)
H116_3 H 0.0838 0.9577 0.9241
H117_3 H 0.0900 0.9617 0.8637
C106_3 C 0.1313(3) 0.8886(3) 0.9395(3)
H118_3 H 0.1237 0.9009 0.9724
H119_3 H 0.1585 0.8766 0.9432
C107_3 C 0.1000(3) 0.8544(3) 0.9254(3)
H120_3 H 0.1151 0.8288 0.9194
C108_3 C 0.0464(3) 0.8329(3) 0.8594(3)
N7_3 N 0.4304(2) 0.92467(19) 0.7457(2)
H121_3 H 0.4268 0.9101 0.7182
N9_3 N 0.0712(3) 0.8479(4) 0.9672(5)
H123_3 H 0.0503 0.8639 0.9708
N10_3 N 0.1503(2) 0.9320(2) 0.8042(3)
H124_3 H 0.1352 0.9536 0.8007
C117_3 C 0.3036(3) 0.9115(3) 0.9823(4)
H136_3 H 0.3066 0.9153 0.9448
C118_3 C 0.2600(3) 0.8980(4) 0.9931(5)
H137_3 H 0.2412 0.9177 0.9785
H138_3 H 0.2553 0.8715 0.9777
C123_3 C 0.4049(2) 0.8592(2) 0.9823(3)
H143_3 H 0.4266 0.8550 0.9594
C124_3 C 0.3702(3) 0.8807(2) 0.9662(2)
H144_3 H 0.3687 0.8910 0.9325
H145_3 H 0.0796 0.7873 0.9840
H153_3 H 0.1357 0.7701 0.9882
C133_3 C 0.1859(5) 0.9235(5) 0.7686(6)
H154_3 H 0.2111 0.9224 0.7894
C134_3 C 0.1912(5) 0.9581(5) 0.7257(6)
H155_3 H 0.2142 0.9515 0.7039
H156_3 H 0.1667 0.9597 0.7051
H157_3 H 0.1959 0.9842 0.7423
C135_3 C 0.1819(5) 0.8815(4) 0.7369(5)
C136_3 C 0.1520(4) 0.8667(5) 0.7033(5)
H158_3 H 0.1321 0.8844 0.6901
C137_3 C 0.1517(4) 0.8253(5) 0.6894(4)
H159_3 H 0.1316 0.8154 0.6669
C138_3 C 0.1814(6) 0.7988(3) 0.7092(6)
H160_3 H 0.1812 0.7712 0.6999
C139_3 C 0.2113(4) 0.8136(6) 0.7428(6)
H161_3 H 0.2312 0.7959 0.7560
C140_3 C 0.2116(4) 0.8550(6) 0.7567(5)
H162_3 H 0.2317 0.8649 0.7792
C149_3 C 0.4612(3) 0.9131(3) 0.7850(4)
H172_3 H 0.4525 0.9247 0.8183
C150_3 C 0.5023(3) 0.9337(3) 0.7693(5)
H173_3 H 0.5232 0.9267 0.7941
H174_3 H 0.5104 0.9241 0.7356
H175_3 H 0.4988 0.9630 0.7683
C151_3 C 0.4659(3) 0.86826(17) 0.7917(3)
C152_3 C 0.4553(3) 0.8509(2) 0.8391(3)
H176_3 H 0.4439 0.8672 0.8650
C153_3 C 0.4616(3) 0.8092(2) 0.8477(3)
H177_3 H 0.4545 0.7975 0.8795
C154_3 C 0.4786(3) 0.78476(17) 0.8090(4)
H178_3 H 0.4828 0.7568 0.8147
C155_3 C 0.4892(3) 0.8021(2) 0.7615(3)
H179_3 H 0.5006 0.7858 0.7356
C156_3 C 0.4829(3) 0.8439(2) 0.7529(3)
H180_3 H 0.4900 0.8555 0.7212
Zn4_2 Zn 0.00001(2) 0.76466(2) 0.88379(5)
O27_2 O 0.79877(15) 0.95061(17) 0.8822(3)
H185_3 H 0.286455 0.928284 0.866329
Zn4_3 Zn 1.00001(2) 0.76466(2) 0.88379(5)
H184_3 H 0.991296 0.841785 0.841156
O7_4 O 0.0233(2) 0.58968(18) 0.1526(2)
C14_4 C 0.0369(2) 0.5937(2) 0.0153(3)
H13_4 H 0.0166 0.5746 0.0007
C15_4 C 0.0185(2) 0.6142(2) 0.0635(3)
C18_4 C 0.0442(3) 0.6503(2) 0.0800(3)
H17_4 H 0.0719 0.6411 0.0878
H18_4 H 0.0326 0.6623 0.1112
C19_4 C 0.0456(3) 0.6835(3) 0.0359(4)
H19_4 H 0.0322 0.7085 0.0475
H20_4 H 0.0740 0.6900 0.0276
C20_4 C 0.0144(3) 0.5823(3) 0.1081(4)
N5_4 N 0.0764(2) 0.5703(2) 0.0268(3)
H35_4 H 0.0911 0.5747 0.0539
H75_4 H 0.0720 0.4876 0.0301
C69_4 C 0.1992(2) 0.5135(3) 0.0152(3)
H80_4 H 0.2149 0.5029 0.0424
C70_4 C 0.1572(3) 0.5197(3) 0.0216(3)
H81_4 H 0.1447 0.5133 0.0530
C94_4 C 0.0249(2) 0.3730(2) 0.0461(3)
H104_4 H 0.0403 0.3971 0.0354
H105_4 H 0.0393 0.3601 0.0747
C95_4 C 0.0213(2) 0.3429(2) 0.0010(3)
N12_4 N 0.0449(2) 0.3049(2) 0.0088(3)
H126_4 H 0.0355 0.2846 0.0268
H139_4 H 0.1037 0.2558 0.0299
C119_4 C 0.1130(2) 0.3377(2) 0.0004(3)
C120_4 C 0.1282(2) 0.3399(2) 0.0507(3)
H140_4 H 0.1240 0.3182 0.0736
C121_4 C 0.1498(3) 0.3746(3) 0.0668(3)
H141_4 H 0.1600 0.3761 0.1004
C122_4 C 0.1561(2) 0.4071(2) 0.0325(4)
H142_4 H 0.1705 0.4303 0.0433
C125_4 C 0.1872(6) 0.0777(5) 0.0043(7)
C126_4 C 0.1919(5) 0.0432(5) 0.0419(6)
H146_4 H 0.1959 0.0179 0.0233
H147_4 H 0.2152 0.0482 0.0638
H148_4 H 0.1675 0.0411 0.0627
C127_4 C 0.1810(5) 0.1166(3) 0.0303(5)
C128_4 C 0.1521(4) 0.1292(4) 0.0667(6)
H149_4 H 0.1323 0.1107 0.0786
C129_4 C 0.1527(4) 0.1693(5) 0.0853(5)
H150_4 H 0.1333 0.1777 0.1096
C130_4 C 0.1822(5) 0.1968(3) 0.0675(6)
H151_4 H 0.1826 0.2237 0.0800
C131_4 C 0.2112(4) 0.1842(4) 0.0311(6)
H152_4 H 0.2309 0.2027 0.0192
C132_4 C 0.2106(4) 0.1441(5) 0.0125(5)
H181_4 H 0.0446882 0.569995 0.164501
O3_4 O 0.00130(18) 0.54650(19) 0.6799(2)
O5_4 O 0.00894(18) 0.73208(16) 0.9471(2)
O6_4 O 0.0511(3) 0.6914(2) 0.9089(3)
C8_4 C 0.0198(3) 0.6588(2) 0.7710(3)
H8_4 H 0.0314 0.6459 0.8021
C9_4 C 0.0256(2) 0.6267(2) 0.7273(3)
H9_4 H 0.0400 0.6027 0.7405
H10_4 H 0.0416 0.6384 0.6992
C11_4 C 0.0287(3) 0.6997(2) 0.9461(3)
C12_4 C 0.0235(2) 0.6665(2) 0.9872(3)
C13_4 C 0.0469(3) 0.6275(2) 0.9742(3)
H11_4 H 0.0762 0.6331 0.9741
H12_4 H 0.0391 0.6180 0.9400
N2_4 N 0.0459(2) 0.6956(2) 0.7615(3)
H32_4 H 0.0377 0.7152 0.7416
C31_4 C 0.0862(3) 0.6973(3) 0.7875(4)
H37_4 H 0.0814 0.6940 0.8248
C32_4 C 0.1051(3) 0.7411(3) 0.7789(5)
H38_4 H 0.1315 0.7427 0.7957
H39_4 H 0.1084 0.7460 0.7424
H40_4 H 0.0871 0.7616 0.7934
C33_4 C 0.1113(2) 0.6610(2) 0.7696(3)
C34_4 C 0.1285(2) 0.6591(2) 0.7203(3)
H41_4 H 0.1240 0.6803 0.6968
C35_4 C 0.1522(2) 0.6253(3) 0.7060(2)
H42_4 H 0.1637 0.6240 0.6730
C36_4 C 0.1589(2) 0.5935(2) 0.7411(3)
H43_4 H 0.1747 0.5710 0.7316
C37_4 C 0.1417(2) 0.5955(2) 0.7905(3)
H44_4 H 0.1462 0.5742 0.8140
C38_4 C 0.1180(2) 0.6292(3) 0.8047(2)
H45_4 H 0.1065 0.6306 0.8378
C63_4 C 0.0871(3) 0.5388(3) 0.9867(4)
H73_4 H 0.0767 0.5494 0.9536
C64_4 C 0.0645(3) 0.4981(3) 0.9966(4)
H74_4 H 0.0719 0.4785 0.9704
H76_4 H 0.0353 0.5027 0.9956
C65_4 C 0.13390(18) 0.5355(2) 0.9811(3)
C66_4 C 0.1526(3) 0.5451(3) 0.9341(3)
H77_4 H 0.1370 0.5557 0.9069
C67_4 C 0.1946(3) 0.5389(3) 0.9277(3)
H78_4 H 0.2071 0.5453 0.8963
C68_4 C 0.21795(19) 0.5231(3) 0.9683(4)
H79_4 H 0.2461 0.5189 0.9640
O13_4 O 0.00746(18) 0.26742(16) 0.8226(2)
O14_4 O 0.0503(2) 0.3081(2) 0.8630(3)
O16_4 O 0.02280(18) 0.41116(17) 0.6210(2)
O21_4 O 0.0174(2) 0.15565(19) 0.9472(2)
O22_4 O 0.04972(16) 0.19999(13) 0.8910(3)
O24_4 O 0.15637(18) 0.01916(18) 0.8255(2)
C79_4 C 0.0277(3) 0.3002(3) 0.8249(3)
C80_4 C 0.0248(2) 0.3334(2) 0.7839(3)
C81_4 C 0.0472(3) 0.3725(2) 0.7985(3)
H91_4 H 0.0766 0.3674 0.8004
H92_4 H 0.0379 0.3822 0.8321
C82_4 C 0.0377(2) 0.4059(2) 0.7553(3)
H93_4 H 0.0170 0.4247 0.7697
C83_4 C 0.0186(2) 0.3859(2) 0.7074(3)
C84_4 C 0.0455(3) 0.3494(2) 0.6917(3)
H94_4 H 0.0733 0.3588 0.6849
H95_4 H 0.0348 0.3372 0.6602
C85_4 C 0.0461(3) 0.3170(3) 0.7354(3)
H96_4 H 0.0322 0.2922 0.7238
H97_4 H 0.0744 0.3099 0.7436
C88_4 C 0.0131(2) 0.4200(2) 0.6655(3)
H106_4 H 0.0333 0.3567 0.9707
C99_4 C 0.0456(3) 0.1654(3) 0.9156(4)
C100_4 C 0.0781(2) 0.1322(2) 0.8973(3)
C101_4 C 0.0993(3) 0.1423(3) 0.8465(4)
H111_4 H 0.1145 0.1680 0.8518
C102_4 C 0.1308(3) 0.1095(2) 0.8322(4)
H112_4 H 0.1225 0.0957 0.8005
H113_4 H 0.1575 0.1221 0.8265
C103_4 C 0.1336(2) 0.0786(2) 0.8759(3)
C104_4 C 0.0908(2) 0.0582(2) 0.8839(5)
H114_4 H 0.0840 0.0418 0.8536
H115_4 H 0.0920 0.0398 0.9135
C105_4 C 0.0574(2) 0.0900(2) 0.8926(4)
H116_4 H 0.0423 0.0838 0.9241
H117_4 H 0.0383 0.0900 0.8637
C106_4 C 0.1114(3) 0.1313(3) 0.9395(3)
H118_4 H 0.0991 0.1237 0.9724
H119_4 H 0.1234 0.1585 0.9432
C107_4 C 0.1456(3) 0.1000(3) 0.9254(3)
H120_4 H 0.1712 0.1151 0.9194
C108_4 C 0.1671(3) 0.0464(3) 0.8594(3)
N7_4 N 0.07533(19) 0.4304(2) 0.7457(2)
H121_4 H 0.0899 0.4268 0.7182
N9_4 N 0.1521(4) 0.0712(3) 0.9672(5)
H123_4 H 0.1361 0.0503 0.9708
N10_4 N 0.0680(2) 0.1503(2) 0.8042(3)
H124_4 H 0.0464 0.1352 0.8007
C117_4 C 0.0885(3) 0.3036(3) 0.9823(4)
H136_4 H 0.0847 0.3066 0.9448
C118_4 C 0.1020(4) 0.2600(3) 0.9931(5)
H137_4 H 0.0823 0.2412 0.9785
H138_4 H 0.1285 0.2553 0.9777
C123_4 C 0.1408(2) 0.4049(2) 0.9823(3)
H143_4 H 0.1450 0.4266 0.9594
C124_4 C 0.1193(2) 0.3702(3) 0.9662(2)
H144_4 H 0.1090 0.3687 0.9325
H145_4 H 0.2127 0.0796 0.9840
H153_4 H 0.2299 0.1357 0.9882
C133_4 C 0.0765(5) 0.1859(5) 0.7686(6)
H154_4 H 0.0776 0.2111 0.7894
C134_4 C 0.0419(5) 0.1912(5) 0.7257(6)
H155_4 H 0.0485 0.2142 0.7039
H156_4 H 0.0403 0.1667 0.7051
H157_4 H 0.0158 0.1959 0.7423
C135_4 C 0.1185(4) 0.1819(5) 0.7369(5)
C136_4 C 0.1333(5) 0.1520(4) 0.7033(5)
H158_4 H 0.1156 0.1321 0.6901
C137_4 C 0.1747(5) 0.1517(4) 0.6894(4)
H159_4 H 0.1846 0.1316 0.6669
C138_4 C 0.2012(3) 0.1814(6) 0.7092(6)
H160_4 H 0.2288 0.1812 0.6999
C139_4 C 0.1864(6) 0.2113(4) 0.7428(6)
H161_4 H 0.2041 0.2312 0.7560
C140_4 C 0.1450(6) 0.2116(4) 0.7567(5)
H162_4 H 0.1351 0.2317 0.7792
C149_4 C 0.0869(3) 0.4612(3) 0.7850(4)
H172_4 H 0.0753 0.4525 0.8183
C150_4 C 0.0663(3) 0.5023(3) 0.7693(5)
H173_4 H 0.0733 0.5232 0.7941
H174_4 H 0.0759 0.5104 0.7356
H175_4 H 0.0370 0.4988 0.7683
C151_4 C 0.13174(17) 0.4659(3) 0.7917(3)
C152_4 C 0.1491(2) 0.4553(3) 0.8391(3)
H176_4 H 0.1328 0.4439 0.8650
C153_4 C 0.1908(2) 0.4616(3) 0.8477(3)
H177_4 H 0.2025 0.4545 0.8795
C154_4 C 0.21524(17) 0.4786(3) 0.8090(4)
H178_4 H 0.2432 0.4828 0.8147
C155_4 C 0.1979(2) 0.4892(3) 0.7615(3)
H179_4 H 0.2142 0.5006 0.7356
C156_4 C 0.1561(2) 0.4829(3) 0.7529(3)
H180_4 H 0.1445 0.4900 0.7212
H185_4 H 0.071716 0.286455 0.866329
H184_4 H 0.158215 0.991296 0.841156
H183_4 H 0.841785 0.00870356 0.841156
C16_4 C 0.9751(2) 0.6270(2) 0.0461(3)
H14_4 H 0.9597 0.6029 0.0354
H15_4 H 0.9607 0.6399 0.0747
C17_4 C 0.9787(2) 0.6571(2) 0.0010(3)
N6_4 N 0.9551(2) 0.6951(2) 0.0088(3)
H36_4 H 0.9645 0.7154 0.0268
H49_4 H 0.8963 0.7442 0.0299
C41_4 C 0.8870(2) 0.6623(2) 0.0004(3)
C42_4 C 0.8718(2) 0.6601(2) 0.0507(3)
H50_4 H 0.8760 0.6818 0.0736
C43_4 C 0.8502(3) 0.6254(3) 0.0668(3)
H51_4 H 0.8400 0.6239 0.1004
C44_4 C 0.8439(2) 0.5929(2) 0.0325(4)
H52_4 H 0.8295 0.5697 0.0433
C47_4 C 0.8128(6) 0.9223(5) 0.0043(7)
C48_4 C 0.8081(5) 0.9568(5) 0.0419(6)
H56_4 H 0.8041 0.9821 0.0233
H57_4 H 0.7848 0.9518 0.0638
H58_4 H 0.8325 0.9589 0.0627
C49_4 C 0.8190(5) 0.8834(3) 0.0303(5)
C50_4 C 0.8479(4) 0.8708(4) 0.0667(6)
H59_4 H 0.8677 0.8893 0.0786
C51_4 C 0.8473(4) 0.8307(5) 0.0853(5)
H60_4 H 0.8667 0.8223 0.1096
C52_4 C 0.8178(5) 0.8032(3) 0.0675(6)
H61_4 H 0.8174 0.7763 0.0800
C53_4 C 0.7888(4) 0.8158(4) 0.0311(6)
H62_4 H 0.7691 0.7973 0.0192
C54_4 C 0.7894(4) 0.8559(5) 0.0125(5)
O19_4 O 0.9767(2) 0.41032(18) 0.1526(2)
C92_4 C 0.9631(2) 0.4063(2) 0.0153(3)
H103_4 H 0.9834 0.4254 0.0007
C93_4 C 0.9815(2) 0.3858(2) 0.0635(3)
C96_4 C 0.9558(3) 0.3497(2) 0.0800(3)
H107_4 H 0.9281 0.3589 0.0878
H108_4 H 0.9674 0.3377 0.1112
C97_4 C 0.9544(3) 0.3165(3) 0.0359(4)
H109_4 H 0.9678 0.2915 0.0475
H110_4 H 0.9260 0.3100 0.0276
C98_4 C 0.9856(3) 0.4177(3) 0.1081(4)
N11_4 N 0.9236(2) 0.4297(2) 0.0268(3)
H125_4 H 0.9089 0.4253 0.0539
H165_4 H 0.9280 0.5124 0.0301
C147_4 C 0.8008(2) 0.4865(3) 0.0152(3)
H170_4 H 0.7851 0.4971 0.0424
C148_4 C 0.8428(3) 0.4803(3) 0.0216(3)
H171_4 H 0.8553 0.4867 0.0530
H186_4 H 0.955312 0.430005 0.164501
O1_4 O 0.99254(18) 0.73258(16) 0.8226(2)
O2_4 O 0.9497(2) 0.6919(2) 0.8630(3)
O4_4 O 0.97720(18) 0.58884(17) 0.6210(2)
O9_4 O 0.9826(2) 0.84435(19) 0.9472(2)
O10_4 O 0.95028(16) 0.80001(13) 0.8910(3)
O12_4 O 0.84363(18) 0.98084(18) 0.8255(2)
C1_4 C 0.9723(3) 0.6998(3) 0.8249(3)
C2_4 C 0.9752(2) 0.6666(2) 0.7839(3)
C3_4 C 0.9528(3) 0.6275(2) 0.7985(3)
H1_4 H 0.9234 0.6326 0.8004
H2_4 H 0.9621 0.6178 0.8321
C4_4 C 0.9623(2) 0.5941(2) 0.7553(3)
H3_4 H 0.9830 0.5753 0.7697
C5_4 C 0.9814(2) 0.6141(2) 0.7074(3)
C6_4 C 0.9545(3) 0.6506(2) 0.6917(3)
H4_4 H 0.9267 0.6412 0.6849
H5_4 H 0.9652 0.6628 0.6602
C7_4 C 0.9539(3) 0.6830(3) 0.7354(3)
H6_4 H 0.9678 0.7078 0.7238
H7_4 H 0.9256 0.6901 0.7436
C10_4 C 0.9869(2) 0.5800(2) 0.6655(3)
H16_4 H 0.9667 0.6433 0.9707
C21_4 C 0.9544(3) 0.8346(3) 0.9156(4)
C22_4 C 0.9219(2) 0.8678(2) 0.8973(3)
C23_4 C 0.9007(3) 0.8577(3) 0.8465(4)
H21_4 H 0.8855 0.8320 0.8518
C24_4 C 0.8692(3) 0.8905(2) 0.8322(4)
H22_4 H 0.8775 0.9043 0.8005
H23_4 H 0.8425 0.8779 0.8265
C25_4 C 0.8664(2) 0.9214(2) 0.8759(3)
C26_4 C 0.9092(2) 0.9418(2) 0.8839(5)
H24_4 H 0.9160 0.9582 0.8536
H25_4 H 0.9080 0.9602 0.9135
C27_4 C 0.9426(2) 0.9100(2) 0.8926(4)
H26_4 H 0.9577 0.9162 0.9241
H27_4 H 0.9617 0.9100 0.8637
C28_4 C 0.8886(3) 0.8687(3) 0.9395(3)
H28_4 H 0.9009 0.8763 0.9724
H29_4 H 0.8766 0.8415 0.9432
C29_4 C 0.8544(3) 0.9000(3) 0.9254(3)
H30_4 H 0.8288 0.8849 0.9194
C30_4 C 0.8329(3) 0.9536(3) 0.8594(3)
N1_4 N 0.92467(19) 0.5696(2) 0.7457(2)
H31_4 H 0.9101 0.5732 0.7182
N3_4 N 0.8479(4) 0.9288(3) 0.9672(5)
H33_4 H 0.8639 0.9497 0.9708
N4_4 N 0.9320(2) 0.8497(2) 0.8042(3)
H34_4 H 0.9536 0.8648 0.8007
C39_4 C 0.9115(3) 0.6964(3) 0.9823(4)
H46_4 H 0.9153 0.6934 0.9448
C40_4 C 0.8980(4) 0.7400(3) 0.9931(5)
H47_4 H 0.9177 0.7588 0.9785
H48_4 H 0.8715 0.7447 0.9777
C45_4 C 0.8592(2) 0.5951(2) 0.9823(3)
H53_4 H 0.8550 0.5734 0.9594
C46_4 C 0.8807(2) 0.6298(3) 0.9662(2)
H54_4 H 0.8910 0.6313 0.9325
H55_4 H 0.7873 0.9204 0.9840
H63_4 H 0.7701 0.8643 0.9882
C55_4 C 0.9235(5) 0.8141(5) 0.7686(6)
H64_4 H 0.9224 0.7889 0.7894
C56_4 C 0.9581(5) 0.8088(5) 0.7257(6)
H65_4 H 0.9515 0.7858 0.7039
H66_4 H 0.9597 0.8333 0.7051
H67_4 H 0.9842 0.8041 0.7423
C57_4 C 0.8815(4) 0.8181(5) 0.7369(5)
C58_4 C 0.8667(5) 0.8480(4) 0.7033(5)
H68_4 H 0.8844 0.8679 0.6901
C59_4 C 0.8253(5) 0.8483(4) 0.6894(4)
H69_4 H 0.8154 0.8684 0.6669
C60_4 C 0.7988(3) 0.8186(6) 0.7092(6)
H70_4 H 0.7712 0.8188 0.6999
C61_4 C 0.8136(6) 0.7887(4) 0.7428(6)
H71_4 H 0.7959 0.7688 0.7560
C62_4 C 0.8550(6) 0.7884(4) 0.7567(5)
H72_4 H 0.8649 0.7683 0.7792
C71_4 C 0.9131(3) 0.5388(3) 0.7850(4)
H82_4 H 0.9247 0.5475 0.8183
C72_4 C 0.9337(3) 0.4977(3) 0.7693(5)
H83_4 H 0.9267 0.4768 0.7941
H84_4 H 0.9241 0.4896 0.7356
H85_4 H 0.9630 0.5012 0.7683
C73_4 C 0.86826(17) 0.5341(3) 0.7917(3)
C74_4 C 0.8509(2) 0.5447(3) 0.8391(3)
H86_4 H 0.8672 0.5561 0.8650
C75_4 C 0.8092(2) 0.5384(3) 0.8477(3)
H87_4 H 0.7975 0.5455 0.8795
C76_4 C 0.78476(17) 0.5214(3) 0.8090(4)
H88_4 H 0.7568 0.5172 0.8147
C77_4 C 0.8021(2) 0.5108(3) 0.7615(3)
H89_4 H 0.7858 0.4994 0.7356
C78_4 C 0.8439(2) 0.5171(3) 0.7529(3)
H90_4 H 0.8555 0.5100 0.7212
O15_4 O 0.99870(18) 0.45350(19) 0.6799(2)
O17_4 O 0.99106(18) 0.26792(16) 0.9471(2)
O18_4 O 0.9489(3) 0.3086(2) 0.9089(3)
C86_4 C 0.9802(3) 0.3412(2) 0.7710(3)
H98_4 H 0.9686 0.3541 0.8021
C87_4 C 0.9744(2) 0.3733(2) 0.7273(3)
H99_4 H 0.9600 0.3973 0.7405
H100_4 H 0.9584 0.3616 0.6992
C89_4 C 0.9713(3) 0.3003(2) 0.9461(3)
C90_4 C 0.9765(2) 0.3335(2) 0.9872(3)
C91_4 C 0.9531(3) 0.3725(2) 0.9742(3)
H101_4 H 0.9238 0.3669 0.9741
H102_4 H 0.9609 0.3820 0.9400
N8_4 N 0.9541(2) 0.3044(2) 0.7615(3)
H122_4 H 0.9623 0.2848 0.7416
C109_4 C 0.9138(3) 0.3027(3) 0.7875(4)
H127_4 H 0.9186 0.3060 0.8248
C110_4 C 0.8949(3) 0.2589(3) 0.7789(5)
H128_4 H 0.8685 0.2573 0.7957
H129_4 H 0.8916 0.2540 0.7424
H130_4 H 0.9129 0.2384 0.7934
C111_4 C 0.8887(2) 0.3390(2) 0.7696(3)
C112_4 C 0.8715(2) 0.3409(2) 0.7203(3)
H131_4 H 0.8760 0.3197 0.6968
C113_4 C 0.8478(2) 0.3747(3) 0.7060(2)
H132_4 H 0.8363 0.3760 0.6730
C114_4 C 0.8411(2) 0.4065(2) 0.7411(3)
H133_4 H 0.8253 0.4290 0.7316
C115_4 C 0.8583(2) 0.4045(2) 0.7905(3)
H134_4 H 0.8538 0.4258 0.8140
C116_4 C 0.8820(2) 0.3708(3) 0.8047(2)
H135_4 H 0.8935 0.3694 0.8378
C141_4 C 0.9129(3) 0.4612(3) 0.9867(4)
H163_4 H 0.9233 0.4506 0.9536
C142_4 C 0.9355(3) 0.5019(3) 0.9966(4)
H164_4 H 0.9281 0.5215 0.9704
H166_4 H 0.9647 0.4973 0.9956
C143_4 C 0.86610(18) 0.4645(2) 0.9811(3)
C144_4 C 0.8474(3) 0.4549(3) 0.9341(3)
H167_4 H 0.8630 0.4443 0.9069
C145_4 C 0.8054(3) 0.4611(3) 0.9277(3)
H168_4 H 0.7929 0.4547 0.8963
C146_4 C 0.78205(19) 0.4769(3) 0.9683(4)
H169_4 H 0.7539 0.4811 0.9640
H182_4 H 0.928284 0.713545 0.866329
loop_
_geom_bond_atom_site_label_1
_geom_bond_atom_site_label_2
_geom_bond_site_symmetry_1
_geom_bond_site_symmetry_2
Zn1 O1 1_555 1_555
Zn2 O3 1_555 1_555
O1 C1 1_555 1_555
O2 C1 1_555 1_555
O3 C10 1_555 1_555
O4 C10 1_555 1_555
O5 Zn1 1_555 1_555
O6 C11 1_555 1_555
O7 C20 1_555 1_555
O8 C20 1_555 1_555
O9 C21 1_555 1_555
O10 Zn1 1_555 1_555
O11 C30 1_555 1_555
O12 C30 1_555 1_555
C1 C2 1_555 1_555
C2 C3 1_555 1_555
C3 H1 1_555 1_555
H2 C3 1_555 1_555
C4 C3 1_555 1_555
H3 C4 1_555 1_555
C5 C4 1_555 1_555
C6 C5 1_555 1_555
H4 C6 1_555 1_555
H5 C6 1_555 1_555
C7 C2 1_555 1_555
H6 C7 1_555 1_555
H7 C7 1_555 1_555
C8 C2 1_555 1_555
H8 C8 1_555 1_555
C9 C5 1_555 1_555
H9 C9 1_555 1_555
H10 C9 1_555 1_555
C10 C5 1_555 1_555
C11 O5 1_555 1_555
C12 C11 1_555 1_555
C13 C12 1_555 1_555
H11 C13 1_555 1_555
H12 C13 1_555 1_555
C14 C13 1_555 1_555
H13 C14 1_555 1_555
C15 C14 1_555 1_555
C16 C15 1_555 1_555
H14 C16 1_555 1_555
H15 C16 1_555 1_555
C17 C12 1_555 1_555
H16 C17 1_555 1_555
C18 C15 1_555 1_555
H17 C18 1_555 1_555
H18 C18 1_555 1_555
C19 C12 1_555 1_555
H19 C19 1_555 1_555
H20 C19 1_555 1_555
C20 C15 1_555 1_555
C21 O10 1_555 1_555
C22 C21 1_555 1_555
C23 C22 1_555 1_555
H21 C23 1_555 1_555
C24 C23 1_555 1_555
H22 C24 1_555 1_555
H23 C24 1_555 1_555
C25 C24 1_555 1_555
C26 C25 1_555 1_555
H24 C26 1_555 1_555
H25 C26 1_555 1_555
C27 C22 1_555 1_555
H26 C27 1_555 1_555
H27 C27 1_555 1_555
C28 C22 1_555 1_555
H28 C28 1_555 1_555
H29 C28 1_555 1_555
C29 C25 1_555 1_555
H30 C29 1_555 1_555
C30 C25 1_555 1_555
N1 C4 1_555 1_555
H31 N1 1_555 1_555
N2 C8 1_555 1_555
H32 N2 1_555 1_555
N3 C29 1_555 1_555
H33 N3 1_555 1_555
N4 C23 1_555 1_555
H34 N4 1_555 1_555
N5 C14 1_555 1_555
H35 N5 1_555 1_555
N6 C17 1_555 1_555
H36 N6 1_555 1_555
C31 N2 1_555 1_555
H37 C31 1_555 1_555
C32 C31 1_555 1_555
H38 C32 1_555 1_555
H39 C32 1_555 1_555
H40 C32 1_555 1_555
C33 C31 1_555 1_555
C34 C33 1_555 1_555
H41 C34 1_555 1_555
C35 C34 1_555 1_555
H42 C35 1_555 1_555
C36 C35 1_555 1_555
H43 C36 1_555 1_555
C37 C36 1_555 1_555
H44 C37 1_555 1_555
C38 C33 1_555 1_555
H45 C38 1_555 1_555
C39 N6 1_555 1_555
H46 C39 1_555 1_555
C40 C39 1_555 1_555
H47 C40 1_555 1_555
H48 C40 1_555 1_555
H49 C40 1_555 1_555
C41 C39 1_555 1_555
C42 C41 1_555 1_555
H50 C42 1_555 1_555
C43 C42 1_555 1_555
H51 C43 1_555 1_555
C44 C43 1_555 1_555
H52 C44 1_555 1_555
C45 C44 1_555 1_555
H53 C45 1_555 1_555
C46 C41 1_555 1_555
H54 C46 1_555 1_555
C47 N3 1_555 1_555
H55 C47 1_555 1_555
C48 C47 1_555 1_555
H56 C48 1_555 1_555
H57 C48 1_555 1_555
H58 C48 1_555 1_555
C49 C47 1_555 1_555
C50 C49 1_555 1_555
H59 C50 1_555 1_555
C51 C50 1_555 1_555
H60 C51 1_555 1_555
C52 C51 1_555 1_555
H61 C52 1_555 1_555
C53 C52 1_555 1_555
H62 C53 1_555 1_555
C54 C49 1_555 1_555
H63 C54 1_555 1_555
C55 N4 1_555 1_555
H64 C55 1_555 1_555
C56 C55 1_555 1_555
H65 C56 1_555 1_555
H66 C56 1_555 1_555
H67 C56 1_555 1_555
C57 C55 1_555 1_555
C58 C57 1_555 1_555
H68 C58 1_555 1_555
C59 C58 1_555 1_555
H69 C59 1_555 1_555
C60 C59 1_555 1_555
H70 C60 1_555 1_555
C61 C60 1_555 1_555
H71 C61 1_555 1_555
C62 C57 1_555 1_555
H72 C62 1_555 1_555
C63 N5 1_555 1_555
H73 C63 1_555 1_555
C65 C63 1_555 1_555
C66 C65 1_555 1_555
H77 C66 1_555 1_555
C67 C66 1_555 1_555
H78 C67 1_555 1_555
C68 C67 1_555 1_555
H79 C68 1_555 1_555
C69 C68 1_555 1_555
H80 C69 1_555 1_555
C70 C65 1_555 1_555
H81 C70 1_555 1_555
C71 N1 1_555 1_555
H82 C71 1_555 1_555
C73 C71 1_555 1_555
C74 C73 1_555 1_555
H86 C74 1_555 1_555
C75 C74 1_555 1_555
H87 C75 1_555 1_555
C76 C75 1_555 1_555
H88 C76 1_555 1_555
C77 C76 1_555 1_555
C78 C73 1_555 1_555
H90 C78 1_555 1_555
H164 C142 1_555 1_555
H165 C142 1_555 1_555
H173 C150 1_555 1_555
H174 C150 1_555 1_555
Zn5 O11 1_555 1_555
Zn6 O8 1_555 1_555
O26 Zn2 1_555 1_555
O27 Zn1 1_555 1_555
C6 C7 1_555 1_555
C8 C9 1_555 1_555
C16 C17 1_555 1_555
C18 C19 1_555 1_555
C26 C27 1_555 1_555
C28 C29 1_555 1_555
C37 C38 1_555 1_555
C45 C46 1_555 1_555
C53 C54 1_555 1_555
C61 C62 1_555 1_555
C69 C70 1_555 1_555
C77 C78 1_555 1_555
O7 H181 1_555 1_555
O2 H182 1_555 1_555
O12 H183 1_555 1_555
H74 C64 1_555 1_555
H75 C64 1_555 1_555
H83 C72 1_555 1_555
H84 C72 1_555 1_555
Zn3 O13 1_555 1_555
O13 C79 1_555 1_555
O14 C79 1_555 1_555
O15 Zn2_2 1_555 1_555
O16 C88 1_555 1_555
O17 Zn3 1_555 1_555
O18 C89 1_555 1_555
O19 C98 1_555 1_555
O20 C98 1_555 1_555
O21 C99 1_555 1_555
O22 Zn3 1_555 1_555
O23 C108 1_555 1_555
O24 C108 1_555 1_555
C79 C80 1_555 1_555
C80 C81 1_555 1_555
C81 H91 1_555 1_555
H92 C81 1_555 1_555
C82 C81 1_555 1_555
H93 C82 1_555 1_555
C83 C82 1_555 1_555
C84 C83 1_555 1_555
H94 C84 1_555 1_555
H95 C84 1_555 1_555
C85 C80 1_555 1_555
H96 C85 1_555 1_555
H97 C85 1_555 1_555
C86 C80 1_555 1_555
H98 C86 1_555 1_555
C87 C83 1_555 1_555
H99 C87 1_555 1_555
H100 C87 1_555 1_555
C88 O15 1_555 1_555
C89 O17 1_555 1_555
C90 C89 1_555 1_555
C91 C90 1_555 1_555
H101 C91 1_555 1_555
H102 C91 1_555 1_555
C92 C91 1_555 1_555
H103 C92 1_555 1_555
C93 C92 1_555 1_555
C94 C93 1_555 1_555
H104 C94 1_555 1_555
H105 C94 1_555 1_555
C95 C90 1_555 1_555
H106 C95 1_555 1_555
C96 C93 1_555 1_555
H107 C96 1_555 1_555
H108 C96 1_555 1_555
C97 C90 1_555 1_555
H109 C97 1_555 1_555
H110 C97 1_555 1_555
C98 C93 1_555 1_555
C99 O22 1_555 1_555
C100 C99 1_555 1_555
C101 C100 1_555 1_555
H111 C101 1_555 1_555
C102 C101 1_555 1_555
H112 C102 1_555 1_555
H113 C102 1_555 1_555
C103 C102 1_555 1_555
C104 C103 1_555 1_555
H114 C104 1_555 1_555
H115 C104 1_555 1_555
C105 C100 1_555 1_555
H116 C105 1_555 1_555
H117 C105 1_555 1_555
C106 C100 1_555 1_555
H118 C106 1_555 1_555
H119 C106 1_555 1_555
C107 C103 1_555 1_555
H120 C107 1_555 1_555
C108 C103 1_555 1_555
N7 C82 1_555 1_555
H121 N7 1_555 1_555
N8 C86 1_555 1_555
H122 N8 1_555 1_555
N9 C107 1_555 1_555
H123 N9 1_555 1_555
N10 C101 1_555 1_555
H124 N10 1_555 1_555
N11 C92 1_555 1_555
H125 N11 1_555 1_555
N12 C95 1_555 1_555
H126 N12 1_555 1_555
C109 N8 1_555 1_555
H127 C109 1_555 1_555
C110 C109 1_555 1_555
H128 C110 1_555 1_555
H129 C110 1_555 1_555
H130 C110 1_555 1_555
C111 C109 1_555 1_555
C112 C111 1_555 1_555
H131 C112 1_555 1_555
C113 C112 1_555 1_555
H132 C113 1_555 1_555
C114 C113 1_555 1_555
H133 C114 1_555 1_555
C115 C114 1_555 1_555
H134 C115 1_555 1_555
C116 C111 1_555 1_555
H135 C116 1_555 1_555
C117 N12 1_555 1_555
H136 C117 1_555 1_555
C118 C117 1_555 1_555
H137 C118 1_555 1_555
H138 C118 1_555 1_555
H139 C118 1_555 1_555
C119 C117 1_555 1_555
C120 C119 1_555 1_555
H140 C120 1_555 1_555
C121 C120 1_555 1_555
H141 C121 1_555 1_555
C122 C121 1_555 1_555
H142 C122 1_555 1_555
C123 C122 1_555 1_555
H143 C123 1_555 1_555
C124 C119 1_555 1_555
H144 C124 1_555 1_555
C125 N9 1_555 1_555
H145 C125 1_555 1_555
C126 C125 1_555 1_555
H146 C126 1_555 1_555
H147 C126 1_555 1_555
H148 C126 1_555 1_555
C127 C125 1_555 1_555
C128 C127 1_555 1_555
H149 C128 1_555 1_555
C129 C128 1_555 1_555
H150 C129 1_555 1_555
C130 C129 1_555 1_555
H151 C130 1_555 1_555
C131 C130 1_555 1_555
H152 C131 1_555 1_555
C132 C127 1_555 1_555
H153 C132 1_555 1_555
C133 N10 1_555 1_555
H154 C133 1_555 1_555
C134 C133 1_555 1_555
H155 C134 1_555 1_555
H156 C134 1_555 1_555
H157 C134 1_555 1_555
C135 C133 1_555 1_555
C136 C135 1_555 1_555
H158 C136 1_555 1_555
C137 C136 1_555 1_555
H159 C137 1_555 1_555
C138 C137 1_555 1_555
H160 C138 1_555 1_555
C139 C138 1_555 1_555
H161 C139 1_555 1_555
C140 C135 1_555 1_555
H162 C140 1_555 1_555
C141 N11 1_555 1_555
H163 C141 1_555 1_555
C143 C141 1_555 1_555
C144 C143 1_555 1_555
H167 C144 1_555 1_555
C145 C144 1_555 1_555
H168 C145 1_555 1_555
C146 C145 1_555 1_555
H169 C146 1_555 1_555
C147 C146 1_555 1_555
H170 C147 1_555 1_555
C148 C143 1_555 1_555
H171 C148 1_555 1_555
C149 N7 1_555 1_555
H172 C149 1_555 1_555
C151 C149 1_555 1_555
C152 C151 1_555 1_555
H176 C152 1_555 1_555
C153 C152 1_555 1_555
H177 C153 1_555 1_555
C154 C153 1_555 1_555
H178 C154 1_555 1_555
C155 C154 1_555 1_555
C156 C151 1_555 1_555
H180 C156 1_555 1_555
Zn4 O23 1_555 1_555
O25 Zn2_2 1_555 1_555
O28 Zn3 1_555 1_555
O20 Zn6_2 1_555 1_555
C83 C88 1_555 1_555
C84 C85 1_555 1_555
C86 C87 1_555 1_555
C94 C95 1_555 1_555
C96 C97 1_555 1_555
C104 C105 1_555 1_555
C106 C107 1_555 1_555
C115 C116 1_555 1_555
C123 C124 1_555 1_555
C131 C132 1_555 1_555
C139 C140 1_555 1_555
C147 C148 1_555 1_555
C155 C156 1_555 1_555
O24 H184 1_555 1_555
O14 H185 1_555 1_555
O19 H186 1_555 1_555
Zn4 O1_2 1_555 1_555
Zn2_3 O3_2 1_555 1_555
O1_2 C1_2 1_555 1_555
O2_2 C1_2 1_555 1_555
O3_2 C10_2 1_555 1_555
O4_2 C10_2 1_555 1_555
O5_2 Zn4 1_555 1_555
O6_2 C11_2 1_555 1_555
O7_2 C20_2 1_555 1_555
O8_2 C20_2 1_555 1_555
O9_2 C21_2 1_555 1_555
O10_2 Zn4 1_555 1_555
O27 C30_2 1_555 1_555
O12_2 C30_2 1_555 1_555
C1_2 C2_2 1_555 1_555
C2_2 C3_2 1_555 1_555
C3_2 H1_2 1_555 1_555
H2_2 C3_2 1_555 1_555
C4_2 C3_2 1_555 1_555
H3_2 C4_2 1_555 1_555
C5_2 C4_2 1_555 1_555
C6_2 C5_2 1_555 1_555
H4_2 C6_2 1_555 1_555
H5_2 C6_2 1_555 1_555
C7_2 C2_2 1_555 1_555
H6_2 C7_2 1_555 1_555
H7_2 C7_2 1_555 1_555
C8_2 C2_2 1_555 1_555
H8_2 C8_2 1_555 1_555
C9_2 C5_2 1_555 1_555
H9_2 C9_2 1_555 1_555
H10_2 C9_2 1_555 1_555
C10_2 C5_2 1_555 1_555
C11_2 O5_2 1_555 1_555
C12_2 C11_2 1_555 1_555
C13_2 C12_2 1_555 1_555
H11_2 C13_2 1_555 1_555
H12_2 C13_2 1_555 1_555
C14_2 C13_2 1_555 1_555
H13_2 C14_2 1_555 1_555
C15_2 C14_2 1_555 1_555
C16_2 C15_2 1_555 1_555
H14_2 C16_2 1_555 1_555
H15_2 C16_2 1_555 1_555
C17_2 C12_2 1_555 1_555
H16_2 C17_2 1_555 1_555
C18_2 C15_2 1_555 1_555
H17_2 C18_2 1_555 1_555
H18_2 C18_2 1_555 1_555
C19_2 C12_2 1_555 1_555
H19_2 C19_2 1_555 1_555
H20_2 C19_2 1_555 1_555
C20_2 C15_2 1_555 1_555
C21_2 O10_2 1_555 1_555
C22_2 C21_2 1_555 1_555
C23_2 C22_2 1_555 1_555
H21_2 C23_2 1_555 1_555
C24_2 C23_2 1_555 1_555
H22_2 C24_2 1_555 1_555
H23_2 C24_2 1_555 1_555
C25_2 C24_2 1_555 1_555
C26_2 C25_2 1_555 1_555
H24_2 C26_2 1_555 1_555
H25_2 C26_2 1_555 1_555
C27_2 C22_2 1_555 1_555
H26_2 C27_2 1_555 1_555
H27_2 C27_2 1_555 1_555
C28_2 C22_2 1_555 1_555
H28_2 C28_2 1_555 1_555
H29_2 C28_2 1_555 1_555
C29_2 C25_2 1_555 1_555
H30_2 C29_2 1_555 1_555
C30_2 C25_2 1_555 1_555
N1_2 C4_2 1_555 1_555
H31_2 N1_2 1_555 1_555
N2_2 C8_2 1_555 1_555
H32_2 N2_2 1_555 1_555
N3_2 C29_2 1_555 1_555
H33_2 N3_2 1_555 1_555
N4_2 C23_2 1_555 1_555
H34_2 N4_2 1_555 1_555
N5_2 C14_2 1_555 1_555
H35_2 N5_2 1_555 1_555
N6_2 C17_2 1_555 1_555
H36_2 N6_2 1_555 1_555
C31_2 N2_2 1_555 1_555
H37_2 C31_2 1_555 1_555
C32_2 C31_2 1_555 1_555
H38_2 C32_2 1_555 1_555
H39_2 C32_2 1_555 1_555
H40_2 C32_2 1_555 1_555
C33_2 C31_2 1_555 1_555
C34_2 C33_2 1_555 1_555
H41_2 C34_2 1_555 1_555
C35_2 C34_2 1_555 1_555
H42_2 C35_2 1_555 1_555
C36_2 C35_2 1_555 1_555
H43_2 C36_2 1_555 1_555
C37_2 C36_2 1_555 1_555
H44_2 C37_2 1_555 1_555
C38_2 C33_2 1_555 1_555
H45_2 C38_2 1_555 1_555
C39_2 N6_2 1_555 1_555
H46_2 C39_2 1_555 1_555
C40_2 C39_2 1_555 1_555
H47_2 C40_2 1_555 1_555
H48_2 C40_2 1_555 1_555
H49_2 C40_2 1_555 1_555
C41_2 C39_2 1_555 1_555
C42_2 C41_2 1_555 1_555
H50_2 C42_2 1_555 1_555
C43_2 C42_2 1_555 1_555
H51_2 C43_2 1_555 1_555
C44_2 C43_2 1_555 1_555
H52_2 C44_2 1_555 1_555
C45_2 C44_2 1_555 1_555
H53_2 C45_2 1_555 1_555
C46_2 C41_2 1_555 1_555
H54_2 C46_2 1_555 1_555
C47_2 N3_2 1_555 1_555
H55_2 C47_2 1_555 1_555
C48_2 C47_2 1_555 1_555
H56_2 C48_2 1_555 1_555
H57_2 C48_2 1_555 1_555
H58_2 C48_2 1_555 1_555
C49_2 C47_2 1_555 1_555
C50_2 C49_2 1_555 1_555
H59_2 C50_2 1_555 1_555
C51_2 C50_2 1_555 1_555
H60_2 C51_2 1_555 1_555
C52_2 C51_2 1_555 1_555
H61_2 C52_2 1_555 1_555
C53_2 C52_2 1_555 1_555
H62_2 C53_2 1_555 1_555
C54_2 C49_2 1_555 1_555
H63_2 C54_2 1_555 1_555
C55_2 N4_2 1_555 1_555
H64_2 C55_2 1_555 1_555
C56_2 C55_2 1_555 1_555
H65_2 C56_2 1_555 1_555
H66_2 C56_2 1_555 1_555
H67_2 C56_2 1_555 1_555
C57_2 C55_2 1_555 1_555
C58_2 C57_2 1_555 1_555
H68_2 C58_2 1_555 1_555
C59_2 C58_2 1_555 1_555
H69_2 C59_2 1_555 1_555
C60_2 C59_2 1_555 1_555
H70_2 C60_2 1_555 1_555
C61_2 C60_2 1_555 1_555
H71_2 C61_2 1_555 1_555
C62_2 C57_2 1_555 1_555
H72_2 C62_2 1_555 1_555
C63_2 N5_2 1_555 1_555
H73_2 C63_2 1_555 1_555
C65_2 C63_2 1_555 1_555
C66_2 C65_2 1_555 1_555
H77_2 C66_2 1_555 1_555
C67_2 C66_2 1_555 1_555
H78_2 C67_2 1_555 1_555
C68_2 C67_2 1_555 1_555
H79_2 C68_2 1_555 1_555
C69_2 C68_2 1_555 1_555
H80_2 C69_2 1_555 1_555
C70_2 C65_2 1_555 1_555
H81_2 C70_2 1_555 1_555
C71_2 N1_2 1_555 1_555
H82_2 C71_2 1_555 1_555
C73_2 C71_2 1_555 1_555
C74_2 C73_2 1_555 1_555
H86_2 C74_2 1_555 1_555
C75_2 C74_2 1_555 1_555
H87_2 C75_2 1_555 1_555
C76_2 C75_2 1_555 1_555
H88_2 C76_2 1_555 1_555
C77_2 C76_2 1_555 1_555
C78_2 C73_2 1_555 1_555
H90_2 C78_2 1_555 1_555
H164_2 C142_2 1_555 1_555
H165_2 C142_2 1_555 1_555
H173_2 C150_2 1_555 1_555
H174_2 C150_2 1_555 1_555
Zn6_3 O8_2 1_555 1_555
O26_2 Zn2_3 1_555 1_555
C6_2 C7_2 1_555 1_555
C8_2 C9_2 1_555 1_555
C16_2 C17_2 1_555 1_555
C18_2 C19_2 1_555 1_555
C26_2 C27_2 1_555 1_555
C28_2 C29_2 1_555 1_555
C37_2 C38_2 1_555 1_555
C45_2 C46_2 1_555 1_555
C53_2 C54_2 1_555 1_555
C61_2 C62_2 1_555 1_555
C69_2 C70_2 1_555 1_555
C77_2 C78_2 1_555 1_555
O7_2 H181_2 1_555 1_555
O2_2 H182_2 1_555 1_555
O12_2 H183_2 1_555 1_555
H74_2 C64_2 1_555 1_555
H75_2 C64_2 1_555 1_555
H83_2 C72_2 1_555 1_555
H84_2 C72_2 1_555 1_555
Zn5 O13_2 1_555 1_555
O13_2 C79_2 1_555 1_555
O14_2 C79_2 1_555 1_555
O15_2 Zn2_4 1_555 1_555
O16_2 C88_2 1_555 1_555
O17_2 Zn5 1_555 1_555
O18_2 C89_2 1_555 1_555
O19_2 C98_2 1_555 1_555
O20_2 C98_2 1_555 1_555
O21_2 C99_2 1_555 1_555
O22_2 Zn5 1_555 1_555
O28 C108_2 1_555 1_555
O24_2 C108_2 1_555 1_555
C79_2 C80_2 1_555 1_555
C80_2 C81_2 1_555 1_555
C81_2 H91_2 1_555 1_555
H92_2 C81_2 1_555 1_555
C82_2 C81_2 1_555 1_555
H93_2 C82_2 1_555 1_555
C83_2 C82_2 1_555 1_555
C84_2 C83_2 1_555 1_555
H94_2 C84_2 1_555 1_555
H95_2 C84_2 1_555 1_555
C85_2 C80_2 1_555 1_555
H96_2 C85_2 1_555 1_555
H97_2 C85_2 1_555 1_555
C86_2 C80_2 1_555 1_555
H98_2 C86_2 1_555 1_555
C87_2 C83_2 1_555 1_555
H99_2 C87_2 1_555 1_555
H100_2 C87_2 1_555 1_555
C88_2 O15_2 1_555 1_555
C89_2 O17_2 1_555 1_555
C90_2 C89_2 1_555 1_555
C91_2 C90_2 1_555 1_555
H101_2 C91_2 1_555 1_555
H102_2 C91_2 1_555 1_555
C92_2 C91_2 1_555 1_555
H103_2 C92_2 1_555 1_555
C93_2 C92_2 1_555 1_555
C94_2 C93_2 1_555 1_555
H104_2 C94_2 1_555 1_555
H105_2 C94_2 1_555 1_555
C95_2 C90_2 1_555 1_555
H106_2 C95_2 1_555 1_555
C96_2 C93_2 1_555 1_555
H107_2 C96_2 1_555 1_555
H108_2 C96_2 1_555 1_555
C97_2 C90_2 1_555 1_555
H109_2 C97_2 1_555 1_555
H110_2 C97_2 1_555 1_555
C98_2 C93_2 1_555 1_555
C99_2 O22_2 1_555 1_555
C100_2 C99_2 1_555 1_555
C101_2 C100_2 1_555 1_555
H111_2 C101_2 1_555 1_555
C102_2 C101_2 1_555 1_555
H112_2 C102_2 1_555 1_555
H113_2 C102_2 1_555 1_555
C103_2 C102_2 1_555 1_555
C104_2 C103_2 1_555 1_555
H114_2 C104_2 1_555 1_555
H115_2 C104_2 1_555 1_555
C105_2 C100_2 1_555 1_555
H116_2 C105_2 1_555 1_555
H117_2 C105_2 1_555 1_555
C106_2 C100_2 1_555 1_555
H118_2 C106_2 1_555 1_555
H119_2 C106_2 1_555 1_555
C107_2 C103_2 1_555 1_555
H120_2 C107_2 1_555 1_555
C108_2 C103_2 1_555 1_555
N7_2 C82_2 1_555 1_555
H121_2 N7_2 1_555 1_555
N8_2 C86_2 1_555 1_555
H122_2 N8_2 1_555 1_555
N9_2 C107_2 1_555 1_555
H123_2 N9_2 1_555 1_555
N10_2 C101_2 1_555 1_555
H124_2 N10_2 1_555 1_555
N11_2 C92_2 1_555 1_555
H125_2 N11_2 1_555 1_555
N12_2 C95_2 1_555 1_555
H126_2 N12_2 1_555 1_555
C109_2 N8_2 1_555 1_555
H127_2 C109_2 1_555 1_555
C110_2 C109_2 1_555 1_555
H128_2 C110_2 1_555 1_555
H129_2 C110_2 1_555 1_555
H130_2 C110_2 1_555 1_555
C111_2 C109_2 1_555 1_555
C112_2 C111_2 1_555 1_555
H131_2 C112_2 1_555 1_555
C113_2 C112_2 1_555 1_555
H132_2 C113_2 1_555 1_555
C114_2 C113_2 1_555 1_555
H133_2 C114_2 1_555 1_555
C115_2 C114_2 1_555 1_555
H134_2 C115_2 1_555 1_555
C116_2 C111_2 1_555 1_555
H135_2 C116_2 1_555 1_555
C117_2 N12_2 1_555 1_555
H136_2 C117_2 1_555 1_555
C118_2 C117_2 1_555 1_555
H137_2 C118_2 1_555 1_555
H138_2 C118_2 1_555 1_555
H139_2 C118_2 1_555 1_555
C119_2 C117_2 1_555 1_555
C120_2 C119_2 1_555 1_555
H140_2 C120_2 1_555 1_555
C121_2 C120_2 1_555 1_555
H141_2 C121_2 1_555 1_555
C122_2 C121_2 1_555 1_555
H142_2 C122_2 1_555 1_555
C123_2 C122_2 1_555 1_555
H143_2 C123_2 1_555 1_555
C124_2 C119_2 1_555 1_555
H144_2 C124_2 1_555 1_555
C125_2 N9_2 1_555 1_555
H145_2 C125_2 1_555 1_555
C126_2 C125_2 1_555 1_555
H146_2 C126_2 1_555 1_555
H147_2 C126_2 1_555 1_555
H148_2 C126_2 1_555 1_555
C127_2 C125_2 1_555 1_555
C128_2 C127_2 1_555 1_555
H149_2 C128_2 1_555 1_555
C129_2 C128_2 1_555 1_555
H150_2 C129_2 1_555 1_555
C130_2 C129_2 1_555 1_555
H151_2 C130_2 1_555 1_555
C131_2 C130_2 1_555 1_555
H152_2 C131_2 1_555 1_555
C132_2 C127_2 1_555 1_555
H153_2 C132_2 1_555 1_555
C133_2 N10_2 1_555 1_555
H154_2 C133_2 1_555 1_555
C134_2 C133_2 1_555 1_555
H155_2 C134_2 1_555 1_555
H156_2 C134_2 1_555 1_555
H157_2 C134_2 1_555 1_555
C135_2 C133_2 1_555 1_555
C136_2 C135_2 1_555 1_555
H158_2 C136_2 1_555 1_555
C137_2 C136_2 1_555 1_555
H159_2 C137_2 1_555 1_555
C138_2 C137_2 1_555 1_555
H160_2 C138_2 1_555 1_555
C139_2 C138_2 1_555 1_555
H161_2 C139_2 1_555 1_555
C140_2 C135_2 1_555 1_555
H162_2 C140_2 1_555 1_555
C141_2 N11_2 1_555 1_555
H163_2 C141_2 1_555 1_555
C143_2 C141_2 1_555 1_555
C144_2 C143_2 1_555 1_555
H167_2 C144_2 1_555 1_555
C145_2 C144_2 1_555 1_555
H168_2 C145_2 1_555 1_555
C146_2 C145_2 1_555 1_555
H169_2 C146_2 1_555 1_555
C147_2 C146_2 1_555 1_555
H170_2 C147_2 1_555 1_555
C148_2 C143_2 1_555 1_555
H171_2 C148_2 1_555 1_555
C149_2 N7_2 1_555 1_555
H172_2 C149_2 1_555 1_555
C151_2 C149_2 1_555 1_555
C152_2 C151_2 1_555 1_555
H176_2 C152_2 1_555 1_555
C153_2 C152_2 1_555 1_555
H177_2 C153_2 1_555 1_555
C154_2 C153_2 1_555 1_555
H178_2 C154_2 1_555 1_555
C155_2 C154_2 1_555 1_555
C156_2 C151_2 1_555 1_555
H180_2 C156_2 1_555 1_555
O25_2 Zn2_4 1_555 1_555
O20_2 Zn6_4 1_555 1_555
C83_2 C88_2 1_555 1_555
C84_2 C85_2 1_555 1_555
C86_2 C87_2 1_555 1_555
C94_2 C95_2 1_555 1_555
C96_2 C97_2 1_555 1_555
C104_2 C105_2 1_555 1_555
C106_2 C107_2 1_555 1_555
C115_2 C116_2 1_555 1_555
C123_2 C124_2 1_555 1_555
C131_2 C132_2 1_555 1_555
C139_2 C140_2 1_555 1_555
C147_2 C148_2 1_555 1_555
C155_2 C156_2 1_555 1_555
O24_2 H184_2 1_555 1_555
O14_2 H185_2 1_555 1_555
O19_2 H186_2 1_555 1_555
H14_3 C16_3 1_555 1_555
H15_3 C16_3 1_555 1_555
N6_3 C17_3 1_555 1_555
H36_3 N6_3 1_555 1_555
C42_3 C41_3 1_555 1_555
H50_3 C42_3 1_555 1_555
C43_3 C42_3 1_555 1_555
H51_3 C43_3 1_555 1_555
C44_3 C43_3 1_555 1_555
H52_3 C44_3 1_555 1_555
C48_3 C47_3 1_555 1_555
H56_3 C48_3 1_555 1_555
H57_3 C48_3 1_555 1_555
H58_3 C48_3 1_555 1_555
C49_3 C47_3 1_555 1_555
C50_3 C49_3 1_555 1_555
H59_3 C50_3 1_555 1_555
C51_3 C50_3 1_555 1_555
H60_3 C51_3 1_555 1_555
C52_3 C51_3 1_555 1_555
H61_3 C52_3 1_555 1_555
C53_3 C52_3 1_555 1_555
H62_3 C53_3 1_555 1_555
C54_3 C49_3 1_555 1_555
O19_3 C98_3 1_555 1_555
H103_3 C92_3 1_555 1_555
C93_3 C92_3 1_555 1_555
C96_3 C93_3 1_555 1_555
H107_3 C96_3 1_555 1_555
H108_3 C96_3 1_555 1_555
H109_3 C97_3 1_555 1_555
H110_3 C97_3 1_555 1_555
C98_3 C93_3 1_555 1_555
N11_3 C92_3 1_555 1_555
H125_3 N11_3 1_555 1_555
H170_3 C147_3 1_555 1_555
H171_3 C148_3 1_555 1_555
C16_3 C17_3 1_555 1_555
C53_3 C54_3 1_555 1_555
C96_3 C97_3 1_555 1_555
C147_3 C148_3 1_555 1_555
O19_3 H186_3 1_555 1_555
Zn1_2 O1_3 1_555 1_555
O1_3 C1_3 1_555 1_555
O2_3 C1_3 1_555 1_555
O4_3 C10_3 1_555 1_555
O9_3 C21_3 1_555 1_555
O10_3 Zn1_2 1_555 1_555
O11_2 C30_3 1_555 1_555
O12_3 C30_3 1_555 1_555
C1_3 C2_3 1_555 1_555
C2_3 C3_3 1_555 1_555
C3_3 H1_3 1_555 1_555
H2_3 C3_3 1_555 1_555
C4_3 C3_3 1_555 1_555
H3_3 C4_3 1_555 1_555
C5_3 C4_3 1_555 1_555
C6_3 C5_3 1_555 1_555
H4_3 C6_3 1_555 1_555
H5_3 C6_3 1_555 1_555
C7_3 C2_3 1_555 1_555
H6_3 C7_3 1_555 1_555
H7_3 C7_3 1_555 1_555
C10_3 C5_3 1_555 1_555
C21_3 O10_3 1_555 1_555
C22_3 C21_3 1_555 1_555
C23_3 C22_3 1_555 1_555
H21_3 C23_3 1_555 1_555
C24_3 C23_3 1_555 1_555
H22_3 C24_3 1_555 1_555
H23_3 C24_3 1_555 1_555
C25_3 C24_3 1_555 1_555
C26_3 C25_3 1_555 1_555
H24_3 C26_3 1_555 1_555
H25_3 C26_3 1_555 1_555
C27_3 C22_3 1_555 1_555
H26_3 C27_3 1_555 1_555
H27_3 C27_3 1_555 1_555
C28_3 C22_3 1_555 1_555
H28_3 C28_3 1_555 1_555
H29_3 C28_3 1_555 1_555
C29_3 C25_3 1_555 1_555
H30_3 C29_3 1_555 1_555
C30_3 C25_3 1_555 1_555
N1_3 C4_3 1_555 1_555
H31_3 N1_3 1_555 1_555
N3_3 C29_3 1_555 1_555
H33_3 N3_3 1_555 1_555
N4_3 C23_3 1_555 1_555
H34_3 N4_3 1_555 1_555
H46_3 C39_3 1_555 1_555
C40_3 C39_3 1_555 1_555
H47_3 C40_3 1_555 1_555
H48_3 C40_3 1_555 1_555
H53_3 C45_3 1_555 1_555
H54_3 C46_3 1_555 1_555
C55_3 N4_3 1_555 1_555
H64_3 C55_3 1_555 1_555
C56_3 C55_3 1_555 1_555
H65_3 C56_3 1_555 1_555
H66_3 C56_3 1_555 1_555
H67_3 C56_3 1_555 1_555
C57_3 C55_3 1_555 1_555
C58_3 C57_3 1_555 1_555
H68_3 C58_3 1_555 1_555
C59_3 C58_3 1_555 1_555
H69_3 C59_3 1_555 1_555
C60_3 C59_3 1_555 1_555
H70_3 C60_3 1_555 1_555
C61_3 C60_3 1_555 1_555
H71_3 C61_3 1_555 1_555
C62_3 C57_3 1_555 1_555
H72_3 C62_3 1_555 1_555
C71_3 N1_3 1_555 1_555
H82_3 C71_3 1_555 1_555
C72_3 C71_3 1_555 1_555
H83_3 C72_3 1_555 1_555
H84_3 C72_3 1_555 1_555
H85_3 C72_3 1_555 1_555
C73_3 C71_3 1_555 1_555
C74_3 C73_3 1_555 1_555
H86_3 C74_3 1_555 1_555
C75_3 C74_3 1_555 1_555
H87_3 C75_3 1_555 1_555
C76_3 C75_3 1_555 1_555
H88_3 C76_3 1_555 1_555
C77_3 C76_3 1_555 1_555
H89_3 C77_3 1_555 1_555
C78_3 C73_3 1_555 1_555
H90_3 C78_3 1_555 1_555
O15_3 Zn6_3 1_555 1_555
O17_3 Zn3_2 1_555 1_555
O18_3 C89_3 1_555 1_555
H98_3 C86_3 1_555 1_555
H99_3 C87_3 1_555 1_555
H100_3 C87_3 1_555 1_555
C89_3 O17_3 1_555 1_555
C90_3 C89_3 1_555 1_555
C91_3 C90_3 1_555 1_555
H101_3 C91_3 1_555 1_555
H102_3 C91_3 1_555 1_555
N8_3 C86_3 1_555 1_555
H122_3 N8_3 1_555 1_555
C109_3 N8_3 1_555 1_555
H127_3 C109_3 1_555 1_555
C110_3 C109_3 1_555 1_555
H128_3 C110_3 1_555 1_555
H129_3 C110_3 1_555 1_555
H130_3 C110_3 1_555 1_555
C111_3 C109_3 1_555 1_555
C112_3 C111_3 1_555 1_555
H131_3 C112_3 1_555 1_555
C113_3 C112_3 1_555 1_555
H132_3 C113_3 1_555 1_555
C114_3 C113_3 1_555 1_555
H133_3 C114_3 1_555 1_555
C115_3 C114_3 1_555 1_555
H134_3 C115_3 1_555 1_555
C116_3 C111_3 1_555 1_555
H135_3 C116_3 1_555 1_555
H163_3 C141_3 1_555 1_555
C142_3 C141_3 1_555 1_555
H164_3 C142_3 1_555 1_555
H166_3 C142_3 1_555 1_555
C143_3 C141_3 1_555 1_555
C144_3 C143_3 1_555 1_555
H167_3 C144_3 1_555 1_555
C145_3 C144_3 1_555 1_555
H168_3 C145_3 1_555 1_555
C146_3 C145_3 1_555 1_555
H169_3 C146_3 1_555 1_555
Zn5_3 O11_2 1_555 1_555
O28_2 Zn3_2 1_555 1_555
C6_3 C7_3 1_555 1_555
C26_3 C27_3 1_555 1_555
C28_3 C29_3 1_555 1_555
C45_3 C46_3 1_555 1_555
C61_3 C62_3 1_555 1_555
C77_3 C78_3 1_555 1_555
C86_3 C87_3 1_555 1_555
C115_3 C116_3 1_555 1_555
O2_3 H182_3 1_555 1_555
O7_3 C20_3 1_555 1_555
H13_3 C14_3 1_555 1_555
C15_3 C14_3 1_555 1_555
C18_3 C15_3 1_555 1_555
H17_3 C18_3 1_555 1_555
H18_3 C18_3 1_555 1_555
H19_3 C19_3 1_555 1_555
H20_3 C19_3 1_555 1_555
C20_3 C15_3 1_555 1_555
N5_3 C14_3 1_555 1_555
H35_3 N5_3 1_555 1_555
H80_3 C69_3 1_555 1_555
H81_3 C70_3 1_555 1_555
H104_3 C94_3 1_555 1_555
H105_3 C94_3 1_555 1_555
N12_3 C95_3 1_555 1_555
H126_3 N12_3 1_555 1_555
C120_3 C119_3 1_555 1_555
H140_3 C120_3 1_555 1_555
C121_3 C120_3 1_555 1_555
H141_3 C121_3 1_555 1_555
C122_3 C121_3 1_555 1_555
H142_3 C122_3 1_555 1_555
C126_3 C125_3 1_555 1_555
H146_3 C126_3 1_555 1_555
H147_3 C126_3 1_555 1_555
H148_3 C126_3 1_555 1_555
C127_3 C125_3 1_555 1_555
C128_3 C127_3 1_555 1_555
H149_3 C128_3 1_555 1_555
C129_3 C128_3 1_555 1_555
H150_3 C129_3 1_555 1_555
C130_3 C129_3 1_555 1_555
H151_3 C130_3 1_555 1_555
C131_3 C130_3 1_555 1_555
H152_3 C131_3 1_555 1_555
C132_3 C127_3 1_555 1_555
C18_3 C19_3 1_555 1_555
C69_3 C70_3 1_555 1_555
C94_3 C95_3 1_555 1_555
C131_3 C132_3 1_555 1_555
O7_3 H181_3 1_555 1_555
Zn6_4 O3_3 1_555 1_555
O5_3 Zn1_3 1_555 1_555
O6_3 C11_3 1_555 1_555
H8_3 C8_3 1_555 1_555
H9_3 C9_3 1_555 1_555
H10_3 C9_3 1_555 1_555
C11_3 O5_3 1_555 1_555
C12_3 C11_3 1_555 1_555
C13_3 C12_3 1_555 1_555
H11_3 C13_3 1_555 1_555
H12_3 C13_3 1_555 1_555
N2_3 C8_3 1_555 1_555
H32_3 N2_3 1_555 1_555
C31_3 N2_3 1_555 1_555
H37_3 C31_3 1_555 1_555
C32_3 C31_3 1_555 1_555
H38_3 C32_3 1_555 1_555
H39_3 C32_3 1_555 1_555
H40_3 C32_3 1_555 1_555
C33_3 C31_3 1_555 1_555
C34_3 C33_3 1_555 1_555
H41_3 C34_3 1_555 1_555
C35_3 C34_3 1_555 1_555
H42_3 C35_3 1_555 1_555
C36_3 C35_3 1_555 1_555
H43_3 C36_3 1_555 1_555
C37_3 C36_3 1_555 1_555
H44_3 C37_3 1_555 1_555
C38_3 C33_3 1_555 1_555
H45_3 C38_3 1_555 1_555
H73_3 C63_3 1_555 1_555
C64_3 C63_3 1_555 1_555
H74_3 C64_3 1_555 1_555
H76_3 C64_3 1_555 1_555
C65_3 C63_3 1_555 1_555
C66_3 C65_3 1_555 1_555
H77_3 C66_3 1_555 1_555
C67_3 C66_3 1_555 1_555
H78_3 C67_3 1_555 1_555
C68_3 C67_3 1_555 1_555
H79_3 C68_3 1_555 1_555
Zn3_3 O13_3 1_555 1_555
O13_3 C79_3 1_555 1_555
O14_3 C79_3 1_555 1_555
O16_3 C88_3 1_555 1_555
O21_3 C99_3 1_555 1_555
O22_3 Zn3_3 1_555 1_555
O23_2 C108_3 1_555 1_555
O24_3 C108_3 1_555 1_555
C79_3 C80_3 1_555 1_555
C80_3 C81_3 1_555 1_555
C81_3 H91_3 1_555 1_555
H92_3 C81_3 1_555 1_555
C82_3 C81_3 1_555 1_555
H93_3 C82_3 1_555 1_555
C83_3 C82_3 1_555 1_555
C84_3 C83_3 1_555 1_555
H94_3 C84_3 1_555 1_555
H95_3 C84_3 1_555 1_555
C85_3 C80_3 1_555 1_555
H96_3 C85_3 1_555 1_555
H97_3 C85_3 1_555 1_555
C99_3 O22_3 1_555 1_555
C100_3 C99_3 1_555 1_555
C101_3 C100_3 1_555 1_555
H111_3 C101_3 1_555 1_555
C102_3 C101_3 1_555 1_555
H112_3 C102_3 1_555 1_555
H113_3 C102_3 1_555 1_555
C103_3 C102_3 1_555 1_555
C104_3 C103_3 1_555 1_555
H114_3 C104_3 1_555 1_555
H115_3 C104_3 1_555 1_555
C105_3 C100_3 1_555 1_555
H116_3 C105_3 1_555 1_555
H117_3 C105_3 1_555 1_555
C106_3 C100_3 1_555 1_555
H118_3 C106_3 1_555 1_555
H119_3 C106_3 1_555 1_555
C107_3 C103_3 1_555 1_555
H120_3 C107_3 1_555 1_555
C108_3 C103_3 1_555 1_555
N7_3 C82_3 1_555 1_555
H121_3 N7_3 1_555 1_555
N9_3 C107_3 1_555 1_555
H123_3 N9_3 1_555 1_555
N10_3 C101_3 1_555 1_555
H124_3 N10_3 1_555 1_555
H136_3 C117_3 1_555 1_555
C118_3 C117_3 1_555 1_555
H137_3 C118_3 1_555 1_555
H138_3 C118_3 1_555 1_555
H143_3 C123_3 1_555 1_555
H144_3 C124_3 1_555 1_555
C133_3 N10_3 1_555 1_555
H154_3 C133_3 1_555 1_555
C134_3 C133_3 1_555 1_555
H155_3 C134_3 1_555 1_555
H156_3 C134_3 1_555 1_555
H157_3 C134_3 1_555 1_555
C135_3 C133_3 1_555 1_555
C136_3 C135_3 1_555 1_555
H158_3 C136_3 1_555 1_555
C137_3 C136_3 1_555 1_555
H159_3 C137_3 1_555 1_555
C138_3 C137_3 1_555 1_555
H160_3 C138_3 1_555 1_555
C139_3 C138_3 1_555 1_555
H161_3 C139_3 1_555 1_555
C140_3 C135_3 1_555 1_555
H162_3 C140_3 1_555 1_555
C149_3 N7_3 1_555 1_555
H172_3 C149_3 1_555 1_555
C150_3 C149_3 1_555 1_555
H173_3 C150_3 1_555 1_555
H174_3 C150_3 1_555 1_555
H175_3 C150_3 1_555 1_555
C151_3 C149_3 1_555 1_555
C152_3 C151_3 1_555 1_555
H176_3 C152_3 1_555 1_555
C153_3 C152_3 1_555 1_555
H177_3 C153_3 1_555 1_555
C154_3 C153_3 1_555 1_555
H178_3 C154_3 1_555 1_555
C155_3 C154_3 1_555 1_555
H179_3 C155_3 1_555 1_555
C156_3 C151_3 1_555 1_555
H180_3 C156_3 1_555 1_555
Zn4_2 O23_2 1_555 1_555
O27_2 Zn1_3 1_555 1_555
C8_3 C9_3 1_555 1_555
C37_3 C38_3 1_555 1_555
C83_3 C88_3 1_555 1_555
C84_3 C85_3 1_555 1_555
C104_3 C105_3 1_555 1_555
C106_3 C107_3 1_555 1_555
C123_3 C124_3 1_555 1_555
C139_3 C140_3 1_555 1_555
C155_3 C156_3 1_555 1_555
O14_3 H185_3 1_555 1_555
O7_4 C20_4 1_555 1_555
H13_4 C14_4 1_555 1_555
C15_4 C14_4 1_555 1_555
C18_4 C15_4 1_555 1_555
H17_4 C18_4 1_555 1_555
H18_4 C18_4 1_555 1_555
H19_4 C19_4 1_555 1_555
H20_4 C19_4 1_555 1_555
C20_4 C15_4 1_555 1_555
N5_4 C14_4 1_555 1_555
H35_4 N5_4 1_555 1_555
H80_4 C69_4 1_555 1_555
H81_4 C70_4 1_555 1_555
H104_4 C94_4 1_555 1_555
H105_4 C94_4 1_555 1_555
N12_4 C95_4 1_555 1_555
H126_4 N12_4 1_555 1_555
C120_4 C119_4 1_555 1_555
H140_4 C120_4 1_555 1_555
C121_4 C120_4 1_555 1_555
H141_4 C121_4 1_555 1_555
C122_4 C121_4 1_555 1_555
H142_4 C122_4 1_555 1_555
C126_4 C125_4 1_555 1_555
H146_4 C126_4 1_555 1_555
H147_4 C126_4 1_555 1_555
H148_4 C126_4 1_555 1_555
C127_4 C125_4 1_555 1_555
C128_4 C127_4 1_555 1_555
H149_4 C128_4 1_555 1_555
C129_4 C128_4 1_555 1_555
H150_4 C129_4 1_555 1_555
C130_4 C129_4 1_555 1_555
H151_4 C130_4 1_555 1_555
C131_4 C130_4 1_555 1_555
H152_4 C131_4 1_555 1_555
C132_4 C127_4 1_555 1_555
C18_4 C19_4 1_555 1_555
C69_4 C70_4 1_555 1_555
C94_4 C95_4 1_555 1_555
C131_4 C132_4 1_555 1_555
O7_4 H181_4 1_555 1_555
Zn6 O3_4 1_555 1_555
O5_4 Zn4_2 1_555 1_555
O6_4 C11_4 1_555 1_555
H8_4 C8_4 1_555 1_555
H9_4 C9_4 1_555 1_555
H10_4 C9_4 1_555 1_555
C11_4 O5_4 1_555 1_555
C12_4 C11_4 1_555 1_555
C13_4 C12_4 1_555 1_555
H11_4 C13_4 1_555 1_555
H12_4 C13_4 1_555 1_555
N2_4 C8_4 1_555 1_555
H32_4 N2_4 1_555 1_555
C31_4 N2_4 1_555 1_555
H37_4 C31_4 1_555 1_555
C32_4 C31_4 1_555 1_555
H38_4 C32_4 1_555 1_555
H39_4 C32_4 1_555 1_555
H40_4 C32_4 1_555 1_555
C33_4 C31_4 1_555 1_555
C34_4 C33_4 1_555 1_555
H41_4 C34_4 1_555 1_555
C35_4 C34_4 1_555 1_555
H42_4 C35_4 1_555 1_555
C36_4 C35_4 1_555 1_555
H43_4 C36_4 1_555 1_555
C37_4 C36_4 1_555 1_555
H44_4 C37_4 1_555 1_555
C38_4 C33_4 1_555 1_555
H45_4 C38_4 1_555 1_555
H73_4 C63_4 1_555 1_555
C64_4 C63_4 1_555 1_555
H74_4 C64_4 1_555 1_555
H76_4 C64_4 1_555 1_555
C65_4 C63_4 1_555 1_555
C66_4 C65_4 1_555 1_555
H77_4 C66_4 1_555 1_555
C67_4 C66_4 1_555 1_555
H78_4 C67_4 1_555 1_555
C68_4 C67_4 1_555 1_555
H79_4 C68_4 1_555 1_555
Zn5_2 O13_4 1_555 1_555
O13_4 C79_4 1_555 1_555
O14_4 C79_4 1_555 1_555
O16_4 C88_4 1_555 1_555
O21_4 C99_4 1_555 1_555
O22_4 Zn5_2 1_555 1_555
O28_2 C108_4 1_555 1_555
O24_4 C108_4 1_555 1_555
C79_4 C80_4 1_555 1_555
C80_4 C81_4 1_555 1_555
C81_4 H91_4 1_555 1_555
H92_4 C81_4 1_555 1_555
C82_4 C81_4 1_555 1_555
H93_4 C82_4 1_555 1_555
C83_4 C82_4 1_555 1_555
C84_4 C83_4 1_555 1_555
H94_4 C84_4 1_555 1_555
H95_4 C84_4 1_555 1_555
C85_4 C80_4 1_555 1_555
H96_4 C85_4 1_555 1_555
H97_4 C85_4 1_555 1_555
C99_4 O22_4 1_555 1_555
C100_4 C99_4 1_555 1_555
C101_4 C100_4 1_555 1_555
H111_4 C101_4 1_555 1_555
C102_4 C101_4 1_555 1_555
H112_4 C102_4 1_555 1_555
H113_4 C102_4 1_555 1_555
C103_4 C102_4 1_555 1_555
C104_4 C103_4 1_555 1_555
H114_4 C104_4 1_555 1_555
H115_4 C104_4 1_555 1_555
C105_4 C100_4 1_555 1_555
H116_4 C105_4 1_555 1_555
H117_4 C105_4 1_555 1_555
C106_4 C100_4 1_555 1_555
H118_4 C106_4 1_555 1_555
H119_4 C106_4 1_555 1_555
C107_4 C103_4 1_555 1_555
H120_4 C107_4 1_555 1_555
C108_4 C103_4 1_555 1_555
N7_4 C82_4 1_555 1_555
H121_4 N7_4 1_555 1_555
N9_4 C107_4 1_555 1_555
H123_4 N9_4 1_555 1_555
N10_4 C101_4 1_555 1_555
H124_4 N10_4 1_555 1_555
H136_4 C117_4 1_555 1_555
C118_4 C117_4 1_555 1_555
H137_4 C118_4 1_555 1_555
H138_4 C118_4 1_555 1_555
H143_4 C123_4 1_555 1_555
H144_4 C124_4 1_555 1_555
C133_4 N10_4 1_555 1_555
H154_4 C133_4 1_555 1_555
C134_4 C133_4 1_555 1_555
H155_4 C134_4 1_555 1_555
H156_4 C134_4 1_555 1_555
H157_4 C134_4 1_555 1_555
C135_4 C133_4 1_555 1_555
C136_4 C135_4 1_555 1_555
H158_4 C136_4 1_555 1_555
C137_4 C136_4 1_555 1_555
H159_4 C137_4 1_555 1_555
C138_4 C137_4 1_555 1_555
H160_4 C138_4 1_555 1_555
C139_4 C138_4 1_555 1_555
H161_4 C139_4 1_555 1_555
C140_4 C135_4 1_555 1_555
H162_4 C140_4 1_555 1_555
C149_4 N7_4 1_555 1_555
H172_4 C149_4 1_555 1_555
C150_4 C149_4 1_555 1_555
H173_4 C150_4 1_555 1_555
H174_4 C150_4 1_555 1_555
H175_4 C150_4 1_555 1_555
C151_4 C149_4 1_555 1_555
C152_4 C151_4 1_555 1_555
H176_4 C152_4 1_555 1_555
C153_4 C152_4 1_555 1_555
H177_4 C153_4 1_555 1_555
C154_4 C153_4 1_555 1_555
H178_4 C154_4 1_555 1_555
C155_4 C154_4 1_555 1_555
H179_4 C155_4 1_555 1_555
C156_4 C151_4 1_555 1_555
H180_4 C156_4 1_555 1_555
C8_4 C9_4 1_555 1_555
C37_4 C38_4 1_555 1_555
C83_4 C88_4 1_555 1_555
C84_4 C85_4 1_555 1_555
C104_4 C105_4 1_555 1_555
C106_4 C107_4 1_555 1_555
C123_4 C124_4 1_555 1_555
C139_4 C140_4 1_555 1_555
C155_4 C156_4 1_555 1_555
O14_4 H185_4 1_555 1_555
H14_4 C16_4 1_555 1_555
H15_4 C16_4 1_555 1_555
N6_4 C17_4 1_555 1_555
H36_4 N6_4 1_555 1_555
C42_4 C41_4 1_555 1_555
H50_4 C42_4 1_555 1_555
C43_4 C42_4 1_555 1_555
H51_4 C43_4 1_555 1_555
C44_4 C43_4 1_555 1_555
H52_4 C44_4 1_555 1_555
C48_4 C47_4 1_555 1_555
H56_4 C48_4 1_555 1_555
H57_4 C48_4 1_555 1_555
H58_4 C48_4 1_555 1_555
C49_4 C47_4 1_555 1_555
C50_4 C49_4 1_555 1_555
H59_4 C50_4 1_555 1_555
C51_4 C50_4 1_555 1_555
H60_4 C51_4 1_555 1_555
C52_4 C51_4 1_555 1_555
H61_4 C52_4 1_555 1_555
C53_4 C52_4 1_555 1_555
H62_4 C53_4 1_555 1_555
C54_4 C49_4 1_555 1_555
O19_4 C98_4 1_555 1_555
H103_4 C92_4 1_555 1_555
C93_4 C92_4 1_555 1_555
C96_4 C93_4 1_555 1_555
H107_4 C96_4 1_555 1_555
H108_4 C96_4 1_555 1_555
H109_4 C97_4 1_555 1_555
H110_4 C97_4 1_555 1_555
C98_4 C93_4 1_555 1_555
N11_4 C92_4 1_555 1_555
H125_4 N11_4 1_555 1_555
H170_4 C147_4 1_555 1_555
H171_4 C148_4 1_555 1_555
C16_4 C17_4 1_555 1_555
C53_4 C54_4 1_555 1_555
C96_4 C97_4 1_555 1_555
C147_4 C148_4 1_555 1_555
O19_4 H186_4 1_555 1_555
Zn4_3 O1_4 1_555 1_555
O1_4 C1_4 1_555 1_555
O2_4 C1_4 1_555 1_555
O4_4 C10_4 1_555 1_555
O9_4 C21_4 1_555 1_555
O10_4 Zn4_3 1_555 1_555
O27_2 C30_4 1_555 1_555
O12_4 C30_4 1_555 1_555
C1_4 C2_4 1_555 1_555
C2_4 C3_4 1_555 1_555
C3_4 H1_4 1_555 1_555
H2_4 C3_4 1_555 1_555
C4_4 C3_4 1_555 1_555
H3_4 C4_4 1_555 1_555
C5_4 C4_4 1_555 1_555
C6_4 C5_4 1_555 1_555
H4_4 C6_4 1_555 1_555
H5_4 C6_4 1_555 1_555
C7_4 C2_4 1_555 1_555
H6_4 C7_4 1_555 1_555
H7_4 C7_4 1_555 1_555
C10_4 C5_4 1_555 1_555
C21_4 O10_4 1_555 1_555
C22_4 C21_4 1_555 1_555
C23_4 C22_4 1_555 1_555
H21_4 C23_4 1_555 1_555
C24_4 C23_4 1_555 1_555
H22_4 C24_4 1_555 1_555
H23_4 C24_4 1_555 1_555
C25_4 C24_4 1_555 1_555
C26_4 C25_4 1_555 1_555
H24_4 C26_4 1_555 1_555
H25_4 C26_4 1_555 1_555
C27_4 C22_4 1_555 1_555
H26_4 C27_4 1_555 1_555
H27_4 C27_4 1_555 1_555
C28_4 C22_4 1_555 1_555
H28_4 C28_4 1_555 1_555
H29_4 C28_4 1_555 1_555
C29_4 C25_4 1_555 1_555
H30_4 C29_4 1_555 1_555
C30_4 C25_4 1_555 1_555
N1_4 C4_4 1_555 1_555
H31_4 N1_4 1_555 1_555
N3_4 C29_4 1_555 1_555
H33_4 N3_4 1_555 1_555
N4_4 C23_4 1_555 1_555
H34_4 N4_4 1_555 1_555
H46_4 C39_4 1_555 1_555
C40_4 C39_4 1_555 1_555
H47_4 C40_4 1_555 1_555
H48_4 C40_4 1_555 1_555
H53_4 C45_4 1_555 1_555
H54_4 C46_4 1_555 1_555
C55_4 N4_4 1_555 1_555
H64_4 C55_4 1_555 1_555
C56_4 C55_4 1_555 1_555
H65_4 C56_4 1_555 1_555
H66_4 C56_4 1_555 1_555
H67_4 C56_4 1_555 1_555
C57_4 C55_4 1_555 1_555
C58_4 C57_4 1_555 1_555
H68_4 C58_4 1_555 1_555
C59_4 C58_4 1_555 1_555
H69_4 C59_4 1_555 1_555
C60_4 C59_4 1_555 1_555
H70_4 C60_4 1_555 1_555
C61_4 C60_4 1_555 1_555
H71_4 C61_4 1_555 1_555
C62_4 C57_4 1_555 1_555
H72_4 C62_4 1_555 1_555
C71_4 N1_4 1_555 1_555
H82_4 C71_4 1_555 1_555
C72_4 C71_4 1_555 1_555
H83_4 C72_4 1_555 1_555
H84_4 C72_4 1_555 1_555
H85_4 C72_4 1_555 1_555
C73_4 C71_4 1_555 1_555
C74_4 C73_4 1_555 1_555
H86_4 C74_4 1_555 1_555
C75_4 C74_4 1_555 1_555
H87_4 C75_4 1_555 1_555
C76_4 C75_4 1_555 1_555
H88_4 C76_4 1_555 1_555
C77_4 C76_4 1_555 1_555
H89_4 C77_4 1_555 1_555
C78_4 C73_4 1_555 1_555
H90_4 C78_4 1_555 1_555
O15_4 Zn6_2 1_555 1_555
O17_4 Zn5_3 1_555 1_555
O18_4 C89_4 1_555 1_555
H98_4 C86_4 1_555 1_555
H99_4 C87_4 1_555 1_555
H100_4 C87_4 1_555 1_555
C89_4 O17_4 1_555 1_555
C90_4 C89_4 1_555 1_555
C91_4 C90_4 1_555 1_555
H101_4 C91_4 1_555 1_555
H102_4 C91_4 1_555 1_555
N8_4 C86_4 1_555 1_555
H122_4 N8_4 1_555 1_555
C109_4 N8_4 1_555 1_555
H127_4 C109_4 1_555 1_555
C110_4 C109_4 1_555 1_555
H128_4 C110_4 1_555 1_555
H129_4 C110_4 1_555 1_555
H130_4 C110_4 1_555 1_555
C111_4 C109_4 1_555 1_555
C112_4 C111_4 1_555 1_555
H131_4 C112_4 1_555 1_555
C113_4 C112_4 1_555 1_555
H132_4 C113_4 1_555 1_555
C114_4 C113_4 1_555 1_555
H133_4 C114_4 1_555 1_555
C115_4 C114_4 1_555 1_555
H134_4 C115_4 1_555 1_555
C116_4 C111_4 1_555 1_555
H135_4 C116_4 1_555 1_555
H163_4 C141_4 1_555 1_555
C142_4 C141_4 1_555 1_555
H164_4 C142_4 1_555 1_555
H166_4 C142_4 1_555 1_555
C143_4 C141_4 1_555 1_555
C144_4 C143_4 1_555 1_555
H167_4 C144_4 1_555 1_555
C145_4 C144_4 1_555 1_555
H168_4 C145_4 1_555 1_555
C146_4 C145_4 1_555 1_555
H169_4 C146_4 1_555 1_555
C6_4 C7_4 1_555 1_555
C26_4 C27_4 1_555 1_555
C28_4 C29_4 1_555 1_555
C45_4 C46_4 1_555 1_555
C61_4 C62_4 1_555 1_555
C77_4 C78_4 1_555 1_555
C86_4 C87_4 1_555 1_555
C115_4 C116_4 1_555 1_555
O2_4 H182_4 1_555 1_555

#END
