
###############################################################################
#
# This file contains modified crystal structure data generated from the
# MOF subset of the Cambridge Structural Database (CSD) v543 
# hosted by the Cambridge Crystallographic Data Centre (CCDC).
#
# This work is licensed under the Creative Commons
# Attribution-NonCommercial-ShareAlike 4.0 International License.
# To view a copy of this license, visit
# http://creativecommons.org/licenses/by-nc-sa/4.0/
# or send a letter to
# Creative Commons, PO Box 1866, Mountain View, CA 94042, USA.
#
# CIF created using the CSD Python API on 29 September 2022
# The structure has been converted into the P1 space group
# The structure has a 3D framework
# The original CSD entry MAPLEX is in the monoclinic crystal system
# The framework has been calculated to contain at least 10.0% void space
# The void calculation uses a probe of radius 1.32A, grid spacing 0.4
# The framework is charged, counterions have been retained in the structure
# H atom positions have been added when not included in the experimental data
#
###############################################################################

data_MAPLEX
_chemical_formula_moiety         '(C168 H88 Eu8 N8 O68 4-)n'
_symmetry_cell_setting           triclinic
_symmetry_space_group_name_H-M   'P 1'
_symmetry_Int_Tables_number      1
_space_group_name_Hall           'P 1'
loop_
_symmetry_equiv_pos_site_id
_symmetry_equiv_pos_as_xyz
1 x,y,z
_cell_length_a                   19.6675(3)
_cell_length_b                   11.9457(2)
_cell_length_c                   21.9773(4)
_cell_angle_alpha                90
_cell_angle_beta                 97.166(2)
_cell_angle_gamma                90
_cell_volume                     5123.06
loop_
_atom_site_label
_atom_site_type_symbol
_atom_site_fract_x
_atom_site_fract_y
_atom_site_fract_z
O1 O 0.30013(17) 0.1561(3) 0.01561(14)
O3 O 0.24169(17) 0.0007(3) 0.02346(16)
O6 O 0.39671(19) 0.5087(3) 0.01344(16)
C10 C 0.4163(3) 0.0044(4) 0.0570(2)
H4 H 0.4158 0.0675 0.0833
C17 C 0.2967(2) 0.0495(4) 0.0170(2)
Eu4 Eu 0.168447(12) 0.17011(2) 0.025682(11)
O11 O 0.32206(16) 0.3642(3) 0.08155(14)
O13 O 0.44864(17) 0.2787(3) 0.02269(16)
H10 H 0.444369 0.488865 0.0303609
Eu1 Eu 0.331553(12) 0.32989(2) 0.974318(11)
O2 O 0.17794(16) 0.1358(3) 0.91845(14)
O4 O 0.26671(16) 0.2331(3) 0.89176(14)
C1 C 0.1643(3) 0.1732(4) 0.7111(2)
H1 H 0.1514 0.2286 0.6808
O9 O 0.09562(19) 0.0907(3) 0.59829(15)
C3 C 0.2184(2) 0.1665(4) 0.8814(2)
C7 C 0.1344(2) 0.0244(4) 0.6308(2)
C9 C 0.2035(2) 0.1239(4) 0.8163(2)
C12 C 0.2011(2) 0.0105(4) 0.8012(2)
C16 C 0.1872(3) 0.2049(4) 0.7707(2)
H7 H 0.1920 0.2821 0.7807
C20 C 0.1602(2) 0.0603(4) 0.6955(2)
O10 O 0.19987(17) 0.3439(3) 0.98439(14)
O12 O 0.25831(17) 0.4993(3) 0.97654(16)
O14 O 0.3485(2) 0.4288(3) 0.88567(15)
O15 O 0.41607(19) 0.2151(4) 0.93028(16)
H11 H 0.397617 0.562169 0.978955
O8 O 0.58393(19) 0.7849(4) 0.06972(16)
C4 C 0.4761(2) 0.8473(4) 0.0210(2)
C8 C 0.3591(2) 0.9814(4) 0.0139(2)
C11 C 0.5403(3) 0.7796(4) 0.0227(2)
C15 C 0.4736(3) 0.9354(4) 0.0616(2)
H6 H 0.5111 0.9488 0.0924
Eu3 Eu 0.668447(12) 0.67011(2) 0.025682(11)
O5 O 0.55136(17) 0.7213(3) 0.97731(16)
O7 O 0.1515(2) 0.9288(3) 0.61433(15)
C2 C 0.1883(3) 0.8184(4) 0.8455(2)
H2 H 0.1491 0.8056 0.8165
C5 C 0.4201(3) 0.8250(4) 0.9770(2)
H3 H 0.4223 0.7651 0.9489
N1 N 0.2768(2) 0.9451(3) 0.88923(18)
C6 C 0.2998(2) 0.8637(4) 0.9284(2)
C13 C 0.2225(3) 0.9214(4) 0.8474(2)
C14 C 0.1801(2) 0.9797(4) 0.7402(2)
H5 H 0.1794 0.9028 0.7291
C18 C 0.3605(2) 0.8909(4) 0.9742(2)
C19 C 0.2128(2) 0.7356(4) 0.8865(2)
H8 H 0.1907 0.6649 0.8862
C21 C 0.2700(3) 0.7576(4) 0.9281(2)
H9 H 0.2888 0.7014 0.9559
Eu2 Eu 0.168447(12) 0.82989(2) 0.525682(11)
Eu1_2 Eu 0.668447(12) 0.32989(2) 0.525682(11)
O1_2 O 0.69987(17) 0.1561(3) 0.48439(14)
O2_2 O 0.82206(16) 0.1358(3) 0.58155(14)
O3_2 O 0.75831(17) 0.0007(3) 0.47654(16)
O4_2 O 0.73329(16) 0.2331(3) 0.60824(14)
O6_2 O 0.60329(19) 0.5087(3) 0.48656(16)
C1_2 C 0.8357(3) 0.1732(4) 0.7889(2)
H1_2 H 0.8486 0.2286 0.8192
O9_2 O 0.90438(19) 0.0907(3) 0.90171(15)
C3_2 C 0.7816(2) 0.1665(4) 0.6186(2)
C7_2 C 0.8656(2) 0.0244(4) 0.8692(2)
C9_2 C 0.7965(2) 0.1239(4) 0.6837(2)
C10_2 C 0.5837(3) 0.0044(4) 0.4430(2)
H4_2 H 0.5842 0.0675 0.4167
C12_2 C 0.7989(2) 0.0105(4) 0.6988(2)
C16_2 C 0.8128(3) 0.2049(4) 0.7293(2)
H7_2 H 0.8080 0.2821 0.7193
C17_2 C 0.7033(2) 0.0495(4) 0.4830(2)
C20_2 C 0.8398(2) 0.0603(4) 0.8045(2)
Eu4_2 Eu 0.831553(12) 0.17011(2) 0.474318(11)
O10_2 O 0.80013(17) 0.3439(3) 0.51561(14)
O11_2 O 0.67794(16) 0.3642(3) 0.41845(14)
O12_2 O 0.74169(17) 0.4993(3) 0.52346(16)
O13_2 O 0.55136(17) 0.2787(3) 0.47731(16)
O14_2 O 0.6515(2) 0.4288(3) 0.61433(15)
O15_2 O 0.58393(19) 0.2151(4) 0.56972(16)
H10_2 H 0.555631 0.488865 0.469639
H11_2 H 0.602383 0.562169 0.521045
O5_2 O 0.44864(17) 0.7213(3) 0.52269(16)
O7_2 O 0.8485(2) 0.9288(3) 0.88567(15)
O8_2 O 0.41607(19) 0.7849(4) 0.43028(16)
C2_2 C 0.8117(3) 0.8184(4) 0.6545(2)
H2_2 H 0.8509 0.8056 0.6835
C4_2 C 0.5239(2) 0.8473(4) 0.4790(2)
C5_2 C 0.5799(3) 0.8250(4) 0.5230(2)
H3_2 H 0.5777 0.7651 0.5511
N1_2 N 0.7232(2) 0.9451(3) 0.61077(18)
C6_2 C 0.7002(2) 0.8637(4) 0.5716(2)
C8_2 C 0.6409(2) 0.9814(4) 0.4861(2)
C11_2 C 0.4597(3) 0.7796(4) 0.4773(2)
C13_2 C 0.7775(3) 0.9214(4) 0.6526(2)
C14_2 C 0.8199(2) 0.9797(4) 0.7598(2)
H5_2 H 0.8206 0.9028 0.7709
C15_2 C 0.5264(3) 0.9354(4) 0.4384(2)
H6_2 H 0.4889 0.9488 0.4076
C18_2 C 0.6395(2) 0.8909(4) 0.5258(2)
C19_2 C 0.7872(2) 0.7356(4) 0.6135(2)
H8_2 H 0.8093 0.6649 0.6138
C21_2 C 0.7300(3) 0.7576(4) 0.5719(2)
H9_2 H 0.7112 0.7014 0.5441
Eu2_2 Eu 0.831553(12) 0.82989(2) 0.974318(11)
Eu3_2 Eu 0.331553(12) 0.67011(2) 0.474318(11)
O8_3 O 0.08393(19) 0.2849(4) 0.06972(16)
C11_3 C 0.0403(3) 0.2796(4) 0.0227(2)
H6_3 H 0.0111 0.4488 0.0924
O5_3 O 0.05136(17) 0.2213(3) 0.97731(16)
O1_3 O 0.80013(17) 0.6561(3) 0.01561(14)
O3_3 O 0.74169(17) 0.5007(3) 0.02346(16)
C4_3 C 0.9761(2) 0.3473(4) 0.0210(2)
C8_3 C 0.8591(2) 0.4814(4) 0.0139(2)
C10_3 C 0.9163(3) 0.5044(4) 0.0570(2)
H4_3 H 0.9158 0.5675 0.0833
C15_3 C 0.9736(3) 0.4354(4) 0.0616(2)
C17_3 C 0.7967(2) 0.5495(4) 0.0170(2)
O11_3 O 0.82206(16) 0.8642(3) 0.08155(14)
O13_3 O 0.94864(17) 0.7787(3) 0.02269(16)
H10_3 H 0.944369 0.988865 0.0303609
O2_3 O 0.67794(16) 0.6358(3) 0.91845(14)
O4_3 O 0.76671(16) 0.7331(3) 0.89176(14)
C1_3 C 0.6643(3) 0.6732(4) 0.7111(2)
H1_3 H 0.6514 0.7286 0.6808
C2_3 C 0.6883(3) 0.3184(4) 0.8455(2)
H2_3 H 0.6491 0.3056 0.8165
O9_3 O 0.59562(19) 0.5907(3) 0.59829(15)
C3_3 C 0.7184(2) 0.6665(4) 0.8814(2)
C5_3 C 0.9201(3) 0.3250(4) 0.9770(2)
H3_3 H 0.9223 0.2651 0.9489
N1_3 N 0.7768(2) 0.4451(3) 0.88923(18)
C6_3 C 0.7998(2) 0.3637(4) 0.9284(2)
C7_3 C 0.6344(2) 0.5244(4) 0.6308(2)
C9_3 C 0.7035(2) 0.6239(4) 0.8163(2)
C12_3 C 0.7011(2) 0.5105(4) 0.8012(2)
C13_3 C 0.7225(3) 0.4214(4) 0.8474(2)
C14_3 C 0.6801(2) 0.4797(4) 0.7402(2)
H5_3 H 0.6794 0.4028 0.7291
C16_3 C 0.6872(3) 0.7049(4) 0.7707(2)
H7_3 H 0.6920 0.7821 0.7807
C18_3 C 0.8605(2) 0.3909(4) 0.9742(2)
C19_3 C 0.7128(2) 0.2356(4) 0.8865(2)
H8_3 H 0.6907 0.1649 0.8862
C20_3 C 0.6602(2) 0.5603(4) 0.6955(2)
C21_3 C 0.7700(3) 0.2576(4) 0.9281(2)
H9_3 H 0.7888 0.2014 0.9559
O10_3 O 0.69987(17) 0.8439(3) 0.98439(14)
O12_3 O 0.75831(17) 0.9993(3) 0.97654(16)
O15_3 O 0.91607(19) 0.7151(4) 0.93028(16)
O1_4 O 0.19987(17) 0.6561(3) 0.48439(14)
O2_4 O 0.32206(16) 0.6358(3) 0.58155(14)
O3_4 O 0.25831(17) 0.5007(3) 0.47654(16)
O4_4 O 0.23329(16) 0.7331(3) 0.60824(14)
C1_4 C 0.3357(3) 0.6732(4) 0.7889(2)
H1_4 H 0.3486 0.7286 0.8192
C2_4 C 0.3117(3) 0.3184(4) 0.6545(2)
H2_4 H 0.3509 0.3056 0.6835
O9_4 O 0.40438(19) 0.5907(3) 0.90171(15)
C3_4 C 0.2816(2) 0.6665(4) 0.6186(2)
C4_4 C 0.0239(2) 0.3473(4) 0.4790(2)
C5_4 C 0.0799(3) 0.3250(4) 0.5230(2)
H3_4 H 0.0777 0.2651 0.5511
N1_4 N 0.2232(2) 0.4451(3) 0.61077(18)
C6_4 C 0.2002(2) 0.3637(4) 0.5716(2)
C7_4 C 0.3656(2) 0.5244(4) 0.8692(2)
C8_4 C 0.1409(2) 0.4814(4) 0.4861(2)
C9_4 C 0.2965(2) 0.6239(4) 0.6837(2)
C10_4 C 0.0837(3) 0.5044(4) 0.4430(2)
H4_4 H 0.0842 0.5675 0.4167
C12_4 C 0.2989(2) 0.5105(4) 0.6988(2)
C13_4 C 0.2775(3) 0.4214(4) 0.6526(2)
C14_4 C 0.3199(2) 0.4797(4) 0.7598(2)
H5_4 H 0.3206 0.4028 0.7709
C15_4 C 0.0264(3) 0.4354(4) 0.4384(2)
C16_4 C 0.3128(3) 0.7049(4) 0.7293(2)
H7_4 H 0.3080 0.7821 0.7193
C17_4 C 0.2033(2) 0.5495(4) 0.4830(2)
C18_4 C 0.1395(2) 0.3909(4) 0.5258(2)
C19_4 C 0.2872(2) 0.2356(4) 0.6135(2)
H8_4 H 0.3093 0.1649 0.6138
C20_4 C 0.3398(2) 0.5603(4) 0.8045(2)
C21_4 C 0.2300(3) 0.2576(4) 0.5719(2)
H9_4 H 0.2112 0.2014 0.5441
O10_4 O 0.30013(17) 0.8439(3) 0.51561(14)
O11_4 O 0.17794(16) 0.8642(3) 0.41845(14)
O12_4 O 0.24169(17) 0.9993(3) 0.52346(16)
O13_4 O 0.05136(17) 0.7787(3) 0.47731(16)
O15_4 O 0.08393(19) 0.7151(4) 0.56972(16)
H10_4 H 0.0556315 0.988865 0.469639
O5_4 O 0.94864(17) 0.2213(3) 0.52269(16)
O8_4 O 0.91607(19) 0.2849(4) 0.43028(16)
C11_4 C 0.9597(3) 0.2796(4) 0.4773(2)
H6_4 H 0.9889 0.4488 0.4076
O7_3 O 0.8485(2) 0.0712(3) 0.38567(15)
C2_5 C 0.8117(3) 0.1816(4) 0.1545(2)
H2_5 H 0.8509 0.1944 0.1835
C5_5 C 0.5799(3) 0.1750(4) 0.0230(2)
H3_5 H 0.5777 0.2349 0.0511
N1_5 N 0.7232(2) 0.0549(3) 0.11077(18)
C6_5 C 0.7002(2) 0.1363(4) 0.0716(2)
C13_5 C 0.7775(3) 0.0786(4) 0.1526(2)
C14_5 C 0.8199(2) 0.0203(4) 0.2598(2)
H5_5 H 0.8206 0.0972 0.2709
C18_5 C 0.6395(2) 0.1091(4) 0.0258(2)
C19_5 C 0.7872(2) 0.2644(4) 0.1135(2)
H8_5 H 0.8093 0.3351 0.1138
C21_5 C 0.7300(3) 0.2424(4) 0.0719(2)
H9_5 H 0.7112 0.2986 0.0441
C4_5 C 0.5239(2) 0.1527(4) 0.9790(2)
C8_5 C 0.6409(2) 0.0186(4) 0.9861(2)
C11_5 C 0.4597(3) 0.2204(4) 0.9773(2)
C15_5 C 0.5264(3) 0.0646(4) 0.9384(2)
H6_5 H 0.4889 0.0512 0.9076
O4_5 O 0.73329(16) 0.7669(3) 0.10824(14)
C1_5 C 0.8357(3) 0.8268(4) 0.2889(2)
H1_5 H 0.8486 0.7714 0.3192
O9_5 O 0.90438(19) 0.9093(3) 0.40171(15)
C3_5 C 0.7816(2) 0.8335(4) 0.1186(2)
C7_5 C 0.8656(2) 0.9756(4) 0.3692(2)
C9_5 C 0.7965(2) 0.8761(4) 0.1837(2)
C12_5 C 0.7989(2) 0.9895(4) 0.1988(2)
C16_5 C 0.8128(3) 0.7951(4) 0.2293(2)
H7_5 H 0.8080 0.7179 0.2193
C20_5 C 0.8398(2) 0.9397(4) 0.3045(2)
O14_3 O 0.6515(2) 0.5712(3) 0.11433(15)
H11_3 H 0.602383 0.437831 0.0210448
O6_3 O 0.60329(19) 0.4913(3) 0.98656(16)
C10_5 C 0.5837(3) 0.9956(4) 0.9430(2)
H4_5 H 0.5842 0.9325 0.9167
C17_5 C 0.7033(2) 0.9505(4) 0.9830(2)
H10_5 H 0.555631 0.511135 0.969639
O7_4 O 0.1515(2) 0.0712(3) 0.11433(15)
C2_6 C 0.1883(3) 0.1816(4) 0.3455(2)
H2_6 H 0.1491 0.1944 0.3165
C4_6 C 0.4761(2) 0.1527(4) 0.5210(2)
C5_6 C 0.4201(3) 0.1750(4) 0.4770(2)
H3_6 H 0.4223 0.2349 0.4489
N1_6 N 0.2768(2) 0.0549(3) 0.38923(18)
C6_6 C 0.2998(2) 0.1363(4) 0.4284(2)
C8_6 C 0.3591(2) 0.0186(4) 0.5139(2)
C11_6 C 0.5403(3) 0.2204(4) 0.5227(2)
C13_6 C 0.2225(3) 0.0786(4) 0.3474(2)
C14_6 C 0.1801(2) 0.0203(4) 0.2402(2)
H5_6 H 0.1794 0.0972 0.2291
C15_6 C 0.4736(3) 0.0646(4) 0.5616(2)
H6_6 H 0.5111 0.0512 0.5924
C18_6 C 0.3605(2) 0.1091(4) 0.4742(2)
C19_6 C 0.2128(2) 0.2644(4) 0.3865(2)
H8_6 H 0.1907 0.3351 0.3862
C21_6 C 0.2700(3) 0.2424(4) 0.4281(2)
H9_6 H 0.2888 0.2986 0.4559
O4_6 O 0.26671(16) 0.7669(3) 0.39176(14)
O6_4 O 0.39671(19) 0.4913(3) 0.51344(16)
C1_6 C 0.1643(3) 0.8268(4) 0.2111(2)
H1_6 H 0.1514 0.7714 0.1808
O9_6 O 0.09562(19) 0.9093(3) 0.09829(15)
C3_6 C 0.2184(2) 0.8335(4) 0.3814(2)
C7_6 C 0.1344(2) 0.9756(4) 0.1308(2)
C9_6 C 0.2035(2) 0.8761(4) 0.3163(2)
C10_6 C 0.4163(3) 0.9956(4) 0.5570(2)
H4_6 H 0.4158 0.9325 0.5833
C12_6 C 0.2011(2) 0.9895(4) 0.3012(2)
C16_6 C 0.1872(3) 0.7951(4) 0.2707(2)
H7_6 H 0.1920 0.7179 0.2807
C17_6 C 0.2967(2) 0.9505(4) 0.5170(2)
C20_6 C 0.1602(2) 0.9397(4) 0.1955(2)
O14_4 O 0.3485(2) 0.5712(3) 0.38567(15)
H10_6 H 0.444369 0.511135 0.530361
H11_4 H 0.397617 0.437831 0.478955
O4_7 O 0.23329(16) 0.2669(3) 0.10824(14)
C1_7 C 0.3357(3) 0.3268(4) 0.2889(2)
H1_7 H 0.3486 0.2714 0.3192
C2_7 C 0.3117(3) 0.6816(4) 0.1545(2)
H2_7 H 0.3509 0.6944 0.1835
O9_7 O 0.40438(19) 0.4093(3) 0.40171(15)
C3_7 C 0.2816(2) 0.3335(4) 0.1186(2)
C5_7 C 0.0799(3) 0.6750(4) 0.0230(2)
H3_7 H 0.0777 0.7349 0.0511
N1_7 N 0.2232(2) 0.5549(3) 0.11077(18)
C6_7 C 0.2002(2) 0.6363(4) 0.0716(2)
C7_7 C 0.3656(2) 0.4756(4) 0.3692(2)
C9_7 C 0.2965(2) 0.3761(4) 0.1837(2)
C12_7 C 0.2989(2) 0.4895(4) 0.1988(2)
C13_7 C 0.2775(3) 0.5786(4) 0.1526(2)
C14_7 C 0.3199(2) 0.5203(4) 0.2598(2)
H5_7 H 0.3206 0.5972 0.2709
C16_7 C 0.3128(3) 0.2951(4) 0.2293(2)
H7_7 H 0.3080 0.2179 0.2193
C18_7 C 0.1395(2) 0.6091(4) 0.0258(2)
C19_7 C 0.2872(2) 0.7644(4) 0.1135(2)
H8_7 H 0.3093 0.8351 0.1138
C20_7 C 0.3398(2) 0.4397(4) 0.3045(2)
C21_7 C 0.2300(3) 0.7424(4) 0.0719(2)
H9_7 H 0.2112 0.7986 0.0441
C4_7 C 0.0239(2) 0.6527(4) 0.9790(2)
C8_7 C 0.1409(2) 0.5186(4) 0.9861(2)
C10_7 C 0.0837(3) 0.4956(4) 0.9430(2)
H4_7 H 0.0842 0.4325 0.9167
C15_7 C 0.0264(3) 0.5646(4) 0.9384(2)
C17_7 C 0.2033(2) 0.4505(4) 0.9830(2)
H10_7 H 0.0556315 0.0111354 0.969639
C11_7 C 0.9597(3) 0.7204(4) 0.9773(2)
H6_7 H 0.9889 0.5512 0.9076
C11_8 C 0.0403(3) 0.7204(4) 0.5227(2)
H6_8 H 0.0111 0.5512 0.5924
O4_8 O 0.76671(16) 0.2669(3) 0.39176(14)
C1_8 C 0.6643(3) 0.3268(4) 0.2111(2)
H1_8 H 0.6514 0.2714 0.1808
C2_8 C 0.6883(3) 0.6816(4) 0.3455(2)
H2_8 H 0.6491 0.6944 0.3165
O9_8 O 0.59562(19) 0.4093(3) 0.09829(15)
C3_8 C 0.7184(2) 0.3335(4) 0.3814(2)
C4_8 C 0.9761(2) 0.6527(4) 0.5210(2)
C5_8 C 0.9201(3) 0.6750(4) 0.4770(2)
H3_8 H 0.9223 0.7349 0.4489
N1_8 N 0.7768(2) 0.5549(3) 0.38923(18)
C6_8 C 0.7998(2) 0.6363(4) 0.4284(2)
C7_8 C 0.6344(2) 0.4756(4) 0.1308(2)
C8_8 C 0.8591(2) 0.5186(4) 0.5139(2)
C9_8 C 0.7035(2) 0.3761(4) 0.3163(2)
C10_8 C 0.9163(3) 0.4956(4) 0.5570(2)
H4_8 H 0.9158 0.4325 0.5833
C12_8 C 0.7011(2) 0.4895(4) 0.3012(2)
C13_8 C 0.7225(3) 0.5786(4) 0.3474(2)
C14_8 C 0.6801(2) 0.5203(4) 0.2402(2)
H5_8 H 0.6794 0.5972 0.2291
C15_8 C 0.9736(3) 0.5646(4) 0.5616(2)
C16_8 C 0.6872(3) 0.2951(4) 0.2707(2)
H7_8 H 0.6920 0.2179 0.2807
C17_8 C 0.7967(2) 0.4505(4) 0.5170(2)
C18_8 C 0.8605(2) 0.6091(4) 0.4742(2)
C19_8 C 0.7128(2) 0.7644(4) 0.3865(2)
H8_8 H 0.6907 0.8351 0.3862
C20_8 C 0.6602(2) 0.4397(4) 0.1955(2)
C21_8 C 0.7700(3) 0.7424(4) 0.4281(2)
H9_8 H 0.7888 0.7986 0.4559
H10_8 H 0.944369 0.0111354 0.530361
O6_5 O 0.89671(19) 0.0087(3) 0.01344(16)
H11_5 H 0.897617 0.0621693 0.978955
O6_6 O 0.10329(19) 0.0087(3) 0.48656(16)
H11_6 H 0.102383 0.0621693 0.521045
H11_7 H 0.102383 0.937831 0.0210448
O6_7 O 0.10329(19) 0.9913(3) 0.98656(16)
O6_8 O 0.89671(19) 0.9913(3) 0.51344(16)
H11_8 H 0.897617 0.937831 0.478955
loop_
_geom_bond_atom_site_label_1
_geom_bond_atom_site_label_2
_geom_bond_site_symmetry_1
_geom_bond_site_symmetry_2
O1 C17 1_555 1_555
O3 C17 1_555 1_555
C10 H4 1_555 1_555
Eu4 O1 1_555 1_555
O3 Eu4 1_555 1_555
O6 H10 1_555 1_555
O2 C3 1_555 1_555
O4 Eu1 1_555 1_555
C1 H1 1_555 1_555
O9 C7 1_555 1_555
C3 O4 1_555 1_555
C7 C20 1_555 1_555
C9 C3 1_555 1_555
C12 C9 1_555 1_555
C16 C1 1_555 1_555
H7 C16 1_555 1_555
C20 C1 1_555 1_555
O10 Eu1 1_555 1_555
O12 Eu1 1_555 1_555
O14 Eu1 1_555 1_555
O15 Eu1 1_555 1_555
C9 C16 1_555 1_555
O8 C11 1_555 1_555
C11 C4 1_555 1_555
C15 C4 1_555 1_555
H6 C15 1_555 1_555
O8 Eu3 1_555 1_555
C2 H2 1_555 1_555
C5 H3 1_555 1_555
N1 C6 1_555 1_555
C6 C18 1_555 1_555
C13 C2 1_555 1_555
H5 C14 1_555 1_555
C18 C5 1_555 1_555
C19 C2 1_555 1_555
H8 C19 1_555 1_555
C21 C6 1_555 1_555
H9 C21 1_555 1_555
Eu2 O7 1_555 1_555
N1 C13 1_555 1_555
C19 C21 1_555 1_555
Eu1_2 O1_2 1_555 1_555
O1_2 C17_2 1_555 1_555
O2_2 C3_2 1_555 1_555
O3_2 C17_2 1_555 1_555
O4_2 Eu1_2 1_555 1_555
O6_2 Eu1_2 1_555 1_555
C1_2 H1_2 1_555 1_555
O9_2 C7_2 1_555 1_555
C3_2 O4_2 1_555 1_555
C7_2 C20_2 1_555 1_555
C9_2 C3_2 1_555 1_555
C10_2 H4_2 1_555 1_555
C12_2 C9_2 1_555 1_555
C16_2 C1_2 1_555 1_555
H7_2 C16_2 1_555 1_555
C20_2 C1_2 1_555 1_555
Eu4_2 O1_2 1_555 1_555
O10_2 Eu1_2 1_555 1_555
O11_2 Eu1_2 1_555 1_555
O12_2 Eu1_2 1_555 1_555
O13_2 Eu1_2 1_555 1_555
O14_2 Eu1_2 1_555 1_555
O15_2 Eu1_2 1_555 1_555
O2_2 Eu4_2 1_555 1_555
O3_2 Eu4_2 1_555 1_555
C9_2 C16_2 1_555 1_555
Eu4_2 O10_2 1_555 1_555
O6_2 H10_2 1_555 1_555
O6_2 H11_2 1_555 1_555
O5_2 C11_2 1_555 1_555
O8_2 C11_2 1_555 1_555
C2_2 H2_2 1_555 1_555
C4_2 C5_2 1_555 1_555
C5_2 H3_2 1_555 1_555
N1_2 C6_2 1_555 1_555
C6_2 C18_2 1_555 1_555
C11_2 C4_2 1_555 1_555
C13_2 C2_2 1_555 1_555
H5_2 C14_2 1_555 1_555
C15_2 C4_2 1_555 1_555
H6_2 C15_2 1_555 1_555
C18_2 C5_2 1_555 1_555
C19_2 C2_2 1_555 1_555
H8_2 C19_2 1_555 1_555
C21_2 C6_2 1_555 1_555
H9_2 C21_2 1_555 1_555
Eu2_2 O7_2 1_555 1_555
Eu3_2 O5_2 1_555 1_555
O8_2 Eu3_2 1_555 1_555
N1_2 C13_2 1_555 1_555
C8_2 C18_2 1_555 1_555
C19_2 C21_2 1_555 1_555
O8_3 C11_3 1_555 1_555
O8_3 Eu4 1_555 1_555
O1_3 C17_3 1_555 1_555
O3_3 C17_3 1_555 1_555
C8_3 C10_3 1_555 1_555
C10_3 H4_3 1_555 1_555
C15_3 C4_3 1_555 1_555
C17_3 C8_3 1_555 1_555
Eu3 O1_3 1_555 1_555
O3_3 Eu3 1_555 1_555
C10_3 C15_3 1_555 1_555
O2_3 C3_3 1_555 1_555
O4_3 Eu2_2 1_555 1_555
C1_3 H1_3 1_555 1_555
O14_2 C7_3 1_555 1_555
C2_3 H2_3 1_555 1_555
O9_3 C7_3 1_555 1_555
C3_3 O4_3 1_555 1_555
C5_3 H3_3 1_555 1_555
N1_3 C6_3 1_555 1_555
C6_3 C18_3 1_555 1_555
C7_3 C20_3 1_555 1_555
C9_3 C3_3 1_555 1_555
C12_3 C9_3 1_555 1_555
C13_3 C2_3 1_555 1_555
C14_3 C12_3 1_555 1_555
H5_3 C14_3 1_555 1_555
C16_3 C1_3 1_555 1_555
H7_3 C16_3 1_555 1_555
C18_3 C5_3 1_555 1_555
C19_3 C2_3 1_555 1_555
H8_3 C19_3 1_555 1_555
C20_3 C1_3 1_555 1_555
C21_3 C6_3 1_555 1_555
H9_3 C21_3 1_555 1_555
O10_3 Eu2_2 1_555 1_555
O12_3 Eu2_2 1_555 1_555
O15_3 Eu2_2 1_555 1_555
N1_3 C13_3 1_555 1_555
C9_3 C16_3 1_555 1_555
C12_3 C13_3 1_555 1_555
C14_3 C20_3 1_555 1_555
C19_3 C21_3 1_555 1_555
Eu2 O1_4 1_555 1_555
O1_4 C17_4 1_555 1_555
O2_4 C3_4 1_555 1_555
O3_4 C17_4 1_555 1_555
O4_4 Eu2 1_555 1_555
C1_4 H1_4 1_555 1_555
O14 C7_4 1_555 1_555
C2_4 H2_4 1_555 1_555
O9_4 C7_4 1_555 1_555
C3_4 O4_4 1_555 1_555
C4_4 C5_4 1_555 1_555
C5_4 H3_4 1_555 1_555
N1_4 C6_4 1_555 1_555
C6_4 C18_4 1_555 1_555
C7_4 C20_4 1_555 1_555
C8_4 C10_4 1_555 1_555
C9_4 C3_4 1_555 1_555
C10_4 H4_4 1_555 1_555
C12_4 C9_4 1_555 1_555
C13_4 C2_4 1_555 1_555
C14_4 C12_4 1_555 1_555
H5_4 C14_4 1_555 1_555
C15_4 C4_4 1_555 1_555
C16_4 C1_4 1_555 1_555
H7_4 C16_4 1_555 1_555
C17_4 C8_4 1_555 1_555
C18_4 C5_4 1_555 1_555
C19_4 C2_4 1_555 1_555
H8_4 C19_4 1_555 1_555
C20_4 C1_4 1_555 1_555
C21_4 C6_4 1_555 1_555
H9_4 C21_4 1_555 1_555
Eu3_2 O1_4 1_555 1_555
O10_4 Eu2 1_555 1_555
O11_4 Eu2 1_555 1_555
O12_4 Eu2 1_555 1_555
O13_4 Eu2 1_555 1_555
O15_4 Eu2 1_555 1_555
O2_4 Eu3_2 1_555 1_555
O3_4 Eu3_2 1_555 1_555
N1_4 C13_4 1_555 1_555
C8_4 C18_4 1_555 1_555
C9_4 C16_4 1_555 1_555
C10_4 C15_4 1_555 1_555
C12_4 C13_4 1_555 1_555
C14_4 C20_4 1_555 1_555
C19_4 C21_4 1_555 1_555
Eu3_2 O10_4 1_555 1_555
O5_4 C11_4 1_555 1_555
O8_4 C11_4 1_555 1_555
Eu4_2 O5_4 1_555 1_555
O8_4 Eu4_2 1_555 1_555
C2_5 H2_5 1_555 1_555
C5_5 H3_5 1_555 1_555
N1_5 C6_5 1_555 1_555
C6_5 C18_5 1_555 1_555
C13_5 C2_5 1_555 1_555
H5_5 C14_5 1_555 1_555
C18_5 C5_5 1_555 1_555
C19_5 C2_5 1_555 1_555
H8_5 C19_5 1_555 1_555
C21_5 C6_5 1_555 1_555
H9_5 C21_5 1_555 1_555
Eu4_2 O7_3 1_555 1_555
N1_5 C13_5 1_555 1_555
C19_5 C21_5 1_555 1_555
O15 C11_5 1_555 1_555
C11_5 C4_5 1_555 1_555
C15_5 C4_5 1_555 1_555
H6_5 C15_5 1_555 1_555
O11_3 C3_5 1_555 1_555
O4_5 Eu3 1_555 1_555
C1_5 H1_5 1_555 1_555
O9_5 C7_5 1_555 1_555
C3_5 O4_5 1_555 1_555
C7_5 C20_5 1_555 1_555
C9_5 C3_5 1_555 1_555
C12_5 C9_5 1_555 1_555
C16_5 C1_5 1_555 1_555
H7_5 C16_5 1_555 1_555
C20_5 C1_5 1_555 1_555
O14_3 Eu3 1_555 1_555
C9_5 C16_5 1_555 1_555
O10_3 C17_5 1_555 1_555
O12_3 C17_5 1_555 1_555
C10_5 H4_5 1_555 1_555
O6_3 H10_5 1_555 1_555
O13_2 C11_6 1_555 1_555
O15_2 C11_6 1_555 1_555
C2_6 H2_6 1_555 1_555
C4_6 C5_6 1_555 1_555
C5_6 H3_6 1_555 1_555
N1_6 C6_6 1_555 1_555
C6_6 C18_6 1_555 1_555
C11_6 C4_6 1_555 1_555
C13_6 C2_6 1_555 1_555
H5_6 C14_6 1_555 1_555
C15_6 C4_6 1_555 1_555
H6_6 C15_6 1_555 1_555
C18_6 C5_6 1_555 1_555
C19_6 C2_6 1_555 1_555
H8_6 C19_6 1_555 1_555
C21_6 C6_6 1_555 1_555
H9_6 C21_6 1_555 1_555
Eu4 O7_4 1_555 1_555
N1_6 C13_6 1_555 1_555
C8_6 C18_6 1_555 1_555
C19_6 C21_6 1_555 1_555
O10_4 C17_6 1_555 1_555
O11_4 C3_6 1_555 1_555
O12_4 C17_6 1_555 1_555
O4_6 Eu3_2 1_555 1_555
O6_4 Eu3_2 1_555 1_555
C1_6 H1_6 1_555 1_555
O9_6 C7_6 1_555 1_555
C3_6 O4_6 1_555 1_555
C7_6 C20_6 1_555 1_555
C9_6 C3_6 1_555 1_555
C10_6 H4_6 1_555 1_555
C12_6 C9_6 1_555 1_555
C16_6 C1_6 1_555 1_555
H7_6 C16_6 1_555 1_555
C20_6 C1_6 1_555 1_555
O14_4 Eu3_2 1_555 1_555
C9_6 C16_6 1_555 1_555
O6_4 H10_6 1_555 1_555
O6_4 H11_4 1_555 1_555
O11 C3_7 1_555 1_555
O4_7 Eu4 1_555 1_555
C1_7 H1_7 1_555 1_555
O14_4 C7_7 1_555 1_555
C2_7 H2_7 1_555 1_555
O9_7 C7_7 1_555 1_555
C3_7 O4_7 1_555 1_555
C5_7 H3_7 1_555 1_555
N1_7 C6_7 1_555 1_555
C6_7 C18_7 1_555 1_555
C7_7 C20_7 1_555 1_555
C9_7 C3_7 1_555 1_555
C12_7 C9_7 1_555 1_555
C13_7 C2_7 1_555 1_555
C14_7 C12_7 1_555 1_555
H5_7 C14_7 1_555 1_555
C16_7 C1_7 1_555 1_555
H7_7 C16_7 1_555 1_555
C18_7 C5_7 1_555 1_555
C19_7 C2_7 1_555 1_555
H8_7 C19_7 1_555 1_555
C20_7 C1_7 1_555 1_555
C21_7 C6_7 1_555 1_555
H9_7 C21_7 1_555 1_555
N1_7 C13_7 1_555 1_555
C9_7 C16_7 1_555 1_555
C12_7 C13_7 1_555 1_555
C14_7 C20_7 1_555 1_555
C19_7 C21_7 1_555 1_555
O10 C17_7 1_555 1_555
O12 C17_7 1_555 1_555
C8_7 C10_7 1_555 1_555
C10_7 H4_7 1_555 1_555
C15_7 C4_7 1_555 1_555
C17_7 C8_7 1_555 1_555
C10_7 C15_7 1_555 1_555
O15_3 C11_7 1_555 1_555
O13_4 C11_8 1_555 1_555
O15_4 C11_8 1_555 1_555
O10_2 C17_8 1_555 1_555
O11_2 C3_8 1_555 1_555
O12_2 C17_8 1_555 1_555
O4_8 Eu4_2 1_555 1_555
C1_8 H1_8 1_555 1_555
O14_3 C7_8 1_555 1_555
C2_8 H2_8 1_555 1_555
O9_8 C7_8 1_555 1_555
C3_8 O4_8 1_555 1_555
C4_8 C5_8 1_555 1_555
C5_8 H3_8 1_555 1_555
N1_8 C6_8 1_555 1_555
C6_8 C18_8 1_555 1_555
C7_8 C20_8 1_555 1_555
C8_8 C10_8 1_555 1_555
C9_8 C3_8 1_555 1_555
C10_8 H4_8 1_555 1_555
C12_8 C9_8 1_555 1_555
C13_8 C2_8 1_555 1_555
C14_8 C12_8 1_555 1_555
H5_8 C14_8 1_555 1_555
C15_8 C4_8 1_555 1_555
C16_8 C1_8 1_555 1_555
H7_8 C16_8 1_555 1_555
C17_8 C8_8 1_555 1_555
C18_8 C5_8 1_555 1_555
C19_8 C2_8 1_555 1_555
H8_8 C19_8 1_555 1_555
C20_8 C1_8 1_555 1_555
C21_8 C6_8 1_555 1_555
H9_8 C21_8 1_555 1_555
N1_8 C13_8 1_555 1_555
C8_8 C18_8 1_555 1_555
C9_8 C16_8 1_555 1_555
C10_8 C15_8 1_555 1_555
C12_8 C13_8 1_555 1_555
C14_8 C20_8 1_555 1_555
C19_8 C21_8 1_555 1_555
O6_6 H11_6 1_555 1_555
O6_8 H11_8 1_555 1_555

#END
