
###############################################################################
#
# This file contains modified crystal structure data generated from the
# MOF subset of the Cambridge Structural Database (CSD) v543 
# hosted by the Cambridge Crystallographic Data Centre (CCDC).
#
# This work is licensed under the Creative Commons
# Attribution-NonCommercial-ShareAlike 4.0 International License.
# To view a copy of this license, visit
# http://creativecommons.org/licenses/by-nc-sa/4.0/
# or send a letter to
# Creative Commons, PO Box 1866, Mountain View, CA 94042, USA.
#
# CIF created using the CSD Python API on 29 September 2022
# The structure has been converted into the P1 space group
# The structure has a 3D framework
# The original CSD entry MAQBAK is in the rhombohedral crystal system
# The framework has been calculated to contain at least 10.0% void space
# The void calculation uses a probe of radius 1.32A, grid spacing 0.4
#
###############################################################################

data_MAQBAK
_chemical_formula_moiety         '(C324 H288 O152 Zn30)n'
_symmetry_cell_setting           triclinic
_symmetry_space_group_name_H-M   'P 1'
_symmetry_Int_Tables_number      1
_space_group_name_Hall           'P 1'
loop_
_symmetry_equiv_pos_site_id
_symmetry_equiv_pos_as_xyz
1 x,y,z
_cell_length_a                   24.7636(5)
_cell_length_b                   24.7636(5)
_cell_length_c                   28.1462(10)
_cell_angle_alpha                90
_cell_angle_beta                 90
_cell_angle_gamma                120
_cell_volume                     14947.8
loop_
_atom_site_label
_atom_site_type_symbol
_atom_site_fract_x
_atom_site_fract_y
_atom_site_fract_z
C16 C 0.7564(4) 0.0235(4) 0.1050(3)
H11 H 0.7405 0.0399 0.0814
H12 H 0.7967 0.0308 0.0954
H13 H 0.7599 0.0438 0.1349
O9 O 0.8840(3) 0.0012(4) 0.2320(3)
Zn6 Zn 0.08432(3) 0.03464(3) 0.26124(2)
Zn8 Zn 0.96536(3) 0.04967(4) 0.26124(2)
Zn1 Zn 0.3333 0.6667 0.02051(3)
O2 O 0.57504(16) 0.84897(18) 0.17416(11)
C1 C 0.46606(19) 0.73809(18) 0.02885(16)
O3 O 0.6558(2) 0.7640(2) 0.17495(18)
O4 O 0.6892(2) 0.8175(2) 0.05605(14)
C2 C 0.6320(2) 0.8089(3) 0.06941(18)
C3 C 0.5789(2) 0.7790(2) 0.04123(16)
H1 H 0.5807 0.7638 0.0114
C4 C 0.5198(2) 0.7950(2) 0.10266(15)
H2 H 0.4821 0.7899 0.1138
C5 C 0.6296(2) 0.8319(2) 0.11379(17)
C6 C 0.5736(2) 0.8253(2) 0.13020(15)
O5 O 0.7143(2) 0.9573(2) 0.11003(16)
C7 C 0.5234(2) 0.7723(2) 0.05808(15)
C8 C 0.5185(2) 0.8440(3) 0.19222(17)
H3 H 0.5259 0.8621 0.2234
H4 H 0.4868 0.8008 0.1939
H5 H 0.5050 0.8657 0.1714
C9 C 0.6872(2) 0.8628(3) 0.14449(17)
C10 C 0.7940(3) 0.9147(3) 0.1993(2)
C11 C 0.6997(2) 0.8252(3) 0.1744(2)
C12 C 0.7535(3) 0.8504(4) 0.2012(2)
H6 H 0.7625 0.8251 0.2202
C13 C 0.7829(3) 0.9530(3) 0.1703(2)
H7 H 0.8102 0.9958 0.1693
C14 C 0.7290(3) 0.9250(3) 0.14229(19)
C15 C 0.6931(4) 0.7957(5) 0.0098(2)
H8 H 0.7348 0.8039 0.0043
H10 H 0.6645 0.7517 0.0078
O6 O 0.41425(14) 0.72509(15) 0.04785(12)
C17 C 0.6676(5) 0.7221(4) 0.2023(4)
H14 H 0.6330 0.6804 0.1993
H15 H 0.6730 0.7343 0.2351
H16 H 0.7047 0.7234 0.1908
O8 O 0.8717(4) 0.9036(3) 0.2410(3)
C18 C 0.8539(3) 0.9417(5) 0.2273(2)
O11 O 0.15103(18) 0.72607(24) 0.17416(11)
C19 C 0.26191(18) 0.72797(26) 0.02885(16)
O12 O 0.2360(2) 0.8918(3) 0.17495(18)
O13 O 0.1825(2) 0.8717(3) 0.05605(14)
C20 C 0.1911(3) 0.8231(4) 0.06941(18)
C21 C 0.2210(2) 0.7999(3) 0.04123(16)
H17 H 0.2362 0.8169 0.0114
C22 C 0.2050(2) 0.7248(3) 0.10266(15)
H18 H 0.2101 0.6922 0.1138
C23 C 0.1681(2) 0.7977(3) 0.11379(17)
C24 C 0.1747(2) 0.7483(3) 0.13020(15)
O14 O 0.0427(2) 0.7570(3) 0.11003(16)
C25 C 0.2277(2) 0.7511(3) 0.05808(15)
C26 C 0.1560(3) 0.6745(4) 0.19222(17)
H19 H 0.1379 0.6638 0.2234
H20 H 0.1992 0.6860 0.1939
H21 H 0.1343 0.6393 0.1714
C27 C 0.1372(3) 0.8244(4) 0.14449(17)
C28 C 0.0853(3) 0.8793(4) 0.1993(2)
C29 C 0.1748(3) 0.8745(4) 0.1744(2)
C30 C 0.1496(4) 0.9031(5) 0.2012(2)
H22 H 0.1749 0.9374 0.2202
C31 C 0.0470(3) 0.8299(4) 0.1703(2)
H23 H 0.0042 0.8144 0.1693
C32 C 0.0750(3) 0.8040(4) 0.14229(19)
C33 C 0.2043(5) 0.8974(6) 0.0098(2)
H24 H 0.1961 0.9309 0.0043
H26 H 0.2483 0.9128 0.0078
O15 O 0.27491(15) 0.68916(21) 0.04785(12)
C35 C 0.2779(4) 0.9455(6) 0.2023(4)
H30 H 0.3196 0.9526 0.1993
H31 H 0.2657 0.9387 0.2351
H32 H 0.2766 0.9813 0.1908
O16 O 0.0964(3) 0.9681(5) 0.2410(3)
C36 C 0.0583(5) 0.9122(6) 0.2273(2)
O19 O 0.27393(24) 0.42496(16) 0.17416(11)
C37 C 0.27203(26) 0.53394(19) 0.02885(16)
O20 O 0.1082(3) 0.3442(2) 0.17495(18)
O21 O 0.1283(3) 0.3108(2) 0.05605(14)
C38 C 0.1769(4) 0.3680(2) 0.06941(18)
C39 C 0.2001(3) 0.4211(2) 0.04123(16)
H33 H 0.1831 0.4193 0.0114
C40 C 0.2752(3) 0.4802(2) 0.10266(15)
H34 H 0.3078 0.5179 0.1138
C41 C 0.2023(3) 0.3704(2) 0.11379(17)
C42 C 0.2517(3) 0.4264(2) 0.13020(15)
O22 O 0.2430(3) 0.2857(2) 0.11003(16)
C43 C 0.2489(3) 0.4766(2) 0.05808(15)
C44 C 0.3255(4) 0.4815(2) 0.19222(17)
H35 H 0.3362 0.4741 0.2234
H36 H 0.3140 0.5132 0.1939
H37 H 0.3607 0.4950 0.1714
C45 C 0.1756(4) 0.3128(2) 0.14449(17)
C46 C 0.1207(4) 0.2060(3) 0.1993(2)
C47 C 0.1255(4) 0.3003(2) 0.1744(2)
C48 C 0.0969(5) 0.2465(3) 0.2012(2)
H38 H 0.0626 0.2375 0.2202
C49 C 0.1701(4) 0.2171(3) 0.1703(2)
H39 H 0.1856 0.1898 0.1693
C50 C 0.1960(4) 0.2710(3) 0.14229(19)
C51 C 0.1026(6) 0.3069(4) 0.0098(2)
H40 H 0.0691 0.2652 0.0043
H42 H 0.0872 0.3355 0.0078
O23 O 0.31084(21) 0.58575(14) 0.04785(12)
C52 C 0.2671(6) 0.2436(4) 0.1050(3)
H43 H 0.2994 0.2595 0.0814
H44 H 0.2341 0.2033 0.0954
H45 H 0.2839 0.2401 0.1349
C53 C 0.0545(6) 0.3324(5) 0.2023(4)
H46 H 0.0474 0.3670 0.1993
H47 H 0.0613 0.3270 0.2351
H48 H 0.0187 0.2953 0.1908
O24 O 0.0319(5) 0.1283(4) 0.2410(3)
O25 O 0.1172(5) 0.1160(3) 0.2320(3)
C54 C 0.0878(6) 0.1461(3) 0.2273(2)
Zn10 Zn 0.95033(4) 0.91568(3) 0.26124(2)
Zn2 Zn 0.41765(3) 0.70131(3) 0.92791(2)
O1 O 0.47244(16) 0.72533(17) 0.98633(12)
H9 H 0.6825 0.8169 0.9863
O7 O 0.3333 0.6667 0.95226(18)
Zn3 Zn 0.29869(3) 0.71634(4) 0.92791(2)
O10 O 0.27467(17) 0.74711(23) 0.98633(12)
H25 H 0.1831 0.8656 0.9863
Zn4 Zn 0.28366(4) 0.58235(3) 0.92791(2)
O18 O 0.25289(23) 0.52756(16) 0.98633(12)
H41 H 0.1344 0.3175 0.9863
O26 O 0.2050(4) 0.5703(3) 0.9077(3)
O27 O 0.4297(3) 0.6348(5) 0.9077(3)
O28 O 0.3652(5) 0.7950(4) 0.9077(3)
O29 O 0.2173(3) 0.6679(4) 0.8987(3)
O30 O 0.3321(4) 0.5495(5) 0.8987(3)
O31 O 0.4505(5) 0.7827(3) 0.8987(3)
C34 C 0.9765(4) 0.7329(6) 0.1050(3)
H27 H 0.9601 0.7006 0.0814
H28 H 0.9692 0.7659 0.0954
H29 H 0.9562 0.7161 0.1349
O17 O 0.9988(4) 0.8828(5) 0.2320(3)
Zn1_2 Zn -0.0000 0.0000 0.35384(3)
O1_2 O 0.13911(16) 0.05866(17) 0.31966(12)
O2_2 O 0.24171(16) 0.18230(18) 0.50749(11)
C1_2 C 0.13273(19) 0.07142(18) 0.36218(16)
O3_2 O 0.3225(2) 0.0973(2) 0.50828(18)
O4_2 O 0.3559(2) 0.1508(2) 0.38938(14)
C2_2 C 0.2987(2) 0.1422(3) 0.40274(18)
C3_2 C 0.2456(2) 0.1123(2) 0.37456(16)
H1_2 H 0.2474 0.0971 0.3447
C4_2 C 0.1865(2) 0.1283(2) 0.43599(15)
H2_2 H 0.1488 0.1232 0.4471
C5_2 C 0.2963(2) 0.1652(2) 0.44712(17)
C6_2 C 0.2403(2) 0.1586(2) 0.46353(15)
O5_2 O 0.3810(2) 0.2906(2) 0.44336(16)
C7_2 C 0.1901(2) 0.1056(2) 0.39141(15)
C8_2 C 0.1852(2) 0.1773(3) 0.52555(17)
H3_2 H 0.1926 0.1954 0.5567
H4_2 H 0.1535 0.1341 0.5272
H5_2 H 0.1717 0.1990 0.5047
C9_2 C 0.3539(2) 0.1961(3) 0.47782(17)
C10_2 C 0.4607(3) 0.2480(3) 0.5326(2)
C11_2 C 0.3664(2) 0.1585(3) 0.5077(2)
C12_2 C 0.4202(3) 0.1837(4) 0.5345(2)
H6_2 H 0.4292 0.1584 0.5535
C13_2 C 0.4496(3) 0.2863(3) 0.5036(2)
H7_2 H 0.4769 0.3291 0.5026
C14_2 C 0.3957(3) 0.2583(3) 0.47562(19)
C15_2 C 0.3598(4) 0.1290(5) 0.3431(2)
H8_2 H 0.4015 0.1372 0.3376
H9_2 H 0.3492 0.1502 0.3196
H10_2 H 0.3312 0.0850 0.3411
O6_2 O 0.08092(14) 0.05842(15) 0.38118(12)
O7_2 O -0.0000 0.0000 0.28559(18)
C16_2 C 0.4231(4) 0.3568(4) 0.4383(3)
H11_2 H 0.4072 0.3732 0.4147
H12_2 H 0.4634 0.3641 0.4287
H13_2 H 0.4266 0.3771 0.4682
C17_2 C 0.3343(5) 0.0554(4) 0.5356(4)
H14_2 H 0.2997 0.0137 0.5326
H15_2 H 0.3397 0.0676 0.5684
H16_2 H 0.3714 0.0567 0.5241
O8_2 O 0.5384(4) 0.2369(3) 0.5743(3)
O9_2 O 0.5507(3) 0.3345(4) 0.5653(3)
C18_2 C 0.5206(3) 0.2750(5) 0.5606(2)
Zn8_2 Zn 0.63202(3) 0.38301(4) 0.59458(2)
Zn10_2 Zn 0.61699(4) 0.24902(3) 0.59458(2)
Zn1_3 Zn -0.0000 1.0000 0.35384(3)
O7_3 O -0.0000 1.0000 0.28559(18)
H35_2 H 0.0029 0.8074 0.5567
H37_2 H 0.0274 0.8283 0.5047
Zn1_4 Zn 1.0000 0.0000 0.35384(3)
O7_4 O 1.0000 0.0000 0.28559(18)
O10_2 O 0.94134(17) 0.08044(23) 0.31966(12)
O11_2 O 0.81770(18) 0.05940(24) 0.50749(11)
C19_2 C 0.92858(18) 0.06130(26) 0.36218(16)
O12_2 O 0.9027(2) 0.2251(3) 0.50828(18)
O13_2 O 0.8492(2) 0.2050(3) 0.38938(14)
C20_2 C 0.8578(3) 0.1564(4) 0.40274(18)
C21_2 C 0.8877(2) 0.1332(3) 0.37456(16)
H17_2 H 0.9029 0.1502 0.3447
C22_2 C 0.8717(2) 0.0581(3) 0.43599(15)
H18_2 H 0.8768 0.0255 0.4471
C23_2 C 0.8348(2) 0.1310(3) 0.44712(17)
C24_2 C 0.8414(2) 0.0816(3) 0.46353(15)
O14_2 O 0.7094(2) 0.0903(3) 0.44336(16)
C25_2 C 0.8944(2) 0.0844(3) 0.39141(15)
C26_2 C 0.8227(3) 0.0078(4) 0.52555(17)
H20_2 H 0.8659 0.0193 0.5272
C27_2 C 0.8039(3) 0.1577(4) 0.47782(17)
C28_2 C 0.7520(3) 0.2126(4) 0.5326(2)
C29_2 C 0.8415(3) 0.2078(4) 0.5077(2)
C30_2 C 0.8163(4) 0.2364(5) 0.5345(2)
H22_2 H 0.8416 0.2707 0.5535
C31_2 C 0.7137(3) 0.1632(4) 0.5036(2)
H23_2 H 0.6709 0.1477 0.5026
C32_2 C 0.7417(3) 0.1373(4) 0.47562(19)
C33_2 C 0.8710(5) 0.2307(6) 0.3431(2)
H24_2 H 0.8628 0.2642 0.3376
H25_2 H 0.8498 0.1989 0.3196
H26_2 H 0.9150 0.2461 0.3411
O15_2 O 0.94158(15) 0.02249(21) 0.38118(12)
C34_2 C 0.6432(4) 0.0662(6) 0.4383(3)
H27_2 H 0.6268 0.0339 0.4147
H28_2 H 0.6359 0.0992 0.4287
H29_2 H 0.6229 0.0494 0.4682
C35_2 C 0.9446(4) 0.2788(6) 0.5356(4)
H30_2 H 0.9863 0.2859 0.5326
H31_2 H 0.9324 0.2720 0.5684
H32_2 H 0.9433 0.3146 0.5241
O16_2 O 0.7631(3) 0.3014(5) 0.5743(3)
O17_2 O 0.6655(4) 0.2161(5) 0.5653(3)
C36_2 C 0.7250(5) 0.2455(6) 0.5606(2)
Zn6_2 Zn 0.75098(3) 0.36798(3) 0.59458(2)
Zn1_5 Zn 1.0000 1.0000 0.35384(3)
O7_5 O 1.0000 1.0000 0.28559(18)
H19_2 H 0.8046 0.9971 0.5567
H21_2 H 0.8010 0.9726 0.5047
O18_2 O 0.91956(23) 0.86089(16) 0.31966(12)
O19_2 O 0.94060(24) 0.75829(16) 0.50749(11)
C37_2 C 0.93870(26) 0.86727(19) 0.36218(16)
O20_2 O 0.7749(3) 0.6775(2) 0.50828(18)
O21_2 O 0.7950(3) 0.6441(2) 0.38938(14)
C38_2 C 0.8436(4) 0.7013(2) 0.40274(18)
C39_2 C 0.8668(3) 0.7544(2) 0.37456(16)
H33_2 H 0.8498 0.7526 0.3447
C40_2 C 0.9419(3) 0.8135(2) 0.43599(15)
H34_2 H 0.9745 0.8512 0.4471
C41_2 C 0.8690(3) 0.7037(2) 0.44712(17)
C42_2 C 0.9184(3) 0.7597(2) 0.46353(15)
O22_2 O 0.9097(3) 0.6190(2) 0.44336(16)
C43_2 C 0.9156(3) 0.8099(2) 0.39141(15)
C44_2 C 0.9922(4) 0.8148(2) 0.52555(17)
H36_2 H 0.9807 0.8465 0.5272
C45_2 C 0.8423(4) 0.6461(2) 0.47782(17)
C46_2 C 0.7874(4) 0.5393(3) 0.5326(2)
C47_2 C 0.7922(4) 0.6336(2) 0.5077(2)
C48_2 C 0.7636(5) 0.5798(3) 0.5345(2)
H38_2 H 0.7293 0.5708 0.5535
C49_2 C 0.8368(4) 0.5504(3) 0.5036(2)
H39_2 H 0.8523 0.5231 0.5026
C50_2 C 0.8627(4) 0.6043(3) 0.47562(19)
C51_2 C 0.7693(6) 0.6402(4) 0.3431(2)
H40_2 H 0.7358 0.5985 0.3376
H41_2 H 0.8011 0.6508 0.3196
H42_2 H 0.7539 0.6688 0.3411
O23_2 O 0.97751(21) 0.91908(14) 0.38118(12)
C52_2 C 0.9338(6) 0.5769(4) 0.4383(3)
H43_2 H 0.9661 0.5928 0.4147
H44_2 H 0.9008 0.5366 0.4287
H45_2 H 0.9506 0.5734 0.4682
C53_2 C 0.7212(6) 0.6657(5) 0.5356(4)
H46_2 H 0.7141 0.7003 0.5326
H47_2 H 0.7280 0.6603 0.5684
H48_2 H 0.6854 0.6286 0.5241
O24_2 O 0.6986(5) 0.4616(4) 0.5743(3)
O25_2 O 0.7839(5) 0.4493(3) 0.5653(3)
C54_2 C 0.7545(6) 0.4794(3) 0.5606(2)
O4_3 O 0.0225(2) 0.4842(2) 0.72272(14)
O5_3 O 0.0476(2) 0.6240(2) 0.77670(16)
C9_3 C 0.0205(2) 0.5295(3) 0.81116(17)
C10_3 C 0.1273(3) 0.5814(3) 0.8660(2)
C11_3 C 0.0330(2) 0.4919(3) 0.8411(2)
C12_3 C 0.0868(3) 0.5171(4) 0.8679(2)
H6_3 H 0.0958 0.4918 0.8869
C13_3 C 0.1162(3) 0.6197(3) 0.8370(2)
H7_3 H 0.1435 0.6625 0.8360
C14_3 C 0.0623(3) 0.5917(3) 0.80896(19)
C15_3 C 0.0264(4) 0.4624(5) 0.6765(2)
H8_3 H 0.0681 0.4706 0.6710
H9_3 H 0.0158 0.4836 0.6530
C16_3 C 0.0897(4) 0.6902(4) 0.7717(3)
H11_3 H 0.0738 0.7066 0.7481
H12_3 H 0.1300 0.6975 0.7621
H13_3 H 0.0932 0.7105 0.8016
C17_3 C 0.0009(5) 0.3888(4) 0.8690(4)
H15_3 H 0.0063 0.4010 0.9018
H16_3 H 0.0380 0.3901 0.8575
C18_3 C 0.1872(3) 0.6084(5) 0.8940(2)
Zn1_6 Zn 0.6666 0.3334 0.68718(3)
O1_3 O 0.80577(16) 0.39200(17) 0.65300(12)
O2_3 O 0.90837(16) 0.51564(18) 0.84083(11)
C1_3 C 0.79939(19) 0.40476(18) 0.69552(16)
O3_3 O 0.9891(2) 0.4307(2) 0.84162(18)
C2_3 C 0.9653(2) 0.4756(3) 0.73608(18)
C3_3 C 0.9122(2) 0.4457(2) 0.70790(16)
H1_3 H 0.9140 0.4305 0.6781
C4_3 C 0.8531(2) 0.4617(2) 0.76933(15)
H2_3 H 0.8154 0.4566 0.7805
C5_3 C 0.9629(2) 0.4986(2) 0.78046(17)
C6_3 C 0.9069(2) 0.4920(2) 0.79687(15)
C7_3 C 0.8567(2) 0.4390(2) 0.72475(15)
C8_3 C 0.8518(2) 0.5107(3) 0.85889(17)
H3_3 H 0.8592 0.5288 0.8901
H4_3 H 0.8201 0.4675 0.8606
H5_3 H 0.8383 0.5324 0.8381
H10_3 H 0.9978 0.4184 0.6745
O6_3 O 0.74758(14) 0.39176(15) 0.71452(12)
O7_6 O 0.6666 0.3334 0.61893(18)
H14_3 H 0.9663 0.3471 0.8660
O10_3 O 0.60800(17) 0.41378(23) 0.65300(12)
O11_3 O 0.48436(18) 0.39274(24) 0.84083(11)
C19_3 C 0.59524(18) 0.39464(26) 0.69552(16)
O12_3 O 0.5693(2) 0.5585(3) 0.84162(18)
O13_3 O 0.5158(2) 0.5384(3) 0.72272(14)
C20_3 C 0.5244(3) 0.4898(4) 0.73608(18)
C21_3 C 0.5543(2) 0.4666(3) 0.70790(16)
H17_3 H 0.5695 0.4836 0.6781
C22_3 C 0.5383(2) 0.3915(3) 0.76933(15)
H18_3 H 0.5434 0.3589 0.7805
C23_3 C 0.5014(2) 0.4644(3) 0.78046(17)
C24_3 C 0.5080(2) 0.4150(3) 0.79687(15)
O14_3 O 0.3760(2) 0.4237(3) 0.77670(16)
C25_3 C 0.5610(2) 0.4178(3) 0.72475(15)
C26_3 C 0.4893(3) 0.3412(4) 0.85889(17)
H19_3 H 0.4712 0.3305 0.8901
H20_3 H 0.5325 0.3527 0.8606
H21_3 H 0.4676 0.3060 0.8381
C27_3 C 0.4705(3) 0.4911(4) 0.81116(17)
C28_3 C 0.4186(3) 0.5460(4) 0.8660(2)
C29_3 C 0.5081(3) 0.5412(4) 0.8411(2)
C30_3 C 0.4829(4) 0.5698(5) 0.8679(2)
H22_3 H 0.5082 0.6041 0.8869
C31_3 C 0.3803(3) 0.4966(4) 0.8370(2)
H23_3 H 0.3375 0.4811 0.8360
C32_3 C 0.4083(3) 0.4707(4) 0.80896(19)
C33_3 C 0.5376(5) 0.5641(6) 0.6765(2)
H24_3 H 0.5294 0.5976 0.6710
H25_3 H 0.5164 0.5323 0.6530
H26_3 H 0.5816 0.5795 0.6745
O15_3 O 0.60824(15) 0.35583(21) 0.71452(12)
C34_3 C 0.3098(4) 0.3996(6) 0.7717(3)
H27_3 H 0.2934 0.3673 0.7481
H28_3 H 0.3025 0.4326 0.7621
H29_3 H 0.2895 0.3828 0.8016
C35_3 C 0.6112(4) 0.6122(6) 0.8690(4)
H30_3 H 0.6529 0.6193 0.8660
H31_3 H 0.5990 0.6054 0.9018
H32_3 H 0.6099 0.6480 0.8575
C36_3 C 0.3916(5) 0.5789(6) 0.8940(2)
O18_3 O 0.58622(23) 0.19423(16) 0.65300(12)
O19_3 O 0.60726(24) 0.09163(16) 0.84083(11)
C37_3 C 0.60536(26) 0.20061(19) 0.69552(16)
O20_3 O 0.4415(3) 0.0109(2) 0.84162(18)
C38_3 C 0.5102(4) 0.0347(2) 0.73608(18)
C39_3 C 0.5334(3) 0.0878(2) 0.70790(16)
H33_3 H 0.5164 0.0860 0.6781
C40_3 C 0.6085(3) 0.1469(2) 0.76933(15)
H34_3 H 0.6411 0.1846 0.7805
C41_3 C 0.5356(3) 0.0371(2) 0.78046(17)
C42_3 C 0.5850(3) 0.0931(2) 0.79687(15)
C43_3 C 0.5822(3) 0.1433(2) 0.72475(15)
C44_3 C 0.6588(4) 0.1482(2) 0.85889(17)
H35_3 H 0.6695 0.1408 0.8901
H36_3 H 0.6473 0.1799 0.8606
H37_3 H 0.6940 0.1617 0.8381
H42_3 H 0.4205 0.0022 0.6745
O23_3 O 0.64417(21) 0.25242(14) 0.71452(12)
H46_3 H 0.3807 0.0337 0.8660
O21_3 O 0.4616(3) 0.9775(2) 0.72272(14)
O22_3 O 0.5763(3) 0.9524(2) 0.77670(16)
C45_3 C 0.5089(4) 0.9795(2) 0.81116(17)
C46_3 C 0.4540(4) 0.8727(3) 0.8660(2)
C47_3 C 0.4588(4) 0.9670(2) 0.8411(2)
C48_3 C 0.4302(5) 0.9132(3) 0.8679(2)
H38_3 H 0.3959 0.9042 0.8869
C49_3 C 0.5034(4) 0.8838(3) 0.8370(2)
H39_3 H 0.5189 0.8565 0.8360
C50_3 C 0.5293(4) 0.9377(3) 0.80896(19)
C51_3 C 0.4359(6) 0.9736(4) 0.6765(2)
H40_3 H 0.4024 0.9319 0.6710
H41_3 H 0.4677 0.9842 0.6530
C52_3 C 0.6004(6) 0.9103(4) 0.7717(3)
H43_3 H 0.6327 0.9262 0.7481
H44_3 H 0.5674 0.8700 0.7621
H45_3 H 0.6172 0.9068 0.8016
C53_3 C 0.3878(6) 0.9991(5) 0.8690(4)
H47_3 H 0.3946 0.9937 0.9018
H48_3 H 0.3520 0.9620 0.8575
C54_3 C 0.4211(6) 0.8128(3) 0.8940(2)
C34_4 C 0.0235(4) 0.2671(6) 0.8950(3)
H27_4 H 0.0399 0.2994 0.9186
H28_4 H 0.0308 0.2341 0.9046
H29_4 H 0.0438 0.2839 0.8651
O17_3 O 0.0012(4) 0.1172(5) 0.7680(3)
Zn7 Zn 0.03464(3) 0.95033(4) 0.73876(2)
Zn9 Zn 0.04967(4) 0.08432(3) 0.73876(2)
Zn2_2 Zn 0.58235(3) 0.29869(3) 0.07209(2)
O1_4 O 0.52756(16) 0.27467(17) 0.01367(12)
H9_4 H 0.3175 0.1831 0.0137
O7_7 O 0.6667 0.3333 0.04774(18)
Zn3_2 Zn 0.70131(3) 0.28366(4) 0.07209(2)
O10_4 O 0.72533(17) 0.25289(23) 0.01367(12)
H25_4 H 0.8169 0.1344 0.0137
Zn4_2 Zn 0.71634(4) 0.41765(3) 0.07209(2)
O18_4 O 0.74711(23) 0.47244(16) 0.01367(12)
H41_4 H 0.8656 0.6825 0.0137
O26_2 O 0.7950(4) 0.4297(3) 0.0923(3)
O27_2 O 0.5703(3) 0.3652(5) 0.0923(3)
O28_2 O 0.6348(5) 0.2050(4) 0.0923(3)
O29_2 O 0.7827(3) 0.3321(4) 0.1013(3)
O30_2 O 0.6679(4) 0.4505(5) 0.1013(3)
O31_2 O 0.5495(5) 0.2173(3) 0.1013(3)
Zn1_7 Zn 0.6667 0.3333 0.97949(3)
O2_4 O 0.42496(16) 0.15103(18) 0.82584(11)
C1_4 C 0.53394(19) 0.26191(18) 0.97115(16)
O3_4 O 0.3442(2) 0.2360(2) 0.82505(18)
O4_4 O 0.3108(2) 0.1825(2) 0.94395(14)
C2_4 C 0.3680(2) 0.1911(3) 0.93059(18)
C3_4 C 0.4211(2) 0.2210(2) 0.95877(16)
H1_4 H 0.4193 0.2362 0.9886
C4_4 C 0.4802(2) 0.2050(2) 0.89734(15)
H2_4 H 0.5179 0.2101 0.8862
C5_4 C 0.3704(2) 0.1681(2) 0.88621(17)
C6_4 C 0.4264(2) 0.1747(2) 0.86980(15)
O5_4 O 0.2857(2) 0.0427(2) 0.88997(16)
C7_4 C 0.4766(2) 0.2277(2) 0.94192(15)
C8_4 C 0.4815(2) 0.1560(3) 0.80778(17)
H3_4 H 0.4741 0.1379 0.7766
H4_4 H 0.5132 0.1992 0.8061
H5_4 H 0.4950 0.1343 0.8286
C9_4 C 0.3128(2) 0.1372(3) 0.85551(17)
C10_4 C 0.2060(3) 0.0853(3) 0.8007(2)
C11_4 C 0.3003(2) 0.1748(3) 0.8256(2)
C12_4 C 0.2465(3) 0.1496(4) 0.7988(2)
H6_4 H 0.2375 0.1749 0.7798
C13_4 C 0.2171(3) 0.0470(3) 0.8297(2)
H7_4 H 0.1898 0.0042 0.8307
C14_4 C 0.2710(3) 0.0750(3) 0.85771(19)
C15_4 C 0.3069(4) 0.2043(5) 0.9902(2)
H8_4 H 0.2652 0.1961 0.9957
H10_4 H 0.3355 0.2483 0.9922
O6_4 O 0.58575(14) 0.27491(15) 0.95215(12)
C17_4 C 0.3324(5) 0.2779(4) 0.7977(4)
H14_4 H 0.3670 0.3196 0.8007
H15_4 H 0.3270 0.2657 0.7649
H16_4 H 0.2953 0.2766 0.8092
O8_3 O 0.1283(4) 0.0964(3) 0.7590(3)
C18_4 C 0.1461(3) 0.0583(5) 0.7727(2)
O11_4 O 0.84897(18) 0.27393(24) 0.82584(11)
C19_4 C 0.73809(18) 0.27203(26) 0.97115(16)
O12_4 O 0.7640(2) 0.1082(3) 0.82505(18)
O13_4 O 0.8175(2) 0.1283(3) 0.94395(14)
C20_4 C 0.8089(3) 0.1769(4) 0.93059(18)
C21_4 C 0.7790(2) 0.2001(3) 0.95877(16)
H17_4 H 0.7638 0.1831 0.9886
C22_4 C 0.7950(2) 0.2752(3) 0.89734(15)
H18_4 H 0.7899 0.3078 0.8862
C23_4 C 0.8319(2) 0.2023(3) 0.88621(17)
C24_4 C 0.8253(2) 0.2517(3) 0.86980(15)
O14_4 O 0.9573(2) 0.2430(3) 0.88997(16)
C25_4 C 0.7723(2) 0.2489(3) 0.94192(15)
C26_4 C 0.8440(3) 0.3255(4) 0.80778(17)
H19_4 H 0.8621 0.3362 0.7766
H20_4 H 0.8008 0.3140 0.8061
H21_4 H 0.8657 0.3607 0.8286
C27_4 C 0.8628(3) 0.1756(4) 0.85551(17)
C28_4 C 0.9147(3) 0.1207(4) 0.8007(2)
C29_4 C 0.8252(3) 0.1255(4) 0.8256(2)
C30_4 C 0.8504(4) 0.0969(5) 0.7988(2)
H22_4 H 0.8251 0.0626 0.7798
C31_4 C 0.9530(3) 0.1701(4) 0.8297(2)
H23_4 H 0.9958 0.1856 0.8307
C32_4 C 0.9250(3) 0.1960(4) 0.85771(19)
C33_4 C 0.7957(5) 0.1026(6) 0.9902(2)
H24_4 H 0.8039 0.0691 0.9957
H26_4 H 0.7517 0.0872 0.9922
O15_4 O 0.72509(15) 0.31084(21) 0.95215(12)
C35_4 C 0.7221(4) 0.0545(6) 0.7977(4)
H30_4 H 0.6804 0.0474 0.8007
H31_4 H 0.7343 0.0613 0.7649
H32_4 H 0.7234 0.0187 0.8092
O16_3 O 0.9036(3) 0.0319(5) 0.7590(3)
C36_4 C 0.9417(5) 0.0878(6) 0.7727(2)
O19_4 O 0.72607(24) 0.57504(16) 0.82584(11)
C37_4 C 0.72797(26) 0.46606(19) 0.97115(16)
O20_4 O 0.8918(3) 0.6558(2) 0.82505(18)
O21_4 O 0.8717(3) 0.6892(2) 0.94395(14)
C38_4 C 0.8231(4) 0.6320(2) 0.93059(18)
C39_4 C 0.7999(3) 0.5789(2) 0.95877(16)
H33_4 H 0.8169 0.5807 0.9886
C40_4 C 0.7248(3) 0.5198(2) 0.89734(15)
H34_4 H 0.6922 0.4821 0.8862
C41_4 C 0.7977(3) 0.6296(2) 0.88621(17)
C42_4 C 0.7483(3) 0.5736(2) 0.86980(15)
O22_4 O 0.7570(3) 0.7143(2) 0.88997(16)
C43_4 C 0.7511(3) 0.5234(2) 0.94192(15)
C44_4 C 0.6745(4) 0.5185(2) 0.80778(17)
H35_4 H 0.6638 0.5259 0.7766
H36_4 H 0.6860 0.4868 0.8061
H37_4 H 0.6393 0.5050 0.8286
C45_4 C 0.8244(4) 0.6872(2) 0.85551(17)
C46_4 C 0.8793(4) 0.7940(3) 0.8007(2)
C47_4 C 0.8745(4) 0.6997(2) 0.8256(2)
C48_4 C 0.9031(5) 0.7535(3) 0.7988(2)
H38_4 H 0.9374 0.7625 0.7798
C49_4 C 0.8299(4) 0.7829(3) 0.8297(2)
H39_4 H 0.8144 0.8102 0.8307
C50_4 C 0.8040(4) 0.7290(3) 0.85771(19)
C51_4 C 0.8974(6) 0.6931(4) 0.9902(2)
H40_4 H 0.9309 0.7348 0.9957
H42_4 H 0.9128 0.6645 0.9922
O23_4 O 0.68916(21) 0.41425(14) 0.95215(12)
C52_4 C 0.7329(6) 0.7564(4) 0.8950(3)
H43_4 H 0.7006 0.7405 0.9186
H44_4 H 0.7659 0.7967 0.9046
H45_4 H 0.7161 0.7599 0.8651
C53_4 C 0.9455(6) 0.6676(5) 0.7977(4)
H46_4 H 0.9526 0.6330 0.8007
H47_4 H 0.9387 0.6730 0.7649
H48_4 H 0.9813 0.7047 0.8092
O24_3 O 0.9681(5) 0.8717(4) 0.7590(3)
O25_3 O 0.8828(5) 0.8840(3) 0.7680(3)
C54_4 C 0.9122(6) 0.8539(3) 0.7727(2)
Zn5 Zn 0.91568(3) 0.96536(3) 0.73876(2)
C16_4 C 0.2436(4) 0.9765(4) 0.8950(3)
H11_4 H 0.2595 0.9601 0.9186
H12_4 H 0.2033 0.9692 0.9046
H13_4 H 0.2401 0.9562 0.8651
O9_3 O 0.1160(3) 0.9988(4) 0.7680(3)
Zn1_8 Zn 0.0000 -0.0000 0.64616(3)
O7_8 O 0.0000 -0.0000 0.71441(18)
H19_5 H 0.1954 0.0029 0.4433
H21_5 H 0.1990 0.0274 0.4953
O18_5 O 0.08044(23) 0.13911(16) 0.68034(12)
O19_5 O 0.05940(24) 0.24171(16) 0.49251(11)
C37_5 C 0.06130(26) 0.13273(19) 0.63782(16)
O20_5 O 0.2251(3) 0.3225(2) 0.49172(18)
O21_5 O 0.2050(3) 0.3559(2) 0.61062(14)
C38_5 C 0.1564(4) 0.2987(2) 0.59726(18)
C39_5 C 0.1332(3) 0.2456(2) 0.62544(16)
H33_5 H 0.1502 0.2474 0.6553
C40_5 C 0.0581(3) 0.1865(2) 0.56401(15)
H34_5 H 0.0255 0.1488 0.5529
C41_5 C 0.1310(3) 0.2963(2) 0.55288(17)
C42_5 C 0.0816(3) 0.2403(2) 0.53647(15)
O22_5 O 0.0903(3) 0.3810(2) 0.55664(16)
C43_5 C 0.0844(3) 0.1901(2) 0.60859(15)
C44_5 C 0.0078(4) 0.1852(2) 0.47445(17)
H36_5 H 0.0193 0.1535 0.4728
C45_5 C 0.1577(4) 0.3539(2) 0.52218(17)
C46_5 C 0.2126(4) 0.4607(3) 0.4674(2)
C47_5 C 0.2078(4) 0.3664(2) 0.4923(2)
C48_5 C 0.2364(5) 0.4202(3) 0.4655(2)
H38_5 H 0.2707 0.4292 0.4465
C49_5 C 0.1632(4) 0.4496(3) 0.4964(2)
H39_5 H 0.1477 0.4769 0.4974
C50_5 C 0.1373(4) 0.3957(3) 0.52438(19)
C51_5 C 0.2307(6) 0.3598(4) 0.6569(2)
H40_5 H 0.2642 0.4015 0.6624
H41_5 H 0.1989 0.3492 0.6804
H42_5 H 0.2461 0.3312 0.6589
O23_5 O 0.02249(21) 0.08092(14) 0.61882(12)
C52_5 C 0.0662(6) 0.4231(4) 0.5617(3)
H43_5 H 0.0339 0.4072 0.5853
H44_5 H 0.0992 0.4634 0.5713
H45_5 H 0.0494 0.4266 0.5318
C53_5 C 0.2788(6) 0.3343(5) 0.4644(4)
H46_5 H 0.2859 0.2997 0.4674
H47_5 H 0.2720 0.3397 0.4316
H48_5 H 0.3146 0.3714 0.4759
O24_4 O 0.3014(5) 0.5384(4) 0.4257(3)
O25_4 O 0.2161(5) 0.5507(3) 0.4347(3)
C54_5 C 0.2455(6) 0.5206(3) 0.4394(2)
Zn5_2 Zn 0.24902(3) 0.63202(3) 0.40542(2)
Zn7_2 Zn 0.36798(3) 0.61699(4) 0.40542(2)
Zn1_9 Zn 0.0000 1.0000 0.64616(3)
O7_9 O 0.0000 1.0000 0.71441(18)
O10_5 O 0.05866(17) 0.91956(23) 0.68034(12)
O11_5 O 0.18230(18) 0.94060(24) 0.49251(11)
C19_5 C 0.07142(18) 0.93870(26) 0.63782(16)
O12_5 O 0.0973(2) 0.7749(3) 0.49172(18)
O13_5 O 0.1508(2) 0.7950(3) 0.61062(14)
C20_5 C 0.1422(3) 0.8436(4) 0.59726(18)
C21_5 C 0.1123(2) 0.8668(3) 0.62544(16)
H17_5 H 0.0971 0.8498 0.6553
C22_5 C 0.1283(2) 0.9419(3) 0.56401(15)
H18_5 H 0.1232 0.9745 0.5529
C23_5 C 0.1652(2) 0.8690(3) 0.55288(17)
C24_5 C 0.1586(2) 0.9184(3) 0.53647(15)
O14_5 O 0.2906(2) 0.9097(3) 0.55664(16)
C25_5 C 0.1056(2) 0.9156(3) 0.60859(15)
C26_5 C 0.1773(3) 0.9922(4) 0.47445(17)
H20_5 H 0.1341 0.9807 0.4728
C27_5 C 0.1961(3) 0.8423(4) 0.52218(17)
C28_5 C 0.2480(3) 0.7874(4) 0.4674(2)
C29_5 C 0.1585(3) 0.7922(4) 0.4923(2)
C30_5 C 0.1837(4) 0.7636(5) 0.4655(2)
H22_5 H 0.1584 0.7293 0.4465
C31_5 C 0.2863(3) 0.8368(4) 0.4964(2)
H23_5 H 0.3291 0.8523 0.4974
C32_5 C 0.2583(3) 0.8627(4) 0.52438(19)
C33_5 C 0.1290(5) 0.7693(6) 0.6569(2)
H24_5 H 0.1372 0.7358 0.6624
H25_5 H 0.1502 0.8011 0.6804
H26_5 H 0.0850 0.7539 0.6589
O15_5 O 0.05842(15) 0.97751(21) 0.61882(12)
C34_5 C 0.3568(4) 0.9338(6) 0.5617(3)
H27_5 H 0.3732 0.9661 0.5853
H28_5 H 0.3641 0.9008 0.5713
H29_5 H 0.3771 0.9506 0.5318
C35_5 C 0.0554(4) 0.7212(6) 0.4644(4)
H30_5 H 0.0137 0.7141 0.4674
H31_5 H 0.0676 0.7280 0.4316
H32_5 H 0.0567 0.6854 0.4759
O16_4 O 0.2369(3) 0.6986(5) 0.4257(3)
O17_4 O 0.3345(4) 0.7839(5) 0.4347(3)
C36_5 C 0.2750(5) 0.7545(6) 0.4394(2)
Zn9_2 Zn 0.38301(4) 0.75098(3) 0.40542(2)
Zn1_10 Zn 1.0000 -0.0000 0.64616(3)
O7_10 O 1.0000 -0.0000 0.71441(18)
H35_5 H 0.9971 0.1926 0.4433
H37_5 H 0.9726 0.1717 0.4953
Zn1_11 Zn 1.0000 1.0000 0.64616(3)
O1_5 O 0.86089(16) 0.94134(17) 0.68034(12)
O2_5 O 0.75829(16) 0.81770(18) 0.49251(11)
C1_5 C 0.86727(19) 0.92858(18) 0.63782(16)
O3_5 O 0.6775(2) 0.9027(2) 0.49172(18)
O4_5 O 0.6441(2) 0.8492(2) 0.61062(14)
C2_5 C 0.7013(2) 0.8578(3) 0.59726(18)
C3_5 C 0.7544(2) 0.8877(2) 0.62544(16)
H1_5 H 0.7526 0.9029 0.6553
C4_5 C 0.8135(2) 0.8717(2) 0.56401(15)
H2_5 H 0.8512 0.8768 0.5529
C5_5 C 0.7037(2) 0.8348(2) 0.55288(17)
C6_5 C 0.7597(2) 0.8414(2) 0.53647(15)
O5_5 O 0.6190(2) 0.7094(2) 0.55664(16)
C7_5 C 0.8099(2) 0.8944(2) 0.60859(15)
C8_5 C 0.8148(2) 0.8227(3) 0.47445(17)
H3_5 H 0.8074 0.8046 0.4433
H4_5 H 0.8465 0.8659 0.4728
H5_5 H 0.8283 0.8010 0.4953
C9_5 C 0.6461(2) 0.8039(3) 0.52218(17)
C10_5 C 0.5393(3) 0.7520(3) 0.4674(2)
C11_5 C 0.6336(2) 0.8415(3) 0.4923(2)
C12_5 C 0.5798(3) 0.8163(4) 0.4655(2)
H6_5 H 0.5708 0.8416 0.4465
C13_5 C 0.5504(3) 0.7137(3) 0.4964(2)
H7_5 H 0.5231 0.6709 0.4974
C14_5 C 0.6043(3) 0.7417(3) 0.52438(19)
C15_5 C 0.6402(4) 0.8710(5) 0.6569(2)
H8_5 H 0.5985 0.8628 0.6624
H9_5 H 0.6508 0.8498 0.6804
H10_5 H 0.6688 0.9150 0.6589
O6_5 O 0.91908(14) 0.94158(15) 0.61882(12)
O7_11 O 1.0000 1.0000 0.71441(18)
C16_5 C 0.5769(4) 0.6432(4) 0.5617(3)
H11_5 H 0.5928 0.6268 0.5853
H12_5 H 0.5366 0.6359 0.5713
H13_5 H 0.5734 0.6229 0.5318
C17_5 C 0.6657(5) 0.9446(4) 0.4644(4)
H14_5 H 0.7003 0.9863 0.4674
H15_5 H 0.6603 0.9324 0.4316
H16_5 H 0.6286 0.9433 0.4759
O8_4 O 0.4616(4) 0.7631(3) 0.4257(3)
O9_4 O 0.4493(3) 0.6655(4) 0.4347(3)
C18_5 C 0.4794(3) 0.7250(5) 0.4394(2)
O21_6 O 0.5384(3) 0.0225(2) 0.27728(14)
O22_6 O 0.4237(3) 0.0476(2) 0.22330(16)
C45_6 C 0.4911(4) 0.0205(2) 0.18884(17)
C46_6 C 0.5460(4) 0.1273(3) 0.1340(2)
C47_6 C 0.5412(4) 0.0330(2) 0.1589(2)
C48_6 C 0.5698(5) 0.0868(3) 0.1321(2)
H38_6 H 0.6041 0.0958 0.1131
C49_6 C 0.4966(4) 0.1162(3) 0.1630(2)
H39_6 H 0.4811 0.1435 0.1640
C50_6 C 0.4707(4) 0.0623(3) 0.19104(19)
C51_6 C 0.5641(6) 0.0264(4) 0.3235(2)
H40_6 H 0.5976 0.0681 0.3290
H41_6 H 0.5323 0.0158 0.3470
C52_6 C 0.3996(6) 0.0897(4) 0.2283(3)
H43_6 H 0.3673 0.0738 0.2519
H44_6 H 0.4326 0.1300 0.2379
H45_6 H 0.3828 0.0932 0.1984
C53_6 C 0.6122(6) 0.0009(5) 0.1310(4)
H47_6 H 0.6054 0.0063 0.0982
H48_6 H 0.6480 0.0380 0.1425
C54_6 C 0.5789(6) 0.1872(3) 0.1060(2)
Zn1_12 Zn 0.3334 0.6666 0.31282(3)
O1_6 O 0.19423(16) 0.60800(17) 0.34700(12)
O2_6 O 0.09163(16) 0.48436(18) 0.15917(11)
C1_6 C 0.20061(19) 0.59524(18) 0.30448(16)
O3_6 O 0.0109(2) 0.5693(2) 0.15838(18)
C2_6 C 0.0347(2) 0.5244(3) 0.26392(18)
C3_6 C 0.0878(2) 0.5543(2) 0.29210(16)
H1_6 H 0.0860 0.5695 0.3219
C4_6 C 0.1469(2) 0.5383(2) 0.23067(15)
H2_6 H 0.1846 0.5434 0.2195
C5_6 C 0.0371(2) 0.5014(2) 0.21954(17)
C6_6 C 0.0931(2) 0.5080(2) 0.20313(15)
C7_6 C 0.1433(2) 0.5610(2) 0.27525(15)
C8_6 C 0.1482(2) 0.4893(3) 0.14111(17)
H3_6 H 0.1408 0.4712 0.1099
H4_6 H 0.1799 0.5325 0.1394
H5_6 H 0.1617 0.4676 0.1619
H10_6 H 0.0022 0.5816 0.3255
O6_6 O 0.25242(14) 0.60824(15) 0.28548(12)
O7_12 O 0.3334 0.6666 0.38107(18)
H14_6 H 0.0337 0.6529 0.1340
O10_6 O 0.39200(17) 0.58622(23) 0.34700(12)
O11_6 O 0.51564(18) 0.60726(24) 0.15917(11)
C19_6 C 0.40476(18) 0.60536(26) 0.30448(16)
O12_6 O 0.4307(2) 0.4415(3) 0.15838(18)
O13_6 O 0.4842(2) 0.4616(3) 0.27728(14)
C20_6 C 0.4756(3) 0.5102(4) 0.26392(18)
C21_6 C 0.4457(2) 0.5334(3) 0.29210(16)
H17_6 H 0.4305 0.5164 0.3219
C22_6 C 0.4617(2) 0.6085(3) 0.23067(15)
H18_6 H 0.4566 0.6411 0.2195
C23_6 C 0.4986(2) 0.5356(3) 0.21954(17)
C24_6 C 0.4920(2) 0.5850(3) 0.20313(15)
O14_6 O 0.6240(2) 0.5763(3) 0.22330(16)
C25_6 C 0.4390(2) 0.5822(3) 0.27525(15)
C26_6 C 0.5107(3) 0.6588(4) 0.14111(17)
H19_6 H 0.5288 0.6695 0.1099
H20_6 H 0.4675 0.6473 0.1394
H21_6 H 0.5324 0.6940 0.1619
C27_6 C 0.5295(3) 0.5089(4) 0.18884(17)
C28_6 C 0.5814(3) 0.4540(4) 0.1340(2)
C29_6 C 0.4919(3) 0.4588(4) 0.1589(2)
C30_6 C 0.5171(4) 0.4302(5) 0.1321(2)
H22_6 H 0.4918 0.3959 0.1131
C31_6 C 0.6197(3) 0.5034(4) 0.1630(2)
H23_6 H 0.6625 0.5189 0.1640
C32_6 C 0.5917(3) 0.5293(4) 0.19104(19)
C33_6 C 0.4624(5) 0.4359(6) 0.3235(2)
H24_6 H 0.4706 0.4024 0.3290
H25_6 H 0.4836 0.4677 0.3470
H26_6 H 0.4184 0.4205 0.3255
O15_6 O 0.39176(15) 0.64417(21) 0.28548(12)
C34_6 C 0.6902(4) 0.6004(6) 0.2283(3)
H27_6 H 0.7066 0.6327 0.2519
H28_6 H 0.6975 0.5674 0.2379
H29_6 H 0.7105 0.6172 0.1984
C35_6 C 0.3888(4) 0.3878(6) 0.1310(4)
H30_6 H 0.3471 0.3807 0.1340
H31_6 H 0.4010 0.3946 0.0982
H32_6 H 0.3901 0.3520 0.1425
C36_6 C 0.6084(5) 0.4211(6) 0.1060(2)
O18_6 O 0.41378(23) 0.80577(16) 0.34700(12)
O19_6 O 0.39274(24) 0.90837(16) 0.15917(11)
C37_6 C 0.39464(26) 0.79939(19) 0.30448(16)
O20_6 O 0.5585(3) 0.9891(2) 0.15838(18)
C38_6 C 0.4898(4) 0.9653(2) 0.26392(18)
C39_6 C 0.4666(3) 0.9122(2) 0.29210(16)
H33_6 H 0.4836 0.9140 0.3219
C40_6 C 0.3915(3) 0.8531(2) 0.23067(15)
H34_6 H 0.3589 0.8154 0.2195
C41_6 C 0.4644(3) 0.9629(2) 0.21954(17)
C42_6 C 0.4150(3) 0.9069(2) 0.20313(15)
C43_6 C 0.4178(3) 0.8567(2) 0.27525(15)
C44_6 C 0.3412(4) 0.8518(2) 0.14111(17)
H35_6 H 0.3305 0.8592 0.1099
H36_6 H 0.3527 0.8201 0.1394
H37_6 H 0.3060 0.8383 0.1619
H42_6 H 0.5795 0.9978 0.3255
O23_6 O 0.35583(21) 0.74758(14) 0.28548(12)
H46_6 H 0.6193 0.9663 0.1340
O4_6 O 0.9775(2) 0.5158(2) 0.27728(14)
O5_6 O 0.9524(2) 0.3760(2) 0.22330(16)
C9_6 C 0.9795(2) 0.4705(3) 0.18884(17)
C10_6 C 0.8727(3) 0.4186(3) 0.1340(2)
C11_6 C 0.9670(2) 0.5081(3) 0.1589(2)
C12_6 C 0.9132(3) 0.4829(4) 0.1321(2)
H6_6 H 0.9042 0.5082 0.1131
C13_6 C 0.8838(3) 0.3803(3) 0.1630(2)
H7_6 H 0.8565 0.3375 0.1640
C14_6 C 0.9377(3) 0.4083(3) 0.19104(19)
C15_6 C 0.9736(4) 0.5376(5) 0.3235(2)
H8_6 H 0.9319 0.5294 0.3290
H9_6 H 0.9842 0.5164 0.3470
C16_6 C 0.9103(4) 0.3098(4) 0.2283(3)
H11_6 H 0.9262 0.2934 0.2519
H12_6 H 0.8700 0.3025 0.2379
H13_6 H 0.9068 0.2895 0.1984
C17_6 C 0.9991(5) 0.6112(4) 0.1310(4)
H15_6 H 0.9937 0.5990 0.0982
H16_6 H 0.9620 0.6099 0.1425
C18_6 C 0.8128(3) 0.3916(5) 0.1060(2)
loop_
_geom_bond_atom_site_label_1
_geom_bond_atom_site_label_2
_geom_bond_site_symmetry_1
_geom_bond_site_symmetry_2
H11 C16 1_555 1_555
H12 C16 1_555 1_555
H13 C16 1_555 1_555
Zn8 O9 1_555 1_555
Zn1 O6 1_555 1_555
O2 C6 1_555 1_555
C1 C7 1_555 1_555
O3 C11 1_555 1_555
O4 C2 1_555 1_555
C2 C3 1_555 1_555
C3 H1 1_555 1_555
C4 H2 1_555 1_555
C5 C2 1_555 1_555
C6 C4 1_555 1_555
O5 C14 1_555 1_555
C7 C3 1_555 1_555
C8 O2 1_555 1_555
H3 C8 1_555 1_555
H4 C8 1_555 1_555
H5 C8 1_555 1_555
C9 C5 1_555 1_555
C10 C12 1_555 1_555
C11 C9 1_555 1_555
C12 C11 1_555 1_555
H6 C12 1_555 1_555
C13 C10 1_555 1_555
H7 C13 1_555 1_555
C14 C9 1_555 1_555
C15 O4 1_555 1_555
H8 C15 1_555 1_555
H10 C15 1_555 1_555
O6 C1 1_555 1_555
C17 O3 1_555 1_555
H14 C17 1_555 1_555
H15 C17 1_555 1_555
H16 C17 1_555 1_555
O8 C18 1_555 1_555
C18 C10 1_555 1_555
O11 C24 1_555 1_555
O12 C29 1_555 1_555
O13 C20 1_555 1_555
C20 C21 1_555 1_555
C21 H17 1_555 1_555
C22 H18 1_555 1_555
C23 C20 1_555 1_555
C24 C22 1_555 1_555
O14 C32 1_555 1_555
C25 C19 1_555 1_555
C26 O11 1_555 1_555
H19 C26 1_555 1_555
H20 C26 1_555 1_555
H21 C26 1_555 1_555
C27 C23 1_555 1_555
C28 C30 1_555 1_555
C29 C27 1_555 1_555
C30 C29 1_555 1_555
H22 C30 1_555 1_555
C31 C28 1_555 1_555
H23 C31 1_555 1_555
C32 C27 1_555 1_555
C33 O13 1_555 1_555
H24 C33 1_555 1_555
H26 C33 1_555 1_555
O15 Zn1 1_555 1_555
C35 O12 1_555 1_555
H30 C35 1_555 1_555
H31 C35 1_555 1_555
H32 C35 1_555 1_555
O16 C36 1_555 1_555
C36 C28 1_555 1_555
O19 C42 1_555 1_555
O20 C47 1_555 1_555
O21 C38 1_555 1_555
C38 C39 1_555 1_555
C39 H33 1_555 1_555
C40 H34 1_555 1_555
C41 C38 1_555 1_555
C42 C40 1_555 1_555
O22 C50 1_555 1_555
C43 C37 1_555 1_555
C44 O19 1_555 1_555
H35 C44 1_555 1_555
H36 C44 1_555 1_555
H37 C44 1_555 1_555
C45 C41 1_555 1_555
C46 C48 1_555 1_555
C47 C45 1_555 1_555
C48 C47 1_555 1_555
H38 C48 1_555 1_555
C49 C46 1_555 1_555
H39 C49 1_555 1_555
C50 C45 1_555 1_555
C51 O21 1_555 1_555
H40 C51 1_555 1_555
H42 C51 1_555 1_555
O23 Zn1 1_555 1_555
C52 O22 1_555 1_555
H43 C52 1_555 1_555
H44 C52 1_555 1_555
H45 C52 1_555 1_555
C53 O20 1_555 1_555
H46 C53 1_555 1_555
H47 C53 1_555 1_555
H48 C53 1_555 1_555
O24 C54 1_555 1_555
O25 C54 1_555 1_555
C54 C46 1_555 1_555
Zn6 O25 1_555 1_555
Zn10 O8 1_555 1_555
C4 C7 1_555 1_555
C5 C6 1_555 1_555
C13 C14 1_555 1_555
C19 O15 1_555 1_555
C21 C25 1_555 1_555
C22 C25 1_555 1_555
C23 C24 1_555 1_555
C31 C32 1_555 1_555
C37 O23 1_555 1_555
C39 C43 1_555 1_555
C40 C43 1_555 1_555
C41 C42 1_555 1_555
C49 C50 1_555 1_555
Zn2 O1 1_555 1_555
Zn3 O7 1_555 1_555
O10 Zn3 1_555 1_555
Zn4 O7 1_555 1_555
O18 Zn4 1_555 1_555
O26 Zn4 1_555 1_555
O27 Zn2 1_555 1_555
O28 Zn3 1_555 1_555
O29 Zn3 1_555 1_555
O30 Zn4 1_555 1_555
O31 Zn2 1_555 1_555
Zn2 O7 1_555 1_555
H27 C34 1_555 1_555
H28 C34 1_555 1_555
H29 C34 1_555 1_555
Zn10 O17 1_555 1_555
Zn1_2 O6_2 1_555 1_555
Zn6 O1_2 1_555 1_555
O1_2 C1_2 1_555 1_555
O2_2 C6_2 1_555 1_555
C1_2 C7_2 1_555 1_555
O3_2 C11_2 1_555 1_555
O4_2 C2_2 1_555 1_555
C2_2 C3_2 1_555 1_555
C3_2 H1_2 1_555 1_555
C4_2 H2_2 1_555 1_555
C5_2 C2_2 1_555 1_555
C6_2 C4_2 1_555 1_555
O5_2 C14_2 1_555 1_555
C7_2 C3_2 1_555 1_555
C8_2 O2_2 1_555 1_555
H3_2 C8_2 1_555 1_555
H4_2 C8_2 1_555 1_555
H5_2 C8_2 1_555 1_555
C9_2 C5_2 1_555 1_555
C10_2 C12_2 1_555 1_555
C11_2 C9_2 1_555 1_555
C12_2 C11_2 1_555 1_555
H6_2 C12_2 1_555 1_555
C13_2 C10_2 1_555 1_555
H7_2 C13_2 1_555 1_555
C14_2 C9_2 1_555 1_555
C15_2 O4_2 1_555 1_555
H8_2 C15_2 1_555 1_555
H9_2 C15_2 1_555 1_555
H10_2 C15_2 1_555 1_555
O6_2 C1_2 1_555 1_555
O7_2 Zn1_2 1_555 1_555
C16_2 O5_2 1_555 1_555
H11_2 C16_2 1_555 1_555
H12_2 C16_2 1_555 1_555
H13_2 C16_2 1_555 1_555
C17_2 O3_2 1_555 1_555
H14_2 C17_2 1_555 1_555
H15_2 C17_2 1_555 1_555
H16_2 C17_2 1_555 1_555
O8_2 C18_2 1_555 1_555
O9_2 C18_2 1_555 1_555
C18_2 C10_2 1_555 1_555
Zn8_2 O9_2 1_555 1_555
Zn10_2 O8_2 1_555 1_555
Zn6 O7_2 1_555 1_555
C4_2 C7_2 1_555 1_555
C5_2 C6_2 1_555 1_555
C13_2 C14_2 1_555 1_555
O7_3 Zn1_3 1_555 1_555
O7_4 Zn1_4 1_555 1_555
Zn8 O7_4 1_555 1_555
O10_2 Zn8 1_555 1_555
O11_2 C24_2 1_555 1_555
C19_2 O10_2 1_555 1_555
O12_2 C29_2 1_555 1_555
O13_2 C20_2 1_555 1_555
C20_2 C21_2 1_555 1_555
C21_2 H17_2 1_555 1_555
C22_2 H18_2 1_555 1_555
C23_2 C20_2 1_555 1_555
C24_2 C22_2 1_555 1_555
O14_2 C32_2 1_555 1_555
C25_2 C19_2 1_555 1_555
C26_2 O11_2 1_555 1_555
H20_2 C26_2 1_555 1_555
C27_2 C23_2 1_555 1_555
C28_2 C30_2 1_555 1_555
C29_2 C27_2 1_555 1_555
C30_2 C29_2 1_555 1_555
H22_2 C30_2 1_555 1_555
C31_2 C28_2 1_555 1_555
H23_2 C31_2 1_555 1_555
C32_2 C27_2 1_555 1_555
C33_2 O13_2 1_555 1_555
H24_2 C33_2 1_555 1_555
H25_2 C33_2 1_555 1_555
H26_2 C33_2 1_555 1_555
O15_2 Zn1_4 1_555 1_555
C34_2 O14_2 1_555 1_555
H27_2 C34_2 1_555 1_555
H28_2 C34_2 1_555 1_555
H29_2 C34_2 1_555 1_555
C35_2 O12_2 1_555 1_555
H30_2 C35_2 1_555 1_555
H31_2 C35_2 1_555 1_555
H32_2 C35_2 1_555 1_555
O16_2 C36_2 1_555 1_555
O17_2 C36_2 1_555 1_555
C36_2 C28_2 1_555 1_555
Zn6_2 O16_2 1_555 1_555
Zn10_2 O17_2 1_555 1_555
C19_2 O15_2 1_555 1_555
C21_2 C25_2 1_555 1_555
C22_2 C25_2 1_555 1_555
C23_2 C24_2 1_555 1_555
C31_2 C32_2 1_555 1_555
O7_5 Zn1_5 1_555 1_555
Zn10 O7_5 1_555 1_555
O18_2 Zn10 1_555 1_555
O19_2 C42_2 1_555 1_555
C37_2 O18_2 1_555 1_555
O20_2 C47_2 1_555 1_555
O21_2 C38_2 1_555 1_555
C38_2 C39_2 1_555 1_555
C39_2 H33_2 1_555 1_555
C40_2 H34_2 1_555 1_555
C41_2 C38_2 1_555 1_555
C42_2 C40_2 1_555 1_555
O22_2 C50_2 1_555 1_555
C43_2 C37_2 1_555 1_555
C44_2 O19_2 1_555 1_555
H36_2 C44_2 1_555 1_555
C45_2 C41_2 1_555 1_555
C46_2 C48_2 1_555 1_555
C47_2 C45_2 1_555 1_555
C48_2 C47_2 1_555 1_555
H38_2 C48_2 1_555 1_555
C49_2 C46_2 1_555 1_555
H39_2 C49_2 1_555 1_555
C50_2 C45_2 1_555 1_555
C51_2 O21_2 1_555 1_555
H40_2 C51_2 1_555 1_555
H41_2 C51_2 1_555 1_555
H42_2 C51_2 1_555 1_555
O23_2 Zn1_5 1_555 1_555
C52_2 O22_2 1_555 1_555
H43_2 C52_2 1_555 1_555
H44_2 C52_2 1_555 1_555
H45_2 C52_2 1_555 1_555
C53_2 O20_2 1_555 1_555
H46_2 C53_2 1_555 1_555
H47_2 C53_2 1_555 1_555
H48_2 C53_2 1_555 1_555
O24_2 C54_2 1_555 1_555
O25_2 C54_2 1_555 1_555
C54_2 C46_2 1_555 1_555
Zn6_2 O25_2 1_555 1_555
Zn8_2 O24_2 1_555 1_555
C37_2 O23_2 1_555 1_555
C39_2 C43_2 1_555 1_555
C40_2 C43_2 1_555 1_555
C41_2 C42_2 1_555 1_555
C49_2 C50_2 1_555 1_555
O5_3 C14_3 1_555 1_555
C10_3 C12_3 1_555 1_555
C11_3 C9_3 1_555 1_555
C12_3 C11_3 1_555 1_555
H6_3 C12_3 1_555 1_555
C13_3 C10_3 1_555 1_555
H7_3 C13_3 1_555 1_555
C14_3 C9_3 1_555 1_555
C15_3 O4_3 1_555 1_555
H8_3 C15_3 1_555 1_555
H9_3 C15_3 1_555 1_555
C16_3 O5_3 1_555 1_555
H11_3 C16_3 1_555 1_555
H12_3 C16_3 1_555 1_555
H13_3 C16_3 1_555 1_555
H15_3 C17_3 1_555 1_555
H16_3 C17_3 1_555 1_555
O26 C18_3 1_555 1_555
O29 C18_3 1_555 1_555
C18_3 C10_3 1_555 1_555
C13_3 C14_3 1_555 1_555
Zn1_6 O6_3 1_555 1_555
Zn6_2 O1_3 1_555 1_555
O1_3 C1_3 1_555 1_555
O2_3 C6_3 1_555 1_555
C1_3 C7_3 1_555 1_555
C2_3 C3_3 1_555 1_555
C3_3 H1_3 1_555 1_555
C4_3 H2_3 1_555 1_555
C5_3 C2_3 1_555 1_555
C6_3 C4_3 1_555 1_555
C7_3 C3_3 1_555 1_555
C8_3 O2_3 1_555 1_555
H3_3 C8_3 1_555 1_555
H4_3 C8_3 1_555 1_555
H5_3 C8_3 1_555 1_555
O6_3 C1_3 1_555 1_555
O7_6 Zn1_6 1_555 1_555
Zn8_2 O7_6 1_555 1_555
O10_3 Zn8_2 1_555 1_555
O11_3 C24_3 1_555 1_555
C19_3 O10_3 1_555 1_555
O12_3 C29_3 1_555 1_555
O13_3 C20_3 1_555 1_555
C20_3 C21_3 1_555 1_555
C21_3 H17_3 1_555 1_555
C22_3 H18_3 1_555 1_555
C23_3 C20_3 1_555 1_555
C24_3 C22_3 1_555 1_555
O14_3 C32_3 1_555 1_555
C25_3 C19_3 1_555 1_555
C26_3 O11_3 1_555 1_555
H19_3 C26_3 1_555 1_555
H20_3 C26_3 1_555 1_555
H21_3 C26_3 1_555 1_555
C27_3 C23_3 1_555 1_555
C28_3 C30_3 1_555 1_555
C29_3 C27_3 1_555 1_555
C30_3 C29_3 1_555 1_555
H22_3 C30_3 1_555 1_555
C31_3 C28_3 1_555 1_555
H23_3 C31_3 1_555 1_555
C32_3 C27_3 1_555 1_555
C33_3 O13_3 1_555 1_555
H24_3 C33_3 1_555 1_555
H25_3 C33_3 1_555 1_555
H26_3 C33_3 1_555 1_555
O15_3 Zn1_6 1_555 1_555
C34_3 O14_3 1_555 1_555
H27_3 C34_3 1_555 1_555
H28_3 C34_3 1_555 1_555
H29_3 C34_3 1_555 1_555
C35_3 O12_3 1_555 1_555
H30_3 C35_3 1_555 1_555
H31_3 C35_3 1_555 1_555
H32_3 C35_3 1_555 1_555
O27 C36_3 1_555 1_555
O30 C36_3 1_555 1_555
C36_3 C28_3 1_555 1_555
Zn10_2 O7_6 1_555 1_555
O18_3 Zn10_2 1_555 1_555
O19_3 C42_3 1_555 1_555
C37_3 O18_3 1_555 1_555
C38_3 C39_3 1_555 1_555
C39_3 H33_3 1_555 1_555
C40_3 H34_3 1_555 1_555
C41_3 C38_3 1_555 1_555
C42_3 C40_3 1_555 1_555
C43_3 C37_3 1_555 1_555
C44_3 O19_3 1_555 1_555
H35_3 C44_3 1_555 1_555
H36_3 C44_3 1_555 1_555
H37_3 C44_3 1_555 1_555
O23_3 Zn1_6 1_555 1_555
Zn6_2 O7_6 1_555 1_555
C4_3 C7_3 1_555 1_555
C5_3 C6_3 1_555 1_555
C19_3 O15_3 1_555 1_555
C21_3 C25_3 1_555 1_555
C22_3 C25_3 1_555 1_555
C23_3 C24_3 1_555 1_555
C31_3 C32_3 1_555 1_555
C37_3 O23_3 1_555 1_555
C39_3 C43_3 1_555 1_555
C40_3 C43_3 1_555 1_555
C41_3 C42_3 1_555 1_555
O22_3 C50_3 1_555 1_555
C46_3 C48_3 1_555 1_555
C47_3 C45_3 1_555 1_555
C48_3 C47_3 1_555 1_555
H38_3 C48_3 1_555 1_555
C49_3 C46_3 1_555 1_555
H39_3 C49_3 1_555 1_555
C50_3 C45_3 1_555 1_555
C51_3 O21_3 1_555 1_555
H40_3 C51_3 1_555 1_555
H41_3 C51_3 1_555 1_555
C52_3 O22_3 1_555 1_555
H43_3 C52_3 1_555 1_555
H44_3 C52_3 1_555 1_555
H45_3 C52_3 1_555 1_555
H47_3 C53_3 1_555 1_555
H48_3 C53_3 1_555 1_555
O28 C54_3 1_555 1_555
O31 C54_3 1_555 1_555
C54_3 C46_3 1_555 1_555
C49_3 C50_3 1_555 1_555
H27_4 C34_4 1_555 1_555
H28_4 C34_4 1_555 1_555
H29_4 C34_4 1_555 1_555
Zn9 O17_3 1_555 1_555
Zn2_2 O1_4 1_555 1_555
Zn3_2 O7_7 1_555 1_555
O10_4 Zn3_2 1_555 1_555
Zn4_2 O7_7 1_555 1_555
O18_4 Zn4_2 1_555 1_555
O26_2 Zn4_2 1_555 1_555
O27_2 Zn2_2 1_555 1_555
O28_2 Zn3_2 1_555 1_555
O29_2 Zn3_2 1_555 1_555
O30_2 Zn4_2 1_555 1_555
O31_2 Zn2_2 1_555 1_555
Zn2_2 O7_7 1_555 1_555
Zn1_7 O6_4 1_555 1_555
O2_4 C6_4 1_555 1_555
C1_4 C7_4 1_555 1_555
O3_4 C11_4 1_555 1_555
O4_4 C2_4 1_555 1_555
C2_4 C3_4 1_555 1_555
C3_4 H1_4 1_555 1_555
C4_4 H2_4 1_555 1_555
C5_4 C2_4 1_555 1_555
C6_4 C4_4 1_555 1_555
O5_4 C14_4 1_555 1_555
C7_4 C3_4 1_555 1_555
C8_4 O2_4 1_555 1_555
H3_4 C8_4 1_555 1_555
H4_4 C8_4 1_555 1_555
H5_4 C8_4 1_555 1_555
C9_4 C5_4 1_555 1_555
C10_4 C12_4 1_555 1_555
C11_4 C9_4 1_555 1_555
C12_4 C11_4 1_555 1_555
H6_4 C12_4 1_555 1_555
C13_4 C10_4 1_555 1_555
H7_4 C13_4 1_555 1_555
C14_4 C9_4 1_555 1_555
C15_4 O4_4 1_555 1_555
H8_4 C15_4 1_555 1_555
H10_4 C15_4 1_555 1_555
O6_4 C1_4 1_555 1_555
C17_4 O3_4 1_555 1_555
H14_4 C17_4 1_555 1_555
H15_4 C17_4 1_555 1_555
H16_4 C17_4 1_555 1_555
O8_3 C18_4 1_555 1_555
C18_4 C10_4 1_555 1_555
O11_4 C24_4 1_555 1_555
O12_4 C29_4 1_555 1_555
O13_4 C20_4 1_555 1_555
C20_4 C21_4 1_555 1_555
C21_4 H17_4 1_555 1_555
C22_4 H18_4 1_555 1_555
C23_4 C20_4 1_555 1_555
C24_4 C22_4 1_555 1_555
O14_4 C32_4 1_555 1_555
C25_4 C19_4 1_555 1_555
C26_4 O11_4 1_555 1_555
H19_4 C26_4 1_555 1_555
H20_4 C26_4 1_555 1_555
H21_4 C26_4 1_555 1_555
C27_4 C23_4 1_555 1_555
C28_4 C30_4 1_555 1_555
C29_4 C27_4 1_555 1_555
C30_4 C29_4 1_555 1_555
H22_4 C30_4 1_555 1_555
C31_4 C28_4 1_555 1_555
H23_4 C31_4 1_555 1_555
C32_4 C27_4 1_555 1_555
C33_4 O13_4 1_555 1_555
H24_4 C33_4 1_555 1_555
H26_4 C33_4 1_555 1_555
O15_4 Zn1_7 1_555 1_555
C35_4 O12_4 1_555 1_555
H30_4 C35_4 1_555 1_555
H31_4 C35_4 1_555 1_555
H32_4 C35_4 1_555 1_555
O16_3 C36_4 1_555 1_555
C36_4 C28_4 1_555 1_555
O19_4 C42_4 1_555 1_555
O20_4 C47_4 1_555 1_555
O21_4 C38_4 1_555 1_555
C38_4 C39_4 1_555 1_555
C39_4 H33_4 1_555 1_555
C40_4 H34_4 1_555 1_555
C41_4 C38_4 1_555 1_555
C42_4 C40_4 1_555 1_555
O22_4 C50_4 1_555 1_555
C43_4 C37_4 1_555 1_555
C44_4 O19_4 1_555 1_555
H35_4 C44_4 1_555 1_555
H36_4 C44_4 1_555 1_555
H37_4 C44_4 1_555 1_555
C45_4 C41_4 1_555 1_555
C46_4 C48_4 1_555 1_555
C47_4 C45_4 1_555 1_555
C48_4 C47_4 1_555 1_555
H38_4 C48_4 1_555 1_555
C49_4 C46_4 1_555 1_555
H39_4 C49_4 1_555 1_555
C50_4 C45_4 1_555 1_555
C51_4 O21_4 1_555 1_555
H40_4 C51_4 1_555 1_555
H42_4 C51_4 1_555 1_555
O23_4 Zn1_7 1_555 1_555
C52_4 O22_4 1_555 1_555
H43_4 C52_4 1_555 1_555
H44_4 C52_4 1_555 1_555
H45_4 C52_4 1_555 1_555
C53_4 O20_4 1_555 1_555
H46_4 C53_4 1_555 1_555
H47_4 C53_4 1_555 1_555
H48_4 C53_4 1_555 1_555
O24_3 C54_4 1_555 1_555
O25_3 C54_4 1_555 1_555
C54_4 C46_4 1_555 1_555
Zn5 O25_3 1_555 1_555
Zn9 O8_3 1_555 1_555
C4_4 C7_4 1_555 1_555
C5_4 C6_4 1_555 1_555
C13_4 C14_4 1_555 1_555
C19_4 O15_4 1_555 1_555
C21_4 C25_4 1_555 1_555
C22_4 C25_4 1_555 1_555
C23_4 C24_4 1_555 1_555
C31_4 C32_4 1_555 1_555
C37_4 O23_4 1_555 1_555
C39_4 C43_4 1_555 1_555
C40_4 C43_4 1_555 1_555
C41_4 C42_4 1_555 1_555
C49_4 C50_4 1_555 1_555
H11_4 C16_4 1_555 1_555
H12_4 C16_4 1_555 1_555
H13_4 C16_4 1_555 1_555
Zn7 O9_3 1_555 1_555
O7_8 Zn1_8 1_555 1_555
Zn9 O7_8 1_555 1_555
O18_5 Zn9 1_555 1_555
O19_5 C42_5 1_555 1_555
C37_5 O18_5 1_555 1_555
O20_5 C47_5 1_555 1_555
O21_5 C38_5 1_555 1_555
C38_5 C39_5 1_555 1_555
C39_5 H33_5 1_555 1_555
C40_5 H34_5 1_555 1_555
C41_5 C38_5 1_555 1_555
C42_5 C40_5 1_555 1_555
O22_5 C50_5 1_555 1_555
C43_5 C37_5 1_555 1_555
C44_5 O19_5 1_555 1_555
H36_5 C44_5 1_555 1_555
C45_5 C41_5 1_555 1_555
C46_5 C48_5 1_555 1_555
C47_5 C45_5 1_555 1_555
C48_5 C47_5 1_555 1_555
H38_5 C48_5 1_555 1_555
C49_5 C46_5 1_555 1_555
H39_5 C49_5 1_555 1_555
C50_5 C45_5 1_555 1_555
C51_5 O21_5 1_555 1_555
H40_5 C51_5 1_555 1_555
H41_5 C51_5 1_555 1_555
H42_5 C51_5 1_555 1_555
O23_5 Zn1_8 1_555 1_555
C52_5 O22_5 1_555 1_555
H43_5 C52_5 1_555 1_555
H44_5 C52_5 1_555 1_555
H45_5 C52_5 1_555 1_555
C53_5 O20_5 1_555 1_555
H46_5 C53_5 1_555 1_555
H47_5 C53_5 1_555 1_555
H48_5 C53_5 1_555 1_555
O24_4 C54_5 1_555 1_555
O25_4 C54_5 1_555 1_555
C54_5 C46_5 1_555 1_555
Zn5_2 O25_4 1_555 1_555
Zn7_2 O24_4 1_555 1_555
C37_5 O23_5 1_555 1_555
C39_5 C43_5 1_555 1_555
C40_5 C43_5 1_555 1_555
C41_5 C42_5 1_555 1_555
C49_5 C50_5 1_555 1_555
O7_9 Zn1_9 1_555 1_555
Zn7 O7_9 1_555 1_555
O10_5 Zn7 1_555 1_555
O11_5 C24_5 1_555 1_555
C19_5 O10_5 1_555 1_555
O12_5 C29_5 1_555 1_555
O13_5 C20_5 1_555 1_555
C20_5 C21_5 1_555 1_555
C21_5 H17_5 1_555 1_555
C22_5 H18_5 1_555 1_555
C23_5 C20_5 1_555 1_555
C24_5 C22_5 1_555 1_555
O14_5 C32_5 1_555 1_555
C25_5 C19_5 1_555 1_555
C26_5 O11_5 1_555 1_555
H20_5 C26_5 1_555 1_555
C27_5 C23_5 1_555 1_555
C28_5 C30_5 1_555 1_555
C29_5 C27_5 1_555 1_555
C30_5 C29_5 1_555 1_555
H22_5 C30_5 1_555 1_555
C31_5 C28_5 1_555 1_555
H23_5 C31_5 1_555 1_555
C32_5 C27_5 1_555 1_555
C33_5 O13_5 1_555 1_555
H24_5 C33_5 1_555 1_555
H25_5 C33_5 1_555 1_555
H26_5 C33_5 1_555 1_555
O15_5 Zn1_9 1_555 1_555
C34_5 O14_5 1_555 1_555
H27_5 C34_5 1_555 1_555
H28_5 C34_5 1_555 1_555
H29_5 C34_5 1_555 1_555
C35_5 O12_5 1_555 1_555
H30_5 C35_5 1_555 1_555
H31_5 C35_5 1_555 1_555
H32_5 C35_5 1_555 1_555
O16_4 C36_5 1_555 1_555
O17_4 C36_5 1_555 1_555
C36_5 C28_5 1_555 1_555
Zn5_2 O16_4 1_555 1_555
Zn9_2 O17_4 1_555 1_555
C19_5 O15_5 1_555 1_555
C21_5 C25_5 1_555 1_555
C22_5 C25_5 1_555 1_555
C23_5 C24_5 1_555 1_555
C31_5 C32_5 1_555 1_555
O7_10 Zn1_10 1_555 1_555
Zn1_11 O6_5 1_555 1_555
Zn5 O1_5 1_555 1_555
O1_5 C1_5 1_555 1_555
O2_5 C6_5 1_555 1_555
C1_5 C7_5 1_555 1_555
O3_5 C11_5 1_555 1_555
O4_5 C2_5 1_555 1_555
C2_5 C3_5 1_555 1_555
C3_5 H1_5 1_555 1_555
C4_5 H2_5 1_555 1_555
C5_5 C2_5 1_555 1_555
C6_5 C4_5 1_555 1_555
O5_5 C14_5 1_555 1_555
C7_5 C3_5 1_555 1_555
C8_5 O2_5 1_555 1_555
H3_5 C8_5 1_555 1_555
H4_5 C8_5 1_555 1_555
H5_5 C8_5 1_555 1_555
C9_5 C5_5 1_555 1_555
C10_5 C12_5 1_555 1_555
C11_5 C9_5 1_555 1_555
C12_5 C11_5 1_555 1_555
H6_5 C12_5 1_555 1_555
C13_5 C10_5 1_555 1_555
H7_5 C13_5 1_555 1_555
C14_5 C9_5 1_555 1_555
C15_5 O4_5 1_555 1_555
H8_5 C15_5 1_555 1_555
H9_5 C15_5 1_555 1_555
H10_5 C15_5 1_555 1_555
O6_5 C1_5 1_555 1_555
O7_11 Zn1_11 1_555 1_555
C16_5 O5_5 1_555 1_555
H11_5 C16_5 1_555 1_555
H12_5 C16_5 1_555 1_555
H13_5 C16_5 1_555 1_555
C17_5 O3_5 1_555 1_555
H14_5 C17_5 1_555 1_555
H15_5 C17_5 1_555 1_555
H16_5 C17_5 1_555 1_555
O8_4 C18_5 1_555 1_555
O9_4 C18_5 1_555 1_555
C18_5 C10_5 1_555 1_555
Zn7_2 O9_4 1_555 1_555
Zn9_2 O8_4 1_555 1_555
Zn5 O7_11 1_555 1_555
C4_5 C7_5 1_555 1_555
C5_5 C6_5 1_555 1_555
C13_5 C14_5 1_555 1_555
O22_6 C50_6 1_555 1_555
C46_6 C48_6 1_555 1_555
C47_6 C45_6 1_555 1_555
C48_6 C47_6 1_555 1_555
H38_6 C48_6 1_555 1_555
C49_6 C46_6 1_555 1_555
H39_6 C49_6 1_555 1_555
C50_6 C45_6 1_555 1_555
C51_6 O21_6 1_555 1_555
H40_6 C51_6 1_555 1_555
H41_6 C51_6 1_555 1_555
C52_6 O22_6 1_555 1_555
H43_6 C52_6 1_555 1_555
H44_6 C52_6 1_555 1_555
H45_6 C52_6 1_555 1_555
H47_6 C53_6 1_555 1_555
H48_6 C53_6 1_555 1_555
O28_2 C54_6 1_555 1_555
O31_2 C54_6 1_555 1_555
C54_6 C46_6 1_555 1_555
C49_6 C50_6 1_555 1_555
Zn1_12 O6_6 1_555 1_555
Zn5_2 O1_6 1_555 1_555
O1_6 C1_6 1_555 1_555
O2_6 C6_6 1_555 1_555
C1_6 C7_6 1_555 1_555
C2_6 C3_6 1_555 1_555
C3_6 H1_6 1_555 1_555
C4_6 H2_6 1_555 1_555
C5_6 C2_6 1_555 1_555
C6_6 C4_6 1_555 1_555
C7_6 C3_6 1_555 1_555
C8_6 O2_6 1_555 1_555
H3_6 C8_6 1_555 1_555
H4_6 C8_6 1_555 1_555
H5_6 C8_6 1_555 1_555
O6_6 C1_6 1_555 1_555
O7_12 Zn1_12 1_555 1_555
Zn7_2 O7_12 1_555 1_555
O10_6 Zn7_2 1_555 1_555
O11_6 C24_6 1_555 1_555
C19_6 O10_6 1_555 1_555
O12_6 C29_6 1_555 1_555
O13_6 C20_6 1_555 1_555
C20_6 C21_6 1_555 1_555
C21_6 H17_6 1_555 1_555
C22_6 H18_6 1_555 1_555
C23_6 C20_6 1_555 1_555
C24_6 C22_6 1_555 1_555
O14_6 C32_6 1_555 1_555
C25_6 C19_6 1_555 1_555
C26_6 O11_6 1_555 1_555
H19_6 C26_6 1_555 1_555
H20_6 C26_6 1_555 1_555
H21_6 C26_6 1_555 1_555
C27_6 C23_6 1_555 1_555
C28_6 C30_6 1_555 1_555
C29_6 C27_6 1_555 1_555
C30_6 C29_6 1_555 1_555
H22_6 C30_6 1_555 1_555
C31_6 C28_6 1_555 1_555
H23_6 C31_6 1_555 1_555
C32_6 C27_6 1_555 1_555
C33_6 O13_6 1_555 1_555
H24_6 C33_6 1_555 1_555
H25_6 C33_6 1_555 1_555
H26_6 C33_6 1_555 1_555
O15_6 Zn1_12 1_555 1_555
C34_6 O14_6 1_555 1_555
H27_6 C34_6 1_555 1_555
H28_6 C34_6 1_555 1_555
H29_6 C34_6 1_555 1_555
C35_6 O12_6 1_555 1_555
H30_6 C35_6 1_555 1_555
H31_6 C35_6 1_555 1_555
H32_6 C35_6 1_555 1_555
O27_2 C36_6 1_555 1_555
O30_2 C36_6 1_555 1_555
C36_6 C28_6 1_555 1_555
Zn9_2 O7_12 1_555 1_555
O18_6 Zn9_2 1_555 1_555
O19_6 C42_6 1_555 1_555
C37_6 O18_6 1_555 1_555
C38_6 C39_6 1_555 1_555
C39_6 H33_6 1_555 1_555
C40_6 H34_6 1_555 1_555
C41_6 C38_6 1_555 1_555
C42_6 C40_6 1_555 1_555
C43_6 C37_6 1_555 1_555
C44_6 O19_6 1_555 1_555
H35_6 C44_6 1_555 1_555
H36_6 C44_6 1_555 1_555
H37_6 C44_6 1_555 1_555
O23_6 Zn1_12 1_555 1_555
Zn5_2 O7_12 1_555 1_555
C4_6 C7_6 1_555 1_555
C5_6 C6_6 1_555 1_555
C19_6 O15_6 1_555 1_555
C21_6 C25_6 1_555 1_555
C22_6 C25_6 1_555 1_555
C23_6 C24_6 1_555 1_555
C31_6 C32_6 1_555 1_555
C37_6 O23_6 1_555 1_555
C39_6 C43_6 1_555 1_555
C40_6 C43_6 1_555 1_555
C41_6 C42_6 1_555 1_555
O5_6 C14_6 1_555 1_555
C10_6 C12_6 1_555 1_555
C11_6 C9_6 1_555 1_555
C12_6 C11_6 1_555 1_555
H6_6 C12_6 1_555 1_555
C13_6 C10_6 1_555 1_555
H7_6 C13_6 1_555 1_555
C14_6 C9_6 1_555 1_555
C15_6 O4_6 1_555 1_555
H8_6 C15_6 1_555 1_555
H9_6 C15_6 1_555 1_555
C16_6 O5_6 1_555 1_555
H11_6 C16_6 1_555 1_555
H12_6 C16_6 1_555 1_555
H13_6 C16_6 1_555 1_555
H15_6 C17_6 1_555 1_555
H16_6 C17_6 1_555 1_555
O26_2 C18_6 1_555 1_555
O29_2 C18_6 1_555 1_555
C18_6 C10_6 1_555 1_555
C13_6 C14_6 1_555 1_555

#END
