
###############################################################################
#
# This file contains modified crystal structure data generated from the
# MOF subset of the Cambridge Structural Database (CSD) v543 
# hosted by the Cambridge Crystallographic Data Centre (CCDC).
#
# This work is licensed under the Creative Commons
# Attribution-NonCommercial-ShareAlike 4.0 International License.
# To view a copy of this license, visit
# http://creativecommons.org/licenses/by-nc-sa/4.0/
# or send a letter to
# Creative Commons, PO Box 1866, Mountain View, CA 94042, USA.
#
# CIF created using the CSD Python API on 29 September 2022
# The structure has been converted into the P1 space group
# The structure has a 3D framework
# The original CSD entry MAQBIS is in the monoclinic crystal system
# The framework has been calculated to contain at least 10.0% void space
# The void calculation uses a probe of radius 1.32A, grid spacing 0.4
#
###############################################################################

data_MAQBIS
_chemical_formula_moiety         '(C228 H236 Cu12 N4 O108)n'
_symmetry_cell_setting           triclinic
_symmetry_space_group_name_H-M   'P 1'
_symmetry_Int_Tables_number      1
_space_group_name_Hall           'P 1'
loop_
_symmetry_equiv_pos_site_id
_symmetry_equiv_pos_as_xyz
1 x,y,z
_cell_length_a                   15.3035(3)
_cell_length_b                   39.6946(6)
_cell_length_c                   21.5934(5)
_cell_angle_alpha                90
_cell_angle_beta                 107.402(2)
_cell_angle_gamma                90
_cell_volume                     12516.9
loop_
_atom_site_label
_atom_site_type_symbol
_atom_site_fract_x
_atom_site_fract_y
_atom_site_fract_z
Cu8 Cu 0.01863(2) 0.507829(9) 0.445914(17)
O5 O 0.75696(12) 0.22653(5) 0.57063(8)
O6 O 0.84422(13) 0.26793(5) 0.62768(9)
C1 C 0.61353(16) 0.04743(7) 0.01735(13)
C4 C 0.81733(16) 0.24922(7) 0.57918(12)
C7 C 0.95931(17) 0.20139(7) 0.07185(13)
H2 H 0.9479 0.2238 0.0596
C8 C 0.95494(18) 0.25952(8) 0.43461(13)
C9 C 0.82917(18) 0.11970(7) 0.05936(14)
C12 C 0.7723(2) 0.11708(8) 0.09951(15)
C13 C 0.98390(19) 0.28417(8) 0.33521(13)
C14 C 0.90584(18) 0.14471(7) 0.07491(14)
C15 C 0.88880(17) 0.17853(7) 0.05817(13)
C16 C 0.81330(18) 0.09895(8) 0.00517(14)
C19 C 0.70234(18) 0.09364(7) 0.08617(14)
H4 H 0.6655 0.0916 0.1133
C22 C 0.98294(18) 0.27847(7) 0.49186(14)
C24 C 0.68765(17) 0.07322(7) 0.03205(13)
C31 C 0.8807(2) 0.23766(9) 0.42452(14)
C32 C 0.99565(19) 0.13417(8) 0.10637(15)
O13 O 0.56970(12) 0.04407(5) 0.05823(10)
O14 O 0.79931(12) 0.18578(5) 0.02663(10)
O18 O 0.79269(15) 0.13840(6) 0.15105(11)
O20 O 0.90791(15) 0.30325(6) 0.33177(10)
C34 C 0.83461(19) 0.23473(8) 0.47079(14)
H13 H 0.7848 0.2203 0.4637
C35 C 0.93653(18) 0.27570(7) 0.53873(13)
H14 H 0.9544 0.2885 0.5765
O26 O 0.85875(16) 0.21994(8) 0.36759(12)
C38 C 0.86312(17) 0.25337(7) 0.52732(12)
C43 C 0.7790(2) 0.21996(9) 0.00766(16)
H19 H 0.7957 0.2341 0.0454
C45 C 0.8802(2) 0.32638(10) 0.28050(17)
H23 H 0.8267 0.3382 0.2832
H24 H 0.8662 0.3146 0.2399
H25 H 0.9286 0.3422 0.2833
C48 C 0.7373(3) 0.13581(10) 0.19390(18)
H32 H 0.7578 0.1519 0.2284
H33 H 0.7424 0.1135 0.2118
H34 H 0.6745 0.1403 0.1702
C55 C 0.7830(3) 0.19828(18) 0.3550(2)
H51 H 0.7746 0.1872 0.3141
H52 H 0.7291 0.2111 0.3535
H53 H 0.7933 0.1817 0.3888
C57 C 0.9874(5) 0.37022(17) 0.0019(3)
H58 H 0.9291 0.3764 0.0065
Cu4 Cu 0.79913(2) 0.263517(9) 0.702848(16)
Cu5 Cu 0.69147(2) 0.216615(9) 0.633712(16)
Cu7 Cu 0.48137(2) 0.007829(9) 0.054086(17)
O30 O 0.08278(13) 0.52222(5) 0.59776(10)
O32 O 0.06970(12) 0.45593(5) 0.55823(10)
O5_2 O 0.74304(12) 0.72653(5) 0.92937(8)
O6_2 O 0.65578(13) 0.76793(5) 0.87232(9)
C4_2 C 0.68267(16) 0.74922(7) 0.92082(12)
C35_2 C 0.56347(18) 0.77570(7) 0.96127(13)
H14_2 H 0.5456 0.7885 0.9235
C38_2 C 0.63688(17) 0.75337(7) 0.97268(12)
C44 C 0.4086(2) 0.81685(9) 0.94292(15)
H20 H 0.3573 0.8302 0.9450
H21 H 0.3894 0.8012 0.9075
H22 H 0.4554 0.8313 0.9364
Cu4_2 Cu 0.70087(2) 0.763517(9) 0.797152(16)
Cu5_2 Cu 0.80853(2) 0.716615(9) 0.866288(16)
O22 O 0.44774(18) 0.02216(7) 0.13848(12)
H11 H 0.4030 0.0354 0.1355
H12 H 0.4789 0.0147 0.1754
O1 O 0.86274(12) 0.71398(5) 0.79470(9)
O2 O 0.70978(12) 0.68592(5) 0.82073(9)
O3 O 0.80174(12) 0.79368(5) 0.83695(9)
O7 O 0.76524(13) 0.75151(6) 0.73352(9)
O8 O 0.61478(12) 0.72688(5) 0.76690(9)
O9 O 0.89345(12) 0.75415(5) 0.89887(9)
C2 C 0.83472(17) 0.73277(7) 0.74572(12)
C3 C 0.63408(17) 0.69654(7) 0.78303(13)
C5 C 0.96585(18) 0.71365(7) 0.70768(13)
H1 H 0.9832 0.6988 0.7425
C6 C 0.99217(18) 0.73836(8) 0.61292(13)
C10 C 0.91528(19) 0.75897(8) 0.60486(13)
C17 C 0.88847(17) 0.73395(7) 0.69868(12)
C18 C 0.87736(17) 0.78372(7) 0.87680(12)
C20 C 0.86282(18) 0.75614(7) 0.64704(13)
H5 H 0.8104 0.7692 0.6406
C21 C 0.95218(17) 0.80914(7) 0.89599(12)
C23 C 0.47383(18) 0.68199(7) 0.72275(13)
H6 H 0.4610 0.7049 0.7193
C25 C 0.40540(17) 0.65860(7) 0.69481(14)
C26 C 0.56048(17) 0.67082(7) 0.75548(13)
C27 C 0.5810(2) 0.63713(8) 0.76050(15)
H7 H 0.6401 0.6301 0.7824
C28 C 0.42440(19) 0.62441(8) 0.70037(15)
C29 C 0.35197(18) 0.59963(8) 0.66802(14)
C30 C 0.93392(18) 0.84264(8) 0.87879(14)
H8 H 0.8744 0.8495 0.8573
C33 C 0.5143(2) 0.61371(8) 0.73330(16)
O11 O 0.11622(12) 0.53411(5) 0.50594(10)
O12 O 0.89619(14) 0.67939(6) 0.92543(10)
O15 O 0.62133(16) 0.80275(6) 0.74150(11)
H9 H 0.6476 0.8196 0.7304
H10 H 0.5632 0.8017 0.7302
O16 O 0.31813(13) 0.66646(5) 0.66058(11)
O19 O 0.89677(14) 0.78022(6) 0.55261(10)
O21 O 0.99430(15) 0.89910(6) 0.87926(12)
C36 C 0.27296(18) 0.56717(8) 0.57329(15)
H15 H 0.2684 0.5597 0.5316
O23 O 0.52662(17) 0.57959(7) 0.73442(15)
O24 O 0.94387(13) 0.70119(5) 0.50193(10)
O25 O 0.41063(13) 0.59926(6) 0.58034(11)
C37 C 0.20882(17) 0.55746(7) 0.60316(14)
C39 C 0.21659(19) 0.56744(8) 0.66625(15)
H16 H 0.1749 0.5599 0.6869
C40 C 0.12941(16) 0.53608(7) 0.56660(13)
C41 C 0.34436(18) 0.58819(7) 0.60620(15)
C42 C 0.28776(19) 0.58883(8) 0.69798(15)
C44_2 C 0.9086(2) 0.68315(9) 0.44292(15)
H20_2 H 0.8573 0.6698 0.4450
H21_2 H 0.8894 0.6988 0.4075
H22_2 H 0.9554 0.6687 0.4364
C46 C 0.8208(2) 0.80256(9) 0.54351(16)
H26 H 0.8147 0.8161 0.5057
H27 H 0.7658 0.7897 0.5379
H28 H 0.8307 0.8168 0.5808
C49 C 0.9049(3) 0.91031(11) 0.8434(2)
H35 H 0.9061 0.9341 0.8362
H36 H 0.8856 0.8988 0.8024
H37 H 0.8628 0.9055 0.8675
O27 O 0.29857(17) 0.60156(7) 0.75849(12)
C50 C 0.4051(2) 0.58878(11) 0.51630(19)
H38 H 0.4552 0.5983 0.5040
H39 H 0.4082 0.5646 0.5149
H40 H 0.3483 0.5963 0.4868
C51 C 0.2968(2) 0.70151(10) 0.6484(2)
H41 H 0.2335 0.7039 0.6239
H42 H 0.3083 0.7132 0.6889
H43 H 0.3344 0.7108 0.6242
C52 C 0.2319(3) 0.59294(13) 0.7900(2)
H44 H 0.2476 0.6034 0.8319
H45 H 0.1728 0.6007 0.7643
H46 H 0.2306 0.5689 0.7949
C53 C 0.9567(2) 0.68648(10) 0.97680(17)
H47 H 0.9615 0.7089 0.9899
C54 C 0.6179(3) 0.56710(13) 0.7655(3)
H48 H 0.6179 0.5429 0.7632
H49 H 0.6592 0.5760 0.7438
H50 H 0.6373 0.5740 0.8101
H57 H 0.9654 0.6253 0.9583
H40_2 H 0.1517 0.0963 0.0132
O1_2 O 0.63726(12) 0.21398(5) 0.70530(9)
O2_2 O 0.79022(12) 0.18592(5) 0.67927(9)
O3_2 O 0.69826(12) 0.29368(5) 0.66305(9)
O4 O 0.10094(12) 0.46917(5) 0.46592(9)
O7_2 O 0.73476(13) 0.25151(6) 0.76648(9)
O8_2 O 0.88522(12) 0.22688(5) 0.73310(9)
O9_2 O 0.60655(12) 0.25415(5) 0.60113(9)
C1_2 C 0.11353(16) 0.45257(7) 0.51735(13)
C2_2 C 0.66528(17) 0.23277(7) 0.75428(12)
C3_2 C 0.86592(17) 0.19654(7) 0.71697(13)
C5_2 C 0.53415(18) 0.21365(7) 0.79232(13)
H1_2 H 0.5168 0.1988 0.7575
C6_2 C 0.50783(18) 0.23836(8) 0.88708(13)
C7_2 C 0.45931(17) 0.29861(7) 0.57185(13)
H2_2 H 0.4479 0.2762 0.5596
C8_2 C 0.45494(18) 0.24048(8) 0.93461(13)
C9_2 C 0.32917(18) 0.38030(7) 0.55936(14)
C10_2 C 0.58472(19) 0.25897(8) 0.89514(13)
C11 C 0.24265(18) 0.42415(7) 0.49130(14)
H3 H 0.2319 0.4379 0.4549
C12_2 C 0.2723(2) 0.38292(8) 0.59951(15)
C13_2 C 0.48390(19) 0.21583(8) 0.83521(13)
C14_2 C 0.40584(18) 0.35529(7) 0.57491(14)
C15_2 C 0.38880(17) 0.32147(7) 0.55817(13)
C16_2 C 0.31330(18) 0.40105(8) 0.50517(14)
C17_2 C 0.61153(17) 0.23395(7) 0.80132(12)
C18_2 C 0.62264(17) 0.28372(7) 0.62320(12)
C19_2 C 0.20234(18) 0.40636(7) 0.58617(14)
H4_2 H 0.1655 0.4084 0.6133
C20_2 C 0.63718(18) 0.25614(7) 0.85296(13)
H5_2 H 0.6896 0.2692 0.8594
C21_2 C 0.54782(17) 0.30914(7) 0.60401(12)
C22_2 C 0.48294(18) 0.22153(7) 0.99186(14)
C24_2 C 0.18765(17) 0.42678(7) 0.53205(13)
C26_2 C 0.93952(17) 0.17082(7) 0.74452(13)
C27_2 C 0.9190(2) 0.13713(8) 0.73950(15)
H7_2 H 0.8599 0.1301 0.7176
C30_2 C 0.56608(18) 0.34264(8) 0.62121(14)
H8_2 H 0.6256 0.3495 0.6427
C31_2 C 0.3807(2) 0.26234(9) 0.92452(14)
C32_2 C 0.49565(19) 0.36583(8) 0.60637(15)
C33_2 C 0.9857(2) 0.11371(8) 0.76670(16)
O12_2 O 0.60381(14) 0.17939(6) 0.57457(10)
O14_2 O 0.29931(12) 0.31422(5) 0.52663(10)
O15_2 O 0.87867(16) 0.30275(6) 0.75850(11)
H9_2 H 0.8524 0.3196 0.7696
H10_2 H 0.9368 0.3017 0.7698
O17 O 0.37015(14) 0.39583(6) 0.46796(11)
O18_2 O 0.29269(15) 0.36160(6) 0.65105(11)
O19_2 O 0.60323(14) 0.28022(6) 0.94739(10)
O20_2 O 0.40791(15) 0.19675(6) 0.83177(10)
O21_2 O 0.50570(15) 0.39910(6) 0.62074(12)
O22_2 O 0.05226(18) 0.52216(7) 0.36152(12)
H11_2 H 0.0970 0.5354 0.3645
H12_2 H 0.0211 0.5147 0.3246
C34_2 C 0.33461(19) 0.26527(8) 0.97079(14)
H13_2 H 0.2848 0.2797 0.9637
O23_2 O 0.97338(17) 0.07959(7) 0.76558(15)
O24_2 O 0.55613(13) 0.20119(5) 0.99807(10)
O26_2 O 0.35875(16) 0.28006(8) 0.86759(12)
C43_2 C 0.2790(2) 0.28004(9) 0.50766(16)
H17 H 0.2147 0.2778 0.4859
H18 H 0.3130 0.2734 0.4788
H19_2 H 0.2957 0.2659 0.5454
C45_2 C 0.3802(2) 0.17362(10) 0.78050(17)
H23_2 H 0.3267 0.1618 0.7832
H24_2 H 0.3662 0.1854 0.7399
H25_2 H 0.4286 0.1578 0.7833
C46_2 C 0.6792(2) 0.30256(9) 0.95649(16)
H26_2 H 0.6853 0.3161 0.9943
H27_2 H 0.7342 0.2897 0.9621
H28_2 H 0.6693 0.3168 0.9192
C47 C 0.3558(2) 0.41616(9) 0.41097(17)
H29 H 0.3998 0.4102 0.3891
H30 H 0.2951 0.4125 0.3825
H31 H 0.3631 0.4395 0.4231
C48_2 C 0.2373(3) 0.36419(10) 0.69390(18)
H32_2 H 0.2578 0.3481 0.7284
H33_2 H 0.2424 0.3865 0.7118
H34_2 H 0.1745 0.3597 0.6702
C49_2 C 0.5951(3) 0.41031(11) 0.6566(2)
H35_2 H 0.5939 0.4341 0.6638
H36_2 H 0.6144 0.3988 0.6976
H37_2 H 0.6372 0.4055 0.6325
N1 N 0.4872(2) 0.16550(10) 0.48686(16)
C53_2 C 0.5433(2) 0.18648(10) 0.52320(17)
H47_2 H 0.5385 0.2089 0.5101
C54_2 C 0.8821(3) 0.06710(13) 0.7345(3)
H48_2 H 0.8821 0.0429 0.7368
H49_2 H 0.8408 0.0760 0.7562
H50_2 H 0.8627 0.0740 0.6899
C55_2 C 0.2830(3) 0.30172(18) 0.8550(2)
H51_2 H 0.2746 0.3128 0.8141
H52_2 H 0.2291 0.2889 0.8535
H53_2 H 0.2933 0.3183 0.8888
C56 C 0.4167(4) 0.17583(16) 0.4266(3)
H54 H 0.4207 0.1997 0.4205
H55 H 0.4265 0.1642 0.3903
H56 H 0.3571 0.1704 0.4298
C57_2 C 0.4874(5) 0.12978(17) 0.5019(3)
H57_2 H 0.5346 0.1253 0.5417
H58_2 H 0.4291 0.1236 0.5065
H59 H 0.4988 0.1169 0.4674
Cu1 Cu 0.29913(2) 0.236483(9) 0.202848(16)
Cu2 Cu 0.19147(2) 0.283385(9) 0.133712(16)
O1_3 O 0.13726(12) 0.28602(5) 0.20530(9)
O2_3 O 0.29022(12) 0.31408(5) 0.17927(9)
O3_3 O 0.19826(12) 0.20632(5) 0.16305(9)
O7_3 O 0.23476(13) 0.24849(6) 0.26648(9)
O8_3 O 0.38522(12) 0.27312(5) 0.23310(9)
O9_3 O 0.10655(12) 0.24585(5) 0.10113(9)
C2_3 C 0.16528(17) 0.26723(7) 0.25428(12)
C3_3 C 0.36592(17) 0.30346(7) 0.21697(13)
C5_3 C 0.03415(18) 0.28635(7) 0.29232(13)
H1_3 H 0.0168 0.3012 0.2575
C6_3 C 0.00783(18) 0.26164(8) 0.38708(13)
C10_3 C 0.08472(19) 0.24103(8) 0.39514(13)
C17_3 C 0.11153(17) 0.26605(7) 0.30132(12)
C18_3 C 0.12264(17) 0.21628(7) 0.12320(12)
C20_3 C 0.13718(18) 0.24386(7) 0.35296(13)
H5_3 H 0.1896 0.2308 0.3594
C21_3 C 0.04782(17) 0.19086(7) 0.10401(12)
C23_2 C 0.52617(18) 0.31801(7) 0.27725(13)
H6_2 H 0.5390 0.2951 0.2807
C25_2 C 0.59460(17) 0.34140(7) 0.30519(14)
C26_3 C 0.43952(17) 0.32918(7) 0.24452(13)
C27_3 C 0.4190(2) 0.36287(8) 0.23950(15)
H7_3 H 0.3599 0.3699 0.2176
C28_2 C 0.57560(19) 0.37559(8) 0.29963(15)
C29_2 C 0.64803(18) 0.40037(8) 0.33198(14)
C30_3 C 0.06608(18) 0.15736(8) 0.12121(14)
H8_3 H 0.1256 0.1505 0.1427
C33_3 C 0.4857(2) 0.38629(8) 0.26670(16)
O10 O 0.91722(13) 0.47778(5) 0.40224(10)
O11_2 O 0.88378(12) 0.46589(5) 0.49406(10)
O12_3 O 0.10381(14) 0.32061(6) 0.07457(10)
O15_3 O 0.37867(16) 0.19725(6) 0.25850(11)
H9_3 H 0.3524 0.1804 0.2696
H10_3 H 0.4368 0.1983 0.2698
O16_2 O 0.68187(13) 0.33354(5) 0.33942(11)
O19_3 O 0.10323(14) 0.21978(6) 0.44739(10)
O21_3 O 0.00570(15) 0.10090(6) 0.12074(12)
C36_2 C 0.72704(18) 0.43283(8) 0.42671(15)
H15_2 H 0.7316 0.4403 0.4684
O23_3 O 0.47338(17) 0.42041(7) 0.26558(15)
O24_3 O 0.05613(13) 0.29881(5) 0.49807(10)
O25_2 O 0.58937(13) 0.40074(6) 0.41966(11)
C37_2 C 0.79118(17) 0.44254(7) 0.39684(14)
C39_2 C 0.78341(19) 0.43256(8) 0.33375(15)
H16_2 H 0.8251 0.4401 0.3131
C40_2 C 0.87059(16) 0.46392(7) 0.43340(13)
C41_2 C 0.65564(18) 0.41181(7) 0.39380(15)
C42_2 C 0.71224(19) 0.41117(8) 0.30202(15)
C44_3 C 0.0914(2) 0.31685(9) 0.55708(15)
H20_3 H 0.1427 0.3302 0.5550
H21_3 H 0.1106 0.3012 0.5925
H22_3 H 0.0446 0.3313 0.5636
C46_3 C 0.1792(2) 0.19744(9) 0.45649(16)
H26_3 H 0.1853 0.1839 0.4943
H27_3 H 0.2342 0.2103 0.4621
H28_3 H 0.1693 0.1832 0.4192
C49_3 C 0.0951(3) 0.08969(11) 0.1566(2)
H35_3 H 0.0939 0.0659 0.1638
H36_3 H 0.1144 0.1012 0.1976
H37_3 H 0.1372 0.0945 0.1325
O27_2 O 0.70143(17) 0.39844(7) 0.24151(12)
C50_2 C 0.5949(2) 0.41122(11) 0.48370(19)
H38_2 H 0.5448 0.4017 0.4960
H39_2 H 0.5918 0.4354 0.4851
H40_3 H 0.6517 0.4037 0.5132
C51_2 C 0.7032(2) 0.29849(10) 0.3516(2)
H41_2 H 0.7665 0.2961 0.3761
H42_2 H 0.6917 0.2868 0.3111
H43_2 H 0.6656 0.2892 0.3758
C52_2 C 0.7681(3) 0.40706(13) 0.2100(2)
H44_2 H 0.7524 0.3966 0.1681
H45_2 H 0.8272 0.3993 0.2357
H46_2 H 0.7694 0.4311 0.2051
C53_3 C 0.0433(2) 0.31352(10) 0.02320(17)
H47_3 H 0.0385 0.2911 0.0101
C54_3 C 0.3821(3) 0.43290(13) 0.2345(3)
H48_3 H 0.3821 0.4571 0.2368
H49_3 H 0.3408 0.4240 0.2562
H50_3 H 0.3627 0.4260 0.1899
H57_3 H 0.0346 0.3747 0.0417
Cu6 Cu 0.98137(2) 0.492171(9) 0.554086(17)
O28 O 0.25696(12) 0.27347(5) 0.07063(8)
O29 O 0.34422(13) 0.23207(5) 0.12768(9)
Cu3 Cu 0.51863(2) 0.992171(9) 0.945914(17)
O22_3 O 0.55226(18) 0.97784(7) 0.86152(12)
H11_3 H 0.5970 0.9646 0.8645
H12_3 H 0.5211 0.9853 0.8246
O32_2 O 0.43030(12) 0.95593(5) 0.94177(10)
Cu1_2 Cu 0.20087(2) 0.736483(9) 0.297152(16)
Cu2_2 Cu 0.30853(2) 0.783385(9) 0.366288(16)
O1_4 O 0.36274(12) 0.78602(5) 0.29470(9)
O2_4 O 0.20978(12) 0.81408(5) 0.32073(9)
O3_4 O 0.30174(12) 0.70632(5) 0.33695(9)
O4_2 O 0.89906(12) 0.53083(5) 0.53408(9)
O7_4 O 0.26524(13) 0.74849(6) 0.23352(9)
O8_4 O 0.11478(12) 0.77312(5) 0.26690(9)
O9_4 O 0.39345(12) 0.74585(5) 0.39887(9)
C1_3 C 0.88647(16) 0.54743(7) 0.48265(13)
C2_4 C 0.33472(17) 0.76723(7) 0.24572(12)
C3_4 C 0.13408(17) 0.80346(7) 0.28303(13)
C5_4 C 0.46585(18) 0.78635(7) 0.20768(13)
H1_4 H 0.4832 0.8012 0.2425
C6_4 C 0.49217(18) 0.76164(8) 0.11292(13)
C7_3 C 0.54069(17) 0.70139(7) 0.42815(13)
H2_3 H 0.5521 0.7238 0.4404
C8_3 C 0.54506(18) 0.75952(8) 0.06539(13)
C9_3 C 0.67083(18) 0.61970(7) 0.44064(14)
C10_4 C 0.41528(19) 0.74103(8) 0.10486(13)
C11_2 C 0.75735(18) 0.57585(7) 0.50870(14)
H3_2 H 0.7681 0.5621 0.5451
C12_3 C 0.7277(2) 0.61708(8) 0.40049(15)
C13_3 C 0.51610(19) 0.78417(8) 0.16479(13)
C14_3 C 0.59416(18) 0.64471(7) 0.42509(14)
C15_3 C 0.61120(17) 0.67853(7) 0.44183(13)
C16_3 C 0.68670(18) 0.59895(8) 0.49483(14)
C17_4 C 0.38847(17) 0.76605(7) 0.19868(12)
C18_4 C 0.37736(17) 0.71628(7) 0.37680(12)
C19_3 C 0.79766(18) 0.59364(7) 0.41383(14)
H4_3 H 0.8345 0.5916 0.3867
C20_4 C 0.36282(18) 0.74386(7) 0.14704(13)
H5_4 H 0.3104 0.7308 0.1406
C21_4 C 0.45218(17) 0.69086(7) 0.39599(12)
C22_3 C 0.51706(18) 0.77847(7) 0.00814(14)
C24_3 C 0.81235(17) 0.57322(7) 0.46795(13)
C26_4 C 0.06048(17) 0.82918(7) 0.25548(13)
C27_4 C 0.0810(2) 0.86287(8) 0.26050(15)
H7_4 H 0.1401 0.8699 0.2824
C30_4 C 0.43392(18) 0.65736(8) 0.37879(14)
H8_4 H 0.3744 0.6505 0.3573
C31_3 C 0.6193(2) 0.73766(9) 0.07548(14)
C32_3 C 0.50435(19) 0.63417(8) 0.39363(15)
C33_4 C 0.0143(2) 0.88629(8) 0.23330(16)
O12_4 O 0.39619(14) 0.82061(6) 0.42543(10)
O13_2 O 0.93030(12) 0.54407(5) 0.44177(10)
O14_3 O 0.70069(12) 0.68578(5) 0.47337(10)
O15_4 O 0.12133(16) 0.69725(6) 0.24150(11)
H9_4 H 0.1476 0.6804 0.2304
H10_4 H 0.0632 0.6983 0.2302
O17_2 O 0.62985(14) 0.60417(6) 0.53204(11)
O18_3 O 0.70731(15) 0.63840(6) 0.34895(11)
O19_4 O 0.39677(14) 0.71978(6) 0.05261(10)
O20_3 O 0.59209(15) 0.80325(6) 0.16823(10)
O21_4 O 0.49430(15) 0.60090(6) 0.37926(12)
O22_4 O 0.94774(18) 0.47784(7) 0.63848(12)
H11_4 H 0.9030 0.4646 0.6355
H12_4 H 0.9789 0.4853 0.6754
C34_3 C 0.66539(19) 0.73473(8) 0.02921(14)
H13_3 H 0.7152 0.7203 0.0363
O23_4 O 0.02662(17) 0.92041(7) 0.23442(15)
O24_4 O 0.44387(13) 0.79881(5) 0.00193(10)
O26_3 O 0.64125(16) 0.71994(8) 0.13241(12)
C43_3 C 0.7210(2) 0.71996(9) 0.49234(16)
H17_2 H 0.7853 0.7222 0.5141
H18_2 H 0.6870 0.7266 0.5212
H19_3 H 0.7043 0.7341 0.4546
C45_3 C 0.6198(2) 0.82638(10) 0.21950(17)
H23_3 H 0.6733 0.8382 0.2168
H24_3 H 0.6338 0.8146 0.2601
H25_3 H 0.5714 0.8422 0.2167
C46_4 C 0.3208(2) 0.69744(9) 0.04351(16)
H26_4 H 0.3147 0.6839 0.0057
H27_4 H 0.2658 0.7103 0.0379
H28_4 H 0.3307 0.6832 0.0808
C47_2 C 0.6442(2) 0.58384(9) 0.58903(17)
H29_2 H 0.6002 0.5898 0.6109
H30_2 H 0.7049 0.5875 0.6175
H31_2 H 0.6369 0.5605 0.5769
C48_3 C 0.7627(3) 0.63581(10) 0.30610(18)
H32_3 H 0.7422 0.6519 0.2716
H33_3 H 0.7576 0.6135 0.2882
H34_3 H 0.8255 0.6403 0.3298
C49_4 C 0.4049(3) 0.58969(11) 0.3434(2)
H35_4 H 0.4061 0.5659 0.3362
H36_4 H 0.3856 0.6012 0.3024
H37_4 H 0.3628 0.5945 0.3675
N1_2 N 0.5128(2) 0.83450(10) 0.51314(16)
C53_4 C 0.4567(2) 0.81352(10) 0.47680(17)
H47_4 H 0.4615 0.7911 0.4899
C54_4 C 0.1179(3) 0.93290(13) 0.2655(3)
H48_4 H 0.1179 0.9571 0.2632
H49_4 H 0.1592 0.9240 0.2438
H50_4 H 0.1373 0.9260 0.3101
C55_3 C 0.7170(3) 0.69828(18) 0.1450(2)
H51_3 H 0.7254 0.6872 0.1859
H52_3 H 0.7709 0.7111 0.1465
H53_3 H 0.7067 0.6817 0.1112
C56_2 C 0.5833(4) 0.82417(16) 0.5734(3)
H54_2 H 0.5793 0.8003 0.5795
H55_2 H 0.5735 0.8358 0.6097
H56_2 H 0.6429 0.8296 0.5702
C57_3 C 0.5126(5) 0.87022(17) 0.4981(3)
H57_4 H 0.4654 0.8747 0.4583
H58_3 H 0.5709 0.8764 0.4935
H59_2 H 0.5012 0.8831 0.5326
O28_2 O 0.24304(12) 0.77347(5) 0.42937(8)
O29_2 O 0.15578(13) 0.73207(5) 0.37232(9)
H40_4 H 0.8483 0.9037 0.9868
C1_4 C 0.38647(16) 0.95257(7) 0.98265(13)
C4_3 C 0.18267(16) 0.75078(7) 0.42082(12)
C7_4 C 0.04069(17) 0.79861(7) 0.92815(13)
H2_4 H 0.0521 0.7762 0.9404
C8_4 C 0.04506(18) 0.74048(8) 0.56539(13)
C9_4 C 0.17083(18) 0.88030(7) 0.94064(14)
C12_4 C 0.2277(2) 0.88292(8) 0.90049(15)
C13_4 C 0.01610(19) 0.71583(8) 0.66479(13)
C14_4 C 0.09416(18) 0.85529(7) 0.92509(14)
C15_4 C 0.11120(17) 0.82147(7) 0.94183(13)
C16_4 C 0.18670(18) 0.90105(8) 0.99483(14)
C19_4 C 0.29766(18) 0.90636(7) 0.91383(14)
H4_4 H 0.3345 0.9084 0.8867
C22_4 C 0.01706(18) 0.72153(7) 0.50814(14)
C24_4 C 0.31235(17) 0.92678(7) 0.96795(13)
C31_4 C 0.1193(2) 0.76234(9) 0.57548(14)
C32_4 C 0.00435(19) 0.86583(8) 0.89363(15)
O14_4 O 0.20069(12) 0.81422(5) 0.97337(10)
O18_4 O 0.20731(15) 0.86160(6) 0.84895(11)
O20_4 O 0.09209(15) 0.69675(6) 0.66823(10)
C34_4 C 0.16539(19) 0.76527(8) 0.52921(14)
H13_4 H 0.2152 0.7797 0.5363
C35_3 C 0.06347(18) 0.72430(7) 0.46127(13)
H14_3 H 0.0456 0.7115 0.4235
O26_4 O 0.14125(16) 0.78006(8) 0.63241(12)
C38_3 C 0.13688(17) 0.74663(7) 0.47268(12)
C43_4 C 0.2210(2) 0.78004(9) 0.99234(16)
H19_4 H 0.2043 0.7659 0.9546
C45_4 C 0.1198(2) 0.67362(10) 0.71950(17)
H23_4 H 0.1733 0.6618 0.7168
H24_4 H 0.1338 0.6854 0.7601
H25_4 H 0.0714 0.6578 0.7167
C48_4 C 0.2627(3) 0.86419(10) 0.80610(18)
H32_4 H 0.2422 0.8481 0.7716
H33_4 H 0.2576 0.8865 0.7882
H34_4 H 0.3255 0.8597 0.8298
C55_4 C 0.2170(3) 0.80172(18) 0.6450(2)
H51_4 H 0.2254 0.8128 0.6859
H52_4 H 0.2709 0.7889 0.6465
H53_4 H 0.2067 0.8183 0.6112
C57_4 C 0.0126(5) 0.62978(17) 0.9981(3)
H58_4 H 0.0709 0.6236 0.9935
C4_4 C 0.31733(16) 0.25078(7) 0.07918(12)
C35_4 C 0.43653(18) 0.22430(7) 0.03873(13)
H14_4 H 0.4544 0.2115 0.0765
C38_4 C 0.36312(17) 0.24663(7) 0.02732(12)
C44_4 C 0.5914(2) 0.18315(9) 0.05708(15)
H20_4 H 0.6427 0.1698 0.0550
H21_4 H 0.6106 0.1988 0.0925
H22_4 H 0.5446 0.1687 0.0636
O4_3 O 0.60094(12) 0.03083(5) 0.96592(9)
C11_3 C 0.74265(18) 0.07585(7) 0.99130(14)
H3_3 H 0.7319 0.0621 0.9549
O17_3 O 0.87015(14) 0.10417(6) 0.96796(11)
H17_3 H 0.7147 0.2222 0.9859
H18_3 H 0.8130 0.2266 0.9788
C47_3 C 0.8558(2) 0.08384(9) 0.91097(17)
H29_3 H 0.8998 0.0898 0.8891
H30_3 H 0.7951 0.0875 0.8825
H31_3 H 0.8631 0.0605 0.9231
N1_3 N 0.9872(2) 0.33450(10) 0.98686(16)
C56_3 C 0.9167(4) 0.32417(16) 0.9266(3)
H54_3 H 0.9207 0.3003 0.9205
H55_3 H 0.9265 0.3358 0.8903
H56_3 H 0.8571 0.3296 0.9298
H59_3 H 0.9988 0.3831 0.9674
O30_2 O 0.41722(13) 0.02222(5) 0.90224(10)
O31 O 0.38378(12) 0.03411(5) 0.99406(10)
C23_3 C 0.02617(18) 0.18199(7) 0.77725(13)
H6_3 H 0.0390 0.2049 0.7807
C25_3 C 0.09460(17) 0.15860(7) 0.80519(14)
C28_3 C 0.07560(19) 0.12441(8) 0.79963(15)
C29_3 C 0.14803(18) 0.09963(8) 0.83198(14)
O16_3 O 0.18187(13) 0.16646(5) 0.83942(11)
C36_3 C 0.22704(18) 0.06717(8) 0.92671(15)
H15_3 H 0.2316 0.0597 0.9684
O25_3 O 0.08937(13) 0.09926(6) 0.91966(11)
C37_3 C 0.29118(17) 0.05746(7) 0.89684(14)
C39_3 C 0.28341(19) 0.06744(8) 0.83375(15)
H16_3 H 0.3251 0.0599 0.8131
C40_3 C 0.37059(16) 0.03608(7) 0.93340(13)
C41_3 C 0.15564(18) 0.08819(7) 0.89380(15)
C42_3 C 0.21224(19) 0.08883(8) 0.80202(15)
O27_3 O 0.20143(17) 0.10156(7) 0.74151(12)
C50_3 C 0.0949(2) 0.08878(11) 0.98370(19)
H38_3 H 0.0448 0.0983 0.9960
H39_3 H 0.0918 0.0646 0.9851
C51_3 C 0.2032(2) 0.20151(10) 0.8516(2)
H41_3 H 0.2665 0.2039 0.8761
H42_3 H 0.1917 0.2132 0.8111
H43_3 H 0.1656 0.2108 0.8758
C52_3 C 0.2681(3) 0.09294(13) 0.7100(2)
H44_3 H 0.2524 0.1034 0.6681
H45_3 H 0.3272 0.1007 0.7357
H46_3 H 0.2694 0.0689 0.7051
O31_2 O 0.61622(12) 0.96589(5) 0.00594(10)
C23_4 C 0.97383(18) 0.81801(7) 0.22275(13)
H6_4 H 0.9610 0.7951 0.2193
C25_4 C 0.90540(17) 0.84140(7) 0.19481(14)
C28_4 C 0.92440(19) 0.87559(8) 0.20037(15)
C29_4 C 0.85197(18) 0.90037(8) 0.16802(14)
O10_2 O 0.58278(13) 0.97778(5) 0.09776(10)
O16_4 O 0.81813(13) 0.83354(5) 0.16058(11)
C36_4 C 0.77296(18) 0.93283(8) 0.07329(15)
H15_4 H 0.7684 0.9403 0.0316
O25_4 O 0.91063(13) 0.90074(6) 0.08034(11)
C37_4 C 0.70882(17) 0.94254(7) 0.10316(14)
C39_4 C 0.71659(19) 0.93256(8) 0.16625(15)
H16_4 H 0.6749 0.9401 0.1869
C40_4 C 0.62941(16) 0.96392(7) 0.06660(13)
C41_4 C 0.84436(18) 0.91181(7) 0.10620(15)
C42_4 C 0.78776(19) 0.91117(8) 0.19798(15)
O27_4 O 0.79857(17) 0.89844(7) 0.25849(12)
C50_4 C 0.9051(2) 0.91122(11) 0.01630(19)
H38_4 H 0.9552 0.9017 0.0040
H39_4 H 0.9082 0.9354 0.0149
C51_4 C 0.7968(2) 0.79849(10) 0.1484(2)
H41_4 H 0.7335 0.7961 0.1239
H42_4 H 0.8083 0.7868 0.1889
H43_4 H 0.8344 0.7892 0.1242
C52_4 C 0.7319(3) 0.90706(13) 0.2900(2)
H44_4 H 0.7476 0.8966 0.3319
H45_4 H 0.6728 0.8993 0.2643
H46_4 H 0.7306 0.9311 0.2949
O4_4 O 0.39906(12) 0.96917(5) 0.03408(9)
C11_4 C 0.25735(18) 0.92415(7) 0.00870(14)
H3_4 H 0.2681 0.9379 0.0451
O17_4 O 0.12985(14) 0.89583(6) 0.03204(11)
H17_4 H 0.2853 0.7778 0.0141
H18_4 H 0.1870 0.7734 0.0212
C47_4 C 0.1442(2) 0.91616(9) 0.08903(17)
H29_4 H 0.1002 0.9102 0.1109
H30_4 H 0.2049 0.9125 0.1175
H31_4 H 0.1369 0.9395 0.0769
N1_4 N 0.0128(2) 0.66550(10) 0.01314(16)
C56_4 C 0.0833(4) 0.67583(16) 0.0734(3)
H54_4 H 0.0793 0.6997 0.0795
H55_4 H 0.0735 0.6642 0.1097
H56_4 H 0.1429 0.6704 0.0702
H59_4 H 0.0012 0.6169 0.0326
loop_
_geom_bond_atom_site_label_1
_geom_bond_atom_site_label_2
_geom_bond_site_symmetry_1
_geom_bond_site_symmetry_2
O5 C4 1_555 1_555
O6 C4 1_555 1_555
C1 C24 1_555 1_555
C4 C38 1_555 1_555
C7 H2 1_555 1_555
C8 C22 1_555 1_555
C9 C12 1_555 1_555
C12 C19 1_555 1_555
C14 C9 1_555 1_555
C15 C7 1_555 1_555
C16 C9 1_555 1_555
C19 H4 1_555 1_555
C22 C35 1_555 1_555
C31 C8 1_555 1_555
C32 C14 1_555 1_555
O13 C1 1_555 1_555
O14 C15 1_555 1_555
O18 C12 1_555 1_555
O20 C13 1_555 1_555
C34 C31 1_555 1_555
H13 C34 1_555 1_555
C35 H14 1_555 1_555
O26 C31 1_555 1_555
C38 C34 1_555 1_555
C43 O14 1_555 1_555
H19 C43 1_555 1_555
C45 O20 1_555 1_555
H23 C45 1_555 1_555
H24 C45 1_555 1_555
H25 C45 1_555 1_555
C48 O18 1_555 1_555
H32 C48 1_555 1_555
H33 C48 1_555 1_555
H34 C48 1_555 1_555
C55 O26 1_555 1_555
H51 C55 1_555 1_555
H52 C55 1_555 1_555
H53 C55 1_555 1_555
H58 C57 1_555 1_555
Cu4 O6 1_555 1_555
Cu5 O5 1_555 1_555
C14 C15 1_555 1_555
C19 C24 1_555 1_555
O13 Cu7 1_555 1_555
C35 C38 1_555 1_555
Cu4 Cu5 1_555 1_555
O5_2 C4_2 1_555 1_555
O6_2 C4_2 1_555 1_555
C4_2 C38_2 1_555 1_555
C35_2 H14_2 1_555 1_555
H20 C44 1_555 1_555
H21 C44 1_555 1_555
H22 C44 1_555 1_555
Cu4_2 O6_2 1_555 1_555
Cu5_2 O5_2 1_555 1_555
C35_2 C38_2 1_555 1_555
Cu4_2 Cu5_2 1_555 1_555
O22 Cu7 1_555 1_555
H11 O22 1_555 1_555
H12 O22 1_555 1_555
Cu5_2 O1 1_555 1_555
O1 C2 1_555 1_555
O2 Cu5_2 1_555 1_555
O3 Cu4_2 1_555 1_555
O7 Cu4_2 1_555 1_555
O8 Cu4_2 1_555 1_555
O9 Cu5_2 1_555 1_555
C2 O7 1_555 1_555
C3 O2 1_555 1_555
C5 H1 1_555 1_555
C10 C6 1_555 1_555
C17 C2 1_555 1_555
C18 O3 1_555 1_555
C20 C10 1_555 1_555
H5 C20 1_555 1_555
C23 H6 1_555 1_555
C25 C23 1_555 1_555
C26 C3 1_555 1_555
C27 C26 1_555 1_555
H7 C27 1_555 1_555
C28 C25 1_555 1_555
C29 C28 1_555 1_555
C30 C21 1_555 1_555
H8 C30 1_555 1_555
C33 C27 1_555 1_555
O30 C40 1_555 1_555
O11 C40 1_555 1_555
O12 Cu5_2 1_555 1_555
O15 Cu4_2 1_555 1_555
H9 O15 1_555 1_555
H10 O15 1_555 1_555
O16 C25 1_555 1_555
O19 C10 1_555 1_555
C36 H15 1_555 1_555
O23 C33 1_555 1_555
O25 C41 1_555 1_555
C37 C36 1_555 1_555
C39 C37 1_555 1_555
H16 C39 1_555 1_555
C40 C37 1_555 1_555
C41 C29 1_555 1_555
C42 C29 1_555 1_555
C44_2 O24 1_555 1_555
H20_2 C44_2 1_555 1_555
H21_2 C44_2 1_555 1_555
H22_2 C44_2 1_555 1_555
C46 O19 1_555 1_555
H26 C46 1_555 1_555
H27 C46 1_555 1_555
H28 C46 1_555 1_555
C49 O21 1_555 1_555
H35 C49 1_555 1_555
H36 C49 1_555 1_555
H37 C49 1_555 1_555
O27 C42 1_555 1_555
C50 O25 1_555 1_555
H38 C50 1_555 1_555
H39 C50 1_555 1_555
H40 C50 1_555 1_555
C51 O16 1_555 1_555
H41 C51 1_555 1_555
H42 C51 1_555 1_555
H43 C51 1_555 1_555
C52 O27 1_555 1_555
H44 C52 1_555 1_555
H45 C52 1_555 1_555
H46 C52 1_555 1_555
C53 O12 1_555 1_555
H47 C53 1_555 1_555
C54 O23 1_555 1_555
H48 C54 1_555 1_555
H49 C54 1_555 1_555
H50 C54 1_555 1_555
Cu8 O11 1_555 1_555
O8 C3 1_555 1_555
O9 C18 1_555 1_555
C5 C17 1_555 1_555
C17 C20 1_555 1_555
C18 C21 1_555 1_555
C23 C26 1_555 1_555
C28 C33 1_555 1_555
C36 C41 1_555 1_555
C39 C42 1_555 1_555
Cu5 O1_2 1_555 1_555
Cu8 O4 1_555 1_555
O1_2 C2_2 1_555 1_555
O2_2 Cu5 1_555 1_555
O3_2 Cu4 1_555 1_555
O4 C1_2 1_555 1_555
O7_2 Cu4 1_555 1_555
O8_2 Cu4 1_555 1_555
O9_2 Cu5 1_555 1_555
C1_2 C24_2 1_555 1_555
C2_2 O7_2 1_555 1_555
C3_2 O2_2 1_555 1_555
C5_2 H1_2 1_555 1_555
C6_2 C8_2 1_555 1_555
C7_2 H2_2 1_555 1_555
C8_2 C22_2 1_555 1_555
C9_2 C12_2 1_555 1_555
C10_2 C6_2 1_555 1_555
C11 H3 1_555 1_555
C12_2 C19_2 1_555 1_555
C13_2 C5_2 1_555 1_555
C14_2 C9_2 1_555 1_555
C15_2 C7_2 1_555 1_555
C16_2 C9_2 1_555 1_555
C17_2 C2_2 1_555 1_555
C18_2 O3_2 1_555 1_555
C19_2 H4_2 1_555 1_555
C20_2 C10_2 1_555 1_555
H5_2 C20_2 1_555 1_555
C21_2 C7_2 1_555 1_555
C24_2 C11 1_555 1_555
C26_2 C3_2 1_555 1_555
C27_2 C26_2 1_555 1_555
H7_2 C27_2 1_555 1_555
C30_2 C21_2 1_555 1_555
H8_2 C30_2 1_555 1_555
C31_2 C8_2 1_555 1_555
C32_2 C14_2 1_555 1_555
C33_2 C27_2 1_555 1_555
O12_2 Cu5 1_555 1_555
O32 C1_2 1_555 1_555
O14_2 C15_2 1_555 1_555
O15_2 Cu4 1_555 1_555
H9_2 O15_2 1_555 1_555
H10_2 O15_2 1_555 1_555
O17 C16_2 1_555 1_555
O18_2 C12_2 1_555 1_555
O19_2 C10_2 1_555 1_555
O20_2 C13_2 1_555 1_555
O21_2 C32_2 1_555 1_555
O22_2 Cu8 1_555 1_555
H11_2 O22_2 1_555 1_555
H12_2 O22_2 1_555 1_555
C34_2 C31_2 1_555 1_555
H13_2 C34_2 1_555 1_555
O23_2 C33_2 1_555 1_555
O24_2 C22_2 1_555 1_555
O26_2 C31_2 1_555 1_555
C43_2 O14_2 1_555 1_555
H17 C43_2 1_555 1_555
H18 C43_2 1_555 1_555
H19_2 C43_2 1_555 1_555
C45_2 O20_2 1_555 1_555
H23_2 C45_2 1_555 1_555
H24_2 C45_2 1_555 1_555
H25_2 C45_2 1_555 1_555
C46_2 O19_2 1_555 1_555
H26_2 C46_2 1_555 1_555
H27_2 C46_2 1_555 1_555
H28_2 C46_2 1_555 1_555
C47 O17 1_555 1_555
H29 C47 1_555 1_555
H30 C47 1_555 1_555
H31 C47 1_555 1_555
C48_2 O18_2 1_555 1_555
H32_2 C48_2 1_555 1_555
H33_2 C48_2 1_555 1_555
H34_2 C48_2 1_555 1_555
C49_2 O21_2 1_555 1_555
H35_2 C49_2 1_555 1_555
H36_2 C49_2 1_555 1_555
H37_2 C49_2 1_555 1_555
N1 C53_2 1_555 1_555
C53_2 O12_2 1_555 1_555
H47_2 C53_2 1_555 1_555
C54_2 O23_2 1_555 1_555
H48_2 C54_2 1_555 1_555
H49_2 C54_2 1_555 1_555
H50_2 C54_2 1_555 1_555
C55_2 O26_2 1_555 1_555
H51_2 C55_2 1_555 1_555
H52_2 C55_2 1_555 1_555
H53_2 C55_2 1_555 1_555
C56 N1 1_555 1_555
H54 C56 1_555 1_555
H55 C56 1_555 1_555
H56 C56 1_555 1_555
C57_2 N1 1_555 1_555
H57_2 C57_2 1_555 1_555
H58_2 C57_2 1_555 1_555
H59 C57_2 1_555 1_555
O8_2 C3_2 1_555 1_555
O9_2 C18_2 1_555 1_555
C5_2 C17_2 1_555 1_555
C6_2 C13_2 1_555 1_555
C11 C16_2 1_555 1_555
C14_2 C15_2 1_555 1_555
C17_2 C20_2 1_555 1_555
C18_2 C21_2 1_555 1_555
C19_2 C24_2 1_555 1_555
C30_2 C32_2 1_555 1_555
Cu1 Cu2 1_555 1_555
Cu2 O1_3 1_555 1_555
O1_3 C2_3 1_555 1_555
O2_3 Cu2 1_555 1_555
O3_3 Cu1 1_555 1_555
O7_3 Cu1 1_555 1_555
O8_3 Cu1 1_555 1_555
O9_3 Cu2 1_555 1_555
C2_3 O7_3 1_555 1_555
C3_3 O2_3 1_555 1_555
C5_3 H1_3 1_555 1_555
C10_3 C6_3 1_555 1_555
C17_3 C2_3 1_555 1_555
C18_3 O3_3 1_555 1_555
C20_3 C10_3 1_555 1_555
H5_3 C20_3 1_555 1_555
C23_2 H6_2 1_555 1_555
C25_2 C23_2 1_555 1_555
C26_3 C3_3 1_555 1_555
C27_3 C26_3 1_555 1_555
H7_3 C27_3 1_555 1_555
C28_2 C25_2 1_555 1_555
C29_2 C28_2 1_555 1_555
C30_3 C21_3 1_555 1_555
H8_3 C30_3 1_555 1_555
C33_3 C27_3 1_555 1_555
O10 C40_2 1_555 1_555
O11_2 C40_2 1_555 1_555
O12_3 Cu2 1_555 1_555
O15_3 Cu1 1_555 1_555
H9_3 O15_3 1_555 1_555
H10_3 O15_3 1_555 1_555
O16_2 C25_2 1_555 1_555
O19_3 C10_3 1_555 1_555
C36_2 H15_2 1_555 1_555
O23_3 C33_3 1_555 1_555
O25_2 C41_2 1_555 1_555
C37_2 C36_2 1_555 1_555
C39_2 C37_2 1_555 1_555
H16_2 C39_2 1_555 1_555
C40_2 C37_2 1_555 1_555
C41_2 C29_2 1_555 1_555
C42_2 C29_2 1_555 1_555
C44_3 O24_3 1_555 1_555
H20_3 C44_3 1_555 1_555
H21_3 C44_3 1_555 1_555
H22_3 C44_3 1_555 1_555
C46_3 O19_3 1_555 1_555
H26_3 C46_3 1_555 1_555
H27_3 C46_3 1_555 1_555
H28_3 C46_3 1_555 1_555
C49_3 O21_3 1_555 1_555
H35_3 C49_3 1_555 1_555
H36_3 C49_3 1_555 1_555
H37_3 C49_3 1_555 1_555
O27_2 C42_2 1_555 1_555
C50_2 O25_2 1_555 1_555
H38_2 C50_2 1_555 1_555
H39_2 C50_2 1_555 1_555
H40_3 C50_2 1_555 1_555
C51_2 O16_2 1_555 1_555
H41_2 C51_2 1_555 1_555
H42_2 C51_2 1_555 1_555
H43_2 C51_2 1_555 1_555
C52_2 O27_2 1_555 1_555
H44_2 C52_2 1_555 1_555
H45_2 C52_2 1_555 1_555
H46_2 C52_2 1_555 1_555
C53_3 O12_3 1_555 1_555
H47_3 C53_3 1_555 1_555
C54_3 O23_3 1_555 1_555
H48_3 C54_3 1_555 1_555
H49_3 C54_3 1_555 1_555
H50_3 C54_3 1_555 1_555
Cu6 O11_2 1_555 1_555
O28 Cu2 1_555 1_555
O29 Cu1 1_555 1_555
O8_3 C3_3 1_555 1_555
O9_3 C18_3 1_555 1_555
C5_3 C17_3 1_555 1_555
C17_3 C20_3 1_555 1_555
C18_3 C21_3 1_555 1_555
C23_2 C26_3 1_555 1_555
C28_2 C33_3 1_555 1_555
C36_2 C41_2 1_555 1_555
C39_2 C42_2 1_555 1_555
O22_3 Cu3 1_555 1_555
H11_3 O22_3 1_555 1_555
H12_3 O22_3 1_555 1_555
O32_2 Cu3 1_555 1_555
Cu1_2 Cu2_2 1_555 1_555
Cu2_2 O1_4 1_555 1_555
Cu6 O4_2 1_555 1_555
O1_4 C2_4 1_555 1_555
O2_4 Cu2_2 1_555 1_555
O3_4 Cu1_2 1_555 1_555
O4_2 C1_3 1_555 1_555
O7_4 Cu1_2 1_555 1_555
O8_4 Cu1_2 1_555 1_555
O9_4 Cu2_2 1_555 1_555
C1_3 C24_3 1_555 1_555
C2_4 O7_4 1_555 1_555
C3_4 O2_4 1_555 1_555
C5_4 H1_4 1_555 1_555
C6_4 C8_3 1_555 1_555
C7_3 H2_3 1_555 1_555
C8_3 C22_3 1_555 1_555
C9_3 C12_3 1_555 1_555
C10_4 C6_4 1_555 1_555
C11_2 H3_2 1_555 1_555
C12_3 C19_3 1_555 1_555
C13_3 C5_4 1_555 1_555
C14_3 C9_3 1_555 1_555
C15_3 C7_3 1_555 1_555
C16_3 C9_3 1_555 1_555
C17_4 C2_4 1_555 1_555
C18_4 O3_4 1_555 1_555
C19_3 H4_3 1_555 1_555
C20_4 C10_4 1_555 1_555
H5_4 C20_4 1_555 1_555
C21_4 C7_3 1_555 1_555
C24_3 C11_2 1_555 1_555
C26_4 C3_4 1_555 1_555
C27_4 C26_4 1_555 1_555
H7_4 C27_4 1_555 1_555
C30_4 C21_4 1_555 1_555
H8_4 C30_4 1_555 1_555
C31_3 C8_3 1_555 1_555
C32_3 C14_3 1_555 1_555
C33_4 C27_4 1_555 1_555
O12_4 Cu2_2 1_555 1_555
O13_2 C1_3 1_555 1_555
O14_3 C15_3 1_555 1_555
O15_4 Cu1_2 1_555 1_555
H9_4 O15_4 1_555 1_555
H10_4 O15_4 1_555 1_555
O17_2 C16_3 1_555 1_555
O18_3 C12_3 1_555 1_555
O19_4 C10_4 1_555 1_555
O20_3 C13_3 1_555 1_555
O21_4 C32_3 1_555 1_555
O22_4 Cu6 1_555 1_555
H11_4 O22_4 1_555 1_555
H12_4 O22_4 1_555 1_555
C34_3 C31_3 1_555 1_555
H13_3 C34_3 1_555 1_555
O23_4 C33_4 1_555 1_555
O24_4 C22_3 1_555 1_555
O26_3 C31_3 1_555 1_555
C43_3 O14_3 1_555 1_555
H17_2 C43_3 1_555 1_555
H18_2 C43_3 1_555 1_555
H19_3 C43_3 1_555 1_555
C45_3 O20_3 1_555 1_555
H23_3 C45_3 1_555 1_555
H24_3 C45_3 1_555 1_555
H25_3 C45_3 1_555 1_555
C46_4 O19_4 1_555 1_555
H26_4 C46_4 1_555 1_555
H27_4 C46_4 1_555 1_555
H28_4 C46_4 1_555 1_555
C47_2 O17_2 1_555 1_555
H29_2 C47_2 1_555 1_555
H30_2 C47_2 1_555 1_555
H31_2 C47_2 1_555 1_555
C48_3 O18_3 1_555 1_555
H32_3 C48_3 1_555 1_555
H33_3 C48_3 1_555 1_555
H34_3 C48_3 1_555 1_555
C49_4 O21_4 1_555 1_555
H35_4 C49_4 1_555 1_555
H36_4 C49_4 1_555 1_555
H37_4 C49_4 1_555 1_555
N1_2 C53_4 1_555 1_555
C53_4 O12_4 1_555 1_555
H47_4 C53_4 1_555 1_555
C54_4 O23_4 1_555 1_555
H48_4 C54_4 1_555 1_555
H49_4 C54_4 1_555 1_555
H50_4 C54_4 1_555 1_555
C55_3 O26_3 1_555 1_555
H51_3 C55_3 1_555 1_555
H52_3 C55_3 1_555 1_555
H53_3 C55_3 1_555 1_555
C56_2 N1_2 1_555 1_555
H54_2 C56_2 1_555 1_555
H55_2 C56_2 1_555 1_555
H56_2 C56_2 1_555 1_555
C57_3 N1_2 1_555 1_555
H57_4 C57_3 1_555 1_555
H58_3 C57_3 1_555 1_555
H59_2 C57_3 1_555 1_555
O28_2 Cu2_2 1_555 1_555
O29_2 Cu1_2 1_555 1_555
O8_4 C3_4 1_555 1_555
O9_4 C18_4 1_555 1_555
C5_4 C17_4 1_555 1_555
C6_4 C13_3 1_555 1_555
C11_2 C16_3 1_555 1_555
C14_3 C15_3 1_555 1_555
C17_4 C20_4 1_555 1_555
C18_4 C21_4 1_555 1_555
C19_3 C24_3 1_555 1_555
C30_4 C32_3 1_555 1_555
O28_2 C4_3 1_555 1_555
O29_2 C4_3 1_555 1_555
C1_4 C24_4 1_555 1_555
C4_3 C38_3 1_555 1_555
C7_4 H2_4 1_555 1_555
C8_4 C22_4 1_555 1_555
C9_4 C12_4 1_555 1_555
C12_4 C19_4 1_555 1_555
C14_4 C9_4 1_555 1_555
C15_4 C7_4 1_555 1_555
C16_4 C9_4 1_555 1_555
C19_4 H4_4 1_555 1_555
C22_4 C35_3 1_555 1_555
C31_4 C8_4 1_555 1_555
C32_4 C14_4 1_555 1_555
O32_2 C1_4 1_555 1_555
O14_4 C15_4 1_555 1_555
O18_4 C12_4 1_555 1_555
O20_4 C13_4 1_555 1_555
C34_4 C31_4 1_555 1_555
H13_4 C34_4 1_555 1_555
C35_3 H14_3 1_555 1_555
O26_4 C31_4 1_555 1_555
C38_3 C34_4 1_555 1_555
C43_4 O14_4 1_555 1_555
H19_4 C43_4 1_555 1_555
C45_4 O20_4 1_555 1_555
H23_4 C45_4 1_555 1_555
H24_4 C45_4 1_555 1_555
H25_4 C45_4 1_555 1_555
C48_4 O18_4 1_555 1_555
H32_4 C48_4 1_555 1_555
H33_4 C48_4 1_555 1_555
H34_4 C48_4 1_555 1_555
C55_4 O26_4 1_555 1_555
H51_4 C55_4 1_555 1_555
H52_4 C55_4 1_555 1_555
H53_4 C55_4 1_555 1_555
H58_4 C57_4 1_555 1_555
C14_4 C15_4 1_555 1_555
C19_4 C24_4 1_555 1_555
C35_3 C38_3 1_555 1_555
O28 C4_4 1_555 1_555
O29 C4_4 1_555 1_555
C4_4 C38_4 1_555 1_555
C35_4 H14_4 1_555 1_555
H20_4 C44_4 1_555 1_555
H21_4 C44_4 1_555 1_555
H22_4 C44_4 1_555 1_555
C35_4 C38_4 1_555 1_555
C11_3 H3_3 1_555 1_555
C47_3 O17_3 1_555 1_555
H29_3 C47_3 1_555 1_555
H30_3 C47_3 1_555 1_555
H31_3 C47_3 1_555 1_555
C56_3 N1_3 1_555 1_555
H54_3 C56_3 1_555 1_555
H55_3 C56_3 1_555 1_555
H56_3 C56_3 1_555 1_555
C23_3 H6_3 1_555 1_555
C25_3 C23_3 1_555 1_555
C28_3 C25_3 1_555 1_555
C29_3 C28_3 1_555 1_555
O30_2 C40_3 1_555 1_555
O31 C40_3 1_555 1_555
O16_3 C25_3 1_555 1_555
C36_3 H15_3 1_555 1_555
O25_3 C41_3 1_555 1_555
C37_3 C36_3 1_555 1_555
C39_3 C37_3 1_555 1_555
H16_3 C39_3 1_555 1_555
C40_3 C37_3 1_555 1_555
C41_3 C29_3 1_555 1_555
C42_3 C29_3 1_555 1_555
O27_3 C42_3 1_555 1_555
C50_3 O25_3 1_555 1_555
H38_3 C50_3 1_555 1_555
H39_3 C50_3 1_555 1_555
C51_3 O16_3 1_555 1_555
H41_3 C51_3 1_555 1_555
H42_3 C51_3 1_555 1_555
H43_3 C51_3 1_555 1_555
C52_3 O27_3 1_555 1_555
H44_3 C52_3 1_555 1_555
H45_3 C52_3 1_555 1_555
H46_3 C52_3 1_555 1_555
C36_3 C41_3 1_555 1_555
C39_3 C42_3 1_555 1_555
C23_4 H6_4 1_555 1_555
C25_4 C23_4 1_555 1_555
C28_4 C25_4 1_555 1_555
C29_4 C28_4 1_555 1_555
O10_2 C40_4 1_555 1_555
O31_2 C40_4 1_555 1_555
O16_4 C25_4 1_555 1_555
C36_4 H15_4 1_555 1_555
O25_4 C41_4 1_555 1_555
C37_4 C36_4 1_555 1_555
C39_4 C37_4 1_555 1_555
H16_4 C39_4 1_555 1_555
C40_4 C37_4 1_555 1_555
C41_4 C29_4 1_555 1_555
C42_4 C29_4 1_555 1_555
O27_4 C42_4 1_555 1_555
C50_4 O25_4 1_555 1_555
H38_4 C50_4 1_555 1_555
H39_4 C50_4 1_555 1_555
C51_4 O16_4 1_555 1_555
H41_4 C51_4 1_555 1_555
H42_4 C51_4 1_555 1_555
H43_4 C51_4 1_555 1_555
C52_4 O27_4 1_555 1_555
H44_4 C52_4 1_555 1_555
H45_4 C52_4 1_555 1_555
H46_4 C52_4 1_555 1_555
C36_4 C41_4 1_555 1_555
C39_4 C42_4 1_555 1_555
C11_4 H3_4 1_555 1_555
C47_4 O17_4 1_555 1_555
H29_4 C47_4 1_555 1_555
H30_4 C47_4 1_555 1_555
H31_4 C47_4 1_555 1_555
C56_4 N1_4 1_555 1_555
H54_4 C56_4 1_555 1_555
H55_4 C56_4 1_555 1_555
H56_4 C56_4 1_555 1_555

#END
