
###############################################################################
#
# This file contains modified crystal structure data generated from the
# MOF subset of the Cambridge Structural Database (CSD) v543 
# hosted by the Cambridge Crystallographic Data Centre (CCDC).
#
# This work is licensed under the Creative Commons
# Attribution-NonCommercial-ShareAlike 4.0 International License.
# To view a copy of this license, visit
# http://creativecommons.org/licenses/by-nc-sa/4.0/
# or send a letter to
# Creative Commons, PO Box 1866, Mountain View, CA 94042, USA.
#
# CIF created using the CSD Python API on 29 September 2022
# The structure has been converted into the P1 space group
# The structure has a 3D framework
# The original CSD entry MAQJAT is in the orthorhombic crystal system
# The original CSD entry MAQJAT is in a Sohncke space group
# The framework has been calculated to contain at least 10.0% void space
# The void calculation uses a probe of radius 1.32A, grid spacing 0.4
#
###############################################################################

data_MAQJAT
_chemical_formula_moiety         '(C768 H576 P32 Pd4 Sn8)n'
_symmetry_cell_setting           triclinic
_symmetry_space_group_name_H-M   'P 1'
_symmetry_Int_Tables_number      1
_space_group_name_Hall           'P 1'
loop_
_symmetry_equiv_pos_site_id
_symmetry_equiv_pos_as_xyz
1 x,y,z
_cell_length_a                   22.7843(9)
_cell_length_b                   26.6282(13)
_cell_length_c                   31.2186(18)
_cell_angle_alpha                90
_cell_angle_beta                 90
_cell_angle_gamma                90
_cell_volume                     18940.5
loop_
_atom_site_label
_atom_site_type_symbol
_atom_site_fract_x
_atom_site_fract_y
_atom_site_fract_z
Pd2 Pd 0.73591(3) 0.01646(2) 0.93632(2)
C6 C 0.8438(4) 0.0301(4) 0.8402(4)
H5 H 0.840000 0.051453 0.864427
C17 C 0.1449(4) 0.0182(4) 0.6573(4)
H11 H 0.147847 0.035397 0.630740
C46 C 0.1183(4) 0.0422(4) 0.6922(4)
H33 H 0.102617 0.075086 0.689218
C81 C 0.8712(5) 0.0182(5) 0.7669(4)
H56 H 0.887456 0.030481 0.740871
C92 C 0.1153(4) 0.0175(5) 0.7309(4)
H64 H 0.097123 0.033514 0.754698
C113 C 0.8690(4) 0.0496(4) 0.8040(4)
H81 H 0.884393 0.082746 0.803578
P11 P 0.68794(10) 0.07340(9) 0.88783(9)
P12 P 0.79309(10) 0.06035(9) 0.98972(8)
P6 P 0.29309(10) 0.43965(9) 0.01028(8)
H46 H 0.201898 0.368149 0.023499
C118 C 0.3965(4) 0.4290(4) 0.0586(3)
H85 H 0.388871 0.462651 0.067183
H86 H 0.910987 0.890535 0.009894
C127 C 0.3700(4) 0.3557(4) 0.0182(3)
C129 C 0.4568(4) 0.3558(4) 0.0620(4)
H93 H 0.490941 0.339442 0.072538
C142 C 0.4190(4) 0.3302(4) 0.0346(4)
H105 H 0.426207 0.296181 0.027216
C154 C 0.3574(4) 0.4049(4) 0.0302(3)
C160 C 0.4450(4) 0.4049(4) 0.0740(4)
H117 H 0.470834 0.421806 0.093064
Pd7 Pd 0.23591(3) 0.48354(2) 0.06368(2)
Sn1 Sn 0.50761(2) 0.66864(2) 0.75729(2)
Sn2 Sn 0.50107(3) 0.15693(2) 0.25759(2)
Pd1 Pd 0.75904(3) 0.50473(2) 0.43165(2)
P1 P 0.19996(10) 0.94158(9) 0.61289(8)
P2 P 0.80668(10) 0.44492(9) 0.38606(8)
P4 P 0.18794(10) 0.42660(9) 0.11217(9)
P5 P 0.79468(10) 0.96045(9) 0.89515(8)
P7 P 0.69550(10) 0.46249(9) 0.48033(8)
C1 C 0.0350(4) 0.8813(4) 0.5932(4)
C2 C 0.5482(4) 0.0361(4) 0.1667(3)
H2 H 0.534547 0.003154 0.160684
C3 C 0.9119(4) 0.3252(4) 0.4238(3)
H3 H 0.917187 0.290825 0.416617
C4 C 0.6417(4) 0.0363(3) 0.0293(3)
H4 H 0.649107 0.056313 0.004716
C5 C 0.2460(4) 0.8912(3) 0.6355(3)
C7 C 0.9444(4) 0.3460(4) 0.4561(3)
H6 H 0.973193 0.326437 0.470412
C8 C 0.7537(4) 0.3884(4) 0.3165(3)
H7 H 0.775212 0.408362 0.296817
C9 C 0.6849(4) 0.3201(4) 0.3285(3)
C10 C 0.3433(4) 0.8677(3) 0.6585(3)
H8 H 0.383222 0.876741 0.662992
C11 C 0.5940(4) 0.0563(4) 0.1430(3)
C12 C 0.3246(4) 0.8195(4) 0.6687(3)
C13 C 0.6806(4) 0.8265(4) 0.8487(3)
C14 C 0.1366(4) 0.9043(3) 0.5929(3)
C15 C 0.5221(4) 0.0638(3) 0.1992(3)
H9 H 0.490059 0.049570 0.214483
C16 C 0.0803(4) 0.9087(4) 0.6089(4)
H10 H 0.073187 0.931637 0.631676
C18 C 0.9115(5) 0.5105(4) 0.2706(4)
H12 H 0.932849 0.525655 0.247847
C19 C 0.8482(4) 0.4674(4) 0.3390(3)
C20 C 0.3206(4) 0.3267(4) 0.1315(3)
H13 H 0.351061 0.313543 0.114029
C21 C 0.6242(4) 0.0595(3) 0.0669(3)
H14 H 0.618116 0.094815 0.067548
C22 C 0.9097(4) 0.4614(4) 0.3354(4)
H15 H 0.930022 0.442071 0.356164
C23 C 0.7158(4) 0.3521(4) 0.3014(4)
H16 H 0.710600 0.348822 0.271324
C24 C 0.7679(4) 0.8554(4) 0.8857(4)
H17 H 0.803074 0.847502 0.900657
C25 C 0.6155(4) 0.0308(4) 0.1037(3)
C26 C 0.8708(4) 0.3540(4) 0.4012(3)
H18 H 0.849337 0.339491 0.378271
C27 C 0.4179(4) 0.0476(4) 0.3711(3)
C28 C 0.3922(4) 0.0943(4) 0.3608(4)
H19 H 0.358050 0.104870 0.375681
C29 C 0.6296(4) 0.5506(3) 0.6009(3)
C30 C 0.7316(4) 0.8164(4) 0.8716(4)
H20 H 0.742021 0.782611 0.877661
C31 C 0.4611(4) 0.6256(3) 0.8040(3)
C32 C 0.2267(4) 0.8430(4) 0.6461(4)
H21 H 0.186874 0.833856 0.641758
C34 C 0.6147(4) 0.1046(4) 0.1540(3)
H23 H 0.646429 0.118984 0.138551
C35 C 0.4663(4) 0.0322(4) 0.3474(3)
H24 H 0.484518 0.000827 0.353332
C37 C 0.9355(4) 0.3961(4) 0.4681(3)
H26 H 0.957465 0.410312 0.490962
C38 C 0.4128(4) 0.5145(4) 0.9330(3)
H27 H 0.454158 0.518940 0.931985
C39 C 0.8200(4) 0.4944(4) 0.3072(3)
H28 H 0.778668 0.498786 0.309157
C40 C 0.3580(4) 0.2765(4) 0.1932(3)
C41 C 0.7539(4) 0.9045(3) 0.8786(3)
C42 C 0.9522(4) 0.8861(4) 0.9114(4)
H29 H 0.983763 0.874751 0.893952
C43 C 0.2312(5) 0.3652(4) 0.1812(3)
H30 H 0.199993 0.377785 0.198265
C44 C 0.0486(5) 0.3726(4) 0.0422(4)
H31 H 0.020480 0.386658 0.023227
C45 C 0.0442(4) 0.8460(4) 0.5606(4)
H32 H 0.012785 0.826285 0.549832
C47 C 0.6414(4) 0.7859(3) 0.8322(3)
C48 C 0.8603(4) 0.9305(4) 0.9172(3)
C49 C 0.8492(4) 0.5155(4) 0.2726(3)
H34 H 0.828280 0.532769 0.250826
C50 C 0.9068(4) 0.9122(4) 0.8924(4)
H35 H 0.907155 0.917851 0.862374
C51 C 0.8948(4) 0.4245(4) 0.4466(3)
H36 H 0.888936 0.458495 0.454810
C52 C 0.2714(4) 0.3320(4) 0.1989(3)
H37 H 0.267713 0.322723 0.228121
C53 C 0.9534(4) 0.8762(4) 0.9539(4)
H38 H 0.983933 0.856245 0.965840
C54 C 0.6265(4) 0.5727(4) 0.6786(3)
H39 H 0.660289 0.552667 0.683626
C55 C 0.8238(4) 0.9820(4) 0.8436(3)
C56 C 0.9409(4) 0.4832(4) 0.3022(4)
H40 H 0.982358 0.479577 0.300944
C57 C 0.3042(4) 0.9030(4) 0.6418(3)
H41 H 0.317967 0.935687 0.634750
C58 C 0.2362(4) 0.3804(3) 0.1384(3)
C59 C 0.4883(4) 0.0632(3) 0.3146(3)
H42 H 0.520701 0.051958 0.298090
C60 C 0.7308(4) 0.3637(4) 0.3882(4)
H43 H 0.735354 0.367358 0.418259
C61 C 0.3861(4) 0.2400(4) 0.1684(4)
H44 H 0.377969 0.238503 0.138608
C62 C 0.0482(5) 0.3206(4) 0.0506(4)
H45 H 0.020794 0.299191 0.036739
C63 C 0.2148(4) 0.3613(3) 0.9952(3)
C64 C 0.8614(4) 0.4046(4) 0.4126(3)
C65 C 0.3169(4) 0.3121(3) 0.1746(3)
C66 C 0.5416(4) 0.1123(4) 0.2103(3)
C67 C 0.0873(4) 0.4507(4) 0.1631(3)
H47 H 0.064781 0.432424 0.142810
C68 C 0.1671(4) 0.9694(4) 0.6608(3)
C69 C 0.0898(4) 0.4034(4) 0.0616(4)
H48 H 0.089882 0.438300 0.055229
C70 C 0.4789(4) 0.6281(4) 0.8465(3)
H49 H 0.511159 0.649055 0.853887
C71 C 0.3777(4) 0.5380(3) 0.9025(3)
C72 C 0.1631(4) 0.9455(5) 0.7005(4)
H50 H 0.177592 0.912201 0.703589
C73 C 0.7610(4) 0.3962(3) 0.3615(3)
C74 C 0.8264(4) 0.9515(4) 0.8065(3)
H51 H 0.812088 0.918024 0.807456
C75 C 0.2799(4) 0.3603(4) 0.1138(3)
H52 H 0.282685 0.369163 0.084355
C76 C 0.6945(4) 0.3264(4) 0.3732(4)
H53 H 0.675683 0.304615 0.392976
C77 C 0.2653(4) 0.8093(4) 0.6626(4)
H54 H 0.251079 0.776995 0.670435
C78 C 0.1455(4) 0.8702(3) 0.5607(3)
H55 H 0.183787 0.866694 0.549095
C79 C 0.3657(4) 0.7835(3) 0.6877(3)
C80 C 0.3963(4) 0.0184(4) 0.4078(3)
C82 C 0.4637(4) 0.1096(4) 0.3059(3)
C83 C 0.1310(4) 0.3846(4) 0.0902(3)
C84 C 0.6641(4) 0.7424(4) 0.8133(4)
H57 H 0.705161 0.736105 0.814437
C85 C 0.4041(4) 0.5689(4) 0.8679(3)
C86 C 0.4245(4) 0.7830(3) 0.6756(3)
H58 H 0.437767 0.805182 0.653815
C87 C 0.4158(4) 0.1251(4) 0.3294(3)
H59 H 0.398833 0.157048 0.323971
C88 C 0.6318(4) 0.5720(4) 0.5600(4)
H60 H 0.618282 0.605409 0.556089
C89 C 0.1889(4) 0.3219(4) 0.9716(4)
H61 H 0.158683 0.302157 0.984116
C90 C 0.1005(4) 0.8408(4) 0.5445(4)
H62 H 0.108272 0.817123 0.522463
C91 C 0.3848(4) 0.5686(4) 0.8261(3)
H63 H 0.350992 0.549492 0.818909
C93 C 0.8495(5) 0.9699(5) 0.7691(4)
H65 H 0.850496 0.949177 0.744355
C94 C 0.1808(5) 0.4768(4) 0.1914(3)
H66 H 0.222498 0.476772 0.190675
C95 C 0.0887(5) 0.3013(4) 0.0793(4)
H67 H 0.088254 0.266488 0.085941
C97 C 0.5304(4) 0.6343(4) 0.6657(3)
H69 H 0.498379 0.656321 0.660594
C98 C 0.5559(4) 0.6100(4) 0.6315(3)
H70 H 0.540903 0.615146 0.603505
C99 C 0.0586(5) 0.4760(4) 0.1964(4)
H71 H 0.016962 0.475458 0.197883
C100 C 0.8631(5) 0.9223(4) 0.9613(4)
H72 H 0.832852 0.935141 0.979227
C102 C 0.6043(4) 0.5774(4) 0.6377(3)
C103 C 0.5811(4) 0.4837(4) 0.4515(3)
H74 H 0.587793 0.516451 0.462563
C106 C 0.1290(4) 0.3319(4) 0.0982(4)
H75 H 0.156801 0.317623 0.117306
C107 C 0.3377(4) 0.0114(4) 0.4147(3)
H76 H 0.310211 0.023398 0.394243
C109 C 0.5500(4) 0.6275(3) 0.7070(3)
C110 C 0.7805(4) 0.3962(4) 0.5096(3)
H78 H 0.806265 0.419745 0.496612
C111 C 0.1515(5) 0.5009(4) 0.2239(4)
H79 H 0.173714 0.517777 0.245268
C114 C 0.1483(4) 0.4518(4) 0.1591(3)
C115 C 0.0902(5) 0.5017(4) 0.2269(4)
H82 H 0.071033 0.519493 0.249257
C116 C 0.4518(4) 0.6015(4) 0.8779(4)
H83 H 0.464618 0.604615 0.906730
C117 C 0.6530(4) 0.5457(4) 0.5254(4)
H84 H 0.655759 0.561878 0.498411
C119 C 0.6451(4) 0.2816(4) 0.3124(4)
C120 C 0.9096(5) 0.8955(4) 0.9798(4)
C121 C 0.1380(4) 0.9700(5) 0.7358(4)
H87 H 0.136700 0.953919 0.762889
C122 C 0.5678(4) 0.7161(3) 0.7912(3)
C123 C 0.3889(4) 0.4851(4) 0.9646(3)
H88 H 0.414188 0.469660 0.984887
C124 C 0.4463(4) 0.7169(3) 0.7261(3)
C125 C 0.3477(4) 0.7496(4) 0.7180(4)
H89 H 0.307355 0.748470 0.725695
H90 H 0.477549 0.002968 0.432788
H91 H 0.344876 0.338980 0.998517
C130 C 0.8037(5) 0.3561(4) 0.5314(4)
H94 H 0.845056 0.352238 0.533715
C131 C 0.6347(5) 0.2376(4) 0.3339(4)
H95 H 0.655735 0.231085 0.359594
C132 C 0.2762(4) 0.3790(4) 0.9350(3)
H96 H 0.305993 0.398587 0.921832
C134 C 0.3710(5) 0.2767(4) 0.2367(4)
H98 H 0.352157 0.300548 0.254675
C135 C 0.4261(4) 0.2055(4) 0.1860(3)
H99 H 0.445498 0.182023 0.167982
C136 C 0.5894(4) 0.1306(4) 0.1866(3)
H100 H 0.604828 0.162697 0.193728
C138 C 0.6134(4) 0.3983(4) 0.4408(4)
H102 H 0.641442 0.372323 0.444911
C139 C 0.7673(5) 0.3220(4) 0.5498(4)
H103 H 0.782845 0.294533 0.565636
C140 C 0.3281(4) 0.4772(4) 0.9676(3)
C141 C 0.5186(4) 0.4262(4) 0.4134(4)
H104 H 0.483006 0.419712 0.398617
C144 C 0.2592(4) 0.3901(3) 0.9768(3)
C146 C 0.6243(4) 0.4461(4) 0.4570(3)
C147 C 0.5292(4) 0.4733(4) 0.4303(3)
H108 H 0.500392 0.498907 0.427247
C148 C 0.6277(4) 0.7085(4) 0.7928(4)
H109 H 0.644082 0.679508 0.779772
C149 C 0.3868(4) 0.7165(4) 0.7378(4)
H110 H 0.373177 0.693811 0.759049
C150 C 0.6669(5) 0.8751(4) 0.8428(5)
H111 H 0.631401 0.882949 0.828332
C151 C 0.4133(4) 0.5955(4) 0.7943(4)
H112 H 0.400011 0.593238 0.765563
C152 C 0.6508(4) 0.5017(4) 0.6052(3)
H113 H 0.652057 0.486592 0.632751
C155 C 0.7201(4) 0.4033(4) 0.5058(3)
C157 C 0.6703(4) 0.4959(4) 0.5292(3)
C158 C 0.6700(4) 0.4753(4) 0.5703(3)
H115 H 0.683489 0.441882 0.574235
C163 C 0.2075(4) 0.3119(4) 0.9305(4)
H119 H 0.190409 0.285239 0.914621
C164 C 0.5604(5) 0.3880(5) 0.4181(4)
H120 H 0.553591 0.355656 0.406240
C165 C 0.5945(4) 0.2024(4) 0.3194(4)
H121 H 0.588336 0.172725 0.335741
C166 C 0.5814(4) 0.7915(4) 0.8308(4)
H122 H 0.564286 0.819912 0.844364
C167 C 0.5637(4) 0.2091(4) 0.2825(3)
C168 C 0.6151(5) 0.2893(5) 0.2732(4)
H123 H 0.622662 0.318433 0.256487
C169 C 0.4637(4) 0.7506(4) 0.6950(3)
H124 H 0.503841 0.751651 0.686805
C170 C 0.7071(5) 0.3277(5) 0.5451(4)
H125 H 0.681823 0.303693 0.558118
C171 C 0.5988(4) 0.5979(4) 0.7133(3)
H126 H 0.614246 0.594286 0.741359
C172 C 0.3172(4) 0.5301(4) 0.9043(4)
H127 H 0.292388 0.545072 0.883443
C173 C 0.6825(5) 0.3667(4) 0.5224(4)
H128 H 0.641249 0.368715 0.518081
C175 C 0.7022(6) 0.9143(4) 0.8567(5)
H129 H 0.690927 0.947985 0.851150
C176 C 0.5461(4) 0.7586(4) 0.8110(4)
H130 H 0.505051 0.764606 0.810554
C177 C 0.4116(5) 0.2423(4) 0.2553(4)
H131 H 0.421013 0.244312 0.284881
C178 C 0.4373(4) 0.2056(4) 0.2294(3)
C179 C 0.2510(4) 0.3407(4) 0.9127(4)
H132 H 0.263681 0.333928 0.884295
C180 C 0.5746(5) 0.2538(4) 0.2594(4)
H133 H 0.553486 0.259806 0.233695
C181 C 0.2927(4) 0.5005(4) 0.9366(4)
H134 H 0.251377 0.495903 0.937550
Pd4 Pd 0.25904(3) 0.99527(2) 0.56835(2)
P9 P 0.69996(10) 0.55842(9) 0.38711(8)
P10 P 0.82660(10) 0.55972(9) 0.46832(9)
P13 P 0.66822(11) 0.96163(10) 0.97296(9)
P3 P 0.32660(10) 0.94028(9) 0.53168(9)
C33 C 0.2702(5) 0.7933(4) 0.5327(4)
H22 H 0.272270 0.765755 0.552011
C36 C 0.6234(4) 0.9790(4) 0.1021(3)
H25 H 0.618232 0.959421 0.127211
C96 C 0.4167(4) 0.9730(4) 0.4734(3)
H68 H 0.444290 0.959708 0.493198
C101 C 0.6390(4) 0.9560(3) 0.0637(4)
H73 H 0.643105 0.920478 0.062685
C104 C 0.3967(4) 0.9175(3) 0.5548(3)
C105 C 0.3562(4) 0.9663(3) 0.4809(3)
C108 C 0.4279(4) 0.8766(4) 0.5388(4)
H77 H 0.411943 0.857931 0.515578
C112 C 0.2398(5) 0.7883(4) 0.4953(4)
H80 H 0.220304 0.757580 0.489068
C126 C 0.4366(4) 0.9987(3) 0.4373(3)
C128 C 0.2371(4) 0.8281(4) 0.4662(4)
H92 H 0.216728 0.824557 0.439774
C133 C 0.4761(4) 0.9314(4) 0.6055(4)
H97 H 0.492121 0.950616 0.628344
C137 C 0.4219(4) 0.9436(4) 0.5877(3)
H101 H 0.401213 0.971570 0.599109
C143 C 0.3174(4) 0.9867(4) 0.4515(3)
H106 H 0.276386 0.984001 0.456432
C145 C 0.2650(4) 0.8729(4) 0.4766(3)
H107 H 0.262962 0.900064 0.456936
C153 C 0.2964(4) 0.8799(4) 0.5156(3)
C156 C 0.2982(4) 0.8382(4) 0.5432(4)
H114 H 0.318919 0.840642 0.569516
C159 C 0.5058(4) 0.8910(4) 0.5891(3)
H116 H 0.543122 0.882209 0.600359
C161 C 0.4811(4) 0.8624(4) 0.5557(4)
H118 H 0.501069 0.833747 0.544899
C162 C 0.6487(4) 0.9842(3) 0.0263(3)
C183 C 0.7351(5) 0.8874(3) 0.0118(3)
H135 H 0.754266 0.914669 0.025570
C184 C 0.7539(4) 0.8385(3) 0.0191(3)
H136 H 0.785896 0.832320 0.037885
H137 H 0.738756 0.765188 0.003889
H142 H 0.551517 0.938201 0.006692
C174 C 0.5941(6) 0.9508(7) 0.9523(6)
C182 C 0.6883(5) 0.8965(2) 0.9843(3)
C185 C 0.7259(5) 0.7986(2) 0.9989(3)
C186 C 0.6791(4) 0.8077(3) 0.9714(3)
H138 H 0.659986 0.780404 0.957576
C187 C 0.6603(4) 0.8566(4) 0.9641(3)
H139 H 0.628356 0.862752 0.945260
C188 C 0.5822(6) 0.9571(7) 0.9104(6)
H140 H 0.612843 0.968531 0.892145
C189 C 0.5256(6) 0.9473(7) 0.8917(6)
H141 H 0.519919 0.949858 0.861667
C190 C 0.5474(6) 0.9394(7) 0.9764(6)
C191 C 0.4922(6) 0.9289(7) 0.9580(6)
H143 H 0.461310 0.917332 0.975884
C192 C 0.4820(6) 0.9347(7) 0.9169(6)
H144 H 0.443643 0.929951 0.905651
P8 P 0.16822(11) 0.53837(10) 0.02704(9)
C174_2 C 0.0941(6) 0.5492(7) 0.0477(6)
C182_2 C 0.1883(5) 0.6035(2) 0.0157(3)
C185_2 C 0.2259(5) 0.7014(2) 0.0011(3)
C186_2 C 0.1791(4) 0.6923(3) 0.0286(3)
H138_2 H 0.159986 0.719596 0.042424
C187_2 C 0.1603(4) 0.6434(4) 0.0359(3)
H139_2 H 0.128356 0.637248 0.054740
C188_2 C 0.0822(6) 0.5429(7) 0.0896(6)
H140_2 H 0.112843 0.531469 0.107855
C189_2 C 0.0256(6) 0.5527(7) 0.1083(6)
H141_2 H 0.019919 0.550142 0.138333
C190_2 C 0.0474(6) 0.5606(7) 0.0236(6)
Sn1_2 Sn 0.00761(2) 0.83136(2) 0.24271(2)
P5_2 P 0.29468(10) 0.53955(9) 0.10485(8)
C6_2 C 0.3438(4) 0.4699(4) 0.1598(4)
H5_2 H 0.340000 0.448547 0.135573
C13_2 C 0.1806(4) 0.6735(4) 0.1513(3)
C18_2 C 0.4115(5) 0.9895(4) 0.7294(4)
H12_2 H 0.432849 0.974345 0.752153
C24_2 C 0.2679(4) 0.6446(4) 0.1143(4)
H17_2 H 0.303074 0.652498 0.099343
C29_2 C 0.1296(4) 0.9494(3) 0.3991(3)
C30_2 C 0.2316(4) 0.6836(4) 0.1284(4)
H20_2 H 0.242021 0.717389 0.122339
C41_2 C 0.2539(4) 0.5955(3) 0.1214(3)
C42_2 C 0.4522(4) 0.6139(4) 0.0886(4)
H29_2 H 0.483763 0.625249 0.106048
C47_2 C 0.1414(4) 0.7141(3) 0.1678(3)
C48_2 C 0.3603(4) 0.5695(4) 0.0828(3)
C49_2 C 0.3492(4) 0.9845(4) 0.7274(3)
H34_2 H 0.328280 0.967231 0.749174
C50_2 C 0.4068(4) 0.5878(4) 0.1076(4)
H35_2 H 0.407155 0.582149 0.137626
C53_2 C 0.4534(4) 0.6238(4) 0.0461(4)
H38_2 H 0.483933 0.643755 0.034160
C54_2 C 0.1265(4) 0.9273(4) 0.3214(3)
H39_2 H 0.160289 0.947333 0.316374
C55_2 C 0.3238(4) 0.5180(4) 0.1564(3)
H49_2 H 0.011159 0.850945 0.146113
C74_2 C 0.3264(4) 0.5485(4) 0.1935(3)
H51_2 H 0.312088 0.581976 0.192544
C81_2 C 0.3712(5) 0.4818(5) 0.2331(4)
H56_2 H 0.387456 0.469519 0.259129
C84_2 C 0.1641(4) 0.7576(4) 0.1867(4)
H57_2 H 0.205161 0.763895 0.185563
C88_2 C 0.1318(4) 0.9280(4) 0.4400(4)
H60_2 H 0.118282 0.894591 0.443911
C93_2 C 0.3495(5) 0.5301(5) 0.2309(4)
H65_2 H 0.350496 0.550823 0.255645
C97_2 C 0.0304(4) 0.8657(4) 0.3343(3)
C98_2 C 0.0559(4) 0.8900(4) 0.3685(3)
H70_2 H 0.040903 0.884854 0.396495
C100_2 C 0.3631(5) 0.5777(4) 0.0387(4)
H72_2 H 0.332852 0.564859 0.020773
C102_2 C 0.1043(4) 0.9226(4) 0.3623(3)
H74_2 H 0.087793 0.983549 0.537437
C109_2 C 0.0500(4) 0.8725(3) 0.2930(3)
C113_2 C 0.3690(4) 0.4504(4) 0.1960(4)
H81_2 H 0.384393 0.417254 0.196422
C117_2 C 0.1530(4) 0.9543(4) 0.4746(4)
H84_2 H 0.155759 0.938122 0.501589
C120_2 C 0.4096(5) 0.6045(4) 0.0202(4)
C122_2 C 0.0678(4) 0.7839(3) 0.2088(3)
C148_2 C 0.1277(4) 0.7915(4) 0.2072(4)
H109_2 H 0.144082 0.820492 0.220228
C150_2 C 0.1669(5) 0.6249(4) 0.1572(5)
H111_2 H 0.131401 0.617051 0.171668
C152_2 C 0.1508(4) 0.9983(4) 0.3948(3)
C166_2 C 0.0814(4) 0.7085(4) 0.1692(4)
H122_2 H 0.064286 0.680088 0.155636
H124_2 H 0.003841 0.748349 0.313195
C171_2 C 0.0988(4) 0.9021(4) 0.2867(3)
H126_2 H 0.114246 0.905714 0.258641
C175_2 C 0.2022(6) 0.5857(4) 0.1433(5)
H129_2 H 0.190927 0.552015 0.148850
C176_2 C 0.0461(4) 0.7414(4) 0.1890(4)
H130_2 H 0.005051 0.735394 0.189446
H9_2 H 0.990059 0.450430 0.785517
C20_2 C 0.8206(4) 0.1733(4) 0.8685(3)
H13_2 H 0.851061 0.186457 0.885971
C27_2 C 0.9179(4) 0.4524(4) 0.6289(3)
C28_2 C 0.8922(4) 0.4057(4) 0.6392(4)
H19_2 H 0.858050 0.395130 0.624319
C33_2 C 0.7702(5) 0.7067(4) 0.4673(4)
H22_2 H 0.772270 0.734245 0.447989
C35_2 C 0.9663(4) 0.4678(4) 0.6526(3)
H24_2 H 0.984518 0.499173 0.646668
C40_2 C 0.8580(4) 0.2235(4) 0.8068(3)
C43_2 C 0.7312(5) 0.1348(4) 0.8188(3)
H30_2 H 0.699993 0.122215 0.801735
C44_2 C 0.5486(5) 0.1274(4) 0.9578(4)
H31_2 H 0.520480 0.113342 0.976773
C52_2 C 0.7714(4) 0.1680(4) 0.8011(3)
H37_2 H 0.767713 0.177277 0.771879
C58_2 C 0.7362(4) 0.1196(3) 0.8616(3)
C59_2 C 0.9883(4) 0.4368(3) 0.6854(3)
C61_2 C 0.8861(4) 0.2600(4) 0.8316(4)
H44_2 H 0.877969 0.261497 0.861392
C62_2 C 0.5482(5) 0.1794(4) 0.9494(4)
H45_2 H 0.520794 0.200809 0.963261
C63_2 C 0.7148(4) 0.1387(3) 0.0048(3)
C65_2 C 0.8169(4) 0.1879(3) 0.8254(3)
C67_2 C 0.5873(4) 0.0493(4) 0.8369(3)
H47_2 H 0.564781 0.067576 0.857190
C69_2 C 0.5898(4) 0.0966(4) 0.9384(4)
H48_2 H 0.589882 0.061700 0.944771
C75_2 C 0.7799(4) 0.1397(4) 0.8862(3)
H52_2 H 0.782685 0.130837 0.915645
C80_2 C 0.8963(4) 0.4816(4) 0.5922(3)
C82_2 C 0.9637(4) 0.3904(4) 0.6941(3)
C83_2 C 0.6310(4) 0.1154(4) 0.9098(3)
C87_2 C 0.9158(4) 0.3749(4) 0.6706(3)
H59_2 H 0.898833 0.342952 0.676029
C89_2 C 0.6889(4) 0.1781(4) 0.0284(4)
H61_2 H 0.658683 0.197843 0.015884
C94_2 C 0.6808(5) 0.0232(4) 0.8086(3)
H66_2 H 0.722498 0.023228 0.809325
C95_2 C 0.5887(5) 0.1987(4) 0.9207(4)
H67_2 H 0.588254 0.233512 0.914059
C96_2 C 0.9167(4) 0.5270(4) 0.5266(3)
H68_2 H 0.944290 0.540292 0.506802
C99_2 C 0.5586(5) 0.0240(4) 0.8036(4)
H71_2 H 0.516962 0.024542 0.802117
C104_2 C 0.8967(4) 0.5825(3) 0.4452(3)
C105_2 C 0.8562(4) 0.5337(3) 0.5191(3)
C106_2 C 0.6290(4) 0.1681(4) 0.9018(4)
H75_2 H 0.656801 0.182377 0.882694
C107_2 C 0.8377(4) 0.4886(4) 0.5853(3)
H76_2 H 0.810211 0.476602 0.605757
C108_2 C 0.9279(4) 0.6234(4) 0.4612(4)
H77_2 H 0.911943 0.642069 0.484422
C112_2 C 0.7398(5) 0.7117(4) 0.5047(4)
H80_2 H 0.720304 0.742420 0.510932
C114_2 C 0.6483(4) 0.0482(4) 0.8409(3)
C123_2 C 0.8889(4) 0.0149(4) 0.0354(3)
H88_2 H 0.914188 0.030340 0.015113
C126_2 C 0.9366(4) 0.5013(3) 0.5627(3)
H90_2 H 0.977549 0.497032 0.567212
H91_2 H 0.844876 0.161020 0.001483
C128_2 C 0.7371(4) 0.6719(4) 0.5338(4)
H92_2 H 0.716728 0.675443 0.560226
C132_2 C 0.7762(4) 0.1210(4) 0.0650(3)
H96_2 H 0.805993 0.101413 0.078168
C133_2 C 0.9761(4) 0.5686(4) 0.3945(4)
H97_2 H 0.992121 0.549384 0.371656
C134_2 C 0.8710(5) 0.2233(4) 0.7633(4)
H98_2 H 0.852157 0.199452 0.745325
C135_2 C 0.9261(4) 0.2945(4) 0.8140(3)
H99_2 H 0.945498 0.317977 0.832018
C137_2 C 0.9219(4) 0.5564(4) 0.4123(3)
H101_2 H 0.901213 0.528430 0.400891
C140_2 C 0.8281(4) 0.0228(4) 0.0324(3)
H104_2 H 0.983006 0.080288 0.601383
C143_2 C 0.8174(4) 0.5133(4) 0.5485(3)
H106_2 H 0.776386 0.515999 0.543568
C144_2 C 0.7592(4) 0.1099(3) 0.0232(3)
C145_2 C 0.7650(4) 0.6271(4) 0.5234(3)
H107_2 H 0.762962 0.599936 0.543064
C153_2 C 0.7964(4) 0.6201(4) 0.4844(3)
C156_2 C 0.7982(4) 0.6618(4) 0.4568(4)
H114_2 H 0.818919 0.659358 0.430484
C161_2 C 0.9811(4) 0.6376(4) 0.4443(4)
C163_2 C 0.7075(4) 0.1881(4) 0.0695(4)
H119_2 H 0.690409 0.214761 0.085379
C177_2 C 0.9116(5) 0.2577(4) 0.7447(4)
H131_2 H 0.921013 0.255688 0.715119
C178_2 C 0.9373(4) 0.2944(4) 0.7706(3)
C179_2 C 0.7510(4) 0.1593(4) 0.0873(4)
H132_2 H 0.763681 0.166072 0.115705
H134_2 H 0.751377 0.004097 0.062450
H46_2 H 0.701898 0.131851 0.976501
C118_2 C 0.8965(4) 0.0710(4) 0.9414(3)
H85_2 H 0.888871 0.037349 0.932817
C127_2 C 0.8700(4) 0.1443(4) 0.9818(3)
C129_2 C 0.9568(4) 0.1442(4) 0.9380(4)
H93_2 H 0.990941 0.160558 0.927462
C142_2 C 0.9190(4) 0.1698(4) 0.9654(4)
H105_2 H 0.926207 0.203819 0.972784
C154_2 C 0.8574(4) 0.0951(4) 0.9698(3)
C160_2 C 0.9450(4) 0.0951(4) 0.9260(4)
H117_2 H 0.970834 0.078194 0.906936
C1_2 C 0.5350(4) 0.6187(4) 0.4068(4)
H1 H 0.496577 0.613870 0.395680
C5_2 C 0.7460(4) 0.6088(3) 0.3645(3)
C10_2 C 0.8433(4) 0.6323(3) 0.3415(3)
H8_2 H 0.883222 0.623259 0.337008
C12_2 C 0.8246(4) 0.6805(4) 0.3313(3)
C14_2 C 0.6366(4) 0.5957(3) 0.4071(3)
C16_2 C 0.5803(4) 0.5913(4) 0.3911(4)
H10_2 H 0.573187 0.568363 0.368324
C17_2 C 0.6449(4) 0.4818(4) 0.3427(4)
H11_2 H 0.647847 0.464603 0.369260
C31_2 C 0.9611(4) 0.8744(3) 0.1960(3)
C32_2 C 0.7267(4) 0.6570(4) 0.3539(4)
H21_2 H 0.686874 0.666144 0.358242
C38_2 C 0.9128(4) 0.9855(4) 0.0670(3)
H27_2 H 0.954158 0.981060 0.068015
C45_2 C 0.5442(4) 0.6540(4) 0.4394(4)
H32_2 H 0.512785 0.673715 0.450168
C46_2 C 0.6183(4) 0.4578(4) 0.3078(4)
H33_2 H 0.602617 0.424914 0.310782
C57_2 C 0.8042(4) 0.5970(4) 0.3582(3)
H41_2 H 0.817967 0.564313 0.365250
C68_2 C 0.6671(4) 0.5306(4) 0.3392(3)
C70_2 C 0.9789(4) 0.8719(4) 0.1535(3)
C71_2 C 0.8777(4) 0.9620(3) 0.0975(3)
C72_2 C 0.6631(4) 0.5545(5) 0.2995(4)
H50_2 H 0.677592 0.587799 0.296411
C77_2 C 0.7653(4) 0.6907(4) 0.3374(4)
H54_2 H 0.751079 0.723005 0.329565
C78_2 C 0.6455(4) 0.6298(3) 0.4393(3)
H55_2 H 0.683787 0.633306 0.450905
C79_2 C 0.8657(4) 0.7165(3) 0.3123(3)
C85_2 C 0.9041(4) 0.9311(4) 0.1321(3)
C86_2 C 0.9245(4) 0.7170(3) 0.3244(3)
H58_2 H 0.937767 0.694818 0.346185
C90_2 C 0.6005(4) 0.6592(4) 0.4555(4)
H62_2 H 0.608272 0.682877 0.477537
C91_2 C 0.8848(4) 0.9314(4) 0.1739(3)
H63_2 H 0.850992 0.950508 0.181091
C92_2 C 0.6153(4) 0.4825(5) 0.2691(4)
H64_2 H 0.597123 0.466486 0.245302
H69_2 H 0.998379 0.843679 0.339406
C111_2 C 0.6515(5) 0.9991(4) 0.7761(4)
H79_2 H 0.673714 0.982223 0.754732
C115_2 C 0.5902(5) 0.9983(4) 0.7731(4)
H82_2 H 0.571033 0.980507 0.750743
C116_2 C 0.9518(4) 0.8985(4) 0.1221(4)
H83_2 H 0.964618 0.895385 0.093270
C121_2 C 0.6380(4) 0.5300(5) 0.2642(4)
H87_2 H 0.636700 0.546081 0.237111
C124_2 C 0.9463(4) 0.7831(3) 0.2739(3)
C125_2 C 0.8477(4) 0.7504(4) 0.2820(4)
H89_2 H 0.807355 0.751530 0.274305
C149_2 C 0.8868(4) 0.7835(4) 0.2622(4)
H110_2 H 0.873177 0.806189 0.240951
C151_2 C 0.9133(4) 0.9045(4) 0.2057(4)
H112_2 H 0.900011 0.906762 0.234437
C169_2 C 0.9637(4) 0.7494(4) 0.3050(3)
C172_2 C 0.8172(4) 0.9699(4) 0.0957(4)
H127_2 H 0.792388 0.954928 0.116557
C181_2 C 0.7927(4) 0.9995(4) 0.0634(4)
H1_2 H 0.996577 0.886130 0.604320
P3_2 P 0.17340(10) 0.05972(9) 0.03168(9)
C33_3 C 0.2298(5) 0.2067(4) 0.0327(4)
H22_3 H 0.227730 0.234245 0.052011
C104_3 C 0.1033(4) 0.0825(3) 0.0548(3)
C108_3 C 0.0721(4) 0.1234(4) 0.0388(4)
H77_3 H 0.088057 0.142069 0.015578
C133_3 C 0.0239(4) 0.0686(4) 0.1055(4)
H97_3 H 0.007879 0.049384 0.128344
C137_3 C 0.0781(4) 0.0564(4) 0.0877(3)
H101_3 H 0.098787 0.028430 0.099109
C153_3 C 0.2036(4) 0.1201(4) 0.0156(3)
C156_3 C 0.2018(4) 0.1618(4) 0.0432(4)
H114_3 H 0.181081 0.159358 0.069516
C161_3 C 0.0189(4) 0.1376(4) 0.0557(4)
Pd3 Pd 0.24096(3) 0.00473(2) 0.06835(2)
P1_2 P 0.30004(10) 0.05842(9) 0.11289(8)
P6_2 P 0.20691(10) 0.56035(9) 0.51028(8)
C1_3 C 0.4650(4) 0.1187(4) 0.0932(4)
H1_3 H 0.503423 0.113870 0.104320
C5_3 C 0.2540(4) 0.1088(3) 0.1355(3)
C10_3 C 0.1567(4) 0.1323(3) 0.1585(3)
H8_3 H 0.116778 0.123259 0.162992
C12_3 C 0.1754(4) 0.1805(4) 0.1687(3)
C14_3 C 0.3634(4) 0.0957(3) 0.0929(3)
C16_3 C 0.4197(4) 0.0913(4) 0.1089(4)
H10_3 H 0.426813 0.068363 0.131676
C31_3 C 0.0389(4) 0.3744(3) 0.3040(3)
C32_3 C 0.2733(4) 0.1570(4) 0.1461(4)
H21_3 H 0.313126 0.166144 0.141758
C38_3 C 0.0872(4) 0.4855(4) 0.4330(3)
H27_3 H 0.045842 0.481060 0.431985
C45_3 C 0.4558(4) 0.1540(4) 0.0606(4)
H32_3 H 0.487215 0.173715 0.049832
C57_3 C 0.1958(4) 0.0970(4) 0.1418(3)
H41_3 H 0.182033 0.064313 0.134750
C63_3 C 0.2852(4) 0.6387(3) 0.4952(3)
H46_3 H 0.298102 0.631851 0.523499
C68_3 C 0.3329(4) 0.0306(4) 0.1608(3)
C70_3 C 0.0211(4) 0.3719(4) 0.3465(3)
C71_3 C 0.1223(4) 0.4620(3) 0.4025(3)
C72_3 C 0.3369(4) 0.0545(5) 0.2005(4)
H50_3 H 0.322408 0.087799 0.203589
C77_3 C 0.2347(4) 0.1907(4) 0.1626(4)
H54_3 H 0.248921 0.223005 0.170435
C78_3 C 0.3545(4) 0.1298(3) 0.0607(3)
H55_3 H 0.316213 0.133306 0.049095
C79_3 C 0.1343(4) 0.2165(3) 0.1877(3)
C85_3 C 0.0959(4) 0.4311(4) 0.3679(3)
C86_3 C 0.0755(4) 0.2170(3) 0.1756(3)
H58_3 H 0.062233 0.194818 0.153815
C89_3 C 0.3111(4) 0.6781(4) 0.4716(4)
H61_3 H 0.341317 0.697843 0.484116
C90_3 C 0.3995(4) 0.1592(4) 0.0445(4)
H62_3 H 0.391728 0.182877 0.022463
C91_3 C 0.1152(4) 0.4314(4) 0.3261(3)
H63_3 H 0.149008 0.450508 0.318909
H69_3 H 0.001621 0.343679 0.160594
C116_3 C 0.0482(4) 0.3985(4) 0.3779(4)
H83_3 H 0.035382 0.395385 0.406730
C118_3 C 0.1035(4) 0.5710(4) 0.5586(3)
H85_3 H 0.111129 0.537349 0.567183
C121_3 C 0.3620(4) 0.0300(5) 0.2358(4)
H87_3 H 0.363300 0.046081 0.262889
C123_3 C 0.1111(4) 0.5149(4) 0.4646(3)
H88_3 H 0.085812 0.530340 0.484887
C124_3 C 0.0537(4) 0.2831(3) 0.2261(3)
C125_3 C 0.1523(4) 0.2504(4) 0.2180(4)
H89_3 H 0.192645 0.251530 0.225695
C127_3 C 0.1300(4) 0.6443(4) 0.5182(3)
H91_3 H 0.155124 0.661020 0.498517
C129_3 C 0.0432(4) 0.6442(4) 0.5620(4)
H93_3 H 0.009059 0.660558 0.572538
C132_3 C 0.2238(4) 0.6210(4) 0.4350(3)
H96_3 H 0.194007 0.601413 0.421832
C140_3 C 0.1719(4) 0.5228(4) 0.4676(3)
C142_3 C 0.0810(4) 0.6698(4) 0.5346(4)
H105_3 H 0.073793 0.703819 0.527216
C144_3 C 0.2408(4) 0.6099(3) 0.4768(3)
C149_3 C 0.1132(4) 0.2835(4) 0.2378(4)
H110_3 H 0.126823 0.306189 0.259049
C151_3 C 0.0867(4) 0.4045(4) 0.2943(4)
H112_3 H 0.099989 0.406762 0.265563
C154_3 C 0.1426(4) 0.5951(4) 0.5302(3)
C160_3 C 0.0550(4) 0.5951(4) 0.5740(4)
H117_3 H 0.029166 0.578194 0.593064
C163_3 C 0.2925(4) 0.6881(4) 0.4305(4)
H119_3 H 0.309591 0.714761 0.414621
C169_3 C 0.0363(4) 0.2494(4) 0.1950(3)
C172_3 C 0.1828(4) 0.4699(4) 0.4043(4)
H127_3 H 0.207612 0.454928 0.383443
C179_3 C 0.2490(4) 0.6593(4) 0.4127(4)
H132_3 H 0.236319 0.666072 0.384295
C181_3 C 0.2073(4) 0.4995(4) 0.4366(4)
H134_3 H 0.248623 0.504097 0.437550
Pd7_2 Pd 0.26409(3) 0.51646(2) 0.56368(2)
P4_2 P 0.31206(10) 0.57340(9) 0.61217(9)
H9_3 H 0.009941 0.950430 0.714483
C20_3 C 0.1794(4) 0.6733(4) 0.6315(3)
H13_3 H 0.148939 0.686457 0.614029
C27_3 C 0.0821(4) 0.9524(4) 0.8711(3)
C28_3 C 0.1078(4) 0.9057(4) 0.8608(4)
H19_3 H 0.141950 0.895130 0.875681
C35_3 C 0.0337(4) 0.9678(4) 0.8474(3)
H24_3 H 0.015482 0.999173 0.853332
C40_3 C 0.1420(4) 0.7235(4) 0.6932(3)
C43_3 C 0.2688(5) 0.6348(4) 0.6812(3)
H30_3 H 0.300007 0.622215 0.698265
C44_3 C 0.4514(5) 0.6274(4) 0.5422(4)
H31_3 H 0.479520 0.613342 0.523227
C52_3 C 0.2286(4) 0.6680(4) 0.6989(3)
H37_3 H 0.232287 0.677277 0.728121
C58_3 C 0.2638(4) 0.6196(3) 0.6384(3)
C59_3 C 0.0117(4) 0.9368(3) 0.8146(3)
C61_3 C 0.1139(4) 0.7600(4) 0.6684(4)
H44_3 H 0.122031 0.761497 0.638608
C62_3 C 0.4518(5) 0.6794(4) 0.5506(4)
H45_3 H 0.479206 0.700809 0.536739
C65_3 C 0.1831(4) 0.6879(3) 0.6746(3)
C67_3 C 0.4127(4) 0.5493(4) 0.6631(3)
H47_3 H 0.435219 0.567576 0.642810
C69_3 C 0.4102(4) 0.5966(4) 0.5616(4)
H48_3 H 0.410118 0.561700 0.555229
C75_3 C 0.2201(4) 0.6397(4) 0.6138(3)
H52_3 H 0.217315 0.630837 0.584355
C80_3 C 0.1037(4) 0.9816(4) 0.9078(3)
C82_3 C 0.0363(4) 0.8904(4) 0.8059(3)
C83_3 C 0.3690(4) 0.6154(4) 0.5902(3)
C87_3 C 0.0842(4) 0.8749(4) 0.8294(3)
H59_3 H 0.101167 0.842952 0.823971
C94_3 C 0.3192(5) 0.5232(4) 0.6914(3)
H66_3 H 0.277502 0.523228 0.690675
C95_3 C 0.4113(5) 0.6987(4) 0.5793(4)
H67_3 H 0.411746 0.733512 0.585941
C99_3 C 0.4414(5) 0.5240(4) 0.6964(4)
H71_3 H 0.483038 0.524542 0.697883
C106_3 C 0.3710(4) 0.6681(4) 0.5982(4)
H75_3 H 0.343199 0.682377 0.617306
C107_3 C 0.1623(4) 0.9886(4) 0.9147(3)
H76_3 H 0.189789 0.976602 0.894243
C111_3 C 0.3485(5) 0.4991(4) 0.7239(4)
H79_3 H 0.326286 0.482223 0.745268
C114_3 C 0.3517(4) 0.5482(4) 0.6591(3)
C115_3 C 0.4098(5) 0.4983(4) 0.7269(4)
H82_3 H 0.428967 0.480507 0.749257
H90_3 H 0.022451 0.997032 0.932788
C134_3 C 0.1290(5) 0.7233(4) 0.7367(4)
H98_3 H 0.147843 0.699452 0.754675
C135_3 C 0.0739(4) 0.7945(4) 0.6860(3)
H99_3 H 0.054502 0.817977 0.667982
H104_3 H 0.016994 0.580288 0.898617
C177_3 C 0.0884(5) 0.7577(4) 0.7553(4)
H131_3 H 0.078987 0.755688 0.784881
C178_3 C 0.0627(4) 0.7944(4) 0.7294(3)
Sn2_2 Sn 0.99893(3) 0.84307(2) 0.75759(2)
Pd1_2 Pd 0.74096(3) 0.49527(2) 0.93165(2)
P2_2 P 0.69332(10) 0.55508(9) 0.88606(8)
P7_2 P 0.80450(10) 0.53751(9) 0.98033(8)
C2_2 C 0.9518(4) 0.9639(4) 0.6667(3)
H2_2 H 0.965453 0.996846 0.660684
C3_2 C 0.5881(4) 0.6748(4) 0.9238(3)
H3_2 H 0.582813 0.709175 0.916617
C4_2 C 0.8583(4) 0.9637(3) 0.5293(3)
H4_2 H 0.850893 0.943687 0.504716
C7_2 C 0.5556(4) 0.6540(4) 0.9561(3)
H6_2 H 0.526807 0.673563 0.970412
C8_2 C 0.7463(4) 0.6116(4) 0.8165(3)
H7_2 H 0.724788 0.591638 0.796817
C9_2 C 0.8151(4) 0.6799(4) 0.8285(3)
C11_2 C 0.9060(4) 0.9437(4) 0.6430(3)
C15_2 C 0.9779(4) 0.9362(3) 0.6992(3)
C18_3 C 0.5885(5) 0.4895(4) 0.7706(4)
H12_3 H 0.567151 0.474345 0.747847
C19_2 C 0.6518(4) 0.5326(4) 0.8390(3)
C21_2 C 0.8758(4) 0.9405(3) 0.5669(3)
H14_2 H 0.881884 0.905185 0.567548
C22_2 C 0.5903(4) 0.5386(4) 0.8354(4)
H15_2 H 0.569978 0.557929 0.856164
C23_2 C 0.7842(4) 0.6479(4) 0.8014(4)
H16_2 H 0.789400 0.651178 0.771324
C25_2 C 0.8845(4) 0.9692(4) 0.6037(3)
C26_2 C 0.6292(4) 0.6460(4) 0.9012(3)
H18_2 H 0.650663 0.660509 0.878271
C34_2 C 0.8853(4) 0.8954(4) 0.6540(3)
H23_2 H 0.853571 0.881016 0.638551
C37_2 C 0.5645(4) 0.6039(4) 0.9681(3)
H26_2 H 0.542535 0.589688 0.990962
C39_2 C 0.6800(4) 0.5056(4) 0.8072(3)
H28_2 H 0.721332 0.501214 0.809157
C49_3 C 0.6508(4) 0.4845(4) 0.7726(3)
H34_3 H 0.671720 0.467231 0.750826
C51_2 C 0.6052(4) 0.5755(4) 0.9466(3)
H36_2 H 0.611064 0.541505 0.954810
C56_2 C 0.5591(4) 0.5168(4) 0.8022(4)
H40_2 H 0.517642 0.520423 0.800944
H42_2 H 0.979299 0.948042 0.798090
C60_2 C 0.7692(4) 0.6363(4) 0.8882(4)
H43_2 H 0.764646 0.632642 0.918259
C64_2 C 0.6386(4) 0.5954(4) 0.9126(3)
C66_2 C 0.9584(4) 0.8877(4) 0.7103(3)
C73_2 C 0.7390(4) 0.6038(3) 0.8615(3)
C76_2 C 0.8055(4) 0.6736(4) 0.8732(4)
H53_2 H 0.824317 0.695385 0.892976
C103_2 C 0.9189(4) 0.5163(4) 0.9515(3)
H74_3 H 0.912207 0.483549 0.962563
H78_2 H 0.693735 0.580255 0.996612
H84_3 H 0.844241 0.438122 0.998411
C119_2 C 0.8549(4) 0.7184(4) 0.8124(4)
C131_2 C 0.8653(5) 0.7624(4) 0.8339(4)
H95_2 H 0.844265 0.768915 0.859594
C136_2 C 0.9106(4) 0.8694(4) 0.6866(3)
H100_2 H 0.895172 0.837303 0.693728
C138_2 C 0.8866(4) 0.6017(4) 0.9408(4)
H102_2 H 0.858558 0.627677 0.944911
C141_2 C 0.9814(4) 0.5738(4) 0.9134(4)
C146_2 C 0.8757(4) 0.5539(4) 0.9570(3)
C147_2 C 0.9708(4) 0.5267(4) 0.9303(3)
H108_2 H 0.999608 0.501093 0.927247
C164_2 C 0.9396(5) 0.6120(5) 0.9181(4)
H120_2 H 0.946409 0.644344 0.906240
C165_2 C 0.9055(4) 0.7976(4) 0.8194(4)
H121_2 H 0.911664 0.827275 0.835741
C167_2 C 0.9363(4) 0.7909(4) 0.7825(3)
C168_2 C 0.8849(5) 0.7107(5) 0.7732(4)
H123_2 H 0.877338 0.681567 0.756487
C180_2 C 0.9254(5) 0.7462(4) 0.7594(4)
H133_2 H 0.946514 0.740194 0.733695
Pd5 Pd 0.76409(3) 0.98354(2) 0.43632(2)
P9_2 P 0.80004(10) 0.44158(9) 0.88711(8)
P10_2 P 0.67340(10) 0.44028(9) 0.96832(9)
C6_3 C 0.6562(4) 0.9699(4) 0.3402(4)
H5_3 H 0.660000 0.948547 0.364427
C81_3 C 0.6288(5) 0.9818(5) 0.2669(4)
H56_3 H 0.612544 0.969519 0.240871
C113_3 C 0.6310(4) 0.9504(4) 0.3040(4)
H81_3 H 0.615607 0.917254 0.303578
P11_2 P 0.81206(10) 0.92660(9) 0.38783(9)
P12_2 P 0.70691(10) 0.93965(9) 0.48972(8)
C18_4 C 0.0885(5) 0.0105(4) 0.2294(4)
H12_4 H 0.067151 0.025655 0.252153
C49_4 C 0.1508(4) 0.0155(4) 0.2274(3)
H34_4 H 0.171720 0.032769 0.249174
H74_4 H 0.412207 0.016451 0.037437
C111_4 C 0.8485(5) 0.0009(4) 0.2761(4)
H79_4 H 0.826286 0.017777 0.254732
C115_4 C 0.9098(5) 0.0017(4) 0.2731(4)
H82_4 H 0.928967 0.019493 0.250743
H84_4 H 0.344241 0.061878 0.001589
Sn1_3 Sn 0.49239(2) 0.16864(2) 0.74271(2)
P5_3 P 0.20532(10) 0.46045(9) 0.60485(8)
C1_4 C 0.9650(4) 0.3813(4) 0.9068(4)
C5_4 C 0.7540(4) 0.3912(3) 0.8645(3)
C6_4 C 0.1562(4) 0.5301(4) 0.6598(4)
H5_4 H 0.160000 0.551453 0.635573
C10_4 C 0.6567(4) 0.3677(3) 0.8415(3)
H8_4 H 0.616778 0.376741 0.837008
C12_4 C 0.6754(4) 0.3195(4) 0.8313(3)
C13_3 C 0.3194(4) 0.3265(4) 0.6513(3)
C14_4 C 0.8634(4) 0.4043(3) 0.9071(3)
C16_4 C 0.9197(4) 0.4087(4) 0.8911(4)
H10_4 H 0.926813 0.431637 0.868324
C17_3 C 0.8551(4) 0.5182(4) 0.8427(4)
H11_3 H 0.852153 0.535397 0.869260
C24_3 C 0.2321(4) 0.3554(4) 0.6143(4)
H17_3 H 0.196926 0.347502 0.599343
C29_3 C 0.3704(4) 0.0506(3) 0.8991(3)
C30_3 C 0.2684(4) 0.3164(4) 0.6284(4)
H20_3 H 0.257979 0.282611 0.622339
C31_4 C 0.5389(4) 0.1256(3) 0.6960(3)
C32_4 C 0.7733(4) 0.3430(4) 0.8539(4)
H21_4 H 0.813126 0.333856 0.858242
C38_4 C 0.5872(4) 0.0145(4) 0.5670(3)
H27_4 H 0.545842 0.018940 0.568015
C41_3 C 0.2461(4) 0.4045(3) 0.6214(3)
C42_3 C 0.0478(4) 0.3861(4) 0.5886(4)
H29_3 H 0.016237 0.374751 0.606048
C45_4 C 0.9558(4) 0.3460(4) 0.9394(4)
H32_4 H 0.987215 0.326285 0.950168
C46_3 C 0.8817(4) 0.5422(4) 0.8078(4)
H33_3 H 0.897383 0.575086 0.810782
C47_3 C 0.3586(4) 0.2859(3) 0.6678(3)
C48_3 C 0.1397(4) 0.4305(4) 0.5828(3)
C50_3 C 0.0932(4) 0.4122(4) 0.6076(4)
H35_3 H 0.092845 0.417851 0.637626
C53_3 C 0.0466(4) 0.3762(4) 0.5461(4)
H38_3 H 0.016067 0.356245 0.534160
C54_3 C 0.3735(4) 0.0727(4) 0.8214(3)
H39_3 H 0.339711 0.052667 0.816374
C55_3 C 0.1762(4) 0.4820(4) 0.6564(3)
C57_4 C 0.6958(4) 0.4030(4) 0.8582(3)
H41_4 H 0.682033 0.435687 0.865250
C68_4 C 0.8329(4) 0.4694(4) 0.8392(3)
C70_4 C 0.5211(4) 0.1281(4) 0.6535(3)
H49_3 H 0.488841 0.149055 0.646113
C71_4 C 0.6223(4) 0.0380(3) 0.5975(3)
C72_4 C 0.8369(4) 0.4455(5) 0.7995(4)
H50_4 H 0.822408 0.412201 0.796411
C74_3 C 0.1736(4) 0.4515(4) 0.6935(3)
H51_3 H 0.187912 0.418024 0.692544
C77_4 C 0.7347(4) 0.3093(4) 0.8374(4)
H54_4 H 0.748921 0.276995 0.829565
C78_4 C 0.8545(4) 0.3702(3) 0.9393(3)
H55_4 H 0.816213 0.366694 0.950905
C79_4 C 0.6343(4) 0.2835(3) 0.8123(3)
C81_4 C 0.1288(5) 0.5182(5) 0.7331(4)
H56_4 H 0.112544 0.530481 0.759129
C84_3 C 0.3359(4) 0.2424(4) 0.6867(4)
H57_3 H 0.294839 0.236105 0.685563
C85_4 C 0.5959(4) 0.0689(4) 0.6321(3)
C86_4 C 0.5755(4) 0.2830(3) 0.8244(3)
H58_4 H 0.562233 0.305182 0.846185
C88_3 C 0.3682(4) 0.0720(4) 0.9400(4)
H60_3 H 0.381718 0.105409 0.943911
C90_4 C 0.8995(4) 0.3408(4) 0.9555(4)
H62_4 H 0.891728 0.317123 0.977537
C91_4 C 0.6152(4) 0.0686(4) 0.6739(3)
H63_4 H 0.649008 0.049492 0.681091
C92_3 C 0.8847(4) 0.5175(5) 0.7691(4)
H64_3 H 0.902877 0.533514 0.745302
C93_3 C 0.1505(5) 0.4699(5) 0.7309(4)
H65_3 H 0.149504 0.449177 0.755645
C97_3 C 0.4696(4) 0.1343(4) 0.8343(3)
H69_4 H 0.501621 0.156321 0.839406
C98_3 C 0.4441(4) 0.1100(4) 0.8685(3)
H70_3 H 0.459097 0.115146 0.896495
C100_3 C 0.1369(5) 0.4223(4) 0.5387(4)
H72_3 H 0.167148 0.435141 0.520773
C102_3 C 0.3957(4) 0.0774(4) 0.8623(3)
C109_3 C 0.4500(4) 0.1275(3) 0.7930(3)
C113_4 C 0.1310(4) 0.5496(4) 0.6960(4)
H81_4 H 0.115607 0.582746 0.696422
C116_4 C 0.5482(4) 0.1015(4) 0.6221(4)
H83_4 H 0.535382 0.104615 0.593270
C117_3 C 0.3470(4) 0.0457(4) 0.9746(4)
C120_3 C 0.0904(5) 0.3955(4) 0.5202(4)
H86_2 H 0.089013 0.390535 0.490106
C121_4 C 0.8620(4) 0.4700(5) 0.7642(4)
H87_4 H 0.863300 0.453919 0.737111
C122_3 C 0.4322(4) 0.2161(3) 0.7088(3)
C124_4 C 0.5537(4) 0.2169(3) 0.7739(3)
C125_4 C 0.6523(4) 0.2496(4) 0.7820(4)
H89_4 H 0.692645 0.248470 0.774305
C148_3 C 0.3723(4) 0.2085(4) 0.7072(4)
H109_3 H 0.355918 0.179508 0.720228
C149_4 C 0.6132(4) 0.2165(4) 0.7622(4)
H110_4 H 0.626823 0.193811 0.740951
C150_3 C 0.3331(5) 0.3751(4) 0.6572(5)
H111_3 H 0.368599 0.382949 0.671668
C151_4 C 0.5867(4) 0.0955(4) 0.7057(4)
H112_4 H 0.599989 0.093238 0.734437
C152_3 C 0.3492(4) 0.0017(4) 0.8948(3)
C166_3 C 0.4186(4) 0.2915(4) 0.6692(4)
H122_3 H 0.435714 0.319912 0.655636
C169_4 C 0.5363(4) 0.2506(4) 0.8050(3)
H124_3 H 0.496159 0.251651 0.813195
C171_3 C 0.4012(4) 0.0979(4) 0.7867(3)
H126_3 H 0.385754 0.094286 0.758641
C172_4 C 0.6828(4) 0.0301(4) 0.5957(4)
H127_4 H 0.707612 0.045072 0.616557
C175_3 C 0.2978(6) 0.4143(4) 0.6433(5)
H129_3 H 0.309073 0.447985 0.648850
C176_3 C 0.4539(4) 0.2586(4) 0.6890(4)
H130_3 H 0.494949 0.264606 0.689446
C181_4 C 0.7073(4) 0.0005(4) 0.5634(4)
P13_2 P 0.33178(11) 0.46163(10) 0.52704(9)
Sn2_3 Sn 0.49893(3) 0.65693(2) 0.24241(2)
P2_3 P 0.19332(10) 0.94492(9) 0.11394(8)
P7_3 P 0.30450(10) 0.96249(9) 0.01967(8)
C2_3 C 0.4518(4) 0.5361(4) 0.3333(3)
H2_3 H 0.465453 0.503154 0.339316
C3_3 C 0.0881(4) 0.8252(4) 0.0762(3)
H3_3 H 0.082813 0.790825 0.083383
C4_3 C 0.3583(4) 0.5363(3) 0.4707(3)
H4_3 H 0.350893 0.556313 0.495284
C7_3 C 0.0556(4) 0.8460(4) 0.0439(3)
H6_3 H 0.026807 0.826437 0.029588
C8_3 C 0.2463(4) 0.8884(4) 0.1835(3)
H7_3 H 0.224788 0.908362 0.203183
C9_3 C 0.3151(4) 0.8201(4) 0.1715(3)
C11_3 C 0.4060(4) 0.5563(4) 0.3570(3)
C15_3 C 0.4779(4) 0.5638(3) 0.3008(3)
H9_4 H 0.509941 0.549570 0.285517
C19_3 C 0.1518(4) 0.9674(4) 0.1610(3)
C20_4 C 0.6794(4) 0.8267(4) 0.3685(3)
H13_4 H 0.648939 0.813543 0.385971
C21_3 C 0.3758(4) 0.5595(3) 0.4331(3)
H14_3 H 0.381884 0.594815 0.432452
C22_3 C 0.0903(4) 0.9614(4) 0.1646(4)
H15_3 H 0.069978 0.942071 0.143836
C23_3 C 0.2842(4) 0.8521(4) 0.1986(4)
H16_3 H 0.289400 0.848822 0.228676
C25_3 C 0.3845(4) 0.5308(4) 0.3963(3)
C26_3 C 0.1292(4) 0.8540(4) 0.0988(3)
H18_3 H 0.150663 0.839491 0.121729
C27_4 C 0.5821(4) 0.5476(4) 0.1289(3)
C28_4 C 0.6078(4) 0.5943(4) 0.1392(4)
H19_4 H 0.641950 0.604870 0.124319
C34_3 C 0.3853(4) 0.6046(4) 0.3460(3)
H23_3 H 0.353571 0.618984 0.361449
C35_4 C 0.5337(4) 0.5322(4) 0.1526(3)
H24_4 H 0.515482 0.500827 0.146668
C36_2 C 0.3766(4) 0.4790(4) 0.3979(3)
H25_2 H 0.381768 0.459421 0.372789
C37_3 C 0.0645(4) 0.8961(4) 0.0319(3)
H26_3 H 0.042535 0.910312 0.009038
C39_3 C 0.1800(4) 0.9944(4) 0.1928(3)
H28_3 H 0.221332 0.998786 0.190843
C40_4 C 0.6420(4) 0.7765(4) 0.3068(3)
C43_4 C 0.7688(5) 0.8652(4) 0.3188(3)
H30_4 H 0.800007 0.877785 0.301735
C44_4 C 0.9514(5) 0.8726(4) 0.4578(4)
H31_4 H 0.979520 0.886658 0.476773
C51_3 C 0.1052(4) 0.9245(4) 0.0534(3)
H36_3 H 0.111064 0.958495 0.045190
C52_4 C 0.7286(4) 0.8320(4) 0.3011(3)
H37_4 H 0.732287 0.822723 0.271879
C56_3 C 0.0591(4) 0.9832(4) 0.1978(4)
H40_3 H 0.017642 0.979577 0.199056
C58_4 C 0.7638(4) 0.8804(3) 0.3616(3)
C59_4 C 0.5117(4) 0.5632(3) 0.1854(3)
H42_3 H 0.479299 0.551958 0.201910
C60_3 C 0.2692(4) 0.8637(4) 0.1118(4)
H43_3 H 0.264646 0.867358 0.081741
C61_4 C 0.6139(4) 0.7400(4) 0.3316(4)
H44_4 H 0.622031 0.738503 0.361392
C62_4 C 0.9518(5) 0.8206(4) 0.4494(4)
H45_4 H 0.979206 0.799191 0.463261
C64_3 C 0.1386(4) 0.9046(4) 0.0874(3)
C65_4 C 0.6831(4) 0.8121(3) 0.3254(3)
C66_3 C 0.4584(4) 0.6123(4) 0.2897(3)
C67_4 C 0.9127(4) 0.9507(4) 0.3369(3)
H47_4 H 0.935219 0.932424 0.357190
C69_4 C 0.9102(4) 0.9034(4) 0.4384(4)
H48_4 H 0.910118 0.938300 0.444771
C73_3 C 0.2390(4) 0.8962(3) 0.1385(3)
C75_4 C 0.7201(4) 0.8603(4) 0.3862(3)
H52_4 H 0.717315 0.869163 0.415645
C76_3 C 0.3055(4) 0.8264(4) 0.1268(4)
H53_3 H 0.324317 0.804615 0.107024
C80_4 C 0.6037(4) 0.5184(4) 0.0922(3)
C82_4 C 0.5363(4) 0.6096(4) 0.1941(3)
C83_4 C 0.8690(4) 0.8846(4) 0.4098(3)
C87_4 C 0.5842(4) 0.6251(4) 0.1706(3)
H59_4 H 0.601167 0.657048 0.176029
C94_4 C 0.8192(5) 0.9768(4) 0.3086(3)
H66_4 H 0.777502 0.976772 0.309325
C95_4 C 0.9113(5) 0.8013(4) 0.4207(4)
H67_4 H 0.911746 0.766488 0.414059
C96_3 C 0.5833(4) 0.4730(4) 0.0266(3)
H68_3 H 0.555710 0.459708 0.006802
C99_4 C 0.9414(5) 0.9760(4) 0.3036(4)
H71_4 H 0.983038 0.975458 0.302117
C101_2 C 0.3610(4) 0.4560(3) 0.4363(4)
H73_2 H 0.356895 0.420478 0.437315
C103_3 C 0.4189(4) 0.9837(4) 0.0485(3)
C105_3 C 0.6438(4) 0.4663(3) 0.0191(3)
C106_4 C 0.8710(4) 0.8319(4) 0.4018(4)
H75_4 H 0.843199 0.817623 0.382694
C107_4 C 0.6623(4) 0.5114(4) 0.0853(3)
H76_4 H 0.689789 0.523398 0.105757
H78_3 H 0.193735 0.919745 0.003388
C112_3 C 0.7602(5) 0.2883(4) 0.0047(4)
H80_3 H 0.779696 0.257580 0.010932
C114_4 C 0.8517(4) 0.9518(4) 0.3409(3)
C119_3 C 0.3549(4) 0.7816(4) 0.1876(4)
C126_3 C 0.5634(4) 0.4987(3) 0.0627(3)
H90_4 H 0.522451 0.502968 0.067212
C128_3 C 0.7629(4) 0.3281(4) 0.0338(4)
H92_3 H 0.783272 0.324557 0.060226
C131_3 C 0.3653(5) 0.7376(4) 0.1661(4)
H95_3 H 0.344265 0.731085 0.140406
C134_4 C 0.6290(5) 0.7767(4) 0.2633(4)
H98_4 H 0.647843 0.800548 0.245325
C135_4 C 0.5739(4) 0.7055(4) 0.3140(3)
H99_4 H 0.554502 0.682023 0.332018
C136_3 C 0.4106(4) 0.6306(4) 0.3134(3)
H100_3 H 0.395172 0.662697 0.306272
C138_3 C 0.3866(4) 0.8983(4) 0.0592(4)
H102_3 H 0.358558 0.872323 0.055089
C141_3 C 0.4814(4) 0.9262(4) 0.0866(4)
H104_4 H 0.516994 0.919712 0.101383
C143_3 C 0.6826(4) 0.4867(4) 0.0485(3)
H106_3 H 0.723614 0.484001 0.043568
C145_3 C 0.7350(4) 0.3729(4) 0.0234(3)
H107_3 H 0.737038 0.400064 0.043064
C146_3 C 0.3757(4) 0.9461(4) 0.0430(3)
C147_3 C 0.4708(4) 0.9733(4) 0.0697(3)
H108_3 H 0.499608 0.998907 0.072753
C162_2 C 0.3513(4) 0.4842(3) 0.4737(3)
C164_3 C 0.4396(5) 0.8880(5) 0.0819(4)
H120_3 H 0.446409 0.855656 0.093760
C165_3 C 0.4055(4) 0.7024(4) 0.1806(4)
H121_3 H 0.411664 0.672725 0.164259
C167_3 C 0.4363(4) 0.7091(4) 0.2175(3)
C168_3 C 0.3849(5) 0.7893(5) 0.2268(4)
H123_3 H 0.377338 0.818433 0.243513
C174_3 C 0.4059(6) 0.4508(7) 0.5477(6)
C177_4 C 0.5884(5) 0.7423(4) 0.2447(4)
H131_4 H 0.578987 0.744312 0.215119
C178_4 C 0.5627(4) 0.7056(4) 0.2706(3)
C180_3 C 0.4254(5) 0.7538(4) 0.2406(4)
H133_3 H 0.446514 0.759806 0.266305
C182_3 C 0.3117(5) 0.3965(2) 0.5157(3)
C183_2 C 0.2649(5) 0.3874(3) 0.4882(3)
H135_2 H 0.245734 0.414669 0.474430
C184_2 C 0.2461(4) 0.3385(3) 0.4809(3)
H136_2 H 0.214104 0.332320 0.462115
C185_3 C 0.2741(5) 0.2986(2) 0.5011(3)
H137_2 H 0.261244 0.265188 0.496111
C186_3 C 0.3209(4) 0.3077(3) 0.5286(3)
H138_3 H 0.340014 0.280404 0.542424
C187_3 C 0.3397(4) 0.3566(4) 0.5359(3)
H139_3 H 0.371644 0.362752 0.554740
C188_3 C 0.4178(6) 0.4571(7) 0.5896(6)
H140_3 H 0.387157 0.468531 0.607855
C189_3 C 0.4744(6) 0.4473(7) 0.6083(6)
H141_3 H 0.480081 0.449858 0.638333
C190_3 C 0.4526(6) 0.4394(7) 0.5236(6)
H142_2 H 0.448483 0.438201 0.493308
C191_2 C 0.5078(6) 0.4289(7) 0.5420(6)
H143_2 H 0.538690 0.417332 0.524116
C192_2 C 0.5180(6) 0.4347(7) 0.5831(6)
H144_2 H 0.556357 0.429951 0.594349
C33_4 C 0.7298(5) 0.2933(4) 0.9673(4)
H22_4 H 0.727730 0.265755 0.947989
C63_4 C 0.7852(4) 0.8613(3) 0.5048(3)
H46_4 H 0.798102 0.868149 0.476501
C89_4 C 0.8111(4) 0.8219(4) 0.5284(4)
H61_4 H 0.841317 0.802157 0.515884
C104_4 C 0.6033(4) 0.4175(3) 0.9452(3)
C108_4 C 0.5721(4) 0.3766(4) 0.9612(4)
H77_4 H 0.588057 0.357931 0.984422
C110_2 C 0.2195(4) 0.8962(4) 0.9904(3)
C118_4 C 0.6035(4) 0.9290(4) 0.4414(3)
H85_4 H 0.611129 0.962651 0.432817
C123_4 C 0.6111(4) 0.9851(4) 0.5354(3)
H88_4 H 0.585812 0.969660 0.515113
C127_4 C 0.6300(4) 0.8557(4) 0.4818(3)
H91_4 H 0.655124 0.838980 0.501483
C129_4 C 0.5432(4) 0.8558(4) 0.4380(4)
H93_4 H 0.509059 0.839442 0.427462
C130_2 C 0.1963(5) 0.8561(4) 0.9686(4)
H94_2 H 0.154944 0.852238 0.966285
C132_4 C 0.7238(4) 0.8790(4) 0.5650(3)
H96_4 H 0.694007 0.898587 0.578168
C133_4 C 0.5239(4) 0.4314(4) 0.8945(4)
H97_4 H 0.507879 0.450616 0.871656
C137_4 C 0.5781(4) 0.4436(4) 0.9123(3)
H101_4 H 0.598787 0.471570 0.900891
C139_2 C 0.2327(5) 0.8220(4) 0.9502(4)
H103_2 H 0.217155 0.794533 0.934364
C140_4 C 0.6719(4) 0.9772(4) 0.5324(3)
C142_4 C 0.5810(4) 0.8302(4) 0.4654(4)
H105_4 H 0.573793 0.796181 0.472784
C144_4 C 0.7408(4) 0.8901(3) 0.5232(3)
H113_2 H 0.347943 0.986592 0.867249
C153_4 C 0.7036(4) 0.3799(4) 0.9844(3)
C154_4 C 0.6426(4) 0.9049(4) 0.4698(3)
C155_2 C 0.2799(4) 0.9033(4) 0.9942(3)
C156_4 C 0.7018(4) 0.3382(4) 0.9568(4)
H114_4 H 0.681081 0.340642 0.930484
C157_2 C 0.3297(4) 0.9959(4) 0.9708(3)
C158_2 C 0.3300(4) 0.9753(4) 0.9297(3)
H115_2 H 0.316511 0.941882 0.925765
C159_2 C 0.4942(4) 0.3910(4) 0.9109(3)
H116_2 H 0.456878 0.382209 0.899641
C160_4 C 0.5550(4) 0.9049(4) 0.4260(4)
H117_4 H 0.529166 0.921806 0.406936
C161_4 C 0.5189(4) 0.3624(4) 0.9443(4)
H118_2 H 0.498931 0.333747 0.955101
C163_4 C 0.7925(4) 0.8119(4) 0.5695(4)
H119_4 H 0.809591 0.785239 0.585379
C170_2 C 0.2929(5) 0.8277(5) 0.9549(4)
H125_2 H 0.318177 0.803693 0.941882
C173_2 C 0.3175(5) 0.8667(4) 0.9776(4)
H128_2 H 0.358751 0.868715 0.981919
C179_4 C 0.7490(4) 0.8407(4) 0.5873(4)
H132_4 H 0.736319 0.833928 0.615705
H134_4 H 0.748623 0.995903 0.562450
C96_4 C 0.0833(4) 0.0270(4) 0.9734(3)
H68_4 H 0.055710 0.040292 0.993198
C105_4 C 0.1438(4) 0.0337(3) 0.9809(3)
C112_4 C 0.2602(5) 0.2117(4) 0.9953(4)
H80_4 H 0.279696 0.242420 0.989068
C126_4 C 0.0634(4) 0.0013(3) 0.9373(3)
C128_4 C 0.2629(4) 0.1719(4) 0.9662(4)
H92_4 H 0.283272 0.175443 0.939774
C143_4 C 0.1826(4) 0.0133(4) 0.9515(3)
H106_4 H 0.223614 0.015999 0.956432
C145_4 C 0.2350(4) 0.1271(4) 0.9766(3)
H107_4 H 0.237038 0.099936 0.956936
C191_3 C 0.0078(6) 0.0711(7) 0.4580(6)
H143_3 H 0.038690 0.082668 0.475884
C192_3 C 0.0180(6) 0.0653(7) 0.4169(6)
H144_3 H 0.056357 0.070049 0.405651
C17_4 C 0.3551(4) 0.9818(4) 0.1573(4)
H11_4 H 0.352153 0.964603 0.130740
C46_4 C 0.3817(4) 0.9578(4) 0.1922(4)
H33_4 H 0.397383 0.924914 0.189218
C92_4 C 0.3847(4) 0.9825(5) 0.2309(4)
H64_4 H 0.402877 0.966486 0.254698
C159_3 C 0.9942(4) 0.1090(4) 0.0891(3)
H116_3 H 0.956878 0.117791 0.100359
H118_3 H 0.998931 0.166253 0.044899
P8_2 P 0.83178(11) 0.03837(10) 0.47296(9)
C36_3 C 0.8766(4) 0.0210(4) 0.6021(3)
H25_3 H 0.881768 0.040579 0.627211
C101_3 C 0.8610(4) 0.0440(3) 0.5637(4)
H73_3 H 0.856895 0.079522 0.562685
C162_3 C 0.8513(4) 0.0158(3) 0.5263(3)
C174_4 C 0.9059(6) 0.0492(7) 0.4523(6)
C182_4 C 0.8117(5) 0.1035(2) 0.4843(3)
C183_3 C 0.7649(5) 0.1126(3) 0.5118(3)
H135_3 H 0.745734 0.085331 0.525570
C184_3 C 0.7461(4) 0.1615(3) 0.5191(3)
H136_3 H 0.714104 0.167680 0.537885
C185_4 C 0.7741(5) 0.2014(2) 0.4989(3)
H137_3 H 0.761244 0.234812 0.503889
C186_4 C 0.8209(4) 0.1923(3) 0.4714(3)
H138_4 H 0.840014 0.219596 0.457576
C187_4 C 0.8397(4) 0.1434(4) 0.4641(3)
H139_4 H 0.871644 0.137248 0.445260
C188_4 C 0.9178(6) 0.0429(7) 0.4104(6)
H140_4 H 0.887157 0.031469 0.392145
C189_4 C 0.9744(6) 0.0527(7) 0.3917(6)
H141_4 H 0.980081 0.050142 0.361667
C190_4 C 0.9526(6) 0.0606(7) 0.4764(6)
H142_3 H 0.948483 0.061799 0.506692
Sn1_4 Sn 0.99239(2) 0.33136(2) 0.25729(2)
P5_4 P 0.70532(10) 0.03955(9) 0.39515(8)
C13_4 C 0.8194(4) 0.1735(4) 0.3487(3)
C24_4 C 0.7321(4) 0.1446(4) 0.3857(4)
H17_4 H 0.696926 0.152498 0.400657
C29_4 C 0.8704(4) 0.4494(3) 0.1009(3)
C30_4 C 0.7684(4) 0.1836(4) 0.3716(4)
H20_4 H 0.757979 0.217389 0.377661
C41_4 C 0.7461(4) 0.0955(3) 0.3786(3)
C42_4 C 0.5478(4) 0.1139(4) 0.4114(4)
H29_4 H 0.516237 0.125249 0.393952
C47_4 C 0.8586(4) 0.2141(3) 0.3322(3)
C48_4 C 0.6397(4) 0.0695(4) 0.4172(3)
C50_4 C 0.5932(4) 0.0878(4) 0.3924(4)
H35_4 H 0.592845 0.082149 0.362374
C53_4 C 0.5466(4) 0.1238(4) 0.4539(4)
H38_4 H 0.516067 0.143755 0.465840
C54_4 C 0.8735(4) 0.4273(4) 0.1786(3)
H39_4 H 0.839711 0.447333 0.183626
C55_4 C 0.6762(4) 0.0180(4) 0.3436(3)
H49_4 H 0.988841 0.350945 0.353887
C74_4 C 0.6736(4) 0.0485(4) 0.3065(3)
H51_4 H 0.687912 0.081976 0.307456
C84_4 C 0.8359(4) 0.2576(4) 0.3133(4)
H57_4 H 0.794839 0.263895 0.314437
C88_4 C 0.8682(4) 0.4280(4) 0.0600(4)
H60_4 H 0.881718 0.394591 0.056089
C93_4 C 0.6505(5) 0.0301(5) 0.2691(4)
H65_4 H 0.649504 0.050823 0.244355
C97_4 C 0.9696(4) 0.3657(4) 0.1657(3)
C98_4 C 0.9441(4) 0.3900(4) 0.1315(3)
H70_4 H 0.959097 0.384854 0.103505
C100_4 C 0.6369(5) 0.0777(4) 0.4613(4)
H72_4 H 0.667148 0.064859 0.479227
C102_4 C 0.8957(4) 0.4226(4) 0.1377(3)
C109_4 C 0.9500(4) 0.3725(3) 0.2070(3)
C110_3 C 0.7195(4) 0.6038(4) 0.0096(3)
C117_4 C 0.8470(4) 0.4543(4) 0.0254(4)
C120_4 C 0.5904(5) 0.1045(4) 0.4798(4)
H86_3 H 0.589013 0.109465 0.509894
C122_4 C 0.9322(4) 0.2839(3) 0.2912(3)
C130_3 C 0.6963(5) 0.6439(4) 0.0314(4)
H94_3 H 0.654944 0.647762 0.033715
C139_3 C 0.7327(5) 0.6780(4) 0.0498(4)
H103_3 H 0.717155 0.705467 0.065636
C148_4 C 0.8723(4) 0.2915(4) 0.2928(4)
H109_4 H 0.855918 0.320492 0.279772
C150_4 C 0.8331(5) 0.1249(4) 0.3428(5)
H111_4 H 0.868599 0.117051 0.328332
C152_4 C 0.8492(4) 0.4983(4) 0.1052(3)
H113_3 H 0.847943 0.513408 0.132751
C155_3 C 0.7799(4) 0.5967(4) 0.0058(3)
C157_3 C 0.8297(4) 0.5041(4) 0.0292(3)
C158_3 C 0.8300(4) 0.5247(4) 0.0703(3)
H115_3 H 0.816511 0.558118 0.074235
C166_4 C 0.9186(4) 0.2085(4) 0.3308(4)
H122_4 H 0.935714 0.180088 0.344364
H124_4 H 0.996159 0.248349 0.186805
C170_3 C 0.7929(5) 0.6723(5) 0.0451(4)
H125_3 H 0.818177 0.696307 0.058118
C171_4 C 0.9012(4) 0.4021(4) 0.2133(3)
H126_4 H 0.885754 0.405714 0.241359
C173_3 C 0.8175(5) 0.6333(4) 0.0224(4)
H128_3 H 0.858751 0.631285 0.018081
C175_4 C 0.7978(6) 0.0857(4) 0.3567(5)
H129_4 H 0.809073 0.052015 0.351150
C176_4 C 0.9539(4) 0.2414(4) 0.3110(4)
H130_4 H 0.994949 0.235394 0.310554
H1_4 H 0.003423 0.386130 0.895680
Sn2_4 Sn 0.00107(3) 0.34307(2) 0.74241(2)
P2_4 P 0.30668(10) 0.05508(9) 0.61394(8)
P7_4 P 0.19550(10) 0.03751(9) 0.51967(8)
C2_4 C 0.0482(4) 0.4639(4) 0.8333(3)
H2_4 H 0.034547 0.496846 0.839316
C3_4 C 0.4119(4) 0.1748(4) 0.5762(3)
H3_4 H 0.417187 0.209175 0.583383
C4_4 C 0.1417(4) 0.4637(3) 0.9707(3)
H4_4 H 0.149107 0.443687 0.995284
C7_4 C 0.4444(4) 0.1540(4) 0.5439(3)
H6_4 H 0.473193 0.173563 0.529588
C8_4 C 0.2537(4) 0.1116(4) 0.6835(3)
H7_4 H 0.275212 0.091638 0.703183
C9_4 C 0.1849(4) 0.1799(4) 0.6715(3)
C11_4 C 0.0940(4) 0.4437(4) 0.8570(3)
C15_4 C 0.0221(4) 0.4362(3) 0.8008(3)
C19_4 C 0.3482(4) 0.0326(4) 0.6610(3)
C21_4 C 0.1242(4) 0.4405(3) 0.9331(3)
H14_4 H 0.118116 0.405185 0.932452
C22_4 C 0.4097(4) 0.0386(4) 0.6646(4)
H15_4 H 0.430022 0.057929 0.643836
C23_4 C 0.2158(4) 0.1479(4) 0.6986(4)
H16_4 H 0.210600 0.151178 0.728676
C25_4 C 0.1155(4) 0.4692(4) 0.8963(3)
C26_4 C 0.3708(4) 0.1460(4) 0.5988(3)
H18_4 H 0.349337 0.160509 0.621729
C34_4 C 0.1147(4) 0.3954(4) 0.8460(3)
H23_4 H 0.146429 0.381016 0.861449
C36_4 C 0.1234(4) 0.5210(4) 0.8979(3)
H25_4 H 0.118232 0.540579 0.872789
C37_4 C 0.4355(4) 0.1039(4) 0.5319(3)
H26_4 H 0.457465 0.089688 0.509038
C39_4 C 0.3200(4) 0.0056(4) 0.6928(3)
H28_4 H 0.278668 0.001214 0.690843
C51_4 C 0.3948(4) 0.0755(4) 0.5534(3)
H36_4 H 0.388936 0.041505 0.545190
C56_4 C 0.4409(4) 0.0168(4) 0.6978(4)
H40_4 H 0.482358 0.020423 0.699056
H42_4 H 0.020701 0.448042 0.701910
C60_4 C 0.2308(4) 0.1363(4) 0.6118(4)
H43_4 H 0.235354 0.132642 0.581741
C64_4 C 0.3614(4) 0.0954(4) 0.5874(3)
C66_4 C 0.0416(4) 0.3877(4) 0.7897(3)
C73_4 C 0.2610(4) 0.1038(3) 0.6385(3)
C76_4 C 0.1945(4) 0.1736(4) 0.6268(4)
H53_4 H 0.175683 0.195385 0.607024
C101_4 C 0.1390(4) 0.5440(3) 0.9363(4)
H73_4 H 0.143105 0.579522 0.937315
C103_4 C 0.0811(4) 0.0163(4) 0.5485(3)
C110_4 C 0.2805(4) 0.1038(4) 0.4904(3)
H78_4 H 0.306265 0.080255 0.503388
C119_4 C 0.1451(4) 0.2184(4) 0.6876(4)
C130_4 C 0.3037(5) 0.1439(4) 0.4686(4)
H94_4 H 0.345056 0.147762 0.466285
C131_4 C 0.1347(5) 0.2624(4) 0.6661(4)
H95_4 H 0.155735 0.268915 0.640406
C136_4 C 0.0894(4) 0.3694(4) 0.8134(3)
H100_4 H 0.104828 0.337303 0.806272
C138_4 C 0.1134(4) 0.1017(4) 0.5592(4)
H102_4 H 0.141442 0.127677 0.555089
C139_4 C 0.2673(5) 0.1780(4) 0.4502(4)
H103_4 H 0.282845 0.205467 0.434364
C141_4 C 0.0186(4) 0.0738(4) 0.5866(4)
C146_4 C 0.1243(4) 0.0539(4) 0.5430(3)
C147_4 C 0.0292(4) 0.0267(4) 0.5697(3)
H108_4 H 0.000392 0.001093 0.572753
H113_4 H 0.152057 0.013408 0.367249
C155_4 C 0.2201(4) 0.0967(4) 0.4942(3)
C157_4 C 0.1703(4) 0.0041(4) 0.4708(3)
C158_4 C 0.1700(4) 0.0247(4) 0.4297(3)
H115_4 H 0.183489 0.058118 0.425765
C159_4 C 0.0058(4) 0.6090(4) 0.4109(3)
H116_4 H 0.043122 0.617791 0.399641
H118_4 H 0.001069 0.666253 0.455101
C162_4 C 0.1487(4) 0.5158(3) 0.9737(3)
C164_4 C 0.0604(5) 0.1120(5) 0.5819(4)
H120_4 H 0.053591 0.144344 0.593760
C165_4 C 0.0945(4) 0.2976(4) 0.6806(4)
H121_4 H 0.088336 0.327275 0.664259
C167_4 C 0.0637(4) 0.2909(4) 0.7175(3)
C168_4 C 0.1151(5) 0.2107(5) 0.7268(4)
H123_4 H 0.122662 0.181567 0.743513
C170_4 C 0.2071(5) 0.1723(5) 0.4549(4)
H125_4 H 0.181823 0.196307 0.441882
C173_4 C 0.1825(5) 0.1333(4) 0.4776(4)
H128_4 H 0.141249 0.131285 0.481919
C180_4 C 0.0746(5) 0.2462(4) 0.7406(4)
H133_4 H 0.053486 0.240194 0.766305
C183_4 C 0.2351(5) 0.6126(3) 0.9882(3)
H135_4 H 0.254266 0.585331 0.974430
C184_4 C 0.2539(4) 0.6615(3) 0.9809(3)
H136_4 H 0.285896 0.667680 0.962115
H137_4 H 0.238756 0.734812 0.996111
H142_4 H 0.051517 0.561799 0.993308
H86_4 H 0.410987 0.609465 0.990106
C191_4 C 0.9922(6) 0.5711(7) 0.0420(6)
H143_4 H 0.961310 0.582668 0.024116
C192_4 C 0.9820(6) 0.5653(7) 0.0831(6)
H144_4 H 0.943643 0.570049 0.094349
loop_
_geom_bond_atom_site_label_1
_geom_bond_atom_site_label_2
_geom_bond_site_symmetry_1
_geom_bond_site_symmetry_2
C6 H5 1_555 1_555
C17 H11 1_555 1_555
C46 C17 1_555 1_555
H33 C46 1_555 1_555
C81 H56 1_555 1_555
C92 C46 1_555 1_555
H64 C92 1_555 1_555
C113 C6 1_555 1_555
H81 C113 1_555 1_555
P11 Pd2 1_555 1_555
P12 Pd2 1_555 1_555
C81 C113 1_555 1_555
C118 H85 1_555 1_555
C129 H93 1_555 1_555
C142 C127 1_555 1_555
H105 C142 1_555 1_555
C154 P6 1_555 1_555
C160 C118 1_555 1_555
H117 C160 1_555 1_555
Pd7 P6 1_555 1_555
C118 C154 1_555 1_555
C127 C154 1_555 1_555
C129 C142 1_555 1_555
C129 C160 1_555 1_555
Sn1 C31 1_555 1_555
Sn2 C66 1_555 1_555
Pd1 P2 1_555 1_555
P1 C5 1_555 1_555
P2 C19 1_555 1_555
P4 C58 1_555 1_555
P5 C41 1_555 1_555
P7 Pd1 1_555 1_555
C2 H2 1_555 1_555
C3 H3 1_555 1_555
C4 H4 1_555 1_555
C5 C32 1_555 1_555
C7 C3 1_555 1_555
H6 C7 1_555 1_555
C8 H7 1_555 1_555
C9 C23 1_555 1_555
C10 H8 1_555 1_555
C11 C2 1_555 1_555
C12 C10 1_555 1_555
C13 C30 1_555 1_555
C14 P1 1_555 1_555
C15 C2 1_555 1_555
H9 C15 1_555 1_555
C16 C1 1_555 1_555
H10 C16 1_555 1_555
C18 H12 1_555 1_555
C19 C22 1_555 1_555
C20 H13 1_555 1_555
C21 C4 1_555 1_555
H14 C21 1_555 1_555
C22 H15 1_555 1_555
C23 C8 1_555 1_555
H16 C23 1_555 1_555
C24 H17 1_555 1_555
C25 C11 1_555 1_555
C26 C3 1_555 1_555
H18 C26 1_555 1_555
C27 C28 1_555 1_555
C28 H19 1_555 1_555
C29 C88 1_555 1_555
C30 C24 1_555 1_555
H20 C30 1_555 1_555
C31 C70 1_555 1_555
C32 H21 1_555 1_555
C34 C11 1_555 1_555
H23 C34 1_555 1_555
C35 C27 1_555 1_555
H24 C35 1_555 1_555
C37 C7 1_555 1_555
H26 C37 1_555 1_555
C38 H27 1_555 1_555
C39 C19 1_555 1_555
H28 C39 1_555 1_555
C40 C61 1_555 1_555
C41 C24 1_555 1_555
C42 H29 1_555 1_555
C43 H30 1_555 1_555
C44 H31 1_555 1_555
C45 C1 1_555 1_555
H32 C45 1_555 1_555
C47 C13 1_555 1_555
C48 P5 1_555 1_555
C49 C18 1_555 1_555
H34 C49 1_555 1_555
C50 C42 1_555 1_555
H35 C50 1_555 1_555
C51 C37 1_555 1_555
H36 C51 1_555 1_555
C52 C43 1_555 1_555
H37 C52 1_555 1_555
C53 C42 1_555 1_555
H38 C53 1_555 1_555
C54 H39 1_555 1_555
C55 P5 1_555 1_555
C56 C18 1_555 1_555
H40 C56 1_555 1_555
C57 C5 1_555 1_555
H41 C57 1_555 1_555
C58 C43 1_555 1_555
C59 C35 1_555 1_555
H42 C59 1_555 1_555
C60 H43 1_555 1_555
C61 H44 1_555 1_555
C62 C44 1_555 1_555
H45 C62 1_555 1_555
C64 P2 1_555 1_555
C65 C20 1_555 1_555
C66 C15 1_555 1_555
C67 H47 1_555 1_555
C68 P1 1_555 1_555
C69 C44 1_555 1_555
H48 C69 1_555 1_555
C70 H49 1_555 1_555
C71 C38 1_555 1_555
C72 C68 1_555 1_555
H50 C72 1_555 1_555
C73 P2 1_555 1_555
C74 C55 1_555 1_555
H51 C74 1_555 1_555
C75 C20 1_555 1_555
H52 C75 1_555 1_555
C76 C9 1_555 1_555
H53 C76 1_555 1_555
C77 C12 1_555 1_555
H54 C77 1_555 1_555
C78 C14 1_555 1_555
H55 C78 1_555 1_555
C79 C12 1_555 1_555
C80 C27 1_555 1_555
C82 Sn2 1_555 1_555
C83 P4 1_555 1_555
C84 C47 1_555 1_555
H57 C84 1_555 1_555
C85 C71 1_555 1_555
C86 C79 1_555 1_555
H58 C86 1_555 1_555
C87 C28 1_555 1_555
H59 C87 1_555 1_555
C88 H60 1_555 1_555
C89 C63 1_555 1_555
H61 C89 1_555 1_555
C90 C45 1_555 1_555
H62 C90 1_555 1_555
C91 C85 1_555 1_555
H63 C91 1_555 1_555
C93 C74 1_555 1_555
H65 C93 1_555 1_555
C94 H66 1_555 1_555
C95 C62 1_555 1_555
H67 C95 1_555 1_555
C97 H69 1_555 1_555
C98 C97 1_555 1_555
H70 C98 1_555 1_555
C99 C67 1_555 1_555
H71 C99 1_555 1_555
C100 C48 1_555 1_555
H72 C100 1_555 1_555
C102 C29 1_555 1_555
C103 H74 1_555 1_555
C106 C83 1_555 1_555
H75 C106 1_555 1_555
C107 C80 1_555 1_555
H76 C107 1_555 1_555
C109 Sn1 1_555 1_555
C110 H78 1_555 1_555
C111 C94 1_555 1_555
H79 C111 1_555 1_555
C114 P4 1_555 1_555
C115 C99 1_555 1_555
H82 C115 1_555 1_555
C116 C70 1_555 1_555
H83 C116 1_555 1_555
C117 C88 1_555 1_555
H84 C117 1_555 1_555
C119 C9 1_555 1_555
C120 C53 1_555 1_555
C121 C72 1_555 1_555
H87 C121 1_555 1_555
C122 Sn1 1_555 1_555
C123 C38 1_555 1_555
H88 C123 1_555 1_555
C124 Sn1 1_555 1_555
C125 C79 1_555 1_555
H89 C125 1_555 1_555
C130 C110 1_555 1_555
H94 C130 1_555 1_555
C131 C119 1_555 1_555
H95 C131 1_555 1_555
C132 H96 1_555 1_555
C134 C40 1_555 1_555
H98 C134 1_555 1_555
C135 C61 1_555 1_555
H99 C135 1_555 1_555
C136 C34 1_555 1_555
H100 C136 1_555 1_555
C138 H102 1_555 1_555
C139 C130 1_555 1_555
H103 C139 1_555 1_555
C140 C123 1_555 1_555
C141 H104 1_555 1_555
C146 P7 1_555 1_555
C147 C103 1_555 1_555
H108 C147 1_555 1_555
C148 C84 1_555 1_555
H109 C148 1_555 1_555
C149 C124 1_555 1_555
H110 C149 1_555 1_555
C150 C13 1_555 1_555
H111 C150 1_555 1_555
C151 C31 1_555 1_555
H112 C151 1_555 1_555
C152 C29 1_555 1_555
H113 C152 1_555 1_555
C155 P7 1_555 1_555
C157 P7 1_555 1_555
C158 C152 1_555 1_555
H115 C158 1_555 1_555
C163 C89 1_555 1_555
H119 C163 1_555 1_555
C164 C138 1_555 1_555
H120 C164 1_555 1_555
C165 C131 1_555 1_555
H121 C165 1_555 1_555
C166 C47 1_555 1_555
H122 C166 1_555 1_555
C167 Sn2 1_555 1_555
C168 C119 1_555 1_555
H123 C168 1_555 1_555
C169 C86 1_555 1_555
H124 C169 1_555 1_555
C170 C139 1_555 1_555
H125 C170 1_555 1_555
C171 C54 1_555 1_555
H126 C171 1_555 1_555
C172 C71 1_555 1_555
H127 C172 1_555 1_555
C173 C155 1_555 1_555
H128 C173 1_555 1_555
C175 C41 1_555 1_555
H129 C175 1_555 1_555
C176 C122 1_555 1_555
H130 C176 1_555 1_555
C177 C134 1_555 1_555
H131 C177 1_555 1_555
C178 Sn2 1_555 1_555
C179 C132 1_555 1_555
H132 C179 1_555 1_555
C180 C167 1_555 1_555
H133 C180 1_555 1_555
C181 C140 1_555 1_555
H134 C181 1_555 1_555
Pd4 P1 1_555 1_555
Pd7 P4 1_555 1_555
P9 Pd1 1_555 1_555
P10 Pd1 1_555 1_555
C8 C73 1_555 1_555
C10 C57 1_555 1_555
C14 C16 1_555 1_555
C21 C25 1_555 1_555
C22 C56 1_555 1_555
C26 C64 1_555 1_555
C32 C77 1_555 1_555
C39 C49 1_555 1_555
C40 C65 1_555 1_555
C48 C50 1_555 1_555
C51 C64 1_555 1_555
C52 C65 1_555 1_555
C54 C102 1_555 1_555
C58 C75 1_555 1_555
C59 C82 1_555 1_555
C60 C73 1_555 1_555
C60 C76 1_555 1_555
C63 C144 1_555 1_555
C66 C136 1_555 1_555
C67 C114 1_555 1_555
C69 C83 1_555 1_555
C78 C90 1_555 1_555
C82 C87 1_555 1_555
C85 C116 1_555 1_555
C91 C151 1_555 1_555
C94 C114 1_555 1_555
C95 C106 1_555 1_555
C97 C109 1_555 1_555
C98 C102 1_555 1_555
C100 C120 1_555 1_555
C103 C146 1_555 1_555
C109 C171 1_555 1_555
C110 C155 1_555 1_555
C111 C115 1_555 1_555
C117 C157 1_555 1_555
C122 C148 1_555 1_555
C124 C169 1_555 1_555
C125 C149 1_555 1_555
C132 C144 1_555 1_555
C135 C178 1_555 1_555
C138 C146 1_555 1_555
C141 C147 1_555 1_555
C141 C164 1_555 1_555
C150 C175 1_555 1_555
C157 C158 1_555 1_555
C163 C179 1_555 1_555
C165 C167 1_555 1_555
C166 C176 1_555 1_555
C168 C180 1_555 1_555
C170 C173 1_555 1_555
C172 C181 1_555 1_555
C177 C178 1_555 1_555
P3 C104 1_555 1_555
C33 H22 1_555 1_555
H25 C36 1_555 1_555
C96 H68 1_555 1_555
C101 C36 1_555 1_555
H73 C101 1_555 1_555
C104 C108 1_555 1_555
C105 P3 1_555 1_555
C108 H77 1_555 1_555
C112 C33 1_555 1_555
H80 C112 1_555 1_555
C128 C112 1_555 1_555
H92 C128 1_555 1_555
C133 H97 1_555 1_555
C137 C104 1_555 1_555
H101 C137 1_555 1_555
C143 C105 1_555 1_555
H106 C143 1_555 1_555
C145 C128 1_555 1_555
H107 C145 1_555 1_555
C153 P3 1_555 1_555
C156 C33 1_555 1_555
H114 C156 1_555 1_555
C159 C133 1_555 1_555
H116 C159 1_555 1_555
C161 C108 1_555 1_555
H118 C161 1_555 1_555
H135 C183 1_555 1_555
C184 C183 1_555 1_555
H136 C184 1_555 1_555
Pd4 P3 1_555 1_555
C96 C105 1_555 1_555
C96 C126 1_555 1_555
C101 C162 1_555 1_555
C133 C137 1_555 1_555
C145 C153 1_555 1_555
C153 C156 1_555 1_555
C159 C161 1_555 1_555
C174 P13 1_555 1_555
C182 P13 1_555 1_555
C186 C185 1_555 1_555
H138 C186 1_555 1_555
C187 C182 1_555 1_555
H139 C187 1_555 1_555
C188 C174 1_555 1_555
H140 C188 1_555 1_555
C189 C188 1_555 1_555
H141 C189 1_555 1_555
C190 C174 1_555 1_555
C191 C190 1_555 1_555
H143 C191 1_555 1_555
C192 C189 1_555 1_555
H144 C192 1_555 1_555
C186 C187 1_555 1_555
C191 C192 1_555 1_555
C174_2 P8 1_555 1_555
C182_2 P8 1_555 1_555
C186_2 C185_2 1_555 1_555
H138_2 C186_2 1_555 1_555
C187_2 C182_2 1_555 1_555
H139_2 C187_2 1_555 1_555
C188_2 C174_2 1_555 1_555
H140_2 C188_2 1_555 1_555
C189_2 C188_2 1_555 1_555
H141_2 C189_2 1_555 1_555
C190_2 C174_2 1_555 1_555
Pd7 P8 1_555 1_555
C186_2 C187_2 1_555 1_555
Pd7 P5_2 1_555 1_555
P5_2 C41_2 1_555 1_555
C6_2 H5_2 1_555 1_555
C13_2 C30_2 1_555 1_555
C18_2 H12_2 1_555 1_555
C24_2 H17_2 1_555 1_555
C29_2 C88_2 1_555 1_555
C30_2 C24_2 1_555 1_555
H20_2 C30_2 1_555 1_555
C41_2 C24_2 1_555 1_555
C42_2 H29_2 1_555 1_555
C47_2 C13_2 1_555 1_555
C48_2 P5_2 1_555 1_555
C49_2 C18_2 1_555 1_555
H34_2 C49_2 1_555 1_555
C50_2 C42_2 1_555 1_555
H35_2 C50_2 1_555 1_555
C53_2 C42_2 1_555 1_555
H38_2 C53_2 1_555 1_555
C54_2 H39_2 1_555 1_555
C55_2 P5_2 1_555 1_555
C74_2 C55_2 1_555 1_555
H51_2 C74_2 1_555 1_555
C81_2 H56_2 1_555 1_555
C84_2 C47_2 1_555 1_555
H57_2 C84_2 1_555 1_555
C88_2 H60_2 1_555 1_555
C93_2 C74_2 1_555 1_555
H65_2 C93_2 1_555 1_555
C98_2 C97_2 1_555 1_555
H70_2 C98_2 1_555 1_555
C100_2 C48_2 1_555 1_555
H72_2 C100_2 1_555 1_555
C102_2 C29_2 1_555 1_555
C109_2 Sn1_2 1_555 1_555
C113_2 C6_2 1_555 1_555
H81_2 C113_2 1_555 1_555
C117_2 C88_2 1_555 1_555
H84_2 C117_2 1_555 1_555
C120_2 C53_2 1_555 1_555
C122_2 Sn1_2 1_555 1_555
C148_2 C84_2 1_555 1_555
H109_2 C148_2 1_555 1_555
C150_2 C13_2 1_555 1_555
H111_2 C150_2 1_555 1_555
C152_2 C29_2 1_555 1_555
C166_2 C47_2 1_555 1_555
H122_2 C166_2 1_555 1_555
C171_2 C54_2 1_555 1_555
H126_2 C171_2 1_555 1_555
C175_2 C41_2 1_555 1_555
H129_2 C175_2 1_555 1_555
C176_2 C122_2 1_555 1_555
H130_2 C176_2 1_555 1_555
C6_2 C55_2 1_555 1_555
C48_2 C50_2 1_555 1_555
C54_2 C102_2 1_555 1_555
C81_2 C93_2 1_555 1_555
C81_2 C113_2 1_555 1_555
C97_2 C109_2 1_555 1_555
C98_2 C102_2 1_555 1_555
C100_2 C120_2 1_555 1_555
C109_2 C171_2 1_555 1_555
C122_2 C148_2 1_555 1_555
C150_2 C175_2 1_555 1_555
C166_2 C176_2 1_555 1_555
P10 C104_2 1_555 1_555
P11 C58_2 1_555 1_555
C20_2 H13_2 1_555 1_555
C27_2 C28_2 1_555 1_555
C28_2 H19_2 1_555 1_555
C33_2 H22_2 1_555 1_555
C35_2 C27_2 1_555 1_555
H24_2 C35_2 1_555 1_555
C40_2 C61_2 1_555 1_555
C43_2 H30_2 1_555 1_555
C44_2 H31_2 1_555 1_555
C52_2 C43_2 1_555 1_555
H37_2 C52_2 1_555 1_555
C58_2 C43_2 1_555 1_555
C59_2 C35_2 1_555 1_555
C61_2 H44_2 1_555 1_555
C62_2 C44_2 1_555 1_555
H45_2 C62_2 1_555 1_555
C65_2 C20_2 1_555 1_555
C67_2 H47_2 1_555 1_555
C69_2 C44_2 1_555 1_555
H48_2 C69_2 1_555 1_555
C75_2 C20_2 1_555 1_555
H52_2 C75_2 1_555 1_555
C80_2 C27_2 1_555 1_555
C83_2 P11 1_555 1_555
C87_2 C28_2 1_555 1_555
H59_2 C87_2 1_555 1_555
C89_2 C63_2 1_555 1_555
H61_2 C89_2 1_555 1_555
C94_2 H66_2 1_555 1_555
C95_2 C62_2 1_555 1_555
H67_2 C95_2 1_555 1_555
C96_2 H68_2 1_555 1_555
C99_2 C67_2 1_555 1_555
H71_2 C99_2 1_555 1_555
C104_2 C108_2 1_555 1_555
C105_2 P10 1_555 1_555
C106_2 C83_2 1_555 1_555
H75_2 C106_2 1_555 1_555
C107_2 C80_2 1_555 1_555
H76_2 C107_2 1_555 1_555
C108_2 H77_2 1_555 1_555
C112_2 C33_2 1_555 1_555
H80_2 C112_2 1_555 1_555
C114_2 P11 1_555 1_555
H88_2 C123_2 1_555 1_555
C126_2 C80_2 1_555 1_555
H90_2 C126_2 1_555 1_555
C128_2 C112_2 1_555 1_555
H92_2 C128_2 1_555 1_555
C132_2 H96_2 1_555 1_555
C133_2 H97_2 1_555 1_555
C134_2 C40_2 1_555 1_555
H98_2 C134_2 1_555 1_555
C135_2 C61_2 1_555 1_555
H99_2 C135_2 1_555 1_555
C137_2 C104_2 1_555 1_555
H101_2 C137_2 1_555 1_555
C140_2 C123_2 1_555 1_555
C143_2 C105_2 1_555 1_555
H106_2 C143_2 1_555 1_555
C145_2 C128_2 1_555 1_555
H107_2 C145_2 1_555 1_555
C153_2 P10 1_555 1_555
C156_2 C33_2 1_555 1_555
H114_2 C156_2 1_555 1_555
C161_2 C108_2 1_555 1_555
C163_2 C89_2 1_555 1_555
H119_2 C163_2 1_555 1_555
C177_2 C134_2 1_555 1_555
H131_2 C177_2 1_555 1_555
C179_2 C132_2 1_555 1_555
H132_2 C179_2 1_555 1_555
C40_2 C65_2 1_555 1_555
C52_2 C65_2 1_555 1_555
C58_2 C75_2 1_555 1_555
C59_2 C82_2 1_555 1_555
C63_2 C144_2 1_555 1_555
C67_2 C114_2 1_555 1_555
C69_2 C83_2 1_555 1_555
C82_2 C87_2 1_555 1_555
C94_2 C114_2 1_555 1_555
C95_2 C106_2 1_555 1_555
C96_2 C105_2 1_555 1_555
C96_2 C126_2 1_555 1_555
C107_2 C143_2 1_555 1_555
C132_2 C144_2 1_555 1_555
C133_2 C137_2 1_555 1_555
C135_2 C178_2 1_555 1_555
C145_2 C153_2 1_555 1_555
C153_2 C156_2 1_555 1_555
C163_2 C179_2 1_555 1_555
C177_2 C178_2 1_555 1_555
C118_2 H85_2 1_555 1_555
C129_2 H93_2 1_555 1_555
C142_2 C127_2 1_555 1_555
H105_2 C142_2 1_555 1_555
C154_2 P12 1_555 1_555
C160_2 C118_2 1_555 1_555
H117_2 C160_2 1_555 1_555
C118_2 C154_2 1_555 1_555
C127_2 C154_2 1_555 1_555
C129_2 C142_2 1_555 1_555
C129_2 C160_2 1_555 1_555
P9 C5_2 1_555 1_555
C1_2 H1 1_555 1_555
C5_2 C32_2 1_555 1_555
C10_2 H8_2 1_555 1_555
C12_2 C10_2 1_555 1_555
C14_2 P9 1_555 1_555
C16_2 C1_2 1_555 1_555
H10_2 C16_2 1_555 1_555
C17_2 H11_2 1_555 1_555
C31_2 C70_2 1_555 1_555
C32_2 H21_2 1_555 1_555
C38_2 H27_2 1_555 1_555
C45_2 C1_2 1_555 1_555
H32_2 C45_2 1_555 1_555
C46_2 C17_2 1_555 1_555
H33_2 C46_2 1_555 1_555
C57_2 C5_2 1_555 1_555
H41_2 C57_2 1_555 1_555
C68_2 P9 1_555 1_555
C71_2 C38_2 1_555 1_555
C72_2 C68_2 1_555 1_555
H50_2 C72_2 1_555 1_555
C77_2 C12_2 1_555 1_555
H54_2 C77_2 1_555 1_555
C78_2 C14_2 1_555 1_555
H55_2 C78_2 1_555 1_555
C79_2 C12_2 1_555 1_555
C85_2 C71_2 1_555 1_555
C86_2 C79_2 1_555 1_555
H58_2 C86_2 1_555 1_555
C90_2 C45_2 1_555 1_555
H62_2 C90_2 1_555 1_555
C91_2 C85_2 1_555 1_555
H63_2 C91_2 1_555 1_555
C92_2 C46_2 1_555 1_555
H64_2 C92_2 1_555 1_555
H79_2 C111_2 1_555 1_555
H82_2 C115_2 1_555 1_555
C116_2 C70_2 1_555 1_555
H83_2 C116_2 1_555 1_555
C121_2 C72_2 1_555 1_555
H87_2 C121_2 1_555 1_555
C125_2 C79_2 1_555 1_555
H89_2 C125_2 1_555 1_555
C149_2 C124_2 1_555 1_555
H110_2 C149_2 1_555 1_555
C151_2 C31_2 1_555 1_555
H112_2 C151_2 1_555 1_555
C169_2 C86_2 1_555 1_555
C172_2 C71_2 1_555 1_555
H127_2 C172_2 1_555 1_555
C10_2 C57_2 1_555 1_555
C14_2 C16_2 1_555 1_555
C17_2 C68_2 1_555 1_555
C32_2 C77_2 1_555 1_555
C78_2 C90_2 1_555 1_555
C85_2 C116_2 1_555 1_555
C91_2 C151_2 1_555 1_555
C92_2 C121_2 1_555 1_555
C111_2 C115_2 1_555 1_555
C124_2 C169_2 1_555 1_555
C125_2 C149_2 1_555 1_555
C172_2 C181_2 1_555 1_555
P3_2 C104_3 1_555 1_555
C33_3 H22_3 1_555 1_555
C104_3 C108_3 1_555 1_555
C108_3 H77_3 1_555 1_555
C133_3 H97_3 1_555 1_555
C137_3 C104_3 1_555 1_555
H101_3 C137_3 1_555 1_555
C153_3 P3_2 1_555 1_555
C156_3 C33_3 1_555 1_555
H114_3 C156_3 1_555 1_555
C161_3 C108_3 1_555 1_555
Pd3 P3_2 1_555 1_555
C133_3 C137_3 1_555 1_555
C153_3 C156_3 1_555 1_555
P1_2 C5_3 1_555 1_555
P6_2 C140_3 1_555 1_555
C1_3 H1_3 1_555 1_555
C5_3 C32_3 1_555 1_555
C10_3 H8_3 1_555 1_555
C12_3 C10_3 1_555 1_555
C14_3 P1_2 1_555 1_555
C16_3 C1_3 1_555 1_555
H10_3 C16_3 1_555 1_555
C31_3 C70_3 1_555 1_555
C32_3 H21_3 1_555 1_555
C38_3 H27_3 1_555 1_555
C45_3 C1_3 1_555 1_555
H32_3 C45_3 1_555 1_555
C57_3 C5_3 1_555 1_555
H41_3 C57_3 1_555 1_555
C63_3 H46_3 1_555 1_555
C68_3 P1_2 1_555 1_555
C71_3 C38_3 1_555 1_555
C72_3 C68_3 1_555 1_555
H50_3 C72_3 1_555 1_555
C77_3 C12_3 1_555 1_555
H54_3 C77_3 1_555 1_555
C78_3 C14_3 1_555 1_555
H55_3 C78_3 1_555 1_555
C79_3 C12_3 1_555 1_555
C85_3 C71_3 1_555 1_555
C86_3 C79_3 1_555 1_555
H58_3 C86_3 1_555 1_555
C89_3 C63_3 1_555 1_555
H61_3 C89_3 1_555 1_555
C90_3 C45_3 1_555 1_555
H62_3 C90_3 1_555 1_555
C91_3 C85_3 1_555 1_555
H63_3 C91_3 1_555 1_555
C116_3 C70_3 1_555 1_555
H83_3 C116_3 1_555 1_555
C118_3 H85_3 1_555 1_555
C121_3 C72_3 1_555 1_555
H87_3 C121_3 1_555 1_555
C123_3 C38_3 1_555 1_555
H88_3 C123_3 1_555 1_555
C125_3 C79_3 1_555 1_555
H89_3 C125_3 1_555 1_555
C127_3 H91_3 1_555 1_555
C129_3 H93_3 1_555 1_555
C132_3 H96_3 1_555 1_555
C140_3 C123_3 1_555 1_555
C142_3 C127_3 1_555 1_555
H105_3 C142_3 1_555 1_555
C144_3 P6_2 1_555 1_555
C149_3 C124_3 1_555 1_555
H110_3 C149_3 1_555 1_555
C151_3 C31_3 1_555 1_555
H112_3 C151_3 1_555 1_555
C154_3 P6_2 1_555 1_555
C160_3 C118_3 1_555 1_555
H117_3 C160_3 1_555 1_555
C163_3 C89_3 1_555 1_555
H119_3 C163_3 1_555 1_555
C169_3 C86_3 1_555 1_555
C172_3 C71_3 1_555 1_555
H127_3 C172_3 1_555 1_555
C179_3 C132_3 1_555 1_555
H132_3 C179_3 1_555 1_555
C181_3 C140_3 1_555 1_555
H134_3 C181_3 1_555 1_555
Pd3 P1_2 1_555 1_555
Pd7_2 P6_2 1_555 1_555
C10_3 C57_3 1_555 1_555
C14_3 C16_3 1_555 1_555
C32_3 C77_3 1_555 1_555
C63_3 C144_3 1_555 1_555
C78_3 C90_3 1_555 1_555
C85_3 C116_3 1_555 1_555
C91_3 C151_3 1_555 1_555
C118_3 C154_3 1_555 1_555
C124_3 C169_3 1_555 1_555
C125_3 C149_3 1_555 1_555
C127_3 C154_3 1_555 1_555
C129_3 C142_3 1_555 1_555
C129_3 C160_3 1_555 1_555
C132_3 C144_3 1_555 1_555
C163_3 C179_3 1_555 1_555
C172_3 C181_3 1_555 1_555
P4_2 C58_3 1_555 1_555
C20_3 H13_3 1_555 1_555
C27_3 C28_3 1_555 1_555
C28_3 H19_3 1_555 1_555
C35_3 C27_3 1_555 1_555
H24_3 C35_3 1_555 1_555
C40_3 C61_3 1_555 1_555
C43_3 H30_3 1_555 1_555
C44_3 H31_3 1_555 1_555
C52_3 C43_3 1_555 1_555
H37_3 C52_3 1_555 1_555
C58_3 C43_3 1_555 1_555
C59_3 C35_3 1_555 1_555
C61_3 H44_3 1_555 1_555
C62_3 C44_3 1_555 1_555
H45_3 C62_3 1_555 1_555
C65_3 C20_3 1_555 1_555
C67_3 H47_3 1_555 1_555
C69_3 C44_3 1_555 1_555
H48_3 C69_3 1_555 1_555
C75_3 C20_3 1_555 1_555
H52_3 C75_3 1_555 1_555
C80_3 C27_3 1_555 1_555
C83_3 P4_2 1_555 1_555
C87_3 C28_3 1_555 1_555
H59_3 C87_3 1_555 1_555
C94_3 H66_3 1_555 1_555
C95_3 C62_3 1_555 1_555
H67_3 C95_3 1_555 1_555
C99_3 C67_3 1_555 1_555
H71_3 C99_3 1_555 1_555
C106_3 C83_3 1_555 1_555
H75_3 C106_3 1_555 1_555
C107_3 C80_3 1_555 1_555
H76_3 C107_3 1_555 1_555
C111_3 C94_3 1_555 1_555
H79_3 C111_3 1_555 1_555
C114_3 P4_2 1_555 1_555
C115_3 C99_3 1_555 1_555
H82_3 C115_3 1_555 1_555
C134_3 C40_3 1_555 1_555
H98_3 C134_3 1_555 1_555
C135_3 C61_3 1_555 1_555
H99_3 C135_3 1_555 1_555
C177_3 C134_3 1_555 1_555
H131_3 C177_3 1_555 1_555
Pd7_2 P4_2 1_555 1_555
C40_3 C65_3 1_555 1_555
C52_3 C65_3 1_555 1_555
C58_3 C75_3 1_555 1_555
C59_3 C82_3 1_555 1_555
C67_3 C114_3 1_555 1_555
C69_3 C83_3 1_555 1_555
C82_3 C87_3 1_555 1_555
C94_3 C114_3 1_555 1_555
C95_3 C106_3 1_555 1_555
C111_3 C115_3 1_555 1_555
C135_3 C178_3 1_555 1_555
C177_3 C178_3 1_555 1_555
Sn2_2 C66_2 1_555 1_555
Pd1_2 P2_2 1_555 1_555
P2_2 C19_2 1_555 1_555
P7_2 Pd1_2 1_555 1_555
C2_2 H2_2 1_555 1_555
C3_2 H3_2 1_555 1_555
C4_2 H4_2 1_555 1_555
C7_2 C3_2 1_555 1_555
H6_2 C7_2 1_555 1_555
C8_2 H7_2 1_555 1_555
C9_2 C23_2 1_555 1_555
C11_2 C2_2 1_555 1_555
C15_2 C2_2 1_555 1_555
C18_3 H12_3 1_555 1_555
C19_2 C22_2 1_555 1_555
C21_2 C4_2 1_555 1_555
H14_2 C21_2 1_555 1_555
C22_2 H15_2 1_555 1_555
C23_2 C8_2 1_555 1_555
H16_2 C23_2 1_555 1_555
C25_2 C11_2 1_555 1_555
C26_2 C3_2 1_555 1_555
H18_2 C26_2 1_555 1_555
C34_2 C11_2 1_555 1_555
H23_2 C34_2 1_555 1_555
C37_2 C7_2 1_555 1_555
H26_2 C37_2 1_555 1_555
C39_2 C19_2 1_555 1_555
H28_2 C39_2 1_555 1_555
C49_3 C18_3 1_555 1_555
H34_3 C49_3 1_555 1_555
C51_2 C37_2 1_555 1_555
H36_2 C51_2 1_555 1_555
C56_2 C18_3 1_555 1_555
H40_2 C56_2 1_555 1_555
C60_2 H43_2 1_555 1_555
C64_2 P2_2 1_555 1_555
C66_2 C15_2 1_555 1_555
C73_2 P2_2 1_555 1_555
C76_2 C9_2 1_555 1_555
H53_2 C76_2 1_555 1_555
C103_2 H74_3 1_555 1_555
C119_2 C9_2 1_555 1_555
C131_2 C119_2 1_555 1_555
H95_2 C131_2 1_555 1_555
C136_2 C34_2 1_555 1_555
H100_2 C136_2 1_555 1_555
C138_2 H102_2 1_555 1_555
C146_2 P7_2 1_555 1_555
C147_2 C103_2 1_555 1_555
H108_2 C147_2 1_555 1_555
C164_2 C138_2 1_555 1_555
H120_2 C164_2 1_555 1_555
C165_2 C131_2 1_555 1_555
H121_2 C165_2 1_555 1_555
C167_2 Sn2_2 1_555 1_555
C168_2 C119_2 1_555 1_555
H123_2 C168_2 1_555 1_555
C180_2 C167_2 1_555 1_555
H133_2 C180_2 1_555 1_555
P9_2 Pd1_2 1_555 1_555
P10_2 Pd1_2 1_555 1_555
C8_2 C73_2 1_555 1_555
C21_2 C25_2 1_555 1_555
C22_2 C56_2 1_555 1_555
C26_2 C64_2 1_555 1_555
C39_2 C49_3 1_555 1_555
C51_2 C64_2 1_555 1_555
C60_2 C73_2 1_555 1_555
C60_2 C76_2 1_555 1_555
C66_2 C136_2 1_555 1_555
C103_2 C146_2 1_555 1_555
C138_2 C146_2 1_555 1_555
C141_2 C147_2 1_555 1_555
C141_2 C164_2 1_555 1_555
C165_2 C167_2 1_555 1_555
C168_2 C180_2 1_555 1_555
C6_3 H5_3 1_555 1_555
C81_3 H56_3 1_555 1_555
C113_3 C6_3 1_555 1_555
H81_3 C113_3 1_555 1_555
P11_2 Pd5 1_555 1_555
P12_2 Pd5 1_555 1_555
C81_3 C113_3 1_555 1_555
C18_4 H12_4 1_555 1_555
C49_4 C18_4 1_555 1_555
H34_4 C49_4 1_555 1_555
H79_4 C111_4 1_555 1_555
H82_4 C115_4 1_555 1_555
C111_4 C115_4 1_555 1_555
Sn1_3 C31_4 1_555 1_555
Pd7_2 P5_3 1_555 1_555
P9_2 C5_4 1_555 1_555
P5_3 C41_3 1_555 1_555
C5_4 C32_4 1_555 1_555
C6_4 H5_4 1_555 1_555
C10_4 H8_4 1_555 1_555
C12_4 C10_4 1_555 1_555
C13_3 C30_3 1_555 1_555
C14_4 P9_2 1_555 1_555
C16_4 C1_4 1_555 1_555
H10_4 C16_4 1_555 1_555
C17_3 H11_3 1_555 1_555
C24_3 H17_3 1_555 1_555
C29_3 C88_3 1_555 1_555
C30_3 C24_3 1_555 1_555
H20_3 C30_3 1_555 1_555
C31_4 C70_4 1_555 1_555
C32_4 H21_4 1_555 1_555
C38_4 H27_4 1_555 1_555
C41_3 C24_3 1_555 1_555
C42_3 H29_3 1_555 1_555
C45_4 C1_4 1_555 1_555
H32_4 C45_4 1_555 1_555
C46_3 C17_3 1_555 1_555
H33_3 C46_3 1_555 1_555
C47_3 C13_3 1_555 1_555
C48_3 P5_3 1_555 1_555
C50_3 C42_3 1_555 1_555
H35_3 C50_3 1_555 1_555
C53_3 C42_3 1_555 1_555
H38_3 C53_3 1_555 1_555
C54_3 H39_3 1_555 1_555
C55_3 P5_3 1_555 1_555
C57_4 C5_4 1_555 1_555
H41_4 C57_4 1_555 1_555
C68_4 P9_2 1_555 1_555
C70_4 H49_3 1_555 1_555
C71_4 C38_4 1_555 1_555
C72_4 C68_4 1_555 1_555
H50_4 C72_4 1_555 1_555
C74_3 C55_3 1_555 1_555
H51_3 C74_3 1_555 1_555
C77_4 C12_4 1_555 1_555
H54_4 C77_4 1_555 1_555
C78_4 C14_4 1_555 1_555
H55_4 C78_4 1_555 1_555
C79_4 C12_4 1_555 1_555
C81_4 H56_4 1_555 1_555
C84_3 C47_3 1_555 1_555
H57_3 C84_3 1_555 1_555
C85_4 C71_4 1_555 1_555
C86_4 C79_4 1_555 1_555
H58_4 C86_4 1_555 1_555
C88_3 H60_3 1_555 1_555
C90_4 C45_4 1_555 1_555
H62_4 C90_4 1_555 1_555
C91_4 C85_4 1_555 1_555
H63_4 C91_4 1_555 1_555
C92_3 C46_3 1_555 1_555
H64_3 C92_3 1_555 1_555
C93_3 C74_3 1_555 1_555
H65_3 C93_3 1_555 1_555
C97_3 H69_4 1_555 1_555
C98_3 C97_3 1_555 1_555
H70_3 C98_3 1_555 1_555
C100_3 C48_3 1_555 1_555
H72_3 C100_3 1_555 1_555
C102_3 C29_3 1_555 1_555
C109_3 Sn1_3 1_555 1_555
C113_4 C6_4 1_555 1_555
H81_4 C113_4 1_555 1_555
C116_4 C70_4 1_555 1_555
H83_4 C116_4 1_555 1_555
C117_3 C88_3 1_555 1_555
C120_3 C53_3 1_555 1_555
H86_2 C120_3 1_555 1_555
C121_4 C72_4 1_555 1_555
H87_4 C121_4 1_555 1_555
C122_3 Sn1_3 1_555 1_555
C124_4 Sn1_3 1_555 1_555
C125_4 C79_4 1_555 1_555
H89_4 C125_4 1_555 1_555
C148_3 C84_3 1_555 1_555
H109_3 C148_3 1_555 1_555
C149_4 C124_4 1_555 1_555
H110_4 C149_4 1_555 1_555
C150_3 C13_3 1_555 1_555
H111_3 C150_3 1_555 1_555
C151_4 C31_4 1_555 1_555
H112_4 C151_4 1_555 1_555
C152_3 C29_3 1_555 1_555
C166_3 C47_3 1_555 1_555
H122_3 C166_3 1_555 1_555
C169_4 C86_4 1_555 1_555
H124_3 C169_4 1_555 1_555
C171_3 C54_3 1_555 1_555
H126_3 C171_3 1_555 1_555
C172_4 C71_4 1_555 1_555
H127_4 C172_4 1_555 1_555
C175_3 C41_3 1_555 1_555
H129_3 C175_3 1_555 1_555
C176_3 C122_3 1_555 1_555
H130_3 C176_3 1_555 1_555
P13_2 Pd7_2 1_555 1_555
C6_4 C55_3 1_555 1_555
C10_4 C57_4 1_555 1_555
C14_4 C16_4 1_555 1_555
C17_3 C68_4 1_555 1_555
C32_4 C77_4 1_555 1_555
C48_3 C50_3 1_555 1_555
C54_3 C102_3 1_555 1_555
C78_4 C90_4 1_555 1_555
C81_4 C93_3 1_555 1_555
C81_4 C113_4 1_555 1_555
C85_4 C116_4 1_555 1_555
C91_4 C151_4 1_555 1_555
C92_3 C121_4 1_555 1_555
C97_3 C109_3 1_555 1_555
C98_3 C102_3 1_555 1_555
C100_3 C120_3 1_555 1_555
C109_3 C171_3 1_555 1_555
C122_3 C148_3 1_555 1_555
C124_4 C169_4 1_555 1_555
C125_4 C149_4 1_555 1_555
C150_3 C175_3 1_555 1_555
C166_3 C176_3 1_555 1_555
C172_4 C181_4 1_555 1_555
Sn2_3 C66_3 1_555 1_555
P2_3 C19_3 1_555 1_555
P11_2 C58_4 1_555 1_555
P13_2 C162_2 1_555 1_555
C2_3 H2_3 1_555 1_555
C3_3 H3_3 1_555 1_555
C4_3 H4_3 1_555 1_555
C7_3 C3_3 1_555 1_555
H6_3 C7_3 1_555 1_555
C8_3 H7_3 1_555 1_555
C9_3 C23_3 1_555 1_555
C11_3 C2_3 1_555 1_555
C15_3 C2_3 1_555 1_555
H9_4 C15_3 1_555 1_555
C19_3 C22_3 1_555 1_555
C20_4 H13_4 1_555 1_555
C21_3 C4_3 1_555 1_555
H14_3 C21_3 1_555 1_555
C22_3 H15_3 1_555 1_555
C23_3 C8_3 1_555 1_555
H16_3 C23_3 1_555 1_555
C25_3 C11_3 1_555 1_555
C26_3 C3_3 1_555 1_555
H18_3 C26_3 1_555 1_555
C27_4 C28_4 1_555 1_555
C28_4 H19_4 1_555 1_555
C34_3 C11_3 1_555 1_555
H23_3 C34_3 1_555 1_555
C35_4 C27_4 1_555 1_555
H24_4 C35_4 1_555 1_555
C36_2 C25_3 1_555 1_555
H25_2 C36_2 1_555 1_555
C37_3 C7_3 1_555 1_555
H26_3 C37_3 1_555 1_555
C39_3 C19_3 1_555 1_555
H28_3 C39_3 1_555 1_555
C40_4 C61_4 1_555 1_555
C43_4 H30_4 1_555 1_555
C44_4 H31_4 1_555 1_555
C51_3 C37_3 1_555 1_555
H36_3 C51_3 1_555 1_555
C52_4 C43_4 1_555 1_555
H37_4 C52_4 1_555 1_555
H40_3 C56_3 1_555 1_555
C58_4 C43_4 1_555 1_555
C59_4 C35_4 1_555 1_555
H42_3 C59_4 1_555 1_555
C60_3 H43_3 1_555 1_555
C61_4 H44_4 1_555 1_555
C62_4 C44_4 1_555 1_555
H45_4 C62_4 1_555 1_555
C64_3 P2_3 1_555 1_555
C65_4 C20_4 1_555 1_555
C66_3 C15_3 1_555 1_555
C67_4 H47_4 1_555 1_555
C69_4 C44_4 1_555 1_555
H48_4 C69_4 1_555 1_555
C73_3 P2_3 1_555 1_555
C75_4 C20_4 1_555 1_555
H52_4 C75_4 1_555 1_555
C76_3 C9_3 1_555 1_555
H53_3 C76_3 1_555 1_555
C80_4 C27_4 1_555 1_555
C82_4 Sn2_3 1_555 1_555
C83_4 P11_2 1_555 1_555
C87_4 C28_4 1_555 1_555
H59_4 C87_4 1_555 1_555
C94_4 H66_4 1_555 1_555
C95_4 C62_4 1_555 1_555
H67_4 C95_4 1_555 1_555
C96_3 H68_3 1_555 1_555
C99_4 C67_4 1_555 1_555
H71_4 C99_4 1_555 1_555
C101_2 C36_2 1_555 1_555
H73_2 C101_2 1_555 1_555
C106_4 C83_4 1_555 1_555
H75_4 C106_4 1_555 1_555
C107_4 C80_4 1_555 1_555
H76_4 C107_4 1_555 1_555
H80_3 C112_3 1_555 1_555
C114_4 P11_2 1_555 1_555
C119_3 C9_3 1_555 1_555
C126_3 C80_4 1_555 1_555
H90_4 C126_3 1_555 1_555
C128_3 C112_3 1_555 1_555
H92_3 C128_3 1_555 1_555
C131_3 C119_3 1_555 1_555
H95_3 C131_3 1_555 1_555
C134_4 C40_4 1_555 1_555
H98_4 C134_4 1_555 1_555
C135_4 C61_4 1_555 1_555
H99_4 C135_4 1_555 1_555
C136_3 C34_3 1_555 1_555
H100_3 C136_3 1_555 1_555
C138_3 H102_3 1_555 1_555
C141_3 H104_4 1_555 1_555
C143_3 C105_3 1_555 1_555
H106_3 C143_3 1_555 1_555
C145_3 C128_3 1_555 1_555
H107_3 C145_3 1_555 1_555
C146_3 P7_3 1_555 1_555
C147_3 C103_3 1_555 1_555
H108_3 C147_3 1_555 1_555
C162_2 C4_3 1_555 1_555
C164_3 C138_3 1_555 1_555
H120_3 C164_3 1_555 1_555
C165_3 C131_3 1_555 1_555
H121_3 C165_3 1_555 1_555
C167_3 Sn2_3 1_555 1_555
C168_3 C119_3 1_555 1_555
H123_3 C168_3 1_555 1_555
C174_3 P13_2 1_555 1_555
C177_4 C134_4 1_555 1_555
H131_4 C177_4 1_555 1_555
C178_4 Sn2_3 1_555 1_555
C180_3 C167_3 1_555 1_555
H133_3 C180_3 1_555 1_555
C182_3 P13_2 1_555 1_555
C183_2 C182_3 1_555 1_555
H135_2 C183_2 1_555 1_555
C184_2 C183_2 1_555 1_555
H136_2 C184_2 1_555 1_555
C185_3 C184_2 1_555 1_555
H137_2 C185_3 1_555 1_555
C186_3 C185_3 1_555 1_555
H138_3 C186_3 1_555 1_555
C187_3 C182_3 1_555 1_555
H139_3 C187_3 1_555 1_555
C188_3 C174_3 1_555 1_555
H140_3 C188_3 1_555 1_555
C189_3 C188_3 1_555 1_555
H141_3 C189_3 1_555 1_555
C190_3 C174_3 1_555 1_555
H142_2 C190_3 1_555 1_555
C191_2 C190_3 1_555 1_555
H143_2 C191_2 1_555 1_555
C192_2 C189_3 1_555 1_555
H144_2 C192_2 1_555 1_555
C8_3 C73_3 1_555 1_555
C21_3 C25_3 1_555 1_555
C22_3 C56_3 1_555 1_555
C26_3 C64_3 1_555 1_555
C40_4 C65_4 1_555 1_555
C51_3 C64_3 1_555 1_555
C52_4 C65_4 1_555 1_555
C58_4 C75_4 1_555 1_555
C59_4 C82_4 1_555 1_555
C60_3 C73_3 1_555 1_555
C60_3 C76_3 1_555 1_555
C66_3 C136_3 1_555 1_555
C67_4 C114_4 1_555 1_555
C69_4 C83_4 1_555 1_555
C82_4 C87_4 1_555 1_555
C94_4 C114_4 1_555 1_555
C95_4 C106_4 1_555 1_555
C96_3 C105_3 1_555 1_555
C96_3 C126_3 1_555 1_555
C101_2 C162_2 1_555 1_555
C103_3 C146_3 1_555 1_555
C107_4 C143_3 1_555 1_555
C135_4 C178_4 1_555 1_555
C138_3 C146_3 1_555 1_555
C141_3 C147_3 1_555 1_555
C141_3 C164_3 1_555 1_555
C165_3 C167_3 1_555 1_555
C168_3 C180_3 1_555 1_555
C177_4 C178_4 1_555 1_555
C186_3 C187_3 1_555 1_555
C191_2 C192_2 1_555 1_555
P10_2 C104_4 1_555 1_555
P12_2 C140_4 1_555 1_555
C33_4 H22_4 1_555 1_555
C63_4 H46_4 1_555 1_555
C89_4 C63_4 1_555 1_555
H61_4 C89_4 1_555 1_555
C104_4 C108_4 1_555 1_555
C108_4 H77_4 1_555 1_555
C118_4 H85_4 1_555 1_555
H88_4 C123_4 1_555 1_555
C127_4 H91_4 1_555 1_555
C129_4 H93_4 1_555 1_555
C130_2 C110_2 1_555 1_555
H94_2 C130_2 1_555 1_555
C132_4 H96_4 1_555 1_555
C133_4 H97_4 1_555 1_555
C137_4 C104_4 1_555 1_555
H101_4 C137_4 1_555 1_555
C139_2 C130_2 1_555 1_555
H103_2 C139_2 1_555 1_555
C140_4 C123_4 1_555 1_555
C142_4 C127_4 1_555 1_555
H105_4 C142_4 1_555 1_555
C144_4 P12_2 1_555 1_555
C153_4 P10_2 1_555 1_555
C154_4 P12_2 1_555 1_555
C156_4 C33_4 1_555 1_555
H114_4 C156_4 1_555 1_555
H115_2 C158_2 1_555 1_555
C159_2 C133_4 1_555 1_555
H116_2 C159_2 1_555 1_555
C160_4 C118_4 1_555 1_555
H117_4 C160_4 1_555 1_555
C161_4 C108_4 1_555 1_555
H118_2 C161_4 1_555 1_555
C163_4 C89_4 1_555 1_555
H119_4 C163_4 1_555 1_555
C170_2 C139_2 1_555 1_555
H125_2 C170_2 1_555 1_555
C173_2 C155_2 1_555 1_555
H128_2 C173_2 1_555 1_555
C179_4 C132_4 1_555 1_555
H132_4 C179_4 1_555 1_555
C63_4 C144_4 1_555 1_555
C110_2 C155_2 1_555 1_555
C118_4 C154_4 1_555 1_555
C127_4 C154_4 1_555 1_555
C129_4 C142_4 1_555 1_555
C129_4 C160_4 1_555 1_555
C132_4 C144_4 1_555 1_555
C133_4 C137_4 1_555 1_555
C153_4 C156_4 1_555 1_555
C157_2 C158_2 1_555 1_555
C159_2 C161_4 1_555 1_555
C163_4 C179_4 1_555 1_555
C170_2 C173_2 1_555 1_555
C96_4 H68_4 1_555 1_555
H80_4 C112_4 1_555 1_555
C128_4 C112_4 1_555 1_555
H92_4 C128_4 1_555 1_555
C143_4 C105_4 1_555 1_555
H106_4 C143_4 1_555 1_555
C145_4 C128_4 1_555 1_555
H107_4 C145_4 1_555 1_555
H143_3 C191_3 1_555 1_555
H144_3 C192_3 1_555 1_555
C96_4 C105_4 1_555 1_555
C96_4 C126_4 1_555 1_555
C191_3 C192_3 1_555 1_555
C17_4 H11_4 1_555 1_555
C46_4 C17_4 1_555 1_555
H33_4 C46_4 1_555 1_555
C92_4 C46_4 1_555 1_555
H64_4 C92_4 1_555 1_555
H116_3 C159_3 1_555 1_555
P8_2 C162_3 1_555 1_555
H25_3 C36_3 1_555 1_555
C101_3 C36_3 1_555 1_555
H73_3 C101_3 1_555 1_555
C174_4 P8_2 1_555 1_555
C182_4 P8_2 1_555 1_555
C183_3 C182_4 1_555 1_555
H135_3 C183_3 1_555 1_555
C184_3 C183_3 1_555 1_555
H136_3 C184_3 1_555 1_555
C185_4 C184_3 1_555 1_555
H137_3 C185_4 1_555 1_555
C186_4 C185_4 1_555 1_555
H138_4 C186_4 1_555 1_555
C187_4 C182_4 1_555 1_555
H139_4 C187_4 1_555 1_555
C188_4 C174_4 1_555 1_555
H140_4 C188_4 1_555 1_555
C189_4 C188_4 1_555 1_555
H141_4 C189_4 1_555 1_555
C190_4 C174_4 1_555 1_555
H142_3 C190_4 1_555 1_555
C101_3 C162_3 1_555 1_555
C186_4 C187_4 1_555 1_555
P5_4 C41_4 1_555 1_555
C13_4 C30_4 1_555 1_555
C24_4 H17_4 1_555 1_555
C29_4 C88_4 1_555 1_555
C30_4 C24_4 1_555 1_555
H20_4 C30_4 1_555 1_555
C41_4 C24_4 1_555 1_555
C42_4 H29_4 1_555 1_555
C47_4 C13_4 1_555 1_555
C48_4 P5_4 1_555 1_555
C50_4 C42_4 1_555 1_555
H35_4 C50_4 1_555 1_555
C53_4 C42_4 1_555 1_555
H38_4 C53_4 1_555 1_555
C54_4 H39_4 1_555 1_555
C55_4 P5_4 1_555 1_555
C74_4 C55_4 1_555 1_555
H51_4 C74_4 1_555 1_555
C84_4 C47_4 1_555 1_555
H57_4 C84_4 1_555 1_555
C88_4 H60_4 1_555 1_555
C93_4 C74_4 1_555 1_555
H65_4 C93_4 1_555 1_555
C98_4 C97_4 1_555 1_555
H70_4 C98_4 1_555 1_555
C100_4 C48_4 1_555 1_555
H72_4 C100_4 1_555 1_555
C102_4 C29_4 1_555 1_555
C109_4 Sn1_4 1_555 1_555
C117_4 C88_4 1_555 1_555
C120_4 C53_4 1_555 1_555
H86_3 C120_4 1_555 1_555
C122_4 Sn1_4 1_555 1_555
C130_3 C110_3 1_555 1_555
H94_3 C130_3 1_555 1_555
C139_3 C130_3 1_555 1_555
H103_3 C139_3 1_555 1_555
C148_4 C84_4 1_555 1_555
H109_4 C148_4 1_555 1_555
C150_4 C13_4 1_555 1_555
H111_4 C150_4 1_555 1_555
C152_4 C29_4 1_555 1_555
H113_3 C152_4 1_555 1_555
C158_3 C152_4 1_555 1_555
H115_3 C158_3 1_555 1_555
C166_4 C47_4 1_555 1_555
H122_4 C166_4 1_555 1_555
C170_3 C139_3 1_555 1_555
H125_3 C170_3 1_555 1_555
C171_4 C54_4 1_555 1_555
H126_4 C171_4 1_555 1_555
C173_3 C155_3 1_555 1_555
H128_3 C173_3 1_555 1_555
C175_4 C41_4 1_555 1_555
H129_4 C175_4 1_555 1_555
C176_4 C122_4 1_555 1_555
H130_4 C176_4 1_555 1_555
C48_4 C50_4 1_555 1_555
C54_4 C102_4 1_555 1_555
C97_4 C109_4 1_555 1_555
C98_4 C102_4 1_555 1_555
C100_4 C120_4 1_555 1_555
C109_4 C171_4 1_555 1_555
C110_3 C155_3 1_555 1_555
C117_4 C157_3 1_555 1_555
C122_4 C148_4 1_555 1_555
C150_4 C175_4 1_555 1_555
C157_3 C158_3 1_555 1_555
C166_4 C176_4 1_555 1_555
C170_3 C173_3 1_555 1_555
Sn2_4 C66_4 1_555 1_555
P2_4 C19_4 1_555 1_555
C2_4 H2_4 1_555 1_555
C3_4 H3_4 1_555 1_555
C4_4 H4_4 1_555 1_555
C7_4 C3_4 1_555 1_555
H6_4 C7_4 1_555 1_555
C8_4 H7_4 1_555 1_555
C9_4 C23_4 1_555 1_555
C11_4 C2_4 1_555 1_555
C15_4 C2_4 1_555 1_555
C19_4 C22_4 1_555 1_555
C21_4 C4_4 1_555 1_555
H14_4 C21_4 1_555 1_555
C22_4 H15_4 1_555 1_555
C23_4 C8_4 1_555 1_555
H16_4 C23_4 1_555 1_555
C25_4 C11_4 1_555 1_555
C26_4 C3_4 1_555 1_555
H18_4 C26_4 1_555 1_555
C34_4 C11_4 1_555 1_555
H23_4 C34_4 1_555 1_555
C36_4 C25_4 1_555 1_555
H25_4 C36_4 1_555 1_555
C37_4 C7_4 1_555 1_555
H26_4 C37_4 1_555 1_555
C39_4 C19_4 1_555 1_555
H28_4 C39_4 1_555 1_555
C51_4 C37_4 1_555 1_555
H36_4 C51_4 1_555 1_555
H40_4 C56_4 1_555 1_555
C60_4 H43_4 1_555 1_555
C64_4 P2_4 1_555 1_555
C66_4 C15_4 1_555 1_555
C73_4 P2_4 1_555 1_555
C76_4 C9_4 1_555 1_555
H53_4 C76_4 1_555 1_555
C101_4 C36_4 1_555 1_555
H73_4 C101_4 1_555 1_555
C110_4 H78_4 1_555 1_555
C119_4 C9_4 1_555 1_555
C130_4 C110_4 1_555 1_555
H94_4 C130_4 1_555 1_555
C131_4 C119_4 1_555 1_555
H95_4 C131_4 1_555 1_555
C136_4 C34_4 1_555 1_555
H100_4 C136_4 1_555 1_555
C138_4 H102_4 1_555 1_555
C139_4 C130_4 1_555 1_555
H103_4 C139_4 1_555 1_555
C146_4 P7_4 1_555 1_555
C147_4 C103_4 1_555 1_555
H108_4 C147_4 1_555 1_555
C155_4 P7_4 1_555 1_555
C157_4 P7_4 1_555 1_555
H115_4 C158_4 1_555 1_555
H116_4 C159_4 1_555 1_555
C162_4 C4_4 1_555 1_555
C164_4 C138_4 1_555 1_555
H120_4 C164_4 1_555 1_555
C165_4 C131_4 1_555 1_555
H121_4 C165_4 1_555 1_555
C167_4 Sn2_4 1_555 1_555
C168_4 C119_4 1_555 1_555
H123_4 C168_4 1_555 1_555
C170_4 C139_4 1_555 1_555
H125_4 C170_4 1_555 1_555
C173_4 C155_4 1_555 1_555
H128_4 C173_4 1_555 1_555
C180_4 C167_4 1_555 1_555
H133_4 C180_4 1_555 1_555
H135_4 C183_4 1_555 1_555
C184_4 C183_4 1_555 1_555
H136_4 C184_4 1_555 1_555
C8_4 C73_4 1_555 1_555
C21_4 C25_4 1_555 1_555
C22_4 C56_4 1_555 1_555
C26_4 C64_4 1_555 1_555
C51_4 C64_4 1_555 1_555
C60_4 C73_4 1_555 1_555
C60_4 C76_4 1_555 1_555
C66_4 C136_4 1_555 1_555
C101_4 C162_4 1_555 1_555
C103_4 C146_4 1_555 1_555
C110_4 C155_4 1_555 1_555
C138_4 C146_4 1_555 1_555
C141_4 C147_4 1_555 1_555
C141_4 C164_4 1_555 1_555
C157_4 C158_4 1_555 1_555
C165_4 C167_4 1_555 1_555
C168_4 C180_4 1_555 1_555
C170_4 C173_4 1_555 1_555
H143_4 C191_4 1_555 1_555
H144_4 C192_4 1_555 1_555
C191_4 C192_4 1_555 1_555

#END
