
###############################################################################
#
# This file contains modified crystal structure data generated from the
# MOF subset of the Cambridge Structural Database (CSD) v543 
# hosted by the Cambridge Crystallographic Data Centre (CCDC).
#
# This work is licensed under the Creative Commons
# Attribution-NonCommercial-ShareAlike 4.0 International License.
# To view a copy of this license, visit
# http://creativecommons.org/licenses/by-nc-sa/4.0/
# or send a letter to
# Creative Commons, PO Box 1866, Mountain View, CA 94042, USA.
#
# CIF created using the CSD Python API on 29 September 2022
# The structure has been converted into the P1 space group
# The structure has a 3D framework
# The original CSD entry MAQMAV is in the triclinic crystal system
# The framework has been calculated to contain at least 10.0% void space
# The void calculation uses a probe of radius 1.32A, grid spacing 0.4
#
###############################################################################

data_MAQMAV
_chemical_formula_moiety         '(C96 H60 Cd2 N6 O8)n'
_symmetry_cell_setting           triclinic
_symmetry_space_group_name_H-M   'P 1'
_symmetry_Int_Tables_number      1
_space_group_name_Hall           'P 1'
loop_
_symmetry_equiv_pos_site_id
_symmetry_equiv_pos_as_xyz
1 x,y,z
_cell_length_a                   9.1668(12)
_cell_length_b                   13.6510(16)
_cell_length_c                   22.598(3)
_cell_angle_alpha                74.887(5)
_cell_angle_beta                 84.345(6)
_cell_angle_gamma                88.071(8)
_cell_volume                     2716.64
loop_
_atom_site_label
_atom_site_type_symbol
_atom_site_fract_x
_atom_site_fract_y
_atom_site_fract_z
_atom_site_U_iso_or_equiv
_atom_site_thermal_displace_type
H38 H 0.2576 0.2155 0.0113 0.0260 Uiso
C23 C 0.9089(3) 0.5077(2) 0.07687(13) 0.0199 Uani
H14 H 0.8149 0.5095 0.0963 0.0240 Uiso
C24 C 0.9278(3) 0.5011(2) 0.01443(13) 0.0179 Uani
C61 C 0.3473(3) 0.3108(2) 0.93265(13) 0.0198 Uani
H37 H 0.3994 0.3485 0.9522 0.0240 Uiso
C62 C 0.2621(3) 0.2303(2) 0.96863(14) 0.0219 Uani
C63 C 0.1846(3) 0.1729(2) 0.94085(14) 0.0229 Uani
C64 C 0.1970(5) 0.1981(3) 0.87705(16) 0.0416 Uani
H39 H 0.1479 0.1604 0.8565 0.0500 Uiso
C65 C 0.2829(5) 0.2798(3) 0.84386(15) 0.0370 Uani
H40 H 0.2889 0.2962 0.8011 0.0440 Uiso
C66 C 0.0912(3) 0.0847(2) 0.97434(13) 0.0214 Uani
H41 H 0.3656 0.0221 0.9525 0.0320 Uiso
N4 N 0.3571(3) 0.33564(18) 0.87111(11) 0.0186 Uani
Cd6 Cd 0.50795(2) 0.46052(2) 0.80092(2) 0.0113 Uani
C13 C 0.0839(3) 0.9527(2) 0.21290(14) 0.0193 Uani
C32 C 0.2914(4) 0.7421(3) 0.16201(15) 0.0305 Uani
H19 H 0.3051 0.7190 0.1266 0.0370 Uiso
C33 C 0.2028(4) 0.8255(3) 0.16138(16) 0.0318 Uani
H20 H 0.1588 0.8578 0.1260 0.0380 Uiso
C34 C 0.1790(3) 0.8615(2) 0.21347(14) 0.0204 Uani
C35 C 0.2488(3) 0.8111(2) 0.26442(15) 0.0232 Uani
H21 H 0.2363 0.8327 0.3004 0.0280 Uiso
C36 C 0.3377(3) 0.7277(2) 0.26133(14) 0.0220 Uani
H22 H 0.3847 0.6949 0.2958 0.0260 Uiso
N2 N 0.3591(3) 0.69235(18) 0.21116(12) 0.0201 Uani
Cd3 Cd 0.49205(2) 0.53948(2) 0.19908(2) 0.0113 Uani
C1 C 0.7209(4) 0.3565(2) 0.24521(15) 0.0251 Uani
H1 H 0.7196 0.3894 0.2765 0.0300 Uiso
C2 C 0.8077(4) 0.2709(2) 0.24879(15) 0.0246 Uani
H2 H 0.8628 0.2469 0.2821 0.0290 Uiso
C3 C 0.8124(3) 0.2212(2) 0.20269(14) 0.0193 Uani
C4 C 0.7286(3) 0.2609(2) 0.15377(14) 0.0210 Uani
H3 H 0.7302 0.2301 0.1215 0.0250 Uiso
C5 C 0.6433(3) 0.3460(2) 0.15328(13) 0.0184 Uani
H4 H 0.5870 0.3713 0.1205 0.0220 Uiso
C6 C 0.9067(3) 0.1281(2) 0.20491(14) 0.0195 Uani
C7 C 0.8439(3) 0.0314(2) 0.22899(15) 0.0218 Uani
C8 C 0.6914(4) 0.0180(3) 0.24949(18) 0.0319 Uani
H5 H 0.6311 0.0749 0.2466 0.0380 Uiso
C20 C 0.3016(4) 0.5112(2) 0.11510(15) 0.0242 Uani
C21 C 0.1716(3) 0.5089(2) 0.07930(14) 0.0204 Uani
C22 C 0.0282(3) 0.5113(2) 0.10846(14) 0.0218 Uani
H13 H 0.0147 0.5153 0.1491 0.0260 Uiso
C25 C 0.1930(3) 0.5031(2) 0.01951(14) 0.0198 Uani
H15 H 0.2880 0.5020 0.0009 0.0240 Uiso
C26 C 0.5323(3) 0.5214(2) 0.31933(13) 0.0178 Uani
C27 C 0.5412(3) 0.5216(2) 0.38542(13) 0.0188 Uani
C28 C 0.6585(3) 0.5713(3) 0.40151(14) 0.0244 Uani
H16 H 0.7303 0.6029 0.3712 0.0290 Uiso
C29 C 0.6672(3) 0.5734(3) 0.46113(14) 0.0256 Uani
H17 H 0.7445 0.6066 0.4711 0.0310 Uiso
C30 C 0.5588(3) 0.5252(2) 0.50780(13) 0.0205 Uani
C31 C 0.4346(3) 0.4747(2) 0.42953(13) 0.0209 Uani
H18 H 0.3575 0.4427 0.4185 0.0250 Uiso
C37 C 0.6527(3) 0.6892(2) 0.06735(13) 0.0198 Uani
H23 H 0.6006 0.6515 0.0478 0.0240 Uiso
C38 C 0.7379(3) 0.7697(2) 0.03137(14) 0.0219 Uani
C39 C 0.8154(3) 0.8271(2) 0.05915(14) 0.0229 Uani
C40 C 0.8030(5) 0.8019(3) 0.12295(16) 0.0416 Uani
H25 H 0.8521 0.8396 0.1435 0.0500 Uiso
C41 C 0.7171(5) 0.7202(3) 0.15614(15) 0.0370 Uani
H26 H 0.7111 0.7038 0.1989 0.0440 Uiso
C42 C 0.9088(3) 0.9153(2) 0.02566(13) 0.0214 Uani
H27 H 0.6344 0.9779 0.0475 0.0320 Uiso
N1 N 0.6385(3) 0.39406(18) 0.19846(11) 0.0175 Uani
N3 N 0.6429(3) 0.66436(18) 0.12889(11) 0.0186 Uani
O1 O 0.4267(3) 0.52419(19) 0.08805(12) 0.0338 Uani
O2 O 0.2747(3) 0.50045(19) 0.17278(11) 0.0316 Uani
O3 O 0.6290(2) 0.56991(16) 0.27904(9) 0.0199 Uani
O4 O 0.4280(2) 0.47636(16) 0.30557(9) 0.0207 Uani
C55 C 0.4677(3) 0.4786(2) 0.68067(13) 0.0178 Uani
C56 C 0.4588(3) 0.4784(2) 0.61458(13) 0.0188 Uani
C57 C 0.3415(3) 0.4287(3) 0.59849(14) 0.0244 Uani
H34 H 0.2697 0.3971 0.6288 0.0290 Uiso
C58 C 0.3328(3) 0.4266(3) 0.53887(14) 0.0256 Uani
H35 H 0.2555 0.3934 0.5289 0.0310 Uiso
C59 C 0.4412(3) 0.4748(2) 0.49220(13) 0.0205 Uani
C60 C 0.5654(3) 0.5253(2) 0.57047(13) 0.0209 Uani
H36 H 0.6425 0.5573 0.5815 0.0250 Uiso
O7 O 0.3710(2) 0.43009(16) 0.72096(9) 0.0199 Uani
O8 O 0.5720(2) 0.52364(16) 0.69443(9) 0.0207 Uani
C49 C 0.6984(4) 0.4888(2) 0.88490(15) 0.0242 Uani
C50 C 0.8284(3) 0.4911(2) 0.92070(14) 0.0204 Uani
C51 C 0.9718(3) 0.4887(2) 0.89154(14) 0.0218 Uani
H31 H 0.9853 0.4847 0.8509 0.0260 Uiso
C54 C 0.8070(3) 0.4969(2) 0.98049(14) 0.0198 Uani
H33 H 0.7120 0.4980 0.9991 0.0240 Uiso
O5 O 0.5733(3) 0.47581(19) 0.91195(12) 0.0338 Uani
O6 O 0.7253(3) 0.49955(19) 0.82722(11) 0.0316 Uani
C73 C 0.2791(4) 0.6435(2) 0.75479(15) 0.0251 Uani
H45 H 0.2804 0.6106 0.7235 0.0300 Uiso
C74 C 0.1923(4) 0.7291(2) 0.75121(15) 0.0246 Uani
H46 H 0.1372 0.7531 0.7179 0.0290 Uiso
C75 C 0.1876(3) 0.7788(2) 0.79731(14) 0.0193 Uani
C76 C 0.2714(3) 0.7391(2) 0.84623(14) 0.0210 Uani
H47 H 0.2698 0.7699 0.8785 0.0250 Uiso
C77 C 0.3567(3) 0.6540(2) 0.84672(13) 0.0184 Uani
H48 H 0.4130 0.6287 0.8795 0.0220 Uiso
C78 C 0.0933(3) 0.8719(2) 0.79509(14) 0.0195 Uani
C79 C 0.1561(3) 0.9686(2) 0.77101(15) 0.0218 Uani
C80 C 0.3086(4) 0.9820(3) 0.75051(18) 0.0319 Uani
H49 H 0.3689 0.9251 0.7534 0.0380 Uiso
N5 N 0.3615(3) 0.60594(18) 0.80154(11) 0.0175 Uani
N8 N 0.6409(3) 0.30765(18) 0.78884(12) 0.0201 Uani
C85 C 0.9161(3) 0.0473(2) 0.78710(14) 0.0193 Uani
C92 C 0.7086(4) 0.2579(3) 0.83799(15) 0.0305 Uani
H57 H 0.6949 0.2810 0.8734 0.0370 Uiso
C93 C 0.7972(4) 0.1745(3) 0.83862(16) 0.0318 Uani
H58 H 0.8412 0.1422 0.8740 0.0380 Uiso
C94 C 0.8210(3) 0.1385(2) 0.78653(14) 0.0204 Uani
C95 C 0.7512(3) 0.1889(2) 0.73558(15) 0.0232 Uani
H59 H 0.7637 0.1673 0.6996 0.0280 Uiso
C96 C 0.6623(3) 0.2723(2) 0.73867(14) 0.0220 Uani
H60 H 0.6153 0.3051 0.7042 0.0260 Uiso
C14 C 0.1465(3) 0.0498(2) 0.18802(14) 0.0204 Uani
C15 C 0.2992(3) 0.0624(2) 0.16808(15) 0.0240 Uani
H9 H 0.3589 0.0054 0.1699 0.0290 Uiso
C16 C 0.3586(4) 0.1567(2) 0.14638(16) 0.0275 Uani
H10 H 0.4584 0.1635 0.1341 0.0330 Uiso
C17 C 0.2684(4) 0.2451(3) 0.14235(17) 0.0304 Uani
H11 H 0.3098 0.3092 0.1274 0.0360 Uiso
C18 C 0.1236(4) 0.2364(2) 0.16002(16) 0.0258 Uani
H12 H 0.0661 0.2947 0.1563 0.0310 Uiso
C19 C 0.0562(3) 0.1390(2) 0.18448(14) 0.0205 Uani
C70 C 0.2651(4) 0.7862(3) 0.00209(14) 0.0278 Uani
H43 H 0.3038 0.7209 0.0077 0.0330 Uiso
C71 C 0.1208(4) 0.7999(2) 0.01631(14) 0.0251 Uani
H44 H 0.0611 0.7434 0.0315 0.0300 Uiso
C72 C 0.0568(3) 0.8999(2) 0.00856(13) 0.0215 Uani
C67 C 0.1503(3) 0.9858(2) 0.98289(14) 0.0228 Uani
C68 C 0.3033(4) 0.9673(3) 0.96873(15) 0.0265 Uani
C69 C 0.3587(4) 0.8720(3) 0.97843(15) 0.0293 Uani
H42 H 0.4585 0.8621 0.9696 0.0350 Uiso
C43 C 0.8497(3) 0.0142(2) 0.01711(14) 0.0228 Uani
C44 C 0.6967(4) 0.0327(3) 0.03127(15) 0.0265 Uani
C45 C 0.6413(4) 0.1280(3) 0.02157(15) 0.0293 Uani
H28 H 0.5415 0.1379 0.0304 0.0350 Uiso
C46 C 0.7349(4) 0.2138(3) 0.99791(14) 0.0278 Uani
H29 H 0.6962 0.2791 0.9923 0.0330 Uiso
C47 C 0.8792(4) 0.2001(2) 0.98369(14) 0.0251 Uani
H30 H 0.9389 0.2566 0.9685 0.0300 Uiso
C48 C 0.9432(3) 0.1001(2) 0.99144(13) 0.0215 Uani
C86 C 0.8535(3) 0.9502(2) 0.81198(14) 0.0204 Uani
C87 C 0.7008(3) 0.9376(2) 0.83192(15) 0.0240 Uani
H53 H 0.6411 0.9946 0.8301 0.0290 Uiso
C88 C 0.6414(4) 0.8433(2) 0.85362(16) 0.0275 Uani
H54 H 0.5416 0.8365 0.8659 0.0330 Uiso
C89 C 0.7316(4) 0.7549(3) 0.85765(17) 0.0304 Uani
H55 H 0.6902 0.6908 0.8726 0.0360 Uiso
C90 C 0.8764(4) 0.7636(2) 0.83998(16) 0.0258 Uani
H56 H 0.9339 0.7053 0.8437 0.0310 Uiso
C91 C 0.9438(3) 0.8610(2) 0.81552(14) 0.0205 Uani
H24 H 0.7424 0.7845 0.9887 0.0260 Uiso
C52 C 0.0911(3) 0.4923(2) 0.92313(13) 0.0199 Uani
H32 H 0.1851 0.4905 0.9037 0.0240 Uiso
C53 C 0.0722(3) 0.4989(2) 0.98557(13) 0.0179 Uani
C9 C 0.6324(4) 0.9247(3) 0.2730(2) 0.0387 Uani
H6 H 0.5322 0.9183 0.2845 0.0470 Uiso
C10 C 0.7233(4) 0.8361(3) 0.28016(19) 0.0340 Uani
H7 H 0.6830 0.7724 0.2978 0.0410 Uiso
C11 C 0.8689(4) 0.8450(2) 0.26115(16) 0.0267 Uani
H8 H 0.9269 0.7868 0.2656 0.0320 Uiso
C12 C 0.9348(3) 0.9423(2) 0.23437(15) 0.0219 Uani
C81 C 0.3676(4) 0.0753(3) 0.7270(2) 0.0387 Uani
H50 H 0.4678 0.0817 0.7155 0.0470 Uiso
C82 C 0.2767(4) 0.1639(3) 0.71984(19) 0.0340 Uani
H51 H 0.3170 0.2276 0.7022 0.0410 Uiso
C83 C 0.1311(4) 0.1550(2) 0.73885(16) 0.0267 Uani
H52 H 0.0731 0.2132 0.7344 0.0320 Uiso
C84 C 0.0652(3) 0.0577(2) 0.76563(15) 0.0219 Uani
loop_
_atom_site_aniso_label
_atom_site_aniso_U_11
_atom_site_aniso_U_22
_atom_site_aniso_U_33
_atom_site_aniso_U_23
_atom_site_aniso_U_13
_atom_site_aniso_U_12
C23 0.0188 0.0201 0.0209 -0.0049 -0.0034 0.0015
C24 0.0185 0.0136 0.0213 -0.0025 -0.0061 0.0005
C61 0.0207 0.0193 0.0187 -0.0031 -0.0025 -0.0037
C62 0.0219 0.0242 0.0166 0.0002 -0.0015 -0.0027
C63 0.0214 0.0216 0.0216 0.0014 0.0002 -0.0044
C64 0.057 0.044 0.0223 -0.0015 -0.0035 -0.0344
C65 0.055 0.039 0.0163 -0.0033 -0.0018 -0.0268
C66 0.0237 0.0214 0.0158 0.0013 -0.0003 -0.0068
N4 0.0195 0.0175 0.0174 -0.002 -0.0004 -0.0034
Cd6 0.01274 0.01043 0.01078 -0.00277 -0.00146 0.00203
C13 0.0195 0.0169 0.0229 -0.0075 -0.0049 0.0062
C32 0.044 0.0269 0.0228 -0.0097 -0.0115 0.0181
C33 0.044 0.0257 0.0294 -0.0116 -0.0167 0.0197
C34 0.0182 0.0144 0.0288 -0.0066 -0.0027 0.0046
C35 0.0251 0.0214 0.0247 -0.0094 -0.0026 0.0059
C36 0.024 0.0201 0.023 -0.0071 -0.0051 0.0064
N2 0.023 0.016 0.0215 -0.0055 -0.0039 0.0065
Cd3 0.01274 0.01043 0.01078 -0.00277 -0.00146 0.00203
C1 0.0294 0.0255 0.0245 -0.0127 -0.01 0.0122
C2 0.0279 0.0231 0.0254 -0.0099 -0.0103 0.0128
C3 0.0168 0.0147 0.0269 -0.0075 0.0008 0.0022
C4 0.0189 0.0213 0.0253 -0.0106 -0.0026 0.0029
C5 0.0163 0.019 0.021 -0.0069 -0.003 0.0016
C6 0.0185 0.0163 0.0248 -0.0077 -0.0032 0.0061
C7 0.0188 0.0158 0.0312 -0.0072 -0.0034 0.0044
C8 0.0214 0.0198 0.053 -0.0094 0.0018 0.0048
C20 0.028 0.0119 0.0352 -0.0048 -0.0191 0.0012
C21 0.0195 0.0131 0.0293 -0.0033 -0.0115 0.0001
C22 0.0265 0.0189 0.0214 -0.0061 -0.007 0.0003
C25 0.0161 0.0144 0.0283 -0.003 -0.0066 0.0002
C26 0.0218 0.0164 0.0144 -0.0031 -0.0029 0.0074
C27 0.0188 0.0245 0.0132 -0.0055 -0.0017 0.0039
C28 0.0223 0.0336 0.0163 -0.0054 0.0012 -0.0039
C29 0.0204 0.0379 0.0185 -0.0068 -0.0017 -0.0052
C30 0.0183 0.0279 0.016 -0.0065 -0.0027 0.0015
C31 0.0206 0.0268 0.0154 -0.005 -0.0035 -0.0013
C37 0.0207 0.0193 0.0187 -0.0031 -0.0025 -0.0037
C38 0.0219 0.0242 0.0166 0.0002 -0.0015 -0.0027
C39 0.0214 0.0216 0.0216 0.0014 0.0002 -0.0044
C40 0.057 0.044 0.0223 -0.0015 -0.0035 -0.0344
C41 0.055 0.039 0.0163 -0.0033 -0.0018 -0.0268
C42 0.0237 0.0214 0.0158 0.0013 -0.0003 -0.0068
N1 0.0188 0.0146 0.0197 -0.0053 -0.0028 0.0029
N3 0.0195 0.0175 0.0174 -0.002 -0.0004 -0.0034
O1 0.0231 0.0304 0.0444 0.0019 -0.0158 -0.0076
O2 0.0342 0.0328 0.033 -0.0121 -0.0194 0.0037
O3 0.0226 0.0233 0.0131 -0.0036 -0.0019 0.002
O4 0.0244 0.0235 0.0144 -0.0048 -0.0036 -0.0005
C55 0.0218 0.0164 0.0144 -0.0031 -0.0029 0.0074
C56 0.0188 0.0245 0.0132 -0.0055 -0.0017 0.0039
C57 0.0223 0.0336 0.0163 -0.0054 0.0012 -0.0039
C58 0.0204 0.0379 0.0185 -0.0068 -0.0017 -0.0052
C59 0.0183 0.0279 0.016 -0.0065 -0.0027 0.0015
C60 0.0206 0.0268 0.0154 -0.005 -0.0035 -0.0013
O7 0.0226 0.0233 0.0131 -0.0036 -0.0019 0.002
O8 0.0244 0.0235 0.0144 -0.0048 -0.0036 -0.0005
C49 0.028 0.0119 0.0352 -0.0048 -0.0191 0.0012
C50 0.0195 0.0131 0.0293 -0.0033 -0.0115 0.0001
C51 0.0265 0.0189 0.0214 -0.0061 -0.007 0.0003
C54 0.0161 0.0144 0.0283 -0.003 -0.0066 0.0002
O5 0.0231 0.0304 0.0444 0.0019 -0.0158 -0.0076
O6 0.0342 0.0328 0.033 -0.0121 -0.0194 0.0037
C73 0.0294 0.0255 0.0245 -0.0127 -0.01 0.0122
C74 0.0279 0.0231 0.0254 -0.0099 -0.0103 0.0128
C75 0.0168 0.0147 0.0269 -0.0075 0.0008 0.0022
C76 0.0189 0.0213 0.0253 -0.0106 -0.0026 0.0029
C77 0.0163 0.019 0.021 -0.0069 -0.003 0.0016
C78 0.0185 0.0163 0.0248 -0.0077 -0.0032 0.0061
C79 0.0188 0.0158 0.0312 -0.0072 -0.0034 0.0044
C80 0.0214 0.0198 0.053 -0.0094 0.0018 0.0048
N5 0.0188 0.0146 0.0197 -0.0053 -0.0028 0.0029
N8 0.023 0.016 0.0215 -0.0055 -0.0039 0.0065
C85 0.0195 0.0169 0.0229 -0.0075 -0.0049 0.0062
C92 0.044 0.0269 0.0228 -0.0097 -0.0115 0.0181
C93 0.044 0.0257 0.0294 -0.0116 -0.0167 0.0197
C94 0.0182 0.0144 0.0288 -0.0066 -0.0027 0.0046
C95 0.0251 0.0214 0.0247 -0.0094 -0.0026 0.0059
C96 0.024 0.0201 0.023 -0.0071 -0.0051 0.0064
C14 0.0195 0.0184 0.0246 -0.0083 -0.0033 0.0053
C15 0.0202 0.0215 0.033 -0.0116 -0.0047 0.0056
C16 0.0197 0.0237 0.0397 -0.0109 0.0011 -0.0001
C17 0.0248 0.0204 0.046 -0.01 0.0008 -0.0012
C18 0.0232 0.0161 0.0381 -0.0085 0 0.0033
C19 0.0196 0.016 0.0266 -0.0073 -0.0019 0.003
C70 0.0347 0.0253 0.0209 -0.0015 -0.0027 0.0017
C71 0.032 0.021 0.0193 0.0007 -0.0024 -0.0042
C72 0.0257 0.0209 0.015 0.0011 -0.0019 -0.0042
C67 0.0227 0.0244 0.0182 0.0002 -0.0007 -0.0048
C68 0.0231 0.0285 0.0234 0.0003 0.0018 -0.0056
C69 0.0244 0.0372 0.0238 -0.0041 0 0.0002
C43 0.0227 0.0244 0.0182 0.0002 -0.0007 -0.0048
C44 0.0231 0.0285 0.0234 0.0003 0.0018 -0.0056
C45 0.0244 0.0372 0.0238 -0.0041 0 0.0002
C46 0.0347 0.0253 0.0209 -0.0015 -0.0027 0.0017
C47 0.032 0.021 0.0193 0.0007 -0.0024 -0.0042
C48 0.0257 0.0209 0.015 0.0011 -0.0019 -0.0042
C86 0.0195 0.0184 0.0246 -0.0083 -0.0033 0.0053
C87 0.0202 0.0215 0.033 -0.0116 -0.0047 0.0056
C88 0.0197 0.0237 0.0397 -0.0109 0.0011 -0.0001
C89 0.0248 0.0204 0.046 -0.01 0.0008 -0.0012
C90 0.0232 0.0161 0.0381 -0.0085 0 0.0033
C91 0.0196 0.016 0.0266 -0.0073 -0.0019 0.003
C52 0.0188 0.0201 0.0209 -0.0049 -0.0034 0.0015
C53 0.0185 0.0136 0.0213 -0.0025 -0.0061 0.0005
C9 0.0221 0.0287 0.063 -0.0113 0.006 0.0002
C10 0.0308 0.0182 0.05 -0.0054 0.0028 -0.0033
C11 0.0294 0.0169 0.0345 -0.0081 -0.003 0.0035
C12 0.0209 0.0154 0.0308 -0.0086 -0.0036 0.0046
C81 0.0221 0.0287 0.063 -0.0113 0.006 0.0002
C82 0.0308 0.0182 0.05 -0.0054 0.0028 -0.0033
C83 0.0294 0.0169 0.0345 -0.0081 -0.003 0.0035
C84 0.0209 0.0154 0.0308 -0.0086 -0.0036 0.0046
loop_
_geom_bond_atom_site_label_1
_geom_bond_atom_site_label_2
_geom_bond_site_symmetry_1
_geom_bond_site_symmetry_2
H14 C23 1_555 1_555
C24 C23 1_555 1_555
C61 H37 1_555 1_555
C62 C61 1_555 1_555
C63 C62 1_555 1_555
C64 C63 1_555 1_555
H39 C64 1_555 1_555
C65 C64 1_555 1_555
H40 C65 1_555 1_555
N4 C61 1_555 1_555
Cd6 N4 1_555 1_555
C63 C66 1_555 1_555
C65 N4 1_555 1_555
C32 H19 1_555 1_555
C33 C32 1_555 1_555
H20 C33 1_555 1_555
C34 C13 1_555 1_555
C35 C34 1_555 1_555
H21 C35 1_555 1_555
C36 C35 1_555 1_555
H22 C36 1_555 1_555
N2 C32 1_555 1_555
Cd3 N2 1_555 1_555
C33 C34 1_555 1_555
C36 N2 1_555 1_555
C1 H1 1_555 1_555
C2 C1 1_555 1_555
H2 C2 1_555 1_555
C3 C2 1_555 1_555
C4 C3 1_555 1_555
H3 C4 1_555 1_555
C5 C4 1_555 1_555
H4 C5 1_555 1_555
C6 C3 1_555 1_555
C7 C6 1_555 1_555
C8 C7 1_555 1_555
H5 C8 1_555 1_555
C20 C21 1_555 1_555
C21 C22 1_555 1_555
C22 H13 1_555 1_555
C25 C21 1_555 1_555
H15 C25 1_555 1_555
C26 C27 1_555 1_555
C27 C28 1_555 1_555
C28 H16 1_555 1_555
C29 C28 1_555 1_555
H17 C29 1_555 1_555
C30 C29 1_555 1_555
C31 C27 1_555 1_555
H18 C31 1_555 1_555
C37 H23 1_555 1_555
C38 C37 1_555 1_555
C39 C38 1_555 1_555
C40 C39 1_555 1_555
H25 C40 1_555 1_555
C41 C40 1_555 1_555
H26 C41 1_555 1_555
C42 C39 1_555 1_555
Cd3 N1 1_555 1_555
N1 C1 1_555 1_555
N3 C37 1_555 1_555
O1 C20 1_555 1_555
O2 C20 1_555 1_555
O3 C26 1_555 1_555
O4 C26 1_555 1_555
C55 C56 1_555 1_555
C56 C57 1_555 1_555
C57 H34 1_555 1_555
C58 C57 1_555 1_555
H35 C58 1_555 1_555
C59 C30 1_555 1_555
C60 C30 1_555 1_555
H36 C60 1_555 1_555
O7 C55 1_555 1_555
O8 C55 1_555 1_555
Cd6 O7 1_555 1_555
C5 N1 1_555 1_555
C31 C59 1_555 1_555
C41 N3 1_555 1_555
Cd3 N3 1_555 1_555
Cd3 O1 1_555 1_555
Cd3 O2 1_555 1_555
Cd3 O3 1_555 1_555
Cd3 O4 1_555 1_555
C56 C60 1_555 1_555
C58 C59 1_555 1_555
O8 Cd6 1_555 1_555
C49 C50 1_555 1_555
C50 C51 1_555 1_555
C51 H31 1_555 1_555
H33 C54 1_555 1_555
O5 C49 1_555 1_555
O6 C49 1_555 1_555
C73 H45 1_555 1_555
C74 C73 1_555 1_555
H46 C74 1_555 1_555
C75 C74 1_555 1_555
C76 C75 1_555 1_555
H47 C76 1_555 1_555
C77 C76 1_555 1_555
H48 C77 1_555 1_555
C78 C75 1_555 1_555
C79 C78 1_555 1_555
C80 C79 1_555 1_555
H49 C80 1_555 1_555
Cd6 O5 1_555 1_555
N5 C73 1_555 1_555
N8 Cd6 1_555 1_555
C50 C54 1_555 1_555
O6 Cd6 1_555 1_555
C77 N5 1_555 1_555
Cd6 N5 1_555 1_555
C92 H57 1_555 1_555
C93 C92 1_555 1_555
H58 C93 1_555 1_555
C94 C85 1_555 1_555
C95 C94 1_555 1_555
H59 C95 1_555 1_555
C96 C95 1_555 1_555
H60 C96 1_555 1_555
N8 C92 1_555 1_555
C93 C94 1_555 1_555
C96 N8 1_555 1_555
C15 C14 1_555 1_555
H9 C15 1_555 1_555
C16 C15 1_555 1_555
H10 C16 1_555 1_555
C17 C16 1_555 1_555
H11 C17 1_555 1_555
C18 C17 1_555 1_555
H12 C18 1_555 1_555
H43 C70 1_555 1_555
C71 C70 1_555 1_555
H44 C71 1_555 1_555
C14 C19 1_555 1_555
C18 C19 1_555 1_555
C71 C72 1_555 1_555
C68 C67 1_555 1_555
C69 C68 1_555 1_555
H42 C69 1_555 1_555
C44 C43 1_555 1_555
C45 C44 1_555 1_555
H28 C45 1_555 1_555
H29 C46 1_555 1_555
C47 C46 1_555 1_555
H30 C47 1_555 1_555
C47 C48 1_555 1_555
C87 C86 1_555 1_555
H53 C87 1_555 1_555
C88 C87 1_555 1_555
H54 C88 1_555 1_555
C89 C88 1_555 1_555
H55 C89 1_555 1_555
C90 C89 1_555 1_555
H56 C90 1_555 1_555
C86 C91 1_555 1_555
C90 C91 1_555 1_555
H32 C52 1_555 1_555
C52 C53 1_555 1_555
H6 C9 1_555 1_555
C10 C9 1_555 1_555
H7 C10 1_555 1_555
C11 C10 1_555 1_555
H8 C11 1_555 1_555
C11 C12 1_555 1_555
H50 C81 1_555 1_555
C82 C81 1_555 1_555
H51 C82 1_555 1_555
C83 C82 1_555 1_555
H52 C83 1_555 1_555
C83 C84 1_555 1_555

#END
