
###############################################################################
#
# This file contains modified crystal structure data generated from the
# MOF subset of the Cambridge Structural Database (CSD) v543 
# hosted by the Cambridge Crystallographic Data Centre (CCDC).
#
# This work is licensed under the Creative Commons
# Attribution-NonCommercial-ShareAlike 4.0 International License.
# To view a copy of this license, visit
# http://creativecommons.org/licenses/by-nc-sa/4.0/
# or send a letter to
# Creative Commons, PO Box 1866, Mountain View, CA 94042, USA.
#
# CIF created using the CSD Python API on 29 September 2022
# The structure has been converted into the P1 space group
# The structure has a 3D framework
# The original CSD entry MAQRAA is in the monoclinic crystal system
# The framework has been calculated to contain at least 10.0% void space
# The void calculation uses a probe of radius 1.32A, grid spacing 0.4
#
###############################################################################

data_MAQRAA
_chemical_formula_moiety         '(C24 H13 Cu6 O18 S4)n'
_symmetry_cell_setting           triclinic
_symmetry_space_group_name_H-M   'P 1'
_symmetry_Int_Tables_number      1
_space_group_name_Hall           'P 1'
loop_
_symmetry_equiv_pos_site_id
_symmetry_equiv_pos_as_xyz
1 x,y,z
_cell_length_a                   6.5886(2)
_cell_length_b                   16.7607(4)
_cell_length_c                   11.7157(3)
_cell_angle_alpha                90
_cell_angle_beta                 95.644(3)
_cell_angle_gamma                90
_cell_volume                     1287.49
loop_
_atom_site_label
_atom_site_type_symbol
_atom_site_fract_x
_atom_site_fract_y
_atom_site_fract_z
Cu2 Cu -0.0000 -0.0000 0.5000
Cu5 Cu 0.5000 -0.0000 0.5000
O13 O 0.3399(3) 0.07509(11) 0.58780(16)
Cu1 Cu -0.0000 0.5000 0.0000
O7 O 0.1218(3) 0.36063(12) 0.16059(19)
O10 O 0.3335(3) 0.48415(12) 0.12413(17)
H7 H 0.3458 0.5092 0.1875
H8 H 0.2802 0.4410 0.1450
Cu8 Cu 0.5000 0.5000 0.0000
Cu1_2 Cu -0.0000 0.5000 1.0000
Cu2_2 Cu -0.0000 1.0000 0.5000
C1 C 0.0668(4) 0.63179(15) 0.8557(2)
C2 C 0.1897(4) 0.69393(15) 0.8046(2)
C3 C 0.3946(4) 0.70894(17) 0.8179(3)
H1 H 0.4881 0.6787 0.8641
C4 C 0.4483(4) 0.77540(18) 0.7537(2)
H2 H 0.5813 0.7937 0.7524
C5 C 0.2822(4) 0.81016(15) 0.6931(2)
C6 C 0.2743(4) 0.88098(15) 0.6166(2)
S1 S 0.06051(10) 0.76143(4) 0.71450(6)
O2 O 0.1601(3) 0.57509(11) 0.91220(16)
O4 O 0.4429(3) 0.91237(11) 0.60146(16)
O5 O 0.0999(3) 0.90240(11) 0.57475(17)
Cu5_2 Cu 0.5000 1.0000 0.5000
Cu8_2 Cu 0.5000 0.5000 1.0000
O12 O 0.1665(3) 0.98415(12) 0.37587(17)
O15 O 0.0571(3) 0.41237(11) 0.89854(16)
Cu2_3 Cu 1.0000 -0.0000 0.5000
O1 O 0.8335(3) 0.01585(12) 0.62413(17)
H4 H 0.7802 0.0590 0.6450
O17 O 0.9001(3) 0.09760(11) 0.42525(17)
Cu1_3 Cu 1.0000 0.5000 0.0000
C7 C 0.9332(4) 0.36821(15) 0.1443(2)
C8 C 0.8103(4) 0.30607(15) 0.1954(2)
C9 C 0.6054(4) 0.29106(17) 0.1821(3)
H5 H 0.5119 0.3213 0.1359
C10 C 0.5517(4) 0.22460(18) 0.2463(2)
H6 H 0.4187 0.2063 0.2476
C11 C 0.7178(4) 0.18984(15) 0.3069(2)
C12 C 0.7257(4) 0.11902(15) 0.3834(2)
S2 S 0.93949(10) 0.23857(4) 0.28550(6)
O6 O 0.8399(3) 0.42491(11) 0.08780(16)
O8 O 0.5571(3) 0.08763(11) 0.39854(16)
O16 O 0.9429(3) 0.58763(11) 0.10146(16)
Cu1_4 Cu 1.0000 0.5000 1.0000
Cu2_4 Cu 1.0000 1.0000 0.5000
H3 H 0.8458 0.9908 0.6875
O3 O 0.8782(3) 0.63937(12) 0.83941(19)
O11 O 0.6665(3) 0.51585(12) 0.87587(17)
O14 O 0.6601(3) 0.92491(11) 0.41220(16)
H6_2 H 0.0813 0.7063 0.2524
O17_2 O 0.5999(3) 0.59760(11) 0.07475(17)
C1_2 C 0.4332(4) 0.13179(15) 0.6443(2)
C2_2 C 0.3103(4) 0.19393(15) 0.6954(2)
C3_2 C 0.1054(4) 0.20894(17) 0.6821(3)
H1_2 H 0.0119 0.1787 0.6359
C4_2 C 0.0517(4) 0.27540(18) 0.7463(2)
C5_2 C 0.2178(4) 0.31016(15) 0.8069(2)
C6_2 C 0.2257(4) 0.38098(15) 0.8834(2)
S1_2 S 0.43949(10) 0.26143(4) 0.78550(6)
H3_2 H 0.6542 0.4908 0.8125
H4_2 H 0.7198 0.5590 0.8550
O3_2 O 0.6218(3) 0.13937(12) 0.66059(19)
O5_2 O 0.4001(3) 0.40240(11) 0.92525(17)
H7_2 H 0.1542 0.0092 0.3125
C7_2 C 0.5668(4) 0.86821(15) 0.3557(2)
C8_2 C 0.6897(4) 0.80607(15) 0.3046(2)
C9_2 C 0.8946(4) 0.79106(17) 0.3179(3)
H5_2 H 0.9881 0.8213 0.3641
C10_2 C 0.9483(4) 0.72460(18) 0.2537(2)
C11_2 C 0.7822(4) 0.68984(15) 0.1931(2)
C12_2 C 0.7743(4) 0.61902(15) 0.1166(2)
S2_2 S 0.56051(10) 0.73857(4) 0.21450(6)
O7_2 O 0.3782(3) 0.86063(12) 0.33941(19)
H8_2 H 0.2198 0.9410 0.3550
H2_2 H 0.9187 0.2937 0.7476
loop_
_geom_bond_atom_site_label_1
_geom_bond_atom_site_label_2
_geom_bond_site_symmetry_1
_geom_bond_site_symmetry_2
O13 Cu2 1_555 1_555
Cu5 O13 1_555 1_555
O10 Cu1 1_555 1_555
H7 O10 1_555 1_555
H8 O10 1_555 1_555
O10 Cu8 1_555 1_555
Cu1_2 O2 1_555 1_555
C1 C2 1_555 1_555
C2 C3 1_555 1_555
C3 H1 1_555 1_555
C4 C3 1_555 1_555
H2 C4 1_555 1_555
C5 C4 1_555 1_555
C6 C5 1_555 1_555
S1 C2 1_555 1_555
O2 C1 1_555 1_555
O4 C6 1_555 1_555
O5 Cu2_2 1_555 1_555
Cu5_2 O4 1_555 1_555
Cu8_2 O2 1_555 1_555
O12 Cu2_2 1_555 1_555
O15 Cu1_2 1_555 1_555
C5 S1 1_555 1_555
C6 O5 1_555 1_555
Cu5_2 O12 1_555 1_555
Cu2_3 O1 1_555 1_555
H4 O1 1_555 1_555
Cu5 O1 1_555 1_555
O17 Cu2_3 1_555 1_555
C7 C8 1_555 1_555
C8 C9 1_555 1_555
C9 H5 1_555 1_555
C10 C9 1_555 1_555
H6 C10 1_555 1_555
C11 C10 1_555 1_555
C12 C11 1_555 1_555
S2 C8 1_555 1_555
O6 Cu1_3 1_555 1_555
O8 C12 1_555 1_555
O17 C12 1_555 1_555
Cu5 O8 1_555 1_555
Cu8 O6 1_555 1_555
O16 Cu1_3 1_555 1_555
C7 O6 1_555 1_555
C11 S2 1_555 1_555
O11 Cu1_4 1_555 1_555
O14 Cu2_4 1_555 1_555
Cu5_2 O14 1_555 1_555
Cu8_2 O11 1_555 1_555
O17_2 Cu8 1_555 1_555
C1_2 C2_2 1_555 1_555
C2_2 C3_2 1_555 1_555
C3_2 H1_2 1_555 1_555
C4_2 C3_2 1_555 1_555
C5_2 C4_2 1_555 1_555
C6_2 C5_2 1_555 1_555
S1_2 C2_2 1_555 1_555
O11 H3_2 1_555 1_555
H4_2 O11 1_555 1_555
O13 C1_2 1_555 1_555
O3_2 C1_2 1_555 1_555
O15 C6_2 1_555 1_555
O5_2 Cu8_2 1_555 1_555
C5_2 S1_2 1_555 1_555
C6_2 O5_2 1_555 1_555
C7_2 C8_2 1_555 1_555
C8_2 C9_2 1_555 1_555
C9_2 H5_2 1_555 1_555
C10_2 C9_2 1_555 1_555
C11_2 C10_2 1_555 1_555
C12_2 C11_2 1_555 1_555
S2_2 C8_2 1_555 1_555
O7_2 C7_2 1_555 1_555
O16 C12_2 1_555 1_555
O17_2 C12_2 1_555 1_555
H8_2 O12 1_555 1_555
C7_2 O14 1_555 1_555
C11_2 S2_2 1_555 1_555

#END
