
###############################################################################
#
# This file contains modified crystal structure data generated from the
# MOF subset of the Cambridge Structural Database (CSD) v543 
# hosted by the Cambridge Crystallographic Data Centre (CCDC).
#
# This work is licensed under the Creative Commons
# Attribution-NonCommercial-ShareAlike 4.0 International License.
# To view a copy of this license, visit
# http://creativecommons.org/licenses/by-nc-sa/4.0/
# or send a letter to
# Creative Commons, PO Box 1866, Mountain View, CA 94042, USA.
#
# CIF created using the CSD Python API on 29 September 2022
# The structure has been converted into the P1 space group
# The structure has a 3D framework
# The original CSD entry MAQRAA01 is in the monoclinic crystal system
# The framework has been calculated to contain at least 10.0% void space
# The void calculation uses a probe of radius 1.32A, grid spacing 0.4
#
###############################################################################

data_MAQRAA01
_chemical_formula_moiety         '(C24 H16 Cu11 O20 S4)n'
_symmetry_cell_setting           triclinic
_symmetry_space_group_name_H-M   'P 1'
_symmetry_Int_Tables_number      1
_space_group_name_Hall           'P 1'
loop_
_symmetry_equiv_pos_site_id
_symmetry_equiv_pos_as_xyz
1 x,y,z
_cell_length_a                   6.6132(2)
_cell_length_b                   16.7375(6)
_cell_length_c                   11.7077(4)
_cell_angle_alpha                90
_cell_angle_beta                 95.212(3)
_cell_angle_gamma                90
_cell_volume                     1290.55
loop_
_atom_site_label
_atom_site_type_symbol
_atom_site_fract_x
_atom_site_fract_y
_atom_site_fract_z
Cu7 Cu 0.000000 0.000000 -0.000000
Cu7_2 Cu 0.000000 0.000000 1.000000
Cu7_3 Cu -0.000000 1.000000 -0.000000
Cu1 Cu 0.000000 0.500000 0.500000
Cu2 Cu 0.500000 0.500000 0.500000
S1 S 0.43959(12) 0.26082(5) 0.28673(7)
O1 O 0.0596(3) 0.41266(12) 0.39919(18)
O2 O 0.4004(3) 0.40231(13) 0.4260(2)
O3 O 0.3414(3) 0.07508(12) 0.08757(18)
O4 O 0.6222(4) 0.13810(15) 0.1621(2)
O5 O 0.3334(4) 0.48493(13) 0.62445(19)
H1 H 0.284(5) 0.4406(11) 0.634(3)
H2 H 0.361(6) 0.5108(17) 0.6834(18)
C1 C 0.2264(4) 0.38106(16) 0.3839(2)
C2 C 0.2196(4) 0.31027(17) 0.3074(3)
C3 C 0.0554(5) 0.27659(19) 0.2460(3)
C4 C 0.1083(5) 0.20963(19) 0.1820(3)
H4 H 0.015386 0.179693 0.135442
C5 C 0.3114(5) 0.19375(17) 0.1962(3)
C6 C 0.4343(5) 0.13086(17) 0.1444(2)
H7 H 0.076576 0.704250 0.753577
Cu4 Cu 0.500000 0.000000 0.000000
Cu7_4 Cu 0.000000 1.000000 1.000000
O11 O 0.5996(3) 0.59769(13) 0.5740(2)
O12 O 0.1586(3) 0.57508(12) 0.41243(18)
O14 O 0.8414(3) 0.42492(12) 0.58757(18)
O15 O 0.6666(4) 0.51507(13) 0.37555(19)
Cu4_2 Cu 0.500000 0.000000 1.000000
Cu4_3 Cu 0.500000 1.000000 0.000000
Cu4_4 Cu 0.500000 1.000000 1.000000
Cu7_5 Cu 1.000000 0.000000 -0.000000
Cu7_6 Cu 1.000000 0.000000 1.000000
Cu7_7 Cu 1.000000 1.000000 -0.000000
Cu1_2 Cu 1.000000 0.500000 0.500000
H3 H 0.923424 0.295750 0.246423
S2 S 0.56041(12) 0.73918(5) 0.71327(7)
O6 O 0.9404(3) 0.58734(12) 0.60081(18)
O8 O 0.6586(3) 0.92492(12) 0.91243(18)
O9 O 0.3778(4) 0.86190(15) 0.8379(2)
H5 H 0.716(5) 0.5594(11) 0.366(3)
H6 H 0.639(6) 0.4892(17) 0.3166(18)
C7 C 0.7736(4) 0.61894(16) 0.6161(2)
C8 C 0.7804(4) 0.68973(17) 0.6926(3)
C9 C 0.9446(5) 0.72341(19) 0.7540(3)
C10 C 0.8917(5) 0.79037(19) 0.8180(3)
H8 H 0.984614 0.820307 0.864558
C11 C 0.6886(5) 0.80625(17) 0.8038(3)
C12 C 0.5657(5) 0.86914(17) 0.8556(2)
Cu7_8 Cu 1.000000 1.000000 1.000000
O9_2 O 0.1222(4) 0.36190(15) 0.6621(2)
O10 O 0.8334(4) 0.01507(13) 0.12445(19)
H5_2 H 0.784(5) 0.0594(11) 0.134(3)
H2_2 H 0.139(6) 0.0108(17) 0.8166(18)
S2_2 S 0.93959(12) 0.23918(5) 0.78673(7)
O6_2 O 0.5596(3) 0.08734(12) 0.89919(18)
O7 O 0.9004(3) 0.09769(13) 0.9260(2)
C7_2 C 0.7264(4) 0.11894(16) 0.8839(2)
C8_2 C 0.7196(4) 0.18973(17) 0.8074(3)
C9_2 C 0.5554(5) 0.22341(19) 0.7460(3)
H7_2 H 0.423424 0.204250 0.746423
C10_2 C 0.6083(5) 0.29037(19) 0.6820(3)
H8_2 H 0.515386 0.320307 0.635442
C11_2 C 0.8114(5) 0.30625(17) 0.6962(3)
C12_2 C 0.9343(5) 0.36914(17) 0.6444(2)
S1_2 S 0.06041(12) 0.76082(5) 0.21327(7)
O1_2 O 0.4404(3) 0.91266(12) 0.10081(18)
O2_2 O 0.0996(3) 0.90231(13) 0.0740(2)
C1_2 C 0.2736(4) 0.88106(16) 0.1161(2)
C2_2 C 0.2804(4) 0.81027(17) 0.1926(3)
C3_2 C 0.4446(5) 0.77659(19) 0.2540(3)
H3_2 H 0.576576 0.795750 0.253577
C4_2 C 0.3917(5) 0.70963(19) 0.3180(3)
H4_2 H 0.484614 0.679693 0.364558
C5_2 C 0.1886(5) 0.69375(17) 0.3038(3)
C6_2 C 0.0657(5) 0.63086(17) 0.3556(2)
H6_2 H 0.861(6) 0.9892(17) 0.1834(18)
O5_2 O 0.1666(4) 0.98493(13) 0.87555(19)
H1_2 H 0.216(5) 0.9406(11) 0.866(3)
O4_2 O 0.8778(4) 0.63810(15) 0.3379(2)
loop_
_geom_bond_atom_site_label_1
_geom_bond_atom_site_label_2
_geom_bond_site_symmetry_1
_geom_bond_site_symmetry_2
Cu1 O1 1_555 1_555
Cu2 O2 1_555 1_555
S1 C2 1_555 1_555
O1 C1 1_555 1_555
O2 C1 1_555 1_555
O3 C6 1_555 1_555
O4 C6 1_555 1_555
O5 Cu1 1_555 1_555
H1 O5 1_555 1_555
H2 O5 1_555 1_555
C1 C2 1_555 1_555
C2 C3 1_555 1_555
C4 C3 1_555 1_555
H4 C4 1_555 1_555
C5 S1 1_555 1_555
C6 C5 1_555 1_555
Cu4 O3 1_555 1_555
Cu7 O3 1_555 1_555
O11 Cu2 1_555 1_555
O12 Cu1 1_555 1_555
O14 Cu2 1_555 1_555
O15 Cu2 1_555 1_555
Cu2 O5 1_555 1_555
Cu2 O12 1_555 1_555
C4 C5 1_555 1_555
S2 C8 1_555 1_555
O6 Cu1_2 1_555 1_555
O11 C7 1_555 1_555
O8 C12 1_555 1_555
O9 C12 1_555 1_555
O15 Cu1_2 1_555 1_555
H5 O15 1_555 1_555
H6 O15 1_555 1_555
C7 O6 1_555 1_555
C8 C7 1_555 1_555
C9 C8 1_555 1_555
C10 C9 1_555 1_555
H8 C10 1_555 1_555
C11 S2 1_555 1_555
C12 C11 1_555 1_555
Cu4_4 O8 1_555 1_555
Cu7_8 O8 1_555 1_555
O14 Cu1_2 1_555 1_555
C10 C11 1_555 1_555
O10 Cu4 1_555 1_555
H5_2 O10 1_555 1_555
O10 Cu7_5 1_555 1_555
S2_2 C8_2 1_555 1_555
O6_2 Cu4_2 1_555 1_555
O7 C7_2 1_555 1_555
O14 C12_2 1_555 1_555
C7_2 O6_2 1_555 1_555
C8_2 C7_2 1_555 1_555
C9_2 C8_2 1_555 1_555
H7_2 C9_2 1_555 1_555
C10_2 C9_2 1_555 1_555
H8_2 C10_2 1_555 1_555
C11_2 S2_2 1_555 1_555
C12_2 C11_2 1_555 1_555
Cu7_6 O7 1_555 1_555
C10_2 C11_2 1_555 1_555
Cu4_3 O1_2 1_555 1_555
Cu7_3 O2_2 1_555 1_555
S1_2 C2_2 1_555 1_555
O1_2 C1_2 1_555 1_555
O2_2 C1_2 1_555 1_555
O12 C6_2 1_555 1_555
C1_2 C2_2 1_555 1_555
C2_2 C3_2 1_555 1_555
C3_2 H3_2 1_555 1_555
C4_2 C3_2 1_555 1_555
H4_2 C4_2 1_555 1_555
C5_2 S1_2 1_555 1_555
C6_2 C5_2 1_555 1_555
C4_2 C5_2 1_555 1_555
O5_2 Cu4_4 1_555 1_555
H1_2 O5_2 1_555 1_555
Cu7_4 O5_2 1_555 1_555

#END
