
###############################################################################
#
# This file contains modified crystal structure data generated from the
# MOF subset of the Cambridge Structural Database (CSD) v543 
# hosted by the Cambridge Crystallographic Data Centre (CCDC).
#
# This work is licensed under the Creative Commons
# Attribution-NonCommercial-ShareAlike 4.0 International License.
# To view a copy of this license, visit
# http://creativecommons.org/licenses/by-nc-sa/4.0/
# or send a letter to
# Creative Commons, PO Box 1866, Mountain View, CA 94042, USA.
#
# CIF created using the CSD Python API on 29 September 2022
# The structure has been converted into the P1 space group
# The structure has a 3D framework
# The original CSD entry MARCER is in the monoclinic crystal system
# The original CSD entry MARCER is in a Sohncke space group
# The framework has been calculated to contain at least 10.0% void space
# The void calculation uses a probe of radius 1.32A, grid spacing 0.4
#
###############################################################################

data_MARCER
_chemical_formula_moiety         '(C248 H232 Cd8 N32 O40)n'
_symmetry_cell_setting           triclinic
_symmetry_space_group_name_H-M   'P 1'
_symmetry_Int_Tables_number      1
_space_group_name_Hall           'P 1'
loop_
_symmetry_equiv_pos_site_id
_symmetry_equiv_pos_as_xyz
1 x,y,z
_cell_length_a                   20.8069(13)
_cell_length_b                   13.7777(9)
_cell_length_c                   25.8264(16)
_cell_angle_alpha                90
_cell_angle_beta                 108.928(2)
_cell_angle_gamma                90
_cell_volume                     7003.35
loop_
_atom_site_label
_atom_site_type_symbol
_atom_site_fract_x
_atom_site_fract_y
_atom_site_fract_z
Cd10 Cd 0.32606(3) 0.02779(5) 0.36811(2)
H67 H 0.8451 0.0044 0.9766
Cd7 Cd 0.83495(3) 0.09424(5) 0.85692(2)
H116 H 0.9344 0.0566 0.7837
O6 O 0.0335(4) 0.8740(7) 0.4684(3)
O8 O 0.1483(4) 0.8403(7) 0.7589(3)
O9 O 0.3149(4) 0.8022(5) 0.8001(3)
O10 O 0.3109(4) 0.7485(6) 0.8799(3)
O18 O 0.0624(5) 0.2538(6) 0.0365(3)
O19 O 0.2070(3) 0.0006(5) 0.2883(3)
O20 O 0.2891(3) 0.0950(6) 0.2821(2)
N2 N 0.1952(4) 0.7030(7) 0.7428(3)
N16 N 0.2857(4) 0.1714(6) 0.3977(4)
C14 C 0.0110(6) 0.8212(10) 0.4948(5)
C15 C 0.0477(5) 0.8128(8) 0.5561(4)
C16 C 0.0258(5) 0.7444(8) 0.5866(4)
C17 C 0.1013(5) 0.8719(7) 0.5812(4)
H13 H 0.1140 0.9197 0.5610
C18 C 0.0641(5) 0.7344(8) 0.6421(4)
H14 H 0.0518 0.6867 0.6626
C19 C 0.1368(5) 0.8617(8) 0.6360(4)
H15 H 0.1734 0.9024 0.6523
C20 C 0.1190(5) 0.7924(7) 0.6673(4)
C21 C 0.1541(6) 0.7812(9) 0.7249(5)
C22 C 0.2045(6) 0.6276(9) 0.7048(5)
H16 H 0.2186 0.6559 0.6758
H17 H 0.1633 0.5902 0.6889
C23 C 0.2609(7) 0.5657(10) 0.7433(5)
H18 H 0.2551 0.4983 0.7318
H19 H 0.3049 0.5876 0.7426
C24 C 0.2569(7) 0.5749(9) 0.7956(5)
H20 H 0.3014 0.5661 0.8227
H21 H 0.2262 0.5267 0.8018
C25 C 0.2289(6) 0.6827(8) 0.7997(4)
H22 H 0.1959 0.6812 0.8195
C26 C 0.2880(6) 0.7505(8) 0.8287(4)
C40 C 0.2326(6) 0.0546(8) 0.2615(5)
C41 C 0.1955(5) 0.0798(7) 0.2025(4)
C42 C 0.1344(4) 0.0308(8) 0.1732(3)
C43 C 0.2205(5) 0.1482(8) 0.1761(4)
H35 H 0.2615 0.1782 0.1949
C44 C 0.1021(5) 0.0578(7) 0.1196(4)
H36 H 0.0627 0.0250 0.0997
C45 C 0.1877(5) 0.1747(8) 0.1231(4)
H37 H 0.2064 0.2214 0.1062
C46 C 0.1254(5) 0.1304(7) 0.0943(4)
C47 C 0.0859(5) 0.1718(8) 0.0390(4)
H39 H 0.1552 0.0222 0.0086
C90 C 0.0351(6) 0.9884(9) 0.3609(5)
H82 H 0.0581 0.9743 0.3975
C107 C 0.0494(5) 0.6991(8) 0.3465(4)
H100 H 0.0566 0.7573 0.3310
C109 C 0.0304(6) 0.5271(9) 0.3872(4)
H102 H 0.0206 0.4676 0.3999
C110 C 0.0896(6) 0.6210(9) 0.3445(5)
H103 H 0.1236 0.6276 0.3286
C111 C 0.0798(5) 0.5334(9) 0.3659(4)
C112 C 0.1831(6) 0.4357(9) 0.4148(5)
H104 H 0.2130 0.4914 0.4197
H105 H 0.1675 0.4309 0.4463
C113 C 0.1226(6) 0.4464(9) 0.3622(5)
H106 H 0.1389 0.4542 0.3313
H107 H 0.0950 0.3882 0.3564
C114 C 0.2201(6) 0.3439(9) 0.4089(5)
C115 C 0.2596(6) 0.3367(10) 0.3769(5)
H108 H 0.2677 0.3927 0.3599
C116 C 0.2162(6) 0.2659(10) 0.4365(5)
H109 H 0.1921 0.2684 0.4612
C117 C 0.2885(6) 0.2517(9) 0.3677(6)
H110 H 0.3099 0.2489 0.3412
C118 C 0.2485(6) 0.1750(9) 0.4296(5)
H111 H 0.2425 0.1196 0.4480
Cd5 Cd 0.40838(3) 0.83572(5) 0.89861(2)
O23 O 0.4282(3) 0.0997(6) 0.3744(3)
O24 O 0.4441(3) 0.0183(6) 0.4496(3)
O1 O 0.4370(4) 0.7734(6) 0.9930(3)
O2 O 0.5105(4) 0.8697(6) 0.9747(3)
O11 O 0.7422(3) 0.0594(5) 0.7793(3)
O12 O 0.8096(3) 0.1680(5) 0.7648(3)
O13 O 0.5533(4) 0.2088(5) 0.5097(3)
O16 O 0.9347(3) 0.1854(5) 0.8772(2)
O17 O 0.9397(3) 0.0821(5) 0.9437(3)
N3 N 0.5841(4) 0.0640(6) 0.4871(3)
N5 N 0.4552(4) 0.9391(6) 0.8479(3)
N7 N 0.3614(4) 0.9689(6) 0.9303(3)
N9 N 0.4655(4) 0.7023(6) 0.8770(3)
N10 N 0.7774(4) 0.2217(6) 0.8837(3)
C27 C 0.7590(5) 0.1152(7) 0.7468(4)
C28 C 0.7168(4) 0.1146(7) 0.6880(3)
C29 C 0.6610(5) 0.0524(7) 0.6685(4)
H23 H 0.6507 0.0094 0.6925
C30 C 0.7289(5) 0.1801(7) 0.6526(3)
H24 H 0.7653 0.2229 0.6647
C31 C 0.6215(5) 0.0541(7) 0.6149(3)
H25 H 0.5863 0.0096 0.6019
C32 C 0.6864(5) 0.1828(7) 0.5979(3)
H26 H 0.6945 0.2272 0.5736
C33 C 0.6334(5) 0.1199(7) 0.5809(4)
C34 C 0.5857(5) 0.1346(9) 0.5220(4)
H32 H 0.6026 0.0189 0.3852
C38 C 0.5411(5) 0.0781(9) 0.4289(4)
H33 H 0.5498 0.1419 0.4157
C39 C 0.4654(5) 0.0644(8) 0.4187(5)
C52 C 0.9679(5) 0.1399(8) 0.9205(4)
C53 C 0.5154(6) 0.9800(8) 0.8700(5)
H45 H 0.5359 0.9703 0.9074
C54 C 0.4262(6) 0.9540(8) 0.7949(4)
H46 H 0.3837 0.9270 0.7776
C65 C 0.2977(5) 0.9699(8) 0.9267(5)
H57 H 0.2698 0.9195 0.9085
C77 C 0.5092(6) 0.7149(9) 0.8480(5)
H69 H 0.5141 0.7761 0.8346
C78 C 0.4671(6) 0.6208(8) 0.9007(5)
H70 H 0.4416 0.6142 0.9242
C79 C 0.5455(7) 0.6391(10) 0.8385(5)
H71 H 0.5712 0.6473 0.8153
C80 C 0.5047(6) 0.5407(9) 0.8938(5)
H72 H 0.5016 0.4821 0.9107
C81 C 0.5448(6) 0.5479(9) 0.8633(5)
C82 C 0.5925(6) 0.4676(8) 0.8568(5)
H73 H 0.5678 0.4067 0.8498
H74 H 0.6063 0.4820 0.8252
C83 C 0.6530(6) 0.4561(8) 0.9044(5)
H75 H 0.6392 0.4443 0.9363
H76 H 0.6785 0.5163 0.9105
C84 C 0.6981(6) 0.3763(8) 0.8994(5)
C85 C 0.7528(6) 0.3899(8) 0.8798(5)
H77 H 0.7644 0.4523 0.8723
C86 C 0.6866(6) 0.2836(9) 0.9114(5)
H78 H 0.6510 0.2704 0.9246
C87 C 0.7881(5) 0.3145(8) 0.8717(4)
H79 H 0.8226 0.3264 0.8569
C88 C 0.7273(6) 0.2070(9) 0.9043(5)
H80 H 0.7190 0.1445 0.9141
Cd1 Cd 0.59162(3) 0.33572(5) 0.10139(2)
O1_2 O 0.5630(4) 0.2734(6) 0.0070(3)
O2_2 O 0.4895(4) 0.3697(6) 0.0253(3)
N5_2 N 0.5448(4) 0.4391(6) 0.1521(3)
N6 N 0.3643(4) 0.8888(6) 0.3329(3)
N7_2 N 0.6386(4) 0.4689(6) 0.0697(3)
N9_2 N 0.5345(4) 0.2023(6) 0.1230(3)
C53_2 C 0.4846(6) 0.4800(8) 0.1300(5)
H45_2 H 0.4641 0.4703 0.0926
C54_2 C 0.5738(6) 0.4540(8) 0.2051(4)
H46_2 H 0.6163 0.4270 0.2224
C55 C 0.5446(6) 0.5063(9) 0.2352(5)
H47 H 0.5673 0.5165 0.2722
C56 C 0.4495(6) 0.5335(10) 0.1548(5)
H48 H 0.4076 0.5607 0.1358
C57 C 0.4799(6) 0.5456(9) 0.2104(5)
C58 C 0.4453(6) 0.6030(10) 0.2480(5)
H49 H 0.3967 0.6072 0.2296
H50 H 0.4529 0.5683 0.2821
C59 C 0.4724(7) 0.6956(10) 0.2588(5)
H51 H 0.4729 0.7253 0.2249
H52 H 0.5190 0.6912 0.2830
C60 C 0.4313(6) 0.7611(10) 0.2858(5)
C61 C 0.4490(6) 0.7703(9) 0.3427(5)
H53 H 0.4837 0.7332 0.3661
C62 C 0.3768(7) 0.8073(9) 0.2561(5)
H54 H 0.3599 0.7965 0.2185
C63 C 0.4136(5) 0.8357(8) 0.3631(4)
H55 H 0.4258 0.8424 0.4009
C64 C 0.3442(6) 0.8718(9) 0.2801(5)
H56 H 0.3063 0.9047 0.2578
C65_2 C 0.7023(5) 0.4699(8) 0.0733(5)
H57_2 H 0.7302 0.4195 0.0915
C66 C 0.6015(5) 0.5457(8) 0.0469(4)
H58 H 0.5569 0.5495 0.0472
C67 C 0.7303(5) 0.5441(9) 0.0507(5)
H59 H 0.7760 0.5410 0.0535
C68 C 0.6253(5) 0.6174(8) 0.0237(4)
H60 H 0.5961 0.6671 0.0061
C69 C 0.6928(5) 0.6201(8) 0.0249(5)
H62 H 0.7620 0.7235 0.0281
H65 H 0.7852 0.8968 0.0165
C77_2 C 0.4908(6) 0.2149(9) 0.1520(5)
H69_2 H 0.4859 0.2761 0.1654
C78_2 C 0.5329(6) 0.1208(8) 0.0993(5)
H70_2 H 0.5584 0.1142 0.0758
C79_2 C 0.4545(7) 0.1391(10) 0.1615(5)
H71_2 H 0.4288 0.1473 0.1847
C80_2 C 0.4953(6) 0.0407(9) 0.1062(5)
C81_2 C 0.4552(6) 0.0479(9) 0.1367(5)
H76_2 H 0.3215 0.0163 0.0895
O21 O 0.6851(4) 0.3022(5) 0.1999(3)
O22 O 0.6891(4) 0.2485(6) 0.1201(3)
Cd2 Cd 0.06396(3) 0.32620(5) 0.61643(2)
O3 O 0.3150(4) 0.3121(9) 0.7374(3)
O4 O 0.1508(4) 0.2882(6) 0.7136(3)
O5 O 0.1551(3) 0.2208(6) 0.6371(3)
O7 O 0.0393(4) 0.2634(7) 0.5246(3)
N1 N 0.2724(5) 0.1928(6) 0.7739(3)
N8 N 0.7846(4) 0.9810(6) 0.9009(4)
N11 N 0.0187(4) 0.4395(6) 0.6631(3)
N13 N 0.1281(4) 0.4454(6) 0.5919(3)
N14 N 0.2853(4) 0.9404(6) 0.4267(3)
N15 N 0.0004(4) 0.1959(6) 0.6302(3)
C1 C 0.5072(6) 0.3180(8) 0.9949(5)
C2 C 0.4580(5) 0.3070(7) 0.9359(4)
C3 C 0.4716(5) 0.2460(8) 0.8989(4)
H1 H 0.5129 0.2134 0.9087
C4 C 0.3978(5) 0.3571(7) 0.9204(4)
H2 H 0.3883 0.3988 0.9453
C5 C 0.4246(5) 0.2314(8) 0.8466(4)
H3 H 0.4343 0.1881 0.8225
C6 C 0.3516(5) 0.3476(8) 0.8695(4)
H4 H 0.3118 0.3840 0.8597
C7 C 0.3642(6) 0.2813(8) 0.8311(4)
C8 C 0.3163(6) 0.2645(10) 0.7763(5)
C9 C 0.2647(6) 0.1318(9) 0.8217(5)
H5 H 0.3075 0.1019 0.8424
H6 H 0.2487 0.1715 0.8460
C10 C 0.2124(7) 0.0556(9) 0.7935(5)
H7 H 0.1700 0.0671 0.8005
C11 C 0.2023(8) 0.0651(9) 0.7327(5)
H9 H 0.2241 0.0105 0.7214
H10 H 0.1541 0.0617 0.7125
C12 C 0.2307(7) 0.1586(9) 0.7177(5)
H11 H 0.2600 0.1448 0.6955
C13 C 0.1753(6) 0.2294(9) 0.6883(5)
H12 H 0.0127 0.2069 0.4293
C70 C 0.7239(6) 0.6956(9) 0.9996(5)
H61 H 0.7421 0.6638 0.9738
C71 C 0.6786(6) 0.7782(10) 0.9698(6)
H63 H 0.6420 0.7522 0.9393
H64 H 0.6586 0.8097 0.9946
C72 C 0.7179(6) 0.8522(10) 0.9489(6)
C73 C 0.7708(6) 0.9038(10) 0.9786(6)
C74 C 0.6957(6) 0.8687(10) 0.8971(6)
H66 H 0.6570 0.8362 0.8759
C75 C 0.8073(6) 0.9704(9) 0.9549(5)
C76 C 0.7268(6) 0.9323(9) 0.8718(6)
H68 H 0.7083 0.9424 0.8342
C89 C 0.0508(6) 0.4618(8) 0.7147(5)
H81 H 0.0899 0.4273 0.7334
C91 C 0.0290(6) 0.5341(9) 0.7420(5)
H83 H 0.0552 0.5487 0.7778
H87 H 0.0045 0.7709 0.7346
H88 H 0.0322 0.7226 0.7925
C100 C 0.1956(6) 0.4451(8) 0.6059(5)
H92 H 0.2199 0.3965 0.6290
C101 C 0.0955(5) 0.5177(8) 0.5575(4)
H93 H 0.0487 0.5226 0.5491
C102 C 0.2304(5) 0.5142(8) 0.5875(5)
H94 H 0.2776 0.5150 0.6011
C103 C 0.1272(6) 0.5833(8) 0.5347(5)
H95 H 0.1020 0.6284 0.5094
C104 C 0.1973(5) 0.5819(8) 0.5495(4)
C105 C 0.2332(6) 0.6541(8) 0.5242(5)
H96 H 0.2818 0.6445 0.5399
H97 H 0.2204 0.6418 0.4852
C106 C 0.2167(5) 0.7578(8) 0.5330(4)
H98 H 0.2384 0.7748 0.5712
H99 H 0.1680 0.7645 0.5248
C108 C 0.0092(6) 0.1126(9) 0.6091(5)
H101 H 0.0414 0.1078 0.5913
C119 C 0.2217(5) 0.9031(8) 0.4110(4)
H112 H 0.1928 0.9166 0.3759
C120 C 0.1976(5) 0.8457(8) 0.4447(4)
H113 H 0.1538 0.8204 0.4323
C121 C 0.3254(5) 0.9191(8) 0.4774(4)
H114 H 0.3695 0.9432 0.4889
C122 C 0.3046(5) 0.8628(7) 0.5137(4)
H115 H 0.3343 0.8499 0.5486
C123 C 0.2404(5) 0.8269(8) 0.4975(4)
O6_2 O 0.9665(4) 0.3740(7) 0.5316(3)
O8_2 O 0.8517(4) 0.3403(7) 0.2411(3)
N2_2 N 0.8048(4) 0.2030(7) 0.2572(3)
N12 N 0.8950(4) 0.9737(6) 0.8266(3)
C14_2 C 0.9890(6) 0.3212(10) 0.5052(5)
C15_2 C 0.9523(5) 0.3128(8) 0.4439(4)
C16_2 C 0.9742(5) 0.2444(8) 0.4134(4)
C17_2 C 0.8987(5) 0.3719(7) 0.4188(4)
H13_2 H 0.8860 0.4197 0.4390
C18_2 C 0.9359(5) 0.2344(8) 0.3579(4)
H14_2 H 0.9482 0.1867 0.3374
C19_2 C 0.8632(5) 0.3617(8) 0.3640(4)
H15_2 H 0.8266 0.4024 0.3477
C20_2 C 0.8810(5) 0.2924(7) 0.3327(4)
C21_2 C 0.8459(6) 0.2812(9) 0.2751(5)
C22_2 C 0.7955(6) 0.1276(9) 0.2952(5)
H16_2 H 0.7814 0.1559 0.3242
H17_2 H 0.8367 0.0902 0.3111
C23_2 C 0.7391(7) 0.0657(10) 0.2567(5)
H19_2 H 0.6951 0.0876 0.2574
C24_2 C 0.7431(7) 0.0749(9) 0.2044(5)
H20_2 H 0.6986 0.0661 0.1773
H21_2 H 0.7738 0.0267 0.1982
C25_2 C 0.7711(6) 0.1827(8) 0.2003(4)
H22_2 H 0.8041 0.1812 0.1805
C26_2 C 0.7120(6) 0.2505(8) 0.1713(4)
C90_2 C 0.9649(6) 0.4884(9) 0.6391(5)
H82_2 H 0.9419 0.4743 0.6025
C92 C 0.9390(6) 0.5589(8) 0.6630(5)
H84 H 0.8997 0.5915 0.6429
C93 C 0.9722(6) 0.5833(9) 0.7193(5)
C94 C 0.9460(6) 0.6633(9) 0.7449(5)
H85 H 0.9044 0.6872 0.7184
H86 H 0.9342 0.6369 0.7754
C95 C 0.9913(6) 0.7455(8) 0.7647(5)
C96 C 0.9619(6) 0.8259(9) 0.7882(5)
C97 C 0.9276(6) 0.8080(8) 0.8267(5)
H89 H 0.9260 0.7453 0.8395
C98 C 0.9668(5) 0.9222(8) 0.7759(5)
H90 H 0.9937 0.9402 0.7550
C99 C 0.8964(6) 0.8837(8) 0.8457(5)
H91 H 0.8761 0.8708 0.8721
C107_2 C 0.9506(5) 0.1991(8) 0.6535(4)
H100_2 H 0.9434 0.2573 0.6690
C109_2 C 0.9696(6) 0.0271(9) 0.6128(4)
C110_2 C 0.9104(6) 0.1210(9) 0.6555(5)
H103_2 H 0.8764 0.1276 0.6714
C111_2 C 0.9202(5) 0.0334(9) 0.6341(4)
C124 C 0.9319(5) 0.9926(8) 0.7944(5)
H34 H 0.1168 0.9822 0.1897
H38 H 0.0883 0.9722 0.0114
C35 C 0.6213(5) 0.9722(9) 0.4953(4)
H27 H 0.6698 0.9829 0.5045
H28 H 0.6128 0.9338 0.5239
C36 C 0.5933(6) 0.9256(10) 0.4419(5)
H29 H 0.6284 0.8874 0.4344
H30 H 0.5570 0.8818 0.4426
C37 C 0.5672(5) 0.9955(9) 0.3989(4)
H31 H 0.5304 0.9685 0.3688
Cd3 Cd 0.16505(3) 0.59424(5) 0.14308(2)
O11_2 O 0.2578(3) 0.5594(5) 0.2207(3)
O12_2 O 0.1904(3) 0.6680(5) 0.2352(3)
O13_2 O 0.4467(4) 0.7088(5) 0.4903(3)
O14 O 0.5718(3) 0.5997(6) 0.6256(3)
O15 O 0.5559(3) 0.5183(6) 0.5504(3)
O16_2 O 0.0653(3) 0.6854(5) 0.1228(2)
O17_2 O 0.0603(3) 0.5821(5) 0.0563(3)
N3_2 N 0.4159(4) 0.5640(6) 0.5129(3)
N10_2 N 0.2226(4) 0.7217(6) 0.1163(3)
C27_2 C 0.2410(5) 0.6152(7) 0.2532(4)
C28_2 C 0.2832(4) 0.6146(7) 0.3120(3)
C29_2 C 0.3390(5) 0.5524(7) 0.3315(4)
H23_2 H 0.3493 0.5094 0.3075
C30_2 C 0.2711(5) 0.6801(7) 0.3474(3)
H24_2 H 0.2347 0.7229 0.3353
C31_2 C 0.3785(5) 0.5541(7) 0.3851(3)
H25_2 H 0.4137 0.5096 0.3981
C32_2 C 0.3136(5) 0.6828(7) 0.4021(3)
H26_2 H 0.3055 0.7272 0.4264
C33_2 C 0.3666(5) 0.6199(7) 0.4191(4)
C34_2 C 0.4143(5) 0.6346(9) 0.4780(4)
C35_2 C 0.3787(5) 0.4722(9) 0.5047(4)
H27_2 H 0.3302 0.4829 0.4955
H28_2 H 0.3872 0.4338 0.4761
C36_2 C 0.4067(6) 0.4256(10) 0.5581(5)
H29_2 H 0.3716 0.3874 0.5656
H30_2 H 0.4430 0.3818 0.5574
C37_2 C 0.4328(5) 0.4955(9) 0.6011(4)
H31_2 H 0.4696 0.4685 0.6312
H32_2 H 0.3974 0.5189 0.6148
C38_2 C 0.4589(5) 0.5781(9) 0.5711(4)
H33_2 H 0.4502 0.6419 0.5843
C39_2 C 0.5346(5) 0.5644(8) 0.5813(5)
C52_2 C 0.0321(5) 0.6399(8) 0.0795(4)
H72_2 H 0.4984 0.9821 0.0893
C82_2 C 0.4075(6) 0.9676(8) 0.1432(5)
H73_2 H 0.4322 0.9067 0.1502
H74_2 H 0.3937 0.9820 0.1748
C83_2 C 0.3470(6) 0.9561(8) 0.0956(5)
H75_2 H 0.3608 0.9443 0.0637
C84_2 C 0.3019(6) 0.8763(8) 0.1006(5)
C85_2 C 0.2472(6) 0.8899(8) 0.1202(5)
H77_2 H 0.2356 0.9523 0.1277
C86_2 C 0.3134(6) 0.7836(9) 0.0886(5)
H78_2 H 0.3490 0.7704 0.0754
C87_2 C 0.2119(5) 0.8145(8) 0.1283(4)
H79_2 H 0.1774 0.8264 0.1431
C88_2 C 0.2727(6) 0.7070(9) 0.0957(5)
H80_2 H 0.2810 0.6445 0.0859
Cd8 Cd 0.67394(3) 0.52779(5) 0.63189(2)
N18 N 0.2154(4) 0.4810(6) 0.0991(4)
N19 N 0.1050(4) 0.4737(6) 0.1734(3)
O18_2 O 0.9376(5) 0.7538(6) 0.9635(3)
O19_2 O 0.7930(3) 0.5006(5) 0.7117(3)
O20_2 O 0.7109(3) 0.5950(6) 0.7179(2)
N16_2 N 0.7143(4) 0.6714(6) 0.6023(4)
H18_2 H 0.7449 0.9983 0.2682
C40_2 C 0.7674(6) 0.5546(8) 0.7385(5)
C41_2 C 0.8045(5) 0.5798(7) 0.7975(4)
C42_2 C 0.8656(4) 0.5308(8) 0.8268(3)
H34_2 H 0.8832 0.4822 0.8103
C43_2 C 0.7795(5) 0.6482(8) 0.8239(4)
H35_2 H 0.7385 0.6782 0.8051
C44_2 C 0.8979(5) 0.5578(7) 0.8804(4)
H36_2 H 0.9373 0.5250 0.9003
C45_2 C 0.8123(5) 0.6747(8) 0.8769(4)
H37_2 H 0.7936 0.7214 0.8938
C46_2 C 0.8746(5) 0.6304(7) 0.9057(4)
C47_2 C 0.9141(5) 0.6718(8) 0.9610(4)
H38_2 H 0.9117 0.4722 0.9886
H39_2 H 0.8448 0.5222 0.9914
H102_2 H 0.9794 0.9676 0.6001
C112_2 C 0.8169(6) 0.9357(9) 0.5852(5)
H104_2 H 0.7870 0.9914 0.5803
H105_2 H 0.8325 0.9309 0.5537
C113_2 C 0.8774(6) 0.9464(9) 0.6378(5)
H106_2 H 0.8611 0.9542 0.6687
H107_2 H 0.9050 0.8882 0.6436
C114_2 C 0.7799(6) 0.8439(9) 0.5911(5)
C115_2 C 0.7404(6) 0.8367(10) 0.6231(5)
H108_2 H 0.7323 0.8927 0.6401
C116_2 C 0.7838(6) 0.7659(10) 0.5635(5)
H109_2 H 0.8079 0.7684 0.5388
C117_2 C 0.7115(6) 0.7517(9) 0.6323(6)
H110_2 H 0.6901 0.7489 0.6588
C118_2 C 0.7515(6) 0.6750(9) 0.5704(5)
H111_2 H 0.7575 0.6196 0.5520
N17 N 0.6357(4) 0.3888(6) 0.6671(3)
N20 N 0.7147(4) 0.4404(6) 0.5733(3)
C92_2 C 0.0610(6) 0.0589(8) 0.3370(5)
H84_2 H 0.1003 0.0915 0.3571
C93_2 C 0.0278(6) 0.0833(9) 0.2807(5)
C94_2 C 0.0540(6) 0.1633(9) 0.2551(5)
H85_2 H 0.0956 0.1872 0.2816
H86_2 H 0.0658 0.1369 0.2246
C95_2 C 0.0087(6) 0.2455(8) 0.2353(5)
C96_2 C 0.0381(6) 0.3259(9) 0.2118(5)
C97_2 C 0.0724(6) 0.3080(8) 0.1733(5)
H89_2 H 0.0740 0.2453 0.1605
C98_2 C 0.0332(5) 0.4222(8) 0.2241(5)
H90_2 H 0.0063 0.4402 0.2450
C99_2 C 0.1036(6) 0.3837(8) 0.1543(5)
H91_2 H 0.1239 0.3708 0.1279
C124_2 C 0.0681(5) 0.4926(8) 0.2056(5)
H116_2 H 0.0656 0.5566 0.2163
C70_2 C 0.2761(6) 0.1956(9) 0.0004(5)
H61_2 H 0.2579 0.1638 0.0262
C71_2 C 0.3214(6) 0.2782(10) 0.0302(6)
H63_2 H 0.3580 0.2522 0.0607
H64_2 H 0.3414 0.3097 0.0054
C72_2 C 0.2821(6) 0.3522(10) 0.0511(6)
C73_2 C 0.2292(6) 0.4038(10) 0.0214(6)
C74_2 C 0.3043(6) 0.3687(10) 0.1029(6)
H66_2 H 0.3430 0.3362 0.1241
C75_2 C 0.1927(6) 0.4704(9) 0.0451(5)
H67_2 H 0.1549 0.5044 0.0234
C76_2 C 0.2732(6) 0.4323(9) 0.1282(6)
H68_2 H 0.2917 0.4424 0.1658
C91_2 C 0.9710(6) 0.0341(9) 0.2580(5)
H83_2 H 0.9448 0.0487 0.2222
H87_2 H 0.9955 0.2709 0.2654
H88_2 H 0.9678 0.2226 0.2075
C101_2 C 0.9045(5) 0.0177(8) 0.4425(4)
H93_2 H 0.9513 0.0226 0.4509
C102_2 C 0.7696(5) 0.0142(8) 0.4125(5)
H94_2 H 0.7224 0.0150 0.3989
C103_2 C 0.8728(6) 0.0833(8) 0.4653(5)
H95_2 H 0.8980 0.1284 0.4906
C104_2 C 0.8027(5) 0.0819(8) 0.4505(4)
C105_2 C 0.7668(6) 0.1541(8) 0.4758(5)
H96_2 H 0.7182 0.1445 0.4601
H97_2 H 0.7796 0.1418 0.5148
C106_2 C 0.7833(5) 0.2578(8) 0.4670(4)
H98_2 H 0.7616 0.2748 0.4288
H99_2 H 0.8320 0.2645 0.4752
C119_2 C 0.7783(5) 0.4031(8) 0.5890(4)
H112_2 H 0.8072 0.4166 0.6241
C120_2 C 0.8024(5) 0.3457(8) 0.5553(4)
H113_2 H 0.8462 0.3204 0.5677
C121_2 C 0.6746(5) 0.4191(8) 0.5226(4)
H114_2 H 0.6305 0.4432 0.5111
C122_2 C 0.6954(5) 0.3628(7) 0.4863(4)
H115_2 H 0.6657 0.3499 0.4514
C123_2 C 0.7596(5) 0.3269(8) 0.5025(4)
C55_2 C 0.4554(6) 0.0063(9) 0.7648(5)
H47_2 H 0.4327 0.0165 0.7278
C56_2 C 0.5505(6) 0.0335(10) 0.8452(5)
H48_2 H 0.5924 0.0607 0.8642
C57_2 C 0.5201(6) 0.0456(9) 0.7896(5)
C58_2 C 0.5547(6) 0.1030(10) 0.7520(5)
H49_2 H 0.6033 0.1072 0.7704
H50_2 H 0.5471 0.0683 0.7179
C59_2 C 0.5276(7) 0.1956(10) 0.7412(5)
H51_2 H 0.5271 0.2253 0.7751
H52_2 H 0.4810 0.1912 0.7170
C60_2 C 0.5687(6) 0.2611(10) 0.7142(5)
C61_2 C 0.5510(6) 0.2703(9) 0.6573(5)
H53_2 H 0.5163 0.2332 0.6339
C62_2 C 0.6232(7) 0.3073(9) 0.7439(5)
H54_2 H 0.6401 0.2965 0.7815
C63_2 C 0.5864(5) 0.3357(8) 0.6369(4)
H55_2 H 0.5742 0.3424 0.5991
C64_2 C 0.6558(6) 0.3718(9) 0.7199(5)
H56_2 H 0.6937 0.4047 0.7422
C66_2 C 0.3985(5) 0.0457(8) 0.9531(4)
H58_2 H 0.4431 0.0495 0.9528
C67_2 C 0.2697(5) 0.0441(9) 0.9493(5)
H59_2 H 0.2240 0.0410 0.9465
C68_2 C 0.3747(5) 0.1174(8) 0.9763(4)
H60_2 H 0.4039 0.1671 0.9939
C69_2 C 0.3072(5) 0.1201(8) 0.9751(5)
H62_2 H 0.2380 0.2235 0.9719
H65_2 H 0.2148 0.3968 0.9835
H8 H 0.2286 0.9912 0.8065
N4 N 0.9230(4) 0.6153(6) 0.0045(3)
C48 C 0.8939(5) 0.5201(9) 0.0079(4)
C49 C 0.9125(5) 0.4950(8) 0.0660(4)
H40 H 0.9533 0.4556 0.0775
H41 H 0.8760 0.4601 0.0736
C50 C 0.9244(5) 0.5917(8) 0.0942(4)
H42 H 0.9542 0.5857 0.1317
H43 H 0.8819 0.6209 0.0940
C51 C 0.9582(4) 0.6522(8) 0.0596(3)
H44 H 0.9471 0.7209 0.0615
N4_2 N 0.0770(4) 0.1153(6) 0.9955(3)
C48_2 C 0.1061(5) 0.0201(9) 0.9921(4)
C50_2 C 0.0756(5) 0.0917(8) 0.9058(4)
H42_2 H 0.0458 0.0857 0.8683
H43_2 H 0.1181 0.1209 0.9060
C51_2 C 0.0418(4) 0.1522(8) 0.9404(3)
H44_2 H 0.0529 0.2209 0.9385
C49_2 C 0.0875(5) 0.9950(8) 0.9340(4)
H40_2 H 0.0467 0.9556 0.9225
H41_2 H 0.1240 0.9601 0.9264
Cd2_2 Cd 0.93604(3) 0.82620(5) 0.38357(2)
O3_2 O 0.6850(4) 0.8121(9) 0.2626(3)
O4_2 O 0.8492(4) 0.7882(6) 0.2864(3)
O5_2 O 0.8449(3) 0.7208(6) 0.3629(3)
O7_2 O 0.9607(4) 0.7634(7) 0.4754(3)
N1_2 N 0.7276(5) 0.6928(6) 0.2261(3)
N11_2 N 0.9813(4) 0.9395(6) 0.3369(3)
N13_2 N 0.8719(4) 0.9454(6) 0.4081(3)
N15_2 N 0.9996(4) 0.6959(6) 0.3698(3)
C1_2 C 0.4928(6) 0.8180(8) 0.0051(5)
C2_2 C 0.5420(5) 0.8070(7) 0.0641(4)
C3_2 C 0.5284(5) 0.7460(8) 0.1011(4)
H1_2 H 0.4871 0.7134 0.0913
C4_2 C 0.6022(5) 0.8571(7) 0.0796(4)
H2_2 H 0.6117 0.8988 0.0547
C5_2 C 0.5754(5) 0.7314(8) 0.1534(4)
H3_2 H 0.5657 0.6881 0.1775
C6_2 C 0.6484(5) 0.8476(8) 0.1305(4)
H4_2 H 0.6882 0.8840 0.1403
C7_2 C 0.6358(6) 0.7813(8) 0.1689(4)
C8_2 C 0.6837(6) 0.7645(10) 0.2237(5)
C9_2 C 0.7353(6) 0.6318(9) 0.1783(5)
H5_2 H 0.6925 0.6019 0.1576
H6_2 H 0.7513 0.6715 0.1540
C10_2 C 0.7876(7) 0.5556(9) 0.2065(5)
H7_2 H 0.8300 0.5671 0.1995
H8_2 H 0.7714 0.4912 0.1935
C11_2 C 0.7977(8) 0.5651(9) 0.2673(5)
H9_2 H 0.7759 0.5105 0.2786
H10_2 H 0.8459 0.5617 0.2875
C12_2 C 0.7693(7) 0.6586(9) 0.2823(5)
H11_2 H 0.7400 0.6448 0.3045
C13_2 C 0.8247(6) 0.7294(9) 0.3117(5)
H12_2 H 0.9873 0.7069 0.5707
C89_2 C 0.9492(6) 0.9618(8) 0.2853(5)
H81_2 H 0.9101 0.9273 0.2666
C100_2 C 0.8044(6) 0.9451(8) 0.3941(5)
H92_2 H 0.7801 0.8965 0.3710
C108_2 C 0.9908(6) 0.6126(9) 0.3909(5)
H101_2 H 0.9586 0.6078 0.4087
loop_
_geom_bond_atom_site_label_1
_geom_bond_atom_site_label_2
_geom_bond_site_symmetry_1
_geom_bond_site_symmetry_2
Cd10 O19 1_555 1_555
O8 C21 1_555 1_555
O9 C26 1_555 1_555
O10 C26 1_555 1_555
O18 C47 1_555 1_555
O19 C40 1_555 1_555
O20 Cd10 1_555 1_555
N2 C21 1_555 1_555
N16 Cd10 1_555 1_555
C14 O6 1_555 1_555
C15 C14 1_555 1_555
C16 C15 1_555 1_555
C17 C15 1_555 1_555
H13 C17 1_555 1_555
C18 C16 1_555 1_555
H14 C18 1_555 1_555
C19 C17 1_555 1_555
H15 C19 1_555 1_555
C20 C18 1_555 1_555
C21 C20 1_555 1_555
C22 N2 1_555 1_555
H16 C22 1_555 1_555
H17 C22 1_555 1_555
C23 C22 1_555 1_555
H18 C23 1_555 1_555
H19 C23 1_555 1_555
C24 C23 1_555 1_555
H20 C24 1_555 1_555
H21 C24 1_555 1_555
C25 N2 1_555 1_555
H22 C25 1_555 1_555
C26 C25 1_555 1_555
C40 O20 1_555 1_555
C41 C40 1_555 1_555
C42 C41 1_555 1_555
C43 C41 1_555 1_555
H35 C43 1_555 1_555
C44 C42 1_555 1_555
H36 C44 1_555 1_555
C45 C43 1_555 1_555
H37 C45 1_555 1_555
C46 C44 1_555 1_555
C47 C46 1_555 1_555
H82 C90 1_555 1_555
H100 C107 1_555 1_555
H102 C109 1_555 1_555
C110 C107 1_555 1_555
H103 C110 1_555 1_555
C111 C109 1_555 1_555
C112 H104 1_555 1_555
H105 C112 1_555 1_555
C113 C111 1_555 1_555
H106 C113 1_555 1_555
H107 C113 1_555 1_555
C114 C112 1_555 1_555
C115 C114 1_555 1_555
H108 C115 1_555 1_555
C116 C114 1_555 1_555
H109 C116 1_555 1_555
C117 N16 1_555 1_555
H110 C117 1_555 1_555
C118 N16 1_555 1_555
H111 C118 1_555 1_555
Cd5 O9 1_555 1_555
O23 Cd10 1_555 1_555
O24 Cd10 1_555 1_555
O10 Cd5 1_555 1_555
C19 C20 1_555 1_555
C24 C25 1_555 1_555
C45 C46 1_555 1_555
C110 C111 1_555 1_555
C112 C113 1_555 1_555
C115 C117 1_555 1_555
C116 C118 1_555 1_555
Cd5 O1 1_555 1_555
Cd7 O11 1_555 1_555
O2 Cd5 1_555 1_555
O11 C27 1_555 1_555
O12 Cd7 1_555 1_555
O13 C34 1_555 1_555
O23 C39 1_555 1_555
O24 C39 1_555 1_555
O16 Cd7 1_555 1_555
O17 Cd7 1_555 1_555
N3 C34 1_555 1_555
N5 Cd5 1_555 1_555
N7 Cd5 1_555 1_555
N9 Cd5 1_555 1_555
N10 Cd7 1_555 1_555
C27 O12 1_555 1_555
C28 C27 1_555 1_555
C29 C28 1_555 1_555
H23 C29 1_555 1_555
C30 C28 1_555 1_555
H24 C30 1_555 1_555
C31 C29 1_555 1_555
H25 C31 1_555 1_555
C32 C30 1_555 1_555
H26 C32 1_555 1_555
C33 C31 1_555 1_555
C34 C33 1_555 1_555
C38 N3 1_555 1_555
H33 C38 1_555 1_555
C39 C38 1_555 1_555
C52 O16 1_555 1_555
C53 N5 1_555 1_555
H45 C53 1_555 1_555
C54 N5 1_555 1_555
H46 C54 1_555 1_555
C65 N7 1_555 1_555
H57 C65 1_555 1_555
C77 N9 1_555 1_555
H69 C77 1_555 1_555
C78 N9 1_555 1_555
H70 C78 1_555 1_555
C79 C77 1_555 1_555
H71 C79 1_555 1_555
C80 C78 1_555 1_555
H72 C80 1_555 1_555
C81 C79 1_555 1_555
C82 C81 1_555 1_555
H73 C82 1_555 1_555
H74 C82 1_555 1_555
C83 C82 1_555 1_555
H75 C83 1_555 1_555
H76 C83 1_555 1_555
C84 C83 1_555 1_555
C85 C84 1_555 1_555
H77 C85 1_555 1_555
C86 C84 1_555 1_555
H78 C86 1_555 1_555
C87 N10 1_555 1_555
H79 C87 1_555 1_555
C88 N10 1_555 1_555
H80 C88 1_555 1_555
O17 C52 1_555 1_555
C32 C33 1_555 1_555
C80 C81 1_555 1_555
C85 C87 1_555 1_555
C86 C88 1_555 1_555
Cd1 O1_2 1_555 1_555
O2_2 Cd1 1_555 1_555
N5_2 Cd1 1_555 1_555
N6 C63 1_555 1_555
N7_2 Cd1 1_555 1_555
N9_2 Cd1 1_555 1_555
C53_2 N5_2 1_555 1_555
H45_2 C53_2 1_555 1_555
C54_2 N5_2 1_555 1_555
H46_2 C54_2 1_555 1_555
C55 C54_2 1_555 1_555
H47 C55 1_555 1_555
C56 C53_2 1_555 1_555
H48 C56 1_555 1_555
C57 C55 1_555 1_555
C58 C57 1_555 1_555
H49 C58 1_555 1_555
H50 C58 1_555 1_555
C59 C58 1_555 1_555
H51 C59 1_555 1_555
H52 C59 1_555 1_555
C60 C59 1_555 1_555
C61 C60 1_555 1_555
H53 C61 1_555 1_555
C62 C60 1_555 1_555
H54 C62 1_555 1_555
C63 C61 1_555 1_555
H55 C63 1_555 1_555
C64 N6 1_555 1_555
H56 C64 1_555 1_555
C65_2 N7_2 1_555 1_555
H57_2 C65_2 1_555 1_555
C66 N7_2 1_555 1_555
H58 C66 1_555 1_555
C67 C65_2 1_555 1_555
H59 C67 1_555 1_555
C68 C66 1_555 1_555
H60 C68 1_555 1_555
C69 C67 1_555 1_555
C77_2 N9_2 1_555 1_555
H69_2 C77_2 1_555 1_555
C78_2 N9_2 1_555 1_555
H70_2 C78_2 1_555 1_555
C79_2 C77_2 1_555 1_555
H71_2 C79_2 1_555 1_555
C80_2 C78_2 1_555 1_555
C81_2 C79_2 1_555 1_555
O21 Cd1 1_555 1_555
O22 Cd1 1_555 1_555
C56 C57 1_555 1_555
C62 C64 1_555 1_555
C68 C69 1_555 1_555
C80_2 C81_2 1_555 1_555
Cd2 O4 1_555 1_555
O3 C8 1_555 1_555
O4 C13 1_555 1_555
O5 Cd2 1_555 1_555
O7 Cd2 1_555 1_555
N1 C8 1_555 1_555
N8 C75 1_555 1_555
N11 Cd2 1_555 1_555
N13 Cd2 1_555 1_555
N14 C119 1_555 1_555
N15 Cd2 1_555 1_555
C2 C1 1_555 1_555
C3 C2 1_555 1_555
H1 C3 1_555 1_555
C4 C2 1_555 1_555
H2 C4 1_555 1_555
C5 C3 1_555 1_555
H3 C5 1_555 1_555
C6 C4 1_555 1_555
H4 C6 1_555 1_555
C7 C5 1_555 1_555
C8 C7 1_555 1_555
C9 N1 1_555 1_555
H5 C9 1_555 1_555
H6 C9 1_555 1_555
C10 C9 1_555 1_555
H7 C10 1_555 1_555
C11 C10 1_555 1_555
H9 C11 1_555 1_555
H10 C11 1_555 1_555
C12 N1 1_555 1_555
H11 C12 1_555 1_555
C13 O5 1_555 1_555
H61 C70 1_555 1_555
C71 C70 1_555 1_555
H63 C71 1_555 1_555
H64 C71 1_555 1_555
C72 C71 1_555 1_555
C73 C72 1_555 1_555
C74 C72 1_555 1_555
H66 C74 1_555 1_555
C75 C73 1_555 1_555
C76 N8 1_555 1_555
H68 C76 1_555 1_555
C89 N11 1_555 1_555
H81 C89 1_555 1_555
C91 C89 1_555 1_555
H83 C91 1_555 1_555
C100 N13 1_555 1_555
H92 C100 1_555 1_555
C101 N13 1_555 1_555
H93 C101 1_555 1_555
C102 C100 1_555 1_555
H94 C102 1_555 1_555
C103 C101 1_555 1_555
H95 C103 1_555 1_555
C104 C102 1_555 1_555
C105 C104 1_555 1_555
H96 C105 1_555 1_555
H97 C105 1_555 1_555
C106 C105 1_555 1_555
H98 C106 1_555 1_555
H99 C106 1_555 1_555
C108 N15 1_555 1_555
H101 C108 1_555 1_555
C119 H112 1_555 1_555
C120 C119 1_555 1_555
H113 C120 1_555 1_555
C121 N14 1_555 1_555
H114 C121 1_555 1_555
C122 C121 1_555 1_555
H115 C122 1_555 1_555
C123 C106 1_555 1_555
C6 C7 1_555 1_555
C11 C12 1_555 1_555
C12 C13 1_555 1_555
C74 C76 1_555 1_555
C103 C104 1_555 1_555
C120 C123 1_555 1_555
C122 C123 1_555 1_555
O8_2 C21_2 1_555 1_555
O21 C26_2 1_555 1_555
O22 C26_2 1_555 1_555
N2_2 C21_2 1_555 1_555
N12 C99 1_555 1_555
C14_2 O6_2 1_555 1_555
C15_2 C14_2 1_555 1_555
C16_2 C15_2 1_555 1_555
C17_2 C15_2 1_555 1_555
H13_2 C17_2 1_555 1_555
C18_2 C16_2 1_555 1_555
H14_2 C18_2 1_555 1_555
C19_2 C17_2 1_555 1_555
H15_2 C19_2 1_555 1_555
C20_2 C18_2 1_555 1_555
C21_2 C20_2 1_555 1_555
C22_2 N2_2 1_555 1_555
H16_2 C22_2 1_555 1_555
H17_2 C22_2 1_555 1_555
C23_2 C22_2 1_555 1_555
H19_2 C23_2 1_555 1_555
C24_2 C23_2 1_555 1_555
H20_2 C24_2 1_555 1_555
H21_2 C24_2 1_555 1_555
C25_2 N2_2 1_555 1_555
H22_2 C25_2 1_555 1_555
C26_2 C25_2 1_555 1_555
H82_2 C90_2 1_555 1_555
C92 C90_2 1_555 1_555
H84 C92 1_555 1_555
C94 C93 1_555 1_555
H85 C94 1_555 1_555
H86 C94 1_555 1_555
C95 C94 1_555 1_555
C96 C95 1_555 1_555
C97 C96 1_555 1_555
H89 C97 1_555 1_555
C98 C96 1_555 1_555
H90 C98 1_555 1_555
C99 C97 1_555 1_555
H91 C99 1_555 1_555
H100_2 C107_2 1_555 1_555
C110_2 C107_2 1_555 1_555
H103_2 C110_2 1_555 1_555
C111_2 C109_2 1_555 1_555
C124 N12 1_555 1_555
C19_2 C20_2 1_555 1_555
C24_2 C25_2 1_555 1_555
C92 C93 1_555 1_555
C98 C124 1_555 1_555
C110_2 C111_2 1_555 1_555
H27 C35 1_555 1_555
H28 C35 1_555 1_555
C36 C35 1_555 1_555
H29 C36 1_555 1_555
H30 C36 1_555 1_555
C37 C36 1_555 1_555
H31 C37 1_555 1_555
Cd3 O11_2 1_555 1_555
O11_2 C27_2 1_555 1_555
O12_2 Cd3 1_555 1_555
O13_2 C34_2 1_555 1_555
O14 C39_2 1_555 1_555
O15 C39_2 1_555 1_555
O16_2 Cd3 1_555 1_555
O17_2 Cd3 1_555 1_555
N3_2 C34_2 1_555 1_555
N10_2 Cd3 1_555 1_555
C27_2 O12_2 1_555 1_555
C28_2 C27_2 1_555 1_555
C29_2 C28_2 1_555 1_555
H23_2 C29_2 1_555 1_555
C30_2 C28_2 1_555 1_555
H24_2 C30_2 1_555 1_555
C31_2 C29_2 1_555 1_555
H25_2 C31_2 1_555 1_555
C32_2 C30_2 1_555 1_555
H26_2 C32_2 1_555 1_555
C33_2 C31_2 1_555 1_555
C34_2 C33_2 1_555 1_555
C35_2 N3_2 1_555 1_555
H27_2 C35_2 1_555 1_555
H28_2 C35_2 1_555 1_555
C36_2 C35_2 1_555 1_555
H29_2 C36_2 1_555 1_555
H30_2 C36_2 1_555 1_555
C37_2 C36_2 1_555 1_555
H31_2 C37_2 1_555 1_555
H32_2 C37_2 1_555 1_555
C38_2 N3_2 1_555 1_555
H33_2 C38_2 1_555 1_555
C39_2 C38_2 1_555 1_555
C52_2 O16_2 1_555 1_555
H73_2 C82_2 1_555 1_555
H74_2 C82_2 1_555 1_555
C83_2 C82_2 1_555 1_555
H75_2 C83_2 1_555 1_555
C84_2 C83_2 1_555 1_555
C85_2 C84_2 1_555 1_555
H77_2 C85_2 1_555 1_555
C86_2 C84_2 1_555 1_555
H78_2 C86_2 1_555 1_555
C87_2 N10_2 1_555 1_555
H79_2 C87_2 1_555 1_555
C88_2 N10_2 1_555 1_555
H80_2 C88_2 1_555 1_555
Cd8 O14 1_555 1_555
N18 Cd3 1_555 1_555
N19 Cd3 1_555 1_555
O15 Cd8 1_555 1_555
O17_2 C52_2 1_555 1_555
C32_2 C33_2 1_555 1_555
C37_2 C38_2 1_555 1_555
C85_2 C87_2 1_555 1_555
C86_2 C88_2 1_555 1_555
Cd8 O19_2 1_555 1_555
O18_2 C47_2 1_555 1_555
O19_2 C40_2 1_555 1_555
O20_2 Cd8 1_555 1_555
N16_2 Cd8 1_555 1_555
C40_2 O20_2 1_555 1_555
C41_2 C40_2 1_555 1_555
C42_2 C41_2 1_555 1_555
H34_2 C42_2 1_555 1_555
C43_2 C41_2 1_555 1_555
H35_2 C43_2 1_555 1_555
C44_2 C42_2 1_555 1_555
H36_2 C44_2 1_555 1_555
C45_2 C43_2 1_555 1_555
H37_2 C45_2 1_555 1_555
C46_2 C44_2 1_555 1_555
C47_2 C46_2 1_555 1_555
C112_2 H104_2 1_555 1_555
H105_2 C112_2 1_555 1_555
H106_2 C113_2 1_555 1_555
H107_2 C113_2 1_555 1_555
C114_2 C112_2 1_555 1_555
C115_2 C114_2 1_555 1_555
H108_2 C115_2 1_555 1_555
C116_2 C114_2 1_555 1_555
H109_2 C116_2 1_555 1_555
C117_2 N16_2 1_555 1_555
H110_2 C117_2 1_555 1_555
C118_2 N16_2 1_555 1_555
H111_2 C118_2 1_555 1_555
N17 Cd8 1_555 1_555
N20 Cd8 1_555 1_555
C45_2 C46_2 1_555 1_555
C112_2 C113_2 1_555 1_555
C115_2 C117_2 1_555 1_555
C116_2 C118_2 1_555 1_555
N19 C99_2 1_555 1_555
H84_2 C92_2 1_555 1_555
C94_2 C93_2 1_555 1_555
H85_2 C94_2 1_555 1_555
H86_2 C94_2 1_555 1_555
C95_2 C94_2 1_555 1_555
C96_2 C95_2 1_555 1_555
C97_2 C96_2 1_555 1_555
H89_2 C97_2 1_555 1_555
C98_2 C96_2 1_555 1_555
H90_2 C98_2 1_555 1_555
C99_2 C97_2 1_555 1_555
H91_2 C99_2 1_555 1_555
C124_2 N19 1_555 1_555
H116_2 C124_2 1_555 1_555
C92_2 C93_2 1_555 1_555
C98_2 C124_2 1_555 1_555
N18 C75_2 1_555 1_555
N20 C119_2 1_555 1_555
H61_2 C70_2 1_555 1_555
C71_2 C70_2 1_555 1_555
H63_2 C71_2 1_555 1_555
H64_2 C71_2 1_555 1_555
C72_2 C71_2 1_555 1_555
C73_2 C72_2 1_555 1_555
C74_2 C72_2 1_555 1_555
H66_2 C74_2 1_555 1_555
C75_2 C73_2 1_555 1_555
H67_2 C75_2 1_555 1_555
C76_2 N18 1_555 1_555
H68_2 C76_2 1_555 1_555
H83_2 C91_2 1_555 1_555
H93_2 C101_2 1_555 1_555
H94_2 C102_2 1_555 1_555
C103_2 C101_2 1_555 1_555
H95_2 C103_2 1_555 1_555
C104_2 C102_2 1_555 1_555
C105_2 C104_2 1_555 1_555
H96_2 C105_2 1_555 1_555
H97_2 C105_2 1_555 1_555
C106_2 C105_2 1_555 1_555
H98_2 C106_2 1_555 1_555
H99_2 C106_2 1_555 1_555
C119_2 H112_2 1_555 1_555
C120_2 C119_2 1_555 1_555
H113_2 C120_2 1_555 1_555
C121_2 N20 1_555 1_555
H114_2 C121_2 1_555 1_555
C122_2 C121_2 1_555 1_555
H115_2 C122_2 1_555 1_555
C123_2 C106_2 1_555 1_555
C74_2 C76_2 1_555 1_555
C103_2 C104_2 1_555 1_555
C120_2 C123_2 1_555 1_555
C122_2 C123_2 1_555 1_555
N17 C63_2 1_555 1_555
H47_2 C55_2 1_555 1_555
H48_2 C56_2 1_555 1_555
C57_2 C55_2 1_555 1_555
C58_2 C57_2 1_555 1_555
H49_2 C58_2 1_555 1_555
H50_2 C58_2 1_555 1_555
C59_2 C58_2 1_555 1_555
H51_2 C59_2 1_555 1_555
H52_2 C59_2 1_555 1_555
C60_2 C59_2 1_555 1_555
C61_2 C60_2 1_555 1_555
H53_2 C61_2 1_555 1_555
C62_2 C60_2 1_555 1_555
H54_2 C62_2 1_555 1_555
C63_2 C61_2 1_555 1_555
H55_2 C63_2 1_555 1_555
C64_2 N17 1_555 1_555
H56_2 C64_2 1_555 1_555
H58_2 C66_2 1_555 1_555
H59_2 C67_2 1_555 1_555
C68_2 C66_2 1_555 1_555
H60_2 C68_2 1_555 1_555
C69_2 C67_2 1_555 1_555
C56_2 C57_2 1_555 1_555
C62_2 C64_2 1_555 1_555
C68_2 C69_2 1_555 1_555
C48 N4 1_555 1_555
C49 C48 1_555 1_555
H40 C49 1_555 1_555
H41 C49 1_555 1_555
C50 C49 1_555 1_555
H42 C50 1_555 1_555
H43 C50 1_555 1_555
C51 N4 1_555 1_555
H44 C51 1_555 1_555
C50 C51 1_555 1_555
C48_2 N4_2 1_555 1_555
H42_2 C50_2 1_555 1_555
H43_2 C50_2 1_555 1_555
C51_2 N4_2 1_555 1_555
H44_2 C51_2 1_555 1_555
C50_2 C51_2 1_555 1_555
H40_2 C49_2 1_555 1_555
H41_2 C49_2 1_555 1_555
Cd2_2 O4_2 1_555 1_555
O3_2 C8_2 1_555 1_555
O4_2 C13_2 1_555 1_555
O5_2 Cd2_2 1_555 1_555
O7_2 Cd2_2 1_555 1_555
N1_2 C8_2 1_555 1_555
N11_2 Cd2_2 1_555 1_555
N13_2 Cd2_2 1_555 1_555
N15_2 Cd2_2 1_555 1_555
C2_2 C1_2 1_555 1_555
C3_2 C2_2 1_555 1_555
H1_2 C3_2 1_555 1_555
C4_2 C2_2 1_555 1_555
H2_2 C4_2 1_555 1_555
C5_2 C3_2 1_555 1_555
H3_2 C5_2 1_555 1_555
C6_2 C4_2 1_555 1_555
H4_2 C6_2 1_555 1_555
C7_2 C5_2 1_555 1_555
C8_2 C7_2 1_555 1_555
C9_2 N1_2 1_555 1_555
H5_2 C9_2 1_555 1_555
H6_2 C9_2 1_555 1_555
C10_2 C9_2 1_555 1_555
H7_2 C10_2 1_555 1_555
H8_2 C10_2 1_555 1_555
C11_2 C10_2 1_555 1_555
H9_2 C11_2 1_555 1_555
H10_2 C11_2 1_555 1_555
C12_2 N1_2 1_555 1_555
H11_2 C12_2 1_555 1_555
C13_2 O5_2 1_555 1_555
C89_2 N11_2 1_555 1_555
H81_2 C89_2 1_555 1_555
C100_2 N13_2 1_555 1_555
H92_2 C100_2 1_555 1_555
C108_2 N15_2 1_555 1_555
H101_2 C108_2 1_555 1_555
C6_2 C7_2 1_555 1_555
C11_2 C12_2 1_555 1_555
C12_2 C13_2 1_555 1_555

#END
