
###############################################################################
#
# This file contains modified crystal structure data generated from the
# MOF subset of the Cambridge Structural Database (CSD) v543 
# hosted by the Cambridge Crystallographic Data Centre (CCDC).
#
# This work is licensed under the Creative Commons
# Attribution-NonCommercial-ShareAlike 4.0 International License.
# To view a copy of this license, visit
# http://creativecommons.org/licenses/by-nc-sa/4.0/
# or send a letter to
# Creative Commons, PO Box 1866, Mountain View, CA 94042, USA.
#
# CIF created using the CSD Python API on 29 September 2022
# The structure has been converted into the P1 space group
# The structure has a 3D framework
# The original CSD entry MARDAM is in the tetragonal crystal system
# The framework has been calculated to contain at least 10.0% void space
# The void calculation uses a probe of radius 1.32A, grid spacing 0.4
# The framework is charged, counterions have been retained in the structure
# H atom positions have been added when not included in the experimental data
# Generated hydrogen atom positions removed from atoms on special positions
#
###############################################################################

data_MARDAM
_chemical_formula_moiety         '(C412 H480 Co28 N192 O192 8+)n'
_symmetry_cell_setting           triclinic
_symmetry_space_group_name_H-M   'P 1'
_symmetry_Int_Tables_number      1
_space_group_name_Hall           'P 1'
loop_
_symmetry_equiv_pos_site_id
_symmetry_equiv_pos_as_xyz
1 x,y,z
_cell_length_a                   31.7755(7)
_cell_length_b                   31.7755(7)
_cell_length_c                   16.0824(5)
_cell_angle_alpha                90
_cell_angle_beta                 90
_cell_angle_gamma                90
_cell_volume                     16238.1
loop_
_atom_site_label
_atom_site_type_symbol
_atom_site_fract_x
_atom_site_fract_y
_atom_site_fract_z
Co5 Co 0.5000 -0.0000 0.0000
Co5_2 Co 0.5000 1.0000 0.0000
C15 C 0.20410(19) 0.31663(19) 0.9584(4)
H13 H 0.1948 0.3412 0.9841
C16 C 0.22401(18) 0.25302(19) 0.9381(4)
H14 H 0.2310 0.2249 0.9468
N4 N 0.20999(15) 0.27943(15) 0.9972(3)
N5 N 0.22644(14) 0.27229(14) 0.8674(3)
N6 N 0.21318(15) 0.31318(15) 0.8809(3)
Co3 Co 0.2500 0.2500 0.7500
Co7 Co 0.20673(3) 0.36085(2) 0.78867(5)
C1 C 0.29838(19) 0.3746(2) 0.7313(4)
H1 H 0.2962 0.4036 0.7372
C2 C 0.32312(19) 0.31314(18) 0.7060(4)
H2 H 0.3411 0.2914 0.6910
C3 C 0.3726(2) 0.37255(19) 0.6768(4)
C4 C 0.3958(2) 0.3532(2) 0.6174(4)
H3 H 0.3864 0.3282 0.5936
C5 C 0.3854(2) 0.4100(2) 0.7116(4)
H4 H 0.3692 0.4233 0.7519
C6 C 0.4336(2) 0.3706(2) 0.5922(4)
H5 H 0.4498 0.3568 0.5523
C7 C 0.4231(2) 0.4274(2) 0.6852(4)
H6 H 0.4320 0.4527 0.7083
C8 C 0.4477(2) 0.4084(2) 0.6259(4)
C9 C 0.4885(2) 0.4278(2) 0.5944(4)
H7 H 0.4945 0.4531 0.6260
H8 H 0.5114 0.4081 0.6037
C10 C 0.4865(2) 0.4386(2) 0.5034(4)
C11 C 0.5139(2) 0.4210(3) 0.4478(5)
H9 H 0.5355 0.4039 0.4671
C12 C 0.4557(2) 0.4648(2) 0.4745(4)
H10 H 0.4375 0.4774 0.5123
C13 C 0.5099(2) 0.4282(2) 0.3631(4)
H11 H 0.5284 0.4159 0.3255
C14 C 0.4508(2) 0.4731(2) 0.3916(4)
H12 H 0.4298 0.4911 0.3730
C15_2 C 0.43337(19) 0.45410(19) 0.2084(4)
H13_2 H 0.4088 0.4448 0.2341
C16_2 C 0.49698(19) 0.47401(18) 0.1881(4)
H14_2 H 0.5251 0.4810 0.1968
C17 C 0.4782(2) 0.4537(2) 0.3359(4)
C18 C 0.14815(19) 0.32158(18) 0.6604(4)
H15 H 0.1322 0.3461 0.6576
C19 C 0.17061(18) 0.25860(19) 0.6401(4)
H16 H 0.1732 0.2311 0.6210
C20 C 0.10465(17) 0.27686(18) 0.5645(4)
C21 C 0.10621(19) 0.24230(19) 0.5125(4)
H17 H 0.1297 0.2249 0.5118
C22 C 0.06962(19) 0.30302(19) 0.5652(4)
H18 H 0.0683 0.3261 0.6008
C23 C 0.07239(18) 0.23415(19) 0.4618(4)
H19 H 0.0729 0.2105 0.4278
C24 C 0.0368(2) 0.2941(2) 0.5120(4)
H20 H 0.0134 0.3117 0.5115
C25 C 0.03768(18) 0.26017(19) 0.4600(4)
C26 C 0.0000 0.2500 0.4053(6)
N1 N 0.33317(15) 0.35424(15) 0.7024(3)
N2 N 0.26875(15) 0.34801(15) 0.7496(3)
N3 N 0.28484(15) 0.30777(15) 0.7333(3)
N4_2 N 0.47057(15) 0.45999(15) 0.2472(3)
N5_2 N 0.47771(14) 0.47644(14) 0.1174(3)
N6_2 N 0.43682(15) 0.46318(15) 0.1309(3)
N7 N 0.13902(14) 0.28494(14) 0.6191(3)
N8 N 0.19709(15) 0.27675(14) 0.6908(3)
N9 N 0.18222(15) 0.31718(14) 0.7039(3)
O1 O 0.14364(13) 0.37380(13) 0.8254(3)
O2 O 0.22657(15) 0.40558(15) 0.8747(3)
O3 O 0.20202(15) 0.40875(14) 0.6993(3)
Co3_2 Co 0.5000 0.5000 0.0000
Co6 Co 0.29327(3) 0.13915(2) 0.71133(5)
Co7_2 Co 0.38915(2) 0.45673(3) 0.03867(5)
C27 C 0.20162(19) 0.1254(2) 0.7687(4)
H22 H 0.2038 0.0964 0.7628
C28 C 0.17688(19) 0.18686(18) 0.7940(4)
H23 H 0.1589 0.2086 0.8090
C29 C 0.1274(2) 0.12745(19) 0.8232(4)
C30 C 0.1042(2) 0.1468(2) 0.8826(4)
H24 H 0.1136 0.1718 0.9064
C31 C 0.1146(2) 0.0900(2) 0.7884(4)
H25 H 0.1308 0.0767 0.7481
C32 C 0.0664(2) 0.1294(2) 0.9078(4)
H26 H 0.0502 0.1432 0.9477
C33 C 0.0769(2) 0.0726(2) 0.8148(4)
H27 H 0.0680 0.0473 0.7917
C34 C 0.0523(2) 0.0916(2) 0.8741(4)
C35 C 0.0115(2) 0.0722(2) 0.9056(4)
H28 H 0.0055 0.0469 0.8740
C36 C 0.0135(2) 0.0614(2) 0.9966(4)
H31 H 0.0625 0.0226 0.9877
H42 H 0.0064 0.2261 0.3700
N10 N 0.16683(15) 0.14576(15) 0.7976(3)
N11 N 0.23125(15) 0.15199(15) 0.7504(3)
N12 N 0.21516(15) 0.19223(15) 0.7667(3)
N16 N 0.27356(14) 0.22771(14) 0.6326(3)
N19 N 0.28682(15) 0.18682(15) 0.6191(3)
N22 N 0.30291(15) 0.22325(14) 0.8092(3)
N24 N 0.31778(15) 0.18282(14) 0.7961(3)
O4 O 0.35636(13) 0.12620(13) 0.6746(3)
O5 O 0.27343(15) 0.09442(15) 0.6253(3)
O6 O 0.29798(15) 0.09125(14) 0.8007(3)
C26_2 C 1.0000 0.2500 0.4053(6)
H21 H 0.9936 0.2739 0.3700
Co4 Co 0.7500 0.2500 0.7500
Co8 Co 0.79327(3) 0.13915(2) 0.78867(5)
H29 H 0.9886 0.0919 0.8963
C44 C 0.85185(19) 0.17842(18) 0.6604(4)
H36 H 0.8678 0.1539 0.6576
C45 C 0.82939(18) 0.24140(19) 0.6401(4)
H37 H 0.8268 0.2689 0.6210
C46 C 0.89535(17) 0.22314(18) 0.5645(4)
C47 C 0.89379(19) 0.25770(19) 0.5125(4)
H38 H 0.8703 0.2751 0.5118
C48 C 0.93038(19) 0.19698(19) 0.5652(4)
H39 H 0.9317 0.1739 0.6008
C49 C 0.92761(18) 0.26585(19) 0.4618(4)
H40 H 0.9271 0.2895 0.4278
C50 C 0.9632(2) 0.2059(2) 0.5120(4)
H41 H 0.9866 0.1883 0.5115
C51 C 0.96232(18) 0.23983(19) 0.4600(4)
N20 N 0.86098(14) 0.21506(14) 0.6191(3)
N21 N 0.80291(15) 0.22325(14) 0.6908(3)
N23 N 0.81778(15) 0.18282(14) 0.7039(3)
H4_2 H 0.3267 0.6192 0.0019
O1_2 O 0.37620(13) 0.39364(13) 0.0754(3)
O2_2 O 0.34442(15) 0.47657(15) 0.1247(3)
Co8_2 Co 0.61085(2) 0.04327(3) 0.03867(5)
Co9 Co 0.70673(3) 0.36085(2) 0.71133(5)
C27_2 C 0.6246(2) 0.45162(19) 0.0187(4)
H22_2 H 0.6536 0.4538 0.0128
C28_2 C 0.56314(18) 0.42688(19) 0.0440(4)
H23_2 H 0.5414 0.4089 0.0590
C29_2 C 0.62255(19) 0.3774(2) 0.0732(4)
C30_2 C 0.6032(2) 0.3542(2) 0.1326(4)
H24_2 H 0.5782 0.3636 0.1564
C31_2 C 0.6600(2) 0.3646(2) 0.0384(4)
C32_2 C 0.6206(2) 0.3164(2) 0.1578(4)
H26_2 H 0.6068 0.3002 0.1977
C33_2 C 0.6774(2) 0.3269(2) 0.0648(4)
H27_2 H 0.7027 0.3180 0.0417
C34_2 C 0.6584(2) 0.3023(2) 0.1241(4)
C35_2 C 0.6778(2) 0.2615(2) 0.1556(4)
H28_2 H 0.7031 0.2555 0.1240
H29_2 H 0.6581 0.2386 0.1463
C36_2 C 0.6886(2) 0.2635(2) 0.2466(4)
C37 C 0.6710(3) 0.2361(2) 0.3022(5)
H30 H 0.6539 0.2145 0.2829
C38 C 0.7148(2) 0.2943(2) 0.2755(4)
H31_2 H 0.7274 0.3125 0.2377
C39 C 0.6782(2) 0.2401(2) 0.3869(4)
H32 H 0.6659 0.2216 0.4245
C40 C 0.7231(2) 0.2992(2) 0.3584(4)
H33 H 0.7411 0.3202 0.3770
C41 C 0.70410(19) 0.31663(19) 0.5416(4)
H34 H 0.6948 0.3412 0.5159
C42 C 0.72401(18) 0.25302(19) 0.5619(4)
H35 H 0.7310 0.2249 0.5532
C43 C 0.7037(2) 0.2718(2) 0.4141(4)
N10_2 N 0.60424(15) 0.41683(15) 0.0476(3)
N11_2 N 0.59801(15) 0.48125(15) 0.0004(3)
N12_2 N 0.55777(15) 0.46516(15) 0.0167(3)
N13 N 0.70999(15) 0.27943(15) 0.5028(3)
N14 N 0.72644(14) 0.27229(14) 0.6326(3)
N17 N 0.71318(15) 0.31318(15) 0.6191(3)
N22_2 N 0.52675(14) 0.55291(15) 0.0592(3)
N24_2 N 0.56718(14) 0.56778(15) 0.0461(3)
O6_2 O 0.65875(14) 0.54798(15) 0.0507(3)
H29_3 H 0.0114 0.4081 0.8963
C1_2 C 0.70162(19) 0.1254(2) 0.7313(4)
H1_2 H 0.7038 0.0964 0.7372
C2_2 C 0.67688(19) 0.18686(18) 0.7060(4)
H2_2 H 0.6589 0.2086 0.6910
C3_2 C 0.6274(2) 0.12745(19) 0.6768(4)
C4_2 C 0.6042(2) 0.1468(2) 0.6174(4)
H3_2 H 0.6136 0.1718 0.5936
C5_2 C 0.6146(2) 0.0900(2) 0.7116(4)
H4_3 H 0.6308 0.0767 0.7519
C6_2 C 0.5664(2) 0.1294(2) 0.5922(4)
H5_2 H 0.5502 0.1432 0.5523
C7_2 C 0.5769(2) 0.0726(2) 0.6852(4)
H6_2 H 0.5680 0.0473 0.7083
C8_2 C 0.5523(2) 0.0916(2) 0.6259(4)
C9_2 C 0.5115(2) 0.0722(2) 0.5944(4)
H7_2 H 0.5055 0.0469 0.6260
H8_2 H 0.4886 0.0919 0.6037
C10_2 C 0.5135(2) 0.0614(2) 0.5034(4)
C11_2 C 0.4861(2) 0.0790(3) 0.4478(5)
H9_2 H 0.4645 0.0961 0.4671
C12_2 C 0.5443(2) 0.0352(2) 0.4745(4)
H10_2 H 0.5625 0.0226 0.5123
C13_2 C 0.4901(2) 0.0718(2) 0.3631(4)
H11_2 H 0.4716 0.0841 0.3255
C14_2 C 0.5492(2) 0.0269(2) 0.3916(4)
H12_2 H 0.5702 0.0089 0.3730
C15_3 C 0.56663(19) 0.04590(19) 0.2084(4)
H13_3 H 0.5912 0.0552 0.2341
C16_3 C 0.50302(19) 0.02599(18) 0.1881(4)
H14_3 H 0.4749 0.0190 0.1968
C17_2 C 0.5218(2) 0.0463(2) 0.3359(4)
N1_2 N 0.66683(15) 0.14576(15) 0.7024(3)
N2_2 N 0.73125(15) 0.15199(15) 0.7496(3)
N3_2 N 0.71516(15) 0.19223(15) 0.7333(3)
N4_3 N 0.52943(15) 0.04001(15) 0.2472(3)
N5_3 N 0.52229(14) 0.02356(14) 0.1174(3)
N6_3 N 0.56318(15) 0.03682(15) 0.1309(3)
O1_3 O 0.85636(13) 0.12620(13) 0.8254(3)
O2_3 O 0.77343(15) 0.09442(15) 0.8747(3)
O3_2 O 0.79798(15) 0.09125(14) 0.6993(3)
C27_3 C 0.79838(19) 0.3746(2) 0.7687(4)
H22_3 H 0.7962 0.4036 0.7628
C28_3 C 0.82312(19) 0.31314(18) 0.7940(4)
H23_3 H 0.8411 0.2914 0.8090
C29_3 C 0.8726(2) 0.37255(19) 0.8232(4)
C30_3 C 0.8958(2) 0.3532(2) 0.8826(4)
H24_3 H 0.8864 0.3282 0.9064
C31_3 C 0.8854(2) 0.4100(2) 0.7884(4)
H25_2 H 0.8692 0.4233 0.7481
C32_3 C 0.9336(2) 0.3706(2) 0.9078(4)
H26_3 H 0.9498 0.3568 0.9477
C33_3 C 0.9231(2) 0.4274(2) 0.8148(4)
H27_3 H 0.9320 0.4527 0.7917
C34_3 C 0.9477(2) 0.4084(2) 0.8741(4)
C35_3 C 0.9885(2) 0.4278(2) 0.9056(4)
H28_3 H 0.9945 0.4531 0.8740
C36_3 C 0.9865(2) 0.4386(2) 0.9966(4)
H31_3 H 0.9375 0.4774 0.9877
N10_3 N 0.83317(15) 0.35424(15) 0.7976(3)
N11_3 N 0.76875(15) 0.34801(15) 0.7504(3)
N12_3 N 0.78484(15) 0.30777(15) 0.7667(3)
N15 N 0.77356(14) 0.22771(14) 0.8674(3)
N18 N 0.78682(15) 0.18682(15) 0.8809(3)
N22_3 N 0.69709(15) 0.27675(14) 0.8092(3)
N24_3 N 0.68222(15) 0.31718(14) 0.7961(3)
O4_2 O 0.64364(13) 0.37380(13) 0.6746(3)
O5_2 O 0.72657(15) 0.40558(15) 0.6253(3)
O6_3 O 0.70202(15) 0.40875(14) 0.8007(3)
O1_4 O 0.62380(13) 0.10636(13) 0.0754(3)
O2_4 O 0.65558(15) 0.02343(15) 0.1247(3)
C27_4 C 0.3754(2) 0.04838(19) 0.0187(4)
H22_4 H 0.3464 0.0462 0.0128
C28_4 C 0.43686(18) 0.07312(19) 0.0440(4)
H23_4 H 0.4586 0.0911 0.0590
C29_4 C 0.37745(19) 0.1226(2) 0.0732(4)
C30_4 C 0.3968(2) 0.1458(2) 0.1326(4)
H24_4 H 0.4218 0.1364 0.1564
C31_4 C 0.3400(2) 0.1354(2) 0.0384(4)
C32_4 C 0.3794(2) 0.1836(2) 0.1578(4)
H26_4 H 0.3932 0.1998 0.1977
C33_4 C 0.3226(2) 0.1731(2) 0.0648(4)
H27_4 H 0.2973 0.1820 0.0417
C34_4 C 0.3416(2) 0.1977(2) 0.1241(4)
C35_4 C 0.3222(2) 0.2385(2) 0.1556(4)
H28_4 H 0.2969 0.2445 0.1240
H29_4 H 0.3419 0.2614 0.1463
C36_4 C 0.3114(2) 0.2365(2) 0.2466(4)
C37_2 C 0.3290(3) 0.2639(2) 0.3022(5)
H30_2 H 0.3461 0.2855 0.2829
C38_2 C 0.2852(2) 0.2057(2) 0.2755(4)
H31_4 H 0.2726 0.1875 0.2377
C39_2 C 0.3218(2) 0.2599(2) 0.3869(4)
H32_2 H 0.3341 0.2784 0.4245
C40_2 C 0.2769(2) 0.2008(2) 0.3584(4)
H33_2 H 0.2589 0.1798 0.3770
C41_2 C 0.29590(19) 0.18337(19) 0.5416(4)
H34_2 H 0.3052 0.1588 0.5159
C42_2 C 0.27599(18) 0.24698(19) 0.5619(4)
H35_2 H 0.2690 0.2751 0.5532
C43_2 C 0.2963(2) 0.2282(2) 0.4141(4)
N10_4 N 0.39576(15) 0.08317(15) 0.0476(3)
N11_4 N 0.40199(15) 0.01875(15) 0.0004(3)
N12_4 N 0.44223(15) 0.03484(15) 0.0167(3)
N13_2 N 0.29001(15) 0.22057(15) 0.5028(3)
H4_4 H 0.6733 0.8808 0.0019
N22_4 N 0.47325(14) 0.94709(15) 0.0592(3)
N24_4 N 0.43282(14) 0.93222(15) 0.0461(3)
O6_4 O 0.34125(14) 0.95202(15) 0.0507(3)
C15_4 C 0.79590(19) 0.18337(19) 0.9584(4)
H13_4 H 0.8052 0.1588 0.9841
C16_4 C 0.77599(18) 0.24698(19) 0.9381(4)
H14_4 H 0.7690 0.2751 0.9468
N4_4 N 0.79001(15) 0.22057(15) 0.9972(3)
C18_2 C 0.64815(19) 0.32158(18) 0.8396(4)
H15_2 H 0.6322 0.3461 0.8424
C19_2 C 0.67061(18) 0.25860(19) 0.8599(4)
H16_2 H 0.6732 0.2311 0.8790
C20_2 C 0.60465(17) 0.27686(18) 0.9355(4)
C21_2 C 0.60621(19) 0.24230(19) 0.9875(4)
H17_2 H 0.6297 0.2249 0.9882
C22_2 C 0.56962(19) 0.30302(19) 0.9348(4)
H18_2 H 0.5683 0.3261 0.8992
C24_2 C 0.5368(2) 0.2941(2) 0.9880(4)
H20_2 H 0.5134 0.3117 0.9885
N7_2 N 0.63902(14) 0.28494(14) 0.8809(3)
C44_2 C 0.35185(19) 0.17842(18) 0.8396(4)
H36_2 H 0.3678 0.1539 0.8424
C45_2 C 0.32939(18) 0.24140(19) 0.8599(4)
H37_2 H 0.3268 0.2689 0.8790
C46_2 C 0.39535(17) 0.22314(18) 0.9355(4)
C47_2 C 0.39379(19) 0.25770(19) 0.9875(4)
H38_2 H 0.3703 0.2751 0.9882
C48_2 C 0.43038(19) 0.19698(19) 0.9348(4)
H39_2 H 0.4317 0.1739 0.8992
C50_2 C 0.4632(2) 0.2059(2) 0.9880(4)
H41_2 H 0.4866 0.1883 0.9885
N20_2 N 0.36098(14) 0.21506(14) 0.8809(3)
C18_3 C 0.57158(18) 0.60185(19) 0.0896(4)
H15_3 H 0.5961 0.6178 0.0924
C19_3 C 0.50860(19) 0.57939(18) 0.1099(4)
H16_3 H 0.4811 0.5768 0.1290
C20_3 C 0.52686(18) 0.64535(17) 0.1855(4)
C21_3 C 0.49230(19) 0.64379(19) 0.2375(4)
H17_3 H 0.4749 0.6203 0.2382
C22_3 C 0.55302(19) 0.68038(19) 0.1848(4)
H18_3 H 0.5761 0.6817 0.1492
C23_2 C 0.48415(19) 0.67761(18) 0.2882(4)
H19_2 H 0.4605 0.6771 0.3222
C24_3 C 0.5441(2) 0.7132(2) 0.2380(4)
H20_3 H 0.5617 0.7366 0.2385
C25_2 C 0.51017(19) 0.71232(18) 0.2900(4)
C26_3 C 0.5000 0.7500 0.3447(6)
H21_2 H 0.5239 0.7564 0.3800
N7_3 N 0.53494(14) 0.61098(14) 0.1309(3)
C44_3 C 0.42842(18) 0.89815(19) 0.0896(4)
H36_3 H 0.4039 0.8822 0.0924
C45_3 C 0.49140(19) 0.92061(18) 0.1099(4)
H37_3 H 0.5189 0.9232 0.1290
C46_3 C 0.47314(18) 0.85465(17) 0.1855(4)
C47_3 C 0.50770(19) 0.85621(19) 0.2375(4)
H38_3 H 0.5251 0.8797 0.2382
C48_3 C 0.44698(19) 0.81962(19) 0.1848(4)
H39_3 H 0.4239 0.8183 0.1492
C49_2 C 0.51585(19) 0.82239(18) 0.2882(4)
H40_2 H 0.5395 0.8229 0.3222
C50_3 C 0.4559(2) 0.7868(2) 0.2380(4)
H41_3 H 0.4383 0.7634 0.2385
C51_2 C 0.48983(19) 0.78768(18) 0.2900(4)
H42_2 H 0.4761 0.7436 0.3800
N20_3 N 0.46506(14) 0.88902(14) 0.1309(3)
Co5_3 Co 0.5000 -0.0000 1.0000
Co1 Co 0.2500 0.7500 0.2500
Co2 Co 0.29327(3) 0.63915(2) 0.28867(5)
C1_3 C 0.20162(19) 0.6254(2) 0.2313(4)
H1_3 H 0.2038 0.5964 0.2372
C2_3 C 0.17688(19) 0.68686(18) 0.2060(4)
H2_3 H 0.1589 0.7086 0.1910
C3_3 C 0.1274(2) 0.62745(19) 0.1768(4)
C4_3 C 0.1042(2) 0.6468(2) 0.1174(4)
H3_3 H 0.1136 0.6718 0.0936
C5_3 C 0.1146(2) 0.5900(2) 0.2116(4)
H4_5 H 0.1308 0.5767 0.2519
C6_3 C 0.0664(2) 0.6294(2) 0.0922(4)
H5_3 H 0.0502 0.6432 0.0523
C7_3 C 0.0769(2) 0.5726(2) 0.1852(4)
H6_3 H 0.0680 0.5473 0.2083
C8_3 C 0.0523(2) 0.5916(2) 0.1259(4)
C9_3 C 0.0115(2) 0.5722(2) 0.0944(4)
H7_3 H 0.0055 0.5469 0.1260
C10_3 C 0.0135(2) 0.5614(2) 0.0034(4)
H10_3 H 0.0625 0.5226 0.0123
C18_4 C 0.35185(19) 0.67842(18) 0.1604(4)
H15_4 H 0.3678 0.6539 0.1576
C19_4 C 0.32939(18) 0.74140(19) 0.1401(4)
H16_4 H 0.3268 0.7689 0.1210
C20_4 C 0.39535(17) 0.72314(18) 0.0645(4)
C21_4 C 0.39379(19) 0.75770(19) 0.0125(4)
H17_4 H 0.3703 0.7751 0.0118
C22_4 C 0.43038(19) 0.69698(19) 0.0652(4)
H18_4 H 0.4317 0.6739 0.1008
C24_4 C 0.4632(2) 0.7059(2) 0.0120(4)
H20_4 H 0.4866 0.6883 0.0115
N1_3 N 0.16683(15) 0.64576(15) 0.2024(3)
N2_3 N 0.23125(15) 0.65199(15) 0.2496(3)
N3_3 N 0.21516(15) 0.69223(15) 0.2333(3)
N7_4 N 0.36098(14) 0.71506(14) 0.1191(3)
N8_2 N 0.30291(15) 0.72325(14) 0.1908(3)
N9_2 N 0.31778(15) 0.68282(14) 0.2039(3)
O1_5 O 0.35636(13) 0.62620(13) 0.3254(3)
O2_5 O 0.27343(15) 0.59442(15) 0.3747(3)
O3_3 O 0.29798(15) 0.59125(14) 0.1993(3)
Co4_2 Co 0.7500 0.7500 0.2500
Co5_4 Co 0.5000 1.0000 1.0000
Co6_2 Co 0.20673(3) 0.86085(2) 0.21133(5)
Co8_3 Co 0.70673(3) 0.86085(2) 0.28867(5)
Co9_2 Co 0.38915(2) 0.95673(3) 0.96133(5)
C27_5 C 0.29838(19) 0.8746(2) 0.2687(4)
H22_5 H 0.2962 0.9036 0.2628
C28_5 C 0.32312(19) 0.81314(18) 0.2940(4)
H23_5 H 0.3411 0.7914 0.3090
C29_5 C 0.3726(2) 0.87255(19) 0.3232(4)
C30_5 C 0.3958(2) 0.8532(2) 0.3826(4)
H24_5 H 0.3864 0.8282 0.4064
C31_5 C 0.3854(2) 0.9100(2) 0.2884(4)
H25_3 H 0.3692 0.9233 0.2481
C32_5 C 0.4336(2) 0.8706(2) 0.4078(4)
H26_5 H 0.4498 0.8568 0.4477
C33_5 C 0.4231(2) 0.9274(2) 0.3148(4)
H27_5 H 0.4320 0.9527 0.2917
C34_5 C 0.4477(2) 0.9084(2) 0.3741(4)
C35_5 C 0.4885(2) 0.9278(2) 0.4056(4)
H28_5 H 0.4945 0.9531 0.3740
H29_5 H 0.5114 0.9081 0.3963
C36_5 C 0.4865(2) 0.9386(2) 0.4966(4)
C37_3 C 0.5139(2) 0.9210(3) 0.5522(5)
H30_3 H 0.5355 0.9039 0.5329
C38_3 C 0.4557(2) 0.9648(2) 0.5255(4)
H31_5 H 0.4375 0.9774 0.4877
C39_3 C 0.5099(2) 0.9282(2) 0.6369(4)
H32_3 H 0.5284 0.9159 0.6745
C40_3 C 0.4508(2) 0.9731(2) 0.6084(4)
H33_3 H 0.4298 0.9911 0.6270
C41_3 C 0.43337(19) 0.95410(19) 0.7916(4)
H34_3 H 0.4088 0.9448 0.7659
C42_3 C 0.49698(19) 0.97401(18) 0.8119(4)
H35_3 H 0.5251 0.9810 0.8032
C43_3 C 0.4782(2) 0.9537(2) 0.6641(4)
C44_4 C 0.64815(19) 0.82158(18) 0.1604(4)
H36_4 H 0.6322 0.8461 0.1576
C45_4 C 0.67061(18) 0.75860(19) 0.1401(4)
H37_4 H 0.6732 0.7311 0.1210
C46_4 C 0.60465(17) 0.77686(18) 0.0645(4)
C47_4 C 0.60621(19) 0.74230(19) 0.0125(4)
H38_4 H 0.6297 0.7249 0.0118
C48_4 C 0.56962(19) 0.80302(19) 0.0652(4)
H39_4 H 0.5683 0.8261 0.1008
C50_4 C 0.5368(2) 0.7941(2) 0.0120(4)
H41_4 H 0.5134 0.8117 0.0115
N10_5 N 0.33317(15) 0.85424(15) 0.2976(3)
N11_5 N 0.26875(15) 0.84801(15) 0.2504(3)
N12_5 N 0.28484(15) 0.80777(15) 0.2667(3)
N13_3 N 0.47057(15) 0.95999(15) 0.7528(3)
N14_2 N 0.47771(14) 0.97644(14) 0.8826(3)
N15_2 N 0.27356(14) 0.72771(14) 0.3674(3)
N16_2 N 0.22644(14) 0.77229(14) 0.1326(3)
N17_2 N 0.43682(15) 0.96318(15) 0.8691(3)
N18_2 N 0.28682(15) 0.68682(15) 0.3809(3)
N19_2 N 0.21318(15) 0.81318(15) 0.1191(3)
N20_4 N 0.63902(14) 0.78494(14) 0.1191(3)
N21_2 N 0.69709(15) 0.77675(14) 0.1908(3)
N22_5 N 0.19709(15) 0.77675(14) 0.3092(3)
N23_2 N 0.68222(15) 0.81718(14) 0.2039(3)
N24_5 N 0.18222(15) 0.81718(14) 0.2961(3)
O4_3 O 0.14364(13) 0.87380(13) 0.1746(3)
O5_3 O 0.22657(15) 0.90558(15) 0.1253(3)
O6_5 O 0.20202(15) 0.90875(14) 0.3007(3)
H8_3 H 0.9886 0.5919 0.1037
Co9_3 Co 0.79327(3) 0.63915(2) 0.21133(5)
C41_4 C 0.79590(19) 0.68337(19) 0.0416(4)
H34_4 H 0.8052 0.6588 0.0159
C42_4 C 0.77599(18) 0.74698(19) 0.0619(4)
H35_4 H 0.7690 0.7751 0.0532
N13_4 N 0.79001(15) 0.72057(15) 0.0028(3)
N14_3 N 0.77356(14) 0.72771(14) 0.1326(3)
N17_3 N 0.78682(15) 0.68682(15) 0.1191(3)
Co3_3 Co 0.5000 0.5000 1.0000
C1_4 C 0.3754(2) 0.54838(19) 0.9813(4)
H1_4 H 0.3464 0.5462 0.9872
C2_4 C 0.43686(18) 0.57312(19) 0.9560(4)
H2_4 H 0.4586 0.5911 0.9410
C3_4 C 0.37745(19) 0.6226(2) 0.9268(4)
C4_4 C 0.3968(2) 0.6458(2) 0.8674(4)
H3_4 H 0.4218 0.6364 0.8436
C5_4 C 0.3400(2) 0.6354(2) 0.9616(4)
C6_4 C 0.3794(2) 0.6836(2) 0.8422(4)
H5_4 H 0.3932 0.6998 0.8023
C7_4 C 0.3226(2) 0.6731(2) 0.9352(4)
H6_4 H 0.2973 0.6820 0.9583
C8_4 C 0.3416(2) 0.6977(2) 0.8759(4)
C9_4 C 0.3222(2) 0.7385(2) 0.8444(4)
H7_4 H 0.2969 0.7445 0.8760
H8_4 H 0.3419 0.7614 0.8537
C10_4 C 0.3114(2) 0.7365(2) 0.7534(4)
C11_3 C 0.3290(3) 0.7639(2) 0.6978(5)
H9_3 H 0.3461 0.7855 0.7171
C12_3 C 0.2852(2) 0.7057(2) 0.7245(4)
H10_4 H 0.2726 0.6875 0.7623
C13_3 C 0.3218(2) 0.7599(2) 0.6131(4)
H11_3 H 0.3341 0.7784 0.5755
C14_3 C 0.2769(2) 0.7008(2) 0.6416(4)
H12_3 H 0.2589 0.6798 0.6230
C15_5 C 0.29590(19) 0.68337(19) 0.4584(4)
H13_5 H 0.3052 0.6588 0.4841
C16_5 C 0.27599(18) 0.74698(19) 0.4381(4)
H14_5 H 0.2690 0.7751 0.4468
C17_3 C 0.2963(2) 0.7282(2) 0.5859(4)
C18_5 C 0.42842(18) 0.39815(19) 0.9104(4)
H15_5 H 0.4039 0.3822 0.9076
C19_5 C 0.49140(19) 0.42061(18) 0.8901(4)
H16_5 H 0.5189 0.4232 0.8710
C20_5 C 0.47314(18) 0.35465(17) 0.8145(4)
C21_5 C 0.50770(19) 0.35621(19) 0.7625(4)
H17_5 H 0.5251 0.3797 0.7618
C22_5 C 0.44698(19) 0.31962(19) 0.8152(4)
H18_5 H 0.4239 0.3183 0.8508
C23_3 C 0.51585(19) 0.32239(18) 0.7118(4)
H19_3 H 0.5395 0.3229 0.6778
C24_5 C 0.4559(2) 0.2868(2) 0.7620(4)
H20_5 H 0.4383 0.2634 0.7615
C25_3 C 0.48983(19) 0.28768(18) 0.7100(4)
C26_4 C 0.5000 0.2500 0.6553(6)
H21_3 H 0.4761 0.2436 0.6200
N1_4 N 0.39576(15) 0.58317(15) 0.9524(3)
N2_4 N 0.40199(15) 0.51875(15) 0.9996(3)
N3_4 N 0.44223(15) 0.53484(15) 0.9833(3)
N4_5 N 0.29001(15) 0.72057(15) 0.4972(3)
N7_5 N 0.46506(14) 0.38902(14) 0.8691(3)
N8_3 N 0.47325(14) 0.44709(15) 0.9408(3)
N9_3 N 0.43282(14) 0.43222(15) 0.9539(3)
O3_4 O 0.34125(14) 0.45202(15) 0.9493(3)
Co6_3 Co 0.61085(2) 0.54327(3) 0.96133(5)
H25_4 H 0.6733 0.3808 0.9981
C44_5 C 0.57158(18) 0.10185(19) 0.9104(4)
H36_5 H 0.5961 0.1178 0.9076
C45_5 C 0.50860(19) 0.07939(18) 0.8901(4)
H37_5 H 0.4811 0.0768 0.8710
C46_5 C 0.52686(18) 0.14535(17) 0.8145(4)
C47_5 C 0.49230(19) 0.14379(19) 0.7625(4)
H38_5 H 0.4749 0.1203 0.7618
C48_5 C 0.55302(19) 0.18038(19) 0.8152(4)
H39_5 H 0.5761 0.1817 0.8508
C49_3 C 0.48415(19) 0.17761(18) 0.7118(4)
H40_3 H 0.4605 0.1771 0.6778
C50_5 C 0.5441(2) 0.2132(2) 0.7620(4)
H41_5 H 0.5617 0.2366 0.7615
C51_3 C 0.51017(19) 0.21232(18) 0.7100(4)
H42_3 H 0.5239 0.2564 0.6200
N16_3 N 0.52229(14) 0.52356(14) 0.8826(3)
N19_3 N 0.56318(15) 0.53682(15) 0.8691(3)
N20_5 N 0.53494(14) 0.11098(14) 0.8691(3)
N21_3 N 0.52675(14) 0.05291(15) 0.9408(3)
N23_3 N 0.56718(14) 0.06778(15) 0.9539(3)
O4_4 O 0.62380(13) 0.60636(13) 0.9246(3)
O5_4 O 0.65558(15) 0.52343(15) 0.8753(3)
O3_5 O 0.65875(14) 0.04798(15) 0.9493(3)
H25_5 H 0.3267 0.1192 0.9981
C1_5 C 0.6246(2) 0.95162(19) 0.9813(4)
H1_5 H 0.6536 0.9538 0.9872
C2_5 C 0.56314(18) 0.92688(19) 0.9560(4)
H2_5 H 0.5414 0.9089 0.9410
C3_5 C 0.62255(19) 0.8774(2) 0.9268(4)
C4_5 C 0.6032(2) 0.8542(2) 0.8674(4)
H3_5 H 0.5782 0.8636 0.8436
C5_5 C 0.6600(2) 0.8646(2) 0.9616(4)
C6_5 C 0.6206(2) 0.8164(2) 0.8422(4)
H5_5 H 0.6068 0.8002 0.8023
C7_5 C 0.6774(2) 0.8269(2) 0.9352(4)
H6_5 H 0.7027 0.8180 0.9583
C8_5 C 0.6584(2) 0.8023(2) 0.8759(4)
C9_5 C 0.6778(2) 0.7615(2) 0.8444(4)
H7_5 H 0.7031 0.7555 0.8760
H8_5 H 0.6581 0.7386 0.8537
C10_5 C 0.6886(2) 0.7635(2) 0.7534(4)
C11_4 C 0.6710(3) 0.7361(2) 0.6978(5)
H9_4 H 0.6539 0.7145 0.7171
C12_4 C 0.7148(2) 0.7943(2) 0.7245(4)
H10_5 H 0.7274 0.8125 0.7623
C13_4 C 0.6782(2) 0.7401(2) 0.6131(4)
H11_4 H 0.6659 0.7216 0.5755
C14_4 C 0.7231(2) 0.7992(2) 0.6416(4)
H12_4 H 0.7411 0.8202 0.6230
C15_6 C 0.70410(19) 0.81663(19) 0.4584(4)
H13_6 H 0.6948 0.8412 0.4841
C16_6 C 0.72401(18) 0.75302(19) 0.4381(4)
H14_6 H 0.7310 0.7249 0.4468
C17_4 C 0.7037(2) 0.7718(2) 0.5859(4)
N1_5 N 0.60424(15) 0.91683(15) 0.9524(3)
N2_5 N 0.59801(15) 0.98125(15) 0.9996(3)
N3_5 N 0.55777(15) 0.96516(15) 0.9833(3)
N4_6 N 0.70999(15) 0.77943(15) 0.4972(3)
N5_4 N 0.72644(14) 0.77229(14) 0.3674(3)
N6_4 N 0.71318(15) 0.81318(15) 0.3809(3)
O4_5 O 0.37620(13) 0.89364(13) 0.9246(3)
O5_5 O 0.34442(15) 0.97657(15) 0.8753(3)
H8_6 H 0.0114 0.9081 0.1037
C1_6 C 0.79838(19) 0.8746(2) 0.2313(4)
H1_6 H 0.7962 0.9036 0.2372
C2_6 C 0.82312(19) 0.81314(18) 0.2060(4)
H2_6 H 0.8411 0.7914 0.1910
C3_6 C 0.8726(2) 0.87255(19) 0.1768(4)
C4_6 C 0.8958(2) 0.8532(2) 0.1174(4)
H3_6 H 0.8864 0.8282 0.0936
C5_6 C 0.8854(2) 0.9100(2) 0.2116(4)
H4_6 H 0.8692 0.9233 0.2519
C6_6 C 0.9336(2) 0.8706(2) 0.0922(4)
H5_6 H 0.9498 0.8568 0.0523
C7_6 C 0.9231(2) 0.9274(2) 0.1852(4)
H6_6 H 0.9320 0.9527 0.2083
C8_6 C 0.9477(2) 0.9084(2) 0.1259(4)
C9_6 C 0.9885(2) 0.9278(2) 0.0944(4)
H7_6 H 0.9945 0.9531 0.1260
C10_6 C 0.9865(2) 0.9386(2) 0.0034(4)
H10_6 H 0.9375 0.9774 0.0123
N1_6 N 0.83317(15) 0.85424(15) 0.2024(3)
N2_6 N 0.76875(15) 0.84801(15) 0.2496(3)
N3_6 N 0.78484(15) 0.80777(15) 0.2333(3)
O1_6 O 0.64364(13) 0.87380(13) 0.3254(3)
O2_6 O 0.72657(15) 0.90558(15) 0.3747(3)
O3_6 O 0.70202(15) 0.90875(14) 0.1993(3)
C27_6 C 0.70162(19) 0.6254(2) 0.2687(4)
H22_6 H 0.7038 0.5964 0.2628
C28_6 C 0.67688(19) 0.68686(18) 0.2940(4)
H23_6 H 0.6589 0.7086 0.3090
C29_6 C 0.6274(2) 0.62745(19) 0.3232(4)
C30_6 C 0.6042(2) 0.6468(2) 0.3826(4)
H24_6 H 0.6136 0.6718 0.4064
C31_6 C 0.6146(2) 0.5900(2) 0.2884(4)
H25_6 H 0.6308 0.5767 0.2481
C32_6 C 0.5664(2) 0.6294(2) 0.4078(4)
H26_6 H 0.5502 0.6432 0.4477
C33_6 C 0.5769(2) 0.5726(2) 0.3148(4)
H27_6 H 0.5680 0.5473 0.2917
C34_6 C 0.5523(2) 0.5916(2) 0.3741(4)
C35_6 C 0.5115(2) 0.5722(2) 0.4056(4)
H28_6 H 0.5055 0.5469 0.3740
H29_6 H 0.4886 0.5919 0.3963
C36_6 C 0.5135(2) 0.5614(2) 0.4966(4)
C37_4 C 0.4861(2) 0.5790(3) 0.5522(5)
H30_4 H 0.4645 0.5961 0.5329
C38_4 C 0.5443(2) 0.5352(2) 0.5255(4)
H31_6 H 0.5625 0.5226 0.4877
C39_4 C 0.4901(2) 0.5718(2) 0.6369(4)
H32_4 H 0.4716 0.5841 0.6745
C40_4 C 0.5492(2) 0.5269(2) 0.6084(4)
H33_4 H 0.5702 0.5089 0.6270
C41_5 C 0.56663(19) 0.54590(19) 0.7916(4)
H34_5 H 0.5912 0.5552 0.7659
C42_5 C 0.50302(19) 0.52599(18) 0.8119(4)
H35_5 H 0.4749 0.5190 0.8032
C43_4 C 0.5218(2) 0.5463(2) 0.6641(4)
N10_6 N 0.66683(15) 0.64576(15) 0.2976(3)
N11_6 N 0.73125(15) 0.65199(15) 0.2504(3)
N12_6 N 0.71516(15) 0.69223(15) 0.2667(3)
N13_5 N 0.52943(15) 0.54001(15) 0.7528(3)
N22_6 N 0.80291(15) 0.72325(14) 0.3092(3)
N24_6 N 0.81778(15) 0.68282(14) 0.2961(3)
O4_6 O 0.85636(13) 0.62620(13) 0.1746(3)
O5_6 O 0.77343(15) 0.59442(15) 0.1253(3)
O6_6 O 0.79798(15) 0.59125(14) 0.3007(3)
C41_6 C 0.20410(19) 0.81663(19) 0.0416(4)
H34_6 H 0.1948 0.8412 0.0159
C42_6 C 0.22401(18) 0.75302(19) 0.0619(4)
H35_6 H 0.2310 0.7249 0.0532
N13_6 N 0.20999(15) 0.77943(15) 0.0028(3)
C26_5 C -0.0000 0.7500 0.5947(6)
H21_4 H 0.0064 0.7261 0.6300
C44_6 C 0.14815(19) 0.82158(18) 0.3396(4)
H36_6 H 0.1322 0.8461 0.3424
C45_6 C 0.17061(18) 0.75860(19) 0.3599(4)
H37_6 H 0.1732 0.7311 0.3790
C46_6 C 0.10465(17) 0.77686(18) 0.4355(4)
C47_6 C 0.10621(19) 0.74230(19) 0.4875(4)
H38_6 H 0.1297 0.7249 0.4882
C48_6 C 0.06962(19) 0.80302(19) 0.4348(4)
H39_6 H 0.0683 0.8261 0.3992
C49_4 C 0.07239(18) 0.73415(19) 0.5382(4)
H40_4 H 0.0729 0.7105 0.5722
C50_6 C 0.0368(2) 0.7941(2) 0.4880(4)
H41_6 H 0.0134 0.8117 0.4885
C51_4 C 0.03768(18) 0.76017(19) 0.5400(4)
N20_6 N 0.13902(14) 0.78494(14) 0.3809(3)
C18_6 C 0.85185(19) 0.67842(18) 0.3396(4)
H15_6 H 0.8678 0.6539 0.3424
C19_6 C 0.82939(18) 0.74140(19) 0.3599(4)
H16_6 H 0.8268 0.7689 0.3790
C20_6 C 0.89535(17) 0.72314(18) 0.4355(4)
C21_6 C 0.89379(19) 0.75770(19) 0.4875(4)
H17_6 H 0.8703 0.7751 0.4882
C22_6 C 0.93038(19) 0.69698(19) 0.4348(4)
H18_6 H 0.9317 0.6739 0.3992
C23_4 C 0.92761(18) 0.76585(19) 0.5382(4)
H19_4 H 0.9271 0.7895 0.5722
C24_6 C 0.9632(2) 0.7059(2) 0.4880(4)
H20_6 H 0.9866 0.6883 0.4885
C25_4 C 0.96232(18) 0.73983(19) 0.5400(4)
C26_6 C 1.0000 0.7500 0.5947(6)
N7_6 N 0.86098(14) 0.71506(14) 0.3809(3)
H42_4 H 0.9936 0.7739 0.6300
C12_5 C 0.0443(2) 0.5352(2) 0.9745(4)
C14_5 C 0.0492(2) 0.5269(2) 0.8916(4)
H12_5 H 0.0702 0.5089 0.8730
C15_7 C 0.06663(19) 0.54590(19) 0.7084(4)
H13_7 H 0.0912 0.5552 0.7341
C16_7 C 0.00302(19) 0.52599(18) 0.6881(4)
C17_5 C 0.0218(2) 0.5463(2) 0.8359(4)
C23_5 C 0.42761(18) 0.76585(19) 0.9618(4)
H19_5 H 0.4271 0.7895 0.9278
C25_5 C 0.46232(18) 0.73983(19) 0.9600(4)
C26_7 C 0.5000 0.7500 0.9053(6)
H21_5 H 0.5064 0.7261 0.8700
N4_7 N 0.02943(15) 0.54001(15) 0.7472(3)
N5_5 N 0.02229(14) 0.52356(14) 0.6174(3)
N6_5 N 0.06318(15) 0.53682(15) 0.6309(3)
Co3_4 Co -0.0000 0.5000 0.5000
Co7_3 Co 0.11085(2) 0.54327(3) 0.53867(5)
C49_5 C 0.57239(18) 0.73415(19) 0.9618(4)
H40_5 H 0.5729 0.7105 0.9278
C51_5 C 0.53768(18) 0.76017(19) 0.9600(4)
H42_5 H 0.4936 0.7739 0.8700
C11_5 C 0.9861(2) 0.5790(3) 0.9478(5)
H9_5 H 0.9645 0.5961 0.9671
C13_5 C 0.9901(2) 0.5718(2) 0.8631(4)
H11_5 H 0.9716 0.5841 0.8255
H14_7 H 0.9749 0.5190 0.6968
Co3_5 Co 1.0000 0.5000 0.5000
Co4_3 Co -0.0000 -0.0000 0.5000
C1_7 C 0.1246(2) 0.45162(19) 0.4813(4)
H1_7 H 0.1536 0.4538 0.4872
C2_7 C 0.06314(18) 0.42688(19) 0.4560(4)
H2_7 H 0.0414 0.4089 0.4410
C3_7 C 0.12255(19) 0.3774(2) 0.4268(4)
C4_7 C 0.1032(2) 0.3542(2) 0.3674(4)
H3_7 H 0.0782 0.3636 0.3436
C5_7 C 0.1600(2) 0.3646(2) 0.4616(4)
H4_7 H 0.1733 0.3808 0.5019
C6_7 C 0.1206(2) 0.3164(2) 0.3422(4)
H5_7 H 0.1068 0.3002 0.3023
C7_7 C 0.1774(2) 0.3269(2) 0.4352(4)
H6_7 H 0.2027 0.3180 0.4583
C8_7 C 0.1584(2) 0.3023(2) 0.3759(4)
C9_7 C 0.1778(2) 0.2615(2) 0.3444(4)
H7_7 H 0.2031 0.2555 0.3760
H8_7 H 0.1581 0.2386 0.3537
C10_7 C 0.1886(2) 0.2635(2) 0.2534(4)
C11_6 C 0.1710(3) 0.2361(2) 0.1978(5)
H9_6 H 0.1539 0.2145 0.2171
C12_6 C 0.2148(2) 0.2943(2) 0.2245(4)
H10_7 H 0.2274 0.3125 0.2623
C13_6 C 0.1782(2) 0.2401(2) 0.1131(4)
H11_6 H 0.1659 0.2216 0.0755
C14_6 C 0.2231(2) 0.2992(2) 0.1416(4)
H12_6 H 0.2411 0.3202 0.1230
C17_6 C 0.2037(2) 0.2718(2) 0.0859(4)
C18_7 C 0.07158(18) 0.60185(19) 0.4104(4)
H15_7 H 0.0961 0.6178 0.4076
C19_7 C 0.00860(19) 0.57939(18) 0.3901(4)
C20_7 C 0.02686(18) 0.64535(17) 0.3145(4)
C22_7 C 0.05302(19) 0.68038(19) 0.3152(4)
H18_7 H 0.0761 0.6817 0.3508
C24_7 C 0.0441(2) 0.7132(2) 0.2620(4)
H20_7 H 0.0617 0.7366 0.2615
C25_6 C 0.01017(19) 0.71232(18) 0.2100(4)
C26_8 C -0.0000 0.7500 0.1553(6)
H21_6 H 0.0239 0.7564 0.1200
N1_7 N 0.10424(15) 0.41683(15) 0.4524(3)
N2_7 N 0.09801(15) 0.48125(15) 0.4996(3)
N3_7 N 0.05777(15) 0.46516(15) 0.4833(3)
N7_7 N 0.03494(14) 0.61098(14) 0.3691(3)
N8_4 N 0.02675(14) 0.55291(15) 0.4408(3)
N9_4 N 0.06718(14) 0.56778(15) 0.4539(3)
O1_7 O 0.12380(13) 0.60636(13) 0.5754(3)
O2_7 O 0.15558(15) 0.52343(15) 0.6247(3)
O3_7 O 0.15875(14) 0.54798(15) 0.4493(3)
Co4_4 Co -0.0000 1.0000 0.5000
H37_7 H 0.0189 0.9232 0.3710
C47_7 C 0.00770(19) 0.85621(19) 0.2625(4)
H38_7 H 0.0251 0.8797 0.2618
C49_6 C 0.01585(19) 0.82239(18) 0.2118(4)
H40_6 H 0.0395 0.8229 0.1778
Co4_5 Co 1.0000 -0.0000 0.5000
H16_7 H 0.9811 0.5768 0.3710
C21_7 C 0.99230(19) 0.64379(19) 0.2625(4)
H17_7 H 0.9749 0.6203 0.2618
C23_6 C 0.98415(19) 0.67761(18) 0.2118(4)
H19_6 H 0.9605 0.6771 0.1778
C26_9 C 1.0000 0.7500 0.1553(6)
Co4_6 Co 1.0000 1.0000 0.5000
Co6_4 Co 0.88915(2) 0.45673(3) 0.46133(5)
Co8_4 Co 0.88915(2) 0.95673(3) 0.53867(5)
C27_7 C 0.8754(2) 0.54838(19) 0.5187(4)
H22_7 H 0.8464 0.5462 0.5128
C28_7 C 0.93686(18) 0.57312(19) 0.5440(4)
H23_7 H 0.9586 0.5911 0.5590
C29_7 C 0.87745(19) 0.6226(2) 0.5732(4)
C30_7 C 0.8968(2) 0.6458(2) 0.6326(4)
H24_7 H 0.9218 0.6364 0.6564
C31_7 C 0.8400(2) 0.6354(2) 0.5384(4)
H25_7 H 0.8267 0.6192 0.4981
C32_7 C 0.8794(2) 0.6836(2) 0.6578(4)
H26_7 H 0.8932 0.6998 0.6977
C33_7 C 0.8226(2) 0.6731(2) 0.5648(4)
H27_7 H 0.7973 0.6820 0.5417
C34_7 C 0.8416(2) 0.6977(2) 0.6241(4)
C35_7 C 0.8222(2) 0.7385(2) 0.6556(4)
H28_7 H 0.7969 0.7445 0.6240
H29_7 H 0.8419 0.7614 0.6463
C36_7 C 0.8114(2) 0.7365(2) 0.7466(4)
C37_5 C 0.8290(3) 0.7639(2) 0.8022(5)
H30_5 H 0.8461 0.7855 0.7829
C38_5 C 0.7852(2) 0.7057(2) 0.7755(4)
H31_7 H 0.7726 0.6875 0.7377
C39_5 C 0.8218(2) 0.7599(2) 0.8869(4)
H32_5 H 0.8341 0.7784 0.9245
C40_5 C 0.7769(2) 0.7008(2) 0.8584(4)
H33_5 H 0.7589 0.6798 0.8770
C43_5 C 0.7963(2) 0.7282(2) 0.9141(4)
C44_7 C 0.92842(18) 0.89815(19) 0.4104(4)
H36_7 H 0.9039 0.8822 0.4076
C45_7 C 0.99140(19) 0.92061(18) 0.3901(4)
C46_7 C 0.97314(18) 0.85465(17) 0.3145(4)
C48_7 C 0.94698(19) 0.81962(19) 0.3152(4)
H39_7 H 0.9239 0.8183 0.3508
C50_7 C 0.9559(2) 0.7868(2) 0.2620(4)
H41_7 H 0.9383 0.7634 0.2615
C51_6 C 0.98983(19) 0.78768(18) 0.2100(4)
H42_6 H 0.9761 0.7436 0.1200
N10_7 N 0.89576(15) 0.58317(15) 0.5476(3)
N11_7 N 0.90199(15) 0.51875(15) 0.5004(3)
N12_7 N 0.94223(15) 0.53484(15) 0.5167(3)
N16_4 N 0.97771(14) 0.47644(14) 0.3826(3)
N19_4 N 0.93682(15) 0.46318(15) 0.3691(3)
N20_7 N 0.96506(14) 0.88902(14) 0.3691(3)
N21_4 N 0.97325(14) 0.94709(15) 0.4408(3)
N22_7 N 0.97325(14) 0.44709(15) 0.5592(3)
N23_4 N 0.93282(14) 0.93222(15) 0.4539(3)
N24_7 N 0.93282(14) 0.43222(15) 0.5461(3)
O4_7 O 0.87620(13) 0.39364(13) 0.4246(3)
O5_7 O 0.84442(15) 0.47657(15) 0.3753(3)
O6_7 O 0.84125(14) 0.45202(15) 0.5507(3)
Co9_4 Co 0.11085(2) 0.04327(3) 0.46133(5)
C38_6 C 0.0443(2) 0.0352(2) 0.0255(4)
C40_6 C 0.0492(2) 0.0269(2) 0.1084(4)
H33_6 H 0.0702 0.0089 0.1270
C41_7 C 0.06663(19) 0.04590(19) 0.2916(4)
H34_7 H 0.0912 0.0552 0.2659
C42_7 C 0.00302(19) 0.02599(18) 0.3119(4)
C43_6 C 0.0218(2) 0.0463(2) 0.1641(4)
N13_7 N 0.02943(15) 0.04001(15) 0.2528(3)
N14_4 N 0.02229(14) 0.02356(14) 0.3826(3)
N17_4 N 0.06318(15) 0.03682(15) 0.3691(3)
C37_6 C 0.9861(2) 0.0790(3) 0.0522(5)
H30_6 H 0.9645 0.0961 0.0329
C39_6 C 0.9901(2) 0.0718(2) 0.1369(4)
H32_6 H 0.9716 0.0841 0.1745
H35_7 H 0.9749 0.0190 0.3032
C37_7 C 0.0139(2) 0.4210(3) 0.0522(5)
H30_7 H 0.0355 0.4039 0.0329
C39_7 C 0.0099(2) 0.4282(2) 0.1369(4)
H32_7 H 0.0284 0.4159 0.1745
H35_8 H 0.0251 0.4810 0.3032
C38_7 C 0.9557(2) 0.4648(2) 0.0255(4)
C40_7 C 0.9508(2) 0.4731(2) 0.1084(4)
H33_7 H 0.9298 0.4911 0.1270
C41_8 C 0.93337(19) 0.45410(19) 0.2916(4)
H34_8 H 0.9088 0.4448 0.2659
C42_8 C 0.99698(19) 0.47401(18) 0.3119(4)
C43_7 C 0.9782(2) 0.4537(2) 0.1641(4)
N13_8 N 0.97057(15) 0.45999(15) 0.2528(3)
C11_7 C 0.0139(2) 0.9210(3) 0.9478(5)
H9_7 H 0.0355 0.9039 0.9671
C13_7 C 0.0099(2) 0.9282(2) 0.8631(4)
H11_7 H 0.0284 0.9159 0.8255
H14_8 H 0.0251 0.9810 0.6968
C12_7 C 0.9557(2) 0.9648(2) 0.9745(4)
C14_7 C 0.9508(2) 0.9731(2) 0.8916(4)
H12_7 H 0.9298 0.9911 0.8730
C15_8 C 0.93337(19) 0.95410(19) 0.7084(4)
H13_8 H 0.9088 0.9448 0.7341
C16_8 C 0.99698(19) 0.97401(18) 0.6881(4)
C17_7 C 0.9782(2) 0.9537(2) 0.8359(4)
N4_8 N 0.97057(15) 0.95999(15) 0.7472(3)
N5_6 N 0.97771(14) 0.97644(14) 0.6174(3)
N6_6 N 0.93682(15) 0.96318(15) 0.6309(3)
N22_8 N 0.02675(14) 0.05291(15) 0.5592(3)
N24_8 N 0.06718(14) 0.06778(15) 0.5461(3)
O4_8 O 0.12380(13) 0.10636(13) 0.4246(3)
O5_8 O 0.15558(15) 0.02343(15) 0.3753(3)
O6_8 O 0.15875(14) 0.04798(15) 0.5507(3)
C27_8 C 0.1246(2) 0.95162(19) 0.5187(4)
H22_8 H 0.1536 0.9538 0.5128
C28_8 C 0.06314(18) 0.92688(19) 0.5440(4)
H23_8 H 0.0414 0.9089 0.5590
C29_8 C 0.12255(19) 0.8774(2) 0.5732(4)
C30_8 C 0.1032(2) 0.8542(2) 0.6326(4)
H24_8 H 0.0782 0.8636 0.6564
C31_8 C 0.1600(2) 0.8646(2) 0.5384(4)
H25_8 H 0.1733 0.8808 0.4981
C32_8 C 0.1206(2) 0.8164(2) 0.6578(4)
H26_8 H 0.1068 0.8002 0.6977
C33_8 C 0.1774(2) 0.8269(2) 0.5648(4)
H27_8 H 0.2027 0.8180 0.5417
C34_8 C 0.1584(2) 0.8023(2) 0.6241(4)
C35_8 C 0.1778(2) 0.7615(2) 0.6556(4)
H28_8 H 0.2031 0.7555 0.6240
H29_8 H 0.1581 0.7386 0.6463
C36_8 C 0.1886(2) 0.7635(2) 0.7466(4)
C37_8 C 0.1710(3) 0.7361(2) 0.8022(5)
H30_8 H 0.1539 0.7145 0.7829
C38_8 C 0.2148(2) 0.7943(2) 0.7755(4)
H31_8 H 0.2274 0.8125 0.7377
C39_8 C 0.1782(2) 0.7401(2) 0.8869(4)
H32_8 H 0.1659 0.7216 0.9245
C40_8 C 0.2231(2) 0.7992(2) 0.8584(4)
H33_8 H 0.2411 0.8202 0.8770
C43_8 C 0.2037(2) 0.7718(2) 0.9141(4)
N10_8 N 0.10424(15) 0.91683(15) 0.5476(3)
N11_8 N 0.09801(15) 0.98125(15) 0.5004(3)
N12_8 N 0.05777(15) 0.96516(15) 0.5167(3)
C1_8 C 0.8754(2) 0.04838(19) 0.4813(4)
H1_8 H 0.8464 0.0462 0.4872
C2_8 C 0.93686(18) 0.07312(19) 0.4560(4)
H2_8 H 0.9586 0.0911 0.4410
C3_8 C 0.87745(19) 0.1226(2) 0.4268(4)
C4_8 C 0.8968(2) 0.1458(2) 0.3674(4)
H3_8 H 0.9218 0.1364 0.3436
C5_8 C 0.8400(2) 0.1354(2) 0.4616(4)
H4_8 H 0.8267 0.1192 0.5019
C6_8 C 0.8794(2) 0.1836(2) 0.3422(4)
H5_8 H 0.8932 0.1998 0.3023
C7_8 C 0.8226(2) 0.1731(2) 0.4352(4)
H6_8 H 0.7973 0.1820 0.4583
C8_8 C 0.8416(2) 0.1977(2) 0.3759(4)
C9_8 C 0.8222(2) 0.2385(2) 0.3444(4)
H7_8 H 0.7969 0.2445 0.3760
H8_8 H 0.8419 0.2614 0.3537
C10_8 C 0.8114(2) 0.2365(2) 0.2534(4)
C11_8 C 0.8290(3) 0.2639(2) 0.1978(5)
H9_8 H 0.8461 0.2855 0.2171
C12_8 C 0.7852(2) 0.2057(2) 0.2245(4)
H10_8 H 0.7726 0.1875 0.2623
C13_8 C 0.8218(2) 0.2599(2) 0.1131(4)
H11_8 H 0.8341 0.2784 0.0755
C14_8 C 0.7769(2) 0.2008(2) 0.1416(4)
H12_8 H 0.7589 0.1798 0.1230
C17_8 C 0.7963(2) 0.2282(2) 0.0859(4)
N1_8 N 0.89576(15) 0.08317(15) 0.4524(3)
N2_8 N 0.90199(15) 0.01875(15) 0.4996(3)
N3_8 N 0.94223(15) 0.03484(15) 0.4833(3)
O1_8 O 0.87620(13) 0.89364(13) 0.5754(3)
O2_8 O 0.84442(15) 0.97657(15) 0.6247(3)
O3_8 O 0.84125(14) 0.95202(15) 0.4493(3)
C23_7 C 0.57239(18) 0.23415(19) 0.0382(4)
H19_7 H 0.5729 0.2105 0.0722
C25_7 C 0.53768(18) 0.26017(19) 0.0400(4)
C26_10 C 0.5000 0.2500 0.0947(6)
H21_7 H 0.4936 0.2739 0.1300
C49_7 C 0.42761(18) 0.26585(19) 0.0382(4)
H40_7 H 0.4271 0.2895 0.0722
C51_7 C 0.46232(18) 0.23983(19) 0.0400(4)
H42_7 H 0.5064 0.2261 0.1300
H16_8 H 0.0189 0.4232 0.6290
C21_8 C 0.00770(19) 0.35621(19) 0.7375(4)
H17_8 H 0.0251 0.3797 0.7382
C23_8 C 0.01585(19) 0.32239(18) 0.7882(4)
H19_8 H 0.0395 0.3229 0.8222
C26_11 C -0.0000 0.2500 0.8447(6)
C44_8 C 0.07158(18) 0.10185(19) 0.5896(4)
H36_8 H 0.0961 0.1178 0.5924
C45_8 C 0.00860(19) 0.07939(18) 0.6099(4)
C46_8 C 0.02686(18) 0.14535(17) 0.6855(4)
C48_8 C 0.05302(19) 0.18038(19) 0.6848(4)
H39_8 H 0.0761 0.1817 0.6492
C50_8 C 0.0441(2) 0.2132(2) 0.7380(4)
H41_8 H 0.0617 0.2366 0.7385
C51_8 C 0.01017(19) 0.21232(18) 0.7900(4)
H42_8 H 0.0239 0.2564 0.8800
N20_8 N 0.03494(14) 0.11098(14) 0.6309(3)
C18_8 C 0.92842(18) 0.39815(19) 0.5896(4)
H15_8 H 0.9039 0.3822 0.5924
C19_8 C 0.99140(19) 0.42061(18) 0.6099(4)
C20_8 C 0.97314(18) 0.35465(17) 0.6855(4)
C22_8 C 0.94698(19) 0.31962(19) 0.6848(4)
H18_8 H 0.9239 0.3183 0.6492
C24_8 C 0.9559(2) 0.2868(2) 0.7380(4)
H20_8 H 0.9383 0.2634 0.7385
C25_8 C 0.98983(19) 0.28768(18) 0.7900(4)
C26_12 C 1.0000 0.2500 0.8447(6)
H21_8 H 0.9761 0.2436 0.8800
N7_8 N 0.96506(14) 0.38902(14) 0.6309(3)
H37_8 H 0.9811 0.0768 0.6290
C47_8 C 0.99230(19) 0.14379(19) 0.7375(4)
H38_8 H 0.9749 0.1203 0.7382
C49_8 C 0.98415(19) 0.17761(18) 0.7882(4)
H40_8 H 0.9605 0.1771 0.8222
N25 N 0.09683(18) 0.43745(17) 0.6996(4)
O7 O 0.13175(15) 0.45564(15) 0.7162(4)
O8 O 0.09548(14) 0.40869(15) 0.6477(3)
O9 O 0.06453(16) 0.44924(16) 0.7364(4)
N25_2 N 0.31255(17) 0.34683(18) 0.9496(4)
O7_2 O 0.29436(15) 0.38175(15) 0.9662(4)
O8_2 O 0.34131(15) 0.34548(14) 0.8977(3)
O9_2 O 0.30076(16) 0.31453(16) 0.9864(4)
N25_3 N 0.40317(18) 0.56255(17) 0.1996(4)
O7_3 O 0.36825(15) 0.54436(15) 0.2162(4)
O8_3 O 0.40452(14) 0.59131(15) 0.1477(3)
O9_3 O 0.43547(16) 0.55076(16) 0.2364(4)
N25_4 N 0.18745(17) 0.65317(18) 0.4496(4)
O7_4 O 0.20564(15) 0.61825(15) 0.4662(4)
O8_4 O 0.15869(15) 0.65452(14) 0.3977(3)
O9_4 O 0.19924(16) 0.68547(16) 0.4864(4)
N25_5 N 0.59683(18) 0.93745(17) 0.1996(4)
O7_5 O 0.63175(15) 0.95564(15) 0.2162(4)
O8_5 O 0.59548(14) 0.90869(15) 0.1477(3)
O9_5 O 0.56453(16) 0.94924(16) 0.2364(4)
N25_6 N 0.81255(17) 0.84683(18) 0.4496(4)
O7_6 O 0.79436(15) 0.88175(15) 0.4662(4)
O8_6 O 0.84131(15) 0.84548(14) 0.3977(3)
O9_6 O 0.80076(16) 0.81453(16) 0.4864(4)
N25_7 N 0.90317(18) 0.06255(17) 0.6996(4)
O7_7 O 0.86825(15) 0.04436(15) 0.7162(4)
O8_7 O 0.90452(14) 0.09131(15) 0.6477(3)
O9_7 O 0.93547(16) 0.05076(16) 0.7364(4)
N25_8 N 0.68745(17) 0.15317(18) 0.9496(4)
O7_8 O 0.70564(15) 0.11825(15) 0.9662(4)
O8_8 O 0.65869(15) 0.15452(14) 0.8977(3)
O9_8 O 0.69924(16) 0.18547(16) 0.9864(4)
N25_9 N 0.90317(18) 0.56255(17) 0.3004(4)
O7_9 O 0.86825(15) 0.54436(15) 0.2838(4)
O8_9 O 0.90452(14) 0.59131(15) 0.3523(3)
O9_9 O 0.93547(16) 0.55076(16) 0.2636(4)
N25_10 N 0.68745(17) 0.65317(18) 0.0504(4)
O7_10 O 0.70564(15) 0.61825(15) 0.0338(4)
O8_10 O 0.65869(15) 0.65452(14) 0.1023(3)
O9_10 O 0.69924(16) 0.68547(16) 0.0136(4)
N25_11 N 0.59683(18) 0.43745(17) 0.8004(4)
O7_11 O 0.63175(15) 0.45564(15) 0.7838(4)
O8_11 O 0.59548(14) 0.40869(15) 0.8523(3)
O9_11 O 0.56453(16) 0.44924(16) 0.7636(4)
N25_12 N 0.81255(17) 0.34683(18) 0.5504(4)
O7_12 O 0.79436(15) 0.38175(15) 0.5338(4)
O8_12 O 0.84131(15) 0.34548(14) 0.6023(3)
O9_12 O 0.80076(16) 0.31453(16) 0.5136(4)
N25_13 N 0.40317(18) 0.06255(17) 0.8004(4)
O7_13 O 0.36825(15) 0.04436(15) 0.7838(4)
O8_13 O 0.40452(14) 0.09131(15) 0.8523(3)
O9_13 O 0.43547(16) 0.05076(16) 0.7636(4)
N25_14 N 0.18745(17) 0.15317(18) 0.5504(4)
O7_14 O 0.20564(15) 0.11825(15) 0.5338(4)
O8_14 O 0.15869(15) 0.15452(14) 0.6023(3)
O9_14 O 0.19924(16) 0.18547(16) 0.5136(4)
N25_15 N 0.09683(18) 0.93745(17) 0.3004(4)
O7_15 O 0.13175(15) 0.95564(15) 0.2838(4)
O8_15 O 0.09548(14) 0.90869(15) 0.3523(3)
O9_15 O 0.06453(16) 0.94924(16) 0.2636(4)
N25_16 N 0.31255(17) 0.84683(18) 0.0504(4)
O7_16 O 0.29436(15) 0.88175(15) 0.0338(4)
O8_16 O 0.34131(15) 0.84548(14) 0.1023(3)
O9_16 O 0.30076(16) 0.81453(16) 0.0136(4)
N26 N 0.11255(18) 0.27673(18) 0.8968(4)
O10 O 0.12259(16) 0.27228(17) 0.8251(3)
O11 O 0.10180(16) 0.31290(15) 0.9230(3)
O12 O 0.1125(2) 0.24664(18) 0.9450(4)
N26_2 N 0.47327(18) 0.36255(18) 0.1468(4)
O10_2 O 0.47772(17) 0.37259(16) 0.0751(3)
O11_2 O 0.43710(15) 0.35180(16) 0.1730(3)
O12_2 O 0.50336(18) 0.3625(2) 0.1950(4)
N26_3 N 0.38745(18) 0.72327(18) 0.3968(4)
O10_3 O 0.37741(16) 0.72772(17) 0.3251(3)
O11_3 O 0.39820(16) 0.68710(15) 0.4230(3)
O12_3 O 0.3875(2) 0.75336(18) 0.4450(4)
N26_4 N 0.02673(18) 0.63745(18) 0.6468(4)
O10_4 O 0.02228(17) 0.62741(16) 0.5751(3)
O11_4 O 0.06290(15) 0.64820(16) 0.6730(3)
O12_4 O 0.99664(18) 0.6375(2) 0.6950(4)
N26_5 N 0.61255(18) 0.77673(18) 0.3968(4)
O10_5 O 0.62259(16) 0.77228(17) 0.3251(3)
O11_5 O 0.60180(16) 0.81290(15) 0.4230(3)
O12_5 O 0.6125(2) 0.74664(18) 0.4450(4)
O12_6 O 0.00336(18) 0.8625(2) 0.6950(4)
N26_6 N 0.97327(18) 0.86255(18) 0.6468(4)
O10_6 O 0.97772(17) 0.87259(16) 0.5751(3)
O11_6 O 0.93710(15) 0.85180(16) 0.6730(3)
N26_7 N 0.88745(18) 0.22327(18) 0.8968(4)
O10_7 O 0.87741(16) 0.22772(17) 0.8251(3)
O11_7 O 0.89820(16) 0.18710(15) 0.9230(3)
O12_7 O 0.8875(2) 0.25336(18) 0.9450(4)
N26_8 N 0.52673(18) 0.13745(18) 0.1468(4)
O10_8 O 0.52228(17) 0.12741(16) 0.0751(3)
O11_8 O 0.56290(15) 0.14820(16) 0.1730(3)
O12_8 O 0.49664(18) 0.1375(2) 0.1950(4)
N26_9 N 0.88745(18) 0.72327(18) 0.1032(4)
O10_9 O 0.87741(16) 0.72772(17) 0.1749(3)
O11_9 O 0.89820(16) 0.68710(15) 0.0770(3)
O12_9 O 0.8875(2) 0.75336(18) 0.0550(4)
N26_10 N 0.52673(18) 0.63745(18) 0.8532(4)
O10_10 O 0.52228(17) 0.62741(16) 0.9249(3)
O11_10 O 0.56290(15) 0.64820(16) 0.8270(3)
O12_10 O 0.49664(18) 0.6375(2) 0.8050(4)
N26_11 N 0.61255(18) 0.27673(18) 0.6032(4)
O10_11 O 0.62259(16) 0.27228(17) 0.6749(3)
O11_11 O 0.60180(16) 0.31290(15) 0.5770(3)
O12_11 O 0.6125(2) 0.24664(18) 0.5550(4)
O12_12 O 0.00336(18) 0.3625(2) 0.3050(4)
N26_12 N 0.97327(18) 0.36255(18) 0.3532(4)
O10_12 O 0.97772(17) 0.37259(16) 0.4249(3)
O11_12 O 0.93710(15) 0.35180(16) 0.3270(3)
N26_13 N 0.38745(18) 0.22327(18) 0.6032(4)
O10_13 O 0.37741(16) 0.22772(17) 0.6749(3)
O11_13 O 0.39820(16) 0.18710(15) 0.5770(3)
O12_13 O 0.3875(2) 0.25336(18) 0.5550(4)
N26_14 N 0.02673(18) 0.13745(18) 0.3532(4)
O10_14 O 0.02228(17) 0.12741(16) 0.4249(3)
O11_14 O 0.06290(15) 0.14820(16) 0.3270(3)
O12_14 O 0.99664(18) 0.1375(2) 0.3050(4)
N26_15 N 0.11255(18) 0.77673(18) 0.1032(4)
O10_15 O 0.12259(16) 0.77228(17) 0.1749(3)
O11_15 O 0.10180(16) 0.81290(15) 0.0770(3)
O12_15 O 0.1125(2) 0.74664(18) 0.0550(4)
N26_16 N 0.47327(18) 0.86255(18) 0.8532(4)
O10_16 O 0.47772(17) 0.87259(16) 0.9249(3)
O11_16 O 0.43710(15) 0.85180(16) 0.8270(3)
O12_16 O 0.50336(18) 0.8625(2) 0.8050(4)
O13 O 0.2182(6) 0.5947(5) 0.0422(12)
O14 O 0.2520(8) 0.6534(6) 0.0666(15)
N27 N 0.2251(12) 0.6359(13) 0.032(2)
O15 O 0.2013(8) 0.6549(7) 0.9880(13)
O13_2 O 0.1553(5) 0.4682(6) 0.2922(12)
O14_2 O 0.0966(6) 0.5020(8) 0.3166(15)
N27_2 N 0.1141(13) 0.4751(12) 0.282(2)
O15_2 O 0.0951(7) 0.4513(8) 0.2380(13)
O13_3 O 0.2818(6) 0.4053(5) 0.5422(12)
O14_3 O 0.2480(8) 0.3466(6) 0.5666(15)
N27_3 N 0.2749(12) 0.3641(13) 0.532(2)
O15_3 O 0.2987(8) 0.3451(7) 0.4880(13)
O13_4 O 0.3447(5) 0.5318(6) 0.7922(12)
O14_4 O 0.4034(6) 0.4980(8) 0.8166(15)
N27_4 N 0.3859(13) 0.5249(12) 0.782(2)
O15_4 O 0.4049(7) 0.5487(8) 0.7380(13)
O13_5 O 0.7182(6) 0.0947(5) 0.5422(12)
O14_5 O 0.7520(8) 0.1534(6) 0.5666(15)
N27_5 N 0.7251(12) 0.1359(13) 0.532(2)
O15_5 O 0.7013(8) 0.1549(7) 0.4880(13)
O14_6 O 0.5966(6) 0.0020(8) 0.8166(15)
O13_6 O 0.6553(5) 0.9682(6) 0.7922(12)
N27_6 N 0.6141(13) 0.9751(12) 0.782(2)
O15_6 O 0.5951(7) 0.9513(8) 0.7380(13)
O13_7 O 0.7818(6) 0.9053(5) 0.0422(12)
O14_7 O 0.7480(8) 0.8466(6) 0.0666(15)
N27_7 N 0.7749(12) 0.8641(13) 0.032(2)
O15_7 O 0.7987(8) 0.8451(7) 0.9880(13)
O13_8 O 0.8447(5) 0.0318(6) 0.2922(12)
N27_8 N 0.8859(13) 0.0249(12) 0.282(2)
O15_8 O 0.9049(7) 0.0487(8) 0.2380(13)
O14_8 O 0.9034(6) 0.9980(8) 0.3166(15)
O15_9 O 0.7987(8) 0.3451(7) 0.0120(13)
O13_9 O 0.7818(6) 0.4053(5) 0.9578(12)
O14_9 O 0.7480(8) 0.3466(6) 0.9334(15)
N27_9 N 0.7749(12) 0.3641(13) 0.968(2)
O13_10 O 0.8447(5) 0.5318(6) 0.7078(12)
O14_10 O 0.9034(6) 0.4980(8) 0.6834(15)
N27_10 N 0.8859(13) 0.5249(12) 0.718(2)
O15_10 O 0.9049(7) 0.5487(8) 0.7620(13)
O13_11 O 0.7182(6) 0.5947(5) 0.4578(12)
O14_11 O 0.7520(8) 0.6534(6) 0.4334(15)
N27_11 N 0.7251(12) 0.6359(13) 0.468(2)
O15_11 O 0.7013(8) 0.6549(7) 0.5120(13)
O13_12 O 0.6553(5) 0.4682(6) 0.2078(12)
O14_12 O 0.5966(6) 0.5020(8) 0.1834(15)
N27_12 N 0.6141(13) 0.4751(12) 0.218(2)
O15_12 O 0.5951(7) 0.4513(8) 0.2620(13)
O13_13 O 0.2818(6) 0.9053(5) 0.4578(12)
O14_13 O 0.2480(8) 0.8466(6) 0.4334(15)
N27_13 N 0.2749(12) 0.8641(13) 0.468(2)
O15_13 O 0.2987(8) 0.8451(7) 0.5120(13)
O13_14 O 0.3447(5) 0.0318(6) 0.2078(12)
N27_14 N 0.3859(13) 0.0249(12) 0.218(2)
O15_14 O 0.4049(7) 0.0487(8) 0.2620(13)
O14_14 O 0.4034(6) 0.9980(8) 0.1834(15)
O15_15 O 0.2013(8) 0.1549(7) 0.0120(13)
O13_15 O 0.2182(6) 0.0947(5) 0.9578(12)
O14_15 O 0.2520(8) 0.1534(6) 0.9334(15)
N27_15 N 0.2251(12) 0.1359(13) 0.968(2)
O14_16 O 0.0966(6) 0.0020(8) 0.6834(15)
O13_16 O 0.1553(5) 0.9682(6) 0.7078(12)
N27_16 N 0.1141(13) 0.9751(12) 0.718(2)
O15_16 O 0.0951(7) 0.9513(8) 0.7620(13)
loop_
_geom_bond_atom_site_label_1
_geom_bond_atom_site_label_2
_geom_bond_site_symmetry_1
_geom_bond_site_symmetry_2
C15 H13 1_555 1_555
C16 H14 1_555 1_555
N4 C15 1_555 1_555
N5 C16 1_555 1_555
N6 C15 1_555 1_555
Co3 N5 1_555 1_555
Co7 N6 1_555 1_555
C16 N4 1_555 1_555
N5 N6 1_555 1_555
Co3 N3 1_555 1_555
Co7 N2 1_555 1_555
C1 H1 1_555 1_555
C2 H2 1_555 1_555
C3 C4 1_555 1_555
C4 H3 1_555 1_555
C5 C3 1_555 1_555
H4 C5 1_555 1_555
C6 C4 1_555 1_555
H5 C6 1_555 1_555
C7 C5 1_555 1_555
H6 C7 1_555 1_555
C8 C6 1_555 1_555
C9 C8 1_555 1_555
H7 C9 1_555 1_555
H8 C9 1_555 1_555
C10 C9 1_555 1_555
C11 C10 1_555 1_555
H9 C11 1_555 1_555
C12 C10 1_555 1_555
H10 C12 1_555 1_555
C13 C11 1_555 1_555
H11 C13 1_555 1_555
C14 C12 1_555 1_555
H12 C14 1_555 1_555
C15_2 H13_2 1_555 1_555
C16_2 H14_2 1_555 1_555
C17 C13 1_555 1_555
C18 H15 1_555 1_555
C19 H16 1_555 1_555
C20 C21 1_555 1_555
C21 H17 1_555 1_555
C22 C20 1_555 1_555
H18 C22 1_555 1_555
C23 C21 1_555 1_555
H19 C23 1_555 1_555
C24 C22 1_555 1_555
H20 C24 1_555 1_555
C25 C23 1_555 1_555
C26 C25 1_555 1_555
N1 C1 1_555 1_555
N2 C1 1_555 1_555
N3 C2 1_555 1_555
N4_2 C15_2 1_555 1_555
N5_2 C16_2 1_555 1_555
N6_2 C15_2 1_555 1_555
N7 C18 1_555 1_555
N8 Co3 1_555 1_555
N9 Co7 1_555 1_555
O1 Co7 1_555 1_555
O2 Co7 1_555 1_555
O3 Co7 1_555 1_555
Co3_2 N5_2 1_555 1_555
Co6 N11 1_555 1_555
Co7_2 N6_2 1_555 1_555
C27 H22 1_555 1_555
C28 H23 1_555 1_555
C29 C30 1_555 1_555
C30 H24 1_555 1_555
C31 C29 1_555 1_555
H25 C31 1_555 1_555
C32 C30 1_555 1_555
H26 C32 1_555 1_555
C33 C31 1_555 1_555
H27 C33 1_555 1_555
C34 C32 1_555 1_555
C35 C34 1_555 1_555
H28 C35 1_555 1_555
C36 C35 1_555 1_555
H42 C26 1_555 1_555
N10 C27 1_555 1_555
N11 C27 1_555 1_555
N12 Co3 1_555 1_555
N16 Co3 1_555 1_555
N19 Co6 1_555 1_555
N22 Co3 1_555 1_555
N24 Co6 1_555 1_555
O4 Co6 1_555 1_555
O5 Co6 1_555 1_555
O6 Co6 1_555 1_555
C2 N1 1_555 1_555
C3 N1 1_555 1_555
C7 C8 1_555 1_555
C14 C17 1_555 1_555
C16_2 N4_2 1_555 1_555
C17 N4_2 1_555 1_555
C18 N9 1_555 1_555
C19 N7 1_555 1_555
C19 N8 1_555 1_555
C20 N7 1_555 1_555
C24 C25 1_555 1_555
N2 N3 1_555 1_555
N5_2 N6_2 1_555 1_555
N8 N9 1_555 1_555
C28 N10 1_555 1_555
C28 N12 1_555 1_555
C29 N10 1_555 1_555
C33 C34 1_555 1_555
N11 N12 1_555 1_555
N16 N19 1_555 1_555
N22 N24 1_555 1_555
H21 C26_2 1_555 1_555
Co4 N21 1_555 1_555
Co8 N23 1_555 1_555
C44 H36 1_555 1_555
C45 H37 1_555 1_555
C46 C47 1_555 1_555
C47 H38 1_555 1_555
C48 C46 1_555 1_555
H39 C48 1_555 1_555
C49 C47 1_555 1_555
H40 C49 1_555 1_555
C50 C48 1_555 1_555
H41 C50 1_555 1_555
C51 C26_2 1_555 1_555
N20 C44 1_555 1_555
N21 C45 1_555 1_555
N23 C44 1_555 1_555
C45 N20 1_555 1_555
C46 N20 1_555 1_555
C49 C51 1_555 1_555
C50 C51 1_555 1_555
N21 N23 1_555 1_555
O1_2 Co7_2 1_555 1_555
O2_2 Co7_2 1_555 1_555
Co4 N14 1_555 1_555
Co9 N17 1_555 1_555
C27_2 H22_2 1_555 1_555
C28_2 H23_2 1_555 1_555
C29_2 C30_2 1_555 1_555
C30_2 H24_2 1_555 1_555
C31_2 C29_2 1_555 1_555
C32_2 C30_2 1_555 1_555
H26_2 C32_2 1_555 1_555
C33_2 C31_2 1_555 1_555
H27_2 C33_2 1_555 1_555
C34_2 C32_2 1_555 1_555
C35_2 C34_2 1_555 1_555
H28_2 C35_2 1_555 1_555
H29_2 C35_2 1_555 1_555
C36_2 C35_2 1_555 1_555
C37 C36_2 1_555 1_555
H30 C37 1_555 1_555
C38 C36_2 1_555 1_555
H31_2 C38 1_555 1_555
C39 C37 1_555 1_555
H32 C39 1_555 1_555
C40 C38 1_555 1_555
H33 C40 1_555 1_555
C41 H34 1_555 1_555
C42 H35 1_555 1_555
C43 C39 1_555 1_555
N10_2 C27_2 1_555 1_555
N11_2 C27_2 1_555 1_555
N12_2 Co3_2 1_555 1_555
N13 C41 1_555 1_555
N14 C42 1_555 1_555
N17 C41 1_555 1_555
N22_2 Co3_2 1_555 1_555
C28_2 N10_2 1_555 1_555
C28_2 N12_2 1_555 1_555
C29_2 N10_2 1_555 1_555
C33_2 C34_2 1_555 1_555
C40 C43 1_555 1_555
C42 N13 1_555 1_555
C43 N13 1_555 1_555
N11_2 N12_2 1_555 1_555
N14 N17 1_555 1_555
N22_2 N24_2 1_555 1_555
Co4 N3_2 1_555 1_555
Co8 N2_2 1_555 1_555
C1_2 H1_2 1_555 1_555
C2_2 H2_2 1_555 1_555
C3_2 C4_2 1_555 1_555
C4_2 H3_2 1_555 1_555
C5_2 C3_2 1_555 1_555
H4_3 C5_2 1_555 1_555
C6_2 C4_2 1_555 1_555
H5_2 C6_2 1_555 1_555
C7_2 C5_2 1_555 1_555
H6_2 C7_2 1_555 1_555
C8_2 C6_2 1_555 1_555
C9_2 C8_2 1_555 1_555
H7_2 C9_2 1_555 1_555
H8_2 C9_2 1_555 1_555
C10_2 C9_2 1_555 1_555
C11_2 C10_2 1_555 1_555
H9_2 C11_2 1_555 1_555
C12_2 C10_2 1_555 1_555
H10_2 C12_2 1_555 1_555
C13_2 C11_2 1_555 1_555
H11_2 C13_2 1_555 1_555
C14_2 C12_2 1_555 1_555
H12_2 C14_2 1_555 1_555
C15_3 H13_3 1_555 1_555
C16_3 H14_3 1_555 1_555
C17_2 C13_2 1_555 1_555
N1_2 C1_2 1_555 1_555
N2_2 C1_2 1_555 1_555
N3_2 C2_2 1_555 1_555
N4_3 C15_3 1_555 1_555
N5_3 C16_3 1_555 1_555
N6_3 C15_3 1_555 1_555
O1_3 Co8 1_555 1_555
O2_3 Co8 1_555 1_555
O3_2 Co8 1_555 1_555
Co5 N5_3 1_555 1_555
Co9 N11_3 1_555 1_555
Co8_2 N6_3 1_555 1_555
C27_3 H22_3 1_555 1_555
C28_3 H23_3 1_555 1_555
C29_3 C30_3 1_555 1_555
C30_3 H24_3 1_555 1_555
C31_3 C29_3 1_555 1_555
H25_2 C31_3 1_555 1_555
C32_3 C30_3 1_555 1_555
H26_3 C32_3 1_555 1_555
C33_3 C31_3 1_555 1_555
H27_3 C33_3 1_555 1_555
C34_3 C32_3 1_555 1_555
C35_3 C34_3 1_555 1_555
H28_3 C35_3 1_555 1_555
C36_3 C35_3 1_555 1_555
N10_3 C27_3 1_555 1_555
N11_3 C27_3 1_555 1_555
N12_3 Co4 1_555 1_555
N15 Co4 1_555 1_555
N18 Co8 1_555 1_555
N22_3 Co4 1_555 1_555
N24_3 Co9 1_555 1_555
O4_2 Co9 1_555 1_555
O5_2 Co9 1_555 1_555
O6_3 Co9 1_555 1_555
C2_2 N1_2 1_555 1_555
C3_2 N1_2 1_555 1_555
C7_2 C8_2 1_555 1_555
C14_2 C17_2 1_555 1_555
C16_3 N4_3 1_555 1_555
C17_2 N4_3 1_555 1_555
N2_2 N3_2 1_555 1_555
N5_3 N6_3 1_555 1_555
C28_3 N10_3 1_555 1_555
C28_3 N12_3 1_555 1_555
C29_3 N10_3 1_555 1_555
C33_3 C34_3 1_555 1_555
N11_3 N12_3 1_555 1_555
N15 N18 1_555 1_555
N22_3 N24_3 1_555 1_555
O1_4 Co8_2 1_555 1_555
O2_4 Co8_2 1_555 1_555
C27_4 H22_4 1_555 1_555
C28_4 H23_4 1_555 1_555
C29_4 C30_4 1_555 1_555
C30_4 H24_4 1_555 1_555
C31_4 C29_4 1_555 1_555
C32_4 C30_4 1_555 1_555
H26_4 C32_4 1_555 1_555
C33_4 C31_4 1_555 1_555
H27_4 C33_4 1_555 1_555
C34_4 C32_4 1_555 1_555
C35_4 C34_4 1_555 1_555
H28_4 C35_4 1_555 1_555
H29_4 C35_4 1_555 1_555
C36_4 C35_4 1_555 1_555
C37_2 C36_4 1_555 1_555
H30_2 C37_2 1_555 1_555
C38_2 C36_4 1_555 1_555
H31_4 C38_2 1_555 1_555
C39_2 C37_2 1_555 1_555
H32_2 C39_2 1_555 1_555
C40_2 C38_2 1_555 1_555
H33_2 C40_2 1_555 1_555
C41_2 H34_2 1_555 1_555
C42_2 H35_2 1_555 1_555
C43_2 C39_2 1_555 1_555
N10_4 C27_4 1_555 1_555
N11_4 C27_4 1_555 1_555
N12_4 Co5 1_555 1_555
N13_2 C41_2 1_555 1_555
N16 C42_2 1_555 1_555
N19 C41_2 1_555 1_555
C28_4 N10_4 1_555 1_555
C28_4 N12_4 1_555 1_555
C29_4 N10_4 1_555 1_555
C33_4 C34_4 1_555 1_555
C40_2 C43_2 1_555 1_555
C42_2 N13_2 1_555 1_555
C43_2 N13_2 1_555 1_555
N11_4 N12_4 1_555 1_555
N22_4 Co5_2 1_555 1_555
N22_4 N24_4 1_555 1_555
C15_4 H13_4 1_555 1_555
C16_4 H14_4 1_555 1_555
N4_4 C15_4 1_555 1_555
N15 C16_4 1_555 1_555
N18 C15_4 1_555 1_555
C16_4 N4_4 1_555 1_555
C18_2 H15_2 1_555 1_555
C19_2 H16_2 1_555 1_555
C20_2 C21_2 1_555 1_555
C21_2 H17_2 1_555 1_555
C22_2 C20_2 1_555 1_555
H18_2 C22_2 1_555 1_555
C24_2 C22_2 1_555 1_555
H20_2 C24_2 1_555 1_555
N7_2 C18_2 1_555 1_555
C44_2 H36_2 1_555 1_555
C45_2 H37_2 1_555 1_555
C46_2 C47_2 1_555 1_555
C47_2 H38_2 1_555 1_555
C48_2 C46_2 1_555 1_555
H39_2 C48_2 1_555 1_555
C50_2 C48_2 1_555 1_555
H41_2 C50_2 1_555 1_555
N20_2 C44_2 1_555 1_555
N22 C45_2 1_555 1_555
N24 C44_2 1_555 1_555
C18_2 N24_3 1_555 1_555
C19_2 N7_2 1_555 1_555
C19_2 N22_3 1_555 1_555
C20_2 N7_2 1_555 1_555
C45_2 N20_2 1_555 1_555
C46_2 N20_2 1_555 1_555
C18_3 H15_3 1_555 1_555
C19_3 H16_3 1_555 1_555
C20_3 C21_3 1_555 1_555
C21_3 H17_3 1_555 1_555
C22_3 C20_3 1_555 1_555
H18_3 C22_3 1_555 1_555
C23_2 C21_3 1_555 1_555
H19_2 C23_2 1_555 1_555
C24_3 C22_3 1_555 1_555
H20_3 C24_3 1_555 1_555
C25_2 C23_2 1_555 1_555
C26_3 C25_2 1_555 1_555
H21_2 C26_3 1_555 1_555
N7_3 C18_3 1_555 1_555
C44_3 H36_3 1_555 1_555
C45_3 H37_3 1_555 1_555
C46_3 C47_3 1_555 1_555
C47_3 H38_3 1_555 1_555
C48_3 C46_3 1_555 1_555
H39_3 C48_3 1_555 1_555
C49_2 C47_3 1_555 1_555
H40_2 C49_2 1_555 1_555
C50_3 C48_3 1_555 1_555
H41_3 C50_3 1_555 1_555
C51_2 C26_3 1_555 1_555
H42_2 C26_3 1_555 1_555
N20_3 C44_3 1_555 1_555
N22_4 C45_3 1_555 1_555
N24_4 C44_3 1_555 1_555
C18_3 N24_2 1_555 1_555
C19_3 N7_3 1_555 1_555
C19_3 N22_2 1_555 1_555
C20_3 N7_3 1_555 1_555
C24_3 C25_2 1_555 1_555
C45_3 N20_3 1_555 1_555
C46_3 N20_3 1_555 1_555
C49_2 C51_2 1_555 1_555
C50_3 C51_2 1_555 1_555
Co1 N3_3 1_555 1_555
Co2 N2_3 1_555 1_555
C1_3 H1_3 1_555 1_555
C2_3 H2_3 1_555 1_555
C3_3 C4_3 1_555 1_555
C4_3 H3_3 1_555 1_555
C5_3 C3_3 1_555 1_555
H4_5 C5_3 1_555 1_555
C6_3 C4_3 1_555 1_555
H5_3 C6_3 1_555 1_555
C7_3 C5_3 1_555 1_555
H6_3 C7_3 1_555 1_555
C8_3 C6_3 1_555 1_555
C9_3 C8_3 1_555 1_555
H7_3 C9_3 1_555 1_555
C10_3 C9_3 1_555 1_555
C18_4 H15_4 1_555 1_555
C19_4 H16_4 1_555 1_555
C20_4 C21_4 1_555 1_555
C21_4 H17_4 1_555 1_555
C22_4 C20_4 1_555 1_555
H18_4 C22_4 1_555 1_555
C24_4 C22_4 1_555 1_555
H20_4 C24_4 1_555 1_555
N1_3 C1_3 1_555 1_555
N2_3 C1_3 1_555 1_555
N3_3 C2_3 1_555 1_555
N7_4 C18_4 1_555 1_555
N8_2 Co1 1_555 1_555
N9_2 Co2 1_555 1_555
O1_5 Co2 1_555 1_555
O2_5 Co2 1_555 1_555
O3_3 Co2 1_555 1_555
Co4_2 N21_2 1_555 1_555
Co5_4 N14_2 1_555 1_555
Co6_2 N11_5 1_555 1_555
Co8_3 N23_2 1_555 1_555
Co9_2 N17_2 1_555 1_555
C27_5 H22_5 1_555 1_555
C28_5 H23_5 1_555 1_555
C29_5 C30_5 1_555 1_555
C30_5 H24_5 1_555 1_555
C31_5 C29_5 1_555 1_555
H25_3 C31_5 1_555 1_555
C32_5 C30_5 1_555 1_555
H26_5 C32_5 1_555 1_555
C33_5 C31_5 1_555 1_555
H27_5 C33_5 1_555 1_555
C34_5 C32_5 1_555 1_555
C35_5 C34_5 1_555 1_555
H28_5 C35_5 1_555 1_555
H29_5 C35_5 1_555 1_555
C36_5 C35_5 1_555 1_555
C37_3 C36_5 1_555 1_555
H30_3 C37_3 1_555 1_555
C38_3 C36_5 1_555 1_555
H31_5 C38_3 1_555 1_555
C39_3 C37_3 1_555 1_555
H32_3 C39_3 1_555 1_555
C40_3 C38_3 1_555 1_555
H33_3 C40_3 1_555 1_555
C41_3 H34_3 1_555 1_555
C42_3 H35_3 1_555 1_555
C43_3 C39_3 1_555 1_555
C44_4 H36_4 1_555 1_555
C45_4 H37_4 1_555 1_555
C46_4 C47_4 1_555 1_555
C47_4 H38_4 1_555 1_555
C48_4 C46_4 1_555 1_555
H39_4 C48_4 1_555 1_555
C50_4 C48_4 1_555 1_555
H41_4 C50_4 1_555 1_555
N10_5 C27_5 1_555 1_555
N11_5 C27_5 1_555 1_555
N12_5 Co1 1_555 1_555
N13_3 C41_3 1_555 1_555
N14_2 C42_3 1_555 1_555
N15_2 Co1 1_555 1_555
N16_2 Co1 1_555 1_555
N17_2 C41_3 1_555 1_555
N18_2 Co2 1_555 1_555
N19_2 Co6_2 1_555 1_555
N20_4 C44_4 1_555 1_555
N21_2 C45_4 1_555 1_555
N22_5 Co1 1_555 1_555
N23_2 C44_4 1_555 1_555
N24_5 Co6_2 1_555 1_555
O4_3 Co6_2 1_555 1_555
O5_3 Co6_2 1_555 1_555
O6_5 Co6_2 1_555 1_555
C2_3 N1_3 1_555 1_555
C3_3 N1_3 1_555 1_555
C7_3 C8_3 1_555 1_555
C18_4 N9_2 1_555 1_555
C19_4 N7_4 1_555 1_555
C19_4 N8_2 1_555 1_555
C20_4 N7_4 1_555 1_555
N2_3 N3_3 1_555 1_555
N8_2 N9_2 1_555 1_555
C28_5 N10_5 1_555 1_555
C28_5 N12_5 1_555 1_555
C29_5 N10_5 1_555 1_555
C33_5 C34_5 1_555 1_555
C40_3 C43_3 1_555 1_555
C42_3 N13_3 1_555 1_555
C43_3 N13_3 1_555 1_555
C45_4 N20_4 1_555 1_555
C46_4 N20_4 1_555 1_555
N11_5 N12_5 1_555 1_555
N14_2 N17_2 1_555 1_555
N15_2 N18_2 1_555 1_555
N16_2 N19_2 1_555 1_555
N21_2 N23_2 1_555 1_555
N22_5 N24_5 1_555 1_555
Co4_2 N14_3 1_555 1_555
Co9_3 N17_3 1_555 1_555
C41_4 H34_4 1_555 1_555
C42_4 H35_4 1_555 1_555
N13_4 C41_4 1_555 1_555
N14_3 C42_4 1_555 1_555
N17_3 C41_4 1_555 1_555
C42_4 N13_4 1_555 1_555
N14_3 N17_3 1_555 1_555
Co3_3 N3_4 1_555 1_555
C1_4 H1_4 1_555 1_555
C2_4 H2_4 1_555 1_555
C3_4 C4_4 1_555 1_555
C4_4 H3_4 1_555 1_555
C5_4 C3_4 1_555 1_555
C6_4 C4_4 1_555 1_555
H5_4 C6_4 1_555 1_555
C7_4 C5_4 1_555 1_555
H6_4 C7_4 1_555 1_555
C8_4 C6_4 1_555 1_555
C9_4 C8_4 1_555 1_555
H7_4 C9_4 1_555 1_555
H8_4 C9_4 1_555 1_555
C10_4 C9_4 1_555 1_555
C11_3 C10_4 1_555 1_555
H9_3 C11_3 1_555 1_555
C12_3 C10_4 1_555 1_555
H10_4 C12_3 1_555 1_555
C13_3 C11_3 1_555 1_555
H11_3 C13_3 1_555 1_555
C14_3 C12_3 1_555 1_555
H12_3 C14_3 1_555 1_555
C15_5 H13_5 1_555 1_555
C16_5 H14_5 1_555 1_555
C17_3 C13_3 1_555 1_555
C18_5 H15_5 1_555 1_555
C19_5 H16_5 1_555 1_555
C20_5 C21_5 1_555 1_555
C21_5 H17_5 1_555 1_555
C22_5 C20_5 1_555 1_555
H18_5 C22_5 1_555 1_555
C23_3 C21_5 1_555 1_555
H19_3 C23_3 1_555 1_555
C24_5 C22_5 1_555 1_555
H20_5 C24_5 1_555 1_555
C25_3 C23_3 1_555 1_555
C26_4 C25_3 1_555 1_555
H21_3 C26_4 1_555 1_555
N1_4 C1_4 1_555 1_555
N2_4 C1_4 1_555 1_555
N3_4 C2_4 1_555 1_555
N4_5 C15_5 1_555 1_555
N15_2 C16_5 1_555 1_555
N18_2 C15_5 1_555 1_555
N7_5 C18_5 1_555 1_555
N8_3 Co3_3 1_555 1_555
Co5_3 N21_3 1_555 1_555
C44_5 H36_5 1_555 1_555
C45_5 H37_5 1_555 1_555
C46_5 C47_5 1_555 1_555
C47_5 H38_5 1_555 1_555
C48_5 C46_5 1_555 1_555
H39_5 C48_5 1_555 1_555
C49_3 C47_5 1_555 1_555
H40_3 C49_3 1_555 1_555
C50_5 C48_5 1_555 1_555
H41_5 C50_5 1_555 1_555
C51_3 C26_4 1_555 1_555
H42_3 C26_4 1_555 1_555
N16_3 Co3_3 1_555 1_555
N19_3 Co6_3 1_555 1_555
N20_5 C44_5 1_555 1_555
N21_3 C45_5 1_555 1_555
N23_3 C44_5 1_555 1_555
O4_4 Co6_3 1_555 1_555
O5_4 Co6_3 1_555 1_555
C2_4 N1_4 1_555 1_555
C3_4 N1_4 1_555 1_555
C7_4 C8_4 1_555 1_555
C14_3 C17_3 1_555 1_555
C16_5 N4_5 1_555 1_555
C17_3 N4_5 1_555 1_555
C18_5 N9_3 1_555 1_555
C19_5 N7_5 1_555 1_555
C19_5 N8_3 1_555 1_555
C20_5 N7_5 1_555 1_555
C24_5 C25_3 1_555 1_555
N2_4 N3_4 1_555 1_555
N8_3 N9_3 1_555 1_555
C45_5 N20_5 1_555 1_555
C46_5 N20_5 1_555 1_555
C49_3 C51_3 1_555 1_555
C50_5 C51_3 1_555 1_555
N16_3 N19_3 1_555 1_555
N21_3 N23_3 1_555 1_555
Co5_4 N3_5 1_555 1_555
C1_5 H1_5 1_555 1_555
C2_5 H2_5 1_555 1_555
C3_5 C4_5 1_555 1_555
C4_5 H3_5 1_555 1_555
C5_5 C3_5 1_555 1_555
C6_5 C4_5 1_555 1_555
H5_5 C6_5 1_555 1_555
C7_5 C5_5 1_555 1_555
H6_5 C7_5 1_555 1_555
C8_5 C6_5 1_555 1_555
C9_5 C8_5 1_555 1_555
H7_5 C9_5 1_555 1_555
H8_5 C9_5 1_555 1_555
C10_5 C9_5 1_555 1_555
C11_4 C10_5 1_555 1_555
H9_4 C11_4 1_555 1_555
C12_4 C10_5 1_555 1_555
H10_5 C12_4 1_555 1_555
C13_4 C11_4 1_555 1_555
H11_4 C13_4 1_555 1_555
C14_4 C12_4 1_555 1_555
H12_4 C14_4 1_555 1_555
C15_6 H13_6 1_555 1_555
C16_6 H14_6 1_555 1_555
C17_4 C13_4 1_555 1_555
N1_5 C1_5 1_555 1_555
N2_5 C1_5 1_555 1_555
N3_5 C2_5 1_555 1_555
N4_6 C15_6 1_555 1_555
N5_4 C16_6 1_555 1_555
N6_4 C15_6 1_555 1_555
Co4_2 N5_4 1_555 1_555
Co8_3 N6_4 1_555 1_555
O4_5 Co9_2 1_555 1_555
O5_5 Co9_2 1_555 1_555
C2_5 N1_5 1_555 1_555
C3_5 N1_5 1_555 1_555
C7_5 C8_5 1_555 1_555
C14_4 C17_4 1_555 1_555
C16_6 N4_6 1_555 1_555
C17_4 N4_6 1_555 1_555
N2_5 N3_5 1_555 1_555
N5_4 N6_4 1_555 1_555
Co4_2 N3_6 1_555 1_555
Co8_3 N2_6 1_555 1_555
C1_6 H1_6 1_555 1_555
C2_6 H2_6 1_555 1_555
C3_6 C4_6 1_555 1_555
C4_6 H3_6 1_555 1_555
C5_6 C3_6 1_555 1_555
H4_6 C5_6 1_555 1_555
C6_6 C4_6 1_555 1_555
H5_6 C6_6 1_555 1_555
C7_6 C5_6 1_555 1_555
H6_6 C7_6 1_555 1_555
C8_6 C6_6 1_555 1_555
C9_6 C8_6 1_555 1_555
H7_6 C9_6 1_555 1_555
C10_6 C9_6 1_555 1_555
N1_6 C1_6 1_555 1_555
N2_6 C1_6 1_555 1_555
N3_6 C2_6 1_555 1_555
O1_6 Co8_3 1_555 1_555
O2_6 Co8_3 1_555 1_555
O3_6 Co8_3 1_555 1_555
Co9_3 N11_6 1_555 1_555
C27_6 H22_6 1_555 1_555
C28_6 H23_6 1_555 1_555
C29_6 C30_6 1_555 1_555
C30_6 H24_6 1_555 1_555
C31_6 C29_6 1_555 1_555
H25_6 C31_6 1_555 1_555
C32_6 C30_6 1_555 1_555
H26_6 C32_6 1_555 1_555
C33_6 C31_6 1_555 1_555
H27_6 C33_6 1_555 1_555
C34_6 C32_6 1_555 1_555
C35_6 C34_6 1_555 1_555
H28_6 C35_6 1_555 1_555
H29_6 C35_6 1_555 1_555
C36_6 C35_6 1_555 1_555
C37_4 C36_6 1_555 1_555
H30_4 C37_4 1_555 1_555
C38_4 C36_6 1_555 1_555
H31_6 C38_4 1_555 1_555
C39_4 C37_4 1_555 1_555
H32_4 C39_4 1_555 1_555
C40_4 C38_4 1_555 1_555
H33_4 C40_4 1_555 1_555
C41_5 H34_5 1_555 1_555
C42_5 H35_5 1_555 1_555
C43_4 C39_4 1_555 1_555
N10_6 C27_6 1_555 1_555
N11_6 C27_6 1_555 1_555
N12_6 Co4_2 1_555 1_555
N13_5 C41_5 1_555 1_555
N16_3 C42_5 1_555 1_555
N19_3 C41_5 1_555 1_555
N22_6 Co4_2 1_555 1_555
N24_6 Co9_3 1_555 1_555
O4_6 Co9_3 1_555 1_555
O5_6 Co9_3 1_555 1_555
O6_6 Co9_3 1_555 1_555
C2_6 N1_6 1_555 1_555
C3_6 N1_6 1_555 1_555
C7_6 C8_6 1_555 1_555
N2_6 N3_6 1_555 1_555
C28_6 N10_6 1_555 1_555
C28_6 N12_6 1_555 1_555
C29_6 N10_6 1_555 1_555
C33_6 C34_6 1_555 1_555
C40_4 C43_4 1_555 1_555
C42_5 N13_5 1_555 1_555
C43_4 N13_5 1_555 1_555
N11_6 N12_6 1_555 1_555
N22_6 N24_6 1_555 1_555
C41_6 H34_6 1_555 1_555
C42_6 H35_6 1_555 1_555
N13_6 C41_6 1_555 1_555
N16_2 C42_6 1_555 1_555
N19_2 C41_6 1_555 1_555
C42_6 N13_6 1_555 1_555
H21_4 C26_5 1_555 1_555
C44_6 H36_6 1_555 1_555
C45_6 H37_6 1_555 1_555
C46_6 C47_6 1_555 1_555
C47_6 H38_6 1_555 1_555
C48_6 C46_6 1_555 1_555
H39_6 C48_6 1_555 1_555
C49_4 C47_6 1_555 1_555
H40_4 C49_4 1_555 1_555
C50_6 C48_6 1_555 1_555
H41_6 C50_6 1_555 1_555
C51_4 C26_5 1_555 1_555
N20_6 C44_6 1_555 1_555
N22_5 C45_6 1_555 1_555
N24_5 C44_6 1_555 1_555
C45_6 N20_6 1_555 1_555
C46_6 N20_6 1_555 1_555
C49_4 C51_4 1_555 1_555
C50_6 C51_4 1_555 1_555
C18_6 H15_6 1_555 1_555
C19_6 H16_6 1_555 1_555
C20_6 C21_6 1_555 1_555
C21_6 H17_6 1_555 1_555
C22_6 C20_6 1_555 1_555
H18_6 C22_6 1_555 1_555
C23_4 C21_6 1_555 1_555
H19_4 C23_4 1_555 1_555
C24_6 C22_6 1_555 1_555
H20_6 C24_6 1_555 1_555
C25_4 C23_4 1_555 1_555
C26_6 C25_4 1_555 1_555
N7_6 C18_6 1_555 1_555
H42_4 C26_6 1_555 1_555
C18_6 N24_6 1_555 1_555
C19_6 N7_6 1_555 1_555
C19_6 N22_6 1_555 1_555
C20_6 N7_6 1_555 1_555
C24_6 C25_4 1_555 1_555
C14_5 C12_5 1_555 1_555
H12_5 C14_5 1_555 1_555
C15_7 H13_7 1_555 1_555
H19_5 C23_5 1_555 1_555
C25_5 C23_5 1_555 1_555
C26_7 C25_5 1_555 1_555
H21_5 C26_7 1_555 1_555
N4_7 C15_7 1_555 1_555
N5_5 C16_7 1_555 1_555
N6_5 C15_7 1_555 1_555
Co3_4 N5_5 1_555 1_555
Co7_3 N6_5 1_555 1_555
H40_5 C49_5 1_555 1_555
C51_5 C26_7 1_555 1_555
H42_5 C26_7 1_555 1_555
C14_5 C17_5 1_555 1_555
C16_7 N4_7 1_555 1_555
C17_5 N4_7 1_555 1_555
N5_5 N6_5 1_555 1_555
C49_5 C51_5 1_555 1_555
H9_5 C11_5 1_555 1_555
C13_5 C11_5 1_555 1_555
H11_5 C13_5 1_555 1_555
Co3_4 N3_7 1_555 1_555
Co7_3 N2_7 1_555 1_555
C1_7 H1_7 1_555 1_555
C2_7 H2_7 1_555 1_555
C3_7 C4_7 1_555 1_555
C4_7 H3_7 1_555 1_555
C5_7 C3_7 1_555 1_555
H4_7 C5_7 1_555 1_555
C6_7 C4_7 1_555 1_555
H5_7 C6_7 1_555 1_555
C7_7 C5_7 1_555 1_555
H6_7 C7_7 1_555 1_555
C8_7 C6_7 1_555 1_555
C9_7 C8_7 1_555 1_555
H7_7 C9_7 1_555 1_555
H8_7 C9_7 1_555 1_555
C10_7 C9_7 1_555 1_555
C11_6 C10_7 1_555 1_555
H9_6 C11_6 1_555 1_555
C12_6 C10_7 1_555 1_555
H10_7 C12_6 1_555 1_555
C13_6 C11_6 1_555 1_555
H11_6 C13_6 1_555 1_555
C14_6 C12_6 1_555 1_555
H12_6 C14_6 1_555 1_555
C17_6 C13_6 1_555 1_555
C18_7 H15_7 1_555 1_555
C22_7 C20_7 1_555 1_555
H18_7 C22_7 1_555 1_555
C24_7 C22_7 1_555 1_555
H20_7 C24_7 1_555 1_555
C26_8 C25_6 1_555 1_555
H21_6 C26_8 1_555 1_555
N1_7 C1_7 1_555 1_555
N2_7 C1_7 1_555 1_555
N3_7 C2_7 1_555 1_555
N7_7 C18_7 1_555 1_555
N8_4 Co3_4 1_555 1_555
N9_4 Co7_3 1_555 1_555
O1_7 Co7_3 1_555 1_555
O2_7 Co7_3 1_555 1_555
O3_7 Co7_3 1_555 1_555
C47_7 H38_7 1_555 1_555
C49_6 C47_7 1_555 1_555
H40_6 C49_6 1_555 1_555
C2_7 N1_7 1_555 1_555
C3_7 N1_7 1_555 1_555
C7_7 C8_7 1_555 1_555
C14_6 C17_6 1_555 1_555
C18_7 N9_4 1_555 1_555
C19_7 N7_7 1_555 1_555
C19_7 N8_4 1_555 1_555
C20_7 N7_7 1_555 1_555
C24_7 C25_6 1_555 1_555
N2_7 N3_7 1_555 1_555
N8_4 N9_4 1_555 1_555
C21_7 H17_7 1_555 1_555
C23_6 C21_7 1_555 1_555
H19_6 C23_6 1_555 1_555
Co4_6 N21_4 1_555 1_555
Co6_4 N11_7 1_555 1_555
Co8_4 N23_4 1_555 1_555
C27_7 H22_7 1_555 1_555
C28_7 H23_7 1_555 1_555
C29_7 C30_7 1_555 1_555
C30_7 H24_7 1_555 1_555
C31_7 C29_7 1_555 1_555
H25_7 C31_7 1_555 1_555
C32_7 C30_7 1_555 1_555
H26_7 C32_7 1_555 1_555
C33_7 C31_7 1_555 1_555
H27_7 C33_7 1_555 1_555
C34_7 C32_7 1_555 1_555
C35_7 C34_7 1_555 1_555
H28_7 C35_7 1_555 1_555
H29_7 C35_7 1_555 1_555
C36_7 C35_7 1_555 1_555
C37_5 C36_7 1_555 1_555
H30_5 C37_5 1_555 1_555
C38_5 C36_7 1_555 1_555
H31_7 C38_5 1_555 1_555
C39_5 C37_5 1_555 1_555
H32_5 C39_5 1_555 1_555
C40_5 C38_5 1_555 1_555
H33_5 C40_5 1_555 1_555
C43_5 C39_5 1_555 1_555
C44_7 H36_7 1_555 1_555
C48_7 C46_7 1_555 1_555
H39_7 C48_7 1_555 1_555
C50_7 C48_7 1_555 1_555
H41_7 C50_7 1_555 1_555
C51_6 C26_9 1_555 1_555
H42_6 C26_9 1_555 1_555
N10_7 C27_7 1_555 1_555
N11_7 C27_7 1_555 1_555
N12_7 Co3_5 1_555 1_555
N16_4 Co3_5 1_555 1_555
N19_4 Co6_4 1_555 1_555
N20_7 C44_7 1_555 1_555
N21_4 C45_7 1_555 1_555
N22_7 Co3_5 1_555 1_555
N23_4 C44_7 1_555 1_555
N24_7 Co6_4 1_555 1_555
O4_7 Co6_4 1_555 1_555
O5_7 Co6_4 1_555 1_555
O6_7 Co6_4 1_555 1_555
C28_7 N10_7 1_555 1_555
C28_7 N12_7 1_555 1_555
C29_7 N10_7 1_555 1_555
C33_7 C34_7 1_555 1_555
C40_5 C43_5 1_555 1_555
C45_7 N20_7 1_555 1_555
C46_7 N20_7 1_555 1_555
C50_7 C51_6 1_555 1_555
N11_7 N12_7 1_555 1_555
N16_4 N19_4 1_555 1_555
N21_4 N23_4 1_555 1_555
N22_7 N24_7 1_555 1_555
Co4_3 N14_4 1_555 1_555
Co9_4 N17_4 1_555 1_555
C40_6 C38_6 1_555 1_555
H33_6 C40_6 1_555 1_555
C41_7 H34_7 1_555 1_555
N13_7 C41_7 1_555 1_555
N14_4 C42_7 1_555 1_555
N17_4 C41_7 1_555 1_555
C40_6 C43_6 1_555 1_555
C42_7 N13_7 1_555 1_555
C43_6 N13_7 1_555 1_555
N14_4 N17_4 1_555 1_555
H30_6 C37_6 1_555 1_555
C39_6 C37_6 1_555 1_555
H32_6 C39_6 1_555 1_555
H30_7 C37_7 1_555 1_555
C39_7 C37_7 1_555 1_555
H32_7 C39_7 1_555 1_555
C40_7 C38_7 1_555 1_555
H33_7 C40_7 1_555 1_555
C41_8 H34_8 1_555 1_555
N13_8 C41_8 1_555 1_555
N16_4 C42_8 1_555 1_555
N19_4 C41_8 1_555 1_555
C40_7 C43_7 1_555 1_555
C42_8 N13_8 1_555 1_555
C43_7 N13_8 1_555 1_555
H9_7 C11_7 1_555 1_555
C13_7 C11_7 1_555 1_555
H11_7 C13_7 1_555 1_555
C14_7 C12_7 1_555 1_555
H12_7 C14_7 1_555 1_555
C15_8 H13_8 1_555 1_555
N4_8 C15_8 1_555 1_555
N5_6 C16_8 1_555 1_555
N6_6 C15_8 1_555 1_555
Co4_6 N5_6 1_555 1_555
Co8_4 N6_6 1_555 1_555
C14_7 C17_7 1_555 1_555
C16_8 N4_8 1_555 1_555
C17_7 N4_8 1_555 1_555
N5_6 N6_6 1_555 1_555
N22_8 Co4_3 1_555 1_555
N24_8 Co9_4 1_555 1_555
O4_8 Co9_4 1_555 1_555
O5_8 Co9_4 1_555 1_555
O6_8 Co9_4 1_555 1_555
N22_8 N24_8 1_555 1_555
C27_8 H22_8 1_555 1_555
C28_8 H23_8 1_555 1_555
C29_8 C30_8 1_555 1_555
C30_8 H24_8 1_555 1_555
C31_8 C29_8 1_555 1_555
H25_8 C31_8 1_555 1_555
C32_8 C30_8 1_555 1_555
H26_8 C32_8 1_555 1_555
C33_8 C31_8 1_555 1_555
H27_8 C33_8 1_555 1_555
C34_8 C32_8 1_555 1_555
C35_8 C34_8 1_555 1_555
H28_8 C35_8 1_555 1_555
H29_8 C35_8 1_555 1_555
C36_8 C35_8 1_555 1_555
C37_8 C36_8 1_555 1_555
H30_8 C37_8 1_555 1_555
C38_8 C36_8 1_555 1_555
H31_8 C38_8 1_555 1_555
C39_8 C37_8 1_555 1_555
H32_8 C39_8 1_555 1_555
C40_8 C38_8 1_555 1_555
H33_8 C40_8 1_555 1_555
C43_8 C39_8 1_555 1_555
N10_8 C27_8 1_555 1_555
N11_8 C27_8 1_555 1_555
N12_8 Co4_4 1_555 1_555
C28_8 N10_8 1_555 1_555
C28_8 N12_8 1_555 1_555
C29_8 N10_8 1_555 1_555
C33_8 C34_8 1_555 1_555
C40_8 C43_8 1_555 1_555
N11_8 N12_8 1_555 1_555
Co4_5 N3_8 1_555 1_555
C1_8 H1_8 1_555 1_555
C2_8 H2_8 1_555 1_555
C3_8 C4_8 1_555 1_555
C4_8 H3_8 1_555 1_555
C5_8 C3_8 1_555 1_555
H4_8 C5_8 1_555 1_555
C6_8 C4_8 1_555 1_555
H5_8 C6_8 1_555 1_555
C7_8 C5_8 1_555 1_555
H6_8 C7_8 1_555 1_555
C8_8 C6_8 1_555 1_555
C9_8 C8_8 1_555 1_555
H7_8 C9_8 1_555 1_555
H8_8 C9_8 1_555 1_555
C10_8 C9_8 1_555 1_555
C11_8 C10_8 1_555 1_555
H9_8 C11_8 1_555 1_555
C12_8 C10_8 1_555 1_555
H10_8 C12_8 1_555 1_555
C13_8 C11_8 1_555 1_555
H11_8 C13_8 1_555 1_555
C14_8 C12_8 1_555 1_555
H12_8 C14_8 1_555 1_555
C17_8 C13_8 1_555 1_555
N1_8 C1_8 1_555 1_555
N2_8 C1_8 1_555 1_555
N3_8 C2_8 1_555 1_555
C2_8 N1_8 1_555 1_555
C3_8 N1_8 1_555 1_555
C7_8 C8_8 1_555 1_555
C14_8 C17_8 1_555 1_555
N2_8 N3_8 1_555 1_555
O1_8 Co8_4 1_555 1_555
O2_8 Co8_4 1_555 1_555
O3_8 Co8_4 1_555 1_555
H19_7 C23_7 1_555 1_555
C25_7 C23_7 1_555 1_555
C26_10 C25_7 1_555 1_555
H21_7 C26_10 1_555 1_555
H40_7 C49_7 1_555 1_555
C51_7 C26_10 1_555 1_555
H42_7 C26_10 1_555 1_555
C49_7 C51_7 1_555 1_555
C21_8 H17_8 1_555 1_555
C23_8 C21_8 1_555 1_555
H19_8 C23_8 1_555 1_555
C44_8 H36_8 1_555 1_555
C48_8 C46_8 1_555 1_555
H39_8 C48_8 1_555 1_555
C50_8 C48_8 1_555 1_555
H41_8 C50_8 1_555 1_555
C51_8 C26_11 1_555 1_555
H42_8 C26_11 1_555 1_555
N20_8 C44_8 1_555 1_555
N22_8 C45_8 1_555 1_555
N24_8 C44_8 1_555 1_555
C45_8 N20_8 1_555 1_555
C46_8 N20_8 1_555 1_555
C50_8 C51_8 1_555 1_555
C18_8 H15_8 1_555 1_555
C22_8 C20_8 1_555 1_555
H18_8 C22_8 1_555 1_555
C24_8 C22_8 1_555 1_555
H20_8 C24_8 1_555 1_555
C26_12 C25_8 1_555 1_555
H21_8 C26_12 1_555 1_555
N7_8 C18_8 1_555 1_555
C47_8 H38_8 1_555 1_555
C49_8 C47_8 1_555 1_555
H40_8 C49_8 1_555 1_555
C18_8 N24_7 1_555 1_555
C19_8 N7_8 1_555 1_555
C19_8 N22_7 1_555 1_555
C20_8 N7_8 1_555 1_555
C24_8 C25_8 1_555 1_555
N25 O7 1_555 1_555
O8 N25 1_555 1_555
O9 N25 1_555 1_555
N25_2 O7_2 1_555 1_555
O8_2 N25_2 1_555 1_555
O9_2 N25_2 1_555 1_555
N25_3 O7_3 1_555 1_555
O8_3 N25_3 1_555 1_555
O9_3 N25_3 1_555 1_555
N25_4 O7_4 1_555 1_555
O8_4 N25_4 1_555 1_555
O9_4 N25_4 1_555 1_555
N25_5 O7_5 1_555 1_555
O8_5 N25_5 1_555 1_555
O9_5 N25_5 1_555 1_555
N25_6 O7_6 1_555 1_555
O8_6 N25_6 1_555 1_555
O9_6 N25_6 1_555 1_555
N25_7 O7_7 1_555 1_555
O8_7 N25_7 1_555 1_555
O9_7 N25_7 1_555 1_555
N25_8 O7_8 1_555 1_555
O8_8 N25_8 1_555 1_555
O9_8 N25_8 1_555 1_555
N25_9 O7_9 1_555 1_555
O8_9 N25_9 1_555 1_555
O9_9 N25_9 1_555 1_555
N25_10 O7_10 1_555 1_555
O8_10 N25_10 1_555 1_555
O9_10 N25_10 1_555 1_555
N25_11 O7_11 1_555 1_555
O8_11 N25_11 1_555 1_555
O9_11 N25_11 1_555 1_555
N25_12 O7_12 1_555 1_555
O8_12 N25_12 1_555 1_555
O9_12 N25_12 1_555 1_555
N25_13 O7_13 1_555 1_555
O8_13 N25_13 1_555 1_555
O9_13 N25_13 1_555 1_555
N25_14 O7_14 1_555 1_555
O8_14 N25_14 1_555 1_555
O9_14 N25_14 1_555 1_555
N25_15 O7_15 1_555 1_555
O8_15 N25_15 1_555 1_555
O9_15 N25_15 1_555 1_555
N25_16 O7_16 1_555 1_555
O8_16 N25_16 1_555 1_555
O9_16 N25_16 1_555 1_555
N26 O10 1_555 1_555
O11 N26 1_555 1_555
O12 N26 1_555 1_555
N26_2 O10_2 1_555 1_555
O11_2 N26_2 1_555 1_555
O12_2 N26_2 1_555 1_555
N26_3 O10_3 1_555 1_555
O11_3 N26_3 1_555 1_555
O12_3 N26_3 1_555 1_555
N26_4 O10_4 1_555 1_555
O11_4 N26_4 1_555 1_555
N26_5 O10_5 1_555 1_555
O11_5 N26_5 1_555 1_555
O12_5 N26_5 1_555 1_555
N26_6 O10_6 1_555 1_555
O11_6 N26_6 1_555 1_555
N26_7 O10_7 1_555 1_555
O11_7 N26_7 1_555 1_555
O12_7 N26_7 1_555 1_555
N26_8 O10_8 1_555 1_555
O11_8 N26_8 1_555 1_555
O12_8 N26_8 1_555 1_555
N26_9 O10_9 1_555 1_555
O11_9 N26_9 1_555 1_555
O12_9 N26_9 1_555 1_555
N26_10 O10_10 1_555 1_555
O11_10 N26_10 1_555 1_555
O12_10 N26_10 1_555 1_555
N26_11 O10_11 1_555 1_555
O11_11 N26_11 1_555 1_555
O12_11 N26_11 1_555 1_555
N26_12 O10_12 1_555 1_555
O11_12 N26_12 1_555 1_555
N26_13 O10_13 1_555 1_555
O11_13 N26_13 1_555 1_555
O12_13 N26_13 1_555 1_555
N26_14 O10_14 1_555 1_555
O11_14 N26_14 1_555 1_555
N26_15 O10_15 1_555 1_555
O11_15 N26_15 1_555 1_555
O12_15 N26_15 1_555 1_555
N26_16 O10_16 1_555 1_555
O11_16 N26_16 1_555 1_555
O12_16 N26_16 1_555 1_555
O13 N27 1_555 1_555
O14 N27 1_555 1_555
O13_2 N27_2 1_555 1_555
O14_2 N27_2 1_555 1_555
N27_2 O15_2 1_555 1_555
O13_3 N27_3 1_555 1_555
O14_3 N27_3 1_555 1_555
N27_3 O15_3 1_555 1_555
O13_4 N27_4 1_555 1_555
O14_4 N27_4 1_555 1_555
N27_4 O15_4 1_555 1_555
O13_5 N27_5 1_555 1_555
O14_5 N27_5 1_555 1_555
N27_5 O15_5 1_555 1_555
O13_6 N27_6 1_555 1_555
N27_6 O15_6 1_555 1_555
O13_7 N27_7 1_555 1_555
O14_7 N27_7 1_555 1_555
O13_8 N27_8 1_555 1_555
N27_8 O15_8 1_555 1_555
O13_9 N27_9 1_555 1_555
O14_9 N27_9 1_555 1_555
O13_10 N27_10 1_555 1_555
O14_10 N27_10 1_555 1_555
N27_10 O15_10 1_555 1_555
O13_11 N27_11 1_555 1_555
O14_11 N27_11 1_555 1_555
N27_11 O15_11 1_555 1_555
O13_12 N27_12 1_555 1_555
O14_12 N27_12 1_555 1_555
N27_12 O15_12 1_555 1_555
O13_13 N27_13 1_555 1_555
O14_13 N27_13 1_555 1_555
N27_13 O15_13 1_555 1_555
O13_14 N27_14 1_555 1_555
N27_14 O15_14 1_555 1_555
O13_15 N27_15 1_555 1_555
O14_15 N27_15 1_555 1_555
O13_16 N27_16 1_555 1_555
N27_16 O15_16 1_555 1_555

#END
