
###############################################################################
#
# This file contains modified crystal structure data generated from the
# MOF subset of the Cambridge Structural Database (CSD) v543 
# hosted by the Cambridge Crystallographic Data Centre (CCDC).
#
# This work is licensed under the Creative Commons
# Attribution-NonCommercial-ShareAlike 4.0 International License.
# To view a copy of this license, visit
# http://creativecommons.org/licenses/by-nc-sa/4.0/
# or send a letter to
# Creative Commons, PO Box 1866, Mountain View, CA 94042, USA.
#
# CIF created using the CSD Python API on 29 September 2022
# The structure has been converted into the P1 space group
# The structure has a 3D framework
# The original CSD entry MARNOL01 is in the orthorhombic crystal system
# The framework has been calculated to contain at least 10.0% void space
# The void calculation uses a probe of radius 1.32A, grid spacing 0.4
#
###############################################################################

data_MARNOL01
_chemical_formula_moiety         '(C144 H104 Co13 N24 O60)n'
_symmetry_cell_setting           triclinic
_symmetry_space_group_name_H-M   'P 1'
_symmetry_Int_Tables_number      1
_space_group_name_Hall           'P 1'
loop_
_symmetry_equiv_pos_site_id
_symmetry_equiv_pos_as_xyz
1 x,y,z
_cell_length_a                   14.932(3)
_cell_length_b                   17.072(3)
_cell_length_c                   21.282(4)
_cell_angle_alpha                90
_cell_angle_beta                 90
_cell_angle_gamma                90
_cell_volume                     5425.19
loop_
_atom_site_label
_atom_site_type_symbol
_atom_site_fract_x
_atom_site_fract_y
_atom_site_fract_z
Co8 Co 0.057337(16) 0.889506(14) 0.391498(12)
Co1 Co 0.598889(17) 0.468626(15) 0.487662(12)
Co2 Co 0.442663(16) 0.389506(14) 0.391498(12)
O1 O 0.88202(10) 0.57294(8) 0.08150(7)
O2 O 0.83671(10) 0.46204(8) 0.12860(7)
O3 O 0.59924(10) 0.81688(8) 0.18809(7)
O4 O 0.64868(10) 0.79047(8) 0.09308(7)
O5 O 0.85256(10) 0.86044(9) 0.45922(8)
O6 O 0.95936(10) 0.80540(9) 0.39986(9)
O7 O 0.46295(9) 0.43070(8) 0.48043(6)
H1 H 0.4491(14) 0.3909(11) 0.5066(10)
O8 O 0.73578(11) 0.50302(12) 0.49032(9)
H2 H 0.7688(19) 0.5446(17) 0.5130(14)
H3 H 0.773(2) 0.4830(18) 0.4693(15)
N1 N 0.61822(11) 0.54729(9) 0.29534(7)
N2 N 0.59280(10) 0.51029(9) 0.39169(7)
N3 N 0.53525(11) 0.46972(9) 0.35228(8)
C1 C 0.64127(12) 0.55732(11) 0.35688(9)
C2 C 0.55091(13) 0.49285(12) 0.29472(9)
C3 C 0.65857(13) 0.58450(11) 0.24141(9)
C4 C 0.72297(13) 0.54362(11) 0.20780(9)
H4 H 0.7397 0.4934 0.2200
C5 C 0.76236(13) 0.57862(11) 0.15545(9)
C6 C 0.73464(13) 0.65279(11) 0.13685(9)
H5 H 0.7593 0.6756 0.1011
C7 C 0.67023(13) 0.69324(11) 0.17133(10)
C8 C 0.63230(13) 0.65949(11) 0.22481(9)
H6 H 0.5904 0.6867 0.2487
C9 C 0.83306(13) 0.53498(11) 0.11889(9)
C10 C 0.63829(13) 0.77207(11) 0.14980(10)
C11 C 0.70660(14) 0.61747(11) 0.37795(9)
C12 C 0.67526(14) 0.67988(13) 0.41309(12)
H7 H 0.6154 0.6819 0.4251
C13 C 0.73348(15) 0.73949(13) 0.43043(11)
H8 H 0.7127 0.7807 0.4550
C14 C 0.82260(14) 0.73825(12) 0.41149(10)
C15 C 0.85423(15) 0.67463(13) 0.37693(12)
H9 H 0.9141 0.6726 0.3649
C16 C 0.79658(15) 0.61434(13) 0.36045(12)
H10 H 0.8179 0.5718 0.3377
C17 C 0.88338(14) 0.80698(12) 0.42529(10)
C18 C 0.50215(19) 0.46782(17) 0.23707(11)
H11 H 0.5261 0.4949 0.2013
H12 H 0.4397 0.4801 0.2414
H13 H 0.5092 0.4124 0.2314
Co4 Co 0.401111(17) 0.531374(15) 0.512338(12)
Co5 Co 0.901111(17) 0.968626(15) 0.487662(12)
Co6 Co 0.557337(16) 0.889506(14) 0.108502(12)
Co7 Co 0.942663(16) 0.389506(14) 0.108502(12)
O9 O 0.61798(10) 0.42706(8) 0.58150(7)
O10 O 0.33671(10) 0.46204(8) 0.37140(7)
O11 O 0.40076(10) 0.31688(8) 0.31191(7)
O12 O 0.35132(10) 0.29047(8) 0.40692(7)
O13 O 0.64744(10) 0.36044(9) 0.45922(8)
O14 O 0.54064(10) 0.30540(9) 0.39986(9)
O15 O 0.53705(9) 0.56930(8) 0.51957(6)
Co3 Co 0.901111(17) 0.531374(15) 0.987662(12)
H1_2 H 0.0509(14) 0.6091(11) 0.0066(10)
Co4_2 Co 0.098889(17) 0.468626(15) 0.012338(12)
Co2_2 Co 0.057337(16) 0.610494(14) 0.891498(12)
O7_2 O 0.03705(9) 0.56930(8) 0.98043(6)
H12_2 H 0.0603 0.5199 0.7414
O10_2 O 0.16329(10) 0.53796(8) 0.87140(7)
O11_2 O 0.09924(10) 0.68312(8) 0.81191(7)
O12_2 O 0.14868(10) 0.70953(8) 0.90692(7)
H2_2 H 0.7312(19) 0.4554(17) 0.0130(14)
O15_2 O 0.96295(9) 0.43070(8) 0.01957(6)
O2_2 O 0.66329(10) 0.53796(8) 0.62860(7)
O3_2 O 0.90076(10) 0.18312(8) 0.68809(7)
O4_2 O 0.85132(10) 0.20953(8) 0.59308(7)
O5_2 O 0.64744(10) 0.13956(9) 0.95922(8)
O6_2 O 0.54064(10) 0.19460(9) 0.89986(9)
O8_2 O 0.76422(11) 0.49698(12) 0.99032(9)
H3_2 H 0.727(2) 0.5170(18) 0.9693(15)
N1_2 N 0.88178(11) 0.45271(9) 0.79534(7)
N2_2 N 0.90720(10) 0.48971(9) 0.89169(7)
N3_2 N 0.96475(11) 0.53028(9) 0.85228(8)
C1_2 C 0.85873(12) 0.44268(11) 0.85688(9)
C2_2 C 0.94909(13) 0.50715(12) 0.79472(9)
C3_2 C 0.84143(13) 0.41550(11) 0.74141(9)
C4_2 C 0.77703(13) 0.45638(11) 0.70780(9)
H4_2 H 0.7603 0.5066 0.7200
C5_2 C 0.73764(13) 0.42138(11) 0.65545(9)
C6_2 C 0.76536(13) 0.34721(11) 0.63685(9)
H5_2 H 0.7407 0.3244 0.6011
C7_2 C 0.82977(13) 0.30676(11) 0.67133(10)
C8_2 C 0.86770(13) 0.34051(11) 0.72481(9)
H6_2 H 0.9096 0.3133 0.7487
C9_2 C 0.66694(13) 0.46502(11) 0.61889(9)
C10_2 C 0.86171(13) 0.22793(11) 0.64980(10)
C11_2 C 0.79340(14) 0.38253(11) 0.87795(9)
C12_2 C 0.82474(14) 0.32012(13) 0.91309(12)
H7_2 H 0.8846 0.3181 0.9251
C13_2 C 0.76652(15) 0.26051(13) 0.93043(11)
H8_2 H 0.7873 0.2193 0.9550
C14_2 C 0.67740(14) 0.26175(12) 0.91149(10)
C15_2 C 0.64577(15) 0.32537(13) 0.87693(12)
H9_2 H 0.5859 0.3274 0.8649
C16_2 C 0.70342(15) 0.38566(13) 0.86045(12)
H10_2 H 0.6821 0.4282 0.8377
C17_2 C 0.61662(14) 0.19302(12) 0.92529(10)
C18_2 C 0.99785(19) 0.53218(17) 0.73707(11)
H11_2 H 0.9739 0.5051 0.7013
H13_2 H 0.9908 0.5876 0.7314
Co5_2 Co 0.598889(17) 0.031374(15) 0.987662(12)
Co6_2 Co 0.942663(16) 0.110494(14) 0.608502(12)
Co7_2 Co 0.557337(16) 0.610494(14) 0.608502(12)
Co8_2 Co 0.442663(16) 0.110494(14) 0.891498(12)
O13_2 O 0.85256(10) 0.63956(9) 0.95922(8)
O14_2 O 0.95936(10) 0.69460(9) 0.89986(9)
O1_2 O 0.11798(10) 0.07294(8) 0.41850(7)
O5_3 O 0.14744(10) 0.36044(9) 0.04078(8)
O6_3 O 0.04064(10) 0.30540(9) 0.10014(9)
O8_3 O 0.26422(11) 0.00302(12) 0.00968(9)
N1_3 N 0.38178(11) 0.04729(9) 0.20466(7)
N2_3 N 0.40720(10) 0.01029(9) 0.10831(7)
C1_3 C 0.35873(12) 0.05732(11) 0.14312(9)
C3_3 C 0.34143(13) 0.08450(11) 0.25859(9)
C4_3 C 0.27703(13) 0.04362(11) 0.29220(9)
C5_3 C 0.23764(13) 0.07862(11) 0.34455(9)
C6_3 C 0.26536(13) 0.15279(11) 0.36315(9)
H5_3 H 0.2407 0.1756 0.3989
C7_3 C 0.32977(13) 0.19324(11) 0.32867(10)
C8_3 C 0.36770(13) 0.15949(11) 0.27519(9)
H6_3 H 0.4096 0.1867 0.2513
C9_3 C 0.16694(13) 0.03498(11) 0.38111(9)
C10_3 C 0.36171(13) 0.27207(11) 0.35020(10)
C11_3 C 0.29340(14) 0.11747(11) 0.12205(9)
C12_3 C 0.32474(14) 0.17988(13) 0.08691(12)
H7_3 H 0.3846 0.1819 0.0749
C13_3 C 0.26652(15) 0.23949(13) 0.06957(11)
H8_3 H 0.2873 0.2807 0.0450
C14_3 C 0.17740(14) 0.23825(12) 0.08851(10)
C15_3 C 0.14577(15) 0.17463(13) 0.12307(12)
H9_3 H 0.0859 0.1726 0.1351
C16_3 C 0.20342(15) 0.11434(13) 0.13955(12)
H10_3 H 0.1821 0.0718 0.1623
C17_3 C 0.11662(14) 0.30698(12) 0.07471(10)
Co3_2 Co 0.098889(17) 0.031374(15) 0.512338(12)
H2_3 H 0.2312(19) 0.0446(17) 0.9870(14)
O15_3 O 0.46295(9) 0.06930(8) 0.98043(6)
Co1_2 Co 0.401111(17) 0.968626(15) 0.012338(12)
O2_3 O 0.16329(10) 0.96204(8) 0.37140(7)
O7_3 O 0.53705(9) 0.93070(8) 0.01957(6)
H3_3 H 0.227(2) 0.9830(18) 0.0307(15)
N3_3 N 0.46475(11) 0.96972(9) 0.14772(8)
C2_3 C 0.44909(13) 0.99285(12) 0.20528(9)
H4_3 H 0.2603 0.9934 0.2800
C18_3 C 0.49785(19) 0.96782(17) 0.26293(11)
H11_3 H 0.4739 0.9949 0.2987
H12_3 H 0.5603 0.9801 0.2586
H13_3 H 0.4908 0.9124 0.2686
O10_3 O 0.66329(10) 0.96204(8) 0.12860(7)
O13_3 O 0.35256(10) 0.86044(9) 0.04078(8)
O14_3 O 0.45936(10) 0.80540(9) 0.10014(9)
H1_3 H 0.5509(14) 0.8909(11) 0.9934(10)
O9_2 O 0.38202(10) 0.92706(8) 0.91850(7)
O2_4 O 0.33671(10) 0.03796(8) 0.87140(7)
H3_4 H 0.273(2) 0.0170(18) 0.5307(15)
N3_4 N 0.03525(11) 0.03028(9) 0.64772(8)
C2_4 C 0.05091(13) 0.00715(12) 0.70528(9)
H4_4 H 0.2397 0.0066 0.7800
C18_4 C 0.00215(19) 0.03218(17) 0.76293(11)
H11_4 H 0.0261 0.0051 0.7987
H13_4 H 0.0092 0.0876 0.7686
O13_4 O 0.14744(10) 0.13956(9) 0.54078(8)
O14_4 O 0.04064(10) 0.19460(9) 0.60014(9)
O5_4 O 0.35256(10) 0.63956(9) 0.54078(8)
O6_4 O 0.45936(10) 0.69460(9) 0.60014(9)
O8_4 O 0.23578(11) 0.99698(12) 0.50968(9)
H2_4 H 0.2688(19) 0.9554(17) 0.4870(14)
N1_4 N 0.11822(11) 0.95271(9) 0.70466(7)
N2_4 N 0.09280(10) 0.98971(9) 0.60831(7)
C1_4 C 0.14127(12) 0.94268(11) 0.64312(9)
C3_4 C 0.15857(13) 0.91550(11) 0.75859(9)
C4_4 C 0.22297(13) 0.95638(11) 0.79220(9)
C5_4 C 0.26236(13) 0.92138(11) 0.84455(9)
C6_4 C 0.23464(13) 0.84721(11) 0.86315(9)
H5_4 H 0.2593 0.8244 0.8989
C7_4 C 0.17023(13) 0.80676(11) 0.82867(10)
C8_4 C 0.13230(13) 0.84051(11) 0.77519(9)
H6_4 H 0.0904 0.8133 0.7513
C9_4 C 0.33306(13) 0.96502(11) 0.88111(9)
C10_4 C 0.13829(13) 0.72793(11) 0.85020(10)
C11_4 C 0.20660(14) 0.88253(11) 0.62205(9)
C12_4 C 0.17526(14) 0.82012(13) 0.58691(12)
H7_4 H 0.1154 0.8181 0.5749
C13_4 C 0.23348(15) 0.76051(13) 0.56957(11)
H8_4 H 0.2127 0.7193 0.5450
C14_4 C 0.32260(14) 0.76175(12) 0.58851(10)
C15_4 C 0.35423(15) 0.82537(13) 0.62307(12)
H9_4 H 0.4141 0.8274 0.6351
C16_4 C 0.29658(15) 0.88566(13) 0.63955(12)
H10_4 H 0.3179 0.9282 0.6623
C17_4 C 0.38338(14) 0.69302(12) 0.57471(10)
O15_4 O 0.03705(9) 0.93070(8) 0.48043(6)
O7_4 O 0.96295(9) 0.06930(8) 0.51957(6)
H1_4 H 0.9491(14) 0.1091(11) 0.4934(10)
H12_4 H 0.9397 0.0199 0.7586
O10_4 O 0.83671(10) 0.03796(8) 0.62860(7)
O1_3 O 0.11798(10) 0.42706(8) 0.91850(7)
O3_3 O 0.40076(10) 0.18312(8) 0.81191(7)
O4_3 O 0.35132(10) 0.20953(8) 0.90692(7)
H1_5 H 0.5509(14) 0.6091(11) 0.4934(10)
O8_5 O 0.26422(11) 0.49698(12) 0.50968(9)
H2_5 H 0.2312(19) 0.4554(17) 0.4870(14)
H3_5 H 0.227(2) 0.5170(18) 0.5307(15)
N1_5 N 0.38178(11) 0.45271(9) 0.70466(7)
N2_5 N 0.40720(10) 0.48971(9) 0.60831(7)
N3_5 N 0.46475(11) 0.53028(9) 0.64772(8)
C1_5 C 0.35873(12) 0.44268(11) 0.64312(9)
C2_5 C 0.44909(13) 0.50715(12) 0.70528(9)
C3_5 C 0.34143(13) 0.41550(11) 0.75859(9)
C4_5 C 0.27703(13) 0.45638(11) 0.79220(9)
H4_5 H 0.2603 0.5066 0.7800
C5_5 C 0.23764(13) 0.42138(11) 0.84455(9)
C6_5 C 0.26536(13) 0.34721(11) 0.86315(9)
H5_5 H 0.2407 0.3244 0.8989
C7_5 C 0.32977(13) 0.30676(11) 0.82867(10)
C8_5 C 0.36770(13) 0.34051(11) 0.77519(9)
H6_5 H 0.4096 0.3133 0.7513
C9_5 C 0.16694(13) 0.46502(11) 0.88111(9)
C10_5 C 0.36171(13) 0.22793(11) 0.85020(10)
C11_5 C 0.29340(14) 0.38253(11) 0.62205(9)
C12_5 C 0.32474(14) 0.32012(13) 0.58691(12)
H7_5 H 0.3846 0.3181 0.5749
C13_5 C 0.26652(15) 0.26051(13) 0.56957(11)
H8_5 H 0.2873 0.2193 0.5450
C14_5 C 0.17740(14) 0.26175(12) 0.58851(10)
C15_5 C 0.14577(15) 0.32537(13) 0.62307(12)
H9_5 H 0.0859 0.3274 0.6351
C16_5 C 0.20342(15) 0.38566(13) 0.63955(12)
H10_5 H 0.1821 0.4282 0.6623
C17_5 C 0.11662(14) 0.19302(12) 0.57471(10)
C18_5 C 0.49785(19) 0.53218(17) 0.76293(11)
H11_5 H 0.4739 0.5051 0.7987
H12_5 H 0.5603 0.5199 0.7586
H13_5 H 0.4908 0.5876 0.7686
O9_3 O 0.38202(10) 0.57294(8) 0.41850(7)
O11_3 O 0.59924(10) 0.68312(8) 0.68809(7)
O12_3 O 0.64868(10) 0.70953(8) 0.59308(7)
O3_4 O 0.09924(10) 0.81688(8) 0.31191(7)
O4_4 O 0.14868(10) 0.79047(8) 0.40692(7)
O8_6 O 0.23578(11) 0.50302(12) 0.00968(9)
H3_6 H 0.273(2) 0.4830(18) 0.0307(15)
N1_6 N 0.11822(11) 0.54729(9) 0.20466(7)
N2_6 N 0.09280(10) 0.51029(9) 0.10831(7)
N3_6 N 0.03525(11) 0.46972(9) 0.14772(8)
C1_6 C 0.14127(12) 0.55732(11) 0.14312(9)
C2_6 C 0.05091(13) 0.49285(12) 0.20528(9)
C3_6 C 0.15857(13) 0.58450(11) 0.25859(9)
C4_6 C 0.22297(13) 0.54362(11) 0.29220(9)
H4_6 H 0.2397 0.4934 0.2800
C5_6 C 0.26236(13) 0.57862(11) 0.34455(9)
C6_6 C 0.23464(13) 0.65279(11) 0.36315(9)
H5_6 H 0.2593 0.6756 0.3989
C7_6 C 0.17023(13) 0.69324(11) 0.32867(10)
C8_6 C 0.13230(13) 0.65949(11) 0.27519(9)
H6_6 H 0.0904 0.6867 0.2513
C9_6 C 0.33306(13) 0.53498(11) 0.38111(9)
C10_6 C 0.13829(13) 0.77207(11) 0.35020(10)
C11_6 C 0.20660(14) 0.61747(11) 0.12205(9)
C12_6 C 0.17526(14) 0.67988(13) 0.08691(12)
H7_6 H 0.1154 0.6819 0.0749
C13_6 C 0.23348(15) 0.73949(13) 0.06957(11)
H8_6 H 0.2127 0.7807 0.0450
C14_6 C 0.32260(14) 0.73825(12) 0.08851(10)
C15_6 C 0.35423(15) 0.67463(13) 0.12307(12)
H9_6 H 0.4141 0.6726 0.1351
C16_6 C 0.29658(15) 0.61434(13) 0.13955(12)
H10_6 H 0.3179 0.5718 0.1623
C17_6 C 0.38338(14) 0.80698(12) 0.07471(10)
C18_6 C 0.00215(19) 0.46782(17) 0.26293(11)
H11_6 H 0.0261 0.4949 0.2987
H13_6 H 0.0092 0.4124 0.2686
H2_6 H 0.2688(19) 0.5446(17) 0.9870(14)
H12_6 H 0.9397 0.4801 0.2586
O11_4 O 0.90076(10) 0.31688(8) 0.18809(7)
O12_4 O 0.85132(10) 0.29047(8) 0.09308(7)
H1_6 H 0.9491(14) 0.3909(11) 0.9934(10)
H1_7 H 0.4491(14) 0.1091(11) 0.0066(10)
O9_4 O 0.61798(10) 0.07294(8) 0.08150(7)
H3_7 H 0.773(2) 0.0170(18) 0.9693(15)
N3_7 N 0.53525(11) 0.03028(9) 0.85228(8)
C2_7 C 0.55091(13) 0.00715(12) 0.79472(9)
H4_7 H 0.7397 0.0066 0.7200
C18_7 C 0.50215(19) 0.03218(17) 0.73707(11)
H11_7 H 0.5261 0.0051 0.7013
H12_7 H 0.4397 0.0199 0.7414
H13_7 H 0.5092 0.0876 0.7314
H2_7 H 0.7688(19) 0.9554(17) 0.0130(14)
O1_4 O 0.88202(10) 0.92706(8) 0.58150(7)
O8_7 O 0.73578(11) 0.99698(12) 0.99032(9)
N1_7 N 0.61822(11) 0.95271(9) 0.79534(7)
N2_7 N 0.59280(10) 0.98971(9) 0.89169(7)
C1_7 C 0.64127(12) 0.94268(11) 0.85688(9)
C3_7 C 0.65857(13) 0.91550(11) 0.74141(9)
C4_7 C 0.72297(13) 0.95638(11) 0.70780(9)
C5_7 C 0.76236(13) 0.92138(11) 0.65545(9)
C6_7 C 0.73464(13) 0.84721(11) 0.63685(9)
H5_7 H 0.7593 0.8244 0.6011
C7_7 C 0.67023(13) 0.80676(11) 0.67133(10)
C8_7 C 0.63230(13) 0.84051(11) 0.72481(9)
H6_7 H 0.5904 0.8133 0.7487
C9_7 C 0.83306(13) 0.96502(11) 0.61889(9)
C10_7 C 0.63829(13) 0.72793(11) 0.64980(10)
C11_7 C 0.70660(14) 0.88253(11) 0.87795(9)
C12_7 C 0.67526(14) 0.82012(13) 0.91309(12)
H7_7 H 0.6154 0.8181 0.9251
C13_7 C 0.73348(15) 0.76051(13) 0.93043(11)
H8_7 H 0.7127 0.7193 0.9550
C14_7 C 0.82260(14) 0.76175(12) 0.91149(10)
C15_7 C 0.85423(15) 0.82537(13) 0.87693(12)
H9_7 H 0.9141 0.8274 0.8649
C16_7 C 0.79658(15) 0.88566(13) 0.86045(12)
H10_7 H 0.8179 0.9282 0.8377
C17_7 C 0.88338(14) 0.69302(12) 0.92529(10)
H1_8 H 0.0509(14) 0.8909(11) 0.5066(10)
H12_8 H 0.0603 0.9801 0.2414
O8_8 O 0.76422(11) 0.00302(12) 0.49032(9)
H2_8 H 0.7312(19) 0.0446(17) 0.5130(14)
N1_8 N 0.88178(11) 0.04729(9) 0.29534(7)
N2_8 N 0.90720(10) 0.01029(9) 0.39169(7)
C1_8 C 0.85873(12) 0.05732(11) 0.35688(9)
C3_8 C 0.84143(13) 0.08450(11) 0.24141(9)
C4_8 C 0.77703(13) 0.04362(11) 0.20780(9)
C5_8 C 0.73764(13) 0.07862(11) 0.15545(9)
C6_8 C 0.76536(13) 0.15279(11) 0.13685(9)
H5_8 H 0.7407 0.1756 0.1011
C7_8 C 0.82977(13) 0.19324(11) 0.17133(10)
C8_8 C 0.86770(13) 0.15949(11) 0.22481(9)
H6_8 H 0.9096 0.1867 0.2487
C9_8 C 0.66694(13) 0.03498(11) 0.11889(9)
C10_8 C 0.86171(13) 0.27207(11) 0.14980(10)
C11_8 C 0.79340(14) 0.11747(11) 0.37795(9)
C12_8 C 0.82474(14) 0.17988(13) 0.41309(12)
H7_8 H 0.8846 0.1819 0.4251
C13_8 C 0.76652(15) 0.23949(13) 0.43043(11)
H8_8 H 0.7873 0.2807 0.4550
C14_8 C 0.67740(14) 0.23825(12) 0.41149(10)
C15_8 C 0.64577(15) 0.17463(13) 0.37693(12)
H9_8 H 0.5859 0.1726 0.3649
C16_8 C 0.70342(15) 0.11434(13) 0.36045(12)
H10_8 H 0.6821 0.0718 0.3377
C17_8 C 0.61662(14) 0.30698(12) 0.42529(10)
H3_8 H 0.727(2) 0.9830(18) 0.4693(15)
N3_8 N 0.96475(11) 0.96972(9) 0.35228(8)
C2_8 C 0.94909(13) 0.99285(12) 0.29472(9)
H4_8 H 0.7603 0.9934 0.2200
C18_8 C 0.99785(19) 0.96782(17) 0.23707(11)
H11_8 H 0.9739 0.9949 0.2013
H13_8 H 0.9908 0.9124 0.2314
loop_
_geom_bond_atom_site_label_1
_geom_bond_atom_site_label_2
_geom_bond_site_symmetry_1
_geom_bond_site_symmetry_2
Co1 O7 1_555 1_555
Co2 O7 1_555 1_555
O1 C9 1_555 1_555
O2 C9 1_555 1_555
O3 C10 1_555 1_555
O4 C10 1_555 1_555
O5 C17 1_555 1_555
O6 C17 1_555 1_555
O7 H1 1_555 1_555
O8 Co1 1_555 1_555
H2 O8 1_555 1_555
H3 O8 1_555 1_555
N1 C1 1_555 1_555
N2 Co1 1_555 1_555
N3 Co2 1_555 1_555
C1 N2 1_555 1_555
C2 N1 1_555 1_555
C3 N1 1_555 1_555
C4 C3 1_555 1_555
H4 C4 1_555 1_555
C5 C4 1_555 1_555
C6 C5 1_555 1_555
H5 C6 1_555 1_555
C7 C6 1_555 1_555
C8 C3 1_555 1_555
H6 C8 1_555 1_555
C9 C5 1_555 1_555
C10 C7 1_555 1_555
C11 C1 1_555 1_555
C12 C11 1_555 1_555
H7 C12 1_555 1_555
C13 C12 1_555 1_555
H8 C13 1_555 1_555
C14 C13 1_555 1_555
C15 C14 1_555 1_555
H9 C15 1_555 1_555
C16 C11 1_555 1_555
H10 C16 1_555 1_555
C17 C14 1_555 1_555
C18 C2 1_555 1_555
H11 C18 1_555 1_555
H12 C18 1_555 1_555
H13 C18 1_555 1_555
Co4 O7 1_555 1_555
Co5 O5 1_555 1_555
Co6 O3 1_555 1_555
Co7 O2 1_555 1_555
O9 Co1 1_555 1_555
O10 Co2 1_555 1_555
O11 Co2 1_555 1_555
O12 Co2 1_555 1_555
O13 Co1 1_555 1_555
O14 Co2 1_555 1_555
O15 Co1 1_555 1_555
O4 Co6 1_555 1_555
N2 N3 1_555 1_555
N3 C2 1_555 1_555
C7 C8 1_555 1_555
C15 C16 1_555 1_555
Co4 O15 1_555 1_555
Co2_2 O7_2 1_555 1_555
O10_2 Co2_2 1_555 1_555
O11_2 Co2_2 1_555 1_555
O12_2 Co2_2 1_555 1_555
O9 C9_2 1_555 1_555
O2_2 C9_2 1_555 1_555
O3_2 C10_2 1_555 1_555
O4_2 C10_2 1_555 1_555
O5_2 C17_2 1_555 1_555
O6_2 C17_2 1_555 1_555
O8_2 Co3 1_555 1_555
H3_2 O8_2 1_555 1_555
N1_2 C1_2 1_555 1_555
N2_2 Co3 1_555 1_555
C1_2 N2_2 1_555 1_555
C2_2 N1_2 1_555 1_555
C3_2 N1_2 1_555 1_555
C4_2 C3_2 1_555 1_555
H4_2 C4_2 1_555 1_555
C5_2 C4_2 1_555 1_555
C6_2 C5_2 1_555 1_555
H5_2 C6_2 1_555 1_555
C7_2 C6_2 1_555 1_555
C8_2 C3_2 1_555 1_555
H6_2 C8_2 1_555 1_555
C9_2 C5_2 1_555 1_555
C10_2 C7_2 1_555 1_555
C11_2 C1_2 1_555 1_555
C12_2 C11_2 1_555 1_555
H7_2 C12_2 1_555 1_555
C13_2 C12_2 1_555 1_555
H8_2 C13_2 1_555 1_555
C14_2 C13_2 1_555 1_555
C15_2 C14_2 1_555 1_555
H9_2 C15_2 1_555 1_555
C16_2 C11_2 1_555 1_555
H10_2 C16_2 1_555 1_555
C17_2 C14_2 1_555 1_555
C18_2 C2_2 1_555 1_555
H11_2 C18_2 1_555 1_555
H13_2 C18_2 1_555 1_555
Co5_2 O5_2 1_555 1_555
Co6_2 O3_2 1_555 1_555
Co7_2 O2_2 1_555 1_555
Co8_2 O6_2 1_555 1_555
O13_2 Co3 1_555 1_555
O4_2 Co6_2 1_555 1_555
N2_2 N3_2 1_555 1_555
N3_2 C2_2 1_555 1_555
C7_2 C8_2 1_555 1_555
C15_2 C16_2 1_555 1_555
O1_2 C9_3 1_555 1_555
O11 C10_3 1_555 1_555
O12 C10_3 1_555 1_555
O5_3 C17_3 1_555 1_555
O6_3 C17_3 1_555 1_555
N1_3 C1_3 1_555 1_555
C1_3 N2_3 1_555 1_555
C3_3 N1_3 1_555 1_555
C4_3 C3_3 1_555 1_555
C5_3 C4_3 1_555 1_555
C6_3 C5_3 1_555 1_555
H5_3 C6_3 1_555 1_555
C7_3 C6_3 1_555 1_555
C8_3 C3_3 1_555 1_555
H6_3 C8_3 1_555 1_555
C9_3 C5_3 1_555 1_555
C10_3 C7_3 1_555 1_555
C11_3 C1_3 1_555 1_555
C12_3 C11_3 1_555 1_555
H7_3 C12_3 1_555 1_555
C13_3 C12_3 1_555 1_555
H8_3 C13_3 1_555 1_555
C14_3 C13_3 1_555 1_555
C15_3 C14_3 1_555 1_555
H9_3 C15_3 1_555 1_555
C16_3 C11_3 1_555 1_555
H10_3 C16_3 1_555 1_555
C17_3 C14_3 1_555 1_555
Co3_2 O1_2 1_555 1_555
Co4_2 O5_3 1_555 1_555
C7_3 C8_3 1_555 1_555
C15_3 C16_3 1_555 1_555
Co5_2 O15_3 1_555 1_555
Co1_2 O7_3 1_555 1_555
Co6 O7_3 1_555 1_555
N3_3 Co6 1_555 1_555
C18_3 C2_3 1_555 1_555
H11_3 C18_3 1_555 1_555
H12_3 C18_3 1_555 1_555
H13_3 C18_3 1_555 1_555
Co8 O2_3 1_555 1_555
O10_3 Co6 1_555 1_555
O13_3 Co1_2 1_555 1_555
O14_3 Co6 1_555 1_555
N3_3 C2_3 1_555 1_555
C18_4 C2_4 1_555 1_555
H11_4 C18_4 1_555 1_555
H13_4 C18_4 1_555 1_555
Co8_2 O2_4 1_555 1_555
O13_4 Co3_2 1_555 1_555
N3_4 C2_4 1_555 1_555
O9_2 C9_4 1_555 1_555
O11_2 C10_4 1_555 1_555
O12_2 C10_4 1_555 1_555
O5_4 C17_4 1_555 1_555
O6_4 C17_4 1_555 1_555
H2_4 O8_4 1_555 1_555
N1_4 C1_4 1_555 1_555
C1_4 N2_4 1_555 1_555
C3_4 N1_4 1_555 1_555
C4_4 C3_4 1_555 1_555
C5_4 C4_4 1_555 1_555
C6_4 C5_4 1_555 1_555
H5_4 C6_4 1_555 1_555
C7_4 C6_4 1_555 1_555
C8_4 C3_4 1_555 1_555
H6_4 C8_4 1_555 1_555
C9_4 C5_4 1_555 1_555
C10_4 C7_4 1_555 1_555
C11_4 C1_4 1_555 1_555
C12_4 C11_4 1_555 1_555
H7_4 C12_4 1_555 1_555
C13_4 C12_4 1_555 1_555
H8_4 C13_4 1_555 1_555
C14_4 C13_4 1_555 1_555
C15_4 C14_4 1_555 1_555
H9_4 C15_4 1_555 1_555
C16_4 C11_4 1_555 1_555
H10_4 C16_4 1_555 1_555
C17_4 C14_4 1_555 1_555
Co4 O5_4 1_555 1_555
Co7_2 O6_4 1_555 1_555
C7_4 C8_4 1_555 1_555
C15_4 C16_4 1_555 1_555
Co6_2 O7_4 1_555 1_555
O7_4 H1_4 1_555 1_555
O10_4 Co6_2 1_555 1_555
Co7_2 O15 1_555 1_555
O1_3 C9_5 1_555 1_555
O10_2 C9_5 1_555 1_555
O3_3 C10_5 1_555 1_555
O4_3 C10_5 1_555 1_555
O13_4 C17_5 1_555 1_555
O14_4 C17_5 1_555 1_555
O15 H1_5 1_555 1_555
O8_5 Co4 1_555 1_555
H2_5 O8_5 1_555 1_555
H3_5 O8_5 1_555 1_555
N1_5 C1_5 1_555 1_555
N2_5 Co4 1_555 1_555
N3_5 Co7_2 1_555 1_555
C1_5 N2_5 1_555 1_555
C2_5 N1_5 1_555 1_555
C3_5 N1_5 1_555 1_555
C4_5 C3_5 1_555 1_555
H4_5 C4_5 1_555 1_555
C5_5 C4_5 1_555 1_555
C6_5 C5_5 1_555 1_555
H5_5 C6_5 1_555 1_555
C7_5 C6_5 1_555 1_555
C8_5 C3_5 1_555 1_555
H6_5 C8_5 1_555 1_555
C9_5 C5_5 1_555 1_555
C10_5 C7_5 1_555 1_555
C11_5 C1_5 1_555 1_555
C12_5 C11_5 1_555 1_555
H7_5 C12_5 1_555 1_555
C13_5 C12_5 1_555 1_555
H8_5 C13_5 1_555 1_555
C14_5 C13_5 1_555 1_555
C15_5 C14_5 1_555 1_555
H9_5 C15_5 1_555 1_555
C16_5 C11_5 1_555 1_555
H10_5 C16_5 1_555 1_555
C17_5 C14_5 1_555 1_555
C18_5 C2_5 1_555 1_555
H11_5 C18_5 1_555 1_555
H12_5 C18_5 1_555 1_555
H13_5 C18_5 1_555 1_555
Co8_2 O3_3 1_555 1_555
O9_3 Co4 1_555 1_555
O11_3 Co7_2 1_555 1_555
O12_3 Co7_2 1_555 1_555
O4_3 Co8_2 1_555 1_555
N2_5 N3_5 1_555 1_555
N3_5 C2_5 1_555 1_555
C7_5 C8_5 1_555 1_555
C15_5 C16_5 1_555 1_555
O9_3 C9_6 1_555 1_555
O10 C9_6 1_555 1_555
O3_4 C10_6 1_555 1_555
O4_4 C10_6 1_555 1_555
O13_3 C17_6 1_555 1_555
O14_3 C17_6 1_555 1_555
O8_6 Co4_2 1_555 1_555
H3_6 O8_6 1_555 1_555
N1_6 C1_6 1_555 1_555
N2_6 Co4_2 1_555 1_555
C1_6 N2_6 1_555 1_555
C2_6 N1_6 1_555 1_555
C3_6 N1_6 1_555 1_555
C4_6 C3_6 1_555 1_555
H4_6 C4_6 1_555 1_555
C5_6 C4_6 1_555 1_555
C6_6 C5_6 1_555 1_555
H5_6 C6_6 1_555 1_555
C7_6 C6_6 1_555 1_555
C8_6 C3_6 1_555 1_555
H6_6 C8_6 1_555 1_555
C9_6 C5_6 1_555 1_555
C10_6 C7_6 1_555 1_555
C11_6 C1_6 1_555 1_555
C12_6 C11_6 1_555 1_555
H7_6 C12_6 1_555 1_555
C13_6 C12_6 1_555 1_555
H8_6 C13_6 1_555 1_555
C14_6 C13_6 1_555 1_555
C15_6 C14_6 1_555 1_555
H9_6 C15_6 1_555 1_555
C16_6 C11_6 1_555 1_555
H10_6 C16_6 1_555 1_555
C17_6 C14_6 1_555 1_555
C18_6 C2_6 1_555 1_555
H11_6 C18_6 1_555 1_555
H13_6 C18_6 1_555 1_555
Co8 O3_4 1_555 1_555
O4_4 Co8 1_555 1_555
N2_6 N3_6 1_555 1_555
N3_6 C2_6 1_555 1_555
C7_6 C8_6 1_555 1_555
C15_6 C16_6 1_555 1_555
Co7 O15_2 1_555 1_555
O11_4 Co7 1_555 1_555
O12_4 Co7 1_555 1_555
Co8_2 O15_3 1_555 1_555
N3_7 Co8_2 1_555 1_555
C18_7 C2_7 1_555 1_555
H11_7 C18_7 1_555 1_555
H12_7 C18_7 1_555 1_555
H13_7 C18_7 1_555 1_555
N3_7 C2_7 1_555 1_555
O1_4 C9_7 1_555 1_555
O11_3 C10_7 1_555 1_555
O12_3 C10_7 1_555 1_555
O13_2 C17_7 1_555 1_555
O14_2 C17_7 1_555 1_555
N1_7 C1_7 1_555 1_555
C1_7 N2_7 1_555 1_555
C3_7 N1_7 1_555 1_555
C4_7 C3_7 1_555 1_555
C5_7 C4_7 1_555 1_555
C6_7 C5_7 1_555 1_555
H5_7 C6_7 1_555 1_555
C7_7 C6_7 1_555 1_555
C8_7 C3_7 1_555 1_555
H6_7 C8_7 1_555 1_555
C9_7 C5_7 1_555 1_555
C10_7 C7_7 1_555 1_555
C11_7 C1_7 1_555 1_555
C12_7 C11_7 1_555 1_555
H7_7 C12_7 1_555 1_555
C13_7 C12_7 1_555 1_555
H8_7 C13_7 1_555 1_555
C14_7 C13_7 1_555 1_555
C15_7 C14_7 1_555 1_555
H9_7 C15_7 1_555 1_555
C16_7 C11_7 1_555 1_555
H10_7 C16_7 1_555 1_555
C17_7 C14_7 1_555 1_555
Co5 O1_4 1_555 1_555
C7_7 C8_7 1_555 1_555
C15_7 C16_7 1_555 1_555
Co8 O15_4 1_555 1_555
O15_4 H1_8 1_555 1_555
O9_4 C9_8 1_555 1_555
O11_4 C10_8 1_555 1_555
O12_4 C10_8 1_555 1_555
O13 C17_8 1_555 1_555
O14 C17_8 1_555 1_555
H2_8 O8_8 1_555 1_555
N1_8 C1_8 1_555 1_555
C1_8 N2_8 1_555 1_555
C3_8 N1_8 1_555 1_555
C4_8 C3_8 1_555 1_555
C5_8 C4_8 1_555 1_555
C6_8 C5_8 1_555 1_555
H5_8 C6_8 1_555 1_555
C7_8 C6_8 1_555 1_555
C8_8 C3_8 1_555 1_555
H6_8 C8_8 1_555 1_555
C9_8 C5_8 1_555 1_555
C10_8 C7_8 1_555 1_555
C11_8 C1_8 1_555 1_555
C12_8 C11_8 1_555 1_555
H7_8 C12_8 1_555 1_555
C13_8 C12_8 1_555 1_555
H8_8 C13_8 1_555 1_555
C14_8 C13_8 1_555 1_555
C15_8 C14_8 1_555 1_555
H9_8 C15_8 1_555 1_555
C16_8 C11_8 1_555 1_555
H10_8 C16_8 1_555 1_555
C17_8 C14_8 1_555 1_555
C7_8 C8_8 1_555 1_555
C15_8 C16_8 1_555 1_555
C18_8 C2_8 1_555 1_555
H11_8 C18_8 1_555 1_555
H13_8 C18_8 1_555 1_555
N3_8 C2_8 1_555 1_555

#END
