
###############################################################################
#
# This file contains modified crystal structure data generated from the
# MOF subset of the Cambridge Structural Database (CSD) v543 
# hosted by the Cambridge Crystallographic Data Centre (CCDC).
#
# This work is licensed under the Creative Commons
# Attribution-NonCommercial-ShareAlike 4.0 International License.
# To view a copy of this license, visit
# http://creativecommons.org/licenses/by-nc-sa/4.0/
# or send a letter to
# Creative Commons, PO Box 1866, Mountain View, CA 94042, USA.
#
# CIF created using the CSD Python API on 29 September 2022
# The structure has been converted into the P1 space group
# The structure has a 3D framework
# The original CSD entry MARNUR01 is in the monoclinic crystal system
# The framework has been calculated to contain at least 10.0% void space
# The void calculation uses a probe of radius 1.32A, grid spacing 0.4
#
###############################################################################

data_MARNUR01
_chemical_formula_moiety         '(C144 H88 N24 O56 Zn20)n'
_symmetry_cell_setting           triclinic
_symmetry_space_group_name_H-M   'P 1'
_symmetry_Int_Tables_number      1
_space_group_name_Hall           'P 1'
loop_
_symmetry_equiv_pos_site_id
_symmetry_equiv_pos_as_xyz
1 x,y,z
_cell_length_a                   18.910(4)
_cell_length_b                   11.795(2)
_cell_length_c                   21.010(4)
_cell_angle_alpha                90
_cell_angle_beta                 115.20(3)
_cell_angle_gamma                90
_cell_volume                     4240.15
loop_
_atom_site_label
_atom_site_type_symbol
_atom_site_fract_x
_atom_site_fract_y
_atom_site_fract_z
Zn6 Zn -0.0000 0.0527(1) 0.2500
Zn12 Zn 0.0000 0.6865(1) 0.7500
Zn6_2 Zn 1.0000 0.0527(1) 0.2500
Zn8 Zn 0.9709 0.1494 0.3779
Zn10 Zn 0.0291 0.1494 0.1221
Zn1 Zn 0.5000 0.5527(1) 0.2500
Zn2 Zn 0.4709 0.6494 0.3779
Zn3 Zn 0.5000 0.8135(1) 0.2500
O1 O 0.5986(2) 0.5486(3) 0.3475(2)
O2 O 0.5859(2) 0.6510(3) 0.4314(2)
O3 O 0.9251(2) 0.5920(3) 0.6801(2)
O4 O 0.8188(3) 0.6912(5) 0.6633(2)
O5 O 0.9471(2) 0.9329(3) 0.2852(2)
O6 O 0.9429(2) 0.9932(3) 0.3849(2)
O7 O 0.4493(2) 0.6909(3) 0.2815(2)
H1 H 0.3942(13) 0.699(5) 0.254(3)
N1 N 0.8747(2) 0.4069(3) 0.4508(2)
N2 N 0.9449(2) 0.3747(3) 0.3918(2)
N3 N 0.9288(2) 0.2730(3) 0.4156(2)
C1 C 0.9118(3) 0.4547(4) 0.4130(2)
C2 C 0.8866(3) 0.2930(4) 0.4506(3)
C3 C 0.8264(2) 0.4669(4) 0.4783(2)
C4 C 0.7511(2) 0.4938(4) 0.4328(2)
H2 H 0.7298 0.4679 0.3866
C5 C 0.7071(3) 0.5607(4) 0.4572(2)
C6 C 0.7401(3) 0.6005(4) 0.5261(2)
H3 H 0.7111 0.6468 0.5420
C7 C 0.8164(3) 0.5712(4) 0.5714(2)
C8 C 0.8598(3) 0.5026(4) 0.5473(2)
H4 H 0.9105 0.4811 0.5773
C9 C 0.6240(3) 0.5890(4) 0.4075(2)
C10 C 0.8550(3) 0.6225(5) 0.6443(3)
C11 C 0.9158(3) 0.5752(4) 0.3961(2)
C12 C 0.9296(3) 0.5979(4) 0.3374(3)
H5 H 0.9331 0.5385 0.3098
C13 C 0.9380(4) 0.7086(4) 0.3198(3)
H6 H 0.9488 0.7231 0.2813
C14 C 0.9307(3) 0.7977(4) 0.3594(3)
C15 C 0.9173(3) 0.7744(4) 0.4185(3)
H7 H 0.9135 0.8338 0.4459
C16 C 0.9098(3) 0.6642(4) 0.4365(3)
H8 H 0.9007 0.6496 0.4759
C17 C 0.9408(3) 0.9176(4) 0.3411(3)
C18 C 0.8564(4) 0.2068(4) 0.4845(3)
H9 H 0.8004 0.2090 0.4634
H10 H 0.8759 0.2228 0.5338
H11 H 0.8736 0.1328 0.4781
Zn4 Zn 0.5291 0.6494 0.1221
O8 O 0.4014(2) 0.5486(3) 0.1525(2)
O9 O 0.4141(2) 0.6510(3) 0.0686(2)
O12 O 0.0529(2) 0.9329(3) 0.2148(2)
O13 O 0.0571(2) 0.9932(3) 0.1151(2)
O14 O 0.5507(2) 0.6909(3) 0.2185(2)
H12 H 0.6058(13) 0.699(5) 0.246(3)
N4 N 0.1253(2) 0.4069(3) 0.0492(2)
N5 N 0.0551(2) 0.3747(3) 0.1082(2)
N6 N 0.0712(2) 0.2730(3) 0.0844(2)
C19 C 0.0882(3) 0.4547(4) 0.0870(2)
C20 C 0.1134(3) 0.2930(4) 0.0494(3)
C21 C 0.1736(2) 0.4669(4) 0.0217(2)
C22 C 0.2489(2) 0.4938(4) 0.0672(2)
H13 H 0.2702 0.4679 0.1134
C23 C 0.2929(3) 0.5607(4) 0.0428(2)
C27 C 0.3760(3) 0.5890(4) 0.0925(2)
C29 C 0.0842(3) 0.5752(4) 0.1039(2)
C30 C 0.0704(3) 0.5979(4) 0.1626(3)
H16 H 0.0669 0.5385 0.1902
C31 C 0.0620(4) 0.7086(4) 0.1802(3)
H17 H 0.0512 0.7231 0.2187
C32 C 0.0693(3) 0.7977(4) 0.1406(3)
C33 C 0.0827(3) 0.7744(4) 0.0815(3)
H18 H 0.0865 0.8338 0.0541
C34 C 0.0902(3) 0.6642(4) 0.0635(3)
H19 H 0.0993 0.6496 0.0241
C35 C 0.0592(3) 0.9176(4) 0.1589(3)
C36 C 0.1436(4) 0.2068(4) 0.0155(3)
H20 H 0.1996 0.2090 0.0366
H22 H 0.1264 0.1328 0.0219
Zn12_2 Zn 1.0000 0.6865(1) 0.7500
O15 O 0.5749(2) 0.9080(3) 0.3199(2)
O16 O 0.4251(2) 0.9080(3) 0.1801(2)
O17 O 0.4471(2) 0.4329(3) 0.2852(2)
O18 O 0.5529(2) 0.4329(3) 0.2148(2)
O19 O 0.4429(2) 0.4932(3) 0.3849(2)
O20 O 0.5571(2) 0.4932(3) 0.1151(2)
N7 N 0.4288(2) 0.7730(3) 0.4156(2)
N8 N 0.5712(2) 0.7730(3) 0.0844(2)
O10 O 0.0749(2) 0.5920(3) 0.8199(2)
O11 O 0.1812(3) 0.6912(5) 0.8367(2)
C24 C 0.2599(3) 0.6005(4) 0.9739(2)
H14 H 0.2889 0.6468 0.9580
C25 C 0.1836(3) 0.5712(4) 0.9286(2)
C26 C 0.1402(3) 0.5026(4) 0.9527(2)
H15 H 0.0895 0.4811 0.9227
C28 C 0.1450(3) 0.6225(5) 0.8557(3)
H21 H 0.1241 0.2228 0.9662
Zn3_2 Zn -0.0000 0.3135(1) 0.2500
O1_2 O 0.0986(2) 0.0486(3) 0.3475(2)
O2_2 O 0.0859(2) 0.1510(3) 0.4314(2)
O3_2 O 0.4251(2) 0.0920(3) 0.6801(2)
O4_2 O 0.3188(3) 0.1912(5) 0.6633(2)
C5_2 C 0.2071(3) 0.0607(4) 0.4572(2)
C6_2 C 0.2401(3) 0.1005(4) 0.5261(2)
H3_2 H 0.2111 0.1468 0.5420
C7_2 C 0.3164(3) 0.0712(4) 0.5714(2)
C8_2 C 0.3598(3) 0.0026(4) 0.5473(2)
C9_2 C 0.1240(3) 0.0890(4) 0.4075(2)
C10_2 C 0.3550(3) 0.1225(5) 0.6443(3)
C11_2 C 0.4158(3) 0.0752(4) 0.3961(2)
C12_2 C 0.4296(3) 0.0979(4) 0.3374(3)
H5_2 H 0.4331 0.0385 0.3098
C13_2 C 0.4380(4) 0.2086(4) 0.3198(3)
H6_2 H 0.4488 0.2231 0.2813
C14_2 C 0.4307(3) 0.2977(4) 0.3594(3)
C15_2 C 0.4173(3) 0.2744(4) 0.4185(3)
H7_2 H 0.4135 0.3338 0.4459
C16_2 C 0.4098(3) 0.1642(4) 0.4365(3)
H8_2 H 0.4007 0.1496 0.4759
C17_2 C 0.4408(3) 0.4176(4) 0.3411(3)
O14_2 O 0.0507(2) 0.1909(3) 0.2185(2)
H12_2 H 0.1058(13) 0.199(5) 0.246(3)
Zn12_3 Zn 0.5000 0.1865(1) 0.7500
O15_2 O 0.0749(2) 0.4080(3) 0.3199(2)
N1_2 N 0.3747(2) 0.9069(3) 0.4508(2)
N2_2 N 0.4449(2) 0.8747(3) 0.3918(2)
C1_2 C 0.4118(3) 0.9547(4) 0.4130(2)
C2_2 C 0.3866(3) 0.7930(4) 0.4506(3)
C3_2 C 0.3264(2) 0.9669(4) 0.4783(2)
C4_2 C 0.2511(2) 0.9938(4) 0.4328(2)
H2_2 H 0.2298 0.9679 0.3866
H4_2 H 0.4105 0.9811 0.5773
C18_2 C 0.3564(4) 0.7068(4) 0.4845(3)
H9_2 H 0.3004 0.7090 0.4634
H10_2 H 0.3759 0.7228 0.5338
H11_2 H 0.3736 0.6328 0.4781
Zn3_3 Zn 1.0000 0.3135(1) 0.2500
O7_2 O 0.9493(2) 0.1909(3) 0.2815(2)
H1_2 H 0.8942(13) 0.199(5) 0.254(3)
O8_2 O 0.9014(2) 0.0486(3) 0.1525(2)
O9_2 O 0.9141(2) 0.1510(3) 0.0686(2)
C23_2 C 0.7929(3) 0.0607(4) 0.0428(2)
C27_2 C 0.8760(3) 0.0890(4) 0.0925(2)
C29_2 C 0.5842(3) 0.0752(4) 0.1039(2)
C30_2 C 0.5704(3) 0.0979(4) 0.1626(3)
H16_2 H 0.5669 0.0385 0.1902
C31_2 C 0.5620(4) 0.2086(4) 0.1802(3)
H17_2 H 0.5512 0.2231 0.2187
C32_2 C 0.5693(3) 0.2977(4) 0.1406(3)
C33_2 C 0.5827(3) 0.2744(4) 0.0815(3)
H18_2 H 0.5865 0.3338 0.0541
C34_2 C 0.5902(3) 0.1642(4) 0.0635(3)
H19_2 H 0.5993 0.1496 0.0241
C35_2 C 0.5592(3) 0.4176(4) 0.1589(3)
O16_2 O 0.9251(2) 0.4080(3) 0.1801(2)
O10_2 O 0.5749(2) 0.0920(3) 0.8199(2)
O11_2 O 0.6812(3) 0.1912(5) 0.8367(2)
C24_2 C 0.7599(3) 0.1005(4) 0.9739(2)
H14_2 H 0.7889 0.1468 0.9580
C25_2 C 0.6836(3) 0.0712(4) 0.9286(2)
C26_2 C 0.6402(3) 0.0026(4) 0.9527(2)
C28_2 C 0.6450(3) 0.1225(5) 0.8557(3)
N4_2 N 0.6253(2) 0.9069(3) 0.0492(2)
N5_2 N 0.5551(2) 0.8747(3) 0.1082(2)
C19_2 C 0.5882(3) 0.9547(4) 0.0870(2)
C20_2 C 0.6134(3) 0.7930(4) 0.0494(3)
C21_2 C 0.6736(2) 0.9669(4) 0.0217(2)
C22_2 C 0.7489(2) 0.9938(4) 0.0672(2)
H13_2 H 0.7702 0.9679 0.1134
C36_2 C 0.6436(4) 0.7068(4) 0.0155(3)
H20_2 H 0.6996 0.7090 0.0366
H22_2 H 0.6264 0.6328 0.0219
Zn5 Zn 0.0000 0.9473(1) 0.7500
O11_3 O 0.8188(3) 0.3088(5) 0.1633(2)
C24_3 C 0.7401(3) 0.3995(4) 0.0261(2)
H14_3 H 0.7111 0.3532 0.0420
C25_3 C 0.8164(3) 0.4288(4) 0.0714(2)
C26_3 C 0.8598(3) 0.4974(4) 0.0473(2)
H15_2 H 0.9105 0.5189 0.0773
C28_3 C 0.8550(3) 0.3775(5) 0.1443(3)
H21_2 H 0.8759 0.7772 0.0338
Zn1_2 Zn 0.5000 0.4473(1) 0.7500
Zn2_2 Zn 0.5291 0.3506 0.6221
O1_3 O 0.4014(2) 0.4514(3) 0.6525(2)
O2_3 O 0.4141(2) 0.3490(3) 0.5686(2)
O4_3 O 0.1812(3) 0.3088(5) 0.3367(2)
O5_2 O 0.0529(2) 0.0671(3) 0.7148(2)
O6_2 O 0.0571(2) 0.0068(3) 0.6151(2)
O7_3 O 0.5507(2) 0.3091(3) 0.7185(2)
H1_3 H 0.6058(13) 0.301(5) 0.746(3)
N1_3 N 0.1253(2) 0.5931(3) 0.5492(2)
N2_3 N 0.0551(2) 0.6253(3) 0.6082(2)
N3_2 N 0.0712(2) 0.7270(3) 0.5844(2)
C1_3 C 0.0882(3) 0.5453(4) 0.5870(2)
C2_3 C 0.1134(3) 0.7070(4) 0.5494(3)
C3_3 C 0.1736(2) 0.5331(4) 0.5217(2)
C4_3 C 0.2489(2) 0.5062(4) 0.5672(2)
H2_3 H 0.2702 0.5321 0.6134
C5_3 C 0.2929(3) 0.4393(4) 0.5428(2)
C6_3 C 0.2599(3) 0.3995(4) 0.4739(2)
H3_3 H 0.2889 0.3532 0.4580
C7_3 C 0.1836(3) 0.4288(4) 0.4286(2)
C8_3 C 0.1402(3) 0.4974(4) 0.4527(2)
H4_3 H 0.0895 0.5189 0.4227
C9_3 C 0.3760(3) 0.4110(4) 0.5925(2)
C10_3 C 0.1450(3) 0.3775(5) 0.3557(3)
C11_3 C 0.0842(3) 0.4248(4) 0.6039(2)
C12_3 C 0.0704(3) 0.4021(4) 0.6626(3)
H5_3 H 0.0669 0.4615 0.6902
C13_3 C 0.0620(4) 0.2914(4) 0.6802(3)
H6_3 H 0.0512 0.2769 0.7187
C14_3 C 0.0693(3) 0.2023(4) 0.6406(3)
C15_3 C 0.0827(3) 0.2256(4) 0.5815(3)
H7_3 H 0.0865 0.1662 0.5541
C16_3 C 0.0902(3) 0.3358(4) 0.5635(3)
H8_3 H 0.0993 0.3504 0.5241
C17_3 C 0.0592(3) 0.0824(4) 0.6589(3)
C18_3 C 0.1436(4) 0.7932(4) 0.5155(3)
H9_3 H 0.1996 0.7910 0.5366
H10_3 H 0.1241 0.7772 0.4662
H11_3 H 0.1264 0.8672 0.5219
Zn4_2 Zn 0.4709 0.3506 0.8779
O8_3 O 0.5986(2) 0.4514(3) 0.8475(2)
O9_3 O 0.5859(2) 0.3490(3) 0.9314(2)
O12_2 O 0.9471(2) 0.0671(3) 0.7852(2)
O13_2 O 0.9429(2) 0.0068(3) 0.8849(2)
O14_3 O 0.4493(2) 0.3091(3) 0.7815(2)
H12_3 H 0.3942(13) 0.301(5) 0.754(3)
N4_3 N 0.8747(2) 0.5931(3) 0.9508(2)
N5_3 N 0.9449(2) 0.6253(3) 0.8918(2)
N6_2 N 0.9288(2) 0.7270(3) 0.9156(2)
C19_3 C 0.9118(3) 0.5453(4) 0.9130(2)
C20_3 C 0.8866(3) 0.7070(4) 0.9506(3)
C21_3 C 0.8264(2) 0.5331(4) 0.9783(2)
C22_3 C 0.7511(2) 0.5062(4) 0.9328(2)
H13_3 H 0.7298 0.5321 0.8866
C23_3 C 0.7071(3) 0.4393(4) 0.9572(2)
C27_3 C 0.6240(3) 0.4110(4) 0.9075(2)
C29_3 C 0.9158(3) 0.4248(4) 0.8961(2)
C30_3 C 0.9296(3) 0.4021(4) 0.8374(3)
H16_3 H 0.9331 0.4615 0.8098
C31_3 C 0.9380(4) 0.2914(4) 0.8198(3)
H17_3 H 0.9488 0.2769 0.7813
C32_3 C 0.9307(3) 0.2023(4) 0.8594(3)
C33_3 C 0.9173(3) 0.2256(4) 0.9185(3)
H18_3 H 0.9135 0.1662 0.9459
C34_3 C 0.9098(3) 0.3358(4) 0.9365(3)
H19_3 H 0.9007 0.3504 0.9759
C35_3 C 0.9408(3) 0.0824(4) 0.8411(3)
C36_3 C 0.8564(4) 0.7932(4) 0.9845(3)
H20_3 H 0.8004 0.7910 0.9634
H22_3 H 0.8736 0.8672 0.9781
Zn7 Zn 0.0291 0.8506 0.6221
Zn9 Zn 0.9709 0.8506 0.8779
O17_2 O 0.5529(2) 0.5671(3) 0.7148(2)
O18_2 O 0.4471(2) 0.5671(3) 0.7852(2)
O19_2 O 0.5571(2) 0.5068(3) 0.6151(2)
O20_2 O 0.4429(2) 0.5068(3) 0.8849(2)
N7_2 N 0.5712(2) 0.2270(3) 0.5844(2)
N8_2 N 0.4288(2) 0.2270(3) 0.9156(2)
Zn5_2 Zn 1.0000 0.9473(1) 0.7500
N4_4 N 0.3747(2) 0.0931(3) 0.9508(2)
N5_4 N 0.4449(2) 0.1253(3) 0.8918(2)
C19_4 C 0.4118(3) 0.0453(4) 0.9130(2)
C20_4 C 0.3866(3) 0.2070(4) 0.9506(3)
C21_4 C 0.3264(2) 0.0331(4) 0.9783(2)
C22_4 C 0.2511(2) 0.0062(4) 0.9328(2)
H13_4 H 0.2298 0.0321 0.8866
C36_4 C 0.3564(4) 0.2932(4) 0.9845(3)
H20_4 H 0.3004 0.2910 0.9634
H22_4 H 0.3736 0.3672 0.9781
O11_4 O 0.3188(3) 0.8088(5) 0.1633(2)
C24_4 C 0.2401(3) 0.8995(4) 0.0261(2)
H14_4 H 0.2111 0.8532 0.0420
C25_4 C 0.3164(3) 0.9288(4) 0.0714(2)
C26_4 C 0.3598(3) 0.9974(4) 0.0473(2)
C28_4 C 0.3550(3) 0.8775(5) 0.1443(3)
O7_4 O 0.0507(2) 0.8091(3) 0.7185(2)
H1_4 H 0.1058(13) 0.801(5) 0.746(3)
O8_4 O 0.0986(2) 0.9514(3) 0.8475(2)
O9_4 O 0.0859(2) 0.8490(3) 0.9314(2)
C23_4 C 0.2071(3) 0.9393(4) 0.9572(2)
C27_4 C 0.1240(3) 0.9110(4) 0.9075(2)
C29_4 C 0.4158(3) 0.9248(4) 0.8961(2)
C30_4 C 0.4296(3) 0.9021(4) 0.8374(3)
H16_4 H 0.4331 0.9615 0.8098
C31_4 C 0.4380(4) 0.7914(4) 0.8198(3)
H17_4 H 0.4488 0.7769 0.7813
C32_4 C 0.4307(3) 0.7023(4) 0.8594(3)
C33_4 C 0.4173(3) 0.7256(4) 0.9185(3)
H18_4 H 0.4135 0.6662 0.9459
C34_4 C 0.4098(3) 0.8358(4) 0.9365(3)
H19_4 H 0.4007 0.8504 0.9759
C35_4 C 0.4408(3) 0.5824(4) 0.8411(3)
N1_4 N 0.6253(2) 0.0931(3) 0.5492(2)
N2_4 N 0.5551(2) 0.1253(3) 0.6082(2)
C1_4 C 0.5882(3) 0.0453(4) 0.5870(2)
C2_4 C 0.6134(3) 0.2070(4) 0.5494(3)
C3_4 C 0.6736(2) 0.0331(4) 0.5217(2)
C4_4 C 0.7489(2) 0.0062(4) 0.5672(2)
H2_4 H 0.7702 0.0321 0.6134
H4_4 H 0.5895 0.0189 0.4227
C18_4 C 0.6436(4) 0.2932(4) 0.5155(3)
H9_4 H 0.6996 0.2910 0.5366
H10_4 H 0.6241 0.2772 0.4662
H11_4 H 0.6264 0.3672 0.5219
O1_4 O 0.9014(2) 0.9514(3) 0.6525(2)
O2_4 O 0.9141(2) 0.8490(3) 0.5686(2)
O4_4 O 0.6812(3) 0.8088(5) 0.3367(2)
C5_4 C 0.7929(3) 0.9393(4) 0.5428(2)
C6_4 C 0.7599(3) 0.8995(4) 0.4739(2)
H3_4 H 0.7889 0.8532 0.4580
C7_4 C 0.6836(3) 0.9288(4) 0.4286(2)
C8_4 C 0.6402(3) 0.9974(4) 0.4527(2)
C9_4 C 0.8760(3) 0.9110(4) 0.5925(2)
C10_4 C 0.6450(3) 0.8775(5) 0.3557(3)
C11_4 C 0.5842(3) 0.9248(4) 0.6039(2)
C12_4 C 0.5704(3) 0.9021(4) 0.6626(3)
H5_4 H 0.5669 0.9615 0.6902
C13_4 C 0.5620(4) 0.7914(4) 0.6802(3)
H6_4 H 0.5512 0.7769 0.7187
C14_4 C 0.5693(3) 0.7023(4) 0.6406(3)
C15_4 C 0.5827(3) 0.7256(4) 0.5815(3)
H7_4 H 0.5865 0.6662 0.5541
C16_4 C 0.5902(3) 0.8358(4) 0.5635(3)
H8_4 H 0.5993 0.8504 0.5241
C17_4 C 0.5592(3) 0.5824(4) 0.6589(3)
O14_4 O 0.9493(2) 0.8091(3) 0.7815(2)
H12_4 H 0.8942(13) 0.801(5) 0.754(3)
H15_3 H 0.5895 0.9811 0.9227
H21_3 H 0.6241 0.7228 0.9662
H15_4 H 0.4105 0.0189 0.0773
H21_4 H 0.3759 0.2772 0.0338
loop_
_geom_bond_atom_site_label_1
_geom_bond_atom_site_label_2
_geom_bond_site_symmetry_1
_geom_bond_site_symmetry_2
Zn1 O1 1_555 1_555
Zn2 O2 1_555 1_555
Zn3 O7 1_555 1_555
O1 C9 1_555 1_555
O2 C9 1_555 1_555
O3 C10 1_555 1_555
O4 C10 1_555 1_555
O5 C17 1_555 1_555
O6 C17 1_555 1_555
O7 Zn1 1_555 1_555
H1 O7 1_555 1_555
N1 C1 1_555 1_555
N2 N3 1_555 1_555
N3 C2 1_555 1_555
C1 N2 1_555 1_555
C2 N1 1_555 1_555
C3 N1 1_555 1_555
C4 C3 1_555 1_555
H2 C4 1_555 1_555
C5 C4 1_555 1_555
C6 C5 1_555 1_555
H3 C6 1_555 1_555
C7 C6 1_555 1_555
C8 C3 1_555 1_555
H4 C8 1_555 1_555
C9 C5 1_555 1_555
C10 C7 1_555 1_555
C11 C1 1_555 1_555
C12 C11 1_555 1_555
H5 C12 1_555 1_555
C13 C12 1_555 1_555
H6 C13 1_555 1_555
C14 C13 1_555 1_555
C15 C14 1_555 1_555
H7 C15 1_555 1_555
C16 C11 1_555 1_555
H8 C16 1_555 1_555
C17 C14 1_555 1_555
C18 C2 1_555 1_555
H9 C18 1_555 1_555
H10 C18 1_555 1_555
H11 C18 1_555 1_555
Zn4 O9 1_555 1_555
O8 Zn1 1_555 1_555
O9 C27 1_555 1_555
O12 C35 1_555 1_555
O13 C35 1_555 1_555
O14 Zn1 1_555 1_555
H12 O14 1_555 1_555
N4 C19 1_555 1_555
N5 N6 1_555 1_555
N6 C20 1_555 1_555
C19 N5 1_555 1_555
C20 N4 1_555 1_555
C21 N4 1_555 1_555
C22 C21 1_555 1_555
H13 C22 1_555 1_555
C23 C22 1_555 1_555
C27 O8 1_555 1_555
C29 C19 1_555 1_555
C30 C29 1_555 1_555
H16 C30 1_555 1_555
C31 C30 1_555 1_555
H17 C31 1_555 1_555
C32 C31 1_555 1_555
C33 C32 1_555 1_555
H18 C33 1_555 1_555
C34 C29 1_555 1_555
H19 C34 1_555 1_555
C35 C32 1_555 1_555
C36 C20 1_555 1_555
H20 C36 1_555 1_555
H22 C36 1_555 1_555
Zn8 N3 1_555 1_555
Zn10 N6 1_555 1_555
Zn12_2 O3 1_555 1_555
O15 Zn3 1_555 1_555
O16 Zn3 1_555 1_555
O17 Zn1 1_555 1_555
O18 Zn1 1_555 1_555
O19 Zn2 1_555 1_555
O20 Zn4 1_555 1_555
N7 Zn2 1_555 1_555
N8 Zn4 1_555 1_555
Zn2 O7 1_555 1_555
Zn3 O14 1_555 1_555
C7 C8 1_555 1_555
C15 C16 1_555 1_555
Zn4 O14 1_555 1_555
C23 C27 1_555 1_555
C33 C34 1_555 1_555
O10 C28 1_555 1_555
O11 C28 1_555 1_555
H14 C24 1_555 1_555
C25 C24 1_555 1_555
H15 C26 1_555 1_555
C28 C25 1_555 1_555
Zn12 O10 1_555 1_555
C25 C26 1_555 1_555
Zn6 O1_2 1_555 1_555
O1_2 C9_2 1_555 1_555
O2_2 C9_2 1_555 1_555
O3_2 C10_2 1_555 1_555
O4_2 C10_2 1_555 1_555
O17 C17_2 1_555 1_555
O19 C17_2 1_555 1_555
C6_2 C5_2 1_555 1_555
H3_2 C6_2 1_555 1_555
C7_2 C6_2 1_555 1_555
C9_2 C5_2 1_555 1_555
C10_2 C7_2 1_555 1_555
C12_2 C11_2 1_555 1_555
H5_2 C12_2 1_555 1_555
C13_2 C12_2 1_555 1_555
H6_2 C13_2 1_555 1_555
C14_2 C13_2 1_555 1_555
C15_2 C14_2 1_555 1_555
H7_2 C15_2 1_555 1_555
C16_2 C11_2 1_555 1_555
H8_2 C16_2 1_555 1_555
C17_2 C14_2 1_555 1_555
O14_2 Zn6 1_555 1_555
H12_2 O14_2 1_555 1_555
Zn12_3 O3_2 1_555 1_555
O15_2 Zn3_2 1_555 1_555
Zn3_2 O14_2 1_555 1_555
C7_2 C8_2 1_555 1_555
C15_2 C16_2 1_555 1_555
Zn10 O14_2 1_555 1_555
N1_2 C1_2 1_555 1_555
N2_2 N7 1_555 1_555
N7 C2_2 1_555 1_555
C1_2 N2_2 1_555 1_555
C2_2 N1_2 1_555 1_555
C3_2 N1_2 1_555 1_555
C4_2 C3_2 1_555 1_555
H2_2 C4_2 1_555 1_555
C18_2 C2_2 1_555 1_555
H9_2 C18_2 1_555 1_555
H10_2 C18_2 1_555 1_555
H11_2 C18_2 1_555 1_555
Zn3_3 O7_2 1_555 1_555
O7_2 Zn6_2 1_555 1_555
H1_2 O7_2 1_555 1_555
O8_2 Zn6_2 1_555 1_555
O9_2 C27_2 1_555 1_555
O18 C35_2 1_555 1_555
O20 C35_2 1_555 1_555
C27_2 O8_2 1_555 1_555
C30_2 C29_2 1_555 1_555
H16_2 C30_2 1_555 1_555
C31_2 C30_2 1_555 1_555
H17_2 C31_2 1_555 1_555
C32_2 C31_2 1_555 1_555
C33_2 C32_2 1_555 1_555
H18_2 C33_2 1_555 1_555
C34_2 C29_2 1_555 1_555
H19_2 C34_2 1_555 1_555
C35_2 C32_2 1_555 1_555
O16_2 Zn3_3 1_555 1_555
Zn8 O7_2 1_555 1_555
C23_2 C27_2 1_555 1_555
C33_2 C34_2 1_555 1_555
O10_2 C28_2 1_555 1_555
O11_2 C28_2 1_555 1_555
H14_2 C24_2 1_555 1_555
C25_2 C24_2 1_555 1_555
C28_2 C25_2 1_555 1_555
Zn12_3 O10_2 1_555 1_555
C25_2 C26_2 1_555 1_555
N4_2 C19_2 1_555 1_555
N5_2 N8 1_555 1_555
N8 C20_2 1_555 1_555
C19_2 N5_2 1_555 1_555
C20_2 N4_2 1_555 1_555
C21_2 N4_2 1_555 1_555
C22_2 C21_2 1_555 1_555
H13_2 C22_2 1_555 1_555
C36_2 C20_2 1_555 1_555
H20_2 C36_2 1_555 1_555
H22_2 C36_2 1_555 1_555
O16_2 C28_3 1_555 1_555
O11_3 C28_3 1_555 1_555
H14_3 C24_3 1_555 1_555
C25_3 C24_3 1_555 1_555
H15_2 C26_3 1_555 1_555
C28_3 C25_3 1_555 1_555
C25_3 C26_3 1_555 1_555
Zn1_2 O1_3 1_555 1_555
Zn2_2 O2_3 1_555 1_555
Zn12_3 O7_3 1_555 1_555
O1_3 C9_3 1_555 1_555
O2_3 C9_3 1_555 1_555
O15_2 C10_3 1_555 1_555
O4_3 C10_3 1_555 1_555
O5_2 C17_3 1_555 1_555
O6_2 C17_3 1_555 1_555
O7_3 Zn1_2 1_555 1_555
H1_3 O7_3 1_555 1_555
N1_3 C1_3 1_555 1_555
N2_3 N3_2 1_555 1_555
N3_2 C2_3 1_555 1_555
C1_3 N2_3 1_555 1_555
C2_3 N1_3 1_555 1_555
C3_3 N1_3 1_555 1_555
C4_3 C3_3 1_555 1_555
H2_3 C4_3 1_555 1_555
C5_3 C4_3 1_555 1_555
C6_3 C5_3 1_555 1_555
H3_3 C6_3 1_555 1_555
C7_3 C6_3 1_555 1_555
C8_3 C3_3 1_555 1_555
H4_3 C8_3 1_555 1_555
C9_3 C5_3 1_555 1_555
C10_3 C7_3 1_555 1_555
C11_3 C1_3 1_555 1_555
C12_3 C11_3 1_555 1_555
H5_3 C12_3 1_555 1_555
C13_3 C12_3 1_555 1_555
H6_3 C13_3 1_555 1_555
C14_3 C13_3 1_555 1_555
C15_3 C14_3 1_555 1_555
H7_3 C15_3 1_555 1_555
C16_3 C11_3 1_555 1_555
H8_3 C16_3 1_555 1_555
C17_3 C14_3 1_555 1_555
C18_3 C2_3 1_555 1_555
H9_3 C18_3 1_555 1_555
H10_3 C18_3 1_555 1_555
H11_3 C18_3 1_555 1_555
Zn4_2 O9_3 1_555 1_555
O8_3 Zn1_2 1_555 1_555
O9_3 C27_3 1_555 1_555
O12_2 C35_3 1_555 1_555
O13_2 C35_3 1_555 1_555
O14_3 Zn1_2 1_555 1_555
H12_3 O14_3 1_555 1_555
N4_3 C19_3 1_555 1_555
N5_3 N6_2 1_555 1_555
N6_2 C20_3 1_555 1_555
C19_3 N5_3 1_555 1_555
C20_3 N4_3 1_555 1_555
C21_3 N4_3 1_555 1_555
C22_3 C21_3 1_555 1_555
H13_3 C22_3 1_555 1_555
C23_3 C22_3 1_555 1_555
C27_3 O8_3 1_555 1_555
C29_3 C19_3 1_555 1_555
C30_3 C29_3 1_555 1_555
H16_3 C30_3 1_555 1_555
C31_3 C30_3 1_555 1_555
H17_3 C31_3 1_555 1_555
C32_3 C31_3 1_555 1_555
C33_3 C32_3 1_555 1_555
H18_3 C33_3 1_555 1_555
C34_3 C29_3 1_555 1_555
H19_3 C34_3 1_555 1_555
C35_3 C32_3 1_555 1_555
C36_3 C20_3 1_555 1_555
H20_3 C36_3 1_555 1_555
H22_3 C36_3 1_555 1_555
Zn7 N3_2 1_555 1_555
Zn9 N6_2 1_555 1_555
O17_2 Zn1_2 1_555 1_555
O18_2 Zn1_2 1_555 1_555
O19_2 Zn2_2 1_555 1_555
O20_2 Zn4_2 1_555 1_555
N7_2 Zn2_2 1_555 1_555
N8_2 Zn4_2 1_555 1_555
Zn2_2 O7_3 1_555 1_555
Zn12_3 O14_3 1_555 1_555
C7_3 C8_3 1_555 1_555
C15_3 C16_3 1_555 1_555
Zn4_2 O14_3 1_555 1_555
C23_3 C27_3 1_555 1_555
C33_3 C34_3 1_555 1_555
N4_4 C19_4 1_555 1_555
N5_4 N8_2 1_555 1_555
N8_2 C20_4 1_555 1_555
C19_4 N5_4 1_555 1_555
C20_4 N4_4 1_555 1_555
C21_4 N4_4 1_555 1_555
C22_4 C21_4 1_555 1_555
H13_4 C22_4 1_555 1_555
C36_4 C20_4 1_555 1_555
H20_4 C36_4 1_555 1_555
H22_4 C36_4 1_555 1_555
O16 C28_4 1_555 1_555
O11_4 C28_4 1_555 1_555
H14_4 C24_4 1_555 1_555
C25_4 C24_4 1_555 1_555
C28_4 C25_4 1_555 1_555
C25_4 C26_4 1_555 1_555
Zn12 O7_4 1_555 1_555
O7_4 Zn5 1_555 1_555
H1_4 O7_4 1_555 1_555
O8_4 Zn5 1_555 1_555
O9_4 C27_4 1_555 1_555
O18_2 C35_4 1_555 1_555
O20_2 C35_4 1_555 1_555
C27_4 O8_4 1_555 1_555
C30_4 C29_4 1_555 1_555
H16_4 C30_4 1_555 1_555
C31_4 C30_4 1_555 1_555
H17_4 C31_4 1_555 1_555
C32_4 C31_4 1_555 1_555
C33_4 C32_4 1_555 1_555
H18_4 C33_4 1_555 1_555
C34_4 C29_4 1_555 1_555
H19_4 C34_4 1_555 1_555
C35_4 C32_4 1_555 1_555
Zn7 O7_4 1_555 1_555
C23_4 C27_4 1_555 1_555
C33_4 C34_4 1_555 1_555
N1_4 C1_4 1_555 1_555
N2_4 N7_2 1_555 1_555
N7_2 C2_4 1_555 1_555
C1_4 N2_4 1_555 1_555
C2_4 N1_4 1_555 1_555
C3_4 N1_4 1_555 1_555
C4_4 C3_4 1_555 1_555
H2_4 C4_4 1_555 1_555
C18_4 C2_4 1_555 1_555
H9_4 C18_4 1_555 1_555
H10_4 C18_4 1_555 1_555
H11_4 C18_4 1_555 1_555
Zn5_2 O1_4 1_555 1_555
O1_4 C9_4 1_555 1_555
O2_4 C9_4 1_555 1_555
O15 C10_4 1_555 1_555
O4_4 C10_4 1_555 1_555
O17_2 C17_4 1_555 1_555
O19_2 C17_4 1_555 1_555
C6_4 C5_4 1_555 1_555
H3_4 C6_4 1_555 1_555
C7_4 C6_4 1_555 1_555
C9_4 C5_4 1_555 1_555
C10_4 C7_4 1_555 1_555
C12_4 C11_4 1_555 1_555
H5_4 C12_4 1_555 1_555
C13_4 C12_4 1_555 1_555
H6_4 C13_4 1_555 1_555
C14_4 C13_4 1_555 1_555
C15_4 C14_4 1_555 1_555
H7_4 C15_4 1_555 1_555
C16_4 C11_4 1_555 1_555
H8_4 C16_4 1_555 1_555
C17_4 C14_4 1_555 1_555
O14_4 Zn5_2 1_555 1_555
H12_4 O14_4 1_555 1_555
Zn12_2 O14_4 1_555 1_555
C7_4 C8_4 1_555 1_555
C15_4 C16_4 1_555 1_555
Zn9 O14_4 1_555 1_555

#END
