
###############################################################################
#
# This file contains modified crystal structure data generated from the
# MOF subset of the Cambridge Structural Database (CSD) v543 
# hosted by the Cambridge Crystallographic Data Centre (CCDC).
#
# This work is licensed under the Creative Commons
# Attribution-NonCommercial-ShareAlike 4.0 International License.
# To view a copy of this license, visit
# http://creativecommons.org/licenses/by-nc-sa/4.0/
# or send a letter to
# Creative Commons, PO Box 1866, Mountain View, CA 94042, USA.
#
# CIF created using the CSD Python API on 29 September 2022
# The structure has been converted into the P1 space group
# The structure has a 3D framework
# The original CSD entry MARXEK is in the tetragonal crystal system
# The original CSD entry MARXEK is in a Sohncke space group
# The framework has been calculated to contain at least 10.0% void space
# The void calculation uses a probe of radius 1.32A, grid spacing 0.4
# H atom positions have been added when not included in the experimental data
# Generated hydrogen atom positions removed from atoms on special positions
#
###############################################################################

data_MARXEK
_chemical_formula_moiety         '(C54 H34 Lu4 O28)n'
_symmetry_cell_setting           triclinic
_symmetry_space_group_name_H-M   'P 1'
_symmetry_Int_Tables_number      1
_space_group_name_Hall           'P 1'
loop_
_symmetry_equiv_pos_site_id
_symmetry_equiv_pos_as_xyz
1 x,y,z
_cell_length_a                   10.2245(14)
_cell_length_b                   10.2245(14)
_cell_length_c                   14.369(3)
_cell_angle_alpha                90
_cell_angle_beta                 90
_cell_angle_gamma                90
_cell_volume                     1502.14
loop_
_atom_site_label
_atom_site_type_symbol
_atom_site_fract_x
_atom_site_fract_y
_atom_site_fract_z
O8 O 0.1139(9) 0.0642(8) 0.1498(6)
Lu1 Lu 0.14819(3) 0.85181(3) 0.1250
C1 C 0.0000 0.6128(14) 0.0000
C2 C 0.0000 0.4632(13) 0.0000
C3 C 0.0466(11) 0.3959(9) 0.0779(7)
H1 H 0.0790 0.4415 0.1290
C4 C 0.0441(11) 0.2593(10) 0.0781(6)
C5 C 0.0000 0.1909(14) 0.0000
H2 H 0.0000 0.1000 0.0000
C6 C 0.0886(10) 0.1809(10) 0.1613(7)
O1 O 0.0732(9) 0.6665(7) 0.0581(6)
O3 O 0.0959(9) 0.2399(8) 0.2379(5)
O4 O 0.3110(8) 0.6890(8) 0.1250
Lu4 Lu 0.14819(3) 0.14819(3) 0.3750
O6 O 0.3335(7) 0.9268(9) 0.1919(6)
O12 O 0.0959(9) 0.7601(8) 0.2621(5)
C1_2 C 0.0000 0.6128(14) 1.0000
C2_2 C 0.0000 0.4632(13) 1.0000
C5_2 C -0.0000 0.1909(14) 1.0000
H2_2 H -0.0000 0.1000 1.0000
O11 O 0.2399(8) 0.9041(9) 0.9879(5)
C1_3 C 1.0000 0.6128(14) 0.0000
C2_3 C 1.0000 0.4632(13) 0.0000
C5_3 C 1.0000 0.1909(14) 0.0000
H2_3 H 1.0000 0.1000 0.0000
O9 O 0.9358(8) 0.8861(9) 0.1002(6)
C1_4 C 1.0000 0.6128(14) 1.0000
C2_4 C 1.0000 0.4632(13) 1.0000
C5_4 C 1.0000 0.1909(14) 1.0000
H2_4 H 1.0000 0.1000 1.0000
Lu3 Lu 0.85181(3) 0.14819(3) 0.6250
Lu6 Lu 0.85181(3) 0.85181(3) 0.8750
C7 C 0.9534(11) 0.3959(9) 0.9221(7)
H3 H 0.9210 0.4415 0.8710
C8 C 0.9559(11) 0.2593(10) 0.9219(6)
C9 C 0.9114(10) 0.1809(10) 0.8387(7)
O5 O 0.9268(9) 0.6665(7) 0.9419(6)
O7 O 0.8861(9) 0.0642(8) 0.8502(6)
O10 O 0.9041(9) 0.2399(8) 0.7621(5)
C1_5 C 0.0000 0.3872(14) 0.5000
C2_5 C 0.0000 0.5368(13) 0.5000
C5_5 C -0.0000 0.8091(14) 0.5000
H2_5 H -0.0000 0.9000 0.5000
C7_2 C 0.0466(11) 0.6041(9) 0.4221(7)
H3_2 H 0.0790 0.5585 0.3710
C8_2 C 0.0441(11) 0.7407(10) 0.4219(6)
C9_2 C 0.0886(10) 0.8191(10) 0.3387(7)
O5_2 O 0.0732(9) 0.3335(7) 0.4419(6)
O7_2 O 0.1139(9) 0.9358(8) 0.3502(6)
O9_2 O 0.0642(8) 0.1139(9) 0.6002(6)
C1_6 C 1.0000 0.3872(14) 0.5000
C2_6 C 1.0000 0.5368(13) 0.5000
C3_2 C 0.9534(11) 0.6041(9) 0.5779(7)
H1_2 H 0.9210 0.5585 0.6290
C4_2 C 0.9559(11) 0.7407(10) 0.5781(6)
C5_6 C 1.0000 0.8091(14) 0.5000
H2_6 H 1.0000 0.9000 0.5000
C6_2 C 0.9114(10) 0.8191(10) 0.6613(7)
O1_2 O 0.9268(9) 0.3335(7) 0.5581(6)
O2 O 0.8861(9) 0.9358(8) 0.6498(6)
O3_2 O 0.9041(9) 0.7601(8) 0.7379(5)
O4_2 O 0.6890(8) 0.3110(8) 0.6250
O6_2 O 0.6665(7) 0.0732(9) 0.6919(6)
O11_2 O 0.7601(8) 0.0959(9) 0.4879(5)
C1_7 C 0.3872(14) -0.0000 0.2500
C2_7 C 0.5368(13) -0.0000 0.2500
C3_3 C 0.6041(9) 0.0466(11) 0.3279(7)
H1_3 H 0.5585 0.0790 0.3790
C4_3 C 0.7407(10) 0.0441(11) 0.3281(6)
C5_7 C 0.8091(14) -0.0000 0.2500
H2_7 H 0.9000 -0.0000 0.2500
C6_3 C 0.8191(10) 0.0886(10) 0.4113(7)
O1_3 O 0.3335(7) 0.0732(9) 0.3081(6)
O2_2 O 0.9358(8) 0.1139(9) 0.3998(6)
O4_3 O 0.3110(8) 0.3110(8) 0.3750
O12_2 O 0.2399(8) 0.0959(9) 0.5121(5)
C1_8 C 0.3872(14) 1.0000 0.2500
C2_8 C 0.5368(13) 1.0000 0.2500
C5_8 C 0.8091(14) 1.0000 0.2500
H2_8 H 0.9000 1.0000 0.2500
C7_3 C 0.6041(9) 0.9534(11) 0.1721(7)
H3_3 H 0.5585 0.9210 0.1210
C8_3 C 0.7407(10) 0.9559(11) 0.1719(6)
C9_3 C 0.8191(10) 0.9114(10) 0.0887(7)
O10_2 O 0.7601(8) 0.9041(9) 0.0121(5)
O8_2 O 0.0642(8) 0.8861(9) 0.8998(6)
C1_9 C 0.6128(14) 0.0000 0.7500
C2_9 C 0.4632(13) 0.0000 0.7500
C5_9 C 0.1909(14) 0.0000 0.7500
H2_9 H 0.1000 0.0000 0.7500
C7_4 C 0.3959(9) 0.0466(11) 0.6721(7)
H3_4 H 0.4415 0.0790 0.6210
C8_4 C 0.2593(10) 0.0441(11) 0.6719(6)
C9_4 C 0.1809(10) 0.0886(10) 0.5887(7)
C1_10 C 0.6128(14) 1.0000 0.7500
C2_10 C 0.4632(13) 1.0000 0.7500
C3_4 C 0.3959(9) 0.9534(11) 0.8279(7)
H1_4 H 0.4415 0.9210 0.8790
C4_4 C 0.2593(10) 0.9559(11) 0.8281(6)
C5_10 C 0.1909(14) 1.0000 0.7500
H2_10 H 0.1000 1.0000 0.7500
C6_4 C 0.1809(10) 0.9114(10) 0.9113(7)
O1_4 O 0.6665(7) 0.9268(9) 0.8081(6)
O4_4 O 0.6890(8) 0.6890(8) 0.8750
loop_
_geom_bond_atom_site_label_1
_geom_bond_atom_site_label_2
_geom_bond_site_symmetry_1
_geom_bond_site_symmetry_2
Lu1 O1 1_555 1_555
C1 C2 1_555 1_555
C2 C3 1_555 1_555
C3 H1 1_555 1_555
C4 C3 1_555 1_555
C5 C4 1_555 1_555
H2 C5 1_555 1_555
C6 C4 1_555 1_555
O1 C1 1_555 1_555
O8 C6 1_555 1_555
O3 C6 1_555 1_555
O4 Lu1 1_555 1_555
Lu4 O3 1_555 1_555
O6 Lu1 1_555 1_555
O12 Lu1 1_555 1_555
C1_2 C2_2 1_555 1_555
H2_2 C5_2 1_555 1_555
C1_3 C2_3 1_555 1_555
H2_3 C5_3 1_555 1_555
C1_4 C2_4 1_555 1_555
H2_4 C5_4 1_555 1_555
Lu3 O10 1_555 1_555
Lu6 O5 1_555 1_555
C7 C2_4 1_555 1_555
H3 C7 1_555 1_555
C8 C5_4 1_555 1_555
C9 C8 1_555 1_555
O5 C1_4 1_555 1_555
O7 C9 1_555 1_555
O10 C9 1_555 1_555
C7 C8 1_555 1_555
C1_5 C2_5 1_555 1_555
H2_5 C5_5 1_555 1_555
Lu4 O5_2 1_555 1_555
C7_2 C2_5 1_555 1_555
H3_2 C7_2 1_555 1_555
C8_2 C5_5 1_555 1_555
C9_2 C8_2 1_555 1_555
O5_2 C1_5 1_555 1_555
O7_2 C9_2 1_555 1_555
O12 C9_2 1_555 1_555
C7_2 C8_2 1_555 1_555
Lu3 O1_2 1_555 1_555
C1_6 C2_6 1_555 1_555
C2_6 C3_2 1_555 1_555
C3_2 H1_2 1_555 1_555
C4_2 C3_2 1_555 1_555
C5_6 C4_2 1_555 1_555
H2_6 C5_6 1_555 1_555
C6_2 C4_2 1_555 1_555
O1_2 C1_6 1_555 1_555
O2 C6_2 1_555 1_555
O3_2 C6_2 1_555 1_555
O4_2 Lu3 1_555 1_555
Lu6 O3_2 1_555 1_555
O6_2 Lu3 1_555 1_555
O11_2 Lu3 1_555 1_555
Lu4 O1_3 1_555 1_555
C1_7 C2_7 1_555 1_555
C2_7 C3_3 1_555 1_555
C3_3 H1_3 1_555 1_555
C4_3 C3_3 1_555 1_555
C5_7 C4_3 1_555 1_555
H2_7 C5_7 1_555 1_555
C6_3 C4_3 1_555 1_555
O1_3 C1_7 1_555 1_555
O2_2 C6_3 1_555 1_555
O11_2 C6_3 1_555 1_555
O4_3 Lu4 1_555 1_555
O12_2 Lu4 1_555 1_555
C1_8 C2_8 1_555 1_555
H2_8 C5_8 1_555 1_555
C7_3 C2_8 1_555 1_555
H3_3 C7_3 1_555 1_555
C8_3 C5_8 1_555 1_555
C9_3 C8_3 1_555 1_555
O6 C1_8 1_555 1_555
O9 C9_3 1_555 1_555
O10_2 C9_3 1_555 1_555
C7_3 C8_3 1_555 1_555
C1_9 C2_9 1_555 1_555
H2_9 C5_9 1_555 1_555
C7_4 C2_9 1_555 1_555
H3_4 C7_4 1_555 1_555
C8_4 C5_9 1_555 1_555
C9_4 C8_4 1_555 1_555
O6_2 C1_9 1_555 1_555
O9_2 C9_4 1_555 1_555
O12_2 C9_4 1_555 1_555
C7_4 C8_4 1_555 1_555
Lu6 O1_4 1_555 1_555
C1_10 C2_10 1_555 1_555
C2_10 C3_4 1_555 1_555
C3_4 H1_4 1_555 1_555
C4_4 C3_4 1_555 1_555
C5_10 C4_4 1_555 1_555
H2_10 C5_10 1_555 1_555
C6_4 C4_4 1_555 1_555
O1_4 C1_10 1_555 1_555
O8_2 C6_4 1_555 1_555
O11 C6_4 1_555 1_555
O4_4 Lu6 1_555 1_555

#END
