
###############################################################################
#
# This file contains modified crystal structure data generated from the
# MOF subset of the Cambridge Structural Database (CSD) v543 
# hosted by the Cambridge Crystallographic Data Centre (CCDC).
#
# This work is licensed under the Creative Commons
# Attribution-NonCommercial-ShareAlike 4.0 International License.
# To view a copy of this license, visit
# http://creativecommons.org/licenses/by-nc-sa/4.0/
# or send a letter to
# Creative Commons, PO Box 1866, Mountain View, CA 94042, USA.
#
# CIF created using the CSD Python API on 29 September 2022
# The structure has been converted into the P1 space group
# The structure has a 3D framework
# The original CSD entry MASZOX is in the monoclinic crystal system
# The framework has been calculated to contain at least 10.0% void space
# The void calculation uses a probe of radius 1.32A, grid spacing 0.4
#
###############################################################################

data_MASZOX
_chemical_formula_moiety         '(C200 H160 Cu24 I8 Mo8 N40 O8 S24)n'
_symmetry_cell_setting           triclinic
_symmetry_space_group_name_H-M   'P 1'
_symmetry_Int_Tables_number      1
_space_group_name_Hall           'P 1'
loop_
_symmetry_equiv_pos_site_id
_symmetry_equiv_pos_as_xyz
1 x,y,z
_cell_length_a                   21.186(5)
_cell_length_b                   21.293(5)
_cell_length_c                   17.947(4)
_cell_angle_alpha                90
_cell_angle_beta                 96.459(18)
_cell_angle_gamma                90
_cell_volume                     8044.74
loop_
_atom_site_label
_atom_site_type_symbol
_atom_site_fract_x
_atom_site_fract_y
_atom_site_fract_z
Cu7 Cu 0.68228(5) 0.08807(4) 0.02747(5)
Mo2 Mo 0.78579(3) 0.01881(3) 0.00470(3)
O2 O 0.8586(3) 0.0203(3) 0.0557(4)
N8 N 0.6814(4) 0.1469(3) 0.1192(4)
S6 S 0.70979(11) 0.99017(9) 0.07618(11)
Cu10 Cu 0.81772(5) 0.58807(4) 0.47253(5)
N6 N 0.7588(4) 0.8397(3) 0.0606(3)
N9 N 0.8186(4) 0.6469(3) 0.3808(4)
C26 C 0.8071(4) 0.8504(4) 0.1091(5)
H21 H 0.8312 0.8859 0.1017
C27 C 0.8264(5) 0.8138(4) 0.1711(5)
H22 H 0.8621 0.8243 0.2036
C28 C 0.7902(4) 0.7599(4) 0.1838(5)
C29 C 0.7374(5) 0.7474(5) 0.1307(5)
H23 H 0.7123 0.7121 0.1358
C30 C 0.7235(5) 0.7878(4) 0.0716(5)
H24 H 0.6883 0.7793 0.0374
C31 C 0.8274(6) 0.7090(4) 0.3838(5)
H25 H 0.8394 0.7275 0.4302
C32 C 0.8195(6) 0.7474(5) 0.3203(6)
H26 H 0.8243 0.7907 0.3250
C33 C 0.8048(4) 0.7212(4) 0.2519(4)
C34 C 0.7966(6) 0.6564(4) 0.2495(5)
H27 H 0.7856 0.6367 0.2036
C35 C 0.8042(6) 0.6219(4) 0.3125(6)
H28 H 0.7992 0.5786 0.3085
N5 N 0.0924(4) 0.5856(3) 0.9717(4)
C21 C 0.0681(5) 0.5294(4) 0.9491(6)
H17 H 0.0896 0.4934 0.9671
C22 C 0.0148(5) 0.5224(4) 0.9023(6)
H18 H 0.0018 0.4822 0.8871
C24 C 0.0027(5) 0.6320(4) 0.8998(6)
C25 C 0.0587(6) 0.6347(5) 0.9476(7)
H20 H 0.0735 0.6741 0.9636
Mo1 Mo 0.71421(3) 0.51881(3) 0.49530(3)
I1 I 0.88208(5) 0.36426(4) 0.57039(5)
S1 S 0.71534(11) 0.44813(9) 0.58949(12)
S2 S 0.74031(11) 0.61506(9) 0.54490(11)
S3 S 0.79021(11) 0.49017(9) 0.42382(11)
O1 O 0.6414(3) 0.5203(3) 0.4443(4)
Cu1 Cu 0.78509(5) 0.41277(5) 0.51250(5)
Cu2 Cu 0.73751(5) 0.54542(5) 0.64081(5)
N1 N 0.7412(4) 0.3397(3) 0.4394(3)
N3 N 0.6530(3) 0.5590(3) 0.6900(4)
N4 N 0.8123(3) 0.5526(3) 0.7193(4)
C1 C 0.6929(4) 0.3504(4) 0.3909(5)
H1 H 0.6688 0.3859 0.3983
C2 C 0.6736(5) 0.3138(4) 0.3289(5)
H2 H 0.6379 0.3243 0.2964
C3 C 0.7098(4) 0.2599(4) 0.3162(5)
C4 C 0.7626(5) 0.2474(5) 0.3693(5)
H3 H 0.7877 0.2121 0.3642
C5 C 0.7765(5) 0.2878(4) 0.4284(5)
H4 H 0.8117 0.2793 0.4626
C6 C 0.6726(6) 0.2090(4) 0.1162(5)
H5 H 0.6606 0.2275 0.0698
C7 C 0.6805(6) 0.2474(5) 0.1797(6)
H6 H 0.6757 0.2907 0.1750
C8 C 0.6952(4) 0.2212(4) 0.2481(4)
C9 C 0.7034(6) 0.1564(4) 0.2505(5)
H7 H 0.7144 0.1367 0.2964
C10 C 0.6958(6) 0.1219(4) 0.1875(6)
H8 H 0.7008 0.0786 0.1915
C11 C 0.6001(5) 0.5799(5) 0.6464(5)
H9 H 0.6049 0.5961 0.5992
C12 C 0.5438(4) 0.5783(5) 0.6672(5)
H10 H 0.5098 0.5931 0.6346
C13 C 0.5324(4) 0.5549(4) 0.7377(4)
C14 C 0.5843(4) 0.5344(4) 0.7830(4)
H11 H 0.5801 0.5194 0.8309
C15 C 0.6438(5) 0.5360(5) 0.7565(5)
H12 H 0.6786 0.5203 0.7870
C16 C 0.8204(5) 0.6025(4) 0.7664(5)
H13 H 0.7890 0.6332 0.7641
C17 C 0.8732(4) 0.6095(4) 0.8173(5)
H14 H 0.8761 0.6436 0.8499
C18 C 0.9213(4) 0.5667(4) 0.8205(5)
C19 C 0.9112(5) 0.5151(5) 0.7729(6)
H15 H 0.9405 0.4824 0.7770
C20 C 0.8610(4) 0.5113(4) 0.7220(5)
H16 H 0.8592 0.4790 0.6868
C23 C 0.9790(4) 0.5729(4) 0.8760(5)
H19 H 0.9812 0.6685 0.8839
I2 I 0.11792(5) 0.36426(4) 0.92961(5)
S4 S 0.28466(11) 0.44813(9) 0.91051(12)
S5 S 0.25969(11) 0.61506(9) 0.95510(11)
Cu4 Cu 0.21491(5) 0.41277(5) 0.98750(5)
Cu5 Cu 0.26249(5) 0.54542(5) 0.85919(5)
N10 N 0.3470(3) 0.5590(3) 0.8100(4)
N11 N 0.1877(3) 0.5526(3) 0.7807(4)
N12 N 0.9076(4) 0.5856(3) 0.5283(4)
C36 C 0.3999(5) 0.5799(5) 0.8536(5)
H29 H 0.3951 0.5961 0.9008
C37 C 0.4562(4) 0.5783(5) 0.8328(5)
H30 H 0.4902 0.5931 0.8654
C38 C 0.4676(4) 0.5549(4) 0.7623(4)
C39 C 0.4157(4) 0.5344(4) 0.7170(4)
H31 H 0.4199 0.5194 0.6691
C40 C 0.3562(5) 0.5360(5) 0.7435(5)
H32 H 0.3214 0.5203 0.7130
C41 C 0.1796(5) 0.6025(4) 0.7336(5)
H33 H 0.2110 0.6332 0.7359
C42 C 0.1268(4) 0.6095(4) 0.6827(5)
H34 H 0.1239 0.6436 0.6501
C43 C 0.0787(4) 0.5667(4) 0.6795(5)
C44 C 0.0888(5) 0.5151(5) 0.7271(6)
H35 H 0.0595 0.4824 0.7230
C45 C 0.1390(4) 0.5113(4) 0.7780(5)
H36 H 0.1408 0.4790 0.8132
C48 C 0.0210(4) 0.5729(4) 0.6240(5)
H39 H 0.0188 0.6685 0.6161
C46 C 0.9319(5) 0.5294(4) 0.5509(6)
H37 H 0.9104 0.4934 0.5329
C47 C 0.9852(5) 0.5224(4) 0.5977(6)
H38 H 0.9982 0.4822 0.6129
C49 C 0.9973(5) 0.6320(4) 0.6002(6)
C50 C 0.9413(6) 0.6347(5) 0.5524(7)
H40 H 0.9265 0.6741 0.5364
Mo1_2 Mo 0.21421(3) 0.01881(3) 0.49530(3)
S2_2 S 0.24031(11) 0.11506(9) 0.54490(11)
O1_2 O 0.1414(3) 0.0203(3) 0.4443(4)
Cu2_2 Cu 0.23751(5) 0.04542(5) 0.64081(5)
Cu3 Cu 0.31772(5) 0.08807(4) 0.47253(5)
N3_2 N 0.1530(3) 0.0590(3) 0.6900(4)
N4_2 N 0.3123(3) 0.0526(3) 0.7193(4)
N5_2 N 0.5924(4) 0.0856(3) 0.9717(4)
C11_2 C 0.1001(5) 0.0799(5) 0.6464(5)
H9_2 H 0.1049 0.0961 0.5992
C12_2 C 0.0438(4) 0.0783(5) 0.6672(5)
H10_2 H 0.0098 0.0931 0.6346
C13_2 C 0.0324(4) 0.0549(4) 0.7377(4)
C14_2 C 0.0843(4) 0.0344(4) 0.7830(4)
H11_2 H 0.0801 0.0194 0.8309
C15_2 C 0.1438(5) 0.0360(5) 0.7565(5)
H12_2 H 0.1786 0.0203 0.7870
C16_2 C 0.3204(5) 0.1025(4) 0.7664(5)
H13_2 H 0.2890 0.1332 0.7641
C17_2 C 0.3732(4) 0.1095(4) 0.8173(5)
H14_2 H 0.3761 0.1436 0.8499
C18_2 C 0.4213(4) 0.0667(4) 0.8205(5)
C19_2 C 0.4112(5) 0.0151(5) 0.7729(6)
C20_2 C 0.3610(4) 0.0113(4) 0.7220(5)
C21_2 C 0.5681(5) 0.0294(4) 0.9491(6)
C22_2 C 0.5148(5) 0.0224(4) 0.9023(6)
C23_2 C 0.4790(4) 0.0729(4) 0.8760(5)
C24_2 C 0.5027(5) 0.1320(4) 0.8998(6)
H19_2 H 0.4812 0.1685 0.8839
C25_2 C 0.5587(6) 0.1347(5) 0.9476(7)
H20_2 H 0.5735 0.1741 0.9636
N7 N 0.3186(4) 0.1469(3) 0.3808(4)
N12_2 N 0.4076(4) 0.0856(3) 0.5283(4)
I1_2 I 0.38208(5) 0.86426(4) 0.57039(5)
S1_2 S 0.21534(11) 0.94813(9) 0.58949(12)
S3_2 S 0.29021(11) 0.99017(9) 0.42382(11)
Cu1_2 Cu 0.28509(5) 0.91277(5) 0.51250(5)
N1_2 N 0.2412(4) 0.8397(3) 0.4394(3)
N2 N 0.1814(4) 0.6469(3) 0.1192(4)
C1_2 C 0.1929(4) 0.8504(4) 0.3909(5)
H1_2 H 0.1688 0.8859 0.3983
C2_2 C 0.1736(5) 0.8138(4) 0.3289(5)
H2_2 H 0.1379 0.8243 0.2964
C3_2 C 0.2098(4) 0.7599(4) 0.3162(5)
C4_2 C 0.2626(5) 0.7474(5) 0.3693(5)
H3_2 H 0.2877 0.7121 0.3642
C5_2 C 0.2765(5) 0.7878(4) 0.4284(5)
H4_2 H 0.3117 0.7793 0.4626
C6_2 C 0.1726(6) 0.7090(4) 0.1162(5)
H5_2 H 0.1606 0.7275 0.0698
C7_2 C 0.1805(6) 0.7474(5) 0.1797(6)
H6_2 H 0.1757 0.7907 0.1750
C8_2 C 0.1952(4) 0.7212(4) 0.2481(4)
C9_2 C 0.2034(6) 0.6564(4) 0.2505(5)
H7_2 H 0.2144 0.6367 0.2964
C10_2 C 0.1958(6) 0.6219(4) 0.1875(6)
H8_2 H 0.2008 0.5786 0.1915
H15_2 H 0.4405 0.9824 0.7770
H16_2 H 0.3592 0.9790 0.6868
H17_2 H 0.5896 0.9934 0.9671
H18_2 H 0.5018 0.9822 0.8871
Cu6 Cu 0.18228(5) 0.58807(4) 0.02747(5)
S5_2 S 0.75969(11) 0.11506(9) 0.95510(11)
Cu5_2 Cu 0.76249(5) 0.04542(5) 0.85919(5)
N10_2 N 0.8470(3) 0.0590(3) 0.8100(4)
N11_2 N 0.6877(3) 0.0526(3) 0.7807(4)
C36_2 C 0.8999(5) 0.0799(5) 0.8536(5)
H29_2 H 0.8951 0.0961 0.9008
C37_2 C 0.9562(4) 0.0783(5) 0.8328(5)
H30_2 H 0.9902 0.0931 0.8654
C38_2 C 0.9676(4) 0.0549(4) 0.7623(4)
C39_2 C 0.9157(4) 0.0344(4) 0.7170(4)
H31_2 H 0.9199 0.0194 0.6691
C40_2 C 0.8562(5) 0.0360(5) 0.7435(5)
H32_2 H 0.8214 0.0203 0.7130
C41_2 C 0.6796(5) 0.1025(4) 0.7336(5)
H33_2 H 0.7110 0.1332 0.7359
C42_2 C 0.6268(4) 0.1095(4) 0.6827(5)
H34_2 H 0.6239 0.1436 0.6501
C43_2 C 0.5787(4) 0.0667(4) 0.6795(5)
C44_2 C 0.5888(5) 0.0151(5) 0.7271(6)
C45_2 C 0.6390(4) 0.0113(4) 0.7780(5)
C46_2 C 0.4319(5) 0.0294(4) 0.5509(6)
C47_2 C 0.4852(5) 0.0224(4) 0.5977(6)
C48_2 C 0.5210(4) 0.0729(4) 0.6240(5)
C49_2 C 0.4973(5) 0.1320(4) 0.6002(6)
H39_2 H 0.5188 0.1685 0.6161
C50_2 C 0.4413(6) 0.1347(5) 0.5524(7)
H40_2 H 0.4265 0.1741 0.5364
Mo2_2 Mo 0.28579(3) 0.51881(3) 0.00470(3)
S6_2 S 0.20979(11) 0.49017(9) 0.07618(11)
O2_2 O 0.3586(3) 0.5203(3) 0.0557(4)
N6_2 N 0.2588(4) 0.3397(3) 0.0606(3)
C26_2 C 0.3071(4) 0.3504(4) 0.1091(5)
H21_2 H 0.3312 0.3859 0.1017
C27_2 C 0.3264(5) 0.3138(4) 0.1711(5)
H22_2 H 0.3621 0.3243 0.2036
C28_2 C 0.2902(4) 0.2599(4) 0.1838(5)
C29_2 C 0.2374(5) 0.2474(5) 0.1307(5)
H23_2 H 0.2123 0.2121 0.1358
C30_2 C 0.2235(5) 0.2878(4) 0.0716(5)
H24_2 H 0.1883 0.2793 0.0374
C31_2 C 0.3274(6) 0.2090(4) 0.3838(5)
H25_2 H 0.3394 0.2275 0.4302
C32_2 C 0.3195(6) 0.2474(5) 0.3203(6)
H26_2 H 0.3243 0.2907 0.3250
C33_2 C 0.3048(4) 0.2212(4) 0.2519(4)
C34_2 C 0.2966(6) 0.1564(4) 0.2495(5)
H27_2 H 0.2856 0.1367 0.2036
C35_2 C 0.3042(6) 0.1219(4) 0.3125(6)
H28_2 H 0.2992 0.0786 0.3085
I2_2 I 0.61792(5) 0.86426(4) 0.92961(5)
S4_2 S 0.78466(11) 0.94813(9) 0.91051(12)
Cu4_2 Cu 0.71491(5) 0.91277(5) 0.98750(5)
H35_2 H 0.5595 0.9824 0.7230
H36_2 H 0.6408 0.9790 0.8132
H37_2 H 0.4104 0.9934 0.5329
H38_2 H 0.4982 0.9822 0.6129
I2_3 I 0.38208(5) 0.13574(4) 0.07039(5)
S4_3 S 0.21534(11) 0.05187(9) 0.08949(12)
Cu4_3 Cu 0.28509(5) 0.08723(5) 0.01250(5)
H35_3 H 0.4405 0.0176 0.2770
H36_3 H 0.3592 0.0210 0.1868
H37_3 H 0.5896 0.0066 0.4671
H38_3 H 0.5018 0.0178 0.3871
S6_3 S 0.29021(11) 0.00983(9) 0.92382(11)
Cu10_2 Cu 0.18228(5) 0.41193(4) 0.52747(5)
N6_3 N 0.2412(4) 0.1603(3) 0.9394(3)
N9_2 N 0.1814(4) 0.3531(3) 0.6192(4)
C26_3 C 0.1929(4) 0.1496(4) 0.8909(5)
H21_3 H 0.1688 0.1141 0.8983
C27_3 C 0.1736(5) 0.1862(4) 0.8289(5)
H22_3 H 0.1379 0.1757 0.7964
C28_3 C 0.2098(4) 0.2401(4) 0.8162(5)
C29_3 C 0.2626(5) 0.2526(5) 0.8693(5)
H23_3 H 0.2877 0.2879 0.8642
C30_3 C 0.2765(5) 0.2122(4) 0.9284(5)
H24_3 H 0.3117 0.2207 0.9626
C31_3 C 0.1726(6) 0.2910(4) 0.6162(5)
H25_3 H 0.1606 0.2725 0.5698
C32_3 C 0.1805(6) 0.2526(5) 0.6797(6)
H26_3 H 0.1757 0.2093 0.6750
C33_3 C 0.1952(4) 0.2788(4) 0.7481(4)
C34_3 C 0.2034(6) 0.3436(4) 0.7505(5)
H27_3 H 0.2144 0.3633 0.7964
C35_3 C 0.1958(6) 0.3781(4) 0.6875(6)
H28_3 H 0.2008 0.4214 0.6915
Mo2_3 Mo 0.21421(3) 0.98119(3) 0.99530(3)
O2_3 O 0.1414(3) 0.9797(3) 0.9443(4)
Cu8 Cu 0.31772(5) 0.91193(4) 0.97253(5)
N8_2 N 0.3186(4) 0.8531(3) 0.8808(4)
N14 N 0.0924(4) 0.4144(3) 0.4717(4)
C46_3 C 0.0681(5) 0.4706(4) 0.4491(6)
H37_4 H 0.0896 0.5066 0.4671
C47_3 C 0.0148(5) 0.4776(4) 0.4023(6)
H38_4 H 0.0018 0.5178 0.3871
C49_3 C 0.0027(5) 0.3680(4) 0.3998(6)
C50_3 C 0.0587(6) 0.3653(5) 0.4476(7)
H40_3 H 0.0735 0.3259 0.4636
Mo1_3 Mo 0.28579(3) 0.48119(3) 0.50470(3)
I1_3 I 0.11792(5) 0.63574(4) 0.42961(5)
S1_3 S 0.28466(11) 0.55187(9) 0.41051(12)
S2_3 S 0.25969(11) 0.38494(9) 0.45510(11)
S3_3 S 0.20979(11) 0.50983(9) 0.57618(11)
O1_3 O 0.3586(3) 0.4797(3) 0.5557(4)
Cu1_3 Cu 0.21491(5) 0.58723(5) 0.48750(5)
Cu2_3 Cu 0.26249(5) 0.45458(5) 0.35919(5)
N1_3 N 0.2588(4) 0.6603(3) 0.5606(3)
N3_3 N 0.3470(3) 0.4410(3) 0.3100(4)
N4_3 N 0.1877(3) 0.4474(3) 0.2807(4)
C1_3 C 0.3071(4) 0.6496(4) 0.6091(5)
H1_3 H 0.3312 0.6141 0.6017
C2_3 C 0.3264(5) 0.6862(4) 0.6711(5)
H2_3 H 0.3621 0.6757 0.7036
C3_3 C 0.2902(4) 0.7401(4) 0.6838(5)
C4_3 C 0.2374(5) 0.7526(5) 0.6307(5)
H3_3 H 0.2123 0.7879 0.6358
C5_3 C 0.2235(5) 0.7122(4) 0.5716(5)
H4_3 H 0.1883 0.7207 0.5374
C6_3 C 0.3274(6) 0.7910(4) 0.8838(5)
H5_3 H 0.3394 0.7725 0.9302
C7_3 C 0.3195(6) 0.7526(5) 0.8203(6)
H6_3 H 0.3243 0.7093 0.8250
C8_3 C 0.3048(4) 0.7788(4) 0.7519(4)
C9_3 C 0.2966(6) 0.8436(4) 0.7495(5)
H7_3 H 0.2856 0.8633 0.7036
C10_3 C 0.3042(6) 0.8781(4) 0.8125(6)
H8_3 H 0.2992 0.9214 0.8085
C11_3 C 0.3999(5) 0.4201(5) 0.3536(5)
H9_3 H 0.3951 0.4039 0.4008
C12_3 C 0.4562(4) 0.4217(5) 0.3328(5)
H10_3 H 0.4902 0.4069 0.3654
C13_3 C 0.4676(4) 0.4451(4) 0.2623(4)
C14_3 C 0.4157(4) 0.4656(4) 0.2170(4)
H11_3 H 0.4199 0.4806 0.1691
C15_3 C 0.3562(5) 0.4640(5) 0.2435(5)
H12_3 H 0.3214 0.4797 0.2130
C16_3 C 0.1796(5) 0.3975(4) 0.2336(5)
H13_3 H 0.2110 0.3668 0.2359
C17_3 C 0.1268(4) 0.3905(4) 0.1827(5)
H14_3 H 0.1239 0.3564 0.1501
C18_3 C 0.0787(4) 0.4333(4) 0.1795(5)
C19_3 C 0.0888(5) 0.4849(5) 0.2271(6)
H15_3 H 0.0595 0.5176 0.2230
C20_3 C 0.1390(4) 0.4887(4) 0.2780(5)
H16_3 H 0.1408 0.5210 0.3132
C23_3 C 0.0210(4) 0.4271(4) 0.1240(5)
H19_3 H 0.0188 0.3315 0.1161
I2_4 I 0.88208(5) 0.63574(4) 0.07039(5)
S4_4 S 0.71534(11) 0.55187(9) 0.08949(12)
S5_3 S 0.74031(11) 0.38494(9) 0.04490(11)
Cu4_4 Cu 0.78509(5) 0.58723(5) 0.01250(5)
Cu5_3 Cu 0.73751(5) 0.45458(5) 0.14081(5)
N10_3 N 0.6530(3) 0.4410(3) 0.1900(4)
N11_3 N 0.8123(3) 0.4474(3) 0.2193(4)
N13 N 0.9076(4) 0.4144(3) 0.0283(4)
C36_3 C 0.6001(5) 0.4201(5) 0.1464(5)
H29_3 H 0.6049 0.4039 0.0992
C37_3 C 0.5438(4) 0.4217(5) 0.1672(5)
H30_3 H 0.5098 0.4069 0.1346
C38_3 C 0.5324(4) 0.4451(4) 0.2377(4)
C39_3 C 0.5843(4) 0.4656(4) 0.2830(4)
H31_3 H 0.5801 0.4806 0.3309
C40_3 C 0.6438(5) 0.4640(5) 0.2565(5)
H32_3 H 0.6786 0.4797 0.2870
C41_3 C 0.8204(5) 0.3975(4) 0.2664(5)
H33_3 H 0.7890 0.3668 0.2641
C42_3 C 0.8732(4) 0.3905(4) 0.3173(5)
H34_3 H 0.8761 0.3564 0.3499
C43_3 C 0.9213(4) 0.4333(4) 0.3205(5)
C44_3 C 0.9112(5) 0.4849(5) 0.2729(6)
H35_4 H 0.9405 0.5176 0.2770
C45_3 C 0.8610(4) 0.4887(4) 0.2220(5)
H36_4 H 0.8592 0.5210 0.1868
C48_3 C 0.9790(4) 0.4271(4) 0.3760(5)
H39_3 H 0.9812 0.3315 0.3839
C21_3 C 0.9319(5) 0.4706(4) 0.0509(6)
H17_3 H 0.9104 0.5066 0.0329
C22_3 C 0.9852(5) 0.4776(4) 0.0977(6)
H18_3 H 0.9982 0.5178 0.1129
C24_3 C 0.9973(5) 0.3680(4) 0.1002(6)
C25_3 C 0.9413(6) 0.3653(5) 0.0524(7)
H20_3 H 0.9265 0.3259 0.0364
S5_4 S 0.24031(11) 0.88494(9) 0.04490(11)
Cu5_4 Cu 0.23751(5) 0.95458(5) 0.14081(5)
Cu9 Cu 0.68228(5) 0.91193(4) 0.52747(5)
N10_4 N 0.1530(3) 0.9410(3) 0.1900(4)
N11_4 N 0.3123(3) 0.9474(3) 0.2193(4)
N13_2 N 0.4076(4) 0.9144(3) 0.0283(4)
N14_2 N 0.5924(4) 0.9144(3) 0.4717(4)
C36_4 C 0.1001(5) 0.9201(5) 0.1464(5)
H29_4 H 0.1049 0.9039 0.0992
C37_4 C 0.0438(4) 0.9217(5) 0.1672(5)
H30_4 H 0.0098 0.9069 0.1346
C38_4 C 0.0324(4) 0.9451(4) 0.2377(4)
C39_4 C 0.0843(4) 0.9656(4) 0.2830(4)
H31_4 H 0.0801 0.9806 0.3309
C40_4 C 0.1438(5) 0.9640(5) 0.2565(5)
H32_4 H 0.1786 0.9797 0.2870
C41_4 C 0.3204(5) 0.8975(4) 0.2664(5)
H33_4 H 0.2890 0.8668 0.2641
C42_4 C 0.3732(4) 0.8905(4) 0.3173(5)
H34_4 H 0.3761 0.8564 0.3499
C43_4 C 0.4213(4) 0.9333(4) 0.3205(5)
C44_4 C 0.4112(5) 0.9849(5) 0.2729(6)
C45_4 C 0.3610(4) 0.9887(4) 0.2220(5)
C46_4 C 0.5681(5) 0.9706(4) 0.4491(6)
C47_4 C 0.5148(5) 0.9776(4) 0.4023(6)
C48_4 C 0.4790(4) 0.9271(4) 0.3760(5)
C49_4 C 0.5027(5) 0.8680(4) 0.3998(6)
H39_4 H 0.4812 0.8315 0.3839
C50_4 C 0.5587(6) 0.8653(5) 0.4476(7)
H40_4 H 0.5735 0.8259 0.4636
I1_4 I 0.61792(5) 0.13574(4) 0.42961(5)
S1_4 S 0.78466(11) 0.05187(9) 0.41051(12)
S3_4 S 0.70979(11) 0.00983(9) 0.57618(11)
Cu1_4 Cu 0.71491(5) 0.08723(5) 0.48750(5)
N1_4 N 0.7588(4) 0.1603(3) 0.5606(3)
N2_2 N 0.8186(4) 0.3531(3) 0.8808(4)
C1_4 C 0.8071(4) 0.1496(4) 0.6091(5)
H1_4 H 0.8312 0.1141 0.6017
C2_4 C 0.8264(5) 0.1862(4) 0.6711(5)
H2_4 H 0.8621 0.1757 0.7036
C3_4 C 0.7902(4) 0.2401(4) 0.6838(5)
C4_4 C 0.7374(5) 0.2526(5) 0.6307(5)
H3_4 H 0.7123 0.2879 0.6358
C5_4 C 0.7235(5) 0.2122(4) 0.5716(5)
H4_4 H 0.6883 0.2207 0.5374
C6_4 C 0.8274(6) 0.2910(4) 0.8838(5)
H5_4 H 0.8394 0.2725 0.9302
C7_4 C 0.8195(6) 0.2526(5) 0.8203(6)
H6_4 H 0.8243 0.2093 0.8250
C8_4 C 0.8048(4) 0.2788(4) 0.7519(4)
C9_4 C 0.7966(6) 0.3436(4) 0.7495(5)
H7_4 H 0.7856 0.3633 0.7036
C10_4 C 0.8042(6) 0.3781(4) 0.8125(6)
H8_4 H 0.7992 0.4214 0.8085
H15_4 H 0.5595 0.0176 0.2230
H16_4 H 0.6408 0.0210 0.3132
H17_4 H 0.4104 0.0066 0.0329
H18_4 H 0.4982 0.0178 0.1129
Cu6_2 Cu 0.81772(5) 0.41193(4) 0.97253(5)
Mo1_4 Mo 0.78579(3) 0.98119(3) 0.50470(3)
S2_4 S 0.75969(11) 0.88494(9) 0.45510(11)
O1_4 O 0.8586(3) 0.9797(3) 0.5557(4)
Cu2_4 Cu 0.76249(5) 0.95458(5) 0.35919(5)
N3_4 N 0.8470(3) 0.9410(3) 0.3100(4)
N4_4 N 0.6877(3) 0.9474(3) 0.2807(4)
C11_4 C 0.8999(5) 0.9201(5) 0.3536(5)
H9_4 H 0.8951 0.9039 0.4008
C12_4 C 0.9562(4) 0.9217(5) 0.3328(5)
H10_4 H 0.9902 0.9069 0.3654
C13_4 C 0.9676(4) 0.9451(4) 0.2623(4)
C14_4 C 0.9157(4) 0.9656(4) 0.2170(4)
H11_4 H 0.9199 0.9806 0.1691
C15_4 C 0.8562(5) 0.9640(5) 0.2435(5)
H12_4 H 0.8214 0.9797 0.2130
C16_4 C 0.6796(5) 0.8975(4) 0.2336(5)
H13_4 H 0.7110 0.8668 0.2359
C17_4 C 0.6268(4) 0.8905(4) 0.1827(5)
H14_4 H 0.6239 0.8564 0.1501
C18_4 C 0.5787(4) 0.9333(4) 0.1795(5)
C19_4 C 0.5888(5) 0.9849(5) 0.2271(6)
C20_4 C 0.6390(4) 0.9887(4) 0.2780(5)
C21_4 C 0.4319(5) 0.9706(4) 0.0509(6)
C22_4 C 0.4852(5) 0.9776(4) 0.0977(6)
C23_4 C 0.5210(4) 0.9271(4) 0.1240(5)
C24_4 C 0.4973(5) 0.8680(4) 0.1002(6)
H19_4 H 0.5188 0.8315 0.1161
C25_4 C 0.4413(6) 0.8653(5) 0.0524(7)
H20_4 H 0.4265 0.8259 0.0364
N7_2 N 0.6814(4) 0.8531(3) 0.6192(4)
Mo2_4 Mo 0.71421(3) 0.48119(3) 0.99530(3)
S6_4 S 0.79021(11) 0.50983(9) 0.92382(11)
O2_4 O 0.6414(3) 0.4797(3) 0.9443(4)
N6_4 N 0.7412(4) 0.6603(3) 0.9394(3)
C26_4 C 0.6929(4) 0.6496(4) 0.8909(5)
H21_4 H 0.6688 0.6141 0.8983
C27_4 C 0.6736(5) 0.6862(4) 0.8289(5)
H22_4 H 0.6379 0.6757 0.7964
C28_4 C 0.7098(4) 0.7401(4) 0.8162(5)
C29_4 C 0.7626(5) 0.7526(5) 0.8693(5)
H23_4 H 0.7877 0.7879 0.8642
C30_4 C 0.7765(5) 0.7122(4) 0.9284(5)
H24_4 H 0.8117 0.7207 0.9626
C31_4 C 0.6726(6) 0.7910(4) 0.6162(5)
H25_4 H 0.6606 0.7725 0.5698
C32_4 C 0.6805(6) 0.7526(5) 0.6797(6)
H26_4 H 0.6757 0.7093 0.6750
C33_4 C 0.6952(4) 0.7788(4) 0.7481(4)
C34_4 C 0.7034(6) 0.8436(4) 0.7505(5)
H27_4 H 0.7144 0.8633 0.7964
C35_4 C 0.6958(6) 0.8781(4) 0.6875(6)
H28_4 H 0.7008 0.9214 0.6915
loop_
_geom_bond_atom_site_label_1
_geom_bond_atom_site_label_2
_geom_bond_site_symmetry_1
_geom_bond_site_symmetry_2
O2 Mo2 1_555 1_555
Cu7 Mo2 1_555 1_555
N8 Cu7 1_555 1_555
Cu10 N9 1_555 1_555
N9 C31 1_555 1_555
C26 N6 1_555 1_555
H21 C26 1_555 1_555
C27 C26 1_555 1_555
H22 C27 1_555 1_555
C28 C27 1_555 1_555
C29 C28 1_555 1_555
H23 C29 1_555 1_555
C30 N6 1_555 1_555
H24 C30 1_555 1_555
C31 H25 1_555 1_555
C32 C31 1_555 1_555
H26 C32 1_555 1_555
C33 C28 1_555 1_555
C34 C33 1_555 1_555
H27 C34 1_555 1_555
C35 N9 1_555 1_555
H28 C35 1_555 1_555
C29 C30 1_555 1_555
C32 C33 1_555 1_555
C34 C35 1_555 1_555
N5 C21 1_555 1_555
C21 H17 1_555 1_555
C22 C21 1_555 1_555
H18 C22 1_555 1_555
C25 N5 1_555 1_555
H20 C25 1_555 1_555
C24 C25 1_555 1_555
Mo1 S1 1_555 1_555
I1 Cu1 1_555 1_555
S1 Cu1 1_555 1_555
S2 Mo1 1_555 1_555
S3 Mo1 1_555 1_555
O1 Mo1 1_555 1_555
Cu1 Mo1 1_555 1_555
Cu2 Mo1 1_555 1_555
Cu10 Mo1 1_555 1_555
N1 Cu1 1_555 1_555
N8 C6 1_555 1_555
N3 Cu2 1_555 1_555
N4 Cu2 1_555 1_555
C1 N1 1_555 1_555
H1 C1 1_555 1_555
C2 C1 1_555 1_555
H2 C2 1_555 1_555
C3 C2 1_555 1_555
C4 C3 1_555 1_555
H3 C4 1_555 1_555
C5 N1 1_555 1_555
H4 C5 1_555 1_555
C6 H5 1_555 1_555
C7 C6 1_555 1_555
H6 C7 1_555 1_555
C8 C3 1_555 1_555
C9 C8 1_555 1_555
H7 C9 1_555 1_555
C10 N8 1_555 1_555
H8 C10 1_555 1_555
C11 N3 1_555 1_555
H9 C11 1_555 1_555
C12 C11 1_555 1_555
H10 C12 1_555 1_555
C13 C12 1_555 1_555
C14 C13 1_555 1_555
H11 C14 1_555 1_555
C15 N3 1_555 1_555
H12 C15 1_555 1_555
C16 N4 1_555 1_555
H13 C16 1_555 1_555
C17 C16 1_555 1_555
H14 C17 1_555 1_555
C18 C17 1_555 1_555
C19 C18 1_555 1_555
H15 C19 1_555 1_555
C20 N4 1_555 1_555
H16 C20 1_555 1_555
C23 C18 1_555 1_555
I2 Cu4 1_555 1_555
S4 Cu4 1_555 1_555
N10 Cu5 1_555 1_555
N11 Cu5 1_555 1_555
N12 Cu10 1_555 1_555
C36 N10 1_555 1_555
H29 C36 1_555 1_555
C37 C36 1_555 1_555
H30 C37 1_555 1_555
C38 C13 1_555 1_555
C39 C38 1_555 1_555
H31 C39 1_555 1_555
C40 N10 1_555 1_555
H32 C40 1_555 1_555
C41 N11 1_555 1_555
H33 C41 1_555 1_555
C42 C41 1_555 1_555
H34 C42 1_555 1_555
C43 C42 1_555 1_555
C44 C43 1_555 1_555
H35 C44 1_555 1_555
C45 N11 1_555 1_555
H36 C45 1_555 1_555
C48 C43 1_555 1_555
S1 Cu2 1_555 1_555
S2 Cu2 1_555 1_555
S2 Cu10 1_555 1_555
S3 Cu1 1_555 1_555
S3 Cu10 1_555 1_555
C4 C5 1_555 1_555
C7 C8 1_555 1_555
C9 C10 1_555 1_555
C14 C15 1_555 1_555
C19 C20 1_555 1_555
S4 Cu5 1_555 1_555
S5 Cu5 1_555 1_555
C37 C38 1_555 1_555
C39 C40 1_555 1_555
C44 C45 1_555 1_555
N12 C46 1_555 1_555
C46 H37 1_555 1_555
C47 C46 1_555 1_555
H38 C47 1_555 1_555
C50 N12 1_555 1_555
H40 C50 1_555 1_555
C49 C50 1_555 1_555
S2_2 Mo1_2 1_555 1_555
O1_2 Mo1_2 1_555 1_555
Cu2_2 Mo1_2 1_555 1_555
Cu3 Mo1_2 1_555 1_555
N3_2 Cu2_2 1_555 1_555
N4_2 Cu2_2 1_555 1_555
N5_2 C21_2 1_555 1_555
C11_2 N3_2 1_555 1_555
H9_2 C11_2 1_555 1_555
C12_2 C11_2 1_555 1_555
H10_2 C12_2 1_555 1_555
C13_2 C12_2 1_555 1_555
C14_2 C13_2 1_555 1_555
H11_2 C14_2 1_555 1_555
C15_2 N3_2 1_555 1_555
H12_2 C15_2 1_555 1_555
C16_2 N4_2 1_555 1_555
H13_2 C16_2 1_555 1_555
C17_2 C16_2 1_555 1_555
H14_2 C17_2 1_555 1_555
C18_2 C17_2 1_555 1_555
C19_2 C18_2 1_555 1_555
C20_2 N4_2 1_555 1_555
C22_2 C21_2 1_555 1_555
C23_2 C18_2 1_555 1_555
C24_2 C23_2 1_555 1_555
H19_2 C24_2 1_555 1_555
C25_2 N5_2 1_555 1_555
H20_2 C25_2 1_555 1_555
N7 Cu3 1_555 1_555
N12_2 Cu3 1_555 1_555
S2_2 Cu2_2 1_555 1_555
S2_2 Cu3 1_555 1_555
C14_2 C15_2 1_555 1_555
C19_2 C20_2 1_555 1_555
C22_2 C23_2 1_555 1_555
C24_2 C25_2 1_555 1_555
I1_2 Cu1_2 1_555 1_555
S1_2 Cu1_2 1_555 1_555
N1_2 Cu1_2 1_555 1_555
N2 C6_2 1_555 1_555
C1_2 N1_2 1_555 1_555
H1_2 C1_2 1_555 1_555
C2_2 C1_2 1_555 1_555
H2_2 C2_2 1_555 1_555
C3_2 C2_2 1_555 1_555
C4_2 C3_2 1_555 1_555
H3_2 C4_2 1_555 1_555
C5_2 N1_2 1_555 1_555
H4_2 C5_2 1_555 1_555
C6_2 H5_2 1_555 1_555
C7_2 C6_2 1_555 1_555
H6_2 C7_2 1_555 1_555
C8_2 C3_2 1_555 1_555
C9_2 C8_2 1_555 1_555
H7_2 C9_2 1_555 1_555
C10_2 N2 1_555 1_555
H8_2 C10_2 1_555 1_555
Cu6 N2 1_555 1_555
S3_2 Cu1_2 1_555 1_555
C4_2 C5_2 1_555 1_555
C7_2 C8_2 1_555 1_555
C9_2 C10_2 1_555 1_555
N10_2 Cu5_2 1_555 1_555
N11_2 Cu5_2 1_555 1_555
N12_2 C46_2 1_555 1_555
C36_2 N10_2 1_555 1_555
H29_2 C36_2 1_555 1_555
C37_2 C36_2 1_555 1_555
H30_2 C37_2 1_555 1_555
C39_2 C38_2 1_555 1_555
H31_2 C39_2 1_555 1_555
C40_2 N10_2 1_555 1_555
H32_2 C40_2 1_555 1_555
C41_2 N11_2 1_555 1_555
H33_2 C41_2 1_555 1_555
C42_2 C41_2 1_555 1_555
H34_2 C42_2 1_555 1_555
C43_2 C42_2 1_555 1_555
C44_2 C43_2 1_555 1_555
C45_2 N11_2 1_555 1_555
C47_2 C46_2 1_555 1_555
C48_2 C43_2 1_555 1_555
C49_2 C48_2 1_555 1_555
H39_2 C49_2 1_555 1_555
C50_2 N12_2 1_555 1_555
H40_2 C50_2 1_555 1_555
S5_2 Cu5_2 1_555 1_555
C37_2 C38_2 1_555 1_555
C39_2 C40_2 1_555 1_555
C44_2 C45_2 1_555 1_555
C47_2 C48_2 1_555 1_555
C49_2 C50_2 1_555 1_555
S6_2 Mo2_2 1_555 1_555
O2_2 Mo2_2 1_555 1_555
Cu6 Mo2_2 1_555 1_555
N7 C31_2 1_555 1_555
C26_2 N6_2 1_555 1_555
H21_2 C26_2 1_555 1_555
C27_2 C26_2 1_555 1_555
H22_2 C27_2 1_555 1_555
C28_2 C27_2 1_555 1_555
C29_2 C28_2 1_555 1_555
H23_2 C29_2 1_555 1_555
C30_2 N6_2 1_555 1_555
H24_2 C30_2 1_555 1_555
C31_2 H25_2 1_555 1_555
C32_2 C31_2 1_555 1_555
H26_2 C32_2 1_555 1_555
C33_2 C28_2 1_555 1_555
C34_2 C33_2 1_555 1_555
H27_2 C34_2 1_555 1_555
C35_2 N7 1_555 1_555
H28_2 C35_2 1_555 1_555
S6_2 Cu6 1_555 1_555
C29_2 C30_2 1_555 1_555
C32_2 C33_2 1_555 1_555
C34_2 C35_2 1_555 1_555
I2_2 Cu4_2 1_555 1_555
S4_2 Cu4_2 1_555 1_555
I2_3 Cu4_3 1_555 1_555
S4_3 Cu4_3 1_555 1_555
Cu10_2 N9_2 1_555 1_555
N9_2 C31_3 1_555 1_555
C26_3 N6_3 1_555 1_555
H21_3 C26_3 1_555 1_555
C27_3 C26_3 1_555 1_555
H22_3 C27_3 1_555 1_555
C28_3 C27_3 1_555 1_555
C29_3 C28_3 1_555 1_555
H23_3 C29_3 1_555 1_555
C30_3 N6_3 1_555 1_555
H24_3 C30_3 1_555 1_555
C31_3 H25_3 1_555 1_555
C32_3 C31_3 1_555 1_555
H26_3 C32_3 1_555 1_555
C33_3 C28_3 1_555 1_555
C34_3 C33_3 1_555 1_555
H27_3 C34_3 1_555 1_555
C35_3 N9_2 1_555 1_555
H28_3 C35_3 1_555 1_555
C29_3 C30_3 1_555 1_555
C32_3 C33_3 1_555 1_555
C34_3 C35_3 1_555 1_555
O2_3 Mo2_3 1_555 1_555
Cu8 Mo2_3 1_555 1_555
N8_2 Cu8 1_555 1_555
Cu10_2 N14 1_555 1_555
N14 C46_3 1_555 1_555
C46_3 H37_4 1_555 1_555
C47_3 C46_3 1_555 1_555
H38_4 C47_3 1_555 1_555
C50_3 N14 1_555 1_555
H40_3 C50_3 1_555 1_555
C49_3 C50_3 1_555 1_555
Mo1_3 S1_3 1_555 1_555
I1_3 Cu1_3 1_555 1_555
S1_3 Cu1_3 1_555 1_555
S2_3 Mo1_3 1_555 1_555
S3_3 Mo1_3 1_555 1_555
O1_3 Mo1_3 1_555 1_555
Cu1_3 Mo1_3 1_555 1_555
Cu2_3 Mo1_3 1_555 1_555
Cu10_2 Mo1_3 1_555 1_555
N1_3 Cu1_3 1_555 1_555
N8_2 C6_3 1_555 1_555
N3_3 Cu2_3 1_555 1_555
N4_3 Cu2_3 1_555 1_555
C1_3 N1_3 1_555 1_555
H1_3 C1_3 1_555 1_555
C2_3 C1_3 1_555 1_555
H2_3 C2_3 1_555 1_555
C3_3 C2_3 1_555 1_555
C4_3 C3_3 1_555 1_555
H3_3 C4_3 1_555 1_555
C5_3 N1_3 1_555 1_555
H4_3 C5_3 1_555 1_555
C6_3 H5_3 1_555 1_555
C7_3 C6_3 1_555 1_555
H6_3 C7_3 1_555 1_555
C8_3 C3_3 1_555 1_555
C9_3 C8_3 1_555 1_555
H7_3 C9_3 1_555 1_555
C10_3 N8_2 1_555 1_555
H8_3 C10_3 1_555 1_555
C11_3 N3_3 1_555 1_555
H9_3 C11_3 1_555 1_555
C12_3 C11_3 1_555 1_555
H10_3 C12_3 1_555 1_555
C13_3 C12_3 1_555 1_555
C14_3 C13_3 1_555 1_555
H11_3 C14_3 1_555 1_555
C15_3 N3_3 1_555 1_555
H12_3 C15_3 1_555 1_555
C16_3 N4_3 1_555 1_555
H13_3 C16_3 1_555 1_555
C17_3 C16_3 1_555 1_555
H14_3 C17_3 1_555 1_555
C18_3 C17_3 1_555 1_555
C19_3 C18_3 1_555 1_555
H15_3 C19_3 1_555 1_555
C20_3 N4_3 1_555 1_555
H16_3 C20_3 1_555 1_555
C23_3 C18_3 1_555 1_555
I2_4 Cu4_4 1_555 1_555
S4_4 Cu4_4 1_555 1_555
N10_3 Cu5_3 1_555 1_555
N11_3 Cu5_3 1_555 1_555
C36_3 N10_3 1_555 1_555
H29_3 C36_3 1_555 1_555
C37_3 C36_3 1_555 1_555
H30_3 C37_3 1_555 1_555
C38_3 C13_3 1_555 1_555
C39_3 C38_3 1_555 1_555
H31_3 C39_3 1_555 1_555
C40_3 N10_3 1_555 1_555
H32_3 C40_3 1_555 1_555
C41_3 N11_3 1_555 1_555
H33_3 C41_3 1_555 1_555
C42_3 C41_3 1_555 1_555
H34_3 C42_3 1_555 1_555
C43_3 C42_3 1_555 1_555
C44_3 C43_3 1_555 1_555
H35_4 C44_3 1_555 1_555
C45_3 N11_3 1_555 1_555
H36_4 C45_3 1_555 1_555
C48_3 C43_3 1_555 1_555
S1_3 Cu2_3 1_555 1_555
S2_3 Cu2_3 1_555 1_555
S2_3 Cu10_2 1_555 1_555
S3_3 Cu1_3 1_555 1_555
S3_3 Cu10_2 1_555 1_555
C4_3 C5_3 1_555 1_555
C7_3 C8_3 1_555 1_555
C9_3 C10_3 1_555 1_555
C14_3 C15_3 1_555 1_555
C19_3 C20_3 1_555 1_555
S4_4 Cu5_3 1_555 1_555
S5_3 Cu5_3 1_555 1_555
C37_3 C38_3 1_555 1_555
C39_3 C40_3 1_555 1_555
C44_3 C45_3 1_555 1_555
N13 C21_3 1_555 1_555
C21_3 H17_3 1_555 1_555
C22_3 C21_3 1_555 1_555
H18_3 C22_3 1_555 1_555
C25_3 N13 1_555 1_555
H20_3 C25_3 1_555 1_555
C24_3 C25_3 1_555 1_555
Cu9 N14_2 1_555 1_555
N10_4 Cu5_4 1_555 1_555
N11_4 Cu5_4 1_555 1_555
N14_2 C46_4 1_555 1_555
C36_4 N10_4 1_555 1_555
H29_4 C36_4 1_555 1_555
C37_4 C36_4 1_555 1_555
H30_4 C37_4 1_555 1_555
C39_4 C38_4 1_555 1_555
H31_4 C39_4 1_555 1_555
C40_4 N10_4 1_555 1_555
H32_4 C40_4 1_555 1_555
C41_4 N11_4 1_555 1_555
H33_4 C41_4 1_555 1_555
C42_4 C41_4 1_555 1_555
H34_4 C42_4 1_555 1_555
C43_4 C42_4 1_555 1_555
C44_4 C43_4 1_555 1_555
C45_4 N11_4 1_555 1_555
C47_4 C46_4 1_555 1_555
C48_4 C43_4 1_555 1_555
C49_4 C48_4 1_555 1_555
H39_4 C49_4 1_555 1_555
C50_4 N14_2 1_555 1_555
H40_4 C50_4 1_555 1_555
S5_4 Cu5_4 1_555 1_555
C37_4 C38_4 1_555 1_555
C39_4 C40_4 1_555 1_555
C44_4 C45_4 1_555 1_555
C47_4 C48_4 1_555 1_555
C49_4 C50_4 1_555 1_555
I1_4 Cu1_4 1_555 1_555
S1_4 Cu1_4 1_555 1_555
N1_4 Cu1_4 1_555 1_555
N2_2 C6_4 1_555 1_555
C1_4 N1_4 1_555 1_555
H1_4 C1_4 1_555 1_555
C2_4 C1_4 1_555 1_555
H2_4 C2_4 1_555 1_555
C3_4 C2_4 1_555 1_555
C4_4 C3_4 1_555 1_555
H3_4 C4_4 1_555 1_555
C5_4 N1_4 1_555 1_555
H4_4 C5_4 1_555 1_555
C6_4 H5_4 1_555 1_555
C7_4 C6_4 1_555 1_555
H6_4 C7_4 1_555 1_555
C8_4 C3_4 1_555 1_555
C9_4 C8_4 1_555 1_555
H7_4 C9_4 1_555 1_555
C10_4 N2_2 1_555 1_555
H8_4 C10_4 1_555 1_555
Cu6_2 N2_2 1_555 1_555
S3_4 Cu1_4 1_555 1_555
C4_4 C5_4 1_555 1_555
C7_4 C8_4 1_555 1_555
C9_4 C10_4 1_555 1_555
S2_4 Mo1_4 1_555 1_555
O1_4 Mo1_4 1_555 1_555
Cu2_4 Mo1_4 1_555 1_555
Cu9 Mo1_4 1_555 1_555
N3_4 Cu2_4 1_555 1_555
N4_4 Cu2_4 1_555 1_555
N13_2 C21_4 1_555 1_555
C11_4 N3_4 1_555 1_555
H9_4 C11_4 1_555 1_555
C12_4 C11_4 1_555 1_555
H10_4 C12_4 1_555 1_555
C13_4 C12_4 1_555 1_555
C14_4 C13_4 1_555 1_555
H11_4 C14_4 1_555 1_555
C15_4 N3_4 1_555 1_555
H12_4 C15_4 1_555 1_555
C16_4 N4_4 1_555 1_555
H13_4 C16_4 1_555 1_555
C17_4 C16_4 1_555 1_555
H14_4 C17_4 1_555 1_555
C18_4 C17_4 1_555 1_555
C19_4 C18_4 1_555 1_555
C20_4 N4_4 1_555 1_555
C22_4 C21_4 1_555 1_555
C23_4 C18_4 1_555 1_555
C24_4 C23_4 1_555 1_555
H19_4 C24_4 1_555 1_555
C25_4 N13_2 1_555 1_555
H20_4 C25_4 1_555 1_555
N7_2 Cu9 1_555 1_555
S2_4 Cu2_4 1_555 1_555
S2_4 Cu9 1_555 1_555
C14_4 C15_4 1_555 1_555
C19_4 C20_4 1_555 1_555
C22_4 C23_4 1_555 1_555
C24_4 C25_4 1_555 1_555
S6_4 Mo2_4 1_555 1_555
O2_4 Mo2_4 1_555 1_555
Cu6_2 Mo2_4 1_555 1_555
N7_2 C31_4 1_555 1_555
C26_4 N6_4 1_555 1_555
H21_4 C26_4 1_555 1_555
C27_4 C26_4 1_555 1_555
H22_4 C27_4 1_555 1_555
C28_4 C27_4 1_555 1_555
C29_4 C28_4 1_555 1_555
H23_4 C29_4 1_555 1_555
C30_4 N6_4 1_555 1_555
H24_4 C30_4 1_555 1_555
C31_4 H25_4 1_555 1_555
C32_4 C31_4 1_555 1_555
H26_4 C32_4 1_555 1_555
C33_4 C28_4 1_555 1_555
C34_4 C33_4 1_555 1_555
H27_4 C34_4 1_555 1_555
C35_4 N7_2 1_555 1_555
H28_4 C35_4 1_555 1_555
S6_4 Cu6_2 1_555 1_555
C29_4 C30_4 1_555 1_555
C32_4 C33_4 1_555 1_555
C34_4 C35_4 1_555 1_555

#END
