
###############################################################################
#
# This file contains modified crystal structure data generated from the
# MOF subset of the Cambridge Structural Database (CSD) v543 
# hosted by the Cambridge Crystallographic Data Centre (CCDC).
#
# This work is licensed under the Creative Commons
# Attribution-NonCommercial-ShareAlike 4.0 International License.
# To view a copy of this license, visit
# http://creativecommons.org/licenses/by-nc-sa/4.0/
# or send a letter to
# Creative Commons, PO Box 1866, Mountain View, CA 94042, USA.
#
# CIF created using the CSD Python API on 29 September 2022
# The structure has been converted into the P1 space group
# The structure has a 3D framework
# The original CSD entry MATBAM is in the monoclinic crystal system
# The framework has been calculated to contain at least 10.0% void space
# The void calculation uses a probe of radius 1.32A, grid spacing 0.4
#
###############################################################################

data_MATBAM
_chemical_formula_moiety         '(C208 H160 Cu24 Mo8 N48 O8 S32)n'
_symmetry_cell_setting           triclinic
_symmetry_space_group_name_H-M   'P 1'
_symmetry_Int_Tables_number      1
_space_group_name_Hall           'P 1'
loop_
_symmetry_equiv_pos_site_id
_symmetry_equiv_pos_as_xyz
1 x,y,z
_cell_length_a                   40.592(8)
_cell_length_b                   9.7008(19)
_cell_length_c                   24.750(5)
_cell_angle_alpha                90
_cell_angle_beta                 104.95(3)
_cell_angle_gamma                90
_cell_volume                     9416.04
loop_
_atom_site_label
_atom_site_type_symbol
_atom_site_fract_x
_atom_site_fract_y
_atom_site_fract_z
N5 N 0.13125(14) 0.3185(5) 0.3150(2)
H14 H 0.0845 0.0115 0.1501
C18 C 0.13428(18) 0.0678(6) 0.1731(3)
C19 C 0.1643(2) 0.0420(8) 0.1598(3)
H15 H 0.1840 0.0899 0.1776
C21 C 0.1046(2) 0.3046(8) 0.2719(3)
H17 H 0.0846 0.3484 0.2738
C22 C 0.10397(19) 0.2311(8) 0.2247(3)
H18 H 0.0842 0.2288 0.1956
C23 C 0.13302(18) 0.1589(7) 0.2197(3)
C24 C 0.1609(2) 0.1751(11) 0.2636(4)
H19 H 0.1811 0.1298 0.2633
C25 C 0.1597(2) 0.2599(10) 0.3098(4)
H20 H 0.1798 0.2749 0.3375
Cu9 Cu 0.130736(19) 0.39499(7) 0.39172(3)
Cu5 Cu 0.107264(18) 0.64069(7) 0.48951(3)
N9 N 0.07020(12) 0.7813(5) 0.4985(2)
C27 C 0.06498(19) 0.9038(8) 0.4745(4)
H21 H 0.0811 0.9338 0.4563
C28 C 0.03878(17) 0.9897(6) 0.4735(4)
C29 C 0.01564(16) 0.9548(6) 0.5006(3)
C30 C 0.0210(2) 0.8371(9) 0.5305(5)
H23 H 0.0068 0.8137 0.5531
C31 C 0.0479(2) 0.7506(9) 0.5277(4)
H24 H 0.0504 0.6676 0.5471
Mo1 Mo 0.910547(13) 0.62042(5) 0.54004(2)
Cu1 Cu 0.892736(18) 0.35931(7) 0.51049(3)
Cu2 Cu 0.85517(2) 0.70933(8) 0.46181(3)
Cu3 Cu 0.869264(19) 0.60501(7) 0.60828(3)
S1 S 0.89267(4) 0.54037(16) 0.45146(7)
S2 S 0.87370(4) 0.78624(14) 0.55145(7)
S3 S 0.90786(4) 0.44444(15) 0.59939(7)
S4 S 0.73909(6) 0.5800(2) 0.38875(11)
O1 O 0.95115(11) 0.6835(5) 0.5526(2)
N1 N 0.84727(12) 0.2559(5) 0.4879(2)
N3 N 0.92980(12) 0.2187(5) 0.5015(2)
N4 N 0.86181(15) 0.8749(5) 0.4088(2)
N6 N 0.80511(14) 0.6738(6) 0.4305(2)
C1 C 0.83986(16) 0.1430(6) 0.5120(3)
H1 H 0.8573 0.1020 0.5391
C2 C 0.80824(15) 0.0813(7) 0.4999(3)
H2 H 0.8048 0.0017 0.5187
C3 C 0.78170(15) 0.1387(6) 0.4596(2)
C4 C 0.79022(17) 0.2524(7) 0.4315(3)
H3 H 0.7739 0.2907 0.4018
C5 C 0.82193(18) 0.3080(7) 0.4469(3)
H4 H 0.8264 0.3861 0.4282
C8 C 0.74706(15) 0.0805(6) 0.4440(2)
C9 C 0.71864(16) 0.1636(6) 0.4189(3)
H7 H 0.7215 0.2557 0.4105
C10 C 0.68666(16) 0.1050(6) 0.4070(3)
H8 H 0.6681 0.1608 0.3907
C11 C 0.93502(19) 0.0962(8) 0.5255(4)
H9 H 0.9189 0.0662 0.5437
C12 C 0.96122(17) 0.0103(6) 0.5265(4)
C13 C 0.98436(16) 0.0452(6) 0.4994(3)
C14 C 0.9790(2) 0.1629(9) 0.4695(5)
H11 H 0.9932 0.1863 0.4469
C15 C 0.9521(2) 0.2494(9) 0.4723(4)
H12 H 0.9496 0.3324 0.4529
C16 C 0.8907(2) 0.9020(8) 0.3965(3)
H13 H 0.9100 0.8546 0.4160
C17 C 0.89435(18) 0.9962(7) 0.3567(3)
C20 C 0.8348(2) 0.9442(8) 0.3802(3)
H16 H 0.8139 0.9258 0.3877
C26 C 0.7781(2) 0.6333(7) 0.4134(3)
Cu4 Cu 0.607264(18) 0.14069(7) 0.48951(3)
S7 S 0.59214(4) 0.05556(15) 0.40061(7)
N7 N 0.65273(12) 0.2441(5) 0.5121(2)
N8 N 0.81942(12) 0.5245(5) 0.5830(2)
N10 N 0.57020(12) 0.2813(5) 0.4985(2)
N13 N 0.86875(14) 0.6815(5) 0.6850(2)
H27 H 0.9155 0.9885 0.8499
C37 C 0.86572(18) 0.9322(6) 0.8269(3)
C38 C 0.8357(2) 0.9580(8) 0.8402(3)
H29 H 0.8160 0.9101 0.8224
C43 C 0.8954(2) 0.6954(8) 0.7281(3)
H34 H 0.9154 0.6516 0.7262
C45 C 0.89603(19) 0.7689(8) 0.7753(3)
H36 H 0.9158 0.7712 0.8044
C47 C 0.86698(18) 0.8411(7) 0.7803(3)
C49 C 0.8391(2) 0.8249(11) 0.7364(4)
H38 H 0.8189 0.8702 0.7367
C51 C 0.8403(2) 0.7401(10) 0.6902(4)
H40 H 0.8202 0.7251 0.6625
Cu1_2 Cu 0.392736(18) 0.85931(7) 0.51049(3)
S3_2 S 0.40786(4) 0.94444(15) 0.59939(7)
N1_2 N 0.34727(12) 0.7559(5) 0.4879(2)
N2 N 0.18058(12) 0.4755(5) 0.4170(2)
N3_2 N 0.42980(12) 0.7187(5) 0.5015(2)
C1_2 C 0.33986(16) 0.6430(6) 0.5120(3)
H1_2 H 0.3573 0.6020 0.5391
C2_2 C 0.30824(15) 0.5813(7) 0.4999(3)
H2_2 H 0.3048 0.5017 0.5187
C3_2 C 0.28170(15) 0.6387(6) 0.4596(2)
C4_2 C 0.29022(17) 0.7524(7) 0.4315(3)
H3_2 H 0.2739 0.7907 0.4018
C5_2 C 0.32193(18) 0.8080(7) 0.4469(3)
H4_2 H 0.3264 0.8861 0.4282
C6 C 0.20730(17) 0.3998(6) 0.4420(3)
H5 H 0.2033 0.3092 0.4509
C7 C 0.24017(15) 0.4448(7) 0.4555(3)
H6 H 0.2578 0.3854 0.4723
C8_2 C 0.24706(15) 0.5805(6) 0.4440(2)
C9_2 C 0.21864(16) 0.6636(6) 0.4189(3)
H7_2 H 0.2215 0.7557 0.4105
C10_2 C 0.18666(16) 0.6050(6) 0.4070(3)
H8_2 H 0.1681 0.6608 0.3907
C11_2 C 0.43502(19) 0.5962(8) 0.5255(4)
H9_2 H 0.4189 0.5662 0.5437
C12_2 C 0.46122(17) 0.5103(6) 0.5265(4)
H10 H 0.4631 0.4274 0.5459
C13_2 C 0.48436(16) 0.5452(6) 0.4994(3)
C14_2 C 0.4790(2) 0.6629(9) 0.4695(5)
H11_2 H 0.4932 0.6863 0.4469
C15_2 C 0.4521(2) 0.7494(9) 0.4723(4)
H12_2 H 0.4496 0.8324 0.4529
Mo2 Mo 0.089453(13) 0.37958(5) 0.45996(2)
Cu6 Cu 0.14483(2) 0.29067(8) 0.53819(3)
S5 S 0.10733(4) 0.45963(16) 0.54854(7)
S6 S 0.12630(4) 0.21376(14) 0.44855(7)
S7_2 S 0.09214(4) 0.55556(15) 0.40061(7)
S8 S 0.26091(6) 0.4200(2) 0.61125(11)
O2 O 0.04885(11) 0.3165(5) 0.4474(2)
N7_2 N 0.15273(12) 0.7441(5) 0.5121(2)
N11 N 0.13819(15) 0.1251(5) 0.5912(2)
N16 N 0.19489(14) 0.3262(6) 0.5695(2)
C27_2 C 0.56498(19) 0.4038(8) 0.4745(4)
H21_2 H 0.5811 0.4338 0.4563
C28_2 C 0.53878(17) 0.4897(6) 0.4735(4)
H22 H 0.5369 0.5726 0.4541
C29_2 C 0.51564(16) 0.4548(6) 0.5006(3)
C30_2 C 0.5210(2) 0.3371(9) 0.5305(5)
H23_2 H 0.5068 0.3137 0.5531
C31_2 C 0.5479(2) 0.2506(9) 0.5277(4)
H24_2 H 0.5504 0.1676 0.5471
C32 C 0.1093(2) 0.0980(8) 0.6035(3)
H25 H 0.0900 0.1454 0.5840
C34 C 0.10565(18) 0.0038(7) 0.6433(3)
C40 C 0.1652(2) 0.0558(8) 0.6198(3)
H31 H 0.1861 0.0742 0.6123
C52 C 0.2219(2) 0.3667(7) 0.5866(3)
C1_3 C 0.16014(16) 0.8570(6) 0.4880(3)
H1_3 H 0.1427 0.8980 0.4609
C2_3 C 0.19176(15) 0.9187(7) 0.5001(3)
H2_3 H 0.1952 0.9983 0.4813
C3_3 C 0.21830(15) 0.8613(6) 0.5404(2)
C4_3 C 0.20978(17) 0.7476(7) 0.5685(3)
H3_3 H 0.2261 0.7093 0.5982
C5_3 C 0.17807(18) 0.6920(7) 0.5531(3)
H4_3 H 0.1736 0.6139 0.5718
C8_3 C 0.25294(15) 0.9195(6) 0.5560(2)
C9_3 C 0.28136(16) 0.8364(6) 0.5811(3)
H7_3 H 0.2785 0.7443 0.5895
C10_3 C 0.31334(16) 0.8950(6) 0.5930(3)
H8_3 H 0.3319 0.8392 0.6093
C1_4 C 0.66014(16) 0.3570(6) 0.4880(3)
H1_4 H 0.6427 0.3980 0.4609
C2_4 C 0.69176(15) 0.4187(7) 0.5001(3)
H2_4 H 0.6952 0.4983 0.4813
C3_4 C 0.71830(15) 0.3613(6) 0.5404(2)
C4_4 C 0.70978(17) 0.2476(7) 0.5685(3)
H3_4 H 0.7261 0.2093 0.5982
C5_4 C 0.67807(18) 0.1920(7) 0.5531(3)
H4_4 H 0.6736 0.1139 0.5718
C6_2 C 0.79270(17) 0.6002(6) 0.5580(3)
H5_2 H 0.7967 0.6908 0.5491
C7_2 C 0.75983(15) 0.5552(7) 0.5445(3)
H6_2 H 0.7422 0.6146 0.5277
C8_4 C 0.75294(15) 0.4195(6) 0.5560(2)
C9_4 C 0.78136(16) 0.3364(6) 0.5811(3)
H7_4 H 0.7785 0.2443 0.5895
C10_4 C 0.81334(16) 0.3950(6) 0.5930(3)
H8_4 H 0.8319 0.3392 0.6093
Cu2_2 Cu 0.14483(2) 0.70933(8) 0.03819(3)
S1_2 S 0.10733(4) 0.54037(16) 0.04854(7)
S4_2 S 0.26091(6) 0.5800(2) 0.11125(11)
N1_3 N 0.15273(12) 0.2559(5) 0.0121(2)
N4_2 N 0.13819(15) 0.8749(5) 0.0912(2)
N6_2 N 0.19489(14) 0.6738(6) 0.0695(2)
C2_5 C 0.19176(15) 0.0813(7) 0.0001(3)
C3_5 C 0.21830(15) 0.1387(6) 0.0404(2)
C4_5 C 0.20978(17) 0.2524(7) 0.0685(3)
H3_5 H 0.2261 0.2907 0.0982
C5_5 C 0.17807(18) 0.3080(7) 0.0531(3)
H4_5 H 0.1736 0.3861 0.0718
C8_5 C 0.25294(15) 0.0805(6) 0.0560(2)
C9_5 C 0.28136(16) 0.1636(6) 0.0811(3)
H7_5 H 0.2785 0.2557 0.0895
C10_5 C 0.31334(16) 0.1050(6) 0.0930(3)
H8_5 H 0.3319 0.1608 0.1093
C13_3 C 0.01564(16) 0.0452(6) 0.0006(3)
C14_3 C 0.0210(2) 0.1629(9) 0.0305(5)
H11_3 H 0.0068 0.1863 0.0531
C15_3 C 0.0479(2) 0.2494(9) 0.0277(4)
H12_3 H 0.0504 0.3324 0.0471
C16_2 C 0.1093(2) 0.9020(8) 0.1035(3)
H13_2 H 0.0900 0.8546 0.0840
C17_2 C 0.10565(18) 0.9962(7) 0.1433(3)
C20_2 C 0.1652(2) 0.9442(8) 0.1198(3)
H16_2 H 0.1861 0.9258 0.1123
C26_2 C 0.2219(2) 0.6333(7) 0.0866(3)
Cu4_2 Cu 0.392736(18) 0.14069(7) 0.01049(3)
S7_3 S 0.40786(4) 0.05556(15) 0.09939(7)
N10_2 N 0.42980(12) 0.2813(5) 0.0015(2)
Mo1_2 Mo 0.089453(13) 0.62042(5) 0.95996(2)
Cu1_3 Cu 0.107264(18) 0.35931(7) 0.98951(3)
Cu3_2 Cu 0.130736(19) 0.60501(7) 0.89172(3)
S2_2 S 0.12630(4) 0.78624(14) 0.94855(7)
S3_3 S 0.09214(4) 0.44444(15) 0.90061(7)
O1_2 O 0.04885(11) 0.6835(5) 0.9474(2)
N3_3 N 0.07020(12) 0.2187(5) 0.9985(2)
C1_5 C 0.16014(16) 0.1430(6) 0.9880(3)
H1_5 H 0.1427 0.1020 0.9609
H2_5 H 0.1952 0.0017 0.9813
C11_3 C 0.06498(19) 0.0962(8) 0.9745(4)
H9_3 H 0.0811 0.0662 0.9563
C12_3 C 0.03878(17) 0.0103(6) 0.9735(4)
N7_3 N 0.34727(12) 0.2441(5) 0.9879(2)
N8_2 N 0.18058(12) 0.5245(5) 0.9170(2)
N13_2 N 0.13125(14) 0.6815(5) 0.8150(2)
Cu5_2 Cu 0.892736(18) 0.64069(7) 0.01049(3)
N9_2 N 0.92980(12) 0.7813(5) 0.0015(2)
C27_3 C 0.93502(19) 0.9038(8) 0.0255(4)
H21_3 H 0.9189 0.9338 0.0437
C28_3 C 0.96122(17) 0.9897(6) 0.0265(4)
C29_3 C 0.98436(16) 0.9548(6) 0.9994(3)
C30_3 C 0.9790(2) 0.8371(9) 0.9695(5)
H23_3 H 0.9932 0.8137 0.9469
C31_3 C 0.9521(2) 0.7506(9) 0.9723(4)
H24_3 H 0.9496 0.6676 0.9529
N5_2 N 0.86875(14) 0.3185(5) 0.1850(2)
H14_2 H 0.9155 0.0115 0.3499
C18_2 C 0.86572(18) 0.0678(6) 0.3269(3)
C19_2 C 0.8357(2) 0.0420(8) 0.3402(3)
H15_2 H 0.8160 0.0899 0.3224
C21_2 C 0.8954(2) 0.3046(8) 0.2281(3)
H17_2 H 0.9154 0.3484 0.2262
C22_2 C 0.89603(19) 0.2311(8) 0.2753(3)
H18_2 H 0.9158 0.2288 0.3044
C23_2 C 0.86698(18) 0.1589(7) 0.2803(3)
C24_2 C 0.8391(2) 0.1751(11) 0.2364(4)
H19_2 H 0.8189 0.1298 0.2367
C25_2 C 0.8403(2) 0.2599(10) 0.1902(4)
H20_2 H 0.8202 0.2749 0.1625
Cu9_2 Cu 0.869264(19) 0.39499(7) 0.10828(3)
N1_4 N 0.65273(12) 0.7559(5) 0.0121(2)
N2_2 N 0.81942(12) 0.4755(5) 0.0830(2)
C2_6 C 0.69176(15) 0.5813(7) 0.0001(3)
C3_6 C 0.71830(15) 0.6387(6) 0.0404(2)
C4_6 C 0.70978(17) 0.7524(7) 0.0685(3)
H3_6 H 0.7261 0.7907 0.0982
C5_6 C 0.67807(18) 0.8080(7) 0.0531(3)
H4_6 H 0.6736 0.8861 0.0718
C6_3 C 0.79270(17) 0.3998(6) 0.0580(3)
H5_3 H 0.7967 0.3092 0.0491
C7_3 C 0.75983(15) 0.4448(7) 0.0445(3)
H6_3 H 0.7422 0.3854 0.0277
C8_6 C 0.75294(15) 0.5805(6) 0.0560(2)
C9_6 C 0.78136(16) 0.6636(6) 0.0811(3)
H7_6 H 0.7785 0.7557 0.0895
C10_6 C 0.81334(16) 0.6050(6) 0.0930(3)
H8_6 H 0.8319 0.6608 0.1093
C13_4 C 0.51564(16) 0.5452(6) 0.0006(3)
C14_4 C 0.5210(2) 0.6629(9) 0.0305(5)
H11_4 H 0.5068 0.6863 0.0531
C15_4 C 0.5479(2) 0.7494(9) 0.0277(4)
H12_4 H 0.5504 0.8324 0.0471
Mo2_2 Mo 0.910547(13) 0.37958(5) 0.04004(2)
S6_2 S 0.87370(4) 0.21376(14) 0.05145(7)
S7_4 S 0.90786(4) 0.55556(15) 0.09939(7)
O2_2 O 0.95115(11) 0.3165(5) 0.0526(2)
C27_4 C 0.43502(19) 0.4038(8) 0.0255(4)
H21_4 H 0.4189 0.4338 0.0437
C28_4 C 0.46122(17) 0.4897(6) 0.0265(4)
H22_2 H 0.4631 0.5726 0.0459
Cu1_4 Cu 0.607264(18) 0.85931(7) 0.98951(3)
S3_4 S 0.59214(4) 0.94444(15) 0.90061(7)
N3_4 N 0.57020(12) 0.7187(5) 0.9985(2)
C1_6 C 0.66014(16) 0.6430(6) 0.9880(3)
H1_6 H 0.6427 0.6020 0.9609
H2_6 H 0.6952 0.5017 0.9813
C11_4 C 0.56498(19) 0.5962(8) 0.9745(4)
H9_4 H 0.5811 0.5662 0.9563
C12_4 C 0.53878(17) 0.5103(6) 0.9735(4)
H10_2 H 0.5369 0.4274 0.9541
Cu6_2 Cu 0.85517(2) 0.29067(8) 0.96181(3)
S5_2 S 0.89267(4) 0.45963(16) 0.95146(7)
S8_2 S 0.73909(6) 0.4200(2) 0.88875(11)
N7_4 N 0.84727(12) 0.7441(5) 0.9879(2)
N11_2 N 0.86181(15) 0.1251(5) 0.9088(2)
N16_2 N 0.80511(14) 0.3262(6) 0.9305(2)
C29_4 C 0.48436(16) 0.4548(6) 0.9994(3)
C30_4 C 0.4790(2) 0.3371(9) 0.9695(5)
H23_4 H 0.4932 0.3137 0.9469
C31_4 C 0.4521(2) 0.2506(9) 0.9723(4)
H24_4 H 0.4496 0.1676 0.9529
C32_2 C 0.8907(2) 0.0980(8) 0.8965(3)
H25_2 H 0.9100 0.1454 0.9160
C34_2 C 0.89435(18) 0.0038(7) 0.8567(3)
C40_2 C 0.8348(2) 0.0558(8) 0.8802(3)
H31_2 H 0.8139 0.0742 0.8877
C52_2 C 0.7781(2) 0.3667(7) 0.9134(3)
H27_2 H 0.0845 0.9885 0.6501
C37_2 C 0.13428(18) 0.9322(6) 0.6731(3)
C38_2 C 0.1643(2) 0.9580(8) 0.6598(3)
H29_2 H 0.1840 0.9101 0.6776
C43_2 C 0.1046(2) 0.6954(8) 0.7719(3)
H34_2 H 0.0846 0.6516 0.7738
C45_2 C 0.10397(19) 0.7689(8) 0.7247(3)
H36_2 H 0.0842 0.7712 0.6956
C47_2 C 0.13302(18) 0.8411(7) 0.7197(3)
C49_2 C 0.1609(2) 0.8249(11) 0.7636(4)
H38_2 H 0.1811 0.8702 0.7633
C51_2 C 0.1597(2) 0.7401(10) 0.8098(4)
H40_2 H 0.1798 0.7251 0.8375
C1_7 C 0.83986(16) 0.8570(6) 0.0120(3)
H1_7 H 0.8573 0.8980 0.0391
H2_7 H 0.8048 0.9983 0.0187
C2_7 C 0.80824(15) 0.9187(7) 0.9999(3)
C3_7 C 0.78170(15) 0.8613(6) 0.9596(2)
C4_7 C 0.79022(17) 0.7476(7) 0.9315(3)
H3_7 H 0.7739 0.7093 0.9018
C5_7 C 0.82193(18) 0.6920(7) 0.9469(3)
H4_7 H 0.8264 0.6139 0.9282
C8_7 C 0.74706(15) 0.9195(6) 0.9440(2)
C9_7 C 0.71864(16) 0.8364(6) 0.9189(3)
H7_7 H 0.7215 0.7443 0.9105
C10_7 C 0.68666(16) 0.8950(6) 0.9070(3)
H8_7 H 0.6681 0.8392 0.8907
C1_8 C 0.33986(16) 0.3570(6) 0.0120(3)
H1_8 H 0.3573 0.3980 0.0391
H2_8 H 0.3048 0.4983 0.0187
C2_8 C 0.30824(15) 0.4187(7) 0.9999(3)
C3_8 C 0.28170(15) 0.3613(6) 0.9596(2)
C4_8 C 0.29022(17) 0.2476(7) 0.9315(3)
H3_8 H 0.2739 0.2093 0.9018
C5_8 C 0.32193(18) 0.1920(7) 0.9469(3)
H4_8 H 0.3264 0.1139 0.9282
C6_4 C 0.20730(17) 0.6002(6) 0.9420(3)
H5_4 H 0.2033 0.6908 0.9509
C7_4 C 0.24017(15) 0.5552(7) 0.9555(3)
H6_4 H 0.2578 0.6146 0.9723
C8_8 C 0.24706(15) 0.4195(6) 0.9440(2)
C9_8 C 0.21864(16) 0.3364(6) 0.9189(3)
H7_8 H 0.2215 0.2443 0.9105
C10_8 C 0.18666(16) 0.3950(6) 0.9070(3)
H8_8 H 0.1681 0.3392 0.8907
N2_3 N 0.31942(12) 0.9755(5) 0.0830(2)
C6_5 C 0.29270(17) 0.8998(6) 0.0580(3)
H5_5 H 0.2967 0.8092 0.0491
C7_5 C 0.25983(15) 0.9448(7) 0.0445(3)
H6_5 H 0.2422 0.8854 0.0277
Mo2_3 Mo 0.410547(13) 0.87958(5) 0.04004(2)
Cu7 Cu 0.35517(2) 0.20933(8) 0.46181(3)
Cu8 Cu 0.369264(19) 0.89499(7) 0.10828(3)
S6_3 S 0.37370(4) 0.71376(14) 0.05145(7)
O2_3 O 0.45115(11) 0.8165(5) 0.0526(2)
N12 N 0.36181(15) 0.3749(5) 0.4088(2)
N14 N 0.36875(14) 0.8185(5) 0.1850(2)
C33 C 0.3907(2) 0.4020(8) 0.3965(3)
H26 H 0.4100 0.3546 0.4160
C35 C 0.39435(18) 0.4962(7) 0.3567(3)
H28 H 0.4155 0.5115 0.3499
C36 C 0.36572(18) 0.5678(6) 0.3269(3)
C39 C 0.3357(2) 0.5420(8) 0.3402(3)
H30 H 0.3160 0.5899 0.3224
C41 C 0.3348(2) 0.4442(8) 0.3802(3)
H32 H 0.3139 0.4258 0.3877
C42 C 0.3954(2) 0.8046(8) 0.2281(3)
H33 H 0.4154 0.8484 0.2262
C44 C 0.39603(19) 0.7311(8) 0.2753(3)
H35 H 0.4158 0.7288 0.3044
C46 C 0.36698(18) 0.6589(7) 0.2803(3)
C48 C 0.3391(2) 0.6751(11) 0.2364(4)
H37 H 0.3189 0.6298 0.2367
C50 C 0.3403(2) 0.7599(10) 0.1902(4)
H39 H 0.3202 0.7749 0.1625
H10_3 H 0.0369 0.9274 0.9541
Cu6_3 Cu 0.35517(2) 0.79067(8) 0.96181(3)
Cu10 Cu 0.369264(19) 0.10501(7) 0.60828(3)
S5_3 S 0.39267(4) 0.95963(16) 0.95146(7)
S8_3 S 0.23909(6) 0.9200(2) 0.88875(11)
N11_3 N 0.36181(15) 0.6251(5) 0.9088(2)
N15 N 0.36875(14) 0.1815(5) 0.6850(2)
N16_3 N 0.30511(14) 0.8262(6) 0.9305(2)
C32_3 C 0.3907(2) 0.5980(8) 0.8965(3)
H25_3 H 0.4100 0.6454 0.9160
C34_3 C 0.39435(18) 0.5038(7) 0.8567(3)
H27_3 H 0.4155 0.4885 0.8499
C37_3 C 0.36572(18) 0.4322(6) 0.8269(3)
C38_3 C 0.3357(2) 0.4580(8) 0.8402(3)
H29_3 H 0.3160 0.4101 0.8224
C40_3 C 0.3348(2) 0.5558(8) 0.8802(3)
H31_3 H 0.3139 0.5742 0.8877
C43_3 C 0.3954(2) 0.1954(8) 0.7281(3)
H34_3 H 0.4154 0.1516 0.7262
C45_3 C 0.39603(19) 0.2689(8) 0.7753(3)
H36_3 H 0.4158 0.2712 0.8044
C47_3 C 0.36698(18) 0.3411(7) 0.7803(3)
C49_3 C 0.3391(2) 0.3249(11) 0.7364(4)
H38_3 H 0.3189 0.3702 0.7367
C51_3 C 0.3403(2) 0.2401(10) 0.6902(4)
H40_3 H 0.3202 0.2251 0.6625
C52_3 C 0.2781(2) 0.8667(7) 0.9134(3)
H22_3 H 0.0369 0.0726 0.4541
Mo1_3 Mo 0.410547(13) 0.12042(5) 0.54004(2)
S1_3 S 0.39267(4) 0.04037(16) 0.45146(7)
S2_3 S 0.37370(4) 0.28624(14) 0.55145(7)
S4_3 S 0.23909(6) 0.0800(2) 0.38875(11)
O1_3 O 0.45115(11) 0.1835(5) 0.5526(2)
N6_3 N 0.30511(14) 0.1738(6) 0.4305(2)
C26_3 C 0.2781(2) 0.1333(7) 0.4134(3)
N8_3 N 0.31942(12) 0.0245(5) 0.5830(2)
C6_6 C 0.29270(17) 0.1002(6) 0.5580(3)
H5_6 H 0.2967 0.1908 0.5491
C7_6 C 0.25983(15) 0.0552(7) 0.5445(3)
H6_6 H 0.2422 0.1146 0.5277
H22_4 H 0.9631 0.0726 0.0459
N2_4 N 0.68058(12) 0.9755(5) 0.4170(2)
C6_7 C 0.70730(17) 0.8998(6) 0.4420(3)
H5_7 H 0.7033 0.8092 0.4509
C7_7 C 0.74017(15) 0.9448(7) 0.4555(3)
H6_7 H 0.7578 0.8854 0.4723
H10_4 H 0.9631 0.9274 0.5459
Mo2_4 Mo 0.589453(13) 0.87958(5) 0.45996(2)
Cu6_4 Cu 0.64483(2) 0.79067(8) 0.53819(3)
Cu7_2 Cu 0.64483(2) 0.20933(8) 0.03819(3)
Cu8_2 Cu 0.630736(19) 0.89499(7) 0.39172(3)
Cu10_2 Cu 0.630736(19) 0.10501(7) 0.89172(3)
S5_4 S 0.60733(4) 0.95963(16) 0.54854(7)
S6_4 S 0.62630(4) 0.71376(14) 0.44855(7)
S8_4 S 0.76091(6) 0.9200(2) 0.61125(11)
O2_4 O 0.54885(11) 0.8165(5) 0.4474(2)
N11_4 N 0.63819(15) 0.6251(5) 0.5912(2)
N12_2 N 0.63819(15) 0.3749(5) 0.0912(2)
N14_2 N 0.63125(14) 0.8185(5) 0.3150(2)
N15_2 N 0.63125(14) 0.1815(5) 0.8150(2)
N16_4 N 0.69489(14) 0.8262(6) 0.5695(2)
C32_4 C 0.6093(2) 0.5980(8) 0.6035(3)
C33_2 C 0.6093(2) 0.4020(8) 0.1035(3)
H25_4 H 0.5900 0.6454 0.5840
H26_2 H 0.5900 0.3546 0.0840
C34_4 C 0.60565(18) 0.5038(7) 0.6433(3)
C35_2 C 0.60565(18) 0.4962(7) 0.1433(3)
H27_4 H 0.5845 0.4885 0.6501
H28_2 H 0.5845 0.5115 0.1501
C36_2 C 0.63428(18) 0.5678(6) 0.1731(3)
C37_4 C 0.63428(18) 0.4322(6) 0.6731(3)
C38_4 C 0.6643(2) 0.4580(8) 0.6598(3)
C39_2 C 0.6643(2) 0.5420(8) 0.1598(3)
H29_4 H 0.6840 0.4101 0.6776
H30_2 H 0.6840 0.5899 0.1776
C40_4 C 0.6652(2) 0.5558(8) 0.6198(3)
C41_2 C 0.6652(2) 0.4442(8) 0.1198(3)
H31_4 H 0.6861 0.5742 0.6123
H32_2 H 0.6861 0.4258 0.1123
C42_2 C 0.6046(2) 0.8046(8) 0.2719(3)
C43_4 C 0.6046(2) 0.1954(8) 0.7719(3)
H33_2 H 0.5846 0.8484 0.2738
H34_4 H 0.5846 0.1516 0.7738
C44_2 C 0.60397(19) 0.7311(8) 0.2247(3)
C45_4 C 0.60397(19) 0.2689(8) 0.7247(3)
H35_2 H 0.5842 0.7288 0.1956
H36_4 H 0.5842 0.2712 0.6956
C46_2 C 0.63302(18) 0.6589(7) 0.2197(3)
C47_4 C 0.63302(18) 0.3411(7) 0.7197(3)
C48_2 C 0.6609(2) 0.6751(11) 0.2636(4)
C49_4 C 0.6609(2) 0.3249(11) 0.7636(4)
H37_2 H 0.6811 0.6298 0.2633
H38_4 H 0.6811 0.3702 0.7633
C50_2 C 0.6597(2) 0.7599(10) 0.3098(4)
C51_4 C 0.6597(2) 0.2401(10) 0.8098(4)
H39_2 H 0.6798 0.7749 0.3375
H40_4 H 0.6798 0.2251 0.8375
C52_4 C 0.7219(2) 0.8667(7) 0.5866(3)
S1_4 S 0.60733(4) 0.04037(16) 0.04854(7)
S4_4 S 0.76091(6) 0.0800(2) 0.11125(11)
N6_4 N 0.69489(14) 0.1738(6) 0.0695(2)
C26_4 C 0.7219(2) 0.1333(7) 0.0866(3)
Mo1_4 Mo 0.589453(13) 0.12042(5) 0.95996(2)
S2_4 S 0.62630(4) 0.28624(14) 0.94855(7)
O1_4 O 0.54885(11) 0.1835(5) 0.9474(2)
N8_4 N 0.68058(12) 0.0245(5) 0.9170(2)
C6_8 C 0.70730(17) 0.1002(6) 0.9420(3)
H5_8 H 0.7033 0.1908 0.9509
C7_8 C 0.74017(15) 0.0552(7) 0.9555(3)
H6_8 H 0.7578 0.1146 0.9723
loop_
_geom_bond_atom_site_label_1
_geom_bond_atom_site_label_2
_geom_bond_site_symmetry_1
_geom_bond_site_symmetry_2
N5 C21 1_555 1_555
C19 C18 1_555 1_555
H15 C19 1_555 1_555
C21 H17 1_555 1_555
C22 C21 1_555 1_555
H18 C22 1_555 1_555
C23 C18 1_555 1_555
C24 C23 1_555 1_555
H19 C24 1_555 1_555
C25 N5 1_555 1_555
H20 C25 1_555 1_555
Cu9 N5 1_555 1_555
C22 C23 1_555 1_555
C24 C25 1_555 1_555
Cu5 N9 1_555 1_555
N9 C27 1_555 1_555
C27 H21 1_555 1_555
C28 C27 1_555 1_555
C30 C29 1_555 1_555
H23 C30 1_555 1_555
C31 N9 1_555 1_555
H24 C31 1_555 1_555
C28 C29 1_555 1_555
C30 C31 1_555 1_555
Mo1 Cu1 1_555 1_555
Cu1 S1 1_555 1_555
Cu2 Mo1 1_555 1_555
Cu3 Mo1 1_555 1_555
S1 Mo1 1_555 1_555
S2 Mo1 1_555 1_555
S3 Mo1 1_555 1_555
S4 C26 1_555 1_555
O1 Mo1 1_555 1_555
N1 Cu1 1_555 1_555
N3 Cu1 1_555 1_555
N4 Cu2 1_555 1_555
N6 Cu2 1_555 1_555
C1 N1 1_555 1_555
H1 C1 1_555 1_555
C2 C1 1_555 1_555
H2 C2 1_555 1_555
C3 C2 1_555 1_555
C4 C3 1_555 1_555
H3 C4 1_555 1_555
C5 N1 1_555 1_555
H4 C5 1_555 1_555
C8 C3 1_555 1_555
C9 C8 1_555 1_555
H7 C9 1_555 1_555
H8 C10 1_555 1_555
C11 N3 1_555 1_555
H9 C11 1_555 1_555
C12 C11 1_555 1_555
C13 C12 1_555 1_555
C14 C13 1_555 1_555
H11 C14 1_555 1_555
C15 N3 1_555 1_555
H12 C15 1_555 1_555
C16 N4 1_555 1_555
H13 C16 1_555 1_555
C17 C16 1_555 1_555
C20 N4 1_555 1_555
H16 C20 1_555 1_555
C26 N6 1_555 1_555
N7 Cu4 1_555 1_555
N8 Cu3 1_555 1_555
N10 Cu4 1_555 1_555
N13 Cu3 1_555 1_555
Cu1 S3 1_555 1_555
Cu2 S1 1_555 1_555
Cu2 S2 1_555 1_555
Cu3 S2 1_555 1_555
Cu3 S3 1_555 1_555
C4 C5 1_555 1_555
C9 C10 1_555 1_555
C14 C15 1_555 1_555
Cu4 S7 1_555 1_555
N13 C43 1_555 1_555
C38 C37 1_555 1_555
H29 C38 1_555 1_555
C43 H34 1_555 1_555
C45 C43 1_555 1_555
H36 C45 1_555 1_555
C47 C37 1_555 1_555
C49 C47 1_555 1_555
H38 C49 1_555 1_555
C51 N13 1_555 1_555
H40 C51 1_555 1_555
C45 C47 1_555 1_555
C49 C51 1_555 1_555
N1_2 Cu1_2 1_555 1_555
N2 C6 1_555 1_555
N3_2 Cu1_2 1_555 1_555
C1_2 N1_2 1_555 1_555
H1_2 C1_2 1_555 1_555
C2_2 C1_2 1_555 1_555
H2_2 C2_2 1_555 1_555
C3_2 C2_2 1_555 1_555
C4_2 C3_2 1_555 1_555
H3_2 C4_2 1_555 1_555
C5_2 N1_2 1_555 1_555
H4_2 C5_2 1_555 1_555
C6 H5 1_555 1_555
C7 C6 1_555 1_555
H6 C7 1_555 1_555
C8_2 C3_2 1_555 1_555
C9_2 C8_2 1_555 1_555
H7_2 C9_2 1_555 1_555
C10_2 N2 1_555 1_555
H8_2 C10_2 1_555 1_555
C11_2 N3_2 1_555 1_555
H9_2 C11_2 1_555 1_555
C12_2 C11_2 1_555 1_555
H10 C12_2 1_555 1_555
C13_2 C12_2 1_555 1_555
C14_2 C13_2 1_555 1_555
H11_2 C14_2 1_555 1_555
C15_2 N3_2 1_555 1_555
H12_2 C15_2 1_555 1_555
Mo2 Cu5 1_555 1_555
Cu5 S5 1_555 1_555
Cu6 Mo2 1_555 1_555
Cu9 N2 1_555 1_555
S5 Mo2 1_555 1_555
S6 Mo2 1_555 1_555
S7_2 Mo2 1_555 1_555
S8 C52 1_555 1_555
O2 Mo2 1_555 1_555
N7_2 Cu5 1_555 1_555
N10 C27_2 1_555 1_555
N11 Cu6 1_555 1_555
N16 Cu6 1_555 1_555
C27_2 H21_2 1_555 1_555
C28_2 C27_2 1_555 1_555
H22 C28_2 1_555 1_555
C29_2 C13_2 1_555 1_555
C30_2 C29_2 1_555 1_555
H23_2 C30_2 1_555 1_555
C31_2 N10 1_555 1_555
H24_2 C31_2 1_555 1_555
C32 N11 1_555 1_555
H25 C32 1_555 1_555
C34 C32 1_555 1_555
C40 N11 1_555 1_555
H31 C40 1_555 1_555
C52 N16 1_555 1_555
Cu1_2 S3_2 1_555 1_555
C4_2 C5_2 1_555 1_555
C7 C8_2 1_555 1_555
C9_2 C10_2 1_555 1_555
C14_2 C15_2 1_555 1_555
Mo2 Cu9 1_555 1_555
Cu5 S7_2 1_555 1_555
Cu6 S5 1_555 1_555
Cu6 S6 1_555 1_555
Cu9 S6 1_555 1_555
Cu9 S7_2 1_555 1_555
C28_2 C29_2 1_555 1_555
C30_2 C31_2 1_555 1_555
C1_3 N7_2 1_555 1_555
H1_3 C1_3 1_555 1_555
C2_3 C1_3 1_555 1_555
H2_3 C2_3 1_555 1_555
C3_3 C2_3 1_555 1_555
C4_3 C3_3 1_555 1_555
H3_3 C4_3 1_555 1_555
C5_3 N7_2 1_555 1_555
H4_3 C5_3 1_555 1_555
C8_3 C3_3 1_555 1_555
C9_3 C8_3 1_555 1_555
H7_3 C9_3 1_555 1_555
H8_3 C10_3 1_555 1_555
C4_3 C5_3 1_555 1_555
C9_3 C10_3 1_555 1_555
N8 C6_2 1_555 1_555
C1_4 N7 1_555 1_555
H1_4 C1_4 1_555 1_555
C2_4 C1_4 1_555 1_555
H2_4 C2_4 1_555 1_555
C3_4 C2_4 1_555 1_555
C4_4 C3_4 1_555 1_555
H3_4 C4_4 1_555 1_555
C5_4 N7 1_555 1_555
H4_4 C5_4 1_555 1_555
C6_2 H5_2 1_555 1_555
C7_2 C6_2 1_555 1_555
H6_2 C7_2 1_555 1_555
C8_4 C3_4 1_555 1_555
C9_4 C8_4 1_555 1_555
H7_4 C9_4 1_555 1_555
C10_4 N8 1_555 1_555
H8_4 C10_4 1_555 1_555
C4_4 C5_4 1_555 1_555
C7_2 C8_4 1_555 1_555
C9_4 C10_4 1_555 1_555
S4_2 C26_2 1_555 1_555
N4_2 Cu2_2 1_555 1_555
N6_2 Cu2_2 1_555 1_555
C3_5 C2_5 1_555 1_555
C4_5 C3_5 1_555 1_555
H3_5 C4_5 1_555 1_555
C5_5 N1_3 1_555 1_555
H4_5 C5_5 1_555 1_555
C8_5 C3_5 1_555 1_555
C9_5 C8_5 1_555 1_555
H7_5 C9_5 1_555 1_555
H8_5 C10_5 1_555 1_555
C14_3 C13_3 1_555 1_555
H11_3 C14_3 1_555 1_555
H12_3 C15_3 1_555 1_555
C16_2 N4_2 1_555 1_555
H13_2 C16_2 1_555 1_555
C17_2 C16_2 1_555 1_555
C20_2 N4_2 1_555 1_555
H16_2 C20_2 1_555 1_555
C26_2 N6_2 1_555 1_555
N10_2 Cu4_2 1_555 1_555
Cu2_2 S1_2 1_555 1_555
C4_5 C5_5 1_555 1_555
C9_5 C10_5 1_555 1_555
C14_3 C15_3 1_555 1_555
Cu4_2 S7_3 1_555 1_555
Mo1_2 Cu1_3 1_555 1_555
Cu3_2 Mo1_2 1_555 1_555
S2_2 Mo1_2 1_555 1_555
S3_3 Mo1_2 1_555 1_555
O1_2 Mo1_2 1_555 1_555
N3_3 Cu1_3 1_555 1_555
H1_5 C1_5 1_555 1_555
C11_3 N3_3 1_555 1_555
H9_3 C11_3 1_555 1_555
C12_3 C11_3 1_555 1_555
N8_2 Cu3_2 1_555 1_555
N13_2 Cu3_2 1_555 1_555
Cu1_3 S3_3 1_555 1_555
Cu3_2 S2_2 1_555 1_555
Cu3_2 S3_3 1_555 1_555
Cu5_2 N9_2 1_555 1_555
N9_2 C27_3 1_555 1_555
C27_3 H21_3 1_555 1_555
C28_3 C27_3 1_555 1_555
C30_3 C29_3 1_555 1_555
H23_3 C30_3 1_555 1_555
H24_3 C31_3 1_555 1_555
C30_3 C31_3 1_555 1_555
N5_2 C21_2 1_555 1_555
C19_2 C18_2 1_555 1_555
H15_2 C19_2 1_555 1_555
C21_2 H17_2 1_555 1_555
C22_2 C21_2 1_555 1_555
H18_2 C22_2 1_555 1_555
C23_2 C18_2 1_555 1_555
C24_2 C23_2 1_555 1_555
H19_2 C24_2 1_555 1_555
C25_2 N5_2 1_555 1_555
H20_2 C25_2 1_555 1_555
Cu9_2 N5_2 1_555 1_555
C22_2 C23_2 1_555 1_555
C24_2 C25_2 1_555 1_555
N2_2 C6_3 1_555 1_555
C3_6 C2_6 1_555 1_555
C4_6 C3_6 1_555 1_555
H3_6 C4_6 1_555 1_555
C5_6 N1_4 1_555 1_555
H4_6 C5_6 1_555 1_555
C6_3 H5_3 1_555 1_555
C7_3 C6_3 1_555 1_555
H6_3 C7_3 1_555 1_555
C8_6 C3_6 1_555 1_555
C9_6 C8_6 1_555 1_555
H7_6 C9_6 1_555 1_555
C10_6 N2_2 1_555 1_555
H8_6 C10_6 1_555 1_555
C14_4 C13_4 1_555 1_555
H11_4 C14_4 1_555 1_555
H12_4 C15_4 1_555 1_555
Mo2_2 Cu5_2 1_555 1_555
Cu9_2 N2_2 1_555 1_555
S6_2 Mo2_2 1_555 1_555
S7_4 Mo2_2 1_555 1_555
O2_2 Mo2_2 1_555 1_555
N10_2 C27_4 1_555 1_555
C27_4 H21_4 1_555 1_555
C28_4 C27_4 1_555 1_555
H22_2 C28_4 1_555 1_555
C4_6 C5_6 1_555 1_555
C7_3 C8_6 1_555 1_555
C9_6 C10_6 1_555 1_555
C14_4 C15_4 1_555 1_555
Mo2_2 Cu9_2 1_555 1_555
Cu5_2 S7_4 1_555 1_555
Cu9_2 S6_2 1_555 1_555
Cu9_2 S7_4 1_555 1_555
N3_4 Cu1_4 1_555 1_555
H1_6 C1_6 1_555 1_555
C11_4 N3_4 1_555 1_555
H9_4 C11_4 1_555 1_555
C12_4 C11_4 1_555 1_555
H10_2 C12_4 1_555 1_555
S8_2 C52_2 1_555 1_555
N11_2 Cu6_2 1_555 1_555
N16_2 Cu6_2 1_555 1_555
C30_4 C29_4 1_555 1_555
H23_4 C30_4 1_555 1_555
H24_4 C31_4 1_555 1_555
C32_2 N11_2 1_555 1_555
H25_2 C32_2 1_555 1_555
C34_2 C32_2 1_555 1_555
C40_2 N11_2 1_555 1_555
H31_2 C40_2 1_555 1_555
C52_2 N16_2 1_555 1_555
Cu1_4 S3_4 1_555 1_555
Cu6_2 S5_2 1_555 1_555
C30_4 C31_4 1_555 1_555
N13_2 C43_2 1_555 1_555
C38_2 C37_2 1_555 1_555
H29_2 C38_2 1_555 1_555
C43_2 H34_2 1_555 1_555
C45_2 C43_2 1_555 1_555
H36_2 C45_2 1_555 1_555
C47_2 C37_2 1_555 1_555
C49_2 C47_2 1_555 1_555
H38_2 C49_2 1_555 1_555
C51_2 N13_2 1_555 1_555
H40_2 C51_2 1_555 1_555
C45_2 C47_2 1_555 1_555
C49_2 C51_2 1_555 1_555
H1_7 C1_7 1_555 1_555
C3_7 C2_7 1_555 1_555
C4_7 C3_7 1_555 1_555
H3_7 C4_7 1_555 1_555
C5_7 N7_4 1_555 1_555
H4_7 C5_7 1_555 1_555
C8_7 C3_7 1_555 1_555
C9_7 C8_7 1_555 1_555
H7_7 C9_7 1_555 1_555
H8_7 C10_7 1_555 1_555
C4_7 C5_7 1_555 1_555
C9_7 C10_7 1_555 1_555
H1_8 C1_8 1_555 1_555
N8_2 C6_4 1_555 1_555
C3_8 C2_8 1_555 1_555
C4_8 C3_8 1_555 1_555
H3_8 C4_8 1_555 1_555
C5_8 N7_3 1_555 1_555
H4_8 C5_8 1_555 1_555
C6_4 H5_4 1_555 1_555
C7_4 C6_4 1_555 1_555
H6_4 C7_4 1_555 1_555
C8_8 C3_8 1_555 1_555
C9_8 C8_8 1_555 1_555
H7_8 C9_8 1_555 1_555
C10_8 N8_2 1_555 1_555
H8_8 C10_8 1_555 1_555
C4_8 C5_8 1_555 1_555
C7_4 C8_8 1_555 1_555
C9_8 C10_8 1_555 1_555
N2_3 C6_5 1_555 1_555
C6_5 H5_5 1_555 1_555
C7_5 C6_5 1_555 1_555
H6_5 C7_5 1_555 1_555
Cu7 N12 1_555 1_555
Cu8 N2_3 1_555 1_555
S6_3 Mo2_3 1_555 1_555
O2_3 Mo2_3 1_555 1_555
N12 C33 1_555 1_555
N14 Cu8 1_555 1_555
C33 H26 1_555 1_555
C35 C33 1_555 1_555
H28 C35 1_555 1_555
C36 C35 1_555 1_555
C39 C36 1_555 1_555
H30 C39 1_555 1_555
C41 N12 1_555 1_555
H32 C41 1_555 1_555
C42 N14 1_555 1_555
H33 C42 1_555 1_555
C44 C42 1_555 1_555
H35 C44 1_555 1_555
C46 C36 1_555 1_555
C48 C46 1_555 1_555
H37 C48 1_555 1_555
C50 N14 1_555 1_555
H39 C50 1_555 1_555
Mo2_3 Cu8 1_555 1_555
Cu8 S6_3 1_555 1_555
C39 C41 1_555 1_555
C44 C46 1_555 1_555
C48 C50 1_555 1_555
Cu10 N15 1_555 1_555
S8_3 C52_3 1_555 1_555
N11_3 Cu6_3 1_555 1_555
N15 C43_3 1_555 1_555
N16_3 Cu6_3 1_555 1_555
C32_3 N11_3 1_555 1_555
H25_3 C32_3 1_555 1_555
C34_3 C32_3 1_555 1_555
H27_3 C34_3 1_555 1_555
C37_3 C34_3 1_555 1_555
C38_3 C37_3 1_555 1_555
H29_3 C38_3 1_555 1_555
C40_3 N11_3 1_555 1_555
H31_3 C40_3 1_555 1_555
C43_3 H34_3 1_555 1_555
C45_3 C43_3 1_555 1_555
H36_3 C45_3 1_555 1_555
C47_3 C37_3 1_555 1_555
C49_3 C47_3 1_555 1_555
H38_3 C49_3 1_555 1_555
C51_3 N15 1_555 1_555
H40_3 C51_3 1_555 1_555
C52_3 N16_3 1_555 1_555
Cu6_3 S5_3 1_555 1_555
C38_3 C40_3 1_555 1_555
C45_3 C47_3 1_555 1_555
C49_3 C51_3 1_555 1_555
Cu7 Mo1_3 1_555 1_555
Cu10 Mo1_3 1_555 1_555
S1_3 Mo1_3 1_555 1_555
S2_3 Mo1_3 1_555 1_555
S4_3 C26_3 1_555 1_555
O1_3 Mo1_3 1_555 1_555
N6_3 Cu7 1_555 1_555
C26_3 N6_3 1_555 1_555
N8_3 Cu10 1_555 1_555
Cu7 S1_3 1_555 1_555
Cu7 S2_3 1_555 1_555
Cu10 S2_3 1_555 1_555
N8_3 C6_6 1_555 1_555
C6_6 H5_6 1_555 1_555
C7_6 C6_6 1_555 1_555
H6_6 C7_6 1_555 1_555
N2_4 C6_7 1_555 1_555
C6_7 H5_7 1_555 1_555
C7_7 C6_7 1_555 1_555
H6_7 C7_7 1_555 1_555
Cu6_4 Mo2_4 1_555 1_555
Cu7_2 N12_2 1_555 1_555
Cu8_2 N2_4 1_555 1_555
Cu10_2 N15_2 1_555 1_555
S5_4 Mo2_4 1_555 1_555
S6_4 Mo2_4 1_555 1_555
S8_4 C52_4 1_555 1_555
O2_4 Mo2_4 1_555 1_555
N11_4 Cu6_4 1_555 1_555
N12_2 C33_2 1_555 1_555
N14_2 Cu8_2 1_555 1_555
N15_2 C43_4 1_555 1_555
N16_4 Cu6_4 1_555 1_555
C32_4 N11_4 1_555 1_555
C33_2 H26_2 1_555 1_555
H25_4 C32_4 1_555 1_555
C34_4 C32_4 1_555 1_555
C35_2 C33_2 1_555 1_555
H27_4 C34_4 1_555 1_555
H28_2 C35_2 1_555 1_555
C36_2 C35_2 1_555 1_555
C37_4 C34_4 1_555 1_555
C38_4 C37_4 1_555 1_555
C39_2 C36_2 1_555 1_555
H29_4 C38_4 1_555 1_555
H30_2 C39_2 1_555 1_555
C40_4 N11_4 1_555 1_555
C41_2 N12_2 1_555 1_555
H31_4 C40_4 1_555 1_555
H32_2 C41_2 1_555 1_555
C42_2 N14_2 1_555 1_555
C43_4 H34_4 1_555 1_555
H33_2 C42_2 1_555 1_555
C44_2 C42_2 1_555 1_555
C45_4 C43_4 1_555 1_555
H35_2 C44_2 1_555 1_555
H36_4 C45_4 1_555 1_555
C46_2 C36_2 1_555 1_555
C47_4 C37_4 1_555 1_555
C48_2 C46_2 1_555 1_555
C49_4 C47_4 1_555 1_555
H37_2 C48_2 1_555 1_555
H38_4 C49_4 1_555 1_555
C50_2 N14_2 1_555 1_555
C51_4 N15_2 1_555 1_555
H39_2 C50_2 1_555 1_555
H40_4 C51_4 1_555 1_555
C52_4 N16_4 1_555 1_555
Mo2_4 Cu8_2 1_555 1_555
Cu6_4 S5_4 1_555 1_555
Cu6_4 S6_4 1_555 1_555
Cu8_2 S6_4 1_555 1_555
C38_4 C40_4 1_555 1_555
C39_2 C41_2 1_555 1_555
C44_2 C46_2 1_555 1_555
C45_4 C47_4 1_555 1_555
C48_2 C50_2 1_555 1_555
C49_4 C51_4 1_555 1_555
S4_4 C26_4 1_555 1_555
N6_4 Cu7_2 1_555 1_555
C26_4 N6_4 1_555 1_555
Cu7_2 S1_4 1_555 1_555
Cu10_2 Mo1_4 1_555 1_555
S2_4 Mo1_4 1_555 1_555
O1_4 Mo1_4 1_555 1_555
N8_4 Cu10_2 1_555 1_555
Cu10_2 S2_4 1_555 1_555
N8_4 C6_8 1_555 1_555
C6_8 H5_8 1_555 1_555
C7_8 C6_8 1_555 1_555
H6_8 C7_8 1_555 1_555

#END
