
###############################################################################
#
# This file contains modified crystal structure data generated from the
# MOF subset of the Cambridge Structural Database (CSD) v543 
# hosted by the Cambridge Crystallographic Data Centre (CCDC).
#
# This work is licensed under the Creative Commons
# Attribution-NonCommercial-ShareAlike 4.0 International License.
# To view a copy of this license, visit
# http://creativecommons.org/licenses/by-nc-sa/4.0/
# or send a letter to
# Creative Commons, PO Box 1866, Mountain View, CA 94042, USA.
#
# CIF created using the CSD Python API on 29 September 2022
# The structure has been converted into the P1 space group
# The structure has a 3D framework
# The original CSD entry MATPOP is in the monoclinic crystal system
# The framework has been calculated to contain at least 10.0% void space
# The void calculation uses a probe of radius 1.32A, grid spacing 0.4
#
###############################################################################

data_MATPOP
_chemical_formula_moiety         '(C192 H154 Cl8 N32 O86 Tb8 Zn8)n'
_symmetry_cell_setting           triclinic
_symmetry_space_group_name_H-M   'P 1'
_symmetry_Int_Tables_number      1
_space_group_name_Hall           'P 1'
loop_
_symmetry_equiv_pos_site_id
_symmetry_equiv_pos_as_xyz
1 x,y,z
_cell_length_a                   27.9927(4)
_cell_length_b                   13.9755(2)
_cell_length_c                   22.6184(3)
_cell_angle_alpha                90
_cell_angle_beta                 99.5272(14)
_cell_angle_gamma                90
_cell_volume                     8726.54
loop_
_atom_site_label
_atom_site_type_symbol
_atom_site_fract_x
_atom_site_fract_y
_atom_site_fract_z
C1 C 0.19423(11) 0.1006(2) 0.23299(12)
H1 H 0.1999(11) 0.159(2) 0.2260(13)
O2 O 0.08677(6) 0.02548(13) 0.40892(7)
C2 C 0.15376(10) 0.0588(2) 0.20012(11)
H2 H 0.1339(10) 0.093(2) 0.1681(12)
O6 O 0.40160(9) 0.13885(16) 0.48366(10)
C8 C 0.11071(8) 0.02278(18) 0.46099(10)
N4 N 0.29045(7) 0.02769(16) 0.35722(9)
O11 O 0.40844(6) 0.26276(13) 0.42327(7)
O12 O 0.09737(6) 0.05455(13) 0.50737(7)
C10 C 0.38894(10) 0.1870(2) 0.43760(12)
C11 C 0.32861(10) 0.0607(2) 0.39460(12)
H11 H 0.3409(11) 0.024(2) 0.4167(12)
C18 C 0.26622(10) 0.0887(2) 0.31704(11)
C21 C 0.22288(9) 0.0481(2) 0.27753(10)
C22 C 0.34540(10) 0.1532(2) 0.39421(11)
C23 C 0.28054(14) 0.1822(3) 0.31349(14)
H17 H 0.2662(13) 0.224(3) 0.2915(15)
C24 C 0.32078(13) 0.2142(3) 0.35171(14)
H18 H 0.3308(13) 0.271(3) 0.3500(14)
H20 H 0.0228(10) 0.077(2) 0.0747(11)
Tb2 Tb 0.46707(2) 0.37657(2) 0.45700(2)
Tb4 Tb 0.03293(2) 0.12343(2) 0.54300(2)
Tb1 Tb 0.03293(2) 0.87657(2) 0.04300(2)
Zn1 Zn 0.26291(2) 0.87943(2) 0.35197(2)
O1 O 0.07987(6) 0.94562(12) 0.13000(7)
O4 O 0.43006(6) 0.66354(13) 0.41753(7)
N1 N 0.22613(7) 0.91557(15) 0.42644(8)
O5 O 0.07725(6) 0.85621(14) 0.21170(7)
C3 C 0.16009(8) 0.97715(18) 0.46942(10)
N2 N 0.21248(7) 0.95600(15) 0.28805(8)
C4 C 0.24951(8) 0.89119(17) 0.48142(10)
O7 O 0.45085(6) 0.65797(13) 0.51765(7)
N3 N 0.31120(7) 0.83090(15) 0.42889(8)
C5 C 0.29698(9) 0.84302(18) 0.48274(10)
C6 C 0.18432(9) 0.95276(19) 0.52659(11)
H3 H 0.1700(9) 0.9727(18) 0.5619(11)
O8 O 0.31441(7) 0.85588(15) 0.29427(9)
H4 H 0.3445 0.8735 0.3013
H5 H 0.3087 0.8271 0.2599
O9 O 0.00483(6) 0.80279(14) 0.12583(7)
H7 H 0.0261 0.8103 0.1591
C7 C 0.36718(9) 0.76048(19) 0.53193(11)
H8 H 0.3835(9) 0.7345(19) 0.5626(11)
C9 C 0.42413(8) 0.68404(18) 0.46934(10)
C12 C 0.38054(8) 0.74374(17) 0.47658(10)
C13 C 0.18250(9) 0.95652(19) 0.42143(11)
H12 H 0.1680(9) 0.9741(18) 0.3831(11)
C14 C 0.17229(9) 0.91743(19) 0.25743(10)
H13 H 0.1656(9) 0.8530(19) 0.2682(11)
C15 C 0.35176(9) 0.78153(18) 0.42659(11)
H14 H 0.3621(9) 0.7697(18) 0.3922(11)
C16 C 0.22898(9) 0.90842(19) 0.53228(11)
H15 H 0.2461(10) 0.8874(18) 0.5716(11)
C17 C 0.09568(9) 0.91883(18) 0.18257(10)
C19 C 0.14124(9) 0.96606(18) 0.21360(10)
C20 C 0.32494(9) 0.80975(19) 0.53512(11)
H16 H 0.3140(9) 0.8133(19) 0.5696(11)
Cl1 Cl 0.22453(2) 0.72885(5) 0.33420(3)
Tb5 Tb 0.53293(2) 0.62343(2) 0.54300(2)
O15 O 0.09156(6) 0.76276(13) 0.07673(7)
O16 O 0.09737(6) 0.94545(13) 0.00737(7)
Tb3 Tb 0.96707(2) 0.12343(2) 0.95700(2)
H6 H 0.9770 0.8280 0.1320
O14 O 0.95085(6) 0.84203(13) 0.01765(7)
O3 O 0.00021(6) 0.03716(13) 0.44310(7)
H19 H 0.0214(13) 0.042(3) 0.4224(15)
H6_2 H 0.0230 0.8280 0.3680
O14_2 O 0.04915(6) 0.84203(13) 0.48235(7)
C1_2 C 0.80577(11) 0.1006(2) 0.26701(12)
H1_2 H 0.8001(11) 0.159(2) 0.2740(13)
O2_2 O 0.91323(6) 0.02548(13) 0.09108(7)
C2_2 C 0.84624(10) 0.0588(2) 0.29988(11)
H2_2 H 0.8661(10) 0.093(2) 0.3319(12)
O6_2 O 0.59840(9) 0.13885(16) 0.01634(10)
C8_2 C 0.88929(8) 0.02278(18) 0.03901(10)
N4_2 N 0.70955(7) 0.02769(16) 0.14278(9)
O11_2 O 0.59156(6) 0.26276(13) 0.07673(7)
C10_2 C 0.61106(10) 0.1870(2) 0.06240(12)
C11_2 C 0.67139(10) 0.0607(2) 0.10540(12)
H11_2 H 0.6591(11) 0.024(2) 0.0833(12)
C18_2 C 0.73378(10) 0.0887(2) 0.18296(11)
C21_2 C 0.77712(9) 0.0481(2) 0.22247(10)
C22_2 C 0.65460(10) 0.1532(2) 0.10579(11)
C23_2 C 0.71946(14) 0.1822(3) 0.18651(14)
H17_2 H 0.7338(13) 0.224(3) 0.2085(15)
C24_2 C 0.67922(13) 0.2142(3) 0.14829(14)
H18_2 H 0.6692(13) 0.271(3) 0.1500(14)
H20_2 H 0.9772(10) 0.077(2) 0.4253(11)
Tb2_2 Tb 0.53293(2) 0.37657(2) 0.04300(2)
O12_2 O 0.90263(6) 0.05455(13) 0.99263(7)
Tb1_2 Tb 0.96707(2) 0.87657(2) 0.45700(2)
Zn1_2 Zn 0.73709(2) 0.87943(2) 0.14803(2)
O1_2 O 0.92013(6) 0.94562(12) 0.37000(7)
O4_2 O 0.56994(6) 0.66354(13) 0.08247(7)
N1_2 N 0.77387(7) 0.91557(15) 0.07356(8)
O5_2 O 0.92275(6) 0.85621(14) 0.28830(7)
C3_2 C 0.83991(8) 0.97715(18) 0.03058(10)
N2_2 N 0.78752(7) 0.95600(15) 0.21195(8)
C4_2 C 0.75049(8) 0.89119(17) 0.01858(10)
N3_2 N 0.68880(7) 0.83090(15) 0.07111(8)
C5_2 C 0.70302(9) 0.84302(18) 0.01726(10)
O8_2 O 0.68559(7) 0.85588(15) 0.20573(9)
H4_2 H 0.6555 0.8735 0.1987
H5_2 H 0.6913 0.8271 0.2401
O9_2 O 0.99517(6) 0.80279(14) 0.37417(7)
H7_2 H 0.9739 0.8103 0.3409
C9_2 C 0.57587(8) 0.68404(18) 0.03066(10)
O10 O 0.96779(7) 0.76221(14) 0.53471(7)
H9 H 0.9966 0.7409 0.5453
H10 H 0.9490 0.7157 0.5220
C12_2 C 0.61946(8) 0.74374(17) 0.02342(10)
C13_2 C 0.81750(9) 0.95652(19) 0.07857(11)
H12_2 H 0.8320(9) 0.9741(18) 0.1169(11)
C14_2 C 0.82771(9) 0.91743(19) 0.24257(10)
H13_2 H 0.8344(9) 0.8530(19) 0.2318(11)
C15_2 C 0.64824(9) 0.78153(18) 0.07341(11)
H14_2 H 0.6379(9) 0.7697(18) 0.1078(11)
C17_2 C 0.90432(9) 0.91883(18) 0.31743(10)
C19_2 C 0.85876(9) 0.96606(18) 0.28640(10)
Cl1_2 Cl 0.77547(2) 0.72885(5) 0.16580(3)
O13 O 0.99979(6) 0.96284(13) 0.55690(7)
O15_2 O 0.90844(6) 0.76276(13) 0.42327(7)
O16_2 O 0.90263(6) 0.94545(13) 0.49263(7)
O7_2 O 0.54915(6) 0.65797(13) 0.98235(7)
C6_2 C 0.81568(9) 0.95276(19) 0.97341(11)
H3_2 H 0.8300(9) 0.9727(18) 0.9381(11)
C7_2 C 0.63282(9) 0.76048(19) 0.96807(11)
H8_2 H 0.6165(9) 0.7345(19) 0.9374(11)
C16_2 C 0.77102(9) 0.90842(19) 0.96772(11)
H15_2 H 0.7539(10) 0.8874(18) 0.9284(11)
C20_2 C 0.67506(9) 0.80975(19) 0.96488(11)
H16_2 H 0.6860(9) 0.8133(19) 0.9304(11)
Tb5_2 Tb 0.46707(2) 0.62343(2) 0.95700(2)
Zn1_3 Zn 0.76291(2) 0.37943(2) 0.35197(2)
C1_3 C 0.69423(11) 0.6006(2) 0.23299(12)
H1_3 H 0.6999(11) 0.659(2) 0.2260(13)
O1_3 O 0.57987(6) 0.44562(12) 0.13000(7)
O2_3 O 0.58677(6) 0.52548(13) 0.40892(7)
O3_2 O 0.49979(6) 0.53716(13) 0.05690(7)
C2_3 C 0.65376(10) 0.5588(2) 0.20012(11)
H2_3 H 0.6339(10) 0.593(2) 0.1681(12)
O4_3 O 0.93006(6) 0.16354(13) 0.41753(7)
N1_3 N 0.72613(7) 0.41557(15) 0.42644(8)
O5_3 O 0.57725(6) 0.35621(14) 0.21170(7)
C3_3 C 0.66009(8) 0.47715(18) 0.46942(10)
N2_3 N 0.71248(7) 0.45600(15) 0.28805(8)
C4_3 C 0.74951(8) 0.39119(17) 0.48142(10)
O6_3 O 0.90160(9) 0.63885(16) 0.48366(10)
O7_3 O 0.95085(6) 0.15797(13) 0.51765(7)
N3_3 N 0.81120(7) 0.33090(15) 0.42889(8)
C5_3 C 0.79698(9) 0.34302(18) 0.48274(10)
C6_3 C 0.68432(9) 0.45276(19) 0.52659(11)
H3_3 H 0.6700(9) 0.4727(18) 0.5619(11)
O8_3 O 0.81441(7) 0.35588(15) 0.29427(9)
H4_3 H 0.8445 0.3735 0.3013
H5_3 H 0.8087 0.3271 0.2599
O9_3 O 0.50483(6) 0.30279(14) 0.12583(7)
H6_3 H 0.4770 0.3280 0.1320
H7_3 H 0.5261 0.3103 0.1591
C7_3 C 0.86718(9) 0.26048(19) 0.53193(11)
H8_3 H 0.8835(9) 0.2345(19) 0.5626(11)
C8_3 C 0.61071(8) 0.52278(18) 0.46099(10)
C9_3 C 0.92413(8) 0.18404(18) 0.46934(10)
N4_3 N 0.79045(7) 0.52769(16) 0.35722(9)
O12_3 O 0.59737(6) 0.55455(13) 0.50737(7)
C10_3 C 0.88894(10) 0.6870(2) 0.43760(12)
C11_3 C 0.82861(10) 0.5607(2) 0.39460(12)
H11_3 H 0.8409(11) 0.524(2) 0.4167(12)
C12_3 C 0.88054(8) 0.24374(17) 0.47658(10)
C13_3 C 0.68250(9) 0.45652(19) 0.42143(11)
H12_3 H 0.6680(9) 0.4741(18) 0.3831(11)
C14_3 C 0.67229(9) 0.41743(19) 0.25743(10)
H13_3 H 0.6656(9) 0.3530(19) 0.2682(11)
C15_3 C 0.85176(9) 0.28153(18) 0.42659(11)
H14_3 H 0.8621(9) 0.2697(18) 0.3922(11)
C16_3 C 0.72898(9) 0.40842(19) 0.53228(11)
H15_3 H 0.7461(10) 0.3874(18) 0.5716(11)
C17_3 C 0.59568(9) 0.41883(18) 0.18257(10)
C18_3 C 0.76622(10) 0.5887(2) 0.31704(11)
C19_3 C 0.64124(9) 0.46606(18) 0.21360(10)
C20_3 C 0.82494(9) 0.30975(19) 0.53512(11)
H16_3 H 0.8140(9) 0.3133(19) 0.5696(11)
C21_3 C 0.72288(9) 0.5481(2) 0.27753(10)
Cl1_3 Cl 0.72453(2) 0.22885(5) 0.33420(3)
C22_3 C 0.84540(10) 0.6532(2) 0.39421(11)
C23_3 C 0.78054(14) 0.6822(3) 0.31349(14)
H17_3 H 0.7662(13) 0.724(3) 0.2915(15)
C24_3 C 0.82078(13) 0.7142(3) 0.35171(14)
H18_3 H 0.8308(13) 0.771(3) 0.3500(14)
H19_2 H 0.4786(13) 0.542(3) 0.0776(15)
H20_3 H 0.5228(10) 0.577(2) 0.0747(11)
O14_3 O 0.45085(6) 0.34203(13) 0.01765(7)
O16_3 O 0.59737(6) 0.44545(13) 0.00737(7)
O10_2 O 0.53221(7) 0.26221(14) 0.96529(7)
H9_2 H 0.5034 0.2409 0.9547
H10_2 H 0.5510 0.2157 0.9780
O13_2 O 0.50021(6) 0.46284(13) 0.94310(7)
Zn1_4 Zn 0.23709(2) 0.37943(2) 0.14803(2)
C1_4 C 0.30577(11) 0.6006(2) 0.26701(12)
H1_4 H 0.3001(11) 0.659(2) 0.2740(13)
O1_4 O 0.42013(6) 0.44562(12) 0.37000(7)
O2_4 O 0.41323(6) 0.52548(13) 0.09108(7)
O3_3 O 0.50021(6) 0.53716(13) 0.44310(7)
C2_4 C 0.34624(10) 0.5588(2) 0.29988(11)
H2_4 H 0.3661(10) 0.593(2) 0.3319(12)
O4_4 O 0.06994(6) 0.16354(13) 0.08247(7)
N1_4 N 0.27387(7) 0.41557(15) 0.07356(8)
O5_4 O 0.42275(6) 0.35621(14) 0.28830(7)
C3_4 C 0.33991(8) 0.47715(18) 0.03058(10)
N2_4 N 0.28752(7) 0.45600(15) 0.21195(8)
C4_4 C 0.25049(8) 0.39119(17) 0.01858(10)
O6_4 O 0.09840(9) 0.63885(16) 0.01634(10)
N3_4 N 0.18880(7) 0.33090(15) 0.07111(8)
C5_4 C 0.20302(9) 0.34302(18) 0.01726(10)
O8_4 O 0.18559(7) 0.35588(15) 0.20573(9)
H4_4 H 0.1555 0.3735 0.1987
H5_4 H 0.1913 0.3271 0.2401
O9_4 O 0.49517(6) 0.30279(14) 0.37417(7)
H6_4 H 0.5230 0.3280 0.3680
H7_4 H 0.4739 0.3103 0.3409
C8_4 C 0.38929(8) 0.52278(18) 0.03901(10)
C9_4 C 0.07587(8) 0.18404(18) 0.03066(10)
O10_3 O 0.46779(7) 0.26221(14) 0.53471(7)
H9_3 H 0.4966 0.2409 0.5453
H10_3 H 0.4490 0.2157 0.5220
N4_4 N 0.20955(7) 0.52769(16) 0.14278(9)
C10_4 C 0.11106(10) 0.6870(2) 0.06240(12)
C11_4 C 0.17139(10) 0.5607(2) 0.10540(12)
H11_4 H 0.1591(11) 0.524(2) 0.0833(12)
C12_4 C 0.11946(8) 0.24374(17) 0.02342(10)
C13_4 C 0.31750(9) 0.45652(19) 0.07857(11)
H12_4 H 0.3320(9) 0.4741(18) 0.1169(11)
C14_4 C 0.32771(9) 0.41743(19) 0.24257(10)
H13_4 H 0.3344(9) 0.3530(19) 0.2318(11)
C15_4 C 0.14824(9) 0.28153(18) 0.07341(11)
H14_4 H 0.1379(9) 0.2697(18) 0.1078(11)
C17_4 C 0.40432(9) 0.41883(18) 0.31743(10)
C18_4 C 0.23378(10) 0.5887(2) 0.18296(11)
C19_4 C 0.35876(9) 0.46606(18) 0.28640(10)
C21_4 C 0.27712(9) 0.5481(2) 0.22247(10)
Cl1_4 Cl 0.27547(2) 0.22885(5) 0.16580(3)
C22_4 C 0.15460(10) 0.6532(2) 0.10579(11)
C23_4 C 0.21946(14) 0.6822(3) 0.18651(14)
H17_4 H 0.2338(13) 0.724(3) 0.2085(15)
C24_4 C 0.17922(13) 0.7142(3) 0.14829(14)
H18_4 H 0.1692(13) 0.771(3) 0.1500(14)
H19_3 H 0.5214(13) 0.542(3) 0.4224(15)
H20_4 H 0.4772(10) 0.577(2) 0.4253(11)
O13_3 O 0.49979(6) 0.46284(13) 0.55690(7)
O14_4 O 0.54915(6) 0.34203(13) 0.48235(7)
O16_4 O 0.40263(6) 0.44545(13) 0.49263(7)
O7_4 O 0.04915(6) 0.15797(13) 0.98235(7)
C6_4 C 0.31568(9) 0.45276(19) 0.97341(11)
H3_4 H 0.3300(9) 0.4727(18) 0.9381(11)
C7_4 C 0.13282(9) 0.26048(19) 0.96807(11)
H8_4 H 0.1165(9) 0.2345(19) 0.9374(11)
O12_4 O 0.40263(6) 0.55455(13) 0.99263(7)
C16_4 C 0.27102(9) 0.40842(19) 0.96772(11)
H15_4 H 0.2539(10) 0.3874(18) 0.9284(11)
C20_4 C 0.17506(9) 0.30975(19) 0.96488(11)
H16_4 H 0.1860(9) 0.3133(19) 0.9304(11)
H6_5 H 0.0230 0.1720 0.8680
Zn1_5 Zn 0.73709(2) 0.12057(2) 0.64803(2)
O1_5 O 0.92013(6) 0.05438(12) 0.87000(7)
O4_5 O 0.56994(6) 0.33646(13) 0.58247(7)
N1_5 N 0.77387(7) 0.08443(15) 0.57356(8)
O5_5 O 0.92275(6) 0.14379(14) 0.78830(7)
C3_5 C 0.83991(8) 0.02285(18) 0.53058(10)
N2_5 N 0.78752(7) 0.04400(15) 0.71195(8)
C4_5 C 0.75049(8) 0.10881(17) 0.51858(10)
N3_5 N 0.68880(7) 0.16910(15) 0.57111(8)
C5_5 C 0.70302(9) 0.15698(18) 0.51726(10)
C6_5 C 0.81568(9) 0.04724(19) 0.47341(11)
H3_5 H 0.8300(9) 0.0273(18) 0.4381(11)
O8_5 O 0.68559(7) 0.14412(15) 0.70573(9)
H4_5 H 0.6555 0.1265 0.6987
H5_5 H 0.6913 0.1729 0.7401
O9_5 O 0.99517(6) 0.19721(14) 0.87417(7)
H7_5 H 0.9739 0.1897 0.8409
C7_5 C 0.63282(9) 0.23952(19) 0.46807(11)
H8_5 H 0.6165(9) 0.2655(19) 0.4374(11)
C9_5 C 0.57587(8) 0.31596(18) 0.53066(10)
C12_5 C 0.61946(8) 0.25626(17) 0.52342(10)
C13_5 C 0.81750(9) 0.04348(19) 0.57857(11)
H12_5 H 0.8320(9) 0.0259(18) 0.6169(11)
C14_5 C 0.82771(9) 0.08257(19) 0.74257(10)
H13_5 H 0.8344(9) 0.1470(19) 0.7318(11)
C15_5 C 0.64824(9) 0.21847(18) 0.57341(11)
H14_5 H 0.6379(9) 0.2303(18) 0.6078(11)
C16_5 C 0.77102(9) 0.09158(19) 0.46772(11)
H15_5 H 0.7539(10) 0.1126(18) 0.4284(11)
C17_5 C 0.90432(9) 0.08117(18) 0.81743(10)
C19_5 C 0.85876(9) 0.03394(18) 0.78640(10)
C20_5 C 0.67506(9) 0.19025(19) 0.46488(11)
H16_5 H 0.6860(9) 0.1867(19) 0.4304(11)
Cl1_5 Cl 0.77547(2) 0.27115(5) 0.66580(3)
O15_3 O 0.90844(6) 0.23724(13) 0.92327(7)
C1_5 C 0.80577(11) 0.8994(2) 0.76701(12)
H1_5 H 0.8001(11) 0.841(2) 0.7740(13)
O2_5 O 0.91323(6) 0.97452(13) 0.59108(7)
C2_5 C 0.84624(10) 0.9412(2) 0.79988(11)
H2_5 H 0.8661(10) 0.907(2) 0.8319(12)
O6_5 O 0.59840(9) 0.86115(16) 0.51634(10)
C8_5 C 0.88929(8) 0.97722(18) 0.53901(10)
N4_5 N 0.70955(7) 0.97231(16) 0.64278(9)
O11_3 O 0.59156(6) 0.73724(13) 0.57673(7)
C10_5 C 0.61106(10) 0.8130(2) 0.56240(12)
C11_5 C 0.67139(10) 0.9393(2) 0.60540(12)
H11_5 H 0.6591(11) 0.976(2) 0.5833(12)
C18_5 C 0.73378(10) 0.9113(2) 0.68296(11)
C21_5 C 0.77712(9) 0.9519(2) 0.72247(10)
C22_5 C 0.65460(10) 0.8468(2) 0.60579(11)
C23_5 C 0.71946(14) 0.8178(3) 0.68651(14)
H17_5 H 0.7338(13) 0.776(3) 0.7085(15)
C24_5 C 0.67922(13) 0.7858(3) 0.64829(14)
H18_5 H 0.6692(13) 0.729(3) 0.6500(14)
H20_5 H 0.9772(10) 0.923(2) 0.9253(11)
C6_6 C 0.18432(9) 0.04724(19) 0.02659(11)
H3_6 H 0.1700(9) 0.0273(18) 0.0619(11)
C7_6 C 0.36718(9) 0.23952(19) 0.03193(11)
H8_6 H 0.3835(9) 0.2655(19) 0.0626(11)
C16_6 C 0.22898(9) 0.09158(19) 0.03228(11)
H15_6 H 0.2461(10) 0.1126(18) 0.0716(11)
C20_6 C 0.32494(9) 0.19025(19) 0.03512(11)
H16_6 H 0.3140(9) 0.1867(19) 0.0696(11)
Zn1_6 Zn 0.26291(2) 0.12057(2) 0.85197(2)
O1_6 O 0.07987(6) 0.05438(12) 0.63000(7)
O4_6 O 0.43006(6) 0.33646(13) 0.91753(7)
N1_6 N 0.22613(7) 0.08443(15) 0.92644(8)
O5_6 O 0.07725(6) 0.14379(14) 0.71170(7)
C3_6 C 0.16009(8) 0.02285(18) 0.96942(10)
N2_6 N 0.21248(7) 0.04400(15) 0.78805(8)
C4_6 C 0.24951(8) 0.10881(17) 0.98142(10)
N3_6 N 0.31120(7) 0.16910(15) 0.92889(8)
C5_6 C 0.29698(9) 0.15698(18) 0.98274(10)
O8_6 O 0.31441(7) 0.14412(15) 0.79427(9)
H4_6 H 0.3445 0.1265 0.8013
H5_6 H 0.3087 0.1729 0.7599
O9_6 O 0.00483(6) 0.19721(14) 0.62583(7)
H7_6 H 0.0261 0.1897 0.6591
C9_6 C 0.42413(8) 0.31596(18) 0.96934(10)
O10_4 O 0.03221(7) 0.23779(14) 0.46529(7)
H9_4 H 0.0034 0.2591 0.4547
H10_4 H 0.0510 0.2843 0.4780
C12_6 C 0.38054(8) 0.25626(17) 0.97658(10)
C13_6 C 0.18250(9) 0.04348(19) 0.92143(11)
H12_6 H 0.1680(9) 0.0259(18) 0.8831(11)
C14_6 C 0.17229(9) 0.08257(19) 0.75743(10)
H13_6 H 0.1656(9) 0.1470(19) 0.7682(11)
C15_6 C 0.35176(9) 0.21847(18) 0.92659(11)
H14_6 H 0.3621(9) 0.2303(18) 0.8922(11)
C17_6 C 0.09568(9) 0.08117(18) 0.68257(10)
C19_6 C 0.14124(9) 0.03394(18) 0.71360(10)
Cl1_6 Cl 0.22453(2) 0.27115(5) 0.83420(3)
O15_4 O 0.09156(6) 0.23724(13) 0.57673(7)
C1_6 C 0.19423(11) 0.8994(2) 0.73299(12)
H1_6 H 0.1999(11) 0.841(2) 0.7260(13)
O2_6 O 0.08677(6) 0.97452(13) 0.90892(7)
C2_6 C 0.15376(10) 0.9412(2) 0.70012(11)
H2_6 H 0.1339(10) 0.907(2) 0.6681(12)
O6_6 O 0.40160(9) 0.86115(16) 0.98366(10)
C8_6 C 0.11071(8) 0.97722(18) 0.96099(10)
N4_6 N 0.29045(7) 0.97231(16) 0.85722(9)
O11_4 O 0.40844(6) 0.73724(13) 0.92327(7)
C10_6 C 0.38894(10) 0.8130(2) 0.93760(12)
C11_6 C 0.32861(10) 0.9393(2) 0.89460(12)
H11_6 H 0.3409(11) 0.976(2) 0.9167(12)
C18_6 C 0.26622(10) 0.9113(2) 0.81704(11)
C21_6 C 0.22288(9) 0.9519(2) 0.77753(10)
C22_6 C 0.34540(10) 0.8468(2) 0.89421(11)
C23_6 C 0.28054(14) 0.8178(3) 0.81349(14)
H17_6 H 0.2662(13) 0.776(3) 0.7915(15)
C24_6 C 0.32078(13) 0.7858(3) 0.85171(14)
H18_6 H 0.3308(13) 0.729(3) 0.8500(14)
H20_6 H 0.0228(10) 0.923(2) 0.5747(11)
H6_6 H 0.9770 0.1720 0.6320
H19_4 H 0.9786(13) 0.958(3) 0.5776(15)
O10_5 O 0.46779(7) 0.73779(14) 0.03471(7)
H9_5 H 0.4966 0.7591 0.0453
H10_5 H 0.4490 0.7843 0.0220
Zn1_7 Zn 0.23709(2) 0.62057(2) 0.64803(2)
C1_7 C 0.30577(11) 0.3994(2) 0.76701(12)
H1_7 H 0.3001(11) 0.341(2) 0.7740(13)
O1_7 O 0.42013(6) 0.55438(12) 0.87000(7)
O2_7 O 0.41323(6) 0.47452(13) 0.59108(7)
C2_7 C 0.34624(10) 0.4412(2) 0.79988(11)
H2_7 H 0.3661(10) 0.407(2) 0.8319(12)
O4_7 O 0.06994(6) 0.83646(13) 0.58247(7)
N1_7 N 0.27387(7) 0.58443(15) 0.57356(8)
O5_7 O 0.42275(6) 0.64379(14) 0.78830(7)
C3_7 C 0.33991(8) 0.52285(18) 0.53058(10)
N2_7 N 0.28752(7) 0.54400(15) 0.71195(8)
C4_7 C 0.25049(8) 0.60881(17) 0.51858(10)
O6_7 O 0.09840(9) 0.36115(16) 0.51634(10)
N3_7 N 0.18880(7) 0.66910(15) 0.57111(8)
C5_7 C 0.20302(9) 0.65698(18) 0.51726(10)
C6_7 C 0.31568(9) 0.54724(19) 0.47341(11)
H3_7 H 0.3300(9) 0.5273(18) 0.4381(11)
O8_7 O 0.18559(7) 0.64412(15) 0.70573(9)
H4_7 H 0.1555 0.6265 0.6987
H5_7 H 0.1913 0.6729 0.7401
O9_7 O 0.49517(6) 0.69721(14) 0.87417(7)
H6_7 H 0.5230 0.6720 0.8680
H7_7 H 0.4739 0.6897 0.8409
C7_7 C 0.13282(9) 0.73952(19) 0.46807(11)
H8_7 H 0.1165(9) 0.7655(19) 0.4374(11)
C8_7 C 0.38929(8) 0.47722(18) 0.53901(10)
C9_7 C 0.07587(8) 0.81596(18) 0.53066(10)
N4_7 N 0.20955(7) 0.47231(16) 0.64278(9)
C10_7 C 0.11106(10) 0.3130(2) 0.56240(12)
C11_7 C 0.17139(10) 0.4393(2) 0.60540(12)
H11_7 H 0.1591(11) 0.476(2) 0.5833(12)
C12_7 C 0.11946(8) 0.75626(17) 0.52342(10)
C13_7 C 0.31750(9) 0.54348(19) 0.57857(11)
H12_7 H 0.3320(9) 0.5259(18) 0.6169(11)
C14_7 C 0.32771(9) 0.58257(19) 0.74257(10)
H13_7 H 0.3344(9) 0.6470(19) 0.7318(11)
C15_7 C 0.14824(9) 0.71847(18) 0.57341(11)
H14_7 H 0.1379(9) 0.7303(18) 0.6078(11)
C16_7 C 0.27102(9) 0.59158(19) 0.46772(11)
H15_7 H 0.2539(10) 0.6126(18) 0.4284(11)
C17_7 C 0.40432(9) 0.58117(18) 0.81743(10)
C18_7 C 0.23378(10) 0.4113(2) 0.68296(11)
C19_7 C 0.35876(9) 0.53394(18) 0.78640(10)
C20_7 C 0.17506(9) 0.69025(19) 0.46488(11)
H16_7 H 0.1860(9) 0.6867(19) 0.4304(11)
C21_7 C 0.27712(9) 0.4519(2) 0.72247(10)
Cl1_7 Cl 0.27547(2) 0.77115(5) 0.66580(3)
C22_7 C 0.15460(10) 0.3468(2) 0.60579(11)
C23_7 C 0.21946(14) 0.3178(3) 0.68651(14)
H17_7 H 0.2338(13) 0.276(3) 0.7085(15)
C24_7 C 0.17922(13) 0.2858(3) 0.64829(14)
H18_7 H 0.1692(13) 0.229(3) 0.6500(14)
H19_5 H 0.5214(13) 0.458(3) 0.9224(15)
H20_7 H 0.4772(10) 0.423(2) 0.9253(11)
C6_8 C 0.68432(9) 0.54724(19) 0.02659(11)
H3_8 H 0.6700(9) 0.5273(18) 0.0619(11)
C7_8 C 0.86718(9) 0.73952(19) 0.03193(11)
H8_8 H 0.8835(9) 0.7655(19) 0.0626(11)
C16_8 C 0.72898(9) 0.59158(19) 0.03228(11)
H15_8 H 0.7461(10) 0.6126(18) 0.0716(11)
C20_8 C 0.82494(9) 0.69025(19) 0.03512(11)
H16_8 H 0.8140(9) 0.6867(19) 0.0696(11)
Zn1_8 Zn 0.76291(2) 0.62057(2) 0.85197(2)
C1_8 C 0.69423(11) 0.3994(2) 0.73299(12)
H1_8 H 0.6999(11) 0.341(2) 0.7260(13)
O1_8 O 0.57987(6) 0.55438(12) 0.63000(7)
O2_8 O 0.58677(6) 0.47452(13) 0.90892(7)
C2_8 C 0.65376(10) 0.4412(2) 0.70012(11)
H2_8 H 0.6339(10) 0.407(2) 0.6681(12)
O4_8 O 0.93006(6) 0.83646(13) 0.91753(7)
N1_8 N 0.72613(7) 0.58443(15) 0.92644(8)
O5_8 O 0.57725(6) 0.64379(14) 0.71170(7)
C3_8 C 0.66009(8) 0.52285(18) 0.96942(10)
N2_8 N 0.71248(7) 0.54400(15) 0.78805(8)
C4_8 C 0.74951(8) 0.60881(17) 0.98142(10)
O6_8 O 0.90160(9) 0.36115(16) 0.98366(10)
N3_8 N 0.81120(7) 0.66910(15) 0.92889(8)
C5_8 C 0.79698(9) 0.65698(18) 0.98274(10)
O8_8 O 0.81441(7) 0.64412(15) 0.79427(9)
H4_8 H 0.8445 0.6265 0.8013
H5_8 H 0.8087 0.6729 0.7599
O9_8 O 0.50483(6) 0.69721(14) 0.62583(7)
H6_8 H 0.4770 0.6720 0.6320
H7_8 H 0.5261 0.6897 0.6591
C8_8 C 0.61071(8) 0.47722(18) 0.96099(10)
C9_8 C 0.92413(8) 0.81596(18) 0.96934(10)
O10_6 O 0.53221(7) 0.73779(14) 0.46529(7)
H9_6 H 0.5034 0.7591 0.4547
H10_6 H 0.5510 0.7843 0.4780
N4_8 N 0.79045(7) 0.47231(16) 0.85722(9)
C10_8 C 0.88894(10) 0.3130(2) 0.93760(12)
C11_8 C 0.82861(10) 0.4393(2) 0.89460(12)
H11_8 H 0.8409(11) 0.476(2) 0.9167(12)
C12_8 C 0.88054(8) 0.75626(17) 0.97658(10)
C13_8 C 0.68250(9) 0.54348(19) 0.92143(11)
H12_8 H 0.6680(9) 0.5259(18) 0.8831(11)
C14_8 C 0.67229(9) 0.58257(19) 0.75743(10)
H13_8 H 0.6656(9) 0.6470(19) 0.7682(11)
C15_8 C 0.85176(9) 0.71847(18) 0.92659(11)
H14_8 H 0.8621(9) 0.7303(18) 0.8922(11)
C17_8 C 0.59568(9) 0.58117(18) 0.68257(10)
C18_8 C 0.76622(10) 0.4113(2) 0.81704(11)
C19_8 C 0.64124(9) 0.53394(18) 0.71360(10)
C21_8 C 0.72288(9) 0.4519(2) 0.77753(10)
Cl1_8 Cl 0.72453(2) 0.77115(5) 0.83420(3)
C22_8 C 0.84540(10) 0.3468(2) 0.89421(11)
C23_8 C 0.78054(14) 0.3178(3) 0.81349(14)
H17_8 H 0.7662(13) 0.276(3) 0.7915(15)
C24_8 C 0.82078(13) 0.2858(3) 0.85171(14)
H18_8 H 0.8308(13) 0.229(3) 0.8500(14)
H19_6 H 0.4786(13) 0.458(3) 0.5776(15)
H20_8 H 0.5228(10) 0.423(2) 0.5747(11)
O10_7 O 0.03221(7) 0.76221(14) 0.96529(7)
H9_7 H 0.0034 0.7409 0.9547
H10_7 H 0.0510 0.7157 0.9780
O13_4 O 0.00021(6) 0.96284(13) 0.94310(7)
H19_7 H 0.0214(13) 0.958(3) 0.9224(15)
O3_4 O 0.99979(6) 0.03716(13) 0.05690(7)
H19_8 H 0.9786(13) 0.042(3) 0.0776(15)
O10_8 O 0.96779(7) 0.23779(14) 0.03471(7)
H9_8 H 0.9966 0.2591 0.0453
H10_8 H 0.9490 0.2843 0.0220
loop_
_geom_bond_atom_site_label_1
_geom_bond_atom_site_label_2
_geom_bond_site_symmetry_1
_geom_bond_site_symmetry_2
C1 H1 1_555 1_555
O2 C8 1_555 1_555
C2 C1 1_555 1_555
H2 C2 1_555 1_555
O6 C10 1_555 1_555
O11 C10 1_555 1_555
O12 C8 1_555 1_555
C10 C22 1_555 1_555
C11 N4 1_555 1_555
H11 C11 1_555 1_555
C18 N4 1_555 1_555
C21 C1 1_555 1_555
C22 C11 1_555 1_555
C23 C18 1_555 1_555
H17 C23 1_555 1_555
C24 C22 1_555 1_555
H18 C24 1_555 1_555
Tb2 O11 1_555 1_555
Tb4 O12 1_555 1_555
C18 C21 1_555 1_555
C23 C24 1_555 1_555
Tb1 O1 1_555 1_555
Zn1 N1 1_555 1_555
O1 C17 1_555 1_555
O4 C9 1_555 1_555
N1 C4 1_555 1_555
O5 C17 1_555 1_555
C3 C6 1_555 1_555
N2 Zn1 1_555 1_555
C4 C5 1_555 1_555
O7 C9 1_555 1_555
N3 Zn1 1_555 1_555
C5 N3 1_555 1_555
C6 H3 1_555 1_555
O8 Zn1 1_555 1_555
H4 O8 1_555 1_555
H5 O8 1_555 1_555
O9 Tb1 1_555 1_555
H7 O9 1_555 1_555
C7 H8 1_555 1_555
C9 C12 1_555 1_555
C12 C7 1_555 1_555
C13 N1 1_555 1_555
H12 C13 1_555 1_555
C14 N2 1_555 1_555
H13 C14 1_555 1_555
C15 N3 1_555 1_555
H14 C15 1_555 1_555
C16 C4 1_555 1_555
H15 C16 1_555 1_555
C17 C19 1_555 1_555
C20 C5 1_555 1_555
H16 C20 1_555 1_555
Cl1 Zn1 1_555 1_555
Tb5 O7 1_555 1_555
O15 Tb1 1_555 1_555
O16 Tb1 1_555 1_555
C3 C13 1_555 1_555
C6 C16 1_555 1_555
C7 C20 1_555 1_555
C12 C15 1_555 1_555
C14 C19 1_555 1_555
H19 O3 1_555 1_555
Tb4 O3 1_555 1_555
C1_2 H1_2 1_555 1_555
O2_2 C8_2 1_555 1_555
C2_2 C1_2 1_555 1_555
H2_2 C2_2 1_555 1_555
O6_2 C10_2 1_555 1_555
O11_2 C10_2 1_555 1_555
C10_2 C22_2 1_555 1_555
C11_2 N4_2 1_555 1_555
H11_2 C11_2 1_555 1_555
C18_2 N4_2 1_555 1_555
C21_2 C1_2 1_555 1_555
C22_2 C11_2 1_555 1_555
C23_2 C18_2 1_555 1_555
H17_2 C23_2 1_555 1_555
C24_2 C22_2 1_555 1_555
H18_2 C24_2 1_555 1_555
Tb2_2 O11_2 1_555 1_555
C18_2 C21_2 1_555 1_555
C23_2 C24_2 1_555 1_555
Tb3 O12_2 1_555 1_555
Tb1_2 O1_2 1_555 1_555
Zn1_2 N1_2 1_555 1_555
O1_2 C17_2 1_555 1_555
O4_2 C9_2 1_555 1_555
N1_2 C4_2 1_555 1_555
O5_2 C17_2 1_555 1_555
N2_2 Zn1_2 1_555 1_555
C4_2 C5_2 1_555 1_555
N3_2 Zn1_2 1_555 1_555
C5_2 N3_2 1_555 1_555
O8_2 Zn1_2 1_555 1_555
H4_2 O8_2 1_555 1_555
H5_2 O8_2 1_555 1_555
O9_2 Tb1_2 1_555 1_555
H7_2 O9_2 1_555 1_555
C9_2 C12_2 1_555 1_555
O10 Tb1_2 1_555 1_555
H9 O10 1_555 1_555
H10 O10 1_555 1_555
C13_2 N1_2 1_555 1_555
H12_2 C13_2 1_555 1_555
C14_2 N2_2 1_555 1_555
H13_2 C14_2 1_555 1_555
C15_2 N3_2 1_555 1_555
H14_2 C15_2 1_555 1_555
C17_2 C19_2 1_555 1_555
Cl1_2 Zn1_2 1_555 1_555
O13 Tb1_2 1_555 1_555
O15_2 Tb1_2 1_555 1_555
O16_2 Tb1_2 1_555 1_555
C3_2 C13_2 1_555 1_555
C12_2 C15_2 1_555 1_555
C14_2 C19_2 1_555 1_555
C6_2 H3_2 1_555 1_555
C7_2 H8_2 1_555 1_555
H15_2 C16_2 1_555 1_555
H16_2 C20_2 1_555 1_555
Tb5_2 O7_2 1_555 1_555
C6_2 C16_2 1_555 1_555
C7_2 C20_2 1_555 1_555
Tb2_2 O1_3 1_555 1_555
Zn1_3 N1_3 1_555 1_555
C1_3 H1_3 1_555 1_555
O1_3 C17_3 1_555 1_555
O2_3 C8_3 1_555 1_555
O3_2 Tb2_2 1_555 1_555
C2_3 C1_3 1_555 1_555
H2_3 C2_3 1_555 1_555
O4_3 C9_3 1_555 1_555
N1_3 C4_3 1_555 1_555
O5_3 C17_3 1_555 1_555
C3_3 C6_3 1_555 1_555
N2_3 Zn1_3 1_555 1_555
C4_3 C5_3 1_555 1_555
O6_3 C10_3 1_555 1_555
O7_3 C9_3 1_555 1_555
N3_3 Zn1_3 1_555 1_555
C5_3 N3_3 1_555 1_555
C6_3 H3_3 1_555 1_555
O8_3 Zn1_3 1_555 1_555
H4_3 O8_3 1_555 1_555
H5_3 O8_3 1_555 1_555
O9_3 Tb2_2 1_555 1_555
H6_3 O9_3 1_555 1_555
H7_3 O9_3 1_555 1_555
C7_3 H8_3 1_555 1_555
C8_3 C3_3 1_555 1_555
C9_3 C12_3 1_555 1_555
N4_3 Zn1_3 1_555 1_555
O15_2 C10_3 1_555 1_555
O12_3 C8_3 1_555 1_555
C10_3 C22_3 1_555 1_555
C11_3 N4_3 1_555 1_555
H11_3 C11_3 1_555 1_555
C12_3 C7_3 1_555 1_555
C13_3 N1_3 1_555 1_555
H12_3 C13_3 1_555 1_555
C14_3 N2_3 1_555 1_555
H13_3 C14_3 1_555 1_555
C15_3 N3_3 1_555 1_555
H14_3 C15_3 1_555 1_555
C16_3 C4_3 1_555 1_555
H15_3 C16_3 1_555 1_555
C17_3 C19_3 1_555 1_555
C18_3 N4_3 1_555 1_555
C19_3 C2_3 1_555 1_555
C20_3 C5_3 1_555 1_555
H16_3 C20_3 1_555 1_555
C21_3 C1_3 1_555 1_555
Cl1_3 Zn1_3 1_555 1_555
C22_3 C11_3 1_555 1_555
C23_3 C18_3 1_555 1_555
H17_3 C23_3 1_555 1_555
C24_3 C22_3 1_555 1_555
H18_3 C24_3 1_555 1_555
H19_2 O3_2 1_555 1_555
H20_3 O3_2 1_555 1_555
Tb5 O12_3 1_555 1_555
O14_3 Tb2_2 1_555 1_555
O16_3 Tb2_2 1_555 1_555
C3_3 C13_3 1_555 1_555
N2_3 C21_3 1_555 1_555
C6_3 C16_3 1_555 1_555
C7_3 C20_3 1_555 1_555
C12_3 C15_3 1_555 1_555
C14_3 C19_3 1_555 1_555
C18_3 C21_3 1_555 1_555
C23_3 C24_3 1_555 1_555
H9_2 O10_2 1_555 1_555
H10_2 O10_2 1_555 1_555
Tb5_2 O13_2 1_555 1_555
Tb2 O1_4 1_555 1_555
Zn1_4 N1_4 1_555 1_555
C1_4 H1_4 1_555 1_555
O1_4 C17_4 1_555 1_555
O2_4 C8_4 1_555 1_555
O3_3 Tb2 1_555 1_555
C2_4 C1_4 1_555 1_555
H2_4 C2_4 1_555 1_555
O4_4 C9_4 1_555 1_555
N1_4 C4_4 1_555 1_555
O5_4 C17_4 1_555 1_555
N2_4 Zn1_4 1_555 1_555
C4_4 C5_4 1_555 1_555
O6_4 C10_4 1_555 1_555
N3_4 Zn1_4 1_555 1_555
C5_4 N3_4 1_555 1_555
O8_4 Zn1_4 1_555 1_555
H4_4 O8_4 1_555 1_555
H5_4 O8_4 1_555 1_555
O9_4 Tb2 1_555 1_555
H6_4 O9_4 1_555 1_555
H7_4 O9_4 1_555 1_555
C8_4 C3_4 1_555 1_555
C9_4 C12_4 1_555 1_555
O10_3 Tb2 1_555 1_555
H9_3 O10_3 1_555 1_555
H10_3 O10_3 1_555 1_555
N4_4 Zn1_4 1_555 1_555
O15 C10_4 1_555 1_555
C10_4 C22_4 1_555 1_555
C11_4 N4_4 1_555 1_555
H11_4 C11_4 1_555 1_555
C13_4 N1_4 1_555 1_555
H12_4 C13_4 1_555 1_555
C14_4 N2_4 1_555 1_555
H13_4 C14_4 1_555 1_555
C15_4 N3_4 1_555 1_555
H14_4 C15_4 1_555 1_555
C17_4 C19_4 1_555 1_555
C18_4 N4_4 1_555 1_555
C19_4 C2_4 1_555 1_555
C21_4 C1_4 1_555 1_555
Cl1_4 Zn1_4 1_555 1_555
C22_4 C11_4 1_555 1_555
C23_4 C18_4 1_555 1_555
H17_4 C23_4 1_555 1_555
C24_4 C22_4 1_555 1_555
H18_4 C24_4 1_555 1_555
H19_3 O3_3 1_555 1_555
H20_4 O3_3 1_555 1_555
Tb5 O3_3 1_555 1_555
O13_3 Tb2 1_555 1_555
O14_4 Tb2 1_555 1_555
O16_4 Tb2 1_555 1_555
C3_4 C13_4 1_555 1_555
N2_4 C21_4 1_555 1_555
C12_4 C15_4 1_555 1_555
C14_4 C19_4 1_555 1_555
C18_4 C21_4 1_555 1_555
C23_4 C24_4 1_555 1_555
Tb5 O13_3 1_555 1_555
C6_4 H3_4 1_555 1_555
C7_4 H8_4 1_555 1_555
H15_4 C16_4 1_555 1_555
H16_4 C20_4 1_555 1_555
Tb5_2 O12_4 1_555 1_555
C6_4 C16_4 1_555 1_555
C7_4 C20_4 1_555 1_555
Tb3 O1_5 1_555 1_555
Zn1_5 N1_5 1_555 1_555
O1_5 C17_5 1_555 1_555
O4_5 C9_5 1_555 1_555
N1_5 C4_5 1_555 1_555
O5_5 C17_5 1_555 1_555
C3_5 C6_5 1_555 1_555
N2_5 Zn1_5 1_555 1_555
C4_5 C5_5 1_555 1_555
O14_4 C9_5 1_555 1_555
N3_5 Zn1_5 1_555 1_555
C5_5 N3_5 1_555 1_555
C6_5 H3_5 1_555 1_555
O8_5 Zn1_5 1_555 1_555
H4_5 O8_5 1_555 1_555
H5_5 O8_5 1_555 1_555
O9_5 Tb3 1_555 1_555
H7_5 O9_5 1_555 1_555
C7_5 H8_5 1_555 1_555
C9_5 C12_5 1_555 1_555
C12_5 C7_5 1_555 1_555
C13_5 N1_5 1_555 1_555
H12_5 C13_5 1_555 1_555
C14_5 N2_5 1_555 1_555
H13_5 C14_5 1_555 1_555
C15_5 N3_5 1_555 1_555
H14_5 C15_5 1_555 1_555
C16_5 C4_5 1_555 1_555
H15_5 C16_5 1_555 1_555
C17_5 C19_5 1_555 1_555
C20_5 C5_5 1_555 1_555
H16_5 C20_5 1_555 1_555
Cl1_5 Zn1_5 1_555 1_555
O15_3 Tb3 1_555 1_555
C3_5 C13_5 1_555 1_555
C6_5 C16_5 1_555 1_555
C7_5 C20_5 1_555 1_555
C12_5 C15_5 1_555 1_555
C14_5 C19_5 1_555 1_555
C1_5 H1_5 1_555 1_555
O2_5 C8_5 1_555 1_555
C2_5 C1_5 1_555 1_555
H2_5 C2_5 1_555 1_555
O6_5 C10_5 1_555 1_555
O11_3 C10_5 1_555 1_555
O16_2 C8_5 1_555 1_555
C10_5 C22_5 1_555 1_555
C11_5 N4_5 1_555 1_555
H11_5 C11_5 1_555 1_555
C18_5 N4_5 1_555 1_555
C21_5 C1_5 1_555 1_555
C22_5 C11_5 1_555 1_555
C23_5 C18_5 1_555 1_555
H17_5 C23_5 1_555 1_555
C24_5 C22_5 1_555 1_555
H18_5 C24_5 1_555 1_555
Tb5 O11_3 1_555 1_555
C18_5 C21_5 1_555 1_555
C23_5 C24_5 1_555 1_555
C6_6 H3_6 1_555 1_555
C7_6 H8_6 1_555 1_555
H15_6 C16_6 1_555 1_555
H16_6 C20_6 1_555 1_555
C6_6 C16_6 1_555 1_555
C7_6 C20_6 1_555 1_555
Tb4 O1_6 1_555 1_555
Zn1_6 N1_6 1_555 1_555
O1_6 C17_6 1_555 1_555
O4_6 C9_6 1_555 1_555
N1_6 C4_6 1_555 1_555
O5_6 C17_6 1_555 1_555
N2_6 Zn1_6 1_555 1_555
C4_6 C5_6 1_555 1_555
N3_6 Zn1_6 1_555 1_555
C5_6 N3_6 1_555 1_555
O8_6 Zn1_6 1_555 1_555
H4_6 O8_6 1_555 1_555
H5_6 O8_6 1_555 1_555
O9_6 Tb4 1_555 1_555
H7_6 O9_6 1_555 1_555
C9_6 C12_6 1_555 1_555
O10_4 Tb4 1_555 1_555
H9_4 O10_4 1_555 1_555
H10_4 O10_4 1_555 1_555
C13_6 N1_6 1_555 1_555
H12_6 C13_6 1_555 1_555
C14_6 N2_6 1_555 1_555
H13_6 C14_6 1_555 1_555
C15_6 N3_6 1_555 1_555
H14_6 C15_6 1_555 1_555
C17_6 C19_6 1_555 1_555
Cl1_6 Zn1_6 1_555 1_555
O15_4 Tb4 1_555 1_555
C3_6 C13_6 1_555 1_555
C12_6 C15_6 1_555 1_555
C14_6 C19_6 1_555 1_555
C1_6 H1_6 1_555 1_555
O2_6 C8_6 1_555 1_555
C2_6 C1_6 1_555 1_555
H2_6 C2_6 1_555 1_555
O6_6 C10_6 1_555 1_555
O11_4 C10_6 1_555 1_555
C10_6 C22_6 1_555 1_555
C11_6 N4_6 1_555 1_555
H11_6 C11_6 1_555 1_555
C18_6 N4_6 1_555 1_555
C21_6 C1_6 1_555 1_555
C22_6 C11_6 1_555 1_555
C23_6 C18_6 1_555 1_555
H17_6 C23_6 1_555 1_555
C24_6 C22_6 1_555 1_555
H18_6 C24_6 1_555 1_555
Tb5_2 O11_4 1_555 1_555
C18_6 C21_6 1_555 1_555
C23_6 C24_6 1_555 1_555
H19_4 O13 1_555 1_555
H9_5 O10_5 1_555 1_555
H10_5 O10_5 1_555 1_555
Tb5_2 O1_7 1_555 1_555
Zn1_7 N1_7 1_555 1_555
C1_7 H1_7 1_555 1_555
O1_7 C17_7 1_555 1_555
O2_7 C8_7 1_555 1_555
C2_7 C1_7 1_555 1_555
H2_7 C2_7 1_555 1_555
O4_7 C9_7 1_555 1_555
N1_7 C4_7 1_555 1_555
O5_7 C17_7 1_555 1_555
C3_7 C6_7 1_555 1_555
N2_7 Zn1_7 1_555 1_555
C4_7 C5_7 1_555 1_555
O6_7 C10_7 1_555 1_555
O14_2 C9_7 1_555 1_555
N3_7 Zn1_7 1_555 1_555
C5_7 N3_7 1_555 1_555
C6_7 H3_7 1_555 1_555
O8_7 Zn1_7 1_555 1_555
H4_7 O8_7 1_555 1_555
H5_7 O8_7 1_555 1_555
O9_7 Tb5_2 1_555 1_555
H6_7 O9_7 1_555 1_555
H7_7 O9_7 1_555 1_555
C7_7 H8_7 1_555 1_555
C8_7 C3_7 1_555 1_555
C9_7 C12_7 1_555 1_555
N4_7 Zn1_7 1_555 1_555
O15_4 C10_7 1_555 1_555
O16_4 C8_7 1_555 1_555
C10_7 C22_7 1_555 1_555
C11_7 N4_7 1_555 1_555
H11_7 C11_7 1_555 1_555
C12_7 C7_7 1_555 1_555
C13_7 N1_7 1_555 1_555
H12_7 C13_7 1_555 1_555
C14_7 N2_7 1_555 1_555
H13_7 C14_7 1_555 1_555
C15_7 N3_7 1_555 1_555
H14_7 C15_7 1_555 1_555
C16_7 C4_7 1_555 1_555
H15_7 C16_7 1_555 1_555
C17_7 C19_7 1_555 1_555
C18_7 N4_7 1_555 1_555
C19_7 C2_7 1_555 1_555
C20_7 C5_7 1_555 1_555
H16_7 C20_7 1_555 1_555
C21_7 C1_7 1_555 1_555
Cl1_7 Zn1_7 1_555 1_555
C22_7 C11_7 1_555 1_555
C23_7 C18_7 1_555 1_555
H17_7 C23_7 1_555 1_555
C24_7 C22_7 1_555 1_555
H18_7 C24_7 1_555 1_555
H19_5 O13_2 1_555 1_555
H20_7 O13_2 1_555 1_555
C3_7 C13_7 1_555 1_555
N2_7 C21_7 1_555 1_555
C6_7 C16_7 1_555 1_555
C7_7 C20_7 1_555 1_555
C12_7 C15_7 1_555 1_555
C14_7 C19_7 1_555 1_555
C18_7 C21_7 1_555 1_555
C23_7 C24_7 1_555 1_555
C6_8 H3_8 1_555 1_555
C7_8 H8_8 1_555 1_555
H15_8 C16_8 1_555 1_555
H16_8 C20_8 1_555 1_555
C6_8 C16_8 1_555 1_555
C7_8 C20_8 1_555 1_555
Tb5 O1_8 1_555 1_555
Zn1_8 N1_8 1_555 1_555
C1_8 H1_8 1_555 1_555
O1_8 C17_8 1_555 1_555
O2_8 C8_8 1_555 1_555
C2_8 C1_8 1_555 1_555
H2_8 C2_8 1_555 1_555
O4_8 C9_8 1_555 1_555
N1_8 C4_8 1_555 1_555
O5_8 C17_8 1_555 1_555
N2_8 Zn1_8 1_555 1_555
C4_8 C5_8 1_555 1_555
O6_8 C10_8 1_555 1_555
N3_8 Zn1_8 1_555 1_555
C5_8 N3_8 1_555 1_555
O8_8 Zn1_8 1_555 1_555
H4_8 O8_8 1_555 1_555
H5_8 O8_8 1_555 1_555
O9_8 Tb5 1_555 1_555
H6_8 O9_8 1_555 1_555
H7_8 O9_8 1_555 1_555
C8_8 C3_8 1_555 1_555
C9_8 C12_8 1_555 1_555
O10_6 Tb5 1_555 1_555
H9_6 O10_6 1_555 1_555
H10_6 O10_6 1_555 1_555
N4_8 Zn1_8 1_555 1_555
O15_3 C10_8 1_555 1_555
C10_8 C22_8 1_555 1_555
C11_8 N4_8 1_555 1_555
H11_8 C11_8 1_555 1_555
C13_8 N1_8 1_555 1_555
H12_8 C13_8 1_555 1_555
C14_8 N2_8 1_555 1_555
H13_8 C14_8 1_555 1_555
C15_8 N3_8 1_555 1_555
H14_8 C15_8 1_555 1_555
C17_8 C19_8 1_555 1_555
C18_8 N4_8 1_555 1_555
C19_8 C2_8 1_555 1_555
C21_8 C1_8 1_555 1_555
Cl1_8 Zn1_8 1_555 1_555
C22_8 C11_8 1_555 1_555
C23_8 C18_8 1_555 1_555
H17_8 C23_8 1_555 1_555
C24_8 C22_8 1_555 1_555
H18_8 C24_8 1_555 1_555
H19_6 O13_3 1_555 1_555
H20_8 O13_3 1_555 1_555
C3_8 C13_8 1_555 1_555
N2_8 C21_8 1_555 1_555
C12_8 C15_8 1_555 1_555
C14_8 C19_8 1_555 1_555
C18_8 C21_8 1_555 1_555
C23_8 C24_8 1_555 1_555
H9_7 O10_7 1_555 1_555
H10_7 O10_7 1_555 1_555
H19_7 O13_4 1_555 1_555
H19_8 O3_4 1_555 1_555
H9_8 O10_8 1_555 1_555
H10_8 O10_8 1_555 1_555

#END
