
###############################################################################
#
# This file contains modified crystal structure data generated from the
# MOF subset of the Cambridge Structural Database (CSD) v543 
# hosted by the Cambridge Crystallographic Data Centre (CCDC).
#
# This work is licensed under the Creative Commons
# Attribution-NonCommercial-ShareAlike 4.0 International License.
# To view a copy of this license, visit
# http://creativecommons.org/licenses/by-nc-sa/4.0/
# or send a letter to
# Creative Commons, PO Box 1866, Mountain View, CA 94042, USA.
#
# CIF created using the CSD Python API on 29 September 2022
# The structure has been converted into the P1 space group
# The structure has a 3D framework
# The original CSD entry MATPUV is in the monoclinic crystal system
# The framework has been calculated to contain at least 10.0% void space
# The void calculation uses a probe of radius 1.32A, grid spacing 0.4
#
###############################################################################

data_MATPUV
_chemical_formula_moiety         '(C192 H154 Cl8 Co8 N32 O90 Tb8)n'
_symmetry_cell_setting           triclinic
_symmetry_space_group_name_H-M   'P 1'
_symmetry_Int_Tables_number      1
_space_group_name_Hall           'P 1'
loop_
_symmetry_equiv_pos_site_id
_symmetry_equiv_pos_as_xyz
1 x,y,z
_cell_length_a                   28.0996(4)
_cell_length_b                   13.8122(3)
_cell_length_c                   22.4619(4)
_cell_angle_alpha                90
_cell_angle_beta                 99.3566(15)
_cell_angle_gamma                90
_cell_volume                     8601.87
loop_
_atom_site_label
_atom_site_type_symbol
_atom_site_fract_x
_atom_site_fract_y
_atom_site_fract_z
Tb1 Tb 0.03320(2) 0.37557(2) 0.04244(2)
O5 O 0.00587(8) 0.29582(19) 0.12508(10)
H2 H 0.0262 0.3050 0.1600
O6 O 0.09723(7) 0.44720(18) 0.00713(10)
O8 O 0.45170(7) 0.83926(18) 0.01642(10)
C5 C 0.18453(11) 0.5477(3) 0.02625(15)
H8 H 0.1708 0.5341 0.0603
C6 C 0.36836(10) 0.7373(2) 0.03093(14)
H9 H 0.3882 0.7583 0.0658
C9 C 0.32556(11) 0.6883(3) 0.03460(14)
H11 H 0.3161 0.6770 0.0718
C15 C 0.22945(11) 0.5915(3) 0.03204(15)
H14 H 0.2458 0.6090 0.0699
H19 H 0.0199(10) 0.575(2) 0.0728(16)
Tb2 Tb 0.53320(2) 0.87557(2) 0.04244(2)
O14 O 0.07814(8) 0.44520(17) 0.13037(10)
O16 O 0.09350(8) 0.26399(19) 0.07578(10)
Co1 Co 0.26261(2) 0.61682(3) 0.85187(2)
Cl1 Cl 0.22567(3) 0.77213(7) 0.83415(4)
O2 O 0.08685(7) 0.47749(18) 0.90799(10)
N1 N 0.22626(8) 0.5857(2) 0.92525(12)
O3 O 0.07814(8) 0.55480(17) 0.63037(10)
O4 O 0.07807(8) 0.64898(18) 0.71114(10)
O7 O 0.31156(9) 0.6379(2) 0.78943(12)
H3 H 0.3294 0.5870 0.7885
H4 H 0.3302 0.6869 0.8002
N2 N 0.21221(9) 0.5438(2) 0.78704(11)
O9 O 0.03337(8) 0.25952(18) 0.96380(11)
H5 H 0.0042 0.2416 0.9499
H6 H 0.0499 0.2095 0.9776
C1 C 0.18251(10) 0.5456(2) 0.92038(14)
H7 H 0.1662 0.5312 0.8820
C2 C 0.16020(10) 0.5243(3) 0.96897(14)
C3 C 0.29731(10) 0.6568(2) 0.98170(14)
O10 O 0.39844(10) 0.3605(2) 0.98555(14)
C4 C 0.24970(11) 0.6089(2) 0.98072(14)
O11 O 0.40650(8) 0.23601(19) 0.92422(10)
N3 N 0.31074(9) 0.6696(2) 0.92712(12)
C7 C 0.42515(11) 0.8139(3) 0.96796(15)
C8 C 0.32555(11) 0.4371(3) 0.89634(16)
H10 H 0.3415 0.4795 0.9250
N4 N 0.28764(9) 0.4702(2) 0.85777(12)
C10 C 0.11056(10) 0.4796(3) 0.95990(15)
C11 C 0.38101(10) 0.7544(2) 0.97474(14)
C12 C 0.17212(10) 0.5846(3) 0.75629(14)
H12 H 0.1655 0.6489 0.7641
C13 C 0.35164(10) 0.7187(2) 0.92459(14)
H13 H 0.3605 0.7292 0.8870
C14 C 0.09515(11) 0.5841(3) 0.68230(14)
C16 C 0.38593(12) 0.3116(3) 0.93921(16)
C17 C 0.31679(15) 0.2797(3) 0.85440(18)
H15 H 0.3268 0.2158 0.8529
C18 C 0.26314(12) 0.4074(3) 0.81774(15)
C19 C 0.27690(14) 0.3109(3) 0.81572(18)
H16 H 0.2593 0.2682 0.7886
C20 C 0.34218(13) 0.3429(3) 0.89558(16)
O12 O 0.43153(8) 0.83366(18) 0.91577(10)
C21 C 0.14023(11) 0.5345(3) 0.71329(13)
C22 C 0.22074(11) 0.4493(3) 0.77754(14)
C23 C 0.15075(12) 0.4392(3) 0.70086(15)
H17 H 0.1313 0.4053 0.6704
C24 C 0.19096(13) 0.3949(3) 0.73481(16)
H18 H 0.1977 0.3300 0.7288
Tb4 Tb 0.03320(2) 0.62443(2) 0.54244(2)
Tb5 Tb 0.46680(2) 0.12443(2) 0.95756(2)
O13 O 0.00103(8) 0.46316(17) 0.94259(10)
O1 O 0.99897(8) 0.53684(17) 0.05741(10)
H1 H 0.9767 0.3176 0.1310
H20 H 0.9795(15) 0.542(4) 0.082(2)
O15 O 0.95170(7) 0.33926(18) 0.01642(10)
Tb3 Tb 0.96680(2) 0.62443(2) 0.95756(2)
O1_2 O 0.00103(8) 0.53684(17) 0.44259(10)
H1_2 H 0.0233 0.3176 0.3690
H20_2 H 0.0205(15) 0.542(4) 0.418(2)
O15_2 O 0.04830(7) 0.33926(18) 0.48358(10)
Tb1_2 Tb 0.96680(2) 0.37557(2) 0.45756(2)
Co1_2 Co 0.73739(2) 0.61682(3) 0.64813(2)
Cl1_2 Cl 0.77433(3) 0.77213(7) 0.66585(4)
O2_2 O 0.91315(7) 0.47749(18) 0.59201(10)
N1_2 N 0.77374(8) 0.5857(2) 0.57475(12)
O3_2 O 0.92186(8) 0.55480(17) 0.86963(10)
O4_2 O 0.92193(8) 0.64898(18) 0.78886(10)
O5_2 O 0.99413(8) 0.29582(19) 0.37492(10)
H2_2 H 0.9738 0.3050 0.3400
O6_2 O 0.90277(7) 0.44720(18) 0.49287(10)
O7_2 O 0.68844(9) 0.6379(2) 0.71057(12)
H3_2 H 0.6706 0.5870 0.7115
H4_2 H 0.6698 0.6869 0.6998
O8_2 O 0.54830(7) 0.83926(18) 0.48358(10)
N2_2 N 0.78779(9) 0.5438(2) 0.71296(11)
O9_2 O 0.96663(8) 0.25952(18) 0.53620(11)
H5_2 H 0.9958 0.2416 0.5501
H6_2 H 0.9501 0.2095 0.5224
C1_2 C 0.81749(10) 0.5456(2) 0.57962(14)
H7_2 H 0.8338 0.5312 0.6180
C2_2 C 0.83980(10) 0.5243(3) 0.53103(14)
C3_2 C 0.70269(10) 0.6568(2) 0.51830(14)
O10_2 O 0.60156(10) 0.3605(2) 0.51445(14)
C4_2 C 0.75030(11) 0.6089(2) 0.51928(14)
C5_2 C 0.81547(11) 0.5477(3) 0.47375(15)
H8_2 H 0.8292 0.5341 0.4397
O11_2 O 0.59350(8) 0.23601(19) 0.57578(10)
N3_2 N 0.68926(9) 0.6696(2) 0.57288(12)
C6_2 C 0.63164(10) 0.7373(2) 0.46907(14)
H9_2 H 0.6118 0.7583 0.4342
C7_2 C 0.57485(11) 0.8139(3) 0.53204(15)
C8_2 C 0.67445(11) 0.4371(3) 0.60366(16)
H10_2 H 0.6585 0.4795 0.5750
C9_2 C 0.67444(11) 0.6883(3) 0.46540(14)
H11_2 H 0.6839 0.6770 0.4282
N4_2 N 0.71236(9) 0.4702(2) 0.64223(12)
C10_2 C 0.88944(10) 0.4796(3) 0.54010(15)
C11_2 C 0.61899(10) 0.7544(2) 0.52526(14)
C12_2 C 0.82788(10) 0.5846(3) 0.74371(14)
H12_2 H 0.8345 0.6489 0.7359
C13_2 C 0.64836(10) 0.7187(2) 0.57541(14)
H13_2 H 0.6395 0.7292 0.6130
C14_2 C 0.90485(11) 0.5841(3) 0.81770(14)
C15_2 C 0.77055(11) 0.5915(3) 0.46796(15)
H14_2 H 0.7542 0.6090 0.4301
C16_2 C 0.61407(12) 0.3116(3) 0.56079(16)
C17_2 C 0.68321(15) 0.2797(3) 0.64560(18)
H15_2 H 0.6732 0.2158 0.6471
C18_2 C 0.73686(12) 0.4074(3) 0.68226(15)
C19_2 C 0.72310(14) 0.3109(3) 0.68428(18)
H16_2 H 0.7407 0.2682 0.7114
C20_2 C 0.65782(13) 0.3429(3) 0.60442(16)
O12_2 O 0.56847(8) 0.83366(18) 0.58423(10)
C21_2 C 0.85977(11) 0.5345(3) 0.78671(13)
C22_2 C 0.77926(11) 0.4493(3) 0.72246(14)
C23_2 C 0.84925(12) 0.4392(3) 0.79914(15)
H17_2 H 0.8687 0.4053 0.8296
C24_2 C 0.80904(13) 0.3949(3) 0.76519(16)
H18_2 H 0.8023 0.3300 0.7712
H19_2 H 0.9801(10) 0.575(2) 0.4272(16)
Tb2_2 Tb 0.46680(2) 0.87557(2) 0.45756(2)
Tb5_2 Tb 0.53320(2) 0.12443(2) 0.54244(2)
O13_2 O 0.99897(8) 0.46316(17) 0.55741(10)
O14_2 O 0.92186(8) 0.44520(17) 0.36963(10)
O16_2 O 0.90650(8) 0.26399(19) 0.42422(10)
O1_3 O 0.49897(8) 0.03684(17) 0.05741(10)
C5_3 C 0.68453(11) 0.0477(3) 0.02625(15)
H8_3 H 0.6708 0.0341 0.0603
C6_3 C 0.86836(10) 0.2373(2) 0.03093(14)
H9_3 H 0.8882 0.2583 0.0658
C9_3 C 0.82556(11) 0.1883(3) 0.03460(14)
H11_3 H 0.8161 0.1770 0.0718
C15_3 C 0.72945(11) 0.0915(3) 0.03204(15)
H14_3 H 0.7458 0.1090 0.0699
H19_3 H 0.5199(10) 0.075(2) 0.0728(16)
H20_3 H 0.4795(15) 0.042(4) 0.082(2)
Co1_3 Co 0.76261(2) 0.11682(3) 0.85187(2)
Cl1_3 Cl 0.72567(3) 0.27213(7) 0.83415(4)
N1_3 N 0.72626(8) 0.0857(2) 0.92525(12)
O3_3 O 0.57814(8) 0.05480(17) 0.63037(10)
O4_3 O 0.57807(8) 0.14898(18) 0.71114(10)
O7_3 O 0.81156(9) 0.1379(2) 0.78943(12)
H3_3 H 0.8294 0.0870 0.7885
H4_3 H 0.8302 0.1869 0.8002
N2_3 N 0.71221(9) 0.0438(2) 0.78704(11)
C1_3 C 0.68251(10) 0.0456(2) 0.92038(14)
H7_3 H 0.6662 0.0312 0.8820
C2_3 C 0.66020(10) 0.0243(3) 0.96897(14)
C3_3 C 0.79731(10) 0.1568(2) 0.98170(14)
C4_3 C 0.74970(11) 0.1089(2) 0.98072(14)
N3_3 N 0.81074(9) 0.1696(2) 0.92712(12)
C7_3 C 0.92515(11) 0.3139(3) 0.96796(15)
C11_3 C 0.88101(10) 0.2544(2) 0.97474(14)
C12_3 C 0.67212(10) 0.0846(3) 0.75629(14)
H12_3 H 0.6655 0.1489 0.7641
C13_3 C 0.85164(10) 0.2187(2) 0.92459(14)
H13_3 H 0.8605 0.2292 0.8870
C14_3 C 0.59515(11) 0.0841(3) 0.68230(14)
O12_3 O 0.93153(8) 0.33366(18) 0.91577(10)
C21_3 C 0.64023(11) 0.0345(3) 0.71329(13)
O5_3 O 0.50587(8) 0.79582(19) 0.12508(10)
H1_3 H 0.4767 0.8176 0.1310
H2_3 H 0.5262 0.8050 0.1600
O6_3 O 0.59723(7) 0.94720(18) 0.00713(10)
O14_3 O 0.57814(8) 0.94520(17) 0.13037(10)
O16_3 O 0.59350(8) 0.76399(19) 0.07578(10)
O2_3 O 0.58685(7) 0.97749(18) 0.90799(10)
O9_3 O 0.53337(8) 0.75952(18) 0.96380(11)
H5_3 H 0.5042 0.7416 0.9499
H6_3 H 0.5499 0.7095 0.9776
O10_3 O 0.89844(10) 0.8605(2) 0.98555(14)
O11_3 O 0.90650(8) 0.73601(19) 0.92422(10)
C8_3 C 0.82555(11) 0.9371(3) 0.89634(16)
H10_3 H 0.8415 0.9795 0.9250
N4_3 N 0.78764(9) 0.9702(2) 0.85777(12)
C10_3 C 0.61056(10) 0.9796(3) 0.95990(15)
C16_3 C 0.88593(12) 0.8116(3) 0.93921(16)
C17_3 C 0.81679(15) 0.7797(3) 0.85440(18)
H15_3 H 0.8268 0.7158 0.8529
C18_3 C 0.76314(12) 0.9074(3) 0.81774(15)
C19_3 C 0.77690(14) 0.8109(3) 0.81572(18)
H16_3 H 0.7593 0.7682 0.7886
C20_3 C 0.84218(13) 0.8429(3) 0.89558(16)
C22_3 C 0.72074(11) 0.9493(3) 0.77754(14)
C23_3 C 0.65075(12) 0.9392(3) 0.70086(15)
H17_3 H 0.6313 0.9053 0.6704
C24_3 C 0.69096(13) 0.8949(3) 0.73481(16)
H18_3 H 0.6977 0.8300 0.7288
O13_3 O 0.50103(8) 0.96316(17) 0.94259(10)
Co1_4 Co 0.23739(2) 0.11682(3) 0.64813(2)
Cl1_4 Cl 0.27433(3) 0.27213(7) 0.66585(4)
O1_4 O 0.50103(8) 0.03684(17) 0.44259(10)
N1_4 N 0.27374(8) 0.0857(2) 0.57475(12)
O3_4 O 0.42186(8) 0.05480(17) 0.86963(10)
O4_4 O 0.42193(8) 0.14898(18) 0.78886(10)
O7_4 O 0.18844(9) 0.1379(2) 0.71057(12)
H3_4 H 0.1706 0.0870 0.7115
H4_4 H 0.1698 0.1869 0.6998
N2_4 N 0.28779(9) 0.0438(2) 0.71296(11)
C1_4 C 0.31749(10) 0.0456(2) 0.57962(14)
H7_4 H 0.3338 0.0312 0.6180
C2_4 C 0.33980(10) 0.0243(3) 0.53103(14)
C3_4 C 0.20269(10) 0.1568(2) 0.51830(14)
C4_4 C 0.25030(11) 0.1089(2) 0.51928(14)
C5_4 C 0.31547(11) 0.0477(3) 0.47375(15)
H8_4 H 0.3292 0.0341 0.4397
N3_4 N 0.18926(9) 0.1696(2) 0.57288(12)
C6_4 C 0.13164(10) 0.2373(2) 0.46907(14)
H9_4 H 0.1118 0.2583 0.4342
C7_4 C 0.07485(11) 0.3139(3) 0.53204(15)
C9_4 C 0.17444(11) 0.1883(3) 0.46540(14)
H11_4 H 0.1839 0.1770 0.4282
C11_4 C 0.11899(10) 0.2544(2) 0.52526(14)
C12_4 C 0.32788(10) 0.0846(3) 0.74371(14)
H12_4 H 0.3345 0.1489 0.7359
C13_4 C 0.14836(10) 0.2187(2) 0.57541(14)
H13_4 H 0.1395 0.2292 0.6130
C14_4 C 0.40485(11) 0.0841(3) 0.81770(14)
C15_4 C 0.27055(11) 0.0915(3) 0.46796(15)
H14_4 H 0.2542 0.1090 0.4301
O12_4 O 0.06847(8) 0.33366(18) 0.58423(10)
C21_4 C 0.35977(11) 0.0345(3) 0.78671(13)
H19_4 H 0.4801(10) 0.075(2) 0.4272(16)
H20_4 H 0.5205(15) 0.042(4) 0.418(2)
O2_4 O 0.41315(7) 0.97749(18) 0.59201(10)
O5_4 O 0.49413(8) 0.79582(19) 0.37492(10)
H1_4 H 0.5233 0.8176 0.3690
H2_4 H 0.4738 0.8050 0.3400
O6_4 O 0.40277(7) 0.94720(18) 0.49287(10)
O9_4 O 0.46663(8) 0.75952(18) 0.53620(11)
H5_4 H 0.4958 0.7416 0.5501
H6_4 H 0.4501 0.7095 0.5224
O10_4 O 0.10156(10) 0.8605(2) 0.51445(14)
O11_4 O 0.09350(8) 0.73601(19) 0.57578(10)
C8_4 C 0.17445(11) 0.9371(3) 0.60366(16)
H10_4 H 0.1585 0.9795 0.5750
N4_4 N 0.21236(9) 0.9702(2) 0.64223(12)
C10_4 C 0.38944(10) 0.9796(3) 0.54010(15)
C16_4 C 0.11407(12) 0.8116(3) 0.56079(16)
C17_4 C 0.18321(15) 0.7797(3) 0.64560(18)
H15_4 H 0.1732 0.7158 0.6471
C18_4 C 0.23686(12) 0.9074(3) 0.68226(15)
C19_4 C 0.22310(14) 0.8109(3) 0.68428(18)
H16_4 H 0.2407 0.7682 0.7114
C20_4 C 0.15782(13) 0.8429(3) 0.60442(16)
C22_4 C 0.27926(11) 0.9493(3) 0.72246(14)
C23_4 C 0.34925(12) 0.9392(3) 0.79914(15)
H17_4 H 0.3687 0.9053 0.8296
C24_4 C 0.30904(13) 0.8949(3) 0.76519(16)
H18_4 H 0.3023 0.8300 0.7712
O13_4 O 0.49897(8) 0.96316(17) 0.55741(10)
O14_4 O 0.42186(8) 0.94520(17) 0.36963(10)
O16_4 O 0.40650(8) 0.76399(19) 0.42422(10)
H1_5 H 0.0233 0.6824 0.8690
H20_5 H 0.0205(15) 0.458(4) 0.918(2)
O15_3 O 0.04830(7) 0.66074(18) 0.98358(10)
Co1_5 Co 0.73739(2) 0.38318(3) 0.14813(2)
Cl1_5 Cl 0.77433(3) 0.22787(7) 0.16585(4)
O2_5 O 0.91315(7) 0.52251(18) 0.09201(10)
N1_5 N 0.77374(8) 0.4143(2) 0.07475(12)
O4_5 O 0.92193(8) 0.35102(18) 0.28886(10)
O7_5 O 0.68844(9) 0.3621(2) 0.21057(12)
H3_5 H 0.6706 0.4130 0.2115
H4_5 H 0.6698 0.3131 0.1998
N2_5 N 0.78779(9) 0.4562(2) 0.21296(11)
O9_5 O 0.96663(8) 0.74048(18) 0.03620(11)
H5_5 H 0.9958 0.7584 0.0501
H6_5 H 0.9501 0.7905 0.0224
C1_5 C 0.81749(10) 0.4544(2) 0.07962(14)
H7_5 H 0.8338 0.4688 0.1180
C2_5 C 0.83980(10) 0.4757(3) 0.03103(14)
C3_5 C 0.70269(10) 0.3432(2) 0.01830(14)
O10_5 O 0.60156(10) 0.6395(2) 0.01445(14)
C4_5 C 0.75030(11) 0.3911(2) 0.01928(14)
N3_5 N 0.68926(9) 0.3304(2) 0.07288(12)
C7_5 C 0.57485(11) 0.1861(3) 0.03204(15)
C8_5 C 0.67445(11) 0.5629(3) 0.10366(16)
H10_5 H 0.6585 0.5205 0.0750
N4_5 N 0.71236(9) 0.5298(2) 0.14223(12)
C10_5 C 0.88944(10) 0.5204(3) 0.04010(15)
C11_5 C 0.61899(10) 0.2456(2) 0.02526(14)
C12_5 C 0.82788(10) 0.4154(3) 0.24371(14)
H12_5 H 0.8345 0.3511 0.2359
C13_5 C 0.64836(10) 0.2813(2) 0.07541(14)
H13_5 H 0.6395 0.2708 0.1130
C14_5 C 0.90485(11) 0.4159(3) 0.31770(14)
C16_5 C 0.61407(12) 0.6884(3) 0.06079(16)
C17_5 C 0.68321(15) 0.7203(3) 0.14560(18)
H15_5 H 0.6732 0.7842 0.1471
C18_5 C 0.73686(12) 0.5926(3) 0.18226(15)
C19_5 C 0.72310(14) 0.6891(3) 0.18428(18)
H16_5 H 0.7407 0.7318 0.2114
C20_5 C 0.65782(13) 0.6571(3) 0.10442(16)
O12_5 O 0.56847(8) 0.16634(18) 0.08423(10)
C21_5 C 0.85977(11) 0.4655(3) 0.28671(13)
C22_5 C 0.77926(11) 0.5507(3) 0.22246(14)
C23_5 C 0.84925(12) 0.5608(3) 0.29914(15)
H17_5 H 0.8687 0.5947 0.3296
C24_5 C 0.80904(13) 0.6051(3) 0.26519(16)
H18_5 H 0.8023 0.6700 0.2712
O5_5 O 0.99413(8) 0.70418(19) 0.87492(10)
H2_5 H 0.9738 0.6950 0.8400
O6_5 O 0.90277(7) 0.55280(18) 0.99287(10)
O8_3 O 0.54830(7) 0.16074(18) 0.98358(10)
C5_5 C 0.81547(11) 0.4523(3) 0.97375(15)
H8_5 H 0.8292 0.4659 0.9397
C6_5 C 0.63164(10) 0.2627(2) 0.96907(14)
H9_5 H 0.6118 0.2417 0.9342
C9_5 C 0.67444(11) 0.3117(3) 0.96540(14)
H11_5 H 0.6839 0.3230 0.9282
C15_5 C 0.77055(11) 0.4085(3) 0.96796(15)
H14_5 H 0.7542 0.3910 0.9301
H19_5 H 0.9801(10) 0.425(2) 0.9272(16)
Co1_6 Co 0.26261(2) 0.38318(3) 0.35187(2)
Cl1_6 Cl 0.22567(3) 0.22787(7) 0.33415(4)
O2_6 O 0.08685(7) 0.52251(18) 0.40799(10)
N1_6 N 0.22626(8) 0.4143(2) 0.42525(12)
O4_6 O 0.07807(8) 0.35102(18) 0.21114(10)
O5_6 O 0.00587(8) 0.70418(19) 0.62508(10)
H2_6 H 0.0262 0.6950 0.6600
O6_6 O 0.09723(7) 0.55280(18) 0.50713(10)
O7_6 O 0.31156(9) 0.3621(2) 0.28943(12)
H3_6 H 0.3294 0.4130 0.2885
H4_6 H 0.3302 0.3131 0.3002
O8_4 O 0.45170(7) 0.16074(18) 0.51642(10)
N2_6 N 0.21221(9) 0.4562(2) 0.28704(11)
O9_6 O 0.03337(8) 0.74048(18) 0.46380(11)
H5_6 H 0.0042 0.7584 0.4499
H6_6 H 0.0499 0.7905 0.4776
C1_6 C 0.18251(10) 0.4544(2) 0.42038(14)
H7_6 H 0.1662 0.4688 0.3820
C2_6 C 0.16020(10) 0.4757(3) 0.46897(14)
C3_6 C 0.29731(10) 0.3432(2) 0.48170(14)
O10_6 O 0.39844(10) 0.6395(2) 0.48555(14)
C4_6 C 0.24970(11) 0.3911(2) 0.48072(14)
C5_6 C 0.18453(11) 0.4523(3) 0.52625(15)
H8_6 H 0.1708 0.4659 0.5603
N3_6 N 0.31074(9) 0.3304(2) 0.42712(12)
C6_6 C 0.36836(10) 0.2627(2) 0.53093(14)
H9_6 H 0.3882 0.2417 0.5658
C7_6 C 0.42515(11) 0.1861(3) 0.46796(15)
C8_6 C 0.32555(11) 0.5629(3) 0.39634(16)
H10_6 H 0.3415 0.5205 0.4250
C9_6 C 0.32556(11) 0.3117(3) 0.53460(14)
H11_6 H 0.3161 0.3230 0.5718
N4_6 N 0.28764(9) 0.5298(2) 0.35777(12)
C10_6 C 0.11056(10) 0.5204(3) 0.45990(15)
C11_6 C 0.38101(10) 0.2456(2) 0.47474(14)
C12_6 C 0.17212(10) 0.4154(3) 0.25629(14)
H12_6 H 0.1655 0.3511 0.2641
C13_6 C 0.35164(10) 0.2813(2) 0.42459(14)
H13_6 H 0.3605 0.2708 0.3870
C14_6 C 0.09515(11) 0.4159(3) 0.18230(14)
C15_6 C 0.22945(11) 0.4085(3) 0.53204(15)
H14_6 H 0.2458 0.3910 0.5699
C16_6 C 0.38593(12) 0.6884(3) 0.43921(16)
C17_6 C 0.31679(15) 0.7203(3) 0.35440(18)
H15_6 H 0.3268 0.7842 0.3529
C18_6 C 0.26314(12) 0.5926(3) 0.31774(15)
C19_6 C 0.27690(14) 0.6891(3) 0.31572(18)
H16_6 H 0.2593 0.7318 0.2886
C20_6 C 0.34218(13) 0.6571(3) 0.39558(16)
O12_6 O 0.43153(8) 0.16634(18) 0.41577(10)
C21_6 C 0.14023(11) 0.4655(3) 0.21329(13)
C22_6 C 0.22074(11) 0.5507(3) 0.27754(14)
C23_6 C 0.15075(12) 0.5608(3) 0.20086(15)
H17_6 H 0.1313 0.5947 0.1704
C24_6 C 0.19096(13) 0.6051(3) 0.23481(16)
H18_6 H 0.1977 0.6700 0.2288
H19_6 H 0.0199(10) 0.425(2) 0.5728(16)
H1_6 H 0.9767 0.6824 0.6310
H20_6 H 0.9795(15) 0.458(4) 0.582(2)
O15_4 O 0.95170(7) 0.66074(18) 0.51642(10)
O2_7 O 0.41315(7) 0.02251(18) 0.09201(10)
O9_7 O 0.46663(8) 0.24048(18) 0.03620(11)
H5_7 H 0.4958 0.2584 0.0501
H6_7 H 0.4501 0.2905 0.0224
O10_7 O 0.10156(10) 0.1395(2) 0.01445(14)
C8_7 C 0.17445(11) 0.0629(3) 0.10366(16)
H10_7 H 0.1585 0.0205 0.0750
N4_7 N 0.21236(9) 0.0298(2) 0.14223(12)
C10_7 C 0.38944(10) 0.0204(3) 0.04010(15)
C16_7 C 0.11407(12) 0.1884(3) 0.06079(16)
C17_7 C 0.18321(15) 0.2203(3) 0.14560(18)
H15_7 H 0.1732 0.2842 0.1471
C18_7 C 0.23686(12) 0.0926(3) 0.18226(15)
C19_7 C 0.22310(14) 0.1891(3) 0.18428(18)
H16_7 H 0.2407 0.2318 0.2114
C20_7 C 0.15782(13) 0.1571(3) 0.10442(16)
C22_7 C 0.27926(11) 0.0507(3) 0.22246(14)
C23_7 C 0.34925(12) 0.0608(3) 0.29914(15)
H17_7 H 0.3687 0.0947 0.3296
C24_7 C 0.30904(13) 0.1051(3) 0.26519(16)
H18_7 H 0.3023 0.1700 0.2712
O5_7 O 0.49413(8) 0.20418(19) 0.87492(10)
H1_7 H 0.5233 0.1824 0.8690
H2_7 H 0.4738 0.1950 0.8400
O6_7 O 0.40277(7) 0.05280(18) 0.99287(10)
Co1_7 Co 0.23739(2) 0.88318(3) 0.14813(2)
Cl1_7 Cl 0.27433(3) 0.72787(7) 0.16585(4)
N1_7 N 0.27374(8) 0.9143(2) 0.07475(12)
O4_7 O 0.42193(8) 0.85102(18) 0.28886(10)
O7_7 O 0.18844(9) 0.8621(2) 0.21057(12)
H3_7 H 0.1706 0.9130 0.2115
H4_7 H 0.1698 0.8131 0.1998
N2_7 N 0.28779(9) 0.9562(2) 0.21296(11)
C1_7 C 0.31749(10) 0.9544(2) 0.07962(14)
H7_7 H 0.3338 0.9688 0.1180
C2_7 C 0.33980(10) 0.9757(3) 0.03103(14)
C3_7 C 0.20269(10) 0.8432(2) 0.01830(14)
C4_7 C 0.25030(11) 0.8911(2) 0.01928(14)
N3_7 N 0.18926(9) 0.8304(2) 0.07288(12)
C7_7 C 0.07485(11) 0.6861(3) 0.03204(15)
C11_7 C 0.11899(10) 0.7456(2) 0.02526(14)
C12_7 C 0.32788(10) 0.9154(3) 0.24371(14)
H12_7 H 0.3345 0.8511 0.2359
C13_7 C 0.14836(10) 0.7813(2) 0.07541(14)
H13_7 H 0.1395 0.7708 0.1130
C14_7 C 0.40485(11) 0.9159(3) 0.31770(14)
O12_7 O 0.06847(8) 0.66634(18) 0.08423(10)
C21_7 C 0.35977(11) 0.9655(3) 0.28671(13)
C5_7 C 0.31547(11) 0.9523(3) 0.97375(15)
H8_7 H 0.3292 0.9659 0.9397
C6_7 C 0.13164(10) 0.7627(2) 0.96907(14)
H9_7 H 0.1118 0.7417 0.9342
C9_7 C 0.17444(11) 0.8117(3) 0.96540(14)
H11_7 H 0.1839 0.8230 0.9282
C15_7 C 0.27055(11) 0.9085(3) 0.96796(15)
H14_7 H 0.2542 0.8910 0.9301
H19_7 H 0.4801(10) 0.925(2) 0.9272(16)
H20_7 H 0.5205(15) 0.958(4) 0.918(2)
O2_8 O 0.58685(7) 0.02251(18) 0.40799(10)
O5_8 O 0.50587(8) 0.20418(19) 0.62508(10)
H1_8 H 0.4767 0.1824 0.6310
H2_8 H 0.5262 0.1950 0.6600
O6_8 O 0.59723(7) 0.05280(18) 0.50713(10)
O9_8 O 0.53337(8) 0.24048(18) 0.46380(11)
H5_8 H 0.5042 0.2584 0.4499
H6_8 H 0.5499 0.2905 0.4776
O10_8 O 0.89844(10) 0.1395(2) 0.48555(14)
C8_8 C 0.82555(11) 0.0629(3) 0.39634(16)
H10_8 H 0.8415 0.0205 0.4250
N4_8 N 0.78764(9) 0.0298(2) 0.35777(12)
C10_8 C 0.61056(10) 0.0204(3) 0.45990(15)
C16_8 C 0.88593(12) 0.1884(3) 0.43921(16)
C17_8 C 0.81679(15) 0.2203(3) 0.35440(18)
H15_8 H 0.8268 0.2842 0.3529
C18_8 C 0.76314(12) 0.0926(3) 0.31774(15)
C19_8 C 0.77690(14) 0.1891(3) 0.31572(18)
H16_8 H 0.7593 0.2318 0.2886
C20_8 C 0.84218(13) 0.1571(3) 0.39558(16)
C22_8 C 0.72074(11) 0.0507(3) 0.27754(14)
C23_8 C 0.65075(12) 0.0608(3) 0.20086(15)
H17_8 H 0.6313 0.0947 0.1704
C24_8 C 0.69096(13) 0.1051(3) 0.23481(16)
H18_8 H 0.6977 0.1700 0.2288
Co1_8 Co 0.76261(2) 0.88318(3) 0.35187(2)
Cl1_8 Cl 0.72567(3) 0.72787(7) 0.33415(4)
N1_8 N 0.72626(8) 0.9143(2) 0.42525(12)
O4_8 O 0.57807(8) 0.85102(18) 0.21114(10)
O7_8 O 0.81156(9) 0.8621(2) 0.28943(12)
H3_8 H 0.8294 0.9130 0.2885
H4_8 H 0.8302 0.8131 0.3002
N2_8 N 0.71221(9) 0.9562(2) 0.28704(11)
C1_8 C 0.68251(10) 0.9544(2) 0.42038(14)
H7_8 H 0.6662 0.9688 0.3820
C2_8 C 0.66020(10) 0.9757(3) 0.46897(14)
C3_8 C 0.79731(10) 0.8432(2) 0.48170(14)
C4_8 C 0.74970(11) 0.8911(2) 0.48072(14)
C5_8 C 0.68453(11) 0.9523(3) 0.52625(15)
H8_8 H 0.6708 0.9659 0.5603
N3_8 N 0.81074(9) 0.8304(2) 0.42712(12)
C6_8 C 0.86836(10) 0.7627(2) 0.53093(14)
H9_8 H 0.8882 0.7417 0.5658
C7_8 C 0.92515(11) 0.6861(3) 0.46796(15)
C9_8 C 0.82556(11) 0.8117(3) 0.53460(14)
H11_8 H 0.8161 0.8230 0.5718
C11_8 C 0.88101(10) 0.7456(2) 0.47474(14)
C12_8 C 0.67212(10) 0.9154(3) 0.25629(14)
H12_8 H 0.6655 0.8511 0.2641
C13_8 C 0.85164(10) 0.7813(2) 0.42459(14)
H13_8 H 0.8605 0.7708 0.3870
C14_8 C 0.59515(11) 0.9159(3) 0.18230(14)
C15_8 C 0.72945(11) 0.9085(3) 0.53204(15)
H14_8 H 0.7458 0.8910 0.5699
O12_8 O 0.93153(8) 0.66634(18) 0.41577(10)
C21_8 C 0.64023(11) 0.9655(3) 0.21329(13)
H19_8 H 0.5199(10) 0.925(2) 0.5728(16)
H20_8 H 0.4795(15) 0.958(4) 0.582(2)
loop_
_geom_bond_atom_site_label_1
_geom_bond_atom_site_label_2
_geom_bond_site_symmetry_1
_geom_bond_site_symmetry_2
O5 Tb1 1_555 1_555
H2 O5 1_555 1_555
O6 Tb1 1_555 1_555
H8 C5 1_555 1_555
C6 H9 1_555 1_555
H11 C9 1_555 1_555
H14 C15 1_555 1_555
Tb2 O8 1_555 1_555
O14 Tb1 1_555 1_555
O16 Tb1 1_555 1_555
C5 C15 1_555 1_555
C6 C9 1_555 1_555
Co1 Cl1 1_555 1_555
O2 C10 1_555 1_555
N1 Co1 1_555 1_555
O3 C14 1_555 1_555
O4 C14 1_555 1_555
O7 Co1 1_555 1_555
H3 O7 1_555 1_555
H4 O7 1_555 1_555
N2 Co1 1_555 1_555
H5 O9 1_555 1_555
H6 O9 1_555 1_555
C1 N1 1_555 1_555
H7 C1 1_555 1_555
C2 C1 1_555 1_555
C3 C4 1_555 1_555
O10 C16 1_555 1_555
C4 N1 1_555 1_555
O11 C16 1_555 1_555
N3 Co1 1_555 1_555
C7 C11 1_555 1_555
C8 H10 1_555 1_555
N4 Co1 1_555 1_555
C12 N2 1_555 1_555
H12 C12 1_555 1_555
C13 N3 1_555 1_555
H13 C13 1_555 1_555
C14 C21 1_555 1_555
C16 C20 1_555 1_555
C17 H15 1_555 1_555
C18 N4 1_555 1_555
C19 C17 1_555 1_555
H16 C19 1_555 1_555
C20 C8 1_555 1_555
O12 C7 1_555 1_555
C21 C12 1_555 1_555
C22 N2 1_555 1_555
C23 C21 1_555 1_555
H17 C23 1_555 1_555
C24 C22 1_555 1_555
H18 C24 1_555 1_555
Tb4 O3 1_555 1_555
Tb5 O11 1_555 1_555
C2 C10 1_555 1_555
C3 N3 1_555 1_555
C8 N4 1_555 1_555
C11 C13 1_555 1_555
C17 C20 1_555 1_555
C18 C19 1_555 1_555
C18 C22 1_555 1_555
C23 C24 1_555 1_555
H20 O1 1_555 1_555
H20_2 O1_2 1_555 1_555
Tb4 O1_2 1_555 1_555
Co1_2 Cl1_2 1_555 1_555
O2_2 C10_2 1_555 1_555
N1_2 Co1_2 1_555 1_555
O3_2 C14_2 1_555 1_555
O4_2 C14_2 1_555 1_555
O5_2 Tb1_2 1_555 1_555
H2_2 O5_2 1_555 1_555
O6_2 Tb1_2 1_555 1_555
O7_2 Co1_2 1_555 1_555
H3_2 O7_2 1_555 1_555
H4_2 O7_2 1_555 1_555
O8_2 C7_2 1_555 1_555
N2_2 Co1_2 1_555 1_555
O9_2 Tb1_2 1_555 1_555
H5_2 O9_2 1_555 1_555
H6_2 O9_2 1_555 1_555
C1_2 N1_2 1_555 1_555
H7_2 C1_2 1_555 1_555
C2_2 C1_2 1_555 1_555
C3_2 C4_2 1_555 1_555
O10_2 C16_2 1_555 1_555
C4_2 N1_2 1_555 1_555
C5_2 C2_2 1_555 1_555
H8_2 C5_2 1_555 1_555
O11_2 C16_2 1_555 1_555
N3_2 Co1_2 1_555 1_555
C6_2 H9_2 1_555 1_555
C7_2 C11_2 1_555 1_555
C8_2 H10_2 1_555 1_555
C9_2 C3_2 1_555 1_555
H11_2 C9_2 1_555 1_555
N4_2 Co1_2 1_555 1_555
C10_2 O6_2 1_555 1_555
C11_2 C6_2 1_555 1_555
C12_2 N2_2 1_555 1_555
H12_2 C12_2 1_555 1_555
C13_2 N3_2 1_555 1_555
H13_2 C13_2 1_555 1_555
C14_2 C21_2 1_555 1_555
C15_2 C4_2 1_555 1_555
H14_2 C15_2 1_555 1_555
C16_2 C20_2 1_555 1_555
C17_2 H15_2 1_555 1_555
C18_2 N4_2 1_555 1_555
C19_2 C17_2 1_555 1_555
H16_2 C19_2 1_555 1_555
C20_2 C8_2 1_555 1_555
O12_2 C7_2 1_555 1_555
C21_2 C12_2 1_555 1_555
C22_2 N2_2 1_555 1_555
C23_2 C21_2 1_555 1_555
H17_2 C23_2 1_555 1_555
C24_2 C22_2 1_555 1_555
H18_2 C24_2 1_555 1_555
Tb2_2 O8_2 1_555 1_555
Tb3 O3_2 1_555 1_555
Tb5_2 O11_2 1_555 1_555
O13_2 Tb1_2 1_555 1_555
O14_2 Tb1_2 1_555 1_555
O16_2 Tb1_2 1_555 1_555
C2_2 C10_2 1_555 1_555
C3_2 N3_2 1_555 1_555
C5_2 C15_2 1_555 1_555
C6_2 C9_2 1_555 1_555
C8_2 N4_2 1_555 1_555
C11_2 C13_2 1_555 1_555
C17_2 C20_2 1_555 1_555
C18_2 C19_2 1_555 1_555
C18_2 C22_2 1_555 1_555
C23_2 C24_2 1_555 1_555
O1_3 H19_3 1_555 1_555
H8_3 C5_3 1_555 1_555
C6_3 H9_3 1_555 1_555
H11_3 C9_3 1_555 1_555
H14_3 C15_3 1_555 1_555
H20_3 O1_3 1_555 1_555
C5_3 C15_3 1_555 1_555
C6_3 C9_3 1_555 1_555
Co1_3 Cl1_3 1_555 1_555
N1_3 Co1_3 1_555 1_555
O3_3 C14_3 1_555 1_555
O4_3 C14_3 1_555 1_555
O7_3 Co1_3 1_555 1_555
H3_3 O7_3 1_555 1_555
H4_3 O7_3 1_555 1_555
N2_3 Co1_3 1_555 1_555
C1_3 N1_3 1_555 1_555
H7_3 C1_3 1_555 1_555
C2_3 C1_3 1_555 1_555
C3_3 C4_3 1_555 1_555
C4_3 N1_3 1_555 1_555
N3_3 Co1_3 1_555 1_555
C7_3 C11_3 1_555 1_555
C12_3 N2_3 1_555 1_555
H12_3 C12_3 1_555 1_555
C13_3 N3_3 1_555 1_555
H13_3 C13_3 1_555 1_555
C14_3 C21_3 1_555 1_555
O12_3 C7_3 1_555 1_555
C21_3 C12_3 1_555 1_555
Tb5_2 O3_3 1_555 1_555
C3_3 N3_3 1_555 1_555
C11_3 C13_3 1_555 1_555
O5_3 Tb2 1_555 1_555
H1_3 O5_3 1_555 1_555
H2_3 O5_3 1_555 1_555
O6_3 Tb2 1_555 1_555
O14_3 Tb2 1_555 1_555
O16_3 Tb2 1_555 1_555
O2_3 C10_3 1_555 1_555
H5_3 O9_3 1_555 1_555
H6_3 O9_3 1_555 1_555
O10_3 C16_3 1_555 1_555
O11_3 C16_3 1_555 1_555
C8_3 H10_3 1_555 1_555
C16_3 C20_3 1_555 1_555
C17_3 H15_3 1_555 1_555
C18_3 N4_3 1_555 1_555
C19_3 C17_3 1_555 1_555
H16_3 C19_3 1_555 1_555
C20_3 C8_3 1_555 1_555
H17_3 C23_3 1_555 1_555
C24_3 C22_3 1_555 1_555
H18_3 C24_3 1_555 1_555
Tb3 O11_3 1_555 1_555
C8_3 N4_3 1_555 1_555
C17_3 C20_3 1_555 1_555
C18_3 C19_3 1_555 1_555
C18_3 C22_3 1_555 1_555
C23_3 C24_3 1_555 1_555
Co1_4 Cl1_4 1_555 1_555
O1_4 H19_4 1_555 1_555
N1_4 Co1_4 1_555 1_555
O3_4 C14_4 1_555 1_555
O4_4 C14_4 1_555 1_555
O7_4 Co1_4 1_555 1_555
H3_4 O7_4 1_555 1_555
H4_4 O7_4 1_555 1_555
O15_2 C7_4 1_555 1_555
N2_4 Co1_4 1_555 1_555
C1_4 N1_4 1_555 1_555
H7_4 C1_4 1_555 1_555
C2_4 C1_4 1_555 1_555
C3_4 C4_4 1_555 1_555
C4_4 N1_4 1_555 1_555
C5_4 C2_4 1_555 1_555
H8_4 C5_4 1_555 1_555
N3_4 Co1_4 1_555 1_555
C6_4 H9_4 1_555 1_555
C7_4 C11_4 1_555 1_555
C9_4 C3_4 1_555 1_555
H11_4 C9_4 1_555 1_555
C11_4 C6_4 1_555 1_555
C12_4 N2_4 1_555 1_555
H12_4 C12_4 1_555 1_555
C13_4 N3_4 1_555 1_555
H13_4 C13_4 1_555 1_555
C14_4 C21_4 1_555 1_555
C15_4 C4_4 1_555 1_555
H14_4 C15_4 1_555 1_555
O12_4 C7_4 1_555 1_555
C21_4 C12_4 1_555 1_555
H20_4 O1_4 1_555 1_555
Tb5_2 O1_4 1_555 1_555
Tb5 O3_4 1_555 1_555
C3_4 N3_4 1_555 1_555
C5_4 C15_4 1_555 1_555
C6_4 C9_4 1_555 1_555
C11_4 C13_4 1_555 1_555
O2_4 C10_4 1_555 1_555
O5_4 Tb2_2 1_555 1_555
H1_4 O5_4 1_555 1_555
H2_4 O5_4 1_555 1_555
O6_4 Tb2_2 1_555 1_555
O9_4 Tb2_2 1_555 1_555
H5_4 O9_4 1_555 1_555
H6_4 O9_4 1_555 1_555
O10_4 C16_4 1_555 1_555
O11_4 C16_4 1_555 1_555
C8_4 H10_4 1_555 1_555
C10_4 O6_4 1_555 1_555
C16_4 C20_4 1_555 1_555
C17_4 H15_4 1_555 1_555
C18_4 N4_4 1_555 1_555
C19_4 C17_4 1_555 1_555
H16_4 C19_4 1_555 1_555
C20_4 C8_4 1_555 1_555
H17_4 C23_4 1_555 1_555
C24_4 C22_4 1_555 1_555
H18_4 C24_4 1_555 1_555
Tb4 O11_4 1_555 1_555
O13_4 Tb2_2 1_555 1_555
O14_4 Tb2_2 1_555 1_555
O16_4 Tb2_2 1_555 1_555
C8_4 N4_4 1_555 1_555
C17_4 C20_4 1_555 1_555
C18_4 C19_4 1_555 1_555
C18_4 C22_4 1_555 1_555
C23_4 C24_4 1_555 1_555
H20_5 O13 1_555 1_555
Co1_5 Cl1_5 1_555 1_555
O2_5 C10_5 1_555 1_555
N1_5 Co1_5 1_555 1_555
O14_2 C14_5 1_555 1_555
O4_5 C14_5 1_555 1_555
O7_5 Co1_5 1_555 1_555
H3_5 O7_5 1_555 1_555
H4_5 O7_5 1_555 1_555
N2_5 Co1_5 1_555 1_555
H5_5 O9_5 1_555 1_555
H6_5 O9_5 1_555 1_555
C1_5 N1_5 1_555 1_555
H7_5 C1_5 1_555 1_555
C2_5 C1_5 1_555 1_555
C3_5 C4_5 1_555 1_555
O10_5 C16_5 1_555 1_555
C4_5 N1_5 1_555 1_555
O16_3 C16_5 1_555 1_555
N3_5 Co1_5 1_555 1_555
C7_5 C11_5 1_555 1_555
C8_5 H10_5 1_555 1_555
N4_5 Co1_5 1_555 1_555
C12_5 N2_5 1_555 1_555
H12_5 C12_5 1_555 1_555
C13_5 N3_5 1_555 1_555
H13_5 C13_5 1_555 1_555
C14_5 C21_5 1_555 1_555
C16_5 C20_5 1_555 1_555
C17_5 H15_5 1_555 1_555
C18_5 N4_5 1_555 1_555
C19_5 C17_5 1_555 1_555
H16_5 C19_5 1_555 1_555
C20_5 C8_5 1_555 1_555
O12_5 C7_5 1_555 1_555
C21_5 C12_5 1_555 1_555
C22_5 N2_5 1_555 1_555
C23_5 C21_5 1_555 1_555
H17_5 C23_5 1_555 1_555
C24_5 C22_5 1_555 1_555
H18_5 C24_5 1_555 1_555
C2_5 C10_5 1_555 1_555
C3_5 N3_5 1_555 1_555
C8_5 N4_5 1_555 1_555
C11_5 C13_5 1_555 1_555
C17_5 C20_5 1_555 1_555
C18_5 C19_5 1_555 1_555
C18_5 C22_5 1_555 1_555
C23_5 C24_5 1_555 1_555
O5_5 Tb3 1_555 1_555
H2_5 O5_5 1_555 1_555
O6_5 Tb3 1_555 1_555
H8_5 C5_5 1_555 1_555
C6_5 H9_5 1_555 1_555
H11_5 C9_5 1_555 1_555
H14_5 C15_5 1_555 1_555
Tb5 O8_3 1_555 1_555
C5_5 C15_5 1_555 1_555
C6_5 C9_5 1_555 1_555
Co1_6 Cl1_6 1_555 1_555
O2_6 C10_6 1_555 1_555
N1_6 Co1_6 1_555 1_555
O14 C14_6 1_555 1_555
O4_6 C14_6 1_555 1_555
O5_6 Tb4 1_555 1_555
H2_6 O5_6 1_555 1_555
O6_6 Tb4 1_555 1_555
O7_6 Co1_6 1_555 1_555
H3_6 O7_6 1_555 1_555
H4_6 O7_6 1_555 1_555
O8_4 C7_6 1_555 1_555
N2_6 Co1_6 1_555 1_555
O9_6 Tb4 1_555 1_555
H5_6 O9_6 1_555 1_555
H6_6 O9_6 1_555 1_555
C1_6 N1_6 1_555 1_555
H7_6 C1_6 1_555 1_555
C2_6 C1_6 1_555 1_555
C3_6 C4_6 1_555 1_555
O10_6 C16_6 1_555 1_555
C4_6 N1_6 1_555 1_555
C5_6 C2_6 1_555 1_555
H8_6 C5_6 1_555 1_555
O16_4 C16_6 1_555 1_555
N3_6 Co1_6 1_555 1_555
C6_6 H9_6 1_555 1_555
C7_6 C11_6 1_555 1_555
C8_6 H10_6 1_555 1_555
C9_6 C3_6 1_555 1_555
H11_6 C9_6 1_555 1_555
N4_6 Co1_6 1_555 1_555
C10_6 O6_6 1_555 1_555
C11_6 C6_6 1_555 1_555
C12_6 N2_6 1_555 1_555
H12_6 C12_6 1_555 1_555
C13_6 N3_6 1_555 1_555
H13_6 C13_6 1_555 1_555
C14_6 C21_6 1_555 1_555
C15_6 C4_6 1_555 1_555
H14_6 C15_6 1_555 1_555
C16_6 C20_6 1_555 1_555
C17_6 H15_6 1_555 1_555
C18_6 N4_6 1_555 1_555
C19_6 C17_6 1_555 1_555
H16_6 C19_6 1_555 1_555
C20_6 C8_6 1_555 1_555
O12_6 C7_6 1_555 1_555
C21_6 C12_6 1_555 1_555
C22_6 N2_6 1_555 1_555
C23_6 C21_6 1_555 1_555
H17_6 C23_6 1_555 1_555
C24_6 C22_6 1_555 1_555
H18_6 C24_6 1_555 1_555
Tb5_2 O8_4 1_555 1_555
C2_6 C10_6 1_555 1_555
C3_6 N3_6 1_555 1_555
C5_6 C15_6 1_555 1_555
C6_6 C9_6 1_555 1_555
C8_6 N4_6 1_555 1_555
C11_6 C13_6 1_555 1_555
C17_6 C20_6 1_555 1_555
C18_6 C19_6 1_555 1_555
C18_6 C22_6 1_555 1_555
C23_6 C24_6 1_555 1_555
H20_6 O13_2 1_555 1_555
O2_7 C10_7 1_555 1_555
H5_7 O9_7 1_555 1_555
H6_7 O9_7 1_555 1_555
O10_7 C16_7 1_555 1_555
O16 C16_7 1_555 1_555
C8_7 H10_7 1_555 1_555
C16_7 C20_7 1_555 1_555
C17_7 H15_7 1_555 1_555
C18_7 N4_7 1_555 1_555
C19_7 C17_7 1_555 1_555
H16_7 C19_7 1_555 1_555
C20_7 C8_7 1_555 1_555
H17_7 C23_7 1_555 1_555
C24_7 C22_7 1_555 1_555
H18_7 C24_7 1_555 1_555
C8_7 N4_7 1_555 1_555
C17_7 C20_7 1_555 1_555
C18_7 C19_7 1_555 1_555
C18_7 C22_7 1_555 1_555
C23_7 C24_7 1_555 1_555
O5_7 Tb5 1_555 1_555
H1_7 O5_7 1_555 1_555
H2_7 O5_7 1_555 1_555
O6_7 Tb5 1_555 1_555
Co1_7 Cl1_7 1_555 1_555
N1_7 Co1_7 1_555 1_555
O14_4 C14_7 1_555 1_555
O4_7 C14_7 1_555 1_555
O7_7 Co1_7 1_555 1_555
H3_7 O7_7 1_555 1_555
H4_7 O7_7 1_555 1_555
N2_7 Co1_7 1_555 1_555
C1_7 N1_7 1_555 1_555
H7_7 C1_7 1_555 1_555
C2_7 C1_7 1_555 1_555
C3_7 C4_7 1_555 1_555
C4_7 N1_7 1_555 1_555
N3_7 Co1_7 1_555 1_555
C7_7 C11_7 1_555 1_555
C12_7 N2_7 1_555 1_555
H12_7 C12_7 1_555 1_555
C13_7 N3_7 1_555 1_555
H13_7 C13_7 1_555 1_555
C14_7 C21_7 1_555 1_555
O12_7 C7_7 1_555 1_555
C21_7 C12_7 1_555 1_555
C3_7 N3_7 1_555 1_555
C11_7 C13_7 1_555 1_555
O13_3 H19_7 1_555 1_555
H8_7 C5_7 1_555 1_555
C6_7 H9_7 1_555 1_555
H11_7 C9_7 1_555 1_555
H14_7 C15_7 1_555 1_555
H20_7 O13_3 1_555 1_555
C5_7 C15_7 1_555 1_555
C6_7 C9_7 1_555 1_555
O2_8 C10_8 1_555 1_555
O5_8 Tb5_2 1_555 1_555
H1_8 O5_8 1_555 1_555
H2_8 O5_8 1_555 1_555
O6_8 Tb5_2 1_555 1_555
O9_8 Tb5_2 1_555 1_555
H5_8 O9_8 1_555 1_555
H6_8 O9_8 1_555 1_555
O10_8 C16_8 1_555 1_555
O16_2 C16_8 1_555 1_555
C8_8 H10_8 1_555 1_555
C10_8 O6_8 1_555 1_555
C16_8 C20_8 1_555 1_555
C17_8 H15_8 1_555 1_555
C18_8 N4_8 1_555 1_555
C19_8 C17_8 1_555 1_555
H16_8 C19_8 1_555 1_555
C20_8 C8_8 1_555 1_555
H17_8 C23_8 1_555 1_555
C24_8 C22_8 1_555 1_555
H18_8 C24_8 1_555 1_555
C8_8 N4_8 1_555 1_555
C17_8 C20_8 1_555 1_555
C18_8 C19_8 1_555 1_555
C18_8 C22_8 1_555 1_555
C23_8 C24_8 1_555 1_555
Co1_8 Cl1_8 1_555 1_555
O13_4 H19_8 1_555 1_555
N1_8 Co1_8 1_555 1_555
O14_3 C14_8 1_555 1_555
O4_8 C14_8 1_555 1_555
O7_8 Co1_8 1_555 1_555
H3_8 O7_8 1_555 1_555
H4_8 O7_8 1_555 1_555
O15_4 C7_8 1_555 1_555
N2_8 Co1_8 1_555 1_555
C1_8 N1_8 1_555 1_555
H7_8 C1_8 1_555 1_555
C2_8 C1_8 1_555 1_555
C3_8 C4_8 1_555 1_555
C4_8 N1_8 1_555 1_555
C5_8 C2_8 1_555 1_555
H8_8 C5_8 1_555 1_555
N3_8 Co1_8 1_555 1_555
C6_8 H9_8 1_555 1_555
C7_8 C11_8 1_555 1_555
C9_8 C3_8 1_555 1_555
H11_8 C9_8 1_555 1_555
C11_8 C6_8 1_555 1_555
C12_8 N2_8 1_555 1_555
H12_8 C12_8 1_555 1_555
C13_8 N3_8 1_555 1_555
H13_8 C13_8 1_555 1_555
C14_8 C21_8 1_555 1_555
C15_8 C4_8 1_555 1_555
H14_8 C15_8 1_555 1_555
O12_8 C7_8 1_555 1_555
C21_8 C12_8 1_555 1_555
H20_8 O13_4 1_555 1_555
C3_8 N3_8 1_555 1_555
C5_8 C15_8 1_555 1_555
C6_8 C9_8 1_555 1_555
C11_8 C13_8 1_555 1_555

#END
