
###############################################################################
#
# This file contains modified crystal structure data generated from the
# MOF subset of the Cambridge Structural Database (CSD) v543 
# hosted by the Cambridge Crystallographic Data Centre (CCDC).
#
# This work is licensed under the Creative Commons
# Attribution-NonCommercial-ShareAlike 4.0 International License.
# To view a copy of this license, visit
# http://creativecommons.org/licenses/by-nc-sa/4.0/
# or send a letter to
# Creative Commons, PO Box 1866, Mountain View, CA 94042, USA.
#
# CIF created using the CSD Python API on 29 September 2022
# The structure has been converted into the P1 space group
# The structure has a 3D framework
# The original CSD entry MATTIO is in the orthorhombic crystal system
# The framework has been calculated to contain at least 10.0% void space
# The void calculation uses a probe of radius 1.32A, grid spacing 0.4
# The framework is charged, counterions have been retained in the structure
#
###############################################################################

data_MATTIO
_chemical_formula_moiety         '(C320 H144 In13 N16 O92 8-)n'
_symmetry_cell_setting           triclinic
_symmetry_space_group_name_H-M   'P 1'
_symmetry_Int_Tables_number      1
_space_group_name_Hall           'P 1'
loop_
_symmetry_equiv_pos_site_id
_symmetry_equiv_pos_as_xyz
1 x,y,z
_cell_length_a                   18.057(4)
_cell_length_b                   20.023(4)
_cell_length_c                   28.171(6)
_cell_angle_alpha                90
_cell_angle_beta                 90
_cell_angle_gamma                90
_cell_volume                     10185.4
loop_
_atom_site_label
_atom_site_type_symbol
_atom_site_fract_x
_atom_site_fract_y
_atom_site_fract_z
H13 H 0.820600 0.005802 0.562207
H14 H 0.725049 0.005379 0.615812
In1 In 0.500000 0.500000 0.61124(4)
O1 O 0.5602(3) 0.4486(3) 0.5441(2)
O2 O 0.4634(3) 0.4054(2) 0.57936(16)
O3 O 0.6983(3) 0.3084(2) 0.42708(18)
O4 O 0.6440(2) 0.2228(2) 0.39437(16)
O5 O 0.3606(3) 0.2229(3) 0.42428(19)
O6 O 0.4567(3) 0.1544(4) 0.56353(19)
C1 C 0.5133(3) 0.4022(3) 0.5475(2)
C2 C 0.6447(3) 0.2686(3) 0.4250(2)
C3 C 0.5765(3) 0.3332(3) 0.4870(2)
H1 H 0.615637 0.364936 0.486698
C4 C 0.5167(3) 0.3430(3) 0.5166(2)
C5 C 0.4611(3) 0.2946(3) 0.5189(2)
H2 H 0.420104 0.300264 0.539699
C6 C 0.4665(4) 0.2385(3) 0.4907(2)
C7 C 0.5241(4) 0.2289(4) 0.4608(2)
H3 H 0.526679 0.189572 0.441958
C8 C 0.5803(3) 0.2775(3) 0.4577(2)
N1 N 0.4077(3) 0.1889(3) 0.49417(19)
C9 C 0.4071(4) 0.1488(4) 0.5349(2)
C10 C 0.3541(4) 0.1880(4) 0.4586(2)
C11 C 0.2869(3) 0.1037(3) 0.5072(2)
C12 C 0.2231(4) 0.0623(4) 0.5154(2)
C13 C 0.2211(4) 0.0220(4) 0.5567(3)
C14 C 0.2774(5) 0.0222(5) 0.5884(3)
C15 C 0.3404(5) 0.0638(5) 0.5807(3)
H6 H 0.379677 0.064048 0.603146
C16 C 0.3446(4) 0.1036(3) 0.5410(2)
C17 C 0.2902(3) 0.1436(4) 0.4662(2)
C18 C 0.2351(4) 0.1438(5) 0.4335(3)
H7 H 0.238686 0.170359 0.405603
C19 C 0.1697(4) 0.1020(5) 0.4422(3)
H8 H 0.129817 0.102348 0.420185
C20 C 0.1656(5) 0.0623(5) 0.4819(3)
H9 H 0.123560 0.034587 0.486750
O7 O 0.4398(3) 0.5514(3) 0.5441(2)
O8 O 0.5366(3) 0.5946(2) 0.57936(16)
O9 O 0.3017(3) 0.6916(2) 0.42708(18)
O10 O 0.3560(2) 0.7772(2) 0.39437(16)
O11 O 0.6394(3) 0.7771(3) 0.42428(19)
O12 O 0.5433(3) 0.8456(4) 0.56353(19)
C21 C 0.4867(3) 0.5978(3) 0.5475(2)
C22 C 0.3553(3) 0.7314(3) 0.4250(2)
C23 C 0.4235(3) 0.6668(3) 0.4870(2)
H10 H 0.384363 0.635064 0.486698
C24 C 0.4833(3) 0.6570(3) 0.5166(2)
C25 C 0.5389(3) 0.7054(3) 0.5189(2)
H11 H 0.579896 0.699736 0.539699
C26 C 0.5335(4) 0.7615(3) 0.4907(2)
C27 C 0.4759(4) 0.7711(4) 0.4608(2)
H12 H 0.473321 0.810428 0.441958
C28 C 0.4197(3) 0.7225(3) 0.4577(2)
N2 N 0.5923(3) 0.8111(3) 0.49417(19)
C29 C 0.5929(4) 0.8512(4) 0.5349(2)
C30 C 0.6459(4) 0.8120(4) 0.4586(2)
C31 C 0.7131(3) 0.8963(3) 0.5072(2)
C32 C 0.7769(4) 0.9377(4) 0.5154(2)
C33 C 0.7789(4) 0.9780(4) 0.5567(3)
C34 C 0.7226(5) 0.9778(5) 0.5884(3)
C35 C 0.6596(5) 0.9362(5) 0.5807(3)
H15 H 0.620323 0.935952 0.603146
C36 C 0.6554(4) 0.8964(3) 0.5410(2)
C37 C 0.7098(3) 0.8564(4) 0.4662(2)
C38 C 0.7649(4) 0.8562(5) 0.4335(3)
H16 H 0.761314 0.829641 0.405603
C39 C 0.8303(4) 0.8980(5) 0.4422(3)
H17 H 0.870183 0.897652 0.420185
C40 C 0.8344(5) 0.9377(5) 0.4819(3)
H18 H 0.876440 0.965413 0.486750
In2 In 0.750000 0.250000 0.36124(4)
In3 In 0.250000 0.750000 0.36124(4)
O13 O 0.5517(3) 0.5584(2) 0.67708(18)
O14 O 0.4483(3) 0.4416(2) 0.67708(18)
O15 O 0.6060(2) 0.4728(2) 0.64437(16)
O16 O 0.3940(2) 0.5272(2) 0.64437(16)
In2_2 In -0.000000 -0.000000 0.61124(4)
C32_2 C 0.0269(4) 0.3123(4) 0.7654(2)
C33_2 C 0.0289(4) 0.2720(4) 0.8067(3)
H13_2 H 0.070600 0.244198 0.812207
C38_2 C 0.0149(4) 0.3938(5) 0.6835(3)
H16_2 H 0.011314 0.420359 0.655603
C39_2 C 0.0803(4) 0.3520(5) 0.6922(3)
H17_2 H 0.120183 0.352348 0.670185
C40_2 C 0.0844(5) 0.3123(5) 0.7319(3)
H18_2 H 0.126440 0.284587 0.736750
In2_3 In -0.000000 1.000000 0.61124(4)
O4_2 O 0.8940(2) 0.0272(2) 0.64437(16)
O5_2 O 0.6106(3) 0.0271(3) 0.67428(19)
O6_2 O 0.7067(3) 0.0956(4) 0.81353(19)
C6_2 C 0.7165(4) 0.0115(3) 0.7407(2)
C7_2 C 0.7741(4) 0.0211(4) 0.7108(2)
H3_2 H 0.776679 0.060428 0.691958
N1_2 N 0.6577(3) 0.0611(3) 0.74417(19)
C9_2 C 0.6571(4) 0.1012(4) 0.7849(2)
C10_2 C 0.6041(4) 0.0620(4) 0.7086(2)
C11_2 C 0.5369(3) 0.1463(3) 0.7572(2)
C12_2 C 0.4731(4) 0.1877(4) 0.7654(2)
C13_2 C 0.4711(4) 0.2280(4) 0.8067(3)
H4 H 0.429400 0.255802 0.812207
C14_2 C 0.5274(5) 0.2278(5) 0.8384(3)
H5 H 0.524951 0.255379 0.865812
C15_2 C 0.5904(5) 0.1862(5) 0.8307(3)
H6_2 H 0.629677 0.185952 0.853146
C16_2 C 0.5946(4) 0.1464(3) 0.7910(2)
C17_2 C 0.5402(3) 0.1064(4) 0.7162(2)
C18_2 C 0.4851(4) 0.1062(5) 0.6835(3)
H7_2 H 0.488686 0.079641 0.655603
C19_2 C 0.4197(4) 0.1480(5) 0.6922(3)
H8_2 H 0.379817 0.147652 0.670185
C20_2 C 0.4156(5) 0.1877(5) 0.7319(3)
H9_2 H 0.373560 0.215413 0.736750
In2_4 In 1.000000 -0.000000 0.61124(4)
In1_2 In 0.750000 0.750000 0.86124(4)
O1_2 O 0.8102(3) 0.8014(3) 0.7941(2)
O2_2 O 0.7134(3) 0.8446(2) 0.82936(16)
O3_2 O 0.9483(3) 0.9416(2) 0.67708(18)
C1_2 C 0.7633(3) 0.8478(3) 0.7975(2)
C2_2 C 0.8947(3) 0.9814(3) 0.6750(2)
C3_2 C 0.8265(3) 0.9168(3) 0.7370(2)
H1_2 H 0.865637 0.885064 0.736698
C4_2 C 0.7667(3) 0.9070(3) 0.7666(2)
C5_2 C 0.7111(3) 0.9554(3) 0.7689(2)
H2_2 H 0.670104 0.949736 0.789699
C8_2 C 0.8303(3) 0.9725(3) 0.7077(2)
O7_2 O 0.6898(3) 0.6986(3) 0.7941(2)
O8_2 O 0.7866(3) 0.6554(2) 0.82936(16)
O11_2 O 0.8894(3) 0.4729(3) 0.67428(19)
O12_2 O 0.7933(3) 0.4044(4) 0.81353(19)
C21_2 C 0.7367(3) 0.6522(3) 0.7975(2)
C22_2 C 0.6053(3) 0.5186(3) 0.6750(2)
C23_2 C 0.6735(3) 0.5832(3) 0.7370(2)
H10_2 H 0.634363 0.614936 0.736698
C24_2 C 0.7333(3) 0.5930(3) 0.7666(2)
C25_2 C 0.7889(3) 0.5446(3) 0.7689(2)
H11_2 H 0.829896 0.550264 0.789699
C26_2 C 0.7835(4) 0.4885(3) 0.7407(2)
C27_2 C 0.7259(4) 0.4789(4) 0.7108(2)
H12_2 H 0.723321 0.439572 0.691958
C28_2 C 0.6697(3) 0.5275(3) 0.7077(2)
N2_2 N 0.8423(3) 0.4389(3) 0.74417(19)
C29_2 C 0.8429(4) 0.3988(4) 0.7849(2)
C30_2 C 0.8959(4) 0.4380(4) 0.7086(2)
C31_2 C 0.9631(3) 0.3537(3) 0.7572(2)
C34_2 C 0.9726(5) 0.2722(5) 0.8384(3)
H14_2 H 0.975049 0.244621 0.865812
C35_2 C 0.9096(5) 0.3138(5) 0.8307(3)
H15_2 H 0.870323 0.314048 0.853146
C36_2 C 0.9054(4) 0.3536(3) 0.7910(2)
C37_2 C 0.9598(3) 0.3936(4) 0.7162(2)
In2_5 In 1.000000 1.000000 0.61124(4)
O13_2 O 0.8017(3) 0.6916(2) 0.92708(18)
O14_2 O 0.6983(3) 0.8084(2) 0.92708(18)
O15_2 O 0.8560(2) 0.7772(2) 0.89437(16)
O16_2 O 0.6440(2) 0.7228(2) 0.89437(16)
In1_3 In 0.500000 0.000000 0.11124(4)
O7_3 O 0.4398(3) 0.0514(3) 0.0441(2)
O8_3 O 0.5366(3) 0.0946(2) 0.07936(16)
O12_3 O 0.5433(3) 0.3456(4) 0.06353(19)
C21_3 C 0.4867(3) 0.0978(3) 0.0475(2)
C24_3 C 0.4833(3) 0.1570(3) 0.0166(2)
C25_3 C 0.5389(3) 0.2054(3) 0.0189(2)
H11_3 H 0.579896 0.199736 0.039699
C29_3 C 0.5929(4) 0.3512(4) 0.0349(2)
C31_3 C 0.7131(3) 0.3963(3) 0.0072(2)
C32_3 C 0.7769(4) 0.4377(4) 0.0154(2)
C33_3 C 0.7789(4) 0.4780(4) 0.0567(3)
H13_3 H 0.820600 0.505802 0.062207
C34_3 C 0.7226(5) 0.4778(5) 0.0884(3)
H14_3 H 0.725049 0.505379 0.115812
C35_3 C 0.6596(5) 0.4362(5) 0.0807(3)
H15_3 H 0.620323 0.435952 0.103146
C36_3 C 0.6554(4) 0.3964(3) 0.0410(2)
O13_3 O 0.5517(3) 0.0584(2) 0.17708(18)
O16_3 O 0.3940(2) 0.0272(2) 0.14437(16)
O9_2 O 0.3017(3) 0.1916(2) 0.92708(18)
O10_2 O 0.3560(2) 0.2772(2) 0.89437(16)
O11_3 O 0.6394(3) 0.2771(3) 0.92428(19)
C22_3 C 0.3553(3) 0.2314(3) 0.9250(2)
C23_3 C 0.4235(3) 0.1668(3) 0.9870(2)
H10_3 H 0.384363 0.135064 0.986698
C26_3 C 0.5335(4) 0.2615(3) 0.9907(2)
C27_3 C 0.4759(4) 0.2711(4) 0.9608(2)
H12_3 H 0.473321 0.310428 0.941958
C28_3 C 0.4197(3) 0.2225(3) 0.9577(2)
N2_3 N 0.5923(3) 0.3111(3) 0.99417(19)
C30_3 C 0.6459(4) 0.3120(4) 0.9586(2)
C37_3 C 0.7098(3) 0.3564(4) 0.9662(2)
C38_3 C 0.7649(4) 0.3562(5) 0.9335(3)
H16_3 H 0.761314 0.329641 0.905603
C39_3 C 0.8303(4) 0.3980(5) 0.9422(3)
H17_3 H 0.870183 0.397652 0.920185
C40_3 C 0.8344(5) 0.4377(5) 0.9819(3)
H18_3 H 0.876440 0.465413 0.986750
In3_2 In 0.250000 0.250000 0.86124(4)
In1_4 In 0.500000 1.000000 0.11124(4)
O1_3 O 0.5602(3) 0.9486(3) 0.0441(2)
O2_3 O 0.4634(3) 0.9054(2) 0.07936(16)
O6_3 O 0.4567(3) 0.6544(4) 0.06353(19)
C1_3 C 0.5133(3) 0.9022(3) 0.0475(2)
C4_3 C 0.5167(3) 0.8430(3) 0.0166(2)
C5_3 C 0.4611(3) 0.7946(3) 0.0189(2)
H2_3 H 0.420104 0.800264 0.039699
C9_3 C 0.4071(4) 0.6488(4) 0.0349(2)
C11_3 C 0.2869(3) 0.6037(3) 0.0072(2)
C12_3 C 0.2231(4) 0.5623(4) 0.0154(2)
C13_3 C 0.2211(4) 0.5220(4) 0.0567(3)
H4_2 H 0.179400 0.494198 0.062207
C14_3 C 0.2774(5) 0.5222(5) 0.0884(3)
H5_2 H 0.274951 0.494621 0.115812
C15_3 C 0.3404(5) 0.5638(5) 0.0807(3)
H6_3 H 0.379677 0.564048 0.103146
C16_3 C 0.3446(4) 0.6036(3) 0.0410(2)
O14_3 O 0.4483(3) 0.9416(2) 0.17708(18)
O15_3 O 0.6060(2) 0.9728(2) 0.14437(16)
O5_3 O 0.3606(3) 0.7229(3) 0.92428(19)
C2_3 C 0.6447(3) 0.7686(3) 0.9250(2)
C3_3 C 0.5765(3) 0.8332(3) 0.9870(2)
H1_3 H 0.615637 0.864936 0.986698
C6_3 C 0.4665(4) 0.7385(3) 0.9907(2)
C7_3 C 0.5241(4) 0.7289(4) 0.9608(2)
H3_3 H 0.526679 0.689572 0.941958
C8_3 C 0.5803(3) 0.7775(3) 0.9577(2)
N1_3 N 0.4077(3) 0.6889(3) 0.99417(19)
C10_3 C 0.3541(4) 0.6880(4) 0.9586(2)
C17_3 C 0.2902(3) 0.6436(4) 0.9662(2)
C18_3 C 0.2351(4) 0.6438(5) 0.9335(3)
H7_3 H 0.238686 0.670359 0.905603
C19_3 C 0.1697(4) 0.6020(5) 0.9422(3)
H8_3 H 0.129817 0.602348 0.920185
C20_3 C 0.1656(5) 0.5623(5) 0.9819(3)
H9_3 H 0.123560 0.534587 0.986750
In2_6 In -0.000000 0.500000 0.11124(4)
O1_4 O 0.8102(3) 0.3014(3) 0.2941(2)
O2_4 O 0.7134(3) 0.3446(2) 0.32936(16)
O3_3 O 0.9483(3) 0.4416(2) 0.17708(18)
O4_3 O 0.8940(2) 0.5272(2) 0.14437(16)
O5_4 O 0.6106(3) 0.5271(3) 0.17428(19)
O6_4 O 0.7067(3) 0.5956(4) 0.31353(19)
C1_4 C 0.7633(3) 0.3478(3) 0.2975(2)
C2_4 C 0.8947(3) 0.4814(3) 0.1750(2)
C3_4 C 0.8265(3) 0.4168(3) 0.2370(2)
H1_4 H 0.865637 0.385064 0.236698
C4_4 C 0.7667(3) 0.4070(3) 0.2666(2)
C5_4 C 0.7111(3) 0.4554(3) 0.2689(2)
H2_4 H 0.670104 0.449736 0.289699
C6_4 C 0.7165(4) 0.5115(3) 0.2407(2)
C7_4 C 0.7741(4) 0.5211(4) 0.2108(2)
H3_4 H 0.776679 0.560428 0.191958
C8_4 C 0.8303(3) 0.4725(3) 0.2077(2)
N1_4 N 0.6577(3) 0.5611(3) 0.24417(19)
C9_4 C 0.6571(4) 0.6012(4) 0.2849(2)
C10_4 C 0.6041(4) 0.5620(4) 0.2086(2)
C11_4 C 0.5369(3) 0.6463(3) 0.2572(2)
C12_4 C 0.4731(4) 0.6877(4) 0.2654(2)
C13_4 C 0.4711(4) 0.7280(4) 0.3067(3)
H4_3 H 0.429400 0.755802 0.312207
C14_4 C 0.5274(5) 0.7278(5) 0.3384(3)
H5_3 H 0.524951 0.755379 0.365812
C15_4 C 0.5904(5) 0.6862(5) 0.3307(3)
H6_4 H 0.629677 0.685952 0.353146
C16_4 C 0.5946(4) 0.6464(3) 0.2910(2)
C17_4 C 0.5402(3) 0.6064(4) 0.2162(2)
C18_4 C 0.4851(4) 0.6062(5) 0.1835(3)
H7_4 H 0.488686 0.579641 0.155603
C19_4 C 0.4197(4) 0.6480(5) 0.1922(3)
H8_4 H 0.379817 0.647652 0.170185
C20_4 C 0.4156(5) 0.6877(5) 0.2319(3)
H9_4 H 0.373560 0.715413 0.236750
O7_4 O 0.6898(3) 0.1986(3) 0.2941(2)
O8_4 O 0.7866(3) 0.1554(2) 0.32936(16)
C21_4 C 0.7367(3) 0.1522(3) 0.2975(2)
C22_4 C 0.6053(3) 0.0186(3) 0.1750(2)
C23_4 C 0.6735(3) 0.0832(3) 0.2370(2)
H10_4 H 0.634363 0.114936 0.236698
C24_4 C 0.7333(3) 0.0930(3) 0.2666(2)
C25_4 C 0.7889(3) 0.0446(3) 0.2689(2)
H11_4 H 0.829896 0.050264 0.289699
C28_4 C 0.6697(3) 0.0275(3) 0.2077(2)
In2_7 In 1.000000 0.500000 0.11124(4)
O13_4 O 0.8017(3) 0.1916(2) 0.42708(18)
O15_4 O 0.8560(2) 0.2772(2) 0.39437(16)
O11_4 O 0.8894(3) 0.9729(3) 0.17428(19)
O12_4 O 0.7933(3) 0.9044(4) 0.31353(19)
C26_4 C 0.7835(4) 0.9885(3) 0.2407(2)
C27_4 C 0.7259(4) 0.9789(4) 0.2108(2)
H12_4 H 0.723321 0.939572 0.191958
N2_4 N 0.8423(3) 0.9389(3) 0.24417(19)
C29_4 C 0.8429(4) 0.8988(4) 0.2849(2)
C30_4 C 0.8959(4) 0.9380(4) 0.2086(2)
C31_4 C 0.9631(3) 0.8537(3) 0.2572(2)
C34_4 C 0.9726(5) 0.7722(5) 0.3384(3)
H14_4 H 0.975049 0.744621 0.365812
C35_4 C 0.9096(5) 0.8138(5) 0.3307(3)
H15_4 H 0.870323 0.814048 0.353146
C36_4 C 0.9054(4) 0.8536(3) 0.2910(2)
C37_4 C 0.9598(3) 0.8936(4) 0.2162(2)
O1_5 O 0.0602(3) 0.4486(3) 0.0441(2)
C1_5 C 0.0133(3) 0.4022(3) 0.0475(2)
C4_5 C 0.0167(3) 0.3430(3) 0.0166(2)
O8_5 O 0.0366(3) 0.5946(2) 0.07936(16)
O12_5 O 0.0433(3) 0.8456(4) 0.06353(19)
C25_5 C 0.0389(3) 0.7054(3) 0.0189(2)
H11_5 H 0.079896 0.699736 0.039699
C29_5 C 0.0929(4) 0.8512(4) 0.0349(2)
C31_5 C 0.2131(3) 0.8963(3) 0.0072(2)
C32_4 C 0.2769(4) 0.9377(4) 0.0154(2)
C33_4 C 0.2789(4) 0.9780(4) 0.0567(3)
C34_5 C 0.2226(5) 0.9778(5) 0.0884(3)
C35_5 C 0.1596(5) 0.9362(5) 0.0807(3)
H15_5 H 0.120323 0.935952 0.103146
C36_5 C 0.1554(4) 0.8964(3) 0.0410(2)
O13_5 O 0.0517(3) 0.5584(2) 0.17708(18)
O15_5 O 0.1060(2) 0.4728(2) 0.14437(16)
O3_4 O 0.1983(3) 0.3084(2) 0.92708(18)
O4_4 O 0.1440(2) 0.2228(2) 0.89437(16)
C2_5 C 0.1447(3) 0.2686(3) 0.9250(2)
C3_5 C 0.0765(3) 0.3332(3) 0.9870(2)
H1_5 H 0.115637 0.364936 0.986698
C7_5 C 0.0241(4) 0.2289(4) 0.9608(2)
H3_5 H 0.026679 0.189572 0.941958
C8_5 C 0.0803(3) 0.2775(3) 0.9577(2)
O11_5 O 0.1394(3) 0.7771(3) 0.92428(19)
C26_5 C 0.0335(4) 0.7615(3) 0.9907(2)
N2_5 N 0.0923(3) 0.8111(3) 0.99417(19)
C30_5 C 0.1459(4) 0.8120(4) 0.9586(2)
C37_5 C 0.2098(3) 0.8564(4) 0.9662(2)
C38_4 C 0.2649(4) 0.8562(5) 0.9335(3)
H16_4 H 0.261314 0.829641 0.905603
C39_4 C 0.3303(4) 0.8980(5) 0.9422(3)
H17_4 H 0.370183 0.897652 0.920185
C40_4 C 0.3344(5) 0.9377(5) 0.9819(3)
H18_4 H 0.376440 0.965413 0.986750
O2_5 O 0.9634(3) 0.4054(2) 0.07936(16)
O6_5 O 0.9567(3) 0.1544(4) 0.06353(19)
C5_5 C 0.9611(3) 0.2946(3) 0.0189(2)
H2_5 H 0.920104 0.300264 0.039699
C9_5 C 0.9071(4) 0.1488(4) 0.0349(2)
C11_5 C 0.7869(3) 0.1037(3) 0.0072(2)
C12_5 C 0.7231(4) 0.0623(4) 0.0154(2)
C13_5 C 0.7211(4) 0.0220(4) 0.0567(3)
C14_5 C 0.7774(5) 0.0222(5) 0.0884(3)
C15_5 C 0.8404(5) 0.0638(5) 0.0807(3)
H6_5 H 0.879677 0.064048 0.103146
C16_5 C 0.8446(4) 0.1036(3) 0.0410(2)
O7_5 O 0.9398(3) 0.5514(3) 0.0441(2)
C21_5 C 0.9867(3) 0.5978(3) 0.0475(2)
C24_5 C 0.9833(3) 0.6570(3) 0.0166(2)
O5_5 O 0.8606(3) 0.2229(3) 0.92428(19)
C6_5 C 0.9665(4) 0.2385(3) 0.9907(2)
N1_5 N 0.9077(3) 0.1889(3) 0.99417(19)
C10_5 C 0.8541(4) 0.1880(4) 0.9586(2)
C17_5 C 0.7902(3) 0.1436(4) 0.9662(2)
C18_5 C 0.7351(4) 0.1438(5) 0.9335(3)
H7_5 H 0.738686 0.170359 0.905603
C19_5 C 0.6697(4) 0.1020(5) 0.9422(3)
H8_5 H 0.629817 0.102348 0.920185
C20_5 C 0.6656(5) 0.0623(5) 0.9819(3)
H9_5 H 0.623560 0.034587 0.986750
C22_5 C 0.8553(3) 0.7314(3) 0.9250(2)
C23_5 C 0.9235(3) 0.6668(3) 0.9870(2)
H10_5 H 0.884363 0.635064 0.986698
C27_5 C 0.9759(4) 0.7711(4) 0.9608(2)
H12_5 H 0.973321 0.810428 0.941958
C28_5 C 0.9197(3) 0.7225(3) 0.9577(2)
O5_6 O 0.1106(3) 0.0271(3) 0.17428(19)
O6_6 O 0.2067(3) 0.0956(4) 0.31353(19)
C6_6 C 0.2165(4) 0.0115(3) 0.2407(2)
C7_6 C 0.2741(4) 0.0211(4) 0.2108(2)
H3_6 H 0.276679 0.060428 0.191958
N1_6 N 0.1577(3) 0.0611(3) 0.24417(19)
C9_6 C 0.1571(4) 0.1012(4) 0.2849(2)
C10_6 C 0.1041(4) 0.0620(4) 0.2086(2)
C11_6 C 0.0369(3) 0.1463(3) 0.2572(2)
C14_6 C 0.0274(5) 0.2278(5) 0.3384(3)
H5_4 H 0.024951 0.255379 0.365812
C15_6 C 0.0904(5) 0.1862(5) 0.3307(3)
H6_6 H 0.129677 0.185952 0.353146
C16_6 C 0.0946(4) 0.1464(3) 0.2910(2)
C17_6 C 0.0402(3) 0.1064(4) 0.2162(2)
O1_6 O 0.3102(3) 0.8014(3) 0.2941(2)
O2_6 O 0.2134(3) 0.8446(2) 0.32936(16)
C1_6 C 0.2633(3) 0.8478(3) 0.2975(2)
C2_6 C 0.3947(3) 0.9814(3) 0.1750(2)
C3_6 C 0.3265(3) 0.9168(3) 0.2370(2)
H1_6 H 0.365637 0.885064 0.236698
C4_6 C 0.2667(3) 0.9070(3) 0.2666(2)
C5_6 C 0.2111(3) 0.9554(3) 0.2689(2)
H2_6 H 0.170104 0.949736 0.289699
C8_6 C 0.3303(3) 0.9725(3) 0.2077(2)
O7_6 O 0.1898(3) 0.6986(3) 0.2941(2)
O8_6 O 0.2866(3) 0.6554(2) 0.32936(16)
O11_6 O 0.3894(3) 0.4729(3) 0.17428(19)
O12_6 O 0.2933(3) 0.4044(4) 0.31353(19)
C21_6 C 0.2367(3) 0.6522(3) 0.2975(2)
C22_6 C 0.1053(3) 0.5186(3) 0.1750(2)
C23_6 C 0.1735(3) 0.5832(3) 0.2370(2)
H10_6 H 0.134363 0.614936 0.236698
C24_6 C 0.2333(3) 0.5930(3) 0.2666(2)
C25_6 C 0.2889(3) 0.5446(3) 0.2689(2)
H11_6 H 0.329896 0.550264 0.289699
C26_6 C 0.2835(4) 0.4885(3) 0.2407(2)
C27_6 C 0.2259(4) 0.4789(4) 0.2108(2)
H12_6 H 0.223321 0.439572 0.191958
C28_6 C 0.1697(3) 0.5275(3) 0.2077(2)
N2_6 N 0.3423(3) 0.4389(3) 0.24417(19)
C29_6 C 0.3429(4) 0.3988(4) 0.2849(2)
C30_6 C 0.3959(4) 0.4380(4) 0.2086(2)
C31_6 C 0.4631(3) 0.3537(3) 0.2572(2)
C32_5 C 0.5269(4) 0.3123(4) 0.2654(2)
C33_5 C 0.5289(4) 0.2720(4) 0.3067(3)
H13_4 H 0.570600 0.244198 0.312207
C34_6 C 0.4726(5) 0.2722(5) 0.3384(3)
H14_5 H 0.475049 0.244621 0.365812
C35_6 C 0.4096(5) 0.3138(5) 0.3307(3)
H15_6 H 0.370323 0.314048 0.353146
C36_6 C 0.4054(4) 0.3536(3) 0.2910(2)
C37_6 C 0.4598(3) 0.3936(4) 0.2162(2)
C38_5 C 0.5149(4) 0.3938(5) 0.1835(3)
H16_5 H 0.511314 0.420359 0.155603
C39_5 C 0.5803(4) 0.3520(5) 0.1922(3)
H17_5 H 0.620183 0.352348 0.170185
C40_5 C 0.5844(5) 0.3123(5) 0.2319(3)
H18_5 H 0.626440 0.284587 0.236750
O14_4 O 0.1983(3) 0.8084(2) 0.42708(18)
O16_4 O 0.1440(2) 0.7228(2) 0.39437(16)
O8_7 O 0.0366(3) 0.0946(2) 0.57936(16)
O11_7 O 0.1394(3) 0.2771(3) 0.42428(19)
O12_7 O 0.0433(3) 0.3456(4) 0.56353(19)
C25_7 C 0.0389(3) 0.2054(3) 0.5189(2)
H11_7 H 0.079896 0.199736 0.539699
C26_7 C 0.0335(4) 0.2615(3) 0.4907(2)
N2_7 N 0.0923(3) 0.3111(3) 0.49417(19)
C29_7 C 0.0929(4) 0.3512(4) 0.5349(2)
C30_7 C 0.1459(4) 0.3120(4) 0.4586(2)
C31_7 C 0.2131(3) 0.3963(3) 0.5072(2)
C32_6 C 0.2769(4) 0.4377(4) 0.5154(2)
C33_6 C 0.2789(4) 0.4780(4) 0.5567(3)
H13_5 H 0.320600 0.505802 0.562207
C34_7 C 0.2226(5) 0.4778(5) 0.5884(3)
H14_6 H 0.225049 0.505379 0.615812
C35_7 C 0.1596(5) 0.4362(5) 0.5807(3)
H15_7 H 0.120323 0.435952 0.603146
C36_7 C 0.1554(4) 0.3964(3) 0.5410(2)
C37_7 C 0.2098(3) 0.3564(4) 0.4662(2)
C38_6 C 0.2649(4) 0.3562(5) 0.4335(3)
H16_6 H 0.261314 0.329641 0.405603
C39_6 C 0.3303(4) 0.3980(5) 0.4422(3)
H17_6 H 0.370183 0.397652 0.420185
C40_6 C 0.3344(5) 0.4377(5) 0.4819(3)
H18_6 H 0.376440 0.465413 0.486750
O13_6 O 0.0517(3) 0.0584(2) 0.67708(18)
O1_7 O 0.0602(3) 0.9486(3) 0.5441(2)
C1_7 C 0.0133(3) 0.9022(3) 0.5475(2)
C2_7 C 0.1447(3) 0.7686(3) 0.4250(2)
C3_7 C 0.0765(3) 0.8332(3) 0.4870(2)
H1_7 H 0.115637 0.864936 0.486698
C4_7 C 0.0167(3) 0.8430(3) 0.5166(2)
C7_7 C 0.0241(4) 0.7289(4) 0.4608(2)
H3_7 H 0.026679 0.689572 0.441958
C8_7 C 0.0803(3) 0.7775(3) 0.4577(2)
O15_6 O 0.1060(2) 0.9728(2) 0.64437(16)
O7_7 O 0.9398(3) 0.0514(3) 0.5441(2)
C21_7 C 0.9867(3) 0.0978(3) 0.5475(2)
C22_7 C 0.8553(3) 0.2314(3) 0.4250(2)
C23_7 C 0.9235(3) 0.1668(3) 0.4870(2)
H10_7 H 0.884363 0.135064 0.486698
C24_7 C 0.9833(3) 0.1570(3) 0.5166(2)
C27_7 C 0.9759(4) 0.2711(4) 0.4608(2)
H12_7 H 0.973321 0.310428 0.441958
C28_7 C 0.9197(3) 0.2225(3) 0.4577(2)
O2_7 O 0.9634(3) 0.9054(2) 0.57936(16)
O5_7 O 0.8606(3) 0.7229(3) 0.42428(19)
O6_7 O 0.9567(3) 0.6544(4) 0.56353(19)
C5_7 C 0.9611(3) 0.7946(3) 0.5189(2)
H2_7 H 0.920104 0.800264 0.539699
C6_7 C 0.9665(4) 0.7385(3) 0.4907(2)
N1_7 N 0.9077(3) 0.6889(3) 0.49417(19)
C9_7 C 0.9071(4) 0.6488(4) 0.5349(2)
C10_7 C 0.8541(4) 0.6880(4) 0.4586(2)
C11_7 C 0.7869(3) 0.6037(3) 0.5072(2)
C12_6 C 0.7231(4) 0.5623(4) 0.5154(2)
C13_6 C 0.7211(4) 0.5220(4) 0.5567(3)
H4_4 H 0.679400 0.494198 0.562207
C14_7 C 0.7774(5) 0.5222(5) 0.5884(3)
H5_5 H 0.774951 0.494621 0.615812
C15_7 C 0.8404(5) 0.5638(5) 0.5807(3)
H6_7 H 0.879677 0.564048 0.603146
C16_7 C 0.8446(4) 0.6036(3) 0.5410(2)
C17_7 C 0.7902(3) 0.6436(4) 0.4662(2)
C18_6 C 0.7351(4) 0.6438(5) 0.4335(3)
H7_6 H 0.738686 0.670359 0.405603
C19_6 C 0.6697(4) 0.6020(5) 0.4422(3)
H8_6 H 0.629817 0.602348 0.420185
C20_6 C 0.6656(5) 0.5623(5) 0.4819(3)
H9_6 H 0.623560 0.534587 0.486750
O1_8 O 0.3102(3) 0.3014(3) 0.7941(2)
O2_8 O 0.2134(3) 0.3446(2) 0.82936(16)
O5_8 O 0.1106(3) 0.5271(3) 0.67428(19)
O6_8 O 0.2067(3) 0.5956(4) 0.81353(19)
C1_8 C 0.2633(3) 0.3478(3) 0.7975(2)
C2_8 C 0.3947(3) 0.4814(3) 0.6750(2)
C3_8 C 0.3265(3) 0.4168(3) 0.7370(2)
H1_8 H 0.365637 0.385064 0.736698
C4_8 C 0.2667(3) 0.4070(3) 0.7666(2)
C5_8 C 0.2111(3) 0.4554(3) 0.7689(2)
H2_8 H 0.170104 0.449736 0.789699
C6_8 C 0.2165(4) 0.5115(3) 0.7407(2)
C7_8 C 0.2741(4) 0.5211(4) 0.7108(2)
H3_8 H 0.276679 0.560428 0.691958
C8_8 C 0.3303(3) 0.4725(3) 0.7077(2)
N1_8 N 0.1577(3) 0.5611(3) 0.74417(19)
C9_8 C 0.1571(4) 0.6012(4) 0.7849(2)
C10_8 C 0.1041(4) 0.5620(4) 0.7086(2)
C11_8 C 0.0369(3) 0.6463(3) 0.7572(2)
C14_8 C 0.0274(5) 0.7278(5) 0.8384(3)
H5_6 H 0.024951 0.755379 0.865812
C15_8 C 0.0904(5) 0.6862(5) 0.8307(3)
H6_8 H 0.129677 0.685952 0.853146
C16_8 C 0.0946(4) 0.6464(3) 0.7910(2)
C17_8 C 0.0402(3) 0.6064(4) 0.7162(2)
O7_8 O 0.1898(3) 0.1986(3) 0.7941(2)
O8_8 O 0.2866(3) 0.1554(2) 0.82936(16)
C21_8 C 0.2367(3) 0.1522(3) 0.7975(2)
C22_8 C 0.1053(3) 0.0186(3) 0.6750(2)
C23_8 C 0.1735(3) 0.0832(3) 0.7370(2)
H10_8 H 0.134363 0.114936 0.736698
C24_8 C 0.2333(3) 0.0930(3) 0.7666(2)
C25_8 C 0.2889(3) 0.0446(3) 0.7689(2)
H11_8 H 0.329896 0.050264 0.789699
C28_8 C 0.1697(3) 0.0275(3) 0.7077(2)
O11_8 O 0.3894(3) 0.9729(3) 0.67428(19)
O12_8 O 0.2933(3) 0.9044(4) 0.81353(19)
C26_8 C 0.2835(4) 0.9885(3) 0.7407(2)
C27_8 C 0.2259(4) 0.9789(4) 0.7108(2)
H12_8 H 0.223321 0.939572 0.691958
N2_8 N 0.3423(3) 0.9389(3) 0.74417(19)
C29_8 C 0.3429(4) 0.8988(4) 0.7849(2)
C30_8 C 0.3959(4) 0.9380(4) 0.7086(2)
C31_8 C 0.4631(3) 0.8537(3) 0.7572(2)
C32_7 C 0.5269(4) 0.8123(4) 0.7654(2)
C33_7 C 0.5289(4) 0.7720(4) 0.8067(3)
H13_6 H 0.570600 0.744198 0.812207
C34_8 C 0.4726(5) 0.7722(5) 0.8384(3)
H14_7 H 0.475049 0.744621 0.865812
C35_8 C 0.4096(5) 0.8138(5) 0.8307(3)
H15_8 H 0.370323 0.814048 0.853146
C36_8 C 0.4054(4) 0.8536(3) 0.7910(2)
C37_8 C 0.4598(3) 0.8936(4) 0.7162(2)
C38_7 C 0.5149(4) 0.8938(5) 0.6835(3)
H16_7 H 0.511314 0.920359 0.655603
C39_7 C 0.5803(4) 0.8520(5) 0.6922(3)
H17_7 H 0.620183 0.852348 0.670185
C40_7 C 0.5844(5) 0.8123(5) 0.7319(3)
H18_7 H 0.626440 0.784587 0.736750
C12_7 C 0.9731(4) 0.6877(4) 0.7654(2)
C13_7 C 0.9711(4) 0.7280(4) 0.8067(3)
H4_5 H 0.929400 0.755802 0.812207
C18_7 C 0.9851(4) 0.6062(5) 0.6835(3)
H7_7 H 0.988686 0.579641 0.655603
C19_7 C 0.9197(4) 0.6480(5) 0.6922(3)
H8_7 H 0.879817 0.647652 0.670185
C20_7 C 0.9156(5) 0.6877(5) 0.7319(3)
H9_7 H 0.873560 0.715413 0.736750
H4_6 H 0.179400 0.994198 0.562207
H5_7 H 0.274951 0.994621 0.615812
C32_8 C 0.0269(4) 0.8123(4) 0.2654(2)
C33_8 C 0.0289(4) 0.7720(4) 0.3067(3)
H13_7 H 0.070600 0.744198 0.312207
C38_8 C 0.0149(4) 0.8938(5) 0.1835(3)
H16_8 H 0.011314 0.920359 0.155603
C39_8 C 0.0803(4) 0.8520(5) 0.1922(3)
H17_8 H 0.120183 0.852348 0.170185
C40_8 C 0.0844(5) 0.8123(5) 0.2319(3)
H18_8 H 0.126440 0.784587 0.236750
H13_8 H 0.320600 0.005802 0.062207
H14_8 H 0.225049 0.005379 0.115812
H4_7 H 0.679400 0.994198 0.062207
H5_8 H 0.774951 0.994621 0.115812
C12_8 C 0.9731(4) 0.1877(4) 0.2654(2)
C13_8 C 0.9711(4) 0.2280(4) 0.3067(3)
H4_8 H 0.929400 0.255802 0.312207
C18_8 C 0.9851(4) 0.1062(5) 0.1835(3)
H7_8 H 0.988686 0.079641 0.155603
C19_8 C 0.9197(4) 0.1480(5) 0.1922(3)
H8_8 H 0.879817 0.147652 0.170185
C20_8 C 0.9156(5) 0.1877(5) 0.2319(3)
H9_8 H 0.873560 0.215413 0.236750
loop_
_geom_bond_atom_site_label_1
_geom_bond_atom_site_label_2
_geom_bond_site_symmetry_1
_geom_bond_site_symmetry_2
In1 O1 1_555 1_555
O1 C1 1_555 1_555
O2 In1 1_555 1_555
O3 C2 1_555 1_555
O4 C2 1_555 1_555
O5 C10 1_555 1_555
O6 C9 1_555 1_555
C1 O2 1_555 1_555
C2 C8 1_555 1_555
C3 H1 1_555 1_555
C4 C1 1_555 1_555
C5 C4 1_555 1_555
H2 C5 1_555 1_555
C6 C5 1_555 1_555
C7 C6 1_555 1_555
H3 C7 1_555 1_555
C8 C3 1_555 1_555
N1 C6 1_555 1_555
C9 N1 1_555 1_555
C10 N1 1_555 1_555
C11 C12 1_555 1_555
C12 C13 1_555 1_555
C14 C13 1_555 1_555
C15 C14 1_555 1_555
H6 C15 1_555 1_555
C16 C9 1_555 1_555
C17 C10 1_555 1_555
C18 C17 1_555 1_555
H7 C18 1_555 1_555
C19 C18 1_555 1_555
H8 C19 1_555 1_555
C20 C12 1_555 1_555
H9 C20 1_555 1_555
O7 In1 1_555 1_555
O8 In1 1_555 1_555
O9 C22 1_555 1_555
O10 C22 1_555 1_555
O11 C30 1_555 1_555
O12 C29 1_555 1_555
C21 O7 1_555 1_555
C22 C28 1_555 1_555
C23 H10 1_555 1_555
C24 C21 1_555 1_555
C25 C24 1_555 1_555
H11 C25 1_555 1_555
C26 C25 1_555 1_555
C27 C26 1_555 1_555
H12 C27 1_555 1_555
C28 C23 1_555 1_555
N2 C26 1_555 1_555
C29 N2 1_555 1_555
C30 N2 1_555 1_555
C31 C32 1_555 1_555
C32 C33 1_555 1_555
C34 C33 1_555 1_555
C35 C34 1_555 1_555
H15 C35 1_555 1_555
C36 C29 1_555 1_555
C37 C30 1_555 1_555
C38 C37 1_555 1_555
H16 C38 1_555 1_555
C39 C38 1_555 1_555
H17 C39 1_555 1_555
C40 C32 1_555 1_555
H18 C40 1_555 1_555
In2 O3 1_555 1_555
In3 O9 1_555 1_555
O13 In1 1_555 1_555
O14 In1 1_555 1_555
O15 In1 1_555 1_555
O16 In1 1_555 1_555
O4 In2 1_555 1_555
C3 C4 1_555 1_555
C7 C8 1_555 1_555
C11 C16 1_555 1_555
C11 C17 1_555 1_555
C15 C16 1_555 1_555
C19 C20 1_555 1_555
O8 C21 1_555 1_555
O10 In3 1_555 1_555
C23 C24 1_555 1_555
C27 C28 1_555 1_555
C31 C36 1_555 1_555
C31 C37 1_555 1_555
C35 C36 1_555 1_555
C39 C40 1_555 1_555
C32_2 C33_2 1_555 1_555
C33_2 H13_2 1_555 1_555
H16_2 C38_2 1_555 1_555
C39_2 C38_2 1_555 1_555
H17_2 C39_2 1_555 1_555
C40_2 C32_2 1_555 1_555
H18_2 C40_2 1_555 1_555
C39_2 C40_2 1_555 1_555
O5_2 C10_2 1_555 1_555
O6_2 C9_2 1_555 1_555
C7_2 C6_2 1_555 1_555
H3_2 C7_2 1_555 1_555
N1_2 C6_2 1_555 1_555
C9_2 N1_2 1_555 1_555
C10_2 N1_2 1_555 1_555
C11_2 C12_2 1_555 1_555
C12_2 C13_2 1_555 1_555
C13_2 H4 1_555 1_555
C14_2 C13_2 1_555 1_555
H5 C14_2 1_555 1_555
C15_2 C14_2 1_555 1_555
H6_2 C15_2 1_555 1_555
C16_2 C9_2 1_555 1_555
C17_2 C10_2 1_555 1_555
C18_2 C17_2 1_555 1_555
H7_2 C18_2 1_555 1_555
C19_2 C18_2 1_555 1_555
H8_2 C19_2 1_555 1_555
C20_2 C12_2 1_555 1_555
H9_2 C20_2 1_555 1_555
O4_2 In2_4 1_555 1_555
C11_2 C16_2 1_555 1_555
C11_2 C17_2 1_555 1_555
C15_2 C16_2 1_555 1_555
C19_2 C20_2 1_555 1_555
In1_2 O1_2 1_555 1_555
O1_2 C1_2 1_555 1_555
O2_2 In1_2 1_555 1_555
O3_2 C2_2 1_555 1_555
C1_2 O2_2 1_555 1_555
C2_2 C8_2 1_555 1_555
C3_2 H1_2 1_555 1_555
C4_2 C1_2 1_555 1_555
C5_2 C4_2 1_555 1_555
H2_2 C5_2 1_555 1_555
C8_2 C3_2 1_555 1_555
O7_2 In1_2 1_555 1_555
O8_2 In1_2 1_555 1_555
O13 C22_2 1_555 1_555
O15 C22_2 1_555 1_555
O11_2 C30_2 1_555 1_555
O12_2 C29_2 1_555 1_555
C21_2 O7_2 1_555 1_555
C22_2 C28_2 1_555 1_555
C23_2 H10_2 1_555 1_555
C24_2 C21_2 1_555 1_555
C25_2 C24_2 1_555 1_555
H11_2 C25_2 1_555 1_555
C26_2 C25_2 1_555 1_555
C27_2 C26_2 1_555 1_555
H12_2 C27_2 1_555 1_555
C28_2 C23_2 1_555 1_555
N2_2 C26_2 1_555 1_555
C29_2 N2_2 1_555 1_555
C30_2 N2_2 1_555 1_555
H14_2 C34_2 1_555 1_555
C35_2 C34_2 1_555 1_555
H15_2 C35_2 1_555 1_555
C36_2 C29_2 1_555 1_555
C37_2 C30_2 1_555 1_555
In2_5 O3_2 1_555 1_555
O13_2 In1_2 1_555 1_555
O14_2 In1_2 1_555 1_555
O15_2 In1_2 1_555 1_555
O16_2 In1_2 1_555 1_555
C3_2 C4_2 1_555 1_555
O8_2 C21_2 1_555 1_555
C23_2 C24_2 1_555 1_555
C27_2 C28_2 1_555 1_555
C31_2 C36_2 1_555 1_555
C31_2 C37_2 1_555 1_555
C35_2 C36_2 1_555 1_555
O7_3 In1_3 1_555 1_555
O8_3 In1_3 1_555 1_555
O12_3 C29_3 1_555 1_555
C21_3 O7_3 1_555 1_555
C24_3 C21_3 1_555 1_555
C25_3 C24_3 1_555 1_555
H11_3 C25_3 1_555 1_555
C31_3 C32_3 1_555 1_555
C32_3 C33_3 1_555 1_555
C33_3 H13_3 1_555 1_555
C34_3 C33_3 1_555 1_555
H14_3 C34_3 1_555 1_555
C35_3 C34_3 1_555 1_555
H15_3 C35_3 1_555 1_555
C36_3 C29_3 1_555 1_555
O13_3 In1_3 1_555 1_555
O16_3 In1_3 1_555 1_555
O8_3 C21_3 1_555 1_555
C31_3 C36_3 1_555 1_555
C35_3 C36_3 1_555 1_555
O9_2 C22_3 1_555 1_555
O10_2 C22_3 1_555 1_555
O11_3 C30_3 1_555 1_555
C22_3 C28_3 1_555 1_555
C23_3 H10_3 1_555 1_555
C27_3 C26_3 1_555 1_555
H12_3 C27_3 1_555 1_555
C28_3 C23_3 1_555 1_555
N2_3 C26_3 1_555 1_555
C30_3 N2_3 1_555 1_555
C37_3 C30_3 1_555 1_555
C38_3 C37_3 1_555 1_555
H16_3 C38_3 1_555 1_555
C39_3 C38_3 1_555 1_555
H17_3 C39_3 1_555 1_555
H18_3 C40_3 1_555 1_555
In3_2 O9_2 1_555 1_555
O10_2 In3_2 1_555 1_555
C27_3 C28_3 1_555 1_555
C39_3 C40_3 1_555 1_555
In1_4 O1_3 1_555 1_555
O1_3 C1_3 1_555 1_555
O2_3 In1_4 1_555 1_555
O6_3 C9_3 1_555 1_555
C1_3 O2_3 1_555 1_555
C4_3 C1_3 1_555 1_555
C5_3 C4_3 1_555 1_555
H2_3 C5_3 1_555 1_555
C11_3 C12_3 1_555 1_555
C12_3 C13_3 1_555 1_555
C13_3 H4_2 1_555 1_555
C14_3 C13_3 1_555 1_555
H5_2 C14_3 1_555 1_555
C15_3 C14_3 1_555 1_555
H6_3 C15_3 1_555 1_555
C16_3 C9_3 1_555 1_555
O14_3 In1_4 1_555 1_555
O15_3 In1_4 1_555 1_555
C11_3 C16_3 1_555 1_555
C15_3 C16_3 1_555 1_555
O14_2 C2_3 1_555 1_555
O16_2 C2_3 1_555 1_555
O5_3 C10_3 1_555 1_555
C2_3 C8_3 1_555 1_555
C3_3 H1_3 1_555 1_555
C7_3 C6_3 1_555 1_555
H3_3 C7_3 1_555 1_555
C8_3 C3_3 1_555 1_555
N1_3 C6_3 1_555 1_555
C10_3 N1_3 1_555 1_555
C17_3 C10_3 1_555 1_555
C18_3 C17_3 1_555 1_555
H7_3 C18_3 1_555 1_555
C19_3 C18_3 1_555 1_555
H8_3 C19_3 1_555 1_555
H9_3 C20_3 1_555 1_555
C7_3 C8_3 1_555 1_555
C19_3 C20_3 1_555 1_555
In2 O1_4 1_555 1_555
O1_4 C1_4 1_555 1_555
O2_4 In2 1_555 1_555
O3_3 C2_4 1_555 1_555
O4_3 C2_4 1_555 1_555
O5_4 C10_4 1_555 1_555
O6_4 C9_4 1_555 1_555
C1_4 O2_4 1_555 1_555
C2_4 C8_4 1_555 1_555
C3_4 H1_4 1_555 1_555
C4_4 C1_4 1_555 1_555
C5_4 C4_4 1_555 1_555
H2_4 C5_4 1_555 1_555
C6_4 C5_4 1_555 1_555
C7_4 C6_4 1_555 1_555
H3_4 C7_4 1_555 1_555
C8_4 C3_4 1_555 1_555
N1_4 C6_4 1_555 1_555
C9_4 N1_4 1_555 1_555
C10_4 N1_4 1_555 1_555
C11_4 C12_4 1_555 1_555
C12_4 C13_4 1_555 1_555
C13_4 H4_3 1_555 1_555
C14_4 C13_4 1_555 1_555
H5_3 C14_4 1_555 1_555
C15_4 C14_4 1_555 1_555
H6_4 C15_4 1_555 1_555
C16_4 C9_4 1_555 1_555
C17_4 C10_4 1_555 1_555
C18_4 C17_4 1_555 1_555
H7_4 C18_4 1_555 1_555
C19_4 C18_4 1_555 1_555
H8_4 C19_4 1_555 1_555
C20_4 C12_4 1_555 1_555
H9_4 C20_4 1_555 1_555
O7_4 In2 1_555 1_555
O8_4 In2 1_555 1_555
O13_3 C22_4 1_555 1_555
C21_4 O7_4 1_555 1_555
C22_4 C28_4 1_555 1_555
C23_4 H10_4 1_555 1_555
C24_4 C21_4 1_555 1_555
C25_4 C24_4 1_555 1_555
H11_4 C25_4 1_555 1_555
C28_4 C23_4 1_555 1_555
In2_7 O3_3 1_555 1_555
O13_4 In2 1_555 1_555
O15_4 In2 1_555 1_555
O4_3 In2_7 1_555 1_555
C3_4 C4_4 1_555 1_555
C7_4 C8_4 1_555 1_555
C11_4 C16_4 1_555 1_555
C11_4 C17_4 1_555 1_555
C15_4 C16_4 1_555 1_555
C19_4 C20_4 1_555 1_555
O8_4 C21_4 1_555 1_555
C23_4 C24_4 1_555 1_555
O11_4 C30_4 1_555 1_555
O12_4 C29_4 1_555 1_555
C27_4 C26_4 1_555 1_555
H12_4 C27_4 1_555 1_555
N2_4 C26_4 1_555 1_555
C29_4 N2_4 1_555 1_555
C30_4 N2_4 1_555 1_555
H14_4 C34_4 1_555 1_555
C35_4 C34_4 1_555 1_555
H15_4 C35_4 1_555 1_555
C36_4 C29_4 1_555 1_555
C37_4 C30_4 1_555 1_555
C31_4 C36_4 1_555 1_555
C31_4 C37_4 1_555 1_555
C35_4 C36_4 1_555 1_555
In2_6 O1_5 1_555 1_555
O1_5 C1_5 1_555 1_555
C4_5 C1_5 1_555 1_555
O8_5 In2_6 1_555 1_555
O12_5 C29_5 1_555 1_555
H11_5 C25_5 1_555 1_555
C31_5 C32_4 1_555 1_555
C32_4 C33_4 1_555 1_555
C34_5 C33_4 1_555 1_555
C35_5 C34_5 1_555 1_555
H15_5 C35_5 1_555 1_555
C36_5 C29_5 1_555 1_555
O13_5 In2_6 1_555 1_555
O15_5 In2_6 1_555 1_555
C31_5 C36_5 1_555 1_555
C35_5 C36_5 1_555 1_555
O3_4 C2_5 1_555 1_555
O4_4 C2_5 1_555 1_555
C2_5 C8_5 1_555 1_555
C3_5 H1_5 1_555 1_555
H3_5 C7_5 1_555 1_555
C8_5 C3_5 1_555 1_555
O11_5 C30_5 1_555 1_555
N2_5 C26_5 1_555 1_555
C30_5 N2_5 1_555 1_555
C37_5 C30_5 1_555 1_555
C38_4 C37_5 1_555 1_555
H16_4 C38_4 1_555 1_555
C39_4 C38_4 1_555 1_555
H17_4 C39_4 1_555 1_555
H18_4 C40_4 1_555 1_555
In3_2 O3_4 1_555 1_555
O4_4 In3_2 1_555 1_555
C7_5 C8_5 1_555 1_555
C39_4 C40_4 1_555 1_555
O2_5 In2_7 1_555 1_555
O6_5 C9_5 1_555 1_555
H2_5 C5_5 1_555 1_555
C11_5 C12_5 1_555 1_555
C12_5 C13_5 1_555 1_555
C14_5 C13_5 1_555 1_555
C15_5 C14_5 1_555 1_555
H6_5 C15_5 1_555 1_555
C16_5 C9_5 1_555 1_555
O7_5 In2_7 1_555 1_555
C21_5 O7_5 1_555 1_555
C24_5 C21_5 1_555 1_555
C11_5 C16_5 1_555 1_555
C15_5 C16_5 1_555 1_555
O5_5 C10_5 1_555 1_555
N1_5 C6_5 1_555 1_555
C10_5 N1_5 1_555 1_555
C17_5 C10_5 1_555 1_555
C18_5 C17_5 1_555 1_555
H7_5 C18_5 1_555 1_555
C19_5 C18_5 1_555 1_555
H8_5 C19_5 1_555 1_555
H9_5 C20_5 1_555 1_555
O13_2 C22_5 1_555 1_555
O15_2 C22_5 1_555 1_555
C22_5 C28_5 1_555 1_555
C23_5 H10_5 1_555 1_555
H12_5 C27_5 1_555 1_555
C28_5 C23_5 1_555 1_555
C19_5 C20_5 1_555 1_555
C27_5 C28_5 1_555 1_555
O5_6 C10_6 1_555 1_555
O6_6 C9_6 1_555 1_555
C7_6 C6_6 1_555 1_555
H3_6 C7_6 1_555 1_555
N1_6 C6_6 1_555 1_555
C9_6 N1_6 1_555 1_555
C10_6 N1_6 1_555 1_555
H5_4 C14_6 1_555 1_555
C15_6 C14_6 1_555 1_555
H6_6 C15_6 1_555 1_555
C16_6 C9_6 1_555 1_555
C17_6 C10_6 1_555 1_555
C11_6 C16_6 1_555 1_555
C11_6 C17_6 1_555 1_555
C15_6 C16_6 1_555 1_555
In3 O1_6 1_555 1_555
O1_6 C1_6 1_555 1_555
O2_6 In3 1_555 1_555
O14_3 C2_6 1_555 1_555
C1_6 O2_6 1_555 1_555
C2_6 C8_6 1_555 1_555
C3_6 H1_6 1_555 1_555
C4_6 C1_6 1_555 1_555
C5_6 C4_6 1_555 1_555
H2_6 C5_6 1_555 1_555
C8_6 C3_6 1_555 1_555
O7_6 In3 1_555 1_555
O8_6 In3 1_555 1_555
O13_5 C22_6 1_555 1_555
O15_5 C22_6 1_555 1_555
O11_6 C30_6 1_555 1_555
O12_6 C29_6 1_555 1_555
C21_6 O7_6 1_555 1_555
C22_6 C28_6 1_555 1_555
C23_6 H10_6 1_555 1_555
C24_6 C21_6 1_555 1_555
C25_6 C24_6 1_555 1_555
H11_6 C25_6 1_555 1_555
C26_6 C25_6 1_555 1_555
C27_6 C26_6 1_555 1_555
H12_6 C27_6 1_555 1_555
C28_6 C23_6 1_555 1_555
N2_6 C26_6 1_555 1_555
C29_6 N2_6 1_555 1_555
C30_6 N2_6 1_555 1_555
C31_6 C32_5 1_555 1_555
C32_5 C33_5 1_555 1_555
C33_5 H13_4 1_555 1_555
C34_6 C33_5 1_555 1_555
H14_5 C34_6 1_555 1_555
C35_6 C34_6 1_555 1_555
H15_6 C35_6 1_555 1_555
C36_6 C29_6 1_555 1_555
C37_6 C30_6 1_555 1_555
C38_5 C37_6 1_555 1_555
H16_5 C38_5 1_555 1_555
C39_5 C38_5 1_555 1_555
H17_5 C39_5 1_555 1_555
C40_5 C32_5 1_555 1_555
H18_5 C40_5 1_555 1_555
O14_4 In3 1_555 1_555
O16_4 In3 1_555 1_555
C3_6 C4_6 1_555 1_555
O8_6 C21_6 1_555 1_555
C23_6 C24_6 1_555 1_555
C27_6 C28_6 1_555 1_555
C31_6 C36_6 1_555 1_555
C31_6 C37_6 1_555 1_555
C35_6 C36_6 1_555 1_555
C39_5 C40_5 1_555 1_555
O8_7 In2_2 1_555 1_555
O11_7 C30_7 1_555 1_555
O12_7 C29_7 1_555 1_555
H11_7 C25_7 1_555 1_555
C26_7 C25_7 1_555 1_555
N2_7 C26_7 1_555 1_555
C29_7 N2_7 1_555 1_555
C30_7 N2_7 1_555 1_555
C31_7 C32_6 1_555 1_555
C32_6 C33_6 1_555 1_555
C33_6 H13_5 1_555 1_555
C34_7 C33_6 1_555 1_555
H14_6 C34_7 1_555 1_555
C35_7 C34_7 1_555 1_555
H15_7 C35_7 1_555 1_555
C36_7 C29_7 1_555 1_555
C37_7 C30_7 1_555 1_555
C38_6 C37_7 1_555 1_555
H16_6 C38_6 1_555 1_555
C39_6 C38_6 1_555 1_555
H17_6 C39_6 1_555 1_555
C40_6 C32_6 1_555 1_555
H18_6 C40_6 1_555 1_555
O13_6 In2_2 1_555 1_555
C31_7 C36_7 1_555 1_555
C31_7 C37_7 1_555 1_555
C35_7 C36_7 1_555 1_555
C39_6 C40_6 1_555 1_555
In2_3 O1_7 1_555 1_555
O1_7 C1_7 1_555 1_555
O14_4 C2_7 1_555 1_555
O16_4 C2_7 1_555 1_555
C2_7 C8_7 1_555 1_555
C3_7 H1_7 1_555 1_555
C4_7 C1_7 1_555 1_555
H3_7 C7_7 1_555 1_555
C8_7 C3_7 1_555 1_555
O15_6 In2_3 1_555 1_555
C3_7 C4_7 1_555 1_555
C7_7 C8_7 1_555 1_555
O7_7 In2_4 1_555 1_555
O13_4 C22_7 1_555 1_555
O15_4 C22_7 1_555 1_555
C21_7 O7_7 1_555 1_555
C22_7 C28_7 1_555 1_555
C23_7 H10_7 1_555 1_555
C24_7 C21_7 1_555 1_555
H12_7 C27_7 1_555 1_555
C28_7 C23_7 1_555 1_555
C23_7 C24_7 1_555 1_555
C27_7 C28_7 1_555 1_555
O2_7 In2_5 1_555 1_555
O5_7 C10_7 1_555 1_555
O6_7 C9_7 1_555 1_555
H2_7 C5_7 1_555 1_555
C6_7 C5_7 1_555 1_555
N1_7 C6_7 1_555 1_555
C9_7 N1_7 1_555 1_555
C10_7 N1_7 1_555 1_555
C11_7 C12_6 1_555 1_555
C12_6 C13_6 1_555 1_555
C13_6 H4_4 1_555 1_555
C14_7 C13_6 1_555 1_555
H5_5 C14_7 1_555 1_555
C15_7 C14_7 1_555 1_555
H6_7 C15_7 1_555 1_555
C16_7 C9_7 1_555 1_555
C17_7 C10_7 1_555 1_555
C18_6 C17_7 1_555 1_555
H7_6 C18_6 1_555 1_555
C19_6 C18_6 1_555 1_555
H8_6 C19_6 1_555 1_555
C20_6 C12_6 1_555 1_555
H9_6 C20_6 1_555 1_555
C11_7 C16_7 1_555 1_555
C11_7 C17_7 1_555 1_555
C15_7 C16_7 1_555 1_555
C19_6 C20_6 1_555 1_555
In3_2 O1_8 1_555 1_555
O1_8 C1_8 1_555 1_555
O2_8 In3_2 1_555 1_555
O14 C2_8 1_555 1_555
O16 C2_8 1_555 1_555
O5_8 C10_8 1_555 1_555
O6_8 C9_8 1_555 1_555
C1_8 O2_8 1_555 1_555
C2_8 C8_8 1_555 1_555
C3_8 H1_8 1_555 1_555
C4_8 C1_8 1_555 1_555
C5_8 C4_8 1_555 1_555
H2_8 C5_8 1_555 1_555
C6_8 C5_8 1_555 1_555
C7_8 C6_8 1_555 1_555
H3_8 C7_8 1_555 1_555
C8_8 C3_8 1_555 1_555
N1_8 C6_8 1_555 1_555
C9_8 N1_8 1_555 1_555
C10_8 N1_8 1_555 1_555
H5_6 C14_8 1_555 1_555
C15_8 C14_8 1_555 1_555
H6_8 C15_8 1_555 1_555
C16_8 C9_8 1_555 1_555
C17_8 C10_8 1_555 1_555
O7_8 In3_2 1_555 1_555
O8_8 In3_2 1_555 1_555
O13_6 C22_8 1_555 1_555
C21_8 O7_8 1_555 1_555
C22_8 C28_8 1_555 1_555
C23_8 H10_8 1_555 1_555
C24_8 C21_8 1_555 1_555
C25_8 C24_8 1_555 1_555
H11_8 C25_8 1_555 1_555
C28_8 C23_8 1_555 1_555
C3_8 C4_8 1_555 1_555
C7_8 C8_8 1_555 1_555
C11_8 C16_8 1_555 1_555
C11_8 C17_8 1_555 1_555
C15_8 C16_8 1_555 1_555
O8_8 C21_8 1_555 1_555
C23_8 C24_8 1_555 1_555
O11_8 C30_8 1_555 1_555
O12_8 C29_8 1_555 1_555
C27_8 C26_8 1_555 1_555
H12_8 C27_8 1_555 1_555
N2_8 C26_8 1_555 1_555
C29_8 N2_8 1_555 1_555
C30_8 N2_8 1_555 1_555
C31_8 C32_7 1_555 1_555
C32_7 C33_7 1_555 1_555
C33_7 H13_6 1_555 1_555
C34_8 C33_7 1_555 1_555
H14_7 C34_8 1_555 1_555
C35_8 C34_8 1_555 1_555
H15_8 C35_8 1_555 1_555
C36_8 C29_8 1_555 1_555
C37_8 C30_8 1_555 1_555
C38_7 C37_8 1_555 1_555
H16_7 C38_7 1_555 1_555
C39_7 C38_7 1_555 1_555
H17_7 C39_7 1_555 1_555
C40_7 C32_7 1_555 1_555
H18_7 C40_7 1_555 1_555
C31_8 C36_8 1_555 1_555
C31_8 C37_8 1_555 1_555
C35_8 C36_8 1_555 1_555
C39_7 C40_7 1_555 1_555
C12_7 C13_7 1_555 1_555
C13_7 H4_5 1_555 1_555
H7_7 C18_7 1_555 1_555
C19_7 C18_7 1_555 1_555
H8_7 C19_7 1_555 1_555
C20_7 C12_7 1_555 1_555
H9_7 C20_7 1_555 1_555
C19_7 C20_7 1_555 1_555
C32_8 C33_8 1_555 1_555
C33_8 H13_7 1_555 1_555
H16_8 C38_8 1_555 1_555
C39_8 C38_8 1_555 1_555
H17_8 C39_8 1_555 1_555
C40_8 C32_8 1_555 1_555
H18_8 C40_8 1_555 1_555
C39_8 C40_8 1_555 1_555
C12_8 C13_8 1_555 1_555
C13_8 H4_8 1_555 1_555
H7_8 C18_8 1_555 1_555
C19_8 C18_8 1_555 1_555
H8_8 C19_8 1_555 1_555
C20_8 C12_8 1_555 1_555
H9_8 C20_8 1_555 1_555
C19_8 C20_8 1_555 1_555

#END
