
###############################################################################
#
# This file contains modified crystal structure data generated from the
# MOF subset of the Cambridge Structural Database (CSD) v543 
# hosted by the Cambridge Crystallographic Data Centre (CCDC).
#
# This work is licensed under the Creative Commons
# Attribution-NonCommercial-ShareAlike 4.0 International License.
# To view a copy of this license, visit
# http://creativecommons.org/licenses/by-nc-sa/4.0/
# or send a letter to
# Creative Commons, PO Box 1866, Mountain View, CA 94042, USA.
#
# CIF created using the CSD Python API on 29 September 2022
# The structure has been converted into the P1 space group
# The structure has a 3D framework
# The original CSD entry MATTOU is in the orthorhombic crystal system
# The framework has been calculated to contain at least 10.0% void space
# The void calculation uses a probe of radius 1.32A, grid spacing 0.4
#
###############################################################################

data_MATTOU
_chemical_formula_moiety         '(C320 H144 Cs16 In13 N16 O92 8+)n'
_symmetry_cell_setting           triclinic
_symmetry_space_group_name_H-M   'P 1'
_symmetry_Int_Tables_number      1
_space_group_name_Hall           'P 1'
loop_
_symmetry_equiv_pos_site_id
_symmetry_equiv_pos_as_xyz
1 x,y,z
_cell_length_a                   18.223(4)
_cell_length_b                   19.640(4)
_cell_length_c                   27.903(6)
_cell_angle_alpha                90
_cell_angle_beta                 90
_cell_angle_gamma                90
_cell_volume                     9986.48
loop_
_atom_site_label
_atom_site_type_symbol
_atom_site_fract_x
_atom_site_fract_y
_atom_site_fract_z
In1 In 0.250000 0.250000 0.41200(5)
O1 O 0.1912(4) 0.3027(4) 0.4799(3)
O2 O 0.2869(4) 0.3459(3) 0.4428(2)
O3 O 0.0535(4) 0.4441(4) 0.5962(3)
O4 O 0.1054(3) 0.5336(3) 0.6291(2)
O5 O 0.3851(4) 0.5312(4) 0.6010(3)
O6 O 0.2924(5) 0.6059(5) 0.4598(3)
N1 N 0.3410(4) 0.5673(4) 0.5290(2)
C1 C 0.2377(5) 0.3489(5) 0.4755(3)
C2 C 0.1055(5) 0.4859(5) 0.5982(3)
C3 C 0.1746(5) 0.4205(4) 0.5368(3)
H1 H 0.137134 0.386900 0.538717
C4 C 0.2320(6) 0.4109(5) 0.5065(3)
C5 C 0.2880(5) 0.4591(5) 0.5041(3)
H2 H 0.328694 0.452414 0.483366
C6 C 0.2834(5) 0.5165(5) 0.5321(3)
C7 C 0.2229(5) 0.5279(4) 0.5626(3)
H3 H 0.218999 0.568556 0.580872
C8 C 0.1696(5) 0.4781(5) 0.5649(3)
C9 C 0.3417(5) 0.6081(5) 0.4883(3)
C10 C 0.3944(5) 0.5666(4) 0.5650(3)
C11 C 0.4652(5) 0.6516(4) 0.5159(3)
C12 C 0.5282(5) 0.6912(5) 0.5079(4)
C13 C 0.5317(5) 0.7336(6) 0.4670(4)
H4 H 0.574167 0.760545 0.461462
C14 C 0.4754(8) 0.7362(7) 0.4357(4)
H5 H 0.478351 0.765207 0.408546
C15 C 0.4109(6) 0.6954(6) 0.4433(4)
H6 H 0.371166 0.697362 0.421293
C16 C 0.4074(5) 0.6540(5) 0.4822(3)
C17 C 0.4601(5) 0.6092(5) 0.5572(3)
C18 C 0.5165(7) 0.6084(6) 0.5900(4)
H7 H 0.512850 0.581577 0.618193
C19 C 0.5796(7) 0.6477(9) 0.5812(5)
H8 H 0.618860 0.646496 0.603568
C20 C 0.5859(6) 0.6873(6) 0.5417(4)
H9 H 0.629549 0.712718 0.536666
O7 O 0.3088(4) 0.1973(4) 0.4799(3)
O8 O 0.2131(4) 0.1541(3) 0.4428(2)
O9 O 0.4465(4) 0.0559(4) 0.5962(3)
C21 C 0.2623(5) 0.1511(5) 0.4755(3)
C22 C 0.3945(5) 0.0141(5) 0.5982(3)
C23 C 0.3254(5) 0.0795(4) 0.5368(3)
H10 H 0.362866 0.113100 0.538717
C24 C 0.2680(6) 0.0891(5) 0.5065(3)
C25 C 0.2120(5) 0.0409(5) 0.5041(3)
H11 H 0.171306 0.047586 0.483366
C28 C 0.3304(5) 0.0219(5) 0.5649(3)
In2 In 0.500000 0.000000 0.66200(5)
In3 In 0.000000 0.500000 0.66200(5)
O13 O 0.3035(4) 0.3059(4) 0.3462(3)
O14 O 0.1965(4) 0.1941(4) 0.3462(3)
O15 O 0.3554(3) 0.2164(3) 0.3791(2)
O16 O 0.1446(3) 0.2836(3) 0.3791(2)
O10 O 0.3946(3) 0.9664(3) 0.6291(2)
O11 O 0.1149(4) 0.9688(4) 0.6010(3)
O12 O 0.2076(5) 0.8941(5) 0.4598(3)
N2 N 0.1590(4) 0.9327(4) 0.5290(2)
C26 C 0.2166(5) 0.9835(5) 0.5321(3)
C27 C 0.2771(5) 0.9721(4) 0.5626(3)
H12 H 0.281001 0.931444 0.580872
C29 C 0.1583(5) 0.8919(5) 0.4883(3)
C30 C 0.1056(5) 0.9334(4) 0.5650(3)
C31 C 0.0348(5) 0.8484(4) 0.5159(3)
C34 C 0.0246(8) 0.7638(7) 0.4357(4)
H14 H 0.021649 0.734793 0.408546
C35 C 0.0891(6) 0.8046(6) 0.4433(4)
H15 H 0.128834 0.802638 0.421293
C36 C 0.0926(5) 0.8460(5) 0.4822(3)
C37 C 0.0399(5) 0.8908(5) 0.5572(3)
In2_2 In 0.500000 1.000000 0.66200(5)
In3_2 In 1.000000 0.500000 0.66200(5)
O10_2 O 0.6054(3) 0.0336(3) 0.6291(2)
O11_2 O 0.8851(4) 0.0312(4) 0.6010(3)
O12_2 O 0.7924(5) 0.1059(5) 0.4598(3)
N2_2 N 0.8410(4) 0.0673(4) 0.5290(2)
C26_2 C 0.7834(5) 0.0165(5) 0.5321(3)
C27_2 C 0.7229(5) 0.0279(4) 0.5626(3)
H12_2 H 0.718999 0.068556 0.580872
C29_2 C 0.8417(5) 0.1081(5) 0.4883(3)
C30_2 C 0.8944(5) 0.0666(4) 0.5650(3)
C31_2 C 0.9652(5) 0.1516(4) 0.5159(3)
C34_2 C 0.9754(8) 0.2362(7) 0.4357(4)
H14_2 H 0.978351 0.265207 0.408546
C35_2 C 0.9109(6) 0.1954(6) 0.4433(4)
H15_2 H 0.871166 0.197362 0.421293
C36_2 C 0.9074(5) 0.1540(5) 0.4822(3)
C37_2 C 0.9601(5) 0.1092(5) 0.5572(3)
In1_2 In 0.750000 0.750000 0.41200(5)
O1_2 O 0.8088(4) 0.6973(4) 0.4799(3)
O2_2 O 0.7131(4) 0.6541(3) 0.4428(2)
O3_2 O 0.9465(4) 0.5559(4) 0.5962(3)
O4_2 O 0.8946(3) 0.4664(3) 0.6291(2)
O5_2 O 0.6149(4) 0.4688(4) 0.6010(3)
O6_2 O 0.7076(5) 0.3941(5) 0.4598(3)
N1_2 N 0.6590(4) 0.4327(4) 0.5290(2)
C1_2 C 0.7623(5) 0.6511(5) 0.4755(3)
C2_2 C 0.8945(5) 0.5141(5) 0.5982(3)
C3_2 C 0.8254(5) 0.5795(4) 0.5368(3)
H1_2 H 0.862866 0.613100 0.538717
C4_2 C 0.7680(6) 0.5891(5) 0.5065(3)
C5_2 C 0.7120(5) 0.5409(5) 0.5041(3)
H2_2 H 0.671306 0.547586 0.483366
C6_2 C 0.7166(5) 0.4835(5) 0.5321(3)
C7_2 C 0.7771(5) 0.4721(4) 0.5626(3)
H3_2 H 0.781001 0.431444 0.580872
C8_2 C 0.8304(5) 0.5219(5) 0.5649(3)
C9_2 C 0.6583(5) 0.3919(5) 0.4883(3)
C10_2 C 0.6056(5) 0.4334(4) 0.5650(3)
C11_2 C 0.5348(5) 0.3484(4) 0.5159(3)
C12_2 C 0.4718(5) 0.3088(5) 0.5079(4)
C13_2 C 0.4683(5) 0.2664(6) 0.4670(4)
H4_2 H 0.425833 0.239455 0.461462
C14_2 C 0.5246(8) 0.2638(7) 0.4357(4)
H5_2 H 0.521649 0.234793 0.408546
C15_2 C 0.5891(6) 0.3046(6) 0.4433(4)
H6_2 H 0.628834 0.302638 0.421293
C16_2 C 0.5926(5) 0.3460(5) 0.4822(3)
C17_2 C 0.5399(5) 0.3908(5) 0.5572(3)
C18_2 C 0.4835(7) 0.3916(6) 0.5900(4)
H7_2 H 0.487150 0.418423 0.618193
C19_2 C 0.4204(7) 0.3523(9) 0.5812(5)
H8_2 H 0.381140 0.353504 0.603568
C20_2 C 0.4141(6) 0.3127(6) 0.5417(4)
H9_2 H 0.370451 0.287282 0.536666
O7_2 O 0.6912(4) 0.8027(4) 0.4799(3)
O8_2 O 0.7869(4) 0.8459(3) 0.4428(2)
O9_2 O 0.5535(4) 0.9441(4) 0.5962(3)
C21_2 C 0.7377(5) 0.8489(5) 0.4755(3)
C22_2 C 0.6055(5) 0.9859(5) 0.5982(3)
C23_2 C 0.6746(5) 0.9205(4) 0.5368(3)
H10_2 H 0.637134 0.886900 0.538717
C24_2 C 0.7320(6) 0.9109(5) 0.5065(3)
C25_2 C 0.7880(5) 0.9591(5) 0.5041(3)
H11_2 H 0.828694 0.952414 0.483366
C28_2 C 0.6696(5) 0.9781(5) 0.5649(3)
O13_2 O 0.6965(4) 0.6941(4) 0.3462(3)
O14_2 O 0.8035(4) 0.8059(4) 0.3462(3)
O15_2 O 0.6446(3) 0.7836(3) 0.3791(2)
O16_2 O 0.8554(3) 0.7164(3) 0.3791(2)
O7_3 O 0.5588(4) 0.0527(4) 0.7299(3)
O8_3 O 0.4631(4) 0.0959(3) 0.6928(2)
O9_3 O 0.6965(4) 0.1941(4) 0.8462(3)
O10_3 O 0.6446(3) 0.2836(3) 0.8791(2)
O11_3 O 0.3649(4) 0.2812(4) 0.8510(3)
O12_3 O 0.4576(5) 0.3559(5) 0.7098(3)
N2_3 N 0.4090(4) 0.3173(4) 0.7790(2)
C21_3 C 0.5123(5) 0.0989(5) 0.7255(3)
C22_3 C 0.6445(5) 0.2359(5) 0.8482(3)
C23_3 C 0.5754(5) 0.1705(4) 0.7868(3)
H10_3 H 0.612866 0.136900 0.788717
C24_3 C 0.5180(6) 0.1609(5) 0.7565(3)
C25_3 C 0.4620(5) 0.2091(5) 0.7541(3)
H11_3 H 0.421306 0.202414 0.733366
C26_3 C 0.4666(5) 0.2665(5) 0.7821(3)
C27_3 C 0.5271(5) 0.2779(4) 0.8126(3)
H12_3 H 0.531001 0.318556 0.830872
C28_3 C 0.5804(5) 0.2281(5) 0.8149(3)
C29_3 C 0.4083(5) 0.3581(5) 0.7383(3)
C30_3 C 0.3556(5) 0.3166(4) 0.8150(3)
C31_3 C 0.2848(5) 0.4016(4) 0.7659(3)
C32 C 0.2218(5) 0.4412(5) 0.7579(4)
C33 C 0.2183(5) 0.4836(6) 0.7170(4)
H13 H 0.175833 0.510545 0.711462
C34_3 C 0.2746(8) 0.4862(7) 0.6857(4)
H14_3 H 0.271649 0.515207 0.658546
C35_3 C 0.3391(6) 0.4454(6) 0.6933(4)
H15_3 H 0.378834 0.447362 0.671293
C36_3 C 0.3426(5) 0.4040(5) 0.7322(3)
C37_3 C 0.2899(5) 0.3592(5) 0.8072(3)
C38 C 0.2335(7) 0.3584(6) 0.8400(4)
H16 H 0.237150 0.331577 0.868193
C39 C 0.1704(7) 0.3977(9) 0.8312(5)
H17 H 0.131140 0.396496 0.853568
C40 C 0.1641(6) 0.4373(6) 0.7917(4)
H18 H 0.120451 0.462718 0.786666
In2_3 In 0.750000 0.250000 0.91200(5)
O1_3 O 0.4412(4) 0.9473(4) 0.7299(3)
O2_3 O 0.5369(4) 0.9041(3) 0.6928(2)
O3_3 O 0.3035(4) 0.8059(4) 0.8462(3)
O4_3 O 0.3554(3) 0.7164(3) 0.8791(2)
O5_3 O 0.6351(4) 0.7188(4) 0.8510(3)
O6_3 O 0.5424(5) 0.6441(5) 0.7098(3)
N1_3 N 0.5910(4) 0.6827(4) 0.7790(2)
C1_3 C 0.4877(5) 0.9011(5) 0.7255(3)
C2_3 C 0.3555(5) 0.7641(5) 0.8482(3)
C3_3 C 0.4246(5) 0.8295(4) 0.7868(3)
H1_3 H 0.387134 0.863100 0.788717
C4_3 C 0.4820(6) 0.8391(5) 0.7565(3)
C5_3 C 0.5380(5) 0.7909(5) 0.7541(3)
H2_3 H 0.578694 0.797586 0.733366
C6_3 C 0.5334(5) 0.7335(5) 0.7821(3)
C7_3 C 0.4729(5) 0.7221(4) 0.8126(3)
H3_3 H 0.468999 0.681444 0.830872
C8_3 C 0.4196(5) 0.7719(5) 0.8149(3)
C9_3 C 0.5917(5) 0.6419(5) 0.7383(3)
C10_3 C 0.6444(5) 0.6834(4) 0.8150(3)
C11_3 C 0.7152(5) 0.5984(4) 0.7659(3)
C12_3 C 0.7782(5) 0.5588(5) 0.7579(4)
C13_3 C 0.7817(5) 0.5164(6) 0.7170(4)
H4_3 H 0.824167 0.489455 0.711462
C14_3 C 0.7254(8) 0.5138(7) 0.6857(4)
H5_3 H 0.728351 0.484793 0.658546
C15_3 C 0.6609(6) 0.5546(6) 0.6933(4)
H6_3 H 0.621166 0.552638 0.671293
C16_3 C 0.6574(5) 0.5960(5) 0.7322(3)
C17_3 C 0.7101(5) 0.6408(5) 0.8072(3)
C18_3 C 0.7665(7) 0.6416(6) 0.8400(4)
H7_3 H 0.762850 0.668423 0.868193
C19_3 C 0.8296(7) 0.6023(9) 0.8312(5)
H8_3 H 0.868860 0.603504 0.853568
C20_3 C 0.8359(6) 0.5627(6) 0.7917(4)
H9_3 H 0.879549 0.537282 0.786666
In3_3 In 0.250000 0.750000 0.91200(5)
O1_4 O 0.0588(4) 0.5527(4) 0.7299(3)
O3_4 O 0.1965(4) 0.6941(4) 0.8462(3)
O4_4 O 0.1446(3) 0.7836(3) 0.8791(2)
C1_4 C 0.0123(5) 0.5989(5) 0.7255(3)
C2_4 C 0.1445(5) 0.7359(5) 0.8482(3)
C3_4 C 0.0754(5) 0.6705(4) 0.7868(3)
H1_4 H 0.112866 0.636900 0.788717
C4_4 C 0.0180(6) 0.6609(5) 0.7565(3)
C7_4 C 0.0271(5) 0.7779(4) 0.8126(3)
H3_4 H 0.031001 0.818556 0.830872
C8_4 C 0.0804(5) 0.7281(5) 0.8149(3)
O8_4 O 0.0369(4) 0.4041(3) 0.6928(2)
O11_4 O 0.1351(4) 0.2188(4) 0.8510(3)
O12_4 O 0.0424(5) 0.1441(5) 0.7098(3)
N2_4 N 0.0910(4) 0.1827(4) 0.7790(2)
C25_4 C 0.0380(5) 0.2909(5) 0.7541(3)
H11_4 H 0.078694 0.297586 0.733366
C26_4 C 0.0334(5) 0.2335(5) 0.7821(3)
C29_4 C 0.0917(5) 0.1419(5) 0.7383(3)
C30_4 C 0.1444(5) 0.1834(4) 0.8150(3)
C31_4 C 0.2152(5) 0.0984(4) 0.7659(3)
C32_2 C 0.2782(5) 0.0588(5) 0.7579(4)
C33_2 C 0.2817(5) 0.0164(6) 0.7170(4)
C34_4 C 0.2254(8) 0.0138(7) 0.6857(4)
C35_4 C 0.1609(6) 0.0546(6) 0.6933(4)
H15_4 H 0.121166 0.052638 0.671293
C36_4 C 0.1574(5) 0.0960(5) 0.7322(3)
C37_4 C 0.2101(5) 0.1408(5) 0.8072(3)
C38_2 C 0.2665(7) 0.1416(6) 0.8400(4)
H16_2 H 0.262850 0.168423 0.868193
C39_2 C 0.3296(7) 0.1023(9) 0.8312(5)
H17_2 H 0.368860 0.103504 0.853568
C40_2 C 0.3359(6) 0.0627(6) 0.7917(4)
H18_2 H 0.379549 0.037282 0.786666
O2_4 O 0.9631(4) 0.5959(3) 0.6928(2)
O5_4 O 0.8649(4) 0.7812(4) 0.8510(3)
O6_4 O 0.9576(5) 0.8559(5) 0.7098(3)
N1_4 N 0.9090(4) 0.8173(4) 0.7790(2)
C5_4 C 0.9620(5) 0.7091(5) 0.7541(3)
H2_4 H 0.921306 0.702414 0.733366
C6_4 C 0.9666(5) 0.7665(5) 0.7821(3)
C9_4 C 0.9083(5) 0.8581(5) 0.7383(3)
C10_4 C 0.8556(5) 0.8166(4) 0.8150(3)
C11_4 C 0.7848(5) 0.9016(4) 0.7659(3)
C12_4 C 0.7218(5) 0.9412(5) 0.7579(4)
C13_4 C 0.7183(5) 0.9836(6) 0.7170(4)
C14_4 C 0.7746(8) 0.9862(7) 0.6857(4)
C15_4 C 0.8391(6) 0.9454(6) 0.6933(4)
H6_4 H 0.878834 0.947362 0.671293
C16_4 C 0.8426(5) 0.9040(5) 0.7322(3)
C17_4 C 0.7899(5) 0.8592(5) 0.8072(3)
C18_4 C 0.7335(7) 0.8584(6) 0.8400(4)
H7_4 H 0.737150 0.831577 0.868193
C19_4 C 0.6704(7) 0.8977(9) 0.8312(5)
H8_4 H 0.631140 0.896496 0.853568
C20_4 C 0.6641(6) 0.9373(6) 0.7917(4)
H9_4 H 0.620451 0.962718 0.786666
O7_4 O 0.9412(4) 0.4473(4) 0.7299(3)
O9_4 O 0.8035(4) 0.3059(4) 0.8462(3)
O10_4 O 0.8554(3) 0.2164(3) 0.8791(2)
C21_4 C 0.9877(5) 0.4011(5) 0.7255(3)
C22_4 C 0.8555(5) 0.2641(5) 0.8482(3)
C23_4 C 0.9246(5) 0.3295(4) 0.7868(3)
H10_4 H 0.887134 0.363100 0.788717
C24_4 C 0.9820(6) 0.3391(5) 0.7565(3)
C27_4 C 0.9729(5) 0.2221(4) 0.8126(3)
H12_4 H 0.968999 0.181444 0.830872
C28_4 C 0.9196(5) 0.2719(5) 0.8149(3)
O4_5 O 0.1054(3) 0.0336(3) 0.1291(2)
O5_5 O 0.3851(4) 0.0312(4) 0.1010(3)
N1_5 N 0.3410(4) 0.0673(4) 0.0290(2)
C6_5 C 0.2834(5) 0.0165(5) 0.0321(3)
C7_5 C 0.2229(5) 0.0279(4) 0.0626(3)
H3_5 H 0.218999 0.068556 0.080872
C10_5 C 0.3944(5) 0.0666(4) 0.0650(3)
C11_5 C 0.4652(5) 0.1516(4) 0.0159(3)
C12_5 C 0.5282(5) 0.1912(5) 0.0079(4)
C17_5 C 0.4601(5) 0.1092(5) 0.0572(3)
C18_5 C 0.5165(7) 0.1084(6) 0.0900(4)
H7_5 H 0.512850 0.081577 0.118193
C19_5 C 0.5796(7) 0.1477(9) 0.0812(5)
H8_5 H 0.618860 0.146496 0.103568
C20_5 C 0.5859(6) 0.1873(6) 0.0417(4)
H9_5 H 0.629549 0.212718 0.036666
In3_4 In 0.000000 0.000000 0.16200(5)
O3_5 O 0.0535(4) 0.9441(4) 0.0962(3)
C2_5 C 0.1055(5) 0.9859(5) 0.0982(3)
C3_5 C 0.1746(5) 0.9205(4) 0.0368(3)
H1_5 H 0.137134 0.886900 0.038717
C4_5 C 0.2320(6) 0.9109(5) 0.0065(3)
C5_5 C 0.2880(5) 0.9591(5) 0.0041(3)
C8_5 C 0.1696(5) 0.9781(5) 0.0649(3)
O9_5 O 0.4465(4) 0.5559(4) 0.0962(3)
O10_5 O 0.3946(3) 0.4664(3) 0.1291(2)
O11_5 O 0.1149(4) 0.4688(4) 0.1010(3)
N2_5 N 0.1590(4) 0.4327(4) 0.0290(2)
C22_5 C 0.3945(5) 0.5141(5) 0.0982(3)
C23_5 C 0.3254(5) 0.5795(4) 0.0368(3)
H10_5 H 0.362866 0.613100 0.038717
C24_5 C 0.2680(6) 0.5891(5) 0.0065(3)
C25_5 C 0.2120(5) 0.5409(5) 0.0041(3)
C26_5 C 0.2166(5) 0.4835(5) 0.0321(3)
C27_5 C 0.2771(5) 0.4721(4) 0.0626(3)
H12_5 H 0.281001 0.431444 0.080872
C28_5 C 0.3304(5) 0.5219(5) 0.0649(3)
C30_5 C 0.1056(5) 0.4334(4) 0.0650(3)
C31_5 C 0.0348(5) 0.3484(4) 0.0159(3)
C37_5 C 0.0399(5) 0.3908(5) 0.0572(3)
In2_4 In 0.500000 0.500000 0.16200(5)
In3_5 In 0.000000 1.000000 0.16200(5)
O1_5 O 0.1912(4) 0.8027(4) 0.9799(3)
O2_5 O 0.2869(4) 0.8459(3) 0.9428(2)
C1_5 C 0.2377(5) 0.8489(5) 0.9755(3)
H2_5 H 0.328694 0.952414 0.983366
O7_5 O 0.3088(4) 0.6973(4) 0.9799(3)
O8_5 O 0.2131(4) 0.6541(3) 0.9428(2)
O12_5 O 0.2076(5) 0.3941(5) 0.9598(3)
C21_5 C 0.2623(5) 0.6511(5) 0.9755(3)
H11_5 H 0.171306 0.547586 0.983366
C29_5 C 0.1583(5) 0.3919(5) 0.9883(3)
C34_5 C 0.0246(8) 0.2638(7) 0.9357(4)
H14_4 H 0.021649 0.234793 0.908546
C35_5 C 0.0891(6) 0.3046(6) 0.9433(4)
H15_5 H 0.128834 0.302638 0.921293
C36_5 C 0.0926(5) 0.3460(5) 0.9822(3)
In3_6 In 1.000000 0.000000 0.16200(5)
C32_3 C 0.9718(5) 0.3088(5) 0.0079(4)
C38_3 C 0.9835(7) 0.3916(6) 0.0900(4)
H16_3 H 0.987150 0.418423 0.118193
C39_3 C 0.9204(7) 0.3523(9) 0.0812(5)
H17_3 H 0.881140 0.353504 0.103568
C40_3 C 0.9141(6) 0.3127(6) 0.0417(4)
H18_3 H 0.870451 0.287282 0.036666
In3_7 In 1.000000 1.000000 0.16200(5)
C32_4 C 0.0282(5) 0.6912(5) 0.0079(4)
C38_4 C 0.0165(7) 0.6084(6) 0.0900(4)
H16_4 H 0.012850 0.581577 0.118193
C39_4 C 0.0796(7) 0.6477(9) 0.0812(5)
H17_4 H 0.118860 0.646496 0.103568
C40_4 C 0.0859(6) 0.6873(6) 0.0417(4)
H18_4 H 0.129549 0.712718 0.036666
O3_6 O 0.9465(4) 0.0559(4) 0.0962(3)
C2_6 C 0.8945(5) 0.0141(5) 0.0982(3)
C3_6 C 0.8254(5) 0.0795(4) 0.0368(3)
H1_6 H 0.862866 0.113100 0.038717
C4_6 C 0.7680(6) 0.0891(5) 0.0065(3)
C5_6 C 0.7120(5) 0.0409(5) 0.0041(3)
C8_6 C 0.8304(5) 0.0219(5) 0.0649(3)
O9_6 O 0.5535(4) 0.4441(4) 0.0962(3)
O10_6 O 0.6054(3) 0.5336(3) 0.1291(2)
O11_6 O 0.8851(4) 0.5312(4) 0.1010(3)
N2_6 N 0.8410(4) 0.5673(4) 0.0290(2)
C22_6 C 0.6055(5) 0.4859(5) 0.0982(3)
C23_6 C 0.6746(5) 0.4205(4) 0.0368(3)
H10_6 H 0.637134 0.386900 0.038717
C24_6 C 0.7320(6) 0.4109(5) 0.0065(3)
C25_6 C 0.7880(5) 0.4591(5) 0.0041(3)
C26_6 C 0.7834(5) 0.5165(5) 0.0321(3)
C27_6 C 0.7229(5) 0.5279(4) 0.0626(3)
H12_6 H 0.718999 0.568556 0.080872
C28_6 C 0.6696(5) 0.4781(5) 0.0649(3)
C30_6 C 0.8944(5) 0.5666(4) 0.0650(3)
C31_6 C 0.9652(5) 0.6516(4) 0.0159(3)
C37_6 C 0.9601(5) 0.6092(5) 0.0572(3)
O1_6 O 0.8088(4) 0.1973(4) 0.9799(3)
O2_6 O 0.7131(4) 0.1541(3) 0.9428(2)
C1_6 C 0.7623(5) 0.1511(5) 0.9755(3)
H2_6 H 0.671306 0.047586 0.983366
O7_6 O 0.6912(4) 0.3027(4) 0.9799(3)
O8_6 O 0.7869(4) 0.3459(3) 0.9428(2)
O12_6 O 0.7924(5) 0.6059(5) 0.9598(3)
C21_6 C 0.7377(5) 0.3489(5) 0.9755(3)
H11_6 H 0.828694 0.452414 0.983366
C29_6 C 0.8417(5) 0.6081(5) 0.9883(3)
C34_6 C 0.9754(8) 0.7362(7) 0.9357(4)
H14_5 H 0.978351 0.765207 0.908546
C35_6 C 0.9109(6) 0.6954(6) 0.9433(4)
H15_6 H 0.871166 0.697362 0.921293
C36_6 C 0.9074(5) 0.6540(5) 0.9822(3)
O4_6 O 0.8946(3) 0.9664(3) 0.1291(2)
O5_6 O 0.6149(4) 0.9688(4) 0.1010(3)
N1_6 N 0.6590(4) 0.9327(4) 0.0290(2)
C6_6 C 0.7166(5) 0.9835(5) 0.0321(3)
C7_6 C 0.7771(5) 0.9721(4) 0.0626(3)
H3_6 H 0.781001 0.931444 0.080872
C10_6 C 0.6056(5) 0.9334(4) 0.0650(3)
C11_6 C 0.5348(5) 0.8484(4) 0.0159(3)
C12_6 C 0.4718(5) 0.8088(5) 0.0079(4)
C17_6 C 0.5399(5) 0.8908(5) 0.0572(3)
C18_6 C 0.4835(7) 0.8916(6) 0.0900(4)
H7_6 H 0.487150 0.918423 0.118193
C19_6 C 0.4204(7) 0.8523(9) 0.0812(5)
H8_6 H 0.381140 0.853504 0.103568
C20_6 C 0.4141(6) 0.8127(6) 0.0417(4)
H9_6 H 0.370451 0.787282 0.036666
O1_7 O 0.4412(4) 0.4473(4) 0.2299(3)
O2_7 O 0.5369(4) 0.4041(3) 0.1928(2)
O5_7 O 0.6351(4) 0.2188(4) 0.3510(3)
O6_5 O 0.5424(5) 0.1441(5) 0.2098(3)
N1_7 N 0.5910(4) 0.1827(4) 0.2790(2)
C1_7 C 0.4877(5) 0.4011(5) 0.2255(3)
C2_7 C 0.3555(5) 0.2641(5) 0.3482(3)
C3_7 C 0.4246(5) 0.3295(4) 0.2868(3)
H1_7 H 0.387134 0.363100 0.288717
C4_7 C 0.4820(6) 0.3391(5) 0.2565(3)
C5_7 C 0.5380(5) 0.2909(5) 0.2541(3)
H2_7 H 0.578694 0.297586 0.233366
C6_7 C 0.5334(5) 0.2335(5) 0.2821(3)
C7_7 C 0.4729(5) 0.2221(4) 0.3126(3)
H3_7 H 0.468999 0.181444 0.330872
C8_7 C 0.4196(5) 0.2719(5) 0.3149(3)
C9_5 C 0.5917(5) 0.1419(5) 0.2383(3)
C10_7 C 0.6444(5) 0.1834(4) 0.3150(3)
C11_7 C 0.7152(5) 0.0984(4) 0.2659(3)
C12_7 C 0.7782(5) 0.0588(5) 0.2579(4)
C13_5 C 0.7817(5) 0.0164(6) 0.2170(4)
C14_5 C 0.7254(8) 0.0138(7) 0.1857(4)
C15_5 C 0.6609(6) 0.0546(6) 0.1933(4)
H6_5 H 0.621166 0.052638 0.171293
C16_5 C 0.6574(5) 0.0960(5) 0.2322(3)
C17_7 C 0.7101(5) 0.1408(5) 0.3072(3)
C18_7 C 0.7665(7) 0.1416(6) 0.3400(4)
H7_7 H 0.762850 0.168423 0.368193
C19_7 C 0.8296(7) 0.1023(9) 0.3312(5)
H8_7 H 0.868860 0.103504 0.353568
C20_7 C 0.8359(6) 0.0627(6) 0.2917(4)
H9_7 H 0.879549 0.037282 0.286666
O7_7 O 0.5588(4) 0.5527(4) 0.2299(3)
O8_7 O 0.4631(4) 0.5959(3) 0.1928(2)
O11_7 O 0.3649(4) 0.7812(4) 0.3510(3)
O12_7 O 0.4576(5) 0.8559(5) 0.2098(3)
N2_7 N 0.4090(4) 0.8173(4) 0.2790(2)
C21_7 C 0.5123(5) 0.5989(5) 0.2255(3)
C22_7 C 0.6445(5) 0.7359(5) 0.3482(3)
C23_7 C 0.5754(5) 0.6705(4) 0.2868(3)
H10_7 H 0.612866 0.636900 0.288717
C24_7 C 0.5180(6) 0.6609(5) 0.2565(3)
C25_7 C 0.4620(5) 0.7091(5) 0.2541(3)
H11_7 H 0.421306 0.702414 0.233366
C26_7 C 0.4666(5) 0.7665(5) 0.2821(3)
C27_7 C 0.5271(5) 0.7779(4) 0.3126(3)
H12_7 H 0.531001 0.818556 0.330872
C28_7 C 0.5804(5) 0.7281(5) 0.3149(3)
C29_7 C 0.4083(5) 0.8581(5) 0.2383(3)
C30_7 C 0.3556(5) 0.8166(4) 0.3150(3)
C31_7 C 0.2848(5) 0.9016(4) 0.2659(3)
C32_5 C 0.2218(5) 0.9412(5) 0.2579(4)
C33_3 C 0.2183(5) 0.9836(6) 0.2170(4)
C34_7 C 0.2746(8) 0.9862(7) 0.1857(4)
C35_7 C 0.3391(6) 0.9454(6) 0.1933(4)
H15_7 H 0.378834 0.947362 0.171293
C36_7 C 0.3426(5) 0.9040(5) 0.2322(3)
C37_7 C 0.2899(5) 0.8592(5) 0.3072(3)
C38_5 C 0.2335(7) 0.8584(6) 0.3400(4)
H16_5 H 0.237150 0.831577 0.368193
C39_5 C 0.1704(7) 0.8977(9) 0.3312(5)
H17_5 H 0.131140 0.896496 0.353568
C40_5 C 0.1641(6) 0.9373(6) 0.2917(4)
H18_5 H 0.120451 0.962718 0.286666
O1_8 O 0.0588(4) 0.0527(4) 0.2299(3)
C1_8 C 0.0123(5) 0.0989(5) 0.2255(3)
C2_8 C 0.1445(5) 0.2359(5) 0.3482(3)
C3_8 C 0.0754(5) 0.1705(4) 0.2868(3)
H1_8 H 0.112866 0.136900 0.288717
C4_8 C 0.0180(6) 0.1609(5) 0.2565(3)
C7_8 C 0.0271(5) 0.2779(4) 0.3126(3)
H3_8 H 0.031001 0.318556 0.330872
C8_8 C 0.0804(5) 0.2281(5) 0.3149(3)
O8_8 O 0.0369(4) 0.9041(3) 0.1928(2)
O11_8 O 0.1351(4) 0.7188(4) 0.3510(3)
O12_8 O 0.0424(5) 0.6441(5) 0.2098(3)
N2_8 N 0.0910(4) 0.6827(4) 0.2790(2)
C25_8 C 0.0380(5) 0.7909(5) 0.2541(3)
H11_8 H 0.078694 0.797586 0.233366
C26_8 C 0.0334(5) 0.7335(5) 0.2821(3)
C29_8 C 0.0917(5) 0.6419(5) 0.2383(3)
C30_8 C 0.1444(5) 0.6834(4) 0.3150(3)
C31_8 C 0.2152(5) 0.5984(4) 0.2659(3)
C32_6 C 0.2782(5) 0.5588(5) 0.2579(4)
C33_4 C 0.2817(5) 0.5164(6) 0.2170(4)
H13_2 H 0.324167 0.489455 0.211462
C34_8 C 0.2254(8) 0.5138(7) 0.1857(4)
H14_6 H 0.228351 0.484793 0.158546
C35_8 C 0.1609(6) 0.5546(6) 0.1933(4)
H15_8 H 0.121166 0.552638 0.171293
C36_8 C 0.1574(5) 0.5960(5) 0.2322(3)
C37_8 C 0.2101(5) 0.6408(5) 0.3072(3)
C38_6 C 0.2665(7) 0.6416(6) 0.3400(4)
H16_6 H 0.262850 0.668423 0.368193
C39_6 C 0.3296(7) 0.6023(9) 0.3312(5)
H17_6 H 0.368860 0.603504 0.353568
C40_6 C 0.3359(6) 0.5627(6) 0.2917(4)
H18_6 H 0.379549 0.537282 0.286666
O2_8 O 0.9631(4) 0.0959(3) 0.1928(2)
O5_8 O 0.8649(4) 0.2812(4) 0.3510(3)
O6_6 O 0.9576(5) 0.3559(5) 0.2098(3)
N1_8 N 0.9090(4) 0.3173(4) 0.2790(2)
C5_8 C 0.9620(5) 0.2091(5) 0.2541(3)
H2_8 H 0.921306 0.202414 0.233366
C6_8 C 0.9666(5) 0.2665(5) 0.2821(3)
C9_6 C 0.9083(5) 0.3581(5) 0.2383(3)
C10_8 C 0.8556(5) 0.3166(4) 0.3150(3)
C11_8 C 0.7848(5) 0.4016(4) 0.2659(3)
C12_8 C 0.7218(5) 0.4412(5) 0.2579(4)
C13_6 C 0.7183(5) 0.4836(6) 0.2170(4)
H4_4 H 0.675833 0.510545 0.211462
C14_6 C 0.7746(8) 0.4862(7) 0.1857(4)
H5_4 H 0.771649 0.515207 0.158546
C15_6 C 0.8391(6) 0.4454(6) 0.1933(4)
H6_6 H 0.878834 0.447362 0.171293
C16_6 C 0.8426(5) 0.4040(5) 0.2322(3)
C17_8 C 0.7899(5) 0.3592(5) 0.3072(3)
C18_8 C 0.7335(7) 0.3584(6) 0.3400(4)
H7_8 H 0.737150 0.331577 0.368193
C19_8 C 0.6704(7) 0.3977(9) 0.3312(5)
H8_8 H 0.631140 0.396496 0.353568
C20_8 C 0.6641(6) 0.4373(6) 0.2917(4)
H9_8 H 0.620451 0.462718 0.286666
O7_8 O 0.9412(4) 0.9473(4) 0.2299(3)
C21_8 C 0.9877(5) 0.9011(5) 0.2255(3)
C22_8 C 0.8555(5) 0.7641(5) 0.3482(3)
C23_8 C 0.9246(5) 0.8295(4) 0.2868(3)
H10_8 H 0.887134 0.863100 0.288717
C24_8 C 0.9820(6) 0.8391(5) 0.2565(3)
C27_8 C 0.9729(5) 0.7221(4) 0.3126(3)
H12_8 H 0.968999 0.681444 0.330872
C28_8 C 0.9196(5) 0.7719(5) 0.3149(3)
C32_7 C 0.9718(5) 0.8088(5) 0.5079(4)
C33_5 C 0.9683(5) 0.7664(6) 0.4670(4)
H13_3 H 0.925833 0.739455 0.461462
C38_7 C 0.9835(7) 0.8916(6) 0.5900(4)
H16_7 H 0.987150 0.918423 0.618193
C39_7 C 0.9204(7) 0.8523(9) 0.5812(5)
H17_7 H 0.881140 0.853504 0.603568
C40_7 C 0.9141(6) 0.8127(6) 0.5417(4)
H18_7 H 0.870451 0.787282 0.536666
C32_8 C 0.0282(5) 0.1912(5) 0.5079(4)
C33_6 C 0.0317(5) 0.2336(6) 0.4670(4)
H13_4 H 0.074167 0.260545 0.461462
C38_8 C 0.0165(7) 0.1084(6) 0.5900(4)
H16_8 H 0.012850 0.081577 0.618193
C39_8 C 0.0796(7) 0.1477(9) 0.5812(5)
H17_8 H 0.118860 0.146496 0.603568
C40_8 C 0.0859(6) 0.1873(6) 0.5417(4)
H18_8 H 0.129549 0.212718 0.536666
H13_5 H 0.324167 0.989455 0.711462
H14_7 H 0.228351 0.984793 0.658546
H4_5 H 0.675833 0.010545 0.711462
H5_5 H 0.771649 0.015207 0.658546
O6_7 O 0.2924(5) 0.1059(5) 0.9598(3)
C9_7 C 0.3417(5) 0.1081(5) 0.9883(3)
C13_7 C 0.5317(5) 0.2336(6) 0.9670(4)
H4_6 H 0.574167 0.260545 0.961462
C14_7 C 0.4754(8) 0.2362(7) 0.9357(4)
H5_6 H 0.478351 0.265207 0.908546
C15_7 C 0.4109(6) 0.1954(6) 0.9433(4)
H6_7 H 0.371166 0.197362 0.921293
C16_7 C 0.4074(5) 0.1540(5) 0.9822(3)
C33_7 C 0.9683(5) 0.2664(6) 0.9670(4)
H13_6 H 0.925833 0.239455 0.961462
C33_8 C 0.0317(5) 0.7336(6) 0.9670(4)
H13_7 H 0.074167 0.760545 0.961462
O6_8 O 0.7076(5) 0.8941(5) 0.9598(3)
C9_8 C 0.6583(5) 0.8919(5) 0.9883(3)
C13_8 C 0.4683(5) 0.7664(6) 0.9670(4)
H4_7 H 0.425833 0.739455 0.961462
C14_8 C 0.5246(8) 0.7638(7) 0.9357(4)
H5_7 H 0.521649 0.734793 0.908546
C15_8 C 0.5891(6) 0.8046(6) 0.9433(4)
H6_8 H 0.628834 0.802638 0.921293
C16_8 C 0.5926(5) 0.8460(5) 0.9822(3)
H13_8 H 0.175833 0.010545 0.211462
H14_8 H 0.271649 0.015207 0.158546
H4_8 H 0.824167 0.989455 0.211462
H5_8 H 0.728351 0.984793 0.158546
Cs1 Cs 0.2447(2) 0.4572(2) 0.37143(17)
Cs1_2 Cs 0.7553(2) 0.5428(2) 0.37143(17)
Cs1_3 Cs 0.4947(2) 0.7928(2) 0.62143(17)
Cs1_4 Cs 0.0053(2) 0.7072(2) 0.62143(17)
Cs1_5 Cs 0.2447(2) 0.9572(2) 0.87143(17)
Cs1_6 Cs 0.7553(2) 0.0428(2) 0.87143(17)
Cs1_7 Cs 0.4947(2) 0.2928(2) 0.12143(17)
Cs1_8 Cs 0.0053(2) 0.2072(2) 0.12143(17)
Cs1_9 Cs 0.7447(2) 0.4572(2) 0.87143(17)
Cs1_10 Cs 0.2553(2) 0.5428(2) 0.87143(17)
Cs1_11 Cs 0.9947(2) 0.7928(2) 0.12143(17)
Cs1_12 Cs 0.5053(2) 0.7072(2) 0.12143(17)
Cs1_13 Cs 0.7447(2) 0.9572(2) 0.37143(17)
Cs1_14 Cs 0.2553(2) 0.0428(2) 0.37143(17)
Cs1_15 Cs 0.9947(2) 0.2928(2) 0.62143(17)
Cs1_16 Cs 0.5053(2) 0.2072(2) 0.62143(17)
loop_
_geom_bond_atom_site_label_1
_geom_bond_atom_site_label_2
_geom_bond_site_symmetry_1
_geom_bond_site_symmetry_2
In1 O1 1_555 1_555
O1 C1 1_555 1_555
O2 In1 1_555 1_555
O3 C2 1_555 1_555
O4 C2 1_555 1_555
O5 C10 1_555 1_555
O6 C9 1_555 1_555
N1 C6 1_555 1_555
C1 O2 1_555 1_555
C2 C8 1_555 1_555
C3 H1 1_555 1_555
C4 C1 1_555 1_555
C5 C4 1_555 1_555
H2 C5 1_555 1_555
C6 C5 1_555 1_555
C7 C6 1_555 1_555
H3 C7 1_555 1_555
C8 C3 1_555 1_555
C9 N1 1_555 1_555
C10 N1 1_555 1_555
C11 C12 1_555 1_555
C12 C13 1_555 1_555
C13 H4 1_555 1_555
C14 C13 1_555 1_555
H5 C14 1_555 1_555
C15 C14 1_555 1_555
H6 C15 1_555 1_555
C16 C9 1_555 1_555
C17 C10 1_555 1_555
C18 C17 1_555 1_555
H7 C18 1_555 1_555
C19 C18 1_555 1_555
H8 C19 1_555 1_555
C20 C12 1_555 1_555
H9 C20 1_555 1_555
O7 In1 1_555 1_555
O8 In1 1_555 1_555
O9 C22 1_555 1_555
C21 O7 1_555 1_555
C22 C28 1_555 1_555
C23 H10 1_555 1_555
C24 C21 1_555 1_555
C25 C24 1_555 1_555
H11 C25 1_555 1_555
C28 C23 1_555 1_555
In2 O9 1_555 1_555
In3 O3 1_555 1_555
O13 In1 1_555 1_555
O14 In1 1_555 1_555
O15 In1 1_555 1_555
O16 In1 1_555 1_555
O4 In3 1_555 1_555
C3 C4 1_555 1_555
C7 C8 1_555 1_555
C11 C16 1_555 1_555
C11 C17 1_555 1_555
C15 C16 1_555 1_555
C19 C20 1_555 1_555
O8 C21 1_555 1_555
C23 C24 1_555 1_555
O11 C30 1_555 1_555
O12 C29 1_555 1_555
N2 C26 1_555 1_555
C27 C26 1_555 1_555
H12 C27 1_555 1_555
C29 N2 1_555 1_555
C30 N2 1_555 1_555
H14 C34 1_555 1_555
C35 C34 1_555 1_555
H15 C35 1_555 1_555
C36 C29 1_555 1_555
C37 C30 1_555 1_555
O10 In2_2 1_555 1_555
C31 C36 1_555 1_555
C31 C37 1_555 1_555
C35 C36 1_555 1_555
O11_2 C30_2 1_555 1_555
O12_2 C29_2 1_555 1_555
N2_2 C26_2 1_555 1_555
C27_2 C26_2 1_555 1_555
H12_2 C27_2 1_555 1_555
C29_2 N2_2 1_555 1_555
C30_2 N2_2 1_555 1_555
H14_2 C34_2 1_555 1_555
C35_2 C34_2 1_555 1_555
H15_2 C35_2 1_555 1_555
C36_2 C29_2 1_555 1_555
C37_2 C30_2 1_555 1_555
O10_2 In2 1_555 1_555
C31_2 C36_2 1_555 1_555
C31_2 C37_2 1_555 1_555
C35_2 C36_2 1_555 1_555
In1_2 O1_2 1_555 1_555
O1_2 C1_2 1_555 1_555
O2_2 In1_2 1_555 1_555
O3_2 C2_2 1_555 1_555
O4_2 C2_2 1_555 1_555
O5_2 C10_2 1_555 1_555
O6_2 C9_2 1_555 1_555
N1_2 C6_2 1_555 1_555
C1_2 O2_2 1_555 1_555
C2_2 C8_2 1_555 1_555
C3_2 H1_2 1_555 1_555
C4_2 C1_2 1_555 1_555
C5_2 C4_2 1_555 1_555
H2_2 C5_2 1_555 1_555
C6_2 C5_2 1_555 1_555
C7_2 C6_2 1_555 1_555
H3_2 C7_2 1_555 1_555
C8_2 C3_2 1_555 1_555
C9_2 N1_2 1_555 1_555
C10_2 N1_2 1_555 1_555
C11_2 C12_2 1_555 1_555
C12_2 C13_2 1_555 1_555
C13_2 H4_2 1_555 1_555
C14_2 C13_2 1_555 1_555
H5_2 C14_2 1_555 1_555
C15_2 C14_2 1_555 1_555
H6_2 C15_2 1_555 1_555
C16_2 C9_2 1_555 1_555
C17_2 C10_2 1_555 1_555
C18_2 C17_2 1_555 1_555
H7_2 C18_2 1_555 1_555
C19_2 C18_2 1_555 1_555
H8_2 C19_2 1_555 1_555
C20_2 C12_2 1_555 1_555
H9_2 C20_2 1_555 1_555
O7_2 In1_2 1_555 1_555
O8_2 In1_2 1_555 1_555
O9_2 C22_2 1_555 1_555
C21_2 O7_2 1_555 1_555
C22_2 C28_2 1_555 1_555
C23_2 H10_2 1_555 1_555
C24_2 C21_2 1_555 1_555
C25_2 C24_2 1_555 1_555
H11_2 C25_2 1_555 1_555
C28_2 C23_2 1_555 1_555
In2_2 O9_2 1_555 1_555
In3_2 O3_2 1_555 1_555
O13_2 In1_2 1_555 1_555
O14_2 In1_2 1_555 1_555
O15_2 In1_2 1_555 1_555
O16_2 In1_2 1_555 1_555
O4_2 In3_2 1_555 1_555
C3_2 C4_2 1_555 1_555
C7_2 C8_2 1_555 1_555
C11_2 C16_2 1_555 1_555
C11_2 C17_2 1_555 1_555
C15_2 C16_2 1_555 1_555
C19_2 C20_2 1_555 1_555
O8_2 C21_2 1_555 1_555
C23_2 C24_2 1_555 1_555
O7_3 In2 1_555 1_555
O8_3 In2 1_555 1_555
O9_3 C22_3 1_555 1_555
O10_3 C22_3 1_555 1_555
O11_3 C30_3 1_555 1_555
O12_3 C29_3 1_555 1_555
N2_3 C26_3 1_555 1_555
C21_3 O7_3 1_555 1_555
C22_3 C28_3 1_555 1_555
C23_3 H10_3 1_555 1_555
C24_3 C21_3 1_555 1_555
C25_3 C24_3 1_555 1_555
H11_3 C25_3 1_555 1_555
C26_3 C25_3 1_555 1_555
C27_3 C26_3 1_555 1_555
H12_3 C27_3 1_555 1_555
C28_3 C23_3 1_555 1_555
C29_3 N2_3 1_555 1_555
C30_3 N2_3 1_555 1_555
C31_3 C32 1_555 1_555
C32 C33 1_555 1_555
C33 H13 1_555 1_555
C34_3 C33 1_555 1_555
H14_3 C34_3 1_555 1_555
C35_3 C34_3 1_555 1_555
H15_3 C35_3 1_555 1_555
C36_3 C29_3 1_555 1_555
C37_3 C30_3 1_555 1_555
C38 C37_3 1_555 1_555
H16 C38 1_555 1_555
C39 C38 1_555 1_555
H17 C39 1_555 1_555
C40 C32 1_555 1_555
H18 C40 1_555 1_555
In2_3 O9_3 1_555 1_555
O8_3 C21_3 1_555 1_555
O10_3 In2_3 1_555 1_555
C23_3 C24_3 1_555 1_555
C27_3 C28_3 1_555 1_555
C31_3 C36_3 1_555 1_555
C31_3 C37_3 1_555 1_555
C35_3 C36_3 1_555 1_555
C39 C40 1_555 1_555
In2_2 O1_3 1_555 1_555
O1_3 C1_3 1_555 1_555
O2_3 In2_2 1_555 1_555
O3_3 C2_3 1_555 1_555
O4_3 C2_3 1_555 1_555
O5_3 C10_3 1_555 1_555
O6_3 C9_3 1_555 1_555
N1_3 C6_3 1_555 1_555
C1_3 O2_3 1_555 1_555
C2_3 C8_3 1_555 1_555
C3_3 H1_3 1_555 1_555
C4_3 C1_3 1_555 1_555
C5_3 C4_3 1_555 1_555
H2_3 C5_3 1_555 1_555
C6_3 C5_3 1_555 1_555
C7_3 C6_3 1_555 1_555
H3_3 C7_3 1_555 1_555
C8_3 C3_3 1_555 1_555
C9_3 N1_3 1_555 1_555
C10_3 N1_3 1_555 1_555
C11_3 C12_3 1_555 1_555
C12_3 C13_3 1_555 1_555
C13_3 H4_3 1_555 1_555
C14_3 C13_3 1_555 1_555
H5_3 C14_3 1_555 1_555
C15_3 C14_3 1_555 1_555
H6_3 C15_3 1_555 1_555
C16_3 C9_3 1_555 1_555
C17_3 C10_3 1_555 1_555
C18_3 C17_3 1_555 1_555
H7_3 C18_3 1_555 1_555
C19_3 C18_3 1_555 1_555
H8_3 C19_3 1_555 1_555
C20_3 C12_3 1_555 1_555
H9_3 C20_3 1_555 1_555
In3_3 O3_3 1_555 1_555
O4_3 In3_3 1_555 1_555
C3_3 C4_3 1_555 1_555
C7_3 C8_3 1_555 1_555
C11_3 C16_3 1_555 1_555
C11_3 C17_3 1_555 1_555
C15_3 C16_3 1_555 1_555
C19_3 C20_3 1_555 1_555
In3 O1_4 1_555 1_555
O1_4 C1_4 1_555 1_555
O3_4 C2_4 1_555 1_555
O4_4 C2_4 1_555 1_555
C2_4 C8_4 1_555 1_555
C3_4 H1_4 1_555 1_555
C4_4 C1_4 1_555 1_555
H3_4 C7_4 1_555 1_555
C8_4 C3_4 1_555 1_555
O8_4 In3 1_555 1_555
O11_4 C30_4 1_555 1_555
O12_4 C29_4 1_555 1_555
N2_4 C26_4 1_555 1_555
H11_4 C25_4 1_555 1_555
C26_4 C25_4 1_555 1_555
C29_4 N2_4 1_555 1_555
C30_4 N2_4 1_555 1_555
C31_4 C32_2 1_555 1_555
C32_2 C33_2 1_555 1_555
C34_4 C33_2 1_555 1_555
C35_4 C34_4 1_555 1_555
H15_4 C35_4 1_555 1_555
C36_4 C29_4 1_555 1_555
C37_4 C30_4 1_555 1_555
C38_2 C37_4 1_555 1_555
H16_2 C38_2 1_555 1_555
C39_2 C38_2 1_555 1_555
H17_2 C39_2 1_555 1_555
C40_2 C32_2 1_555 1_555
H18_2 C40_2 1_555 1_555
In3_3 O3_4 1_555 1_555
O4_4 In3_3 1_555 1_555
C3_4 C4_4 1_555 1_555
C7_4 C8_4 1_555 1_555
C31_4 C36_4 1_555 1_555
C31_4 C37_4 1_555 1_555
C35_4 C36_4 1_555 1_555
C39_2 C40_2 1_555 1_555
O2_4 In3_2 1_555 1_555
O5_4 C10_4 1_555 1_555
O6_4 C9_4 1_555 1_555
N1_4 C6_4 1_555 1_555
H2_4 C5_4 1_555 1_555
C6_4 C5_4 1_555 1_555
C9_4 N1_4 1_555 1_555
C10_4 N1_4 1_555 1_555
C11_4 C12_4 1_555 1_555
C12_4 C13_4 1_555 1_555
C14_4 C13_4 1_555 1_555
C15_4 C14_4 1_555 1_555
H6_4 C15_4 1_555 1_555
C16_4 C9_4 1_555 1_555
C17_4 C10_4 1_555 1_555
C18_4 C17_4 1_555 1_555
H7_4 C18_4 1_555 1_555
C19_4 C18_4 1_555 1_555
H8_4 C19_4 1_555 1_555
C20_4 C12_4 1_555 1_555
H9_4 C20_4 1_555 1_555
O7_4 In3_2 1_555 1_555
O9_4 C22_4 1_555 1_555
O10_4 C22_4 1_555 1_555
C21_4 O7_4 1_555 1_555
C22_4 C28_4 1_555 1_555
C23_4 H10_4 1_555 1_555
C24_4 C21_4 1_555 1_555
H12_4 C27_4 1_555 1_555
C28_4 C23_4 1_555 1_555
In2_3 O9_4 1_555 1_555
C11_4 C16_4 1_555 1_555
C11_4 C17_4 1_555 1_555
C15_4 C16_4 1_555 1_555
C19_4 C20_4 1_555 1_555
O10_4 In2_3 1_555 1_555
C23_4 C24_4 1_555 1_555
C27_4 C28_4 1_555 1_555
O5_5 C10_5 1_555 1_555
N1_5 C6_5 1_555 1_555
C7_5 C6_5 1_555 1_555
H3_5 C7_5 1_555 1_555
C10_5 N1_5 1_555 1_555
C11_5 C12_5 1_555 1_555
C17_5 C10_5 1_555 1_555
C18_5 C17_5 1_555 1_555
H7_5 C18_5 1_555 1_555
C19_5 C18_5 1_555 1_555
H8_5 C19_5 1_555 1_555
C20_5 C12_5 1_555 1_555
H9_5 C20_5 1_555 1_555
O4_5 In3_4 1_555 1_555
C11_5 C17_5 1_555 1_555
C19_5 C20_5 1_555 1_555
O3_5 C2_5 1_555 1_555
C2_5 C8_5 1_555 1_555
C3_5 H1_5 1_555 1_555
C5_5 C4_5 1_555 1_555
C8_5 C3_5 1_555 1_555
O9_5 C22_5 1_555 1_555
O10_5 C22_5 1_555 1_555
O11_5 C30_5 1_555 1_555
N2_5 C26_5 1_555 1_555
C22_5 C28_5 1_555 1_555
C23_5 H10_5 1_555 1_555
C25_5 C24_5 1_555 1_555
C26_5 C25_5 1_555 1_555
C27_5 C26_5 1_555 1_555
H12_5 C27_5 1_555 1_555
C28_5 C23_5 1_555 1_555
C30_5 N2_5 1_555 1_555
C37_5 C30_5 1_555 1_555
In2_4 O9_5 1_555 1_555
In3_5 O3_5 1_555 1_555
C3_5 C4_5 1_555 1_555
O10_5 In2_4 1_555 1_555
C23_5 C24_5 1_555 1_555
C27_5 C28_5 1_555 1_555
C31_5 C37_5 1_555 1_555
In3_3 O1_5 1_555 1_555
O1_5 C1_5 1_555 1_555
O2_5 In3_3 1_555 1_555
C1_5 O2_5 1_555 1_555
O7_5 In3_3 1_555 1_555
O8_5 In3_3 1_555 1_555
O12_5 C29_5 1_555 1_555
C21_5 O7_5 1_555 1_555
H14_4 C34_5 1_555 1_555
C35_5 C34_5 1_555 1_555
H15_5 C35_5 1_555 1_555
C36_5 C29_5 1_555 1_555
O8_5 C21_5 1_555 1_555
C35_5 C36_5 1_555 1_555
H16_3 C38_3 1_555 1_555
C39_3 C38_3 1_555 1_555
H17_3 C39_3 1_555 1_555
C40_3 C32_3 1_555 1_555
H18_3 C40_3 1_555 1_555
C39_3 C40_3 1_555 1_555
H16_4 C38_4 1_555 1_555
C39_4 C38_4 1_555 1_555
H17_4 C39_4 1_555 1_555
C40_4 C32_4 1_555 1_555
H18_4 C40_4 1_555 1_555
C39_4 C40_4 1_555 1_555
O3_6 C2_6 1_555 1_555
C2_6 C8_6 1_555 1_555
C3_6 H1_6 1_555 1_555
C5_6 C4_6 1_555 1_555
C8_6 C3_6 1_555 1_555
O9_6 C22_6 1_555 1_555
O10_6 C22_6 1_555 1_555
O11_6 C30_6 1_555 1_555
N2_6 C26_6 1_555 1_555
C22_6 C28_6 1_555 1_555
C23_6 H10_6 1_555 1_555
C25_6 C24_6 1_555 1_555
C26_6 C25_6 1_555 1_555
C27_6 C26_6 1_555 1_555
H12_6 C27_6 1_555 1_555
C28_6 C23_6 1_555 1_555
C30_6 N2_6 1_555 1_555
C37_6 C30_6 1_555 1_555
In2_4 O9_6 1_555 1_555
In3_6 O3_6 1_555 1_555
C3_6 C4_6 1_555 1_555
O10_6 In2_4 1_555 1_555
C23_6 C24_6 1_555 1_555
C27_6 C28_6 1_555 1_555
C31_6 C37_6 1_555 1_555
In2_3 O1_6 1_555 1_555
O1_6 C1_6 1_555 1_555
O2_6 In2_3 1_555 1_555
C1_6 O2_6 1_555 1_555
O7_6 In2_3 1_555 1_555
O8_6 In2_3 1_555 1_555
O12_6 C29_6 1_555 1_555
C21_6 O7_6 1_555 1_555
H14_5 C34_6 1_555 1_555
C35_6 C34_6 1_555 1_555
H15_6 C35_6 1_555 1_555
C36_6 C29_6 1_555 1_555
O8_6 C21_6 1_555 1_555
C35_6 C36_6 1_555 1_555
O5_6 C10_6 1_555 1_555
N1_6 C6_6 1_555 1_555
C7_6 C6_6 1_555 1_555
H3_6 C7_6 1_555 1_555
C10_6 N1_6 1_555 1_555
C11_6 C12_6 1_555 1_555
C17_6 C10_6 1_555 1_555
C18_6 C17_6 1_555 1_555
H7_6 C18_6 1_555 1_555
C19_6 C18_6 1_555 1_555
H8_6 C19_6 1_555 1_555
C20_6 C12_6 1_555 1_555
H9_6 C20_6 1_555 1_555
O4_6 In3_7 1_555 1_555
C11_6 C17_6 1_555 1_555
C19_6 C20_6 1_555 1_555
In2_4 O1_7 1_555 1_555
O1_7 C1_7 1_555 1_555
O2_7 In2_4 1_555 1_555
O13 C2_7 1_555 1_555
O15 C2_7 1_555 1_555
O5_7 C10_7 1_555 1_555
O6_5 C9_5 1_555 1_555
N1_7 C6_7 1_555 1_555
C1_7 O2_7 1_555 1_555
C2_7 C8_7 1_555 1_555
C3_7 H1_7 1_555 1_555
C4_7 C1_7 1_555 1_555
C5_7 C4_7 1_555 1_555
H2_7 C5_7 1_555 1_555
C6_7 C5_7 1_555 1_555
C7_7 C6_7 1_555 1_555
H3_7 C7_7 1_555 1_555
C8_7 C3_7 1_555 1_555
C9_5 N1_7 1_555 1_555
C10_7 N1_7 1_555 1_555
C11_7 C12_7 1_555 1_555
C12_7 C13_5 1_555 1_555
C14_5 C13_5 1_555 1_555
C15_5 C14_5 1_555 1_555
H6_5 C15_5 1_555 1_555
C16_5 C9_5 1_555 1_555
C17_7 C10_7 1_555 1_555
C18_7 C17_7 1_555 1_555
H7_7 C18_7 1_555 1_555
C19_7 C18_7 1_555 1_555
H8_7 C19_7 1_555 1_555
C20_7 C12_7 1_555 1_555
H9_7 C20_7 1_555 1_555
O7_7 In2_4 1_555 1_555
O8_7 In2_4 1_555 1_555
O13_2 C22_7 1_555 1_555
O15_2 C22_7 1_555 1_555
O11_7 C30_7 1_555 1_555
O12_7 C29_7 1_555 1_555
N2_7 C26_7 1_555 1_555
C21_7 O7_7 1_555 1_555
C22_7 C28_7 1_555 1_555
C23_7 H10_7 1_555 1_555
C24_7 C21_7 1_555 1_555
C25_7 C24_7 1_555 1_555
H11_7 C25_7 1_555 1_555
C26_7 C25_7 1_555 1_555
C27_7 C26_7 1_555 1_555
H12_7 C27_7 1_555 1_555
C28_7 C23_7 1_555 1_555
C29_7 N2_7 1_555 1_555
C30_7 N2_7 1_555 1_555
C31_7 C32_5 1_555 1_555
C32_5 C33_3 1_555 1_555
C34_7 C33_3 1_555 1_555
C35_7 C34_7 1_555 1_555
H15_7 C35_7 1_555 1_555
C36_7 C29_7 1_555 1_555
C37_7 C30_7 1_555 1_555
C38_5 C37_7 1_555 1_555
H16_5 C38_5 1_555 1_555
C39_5 C38_5 1_555 1_555
H17_5 C39_5 1_555 1_555
C40_5 C32_5 1_555 1_555
H18_5 C40_5 1_555 1_555
C3_7 C4_7 1_555 1_555
C7_7 C8_7 1_555 1_555
C11_7 C16_5 1_555 1_555
C11_7 C17_7 1_555 1_555
C15_5 C16_5 1_555 1_555
C19_7 C20_7 1_555 1_555
O8_7 C21_7 1_555 1_555
C23_7 C24_7 1_555 1_555
C27_7 C28_7 1_555 1_555
C31_7 C36_7 1_555 1_555
C31_7 C37_7 1_555 1_555
C35_7 C36_7 1_555 1_555
C39_5 C40_5 1_555 1_555
In3_4 O1_8 1_555 1_555
O1_8 C1_8 1_555 1_555
O14 C2_8 1_555 1_555
O16 C2_8 1_555 1_555
C2_8 C8_8 1_555 1_555
C3_8 H1_8 1_555 1_555
C4_8 C1_8 1_555 1_555
H3_8 C7_8 1_555 1_555
C8_8 C3_8 1_555 1_555
C3_8 C4_8 1_555 1_555
C7_8 C8_8 1_555 1_555
O8_8 In3_5 1_555 1_555
O11_8 C30_8 1_555 1_555
O12_8 C29_8 1_555 1_555
N2_8 C26_8 1_555 1_555
H11_8 C25_8 1_555 1_555
C26_8 C25_8 1_555 1_555
C29_8 N2_8 1_555 1_555
C30_8 N2_8 1_555 1_555
C31_8 C32_6 1_555 1_555
C32_6 C33_4 1_555 1_555
C33_4 H13_2 1_555 1_555
C34_8 C33_4 1_555 1_555
H14_6 C34_8 1_555 1_555
C35_8 C34_8 1_555 1_555
H15_8 C35_8 1_555 1_555
C36_8 C29_8 1_555 1_555
C37_8 C30_8 1_555 1_555
C38_6 C37_8 1_555 1_555
H16_6 C38_6 1_555 1_555
C39_6 C38_6 1_555 1_555
H17_6 C39_6 1_555 1_555
C40_6 C32_6 1_555 1_555
H18_6 C40_6 1_555 1_555
C31_8 C36_8 1_555 1_555
C31_8 C37_8 1_555 1_555
C35_8 C36_8 1_555 1_555
C39_6 C40_6 1_555 1_555
O2_8 In3_6 1_555 1_555
O5_8 C10_8 1_555 1_555
O6_6 C9_6 1_555 1_555
N1_8 C6_8 1_555 1_555
H2_8 C5_8 1_555 1_555
C6_8 C5_8 1_555 1_555
C9_6 N1_8 1_555 1_555
C10_8 N1_8 1_555 1_555
C11_8 C12_8 1_555 1_555
C12_8 C13_6 1_555 1_555
C13_6 H4_4 1_555 1_555
C14_6 C13_6 1_555 1_555
H5_4 C14_6 1_555 1_555
C15_6 C14_6 1_555 1_555
H6_6 C15_6 1_555 1_555
C16_6 C9_6 1_555 1_555
C17_8 C10_8 1_555 1_555
C18_8 C17_8 1_555 1_555
H7_8 C18_8 1_555 1_555
C19_8 C18_8 1_555 1_555
H8_8 C19_8 1_555 1_555
C20_8 C12_8 1_555 1_555
H9_8 C20_8 1_555 1_555
C11_8 C16_6 1_555 1_555
C11_8 C17_8 1_555 1_555
C15_6 C16_6 1_555 1_555
C19_8 C20_8 1_555 1_555
O7_8 In3_7 1_555 1_555
O14_2 C22_8 1_555 1_555
O16_2 C22_8 1_555 1_555
C21_8 O7_8 1_555 1_555
C22_8 C28_8 1_555 1_555
C23_8 H10_8 1_555 1_555
C24_8 C21_8 1_555 1_555
H12_8 C27_8 1_555 1_555
C28_8 C23_8 1_555 1_555
C23_8 C24_8 1_555 1_555
C27_8 C28_8 1_555 1_555
C32_7 C33_5 1_555 1_555
C33_5 H13_3 1_555 1_555
H16_7 C38_7 1_555 1_555
C39_7 C38_7 1_555 1_555
H17_7 C39_7 1_555 1_555
C40_7 C32_7 1_555 1_555
H18_7 C40_7 1_555 1_555
C39_7 C40_7 1_555 1_555
C32_8 C33_6 1_555 1_555
C33_6 H13_4 1_555 1_555
H16_8 C38_8 1_555 1_555
C39_8 C38_8 1_555 1_555
H17_8 C39_8 1_555 1_555
C40_8 C32_8 1_555 1_555
H18_8 C40_8 1_555 1_555
C39_8 C40_8 1_555 1_555
O6_7 C9_7 1_555 1_555
C13_7 H4_6 1_555 1_555
C14_7 C13_7 1_555 1_555
H5_6 C14_7 1_555 1_555
C15_7 C14_7 1_555 1_555
H6_7 C15_7 1_555 1_555
C16_7 C9_7 1_555 1_555
C15_7 C16_7 1_555 1_555
C33_7 H13_6 1_555 1_555
C33_8 H13_7 1_555 1_555
O6_8 C9_8 1_555 1_555
C13_8 H4_7 1_555 1_555
C14_8 C13_8 1_555 1_555
H5_7 C14_8 1_555 1_555
C15_8 C14_8 1_555 1_555
H6_8 C15_8 1_555 1_555
C16_8 C9_8 1_555 1_555
C15_8 C16_8 1_555 1_555

#END
