
###############################################################################
#
# This file contains modified crystal structure data generated from the
# MOF subset of the Cambridge Structural Database (CSD) v543 
# hosted by the Cambridge Crystallographic Data Centre (CCDC).
#
# This work is licensed under the Creative Commons
# Attribution-NonCommercial-ShareAlike 4.0 International License.
# To view a copy of this license, visit
# http://creativecommons.org/licenses/by-nc-sa/4.0/
# or send a letter to
# Creative Commons, PO Box 1866, Mountain View, CA 94042, USA.
#
# CIF created using the CSD Python API on 29 September 2022
# The structure has been converted into the P1 space group
# The structure has a 3D framework
# The original CSD entry MATVAF is in the monoclinic crystal system
# The original CSD entry MATVAF is in a Sohncke space group
# The framework has been calculated to contain at least 10.0% void space
# The void calculation uses a probe of radius 1.32A, grid spacing 0.4
#
###############################################################################

data_MATVAF
_chemical_formula_moiety         '(C96 H48 N8 O24 Zn3)n'
_symmetry_cell_setting           triclinic
_symmetry_space_group_name_H-M   'P 1'
_symmetry_Int_Tables_number      1
_space_group_name_Hall           'P 1'
loop_
_symmetry_equiv_pos_site_id
_symmetry_equiv_pos_as_xyz
1 x,y,z
_cell_length_a                   12.9938(13)
_cell_length_b                   22.318(2)
_cell_length_c                   13.0908(13)
_cell_angle_alpha                90
_cell_angle_beta                 102.582(2)
_cell_angle_gamma                90
_cell_volume                     3705.11
loop_
_atom_site_label
_atom_site_type_symbol
_atom_site_fract_x
_atom_site_fract_y
_atom_site_fract_z
H7 H 0.0218 0.6645 0.8604
H8 H 0.0286 0.5589 0.8698
O16 O 0.7579(2) 0.05564(13) 0.0021(2)
Zn2 Zn 0.74551(3) 0.043150(16) 0.84397(3)
O13 O 0.5924(2) 0.06697(14) 0.8269(3)
O15 O 0.90414(19) 0.05072(14) 0.8677(2)
O17 O 0.7377(3) 0.06410(13) 0.6931(2)
Zn5 Zn 0.77304(3) 0.173682(16) 0.87068(3)
H1 H 0.8843 0.2709 0.0166
H2 H 0.8881 0.3732 0.0265
H12 H 0.8406 0.8429 0.0043
C25 C 0.7455(3) 0.1163(2) 0.6599(3)
C26 C 0.7463(3) 0.12281(18) 0.5451(3)
C27 C 0.7565(4) 0.1807(2) 0.5069(3)
H13 H 0.7613 0.2143 0.5524
C28 C 0.7597(4) 0.1889(2) 0.4027(4)
H14 H 0.7641 0.2281 0.3758
C29 C 0.7561(3) 0.1377(2) 0.3358(3)
C30 C 0.7458(4) 0.0799(2) 0.3760(3)
C31 C 0.7409(3) 0.07458(18) 0.4829(3)
H15 H 0.7336 0.0360 0.5111
C32 C 0.7621(3) 0.14396(19) 0.2291(3)
H16 H 0.7689 0.1827 0.2013
C33 C 0.7583(3) 0.09539(16) 0.1670(3)
C34 C 0.7469(4) 0.0371(2) 0.2079(3)
H17 H 0.7417 0.0030 0.1636
C35 C 0.7434(4) 0.03041(19) 0.3106(4)
C36 C 0.7645(3) 0.1026(2) 0.0549(3)
O10 O 0.7786(2) 0.15421(12) 0.0231(2)
O12 O 0.7567(2) 0.16231(13) 0.7126(2)
C1 C 0.8443(3) 0.29354(17) 0.9603(3)
C2 C 0.8471(3) 0.35387(17) 0.9666(3)
C3 C 0.7900(3) 0.38699(19) 0.8853(3)
C4 C 0.7326(3) 0.35860(18) 0.7988(3)
H3 H 0.6943 0.3805 0.7406
C5 C 0.7326(3) 0.29647(18) 0.7998(4)
H4 H 0.6911 0.2761 0.7413
C6 C 0.8809(3) 0.48122(16) 0.8802(3)
C7 C 0.8747(3) 0.54727(18) 0.8733(3)
C8 C 0.7782(3) 0.57701(18) 0.8722(3)
C9 C 0.6874(3) 0.54533(18) 0.8776(3)
C10 C 0.6891(3) 0.47871(16) 0.8841(3)
C11 C 0.5943(3) 0.57469(18) 0.8791(3)
H5 H 0.5333 0.5526 0.8848
C12 C 0.5905(3) 0.63776(19) 0.8720(3)
H6 H 0.5261 0.6581 0.8714
C13 C 0.6787(3) 0.6700(2) 0.8662(3)
C14 C 0.7760(3) 0.64069(18) 0.8671(3)
C15 C 0.8680(3) 0.67141(19) 0.8622(3)
C16 C 0.9601(3) 0.64230(18) 0.8634(3)
C17 C 0.9642(3) 0.57922(18) 0.8690(3)
C18 C 0.8654(3) 0.73826(16) 0.8562(3)
C19 C 0.6752(3) 0.73490(17) 0.8638(3)
C20 C 0.7638(3) 0.83012(19) 0.8539(3)
C21 C 0.7191(3) 0.85695(17) 0.7615(3)
H9 H 0.6927 0.8338 0.7005
C22 C 0.7130(3) 0.91969(18) 0.7586(4)
H10 H 0.6824 0.9393 0.6948
C23 C 0.7971(4) 0.92486(17) 0.9340(4)
H11 H 0.8253 0.9484 0.9941
C24 C 0.8063(4) 0.86202(18) 0.9412(3)
C38 C 0.0715(3) 0.09214(16) 0.8687(3)
C39 C 0.1302(3) 0.14259(18) 0.8674(3)
H19 H 0.1004 0.1810 0.8728
C40 C 0.2365(3) 0.13704(19) 0.8580(3)
C41 C 0.2782(3) 0.07898(19) 0.8513(3)
C42 C 0.2159(3) 0.02842(16) 0.8519(3)
C43 C 0.1135(3) 0.03480(18) 0.8600(3)
H21 H 0.0705 0.0004 0.8598
C44 C 0.3002(3) 0.18902(17) 0.8555(3)
H22 H 0.2710 0.2278 0.8588
C45 C 0.4049(3) 0.18284(17) 0.8483(3)
H23 H 0.4476 0.2173 0.8473
C46 C 0.4470(3) 0.12537(17) 0.8425(3)
C47 C 0.3861(3) 0.07454(18) 0.8423(3)
H24 H 0.4160 0.0362 0.8360
C48 C 0.5609(3) 0.11798(19) 0.8372(3)
N1 N 0.7868(3) 0.26413(15) 0.8770(2)
N2 N 0.7870(3) 0.45217(14) 0.8898(3)
N3 N 0.7692(3) 0.76486(16) 0.8573(3)
N4 N 0.7503(2) 0.95250(15) 0.8456(2)
O1 O 0.9603(2) 0.45334(12) 0.8806(3)
O2 O 0.6138(2) 0.44978(13) 0.8903(3)
O3 O 0.9426(2) 0.76849(12) 0.8515(2)
O4 O 0.5959(2) 0.76455(13) 0.8639(3)
O6 O 0.61511(19) 0.16537(14) 0.8477(2)
O14 O 0.9250(2) 0.15055(12) 0.8862(2)
C37 C 0.9576(3) 0.09855(18) 0.8742(3)
H18 H 0.7394 0.9913 0.3381
H20 H 0.2445 0.9896 0.8468
C37_2 C 0.0424(3) 0.59855(18) 0.1258(3)
O7 O 0.0750(2) 0.65055(12) 0.1138(2)
O8 O 0.09586(19) 0.55072(14) 0.1323(2)
Zn3 Zn 0.22696(3) 0.673682(16) 0.12932(3)
Zn7 Zn 0.25449(3) 0.543150(16) 0.15603(3)
C7_2 C 0.1253(3) 0.04727(18) 0.1267(3)
C8_2 C 0.2218(3) 0.07701(18) 0.1278(3)
C9_2 C 0.3126(3) 0.04533(18) 0.1224(3)
C11_2 C 0.4057(3) 0.07469(18) 0.1209(3)
H5_2 H 0.4667 0.0526 0.1152
C12_2 C 0.4095(3) 0.13776(19) 0.1280(3)
H6_2 H 0.4739 0.1581 0.1286
C13_2 C 0.3213(3) 0.1700(2) 0.1338(3)
C14_2 C 0.2240(3) 0.14069(18) 0.1329(3)
C15_2 C 0.1320(3) 0.17141(19) 0.1378(3)
C16_2 C 0.0399(3) 0.14230(18) 0.1366(3)
C17_2 C 0.0358(3) 0.07922(18) 0.1310(3)
C18_2 C 0.1346(3) 0.23826(16) 0.1438(3)
C19_2 C 0.3248(3) 0.23490(17) 0.1362(3)
C20_2 C 0.2362(3) 0.33012(19) 0.1461(3)
C21_2 C 0.2809(3) 0.35695(17) 0.2385(3)
H9_2 H 0.3073 0.3338 0.2995
C22_2 C 0.2870(3) 0.41969(18) 0.2414(4)
H10_2 H 0.3176 0.4393 0.3052
C23_2 C 0.2029(4) 0.42486(17) 0.0660(4)
H11_2 H 0.1747 0.4484 0.0059
C24_2 C 0.1937(4) 0.36202(18) 0.0588(3)
N3_2 N 0.2308(3) 0.26486(16) 0.1427(3)
N4_2 N 0.2497(2) 0.45250(15) 0.1544(2)
O3_2 O 0.0574(2) 0.26849(12) 0.1485(2)
O4_2 O 0.4041(2) 0.26455(13) 0.1361(3)
O13_2 O 0.4076(2) 0.56697(14) 0.1731(3)
O17_2 O 0.2623(3) 0.56410(13) 0.3069(2)
H12_2 H 0.1594 0.3429 0.9957
O16_2 O 0.2421(2) 0.55564(13) 0.9979(2)
C1_2 C 0.1557(3) 0.79354(17) 0.0397(3)
C2_2 C 0.1529(3) 0.85387(17) 0.0334(3)
C3_2 C 0.2100(3) 0.88699(19) 0.1147(3)
C4_2 C 0.2674(3) 0.85860(18) 0.2012(3)
H3_2 H 0.3057 0.8805 0.2594
C5_2 C 0.2674(3) 0.79647(18) 0.2002(4)
H4_2 H 0.3089 0.7761 0.2587
C6_2 C 0.1191(3) 0.98122(16) 0.1198(3)
C10_2 C 0.3109(3) 0.97871(16) 0.1159(3)
C38_2 C 0.9285(3) 0.59214(16) 0.1313(3)
C39_2 C 0.8698(3) 0.64259(18) 0.1326(3)
H19_2 H 0.8996 0.6810 0.1272
C40_2 C 0.7635(3) 0.63704(19) 0.1420(3)
C41_2 C 0.7218(3) 0.57898(19) 0.1487(3)
C42_2 C 0.7841(3) 0.52842(16) 0.1481(3)
H20_2 H 0.7555 0.4896 0.1532
C43_2 C 0.8865(3) 0.53480(18) 0.1400(3)
H21_2 H 0.9295 0.5004 0.1402
C44_2 C 0.6998(3) 0.68902(17) 0.1445(3)
H22_2 H 0.7290 0.7278 0.1412
C45_2 C 0.5951(3) 0.68284(17) 0.1517(3)
H23_2 H 0.5524 0.7173 0.1527
C46_2 C 0.5530(3) 0.62537(17) 0.1575(3)
C47_2 C 0.6139(3) 0.57454(18) 0.1577(3)
H24_2 H 0.5840 0.5362 0.1640
C48_2 C 0.4391(3) 0.61798(19) 0.1628(3)
N1_2 N 0.2132(3) 0.76413(15) 0.1230(2)
N2_2 N 0.2130(3) 0.95217(14) 0.1102(3)
O1_2 O 0.0397(2) 0.95334(12) 0.1194(3)
O2_2 O 0.3862(2) 0.94978(13) 0.1097(3)
O6_2 O 0.38489(19) 0.66537(14) 0.1523(2)
O18 O 0.2433(2) 0.66231(13) 0.2874(2)
H1_2 H 0.1157 0.7709 0.9834
H2_2 H 0.1119 0.8732 0.9735
C25_2 C 0.2545(3) 0.6163(2) 0.3401(3)
C26_2 C 0.2537(3) 0.62281(18) 0.4549(3)
C27_2 C 0.2435(4) 0.6807(2) 0.4931(3)
H13_2 H 0.2387 0.7143 0.4476
C28_2 C 0.2403(4) 0.6889(2) 0.5973(4)
H14_2 H 0.2359 0.7281 0.6242
C29_2 C 0.2439(3) 0.6377(2) 0.6642(3)
C30_2 C 0.2542(4) 0.5799(2) 0.6240(3)
C31_2 C 0.2591(3) 0.57458(18) 0.5171(3)
H15_2 H 0.2664 0.5360 0.4889
C32_2 C 0.2379(3) 0.64396(19) 0.7709(3)
H16_2 H 0.2311 0.6827 0.7987
C33_2 C 0.2417(3) 0.59539(16) 0.8330(3)
C34_2 C 0.2531(4) 0.5371(2) 0.7921(3)
H17_2 H 0.2583 0.5030 0.8364
C35_2 C 0.2566(4) 0.53041(19) 0.6894(4)
H18_2 H 0.2606 0.4913 0.6619
C36_2 C 0.2355(3) 0.6026(2) 0.9451(3)
O10_2 O 0.2214(2) 0.65421(12) 0.9769(2)
H7_2 H 0.9782 0.1645 0.1396
H8_2 H 0.9714 0.0589 0.1302
loop_
_geom_bond_atom_site_label_1
_geom_bond_atom_site_label_2
_geom_bond_site_symmetry_1
_geom_bond_site_symmetry_2
O13 Zn2 1_555 1_555
O15 Zn2 1_555 1_555
O17 Zn2 1_555 1_555
Zn5 Zn2 1_555 1_555
C25 C26 1_555 1_555
C26 C27 1_555 1_555
C27 H13 1_555 1_555
C28 C27 1_555 1_555
H14 C28 1_555 1_555
C29 C28 1_555 1_555
C30 C29 1_555 1_555
C31 C26 1_555 1_555
H15 C31 1_555 1_555
C32 C29 1_555 1_555
H16 C32 1_555 1_555
C33 C32 1_555 1_555
C34 C33 1_555 1_555
H17 C34 1_555 1_555
C35 C30 1_555 1_555
C36 C33 1_555 1_555
O16 C36 1_555 1_555
O10 C36 1_555 1_555
O17 C25 1_555 1_555
O12 C25 1_555 1_555
Zn5 O12 1_555 1_555
C30 C31 1_555 1_555
C34 C35 1_555 1_555
C2 C1 1_555 1_555
C3 C2 1_555 1_555
C4 C3 1_555 1_555
H3 C4 1_555 1_555
C5 C4 1_555 1_555
H4 C5 1_555 1_555
C6 C7 1_555 1_555
C7 C8 1_555 1_555
C8 C9 1_555 1_555
C9 C10 1_555 1_555
C10 N2 1_555 1_555
C11 C9 1_555 1_555
H5 C11 1_555 1_555
C12 C11 1_555 1_555
H6 C12 1_555 1_555
C13 C12 1_555 1_555
C14 C8 1_555 1_555
C15 C14 1_555 1_555
C16 C15 1_555 1_555
C17 C7 1_555 1_555
C18 C15 1_555 1_555
C19 C13 1_555 1_555
C20 C21 1_555 1_555
C21 H9 1_555 1_555
C22 C21 1_555 1_555
H10 C22 1_555 1_555
C23 H11 1_555 1_555
C24 C20 1_555 1_555
C38 C39 1_555 1_555
C39 H19 1_555 1_555
C40 C39 1_555 1_555
C41 C40 1_555 1_555
C42 C41 1_555 1_555
C43 C38 1_555 1_555
H21 C43 1_555 1_555
C44 C40 1_555 1_555
H22 C44 1_555 1_555
C45 C44 1_555 1_555
H23 C45 1_555 1_555
C46 C45 1_555 1_555
C47 C41 1_555 1_555
H24 C47 1_555 1_555
C48 C46 1_555 1_555
N1 C1 1_555 1_555
N2 C3 1_555 1_555
N3 C18 1_555 1_555
N4 C22 1_555 1_555
O1 C6 1_555 1_555
O2 C10 1_555 1_555
O3 C18 1_555 1_555
O4 C19 1_555 1_555
O13 C48 1_555 1_555
O6 C48 1_555 1_555
Zn5 N1 1_555 1_555
O14 Zn5 1_555 1_555
C5 N1 1_555 1_555
C6 N2 1_555 1_555
C13 C14 1_555 1_555
C16 C17 1_555 1_555
C19 N3 1_555 1_555
C20 N3 1_555 1_555
C23 C24 1_555 1_555
C23 N4 1_555 1_555
C42 C43 1_555 1_555
C46 C47 1_555 1_555
O6 Zn5 1_555 1_555
O14 C37 1_555 1_555
O15 C37 1_555 1_555
O7 C37_2 1_555 1_555
O8 C37_2 1_555 1_555
Zn3 O7 1_555 1_555
Zn7 O8 1_555 1_555
Zn3 Zn7 1_555 1_555
C7_2 C8_2 1_555 1_555
C8_2 C9_2 1_555 1_555
C11_2 C9_2 1_555 1_555
H5_2 C11_2 1_555 1_555
C12_2 C11_2 1_555 1_555
H6_2 C12_2 1_555 1_555
C13_2 C12_2 1_555 1_555
C14_2 C8_2 1_555 1_555
C15_2 C14_2 1_555 1_555
C16_2 C15_2 1_555 1_555
C17_2 C7_2 1_555 1_555
C18_2 C15_2 1_555 1_555
C19_2 C13_2 1_555 1_555
C20_2 C21_2 1_555 1_555
C21_2 H9_2 1_555 1_555
C22_2 C21_2 1_555 1_555
H10_2 C22_2 1_555 1_555
C23_2 H11_2 1_555 1_555
C24_2 C20_2 1_555 1_555
N3_2 C18_2 1_555 1_555
N4_2 C22_2 1_555 1_555
O3_2 C18_2 1_555 1_555
O4_2 C19_2 1_555 1_555
Zn7 N4_2 1_555 1_555
O13_2 Zn7 1_555 1_555
O17_2 Zn7 1_555 1_555
C13_2 C14_2 1_555 1_555
C16_2 C17_2 1_555 1_555
C19_2 N3_2 1_555 1_555
C20_2 N3_2 1_555 1_555
C23_2 C24_2 1_555 1_555
C23_2 N4_2 1_555 1_555
C2_2 C1_2 1_555 1_555
C3_2 C2_2 1_555 1_555
C4_2 C3_2 1_555 1_555
H3_2 C4_2 1_555 1_555
C5_2 C4_2 1_555 1_555
H4_2 C5_2 1_555 1_555
C10_2 N2_2 1_555 1_555
C38_2 C39_2 1_555 1_555
C39_2 H19_2 1_555 1_555
C40_2 C39_2 1_555 1_555
C41_2 C40_2 1_555 1_555
C42_2 C41_2 1_555 1_555
H20_2 C42_2 1_555 1_555
C43_2 C38_2 1_555 1_555
H21_2 C43_2 1_555 1_555
C44_2 C40_2 1_555 1_555
H22_2 C44_2 1_555 1_555
C45_2 C44_2 1_555 1_555
H23_2 C45_2 1_555 1_555
C46_2 C45_2 1_555 1_555
C47_2 C41_2 1_555 1_555
H24_2 C47_2 1_555 1_555
C48_2 C46_2 1_555 1_555
N1_2 C1_2 1_555 1_555
N2_2 C3_2 1_555 1_555
O1_2 C6_2 1_555 1_555
O2_2 C10_2 1_555 1_555
O13_2 C48_2 1_555 1_555
O6_2 C48_2 1_555 1_555
Zn3 N1_2 1_555 1_555
O18 Zn3 1_555 1_555
C5_2 N1_2 1_555 1_555
C6_2 N2_2 1_555 1_555
C42_2 C43_2 1_555 1_555
C46_2 C47_2 1_555 1_555
O6_2 Zn3 1_555 1_555
C25_2 C26_2 1_555 1_555
C26_2 C27_2 1_555 1_555
C27_2 H13_2 1_555 1_555
C28_2 C27_2 1_555 1_555
H14_2 C28_2 1_555 1_555
C29_2 C28_2 1_555 1_555
C30_2 C29_2 1_555 1_555
C31_2 C26_2 1_555 1_555
H15_2 C31_2 1_555 1_555
C32_2 C29_2 1_555 1_555
H16_2 C32_2 1_555 1_555
C33_2 C32_2 1_555 1_555
C34_2 C33_2 1_555 1_555
H17_2 C34_2 1_555 1_555
C35_2 C30_2 1_555 1_555
H18_2 C35_2 1_555 1_555
C36_2 C33_2 1_555 1_555
O16_2 C36_2 1_555 1_555
O10_2 C36_2 1_555 1_555
O17_2 C25_2 1_555 1_555
O18 C25_2 1_555 1_555
C30_2 C31_2 1_555 1_555
C34_2 C35_2 1_555 1_555

#END
