
###############################################################################
#
# This file contains modified crystal structure data generated from the
# MOF subset of the Cambridge Structural Database (CSD) v543 
# hosted by the Cambridge Crystallographic Data Centre (CCDC).
#
# This work is licensed under the Creative Commons
# Attribution-NonCommercial-ShareAlike 4.0 International License.
# To view a copy of this license, visit
# http://creativecommons.org/licenses/by-nc-sa/4.0/
# or send a letter to
# Creative Commons, PO Box 1866, Mountain View, CA 94042, USA.
#
# CIF created using the CSD Python API on 29 September 2022
# The structure has been converted into the P1 space group
# The structure has a 3D framework
# The original CSD entry MATVEJ is in the triclinic crystal system
# The framework has been calculated to contain at least 10.0% void space
# The void calculation uses a probe of radius 1.32A, grid spacing 0.4
#
###############################################################################

data_MATVEJ
_chemical_formula_moiety         '(C104 H56 N8 O22 Zn4)n'
_symmetry_cell_setting           triclinic
_symmetry_space_group_name_H-M   'P 1'
_symmetry_Int_Tables_number      1
_space_group_name_Hall           'P 1'
loop_
_symmetry_equiv_pos_site_id
_symmetry_equiv_pos_as_xyz
1 x,y,z
_cell_length_a                   15.1644(13)
_cell_length_b                   15.1729(13)
_cell_length_c                   22.273(2)
_cell_angle_alpha                82.9870(10)
_cell_angle_beta                 78.4460(10)
_cell_angle_gamma                72.7710(10)
_cell_volume                     4784.81
loop_
_atom_site_label
_atom_site_type_symbol
_atom_site_fract_x
_atom_site_fract_y
_atom_site_fract_z
C39 C 0.15645(11) 0.11579(11) 0.26502(7)
C40 C 0.15650(12) 0.01693(11) 0.26461(8)
H24 H 0.0983 0.0034 0.3533
O7 O 0.18279(8) 0.15585(7) 0.21425(5)
O8 O 0.12799(8) 0.15245(7) 0.31555(5)
Zn3 Zn 0.117580(12) 0.282875(12) 0.332742(7)
Zn7 Zn 0.153570(12) 0.296750(12) 0.198290(7)
C1 C 0.22223(13) 0.25370(13) 0.06708(8)
H1 H 0.2744 0.2144 0.0817
C2 C 0.21705(14) 0.25499(14) 0.00577(8)
C4 C 0.06947(13) 0.36813(12) 0.02406(7)
H3 H 0.0166 0.4078 0.0104
C5 C 0.08042(12) 0.36420(11) 0.08457(7)
H4 H 0.0341 0.4029 0.1113
N1 N 0.15411(9) 0.30757(9) 0.10638(6)
O13 O 0.11827(8) 0.43461(7) 0.21033(5)
O16 O 0.01541(7) 0.29862(8) 0.22500(5)
O18 O 0.28381(8) 0.28996(8) 0.21052(5)
H2 H 0.2654 0.2182 0.9792
C3 C 0.13834(13) 0.31222(12) 0.98488(7)
C6 C 0.12210(14) 0.22795(13) 0.90392(8)
C7 C 0.11600(14) 0.22544(13) 0.83880(8)
C8 C 0.11585(12) 0.30531(12) 0.79837(7)
C9 C 0.11697(12) 0.38905(12) 0.81937(7)
C10 C 0.12189(12) 0.39372(12) 0.88473(7)
C11 C 0.11618(12) 0.46502(12) 0.77965(7)
H5 H 0.1172 0.5198 0.7938
C12 C 0.11375(12) 0.46072(12) 0.71723(7)
H6 H 0.1131 0.5128 0.6903
C13 C 0.11236(12) 0.38161(12) 0.69626(7)
C14 C 0.11203(12) 0.30104(12) 0.73624(7)
C15 C 0.10818(14) 0.21955(13) 0.71554(8)
C16 C 0.10765(16) 0.14229(14) 0.75553(8)
H7 H 0.1040 0.0884 0.7416
C17 C 0.11277(16) 0.14630(14) 0.81755(8)
H8 H 0.1140 0.0941 0.8444
C18 C 0.10324(15) 0.21484(14) 0.65049(8)
C19 C 0.10878(13) 0.37796(13) 0.62990(8)
C20 C 0.10284(13) 0.29007(12) 0.54794(7)
C21 C 0.17469(15) 0.22878(15) 0.51446(8)
H9 H 0.2224 0.1885 0.5331
C22 C 0.17567(14) 0.22737(14) 0.45271(8)
H10 H 0.2261 0.1870 0.4297
C23 C 0.03701(13) 0.34082(14) 0.45780(8)
C24 C 0.03114(14) 0.34640(15) 0.52000(8)
C41 C 0.19034(13) 0.96950(12) 0.21206(8)
H21 H 0.2164 0.9981 0.1765
C42 C 0.18588(14) 0.87979(12) 0.21168(8)
H22 H 0.2099 0.8486 0.1759
C43 C 0.14622(13) 0.83545(11) 0.26366(8)
C44 C 0.11354(17) 0.88349(13) 0.31664(9)
H23 H 0.0873 0.8553 0.3523
C45 C 0.11948(16) 0.97294(13) 0.31717(8)
C46 C 0.13804(13) 0.74029(11) 0.26301(8)
C47 C 0.12886(13) 0.70796(11) 0.20977(8)
H25 H 0.1277 0.7466 0.1740
C48 C 0.12129(12) 0.61898(11) 0.20849(8)
H26 H 0.1151 0.5988 0.1722
C49 C 0.12296(11) 0.56050(11) 0.26151(7)
C50 C 0.13200(13) 0.59251(11) 0.31538(8)
H27 H 0.1331 0.5539 0.3512
C51 C 0.13938(14) 0.68109(12) 0.31615(8)
H28 H 0.1453 0.7014 0.3525
C52 C 0.11864(11) 0.46260(11) 0.26091(8)
N2 N 0.12977(11) 0.31094(10) 0.92152(6)
N3 N 0.10233(11) 0.29566(10) 0.61220(6)
N4 N 0.10768(9) 0.28125(9) 0.42470(6)
O1 O 0.12067(12) 0.16334(9) 0.94079(6)
O2 O 0.12187(9) 0.46369(8) 0.90543(5)
O3 O 0.09803(12) 0.14604(10) 0.62945(6)
O4 O 0.11098(10) 0.44314(9) 0.59282(5)
O5 O 0.11660(9) 0.41651(7) 0.31158(5)
O17 O 0.26153(8) 0.25175(8) 0.31157(5)
H11 H 0.9899 0.3801 0.4382
H12 H 0.9801 0.3871 0.5423
C25 C 0.95942(11) 0.30636(10) 0.27534(7)
C26 C 0.86167(12) 0.30636(12) 0.27335(8)
C27 C 0.83878(14) 0.28811(17) 0.22051(9)
H13 H 0.8840 0.2790 0.1851
C28 C 0.74956(15) 0.2831(2) 0.21897(9)
H14 H 0.7362 0.2697 0.1827
C29 C 0.67952(13) 0.29777(15) 0.27077(8)
C30 C 0.70186(13) 0.31987(15) 0.32356(9)
H15 H 0.6558 0.3327 0.3583
C31 C 0.79212(12) 0.32307(14) 0.32517(8)
H16 H 0.8061 0.3365 0.3612
C32 C 0.58484(13) 0.29053(15) 0.26895(9)
C33 C 0.54837(15) 0.31248(19) 0.21466(9)
H17 H 0.5836 0.3327 0.1795
C34 C 0.46150(14) 0.30480(17) 0.21218(9)
H18 H 0.4388 0.3194 0.1753
C35 C 0.40702(12) 0.27549(13) 0.26400(8)
C36 C 0.44275(12) 0.25398(13) 0.31873(8)
H19 H 0.4071 0.2344 0.3540
C37 C 0.53045(13) 0.26145(14) 0.32105(9)
H20 H 0.5534 0.2469 0.3578
C38 C 0.31014(12) 0.27151(11) 0.26187(8)
O9 O 0.97908(7) 0.31373(8) 0.32626(5)
H11_2 H 0.0101 0.6199 0.5618
H12_2 H 0.0199 0.6129 0.4577
C25_2 C 0.04058(11) 0.69364(10) 0.72466(7)
C26_2 C 0.13833(12) 0.69364(12) 0.72665(8)
C27_2 C 0.16122(14) 0.71189(17) 0.77949(9)
H13_2 H 0.1160 0.7210 0.8149
C28_2 C 0.25044(15) 0.7169(2) 0.78103(9)
H14_2 H 0.2638 0.7303 0.8173
C29_2 C 0.32048(13) 0.70223(15) 0.72923(8)
C30_2 C 0.29814(13) 0.68013(15) 0.67644(9)
H15_2 H 0.3442 0.6673 0.6417
C31_2 C 0.20788(12) 0.67693(14) 0.67483(8)
H16_2 H 0.1939 0.6635 0.6388
C32_2 C 0.41516(13) 0.70947(15) 0.73105(9)
C33_2 C 0.45163(15) 0.68752(19) 0.78534(9)
H17_2 H 0.4164 0.6673 0.8205
C34_2 C 0.53850(14) 0.69520(17) 0.78782(9)
H18_2 H 0.5612 0.6806 0.8247
C35_2 C 0.59298(12) 0.72451(13) 0.73600(8)
C36_2 C 0.55725(12) 0.74602(13) 0.68127(8)
H19_2 H 0.5929 0.7656 0.6460
C37_2 C 0.46955(13) 0.73855(14) 0.67895(9)
H20_2 H 0.4466 0.7531 0.6422
C38_2 C 0.68986(12) 0.72849(11) 0.73813(8)
O9_2 O 0.02092(7) 0.68627(8) 0.67374(5)
O11 O 0.73847(8) 0.74825(8) 0.68843(5)
O12 O 0.71619(8) 0.71004(8) 0.78948(5)
Zn4 Zn 0.882420(12) 0.717125(12) 0.667258(7)
Zn8 Zn 0.846430(12) 0.703250(12) 0.801710(7)
H2_2 H 0.7346 0.7818 0.0208
C3_2 C 0.86166(13) 0.68778(12) 0.01512(7)
C6_2 C 0.87790(14) 0.77205(13) 0.09608(8)
C7_2 C 0.88400(14) 0.77456(13) 0.16120(8)
C8_2 C 0.88415(12) 0.69469(12) 0.20163(7)
C9_2 C 0.88303(12) 0.61095(12) 0.18063(7)
C10_2 C 0.87811(12) 0.60628(12) 0.11527(7)
C11_2 C 0.88382(12) 0.53498(12) 0.22035(7)
H5_2 H 0.8828 0.4802 0.2062
C12_2 C 0.88625(12) 0.53928(12) 0.28277(7)
H6_2 H 0.8869 0.4872 0.3097
C13_2 C 0.88764(12) 0.61839(12) 0.30374(7)
C14_2 C 0.88797(12) 0.69896(12) 0.26376(7)
C15_2 C 0.89182(14) 0.78045(13) 0.28446(8)
C16_2 C 0.89235(16) 0.85771(14) 0.24447(8)
H7_2 H 0.8960 0.9116 0.2584
C17_2 C 0.88723(16) 0.85370(14) 0.18245(8)
H8_2 H 0.8860 0.9059 0.1556
C18_2 C 0.89676(15) 0.78516(14) 0.34951(8)
C19_2 C 0.89122(13) 0.62204(13) 0.37010(8)
C20_2 C 0.89716(13) 0.70993(12) 0.45206(7)
C21_2 C 0.82531(15) 0.77122(15) 0.48554(8)
H9_2 H 0.7776 0.8115 0.4669
C22_2 C 0.82433(14) 0.77263(14) 0.54729(8)
H10_2 H 0.7739 0.8130 0.5703
C23_2 C 0.96299(13) 0.65918(14) 0.54220(8)
C24_2 C 0.96886(14) 0.65360(15) 0.48000(8)
C41_2 C 0.80966(13) 0.03050(12) 0.78794(8)
H21_2 H 0.7836 0.0019 0.8235
C42_2 C 0.81412(14) 0.12021(12) 0.78832(8)
H22_2 H 0.7901 0.1514 0.8241
C43_2 C 0.85378(13) 0.16455(11) 0.73634(8)
C44_2 C 0.88646(17) 0.11651(13) 0.68336(9)
H23_2 H 0.9127 0.1447 0.6477
C45_2 C 0.88052(16) 0.02706(13) 0.68283(8)
C46_2 C 0.86196(13) 0.25971(11) 0.73699(8)
C47_2 C 0.87114(13) 0.29204(11) 0.79023(8)
H25_2 H 0.8723 0.2534 0.8260
C48_2 C 0.87871(12) 0.38102(11) 0.79151(8)
H26_2 H 0.8849 0.4012 0.8278
C49_2 C 0.87704(11) 0.43950(11) 0.73849(7)
C50_2 C 0.86800(13) 0.40749(11) 0.68462(8)
H27_2 H 0.8669 0.4461 0.6488
C51_2 C 0.86062(14) 0.31891(12) 0.68385(8)
H28_2 H 0.8547 0.2986 0.6475
C52_2 C 0.88136(11) 0.53740(11) 0.73909(8)
N2_2 N 0.87023(11) 0.68906(10) 0.07848(6)
N3_2 N 0.89767(11) 0.70434(10) 0.38780(6)
N4_2 N 0.89232(9) 0.71875(9) 0.57530(6)
O1_2 O 0.87933(12) 0.83666(9) 0.05921(6)
O2_2 O 0.87813(9) 0.53631(8) 0.09457(5)
O3_2 O 0.90197(12) 0.85396(10) 0.37055(6)
O4_2 O 0.88902(10) 0.55686(9) 0.40718(5)
O5_2 O 0.88340(9) 0.58349(7) 0.68842(5)
O6 O 0.88173(8) 0.56539(7) 0.78967(5)
O10 O 0.98459(7) 0.70138(8) 0.77500(5)
O15 O 0.87201(8) 0.84755(7) 0.68445(5)
C1_2 C 0.77777(13) 0.74630(13) 0.93292(8)
H1_2 H 0.7256 0.7856 0.9183
C2_2 C 0.78295(14) 0.74501(14) 0.99423(8)
C4_2 C 0.93053(13) 0.63187(12) 0.97594(7)
H3_2 H 0.9834 0.5922 0.9896
C5_2 C 0.91958(12) 0.63580(11) 0.91543(7)
H4_2 H 0.9659 0.5971 0.8887
N1_2 N 0.84589(9) 0.69243(9) 0.89362(6)
O14 O 0.81721(8) 0.84415(7) 0.78575(5)
C39_2 C 0.84355(11) 0.88421(11) 0.73498(7)
C40_2 C 0.84350(12) 0.98307(11) 0.73539(8)
H24_2 H 0.9017 0.9966 0.6467
loop_
_geom_bond_atom_site_label_1
_geom_bond_atom_site_label_2
_geom_bond_site_symmetry_1
_geom_bond_site_symmetry_2
C39 C40 1_555 1_555
O7 C39 1_555 1_555
O8 C39 1_555 1_555
Zn3 O8 1_555 1_555
Zn7 O7 1_555 1_555
Zn3 Zn7 1_555 1_555
C1 H1 1_555 1_555
C2 C1 1_555 1_555
H3 C4 1_555 1_555
C5 C4 1_555 1_555
H4 C5 1_555 1_555
N1 C1 1_555 1_555
Zn7 N1 1_555 1_555
O13 Zn7 1_555 1_555
O16 Zn7 1_555 1_555
O18 Zn7 1_555 1_555
C5 N1 1_555 1_555
C6 C7 1_555 1_555
C7 C8 1_555 1_555
C8 C9 1_555 1_555
C9 C10 1_555 1_555
C10 N2 1_555 1_555
C11 C9 1_555 1_555
H5 C11 1_555 1_555
C12 C11 1_555 1_555
H6 C12 1_555 1_555
C13 C12 1_555 1_555
C14 C8 1_555 1_555
C15 C14 1_555 1_555
C16 C15 1_555 1_555
H7 C16 1_555 1_555
C17 C7 1_555 1_555
H8 C17 1_555 1_555
C18 C15 1_555 1_555
C19 C13 1_555 1_555
C20 C21 1_555 1_555
C21 H9 1_555 1_555
C22 C21 1_555 1_555
H10 C22 1_555 1_555
C24 C20 1_555 1_555
C41 H21 1_555 1_555
C42 C41 1_555 1_555
H22 C42 1_555 1_555
C43 C42 1_555 1_555
C44 C43 1_555 1_555
H23 C44 1_555 1_555
C46 C43 1_555 1_555
C47 C46 1_555 1_555
H25 C47 1_555 1_555
C48 C47 1_555 1_555
H26 C48 1_555 1_555
C49 C48 1_555 1_555
C50 C49 1_555 1_555
H27 C50 1_555 1_555
C51 C46 1_555 1_555
H28 C51 1_555 1_555
C52 C49 1_555 1_555
N2 C3 1_555 1_555
N3 C18 1_555 1_555
N4 C22 1_555 1_555
O1 C6 1_555 1_555
O2 C10 1_555 1_555
O3 C18 1_555 1_555
O4 C19 1_555 1_555
O5 C52 1_555 1_555
O13 C52 1_555 1_555
Zn3 N4 1_555 1_555
O17 Zn3 1_555 1_555
C6 N2 1_555 1_555
C13 C14 1_555 1_555
C16 C17 1_555 1_555
C19 N3 1_555 1_555
C20 N3 1_555 1_555
C23 C24 1_555 1_555
C23 N4 1_555 1_555
C44 C45 1_555 1_555
C50 C51 1_555 1_555
O5 Zn3 1_555 1_555
C25 C26 1_555 1_555
C26 C27 1_555 1_555
C27 H13 1_555 1_555
C28 C27 1_555 1_555
H14 C28 1_555 1_555
C29 C28 1_555 1_555
C30 C29 1_555 1_555
H15 C30 1_555 1_555
C31 C26 1_555 1_555
H16 C31 1_555 1_555
C32 C29 1_555 1_555
C33 C32 1_555 1_555
H17 C33 1_555 1_555
C34 C33 1_555 1_555
H18 C34 1_555 1_555
C35 C34 1_555 1_555
C36 C35 1_555 1_555
H19 C36 1_555 1_555
C37 C32 1_555 1_555
H20 C37 1_555 1_555
C38 C35 1_555 1_555
O9 C25 1_555 1_555
O17 C38 1_555 1_555
O18 C38 1_555 1_555
C30 C31 1_555 1_555
C36 C37 1_555 1_555
C25_2 C26_2 1_555 1_555
C26_2 C27_2 1_555 1_555
C27_2 H13_2 1_555 1_555
C28_2 C27_2 1_555 1_555
H14_2 C28_2 1_555 1_555
C29_2 C28_2 1_555 1_555
C30_2 C29_2 1_555 1_555
H15_2 C30_2 1_555 1_555
C31_2 C26_2 1_555 1_555
H16_2 C31_2 1_555 1_555
C32_2 C29_2 1_555 1_555
C33_2 C32_2 1_555 1_555
H17_2 C33_2 1_555 1_555
C34_2 C33_2 1_555 1_555
H18_2 C34_2 1_555 1_555
C35_2 C34_2 1_555 1_555
C36_2 C35_2 1_555 1_555
H19_2 C36_2 1_555 1_555
C37_2 C32_2 1_555 1_555
H20_2 C37_2 1_555 1_555
C38_2 C35_2 1_555 1_555
O9_2 C25_2 1_555 1_555
O11 C38_2 1_555 1_555
O12 C38_2 1_555 1_555
Zn4 O11 1_555 1_555
Zn8 O12 1_555 1_555
C30_2 C31_2 1_555 1_555
C36_2 C37_2 1_555 1_555
Zn4 Zn8 1_555 1_555
C6_2 C7_2 1_555 1_555
C7_2 C8_2 1_555 1_555
C8_2 C9_2 1_555 1_555
C9_2 C10_2 1_555 1_555
C10_2 N2_2 1_555 1_555
C11_2 C9_2 1_555 1_555
H5_2 C11_2 1_555 1_555
C12_2 C11_2 1_555 1_555
H6_2 C12_2 1_555 1_555
C13_2 C12_2 1_555 1_555
C14_2 C8_2 1_555 1_555
C15_2 C14_2 1_555 1_555
C16_2 C15_2 1_555 1_555
H7_2 C16_2 1_555 1_555
C17_2 C7_2 1_555 1_555
H8_2 C17_2 1_555 1_555
C18_2 C15_2 1_555 1_555
C19_2 C13_2 1_555 1_555
C20_2 C21_2 1_555 1_555
C21_2 H9_2 1_555 1_555
C22_2 C21_2 1_555 1_555
H10_2 C22_2 1_555 1_555
C24_2 C20_2 1_555 1_555
C41_2 H21_2 1_555 1_555
C42_2 C41_2 1_555 1_555
H22_2 C42_2 1_555 1_555
C43_2 C42_2 1_555 1_555
C44_2 C43_2 1_555 1_555
H23_2 C44_2 1_555 1_555
C46_2 C43_2 1_555 1_555
C47_2 C46_2 1_555 1_555
H25_2 C47_2 1_555 1_555
C48_2 C47_2 1_555 1_555
H26_2 C48_2 1_555 1_555
C49_2 C48_2 1_555 1_555
C50_2 C49_2 1_555 1_555
H27_2 C50_2 1_555 1_555
C51_2 C46_2 1_555 1_555
H28_2 C51_2 1_555 1_555
C52_2 C49_2 1_555 1_555
N2_2 C3_2 1_555 1_555
N3_2 C18_2 1_555 1_555
N4_2 C22_2 1_555 1_555
O1_2 C6_2 1_555 1_555
O2_2 C10_2 1_555 1_555
O3_2 C18_2 1_555 1_555
O4_2 C19_2 1_555 1_555
O5_2 C52_2 1_555 1_555
O6 C52_2 1_555 1_555
Zn4 N4_2 1_555 1_555
O15 Zn4 1_555 1_555
Zn8 O6 1_555 1_555
C6_2 N2_2 1_555 1_555
C13_2 C14_2 1_555 1_555
C16_2 C17_2 1_555 1_555
C19_2 N3_2 1_555 1_555
C20_2 N3_2 1_555 1_555
C23_2 C24_2 1_555 1_555
C23_2 N4_2 1_555 1_555
C44_2 C45_2 1_555 1_555
C50_2 C51_2 1_555 1_555
O5_2 Zn4 1_555 1_555
O10 Zn8 1_555 1_555
C1_2 H1_2 1_555 1_555
C2_2 C1_2 1_555 1_555
H3_2 C4_2 1_555 1_555
C5_2 C4_2 1_555 1_555
H4_2 C5_2 1_555 1_555
N1_2 C1_2 1_555 1_555
Zn8 N1_2 1_555 1_555
O14 Zn8 1_555 1_555
C5_2 N1_2 1_555 1_555
C39_2 C40_2 1_555 1_555
O14 C39_2 1_555 1_555
O15 C39_2 1_555 1_555

#END
