
###############################################################################
#
# This file contains modified crystal structure data generated from the
# MOF subset of the Cambridge Structural Database (CSD) v543 
# hosted by the Cambridge Crystallographic Data Centre (CCDC).
#
# This work is licensed under the Creative Commons
# Attribution-NonCommercial-ShareAlike 4.0 International License.
# To view a copy of this license, visit
# http://creativecommons.org/licenses/by-nc-sa/4.0/
# or send a letter to
# Creative Commons, PO Box 1866, Mountain View, CA 94042, USA.
#
# CIF created using the CSD Python API on 29 September 2022
# The structure has been converted into the P1 space group
# The structure has a 3D framework
# The original CSD entry MATWUC is in the monoclinic crystal system
# The original CSD entry MATWUC is in a Sohncke space group
# The framework has been calculated to contain at least 10.0% void space
# The void calculation uses a probe of radius 1.32A, grid spacing 0.4
# The framework is charged, counterions have been retained in the structure
# H atom positions have been added when not included in the experimental data
#
###############################################################################

data_MATWUC
_chemical_formula_moiety         '(C104 H60 N24 O44 Zn8 4-)n'
_symmetry_cell_setting           triclinic
_symmetry_space_group_name_H-M   'P 1'
_symmetry_Int_Tables_number      1
_space_group_name_Hall           'P 1'
loop_
_symmetry_equiv_pos_site_id
_symmetry_equiv_pos_as_xyz
1 x,y,z
_cell_length_a                   18.8984(18)
_cell_length_b                   17.7031(18)
_cell_length_c                   14.4754(14)
_cell_angle_alpha                90
_cell_angle_beta                 96.602(2)
_cell_angle_gamma                90
_cell_volume                     4810.78
loop_
_atom_site_label
_atom_site_type_symbol
_atom_site_fract_x
_atom_site_fract_y
_atom_site_fract_z
Zn3 Zn 0.29021(3) 0.24716(3) 0.07397(4)
O3 O 0.25392(17) 0.3114(3) 0.8197(2)
O4 O 0.3235(2) 0.3064(3) 0.9556(2)
O5 O 0.6269(2) 0.2770(3) 0.8436(3)
O6 O 0.5706(2) 0.1929(3) 0.9208(3)
O8 O 0.21228(17) 0.3221(2) 0.0787(2)
O9 O 0.2435(3) 0.6662(3) 0.0086(4)
O10 O 0.3412(2) 0.7002(2) 0.0973(3)
O11 O 0.2556(4) 0.1789(4) 0.1815(5)
N1 N 0.4126(2) 0.4174(3) 0.4503(3)
N2 N 0.3225(2) 0.3623(4) 0.5326(3)
N3 N 0.2927(2) 0.4128(3) 0.3784(3)
N4 N 0.4414(2) 0.3720(3) 0.5960(3)
N5 N 0.3809(2) 0.4697(3) 0.3099(3)
N6 N 0.2084(2) 0.3534(3) 0.4635(3)
C1 C 0.1499(3) 0.3525(6) 0.3943(4)
C2 C 0.1541(4) 0.3502(7) 0.3006(5)
H1 H 0.1983 0.3506 0.2784
C3 C 0.0933(3) 0.3474(6) 0.2393(4)
H2 H 0.0978 0.3490 0.1761
C4 C 0.0276(3) 0.3425(5) 0.2653(4)
C5 C 0.0213(3) 0.3555(5) 0.3634(4)
C6 C 0.0834(3) 0.3577(5) 0.4215(4)
H4 H 0.0801 0.3631 0.4848
C8 C 0.4378(3) 0.3382(3) 0.6834(3)
C9 C 0.3772(3) 0.3369(4) 0.7282(4)
H5 H 0.3348 0.3565 0.6988
C10 C 0.3792(3) 0.3059(4) 0.8190(3)
C11 C 0.4412(3) 0.2738(3) 0.8604(3)
H6 H 0.4420 0.2503 0.9180
C12 C 0.5017(3) 0.2764(3) 0.8168(3)
C13 C 0.5009(3) 0.3102(4) 0.7274(3)
H7 H 0.5425 0.3134 0.6990
C14 C 0.3140(3) 0.3063(4) 0.8684(3)
C15 C 0.5710(3) 0.2466(4) 0.8637(3)
C16 C 0.3369(3) 0.4879(3) 0.2243(3)
C17 C 0.2951(3) 0.4311(3) 0.1788(3)
H8 H 0.2945 0.3827 0.2039
C18 C 0.2543(3) 0.4482(3) 0.0954(3)
C19 C 0.2542(3) 0.5202(3) 0.0585(4)
H9 H 0.2260 0.5315 0.0033
C20 C 0.2973(3) 0.5762(3) 0.1058(4)
C21 C 0.3384(3) 0.5585(3) 0.1888(3)
H10 H 0.3670 0.5953 0.2201
C22 C 0.2130(3) 0.3874(3) 0.0441(3)
C23 C 0.2943(3) 0.6538(3) 0.0665(4)
C24 C 0.2780(3) 0.3766(5) 0.4551(4)
C25 C 0.3881(3) 0.3857(4) 0.5249(3)
C26 C 0.3597(3) 0.4315(3) 0.3807(3)
Zn4 Zn 0.70979(3) 0.24716(3) 0.92603(4)
Zn6 Zn 0.16559(3) 0.31171(3) 0.88314(4)
Zn8 Zn 0.33441(3) 0.81171(3) 0.11686(4)
O16 O 0.3731(2) 0.2770(3) 0.1564(3)
H11 H 0.206355 0.160875 0.162228
H12 H 0.287926 0.134837 0.193013
H13 H 0.198967 0.334962 0.527342
H14 H 0.490774 0.388802 0.583555
H15 H 0.432246 0.48763 0.316355
O7 O 0.1822(2) 0.4024(2) 0.9630(3)
Zn5 Zn 0.20979(3) 0.74716(3) 0.92603(4)
O12 O 0.0985(2) 0.3344(3) 0.7703(3)
O13 O 0.0347(2) 0.3230(3) 0.8843(3)
O17 O 0.2565(3) 0.1662(3) 0.9914(4)
O18 O 0.1588(2) 0.2002(2) 0.9027(3)
O1 O 0.9015(2) 0.3344(3) 0.2297(3)
O2 O 0.9653(2) 0.3230(3) 0.1157(3)
H3 H 0.9773 0.3619 0.3852
C7 C 0.9621(3) 0.3336(4) 0.2003(4)
Zn7 Zn 0.83441(3) 0.31171(3) 0.11686(4)
H3_2 H 0.0227 0.3619 0.6148
C7_2 C 0.0379(3) 0.3336(4) 0.7997(4)
O7_2 O 0.8178(2) 0.4024(2) 0.0370(3)
Zn5_2 Zn 0.79021(3) 0.74716(3) 0.07397(4)
O14 O 0.74608(17) 0.3114(3) 0.1803(2)
O15 O 0.6765(2) 0.3064(3) 0.0444(2)
O17_2 O 0.7435(3) 0.1662(3) 0.0086(4)
O18_2 O 0.8412(2) 0.2002(2) 0.0973(3)
O6_2 O 0.4294(2) 0.1929(3) 0.0792(3)
O8_2 O 0.78772(17) 0.3221(2) 0.9213(2)
O9_2 O 0.7565(3) 0.6662(3) 0.9914(4)
O10_2 O 0.6588(2) 0.7002(2) 0.9027(3)
O11_2 O 0.7444(4) 0.1789(4) 0.8185(5)
N1_2 N 0.5874(2) 0.4174(3) 0.5497(3)
N2_2 N 0.6775(2) 0.3623(4) 0.4674(3)
N3_2 N 0.7073(2) 0.4128(3) 0.6216(3)
N4_2 N 0.5586(2) 0.3720(3) 0.4040(3)
N5_2 N 0.6191(2) 0.4697(3) 0.6901(3)
N6_2 N 0.7916(2) 0.3534(3) 0.5365(3)
C1_2 C 0.8501(3) 0.3525(6) 0.6057(4)
C2_2 C 0.8459(4) 0.3502(7) 0.6994(5)
H1_2 H 0.8017 0.3506 0.7216
C3_2 C 0.9067(3) 0.3474(6) 0.7607(4)
H2_2 H 0.9022 0.3490 0.8239
C4_2 C 0.9724(3) 0.3425(5) 0.7347(4)
C5_2 C 0.9787(3) 0.3555(5) 0.6366(4)
C6_2 C 0.9166(3) 0.3577(5) 0.5785(4)
H4_2 H 0.9199 0.3631 0.5152
C8_2 C 0.5622(3) 0.3382(3) 0.3166(3)
C9_2 C 0.6228(3) 0.3369(4) 0.2718(4)
H5_2 H 0.6652 0.3565 0.3012
C10_2 C 0.6208(3) 0.3059(4) 0.1810(3)
C11_2 C 0.5588(3) 0.2738(3) 0.1396(3)
H6_2 H 0.5580 0.2503 0.0820
C12_2 C 0.4983(3) 0.2764(3) 0.1832(3)
C13_2 C 0.4991(3) 0.3102(4) 0.2726(3)
H7_2 H 0.4575 0.3134 0.3010
C14_2 C 0.6860(3) 0.3063(4) 0.1316(3)
C15_2 C 0.4290(3) 0.2466(4) 0.1363(3)
C16_2 C 0.6631(3) 0.4879(3) 0.7757(3)
C17_2 C 0.7049(3) 0.4311(3) 0.8212(3)
H8_2 H 0.7055 0.3827 0.7961
C18_2 C 0.7457(3) 0.4482(3) 0.9046(3)
C19_2 C 0.7458(3) 0.5202(3) 0.9415(4)
H9_2 H 0.7740 0.5315 0.9967
C20_2 C 0.7027(3) 0.5762(3) 0.8942(4)
C21_2 C 0.6616(3) 0.5585(3) 0.8112(3)
H10_2 H 0.6330 0.5953 0.7799
C22_2 C 0.7870(3) 0.3874(3) 0.9559(3)
C23_2 C 0.7057(3) 0.6538(3) 0.9335(4)
C24_2 C 0.7220(3) 0.3766(5) 0.5449(4)
C25_2 C 0.6119(3) 0.3857(4) 0.4751(3)
C26_2 C 0.6403(3) 0.4315(3) 0.6193(3)
Zn8_2 Zn 0.66559(3) 0.81171(3) 0.88314(4)
H11_2 H 0.793645 0.160875 0.837772
H12_2 H 0.712074 0.134837 0.806987
H13_2 H 0.801033 0.334962 0.472658
H14_2 H 0.509226 0.388802 0.416445
H15_2 H 0.567754 0.48763 0.683645
O5_2 O 0.1269(2) 0.7770(3) 0.8436(3)
O6_3 O 0.0706(2) 0.6929(3) 0.9208(3)
C12_3 C 0.0017(3) 0.7764(3) 0.8168(3)
C13_3 C 0.0009(3) 0.8102(4) 0.7274(3)
H7_3 H 0.0425 0.8134 0.6990
C15_3 C 0.0710(3) 0.7466(4) 0.8637(3)
C19_3 C 0.7542(3) 0.0202(3) 0.0585(4)
H9_3 H 0.7260 0.0315 0.0033
C20_3 C 0.7973(3) 0.0762(3) 0.1058(4)
C21_3 C 0.8384(3) 0.0585(3) 0.1888(3)
H10_3 H 0.8670 0.0953 0.2201
C23_3 C 0.7943(3) 0.1538(3) 0.0665(4)
O1_2 O 0.4015(2) 0.8344(3) 0.2297(3)
O2_2 O 0.4653(2) 0.8230(3) 0.1157(3)
O3_2 O 0.75392(17) 0.8114(3) 0.8197(2)
O4_2 O 0.8235(2) 0.8064(3) 0.9556(2)
O8_3 O 0.71228(17) 0.8221(2) 0.0787(2)
O11_3 O 0.7556(4) 0.6789(4) 0.1815(5)
N1_3 N 0.9126(2) 0.9174(3) 0.4503(3)
N2_3 N 0.8225(2) 0.8623(4) 0.5326(3)
N3_3 N 0.7927(2) 0.9128(3) 0.3784(3)
N4_3 N 0.9414(2) 0.8720(3) 0.5960(3)
N5_3 N 0.8809(2) 0.9697(3) 0.3099(3)
N6_3 N 0.7084(2) 0.8534(3) 0.4635(3)
C1_3 C 0.6499(3) 0.8525(6) 0.3943(4)
C2_3 C 0.6541(4) 0.8502(7) 0.3006(5)
H1_3 H 0.6983 0.8506 0.2784
C3_3 C 0.5933(3) 0.8474(6) 0.2393(4)
H2_3 H 0.5978 0.8490 0.1761
C4_3 C 0.5276(3) 0.8425(5) 0.2653(4)
C5_3 C 0.5213(3) 0.8555(5) 0.3634(4)
H3_3 H 0.4773 0.8619 0.3852
C6_3 C 0.5834(3) 0.8577(5) 0.4215(4)
H4_3 H 0.5801 0.8631 0.4848
C7_3 C 0.4621(3) 0.8336(4) 0.2003(4)
C8_3 C 0.9378(3) 0.8382(3) 0.6834(3)
C9_3 C 0.8772(3) 0.8369(4) 0.7282(4)
H5_3 H 0.8348 0.8565 0.6988
C10_3 C 0.8792(3) 0.8059(4) 0.8190(3)
C11_3 C 0.9412(3) 0.7738(3) 0.8604(3)
H6_3 H 0.9420 0.7503 0.9180
C14_3 C 0.8140(3) 0.8063(4) 0.8684(3)
C16_3 C 0.8369(3) 0.9879(3) 0.2243(3)
C17_3 C 0.7951(3) 0.9311(3) 0.1788(3)
H8_3 H 0.7945 0.8827 0.2039
C18_3 C 0.7543(3) 0.9482(3) 0.0954(3)
C22_3 C 0.7130(3) 0.8874(3) 0.0441(3)
C24_3 C 0.7780(3) 0.8766(5) 0.4551(4)
C25_3 C 0.8881(3) 0.8857(4) 0.5249(3)
C26_3 C 0.8597(3) 0.9315(3) 0.3807(3)
O16_2 O 0.8731(2) 0.7770(3) 0.1564(3)
H11_3 H 0.706355 0.660875 0.162228
H12_3 H 0.787926 0.634837 0.193013
H13_3 H 0.698967 0.834962 0.527342
H14_3 H 0.990774 0.888802 0.583555
H15_3 H 0.932246 0.98763 0.316355
O7_3 O 0.6822(2) 0.9024(2) 0.9630(3)
O12_2 O 0.5985(2) 0.8344(3) 0.7703(3)
O13_2 O 0.5347(2) 0.8230(3) 0.8843(3)
C19_4 C 0.2458(3) 0.0202(3) 0.9415(4)
H9_4 H 0.2740 0.0315 0.9967
C20_4 C 0.2027(3) 0.0762(3) 0.8942(4)
C21_4 C 0.1616(3) 0.0585(3) 0.8112(3)
H10_4 H 0.1330 0.0953 0.7799
C23_4 C 0.2057(3) 0.1538(3) 0.9335(4)
O7_4 O 0.3178(2) 0.9024(2) 0.0370(3)
O14_2 O 0.24608(17) 0.8114(3) 0.1803(2)
O15_2 O 0.1765(2) 0.8064(3) 0.0444(2)
O8_4 O 0.28772(17) 0.8221(2) 0.9213(2)
O11_4 O 0.2444(4) 0.6789(4) 0.8185(5)
N1_4 N 0.0874(2) 0.9174(3) 0.5497(3)
N2_4 N 0.1775(2) 0.8623(4) 0.4674(3)
N3_4 N 0.2073(2) 0.9128(3) 0.6216(3)
N4_4 N 0.0586(2) 0.8720(3) 0.4040(3)
N5_4 N 0.1191(2) 0.9697(3) 0.6901(3)
N6_4 N 0.2916(2) 0.8534(3) 0.5365(3)
C1_4 C 0.3501(3) 0.8525(6) 0.6057(4)
C2_4 C 0.3459(4) 0.8502(7) 0.6994(5)
H1_4 H 0.3017 0.8506 0.7216
C3_4 C 0.4067(3) 0.8474(6) 0.7607(4)
H2_4 H 0.4022 0.8490 0.8239
C4_4 C 0.4724(3) 0.8425(5) 0.7347(4)
C5_4 C 0.4787(3) 0.8555(5) 0.6366(4)
H3_4 H 0.5227 0.8619 0.6148
C6_4 C 0.4166(3) 0.8577(5) 0.5785(4)
H4_4 H 0.4199 0.8631 0.5152
C7_4 C 0.5379(3) 0.8336(4) 0.7997(4)
C8_4 C 0.0622(3) 0.8382(3) 0.3166(3)
C9_4 C 0.1228(3) 0.8369(4) 0.2718(4)
H5_4 H 0.1652 0.8565 0.3012
C10_4 C 0.1208(3) 0.8059(4) 0.1810(3)
C11_4 C 0.0588(3) 0.7738(3) 0.1396(3)
H6_4 H 0.0580 0.7503 0.0820
C14_4 C 0.1860(3) 0.8063(4) 0.1316(3)
C16_4 C 0.1631(3) 0.9879(3) 0.7757(3)
C17_4 C 0.2049(3) 0.9311(3) 0.8212(3)
H8_4 H 0.2055 0.8827 0.7961
C18_4 C 0.2457(3) 0.9482(3) 0.9046(3)
C22_4 C 0.2870(3) 0.8874(3) 0.9559(3)
C24_4 C 0.2220(3) 0.8766(5) 0.5449(4)
C25_4 C 0.1119(3) 0.8857(4) 0.4751(3)
C26_4 C 0.1403(3) 0.9315(3) 0.6193(3)
H11_4 H 0.293645 0.660875 0.837772
H12_4 H 0.212074 0.634837 0.806987
H13_4 H 0.301033 0.834962 0.472658
H14_4 H 0.00922626 0.888802 0.416445
H15_4 H 0.0677542 0.98763 0.683645
O6_4 O 0.9294(2) 0.6929(3) 0.0792(3)
C12_4 C 0.9983(3) 0.7764(3) 0.1832(3)
C13_4 C 0.9991(3) 0.8102(4) 0.2726(3)
H7_4 H 0.9575 0.8134 0.3010
C15_4 C 0.9290(3) 0.7466(4) 0.1363(3)
loop_
_geom_bond_atom_site_label_1
_geom_bond_atom_site_label_2
_geom_bond_site_symmetry_1
_geom_bond_site_symmetry_2
Zn3 O8 1_555 1_555
O3 C14 1_555 1_555
O4 C14 1_555 1_555
O5 C15 1_555 1_555
O6 C15 1_555 1_555
O8 C22 1_555 1_555
O9 C23 1_555 1_555
O10 C23 1_555 1_555
O11 Zn3 1_555 1_555
N1 C25 1_555 1_555
N2 C24 1_555 1_555
N3 C24 1_555 1_555
N4 C8 1_555 1_555
N5 C16 1_555 1_555
N6 C1 1_555 1_555
C1 C2 1_555 1_555
C2 H1 1_555 1_555
C3 C2 1_555 1_555
H2 C3 1_555 1_555
C4 C3 1_555 1_555
C5 C4 1_555 1_555
C6 C1 1_555 1_555
H4 C6 1_555 1_555
C8 C9 1_555 1_555
C9 H5 1_555 1_555
C10 C9 1_555 1_555
C11 C10 1_555 1_555
H6 C11 1_555 1_555
C12 C11 1_555 1_555
C13 C8 1_555 1_555
H7 C13 1_555 1_555
C14 C10 1_555 1_555
C15 C12 1_555 1_555
C16 C17 1_555 1_555
C17 H8 1_555 1_555
C18 C17 1_555 1_555
C19 C18 1_555 1_555
H9 C19 1_555 1_555
C20 C19 1_555 1_555
C21 C16 1_555 1_555
H10 C21 1_555 1_555
C22 C18 1_555 1_555
C23 C20 1_555 1_555
C24 N6 1_555 1_555
C25 N2 1_555 1_555
C26 N1 1_555 1_555
Zn4 O5 1_555 1_555
Zn6 O3 1_555 1_555
Zn8 O10 1_555 1_555
O16 Zn3 1_555 1_555
N3 C26 1_555 1_555
N4 C25 1_555 1_555
N5 C26 1_555 1_555
C5 C6 1_555 1_555
C12 C13 1_555 1_555
C20 C21 1_555 1_555
O11 H11 1_555 1_555
O11 H12 1_555 1_555
N6 H13 1_555 1_555
N4 H14 1_555 1_555
N5 H15 1_555 1_555
Zn6 O7 1_555 1_555
O12 Zn6 1_555 1_555
O13 Zn6 1_555 1_555
O18 Zn6 1_555 1_555
O1 C7 1_555 1_555
O2 C7 1_555 1_555
Zn7 O1 1_555 1_555
O2 Zn7 1_555 1_555
O12 C7_2 1_555 1_555
O13 C7_2 1_555 1_555
Zn7 O7_2 1_555 1_555
O14 Zn7 1_555 1_555
O18_2 Zn7 1_555 1_555
Zn4 O8_2 1_555 1_555
O14 C14_2 1_555 1_555
O15 C14_2 1_555 1_555
O16 C15_2 1_555 1_555
O6_2 C15_2 1_555 1_555
O8_2 C22_2 1_555 1_555
O9_2 C23_2 1_555 1_555
O10_2 C23_2 1_555 1_555
O11_2 Zn4 1_555 1_555
N1_2 C25_2 1_555 1_555
N2_2 C24_2 1_555 1_555
N3_2 C24_2 1_555 1_555
N4_2 C8_2 1_555 1_555
N5_2 C16_2 1_555 1_555
N6_2 C1_2 1_555 1_555
C1_2 C2_2 1_555 1_555
C2_2 H1_2 1_555 1_555
C3_2 C2_2 1_555 1_555
H2_2 C3_2 1_555 1_555
C4_2 C3_2 1_555 1_555
C5_2 C4_2 1_555 1_555
C6_2 C1_2 1_555 1_555
H4_2 C6_2 1_555 1_555
C8_2 C9_2 1_555 1_555
C9_2 H5_2 1_555 1_555
C10_2 C9_2 1_555 1_555
C11_2 C10_2 1_555 1_555
H6_2 C11_2 1_555 1_555
C12_2 C11_2 1_555 1_555
C13_2 C8_2 1_555 1_555
H7_2 C13_2 1_555 1_555
C14_2 C10_2 1_555 1_555
C15_2 C12_2 1_555 1_555
C16_2 C17_2 1_555 1_555
C17_2 H8_2 1_555 1_555
C18_2 C17_2 1_555 1_555
C19_2 C18_2 1_555 1_555
H9_2 C19_2 1_555 1_555
C20_2 C19_2 1_555 1_555
C21_2 C16_2 1_555 1_555
H10_2 C21_2 1_555 1_555
C22_2 C18_2 1_555 1_555
C23_2 C20_2 1_555 1_555
C24_2 N6_2 1_555 1_555
C25_2 N2_2 1_555 1_555
C26_2 N1_2 1_555 1_555
Zn8_2 O10_2 1_555 1_555
N3_2 C26_2 1_555 1_555
N4_2 C25_2 1_555 1_555
N5_2 C26_2 1_555 1_555
C5_2 C6_2 1_555 1_555
C12_2 C13_2 1_555 1_555
C20_2 C21_2 1_555 1_555
O11_2 H11_2 1_555 1_555
O11_2 H12_2 1_555 1_555
N6_2 H13_2 1_555 1_555
N4_2 H14_2 1_555 1_555
N5_2 H15_2 1_555 1_555
O5_2 C15_3 1_555 1_555
O6_3 C15_3 1_555 1_555
H7_3 C13_3 1_555 1_555
C15_3 C12_3 1_555 1_555
Zn5 O5_2 1_555 1_555
C12_3 C13_3 1_555 1_555
O17_2 C23_3 1_555 1_555
O18_2 C23_3 1_555 1_555
H9_3 C19_3 1_555 1_555
C20_3 C19_3 1_555 1_555
H10_3 C21_3 1_555 1_555
C23_3 C20_3 1_555 1_555
C20_3 C21_3 1_555 1_555
Zn5_2 O8_3 1_555 1_555
O1_2 C7_3 1_555 1_555
O2_2 C7_3 1_555 1_555
O3_2 C14_3 1_555 1_555
O4_2 C14_3 1_555 1_555
O8_3 C22_3 1_555 1_555
O11_3 Zn5_2 1_555 1_555
N1_3 C25_3 1_555 1_555
N2_3 C24_3 1_555 1_555
N3_3 C24_3 1_555 1_555
N4_3 C8_3 1_555 1_555
N5_3 C16_3 1_555 1_555
N6_3 C1_3 1_555 1_555
C1_3 C2_3 1_555 1_555
C2_3 H1_3 1_555 1_555
C3_3 C2_3 1_555 1_555
H2_3 C3_3 1_555 1_555
C4_3 C3_3 1_555 1_555
C5_3 C4_3 1_555 1_555
H3_3 C5_3 1_555 1_555
C6_3 C1_3 1_555 1_555
H4_3 C6_3 1_555 1_555
C7_3 C4_3 1_555 1_555
C8_3 C9_3 1_555 1_555
C9_3 H5_3 1_555 1_555
C10_3 C9_3 1_555 1_555
C11_3 C10_3 1_555 1_555
H6_3 C11_3 1_555 1_555
C14_3 C10_3 1_555 1_555
C16_3 C17_3 1_555 1_555
C17_3 H8_3 1_555 1_555
C18_3 C17_3 1_555 1_555
C22_3 C18_3 1_555 1_555
C24_3 N6_3 1_555 1_555
C25_3 N2_3 1_555 1_555
C26_3 N1_3 1_555 1_555
Zn8_2 O3_2 1_555 1_555
Zn8 O1_2 1_555 1_555
O16_2 Zn5_2 1_555 1_555
O2_2 Zn8 1_555 1_555
N3_3 C26_3 1_555 1_555
N4_3 C25_3 1_555 1_555
N5_3 C26_3 1_555 1_555
C5_3 C6_3 1_555 1_555
O11_3 H11_3 1_555 1_555
O11_3 H12_3 1_555 1_555
N6_3 H13_3 1_555 1_555
N4_3 H14_3 1_555 1_555
N5_3 H15_3 1_555 1_555
Zn8_2 O7_3 1_555 1_555
O12_2 Zn8_2 1_555 1_555
O13_2 Zn8_2 1_555 1_555
O17 C23_4 1_555 1_555
O18 C23_4 1_555 1_555
H9_4 C19_4 1_555 1_555
C20_4 C19_4 1_555 1_555
H10_4 C21_4 1_555 1_555
C23_4 C20_4 1_555 1_555
C20_4 C21_4 1_555 1_555
Zn8 O7_4 1_555 1_555
O14_2 Zn8 1_555 1_555
Zn5 O8_4 1_555 1_555
O12_2 C7_4 1_555 1_555
O13_2 C7_4 1_555 1_555
O14_2 C14_4 1_555 1_555
O15_2 C14_4 1_555 1_555
O8_4 C22_4 1_555 1_555
O11_4 Zn5 1_555 1_555
N1_4 C25_4 1_555 1_555
N2_4 C24_4 1_555 1_555
N3_4 C24_4 1_555 1_555
N4_4 C8_4 1_555 1_555
N5_4 C16_4 1_555 1_555
N6_4 C1_4 1_555 1_555
C1_4 C2_4 1_555 1_555
C2_4 H1_4 1_555 1_555
C3_4 C2_4 1_555 1_555
H2_4 C3_4 1_555 1_555
C4_4 C3_4 1_555 1_555
C5_4 C4_4 1_555 1_555
H3_4 C5_4 1_555 1_555
C6_4 C1_4 1_555 1_555
H4_4 C6_4 1_555 1_555
C7_4 C4_4 1_555 1_555
C8_4 C9_4 1_555 1_555
C9_4 H5_4 1_555 1_555
C10_4 C9_4 1_555 1_555
C11_4 C10_4 1_555 1_555
H6_4 C11_4 1_555 1_555
C14_4 C10_4 1_555 1_555
C16_4 C17_4 1_555 1_555
C17_4 H8_4 1_555 1_555
C18_4 C17_4 1_555 1_555
C22_4 C18_4 1_555 1_555
C24_4 N6_4 1_555 1_555
C25_4 N2_4 1_555 1_555
C26_4 N1_4 1_555 1_555
N3_4 C26_4 1_555 1_555
N4_4 C25_4 1_555 1_555
N5_4 C26_4 1_555 1_555
C5_4 C6_4 1_555 1_555
O11_4 H11_4 1_555 1_555
O11_4 H12_4 1_555 1_555
N6_4 H13_4 1_555 1_555
N4_4 H14_4 1_555 1_555
N5_4 H15_4 1_555 1_555
O16_2 C15_4 1_555 1_555
O6_4 C15_4 1_555 1_555
H7_4 C13_4 1_555 1_555
C15_4 C12_4 1_555 1_555
C12_4 C13_4 1_555 1_555

#END
