
###############################################################################
#
# This file contains modified crystal structure data generated from the
# MOF subset of the Cambridge Structural Database (CSD) v543 
# hosted by the Cambridge Crystallographic Data Centre (CCDC).
#
# This work is licensed under the Creative Commons
# Attribution-NonCommercial-ShareAlike 4.0 International License.
# To view a copy of this license, visit
# http://creativecommons.org/licenses/by-nc-sa/4.0/
# or send a letter to
# Creative Commons, PO Box 1866, Mountain View, CA 94042, USA.
#
# CIF created using the CSD Python API on 29 September 2022
# The structure has been converted into the P1 space group
# The structure has a 3D framework
# The original CSD entry MATXAJ is in the monoclinic crystal system
# The framework has been calculated to contain at least 10.0% void space
# The void calculation uses a probe of radius 1.32A, grid spacing 0.4
# The framework is charged, counterions have been retained in the structure
# H atom positions have been added when not included in the experimental data
#
###############################################################################

data_MATXAJ
_chemical_formula_moiety         '(C208 H120 N48 O88 Zn10 8-)n'
_symmetry_cell_setting           triclinic
_symmetry_space_group_name_H-M   'P 1'
_symmetry_Int_Tables_number      1
_space_group_name_Hall           'P 1'
loop_
_symmetry_equiv_pos_site_id
_symmetry_equiv_pos_as_xyz
1 x,y,z
_cell_length_a                   31.855(11)
_cell_length_b                   17.268(3)
_cell_length_c                   30.293(14)
_cell_angle_alpha                90
_cell_angle_beta                 116.25(3)
_cell_angle_gamma                90
_cell_volume                     14944.9
loop_
_atom_site_label
_atom_site_type_symbol
_atom_site_fract_x
_atom_site_fract_y
_atom_site_fract_z
Zn1 Zn 0.89642(3) 0.49896(7) 0.01722(2)
Zn2 Zn 0.86615(3) 0.34363(8) 0.06906(3)
O11 O 0.9529(4) 0.5505(8) 0.0795(3)
O12 O 0.9239(3) 0.3902(8) 0.0462(3)
O13 O 0.93468(18) 0.3102(5) 0.10282(19)
O16 O 0.8266(2) 0.2685(5) 0.07840(16)
O17 O 0.8602(2) 0.4404(5) 0.10051(16)
O18 O 0.8504(4) 0.5275(7) 0.0431(2)
H14 H 0.979065 0.562243 0.0711564
H15 H 0.941953 0.599159 0.0885007
O1 O 0.4239(3) 0.1098(8) 0.5462(3)
O2 O 0.43468(18) 0.1898(5) 0.60282(19)
O3 O 0.6128(2) 0.1015(6) 0.5300(2)
O4 O 0.5596(2) 0.0138(5) 0.5191(3)
O5 O 0.6352(2) 0.2213(6) 0.83953(16)
O6 O 0.6734(2) 0.2315(5) 0.92160(16)
O7 O 0.8223(3) 0.3583(6) 0.99982(18)
O8 O 0.8471(2) 0.4425(5) 0.95872(16)
O9 O 0.8602(2) 0.5596(5) 0.60051(16)
O10 O 0.8504(4) 0.4725(7) 0.5431(2)
N1 N 0.6620(2) 0.2900(6) 0.6467(2)
N2 N 0.6716(3) 0.3229(6) 0.72682(19)
N3 N 0.7287(3) 0.3616(6) 0.70206(19)
N4 N 0.6069(2) 0.2599(7) 0.67399(19)
H1 H 0.5975 0.2703 0.6959
N5 N 0.7403(3) 0.3802(6) 0.78107(18)
H2 H 0.7612 0.4134 0.7830
N6 N 0.7145(3) 0.3292(6) 0.6209(2)
H3 H 0.6978 0.3008 0.5959
C1 C 0.6471(3) 0.2895(7) 0.6818(2)
C2 C 0.7015(3) 0.3249(8) 0.6581(2)
C3 C 0.7103(3) 0.3525(7) 0.7349(3)
C4 C 0.5760(3) 0.2123(7) 0.6342(2)
C5 C 0.5315(3) 0.2026(7) 0.6275(2)
H4 H 0.5212 0.2290 0.6477
C6 C 0.5004(3) 0.1531(6) 0.5905(2)
C7 C 0.5175(3) 0.1152(8) 0.5610(3)
H5 H 0.4978 0.0828 0.5358
C8 C 0.5609(3) 0.1249(7) 0.5684(2)
C9 C 0.5932(3) 0.1749(8) 0.6050(3)
H6 H 0.6237 0.1819 0.6090
C10 C 0.5792(2) 0.0752(10) 0.5376(3)
C11 C 0.4502(3) 0.1394(7) 0.5806(3)
C12 C 0.7388(3) 0.3575(7) 0.8254(2)
C13 C 0.7037(3) 0.3161(7) 0.8295(2)
H7 H 0.6779 0.3007 0.8010
C14 C 0.7057(3) 0.2967(7) 0.8750(2)
C15 C 0.6697(3) 0.2471(8) 0.8782(2)
C16 C 0.7428(3) 0.3219(7) 0.9175(3)
H8 H 0.7444 0.3099 0.9481
C17 C 0.7781(3) 0.3661(7) 0.9138(3)
C18 C 0.8206(4) 0.3915(9) 0.9607(2)
C19 C 0.7772(3) 0.3829(7) 0.8689(2)
H9 H 0.8015 0.4107 0.8673
C20 C 0.7485(4) 0.3694(9) 0.6155(2)
C21 C 0.7742(3) 0.4328(7) 0.6440(3)
H10 H 0.7697 0.4492 0.6709
C22 C 0.8052(4) 0.4698(9) 0.6323(3)
H11 H 0.8225 0.5105 0.6521
C23 C 0.8122(3) 0.4487(8) 0.5912(3)
C24 C 0.7901(4) 0.3849(9) 0.5659(4)
H12 H 0.7963 0.3677 0.5403
C25 C 0.7595(4) 0.3454(8) 0.5766(3)
H13 H 0.7450 0.3016 0.5584
C26 C 0.8434(4) 0.5023(8) 0.5767(3)
Zn4 Zn 0.89642(3) 0.50104(7) 0.51722(2)
Zn5 Zn 0.39642(3) 0.00104(7) 0.51722(2)
Zn6 Zn 0.86615(3) 0.65637(8) 0.56906(3)
Zn7 Zn 0.63385(3) 0.15637(8) 0.93094(3)
Zn8 Zn 0.36615(3) 0.15637(8) 0.56906(3)
O14 O 0.8872(2) 0.6015(6) 0.9700(2)
O15 O 0.9404(2) 0.5138(5) 0.9809(3)
Zn3 Zn 0.60358(3) 0.99896(7) 0.48278(2)
Zn1_2 Zn 0.10358(3) 0.49896(7) 0.48278(2)
Zn2_2 Zn 0.13385(3) 0.34363(8) 0.43094(3)
O1_2 O 0.5761(3) 0.1098(8) 0.9538(3)
O2_2 O 0.56532(18) 0.1898(5) 0.89718(19)
O3_2 O 0.3872(2) 0.1015(6) 0.9700(2)
O4_2 O 0.4404(2) 0.0138(5) 0.9809(3)
O5_2 O 0.3648(2) 0.2213(6) 0.66047(16)
O6_2 O 0.3266(2) 0.2315(5) 0.57840(16)
O7_2 O 0.1777(3) 0.3583(6) 0.50018(18)
O8_2 O 0.1529(2) 0.4425(5) 0.54128(16)
O9_2 O 0.1398(2) 0.5596(5) 0.89949(16)
O10_2 O 0.1496(4) 0.4725(7) 0.9569(2)
O11_2 O 0.0471(4) 0.5505(8) 0.4205(3)
N1_2 N 0.3380(2) 0.2900(6) 0.8533(2)
N2_2 N 0.3284(3) 0.3229(6) 0.77318(19)
N3_2 N 0.2713(3) 0.3616(6) 0.79794(19)
N4_2 N 0.3931(2) 0.2599(7) 0.82601(19)
H1_2 H 0.4025 0.2703 0.8041
N5_2 N 0.2597(3) 0.3802(6) 0.71893(18)
H2_2 H 0.2388 0.4134 0.7170
N6_2 N 0.2855(3) 0.3292(6) 0.8791(2)
H3_2 H 0.3022 0.3008 0.9041
C1_2 C 0.3529(3) 0.2895(7) 0.8182(2)
C2_2 C 0.2985(3) 0.3249(8) 0.8419(2)
C3_2 C 0.2897(3) 0.3525(7) 0.7651(3)
C4_2 C 0.4240(3) 0.2123(7) 0.8658(2)
C5_2 C 0.4685(3) 0.2026(7) 0.8725(2)
H4_2 H 0.4788 0.2290 0.8523
C6_2 C 0.4996(3) 0.1531(6) 0.9095(2)
C7_2 C 0.4825(3) 0.1152(8) 0.9390(3)
H5_2 H 0.5022 0.0828 0.9642
C8_2 C 0.4391(3) 0.1249(7) 0.9316(2)
C9_2 C 0.4068(3) 0.1749(8) 0.8950(3)
H6_2 H 0.3763 0.1819 0.8910
C10_2 C 0.4208(2) 0.0752(10) 0.9624(3)
C11_2 C 0.5498(3) 0.1394(7) 0.9194(3)
C12_2 C 0.2612(3) 0.3575(7) 0.6746(2)
C13_2 C 0.2963(3) 0.3161(7) 0.6705(2)
H7_2 H 0.3221 0.3007 0.6990
C14_2 C 0.2943(3) 0.2967(7) 0.6250(2)
C15_2 C 0.3303(3) 0.2471(8) 0.6218(2)
C16_2 C 0.2572(3) 0.3219(7) 0.5825(3)
H8_2 H 0.2556 0.3099 0.5519
C17_2 C 0.2219(3) 0.3661(7) 0.5862(3)
C18_2 C 0.1794(4) 0.3915(9) 0.5393(2)
C19_2 C 0.2228(3) 0.3829(7) 0.6311(2)
H9_2 H 0.1985 0.4107 0.6327
C20_2 C 0.2515(4) 0.3694(9) 0.8845(2)
C21_2 C 0.2258(3) 0.4328(7) 0.8560(3)
H10_2 H 0.2303 0.4492 0.8291
C22_2 C 0.1948(4) 0.4698(9) 0.8677(3)
H11_2 H 0.1775 0.5105 0.8479
C23_2 C 0.1878(3) 0.4487(8) 0.9088(3)
C24_2 C 0.2099(4) 0.3849(9) 0.9341(4)
H12_2 H 0.2037 0.3677 0.9597
C25_2 C 0.2405(4) 0.3454(8) 0.9234(3)
H13_2 H 0.2550 0.3016 0.9416
C26_2 C 0.1566(4) 0.5023(8) 0.9233(3)
Zn4_2 Zn 0.10358(3) 0.50104(7) 0.98278(2)
Zn5_2 Zn 0.60358(3) 0.00104(7) 0.98278(2)
Zn6_2 Zn 0.13385(3) 0.65637(8) 0.93094(3)
O12_2 O 0.0761(3) 0.3902(8) 0.4538(3)
O13_2 O 0.06532(18) 0.3102(5) 0.39718(19)
O14_2 O 0.1128(2) 0.6015(6) 0.5300(2)
O15_2 O 0.0596(2) 0.5138(5) 0.5191(3)
O16_2 O 0.1734(2) 0.2685(5) 0.42160(16)
O17_2 O 0.1398(2) 0.4404(5) 0.39949(16)
O18_2 O 0.1496(4) 0.5275(7) 0.4569(2)
H14_2 H 0.020935 0.562243 0.428844
H15_2 H 0.058047 0.599159 0.411499
Zn3_2 Zn 0.39642(3) 0.99896(7) 0.01722(2)
O11_3 O 0.4529(4) 0.0505(8) 0.0795(3)
O18_3 O 0.3504(4) 0.0275(7) 0.0431(2)
H14_3 H 0.479065 0.0622429 0.0711564
H15_3 H 0.441953 0.0991585 0.0885007
O9_3 O 0.3602(2) 0.0596(5) 0.60051(16)
H11_3 H 0.3225 0.0105 0.6521
C26_3 C 0.3434(4) 0.0023(8) 0.5767(3)
Zn2_3 Zn 0.36615(3) 0.84363(8) 0.06906(3)
O12_3 O 0.4239(3) 0.8902(8) 0.0462(3)
O13_3 O 0.43468(18) 0.8102(5) 0.10282(19)
O16_3 O 0.3266(2) 0.7685(5) 0.07840(16)
O17_3 O 0.3602(2) 0.9404(5) 0.10051(16)
O5_3 O 0.1352(2) 0.7213(6) 0.83953(16)
O6_3 O 0.1734(2) 0.7315(5) 0.92160(16)
O7_3 O 0.3223(3) 0.8583(6) 0.99982(18)
O8_3 O 0.3471(2) 0.9425(5) 0.95872(16)
O10_3 O 0.3504(4) 0.9725(7) 0.5431(2)
N1_3 N 0.1620(2) 0.7900(6) 0.6467(2)
N2_3 N 0.1716(3) 0.8229(6) 0.72682(19)
N3_3 N 0.2287(3) 0.8616(6) 0.70206(19)
N4_3 N 0.1069(2) 0.7599(7) 0.67399(19)
H1_3 H 0.0975 0.7703 0.6959
N5_3 N 0.2403(3) 0.8802(6) 0.78107(18)
H2_3 H 0.2612 0.9134 0.7830
N6_3 N 0.2145(3) 0.8292(6) 0.6209(2)
H3_3 H 0.1978 0.8008 0.5959
C1_3 C 0.1471(3) 0.7895(7) 0.6818(2)
C2_3 C 0.2015(3) 0.8249(8) 0.6581(2)
C3_3 C 0.2103(3) 0.8525(7) 0.7349(3)
C4_3 C 0.0760(3) 0.7123(7) 0.6342(2)
C5_3 C 0.0315(3) 0.7026(7) 0.6275(2)
H4_3 H 0.0212 0.7290 0.6477
C6_3 C 0.0004(3) 0.6531(6) 0.5905(2)
C7_3 C 0.0175(3) 0.6152(8) 0.5610(3)
C8_3 C 0.0609(3) 0.6249(7) 0.5684(2)
C9_3 C 0.0932(3) 0.6749(8) 0.6050(3)
H6_3 H 0.1237 0.6819 0.6090
C10_3 C 0.0792(2) 0.5752(10) 0.5376(3)
C12_3 C 0.2388(3) 0.8575(7) 0.8254(2)
C13_3 C 0.2037(3) 0.8161(7) 0.8295(2)
H7_3 H 0.1779 0.8007 0.8010
C14_3 C 0.2057(3) 0.7967(7) 0.8750(2)
C15_3 C 0.1697(3) 0.7471(8) 0.8782(2)
C16_3 C 0.2428(3) 0.8219(7) 0.9175(3)
H8_3 H 0.2444 0.8099 0.9481
C17_3 C 0.2781(3) 0.8661(7) 0.9138(3)
C18_3 C 0.3206(4) 0.8915(9) 0.9607(2)
C19_3 C 0.2772(3) 0.8829(7) 0.8689(2)
H9_3 H 0.3015 0.9107 0.8673
C20_3 C 0.2485(4) 0.8694(9) 0.6155(2)
C21_3 C 0.2742(3) 0.9328(7) 0.6440(3)
H10_3 H 0.2697 0.9492 0.6709
C22_3 C 0.3052(4) 0.9698(9) 0.6323(3)
C23_3 C 0.3122(3) 0.9487(8) 0.5912(3)
C24_3 C 0.2901(4) 0.8849(9) 0.5659(4)
H12_3 H 0.2963 0.8677 0.5403
C25_3 C 0.2595(4) 0.8454(8) 0.5766(3)
H13_3 H 0.2450 0.8016 0.5584
O1_3 O 0.9239(3) 0.6098(8) 0.5462(3)
O2_3 O 0.93468(18) 0.6898(5) 0.60282(19)
H5_3 H 0.9978 0.5828 0.5358
C11_3 C 0.9502(3) 0.6394(7) 0.5806(3)
O1_4 O 0.0761(3) 0.6098(8) 0.9538(3)
O2_4 O 0.06532(18) 0.6898(5) 0.89718(19)
H5_4 H 0.0022 0.5828 0.9642
C11_4 C 0.0498(3) 0.6394(7) 0.9194(3)
O9_4 O 0.6398(2) 0.0596(5) 0.89949(16)
O11_4 O 0.5471(4) 0.0505(8) 0.4205(3)
H11_4 H 0.6775 0.0105 0.8479
C26_4 C 0.6566(4) 0.0023(8) 0.9233(3)
O18_4 O 0.6496(4) 0.0275(7) 0.4569(2)
H14_4 H 0.520935 0.0622429 0.428844
H15_4 H 0.558047 0.0991585 0.411499
Zn2_4 Zn 0.63385(3) 0.84363(8) 0.43094(3)
O5_4 O 0.8648(2) 0.7213(6) 0.66047(16)
O6_4 O 0.8266(2) 0.7315(5) 0.57840(16)
O7_4 O 0.6777(3) 0.8583(6) 0.50018(18)
O8_4 O 0.6529(2) 0.9425(5) 0.54128(16)
O10_4 O 0.6496(4) 0.9725(7) 0.9569(2)
N1_4 N 0.8380(2) 0.7900(6) 0.8533(2)
N2_4 N 0.8284(3) 0.8229(6) 0.77318(19)
N3_4 N 0.7713(3) 0.8616(6) 0.79794(19)
N4_4 N 0.8931(2) 0.7599(7) 0.82601(19)
H1_4 H 0.9025 0.7703 0.8041
N5_4 N 0.7597(3) 0.8802(6) 0.71893(18)
H2_4 H 0.7388 0.9134 0.7170
N6_4 N 0.7855(3) 0.8292(6) 0.8791(2)
H3_4 H 0.8022 0.8008 0.9041
C1_4 C 0.8529(3) 0.7895(7) 0.8182(2)
C2_4 C 0.7985(3) 0.8249(8) 0.8419(2)
C3_4 C 0.7897(3) 0.8525(7) 0.7651(3)
C4_4 C 0.9240(3) 0.7123(7) 0.8658(2)
C5_4 C 0.9685(3) 0.7026(7) 0.8725(2)
H4_4 H 0.9788 0.7290 0.8523
C6_4 C 0.9996(3) 0.6531(6) 0.9095(2)
C7_4 C 0.9825(3) 0.6152(8) 0.9390(3)
C8_4 C 0.9391(3) 0.6249(7) 0.9316(2)
C9_4 C 0.9068(3) 0.6749(8) 0.8950(3)
H6_4 H 0.8763 0.6819 0.8910
C10_4 C 0.9208(2) 0.5752(10) 0.9624(3)
C12_4 C 0.7612(3) 0.8575(7) 0.6746(2)
C13_4 C 0.7963(3) 0.8161(7) 0.6705(2)
H7_4 H 0.8221 0.8007 0.6990
C14_4 C 0.7943(3) 0.7967(7) 0.6250(2)
C15_4 C 0.8303(3) 0.7471(8) 0.6218(2)
C16_4 C 0.7572(3) 0.8219(7) 0.5825(3)
H8_4 H 0.7556 0.8099 0.5519
C17_4 C 0.7219(3) 0.8661(7) 0.5862(3)
C18_4 C 0.6794(4) 0.8915(9) 0.5393(2)
C19_4 C 0.7228(3) 0.8829(7) 0.6311(2)
H9_4 H 0.6985 0.9107 0.6327
C20_4 C 0.7515(4) 0.8694(9) 0.8845(2)
C21_4 C 0.7258(3) 0.9328(7) 0.8560(3)
H10_4 H 0.7303 0.9492 0.8291
C22_4 C 0.6948(4) 0.9698(9) 0.8677(3)
C23_4 C 0.6878(3) 0.9487(8) 0.9088(3)
C24_4 C 0.7099(4) 0.8849(9) 0.9341(4)
H12_4 H 0.7037 0.8677 0.9597
C25_4 C 0.7405(4) 0.8454(8) 0.9234(3)
H13_4 H 0.7550 0.8016 0.9416
O12_4 O 0.5761(3) 0.8902(8) 0.4538(3)
O13_4 O 0.56532(18) 0.8102(5) 0.39718(19)
O16_4 O 0.6734(2) 0.7685(5) 0.42160(16)
O17_4 O 0.6398(2) 0.9404(5) 0.39949(16)
O3_3 O 0.3872(2) 0.8985(6) 0.4700(2)
O4_3 O 0.4404(2) 0.9862(5) 0.4809(3)
O5_5 O 0.3648(2) 0.7787(6) 0.16047(16)
O7_5 O 0.1777(3) 0.6417(6) 0.00018(18)
O8_5 O 0.1529(2) 0.5575(5) 0.04128(16)
N1_5 N 0.3380(2) 0.7100(6) 0.3533(2)
N2_5 N 0.3284(3) 0.6771(6) 0.27318(19)
N3_5 N 0.2713(3) 0.6384(6) 0.29794(19)
N4_5 N 0.3931(2) 0.7401(7) 0.32601(19)
H1_5 H 0.4025 0.7297 0.3041
N5_5 N 0.2597(3) 0.6198(6) 0.21893(18)
H2_5 H 0.2388 0.5866 0.2170
N6_5 N 0.2855(3) 0.6708(6) 0.3791(2)
H3_5 H 0.3022 0.6992 0.4041
C1_5 C 0.3529(3) 0.7105(7) 0.3182(2)
C2_5 C 0.2985(3) 0.6751(8) 0.3419(2)
C3_5 C 0.2897(3) 0.6475(7) 0.2651(3)
C4_5 C 0.4240(3) 0.7877(7) 0.3658(2)
C5_5 C 0.4685(3) 0.7974(7) 0.3725(2)
H4_5 H 0.4788 0.7710 0.3523
C6_5 C 0.4996(3) 0.8469(6) 0.4095(2)
C7_5 C 0.4825(3) 0.8848(8) 0.4390(3)
H5_5 H 0.5022 0.9172 0.4642
C8_5 C 0.4391(3) 0.8751(7) 0.4316(2)
C9_5 C 0.4068(3) 0.8251(8) 0.3950(3)
H6_5 H 0.3763 0.8181 0.3910
C10_5 C 0.4208(2) 0.9248(10) 0.4624(3)
C11_5 C 0.5498(3) 0.8606(7) 0.4194(3)
C12_5 C 0.2612(3) 0.6425(7) 0.1746(2)
C13_5 C 0.2963(3) 0.6839(7) 0.1705(2)
H7_5 H 0.3221 0.6993 0.1990
C14_5 C 0.2943(3) 0.7033(7) 0.1250(2)
C15_5 C 0.3303(3) 0.7529(8) 0.1218(2)
C16_5 C 0.2572(3) 0.6781(7) 0.0825(3)
H8_5 H 0.2556 0.6901 0.0519
C17_5 C 0.2219(3) 0.6339(7) 0.0862(3)
C18_5 C 0.1794(4) 0.6085(9) 0.0393(2)
C19_5 C 0.2228(3) 0.6171(7) 0.1311(2)
H9_5 H 0.1985 0.5893 0.1327
C20_5 C 0.2515(4) 0.6306(9) 0.3845(2)
C21_5 C 0.2258(3) 0.5672(7) 0.3560(3)
H10_5 H 0.2303 0.5508 0.3291
C22_5 C 0.1948(4) 0.5302(9) 0.3677(3)
H11_5 H 0.1775 0.4895 0.3479
C23_5 C 0.1878(3) 0.5513(8) 0.4088(3)
C24_5 C 0.2099(4) 0.6151(9) 0.4341(4)
H12_5 H 0.2037 0.6323 0.4597
C25_5 C 0.2405(4) 0.6546(8) 0.4234(3)
H13_5 H 0.2550 0.6984 0.4416
C26_5 C 0.1566(4) 0.4977(8) 0.4233(3)
O14_3 O 0.1128(2) 0.3985(6) 0.0300(2)
O15_3 O 0.0596(2) 0.4862(5) 0.0191(3)
O11_5 O 0.0471(4) 0.4495(8) 0.9205(3)
H14_5 H 0.020935 0.437757 0.928844
H15_5 H 0.058047 0.400841 0.911499
O3_4 O 0.6128(2) 0.8985(6) 0.0300(2)
O4_4 O 0.5596(2) 0.9862(5) 0.0191(3)
O5_6 O 0.6352(2) 0.7787(6) 0.33953(16)
O7_6 O 0.8223(3) 0.6417(6) 0.49982(18)
O8_6 O 0.8471(2) 0.5575(5) 0.45872(16)
O11_6 O 0.9529(4) 0.4495(8) 0.5795(3)
N1_6 N 0.6620(2) 0.7100(6) 0.1467(2)
N2_6 N 0.6716(3) 0.6771(6) 0.22682(19)
N3_6 N 0.7287(3) 0.6384(6) 0.20206(19)
N4_6 N 0.6069(2) 0.7401(7) 0.17399(19)
H1_6 H 0.5975 0.7297 0.1959
N5_6 N 0.7403(3) 0.6198(6) 0.28107(18)
H2_6 H 0.7612 0.5866 0.2830
N6_6 N 0.7145(3) 0.6708(6) 0.1209(2)
H3_6 H 0.6978 0.6992 0.0959
C1_6 C 0.6471(3) 0.7105(7) 0.1818(2)
C2_6 C 0.7015(3) 0.6751(8) 0.1581(2)
C3_6 C 0.7103(3) 0.6475(7) 0.2349(3)
C4_6 C 0.5760(3) 0.7877(7) 0.1342(2)
C5_6 C 0.5315(3) 0.7974(7) 0.1275(2)
H4_6 H 0.5212 0.7710 0.1477
C6_6 C 0.5004(3) 0.8469(6) 0.0905(2)
C7_6 C 0.5175(3) 0.8848(8) 0.0610(3)
H5_6 H 0.4978 0.9172 0.0358
C8_6 C 0.5609(3) 0.8751(7) 0.0684(2)
C9_6 C 0.5932(3) 0.8251(8) 0.1050(3)
H6_6 H 0.6237 0.8181 0.1090
C10_6 C 0.5792(2) 0.9248(10) 0.0376(3)
C11_6 C 0.4502(3) 0.8606(7) 0.0806(3)
C12_6 C 0.7388(3) 0.6425(7) 0.3254(2)
C13_6 C 0.7037(3) 0.6839(7) 0.3295(2)
H7_6 H 0.6779 0.6993 0.3010
C14_6 C 0.7057(3) 0.7033(7) 0.3750(2)
C15_6 C 0.6697(3) 0.7529(8) 0.3782(2)
C16_6 C 0.7428(3) 0.6781(7) 0.4175(3)
H8_6 H 0.7444 0.6901 0.4481
C17_6 C 0.7781(3) 0.6339(7) 0.4138(3)
C18_6 C 0.8206(4) 0.6085(9) 0.4607(2)
C19_6 C 0.7772(3) 0.6171(7) 0.3689(2)
H9_6 H 0.8015 0.5893 0.3673
C20_6 C 0.7485(4) 0.6306(9) 0.1155(2)
C21_6 C 0.7742(3) 0.5672(7) 0.1440(3)
H10_6 H 0.7697 0.5508 0.1709
C22_6 C 0.8052(4) 0.5302(9) 0.1323(3)
H11_6 H 0.8225 0.4895 0.1521
C23_6 C 0.8122(3) 0.5513(8) 0.0912(3)
C24_6 C 0.7901(4) 0.6151(9) 0.0659(4)
H12_6 H 0.7963 0.6323 0.0403
C25_6 C 0.7595(4) 0.6546(8) 0.0766(3)
H13_6 H 0.7450 0.6984 0.0584
C26_6 C 0.8434(4) 0.4977(8) 0.0767(3)
O14_4 O 0.8872(2) 0.3985(6) 0.4700(2)
O15_4 O 0.9404(2) 0.4862(5) 0.4809(3)
H14_6 H 0.979065 0.437757 0.571156
H15_6 H 0.941953 0.400841 0.588501
H5_7 H 0.0022 0.4172 0.4642
C11_7 C 0.0498(3) 0.3606(7) 0.4194(3)
O5_7 O 0.8648(2) 0.2787(6) 0.16047(16)
O7_7 O 0.6777(3) 0.1417(6) 0.00018(18)
O8_7 O 0.6529(2) 0.0575(5) 0.04128(16)
N1_7 N 0.8380(2) 0.2100(6) 0.3533(2)
N2_7 N 0.8284(3) 0.1771(6) 0.27318(19)
N3_7 N 0.7713(3) 0.1384(6) 0.29794(19)
N4_7 N 0.8931(2) 0.2401(7) 0.32601(19)
H1_7 H 0.9025 0.2297 0.3041
N5_7 N 0.7597(3) 0.1198(6) 0.21893(18)
H2_7 H 0.7388 0.0866 0.2170
N6_7 N 0.7855(3) 0.1708(6) 0.3791(2)
H3_7 H 0.8022 0.1992 0.4041
C1_7 C 0.8529(3) 0.2105(7) 0.3182(2)
C2_7 C 0.7985(3) 0.1751(8) 0.3419(2)
C3_7 C 0.7897(3) 0.1475(7) 0.2651(3)
C4_7 C 0.9240(3) 0.2877(7) 0.3658(2)
C5_7 C 0.9685(3) 0.2974(7) 0.3725(2)
H4_7 H 0.9788 0.2710 0.3523
C6_7 C 0.9996(3) 0.3469(6) 0.4095(2)
C7_7 C 0.9825(3) 0.3848(8) 0.4390(3)
C8_7 C 0.9391(3) 0.3751(7) 0.4316(2)
C9_7 C 0.9068(3) 0.3251(8) 0.3950(3)
H6_7 H 0.8763 0.3181 0.3910
C10_7 C 0.9208(2) 0.4248(10) 0.4624(3)
C12_7 C 0.7612(3) 0.1425(7) 0.1746(2)
C13_7 C 0.7963(3) 0.1839(7) 0.1705(2)
H7_7 H 0.8221 0.1993 0.1990
C14_7 C 0.7943(3) 0.2033(7) 0.1250(2)
C15_7 C 0.8303(3) 0.2529(8) 0.1218(2)
C16_7 C 0.7572(3) 0.1781(7) 0.0825(3)
H8_7 H 0.7556 0.1901 0.0519
C17_7 C 0.7219(3) 0.1339(7) 0.0862(3)
C18_7 C 0.6794(4) 0.1085(9) 0.0393(2)
C19_7 C 0.7228(3) 0.1171(7) 0.1311(2)
H9_7 H 0.6985 0.0893 0.1327
C20_7 C 0.7515(4) 0.1306(9) 0.3845(2)
C21_7 C 0.7258(3) 0.0672(7) 0.3560(3)
H10_7 H 0.7303 0.0508 0.3291
C22_7 C 0.6948(4) 0.0302(9) 0.3677(3)
C23_7 C 0.6878(3) 0.0513(8) 0.4088(3)
C24_7 C 0.7099(4) 0.1151(9) 0.4341(4)
H12_7 H 0.7037 0.1323 0.4597
C25_7 C 0.7405(4) 0.1546(8) 0.4234(3)
H13_7 H 0.7550 0.1984 0.4416
H11_7 H 0.6775 0.9895 0.3479
C26_7 C 0.6566(4) 0.9977(8) 0.4233(3)
O11_7 O 0.5471(4) 0.9495(8) 0.9205(3)
H14_7 H 0.520935 0.937757 0.928844
H15_7 H 0.558047 0.900841 0.911499
O5_8 O 0.1352(2) 0.2787(6) 0.33953(16)
O7_8 O 0.3223(3) 0.1417(6) 0.49982(18)
O8_8 O 0.3471(2) 0.0575(5) 0.45872(16)
N1_8 N 0.1620(2) 0.2100(6) 0.1467(2)
N2_8 N 0.1716(3) 0.1771(6) 0.22682(19)
N3_8 N 0.2287(3) 0.1384(6) 0.20206(19)
N4_8 N 0.1069(2) 0.2401(7) 0.17399(19)
H1_8 H 0.0975 0.2297 0.1959
N5_8 N 0.2403(3) 0.1198(6) 0.28107(18)
H2_8 H 0.2612 0.0866 0.2830
N6_8 N 0.2145(3) 0.1708(6) 0.1209(2)
H3_8 H 0.1978 0.1992 0.0959
C1_8 C 0.1471(3) 0.2105(7) 0.1818(2)
C2_8 C 0.2015(3) 0.1751(8) 0.1581(2)
C3_8 C 0.2103(3) 0.1475(7) 0.2349(3)
C4_8 C 0.0760(3) 0.2877(7) 0.1342(2)
C5_8 C 0.0315(3) 0.2974(7) 0.1275(2)
H4_8 H 0.0212 0.2710 0.1477
C6_8 C 0.0004(3) 0.3469(6) 0.0905(2)
C7_8 C 0.0175(3) 0.3848(8) 0.0610(3)
C8_8 C 0.0609(3) 0.3751(7) 0.0684(2)
C9_8 C 0.0932(3) 0.3251(8) 0.1050(3)
H6_8 H 0.1237 0.3181 0.1090
C10_8 C 0.0792(2) 0.4248(10) 0.0376(3)
C12_8 C 0.2388(3) 0.1425(7) 0.3254(2)
C13_8 C 0.2037(3) 0.1839(7) 0.3295(2)
H7_8 H 0.1779 0.1993 0.3010
C14_8 C 0.2057(3) 0.2033(7) 0.3750(2)
C15_8 C 0.1697(3) 0.2529(8) 0.3782(2)
C16_8 C 0.2428(3) 0.1781(7) 0.4175(3)
H8_8 H 0.2444 0.1901 0.4481
C17_8 C 0.2781(3) 0.1339(7) 0.4138(3)
C18_8 C 0.3206(4) 0.1085(9) 0.4607(2)
C19_8 C 0.2772(3) 0.1171(7) 0.3689(2)
H9_8 H 0.3015 0.0893 0.3673
C20_8 C 0.2485(4) 0.1306(9) 0.1155(2)
C21_8 C 0.2742(3) 0.0672(7) 0.1440(3)
H10_8 H 0.2697 0.0508 0.1709
C22_8 C 0.3052(4) 0.0302(9) 0.1323(3)
C23_8 C 0.3122(3) 0.0513(8) 0.0912(3)
C24_8 C 0.2901(4) 0.1151(9) 0.0659(4)
H12_8 H 0.2963 0.1323 0.0403
C25_8 C 0.2595(4) 0.1546(8) 0.0766(3)
H13_8 H 0.2450 0.1984 0.0584
O11_8 O 0.4529(4) 0.9495(8) 0.5795(3)
H11_8 H 0.3225 0.9895 0.1521
C26_8 C 0.3434(4) 0.9977(8) 0.0767(3)
H14_8 H 0.479065 0.937757 0.571156
H15_8 H 0.441953 0.900841 0.588501
H5_8 H 0.9978 0.4172 0.0358
C11_8 C 0.9502(3) 0.3606(7) 0.0806(3)
loop_
_geom_bond_atom_site_label_1
_geom_bond_atom_site_label_2
_geom_bond_site_symmetry_1
_geom_bond_site_symmetry_2
O11 Zn1 1_555 1_555
O12 Zn1 1_555 1_555
O13 Zn2 1_555 1_555
O16 Zn2 1_555 1_555
O17 Zn2 1_555 1_555
O18 Zn1 1_555 1_555
Zn2 O12 1_555 1_555
O11 H14 1_555 1_555
O11 H15 1_555 1_555
O1 C11 1_555 1_555
O2 C11 1_555 1_555
O3 C10 1_555 1_555
O4 C10 1_555 1_555
O5 C15 1_555 1_555
O6 C15 1_555 1_555
O7 C18 1_555 1_555
O8 C18 1_555 1_555
O9 C26 1_555 1_555
O10 C26 1_555 1_555
N1 C1 1_555 1_555
N2 C1 1_555 1_555
N3 C2 1_555 1_555
N4 H1 1_555 1_555
N5 H2 1_555 1_555
N6 H3 1_555 1_555
C1 N4 1_555 1_555
C2 N1 1_555 1_555
C3 N2 1_555 1_555
C4 N4 1_555 1_555
C5 C4 1_555 1_555
H4 C5 1_555 1_555
C6 C5 1_555 1_555
C7 C6 1_555 1_555
H5 C7 1_555 1_555
C8 C7 1_555 1_555
C9 C4 1_555 1_555
H6 C9 1_555 1_555
C10 C8 1_555 1_555
C11 C6 1_555 1_555
C12 N5 1_555 1_555
C13 C12 1_555 1_555
H7 C13 1_555 1_555
C14 C13 1_555 1_555
C15 C14 1_555 1_555
C16 C14 1_555 1_555
H8 C16 1_555 1_555
C17 C16 1_555 1_555
C18 C17 1_555 1_555
C19 C12 1_555 1_555
H9 C19 1_555 1_555
C20 N6 1_555 1_555
C21 C20 1_555 1_555
H10 C21 1_555 1_555
C22 C21 1_555 1_555
H11 C22 1_555 1_555
C23 C22 1_555 1_555
C24 C23 1_555 1_555
H12 C24 1_555 1_555
C25 C20 1_555 1_555
H13 C25 1_555 1_555
C26 C23 1_555 1_555
Zn4 O10 1_555 1_555
Zn5 O1 1_555 1_555
Zn6 O9 1_555 1_555
Zn7 O6 1_555 1_555
Zn8 O1 1_555 1_555
O2 Zn8 1_555 1_555
N3 C3 1_555 1_555
N5 C3 1_555 1_555
N6 C2 1_555 1_555
C8 C9 1_555 1_555
C17 C19 1_555 1_555
C24 C25 1_555 1_555
Zn1_2 O8_2 1_555 1_555
Zn2_2 O7_2 1_555 1_555
O1_2 C11_2 1_555 1_555
O2_2 C11_2 1_555 1_555
O3_2 C10_2 1_555 1_555
O4_2 C10_2 1_555 1_555
O5_2 C15_2 1_555 1_555
O6_2 C15_2 1_555 1_555
O7_2 C18_2 1_555 1_555
O8_2 C18_2 1_555 1_555
O9_2 C26_2 1_555 1_555
O10_2 C26_2 1_555 1_555
O11_2 Zn1_2 1_555 1_555
N1_2 C1_2 1_555 1_555
N2_2 C1_2 1_555 1_555
N3_2 C2_2 1_555 1_555
N4_2 H1_2 1_555 1_555
N5_2 H2_2 1_555 1_555
N6_2 H3_2 1_555 1_555
C1_2 N4_2 1_555 1_555
C2_2 N1_2 1_555 1_555
C3_2 N2_2 1_555 1_555
C4_2 N4_2 1_555 1_555
C5_2 C4_2 1_555 1_555
H4_2 C5_2 1_555 1_555
C6_2 C5_2 1_555 1_555
C7_2 C6_2 1_555 1_555
H5_2 C7_2 1_555 1_555
C8_2 C7_2 1_555 1_555
C9_2 C4_2 1_555 1_555
H6_2 C9_2 1_555 1_555
C10_2 C8_2 1_555 1_555
C11_2 C6_2 1_555 1_555
C12_2 N5_2 1_555 1_555
C13_2 C12_2 1_555 1_555
H7_2 C13_2 1_555 1_555
C14_2 C13_2 1_555 1_555
C15_2 C14_2 1_555 1_555
C16_2 C14_2 1_555 1_555
H8_2 C16_2 1_555 1_555
C17_2 C16_2 1_555 1_555
C18_2 C17_2 1_555 1_555
C19_2 C12_2 1_555 1_555
H9_2 C19_2 1_555 1_555
C20_2 N6_2 1_555 1_555
C21_2 C20_2 1_555 1_555
H10_2 C21_2 1_555 1_555
C22_2 C21_2 1_555 1_555
H11_2 C22_2 1_555 1_555
C23_2 C22_2 1_555 1_555
C24_2 C23_2 1_555 1_555
H12_2 C24_2 1_555 1_555
C25_2 C20_2 1_555 1_555
H13_2 C25_2 1_555 1_555
C26_2 C23_2 1_555 1_555
Zn4_2 O10_2 1_555 1_555
Zn5_2 O1_2 1_555 1_555
Zn6_2 O9_2 1_555 1_555
Zn8 O6_2 1_555 1_555
Zn7 O1_2 1_555 1_555
O12_2 Zn1_2 1_555 1_555
O13_2 Zn2_2 1_555 1_555
O14_2 Zn1_2 1_555 1_555
O15_2 Zn1_2 1_555 1_555
O16_2 Zn2_2 1_555 1_555
O17_2 Zn2_2 1_555 1_555
O18_2 Zn1_2 1_555 1_555
Zn2_2 O12_2 1_555 1_555
O2_2 Zn7 1_555 1_555
N3_2 C3_2 1_555 1_555
N5_2 C3_2 1_555 1_555
N6_2 C2_2 1_555 1_555
C8_2 C9_2 1_555 1_555
C17_2 C19_2 1_555 1_555
C24_2 C25_2 1_555 1_555
O11_2 H14_2 1_555 1_555
O11_2 H15_2 1_555 1_555
O11_3 H14_3 1_555 1_555
O11_3 H15_3 1_555 1_555
O9_3 C26_3 1_555 1_555
Zn8 O9_3 1_555 1_555
O12_3 Zn3_2 1_555 1_555
O13_3 Zn2_3 1_555 1_555
O16_3 Zn2_3 1_555 1_555
O17_3 Zn2_3 1_555 1_555
Zn2_3 O12_3 1_555 1_555
O14_2 C10_3 1_555 1_555
O15_2 C10_3 1_555 1_555
O5_3 C15_3 1_555 1_555
O6_3 C15_3 1_555 1_555
O7_3 C18_3 1_555 1_555
O8_3 C18_3 1_555 1_555
N1_3 C1_3 1_555 1_555
N2_3 C1_3 1_555 1_555
N3_3 C2_3 1_555 1_555
N4_3 H1_3 1_555 1_555
N5_3 H2_3 1_555 1_555
N6_3 H3_3 1_555 1_555
C1_3 N4_3 1_555 1_555
C2_3 N1_3 1_555 1_555
C3_3 N2_3 1_555 1_555
C4_3 N4_3 1_555 1_555
C5_3 C4_3 1_555 1_555
H4_3 C5_3 1_555 1_555
C6_3 C5_3 1_555 1_555
C7_3 C6_3 1_555 1_555
C8_3 C7_3 1_555 1_555
C9_3 C4_3 1_555 1_555
H6_3 C9_3 1_555 1_555
C10_3 C8_3 1_555 1_555
C12_3 N5_3 1_555 1_555
C13_3 C12_3 1_555 1_555
H7_3 C13_3 1_555 1_555
C14_3 C13_3 1_555 1_555
C15_3 C14_3 1_555 1_555
C16_3 C14_3 1_555 1_555
H8_3 C16_3 1_555 1_555
C17_3 C16_3 1_555 1_555
C18_3 C17_3 1_555 1_555
C19_3 C12_3 1_555 1_555
H9_3 C19_3 1_555 1_555
C20_3 N6_3 1_555 1_555
C21_3 C20_3 1_555 1_555
H10_3 C21_3 1_555 1_555
C22_3 C21_3 1_555 1_555
C23_3 C22_3 1_555 1_555
C24_3 C23_3 1_555 1_555
H12_3 C24_3 1_555 1_555
C25_3 C20_3 1_555 1_555
H13_3 C25_3 1_555 1_555
Zn6_2 O6_3 1_555 1_555
N3_3 C3_3 1_555 1_555
N5_3 C3_3 1_555 1_555
N6_3 C2_3 1_555 1_555
C8_3 C9_3 1_555 1_555
C17_3 C19_3 1_555 1_555
C24_3 C25_3 1_555 1_555
O1_3 C11_3 1_555 1_555
O2_3 C11_3 1_555 1_555
Zn4 O1_3 1_555 1_555
Zn6 O1_3 1_555 1_555
O2_3 Zn6 1_555 1_555
O1_4 C11_4 1_555 1_555
O2_4 C11_4 1_555 1_555
Zn4_2 O1_4 1_555 1_555
Zn6_2 O1_4 1_555 1_555
O2_4 Zn6_2 1_555 1_555
O9_4 C26_4 1_555 1_555
Zn7 O9_4 1_555 1_555
O11_4 H14_4 1_555 1_555
O11_4 H15_4 1_555 1_555
Zn3 O8_4 1_555 1_555
Zn2_4 O7_4 1_555 1_555
O14 C10_4 1_555 1_555
O15 C10_4 1_555 1_555
O5_4 C15_4 1_555 1_555
O6_4 C15_4 1_555 1_555
O7_4 C18_4 1_555 1_555
O8_4 C18_4 1_555 1_555
N1_4 C1_4 1_555 1_555
N2_4 C1_4 1_555 1_555
N3_4 C2_4 1_555 1_555
N4_4 H1_4 1_555 1_555
N5_4 H2_4 1_555 1_555
N6_4 H3_4 1_555 1_555
C1_4 N4_4 1_555 1_555
C2_4 N1_4 1_555 1_555
C3_4 N2_4 1_555 1_555
C4_4 N4_4 1_555 1_555
C5_4 C4_4 1_555 1_555
H4_4 C5_4 1_555 1_555
C6_4 C5_4 1_555 1_555
C7_4 C6_4 1_555 1_555
C8_4 C7_4 1_555 1_555
C9_4 C4_4 1_555 1_555
H6_4 C9_4 1_555 1_555
C10_4 C8_4 1_555 1_555
C12_4 N5_4 1_555 1_555
C13_4 C12_4 1_555 1_555
H7_4 C13_4 1_555 1_555
C14_4 C13_4 1_555 1_555
C15_4 C14_4 1_555 1_555
C16_4 C14_4 1_555 1_555
H8_4 C16_4 1_555 1_555
C17_4 C16_4 1_555 1_555
C18_4 C17_4 1_555 1_555
C19_4 C12_4 1_555 1_555
H9_4 C19_4 1_555 1_555
C20_4 N6_4 1_555 1_555
C21_4 C20_4 1_555 1_555
H10_4 C21_4 1_555 1_555
C22_4 C21_4 1_555 1_555
C23_4 C22_4 1_555 1_555
C24_4 C23_4 1_555 1_555
H12_4 C24_4 1_555 1_555
C25_4 C20_4 1_555 1_555
H13_4 C25_4 1_555 1_555
Zn6 O6_4 1_555 1_555
O12_4 Zn3 1_555 1_555
O13_4 Zn2_4 1_555 1_555
O16_4 Zn2_4 1_555 1_555
O17_4 Zn2_4 1_555 1_555
Zn2_4 O12_4 1_555 1_555
N3_4 C3_4 1_555 1_555
N5_4 C3_4 1_555 1_555
N6_4 C2_4 1_555 1_555
C8_4 C9_4 1_555 1_555
C17_4 C19_4 1_555 1_555
C24_4 C25_4 1_555 1_555
O12_4 C11_5 1_555 1_555
O13_4 C11_5 1_555 1_555
O3_3 C10_5 1_555 1_555
O4_3 C10_5 1_555 1_555
O5_5 C15_5 1_555 1_555
O16_3 C15_5 1_555 1_555
O7_5 C18_5 1_555 1_555
O8_5 C18_5 1_555 1_555
O17_2 C26_5 1_555 1_555
O18_2 C26_5 1_555 1_555
N1_5 C1_5 1_555 1_555
N2_5 C1_5 1_555 1_555
N3_5 C2_5 1_555 1_555
N4_5 H1_5 1_555 1_555
N5_5 H2_5 1_555 1_555
N6_5 H3_5 1_555 1_555
C1_5 N4_5 1_555 1_555
C2_5 N1_5 1_555 1_555
C3_5 N2_5 1_555 1_555
C4_5 N4_5 1_555 1_555
C5_5 C4_5 1_555 1_555
H4_5 C5_5 1_555 1_555
C6_5 C5_5 1_555 1_555
C7_5 C6_5 1_555 1_555
H5_5 C7_5 1_555 1_555
C8_5 C7_5 1_555 1_555
C9_5 C4_5 1_555 1_555
H6_5 C9_5 1_555 1_555
C10_5 C8_5 1_555 1_555
C11_5 C6_5 1_555 1_555
C12_5 N5_5 1_555 1_555
C13_5 C12_5 1_555 1_555
H7_5 C13_5 1_555 1_555
C14_5 C13_5 1_555 1_555
C15_5 C14_5 1_555 1_555
C16_5 C14_5 1_555 1_555
H8_5 C16_5 1_555 1_555
C17_5 C16_5 1_555 1_555
C18_5 C17_5 1_555 1_555
C19_5 C12_5 1_555 1_555
H9_5 C19_5 1_555 1_555
C20_5 N6_5 1_555 1_555
C21_5 C20_5 1_555 1_555
H10_5 C21_5 1_555 1_555
C22_5 C21_5 1_555 1_555
H11_5 C22_5 1_555 1_555
C23_5 C22_5 1_555 1_555
C24_5 C23_5 1_555 1_555
H12_5 C24_5 1_555 1_555
C25_5 C20_5 1_555 1_555
H13_5 C25_5 1_555 1_555
C26_5 C23_5 1_555 1_555
N3_5 C3_5 1_555 1_555
N5_5 C3_5 1_555 1_555
N6_5 C2_5 1_555 1_555
C8_5 C9_5 1_555 1_555
C17_5 C19_5 1_555 1_555
C24_5 C25_5 1_555 1_555
O11_5 Zn4_2 1_555 1_555
O11_5 H14_5 1_555 1_555
O11_5 H15_5 1_555 1_555
Zn4 O8_6 1_555 1_555
Zn6 O7_6 1_555 1_555
O12_3 C11_6 1_555 1_555
O13_3 C11_6 1_555 1_555
O3_4 C10_6 1_555 1_555
O4_4 C10_6 1_555 1_555
O5_6 C15_6 1_555 1_555
O16_4 C15_6 1_555 1_555
O7_6 C18_6 1_555 1_555
O8_6 C18_6 1_555 1_555
O17 C26_6 1_555 1_555
O18 C26_6 1_555 1_555
O11_6 Zn4 1_555 1_555
N1_6 C1_6 1_555 1_555
N2_6 C1_6 1_555 1_555
N3_6 C2_6 1_555 1_555
N4_6 H1_6 1_555 1_555
N5_6 H2_6 1_555 1_555
N6_6 H3_6 1_555 1_555
C1_6 N4_6 1_555 1_555
C2_6 N1_6 1_555 1_555
C3_6 N2_6 1_555 1_555
C4_6 N4_6 1_555 1_555
C5_6 C4_6 1_555 1_555
H4_6 C5_6 1_555 1_555
C6_6 C5_6 1_555 1_555
C7_6 C6_6 1_555 1_555
H5_6 C7_6 1_555 1_555
C8_6 C7_6 1_555 1_555
C9_6 C4_6 1_555 1_555
H6_6 C9_6 1_555 1_555
C10_6 C8_6 1_555 1_555
C11_6 C6_6 1_555 1_555
C12_6 N5_6 1_555 1_555
C13_6 C12_6 1_555 1_555
H7_6 C13_6 1_555 1_555
C14_6 C13_6 1_555 1_555
C15_6 C14_6 1_555 1_555
C16_6 C14_6 1_555 1_555
H8_6 C16_6 1_555 1_555
C17_6 C16_6 1_555 1_555
C18_6 C17_6 1_555 1_555
C19_6 C12_6 1_555 1_555
H9_6 C19_6 1_555 1_555
C20_6 N6_6 1_555 1_555
C21_6 C20_6 1_555 1_555
H10_6 C21_6 1_555 1_555
C22_6 C21_6 1_555 1_555
H11_6 C22_6 1_555 1_555
C23_6 C22_6 1_555 1_555
C24_6 C23_6 1_555 1_555
H12_6 C24_6 1_555 1_555
C25_6 C20_6 1_555 1_555
H13_6 C25_6 1_555 1_555
C26_6 C23_6 1_555 1_555
O14_4 Zn4 1_555 1_555
O15_4 Zn4 1_555 1_555
N3_6 C3_6 1_555 1_555
N5_6 C3_6 1_555 1_555
N6_6 C2_6 1_555 1_555
C8_6 C9_6 1_555 1_555
C17_6 C19_6 1_555 1_555
C24_6 C25_6 1_555 1_555
O11_6 H14_6 1_555 1_555
O11_6 H15_6 1_555 1_555
O12_2 C11_7 1_555 1_555
O13_2 C11_7 1_555 1_555
O14_4 C10_7 1_555 1_555
O15_4 C10_7 1_555 1_555
O5_7 C15_7 1_555 1_555
O16 C15_7 1_555 1_555
O7_7 C18_7 1_555 1_555
O8_7 C18_7 1_555 1_555
N1_7 C1_7 1_555 1_555
N2_7 C1_7 1_555 1_555
N3_7 C2_7 1_555 1_555
N4_7 H1_7 1_555 1_555
N5_7 H2_7 1_555 1_555
N6_7 H3_7 1_555 1_555
C1_7 N4_7 1_555 1_555
C2_7 N1_7 1_555 1_555
C3_7 N2_7 1_555 1_555
C4_7 N4_7 1_555 1_555
C5_7 C4_7 1_555 1_555
H4_7 C5_7 1_555 1_555
C6_7 C5_7 1_555 1_555
C7_7 C6_7 1_555 1_555
C8_7 C7_7 1_555 1_555
C9_7 C4_7 1_555 1_555
H6_7 C9_7 1_555 1_555
C10_7 C8_7 1_555 1_555
C12_7 N5_7 1_555 1_555
C13_7 C12_7 1_555 1_555
H7_7 C13_7 1_555 1_555
C14_7 C13_7 1_555 1_555
C15_7 C14_7 1_555 1_555
C16_7 C14_7 1_555 1_555
H8_7 C16_7 1_555 1_555
C17_7 C16_7 1_555 1_555
C18_7 C17_7 1_555 1_555
C19_7 C12_7 1_555 1_555
H9_7 C19_7 1_555 1_555
C20_7 N6_7 1_555 1_555
C21_7 C20_7 1_555 1_555
H10_7 C21_7 1_555 1_555
C22_7 C21_7 1_555 1_555
C23_7 C22_7 1_555 1_555
C24_7 C23_7 1_555 1_555
H12_7 C24_7 1_555 1_555
C25_7 C20_7 1_555 1_555
H13_7 C25_7 1_555 1_555
N3_7 C3_7 1_555 1_555
N5_7 C3_7 1_555 1_555
N6_7 C2_7 1_555 1_555
C8_7 C9_7 1_555 1_555
C17_7 C19_7 1_555 1_555
C24_7 C25_7 1_555 1_555
O17_4 C26_7 1_555 1_555
O11_7 H14_7 1_555 1_555
O11_7 H15_7 1_555 1_555
Zn5 O8_8 1_555 1_555
Zn8 O7_8 1_555 1_555
O14_3 C10_8 1_555 1_555
O15_3 C10_8 1_555 1_555
O5_8 C15_8 1_555 1_555
O16_2 C15_8 1_555 1_555
O7_8 C18_8 1_555 1_555
O8_8 C18_8 1_555 1_555
N1_8 C1_8 1_555 1_555
N2_8 C1_8 1_555 1_555
N3_8 C2_8 1_555 1_555
N4_8 H1_8 1_555 1_555
N5_8 H2_8 1_555 1_555
N6_8 H3_8 1_555 1_555
C1_8 N4_8 1_555 1_555
C2_8 N1_8 1_555 1_555
C3_8 N2_8 1_555 1_555
C4_8 N4_8 1_555 1_555
C5_8 C4_8 1_555 1_555
H4_8 C5_8 1_555 1_555
C6_8 C5_8 1_555 1_555
C7_8 C6_8 1_555 1_555
C8_8 C7_8 1_555 1_555
C9_8 C4_8 1_555 1_555
H6_8 C9_8 1_555 1_555
C10_8 C8_8 1_555 1_555
C12_8 N5_8 1_555 1_555
C13_8 C12_8 1_555 1_555
H7_8 C13_8 1_555 1_555
C14_8 C13_8 1_555 1_555
C15_8 C14_8 1_555 1_555
C16_8 C14_8 1_555 1_555
H8_8 C16_8 1_555 1_555
C17_8 C16_8 1_555 1_555
C18_8 C17_8 1_555 1_555
C19_8 C12_8 1_555 1_555
H9_8 C19_8 1_555 1_555
C20_8 N6_8 1_555 1_555
C21_8 C20_8 1_555 1_555
H10_8 C21_8 1_555 1_555
C22_8 C21_8 1_555 1_555
C23_8 C22_8 1_555 1_555
C24_8 C23_8 1_555 1_555
H12_8 C24_8 1_555 1_555
C25_8 C20_8 1_555 1_555
H13_8 C25_8 1_555 1_555
N3_8 C3_8 1_555 1_555
N5_8 C3_8 1_555 1_555
N6_8 C2_8 1_555 1_555
C8_8 C9_8 1_555 1_555
C17_8 C19_8 1_555 1_555
C24_8 C25_8 1_555 1_555
O17_3 C26_8 1_555 1_555
O11_8 H14_8 1_555 1_555
O11_8 H15_8 1_555 1_555
O12 C11_8 1_555 1_555
O13 C11_8 1_555 1_555

#END
