
###############################################################################
#
# This file contains modified crystal structure data generated from the
# MOF subset of the Cambridge Structural Database (CSD) v543 
# hosted by the Cambridge Crystallographic Data Centre (CCDC).
#
# This work is licensed under the Creative Commons
# Attribution-NonCommercial-ShareAlike 4.0 International License.
# To view a copy of this license, visit
# http://creativecommons.org/licenses/by-nc-sa/4.0/
# or send a letter to
# Creative Commons, PO Box 1866, Mountain View, CA 94042, USA.
#
# CIF created using the CSD Python API on 29 September 2022
# The structure has been converted into the P1 space group
# The structure has a 3D framework
# The original CSD entry MAVFEV is in the monoclinic crystal system
# The framework has been calculated to contain at least 10.0% void space
# The void calculation uses a probe of radius 1.32A, grid spacing 0.4
# The framework is charged, counterions have been retained in the structure
#
###############################################################################

data_MAVFEV
_chemical_formula_moiety         '(C24 H40 Eu4 N4 O35)n'
_symmetry_cell_setting           triclinic
_symmetry_space_group_name_H-M   'P 1'
_symmetry_Int_Tables_number      1
_space_group_name_Hall           'P 1'
loop_
_symmetry_equiv_pos_site_id
_symmetry_equiv_pos_as_xyz
1 x,y,z
_cell_length_a                   9.6740(10)
_cell_length_b                   11.7610(10)
_cell_length_c                   12.315(2)
_cell_angle_alpha                90
_cell_angle_beta                 99.285(2)
_cell_angle_gamma                90
_cell_volume                     1382.79
loop_
_atom_site_label
_atom_site_type_symbol
_atom_site_fract_x
_atom_site_fract_y
_atom_site_fract_z
O8 O 0.1006(3) 0.6088(2) 0.5673(2)
C4 C 0.0046(4) 0.5657(3) 0.4997(3)
Eu5 Eu 0.28632(2) 0.484480(10) 0.669190(10)
O19 O 0.0335(3) 0.0146(2) 0.1428(2)
O20 O 0.0840(3) 0.3818(2) 0.5659(2)
Eu3 Eu 0.78632(2) 0.015520(10) 0.169190(10)
Eu1 Eu 0.71368(2) 0.515520(10) 0.330810(10)
O1 O 0.8070(3) 0.6409(2) 0.2055(2)
O2 O 0.8660(3) 0.8194(2) 0.1726(2)
O3 O 0.6396(3) 0.7159(2) 0.3435(2)
O4 O 0.6851(3) 0.8950(2) 0.3006(2)
O5 O 0.6813(3) 0.5115(2) 0.5224(2)
O6 O 0.5335(3) 0.4854(2) 0.6428(2)
O7 O 0.9160(3) 0.6182(2) 0.4341(2)
O9 O 0.5452(3) 0.5236(3) 0.1537(2)
C1 C 0.8002(4) 0.7455(3) 0.2175(3)
C2 C 0.6990(4) 0.7897(3) 0.2946(3)
C3 C 0.5625(4) 0.4992(3) 0.5474(3)
H1 H 0.514(5) 0.462(2) 0.122(3)
H2 H 0.572(4) 0.568(2) 0.107(2)
O10 O 0.6930(3) 0.1409(2) 0.2945(2)
O11 O 0.6340(3) 0.3194(2) 0.3274(2)
O13 O 0.8604(3) 0.2159(2) 0.1565(2)
O14 O 0.8149(3) 0.3950(2) 0.1994(2)
O16 O 0.3187(3) 0.4885(2) 0.4776(2)
O18 O 0.4665(3) 0.5146(2) 0.3572(2)
O21 O 0.5840(3) 0.1182(2) 0.0659(2)
O22 O 0.8994(3) 0.3912(2) 0.4327(2)
O24 O 0.9548(3) 0.0236(3) 0.3463(2)
C5 C 0.6998(4) 0.2455(3) 0.2825(3)
C6 C 0.8010(4) 0.2897(3) 0.2054(3)
C7 C 0.4375(4) 0.5008(3) 0.4526(3)
C8 C 0.9954(4) 0.4343(3) 0.5003(3)
H4 H 0.928(4) 0.068(2) 0.393(2)
O17 O 0.8187(3) 0.0115(2) 0.9776(2)
O23 O 0.6006(3) 0.8912(2) 0.0673(2)
H3 H 0.986(5) 0.962(2) 0.378(3)
C7_2 C 0.0625(4) 0.0008(3) 0.0474(3)
O16_2 O 0.1813(3) 0.9885(2) 0.0224(2)
Eu4 Eu 0.21368(2) 0.984480(10) 0.830810(10)
C4_2 C 0.4954(4) 0.0657(3) 0.0003(3)
O8_2 O 0.3994(3) 0.1088(2) 0.9327(2)
O6_2 O 0.9665(3) 0.9854(2) 0.8572(2)
C3_2 C 0.9375(4) 0.9992(3) 0.9526(3)
O20_2 O 0.4160(3) 0.8818(2) 0.9341(2)
C8_2 C 0.5046(4) 0.9343(3) 0.9997(3)
O12 O 0.1340(3) 0.1806(2) 0.8274(2)
O15 O 0.3149(3) 0.1050(2) 0.6994(2)
H3_2 H 0.014(5) 0.038(2) 0.622(3)
O1_2 O 0.1930(3) 0.3591(2) 0.7945(2)
O3_2 O 0.3604(3) 0.2841(2) 0.6565(2)
O9_2 O 0.4548(3) 0.4764(3) 0.8463(2)
C1_2 C 0.1998(4) 0.2545(3) 0.7825(3)
C2_2 C 0.3010(4) 0.2103(3) 0.7054(3)
H1_2 H 0.486(5) 0.538(2) 0.878(3)
H2_2 H 0.428(4) 0.432(2) 0.893(2)
O10_2 O 0.3070(3) 0.8591(2) 0.7055(2)
O11_2 O 0.3660(3) 0.6806(2) 0.6726(2)
O13_2 O 0.1396(3) 0.7841(2) 0.8435(2)
O14_2 O 0.1851(3) 0.6050(2) 0.8006(2)
O24_2 O 0.0452(3) 0.9764(3) 0.6537(2)
C5_2 C 0.3002(4) 0.7545(3) 0.7175(3)
C6_2 C 0.1990(4) 0.7103(3) 0.7946(3)
H4_2 H 0.072(4) 0.932(2) 0.607(2)
N1 N 0.2682(5) 0.6312(4) 0.1956(4)
C9 C 0.1511(7) 0.6242(7) 0.2548(5)
C10 C 0.3064(8) 0.7458(6) 0.1680(5)
H5 H 0.252(5) 0.589(3) 0.139(2)
H6 H 0.338(4) 0.605(4) 0.240(3)
H7 H 0.1756 0.6599 0.3254
H8 H 0.1283 0.5459 0.2646
H9 H 0.0717 0.6623 0.2137
H10 H 0.2260 0.7835 0.1280
H11 H 0.3792 0.7424 0.1236
H12 H 0.3394 0.7871 0.2344
N1_2 N 0.2318(5) 0.1312(4) 0.3044(4)
C9_2 C 0.3489(7) 0.1242(7) 0.2452(5)
C10_2 C 0.1936(8) 0.2458(6) 0.3320(5)
H5_2 H 0.248(5) 0.089(3) 0.361(2)
H6_2 H 0.162(4) 0.105(4) 0.260(3)
H7_2 H 0.3244 0.1599 0.1746
H8_2 H 0.3717 0.0459 0.2354
H9_2 H 0.4283 0.1623 0.2863
H10_2 H 0.2740 0.2835 0.3720
H11_2 H 0.1208 0.2424 0.3764
H12_2 H 0.1606 0.2871 0.2656
N1_3 N 0.7318(5) 0.3688(4) 0.8044(4)
C9_3 C 0.8489(7) 0.3758(7) 0.7452(5)
C10_3 C 0.6936(8) 0.2542(6) 0.8320(5)
H5_3 H 0.748(5) 0.411(3) 0.861(2)
H6_3 H 0.662(4) 0.395(4) 0.760(3)
H7_3 H 0.8244 0.3401 0.6746
H8_3 H 0.8717 0.4541 0.7354
H9_3 H 0.9283 0.3377 0.7863
H10_3 H 0.7740 0.2165 0.8720
H11_3 H 0.6208 0.2576 0.8764
H12_3 H 0.6606 0.2129 0.7656
N1_4 N 0.7682(5) 0.8688(4) 0.6956(4)
C9_4 C 0.6511(7) 0.8758(7) 0.7548(5)
C10_4 C 0.8064(8) 0.7542(6) 0.6680(5)
H5_4 H 0.752(5) 0.911(3) 0.639(2)
H6_4 H 0.838(4) 0.895(4) 0.740(3)
H7_4 H 0.6756 0.8401 0.8254
H8_4 H 0.6283 0.9541 0.7646
H9_4 H 0.5717 0.8377 0.7137
H10_4 H 0.7260 0.7165 0.6280
H11_4 H 0.8792 0.7576 0.6236
H12_4 H 0.8394 0.7129 0.7344
loop_
_geom_bond_atom_site_label_1
_geom_bond_atom_site_label_2
_geom_bond_site_symmetry_1
_geom_bond_site_symmetry_2
O8 C4 1_555 1_555
Eu5 O8 1_555 1_555
O20 Eu5 1_555 1_555
Eu1 O1 1_555 1_555
O1 C1 1_555 1_555
O2 C1 1_555 1_555
O3 Eu1 1_555 1_555
O4 C2 1_555 1_555
O5 Eu1 1_555 1_555
O6 C3 1_555 1_555
O7 Eu1 1_555 1_555
O9 Eu1 1_555 1_555
C1 C2 1_555 1_555
C2 O3 1_555 1_555
C3 O5 1_555 1_555
H1 O9 1_555 1_555
H2 O9 1_555 1_555
Eu3 O10 1_555 1_555
Eu5 O6 1_555 1_555
O10 C5 1_555 1_555
O11 Eu1 1_555 1_555
O13 Eu3 1_555 1_555
O14 Eu1 1_555 1_555
O16 Eu5 1_555 1_555
O18 Eu1 1_555 1_555
O21 Eu3 1_555 1_555
O22 Eu1 1_555 1_555
O24 Eu3 1_555 1_555
C5 O11 1_555 1_555
C6 O13 1_555 1_555
C7 C3 1_555 1_555
H4 O24 1_555 1_555
O14 C6 1_555 1_555
O16 C7 1_555 1_555
O18 C7 1_555 1_555
O22 C8 1_555 1_555
C5 C6 1_555 1_555
O19 C7_2 1_555 1_555
C4_2 O21 1_555 1_555
O6_2 C3_2 1_555 1_555
O20_2 Eu4 1_555 1_555
O20_2 C8_2 1_555 1_555
Eu5 O1_2 1_555 1_555
O1_2 C1_2 1_555 1_555
O12 C1_2 1_555 1_555
O3_2 Eu5 1_555 1_555
O15 C2_2 1_555 1_555
O9_2 Eu5 1_555 1_555
C1_2 C2_2 1_555 1_555
C2_2 O3_2 1_555 1_555
H1_2 O9_2 1_555 1_555
H2_2 O9_2 1_555 1_555
Eu4 O10_2 1_555 1_555
O10_2 C5_2 1_555 1_555
O11_2 Eu5 1_555 1_555
O13_2 Eu4 1_555 1_555
O14_2 Eu5 1_555 1_555
O24_2 Eu4 1_555 1_555
C5_2 O11_2 1_555 1_555
C6_2 O13_2 1_555 1_555
H4_2 O24_2 1_555 1_555
O14_2 C6_2 1_555 1_555
C5_2 C6_2 1_555 1_555
N1 C9 1_555 1_555
C9 H7 1_555 1_555
C10 N1 1_555 1_555
H5 N1 1_555 1_555
H6 N1 1_555 1_555
H8 C9 1_555 1_555
H9 C9 1_555 1_555
H10 C10 1_555 1_555
H11 C10 1_555 1_555
H12 C10 1_555 1_555
N1_2 C9_2 1_555 1_555
C9_2 H7_2 1_555 1_555
C10_2 N1_2 1_555 1_555
H5_2 N1_2 1_555 1_555
H6_2 N1_2 1_555 1_555
H8_2 C9_2 1_555 1_555
H9_2 C9_2 1_555 1_555
H10_2 C10_2 1_555 1_555
H11_2 C10_2 1_555 1_555
H12_2 C10_2 1_555 1_555
N1_3 C9_3 1_555 1_555
C9_3 H7_3 1_555 1_555
C10_3 N1_3 1_555 1_555
H5_3 N1_3 1_555 1_555
H6_3 N1_3 1_555 1_555
H8_3 C9_3 1_555 1_555
H9_3 C9_3 1_555 1_555
H10_3 C10_3 1_555 1_555
H11_3 C10_3 1_555 1_555
H12_3 C10_3 1_555 1_555
N1_4 C9_4 1_555 1_555
C9_4 H7_4 1_555 1_555
C10_4 N1_4 1_555 1_555
H5_4 N1_4 1_555 1_555
H6_4 N1_4 1_555 1_555
H8_4 C9_4 1_555 1_555
H9_4 C9_4 1_555 1_555
H10_4 C10_4 1_555 1_555
H11_4 C10_4 1_555 1_555
H12_4 C10_4 1_555 1_555

#END
