
###############################################################################
#
# This file contains modified crystal structure data generated from the
# MOF subset of the Cambridge Structural Database (CSD) v543 
# hosted by the Cambridge Crystallographic Data Centre (CCDC).
#
# This work is licensed under the Creative Commons
# Attribution-NonCommercial-ShareAlike 4.0 International License.
# To view a copy of this license, visit
# http://creativecommons.org/licenses/by-nc-sa/4.0/
# or send a letter to
# Creative Commons, PO Box 1866, Mountain View, CA 94042, USA.
#
# CIF created using the CSD Python API on 29 September 2022
# The structure has been converted into the P1 space group
# The structure has a 3D framework
# The original CSD entry MAVFEV04 is in the monoclinic crystal system
# The framework has been calculated to contain at least 10.0% void space
# The void calculation uses a probe of radius 1.32A, grid spacing 0.4
# The framework is charged, counterions have been retained in the structure
#
###############################################################################

data_MAVFEV04
_chemical_formula_moiety         '(C24 H40 Eu4 N4 O35)n'
_symmetry_cell_setting           triclinic
_symmetry_space_group_name_H-M   'P 1'
_symmetry_Int_Tables_number      1
_space_group_name_Hall           'P 1'
loop_
_symmetry_equiv_pos_site_id
_symmetry_equiv_pos_as_xyz
1 x,y,z
_cell_length_a                   9.6654(6)
_cell_length_b                   11.7491(6)
_cell_length_c                   12.2886(7)
_cell_angle_alpha                90
_cell_angle_beta                 99.242(5)
_cell_angle_gamma                90
_cell_volume                     1377.38
loop_
_atom_site_label
_atom_site_type_symbol
_atom_site_fract_x
_atom_site_fract_y
_atom_site_fract_z
Eu1 Eu 0.213866(15) 0.484417(12) 0.330939(11)
O1 O 0.3600(2) 0.78416(18) 0.15620(17)
O2 O 0.1922(2) 0.85889(17) 0.29464(17)
O3 O 0.1342(2) 0.68042(17) 0.32753(16)
O4 O 0.3153(2) 0.60493(18) 0.19993(17)
C1 C 0.3013(3) 0.7102(2) 0.2057(2)
C2 C 0.1999(3) 0.7544(2) 0.2832(2)
O7 O 0.4161(2) 0.38190(18) 0.43358(17)
O8 O 0.0457(3) 0.4763(2) 0.15399(18)
H1 H 0.0816 0.4384 0.1040
H2 H 0.0325 0.5443 0.1254
O9 O 0.6012(2) 0.39112(19) 0.56699(18)
C3 C 0.5053(3) 0.4346(3) 0.5004(2)
O10 O 0.0333(2) 0.51435(17) 0.64227(18)
C5 C 0.0625(3) 0.5007(2) 0.5478(3)
O11 O 0.1816(2) 0.48790(19) 0.52244(18)
O12 O 0.5839(2) 0.61810(18) 0.56642(17)
O13 O 0.3988(2) 0.60888(19) 0.43301(18)
C6 C 0.4947(3) 0.5654(3) 0.4996(2)
Eu3 Eu 0.286134(15) 0.984417(12) 0.169061(11)
Eu4 Eu 0.786134(15) 0.515583(12) 0.669061(11)
O19 O 0.1400(2) 0.28416(18) 0.34380(17)
O21 O 0.3078(2) 0.35889(17) 0.20536(17)
O5 O 0.9667(2) 0.48565(17) 0.35773(18)
O6 O 0.8184(2) 0.51210(19) 0.47756(18)
C4 C 0.9375(3) 0.4993(2) 0.4522(3)
O14 O 0.6400(2) 0.21584(18) 0.84380(17)
O15 O 0.8078(2) 0.14111(17) 0.70536(17)
O16 O 0.8658(2) 0.31958(17) 0.67247(16)
O17 O 0.6847(2) 0.39507(18) 0.80007(17)
C7 C 0.6987(3) 0.2898(2) 0.7943(2)
C8 C 0.8001(3) 0.2456(2) 0.7168(2)
O18 O 0.9543(3) 0.5237(2) 0.84601(18)
H3 H 0.9184 0.5616 0.8960
H4 H 0.9675 0.4557 0.8746
Eu5 Eu 0.713866(15) 0.015583(12) 0.830939(11)
O20 O 0.8600(2) 0.71584(18) 0.65620(17)
O22 O 0.6922(2) 0.64111(17) 0.79464(17)
O3_2 O 0.3658(2) 0.18042(17) 0.17247(16)
O4_2 O 0.1847(2) 0.10493(18) 0.30007(17)
C1_2 C 0.1987(3) 0.2102(2) 0.2943(2)
C2_2 C 0.3001(3) 0.2544(2) 0.2168(2)
O6_2 O 0.6816(2) 0.01210(19) 0.02244(18)
H2_2 H 0.4675 0.0443 0.3746
O13_2 O 0.1012(2) 0.10888(19) 0.06699(18)
C6_2 C 0.0053(3) 0.0654(3) 0.0004(2)
O10_2 O 0.4667(2) 0.01435(17) 0.85773(18)
C5_2 C 0.4375(3) 0.0007(2) 0.9522(3)
O18_2 O 0.5457(3) 0.0237(2) 0.65399(18)
H3_2 H 0.5816 0.0616 0.6040
O23 O 0.9161(2) 0.11810(18) 0.93358(17)
O5_2 O 0.5333(2) 0.98565(17) 0.14227(18)
O7_2 O 0.0839(2) 0.88190(18) 0.06642(17)
O8_2 O 0.4543(3) 0.9763(2) 0.34601(18)
H1_2 H 0.4184 0.9384 0.3960
C4_2 C 0.5625(3) 0.9993(2) 0.0478(3)
O11_2 O 0.3184(2) 0.98790(19) 0.97756(18)
O16_2 O 0.6342(2) 0.81958(17) 0.82753(16)
O17_2 O 0.8153(2) 0.89507(18) 0.69993(17)
C7_2 C 0.8013(3) 0.7898(2) 0.7057(2)
C8_2 C 0.6999(3) 0.7456(2) 0.7832(2)
H4_2 H 0.5325 0.9557 0.6254
O24 O 0.8988(2) 0.89112(19) 0.93301(18)
C3_2 C 0.9947(3) 0.9346(3) 0.9996(2)
N1 N 0.2311(3) 0.6299(3) 0.8047(2)
H5 H 0.1563 0.5966 0.7640
H6 H 0.2524 0.5897 0.8675
C9 C 0.3500(5) 0.6238(5) 0.7439(4)
H7 H 0.3245 0.6588 0.6730
H8 H 0.3743 0.5456 0.7346
H9 H 0.4289 0.6631 0.7846
C10 C 0.1926(6) 0.7456(5) 0.8321(4)
H10 H 0.1673 0.7887 0.7656
H11 H 0.2708 0.7812 0.8775
H12 H 0.1145 0.7427 0.8714
N1_2 N 0.2689(3) 0.1299(3) 0.6953(2)
H5_2 H 0.3437 0.0966 0.7360
H6_2 H 0.2476 0.0897 0.6325
C9_2 C 0.1500(5) 0.1238(5) 0.7561(4)
H7_2 H 0.1755 0.1588 0.8270
H8_2 H 0.1257 0.0456 0.7654
H9_2 H 0.0711 0.1631 0.7154
C10_2 C 0.3074(6) 0.2456(5) 0.6679(4)
H10_2 H 0.3327 0.2887 0.7344
H11_2 H 0.2292 0.2812 0.6225
H12_2 H 0.3855 0.2427 0.6286
N1_3 N 0.7689(3) 0.3701(3) 0.1953(2)
H5_3 H 0.8437 0.4034 0.2360
H6_3 H 0.7476 0.4103 0.1325
C9_3 C 0.6500(5) 0.3762(5) 0.2561(4)
H7_3 H 0.6755 0.3412 0.3270
H8_3 H 0.6257 0.4544 0.2654
H9_3 H 0.5711 0.3369 0.2154
C10_3 C 0.8074(6) 0.2544(5) 0.1679(4)
H10_3 H 0.8327 0.2113 0.2344
H11_3 H 0.7292 0.2188 0.1225
H12_3 H 0.8855 0.2573 0.1286
N1_4 N 0.7311(3) 0.8701(3) 0.3047(2)
H5_4 H 0.6563 0.9034 0.2640
H6_4 H 0.7524 0.9103 0.3675
C9_4 C 0.8500(5) 0.8762(5) 0.2439(4)
H7_4 H 0.8245 0.8412 0.1730
H8_4 H 0.8743 0.9544 0.2346
H9_4 H 0.9289 0.8369 0.2846
C10_4 C 0.6926(6) 0.7544(5) 0.3321(4)
H10_4 H 0.6673 0.7113 0.2656
H11_4 H 0.7708 0.7188 0.3775
H12_4 H 0.6145 0.7573 0.3714
loop_
_geom_bond_atom_site_label_1
_geom_bond_atom_site_label_2
_geom_bond_site_symmetry_1
_geom_bond_site_symmetry_2
Eu1 O3 1_555 1_555
O1 C1 1_555 1_555
O2 C2 1_555 1_555
O3 C2 1_555 1_555
O4 Eu1 1_555 1_555
C1 O4 1_555 1_555
C2 C1 1_555 1_555
O7 Eu1 1_555 1_555
O8 Eu1 1_555 1_555
H1 O8 1_555 1_555
H2 O8 1_555 1_555
O9 C3 1_555 1_555
C3 O7 1_555 1_555
O10 C5 1_555 1_555
O11 Eu1 1_555 1_555
O12 C6 1_555 1_555
O13 Eu1 1_555 1_555
C6 C3 1_555 1_555
Eu3 O1 1_555 1_555
Eu4 O9 1_555 1_555
O19 Eu1 1_555 1_555
O21 Eu1 1_555 1_555
O2 Eu3 1_555 1_555
C5 O11 1_555 1_555
O12 Eu4 1_555 1_555
O13 C6 1_555 1_555
O6 C4 1_555 1_555
C4 O5 1_555 1_555
Eu4 O6 1_555 1_555
O14 C7 1_555 1_555
O15 C8 1_555 1_555
O16 Eu4 1_555 1_555
O17 Eu4 1_555 1_555
C7 O17 1_555 1_555
C8 O16 1_555 1_555
O18 Eu4 1_555 1_555
H3 O18 1_555 1_555
H4 O18 1_555 1_555
Eu5 O14 1_555 1_555
O20 Eu4 1_555 1_555
O22 Eu4 1_555 1_555
O15 Eu5 1_555 1_555
C7 C8 1_555 1_555
O19 C1_2 1_555 1_555
O21 C2_2 1_555 1_555
O3_2 C2_2 1_555 1_555
C1_2 O4_2 1_555 1_555
C2_2 C1_2 1_555 1_555
O13_2 C6_2 1_555 1_555
O10_2 C5_2 1_555 1_555
O18_2 Eu5 1_555 1_555
H3_2 O18_2 1_555 1_555
O23 Eu5 1_555 1_555
O10_2 Eu5 1_555 1_555
O5_2 Eu3 1_555 1_555
O7_2 Eu3 1_555 1_555
O8_2 Eu3 1_555 1_555
H1_2 O8_2 1_555 1_555
C4_2 O5_2 1_555 1_555
O20 C7_2 1_555 1_555
O22 C8_2 1_555 1_555
C7_2 O17_2 1_555 1_555
C8_2 O16_2 1_555 1_555
C7_2 C8_2 1_555 1_555
O24 C3_2 1_555 1_555
N1 H5 1_555 1_555
H6 N1 1_555 1_555
C9 N1 1_555 1_555
H7 C9 1_555 1_555
H8 C9 1_555 1_555
H9 C9 1_555 1_555
C10 N1 1_555 1_555
H10 C10 1_555 1_555
H11 C10 1_555 1_555
H12 C10 1_555 1_555
N1_2 H5_2 1_555 1_555
H6_2 N1_2 1_555 1_555
C9_2 N1_2 1_555 1_555
H7_2 C9_2 1_555 1_555
H8_2 C9_2 1_555 1_555
H9_2 C9_2 1_555 1_555
C10_2 N1_2 1_555 1_555
H10_2 C10_2 1_555 1_555
H11_2 C10_2 1_555 1_555
H12_2 C10_2 1_555 1_555
N1_3 H5_3 1_555 1_555
H6_3 N1_3 1_555 1_555
C9_3 N1_3 1_555 1_555
H7_3 C9_3 1_555 1_555
H8_3 C9_3 1_555 1_555
H9_3 C9_3 1_555 1_555
C10_3 N1_3 1_555 1_555
H10_3 C10_3 1_555 1_555
H11_3 C10_3 1_555 1_555
H12_3 C10_3 1_555 1_555
N1_4 H5_4 1_555 1_555
H6_4 N1_4 1_555 1_555
C9_4 N1_4 1_555 1_555
H7_4 C9_4 1_555 1_555
H8_4 C9_4 1_555 1_555
H9_4 C9_4 1_555 1_555
C10_4 N1_4 1_555 1_555
H10_4 C10_4 1_555 1_555
H11_4 C10_4 1_555 1_555
H12_4 C10_4 1_555 1_555

#END
