
###############################################################################
#
# This file contains modified crystal structure data generated from the
# MOF subset of the Cambridge Structural Database (CSD) v543 
# hosted by the Cambridge Crystallographic Data Centre (CCDC).
#
# This work is licensed under the Creative Commons
# Attribution-NonCommercial-ShareAlike 4.0 International License.
# To view a copy of this license, visit
# http://creativecommons.org/licenses/by-nc-sa/4.0/
# or send a letter to
# Creative Commons, PO Box 1866, Mountain View, CA 94042, USA.
#
# CIF created using the CSD Python API on 29 September 2022
# The structure has been converted into the P1 space group
# The structure has a 3D framework
# The original CSD entry MAVLIH is in the monoclinic crystal system
# The framework has been calculated to contain at least 10.0% void space
# The void calculation uses a probe of radius 1.32A, grid spacing 0.4
#
###############################################################################

data_MAVLIH
_chemical_formula_moiety         '(C160 H96 Cd14 N8 O56)n'
_symmetry_cell_setting           triclinic
_symmetry_space_group_name_H-M   'P 1'
_symmetry_Int_Tables_number      1
_space_group_name_Hall           'P 1'
loop_
_symmetry_equiv_pos_site_id
_symmetry_equiv_pos_as_xyz
1 x,y,z
_cell_length_a                   14.9155(11)
_cell_length_b                   20.1133(9)
_cell_length_c                   14.3821(7)
_cell_angle_alpha                90
_cell_angle_beta                 105.870(6)
_cell_angle_gamma                90
_cell_volume                     4150.18
loop_
_atom_site_label
_atom_site_type_symbol
_atom_site_fract_x
_atom_site_fract_y
_atom_site_fract_z
C22 C 0.0010(2) 0.2478(2) 0.0049(3)
H13 H 0.0392 0.3374 0.0667
Cd7 Cd 0.27529(2) 0.28442(2) 0.12518(2)
O16 O 0.34550(17) 0.23343(14) 0.00769(17)
Cd2 Cd 0.0000 0.14345(2) 0.7500
O3 O 0.04661(17) 0.13800(12) 0.54326(17)
O4 O 0.14100(17) 0.17142(13) 0.72599(17)
O5 O 0.28873(19) 0.14253(14) 0.77091(18)
C3 C 0.0041(3) 0.3033(2) 0.4391(3)
C4 C 0.0733(4) 0.3082(3) 0.3919(4)
H2 H 0.0768 0.3457 0.3552
C5 C 0.1359(3) 0.2582(3) 0.3995(4)
H3 H 0.1831 0.2623 0.3689
C6 C 0.1311(3) 0.2017(2) 0.4513(3)
H4 H 0.1739 0.1675 0.4549
C7 C 0.0619(2) 0.19616(19) 0.4983(2)
C8 C 0.1129(2) 0.08764(18) 0.5549(2)
C9 C 0.1916(3) 0.08653(19) 0.6348(2)
C10 C 0.2089(3) 0.1369(2) 0.7150(3)
C11 C 0.2540(3) 0.0343(2) 0.6420(3)
H5 H 0.3079 0.0336 0.6932
C15 C 0.0976(2) 0.03764(18) 0.4873(2)
H7 H 0.0453 0.0393 0.4344
Cd3 Cd 0.22471(2) 0.21558(2) 0.87482(2)
O8 O 0.15450(17) 0.26657(14) 0.99231(17)
O9 O 0.05337(17) 0.22831(13) 0.86393(17)
N2 N 0.2444(3) 0.30971(18) 0.7928(2)
C21 C 0.0734(3) 0.24676(19) 0.9504(3)
C36 C 0.3223(3) 0.3450(2) 0.8096(4)
H20 H 0.3725 0.3328 0.8611
C37 C 0.3321(4) 0.3985(3) 0.7550(4)
H21 H 0.3882 0.4216 0.7689
C38 C 0.2602(5) 0.4176(3) 0.6806(4)
H22 H 0.2651 0.4547 0.6437
C39 C 0.1818(5) 0.3821(3) 0.6613(4)
H23 H 0.1319 0.3936 0.6091
C40 C 0.1743(4) 0.3285(3) 0.7182(4)
H24 H 0.1187 0.3047 0.7042
O18 O 0.07453(18) 0.06499(13) 0.85085(17)
O20 O 0.1974(2) 0.11933(14) 0.94450(18)
Cd9 Cd 0.0000 0.85655(2) 0.2500
O6 O 0.07453(18) 0.93501(13) 0.35085(17)
O7 O 0.1974(2) 0.88067(14) 0.44450(18)
C12 C 0.2381(3) 0.9836(2) 0.5752(3)
H6 H 0.2802 0.9486 0.5823
C13 C 0.1591(3) 0.98488(19) 0.4971(2)
C14 C 0.1418(3) 0.9284(2) 0.4239(3)
Cd4 Cd 0.22471(2) 0.78442(2) 0.37482(2)
Cd1 Cd 0.77529(2) 0.21558(2) 0.62518(2)
Cd2_2 Cd 1.0000 0.14345(2) 0.7500
O1 O 0.84550(17) 0.26657(14) 0.50769(17)
O2 O 0.94663(17) 0.22831(13) 0.63607(17)
N1 N 0.7556(3) 0.30971(18) 0.7072(2)
C1 C 0.9266(3) 0.24676(19) 0.5496(3)
C2 C 0.9990(2) 0.2478(2) 0.4951(3)
H1 H 0.9608 0.3374 0.4333
C16 C 0.6777(3) 0.3450(2) 0.6904(4)
H8 H 0.6275 0.3328 0.6389
C17 C 0.6679(4) 0.3985(3) 0.7450(4)
H9 H 0.6118 0.4216 0.7311
C18 C 0.7398(5) 0.4176(3) 0.8194(4)
H10 H 0.7349 0.4547 0.8563
C19 C 0.8182(5) 0.3821(3) 0.8387(4)
H11 H 0.8681 0.3936 0.8909
C20 C 0.8257(4) 0.3285(3) 0.7818(4)
H12 H 0.8813 0.3047 0.7958
O10 O 0.95339(17) 0.13800(12) 0.95674(17)
O11 O 0.85900(17) 0.17142(13) 0.77401(17)
O12 O 0.71127(19) 0.14253(14) 0.72909(18)
C28 C 0.8871(2) 0.08764(18) 0.9451(2)
C29 C 0.8084(3) 0.08653(19) 0.8652(2)
C30 C 0.7911(3) 0.1369(2) 0.7850(3)
C31 C 0.7460(3) 0.0343(2) 0.8580(3)
H17 H 0.6921 0.0336 0.8068
Cd6 Cd 0.72471(2) 0.28442(2) 0.37482(2)
O15 O 0.65450(17) 0.23343(14) 0.49231(17)
O17 O 0.92547(18) 0.06499(13) 0.64915(17)
O19 O 0.8026(2) 0.11933(14) 0.55550(18)
O13 O 0.92547(18) 0.93501(13) 0.14915(17)
O14 O 0.8026(2) 0.88067(14) 0.05550(18)
C33 C 0.8409(3) 0.98488(19) 0.0029(2)
C34 C 0.8582(3) 0.9284(2) 0.0761(3)
Cd5 Cd 0.77529(2) 0.78442(2) 0.12518(2)
Cd9_2 Cd 1.0000 0.85655(2) 0.2500
C32 C 0.7619(3) 0.9836(2) 0.9248(3)
H18 H 0.7198 0.9486 0.9177
O13_2 O 0.42547(18) 0.43501(13) 0.14915(17)
O14_2 O 0.3026(2) 0.38067(14) 0.05550(18)
C22_2 C 0.5010(2) 0.7478(2) 0.0049(3)
C23 C 0.4959(3) 0.8033(2) 0.0609(3)
H13_2 H 0.5392 0.8374 0.0667
C24 C 0.4267(4) 0.8082(3) 0.1081(4)
H14 H 0.4232 0.8457 0.1448
C25 C 0.3641(3) 0.7582(3) 0.1005(4)
H15 H 0.3169 0.7623 0.1311
C26 C 0.3689(3) 0.7017(2) 0.0487(3)
H16 H 0.3261 0.6675 0.0451
C27 C 0.4381(2) 0.69616(19) 0.0017(2)
C33_2 C 0.3409(3) 0.48488(19) 0.0029(2)
C34_2 C 0.3582(3) 0.4284(2) 0.0761(3)
C35 C 0.4024(2) 0.53764(18) 0.0127(2)
H19 H 0.4547 0.5393 0.0656
Cd9_3 Cd 0.5000 0.35655(2) 0.2500
O16_2 O 0.84550(17) 0.73343(14) 0.00769(17)
Cd1_2 Cd 0.27529(2) 0.71558(2) 0.62518(2)
Cd2_3 Cd 0.5000 0.64345(2) 0.7500
O1_2 O 0.34550(17) 0.76657(14) 0.50769(17)
O2_2 O 0.44663(17) 0.72831(13) 0.63607(17)
O3_2 O 0.54661(17) 0.63800(12) 0.54326(17)
O4_2 O 0.64100(17) 0.67142(13) 0.72599(17)
O5_2 O 0.78873(19) 0.64253(14) 0.77091(18)
O6_2 O 0.57453(18) 0.43501(13) 0.35085(17)
O7_2 O 0.6974(2) 0.38067(14) 0.44450(18)
N1_2 N 0.2556(3) 0.80971(18) 0.7072(2)
C1_2 C 0.4266(3) 0.74676(19) 0.5496(3)
C2_2 C 0.4990(2) 0.7478(2) 0.4951(3)
C3_2 C 0.5041(3) 0.8033(2) 0.4391(3)
H1_2 H 0.4608 0.8374 0.4333
C4_2 C 0.5733(4) 0.8082(3) 0.3919(4)
H2_2 H 0.5768 0.8457 0.3552
C5_2 C 0.6359(3) 0.7582(3) 0.3995(4)
H3_2 H 0.6831 0.7623 0.3689
C6_2 C 0.6311(3) 0.7017(2) 0.4513(3)
H4_2 H 0.6739 0.6675 0.4549
C7_2 C 0.5619(2) 0.69616(19) 0.4983(2)
C8_2 C 0.6129(2) 0.58764(18) 0.5549(2)
C9_2 C 0.6916(3) 0.58653(19) 0.6348(2)
C10_2 C 0.7089(3) 0.6369(2) 0.7150(3)
C11_2 C 0.7540(3) 0.5343(2) 0.6420(3)
H5_2 H 0.8079 0.5336 0.6932
C12_2 C 0.7381(3) 0.4836(2) 0.5752(3)
H6_2 H 0.7802 0.4486 0.5823
C13_2 C 0.6591(3) 0.48488(19) 0.4971(2)
C14_2 C 0.6418(3) 0.4284(2) 0.4239(3)
C15_2 C 0.5976(2) 0.53764(18) 0.4873(2)
H7_2 H 0.5453 0.5393 0.4344
C16_2 C 0.1777(3) 0.8450(2) 0.6904(4)
H8_2 H 0.1275 0.8328 0.6389
C17_2 C 0.1679(4) 0.8985(3) 0.7450(4)
H9_2 H 0.1118 0.9216 0.7311
C18_2 C 0.2398(5) 0.9176(3) 0.8194(4)
H10_2 H 0.2349 0.9547 0.8563
C19_2 C 0.3182(5) 0.8821(3) 0.8387(4)
H11_2 H 0.3681 0.8936 0.8909
C20_2 C 0.3257(4) 0.8285(3) 0.7818(4)
H12_2 H 0.3813 0.8047 0.7958
Cd3_2 Cd 0.72471(2) 0.71558(2) 0.87482(2)
O8_2 O 0.65450(17) 0.76657(14) 0.99231(17)
O9_2 O 0.55337(17) 0.72831(13) 0.86393(17)
O10_2 O 0.45339(17) 0.63800(12) 0.95674(17)
O11_2 O 0.35900(17) 0.67142(13) 0.77401(17)
O12_2 O 0.21127(19) 0.64253(14) 0.72909(18)
N2_2 N 0.7444(3) 0.80971(18) 0.7928(2)
C21_2 C 0.5734(3) 0.74676(19) 0.9504(3)
C28_2 C 0.3871(2) 0.58764(18) 0.9451(2)
C29_2 C 0.3084(3) 0.58653(19) 0.8652(2)
C30_2 C 0.2911(3) 0.6369(2) 0.7850(3)
C31_2 C 0.2460(3) 0.5343(2) 0.8580(3)
H17_2 H 0.1921 0.5336 0.8068
C32_2 C 0.2619(3) 0.4836(2) 0.9248(3)
H18_2 H 0.2198 0.4486 0.9177
C36_2 C 0.8223(3) 0.8450(2) 0.8096(4)
H20_2 H 0.8725 0.8328 0.8611
C37_2 C 0.8321(4) 0.8985(3) 0.7550(4)
H21_2 H 0.8882 0.9216 0.7689
C38_2 C 0.7602(5) 0.9176(3) 0.6806(4)
H22_2 H 0.7651 0.9547 0.6437
C39_2 C 0.6818(5) 0.8821(3) 0.6613(4)
H23_2 H 0.6319 0.8936 0.6091
C40_2 C 0.6743(4) 0.8285(3) 0.7182(4)
H24_2 H 0.6187 0.8047 0.7042
O15_2 O 0.15450(17) 0.73343(14) 0.49231(17)
O17_2 O 0.42547(18) 0.56499(13) 0.64915(17)
O18_2 O 0.57453(18) 0.56499(13) 0.85085(17)
O19_2 O 0.3026(2) 0.61933(14) 0.55550(18)
O20_2 O 0.6974(2) 0.61933(14) 0.94450(18)
C32_3 C 0.2381(3) 0.0164(2) 0.0752(3)
H18_3 H 0.2802 0.0514 0.0823
C33_3 C 0.1591(3) 0.01512(19) 0.9971(2)
C34_3 C 0.1418(3) 0.0716(2) 0.9239(3)
O2_3 O 0.05337(17) 0.77169(13) 0.36393(17)
N1_3 N 0.2444(3) 0.69029(18) 0.2928(2)
C1_3 C 0.0734(3) 0.75324(19) 0.4504(3)
C2_3 C 0.0010(2) 0.7522(2) 0.5049(3)
H1_3 H 0.0392 0.6626 0.5667
C16_3 C 0.3223(3) 0.6550(2) 0.3096(4)
H8_3 H 0.3725 0.6672 0.3611
C17_3 C 0.3321(4) 0.6015(3) 0.2550(4)
H9_3 H 0.3882 0.5784 0.2689
C18_3 C 0.2602(5) 0.5824(3) 0.1806(4)
H10_3 H 0.2651 0.5453 0.1437
C19_3 C 0.1818(5) 0.6179(3) 0.1613(4)
H11_3 H 0.1319 0.6064 0.1091
C20_3 C 0.1743(4) 0.6715(3) 0.2182(4)
H12_3 H 0.1187 0.6953 0.2042
O10_3 O 0.04661(17) 0.86200(12) 0.04326(17)
O11_3 O 0.14100(17) 0.82858(13) 0.22599(17)
O12_3 O 0.28873(19) 0.85747(14) 0.27091(18)
C28_3 C 0.1129(2) 0.91236(18) 0.0549(2)
C29_3 C 0.1916(3) 0.91347(19) 0.1348(2)
C30_3 C 0.2089(3) 0.8631(2) 0.2150(3)
C31_3 C 0.2540(3) 0.9657(2) 0.1420(3)
H17_3 H 0.3079 0.9664 0.1932
C12_3 C 0.7619(3) 0.0164(2) 0.4248(3)
H6_3 H 0.7198 0.0514 0.4177
C13_3 C 0.8409(3) 0.01512(19) 0.5029(2)
C14_3 C 0.8582(3) 0.0716(2) 0.5761(3)
O3_3 O 0.95339(17) 0.86200(12) 0.45674(17)
O4_3 O 0.85900(17) 0.82858(13) 0.27401(17)
O5_3 O 0.71127(19) 0.85747(14) 0.22909(18)
C3_3 C 0.9959(3) 0.6967(2) 0.5609(3)
C4_3 C 0.9267(4) 0.6918(3) 0.6081(4)
H2_3 H 0.9232 0.6543 0.6448
C5_3 C 0.8641(3) 0.7418(3) 0.6005(4)
H3_3 H 0.8169 0.7377 0.6311
C6_3 C 0.8689(3) 0.7983(2) 0.5487(3)
H4_3 H 0.8261 0.8325 0.5451
C7_3 C 0.9381(2) 0.80384(19) 0.5017(2)
C8_3 C 0.8871(2) 0.91236(18) 0.4451(2)
C9_3 C 0.8084(3) 0.91347(19) 0.3652(2)
C10_3 C 0.7911(3) 0.8631(2) 0.2850(3)
C11_3 C 0.7460(3) 0.9657(2) 0.3580(3)
H5_3 H 0.6921 0.9664 0.3068
C15_3 C 0.9024(2) 0.96236(18) 0.5127(2)
H7_3 H 0.9547 0.9607 0.5656
O9_3 O 0.94663(17) 0.77169(13) 0.13607(17)
N2_3 N 0.7556(3) 0.69029(18) 0.2072(2)
C21_3 C 0.9266(3) 0.75324(19) 0.0496(3)
C36_3 C 0.6777(3) 0.6550(2) 0.1904(4)
H20_3 H 0.6275 0.6672 0.1389
C37_3 C 0.6679(4) 0.6015(3) 0.2450(4)
H21_3 H 0.6118 0.5784 0.2311
C38_3 C 0.7398(5) 0.5824(3) 0.3194(4)
H22_3 H 0.7349 0.5453 0.3563
C39_3 C 0.8182(5) 0.6179(3) 0.3387(4)
H23_3 H 0.8681 0.6064 0.3909
C40_3 C 0.8257(4) 0.6715(3) 0.2818(4)
H24_3 H 0.8813 0.6953 0.2958
C22_3 C 0.9990(2) 0.7522(2) 0.9951(3)
H13_3 H 0.9608 0.6626 0.9333
O2_4 O 0.55337(17) 0.27169(13) 0.36393(17)
O3_4 O 0.45339(17) 0.36200(12) 0.45674(17)
O4_4 O 0.35900(17) 0.32858(13) 0.27401(17)
O5_4 O 0.21127(19) 0.35747(14) 0.22909(18)
N1_4 N 0.7444(3) 0.19029(18) 0.2928(2)
C1_4 C 0.5734(3) 0.25324(19) 0.4504(3)
C2_4 C 0.5010(2) 0.2522(2) 0.5049(3)
C3_4 C 0.4959(3) 0.1967(2) 0.5609(3)
H1_4 H 0.5392 0.1626 0.5667
C4_4 C 0.4267(4) 0.1918(3) 0.6081(4)
H2_4 H 0.4232 0.1543 0.6448
C5_4 C 0.3641(3) 0.2418(3) 0.6005(4)
H3_4 H 0.3169 0.2377 0.6311
C6_4 C 0.3689(3) 0.2983(2) 0.5487(3)
H4_4 H 0.3261 0.3325 0.5451
C7_4 C 0.4381(2) 0.30384(19) 0.5017(2)
C8_4 C 0.3871(2) 0.41236(18) 0.4451(2)
C9_4 C 0.3084(3) 0.41347(19) 0.3652(2)
C10_4 C 0.2911(3) 0.3631(2) 0.2850(3)
C11_4 C 0.2460(3) 0.4657(2) 0.3580(3)
H5_4 H 0.1921 0.4664 0.3068
C12_4 C 0.2619(3) 0.5164(2) 0.4248(3)
H6_4 H 0.2198 0.5514 0.4177
C13_4 C 0.3409(3) 0.51512(19) 0.5029(2)
C14_4 C 0.3582(3) 0.5716(2) 0.5761(3)
C15_4 C 0.4024(2) 0.46236(18) 0.5127(2)
H7_4 H 0.4547 0.4607 0.5656
C16_4 C 0.8223(3) 0.1550(2) 0.3096(4)
H8_4 H 0.8725 0.1672 0.3611
C17_4 C 0.8321(4) 0.1015(3) 0.2550(4)
H9_4 H 0.8882 0.0784 0.2689
C18_4 C 0.7602(5) 0.0824(3) 0.1806(4)
H10_4 H 0.7651 0.0453 0.1437
C19_4 C 0.6818(5) 0.1179(3) 0.1613(4)
H11_4 H 0.6319 0.1064 0.1091
C20_4 C 0.6743(4) 0.1715(3) 0.2182(4)
H12_4 H 0.6187 0.1953 0.2042
O9_4 O 0.44663(17) 0.27169(13) 0.13607(17)
O10_4 O 0.54661(17) 0.36200(12) 0.04326(17)
O11_4 O 0.64100(17) 0.32858(13) 0.22599(17)
O12_4 O 0.78873(19) 0.35747(14) 0.27091(18)
N2_4 N 0.2556(3) 0.19029(18) 0.2072(2)
C21_4 C 0.4266(3) 0.25324(19) 0.0496(3)
C28_4 C 0.6129(2) 0.41236(18) 0.0549(2)
C29_4 C 0.6916(3) 0.41347(19) 0.1348(2)
C30_4 C 0.7089(3) 0.3631(2) 0.2150(3)
C31_4 C 0.7540(3) 0.4657(2) 0.1420(3)
H17_4 H 0.8079 0.4664 0.1932
C32_4 C 0.7381(3) 0.5164(2) 0.0752(3)
H18_4 H 0.7802 0.5514 0.0823
C36_4 C 0.1777(3) 0.1550(2) 0.1904(4)
H20_4 H 0.1275 0.1672 0.1389
C37_4 C 0.1679(4) 0.1015(3) 0.2450(4)
H21_4 H 0.1118 0.0784 0.2311
C38_4 C 0.2398(5) 0.0824(3) 0.3194(4)
H22_4 H 0.2349 0.0453 0.3563
C39_4 C 0.3182(5) 0.1179(3) 0.3387(4)
H23_4 H 0.3681 0.1064 0.3909
C40_4 C 0.3257(4) 0.1715(3) 0.2818(4)
H24_4 H 0.3813 0.1953 0.2958
C22_4 C 0.4990(2) 0.2522(2) 0.9951(3)
C23_2 C 0.5041(3) 0.1967(2) 0.9391(3)
H13_4 H 0.4608 0.1626 0.9333
C24_2 C 0.5733(4) 0.1918(3) 0.8919(4)
H14_2 H 0.5768 0.1543 0.8552
C25_2 C 0.6359(3) 0.2418(3) 0.8995(4)
H15_2 H 0.6831 0.2377 0.8689
C26_2 C 0.6311(3) 0.2983(2) 0.9513(3)
H16_2 H 0.6739 0.3325 0.9549
C27_2 C 0.5619(2) 0.30384(19) 0.9983(2)
C33_4 C 0.6591(3) 0.51512(19) 0.9971(2)
C34_4 C 0.6418(3) 0.5716(2) 0.9239(3)
C35_2 C 0.5976(2) 0.46236(18) 0.9873(2)
H19_2 H 0.5453 0.4607 0.9344
C23_3 C 0.9959(3) 0.3033(2) 0.0609(3)
C24_3 C 0.9267(4) 0.3082(3) 0.1081(4)
H14_3 H 0.9232 0.3457 0.1448
C25_3 C 0.8641(3) 0.2582(3) 0.1005(4)
H15_3 H 0.8169 0.2623 0.1311
C26_3 C 0.8689(3) 0.2017(2) 0.0487(3)
H16_3 H 0.8261 0.1675 0.0451
C27_3 C 0.9381(2) 0.19616(19) 0.0017(2)
C35_3 C 0.9024(2) 0.03764(18) 0.0127(2)
H19_3 H 0.9547 0.0393 0.0656
C23_4 C 0.0041(3) 0.6967(2) 0.9391(3)
C24_4 C 0.0733(4) 0.6918(3) 0.8919(4)
H14_4 H 0.0768 0.6543 0.8552
C25_4 C 0.1359(3) 0.7418(3) 0.8995(4)
H15_4 H 0.1831 0.7377 0.8689
C26_4 C 0.1311(3) 0.7983(2) 0.9513(3)
H16_4 H 0.1739 0.8325 0.9549
C27_4 C 0.0619(2) 0.80384(19) 0.9983(2)
C35_4 C 0.0976(2) 0.96236(18) 0.9873(2)
H19_4 H 0.0453 0.9607 0.9344
loop_
_geom_bond_atom_site_label_1
_geom_bond_atom_site_label_2
_geom_bond_site_symmetry_1
_geom_bond_site_symmetry_2
Cd7 O16 1_555 1_555
O3 C7 1_555 1_555
O4 Cd2 1_555 1_555
O5 C10 1_555 1_555
C4 C3 1_555 1_555
H2 C4 1_555 1_555
C5 C4 1_555 1_555
H3 C5 1_555 1_555
C6 C5 1_555 1_555
H4 C6 1_555 1_555
C8 O3 1_555 1_555
C9 C8 1_555 1_555
C10 O4 1_555 1_555
C11 C9 1_555 1_555
H5 C11 1_555 1_555
C15 C8 1_555 1_555
H7 C15 1_555 1_555
Cd3 O4 1_555 1_555
O8 Cd3 1_555 1_555
O9 Cd2 1_555 1_555
N2 Cd3 1_555 1_555
C21 O8 1_555 1_555
C36 N2 1_555 1_555
H20 C36 1_555 1_555
C37 C36 1_555 1_555
H21 C37 1_555 1_555
C38 C37 1_555 1_555
H22 C38 1_555 1_555
C39 C38 1_555 1_555
H23 C39 1_555 1_555
C40 N2 1_555 1_555
H24 C40 1_555 1_555
O18 Cd2 1_555 1_555
O20 Cd3 1_555 1_555
O5 Cd3 1_555 1_555
C6 C7 1_555 1_555
C9 C10 1_555 1_555
Cd3 O9 1_555 1_555
O9 C21 1_555 1_555
C39 C40 1_555 1_555
O6 C14 1_555 1_555
O7 C14 1_555 1_555
H6 C12 1_555 1_555
C13 C12 1_555 1_555
C14 C13 1_555 1_555
Cd4 O7 1_555 1_555
Cd9 O6 1_555 1_555
Cd1 O1 1_555 1_555
Cd2_2 O2 1_555 1_555
O1 C1 1_555 1_555
O2 Cd1 1_555 1_555
N1 Cd1 1_555 1_555
C1 O2 1_555 1_555
C2 C1 1_555 1_555
C16 N1 1_555 1_555
H8 C16 1_555 1_555
C17 C16 1_555 1_555
H9 C17 1_555 1_555
C18 C17 1_555 1_555
H10 C18 1_555 1_555
C19 C18 1_555 1_555
H11 C19 1_555 1_555
C20 N1 1_555 1_555
H12 C20 1_555 1_555
O11 Cd1 1_555 1_555
O12 Cd1 1_555 1_555
C28 O10 1_555 1_555
C29 C28 1_555 1_555
C30 O11 1_555 1_555
C31 C29 1_555 1_555
H17 C31 1_555 1_555
Cd6 O1 1_555 1_555
O15 Cd1 1_555 1_555
O17 Cd2_2 1_555 1_555
O19 Cd1 1_555 1_555
Cd2_2 O11 1_555 1_555
C19 C20 1_555 1_555
O12 C30 1_555 1_555
C29 C30 1_555 1_555
Cd6 O15 1_555 1_555
O13 C34 1_555 1_555
O14 C34 1_555 1_555
C34 C33 1_555 1_555
Cd5 O14 1_555 1_555
Cd9_2 O13 1_555 1_555
H18 C32 1_555 1_555
O13_2 C34_2 1_555 1_555
O14_2 C34_2 1_555 1_555
C23 C22_2 1_555 1_555
H13_2 C23 1_555 1_555
C24 C23 1_555 1_555
H14 C24 1_555 1_555
C25 C24 1_555 1_555
H15 C25 1_555 1_555
C26 C25 1_555 1_555
H16 C26 1_555 1_555
C27 C22_2 1_555 1_555
C34_2 C33_2 1_555 1_555
H19 C35 1_555 1_555
Cd7 O14_2 1_555 1_555
Cd9_3 O13_2 1_555 1_555
C26 C27 1_555 1_555
C33_2 C35 1_555 1_555
Cd5 O16_2 1_555 1_555
Cd1_2 O1_2 1_555 1_555
Cd2_3 O2_2 1_555 1_555
O1_2 C1_2 1_555 1_555
O2_2 Cd1_2 1_555 1_555
O3_2 C7_2 1_555 1_555
O4_2 Cd2_3 1_555 1_555
O5_2 C10_2 1_555 1_555
O6_2 C14_2 1_555 1_555
O7_2 C14_2 1_555 1_555
N1_2 Cd1_2 1_555 1_555
C1_2 O2_2 1_555 1_555
C2_2 C1_2 1_555 1_555
C3_2 C2_2 1_555 1_555
H1_2 C3_2 1_555 1_555
C4_2 C3_2 1_555 1_555
H2_2 C4_2 1_555 1_555
C5_2 C4_2 1_555 1_555
H3_2 C5_2 1_555 1_555
C6_2 C5_2 1_555 1_555
H4_2 C6_2 1_555 1_555
C7_2 C2_2 1_555 1_555
C8_2 O3_2 1_555 1_555
C9_2 C8_2 1_555 1_555
C10_2 O4_2 1_555 1_555
C11_2 C9_2 1_555 1_555
H5_2 C11_2 1_555 1_555
C12_2 C11_2 1_555 1_555
H6_2 C12_2 1_555 1_555
C13_2 C12_2 1_555 1_555
C14_2 C13_2 1_555 1_555
C15_2 C8_2 1_555 1_555
H7_2 C15_2 1_555 1_555
C16_2 N1_2 1_555 1_555
H8_2 C16_2 1_555 1_555
C17_2 C16_2 1_555 1_555
H9_2 C17_2 1_555 1_555
C18_2 C17_2 1_555 1_555
H10_2 C18_2 1_555 1_555
C19_2 C18_2 1_555 1_555
H11_2 C19_2 1_555 1_555
C20_2 N1_2 1_555 1_555
H12_2 C20_2 1_555 1_555
Cd3_2 O4_2 1_555 1_555
O8_2 Cd3_2 1_555 1_555
O9_2 Cd2_3 1_555 1_555
O11_2 Cd1_2 1_555 1_555
O12_2 Cd1_2 1_555 1_555
N2_2 Cd3_2 1_555 1_555
C21_2 O8_2 1_555 1_555
C28_2 O10_2 1_555 1_555
C29_2 C28_2 1_555 1_555
C30_2 O11_2 1_555 1_555
C31_2 C29_2 1_555 1_555
H17_2 C31_2 1_555 1_555
C32_2 C31_2 1_555 1_555
H18_2 C32_2 1_555 1_555
C36_2 N2_2 1_555 1_555
H20_2 C36_2 1_555 1_555
C37_2 C36_2 1_555 1_555
H21_2 C37_2 1_555 1_555
C38_2 C37_2 1_555 1_555
H22_2 C38_2 1_555 1_555
C39_2 C38_2 1_555 1_555
H23_2 C39_2 1_555 1_555
C40_2 N2_2 1_555 1_555
H24_2 C40_2 1_555 1_555
Cd6 O7_2 1_555 1_555
Cd4 O1_2 1_555 1_555
Cd9_3 O6_2 1_555 1_555
O15_2 Cd1_2 1_555 1_555
O17_2 Cd2_3 1_555 1_555
O18_2 Cd2_3 1_555 1_555
O19_2 Cd1_2 1_555 1_555
O20_2 Cd3_2 1_555 1_555
Cd2_3 O11_2 1_555 1_555
O5_2 Cd3_2 1_555 1_555
C6_2 C7_2 1_555 1_555
C9_2 C10_2 1_555 1_555
C13_2 C15_2 1_555 1_555
C19_2 C20_2 1_555 1_555
Cd3_2 O9_2 1_555 1_555
O9_2 C21_2 1_555 1_555
O12_2 C30_2 1_555 1_555
C29_2 C30_2 1_555 1_555
C39_2 C40_2 1_555 1_555
Cd4 O15_2 1_555 1_555
H18_3 C32_3 1_555 1_555
O18 C34_3 1_555 1_555
O20 C34_3 1_555 1_555
C34_3 C33_3 1_555 1_555
Cd9 O2_3 1_555 1_555
O15_2 C1_3 1_555 1_555
O2_3 Cd4 1_555 1_555
N1_3 Cd4 1_555 1_555
C1_3 O2_3 1_555 1_555
C2_3 C1_3 1_555 1_555
C16_3 N1_3 1_555 1_555
H8_3 C16_3 1_555 1_555
C17_3 C16_3 1_555 1_555
H9_3 C17_3 1_555 1_555
C18_3 C17_3 1_555 1_555
H10_3 C18_3 1_555 1_555
C19_3 C18_3 1_555 1_555
H11_3 C19_3 1_555 1_555
C20_3 N1_3 1_555 1_555
H12_3 C20_3 1_555 1_555
O11_3 Cd4 1_555 1_555
O12_3 Cd4 1_555 1_555
C28_3 O10_3 1_555 1_555
C29_3 C28_3 1_555 1_555
C30_3 O11_3 1_555 1_555
C31_3 C29_3 1_555 1_555
H17_3 C31_3 1_555 1_555
Cd9 O11_3 1_555 1_555
C19_3 C20_3 1_555 1_555
O12_3 C30_3 1_555 1_555
C29_3 C30_3 1_555 1_555
O17 C14_3 1_555 1_555
O19 C14_3 1_555 1_555
H6_3 C12_3 1_555 1_555
C13_3 C12_3 1_555 1_555
C14_3 C13_3 1_555 1_555
O3_3 C7_3 1_555 1_555
O4_3 Cd9_2 1_555 1_555
O5_3 C10_3 1_555 1_555
C4_3 C3_3 1_555 1_555
H2_3 C4_3 1_555 1_555
C5_3 C4_3 1_555 1_555
H3_3 C5_3 1_555 1_555
C6_3 C5_3 1_555 1_555
H4_3 C6_3 1_555 1_555
C8_3 O3_3 1_555 1_555
C9_3 C8_3 1_555 1_555
C10_3 O4_3 1_555 1_555
C11_3 C9_3 1_555 1_555
H5_3 C11_3 1_555 1_555
C15_3 C8_3 1_555 1_555
H7_3 C15_3 1_555 1_555
Cd5 O4_3 1_555 1_555
O9_3 Cd9_2 1_555 1_555
N2_3 Cd5 1_555 1_555
C21_3 O16_2 1_555 1_555
C36_3 N2_3 1_555 1_555
H20_3 C36_3 1_555 1_555
C37_3 C36_3 1_555 1_555
H21_3 C37_3 1_555 1_555
C38_3 C37_3 1_555 1_555
H22_3 C38_3 1_555 1_555
C39_3 C38_3 1_555 1_555
H23_3 C39_3 1_555 1_555
C40_3 N2_3 1_555 1_555
H24_3 C40_3 1_555 1_555
O5_3 Cd5 1_555 1_555
C6_3 C7_3 1_555 1_555
C9_3 C10_3 1_555 1_555
Cd5 O9_3 1_555 1_555
O9_3 C21_3 1_555 1_555
C39_3 C40_3 1_555 1_555
Cd9_3 O2_4 1_555 1_555
O15 C1_4 1_555 1_555
O2_4 Cd6 1_555 1_555
O3_4 C7_4 1_555 1_555
O4_4 Cd9_3 1_555 1_555
O5_4 C10_4 1_555 1_555
O17_2 C14_4 1_555 1_555
O19_2 C14_4 1_555 1_555
N1_4 Cd6 1_555 1_555
C1_4 O2_4 1_555 1_555
C2_4 C1_4 1_555 1_555
C3_4 C2_4 1_555 1_555
H1_4 C3_4 1_555 1_555
C4_4 C3_4 1_555 1_555
H2_4 C4_4 1_555 1_555
C5_4 C4_4 1_555 1_555
H3_4 C5_4 1_555 1_555
C6_4 C5_4 1_555 1_555
H4_4 C6_4 1_555 1_555
C7_4 C2_4 1_555 1_555
C8_4 O3_4 1_555 1_555
C9_4 C8_4 1_555 1_555
C10_4 O4_4 1_555 1_555
C11_4 C9_4 1_555 1_555
H5_4 C11_4 1_555 1_555
C12_4 C11_4 1_555 1_555
H6_4 C12_4 1_555 1_555
C13_4 C12_4 1_555 1_555
C14_4 C13_4 1_555 1_555
C15_4 C8_4 1_555 1_555
H7_4 C15_4 1_555 1_555
C16_4 N1_4 1_555 1_555
H8_4 C16_4 1_555 1_555
C17_4 C16_4 1_555 1_555
H9_4 C17_4 1_555 1_555
C18_4 C17_4 1_555 1_555
H10_4 C18_4 1_555 1_555
C19_4 C18_4 1_555 1_555
H11_4 C19_4 1_555 1_555
C20_4 N1_4 1_555 1_555
H12_4 C20_4 1_555 1_555
Cd7 O4_4 1_555 1_555
O9_4 Cd9_3 1_555 1_555
O11_4 Cd6 1_555 1_555
O12_4 Cd6 1_555 1_555
N2_4 Cd7 1_555 1_555
C21_4 O16 1_555 1_555
C28_4 O10_4 1_555 1_555
C29_4 C28_4 1_555 1_555
C30_4 O11_4 1_555 1_555
C31_4 C29_4 1_555 1_555
H17_4 C31_4 1_555 1_555
C32_4 C31_4 1_555 1_555
H18_4 C32_4 1_555 1_555
C36_4 N2_4 1_555 1_555
H20_4 C36_4 1_555 1_555
C37_4 C36_4 1_555 1_555
H21_4 C37_4 1_555 1_555
C38_4 C37_4 1_555 1_555
H22_4 C38_4 1_555 1_555
C39_4 C38_4 1_555 1_555
H23_4 C39_4 1_555 1_555
C40_4 N2_4 1_555 1_555
H24_4 C40_4 1_555 1_555
Cd9_3 O11_4 1_555 1_555
O5_4 Cd7 1_555 1_555
C6_4 C7_4 1_555 1_555
C9_4 C10_4 1_555 1_555
C13_4 C15_4 1_555 1_555
C19_4 C20_4 1_555 1_555
Cd7 O9_4 1_555 1_555
O9_4 C21_4 1_555 1_555
O12_4 C30_4 1_555 1_555
C29_4 C30_4 1_555 1_555
C39_4 C40_4 1_555 1_555
O18_2 C34_4 1_555 1_555
O20_2 C34_4 1_555 1_555
C23_2 C22_4 1_555 1_555
H13_4 C23_2 1_555 1_555
C24_2 C23_2 1_555 1_555
H14_2 C24_2 1_555 1_555
C25_2 C24_2 1_555 1_555
H15_2 C25_2 1_555 1_555
C26_2 C25_2 1_555 1_555
H16_2 C26_2 1_555 1_555
C27_2 C22_4 1_555 1_555
C34_4 C33_4 1_555 1_555
H19_2 C35_2 1_555 1_555
C26_2 C27_2 1_555 1_555
C33_4 C35_2 1_555 1_555
C24_3 C23_3 1_555 1_555
H14_3 C24_3 1_555 1_555
C25_3 C24_3 1_555 1_555
H15_3 C25_3 1_555 1_555
C26_3 C25_3 1_555 1_555
H16_3 C26_3 1_555 1_555
H19_3 C35_3 1_555 1_555
C26_3 C27_3 1_555 1_555
C24_4 C23_4 1_555 1_555
H14_4 C24_4 1_555 1_555
C25_4 C24_4 1_555 1_555
H15_4 C25_4 1_555 1_555
C26_4 C25_4 1_555 1_555
H16_4 C26_4 1_555 1_555
H19_4 C35_4 1_555 1_555
C26_4 C27_4 1_555 1_555

#END
