
###############################################################################
#
# This file contains modified crystal structure data generated from the
# MOF subset of the Cambridge Structural Database (CSD) v543 
# hosted by the Cambridge Crystallographic Data Centre (CCDC).
#
# This work is licensed under the Creative Commons
# Attribution-NonCommercial-ShareAlike 4.0 International License.
# To view a copy of this license, visit
# http://creativecommons.org/licenses/by-nc-sa/4.0/
# or send a letter to
# Creative Commons, PO Box 1866, Mountain View, CA 94042, USA.
#
# CIF created using the CSD Python API on 29 September 2022
# The structure has been converted into the P1 space group
# The structure has a 3D framework
# The original CSD entry MAVNUU is in the orthorhombic crystal system
# The original CSD entry MAVNUU is in a Sohncke space group
# The framework has been calculated to contain at least 10.0% void space
# The void calculation uses a probe of radius 1.32A, grid spacing 0.4
# H atom positions have been added when not included in the experimental data
#
###############################################################################

data_MAVNUU
_chemical_formula_moiety         '(C212 H144 O40 Zn4)n'
_symmetry_cell_setting           triclinic
_symmetry_space_group_name_H-M   'P 1'
_symmetry_Int_Tables_number      1
_space_group_name_Hall           'P 1'
loop_
_symmetry_equiv_pos_site_id
_symmetry_equiv_pos_as_xyz
1 x,y,z
_cell_length_a                   26.9842(8)
_cell_length_b                   31.2626(7)
_cell_length_c                   7.2309(2)
_cell_angle_alpha                90
_cell_angle_beta                 90
_cell_angle_gamma                90
_cell_volume                     6099.96
loop_
_atom_site_label
_atom_site_type_symbol
_atom_site_fract_x
_atom_site_fract_y
_atom_site_fract_z
Zn5 Zn 0.03200(12) 0.76214(9) 0.9998(4)
O11 O 0.0747(8) 0.7982(6) 0.862(3)
O7 O 0.0210(9) 0.8009(6) 0.644(3)
C21 C 0.2390(5) 0.9721(5) 0.0267(19)
C23 C 0.2063(6) 0.9031(3) 0.110(2)
C24 C 0.1809(5) 0.9216(5) 0.2572(19)
C25 C 0.1845(5) 0.9654(5) 0.2888(17)
C26 C 0.2136(6) 0.9906(3) 0.174(2)
C34 C 0.0629(13) 0.8110(9) 0.723(5)
C48 C 0.0860(6) 0.8383(5) 0.412(3)
C49 C 0.1139(9) 0.8663(8) 0.3049(19)
C50 C 0.1470(7) 0.8942(5) 0.389(3)
C51 C 0.1523(6) 0.8942(5) 0.580(3)
C52 C 0.1243(8) 0.8663(7) 0.6874(19)
C53 C 0.0912(6) 0.8383(5) 0.603(3)
H8 H 0.329085 0.982413 0.171477
H12 H 0.164488 0.9799 0.403581
H27 H 0.203381 0.868847 0.0848678
H30 H 0.0600804 0.816379 0.346097
H33 H 0.109798 0.866353 0.155077
H34 H 0.128274 0.866369 0.837271
H35 H 0.178363 0.91603 0.645678
O15 O 0.0135(7) 0.1941(5) 0.096(2)
C27 C 0.2702(9) 0.0048(6) 0.901(3)
C35 C 0.2333(6) 0.0298(4) 0.7667(19)
C36 C 0.1822(6) 0.0293(4) 0.7915(16)
C37 C 0.1518(4) 0.0523(5) 0.672(2)
C38 C 0.1725(6) 0.0757(4) 0.5282(18)
C39 C 0.2236(6) 0.0762(4) 0.5034(16)
C40 C 0.2540(4) 0.0532(5) 0.623(2)
C41 C 0.1248(7) 0.1303(5) 0.0876(16)
C42 C 0.1546(5) 0.1060(5) 0.204(3)
C43 C 0.1405(6) 0.0993(4) 0.387(2)
C44 C 0.0967(7) 0.1170(5) 0.4529(16)
C45 C 0.0669(5) 0.1413(4) 0.336(3)
C46 C 0.0810(6) 0.1480(4) 0.154(2)
C47 C 0.0434(11) 0.1768(9) 0.021(4)
H14 H 0.165994 0.0109351 0.904281
H17 H 0.23981 0.094555 0.390597
H23 H 0.273544 0.0949064 0.899902
H28 H 0.111776 0.0519479 0.691257
H29 H 0.294026 0.0535651 0.603824
H31 H 0.188954 0.0922086 0.152127
H32 H 0.0324943 0.155049 0.3876
H36 H 0.0856724 0.111864 0.59606
O14 O 0.0169(6) 0.2751(4) 0.8725(17)
C1 C 0.0489(5) 0.3444(4) 0.653(2)
C2 C 0.0640(5) 0.3385(4) 0.835(2)
C3 C 0.1035(6) 0.3620(5) 0.9045(15)
C4 C 0.1280(5) 0.3913(4) 0.792(2)
C5 C 0.1128(6) 0.3972(4) 0.610(2)
C6 C 0.0733(6) 0.3738(5) 0.5406(15)
C7 C 0.0394(10) 0.3068(7) 0.945(3)
C22 C 0.2646(5) 0.4284(5) 0.0049(18)
C27_2 C 0.2298(9) 0.5048(6) 0.099(3)
C28 C 0.1971(7) 0.4769(4) 0.2378(19)
C29 C 0.1460(7) 0.4732(4) 0.2169(17)
C30 C 0.1189(4) 0.4480(5) 0.339(2)
C31 C 0.1429(6) 0.4264(4) 0.4810(19)
C32 C 0.1939(6) 0.4301(4) 0.5019(16)
C33 C 0.2210(4) 0.4554(5) 0.380(2)
C35_2 C 0.2667(6) 0.5298(4) 0.2333(19)
C36_2 C 0.3178(6) 0.5293(4) 0.2085(16)
C37_2 C 0.3482(4) 0.5523(5) 0.328(2)
C38_2 C 0.3275(6) 0.5757(4) 0.4718(18)
C39_2 C 0.2764(6) 0.5762(4) 0.4966(16)
C40_2 C 0.2460(4) 0.5532(5) 0.377(2)
O10 O 0.4865(7) 0.6941(5) 0.904(2)
C41_2 C 0.3752(7) 0.6303(5) 0.9124(16)
C42_2 C 0.3454(5) 0.6060(5) 0.796(3)
C43_2 C 0.3595(6) 0.5993(4) 0.613(2)
C44_2 C 0.4033(7) 0.6170(5) 0.5471(16)
C45_2 C 0.4331(5) 0.6413(4) 0.664(3)
C46_2 C 0.4190(6) 0.6480(4) 0.846(2)
C47_2 C 0.4566(11) 0.6768(9) 0.979(4)
Zn7 Zn 0.04674(18) 0.23094(12) 0.6927(5)
H1 H 0.0613589 0.37842 0.398133
H3 H 0.0179361 0.325999 0.598224
H10 H 0.159074 0.409604 0.846514
H13 H 0.212652 0.413225 0.61353
H14_2 H 0.334006 0.510935 0.095719
H16 H 0.127258 0.490016 0.105079
H17_2 H 0.26019 0.594555 0.609403
H21 H 0.260979 0.458321 0.396245
H22 H 0.0788942 0.445206 0.32328
H23_2 H 0.226456 0.594906 0.100098
H24 H 0.244608 0.413933 0.119804
H28_2 H 0.388224 0.551948 0.308743
H29_2 H 0.205974 0.553565 0.396176
H31_2 H 0.311046 0.592209 0.847873
H32_2 H 0.467506 0.655049 0.6124
H36_2 H 0.414328 0.611864 0.40394
O1 O 0.0651(8) 0.1796(5) 0.860(3)
O3 O 0.0408(8) 0.2499(5) 0.427(2)
O8 O 0.1347(9) 0.2403(7) 0.644(3)
H4 H 0.148677 0.214041 0.586999
H5 H 0.140339 0.265041 0.56049
H6 H 0.0163275 0.231538 0.36207
H7 H 0.0295971 0.28014 0.422767
H11 H 0.135756 0.135477 0.944391
O4 O 0.5491(7) 0.7588(5) 0.733(2)
O5 O 0.5789(6) 0.7967(4) 0.949(2)
C8 C 0.7016(5) 0.9641(4) 0.0223(18)
C9 C 0.6725(5) 0.9829(3) 0.159(2)
C10 C 0.6455(5) 0.9573(5) 0.2794(16)
C11 C 0.6476(5) 0.9130(4) 0.2639(18)
C12 C 0.6767(6) 0.8943(3) 0.128(2)
C13 C 0.7037(5) 0.9198(5) 0.0068(17)
C14 C 0.6229(5) 0.8827(4) 0.402(2)
C15 C 0.6206(6) 0.8915(4) 0.590(3)
C16 C 0.6025(6) 0.8610(5) 0.7124(17)
C17 C 0.5866(6) 0.8216(4) 0.646(2)
C18 C 0.5888(5) 0.8127(4) 0.458(2)
C19 C 0.6070(6) 0.8432(5) 0.3360(16)
C20 C 0.5714(10) 0.7907(8) 0.785(4)
H9 H 0.622642 0.971949 0.386143
H15 H 0.783432 0.97515 0.199136
H18 H 0.576262 0.781825 0.406293
H19 H 0.600779 0.867945 0.85984
H20 H 0.608831 0.836205 0.188623
H25 H 0.678408 0.859605 0.116188
H26 H 0.633022 0.922409 0.641718
Zn2 Zn 0.54674(18) 0.26906(12) 0.3073(5)
O1_2 O 0.5651(8) 0.3204(5) 0.140(3)
O2 O 0.9532(7) 0.6935(5) 0.113(2)
O3_2 O 0.5408(8) 0.2501(5) 0.573(2)
O8_2 O 0.6347(9) 0.2597(7) 0.356(3)
Zn3 Zn 0.46800(12) 0.26214(9) 0.0002(4)
O12 O 0.4790(9) 0.3009(6) 0.356(3)
O13 O 0.5169(6) 0.2249(4) 0.1275(17)
H2 H 0.884676 0.642497 0.0471759
H4_2 H 0.648677 0.285959 0.413001
H5_2 H 0.640339 0.234959 0.43951
H6_2 H 0.516328 0.268462 0.63793
H7_2 H 0.529597 0.21986 0.577233
H11_2 H 0.635756 0.364523 0.0556091
O4_2 O 0.0491(7) 0.7412(5) 0.267(2)
O5_2 O 0.0789(6) 0.7033(4) 0.051(2)
O6 O 0.4253(8) 0.2982(6) 0.138(3)
C8_2 C 0.2016(5) 0.5359(4) 0.9777(18)
C9_2 C 0.1725(5) 0.5171(3) 0.841(2)
C10_2 C 0.1455(5) 0.5427(5) 0.7206(16)
C11_2 C 0.1476(5) 0.5870(4) 0.7361(18)
C12_2 C 0.1767(6) 0.6057(3) 0.872(2)
C13_2 C 0.2037(5) 0.5802(5) 0.9932(17)
C14_2 C 0.1229(5) 0.6173(4) 0.598(2)
C15_2 C 0.1206(6) 0.6085(4) 0.410(3)
C16_2 C 0.1025(6) 0.6390(5) 0.2876(17)
C17_2 C 0.0866(6) 0.6784(4) 0.354(2)
C18_2 C 0.0888(5) 0.6873(4) 0.542(2)
C19_2 C 0.1070(6) 0.6568(5) 0.6640(16)
C20_2 C 0.0714(10) 0.7093(8) 0.215(4)
C21_2 C 0.2610(5) 0.4721(5) 0.9733(19)
C23_2 C 0.2937(6) 0.4031(3) 0.890(2)
C24_2 C 0.3191(5) 0.4216(5) 0.7428(19)
C25_2 C 0.3155(5) 0.4654(5) 0.7112(17)
C26_2 C 0.2864(6) 0.4906(3) 0.826(2)
C34_2 C 0.4371(13) 0.3110(9) 0.277(5)
C48_2 C 0.4140(6) 0.3383(5) 0.588(3)
C49_2 C 0.3861(9) 0.3663(8) 0.6951(19)
C50_2 C 0.3530(7) 0.3942(5) 0.611(3)
C51_2 C 0.3477(6) 0.3942(5) 0.420(3)
C52_2 C 0.3757(8) 0.3663(7) 0.3126(19)
C53_2 C 0.4088(6) 0.3383(5) 0.397(3)
H8_2 H 0.170915 0.482413 0.828523
H9_2 H 0.122642 0.528051 0.613857
H12_2 H 0.335512 0.4799 0.596419
H15_2 H 0.283432 0.52485 0.800864
H18_2 H 0.0762617 0.718175 0.593707
H19_2 H 0.100779 0.632055 0.14016
H20_2 H 0.108831 0.663795 0.811377
H25_2 H 0.178408 0.640395 0.883812
H26_2 H 0.133022 0.577591 0.358282
H27_2 H 0.296619 0.368847 0.915132
H30_2 H 0.43992 0.316379 0.653903
H33_2 H 0.390202 0.366353 0.844923
H34_2 H 0.371726 0.366369 0.162729
H35_2 H 0.321637 0.41603 0.354322
C1_2 C 0.5489(5) 0.1556(4) 0.347(2)
C2_2 C 0.5640(5) 0.1615(4) 0.165(2)
C3_2 C 0.6035(6) 0.1380(5) 0.0955(15)
C4_2 C 0.6280(5) 0.1087(4) 0.208(2)
C5_2 C 0.6128(6) 0.1028(4) 0.390(2)
C6_2 C 0.5733(6) 0.1262(5) 0.4594(15)
C7_2 C 0.5394(10) 0.1932(7) 0.055(3)
C22_2 C 0.7646(5) 0.0716(5) 0.9951(18)
C28_2 C 0.6971(7) 0.0231(4) 0.7622(19)
C29_2 C 0.6460(7) 0.0268(4) 0.7831(17)
C30_2 C 0.6189(4) 0.0520(5) 0.661(2)
C31_2 C 0.6429(6) 0.0736(4) 0.5190(19)
C32_2 C 0.6939(6) 0.0699(4) 0.4981(16)
C33_2 C 0.7210(4) 0.0446(5) 0.620(2)
H1_2 H 0.561359 0.12158 0.601867
H3_2 H 0.517936 0.174001 0.401776
H10_2 H 0.659074 0.0903956 0.153486
H13_2 H 0.712652 0.0867753 0.38647
H16_2 H 0.627258 0.00998403 0.894921
H21_2 H 0.760979 0.0416795 0.603755
H22_2 H 0.578894 0.0547938 0.67672
H24_2 H 0.744608 0.0860671 0.880196
C1_3 C 0.9511(5) 0.6556(4) 0.653(2)
C2_3 C 0.9360(5) 0.6615(4) 0.835(2)
C3_3 C 0.8965(6) 0.6380(5) 0.9045(15)
C4_3 C 0.8720(5) 0.6087(4) 0.792(2)
C5_3 C 0.8872(6) 0.6028(4) 0.610(2)
C6_3 C 0.9267(6) 0.6262(5) 0.5406(15)
C7_3 C 0.9606(10) 0.6932(7) 0.945(3)
O9 O 0.9831(6) 0.7249(4) 0.8725(17)
C22_3 C 0.7354(5) 0.5716(5) 0.0049(18)
C27_3 C 0.7702(9) 0.4952(6) 0.099(3)
C28_3 C 0.8029(7) 0.5231(4) 0.2378(19)
C29_3 C 0.8540(7) 0.5268(4) 0.2169(17)
C30_3 C 0.8811(4) 0.5520(5) 0.339(2)
C31_3 C 0.8571(6) 0.5736(4) 0.4810(19)
C32_3 C 0.8061(6) 0.5699(4) 0.5019(16)
C33_3 C 0.7790(4) 0.5446(5) 0.380(2)
C35_3 C 0.7333(6) 0.4702(4) 0.2333(19)
C36_3 C 0.6822(6) 0.4707(4) 0.2085(16)
C37_3 C 0.6518(4) 0.4477(5) 0.328(2)
C38_3 C 0.6725(6) 0.4243(4) 0.4718(18)
C39_3 C 0.7236(6) 0.4238(4) 0.4966(16)
C40_3 C 0.7540(4) 0.4468(5) 0.377(2)
O10_2 O 0.5135(7) 0.3059(5) 0.904(2)
C41_3 C 0.6248(7) 0.3697(5) 0.9124(16)
C42_3 C 0.6546(5) 0.3940(5) 0.796(3)
C43_3 C 0.6405(6) 0.4007(4) 0.613(2)
C44_3 C 0.5967(7) 0.3830(5) 0.5471(16)
C45_3 C 0.5669(5) 0.3587(4) 0.664(3)
C46_3 C 0.5810(6) 0.3520(4) 0.846(2)
C47_3 C 0.5434(11) 0.3232(9) 0.979(4)
Zn7_2 Zn 0.95326(18) 0.76906(12) 0.6927(5)
H1_3 H 0.938641 0.62158 0.398133
H3_3 H 0.982064 0.674001 0.598224
H10_3 H 0.840926 0.590396 0.846514
H13_3 H 0.787348 0.586775 0.61353
H14_3 H 0.665994 0.489065 0.095719
H16_3 H 0.872742 0.509984 0.105079
H17_3 H 0.73981 0.405445 0.609403
H21_3 H 0.739021 0.541679 0.396245
H22_3 H 0.921106 0.554794 0.32328
H23_3 H 0.773544 0.405094 0.100098
H24_3 H 0.755392 0.586067 0.119804
H28_3 H 0.611776 0.448052 0.308743
H29_3 H 0.794026 0.446435 0.396176
H31_3 H 0.688954 0.407791 0.847873
H32_3 H 0.532494 0.344951 0.6124
H36_3 H 0.585672 0.388136 0.40394
O4_3 O 0.4509(7) 0.2412(5) 0.733(2)
O5_3 O 0.4211(6) 0.2033(4) 0.949(2)
C8_3 C 0.2984(5) 0.0359(4) 0.0223(18)
C9_3 C 0.3275(5) 0.0171(3) 0.159(2)
C10_3 C 0.3545(5) 0.0427(5) 0.2794(16)
C11_3 C 0.3524(5) 0.0870(4) 0.2639(18)
C12_3 C 0.3233(6) 0.1057(3) 0.128(2)
C13_3 C 0.2963(5) 0.0802(5) 0.0068(17)
C14_3 C 0.3771(5) 0.1173(4) 0.402(2)
C15_3 C 0.3794(6) 0.1085(4) 0.590(3)
C16_3 C 0.3975(6) 0.1390(5) 0.7124(17)
C17_3 C 0.4134(6) 0.1784(4) 0.646(2)
C18_3 C 0.4112(5) 0.1873(4) 0.458(2)
C19_3 C 0.3930(6) 0.1568(5) 0.3360(16)
C20_3 C 0.4286(10) 0.2093(8) 0.785(4)
H9_3 H 0.377358 0.0280509 0.386143
H15_3 H 0.216568 0.0248497 0.199136
H18_3 H 0.423738 0.218175 0.406293
H19_3 H 0.399221 0.132055 0.85984
H20_3 H 0.391169 0.163795 0.188623
H25_3 H 0.321592 0.140395 0.116188
H26_3 H 0.366978 0.0775913 0.641718
O1_3 O 0.9349(8) 0.8204(5) 0.860(3)
O3_3 O 0.9592(8) 0.7501(5) 0.427(2)
O8_3 O 0.8653(9) 0.7597(7) 0.644(3)
H4_3 H 0.851323 0.785959 0.586999
H5_3 H 0.859661 0.734959 0.56049
H6_3 H 0.983672 0.768462 0.36207
H7_3 H 0.970403 0.71986 0.422767
H11_3 H 0.864244 0.864523 0.944391
O4_4 O 0.9509(7) 0.2588(5) 0.267(2)
O5_4 O 0.9211(6) 0.2967(4) 0.051(2)
O6_2 O 0.5747(8) 0.7018(6) 0.138(3)
O7_2 O 0.5210(9) 0.6991(6) 0.356(3)
C8_4 C 0.7984(5) 0.4641(4) 0.9777(18)
C9_4 C 0.8275(5) 0.4829(3) 0.841(2)
C10_4 C 0.8545(5) 0.4573(5) 0.7206(16)
C11_4 C 0.8524(5) 0.4130(4) 0.7361(18)
C12_4 C 0.8233(6) 0.3943(3) 0.872(2)
C13_4 C 0.7963(5) 0.4198(5) 0.9932(17)
C14_4 C 0.8771(5) 0.3827(4) 0.598(2)
C15_4 C 0.8794(6) 0.3915(4) 0.410(3)
C16_4 C 0.8975(6) 0.3610(5) 0.2876(17)
C17_4 C 0.9134(6) 0.3216(4) 0.354(2)
C18_4 C 0.9112(5) 0.3127(4) 0.542(2)
C19_4 C 0.8930(6) 0.3432(5) 0.6640(16)
C20_4 C 0.9286(10) 0.2907(8) 0.215(4)
C21_3 C 0.7390(5) 0.5279(5) 0.9733(19)
C23_3 C 0.7063(6) 0.5969(3) 0.890(2)
C24_3 C 0.6809(5) 0.5784(5) 0.7428(19)
C25_3 C 0.6845(5) 0.5346(5) 0.7112(17)
C26_3 C 0.7136(6) 0.5094(3) 0.826(2)
C34_3 C 0.5629(13) 0.6890(9) 0.277(5)
C48_3 C 0.5860(6) 0.6617(5) 0.588(3)
C49_3 C 0.6139(9) 0.6337(8) 0.6951(19)
C50_3 C 0.6470(7) 0.6058(5) 0.611(3)
C51_3 C 0.6523(6) 0.6058(5) 0.420(3)
C52_3 C 0.6243(8) 0.6337(7) 0.3126(19)
C53_3 C 0.5912(6) 0.6617(5) 0.397(3)
Zn4 Zn 0.53200(12) 0.73786(9) 0.0002(4)
Zn6 Zn 0.45326(18) 0.73094(12) 0.3073(5)
H8_3 H 0.829085 0.517587 0.828523
H9_4 H 0.877358 0.471949 0.613857
H12_3 H 0.664488 0.5201 0.596419
H15_4 H 0.716568 0.47515 0.800864
H18_4 H 0.923738 0.281825 0.593707
H19_4 H 0.899221 0.367945 0.14016
H20_4 H 0.891169 0.336205 0.811377
H25_4 H 0.821592 0.359605 0.883812
H26_4 H 0.866978 0.422409 0.358282
H27_3 H 0.703381 0.631153 0.915132
H30_3 H 0.56008 0.683621 0.653903
H33_3 H 0.609798 0.633647 0.844923
H34_3 H 0.628274 0.633631 0.162729
H35_3 H 0.678363 0.58397 0.354322
O1_4 O 0.4349(8) 0.6796(5) 0.140(3)
O2_2 O 0.0468(7) 0.3065(5) 0.113(2)
O3_4 O 0.4592(8) 0.7499(5) 0.573(2)
O8_4 O 0.3653(9) 0.7403(7) 0.356(3)
O13_2 O 0.4831(6) 0.7751(4) 0.1275(17)
H2_2 H 0.115324 0.357503 0.0471759
H4_4 H 0.351323 0.714041 0.413001
H5_4 H 0.359661 0.765041 0.43951
H6_4 H 0.483672 0.731538 0.63793
H7_4 H 0.470403 0.78014 0.577233
H11_4 H 0.364244 0.635477 0.0556091
C1_4 C 0.4511(5) 0.8444(4) 0.347(2)
C2_4 C 0.4360(5) 0.8385(4) 0.165(2)
C3_4 C 0.3965(6) 0.8620(5) 0.0955(15)
C4_4 C 0.3720(5) 0.8913(4) 0.208(2)
C5_4 C 0.3872(6) 0.8972(4) 0.390(2)
C6_4 C 0.4267(6) 0.8738(5) 0.4594(15)
C7_4 C 0.4606(10) 0.8068(7) 0.055(3)
C22_4 C 0.2354(5) 0.9284(5) 0.9951(18)
C28_4 C 0.3029(7) 0.9769(4) 0.7622(19)
C29_4 C 0.3540(7) 0.9732(4) 0.7831(17)
C30_4 C 0.3811(4) 0.9480(5) 0.661(2)
C31_4 C 0.3571(6) 0.9264(4) 0.5190(19)
C32_4 C 0.3061(6) 0.9301(4) 0.4981(16)
C33_4 C 0.2790(4) 0.9554(5) 0.620(2)
H1_4 H 0.438641 0.87842 0.601867
H3_4 H 0.482064 0.825999 0.401776
H10_4 H 0.340926 0.909604 0.153486
H13_4 H 0.287348 0.913225 0.38647
H16_4 H 0.372742 0.990016 0.894921
H21_4 H 0.239021 0.958321 0.603755
H22_4 H 0.421106 0.945206 0.67672
H24_4 H 0.255392 0.913933 0.880196
Zn1 Zn 0.96800(12) 0.23786(9) 0.9998(4)
O11_2 O 0.9253(8) 0.2018(6) 0.862(3)
O12_2 O 0.9790(9) 0.1991(6) 0.644(3)
C21_4 C 0.7610(5) 0.0279(5) 0.0267(19)
C23_4 C 0.7937(6) 0.0969(3) 0.110(2)
C24_4 C 0.8191(5) 0.0784(5) 0.2572(19)
C25_4 C 0.8155(5) 0.0346(5) 0.2888(17)
C26_4 C 0.7864(6) 0.0094(3) 0.174(2)
C34_4 C 0.9371(13) 0.1890(9) 0.723(5)
C48_4 C 0.9140(6) 0.1617(5) 0.412(3)
C49_4 C 0.8861(9) 0.1337(8) 0.3049(19)
C50_4 C 0.8530(7) 0.1058(5) 0.389(3)
C51_4 C 0.8477(6) 0.1058(5) 0.580(3)
C52_4 C 0.8757(8) 0.1337(7) 0.6874(19)
C53_4 C 0.9088(6) 0.1617(5) 0.603(3)
H8_4 H 0.670915 0.0175872 0.171477
H12_4 H 0.835512 0.0201003 0.403581
H27_4 H 0.796619 0.131153 0.0848678
H30_4 H 0.93992 0.183621 0.346097
H33_4 H 0.890202 0.133647 0.155077
H34_4 H 0.871726 0.133631 0.837271
H35_4 H 0.821637 0.0839697 0.645678
O15_2 O 0.9865(7) 0.8059(5) 0.096(2)
C27_4 C 0.7298(9) 0.9952(6) 0.901(3)
C35_4 C 0.7667(6) 0.9702(4) 0.7667(19)
C36_4 C 0.8178(6) 0.9707(4) 0.7915(16)
C37_4 C 0.8482(4) 0.9477(5) 0.672(2)
C38_4 C 0.8275(6) 0.9243(4) 0.5282(18)
C39_4 C 0.7764(6) 0.9238(4) 0.5034(16)
C40_4 C 0.7460(4) 0.9468(5) 0.623(2)
C41_4 C 0.8752(7) 0.8697(5) 0.0876(16)
C42_4 C 0.8454(5) 0.8940(5) 0.204(3)
C43_4 C 0.8595(6) 0.9007(4) 0.387(2)
C44_4 C 0.9033(7) 0.8830(5) 0.4529(16)
C45_4 C 0.9331(5) 0.8587(4) 0.336(3)
C46_4 C 0.9190(6) 0.8520(4) 0.154(2)
C47_4 C 0.9566(11) 0.8232(9) 0.021(4)
H14_4 H 0.834006 0.989065 0.904281
H17_4 H 0.76019 0.905445 0.390597
H23_4 H 0.726456 0.905094 0.899902
H28_4 H 0.888224 0.948052 0.691257
H29_4 H 0.705974 0.946435 0.603824
H31_4 H 0.811046 0.907791 0.152127
H32_4 H 0.967506 0.844951 0.3876
H36_4 H 0.914328 0.888136 0.59606
O2_3 O 0.4532(7) 0.8065(5) 0.887(2)
H2_3 H 0.384676 0.857503 0.952824
O2_4 O 0.5468(7) 0.1935(5) 0.887(2)
H2_4 H 0.615324 0.142497 0.952824
loop_
_geom_bond_atom_site_label_1
_geom_bond_atom_site_label_2
_geom_bond_site_symmetry_1
_geom_bond_site_symmetry_2
O11 Zn5 1_555 1_555
O11 C34 1_555 1_555
O7 C34 1_555 1_555
C23 C24 1_555 1_555
C24 C25 1_555 1_555
C25 C26 1_555 1_555
C26 C21 1_555 1_555
C34 C53 1_555 1_555
C48 C49 1_555 1_555
C49 C50 1_555 1_555
C50 C24 1_555 1_555
C51 C50 1_555 1_555
C52 C51 1_555 1_555
C53 C48 1_555 1_555
C52 C53 1_555 1_555
C25 H12 1_555 1_555
C23 H27 1_555 1_555
C48 H30 1_555 1_555
C49 H33 1_555 1_555
C52 H34 1_555 1_555
C51 H35 1_555 1_555
C35 C27 1_555 1_555
C36 C35 1_555 1_555
C37 C36 1_555 1_555
C38 C37 1_555 1_555
C39 C38 1_555 1_555
C40 C35 1_555 1_555
O15 C47 1_555 1_555
C41 C42 1_555 1_555
C42 C43 1_555 1_555
C43 C38 1_555 1_555
C44 C43 1_555 1_555
C45 C44 1_555 1_555
C46 C41 1_555 1_555
C47 C46 1_555 1_555
C39 C40 1_555 1_555
C45 C46 1_555 1_555
C36 H14 1_555 1_555
C39 H17 1_555 1_555
C37 H28 1_555 1_555
C40 H29 1_555 1_555
C42 H31 1_555 1_555
C45 H32 1_555 1_555
C44 H36 1_555 1_555
C1 C2 1_555 1_555
C2 C3 1_555 1_555
C3 C4 1_555 1_555
C4 C5 1_555 1_555
C5 C6 1_555 1_555
C6 C1 1_555 1_555
C7 C2 1_555 1_555
O14 C7 1_555 1_555
C28 C27_2 1_555 1_555
C29 C28 1_555 1_555
C30 C29 1_555 1_555
C31 C5 1_555 1_555
C32 C31 1_555 1_555
C33 C28 1_555 1_555
C35_2 C27_2 1_555 1_555
C36_2 C35_2 1_555 1_555
C37_2 C36_2 1_555 1_555
C38_2 C37_2 1_555 1_555
C39_2 C38_2 1_555 1_555
C40_2 C35_2 1_555 1_555
O10 C47_2 1_555 1_555
C41_2 C42_2 1_555 1_555
C42_2 C43_2 1_555 1_555
C43_2 C38_2 1_555 1_555
C44_2 C43_2 1_555 1_555
C45_2 C44_2 1_555 1_555
C46_2 C41_2 1_555 1_555
C47_2 C46_2 1_555 1_555
Zn7 O14 1_555 1_555
C30 C31 1_555 1_555
C32 C33 1_555 1_555
C39_2 C40_2 1_555 1_555
C45_2 C46_2 1_555 1_555
C6 H1 1_555 1_555
C1 H3 1_555 1_555
C4 H10 1_555 1_555
C32 H13 1_555 1_555
C36_2 H14_2 1_555 1_555
C29 H16 1_555 1_555
C39_2 H17_2 1_555 1_555
C33 H21 1_555 1_555
C30 H22 1_555 1_555
C22 H24 1_555 1_555
C37_2 H28_2 1_555 1_555
C40_2 H29_2 1_555 1_555
C42_2 H31_2 1_555 1_555
C45_2 H32_2 1_555 1_555
C44_2 H36_2 1_555 1_555
Zn7 O1 1_555 1_555
O3 Zn7 1_555 1_555
O8 Zn7 1_555 1_555
O8 H4 1_555 1_555
O8 H5 1_555 1_555
O3 H6 1_555 1_555
O3 H7 1_555 1_555
O4 C20 1_555 1_555
C8 C9 1_555 1_555
C9 C10 1_555 1_555
C10 C11 1_555 1_555
C11 C12 1_555 1_555
C12 C13 1_555 1_555
C13 C8 1_555 1_555
C14 C11 1_555 1_555
C15 C14 1_555 1_555
C16 C15 1_555 1_555
C17 C16 1_555 1_555
C18 C17 1_555 1_555
C19 C14 1_555 1_555
C20 O5 1_555 1_555
C17 C20 1_555 1_555
C18 C19 1_555 1_555
C10 H9 1_555 1_555
C18 H18 1_555 1_555
C16 H19 1_555 1_555
C19 H20 1_555 1_555
C12 H25 1_555 1_555
C15 H26 1_555 1_555
Zn2 O1_2 1_555 1_555
O3_2 Zn2 1_555 1_555
O8_2 Zn2 1_555 1_555
O12 Zn2 1_555 1_555
O13 Zn2 1_555 1_555
Zn3 O13 1_555 1_555
O8_2 H4_2 1_555 1_555
O8_2 H5_2 1_555 1_555
O3_2 H6_2 1_555 1_555
O3_2 H7_2 1_555 1_555
O4_2 C20_2 1_555 1_555
O6 C34_2 1_555 1_555
O12 C34_2 1_555 1_555
C8_2 C9_2 1_555 1_555
C9_2 C10_2 1_555 1_555
C10_2 C11_2 1_555 1_555
C11_2 C12_2 1_555 1_555
C12_2 C13_2 1_555 1_555
C13_2 C8_2 1_555 1_555
C14_2 C11_2 1_555 1_555
C15_2 C14_2 1_555 1_555
C16_2 C15_2 1_555 1_555
C17_2 C16_2 1_555 1_555
C18_2 C17_2 1_555 1_555
C19_2 C14_2 1_555 1_555
C20_2 O5_2 1_555 1_555
C23_2 C24_2 1_555 1_555
C24_2 C25_2 1_555 1_555
C25_2 C26_2 1_555 1_555
C26_2 C21_2 1_555 1_555
C34_2 C53_2 1_555 1_555
C48_2 C49_2 1_555 1_555
C49_2 C50_2 1_555 1_555
C50_2 C24_2 1_555 1_555
C51_2 C50_2 1_555 1_555
C52_2 C51_2 1_555 1_555
C53_2 C48_2 1_555 1_555
Zn3 O6 1_555 1_555
C17_2 C20_2 1_555 1_555
C18_2 C19_2 1_555 1_555
C52_2 C53_2 1_555 1_555
C9_2 H8_2 1_555 1_555
C10_2 H9_2 1_555 1_555
C25_2 H12_2 1_555 1_555
C26_2 H15_2 1_555 1_555
C18_2 H18_2 1_555 1_555
C16_2 H19_2 1_555 1_555
C19_2 H20_2 1_555 1_555
C12_2 H25_2 1_555 1_555
C15_2 H26_2 1_555 1_555
C23_2 H27_2 1_555 1_555
C48_2 H30_2 1_555 1_555
C49_2 H33_2 1_555 1_555
C52_2 H34_2 1_555 1_555
C51_2 H35_2 1_555 1_555
C1_2 C2_2 1_555 1_555
C2_2 C3_2 1_555 1_555
C3_2 C4_2 1_555 1_555
C4_2 C5_2 1_555 1_555
C5_2 C6_2 1_555 1_555
C6_2 C1_2 1_555 1_555
C7_2 C2_2 1_555 1_555
O13 C7_2 1_555 1_555
C29_2 C28_2 1_555 1_555
C30_2 C29_2 1_555 1_555
C31_2 C5_2 1_555 1_555
C32_2 C31_2 1_555 1_555
C33_2 C28_2 1_555 1_555
C30_2 C31_2 1_555 1_555
C32_2 C33_2 1_555 1_555
C6_2 H1_2 1_555 1_555
C1_2 H3_2 1_555 1_555
C4_2 H10_2 1_555 1_555
C32_2 H13_2 1_555 1_555
C29_2 H16_2 1_555 1_555
C33_2 H21_2 1_555 1_555
C30_2 H22_2 1_555 1_555
C22_2 H24_2 1_555 1_555
C1_3 C2_3 1_555 1_555
C2_3 C3_3 1_555 1_555
C3_3 C4_3 1_555 1_555
C4_3 C5_3 1_555 1_555
C5_3 C6_3 1_555 1_555
C6_3 C1_3 1_555 1_555
C7_3 C2_3 1_555 1_555
O9 C7_3 1_555 1_555
C28_3 C27_3 1_555 1_555
C29_3 C28_3 1_555 1_555
C30_3 C29_3 1_555 1_555
C31_3 C5_3 1_555 1_555
C32_3 C31_3 1_555 1_555
C33_3 C28_3 1_555 1_555
C35_3 C27_3 1_555 1_555
C36_3 C35_3 1_555 1_555
C37_3 C36_3 1_555 1_555
C38_3 C37_3 1_555 1_555
C39_3 C38_3 1_555 1_555
C40_3 C35_3 1_555 1_555
O10_2 C47_3 1_555 1_555
C41_3 C42_3 1_555 1_555
C42_3 C43_3 1_555 1_555
C43_3 C38_3 1_555 1_555
C44_3 C43_3 1_555 1_555
C45_3 C44_3 1_555 1_555
C46_3 C41_3 1_555 1_555
C47_3 C46_3 1_555 1_555
Zn7_2 O9 1_555 1_555
C30_3 C31_3 1_555 1_555
C32_3 C33_3 1_555 1_555
C39_3 C40_3 1_555 1_555
C45_3 C46_3 1_555 1_555
C6_3 H1_3 1_555 1_555
C1_3 H3_3 1_555 1_555
C4_3 H10_3 1_555 1_555
C32_3 H13_3 1_555 1_555
C36_3 H14_3 1_555 1_555
C29_3 H16_3 1_555 1_555
C39_3 H17_3 1_555 1_555
C33_3 H21_3 1_555 1_555
C30_3 H22_3 1_555 1_555
C22_3 H24_3 1_555 1_555
C37_3 H28_3 1_555 1_555
C40_3 H29_3 1_555 1_555
C42_3 H31_3 1_555 1_555
C45_3 H32_3 1_555 1_555
C44_3 H36_3 1_555 1_555
O4_3 C20_3 1_555 1_555
C8_3 C9_3 1_555 1_555
C9_3 C10_3 1_555 1_555
C10_3 C11_3 1_555 1_555
C11_3 C12_3 1_555 1_555
C12_3 C13_3 1_555 1_555
C13_3 C8_3 1_555 1_555
C14_3 C11_3 1_555 1_555
C15_3 C14_3 1_555 1_555
C16_3 C15_3 1_555 1_555
C17_3 C16_3 1_555 1_555
C18_3 C17_3 1_555 1_555
C19_3 C14_3 1_555 1_555
C20_3 O5_3 1_555 1_555
C17_3 C20_3 1_555 1_555
C18_3 C19_3 1_555 1_555
C10_3 H9_3 1_555 1_555
C18_3 H18_3 1_555 1_555
C16_3 H19_3 1_555 1_555
C19_3 H20_3 1_555 1_555
C12_3 H25_3 1_555 1_555
C15_3 H26_3 1_555 1_555
Zn7_2 O1_3 1_555 1_555
O3_3 Zn7_2 1_555 1_555
O8_3 Zn7_2 1_555 1_555
O8_3 H4_3 1_555 1_555
O8_3 H5_3 1_555 1_555
O3_3 H6_3 1_555 1_555
O3_3 H7_3 1_555 1_555
O4_4 C20_4 1_555 1_555
O6_2 C34_3 1_555 1_555
O7_2 C34_3 1_555 1_555
C8_4 C9_4 1_555 1_555
C9_4 C10_4 1_555 1_555
C10_4 C11_4 1_555 1_555
C11_4 C12_4 1_555 1_555
C12_4 C13_4 1_555 1_555
C13_4 C8_4 1_555 1_555
C14_4 C11_4 1_555 1_555
C15_4 C14_4 1_555 1_555
C16_4 C15_4 1_555 1_555
C17_4 C16_4 1_555 1_555
C18_4 C17_4 1_555 1_555
C19_4 C14_4 1_555 1_555
C20_4 O5_4 1_555 1_555
C23_3 C24_3 1_555 1_555
C24_3 C25_3 1_555 1_555
C25_3 C26_3 1_555 1_555
C26_3 C21_3 1_555 1_555
C34_3 C53_3 1_555 1_555
C48_3 C49_3 1_555 1_555
C49_3 C50_3 1_555 1_555
C50_3 C24_3 1_555 1_555
C51_3 C50_3 1_555 1_555
C52_3 C51_3 1_555 1_555
C53_3 C48_3 1_555 1_555
Zn4 O6_2 1_555 1_555
Zn6 O7_2 1_555 1_555
C17_4 C20_4 1_555 1_555
C18_4 C19_4 1_555 1_555
C52_3 C53_3 1_555 1_555
C9_4 H8_3 1_555 1_555
C10_4 H9_4 1_555 1_555
C25_3 H12_3 1_555 1_555
C26_3 H15_4 1_555 1_555
C18_4 H18_4 1_555 1_555
C16_4 H19_4 1_555 1_555
C19_4 H20_4 1_555 1_555
C12_4 H25_4 1_555 1_555
C15_4 H26_4 1_555 1_555
C23_3 H27_3 1_555 1_555
C48_3 H30_3 1_555 1_555
C49_3 H33_3 1_555 1_555
C52_3 H34_3 1_555 1_555
C51_3 H35_3 1_555 1_555
Zn6 O1_4 1_555 1_555
O3_4 Zn6 1_555 1_555
O8_4 Zn6 1_555 1_555
O13_2 Zn6 1_555 1_555
Zn4 O13_2 1_555 1_555
O8_4 H4_4 1_555 1_555
O8_4 H5_4 1_555 1_555
O3_4 H6_4 1_555 1_555
O3_4 H7_4 1_555 1_555
C1_4 C2_4 1_555 1_555
C2_4 C3_4 1_555 1_555
C3_4 C4_4 1_555 1_555
C4_4 C5_4 1_555 1_555
C5_4 C6_4 1_555 1_555
C6_4 C1_4 1_555 1_555
C7_4 C2_4 1_555 1_555
O13_2 C7_4 1_555 1_555
C29_4 C28_4 1_555 1_555
C30_4 C29_4 1_555 1_555
C31_4 C5_4 1_555 1_555
C32_4 C31_4 1_555 1_555
C33_4 C28_4 1_555 1_555
C30_4 C31_4 1_555 1_555
C32_4 C33_4 1_555 1_555
C6_4 H1_4 1_555 1_555
C1_4 H3_4 1_555 1_555
C4_4 H10_4 1_555 1_555
C32_4 H13_4 1_555 1_555
C29_4 H16_4 1_555 1_555
C33_4 H21_4 1_555 1_555
C30_4 H22_4 1_555 1_555
C22_4 H24_4 1_555 1_555
O11_2 Zn1 1_555 1_555
O11_2 C34_4 1_555 1_555
O12_2 C34_4 1_555 1_555
C23_4 C24_4 1_555 1_555
C24_4 C25_4 1_555 1_555
C25_4 C26_4 1_555 1_555
C26_4 C21_4 1_555 1_555
C34_4 C53_4 1_555 1_555
C48_4 C49_4 1_555 1_555
C49_4 C50_4 1_555 1_555
C50_4 C24_4 1_555 1_555
C51_4 C50_4 1_555 1_555
C52_4 C51_4 1_555 1_555
C53_4 C48_4 1_555 1_555
C52_4 C53_4 1_555 1_555
C25_4 H12_4 1_555 1_555
C23_4 H27_4 1_555 1_555
C48_4 H30_4 1_555 1_555
C49_4 H33_4 1_555 1_555
C52_4 H34_4 1_555 1_555
C51_4 H35_4 1_555 1_555
C35_4 C27_4 1_555 1_555
C36_4 C35_4 1_555 1_555
C37_4 C36_4 1_555 1_555
C38_4 C37_4 1_555 1_555
C39_4 C38_4 1_555 1_555
C40_4 C35_4 1_555 1_555
O15_2 C47_4 1_555 1_555
C41_4 C42_4 1_555 1_555
C42_4 C43_4 1_555 1_555
C43_4 C38_4 1_555 1_555
C44_4 C43_4 1_555 1_555
C45_4 C44_4 1_555 1_555
C46_4 C41_4 1_555 1_555
C47_4 C46_4 1_555 1_555
C39_4 C40_4 1_555 1_555
C45_4 C46_4 1_555 1_555
C36_4 H14_4 1_555 1_555
C39_4 H17_4 1_555 1_555
C37_4 H28_4 1_555 1_555
C40_4 H29_4 1_555 1_555
C42_4 H31_4 1_555 1_555
C45_4 H32_4 1_555 1_555
C44_4 H36_4 1_555 1_555

#END
