
###############################################################################
#
# This file contains modified crystal structure data generated from the
# MOF subset of the Cambridge Structural Database (CSD) v543 
# hosted by the Cambridge Crystallographic Data Centre (CCDC).
#
# This work is licensed under the Creative Commons
# Attribution-NonCommercial-ShareAlike 4.0 International License.
# To view a copy of this license, visit
# http://creativecommons.org/licenses/by-nc-sa/4.0/
# or send a letter to
# Creative Commons, PO Box 1866, Mountain View, CA 94042, USA.
#
# CIF created using the CSD Python API on 29 September 2022
# The structure has been converted into the P1 space group
# The structure has a 3D framework
# The original CSD entry MAWFEY is in the tetragonal crystal system
# The framework has been calculated to contain at least 10.0% void space
# The void calculation uses a probe of radius 1.32A, grid spacing 0.4
# The framework is charged, counterions have been retained in the structure
#
###############################################################################

data_MAWFEY
_chemical_formula_moiety         '(C1152 H1984 Mo192 N80 O704 P16 Zn64)n'
_symmetry_cell_setting           triclinic
_symmetry_space_group_name_H-M   'P 1'
_symmetry_Int_Tables_number      1
_space_group_name_Hall           'P 1'
loop_
_symmetry_equiv_pos_site_id
_symmetry_equiv_pos_as_xyz
1 x,y,z
_cell_length_a                   29.4436(11)
_cell_length_b                   29.4436(11)
_cell_length_c                   54.543(4)
_cell_angle_alpha                90
_cell_angle_beta                 90
_cell_angle_gamma                90
_cell_volume                     47284.7
loop_
_atom_site_label
_atom_site_type_symbol
_atom_site_fract_x
_atom_site_fract_y
_atom_site_fract_z
N2 N 0.1827(3) 0.3950(3) 0.32045(17)
C13 C 0.0274(5) 0.3769(5) 0.2219(2)
C14 C 0.0459(5) 0.4168(5) 0.2278(3)
H9 H 0.0372 0.4429 0.2194
C16 C 0.1180(4) 0.3884(5) 0.2828(2)
C17 C 0.0794(5) 0.4197(5) 0.2473(3)
H10 H 0.0966 0.4460 0.2491
C18 C 0.0858(5) 0.3838(5) 0.2629(3)
C19 C 0.1494(6) 0.4219(6) 0.2834(3)
H11 H 0.1495 0.4435 0.2709
C20 C 0.1833(6) 0.4253(6) 0.3031(3)
H12 H 0.2048 0.4485 0.3031
C21 C 0.0345(7) 0.3415(8) 0.2374(4)
H13 H 0.0208 0.3136 0.2343
C22 C 0.1162(7) 0.3660(7) 0.3025(4)
H14 H 0.0916 0.3468 0.3050
C23 C 0.1515(7) 0.3688(7) 0.3216(4)
H15 H 0.1495 0.3496 0.3351
C24 C 0.0633(7) 0.3472(8) 0.2586(4)
H16 H 0.0658 0.3232 0.2697
Zn5 Zn 0.23562(4) 0.39920(4) 0.34252(2)
O1 O 0.8007(2) 0.4106(2) 0.10722(10)
O2 O 0.8864(2) 0.4090(2) 0.10965(10)
O3 O 0.8484(2) 0.4629(2) 0.06917(12)
O4 O 0.8475(2) 0.3682(2) 0.06551(11)
O5 O 0.9385(2) 0.4651(2) 0.14589(11)
O6 O 0.7918(2) 0.5107(2) 0.10853(12)
O7 O 0.9017(2) 0.5099(2) 0.11461(12)
O8 O 0.8948(3) 0.3112(2) 0.10490(12)
O9 O 0.8816(2) 0.4920(2) 0.18125(11)
O10 O 0.7578(2) 0.4609(3) 0.07188(11)
O11 O 0.8395(2) 0.5420(2) 0.14593(13)
O12 O 0.9289(3) 0.5599(3) 0.15762(14)
O13 O 0.9791(2) 0.4101(3) 0.11300(13)
O14 O 0.8408(3) 0.2629(3) 0.06067(16)
O15 O 0.7441(3) 0.5565(3) 0.14837(15)
O16 O 0.9365(2) 0.4602(3) 0.07796(12)
O17 O 0.7962(3) 0.4215(3) 0.03024(12)
O18 O 0.9069(3) 0.4183(3) 0.03353(13)
O19 O 0.9370(2) 0.3667(3) 0.07359(12)
O20 O 0.9979(3) 0.5022(3) 0.10851(15)
O21 O 0.9926(3) 0.3161(3) 0.10584(16)
C1 C 0.8731(5) 0.2226(5) 0.0281(2)
C2 C 0.8332(5) 0.2041(5) 0.0222(3)
H1 H 0.8071 0.2128 0.0306
O22 O 0.9070(5) 0.2869(5) 0.0485(3)
C3 C 0.8755(5) 0.2567(5) 0.0483(3)
C5 C 0.8303(5) 0.1706(5) 0.0027(3)
H2 H 0.8040 0.1534 0.0009
C9 C 0.9085(8) 0.2155(7) 0.0126(4)
H5 H 0.9364 0.2292 0.0157
Mo1 Mo 0.80364(3) 0.41714(3) 0.060310(14)
Mo2 Mo 0.77817(3) 0.51159(3) 0.143963(15)
Mo3 Mo 0.89314(3) 0.41548(3) 0.062915(14)
Mo4 Mo 0.94774(3) 0.35011(4) 0.109268(17)
Mo5 Mo 0.95346(3) 0.46646(3) 0.109604(16)
Mo6 Mo 0.89442(3) 0.51558(3) 0.151261(15)
Zn1 Zn 0.83976(4) 0.31166(4) 0.08474(2)
Zn2 Zn 0.85080(4) 0.51438(4) 0.09252(2)
P1 P 0.84180(7) 0.40820(7) 0.1250
O23 O 0.8394(2) 0.4493(2) 0.14278(10)
O24 O 0.8410(2) 0.3636(2) 0.14035(10)
O25 O 0.7871(2) 0.4016(2) 0.18083(12)
O26 O 0.8818(2) 0.4025(2) 0.18449(11)
O27 O 0.7849(2) 0.3115(2) 0.10411(11)
O28 O 0.7393(2) 0.4582(2) 0.14147(12)
O29 O 0.7401(2) 0.3483(2) 0.13539(12)
O30 O 0.9388(2) 0.3552(3) 0.14510(12)
O31 O 0.7580(2) 0.3684(2) 0.06875(11)
O32 O 0.7891(3) 0.4922(2) 0.17812(11)
O33 O 0.7080(2) 0.4105(2) 0.10407(13)
O34 O 0.6901(3) 0.3211(3) 0.09238(14)
O35 O 0.8399(3) 0.2709(2) 0.13700(13)
O36 O 0.9871(3) 0.4092(3) 0.18933(16)
O37 O 0.6935(3) 0.5059(3) 0.10163(15)
O38 O 0.7898(3) 0.3135(2) 0.17204(12)
O39 O 0.8285(3) 0.4538(3) 0.21976(12)
O40 O 0.8317(3) 0.3431(3) 0.21647(13)
O41 O 0.8833(3) 0.3130(2) 0.17641(12)
O42 O 0.7478(3) 0.2521(3) 0.14149(15)
O43 O 0.9339(3) 0.2574(3) 0.14416(16)
O44 O 0.9631(5) 0.3430(5) 0.2015(3)
C15 C 0.9933(5) 0.3745(5) 0.2017(3)
Mo7 Mo 0.83286(3) 0.44636(3) 0.189690(14)
Mo8 Mo 0.73841(3) 0.47183(3) 0.106037(15)
Mo9 Mo 0.83452(3) 0.35686(3) 0.187085(14)
Mo10 Mo 0.89989(4) 0.30226(3) 0.140732(17)
Mo11 Mo 0.78354(3) 0.29654(3) 0.140396(16)
Mo12 Mo 0.73442(3) 0.35558(3) 0.098739(15)
Zn3 Zn 0.93834(4) 0.41024(4) 0.16526(2)
Zn4 Zn 0.73562(4) 0.39920(4) 0.15748(2)
N3 N 0.6827(3) 0.3950(3) 0.17955(17)
N4 N 0.8550(3) 0.5673(3) 0.07045(17)
O6_2 O 0.2918(2) 0.0107(2) 0.60853(12)
O7_2 O 0.4017(2) 0.0099(2) 0.61461(12)
O11_2 O 0.3395(2) 0.0420(2) 0.64593(13)
O12_2 O 0.4289(3) 0.0599(3) 0.65762(14)
O15_2 O 0.2441(3) 0.0565(3) 0.64837(15)
O20_2 O 0.4979(3) 0.0022(3) 0.60851(15)
Mo2_2 Mo 0.27817(3) 0.01159(3) 0.643963(15)
Mo6_2 Mo 0.39442(3) 0.01558(3) 0.651261(15)
Zn2_2 Zn 0.35080(4) 0.01438(4) 0.59252(2)
O37_2 O 0.1935(3) 0.0059(3) 0.60163(15)
N4_2 N 0.3550(3) 0.0673(3) 0.57045(17)
O1_2 O 0.3007(2) 0.9106(2) 0.60722(10)
O2_2 O 0.3864(2) 0.9090(2) 0.60965(10)
O3_2 O 0.3484(2) 0.9629(2) 0.56917(12)
O4_2 O 0.3475(2) 0.8682(2) 0.56551(11)
O5_2 O 0.4385(2) 0.9651(2) 0.64589(11)
O8_2 O 0.3948(3) 0.8112(2) 0.60490(12)
O9_2 O 0.3816(2) 0.9920(2) 0.68125(11)
O10_2 O 0.2578(2) 0.9609(3) 0.57188(11)
O13_2 O 0.4791(2) 0.9101(3) 0.61300(13)
O14_2 O 0.3408(3) 0.7629(3) 0.56067(16)
O16_2 O 0.4365(2) 0.9602(3) 0.57796(12)
O17_2 O 0.2962(3) 0.9215(3) 0.53024(12)
O18_2 O 0.4069(3) 0.9183(3) 0.53353(13)
O19_2 O 0.4370(2) 0.8667(3) 0.57359(12)
N1 N 0.3550(3) 0.5673(3) 0.42955(17)
O21_2 O 0.4926(3) 0.8161(3) 0.60584(16)
C1_2 C 0.3731(5) 0.7226(5) 0.5281(2)
C2_2 C 0.3332(5) 0.7041(5) 0.5222(3)
H1_2 H 0.3071 0.7128 0.5306
O22_2 O 0.4070(5) 0.7869(5) 0.5485(3)
C3_2 C 0.3755(5) 0.7567(5) 0.5483(3)
C4 C 0.3616(5) 0.6320(4) 0.4672(2)
C5_2 C 0.3303(5) 0.6706(5) 0.5027(3)
H2_2 H 0.3040 0.6534 0.5009
C6 C 0.3662(5) 0.6642(5) 0.4871(3)
C7 C 0.3281(6) 0.6006(6) 0.4666(3)
H3 H 0.3065 0.6005 0.4791
C8 C 0.3247(6) 0.5667(6) 0.4469(3)
H4 H 0.3015 0.5452 0.4469
C9_2 C 0.4085(8) 0.7155(7) 0.5126(4)
H5_2 H 0.4364 0.7292 0.5157
C10 C 0.3840(7) 0.6338(7) 0.4475(4)
H6 H 0.4032 0.6584 0.4450
C11 C 0.3812(7) 0.5985(7) 0.4284(4)
H7 H 0.4004 0.6005 0.4149
C12 C 0.4028(8) 0.6867(7) 0.4914(4)
H8 H 0.4268 0.6842 0.4803
Mo1_2 Mo 0.30364(3) 0.91714(3) 0.560310(14)
Mo3_2 Mo 0.39314(3) 0.91548(3) 0.562915(14)
Mo4_2 Mo 0.44774(3) 0.85011(4) 0.609268(17)
Mo5_2 Mo 0.45346(3) 0.96646(3) 0.609604(16)
Zn1_2 Zn 0.33976(4) 0.81166(4) 0.58474(2)
P1_2 P 0.34180(7) 0.90820(7) 0.6250
O23_2 O 0.3394(2) 0.9493(2) 0.64278(10)
O24_2 O 0.3410(2) 0.8636(2) 0.64035(10)
O25_2 O 0.2871(2) 0.9016(2) 0.68083(12)
O26_2 O 0.3818(2) 0.9025(2) 0.68449(11)
O27_2 O 0.2849(2) 0.8115(2) 0.60411(11)
O28_2 O 0.2393(2) 0.9582(2) 0.64147(12)
O29_2 O 0.2401(2) 0.8483(2) 0.63539(12)
O30_2 O 0.4388(2) 0.8552(3) 0.64510(12)
O31_2 O 0.2580(2) 0.8684(2) 0.56875(11)
O32_2 O 0.2891(3) 0.9922(2) 0.67812(11)
O33_2 O 0.2080(2) 0.9105(2) 0.60407(13)
O34_2 O 0.1901(3) 0.8211(3) 0.59238(14)
O35_2 O 0.3399(3) 0.7709(2) 0.63700(13)
O36_2 O 0.4871(3) 0.9092(3) 0.68933(16)
O38_2 O 0.2898(3) 0.8135(2) 0.67204(12)
O39_2 O 0.3285(3) 0.9538(3) 0.71976(12)
O40_2 O 0.3317(3) 0.8431(3) 0.71647(13)
O41_2 O 0.3833(3) 0.8130(2) 0.67641(12)
N2_2 N 0.6827(3) 0.8950(3) 0.82045(17)
O42_2 O 0.2478(3) 0.7521(3) 0.64149(15)
O43_2 O 0.4339(3) 0.7574(3) 0.64416(16)
C13_2 C 0.5274(5) 0.8769(5) 0.7219(2)
C14_2 C 0.5459(5) 0.9168(5) 0.7278(3)
H9_2 H 0.5372 0.9429 0.7194
O44_2 O 0.4631(5) 0.8430(5) 0.7015(3)
C15_2 C 0.4933(5) 0.8745(5) 0.7017(3)
C16_2 C 0.6180(4) 0.8884(5) 0.7828(2)
C17_2 C 0.5794(5) 0.9197(5) 0.7473(3)
H10_2 H 0.5966 0.9460 0.7491
C18_2 C 0.5858(5) 0.8838(5) 0.7629(3)
C19_2 C 0.6494(6) 0.9219(6) 0.7834(3)
H11_2 H 0.6495 0.9435 0.7709
C20_2 C 0.6833(6) 0.9253(6) 0.8031(3)
H12_2 H 0.7048 0.9485 0.8031
C21_2 C 0.5345(7) 0.8415(8) 0.7374(4)
H13_2 H 0.5208 0.8136 0.7343
C22_2 C 0.6162(7) 0.8660(7) 0.8025(4)
H14_2 H 0.5916 0.8468 0.8050
C23_2 C 0.6515(7) 0.8688(7) 0.8216(4)
H15_2 H 0.6495 0.8496 0.8351
C24_2 C 0.5633(7) 0.8472(8) 0.7586(4)
H16_2 H 0.5658 0.8232 0.7697
Mo7_2 Mo 0.33286(3) 0.94636(3) 0.689690(14)
Mo8_2 Mo 0.23841(3) 0.97183(3) 0.606037(15)
Mo9_2 Mo 0.33452(3) 0.85686(3) 0.687085(14)
Mo10_2 Mo 0.39989(4) 0.80226(3) 0.640732(17)
Mo11_2 Mo 0.28354(3) 0.79654(3) 0.640396(16)
Mo12_2 Mo 0.23442(3) 0.85558(3) 0.598739(15)
Zn3_2 Zn 0.43834(4) 0.91024(4) 0.66526(2)
Zn4_2 Zn 0.23562(4) 0.89920(4) 0.65748(2)
N3_2 N 0.1827(3) 0.8950(3) 0.67955(17)
Zn5_2 Zn 0.73562(4) 0.89920(4) 0.84252(2)
Zn6 Zn 0.35080(4) 0.51438(4) 0.40748(2)
O1_3 O 0.3007(2) 0.4106(2) 0.39278(10)
O2_3 O 0.3864(2) 0.4090(2) 0.39035(10)
O3_3 O 0.3484(2) 0.4629(2) 0.43083(12)
O4_3 O 0.3475(2) 0.3682(2) 0.43449(11)
O5_3 O 0.4385(2) 0.4651(2) 0.35411(11)
O6_3 O 0.2918(2) 0.5107(2) 0.39147(12)
O7_3 O 0.4017(2) 0.5099(2) 0.38539(12)
O8_3 O 0.3948(3) 0.3112(2) 0.39510(12)
O9_3 O 0.3816(2) 0.4920(2) 0.31875(11)
O10_3 O 0.2578(2) 0.4609(3) 0.42812(11)
O11_3 O 0.3395(2) 0.5420(2) 0.35407(13)
O12_3 O 0.4289(3) 0.5599(3) 0.34238(14)
O13_3 O 0.4791(2) 0.4101(3) 0.38700(13)
O14_3 O 0.3408(3) 0.2629(3) 0.43933(16)
O15_3 O 0.2441(3) 0.5565(3) 0.35163(15)
O16_3 O 0.4365(2) 0.4602(3) 0.42204(12)
O17_3 O 0.2962(3) 0.4215(3) 0.46976(12)
O18_3 O 0.4069(3) 0.4183(3) 0.46647(13)
O19_3 O 0.4370(2) 0.3667(3) 0.42641(12)
O20_3 O 0.4979(3) 0.5022(3) 0.39149(15)
O21_3 O 0.4926(3) 0.3161(3) 0.39416(16)
C1_3 C 0.3731(5) 0.2226(5) 0.4719(2)
C2_3 C 0.3332(5) 0.2041(5) 0.4778(3)
H1_3 H 0.3071 0.2128 0.4694
O22_3 O 0.4070(5) 0.2869(5) 0.4515(3)
C3_3 C 0.3755(5) 0.2567(5) 0.4517(3)
C4_2 C 0.3616(5) 0.1320(4) 0.5328(2)
C5_3 C 0.3303(5) 0.1706(5) 0.4973(3)
H2_3 H 0.3040 0.1534 0.4991
C6_2 C 0.3662(5) 0.1642(5) 0.5129(3)
C7_2 C 0.3281(6) 0.1006(6) 0.5334(3)
H3_2 H 0.3065 0.1005 0.5209
C8_2 C 0.3247(6) 0.0667(6) 0.5531(3)
H4_2 H 0.3015 0.0452 0.5531
C9_3 C 0.4085(8) 0.2155(7) 0.4874(4)
H5_3 H 0.4364 0.2292 0.4843
C10_2 C 0.3840(7) 0.1338(7) 0.5525(4)
H6_2 H 0.4032 0.1584 0.5550
C11_2 C 0.3812(7) 0.0985(7) 0.5716(4)
H7_2 H 0.4004 0.1005 0.5851
C12_2 C 0.4028(8) 0.1867(7) 0.5086(4)
H8_2 H 0.4268 0.1842 0.5197
Mo1_3 Mo 0.30364(3) 0.41714(3) 0.439690(14)
Mo2_3 Mo 0.27817(3) 0.51159(3) 0.356037(15)
Mo3_3 Mo 0.39314(3) 0.41548(3) 0.437085(14)
Mo4_3 Mo 0.44774(3) 0.35011(4) 0.390732(17)
Mo5_3 Mo 0.45346(3) 0.46646(3) 0.390396(16)
Mo6_3 Mo 0.39442(3) 0.51558(3) 0.348739(15)
Zn1_3 Zn 0.33976(4) 0.31166(4) 0.41526(2)
P1_3 P 0.34180(7) 0.40820(7) 0.3750
O23_3 O 0.3394(2) 0.4493(2) 0.35722(10)
O24_3 O 0.3410(2) 0.3636(2) 0.35965(10)
O25_3 O 0.2871(2) 0.4016(2) 0.31917(12)
O26_3 O 0.3818(2) 0.4025(2) 0.31551(11)
O27_3 O 0.2849(2) 0.3115(2) 0.39589(11)
O28_3 O 0.2393(2) 0.4582(2) 0.35853(12)
O29_3 O 0.2401(2) 0.3483(2) 0.36461(12)
O30_3 O 0.4388(2) 0.3552(3) 0.35490(12)
O31_3 O 0.2580(2) 0.3684(2) 0.43125(11)
O32_3 O 0.2891(3) 0.4922(2) 0.32188(11)
O33_3 O 0.2080(2) 0.4105(2) 0.39593(13)
O34_3 O 0.1901(3) 0.3211(3) 0.40762(14)
O35_3 O 0.3399(3) 0.2709(2) 0.36300(13)
O36_3 O 0.4871(3) 0.4092(3) 0.31067(16)
O37_3 O 0.1935(3) 0.5059(3) 0.39837(15)
O38_3 O 0.2898(3) 0.3135(2) 0.32796(12)
O39_3 O 0.3285(3) 0.4538(3) 0.28024(12)
O40_3 O 0.3317(3) 0.3431(3) 0.28353(13)
O41_3 O 0.3833(3) 0.3130(2) 0.32359(12)
O42_3 O 0.2478(3) 0.2521(3) 0.35851(15)
O43_3 O 0.4339(3) 0.2574(3) 0.35584(16)
C13_3 C 0.5274(5) 0.3769(5) 0.2781(2)
C14_3 C 0.5459(5) 0.4168(5) 0.2722(3)
H9_3 H 0.5372 0.4429 0.2806
O44_3 O 0.4631(5) 0.3430(5) 0.2985(3)
C15_3 C 0.4933(5) 0.3745(5) 0.2983(3)
C16_3 C 0.6180(4) 0.3884(5) 0.2172(2)
C17_3 C 0.5794(5) 0.4197(5) 0.2527(3)
H10_3 H 0.5966 0.4460 0.2509
C18_3 C 0.5858(5) 0.3838(5) 0.2371(3)
C19_3 C 0.6494(6) 0.4219(6) 0.2166(3)
H11_3 H 0.6495 0.4435 0.2291
C20_3 C 0.6833(6) 0.4253(6) 0.1969(3)
H12_3 H 0.7048 0.4485 0.1969
C21_3 C 0.5345(7) 0.3415(8) 0.2626(4)
H13_3 H 0.5208 0.3136 0.2657
C22_3 C 0.6162(7) 0.3660(7) 0.1975(4)
H14_3 H 0.5916 0.3468 0.1950
C23_3 C 0.6515(7) 0.3688(7) 0.1784(4)
H15_3 H 0.6495 0.3496 0.1649
C24_3 C 0.5633(7) 0.3472(8) 0.2414(4)
H16_3 H 0.5658 0.3232 0.2303
Mo7_3 Mo 0.33286(3) 0.44636(3) 0.310310(14)
Mo8_3 Mo 0.23841(3) 0.47183(3) 0.393963(15)
Mo9_3 Mo 0.33452(3) 0.35686(3) 0.312915(14)
Mo10_3 Mo 0.39989(4) 0.30226(3) 0.359268(17)
Mo11_3 Mo 0.28354(3) 0.29654(3) 0.359604(16)
Mo12_3 Mo 0.23442(3) 0.35558(3) 0.401261(15)
Zn3_3 Zn 0.43834(4) 0.41024(4) 0.33474(2)
C13_4 C 0.0274(5) 0.8769(5) 0.7781(2)
C14_4 C 0.0459(5) 0.9168(5) 0.7722(3)
H9_4 H 0.0372 0.9429 0.7806
C16_4 C 0.1180(4) 0.8884(5) 0.7172(2)
C17_4 C 0.0794(5) 0.9197(5) 0.7527(3)
H10_4 H 0.0966 0.9460 0.7509
C18_4 C 0.0858(5) 0.8838(5) 0.7371(3)
C19_4 C 0.1494(6) 0.9219(6) 0.7166(3)
H11_4 H 0.1495 0.9435 0.7291
C20_4 C 0.1833(6) 0.9253(6) 0.6969(3)
H12_4 H 0.2048 0.9485 0.6969
C21_4 C 0.0345(7) 0.8415(8) 0.7626(4)
H13_4 H 0.0208 0.8136 0.7657
C22_4 C 0.1162(7) 0.8660(7) 0.6975(4)
H14_4 H 0.0916 0.8468 0.6950
C23_4 C 0.1515(7) 0.8688(7) 0.6784(4)
H15_4 H 0.1495 0.8496 0.6649
C24_4 C 0.0633(7) 0.8472(8) 0.7414(4)
H16_4 H 0.0658 0.8232 0.7303
C4_3 C 0.8616(5) 0.6320(4) 0.0328(2)
C6_3 C 0.8662(5) 0.6642(5) 0.0129(3)
C7_3 C 0.8281(6) 0.6006(6) 0.0334(3)
H3_3 H 0.8065 0.6005 0.0209
C8_3 C 0.8247(6) 0.5667(6) 0.0531(3)
H4_3 H 0.8015 0.5452 0.0531
C10_3 C 0.8840(7) 0.6338(7) 0.0525(4)
H6_3 H 0.9032 0.6584 0.0550
C11_3 C 0.8812(7) 0.5985(7) 0.0716(4)
H7_3 H 0.9004 0.6005 0.0851
C12_3 C 0.9028(8) 0.6867(7) 0.0086(4)
H8_3 H 0.9268 0.6842 0.0197
O1_4 O 0.8007(2) 0.9106(2) 0.89278(10)
O2_4 O 0.8864(2) 0.9090(2) 0.89035(10)
O3_4 O 0.8484(2) 0.9629(2) 0.93083(12)
O4_4 O 0.8475(2) 0.8682(2) 0.93449(11)
O5_4 O 0.9385(2) 0.9651(2) 0.85411(11)
O8_4 O 0.8948(3) 0.8112(2) 0.89510(12)
O9_4 O 0.8816(2) 0.9920(2) 0.81875(11)
O10_4 O 0.7578(2) 0.9609(3) 0.92812(11)
O13_4 O 0.9791(2) 0.9101(3) 0.88700(13)
O14_4 O 0.8408(3) 0.7629(3) 0.93933(16)
O16_4 O 0.9365(2) 0.9602(3) 0.92204(12)
O17_4 O 0.7962(3) 0.9215(3) 0.96976(12)
O18_4 O 0.9069(3) 0.9183(3) 0.96647(13)
O19_4 O 0.9370(2) 0.8667(3) 0.92641(12)
O21_4 O 0.9926(3) 0.8161(3) 0.89416(16)
C1_4 C 0.8731(5) 0.7226(5) 0.9719(2)
C2_4 C 0.8332(5) 0.7041(5) 0.9778(3)
H1_4 H 0.8071 0.7128 0.9694
O22_4 O 0.9070(5) 0.7869(5) 0.9515(3)
C3_4 C 0.8755(5) 0.7567(5) 0.9517(3)
C5_4 C 0.8303(5) 0.6706(5) 0.9973(3)
H2_4 H 0.8040 0.6534 0.9991
C9_4 C 0.9085(8) 0.7155(7) 0.9874(4)
H5_4 H 0.9364 0.7292 0.9843
Mo1_4 Mo 0.80364(3) 0.91714(3) 0.939690(14)
Mo3_4 Mo 0.89314(3) 0.91548(3) 0.937085(14)
Mo4_4 Mo 0.94774(3) 0.85011(4) 0.890732(17)
Mo5_4 Mo 0.95346(3) 0.96646(3) 0.890396(16)
Zn1_4 Zn 0.83976(4) 0.81166(4) 0.91526(2)
P1_4 P 0.84180(7) 0.90820(7) 0.8750
O23_4 O 0.8394(2) 0.9493(2) 0.85722(10)
O24_4 O 0.8410(2) 0.8636(2) 0.85965(10)
O25_4 O 0.7871(2) 0.9016(2) 0.81917(12)
O26_4 O 0.8818(2) 0.9025(2) 0.81551(11)
O27_4 O 0.7849(2) 0.8115(2) 0.89589(11)
O28_4 O 0.7393(2) 0.9582(2) 0.85853(12)
O29_4 O 0.7401(2) 0.8483(2) 0.86461(12)
O30_4 O 0.9388(2) 0.8552(3) 0.85490(12)
O31_4 O 0.7580(2) 0.8684(2) 0.93125(11)
O32_4 O 0.7891(3) 0.9922(2) 0.82188(11)
O33_4 O 0.7080(2) 0.9105(2) 0.89593(13)
O34_4 O 0.6901(3) 0.8211(3) 0.90762(14)
O35_4 O 0.8399(3) 0.7709(2) 0.86300(13)
O36_4 O 0.9871(3) 0.9092(3) 0.81067(16)
O38_4 O 0.7898(3) 0.8135(2) 0.82796(12)
O39_4 O 0.8285(3) 0.9538(3) 0.78024(12)
O40_4 O 0.8317(3) 0.8431(3) 0.78353(13)
O41_4 O 0.8833(3) 0.8130(2) 0.82359(12)
O42_4 O 0.7478(3) 0.7521(3) 0.85851(15)
O43_4 O 0.9339(3) 0.7574(3) 0.85584(16)
O44_4 O 0.9631(5) 0.8430(5) 0.7985(3)
C15_4 C 0.9933(5) 0.8745(5) 0.7983(3)
Mo7_4 Mo 0.83286(3) 0.94636(3) 0.810310(14)
Mo8_4 Mo 0.73841(3) 0.97183(3) 0.893963(15)
Mo9_4 Mo 0.83452(3) 0.85686(3) 0.812915(14)
Mo10_4 Mo 0.89989(4) 0.80226(3) 0.859268(17)
Mo11_4 Mo 0.78354(3) 0.79654(3) 0.859604(16)
Mo12_4 Mo 0.73442(3) 0.85558(3) 0.901261(15)
Zn3_4 Zn 0.93834(4) 0.91024(4) 0.83474(2)
N1_2 N 0.8550(3) 0.0673(3) 0.92955(17)
C4_4 C 0.8616(5) 0.1320(4) 0.9672(2)
C6_4 C 0.8662(5) 0.1642(5) 0.9871(3)
C7_4 C 0.8281(6) 0.1006(6) 0.9666(3)
H3_4 H 0.8065 0.1005 0.9791
C8_4 C 0.8247(6) 0.0667(6) 0.9469(3)
H4_4 H 0.8015 0.0452 0.9469
C10_4 C 0.8840(7) 0.1338(7) 0.9475(4)
H6_4 H 0.9032 0.1584 0.9450
C11_4 C 0.8812(7) 0.0985(7) 0.9284(4)
H7_4 H 0.9004 0.1005 0.9149
C12_4 C 0.9028(8) 0.1867(7) 0.9914(4)
H8_4 H 0.9268 0.1842 0.9803
Zn6_2 Zn 0.85080(4) 0.01438(4) 0.90748(2)
O6_4 O 0.7918(2) 0.0107(2) 0.89147(12)
O7_4 O 0.9017(2) 0.0099(2) 0.88539(12)
O11_4 O 0.8395(2) 0.0420(2) 0.85407(13)
O12_4 O 0.9289(3) 0.0599(3) 0.84238(14)
O15_4 O 0.7441(3) 0.0565(3) 0.85163(15)
O20_4 O 0.9979(3) 0.0022(3) 0.89149(15)
Mo2_4 Mo 0.77817(3) 0.01159(3) 0.856037(15)
Mo6_4 Mo 0.89442(3) 0.01558(3) 0.848739(15)
O37_4 O 0.6935(3) 0.0059(3) 0.89837(15)
O1_5 O 0.6993(2) 0.5894(2) 0.60722(10)
O2_5 O 0.6136(2) 0.5910(2) 0.60965(10)
O3_5 O 0.6516(2) 0.5371(2) 0.56917(12)
O4_5 O 0.6525(2) 0.6318(2) 0.56551(11)
O5_5 O 0.5615(2) 0.5349(2) 0.64589(11)
O6_5 O 0.7082(2) 0.4893(2) 0.60853(12)
O7_5 O 0.5983(2) 0.4901(2) 0.61461(12)
O8_5 O 0.6052(3) 0.6888(2) 0.60490(12)
O9_5 O 0.6184(2) 0.5080(2) 0.68125(11)
O10_5 O 0.7422(2) 0.5391(3) 0.57188(11)
O11_5 O 0.6605(2) 0.4580(2) 0.64593(13)
O12_5 O 0.5711(3) 0.4401(3) 0.65762(14)
O13_5 O 0.5209(2) 0.5899(3) 0.61300(13)
O14_5 O 0.6592(3) 0.7371(3) 0.56067(16)
O15_5 O 0.7559(3) 0.4435(3) 0.64837(15)
O16_5 O 0.5635(2) 0.5398(3) 0.57796(12)
O17_5 O 0.7038(3) 0.5785(3) 0.53024(12)
O18_5 O 0.5931(3) 0.5817(3) 0.53353(13)
O19_5 O 0.5630(2) 0.6333(3) 0.57359(12)
N1_3 N 0.6450(3) 0.9327(3) 0.42955(17)
O20_5 O 0.5021(3) 0.4978(3) 0.60851(15)
O21_5 O 0.5074(3) 0.6839(3) 0.60584(16)
C1_5 C 0.6269(5) 0.7774(5) 0.5281(2)
C2_5 C 0.6668(5) 0.7959(5) 0.5222(3)
H1_5 H 0.6929 0.7872 0.5306
O22_5 O 0.5930(5) 0.7131(5) 0.5485(3)
C3_5 C 0.6245(5) 0.7433(5) 0.5483(3)
C4_5 C 0.6384(5) 0.8680(4) 0.4672(2)
C5_5 C 0.6697(5) 0.8294(5) 0.5027(3)
H2_5 H 0.6960 0.8466 0.5009
C6_5 C 0.6338(5) 0.8358(5) 0.4871(3)
C7_5 C 0.6719(6) 0.8994(6) 0.4666(3)
H3_5 H 0.6935 0.8995 0.4791
C8_5 C 0.6753(6) 0.9333(6) 0.4469(3)
H4_5 H 0.6985 0.9548 0.4469
C9_5 C 0.5915(8) 0.7845(7) 0.5126(4)
H5_5 H 0.5636 0.7708 0.5157
C10_5 C 0.6160(7) 0.8662(7) 0.4475(4)
H6_5 H 0.5968 0.8416 0.4450
C11_5 C 0.6188(7) 0.9015(7) 0.4284(4)
H7_5 H 0.5996 0.8995 0.4149
C12_5 C 0.5972(8) 0.8133(7) 0.4914(4)
H8_5 H 0.5732 0.8158 0.4803
Mo1_5 Mo 0.69636(3) 0.58286(3) 0.560310(14)
Mo2_5 Mo 0.72183(3) 0.48841(3) 0.643963(15)
Mo3_5 Mo 0.60686(3) 0.58452(3) 0.562915(14)
Mo4_5 Mo 0.55226(3) 0.64989(4) 0.609268(17)
Mo5_5 Mo 0.54654(3) 0.53354(3) 0.609604(16)
Mo6_5 Mo 0.60558(3) 0.48442(3) 0.651261(15)
Zn1_5 Zn 0.66024(4) 0.68834(4) 0.58474(2)
Zn2_3 Zn 0.64920(4) 0.48562(4) 0.59252(2)
P1_5 P 0.65820(7) 0.59180(7) 0.6250
O23_5 O 0.6606(2) 0.5507(2) 0.64278(10)
O24_5 O 0.6590(2) 0.6364(2) 0.64035(10)
O25_5 O 0.7129(2) 0.5984(2) 0.68083(12)
O26_5 O 0.6182(2) 0.5975(2) 0.68449(11)
O27_5 O 0.7151(2) 0.6885(2) 0.60411(11)
O28_5 O 0.7607(2) 0.5418(2) 0.64147(12)
O29_5 O 0.7599(2) 0.6517(2) 0.63539(12)
O30_5 O 0.5612(2) 0.6448(3) 0.64510(12)
O31_5 O 0.7420(2) 0.6316(2) 0.56875(11)
O32_5 O 0.7109(3) 0.5078(2) 0.67812(11)
O33_5 O 0.7920(2) 0.5895(2) 0.60407(13)
O34_5 O 0.8099(3) 0.6789(3) 0.59238(14)
O35_5 O 0.6601(3) 0.7291(2) 0.63700(13)
O36_5 O 0.5129(3) 0.5908(3) 0.68933(16)
O37_5 O 0.8065(3) 0.4941(3) 0.60163(15)
O38_5 O 0.7102(3) 0.6865(2) 0.67204(12)
O39_5 O 0.6715(3) 0.5462(3) 0.71976(12)
O40_5 O 0.6683(3) 0.6569(3) 0.71647(13)
O41_5 O 0.6167(3) 0.6870(2) 0.67641(12)
N2_3 N 0.3173(3) 0.6050(3) 0.82045(17)
O42_5 O 0.7522(3) 0.7479(3) 0.64149(15)
O43_5 O 0.5661(3) 0.7426(3) 0.64416(16)
C13_5 C 0.4726(5) 0.6231(5) 0.7219(2)
C14_5 C 0.4541(5) 0.5832(5) 0.7278(3)
H9_5 H 0.4628 0.5571 0.7194
O44_5 O 0.5369(5) 0.6570(5) 0.7015(3)
C15_5 C 0.5067(5) 0.6255(5) 0.7017(3)
C16_5 C 0.3820(4) 0.6116(5) 0.7828(2)
C17_5 C 0.4206(5) 0.5803(5) 0.7473(3)
H10_5 H 0.4034 0.5540 0.7491
C18_5 C 0.4142(5) 0.6162(5) 0.7629(3)
C19_5 C 0.3506(6) 0.5781(6) 0.7834(3)
H11_5 H 0.3505 0.5565 0.7709
C20_5 C 0.3167(6) 0.5747(6) 0.8031(3)
H12_5 H 0.2952 0.5515 0.8031
C21_5 C 0.4655(7) 0.6585(8) 0.7374(4)
H13_5 H 0.4792 0.6864 0.7343
C22_5 C 0.3838(7) 0.6340(7) 0.8025(4)
H14_5 H 0.4084 0.6532 0.8050
C23_5 C 0.3485(7) 0.6312(7) 0.8216(4)
H15_5 H 0.3505 0.6504 0.8351
C24_5 C 0.4367(7) 0.6528(8) 0.7586(4)
H16_5 H 0.4342 0.6768 0.7697
Mo7_5 Mo 0.66714(3) 0.55364(3) 0.689690(14)
Mo8_5 Mo 0.76159(3) 0.52817(3) 0.606037(15)
Mo9_5 Mo 0.66548(3) 0.64314(3) 0.687085(14)
Mo10_5 Mo 0.60011(4) 0.69774(3) 0.640732(17)
Mo11_5 Mo 0.71646(3) 0.70346(3) 0.640396(16)
Mo12_5 Mo 0.76558(3) 0.64442(3) 0.598739(15)
Zn3_5 Zn 0.56166(4) 0.58976(4) 0.66526(2)
Zn4_3 Zn 0.76438(4) 0.60080(4) 0.65748(2)
N3_3 N 0.8173(3) 0.6050(3) 0.67955(17)
N4_3 N 0.6450(3) 0.4327(3) 0.57045(17)
Zn5_3 Zn 0.26438(4) 0.60080(4) 0.84252(2)
Zn6_3 Zn 0.64920(4) 0.98562(4) 0.40748(2)
O1_6 O 0.1993(2) 0.0894(2) 0.10722(10)
O2_6 O 0.1136(2) 0.0910(2) 0.10965(10)
O3_6 O 0.1516(2) 0.0371(2) 0.06917(12)
O4_6 O 0.1525(2) 0.1318(2) 0.06551(11)
O5_6 O 0.0615(2) 0.0349(2) 0.14589(11)
O8_6 O 0.1052(3) 0.1888(2) 0.10490(12)
O9_6 O 0.1184(2) 0.0080(2) 0.18125(11)
O10_6 O 0.2422(2) 0.0391(3) 0.07188(11)
O13_6 O 0.0209(2) 0.0899(3) 0.11300(13)
O14_6 O 0.1592(3) 0.2371(3) 0.06067(16)
O16_6 O 0.0635(2) 0.0398(3) 0.07796(12)
O17_6 O 0.2038(3) 0.0785(3) 0.03024(12)
O18_6 O 0.0931(3) 0.0817(3) 0.03353(13)
O19_6 O 0.0630(2) 0.1333(3) 0.07359(12)
O21_6 O 0.0074(3) 0.1839(3) 0.10584(16)
C1_6 C 0.1269(5) 0.2774(5) 0.0281(2)
C2_6 C 0.1668(5) 0.2959(5) 0.0222(3)
H1_6 H 0.1929 0.2872 0.0306
O22_6 O 0.0930(5) 0.2131(5) 0.0485(3)
C3_6 C 0.1245(5) 0.2433(5) 0.0483(3)
C5_6 C 0.1697(5) 0.3294(5) 0.0027(3)
H2_6 H 0.1960 0.3466 0.0009
C9_6 C 0.0915(8) 0.2845(7) 0.0126(4)
H5_6 H 0.0636 0.2708 0.0157
Mo1_6 Mo 0.19636(3) 0.08286(3) 0.060310(14)
Mo3_6 Mo 0.10686(3) 0.08452(3) 0.062915(14)
Mo4_6 Mo 0.05226(3) 0.14989(4) 0.109268(17)
Mo5_6 Mo 0.04654(3) 0.03354(3) 0.109604(16)
Zn1_6 Zn 0.16024(4) 0.18834(4) 0.08474(2)
P1_6 P 0.15820(7) 0.09180(7) 0.1250
O23_6 O 0.1606(2) 0.0507(2) 0.14278(10)
O24_6 O 0.1590(2) 0.1364(2) 0.14035(10)
O25_6 O 0.2129(2) 0.0984(2) 0.18083(12)
O26_6 O 0.1182(2) 0.0975(2) 0.18449(11)
O27_6 O 0.2151(2) 0.1885(2) 0.10411(11)
O28_6 O 0.2607(2) 0.0418(2) 0.14147(12)
O29_6 O 0.2599(2) 0.1517(2) 0.13539(12)
O30_6 O 0.0612(2) 0.1448(3) 0.14510(12)
O31_6 O 0.2420(2) 0.1316(2) 0.06875(11)
O32_6 O 0.2109(3) 0.0078(2) 0.17812(11)
O33_6 O 0.2920(2) 0.0895(2) 0.10407(13)
O34_6 O 0.3099(3) 0.1789(3) 0.09238(14)
O35_6 O 0.1601(3) 0.2291(2) 0.13700(13)
O36_6 O 0.0129(3) 0.0908(3) 0.18933(16)
O38_6 O 0.2102(3) 0.1865(2) 0.17204(12)
O39_6 O 0.1715(3) 0.0462(3) 0.21976(12)
O40_6 O 0.1683(3) 0.1569(3) 0.21647(13)
O41_6 O 0.1167(3) 0.1870(2) 0.17641(12)
O42_6 O 0.2522(3) 0.2479(3) 0.14149(15)
O43_6 O 0.0661(3) 0.2426(3) 0.14416(16)
O44_6 O 0.0369(5) 0.1570(5) 0.2015(3)
C15_6 C 0.0067(5) 0.1255(5) 0.2017(3)
Mo7_6 Mo 0.16714(3) 0.05364(3) 0.189690(14)
Mo8_6 Mo 0.26159(3) 0.02817(3) 0.106037(15)
Mo9_6 Mo 0.16548(3) 0.14314(3) 0.187085(14)
Mo10_6 Mo 0.10011(4) 0.19774(3) 0.140732(17)
Mo11_6 Mo 0.21646(3) 0.20346(3) 0.140396(16)
Mo12_6 Mo 0.26558(3) 0.14442(3) 0.098739(15)
Zn3_6 Zn 0.06166(4) 0.08976(4) 0.16526(2)
Zn4_4 Zn 0.26438(4) 0.10080(4) 0.15748(2)
N3_4 N 0.3173(3) 0.1050(3) 0.17955(17)
N1_4 N 0.1450(3) 0.4327(3) 0.92955(17)
C4_6 C 0.1384(5) 0.3680(4) 0.9672(2)
C6_6 C 0.1338(5) 0.3358(5) 0.9871(3)
C7_6 C 0.1719(6) 0.3994(6) 0.9666(3)
H3_6 H 0.1935 0.3995 0.9791
C8_6 C 0.1753(6) 0.4333(6) 0.9469(3)
H4_6 H 0.1985 0.4548 0.9469
C10_6 C 0.1160(7) 0.3662(7) 0.9475(4)
H6_6 H 0.0968 0.3416 0.9450
C11_6 C 0.1188(7) 0.4015(7) 0.9284(4)
H7_6 H 0.0996 0.3995 0.9149
C12_6 C 0.0972(8) 0.3133(7) 0.9914(4)
H8_6 H 0.0732 0.3158 0.9803
Zn6_4 Zn 0.14920(4) 0.48562(4) 0.90748(2)
N2_4 N 0.8173(3) 0.1050(3) 0.32045(17)
C13_6 C 0.9726(5) 0.1231(5) 0.2219(2)
C14_6 C 0.9541(5) 0.0832(5) 0.2278(3)
H9_6 H 0.9628 0.0571 0.2194
C16_6 C 0.8820(4) 0.1116(5) 0.2828(2)
C17_6 C 0.9206(5) 0.0803(5) 0.2473(3)
H10_6 H 0.9034 0.0540 0.2491
C18_6 C 0.9142(5) 0.1162(5) 0.2629(3)
C19_6 C 0.8506(6) 0.0781(6) 0.2834(3)
H11_6 H 0.8505 0.0565 0.2709
C20_6 C 0.8167(6) 0.0747(6) 0.3031(3)
H12_6 H 0.7952 0.0515 0.3031
C21_6 C 0.9655(7) 0.1585(8) 0.2374(4)
H13_6 H 0.9792 0.1864 0.2343
C22_6 C 0.8838(7) 0.1340(7) 0.3025(4)
H14_6 H 0.9084 0.1532 0.3050
C23_6 C 0.8485(7) 0.1312(7) 0.3216(4)
H15_6 H 0.8505 0.1504 0.3351
C24_6 C 0.9367(7) 0.1528(8) 0.2586(4)
H16_6 H 0.9342 0.1768 0.2697
Zn5_4 Zn 0.76438(4) 0.10080(4) 0.34252(2)
O1_7 O 0.1993(2) 0.5894(2) 0.89278(10)
O2_7 O 0.1136(2) 0.5910(2) 0.89035(10)
O3_7 O 0.1516(2) 0.5371(2) 0.93083(12)
O4_7 O 0.1525(2) 0.6318(2) 0.93449(11)
O5_7 O 0.0615(2) 0.5349(2) 0.85411(11)
O6_6 O 0.2082(2) 0.4893(2) 0.89147(12)
O7_6 O 0.0983(2) 0.4901(2) 0.88539(12)
O8_7 O 0.1052(3) 0.6888(2) 0.89510(12)
O9_7 O 0.1184(2) 0.5080(2) 0.81875(11)
O10_7 O 0.2422(2) 0.5391(3) 0.92812(11)
O11_6 O 0.1605(2) 0.4580(2) 0.85407(13)
O12_6 O 0.0711(3) 0.4401(3) 0.84238(14)
O13_7 O 0.0209(2) 0.5899(3) 0.88700(13)
O14_7 O 0.1592(3) 0.7371(3) 0.93933(16)
O15_6 O 0.2559(3) 0.4435(3) 0.85163(15)
O16_7 O 0.0635(2) 0.5398(3) 0.92204(12)
O17_7 O 0.2038(3) 0.5785(3) 0.96976(12)
O18_7 O 0.0931(3) 0.5817(3) 0.96647(13)
O19_7 O 0.0630(2) 0.6333(3) 0.92641(12)
O20_6 O 0.0021(3) 0.4978(3) 0.89149(15)
O21_7 O 0.0074(3) 0.6839(3) 0.89416(16)
C1_7 C 0.1269(5) 0.7774(5) 0.9719(2)
C2_7 C 0.1668(5) 0.7959(5) 0.9778(3)
H1_7 H 0.1929 0.7872 0.9694
O22_7 O 0.0930(5) 0.7131(5) 0.9515(3)
C3_7 C 0.1245(5) 0.7433(5) 0.9517(3)
C5_7 C 0.1697(5) 0.8294(5) 0.9973(3)
H2_7 H 0.1960 0.8466 0.9991
C9_7 C 0.0915(8) 0.7845(7) 0.9874(4)
H5_7 H 0.0636 0.7708 0.9843
Mo1_7 Mo 0.19636(3) 0.58286(3) 0.939690(14)
Mo2_6 Mo 0.22183(3) 0.48841(3) 0.856037(15)
Mo3_7 Mo 0.10686(3) 0.58452(3) 0.937085(14)
Mo4_7 Mo 0.05226(3) 0.64989(4) 0.890732(17)
Mo5_7 Mo 0.04654(3) 0.53354(3) 0.890396(16)
Mo6_6 Mo 0.10558(3) 0.48442(3) 0.848739(15)
Zn1_7 Zn 0.16024(4) 0.68834(4) 0.91526(2)
P1_7 P 0.15820(7) 0.59180(7) 0.8750
O23_7 O 0.1606(2) 0.5507(2) 0.85722(10)
O24_7 O 0.1590(2) 0.6364(2) 0.85965(10)
O25_7 O 0.2129(2) 0.5984(2) 0.81917(12)
O26_7 O 0.1182(2) 0.5975(2) 0.81551(11)
O27_7 O 0.2151(2) 0.6885(2) 0.89589(11)
O28_7 O 0.2607(2) 0.5418(2) 0.85853(12)
O29_7 O 0.2599(2) 0.6517(2) 0.86461(12)
O30_7 O 0.0612(2) 0.6448(3) 0.85490(12)
O31_7 O 0.2420(2) 0.6316(2) 0.93125(11)
O32_7 O 0.2109(3) 0.5078(2) 0.82188(11)
O33_7 O 0.2920(2) 0.5895(2) 0.89593(13)
O34_7 O 0.3099(3) 0.6789(3) 0.90762(14)
O35_7 O 0.1601(3) 0.7291(2) 0.86300(13)
O36_7 O 0.0129(3) 0.5908(3) 0.81067(16)
O37_6 O 0.3065(3) 0.4941(3) 0.89837(15)
O38_7 O 0.2102(3) 0.6865(2) 0.82796(12)
O39_7 O 0.1715(3) 0.5462(3) 0.78024(12)
O40_7 O 0.1683(3) 0.6569(3) 0.78353(13)
O41_7 O 0.1167(3) 0.6870(2) 0.82359(12)
O42_7 O 0.2522(3) 0.7479(3) 0.85851(15)
O43_7 O 0.0661(3) 0.7426(3) 0.85584(16)
O44_7 O 0.0369(5) 0.6570(5) 0.7985(3)
C15_7 C 0.0067(5) 0.6255(5) 0.7983(3)
Mo7_7 Mo 0.16714(3) 0.55364(3) 0.810310(14)
Mo8_7 Mo 0.26159(3) 0.52817(3) 0.893963(15)
Mo9_7 Mo 0.16548(3) 0.64314(3) 0.812915(14)
Mo10_7 Mo 0.10011(4) 0.69774(3) 0.859268(17)
Mo11_7 Mo 0.21646(3) 0.70346(3) 0.859604(16)
Mo12_7 Mo 0.26558(3) 0.64442(3) 0.901261(15)
Zn3_7 Zn 0.06166(4) 0.58976(4) 0.83474(2)
C13_7 C 0.9726(5) 0.6231(5) 0.7781(2)
C14_7 C 0.9541(5) 0.5832(5) 0.7722(3)
H9_7 H 0.9628 0.5571 0.7806
C16_7 C 0.8820(4) 0.6116(5) 0.7172(2)
C17_7 C 0.9206(5) 0.5803(5) 0.7527(3)
H10_7 H 0.9034 0.5540 0.7509
C18_7 C 0.9142(5) 0.6162(5) 0.7371(3)
C19_7 C 0.8506(6) 0.5781(6) 0.7166(3)
H11_7 H 0.8505 0.5565 0.7291
C20_7 C 0.8167(6) 0.5747(6) 0.6969(3)
H12_7 H 0.7952 0.5515 0.6969
C21_7 C 0.9655(7) 0.6585(8) 0.7626(4)
H13_7 H 0.9792 0.6864 0.7657
C22_7 C 0.8838(7) 0.6340(7) 0.6975(4)
H14_7 H 0.9084 0.6532 0.6950
C23_7 C 0.8485(7) 0.6312(7) 0.6784(4)
H15_7 H 0.8505 0.6504 0.6649
C24_7 C 0.9367(7) 0.6528(8) 0.7414(4)
H16_7 H 0.9342 0.6768 0.7303
O1_8 O 0.6993(2) 0.0894(2) 0.39278(10)
O2_8 O 0.6136(2) 0.0910(2) 0.39035(10)
O3_8 O 0.6516(2) 0.0371(2) 0.43083(12)
O4_8 O 0.6525(2) 0.1318(2) 0.43449(11)
O5_8 O 0.5615(2) 0.0349(2) 0.35411(11)
O8_8 O 0.6052(3) 0.1888(2) 0.39510(12)
O9_8 O 0.6184(2) 0.0080(2) 0.31875(11)
O10_8 O 0.7422(2) 0.0391(3) 0.42812(11)
O13_8 O 0.5209(2) 0.0899(3) 0.38700(13)
O14_8 O 0.6592(3) 0.2371(3) 0.43933(16)
O16_8 O 0.5635(2) 0.0398(3) 0.42204(12)
O17_8 O 0.7038(3) 0.0785(3) 0.46976(12)
O18_8 O 0.5931(3) 0.0817(3) 0.46647(13)
O19_8 O 0.5630(2) 0.1333(3) 0.42641(12)
O21_8 O 0.5074(3) 0.1839(3) 0.39416(16)
C1_8 C 0.6269(5) 0.2774(5) 0.4719(2)
C2_8 C 0.6668(5) 0.2959(5) 0.4778(3)
H1_8 H 0.6929 0.2872 0.4694
O22_8 O 0.5930(5) 0.2131(5) 0.4515(3)
C3_8 C 0.6245(5) 0.2433(5) 0.4517(3)
C4_7 C 0.6384(5) 0.3680(4) 0.5328(2)
C5_8 C 0.6697(5) 0.3294(5) 0.4973(3)
H2_8 H 0.6960 0.3466 0.4991
C6_7 C 0.6338(5) 0.3358(5) 0.5129(3)
C7_7 C 0.6719(6) 0.3994(6) 0.5334(3)
H3_7 H 0.6935 0.3995 0.5209
C8_7 C 0.6753(6) 0.4333(6) 0.5531(3)
H4_7 H 0.6985 0.4548 0.5531
C9_8 C 0.5915(8) 0.2845(7) 0.4874(4)
H5_8 H 0.5636 0.2708 0.4843
C10_7 C 0.6160(7) 0.3662(7) 0.5525(4)
H6_7 H 0.5968 0.3416 0.5550
C11_7 C 0.6188(7) 0.4015(7) 0.5716(4)
H7_7 H 0.5996 0.3995 0.5851
C12_7 C 0.5972(8) 0.3133(7) 0.5086(4)
H8_7 H 0.5732 0.3158 0.5197
Mo1_8 Mo 0.69636(3) 0.08286(3) 0.439690(14)
Mo3_8 Mo 0.60686(3) 0.08452(3) 0.437085(14)
Mo4_8 Mo 0.55226(3) 0.14989(4) 0.390732(17)
Mo5_8 Mo 0.54654(3) 0.03354(3) 0.390396(16)
Zn1_8 Zn 0.66024(4) 0.18834(4) 0.41526(2)
P1_8 P 0.65820(7) 0.09180(7) 0.3750
O23_8 O 0.6606(2) 0.0507(2) 0.35722(10)
O24_8 O 0.6590(2) 0.1364(2) 0.35965(10)
O25_8 O 0.7129(2) 0.0984(2) 0.31917(12)
O26_8 O 0.6182(2) 0.0975(2) 0.31551(11)
O27_8 O 0.7151(2) 0.1885(2) 0.39589(11)
O28_8 O 0.7607(2) 0.0418(2) 0.35853(12)
O29_8 O 0.7599(2) 0.1517(2) 0.36461(12)
O30_8 O 0.5612(2) 0.1448(3) 0.35490(12)
O31_8 O 0.7420(2) 0.1316(2) 0.43125(11)
O32_8 O 0.7109(3) 0.0078(2) 0.32188(11)
O33_8 O 0.7920(2) 0.0895(2) 0.39593(13)
O34_8 O 0.8099(3) 0.1789(3) 0.40762(14)
O35_8 O 0.6601(3) 0.2291(2) 0.36300(13)
O36_8 O 0.5129(3) 0.0908(3) 0.31067(16)
O38_8 O 0.7102(3) 0.1865(2) 0.32796(12)
O39_8 O 0.6715(3) 0.0462(3) 0.28024(12)
O40_8 O 0.6683(3) 0.1569(3) 0.28353(13)
O41_8 O 0.6167(3) 0.1870(2) 0.32359(12)
O42_8 O 0.7522(3) 0.2479(3) 0.35851(15)
O43_8 O 0.5661(3) 0.2426(3) 0.35584(16)
C13_8 C 0.4726(5) 0.1231(5) 0.2781(2)
C14_8 C 0.4541(5) 0.0832(5) 0.2722(3)
H9_8 H 0.4628 0.0571 0.2806
O44_8 O 0.5369(5) 0.1570(5) 0.2985(3)
C15_8 C 0.5067(5) 0.1255(5) 0.2983(3)
C16_8 C 0.3820(4) 0.1116(5) 0.2172(2)
C17_8 C 0.4206(5) 0.0803(5) 0.2527(3)
H10_8 H 0.4034 0.0540 0.2509
C18_8 C 0.4142(5) 0.1162(5) 0.2371(3)
C19_8 C 0.3506(6) 0.0781(6) 0.2166(3)
H11_8 H 0.3505 0.0565 0.2291
C20_8 C 0.3167(6) 0.0747(6) 0.1969(3)
H12_8 H 0.2952 0.0515 0.1969
C21_8 C 0.4655(7) 0.1585(8) 0.2626(4)
H13_8 H 0.4792 0.1864 0.2657
C22_8 C 0.3838(7) 0.1340(7) 0.1975(4)
H14_8 H 0.4084 0.1532 0.1950
C23_8 C 0.3485(7) 0.1312(7) 0.1784(4)
H15_8 H 0.3505 0.1504 0.1649
C24_8 C 0.4367(7) 0.1528(8) 0.2414(4)
H16_8 H 0.4342 0.1768 0.2303
Mo7_8 Mo 0.66714(3) 0.05364(3) 0.310310(14)
Mo8_8 Mo 0.76159(3) 0.02817(3) 0.393963(15)
Mo9_8 Mo 0.66548(3) 0.14314(3) 0.312915(14)
Mo10_8 Mo 0.60011(4) 0.19774(3) 0.359268(17)
Mo11_8 Mo 0.71646(3) 0.20346(3) 0.359604(16)
Mo12_8 Mo 0.76558(3) 0.14442(3) 0.401261(15)
Zn3_8 Zn 0.56166(4) 0.08976(4) 0.33474(2)
O6_7 O 0.7082(2) 0.9893(2) 0.39147(12)
O7_7 O 0.5983(2) 0.9901(2) 0.38539(12)
O11_7 O 0.6605(2) 0.9580(2) 0.35407(13)
O12_7 O 0.5711(3) 0.9401(3) 0.34238(14)
O15_7 O 0.7559(3) 0.9435(3) 0.35163(15)
O20_7 O 0.5021(3) 0.9978(3) 0.39149(15)
Mo2_7 Mo 0.72183(3) 0.98841(3) 0.356037(15)
Mo6_7 Mo 0.60558(3) 0.98442(3) 0.348739(15)
O37_7 O 0.8065(3) 0.9941(3) 0.39837(15)
N1_5 N 0.1827(3) 0.6050(3) 0.17955(17)
C1_9 C 0.0274(5) 0.6231(5) 0.2781(2)
C2_9 C 0.0459(5) 0.5832(5) 0.2722(3)
H1_9 H 0.0372 0.5571 0.2806
C4_8 C 0.1180(4) 0.6116(5) 0.2172(2)
C5_9 C 0.0794(5) 0.5803(5) 0.2527(3)
H2_9 H 0.0966 0.5540 0.2509
C6_8 C 0.0858(5) 0.6162(5) 0.2371(3)
C7_8 C 0.1494(6) 0.5781(6) 0.2166(3)
H3_8 H 0.1495 0.5565 0.2291
C8_8 C 0.1833(6) 0.5747(6) 0.1969(3)
H4_8 H 0.2048 0.5515 0.1969
C9_9 C 0.0345(7) 0.6585(8) 0.2626(4)
H5_9 H 0.0208 0.6864 0.2657
C10_8 C 0.1162(7) 0.6340(7) 0.1975(4)
H6_8 H 0.0916 0.6532 0.1950
C11_8 C 0.1515(7) 0.6312(7) 0.1784(4)
H7_8 H 0.1495 0.6504 0.1649
C12_8 C 0.0633(7) 0.6528(8) 0.2414(4)
H8_8 H 0.0658 0.6768 0.2303
Zn6_5 Zn 0.23562(4) 0.60080(4) 0.15748(2)
O1_9 O 0.8394(2) 0.5507(2) 0.35722(10)
O2_9 O 0.8410(2) 0.6364(2) 0.35965(10)
O3_9 O 0.7871(2) 0.5984(2) 0.31917(12)
O4_9 O 0.8818(2) 0.5975(2) 0.31551(11)
O5_9 O 0.7849(2) 0.6885(2) 0.39589(11)
O6_8 O 0.7393(2) 0.5418(2) 0.35853(12)
O7_8 O 0.7401(2) 0.6517(2) 0.36461(12)
O8_9 O 0.9388(2) 0.6448(3) 0.35490(12)
O9_9 O 0.7580(2) 0.6316(2) 0.43125(11)
O10_9 O 0.7891(3) 0.5078(2) 0.32188(11)
O11_8 O 0.7080(2) 0.5895(2) 0.39593(13)
O12_8 O 0.6901(3) 0.6789(3) 0.40762(14)
O13_9 O 0.8399(3) 0.7291(2) 0.36300(13)
O14_9 O 0.9871(3) 0.5908(3) 0.31067(16)
O15_8 O 0.6935(3) 0.4941(3) 0.39837(15)
O16_9 O 0.7898(3) 0.6865(2) 0.32796(12)
O17_9 O 0.8285(3) 0.5462(3) 0.28024(12)
O18_9 O 0.8317(3) 0.6569(3) 0.28353(13)
O19_9 O 0.8833(3) 0.6870(2) 0.32359(12)
O20_8 O 0.7478(3) 0.7479(3) 0.35851(15)
O21_9 O 0.9339(3) 0.7426(3) 0.35584(16)
O22_9 O 0.9631(5) 0.6570(5) 0.2985(3)
C3_9 C 0.9933(5) 0.6255(5) 0.2983(3)
Mo1_9 Mo 0.83286(3) 0.55364(3) 0.310310(14)
Mo2_8 Mo 0.73841(3) 0.52817(3) 0.393963(15)
Mo3_9 Mo 0.83452(3) 0.64314(3) 0.312915(14)
Mo4_9 Mo 0.89989(4) 0.69774(3) 0.359268(17)
Mo5_9 Mo 0.78354(3) 0.70346(3) 0.359604(16)
Mo6_8 Mo 0.73442(3) 0.64442(3) 0.401261(15)
Zn1_9 Zn 0.93834(4) 0.58976(4) 0.33474(2)
Zn2_4 Zn 0.73562(4) 0.60080(4) 0.34252(2)
P1_9 P 0.84180(7) 0.59180(7) 0.3750
O23_9 O 0.8007(2) 0.5894(2) 0.39278(10)
O24_9 O 0.8864(2) 0.5910(2) 0.39035(10)
O25_9 O 0.8484(2) 0.5371(2) 0.43083(12)
O26_9 O 0.8475(2) 0.6318(2) 0.43449(11)
O27_9 O 0.9385(2) 0.5349(2) 0.35411(11)
O28_9 O 0.7918(2) 0.4893(2) 0.39147(12)
O29_9 O 0.9017(2) 0.4901(2) 0.38539(12)
O30_9 O 0.8948(3) 0.6888(2) 0.39510(12)
O31_9 O 0.8816(2) 0.5080(2) 0.31875(11)
O32_9 O 0.7578(2) 0.5391(3) 0.42812(11)
O33_9 O 0.8395(2) 0.4580(2) 0.35407(13)
O34_9 O 0.9289(3) 0.4401(3) 0.34238(14)
O35_9 O 0.9791(2) 0.5899(3) 0.38700(13)
O36_9 O 0.8408(3) 0.7371(3) 0.43933(16)
O37_8 O 0.7441(3) 0.4435(3) 0.35163(15)
O38_9 O 0.9365(2) 0.5398(3) 0.42204(12)
O39_9 O 0.7962(3) 0.5785(3) 0.46976(12)
O40_9 O 0.9069(3) 0.5817(3) 0.46647(13)
O41_9 O 0.9370(2) 0.6333(3) 0.42641(12)
N2_5 N 0.8550(3) 0.9327(3) 0.57045(17)
O42_9 O 0.9979(3) 0.4978(3) 0.39149(15)
O43_9 O 0.9926(3) 0.6839(3) 0.39416(16)
C13_9 C 0.8731(5) 0.7774(5) 0.4719(2)
C14_9 C 0.8332(5) 0.7959(5) 0.4778(3)
H9_9 H 0.8071 0.7872 0.4694
O44_9 O 0.9070(5) 0.7131(5) 0.4515(3)
C15_9 C 0.8755(5) 0.7433(5) 0.4517(3)
C16_9 C 0.8616(5) 0.8680(4) 0.5328(2)
C17_9 C 0.8303(5) 0.8294(5) 0.4973(3)
H10_9 H 0.8040 0.8466 0.4991
C18_9 C 0.8662(5) 0.8358(5) 0.5129(3)
C19_9 C 0.8281(6) 0.8994(6) 0.5334(3)
H11_9 H 0.8065 0.8995 0.5209
C20_9 C 0.8247(6) 0.9333(6) 0.5531(3)
H12_9 H 0.8015 0.9548 0.5531
C21_9 C 0.9085(8) 0.7845(7) 0.4874(4)
H13_9 H 0.9364 0.7708 0.4843
C22_9 C 0.8840(7) 0.8662(7) 0.5525(4)
H14_9 H 0.9032 0.8416 0.5550
C23_9 C 0.8812(7) 0.9015(7) 0.5716(4)
H15_9 H 0.9004 0.8995 0.5851
C24_9 C 0.9028(8) 0.8133(7) 0.5086(4)
H16_9 H 0.9268 0.8158 0.5197
Mo7_9 Mo 0.80364(3) 0.58286(3) 0.439690(14)
Mo8_9 Mo 0.77817(3) 0.48841(3) 0.356037(15)
Mo9_9 Mo 0.89314(3) 0.58452(3) 0.437085(14)
Mo10_9 Mo 0.94774(3) 0.64989(4) 0.390732(17)
Mo11_9 Mo 0.95346(3) 0.53354(3) 0.390396(16)
Mo12_9 Mo 0.89442(3) 0.48442(3) 0.348739(15)
Zn3_9 Zn 0.83976(4) 0.68834(4) 0.41526(2)
Zn4_5 Zn 0.85080(4) 0.48562(4) 0.40748(2)
N3_5 N 0.8550(3) 0.4327(3) 0.42955(17)
N4_4 N 0.6827(3) 0.6050(3) 0.32045(17)
Zn5_5 Zn 0.85080(4) 0.98562(4) 0.59252(2)
N2_6 N 0.3550(3) 0.4327(3) 0.07045(17)
C16_10 C 0.3616(5) 0.3680(4) 0.0328(2)
C18_10 C 0.3662(5) 0.3358(5) 0.0129(3)
C19_10 C 0.3281(6) 0.3994(6) 0.0334(3)
H11_10 H 0.3065 0.3995 0.0209
C20_10 C 0.3247(6) 0.4333(6) 0.0531(3)
H12_10 H 0.3015 0.4548 0.0531
C22_10 C 0.3840(7) 0.3662(7) 0.0525(4)
H14_10 H 0.4032 0.3416 0.0550
C23_10 C 0.3812(7) 0.4015(7) 0.0716(4)
H15_10 H 0.4004 0.3995 0.0851
C24_10 C 0.4028(8) 0.3133(7) 0.0086(4)
H16_10 H 0.4268 0.3158 0.0197
Zn5_6 Zn 0.35080(4) 0.48562(4) 0.09252(2)
O1_10 O 0.3394(2) 0.0507(2) 0.85722(10)
O2_10 O 0.3410(2) 0.1364(2) 0.85965(10)
O3_10 O 0.2871(2) 0.0984(2) 0.81917(12)
O4_10 O 0.3818(2) 0.0975(2) 0.81551(11)
O5_10 O 0.2849(2) 0.1885(2) 0.89589(11)
O6_9 O 0.2393(2) 0.0418(2) 0.85853(12)
O7_9 O 0.2401(2) 0.1517(2) 0.86461(12)
O8_10 O 0.4388(2) 0.1448(3) 0.85490(12)
O9_10 O 0.2580(2) 0.1316(2) 0.93125(11)
O10_10 O 0.2891(3) 0.0078(2) 0.82188(11)
O11_9 O 0.2080(2) 0.0895(2) 0.89593(13)
O12_9 O 0.1901(3) 0.1789(3) 0.90762(14)
O13_10 O 0.3399(3) 0.2291(2) 0.86300(13)
O14_10 O 0.4871(3) 0.0908(3) 0.81067(16)
O16_10 O 0.2898(3) 0.1865(2) 0.82796(12)
O17_10 O 0.3285(3) 0.0462(3) 0.78024(12)
O18_10 O 0.3317(3) 0.1569(3) 0.78353(13)
O19_10 O 0.3833(3) 0.1870(2) 0.82359(12)
N1_6 N 0.6827(3) 0.1050(3) 0.67955(17)
O20_9 O 0.2478(3) 0.2479(3) 0.85851(15)
O21_10 O 0.4339(3) 0.2426(3) 0.85584(16)
C1_10 C 0.5274(5) 0.1231(5) 0.7781(2)
C2_10 C 0.5459(5) 0.0832(5) 0.7722(3)
H1_10 H 0.5372 0.0571 0.7806
O22_10 O 0.4631(5) 0.1570(5) 0.7985(3)
C3_10 C 0.4933(5) 0.1255(5) 0.7983(3)
C4_9 C 0.6180(4) 0.1116(5) 0.7172(2)
C5_10 C 0.5794(5) 0.0803(5) 0.7527(3)
H2_10 H 0.5966 0.0540 0.7509
C6_9 C 0.5858(5) 0.1162(5) 0.7371(3)
C7_9 C 0.6494(6) 0.0781(6) 0.7166(3)
H3_9 H 0.6495 0.0565 0.7291
C8_9 C 0.6833(6) 0.0747(6) 0.6969(3)
H4_9 H 0.7048 0.0515 0.6969
C9_10 C 0.5345(7) 0.1585(8) 0.7626(4)
H5_10 H 0.5208 0.1864 0.7657
C10_9 C 0.6162(7) 0.1340(7) 0.6975(4)
H6_9 H 0.5916 0.1532 0.6950
C11_9 C 0.6515(7) 0.1312(7) 0.6784(4)
H7_9 H 0.6495 0.1504 0.6649
C12_9 C 0.5633(7) 0.1528(8) 0.7414(4)
H8_9 H 0.5658 0.1768 0.7303
Mo1_10 Mo 0.33286(3) 0.05364(3) 0.810310(14)
Mo2_9 Mo 0.23841(3) 0.02817(3) 0.893963(15)
Mo3_10 Mo 0.33452(3) 0.14314(3) 0.812915(14)
Mo4_10 Mo 0.39989(4) 0.19774(3) 0.859268(17)
Mo5_10 Mo 0.28354(3) 0.20346(3) 0.859604(16)
Mo6_9 Mo 0.23442(3) 0.14442(3) 0.901261(15)
Zn1_10 Zn 0.43834(4) 0.08976(4) 0.83474(2)
Zn2_5 Zn 0.23562(4) 0.10080(4) 0.84252(2)
P1_10 P 0.34180(7) 0.09180(7) 0.8750
O23_10 O 0.3007(2) 0.0894(2) 0.89278(10)
O24_10 O 0.3864(2) 0.0910(2) 0.89035(10)
O25_10 O 0.3484(2) 0.0371(2) 0.93083(12)
O26_10 O 0.3475(2) 0.1318(2) 0.93449(11)
O27_10 O 0.4385(2) 0.0349(2) 0.85411(11)
O30_10 O 0.3948(3) 0.1888(2) 0.89510(12)
O31_10 O 0.3816(2) 0.0080(2) 0.81875(11)
O32_10 O 0.2578(2) 0.0391(3) 0.92812(11)
O35_10 O 0.4791(2) 0.0899(3) 0.88700(13)
O36_10 O 0.3408(3) 0.2371(3) 0.93933(16)
O38_10 O 0.4365(2) 0.0398(3) 0.92204(12)
O39_10 O 0.2962(3) 0.0785(3) 0.96976(12)
O40_10 O 0.4069(3) 0.0817(3) 0.96647(13)
O41_10 O 0.4370(2) 0.1333(3) 0.92641(12)
O43_10 O 0.4926(3) 0.1839(3) 0.89416(16)
C13_10 C 0.3731(5) 0.2774(5) 0.9719(2)
C14_10 C 0.3332(5) 0.2959(5) 0.9778(3)
H9_10 H 0.3071 0.2872 0.9694
O44_10 O 0.4070(5) 0.2131(5) 0.9515(3)
C15_10 C 0.3755(5) 0.2433(5) 0.9517(3)
C17_10 C 0.3303(5) 0.3294(5) 0.9973(3)
H10_10 H 0.3040 0.3466 0.9991
C21_10 C 0.4085(8) 0.2845(7) 0.9874(4)
H13_10 H 0.4364 0.2708 0.9843
Mo7_10 Mo 0.30364(3) 0.08286(3) 0.939690(14)
Mo9_10 Mo 0.39314(3) 0.08452(3) 0.937085(14)
Mo10_10 Mo 0.44774(3) 0.14989(4) 0.890732(17)
Mo11_10 Mo 0.45346(3) 0.03354(3) 0.890396(16)
Zn3_10 Zn 0.33976(4) 0.18834(4) 0.91526(2)
N4_5 N 0.1827(3) 0.1050(3) 0.82045(17)
Zn6_6 Zn 0.73562(4) 0.10080(4) 0.65748(2)
O1_11 O 0.3394(2) 0.5507(2) 0.14278(10)
O2_11 O 0.3410(2) 0.6364(2) 0.14035(10)
O3_11 O 0.2871(2) 0.5984(2) 0.18083(12)
O4_11 O 0.3818(2) 0.5975(2) 0.18449(11)
O5_11 O 0.2849(2) 0.6885(2) 0.10411(11)
O6_10 O 0.2393(2) 0.5418(2) 0.14147(12)
O7_10 O 0.2401(2) 0.6517(2) 0.13539(12)
O8_11 O 0.4388(2) 0.6448(3) 0.14510(12)
O9_11 O 0.2580(2) 0.6316(2) 0.06875(11)
O10_11 O 0.2891(3) 0.5078(2) 0.17812(11)
O11_10 O 0.2080(2) 0.5895(2) 0.10407(13)
O12_10 O 0.1901(3) 0.6789(3) 0.09238(14)
O13_11 O 0.3399(3) 0.7291(2) 0.13700(13)
O14_11 O 0.4871(3) 0.5908(3) 0.18933(16)
O15_9 O 0.1935(3) 0.4941(3) 0.10163(15)
O16_11 O 0.2898(3) 0.6865(2) 0.17204(12)
O17_11 O 0.3285(3) 0.5462(3) 0.21976(12)
O18_11 O 0.3317(3) 0.6569(3) 0.21647(13)
O19_11 O 0.3833(3) 0.6870(2) 0.17641(12)
O20_10 O 0.2478(3) 0.7479(3) 0.14149(15)
O21_11 O 0.4339(3) 0.7426(3) 0.14416(16)
C1_11 C 0.5274(5) 0.6231(5) 0.2219(2)
C2_11 C 0.5459(5) 0.5832(5) 0.2278(3)
H1_11 H 0.5372 0.5571 0.2194
O22_11 O 0.4631(5) 0.6570(5) 0.2015(3)
C3_11 C 0.4933(5) 0.6255(5) 0.2017(3)
C4_10 C 0.6180(4) 0.6116(5) 0.2828(2)
C5_11 C 0.5794(5) 0.5803(5) 0.2473(3)
H2_11 H 0.5966 0.5540 0.2491
C6_10 C 0.5858(5) 0.6162(5) 0.2629(3)
C7_10 C 0.6494(6) 0.5781(6) 0.2834(3)
H3_10 H 0.6495 0.5565 0.2709
C8_10 C 0.6833(6) 0.5747(6) 0.3031(3)
H4_10 H 0.7048 0.5515 0.3031
C9_11 C 0.5345(7) 0.6585(8) 0.2374(4)
H5_11 H 0.5208 0.6864 0.2343
C10_10 C 0.6162(7) 0.6340(7) 0.3025(4)
H6_10 H 0.5916 0.6532 0.3050
C11_10 C 0.6515(7) 0.6312(7) 0.3216(4)
H7_10 H 0.6495 0.6504 0.3351
C12_10 C 0.5633(7) 0.6528(8) 0.2586(4)
H8_10 H 0.5658 0.6768 0.2697
Mo1_11 Mo 0.33286(3) 0.55364(3) 0.189690(14)
Mo2_10 Mo 0.23841(3) 0.52817(3) 0.106037(15)
Mo3_11 Mo 0.33452(3) 0.64314(3) 0.187085(14)
Mo4_11 Mo 0.39989(4) 0.69774(3) 0.140732(17)
Mo5_11 Mo 0.28354(3) 0.70346(3) 0.140396(16)
Mo6_10 Mo 0.23442(3) 0.64442(3) 0.098739(15)
Zn1_11 Zn 0.43834(4) 0.58976(4) 0.16526(2)
P1_11 P 0.34180(7) 0.59180(7) 0.1250
O23_11 O 0.3007(2) 0.5894(2) 0.10722(10)
O24_11 O 0.3864(2) 0.5910(2) 0.10965(10)
O25_11 O 0.3484(2) 0.5371(2) 0.06917(12)
O26_11 O 0.3475(2) 0.6318(2) 0.06551(11)
O27_11 O 0.4385(2) 0.5349(2) 0.14589(11)
O28_10 O 0.2918(2) 0.4893(2) 0.10853(12)
O29_10 O 0.4017(2) 0.4901(2) 0.11461(12)
O30_11 O 0.3948(3) 0.6888(2) 0.10490(12)
O31_11 O 0.3816(2) 0.5080(2) 0.18125(11)
O32_11 O 0.2578(2) 0.5391(3) 0.07188(11)
O33_10 O 0.3395(2) 0.4580(2) 0.14593(13)
O34_10 O 0.4289(3) 0.4401(3) 0.15762(14)
O35_11 O 0.4791(2) 0.5899(3) 0.11300(13)
O36_11 O 0.3408(3) 0.7371(3) 0.06067(16)
O37_9 O 0.2441(3) 0.4435(3) 0.14837(15)
O38_11 O 0.4365(2) 0.5398(3) 0.07796(12)
O39_11 O 0.2962(3) 0.5785(3) 0.03024(12)
O40_11 O 0.4069(3) 0.5817(3) 0.03353(13)
O41_11 O 0.4370(2) 0.6333(3) 0.07359(12)
O42_10 O 0.4979(3) 0.4978(3) 0.10851(15)
O43_11 O 0.4926(3) 0.6839(3) 0.10584(16)
C13_11 C 0.3731(5) 0.7774(5) 0.0281(2)
C14_11 C 0.3332(5) 0.7959(5) 0.0222(3)
H9_11 H 0.3071 0.7872 0.0306
O44_11 O 0.4070(5) 0.7131(5) 0.0485(3)
C15_11 C 0.3755(5) 0.7433(5) 0.0483(3)
C17_11 C 0.3303(5) 0.8294(5) 0.0027(3)
H10_11 H 0.3040 0.8466 0.0009
C21_11 C 0.4085(8) 0.7845(7) 0.0126(4)
H13_11 H 0.4364 0.7708 0.0157
Mo7_11 Mo 0.30364(3) 0.58286(3) 0.060310(14)
Mo8_10 Mo 0.27817(3) 0.48841(3) 0.143963(15)
Mo9_11 Mo 0.39314(3) 0.58452(3) 0.062915(14)
Mo10_11 Mo 0.44774(3) 0.64989(4) 0.109268(17)
Mo11_11 Mo 0.45346(3) 0.53354(3) 0.109604(16)
Mo12_10 Mo 0.39442(3) 0.48442(3) 0.151261(15)
Zn3_11 Zn 0.33976(4) 0.68834(4) 0.08474(2)
C1_12 C 0.0274(5) 0.1231(5) 0.7219(2)
C2_12 C 0.0459(5) 0.0832(5) 0.7278(3)
H1_12 H 0.0372 0.0571 0.7194
C4_11 C 0.1180(4) 0.1116(5) 0.7828(2)
C5_12 C 0.0794(5) 0.0803(5) 0.7473(3)
H2_12 H 0.0966 0.0540 0.7491
C6_11 C 0.0858(5) 0.1162(5) 0.7629(3)
C7_11 C 0.1494(6) 0.0781(6) 0.7834(3)
H3_11 H 0.1495 0.0565 0.7709
C8_11 C 0.1833(6) 0.0747(6) 0.8031(3)
H4_11 H 0.2048 0.0515 0.8031
C9_12 C 0.0345(7) 0.1585(8) 0.7374(4)
H5_12 H 0.0208 0.1864 0.7343
C10_11 C 0.1162(7) 0.1340(7) 0.8025(4)
H6_11 H 0.0916 0.1532 0.8050
C11_11 C 0.1515(7) 0.1312(7) 0.8216(4)
H7_11 H 0.1495 0.1504 0.8351
C12_11 C 0.0633(7) 0.1528(8) 0.7586(4)
H8_11 H 0.0658 0.1768 0.7697
O1_12 O 0.8394(2) 0.0507(2) 0.64278(10)
O2_12 O 0.8410(2) 0.1364(2) 0.64035(10)
O3_12 O 0.7871(2) 0.0984(2) 0.68083(12)
O4_12 O 0.8818(2) 0.0975(2) 0.68449(11)
O5_12 O 0.7849(2) 0.1885(2) 0.60411(11)
O6_11 O 0.7393(2) 0.0418(2) 0.64147(12)
O7_11 O 0.7401(2) 0.1517(2) 0.63539(12)
O8_12 O 0.9388(2) 0.1448(3) 0.64510(12)
O9_12 O 0.7580(2) 0.1316(2) 0.56875(11)
O10_12 O 0.7891(3) 0.0078(2) 0.67812(11)
O11_11 O 0.7080(2) 0.0895(2) 0.60407(13)
O12_11 O 0.6901(3) 0.1789(3) 0.59238(14)
O13_12 O 0.8399(3) 0.2291(2) 0.63700(13)
O14_12 O 0.9871(3) 0.0908(3) 0.68933(16)
O16_12 O 0.7898(3) 0.1865(2) 0.67204(12)
O17_12 O 0.8285(3) 0.0462(3) 0.71976(12)
O18_12 O 0.8317(3) 0.1569(3) 0.71647(13)
O19_12 O 0.8833(3) 0.1870(2) 0.67641(12)
O20_11 O 0.7478(3) 0.2479(3) 0.64149(15)
O21_12 O 0.9339(3) 0.2426(3) 0.64416(16)
O22_12 O 0.9631(5) 0.1570(5) 0.7015(3)
C3_12 C 0.9933(5) 0.1255(5) 0.7017(3)
Mo1_12 Mo 0.83286(3) 0.05364(3) 0.689690(14)
Mo2_11 Mo 0.73841(3) 0.02817(3) 0.606037(15)
Mo3_12 Mo 0.83452(3) 0.14314(3) 0.687085(14)
Mo4_12 Mo 0.89989(4) 0.19774(3) 0.640732(17)
Mo5_12 Mo 0.78354(3) 0.20346(3) 0.640396(16)
Mo6_11 Mo 0.73442(3) 0.14442(3) 0.598739(15)
Zn1_12 Zn 0.93834(4) 0.08976(4) 0.66526(2)
P1_12 P 0.84180(7) 0.09180(7) 0.6250
O23_12 O 0.8007(2) 0.0894(2) 0.60722(10)
O24_12 O 0.8864(2) 0.0910(2) 0.60965(10)
O25_12 O 0.8484(2) 0.0371(2) 0.56917(12)
O26_12 O 0.8475(2) 0.1318(2) 0.56551(11)
O27_12 O 0.9385(2) 0.0349(2) 0.64589(11)
O30_12 O 0.8948(3) 0.1888(2) 0.60490(12)
O31_12 O 0.8816(2) 0.0080(2) 0.68125(11)
O32_12 O 0.7578(2) 0.0391(3) 0.57188(11)
O35_12 O 0.9791(2) 0.0899(3) 0.61300(13)
O36_12 O 0.8408(3) 0.2371(3) 0.56067(16)
O38_12 O 0.9365(2) 0.0398(3) 0.57796(12)
O39_12 O 0.7962(3) 0.0785(3) 0.53024(12)
O40_12 O 0.9069(3) 0.0817(3) 0.53353(13)
O41_12 O 0.9370(2) 0.1333(3) 0.57359(12)
O43_12 O 0.9926(3) 0.1839(3) 0.60584(16)
C13_12 C 0.8731(5) 0.2774(5) 0.5281(2)
C14_12 C 0.8332(5) 0.2959(5) 0.5222(3)
H9_12 H 0.8071 0.2872 0.5306
O44_12 O 0.9070(5) 0.2131(5) 0.5485(3)
C15_12 C 0.8755(5) 0.2433(5) 0.5483(3)
C16_11 C 0.8616(5) 0.3680(4) 0.4672(2)
C17_12 C 0.8303(5) 0.3294(5) 0.5027(3)
H10_12 H 0.8040 0.3466 0.5009
C18_11 C 0.8662(5) 0.3358(5) 0.4871(3)
C19_11 C 0.8281(6) 0.3994(6) 0.4666(3)
H11_11 H 0.8065 0.3995 0.4791
C20_11 C 0.8247(6) 0.4333(6) 0.4469(3)
H12_11 H 0.8015 0.4548 0.4469
C21_12 C 0.9085(8) 0.2845(7) 0.5126(4)
H13_12 H 0.9364 0.2708 0.5157
C22_11 C 0.8840(7) 0.3662(7) 0.4475(4)
H14_11 H 0.9032 0.3416 0.4450
C23_11 C 0.8812(7) 0.4015(7) 0.4284(4)
H15_11 H 0.9004 0.3995 0.4149
C24_11 C 0.9028(8) 0.3133(7) 0.4914(4)
H16_11 H 0.9268 0.3158 0.4803
Mo7_12 Mo 0.80364(3) 0.08286(3) 0.560310(14)
Mo9_12 Mo 0.89314(3) 0.08452(3) 0.562915(14)
Mo10_12 Mo 0.94774(3) 0.14989(4) 0.609268(17)
Mo11_12 Mo 0.95346(3) 0.03354(3) 0.609604(16)
Zn3_12 Zn 0.83976(4) 0.18834(4) 0.58474(2)
O15_10 O 0.6935(3) 0.9941(3) 0.60163(15)
O28_11 O 0.7918(2) 0.9893(2) 0.60853(12)
O29_11 O 0.9017(2) 0.9901(2) 0.61461(12)
O33_11 O 0.8395(2) 0.9580(2) 0.64593(13)
O34_11 O 0.9289(3) 0.9401(3) 0.65762(14)
O37_10 O 0.7441(3) 0.9435(3) 0.64837(15)
O42_11 O 0.9979(3) 0.9978(3) 0.60851(15)
Mo8_11 Mo 0.77817(3) 0.98841(3) 0.643963(15)
Mo12_11 Mo 0.89442(3) 0.98442(3) 0.651261(15)
N2_7 N 0.6450(3) 0.0673(3) 0.07045(17)
C16_12 C 0.6384(5) 0.1320(4) 0.0328(2)
C18_12 C 0.6338(5) 0.1642(5) 0.0129(3)
C19_12 C 0.6719(6) 0.1006(6) 0.0334(3)
H11_12 H 0.6935 0.1005 0.0209
C20_12 C 0.6753(6) 0.0667(6) 0.0531(3)
H12_12 H 0.6985 0.0452 0.0531
C22_12 C 0.6160(7) 0.1338(7) 0.0525(4)
H14_12 H 0.5968 0.1584 0.0550
C23_12 C 0.6188(7) 0.0985(7) 0.0716(4)
H15_12 H 0.5996 0.1005 0.0851
C24_12 C 0.5972(8) 0.1867(7) 0.0086(4)
H16_12 H 0.5732 0.1842 0.0197
Zn5_7 Zn 0.64920(4) 0.01438(4) 0.09252(2)
O15_11 O 0.8065(3) 0.0059(3) 0.10163(15)
O28_12 O 0.7082(2) 0.0107(2) 0.10853(12)
O29_12 O 0.5983(2) 0.0099(2) 0.11461(12)
O33_12 O 0.6605(2) 0.0420(2) 0.14593(13)
O34_12 O 0.5711(3) 0.0599(3) 0.15762(14)
O37_11 O 0.7559(3) 0.0565(3) 0.14837(15)
O42_12 O 0.5021(3) 0.0022(3) 0.10851(15)
Mo8_12 Mo 0.72183(3) 0.01159(3) 0.143963(15)
Mo12_12 Mo 0.60558(3) 0.01558(3) 0.151261(15)
O1_13 O 0.6606(2) 0.4493(2) 0.85722(10)
O2_13 O 0.6590(2) 0.3636(2) 0.85965(10)
O3_13 O 0.7129(2) 0.4016(2) 0.81917(12)
O4_13 O 0.6182(2) 0.4025(2) 0.81551(11)
O5_13 O 0.7151(2) 0.3115(2) 0.89589(11)
O6_12 O 0.7607(2) 0.4582(2) 0.85853(12)
O7_12 O 0.7599(2) 0.3483(2) 0.86461(12)
O8_13 O 0.5612(2) 0.3552(3) 0.85490(12)
O9_13 O 0.7420(2) 0.3684(2) 0.93125(11)
O10_13 O 0.7109(3) 0.4922(2) 0.82188(11)
O11_12 O 0.7920(2) 0.4105(2) 0.89593(13)
O12_12 O 0.8099(3) 0.3211(3) 0.90762(14)
O13_13 O 0.6601(3) 0.2709(2) 0.86300(13)
O14_13 O 0.5129(3) 0.4092(3) 0.81067(16)
O15_12 O 0.8065(3) 0.5059(3) 0.89837(15)
O16_13 O 0.7102(3) 0.3135(2) 0.82796(12)
O17_13 O 0.6715(3) 0.4538(3) 0.78024(12)
O18_13 O 0.6683(3) 0.3431(3) 0.78353(13)
O19_13 O 0.6167(3) 0.3130(2) 0.82359(12)
N1_7 N 0.3173(3) 0.3950(3) 0.67955(17)
O20_12 O 0.7522(3) 0.2521(3) 0.85851(15)
O21_13 O 0.5661(3) 0.2574(3) 0.85584(16)
C1_13 C 0.4726(5) 0.3769(5) 0.7781(2)
C2_13 C 0.4541(5) 0.4168(5) 0.7722(3)
H1_13 H 0.4628 0.4429 0.7806
O22_13 O 0.5369(5) 0.3430(5) 0.7985(3)
C3_13 C 0.5067(5) 0.3745(5) 0.7983(3)
C4_12 C 0.3820(4) 0.3884(5) 0.7172(2)
C5_13 C 0.4206(5) 0.4197(5) 0.7527(3)
H2_13 H 0.4034 0.4460 0.7509
C6_12 C 0.4142(5) 0.3838(5) 0.7371(3)
C7_12 C 0.3506(6) 0.4219(6) 0.7166(3)
H3_12 H 0.3505 0.4435 0.7291
C8_12 C 0.3167(6) 0.4253(6) 0.6969(3)
H4_12 H 0.2952 0.4485 0.6969
C9_13 C 0.4655(7) 0.3415(8) 0.7626(4)
H5_13 H 0.4792 0.3136 0.7657
C10_12 C 0.3838(7) 0.3660(7) 0.6975(4)
H6_12 H 0.4084 0.3468 0.6950
C11_12 C 0.3485(7) 0.3688(7) 0.6784(4)
H7_12 H 0.3505 0.3496 0.6649
C12_12 C 0.4367(7) 0.3472(8) 0.7414(4)
H8_12 H 0.4342 0.3232 0.7303
Mo1_13 Mo 0.66714(3) 0.44636(3) 0.810310(14)
Mo2_12 Mo 0.76159(3) 0.47183(3) 0.893963(15)
Mo3_13 Mo 0.66548(3) 0.35686(3) 0.812915(14)
Mo4_13 Mo 0.60011(4) 0.30226(3) 0.859268(17)
Mo5_13 Mo 0.71646(3) 0.29654(3) 0.859604(16)
Mo6_12 Mo 0.76558(3) 0.35558(3) 0.901261(15)
Zn1_13 Zn 0.56166(4) 0.41024(4) 0.83474(2)
Zn2_6 Zn 0.76438(4) 0.39920(4) 0.84252(2)
P1_13 P 0.65820(7) 0.40820(7) 0.8750
O23_13 O 0.6993(2) 0.4106(2) 0.89278(10)
O24_13 O 0.6136(2) 0.4090(2) 0.89035(10)
O25_13 O 0.6516(2) 0.4629(2) 0.93083(12)
O26_13 O 0.6525(2) 0.3682(2) 0.93449(11)
O27_13 O 0.5615(2) 0.4651(2) 0.85411(11)
O28_13 O 0.7082(2) 0.5107(2) 0.89147(12)
O29_13 O 0.5983(2) 0.5099(2) 0.88539(12)
O30_13 O 0.6052(3) 0.3112(2) 0.89510(12)
O31_13 O 0.6184(2) 0.4920(2) 0.81875(11)
O32_13 O 0.7422(2) 0.4609(3) 0.92812(11)
O33_13 O 0.6605(2) 0.5420(2) 0.85407(13)
O34_13 O 0.5711(3) 0.5599(3) 0.84238(14)
O35_13 O 0.5209(2) 0.4101(3) 0.88700(13)
O36_13 O 0.6592(3) 0.2629(3) 0.93933(16)
O37_12 O 0.7559(3) 0.5565(3) 0.85163(15)
O38_13 O 0.5635(2) 0.4602(3) 0.92204(12)
O39_13 O 0.7038(3) 0.4215(3) 0.96976(12)
O40_13 O 0.5931(3) 0.4183(3) 0.96647(13)
O41_13 O 0.5630(2) 0.3667(3) 0.92641(12)
O42_13 O 0.5021(3) 0.5022(3) 0.89149(15)
O43_13 O 0.5074(3) 0.3161(3) 0.89416(16)
C13_13 C 0.6269(5) 0.2226(5) 0.9719(2)
C14_13 C 0.6668(5) 0.2041(5) 0.9778(3)
H9_13 H 0.6929 0.2128 0.9694
O44_13 O 0.5930(5) 0.2869(5) 0.9515(3)
C15_13 C 0.6245(5) 0.2567(5) 0.9517(3)
C17_13 C 0.6697(5) 0.1706(5) 0.9973(3)
H10_13 H 0.6960 0.1534 0.9991
C21_13 C 0.5915(8) 0.2155(7) 0.9874(4)
H13_13 H 0.5636 0.2292 0.9843
Mo7_13 Mo 0.69636(3) 0.41714(3) 0.939690(14)
Mo8_13 Mo 0.72183(3) 0.51159(3) 0.856037(15)
Mo9_13 Mo 0.60686(3) 0.41548(3) 0.937085(14)
Mo10_13 Mo 0.55226(3) 0.35011(4) 0.890732(17)
Mo11_13 Mo 0.54654(3) 0.46646(3) 0.890396(16)
Mo12_13 Mo 0.60558(3) 0.51558(3) 0.848739(15)
Zn3_13 Zn 0.66024(4) 0.31166(4) 0.91526(2)
Zn4_6 Zn 0.64920(4) 0.51438(4) 0.90748(2)
N3_6 N 0.6450(3) 0.5673(3) 0.92955(17)
N4_6 N 0.8173(3) 0.3950(3) 0.82045(17)
Zn6_7 Zn 0.26438(4) 0.39920(4) 0.65748(2)
O15_13 O 0.3065(3) 0.0059(3) 0.39837(15)
O28_14 O 0.2082(2) 0.0107(2) 0.39147(12)
O29_14 O 0.0983(2) 0.0099(2) 0.38539(12)
O33_14 O 0.1605(2) 0.0420(2) 0.35407(13)
O34_14 O 0.0711(3) 0.0599(3) 0.34238(14)
O37_13 O 0.2559(3) 0.0565(3) 0.35163(15)
O42_14 O 0.0021(3) 0.0022(3) 0.39149(15)
Mo8_14 Mo 0.22183(3) 0.01159(3) 0.356037(15)
Mo12_14 Mo 0.10558(3) 0.01558(3) 0.348739(15)
Zn4_7 Zn 0.14920(4) 0.01438(4) 0.40748(2)
N3_7 N 0.1450(3) 0.0673(3) 0.42955(17)
O1_14 O 0.1606(2) 0.9493(2) 0.35722(10)
O2_14 O 0.1590(2) 0.8636(2) 0.35965(10)
O3_14 O 0.2129(2) 0.9016(2) 0.31917(12)
O4_14 O 0.1182(2) 0.9025(2) 0.31551(11)
O5_14 O 0.2151(2) 0.8115(2) 0.39589(11)
O6_13 O 0.2607(2) 0.9582(2) 0.35853(12)
O7_13 O 0.2599(2) 0.8483(2) 0.36461(12)
O8_14 O 0.0612(2) 0.8552(3) 0.35490(12)
O9_14 O 0.2420(2) 0.8684(2) 0.43125(11)
O10_14 O 0.2109(3) 0.9922(2) 0.32188(11)
O11_13 O 0.2920(2) 0.9105(2) 0.39593(13)
O12_13 O 0.3099(3) 0.8211(3) 0.40762(14)
O13_14 O 0.1601(3) 0.7709(2) 0.36300(13)
O14_14 O 0.0129(3) 0.9092(3) 0.31067(16)
O16_14 O 0.2102(3) 0.8135(2) 0.32796(12)
O17_14 O 0.1715(3) 0.9538(3) 0.28024(12)
O18_14 O 0.1683(3) 0.8431(3) 0.28353(13)
O19_14 O 0.1167(3) 0.8130(2) 0.32359(12)
O20_13 O 0.2522(3) 0.7521(3) 0.35851(15)
O21_14 O 0.0661(3) 0.7574(3) 0.35584(16)
O22_14 O 0.0369(5) 0.8430(5) 0.2985(3)
C3_14 C 0.0067(5) 0.8745(5) 0.2983(3)
Mo1_14 Mo 0.16714(3) 0.94636(3) 0.310310(14)
Mo2_13 Mo 0.26159(3) 0.97183(3) 0.393963(15)
Mo3_14 Mo 0.16548(3) 0.85686(3) 0.312915(14)
Mo4_14 Mo 0.10011(4) 0.80226(3) 0.359268(17)
Mo5_14 Mo 0.21646(3) 0.79654(3) 0.359604(16)
Mo6_13 Mo 0.26558(3) 0.85558(3) 0.401261(15)
Zn1_14 Zn 0.06166(4) 0.91024(4) 0.33474(2)
Zn2_7 Zn 0.26438(4) 0.89920(4) 0.34252(2)
P1_14 P 0.15820(7) 0.90820(7) 0.3750
O23_14 O 0.1993(2) 0.9106(2) 0.39278(10)
O24_14 O 0.1136(2) 0.9090(2) 0.39035(10)
O25_14 O 0.1516(2) 0.9629(2) 0.43083(12)
O26_14 O 0.1525(2) 0.8682(2) 0.43449(11)
O27_14 O 0.0615(2) 0.9651(2) 0.35411(11)
O30_14 O 0.1052(3) 0.8112(2) 0.39510(12)
O31_14 O 0.1184(2) 0.9920(2) 0.31875(11)
O32_14 O 0.2422(2) 0.9609(3) 0.42812(11)
O35_14 O 0.0209(2) 0.9101(3) 0.38700(13)
O36_14 O 0.1592(3) 0.7629(3) 0.43933(16)
O38_14 O 0.0635(2) 0.9602(3) 0.42204(12)
O39_14 O 0.2038(3) 0.9215(3) 0.46976(12)
O40_14 O 0.0931(3) 0.9183(3) 0.46647(13)
O41_14 O 0.0630(2) 0.8667(3) 0.42641(12)
N2_8 N 0.1450(3) 0.5673(3) 0.57045(17)
O43_14 O 0.0074(3) 0.8161(3) 0.39416(16)
C13_14 C 0.1269(5) 0.7226(5) 0.4719(2)
C14_14 C 0.1668(5) 0.7041(5) 0.4778(3)
H9_14 H 0.1929 0.7128 0.4694
O44_14 O 0.0930(5) 0.7869(5) 0.4515(3)
C15_14 C 0.1245(5) 0.7567(5) 0.4517(3)
C16_13 C 0.1384(5) 0.6320(4) 0.5328(2)
C17_14 C 0.1697(5) 0.6706(5) 0.4973(3)
H10_14 H 0.1960 0.6534 0.4991
C18_13 C 0.1338(5) 0.6642(5) 0.5129(3)
C19_13 C 0.1719(6) 0.6006(6) 0.5334(3)
H11_13 H 0.1935 0.6005 0.5209
C20_13 C 0.1753(6) 0.5667(6) 0.5531(3)
H12_13 H 0.1985 0.5452 0.5531
C21_14 C 0.0915(8) 0.7155(7) 0.4874(4)
H13_14 H 0.0636 0.7292 0.4843
C22_13 C 0.1160(7) 0.6338(7) 0.5525(4)
H14_13 H 0.0968 0.6584 0.5550
C23_13 C 0.1188(7) 0.5985(7) 0.5716(4)
H15_13 H 0.0996 0.6005 0.5851
C24_13 C 0.0972(8) 0.6867(7) 0.5086(4)
H16_13 H 0.0732 0.6842 0.5197
Mo7_14 Mo 0.19636(3) 0.91714(3) 0.439690(14)
Mo9_14 Mo 0.10686(3) 0.91548(3) 0.437085(14)
Mo10_14 Mo 0.05226(3) 0.85011(4) 0.390732(17)
Mo11_14 Mo 0.04654(3) 0.96646(3) 0.390396(16)
Zn3_14 Zn 0.16024(4) 0.81166(4) 0.41526(2)
N4_7 N 0.3173(3) 0.8950(3) 0.32045(17)
Zn5_8 Zn 0.14920(4) 0.51438(4) 0.59252(2)
N1_8 N 0.8173(3) 0.8950(3) 0.17955(17)
C1_14 C 0.9726(5) 0.8769(5) 0.2781(2)
C2_14 C 0.9541(5) 0.9168(5) 0.2722(3)
H1_14 H 0.9628 0.9429 0.2806
C4_13 C 0.8820(4) 0.8884(5) 0.2172(2)
C5_14 C 0.9206(5) 0.9197(5) 0.2527(3)
H2_14 H 0.9034 0.9460 0.2509
C6_13 C 0.9142(5) 0.8838(5) 0.2371(3)
C7_13 C 0.8506(6) 0.9219(6) 0.2166(3)
H3_13 H 0.8505 0.9435 0.2291
C8_13 C 0.8167(6) 0.9253(6) 0.1969(3)
H4_13 H 0.7952 0.9485 0.1969
C9_14 C 0.9655(7) 0.8415(8) 0.2626(4)
H5_14 H 0.9792 0.8136 0.2657
C10_13 C 0.8838(7) 0.8660(7) 0.1975(4)
H6_13 H 0.9084 0.8468 0.1950
C11_13 C 0.8485(7) 0.8688(7) 0.1784(4)
H7_13 H 0.8505 0.8496 0.1649
C12_13 C 0.9367(7) 0.8472(8) 0.2414(4)
H8_13 H 0.9342 0.8232 0.2303
Zn6_8 Zn 0.76438(4) 0.89920(4) 0.15748(2)
O1_15 O 0.1606(2) 0.4493(2) 0.64278(10)
O2_15 O 0.1590(2) 0.3636(2) 0.64035(10)
O3_15 O 0.2129(2) 0.4016(2) 0.68083(12)
O4_15 O 0.1182(2) 0.4025(2) 0.68449(11)
O5_15 O 0.2151(2) 0.3115(2) 0.60411(11)
O6_14 O 0.2607(2) 0.4582(2) 0.64147(12)
O7_14 O 0.2599(2) 0.3483(2) 0.63539(12)
O8_15 O 0.0612(2) 0.3552(3) 0.64510(12)
O9_15 O 0.2420(2) 0.3684(2) 0.56875(11)
O10_15 O 0.2109(3) 0.4922(2) 0.67812(11)
O11_14 O 0.2920(2) 0.4105(2) 0.60407(13)
O12_14 O 0.3099(3) 0.3211(3) 0.59238(14)
O13_15 O 0.1601(3) 0.2709(2) 0.63700(13)
O14_15 O 0.0129(3) 0.4092(3) 0.68933(16)
O15_14 O 0.3065(3) 0.5059(3) 0.60163(15)
O16_15 O 0.2102(3) 0.3135(2) 0.67204(12)
O17_15 O 0.1715(3) 0.4538(3) 0.71976(12)
O18_15 O 0.1683(3) 0.3431(3) 0.71647(13)
O19_15 O 0.1167(3) 0.3130(2) 0.67641(12)
O20_14 O 0.2522(3) 0.2521(3) 0.64149(15)
O21_15 O 0.0661(3) 0.2574(3) 0.64416(16)
O22_15 O 0.0369(5) 0.3430(5) 0.7015(3)
C3_15 C 0.0067(5) 0.3745(5) 0.7017(3)
Mo1_15 Mo 0.16714(3) 0.44636(3) 0.689690(14)
Mo2_14 Mo 0.26159(3) 0.47183(3) 0.606037(15)
Mo3_15 Mo 0.16548(3) 0.35686(3) 0.687085(14)
Mo4_15 Mo 0.10011(4) 0.30226(3) 0.640732(17)
Mo5_15 Mo 0.21646(3) 0.29654(3) 0.640396(16)
Mo6_14 Mo 0.26558(3) 0.35558(3) 0.598739(15)
Zn1_15 Zn 0.06166(4) 0.41024(4) 0.66526(2)
P1_15 P 0.15820(7) 0.40820(7) 0.6250
O23_15 O 0.1993(2) 0.4106(2) 0.60722(10)
O24_15 O 0.1136(2) 0.4090(2) 0.60965(10)
O25_15 O 0.1516(2) 0.4629(2) 0.56917(12)
O26_15 O 0.1525(2) 0.3682(2) 0.56551(11)
O27_15 O 0.0615(2) 0.4651(2) 0.64589(11)
O28_15 O 0.2082(2) 0.5107(2) 0.60853(12)
O29_15 O 0.0983(2) 0.5099(2) 0.61461(12)
O30_15 O 0.1052(3) 0.3112(2) 0.60490(12)
O31_15 O 0.1184(2) 0.4920(2) 0.68125(11)
O32_15 O 0.2422(2) 0.4609(3) 0.57188(11)
O33_15 O 0.1605(2) 0.5420(2) 0.64593(13)
O34_15 O 0.0711(3) 0.5599(3) 0.65762(14)
O35_15 O 0.0209(2) 0.4101(3) 0.61300(13)
O36_15 O 0.1592(3) 0.2629(3) 0.56067(16)
O37_14 O 0.2559(3) 0.5565(3) 0.64837(15)
O38_15 O 0.0635(2) 0.4602(3) 0.57796(12)
O39_15 O 0.2038(3) 0.4215(3) 0.53024(12)
O40_15 O 0.0931(3) 0.4183(3) 0.53353(13)
O41_15 O 0.0630(2) 0.3667(3) 0.57359(12)
O42_15 O 0.0021(3) 0.5022(3) 0.60851(15)
O43_15 O 0.0074(3) 0.3161(3) 0.60584(16)
C13_15 C 0.1269(5) 0.2226(5) 0.5281(2)
C14_15 C 0.1668(5) 0.2041(5) 0.5222(3)
H9_15 H 0.1929 0.2128 0.5306
O44_15 O 0.0930(5) 0.2869(5) 0.5485(3)
C15_15 C 0.1245(5) 0.2567(5) 0.5483(3)
C16_14 C 0.1384(5) 0.1320(4) 0.4672(2)
C17_15 C 0.1697(5) 0.1706(5) 0.5027(3)
H10_15 H 0.1960 0.1534 0.5009
C18_14 C 0.1338(5) 0.1642(5) 0.4871(3)
C19_14 C 0.1719(6) 0.1006(6) 0.4666(3)
H11_14 H 0.1935 0.1005 0.4791
C20_14 C 0.1753(6) 0.0667(6) 0.4469(3)
H12_14 H 0.1985 0.0452 0.4469
C21_15 C 0.0915(8) 0.2155(7) 0.5126(4)
H13_15 H 0.0636 0.2292 0.5157
C22_14 C 0.1160(7) 0.1338(7) 0.4475(4)
H14_14 H 0.0968 0.1584 0.4450
C23_14 C 0.1188(7) 0.0985(7) 0.4284(4)
H15_14 H 0.0996 0.1005 0.4149
C24_14 C 0.0972(8) 0.1867(7) 0.4914(4)
H16_14 H 0.0732 0.1842 0.4803
Mo7_15 Mo 0.19636(3) 0.41714(3) 0.560310(14)
Mo8_15 Mo 0.22183(3) 0.51159(3) 0.643963(15)
Mo9_15 Mo 0.10686(3) 0.41548(3) 0.562915(14)
Mo10_15 Mo 0.05226(3) 0.35011(4) 0.609268(17)
Mo11_15 Mo 0.04654(3) 0.46646(3) 0.609604(16)
Mo12_15 Mo 0.10558(3) 0.51558(3) 0.651261(15)
Zn3_15 Zn 0.16024(4) 0.31166(4) 0.58474(2)
C1_15 C 0.9726(5) 0.3769(5) 0.7219(2)
C2_15 C 0.9541(5) 0.4168(5) 0.7278(3)
H1_15 H 0.9628 0.4429 0.7194
C4_14 C 0.8820(4) 0.3884(5) 0.7828(2)
C5_15 C 0.9206(5) 0.4197(5) 0.7473(3)
H2_15 H 0.9034 0.4460 0.7491
C6_14 C 0.9142(5) 0.3838(5) 0.7629(3)
C7_14 C 0.8506(6) 0.4219(6) 0.7834(3)
H3_14 H 0.8505 0.4435 0.7709
C8_14 C 0.8167(6) 0.4253(6) 0.8031(3)
H4_14 H 0.7952 0.4485 0.8031
C9_15 C 0.9655(7) 0.3415(8) 0.7374(4)
H5_15 H 0.9792 0.3136 0.7343
C10_14 C 0.8838(7) 0.3660(7) 0.8025(4)
H6_14 H 0.9084 0.3468 0.8050
C11_14 C 0.8485(7) 0.3688(7) 0.8216(4)
H7_14 H 0.8505 0.3496 0.8351
C12_14 C 0.9367(7) 0.3472(8) 0.7586(4)
H8_14 H 0.9342 0.3232 0.7697
O1_16 O 0.6606(2) 0.9493(2) 0.14278(10)
O2_16 O 0.6590(2) 0.8636(2) 0.14035(10)
O3_16 O 0.7129(2) 0.9016(2) 0.18083(12)
O4_16 O 0.6182(2) 0.9025(2) 0.18449(11)
O5_16 O 0.7151(2) 0.8115(2) 0.10411(11)
O6_15 O 0.7607(2) 0.9582(2) 0.14147(12)
O7_15 O 0.7599(2) 0.8483(2) 0.13539(12)
O8_16 O 0.5612(2) 0.8552(3) 0.14510(12)
O9_16 O 0.7420(2) 0.8684(2) 0.06875(11)
O10_16 O 0.7109(3) 0.9922(2) 0.17812(11)
O11_15 O 0.7920(2) 0.9105(2) 0.10407(13)
O12_15 O 0.8099(3) 0.8211(3) 0.09238(14)
O13_16 O 0.6601(3) 0.7709(2) 0.13700(13)
O14_16 O 0.5129(3) 0.9092(3) 0.18933(16)
O16_16 O 0.7102(3) 0.8135(2) 0.17204(12)
O17_16 O 0.6715(3) 0.9538(3) 0.21976(12)
O18_16 O 0.6683(3) 0.8431(3) 0.21647(13)
O19_16 O 0.6167(3) 0.8130(2) 0.17641(12)
O20_15 O 0.7522(3) 0.7521(3) 0.14149(15)
O21_16 O 0.5661(3) 0.7574(3) 0.14416(16)
C1_16 C 0.4726(5) 0.8769(5) 0.2219(2)
C2_16 C 0.4541(5) 0.9168(5) 0.2278(3)
H1_16 H 0.4628 0.9429 0.2194
O22_16 O 0.5369(5) 0.8430(5) 0.2015(3)
C3_16 C 0.5067(5) 0.8745(5) 0.2017(3)
C4_15 C 0.3820(4) 0.8884(5) 0.2828(2)
C5_16 C 0.4206(5) 0.9197(5) 0.2473(3)
H2_16 H 0.4034 0.9460 0.2491
C6_15 C 0.4142(5) 0.8838(5) 0.2629(3)
C7_15 C 0.3506(6) 0.9219(6) 0.2834(3)
H3_15 H 0.3505 0.9435 0.2709
C8_15 C 0.3167(6) 0.9253(6) 0.3031(3)
H4_15 H 0.2952 0.9485 0.3031
C9_16 C 0.4655(7) 0.8415(8) 0.2374(4)
H5_16 H 0.4792 0.8136 0.2343
C10_15 C 0.3838(7) 0.8660(7) 0.3025(4)
H6_15 H 0.4084 0.8468 0.3050
C11_15 C 0.3485(7) 0.8688(7) 0.3216(4)
H7_15 H 0.3505 0.8496 0.3351
C12_15 C 0.4367(7) 0.8472(8) 0.2586(4)
H8_15 H 0.4342 0.8232 0.2697
Mo1_16 Mo 0.66714(3) 0.94636(3) 0.189690(14)
Mo2_15 Mo 0.76159(3) 0.97183(3) 0.106037(15)
Mo3_16 Mo 0.66548(3) 0.85686(3) 0.187085(14)
Mo4_16 Mo 0.60011(4) 0.80226(3) 0.140732(17)
Mo5_16 Mo 0.71646(3) 0.79654(3) 0.140396(16)
Mo6_15 Mo 0.76558(3) 0.85558(3) 0.098739(15)
Zn1_16 Zn 0.56166(4) 0.91024(4) 0.16526(2)
P1_16 P 0.65820(7) 0.90820(7) 0.1250
O23_16 O 0.6993(2) 0.9106(2) 0.10722(10)
O24_16 O 0.6136(2) 0.9090(2) 0.10965(10)
O25_16 O 0.6516(2) 0.9629(2) 0.06917(12)
O26_16 O 0.6525(2) 0.8682(2) 0.06551(11)
O27_16 O 0.5615(2) 0.9651(2) 0.14589(11)
O30_16 O 0.6052(3) 0.8112(2) 0.10490(12)
O31_16 O 0.6184(2) 0.9920(2) 0.18125(11)
O32_16 O 0.7422(2) 0.9609(3) 0.07188(11)
O35_16 O 0.5209(2) 0.9101(3) 0.11300(13)
O36_16 O 0.6592(3) 0.7629(3) 0.06067(16)
O38_16 O 0.5635(2) 0.9602(3) 0.07796(12)
O39_16 O 0.7038(3) 0.9215(3) 0.03024(12)
O40_16 O 0.5931(3) 0.9183(3) 0.03353(13)
O41_16 O 0.5630(2) 0.8667(3) 0.07359(12)
O43_16 O 0.5074(3) 0.8161(3) 0.10584(16)
C13_16 C 0.6269(5) 0.7226(5) 0.0281(2)
C14_16 C 0.6668(5) 0.7041(5) 0.0222(3)
H9_16 H 0.6929 0.7128 0.0306
O44_16 O 0.5930(5) 0.7869(5) 0.0485(3)
C15_16 C 0.6245(5) 0.7567(5) 0.0483(3)
C17_16 C 0.6697(5) 0.6706(5) 0.0027(3)
H10_16 H 0.6960 0.6534 0.0009
C21_16 C 0.5915(8) 0.7155(7) 0.0126(4)
H13_16 H 0.5636 0.7292 0.0157
Mo7_16 Mo 0.69636(3) 0.91714(3) 0.060310(14)
Mo9_16 Mo 0.60686(3) 0.91548(3) 0.062915(14)
Mo10_16 Mo 0.55226(3) 0.85011(4) 0.109268(17)
Mo11_16 Mo 0.54654(3) 0.96646(3) 0.109604(16)
Zn3_16 Zn 0.66024(4) 0.81166(4) 0.08474(2)
C16_15 C 0.6384(5) 0.6320(4) 0.9672(2)
C18_15 C 0.6338(5) 0.6642(5) 0.9871(3)
C19_15 C 0.6719(6) 0.6006(6) 0.9666(3)
H11_15 H 0.6935 0.6005 0.9791
C20_15 C 0.6753(6) 0.5667(6) 0.9469(3)
H12_15 H 0.6985 0.5452 0.9469
C22_15 C 0.6160(7) 0.6338(7) 0.9475(4)
H14_15 H 0.5968 0.6584 0.9450
C23_15 C 0.6188(7) 0.5985(7) 0.9284(4)
H15_15 H 0.5996 0.6005 0.9149
C24_15 C 0.5972(8) 0.6867(7) 0.9914(4)
H16_15 H 0.5732 0.6842 0.9803
O6_16 O 0.2082(2) 0.9893(2) 0.10853(12)
O7_16 O 0.0983(2) 0.9901(2) 0.11461(12)
O11_16 O 0.1605(2) 0.9580(2) 0.14593(13)
O12_16 O 0.0711(3) 0.9401(3) 0.15762(14)
O15_15 O 0.2559(3) 0.9435(3) 0.14837(15)
O20_16 O 0.0021(3) 0.9978(3) 0.10851(15)
Mo2_16 Mo 0.22183(3) 0.98841(3) 0.143963(15)
Mo6_16 Mo 0.10558(3) 0.98442(3) 0.151261(15)
Zn2_8 Zn 0.14920(4) 0.98562(4) 0.09252(2)
O37_15 O 0.3065(3) 0.9941(3) 0.10163(15)
N4_8 N 0.1450(3) 0.9327(3) 0.07045(17)
C4_16 C 0.1384(5) 0.8680(4) 0.0328(2)
C6_16 C 0.1338(5) 0.8358(5) 0.0129(3)
C7_16 C 0.1719(6) 0.8994(6) 0.0334(3)
H3_16 H 0.1935 0.8995 0.0209
C8_16 C 0.1753(6) 0.9333(6) 0.0531(3)
H4_16 H 0.1985 0.9548 0.0531
C10_16 C 0.1160(7) 0.8662(7) 0.0525(4)
H6_16 H 0.0968 0.8416 0.0550
C11_16 C 0.1188(7) 0.9015(7) 0.0716(4)
H7_16 H 0.0996 0.8995 0.0851
C12_16 C 0.0972(8) 0.8133(7) 0.0086(4)
H8_16 H 0.0732 0.8158 0.0197
O15_16 O 0.1935(3) 0.9941(3) 0.89837(15)
O28_16 O 0.2918(2) 0.9893(2) 0.89147(12)
O29_16 O 0.4017(2) 0.9901(2) 0.88539(12)
O33_16 O 0.3395(2) 0.9580(2) 0.85407(13)
O34_16 O 0.4289(3) 0.9401(3) 0.84238(14)
O37_16 O 0.2441(3) 0.9435(3) 0.85163(15)
O42_16 O 0.4979(3) 0.9978(3) 0.89149(15)
Mo8_16 Mo 0.27817(3) 0.98841(3) 0.856037(15)
Mo12_16 Mo 0.39442(3) 0.98442(3) 0.848739(15)
Zn4_8 Zn 0.35080(4) 0.98562(4) 0.90748(2)
N3_8 N 0.3550(3) 0.9327(3) 0.92955(17)
C16_16 C 0.3616(5) 0.8680(4) 0.9672(2)
C18_16 C 0.3662(5) 0.8358(5) 0.9871(3)
C19_16 C 0.3281(6) 0.8994(6) 0.9666(3)
H11_16 H 0.3065 0.8995 0.9791
C20_16 C 0.3247(6) 0.9333(6) 0.9469(3)
H12_16 H 0.3015 0.9548 0.9469
C22_16 C 0.3840(7) 0.8662(7) 0.9475(4)
H14_16 H 0.4032 0.8416 0.9450
C23_16 C 0.3812(7) 0.9015(7) 0.9284(4)
H15_16 H 0.4004 0.8995 0.9149
C24_16 C 0.4028(8) 0.8133(7) 0.9914(4)
H16_16 H 0.4268 0.8158 0.9803
C29 C 0.0147(7) 0.4301(7) 0.9779(4)
H25 H 0.0093 0.4251 0.9952
H26 H 0.0261 0.4019 0.9710
C33 C 0.0488(7) 0.4648(7) 0.9751(4)
H33 H 0.0763 0.4554 0.9831
H34 H 0.0382 0.4925 0.9824
H35 H 0.0546 0.4697 0.9580
H48 H 0.8149 0.3124 0.0045
N5 N 0.8877(4) 0.4158(4) 0.9586(2)
C25 C 0.8676(6) 0.4529(6) 0.9733(3)
H17 H 0.8742 0.4465 0.9904
H18 H 0.8835 0.4806 0.9691
C26 C 0.9342(6) 0.4047(6) 0.9678(3)
H19 H 0.9452 0.3782 0.9590
H20 H 0.9319 0.3964 0.9850
C27 C 0.8898(6) 0.4292(6) 0.9319(3)
H21 H 0.8588 0.4335 0.9264
H22 H 0.9046 0.4586 0.9310
C28 C 0.9690(6) 0.4421(6) 0.9653(3)
H23 H 0.9570 0.4697 0.9726
H24 H 0.9744 0.4480 0.9481
C30 C 0.8055(7) 0.5068(7) 0.9795(4)
H27 H 0.8206 0.5129 0.9950
H28 H 0.7731 0.5062 0.9827
C31 C 0.8190(7) 0.4622(7) 0.9714(4)
H29 H 0.8098 0.4584 0.9545
H30 H 0.8027 0.4397 0.9811
C32 C 0.9079(7) 0.4225(7) 0.8894(4)
H31 H 0.8762 0.4283 0.8855
H32 H 0.9237 0.4514 0.8893
C34 C 0.8567(7) 0.3744(7) 0.9612(4)
H36 H 0.8267 0.3824 0.9552
H37 H 0.8683 0.3503 0.9508
C35 C 0.9110(8) 0.4012(7) 0.9151(4)
H38 H 0.8966 0.3716 0.9150
H39 H 0.9426 0.3972 0.9196
C36 C 0.8523(7) 0.3572(7) 0.9858(4)
H40 H 0.8485 0.3825 0.9971
H41 H 0.8798 0.3413 0.9903
C37 C 0.8151(9) 0.5457(9) 0.9626(5)
H42 H 0.8047 0.5734 0.9699
H43 H 0.7995 0.5410 0.9473
H44 H 0.8471 0.5476 0.9596
C38 C 0.8058(11) 0.2901(10) 0.9714(5)
H45 H 0.7782 0.2745 0.9755
H46 H 0.8308 0.2693 0.9722
H47 H 0.8035 0.3023 0.9552
C39 C 0.8130(10) 0.3260(10) 0.9883(5)
H49 H 0.7858 0.3446 0.9881
C40 C 0.9267(13) 0.3942(13) 0.8715(7)
H50 H 0.9244 0.4085 0.8558
H51 H 0.9105 0.3659 0.8713
H52 H 0.9580 0.3887 0.8753
N5_2 N 0.6123(4) 0.5842(4) 0.4586(2)
C25_2 C 0.6324(6) 0.5471(6) 0.4733(3)
H17_2 H 0.6258 0.5535 0.4904
H18_2 H 0.6165 0.5194 0.4691
C26_2 C 0.5658(6) 0.5953(6) 0.4678(3)
H19_2 H 0.5548 0.6218 0.4590
H20_2 H 0.5681 0.6036 0.4850
C27_2 C 0.6102(6) 0.5708(6) 0.4319(3)
H21_2 H 0.6412 0.5665 0.4264
H22_2 H 0.5954 0.5414 0.4310
C28_2 C 0.5310(6) 0.5579(6) 0.4653(3)
H23_2 H 0.5430 0.5303 0.4726
H24_2 H 0.5256 0.5520 0.4481
C29_2 C 0.4853(7) 0.5699(7) 0.4779(4)
H25_2 H 0.4907 0.5749 0.4952
H26_2 H 0.4739 0.5981 0.4710
C30_2 C 0.6945(7) 0.4932(7) 0.4795(4)
H27_2 H 0.6794 0.4871 0.4950
H28_2 H 0.7269 0.4938 0.4827
C31_2 C 0.6810(7) 0.5378(7) 0.4714(4)
H29_2 H 0.6902 0.5416 0.4545
H30_2 H 0.6973 0.5603 0.4811
C32_2 C 0.5921(7) 0.5775(7) 0.3894(4)
H31_2 H 0.6238 0.5717 0.3855
H32_2 H 0.5763 0.5486 0.3893
C33_2 C 0.4512(7) 0.5352(7) 0.4751(4)
H33_2 H 0.4237 0.5446 0.4831
H34_2 H 0.4618 0.5075 0.4824
H35_2 H 0.4454 0.5303 0.4580
C34_2 C 0.6433(7) 0.6256(7) 0.4612(4)
H36_2 H 0.6733 0.6176 0.4552
H37_2 H 0.6317 0.6497 0.4508
C35_2 C 0.5890(8) 0.5988(7) 0.4151(4)
H38_2 H 0.6034 0.6284 0.4150
H39_2 H 0.5574 0.6028 0.4196
C36_2 C 0.6477(7) 0.6428(7) 0.4858(4)
H40_2 H 0.6515 0.6175 0.4971
H41_2 H 0.6202 0.6587 0.4903
C37_2 C 0.6849(9) 0.4543(9) 0.4626(5)
H42_2 H 0.6953 0.4266 0.4699
H43_2 H 0.7005 0.4590 0.4473
H44_2 H 0.6529 0.4524 0.4596
C38_2 C 0.6942(11) 0.7099(10) 0.4714(5)
H45_2 H 0.7218 0.7255 0.4755
H46_2 H 0.6692 0.7307 0.4722
H47_2 H 0.6965 0.6977 0.4552
C39_2 C 0.6870(10) 0.6740(10) 0.4883(5)
H48_2 H 0.6851 0.6876 0.5045
H49_2 H 0.7142 0.6554 0.4881
C40_2 C 0.5733(13) 0.6058(13) 0.3715(7)
H50_2 H 0.5756 0.5915 0.3558
H51_2 H 0.5895 0.6341 0.3713
H52_2 H 0.5420 0.6113 0.3753
N5_3 N 0.8342(4) 0.6377(4) 0.2086(2)
C25_3 C 0.7971(6) 0.6176(6) 0.2233(3)
H17_3 H 0.8035 0.6242 0.2404
H18_3 H 0.7694 0.6335 0.2191
C26_3 C 0.8453(6) 0.6842(6) 0.2178(3)
H19_3 H 0.8718 0.6952 0.2090
H20_3 H 0.8536 0.6819 0.2350
C27_3 C 0.8208(6) 0.6398(6) 0.1819(3)
H21_3 H 0.8165 0.6088 0.1764
H22_3 H 0.7914 0.6546 0.1810
C28_3 C 0.8079(6) 0.7190(6) 0.2153(3)
H23_3 H 0.7803 0.7070 0.2226
H24_3 H 0.8020 0.7244 0.1981
C29_3 C 0.8199(7) 0.7647(7) 0.2279(4)
H25_3 H 0.8249 0.7593 0.2452
H26_3 H 0.8481 0.7761 0.2210
C30_3 C 0.7432(7) 0.5555(7) 0.2295(4)
H27_3 H 0.7371 0.5706 0.2450
H28_3 H 0.7438 0.5231 0.2327
C31_3 C 0.7878(7) 0.5690(7) 0.2214(4)
H29_3 H 0.7916 0.5598 0.2045
H30_3 H 0.8103 0.5527 0.2311
C32_3 C 0.8275(7) 0.6579(7) 0.1394(4)
H31_3 H 0.8217 0.6262 0.1355
H32_3 H 0.7986 0.6737 0.1393
C33_3 C 0.7852(7) 0.7988(7) 0.2251(4)
H33_3 H 0.7946 0.8263 0.2331
H34_3 H 0.7575 0.7882 0.2324
H35_3 H 0.7803 0.8046 0.2080
C34_3 C 0.8756(7) 0.6067(7) 0.2112(4)
H36_3 H 0.8676 0.5767 0.2052
H37_3 H 0.8997 0.6183 0.2008
C35_3 C 0.8488(7) 0.6610(8) 0.1651(4)
H38_3 H 0.8784 0.6466 0.1650
H39_3 H 0.8528 0.6926 0.1696
C36_3 C 0.8928(7) 0.6023(7) 0.2358(4)
H40_3 H 0.8675 0.5985 0.2471
H41_3 H 0.9087 0.6298 0.2403
C37_3 C 0.7043(9) 0.5651(9) 0.2126(5)
H42_3 H 0.6766 0.5547 0.2199
H43_3 H 0.7090 0.5495 0.1973
H44_3 H 0.7024 0.5971 0.2096
C38_3 C 0.9599(10) 0.5558(11) 0.2214(5)
H45_3 H 0.9755 0.5282 0.2255
H46_3 H 0.9807 0.5808 0.2222
H47_3 H 0.9477 0.5535 0.2052
C39_3 C 0.9240(10) 0.5630(10) 0.2383(5)
H48_3 H 0.9376 0.5649 0.2545
H49_3 H 0.9054 0.5358 0.2381
C40_3 C 0.8558(13) 0.6767(13) 0.1215(7)
H50_3 H 0.8415 0.6744 0.1058
H51_3 H 0.8841 0.6605 0.1213
H52_3 H 0.8613 0.7080 0.1253
N5_4 N 0.6658(4) 0.3623(4) 0.7086(2)
C25_4 C 0.7029(6) 0.3824(6) 0.7233(3)
H17_4 H 0.6965 0.3758 0.7404
H18_4 H 0.7306 0.3665 0.7191
C26_4 C 0.6547(6) 0.3158(6) 0.7178(3)
H19_4 H 0.6282 0.3048 0.7090
H20_4 H 0.6464 0.3181 0.7350
C27_4 C 0.6792(6) 0.3602(6) 0.6819(3)
H21_4 H 0.6835 0.3912 0.6764
H22_4 H 0.7086 0.3454 0.6810
C28_4 C 0.6921(6) 0.2810(6) 0.7153(3)
H23_4 H 0.7197 0.2930 0.7226
H24_4 H 0.6980 0.2756 0.6981
C29_4 C 0.6801(7) 0.2353(7) 0.7279(4)
H25_4 H 0.6751 0.2407 0.7452
H26_4 H 0.6519 0.2239 0.7210
C30_4 C 0.7568(7) 0.4445(7) 0.7295(4)
H27_4 H 0.7629 0.4294 0.7450
H28_4 H 0.7562 0.4769 0.7327
C31_4 C 0.7122(7) 0.4310(7) 0.7214(4)
H29_4 H 0.7084 0.4402 0.7045
H30_4 H 0.6897 0.4473 0.7311
C32_4 C 0.6725(7) 0.3421(7) 0.6394(4)
H31_4 H 0.6783 0.3738 0.6355
H32_4 H 0.7014 0.3263 0.6393
C33_4 C 0.7148(7) 0.2012(7) 0.7251(4)
H33_4 H 0.7054 0.1737 0.7331
H34_4 H 0.7425 0.2118 0.7324
H35_4 H 0.7197 0.1954 0.7080
C34_4 C 0.6244(7) 0.3933(7) 0.7112(4)
H36_4 H 0.6324 0.4233 0.7052
H37_4 H 0.6003 0.3817 0.7008
C35_4 C 0.6512(7) 0.3390(8) 0.6651(4)
H38_4 H 0.6216 0.3534 0.6650
H39_4 H 0.6472 0.3074 0.6696
C36_4 C 0.6072(7) 0.3977(7) 0.7358(4)
H40_4 H 0.6325 0.4015 0.7471
H41_4 H 0.5913 0.3702 0.7403
C37_4 C 0.7957(9) 0.4349(9) 0.7126(5)
H42_4 H 0.8234 0.4453 0.7199
H43_4 H 0.7910 0.4505 0.6973
H44_4 H 0.7976 0.4029 0.7096
C38_4 C 0.5401(10) 0.4442(11) 0.7214(5)
H45_4 H 0.5245 0.4718 0.7255
H46_4 H 0.5193 0.4192 0.7222
H47_4 H 0.5523 0.4465 0.7052
C39_4 C 0.5760(10) 0.4370(10) 0.7383(5)
H48_4 H 0.5624 0.4351 0.7545
H49_4 H 0.5946 0.4642 0.7381
C40_4 C 0.6442(13) 0.3233(13) 0.6215(7)
H50_4 H 0.6585 0.3256 0.6058
H51_4 H 0.6159 0.3395 0.6213
H52_4 H 0.6387 0.2920 0.6253
N5_5 N 0.6123(4) 0.4158(4) 0.0414(2)
C25_5 C 0.6324(6) 0.4529(6) 0.0267(3)
H17_5 H 0.6258 0.4465 0.0096
H18_5 H 0.6165 0.4806 0.0309
C26_5 C 0.5658(6) 0.4047(6) 0.0322(3)
H19_5 H 0.5548 0.3782 0.0410
H20_5 H 0.5681 0.3964 0.0150
C27_5 C 0.6102(6) 0.4292(6) 0.0681(3)
H21_5 H 0.6412 0.4335 0.0736
H22_5 H 0.5954 0.4586 0.0690
C28_5 C 0.5310(6) 0.4421(6) 0.0347(3)
H23_5 H 0.5430 0.4697 0.0274
H24_5 H 0.5256 0.4480 0.0519
C29_5 C 0.4853(7) 0.4301(7) 0.0221(4)
H25_5 H 0.4907 0.4251 0.0048
H26_5 H 0.4739 0.4019 0.0290
C30_5 C 0.6945(7) 0.5068(7) 0.0205(4)
H27_5 H 0.6794 0.5129 0.0050
H28_5 H 0.7269 0.5062 0.0173
C31_5 C 0.6810(7) 0.4622(7) 0.0286(4)
H29_5 H 0.6902 0.4584 0.0455
H30_5 H 0.6973 0.4397 0.0189
C32_5 C 0.5921(7) 0.4225(7) 0.1106(4)
H31_5 H 0.6238 0.4283 0.1145
H32_5 H 0.5763 0.4514 0.1107
C33_5 C 0.4512(7) 0.4648(7) 0.0249(4)
H33_5 H 0.4237 0.4554 0.0169
H34_5 H 0.4618 0.4925 0.0176
H35_5 H 0.4454 0.4697 0.0420
C34_5 C 0.6433(7) 0.3744(7) 0.0388(4)
H36_5 H 0.6733 0.3824 0.0448
H37_5 H 0.6317 0.3503 0.0492
C35_5 C 0.5890(8) 0.4012(7) 0.0849(4)
H38_5 H 0.6034 0.3716 0.0850
H39_5 H 0.5574 0.3972 0.0804
C36_5 C 0.6477(7) 0.3572(7) 0.0142(4)
H40_5 H 0.6515 0.3825 0.0029
H41_5 H 0.6202 0.3413 0.0097
C37_5 C 0.6849(9) 0.5457(9) 0.0374(5)
H42_5 H 0.6953 0.5734 0.0301
H43_5 H 0.7005 0.5410 0.0527
H44_5 H 0.6529 0.5476 0.0404
C38_5 C 0.6942(11) 0.2901(10) 0.0286(5)
H45_5 H 0.7218 0.2745 0.0245
H46_5 H 0.6692 0.2693 0.0278
H47_5 H 0.6965 0.3023 0.0448
C39_5 C 0.6870(10) 0.3260(10) 0.0117(5)
H49_5 H 0.7142 0.3446 0.0119
C40_5 C 0.5733(13) 0.3942(13) 0.1285(7)
H50_5 H 0.5756 0.4085 0.1442
H51_5 H 0.5895 0.3659 0.1287
H52_5 H 0.5420 0.3887 0.1247
H48_5 H 0.6851 0.3124 0.9955
C29_6 C 0.0147(7) 0.5699(7) 0.5221(4)
H25_6 H 0.0093 0.5749 0.5048
H26_6 H 0.0261 0.5981 0.5290
C33_6 C 0.0488(7) 0.5352(7) 0.5249(4)
H33_6 H 0.0763 0.5446 0.5169
H34_6 H 0.0382 0.5075 0.5176
H35_6 H 0.0546 0.5303 0.5420
N5_6 N 0.8877(4) 0.5842(4) 0.5414(2)
C25_6 C 0.8676(6) 0.5471(6) 0.5267(3)
H17_6 H 0.8742 0.5535 0.5096
H18_6 H 0.8835 0.5194 0.5309
C26_6 C 0.9342(6) 0.5953(6) 0.5322(3)
H19_6 H 0.9452 0.6218 0.5410
H20_6 H 0.9319 0.6036 0.5150
C27_6 C 0.8898(6) 0.5708(6) 0.5681(3)
H21_6 H 0.8588 0.5665 0.5736
H22_6 H 0.9046 0.5414 0.5690
C28_6 C 0.9690(6) 0.5579(6) 0.5347(3)
H23_6 H 0.9570 0.5303 0.5274
H24_6 H 0.9744 0.5520 0.5519
C30_6 C 0.8055(7) 0.4932(7) 0.5205(4)
H27_6 H 0.8206 0.4871 0.5050
H28_6 H 0.7731 0.4938 0.5173
C31_6 C 0.8190(7) 0.5378(7) 0.5286(4)
H29_6 H 0.8098 0.5416 0.5455
H30_6 H 0.8027 0.5603 0.5189
C32_6 C 0.9079(7) 0.5775(7) 0.6106(4)
H31_6 H 0.8762 0.5717 0.6145
H32_6 H 0.9237 0.5486 0.6107
C34_6 C 0.8567(7) 0.6256(7) 0.5388(4)
H36_6 H 0.8267 0.6176 0.5448
H37_6 H 0.8683 0.6497 0.5492
C35_6 C 0.9110(8) 0.5988(7) 0.5849(4)
H38_6 H 0.8966 0.6284 0.5850
H39_6 H 0.9426 0.6028 0.5804
C36_6 C 0.8523(7) 0.6428(7) 0.5142(4)
H40_6 H 0.8485 0.6175 0.5029
H41_6 H 0.8798 0.6587 0.5097
C37_6 C 0.8151(9) 0.4543(9) 0.5374(5)
H42_6 H 0.8047 0.4266 0.5301
H43_6 H 0.7995 0.4590 0.5527
H44_6 H 0.8471 0.4524 0.5404
C38_6 C 0.8058(11) 0.7099(10) 0.5286(5)
H45_6 H 0.7782 0.7255 0.5245
H46_6 H 0.8308 0.7307 0.5278
H47_6 H 0.8035 0.6977 0.5448
C39_6 C 0.8130(10) 0.6740(10) 0.5117(5)
H48_6 H 0.8149 0.6876 0.4955
H49_6 H 0.7858 0.6554 0.5119
C40_6 C 0.9267(13) 0.6058(13) 0.6285(7)
H50_6 H 0.9244 0.5915 0.6442
H51_6 H 0.9105 0.6341 0.6287
H52_6 H 0.9580 0.6113 0.6247
N5_7 N 0.6658(4) 0.6377(4) 0.7914(2)
C25_7 C 0.7029(6) 0.6176(6) 0.7767(3)
H17_7 H 0.6965 0.6242 0.7596
H18_7 H 0.7306 0.6335 0.7809
C26_7 C 0.6547(6) 0.6842(6) 0.7822(3)
H19_7 H 0.6282 0.6952 0.7910
H20_7 H 0.6464 0.6819 0.7650
C27_7 C 0.6792(6) 0.6398(6) 0.8181(3)
H21_7 H 0.6835 0.6088 0.8236
H22_7 H 0.7086 0.6546 0.8190
C28_7 C 0.6921(6) 0.7190(6) 0.7847(3)
H23_7 H 0.7197 0.7070 0.7774
H24_7 H 0.6980 0.7244 0.8019
C29_7 C 0.6801(7) 0.7647(7) 0.7721(4)
H25_7 H 0.6751 0.7593 0.7548
H26_7 H 0.6519 0.7761 0.7790
C30_7 C 0.7568(7) 0.5555(7) 0.7705(4)
H27_7 H 0.7629 0.5706 0.7550
H28_7 H 0.7562 0.5231 0.7673
C31_7 C 0.7122(7) 0.5690(7) 0.7786(4)
H29_7 H 0.7084 0.5598 0.7955
H30_7 H 0.6897 0.5527 0.7689
C32_7 C 0.6725(7) 0.6579(7) 0.8606(4)
H31_7 H 0.6783 0.6262 0.8645
H32_7 H 0.7014 0.6737 0.8607
C33_7 C 0.7148(7) 0.7988(7) 0.7749(4)
H33_7 H 0.7054 0.8263 0.7669
H34_7 H 0.7425 0.7882 0.7676
H35_7 H 0.7197 0.8046 0.7920
C34_7 C 0.6244(7) 0.6067(7) 0.7888(4)
H36_7 H 0.6324 0.5767 0.7948
H37_7 H 0.6003 0.6183 0.7992
C35_7 C 0.6512(7) 0.6610(8) 0.8349(4)
H38_7 H 0.6216 0.6466 0.8350
H39_7 H 0.6472 0.6926 0.8304
C36_7 C 0.6072(7) 0.6023(7) 0.7642(4)
H40_7 H 0.6325 0.5985 0.7529
H41_7 H 0.5913 0.6298 0.7597
C37_7 C 0.7957(9) 0.5651(9) 0.7874(5)
H42_7 H 0.8234 0.5547 0.7801
H43_7 H 0.7910 0.5495 0.8027
H44_7 H 0.7976 0.5971 0.7904
C38_7 C 0.5401(10) 0.5558(11) 0.7786(5)
H45_7 H 0.5245 0.5282 0.7745
H46_7 H 0.5193 0.5808 0.7778
H47_7 H 0.5523 0.5535 0.7948
C39_7 C 0.5760(10) 0.5630(10) 0.7617(5)
H48_7 H 0.5624 0.5649 0.7455
H49_7 H 0.5946 0.5358 0.7619
C40_7 C 0.6442(13) 0.6767(13) 0.8785(7)
H50_7 H 0.6585 0.6744 0.8942
H51_7 H 0.6159 0.6605 0.8787
H52_7 H 0.6387 0.7080 0.8747
N5_8 N 0.8342(4) 0.3623(4) 0.2914(2)
C25_8 C 0.7971(6) 0.3824(6) 0.2767(3)
H17_8 H 0.8035 0.3758 0.2596
H18_8 H 0.7694 0.3665 0.2809
C26_8 C 0.8453(6) 0.3158(6) 0.2822(3)
H19_8 H 0.8718 0.3048 0.2910
H20_8 H 0.8536 0.3181 0.2650
C27_8 C 0.8208(6) 0.3602(6) 0.3181(3)
H21_8 H 0.8165 0.3912 0.3236
H22_8 H 0.7914 0.3454 0.3190
C28_8 C 0.8079(6) 0.2810(6) 0.2847(3)
H23_8 H 0.7803 0.2930 0.2774
H24_8 H 0.8020 0.2756 0.3019
C29_8 C 0.8199(7) 0.2353(7) 0.2721(4)
H25_8 H 0.8249 0.2407 0.2548
H26_8 H 0.8481 0.2239 0.2790
C30_8 C 0.7432(7) 0.4445(7) 0.2705(4)
H27_8 H 0.7371 0.4294 0.2550
H28_8 H 0.7438 0.4769 0.2673
C31_8 C 0.7878(7) 0.4310(7) 0.2786(4)
H29_8 H 0.7916 0.4402 0.2955
H30_8 H 0.8103 0.4473 0.2689
C32_8 C 0.8275(7) 0.3421(7) 0.3606(4)
H31_8 H 0.8217 0.3738 0.3645
H32_8 H 0.7986 0.3263 0.3607
C33_8 C 0.7852(7) 0.2012(7) 0.2749(4)
H33_8 H 0.7946 0.1737 0.2669
H34_8 H 0.7575 0.2118 0.2676
H35_8 H 0.7803 0.1954 0.2920
C34_8 C 0.8756(7) 0.3933(7) 0.2888(4)
H36_8 H 0.8676 0.4233 0.2948
H37_8 H 0.8997 0.3817 0.2992
C35_8 C 0.8488(7) 0.3390(8) 0.3349(4)
H38_8 H 0.8784 0.3534 0.3350
H39_8 H 0.8528 0.3074 0.3304
C36_8 C 0.8928(7) 0.3977(7) 0.2642(4)
H40_8 H 0.8675 0.4015 0.2529
H41_8 H 0.9087 0.3702 0.2597
C37_8 C 0.7043(9) 0.4349(9) 0.2874(5)
H42_8 H 0.6766 0.4453 0.2801
H43_8 H 0.7090 0.4505 0.3027
H44_8 H 0.7024 0.4029 0.2904
C38_8 C 0.9599(10) 0.4442(11) 0.2786(5)
H45_8 H 0.9755 0.4718 0.2745
H46_8 H 0.9807 0.4192 0.2778
H47_8 H 0.9477 0.4465 0.2948
C39_8 C 0.9240(10) 0.4370(10) 0.2617(5)
H48_8 H 0.9376 0.4351 0.2455
H49_8 H 0.9054 0.4642 0.2619
C40_8 C 0.8558(13) 0.3233(13) 0.3785(7)
H50_8 H 0.8415 0.3256 0.3942
H51_8 H 0.8841 0.3395 0.3787
H52_8 H 0.8613 0.2920 0.3747
C30_9 C 0.3055(7) 0.0068(7) 0.4795(4)
H27_9 H 0.3206 0.0129 0.4950
H28_9 H 0.2731 0.0062 0.4827
C37_9 C 0.3151(9) 0.0457(9) 0.4626(5)
H42_9 H 0.3047 0.0734 0.4699
H43_9 H 0.2995 0.0410 0.4473
H44_9 H 0.3471 0.0476 0.4596
N5_9 N 0.3877(4) 0.9158(4) 0.4586(2)
C25_9 C 0.3676(6) 0.9529(6) 0.4733(3)
H17_9 H 0.3742 0.9465 0.4904
H18_9 H 0.3835 0.9806 0.4691
C26_9 C 0.4342(6) 0.9047(6) 0.4678(3)
H19_9 H 0.4452 0.8782 0.4590
H20_9 H 0.4319 0.8964 0.4850
C27_9 C 0.3898(6) 0.9292(6) 0.4319(3)
H21_9 H 0.3588 0.9335 0.4264
H22_9 H 0.4046 0.9586 0.4310
C28_9 C 0.4690(6) 0.9421(6) 0.4653(3)
H23_9 H 0.4570 0.9697 0.4726
H24_9 H 0.4744 0.9480 0.4481
C29_9 C 0.5147(7) 0.9301(7) 0.4779(4)
H25_9 H 0.5093 0.9251 0.4952
H26_9 H 0.5261 0.9019 0.4710
C31_9 C 0.3190(7) 0.9622(7) 0.4714(4)
H29_9 H 0.3098 0.9584 0.4545
H30_9 H 0.3027 0.9397 0.4811
C32_9 C 0.4079(7) 0.9225(7) 0.3894(4)
H31_9 H 0.3762 0.9283 0.3855
H32_9 H 0.4237 0.9514 0.3893
C33_9 C 0.5488(7) 0.9648(7) 0.4751(4)
H33_9 H 0.5763 0.9554 0.4831
H34_9 H 0.5382 0.9925 0.4824
H35_9 H 0.5546 0.9697 0.4580
C34_9 C 0.3567(7) 0.8744(7) 0.4612(4)
H36_9 H 0.3267 0.8824 0.4552
H37_9 H 0.3683 0.8503 0.4508
C35_9 C 0.4110(8) 0.9012(7) 0.4151(4)
H38_9 H 0.3966 0.8716 0.4150
H39_9 H 0.4426 0.8972 0.4196
C36_9 C 0.3523(7) 0.8572(7) 0.4858(4)
H40_9 H 0.3485 0.8825 0.4971
H41_9 H 0.3798 0.8413 0.4903
C38_9 C 0.3058(11) 0.7901(10) 0.4714(5)
H45_9 H 0.2782 0.7745 0.4755
H46_9 H 0.3308 0.7693 0.4722
H47_9 H 0.3035 0.8023 0.4552
C39_9 C 0.3130(10) 0.8260(10) 0.4883(5)
H48_9 H 0.3149 0.8124 0.5045
H49_9 H 0.2858 0.8446 0.4881
C40_9 C 0.4267(13) 0.8942(13) 0.3715(7)
H50_9 H 0.4244 0.9085 0.3558
H51_9 H 0.4105 0.8659 0.3713
H52_9 H 0.4580 0.8887 0.3753
H48_10 H 0.1851 0.1876 0.0045
N5_10 N 0.1123(4) 0.0842(4) 0.9586(2)
C25_10 C 0.1324(6) 0.0471(6) 0.9733(3)
H17_10 H 0.1258 0.0535 0.9904
H18_10 H 0.1165 0.0194 0.9691
C26_10 C 0.0658(6) 0.0953(6) 0.9678(3)
H19_10 H 0.0548 0.1218 0.9590
H20_10 H 0.0681 0.1036 0.9850
C27_10 C 0.1102(6) 0.0708(6) 0.9319(3)
H21_10 H 0.1412 0.0665 0.9264
H22_10 H 0.0954 0.0414 0.9310
C28_10 C 0.0310(6) 0.0579(6) 0.9653(3)
H23_10 H 0.0430 0.0303 0.9726
H24_10 H 0.0256 0.0520 0.9481
C31_10 C 0.1810(7) 0.0378(7) 0.9714(4)
H29_10 H 0.1902 0.0416 0.9545
H30_10 H 0.1973 0.0603 0.9811
C32_10 C 0.0921(7) 0.0775(7) 0.8894(4)
H31_10 H 0.1238 0.0717 0.8855
H32_10 H 0.0763 0.0486 0.8893
C34_10 C 0.1433(7) 0.1256(7) 0.9612(4)
H36_10 H 0.1733 0.1176 0.9552
H37_10 H 0.1317 0.1497 0.9508
C35_10 C 0.0890(8) 0.0988(7) 0.9151(4)
H38_10 H 0.1034 0.1284 0.9150
H39_10 H 0.0574 0.1028 0.9196
C36_10 C 0.1477(7) 0.1428(7) 0.9858(4)
H40_10 H 0.1515 0.1175 0.9971
H41_10 H 0.1202 0.1587 0.9903
C38_10 C 0.1942(11) 0.2099(10) 0.9714(5)
H45_10 H 0.2218 0.2255 0.9755
H46_10 H 0.1692 0.2307 0.9722
H47_10 H 0.1965 0.1977 0.9552
C39_10 C 0.1870(10) 0.1740(10) 0.9883(5)
H49_10 H 0.2142 0.1554 0.9881
C40_10 C 0.0733(13) 0.1058(13) 0.8715(7)
H50_10 H 0.0756 0.0915 0.8558
H51_10 H 0.0895 0.1341 0.8713
H52_10 H 0.0420 0.1113 0.8753
C30_10 C 0.1945(7) 0.9932(7) 0.9795(4)
H27_10 H 0.1794 0.9871 0.9950
H28_10 H 0.2269 0.9938 0.9827
C37_10 C 0.1849(9) 0.9543(9) 0.9626(5)
H42_10 H 0.1953 0.9266 0.9699
H43_10 H 0.2005 0.9590 0.9473
H44_10 H 0.1529 0.9524 0.9596
C29_10 C 0.9853(7) 0.0699(7) 0.9779(4)
H25_10 H 0.9907 0.0749 0.9952
H26_10 H 0.9739 0.0981 0.9710
C33_10 C 0.9512(7) 0.0352(7) 0.9751(4)
H33_10 H 0.9237 0.0446 0.9831
H34_10 H 0.9618 0.0075 0.9824
H35_10 H 0.9454 0.0303 0.9580
N5_11 N 0.3342(4) 0.1377(4) 0.7086(2)
C25_11 C 0.2971(6) 0.1176(6) 0.7233(3)
H17_11 H 0.3035 0.1242 0.7404
H18_11 H 0.2694 0.1335 0.7191
C26_11 C 0.3453(6) 0.1842(6) 0.7178(3)
H19_11 H 0.3718 0.1952 0.7090
H20_11 H 0.3536 0.1819 0.7350
C27_11 C 0.3208(6) 0.1398(6) 0.6819(3)
H21_11 H 0.3165 0.1088 0.6764
H22_11 H 0.2914 0.1546 0.6810
C28_11 C 0.3079(6) 0.2190(6) 0.7153(3)
H23_11 H 0.2803 0.2070 0.7226
H24_11 H 0.3020 0.2244 0.6981
C29_11 C 0.3199(7) 0.2647(7) 0.7279(4)
H25_11 H 0.3249 0.2593 0.7452
H26_11 H 0.3481 0.2761 0.7210
C30_11 C 0.2432(7) 0.0555(7) 0.7295(4)
H27_11 H 0.2371 0.0706 0.7450
H28_11 H 0.2438 0.0231 0.7327
C31_11 C 0.2878(7) 0.0690(7) 0.7214(4)
H29_11 H 0.2916 0.0598 0.7045
H30_11 H 0.3103 0.0527 0.7311
C32_11 C 0.3275(7) 0.1579(7) 0.6394(4)
H31_11 H 0.3217 0.1262 0.6355
H32_11 H 0.2986 0.1737 0.6393
C33_11 C 0.2852(7) 0.2988(7) 0.7251(4)
H33_11 H 0.2946 0.3263 0.7331
H34_11 H 0.2575 0.2882 0.7324
H35_11 H 0.2803 0.3046 0.7080
C34_11 C 0.3756(7) 0.1067(7) 0.7112(4)
H36_11 H 0.3676 0.0767 0.7052
H37_11 H 0.3997 0.1183 0.7008
C35_11 C 0.3488(7) 0.1610(8) 0.6651(4)
H38_11 H 0.3784 0.1466 0.6650
H39_11 H 0.3528 0.1926 0.6696
C36_11 C 0.3928(7) 0.1023(7) 0.7358(4)
H40_11 H 0.3675 0.0985 0.7471
H41_11 H 0.4087 0.1298 0.7403
C37_11 C 0.2043(9) 0.0651(9) 0.7126(5)
H42_11 H 0.1766 0.0547 0.7199
H43_11 H 0.2090 0.0495 0.6973
H44_11 H 0.2024 0.0971 0.7096
C38_11 C 0.4599(10) 0.0558(11) 0.7214(5)
H45_11 H 0.4755 0.0282 0.7255
H46_11 H 0.4807 0.0808 0.7222
H47_11 H 0.4477 0.0535 0.7052
C39_11 C 0.4240(10) 0.0630(10) 0.7383(5)
H48_11 H 0.4376 0.0649 0.7545
H49_11 H 0.4054 0.0358 0.7381
C40_11 C 0.3558(13) 0.1767(13) 0.6215(7)
H50_11 H 0.3415 0.1744 0.6058
H51_11 H 0.3841 0.1605 0.6213
H52_11 H 0.3613 0.2080 0.6253
N5_12 N 0.1658(4) 0.8623(4) 0.2086(2)
C25_12 C 0.2029(6) 0.8824(6) 0.2233(3)
H17_12 H 0.1965 0.8758 0.2404
H18_12 H 0.2306 0.8665 0.2191
C26_12 C 0.1547(6) 0.8158(6) 0.2178(3)
H19_12 H 0.1282 0.8048 0.2090
H20_12 H 0.1464 0.8181 0.2350
C27_12 C 0.1792(6) 0.8602(6) 0.1819(3)
H21_12 H 0.1835 0.8912 0.1764
H22_12 H 0.2086 0.8454 0.1810
C28_12 C 0.1921(6) 0.7810(6) 0.2153(3)
H23_12 H 0.2197 0.7930 0.2226
H24_12 H 0.1980 0.7756 0.1981
C29_12 C 0.1801(7) 0.7353(7) 0.2279(4)
H25_12 H 0.1751 0.7407 0.2452
H26_12 H 0.1519 0.7239 0.2210
C30_12 C 0.2568(7) 0.9445(7) 0.2295(4)
H27_12 H 0.2629 0.9294 0.2450
H28_12 H 0.2562 0.9769 0.2327
C31_12 C 0.2122(7) 0.9310(7) 0.2214(4)
H29_12 H 0.2084 0.9402 0.2045
H30_12 H 0.1897 0.9473 0.2311
C32_12 C 0.1725(7) 0.8421(7) 0.1394(4)
H31_12 H 0.1783 0.8738 0.1355
H32_12 H 0.2014 0.8263 0.1393
C33_12 C 0.2148(7) 0.7012(7) 0.2251(4)
H33_12 H 0.2054 0.6737 0.2331
H34_12 H 0.2425 0.7118 0.2324
H35_12 H 0.2197 0.6954 0.2080
C34_12 C 0.1244(7) 0.8933(7) 0.2112(4)
H36_12 H 0.1324 0.9233 0.2052
H37_12 H 0.1003 0.8817 0.2008
C35_12 C 0.1512(7) 0.8390(8) 0.1651(4)
H38_12 H 0.1216 0.8534 0.1650
H39_12 H 0.1472 0.8074 0.1696
C36_12 C 0.1072(7) 0.8977(7) 0.2358(4)
H40_12 H 0.1325 0.9015 0.2471
H41_12 H 0.0913 0.8702 0.2403
C37_12 C 0.2957(9) 0.9349(9) 0.2126(5)
H42_12 H 0.3234 0.9453 0.2199
H43_12 H 0.2910 0.9505 0.1973
H44_12 H 0.2976 0.9029 0.2096
C38_12 C 0.0401(10) 0.9442(11) 0.2214(5)
H45_12 H 0.0245 0.9718 0.2255
H46_12 H 0.0193 0.9192 0.2222
H47_12 H 0.0523 0.9465 0.2052
C39_12 C 0.0760(10) 0.9370(10) 0.2383(5)
H48_12 H 0.0624 0.9351 0.2545
H49_12 H 0.0946 0.9642 0.2381
C40_12 C 0.1442(13) 0.8233(13) 0.1215(7)
H50_12 H 0.1585 0.8256 0.1058
H51_12 H 0.1159 0.8395 0.1213
H52_12 H 0.1387 0.7920 0.1253
C30_13 C 0.1945(7) 0.0068(7) 0.5205(4)
H27_13 H 0.1794 0.0129 0.5050
H28_13 H 0.2269 0.0062 0.5173
C37_13 C 0.1849(9) 0.0457(9) 0.5374(5)
H42_13 H 0.1953 0.0734 0.5301
H43_13 H 0.2005 0.0410 0.5527
H44_13 H 0.1529 0.0476 0.5404
N5_13 N 0.1123(4) 0.9158(4) 0.5414(2)
C25_13 C 0.1324(6) 0.9529(6) 0.5267(3)
H17_13 H 0.1258 0.9465 0.5096
H18_13 H 0.1165 0.9806 0.5309
C26_13 C 0.0658(6) 0.9047(6) 0.5322(3)
H19_13 H 0.0548 0.8782 0.5410
H20_13 H 0.0681 0.8964 0.5150
C27_13 C 0.1102(6) 0.9292(6) 0.5681(3)
H21_13 H 0.1412 0.9335 0.5736
H22_13 H 0.0954 0.9586 0.5690
C28_13 C 0.0310(6) 0.9421(6) 0.5347(3)
H23_13 H 0.0430 0.9697 0.5274
H24_13 H 0.0256 0.9480 0.5519
C31_13 C 0.1810(7) 0.9622(7) 0.5286(4)
H29_13 H 0.1902 0.9584 0.5455
H30_13 H 0.1973 0.9397 0.5189
C32_13 C 0.0921(7) 0.9225(7) 0.6106(4)
H31_13 H 0.1238 0.9283 0.6145
H32_13 H 0.0763 0.9514 0.6107
C34_13 C 0.1433(7) 0.8744(7) 0.5388(4)
H36_13 H 0.1733 0.8824 0.5448
H37_13 H 0.1317 0.8503 0.5492
C35_13 C 0.0890(8) 0.9012(7) 0.5849(4)
H38_13 H 0.1034 0.8716 0.5850
H39_13 H 0.0574 0.8972 0.5804
C36_13 C 0.1477(7) 0.8572(7) 0.5142(4)
H40_13 H 0.1515 0.8825 0.5029
H41_13 H 0.1202 0.8413 0.5097
C38_13 C 0.1942(11) 0.7901(10) 0.5286(5)
H45_13 H 0.2218 0.7745 0.5245
H46_13 H 0.1692 0.7693 0.5278
H47_13 H 0.1965 0.8023 0.5448
C39_13 C 0.1870(10) 0.8260(10) 0.5117(5)
H48_13 H 0.1851 0.8124 0.4955
H49_13 H 0.2142 0.8446 0.5119
C40_13 C 0.0733(13) 0.8942(13) 0.6285(7)
H50_13 H 0.0756 0.9085 0.6442
H51_13 H 0.0895 0.8659 0.6287
H52_13 H 0.0420 0.8887 0.6247
C29_13 C 0.9853(7) 0.9301(7) 0.5221(4)
H25_13 H 0.9907 0.9251 0.5048
H26_13 H 0.9739 0.9019 0.5290
C33_13 C 0.9512(7) 0.9648(7) 0.5249(4)
H33_13 H 0.9237 0.9554 0.5169
H34_13 H 0.9618 0.9925 0.5176
H35_13 H 0.9454 0.9697 0.5420
N5_14 N 0.3877(4) 0.0842(4) 0.0414(2)
C25_14 C 0.3676(6) 0.0471(6) 0.0267(3)
H17_14 H 0.3742 0.0535 0.0096
H18_14 H 0.3835 0.0194 0.0309
C26_14 C 0.4342(6) 0.0953(6) 0.0322(3)
H19_14 H 0.4452 0.1218 0.0410
H20_14 H 0.4319 0.1036 0.0150
C27_14 C 0.3898(6) 0.0708(6) 0.0681(3)
H21_14 H 0.3588 0.0665 0.0736
H22_14 H 0.4046 0.0414 0.0690
C28_14 C 0.4690(6) 0.0579(6) 0.0347(3)
H23_14 H 0.4570 0.0303 0.0274
H24_14 H 0.4744 0.0520 0.0519
C29_14 C 0.5147(7) 0.0699(7) 0.0221(4)
H25_14 H 0.5093 0.0749 0.0048
H26_14 H 0.5261 0.0981 0.0290
C31_14 C 0.3190(7) 0.0378(7) 0.0286(4)
H29_14 H 0.3098 0.0416 0.0455
H30_14 H 0.3027 0.0603 0.0189
C32_14 C 0.4079(7) 0.0775(7) 0.1106(4)
H31_14 H 0.3762 0.0717 0.1145
H32_14 H 0.4237 0.0486 0.1107
C33_14 C 0.5488(7) 0.0352(7) 0.0249(4)
H33_14 H 0.5763 0.0446 0.0169
H34_14 H 0.5382 0.0075 0.0176
H35_14 H 0.5546 0.0303 0.0420
C34_14 C 0.3567(7) 0.1256(7) 0.0388(4)
H36_14 H 0.3267 0.1176 0.0448
H37_14 H 0.3683 0.1497 0.0492
C35_14 C 0.4110(8) 0.0988(7) 0.0849(4)
H38_14 H 0.3966 0.1284 0.0850
H39_14 H 0.4426 0.1028 0.0804
C36_14 C 0.3523(7) 0.1428(7) 0.0142(4)
H40_14 H 0.3485 0.1175 0.0029
H41_14 H 0.3798 0.1587 0.0097
C38_14 C 0.3058(11) 0.2099(10) 0.0286(5)
H45_14 H 0.2782 0.2255 0.0245
H46_14 H 0.3308 0.2307 0.0278
H47_14 H 0.3035 0.1977 0.0448
C39_14 C 0.3130(10) 0.1740(10) 0.0117(5)
H49_14 H 0.2858 0.1554 0.0119
C40_14 C 0.4267(13) 0.1058(13) 0.1285(7)
H50_14 H 0.4244 0.0915 0.1442
H51_14 H 0.4105 0.1341 0.1287
H52_14 H 0.4580 0.1113 0.1247
H48_14 H 0.3149 0.1876 0.9955
C30_14 C 0.3055(7) 0.9932(7) 0.0205(4)
H27_14 H 0.3206 0.9871 0.0050
H28_14 H 0.2731 0.9938 0.0173
C37_14 C 0.3151(9) 0.9543(9) 0.0374(5)
H42_14 H 0.3047 0.9266 0.0301
H43_14 H 0.2995 0.9590 0.0527
H44_14 H 0.3471 0.9524 0.0404
N5_15 N 0.1658(4) 0.1377(4) 0.2914(2)
C25_15 C 0.2029(6) 0.1176(6) 0.2767(3)
H17_15 H 0.1965 0.1242 0.2596
H18_15 H 0.2306 0.1335 0.2809
C26_15 C 0.1547(6) 0.1842(6) 0.2822(3)
H19_15 H 0.1282 0.1952 0.2910
H20_15 H 0.1464 0.1819 0.2650
C27_15 C 0.1792(6) 0.1398(6) 0.3181(3)
H21_15 H 0.1835 0.1088 0.3236
H22_15 H 0.2086 0.1546 0.3190
C28_15 C 0.1921(6) 0.2190(6) 0.2847(3)
H23_15 H 0.2197 0.2070 0.2774
H24_15 H 0.1980 0.2244 0.3019
C29_15 C 0.1801(7) 0.2647(7) 0.2721(4)
H25_15 H 0.1751 0.2593 0.2548
H26_15 H 0.1519 0.2761 0.2790
C30_15 C 0.2568(7) 0.0555(7) 0.2705(4)
H27_15 H 0.2629 0.0706 0.2550
H28_15 H 0.2562 0.0231 0.2673
C31_15 C 0.2122(7) 0.0690(7) 0.2786(4)
H29_15 H 0.2084 0.0598 0.2955
H30_15 H 0.1897 0.0527 0.2689
C32_15 C 0.1725(7) 0.1579(7) 0.3606(4)
H31_15 H 0.1783 0.1262 0.3645
H32_15 H 0.2014 0.1737 0.3607
C33_15 C 0.2148(7) 0.2988(7) 0.2749(4)
H33_15 H 0.2054 0.3263 0.2669
H34_15 H 0.2425 0.2882 0.2676
H35_15 H 0.2197 0.3046 0.2920
C34_15 C 0.1244(7) 0.1067(7) 0.2888(4)
H36_15 H 0.1324 0.0767 0.2948
H37_15 H 0.1003 0.1183 0.2992
C35_15 C 0.1512(7) 0.1610(8) 0.3349(4)
H38_15 H 0.1216 0.1466 0.3350
H39_15 H 0.1472 0.1926 0.3304
C36_15 C 0.1072(7) 0.1023(7) 0.2642(4)
H40_15 H 0.1325 0.0985 0.2529
H41_15 H 0.0913 0.1298 0.2597
C37_15 C 0.2957(9) 0.0651(9) 0.2874(5)
H42_15 H 0.3234 0.0547 0.2801
H43_15 H 0.2910 0.0495 0.3027
H44_15 H 0.2976 0.0971 0.2904
C38_15 C 0.0401(10) 0.0558(11) 0.2786(5)
H45_15 H 0.0245 0.0282 0.2745
H46_15 H 0.0193 0.0808 0.2778
H47_15 H 0.0523 0.0535 0.2948
C39_15 C 0.0760(10) 0.0630(10) 0.2617(5)
H48_15 H 0.0624 0.0649 0.2455
H49_15 H 0.0946 0.0358 0.2619
C40_15 C 0.1442(13) 0.1767(13) 0.3785(7)
H50_15 H 0.1585 0.1744 0.3942
H51_15 H 0.1159 0.1605 0.3787
H52_15 H 0.1387 0.2080 0.3747
N5_16 N 0.3342(4) 0.8623(4) 0.7914(2)
C25_16 C 0.2971(6) 0.8824(6) 0.7767(3)
H17_16 H 0.3035 0.8758 0.7596
H18_16 H 0.2694 0.8665 0.7809
C26_16 C 0.3453(6) 0.8158(6) 0.7822(3)
H19_16 H 0.3718 0.8048 0.7910
H20_16 H 0.3536 0.8181 0.7650
C27_16 C 0.3208(6) 0.8602(6) 0.8181(3)
H21_16 H 0.3165 0.8912 0.8236
H22_16 H 0.2914 0.8454 0.8190
C28_16 C 0.3079(6) 0.7810(6) 0.7847(3)
H23_16 H 0.2803 0.7930 0.7774
H24_16 H 0.3020 0.7756 0.8019
C29_16 C 0.3199(7) 0.7353(7) 0.7721(4)
H25_16 H 0.3249 0.7407 0.7548
H26_16 H 0.3481 0.7239 0.7790
C30_16 C 0.2432(7) 0.9445(7) 0.7705(4)
H27_16 H 0.2371 0.9294 0.7550
H28_16 H 0.2438 0.9769 0.7673
C31_16 C 0.2878(7) 0.9310(7) 0.7786(4)
H29_16 H 0.2916 0.9402 0.7955
H30_16 H 0.3103 0.9473 0.7689
C32_16 C 0.3275(7) 0.8421(7) 0.8606(4)
H31_16 H 0.3217 0.8738 0.8645
H32_16 H 0.2986 0.8263 0.8607
C33_16 C 0.2852(7) 0.7012(7) 0.7749(4)
H33_16 H 0.2946 0.6737 0.7669
H34_16 H 0.2575 0.7118 0.7676
H35_16 H 0.2803 0.6954 0.7920
C34_16 C 0.3756(7) 0.8933(7) 0.7888(4)
H36_16 H 0.3676 0.9233 0.7948
H37_16 H 0.3997 0.8817 0.7992
C35_16 C 0.3488(7) 0.8390(8) 0.8349(4)
H38_16 H 0.3784 0.8534 0.8350
H39_16 H 0.3528 0.8074 0.8304
C36_16 C 0.3928(7) 0.8977(7) 0.7642(4)
H40_16 H 0.3675 0.9015 0.7529
H41_16 H 0.4087 0.8702 0.7597
C37_16 C 0.2043(9) 0.9349(9) 0.7874(5)
H42_16 H 0.1766 0.9453 0.7801
H43_16 H 0.2090 0.9505 0.8027
H44_16 H 0.2024 0.9029 0.7904
C38_16 C 0.4599(10) 0.9442(11) 0.7786(5)
H45_16 H 0.4755 0.9718 0.7745
H46_16 H 0.4807 0.9192 0.7778
H47_16 H 0.4477 0.9465 0.7948
C39_16 C 0.4240(10) 0.9370(10) 0.7617(5)
H48_16 H 0.4376 0.9351 0.7455
H49_16 H 0.4054 0.9642 0.7619
C40_16 C 0.3558(13) 0.8233(13) 0.8785(7)
H50_16 H 0.3415 0.8256 0.8942
H51_16 H 0.3841 0.8395 0.8787
H52_16 H 0.3613 0.7920 0.8747
N5_17 N 0.1123(4) 0.5842(4) 0.0414(2)
C25_17 C 0.1324(6) 0.5471(6) 0.0267(3)
H17_17 H 0.1258 0.5535 0.0096
H18_17 H 0.1165 0.5194 0.0309
C26_17 C 0.0658(6) 0.5953(6) 0.0322(3)
H19_17 H 0.0548 0.6218 0.0410
H20_17 H 0.0681 0.6036 0.0150
C27_17 C 0.1102(6) 0.5708(6) 0.0681(3)
H21_17 H 0.1412 0.5665 0.0736
H22_17 H 0.0954 0.5414 0.0690
C28_17 C 0.0310(6) 0.5579(6) 0.0347(3)
H23_17 H 0.0430 0.5303 0.0274
H24_17 H 0.0256 0.5520 0.0519
C30_17 C 0.1945(7) 0.4932(7) 0.0205(4)
H27_17 H 0.1794 0.4871 0.0050
H28_17 H 0.2269 0.4938 0.0173
C31_17 C 0.1810(7) 0.5378(7) 0.0286(4)
H29_17 H 0.1902 0.5416 0.0455
H30_17 H 0.1973 0.5603 0.0189
C32_17 C 0.0921(7) 0.5775(7) 0.1106(4)
H31_17 H 0.1238 0.5717 0.1145
H32_17 H 0.0763 0.5486 0.1107
C34_17 C 0.1433(7) 0.6256(7) 0.0388(4)
H36_17 H 0.1733 0.6176 0.0448
H37_17 H 0.1317 0.6497 0.0492
C35_17 C 0.0890(8) 0.5988(7) 0.0849(4)
H38_17 H 0.1034 0.6284 0.0850
H39_17 H 0.0574 0.6028 0.0804
C36_17 C 0.1477(7) 0.6428(7) 0.0142(4)
H40_17 H 0.1515 0.6175 0.0029
H41_17 H 0.1202 0.6587 0.0097
C37_17 C 0.1849(9) 0.4543(9) 0.0374(5)
H42_17 H 0.1953 0.4266 0.0301
H43_17 H 0.2005 0.4590 0.0527
H44_17 H 0.1529 0.4524 0.0404
C38_17 C 0.1942(11) 0.7099(10) 0.0286(5)
H45_17 H 0.2218 0.7255 0.0245
H46_17 H 0.1692 0.7307 0.0278
H47_17 H 0.1965 0.6977 0.0448
C39_17 C 0.1870(10) 0.6740(10) 0.0117(5)
H49_17 H 0.2142 0.6554 0.0119
C40_17 C 0.0733(13) 0.6058(13) 0.1285(7)
H50_17 H 0.0756 0.5915 0.1442
H51_17 H 0.0895 0.6341 0.1287
H52_17 H 0.0420 0.6113 0.1247
H48_17 H 0.1851 0.6876 0.9955
C29_17 C 0.9853(7) 0.5699(7) 0.0221(4)
H25_17 H 0.9907 0.5749 0.0048
H26_17 H 0.9739 0.5981 0.0290
C33_17 C 0.9512(7) 0.5352(7) 0.0249(4)
H33_17 H 0.9237 0.5446 0.0169
H34_17 H 0.9618 0.5075 0.0176
H35_17 H 0.9454 0.5303 0.0420
N5_18 N 0.3877(4) 0.4158(4) 0.5414(2)
C25_18 C 0.3676(6) 0.4529(6) 0.5267(3)
H17_18 H 0.3742 0.4465 0.5096
H18_18 H 0.3835 0.4806 0.5309
C26_18 C 0.4342(6) 0.4047(6) 0.5322(3)
H19_18 H 0.4452 0.3782 0.5410
H20_18 H 0.4319 0.3964 0.5150
C27_18 C 0.3898(6) 0.4292(6) 0.5681(3)
H21_18 H 0.3588 0.4335 0.5736
H22_18 H 0.4046 0.4586 0.5690
C28_18 C 0.4690(6) 0.4421(6) 0.5347(3)
H23_18 H 0.4570 0.4697 0.5274
H24_18 H 0.4744 0.4480 0.5519
C29_18 C 0.5147(7) 0.4301(7) 0.5221(4)
H25_18 H 0.5093 0.4251 0.5048
H26_18 H 0.5261 0.4019 0.5290
C30_18 C 0.3055(7) 0.5068(7) 0.5205(4)
H27_18 H 0.3206 0.5129 0.5050
H28_18 H 0.2731 0.5062 0.5173
C31_18 C 0.3190(7) 0.4622(7) 0.5286(4)
H29_18 H 0.3098 0.4584 0.5455
H30_18 H 0.3027 0.4397 0.5189
C32_18 C 0.4079(7) 0.4225(7) 0.6106(4)
H31_18 H 0.3762 0.4283 0.6145
H32_18 H 0.4237 0.4514 0.6107
C33_18 C 0.5488(7) 0.4648(7) 0.5249(4)
H33_18 H 0.5763 0.4554 0.5169
H34_18 H 0.5382 0.4925 0.5176
H35_18 H 0.5546 0.4697 0.5420
C34_18 C 0.3567(7) 0.3744(7) 0.5388(4)
H36_18 H 0.3267 0.3824 0.5448
H37_18 H 0.3683 0.3503 0.5492
C35_18 C 0.4110(8) 0.4012(7) 0.5849(4)
H38_18 H 0.3966 0.3716 0.5850
H39_18 H 0.4426 0.3972 0.5804
C36_18 C 0.3523(7) 0.3572(7) 0.5142(4)
H40_18 H 0.3485 0.3825 0.5029
H41_18 H 0.3798 0.3413 0.5097
C37_18 C 0.3151(9) 0.5457(9) 0.5374(5)
H42_18 H 0.3047 0.5734 0.5301
H43_18 H 0.2995 0.5410 0.5527
H44_18 H 0.3471 0.5476 0.5404
C38_18 C 0.3058(11) 0.2901(10) 0.5286(5)
H45_18 H 0.2782 0.2745 0.5245
H46_18 H 0.3308 0.2693 0.5278
H47_18 H 0.3035 0.3023 0.5448
C39_18 C 0.3130(10) 0.3260(10) 0.5117(5)
H48_18 H 0.3149 0.3124 0.4955
H49_18 H 0.2858 0.3446 0.5119
C40_18 C 0.4267(13) 0.3942(13) 0.6285(7)
H50_18 H 0.4244 0.4085 0.6442
H51_18 H 0.4105 0.3659 0.6287
H52_18 H 0.4580 0.3887 0.6247
N5_19 N 0.1658(4) 0.3623(4) 0.7914(2)
C25_19 C 0.2029(6) 0.3824(6) 0.7767(3)
H17_19 H 0.1965 0.3758 0.7596
H18_19 H 0.2306 0.3665 0.7809
C26_19 C 0.1547(6) 0.3158(6) 0.7822(3)
H19_19 H 0.1282 0.3048 0.7910
H20_19 H 0.1464 0.3181 0.7650
C27_19 C 0.1792(6) 0.3602(6) 0.8181(3)
H21_19 H 0.1835 0.3912 0.8236
H22_19 H 0.2086 0.3454 0.8190
C28_19 C 0.1921(6) 0.2810(6) 0.7847(3)
H23_19 H 0.2197 0.2930 0.7774
H24_19 H 0.1980 0.2756 0.8019
C29_19 C 0.1801(7) 0.2353(7) 0.7721(4)
H25_19 H 0.1751 0.2407 0.7548
H26_19 H 0.1519 0.2239 0.7790
C30_19 C 0.2568(7) 0.4445(7) 0.7705(4)
H27_19 H 0.2629 0.4294 0.7550
H28_19 H 0.2562 0.4769 0.7673
C31_19 C 0.2122(7) 0.4310(7) 0.7786(4)
H29_19 H 0.2084 0.4402 0.7955
H30_19 H 0.1897 0.4473 0.7689
C32_19 C 0.1725(7) 0.3421(7) 0.8606(4)
H31_19 H 0.1783 0.3738 0.8645
H32_19 H 0.2014 0.3263 0.8607
C33_19 C 0.2148(7) 0.2012(7) 0.7749(4)
H33_19 H 0.2054 0.1737 0.7669
H34_19 H 0.2425 0.2118 0.7676
H35_19 H 0.2197 0.1954 0.7920
C34_19 C 0.1244(7) 0.3933(7) 0.7888(4)
H36_19 H 0.1324 0.4233 0.7948
H37_19 H 0.1003 0.3817 0.7992
C35_19 C 0.1512(7) 0.3390(8) 0.8349(4)
H38_19 H 0.1216 0.3534 0.8350
H39_19 H 0.1472 0.3074 0.8304
C36_19 C 0.1072(7) 0.3977(7) 0.7642(4)
H40_19 H 0.1325 0.4015 0.7529
H41_19 H 0.0913 0.3702 0.7597
C37_19 C 0.2957(9) 0.4349(9) 0.7874(5)
H42_19 H 0.3234 0.4453 0.7801
H43_19 H 0.2910 0.4505 0.8027
H44_19 H 0.2976 0.4029 0.7904
C38_19 C 0.0401(10) 0.4442(11) 0.7786(5)
H45_19 H 0.0245 0.4718 0.7745
H46_19 H 0.0193 0.4192 0.7778
H47_19 H 0.0523 0.4465 0.7948
C39_19 C 0.0760(10) 0.4370(10) 0.7617(5)
H48_19 H 0.0624 0.4351 0.7455
H49_19 H 0.0946 0.4642 0.7619
C40_19 C 0.1442(13) 0.3233(13) 0.8785(7)
H50_19 H 0.1585 0.3256 0.8942
H51_19 H 0.1159 0.3395 0.8787
H52_19 H 0.1387 0.2920 0.8747
N5_20 N 0.3342(4) 0.6377(4) 0.2914(2)
C25_20 C 0.2971(6) 0.6176(6) 0.2767(3)
H17_20 H 0.3035 0.6242 0.2596
H18_20 H 0.2694 0.6335 0.2809
C26_20 C 0.3453(6) 0.6842(6) 0.2822(3)
H19_20 H 0.3718 0.6952 0.2910
H20_20 H 0.3536 0.6819 0.2650
C27_20 C 0.3208(6) 0.6398(6) 0.3181(3)
H21_20 H 0.3165 0.6088 0.3236
H22_20 H 0.2914 0.6546 0.3190
C28_20 C 0.3079(6) 0.7190(6) 0.2847(3)
H23_20 H 0.2803 0.7070 0.2774
H24_20 H 0.3020 0.7244 0.3019
C29_20 C 0.3199(7) 0.7647(7) 0.2721(4)
H25_20 H 0.3249 0.7593 0.2548
H26_20 H 0.3481 0.7761 0.2790
C30_20 C 0.2432(7) 0.5555(7) 0.2705(4)
H27_20 H 0.2371 0.5706 0.2550
H28_20 H 0.2438 0.5231 0.2673
C31_20 C 0.2878(7) 0.5690(7) 0.2786(4)
H29_20 H 0.2916 0.5598 0.2955
H30_20 H 0.3103 0.5527 0.2689
C32_20 C 0.3275(7) 0.6579(7) 0.3606(4)
H31_20 H 0.3217 0.6262 0.3645
H32_20 H 0.2986 0.6737 0.3607
C33_20 C 0.2852(7) 0.7988(7) 0.2749(4)
H33_20 H 0.2946 0.8263 0.2669
H34_20 H 0.2575 0.7882 0.2676
H35_20 H 0.2803 0.8046 0.2920
C34_20 C 0.3756(7) 0.6067(7) 0.2888(4)
H36_20 H 0.3676 0.5767 0.2948
H37_20 H 0.3997 0.6183 0.2992
C35_20 C 0.3488(7) 0.6610(8) 0.3349(4)
H38_20 H 0.3784 0.6466 0.3350
H39_20 H 0.3528 0.6926 0.3304
C36_20 C 0.3928(7) 0.6023(7) 0.2642(4)
H40_20 H 0.3675 0.5985 0.2529
H41_20 H 0.4087 0.6298 0.2597
C37_20 C 0.2043(9) 0.5651(9) 0.2874(5)
H42_20 H 0.1766 0.5547 0.2801
H43_20 H 0.2090 0.5495 0.3027
H44_20 H 0.2024 0.5971 0.2904
C38_20 C 0.4599(10) 0.5558(11) 0.2786(5)
H45_20 H 0.4755 0.5282 0.2745
H46_20 H 0.4807 0.5808 0.2778
H47_20 H 0.4477 0.5535 0.2948
C39_20 C 0.4240(10) 0.5630(10) 0.2617(5)
H48_20 H 0.4376 0.5649 0.2455
H49_20 H 0.4054 0.5358 0.2619
C40_20 C 0.3558(13) 0.6767(13) 0.3785(7)
H50_20 H 0.3415 0.6744 0.3942
H51_20 H 0.3841 0.6605 0.3787
H52_20 H 0.3613 0.7080 0.3747
H48_21 H 0.3149 0.6876 0.0045
N5_21 N 0.3877(4) 0.5842(4) 0.9586(2)
C25_21 C 0.3676(6) 0.5471(6) 0.9733(3)
H17_21 H 0.3742 0.5535 0.9904
H18_21 H 0.3835 0.5194 0.9691
C26_21 C 0.4342(6) 0.5953(6) 0.9678(3)
H19_21 H 0.4452 0.6218 0.9590
H20_21 H 0.4319 0.6036 0.9850
C27_21 C 0.3898(6) 0.5708(6) 0.9319(3)
H21_21 H 0.3588 0.5665 0.9264
H22_21 H 0.4046 0.5414 0.9310
C28_21 C 0.4690(6) 0.5579(6) 0.9653(3)
H23_21 H 0.4570 0.5303 0.9726
H24_21 H 0.4744 0.5520 0.9481
C29_21 C 0.5147(7) 0.5699(7) 0.9779(4)
H25_21 H 0.5093 0.5749 0.9952
H26_21 H 0.5261 0.5981 0.9710
C30_21 C 0.3055(7) 0.4932(7) 0.9795(4)
H27_21 H 0.3206 0.4871 0.9950
H28_21 H 0.2731 0.4938 0.9827
C31_21 C 0.3190(7) 0.5378(7) 0.9714(4)
H29_21 H 0.3098 0.5416 0.9545
H30_21 H 0.3027 0.5603 0.9811
C32_21 C 0.4079(7) 0.5775(7) 0.8894(4)
H31_21 H 0.3762 0.5717 0.8855
H32_21 H 0.4237 0.5486 0.8893
C33_21 C 0.5488(7) 0.5352(7) 0.9751(4)
H33_21 H 0.5763 0.5446 0.9831
H34_21 H 0.5382 0.5075 0.9824
H35_21 H 0.5546 0.5303 0.9580
C34_21 C 0.3567(7) 0.6256(7) 0.9612(4)
H36_21 H 0.3267 0.6176 0.9552
H37_21 H 0.3683 0.6497 0.9508
C35_21 C 0.4110(8) 0.5988(7) 0.9151(4)
H38_21 H 0.3966 0.6284 0.9150
H39_21 H 0.4426 0.6028 0.9196
C36_21 C 0.3523(7) 0.6428(7) 0.9858(4)
H40_21 H 0.3485 0.6175 0.9971
H41_21 H 0.3798 0.6587 0.9903
C37_21 C 0.3151(9) 0.4543(9) 0.9626(5)
H42_21 H 0.3047 0.4266 0.9699
H43_21 H 0.2995 0.4590 0.9473
H44_21 H 0.3471 0.4524 0.9596
C38_21 C 0.3058(11) 0.7099(10) 0.9714(5)
H45_21 H 0.2782 0.7255 0.9755
H46_21 H 0.3308 0.7307 0.9722
H47_21 H 0.3035 0.6977 0.9552
C39_21 C 0.3130(10) 0.6740(10) 0.9883(5)
H49_21 H 0.2858 0.6554 0.9881
C40_21 C 0.4267(13) 0.6058(13) 0.8715(7)
H50_21 H 0.4244 0.5915 0.8558
H51_21 H 0.4105 0.6341 0.8713
H52_21 H 0.4580 0.6113 0.8753
N5_22 N 0.1123(4) 0.4158(4) 0.4586(2)
C25_22 C 0.1324(6) 0.4529(6) 0.4733(3)
H17_22 H 0.1258 0.4465 0.4904
H18_22 H 0.1165 0.4806 0.4691
C26_22 C 0.0658(6) 0.4047(6) 0.4678(3)
H19_22 H 0.0548 0.3782 0.4590
H20_22 H 0.0681 0.3964 0.4850
C27_22 C 0.1102(6) 0.4292(6) 0.4319(3)
H21_22 H 0.1412 0.4335 0.4264
H22_22 H 0.0954 0.4586 0.4310
C28_22 C 0.0310(6) 0.4421(6) 0.4653(3)
H23_22 H 0.0430 0.4697 0.4726
H24_22 H 0.0256 0.4480 0.4481
C30_22 C 0.1945(7) 0.5068(7) 0.4795(4)
H27_22 H 0.1794 0.5129 0.4950
H28_22 H 0.2269 0.5062 0.4827
C31_22 C 0.1810(7) 0.4622(7) 0.4714(4)
H29_22 H 0.1902 0.4584 0.4545
H30_22 H 0.1973 0.4397 0.4811
C32_22 C 0.0921(7) 0.4225(7) 0.3894(4)
H31_22 H 0.1238 0.4283 0.3855
H32_22 H 0.0763 0.4514 0.3893
C34_22 C 0.1433(7) 0.3744(7) 0.4612(4)
H36_22 H 0.1733 0.3824 0.4552
H37_22 H 0.1317 0.3503 0.4508
C35_22 C 0.0890(8) 0.4012(7) 0.4151(4)
H38_22 H 0.1034 0.3716 0.4150
H39_22 H 0.0574 0.3972 0.4196
C36_22 C 0.1477(7) 0.3572(7) 0.4858(4)
H40_22 H 0.1515 0.3825 0.4971
H41_22 H 0.1202 0.3413 0.4903
C37_22 C 0.1849(9) 0.5457(9) 0.4626(5)
H42_22 H 0.1953 0.5734 0.4699
H43_22 H 0.2005 0.5410 0.4473
H44_22 H 0.1529 0.5476 0.4596
C38_22 C 0.1942(11) 0.2901(10) 0.4714(5)
H45_22 H 0.2218 0.2745 0.4755
H46_22 H 0.1692 0.2693 0.4722
H47_22 H 0.1965 0.3023 0.4552
C39_22 C 0.1870(10) 0.3260(10) 0.4883(5)
H48_22 H 0.1851 0.3124 0.5045
H49_22 H 0.2142 0.3446 0.4881
C40_22 C 0.0733(13) 0.3942(13) 0.3715(7)
H50_22 H 0.0756 0.4085 0.3558
H51_22 H 0.0895 0.3659 0.3713
H52_22 H 0.0420 0.3887 0.3753
C29_22 C 0.9853(7) 0.4301(7) 0.4779(4)
H25_22 H 0.9907 0.4251 0.4952
H26_22 H 0.9739 0.4019 0.4710
C33_22 C 0.9512(7) 0.4648(7) 0.4751(4)
H33_22 H 0.9237 0.4554 0.4831
H34_22 H 0.9618 0.4925 0.4824
H35_22 H 0.9454 0.4697 0.4580
N5_23 N 0.3342(4) 0.3623(4) 0.2086(2)
C25_23 C 0.2971(6) 0.3824(6) 0.2233(3)
H17_23 H 0.3035 0.3758 0.2404
H18_23 H 0.2694 0.3665 0.2191
C26_23 C 0.3453(6) 0.3158(6) 0.2178(3)
H19_23 H 0.3718 0.3048 0.2090
H20_23 H 0.3536 0.3181 0.2350
C27_23 C 0.3208(6) 0.3602(6) 0.1819(3)
H21_23 H 0.3165 0.3912 0.1764
H22_23 H 0.2914 0.3454 0.1810
C28_23 C 0.3079(6) 0.2810(6) 0.2153(3)
H23_23 H 0.2803 0.2930 0.2226
H24_23 H 0.3020 0.2756 0.1981
C29_23 C 0.3199(7) 0.2353(7) 0.2279(4)
H25_23 H 0.3249 0.2407 0.2452
H26_23 H 0.3481 0.2239 0.2210
C30_23 C 0.2432(7) 0.4445(7) 0.2295(4)
H27_23 H 0.2371 0.4294 0.2450
H28_23 H 0.2438 0.4769 0.2327
C31_23 C 0.2878(7) 0.4310(7) 0.2214(4)
H29_23 H 0.2916 0.4402 0.2045
H30_23 H 0.3103 0.4473 0.2311
C32_23 C 0.3275(7) 0.3421(7) 0.1394(4)
H31_23 H 0.3217 0.3738 0.1355
H32_23 H 0.2986 0.3263 0.1393
C33_23 C 0.2852(7) 0.2012(7) 0.2251(4)
H33_23 H 0.2946 0.1737 0.2331
H34_23 H 0.2575 0.2118 0.2324
H35_23 H 0.2803 0.1954 0.2080
C34_23 C 0.3756(7) 0.3933(7) 0.2112(4)
H36_23 H 0.3676 0.4233 0.2052
H37_23 H 0.3997 0.3817 0.2008
C35_23 C 0.3488(7) 0.3390(8) 0.1651(4)
H38_23 H 0.3784 0.3534 0.1650
H39_23 H 0.3528 0.3074 0.1696
C36_23 C 0.3928(7) 0.3977(7) 0.2358(4)
H40_23 H 0.3675 0.4015 0.2471
H41_23 H 0.4087 0.3702 0.2403
C37_23 C 0.2043(9) 0.4349(9) 0.2126(5)
H42_23 H 0.1766 0.4453 0.2199
H43_23 H 0.2090 0.4505 0.1973
H44_23 H 0.2024 0.4029 0.2096
C38_23 C 0.4599(10) 0.4442(11) 0.2214(5)
H45_23 H 0.4755 0.4718 0.2255
H46_23 H 0.4807 0.4192 0.2222
H47_23 H 0.4477 0.4465 0.2052
C39_23 C 0.4240(10) 0.4370(10) 0.2383(5)
H48_23 H 0.4376 0.4351 0.2545
H49_23 H 0.4054 0.4642 0.2381
C40_23 C 0.3558(13) 0.3233(13) 0.1215(7)
H50_23 H 0.3415 0.3256 0.1058
H51_23 H 0.3841 0.3395 0.1213
H52_23 H 0.3613 0.2920 0.1253
N5_24 N 0.1658(4) 0.6377(4) 0.7086(2)
C25_24 C 0.2029(6) 0.6176(6) 0.7233(3)
H17_24 H 0.1965 0.6242 0.7404
H18_24 H 0.2306 0.6335 0.7191
C26_24 C 0.1547(6) 0.6842(6) 0.7178(3)
H19_24 H 0.1282 0.6952 0.7090
H20_24 H 0.1464 0.6819 0.7350
C27_24 C 0.1792(6) 0.6398(6) 0.6819(3)
H21_24 H 0.1835 0.6088 0.6764
H22_24 H 0.2086 0.6546 0.6810
C28_24 C 0.1921(6) 0.7190(6) 0.7153(3)
H23_24 H 0.2197 0.7070 0.7226
H24_24 H 0.1980 0.7244 0.6981
C29_24 C 0.1801(7) 0.7647(7) 0.7279(4)
H25_24 H 0.1751 0.7593 0.7452
H26_24 H 0.1519 0.7761 0.7210
C30_24 C 0.2568(7) 0.5555(7) 0.7295(4)
H27_24 H 0.2629 0.5706 0.7450
H28_24 H 0.2562 0.5231 0.7327
C31_24 C 0.2122(7) 0.5690(7) 0.7214(4)
H29_24 H 0.2084 0.5598 0.7045
H30_24 H 0.1897 0.5527 0.7311
C32_24 C 0.1725(7) 0.6579(7) 0.6394(4)
H31_24 H 0.1783 0.6262 0.6355
H32_24 H 0.2014 0.6737 0.6393
C33_24 C 0.2148(7) 0.7988(7) 0.7251(4)
H33_24 H 0.2054 0.8263 0.7331
H34_24 H 0.2425 0.7882 0.7324
H35_24 H 0.2197 0.8046 0.7080
C34_24 C 0.1244(7) 0.6067(7) 0.7112(4)
H36_24 H 0.1324 0.5767 0.7052
H37_24 H 0.1003 0.6183 0.7008
C35_24 C 0.1512(7) 0.6610(8) 0.6651(4)
H38_24 H 0.1216 0.6466 0.6650
H39_24 H 0.1472 0.6926 0.6696
C36_24 C 0.1072(7) 0.6023(7) 0.7358(4)
H40_24 H 0.1325 0.5985 0.7471
H41_24 H 0.0913 0.6298 0.7403
C37_24 C 0.2957(9) 0.5651(9) 0.7126(5)
H42_24 H 0.3234 0.5547 0.7199
H43_24 H 0.2910 0.5495 0.6973
H44_24 H 0.2976 0.5971 0.7096
C38_24 C 0.0401(10) 0.5558(11) 0.7214(5)
H45_24 H 0.0245 0.5282 0.7255
H46_24 H 0.0193 0.5808 0.7222
H47_24 H 0.0523 0.5535 0.7052
C39_24 C 0.0760(10) 0.5630(10) 0.7383(5)
H48_24 H 0.0624 0.5649 0.7545
H49_24 H 0.0946 0.5358 0.7381
C40_24 C 0.1442(13) 0.6767(13) 0.6215(7)
H50_24 H 0.1585 0.6744 0.6058
H51_24 H 0.1159 0.6605 0.6213
H52_24 H 0.1387 0.7080 0.6253
N5_25 N 0.6123(4) 0.0842(4) 0.5414(2)
C25_25 C 0.6324(6) 0.0471(6) 0.5267(3)
H17_25 H 0.6258 0.0535 0.5096
H18_25 H 0.6165 0.0194 0.5309
C26_25 C 0.5658(6) 0.0953(6) 0.5322(3)
H19_25 H 0.5548 0.1218 0.5410
H20_25 H 0.5681 0.1036 0.5150
C27_25 C 0.6102(6) 0.0708(6) 0.5681(3)
H21_25 H 0.6412 0.0665 0.5736
H22_25 H 0.5954 0.0414 0.5690
C28_25 C 0.5310(6) 0.0579(6) 0.5347(3)
H23_25 H 0.5430 0.0303 0.5274
H24_25 H 0.5256 0.0520 0.5519
C29_25 C 0.4853(7) 0.0699(7) 0.5221(4)
H25_25 H 0.4907 0.0749 0.5048
H26_25 H 0.4739 0.0981 0.5290
C31_25 C 0.6810(7) 0.0378(7) 0.5286(4)
H29_25 H 0.6902 0.0416 0.5455
H30_25 H 0.6973 0.0603 0.5189
C32_25 C 0.5921(7) 0.0775(7) 0.6106(4)
H31_25 H 0.6238 0.0717 0.6145
H32_25 H 0.5763 0.0486 0.6107
C33_25 C 0.4512(7) 0.0352(7) 0.5249(4)
H33_25 H 0.4237 0.0446 0.5169
H34_25 H 0.4618 0.0075 0.5176
H35_25 H 0.4454 0.0303 0.5420
C34_25 C 0.6433(7) 0.1256(7) 0.5388(4)
H36_25 H 0.6733 0.1176 0.5448
H37_25 H 0.6317 0.1497 0.5492
C35_25 C 0.5890(8) 0.0988(7) 0.5849(4)
H38_25 H 0.6034 0.1284 0.5850
H39_25 H 0.5574 0.1028 0.5804
C36_25 C 0.6477(7) 0.1428(7) 0.5142(4)
H40_25 H 0.6515 0.1175 0.5029
H41_25 H 0.6202 0.1587 0.5097
C38_25 C 0.6942(11) 0.2099(10) 0.5286(5)
H45_25 H 0.7218 0.2255 0.5245
H46_25 H 0.6692 0.2307 0.5278
H47_25 H 0.6965 0.1977 0.5448
C39_25 C 0.6870(10) 0.1740(10) 0.5117(5)
H48_25 H 0.6851 0.1876 0.4955
H49_25 H 0.7142 0.1554 0.5119
C40_25 C 0.5733(13) 0.1058(13) 0.6285(7)
H50_25 H 0.5756 0.0915 0.6442
H51_25 H 0.5895 0.1341 0.6287
H52_25 H 0.5420 0.1113 0.6247
C30_25 C 0.6945(7) 0.9932(7) 0.5205(4)
H27_25 H 0.6794 0.9871 0.5050
H28_25 H 0.7269 0.9938 0.5173
C37_25 C 0.6849(9) 0.9543(9) 0.5374(5)
H42_25 H 0.6953 0.9266 0.5301
H43_25 H 0.7005 0.9590 0.5527
H44_25 H 0.6529 0.9524 0.5404
C29_26 C 0.0147(7) 0.9301(7) 0.0221(4)
H25_26 H 0.0093 0.9251 0.0048
H26_26 H 0.0261 0.9019 0.0290
C33_26 C 0.0488(7) 0.9648(7) 0.0249(4)
H33_26 H 0.0763 0.9554 0.0169
H34_26 H 0.0382 0.9925 0.0176
H35_26 H 0.0546 0.9697 0.0420
C30_26 C 0.8055(7) 0.0068(7) 0.0205(4)
H27_26 H 0.8206 0.0129 0.0050
H28_26 H 0.7731 0.0062 0.0173
C37_26 C 0.8151(9) 0.0457(9) 0.0374(5)
H42_26 H 0.8047 0.0734 0.0301
H43_26 H 0.7995 0.0410 0.0527
H44_26 H 0.8471 0.0476 0.0404
N5_26 N 0.8877(4) 0.9158(4) 0.0414(2)
C25_26 C 0.8676(6) 0.9529(6) 0.0267(3)
H17_26 H 0.8742 0.9465 0.0096
H18_26 H 0.8835 0.9806 0.0309
C26_26 C 0.9342(6) 0.9047(6) 0.0322(3)
H19_26 H 0.9452 0.8782 0.0410
H20_26 H 0.9319 0.8964 0.0150
C27_26 C 0.8898(6) 0.9292(6) 0.0681(3)
H21_26 H 0.8588 0.9335 0.0736
H22_26 H 0.9046 0.9586 0.0690
C28_26 C 0.9690(6) 0.9421(6) 0.0347(3)
H23_26 H 0.9570 0.9697 0.0274
H24_26 H 0.9744 0.9480 0.0519
C31_26 C 0.8190(7) 0.9622(7) 0.0286(4)
H29_26 H 0.8098 0.9584 0.0455
H30_26 H 0.8027 0.9397 0.0189
C32_26 C 0.9079(7) 0.9225(7) 0.1106(4)
H31_26 H 0.8762 0.9283 0.1145
H32_26 H 0.9237 0.9514 0.1107
C34_26 C 0.8567(7) 0.8744(7) 0.0388(4)
H36_26 H 0.8267 0.8824 0.0448
H37_26 H 0.8683 0.8503 0.0492
C35_26 C 0.9110(8) 0.9012(7) 0.0849(4)
H38_26 H 0.8966 0.8716 0.0850
H39_26 H 0.9426 0.8972 0.0804
C36_26 C 0.8523(7) 0.8572(7) 0.0142(4)
H40_26 H 0.8485 0.8825 0.0029
H41_26 H 0.8798 0.8413 0.0097
C38_26 C 0.8058(11) 0.7901(10) 0.0286(5)
H45_26 H 0.7782 0.7745 0.0245
H46_26 H 0.8308 0.7693 0.0278
H47_26 H 0.8035 0.8023 0.0448
C39_26 C 0.8130(10) 0.8260(10) 0.0117(5)
H49_26 H 0.7858 0.8446 0.0119
C40_26 C 0.9267(13) 0.8942(13) 0.1285(7)
H50_26 H 0.9244 0.9085 0.1442
H51_26 H 0.9105 0.8659 0.1287
H52_26 H 0.9580 0.8887 0.1247
H48_26 H 0.8149 0.8124 0.9955
N5_27 N 0.6658(4) 0.8623(4) 0.2914(2)
C25_27 C 0.7029(6) 0.8824(6) 0.2767(3)
H17_27 H 0.6965 0.8758 0.2596
H18_27 H 0.7306 0.8665 0.2809
C26_27 C 0.6547(6) 0.8158(6) 0.2822(3)
H19_27 H 0.6282 0.8048 0.2910
H20_27 H 0.6464 0.8181 0.2650
C27_27 C 0.6792(6) 0.8602(6) 0.3181(3)
H21_27 H 0.6835 0.8912 0.3236
H22_27 H 0.7086 0.8454 0.3190
C28_27 C 0.6921(6) 0.7810(6) 0.2847(3)
H23_27 H 0.7197 0.7930 0.2774
H24_27 H 0.6980 0.7756 0.3019
C29_27 C 0.6801(7) 0.7353(7) 0.2721(4)
H25_27 H 0.6751 0.7407 0.2548
H26_27 H 0.6519 0.7239 0.2790
C30_27 C 0.7568(7) 0.9445(7) 0.2705(4)
H27_27 H 0.7629 0.9294 0.2550
H28_27 H 0.7562 0.9769 0.2673
C31_27 C 0.7122(7) 0.9310(7) 0.2786(4)
H29_27 H 0.7084 0.9402 0.2955
H30_27 H 0.6897 0.9473 0.2689
C32_27 C 0.6725(7) 0.8421(7) 0.3606(4)
H31_27 H 0.6783 0.8738 0.3645
H32_27 H 0.7014 0.8263 0.3607
C33_27 C 0.7148(7) 0.7012(7) 0.2749(4)
H33_27 H 0.7054 0.6737 0.2669
H34_27 H 0.7425 0.7118 0.2676
H35_27 H 0.7197 0.6954 0.2920
C34_27 C 0.6244(7) 0.8933(7) 0.2888(4)
H36_27 H 0.6324 0.9233 0.2948
H37_27 H 0.6003 0.8817 0.2992
C35_27 C 0.6512(7) 0.8390(8) 0.3349(4)
H38_27 H 0.6216 0.8534 0.3350
H39_27 H 0.6472 0.8074 0.3304
C36_27 C 0.6072(7) 0.8977(7) 0.2642(4)
H40_27 H 0.6325 0.9015 0.2529
H41_27 H 0.5913 0.8702 0.2597
C37_27 C 0.7957(9) 0.9349(9) 0.2874(5)
H42_27 H 0.8234 0.9453 0.2801
H43_27 H 0.7910 0.9505 0.3027
H44_27 H 0.7976 0.9029 0.2904
C38_27 C 0.5401(10) 0.9442(11) 0.2786(5)
H45_27 H 0.5245 0.9718 0.2745
H46_27 H 0.5193 0.9192 0.2778
H47_27 H 0.5523 0.9465 0.2948
C39_27 C 0.5760(10) 0.9370(10) 0.2617(5)
H48_27 H 0.5624 0.9351 0.2455
H49_27 H 0.5946 0.9642 0.2619
C40_27 C 0.6442(13) 0.8233(13) 0.3785(7)
H50_27 H 0.6585 0.8256 0.3942
H51_27 H 0.6159 0.8395 0.3787
H52_27 H 0.6387 0.7920 0.3747
N5_28 N 0.8342(4) 0.1377(4) 0.7914(2)
C25_28 C 0.7971(6) 0.1176(6) 0.7767(3)
H17_28 H 0.8035 0.1242 0.7596
H18_28 H 0.7694 0.1335 0.7809
C26_28 C 0.8453(6) 0.1842(6) 0.7822(3)
H19_28 H 0.8718 0.1952 0.7910
H20_28 H 0.8536 0.1819 0.7650
C27_28 C 0.8208(6) 0.1398(6) 0.8181(3)
H21_28 H 0.8165 0.1088 0.8236
H22_28 H 0.7914 0.1546 0.8190
C28_28 C 0.8079(6) 0.2190(6) 0.7847(3)
H23_28 H 0.7803 0.2070 0.7774
H24_28 H 0.8020 0.2244 0.8019
C29_28 C 0.8199(7) 0.2647(7) 0.7721(4)
H25_28 H 0.8249 0.2593 0.7548
H26_28 H 0.8481 0.2761 0.7790
C30_28 C 0.7432(7) 0.0555(7) 0.7705(4)
H27_28 H 0.7371 0.0706 0.7550
H28_28 H 0.7438 0.0231 0.7673
C31_28 C 0.7878(7) 0.0690(7) 0.7786(4)
H29_28 H 0.7916 0.0598 0.7955
H30_28 H 0.8103 0.0527 0.7689
C32_28 C 0.8275(7) 0.1579(7) 0.8606(4)
H31_28 H 0.8217 0.1262 0.8645
H32_28 H 0.7986 0.1737 0.8607
C33_28 C 0.7852(7) 0.2988(7) 0.7749(4)
H33_28 H 0.7946 0.3263 0.7669
H34_28 H 0.7575 0.2882 0.7676
H35_28 H 0.7803 0.3046 0.7920
C34_28 C 0.8756(7) 0.1067(7) 0.7888(4)
H36_28 H 0.8676 0.0767 0.7948
H37_28 H 0.8997 0.1183 0.7992
C35_28 C 0.8488(7) 0.1610(8) 0.8349(4)
H38_28 H 0.8784 0.1466 0.8350
H39_28 H 0.8528 0.1926 0.8304
C36_28 C 0.8928(7) 0.1023(7) 0.7642(4)
H40_28 H 0.8675 0.0985 0.7529
H41_28 H 0.9087 0.1298 0.7597
C37_28 C 0.7043(9) 0.0651(9) 0.7874(5)
H42_28 H 0.6766 0.0547 0.7801
H43_28 H 0.7090 0.0495 0.8027
H44_28 H 0.7024 0.0971 0.7904
C38_28 C 0.9599(10) 0.0558(11) 0.7786(5)
H45_28 H 0.9755 0.0282 0.7745
H46_28 H 0.9807 0.0808 0.7778
H47_28 H 0.9477 0.0535 0.7948
C39_28 C 0.9240(10) 0.0630(10) 0.7617(5)
H48_28 H 0.9376 0.0649 0.7455
H49_28 H 0.9054 0.0358 0.7619
C40_28 C 0.8558(13) 0.1767(13) 0.8785(7)
H50_28 H 0.8415 0.1744 0.8942
H51_28 H 0.8841 0.1605 0.8787
H52_28 H 0.8613 0.2080 0.8747
C29_29 C 0.0147(7) 0.0699(7) 0.4779(4)
H25_29 H 0.0093 0.0749 0.4952
H26_29 H 0.0261 0.0981 0.4710
C33_29 C 0.0488(7) 0.0352(7) 0.4751(4)
H33_29 H 0.0763 0.0446 0.4831
H34_29 H 0.0382 0.0075 0.4824
H35_29 H 0.0546 0.0303 0.4580
N5_29 N 0.8877(4) 0.0842(4) 0.4586(2)
C25_29 C 0.8676(6) 0.0471(6) 0.4733(3)
H17_29 H 0.8742 0.0535 0.4904
H18_29 H 0.8835 0.0194 0.4691
C26_29 C 0.9342(6) 0.0953(6) 0.4678(3)
H19_29 H 0.9452 0.1218 0.4590
H20_29 H 0.9319 0.1036 0.4850
C27_29 C 0.8898(6) 0.0708(6) 0.4319(3)
H21_29 H 0.8588 0.0665 0.4264
H22_29 H 0.9046 0.0414 0.4310
C28_29 C 0.9690(6) 0.0579(6) 0.4653(3)
H23_29 H 0.9570 0.0303 0.4726
H24_29 H 0.9744 0.0520 0.4481
C31_29 C 0.8190(7) 0.0378(7) 0.4714(4)
H29_29 H 0.8098 0.0416 0.4545
H30_29 H 0.8027 0.0603 0.4811
C32_29 C 0.9079(7) 0.0775(7) 0.3894(4)
H31_29 H 0.8762 0.0717 0.3855
H32_29 H 0.9237 0.0486 0.3893
C34_29 C 0.8567(7) 0.1256(7) 0.4612(4)
H36_29 H 0.8267 0.1176 0.4552
H37_29 H 0.8683 0.1497 0.4508
C35_29 C 0.9110(8) 0.0988(7) 0.4151(4)
H38_29 H 0.8966 0.1284 0.4150
H39_29 H 0.9426 0.1028 0.4196
C36_29 C 0.8523(7) 0.1428(7) 0.4858(4)
H40_29 H 0.8485 0.1175 0.4971
H41_29 H 0.8798 0.1587 0.4903
C38_29 C 0.8058(11) 0.2099(10) 0.4714(5)
H45_29 H 0.7782 0.2255 0.4755
H46_29 H 0.8308 0.2307 0.4722
H47_29 H 0.8035 0.1977 0.4552
C39_29 C 0.8130(10) 0.1740(10) 0.4883(5)
H48_29 H 0.8149 0.1876 0.5045
H49_29 H 0.7858 0.1554 0.4881
C40_29 C 0.9267(13) 0.1058(13) 0.3715(7)
H50_29 H 0.9244 0.0915 0.3558
H51_29 H 0.9105 0.1341 0.3713
H52_29 H 0.9580 0.1113 0.3753
C30_29 C 0.8055(7) 0.9932(7) 0.4795(4)
H27_29 H 0.8206 0.9871 0.4950
H28_29 H 0.7731 0.9938 0.4827
C37_29 C 0.8151(9) 0.9543(9) 0.4626(5)
H42_29 H 0.8047 0.9266 0.4699
H43_29 H 0.7995 0.9590 0.4473
H44_29 H 0.8471 0.9524 0.4596
C30_30 C 0.6945(7) 0.0068(7) 0.9795(4)
H27_30 H 0.6794 0.0129 0.9950
H28_30 H 0.7269 0.0062 0.9827
C37_30 C 0.6849(9) 0.0457(9) 0.9626(5)
H42_30 H 0.6953 0.0734 0.9699
H43_30 H 0.7005 0.0410 0.9473
H44_30 H 0.6529 0.0476 0.9596
H48_30 H 0.6851 0.8124 0.0045
N5_30 N 0.6123(4) 0.9158(4) 0.9586(2)
C25_30 C 0.6324(6) 0.9529(6) 0.9733(3)
H17_30 H 0.6258 0.9465 0.9904
H18_30 H 0.6165 0.9806 0.9691
C26_30 C 0.5658(6) 0.9047(6) 0.9678(3)
H19_30 H 0.5548 0.8782 0.9590
H20_30 H 0.5681 0.8964 0.9850
C27_30 C 0.6102(6) 0.9292(6) 0.9319(3)
H21_30 H 0.6412 0.9335 0.9264
H22_30 H 0.5954 0.9586 0.9310
C28_30 C 0.5310(6) 0.9421(6) 0.9653(3)
H23_30 H 0.5430 0.9697 0.9726
H24_30 H 0.5256 0.9480 0.9481
C29_30 C 0.4853(7) 0.9301(7) 0.9779(4)
H25_30 H 0.4907 0.9251 0.9952
H26_30 H 0.4739 0.9019 0.9710
C31_30 C 0.6810(7) 0.9622(7) 0.9714(4)
H29_30 H 0.6902 0.9584 0.9545
H30_30 H 0.6973 0.9397 0.9811
C32_30 C 0.5921(7) 0.9225(7) 0.8894(4)
H31_30 H 0.6238 0.9283 0.8855
H32_30 H 0.5763 0.9514 0.8893
C33_30 C 0.4512(7) 0.9648(7) 0.9751(4)
H33_30 H 0.4237 0.9554 0.9831
H34_30 H 0.4618 0.9925 0.9824
H35_30 H 0.4454 0.9697 0.9580
C34_30 C 0.6433(7) 0.8744(7) 0.9612(4)
H36_30 H 0.6733 0.8824 0.9552
H37_30 H 0.6317 0.8503 0.9508
C35_30 C 0.5890(8) 0.9012(7) 0.9151(4)
H38_30 H 0.6034 0.8716 0.9150
H39_30 H 0.5574 0.8972 0.9196
C36_30 C 0.6477(7) 0.8572(7) 0.9858(4)
H40_30 H 0.6515 0.8825 0.9971
H41_30 H 0.6202 0.8413 0.9903
C38_30 C 0.6942(11) 0.7901(10) 0.9714(5)
H45_30 H 0.7218 0.7745 0.9755
H46_30 H 0.6692 0.7693 0.9722
H47_30 H 0.6965 0.8023 0.9552
C39_30 C 0.6870(10) 0.8260(10) 0.9883(5)
H49_30 H 0.7142 0.8446 0.9881
C40_30 C 0.5733(13) 0.8942(13) 0.8715(7)
H50_30 H 0.5756 0.9085 0.8558
H51_30 H 0.5895 0.8659 0.8713
H52_30 H 0.5420 0.8887 0.8753
N5_31 N 0.8342(4) 0.8623(4) 0.7086(2)
C25_31 C 0.7971(6) 0.8824(6) 0.7233(3)
H17_31 H 0.8035 0.8758 0.7404
H18_31 H 0.7694 0.8665 0.7191
C26_31 C 0.8453(6) 0.8158(6) 0.7178(3)
H19_31 H 0.8718 0.8048 0.7090
H20_31 H 0.8536 0.8181 0.7350
C27_31 C 0.8208(6) 0.8602(6) 0.6819(3)
H21_31 H 0.8165 0.8912 0.6764
H22_31 H 0.7914 0.8454 0.6810
C28_31 C 0.8079(6) 0.7810(6) 0.7153(3)
H23_31 H 0.7803 0.7930 0.7226
H24_31 H 0.8020 0.7756 0.6981
C29_31 C 0.8199(7) 0.7353(7) 0.7279(4)
H25_31 H 0.8249 0.7407 0.7452
H26_31 H 0.8481 0.7239 0.7210
C30_31 C 0.7432(7) 0.9445(7) 0.7295(4)
H27_31 H 0.7371 0.9294 0.7450
H28_31 H 0.7438 0.9769 0.7327
C31_31 C 0.7878(7) 0.9310(7) 0.7214(4)
H29_31 H 0.7916 0.9402 0.7045
H30_31 H 0.8103 0.9473 0.7311
C32_31 C 0.8275(7) 0.8421(7) 0.6394(4)
H31_31 H 0.8217 0.8738 0.6355
H32_31 H 0.7986 0.8263 0.6393
C33_31 C 0.7852(7) 0.7012(7) 0.7251(4)
H33_31 H 0.7946 0.6737 0.7331
H34_31 H 0.7575 0.7118 0.7324
H35_31 H 0.7803 0.6954 0.7080
C34_31 C 0.8756(7) 0.8933(7) 0.7112(4)
H36_31 H 0.8676 0.9233 0.7052
H37_31 H 0.8997 0.8817 0.7008
C35_31 C 0.8488(7) 0.8390(8) 0.6651(4)
H38_31 H 0.8784 0.8534 0.6650
H39_31 H 0.8528 0.8074 0.6696
C36_31 C 0.8928(7) 0.8977(7) 0.7358(4)
H40_31 H 0.8675 0.9015 0.7471
H41_31 H 0.9087 0.8702 0.7403
C37_31 C 0.7043(9) 0.9349(9) 0.7126(5)
H42_31 H 0.6766 0.9453 0.7199
H43_31 H 0.7090 0.9505 0.6973
H44_31 H 0.7024 0.9029 0.7096
C38_31 C 0.9599(10) 0.9442(11) 0.7214(5)
H45_31 H 0.9755 0.9718 0.7255
H46_31 H 0.9807 0.9192 0.7222
H47_31 H 0.9477 0.9465 0.7052
C39_31 C 0.9240(10) 0.9370(10) 0.7383(5)
H48_31 H 0.9376 0.9351 0.7545
H49_31 H 0.9054 0.9642 0.7381
C40_31 C 0.8558(13) 0.8233(13) 0.6215(7)
H50_31 H 0.8415 0.8256 0.6058
H51_31 H 0.8841 0.8395 0.6213
H52_31 H 0.8613 0.7920 0.6253
N5_32 N 0.6658(4) 0.1377(4) 0.2086(2)
C25_32 C 0.7029(6) 0.1176(6) 0.2233(3)
H17_32 H 0.6965 0.1242 0.2404
H18_32 H 0.7306 0.1335 0.2191
C26_32 C 0.6547(6) 0.1842(6) 0.2178(3)
H19_32 H 0.6282 0.1952 0.2090
H20_32 H 0.6464 0.1819 0.2350
C27_32 C 0.6792(6) 0.1398(6) 0.1819(3)
H21_32 H 0.6835 0.1088 0.1764
H22_32 H 0.7086 0.1546 0.1810
C28_32 C 0.6921(6) 0.2190(6) 0.2153(3)
H23_32 H 0.7197 0.2070 0.2226
H24_32 H 0.6980 0.2244 0.1981
C29_32 C 0.6801(7) 0.2647(7) 0.2279(4)
H25_32 H 0.6751 0.2593 0.2452
H26_32 H 0.6519 0.2761 0.2210
C30_32 C 0.7568(7) 0.0555(7) 0.2295(4)
H27_32 H 0.7629 0.0706 0.2450
H28_32 H 0.7562 0.0231 0.2327
C31_32 C 0.7122(7) 0.0690(7) 0.2214(4)
H29_32 H 0.7084 0.0598 0.2045
H30_32 H 0.6897 0.0527 0.2311
C32_32 C 0.6725(7) 0.1579(7) 0.1394(4)
H31_32 H 0.6783 0.1262 0.1355
H32_32 H 0.7014 0.1737 0.1393
C33_32 C 0.7148(7) 0.2988(7) 0.2251(4)
H33_32 H 0.7054 0.3263 0.2331
H34_32 H 0.7425 0.2882 0.2324
H35_32 H 0.7197 0.3046 0.2080
C34_32 C 0.6244(7) 0.1067(7) 0.2112(4)
H36_32 H 0.6324 0.0767 0.2052
H37_32 H 0.6003 0.1183 0.2008
C35_32 C 0.6512(7) 0.1610(8) 0.1651(4)
H38_32 H 0.6216 0.1466 0.1650
H39_32 H 0.6472 0.1926 0.1696
C36_32 C 0.6072(7) 0.1023(7) 0.2358(4)
H40_32 H 0.6325 0.0985 0.2471
H41_32 H 0.5913 0.1298 0.2403
C37_32 C 0.7957(9) 0.0651(9) 0.2126(5)
H42_32 H 0.8234 0.0547 0.2199
H43_32 H 0.7910 0.0495 0.1973
H44_32 H 0.7976 0.0971 0.2096
C38_32 C 0.5401(10) 0.0558(11) 0.2214(5)
H45_32 H 0.5245 0.0282 0.2255
H46_32 H 0.5193 0.0808 0.2222
H47_32 H 0.5523 0.0535 0.2052
C39_32 C 0.5760(10) 0.0630(10) 0.2383(5)
H48_32 H 0.5624 0.0649 0.2545
H49_32 H 0.5946 0.0358 0.2381
C40_32 C 0.6442(13) 0.1767(13) 0.1215(7)
H50_32 H 0.6585 0.1744 0.1058
H51_32 H 0.6159 0.1605 0.1213
H52_32 H 0.6387 0.2080 0.1253
N6 N 0.6316(4) 0.6184(4) 0.1250
C41 C 0.6763(5) 0.6230(5) 0.1137(3)
H53 H 0.6793 0.5987 0.1018
H54 H 0.6988 0.6175 0.1263
C42 C 0.6887(7) 0.6658(7) 0.1012(4)
H55 H 0.6683 0.6701 0.0874
H56 H 0.6837 0.6907 0.1125
C43 C 0.5934(7) 0.6260(7) 0.1050(3)
H57 H 0.5640 0.6262 0.1131
H58 H 0.5978 0.6555 0.0975
C44 C 0.5931(9) 0.5900(8) 0.0852(5)
H59 H 0.5787 0.5621 0.0906
H60 H 0.6234 0.5834 0.0792
C45 C 0.5611(9) 0.6180(9) 0.0640(5)
H61 H 0.5325 0.6287 0.0706
H62 H 0.5774 0.6427 0.0562
C46 C 0.7512(13) 0.6385(12) 0.0766(6)
H63 H 0.7819 0.6477 0.0734
H64 H 0.7342 0.6386 0.0616
H65 H 0.7511 0.6084 0.0834
C47 C 0.7316(9) 0.6682(9) 0.0930(5)
H66 H 0.7508 0.6678 0.1074
H67 H 0.7349 0.6982 0.0858
C48 C 0.5559(13) 0.5809(11) 0.0487(7)
H68 H 0.5377 0.5894 0.0348
H69 H 0.5412 0.5568 0.0575
H70 H 0.5852 0.5709 0.0432
C49 C 0.6270(5) 0.5737(5) 0.1363(3)
H71 H 0.6513 0.5707 0.1482
H72 H 0.6325 0.5512 0.1237
C50 C 0.5842(7) 0.5613(7) 0.1488(4)
H73 H 0.5799 0.5817 0.1626
H74 H 0.5593 0.5663 0.1375
C51 C 0.6240(7) 0.6566(7) 0.1450(3)
H75 H 0.6238 0.6860 0.1369
H76 H 0.5945 0.6522 0.1525
C52 C 0.6600(8) 0.6569(9) 0.1648(5)
H77 H 0.6879 0.6713 0.1594
H78 H 0.6666 0.6266 0.1708
C53 C 0.6320(9) 0.6889(9) 0.1860(5)
H79 H 0.6213 0.7175 0.1794
H80 H 0.6073 0.6726 0.1938
C54 C 0.6115(12) 0.4988(13) 0.1734(6)
H81 H 0.6023 0.4681 0.1766
H82 H 0.6114 0.5158 0.1884
H83 H 0.6416 0.4989 0.1666
C55 C 0.5818(9) 0.5184(9) 0.1570(5)
H84 H 0.5822 0.4992 0.1426
H85 H 0.5518 0.5151 0.1642
C56 C 0.6691(11) 0.6941(13) 0.2013(7)
H86 H 0.6606 0.7123 0.2152
H87 H 0.6932 0.7088 0.1925
H88 H 0.6791 0.6648 0.2068
N6_2 N 0.8684(4) 0.3816(4) 0.6250
C41_2 C 0.8237(5) 0.3770(5) 0.6137(3)
H53_2 H 0.8207 0.4013 0.6018
H54_2 H 0.8012 0.3825 0.6263
C42_2 C 0.8113(7) 0.3342(7) 0.6012(4)
H55_2 H 0.8317 0.3299 0.5874
H56_2 H 0.8163 0.3093 0.6125
C43_2 C 0.9066(7) 0.3740(7) 0.6050(3)
H57_2 H 0.9360 0.3738 0.6131
H58_2 H 0.9022 0.3445 0.5975
C44_2 C 0.9069(9) 0.4100(8) 0.5852(5)
H59_2 H 0.9213 0.4379 0.5906
H60_2 H 0.8766 0.4166 0.5792
C45_2 C 0.9389(9) 0.3820(9) 0.5640(5)
H61_2 H 0.9675 0.3713 0.5706
H62_2 H 0.9226 0.3573 0.5562
C46_2 C 0.7488(13) 0.3615(12) 0.5766(6)
H63_2 H 0.7181 0.3523 0.5734
H64_2 H 0.7658 0.3614 0.5616
H65_2 H 0.7489 0.3916 0.5834
C47_2 C 0.7684(9) 0.3318(9) 0.5930(5)
H66_2 H 0.7492 0.3322 0.6074
H67_2 H 0.7651 0.3018 0.5858
C48_2 C 0.9441(13) 0.4191(11) 0.5487(7)
H68_2 H 0.9623 0.4106 0.5348
H69_2 H 0.9588 0.4432 0.5575
H70_2 H 0.9148 0.4291 0.5432
C49_2 C 0.8730(5) 0.4263(5) 0.6363(3)
H71_2 H 0.8487 0.4293 0.6482
H72_2 H 0.8675 0.4488 0.6237
C50_2 C 0.9158(7) 0.4387(7) 0.6488(4)
H73_2 H 0.9201 0.4183 0.6626
H74_2 H 0.9407 0.4337 0.6375
C51_2 C 0.8760(7) 0.3434(7) 0.6450(3)
H75_2 H 0.8762 0.3140 0.6369
H76_2 H 0.9055 0.3478 0.6525
C52_2 C 0.8400(8) 0.3431(9) 0.6648(5)
H77_2 H 0.8121 0.3287 0.6594
H78_2 H 0.8334 0.3734 0.6708
C53_2 C 0.8680(9) 0.3111(9) 0.6860(5)
H79_2 H 0.8787 0.2825 0.6794
H80_2 H 0.8927 0.3274 0.6938
C54_2 C 0.8885(12) 0.5012(13) 0.6734(6)
H81_2 H 0.8977 0.5319 0.6766
H82_2 H 0.8886 0.4842 0.6884
H83_2 H 0.8584 0.5011 0.6666
C55_2 C 0.9182(9) 0.4816(9) 0.6570(5)
H84_2 H 0.9178 0.5008 0.6426
H85_2 H 0.9482 0.4849 0.6642
C56_2 C 0.8309(11) 0.3059(13) 0.7013(7)
H86_2 H 0.8394 0.2877 0.7152
H87_2 H 0.8068 0.2912 0.6925
H88_2 H 0.8209 0.3352 0.7068
N6_3 N 0.6316(4) 0.3816(4) 0.3750
C41_3 C 0.6270(5) 0.4263(5) 0.3637(3)
H53_3 H 0.6513 0.4293 0.3518
H54_3 H 0.6325 0.4488 0.3763
C42_3 C 0.5842(7) 0.4387(7) 0.3512(4)
H55_3 H 0.5799 0.4183 0.3374
H56_3 H 0.5593 0.4337 0.3625
C43_3 C 0.6240(7) 0.3434(7) 0.3550(3)
H57_3 H 0.6238 0.3140 0.3631
H58_3 H 0.5945 0.3478 0.3475
C44_3 C 0.6600(8) 0.3431(9) 0.3352(5)
H59_3 H 0.6879 0.3287 0.3406
H60_3 H 0.6666 0.3734 0.3292
C45_3 C 0.6320(9) 0.3111(9) 0.3140(5)
H61_3 H 0.6213 0.2825 0.3206
H62_3 H 0.6073 0.3274 0.3062
C46_3 C 0.6115(12) 0.5012(13) 0.3266(6)
H63_3 H 0.6023 0.5319 0.3234
H64_3 H 0.6114 0.4842 0.3116
H65_3 H 0.6416 0.5011 0.3334
C47_3 C 0.5818(9) 0.4816(9) 0.3430(5)
H66_3 H 0.5822 0.5008 0.3574
H67_3 H 0.5518 0.4849 0.3358
C48_3 C 0.6691(11) 0.3059(13) 0.2987(7)
H68_3 H 0.6606 0.2877 0.2848
H69_3 H 0.6932 0.2912 0.3075
H70_3 H 0.6791 0.3352 0.2932
C49_3 C 0.6763(5) 0.3770(5) 0.3863(3)
H71_3 H 0.6793 0.4013 0.3982
H72_3 H 0.6988 0.3825 0.3737
C50_3 C 0.6887(7) 0.3342(7) 0.3988(4)
H73_3 H 0.6683 0.3299 0.4126
H74_3 H 0.6837 0.3093 0.3875
C51_3 C 0.5934(7) 0.3740(7) 0.3950(3)
H75_3 H 0.5640 0.3738 0.3869
H76_3 H 0.5978 0.3445 0.4025
C52_3 C 0.5931(9) 0.4100(8) 0.4148(5)
H77_3 H 0.5787 0.4379 0.4094
H78_3 H 0.6234 0.4166 0.4208
C53_3 C 0.5611(9) 0.3820(9) 0.4360(5)
H79_3 H 0.5325 0.3713 0.4294
H80_3 H 0.5774 0.3573 0.4438
C54_3 C 0.7512(13) 0.3615(12) 0.4234(6)
H81_3 H 0.7819 0.3523 0.4266
H82_3 H 0.7342 0.3614 0.4384
H83_3 H 0.7511 0.3916 0.4166
C55_3 C 0.7316(9) 0.3318(9) 0.4070(5)
H84_3 H 0.7508 0.3322 0.3926
H85_3 H 0.7349 0.3018 0.4142
C56_3 C 0.5559(13) 0.4191(11) 0.4513(7)
H86_3 H 0.5377 0.4106 0.4652
H87_3 H 0.5412 0.4432 0.4425
H88_3 H 0.5852 0.4291 0.4568
N6_4 N 0.8684(4) 0.6184(4) 0.8750
C41_4 C 0.8730(5) 0.5737(5) 0.8637(3)
H53_4 H 0.8487 0.5707 0.8518
H54_4 H 0.8675 0.5512 0.8763
C42_4 C 0.9158(7) 0.5613(7) 0.8512(4)
H55_4 H 0.9201 0.5817 0.8374
H56_4 H 0.9407 0.5663 0.8625
C43_4 C 0.8760(7) 0.6566(7) 0.8550(3)
H57_4 H 0.8762 0.6860 0.8631
H58_4 H 0.9055 0.6522 0.8475
C44_4 C 0.8400(8) 0.6569(9) 0.8352(5)
H59_4 H 0.8121 0.6713 0.8406
H60_4 H 0.8334 0.6266 0.8292
C45_4 C 0.8680(9) 0.6889(9) 0.8140(5)
H61_4 H 0.8787 0.7175 0.8206
H62_4 H 0.8927 0.6726 0.8062
C46_4 C 0.8885(12) 0.4988(13) 0.8266(6)
H63_4 H 0.8977 0.4681 0.8234
H64_4 H 0.8886 0.5158 0.8116
H65_4 H 0.8584 0.4989 0.8334
C47_4 C 0.9182(9) 0.5184(9) 0.8430(5)
H66_4 H 0.9178 0.4992 0.8574
H67_4 H 0.9482 0.5151 0.8358
C48_4 C 0.8309(11) 0.6941(13) 0.7987(7)
H68_4 H 0.8394 0.7123 0.7848
H69_4 H 0.8068 0.7088 0.8075
H70_4 H 0.8209 0.6648 0.7932
C49_4 C 0.8237(5) 0.6230(5) 0.8863(3)
H71_4 H 0.8207 0.5987 0.8982
H72_4 H 0.8012 0.6175 0.8737
C50_4 C 0.8113(7) 0.6658(7) 0.8988(4)
H73_4 H 0.8317 0.6701 0.9126
H74_4 H 0.8163 0.6907 0.8875
C51_4 C 0.9066(7) 0.6260(7) 0.8950(3)
H75_4 H 0.9360 0.6262 0.8869
H76_4 H 0.9022 0.6555 0.9025
C52_4 C 0.9069(9) 0.5900(8) 0.9148(5)
H77_4 H 0.9213 0.5621 0.9094
H78_4 H 0.8766 0.5834 0.9208
C53_4 C 0.9389(9) 0.6180(9) 0.9360(5)
H79_4 H 0.9675 0.6287 0.9294
H80_4 H 0.9226 0.6427 0.9438
C54_4 C 0.7488(13) 0.6385(12) 0.9234(6)
H81_4 H 0.7181 0.6477 0.9266
H82_4 H 0.7658 0.6386 0.9384
H83_4 H 0.7489 0.6084 0.9166
C55_4 C 0.7684(9) 0.6682(9) 0.9070(5)
H84_4 H 0.7492 0.6678 0.8926
H85_4 H 0.7651 0.6982 0.9142
C56_4 C 0.9441(13) 0.5809(11) 0.9513(7)
H86_4 H 0.9623 0.5894 0.9652
H87_4 H 0.9588 0.5568 0.9425
H88_4 H 0.9148 0.5709 0.9568
N6_5 N 0.1316(4) 0.1184(4) 0.6250
C41_5 C 0.1763(5) 0.1230(5) 0.6137(3)
H53_5 H 0.1793 0.0987 0.6018
H54_5 H 0.1988 0.1175 0.6263
C42_5 C 0.1887(7) 0.1658(7) 0.6012(4)
H55_5 H 0.1683 0.1701 0.5874
H56_5 H 0.1837 0.1907 0.6125
C43_5 C 0.0934(7) 0.1260(7) 0.6050(3)
H57_5 H 0.0640 0.1262 0.6131
H58_5 H 0.0978 0.1555 0.5975
C44_5 C 0.0931(9) 0.0900(8) 0.5852(5)
H59_5 H 0.0787 0.0621 0.5906
H60_5 H 0.1234 0.0834 0.5792
C45_5 C 0.0611(9) 0.1180(9) 0.5640(5)
H61_5 H 0.0325 0.1287 0.5706
H62_5 H 0.0774 0.1427 0.5562
C46_5 C 0.2512(13) 0.1385(12) 0.5766(6)
H63_5 H 0.2819 0.1477 0.5734
H64_5 H 0.2342 0.1386 0.5616
H65_5 H 0.2511 0.1084 0.5834
C47_5 C 0.2316(9) 0.1682(9) 0.5930(5)
H66_5 H 0.2508 0.1678 0.6074
H67_5 H 0.2349 0.1982 0.5858
C48_5 C 0.0559(13) 0.0809(11) 0.5487(7)
H68_5 H 0.0377 0.0894 0.5348
H69_5 H 0.0412 0.0568 0.5575
H70_5 H 0.0852 0.0709 0.5432
C49_5 C 0.1270(5) 0.0737(5) 0.6363(3)
H71_5 H 0.1513 0.0707 0.6482
H72_5 H 0.1325 0.0512 0.6237
C50_5 C 0.0842(7) 0.0613(7) 0.6488(4)
H73_5 H 0.0799 0.0817 0.6626
H74_5 H 0.0593 0.0663 0.6375
C51_5 C 0.1240(7) 0.1566(7) 0.6450(3)
H75_5 H 0.1238 0.1860 0.6369
H76_5 H 0.0945 0.1522 0.6525
C52_5 C 0.1600(8) 0.1569(9) 0.6648(5)
H77_5 H 0.1879 0.1713 0.6594
H78_5 H 0.1666 0.1266 0.6708
C53_5 C 0.1320(9) 0.1889(9) 0.6860(5)
H79_5 H 0.1213 0.2175 0.6794
H80_5 H 0.1073 0.1726 0.6938
H82_5 H 0.1114 0.0158 0.6884
C55_5 C 0.0818(9) 0.0184(9) 0.6570(5)
H85_5 H 0.0518 0.0151 0.6642
C56_5 C 0.1691(11) 0.1941(13) 0.7013(7)
H86_5 H 0.1606 0.2123 0.7152
H87_5 H 0.1932 0.2088 0.6925
H88_5 H 0.1791 0.1648 0.7068
C54_5 C 0.1115(12) 0.9988(13) 0.6734(6)
H81_5 H 0.1023 0.9681 0.6766
H83_5 H 0.1416 0.9989 0.6666
H84_5 H 0.0822 0.9992 0.6426
C54_6 C 0.3885(12) 0.0012(13) 0.1734(6)
H81_6 H 0.3977 0.0319 0.1766
H83_6 H 0.3584 0.0011 0.1666
H84_6 H 0.4178 0.0008 0.1426
N6_6 N 0.3684(4) 0.8816(4) 0.1250
C41_6 C 0.3237(5) 0.8770(5) 0.1137(3)
H53_6 H 0.3207 0.9013 0.1018
H54_6 H 0.3012 0.8825 0.1263
C42_6 C 0.3113(7) 0.8342(7) 0.1012(4)
H55_6 H 0.3317 0.8299 0.0874
H56_6 H 0.3163 0.8093 0.1125
C43_6 C 0.4066(7) 0.8740(7) 0.1050(3)
H57_6 H 0.4360 0.8738 0.1131
H58_6 H 0.4022 0.8445 0.0975
C44_6 C 0.4069(9) 0.9100(8) 0.0852(5)
H59_6 H 0.4213 0.9379 0.0906
H60_6 H 0.3766 0.9166 0.0792
C45_6 C 0.4389(9) 0.8820(9) 0.0640(5)
H61_6 H 0.4675 0.8713 0.0706
H62_6 H 0.4226 0.8573 0.0562
C46_6 C 0.2488(13) 0.8615(12) 0.0766(6)
H63_6 H 0.2181 0.8523 0.0734
H64_6 H 0.2658 0.8614 0.0616
H65_6 H 0.2489 0.8916 0.0834
C47_6 C 0.2684(9) 0.8318(9) 0.0930(5)
H66_6 H 0.2492 0.8322 0.1074
H67_6 H 0.2651 0.8018 0.0858
C48_6 C 0.4441(13) 0.9191(11) 0.0487(7)
H68_6 H 0.4623 0.9106 0.0348
H69_6 H 0.4588 0.9432 0.0575
H70_6 H 0.4148 0.9291 0.0432
C49_6 C 0.3730(5) 0.9263(5) 0.1363(3)
H71_6 H 0.3487 0.9293 0.1482
H72_6 H 0.3675 0.9488 0.1237
C50_6 C 0.4158(7) 0.9387(7) 0.1488(4)
H73_6 H 0.4201 0.9183 0.1626
H74_6 H 0.4407 0.9337 0.1375
C51_6 C 0.3760(7) 0.8434(7) 0.1450(3)
H75_6 H 0.3762 0.8140 0.1369
H76_6 H 0.4055 0.8478 0.1525
C52_6 C 0.3400(8) 0.8431(9) 0.1648(5)
H77_6 H 0.3121 0.8287 0.1594
H78_6 H 0.3334 0.8734 0.1708
C53_6 C 0.3680(9) 0.8111(9) 0.1860(5)
H79_6 H 0.3787 0.7825 0.1794
H80_6 H 0.3927 0.8274 0.1938
H82_6 H 0.3886 0.9842 0.1884
C55_6 C 0.4182(9) 0.9816(9) 0.1570(5)
H85_6 H 0.4482 0.9849 0.1642
C56_6 C 0.3309(11) 0.8059(13) 0.2013(7)
H86_6 H 0.3394 0.7877 0.2152
H87_6 H 0.3068 0.7912 0.1925
H88_6 H 0.3209 0.8352 0.2068
C46_7 C 0.1115(12) 0.0012(13) 0.8266(6)
H63_7 H 0.1023 0.0319 0.8234
H65_7 H 0.1416 0.0011 0.8334
H66_7 H 0.0822 0.0008 0.8574
N6_7 N 0.1316(4) 0.8816(4) 0.8750
C41_7 C 0.1270(5) 0.9263(5) 0.8637(3)
H53_7 H 0.1513 0.9293 0.8518
H54_7 H 0.1325 0.9488 0.8763
C42_7 C 0.0842(7) 0.9387(7) 0.8512(4)
H55_7 H 0.0799 0.9183 0.8374
H56_7 H 0.0593 0.9337 0.8625
C43_7 C 0.1240(7) 0.8434(7) 0.8550(3)
H57_7 H 0.1238 0.8140 0.8631
H58_7 H 0.0945 0.8478 0.8475
C44_7 C 0.1600(8) 0.8431(9) 0.8352(5)
H59_7 H 0.1879 0.8287 0.8406
H60_7 H 0.1666 0.8734 0.8292
C45_7 C 0.1320(9) 0.8111(9) 0.8140(5)
H61_7 H 0.1213 0.7825 0.8206
H62_7 H 0.1073 0.8274 0.8062
H64_7 H 0.1114 0.9842 0.8116
C47_7 C 0.0818(9) 0.9816(9) 0.8430(5)
H67_7 H 0.0518 0.9849 0.8358
C48_7 C 0.1691(11) 0.8059(13) 0.7987(7)
H68_7 H 0.1606 0.7877 0.7848
H69_7 H 0.1932 0.7912 0.8075
H70_7 H 0.1791 0.8352 0.7932
C49_7 C 0.1763(5) 0.8770(5) 0.8863(3)
H71_7 H 0.1793 0.9013 0.8982
H72_7 H 0.1988 0.8825 0.8737
C50_7 C 0.1887(7) 0.8342(7) 0.8988(4)
H73_7 H 0.1683 0.8299 0.9126
H74_7 H 0.1837 0.8093 0.8875
C51_7 C 0.0934(7) 0.8740(7) 0.8950(3)
H75_7 H 0.0640 0.8738 0.8869
H76_7 H 0.0978 0.8445 0.9025
C52_7 C 0.0931(9) 0.9100(8) 0.9148(5)
H77_7 H 0.0787 0.9379 0.9094
H78_7 H 0.1234 0.9166 0.9208
C53_7 C 0.0611(9) 0.8820(9) 0.9360(5)
H79_7 H 0.0325 0.8713 0.9294
H80_7 H 0.0774 0.8573 0.9438
C54_7 C 0.2512(13) 0.8615(12) 0.9234(6)
H81_7 H 0.2819 0.8523 0.9266
H82_7 H 0.2342 0.8614 0.9384
H83_7 H 0.2511 0.8916 0.9166
C55_7 C 0.2316(9) 0.8318(9) 0.9070(5)
H84_7 H 0.2508 0.8322 0.8926
H85_7 H 0.2349 0.8018 0.9142
C56_7 C 0.0559(13) 0.9191(11) 0.9513(7)
H86_7 H 0.0377 0.9106 0.9652
H87_7 H 0.0412 0.9432 0.9425
H88_7 H 0.0852 0.9291 0.9568
N6_8 N 0.3684(4) 0.1184(4) 0.3750
C41_8 C 0.3730(5) 0.0737(5) 0.3637(3)
H53_8 H 0.3487 0.0707 0.3518
H54_8 H 0.3675 0.0512 0.3763
C42_8 C 0.4158(7) 0.0613(7) 0.3512(4)
H55_8 H 0.4201 0.0817 0.3374
H56_8 H 0.4407 0.0663 0.3625
C43_8 C 0.3760(7) 0.1566(7) 0.3550(3)
H57_8 H 0.3762 0.1860 0.3631
H58_8 H 0.4055 0.1522 0.3475
C44_8 C 0.3400(8) 0.1569(9) 0.3352(5)
H59_8 H 0.3121 0.1713 0.3406
H60_8 H 0.3334 0.1266 0.3292
C45_8 C 0.3680(9) 0.1889(9) 0.3140(5)
H61_8 H 0.3787 0.2175 0.3206
H62_8 H 0.3927 0.1726 0.3062
H64_8 H 0.3886 0.0158 0.3116
C47_8 C 0.4182(9) 0.0184(9) 0.3430(5)
H67_8 H 0.4482 0.0151 0.3358
C48_8 C 0.3309(11) 0.1941(13) 0.2987(7)
H68_8 H 0.3394 0.2123 0.2848
H69_8 H 0.3068 0.2088 0.3075
H70_8 H 0.3209 0.1648 0.2932
C49_8 C 0.3237(5) 0.1230(5) 0.3863(3)
H71_8 H 0.3207 0.0987 0.3982
H72_8 H 0.3012 0.1175 0.3737
C50_8 C 0.3113(7) 0.1658(7) 0.3988(4)
H73_8 H 0.3317 0.1701 0.4126
H74_8 H 0.3163 0.1907 0.3875
C51_8 C 0.4066(7) 0.1260(7) 0.3950(3)
H75_8 H 0.4360 0.1262 0.3869
H76_8 H 0.4022 0.1555 0.4025
C52_8 C 0.4069(9) 0.0900(8) 0.4148(5)
H77_8 H 0.4213 0.0621 0.4094
H78_8 H 0.3766 0.0834 0.4208
C53_8 C 0.4389(9) 0.1180(9) 0.4360(5)
H79_8 H 0.4675 0.1287 0.4294
H80_8 H 0.4226 0.1427 0.4438
C54_8 C 0.2488(13) 0.1385(12) 0.4234(6)
H81_8 H 0.2181 0.1477 0.4266
H82_8 H 0.2658 0.1386 0.4384
H83_8 H 0.2489 0.1084 0.4166
C55_8 C 0.2684(9) 0.1682(9) 0.4070(5)
H84_8 H 0.2492 0.1678 0.3926
H85_8 H 0.2651 0.1982 0.4142
C56_8 C 0.4441(13) 0.0809(11) 0.4513(7)
H86_8 H 0.4623 0.0894 0.4652
H87_8 H 0.4588 0.0568 0.4425
H88_8 H 0.4148 0.0709 0.4568
C46_8 C 0.3885(12) 0.9988(13) 0.3266(6)
H63_8 H 0.3977 0.9681 0.3234
H65_8 H 0.3584 0.9989 0.3334
H66_8 H 0.4178 0.9992 0.3574
N6_9 N 0.3684(4) 0.3816(4) 0.8750
C41_9 C 0.3237(5) 0.3770(5) 0.8863(3)
H53_9 H 0.3207 0.4013 0.8982
H54_9 H 0.3012 0.3825 0.8737
C42_9 C 0.3113(7) 0.3342(7) 0.8988(4)
H55_9 H 0.3317 0.3299 0.9126
H56_9 H 0.3163 0.3093 0.8875
C43_9 C 0.4066(7) 0.3740(7) 0.8950(3)
H57_9 H 0.4360 0.3738 0.8869
H58_9 H 0.4022 0.3445 0.9025
C44_9 C 0.4069(9) 0.4100(8) 0.9148(5)
H59_9 H 0.4213 0.4379 0.9094
H60_9 H 0.3766 0.4166 0.9208
C45_9 C 0.4389(9) 0.3820(9) 0.9360(5)
H61_9 H 0.4675 0.3713 0.9294
H62_9 H 0.4226 0.3573 0.9438
C46_9 C 0.2488(13) 0.3615(12) 0.9234(6)
H63_9 H 0.2181 0.3523 0.9266
H64_9 H 0.2658 0.3614 0.9384
H65_9 H 0.2489 0.3916 0.9166
C47_9 C 0.2684(9) 0.3318(9) 0.9070(5)
H66_9 H 0.2492 0.3322 0.8926
H67_9 H 0.2651 0.3018 0.9142
C48_9 C 0.4441(13) 0.4191(11) 0.9513(7)
H68_9 H 0.4623 0.4106 0.9652
H69_9 H 0.4588 0.4432 0.9425
H70_9 H 0.4148 0.4291 0.9568
C49_9 C 0.3730(5) 0.4263(5) 0.8637(3)
H71_9 H 0.3487 0.4293 0.8518
H72_9 H 0.3675 0.4488 0.8763
C50_9 C 0.4158(7) 0.4387(7) 0.8512(4)
H73_9 H 0.4201 0.4183 0.8374
H74_9 H 0.4407 0.4337 0.8625
C51_9 C 0.3760(7) 0.3434(7) 0.8550(3)
H75_9 H 0.3762 0.3140 0.8631
H76_9 H 0.4055 0.3478 0.8475
C52_9 C 0.3400(8) 0.3431(9) 0.8352(5)
H77_9 H 0.3121 0.3287 0.8406
H78_9 H 0.3334 0.3734 0.8292
C53_9 C 0.3680(9) 0.3111(9) 0.8140(5)
H79_9 H 0.3787 0.2825 0.8206
H80_9 H 0.3927 0.3274 0.8062
C54_9 C 0.3885(12) 0.5012(13) 0.8266(6)
H81_9 H 0.3977 0.5319 0.8234
H82_9 H 0.3886 0.4842 0.8116
H83_9 H 0.3584 0.5011 0.8334
C55_9 C 0.4182(9) 0.4816(9) 0.8430(5)
H84_9 H 0.4178 0.5008 0.8574
H85_9 H 0.4482 0.4849 0.8358
C56_9 C 0.3309(11) 0.3059(13) 0.7987(7)
H86_9 H 0.3394 0.2877 0.7848
H87_9 H 0.3068 0.2912 0.8075
H88_9 H 0.3209 0.3352 0.7932
N6_10 N 0.1316(4) 0.6184(4) 0.3750
C41_10 C 0.1763(5) 0.6230(5) 0.3863(3)
H53_10 H 0.1793 0.5987 0.3982
H54_10 H 0.1988 0.6175 0.3737
C42_10 C 0.1887(7) 0.6658(7) 0.3988(4)
H55_10 H 0.1683 0.6701 0.4126
H56_10 H 0.1837 0.6907 0.3875
C43_10 C 0.0934(7) 0.6260(7) 0.3950(3)
H57_10 H 0.0640 0.6262 0.3869
H58_10 H 0.0978 0.6555 0.4025
C44_10 C 0.0931(9) 0.5900(8) 0.4148(5)
H59_10 H 0.0787 0.5621 0.4094
H60_10 H 0.1234 0.5834 0.4208
C45_10 C 0.0611(9) 0.6180(9) 0.4360(5)
H61_10 H 0.0325 0.6287 0.4294
H62_10 H 0.0774 0.6427 0.4438
C46_10 C 0.2512(13) 0.6385(12) 0.4234(6)
H63_10 H 0.2819 0.6477 0.4266
H64_10 H 0.2342 0.6386 0.4384
H65_10 H 0.2511 0.6084 0.4166
C47_10 C 0.2316(9) 0.6682(9) 0.4070(5)
H66_10 H 0.2508 0.6678 0.3926
H67_10 H 0.2349 0.6982 0.4142
C48_10 C 0.0559(13) 0.5809(11) 0.4513(7)
H68_10 H 0.0377 0.5894 0.4652
H69_10 H 0.0412 0.5568 0.4425
H70_10 H 0.0852 0.5709 0.4568
C49_10 C 0.1270(5) 0.5737(5) 0.3637(3)
H71_10 H 0.1513 0.5707 0.3518
H72_10 H 0.1325 0.5512 0.3763
C50_10 C 0.0842(7) 0.5613(7) 0.3512(4)
H73_10 H 0.0799 0.5817 0.3374
H74_10 H 0.0593 0.5663 0.3625
C51_10 C 0.1240(7) 0.6566(7) 0.3550(3)
H75_10 H 0.1238 0.6860 0.3631
H76_10 H 0.0945 0.6522 0.3475
C52_10 C 0.1600(8) 0.6569(9) 0.3352(5)
H77_10 H 0.1879 0.6713 0.3406
H78_10 H 0.1666 0.6266 0.3292
C53_10 C 0.1320(9) 0.6889(9) 0.3140(5)
H79_10 H 0.1213 0.7175 0.3206
H80_10 H 0.1073 0.6726 0.3062
C54_10 C 0.1115(12) 0.4988(13) 0.3266(6)
H81_10 H 0.1023 0.4681 0.3234
H82_10 H 0.1114 0.5158 0.3116
H83_10 H 0.1416 0.4989 0.3334
C55_10 C 0.0818(9) 0.5184(9) 0.3430(5)
H84_10 H 0.0822 0.4992 0.3574
H85_10 H 0.0518 0.5151 0.3358
C56_10 C 0.1691(11) 0.6941(13) 0.2987(7)
H86_10 H 0.1606 0.7123 0.2848
H87_10 H 0.1932 0.7088 0.3075
H88_10 H 0.1791 0.6648 0.2932
N6_11 N 0.3684(4) 0.6184(4) 0.6250
C41_11 C 0.3730(5) 0.5737(5) 0.6363(3)
H53_11 H 0.3487 0.5707 0.6482
H54_11 H 0.3675 0.5512 0.6237
C42_11 C 0.4158(7) 0.5613(7) 0.6488(4)
H55_11 H 0.4201 0.5817 0.6626
H56_11 H 0.4407 0.5663 0.6375
C43_11 C 0.3760(7) 0.6566(7) 0.6450(3)
H57_11 H 0.3762 0.6860 0.6369
H58_11 H 0.4055 0.6522 0.6525
C44_11 C 0.3400(8) 0.6569(9) 0.6648(5)
H59_11 H 0.3121 0.6713 0.6594
H60_11 H 0.3334 0.6266 0.6708
C45_11 C 0.3680(9) 0.6889(9) 0.6860(5)
H61_11 H 0.3787 0.7175 0.6794
H62_11 H 0.3927 0.6726 0.6938
C46_11 C 0.3885(12) 0.4988(13) 0.6734(6)
H63_11 H 0.3977 0.4681 0.6766
H64_11 H 0.3886 0.5158 0.6884
H65_11 H 0.3584 0.4989 0.6666
C47_11 C 0.4182(9) 0.5184(9) 0.6570(5)
H66_11 H 0.4178 0.4992 0.6426
H67_11 H 0.4482 0.5151 0.6642
C48_11 C 0.3309(11) 0.6941(13) 0.7013(7)
H68_11 H 0.3394 0.7123 0.7152
H69_11 H 0.3068 0.7088 0.6925
H70_11 H 0.3209 0.6648 0.7068
C49_11 C 0.3237(5) 0.6230(5) 0.6137(3)
H71_11 H 0.3207 0.5987 0.6018
H72_11 H 0.3012 0.6175 0.6263
C50_11 C 0.3113(7) 0.6658(7) 0.6012(4)
H73_11 H 0.3317 0.6701 0.5874
H74_11 H 0.3163 0.6907 0.6125
C51_11 C 0.4066(7) 0.6260(7) 0.6050(3)
H75_11 H 0.4360 0.6262 0.6131
H76_11 H 0.4022 0.6555 0.5975
C52_11 C 0.4069(9) 0.5900(8) 0.5852(5)
H77_11 H 0.4213 0.5621 0.5906
H78_11 H 0.3766 0.5834 0.5792
C53_11 C 0.4389(9) 0.6180(9) 0.5640(5)
H79_11 H 0.4675 0.6287 0.5706
H80_11 H 0.4226 0.6427 0.5562
C54_11 C 0.2488(13) 0.6385(12) 0.5766(6)
H81_11 H 0.2181 0.6477 0.5734
H82_11 H 0.2658 0.6386 0.5616
H83_11 H 0.2489 0.6084 0.5834
C55_11 C 0.2684(9) 0.6682(9) 0.5930(5)
H84_11 H 0.2492 0.6678 0.6074
H85_11 H 0.2651 0.6982 0.5858
C56_11 C 0.4441(13) 0.5809(11) 0.5487(7)
H86_11 H 0.4623 0.5894 0.5348
H87_11 H 0.4588 0.5568 0.5575
H88_11 H 0.4148 0.5709 0.5432
N6_12 N 0.1316(4) 0.3816(4) 0.1250
C41_12 C 0.1270(5) 0.4263(5) 0.1363(3)
H53_12 H 0.1513 0.4293 0.1482
H54_12 H 0.1325 0.4488 0.1237
C42_12 C 0.0842(7) 0.4387(7) 0.1488(4)
H55_12 H 0.0799 0.4183 0.1626
H56_12 H 0.0593 0.4337 0.1375
C43_12 C 0.1240(7) 0.3434(7) 0.1450(3)
H57_12 H 0.1238 0.3140 0.1369
H58_12 H 0.0945 0.3478 0.1525
C44_12 C 0.1600(8) 0.3431(9) 0.1648(5)
H59_12 H 0.1879 0.3287 0.1594
H60_12 H 0.1666 0.3734 0.1708
C45_12 C 0.1320(9) 0.3111(9) 0.1860(5)
H61_12 H 0.1213 0.2825 0.1794
H62_12 H 0.1073 0.3274 0.1938
C46_12 C 0.1115(12) 0.5012(13) 0.1734(6)
H63_12 H 0.1023 0.5319 0.1766
H64_12 H 0.1114 0.4842 0.1884
H65_12 H 0.1416 0.5011 0.1666
C47_12 C 0.0818(9) 0.4816(9) 0.1570(5)
H66_12 H 0.0822 0.5008 0.1426
H67_12 H 0.0518 0.4849 0.1642
C48_12 C 0.1691(11) 0.3059(13) 0.2013(7)
H68_12 H 0.1606 0.2877 0.2152
H69_12 H 0.1932 0.2912 0.1925
H70_12 H 0.1791 0.3352 0.2068
C49_12 C 0.1763(5) 0.3770(5) 0.1137(3)
H71_12 H 0.1793 0.4013 0.1018
H72_12 H 0.1988 0.3825 0.1263
C50_12 C 0.1887(7) 0.3342(7) 0.1012(4)
H73_12 H 0.1683 0.3299 0.0874
H74_12 H 0.1837 0.3093 0.1125
C51_12 C 0.0934(7) 0.3740(7) 0.1050(3)
H75_12 H 0.0640 0.3738 0.1131
H76_12 H 0.0978 0.3445 0.0975
C52_12 C 0.0931(9) 0.4100(8) 0.0852(5)
H77_12 H 0.0787 0.4379 0.0906
H78_12 H 0.1234 0.4166 0.0792
C53_12 C 0.0611(9) 0.3820(9) 0.0640(5)
H79_12 H 0.0325 0.3713 0.0706
H80_12 H 0.0774 0.3573 0.0562
C54_12 C 0.2512(13) 0.3615(12) 0.0766(6)
H81_12 H 0.2819 0.3523 0.0734
H82_12 H 0.2342 0.3614 0.0616
H83_12 H 0.2511 0.3916 0.0834
C55_12 C 0.2316(9) 0.3318(9) 0.0930(5)
H84_12 H 0.2508 0.3322 0.1074
H85_12 H 0.2349 0.3018 0.0858
C56_12 C 0.0559(13) 0.4191(11) 0.0487(7)
H86_12 H 0.0377 0.4106 0.0348
H87_12 H 0.0412 0.4432 0.0575
H88_12 H 0.0852 0.4291 0.0432
C54_13 C 0.8885(12) 0.0012(13) 0.3266(6)
H81_13 H 0.8977 0.0319 0.3234
H83_13 H 0.8584 0.0011 0.3334
H84_13 H 0.9178 0.0008 0.3574
N6_13 N 0.8684(4) 0.8816(4) 0.3750
C41_13 C 0.8237(5) 0.8770(5) 0.3863(3)
H53_13 H 0.8207 0.9013 0.3982
H54_13 H 0.8012 0.8825 0.3737
C42_13 C 0.8113(7) 0.8342(7) 0.3988(4)
H55_13 H 0.8317 0.8299 0.4126
H56_13 H 0.8163 0.8093 0.3875
C43_13 C 0.9066(7) 0.8740(7) 0.3950(3)
H57_13 H 0.9360 0.8738 0.3869
H58_13 H 0.9022 0.8445 0.4025
C44_13 C 0.9069(9) 0.9100(8) 0.4148(5)
H59_13 H 0.9213 0.9379 0.4094
H60_13 H 0.8766 0.9166 0.4208
C45_13 C 0.9389(9) 0.8820(9) 0.4360(5)
H61_13 H 0.9675 0.8713 0.4294
H62_13 H 0.9226 0.8573 0.4438
C46_13 C 0.7488(13) 0.8615(12) 0.4234(6)
H63_13 H 0.7181 0.8523 0.4266
H64_13 H 0.7658 0.8614 0.4384
H65_13 H 0.7489 0.8916 0.4166
C47_13 C 0.7684(9) 0.8318(9) 0.4070(5)
H66_13 H 0.7492 0.8322 0.3926
H67_13 H 0.7651 0.8018 0.4142
C48_13 C 0.9441(13) 0.9191(11) 0.4513(7)
H68_13 H 0.9623 0.9106 0.4652
H69_13 H 0.9588 0.9432 0.4425
H70_13 H 0.9148 0.9291 0.4568
C49_13 C 0.8730(5) 0.9263(5) 0.3637(3)
H71_13 H 0.8487 0.9293 0.3518
H72_13 H 0.8675 0.9488 0.3763
C50_13 C 0.9158(7) 0.9387(7) 0.3512(4)
H73_13 H 0.9201 0.9183 0.3374
H74_13 H 0.9407 0.9337 0.3625
C51_13 C 0.8760(7) 0.8434(7) 0.3550(3)
H75_13 H 0.8762 0.8140 0.3631
H76_13 H 0.9055 0.8478 0.3475
C52_13 C 0.8400(8) 0.8431(9) 0.3352(5)
H77_13 H 0.8121 0.8287 0.3406
H78_13 H 0.8334 0.8734 0.3292
C53_13 C 0.8680(9) 0.8111(9) 0.3140(5)
H79_13 H 0.8787 0.7825 0.3206
H80_13 H 0.8927 0.8274 0.3062
H82_13 H 0.8886 0.9842 0.3116
C55_13 C 0.9182(9) 0.9816(9) 0.3430(5)
H85_13 H 0.9482 0.9849 0.3358
C56_13 C 0.8309(11) 0.8059(13) 0.2987(7)
H86_13 H 0.8394 0.7877 0.2848
H87_13 H 0.8068 0.7912 0.3075
H88_13 H 0.8209 0.8352 0.2932
N6_14 N 0.6316(4) 0.1184(4) 0.8750
C41_14 C 0.6763(5) 0.1230(5) 0.8863(3)
H53_14 H 0.6793 0.0987 0.8982
H54_14 H 0.6988 0.1175 0.8737
C42_14 C 0.6887(7) 0.1658(7) 0.8988(4)
H55_14 H 0.6683 0.1701 0.9126
H56_14 H 0.6837 0.1907 0.8875
C43_14 C 0.5934(7) 0.1260(7) 0.8950(3)
H57_14 H 0.5640 0.1262 0.8869
H58_14 H 0.5978 0.1555 0.9025
C44_14 C 0.5931(9) 0.0900(8) 0.9148(5)
H59_14 H 0.5787 0.0621 0.9094
H60_14 H 0.6234 0.0834 0.9208
C45_14 C 0.5611(9) 0.1180(9) 0.9360(5)
H61_14 H 0.5325 0.1287 0.9294
H62_14 H 0.5774 0.1427 0.9438
C46_14 C 0.7512(13) 0.1385(12) 0.9234(6)
H63_14 H 0.7819 0.1477 0.9266
H64_14 H 0.7342 0.1386 0.9384
H65_14 H 0.7511 0.1084 0.9166
C47_14 C 0.7316(9) 0.1682(9) 0.9070(5)
H66_14 H 0.7508 0.1678 0.8926
H67_14 H 0.7349 0.1982 0.9142
C48_14 C 0.5559(13) 0.0809(11) 0.9513(7)
H68_14 H 0.5377 0.0894 0.9652
H69_14 H 0.5412 0.0568 0.9425
H70_14 H 0.5852 0.0709 0.9568
C49_14 C 0.6270(5) 0.0737(5) 0.8637(3)
H71_14 H 0.6513 0.0707 0.8518
H72_14 H 0.6325 0.0512 0.8763
C50_14 C 0.5842(7) 0.0613(7) 0.8512(4)
H73_14 H 0.5799 0.0817 0.8374
H74_14 H 0.5593 0.0663 0.8625
C51_14 C 0.6240(7) 0.1566(7) 0.8550(3)
H75_14 H 0.6238 0.1860 0.8631
H76_14 H 0.5945 0.1522 0.8475
C52_14 C 0.6600(8) 0.1569(9) 0.8352(5)
H77_14 H 0.6879 0.1713 0.8406
H78_14 H 0.6666 0.1266 0.8292
C53_14 C 0.6320(9) 0.1889(9) 0.8140(5)
H79_14 H 0.6213 0.2175 0.8206
H80_14 H 0.6073 0.1726 0.8062
H82_14 H 0.6114 0.0158 0.8116
C55_14 C 0.5818(9) 0.0184(9) 0.8430(5)
H85_14 H 0.5518 0.0151 0.8358
C56_14 C 0.6691(11) 0.1941(13) 0.7987(7)
H86_14 H 0.6606 0.2123 0.7848
H87_14 H 0.6932 0.2088 0.8075
H88_14 H 0.6791 0.1648 0.7932
C54_14 C 0.6115(12) 0.9988(13) 0.8266(6)
H81_14 H 0.6023 0.9681 0.8234
H83_14 H 0.6416 0.9989 0.8334
H84_14 H 0.5822 0.9992 0.8574
N6_15 N 0.8684(4) 0.1184(4) 0.1250
C41_15 C 0.8730(5) 0.0737(5) 0.1363(3)
H53_15 H 0.8487 0.0707 0.1482
H54_15 H 0.8675 0.0512 0.1237
C42_15 C 0.9158(7) 0.0613(7) 0.1488(4)
H55_15 H 0.9201 0.0817 0.1626
H56_15 H 0.9407 0.0663 0.1375
C43_15 C 0.8760(7) 0.1566(7) 0.1450(3)
H57_15 H 0.8762 0.1860 0.1369
H58_15 H 0.9055 0.1522 0.1525
C44_15 C 0.8400(8) 0.1569(9) 0.1648(5)
H59_15 H 0.8121 0.1713 0.1594
H60_15 H 0.8334 0.1266 0.1708
C45_15 C 0.8680(9) 0.1889(9) 0.1860(5)
H61_15 H 0.8787 0.2175 0.1794
H62_15 H 0.8927 0.1726 0.1938
H64_15 H 0.8886 0.0158 0.1884
C47_15 C 0.9182(9) 0.0184(9) 0.1570(5)
H67_15 H 0.9482 0.0151 0.1642
C48_15 C 0.8309(11) 0.1941(13) 0.2013(7)
H68_15 H 0.8394 0.2123 0.2152
H69_15 H 0.8068 0.2088 0.1925
H70_15 H 0.8209 0.1648 0.2068
C49_15 C 0.8237(5) 0.1230(5) 0.1137(3)
H71_15 H 0.8207 0.0987 0.1018
H72_15 H 0.8012 0.1175 0.1263
C50_15 C 0.8113(7) 0.1658(7) 0.1012(4)
H73_15 H 0.8317 0.1701 0.0874
H74_15 H 0.8163 0.1907 0.1125
C51_15 C 0.9066(7) 0.1260(7) 0.1050(3)
H75_15 H 0.9360 0.1262 0.1131
H76_15 H 0.9022 0.1555 0.0975
C52_15 C 0.9069(9) 0.0900(8) 0.0852(5)
H77_15 H 0.9213 0.0621 0.0906
H78_15 H 0.8766 0.0834 0.0792
C53_15 C 0.9389(9) 0.1180(9) 0.0640(5)
H79_15 H 0.9675 0.1287 0.0706
H80_15 H 0.9226 0.1427 0.0562
C54_15 C 0.7488(13) 0.1385(12) 0.0766(6)
H81_15 H 0.7181 0.1477 0.0734
H82_15 H 0.7658 0.1386 0.0616
H83_15 H 0.7489 0.1084 0.0834
C55_15 C 0.7684(9) 0.1682(9) 0.0930(5)
H84_15 H 0.7492 0.1678 0.1074
H85_15 H 0.7651 0.1982 0.0858
C56_15 C 0.9441(13) 0.0809(11) 0.0487(7)
H86_15 H 0.9623 0.0894 0.0348
H87_15 H 0.9588 0.0568 0.0575
H88_15 H 0.9148 0.0709 0.0432
C46_15 C 0.8885(12) 0.9988(13) 0.1734(6)
H63_15 H 0.8977 0.9681 0.1766
H65_15 H 0.8584 0.9989 0.1666
H66_15 H 0.9178 0.9992 0.1426
C46_16 C 0.6115(12) 0.0012(13) 0.6734(6)
H63_16 H 0.6023 0.0319 0.6766
H65_16 H 0.6416 0.0011 0.6666
H66_16 H 0.5822 0.0008 0.6426
N6_16 N 0.6316(4) 0.8816(4) 0.6250
C41_16 C 0.6270(5) 0.9263(5) 0.6363(3)
H53_16 H 0.6513 0.9293 0.6482
H54_16 H 0.6325 0.9488 0.6237
C42_16 C 0.5842(7) 0.9387(7) 0.6488(4)
H55_16 H 0.5799 0.9183 0.6626
H56_16 H 0.5593 0.9337 0.6375
C43_16 C 0.6240(7) 0.8434(7) 0.6450(3)
H57_16 H 0.6238 0.8140 0.6369
H58_16 H 0.5945 0.8478 0.6525
C44_16 C 0.6600(8) 0.8431(9) 0.6648(5)
H59_16 H 0.6879 0.8287 0.6594
H60_16 H 0.6666 0.8734 0.6708
C45_16 C 0.6320(9) 0.8111(9) 0.6860(5)
H61_16 H 0.6213 0.7825 0.6794
H62_16 H 0.6073 0.8274 0.6938
H64_16 H 0.6114 0.9842 0.6884
C47_16 C 0.5818(9) 0.9816(9) 0.6570(5)
H67_16 H 0.5518 0.9849 0.6642
C48_16 C 0.6691(11) 0.8059(13) 0.7013(7)
H68_16 H 0.6606 0.7877 0.7152
H69_16 H 0.6932 0.7912 0.6925
H70_16 H 0.6791 0.8352 0.7068
C49_16 C 0.6763(5) 0.8770(5) 0.6137(3)
H71_16 H 0.6793 0.9013 0.6018
H72_16 H 0.6988 0.8825 0.6263
C50_16 C 0.6887(7) 0.8342(7) 0.6012(4)
H73_16 H 0.6683 0.8299 0.5874
H74_16 H 0.6837 0.8093 0.6125
C51_16 C 0.5934(7) 0.8740(7) 0.6050(3)
H75_16 H 0.5640 0.8738 0.6131
H76_16 H 0.5978 0.8445 0.5975
C52_16 C 0.5931(9) 0.9100(8) 0.5852(5)
H77_16 H 0.5787 0.9379 0.5906
H78_16 H 0.6234 0.9166 0.5792
C53_16 C 0.5611(9) 0.8820(9) 0.5640(5)
H79_16 H 0.5325 0.8713 0.5706
H80_16 H 0.5774 0.8573 0.5562
C54_16 C 0.7512(13) 0.8615(12) 0.5766(6)
H81_16 H 0.7819 0.8523 0.5734
H82_16 H 0.7342 0.8614 0.5616
H83_16 H 0.7511 0.8916 0.5834
C55_16 C 0.7316(9) 0.8318(9) 0.5930(5)
H84_16 H 0.7508 0.8322 0.6074
H85_16 H 0.7349 0.8018 0.5858
C56_16 C 0.5559(13) 0.9191(11) 0.5487(7)
H86_16 H 0.5377 0.9106 0.5348
H87_16 H 0.5412 0.9432 0.5575
H88_16 H 0.5852 0.9291 0.5432
loop_
_geom_bond_atom_site_label_1
_geom_bond_atom_site_label_2
_geom_bond_site_symmetry_1
_geom_bond_site_symmetry_2
N2 C20 1_555 1_555
C13 C14 1_555 1_555
C14 H9 1_555 1_555
C16 C18 1_555 1_555
C17 C14 1_555 1_555
H10 C17 1_555 1_555
C18 C17 1_555 1_555
C19 C16 1_555 1_555
H11 C19 1_555 1_555
C20 C19 1_555 1_555
H12 C20 1_555 1_555
C21 C13 1_555 1_555
H13 C21 1_555 1_555
C22 C16 1_555 1_555
H14 C22 1_555 1_555
C23 N2 1_555 1_555
H15 C23 1_555 1_555
C24 C18 1_555 1_555
H16 C24 1_555 1_555
Zn5 N2 1_555 1_555
C21 C24 1_555 1_555
C22 C23 1_555 1_555
O1 Mo1 1_555 1_555
O2 Mo3 1_555 1_555
O3 Mo1 1_555 1_555
O4 Mo1 1_555 1_555
O5 Mo5 1_555 1_555
O6 Mo2 1_555 1_555
O7 Mo5 1_555 1_555
O8 Mo4 1_555 1_555
O9 Mo6 1_555 1_555
O10 Mo1 1_555 1_555
O11 Mo2 1_555 1_555
O12 Mo6 1_555 1_555
O13 Mo4 1_555 1_555
O14 C3 1_555 1_555
O15 Mo2 1_555 1_555
O16 Mo3 1_555 1_555
O17 Mo1 1_555 1_555
O18 Mo3 1_555 1_555
O19 Mo3 1_555 1_555
O20 Mo5 1_555 1_555
O21 Mo4 1_555 1_555
C1 C2 1_555 1_555
C2 H1 1_555 1_555
O22 C3 1_555 1_555
C3 C1 1_555 1_555
C5 C2 1_555 1_555
H2 C5 1_555 1_555
C9 C1 1_555 1_555
H5 C9 1_555 1_555
Mo1 Mo3 1_555 1_555
Mo2 O23 1_555 1_555
Mo3 O3 1_555 1_555
Mo4 O2 1_555 1_555
Mo5 O13 1_555 1_555
Mo6 O5 1_555 1_555
Zn1 O4 1_555 1_555
Zn2 O3 1_555 1_555
P1 O1 1_555 1_555
O23 Mo6 1_555 1_555
O24 P1 1_555 1_555
O25 Mo7 1_555 1_555
O26 Mo7 1_555 1_555
O27 Zn1 1_555 1_555
O28 Mo2 1_555 1_555
O29 Mo11 1_555 1_555
O30 Mo4 1_555 1_555
O31 Mo1 1_555 1_555
O32 Mo2 1_555 1_555
O33 Mo8 1_555 1_555
O34 Mo12 1_555 1_555
O35 Mo10 1_555 1_555
O36 C15 1_555 1_555
O37 Mo8 1_555 1_555
O38 Mo9 1_555 1_555
O39 Mo7 1_555 1_555
O40 Mo9 1_555 1_555
O41 Mo9 1_555 1_555
O42 Mo11 1_555 1_555
O43 Mo10 1_555 1_555
O44 C15 1_555 1_555
Mo7 O9 1_555 1_555
Mo8 O1 1_555 1_555
Mo9 O24 1_555 1_555
Mo10 O8 1_555 1_555
Mo11 O27 1_555 1_555
Mo12 O1 1_555 1_555
Zn3 O5 1_555 1_555
Zn4 O25 1_555 1_555
N3 Zn4 1_555 1_555
N4 Zn2 1_555 1_555
O2 P1 1_555 1_555
O4 Mo3 1_555 1_555
O6 Zn2 1_555 1_555
O6 Mo8 1_555 1_555
O7 Mo6 1_555 1_555
O7 Zn2 1_555 1_555
O8 Zn1 1_555 1_555
O10 Mo8 1_555 1_555
O11 Mo6 1_555 1_555
O14 Zn1 1_555 1_555
O16 Mo5 1_555 1_555
O19 Mo4 1_555 1_555
Mo2 Mo8 1_555 1_555
Mo4 Mo10 1_555 1_555
P1 O23 1_555 1_555
O23 Mo7 1_555 1_555
O24 Mo10 1_555 1_555
O25 Mo9 1_555 1_555
O26 Mo9 1_555 1_555
O26 Zn3 1_555 1_555
O27 Mo12 1_555 1_555
O28 Mo8 1_555 1_555
O28 Zn4 1_555 1_555
O29 Mo12 1_555 1_555
O29 Zn4 1_555 1_555
O30 Mo10 1_555 1_555
O30 Zn3 1_555 1_555
O31 Mo12 1_555 1_555
O32 Mo7 1_555 1_555
O33 Mo12 1_555 1_555
O35 Mo11 1_555 1_555
O36 Zn3 1_555 1_555
O38 Mo11 1_555 1_555
O41 Mo10 1_555 1_555
Mo7 Mo9 1_555 1_555
O6_2 Mo2_2 1_555 1_555
O11_2 Mo2_2 1_555 1_555
O12_2 Mo6_2 1_555 1_555
O15_2 Mo2_2 1_555 1_555
N4_2 Zn2_2 1_555 1_555
O6_2 Zn2_2 1_555 1_555
O7_2 Mo6_2 1_555 1_555
O7_2 Zn2_2 1_555 1_555
O11_2 Mo6_2 1_555 1_555
O1_2 Mo1_2 1_555 1_555
O2_2 Mo3_2 1_555 1_555
O3_2 Mo1_2 1_555 1_555
O4_2 Mo1_2 1_555 1_555
O5_2 Mo5_2 1_555 1_555
O8_2 Mo4_2 1_555 1_555
O10_2 Mo1_2 1_555 1_555
O13_2 Mo4_2 1_555 1_555
O14_2 C3_2 1_555 1_555
O16_2 Mo3_2 1_555 1_555
O17_2 Mo1_2 1_555 1_555
O18_2 Mo3_2 1_555 1_555
O19_2 Mo3_2 1_555 1_555
N1 C8 1_555 1_555
O21_2 Mo4_2 1_555 1_555
C1_2 C2_2 1_555 1_555
C2_2 H1_2 1_555 1_555
O22_2 C3_2 1_555 1_555
C3_2 C1_2 1_555 1_555
C4 C6 1_555 1_555
C5_2 C2_2 1_555 1_555
H2_2 C5_2 1_555 1_555
C6 C5_2 1_555 1_555
C7 C4 1_555 1_555
H3 C7 1_555 1_555
C8 C7 1_555 1_555
H4 C8 1_555 1_555
C9_2 C1_2 1_555 1_555
H5_2 C9_2 1_555 1_555
C10 C4 1_555 1_555
H6 C10 1_555 1_555
C11 N1 1_555 1_555
H7 C11 1_555 1_555
C12 C6 1_555 1_555
H8 C12 1_555 1_555
Mo1_2 Mo3_2 1_555 1_555
Mo3_2 O3_2 1_555 1_555
Mo4_2 O2_2 1_555 1_555
Mo5_2 O13_2 1_555 1_555
Zn1_2 O4_2 1_555 1_555
P1_2 O1_2 1_555 1_555
O24_2 P1_2 1_555 1_555
O25_2 Mo7_2 1_555 1_555
O26_2 Mo7_2 1_555 1_555
O27_2 Zn1_2 1_555 1_555
O29_2 Mo11_2 1_555 1_555
O30_2 Mo4_2 1_555 1_555
O31_2 Mo1_2 1_555 1_555
O33_2 Mo8_2 1_555 1_555
O34_2 Mo12_2 1_555 1_555
O35_2 Mo10_2 1_555 1_555
O36_2 C15_2 1_555 1_555
O38_2 Mo9_2 1_555 1_555
O39_2 Mo7_2 1_555 1_555
O40_2 Mo9_2 1_555 1_555
O41_2 Mo9_2 1_555 1_555
N2_2 C20_2 1_555 1_555
O42_2 Mo11_2 1_555 1_555
O43_2 Mo10_2 1_555 1_555
C13_2 C14_2 1_555 1_555
C14_2 H9_2 1_555 1_555
O44_2 C15_2 1_555 1_555
C15_2 C13_2 1_555 1_555
C16_2 C18_2 1_555 1_555
C17_2 C14_2 1_555 1_555
H10_2 C17_2 1_555 1_555
C18_2 C17_2 1_555 1_555
C19_2 C16_2 1_555 1_555
H11_2 C19_2 1_555 1_555
C20_2 C19_2 1_555 1_555
H12_2 C20_2 1_555 1_555
C21_2 C13_2 1_555 1_555
H13_2 C21_2 1_555 1_555
C22_2 C16_2 1_555 1_555
H14_2 C22_2 1_555 1_555
C23_2 N2_2 1_555 1_555
H15_2 C23_2 1_555 1_555
C24_2 C18_2 1_555 1_555
H16_2 C24_2 1_555 1_555
Mo7_2 O9_2 1_555 1_555
Mo8_2 O1_2 1_555 1_555
Mo9_2 O24_2 1_555 1_555
Mo10_2 O8_2 1_555 1_555
Mo11_2 O27_2 1_555 1_555
Mo12_2 O1_2 1_555 1_555
Zn3_2 O5_2 1_555 1_555
Zn4_2 O25_2 1_555 1_555
N3_2 Zn4_2 1_555 1_555
Zn5_2 N2_2 1_555 1_555
Zn6 N1 1_555 1_555
O2_2 P1_2 1_555 1_555
O4_2 Mo3_2 1_555 1_555
O8_2 Zn1_2 1_555 1_555
O10_2 Mo8_2 1_555 1_555
O14_2 Zn1_2 1_555 1_555
O16_2 Mo5_2 1_555 1_555
O19_2 Mo4_2 1_555 1_555
C9_2 C12 1_555 1_555
C10 C11 1_555 1_555
Mo4_2 Mo10_2 1_555 1_555
P1_2 O23_2 1_555 1_555
O23_2 Mo7_2 1_555 1_555
O24_2 Mo10_2 1_555 1_555
O25_2 Mo9_2 1_555 1_555
O26_2 Mo9_2 1_555 1_555
O26_2 Zn3_2 1_555 1_555
O27_2 Mo12_2 1_555 1_555
O28_2 Mo8_2 1_555 1_555
O28_2 Zn4_2 1_555 1_555
O29_2 Mo12_2 1_555 1_555
O29_2 Zn4_2 1_555 1_555
O30_2 Mo10_2 1_555 1_555
O30_2 Zn3_2 1_555 1_555
O31_2 Mo12_2 1_555 1_555
O32_2 Mo7_2 1_555 1_555
O33_2 Mo12_2 1_555 1_555
O35_2 Mo11_2 1_555 1_555
O36_2 Zn3_2 1_555 1_555
O38_2 Mo11_2 1_555 1_555
O41_2 Mo10_2 1_555 1_555
C21_2 C24_2 1_555 1_555
C22_2 C23_2 1_555 1_555
Mo7_2 Mo9_2 1_555 1_555
O1_3 Mo1_3 1_555 1_555
O2_3 Mo3_3 1_555 1_555
O3_3 Mo1_3 1_555 1_555
O4_3 Mo1_3 1_555 1_555
O5_3 Mo5_3 1_555 1_555
O6_3 Mo2_3 1_555 1_555
O7_3 Mo5_3 1_555 1_555
O8_3 Mo4_3 1_555 1_555
O9_3 Mo6_3 1_555 1_555
O10_3 Mo1_3 1_555 1_555
O11_3 Mo2_3 1_555 1_555
O12_3 Mo6_3 1_555 1_555
O13_3 Mo4_3 1_555 1_555
O14_3 C3_3 1_555 1_555
O15_3 Mo2_3 1_555 1_555
O16_3 Mo3_3 1_555 1_555
O17_3 Mo1_3 1_555 1_555
O18_3 Mo3_3 1_555 1_555
O19_3 Mo3_3 1_555 1_555
N4_2 C8_2 1_555 1_555
O20_3 Mo5_3 1_555 1_555
O21_3 Mo4_3 1_555 1_555
C1_3 C2_3 1_555 1_555
C2_3 H1_3 1_555 1_555
O22_3 C3_3 1_555 1_555
C3_3 C1_3 1_555 1_555
C4_2 C6_2 1_555 1_555
C5_3 C2_3 1_555 1_555
H2_3 C5_3 1_555 1_555
C6_2 C5_3 1_555 1_555
C7_2 C4_2 1_555 1_555
H3_2 C7_2 1_555 1_555
C8_2 C7_2 1_555 1_555
H4_2 C8_2 1_555 1_555
C9_3 C1_3 1_555 1_555
H5_3 C9_3 1_555 1_555
C10_2 C4_2 1_555 1_555
H6_2 C10_2 1_555 1_555
C11_2 N4_2 1_555 1_555
H7_2 C11_2 1_555 1_555
C12_2 C6_2 1_555 1_555
H8_2 C12_2 1_555 1_555
Mo1_3 Mo3_3 1_555 1_555
Mo2_3 O23_3 1_555 1_555
Mo3_3 O3_3 1_555 1_555
Mo4_3 O2_3 1_555 1_555
Mo5_3 O13_3 1_555 1_555
Mo6_3 O5_3 1_555 1_555
Zn1_3 O4_3 1_555 1_555
Zn6 O3_3 1_555 1_555
P1_3 O1_3 1_555 1_555
O23_3 Mo6_3 1_555 1_555
O24_3 P1_3 1_555 1_555
O25_3 Mo7_3 1_555 1_555
O26_3 Mo7_3 1_555 1_555
O27_3 Zn1_3 1_555 1_555
O28_3 Mo2_3 1_555 1_555
O29_3 Mo11_3 1_555 1_555
O30_3 Mo4_3 1_555 1_555
O31_3 Mo1_3 1_555 1_555
O32_3 Mo2_3 1_555 1_555
O33_3 Mo8_3 1_555 1_555
O34_3 Mo12_3 1_555 1_555
O35_3 Mo10_3 1_555 1_555
O36_3 C15_3 1_555 1_555
O37_3 Mo8_3 1_555 1_555
O38_3 Mo9_3 1_555 1_555
O39_3 Mo7_3 1_555 1_555
O40_3 Mo9_3 1_555 1_555
O41_3 Mo9_3 1_555 1_555
N3 C20_3 1_555 1_555
O42_3 Mo11_3 1_555 1_555
O43_3 Mo10_3 1_555 1_555
C13_3 C14_3 1_555 1_555
C14_3 H9_3 1_555 1_555
O44_3 C15_3 1_555 1_555
C15_3 C13_3 1_555 1_555
C16_3 C18_3 1_555 1_555
C17_3 C14_3 1_555 1_555
H10_3 C17_3 1_555 1_555
C18_3 C17_3 1_555 1_555
C19_3 C16_3 1_555 1_555
H11_3 C19_3 1_555 1_555
C20_3 C19_3 1_555 1_555
H12_3 C20_3 1_555 1_555
C21_3 C13_3 1_555 1_555
H13_3 C21_3 1_555 1_555
C22_3 C16_3 1_555 1_555
H14_3 C22_3 1_555 1_555
C23_3 N3 1_555 1_555
H15_3 C23_3 1_555 1_555
C24_3 C18_3 1_555 1_555
H16_3 C24_3 1_555 1_555
Mo7_3 O9_3 1_555 1_555
Mo8_3 O1_3 1_555 1_555
Mo9_3 O24_3 1_555 1_555
Mo10_3 O8_3 1_555 1_555
Mo11_3 O27_3 1_555 1_555
Mo12_3 O1_3 1_555 1_555
Zn3_3 O5_3 1_555 1_555
Zn5 O25_3 1_555 1_555
O2_3 P1_3 1_555 1_555
O4_3 Mo3_3 1_555 1_555
O6_3 Zn6 1_555 1_555
O6_3 Mo8_3 1_555 1_555
O7_3 Mo6_3 1_555 1_555
O7_3 Zn6 1_555 1_555
O8_3 Zn1_3 1_555 1_555
O10_3 Mo8_3 1_555 1_555
O11_3 Mo6_3 1_555 1_555
O14_3 Zn1_3 1_555 1_555
O16_3 Mo5_3 1_555 1_555
O19_3 Mo4_3 1_555 1_555
C9_3 C12_2 1_555 1_555
C10_2 C11_2 1_555 1_555
Mo2_3 Mo8_3 1_555 1_555
Mo4_3 Mo10_3 1_555 1_555
P1_3 O23_3 1_555 1_555
O23_3 Mo7_3 1_555 1_555
O24_3 Mo10_3 1_555 1_555
O25_3 Mo9_3 1_555 1_555
O26_3 Mo9_3 1_555 1_555
O26_3 Zn3_3 1_555 1_555
O27_3 Mo12_3 1_555 1_555
O28_3 Mo8_3 1_555 1_555
O28_3 Zn5 1_555 1_555
O29_3 Mo12_3 1_555 1_555
O29_3 Zn5 1_555 1_555
O30_3 Mo10_3 1_555 1_555
O30_3 Zn3_3 1_555 1_555
O31_3 Mo12_3 1_555 1_555
O32_3 Mo7_3 1_555 1_555
O33_3 Mo12_3 1_555 1_555
O35_3 Mo11_3 1_555 1_555
O36_3 Zn3_3 1_555 1_555
O38_3 Mo11_3 1_555 1_555
O41_3 Mo10_3 1_555 1_555
C21_3 C24_3 1_555 1_555
C22_3 C23_3 1_555 1_555
Mo7_3 Mo9_3 1_555 1_555
N3_2 C20_4 1_555 1_555
C13_4 C14_4 1_555 1_555
C14_4 H9_4 1_555 1_555
C16_4 C18_4 1_555 1_555
C17_4 C14_4 1_555 1_555
H10_4 C17_4 1_555 1_555
C18_4 C17_4 1_555 1_555
C19_4 C16_4 1_555 1_555
H11_4 C19_4 1_555 1_555
C20_4 C19_4 1_555 1_555
H12_4 C20_4 1_555 1_555
C21_4 C13_4 1_555 1_555
H13_4 C21_4 1_555 1_555
C22_4 C16_4 1_555 1_555
H14_4 C22_4 1_555 1_555
C23_4 N3_2 1_555 1_555
H15_4 C23_4 1_555 1_555
C24_4 C18_4 1_555 1_555
H16_4 C24_4 1_555 1_555
C21_4 C24_4 1_555 1_555
C22_4 C23_4 1_555 1_555
N4 C8_3 1_555 1_555
C4_3 C6_3 1_555 1_555
C7_3 C4_3 1_555 1_555
H3_3 C7_3 1_555 1_555
C8_3 C7_3 1_555 1_555
H4_3 C8_3 1_555 1_555
C10_3 C4_3 1_555 1_555
H6_3 C10_3 1_555 1_555
C11_3 N4 1_555 1_555
H7_3 C11_3 1_555 1_555
C12_3 C6_3 1_555 1_555
H8_3 C12_3 1_555 1_555
C10_3 C11_3 1_555 1_555
O1_4 Mo1_4 1_555 1_555
O2_4 Mo3_4 1_555 1_555
O3_4 Mo1_4 1_555 1_555
O4_4 Mo1_4 1_555 1_555
O5_4 Mo5_4 1_555 1_555
O8_4 Mo4_4 1_555 1_555
O10_4 Mo1_4 1_555 1_555
O13_4 Mo4_4 1_555 1_555
O14_4 C3_4 1_555 1_555
O16_4 Mo3_4 1_555 1_555
O17_4 Mo1_4 1_555 1_555
O18_4 Mo3_4 1_555 1_555
O19_4 Mo3_4 1_555 1_555
O21_4 Mo4_4 1_555 1_555
C1_4 C2_4 1_555 1_555
C2_4 H1_4 1_555 1_555
O22_4 C3_4 1_555 1_555
C3_4 C1_4 1_555 1_555
C5_4 C2_4 1_555 1_555
H2_4 C5_4 1_555 1_555
C9_4 C1_4 1_555 1_555
H5_4 C9_4 1_555 1_555
Mo1_4 Mo3_4 1_555 1_555
Mo3_4 O3_4 1_555 1_555
Mo4_4 O2_4 1_555 1_555
Mo5_4 O13_4 1_555 1_555
Zn1_4 O4_4 1_555 1_555
P1_4 O1_4 1_555 1_555
O24_4 P1_4 1_555 1_555
O25_4 Mo7_4 1_555 1_555
O26_4 Mo7_4 1_555 1_555
O27_4 Zn1_4 1_555 1_555
O29_4 Mo11_4 1_555 1_555
O30_4 Mo4_4 1_555 1_555
O31_4 Mo1_4 1_555 1_555
O33_4 Mo8_4 1_555 1_555
O34_4 Mo12_4 1_555 1_555
O35_4 Mo10_4 1_555 1_555
O36_4 C15_4 1_555 1_555
O38_4 Mo9_4 1_555 1_555
O39_4 Mo7_4 1_555 1_555
O40_4 Mo9_4 1_555 1_555
O41_4 Mo9_4 1_555 1_555
O42_4 Mo11_4 1_555 1_555
O43_4 Mo10_4 1_555 1_555
O44_4 C15_4 1_555 1_555
Mo7_4 O9_4 1_555 1_555
Mo8_4 O1_4 1_555 1_555
Mo9_4 O24_4 1_555 1_555
Mo10_4 O8_4 1_555 1_555
Mo11_4 O27_4 1_555 1_555
Mo12_4 O1_4 1_555 1_555
Zn3_4 O5_4 1_555 1_555
Zn5_2 O25_4 1_555 1_555
O2_4 P1_4 1_555 1_555
O4_4 Mo3_4 1_555 1_555
O8_4 Zn1_4 1_555 1_555
O10_4 Mo8_4 1_555 1_555
O14_4 Zn1_4 1_555 1_555
O16_4 Mo5_4 1_555 1_555
O19_4 Mo4_4 1_555 1_555
Mo4_4 Mo10_4 1_555 1_555
P1_4 O23_4 1_555 1_555
O23_4 Mo7_4 1_555 1_555
O24_4 Mo10_4 1_555 1_555
O25_4 Mo9_4 1_555 1_555
O26_4 Mo9_4 1_555 1_555
O26_4 Zn3_4 1_555 1_555
O27_4 Mo12_4 1_555 1_555
O28_4 Mo8_4 1_555 1_555
O28_4 Zn5_2 1_555 1_555
O29_4 Mo12_4 1_555 1_555
O29_4 Zn5_2 1_555 1_555
O30_4 Mo10_4 1_555 1_555
O30_4 Zn3_4 1_555 1_555
O31_4 Mo12_4 1_555 1_555
O32_4 Mo7_4 1_555 1_555
O33_4 Mo12_4 1_555 1_555
O35_4 Mo11_4 1_555 1_555
O36_4 Zn3_4 1_555 1_555
O38_4 Mo11_4 1_555 1_555
O41_4 Mo10_4 1_555 1_555
Mo7_4 Mo9_4 1_555 1_555
N1_2 C8_4 1_555 1_555
C4_4 C6_4 1_555 1_555
C7_4 C4_4 1_555 1_555
H3_4 C7_4 1_555 1_555
C8_4 C7_4 1_555 1_555
H4_4 C8_4 1_555 1_555
C10_4 C4_4 1_555 1_555
H6_4 C10_4 1_555 1_555
C11_4 N1_2 1_555 1_555
H7_4 C11_4 1_555 1_555
C12_4 C6_4 1_555 1_555
H8_4 C12_4 1_555 1_555
Zn6_2 N1_2 1_555 1_555
C10_4 C11_4 1_555 1_555
O6_4 Mo2_4 1_555 1_555
O11_4 Mo2_4 1_555 1_555
O12_4 Mo6_4 1_555 1_555
O15_4 Mo2_4 1_555 1_555
O6_4 Zn6_2 1_555 1_555
O7_4 Mo6_4 1_555 1_555
O7_4 Zn6_2 1_555 1_555
O11_4 Mo6_4 1_555 1_555
O1_5 Mo1_5 1_555 1_555
O2_5 Mo3_5 1_555 1_555
O3_5 Mo1_5 1_555 1_555
O4_5 Mo1_5 1_555 1_555
O5_5 Mo5_5 1_555 1_555
O6_5 Mo2_5 1_555 1_555
O7_5 Mo5_5 1_555 1_555
O8_5 Mo4_5 1_555 1_555
O9_5 Mo6_5 1_555 1_555
O10_5 Mo1_5 1_555 1_555
O11_5 Mo2_5 1_555 1_555
O12_5 Mo6_5 1_555 1_555
O13_5 Mo4_5 1_555 1_555
O14_5 C3_5 1_555 1_555
O15_5 Mo2_5 1_555 1_555
O16_5 Mo3_5 1_555 1_555
O17_5 Mo1_5 1_555 1_555
O18_5 Mo3_5 1_555 1_555
O19_5 Mo3_5 1_555 1_555
N1_3 C8_5 1_555 1_555
O20_5 Mo5_5 1_555 1_555
O21_5 Mo4_5 1_555 1_555
C1_5 C2_5 1_555 1_555
C2_5 H1_5 1_555 1_555
O22_5 C3_5 1_555 1_555
C3_5 C1_5 1_555 1_555
C4_5 C6_5 1_555 1_555
C5_5 C2_5 1_555 1_555
H2_5 C5_5 1_555 1_555
C6_5 C5_5 1_555 1_555
C7_5 C4_5 1_555 1_555
H3_5 C7_5 1_555 1_555
C8_5 C7_5 1_555 1_555
H4_5 C8_5 1_555 1_555
C9_5 C1_5 1_555 1_555
H5_5 C9_5 1_555 1_555
C10_5 C4_5 1_555 1_555
H6_5 C10_5 1_555 1_555
C11_5 N1_3 1_555 1_555
H7_5 C11_5 1_555 1_555
C12_5 C6_5 1_555 1_555
H8_5 C12_5 1_555 1_555
Mo1_5 Mo3_5 1_555 1_555
Mo2_5 O23_5 1_555 1_555
Mo3_5 O3_5 1_555 1_555
Mo4_5 O2_5 1_555 1_555
Mo5_5 O13_5 1_555 1_555
Mo6_5 O5_5 1_555 1_555
Zn1_5 O4_5 1_555 1_555
Zn2_3 O3_5 1_555 1_555
P1_5 O1_5 1_555 1_555
O23_5 Mo6_5 1_555 1_555
O24_5 P1_5 1_555 1_555
O25_5 Mo7_5 1_555 1_555
O26_5 Mo7_5 1_555 1_555
O27_5 Zn1_5 1_555 1_555
O28_5 Mo2_5 1_555 1_555
O29_5 Mo11_5 1_555 1_555
O30_5 Mo4_5 1_555 1_555
O31_5 Mo1_5 1_555 1_555
O32_5 Mo2_5 1_555 1_555
O33_5 Mo8_5 1_555 1_555
O34_5 Mo12_5 1_555 1_555
O35_5 Mo10_5 1_555 1_555
O36_5 C15_5 1_555 1_555
O37_5 Mo8_5 1_555 1_555
O38_5 Mo9_5 1_555 1_555
O39_5 Mo7_5 1_555 1_555
O40_5 Mo9_5 1_555 1_555
O41_5 Mo9_5 1_555 1_555
N2_3 C20_5 1_555 1_555
O42_5 Mo11_5 1_555 1_555
O43_5 Mo10_5 1_555 1_555
C13_5 C14_5 1_555 1_555
C14_5 H9_5 1_555 1_555
O44_5 C15_5 1_555 1_555
C15_5 C13_5 1_555 1_555
C16_5 C18_5 1_555 1_555
C17_5 C14_5 1_555 1_555
H10_5 C17_5 1_555 1_555
C18_5 C17_5 1_555 1_555
C19_5 C16_5 1_555 1_555
H11_5 C19_5 1_555 1_555
C20_5 C19_5 1_555 1_555
H12_5 C20_5 1_555 1_555
C21_5 C13_5 1_555 1_555
H13_5 C21_5 1_555 1_555
C22_5 C16_5 1_555 1_555
H14_5 C22_5 1_555 1_555
C23_5 N2_3 1_555 1_555
H15_5 C23_5 1_555 1_555
C24_5 C18_5 1_555 1_555
H16_5 C24_5 1_555 1_555
Mo7_5 O9_5 1_555 1_555
Mo8_5 O1_5 1_555 1_555
Mo9_5 O24_5 1_555 1_555
Mo10_5 O8_5 1_555 1_555
Mo11_5 O27_5 1_555 1_555
Mo12_5 O1_5 1_555 1_555
Zn3_5 O5_5 1_555 1_555
Zn4_3 O25_5 1_555 1_555
N3_3 Zn4_3 1_555 1_555
N4_3 Zn2_3 1_555 1_555
Zn5_3 N2_3 1_555 1_555
Zn6_3 N1_3 1_555 1_555
O2_5 P1_5 1_555 1_555
O4_5 Mo3_5 1_555 1_555
O6_5 Zn2_3 1_555 1_555
O6_5 Mo8_5 1_555 1_555
O7_5 Mo6_5 1_555 1_555
O7_5 Zn2_3 1_555 1_555
O8_5 Zn1_5 1_555 1_555
O10_5 Mo8_5 1_555 1_555
O11_5 Mo6_5 1_555 1_555
O14_5 Zn1_5 1_555 1_555
O16_5 Mo5_5 1_555 1_555
O19_5 Mo4_5 1_555 1_555
C9_5 C12_5 1_555 1_555
C10_5 C11_5 1_555 1_555
Mo2_5 Mo8_5 1_555 1_555
Mo4_5 Mo10_5 1_555 1_555
P1_5 O23_5 1_555 1_555
O23_5 Mo7_5 1_555 1_555
O24_5 Mo10_5 1_555 1_555
O25_5 Mo9_5 1_555 1_555
O26_5 Mo9_5 1_555 1_555
O26_5 Zn3_5 1_555 1_555
O27_5 Mo12_5 1_555 1_555
O28_5 Mo8_5 1_555 1_555
O28_5 Zn4_3 1_555 1_555
O29_5 Mo12_5 1_555 1_555
O29_5 Zn4_3 1_555 1_555
O30_5 Mo10_5 1_555 1_555
O30_5 Zn3_5 1_555 1_555
O31_5 Mo12_5 1_555 1_555
O32_5 Mo7_5 1_555 1_555
O33_5 Mo12_5 1_555 1_555
O35_5 Mo11_5 1_555 1_555
O36_5 Zn3_5 1_555 1_555
O38_5 Mo11_5 1_555 1_555
O41_5 Mo10_5 1_555 1_555
C21_5 C24_5 1_555 1_555
C22_5 C23_5 1_555 1_555
Mo7_5 Mo9_5 1_555 1_555
O1_6 Mo1_6 1_555 1_555
O2_6 Mo3_6 1_555 1_555
O3_6 Mo1_6 1_555 1_555
O4_6 Mo1_6 1_555 1_555
O5_6 Mo5_6 1_555 1_555
O8_6 Mo4_6 1_555 1_555
O10_6 Mo1_6 1_555 1_555
O13_6 Mo4_6 1_555 1_555
O14_6 C3_6 1_555 1_555
O16_6 Mo3_6 1_555 1_555
O17_6 Mo1_6 1_555 1_555
O18_6 Mo3_6 1_555 1_555
O19_6 Mo3_6 1_555 1_555
O21_6 Mo4_6 1_555 1_555
C1_6 C2_6 1_555 1_555
C2_6 H1_6 1_555 1_555
O22_6 C3_6 1_555 1_555
C3_6 C1_6 1_555 1_555
C5_6 C2_6 1_555 1_555
H2_6 C5_6 1_555 1_555
C9_6 C1_6 1_555 1_555
H5_6 C9_6 1_555 1_555
Mo1_6 Mo3_6 1_555 1_555
Mo3_6 O3_6 1_555 1_555
Mo4_6 O2_6 1_555 1_555
Mo5_6 O13_6 1_555 1_555
Zn1_6 O4_6 1_555 1_555
P1_6 O1_6 1_555 1_555
O24_6 P1_6 1_555 1_555
O25_6 Mo7_6 1_555 1_555
O26_6 Mo7_6 1_555 1_555
O27_6 Zn1_6 1_555 1_555
O29_6 Mo11_6 1_555 1_555
O30_6 Mo4_6 1_555 1_555
O31_6 Mo1_6 1_555 1_555
O33_6 Mo8_6 1_555 1_555
O34_6 Mo12_6 1_555 1_555
O35_6 Mo10_6 1_555 1_555
O36_6 C15_6 1_555 1_555
O38_6 Mo9_6 1_555 1_555
O39_6 Mo7_6 1_555 1_555
O40_6 Mo9_6 1_555 1_555
O41_6 Mo9_6 1_555 1_555
O42_6 Mo11_6 1_555 1_555
O43_6 Mo10_6 1_555 1_555
O44_6 C15_6 1_555 1_555
Mo7_6 O9_6 1_555 1_555
Mo8_6 O1_6 1_555 1_555
Mo9_6 O24_6 1_555 1_555
Mo10_6 O8_6 1_555 1_555
Mo11_6 O27_6 1_555 1_555
Mo12_6 O1_6 1_555 1_555
Zn3_6 O5_6 1_555 1_555
Zn4_4 O25_6 1_555 1_555
N3_4 Zn4_4 1_555 1_555
O2_6 P1_6 1_555 1_555
O4_6 Mo3_6 1_555 1_555
O8_6 Zn1_6 1_555 1_555
O10_6 Mo8_6 1_555 1_555
O14_6 Zn1_6 1_555 1_555
O16_6 Mo5_6 1_555 1_555
O19_6 Mo4_6 1_555 1_555
Mo4_6 Mo10_6 1_555 1_555
P1_6 O23_6 1_555 1_555
O23_6 Mo7_6 1_555 1_555
O24_6 Mo10_6 1_555 1_555
O25_6 Mo9_6 1_555 1_555
O26_6 Mo9_6 1_555 1_555
O26_6 Zn3_6 1_555 1_555
O27_6 Mo12_6 1_555 1_555
O28_6 Mo8_6 1_555 1_555
O28_6 Zn4_4 1_555 1_555
O29_6 Mo12_6 1_555 1_555
O29_6 Zn4_4 1_555 1_555
O30_6 Mo10_6 1_555 1_555
O30_6 Zn3_6 1_555 1_555
O31_6 Mo12_6 1_555 1_555
O32_6 Mo7_6 1_555 1_555
O33_6 Mo12_6 1_555 1_555
O35_6 Mo11_6 1_555 1_555
O36_6 Zn3_6 1_555 1_555
O38_6 Mo11_6 1_555 1_555
O41_6 Mo10_6 1_555 1_555
Mo7_6 Mo9_6 1_555 1_555
N1_4 C8_6 1_555 1_555
C4_6 C6_6 1_555 1_555
C7_6 C4_6 1_555 1_555
H3_6 C7_6 1_555 1_555
C8_6 C7_6 1_555 1_555
H4_6 C8_6 1_555 1_555
C10_6 C4_6 1_555 1_555
H6_6 C10_6 1_555 1_555
C11_6 N1_4 1_555 1_555
H7_6 C11_6 1_555 1_555
C12_6 C6_6 1_555 1_555
H8_6 C12_6 1_555 1_555
Zn6_4 N1_4 1_555 1_555
C10_6 C11_6 1_555 1_555
N2_4 C20_6 1_555 1_555
C13_6 C14_6 1_555 1_555
C14_6 H9_6 1_555 1_555
C16_6 C18_6 1_555 1_555
C17_6 C14_6 1_555 1_555
H10_6 C17_6 1_555 1_555
C18_6 C17_6 1_555 1_555
C19_6 C16_6 1_555 1_555
H11_6 C19_6 1_555 1_555
C20_6 C19_6 1_555 1_555
H12_6 C20_6 1_555 1_555
C21_6 C13_6 1_555 1_555
H13_6 C21_6 1_555 1_555
C22_6 C16_6 1_555 1_555
H14_6 C22_6 1_555 1_555
C23_6 N2_4 1_555 1_555
H15_6 C23_6 1_555 1_555
C24_6 C18_6 1_555 1_555
H16_6 C24_6 1_555 1_555
Zn5_4 N2_4 1_555 1_555
C21_6 C24_6 1_555 1_555
C22_6 C23_6 1_555 1_555
O1_7 Mo1_7 1_555 1_555
O2_7 Mo3_7 1_555 1_555
O3_7 Mo1_7 1_555 1_555
O4_7 Mo1_7 1_555 1_555
O5_7 Mo5_7 1_555 1_555
O6_6 Mo2_6 1_555 1_555
O7_6 Mo5_7 1_555 1_555
O8_7 Mo4_7 1_555 1_555
O9_7 Mo6_6 1_555 1_555
O10_7 Mo1_7 1_555 1_555
O11_6 Mo2_6 1_555 1_555
O12_6 Mo6_6 1_555 1_555
O13_7 Mo4_7 1_555 1_555
O14_7 C3_7 1_555 1_555
O15_6 Mo2_6 1_555 1_555
O16_7 Mo3_7 1_555 1_555
O17_7 Mo1_7 1_555 1_555
O18_7 Mo3_7 1_555 1_555
O19_7 Mo3_7 1_555 1_555
O20_6 Mo5_7 1_555 1_555
O21_7 Mo4_7 1_555 1_555
C1_7 C2_7 1_555 1_555
C2_7 H1_7 1_555 1_555
O22_7 C3_7 1_555 1_555
C3_7 C1_7 1_555 1_555
C5_7 C2_7 1_555 1_555
H2_7 C5_7 1_555 1_555
C9_7 C1_7 1_555 1_555
H5_7 C9_7 1_555 1_555
Mo1_7 Mo3_7 1_555 1_555
Mo2_6 O23_7 1_555 1_555
Mo3_7 O3_7 1_555 1_555
Mo4_7 O2_7 1_555 1_555
Mo5_7 O13_7 1_555 1_555
Mo6_6 O5_7 1_555 1_555
Zn1_7 O4_7 1_555 1_555
Zn6_4 O3_7 1_555 1_555
P1_7 O1_7 1_555 1_555
O23_7 Mo6_6 1_555 1_555
O24_7 P1_7 1_555 1_555
O25_7 Mo7_7 1_555 1_555
O26_7 Mo7_7 1_555 1_555
O27_7 Zn1_7 1_555 1_555
O28_7 Mo2_6 1_555 1_555
O29_7 Mo11_7 1_555 1_555
O30_7 Mo4_7 1_555 1_555
O31_7 Mo1_7 1_555 1_555
O32_7 Mo2_6 1_555 1_555
O33_7 Mo8_7 1_555 1_555
O34_7 Mo12_7 1_555 1_555
O35_7 Mo10_7 1_555 1_555
O36_7 C15_7 1_555 1_555
O37_6 Mo8_7 1_555 1_555
O38_7 Mo9_7 1_555 1_555
O39_7 Mo7_7 1_555 1_555
O40_7 Mo9_7 1_555 1_555
O41_7 Mo9_7 1_555 1_555
O42_7 Mo11_7 1_555 1_555
O43_7 Mo10_7 1_555 1_555
O44_7 C15_7 1_555 1_555
Mo7_7 O9_7 1_555 1_555
Mo8_7 O1_7 1_555 1_555
Mo9_7 O24_7 1_555 1_555
Mo10_7 O8_7 1_555 1_555
Mo11_7 O27_7 1_555 1_555
Mo12_7 O1_7 1_555 1_555
Zn3_7 O5_7 1_555 1_555
Zn5_3 O25_7 1_555 1_555
O2_7 P1_7 1_555 1_555
O4_7 Mo3_7 1_555 1_555
O6_6 Zn6_4 1_555 1_555
O6_6 Mo8_7 1_555 1_555
O7_6 Mo6_6 1_555 1_555
O7_6 Zn6_4 1_555 1_555
O8_7 Zn1_7 1_555 1_555
O10_7 Mo8_7 1_555 1_555
O11_6 Mo6_6 1_555 1_555
O14_7 Zn1_7 1_555 1_555
O16_7 Mo5_7 1_555 1_555
O19_7 Mo4_7 1_555 1_555
Mo2_6 Mo8_7 1_555 1_555
Mo4_7 Mo10_7 1_555 1_555
P1_7 O23_7 1_555 1_555
O23_7 Mo7_7 1_555 1_555
O24_7 Mo10_7 1_555 1_555
O25_7 Mo9_7 1_555 1_555
O26_7 Mo9_7 1_555 1_555
O26_7 Zn3_7 1_555 1_555
O27_7 Mo12_7 1_555 1_555
O28_7 Mo8_7 1_555 1_555
O28_7 Zn5_3 1_555 1_555
O29_7 Mo12_7 1_555 1_555
O29_7 Zn5_3 1_555 1_555
O30_7 Mo10_7 1_555 1_555
O30_7 Zn3_7 1_555 1_555
O31_7 Mo12_7 1_555 1_555
O32_7 Mo7_7 1_555 1_555
O33_7 Mo12_7 1_555 1_555
O35_7 Mo11_7 1_555 1_555
O36_7 Zn3_7 1_555 1_555
O38_7 Mo11_7 1_555 1_555
O41_7 Mo10_7 1_555 1_555
Mo7_7 Mo9_7 1_555 1_555
N3_3 C20_7 1_555 1_555
C13_7 C14_7 1_555 1_555
C14_7 H9_7 1_555 1_555
C16_7 C18_7 1_555 1_555
C17_7 C14_7 1_555 1_555
H10_7 C17_7 1_555 1_555
C18_7 C17_7 1_555 1_555
C19_7 C16_7 1_555 1_555
H11_7 C19_7 1_555 1_555
C20_7 C19_7 1_555 1_555
H12_7 C20_7 1_555 1_555
C21_7 C13_7 1_555 1_555
H13_7 C21_7 1_555 1_555
C22_7 C16_7 1_555 1_555
H14_7 C22_7 1_555 1_555
C23_7 N3_3 1_555 1_555
H15_7 C23_7 1_555 1_555
C24_7 C18_7 1_555 1_555
H16_7 C24_7 1_555 1_555
C21_7 C24_7 1_555 1_555
C22_7 C23_7 1_555 1_555
O1_8 Mo1_8 1_555 1_555
O2_8 Mo3_8 1_555 1_555
O3_8 Mo1_8 1_555 1_555
O4_8 Mo1_8 1_555 1_555
O5_8 Mo5_8 1_555 1_555
O8_8 Mo4_8 1_555 1_555
O10_8 Mo1_8 1_555 1_555
O13_8 Mo4_8 1_555 1_555
O14_8 C3_8 1_555 1_555
O16_8 Mo3_8 1_555 1_555
O17_8 Mo1_8 1_555 1_555
O18_8 Mo3_8 1_555 1_555
O19_8 Mo3_8 1_555 1_555
N4_3 C8_7 1_555 1_555
O21_8 Mo4_8 1_555 1_555
C1_8 C2_8 1_555 1_555
C2_8 H1_8 1_555 1_555
O22_8 C3_8 1_555 1_555
C3_8 C1_8 1_555 1_555
C4_7 C6_7 1_555 1_555
C5_8 C2_8 1_555 1_555
H2_8 C5_8 1_555 1_555
C6_7 C5_8 1_555 1_555
C7_7 C4_7 1_555 1_555
H3_7 C7_7 1_555 1_555
C8_7 C7_7 1_555 1_555
H4_7 C8_7 1_555 1_555
C9_8 C1_8 1_555 1_555
H5_8 C9_8 1_555 1_555
C10_7 C4_7 1_555 1_555
H6_7 C10_7 1_555 1_555
C11_7 N4_3 1_555 1_555
H7_7 C11_7 1_555 1_555
C12_7 C6_7 1_555 1_555
H8_7 C12_7 1_555 1_555
Mo1_8 Mo3_8 1_555 1_555
Mo3_8 O3_8 1_555 1_555
Mo4_8 O2_8 1_555 1_555
Mo5_8 O13_8 1_555 1_555
Zn1_8 O4_8 1_555 1_555
P1_8 O1_8 1_555 1_555
O24_8 P1_8 1_555 1_555
O25_8 Mo7_8 1_555 1_555
O26_8 Mo7_8 1_555 1_555
O27_8 Zn1_8 1_555 1_555
O29_8 Mo11_8 1_555 1_555
O30_8 Mo4_8 1_555 1_555
O31_8 Mo1_8 1_555 1_555
O33_8 Mo8_8 1_555 1_555
O34_8 Mo12_8 1_555 1_555
O35_8 Mo10_8 1_555 1_555
O36_8 C15_8 1_555 1_555
O38_8 Mo9_8 1_555 1_555
O39_8 Mo7_8 1_555 1_555
O40_8 Mo9_8 1_555 1_555
O41_8 Mo9_8 1_555 1_555
N3_4 C20_8 1_555 1_555
O42_8 Mo11_8 1_555 1_555
O43_8 Mo10_8 1_555 1_555
C13_8 C14_8 1_555 1_555
C14_8 H9_8 1_555 1_555
O44_8 C15_8 1_555 1_555
C15_8 C13_8 1_555 1_555
C16_8 C18_8 1_555 1_555
C17_8 C14_8 1_555 1_555
H10_8 C17_8 1_555 1_555
C18_8 C17_8 1_555 1_555
C19_8 C16_8 1_555 1_555
H11_8 C19_8 1_555 1_555
C20_8 C19_8 1_555 1_555
H12_8 C20_8 1_555 1_555
C21_8 C13_8 1_555 1_555
H13_8 C21_8 1_555 1_555
C22_8 C16_8 1_555 1_555
H14_8 C22_8 1_555 1_555
C23_8 N3_4 1_555 1_555
H15_8 C23_8 1_555 1_555
C24_8 C18_8 1_555 1_555
H16_8 C24_8 1_555 1_555
Mo7_8 O9_8 1_555 1_555
Mo8_8 O1_8 1_555 1_555
Mo9_8 O24_8 1_555 1_555
Mo10_8 O8_8 1_555 1_555
Mo11_8 O27_8 1_555 1_555
Mo12_8 O1_8 1_555 1_555
Zn3_8 O5_8 1_555 1_555
Zn5_4 O25_8 1_555 1_555
O2_8 P1_8 1_555 1_555
O4_8 Mo3_8 1_555 1_555
O8_8 Zn1_8 1_555 1_555
O10_8 Mo8_8 1_555 1_555
O14_8 Zn1_8 1_555 1_555
O16_8 Mo5_8 1_555 1_555
O19_8 Mo4_8 1_555 1_555
C9_8 C12_7 1_555 1_555
C10_7 C11_7 1_555 1_555
Mo4_8 Mo10_8 1_555 1_555
P1_8 O23_8 1_555 1_555
O23_8 Mo7_8 1_555 1_555
O24_8 Mo10_8 1_555 1_555
O25_8 Mo9_8 1_555 1_555
O26_8 Mo9_8 1_555 1_555
O26_8 Zn3_8 1_555 1_555
O27_8 Mo12_8 1_555 1_555
O28_8 Mo8_8 1_555 1_555
O28_8 Zn5_4 1_555 1_555
O29_8 Mo12_8 1_555 1_555
O29_8 Zn5_4 1_555 1_555
O30_8 Mo10_8 1_555 1_555
O30_8 Zn3_8 1_555 1_555
O31_8 Mo12_8 1_555 1_555
O32_8 Mo7_8 1_555 1_555
O33_8 Mo12_8 1_555 1_555
O35_8 Mo11_8 1_555 1_555
O36_8 Zn3_8 1_555 1_555
O38_8 Mo11_8 1_555 1_555
O41_8 Mo10_8 1_555 1_555
C21_8 C24_8 1_555 1_555
C22_8 C23_8 1_555 1_555
Mo7_8 Mo9_8 1_555 1_555
O6_7 Mo2_7 1_555 1_555
O11_7 Mo2_7 1_555 1_555
O12_7 Mo6_7 1_555 1_555
O15_7 Mo2_7 1_555 1_555
O6_7 Zn6_3 1_555 1_555
O7_7 Mo6_7 1_555 1_555
O7_7 Zn6_3 1_555 1_555
O11_7 Mo6_7 1_555 1_555
N1_5 C8_8 1_555 1_555
C1_9 C2_9 1_555 1_555
C2_9 H1_9 1_555 1_555
C4_8 C6_8 1_555 1_555
C5_9 C2_9 1_555 1_555
H2_9 C5_9 1_555 1_555
C6_8 C5_9 1_555 1_555
C7_8 C4_8 1_555 1_555
H3_8 C7_8 1_555 1_555
C8_8 C7_8 1_555 1_555
H4_8 C8_8 1_555 1_555
C9_9 C1_9 1_555 1_555
H5_9 C9_9 1_555 1_555
C10_8 C4_8 1_555 1_555
H6_8 C10_8 1_555 1_555
C11_8 N1_5 1_555 1_555
H7_8 C11_8 1_555 1_555
C12_8 C6_8 1_555 1_555
H8_8 C12_8 1_555 1_555
Zn6_5 N1_5 1_555 1_555
C9_9 C12_8 1_555 1_555
C10_8 C11_8 1_555 1_555
O1_9 Mo1_9 1_555 1_555
O2_9 Mo3_9 1_555 1_555
O3_9 Mo1_9 1_555 1_555
O4_9 Mo1_9 1_555 1_555
O5_9 Mo5_9 1_555 1_555
O6_8 Mo2_8 1_555 1_555
O7_8 Mo5_9 1_555 1_555
O8_9 Mo4_9 1_555 1_555
O9_9 Mo6_8 1_555 1_555
O10_9 Mo1_9 1_555 1_555
O11_8 Mo2_8 1_555 1_555
O12_8 Mo6_8 1_555 1_555
O13_9 Mo4_9 1_555 1_555
O14_9 C3_9 1_555 1_555
O15_8 Mo2_8 1_555 1_555
O16_9 Mo3_9 1_555 1_555
O17_9 Mo1_9 1_555 1_555
O18_9 Mo3_9 1_555 1_555
O19_9 Mo3_9 1_555 1_555
O20_8 Mo5_9 1_555 1_555
O21_9 Mo4_9 1_555 1_555
O22_9 C3_9 1_555 1_555
Mo1_9 Mo3_9 1_555 1_555
Mo2_8 O23_9 1_555 1_555
Mo3_9 O3_9 1_555 1_555
Mo4_9 O2_9 1_555 1_555
Mo5_9 O13_9 1_555 1_555
Mo6_8 O5_9 1_555 1_555
Zn1_9 O4_9 1_555 1_555
Zn2_4 O3_9 1_555 1_555
P1_9 O1_9 1_555 1_555
O23_9 Mo6_8 1_555 1_555
O24_9 P1_9 1_555 1_555
O25_9 Mo7_9 1_555 1_555
O26_9 Mo7_9 1_555 1_555
O27_9 Zn1_9 1_555 1_555
O28_9 Mo2_8 1_555 1_555
O29_9 Mo11_9 1_555 1_555
O30_9 Mo4_9 1_555 1_555
O31_9 Mo1_9 1_555 1_555
O32_9 Mo2_8 1_555 1_555
O33_9 Mo8_9 1_555 1_555
O34_9 Mo12_9 1_555 1_555
O35_9 Mo10_9 1_555 1_555
O36_9 C15_9 1_555 1_555
O37_8 Mo8_9 1_555 1_555
O38_9 Mo9_9 1_555 1_555
O39_9 Mo7_9 1_555 1_555
O40_9 Mo9_9 1_555 1_555
O41_9 Mo9_9 1_555 1_555
N2_5 C20_9 1_555 1_555
O42_9 Mo11_9 1_555 1_555
O43_9 Mo10_9 1_555 1_555
C13_9 C14_9 1_555 1_555
C14_9 H9_9 1_555 1_555
O44_9 C15_9 1_555 1_555
C15_9 C13_9 1_555 1_555
C16_9 C18_9 1_555 1_555
C17_9 C14_9 1_555 1_555
H10_9 C17_9 1_555 1_555
C18_9 C17_9 1_555 1_555
C19_9 C16_9 1_555 1_555
H11_9 C19_9 1_555 1_555
C20_9 C19_9 1_555 1_555
H12_9 C20_9 1_555 1_555
C21_9 C13_9 1_555 1_555
H13_9 C21_9 1_555 1_555
C22_9 C16_9 1_555 1_555
H14_9 C22_9 1_555 1_555
C23_9 N2_5 1_555 1_555
H15_9 C23_9 1_555 1_555
C24_9 C18_9 1_555 1_555
H16_9 C24_9 1_555 1_555
Mo7_9 O9_9 1_555 1_555
Mo8_9 O1_9 1_555 1_555
Mo9_9 O24_9 1_555 1_555
Mo10_9 O8_9 1_555 1_555
Mo11_9 O27_9 1_555 1_555
Mo12_9 O1_9 1_555 1_555
Zn3_9 O5_9 1_555 1_555
Zn4_5 O25_9 1_555 1_555
N3_5 Zn4_5 1_555 1_555
N4_4 Zn2_4 1_555 1_555
Zn5_5 N2_5 1_555 1_555
O2_9 P1_9 1_555 1_555
O4_9 Mo3_9 1_555 1_555
O6_8 Zn2_4 1_555 1_555
O6_8 Mo8_9 1_555 1_555
O7_8 Mo6_8 1_555 1_555
O7_8 Zn2_4 1_555 1_555
O8_9 Zn1_9 1_555 1_555
O10_9 Mo8_9 1_555 1_555
O11_8 Mo6_8 1_555 1_555
O14_9 Zn1_9 1_555 1_555
O16_9 Mo5_9 1_555 1_555
O19_9 Mo4_9 1_555 1_555
Mo2_8 Mo8_9 1_555 1_555
Mo4_9 Mo10_9 1_555 1_555
P1_9 O23_9 1_555 1_555
O23_9 Mo7_9 1_555 1_555
O24_9 Mo10_9 1_555 1_555
O25_9 Mo9_9 1_555 1_555
O26_9 Mo9_9 1_555 1_555
O26_9 Zn3_9 1_555 1_555
O27_9 Mo12_9 1_555 1_555
O28_9 Mo8_9 1_555 1_555
O28_9 Zn4_5 1_555 1_555
O29_9 Mo12_9 1_555 1_555
O29_9 Zn4_5 1_555 1_555
O30_9 Mo10_9 1_555 1_555
O30_9 Zn3_9 1_555 1_555
O31_9 Mo12_9 1_555 1_555
O32_9 Mo7_9 1_555 1_555
O33_9 Mo12_9 1_555 1_555
O35_9 Mo11_9 1_555 1_555
O36_9 Zn3_9 1_555 1_555
O38_9 Mo11_9 1_555 1_555
O41_9 Mo10_9 1_555 1_555
C21_9 C24_9 1_555 1_555
C22_9 C23_9 1_555 1_555
Mo7_9 Mo9_9 1_555 1_555
N2_6 C20_10 1_555 1_555
C16_10 C18_10 1_555 1_555
C19_10 C16_10 1_555 1_555
H11_10 C19_10 1_555 1_555
C20_10 C19_10 1_555 1_555
H12_10 C20_10 1_555 1_555
C22_10 C16_10 1_555 1_555
H14_10 C22_10 1_555 1_555
C23_10 N2_6 1_555 1_555
H15_10 C23_10 1_555 1_555
C24_10 C18_10 1_555 1_555
H16_10 C24_10 1_555 1_555
Zn5_6 N2_6 1_555 1_555
C22_10 C23_10 1_555 1_555
O1_10 Mo1_10 1_555 1_555
O2_10 Mo3_10 1_555 1_555
O3_10 Mo1_10 1_555 1_555
O4_10 Mo1_10 1_555 1_555
O5_10 Mo5_10 1_555 1_555
O6_9 Mo2_9 1_555 1_555
O7_9 Mo5_10 1_555 1_555
O8_10 Mo4_10 1_555 1_555
O9_10 Mo6_9 1_555 1_555
O10_10 Mo1_10 1_555 1_555
O11_9 Mo2_9 1_555 1_555
O12_9 Mo6_9 1_555 1_555
O13_10 Mo4_10 1_555 1_555
O14_10 C3_10 1_555 1_555
O16_10 Mo3_10 1_555 1_555
O17_10 Mo1_10 1_555 1_555
O18_10 Mo3_10 1_555 1_555
O19_10 Mo3_10 1_555 1_555
N1_6 C8_9 1_555 1_555
O20_9 Mo5_10 1_555 1_555
O21_10 Mo4_10 1_555 1_555
C1_10 C2_10 1_555 1_555
C2_10 H1_10 1_555 1_555
O22_10 C3_10 1_555 1_555
C3_10 C1_10 1_555 1_555
C4_9 C6_9 1_555 1_555
C5_10 C2_10 1_555 1_555
H2_10 C5_10 1_555 1_555
C6_9 C5_10 1_555 1_555
C7_9 C4_9 1_555 1_555
H3_9 C7_9 1_555 1_555
C8_9 C7_9 1_555 1_555
H4_9 C8_9 1_555 1_555
C9_10 C1_10 1_555 1_555
H5_10 C9_10 1_555 1_555
C10_9 C4_9 1_555 1_555
H6_9 C10_9 1_555 1_555
C11_9 N1_6 1_555 1_555
H7_9 C11_9 1_555 1_555
C12_9 C6_9 1_555 1_555
H8_9 C12_9 1_555 1_555
Mo1_10 Mo3_10 1_555 1_555
Mo2_9 O23_10 1_555 1_555
Mo3_10 O3_10 1_555 1_555
Mo4_10 O2_10 1_555 1_555
Mo5_10 O13_10 1_555 1_555
Mo6_9 O5_10 1_555 1_555
Zn1_10 O4_10 1_555 1_555
Zn2_5 O3_10 1_555 1_555
P1_10 O1_10 1_555 1_555
O23_10 Mo6_9 1_555 1_555
O24_10 P1_10 1_555 1_555
O25_10 Mo7_10 1_555 1_555
O26_10 Mo7_10 1_555 1_555
O27_10 Zn1_10 1_555 1_555
O30_10 Mo4_10 1_555 1_555
O31_10 Mo1_10 1_555 1_555
O32_10 Mo2_9 1_555 1_555
O35_10 Mo10_10 1_555 1_555
O36_10 C15_10 1_555 1_555
O38_10 Mo9_10 1_555 1_555
O39_10 Mo7_10 1_555 1_555
O40_10 Mo9_10 1_555 1_555
O41_10 Mo9_10 1_555 1_555
O43_10 Mo10_10 1_555 1_555
C13_10 C14_10 1_555 1_555
C14_10 H9_10 1_555 1_555
O44_10 C15_10 1_555 1_555
C15_10 C13_10 1_555 1_555
C17_10 C14_10 1_555 1_555
H10_10 C17_10 1_555 1_555
C21_10 C13_10 1_555 1_555
H13_10 C21_10 1_555 1_555
Mo7_10 O9_10 1_555 1_555
Mo9_10 O24_10 1_555 1_555
Mo10_10 O8_10 1_555 1_555
Mo11_10 O27_10 1_555 1_555
Zn3_10 O5_10 1_555 1_555
N4_5 Zn2_5 1_555 1_555
Zn6_6 N1_6 1_555 1_555
O2_10 P1_10 1_555 1_555
O4_10 Mo3_10 1_555 1_555
O6_9 Zn2_5 1_555 1_555
O7_9 Mo6_9 1_555 1_555
O7_9 Zn2_5 1_555 1_555
O8_10 Zn1_10 1_555 1_555
O11_9 Mo6_9 1_555 1_555
O14_10 Zn1_10 1_555 1_555
O16_10 Mo5_10 1_555 1_555
O19_10 Mo4_10 1_555 1_555
C9_10 C12_9 1_555 1_555
C10_9 C11_9 1_555 1_555
Mo4_10 Mo10_10 1_555 1_555
P1_10 O23_10 1_555 1_555
O23_10 Mo7_10 1_555 1_555
O24_10 Mo10_10 1_555 1_555
O25_10 Mo9_10 1_555 1_555
O26_10 Mo9_10 1_555 1_555
O26_10 Zn3_10 1_555 1_555
O30_10 Mo10_10 1_555 1_555
O30_10 Zn3_10 1_555 1_555
O32_10 Mo7_10 1_555 1_555
O35_10 Mo11_10 1_555 1_555
O36_10 Zn3_10 1_555 1_555
O38_10 Mo11_10 1_555 1_555
O41_10 Mo10_10 1_555 1_555
Mo7_10 Mo9_10 1_555 1_555
O1_11 Mo1_11 1_555 1_555
O2_11 Mo3_11 1_555 1_555
O3_11 Mo1_11 1_555 1_555
O4_11 Mo1_11 1_555 1_555
O5_11 Mo5_11 1_555 1_555
O6_10 Mo2_10 1_555 1_555
O7_10 Mo5_11 1_555 1_555
O8_11 Mo4_11 1_555 1_555
O9_11 Mo6_10 1_555 1_555
O10_11 Mo1_11 1_555 1_555
O11_10 Mo2_10 1_555 1_555
O12_10 Mo6_10 1_555 1_555
O13_11 Mo4_11 1_555 1_555
O14_11 C3_11 1_555 1_555
O15_9 Mo2_10 1_555 1_555
O16_11 Mo3_11 1_555 1_555
O17_11 Mo1_11 1_555 1_555
O18_11 Mo3_11 1_555 1_555
O19_11 Mo3_11 1_555 1_555
N4_4 C8_10 1_555 1_555
O20_10 Mo5_11 1_555 1_555
O21_11 Mo4_11 1_555 1_555
C1_11 C2_11 1_555 1_555
C2_11 H1_11 1_555 1_555
O22_11 C3_11 1_555 1_555
C3_11 C1_11 1_555 1_555
C4_10 C6_10 1_555 1_555
C5_11 C2_11 1_555 1_555
H2_11 C5_11 1_555 1_555
C6_10 C5_11 1_555 1_555
C7_10 C4_10 1_555 1_555
H3_10 C7_10 1_555 1_555
C8_10 C7_10 1_555 1_555
H4_10 C8_10 1_555 1_555
C9_11 C1_11 1_555 1_555
H5_11 C9_11 1_555 1_555
C10_10 C4_10 1_555 1_555
H6_10 C10_10 1_555 1_555
C11_10 N4_4 1_555 1_555
H7_10 C11_10 1_555 1_555
C12_10 C6_10 1_555 1_555
H8_10 C12_10 1_555 1_555
Mo1_11 Mo3_11 1_555 1_555
Mo2_10 O23_11 1_555 1_555
Mo3_11 O3_11 1_555 1_555
Mo4_11 O2_11 1_555 1_555
Mo5_11 O13_11 1_555 1_555
Mo6_10 O5_11 1_555 1_555
Zn1_11 O4_11 1_555 1_555
Zn6_5 O3_11 1_555 1_555
P1_11 O1_11 1_555 1_555
O23_11 Mo6_10 1_555 1_555
O24_11 P1_11 1_555 1_555
O25_11 Mo7_11 1_555 1_555
O26_11 Mo7_11 1_555 1_555
O27_11 Zn1_11 1_555 1_555
O28_10 Mo2_10 1_555 1_555
O29_10 Mo11_11 1_555 1_555
O30_11 Mo4_11 1_555 1_555
O31_11 Mo1_11 1_555 1_555
O32_11 Mo2_10 1_555 1_555
O33_10 Mo8_10 1_555 1_555
O34_10 Mo12_10 1_555 1_555
O35_11 Mo10_11 1_555 1_555
O36_11 C15_11 1_555 1_555
O37_9 Mo8_10 1_555 1_555
O38_11 Mo9_11 1_555 1_555
O39_11 Mo7_11 1_555 1_555
O40_11 Mo9_11 1_555 1_555
O41_11 Mo9_11 1_555 1_555
O42_10 Mo11_11 1_555 1_555
O43_11 Mo10_11 1_555 1_555
C13_11 C14_11 1_555 1_555
C14_11 H9_11 1_555 1_555
O44_11 C15_11 1_555 1_555
C15_11 C13_11 1_555 1_555
C17_11 C14_11 1_555 1_555
H10_11 C17_11 1_555 1_555
C21_11 C13_11 1_555 1_555
H13_11 C21_11 1_555 1_555
Mo7_11 O9_11 1_555 1_555
Mo8_10 O1_11 1_555 1_555
Mo9_11 O24_11 1_555 1_555
Mo10_11 O8_11 1_555 1_555
Mo11_11 O27_11 1_555 1_555
Mo12_10 O1_11 1_555 1_555
Zn3_11 O5_11 1_555 1_555
Zn5_6 O25_11 1_555 1_555
O2_11 P1_11 1_555 1_555
O4_11 Mo3_11 1_555 1_555
O6_10 Zn6_5 1_555 1_555
O6_10 Mo8_10 1_555 1_555
O7_10 Mo6_10 1_555 1_555
O7_10 Zn6_5 1_555 1_555
O8_11 Zn1_11 1_555 1_555
O10_11 Mo8_10 1_555 1_555
O11_10 Mo6_10 1_555 1_555
O14_11 Zn1_11 1_555 1_555
O16_11 Mo5_11 1_555 1_555
O19_11 Mo4_11 1_555 1_555
C9_11 C12_10 1_555 1_555
C10_10 C11_10 1_555 1_555
Mo2_10 Mo8_10 1_555 1_555
Mo4_11 Mo10_11 1_555 1_555
P1_11 O23_11 1_555 1_555
O23_11 Mo7_11 1_555 1_555
O24_11 Mo10_11 1_555 1_555
O25_11 Mo9_11 1_555 1_555
O26_11 Mo9_11 1_555 1_555
O26_11 Zn3_11 1_555 1_555
O27_11 Mo12_10 1_555 1_555
O28_10 Mo8_10 1_555 1_555
O28_10 Zn5_6 1_555 1_555
O29_10 Mo12_10 1_555 1_555
O29_10 Zn5_6 1_555 1_555
O30_11 Mo10_11 1_555 1_555
O30_11 Zn3_11 1_555 1_555
O31_11 Mo12_10 1_555 1_555
O32_11 Mo7_11 1_555 1_555
O33_10 Mo12_10 1_555 1_555
O35_11 Mo11_11 1_555 1_555
O36_11 Zn3_11 1_555 1_555
O38_11 Mo11_11 1_555 1_555
O41_11 Mo10_11 1_555 1_555
Mo7_11 Mo9_11 1_555 1_555
N4_5 C8_11 1_555 1_555
C1_12 C2_12 1_555 1_555
C2_12 H1_12 1_555 1_555
C4_11 C6_11 1_555 1_555
C5_12 C2_12 1_555 1_555
H2_12 C5_12 1_555 1_555
C6_11 C5_12 1_555 1_555
C7_11 C4_11 1_555 1_555
H3_11 C7_11 1_555 1_555
C8_11 C7_11 1_555 1_555
H4_11 C8_11 1_555 1_555
C9_12 C1_12 1_555 1_555
H5_12 C9_12 1_555 1_555
C10_11 C4_11 1_555 1_555
H6_11 C10_11 1_555 1_555
C11_11 N4_5 1_555 1_555
H7_11 C11_11 1_555 1_555
C12_11 C6_11 1_555 1_555
H8_11 C12_11 1_555 1_555
C9_12 C12_11 1_555 1_555
C10_11 C11_11 1_555 1_555
O1_12 Mo1_12 1_555 1_555
O2_12 Mo3_12 1_555 1_555
O3_12 Mo1_12 1_555 1_555
O4_12 Mo1_12 1_555 1_555
O5_12 Mo5_12 1_555 1_555
O6_11 Mo2_11 1_555 1_555
O7_11 Mo5_12 1_555 1_555
O8_12 Mo4_12 1_555 1_555
O9_12 Mo6_11 1_555 1_555
O10_12 Mo1_12 1_555 1_555
O11_11 Mo2_11 1_555 1_555
O12_11 Mo6_11 1_555 1_555
O13_12 Mo4_12 1_555 1_555
O14_12 C3_12 1_555 1_555
O16_12 Mo3_12 1_555 1_555
O17_12 Mo1_12 1_555 1_555
O18_12 Mo3_12 1_555 1_555
O19_12 Mo3_12 1_555 1_555
O20_11 Mo5_12 1_555 1_555
O21_12 Mo4_12 1_555 1_555
O22_12 C3_12 1_555 1_555
Mo1_12 Mo3_12 1_555 1_555
Mo2_11 O23_12 1_555 1_555
Mo3_12 O3_12 1_555 1_555
Mo4_12 O2_12 1_555 1_555
Mo5_12 O13_12 1_555 1_555
Mo6_11 O5_12 1_555 1_555
Zn1_12 O4_12 1_555 1_555
Zn6_6 O3_12 1_555 1_555
P1_12 O1_12 1_555 1_555
O23_12 Mo6_11 1_555 1_555
O24_12 P1_12 1_555 1_555
O25_12 Mo7_12 1_555 1_555
O26_12 Mo7_12 1_555 1_555
O27_12 Zn1_12 1_555 1_555
O30_12 Mo4_12 1_555 1_555
O31_12 Mo1_12 1_555 1_555
O32_12 Mo2_11 1_555 1_555
O35_12 Mo10_12 1_555 1_555
O36_12 C15_12 1_555 1_555
O38_12 Mo9_12 1_555 1_555
O39_12 Mo7_12 1_555 1_555
O40_12 Mo9_12 1_555 1_555
O41_12 Mo9_12 1_555 1_555
N3_5 C20_11 1_555 1_555
O43_12 Mo10_12 1_555 1_555
C13_12 C14_12 1_555 1_555
C14_12 H9_12 1_555 1_555
O44_12 C15_12 1_555 1_555
C15_12 C13_12 1_555 1_555
C16_11 C18_11 1_555 1_555
C17_12 C14_12 1_555 1_555
H10_12 C17_12 1_555 1_555
C18_11 C17_12 1_555 1_555
C19_11 C16_11 1_555 1_555
H11_11 C19_11 1_555 1_555
C20_11 C19_11 1_555 1_555
H12_11 C20_11 1_555 1_555
C21_12 C13_12 1_555 1_555
H13_12 C21_12 1_555 1_555
C22_11 C16_11 1_555 1_555
H14_11 C22_11 1_555 1_555
C23_11 N3_5 1_555 1_555
H15_11 C23_11 1_555 1_555
C24_11 C18_11 1_555 1_555
H16_11 C24_11 1_555 1_555
Mo7_12 O9_12 1_555 1_555
Mo9_12 O24_12 1_555 1_555
Mo10_12 O8_12 1_555 1_555
Mo11_12 O27_12 1_555 1_555
Zn3_12 O5_12 1_555 1_555
O2_12 P1_12 1_555 1_555
O4_12 Mo3_12 1_555 1_555
O6_11 Zn6_6 1_555 1_555
O7_11 Mo6_11 1_555 1_555
O7_11 Zn6_6 1_555 1_555
O8_12 Zn1_12 1_555 1_555
O11_11 Mo6_11 1_555 1_555
O14_12 Zn1_12 1_555 1_555
O16_12 Mo5_12 1_555 1_555
O19_12 Mo4_12 1_555 1_555
Mo4_12 Mo10_12 1_555 1_555
P1_12 O23_12 1_555 1_555
O23_12 Mo7_12 1_555 1_555
O24_12 Mo10_12 1_555 1_555
O25_12 Mo9_12 1_555 1_555
O26_12 Mo9_12 1_555 1_555
O26_12 Zn3_12 1_555 1_555
O30_12 Mo10_12 1_555 1_555
O30_12 Zn3_12 1_555 1_555
O32_12 Mo7_12 1_555 1_555
O35_12 Mo11_12 1_555 1_555
O36_12 Zn3_12 1_555 1_555
O38_12 Mo11_12 1_555 1_555
O41_12 Mo10_12 1_555 1_555
C21_12 C24_11 1_555 1_555
C22_11 C23_11 1_555 1_555
Mo7_12 Mo9_12 1_555 1_555
O33_11 Mo8_11 1_555 1_555
O34_11 Mo12_11 1_555 1_555
O37_10 Mo8_11 1_555 1_555
O28_11 Mo8_11 1_555 1_555
O28_11 Zn5_5 1_555 1_555
O29_11 Mo12_11 1_555 1_555
O29_11 Zn5_5 1_555 1_555
O33_11 Mo12_11 1_555 1_555
N2_7 C20_12 1_555 1_555
C16_12 C18_12 1_555 1_555
C19_12 C16_12 1_555 1_555
H11_12 C19_12 1_555 1_555
C20_12 C19_12 1_555 1_555
H12_12 C20_12 1_555 1_555
C22_12 C16_12 1_555 1_555
H14_12 C22_12 1_555 1_555
C23_12 N2_7 1_555 1_555
H15_12 C23_12 1_555 1_555
C24_12 C18_12 1_555 1_555
H16_12 C24_12 1_555 1_555
Zn5_7 N2_7 1_555 1_555
C22_12 C23_12 1_555 1_555
O33_12 Mo8_12 1_555 1_555
O34_12 Mo12_12 1_555 1_555
O37_11 Mo8_12 1_555 1_555
O28_12 Mo8_12 1_555 1_555
O28_12 Zn5_7 1_555 1_555
O29_12 Mo12_12 1_555 1_555
O29_12 Zn5_7 1_555 1_555
O33_12 Mo12_12 1_555 1_555
O1_13 Mo1_13 1_555 1_555
O2_13 Mo3_13 1_555 1_555
O3_13 Mo1_13 1_555 1_555
O4_13 Mo1_13 1_555 1_555
O5_13 Mo5_13 1_555 1_555
O6_12 Mo2_12 1_555 1_555
O7_12 Mo5_13 1_555 1_555
O8_13 Mo4_13 1_555 1_555
O9_13 Mo6_12 1_555 1_555
O10_13 Mo1_13 1_555 1_555
O11_12 Mo2_12 1_555 1_555
O12_12 Mo6_12 1_555 1_555
O13_13 Mo4_13 1_555 1_555
O14_13 C3_13 1_555 1_555
O15_12 Mo2_12 1_555 1_555
O16_13 Mo3_13 1_555 1_555
O17_13 Mo1_13 1_555 1_555
O18_13 Mo3_13 1_555 1_555
O19_13 Mo3_13 1_555 1_555
N1_7 C8_12 1_555 1_555
O20_12 Mo5_13 1_555 1_555
O21_13 Mo4_13 1_555 1_555
C1_13 C2_13 1_555 1_555
C2_13 H1_13 1_555 1_555
O22_13 C3_13 1_555 1_555
C3_13 C1_13 1_555 1_555
C4_12 C6_12 1_555 1_555
C5_13 C2_13 1_555 1_555
H2_13 C5_13 1_555 1_555
C6_12 C5_13 1_555 1_555
C7_12 C4_12 1_555 1_555
H3_12 C7_12 1_555 1_555
C8_12 C7_12 1_555 1_555
H4_12 C8_12 1_555 1_555
C9_13 C1_13 1_555 1_555
H5_13 C9_13 1_555 1_555
C10_12 C4_12 1_555 1_555
H6_12 C10_12 1_555 1_555
C11_12 N1_7 1_555 1_555
H7_12 C11_12 1_555 1_555
C12_12 C6_12 1_555 1_555
H8_12 C12_12 1_555 1_555
Mo1_13 Mo3_13 1_555 1_555
Mo2_12 O23_13 1_555 1_555
Mo3_13 O3_13 1_555 1_555
Mo4_13 O2_13 1_555 1_555
Mo5_13 O13_13 1_555 1_555
Mo6_12 O5_13 1_555 1_555
Zn1_13 O4_13 1_555 1_555
Zn2_6 O3_13 1_555 1_555
P1_13 O1_13 1_555 1_555
O23_13 Mo6_12 1_555 1_555
O24_13 P1_13 1_555 1_555
O25_13 Mo7_13 1_555 1_555
O26_13 Mo7_13 1_555 1_555
O27_13 Zn1_13 1_555 1_555
O28_13 Mo2_12 1_555 1_555
O29_13 Mo11_13 1_555 1_555
O30_13 Mo4_13 1_555 1_555
O31_13 Mo1_13 1_555 1_555
O32_13 Mo2_12 1_555 1_555
O33_13 Mo8_13 1_555 1_555
O34_13 Mo12_13 1_555 1_555
O35_13 Mo10_13 1_555 1_555
O36_13 C15_13 1_555 1_555
O37_12 Mo8_13 1_555 1_555
O38_13 Mo9_13 1_555 1_555
O39_13 Mo7_13 1_555 1_555
O40_13 Mo9_13 1_555 1_555
O41_13 Mo9_13 1_555 1_555
O42_13 Mo11_13 1_555 1_555
O43_13 Mo10_13 1_555 1_555
C13_13 C14_13 1_555 1_555
C14_13 H9_13 1_555 1_555
O44_13 C15_13 1_555 1_555
C15_13 C13_13 1_555 1_555
C17_13 C14_13 1_555 1_555
H10_13 C17_13 1_555 1_555
C21_13 C13_13 1_555 1_555
H13_13 C21_13 1_555 1_555
Mo7_13 O9_13 1_555 1_555
Mo8_13 O1_13 1_555 1_555
Mo9_13 O24_13 1_555 1_555
Mo10_13 O8_13 1_555 1_555
Mo11_13 O27_13 1_555 1_555
Mo12_13 O1_13 1_555 1_555
Zn3_13 O5_13 1_555 1_555
Zn4_6 O25_13 1_555 1_555
N3_6 Zn4_6 1_555 1_555
N4_6 Zn2_6 1_555 1_555
Zn6_7 N1_7 1_555 1_555
O2_13 P1_13 1_555 1_555
O4_13 Mo3_13 1_555 1_555
O6_12 Zn2_6 1_555 1_555
O6_12 Mo8_13 1_555 1_555
O7_12 Mo6_12 1_555 1_555
O7_12 Zn2_6 1_555 1_555
O8_13 Zn1_13 1_555 1_555
O10_13 Mo8_13 1_555 1_555
O11_12 Mo6_12 1_555 1_555
O14_13 Zn1_13 1_555 1_555
O16_13 Mo5_13 1_555 1_555
O19_13 Mo4_13 1_555 1_555
C9_13 C12_12 1_555 1_555
C10_12 C11_12 1_555 1_555
Mo2_12 Mo8_13 1_555 1_555
Mo4_13 Mo10_13 1_555 1_555
P1_13 O23_13 1_555 1_555
O23_13 Mo7_13 1_555 1_555
O24_13 Mo10_13 1_555 1_555
O25_13 Mo9_13 1_555 1_555
O26_13 Mo9_13 1_555 1_555
O26_13 Zn3_13 1_555 1_555
O27_13 Mo12_13 1_555 1_555
O28_13 Mo8_13 1_555 1_555
O28_13 Zn4_6 1_555 1_555
O29_13 Mo12_13 1_555 1_555
O29_13 Zn4_6 1_555 1_555
O30_13 Mo10_13 1_555 1_555
O30_13 Zn3_13 1_555 1_555
O31_13 Mo12_13 1_555 1_555
O32_13 Mo7_13 1_555 1_555
O33_13 Mo12_13 1_555 1_555
O35_13 Mo11_13 1_555 1_555
O36_13 Zn3_13 1_555 1_555
O38_13 Mo11_13 1_555 1_555
O41_13 Mo10_13 1_555 1_555
Mo7_13 Mo9_13 1_555 1_555
O33_14 Mo8_14 1_555 1_555
O34_14 Mo12_14 1_555 1_555
O37_13 Mo8_14 1_555 1_555
N3_7 Zn4_7 1_555 1_555
O28_14 Mo8_14 1_555 1_555
O28_14 Zn4_7 1_555 1_555
O29_14 Mo12_14 1_555 1_555
O29_14 Zn4_7 1_555 1_555
O33_14 Mo12_14 1_555 1_555
O1_14 Mo1_14 1_555 1_555
O2_14 Mo3_14 1_555 1_555
O3_14 Mo1_14 1_555 1_555
O4_14 Mo1_14 1_555 1_555
O5_14 Mo5_14 1_555 1_555
O6_13 Mo2_13 1_555 1_555
O7_13 Mo5_14 1_555 1_555
O8_14 Mo4_14 1_555 1_555
O9_14 Mo6_13 1_555 1_555
O10_14 Mo1_14 1_555 1_555
O11_13 Mo2_13 1_555 1_555
O12_13 Mo6_13 1_555 1_555
O13_14 Mo4_14 1_555 1_555
O14_14 C3_14 1_555 1_555
O16_14 Mo3_14 1_555 1_555
O17_14 Mo1_14 1_555 1_555
O18_14 Mo3_14 1_555 1_555
O19_14 Mo3_14 1_555 1_555
O20_13 Mo5_14 1_555 1_555
O21_14 Mo4_14 1_555 1_555
O22_14 C3_14 1_555 1_555
Mo1_14 Mo3_14 1_555 1_555
Mo2_13 O23_14 1_555 1_555
Mo3_14 O3_14 1_555 1_555
Mo4_14 O2_14 1_555 1_555
Mo5_14 O13_14 1_555 1_555
Mo6_13 O5_14 1_555 1_555
Zn1_14 O4_14 1_555 1_555
Zn2_7 O3_14 1_555 1_555
P1_14 O1_14 1_555 1_555
O23_14 Mo6_13 1_555 1_555
O24_14 P1_14 1_555 1_555
O25_14 Mo7_14 1_555 1_555
O26_14 Mo7_14 1_555 1_555
O27_14 Zn1_14 1_555 1_555
O30_14 Mo4_14 1_555 1_555
O31_14 Mo1_14 1_555 1_555
O32_14 Mo2_13 1_555 1_555
O35_14 Mo10_14 1_555 1_555
O36_14 C15_14 1_555 1_555
O38_14 Mo9_14 1_555 1_555
O39_14 Mo7_14 1_555 1_555
O40_14 Mo9_14 1_555 1_555
O41_14 Mo9_14 1_555 1_555
N2_8 C20_13 1_555 1_555
O43_14 Mo10_14 1_555 1_555
C13_14 C14_14 1_555 1_555
C14_14 H9_14 1_555 1_555
O44_14 C15_14 1_555 1_555
C15_14 C13_14 1_555 1_555
C16_13 C18_13 1_555 1_555
C17_14 C14_14 1_555 1_555
H10_14 C17_14 1_555 1_555
C18_13 C17_14 1_555 1_555
C19_13 C16_13 1_555 1_555
H11_13 C19_13 1_555 1_555
C20_13 C19_13 1_555 1_555
H12_13 C20_13 1_555 1_555
C21_14 C13_14 1_555 1_555
H13_14 C21_14 1_555 1_555
C22_13 C16_13 1_555 1_555
H14_13 C22_13 1_555 1_555
C23_13 N2_8 1_555 1_555
H15_13 C23_13 1_555 1_555
C24_13 C18_13 1_555 1_555
H16_13 C24_13 1_555 1_555
Mo7_14 O9_14 1_555 1_555
Mo9_14 O24_14 1_555 1_555
Mo10_14 O8_14 1_555 1_555
Mo11_14 O27_14 1_555 1_555
Zn3_14 O5_14 1_555 1_555
N4_7 Zn2_7 1_555 1_555
Zn5_8 N2_8 1_555 1_555
O2_14 P1_14 1_555 1_555
O4_14 Mo3_14 1_555 1_555
O6_13 Zn2_7 1_555 1_555
O7_13 Mo6_13 1_555 1_555
O7_13 Zn2_7 1_555 1_555
O8_14 Zn1_14 1_555 1_555
O11_13 Mo6_13 1_555 1_555
O14_14 Zn1_14 1_555 1_555
O16_14 Mo5_14 1_555 1_555
O19_14 Mo4_14 1_555 1_555
Mo4_14 Mo10_14 1_555 1_555
P1_14 O23_14 1_555 1_555
O23_14 Mo7_14 1_555 1_555
O24_14 Mo10_14 1_555 1_555
O25_14 Mo9_14 1_555 1_555
O26_14 Mo9_14 1_555 1_555
O26_14 Zn3_14 1_555 1_555
O30_14 Mo10_14 1_555 1_555
O30_14 Zn3_14 1_555 1_555
O32_14 Mo7_14 1_555 1_555
O35_14 Mo11_14 1_555 1_555
O36_14 Zn3_14 1_555 1_555
O38_14 Mo11_14 1_555 1_555
O41_14 Mo10_14 1_555 1_555
C21_14 C24_13 1_555 1_555
C22_13 C23_13 1_555 1_555
Mo7_14 Mo9_14 1_555 1_555
N1_8 C8_13 1_555 1_555
C1_14 C2_14 1_555 1_555
C2_14 H1_14 1_555 1_555
C4_13 C6_13 1_555 1_555
C5_14 C2_14 1_555 1_555
H2_14 C5_14 1_555 1_555
C6_13 C5_14 1_555 1_555
C7_13 C4_13 1_555 1_555
H3_13 C7_13 1_555 1_555
C8_13 C7_13 1_555 1_555
H4_13 C8_13 1_555 1_555
C9_14 C1_14 1_555 1_555
H5_14 C9_14 1_555 1_555
C10_13 C4_13 1_555 1_555
H6_13 C10_13 1_555 1_555
C11_13 N1_8 1_555 1_555
H7_13 C11_13 1_555 1_555
C12_13 C6_13 1_555 1_555
H8_13 C12_13 1_555 1_555
Zn6_8 N1_8 1_555 1_555
C9_14 C12_13 1_555 1_555
C10_13 C11_13 1_555 1_555
O1_15 Mo1_15 1_555 1_555
O2_15 Mo3_15 1_555 1_555
O3_15 Mo1_15 1_555 1_555
O4_15 Mo1_15 1_555 1_555
O5_15 Mo5_15 1_555 1_555
O6_14 Mo2_14 1_555 1_555
O7_14 Mo5_15 1_555 1_555
O8_15 Mo4_15 1_555 1_555
O9_15 Mo6_14 1_555 1_555
O10_15 Mo1_15 1_555 1_555
O11_14 Mo2_14 1_555 1_555
O12_14 Mo6_14 1_555 1_555
O13_15 Mo4_15 1_555 1_555
O14_15 C3_15 1_555 1_555
O15_14 Mo2_14 1_555 1_555
O16_15 Mo3_15 1_555 1_555
O17_15 Mo1_15 1_555 1_555
O18_15 Mo3_15 1_555 1_555
O19_15 Mo3_15 1_555 1_555
O20_14 Mo5_15 1_555 1_555
O21_15 Mo4_15 1_555 1_555
O22_15 C3_15 1_555 1_555
Mo1_15 Mo3_15 1_555 1_555
Mo2_14 O23_15 1_555 1_555
Mo3_15 O3_15 1_555 1_555
Mo4_15 O2_15 1_555 1_555
Mo5_15 O13_15 1_555 1_555
Mo6_14 O5_15 1_555 1_555
Zn1_15 O4_15 1_555 1_555
Zn6_7 O3_15 1_555 1_555
P1_15 O1_15 1_555 1_555
O23_15 Mo6_14 1_555 1_555
O24_15 P1_15 1_555 1_555
O25_15 Mo7_15 1_555 1_555
O26_15 Mo7_15 1_555 1_555
O27_15 Zn1_15 1_555 1_555
O28_15 Mo2_14 1_555 1_555
O29_15 Mo11_15 1_555 1_555
O30_15 Mo4_15 1_555 1_555
O31_15 Mo1_15 1_555 1_555
O32_15 Mo2_14 1_555 1_555
O33_15 Mo8_15 1_555 1_555
O34_15 Mo12_15 1_555 1_555
O35_15 Mo10_15 1_555 1_555
O36_15 C15_15 1_555 1_555
O37_14 Mo8_15 1_555 1_555
O38_15 Mo9_15 1_555 1_555
O39_15 Mo7_15 1_555 1_555
O40_15 Mo9_15 1_555 1_555
O41_15 Mo9_15 1_555 1_555
N3_7 C20_14 1_555 1_555
O42_15 Mo11_15 1_555 1_555
O43_15 Mo10_15 1_555 1_555
C13_15 C14_15 1_555 1_555
C14_15 H9_15 1_555 1_555
O44_15 C15_15 1_555 1_555
C15_15 C13_15 1_555 1_555
C16_14 C18_14 1_555 1_555
C17_15 C14_15 1_555 1_555
H10_15 C17_15 1_555 1_555
C18_14 C17_15 1_555 1_555
C19_14 C16_14 1_555 1_555
H11_14 C19_14 1_555 1_555
C20_14 C19_14 1_555 1_555
H12_14 C20_14 1_555 1_555
C21_15 C13_15 1_555 1_555
H13_15 C21_15 1_555 1_555
C22_14 C16_14 1_555 1_555
H14_14 C22_14 1_555 1_555
C23_14 N3_7 1_555 1_555
H15_14 C23_14 1_555 1_555
C24_14 C18_14 1_555 1_555
H16_14 C24_14 1_555 1_555
Mo7_15 O9_15 1_555 1_555
Mo8_15 O1_15 1_555 1_555
Mo9_15 O24_15 1_555 1_555
Mo10_15 O8_15 1_555 1_555
Mo11_15 O27_15 1_555 1_555
Mo12_15 O1_15 1_555 1_555
Zn3_15 O5_15 1_555 1_555
Zn5_8 O25_15 1_555 1_555
O2_15 P1_15 1_555 1_555
O4_15 Mo3_15 1_555 1_555
O6_14 Zn6_7 1_555 1_555
O6_14 Mo8_15 1_555 1_555
O7_14 Mo6_14 1_555 1_555
O7_14 Zn6_7 1_555 1_555
O8_15 Zn1_15 1_555 1_555
O10_15 Mo8_15 1_555 1_555
O11_14 Mo6_14 1_555 1_555
O14_15 Zn1_15 1_555 1_555
O16_15 Mo5_15 1_555 1_555
O19_15 Mo4_15 1_555 1_555
Mo2_14 Mo8_15 1_555 1_555
Mo4_15 Mo10_15 1_555 1_555
P1_15 O23_15 1_555 1_555
O23_15 Mo7_15 1_555 1_555
O24_15 Mo10_15 1_555 1_555
O25_15 Mo9_15 1_555 1_555
O26_15 Mo9_15 1_555 1_555
O26_15 Zn3_15 1_555 1_555
O27_15 Mo12_15 1_555 1_555
O28_15 Mo8_15 1_555 1_555
O28_15 Zn5_8 1_555 1_555
O29_15 Mo12_15 1_555 1_555
O29_15 Zn5_8 1_555 1_555
O30_15 Mo10_15 1_555 1_555
O30_15 Zn3_15 1_555 1_555
O31_15 Mo12_15 1_555 1_555
O32_15 Mo7_15 1_555 1_555
O33_15 Mo12_15 1_555 1_555
O35_15 Mo11_15 1_555 1_555
O36_15 Zn3_15 1_555 1_555
O38_15 Mo11_15 1_555 1_555
O41_15 Mo10_15 1_555 1_555
C21_15 C24_14 1_555 1_555
C22_14 C23_14 1_555 1_555
Mo7_15 Mo9_15 1_555 1_555
N4_6 C8_14 1_555 1_555
C1_15 C2_15 1_555 1_555
C2_15 H1_15 1_555 1_555
C4_14 C6_14 1_555 1_555
C5_15 C2_15 1_555 1_555
H2_15 C5_15 1_555 1_555
C6_14 C5_15 1_555 1_555
C7_14 C4_14 1_555 1_555
H3_14 C7_14 1_555 1_555
C8_14 C7_14 1_555 1_555
H4_14 C8_14 1_555 1_555
C9_15 C1_15 1_555 1_555
H5_15 C9_15 1_555 1_555
C10_14 C4_14 1_555 1_555
H6_14 C10_14 1_555 1_555
C11_14 N4_6 1_555 1_555
H7_14 C11_14 1_555 1_555
C12_14 C6_14 1_555 1_555
H8_14 C12_14 1_555 1_555
C9_15 C12_14 1_555 1_555
C10_14 C11_14 1_555 1_555
O1_16 Mo1_16 1_555 1_555
O2_16 Mo3_16 1_555 1_555
O3_16 Mo1_16 1_555 1_555
O4_16 Mo1_16 1_555 1_555
O5_16 Mo5_16 1_555 1_555
O6_15 Mo2_15 1_555 1_555
O7_15 Mo5_16 1_555 1_555
O8_16 Mo4_16 1_555 1_555
O9_16 Mo6_15 1_555 1_555
O10_16 Mo1_16 1_555 1_555
O11_15 Mo2_15 1_555 1_555
O12_15 Mo6_15 1_555 1_555
O13_16 Mo4_16 1_555 1_555
O14_16 C3_16 1_555 1_555
O16_16 Mo3_16 1_555 1_555
O17_16 Mo1_16 1_555 1_555
O18_16 Mo3_16 1_555 1_555
O19_16 Mo3_16 1_555 1_555
N4_7 C8_15 1_555 1_555
O20_15 Mo5_16 1_555 1_555
O21_16 Mo4_16 1_555 1_555
C1_16 C2_16 1_555 1_555
C2_16 H1_16 1_555 1_555
O22_16 C3_16 1_555 1_555
C3_16 C1_16 1_555 1_555
C4_15 C6_15 1_555 1_555
C5_16 C2_16 1_555 1_555
H2_16 C5_16 1_555 1_555
C6_15 C5_16 1_555 1_555
C7_15 C4_15 1_555 1_555
H3_15 C7_15 1_555 1_555
C8_15 C7_15 1_555 1_555
H4_15 C8_15 1_555 1_555
C9_16 C1_16 1_555 1_555
H5_16 C9_16 1_555 1_555
C10_15 C4_15 1_555 1_555
H6_15 C10_15 1_555 1_555
C11_15 N4_7 1_555 1_555
H7_15 C11_15 1_555 1_555
C12_15 C6_15 1_555 1_555
H8_15 C12_15 1_555 1_555
Mo1_16 Mo3_16 1_555 1_555
Mo2_15 O23_16 1_555 1_555
Mo3_16 O3_16 1_555 1_555
Mo4_16 O2_16 1_555 1_555
Mo5_16 O13_16 1_555 1_555
Mo6_15 O5_16 1_555 1_555
Zn1_16 O4_16 1_555 1_555
Zn6_8 O3_16 1_555 1_555
P1_16 O1_16 1_555 1_555
O23_16 Mo6_15 1_555 1_555
O24_16 P1_16 1_555 1_555
O25_16 Mo7_16 1_555 1_555
O26_16 Mo7_16 1_555 1_555
O27_16 Zn1_16 1_555 1_555
O30_16 Mo4_16 1_555 1_555
O31_16 Mo1_16 1_555 1_555
O32_16 Mo2_15 1_555 1_555
O35_16 Mo10_16 1_555 1_555
O36_16 C15_16 1_555 1_555
O38_16 Mo9_16 1_555 1_555
O39_16 Mo7_16 1_555 1_555
O40_16 Mo9_16 1_555 1_555
O41_16 Mo9_16 1_555 1_555
O43_16 Mo10_16 1_555 1_555
C13_16 C14_16 1_555 1_555
C14_16 H9_16 1_555 1_555
O44_16 C15_16 1_555 1_555
C15_16 C13_16 1_555 1_555
C17_16 C14_16 1_555 1_555
H10_16 C17_16 1_555 1_555
C21_16 C13_16 1_555 1_555
H13_16 C21_16 1_555 1_555
Mo7_16 O9_16 1_555 1_555
Mo9_16 O24_16 1_555 1_555
Mo10_16 O8_16 1_555 1_555
Mo11_16 O27_16 1_555 1_555
Zn3_16 O5_16 1_555 1_555
O2_16 P1_16 1_555 1_555
O4_16 Mo3_16 1_555 1_555
O6_15 Zn6_8 1_555 1_555
O7_15 Mo6_15 1_555 1_555
O7_15 Zn6_8 1_555 1_555
O8_16 Zn1_16 1_555 1_555
O11_15 Mo6_15 1_555 1_555
O14_16 Zn1_16 1_555 1_555
O16_16 Mo5_16 1_555 1_555
O19_16 Mo4_16 1_555 1_555
C9_16 C12_15 1_555 1_555
C10_15 C11_15 1_555 1_555
Mo4_16 Mo10_16 1_555 1_555
P1_16 O23_16 1_555 1_555
O23_16 Mo7_16 1_555 1_555
O24_16 Mo10_16 1_555 1_555
O25_16 Mo9_16 1_555 1_555
O26_16 Mo9_16 1_555 1_555
O26_16 Zn3_16 1_555 1_555
O30_16 Mo10_16 1_555 1_555
O30_16 Zn3_16 1_555 1_555
O32_16 Mo7_16 1_555 1_555
O35_16 Mo11_16 1_555 1_555
O36_16 Zn3_16 1_555 1_555
O38_16 Mo11_16 1_555 1_555
O41_16 Mo10_16 1_555 1_555
Mo7_16 Mo9_16 1_555 1_555
N3_6 C20_15 1_555 1_555
C16_15 C18_15 1_555 1_555
C19_15 C16_15 1_555 1_555
H11_15 C19_15 1_555 1_555
C20_15 C19_15 1_555 1_555
H12_15 C20_15 1_555 1_555
C22_15 C16_15 1_555 1_555
H14_15 C22_15 1_555 1_555
C23_15 N3_6 1_555 1_555
H15_15 C23_15 1_555 1_555
C24_15 C18_15 1_555 1_555
H16_15 C24_15 1_555 1_555
C22_15 C23_15 1_555 1_555
O6_16 Mo2_16 1_555 1_555
O11_16 Mo2_16 1_555 1_555
O12_16 Mo6_16 1_555 1_555
O15_15 Mo2_16 1_555 1_555
N4_8 Zn2_8 1_555 1_555
O6_16 Zn2_8 1_555 1_555
O7_16 Mo6_16 1_555 1_555
O7_16 Zn2_8 1_555 1_555
O11_16 Mo6_16 1_555 1_555
N4_8 C8_16 1_555 1_555
C4_16 C6_16 1_555 1_555
C7_16 C4_16 1_555 1_555
H3_16 C7_16 1_555 1_555
C8_16 C7_16 1_555 1_555
H4_16 C8_16 1_555 1_555
C10_16 C4_16 1_555 1_555
H6_16 C10_16 1_555 1_555
C11_16 N4_8 1_555 1_555
H7_16 C11_16 1_555 1_555
C12_16 C6_16 1_555 1_555
H8_16 C12_16 1_555 1_555
C10_16 C11_16 1_555 1_555
O33_16 Mo8_16 1_555 1_555
O34_16 Mo12_16 1_555 1_555
O37_16 Mo8_16 1_555 1_555
N3_8 Zn4_8 1_555 1_555
O28_16 Mo8_16 1_555 1_555
O28_16 Zn4_8 1_555 1_555
O29_16 Mo12_16 1_555 1_555
O29_16 Zn4_8 1_555 1_555
O33_16 Mo12_16 1_555 1_555
N3_8 C20_16 1_555 1_555
C16_16 C18_16 1_555 1_555
C19_16 C16_16 1_555 1_555
H11_16 C19_16 1_555 1_555
C20_16 C19_16 1_555 1_555
H12_16 C20_16 1_555 1_555
C22_16 C16_16 1_555 1_555
H14_16 C22_16 1_555 1_555
C23_16 N3_8 1_555 1_555
H15_16 C23_16 1_555 1_555
C24_16 C18_16 1_555 1_555
H16_16 C24_16 1_555 1_555
C22_16 C23_16 1_555 1_555
H25 C29 1_555 1_555
H26 C29 1_555 1_555
C33 C29 1_555 1_555
H33 C33 1_555 1_555
H34 C33 1_555 1_555
H35 C33 1_555 1_555
N5 C25 1_555 1_555
C25 H17 1_555 1_555
H18 C25 1_555 1_555
C26 N5 1_555 1_555
H19 C26 1_555 1_555
H20 C26 1_555 1_555
C27 N5 1_555 1_555
H21 C27 1_555 1_555
H22 C27 1_555 1_555
C28 C26 1_555 1_555
H23 C28 1_555 1_555
H24 C28 1_555 1_555
C30 H27 1_555 1_555
H28 C30 1_555 1_555
C31 C25 1_555 1_555
H29 C31 1_555 1_555
H30 C31 1_555 1_555
C32 H31 1_555 1_555
H32 C32 1_555 1_555
C34 N5 1_555 1_555
H36 C34 1_555 1_555
H37 C34 1_555 1_555
C35 C27 1_555 1_555
H38 C35 1_555 1_555
H39 C35 1_555 1_555
C36 C34 1_555 1_555
H40 C36 1_555 1_555
H41 C36 1_555 1_555
C37 C30 1_555 1_555
H42 C37 1_555 1_555
H43 C37 1_555 1_555
H44 C37 1_555 1_555
C38 H45 1_555 1_555
H46 C38 1_555 1_555
H47 C38 1_555 1_555
C39 C36 1_555 1_555
H49 C39 1_555 1_555
C40 C32 1_555 1_555
H50 C40 1_555 1_555
H51 C40 1_555 1_555
H52 C40 1_555 1_555
C30 C31 1_555 1_555
C32 C35 1_555 1_555
C38 C39 1_555 1_555
N5_2 C25_2 1_555 1_555
C25_2 H17_2 1_555 1_555
H18_2 C25_2 1_555 1_555
C26_2 N5_2 1_555 1_555
H19_2 C26_2 1_555 1_555
H20_2 C26_2 1_555 1_555
C27_2 N5_2 1_555 1_555
H21_2 C27_2 1_555 1_555
H22_2 C27_2 1_555 1_555
C28_2 C26_2 1_555 1_555
H23_2 C28_2 1_555 1_555
H24_2 C28_2 1_555 1_555
C29_2 C28_2 1_555 1_555
H25_2 C29_2 1_555 1_555
H26_2 C29_2 1_555 1_555
C30_2 H27_2 1_555 1_555
H28_2 C30_2 1_555 1_555
C31_2 C25_2 1_555 1_555
H29_2 C31_2 1_555 1_555
H30_2 C31_2 1_555 1_555
C32_2 H31_2 1_555 1_555
H32_2 C32_2 1_555 1_555
C33_2 C29_2 1_555 1_555
H33_2 C33_2 1_555 1_555
H34_2 C33_2 1_555 1_555
H35_2 C33_2 1_555 1_555
C34_2 N5_2 1_555 1_555
H36_2 C34_2 1_555 1_555
H37_2 C34_2 1_555 1_555
C35_2 C27_2 1_555 1_555
H38_2 C35_2 1_555 1_555
H39_2 C35_2 1_555 1_555
C36_2 C34_2 1_555 1_555
H40_2 C36_2 1_555 1_555
H41_2 C36_2 1_555 1_555
C37_2 C30_2 1_555 1_555
H42_2 C37_2 1_555 1_555
H43_2 C37_2 1_555 1_555
H44_2 C37_2 1_555 1_555
C38_2 H45_2 1_555 1_555
H46_2 C38_2 1_555 1_555
H47_2 C38_2 1_555 1_555
C39_2 C36_2 1_555 1_555
H48_2 C39_2 1_555 1_555
H49_2 C39_2 1_555 1_555
C40_2 C32_2 1_555 1_555
H50_2 C40_2 1_555 1_555
H51_2 C40_2 1_555 1_555
H52_2 C40_2 1_555 1_555
C30_2 C31_2 1_555 1_555
C32_2 C35_2 1_555 1_555
C38_2 C39_2 1_555 1_555
N5_3 C25_3 1_555 1_555
C25_3 H17_3 1_555 1_555
H18_3 C25_3 1_555 1_555
C26_3 N5_3 1_555 1_555
H19_3 C26_3 1_555 1_555
H20_3 C26_3 1_555 1_555
C27_3 N5_3 1_555 1_555
H21_3 C27_3 1_555 1_555
H22_3 C27_3 1_555 1_555
C28_3 C26_3 1_555 1_555
H23_3 C28_3 1_555 1_555
H24_3 C28_3 1_555 1_555
C29_3 C28_3 1_555 1_555
H25_3 C29_3 1_555 1_555
H26_3 C29_3 1_555 1_555
C30_3 H27_3 1_555 1_555
H28_3 C30_3 1_555 1_555
C31_3 C25_3 1_555 1_555
H29_3 C31_3 1_555 1_555
H30_3 C31_3 1_555 1_555
C32_3 H31_3 1_555 1_555
H32_3 C32_3 1_555 1_555
C33_3 C29_3 1_555 1_555
H33_3 C33_3 1_555 1_555
H34_3 C33_3 1_555 1_555
H35_3 C33_3 1_555 1_555
C34_3 N5_3 1_555 1_555
H36_3 C34_3 1_555 1_555
H37_3 C34_3 1_555 1_555
C35_3 C27_3 1_555 1_555
H38_3 C35_3 1_555 1_555
H39_3 C35_3 1_555 1_555
C36_3 C34_3 1_555 1_555
H40_3 C36_3 1_555 1_555
H41_3 C36_3 1_555 1_555
C37_3 C30_3 1_555 1_555
H42_3 C37_3 1_555 1_555
H43_3 C37_3 1_555 1_555
H44_3 C37_3 1_555 1_555
C38_3 H45_3 1_555 1_555
H46_3 C38_3 1_555 1_555
H47_3 C38_3 1_555 1_555
C39_3 C36_3 1_555 1_555
H48_3 C39_3 1_555 1_555
H49_3 C39_3 1_555 1_555
C40_3 C32_3 1_555 1_555
H50_3 C40_3 1_555 1_555
H51_3 C40_3 1_555 1_555
H52_3 C40_3 1_555 1_555
C30_3 C31_3 1_555 1_555
C32_3 C35_3 1_555 1_555
C38_3 C39_3 1_555 1_555
N5_4 C25_4 1_555 1_555
C25_4 H17_4 1_555 1_555
H18_4 C25_4 1_555 1_555
C26_4 N5_4 1_555 1_555
H19_4 C26_4 1_555 1_555
H20_4 C26_4 1_555 1_555
C27_4 N5_4 1_555 1_555
H21_4 C27_4 1_555 1_555
H22_4 C27_4 1_555 1_555
C28_4 C26_4 1_555 1_555
H23_4 C28_4 1_555 1_555
H24_4 C28_4 1_555 1_555
C29_4 C28_4 1_555 1_555
H25_4 C29_4 1_555 1_555
H26_4 C29_4 1_555 1_555
C30_4 H27_4 1_555 1_555
H28_4 C30_4 1_555 1_555
C31_4 C25_4 1_555 1_555
H29_4 C31_4 1_555 1_555
H30_4 C31_4 1_555 1_555
C32_4 H31_4 1_555 1_555
H32_4 C32_4 1_555 1_555
C33_4 C29_4 1_555 1_555
H33_4 C33_4 1_555 1_555
H34_4 C33_4 1_555 1_555
H35_4 C33_4 1_555 1_555
C34_4 N5_4 1_555 1_555
H36_4 C34_4 1_555 1_555
H37_4 C34_4 1_555 1_555
C35_4 C27_4 1_555 1_555
H38_4 C35_4 1_555 1_555
H39_4 C35_4 1_555 1_555
C36_4 C34_4 1_555 1_555
H40_4 C36_4 1_555 1_555
H41_4 C36_4 1_555 1_555
C37_4 C30_4 1_555 1_555
H42_4 C37_4 1_555 1_555
H43_4 C37_4 1_555 1_555
H44_4 C37_4 1_555 1_555
C38_4 H45_4 1_555 1_555
H46_4 C38_4 1_555 1_555
H47_4 C38_4 1_555 1_555
C39_4 C36_4 1_555 1_555
H48_4 C39_4 1_555 1_555
H49_4 C39_4 1_555 1_555
C40_4 C32_4 1_555 1_555
H50_4 C40_4 1_555 1_555
H51_4 C40_4 1_555 1_555
H52_4 C40_4 1_555 1_555
C30_4 C31_4 1_555 1_555
C32_4 C35_4 1_555 1_555
C38_4 C39_4 1_555 1_555
N5_5 C25_5 1_555 1_555
C25_5 H17_5 1_555 1_555
H18_5 C25_5 1_555 1_555
C26_5 N5_5 1_555 1_555
H19_5 C26_5 1_555 1_555
H20_5 C26_5 1_555 1_555
C27_5 N5_5 1_555 1_555
H21_5 C27_5 1_555 1_555
H22_5 C27_5 1_555 1_555
C28_5 C26_5 1_555 1_555
H23_5 C28_5 1_555 1_555
H24_5 C28_5 1_555 1_555
C29_5 C28_5 1_555 1_555
H25_5 C29_5 1_555 1_555
H26_5 C29_5 1_555 1_555
C30_5 H27_5 1_555 1_555
H28_5 C30_5 1_555 1_555
C31_5 C25_5 1_555 1_555
H29_5 C31_5 1_555 1_555
H30_5 C31_5 1_555 1_555
C32_5 H31_5 1_555 1_555
H32_5 C32_5 1_555 1_555
C33_5 C29_5 1_555 1_555
H33_5 C33_5 1_555 1_555
H34_5 C33_5 1_555 1_555
H35_5 C33_5 1_555 1_555
C34_5 N5_5 1_555 1_555
H36_5 C34_5 1_555 1_555
H37_5 C34_5 1_555 1_555
C35_5 C27_5 1_555 1_555
H38_5 C35_5 1_555 1_555
H39_5 C35_5 1_555 1_555
C36_5 C34_5 1_555 1_555
H40_5 C36_5 1_555 1_555
H41_5 C36_5 1_555 1_555
C37_5 C30_5 1_555 1_555
H42_5 C37_5 1_555 1_555
H43_5 C37_5 1_555 1_555
H44_5 C37_5 1_555 1_555
C38_5 H45_5 1_555 1_555
H46_5 C38_5 1_555 1_555
H47_5 C38_5 1_555 1_555
C39_5 C36_5 1_555 1_555
H49_5 C39_5 1_555 1_555
C40_5 C32_5 1_555 1_555
H50_5 C40_5 1_555 1_555
H51_5 C40_5 1_555 1_555
H52_5 C40_5 1_555 1_555
C30_5 C31_5 1_555 1_555
C32_5 C35_5 1_555 1_555
C38_5 C39_5 1_555 1_555
H25_6 C29_6 1_555 1_555
H26_6 C29_6 1_555 1_555
C33_6 C29_6 1_555 1_555
H33_6 C33_6 1_555 1_555
H34_6 C33_6 1_555 1_555
H35_6 C33_6 1_555 1_555
N5_6 C25_6 1_555 1_555
C25_6 H17_6 1_555 1_555
H18_6 C25_6 1_555 1_555
C26_6 N5_6 1_555 1_555
H19_6 C26_6 1_555 1_555
H20_6 C26_6 1_555 1_555
C27_6 N5_6 1_555 1_555
H21_6 C27_6 1_555 1_555
H22_6 C27_6 1_555 1_555
C28_6 C26_6 1_555 1_555
H23_6 C28_6 1_555 1_555
H24_6 C28_6 1_555 1_555
C30_6 H27_6 1_555 1_555
H28_6 C30_6 1_555 1_555
C31_6 C25_6 1_555 1_555
H29_6 C31_6 1_555 1_555
H30_6 C31_6 1_555 1_555
C32_6 H31_6 1_555 1_555
H32_6 C32_6 1_555 1_555
C34_6 N5_6 1_555 1_555
H36_6 C34_6 1_555 1_555
H37_6 C34_6 1_555 1_555
C35_6 C27_6 1_555 1_555
H38_6 C35_6 1_555 1_555
H39_6 C35_6 1_555 1_555
C36_6 C34_6 1_555 1_555
H40_6 C36_6 1_555 1_555
H41_6 C36_6 1_555 1_555
C37_6 C30_6 1_555 1_555
H42_6 C37_6 1_555 1_555
H43_6 C37_6 1_555 1_555
H44_6 C37_6 1_555 1_555
C38_6 H45_6 1_555 1_555
H46_6 C38_6 1_555 1_555
H47_6 C38_6 1_555 1_555
C39_6 C36_6 1_555 1_555
H48_6 C39_6 1_555 1_555
H49_6 C39_6 1_555 1_555
C40_6 C32_6 1_555 1_555
H50_6 C40_6 1_555 1_555
H51_6 C40_6 1_555 1_555
H52_6 C40_6 1_555 1_555
C30_6 C31_6 1_555 1_555
C32_6 C35_6 1_555 1_555
C38_6 C39_6 1_555 1_555
N5_7 C25_7 1_555 1_555
C25_7 H17_7 1_555 1_555
H18_7 C25_7 1_555 1_555
C26_7 N5_7 1_555 1_555
H19_7 C26_7 1_555 1_555
H20_7 C26_7 1_555 1_555
C27_7 N5_7 1_555 1_555
H21_7 C27_7 1_555 1_555
H22_7 C27_7 1_555 1_555
C28_7 C26_7 1_555 1_555
H23_7 C28_7 1_555 1_555
H24_7 C28_7 1_555 1_555
C29_7 C28_7 1_555 1_555
H25_7 C29_7 1_555 1_555
H26_7 C29_7 1_555 1_555
C30_7 H27_7 1_555 1_555
H28_7 C30_7 1_555 1_555
C31_7 C25_7 1_555 1_555
H29_7 C31_7 1_555 1_555
H30_7 C31_7 1_555 1_555
C32_7 H31_7 1_555 1_555
H32_7 C32_7 1_555 1_555
C33_7 C29_7 1_555 1_555
H33_7 C33_7 1_555 1_555
H34_7 C33_7 1_555 1_555
H35_7 C33_7 1_555 1_555
C34_7 N5_7 1_555 1_555
H36_7 C34_7 1_555 1_555
H37_7 C34_7 1_555 1_555
C35_7 C27_7 1_555 1_555
H38_7 C35_7 1_555 1_555
H39_7 C35_7 1_555 1_555
C36_7 C34_7 1_555 1_555
H40_7 C36_7 1_555 1_555
H41_7 C36_7 1_555 1_555
C37_7 C30_7 1_555 1_555
H42_7 C37_7 1_555 1_555
H43_7 C37_7 1_555 1_555
H44_7 C37_7 1_555 1_555
C38_7 H45_7 1_555 1_555
H46_7 C38_7 1_555 1_555
H47_7 C38_7 1_555 1_555
C39_7 C36_7 1_555 1_555
H48_7 C39_7 1_555 1_555
H49_7 C39_7 1_555 1_555
C40_7 C32_7 1_555 1_555
H50_7 C40_7 1_555 1_555
H51_7 C40_7 1_555 1_555
H52_7 C40_7 1_555 1_555
C30_7 C31_7 1_555 1_555
C32_7 C35_7 1_555 1_555
C38_7 C39_7 1_555 1_555
N5_8 C25_8 1_555 1_555
C25_8 H17_8 1_555 1_555
H18_8 C25_8 1_555 1_555
C26_8 N5_8 1_555 1_555
H19_8 C26_8 1_555 1_555
H20_8 C26_8 1_555 1_555
C27_8 N5_8 1_555 1_555
H21_8 C27_8 1_555 1_555
H22_8 C27_8 1_555 1_555
C28_8 C26_8 1_555 1_555
H23_8 C28_8 1_555 1_555
H24_8 C28_8 1_555 1_555
C29_8 C28_8 1_555 1_555
H25_8 C29_8 1_555 1_555
H26_8 C29_8 1_555 1_555
C30_8 H27_8 1_555 1_555
H28_8 C30_8 1_555 1_555
C31_8 C25_8 1_555 1_555
H29_8 C31_8 1_555 1_555
H30_8 C31_8 1_555 1_555
C32_8 H31_8 1_555 1_555
H32_8 C32_8 1_555 1_555
C33_8 C29_8 1_555 1_555
H33_8 C33_8 1_555 1_555
H34_8 C33_8 1_555 1_555
H35_8 C33_8 1_555 1_555
C34_8 N5_8 1_555 1_555
H36_8 C34_8 1_555 1_555
H37_8 C34_8 1_555 1_555
C35_8 C27_8 1_555 1_555
H38_8 C35_8 1_555 1_555
H39_8 C35_8 1_555 1_555
C36_8 C34_8 1_555 1_555
H40_8 C36_8 1_555 1_555
H41_8 C36_8 1_555 1_555
C37_8 C30_8 1_555 1_555
H42_8 C37_8 1_555 1_555
H43_8 C37_8 1_555 1_555
H44_8 C37_8 1_555 1_555
C38_8 H45_8 1_555 1_555
H46_8 C38_8 1_555 1_555
H47_8 C38_8 1_555 1_555
C39_8 C36_8 1_555 1_555
H48_8 C39_8 1_555 1_555
H49_8 C39_8 1_555 1_555
C40_8 C32_8 1_555 1_555
H50_8 C40_8 1_555 1_555
H51_8 C40_8 1_555 1_555
H52_8 C40_8 1_555 1_555
C30_8 C31_8 1_555 1_555
C32_8 C35_8 1_555 1_555
C38_8 C39_8 1_555 1_555
C30_9 H27_9 1_555 1_555
H28_9 C30_9 1_555 1_555
C37_9 C30_9 1_555 1_555
H42_9 C37_9 1_555 1_555
H43_9 C37_9 1_555 1_555
H44_9 C37_9 1_555 1_555
N5_9 C25_9 1_555 1_555
C25_9 H17_9 1_555 1_555
H18_9 C25_9 1_555 1_555
C26_9 N5_9 1_555 1_555
H19_9 C26_9 1_555 1_555
H20_9 C26_9 1_555 1_555
C27_9 N5_9 1_555 1_555
H21_9 C27_9 1_555 1_555
H22_9 C27_9 1_555 1_555
C28_9 C26_9 1_555 1_555
H23_9 C28_9 1_555 1_555
H24_9 C28_9 1_555 1_555
C29_9 C28_9 1_555 1_555
H25_9 C29_9 1_555 1_555
H26_9 C29_9 1_555 1_555
C31_9 C25_9 1_555 1_555
H29_9 C31_9 1_555 1_555
H30_9 C31_9 1_555 1_555
C32_9 H31_9 1_555 1_555
H32_9 C32_9 1_555 1_555
C33_9 C29_9 1_555 1_555
H33_9 C33_9 1_555 1_555
H34_9 C33_9 1_555 1_555
H35_9 C33_9 1_555 1_555
C34_9 N5_9 1_555 1_555
H36_9 C34_9 1_555 1_555
H37_9 C34_9 1_555 1_555
C35_9 C27_9 1_555 1_555
H38_9 C35_9 1_555 1_555
H39_9 C35_9 1_555 1_555
C36_9 C34_9 1_555 1_555
H40_9 C36_9 1_555 1_555
H41_9 C36_9 1_555 1_555
C38_9 H45_9 1_555 1_555
H46_9 C38_9 1_555 1_555
H47_9 C38_9 1_555 1_555
C39_9 C36_9 1_555 1_555
H48_9 C39_9 1_555 1_555
H49_9 C39_9 1_555 1_555
C40_9 C32_9 1_555 1_555
H50_9 C40_9 1_555 1_555
H51_9 C40_9 1_555 1_555
H52_9 C40_9 1_555 1_555
C32_9 C35_9 1_555 1_555
C38_9 C39_9 1_555 1_555
N5_10 C25_10 1_555 1_555
C25_10 H17_10 1_555 1_555
H18_10 C25_10 1_555 1_555
C26_10 N5_10 1_555 1_555
H19_10 C26_10 1_555 1_555
H20_10 C26_10 1_555 1_555
C27_10 N5_10 1_555 1_555
H21_10 C27_10 1_555 1_555
H22_10 C27_10 1_555 1_555
C28_10 C26_10 1_555 1_555
H23_10 C28_10 1_555 1_555
H24_10 C28_10 1_555 1_555
C31_10 C25_10 1_555 1_555
H29_10 C31_10 1_555 1_555
H30_10 C31_10 1_555 1_555
C32_10 H31_10 1_555 1_555
H32_10 C32_10 1_555 1_555
C34_10 N5_10 1_555 1_555
H36_10 C34_10 1_555 1_555
H37_10 C34_10 1_555 1_555
C35_10 C27_10 1_555 1_555
H38_10 C35_10 1_555 1_555
H39_10 C35_10 1_555 1_555
C36_10 C34_10 1_555 1_555
H40_10 C36_10 1_555 1_555
H41_10 C36_10 1_555 1_555
C38_10 H45_10 1_555 1_555
H46_10 C38_10 1_555 1_555
H47_10 C38_10 1_555 1_555
C39_10 C36_10 1_555 1_555
H49_10 C39_10 1_555 1_555
C40_10 C32_10 1_555 1_555
H50_10 C40_10 1_555 1_555
H51_10 C40_10 1_555 1_555
H52_10 C40_10 1_555 1_555
C32_10 C35_10 1_555 1_555
C38_10 C39_10 1_555 1_555
C30_10 H27_10 1_555 1_555
H28_10 C30_10 1_555 1_555
C37_10 C30_10 1_555 1_555
H42_10 C37_10 1_555 1_555
H43_10 C37_10 1_555 1_555
H44_10 C37_10 1_555 1_555
H25_10 C29_10 1_555 1_555
H26_10 C29_10 1_555 1_555
C33_10 C29_10 1_555 1_555
H33_10 C33_10 1_555 1_555
H34_10 C33_10 1_555 1_555
H35_10 C33_10 1_555 1_555
N5_11 C25_11 1_555 1_555
C25_11 H17_11 1_555 1_555
H18_11 C25_11 1_555 1_555
C26_11 N5_11 1_555 1_555
H19_11 C26_11 1_555 1_555
H20_11 C26_11 1_555 1_555
C27_11 N5_11 1_555 1_555
H21_11 C27_11 1_555 1_555
H22_11 C27_11 1_555 1_555
C28_11 C26_11 1_555 1_555
H23_11 C28_11 1_555 1_555
H24_11 C28_11 1_555 1_555
C29_11 C28_11 1_555 1_555
H25_11 C29_11 1_555 1_555
H26_11 C29_11 1_555 1_555
C30_11 H27_11 1_555 1_555
H28_11 C30_11 1_555 1_555
C31_11 C25_11 1_555 1_555
H29_11 C31_11 1_555 1_555
H30_11 C31_11 1_555 1_555
C32_11 H31_11 1_555 1_555
H32_11 C32_11 1_555 1_555
C33_11 C29_11 1_555 1_555
H33_11 C33_11 1_555 1_555
H34_11 C33_11 1_555 1_555
H35_11 C33_11 1_555 1_555
C34_11 N5_11 1_555 1_555
H36_11 C34_11 1_555 1_555
H37_11 C34_11 1_555 1_555
C35_11 C27_11 1_555 1_555
H38_11 C35_11 1_555 1_555
H39_11 C35_11 1_555 1_555
C36_11 C34_11 1_555 1_555
H40_11 C36_11 1_555 1_555
H41_11 C36_11 1_555 1_555
C37_11 C30_11 1_555 1_555
H42_11 C37_11 1_555 1_555
H43_11 C37_11 1_555 1_555
H44_11 C37_11 1_555 1_555
C38_11 H45_11 1_555 1_555
H46_11 C38_11 1_555 1_555
H47_11 C38_11 1_555 1_555
C39_11 C36_11 1_555 1_555
H48_11 C39_11 1_555 1_555
H49_11 C39_11 1_555 1_555
C40_11 C32_11 1_555 1_555
H50_11 C40_11 1_555 1_555
H51_11 C40_11 1_555 1_555
H52_11 C40_11 1_555 1_555
C30_11 C31_11 1_555 1_555
C32_11 C35_11 1_555 1_555
C38_11 C39_11 1_555 1_555
N5_12 C25_12 1_555 1_555
C25_12 H17_12 1_555 1_555
H18_12 C25_12 1_555 1_555
C26_12 N5_12 1_555 1_555
H19_12 C26_12 1_555 1_555
H20_12 C26_12 1_555 1_555
C27_12 N5_12 1_555 1_555
H21_12 C27_12 1_555 1_555
H22_12 C27_12 1_555 1_555
C28_12 C26_12 1_555 1_555
H23_12 C28_12 1_555 1_555
H24_12 C28_12 1_555 1_555
C29_12 C28_12 1_555 1_555
H25_12 C29_12 1_555 1_555
H26_12 C29_12 1_555 1_555
C30_12 H27_12 1_555 1_555
H28_12 C30_12 1_555 1_555
C31_12 C25_12 1_555 1_555
H29_12 C31_12 1_555 1_555
H30_12 C31_12 1_555 1_555
C32_12 H31_12 1_555 1_555
H32_12 C32_12 1_555 1_555
C33_12 C29_12 1_555 1_555
H33_12 C33_12 1_555 1_555
H34_12 C33_12 1_555 1_555
H35_12 C33_12 1_555 1_555
C34_12 N5_12 1_555 1_555
H36_12 C34_12 1_555 1_555
H37_12 C34_12 1_555 1_555
C35_12 C27_12 1_555 1_555
H38_12 C35_12 1_555 1_555
H39_12 C35_12 1_555 1_555
C36_12 C34_12 1_555 1_555
H40_12 C36_12 1_555 1_555
H41_12 C36_12 1_555 1_555
C37_12 C30_12 1_555 1_555
H42_12 C37_12 1_555 1_555
H43_12 C37_12 1_555 1_555
H44_12 C37_12 1_555 1_555
C38_12 H45_12 1_555 1_555
H46_12 C38_12 1_555 1_555
H47_12 C38_12 1_555 1_555
C39_12 C36_12 1_555 1_555
H48_12 C39_12 1_555 1_555
H49_12 C39_12 1_555 1_555
C40_12 C32_12 1_555 1_555
H50_12 C40_12 1_555 1_555
H51_12 C40_12 1_555 1_555
H52_12 C40_12 1_555 1_555
C30_12 C31_12 1_555 1_555
C32_12 C35_12 1_555 1_555
C38_12 C39_12 1_555 1_555
C30_13 H27_13 1_555 1_555
H28_13 C30_13 1_555 1_555
C37_13 C30_13 1_555 1_555
H42_13 C37_13 1_555 1_555
H43_13 C37_13 1_555 1_555
H44_13 C37_13 1_555 1_555
N5_13 C25_13 1_555 1_555
C25_13 H17_13 1_555 1_555
H18_13 C25_13 1_555 1_555
C26_13 N5_13 1_555 1_555
H19_13 C26_13 1_555 1_555
H20_13 C26_13 1_555 1_555
C27_13 N5_13 1_555 1_555
H21_13 C27_13 1_555 1_555
H22_13 C27_13 1_555 1_555
C28_13 C26_13 1_555 1_555
H23_13 C28_13 1_555 1_555
H24_13 C28_13 1_555 1_555
C31_13 C25_13 1_555 1_555
H29_13 C31_13 1_555 1_555
H30_13 C31_13 1_555 1_555
C32_13 H31_13 1_555 1_555
H32_13 C32_13 1_555 1_555
C34_13 N5_13 1_555 1_555
H36_13 C34_13 1_555 1_555
H37_13 C34_13 1_555 1_555
C35_13 C27_13 1_555 1_555
H38_13 C35_13 1_555 1_555
H39_13 C35_13 1_555 1_555
C36_13 C34_13 1_555 1_555
H40_13 C36_13 1_555 1_555
H41_13 C36_13 1_555 1_555
C38_13 H45_13 1_555 1_555
H46_13 C38_13 1_555 1_555
H47_13 C38_13 1_555 1_555
C39_13 C36_13 1_555 1_555
H48_13 C39_13 1_555 1_555
H49_13 C39_13 1_555 1_555
C40_13 C32_13 1_555 1_555
H50_13 C40_13 1_555 1_555
H51_13 C40_13 1_555 1_555
H52_13 C40_13 1_555 1_555
C32_13 C35_13 1_555 1_555
C38_13 C39_13 1_555 1_555
H25_13 C29_13 1_555 1_555
H26_13 C29_13 1_555 1_555
C33_13 C29_13 1_555 1_555
H33_13 C33_13 1_555 1_555
H34_13 C33_13 1_555 1_555
H35_13 C33_13 1_555 1_555
N5_14 C25_14 1_555 1_555
C25_14 H17_14 1_555 1_555
H18_14 C25_14 1_555 1_555
C26_14 N5_14 1_555 1_555
H19_14 C26_14 1_555 1_555
H20_14 C26_14 1_555 1_555
C27_14 N5_14 1_555 1_555
H21_14 C27_14 1_555 1_555
H22_14 C27_14 1_555 1_555
C28_14 C26_14 1_555 1_555
H23_14 C28_14 1_555 1_555
H24_14 C28_14 1_555 1_555
C29_14 C28_14 1_555 1_555
H25_14 C29_14 1_555 1_555
H26_14 C29_14 1_555 1_555
C31_14 C25_14 1_555 1_555
H29_14 C31_14 1_555 1_555
H30_14 C31_14 1_555 1_555
C32_14 H31_14 1_555 1_555
H32_14 C32_14 1_555 1_555
C33_14 C29_14 1_555 1_555
H33_14 C33_14 1_555 1_555
H34_14 C33_14 1_555 1_555
H35_14 C33_14 1_555 1_555
C34_14 N5_14 1_555 1_555
H36_14 C34_14 1_555 1_555
H37_14 C34_14 1_555 1_555
C35_14 C27_14 1_555 1_555
H38_14 C35_14 1_555 1_555
H39_14 C35_14 1_555 1_555
C36_14 C34_14 1_555 1_555
H40_14 C36_14 1_555 1_555
H41_14 C36_14 1_555 1_555
C38_14 H45_14 1_555 1_555
H46_14 C38_14 1_555 1_555
H47_14 C38_14 1_555 1_555
C39_14 C36_14 1_555 1_555
H49_14 C39_14 1_555 1_555
C40_14 C32_14 1_555 1_555
H50_14 C40_14 1_555 1_555
H51_14 C40_14 1_555 1_555
H52_14 C40_14 1_555 1_555
C32_14 C35_14 1_555 1_555
C38_14 C39_14 1_555 1_555
C30_14 H27_14 1_555 1_555
H28_14 C30_14 1_555 1_555
C37_14 C30_14 1_555 1_555
H42_14 C37_14 1_555 1_555
H43_14 C37_14 1_555 1_555
H44_14 C37_14 1_555 1_555
N5_15 C25_15 1_555 1_555
C25_15 H17_15 1_555 1_555
H18_15 C25_15 1_555 1_555
C26_15 N5_15 1_555 1_555
H19_15 C26_15 1_555 1_555
H20_15 C26_15 1_555 1_555
C27_15 N5_15 1_555 1_555
H21_15 C27_15 1_555 1_555
H22_15 C27_15 1_555 1_555
C28_15 C26_15 1_555 1_555
H23_15 C28_15 1_555 1_555
H24_15 C28_15 1_555 1_555
C29_15 C28_15 1_555 1_555
H25_15 C29_15 1_555 1_555
H26_15 C29_15 1_555 1_555
C30_15 H27_15 1_555 1_555
H28_15 C30_15 1_555 1_555
C31_15 C25_15 1_555 1_555
H29_15 C31_15 1_555 1_555
H30_15 C31_15 1_555 1_555
C32_15 H31_15 1_555 1_555
H32_15 C32_15 1_555 1_555
C33_15 C29_15 1_555 1_555
H33_15 C33_15 1_555 1_555
H34_15 C33_15 1_555 1_555
H35_15 C33_15 1_555 1_555
C34_15 N5_15 1_555 1_555
H36_15 C34_15 1_555 1_555
H37_15 C34_15 1_555 1_555
C35_15 C27_15 1_555 1_555
H38_15 C35_15 1_555 1_555
H39_15 C35_15 1_555 1_555
C36_15 C34_15 1_555 1_555
H40_15 C36_15 1_555 1_555
H41_15 C36_15 1_555 1_555
C37_15 C30_15 1_555 1_555
H42_15 C37_15 1_555 1_555
H43_15 C37_15 1_555 1_555
H44_15 C37_15 1_555 1_555
C38_15 H45_15 1_555 1_555
H46_15 C38_15 1_555 1_555
H47_15 C38_15 1_555 1_555
C39_15 C36_15 1_555 1_555
H48_15 C39_15 1_555 1_555
H49_15 C39_15 1_555 1_555
C40_15 C32_15 1_555 1_555
H50_15 C40_15 1_555 1_555
H51_15 C40_15 1_555 1_555
H52_15 C40_15 1_555 1_555
C30_15 C31_15 1_555 1_555
C32_15 C35_15 1_555 1_555
C38_15 C39_15 1_555 1_555
N5_16 C25_16 1_555 1_555
C25_16 H17_16 1_555 1_555
H18_16 C25_16 1_555 1_555
C26_16 N5_16 1_555 1_555
H19_16 C26_16 1_555 1_555
H20_16 C26_16 1_555 1_555
C27_16 N5_16 1_555 1_555
H21_16 C27_16 1_555 1_555
H22_16 C27_16 1_555 1_555
C28_16 C26_16 1_555 1_555
H23_16 C28_16 1_555 1_555
H24_16 C28_16 1_555 1_555
C29_16 C28_16 1_555 1_555
H25_16 C29_16 1_555 1_555
H26_16 C29_16 1_555 1_555
C30_16 H27_16 1_555 1_555
H28_16 C30_16 1_555 1_555
C31_16 C25_16 1_555 1_555
H29_16 C31_16 1_555 1_555
H30_16 C31_16 1_555 1_555
C32_16 H31_16 1_555 1_555
H32_16 C32_16 1_555 1_555
C33_16 C29_16 1_555 1_555
H33_16 C33_16 1_555 1_555
H34_16 C33_16 1_555 1_555
H35_16 C33_16 1_555 1_555
C34_16 N5_16 1_555 1_555
H36_16 C34_16 1_555 1_555
H37_16 C34_16 1_555 1_555
C35_16 C27_16 1_555 1_555
H38_16 C35_16 1_555 1_555
H39_16 C35_16 1_555 1_555
C36_16 C34_16 1_555 1_555
H40_16 C36_16 1_555 1_555
H41_16 C36_16 1_555 1_555
C37_16 C30_16 1_555 1_555
H42_16 C37_16 1_555 1_555
H43_16 C37_16 1_555 1_555
H44_16 C37_16 1_555 1_555
C38_16 H45_16 1_555 1_555
H46_16 C38_16 1_555 1_555
H47_16 C38_16 1_555 1_555
C39_16 C36_16 1_555 1_555
H48_16 C39_16 1_555 1_555
H49_16 C39_16 1_555 1_555
C40_16 C32_16 1_555 1_555
H50_16 C40_16 1_555 1_555
H51_16 C40_16 1_555 1_555
H52_16 C40_16 1_555 1_555
C30_16 C31_16 1_555 1_555
C32_16 C35_16 1_555 1_555
C38_16 C39_16 1_555 1_555
N5_17 C25_17 1_555 1_555
C25_17 H17_17 1_555 1_555
H18_17 C25_17 1_555 1_555
C26_17 N5_17 1_555 1_555
H19_17 C26_17 1_555 1_555
H20_17 C26_17 1_555 1_555
C27_17 N5_17 1_555 1_555
H21_17 C27_17 1_555 1_555
H22_17 C27_17 1_555 1_555
C28_17 C26_17 1_555 1_555
H23_17 C28_17 1_555 1_555
H24_17 C28_17 1_555 1_555
C30_17 H27_17 1_555 1_555
H28_17 C30_17 1_555 1_555
C31_17 C25_17 1_555 1_555
H29_17 C31_17 1_555 1_555
H30_17 C31_17 1_555 1_555
C32_17 H31_17 1_555 1_555
H32_17 C32_17 1_555 1_555
C34_17 N5_17 1_555 1_555
H36_17 C34_17 1_555 1_555
H37_17 C34_17 1_555 1_555
C35_17 C27_17 1_555 1_555
H38_17 C35_17 1_555 1_555
H39_17 C35_17 1_555 1_555
C36_17 C34_17 1_555 1_555
H40_17 C36_17 1_555 1_555
H41_17 C36_17 1_555 1_555
C37_17 C30_17 1_555 1_555
H42_17 C37_17 1_555 1_555
H43_17 C37_17 1_555 1_555
H44_17 C37_17 1_555 1_555
C38_17 H45_17 1_555 1_555
H46_17 C38_17 1_555 1_555
H47_17 C38_17 1_555 1_555
C39_17 C36_17 1_555 1_555
H49_17 C39_17 1_555 1_555
C40_17 C32_17 1_555 1_555
H50_17 C40_17 1_555 1_555
H51_17 C40_17 1_555 1_555
H52_17 C40_17 1_555 1_555
C30_17 C31_17 1_555 1_555
C32_17 C35_17 1_555 1_555
C38_17 C39_17 1_555 1_555
H25_17 C29_17 1_555 1_555
H26_17 C29_17 1_555 1_555
C33_17 C29_17 1_555 1_555
H33_17 C33_17 1_555 1_555
H34_17 C33_17 1_555 1_555
H35_17 C33_17 1_555 1_555
N5_18 C25_18 1_555 1_555
C25_18 H17_18 1_555 1_555
H18_18 C25_18 1_555 1_555
C26_18 N5_18 1_555 1_555
H19_18 C26_18 1_555 1_555
H20_18 C26_18 1_555 1_555
C27_18 N5_18 1_555 1_555
H21_18 C27_18 1_555 1_555
H22_18 C27_18 1_555 1_555
C28_18 C26_18 1_555 1_555
H23_18 C28_18 1_555 1_555
H24_18 C28_18 1_555 1_555
C29_18 C28_18 1_555 1_555
H25_18 C29_18 1_555 1_555
H26_18 C29_18 1_555 1_555
C30_18 H27_18 1_555 1_555
H28_18 C30_18 1_555 1_555
C31_18 C25_18 1_555 1_555
H29_18 C31_18 1_555 1_555
H30_18 C31_18 1_555 1_555
C32_18 H31_18 1_555 1_555
H32_18 C32_18 1_555 1_555
C33_18 C29_18 1_555 1_555
H33_18 C33_18 1_555 1_555
H34_18 C33_18 1_555 1_555
H35_18 C33_18 1_555 1_555
C34_18 N5_18 1_555 1_555
H36_18 C34_18 1_555 1_555
H37_18 C34_18 1_555 1_555
C35_18 C27_18 1_555 1_555
H38_18 C35_18 1_555 1_555
H39_18 C35_18 1_555 1_555
C36_18 C34_18 1_555 1_555
H40_18 C36_18 1_555 1_555
H41_18 C36_18 1_555 1_555
C37_18 C30_18 1_555 1_555
H42_18 C37_18 1_555 1_555
H43_18 C37_18 1_555 1_555
H44_18 C37_18 1_555 1_555
C38_18 H45_18 1_555 1_555
H46_18 C38_18 1_555 1_555
H47_18 C38_18 1_555 1_555
C39_18 C36_18 1_555 1_555
H48_18 C39_18 1_555 1_555
H49_18 C39_18 1_555 1_555
C40_18 C32_18 1_555 1_555
H50_18 C40_18 1_555 1_555
H51_18 C40_18 1_555 1_555
H52_18 C40_18 1_555 1_555
C30_18 C31_18 1_555 1_555
C32_18 C35_18 1_555 1_555
C38_18 C39_18 1_555 1_555
N5_19 C25_19 1_555 1_555
C25_19 H17_19 1_555 1_555
H18_19 C25_19 1_555 1_555
C26_19 N5_19 1_555 1_555
H19_19 C26_19 1_555 1_555
H20_19 C26_19 1_555 1_555
C27_19 N5_19 1_555 1_555
H21_19 C27_19 1_555 1_555
H22_19 C27_19 1_555 1_555
C28_19 C26_19 1_555 1_555
H23_19 C28_19 1_555 1_555
H24_19 C28_19 1_555 1_555
C29_19 C28_19 1_555 1_555
H25_19 C29_19 1_555 1_555
H26_19 C29_19 1_555 1_555
C30_19 H27_19 1_555 1_555
H28_19 C30_19 1_555 1_555
C31_19 C25_19 1_555 1_555
H29_19 C31_19 1_555 1_555
H30_19 C31_19 1_555 1_555
C32_19 H31_19 1_555 1_555
H32_19 C32_19 1_555 1_555
C33_19 C29_19 1_555 1_555
H33_19 C33_19 1_555 1_555
H34_19 C33_19 1_555 1_555
H35_19 C33_19 1_555 1_555
C34_19 N5_19 1_555 1_555
H36_19 C34_19 1_555 1_555
H37_19 C34_19 1_555 1_555
C35_19 C27_19 1_555 1_555
H38_19 C35_19 1_555 1_555
H39_19 C35_19 1_555 1_555
C36_19 C34_19 1_555 1_555
H40_19 C36_19 1_555 1_555
H41_19 C36_19 1_555 1_555
C37_19 C30_19 1_555 1_555
H42_19 C37_19 1_555 1_555
H43_19 C37_19 1_555 1_555
H44_19 C37_19 1_555 1_555
C38_19 H45_19 1_555 1_555
H46_19 C38_19 1_555 1_555
H47_19 C38_19 1_555 1_555
C39_19 C36_19 1_555 1_555
H48_19 C39_19 1_555 1_555
H49_19 C39_19 1_555 1_555
C40_19 C32_19 1_555 1_555
H50_19 C40_19 1_555 1_555
H51_19 C40_19 1_555 1_555
H52_19 C40_19 1_555 1_555
C30_19 C31_19 1_555 1_555
C32_19 C35_19 1_555 1_555
C38_19 C39_19 1_555 1_555
N5_20 C25_20 1_555 1_555
C25_20 H17_20 1_555 1_555
H18_20 C25_20 1_555 1_555
C26_20 N5_20 1_555 1_555
H19_20 C26_20 1_555 1_555
H20_20 C26_20 1_555 1_555
C27_20 N5_20 1_555 1_555
H21_20 C27_20 1_555 1_555
H22_20 C27_20 1_555 1_555
C28_20 C26_20 1_555 1_555
H23_20 C28_20 1_555 1_555
H24_20 C28_20 1_555 1_555
C29_20 C28_20 1_555 1_555
H25_20 C29_20 1_555 1_555
H26_20 C29_20 1_555 1_555
C30_20 H27_20 1_555 1_555
H28_20 C30_20 1_555 1_555
C31_20 C25_20 1_555 1_555
H29_20 C31_20 1_555 1_555
H30_20 C31_20 1_555 1_555
C32_20 H31_20 1_555 1_555
H32_20 C32_20 1_555 1_555
C33_20 C29_20 1_555 1_555
H33_20 C33_20 1_555 1_555
H34_20 C33_20 1_555 1_555
H35_20 C33_20 1_555 1_555
C34_20 N5_20 1_555 1_555
H36_20 C34_20 1_555 1_555
H37_20 C34_20 1_555 1_555
C35_20 C27_20 1_555 1_555
H38_20 C35_20 1_555 1_555
H39_20 C35_20 1_555 1_555
C36_20 C34_20 1_555 1_555
H40_20 C36_20 1_555 1_555
H41_20 C36_20 1_555 1_555
C37_20 C30_20 1_555 1_555
H42_20 C37_20 1_555 1_555
H43_20 C37_20 1_555 1_555
H44_20 C37_20 1_555 1_555
C38_20 H45_20 1_555 1_555
H46_20 C38_20 1_555 1_555
H47_20 C38_20 1_555 1_555
C39_20 C36_20 1_555 1_555
H48_20 C39_20 1_555 1_555
H49_20 C39_20 1_555 1_555
C40_20 C32_20 1_555 1_555
H50_20 C40_20 1_555 1_555
H51_20 C40_20 1_555 1_555
H52_20 C40_20 1_555 1_555
C30_20 C31_20 1_555 1_555
C32_20 C35_20 1_555 1_555
C38_20 C39_20 1_555 1_555
N5_21 C25_21 1_555 1_555
C25_21 H17_21 1_555 1_555
H18_21 C25_21 1_555 1_555
C26_21 N5_21 1_555 1_555
H19_21 C26_21 1_555 1_555
H20_21 C26_21 1_555 1_555
C27_21 N5_21 1_555 1_555
H21_21 C27_21 1_555 1_555
H22_21 C27_21 1_555 1_555
C28_21 C26_21 1_555 1_555
H23_21 C28_21 1_555 1_555
H24_21 C28_21 1_555 1_555
C29_21 C28_21 1_555 1_555
H25_21 C29_21 1_555 1_555
H26_21 C29_21 1_555 1_555
C30_21 H27_21 1_555 1_555
H28_21 C30_21 1_555 1_555
C31_21 C25_21 1_555 1_555
H29_21 C31_21 1_555 1_555
H30_21 C31_21 1_555 1_555
C32_21 H31_21 1_555 1_555
H32_21 C32_21 1_555 1_555
C33_21 C29_21 1_555 1_555
H33_21 C33_21 1_555 1_555
H34_21 C33_21 1_555 1_555
H35_21 C33_21 1_555 1_555
C34_21 N5_21 1_555 1_555
H36_21 C34_21 1_555 1_555
H37_21 C34_21 1_555 1_555
C35_21 C27_21 1_555 1_555
H38_21 C35_21 1_555 1_555
H39_21 C35_21 1_555 1_555
C36_21 C34_21 1_555 1_555
H40_21 C36_21 1_555 1_555
H41_21 C36_21 1_555 1_555
C37_21 C30_21 1_555 1_555
H42_21 C37_21 1_555 1_555
H43_21 C37_21 1_555 1_555
H44_21 C37_21 1_555 1_555
C38_21 H45_21 1_555 1_555
H46_21 C38_21 1_555 1_555
H47_21 C38_21 1_555 1_555
C39_21 C36_21 1_555 1_555
H49_21 C39_21 1_555 1_555
C40_21 C32_21 1_555 1_555
H50_21 C40_21 1_555 1_555
H51_21 C40_21 1_555 1_555
H52_21 C40_21 1_555 1_555
C30_21 C31_21 1_555 1_555
C32_21 C35_21 1_555 1_555
C38_21 C39_21 1_555 1_555
N5_22 C25_22 1_555 1_555
C25_22 H17_22 1_555 1_555
H18_22 C25_22 1_555 1_555
C26_22 N5_22 1_555 1_555
H19_22 C26_22 1_555 1_555
H20_22 C26_22 1_555 1_555
C27_22 N5_22 1_555 1_555
H21_22 C27_22 1_555 1_555
H22_22 C27_22 1_555 1_555
C28_22 C26_22 1_555 1_555
H23_22 C28_22 1_555 1_555
H24_22 C28_22 1_555 1_555
C30_22 H27_22 1_555 1_555
H28_22 C30_22 1_555 1_555
C31_22 C25_22 1_555 1_555
H29_22 C31_22 1_555 1_555
H30_22 C31_22 1_555 1_555
C32_22 H31_22 1_555 1_555
H32_22 C32_22 1_555 1_555
C34_22 N5_22 1_555 1_555
H36_22 C34_22 1_555 1_555
H37_22 C34_22 1_555 1_555
C35_22 C27_22 1_555 1_555
H38_22 C35_22 1_555 1_555
H39_22 C35_22 1_555 1_555
C36_22 C34_22 1_555 1_555
H40_22 C36_22 1_555 1_555
H41_22 C36_22 1_555 1_555
C37_22 C30_22 1_555 1_555
H42_22 C37_22 1_555 1_555
H43_22 C37_22 1_555 1_555
H44_22 C37_22 1_555 1_555
C38_22 H45_22 1_555 1_555
H46_22 C38_22 1_555 1_555
H47_22 C38_22 1_555 1_555
C39_22 C36_22 1_555 1_555
H48_22 C39_22 1_555 1_555
H49_22 C39_22 1_555 1_555
C40_22 C32_22 1_555 1_555
H50_22 C40_22 1_555 1_555
H51_22 C40_22 1_555 1_555
H52_22 C40_22 1_555 1_555
C30_22 C31_22 1_555 1_555
C32_22 C35_22 1_555 1_555
C38_22 C39_22 1_555 1_555
H25_22 C29_22 1_555 1_555
H26_22 C29_22 1_555 1_555
C33_22 C29_22 1_555 1_555
H33_22 C33_22 1_555 1_555
H34_22 C33_22 1_555 1_555
H35_22 C33_22 1_555 1_555
N5_23 C25_23 1_555 1_555
C25_23 H17_23 1_555 1_555
H18_23 C25_23 1_555 1_555
C26_23 N5_23 1_555 1_555
H19_23 C26_23 1_555 1_555
H20_23 C26_23 1_555 1_555
C27_23 N5_23 1_555 1_555
H21_23 C27_23 1_555 1_555
H22_23 C27_23 1_555 1_555
C28_23 C26_23 1_555 1_555
H23_23 C28_23 1_555 1_555
H24_23 C28_23 1_555 1_555
C29_23 C28_23 1_555 1_555
H25_23 C29_23 1_555 1_555
H26_23 C29_23 1_555 1_555
C30_23 H27_23 1_555 1_555
H28_23 C30_23 1_555 1_555
C31_23 C25_23 1_555 1_555
H29_23 C31_23 1_555 1_555
H30_23 C31_23 1_555 1_555
C32_23 H31_23 1_555 1_555
H32_23 C32_23 1_555 1_555
C33_23 C29_23 1_555 1_555
H33_23 C33_23 1_555 1_555
H34_23 C33_23 1_555 1_555
H35_23 C33_23 1_555 1_555
C34_23 N5_23 1_555 1_555
H36_23 C34_23 1_555 1_555
H37_23 C34_23 1_555 1_555
C35_23 C27_23 1_555 1_555
H38_23 C35_23 1_555 1_555
H39_23 C35_23 1_555 1_555
C36_23 C34_23 1_555 1_555
H40_23 C36_23 1_555 1_555
H41_23 C36_23 1_555 1_555
C37_23 C30_23 1_555 1_555
H42_23 C37_23 1_555 1_555
H43_23 C37_23 1_555 1_555
H44_23 C37_23 1_555 1_555
C38_23 H45_23 1_555 1_555
H46_23 C38_23 1_555 1_555
H47_23 C38_23 1_555 1_555
C39_23 C36_23 1_555 1_555
H48_23 C39_23 1_555 1_555
H49_23 C39_23 1_555 1_555
C40_23 C32_23 1_555 1_555
H50_23 C40_23 1_555 1_555
H51_23 C40_23 1_555 1_555
H52_23 C40_23 1_555 1_555
C30_23 C31_23 1_555 1_555
C32_23 C35_23 1_555 1_555
C38_23 C39_23 1_555 1_555
N5_24 C25_24 1_555 1_555
C25_24 H17_24 1_555 1_555
H18_24 C25_24 1_555 1_555
C26_24 N5_24 1_555 1_555
H19_24 C26_24 1_555 1_555
H20_24 C26_24 1_555 1_555
C27_24 N5_24 1_555 1_555
H21_24 C27_24 1_555 1_555
H22_24 C27_24 1_555 1_555
C28_24 C26_24 1_555 1_555
H23_24 C28_24 1_555 1_555
H24_24 C28_24 1_555 1_555
C29_24 C28_24 1_555 1_555
H25_24 C29_24 1_555 1_555
H26_24 C29_24 1_555 1_555
C30_24 H27_24 1_555 1_555
H28_24 C30_24 1_555 1_555
C31_24 C25_24 1_555 1_555
H29_24 C31_24 1_555 1_555
H30_24 C31_24 1_555 1_555
C32_24 H31_24 1_555 1_555
H32_24 C32_24 1_555 1_555
C33_24 C29_24 1_555 1_555
H33_24 C33_24 1_555 1_555
H34_24 C33_24 1_555 1_555
H35_24 C33_24 1_555 1_555
C34_24 N5_24 1_555 1_555
H36_24 C34_24 1_555 1_555
H37_24 C34_24 1_555 1_555
C35_24 C27_24 1_555 1_555
H38_24 C35_24 1_555 1_555
H39_24 C35_24 1_555 1_555
C36_24 C34_24 1_555 1_555
H40_24 C36_24 1_555 1_555
H41_24 C36_24 1_555 1_555
C37_24 C30_24 1_555 1_555
H42_24 C37_24 1_555 1_555
H43_24 C37_24 1_555 1_555
H44_24 C37_24 1_555 1_555
C38_24 H45_24 1_555 1_555
H46_24 C38_24 1_555 1_555
H47_24 C38_24 1_555 1_555
C39_24 C36_24 1_555 1_555
H48_24 C39_24 1_555 1_555
H49_24 C39_24 1_555 1_555
C40_24 C32_24 1_555 1_555
H50_24 C40_24 1_555 1_555
H51_24 C40_24 1_555 1_555
H52_24 C40_24 1_555 1_555
C30_24 C31_24 1_555 1_555
C32_24 C35_24 1_555 1_555
C38_24 C39_24 1_555 1_555
N5_25 C25_25 1_555 1_555
C25_25 H17_25 1_555 1_555
H18_25 C25_25 1_555 1_555
C26_25 N5_25 1_555 1_555
H19_25 C26_25 1_555 1_555
H20_25 C26_25 1_555 1_555
C27_25 N5_25 1_555 1_555
H21_25 C27_25 1_555 1_555
H22_25 C27_25 1_555 1_555
C28_25 C26_25 1_555 1_555
H23_25 C28_25 1_555 1_555
H24_25 C28_25 1_555 1_555
C29_25 C28_25 1_555 1_555
H25_25 C29_25 1_555 1_555
H26_25 C29_25 1_555 1_555
C31_25 C25_25 1_555 1_555
H29_25 C31_25 1_555 1_555
H30_25 C31_25 1_555 1_555
C32_25 H31_25 1_555 1_555
H32_25 C32_25 1_555 1_555
C33_25 C29_25 1_555 1_555
H33_25 C33_25 1_555 1_555
H34_25 C33_25 1_555 1_555
H35_25 C33_25 1_555 1_555
C34_25 N5_25 1_555 1_555
H36_25 C34_25 1_555 1_555
H37_25 C34_25 1_555 1_555
C35_25 C27_25 1_555 1_555
H38_25 C35_25 1_555 1_555
H39_25 C35_25 1_555 1_555
C36_25 C34_25 1_555 1_555
H40_25 C36_25 1_555 1_555
H41_25 C36_25 1_555 1_555
C38_25 H45_25 1_555 1_555
H46_25 C38_25 1_555 1_555
H47_25 C38_25 1_555 1_555
C39_25 C36_25 1_555 1_555
H48_25 C39_25 1_555 1_555
H49_25 C39_25 1_555 1_555
C40_25 C32_25 1_555 1_555
H50_25 C40_25 1_555 1_555
H51_25 C40_25 1_555 1_555
H52_25 C40_25 1_555 1_555
C32_25 C35_25 1_555 1_555
C38_25 C39_25 1_555 1_555
C30_25 H27_25 1_555 1_555
H28_25 C30_25 1_555 1_555
C37_25 C30_25 1_555 1_555
H42_25 C37_25 1_555 1_555
H43_25 C37_25 1_555 1_555
H44_25 C37_25 1_555 1_555
H25_26 C29_26 1_555 1_555
H26_26 C29_26 1_555 1_555
C33_26 C29_26 1_555 1_555
H33_26 C33_26 1_555 1_555
H34_26 C33_26 1_555 1_555
H35_26 C33_26 1_555 1_555
C30_26 H27_26 1_555 1_555
H28_26 C30_26 1_555 1_555
C37_26 C30_26 1_555 1_555
H42_26 C37_26 1_555 1_555
H43_26 C37_26 1_555 1_555
H44_26 C37_26 1_555 1_555
N5_26 C25_26 1_555 1_555
C25_26 H17_26 1_555 1_555
H18_26 C25_26 1_555 1_555
C26_26 N5_26 1_555 1_555
H19_26 C26_26 1_555 1_555
H20_26 C26_26 1_555 1_555
C27_26 N5_26 1_555 1_555
H21_26 C27_26 1_555 1_555
H22_26 C27_26 1_555 1_555
C28_26 C26_26 1_555 1_555
H23_26 C28_26 1_555 1_555
H24_26 C28_26 1_555 1_555
C31_26 C25_26 1_555 1_555
H29_26 C31_26 1_555 1_555
H30_26 C31_26 1_555 1_555
C32_26 H31_26 1_555 1_555
H32_26 C32_26 1_555 1_555
C34_26 N5_26 1_555 1_555
H36_26 C34_26 1_555 1_555
H37_26 C34_26 1_555 1_555
C35_26 C27_26 1_555 1_555
H38_26 C35_26 1_555 1_555
H39_26 C35_26 1_555 1_555
C36_26 C34_26 1_555 1_555
H40_26 C36_26 1_555 1_555
H41_26 C36_26 1_555 1_555
C38_26 H45_26 1_555 1_555
H46_26 C38_26 1_555 1_555
H47_26 C38_26 1_555 1_555
C39_26 C36_26 1_555 1_555
H49_26 C39_26 1_555 1_555
C40_26 C32_26 1_555 1_555
H50_26 C40_26 1_555 1_555
H51_26 C40_26 1_555 1_555
H52_26 C40_26 1_555 1_555
C32_26 C35_26 1_555 1_555
C38_26 C39_26 1_555 1_555
N5_27 C25_27 1_555 1_555
C25_27 H17_27 1_555 1_555
H18_27 C25_27 1_555 1_555
C26_27 N5_27 1_555 1_555
H19_27 C26_27 1_555 1_555
H20_27 C26_27 1_555 1_555
C27_27 N5_27 1_555 1_555
H21_27 C27_27 1_555 1_555
H22_27 C27_27 1_555 1_555
C28_27 C26_27 1_555 1_555
H23_27 C28_27 1_555 1_555
H24_27 C28_27 1_555 1_555
C29_27 C28_27 1_555 1_555
H25_27 C29_27 1_555 1_555
H26_27 C29_27 1_555 1_555
C30_27 H27_27 1_555 1_555
H28_27 C30_27 1_555 1_555
C31_27 C25_27 1_555 1_555
H29_27 C31_27 1_555 1_555
H30_27 C31_27 1_555 1_555
C32_27 H31_27 1_555 1_555
H32_27 C32_27 1_555 1_555
C33_27 C29_27 1_555 1_555
H33_27 C33_27 1_555 1_555
H34_27 C33_27 1_555 1_555
H35_27 C33_27 1_555 1_555
C34_27 N5_27 1_555 1_555
H36_27 C34_27 1_555 1_555
H37_27 C34_27 1_555 1_555
C35_27 C27_27 1_555 1_555
H38_27 C35_27 1_555 1_555
H39_27 C35_27 1_555 1_555
C36_27 C34_27 1_555 1_555
H40_27 C36_27 1_555 1_555
H41_27 C36_27 1_555 1_555
C37_27 C30_27 1_555 1_555
H42_27 C37_27 1_555 1_555
H43_27 C37_27 1_555 1_555
H44_27 C37_27 1_555 1_555
C38_27 H45_27 1_555 1_555
H46_27 C38_27 1_555 1_555
H47_27 C38_27 1_555 1_555
C39_27 C36_27 1_555 1_555
H48_27 C39_27 1_555 1_555
H49_27 C39_27 1_555 1_555
C40_27 C32_27 1_555 1_555
H50_27 C40_27 1_555 1_555
H51_27 C40_27 1_555 1_555
H52_27 C40_27 1_555 1_555
C30_27 C31_27 1_555 1_555
C32_27 C35_27 1_555 1_555
C38_27 C39_27 1_555 1_555
N5_28 C25_28 1_555 1_555
C25_28 H17_28 1_555 1_555
H18_28 C25_28 1_555 1_555
C26_28 N5_28 1_555 1_555
H19_28 C26_28 1_555 1_555
H20_28 C26_28 1_555 1_555
C27_28 N5_28 1_555 1_555
H21_28 C27_28 1_555 1_555
H22_28 C27_28 1_555 1_555
C28_28 C26_28 1_555 1_555
H23_28 C28_28 1_555 1_555
H24_28 C28_28 1_555 1_555
C29_28 C28_28 1_555 1_555
H25_28 C29_28 1_555 1_555
H26_28 C29_28 1_555 1_555
C30_28 H27_28 1_555 1_555
H28_28 C30_28 1_555 1_555
C31_28 C25_28 1_555 1_555
H29_28 C31_28 1_555 1_555
H30_28 C31_28 1_555 1_555
C32_28 H31_28 1_555 1_555
H32_28 C32_28 1_555 1_555
C33_28 C29_28 1_555 1_555
H33_28 C33_28 1_555 1_555
H34_28 C33_28 1_555 1_555
H35_28 C33_28 1_555 1_555
C34_28 N5_28 1_555 1_555
H36_28 C34_28 1_555 1_555
H37_28 C34_28 1_555 1_555
C35_28 C27_28 1_555 1_555
H38_28 C35_28 1_555 1_555
H39_28 C35_28 1_555 1_555
C36_28 C34_28 1_555 1_555
H40_28 C36_28 1_555 1_555
H41_28 C36_28 1_555 1_555
C37_28 C30_28 1_555 1_555
H42_28 C37_28 1_555 1_555
H43_28 C37_28 1_555 1_555
H44_28 C37_28 1_555 1_555
C38_28 H45_28 1_555 1_555
H46_28 C38_28 1_555 1_555
H47_28 C38_28 1_555 1_555
C39_28 C36_28 1_555 1_555
H48_28 C39_28 1_555 1_555
H49_28 C39_28 1_555 1_555
C40_28 C32_28 1_555 1_555
H50_28 C40_28 1_555 1_555
H51_28 C40_28 1_555 1_555
H52_28 C40_28 1_555 1_555
C30_28 C31_28 1_555 1_555
C32_28 C35_28 1_555 1_555
C38_28 C39_28 1_555 1_555
H25_29 C29_29 1_555 1_555
H26_29 C29_29 1_555 1_555
C33_29 C29_29 1_555 1_555
H33_29 C33_29 1_555 1_555
H34_29 C33_29 1_555 1_555
H35_29 C33_29 1_555 1_555
N5_29 C25_29 1_555 1_555
C25_29 H17_29 1_555 1_555
H18_29 C25_29 1_555 1_555
C26_29 N5_29 1_555 1_555
H19_29 C26_29 1_555 1_555
H20_29 C26_29 1_555 1_555
C27_29 N5_29 1_555 1_555
H21_29 C27_29 1_555 1_555
H22_29 C27_29 1_555 1_555
C28_29 C26_29 1_555 1_555
H23_29 C28_29 1_555 1_555
H24_29 C28_29 1_555 1_555
C31_29 C25_29 1_555 1_555
H29_29 C31_29 1_555 1_555
H30_29 C31_29 1_555 1_555
C32_29 H31_29 1_555 1_555
H32_29 C32_29 1_555 1_555
C34_29 N5_29 1_555 1_555
H36_29 C34_29 1_555 1_555
H37_29 C34_29 1_555 1_555
C35_29 C27_29 1_555 1_555
H38_29 C35_29 1_555 1_555
H39_29 C35_29 1_555 1_555
C36_29 C34_29 1_555 1_555
H40_29 C36_29 1_555 1_555
H41_29 C36_29 1_555 1_555
C38_29 H45_29 1_555 1_555
H46_29 C38_29 1_555 1_555
H47_29 C38_29 1_555 1_555
C39_29 C36_29 1_555 1_555
H48_29 C39_29 1_555 1_555
H49_29 C39_29 1_555 1_555
C40_29 C32_29 1_555 1_555
H50_29 C40_29 1_555 1_555
H51_29 C40_29 1_555 1_555
H52_29 C40_29 1_555 1_555
C32_29 C35_29 1_555 1_555
C38_29 C39_29 1_555 1_555
C30_29 H27_29 1_555 1_555
H28_29 C30_29 1_555 1_555
C37_29 C30_29 1_555 1_555
H42_29 C37_29 1_555 1_555
H43_29 C37_29 1_555 1_555
H44_29 C37_29 1_555 1_555
C30_30 H27_30 1_555 1_555
H28_30 C30_30 1_555 1_555
C37_30 C30_30 1_555 1_555
H42_30 C37_30 1_555 1_555
H43_30 C37_30 1_555 1_555
H44_30 C37_30 1_555 1_555
N5_30 C25_30 1_555 1_555
C25_30 H17_30 1_555 1_555
H18_30 C25_30 1_555 1_555
C26_30 N5_30 1_555 1_555
H19_30 C26_30 1_555 1_555
H20_30 C26_30 1_555 1_555
C27_30 N5_30 1_555 1_555
H21_30 C27_30 1_555 1_555
H22_30 C27_30 1_555 1_555
C28_30 C26_30 1_555 1_555
H23_30 C28_30 1_555 1_555
H24_30 C28_30 1_555 1_555
C29_30 C28_30 1_555 1_555
H25_30 C29_30 1_555 1_555
H26_30 C29_30 1_555 1_555
C31_30 C25_30 1_555 1_555
H29_30 C31_30 1_555 1_555
H30_30 C31_30 1_555 1_555
C32_30 H31_30 1_555 1_555
H32_30 C32_30 1_555 1_555
C33_30 C29_30 1_555 1_555
H33_30 C33_30 1_555 1_555
H34_30 C33_30 1_555 1_555
H35_30 C33_30 1_555 1_555
C34_30 N5_30 1_555 1_555
H36_30 C34_30 1_555 1_555
H37_30 C34_30 1_555 1_555
C35_30 C27_30 1_555 1_555
H38_30 C35_30 1_555 1_555
H39_30 C35_30 1_555 1_555
C36_30 C34_30 1_555 1_555
H40_30 C36_30 1_555 1_555
H41_30 C36_30 1_555 1_555
C38_30 H45_30 1_555 1_555
H46_30 C38_30 1_555 1_555
H47_30 C38_30 1_555 1_555
C39_30 C36_30 1_555 1_555
H49_30 C39_30 1_555 1_555
C40_30 C32_30 1_555 1_555
H50_30 C40_30 1_555 1_555
H51_30 C40_30 1_555 1_555
H52_30 C40_30 1_555 1_555
C32_30 C35_30 1_555 1_555
C38_30 C39_30 1_555 1_555
N5_31 C25_31 1_555 1_555
C25_31 H17_31 1_555 1_555
H18_31 C25_31 1_555 1_555
C26_31 N5_31 1_555 1_555
H19_31 C26_31 1_555 1_555
H20_31 C26_31 1_555 1_555
C27_31 N5_31 1_555 1_555
H21_31 C27_31 1_555 1_555
H22_31 C27_31 1_555 1_555
C28_31 C26_31 1_555 1_555
H23_31 C28_31 1_555 1_555
H24_31 C28_31 1_555 1_555
C29_31 C28_31 1_555 1_555
H25_31 C29_31 1_555 1_555
H26_31 C29_31 1_555 1_555
C30_31 H27_31 1_555 1_555
H28_31 C30_31 1_555 1_555
C31_31 C25_31 1_555 1_555
H29_31 C31_31 1_555 1_555
H30_31 C31_31 1_555 1_555
C32_31 H31_31 1_555 1_555
H32_31 C32_31 1_555 1_555
C33_31 C29_31 1_555 1_555
H33_31 C33_31 1_555 1_555
H34_31 C33_31 1_555 1_555
H35_31 C33_31 1_555 1_555
C34_31 N5_31 1_555 1_555
H36_31 C34_31 1_555 1_555
H37_31 C34_31 1_555 1_555
C35_31 C27_31 1_555 1_555
H38_31 C35_31 1_555 1_555
H39_31 C35_31 1_555 1_555
C36_31 C34_31 1_555 1_555
H40_31 C36_31 1_555 1_555
H41_31 C36_31 1_555 1_555
C37_31 C30_31 1_555 1_555
H42_31 C37_31 1_555 1_555
H43_31 C37_31 1_555 1_555
H44_31 C37_31 1_555 1_555
C38_31 H45_31 1_555 1_555
H46_31 C38_31 1_555 1_555
H47_31 C38_31 1_555 1_555
C39_31 C36_31 1_555 1_555
H48_31 C39_31 1_555 1_555
H49_31 C39_31 1_555 1_555
C40_31 C32_31 1_555 1_555
H50_31 C40_31 1_555 1_555
H51_31 C40_31 1_555 1_555
H52_31 C40_31 1_555 1_555
C30_31 C31_31 1_555 1_555
C32_31 C35_31 1_555 1_555
C38_31 C39_31 1_555 1_555
N5_32 C25_32 1_555 1_555
C25_32 H17_32 1_555 1_555
H18_32 C25_32 1_555 1_555
C26_32 N5_32 1_555 1_555
H19_32 C26_32 1_555 1_555
H20_32 C26_32 1_555 1_555
C27_32 N5_32 1_555 1_555
H21_32 C27_32 1_555 1_555
H22_32 C27_32 1_555 1_555
C28_32 C26_32 1_555 1_555
H23_32 C28_32 1_555 1_555
H24_32 C28_32 1_555 1_555
C29_32 C28_32 1_555 1_555
H25_32 C29_32 1_555 1_555
H26_32 C29_32 1_555 1_555
C30_32 H27_32 1_555 1_555
H28_32 C30_32 1_555 1_555
C31_32 C25_32 1_555 1_555
H29_32 C31_32 1_555 1_555
H30_32 C31_32 1_555 1_555
C32_32 H31_32 1_555 1_555
H32_32 C32_32 1_555 1_555
C33_32 C29_32 1_555 1_555
H33_32 C33_32 1_555 1_555
H34_32 C33_32 1_555 1_555
H35_32 C33_32 1_555 1_555
C34_32 N5_32 1_555 1_555
H36_32 C34_32 1_555 1_555
H37_32 C34_32 1_555 1_555
C35_32 C27_32 1_555 1_555
H38_32 C35_32 1_555 1_555
H39_32 C35_32 1_555 1_555
C36_32 C34_32 1_555 1_555
H40_32 C36_32 1_555 1_555
H41_32 C36_32 1_555 1_555
C37_32 C30_32 1_555 1_555
H42_32 C37_32 1_555 1_555
H43_32 C37_32 1_555 1_555
H44_32 C37_32 1_555 1_555
C38_32 H45_32 1_555 1_555
H46_32 C38_32 1_555 1_555
H47_32 C38_32 1_555 1_555
C39_32 C36_32 1_555 1_555
H48_32 C39_32 1_555 1_555
H49_32 C39_32 1_555 1_555
C40_32 C32_32 1_555 1_555
H50_32 C40_32 1_555 1_555
H51_32 C40_32 1_555 1_555
H52_32 C40_32 1_555 1_555
C30_32 C31_32 1_555 1_555
C32_32 C35_32 1_555 1_555
C38_32 C39_32 1_555 1_555
N6 C41 1_555 1_555
C41 H53 1_555 1_555
H54 C41 1_555 1_555
C42 C41 1_555 1_555
H55 C42 1_555 1_555
H56 C42 1_555 1_555
C43 N6 1_555 1_555
H57 C43 1_555 1_555
H58 C43 1_555 1_555
C44 C43 1_555 1_555
H59 C44 1_555 1_555
H60 C44 1_555 1_555
C45 C44 1_555 1_555
H61 C45 1_555 1_555
H62 C45 1_555 1_555
C46 H63 1_555 1_555
H64 C46 1_555 1_555
H65 C46 1_555 1_555
C47 C42 1_555 1_555
H66 C47 1_555 1_555
H67 C47 1_555 1_555
C48 C45 1_555 1_555
H68 C48 1_555 1_555
H69 C48 1_555 1_555
H70 C48 1_555 1_555
C49 N6 1_555 1_555
H71 C49 1_555 1_555
H72 C49 1_555 1_555
C50 C49 1_555 1_555
H73 C50 1_555 1_555
H74 C50 1_555 1_555
C51 N6 1_555 1_555
H75 C51 1_555 1_555
H76 C51 1_555 1_555
C52 C51 1_555 1_555
H77 C52 1_555 1_555
H78 C52 1_555 1_555
C53 C52 1_555 1_555
H79 C53 1_555 1_555
H80 C53 1_555 1_555
C54 H81 1_555 1_555
H82 C54 1_555 1_555
H83 C54 1_555 1_555
C55 C50 1_555 1_555
H84 C55 1_555 1_555
H85 C55 1_555 1_555
C56 C53 1_555 1_555
H86 C56 1_555 1_555
H87 C56 1_555 1_555
H88 C56 1_555 1_555
C46 C47 1_555 1_555
C54 C55 1_555 1_555
N6_2 C41_2 1_555 1_555
C41_2 H53_2 1_555 1_555
H54_2 C41_2 1_555 1_555
C42_2 C41_2 1_555 1_555
H55_2 C42_2 1_555 1_555
H56_2 C42_2 1_555 1_555
C43_2 N6_2 1_555 1_555
H57_2 C43_2 1_555 1_555
H58_2 C43_2 1_555 1_555
C44_2 C43_2 1_555 1_555
H59_2 C44_2 1_555 1_555
H60_2 C44_2 1_555 1_555
C45_2 C44_2 1_555 1_555
H61_2 C45_2 1_555 1_555
H62_2 C45_2 1_555 1_555
C46_2 H63_2 1_555 1_555
H64_2 C46_2 1_555 1_555
H65_2 C46_2 1_555 1_555
C47_2 C42_2 1_555 1_555
H66_2 C47_2 1_555 1_555
H67_2 C47_2 1_555 1_555
C48_2 C45_2 1_555 1_555
H68_2 C48_2 1_555 1_555
H69_2 C48_2 1_555 1_555
H70_2 C48_2 1_555 1_555
C49_2 N6_2 1_555 1_555
H71_2 C49_2 1_555 1_555
H72_2 C49_2 1_555 1_555
C50_2 C49_2 1_555 1_555
H73_2 C50_2 1_555 1_555
H74_2 C50_2 1_555 1_555
C51_2 N6_2 1_555 1_555
H75_2 C51_2 1_555 1_555
H76_2 C51_2 1_555 1_555
C52_2 C51_2 1_555 1_555
H77_2 C52_2 1_555 1_555
H78_2 C52_2 1_555 1_555
C53_2 C52_2 1_555 1_555
H79_2 C53_2 1_555 1_555
H80_2 C53_2 1_555 1_555
C54_2 H81_2 1_555 1_555
H82_2 C54_2 1_555 1_555
H83_2 C54_2 1_555 1_555
C55_2 C50_2 1_555 1_555
H84_2 C55_2 1_555 1_555
H85_2 C55_2 1_555 1_555
C56_2 C53_2 1_555 1_555
H86_2 C56_2 1_555 1_555
H87_2 C56_2 1_555 1_555
H88_2 C56_2 1_555 1_555
C46_2 C47_2 1_555 1_555
C54_2 C55_2 1_555 1_555
N6_3 C41_3 1_555 1_555
C41_3 H53_3 1_555 1_555
H54_3 C41_3 1_555 1_555
C42_3 C41_3 1_555 1_555
H55_3 C42_3 1_555 1_555
H56_3 C42_3 1_555 1_555
C43_3 N6_3 1_555 1_555
H57_3 C43_3 1_555 1_555
H58_3 C43_3 1_555 1_555
C44_3 C43_3 1_555 1_555
H59_3 C44_3 1_555 1_555
H60_3 C44_3 1_555 1_555
C45_3 C44_3 1_555 1_555
H61_3 C45_3 1_555 1_555
H62_3 C45_3 1_555 1_555
C46_3 H63_3 1_555 1_555
H64_3 C46_3 1_555 1_555
H65_3 C46_3 1_555 1_555
C47_3 C42_3 1_555 1_555
H66_3 C47_3 1_555 1_555
H67_3 C47_3 1_555 1_555
C48_3 C45_3 1_555 1_555
H68_3 C48_3 1_555 1_555
H69_3 C48_3 1_555 1_555
H70_3 C48_3 1_555 1_555
C49_3 N6_3 1_555 1_555
H71_3 C49_3 1_555 1_555
H72_3 C49_3 1_555 1_555
C50_3 C49_3 1_555 1_555
H73_3 C50_3 1_555 1_555
H74_3 C50_3 1_555 1_555
C51_3 N6_3 1_555 1_555
H75_3 C51_3 1_555 1_555
H76_3 C51_3 1_555 1_555
C52_3 C51_3 1_555 1_555
H77_3 C52_3 1_555 1_555
H78_3 C52_3 1_555 1_555
C53_3 C52_3 1_555 1_555
H79_3 C53_3 1_555 1_555
H80_3 C53_3 1_555 1_555
C54_3 H81_3 1_555 1_555
H82_3 C54_3 1_555 1_555
H83_3 C54_3 1_555 1_555
C55_3 C50_3 1_555 1_555
H84_3 C55_3 1_555 1_555
H85_3 C55_3 1_555 1_555
C56_3 C53_3 1_555 1_555
H86_3 C56_3 1_555 1_555
H87_3 C56_3 1_555 1_555
H88_3 C56_3 1_555 1_555
C46_3 C47_3 1_555 1_555
C54_3 C55_3 1_555 1_555
N6_4 C41_4 1_555 1_555
C41_4 H53_4 1_555 1_555
H54_4 C41_4 1_555 1_555
C42_4 C41_4 1_555 1_555
H55_4 C42_4 1_555 1_555
H56_4 C42_4 1_555 1_555
C43_4 N6_4 1_555 1_555
H57_4 C43_4 1_555 1_555
H58_4 C43_4 1_555 1_555
C44_4 C43_4 1_555 1_555
H59_4 C44_4 1_555 1_555
H60_4 C44_4 1_555 1_555
C45_4 C44_4 1_555 1_555
H61_4 C45_4 1_555 1_555
H62_4 C45_4 1_555 1_555
C46_4 H63_4 1_555 1_555
H64_4 C46_4 1_555 1_555
H65_4 C46_4 1_555 1_555
C47_4 C42_4 1_555 1_555
H66_4 C47_4 1_555 1_555
H67_4 C47_4 1_555 1_555
C48_4 C45_4 1_555 1_555
H68_4 C48_4 1_555 1_555
H69_4 C48_4 1_555 1_555
H70_4 C48_4 1_555 1_555
C49_4 N6_4 1_555 1_555
H71_4 C49_4 1_555 1_555
H72_4 C49_4 1_555 1_555
C50_4 C49_4 1_555 1_555
H73_4 C50_4 1_555 1_555
H74_4 C50_4 1_555 1_555
C51_4 N6_4 1_555 1_555
H75_4 C51_4 1_555 1_555
H76_4 C51_4 1_555 1_555
C52_4 C51_4 1_555 1_555
H77_4 C52_4 1_555 1_555
H78_4 C52_4 1_555 1_555
C53_4 C52_4 1_555 1_555
H79_4 C53_4 1_555 1_555
H80_4 C53_4 1_555 1_555
C54_4 H81_4 1_555 1_555
H82_4 C54_4 1_555 1_555
H83_4 C54_4 1_555 1_555
C55_4 C50_4 1_555 1_555
H84_4 C55_4 1_555 1_555
H85_4 C55_4 1_555 1_555
C56_4 C53_4 1_555 1_555
H86_4 C56_4 1_555 1_555
H87_4 C56_4 1_555 1_555
H88_4 C56_4 1_555 1_555
C46_4 C47_4 1_555 1_555
C54_4 C55_4 1_555 1_555
N6_5 C41_5 1_555 1_555
C41_5 H53_5 1_555 1_555
H54_5 C41_5 1_555 1_555
C42_5 C41_5 1_555 1_555
H55_5 C42_5 1_555 1_555
H56_5 C42_5 1_555 1_555
C43_5 N6_5 1_555 1_555
H57_5 C43_5 1_555 1_555
H58_5 C43_5 1_555 1_555
C44_5 C43_5 1_555 1_555
H59_5 C44_5 1_555 1_555
H60_5 C44_5 1_555 1_555
C45_5 C44_5 1_555 1_555
H61_5 C45_5 1_555 1_555
H62_5 C45_5 1_555 1_555
C46_5 H63_5 1_555 1_555
H64_5 C46_5 1_555 1_555
H65_5 C46_5 1_555 1_555
C47_5 C42_5 1_555 1_555
H66_5 C47_5 1_555 1_555
H67_5 C47_5 1_555 1_555
C48_5 C45_5 1_555 1_555
H68_5 C48_5 1_555 1_555
H69_5 C48_5 1_555 1_555
H70_5 C48_5 1_555 1_555
C49_5 N6_5 1_555 1_555
H71_5 C49_5 1_555 1_555
H72_5 C49_5 1_555 1_555
C50_5 C49_5 1_555 1_555
H73_5 C50_5 1_555 1_555
H74_5 C50_5 1_555 1_555
C51_5 N6_5 1_555 1_555
H75_5 C51_5 1_555 1_555
H76_5 C51_5 1_555 1_555
C52_5 C51_5 1_555 1_555
H77_5 C52_5 1_555 1_555
H78_5 C52_5 1_555 1_555
C53_5 C52_5 1_555 1_555
H79_5 C53_5 1_555 1_555
H80_5 C53_5 1_555 1_555
C55_5 C50_5 1_555 1_555
H85_5 C55_5 1_555 1_555
C56_5 C53_5 1_555 1_555
H86_5 C56_5 1_555 1_555
H87_5 C56_5 1_555 1_555
H88_5 C56_5 1_555 1_555
C46_5 C47_5 1_555 1_555
C54_5 H81_5 1_555 1_555
H83_5 C54_5 1_555 1_555
C54_6 H81_6 1_555 1_555
H83_6 C54_6 1_555 1_555
N6_6 C41_6 1_555 1_555
C41_6 H53_6 1_555 1_555
H54_6 C41_6 1_555 1_555
C42_6 C41_6 1_555 1_555
H55_6 C42_6 1_555 1_555
H56_6 C42_6 1_555 1_555
C43_6 N6_6 1_555 1_555
H57_6 C43_6 1_555 1_555
H58_6 C43_6 1_555 1_555
C44_6 C43_6 1_555 1_555
H59_6 C44_6 1_555 1_555
H60_6 C44_6 1_555 1_555
C45_6 C44_6 1_555 1_555
H61_6 C45_6 1_555 1_555
H62_6 C45_6 1_555 1_555
C46_6 H63_6 1_555 1_555
H64_6 C46_6 1_555 1_555
H65_6 C46_6 1_555 1_555
C47_6 C42_6 1_555 1_555
H66_6 C47_6 1_555 1_555
H67_6 C47_6 1_555 1_555
C48_6 C45_6 1_555 1_555
H68_6 C48_6 1_555 1_555
H69_6 C48_6 1_555 1_555
H70_6 C48_6 1_555 1_555
C49_6 N6_6 1_555 1_555
H71_6 C49_6 1_555 1_555
H72_6 C49_6 1_555 1_555
C50_6 C49_6 1_555 1_555
H73_6 C50_6 1_555 1_555
H74_6 C50_6 1_555 1_555
C51_6 N6_6 1_555 1_555
H75_6 C51_6 1_555 1_555
H76_6 C51_6 1_555 1_555
C52_6 C51_6 1_555 1_555
H77_6 C52_6 1_555 1_555
H78_6 C52_6 1_555 1_555
C53_6 C52_6 1_555 1_555
H79_6 C53_6 1_555 1_555
H80_6 C53_6 1_555 1_555
C55_6 C50_6 1_555 1_555
H85_6 C55_6 1_555 1_555
C56_6 C53_6 1_555 1_555
H86_6 C56_6 1_555 1_555
H87_6 C56_6 1_555 1_555
H88_6 C56_6 1_555 1_555
C46_6 C47_6 1_555 1_555
C46_7 H63_7 1_555 1_555
H65_7 C46_7 1_555 1_555
N6_7 C41_7 1_555 1_555
C41_7 H53_7 1_555 1_555
H54_7 C41_7 1_555 1_555
C42_7 C41_7 1_555 1_555
H55_7 C42_7 1_555 1_555
H56_7 C42_7 1_555 1_555
C43_7 N6_7 1_555 1_555
H57_7 C43_7 1_555 1_555
H58_7 C43_7 1_555 1_555
C44_7 C43_7 1_555 1_555
H59_7 C44_7 1_555 1_555
H60_7 C44_7 1_555 1_555
C45_7 C44_7 1_555 1_555
H61_7 C45_7 1_555 1_555
H62_7 C45_7 1_555 1_555
C47_7 C42_7 1_555 1_555
H67_7 C47_7 1_555 1_555
C48_7 C45_7 1_555 1_555
H68_7 C48_7 1_555 1_555
H69_7 C48_7 1_555 1_555
H70_7 C48_7 1_555 1_555
C49_7 N6_7 1_555 1_555
H71_7 C49_7 1_555 1_555
H72_7 C49_7 1_555 1_555
C50_7 C49_7 1_555 1_555
H73_7 C50_7 1_555 1_555
H74_7 C50_7 1_555 1_555
C51_7 N6_7 1_555 1_555
H75_7 C51_7 1_555 1_555
H76_7 C51_7 1_555 1_555
C52_7 C51_7 1_555 1_555
H77_7 C52_7 1_555 1_555
H78_7 C52_7 1_555 1_555
C53_7 C52_7 1_555 1_555
H79_7 C53_7 1_555 1_555
H80_7 C53_7 1_555 1_555
C54_7 H81_7 1_555 1_555
H82_7 C54_7 1_555 1_555
H83_7 C54_7 1_555 1_555
C55_7 C50_7 1_555 1_555
H84_7 C55_7 1_555 1_555
H85_7 C55_7 1_555 1_555
C56_7 C53_7 1_555 1_555
H86_7 C56_7 1_555 1_555
H87_7 C56_7 1_555 1_555
H88_7 C56_7 1_555 1_555
C54_7 C55_7 1_555 1_555
N6_8 C41_8 1_555 1_555
C41_8 H53_8 1_555 1_555
H54_8 C41_8 1_555 1_555
C42_8 C41_8 1_555 1_555
H55_8 C42_8 1_555 1_555
H56_8 C42_8 1_555 1_555
C43_8 N6_8 1_555 1_555
H57_8 C43_8 1_555 1_555
H58_8 C43_8 1_555 1_555
C44_8 C43_8 1_555 1_555
H59_8 C44_8 1_555 1_555
H60_8 C44_8 1_555 1_555
C45_8 C44_8 1_555 1_555
H61_8 C45_8 1_555 1_555
H62_8 C45_8 1_555 1_555
C47_8 C42_8 1_555 1_555
H67_8 C47_8 1_555 1_555
C48_8 C45_8 1_555 1_555
H68_8 C48_8 1_555 1_555
H69_8 C48_8 1_555 1_555
H70_8 C48_8 1_555 1_555
C49_8 N6_8 1_555 1_555
H71_8 C49_8 1_555 1_555
H72_8 C49_8 1_555 1_555
C50_8 C49_8 1_555 1_555
H73_8 C50_8 1_555 1_555
H74_8 C50_8 1_555 1_555
C51_8 N6_8 1_555 1_555
H75_8 C51_8 1_555 1_555
H76_8 C51_8 1_555 1_555
C52_8 C51_8 1_555 1_555
H77_8 C52_8 1_555 1_555
H78_8 C52_8 1_555 1_555
C53_8 C52_8 1_555 1_555
H79_8 C53_8 1_555 1_555
H80_8 C53_8 1_555 1_555
C54_8 H81_8 1_555 1_555
H82_8 C54_8 1_555 1_555
H83_8 C54_8 1_555 1_555
C55_8 C50_8 1_555 1_555
H84_8 C55_8 1_555 1_555
H85_8 C55_8 1_555 1_555
C56_8 C53_8 1_555 1_555
H86_8 C56_8 1_555 1_555
H87_8 C56_8 1_555 1_555
H88_8 C56_8 1_555 1_555
C54_8 C55_8 1_555 1_555
C46_8 H63_8 1_555 1_555
H65_8 C46_8 1_555 1_555
N6_9 C41_9 1_555 1_555
C41_9 H53_9 1_555 1_555
H54_9 C41_9 1_555 1_555
C42_9 C41_9 1_555 1_555
H55_9 C42_9 1_555 1_555
H56_9 C42_9 1_555 1_555
C43_9 N6_9 1_555 1_555
H57_9 C43_9 1_555 1_555
H58_9 C43_9 1_555 1_555
C44_9 C43_9 1_555 1_555
H59_9 C44_9 1_555 1_555
H60_9 C44_9 1_555 1_555
C45_9 C44_9 1_555 1_555
H61_9 C45_9 1_555 1_555
H62_9 C45_9 1_555 1_555
C46_9 H63_9 1_555 1_555
H64_9 C46_9 1_555 1_555
H65_9 C46_9 1_555 1_555
C47_9 C42_9 1_555 1_555
H66_9 C47_9 1_555 1_555
H67_9 C47_9 1_555 1_555
C48_9 C45_9 1_555 1_555
H68_9 C48_9 1_555 1_555
H69_9 C48_9 1_555 1_555
H70_9 C48_9 1_555 1_555
C49_9 N6_9 1_555 1_555
H71_9 C49_9 1_555 1_555
H72_9 C49_9 1_555 1_555
C50_9 C49_9 1_555 1_555
H73_9 C50_9 1_555 1_555
H74_9 C50_9 1_555 1_555
C51_9 N6_9 1_555 1_555
H75_9 C51_9 1_555 1_555
H76_9 C51_9 1_555 1_555
C52_9 C51_9 1_555 1_555
H77_9 C52_9 1_555 1_555
H78_9 C52_9 1_555 1_555
C53_9 C52_9 1_555 1_555
H79_9 C53_9 1_555 1_555
H80_9 C53_9 1_555 1_555
C54_9 H81_9 1_555 1_555
H82_9 C54_9 1_555 1_555
H83_9 C54_9 1_555 1_555
C55_9 C50_9 1_555 1_555
H84_9 C55_9 1_555 1_555
H85_9 C55_9 1_555 1_555
C56_9 C53_9 1_555 1_555
H86_9 C56_9 1_555 1_555
H87_9 C56_9 1_555 1_555
H88_9 C56_9 1_555 1_555
C46_9 C47_9 1_555 1_555
C54_9 C55_9 1_555 1_555
N6_10 C41_10 1_555 1_555
C41_10 H53_10 1_555 1_555
H54_10 C41_10 1_555 1_555
C42_10 C41_10 1_555 1_555
H55_10 C42_10 1_555 1_555
H56_10 C42_10 1_555 1_555
C43_10 N6_10 1_555 1_555
H57_10 C43_10 1_555 1_555
H58_10 C43_10 1_555 1_555
C44_10 C43_10 1_555 1_555
H59_10 C44_10 1_555 1_555
H60_10 C44_10 1_555 1_555
C45_10 C44_10 1_555 1_555
H61_10 C45_10 1_555 1_555
H62_10 C45_10 1_555 1_555
C46_10 H63_10 1_555 1_555
H64_10 C46_10 1_555 1_555
H65_10 C46_10 1_555 1_555
C47_10 C42_10 1_555 1_555
H66_10 C47_10 1_555 1_555
H67_10 C47_10 1_555 1_555
C48_10 C45_10 1_555 1_555
H68_10 C48_10 1_555 1_555
H69_10 C48_10 1_555 1_555
H70_10 C48_10 1_555 1_555
C49_10 N6_10 1_555 1_555
H71_10 C49_10 1_555 1_555
H72_10 C49_10 1_555 1_555
C50_10 C49_10 1_555 1_555
H73_10 C50_10 1_555 1_555
H74_10 C50_10 1_555 1_555
C51_10 N6_10 1_555 1_555
H75_10 C51_10 1_555 1_555
H76_10 C51_10 1_555 1_555
C52_10 C51_10 1_555 1_555
H77_10 C52_10 1_555 1_555
H78_10 C52_10 1_555 1_555
C53_10 C52_10 1_555 1_555
H79_10 C53_10 1_555 1_555
H80_10 C53_10 1_555 1_555
C54_10 H81_10 1_555 1_555
H82_10 C54_10 1_555 1_555
H83_10 C54_10 1_555 1_555
C55_10 C50_10 1_555 1_555
H84_10 C55_10 1_555 1_555
H85_10 C55_10 1_555 1_555
C56_10 C53_10 1_555 1_555
H86_10 C56_10 1_555 1_555
H87_10 C56_10 1_555 1_555
H88_10 C56_10 1_555 1_555
C46_10 C47_10 1_555 1_555
C54_10 C55_10 1_555 1_555
N6_11 C41_11 1_555 1_555
C41_11 H53_11 1_555 1_555
H54_11 C41_11 1_555 1_555
C42_11 C41_11 1_555 1_555
H55_11 C42_11 1_555 1_555
H56_11 C42_11 1_555 1_555
C43_11 N6_11 1_555 1_555
H57_11 C43_11 1_555 1_555
H58_11 C43_11 1_555 1_555
C44_11 C43_11 1_555 1_555
H59_11 C44_11 1_555 1_555
H60_11 C44_11 1_555 1_555
C45_11 C44_11 1_555 1_555
H61_11 C45_11 1_555 1_555
H62_11 C45_11 1_555 1_555
C46_11 H63_11 1_555 1_555
H64_11 C46_11 1_555 1_555
H65_11 C46_11 1_555 1_555
C47_11 C42_11 1_555 1_555
H66_11 C47_11 1_555 1_555
H67_11 C47_11 1_555 1_555
C48_11 C45_11 1_555 1_555
H68_11 C48_11 1_555 1_555
H69_11 C48_11 1_555 1_555
H70_11 C48_11 1_555 1_555
C49_11 N6_11 1_555 1_555
H71_11 C49_11 1_555 1_555
H72_11 C49_11 1_555 1_555
C50_11 C49_11 1_555 1_555
H73_11 C50_11 1_555 1_555
H74_11 C50_11 1_555 1_555
C51_11 N6_11 1_555 1_555
H75_11 C51_11 1_555 1_555
H76_11 C51_11 1_555 1_555
C52_11 C51_11 1_555 1_555
H77_11 C52_11 1_555 1_555
H78_11 C52_11 1_555 1_555
C53_11 C52_11 1_555 1_555
H79_11 C53_11 1_555 1_555
H80_11 C53_11 1_555 1_555
C54_11 H81_11 1_555 1_555
H82_11 C54_11 1_555 1_555
H83_11 C54_11 1_555 1_555
C55_11 C50_11 1_555 1_555
H84_11 C55_11 1_555 1_555
H85_11 C55_11 1_555 1_555
C56_11 C53_11 1_555 1_555
H86_11 C56_11 1_555 1_555
H87_11 C56_11 1_555 1_555
H88_11 C56_11 1_555 1_555
C46_11 C47_11 1_555 1_555
C54_11 C55_11 1_555 1_555
N6_12 C41_12 1_555 1_555
C41_12 H53_12 1_555 1_555
H54_12 C41_12 1_555 1_555
C42_12 C41_12 1_555 1_555
H55_12 C42_12 1_555 1_555
H56_12 C42_12 1_555 1_555
C43_12 N6_12 1_555 1_555
H57_12 C43_12 1_555 1_555
H58_12 C43_12 1_555 1_555
C44_12 C43_12 1_555 1_555
H59_12 C44_12 1_555 1_555
H60_12 C44_12 1_555 1_555
C45_12 C44_12 1_555 1_555
H61_12 C45_12 1_555 1_555
H62_12 C45_12 1_555 1_555
C46_12 H63_12 1_555 1_555
H64_12 C46_12 1_555 1_555
H65_12 C46_12 1_555 1_555
C47_12 C42_12 1_555 1_555
H66_12 C47_12 1_555 1_555
H67_12 C47_12 1_555 1_555
C48_12 C45_12 1_555 1_555
H68_12 C48_12 1_555 1_555
H69_12 C48_12 1_555 1_555
H70_12 C48_12 1_555 1_555
C49_12 N6_12 1_555 1_555
H71_12 C49_12 1_555 1_555
H72_12 C49_12 1_555 1_555
C50_12 C49_12 1_555 1_555
H73_12 C50_12 1_555 1_555
H74_12 C50_12 1_555 1_555
C51_12 N6_12 1_555 1_555
H75_12 C51_12 1_555 1_555
H76_12 C51_12 1_555 1_555
C52_12 C51_12 1_555 1_555
H77_12 C52_12 1_555 1_555
H78_12 C52_12 1_555 1_555
C53_12 C52_12 1_555 1_555
H79_12 C53_12 1_555 1_555
H80_12 C53_12 1_555 1_555
C54_12 H81_12 1_555 1_555
H82_12 C54_12 1_555 1_555
H83_12 C54_12 1_555 1_555
C55_12 C50_12 1_555 1_555
H84_12 C55_12 1_555 1_555
H85_12 C55_12 1_555 1_555
C56_12 C53_12 1_555 1_555
H86_12 C56_12 1_555 1_555
H87_12 C56_12 1_555 1_555
H88_12 C56_12 1_555 1_555
C46_12 C47_12 1_555 1_555
C54_12 C55_12 1_555 1_555
C54_13 H81_13 1_555 1_555
H83_13 C54_13 1_555 1_555
N6_13 C41_13 1_555 1_555
C41_13 H53_13 1_555 1_555
H54_13 C41_13 1_555 1_555
C42_13 C41_13 1_555 1_555
H55_13 C42_13 1_555 1_555
H56_13 C42_13 1_555 1_555
C43_13 N6_13 1_555 1_555
H57_13 C43_13 1_555 1_555
H58_13 C43_13 1_555 1_555
C44_13 C43_13 1_555 1_555
H59_13 C44_13 1_555 1_555
H60_13 C44_13 1_555 1_555
C45_13 C44_13 1_555 1_555
H61_13 C45_13 1_555 1_555
H62_13 C45_13 1_555 1_555
C46_13 H63_13 1_555 1_555
H64_13 C46_13 1_555 1_555
H65_13 C46_13 1_555 1_555
C47_13 C42_13 1_555 1_555
H66_13 C47_13 1_555 1_555
H67_13 C47_13 1_555 1_555
C48_13 C45_13 1_555 1_555
H68_13 C48_13 1_555 1_555
H69_13 C48_13 1_555 1_555
H70_13 C48_13 1_555 1_555
C49_13 N6_13 1_555 1_555
H71_13 C49_13 1_555 1_555
H72_13 C49_13 1_555 1_555
C50_13 C49_13 1_555 1_555
H73_13 C50_13 1_555 1_555
H74_13 C50_13 1_555 1_555
C51_13 N6_13 1_555 1_555
H75_13 C51_13 1_555 1_555
H76_13 C51_13 1_555 1_555
C52_13 C51_13 1_555 1_555
H77_13 C52_13 1_555 1_555
H78_13 C52_13 1_555 1_555
C53_13 C52_13 1_555 1_555
H79_13 C53_13 1_555 1_555
H80_13 C53_13 1_555 1_555
C55_13 C50_13 1_555 1_555
H85_13 C55_13 1_555 1_555
C56_13 C53_13 1_555 1_555
H86_13 C56_13 1_555 1_555
H87_13 C56_13 1_555 1_555
H88_13 C56_13 1_555 1_555
C46_13 C47_13 1_555 1_555
N6_14 C41_14 1_555 1_555
C41_14 H53_14 1_555 1_555
H54_14 C41_14 1_555 1_555
C42_14 C41_14 1_555 1_555
H55_14 C42_14 1_555 1_555
H56_14 C42_14 1_555 1_555
C43_14 N6_14 1_555 1_555
H57_14 C43_14 1_555 1_555
H58_14 C43_14 1_555 1_555
C44_14 C43_14 1_555 1_555
H59_14 C44_14 1_555 1_555
H60_14 C44_14 1_555 1_555
C45_14 C44_14 1_555 1_555
H61_14 C45_14 1_555 1_555
H62_14 C45_14 1_555 1_555
C46_14 H63_14 1_555 1_555
H64_14 C46_14 1_555 1_555
H65_14 C46_14 1_555 1_555
C47_14 C42_14 1_555 1_555
H66_14 C47_14 1_555 1_555
H67_14 C47_14 1_555 1_555
C48_14 C45_14 1_555 1_555
H68_14 C48_14 1_555 1_555
H69_14 C48_14 1_555 1_555
H70_14 C48_14 1_555 1_555
C49_14 N6_14 1_555 1_555
H71_14 C49_14 1_555 1_555
H72_14 C49_14 1_555 1_555
C50_14 C49_14 1_555 1_555
H73_14 C50_14 1_555 1_555
H74_14 C50_14 1_555 1_555
C51_14 N6_14 1_555 1_555
H75_14 C51_14 1_555 1_555
H76_14 C51_14 1_555 1_555
C52_14 C51_14 1_555 1_555
H77_14 C52_14 1_555 1_555
H78_14 C52_14 1_555 1_555
C53_14 C52_14 1_555 1_555
H79_14 C53_14 1_555 1_555
H80_14 C53_14 1_555 1_555
C55_14 C50_14 1_555 1_555
H85_14 C55_14 1_555 1_555
C56_14 C53_14 1_555 1_555
H86_14 C56_14 1_555 1_555
H87_14 C56_14 1_555 1_555
H88_14 C56_14 1_555 1_555
C46_14 C47_14 1_555 1_555
C54_14 H81_14 1_555 1_555
H83_14 C54_14 1_555 1_555
N6_15 C41_15 1_555 1_555
C41_15 H53_15 1_555 1_555
H54_15 C41_15 1_555 1_555
C42_15 C41_15 1_555 1_555
H55_15 C42_15 1_555 1_555
H56_15 C42_15 1_555 1_555
C43_15 N6_15 1_555 1_555
H57_15 C43_15 1_555 1_555
H58_15 C43_15 1_555 1_555
C44_15 C43_15 1_555 1_555
H59_15 C44_15 1_555 1_555
H60_15 C44_15 1_555 1_555
C45_15 C44_15 1_555 1_555
H61_15 C45_15 1_555 1_555
H62_15 C45_15 1_555 1_555
C47_15 C42_15 1_555 1_555
H67_15 C47_15 1_555 1_555
C48_15 C45_15 1_555 1_555
H68_15 C48_15 1_555 1_555
H69_15 C48_15 1_555 1_555
H70_15 C48_15 1_555 1_555
C49_15 N6_15 1_555 1_555
H71_15 C49_15 1_555 1_555
H72_15 C49_15 1_555 1_555
C50_15 C49_15 1_555 1_555
H73_15 C50_15 1_555 1_555
H74_15 C50_15 1_555 1_555
C51_15 N6_15 1_555 1_555
H75_15 C51_15 1_555 1_555
H76_15 C51_15 1_555 1_555
C52_15 C51_15 1_555 1_555
H77_15 C52_15 1_555 1_555
H78_15 C52_15 1_555 1_555
C53_15 C52_15 1_555 1_555
H79_15 C53_15 1_555 1_555
H80_15 C53_15 1_555 1_555
C54_15 H81_15 1_555 1_555
H82_15 C54_15 1_555 1_555
H83_15 C54_15 1_555 1_555
C55_15 C50_15 1_555 1_555
H84_15 C55_15 1_555 1_555
H85_15 C55_15 1_555 1_555
C56_15 C53_15 1_555 1_555
H86_15 C56_15 1_555 1_555
H87_15 C56_15 1_555 1_555
H88_15 C56_15 1_555 1_555
C54_15 C55_15 1_555 1_555
C46_15 H63_15 1_555 1_555
H65_15 C46_15 1_555 1_555
C46_16 H63_16 1_555 1_555
H65_16 C46_16 1_555 1_555
N6_16 C41_16 1_555 1_555
C41_16 H53_16 1_555 1_555
H54_16 C41_16 1_555 1_555
C42_16 C41_16 1_555 1_555
H55_16 C42_16 1_555 1_555
H56_16 C42_16 1_555 1_555
C43_16 N6_16 1_555 1_555
H57_16 C43_16 1_555 1_555
H58_16 C43_16 1_555 1_555
C44_16 C43_16 1_555 1_555
H59_16 C44_16 1_555 1_555
H60_16 C44_16 1_555 1_555
C45_16 C44_16 1_555 1_555
H61_16 C45_16 1_555 1_555
H62_16 C45_16 1_555 1_555
C47_16 C42_16 1_555 1_555
H67_16 C47_16 1_555 1_555
C48_16 C45_16 1_555 1_555
H68_16 C48_16 1_555 1_555
H69_16 C48_16 1_555 1_555
H70_16 C48_16 1_555 1_555
C49_16 N6_16 1_555 1_555
H71_16 C49_16 1_555 1_555
H72_16 C49_16 1_555 1_555
C50_16 C49_16 1_555 1_555
H73_16 C50_16 1_555 1_555
H74_16 C50_16 1_555 1_555
C51_16 N6_16 1_555 1_555
H75_16 C51_16 1_555 1_555
H76_16 C51_16 1_555 1_555
C52_16 C51_16 1_555 1_555
H77_16 C52_16 1_555 1_555
H78_16 C52_16 1_555 1_555
C53_16 C52_16 1_555 1_555
H79_16 C53_16 1_555 1_555
H80_16 C53_16 1_555 1_555
C54_16 H81_16 1_555 1_555
H82_16 C54_16 1_555 1_555
H83_16 C54_16 1_555 1_555
C55_16 C50_16 1_555 1_555
H84_16 C55_16 1_555 1_555
H85_16 C55_16 1_555 1_555
C56_16 C53_16 1_555 1_555
H86_16 C56_16 1_555 1_555
H87_16 C56_16 1_555 1_555
H88_16 C56_16 1_555 1_555
C54_16 C55_16 1_555 1_555

#END
