
###############################################################################
#
# This file contains modified crystal structure data generated from the
# MOF subset of the Cambridge Structural Database (CSD) v543 
# hosted by the Cambridge Crystallographic Data Centre (CCDC).
#
# This work is licensed under the Creative Commons
# Attribution-NonCommercial-ShareAlike 4.0 International License.
# To view a copy of this license, visit
# http://creativecommons.org/licenses/by-nc-sa/4.0/
# or send a letter to
# Creative Commons, PO Box 1866, Mountain View, CA 94042, USA.
#
# CIF created using the CSD Python API on 29 September 2022
# The structure has been converted into the P1 space group
# The structure has a 3D framework
# The original CSD entry MAWFIC is in the orthorhombic crystal system
# The framework has been calculated to contain at least 10.0% void space
# The void calculation uses a probe of radius 1.32A, grid spacing 0.4
# H atom positions have been added when not included in the experimental data
#
###############################################################################

data_MAWFIC
_chemical_formula_moiety         '(C416 H784 Mo96 N38 O352 P8 Zn32 2-)n'
_symmetry_cell_setting           triclinic
_symmetry_space_group_name_H-M   'P 1'
_symmetry_Int_Tables_number      1
_space_group_name_Hall           'P 1'
loop_
_symmetry_equiv_pos_site_id
_symmetry_equiv_pos_as_xyz
1 x,y,z
_cell_length_a                   25.686(5)
_cell_length_b                   31.770(5)
_cell_length_c                   25.129(5)
_cell_angle_alpha                90
_cell_angle_beta                 90
_cell_angle_gamma                90
_cell_volume                     20506.4
loop_
_atom_site_label
_atom_site_type_symbol
_atom_site_fract_x
_atom_site_fract_y
_atom_site_fract_z
C1 C 0.125(3) 0.164(2) 0.139(3)
C2 C 0.0062(15) 0.2470(11) 0.3039(14)
H1 H 0.0355 0.2652 0.2959
C3 C 0.013(2) 0.2309(16) 0.357(2)
H4 H 0.0357 0.2063 0.3560
C4 C 0.0360(18) 0.2627(15) 0.3865(19)
H5 H 0.0529 0.2844 0.3656
H6 H 0.0582 0.2528 0.4151
N1 N -0.0000 0.2099(16) 0.2500
C6 C 0.0433(17) 0.1817(15) 0.232(2)
H7 H 0.0293 0.1642 0.2039
H8 H 0.0510 0.1630 0.2617
C7 C 0.105(2) 0.2020(19) 0.209(2)
H9 H 0.1009 0.2229 0.1808
H10 H 0.1266 0.2127 0.2370
C8 C 0.124(3) 0.153(3) 0.185(3)
H12 H 0.0247 0.2645 0.1960
H13 H 0.0200 0.2229 0.1281
C13 C 0.0271(19) 0.2751(15) 0.0939(19)
H101 H 0.161903 0.143064 0.199806
H102 H 0.0954504 0.1284 0.192692
H109 H 0.152935 0.189514 0.134292
H110 H 0.136484 0.137552 0.114057
H111 H 0.0864827 0.174851 0.127178
H112 H 0.0443502 0.248176 0.0736894
H113 H 0.0261843 0.301925 0.0669379
H114 H 0.0502762 0.282963 0.1288
H2 H 0.9753 0.2645 0.3040
H3 H 0.9800 0.2229 0.3719
C5 C 0.9729(19) 0.2751(15) 0.4061(19)
N1_2 N 1.0000 0.2099(16) 0.2500
C9 C 0.875(3) 0.164(2) 0.361(3)
C10 C 0.9938(15) 0.2470(11) 0.1961(14)
H11 H 0.9645 0.2652 0.2041
C11 C 0.987(2) 0.2309(16) 0.143(2)
H14 H 0.9643 0.2063 0.1440
C12 C 0.9640(18) 0.2627(15) 0.1135(19)
H15 H 0.9471 0.2844 0.1344
H16 H 0.9418 0.2528 0.0849
C14 C 0.9567(17) 0.1817(15) 0.268(2)
H17 H 0.9707 0.1642 0.2961
H18 H 0.9490 0.1630 0.2383
C15 C 0.895(2) 0.2020(19) 0.291(2)
H19 H 0.8991 0.2229 0.3192
H20 H 0.8734 0.2127 0.2630
C16 C 0.876(3) 0.153(3) 0.315(3)
H103 H 0.95565 0.248176 0.426311
H104 H 0.973816 0.301925 0.433062
H105 H 0.949724 0.282963 0.3712
H106 H 0.847065 0.189514 0.365708
H107 H 0.863516 0.137552 0.385943
H108 H 0.913517 0.174851 0.372822
H115 H 0.838097 0.143064 0.300194
H116 H 0.90455 0.1284 0.307308
C1_2 C 0.375(3) 0.336(2) 0.639(3)
C2_2 C 0.4938(15) 0.2530(11) 0.8039(14)
H1_2 H 0.4645 0.2348 0.7959
H2_2 H 0.5247 0.2355 0.8040
C3_2 C 0.487(2) 0.2691(16) 0.857(2)
H3_2 H 0.5200 0.2771 0.8719
H4_2 H 0.4643 0.2937 0.8560
C4_2 C 0.4640(18) 0.2373(15) 0.8865(19)
H5_2 H 0.4471 0.2156 0.8656
H6_2 H 0.4418 0.2472 0.9151
C5_2 C 0.5271(19) 0.2249(15) 0.9061(19)
N1_3 N 0.5000 0.2901(16) 0.7500
C6_2 C 0.4567(17) 0.3183(15) 0.732(2)
H7_2 H 0.4707 0.3358 0.7039
H8_2 H 0.4490 0.3370 0.7617
C7_2 C 0.395(2) 0.2980(19) 0.709(2)
H9_2 H 0.3991 0.2771 0.6808
H10_2 H 0.3734 0.2873 0.7370
C8_2 C 0.376(3) 0.347(3) 0.685(3)
C9_2 C 0.625(3) 0.336(2) 0.861(3)
C10_2 C 0.5062(15) 0.2530(11) 0.6961(14)
H11_2 H 0.5355 0.2348 0.7041
H12_2 H 0.4753 0.2355 0.6960
C11_2 C 0.513(2) 0.2691(16) 0.643(2)
H13_2 H 0.4800 0.2771 0.6281
H14_2 H 0.5357 0.2937 0.6440
C12_2 C 0.5360(18) 0.2373(15) 0.6135(19)
H15_2 H 0.5529 0.2156 0.6344
H16_2 H 0.5582 0.2472 0.5849
C13_2 C 0.4729(19) 0.2249(15) 0.5939(19)
C14_2 C 0.5433(17) 0.3183(15) 0.768(2)
H17_2 H 0.5293 0.3358 0.7961
H18_2 H 0.5510 0.3370 0.7383
C15_2 C 0.605(2) 0.2980(19) 0.791(2)
H19_2 H 0.6009 0.2771 0.8192
H20_2 H 0.6266 0.2873 0.7630
C16_2 C 0.624(3) 0.347(3) 0.815(3)
H101_2 H 0.338097 0.356936 0.699806
H102_2 H 0.40455 0.3716 0.692692
H103_2 H 0.54435 0.251824 0.926311
H104_2 H 0.526184 0.198075 0.933062
H105_2 H 0.550276 0.217037 0.8712
H106_2 H 0.652935 0.310486 0.865708
H107_2 H 0.636484 0.362448 0.885943
H108_2 H 0.586483 0.325149 0.872822
H109_2 H 0.347065 0.310486 0.634292
H110_2 H 0.363516 0.362448 0.614057
H111_2 H 0.413517 0.325149 0.627178
H112_2 H 0.45565 0.251824 0.573689
H113_2 H 0.473816 0.198075 0.566938
H114_2 H 0.449724 0.217037 0.6288
H115_2 H 0.661903 0.356936 0.800194
H116_2 H 0.59545 0.3716 0.807308
H2_3 H 0.0247 0.7355 0.6960
H3_3 H 0.0200 0.7771 0.6281
C5_3 C 0.0271(19) 0.7249(15) 0.5939(19)
N1_4 N -0.0000 0.7901(16) 0.7500
C9_3 C 0.125(3) 0.836(2) 0.639(3)
C10_3 C 0.0062(15) 0.7530(11) 0.8039(14)
H11_3 H 0.0355 0.7348 0.7959
C11_3 C 0.013(2) 0.7691(16) 0.857(2)
H14_3 H 0.0357 0.7937 0.8560
C12_3 C 0.0360(18) 0.7373(15) 0.8865(19)
H15_3 H 0.0529 0.7156 0.8656
H16_3 H 0.0582 0.7472 0.9151
C14_3 C 0.0433(17) 0.8183(15) 0.732(2)
H17_3 H 0.0293 0.8358 0.7039
H18_3 H 0.0510 0.8370 0.7617
C15_3 C 0.105(2) 0.7980(19) 0.709(2)
H19_3 H 0.1009 0.7771 0.6808
H20_3 H 0.1266 0.7873 0.7370
C16_3 C 0.124(3) 0.847(3) 0.685(3)
H103_3 H 0.0443502 0.751824 0.573689
H104_3 H 0.0261843 0.698075 0.566938
H105_3 H 0.0502762 0.717037 0.6288
H106_3 H 0.152935 0.810486 0.634292
H107_3 H 0.136484 0.862448 0.614057
H108_3 H 0.0864827 0.825149 0.627178
H115_3 H 0.161903 0.856936 0.699806
H116_3 H 0.0954504 0.8716 0.692692
C1_3 C 0.875(3) 0.836(2) 0.861(3)
C2_3 C 0.9938(15) 0.7530(11) 0.6961(14)
H1_3 H 0.9645 0.7348 0.7041
C3_3 C 0.987(2) 0.7691(16) 0.643(2)
H4_3 H 0.9643 0.7937 0.6440
C4_3 C 0.9640(18) 0.7373(15) 0.6135(19)
H5_3 H 0.9471 0.7156 0.6344
H6_3 H 0.9418 0.7472 0.5849
N1_5 N 1.0000 0.7901(16) 0.7500
C6_3 C 0.9567(17) 0.8183(15) 0.768(2)
H7_3 H 0.9707 0.8358 0.7961
H8_3 H 0.9490 0.8370 0.7383
C7_3 C 0.895(2) 0.7980(19) 0.791(2)
H9_3 H 0.8991 0.7771 0.8192
H10_3 H 0.8734 0.7873 0.7630
C8_3 C 0.876(3) 0.847(3) 0.815(3)
H12_3 H 0.9753 0.7355 0.8040
H13_3 H 0.9800 0.7771 0.8719
C13_3 C 0.9729(19) 0.7249(15) 0.9061(19)
H101_3 H 0.838097 0.856936 0.800194
H102_3 H 0.90455 0.8716 0.807308
H109_3 H 0.847065 0.810486 0.865708
H110_3 H 0.863516 0.862448 0.885943
H111_3 H 0.913517 0.825149 0.872822
H112_3 H 0.95565 0.751824 0.926311
H113_3 H 0.973816 0.698075 0.933062
H114_3 H 0.949724 0.717037 0.8712
C1_4 C 0.625(3) 0.664(2) 0.361(3)
C2_4 C 0.5062(15) 0.7470(11) 0.1961(14)
H1_4 H 0.5355 0.7652 0.2041
H2_4 H 0.4753 0.7645 0.1960
C3_4 C 0.513(2) 0.7309(16) 0.143(2)
H3_4 H 0.4800 0.7229 0.1281
H4_4 H 0.5357 0.7063 0.1440
C4_4 C 0.5360(18) 0.7627(15) 0.1135(19)
H5_4 H 0.5529 0.7844 0.1344
H6_4 H 0.5582 0.7528 0.0849
C5_4 C 0.4729(19) 0.7751(15) 0.0939(19)
N1_6 N 0.5000 0.7099(16) 0.2500
C6_4 C 0.5433(17) 0.6817(15) 0.268(2)
H7_4 H 0.5293 0.6642 0.2961
H8_4 H 0.5510 0.6630 0.2383
C7_4 C 0.605(2) 0.7020(19) 0.291(2)
H9_4 H 0.6009 0.7229 0.3192
H10_4 H 0.6266 0.7127 0.2630
C8_4 C 0.624(3) 0.653(3) 0.315(3)
C9_4 C 0.375(3) 0.664(2) 0.139(3)
C10_4 C 0.4938(15) 0.7470(11) 0.3039(14)
H11_4 H 0.4645 0.7652 0.2959
H12_4 H 0.5247 0.7645 0.3040
C11_4 C 0.487(2) 0.7309(16) 0.357(2)
H13_4 H 0.5200 0.7229 0.3719
H14_4 H 0.4643 0.7063 0.3560
C12_4 C 0.4640(18) 0.7627(15) 0.3865(19)
H15_4 H 0.4471 0.7844 0.3656
H16_4 H 0.4418 0.7528 0.4151
C13_4 C 0.5271(19) 0.7751(15) 0.4061(19)
C14_4 C 0.4567(17) 0.6817(15) 0.232(2)
H17_4 H 0.4707 0.6642 0.2039
H18_4 H 0.4490 0.6630 0.2617
C15_4 C 0.395(2) 0.7020(19) 0.209(2)
H19_4 H 0.3991 0.7229 0.1808
H20_4 H 0.3734 0.7127 0.2370
C16_4 C 0.376(3) 0.653(3) 0.185(3)
H101_4 H 0.661903 0.643064 0.300194
H102_4 H 0.59545 0.6284 0.307308
H103_4 H 0.45565 0.748176 0.0736894
H104_4 H 0.473816 0.801925 0.0669379
H105_4 H 0.449724 0.782963 0.1288
H106_4 H 0.347065 0.689514 0.134292
H107_4 H 0.363516 0.637552 0.114057
H108_4 H 0.413517 0.674851 0.127178
H109_4 H 0.652935 0.689514 0.365708
H110_4 H 0.636484 0.637552 0.385943
H111_4 H 0.586483 0.674851 0.372822
H112_4 H 0.54435 0.748176 0.426311
H113_4 H 0.526184 0.801925 0.433062
H114_4 H 0.550276 0.782963 0.3712
H115_4 H 0.338097 0.643064 0.199806
H116_4 H 0.40455 0.6284 0.192692
Mo1 Mo 0.19570(5) 0.02305(4) 0.40609(5)
Mo2 Mo 0.33500(4) 0.17227(4) 0.33934(5)
Mo3 Mo 0.20759(5) 0.19747(4) 0.36732(5)
Mo4 Mo 0.16164(4) 0.07993(4) 0.52642(5)
Mo5 Mo 0.29985(5) 0.22884(4) 0.45956(5)
Mo6 Mo 0.39511(4) 0.04403(4) 0.46300(5)
Mo7 Mo 0.29508(5) 0.01112(4) 0.38190(5)
Mo8 Mo 0.31215(5) 0.19319(4) 0.55378(5)
Mo9 Mo 0.36471(4) 0.09447(4) 0.56939(5)
Mo10 Mo 0.37327(4) 0.09513(4) 0.34472(5)
Mo11 Mo 0.23416(5) 0.10919(4) 0.59101(5)
Mo12 Mo 0.13532(4) 0.12010(4) 0.40217(5)
P1 P 0.27464(12) 0.11418(10) 0.45043(13)
Zn1 Zn 0.23562(6) 0.09949(5) 0.31447(7)
Zn2 Zn 0.27970(6) 0.01695(5) 0.52239(6)
Zn3 Zn 0.40608(6) 0.15316(5) 0.46173(6)
Zn4 Zn 0.18201(7) 0.18692(5) 0.50137(7)
C17 C 0.2517(6) 0.1063(5) 0.1988(6)
H21 H 0.2746 0.1276 0.2088
C18 C 0.2520(8) 0.0940(6) 0.1478(7)
H22 H 0.2740 0.1070 0.1235
C19 C 0.2189(5) 0.0613(5) 0.1313(6)
C20 C 0.1834(6) 0.0449(6) 0.1700(6)
H23 H 0.1595 0.0242 0.1609
C21 C 0.1856(6) 0.0606(5) 0.2211(7)
H24 H 0.1617 0.0504 0.2457
C22 C 0.2219(6) 0.0416(4) 0.0775(6)
C23 C 0.0817(6) 0.1998(6) 0.5502(8)
H25 H 0.0859 0.1718 0.5603
C24 C 0.0353(7) 0.2210(6) 0.5602(8)
H26 H 0.0082 0.2066 0.5767
C25 C 0.0283(6) 0.2614(5) 0.5469(6)
C26 C 0.0687(5) 0.2824(5) 0.5234(7)
H27 H 0.0662 0.3105 0.5134
C27 C 0.1133(6) 0.2593(5) 0.5153(7)
H28 H 0.1416 0.2735 0.5008
N2 N 0.2199(4) 0.0896(4) 0.2374(5)
N3 N 0.1196(4) 0.2203(4) 0.5259(5)
O1 O 0.3484(3) 0.0416(2) 0.5268(3)
O2 O 0.3056(3) 0.0856(3) 0.6074(3)
O3 O 0.3669(3) 0.1516(3) 0.5778(4)
O4 O 0.2493(3) 0.2115(3) 0.5132(3)
O5 O 0.2769(3) 0.1565(2) 0.4194(3)
O6 O 0.3133(3) 0.0836(3) 0.4231(3)
O7 O 0.2886(3) 0.1237(3) 0.5085(3)
O8 O 0.2196(3) 0.0950(3) 0.4474(3)
O9 O 0.2042(4) 0.1020(3) 0.6490(4)
O10 O 0.0790(4) 0.1343(3) 0.3736(4)
O11 O 0.3296(4) 0.2349(3) 0.5898(4)
O12 O 0.1631(4) 0.2259(4) 0.3331(4)
O13 O 0.4184(3) 0.0695(3) 0.4016(3)
O14 O 0.3683(4) 0.1909(4) 0.2870(4)
O16 O 0.1146(4) 0.0676(4) 0.5718(4)
O17 O 0.3152(4) 0.2786(3) 0.4733(5)
O18 O 0.3408(3) 0.2249(3) 0.3891(4)
O19 O 0.1163(4) 0.1085(3) 0.4704(4)
O21 O 0.2656(3) 0.1637(3) 0.6015(4)
O22 O 0.3556(3) 0.0036(3) 0.4334(4)
O23 O 0.1440(4) 0.0653(3) 0.3796(4)
O24 O 0.2631(4) 0.1919(3) 0.3220(4)
O25 O 0.2356(3) 0.2355(3) 0.4130(4)
O26 O 0.2562(3) 0.0061(3) 0.4493(3)
O27 O 0.2267(3) 0.0560(3) 0.5521(3)
O28 O 0.4013(3) 0.1009(3) 0.4989(3)
O29 O 0.3865(3) 0.1463(3) 0.3864(3)
O30 O 0.3085(3) 0.1173(3) 0.3157(4)
O31 O 0.3555(3) 0.1944(2) 0.4902(3)
O32 O 0.1579(3) 0.0257(3) 0.4794(4)
O33 O 0.1889(3) 0.1382(3) 0.3470(3)
O34 O 0.1640(3) 0.1747(3) 0.4274(4)
O35 O 0.3429(4) 0.0393(3) 0.3375(4)
O36 O 0.2397(3) 0.0445(3) 0.3480(4)
O37 O 0.1813(3) 0.1372(3) 0.5456(4)
O38 O 0.4475(4) 0.0186(3) 0.4856(4)
O39 O 0.4127(4) 0.0770(3) 0.6093(4)
O40 O 0.4178(3) 0.0966(3) 0.2941(3)
O41 O 0.2692(4) 0.0338(3) 0.0634(4)
O42 O 0.1812(4) 0.0334(4) 0.0537(4)
O46 O 0.4742(4) 0.1799(3) 0.4626(4)
O15 O 0.1685(4) 0.9777(3) 0.3833(4)
O20 O 0.2921(4) 0.9631(3) 0.3540(4)
Zn5 Zn 0.27970(6) 0.98305(5) 0.02239(6)
O45 O 0.2692(4) 0.9662(3) 0.5634(4)
C28 C 0.9770(5) 0.2830(5) 0.5576(6)
O43 O 0.9435(4) 0.2641(3) 0.5825(4)
O44 O 0.9742(4) 0.3201(3) 0.5374(4)
Zn6 Zn 0.90608(6) 0.34684(5) 0.53827(6)
Mo1_2 Mo 0.69570(5) 0.47695(4) 0.59391(5)
Mo2_2 Mo 0.83500(4) 0.32773(4) 0.66066(5)
Mo3_2 Mo 0.70759(5) 0.30253(4) 0.63268(5)
Mo4_2 Mo 0.66164(4) 0.42007(4) 0.47358(5)
Mo5_2 Mo 0.79985(5) 0.27116(4) 0.54044(5)
Mo6_2 Mo 0.89511(4) 0.45597(4) 0.53700(5)
Mo7_2 Mo 0.79508(5) 0.48888(4) 0.61810(5)
Mo8_2 Mo 0.81215(5) 0.30681(4) 0.44622(5)
Mo9_2 Mo 0.86471(4) 0.40553(4) 0.43061(5)
Mo10_2 Mo 0.87327(4) 0.40487(4) 0.65528(5)
Mo11_2 Mo 0.73416(5) 0.39081(4) 0.40899(5)
Mo12_2 Mo 0.63532(4) 0.37990(4) 0.59783(5)
P1_2 P 0.77464(12) 0.38582(10) 0.54957(13)
Zn1_2 Zn 0.73562(6) 0.40051(5) 0.68553(7)
Zn2_2 Zn 0.77970(6) 0.48305(5) 0.47761(6)
Zn4_2 Zn 0.68201(7) 0.31308(5) 0.49863(7)
C17_2 C 0.7517(6) 0.3937(5) 0.8012(6)
H21_2 H 0.7746 0.3724 0.7912
C18_2 C 0.7520(8) 0.4060(6) 0.8522(7)
H22_2 H 0.7740 0.3930 0.8765
C19_2 C 0.7189(5) 0.4387(5) 0.8687(6)
C20_2 C 0.6834(6) 0.4551(6) 0.8300(6)
H23_2 H 0.6595 0.4758 0.8391
C21_2 C 0.6856(6) 0.4394(5) 0.7789(7)
H24_2 H 0.6617 0.4496 0.7543
C22_2 C 0.7219(6) 0.4584(4) 0.9225(6)
C23_2 C 0.5817(6) 0.3002(6) 0.4498(8)
H25_2 H 0.5859 0.3282 0.4397
C24_2 C 0.5353(7) 0.2790(6) 0.4398(8)
H26_2 H 0.5082 0.2934 0.4233
C25_2 C 0.5283(6) 0.2386(5) 0.4531(6)
C26_2 C 0.5687(5) 0.2176(5) 0.4766(7)
H27_2 H 0.5662 0.1895 0.4866
C27_2 C 0.6133(6) 0.2407(5) 0.4847(7)
H28_2 H 0.6416 0.2265 0.4992
C28_2 C 0.4770(5) 0.2170(5) 0.4424(6)
N2_2 N 0.7199(4) 0.4104(4) 0.7626(5)
N3_2 N 0.6196(4) 0.2797(4) 0.4741(5)
O1_2 O 0.8484(3) 0.4584(2) 0.4732(3)
O2_2 O 0.8056(3) 0.4144(3) 0.3926(3)
O3_2 O 0.8669(3) 0.3484(3) 0.4222(4)
O4_2 O 0.7493(3) 0.2885(3) 0.4868(3)
O5_2 O 0.7769(3) 0.3435(2) 0.5806(3)
O6_2 O 0.8133(3) 0.4164(3) 0.5769(3)
O7_2 O 0.7886(3) 0.3763(3) 0.4915(3)
O8_2 O 0.7196(3) 0.4050(3) 0.5526(3)
O9_2 O 0.7042(4) 0.3980(3) 0.3510(4)
O10_2 O 0.5790(4) 0.3657(3) 0.6264(4)
O11_2 O 0.8296(4) 0.2651(3) 0.4102(4)
O12_2 O 0.6631(4) 0.2741(4) 0.6669(4)
O13_2 O 0.9184(3) 0.4305(3) 0.5984(3)
O14_2 O 0.8683(4) 0.3091(4) 0.7130(4)
O15_2 O 0.6685(4) 0.5223(3) 0.6167(4)
O16_2 O 0.6146(4) 0.4324(4) 0.4282(4)
O17_2 O 0.8152(4) 0.2214(3) 0.5267(5)
O18_2 O 0.8408(3) 0.2751(3) 0.6109(4)
O19_2 O 0.6163(4) 0.3915(3) 0.5296(4)
O20_2 O 0.7921(4) 0.5369(3) 0.6460(4)
O21_2 O 0.7656(3) 0.3363(3) 0.3985(4)
O22_2 O 0.8556(3) 0.4964(3) 0.5666(4)
O23_2 O 0.6440(4) 0.4347(3) 0.6204(4)
O24_2 O 0.7631(4) 0.3081(3) 0.6780(4)
O25_2 O 0.7356(3) 0.2645(3) 0.5870(4)
O26_2 O 0.7562(3) 0.4939(3) 0.5507(3)
O27_2 O 0.7267(3) 0.4440(3) 0.4479(3)
O28_2 O 0.9013(3) 0.3991(3) 0.5011(3)
O29_2 O 0.8865(3) 0.3537(3) 0.6136(3)
O30_2 O 0.8085(3) 0.3827(3) 0.6843(4)
O31_2 O 0.8555(3) 0.3056(2) 0.5098(3)
O32_2 O 0.6579(3) 0.4743(3) 0.5206(4)
O33_2 O 0.6889(3) 0.3618(3) 0.6530(3)
O34_2 O 0.6640(3) 0.3253(3) 0.5726(4)
O35_2 O 0.8429(4) 0.4607(3) 0.6625(4)
O36_2 O 0.7397(3) 0.4555(3) 0.6520(4)
O37_2 O 0.6813(3) 0.3628(3) 0.4544(4)
O38_2 O 0.9475(4) 0.4814(3) 0.5144(4)
O39_2 O 0.9127(4) 0.4230(3) 0.3907(4)
O40_2 O 0.9178(3) 0.4034(3) 0.7059(3)
O41_2 O 0.7692(4) 0.4662(3) 0.9366(4)
O42_2 O 0.6812(4) 0.4666(4) 0.9463(4)
O43_2 O 0.4435(4) 0.2359(3) 0.4175(4)
Zn5_2 Zn 0.77970(6) 0.51695(5) 0.97761(6)
O45_2 O 0.7692(4) 0.5338(3) 0.4366(4)
Mo1_3 Mo 0.69570(5) 0.52305(4) 0.09391(5)
Mo2_3 Mo 0.83500(4) 0.67227(4) 0.16066(5)
Mo3_3 Mo 0.70759(5) 0.69747(4) 0.13268(5)
Mo5_3 Mo 0.79985(5) 0.72884(4) 0.04044(5)
Mo6_3 Mo 0.89511(4) 0.54403(4) 0.03700(5)
Mo7_3 Mo 0.79508(5) 0.51112(4) 0.11810(5)
Mo10_3 Mo 0.87327(4) 0.59513(4) 0.15528(5)
Mo12_3 Mo 0.63532(4) 0.62010(4) 0.09783(5)
P1_3 P 0.77464(12) 0.61418(10) 0.04957(13)
Zn1_3 Zn 0.73562(6) 0.59949(5) 0.18553(7)
Zn3_2 Zn 0.90608(6) 0.65316(5) 0.03827(6)
C17_3 C 0.7517(6) 0.6063(5) 0.3012(6)
H21_3 H 0.7746 0.6276 0.2912
C18_3 C 0.7520(8) 0.5940(6) 0.3522(7)
H22_3 H 0.7740 0.6070 0.3765
C19_3 C 0.7189(5) 0.5613(5) 0.3687(6)
C20_3 C 0.6834(6) 0.5449(6) 0.3300(6)
H23_3 H 0.6595 0.5242 0.3391
C21_3 C 0.6856(6) 0.5606(5) 0.2789(7)
H24_3 H 0.6617 0.5504 0.2543
C22_3 C 0.7219(6) 0.5416(4) 0.4225(6)
N2_3 N 0.7199(4) 0.5896(4) 0.2626(5)
O5_3 O 0.7769(3) 0.6565(2) 0.0806(3)
O6_3 O 0.8133(3) 0.5836(3) 0.0769(3)
O8_3 O 0.7196(3) 0.5950(3) 0.0526(3)
O10_3 O 0.5790(4) 0.6343(3) 0.1264(4)
O12_3 O 0.6631(4) 0.7259(4) 0.1669(4)
O13_3 O 0.9184(3) 0.5695(3) 0.0984(3)
O14_3 O 0.8683(4) 0.6909(4) 0.2130(4)
O15_3 O 0.6685(4) 0.4777(3) 0.1167(4)
O17_3 O 0.8152(4) 0.7786(3) 0.0267(5)
O18_3 O 0.8408(3) 0.7249(3) 0.1109(4)
O19_3 O 0.6163(4) 0.6085(3) 0.0296(4)
O20_3 O 0.7921(4) 0.4631(3) 0.1460(4)
O22_3 O 0.8556(3) 0.5036(3) 0.0666(4)
O23_3 O 0.6440(4) 0.5653(3) 0.1204(4)
O24_3 O 0.7631(4) 0.6919(3) 0.1780(4)
O25_3 O 0.7356(3) 0.7355(3) 0.0870(4)
O26_3 O 0.7562(3) 0.5061(3) 0.0507(3)
O28_3 O 0.9013(3) 0.6009(3) 0.0011(3)
O29_3 O 0.8865(3) 0.6463(3) 0.1136(3)
O30_3 O 0.8085(3) 0.6173(3) 0.1843(4)
O31_3 O 0.8555(3) 0.6944(2) 0.0098(3)
O32_3 O 0.6579(3) 0.5257(3) 0.0206(4)
O33_3 O 0.6889(3) 0.6382(3) 0.1530(3)
O34_3 O 0.6640(3) 0.6747(3) 0.0726(4)
O35_3 O 0.8429(4) 0.5393(3) 0.1625(4)
O36_3 O 0.7397(3) 0.5445(3) 0.1520(4)
O38_3 O 0.9475(4) 0.5186(3) 0.0144(4)
O40_3 O 0.9178(3) 0.5966(3) 0.2059(3)
O42_3 O 0.6812(4) 0.5334(4) 0.4463(4)
O46_2 O 0.9742(4) 0.6799(3) 0.0374(4)
Mo4_3 Mo 0.66164(4) 0.57993(4) 0.97358(5)
Mo8_3 Mo 0.81215(5) 0.69319(4) 0.94622(5)
Mo9_3 Mo 0.86471(4) 0.59447(4) 0.93061(5)
Mo11_3 Mo 0.73416(5) 0.60919(4) 0.90899(5)
Zn4_3 Zn 0.68201(7) 0.68692(5) 0.99863(7)
C23_3 C 0.5817(6) 0.6998(6) 0.9498(8)
H25_3 H 0.5859 0.6718 0.9397
C24_3 C 0.5353(7) 0.7210(6) 0.9398(8)
H26_3 H 0.5082 0.7066 0.9233
C25_3 C 0.5283(6) 0.7614(5) 0.9531(6)
C26_3 C 0.5687(5) 0.7824(5) 0.9766(7)
H27_3 H 0.5662 0.8105 0.9866
C27_3 C 0.6133(6) 0.7593(5) 0.9847(7)
H28_3 H 0.6416 0.7735 0.9992
C28_3 C 0.4770(5) 0.7830(5) 0.9424(6)
N3_3 N 0.6196(4) 0.7203(4) 0.9741(5)
O1_3 O 0.8484(3) 0.5416(2) 0.9732(3)
O2_3 O 0.8056(3) 0.5856(3) 0.8926(3)
O3_3 O 0.8669(3) 0.6516(3) 0.9222(4)
O4_3 O 0.7493(3) 0.7115(3) 0.9868(3)
O7_3 O 0.7886(3) 0.6237(3) 0.9915(3)
O9_3 O 0.7042(4) 0.6020(3) 0.8510(4)
O11_3 O 0.8296(4) 0.7349(3) 0.9102(4)
O16_3 O 0.6146(4) 0.5676(4) 0.9282(4)
O21_3 O 0.7656(3) 0.6637(3) 0.8985(4)
O27_3 O 0.7267(3) 0.5560(3) 0.9479(3)
O37_3 O 0.6813(3) 0.6372(3) 0.9544(4)
O39_3 O 0.9127(4) 0.5770(3) 0.8907(4)
O43_3 O 0.4435(4) 0.7641(3) 0.9175(4)
O44_2 O 0.4742(4) 0.8201(3) 0.9626(4)
Zn6_2 Zn 0.40608(6) 0.84684(5) 0.96173(6)
O15_4 O 0.1685(4) 0.0223(3) 0.8833(4)
O20_4 O 0.2921(4) 0.0369(3) 0.8540(4)
Mo4_4 Mo 0.16164(4) 0.92007(4) 0.02642(5)
Mo8_4 Mo 0.31215(5) 0.80681(4) 0.05378(5)
Mo9_4 Mo 0.36471(4) 0.90553(4) 0.06939(5)
Mo11_4 Mo 0.23416(5) 0.89081(4) 0.09101(5)
Zn4_4 Zn 0.18201(7) 0.81308(5) 0.00137(7)
C23_4 C 0.0817(6) 0.8002(6) 0.0502(8)
H25_4 H 0.0859 0.8282 0.0603
C24_4 C 0.0353(7) 0.7790(6) 0.0602(8)
H26_4 H 0.0082 0.7934 0.0767
C25_4 C 0.0283(6) 0.7386(5) 0.0469(6)
C26_4 C 0.0687(5) 0.7176(5) 0.0234(7)
H27_4 H 0.0662 0.6895 0.0134
C27_4 C 0.1133(6) 0.7407(5) 0.0153(7)
H28_4 H 0.1416 0.7265 0.0008
N3_4 N 0.1196(4) 0.7797(4) 0.0259(5)
O1_4 O 0.3484(3) 0.9584(2) 0.0268(3)
O2_4 O 0.3056(3) 0.9144(3) 0.1074(3)
O3_4 O 0.3669(3) 0.8484(3) 0.0778(4)
O4_4 O 0.2493(3) 0.7885(3) 0.0132(3)
O7_4 O 0.2886(3) 0.8763(3) 0.0085(3)
O9_4 O 0.2042(4) 0.8980(3) 0.1490(4)
O11_4 O 0.3296(4) 0.7651(3) 0.0898(4)
O16_4 O 0.1146(4) 0.9324(4) 0.0718(4)
O21_4 O 0.2656(3) 0.8363(3) 0.1015(4)
O27_4 O 0.2267(3) 0.9440(3) 0.0521(3)
O37_4 O 0.1813(3) 0.8628(3) 0.0456(4)
O39_4 O 0.4127(4) 0.9230(3) 0.1093(4)
Mo1_4 Mo 0.19570(5) 0.97695(4) 0.90609(5)
Mo2_4 Mo 0.33500(4) 0.82773(4) 0.83934(5)
Mo3_4 Mo 0.20759(5) 0.80253(4) 0.86732(5)
Mo5_4 Mo 0.29985(5) 0.77116(4) 0.95956(5)
Mo6_4 Mo 0.39511(4) 0.95597(4) 0.96300(5)
Mo7_4 Mo 0.29508(5) 0.98888(4) 0.88190(5)
Mo10_4 Mo 0.37327(4) 0.90487(4) 0.84472(5)
Mo12_4 Mo 0.13532(4) 0.87990(4) 0.90217(5)
P1_4 P 0.27464(12) 0.88582(10) 0.95043(13)
Zn1_4 Zn 0.23562(6) 0.90051(5) 0.81447(7)
C17_4 C 0.2517(6) 0.8937(5) 0.6988(6)
H21_4 H 0.2746 0.8724 0.7088
C18_4 C 0.2520(8) 0.9060(6) 0.6478(7)
H22_4 H 0.2740 0.8930 0.6235
C19_4 C 0.2189(5) 0.9387(5) 0.6313(6)
C20_4 C 0.1834(6) 0.9551(6) 0.6700(6)
H23_4 H 0.1595 0.9758 0.6609
C21_4 C 0.1856(6) 0.9394(5) 0.7211(7)
H24_4 H 0.1617 0.9496 0.7457
C22_4 C 0.2219(6) 0.9584(4) 0.5775(6)
N2_4 N 0.2199(4) 0.9104(4) 0.7374(5)
O5_4 O 0.2769(3) 0.8435(2) 0.9194(3)
O6_4 O 0.3133(3) 0.9164(3) 0.9231(3)
O8_4 O 0.2196(3) 0.9050(3) 0.9474(3)
O10_4 O 0.0790(4) 0.8657(3) 0.8736(4)
O12_4 O 0.1631(4) 0.7741(4) 0.8331(4)
O13_4 O 0.4184(3) 0.9305(3) 0.9016(3)
O14_4 O 0.3683(4) 0.8091(4) 0.7870(4)
O17_4 O 0.3152(4) 0.7214(3) 0.9733(5)
O18_4 O 0.3408(3) 0.7751(3) 0.8891(4)
O19_4 O 0.1163(4) 0.8915(3) 0.9704(4)
O22_4 O 0.3556(3) 0.9964(3) 0.9334(4)
O23_4 O 0.1440(4) 0.9347(3) 0.8796(4)
O24_4 O 0.2631(4) 0.8081(3) 0.8220(4)
O25_4 O 0.2356(3) 0.7645(3) 0.9130(4)
O26_4 O 0.2562(3) 0.9939(3) 0.9493(3)
O28_4 O 0.4013(3) 0.8991(3) 0.9989(3)
O29_4 O 0.3865(3) 0.8537(3) 0.8864(3)
O30_4 O 0.3085(3) 0.8827(3) 0.8157(4)
O31_4 O 0.3555(3) 0.8056(2) 0.9902(3)
O32_4 O 0.1579(3) 0.9743(3) 0.9794(4)
O33_4 O 0.1889(3) 0.8618(3) 0.8470(3)
O34_4 O 0.1640(3) 0.8253(3) 0.9274(4)
O35_4 O 0.3429(4) 0.9607(3) 0.8375(4)
O36_4 O 0.2397(3) 0.9555(3) 0.8480(4)
O38_4 O 0.4475(4) 0.9814(3) 0.9856(4)
O40_4 O 0.4178(3) 0.9034(3) 0.7941(3)
O42_4 O 0.1812(4) 0.9666(4) 0.5537(4)
C28_4 C 0.9770(5) 0.7170(5) 0.0576(6)
O43_4 O 0.9435(4) 0.7359(3) 0.0825(4)
Mo4_5 Mo 0.33836(4) 0.42007(4) 0.02642(5)
Mo8_5 Mo 0.18785(5) 0.30681(4) 0.05378(5)
Mo9_5 Mo 0.13529(4) 0.40553(4) 0.06939(5)
Mo11_5 Mo 0.26584(5) 0.39081(4) 0.09101(5)
Zn2_3 Zn 0.22030(6) 0.48305(5) 0.02239(6)
Zn4_5 Zn 0.31799(7) 0.31308(5) 0.00137(7)
C23_5 C 0.4183(6) 0.3002(6) 0.0502(8)
H25_5 H 0.4141 0.3282 0.0603
C24_5 C 0.4647(7) 0.2790(6) 0.0602(8)
H26_5 H 0.4918 0.2934 0.0767
C25_5 C 0.4717(6) 0.2386(5) 0.0469(6)
C26_5 C 0.4313(5) 0.2176(5) 0.0234(7)
H27_5 H 0.4338 0.1895 0.0134
C27_5 C 0.3867(6) 0.2407(5) 0.0153(7)
H28_5 H 0.3584 0.2265 0.0008
C28_5 C 0.5230(5) 0.2170(5) 0.0576(6)
N3_5 N 0.3804(4) 0.2797(4) 0.0259(5)
O1_5 O 0.1516(3) 0.4584(2) 0.0268(3)
O2_5 O 0.1944(3) 0.4144(3) 0.1074(3)
O3_5 O 0.1331(3) 0.3484(3) 0.0778(4)
O4_5 O 0.2507(3) 0.2885(3) 0.0132(3)
O7_5 O 0.2114(3) 0.3763(3) 0.0085(3)
O9_5 O 0.2958(4) 0.3980(3) 0.1490(4)
O11_5 O 0.1704(4) 0.2651(3) 0.0898(4)
O16_5 O 0.3854(4) 0.4324(4) 0.0718(4)
O21_5 O 0.2344(3) 0.3363(3) 0.1015(4)
O27_5 O 0.2733(3) 0.4440(3) 0.0521(3)
O37_5 O 0.3187(3) 0.3628(3) 0.0456(4)
O39_5 O 0.0873(4) 0.4230(3) 0.1093(4)
O43_5 O 0.5565(4) 0.2359(3) 0.0825(4)
O44_3 O 0.5258(4) 0.1799(3) 0.0374(4)
Zn6_3 Zn 0.59392(6) 0.15316(5) 0.03827(6)
O45_3 O 0.2308(4) 0.5338(3) 0.0634(4)
Mo1_5 Mo 0.30430(5) 0.47695(4) 0.90609(5)
Mo2_5 Mo 0.16500(4) 0.32773(4) 0.83934(5)
Mo3_5 Mo 0.29241(5) 0.30253(4) 0.86732(5)
Mo5_5 Mo 0.20015(5) 0.27116(4) 0.95956(5)
Mo6_5 Mo 0.10489(4) 0.45597(4) 0.96300(5)
Mo7_5 Mo 0.20492(5) 0.48888(4) 0.88190(5)
Mo10_5 Mo 0.12673(4) 0.40487(4) 0.84472(5)
Mo12_5 Mo 0.36468(4) 0.37990(4) 0.90217(5)
P1_5 P 0.22536(12) 0.38582(10) 0.95043(13)
Zn1_5 Zn 0.26438(6) 0.40051(5) 0.81447(7)
Zn3_3 Zn 0.09392(6) 0.34684(5) 0.96173(6)
C17_5 C 0.2483(6) 0.3937(5) 0.6988(6)
H21_5 H 0.2254 0.3724 0.7088
C18_5 C 0.2480(8) 0.4060(6) 0.6478(7)
H22_5 H 0.2260 0.3930 0.6235
C19_5 C 0.2811(5) 0.4387(5) 0.6313(6)
C20_5 C 0.3166(6) 0.4551(6) 0.6700(6)
H23_5 H 0.3405 0.4758 0.6609
C21_5 C 0.3144(6) 0.4394(5) 0.7211(7)
H24_5 H 0.3383 0.4496 0.7457
C22_5 C 0.2781(6) 0.4584(4) 0.5775(6)
N2_5 N 0.2801(4) 0.4104(4) 0.7374(5)
O5_5 O 0.2231(3) 0.3435(2) 0.9194(3)
O6_5 O 0.1867(3) 0.4164(3) 0.9231(3)
O8_5 O 0.2804(3) 0.4050(3) 0.9474(3)
O10_5 O 0.4210(4) 0.3657(3) 0.8736(4)
O12_5 O 0.3369(4) 0.2741(4) 0.8331(4)
O13_5 O 0.0816(3) 0.4305(3) 0.9016(3)
O14_5 O 0.1317(4) 0.3091(4) 0.7870(4)
O15_5 O 0.3315(4) 0.5223(3) 0.8833(4)
O17_5 O 0.1848(4) 0.2214(3) 0.9733(5)
O18_5 O 0.1592(3) 0.2751(3) 0.8891(4)
O19_5 O 0.3837(4) 0.3915(3) 0.9704(4)
O20_5 O 0.2079(4) 0.5369(3) 0.8540(4)
O22_5 O 0.1444(3) 0.4964(3) 0.9334(4)
O23_5 O 0.3560(4) 0.4347(3) 0.8796(4)
O24_5 O 0.2369(4) 0.3081(3) 0.8220(4)
O25_5 O 0.2644(3) 0.2645(3) 0.9130(4)
O26_5 O 0.2438(3) 0.4939(3) 0.9493(3)
O28_5 O 0.0987(3) 0.3991(3) 0.9989(3)
O29_5 O 0.1135(3) 0.3537(3) 0.8864(3)
O30_5 O 0.1915(3) 0.3827(3) 0.8157(4)
O31_5 O 0.1445(3) 0.3056(2) 0.9902(3)
O32_5 O 0.3421(3) 0.4743(3) 0.9794(4)
O33_5 O 0.3111(3) 0.3618(3) 0.8470(3)
O34_5 O 0.3360(3) 0.3253(3) 0.9274(4)
O35_5 O 0.1571(4) 0.4607(3) 0.8375(4)
O36_5 O 0.2603(3) 0.4555(3) 0.8480(4)
O38_5 O 0.0525(4) 0.4814(3) 0.9856(4)
O40_5 O 0.0822(3) 0.4034(3) 0.7941(3)
O41_3 O 0.2308(4) 0.4662(3) 0.5634(4)
O42_5 O 0.3188(4) 0.4666(4) 0.5537(4)
Zn5_3 Zn 0.22030(6) 0.51695(5) 0.52239(6)
O46_3 O 0.0258(4) 0.3201(3) 0.9626(4)
C28_6 C 0.0230(5) 0.2830(5) 0.9424(6)
O43_6 O 0.0565(4) 0.2641(3) 0.9175(4)
Mo1_6 Mo 0.80430(5) 0.02305(4) 0.09391(5)
Mo2_6 Mo 0.66500(4) 0.17227(4) 0.16066(5)
Mo3_6 Mo 0.79241(5) 0.19747(4) 0.13268(5)
Mo5_6 Mo 0.70015(5) 0.22884(4) 0.04044(5)
Mo6_6 Mo 0.60489(4) 0.04403(4) 0.03700(5)
Mo7_6 Mo 0.70492(5) 0.01112(4) 0.11810(5)
Mo10_6 Mo 0.62673(4) 0.09513(4) 0.15528(5)
Mo12_6 Mo 0.86468(4) 0.12010(4) 0.09783(5)
P1_6 P 0.72536(12) 0.11418(10) 0.04957(13)
Zn1_6 Zn 0.76438(6) 0.09949(5) 0.18553(7)
C17_6 C 0.7483(6) 0.1063(5) 0.3012(6)
H21_6 H 0.7254 0.1276 0.2912
C18_6 C 0.7480(8) 0.0940(6) 0.3522(7)
H22_6 H 0.7260 0.1070 0.3765
C19_6 C 0.7811(5) 0.0613(5) 0.3687(6)
C20_6 C 0.8166(6) 0.0449(6) 0.3300(6)
H23_6 H 0.8405 0.0242 0.3391
C21_6 C 0.8144(6) 0.0606(5) 0.2789(7)
H24_6 H 0.8383 0.0504 0.2543
C22_6 C 0.7781(6) 0.0416(4) 0.4225(6)
N2_6 N 0.7801(4) 0.0896(4) 0.2626(5)
O5_6 O 0.7231(3) 0.1565(2) 0.0806(3)
O6_6 O 0.6867(3) 0.0836(3) 0.0769(3)
O8_6 O 0.7804(3) 0.0950(3) 0.0526(3)
O10_6 O 0.9210(4) 0.1343(3) 0.1264(4)
O12_6 O 0.8369(4) 0.2259(4) 0.1669(4)
O13_6 O 0.5816(3) 0.0695(3) 0.0984(3)
O14_6 O 0.6317(4) 0.1909(4) 0.2130(4)
O17_6 O 0.6848(4) 0.2786(3) 0.0267(5)
O18_6 O 0.6592(3) 0.2249(3) 0.1109(4)
O19_6 O 0.8837(4) 0.1085(3) 0.0296(4)
O22_6 O 0.6444(3) 0.0036(3) 0.0666(4)
O23_6 O 0.8560(4) 0.0653(3) 0.1204(4)
O24_6 O 0.7369(4) 0.1919(3) 0.1780(4)
O25_6 O 0.7644(3) 0.2355(3) 0.0870(4)
O26_6 O 0.7438(3) 0.0061(3) 0.0507(3)
O28_6 O 0.5987(3) 0.1009(3) 0.0011(3)
O29_6 O 0.6135(3) 0.1463(3) 0.1136(3)
O30_6 O 0.6915(3) 0.1173(3) 0.1843(4)
O31_6 O 0.6445(3) 0.1944(2) 0.0098(3)
O32_6 O 0.8421(3) 0.0257(3) 0.0206(4)
O33_6 O 0.8111(3) 0.1382(3) 0.1530(3)
O34_6 O 0.8360(3) 0.1747(3) 0.0726(4)
O35_6 O 0.6571(4) 0.0393(3) 0.1625(4)
O36_6 O 0.7603(3) 0.0445(3) 0.1520(4)
O38_6 O 0.5525(4) 0.0186(3) 0.0144(4)
O40_6 O 0.5822(3) 0.0966(3) 0.2059(3)
O41_4 O 0.7308(4) 0.0338(3) 0.4366(4)
O42_6 O 0.8188(4) 0.0334(4) 0.4463(4)
Mo4_6 Mo 0.83836(4) 0.07993(4) 0.97358(5)
Mo8_6 Mo 0.68785(5) 0.19319(4) 0.94622(5)
Mo9_6 Mo 0.63529(4) 0.09447(4) 0.93061(5)
Mo11_6 Mo 0.76584(5) 0.10919(4) 0.90899(5)
Zn2_4 Zn 0.72030(6) 0.01695(5) 0.97761(6)
Zn4_6 Zn 0.81799(7) 0.18692(5) 0.99863(7)
C23_6 C 0.9183(6) 0.1998(6) 0.9498(8)
H25_6 H 0.9141 0.1718 0.9397
C24_6 C 0.9647(7) 0.2210(6) 0.9398(8)
H26_6 H 0.9918 0.2066 0.9233
C25_6 C 0.9717(6) 0.2614(5) 0.9531(6)
C26_6 C 0.9313(5) 0.2824(5) 0.9766(7)
H27_6 H 0.9338 0.3105 0.9866
C27_6 C 0.8867(6) 0.2593(5) 0.9847(7)
H28_6 H 0.8584 0.2735 0.9992
N3_6 N 0.8804(4) 0.2203(4) 0.9741(5)
O1_6 O 0.6516(3) 0.0416(2) 0.9732(3)
O2_6 O 0.6944(3) 0.0856(3) 0.8926(3)
O3_6 O 0.6331(3) 0.1516(3) 0.9222(4)
O4_6 O 0.7507(3) 0.2115(3) 0.9868(3)
O7_6 O 0.7114(3) 0.1237(3) 0.9915(3)
O9_6 O 0.7958(4) 0.1020(3) 0.8510(4)
O11_6 O 0.6704(4) 0.2349(3) 0.9102(4)
O16_6 O 0.8854(4) 0.0676(4) 0.9282(4)
O21_6 O 0.7344(3) 0.1637(3) 0.8985(4)
O27_6 O 0.7733(3) 0.0560(3) 0.9479(3)
O37_6 O 0.8187(3) 0.1372(3) 0.9544(4)
O39_6 O 0.5873(4) 0.0770(3) 0.8907(4)
O15_6 O 0.8315(4) 0.9777(3) 0.1167(4)
O20_6 O 0.7079(4) 0.9631(3) 0.1460(4)
Zn5_4 Zn 0.72030(6) 0.98305(5) 0.47761(6)
O45_4 O 0.7308(4) 0.9662(3) 0.9366(4)
C28_7 C 0.0230(5) 0.7170(5) 0.4424(6)
O43_7 O 0.0565(4) 0.7359(3) 0.4175(4)
O44_4 O 0.0258(4) 0.6799(3) 0.4626(4)
Zn6_4 Zn 0.09392(6) 0.65316(5) 0.46173(6)
O15_7 O 0.8315(4) 0.0223(3) 0.6167(4)
O20_7 O 0.7079(4) 0.0369(3) 0.6460(4)
Mo1_7 Mo 0.80430(5) 0.97695(4) 0.59391(5)
Mo2_7 Mo 0.66500(4) 0.82773(4) 0.66066(5)
Mo3_7 Mo 0.79241(5) 0.80253(4) 0.63268(5)
Mo4_7 Mo 0.83836(4) 0.92007(4) 0.47358(5)
Mo5_7 Mo 0.70015(5) 0.77116(4) 0.54044(5)
Mo6_7 Mo 0.60489(4) 0.95597(4) 0.53700(5)
Mo7_7 Mo 0.70492(5) 0.98888(4) 0.61810(5)
Mo8_7 Mo 0.68785(5) 0.80681(4) 0.44622(5)
Mo9_7 Mo 0.63529(4) 0.90553(4) 0.43061(5)
Mo10_7 Mo 0.62673(4) 0.90487(4) 0.65528(5)
Mo11_7 Mo 0.76584(5) 0.89081(4) 0.40899(5)
Mo12_7 Mo 0.86468(4) 0.87990(4) 0.59783(5)
P1_7 P 0.72536(12) 0.88582(10) 0.54957(13)
Zn1_7 Zn 0.76438(6) 0.90051(5) 0.68553(7)
Zn3_4 Zn 0.59392(6) 0.84684(5) 0.53827(6)
Zn4_7 Zn 0.81799(7) 0.81308(5) 0.49863(7)
C17_7 C 0.7483(6) 0.8937(5) 0.8012(6)
H21_7 H 0.7254 0.8724 0.7912
C18_7 C 0.7480(8) 0.9060(6) 0.8522(7)
H22_7 H 0.7260 0.8930 0.8765
C19_7 C 0.7811(5) 0.9387(5) 0.8687(6)
C20_7 C 0.8166(6) 0.9551(6) 0.8300(6)
H23_7 H 0.8405 0.9758 0.8391
C21_7 C 0.8144(6) 0.9394(5) 0.7789(7)
H24_7 H 0.8383 0.9496 0.7543
C22_7 C 0.7781(6) 0.9584(4) 0.9225(6)
C23_7 C 0.9183(6) 0.8002(6) 0.4498(8)
H25_7 H 0.9141 0.8282 0.4397
C24_7 C 0.9647(7) 0.7790(6) 0.4398(8)
H26_7 H 0.9918 0.7934 0.4233
C25_7 C 0.9717(6) 0.7386(5) 0.4531(6)
C26_7 C 0.9313(5) 0.7176(5) 0.4766(7)
H27_7 H 0.9338 0.6895 0.4866
C27_7 C 0.8867(6) 0.7407(5) 0.4847(7)
H28_7 H 0.8584 0.7265 0.4992
N2_7 N 0.7801(4) 0.9104(4) 0.7626(5)
N3_7 N 0.8804(4) 0.7797(4) 0.4741(5)
O1_7 O 0.6516(3) 0.9584(2) 0.4732(3)
O2_7 O 0.6944(3) 0.9144(3) 0.3926(3)
O3_7 O 0.6331(3) 0.8484(3) 0.4222(4)
O4_7 O 0.7507(3) 0.7885(3) 0.4868(3)
O5_7 O 0.7231(3) 0.8435(2) 0.5806(3)
O6_7 O 0.6867(3) 0.9164(3) 0.5769(3)
O7_7 O 0.7114(3) 0.8763(3) 0.4915(3)
O8_7 O 0.7804(3) 0.9050(3) 0.5526(3)
O9_7 O 0.7958(4) 0.8980(3) 0.3510(4)
O10_7 O 0.9210(4) 0.8657(3) 0.6264(4)
O11_7 O 0.6704(4) 0.7651(3) 0.4102(4)
O12_7 O 0.8369(4) 0.7741(4) 0.6669(4)
O13_7 O 0.5816(3) 0.9305(3) 0.5984(3)
O14_7 O 0.6317(4) 0.8091(4) 0.7130(4)
O16_7 O 0.8854(4) 0.9324(4) 0.4282(4)
O17_7 O 0.6848(4) 0.7214(3) 0.5267(5)
O18_7 O 0.6592(3) 0.7751(3) 0.6109(4)
O19_7 O 0.8837(4) 0.8915(3) 0.5296(4)
O21_7 O 0.7344(3) 0.8363(3) 0.3985(4)
O22_7 O 0.6444(3) 0.9964(3) 0.5666(4)
O23_7 O 0.8560(4) 0.9347(3) 0.6204(4)
O24_7 O 0.7369(4) 0.8081(3) 0.6780(4)
O25_7 O 0.7644(3) 0.7645(3) 0.5870(4)
O26_7 O 0.7438(3) 0.9939(3) 0.5507(3)
O27_7 O 0.7733(3) 0.9440(3) 0.4479(3)
O28_7 O 0.5987(3) 0.8991(3) 0.5011(3)
O29_7 O 0.6135(3) 0.8537(3) 0.6136(3)
O30_7 O 0.6915(3) 0.8827(3) 0.6843(4)
O31_7 O 0.6445(3) 0.8056(2) 0.5098(3)
O32_7 O 0.8421(3) 0.9743(3) 0.5206(4)
O33_7 O 0.8111(3) 0.8618(3) 0.6530(3)
O34_7 O 0.8360(3) 0.8253(3) 0.5726(4)
O35_7 O 0.6571(4) 0.9607(3) 0.6625(4)
O36_7 O 0.7603(3) 0.9555(3) 0.6520(4)
O37_7 O 0.8187(3) 0.8628(3) 0.4544(4)
O38_7 O 0.5525(4) 0.9814(3) 0.5144(4)
O39_7 O 0.5873(4) 0.9230(3) 0.3907(4)
O40_7 O 0.5822(3) 0.9034(3) 0.7059(3)
O42_7 O 0.8188(4) 0.9666(4) 0.9463(4)
O46_4 O 0.5258(4) 0.8201(3) 0.5374(4)
Mo1_8 Mo 0.30430(5) 0.52305(4) 0.40609(5)
Mo2_8 Mo 0.16500(4) 0.67227(4) 0.33934(5)
Mo3_8 Mo 0.29241(5) 0.69747(4) 0.36732(5)
Mo4_8 Mo 0.33836(4) 0.57993(4) 0.52642(5)
Mo5_8 Mo 0.20015(5) 0.72884(4) 0.45956(5)
Mo6_8 Mo 0.10489(4) 0.54403(4) 0.46300(5)
Mo7_8 Mo 0.20492(5) 0.51112(4) 0.38190(5)
Mo8_8 Mo 0.18785(5) 0.69319(4) 0.55378(5)
Mo9_8 Mo 0.13529(4) 0.59447(4) 0.56939(5)
Mo10_8 Mo 0.12673(4) 0.59513(4) 0.34472(5)
Mo11_8 Mo 0.26584(5) 0.60919(4) 0.59101(5)
Mo12_8 Mo 0.36468(4) 0.62010(4) 0.40217(5)
P1_8 P 0.22536(12) 0.61418(10) 0.45043(13)
Zn1_8 Zn 0.26438(6) 0.59949(5) 0.31447(7)
Zn4_8 Zn 0.31799(7) 0.68692(5) 0.50137(7)
C17_8 C 0.2483(6) 0.6063(5) 0.1988(6)
H21_8 H 0.2254 0.6276 0.2088
C18_8 C 0.2480(8) 0.5940(6) 0.1478(7)
H22_8 H 0.2260 0.6070 0.1235
C19_8 C 0.2811(5) 0.5613(5) 0.1313(6)
C20_8 C 0.3166(6) 0.5449(6) 0.1700(6)
H23_8 H 0.3405 0.5242 0.1609
C21_8 C 0.3144(6) 0.5606(5) 0.2211(7)
H24_8 H 0.3383 0.5504 0.2457
C22_8 C 0.2781(6) 0.5416(4) 0.0775(6)
C23_8 C 0.4183(6) 0.6998(6) 0.5502(8)
H25_8 H 0.4141 0.6718 0.5603
C24_8 C 0.4647(7) 0.7210(6) 0.5602(8)
H26_8 H 0.4918 0.7066 0.5767
C25_8 C 0.4717(6) 0.7614(5) 0.5469(6)
C26_8 C 0.4313(5) 0.7824(5) 0.5234(7)
H27_8 H 0.4338 0.8105 0.5134
C27_8 C 0.3867(6) 0.7593(5) 0.5153(7)
H28_8 H 0.3584 0.7735 0.5008
C28_8 C 0.5230(5) 0.7830(5) 0.5576(6)
N2_8 N 0.2801(4) 0.5896(4) 0.2374(5)
N3_8 N 0.3804(4) 0.7203(4) 0.5259(5)
O1_8 O 0.1516(3) 0.5416(2) 0.5268(3)
O2_8 O 0.1944(3) 0.5856(3) 0.6074(3)
O3_8 O 0.1331(3) 0.6516(3) 0.5778(4)
O4_8 O 0.2507(3) 0.7115(3) 0.5132(3)
O5_8 O 0.2231(3) 0.6565(2) 0.4194(3)
O6_8 O 0.1867(3) 0.5836(3) 0.4231(3)
O7_8 O 0.2114(3) 0.6237(3) 0.5085(3)
O8_8 O 0.2804(3) 0.5950(3) 0.4474(3)
O9_8 O 0.2958(4) 0.6020(3) 0.6490(4)
O10_8 O 0.4210(4) 0.6343(3) 0.3736(4)
O11_8 O 0.1704(4) 0.7349(3) 0.5898(4)
O12_8 O 0.3369(4) 0.7259(4) 0.3331(4)
O13_8 O 0.0816(3) 0.5695(3) 0.4016(3)
O14_8 O 0.1317(4) 0.6909(4) 0.2870(4)
O15_8 O 0.3315(4) 0.4777(3) 0.3833(4)
O16_8 O 0.3854(4) 0.5676(4) 0.5718(4)
O17_8 O 0.1848(4) 0.7786(3) 0.4733(5)
O18_8 O 0.1592(3) 0.7249(3) 0.3891(4)
O19_8 O 0.3837(4) 0.6085(3) 0.4704(4)
O20_8 O 0.2079(4) 0.4631(3) 0.3540(4)
O21_8 O 0.2344(3) 0.6637(3) 0.6015(4)
O22_8 O 0.1444(3) 0.5036(3) 0.4334(4)
O23_8 O 0.3560(4) 0.5653(3) 0.3796(4)
O24_8 O 0.2369(4) 0.6919(3) 0.3220(4)
O25_8 O 0.2644(3) 0.7355(3) 0.4130(4)
O26_8 O 0.2438(3) 0.5061(3) 0.4493(3)
O27_8 O 0.2733(3) 0.5560(3) 0.5521(3)
O28_8 O 0.0987(3) 0.6009(3) 0.4989(3)
O29_8 O 0.1135(3) 0.6463(3) 0.3864(3)
O30_8 O 0.1915(3) 0.6173(3) 0.3157(4)
O31_8 O 0.1445(3) 0.6944(2) 0.4902(3)
O32_8 O 0.3421(3) 0.5257(3) 0.4794(4)
O33_8 O 0.3111(3) 0.6382(3) 0.3470(3)
O34_8 O 0.3360(3) 0.6747(3) 0.4274(4)
O35_8 O 0.1571(4) 0.5393(3) 0.3375(4)
O36_8 O 0.2603(3) 0.5445(3) 0.3480(4)
O37_8 O 0.3187(3) 0.6372(3) 0.5456(4)
O38_8 O 0.0525(4) 0.5186(3) 0.4856(4)
O39_8 O 0.0873(4) 0.5770(3) 0.6093(4)
O40_8 O 0.0822(3) 0.5966(3) 0.2941(3)
O42_8 O 0.3188(4) 0.5334(4) 0.0537(4)
O43_8 O 0.5565(4) 0.7641(3) 0.5825(4)
C29 C 0.0342(6) 0.4080(6) 0.6566(8)
H29 H 0.0055 0.4052 0.6318
H30 H 0.0196 0.4161 0.6907
C30 C 0.0598(8) 0.3643(7) 0.6632(8)
H31 H 0.0773 0.3568 0.6303
H32 H 0.0859 0.3658 0.6910
C31 C 0.0236(9) 0.3324(6) 0.6763(9)
H34 H 0.0060 0.3404 0.7089
C32 C 0.0455(8) 0.2888(6) 0.6835(9)
H35 H 0.0518 0.2763 0.6493
H36 H 0.0210 0.2718 0.7029
H37 H 0.0775 0.2904 0.7030
C33 C 0.1067(6) 0.4553(5) 0.6805(6)
H38 H 0.1278 0.4306 0.6876
H39 H 0.0865 0.4607 0.7124
C34 C 0.1440(7) 0.4928(5) 0.6727(7)
H40 H 0.1648 0.4883 0.6410
H41 H 0.1240 0.5184 0.6678
C35 C 0.1790(7) 0.4976(5) 0.7197(7)
H42 H 0.1581 0.5033 0.7510
H43 H 0.1974 0.4713 0.7256
C36 C 0.2155(8) 0.5302(6) 0.7129(8)
H44 H 0.2319 0.5275 0.6787
H45 H 0.2414 0.5286 0.7403
H46 H 0.1981 0.5569 0.7149
C37 C 0.0987(7) 0.4337(6) 0.5865(7)
H47 H 0.1165 0.4590 0.5747
H48 H 0.1252 0.4130 0.5950
C38 C 0.0670(9) 0.4172(6) 0.5408(7)
H49 H 0.0415 0.4382 0.5305
H50 H 0.0484 0.3922 0.5521
C39 C 0.1010(9) 0.4066(7) 0.4933(10)
H51 H 0.1213 0.4311 0.4829
H52 H 0.1249 0.3840 0.5023
C40 C 0.0674(14) 0.3938(11) 0.4502(13)
H53 H 0.0506 0.3678 0.4594
H54 H 0.0878 0.3899 0.4185
H55 H 0.0416 0.4151 0.4441
C41 C 0.0328(6) 0.4830(6) 0.6254(8)
H56 H 0.0541 0.5054 0.6108
H57 H 0.0082 0.4748 0.5980
C42 C 0.0039(7) 0.4998(6) 0.6698(7)
H58 H 0.0279 0.5112 0.6958
N4 N 0.0693(4) 0.4441(4) 0.6371(5)
H33 H 0.9975 0.3313 0.6484
H59 H 0.9843 0.4773 0.6866
C43 C 0.9670(9) 0.5338(7) 0.6520(9)
H60 H 0.9875 0.5570 0.6384
H61 H 0.9466 0.5229 0.6226
C44 C 0.9308(10) 0.5506(9) 0.6922(10)
H62 H 0.9158 0.5277 0.7120
H63 H 0.9037 0.5662 0.6749
H64 H 0.9494 0.5688 0.7161
C29_2 C 0.4658(6) 0.0920(6) 0.1566(8)
H29_2 H 0.4945 0.0948 0.1318
H30_2 H 0.4804 0.0839 0.1907
C30_2 C 0.4402(8) 0.1357(7) 0.1632(8)
H31_2 H 0.4227 0.1432 0.1303
H32_2 H 0.4141 0.1342 0.1910
C31_2 C 0.4764(9) 0.1676(6) 0.1763(9)
H33_2 H 0.5025 0.1687 0.1484
H34_2 H 0.4940 0.1596 0.2089
C32_2 C 0.4545(8) 0.2112(6) 0.1835(9)
H35_2 H 0.4482 0.2237 0.1493
H36_2 H 0.4790 0.2282 0.2029
H37_2 H 0.4225 0.2096 0.2030
C33_2 C 0.3933(6) 0.0447(5) 0.1805(6)
H38_2 H 0.3722 0.0694 0.1876
H39_2 H 0.4135 0.0393 0.2124
C34_2 C 0.3560(7) 0.0072(5) 0.1727(7)
H40_2 H 0.3352 0.0117 0.1410
C35_2 C 0.3210(7) 0.0024(5) 0.2197(7)
H43_2 H 0.3026 0.0287 0.2256
C37_2 C 0.4013(7) 0.0663(6) 0.0865(7)
H47_2 H 0.3835 0.0410 0.0747
H48_2 H 0.3748 0.0870 0.0950
C38_2 C 0.4330(9) 0.0828(6) 0.0408(7)
H49_2 H 0.4585 0.0618 0.0305
H50_2 H 0.4516 0.1078 0.0521
H52_2 H 0.3751 0.1160 0.0023
C41_2 C 0.4672(6) 0.0170(6) 0.1254(8)
H57_2 H 0.4918 0.0252 0.0980
C42_2 C 0.4961(7) 0.0002(6) 0.1698(7)
H59_2 H 0.5157 0.0227 0.1866
N4_2 N 0.4307(4) 0.0559(4) 0.1371(5)
C39_2 C 0.3990(9) 0.0934(7) 0.9933(10)
H51_2 H 0.3787 0.0689 0.9829
C40_2 C 0.4326(14) 0.1062(11) 0.9502(13)
H53_2 H 0.4494 0.1322 0.9594
H54_2 H 0.4122 0.1101 0.9185
H55_2 H 0.4584 0.0849 0.9441
H41_2 H 0.3760 0.9816 0.1678
H42_2 H 0.3419 0.9967 0.2510
C36_2 C 0.2845(8) 0.9698(6) 0.2129(8)
H44_2 H 0.2681 0.9725 0.1787
H45_2 H 0.2586 0.9714 0.2403
H46_2 H 0.3019 0.9431 0.2149
H56_2 H 0.4459 0.9946 0.1108
H58_2 H 0.4721 0.9888 0.1958
C43_2 C 0.5330(9) 0.9662(7) 0.1520(9)
H60_2 H 0.5125 0.9430 0.1384
H61_2 H 0.5534 0.9771 0.1226
C44_2 C 0.5692(10) 0.9494(9) 0.1922(10)
H62_2 H 0.5842 0.9723 0.2120
H63_2 H 0.5963 0.9338 0.1749
H64_2 H 0.5506 0.9312 0.2161
C29_3 C 0.5342(6) 0.0920(6) 0.3434(8)
H29_3 H 0.5055 0.0948 0.3682
H30_3 H 0.5196 0.0839 0.3093
C30_3 C 0.5598(8) 0.1357(7) 0.3368(8)
H31_3 H 0.5773 0.1432 0.3697
H32_3 H 0.5859 0.1342 0.3090
C31_3 C 0.5236(9) 0.1676(6) 0.3237(9)
H33_3 H 0.4975 0.1687 0.3516
H34_3 H 0.5060 0.1596 0.2911
C32_3 C 0.5455(8) 0.2112(6) 0.3165(9)
H35_3 H 0.5518 0.2237 0.3507
H36_3 H 0.5210 0.2282 0.2971
H37_3 H 0.5775 0.2096 0.2970
C33_3 C 0.6067(6) 0.0447(5) 0.3195(6)
H38_3 H 0.6278 0.0694 0.3124
H39_3 H 0.5865 0.0393 0.2876
C34_3 C 0.6440(7) 0.0072(5) 0.3273(7)
H40_3 H 0.6648 0.0117 0.3590
C35_3 C 0.6790(7) 0.0024(5) 0.2803(7)
H43_3 H 0.6974 0.0287 0.2744
C37_3 C 0.5987(7) 0.0663(6) 0.4135(7)
H47_3 H 0.6165 0.0410 0.4253
H48_3 H 0.6252 0.0870 0.4050
C38_3 C 0.5670(9) 0.0828(6) 0.4592(7)
H49_3 H 0.5415 0.0618 0.4695
H50_3 H 0.5484 0.1078 0.4479
C39_3 C 0.6010(9) 0.0934(7) 0.5067(10)
H51_3 H 0.6213 0.0689 0.5171
H52_3 H 0.6249 0.1160 0.4977
C40_3 C 0.5674(14) 0.1062(11) 0.5498(13)
H53_3 H 0.5506 0.1322 0.5406
H54_3 H 0.5878 0.1101 0.5815
H55_3 H 0.5416 0.0849 0.5559
C41_3 C 0.5328(6) 0.0170(6) 0.3746(8)
H57_3 H 0.5082 0.0252 0.4020
C42_3 C 0.5039(7) 0.0002(6) 0.3302(7)
H59_3 H 0.4843 0.0227 0.3134
N4_3 N 0.5693(4) 0.0559(4) 0.3629(5)
H41_3 H 0.6240 0.9816 0.3322
H42_3 H 0.6581 0.9967 0.2490
C36_3 C 0.7155(8) 0.9698(6) 0.2871(8)
H44_3 H 0.7319 0.9725 0.3213
H45_3 H 0.7414 0.9714 0.2597
H46_3 H 0.6981 0.9431 0.2851
H56_3 H 0.5541 0.9946 0.3892
H58_3 H 0.5279 0.9888 0.3042
C43_3 C 0.4670(9) 0.9662(7) 0.3480(9)
H60_3 H 0.4875 0.9430 0.3616
H61_3 H 0.4466 0.9771 0.3774
C44_3 C 0.4308(10) 0.9494(9) 0.3078(10)
H62_3 H 0.4158 0.9723 0.2880
H63_3 H 0.4037 0.9338 0.3251
H64_3 H 0.4494 0.9312 0.2839
H33_4 H 0.0025 0.3313 0.8516
H59_4 H 0.0157 0.4773 0.8134
C43_4 C 0.0330(9) 0.5338(7) 0.8480(9)
H60_4 H 0.0125 0.5570 0.8616
H61_4 H 0.0534 0.5229 0.8774
C44_4 C 0.0692(10) 0.5506(9) 0.8078(10)
H62_4 H 0.0842 0.5277 0.7880
H63_4 H 0.0963 0.5662 0.8251
H64_4 H 0.0506 0.5688 0.7839
C39_4 C 0.8990(9) 0.4066(7) 0.0067(10)
H51_4 H 0.8787 0.4311 0.0171
C40_4 C 0.9326(14) 0.3938(11) 0.0498(13)
H53_4 H 0.9494 0.3678 0.0406
H54_4 H 0.9122 0.3899 0.0815
H55_4 H 0.9584 0.4151 0.0559
C29_4 C 0.9658(6) 0.4080(6) 0.8434(8)
H29_4 H 0.9945 0.4052 0.8682
H30_4 H 0.9804 0.4161 0.8093
C30_4 C 0.9402(8) 0.3643(7) 0.8368(8)
H31_4 H 0.9227 0.3568 0.8697
H32_4 H 0.9141 0.3658 0.8090
C31_4 C 0.9764(9) 0.3324(6) 0.8237(9)
H34_4 H 0.9940 0.3404 0.7911
C32_4 C 0.9545(8) 0.2888(6) 0.8165(9)
H35_4 H 0.9482 0.2763 0.8507
H36_4 H 0.9790 0.2718 0.7971
H37_4 H 0.9225 0.2904 0.7970
C33_4 C 0.8933(6) 0.4553(5) 0.8195(6)
H38_4 H 0.8722 0.4306 0.8124
H39_4 H 0.9135 0.4607 0.7876
C34_4 C 0.8560(7) 0.4928(5) 0.8273(7)
H40_4 H 0.8352 0.4883 0.8590
H41_4 H 0.8760 0.5184 0.8322
C35_4 C 0.8210(7) 0.4976(5) 0.7803(7)
H42_4 H 0.8419 0.5033 0.7490
H43_4 H 0.8026 0.4713 0.7744
C36_4 C 0.7845(8) 0.5302(6) 0.7871(8)
H44_4 H 0.7681 0.5275 0.8213
H45_4 H 0.7586 0.5286 0.7597
H46_4 H 0.8019 0.5569 0.7851
C37_4 C 0.9013(7) 0.4337(6) 0.9135(7)
H47_4 H 0.8835 0.4590 0.9253
H48_4 H 0.8748 0.4130 0.9050
C38_4 C 0.9330(9) 0.4172(6) 0.9592(7)
H49_4 H 0.9585 0.4382 0.9695
H50_4 H 0.9516 0.3922 0.9479
H52_4 H 0.8751 0.3840 0.9977
C41_4 C 0.9672(6) 0.4830(6) 0.8746(8)
H56_4 H 0.9459 0.5054 0.8892
H57_4 H 0.9918 0.4748 0.9020
C42_4 C 0.9961(7) 0.4998(6) 0.8302(7)
H58_4 H 0.9721 0.5112 0.8042
N4_4 N 0.9307(4) 0.4441(4) 0.8629(5)
H33_5 H 0.0025 0.6687 0.3516
H59_5 H 0.0157 0.5227 0.3134
C43_5 C 0.0330(9) 0.4662(7) 0.3480(9)
H60_5 H 0.0125 0.4430 0.3616
H61_5 H 0.0534 0.4771 0.3774
C44_5 C 0.0692(10) 0.4494(9) 0.3078(10)
H62_5 H 0.0842 0.4723 0.2880
H63_5 H 0.0963 0.4338 0.3251
H64_5 H 0.0506 0.4312 0.2839
C29_5 C 0.9658(6) 0.5920(6) 0.3434(8)
H29_5 H 0.9945 0.5948 0.3682
H30_5 H 0.9804 0.5839 0.3093
C30_5 C 0.9402(8) 0.6357(7) 0.3368(8)
H31_5 H 0.9227 0.6432 0.3697
H32_5 H 0.9141 0.6342 0.3090
C31_5 C 0.9764(9) 0.6676(6) 0.3237(9)
H34_5 H 0.9940 0.6596 0.2911
C32_5 C 0.9545(8) 0.7112(6) 0.3165(9)
H35_5 H 0.9482 0.7237 0.3507
H36_5 H 0.9790 0.7282 0.2971
H37_5 H 0.9225 0.7096 0.2970
C33_5 C 0.8933(6) 0.5447(5) 0.3195(6)
H38_5 H 0.8722 0.5694 0.3124
H39_5 H 0.9135 0.5393 0.2876
C34_5 C 0.8560(7) 0.5072(5) 0.3273(7)
H40_5 H 0.8352 0.5117 0.3590
H41_5 H 0.8760 0.4816 0.3322
C35_5 C 0.8210(7) 0.5024(5) 0.2803(7)
H42_5 H 0.8419 0.4967 0.2490
H43_5 H 0.8026 0.5287 0.2744
C36_5 C 0.7845(8) 0.4698(6) 0.2871(8)
H44_5 H 0.7681 0.4725 0.3213
H45_5 H 0.7586 0.4714 0.2597
H46_5 H 0.8019 0.4431 0.2851
C37_5 C 0.9013(7) 0.5663(6) 0.4135(7)
H47_5 H 0.8835 0.5410 0.4253
H48_5 H 0.8748 0.5870 0.4050
C38_5 C 0.9330(9) 0.5828(6) 0.4592(7)
H49_5 H 0.9585 0.5618 0.4695
H50_5 H 0.9516 0.6078 0.4479
C39_5 C 0.8990(9) 0.5934(7) 0.5067(10)
H51_5 H 0.8787 0.5689 0.5171
H52_5 H 0.8751 0.6160 0.4977
C40_5 C 0.9326(14) 0.6062(11) 0.5498(13)
H53_5 H 0.9494 0.6322 0.5406
H54_5 H 0.9122 0.6101 0.5815
H55_5 H 0.9584 0.5849 0.5559
C41_5 C 0.9672(6) 0.5170(6) 0.3746(8)
H56_5 H 0.9459 0.4946 0.3892
H57_5 H 0.9918 0.5252 0.4020
C42_5 C 0.9961(7) 0.5002(6) 0.3302(7)
H58_5 H 0.9721 0.4888 0.3042
N4_5 N 0.9307(4) 0.5559(4) 0.3629(5)
H41_6 H 0.6240 0.0184 0.8322
H42_6 H 0.6581 0.0033 0.7490
C36_6 C 0.7155(8) 0.0302(6) 0.7871(8)
H44_6 H 0.7319 0.0275 0.8213
H45_6 H 0.7414 0.0286 0.7597
H46_6 H 0.6981 0.0569 0.7851
H56_6 H 0.5541 0.0054 0.8892
H58_6 H 0.5279 0.0112 0.8042
C43_6 C 0.4670(9) 0.0338(7) 0.8480(9)
H60_6 H 0.4875 0.0570 0.8616
H61_6 H 0.4466 0.0229 0.8774
C44_6 C 0.4308(10) 0.0506(9) 0.8078(10)
H62_6 H 0.4158 0.0277 0.7880
H63_6 H 0.4037 0.0662 0.8251
H64_6 H 0.4494 0.0688 0.7839
C39_6 C 0.6010(9) 0.9066(7) 0.0067(10)
H51_6 H 0.6213 0.9311 0.0171
C40_6 C 0.5674(14) 0.8938(11) 0.0498(13)
H53_6 H 0.5506 0.8678 0.0406
H54_6 H 0.5878 0.8899 0.0815
H55_6 H 0.5416 0.9151 0.0559
C29_6 C 0.5342(6) 0.9080(6) 0.8434(8)
H29_6 H 0.5055 0.9052 0.8682
H30_6 H 0.5196 0.9161 0.8093
C30_6 C 0.5598(8) 0.8643(7) 0.8368(8)
H31_6 H 0.5773 0.8568 0.8697
H32_6 H 0.5859 0.8658 0.8090
C31_6 C 0.5236(9) 0.8324(6) 0.8237(9)
H33_6 H 0.4975 0.8313 0.8516
H34_6 H 0.5060 0.8404 0.7911
C32_6 C 0.5455(8) 0.7888(6) 0.8165(9)
H35_6 H 0.5518 0.7763 0.8507
H36_6 H 0.5210 0.7718 0.7971
H37_6 H 0.5775 0.7904 0.7970
C33_6 C 0.6067(6) 0.9553(5) 0.8195(6)
H38_6 H 0.6278 0.9306 0.8124
H39_6 H 0.5865 0.9607 0.7876
C34_6 C 0.6440(7) 0.9928(5) 0.8273(7)
H40_6 H 0.6648 0.9883 0.8590
C35_6 C 0.6790(7) 0.9976(5) 0.7803(7)
H43_6 H 0.6974 0.9713 0.7744
C37_6 C 0.5987(7) 0.9337(6) 0.9135(7)
H47_6 H 0.6165 0.9590 0.9253
H48_6 H 0.6252 0.9130 0.9050
C38_6 C 0.5670(9) 0.9172(6) 0.9592(7)
H49_6 H 0.5415 0.9382 0.9695
H50_6 H 0.5484 0.8922 0.9479
H52_6 H 0.6249 0.8840 0.9977
C41_6 C 0.5328(6) 0.9830(6) 0.8746(8)
H57_6 H 0.5082 0.9748 0.9020
C42_6 C 0.5039(7) 0.9998(6) 0.8302(7)
H59_6 H 0.4843 0.9773 0.8134
N4_6 N 0.5693(4) 0.9441(4) 0.8629(5)
H41_7 H 0.3760 0.0184 0.6678
H42_7 H 0.3419 0.0033 0.7510
C36_7 C 0.2845(8) 0.0302(6) 0.7129(8)
H44_7 H 0.2681 0.0275 0.6787
H45_7 H 0.2586 0.0286 0.7403
H46_7 H 0.3019 0.0569 0.7149
H56_7 H 0.4459 0.0054 0.6108
H58_7 H 0.4721 0.0112 0.6958
C43_7 C 0.5330(9) 0.0338(7) 0.6520(9)
H60_7 H 0.5125 0.0570 0.6384
H61_7 H 0.5534 0.0229 0.6226
C44_7 C 0.5692(10) 0.0506(9) 0.6922(10)
H62_7 H 0.5842 0.0277 0.7120
H63_7 H 0.5963 0.0662 0.6749
H64_7 H 0.5506 0.0688 0.7161
C29_7 C 0.4658(6) 0.9080(6) 0.6566(8)
H29_7 H 0.4945 0.9052 0.6318
H30_7 H 0.4804 0.9161 0.6907
C30_7 C 0.4402(8) 0.8643(7) 0.6632(8)
H31_7 H 0.4227 0.8568 0.6303
H32_7 H 0.4141 0.8658 0.6910
C31_7 C 0.4764(9) 0.8324(6) 0.6763(9)
H33_7 H 0.5025 0.8313 0.6484
H34_7 H 0.4940 0.8404 0.7089
C32_7 C 0.4545(8) 0.7888(6) 0.6835(9)
H35_7 H 0.4482 0.7763 0.6493
H36_7 H 0.4790 0.7718 0.7029
H37_7 H 0.4225 0.7904 0.7030
C33_7 C 0.3933(6) 0.9553(5) 0.6805(6)
H38_7 H 0.3722 0.9306 0.6876
H39_7 H 0.4135 0.9607 0.7124
C34_7 C 0.3560(7) 0.9928(5) 0.6727(7)
H40_7 H 0.3352 0.9883 0.6410
C35_7 C 0.3210(7) 0.9976(5) 0.7197(7)
H43_7 H 0.3026 0.9713 0.7256
C37_7 C 0.4013(7) 0.9337(6) 0.5865(7)
H47_7 H 0.3835 0.9590 0.5747
H48_7 H 0.3748 0.9130 0.5950
C38_7 C 0.4330(9) 0.9172(6) 0.5408(7)
H49_7 H 0.4585 0.9382 0.5305
H50_7 H 0.4516 0.8922 0.5521
C39_7 C 0.3990(9) 0.9066(7) 0.4933(10)
H51_7 H 0.3787 0.9311 0.4829
H52_7 H 0.3751 0.8840 0.5023
C40_7 C 0.4326(14) 0.8938(11) 0.4502(13)
H53_7 H 0.4494 0.8678 0.4594
H54_7 H 0.4122 0.8899 0.4185
H55_7 H 0.4584 0.9151 0.4441
C41_7 C 0.4672(6) 0.9830(6) 0.6254(8)
H57_7 H 0.4918 0.9748 0.5980
C42_7 C 0.4961(7) 0.9998(6) 0.6698(7)
H59_7 H 0.5157 0.9773 0.6866
N4_7 N 0.4307(4) 0.9441(4) 0.6371(5)
C29_8 C 0.0342(6) 0.5920(6) 0.1566(8)
H29_8 H 0.0055 0.5948 0.1318
H30_8 H 0.0196 0.5839 0.1907
C30_8 C 0.0598(8) 0.6357(7) 0.1632(8)
H31_8 H 0.0773 0.6432 0.1303
H32_8 H 0.0859 0.6342 0.1910
C31_8 C 0.0236(9) 0.6676(6) 0.1763(9)
H34_8 H 0.0060 0.6596 0.2089
C32_8 C 0.0455(8) 0.7112(6) 0.1835(9)
H35_8 H 0.0518 0.7237 0.1493
H36_8 H 0.0210 0.7282 0.2029
H37_8 H 0.0775 0.7096 0.2030
C33_8 C 0.1067(6) 0.5447(5) 0.1805(6)
H38_8 H 0.1278 0.5694 0.1876
H39_8 H 0.0865 0.5393 0.2124
C34_8 C 0.1440(7) 0.5072(5) 0.1727(7)
H40_8 H 0.1648 0.5117 0.1410
H41_8 H 0.1240 0.4816 0.1678
C35_8 C 0.1790(7) 0.5024(5) 0.2197(7)
H42_8 H 0.1581 0.4967 0.2510
H43_8 H 0.1974 0.5287 0.2256
C36_8 C 0.2155(8) 0.4698(6) 0.2129(8)
H44_8 H 0.2319 0.4725 0.1787
H45_8 H 0.2414 0.4714 0.2403
H46_8 H 0.1981 0.4431 0.2149
C37_8 C 0.0987(7) 0.5663(6) 0.0865(7)
H47_8 H 0.1165 0.5410 0.0747
H48_8 H 0.1252 0.5870 0.0950
C38_8 C 0.0670(9) 0.5828(6) 0.0408(7)
H49_8 H 0.0415 0.5618 0.0305
H50_8 H 0.0484 0.6078 0.0521
H52_8 H 0.1249 0.6160 0.0023
C41_8 C 0.0328(6) 0.5170(6) 0.1254(8)
H56_8 H 0.0541 0.4946 0.1108
H57_8 H 0.0082 0.5252 0.0980
C42_8 C 0.0039(7) 0.5002(6) 0.1698(7)
H58_8 H 0.0279 0.4888 0.1958
N4_8 N 0.0693(4) 0.5559(4) 0.1371(5)
C39_8 C 0.1010(9) 0.5934(7) 0.9933(10)
H51_8 H 0.1213 0.5689 0.9829
C40_8 C 0.0674(14) 0.6062(11) 0.9502(13)
H53_8 H 0.0506 0.6322 0.9594
H54_8 H 0.0878 0.6101 0.9185
H55_8 H 0.0416 0.5849 0.9441
H33_8 H 0.9975 0.6687 0.1484
H59_8 H 0.9843 0.5227 0.1866
C43_8 C 0.9670(9) 0.4662(7) 0.1520(9)
H60_8 H 0.9875 0.4430 0.1384
H61_8 H 0.9466 0.4771 0.1226
C44_8 C 0.9308(10) 0.4494(9) 0.1922(10)
H62_8 H 0.9158 0.4723 0.2120
H63_8 H 0.9037 0.4338 0.1749
H64_8 H 0.9494 0.4312 0.2161
C45 C 0.2438(11) 0.1802(7) 0.8375(11)
H65 H 0.2187 0.1991 0.8536
H66 H 0.2780 0.1930 0.8410
C46 C 0.2433(12) 0.1378(7) 0.8682(14)
H67 H 0.2622 0.1166 0.8482
H68 H 0.2077 0.1281 0.8725
C47 C 0.2695(15) 0.1438(13) 0.9248(16)
H69 H 0.3070 0.1409 0.9221
H70 H 0.2617 0.1716 0.9387
C48 C 0.248(2) 0.1117(17) 0.9598(18)
H71 H 0.2208 0.0970 0.9419
H72 H 0.2349 0.1247 0.9914
H73 H 0.2754 0.0922 0.9692
C49 C 0.2713(10) 0.1531(8) 0.7484(11)
H74 H 0.2614 0.1532 0.7111
H75 H 0.2717 0.1240 0.7601
C50 C 0.3274(10) 0.1707(10) 0.7528(13)
H76 H 0.3290 0.1989 0.7379
H77 H 0.3379 0.1721 0.7898
C51 C 0.3620(12) 0.1426(9) 0.7235(11)
H78 H 0.3494 0.1180 0.7082
C52 C 0.4144(14) 0.1536(9) 0.7190(16)
H79 H 0.4218 0.1617 0.6830
H80 H 0.4356 0.1299 0.7285
H81 H 0.4219 0.1766 0.7425
C53 C 0.1782(11) 0.1545(9) 0.7713(12)
H82 H 0.1817 0.1265 0.7863
H83 H 0.1740 0.1507 0.7332
C54 C 0.1228(15) 0.1724(12) 0.7927(15)
C55 C 0.083(3) 0.142(2) 0.794(3)
C56 C 0.032(3) 0.132(2) 0.826(3)
C57 C 0.2279(9) 0.2201(7) 0.7581(9)
H84 H 0.2611 0.2336 0.7651
H85 H 0.2019 0.2348 0.7791
C58 C 0.2148(12) 0.2273(9) 0.6992(10)
H86 H 0.2385 0.2105 0.6779
H87 H 0.1799 0.2169 0.6927
C59 C 0.2178(11) 0.2725(9) 0.6802(12)
H88 H 0.2276 0.2946 0.7023
C60 C 0.2050(11) 0.2779(9) 0.6283(11)
H89 H 0.2163 0.2540 0.6081
H90 H 0.2216 0.3028 0.6149
H91 H 0.1679 0.2809 0.6252
N5 N 0.2312(8) 0.1756(7) 0.7786(9)
H92 H 0.370472 0.125542 0.760078
H93 H 0.105189 0.113119 0.799512
H94 H 0.0683939 0.143372 0.753354
H95 H 0.110537 0.197932 0.766643
H96 H 0.128359 0.184453 0.832869
H97 H 0.17727 0.277216 0.691433
H98 H 0.00470339 0.15801 0.821734
H99 H 0.0144142 0.103296 0.810575
H100 H 0.0414981 0.127756 0.867893
C45_2 C 0.2562(11) 0.3198(7) 0.3375(11)
H65_2 H 0.2813 0.3009 0.3536
H66_2 H 0.2220 0.3070 0.3410
C46_2 C 0.2567(12) 0.3622(7) 0.3682(14)
H67_2 H 0.2378 0.3834 0.3482
H68_2 H 0.2923 0.3719 0.3725
C47_2 C 0.2305(15) 0.3562(13) 0.4248(16)
H69_2 H 0.1930 0.3591 0.4221
H70_2 H 0.2383 0.3284 0.4387
C48_2 C 0.252(2) 0.3883(17) 0.4598(18)
H71_2 H 0.2792 0.4030 0.4419
H72_2 H 0.2651 0.3753 0.4914
H73_2 H 0.2246 0.4078 0.4692
C49_2 C 0.2287(10) 0.3469(8) 0.2484(11)
H74_2 H 0.2386 0.3468 0.2111
H75_2 H 0.2283 0.3760 0.2601
C50_2 C 0.1726(10) 0.3293(10) 0.2528(13)
H76_2 H 0.1710 0.3011 0.2379
H77_2 H 0.1621 0.3279 0.2898
C51_2 C 0.1380(12) 0.3574(9) 0.2235(11)
H78_2 H 0.1506 0.3820 0.2082
C52_2 C 0.0856(14) 0.3464(9) 0.2190(16)
H79_2 H 0.0782 0.3383 0.1830
H80_2 H 0.0644 0.3701 0.2285
H81_2 H 0.0781 0.3234 0.2425
C53_2 C 0.3218(11) 0.3455(9) 0.2713(12)
H82_2 H 0.3183 0.3735 0.2863
H83_2 H 0.3260 0.3493 0.2332
C54_2 C 0.3772(15) 0.3276(12) 0.2927(15)
C55_2 C 0.417(3) 0.358(2) 0.294(3)
C56_2 C 0.468(3) 0.368(2) 0.326(3)
C57_2 C 0.2721(9) 0.2799(7) 0.2581(9)
H84_2 H 0.2389 0.2664 0.2651
H85_2 H 0.2981 0.2652 0.2791
C58_2 C 0.2852(12) 0.2727(9) 0.1992(10)
H86_2 H 0.2615 0.2895 0.1779
H87_2 H 0.3201 0.2831 0.1927
C59_2 C 0.2822(11) 0.2275(9) 0.1802(12)
H88_2 H 0.2724 0.2054 0.2023
C60_2 C 0.2950(11) 0.2221(9) 0.1283(11)
H89_2 H 0.2837 0.2460 0.1081
H90_2 H 0.2784 0.1972 0.1149
H91_2 H 0.3321 0.2191 0.1252
N5_2 N 0.2688(8) 0.3244(7) 0.2786(9)
H92_2 H 0.129528 0.374458 0.260078
H93_2 H 0.394811 0.386881 0.299512
H94_2 H 0.431606 0.356628 0.253354
H95_2 H 0.389463 0.302068 0.266643
H96_2 H 0.371641 0.315547 0.332869
H97_2 H 0.32273 0.222784 0.191433
H98_2 H 0.495297 0.34199 0.321734
H99_2 H 0.485586 0.396704 0.310575
H100_2 H 0.458502 0.372244 0.367893
C45_3 C 0.7438(11) 0.3198(7) 0.1625(11)
H65_3 H 0.7187 0.3009 0.1464
H66_3 H 0.7780 0.3070 0.1590
C46_3 C 0.7433(12) 0.3622(7) 0.1318(14)
H67_3 H 0.7622 0.3834 0.1518
H68_3 H 0.7077 0.3719 0.1275
C47_3 C 0.7695(15) 0.3562(13) 0.0752(16)
H69_3 H 0.8070 0.3591 0.0779
H70_3 H 0.7617 0.3284 0.0613
C48_3 C 0.748(2) 0.3883(17) 0.0402(18)
H71_3 H 0.7208 0.4030 0.0581
H72_3 H 0.7349 0.3753 0.0086
H73_3 H 0.7754 0.4078 0.0308
C49_3 C 0.7713(10) 0.3469(8) 0.2516(11)
H74_3 H 0.7614 0.3468 0.2889
H75_3 H 0.7717 0.3760 0.2399
C50_3 C 0.8274(10) 0.3293(10) 0.2472(13)
H76_3 H 0.8290 0.3011 0.2621
H77_3 H 0.8379 0.3279 0.2102
C51_3 C 0.8620(12) 0.3574(9) 0.2765(11)
H78_3 H 0.8494 0.3820 0.2918
C52_3 C 0.9144(14) 0.3464(9) 0.2810(16)
H79_3 H 0.9218 0.3383 0.3170
H80_3 H 0.9356 0.3701 0.2715
H81_3 H 0.9219 0.3234 0.2575
C53_3 C 0.6782(11) 0.3455(9) 0.2287(12)
H82_3 H 0.6817 0.3735 0.2137
H83_3 H 0.6740 0.3493 0.2668
C54_3 C 0.6228(15) 0.3276(12) 0.2073(15)
C55_3 C 0.583(3) 0.358(2) 0.206(3)
C56_3 C 0.532(3) 0.368(2) 0.174(3)
C57_3 C 0.7279(9) 0.2799(7) 0.2419(9)
H84_3 H 0.7611 0.2664 0.2349
H85_3 H 0.7019 0.2652 0.2209
C58_3 C 0.7148(12) 0.2727(9) 0.3008(10)
H86_3 H 0.7385 0.2895 0.3221
H87_3 H 0.6799 0.2831 0.3073
C59_3 C 0.7178(11) 0.2275(9) 0.3198(12)
H88_3 H 0.7276 0.2054 0.2977
C60_3 C 0.7050(11) 0.2221(9) 0.3717(11)
H89_3 H 0.7163 0.2460 0.3919
H90_3 H 0.7216 0.1972 0.3851
H91_3 H 0.6679 0.2191 0.3748
N5_3 N 0.7312(8) 0.3244(7) 0.2214(9)
H92_3 H 0.870472 0.374458 0.239922
H93_3 H 0.605189 0.386881 0.200488
H94_3 H 0.568394 0.356628 0.246646
H95_3 H 0.610537 0.302068 0.233357
H96_3 H 0.628359 0.315547 0.167131
H97_3 H 0.67727 0.222784 0.308567
H98_3 H 0.504703 0.34199 0.178266
H99_3 H 0.514414 0.396704 0.189425
H100_3 H 0.541498 0.372244 0.132107
C45_4 C 0.7562(11) 0.1802(7) 0.6625(11)
H65_4 H 0.7813 0.1991 0.6464
H66_4 H 0.7220 0.1930 0.6590
C46_4 C 0.7567(12) 0.1378(7) 0.6318(14)
H67_4 H 0.7378 0.1166 0.6518
H68_4 H 0.7923 0.1281 0.6275
C47_4 C 0.7305(15) 0.1438(13) 0.5752(16)
H69_4 H 0.6930 0.1409 0.5779
H70_4 H 0.7383 0.1716 0.5613
C48_4 C 0.752(2) 0.1117(17) 0.5402(18)
H71_4 H 0.7792 0.0970 0.5581
H72_4 H 0.7651 0.1247 0.5086
H73_4 H 0.7246 0.0922 0.5308
C49_4 C 0.7287(10) 0.1531(8) 0.7516(11)
H74_4 H 0.7386 0.1532 0.7889
H75_4 H 0.7283 0.1240 0.7399
C50_4 C 0.6726(10) 0.1707(10) 0.7472(13)
H76_4 H 0.6710 0.1989 0.7621
H77_4 H 0.6621 0.1721 0.7102
C51_4 C 0.6380(12) 0.1426(9) 0.7765(11)
H78_4 H 0.6506 0.1180 0.7918
C52_4 C 0.5856(14) 0.1536(9) 0.7810(16)
H79_4 H 0.5782 0.1617 0.8170
H80_4 H 0.5644 0.1299 0.7715
H81_4 H 0.5781 0.1766 0.7575
C53_4 C 0.8218(11) 0.1545(9) 0.7287(12)
H82_4 H 0.8183 0.1265 0.7137
H83_4 H 0.8260 0.1507 0.7668
C54_4 C 0.8772(15) 0.1724(12) 0.7073(15)
C55_4 C 0.917(3) 0.142(2) 0.706(3)
C56_4 C 0.968(3) 0.132(2) 0.674(3)
C57_4 C 0.7721(9) 0.2201(7) 0.7419(9)
H84_4 H 0.7389 0.2336 0.7349
H85_4 H 0.7981 0.2348 0.7209
C58_4 C 0.7852(12) 0.2273(9) 0.8008(10)
H86_4 H 0.7615 0.2105 0.8221
H87_4 H 0.8201 0.2169 0.8073
C59_4 C 0.7822(11) 0.2725(9) 0.8198(12)
H88_4 H 0.7724 0.2946 0.7977
C60_4 C 0.7950(11) 0.2779(9) 0.8717(11)
H89_4 H 0.7837 0.2540 0.8919
H90_4 H 0.7784 0.3028 0.8851
H91_4 H 0.8321 0.2809 0.8748
N5_4 N 0.7688(8) 0.1756(7) 0.7214(9)
H92_4 H 0.629528 0.125542 0.739922
H93_4 H 0.894811 0.113119 0.700488
H94_4 H 0.931606 0.143372 0.746646
H95_4 H 0.889463 0.197932 0.733357
H96_4 H 0.871641 0.184453 0.667131
H97_4 H 0.82273 0.277216 0.808567
H98_4 H 0.995297 0.15801 0.678266
H99_4 H 0.985586 0.103296 0.689425
H100_4 H 0.958502 0.127756 0.632107
C45_5 C 0.7562(11) 0.8198(7) 0.1625(11)
H65_5 H 0.7813 0.8009 0.1464
H66_5 H 0.7220 0.8070 0.1590
C46_5 C 0.7567(12) 0.8622(7) 0.1318(14)
H67_5 H 0.7378 0.8834 0.1518
H68_5 H 0.7923 0.8719 0.1275
C47_5 C 0.7305(15) 0.8562(13) 0.0752(16)
H69_5 H 0.6930 0.8591 0.0779
H70_5 H 0.7383 0.8284 0.0613
C48_5 C 0.752(2) 0.8883(17) 0.0402(18)
H71_5 H 0.7792 0.9030 0.0581
H72_5 H 0.7651 0.8753 0.0086
H73_5 H 0.7246 0.9078 0.0308
C49_5 C 0.7287(10) 0.8469(8) 0.2516(11)
H74_5 H 0.7386 0.8468 0.2889
H75_5 H 0.7283 0.8760 0.2399
C50_5 C 0.6726(10) 0.8293(10) 0.2472(13)
H76_5 H 0.6710 0.8011 0.2621
H77_5 H 0.6621 0.8279 0.2102
C51_5 C 0.6380(12) 0.8574(9) 0.2765(11)
H78_5 H 0.6506 0.8820 0.2918
C52_5 C 0.5856(14) 0.8464(9) 0.2810(16)
H79_5 H 0.5782 0.8383 0.3170
H80_5 H 0.5644 0.8701 0.2715
H81_5 H 0.5781 0.8234 0.2575
C53_5 C 0.8218(11) 0.8455(9) 0.2287(12)
H82_5 H 0.8183 0.8735 0.2137
H83_5 H 0.8260 0.8493 0.2668
C54_5 C 0.8772(15) 0.8276(12) 0.2073(15)
C55_5 C 0.917(3) 0.858(2) 0.206(3)
C56_5 C 0.968(3) 0.868(2) 0.174(3)
C57_5 C 0.7721(9) 0.7799(7) 0.2419(9)
H84_5 H 0.7389 0.7664 0.2349
H85_5 H 0.7981 0.7652 0.2209
C58_5 C 0.7852(12) 0.7727(9) 0.3008(10)
H86_5 H 0.7615 0.7895 0.3221
H87_5 H 0.8201 0.7831 0.3073
C59_5 C 0.7822(11) 0.7275(9) 0.3198(12)
H88_5 H 0.7724 0.7054 0.2977
C60_5 C 0.7950(11) 0.7221(9) 0.3717(11)
H89_5 H 0.7837 0.7460 0.3919
H90_5 H 0.7784 0.6972 0.3851
H91_5 H 0.8321 0.7191 0.3748
N5_5 N 0.7688(8) 0.8244(7) 0.2214(9)
H92_5 H 0.629528 0.874458 0.239922
H93_5 H 0.894811 0.886881 0.200488
H94_5 H 0.931606 0.856628 0.246646
H95_5 H 0.889463 0.802068 0.233357
H96_5 H 0.871641 0.815547 0.167131
H97_5 H 0.82273 0.722784 0.308567
H98_5 H 0.995297 0.84199 0.178266
H99_5 H 0.985586 0.896704 0.189425
H100_5 H 0.958502 0.872244 0.132107
C45_6 C 0.7438(11) 0.6802(7) 0.6625(11)
H65_6 H 0.7187 0.6991 0.6464
H66_6 H 0.7780 0.6930 0.6590
C46_6 C 0.7433(12) 0.6378(7) 0.6318(14)
H67_6 H 0.7622 0.6166 0.6518
H68_6 H 0.7077 0.6281 0.6275
C47_6 C 0.7695(15) 0.6438(13) 0.5752(16)
H69_6 H 0.8070 0.6409 0.5779
H70_6 H 0.7617 0.6716 0.5613
C48_6 C 0.748(2) 0.6117(17) 0.5402(18)
H71_6 H 0.7208 0.5970 0.5581
H72_6 H 0.7349 0.6247 0.5086
H73_6 H 0.7754 0.5922 0.5308
C49_6 C 0.7713(10) 0.6531(8) 0.7516(11)
H74_6 H 0.7614 0.6532 0.7889
H75_6 H 0.7717 0.6240 0.7399
C50_6 C 0.8274(10) 0.6707(10) 0.7472(13)
H76_6 H 0.8290 0.6989 0.7621
H77_6 H 0.8379 0.6721 0.7102
C51_6 C 0.8620(12) 0.6426(9) 0.7765(11)
H78_6 H 0.8494 0.6180 0.7918
C52_6 C 0.9144(14) 0.6536(9) 0.7810(16)
H79_6 H 0.9218 0.6617 0.8170
H80_6 H 0.9356 0.6299 0.7715
H81_6 H 0.9219 0.6766 0.7575
C53_6 C 0.6782(11) 0.6545(9) 0.7287(12)
H82_6 H 0.6817 0.6265 0.7137
H83_6 H 0.6740 0.6507 0.7668
C54_6 C 0.6228(15) 0.6724(12) 0.7073(15)
C55_6 C 0.583(3) 0.642(2) 0.706(3)
C56_6 C 0.532(3) 0.632(2) 0.674(3)
C57_6 C 0.7279(9) 0.7201(7) 0.7419(9)
H84_6 H 0.7611 0.7336 0.7349
H85_6 H 0.7019 0.7348 0.7209
C58_6 C 0.7148(12) 0.7273(9) 0.8008(10)
H86_6 H 0.7385 0.7105 0.8221
H87_6 H 0.6799 0.7169 0.8073
C59_6 C 0.7178(11) 0.7725(9) 0.8198(12)
H88_6 H 0.7276 0.7946 0.7977
C60_6 C 0.7050(11) 0.7779(9) 0.8717(11)
H89_6 H 0.7163 0.7540 0.8919
H90_6 H 0.7216 0.8028 0.8851
H91_6 H 0.6679 0.7809 0.8748
N5_6 N 0.7312(8) 0.6756(7) 0.7214(9)
H92_6 H 0.870472 0.625542 0.739922
H93_6 H 0.605189 0.613119 0.700488
H94_6 H 0.568394 0.643372 0.746646
H95_6 H 0.610537 0.697932 0.733357
H96_6 H 0.628359 0.684453 0.667131
H97_6 H 0.67727 0.777216 0.808567
H98_6 H 0.504703 0.65801 0.678266
H99_6 H 0.514414 0.603296 0.689425
H100_6 H 0.541498 0.627756 0.632107
C45_7 C 0.2562(11) 0.6802(7) 0.8375(11)
H65_7 H 0.2813 0.6991 0.8536
H66_7 H 0.2220 0.6930 0.8410
C46_7 C 0.2567(12) 0.6378(7) 0.8682(14)
H67_7 H 0.2378 0.6166 0.8482
H68_7 H 0.2923 0.6281 0.8725
C47_7 C 0.2305(15) 0.6438(13) 0.9248(16)
H69_7 H 0.1930 0.6409 0.9221
H70_7 H 0.2383 0.6716 0.9387
C48_7 C 0.252(2) 0.6117(17) 0.9598(18)
H71_7 H 0.2792 0.5970 0.9419
H72_7 H 0.2651 0.6247 0.9914
H73_7 H 0.2246 0.5922 0.9692
C49_7 C 0.2287(10) 0.6531(8) 0.7484(11)
H74_7 H 0.2386 0.6532 0.7111
H75_7 H 0.2283 0.6240 0.7601
C50_7 C 0.1726(10) 0.6707(10) 0.7528(13)
H76_7 H 0.1710 0.6989 0.7379
H77_7 H 0.1621 0.6721 0.7898
C51_7 C 0.1380(12) 0.6426(9) 0.7235(11)
H78_7 H 0.1506 0.6180 0.7082
C52_7 C 0.0856(14) 0.6536(9) 0.7190(16)
H79_7 H 0.0782 0.6617 0.6830
H80_7 H 0.0644 0.6299 0.7285
H81_7 H 0.0781 0.6766 0.7425
C53_7 C 0.3218(11) 0.6545(9) 0.7713(12)
H82_7 H 0.3183 0.6265 0.7863
H83_7 H 0.3260 0.6507 0.7332
C54_7 C 0.3772(15) 0.6724(12) 0.7927(15)
C55_7 C 0.417(3) 0.642(2) 0.794(3)
C56_7 C 0.468(3) 0.632(2) 0.826(3)
C57_7 C 0.2721(9) 0.7201(7) 0.7581(9)
H84_7 H 0.2389 0.7336 0.7651
H85_7 H 0.2981 0.7348 0.7791
C58_7 C 0.2852(12) 0.7273(9) 0.6992(10)
H86_7 H 0.2615 0.7105 0.6779
H87_7 H 0.3201 0.7169 0.6927
C59_7 C 0.2822(11) 0.7725(9) 0.6802(12)
H88_7 H 0.2724 0.7946 0.7023
C60_7 C 0.2950(11) 0.7779(9) 0.6283(11)
H89_7 H 0.2837 0.7540 0.6081
H90_7 H 0.2784 0.8028 0.6149
H91_7 H 0.3321 0.7809 0.6252
N5_7 N 0.2688(8) 0.6756(7) 0.7786(9)
H92_7 H 0.129528 0.625542 0.760078
H93_7 H 0.394811 0.613119 0.799512
H94_7 H 0.431606 0.643372 0.753354
H95_7 H 0.389463 0.697932 0.766643
H96_7 H 0.371641 0.684453 0.832869
H97_7 H 0.32273 0.777216 0.691433
H98_7 H 0.495297 0.65801 0.821734
H99_7 H 0.485586 0.603296 0.810575
H100_7 H 0.458502 0.627756 0.867893
C45_8 C 0.2438(11) 0.8198(7) 0.3375(11)
H65_8 H 0.2187 0.8009 0.3536
H66_8 H 0.2780 0.8070 0.3410
C46_8 C 0.2433(12) 0.8622(7) 0.3682(14)
H67_8 H 0.2622 0.8834 0.3482
H68_8 H 0.2077 0.8719 0.3725
C47_8 C 0.2695(15) 0.8562(13) 0.4248(16)
H69_8 H 0.3070 0.8591 0.4221
H70_8 H 0.2617 0.8284 0.4387
C48_8 C 0.248(2) 0.8883(17) 0.4598(18)
H71_8 H 0.2208 0.9030 0.4419
H72_8 H 0.2349 0.8753 0.4914
H73_8 H 0.2754 0.9078 0.4692
C49_8 C 0.2713(10) 0.8469(8) 0.2484(11)
H74_8 H 0.2614 0.8468 0.2111
H75_8 H 0.2717 0.8760 0.2601
C50_8 C 0.3274(10) 0.8293(10) 0.2528(13)
H76_8 H 0.3290 0.8011 0.2379
H77_8 H 0.3379 0.8279 0.2898
C51_8 C 0.3620(12) 0.8574(9) 0.2235(11)
H78_8 H 0.3494 0.8820 0.2082
C52_8 C 0.4144(14) 0.8464(9) 0.2190(16)
H79_8 H 0.4218 0.8383 0.1830
H80_8 H 0.4356 0.8701 0.2285
H81_8 H 0.4219 0.8234 0.2425
C53_8 C 0.1782(11) 0.8455(9) 0.2713(12)
H82_8 H 0.1817 0.8735 0.2863
H83_8 H 0.1740 0.8493 0.2332
C54_8 C 0.1228(15) 0.8276(12) 0.2927(15)
C55_8 C 0.083(3) 0.858(2) 0.294(3)
C56_8 C 0.032(3) 0.868(2) 0.326(3)
C57_8 C 0.2279(9) 0.7799(7) 0.2581(9)
H84_8 H 0.2611 0.7664 0.2651
H85_8 H 0.2019 0.7652 0.2791
C58_8 C 0.2148(12) 0.7727(9) 0.1992(10)
H86_8 H 0.2385 0.7895 0.1779
H87_8 H 0.1799 0.7831 0.1927
C59_8 C 0.2178(11) 0.7275(9) 0.1802(12)
H88_8 H 0.2276 0.7054 0.2023
C60_8 C 0.2050(11) 0.7221(9) 0.1283(11)
H89_8 H 0.2163 0.7460 0.1081
H90_8 H 0.2216 0.6972 0.1149
H91_8 H 0.1679 0.7191 0.1252
N5_8 N 0.2312(8) 0.8244(7) 0.2786(9)
H92_8 H 0.370472 0.874458 0.260078
H93_8 H 0.105189 0.886881 0.299512
H94_8 H 0.0683939 0.856628 0.253354
H95_8 H 0.110537 0.802068 0.266643
H96_8 H 0.128359 0.815547 0.332869
H97_8 H 0.17727 0.722784 0.191433
H98_8 H 0.00470339 0.84199 0.321734
H99_8 H 0.0144142 0.896704 0.310575
H100_8 H 0.0414981 0.872244 0.367893
loop_
_geom_bond_atom_site_label_1
_geom_bond_atom_site_label_2
_geom_bond_site_symmetry_1
_geom_bond_site_symmetry_2
C1 C8 1_555 1_555
C2 H1 1_555 1_555
C3 C2 1_555 1_555
H4 C3 1_555 1_555
C4 C3 1_555 1_555
H5 C4 1_555 1_555
H6 C4 1_555 1_555
N1 C2 1_555 1_555
C6 N1 1_555 1_555
H7 C6 1_555 1_555
H8 C6 1_555 1_555
C7 C6 1_555 1_555
H9 C7 1_555 1_555
H10 C7 1_555 1_555
C8 C7 1_555 1_555
C8 H101 1_555 1_555
C8 H102 1_555 1_555
C1 H109 1_555 1_555
C1 H110 1_555 1_555
C1 H111 1_555 1_555
C13 H112 1_555 1_555
C13 H113 1_555 1_555
C13 H114 1_555 1_555
C9 C16 1_555 1_555
C10 N1_2 1_555 1_555
H11 C10 1_555 1_555
C11 C10 1_555 1_555
H14 C11 1_555 1_555
C12 C11 1_555 1_555
H15 C12 1_555 1_555
H16 C12 1_555 1_555
C14 N1_2 1_555 1_555
H17 C14 1_555 1_555
H18 C14 1_555 1_555
C15 C14 1_555 1_555
H19 C15 1_555 1_555
H20 C15 1_555 1_555
C16 C15 1_555 1_555
C5 H103 1_555 1_555
C5 H104 1_555 1_555
C5 H105 1_555 1_555
C9 H106 1_555 1_555
C9 H107 1_555 1_555
C9 H108 1_555 1_555
C16 H115 1_555 1_555
C16 H116 1_555 1_555
C1_2 C8_2 1_555 1_555
C2_2 H1_2 1_555 1_555
H2_2 C2_2 1_555 1_555
C3_2 C2_2 1_555 1_555
H3_2 C3_2 1_555 1_555
H4_2 C3_2 1_555 1_555
C4_2 C3_2 1_555 1_555
H5_2 C4_2 1_555 1_555
H6_2 C4_2 1_555 1_555
C5_2 C4_2 1_555 1_555
N1_3 C2_2 1_555 1_555
C6_2 N1_3 1_555 1_555
H7_2 C6_2 1_555 1_555
H8_2 C6_2 1_555 1_555
C7_2 C6_2 1_555 1_555
H9_2 C7_2 1_555 1_555
H10_2 C7_2 1_555 1_555
C8_2 C7_2 1_555 1_555
C9_2 C16_2 1_555 1_555
C10_2 N1_3 1_555 1_555
H11_2 C10_2 1_555 1_555
H12_2 C10_2 1_555 1_555
C11_2 C10_2 1_555 1_555
H13_2 C11_2 1_555 1_555
H14_2 C11_2 1_555 1_555
C12_2 C11_2 1_555 1_555
H15_2 C12_2 1_555 1_555
H16_2 C12_2 1_555 1_555
C13_2 C12_2 1_555 1_555
C14_2 N1_3 1_555 1_555
H17_2 C14_2 1_555 1_555
H18_2 C14_2 1_555 1_555
C15_2 C14_2 1_555 1_555
H19_2 C15_2 1_555 1_555
H20_2 C15_2 1_555 1_555
C16_2 C15_2 1_555 1_555
C8_2 H101_2 1_555 1_555
C8_2 H102_2 1_555 1_555
C5_2 H103_2 1_555 1_555
C5_2 H104_2 1_555 1_555
C5_2 H105_2 1_555 1_555
C9_2 H106_2 1_555 1_555
C9_2 H107_2 1_555 1_555
C9_2 H108_2 1_555 1_555
C1_2 H109_2 1_555 1_555
C1_2 H110_2 1_555 1_555
C1_2 H111_2 1_555 1_555
C13_2 H112_2 1_555 1_555
C13_2 H113_2 1_555 1_555
C13_2 H114_2 1_555 1_555
C16_2 H115_2 1_555 1_555
C16_2 H116_2 1_555 1_555
C9_3 C16_3 1_555 1_555
C10_3 N1_4 1_555 1_555
H11_3 C10_3 1_555 1_555
C11_3 C10_3 1_555 1_555
H14_3 C11_3 1_555 1_555
C12_3 C11_3 1_555 1_555
H15_3 C12_3 1_555 1_555
H16_3 C12_3 1_555 1_555
C14_3 N1_4 1_555 1_555
H17_3 C14_3 1_555 1_555
H18_3 C14_3 1_555 1_555
C15_3 C14_3 1_555 1_555
H19_3 C15_3 1_555 1_555
H20_3 C15_3 1_555 1_555
C16_3 C15_3 1_555 1_555
C5_3 H103_3 1_555 1_555
C5_3 H104_3 1_555 1_555
C5_3 H105_3 1_555 1_555
C9_3 H106_3 1_555 1_555
C9_3 H107_3 1_555 1_555
C9_3 H108_3 1_555 1_555
C16_3 H115_3 1_555 1_555
C16_3 H116_3 1_555 1_555
C1_3 C8_3 1_555 1_555
C2_3 H1_3 1_555 1_555
C3_3 C2_3 1_555 1_555
H4_3 C3_3 1_555 1_555
C4_3 C3_3 1_555 1_555
H5_3 C4_3 1_555 1_555
H6_3 C4_3 1_555 1_555
N1_5 C2_3 1_555 1_555
C6_3 N1_5 1_555 1_555
H7_3 C6_3 1_555 1_555
H8_3 C6_3 1_555 1_555
C7_3 C6_3 1_555 1_555
H9_3 C7_3 1_555 1_555
H10_3 C7_3 1_555 1_555
C8_3 C7_3 1_555 1_555
C8_3 H101_3 1_555 1_555
C8_3 H102_3 1_555 1_555
C1_3 H109_3 1_555 1_555
C1_3 H110_3 1_555 1_555
C1_3 H111_3 1_555 1_555
C13_3 H112_3 1_555 1_555
C13_3 H113_3 1_555 1_555
C13_3 H114_3 1_555 1_555
C1_4 C8_4 1_555 1_555
C2_4 H1_4 1_555 1_555
H2_4 C2_4 1_555 1_555
C3_4 C2_4 1_555 1_555
H3_4 C3_4 1_555 1_555
H4_4 C3_4 1_555 1_555
C4_4 C3_4 1_555 1_555
H5_4 C4_4 1_555 1_555
H6_4 C4_4 1_555 1_555
C5_4 C4_4 1_555 1_555
N1_6 C2_4 1_555 1_555
C6_4 N1_6 1_555 1_555
H7_4 C6_4 1_555 1_555
H8_4 C6_4 1_555 1_555
C7_4 C6_4 1_555 1_555
H9_4 C7_4 1_555 1_555
H10_4 C7_4 1_555 1_555
C8_4 C7_4 1_555 1_555
C9_4 C16_4 1_555 1_555
C10_4 N1_6 1_555 1_555
H11_4 C10_4 1_555 1_555
H12_4 C10_4 1_555 1_555
C11_4 C10_4 1_555 1_555
H13_4 C11_4 1_555 1_555
H14_4 C11_4 1_555 1_555
C12_4 C11_4 1_555 1_555
H15_4 C12_4 1_555 1_555
H16_4 C12_4 1_555 1_555
C13_4 C12_4 1_555 1_555
C14_4 N1_6 1_555 1_555
H17_4 C14_4 1_555 1_555
H18_4 C14_4 1_555 1_555
C15_4 C14_4 1_555 1_555
H19_4 C15_4 1_555 1_555
H20_4 C15_4 1_555 1_555
C16_4 C15_4 1_555 1_555
C8_4 H101_4 1_555 1_555
C8_4 H102_4 1_555 1_555
C5_4 H103_4 1_555 1_555
C5_4 H104_4 1_555 1_555
C5_4 H105_4 1_555 1_555
C9_4 H106_4 1_555 1_555
C9_4 H107_4 1_555 1_555
C9_4 H108_4 1_555 1_555
C1_4 H109_4 1_555 1_555
C1_4 H110_4 1_555 1_555
C1_4 H111_4 1_555 1_555
C13_4 H112_4 1_555 1_555
C13_4 H113_4 1_555 1_555
C13_4 H114_4 1_555 1_555
C16_4 H115_4 1_555 1_555
C16_4 H116_4 1_555 1_555
Mo1 Mo7 1_555 1_555
Mo2 Mo10 1_555 1_555
Mo3 O5 1_555 1_555
Mo4 Mo11 1_555 1_555
Mo5 Mo8 1_555 1_555
Mo6 O1 1_555 1_555
Mo7 O6 1_555 1_555
Mo8 O3 1_555 1_555
Mo9 O1 1_555 1_555
Mo10 O6 1_555 1_555
Mo11 O2 1_555 1_555
Mo12 O8 1_555 1_555
P1 O5 1_555 1_555
Zn1 N2 1_555 1_555
Zn2 O1 1_555 1_555
Zn3 O28 1_555 1_555
Zn4 N3 1_555 1_555
C17 H21 1_555 1_555
C18 C17 1_555 1_555
H22 C18 1_555 1_555
C19 C18 1_555 1_555
C20 C19 1_555 1_555
H23 C20 1_555 1_555
C21 C20 1_555 1_555
H24 C21 1_555 1_555
C22 C19 1_555 1_555
C23 H25 1_555 1_555
C24 C23 1_555 1_555
H26 C24 1_555 1_555
C25 C24 1_555 1_555
C26 C25 1_555 1_555
H27 C26 1_555 1_555
C27 C26 1_555 1_555
H28 C27 1_555 1_555
N2 C17 1_555 1_555
N3 C23 1_555 1_555
O2 Mo9 1_555 1_555
O3 Mo9 1_555 1_555
O4 Mo5 1_555 1_555
O5 Mo2 1_555 1_555
O6 P1 1_555 1_555
O7 Mo8 1_555 1_555
O8 Mo1 1_555 1_555
O9 Mo11 1_555 1_555
O10 Mo12 1_555 1_555
O11 Mo8 1_555 1_555
O12 Mo3 1_555 1_555
O13 Mo6 1_555 1_555
O14 Mo2 1_555 1_555
O16 Mo4 1_555 1_555
O17 Mo5 1_555 1_555
O18 Mo2 1_555 1_555
O19 Mo4 1_555 1_555
O21 Mo8 1_555 1_555
O22 Mo6 1_555 1_555
O23 Mo1 1_555 1_555
O24 Mo2 1_555 1_555
O25 Mo3 1_555 1_555
O26 Mo1 1_555 1_555
O27 Mo4 1_555 1_555
O28 Mo6 1_555 1_555
O29 Mo2 1_555 1_555
O30 Mo2 1_555 1_555
O31 Mo5 1_555 1_555
O32 Mo1 1_555 1_555
O33 Mo3 1_555 1_555
O34 Mo3 1_555 1_555
O35 Mo7 1_555 1_555
O36 Mo1 1_555 1_555
O37 Mo4 1_555 1_555
O38 Mo6 1_555 1_555
O39 Mo9 1_555 1_555
O40 Mo10 1_555 1_555
O41 C22 1_555 1_555
O42 C22 1_555 1_555
O46 Zn3 1_555 1_555
Mo3 O24 1_555 1_555
Mo4 O8 1_555 1_555
Mo4 O32 1_555 1_555
Mo5 O5 1_555 1_555
Mo5 O18 1_555 1_555
Mo5 O25 1_555 1_555
Mo7 O22 1_555 1_555
Mo7 O26 1_555 1_555
Mo7 O36 1_555 1_555
Mo8 O4 1_555 1_555
Mo8 O31 1_555 1_555
Mo9 O28 1_555 1_555
Mo10 O13 1_555 1_555
Mo10 O29 1_555 1_555
Mo10 O30 1_555 1_555
Mo10 O35 1_555 1_555
Mo11 O7 1_555 1_555
Mo11 O21 1_555 1_555
Mo11 O27 1_555 1_555
Mo11 O37 1_555 1_555
Mo12 O19 1_555 1_555
Mo12 O23 1_555 1_555
Mo12 O33 1_555 1_555
Mo12 O34 1_555 1_555
P1 O7 1_555 1_555
P1 O8 1_555 1_555
Zn1 O30 1_555 1_555
Zn1 O33 1_555 1_555
Zn1 O36 1_555 1_555
Zn2 O26 1_555 1_555
Zn2 O27 1_555 1_555
Zn3 O29 1_555 1_555
Zn3 O31 1_555 1_555
Zn4 O4 1_555 1_555
Zn4 O34 1_555 1_555
Zn4 O37 1_555 1_555
C21 N2 1_555 1_555
C27 N3 1_555 1_555
O43 C28 1_555 1_555
O44 C28 1_555 1_555
Zn6 O44 1_555 1_555
Mo1_2 Mo7_2 1_555 1_555
Mo2_2 Mo10_2 1_555 1_555
Mo3_2 O5_2 1_555 1_555
Mo4_2 Mo11_2 1_555 1_555
Mo5_2 Mo8_2 1_555 1_555
Mo6_2 O1_2 1_555 1_555
Mo7_2 O6_2 1_555 1_555
Mo8_2 O3_2 1_555 1_555
Mo9_2 O1_2 1_555 1_555
Mo10_2 O6_2 1_555 1_555
Mo11_2 O2_2 1_555 1_555
Mo12_2 O8_2 1_555 1_555
P1_2 O5_2 1_555 1_555
Zn1_2 N2_2 1_555 1_555
Zn2_2 O1_2 1_555 1_555
Zn6 O28_2 1_555 1_555
Zn4_2 N3_2 1_555 1_555
C17_2 H21_2 1_555 1_555
C18_2 C17_2 1_555 1_555
H22_2 C18_2 1_555 1_555
C19_2 C18_2 1_555 1_555
C20_2 C19_2 1_555 1_555
H23_2 C20_2 1_555 1_555
C21_2 C20_2 1_555 1_555
H24_2 C21_2 1_555 1_555
C22_2 C19_2 1_555 1_555
C23_2 H25_2 1_555 1_555
C24_2 C23_2 1_555 1_555
H26_2 C24_2 1_555 1_555
C25_2 C24_2 1_555 1_555
C26_2 C25_2 1_555 1_555
H27_2 C26_2 1_555 1_555
C27_2 C26_2 1_555 1_555
H28_2 C27_2 1_555 1_555
C28_2 C25_2 1_555 1_555
N2_2 C17_2 1_555 1_555
N3_2 C23_2 1_555 1_555
O2_2 Mo9_2 1_555 1_555
O3_2 Mo9_2 1_555 1_555
O4_2 Mo5_2 1_555 1_555
O5_2 Mo2_2 1_555 1_555
O6_2 P1_2 1_555 1_555
O7_2 Mo8_2 1_555 1_555
O8_2 Mo1_2 1_555 1_555
O9_2 Mo11_2 1_555 1_555
O10_2 Mo12_2 1_555 1_555
O11_2 Mo8_2 1_555 1_555
O12_2 Mo3_2 1_555 1_555
O13_2 Mo6_2 1_555 1_555
O14_2 Mo2_2 1_555 1_555
O15_2 Mo1_2 1_555 1_555
O16_2 Mo4_2 1_555 1_555
O17_2 Mo5_2 1_555 1_555
O18_2 Mo2_2 1_555 1_555
O19_2 Mo4_2 1_555 1_555
O20_2 Mo7_2 1_555 1_555
O21_2 Mo8_2 1_555 1_555
O22_2 Mo6_2 1_555 1_555
O23_2 Mo1_2 1_555 1_555
O24_2 Mo2_2 1_555 1_555
O25_2 Mo3_2 1_555 1_555
O26_2 Mo1_2 1_555 1_555
O27_2 Mo4_2 1_555 1_555
O28_2 Mo6_2 1_555 1_555
O29_2 Mo2_2 1_555 1_555
O30_2 Mo2_2 1_555 1_555
O31_2 Mo5_2 1_555 1_555
O32_2 Mo1_2 1_555 1_555
O33_2 Mo3_2 1_555 1_555
O34_2 Mo3_2 1_555 1_555
O35_2 Mo7_2 1_555 1_555
O36_2 Mo1_2 1_555 1_555
O37_2 Mo4_2 1_555 1_555
O38_2 Mo6_2 1_555 1_555
O39_2 Mo9_2 1_555 1_555
O40_2 Mo10_2 1_555 1_555
O41_2 C22_2 1_555 1_555
O42_2 C22_2 1_555 1_555
O43_2 C28_2 1_555 1_555
O46 C28_2 1_555 1_555
Zn5_2 O41_2 1_555 1_555
O45_2 Zn2_2 1_555 1_555
Mo3_2 O24_2 1_555 1_555
Mo4_2 O8_2 1_555 1_555
Mo4_2 O32_2 1_555 1_555
Mo5_2 O5_2 1_555 1_555
Mo5_2 O18_2 1_555 1_555
Mo5_2 O25_2 1_555 1_555
Mo7_2 O22_2 1_555 1_555
Mo7_2 O26_2 1_555 1_555
Mo7_2 O36_2 1_555 1_555
Mo8_2 O4_2 1_555 1_555
Mo8_2 O31_2 1_555 1_555
Mo9_2 O28_2 1_555 1_555
Mo10_2 O13_2 1_555 1_555
Mo10_2 O29_2 1_555 1_555
Mo10_2 O30_2 1_555 1_555
Mo10_2 O35_2 1_555 1_555
Mo11_2 O7_2 1_555 1_555
Mo11_2 O21_2 1_555 1_555
Mo11_2 O27_2 1_555 1_555
Mo11_2 O37_2 1_555 1_555
Mo12_2 O19_2 1_555 1_555
Mo12_2 O23_2 1_555 1_555
Mo12_2 O33_2 1_555 1_555
Mo12_2 O34_2 1_555 1_555
P1_2 O7_2 1_555 1_555
P1_2 O8_2 1_555 1_555
Zn1_2 O30_2 1_555 1_555
Zn1_2 O33_2 1_555 1_555
Zn1_2 O36_2 1_555 1_555
Zn2_2 O26_2 1_555 1_555
Zn2_2 O27_2 1_555 1_555
Zn6 O29_2 1_555 1_555
Zn6 O31_2 1_555 1_555
Zn4_2 O4_2 1_555 1_555
Zn4_2 O34_2 1_555 1_555
Zn4_2 O37_2 1_555 1_555
C21_2 N2_2 1_555 1_555
C27_2 N3_2 1_555 1_555
Mo1_3 Mo7_3 1_555 1_555
Mo2_3 Mo10_3 1_555 1_555
Mo3_3 O5_3 1_555 1_555
Mo7_3 O6_3 1_555 1_555
Mo10_3 O6_3 1_555 1_555
Mo12_3 O8_3 1_555 1_555
P1_3 O5_3 1_555 1_555
Zn1_3 N2_3 1_555 1_555
Zn3_2 O28_3 1_555 1_555
C17_3 H21_3 1_555 1_555
C18_3 C17_3 1_555 1_555
H22_3 C18_3 1_555 1_555
C19_3 C18_3 1_555 1_555
C20_3 C19_3 1_555 1_555
H23_3 C20_3 1_555 1_555
C21_3 C20_3 1_555 1_555
H24_3 C21_3 1_555 1_555
C22_3 C19_3 1_555 1_555
N2_3 C17_3 1_555 1_555
O5_3 Mo2_3 1_555 1_555
O6_3 P1_3 1_555 1_555
O8_3 Mo1_3 1_555 1_555
O10_3 Mo12_3 1_555 1_555
O12_3 Mo3_3 1_555 1_555
O13_3 Mo6_3 1_555 1_555
O14_3 Mo2_3 1_555 1_555
O15_3 Mo1_3 1_555 1_555
O17_3 Mo5_3 1_555 1_555
O18_3 Mo2_3 1_555 1_555
O20_3 Mo7_3 1_555 1_555
O22_3 Mo6_3 1_555 1_555
O23_3 Mo1_3 1_555 1_555
O24_3 Mo2_3 1_555 1_555
O25_3 Mo3_3 1_555 1_555
O26_3 Mo1_3 1_555 1_555
O28_3 Mo6_3 1_555 1_555
O29_3 Mo2_3 1_555 1_555
O30_3 Mo2_3 1_555 1_555
O31_3 Mo5_3 1_555 1_555
O32_3 Mo1_3 1_555 1_555
O33_3 Mo3_3 1_555 1_555
O34_3 Mo3_3 1_555 1_555
O35_3 Mo7_3 1_555 1_555
O36_3 Mo1_3 1_555 1_555
O38_3 Mo6_3 1_555 1_555
O40_3 Mo10_3 1_555 1_555
O45_2 C22_3 1_555 1_555
O42_3 C22_3 1_555 1_555
O46_2 Zn3_2 1_555 1_555
Mo3_3 O24_3 1_555 1_555
Mo5_3 O5_3 1_555 1_555
Mo5_3 O18_3 1_555 1_555
Mo5_3 O25_3 1_555 1_555
Mo7_3 O22_3 1_555 1_555
Mo7_3 O26_3 1_555 1_555
Mo7_3 O36_3 1_555 1_555
Mo10_3 O13_3 1_555 1_555
Mo10_3 O29_3 1_555 1_555
Mo10_3 O30_3 1_555 1_555
Mo10_3 O35_3 1_555 1_555
Mo12_3 O19_3 1_555 1_555
Mo12_3 O23_3 1_555 1_555
Mo12_3 O33_3 1_555 1_555
Mo12_3 O34_3 1_555 1_555
P1_3 O8_3 1_555 1_555
Zn1_3 O30_3 1_555 1_555
Zn1_3 O33_3 1_555 1_555
Zn1_3 O36_3 1_555 1_555
Zn3_2 O29_3 1_555 1_555
Zn3_2 O31_3 1_555 1_555
C21_3 N2_3 1_555 1_555
Mo4_3 Mo11_3 1_555 1_555
Mo8_3 O3_3 1_555 1_555
Mo9_3 O1_3 1_555 1_555
Mo11_3 O2_3 1_555 1_555
Zn5_2 O1_3 1_555 1_555
Zn4_3 N3_3 1_555 1_555
C23_3 H25_3 1_555 1_555
C24_3 C23_3 1_555 1_555
H26_3 C24_3 1_555 1_555
C25_3 C24_3 1_555 1_555
C26_3 C25_3 1_555 1_555
H27_3 C26_3 1_555 1_555
C27_3 C26_3 1_555 1_555
H28_3 C27_3 1_555 1_555
C28_3 C25_3 1_555 1_555
N3_3 C23_3 1_555 1_555
O2_3 Mo9_3 1_555 1_555
O3_3 Mo9_3 1_555 1_555
O7_3 Mo8_3 1_555 1_555
O9_3 Mo11_3 1_555 1_555
O11_3 Mo8_3 1_555 1_555
O16_3 Mo4_3 1_555 1_555
O21_3 Mo8_3 1_555 1_555
O27_3 Mo4_3 1_555 1_555
O37_3 Mo4_3 1_555 1_555
O39_3 Mo9_3 1_555 1_555
O43_3 C28_3 1_555 1_555
O44_2 C28_3 1_555 1_555
Zn6_2 O44_2 1_555 1_555
Mo8_3 O4_3 1_555 1_555
Mo11_3 O7_3 1_555 1_555
Mo11_3 O21_3 1_555 1_555
Mo11_3 O27_3 1_555 1_555
Mo11_3 O37_3 1_555 1_555
Zn5_2 O27_3 1_555 1_555
Zn4_3 O4_3 1_555 1_555
Zn4_3 O37_3 1_555 1_555
C27_3 N3_3 1_555 1_555
Mo4_4 Mo11_4 1_555 1_555
Mo8_4 O3_4 1_555 1_555
Mo9_4 O1_4 1_555 1_555
Mo11_4 O2_4 1_555 1_555
Zn5 O1_4 1_555 1_555
Zn4_4 N3_4 1_555 1_555
C23_4 H25_4 1_555 1_555
C24_4 C23_4 1_555 1_555
H26_4 C24_4 1_555 1_555
C25_4 C24_4 1_555 1_555
C26_4 C25_4 1_555 1_555
H27_4 C26_4 1_555 1_555
C27_4 C26_4 1_555 1_555
H28_4 C27_4 1_555 1_555
N3_4 C23_4 1_555 1_555
O2_4 Mo9_4 1_555 1_555
O3_4 Mo9_4 1_555 1_555
O7_4 Mo8_4 1_555 1_555
O9_4 Mo11_4 1_555 1_555
O11_4 Mo8_4 1_555 1_555
O16_4 Mo4_4 1_555 1_555
O21_4 Mo8_4 1_555 1_555
O27_4 Mo4_4 1_555 1_555
O37_4 Mo4_4 1_555 1_555
O39_4 Mo9_4 1_555 1_555
Mo8_4 O4_4 1_555 1_555
Mo11_4 O7_4 1_555 1_555
Mo11_4 O21_4 1_555 1_555
Mo11_4 O27_4 1_555 1_555
Mo11_4 O37_4 1_555 1_555
Zn5 O27_4 1_555 1_555
Zn4_4 O4_4 1_555 1_555
Zn4_4 O37_4 1_555 1_555
C27_4 N3_4 1_555 1_555
Mo1_4 Mo7_4 1_555 1_555
Mo2_4 Mo10_4 1_555 1_555
Mo3_4 O5_4 1_555 1_555
Mo7_4 O6_4 1_555 1_555
Mo10_4 O6_4 1_555 1_555
Mo12_4 O8_4 1_555 1_555
P1_4 O5_4 1_555 1_555
Zn1_4 N2_4 1_555 1_555
Zn6_2 O28_4 1_555 1_555
C17_4 H21_4 1_555 1_555
C18_4 C17_4 1_555 1_555
H22_4 C18_4 1_555 1_555
C19_4 C18_4 1_555 1_555
C20_4 C19_4 1_555 1_555
H23_4 C20_4 1_555 1_555
C21_4 C20_4 1_555 1_555
H24_4 C21_4 1_555 1_555
C22_4 C19_4 1_555 1_555
N2_4 C17_4 1_555 1_555
O5_4 Mo2_4 1_555 1_555
O6_4 P1_4 1_555 1_555
O8_4 Mo1_4 1_555 1_555
O10_4 Mo12_4 1_555 1_555
O12_4 Mo3_4 1_555 1_555
O13_4 Mo6_4 1_555 1_555
O14_4 Mo2_4 1_555 1_555
O17_4 Mo5_4 1_555 1_555
O18_4 Mo2_4 1_555 1_555
O22_4 Mo6_4 1_555 1_555
O23_4 Mo1_4 1_555 1_555
O24_4 Mo2_4 1_555 1_555
O25_4 Mo3_4 1_555 1_555
O26_4 Mo1_4 1_555 1_555
O28_4 Mo6_4 1_555 1_555
O29_4 Mo2_4 1_555 1_555
O30_4 Mo2_4 1_555 1_555
O31_4 Mo5_4 1_555 1_555
O32_4 Mo1_4 1_555 1_555
O33_4 Mo3_4 1_555 1_555
O34_4 Mo3_4 1_555 1_555
O35_4 Mo7_4 1_555 1_555
O36_4 Mo1_4 1_555 1_555
O38_4 Mo6_4 1_555 1_555
O40_4 Mo10_4 1_555 1_555
O45 C22_4 1_555 1_555
O42_4 C22_4 1_555 1_555
Mo3_4 O24_4 1_555 1_555
Mo5_4 O5_4 1_555 1_555
Mo5_4 O18_4 1_555 1_555
Mo5_4 O25_4 1_555 1_555
Mo7_4 O22_4 1_555 1_555
Mo7_4 O26_4 1_555 1_555
Mo7_4 O36_4 1_555 1_555
Mo10_4 O13_4 1_555 1_555
Mo10_4 O29_4 1_555 1_555
Mo10_4 O30_4 1_555 1_555
Mo10_4 O35_4 1_555 1_555
Mo12_4 O19_4 1_555 1_555
Mo12_4 O23_4 1_555 1_555
Mo12_4 O33_4 1_555 1_555
Mo12_4 O34_4 1_555 1_555
P1_4 O8_4 1_555 1_555
Zn1_4 O30_4 1_555 1_555
Zn1_4 O33_4 1_555 1_555
Zn1_4 O36_4 1_555 1_555
Zn6_2 O29_4 1_555 1_555
Zn6_2 O31_4 1_555 1_555
C21_4 N2_4 1_555 1_555
O43_4 C28_4 1_555 1_555
O46_2 C28_4 1_555 1_555
Mo4_5 Mo11_5 1_555 1_555
Mo8_5 O3_5 1_555 1_555
Mo9_5 O1_5 1_555 1_555
Mo11_5 O2_5 1_555 1_555
Zn2_3 O1_5 1_555 1_555
Zn4_5 N3_5 1_555 1_555
C23_5 H25_5 1_555 1_555
C24_5 C23_5 1_555 1_555
H26_5 C24_5 1_555 1_555
C25_5 C24_5 1_555 1_555
C26_5 C25_5 1_555 1_555
H27_5 C26_5 1_555 1_555
C27_5 C26_5 1_555 1_555
H28_5 C27_5 1_555 1_555
C28_5 C25_5 1_555 1_555
N3_5 C23_5 1_555 1_555
O2_5 Mo9_5 1_555 1_555
O3_5 Mo9_5 1_555 1_555
O7_5 Mo8_5 1_555 1_555
O9_5 Mo11_5 1_555 1_555
O11_5 Mo8_5 1_555 1_555
O16_5 Mo4_5 1_555 1_555
O21_5 Mo8_5 1_555 1_555
O27_5 Mo4_5 1_555 1_555
O37_5 Mo4_5 1_555 1_555
O39_5 Mo9_5 1_555 1_555
O43_5 C28_5 1_555 1_555
O44_3 C28_5 1_555 1_555
Zn6_3 O44_3 1_555 1_555
O45_3 Zn2_3 1_555 1_555
Mo8_5 O4_5 1_555 1_555
Mo11_5 O7_5 1_555 1_555
Mo11_5 O21_5 1_555 1_555
Mo11_5 O27_5 1_555 1_555
Mo11_5 O37_5 1_555 1_555
Zn2_3 O27_5 1_555 1_555
Zn4_5 O4_5 1_555 1_555
Zn4_5 O37_5 1_555 1_555
C27_5 N3_5 1_555 1_555
Mo1_5 Mo7_5 1_555 1_555
Mo2_5 Mo10_5 1_555 1_555
Mo3_5 O5_5 1_555 1_555
Mo7_5 O6_5 1_555 1_555
Mo10_5 O6_5 1_555 1_555
Mo12_5 O8_5 1_555 1_555
P1_5 O5_5 1_555 1_555
Zn1_5 N2_5 1_555 1_555
Zn3_3 O28_5 1_555 1_555
C17_5 H21_5 1_555 1_555
C18_5 C17_5 1_555 1_555
H22_5 C18_5 1_555 1_555
C19_5 C18_5 1_555 1_555
C20_5 C19_5 1_555 1_555
H23_5 C20_5 1_555 1_555
C21_5 C20_5 1_555 1_555
H24_5 C21_5 1_555 1_555
C22_5 C19_5 1_555 1_555
N2_5 C17_5 1_555 1_555
O5_5 Mo2_5 1_555 1_555
O6_5 P1_5 1_555 1_555
O8_5 Mo1_5 1_555 1_555
O10_5 Mo12_5 1_555 1_555
O12_5 Mo3_5 1_555 1_555
O13_5 Mo6_5 1_555 1_555
O14_5 Mo2_5 1_555 1_555
O15_5 Mo1_5 1_555 1_555
O17_5 Mo5_5 1_555 1_555
O18_5 Mo2_5 1_555 1_555
O20_5 Mo7_5 1_555 1_555
O22_5 Mo6_5 1_555 1_555
O23_5 Mo1_5 1_555 1_555
O24_5 Mo2_5 1_555 1_555
O25_5 Mo3_5 1_555 1_555
O26_5 Mo1_5 1_555 1_555
O28_5 Mo6_5 1_555 1_555
O29_5 Mo2_5 1_555 1_555
O30_5 Mo2_5 1_555 1_555
O31_5 Mo5_5 1_555 1_555
O32_5 Mo1_5 1_555 1_555
O33_5 Mo3_5 1_555 1_555
O34_5 Mo3_5 1_555 1_555
O35_5 Mo7_5 1_555 1_555
O36_5 Mo1_5 1_555 1_555
O38_5 Mo6_5 1_555 1_555
O40_5 Mo10_5 1_555 1_555
O41_3 C22_5 1_555 1_555
O42_5 C22_5 1_555 1_555
Zn5_3 O41_3 1_555 1_555
O46_3 Zn3_3 1_555 1_555
Mo3_5 O24_5 1_555 1_555
Mo5_5 O5_5 1_555 1_555
Mo5_5 O18_5 1_555 1_555
Mo5_5 O25_5 1_555 1_555
Mo7_5 O22_5 1_555 1_555
Mo7_5 O26_5 1_555 1_555
Mo7_5 O36_5 1_555 1_555
Mo10_5 O13_5 1_555 1_555
Mo10_5 O29_5 1_555 1_555
Mo10_5 O30_5 1_555 1_555
Mo10_5 O35_5 1_555 1_555
Mo12_5 O19_5 1_555 1_555
Mo12_5 O23_5 1_555 1_555
Mo12_5 O33_5 1_555 1_555
Mo12_5 O34_5 1_555 1_555
P1_5 O8_5 1_555 1_555
Zn1_5 O30_5 1_555 1_555
Zn1_5 O33_5 1_555 1_555
Zn1_5 O36_5 1_555 1_555
Zn3_3 O29_5 1_555 1_555
Zn3_3 O31_5 1_555 1_555
C21_5 N2_5 1_555 1_555
O43_6 C28_6 1_555 1_555
O46_3 C28_6 1_555 1_555
Mo1_6 Mo7_6 1_555 1_555
Mo2_6 Mo10_6 1_555 1_555
Mo3_6 O5_6 1_555 1_555
Mo7_6 O6_6 1_555 1_555
Mo10_6 O6_6 1_555 1_555
Mo12_6 O8_6 1_555 1_555
P1_6 O5_6 1_555 1_555
Zn1_6 N2_6 1_555 1_555
Zn6_3 O28_6 1_555 1_555
C17_6 H21_6 1_555 1_555
C18_6 C17_6 1_555 1_555
H22_6 C18_6 1_555 1_555
C19_6 C18_6 1_555 1_555
C20_6 C19_6 1_555 1_555
H23_6 C20_6 1_555 1_555
C21_6 C20_6 1_555 1_555
H24_6 C21_6 1_555 1_555
C22_6 C19_6 1_555 1_555
N2_6 C17_6 1_555 1_555
O5_6 Mo2_6 1_555 1_555
O6_6 P1_6 1_555 1_555
O8_6 Mo1_6 1_555 1_555
O10_6 Mo12_6 1_555 1_555
O12_6 Mo3_6 1_555 1_555
O13_6 Mo6_6 1_555 1_555
O14_6 Mo2_6 1_555 1_555
O17_6 Mo5_6 1_555 1_555
O18_6 Mo2_6 1_555 1_555
O22_6 Mo6_6 1_555 1_555
O23_6 Mo1_6 1_555 1_555
O24_6 Mo2_6 1_555 1_555
O25_6 Mo3_6 1_555 1_555
O26_6 Mo1_6 1_555 1_555
O28_6 Mo6_6 1_555 1_555
O29_6 Mo2_6 1_555 1_555
O30_6 Mo2_6 1_555 1_555
O31_6 Mo5_6 1_555 1_555
O32_6 Mo1_6 1_555 1_555
O33_6 Mo3_6 1_555 1_555
O34_6 Mo3_6 1_555 1_555
O35_6 Mo7_6 1_555 1_555
O36_6 Mo1_6 1_555 1_555
O38_6 Mo6_6 1_555 1_555
O40_6 Mo10_6 1_555 1_555
O41_4 C22_6 1_555 1_555
O42_6 C22_6 1_555 1_555
Mo3_6 O24_6 1_555 1_555
Mo5_6 O5_6 1_555 1_555
Mo5_6 O18_6 1_555 1_555
Mo5_6 O25_6 1_555 1_555
Mo7_6 O22_6 1_555 1_555
Mo7_6 O26_6 1_555 1_555
Mo7_6 O36_6 1_555 1_555
Mo10_6 O13_6 1_555 1_555
Mo10_6 O29_6 1_555 1_555
Mo10_6 O30_6 1_555 1_555
Mo10_6 O35_6 1_555 1_555
Mo12_6 O19_6 1_555 1_555
Mo12_6 O23_6 1_555 1_555
Mo12_6 O33_6 1_555 1_555
Mo12_6 O34_6 1_555 1_555
P1_6 O8_6 1_555 1_555
Zn1_6 O30_6 1_555 1_555
Zn1_6 O33_6 1_555 1_555
Zn1_6 O36_6 1_555 1_555
Zn6_3 O29_6 1_555 1_555
Zn6_3 O31_6 1_555 1_555
C21_6 N2_6 1_555 1_555
Mo4_6 Mo11_6 1_555 1_555
Mo8_6 O3_6 1_555 1_555
Mo9_6 O1_6 1_555 1_555
Mo11_6 O2_6 1_555 1_555
Zn2_4 O1_6 1_555 1_555
Zn4_6 N3_6 1_555 1_555
C23_6 H25_6 1_555 1_555
C24_6 C23_6 1_555 1_555
H26_6 C24_6 1_555 1_555
C25_6 C24_6 1_555 1_555
C26_6 C25_6 1_555 1_555
H27_6 C26_6 1_555 1_555
C27_6 C26_6 1_555 1_555
H28_6 C27_6 1_555 1_555
N3_6 C23_6 1_555 1_555
O2_6 Mo9_6 1_555 1_555
O3_6 Mo9_6 1_555 1_555
O7_6 Mo8_6 1_555 1_555
O9_6 Mo11_6 1_555 1_555
O11_6 Mo8_6 1_555 1_555
O16_6 Mo4_6 1_555 1_555
O21_6 Mo8_6 1_555 1_555
O27_6 Mo4_6 1_555 1_555
O37_6 Mo4_6 1_555 1_555
O39_6 Mo9_6 1_555 1_555
Mo8_6 O4_6 1_555 1_555
Mo11_6 O7_6 1_555 1_555
Mo11_6 O21_6 1_555 1_555
Mo11_6 O27_6 1_555 1_555
Mo11_6 O37_6 1_555 1_555
Zn2_4 O27_6 1_555 1_555
Zn4_6 O4_6 1_555 1_555
Zn4_6 O37_6 1_555 1_555
C27_6 N3_6 1_555 1_555
O43_7 C28_7 1_555 1_555
O44_4 C28_7 1_555 1_555
Zn6_4 O44_4 1_555 1_555
Mo1_7 Mo7_7 1_555 1_555
Mo2_7 Mo10_7 1_555 1_555
Mo3_7 O5_7 1_555 1_555
Mo4_7 Mo11_7 1_555 1_555
Mo5_7 Mo8_7 1_555 1_555
Mo6_7 O1_7 1_555 1_555
Mo7_7 O6_7 1_555 1_555
Mo8_7 O3_7 1_555 1_555
Mo9_7 O1_7 1_555 1_555
Mo10_7 O6_7 1_555 1_555
Mo11_7 O2_7 1_555 1_555
Mo12_7 O8_7 1_555 1_555
P1_7 O5_7 1_555 1_555
Zn1_7 N2_7 1_555 1_555
Zn5_4 O1_7 1_555 1_555
Zn3_4 O28_7 1_555 1_555
Zn4_7 N3_7 1_555 1_555
C17_7 H21_7 1_555 1_555
C18_7 C17_7 1_555 1_555
H22_7 C18_7 1_555 1_555
C19_7 C18_7 1_555 1_555
C20_7 C19_7 1_555 1_555
H23_7 C20_7 1_555 1_555
C21_7 C20_7 1_555 1_555
H24_7 C21_7 1_555 1_555
C22_7 C19_7 1_555 1_555
C23_7 H25_7 1_555 1_555
C24_7 C23_7 1_555 1_555
H26_7 C24_7 1_555 1_555
C25_7 C24_7 1_555 1_555
C26_7 C25_7 1_555 1_555
H27_7 C26_7 1_555 1_555
C27_7 C26_7 1_555 1_555
H28_7 C27_7 1_555 1_555
N2_7 C17_7 1_555 1_555
N3_7 C23_7 1_555 1_555
O2_7 Mo9_7 1_555 1_555
O3_7 Mo9_7 1_555 1_555
O4_7 Mo5_7 1_555 1_555
O5_7 Mo2_7 1_555 1_555
O6_7 P1_7 1_555 1_555
O7_7 Mo8_7 1_555 1_555
O8_7 Mo1_7 1_555 1_555
O9_7 Mo11_7 1_555 1_555
O10_7 Mo12_7 1_555 1_555
O11_7 Mo8_7 1_555 1_555
O12_7 Mo3_7 1_555 1_555
O13_7 Mo6_7 1_555 1_555
O14_7 Mo2_7 1_555 1_555
O16_7 Mo4_7 1_555 1_555
O17_7 Mo5_7 1_555 1_555
O18_7 Mo2_7 1_555 1_555
O19_7 Mo4_7 1_555 1_555
O21_7 Mo8_7 1_555 1_555
O22_7 Mo6_7 1_555 1_555
O23_7 Mo1_7 1_555 1_555
O24_7 Mo2_7 1_555 1_555
O25_7 Mo3_7 1_555 1_555
O26_7 Mo1_7 1_555 1_555
O27_7 Mo4_7 1_555 1_555
O28_7 Mo6_7 1_555 1_555
O29_7 Mo2_7 1_555 1_555
O30_7 Mo2_7 1_555 1_555
O31_7 Mo5_7 1_555 1_555
O32_7 Mo1_7 1_555 1_555
O33_7 Mo3_7 1_555 1_555
O34_7 Mo3_7 1_555 1_555
O35_7 Mo7_7 1_555 1_555
O36_7 Mo1_7 1_555 1_555
O37_7 Mo4_7 1_555 1_555
O38_7 Mo6_7 1_555 1_555
O39_7 Mo9_7 1_555 1_555
O40_7 Mo10_7 1_555 1_555
O45_4 C22_7 1_555 1_555
O42_7 C22_7 1_555 1_555
O46_4 Zn3_4 1_555 1_555
Mo3_7 O24_7 1_555 1_555
Mo4_7 O8_7 1_555 1_555
Mo4_7 O32_7 1_555 1_555
Mo5_7 O5_7 1_555 1_555
Mo5_7 O18_7 1_555 1_555
Mo5_7 O25_7 1_555 1_555
Mo7_7 O22_7 1_555 1_555
Mo7_7 O26_7 1_555 1_555
Mo7_7 O36_7 1_555 1_555
Mo8_7 O4_7 1_555 1_555
Mo8_7 O31_7 1_555 1_555
Mo9_7 O28_7 1_555 1_555
Mo10_7 O13_7 1_555 1_555
Mo10_7 O29_7 1_555 1_555
Mo10_7 O30_7 1_555 1_555
Mo10_7 O35_7 1_555 1_555
Mo11_7 O7_7 1_555 1_555
Mo11_7 O21_7 1_555 1_555
Mo11_7 O27_7 1_555 1_555
Mo11_7 O37_7 1_555 1_555
Mo12_7 O19_7 1_555 1_555
Mo12_7 O23_7 1_555 1_555
Mo12_7 O33_7 1_555 1_555
Mo12_7 O34_7 1_555 1_555
P1_7 O7_7 1_555 1_555
P1_7 O8_7 1_555 1_555
Zn1_7 O30_7 1_555 1_555
Zn1_7 O33_7 1_555 1_555
Zn1_7 O36_7 1_555 1_555
Zn5_4 O26_7 1_555 1_555
Zn5_4 O27_7 1_555 1_555
Zn3_4 O29_7 1_555 1_555
Zn3_4 O31_7 1_555 1_555
Zn4_7 O4_7 1_555 1_555
Zn4_7 O34_7 1_555 1_555
Zn4_7 O37_7 1_555 1_555
C21_7 N2_7 1_555 1_555
C27_7 N3_7 1_555 1_555
Mo1_8 Mo7_8 1_555 1_555
Mo2_8 Mo10_8 1_555 1_555
Mo3_8 O5_8 1_555 1_555
Mo4_8 Mo11_8 1_555 1_555
Mo5_8 Mo8_8 1_555 1_555
Mo6_8 O1_8 1_555 1_555
Mo7_8 O6_8 1_555 1_555
Mo8_8 O3_8 1_555 1_555
Mo9_8 O1_8 1_555 1_555
Mo10_8 O6_8 1_555 1_555
Mo11_8 O2_8 1_555 1_555
Mo12_8 O8_8 1_555 1_555
P1_8 O5_8 1_555 1_555
Zn1_8 N2_8 1_555 1_555
Zn5_3 O1_8 1_555 1_555
Zn6_4 O28_8 1_555 1_555
Zn4_8 N3_8 1_555 1_555
C17_8 H21_8 1_555 1_555
C18_8 C17_8 1_555 1_555
H22_8 C18_8 1_555 1_555
C19_8 C18_8 1_555 1_555
C20_8 C19_8 1_555 1_555
H23_8 C20_8 1_555 1_555
C21_8 C20_8 1_555 1_555
H24_8 C21_8 1_555 1_555
C22_8 C19_8 1_555 1_555
C23_8 H25_8 1_555 1_555
C24_8 C23_8 1_555 1_555
H26_8 C24_8 1_555 1_555
C25_8 C24_8 1_555 1_555
C26_8 C25_8 1_555 1_555
H27_8 C26_8 1_555 1_555
C27_8 C26_8 1_555 1_555
H28_8 C27_8 1_555 1_555
C28_8 C25_8 1_555 1_555
N2_8 C17_8 1_555 1_555
N3_8 C23_8 1_555 1_555
O2_8 Mo9_8 1_555 1_555
O3_8 Mo9_8 1_555 1_555
O4_8 Mo5_8 1_555 1_555
O5_8 Mo2_8 1_555 1_555
O6_8 P1_8 1_555 1_555
O7_8 Mo8_8 1_555 1_555
O8_8 Mo1_8 1_555 1_555
O9_8 Mo11_8 1_555 1_555
O10_8 Mo12_8 1_555 1_555
O11_8 Mo8_8 1_555 1_555
O12_8 Mo3_8 1_555 1_555
O13_8 Mo6_8 1_555 1_555
O14_8 Mo2_8 1_555 1_555
O15_8 Mo1_8 1_555 1_555
O16_8 Mo4_8 1_555 1_555
O17_8 Mo5_8 1_555 1_555
O18_8 Mo2_8 1_555 1_555
O19_8 Mo4_8 1_555 1_555
O20_8 Mo7_8 1_555 1_555
O21_8 Mo8_8 1_555 1_555
O22_8 Mo6_8 1_555 1_555
O23_8 Mo1_8 1_555 1_555
O24_8 Mo2_8 1_555 1_555
O25_8 Mo3_8 1_555 1_555
O26_8 Mo1_8 1_555 1_555
O27_8 Mo4_8 1_555 1_555
O28_8 Mo6_8 1_555 1_555
O29_8 Mo2_8 1_555 1_555
O30_8 Mo2_8 1_555 1_555
O31_8 Mo5_8 1_555 1_555
O32_8 Mo1_8 1_555 1_555
O33_8 Mo3_8 1_555 1_555
O34_8 Mo3_8 1_555 1_555
O35_8 Mo7_8 1_555 1_555
O36_8 Mo1_8 1_555 1_555
O37_8 Mo4_8 1_555 1_555
O38_8 Mo6_8 1_555 1_555
O39_8 Mo9_8 1_555 1_555
O40_8 Mo10_8 1_555 1_555
O45_3 C22_8 1_555 1_555
O42_8 C22_8 1_555 1_555
O43_8 C28_8 1_555 1_555
O46_4 C28_8 1_555 1_555
Mo3_8 O24_8 1_555 1_555
Mo4_8 O8_8 1_555 1_555
Mo4_8 O32_8 1_555 1_555
Mo5_8 O5_8 1_555 1_555
Mo5_8 O18_8 1_555 1_555
Mo5_8 O25_8 1_555 1_555
Mo7_8 O22_8 1_555 1_555
Mo7_8 O26_8 1_555 1_555
Mo7_8 O36_8 1_555 1_555
Mo8_8 O4_8 1_555 1_555
Mo8_8 O31_8 1_555 1_555
Mo9_8 O28_8 1_555 1_555
Mo10_8 O13_8 1_555 1_555
Mo10_8 O29_8 1_555 1_555
Mo10_8 O30_8 1_555 1_555
Mo10_8 O35_8 1_555 1_555
Mo11_8 O7_8 1_555 1_555
Mo11_8 O21_8 1_555 1_555
Mo11_8 O27_8 1_555 1_555
Mo11_8 O37_8 1_555 1_555
Mo12_8 O19_8 1_555 1_555
Mo12_8 O23_8 1_555 1_555
Mo12_8 O33_8 1_555 1_555
Mo12_8 O34_8 1_555 1_555
P1_8 O7_8 1_555 1_555
P1_8 O8_8 1_555 1_555
Zn1_8 O30_8 1_555 1_555
Zn1_8 O33_8 1_555 1_555
Zn1_8 O36_8 1_555 1_555
Zn5_3 O26_8 1_555 1_555
Zn5_3 O27_8 1_555 1_555
Zn6_4 O29_8 1_555 1_555
Zn6_4 O31_8 1_555 1_555
Zn4_8 O4_8 1_555 1_555
Zn4_8 O34_8 1_555 1_555
Zn4_8 O37_8 1_555 1_555
C21_8 N2_8 1_555 1_555
C27_8 N3_8 1_555 1_555
C29 H29 1_555 1_555
H30 C29 1_555 1_555
C30 C29 1_555 1_555
H31 C30 1_555 1_555
H32 C30 1_555 1_555
C31 C30 1_555 1_555
H34 C31 1_555 1_555
C32 C31 1_555 1_555
H35 C32 1_555 1_555
H36 C32 1_555 1_555
H37 C32 1_555 1_555
C33 H38 1_555 1_555
H39 C33 1_555 1_555
C34 C33 1_555 1_555
H40 C34 1_555 1_555
H41 C34 1_555 1_555
C35 C34 1_555 1_555
H42 C35 1_555 1_555
H43 C35 1_555 1_555
C36 C35 1_555 1_555
H44 C36 1_555 1_555
H45 C36 1_555 1_555
H46 C36 1_555 1_555
C37 H47 1_555 1_555
H48 C37 1_555 1_555
C38 C37 1_555 1_555
H49 C38 1_555 1_555
H50 C38 1_555 1_555
C39 C38 1_555 1_555
H51 C39 1_555 1_555
H52 C39 1_555 1_555
C40 C39 1_555 1_555
H53 C40 1_555 1_555
H54 C40 1_555 1_555
H55 C40 1_555 1_555
C41 H56 1_555 1_555
H57 C41 1_555 1_555
C42 C41 1_555 1_555
H58 C42 1_555 1_555
N4 C29 1_555 1_555
C33 N4 1_555 1_555
C37 N4 1_555 1_555
C41 N4 1_555 1_555
H60 C43 1_555 1_555
H61 C43 1_555 1_555
C44 C43 1_555 1_555
H62 C44 1_555 1_555
H63 C44 1_555 1_555
H64 C44 1_555 1_555
C29_2 H29_2 1_555 1_555
H30_2 C29_2 1_555 1_555
C30_2 C29_2 1_555 1_555
H31_2 C30_2 1_555 1_555
H32_2 C30_2 1_555 1_555
C31_2 C30_2 1_555 1_555
H33_2 C31_2 1_555 1_555
H34_2 C31_2 1_555 1_555
C32_2 C31_2 1_555 1_555
H35_2 C32_2 1_555 1_555
H36_2 C32_2 1_555 1_555
H37_2 C32_2 1_555 1_555
C33_2 H38_2 1_555 1_555
H39_2 C33_2 1_555 1_555
C34_2 C33_2 1_555 1_555
H40_2 C34_2 1_555 1_555
C35_2 C34_2 1_555 1_555
H43_2 C35_2 1_555 1_555
C37_2 H47_2 1_555 1_555
H48_2 C37_2 1_555 1_555
C38_2 C37_2 1_555 1_555
H49_2 C38_2 1_555 1_555
H50_2 C38_2 1_555 1_555
H57_2 C41_2 1_555 1_555
C42_2 C41_2 1_555 1_555
H59_2 C42_2 1_555 1_555
N4_2 C29_2 1_555 1_555
C33_2 N4_2 1_555 1_555
C37_2 N4_2 1_555 1_555
C41_2 N4_2 1_555 1_555
H51_2 C39_2 1_555 1_555
C40_2 C39_2 1_555 1_555
H53_2 C40_2 1_555 1_555
H54_2 C40_2 1_555 1_555
H55_2 C40_2 1_555 1_555
H44_2 C36_2 1_555 1_555
H45_2 C36_2 1_555 1_555
H46_2 C36_2 1_555 1_555
H60_2 C43_2 1_555 1_555
H61_2 C43_2 1_555 1_555
C44_2 C43_2 1_555 1_555
H62_2 C44_2 1_555 1_555
H63_2 C44_2 1_555 1_555
H64_2 C44_2 1_555 1_555
C29_3 H29_3 1_555 1_555
H30_3 C29_3 1_555 1_555
C30_3 C29_3 1_555 1_555
H31_3 C30_3 1_555 1_555
H32_3 C30_3 1_555 1_555
C31_3 C30_3 1_555 1_555
H33_3 C31_3 1_555 1_555
H34_3 C31_3 1_555 1_555
C32_3 C31_3 1_555 1_555
H35_3 C32_3 1_555 1_555
H36_3 C32_3 1_555 1_555
H37_3 C32_3 1_555 1_555
C33_3 H38_3 1_555 1_555
H39_3 C33_3 1_555 1_555
C34_3 C33_3 1_555 1_555
H40_3 C34_3 1_555 1_555
C35_3 C34_3 1_555 1_555
H43_3 C35_3 1_555 1_555
C37_3 H47_3 1_555 1_555
H48_3 C37_3 1_555 1_555
C38_3 C37_3 1_555 1_555
H49_3 C38_3 1_555 1_555
H50_3 C38_3 1_555 1_555
C39_3 C38_3 1_555 1_555
H51_3 C39_3 1_555 1_555
H52_3 C39_3 1_555 1_555
C40_3 C39_3 1_555 1_555
H53_3 C40_3 1_555 1_555
H54_3 C40_3 1_555 1_555
H55_3 C40_3 1_555 1_555
H57_3 C41_3 1_555 1_555
C42_3 C41_3 1_555 1_555
H59_3 C42_3 1_555 1_555
N4_3 C29_3 1_555 1_555
C33_3 N4_3 1_555 1_555
C37_3 N4_3 1_555 1_555
C41_3 N4_3 1_555 1_555
H44_3 C36_3 1_555 1_555
H45_3 C36_3 1_555 1_555
H46_3 C36_3 1_555 1_555
H60_3 C43_3 1_555 1_555
H61_3 C43_3 1_555 1_555
C44_3 C43_3 1_555 1_555
H62_3 C44_3 1_555 1_555
H63_3 C44_3 1_555 1_555
H64_3 C44_3 1_555 1_555
H60_4 C43_4 1_555 1_555
H61_4 C43_4 1_555 1_555
C44_4 C43_4 1_555 1_555
H62_4 C44_4 1_555 1_555
H63_4 C44_4 1_555 1_555
H64_4 C44_4 1_555 1_555
H51_4 C39_4 1_555 1_555
C40_4 C39_4 1_555 1_555
H53_4 C40_4 1_555 1_555
H54_4 C40_4 1_555 1_555
H55_4 C40_4 1_555 1_555
C29_4 H29_4 1_555 1_555
H30_4 C29_4 1_555 1_555
C30_4 C29_4 1_555 1_555
H31_4 C30_4 1_555 1_555
H32_4 C30_4 1_555 1_555
C31_4 C30_4 1_555 1_555
H34_4 C31_4 1_555 1_555
C32_4 C31_4 1_555 1_555
H35_4 C32_4 1_555 1_555
H36_4 C32_4 1_555 1_555
H37_4 C32_4 1_555 1_555
C33_4 H38_4 1_555 1_555
H39_4 C33_4 1_555 1_555
C34_4 C33_4 1_555 1_555
H40_4 C34_4 1_555 1_555
H41_4 C34_4 1_555 1_555
C35_4 C34_4 1_555 1_555
H42_4 C35_4 1_555 1_555
H43_4 C35_4 1_555 1_555
C36_4 C35_4 1_555 1_555
H44_4 C36_4 1_555 1_555
H45_4 C36_4 1_555 1_555
H46_4 C36_4 1_555 1_555
C37_4 H47_4 1_555 1_555
H48_4 C37_4 1_555 1_555
C38_4 C37_4 1_555 1_555
H49_4 C38_4 1_555 1_555
H50_4 C38_4 1_555 1_555
C41_4 H56_4 1_555 1_555
H57_4 C41_4 1_555 1_555
C42_4 C41_4 1_555 1_555
H58_4 C42_4 1_555 1_555
N4_4 C29_4 1_555 1_555
C33_4 N4_4 1_555 1_555
C37_4 N4_4 1_555 1_555
C41_4 N4_4 1_555 1_555
H60_5 C43_5 1_555 1_555
H61_5 C43_5 1_555 1_555
C44_5 C43_5 1_555 1_555
H62_5 C44_5 1_555 1_555
H63_5 C44_5 1_555 1_555
H64_5 C44_5 1_555 1_555
C29_5 H29_5 1_555 1_555
H30_5 C29_5 1_555 1_555
C30_5 C29_5 1_555 1_555
H31_5 C30_5 1_555 1_555
H32_5 C30_5 1_555 1_555
C31_5 C30_5 1_555 1_555
H34_5 C31_5 1_555 1_555
C32_5 C31_5 1_555 1_555
H35_5 C32_5 1_555 1_555
H36_5 C32_5 1_555 1_555
H37_5 C32_5 1_555 1_555
C33_5 H38_5 1_555 1_555
H39_5 C33_5 1_555 1_555
C34_5 C33_5 1_555 1_555
H40_5 C34_5 1_555 1_555
H41_5 C34_5 1_555 1_555
C35_5 C34_5 1_555 1_555
H42_5 C35_5 1_555 1_555
H43_5 C35_5 1_555 1_555
C36_5 C35_5 1_555 1_555
H44_5 C36_5 1_555 1_555
H45_5 C36_5 1_555 1_555
H46_5 C36_5 1_555 1_555
C37_5 H47_5 1_555 1_555
H48_5 C37_5 1_555 1_555
C38_5 C37_5 1_555 1_555
H49_5 C38_5 1_555 1_555
H50_5 C38_5 1_555 1_555
C39_5 C38_5 1_555 1_555
H51_5 C39_5 1_555 1_555
H52_5 C39_5 1_555 1_555
C40_5 C39_5 1_555 1_555
H53_5 C40_5 1_555 1_555
H54_5 C40_5 1_555 1_555
H55_5 C40_5 1_555 1_555
C41_5 H56_5 1_555 1_555
H57_5 C41_5 1_555 1_555
C42_5 C41_5 1_555 1_555
H58_5 C42_5 1_555 1_555
N4_5 C29_5 1_555 1_555
C33_5 N4_5 1_555 1_555
C37_5 N4_5 1_555 1_555
C41_5 N4_5 1_555 1_555
H44_6 C36_6 1_555 1_555
H45_6 C36_6 1_555 1_555
H46_6 C36_6 1_555 1_555
H60_6 C43_6 1_555 1_555
H61_6 C43_6 1_555 1_555
C44_6 C43_6 1_555 1_555
H62_6 C44_6 1_555 1_555
H63_6 C44_6 1_555 1_555
H64_6 C44_6 1_555 1_555
H51_6 C39_6 1_555 1_555
C40_6 C39_6 1_555 1_555
H53_6 C40_6 1_555 1_555
H54_6 C40_6 1_555 1_555
H55_6 C40_6 1_555 1_555
C29_6 H29_6 1_555 1_555
H30_6 C29_6 1_555 1_555
C30_6 C29_6 1_555 1_555
H31_6 C30_6 1_555 1_555
H32_6 C30_6 1_555 1_555
C31_6 C30_6 1_555 1_555
H33_6 C31_6 1_555 1_555
H34_6 C31_6 1_555 1_555
C32_6 C31_6 1_555 1_555
H35_6 C32_6 1_555 1_555
H36_6 C32_6 1_555 1_555
H37_6 C32_6 1_555 1_555
C33_6 H38_6 1_555 1_555
H39_6 C33_6 1_555 1_555
C34_6 C33_6 1_555 1_555
H40_6 C34_6 1_555 1_555
C35_6 C34_6 1_555 1_555
H43_6 C35_6 1_555 1_555
C37_6 H47_6 1_555 1_555
H48_6 C37_6 1_555 1_555
C38_6 C37_6 1_555 1_555
H49_6 C38_6 1_555 1_555
H50_6 C38_6 1_555 1_555
H57_6 C41_6 1_555 1_555
C42_6 C41_6 1_555 1_555
H59_6 C42_6 1_555 1_555
N4_6 C29_6 1_555 1_555
C33_6 N4_6 1_555 1_555
C37_6 N4_6 1_555 1_555
C41_6 N4_6 1_555 1_555
H44_7 C36_7 1_555 1_555
H45_7 C36_7 1_555 1_555
H46_7 C36_7 1_555 1_555
H60_7 C43_7 1_555 1_555
H61_7 C43_7 1_555 1_555
C44_7 C43_7 1_555 1_555
H62_7 C44_7 1_555 1_555
H63_7 C44_7 1_555 1_555
H64_7 C44_7 1_555 1_555
C29_7 H29_7 1_555 1_555
H30_7 C29_7 1_555 1_555
C30_7 C29_7 1_555 1_555
H31_7 C30_7 1_555 1_555
H32_7 C30_7 1_555 1_555
C31_7 C30_7 1_555 1_555
H33_7 C31_7 1_555 1_555
H34_7 C31_7 1_555 1_555
C32_7 C31_7 1_555 1_555
H35_7 C32_7 1_555 1_555
H36_7 C32_7 1_555 1_555
H37_7 C32_7 1_555 1_555
C33_7 H38_7 1_555 1_555
H39_7 C33_7 1_555 1_555
C34_7 C33_7 1_555 1_555
H40_7 C34_7 1_555 1_555
C35_7 C34_7 1_555 1_555
H43_7 C35_7 1_555 1_555
C37_7 H47_7 1_555 1_555
H48_7 C37_7 1_555 1_555
C38_7 C37_7 1_555 1_555
H49_7 C38_7 1_555 1_555
H50_7 C38_7 1_555 1_555
C39_7 C38_7 1_555 1_555
H51_7 C39_7 1_555 1_555
H52_7 C39_7 1_555 1_555
C40_7 C39_7 1_555 1_555
H53_7 C40_7 1_555 1_555
H54_7 C40_7 1_555 1_555
H55_7 C40_7 1_555 1_555
H57_7 C41_7 1_555 1_555
C42_7 C41_7 1_555 1_555
H59_7 C42_7 1_555 1_555
N4_7 C29_7 1_555 1_555
C33_7 N4_7 1_555 1_555
C37_7 N4_7 1_555 1_555
C41_7 N4_7 1_555 1_555
C29_8 H29_8 1_555 1_555
H30_8 C29_8 1_555 1_555
C30_8 C29_8 1_555 1_555
H31_8 C30_8 1_555 1_555
H32_8 C30_8 1_555 1_555
C31_8 C30_8 1_555 1_555
H34_8 C31_8 1_555 1_555
C32_8 C31_8 1_555 1_555
H35_8 C32_8 1_555 1_555
H36_8 C32_8 1_555 1_555
H37_8 C32_8 1_555 1_555
C33_8 H38_8 1_555 1_555
H39_8 C33_8 1_555 1_555
C34_8 C33_8 1_555 1_555
H40_8 C34_8 1_555 1_555
H41_8 C34_8 1_555 1_555
C35_8 C34_8 1_555 1_555
H42_8 C35_8 1_555 1_555
H43_8 C35_8 1_555 1_555
C36_8 C35_8 1_555 1_555
H44_8 C36_8 1_555 1_555
H45_8 C36_8 1_555 1_555
H46_8 C36_8 1_555 1_555
C37_8 H47_8 1_555 1_555
H48_8 C37_8 1_555 1_555
C38_8 C37_8 1_555 1_555
H49_8 C38_8 1_555 1_555
H50_8 C38_8 1_555 1_555
C41_8 H56_8 1_555 1_555
H57_8 C41_8 1_555 1_555
C42_8 C41_8 1_555 1_555
H58_8 C42_8 1_555 1_555
N4_8 C29_8 1_555 1_555
C33_8 N4_8 1_555 1_555
C37_8 N4_8 1_555 1_555
C41_8 N4_8 1_555 1_555
H51_8 C39_8 1_555 1_555
C40_8 C39_8 1_555 1_555
H53_8 C40_8 1_555 1_555
H54_8 C40_8 1_555 1_555
H55_8 C40_8 1_555 1_555
H60_8 C43_8 1_555 1_555
H61_8 C43_8 1_555 1_555
C44_8 C43_8 1_555 1_555
H62_8 C44_8 1_555 1_555
H63_8 C44_8 1_555 1_555
H64_8 C44_8 1_555 1_555
C45 H65 1_555 1_555
H66 C45 1_555 1_555
C46 C45 1_555 1_555
H67 C46 1_555 1_555
H68 C46 1_555 1_555
C47 C46 1_555 1_555
H69 C47 1_555 1_555
H70 C47 1_555 1_555
C48 C47 1_555 1_555
H71 C48 1_555 1_555
H72 C48 1_555 1_555
H73 C48 1_555 1_555
C49 H74 1_555 1_555
H75 C49 1_555 1_555
C50 C49 1_555 1_555
H76 C50 1_555 1_555
H77 C50 1_555 1_555
C51 C50 1_555 1_555
H78 C51 1_555 1_555
C52 C51 1_555 1_555
H79 C52 1_555 1_555
H80 C52 1_555 1_555
H81 C52 1_555 1_555
C53 H82 1_555 1_555
H83 C53 1_555 1_555
C54 C53 1_555 1_555
C55 C54 1_555 1_555
C56 C55 1_555 1_555
C57 H84 1_555 1_555
H85 C57 1_555 1_555
C58 C57 1_555 1_555
H86 C58 1_555 1_555
H87 C58 1_555 1_555
C59 C58 1_555 1_555
H88 C59 1_555 1_555
C60 C59 1_555 1_555
H89 C60 1_555 1_555
H90 C60 1_555 1_555
H91 C60 1_555 1_555
N5 C45 1_555 1_555
C49 N5 1_555 1_555
C53 N5 1_555 1_555
C57 N5 1_555 1_555
C51 H92 1_555 1_555
C55 H93 1_555 1_555
C55 H94 1_555 1_555
C54 H95 1_555 1_555
C54 H96 1_555 1_555
C59 H97 1_555 1_555
C56 H98 1_555 1_555
C56 H99 1_555 1_555
C56 H100 1_555 1_555
C45_2 H65_2 1_555 1_555
H66_2 C45_2 1_555 1_555
C46_2 C45_2 1_555 1_555
H67_2 C46_2 1_555 1_555
H68_2 C46_2 1_555 1_555
C47_2 C46_2 1_555 1_555
H69_2 C47_2 1_555 1_555
H70_2 C47_2 1_555 1_555
C48_2 C47_2 1_555 1_555
H71_2 C48_2 1_555 1_555
H72_2 C48_2 1_555 1_555
H73_2 C48_2 1_555 1_555
C49_2 H74_2 1_555 1_555
H75_2 C49_2 1_555 1_555
C50_2 C49_2 1_555 1_555
H76_2 C50_2 1_555 1_555
H77_2 C50_2 1_555 1_555
C51_2 C50_2 1_555 1_555
H78_2 C51_2 1_555 1_555
C52_2 C51_2 1_555 1_555
H79_2 C52_2 1_555 1_555
H80_2 C52_2 1_555 1_555
H81_2 C52_2 1_555 1_555
C53_2 H82_2 1_555 1_555
H83_2 C53_2 1_555 1_555
C54_2 C53_2 1_555 1_555
C55_2 C54_2 1_555 1_555
C56_2 C55_2 1_555 1_555
C57_2 H84_2 1_555 1_555
H85_2 C57_2 1_555 1_555
C58_2 C57_2 1_555 1_555
H86_2 C58_2 1_555 1_555
H87_2 C58_2 1_555 1_555
C59_2 C58_2 1_555 1_555
H88_2 C59_2 1_555 1_555
C60_2 C59_2 1_555 1_555
H89_2 C60_2 1_555 1_555
H90_2 C60_2 1_555 1_555
H91_2 C60_2 1_555 1_555
N5_2 C45_2 1_555 1_555
C49_2 N5_2 1_555 1_555
C53_2 N5_2 1_555 1_555
C57_2 N5_2 1_555 1_555
C51_2 H92_2 1_555 1_555
C55_2 H93_2 1_555 1_555
C55_2 H94_2 1_555 1_555
C54_2 H95_2 1_555 1_555
C54_2 H96_2 1_555 1_555
C59_2 H97_2 1_555 1_555
C56_2 H98_2 1_555 1_555
C56_2 H99_2 1_555 1_555
C56_2 H100_2 1_555 1_555
C45_3 H65_3 1_555 1_555
H66_3 C45_3 1_555 1_555
C46_3 C45_3 1_555 1_555
H67_3 C46_3 1_555 1_555
H68_3 C46_3 1_555 1_555
C47_3 C46_3 1_555 1_555
H69_3 C47_3 1_555 1_555
H70_3 C47_3 1_555 1_555
C48_3 C47_3 1_555 1_555
H71_3 C48_3 1_555 1_555
H72_3 C48_3 1_555 1_555
H73_3 C48_3 1_555 1_555
C49_3 H74_3 1_555 1_555
H75_3 C49_3 1_555 1_555
C50_3 C49_3 1_555 1_555
H76_3 C50_3 1_555 1_555
H77_3 C50_3 1_555 1_555
C51_3 C50_3 1_555 1_555
H78_3 C51_3 1_555 1_555
C52_3 C51_3 1_555 1_555
H79_3 C52_3 1_555 1_555
H80_3 C52_3 1_555 1_555
H81_3 C52_3 1_555 1_555
C53_3 H82_3 1_555 1_555
H83_3 C53_3 1_555 1_555
C54_3 C53_3 1_555 1_555
C55_3 C54_3 1_555 1_555
C56_3 C55_3 1_555 1_555
C57_3 H84_3 1_555 1_555
H85_3 C57_3 1_555 1_555
C58_3 C57_3 1_555 1_555
H86_3 C58_3 1_555 1_555
H87_3 C58_3 1_555 1_555
C59_3 C58_3 1_555 1_555
H88_3 C59_3 1_555 1_555
C60_3 C59_3 1_555 1_555
H89_3 C60_3 1_555 1_555
H90_3 C60_3 1_555 1_555
H91_3 C60_3 1_555 1_555
N5_3 C45_3 1_555 1_555
C49_3 N5_3 1_555 1_555
C53_3 N5_3 1_555 1_555
C57_3 N5_3 1_555 1_555
C51_3 H92_3 1_555 1_555
C55_3 H93_3 1_555 1_555
C55_3 H94_3 1_555 1_555
C54_3 H95_3 1_555 1_555
C54_3 H96_3 1_555 1_555
C59_3 H97_3 1_555 1_555
C56_3 H98_3 1_555 1_555
C56_3 H99_3 1_555 1_555
C56_3 H100_3 1_555 1_555
C45_4 H65_4 1_555 1_555
H66_4 C45_4 1_555 1_555
C46_4 C45_4 1_555 1_555
H67_4 C46_4 1_555 1_555
H68_4 C46_4 1_555 1_555
C47_4 C46_4 1_555 1_555
H69_4 C47_4 1_555 1_555
H70_4 C47_4 1_555 1_555
C48_4 C47_4 1_555 1_555
H71_4 C48_4 1_555 1_555
H72_4 C48_4 1_555 1_555
H73_4 C48_4 1_555 1_555
C49_4 H74_4 1_555 1_555
H75_4 C49_4 1_555 1_555
C50_4 C49_4 1_555 1_555
H76_4 C50_4 1_555 1_555
H77_4 C50_4 1_555 1_555
C51_4 C50_4 1_555 1_555
H78_4 C51_4 1_555 1_555
C52_4 C51_4 1_555 1_555
H79_4 C52_4 1_555 1_555
H80_4 C52_4 1_555 1_555
H81_4 C52_4 1_555 1_555
C53_4 H82_4 1_555 1_555
H83_4 C53_4 1_555 1_555
C54_4 C53_4 1_555 1_555
C55_4 C54_4 1_555 1_555
C56_4 C55_4 1_555 1_555
C57_4 H84_4 1_555 1_555
H85_4 C57_4 1_555 1_555
C58_4 C57_4 1_555 1_555
H86_4 C58_4 1_555 1_555
H87_4 C58_4 1_555 1_555
C59_4 C58_4 1_555 1_555
H88_4 C59_4 1_555 1_555
C60_4 C59_4 1_555 1_555
H89_4 C60_4 1_555 1_555
H90_4 C60_4 1_555 1_555
H91_4 C60_4 1_555 1_555
N5_4 C45_4 1_555 1_555
C49_4 N5_4 1_555 1_555
C53_4 N5_4 1_555 1_555
C57_4 N5_4 1_555 1_555
C51_4 H92_4 1_555 1_555
C55_4 H93_4 1_555 1_555
C55_4 H94_4 1_555 1_555
C54_4 H95_4 1_555 1_555
C54_4 H96_4 1_555 1_555
C59_4 H97_4 1_555 1_555
C56_4 H98_4 1_555 1_555
C56_4 H99_4 1_555 1_555
C56_4 H100_4 1_555 1_555
C45_5 H65_5 1_555 1_555
H66_5 C45_5 1_555 1_555
C46_5 C45_5 1_555 1_555
H67_5 C46_5 1_555 1_555
H68_5 C46_5 1_555 1_555
C47_5 C46_5 1_555 1_555
H69_5 C47_5 1_555 1_555
H70_5 C47_5 1_555 1_555
C48_5 C47_5 1_555 1_555
H71_5 C48_5 1_555 1_555
H72_5 C48_5 1_555 1_555
H73_5 C48_5 1_555 1_555
C49_5 H74_5 1_555 1_555
H75_5 C49_5 1_555 1_555
C50_5 C49_5 1_555 1_555
H76_5 C50_5 1_555 1_555
H77_5 C50_5 1_555 1_555
C51_5 C50_5 1_555 1_555
H78_5 C51_5 1_555 1_555
C52_5 C51_5 1_555 1_555
H79_5 C52_5 1_555 1_555
H80_5 C52_5 1_555 1_555
H81_5 C52_5 1_555 1_555
C53_5 H82_5 1_555 1_555
H83_5 C53_5 1_555 1_555
C54_5 C53_5 1_555 1_555
C55_5 C54_5 1_555 1_555
C56_5 C55_5 1_555 1_555
C57_5 H84_5 1_555 1_555
H85_5 C57_5 1_555 1_555
C58_5 C57_5 1_555 1_555
H86_5 C58_5 1_555 1_555
H87_5 C58_5 1_555 1_555
C59_5 C58_5 1_555 1_555
H88_5 C59_5 1_555 1_555
C60_5 C59_5 1_555 1_555
H89_5 C60_5 1_555 1_555
H90_5 C60_5 1_555 1_555
H91_5 C60_5 1_555 1_555
N5_5 C45_5 1_555 1_555
C49_5 N5_5 1_555 1_555
C53_5 N5_5 1_555 1_555
C57_5 N5_5 1_555 1_555
C51_5 H92_5 1_555 1_555
C55_5 H93_5 1_555 1_555
C55_5 H94_5 1_555 1_555
C54_5 H95_5 1_555 1_555
C54_5 H96_5 1_555 1_555
C59_5 H97_5 1_555 1_555
C56_5 H98_5 1_555 1_555
C56_5 H99_5 1_555 1_555
C56_5 H100_5 1_555 1_555
C45_6 H65_6 1_555 1_555
H66_6 C45_6 1_555 1_555
C46_6 C45_6 1_555 1_555
H67_6 C46_6 1_555 1_555
H68_6 C46_6 1_555 1_555
C47_6 C46_6 1_555 1_555
H69_6 C47_6 1_555 1_555
H70_6 C47_6 1_555 1_555
C48_6 C47_6 1_555 1_555
H71_6 C48_6 1_555 1_555
H72_6 C48_6 1_555 1_555
H73_6 C48_6 1_555 1_555
C49_6 H74_6 1_555 1_555
H75_6 C49_6 1_555 1_555
C50_6 C49_6 1_555 1_555
H76_6 C50_6 1_555 1_555
H77_6 C50_6 1_555 1_555
C51_6 C50_6 1_555 1_555
H78_6 C51_6 1_555 1_555
C52_6 C51_6 1_555 1_555
H79_6 C52_6 1_555 1_555
H80_6 C52_6 1_555 1_555
H81_6 C52_6 1_555 1_555
C53_6 H82_6 1_555 1_555
H83_6 C53_6 1_555 1_555
C54_6 C53_6 1_555 1_555
C55_6 C54_6 1_555 1_555
C56_6 C55_6 1_555 1_555
C57_6 H84_6 1_555 1_555
H85_6 C57_6 1_555 1_555
C58_6 C57_6 1_555 1_555
H86_6 C58_6 1_555 1_555
H87_6 C58_6 1_555 1_555
C59_6 C58_6 1_555 1_555
H88_6 C59_6 1_555 1_555
C60_6 C59_6 1_555 1_555
H89_6 C60_6 1_555 1_555
H90_6 C60_6 1_555 1_555
H91_6 C60_6 1_555 1_555
N5_6 C45_6 1_555 1_555
C49_6 N5_6 1_555 1_555
C53_6 N5_6 1_555 1_555
C57_6 N5_6 1_555 1_555
C51_6 H92_6 1_555 1_555
C55_6 H93_6 1_555 1_555
C55_6 H94_6 1_555 1_555
C54_6 H95_6 1_555 1_555
C54_6 H96_6 1_555 1_555
C59_6 H97_6 1_555 1_555
C56_6 H98_6 1_555 1_555
C56_6 H99_6 1_555 1_555
C56_6 H100_6 1_555 1_555
C45_7 H65_7 1_555 1_555
H66_7 C45_7 1_555 1_555
C46_7 C45_7 1_555 1_555
H67_7 C46_7 1_555 1_555
H68_7 C46_7 1_555 1_555
C47_7 C46_7 1_555 1_555
H69_7 C47_7 1_555 1_555
H70_7 C47_7 1_555 1_555
C48_7 C47_7 1_555 1_555
H71_7 C48_7 1_555 1_555
H72_7 C48_7 1_555 1_555
H73_7 C48_7 1_555 1_555
C49_7 H74_7 1_555 1_555
H75_7 C49_7 1_555 1_555
C50_7 C49_7 1_555 1_555
H76_7 C50_7 1_555 1_555
H77_7 C50_7 1_555 1_555
C51_7 C50_7 1_555 1_555
H78_7 C51_7 1_555 1_555
C52_7 C51_7 1_555 1_555
H79_7 C52_7 1_555 1_555
H80_7 C52_7 1_555 1_555
H81_7 C52_7 1_555 1_555
C53_7 H82_7 1_555 1_555
H83_7 C53_7 1_555 1_555
C54_7 C53_7 1_555 1_555
C55_7 C54_7 1_555 1_555
C56_7 C55_7 1_555 1_555
C57_7 H84_7 1_555 1_555
H85_7 C57_7 1_555 1_555
C58_7 C57_7 1_555 1_555
H86_7 C58_7 1_555 1_555
H87_7 C58_7 1_555 1_555
C59_7 C58_7 1_555 1_555
H88_7 C59_7 1_555 1_555
C60_7 C59_7 1_555 1_555
H89_7 C60_7 1_555 1_555
H90_7 C60_7 1_555 1_555
H91_7 C60_7 1_555 1_555
N5_7 C45_7 1_555 1_555
C49_7 N5_7 1_555 1_555
C53_7 N5_7 1_555 1_555
C57_7 N5_7 1_555 1_555
C51_7 H92_7 1_555 1_555
C55_7 H93_7 1_555 1_555
C55_7 H94_7 1_555 1_555
C54_7 H95_7 1_555 1_555
C54_7 H96_7 1_555 1_555
C59_7 H97_7 1_555 1_555
C56_7 H98_7 1_555 1_555
C56_7 H99_7 1_555 1_555
C56_7 H100_7 1_555 1_555
C45_8 H65_8 1_555 1_555
H66_8 C45_8 1_555 1_555
C46_8 C45_8 1_555 1_555
H67_8 C46_8 1_555 1_555
H68_8 C46_8 1_555 1_555
C47_8 C46_8 1_555 1_555
H69_8 C47_8 1_555 1_555
H70_8 C47_8 1_555 1_555
C48_8 C47_8 1_555 1_555
H71_8 C48_8 1_555 1_555
H72_8 C48_8 1_555 1_555
H73_8 C48_8 1_555 1_555
C49_8 H74_8 1_555 1_555
H75_8 C49_8 1_555 1_555
C50_8 C49_8 1_555 1_555
H76_8 C50_8 1_555 1_555
H77_8 C50_8 1_555 1_555
C51_8 C50_8 1_555 1_555
H78_8 C51_8 1_555 1_555
C52_8 C51_8 1_555 1_555
H79_8 C52_8 1_555 1_555
H80_8 C52_8 1_555 1_555
H81_8 C52_8 1_555 1_555
C53_8 H82_8 1_555 1_555
H83_8 C53_8 1_555 1_555
C54_8 C53_8 1_555 1_555
C55_8 C54_8 1_555 1_555
C56_8 C55_8 1_555 1_555
C57_8 H84_8 1_555 1_555
H85_8 C57_8 1_555 1_555
C58_8 C57_8 1_555 1_555
H86_8 C58_8 1_555 1_555
H87_8 C58_8 1_555 1_555
C59_8 C58_8 1_555 1_555
H88_8 C59_8 1_555 1_555
C60_8 C59_8 1_555 1_555
H89_8 C60_8 1_555 1_555
H90_8 C60_8 1_555 1_555
H91_8 C60_8 1_555 1_555
N5_8 C45_8 1_555 1_555
C49_8 N5_8 1_555 1_555
C53_8 N5_8 1_555 1_555
C57_8 N5_8 1_555 1_555
C51_8 H92_8 1_555 1_555
C55_8 H93_8 1_555 1_555
C55_8 H94_8 1_555 1_555
C54_8 H95_8 1_555 1_555
C54_8 H96_8 1_555 1_555
C59_8 H97_8 1_555 1_555
C56_8 H98_8 1_555 1_555
C56_8 H99_8 1_555 1_555
C56_8 H100_8 1_555 1_555

#END
