
###############################################################################
#
# This file contains modified crystal structure data generated from the
# MOF subset of the Cambridge Structural Database (CSD) v543 
# hosted by the Cambridge Crystallographic Data Centre (CCDC).
#
# This work is licensed under the Creative Commons
# Attribution-NonCommercial-ShareAlike 4.0 International License.
# To view a copy of this license, visit
# http://creativecommons.org/licenses/by-nc-sa/4.0/
# or send a letter to
# Creative Commons, PO Box 1866, Mountain View, CA 94042, USA.
#
# CIF created using the CSD Python API on 29 September 2022
# The structure has been converted into the P1 space group
# The structure has a 3D framework
# The original CSD entry MAWTUC is in the tetragonal crystal system
# The original CSD entry MAWTUC is in a Sohncke space group
# The framework has been calculated to contain at least 10.0% void space
# The void calculation uses a probe of radius 1.32A, grid spacing 0.4
#
###############################################################################

data_MAWTUC
_chemical_formula_moiety         '(C44 H56 N8 O15 Zn4)n'
_symmetry_cell_setting           triclinic
_symmetry_space_group_name_H-M   'P 1'
_symmetry_Int_Tables_number      1
_space_group_name_Hall           'P 1'
loop_
_symmetry_equiv_pos_site_id
_symmetry_equiv_pos_as_xyz
1 x,y,z
_cell_length_a                   12.487(10)
_cell_length_b                   12.487(10)
_cell_length_c                   9.776(11)
_cell_angle_alpha                90
_cell_angle_beta                 90
_cell_angle_gamma                90
_cell_volume                     1524.32
loop_
_atom_site_label
_atom_site_type_symbol
_atom_site_fract_x
_atom_site_fract_y
_atom_site_fract_z
C8 C 0.079(3) 0.697(3) 0.305(4)
H9 H 0.1032 0.7403 0.3619
H10 H 0.0606 0.7337 0.2221
H11 H 0.1354 0.6462 0.2861
C9 C 0.017(2) 0.566(2) 0.476(3)
O1 O 0.0525(19) 0.6269(17) 0.577(3)
O2 O 0.0207(13) 0.4747(13) 0.469(2)
Zn2 Zn 0.0158(3) 0.5902(2) 0.7779(18)
H14 H 0.7518 0.2828 0.0377
O3 O 0.6848(17) 0.0988(18) 0.024(2)
O6 O 0.5253(13) 0.0207(13) 0.219(2)
N1 N 0.9410(19) 0.5631(19) 0.251(3)
H1 H 0.9724 0.5793 0.1626
N2 N 0.6706(14) 0.8564(11) 0.101(2)
C1 C 0.7523(15) 0.8082(15) 0.026(2)
C2 C 0.8007(14) 0.7156(16) 0.075(2)
H3 H 0.8554 0.6833 0.0256
C3 C 0.7674(16) 0.6712(13) 0.199(2)
C4 C 0.6857(15) 0.7194(14) 0.273(2)
H4 H 0.6634 0.6897 0.3553
C5 C 0.6373(12) 0.8120(13) 0.224(2)
H5 H 0.5826 0.8443 0.2736
C6 C 0.812(2) 0.576(2) 0.242(3)
H6 H 0.7869 0.5198 0.1810
H7 H 0.7838 0.5601 0.3318
C7 C 0.985(3) 0.640(3) 0.358(3)
H8 H 0.9301 0.6910 0.3873
Zn1 Zn 0.5902(2) 0.9842(3) 0.0279(18)
N3 N 0.4369(19) 0.9410(19) 0.001(3)
Zn3 Zn 0.9842(3) 0.4098(2) 0.2779(18)
N1_2 N 0.0590(19) 0.4369(19) 0.751(3)
H1_2 H 0.0276 0.4207 0.6626
N2_2 N 0.3294(14) 0.1436(11) 0.601(2)
C1_2 C 0.2477(15) 0.1918(15) 0.526(2)
H2 H 0.2254 0.1621 0.4439
C2_2 C 0.1993(14) 0.2844(16) 0.575(2)
H3_2 H 0.1446 0.3167 0.5256
C3_2 C 0.2326(16) 0.3288(13) 0.699(2)
C4_2 C 0.3143(15) 0.2806(14) 0.773(2)
H4_2 H 0.3366 0.3103 0.8553
C5_2 C 0.3627(12) 0.1880(13) 0.724(2)
H5_2 H 0.4174 0.1557 0.7736
C6_2 C 0.188(2) 0.424(2) 0.742(3)
H6_2 H 0.2131 0.4802 0.6810
H7_2 H 0.2162 0.4399 0.8318
C7_2 C 0.015(3) 0.360(3) 0.858(3)
H8_2 H 0.0699 0.3090 0.8873
Zn1_2 Zn 0.4098(2) 0.0158(3) 0.5279(18)
N3_2 N 0.5631(19) 0.0590(19) 0.501(3)
O5 O 0.3731(17) 0.0525(19) 0.327(3)
O1_2 O 0.9475(19) 0.3731(17) 0.077(3)
C8_2 C 0.303(3) 0.079(3) 0.055(4)
H9_2 H 0.2597 0.1032 0.1119
H11_2 H 0.3538 0.1354 0.0361
C9_2 C 0.434(2) 0.017(2) 0.226(3)
C4_3 C 0.2806(14) 0.6857(15) 0.023(2)
H4_3 H 0.3103 0.6634 0.1053
H5_3 H 0.1557 0.5826 0.0236
H7_3 H 0.4399 0.7838 0.0818
C7_3 C 0.360(3) 0.985(3) 0.108(3)
H8_3 H 0.3090 0.9301 0.1373
H1_3 H 0.4207 0.9724 0.9126
N2_3 N 0.1436(11) 0.6706(14) 0.851(2)
C1_3 C 0.1918(15) 0.7523(15) 0.776(2)
H2_2 H 0.1621 0.7746 0.6939
C2_3 C 0.2844(16) 0.8007(14) 0.825(2)
H3_3 H 0.3167 0.8554 0.7756
C3_3 C 0.3288(13) 0.7674(16) 0.949(2)
C5_3 C 0.1880(13) 0.6373(12) 0.974(2)
C6_3 C 0.424(2) 0.812(2) 0.992(3)
H6_3 H 0.4802 0.7869 0.9310
C10 C 0.174(3) 0.356(2) 0.2233(8)
C11 C 0.267(3) 0.286(5) 0.204(7)
H12 H 0.3273 0.3301 0.1803
H13 H 0.2543 0.2551 0.1325
H14_2 H 0.2828 0.2482 0.2877
O3_2 O 0.0988(18) 0.3152(17) 0.274(2)
O4 O 0.174(3) 0.449(2) 0.188(3)
H1_4 H 0.5793 0.0276 0.4126
N2_4 N 0.8564(11) 0.3294(14) 0.351(2)
C1_4 C 0.8082(15) 0.2477(15) 0.276(2)
H2_3 H 0.8379 0.2254 0.1939
C2_4 C 0.7156(16) 0.1993(14) 0.325(2)
H3_4 H 0.6833 0.1446 0.2756
C3_4 C 0.6712(13) 0.2326(16) 0.449(2)
C4_4 C 0.7194(14) 0.3143(15) 0.523(2)
H4_4 H 0.6897 0.3366 0.6053
C5_4 C 0.8120(13) 0.3627(12) 0.474(2)
H5_4 H 0.8443 0.4174 0.5236
C6_4 C 0.576(2) 0.188(2) 0.492(3)
H6_4 H 0.5198 0.2131 0.4310
H7_4 H 0.5601 0.2162 0.5818
C7_4 C 0.640(3) 0.015(3) 0.608(3)
H8_4 H 0.6910 0.0699 0.6373
C10_2 C 0.644(2) 0.174(3) 0.9733(8)
C11_2 C 0.714(5) 0.267(3) 0.954(7)
H12_2 H 0.6699 0.3273 0.9303
H13_2 H 0.7449 0.2543 0.8825
O4_2 O 0.551(2) 0.174(3) 0.938(3)
H2_4 H 0.7746 0.8379 0.9439
O5_2 O 0.6269(17) 0.9475(19) 0.827(3)
C10_3 C 0.356(2) 0.826(3) 0.4733(8)
C11_3 C 0.286(5) 0.733(3) 0.454(7)
H12_3 H 0.3301 0.6727 0.4303
H13_3 H 0.2551 0.7457 0.3825
H14_3 H 0.2482 0.7172 0.5377
O3_3 O 0.3152(17) 0.9012(18) 0.524(2)
O4_3 O 0.449(2) 0.826(3) 0.438(3)
O6_2 O 0.4747(13) 0.9793(13) 0.719(2)
C8_3 C 0.697(3) 0.921(3) 0.555(4)
H9_3 H 0.7403 0.8968 0.6119
H10_2 H 0.7337 0.9394 0.4721
H11_3 H 0.6462 0.8646 0.5361
C9_3 C 0.566(2) 0.983(2) 0.726(3)
C8_4 C 0.921(3) 0.303(3) 0.805(4)
H9_4 H 0.8968 0.2597 0.8619
H10_3 H 0.9394 0.2663 0.7221
H11_4 H 0.8646 0.3538 0.7861
C9_4 C 0.983(2) 0.434(2) 0.976(3)
O2_2 O 0.9793(13) 0.5253(13) 0.969(2)
C10_4 C 0.826(3) 0.644(2) 0.7233(8)
C11_4 C 0.733(3) 0.714(5) 0.704(7)
H12_4 H 0.6727 0.6699 0.6803
H13_4 H 0.7457 0.7449 0.6325
H14_4 H 0.7172 0.7518 0.7877
O3_4 O 0.9012(18) 0.6848(17) 0.774(2)
O4_4 O 0.826(3) 0.551(2) 0.688(3)
H10_4 H 0.2663 0.0606 0.9721
loop_
_geom_bond_atom_site_label_1
_geom_bond_atom_site_label_2
_geom_bond_site_symmetry_1
_geom_bond_site_symmetry_2
H9 C8 1_555 1_555
H10 C8 1_555 1_555
H11 C8 1_555 1_555
O1 C9 1_555 1_555
O2 C9 1_555 1_555
Zn2 O1 1_555 1_555
N1 H1 1_555 1_555
N2 C1 1_555 1_555
C2 C1 1_555 1_555
H3 C2 1_555 1_555
C3 C2 1_555 1_555
C4 C3 1_555 1_555
H4 C4 1_555 1_555
C5 N2 1_555 1_555
H5 C5 1_555 1_555
C6 N1 1_555 1_555
H6 C6 1_555 1_555
H7 C6 1_555 1_555
C7 N1 1_555 1_555
H8 C7 1_555 1_555
Zn1 N2 1_555 1_555
N3 Zn1 1_555 1_555
Zn3 N1 1_555 1_555
C3 C6 1_555 1_555
C4 C5 1_555 1_555
N1_2 H1_2 1_555 1_555
N2_2 C1_2 1_555 1_555
C1_2 H2 1_555 1_555
C2_2 C1_2 1_555 1_555
H3_2 C2_2 1_555 1_555
C3_2 C2_2 1_555 1_555
C4_2 C3_2 1_555 1_555
H4_2 C4_2 1_555 1_555
C5_2 N2_2 1_555 1_555
H5_2 C5_2 1_555 1_555
C6_2 N1_2 1_555 1_555
H6_2 C6_2 1_555 1_555
H7_2 C6_2 1_555 1_555
C7_2 N1_2 1_555 1_555
H8_2 C7_2 1_555 1_555
Zn1_2 N2_2 1_555 1_555
N3_2 Zn1_2 1_555 1_555
O5 Zn1_2 1_555 1_555
Zn2 N1_2 1_555 1_555
C3_2 C6_2 1_555 1_555
C4_2 C5_2 1_555 1_555
Zn3 O1_2 1_555 1_555
H9_2 C8_2 1_555 1_555
H11_2 C8_2 1_555 1_555
O5 C9_2 1_555 1_555
O6 C9_2 1_555 1_555
H4_3 C4_3 1_555 1_555
C7_3 N3 1_555 1_555
H8_3 C7_3 1_555 1_555
N2_3 C1_3 1_555 1_555
C1_3 H2_2 1_555 1_555
C2_3 C1_3 1_555 1_555
H3_3 C2_3 1_555 1_555
C3_3 C2_3 1_555 1_555
C5_3 N2_3 1_555 1_555
H6_3 C6_3 1_555 1_555
Zn2 N2_3 1_555 1_555
C3_3 C6_3 1_555 1_555
C10 C11 1_555 1_555
C11 H12 1_555 1_555
H13 C11 1_555 1_555
H14_2 C11 1_555 1_555
O3_2 C10 1_555 1_555
O4 C10 1_555 1_555
N3_2 H1_4 1_555 1_555
N2_4 C1_4 1_555 1_555
C1_4 H2_3 1_555 1_555
C2_4 C1_4 1_555 1_555
H3_4 C2_4 1_555 1_555
C3_4 C2_4 1_555 1_555
C4_4 C3_4 1_555 1_555
H4_4 C4_4 1_555 1_555
C5_4 N2_4 1_555 1_555
H5_4 C5_4 1_555 1_555
C6_4 N3_2 1_555 1_555
H6_4 C6_4 1_555 1_555
H7_4 C6_4 1_555 1_555
C7_4 N3_2 1_555 1_555
H8_4 C7_4 1_555 1_555
Zn3 N2_4 1_555 1_555
C3_4 C6_4 1_555 1_555
C4_4 C5_4 1_555 1_555
C10_2 C11_2 1_555 1_555
C11_2 H12_2 1_555 1_555
H13_2 C11_2 1_555 1_555
O4_2 C10_2 1_555 1_555
C10_3 C11_3 1_555 1_555
C11_3 H12_3 1_555 1_555
H13_3 C11_3 1_555 1_555
H14_3 C11_3 1_555 1_555
O3_3 C10_3 1_555 1_555
O4_3 C10_3 1_555 1_555
H9_3 C8_3 1_555 1_555
H10_2 C8_3 1_555 1_555
H11_3 C8_3 1_555 1_555
O5_2 C9_3 1_555 1_555
O6_2 C9_3 1_555 1_555
H9_4 C8_4 1_555 1_555
H10_3 C8_4 1_555 1_555
H11_4 C8_4 1_555 1_555
O2_2 C9_4 1_555 1_555
C10_4 C11_4 1_555 1_555
C11_4 H12_4 1_555 1_555
H13_4 C11_4 1_555 1_555
H14_4 C11_4 1_555 1_555
O3_4 C10_4 1_555 1_555
O4_4 C10_4 1_555 1_555

#END
