
###############################################################################
#
# This file contains modified crystal structure data generated from the
# MOF subset of the Cambridge Structural Database (CSD) v543 
# hosted by the Cambridge Crystallographic Data Centre (CCDC).
#
# This work is licensed under the Creative Commons
# Attribution-NonCommercial-ShareAlike 4.0 International License.
# To view a copy of this license, visit
# http://creativecommons.org/licenses/by-nc-sa/4.0/
# or send a letter to
# Creative Commons, PO Box 1866, Mountain View, CA 94042, USA.
#
# CIF created using the CSD Python API on 29 September 2022
# The structure has been converted into the P1 space group
# The structure has a 3D framework
# The original CSD entry MAWVAK is in the tetragonal crystal system
# The original CSD entry MAWVAK is in a Sohncke space group
# The framework has been calculated to contain at least 10.0% void space
# The void calculation uses a probe of radius 1.32A, grid spacing 0.4
#
###############################################################################

data_MAWVAK
_chemical_formula_moiety         '(C44 H56 N8 O12 Zn4)n'
_symmetry_cell_setting           triclinic
_symmetry_space_group_name_H-M   'P 1'
_symmetry_Int_Tables_number      1
_space_group_name_Hall           'P 1'
loop_
_symmetry_equiv_pos_site_id
_symmetry_equiv_pos_as_xyz
1 x,y,z
_cell_length_a                   12.800(3)
_cell_length_b                   12.800(3)
_cell_length_c                   9.984(5)
_cell_angle_alpha                90
_cell_angle_beta                 90
_cell_angle_gamma                90
_cell_volume                     1635.78
loop_
_atom_site_label
_atom_site_type_symbol
_atom_site_fract_x
_atom_site_fract_y
_atom_site_fract_z
N3 N 0.0671(5) 0.5655(5) 0.0656(7)
C2 C 0.7008(8) 0.7818(8) 0.9920(10)
C3 C 0.7256(7) 0.8246(8) 0.8675(9)
C4 C 0.8044(7) 0.7753(7) 0.7961(10)
H3 H 0.8242 0.8004 0.7124
C5 C 0.8526(8) 0.6896(8) 0.8494(10)
H4 H 0.9073 0.6599 0.8013
C6 C 0.6816(6) 0.9259(7) 0.8216(8)
H5 H 0.7090 0.9405 0.7330
H6 H 0.7068 0.9803 0.8809
C7 C 0.5154(8) 0.8645(7) 0.7140(8)
H7 H 0.5657 0.8118 0.6836
C8 C 0.4191(11) 0.8094(9) 0.7762(14)
H8 H 0.4421 0.7551 0.8356
H9 H 0.3772 0.7797 0.7062
H10 H 0.3784 0.8594 0.8254
C9 C 0.4780(6) 0.9289(7) 0.5943(8)
N1 N 0.8261(6) 0.6450(6) 0.9680(7)
N2 N 0.5655(5) 0.9329(5) 0.8156(7)
H14 H 0.5416 0.9115 0.8959
O2 O 0.4455(5) 0.8753(5) 0.4954(6)
O5 O 0.9739(4) 0.4780(4) 0.8496(6)
Zn2 Zn 0.48277(7) 0.90972(7) 0.29161(7)
O1 O 0.5220(4) 0.9739(4) 0.0996(6)
C1 C 0.3060(7) 0.7518(7) 0.2863(12)
H1 H 0.3329 0.7332 0.3695
C2_2 C 0.2182(8) 0.7008(8) 0.2420(10)
H2 H 0.1872 0.6497 0.2950
C3_2 C 0.1754(8) 0.7256(7) 0.1175(9)
C4_2 C 0.2247(7) 0.8044(7) 0.0461(10)
C5_2 C 0.3104(8) 0.8526(8) 0.0994(10)
H4_2 H 0.3401 0.9073 0.0513
C6_2 C 0.0741(7) 0.6816(6) 0.0716(8)
H6_2 H 0.0197 0.7068 0.1309
C8_2 C 0.1906(9) 0.4191(11) 0.0262(14)
H8_2 H 0.2449 0.4421 0.0856
H10_2 H 0.1406 0.3784 0.0754
C10 C 0.6732(13) 0.8590(15) 0.3520(17)
C11 C 0.7831(17) 0.830(2) 0.367(3)
H11 H 0.7894 0.7552 0.3672
H12 H 0.8093 0.8571 0.4505
H13 H 0.8229 0.8584 0.2945
N1_2 N 0.3550(6) 0.8261(6) 0.2180(7)
H14_2 H 0.0885 0.5416 0.1459
O3 O 0.6063(6) 0.8107(6) 0.2952(10)
O4 O 0.6637(10) 0.9528(10) 0.3903(14)
O1_2 O 0.4780(4) 0.0261(4) 0.5996(6)
Zn3 Zn 0.51723(7) 0.09028(7) 0.79161(7)
C1_2 C 0.7518(7) 0.6940(7) 0.0363(12)
H1_2 H 0.7332 0.6671 0.1195
H2_2 H 0.6497 0.8128 0.0450
C10_2 C 0.8590(15) 0.3268(13) 0.1020(17)
C11_2 C 0.830(2) 0.2169(17) 0.117(3)
H11_2 H 0.7552 0.2106 0.1172
H12_2 H 0.8571 0.1907 0.2005
H13_2 H 0.8584 0.1771 0.0445
O3_2 O 0.8107(6) 0.3937(6) 0.0452(10)
O4_2 O 0.9528(10) 0.3363(10) 0.1403(14)
Zn1 Zn 0.90972(7) 0.51723(7) 0.04161(7)
O6 O 0.8753(5) 0.5545(5) 0.2454(6)
O2_2 O 0.5545(5) 0.1247(5) 0.9954(6)
N3_2 N 0.9329(5) 0.4345(5) 0.5656(7)
C1_3 C 0.6940(7) 0.2482(7) 0.7863(12)
H1_3 H 0.6671 0.2668 0.8695
C2_3 C 0.7818(8) 0.2992(8) 0.7420(10)
H2_3 H 0.8128 0.3503 0.7950
C3_3 C 0.8246(8) 0.2744(7) 0.6175(9)
C4_3 C 0.7753(7) 0.1956(7) 0.5461(10)
H3_2 H 0.8004 0.1758 0.4624
C5_3 C 0.6896(8) 0.1474(8) 0.5994(10)
H4_3 H 0.6599 0.0927 0.5513
C6_3 C 0.9259(7) 0.3184(6) 0.5716(8)
H5_2 H 0.9405 0.2910 0.4830
H6_3 H 0.9803 0.2932 0.6309
C7_2 C 0.8645(7) 0.4846(8) 0.4640(8)
H7_2 H 0.8118 0.4343 0.4336
C8_3 C 0.8094(9) 0.5809(11) 0.5262(14)
H8_3 H 0.7551 0.5579 0.5856
H9_2 H 0.7797 0.6228 0.4562
H10_3 H 0.8594 0.6216 0.5754
C9_2 C 0.9289(7) 0.5220(6) 0.3443(8)
C10_3 C 0.3268(13) 0.1410(15) 0.8520(17)
C11_3 C 0.2169(17) 0.170(2) 0.867(3)
H11_3 H 0.2106 0.2448 0.8672
H12_3 H 0.1907 0.1429 0.9505
H13_3 H 0.1771 0.1416 0.7945
N1_3 N 0.6450(6) 0.1739(6) 0.7180(7)
H14_3 H 0.9115 0.4584 0.6459
O3_3 O 0.3937(6) 0.1893(6) 0.7952(10)
O4_3 O 0.3363(10) 0.0472(10) 0.8903(14)
C1_4 C 0.2482(7) 0.3060(7) 0.5363(12)
H1_4 H 0.2668 0.3329 0.6195
C2_4 C 0.2992(8) 0.2182(8) 0.4920(10)
H2_4 H 0.3503 0.1872 0.5450
C3_4 C 0.2744(7) 0.1754(8) 0.3675(9)
C4_4 C 0.1956(7) 0.2247(7) 0.2961(10)
H3_3 H 0.1758 0.1996 0.2124
C5_4 C 0.1474(8) 0.3104(8) 0.3494(10)
H4_4 H 0.0927 0.3401 0.3013
C6_4 C 0.3184(6) 0.0741(7) 0.3216(8)
H5_3 H 0.2910 0.0595 0.2330
H6_4 H 0.2932 0.0197 0.3809
C7_3 C 0.4846(8) 0.1355(7) 0.2140(8)
H7_3 H 0.4343 0.1882 0.1836
C8_4 C 0.5809(11) 0.1906(9) 0.2762(14)
H8_4 H 0.5579 0.2449 0.3356
H9_3 H 0.6228 0.2203 0.2062
H10_4 H 0.6216 0.1406 0.3254
C9_3 C 0.5220(6) 0.0711(7) 0.0943(8)
C10_4 C 0.1410(15) 0.6732(13) 0.6020(17)
C11_4 C 0.170(2) 0.7831(17) 0.617(3)
H11_4 H 0.2448 0.7894 0.6172
H12_4 H 0.1429 0.8093 0.7005
H13_4 H 0.1416 0.8229 0.5445
N1_4 N 0.1739(6) 0.3550(6) 0.4680(7)
N2_2 N 0.4345(5) 0.0671(5) 0.3156(7)
H14_4 H 0.4584 0.0885 0.3959
O3_4 O 0.1893(6) 0.6063(6) 0.5452(10)
O4_4 O 0.0472(10) 0.6637(10) 0.6403(14)
Zn1_2 Zn 0.09028(7) 0.48277(7) 0.54161(7)
O5_2 O 0.0261(4) 0.5220(4) 0.3496(6)
O6_2 O 0.1247(5) 0.4455(5) 0.7454(6)
H3_4 H 0.1996 0.8242 0.9624
H5_4 H 0.0595 0.7090 0.9830
C7_4 C 0.1355(7) 0.5154(8) 0.9640(8)
H7_4 H 0.1882 0.5657 0.9336
H9_4 H 0.2203 0.3772 0.9562
C9_4 C 0.0711(7) 0.4780(6) 0.8443(8)
loop_
_geom_bond_atom_site_label_1
_geom_bond_atom_site_label_2
_geom_bond_site_symmetry_1
_geom_bond_site_symmetry_2
C3 C2 1_555 1_555
C4 C3 1_555 1_555
H3 C4 1_555 1_555
C5 C4 1_555 1_555
H4 C5 1_555 1_555
C6 C3 1_555 1_555
H5 C6 1_555 1_555
H6 C6 1_555 1_555
C7 H7 1_555 1_555
C8 C7 1_555 1_555
H8 C8 1_555 1_555
H9 C8 1_555 1_555
H10 C8 1_555 1_555
C9 C7 1_555 1_555
N2 C6 1_555 1_555
H14 N2 1_555 1_555
O2 C9 1_555 1_555
Zn2 O2 1_555 1_555
C5 N1 1_555 1_555
C7 N2 1_555 1_555
O1 Zn2 1_555 1_555
C1 H1 1_555 1_555
C2_2 C1 1_555 1_555
H2 C2_2 1_555 1_555
C3_2 C2_2 1_555 1_555
C4_2 C3_2 1_555 1_555
C5_2 C4_2 1_555 1_555
H4_2 C5_2 1_555 1_555
C6_2 C3_2 1_555 1_555
H6_2 C6_2 1_555 1_555
H8_2 C8_2 1_555 1_555
H10_2 C8_2 1_555 1_555
C10 C11 1_555 1_555
C11 H11 1_555 1_555
H12 C11 1_555 1_555
H13 C11 1_555 1_555
N1_2 C1 1_555 1_555
N3 C6_2 1_555 1_555
H14_2 N3 1_555 1_555
O3 C10 1_555 1_555
O4 C10 1_555 1_555
Zn2 N1_2 1_555 1_555
C5_2 N1_2 1_555 1_555
O3 Zn2 1_555 1_555
O4 Zn2 1_555 1_555
O1_2 Zn3 1_555 1_555
C1_2 H1_2 1_555 1_555
C10_2 C11_2 1_555 1_555
C11_2 H11_2 1_555 1_555
H12_2 C11_2 1_555 1_555
H13_2 C11_2 1_555 1_555
O3_2 C10_2 1_555 1_555
O4_2 C10_2 1_555 1_555
O6 Zn1 1_555 1_555
O3_2 Zn1 1_555 1_555
O4_2 Zn1 1_555 1_555
Zn3 O2_2 1_555 1_555
C1_3 H1_3 1_555 1_555
C2_3 C1_3 1_555 1_555
H2_3 C2_3 1_555 1_555
C3_3 C2_3 1_555 1_555
C4_3 C3_3 1_555 1_555
H3_2 C4_3 1_555 1_555
C5_3 C4_3 1_555 1_555
H4_3 C5_3 1_555 1_555
C6_3 C3_3 1_555 1_555
H5_2 C6_3 1_555 1_555
H6_3 C6_3 1_555 1_555
C7_2 H7_2 1_555 1_555
C8_3 C7_2 1_555 1_555
H8_3 C8_3 1_555 1_555
H9_2 C8_3 1_555 1_555
H10_3 C8_3 1_555 1_555
C9_2 C7_2 1_555 1_555
C10_3 C11_3 1_555 1_555
C11_3 H11_3 1_555 1_555
H12_3 C11_3 1_555 1_555
H13_3 C11_3 1_555 1_555
N1_3 C1_3 1_555 1_555
N3_2 C6_3 1_555 1_555
H14_3 N3_2 1_555 1_555
O6 C9_2 1_555 1_555
O3_3 C10_3 1_555 1_555
O4_3 C10_3 1_555 1_555
Zn3 N1_3 1_555 1_555
C5_3 N1_3 1_555 1_555
C7_2 N3_2 1_555 1_555
O3_3 Zn3 1_555 1_555
O4_3 Zn3 1_555 1_555
C1_4 H1_4 1_555 1_555
C2_4 C1_4 1_555 1_555
H2_4 C2_4 1_555 1_555
C3_4 C2_4 1_555 1_555
C4_4 C3_4 1_555 1_555
H3_3 C4_4 1_555 1_555
C5_4 C4_4 1_555 1_555
H4_4 C5_4 1_555 1_555
C6_4 C3_4 1_555 1_555
H5_3 C6_4 1_555 1_555
H6_4 C6_4 1_555 1_555
C7_3 H7_3 1_555 1_555
C8_4 C7_3 1_555 1_555
H8_4 C8_4 1_555 1_555
H9_3 C8_4 1_555 1_555
H10_4 C8_4 1_555 1_555
C9_3 C7_3 1_555 1_555
C10_4 C11_4 1_555 1_555
C11_4 H11_4 1_555 1_555
H12_4 C11_4 1_555 1_555
H13_4 C11_4 1_555 1_555
N1_4 C1_4 1_555 1_555
N2_2 C6_4 1_555 1_555
H14_4 N2_2 1_555 1_555
O3_4 C10_4 1_555 1_555
O4_4 C10_4 1_555 1_555
Zn1_2 N1_4 1_555 1_555
O5_2 Zn1_2 1_555 1_555
O6_2 Zn1_2 1_555 1_555
C5_4 N1_4 1_555 1_555
C7_3 N2_2 1_555 1_555
O3_4 Zn1_2 1_555 1_555
O4_4 Zn1_2 1_555 1_555
C7_4 H7_4 1_555 1_555
C9_4 C7_4 1_555 1_555
O6_2 C9_4 1_555 1_555

#END
