
###############################################################################
#
# This file contains modified crystal structure data generated from the
# MOF subset of the Cambridge Structural Database (CSD) v543 
# hosted by the Cambridge Crystallographic Data Centre (CCDC).
#
# This work is licensed under the Creative Commons
# Attribution-NonCommercial-ShareAlike 4.0 International License.
# To view a copy of this license, visit
# http://creativecommons.org/licenses/by-nc-sa/4.0/
# or send a letter to
# Creative Commons, PO Box 1866, Mountain View, CA 94042, USA.
#
# CIF created using the CSD Python API on 29 September 2022
# The structure has been converted into the P1 space group
# The structure has a 3D framework
# The original CSD entry MAXFIA is in the tetragonal crystal system
# The original CSD entry MAXFIA is in a Sohncke space group
# The framework has been calculated to contain at least 10.0% void space
# The void calculation uses a probe of radius 1.32A, grid spacing 0.4
# The framework is charged, counterions have been retained in the structure
#
###############################################################################

data_MAXFIA
_chemical_formula_moiety         '(C32 H24 Ag5 B5 F16 N16)n'
_symmetry_cell_setting           triclinic
_symmetry_space_group_name_H-M   'P 1'
_symmetry_Int_Tables_number      1
_space_group_name_Hall           'P 1'
loop_
_symmetry_equiv_pos_site_id
_symmetry_equiv_pos_as_xyz
1 x,y,z
_cell_length_a                   11.396(7)
_cell_length_b                   11.396(7)
_cell_length_c                   13.913(9)
_cell_angle_alpha                90
_cell_angle_beta                 90
_cell_angle_gamma                90
_cell_volume                     1806.86
loop_
_atom_site_label
_atom_site_type_symbol
_atom_site_fract_x
_atom_site_fract_y
_atom_site_fract_z
Ag1 Ag 0.10919(5) 0.10919(5) 0.0000
N1 N 0.2709(6) 0.1951(7) 0.0887(5)
C1 C 0.3228(7) 0.2879(8) 0.0497(6)
C2 C 0.4104(7) 0.3468(8) 0.0986(6)
N2 N 0.4470(7) 0.3148(7) 0.1867(5)
C3 C 0.3923(7) 0.2205(10) 0.2242(5)
H2 H 0.4160 0.1925 0.2855
Ag2 Ag 0.60919(5) 0.39081(5) 0.2500
C8 C 0.3034(9) 0.1636(9) 0.1765(6)
H5 H 0.2643 0.1001 0.2071
H6 H 0.4463 0.4126 0.0688
Ag1_2 Ag 0.10919(5) 0.10919(5) 1.0000
H1 H 0.4126 0.4463 0.9312
C4 C 0.1636(9) 0.3034(9) 0.8235(6)
H3 H 0.1001 0.2643 0.7929
N3 N 0.1951(7) 0.2709(6) 0.9113(5)
C5 C 0.2879(8) 0.3228(7) 0.9503(6)
C6 C 0.3468(8) 0.4104(7) 0.9014(6)
N4 N 0.3148(7) 0.4470(7) 0.8133(5)
Ag3 Ag 0.39081(5) 0.60919(5) 0.7500
C7 C 0.2205(10) 0.3923(7) 0.7758(5)
H4 H 0.1925 0.4160 0.7145
N5 N 0.1852(7) 0.9470(7) 0.9367(5)
N6 N 0.9470(7) 0.1852(7) 0.0633(5)
N6_2 N 0.0530(7) 0.8148(7) 0.5633(5)
N5_2 N 0.8148(7) 0.0530(7) 0.4367(5)
Ag1_3 Ag 0.89081(5) 0.89081(5) 0.5000
N1_2 N 0.7291(6) 0.8049(7) 0.5887(5)
C1_2 C 0.6772(7) 0.7121(8) 0.5497(6)
C2_2 C 0.5896(7) 0.6532(8) 0.5986(6)
H1_2 H 0.5874 0.5537 0.4312
N2_2 N 0.5530(7) 0.6852(7) 0.6867(5)
C3_2 C 0.6077(7) 0.7795(10) 0.7242(5)
H2_2 H 0.5840 0.8075 0.7855
C4_2 C 0.8364(9) 0.6966(9) 0.3235(6)
H3_2 H 0.8999 0.7357 0.2929
N3_2 N 0.8049(7) 0.7291(6) 0.4113(5)
C5_2 C 0.7121(8) 0.6772(7) 0.4503(6)
C6_2 C 0.6532(8) 0.5896(7) 0.4014(6)
N4_2 N 0.6852(7) 0.5530(7) 0.3133(5)
C7_2 C 0.7795(10) 0.6077(7) 0.2758(5)
H4_2 H 0.8075 0.5840 0.2145
C8_2 C 0.6966(9) 0.8364(9) 0.6765(6)
H5_2 H 0.7357 0.8999 0.7071
H6_2 H 0.5537 0.5874 0.5688
N1_3 N 0.3049(7) 0.7709(6) 0.8387(5)
C1_3 C 0.2121(8) 0.8228(7) 0.7997(6)
C2_3 C 0.1532(8) 0.9104(7) 0.8486(6)
H1_3 H 0.0537 0.9126 0.6812
C3_3 C 0.2795(10) 0.8923(7) 0.9742(5)
C4_3 C 0.1966(9) 0.6636(9) 0.5735(6)
H3_3 H 0.2357 0.6001 0.5429
N3_3 N 0.2291(6) 0.6951(7) 0.6613(5)
C5_3 C 0.1772(7) 0.7879(8) 0.7003(6)
C6_3 C 0.0896(7) 0.8468(8) 0.6514(6)
C7_3 C 0.1077(7) 0.7205(10) 0.5258(5)
H4_3 H 0.0840 0.6925 0.4645
C8_3 C 0.3364(9) 0.8034(9) 0.9265(6)
H5_3 H 0.3999 0.7643 0.9571
H6_3 H 0.0874 0.9463 0.8188
N1_4 N 0.6951(7) 0.2291(6) 0.3387(5)
C1_4 C 0.7879(8) 0.1772(7) 0.2997(6)
C2_4 C 0.8468(8) 0.0896(7) 0.3486(6)
H1_4 H 0.9463 0.0874 0.1812
C3_4 C 0.7205(10) 0.1077(7) 0.4742(5)
H2_3 H 0.6925 0.0840 0.5355
C4_4 C 0.8034(9) 0.3364(9) 0.0735(6)
H3_4 H 0.7643 0.3999 0.0429
N3_4 N 0.7709(6) 0.3049(7) 0.1613(5)
C5_4 C 0.8228(7) 0.2121(8) 0.2003(6)
C6_4 C 0.9104(7) 0.1532(8) 0.1514(6)
C7_4 C 0.8923(7) 0.2795(10) 0.0258(5)
C8_4 C 0.6636(9) 0.1966(9) 0.4265(6)
H5_4 H 0.6001 0.2357 0.4571
H6_4 H 0.9126 0.0537 0.3188
H2_4 H 0.3075 0.9160 0.0355
H4_4 H 0.9160 0.3075 0.9645
B1 B 0.1258(8) 0.8742(8) 0.2500
F1 F 0.0577(7) 0.9014(9) 0.3263(5)
F2 F 0.2414(6) 0.8925(9) 0.2696(8)
F3 F 0.0986(9) 0.9423(7) 0.1737(5)
F4 F 0.1075(9) 0.7586(6) 0.2304(8)
B1_2 B 0.8742(8) 0.1258(8) 0.7500
F1_2 F 0.9423(7) 0.0986(9) 0.8263(5)
F2_2 F 0.7586(6) 0.1075(9) 0.7696(8)
F3_2 F 0.9014(9) 0.0577(7) 0.6737(5)
F4_2 F 0.8925(9) 0.2414(6) 0.7304(8)
B1_3 B 0.6258(8) 0.6258(8) 0.0000
F1_3 F 0.5986(9) 0.5577(7) 0.0763(5)
F2_3 F 0.6075(9) 0.7414(6) 0.0196(8)
B1_4 B 0.6258(8) 0.6258(8) 1.0000
F3_3 F 0.5577(7) 0.5986(9) 0.9237(5)
F4_3 F 0.7414(6) 0.6075(9) 0.9804(8)
B1_5 B 0.3742(8) 0.3742(8) 0.5000
F1_4 F 0.4014(9) 0.4423(7) 0.5763(5)
F2_4 F 0.3925(9) 0.2586(6) 0.5196(8)
F3_4 F 0.4423(7) 0.4014(9) 0.4237(5)
F4_4 F 0.2586(6) 0.3925(9) 0.4804(8)
loop_
_geom_bond_atom_site_label_1
_geom_bond_atom_site_label_2
_geom_bond_site_symmetry_1
_geom_bond_site_symmetry_2
Ag1 N1 1_555 1_555
N1 C1 1_555 1_555
C1 C2 1_555 1_555
C2 N2 1_555 1_555
N2 C3 1_555 1_555
C3 H2 1_555 1_555
Ag2 N2 1_555 1_555
C8 N1 1_555 1_555
H5 C8 1_555 1_555
H6 C2 1_555 1_555
C3 C8 1_555 1_555
H1 C6 1_555 1_555
C4 H3 1_555 1_555
N3 Ag1_2 1_555 1_555
C6 C5 1_555 1_555
N4 C6 1_555 1_555
Ag3 N4 1_555 1_555
C7 C4 1_555 1_555
H4 C7 1_555 1_555
C4 N3 1_555 1_555
N3 C5 1_555 1_555
N4 C7 1_555 1_555
Ag1_3 N1_2 1_555 1_555
N1_2 C1_2 1_555 1_555
C1_2 C2_2 1_555 1_555
C2_2 N2_2 1_555 1_555
H1_2 C6_2 1_555 1_555
N2_2 C3_2 1_555 1_555
C3_2 H2_2 1_555 1_555
C4_2 H3_2 1_555 1_555
Ag3 N2_2 1_555 1_555
N3_2 Ag1_3 1_555 1_555
C5_2 C1_2 1_555 1_555
C6_2 C5_2 1_555 1_555
N4_2 C6_2 1_555 1_555
Ag2 N4_2 1_555 1_555
C7_2 C4_2 1_555 1_555
H4_2 C7_2 1_555 1_555
C8_2 N1_2 1_555 1_555
H5_2 C8_2 1_555 1_555
H6_2 C2_2 1_555 1_555
C3_2 C8_2 1_555 1_555
C4_2 N3_2 1_555 1_555
N3_2 C5_2 1_555 1_555
N4_2 C7_2 1_555 1_555
Ag3 N1_3 1_555 1_555
N1_3 C1_3 1_555 1_555
C1_3 C2_3 1_555 1_555
C2_3 N5 1_555 1_555
H1_3 C6_3 1_555 1_555
N5 C3_3 1_555 1_555
C4_3 H3_3 1_555 1_555
N3_3 Ag3 1_555 1_555
C5_3 C1_3 1_555 1_555
C6_3 C5_3 1_555 1_555
N6_2 C6_3 1_555 1_555
C7_3 C4_3 1_555 1_555
H4_3 C7_3 1_555 1_555
C8_3 N1_3 1_555 1_555
H5_3 C8_3 1_555 1_555
H6_3 C2_3 1_555 1_555
C3_3 C8_3 1_555 1_555
C4_3 N3_3 1_555 1_555
N3_3 C5_3 1_555 1_555
N6_2 C7_3 1_555 1_555
Ag2 N1_4 1_555 1_555
N1_4 C1_4 1_555 1_555
C1_4 C2_4 1_555 1_555
C2_4 N5_2 1_555 1_555
H1_4 C6_4 1_555 1_555
N5_2 C3_4 1_555 1_555
C3_4 H2_3 1_555 1_555
C4_4 H3_4 1_555 1_555
N3_4 Ag2 1_555 1_555
C5_4 C1_4 1_555 1_555
C6_4 C5_4 1_555 1_555
N6 C6_4 1_555 1_555
C7_4 C4_4 1_555 1_555
C8_4 N1_4 1_555 1_555
H5_4 C8_4 1_555 1_555
H6_4 C2_4 1_555 1_555
C3_4 C8_4 1_555 1_555
C4_4 N3_4 1_555 1_555
N3_4 C5_4 1_555 1_555
N6 C7_4 1_555 1_555
B1 F1 1_555 1_555
F2 B1 1_555 1_555
F3 B1 1_555 1_555
F4 B1 1_555 1_555
B1_2 F1_2 1_555 1_555
F2_2 B1_2 1_555 1_555
F3_2 B1_2 1_555 1_555
F4_2 B1_2 1_555 1_555
B1_3 F1_3 1_555 1_555
F2_3 B1_3 1_555 1_555
F3_3 B1_4 1_555 1_555
F4_3 B1_4 1_555 1_555
B1_5 F1_4 1_555 1_555
F2_4 B1_5 1_555 1_555
F3_4 B1_5 1_555 1_555
F4_4 B1_5 1_555 1_555

#END
