
###############################################################################
#
# This file contains modified crystal structure data generated from the
# MOF subset of the Cambridge Structural Database (CSD) v543 
# hosted by the Cambridge Crystallographic Data Centre (CCDC).
#
# This work is licensed under the Creative Commons
# Attribution-NonCommercial-ShareAlike 4.0 International License.
# To view a copy of this license, visit
# http://creativecommons.org/licenses/by-nc-sa/4.0/
# or send a letter to
# Creative Commons, PO Box 1866, Mountain View, CA 94042, USA.
#
# CIF created using the CSD Python API on 29 September 2022
# The structure has been converted into the P1 space group
# The structure has a 3D framework
# The original CSD entry MAYKOO is in the tetragonal crystal system
# The framework has been calculated to contain at least 10.0% void space
# The void calculation uses a probe of radius 1.32A, grid spacing 0.4
# H atom positions have been added when not included in the experimental data
# Generated hydrogen atom positions removed from atoms on special positions
#
###############################################################################

data_MAYKOO
_chemical_formula_moiety         '(C388 H336 Cu20 N20 O100)n'
_symmetry_cell_setting           triclinic
_symmetry_space_group_name_H-M   'P 1'
_symmetry_Int_Tables_number      1
_space_group_name_Hall           'P 1'
loop_
_symmetry_equiv_pos_site_id
_symmetry_equiv_pos_as_xyz
1 x,y,z
_cell_length_a                   19.156(5)
_cell_length_b                   19.156(5)
_cell_length_c                   61.292(5)
_cell_angle_alpha                90
_cell_angle_beta                 90
_cell_angle_gamma                90
_cell_volume                     22491.2
loop_
_atom_site_label
_atom_site_type_symbol
_atom_site_fract_x
_atom_site_fract_y
_atom_site_fract_z
Cu3 Cu 0.000000(15) 0.0687 0.497766(5)
Cu5 Cu 0.000000(15) 0.9313 0.502234(5)
Cu2 Cu 0.5000 0.2500 0.646431(7)
C8 C 0.71005(13) 0.01163(13) 0.64380(4)
C9 C 0.74961(12) 0.00039(12) 0.6250
C10 C 0.66009(13) 0.06371(12) 0.64371(4)
H6 H 0.6346 0.0729 0.6563
C11 C 0.64771(11) 0.10229(11) 0.6250
C12 C 0.59247(10) 0.15753(10) 0.6250
O3 O 0.57117(8) 0.17822(8) 0.64327(2)
O4 O 0.5000 0.2500 0.68155(5)
Cu3_2 Cu 1.000000(15) 0.0687 0.497766(5)
Cu7 Cu 0.3187 0.750000(15) 0.752234(5)
Cu8 Cu 0.1813 0.750000(15) 0.747766(5)
Cu9 Cu -0.000000(15) 0.4313 0.497766(5)
Cu10 Cu -0.000000(15) 0.5687 0.502234(5)
Cu11 Cu 0.5000 0.2500 0.603569(7)
C15 C 0.91042(11) 0.00629(10) 0.52992(3)
C16 C 0.25629(10) 0.66042(11) 0.72008(3)
C17 C 0.08958(11) 0.49371(10) 0.52992(3)
C18 C 0.86402(12) 0.01395(11) 0.54928(3)
C19 C 0.26395(11) 0.61402(12) 0.70072(3)
C20 C 0.13598(12) 0.48605(11) 0.54928(3)
C22 C 0.20635(12) 0.59461(14) 0.68855(4)
C23 C 0.15539(14) 0.54365(12) 0.56145(4)
H11 H 0.1620 0.6090 0.6928
H12 H 0.1410 0.5880 0.5572
C25 C 0.21431(13) 0.55382(15) 0.67006(4)
C26 C 0.19618(15) 0.53569(13) 0.57994(4)
H14 H 0.1753 0.5414 0.6619
H15 H 0.2086 0.5747 0.5881
C27 C 0.78136(13) 0.02977(13) 0.58642(4)
C28 C 0.27977(13) 0.53136(13) 0.66358(4)
C29 C 0.21864(13) 0.47023(13) 0.58642(4)
C30 C 0.80091(15) 0.08686(13) 0.57406(4)
C31 C 0.33686(13) 0.55091(15) 0.67594(4)
C32 C 0.19909(15) 0.41314(13) 0.57406(4)
H16 H 0.7862 0.1312 0.5782
H17 H 0.3812 0.5362 0.6718
H18 H 0.2138 0.3688 0.5782
C33 C 0.84190(14) 0.07951(12) 0.55568(4)
C34 C 0.32951(12) 0.59190(14) 0.69432(4)
C35 C 0.15810(14) 0.42049(12) 0.55568(4)
H19 H 0.8546 0.1186 0.5476
H20 H 0.3686 0.6046 0.7024
H21 H 0.1454 0.3814 0.5476
C36 C 0.73837(13) 0.03995(13) 0.60620(4)
C37 C 0.28995(13) 0.48837(13) 0.64380(4)
C38 C 0.26163(13) 0.46005(13) 0.60620(4)
C39 C 0.25039(12) 0.49961(12) 0.6250
H22 H 0.2161 0.5339 0.6250
C40 C 0.68629(12) 0.08991(13) 0.60629(4)
C41 C 0.33991(13) 0.43629(12) 0.64371(4)
C42 C 0.31371(12) 0.41009(13) 0.60629(4)
H23 H 0.6771 0.1154 0.5937
H24 H 0.3654 0.4271 0.6563
H25 H 0.3229 0.3846 0.5937
C43 C 0.35229(11) 0.39771(11) 0.6250
C44 C 0.40753(10) 0.34247(10) 0.6250
O5 O 0.92862(8) 0.06135(7) 0.52048(2)
O6 O 0.31135(7) 0.67862(8) 0.72952(2)
O7 O 0.07138(8) 0.43865(7) 0.52048(2)
O12 O 0.19585(7) 0.67925(8) 0.72521(2)
O13 O 0.07075(8) 0.55415(7) 0.52479(2)
O17 O 0.57178(8) 0.17883(8) 0.60673(2)
O18 O 0.42883(8) 0.32178(8) 0.64327(2)
O19 O 0.42822(8) 0.32117(8) 0.60673(2)
O20 O 0.42883(8) 0.17822(8) 0.64327(2)
O21 O 0.57117(8) 0.32178(8) 0.64327(2)
Cu1 Cu 0.6813 0.750000(15) 0.752234(5)
C1 C 0.74371(10) 0.83958(11) 0.72008(3)
C2 C 0.73605(11) 0.88598(12) 0.70072(3)
C3 C 0.79365(12) 0.90539(14) 0.68855(4)
H1 H 0.8380 0.8910 0.6928
C4 C 0.78569(13) 0.94618(15) 0.67006(4)
H2 H 0.8247 0.9586 0.6619
C5 C 0.72023(13) 0.96864(13) 0.66358(4)
C6 C 0.66314(13) 0.94909(15) 0.67594(4)
H3 H 0.6188 0.9638 0.6718
C7 C 0.67049(12) 0.90810(14) 0.69432(4)
H4 H 0.6314 0.8954 0.7024
H5 H 0.7839 0.9661 0.6250
N1 N 0.56720(11) 0.7500 0.75306(3)
O1 O 0.68865(7) 0.82138(8) 0.72952(2)
O2 O 0.80415(7) 0.82075(8) 0.72521(2)
C13 C 0.54041(15) 0.8089(3) 0.76361(13)
H7 H 0.5572 0.8099 0.7785
H8 H 0.5572 0.8506 0.7563
C14 C 0.5410(2) 0.7500 0.73164(9)
H9 H 0.5578 0.7094 0.7240
Cu4 Cu 0.8187 0.750000(15) 0.747766(5)
Cu5_2 Cu 1.000000(15) 0.9313 0.502234(5)
C21 C 0.84461(14) 0.95635(12) 0.56145(4)
H10 H 0.8590 0.9120 0.5572
C24 C 0.80382(15) 0.96431(13) 0.57994(4)
H13 H 0.7914 0.9253 0.5881
N2 N 0.43280(11) 0.7500 0.75306(3)
N3 N 0.93280(11) 0.7500 0.74694(3)
O8 O 0.68865(7) 0.67862(8) 0.72952(2)
O9 O 0.81135(7) 0.82138(8) 0.77048(2)
O10 O 0.81135(7) 0.67862(8) 0.77048(2)
O11 O 0.92925(8) 0.94585(7) 0.52479(2)
O14 O 0.69585(7) 0.82075(8) 0.77479(2)
O15 O 0.69585(7) 0.67925(8) 0.77479(2)
O16 O 0.80415(7) 0.67925(8) 0.72521(2)
C45 C 0.45959(15) 0.8089(3) 0.76361(13)
C46 C 0.45959(15) 0.6911(3) 0.76361(13)
C47 C 0.54041(15) 0.6911(3) 0.76361(13)
H26 H 0.5572 0.6901 0.7785
H27 H 0.4428 0.6901 0.7785
H28 H 0.4428 0.8099 0.7785
H29 H 0.5572 0.6494 0.7563
H30 H 0.4428 0.6494 0.7563
H31 H 0.4428 0.8506 0.7563
C48 C 0.4590(2) 0.7500 0.73164(9)
H32 H 0.4422 0.7906 0.7240
H33 H 0.4422 0.7094 0.7240
H34 H 0.5578 0.7906 0.7240
Cu9_2 Cu 1.000000(15) 0.4313 0.497766(5)
Cu10_2 Cu 1.000000(15) 0.5687 0.502234(5)
N3_2 N 0.06720(11) 0.7500 0.74694(3)
O8_2 O 0.31135(7) 0.82138(8) 0.72952(2)
O9_2 O 0.18865(7) 0.67862(8) 0.77048(2)
O10_2 O 0.18865(7) 0.82138(8) 0.77048(2)
O14_2 O 0.30415(7) 0.67925(8) 0.77479(2)
O15_2 O 0.30415(7) 0.82075(8) 0.77479(2)
O16_2 O 0.19585(7) 0.82075(8) 0.72521(2)
Cu1_2 Cu 0.6813 0.250000(15) 0.247766(5)
C1_2 C 0.74371(10) 0.16042(11) 0.27992(3)
C2_2 C 0.73605(11) 0.11402(12) 0.29928(3)
C3_2 C 0.79365(12) 0.09461(14) 0.31145(4)
H1_2 H 0.8380 0.1090 0.3072
C4_2 C 0.78569(13) 0.05382(15) 0.32994(4)
H2_2 H 0.8247 0.0414 0.3381
C5_2 C 0.72023(13) 0.03136(13) 0.33642(4)
C6_2 C 0.66314(13) 0.05091(15) 0.32406(4)
H3_2 H 0.6188 0.0362 0.3282
C7_2 C 0.67049(12) 0.09190(14) 0.30568(4)
H4_2 H 0.6314 0.1046 0.2976
H5_2 H 0.7839 0.0339 0.3750
N1_2 N 0.56720(11) 0.2500 0.24694(3)
O1_2 O 0.68865(7) 0.17862(8) 0.27048(2)
O2_2 O 0.80415(7) 0.17925(8) 0.27479(2)
C13_2 C 0.54041(15) 0.1911(3) 0.23639(13)
H7_2 H 0.5572 0.1901 0.2215
H8_2 H 0.5572 0.1494 0.2437
C14_2 C 0.5410(2) 0.2500 0.26836(9)
H9_2 H 0.5578 0.2906 0.2760
Cu4_2 Cu 0.8187 0.250000(15) 0.252234(5)
Cu6 Cu 0.3187 0.250000(15) 0.247766(5)
C21_2 C 0.84461(14) 0.04365(12) 0.43855(4)
H10_2 H 0.8590 0.0880 0.4428
C24_2 C 0.80382(15) 0.03569(13) 0.42006(4)
H13_2 H 0.7914 0.0747 0.4119
N2_2 N 0.43280(11) 0.2500 0.24694(3)
N3_3 N 0.93280(11) 0.2500 0.25306(3)
O8_3 O 0.68865(7) 0.32138(8) 0.27048(2)
O9_3 O 0.81135(7) 0.17862(8) 0.22952(2)
O10_3 O 0.81135(7) 0.32138(8) 0.22952(2)
O11_2 O 0.92925(8) 0.05415(7) 0.47521(2)
O14_3 O 0.69585(7) 0.17925(8) 0.22521(2)
O15_3 O 0.69585(7) 0.32075(8) 0.22521(2)
O16_3 O 0.80415(7) 0.32075(8) 0.27479(2)
C45_2 C 0.45959(15) 0.1911(3) 0.23639(13)
C46_2 C 0.45959(15) 0.3089(3) 0.23639(13)
C47_2 C 0.54041(15) 0.3089(3) 0.23639(13)
H26_2 H 0.5572 0.3099 0.2215
H27_2 H 0.4428 0.3099 0.2215
H28_2 H 0.4428 0.1901 0.2215
H29_2 H 0.5572 0.3506 0.2437
H30_2 H 0.4428 0.3506 0.2437
H31_2 H 0.4428 0.1494 0.2437
C48_2 C 0.4590(2) 0.2500 0.26836(9)
H32_2 H 0.4422 0.2094 0.2760
H33_2 H 0.4422 0.2906 0.2760
H34_2 H 0.5578 0.2094 0.2760
Cu2_2 Cu 0.5000 0.7500 0.353569(7)
C8_2 C 0.71005(13) 0.98837(13) 0.35620(4)
C9_2 C 0.74961(12) 0.99961(12) 0.3750
C10_2 C 0.66009(13) 0.93629(12) 0.35629(4)
H6_2 H 0.6346 0.9271 0.3437
C11_2 C 0.64771(11) 0.89771(11) 0.3750
C12_2 C 0.59247(10) 0.84247(10) 0.3750
O3_2 O 0.57117(8) 0.82178(8) 0.35673(2)
O4_2 O 0.5000 0.7500 0.31845(5)
Cu8_2 Cu 0.1813 0.250000(15) 0.252234(5)
Cu11_2 Cu 0.5000 0.7500 0.396431(7)
C15_2 C 0.91042(11) 0.99371(10) 0.47008(3)
C16_2 C 0.25629(10) 0.33958(11) 0.27992(3)
C17_2 C 0.08958(11) 0.50629(10) 0.47008(3)
C18_2 C 0.86402(12) 0.98605(11) 0.45072(3)
C19_2 C 0.26395(11) 0.38598(12) 0.29928(3)
C20_2 C 0.13598(12) 0.51395(11) 0.45072(3)
C22_2 C 0.20635(12) 0.40539(14) 0.31145(4)
C23_2 C 0.15539(14) 0.45635(12) 0.43855(4)
H11_2 H 0.1620 0.3910 0.3072
H12_2 H 0.1410 0.4120 0.4428
C25_2 C 0.21431(13) 0.44618(15) 0.32994(4)
C26_2 C 0.19618(15) 0.46431(13) 0.42006(4)
H14_2 H 0.1753 0.4586 0.3381
H15_2 H 0.2086 0.4253 0.4119
C27_2 C 0.78136(13) 0.97023(13) 0.41358(4)
C28_2 C 0.27977(13) 0.46864(13) 0.33642(4)
C29_2 C 0.21864(13) 0.52977(13) 0.41358(4)
C30_2 C 0.80091(15) 0.91314(13) 0.42594(4)
C31_2 C 0.33686(13) 0.44909(15) 0.32406(4)
C32_2 C 0.19909(15) 0.58686(13) 0.42594(4)
H16_2 H 0.7862 0.8688 0.4218
H17_2 H 0.3812 0.4638 0.3282
H18_2 H 0.2138 0.6312 0.4218
C33_2 C 0.84190(14) 0.92049(12) 0.44432(4)
C34_2 C 0.32951(12) 0.40810(14) 0.30568(4)
C35_2 C 0.15810(14) 0.57951(12) 0.44432(4)
H19_2 H 0.8546 0.8814 0.4524
H20_2 H 0.3686 0.3954 0.2976
H21_2 H 0.1454 0.6186 0.4524
C36_2 C 0.73837(13) 0.96005(13) 0.39380(4)
C37_2 C 0.28995(13) 0.51163(13) 0.35620(4)
C38_2 C 0.26163(13) 0.53995(13) 0.39380(4)
C39_2 C 0.25039(12) 0.50039(12) 0.3750
H22_2 H 0.2161 0.4661 0.3750
C40_2 C 0.68629(12) 0.91009(13) 0.39371(4)
C41_2 C 0.33991(13) 0.56371(12) 0.35629(4)
C42_2 C 0.31371(12) 0.58991(13) 0.39371(4)
H23_2 H 0.6771 0.8846 0.4063
H24_2 H 0.3654 0.5729 0.3437
H25_2 H 0.3229 0.6154 0.4063
C43_2 C 0.35229(11) 0.60229(11) 0.3750
C44_2 C 0.40753(10) 0.65753(10) 0.3750
O5_2 O 0.92862(8) 0.93865(7) 0.47952(2)
O6_2 O 0.31135(7) 0.32138(8) 0.27048(2)
O7_2 O 0.07138(8) 0.56135(7) 0.47952(2)
O12_2 O 0.19585(7) 0.32075(8) 0.27479(2)
O13_2 O 0.07075(8) 0.44585(7) 0.47521(2)
O17_2 O 0.57178(8) 0.82117(8) 0.39327(2)
O18_2 O 0.42883(8) 0.67822(8) 0.35673(2)
O19_2 O 0.42822(8) 0.67883(8) 0.39327(2)
O20_2 O 0.42883(8) 0.82178(8) 0.35673(2)
O21_2 O 0.57117(8) 0.67822(8) 0.35673(2)
N3_4 N 0.06720(11) 0.2500 0.25306(3)
O8_4 O 0.31135(7) 0.17862(8) 0.27048(2)
O9_4 O 0.18865(7) 0.32138(8) 0.22952(2)
O10_4 O 0.18865(7) 0.17862(8) 0.22952(2)
O14_4 O 0.30415(7) 0.32075(8) 0.22521(2)
O15_4 O 0.30415(7) 0.17925(8) 0.22521(2)
O16_4 O 0.19585(7) 0.17925(8) 0.27479(2)
Cu2_3 Cu -0.0000 0.7500 0.103569(7)
C1_3 C 0.41042(11) 0.50629(10) 0.02992(3)
C2_3 C 0.36402(12) 0.51395(11) 0.04928(3)
C3_3 C 0.34461(14) 0.45635(12) 0.06145(4)
H1_3 H 0.3590 0.4120 0.0572
C4_3 C 0.30382(15) 0.46431(13) 0.07994(4)
H2_3 H 0.2914 0.4253 0.0881
C5_3 C 0.28136(13) 0.52977(13) 0.08642(4)
C6_3 C 0.30091(15) 0.58686(13) 0.07406(4)
H3_3 H 0.2862 0.6312 0.0782
C7_3 C 0.34190(14) 0.57951(12) 0.05568(4)
H4_3 H 0.3546 0.6186 0.0476
C8_3 C 0.23837(13) 0.53995(13) 0.10620(4)
C9_3 C 0.24961(12) 0.50039(12) 0.1250
H5_3 H 0.2839 0.4661 0.1250
C10_3 C 0.18629(12) 0.58991(13) 0.10629(4)
H6_3 H 0.1771 0.6154 0.0937
C11_3 C 0.14771(11) 0.60229(11) 0.1250
C12_3 C 0.09247(10) 0.65753(10) 0.1250
O1_3 O 0.42862(8) 0.56135(7) 0.02048(2)
O2_3 O 0.42925(8) 0.44585(7) 0.02479(2)
O3_3 O 0.07178(8) 0.67883(8) 0.10673(2)
O4_3 O -0.0000 0.7500 0.06845(5)
C14_3 C 0.5000 0.7090(2) 0.01836(9)
H9_3 H 0.5406 0.6922 0.0260
Cu4_3 Cu 0.500000(15) 0.4313 0.002234(5)
Cu11_3 Cu -0.0000 0.7500 0.146431(7)
C15_3 C 0.24371(10) 0.33958(11) 0.22008(3)
C18_3 C 0.23605(11) 0.38598(12) 0.20072(3)
C21_3 C 0.29365(12) 0.40539(14) 0.18855(4)
H10_3 H 0.3380 0.3910 0.1928
C24_3 C 0.28569(13) 0.44618(15) 0.17006(4)
H13_3 H 0.3247 0.4586 0.1619
C27_3 C 0.22023(13) 0.46864(13) 0.16358(4)
C30_3 C 0.16314(13) 0.44909(15) 0.17594(4)
H16_3 H 0.1188 0.4638 0.1718
C33_3 C 0.17049(12) 0.40810(14) 0.19432(4)
H19_3 H 0.1314 0.3954 0.2024
C36_3 C 0.21005(13) 0.51163(13) 0.14380(4)
C40_3 C 0.16009(13) 0.56371(12) 0.14371(4)
H23_3 H 0.1346 0.5729 0.1563
N3_5 N 0.5000 0.31720(11) 0.00306(3)
O8_5 O 0.57138(8) 0.56135(7) 0.02048(2)
O16_5 O 0.57075(8) 0.44585(7) 0.02479(2)
O17_3 O 0.07117(8) 0.67822(8) 0.14327(2)
O20_3 O 0.07178(8) 0.82117(8) 0.10673(2)
C48_3 C 0.5000 0.7910(2) 0.01836(9)
H32_3 H 0.4594 0.8078 0.0260
H33_3 H 0.5406 0.8078 0.0260
H34_3 H 0.4594 0.6922 0.0260
Cu1_3 Cu 0.500000(15) 0.5687 0.997766(5)
N1_3 N 0.5000 0.68280(11) 0.99694(3)
C13_3 C 0.4411(3) 0.70959(15) 0.98639(13)
H7_3 H 0.4401 0.6928 0.9715
H8_3 H 0.3994 0.6928 0.9937
Cu6_2 Cu 0.500000(15) 0.9313 0.997766(5)
N2_3 N 0.5000 0.81720(11) 0.99694(3)
O9_5 O 0.42862(8) 0.43865(7) 0.97952(2)
O10_5 O 0.57138(8) 0.43865(7) 0.97952(2)
O14_5 O 0.42925(8) 0.55415(7) 0.97521(2)
O15_5 O 0.57075(8) 0.55415(7) 0.97521(2)
C45_3 C 0.4411(3) 0.79041(15) 0.98639(13)
C46_3 C 0.5589(3) 0.79041(15) 0.98639(13)
C47_3 C 0.5589(3) 0.70959(15) 0.98639(13)
H26_3 H 0.5599 0.6928 0.9715
H27_3 H 0.5599 0.8072 0.9715
H28_3 H 0.4401 0.8072 0.9715
H29_3 H 0.6006 0.6928 0.9937
H30_3 H 0.6006 0.8072 0.9937
H31_3 H 0.3994 0.8072 0.9937
Cu8_3 Cu 0.500000(15) 0.0687 0.002234(5)
C17_3 C 0.75629(10) 0.16042(11) 0.22008(3)
C20_3 C 0.76395(11) 0.11402(12) 0.20072(3)
C22_3 C 0.65539(14) 0.04365(12) 0.06145(4)
C23_3 C 0.70635(12) 0.09461(14) 0.18855(4)
H11_3 H 0.6410 0.0880 0.0572
H12_3 H 0.6620 0.1090 0.1928
C25_3 C 0.69618(15) 0.03569(13) 0.07994(4)
C26_3 C 0.71431(13) 0.05382(15) 0.17006(4)
H14_3 H 0.7086 0.0747 0.0881
H15_3 H 0.6753 0.0414 0.1619
C29_3 C 0.77977(13) 0.03136(13) 0.16358(4)
C32_3 C 0.83686(13) 0.05091(15) 0.17594(4)
H18_3 H 0.8812 0.0362 0.1718
C35_3 C 0.82951(12) 0.09190(14) 0.19432(4)
H21_3 H 0.8686 0.1046 0.2024
H22_3 H 0.7161 0.0339 0.1250
O12_3 O 0.57075(8) 0.05415(7) 0.02479(2)
Cu2_4 Cu 1.0000 0.7500 0.103569(7)
O4_4 O 1.0000 0.7500 0.06845(5)
Cu11_4 Cu 1.0000 0.7500 0.146431(7)
C16_3 C 0.58958(11) 0.99371(10) 0.02992(3)
C19_3 C 0.63598(12) 0.98605(11) 0.04928(3)
C28_3 C 0.71864(13) 0.97023(13) 0.08642(4)
C31_3 C 0.69909(15) 0.91314(13) 0.07406(4)
H17_3 H 0.7138 0.8688 0.0782
C34_3 C 0.65810(14) 0.92049(12) 0.05568(4)
H20_3 H 0.6454 0.8814 0.0476
C37_3 C 0.76163(13) 0.96005(13) 0.10620(4)
C38_3 C 0.78995(13) 0.98837(13) 0.14380(4)
C39_3 C 0.75039(12) 0.99961(12) 0.1250
C41_3 C 0.81371(12) 0.91009(13) 0.10629(4)
C42_3 C 0.83991(13) 0.93629(12) 0.14371(4)
H24_3 H 0.8229 0.8846 0.0937
H25_3 H 0.8654 0.9271 0.1563
C43_3 C 0.85229(11) 0.89771(11) 0.1250
C44_3 C 0.90753(10) 0.84247(10) 0.1250
O6_3 O 0.57138(8) 0.93865(7) 0.02048(2)
O18_3 O 0.92822(8) 0.82117(8) 0.10673(2)
O19_3 O 0.92883(8) 0.82178(8) 0.14327(2)
O21_3 O 0.92822(8) 0.67883(8) 0.10673(2)
N1_4 N -0.0000 0.31720(11) 0.49694(3)
O4_5 O 0.5000 0.2500 0.56845(5)
C13_4 C 0.0589(3) 0.29041(15) 0.48639(13)
H7_4 H 0.0599 0.3072 0.4715
H8_4 H 0.1006 0.3072 0.4937
C14_4 C 0.0000 0.2910(2) 0.51836(9)
N2_4 N -0.0000 0.18280(11) 0.49694(3)
N3_6 N 0.0000 0.68280(11) 0.50306(3)
O20_4 O 0.42822(8) 0.17883(8) 0.60673(2)
O21_4 O 0.57178(8) 0.32117(8) 0.60673(2)
C45_4 C 0.0589(3) 0.20959(15) 0.48639(13)
H28_4 H 0.0599 0.1928 0.4715
H31_4 H 0.1006 0.1928 0.4937
C48_4 C 0.0000 0.2090(2) 0.51836(9)
H32_4 H 0.0406 0.1922 0.5260
H34_4 H 0.0406 0.3078 0.5260
N1_5 N 1.0000 0.31720(11) 0.49694(3)
C14_5 C 1.0000 0.2910(2) 0.51836(9)
H9_4 H 0.9594 0.3078 0.5260
N2_5 N 1.0000 0.18280(11) 0.49694(3)
N3_7 N 1.0000 0.68280(11) 0.50306(3)
O8_6 O 0.92862(8) 0.43865(7) 0.52048(2)
O10_6 O 0.92862(8) 0.56135(7) 0.47952(2)
O15_6 O 0.92925(8) 0.44585(7) 0.47521(2)
O16_6 O 0.92925(8) 0.55415(7) 0.52479(2)
C46_4 C 0.9411(3) 0.20959(15) 0.48639(13)
C47_4 C 0.9411(3) 0.29041(15) 0.48639(13)
H26_4 H 0.9401 0.3072 0.4715
H27_4 H 0.9401 0.1928 0.4715
H29_4 H 0.8994 0.3072 0.4937
H30_4 H 0.8994 0.1928 0.4937
C48_5 C 1.0000 0.2090(2) 0.51836(9)
H33_4 H 0.9594 0.1922 0.5260
O4_6 O 0.5000 0.7500 0.43155(5)
C13_5 C 0.0589(3) 0.70959(15) 0.51361(13)
H7_5 H 0.0599 0.6928 0.5285
H8_5 H 0.1006 0.6928 0.5063
C14_6 C -0.0000 0.7090(2) 0.48164(9)
N2_6 N -0.0000 0.81720(11) 0.50306(3)
O20_5 O 0.42822(8) 0.82117(8) 0.39327(2)
O21_5 O 0.57178(8) 0.67883(8) 0.39327(2)
C45_5 C 0.0589(3) 0.79041(15) 0.51361(13)
H28_5 H 0.0599 0.8072 0.5285
H31_5 H 0.1006 0.8072 0.5063
C48_6 C -0.0000 0.7910(2) 0.48164(9)
H32_5 H 0.0406 0.8078 0.4740
H34_5 H 0.0406 0.6922 0.4740
C14_7 C 1.0000 0.7090(2) 0.48164(9)
H9_5 H 0.9594 0.6922 0.4740
N2_7 N 1.0000 0.81720(11) 0.50306(3)
C46_5 C 0.9411(3) 0.79041(15) 0.51361(13)
C47_5 C 0.9411(3) 0.70959(15) 0.51361(13)
H26_5 H 0.9401 0.6928 0.5285
H27_5 H 0.9401 0.8072 0.5285
H29_5 H 0.8994 0.6928 0.5063
H30_5 H 0.8994 0.8072 0.5063
C48_7 C 1.0000 0.7910(2) 0.48164(9)
H33_5 H 0.9594 0.8078 0.4740
C13_6 C 0.4411(3) 0.29041(15) 0.01361(13)
H7_6 H 0.4401 0.3072 0.0285
H8_6 H 0.3994 0.3072 0.0063
N2_8 N 0.5000 0.18280(11) 0.00306(3)
C45_6 C 0.4411(3) 0.20959(15) 0.01361(13)
C46_6 C 0.5589(3) 0.20959(15) 0.01361(13)
C47_6 C 0.5589(3) 0.29041(15) 0.01361(13)
H26_6 H 0.5599 0.3072 0.0285
H27_6 H 0.5599 0.1928 0.0285
H28_6 H 0.4401 0.1928 0.0285
H29_6 H 0.6006 0.3072 0.0063
H30_6 H 0.6006 0.1928 0.0063
H31_6 H 0.3994 0.1928 0.0063
Cu2_5 Cu -0.0000 0.2500 0.896431(7)
C1_4 C 0.41042(11) 0.49371(10) 0.97008(3)
C2_4 C 0.36402(12) 0.48605(11) 0.95072(3)
C3_4 C 0.34461(14) 0.54365(12) 0.93855(4)
H1_4 H 0.3590 0.5880 0.9428
C4_4 C 0.30382(15) 0.53569(13) 0.92006(4)
H2_4 H 0.2914 0.5747 0.9119
C5_4 C 0.28136(13) 0.47023(13) 0.91358(4)
C6_4 C 0.30091(15) 0.41314(13) 0.92594(4)
H3_4 H 0.2862 0.3688 0.9218
C7_4 C 0.34190(14) 0.42049(12) 0.94432(4)
H4_4 H 0.3546 0.3814 0.9524
C8_4 C 0.23837(13) 0.46005(13) 0.89380(4)
C9_4 C 0.24961(12) 0.49961(12) 0.8750
H5_4 H 0.2839 0.5339 0.8750
C10_4 C 0.18629(12) 0.41009(13) 0.89371(4)
H6_4 H 0.1771 0.3846 0.9063
C11_4 C 0.14771(11) 0.39771(11) 0.8750
C12_4 C 0.09247(10) 0.34247(10) 0.8750
O3_4 O 0.07178(8) 0.32117(8) 0.89327(2)
O4_7 O -0.0000 0.2500 0.93155(5)
C14_8 C 0.5000 0.2910(2) 0.98164(9)
H9_6 H 0.5406 0.3078 0.9740
Cu11_5 Cu -0.0000 0.2500 0.853569(7)
C15_4 C 0.24371(10) 0.66042(11) 0.77992(3)
C18_4 C 0.23605(11) 0.61402(12) 0.79928(3)
C21_4 C 0.29365(12) 0.59461(14) 0.81145(4)
H10_4 H 0.3380 0.6090 0.8072
C24_4 C 0.28569(13) 0.55382(15) 0.82994(4)
H13_4 H 0.3247 0.5414 0.8381
C27_4 C 0.22023(13) 0.53136(13) 0.83642(4)
C30_4 C 0.16314(13) 0.55091(15) 0.82406(4)
H16_4 H 0.1188 0.5362 0.8282
C33_4 C 0.17049(12) 0.59190(14) 0.80568(4)
H19_4 H 0.1314 0.6046 0.7976
C36_4 C 0.21005(13) 0.48837(13) 0.85620(4)
C40_4 C 0.16009(13) 0.43629(12) 0.85629(4)
H23_4 H 0.1346 0.4271 0.8437
O17_4 O 0.07117(8) 0.32178(8) 0.85673(2)
O20_6 O 0.07178(8) 0.17883(8) 0.89327(2)
C48_8 C 0.5000 0.2090(2) 0.98164(9)
H32_6 H 0.4594 0.1922 0.9740
H33_6 H 0.5406 0.1922 0.9740
H34_6 H 0.4594 0.3078 0.9740
Cu2_6 Cu 1.0000 0.2500 0.896431(7)
O4_8 O 1.0000 0.2500 0.93155(5)
Cu11_6 Cu 1.0000 0.2500 0.853569(7)
C16_4 C 0.58958(11) 0.00629(10) 0.97008(3)
C19_4 C 0.63598(12) 0.01395(11) 0.95072(3)
C28_4 C 0.71864(13) 0.02977(13) 0.91358(4)
C31_4 C 0.69909(15) 0.08686(13) 0.92594(4)
H17_4 H 0.7138 0.1312 0.9218
C34_4 C 0.65810(14) 0.07951(12) 0.94432(4)
H20_4 H 0.6454 0.1186 0.9524
C37_4 C 0.76163(13) 0.03995(13) 0.89380(4)
C38_4 C 0.78995(13) 0.01163(13) 0.85620(4)
C39_4 C 0.75039(12) 0.00039(12) 0.8750
C41_4 C 0.81371(12) 0.08991(13) 0.89371(4)
C42_4 C 0.83991(13) 0.06371(12) 0.85629(4)
H24_4 H 0.8229 0.1154 0.9063
H25_4 H 0.8654 0.0729 0.8437
C43_4 C 0.85229(11) 0.10229(11) 0.8750
C44_4 C 0.90753(10) 0.15753(10) 0.8750
O6_4 O 0.57138(8) 0.06135(7) 0.97952(2)
O18_4 O 0.92822(8) 0.17883(8) 0.89327(2)
O19_4 O 0.92883(8) 0.17822(8) 0.85673(2)
O21_6 O 0.92822(8) 0.32117(8) 0.89327(2)
C17_4 C 0.75629(10) 0.83958(11) 0.77992(3)
C20_4 C 0.76395(11) 0.88598(12) 0.79928(3)
C22_4 C 0.65539(14) 0.95635(12) 0.93855(4)
C23_4 C 0.70635(12) 0.90539(14) 0.81145(4)
H11_4 H 0.6410 0.9120 0.9428
H12_4 H 0.6620 0.8910 0.8072
C25_4 C 0.69618(15) 0.96431(13) 0.92006(4)
C26_4 C 0.71431(13) 0.94618(15) 0.82994(4)
H14_4 H 0.7086 0.9253 0.9119
H15_4 H 0.6753 0.9586 0.8381
C29_4 C 0.77977(13) 0.96864(13) 0.83642(4)
C32_4 C 0.83686(13) 0.94909(15) 0.82406(4)
H18_4 H 0.8812 0.9638 0.8282
C35_4 C 0.82951(12) 0.90810(14) 0.80568(4)
H21_4 H 0.8686 0.8954 0.7976
H22_4 H 0.7161 0.9661 0.8750
O12_4 O 0.57075(8) 0.94585(7) 0.97521(2)
O4_9 O 0.0000 0.7500 0.18155(5)
C13_7 C 0.04041(15) 0.3089(3) 0.26361(13)
H7_7 H 0.0572 0.3099 0.2785
H8_7 H 0.0572 0.3506 0.2563
C14_9 C 0.0410(2) 0.2500 0.23164(9)
H9_7 H 0.0578 0.2094 0.2240
O21_7 O 0.07117(8) 0.82178(8) 0.14327(2)
C47_7 C 0.04041(15) 0.1911(3) 0.26361(13)
H26_7 H 0.0572 0.1901 0.2785
H29_7 H 0.0572 0.1494 0.2563
H34_7 H 0.0578 0.2906 0.2240
O4_10 O 1.0000 0.7500 0.18155(5)
O20_7 O 0.92883(8) 0.67822(8) 0.14327(2)
C45_7 C 0.95959(15) 0.3089(3) 0.26361(13)
C46_7 C 0.95959(15) 0.1911(3) 0.26361(13)
H27_7 H 0.9428 0.1901 0.2785
H28_7 H 0.9428 0.3099 0.2785
H30_7 H 0.9428 0.1494 0.2563
H31_7 H 0.9428 0.3506 0.2563
C48_9 C 0.9590(2) 0.2500 0.23164(9)
H32_7 H 0.9422 0.2906 0.2240
H33_7 H 0.9422 0.2094 0.2240
O4_11 O -0.0000 0.2500 0.81845(5)
C13_8 C 0.04041(15) 0.6911(3) 0.73639(13)
H7_8 H 0.0572 0.6901 0.7215
H8_8 H 0.0572 0.6494 0.7437
C14_10 C 0.0410(2) 0.7500 0.76836(9)
H9_8 H 0.0578 0.7906 0.7760
O21_8 O 0.07117(8) 0.17822(8) 0.85673(2)
C47_8 C 0.04041(15) 0.8089(3) 0.73639(13)
H26_8 H 0.0572 0.8099 0.7215
H29_8 H 0.0572 0.8506 0.7437
H34_8 H 0.0578 0.7094 0.7760
O4_12 O 1.0000 0.2500 0.81845(5)
O20_8 O 0.92883(8) 0.32178(8) 0.85673(2)
C45_8 C 0.95959(15) 0.6911(3) 0.73639(13)
C46_8 C 0.95959(15) 0.8089(3) 0.73639(13)
H27_8 H 0.9428 0.8099 0.7215
H28_8 H 0.9428 0.6901 0.7215
H30_8 H 0.9428 0.8506 0.7437
H31_8 H 0.9428 0.6494 0.7437
C48_10 C 0.9590(2) 0.7500 0.76836(9)
H32_8 H 0.9422 0.7094 0.7760
H33_8 H 0.9422 0.7906 0.7760
O8_7 O 0.07138(8) 0.06135(7) 0.52048(2)
O15_7 O 0.07075(8) 0.05415(7) 0.47521(2)
O10_7 O 0.07138(8) 0.93865(7) 0.47952(2)
O16_7 O 0.07075(8) 0.94585(7) 0.52479(2)
O16_8 O 0.42925(8) 0.05415(7) 0.02479(2)
O10_8 O 0.42862(8) 0.06135(7) 0.97952(2)
O8_8 O 0.42862(8) 0.93865(7) 0.02048(2)
O15_8 O 0.42925(8) 0.94585(7) 0.97521(2)
C1_5 C 0.25629(10) 0.16042(11) 0.27992(3)
C2_5 C 0.26395(11) 0.11402(12) 0.29928(3)
C3_5 C 0.20635(12) 0.09461(14) 0.31145(4)
H1_5 H 0.1620 0.1090 0.3072
C4_5 C 0.21431(13) 0.05382(15) 0.32994(4)
H2_5 H 0.1753 0.0414 0.3381
C5_5 C 0.27977(13) 0.03136(13) 0.33642(4)
C6_5 C 0.33686(13) 0.05091(15) 0.32406(4)
H3_5 H 0.3812 0.0362 0.3282
C7_5 C 0.32951(12) 0.09190(14) 0.30568(4)
H4_5 H 0.3686 0.1046 0.2976
H5_5 H 0.2161 0.0339 0.3750
C21_5 C 0.15539(14) 0.04365(12) 0.43855(4)
H10_5 H 0.1410 0.0880 0.4428
C24_5 C 0.19618(15) 0.03569(13) 0.42006(4)
H13_5 H 0.2086 0.0747 0.4119
C8_5 C 0.28995(13) 0.98837(13) 0.35620(4)
C9_5 C 0.25039(12) 0.99961(12) 0.3750
C10_5 C 0.33991(13) 0.93629(12) 0.35629(4)
H6_5 H 0.3654 0.9271 0.3437
C11_5 C 0.35229(11) 0.89771(11) 0.3750
C12_5 C 0.40753(10) 0.84247(10) 0.3750
C15_5 C 0.08958(11) 0.99371(10) 0.47008(3)
C16_5 C 0.74371(10) 0.33958(11) 0.27992(3)
C17_5 C 0.91042(11) 0.50629(10) 0.47008(3)
C18_5 C 0.13598(12) 0.98605(11) 0.45072(3)
C19_5 C 0.73605(11) 0.38598(12) 0.29928(3)
C20_5 C 0.86402(12) 0.51395(11) 0.45072(3)
C22_5 C 0.79365(12) 0.40539(14) 0.31145(4)
C23_5 C 0.84461(14) 0.45635(12) 0.43855(4)
H11_5 H 0.8380 0.3910 0.3072
H12_5 H 0.8590 0.4120 0.4428
C25_5 C 0.78569(13) 0.44618(15) 0.32994(4)
C26_5 C 0.80382(15) 0.46431(13) 0.42006(4)
H14_5 H 0.8247 0.4586 0.3381
H15_5 H 0.7914 0.4253 0.4119
C27_5 C 0.21864(13) 0.97023(13) 0.41358(4)
C28_5 C 0.72023(13) 0.46864(13) 0.33642(4)
C29_5 C 0.78136(13) 0.52977(13) 0.41358(4)
C30_5 C 0.19909(15) 0.91314(13) 0.42594(4)
C31_5 C 0.66314(13) 0.44909(15) 0.32406(4)
C32_5 C 0.80091(15) 0.58686(13) 0.42594(4)
H16_5 H 0.2138 0.8688 0.4218
H17_5 H 0.6188 0.4638 0.3282
H18_5 H 0.7862 0.6312 0.4218
C33_5 C 0.15810(14) 0.92049(12) 0.44432(4)
C34_5 C 0.67049(12) 0.40810(14) 0.30568(4)
C35_5 C 0.84190(14) 0.57951(12) 0.44432(4)
H19_5 H 0.1454 0.8814 0.4524
H20_5 H 0.6314 0.3954 0.2976
H21_5 H 0.8546 0.6186 0.4524
C36_5 C 0.26163(13) 0.96005(13) 0.39380(4)
C37_5 C 0.71005(13) 0.51163(13) 0.35620(4)
C38_5 C 0.73837(13) 0.53995(13) 0.39380(4)
C39_5 C 0.74961(12) 0.50039(12) 0.3750
H22_5 H 0.7839 0.4661 0.3750
C40_5 C 0.31371(12) 0.91009(13) 0.39371(4)
C41_5 C 0.66009(13) 0.56371(12) 0.35629(4)
C42_5 C 0.68629(12) 0.58991(13) 0.39371(4)
H23_5 H 0.3229 0.8846 0.4063
H24_5 H 0.6346 0.5729 0.3437
H25_5 H 0.6771 0.6154 0.4063
C43_5 C 0.64771(11) 0.60229(11) 0.3750
C44_5 C 0.59247(10) 0.65753(10) 0.3750
C8_6 C 0.28995(13) 0.01163(13) 0.64380(4)
C9_6 C 0.25039(12) 0.00039(12) 0.6250
C10_6 C 0.33991(13) 0.06371(12) 0.64371(4)
H6_6 H 0.3654 0.0729 0.6563
C11_6 C 0.35229(11) 0.10229(11) 0.6250
C12_6 C 0.40753(10) 0.15753(10) 0.6250
C15_6 C 0.08958(11) 0.00629(10) 0.52992(3)
C16_6 C 0.74371(10) 0.66042(11) 0.72008(3)
C17_6 C 0.91042(11) 0.49371(10) 0.52992(3)
C18_6 C 0.13598(12) 0.01395(11) 0.54928(3)
C19_6 C 0.73605(11) 0.61402(12) 0.70072(3)
C20_6 C 0.86402(12) 0.48605(11) 0.54928(3)
C22_6 C 0.79365(12) 0.59461(14) 0.68855(4)
C23_6 C 0.84461(14) 0.54365(12) 0.56145(4)
H11_6 H 0.8380 0.6090 0.6928
H12_6 H 0.8590 0.5880 0.5572
C25_6 C 0.78569(13) 0.55382(15) 0.67006(4)
C26_6 C 0.80382(15) 0.53569(13) 0.57994(4)
H14_6 H 0.8247 0.5414 0.6619
H15_6 H 0.7914 0.5747 0.5881
C27_6 C 0.21864(13) 0.02977(13) 0.58642(4)
C28_6 C 0.72023(13) 0.53136(13) 0.66358(4)
C29_6 C 0.78136(13) 0.47023(13) 0.58642(4)
C30_6 C 0.19909(15) 0.08686(13) 0.57406(4)
C31_6 C 0.66314(13) 0.55091(15) 0.67594(4)
C32_6 C 0.80091(15) 0.41314(13) 0.57406(4)
H16_6 H 0.2138 0.1312 0.5782
H17_6 H 0.6188 0.5362 0.6718
H18_6 H 0.7862 0.3688 0.5782
C33_6 C 0.15810(14) 0.07951(12) 0.55568(4)
C34_6 C 0.67049(12) 0.59190(14) 0.69432(4)
C35_6 C 0.84190(14) 0.42049(12) 0.55568(4)
H19_6 H 0.1454 0.1186 0.5476
H20_6 H 0.6314 0.6046 0.7024
H21_6 H 0.8546 0.3814 0.5476
C36_6 C 0.26163(13) 0.03995(13) 0.60620(4)
C37_6 C 0.71005(13) 0.48837(13) 0.64380(4)
C38_6 C 0.73837(13) 0.46005(13) 0.60620(4)
C39_6 C 0.74961(12) 0.49961(12) 0.6250
H22_6 H 0.7839 0.5339 0.6250
C40_6 C 0.31371(12) 0.08991(13) 0.60629(4)
C41_6 C 0.66009(13) 0.43629(12) 0.64371(4)
C42_6 C 0.68629(12) 0.41009(13) 0.60629(4)
H23_6 H 0.3229 0.1154 0.5937
H24_6 H 0.6346 0.4271 0.6563
H25_6 H 0.6771 0.3846 0.5937
C43_6 C 0.64771(11) 0.39771(11) 0.6250
C44_6 C 0.59247(10) 0.34247(10) 0.6250
C1_6 C 0.25629(10) 0.83958(11) 0.72008(3)
C2_6 C 0.26395(11) 0.88598(12) 0.70072(3)
C3_6 C 0.20635(12) 0.90539(14) 0.68855(4)
H1_6 H 0.1620 0.8910 0.6928
C4_6 C 0.21431(13) 0.94618(15) 0.67006(4)
H2_6 H 0.1753 0.9586 0.6619
C5_6 C 0.27977(13) 0.96864(13) 0.66358(4)
C6_6 C 0.33686(13) 0.94909(15) 0.67594(4)
H3_6 H 0.3812 0.9638 0.6718
C7_6 C 0.32951(12) 0.90810(14) 0.69432(4)
H4_6 H 0.3686 0.8954 0.7024
H5_6 H 0.2161 0.9661 0.6250
C21_6 C 0.15539(14) 0.95635(12) 0.56145(4)
H10_6 H 0.1410 0.9120 0.5572
C24_6 C 0.19618(15) 0.96431(13) 0.57994(4)
H13_6 H 0.2086 0.9253 0.5881
C16_7 C 0.41042(11) 0.00629(10) 0.97008(3)
C19_7 C 0.36402(12) 0.01395(11) 0.95072(3)
C28_7 C 0.28136(13) 0.02977(13) 0.91358(4)
C31_7 C 0.30091(15) 0.08686(13) 0.92594(4)
H17_7 H 0.2862 0.1312 0.9218
C34_7 C 0.34190(14) 0.07951(12) 0.94432(4)
H20_7 H 0.3546 0.1186 0.9524
C37_7 C 0.23837(13) 0.03995(13) 0.89380(4)
C38_7 C 0.21005(13) 0.01163(13) 0.85620(4)
C39_7 C 0.24961(12) 0.00039(12) 0.8750
C41_7 C 0.18629(12) 0.08991(13) 0.89371(4)
C42_7 C 0.16009(13) 0.06371(12) 0.85629(4)
H24_7 H 0.1771 0.1154 0.9063
H25_7 H 0.1346 0.0729 0.8437
C43_7 C 0.14771(11) 0.10229(11) 0.8750
C44_7 C 0.09247(10) 0.15753(10) 0.8750
C17_7 C 0.24371(10) 0.83958(11) 0.77992(3)
C20_7 C 0.23605(11) 0.88598(12) 0.79928(3)
C22_7 C 0.34461(14) 0.95635(12) 0.93855(4)
C23_7 C 0.29365(12) 0.90539(14) 0.81145(4)
H11_7 H 0.3590 0.9120 0.9428
H12_7 H 0.3380 0.8910 0.8072
C25_7 C 0.30382(15) 0.96431(13) 0.92006(4)
C26_7 C 0.28569(13) 0.94618(15) 0.82994(4)
H14_7 H 0.2914 0.9253 0.9119
H15_7 H 0.3247 0.9586 0.8381
C29_7 C 0.22023(13) 0.96864(13) 0.83642(4)
C32_7 C 0.16314(13) 0.94909(15) 0.82406(4)
H18_7 H 0.1188 0.9638 0.8282
C35_7 C 0.17049(12) 0.90810(14) 0.80568(4)
H21_7 H 0.1314 0.8954 0.7976
H22_7 H 0.2839 0.9661 0.8750
C1_7 C 0.58958(11) 0.49371(10) 0.97008(3)
C2_7 C 0.63598(12) 0.48605(11) 0.95072(3)
C3_7 C 0.65539(14) 0.54365(12) 0.93855(4)
H1_7 H 0.6410 0.5880 0.9428
C4_7 C 0.69618(15) 0.53569(13) 0.92006(4)
H2_7 H 0.7086 0.5747 0.9119
C5_7 C 0.71864(13) 0.47023(13) 0.91358(4)
C6_7 C 0.69909(15) 0.41314(13) 0.92594(4)
H3_7 H 0.7138 0.3688 0.9218
C7_7 C 0.65810(14) 0.42049(12) 0.94432(4)
H4_7 H 0.6454 0.3814 0.9524
C8_7 C 0.76163(13) 0.46005(13) 0.89380(4)
C9_7 C 0.75039(12) 0.49961(12) 0.8750
H5_7 H 0.7161 0.5339 0.8750
C10_7 C 0.81371(12) 0.41009(13) 0.89371(4)
H6_7 H 0.8229 0.3846 0.9063
C11_7 C 0.85229(11) 0.39771(11) 0.8750
C12_7 C 0.90753(10) 0.34247(10) 0.8750
C15_7 C 0.75629(10) 0.66042(11) 0.77992(3)
C18_7 C 0.76395(11) 0.61402(12) 0.79928(3)
C21_7 C 0.70635(12) 0.59461(14) 0.81145(4)
H10_7 H 0.6620 0.6090 0.8072
C24_7 C 0.71431(13) 0.55382(15) 0.82994(4)
H13_7 H 0.6753 0.5414 0.8381
C27_7 C 0.77977(13) 0.53136(13) 0.83642(4)
C30_7 C 0.83686(13) 0.55091(15) 0.82406(4)
H16_7 H 0.8812 0.5362 0.8282
C33_7 C 0.82951(12) 0.59190(14) 0.80568(4)
H19_7 H 0.8686 0.6046 0.7976
C36_7 C 0.78995(13) 0.48837(13) 0.85620(4)
C40_7 C 0.83991(13) 0.43629(12) 0.85629(4)
H23_7 H 0.8654 0.4271 0.8437
C17_8 C 0.24371(10) 0.16042(11) 0.22008(3)
C20_8 C 0.23605(11) 0.11402(12) 0.20072(3)
C22_8 C 0.34461(14) 0.04365(12) 0.06145(4)
C23_8 C 0.29365(12) 0.09461(14) 0.18855(4)
H11_8 H 0.3590 0.0880 0.0572
H12_8 H 0.3380 0.1090 0.1928
C25_8 C 0.30382(15) 0.03569(13) 0.07994(4)
C26_8 C 0.28569(13) 0.05382(15) 0.17006(4)
H14_8 H 0.2914 0.0747 0.0881
H15_8 H 0.3247 0.0414 0.1619
C29_8 C 0.22023(13) 0.03136(13) 0.16358(4)
C32_8 C 0.16314(13) 0.05091(15) 0.17594(4)
H18_8 H 0.1188 0.0362 0.1718
C35_8 C 0.17049(12) 0.09190(14) 0.19432(4)
H21_8 H 0.1314 0.1046 0.2024
H22_8 H 0.2839 0.0339 0.1250
C16_8 C 0.41042(11) 0.99371(10) 0.02992(3)
C19_8 C 0.36402(12) 0.98605(11) 0.04928(3)
C28_8 C 0.28136(13) 0.97023(13) 0.08642(4)
C31_8 C 0.30091(15) 0.91314(13) 0.07406(4)
H17_8 H 0.2862 0.8688 0.0782
C34_8 C 0.34190(14) 0.92049(12) 0.05568(4)
H20_8 H 0.3546 0.8814 0.0476
C37_8 C 0.23837(13) 0.96005(13) 0.10620(4)
C38_8 C 0.21005(13) 0.98837(13) 0.14380(4)
C39_8 C 0.24961(12) 0.99961(12) 0.1250
C41_8 C 0.18629(12) 0.91009(13) 0.10629(4)
C42_8 C 0.16009(13) 0.93629(12) 0.14371(4)
H24_8 H 0.1771 0.8846 0.0937
H25_8 H 0.1346 0.9271 0.1563
C43_8 C 0.14771(11) 0.89771(11) 0.1250
C44_8 C 0.09247(10) 0.84247(10) 0.1250
C1_8 C 0.58958(11) 0.50629(10) 0.02992(3)
C2_8 C 0.63598(12) 0.51395(11) 0.04928(3)
C3_8 C 0.65539(14) 0.45635(12) 0.06145(4)
H1_8 H 0.6410 0.4120 0.0572
C4_8 C 0.69618(15) 0.46431(13) 0.07994(4)
H2_8 H 0.7086 0.4253 0.0881
C5_8 C 0.71864(13) 0.52977(13) 0.08642(4)
C6_8 C 0.69909(15) 0.58686(13) 0.07406(4)
H3_8 H 0.7138 0.6312 0.0782
C7_8 C 0.65810(14) 0.57951(12) 0.05568(4)
H4_8 H 0.6454 0.6186 0.0476
C8_8 C 0.76163(13) 0.53995(13) 0.10620(4)
C9_8 C 0.75039(12) 0.50039(12) 0.1250
H5_8 H 0.7161 0.4661 0.1250
C10_8 C 0.81371(12) 0.58991(13) 0.10629(4)
H6_8 H 0.8229 0.6154 0.0937
C11_8 C 0.85229(11) 0.60229(11) 0.1250
C12_8 C 0.90753(10) 0.65753(10) 0.1250
C15_8 C 0.75629(10) 0.33958(11) 0.22008(3)
C18_8 C 0.76395(11) 0.38598(12) 0.20072(3)
C21_8 C 0.70635(12) 0.40539(14) 0.18855(4)
H10_8 H 0.6620 0.3910 0.1928
C24_8 C 0.71431(13) 0.44618(15) 0.17006(4)
H13_8 H 0.6753 0.4586 0.1619
C27_8 C 0.77977(13) 0.46864(13) 0.16358(4)
C30_8 C 0.83686(13) 0.44909(15) 0.17594(4)
H16_8 H 0.8812 0.4638 0.1718
C33_8 C 0.82951(12) 0.40810(14) 0.19432(4)
H19_8 H 0.8686 0.3954 0.2024
C36_8 C 0.78995(13) 0.51163(13) 0.14380(4)
C40_8 C 0.83991(13) 0.56371(12) 0.14371(4)
H23_8 H 0.8654 0.5729 0.1563
loop_
_geom_bond_atom_site_label_1
_geom_bond_atom_site_label_2
_geom_bond_site_symmetry_1
_geom_bond_site_symmetry_2
Cu2 O3 1_555 1_555
C9 C8 1_555 1_555
C10 C8 1_555 1_555
H6 C10 1_555 1_555
C11 C10 1_555 1_555
C12 C11 1_555 1_555
O3 C12 1_555 1_555
O4 Cu2 1_555 1_555
Cu3_2 O5 1_555 1_555
Cu7 O6 1_555 1_555
Cu8 O12 1_555 1_555
Cu9 O7 1_555 1_555
Cu10 O13 1_555 1_555
Cu11 O17 1_555 1_555
C15 C18 1_555 1_555
C16 C19 1_555 1_555
C17 C20 1_555 1_555
C19 C22 1_555 1_555
C20 C23 1_555 1_555
C22 H11 1_555 1_555
C23 H12 1_555 1_555
C25 C22 1_555 1_555
C26 C23 1_555 1_555
H14 C25 1_555 1_555
H15 C26 1_555 1_555
C28 C25 1_555 1_555
C29 C26 1_555 1_555
C30 C27 1_555 1_555
C31 C28 1_555 1_555
C32 C29 1_555 1_555
H16 C30 1_555 1_555
H17 C31 1_555 1_555
H18 C32 1_555 1_555
C33 C18 1_555 1_555
C34 C19 1_555 1_555
C35 C20 1_555 1_555
H19 C33 1_555 1_555
H20 C34 1_555 1_555
H21 C35 1_555 1_555
C36 C9 1_555 1_555
C37 C28 1_555 1_555
C38 C29 1_555 1_555
C39 C37 1_555 1_555
H22 C39 1_555 1_555
C40 C11 1_555 1_555
C41 C37 1_555 1_555
C42 C38 1_555 1_555
H23 C40 1_555 1_555
H24 C41 1_555 1_555
H25 C42 1_555 1_555
C43 C41 1_555 1_555
C44 C43 1_555 1_555
O5 C15 1_555 1_555
O6 C16 1_555 1_555
O7 C17 1_555 1_555
O12 C16 1_555 1_555
O13 C17 1_555 1_555
O17 C12 1_555 1_555
O18 Cu2 1_555 1_555
O19 Cu11 1_555 1_555
O20 Cu2 1_555 1_555
O21 Cu2 1_555 1_555
C27 C36 1_555 1_555
C30 C33 1_555 1_555
C31 C34 1_555 1_555
C32 C35 1_555 1_555
C36 C40 1_555 1_555
C38 C39 1_555 1_555
C42 C43 1_555 1_555
C44 O18 1_555 1_555
C44 O19 1_555 1_555
Cu1 N1 1_555 1_555
C1 C2 1_555 1_555
C2 C3 1_555 1_555
C3 H1 1_555 1_555
C4 C3 1_555 1_555
H2 C4 1_555 1_555
C5 C4 1_555 1_555
C6 C5 1_555 1_555
H3 C6 1_555 1_555
C7 C2 1_555 1_555
H4 C7 1_555 1_555
N1 C13 1_555 1_555
O1 Cu1 1_555 1_555
O2 C1 1_555 1_555
C13 H7 1_555 1_555
H8 C13 1_555 1_555
C14 N1 1_555 1_555
H9 C14 1_555 1_555
Cu4 O2 1_555 1_555
Cu5_2 O11 1_555 1_555
Cu7 N2 1_555 1_555
C21 H10 1_555 1_555
C24 C21 1_555 1_555
H13 C24 1_555 1_555
N2 C45 1_555 1_555
N3 Cu4 1_555 1_555
O8 Cu1 1_555 1_555
O9 Cu4 1_555 1_555
O10 Cu4 1_555 1_555
O14 Cu1 1_555 1_555
O15 Cu1 1_555 1_555
O16 Cu4 1_555 1_555
C45 C13 1_555 1_555
C46 N2 1_555 1_555
C47 N1 1_555 1_555
H26 C47 1_555 1_555
H27 C46 1_555 1_555
H28 C45 1_555 1_555
H29 C47 1_555 1_555
H30 C46 1_555 1_555
H31 C45 1_555 1_555
C48 C14 1_555 1_555
H32 C48 1_555 1_555
H33 C48 1_555 1_555
H34 C14 1_555 1_555
C1 O1 1_555 1_555
C6 C7 1_555 1_555
N2 C48 1_555 1_555
C46 C47 1_555 1_555
N3_2 Cu8 1_555 1_555
O8_2 Cu7 1_555 1_555
O9_2 Cu8 1_555 1_555
O10_2 Cu8 1_555 1_555
O14_2 Cu7 1_555 1_555
O15_2 Cu7 1_555 1_555
O16_2 Cu8 1_555 1_555
Cu1_2 N1_2 1_555 1_555
C1_2 C2_2 1_555 1_555
C2_2 C3_2 1_555 1_555
C3_2 H1_2 1_555 1_555
C4_2 C3_2 1_555 1_555
H2_2 C4_2 1_555 1_555
C5_2 C4_2 1_555 1_555
C6_2 C5_2 1_555 1_555
H3_2 C6_2 1_555 1_555
C7_2 C2_2 1_555 1_555
H4_2 C7_2 1_555 1_555
N1_2 C13_2 1_555 1_555
O1_2 Cu1_2 1_555 1_555
O2_2 C1_2 1_555 1_555
C13_2 H7_2 1_555 1_555
H8_2 C13_2 1_555 1_555
C14_2 N1_2 1_555 1_555
H9_2 C14_2 1_555 1_555
Cu4_2 O2_2 1_555 1_555
Cu3_2 O11_2 1_555 1_555
Cu6 N2_2 1_555 1_555
C21_2 H10_2 1_555 1_555
C24_2 C21_2 1_555 1_555
H13_2 C24_2 1_555 1_555
N2_2 C45_2 1_555 1_555
N3_3 Cu4_2 1_555 1_555
O8_3 Cu1_2 1_555 1_555
O9_3 Cu4_2 1_555 1_555
O10_3 Cu4_2 1_555 1_555
O14_3 Cu1_2 1_555 1_555
O15_3 Cu1_2 1_555 1_555
O16_3 Cu4_2 1_555 1_555
C45_2 C13_2 1_555 1_555
C46_2 N2_2 1_555 1_555
C47_2 N1_2 1_555 1_555
H26_2 C47_2 1_555 1_555
H27_2 C46_2 1_555 1_555
H28_2 C45_2 1_555 1_555
H29_2 C47_2 1_555 1_555
H30_2 C46_2 1_555 1_555
H31_2 C45_2 1_555 1_555
C48_2 C14_2 1_555 1_555
H32_2 C48_2 1_555 1_555
H33_2 C48_2 1_555 1_555
H34_2 C14_2 1_555 1_555
C1_2 O1_2 1_555 1_555
C6_2 C7_2 1_555 1_555
N2_2 C48_2 1_555 1_555
C46_2 C47_2 1_555 1_555
Cu2_2 O3_2 1_555 1_555
C9_2 C8_2 1_555 1_555
C10_2 C8_2 1_555 1_555
H6_2 C10_2 1_555 1_555
C11_2 C10_2 1_555 1_555
C12_2 C11_2 1_555 1_555
O3_2 C12_2 1_555 1_555
O4_2 Cu2_2 1_555 1_555
Cu5_2 O5_2 1_555 1_555
Cu6 O6_2 1_555 1_555
Cu8_2 O12_2 1_555 1_555
Cu10 O7_2 1_555 1_555
Cu9 O13_2 1_555 1_555
Cu11_2 O17_2 1_555 1_555
C15_2 C18_2 1_555 1_555
C16_2 C19_2 1_555 1_555
C17_2 C20_2 1_555 1_555
C19_2 C22_2 1_555 1_555
C20_2 C23_2 1_555 1_555
C22_2 H11_2 1_555 1_555
C23_2 H12_2 1_555 1_555
C25_2 C22_2 1_555 1_555
C26_2 C23_2 1_555 1_555
H14_2 C25_2 1_555 1_555
H15_2 C26_2 1_555 1_555
C28_2 C25_2 1_555 1_555
C29_2 C26_2 1_555 1_555
C30_2 C27_2 1_555 1_555
C31_2 C28_2 1_555 1_555
C32_2 C29_2 1_555 1_555
H16_2 C30_2 1_555 1_555
H17_2 C31_2 1_555 1_555
H18_2 C32_2 1_555 1_555
C33_2 C18_2 1_555 1_555
C34_2 C19_2 1_555 1_555
C35_2 C20_2 1_555 1_555
H19_2 C33_2 1_555 1_555
H20_2 C34_2 1_555 1_555
H21_2 C35_2 1_555 1_555
C36_2 C9_2 1_555 1_555
C37_2 C28_2 1_555 1_555
C38_2 C29_2 1_555 1_555
C39_2 C37_2 1_555 1_555
H22_2 C39_2 1_555 1_555
C40_2 C11_2 1_555 1_555
C41_2 C37_2 1_555 1_555
C42_2 C38_2 1_555 1_555
H23_2 C40_2 1_555 1_555
H24_2 C41_2 1_555 1_555
H25_2 C42_2 1_555 1_555
C43_2 C41_2 1_555 1_555
C44_2 C43_2 1_555 1_555
O5_2 C15_2 1_555 1_555
O6_2 C16_2 1_555 1_555
O7_2 C17_2 1_555 1_555
O12_2 C16_2 1_555 1_555
O13_2 C17_2 1_555 1_555
O17_2 C12_2 1_555 1_555
O18_2 Cu2_2 1_555 1_555
O19_2 Cu11_2 1_555 1_555
O20_2 Cu2_2 1_555 1_555
O21_2 Cu2_2 1_555 1_555
C27_2 C36_2 1_555 1_555
C30_2 C33_2 1_555 1_555
C31_2 C34_2 1_555 1_555
C32_2 C35_2 1_555 1_555
C36_2 C40_2 1_555 1_555
C38_2 C39_2 1_555 1_555
C42_2 C43_2 1_555 1_555
C44_2 O18_2 1_555 1_555
C44_2 O19_2 1_555 1_555
N3_4 Cu8_2 1_555 1_555
O8_4 Cu6 1_555 1_555
O9_4 Cu8_2 1_555 1_555
O10_4 Cu8_2 1_555 1_555
O14_4 Cu6 1_555 1_555
O15_4 Cu6 1_555 1_555
O16_4 Cu8_2 1_555 1_555
Cu2_3 O3_3 1_555 1_555
C1_3 C2_3 1_555 1_555
C2_3 C3_3 1_555 1_555
C3_3 H1_3 1_555 1_555
C4_3 C3_3 1_555 1_555
H2_3 C4_3 1_555 1_555
C5_3 C4_3 1_555 1_555
C6_3 C5_3 1_555 1_555
H3_3 C6_3 1_555 1_555
C7_3 C2_3 1_555 1_555
H4_3 C7_3 1_555 1_555
C8_3 C5_3 1_555 1_555
C9_3 C8_3 1_555 1_555
H5_3 C9_3 1_555 1_555
C10_3 C8_3 1_555 1_555
H6_3 C10_3 1_555 1_555
C11_3 C10_3 1_555 1_555
C12_3 C11_3 1_555 1_555
O2_3 C1_3 1_555 1_555
O3_3 C12_3 1_555 1_555
O4_3 Cu2_3 1_555 1_555
H9_3 C14_3 1_555 1_555
Cu4_3 O2_3 1_555 1_555
Cu11_3 O17_3 1_555 1_555
C15_3 C18_3 1_555 1_555
C18_3 C21_3 1_555 1_555
C21_3 H10_3 1_555 1_555
C24_3 C21_3 1_555 1_555
H13_3 C24_3 1_555 1_555
C27_3 C24_3 1_555 1_555
C30_3 C27_3 1_555 1_555
H16_3 C30_3 1_555 1_555
C33_3 C18_3 1_555 1_555
H19_3 C33_3 1_555 1_555
C36_3 C9_3 1_555 1_555
C40_3 C11_3 1_555 1_555
H23_3 C40_3 1_555 1_555
N3_5 Cu4_3 1_555 1_555
O9_4 C15_3 1_555 1_555
O14_4 C15_3 1_555 1_555
O16_5 Cu4_3 1_555 1_555
O17_3 C12_3 1_555 1_555
O20_3 Cu2_3 1_555 1_555
C48_3 C14_3 1_555 1_555
H32_3 C48_3 1_555 1_555
H33_3 C48_3 1_555 1_555
H34_3 C14_3 1_555 1_555
C1_3 O1_3 1_555 1_555
C6_3 C7_3 1_555 1_555
C27_3 C36_3 1_555 1_555
C30_3 C33_3 1_555 1_555
C36_3 C40_3 1_555 1_555
Cu1_3 N1_3 1_555 1_555
N1_3 C13_3 1_555 1_555
C13_3 H7_3 1_555 1_555
H8_3 C13_3 1_555 1_555
Cu6_2 N2_3 1_555 1_555
N2_3 C45_3 1_555 1_555
O14_5 Cu1_3 1_555 1_555
O15_5 Cu1_3 1_555 1_555
C45_3 C13_3 1_555 1_555
C46_3 N2_3 1_555 1_555
C47_3 N1_3 1_555 1_555
H26_3 C47_3 1_555 1_555
H27_3 C46_3 1_555 1_555
H28_3 C45_3 1_555 1_555
H29_3 C47_3 1_555 1_555
H30_3 C46_3 1_555 1_555
H31_3 C45_3 1_555 1_555
C46_3 C47_3 1_555 1_555
Cu8_3 O12_3 1_555 1_555
C17_3 C20_3 1_555 1_555
C20_3 C23_3 1_555 1_555
C22_3 H11_3 1_555 1_555
C23_3 H12_3 1_555 1_555
C25_3 C22_3 1_555 1_555
C26_3 C23_3 1_555 1_555
H14_3 C25_3 1_555 1_555
H15_3 C26_3 1_555 1_555
C29_3 C26_3 1_555 1_555
C32_3 C29_3 1_555 1_555
H18_3 C32_3 1_555 1_555
C35_3 C20_3 1_555 1_555
H21_3 C35_3 1_555 1_555
O9_3 C17_3 1_555 1_555
O14_3 C17_3 1_555 1_555
C32_3 C35_3 1_555 1_555
O4_4 Cu2_4 1_555 1_555
C16_3 C19_3 1_555 1_555
C31_3 C28_3 1_555 1_555
H17_3 C31_3 1_555 1_555
C34_3 C19_3 1_555 1_555
H20_3 C34_3 1_555 1_555
C37_3 C28_3 1_555 1_555
C39_3 C37_3 1_555 1_555
C41_3 C37_3 1_555 1_555
C42_3 C38_3 1_555 1_555
H24_3 C41_3 1_555 1_555
H25_3 C42_3 1_555 1_555
C43_3 C41_3 1_555 1_555
C44_3 C43_3 1_555 1_555
O6_3 C16_3 1_555 1_555
O18_3 Cu2_4 1_555 1_555
O19_3 Cu11_4 1_555 1_555
O21_3 Cu2_4 1_555 1_555
C31_3 C34_3 1_555 1_555
C38_3 C39_3 1_555 1_555
C42_3 C43_3 1_555 1_555
C44_3 O18_3 1_555 1_555
C44_3 O19_3 1_555 1_555
Cu9 N1_4 1_555 1_555
N1_4 C13_4 1_555 1_555
O4_5 Cu11 1_555 1_555
C13_4 H7_4 1_555 1_555
H8_4 C13_4 1_555 1_555
C14_4 N1_4 1_555 1_555
Cu3 N2_4 1_555 1_555
N2_4 C45_4 1_555 1_555
N3_6 Cu10 1_555 1_555
O20_4 Cu11 1_555 1_555
O21_4 Cu11 1_555 1_555
C45_4 C13_4 1_555 1_555
H28_4 C45_4 1_555 1_555
H31_4 C45_4 1_555 1_555
C48_4 C14_4 1_555 1_555
H32_4 C48_4 1_555 1_555
H34_4 C14_4 1_555 1_555
N2_4 C48_4 1_555 1_555
Cu9_2 N1_5 1_555 1_555
C14_5 N1_5 1_555 1_555
H9_4 C14_5 1_555 1_555
Cu3_2 N2_5 1_555 1_555
N3_7 Cu10_2 1_555 1_555
O8_6 Cu9_2 1_555 1_555
O10_6 Cu10_2 1_555 1_555
O15_6 Cu9_2 1_555 1_555
O16_6 Cu10_2 1_555 1_555
C46_4 N2_5 1_555 1_555
C47_4 N1_5 1_555 1_555
H26_4 C47_4 1_555 1_555
H27_4 C46_4 1_555 1_555
H29_4 C47_4 1_555 1_555
H30_4 C46_4 1_555 1_555
C48_5 C14_5 1_555 1_555
H33_4 C48_5 1_555 1_555
N2_5 C48_5 1_555 1_555
C46_4 C47_4 1_555 1_555
N3_6 C13_5 1_555 1_555
O4_6 Cu11_2 1_555 1_555
C13_5 H7_5 1_555 1_555
H8_5 C13_5 1_555 1_555
C14_6 N3_6 1_555 1_555
Cu5 N2_6 1_555 1_555
N2_6 C45_5 1_555 1_555
O20_5 Cu11_2 1_555 1_555
O21_5 Cu11_2 1_555 1_555
C45_5 C13_5 1_555 1_555
H28_5 C45_5 1_555 1_555
H31_5 C45_5 1_555 1_555
C48_6 C14_6 1_555 1_555
H32_5 C48_6 1_555 1_555
H34_5 C14_6 1_555 1_555
N2_6 C48_6 1_555 1_555
C14_7 N3_7 1_555 1_555
H9_5 C14_7 1_555 1_555
Cu5_2 N2_7 1_555 1_555
C46_5 N2_7 1_555 1_555
C47_5 N3_7 1_555 1_555
H26_5 C47_5 1_555 1_555
H27_5 C46_5 1_555 1_555
H29_5 C47_5 1_555 1_555
H30_5 C46_5 1_555 1_555
C48_7 C14_7 1_555 1_555
H33_5 C48_7 1_555 1_555
N2_7 C48_7 1_555 1_555
C46_5 C47_5 1_555 1_555
N3_5 C13_6 1_555 1_555
C13_6 H7_6 1_555 1_555
H8_6 C13_6 1_555 1_555
Cu8_3 N2_8 1_555 1_555
N2_8 C45_6 1_555 1_555
C45_6 C13_6 1_555 1_555
C46_6 N2_8 1_555 1_555
C47_6 N3_5 1_555 1_555
H26_6 C47_6 1_555 1_555
H27_6 C46_6 1_555 1_555
H28_6 C45_6 1_555 1_555
H29_6 C47_6 1_555 1_555
H30_6 C46_6 1_555 1_555
H31_6 C45_6 1_555 1_555
C46_6 C47_6 1_555 1_555
Cu2_5 O3_4 1_555 1_555
C1_4 C2_4 1_555 1_555
C2_4 C3_4 1_555 1_555
C3_4 H1_4 1_555 1_555
C4_4 C3_4 1_555 1_555
H2_4 C4_4 1_555 1_555
C5_4 C4_4 1_555 1_555
C6_4 C5_4 1_555 1_555
H3_4 C6_4 1_555 1_555
C7_4 C2_4 1_555 1_555
H4_4 C7_4 1_555 1_555
C8_4 C5_4 1_555 1_555
C9_4 C8_4 1_555 1_555
H5_4 C9_4 1_555 1_555
C10_4 C8_4 1_555 1_555
H6_4 C10_4 1_555 1_555
C11_4 C10_4 1_555 1_555
C12_4 C11_4 1_555 1_555
O14_5 C1_4 1_555 1_555
O3_4 C12_4 1_555 1_555
O4_7 Cu2_5 1_555 1_555
H9_6 C14_8 1_555 1_555
Cu11_5 O17_4 1_555 1_555
C15_4 C18_4 1_555 1_555
C18_4 C21_4 1_555 1_555
C21_4 H10_4 1_555 1_555
C24_4 C21_4 1_555 1_555
H13_4 C24_4 1_555 1_555
C27_4 C24_4 1_555 1_555
C30_4 C27_4 1_555 1_555
H16_4 C30_4 1_555 1_555
C33_4 C18_4 1_555 1_555
H19_4 C33_4 1_555 1_555
C36_4 C9_4 1_555 1_555
C40_4 C11_4 1_555 1_555
H23_4 C40_4 1_555 1_555
O9_2 C15_4 1_555 1_555
O14_2 C15_4 1_555 1_555
O17_4 C12_4 1_555 1_555
O20_6 Cu2_5 1_555 1_555
C48_8 C14_8 1_555 1_555
H32_6 C48_8 1_555 1_555
H33_6 C48_8 1_555 1_555
H34_6 C14_8 1_555 1_555
C1_4 O9_5 1_555 1_555
C6_4 C7_4 1_555 1_555
C27_4 C36_4 1_555 1_555
C30_4 C33_4 1_555 1_555
C36_4 C40_4 1_555 1_555
O4_8 Cu2_6 1_555 1_555
C16_4 C19_4 1_555 1_555
C31_4 C28_4 1_555 1_555
H17_4 C31_4 1_555 1_555
C34_4 C19_4 1_555 1_555
H20_4 C34_4 1_555 1_555
C37_4 C28_4 1_555 1_555
C39_4 C37_4 1_555 1_555
C41_4 C37_4 1_555 1_555
C42_4 C38_4 1_555 1_555
H24_4 C41_4 1_555 1_555
H25_4 C42_4 1_555 1_555
C43_4 C41_4 1_555 1_555
C44_4 C43_4 1_555 1_555
O6_4 C16_4 1_555 1_555
O18_4 Cu2_6 1_555 1_555
O19_4 Cu11_6 1_555 1_555
O21_6 Cu2_6 1_555 1_555
C31_4 C34_4 1_555 1_555
C38_4 C39_4 1_555 1_555
C42_4 C43_4 1_555 1_555
C44_4 O18_4 1_555 1_555
C44_4 O19_4 1_555 1_555
Cu6_2 O12_4 1_555 1_555
C17_4 C20_4 1_555 1_555
C20_4 C23_4 1_555 1_555
C22_4 H11_4 1_555 1_555
C23_4 H12_4 1_555 1_555
C25_4 C22_4 1_555 1_555
C26_4 C23_4 1_555 1_555
H14_4 C25_4 1_555 1_555
H15_4 C26_4 1_555 1_555
C29_4 C26_4 1_555 1_555
C32_4 C29_4 1_555 1_555
H18_4 C32_4 1_555 1_555
C35_4 C20_4 1_555 1_555
H21_4 C35_4 1_555 1_555
O9 C17_4 1_555 1_555
O14 C17_4 1_555 1_555
C32_4 C35_4 1_555 1_555
N3_4 C13_7 1_555 1_555
O4_9 Cu11_3 1_555 1_555
C13_7 H7_7 1_555 1_555
H8_7 C13_7 1_555 1_555
C14_9 N3_4 1_555 1_555
H9_7 C14_9 1_555 1_555
O21_7 Cu11_3 1_555 1_555
C47_7 N3_4 1_555 1_555
H26_7 C47_7 1_555 1_555
H29_7 C47_7 1_555 1_555
H34_7 C14_9 1_555 1_555
O4_10 Cu11_4 1_555 1_555
N3_3 C45_7 1_555 1_555
O20_7 Cu11_4 1_555 1_555
C46_7 N3_3 1_555 1_555
H27_7 C46_7 1_555 1_555
H28_7 C45_7 1_555 1_555
H30_7 C46_7 1_555 1_555
H31_7 C45_7 1_555 1_555
H32_7 C48_9 1_555 1_555
H33_7 C48_9 1_555 1_555
N3_3 C48_9 1_555 1_555
N3_2 C13_8 1_555 1_555
O4_11 Cu11_5 1_555 1_555
C13_8 H7_8 1_555 1_555
H8_8 C13_8 1_555 1_555
C14_10 N3_2 1_555 1_555
H9_8 C14_10 1_555 1_555
O21_8 Cu11_5 1_555 1_555
C47_8 N3_2 1_555 1_555
H26_8 C47_8 1_555 1_555
H29_8 C47_8 1_555 1_555
H34_8 C14_10 1_555 1_555
O4_12 Cu11_6 1_555 1_555
N3 C45_8 1_555 1_555
O20_8 Cu11_6 1_555 1_555
C46_8 N3 1_555 1_555
H27_8 C46_8 1_555 1_555
H28_8 C45_8 1_555 1_555
H30_8 C46_8 1_555 1_555
H31_8 C45_8 1_555 1_555
H32_8 C48_10 1_555 1_555
H33_8 C48_10 1_555 1_555
N3 C48_10 1_555 1_555
O8_7 Cu3 1_555 1_555
O15_7 Cu3 1_555 1_555
O10_7 Cu5 1_555 1_555
O16_7 Cu5 1_555 1_555
O16_8 Cu8_3 1_555 1_555
O15_8 Cu6_2 1_555 1_555
C1_5 C2_5 1_555 1_555
C2_5 C3_5 1_555 1_555
C3_5 H1_5 1_555 1_555
C4_5 C3_5 1_555 1_555
H2_5 C4_5 1_555 1_555
C5_5 C4_5 1_555 1_555
C6_5 C5_5 1_555 1_555
H3_5 C6_5 1_555 1_555
C7_5 C2_5 1_555 1_555
H4_5 C7_5 1_555 1_555
O16_4 C1_5 1_555 1_555
C21_5 H10_5 1_555 1_555
C24_5 C21_5 1_555 1_555
H13_5 C24_5 1_555 1_555
C1_5 O8_4 1_555 1_555
C6_5 C7_5 1_555 1_555
C9_5 C8_5 1_555 1_555
C10_5 C8_5 1_555 1_555
H6_5 C10_5 1_555 1_555
C11_5 C10_5 1_555 1_555
C12_5 C11_5 1_555 1_555
O20_2 C12_5 1_555 1_555
C15_5 C18_5 1_555 1_555
C16_5 C19_5 1_555 1_555
C17_5 C20_5 1_555 1_555
C19_5 C22_5 1_555 1_555
C20_5 C23_5 1_555 1_555
C22_5 H11_5 1_555 1_555
C23_5 H12_5 1_555 1_555
C25_5 C22_5 1_555 1_555
C26_5 C23_5 1_555 1_555
H14_5 C25_5 1_555 1_555
H15_5 C26_5 1_555 1_555
C28_5 C25_5 1_555 1_555
C29_5 C26_5 1_555 1_555
C30_5 C27_5 1_555 1_555
C31_5 C28_5 1_555 1_555
C32_5 C29_5 1_555 1_555
H16_5 C30_5 1_555 1_555
H17_5 C31_5 1_555 1_555
H18_5 C32_5 1_555 1_555
C33_5 C18_5 1_555 1_555
C34_5 C19_5 1_555 1_555
C35_5 C20_5 1_555 1_555
H19_5 C33_5 1_555 1_555
H20_5 C34_5 1_555 1_555
H21_5 C35_5 1_555 1_555
C36_5 C9_5 1_555 1_555
C37_5 C28_5 1_555 1_555
C38_5 C29_5 1_555 1_555
C39_5 C37_5 1_555 1_555
H22_5 C39_5 1_555 1_555
C40_5 C11_5 1_555 1_555
C41_5 C37_5 1_555 1_555
C42_5 C38_5 1_555 1_555
H23_5 C40_5 1_555 1_555
H24_5 C41_5 1_555 1_555
H25_5 C42_5 1_555 1_555
C43_5 C41_5 1_555 1_555
C44_5 C43_5 1_555 1_555
O10_7 C15_5 1_555 1_555
O8_3 C16_5 1_555 1_555
O10_6 C17_5 1_555 1_555
O16_3 C16_5 1_555 1_555
O15_6 C17_5 1_555 1_555
O20_5 C12_5 1_555 1_555
C27_5 C36_5 1_555 1_555
C30_5 C33_5 1_555 1_555
C31_5 C34_5 1_555 1_555
C32_5 C35_5 1_555 1_555
C36_5 C40_5 1_555 1_555
C38_5 C39_5 1_555 1_555
C42_5 C43_5 1_555 1_555
C44_5 O21_2 1_555 1_555
C44_5 O21_5 1_555 1_555
C9_6 C8_6 1_555 1_555
C10_6 C8_6 1_555 1_555
H6_6 C10_6 1_555 1_555
C11_6 C10_6 1_555 1_555
C12_6 C11_6 1_555 1_555
O20 C12_6 1_555 1_555
C15_6 C18_6 1_555 1_555
C16_6 C19_6 1_555 1_555
C17_6 C20_6 1_555 1_555
C19_6 C22_6 1_555 1_555
C20_6 C23_6 1_555 1_555
C22_6 H11_6 1_555 1_555
C23_6 H12_6 1_555 1_555
C25_6 C22_6 1_555 1_555
C26_6 C23_6 1_555 1_555
H14_6 C25_6 1_555 1_555
H15_6 C26_6 1_555 1_555
C28_6 C25_6 1_555 1_555
C29_6 C26_6 1_555 1_555
C30_6 C27_6 1_555 1_555
C31_6 C28_6 1_555 1_555
C32_6 C29_6 1_555 1_555
H16_6 C30_6 1_555 1_555
H17_6 C31_6 1_555 1_555
H18_6 C32_6 1_555 1_555
C33_6 C18_6 1_555 1_555
C34_6 C19_6 1_555 1_555
C35_6 C20_6 1_555 1_555
H19_6 C33_6 1_555 1_555
H20_6 C34_6 1_555 1_555
H21_6 C35_6 1_555 1_555
C36_6 C9_6 1_555 1_555
C37_6 C28_6 1_555 1_555
C38_6 C29_6 1_555 1_555
C39_6 C37_6 1_555 1_555
H22_6 C39_6 1_555 1_555
C40_6 C11_6 1_555 1_555
C41_6 C37_6 1_555 1_555
C42_6 C38_6 1_555 1_555
H23_6 C40_6 1_555 1_555
H24_6 C41_6 1_555 1_555
H25_6 C42_6 1_555 1_555
C43_6 C41_6 1_555 1_555
C44_6 C43_6 1_555 1_555
O8_7 C15_6 1_555 1_555
O8 C16_6 1_555 1_555
O8_6 C17_6 1_555 1_555
O16 C16_6 1_555 1_555
O16_6 C17_6 1_555 1_555
O20_4 C12_6 1_555 1_555
C27_6 C36_6 1_555 1_555
C30_6 C33_6 1_555 1_555
C31_6 C34_6 1_555 1_555
C32_6 C35_6 1_555 1_555
C36_6 C40_6 1_555 1_555
C38_6 C39_6 1_555 1_555
C42_6 C43_6 1_555 1_555
C44_6 O21 1_555 1_555
C44_6 O21_4 1_555 1_555
C1_6 C2_6 1_555 1_555
C2_6 C3_6 1_555 1_555
C3_6 H1_6 1_555 1_555
C4_6 C3_6 1_555 1_555
H2_6 C4_6 1_555 1_555
C5_6 C4_6 1_555 1_555
C6_6 C5_6 1_555 1_555
H3_6 C6_6 1_555 1_555
C7_6 C2_6 1_555 1_555
H4_6 C7_6 1_555 1_555
O16_2 C1_6 1_555 1_555
C21_6 H10_6 1_555 1_555
C24_6 C21_6 1_555 1_555
H13_6 C24_6 1_555 1_555
C1_6 O8_2 1_555 1_555
C6_6 C7_6 1_555 1_555
C16_7 C19_7 1_555 1_555
C31_7 C28_7 1_555 1_555
H17_7 C31_7 1_555 1_555
C34_7 C19_7 1_555 1_555
H20_7 C34_7 1_555 1_555
C37_7 C28_7 1_555 1_555
C39_7 C37_7 1_555 1_555
C41_7 C37_7 1_555 1_555
C42_7 C38_7 1_555 1_555
H24_7 C41_7 1_555 1_555
H25_7 C42_7 1_555 1_555
C43_7 C41_7 1_555 1_555
C44_7 C43_7 1_555 1_555
O10_8 C16_7 1_555 1_555
C31_7 C34_7 1_555 1_555
C38_7 C39_7 1_555 1_555
C42_7 C43_7 1_555 1_555
C44_7 O20_6 1_555 1_555
C44_7 O21_8 1_555 1_555
C17_7 C20_7 1_555 1_555
C20_7 C23_7 1_555 1_555
C22_7 H11_7 1_555 1_555
C23_7 H12_7 1_555 1_555
C25_7 C22_7 1_555 1_555
C26_7 C23_7 1_555 1_555
H14_7 C25_7 1_555 1_555
H15_7 C26_7 1_555 1_555
C29_7 C26_7 1_555 1_555
C32_7 C29_7 1_555 1_555
H18_7 C32_7 1_555 1_555
C35_7 C20_7 1_555 1_555
H21_7 C35_7 1_555 1_555
O10_2 C17_7 1_555 1_555
O15_2 C17_7 1_555 1_555
C32_7 C35_7 1_555 1_555
C1_7 C2_7 1_555 1_555
C2_7 C3_7 1_555 1_555
C3_7 H1_7 1_555 1_555
C4_7 C3_7 1_555 1_555
H2_7 C4_7 1_555 1_555
C5_7 C4_7 1_555 1_555
C6_7 C5_7 1_555 1_555
H3_7 C6_7 1_555 1_555
C7_7 C2_7 1_555 1_555
H4_7 C7_7 1_555 1_555
C8_7 C5_7 1_555 1_555
C9_7 C8_7 1_555 1_555
H5_7 C9_7 1_555 1_555
C10_7 C8_7 1_555 1_555
H6_7 C10_7 1_555 1_555
C11_7 C10_7 1_555 1_555
C12_7 C11_7 1_555 1_555
O15_5 C1_7 1_555 1_555
O21_6 C12_7 1_555 1_555
C15_7 C18_7 1_555 1_555
C18_7 C21_7 1_555 1_555
C21_7 H10_7 1_555 1_555
C24_7 C21_7 1_555 1_555
H13_7 C24_7 1_555 1_555
C27_7 C24_7 1_555 1_555
C30_7 C27_7 1_555 1_555
H16_7 C30_7 1_555 1_555
C33_7 C18_7 1_555 1_555
H19_7 C33_7 1_555 1_555
C36_7 C9_7 1_555 1_555
C40_7 C11_7 1_555 1_555
H23_7 C40_7 1_555 1_555
O10 C15_7 1_555 1_555
O15 C15_7 1_555 1_555
O20_8 C12_7 1_555 1_555
C1_7 O10_5 1_555 1_555
C6_7 C7_7 1_555 1_555
C27_7 C36_7 1_555 1_555
C30_7 C33_7 1_555 1_555
C36_7 C40_7 1_555 1_555
C17_8 C20_8 1_555 1_555
C20_8 C23_8 1_555 1_555
C22_8 H11_8 1_555 1_555
C23_8 H12_8 1_555 1_555
C25_8 C22_8 1_555 1_555
C26_8 C23_8 1_555 1_555
H14_8 C25_8 1_555 1_555
H15_8 C26_8 1_555 1_555
C29_8 C26_8 1_555 1_555
C32_8 C29_8 1_555 1_555
H18_8 C32_8 1_555 1_555
C35_8 C20_8 1_555 1_555
H21_8 C35_8 1_555 1_555
O10_4 C17_8 1_555 1_555
O15_4 C17_8 1_555 1_555
C32_8 C35_8 1_555 1_555
C16_8 C19_8 1_555 1_555
C31_8 C28_8 1_555 1_555
H17_8 C31_8 1_555 1_555
C34_8 C19_8 1_555 1_555
H20_8 C34_8 1_555 1_555
C37_8 C28_8 1_555 1_555
C39_8 C37_8 1_555 1_555
C41_8 C37_8 1_555 1_555
C42_8 C38_8 1_555 1_555
H24_8 C41_8 1_555 1_555
H25_8 C42_8 1_555 1_555
C43_8 C41_8 1_555 1_555
C44_8 C43_8 1_555 1_555
O8_8 C16_8 1_555 1_555
C31_8 C34_8 1_555 1_555
C38_8 C39_8 1_555 1_555
C42_8 C43_8 1_555 1_555
C44_8 O20_3 1_555 1_555
C44_8 O21_7 1_555 1_555
C1_8 C2_8 1_555 1_555
C2_8 C3_8 1_555 1_555
C3_8 H1_8 1_555 1_555
C4_8 C3_8 1_555 1_555
H2_8 C4_8 1_555 1_555
C5_8 C4_8 1_555 1_555
C6_8 C5_8 1_555 1_555
H3_8 C6_8 1_555 1_555
C7_8 C2_8 1_555 1_555
H4_8 C7_8 1_555 1_555
C8_8 C5_8 1_555 1_555
C9_8 C8_8 1_555 1_555
H5_8 C9_8 1_555 1_555
C10_8 C8_8 1_555 1_555
H6_8 C10_8 1_555 1_555
C11_8 C10_8 1_555 1_555
C12_8 C11_8 1_555 1_555
O16_5 C1_8 1_555 1_555
O21_3 C12_8 1_555 1_555
C15_8 C18_8 1_555 1_555
C18_8 C21_8 1_555 1_555
C21_8 H10_8 1_555 1_555
C24_8 C21_8 1_555 1_555
H13_8 C24_8 1_555 1_555
C27_8 C24_8 1_555 1_555
C30_8 C27_8 1_555 1_555
H16_8 C30_8 1_555 1_555
C33_8 C18_8 1_555 1_555
H19_8 C33_8 1_555 1_555
C36_8 C9_8 1_555 1_555
C40_8 C11_8 1_555 1_555
H23_8 C40_8 1_555 1_555
O10_3 C15_8 1_555 1_555
O15_3 C15_8 1_555 1_555
O20_7 C12_8 1_555 1_555
C1_8 O8_5 1_555 1_555
C6_8 C7_8 1_555 1_555
C27_8 C36_8 1_555 1_555
C30_8 C33_8 1_555 1_555
C36_8 C40_8 1_555 1_555

#END
