
###############################################################################
#
# This file contains modified crystal structure data generated from the
# MOF subset of the Cambridge Structural Database (CSD) v543 
# hosted by the Cambridge Crystallographic Data Centre (CCDC).
#
# This work is licensed under the Creative Commons
# Attribution-NonCommercial-ShareAlike 4.0 International License.
# To view a copy of this license, visit
# http://creativecommons.org/licenses/by-nc-sa/4.0/
# or send a letter to
# Creative Commons, PO Box 1866, Mountain View, CA 94042, USA.
#
# CIF created using the CSD Python API on 29 September 2022
# The structure has been converted into the P1 space group
# The structure has a 3D framework
# The original CSD entry MAYXUG is in the triclinic crystal system
# The original CSD entry MAYXUG is in a Sohncke space group
# The framework has been calculated to contain at least 10.0% void space
# The void calculation uses a probe of radius 1.32A, grid spacing 0.4
# H atom positions have been added when not included in the experimental data
#
###############################################################################

data_MAYXUG
_chemical_formula_moiety         '(C12 H19 Er2 O18)n'
_symmetry_cell_setting           triclinic
_symmetry_space_group_name_H-M   'P 1'
_symmetry_Int_Tables_number      1
_space_group_name_Hall           'P 1'
loop_
_symmetry_equiv_pos_site_id
_symmetry_equiv_pos_as_xyz
1 x,y,z
_cell_length_a                   5.9565(4)
_cell_length_b                   7.3716(5)
_cell_length_c                   13.1769(9)
_cell_angle_alpha                102.9250(10)
_cell_angle_beta                 101.6370(10)
_cell_angle_gamma                90.7850(10)
_cell_volume                     551.284
loop_
_atom_site_label
_atom_site_type_symbol
_atom_site_fract_x
_atom_site_fract_y
_atom_site_fract_z
_atom_site_U_iso_or_equiv
_atom_site_thermal_displace_type
O22 O 0.2879(11) 0.1063(10) 0.4711(5) 0.0160 Uani
H17 H 0.2403 0.0094 0.4872 0.0190 Uiso
O29 O 0.2826(11) 0.3846(10) 0.3315(7) 0.0216 Uani
H21 H 0.313643 0.212753 0.534323 . .
Er4 Er 0.02039(4) 0.81920(4) 0.67901(3) 0.0121 Uani
Er2 Er 0.97965(4) 0.18057(4) 0.32105(3) 0.0128 Uani
C2 C 0.3712(16) 0.0305(16) 0.0036(8) 0.0150 Uiso
C4 C 0.780(2) 0.089(2) 0.1006(11) 0.0180 Uiso
O5 O 0.3244(12) 0.2165(12) 0.0404(6) 0.0265 Uani
H11 H 0.2036 0.2196 0.0657 0.0320 Uiso
O8 O 0.9206(12) 0.2158(12) 0.1235(6) 0.0258 Uani
O21 O 0.9834(13) 0.3473(11) 0.4925(6) 0.0215 Uani
O27 O 0.8505(12) 0.4866(11) 0.3093(6) 0.0173 Uani
H19 H 0.8559 0.4983 0.2471 0.0210 Uiso
O28 O 0.5949(12) 0.2229(12) 0.3271(7) 0.0238 Uani
H22 H 0.952957 0.584461 0.363633 . .
C3 C 0.6210(18) 0.0288(18) 0.9892(8) 0.0180 Uiso
O4 O 0.0434(13) 0.0198(12) 0.8586(6) 0.0247 Uani
O6 O 0.6479(12) 0.1373(12) 0.9183(6) 0.0256 Uani
H12 H 0.7699 0.1086 0.8959 0.0310 Uiso
O23 O 0.1638(11) 0.1434(10) 0.6929(6) 0.0164 Uani
H18 H 0.1664 0.2041 0.7561 0.0200 Uiso
H20 H 0.0596341 0.200001 0.641249 . .
H1 H 0.3528 0.9577 0.0573 0.0180 Uiso
O7 O 0.7488(13) 0.9881(13) 0.1639(7) 0.0312 Uani
O26 O 0.8237(13) 0.9169(12) 0.3596(7) 0.0223 Uani
C1 C 0.212(2) 0.9433(18) 0.8973(9) 0.0120 Uiso
H2 H 0.6515 0.8976 0.9572 0.0220 Uiso
C5 C 0.1576(14) 0.3891(13) 0.5683(7) 0.0118 Uiso
C6 C 0.3484(14) 0.2516(15) 0.5669(7) 0.0094 Uiso
H3 H 0.4939 0.3196 0.5657 0.0110 Uiso
C7 C 0.3841(15) 0.1790(14) 0.6701(8) 0.0147 Uiso
H4 H 0.4717 0.2788 0.7300 0.0180 Uiso
C8 C 0.5152(15) 0.0049(13) 0.6642(7) 0.0125 Uiso
O3 O 0.2567(12) 0.7808(11) 0.8484(6) 0.0233 Uani
O9 O 0.1783(13) 0.5267(11) 0.6445(6) 0.0179 Uani
O14 O 0.7176(11) 0.0110(10) 0.6556(6) 0.0193 Uani
O15 O 0.0246(12) 0.8537(11) 0.5084(6) 0.0223 Uani
O24 O 0.4073(14) 0.8568(12) 0.6706(7) 0.0194 Uiso
C9 C 0.8493(15) 0.8339(14) 0.4343(7) 0.0134 Uiso
C10 C 0.6582(16) 0.6903(17) 0.4323(8) 0.0150 Uiso
H5 H 0.5117 0.7547 0.4335 0.0180 Uiso
C11 C 0.6291(15) 0.5428(14) 0.3267(8) 0.0134 Uiso
H6 H 0.5506 0.5971 0.2668 0.0160 Uiso
C12 C 0.4911(15) 0.3710(14) 0.3286(7) 0.0135 Uiso
O1 O 0.7544(12) 0.6542(12) 0.7414(7) 0.0281 Uani
H7 H 0.8095 0.6251 0.7999 0.0420 Uiso
H8 H 0.6428 0.7245 0.7440 0.0420 Uiso
O17 O 0.7164(11) 0.6187(9) 0.5254(5) 0.0134 Uani
H15 H 0.7660 0.5110 0.5079 0.0160 Uiso
O2 O 0.2317(12) 0.9685(11) 0.2488(6) 0.0257 Uani
H9 H 0.1568 0.8646 0.2196 0.0390 Uiso
H10 H 0.3423 0.9509 0.2969 0.0390 Uiso
loop_
_atom_site_aniso_label
_atom_site_aniso_U_11
_atom_site_aniso_U_22
_atom_site_aniso_U_33
_atom_site_aniso_U_23
_atom_site_aniso_U_13
_atom_site_aniso_U_12
O22 0.022 0.012 0.016 0.003 0.009 -0.001
O29 0.011 0.016 0.036 0.005 0.002 0
Er4 0.0106 0.0127 0.0134 0.0032 0.003 0.0018
Er2 0.0098 0.0138 0.0148 0.0033 0.0029 -0.0006
O5 0.019 0.035 0.023 -0.003 0.01 -0.006
O8 0.018 0.034 0.017 -0.006 -0.002 -0.006
O21 0.025 0.024 0.014 0.002 0.003 0.005
O27 0.014 0.025 0.018 0.008 0.012 0.002
O28 0.016 0.021 0.039 0.014 0.009 -0.002
O4 0.025 0.034 0.018 0.011 0.005 0.008
O6 0.023 0.037 0.023 0.015 0.01 0.005
O23 0.015 0.014 0.023 0.004 0.011 0
O7 0.026 0.041 0.025 0.01 -0.001 0
O26 0.024 0.019 0.024 0.007 0.003 -0.003
O3 0.02 0.017 0.025 -0.002 -0.006 0.007
O9 0.019 0.011 0.021 0 0.002 0.004
O14 0.013 0.019 0.027 0.007 0.005 0.004
O15 0.025 0.029 0.017 0.005 0.015 -0.01
O1 0.015 0.033 0.043 0.023 0.006 0.002
O17 0.021 0.008 0.014 0.003 0.009 0.009
O2 0.019 0.023 0.03 -0.002 0.003 -0.004
loop_
_geom_bond_atom_site_label_1
_geom_bond_atom_site_label_2
_geom_bond_site_symmetry_1
_geom_bond_site_symmetry_2
H17 O22 1_555 1_555
O22 H21 1_555 1_555
O5 C2 1_555 1_555
H11 O5 1_555 1_555
O8 Er2 1_555 1_555
O21 Er2 1_555 1_555
O27 Er2 1_555 1_555
H19 O27 1_555 1_555
O28 Er2 1_555 1_555
C4 O8 1_555 1_555
O27 H22 1_555 1_555
O6 C3 1_555 1_555
H12 O6 1_555 1_555
H18 O23 1_555 1_555
O23 H20 1_555 1_555
C5 C6 1_555 1_555
C6 H3 1_555 1_555
C7 C6 1_555 1_555
H4 C7 1_555 1_555
C8 C7 1_555 1_555
O3 Er4 1_555 1_555
O9 Er4 1_555 1_555
O22 C6 1_555 1_555
O23 C7 1_555 1_555
O14 C8 1_555 1_555
O15 Er4 1_555 1_555
O24 Er4 1_555 1_555
C1 O3 1_555 1_555
C5 O9 1_555 1_555
C9 C10 1_555 1_555
C10 H5 1_555 1_555
C11 C10 1_555 1_555
H6 C11 1_555 1_555
C12 C11 1_555 1_555
O1 H7 1_555 1_555
H8 O1 1_555 1_555
O26 C9 1_555 1_555
H15 O17 1_555 1_555
O27 C11 1_555 1_555
O28 C12 1_555 1_555
O29 C12 1_555 1_555
C10 O17 1_555 1_555
O2 H9 1_555 1_555
H10 O2 1_555 1_555

#END
