
###############################################################################
#
# This file contains modified crystal structure data generated from the
# MOF subset of the Cambridge Structural Database (CSD) v543 
# hosted by the Cambridge Crystallographic Data Centre (CCDC).
#
# This work is licensed under the Creative Commons
# Attribution-NonCommercial-ShareAlike 4.0 International License.
# To view a copy of this license, visit
# http://creativecommons.org/licenses/by-nc-sa/4.0/
# or send a letter to
# Creative Commons, PO Box 1866, Mountain View, CA 94042, USA.
#
# CIF created using the CSD Python API on 29 September 2022
# The structure has been converted into the P1 space group
# The structure has a 3D framework
# The original CSD entry MAZHIF is in the cubic crystal system
# The original CSD entry MAZHIF is in a Sohncke space group
# The framework has been calculated to contain at least 10.0% void space
# The void calculation uses a probe of radius 1.32A, grid spacing 0.4
# The framework is charged, counterions have been retained in the structure
# H atom positions have been added when not included in the experimental data
#
###############################################################################

data_MAZHIF
_chemical_formula_moiety         '(C1536 H1056 Ag32 Co8 N288 32+)n'
_symmetry_cell_setting           triclinic
_symmetry_space_group_name_H-M   'P 1'
_symmetry_Int_Tables_number      1
_space_group_name_Hall           'P 1'
loop_
_symmetry_equiv_pos_site_id
_symmetry_equiv_pos_as_xyz
1 x,y,z
_cell_length_a                   34.7494(14)
_cell_length_b                   34.7494(14)
_cell_length_c                   34.7494(14)
_cell_angle_alpha                90
_cell_angle_beta                 90
_cell_angle_gamma                90
_cell_volume                     41960.6
loop_
_atom_site_label
_atom_site_type_symbol
_atom_site_fract_x
_atom_site_fract_y
_atom_site_fract_z
Co1 Co 0.135390(16) 0.135390(16) 0.364610(16)
N1 N 0.17260(15) 0.11623(12) 0.32770(15)
N2 N 0.09496(13) 0.10225(11) 0.34622(11)
C1 C 0.21072(19) 0.1248(2) 0.32688(17)
H1 H 0.2231 0.1426 0.3436
C2 C 0.2296(2) 0.1033(2) 0.29754(19)
H2 H 0.2559 0.1051 0.2903
C3 C 0.20161(17) 0.07915(19) 0.28147(17)
H3 H 0.2055 0.0609 0.2615
C4 C 0.16620(18) 0.08703(18) 0.30063(14)
C5 C 0.13095(16) 0.07044(13) 0.29349(14)
C6 C 0.09678(15) 0.07790(13) 0.31356(12)
C7 C 0.0602(2) 0.06060(16) 0.30813(14)
H4 H 0.0535 0.0430 0.2883
C8 C 0.03578(16) 0.07395(15) 0.33707(17)
H5 H 0.0096 0.0673 0.3413
C9 C 0.05868(13) 0.09951(16) 0.35850(15)
H6 H 0.0491 0.1136 0.3799
C10 C 0.12866(18) 0.04199(15) 0.26102(16)
C11 C 0.1148(3) 0.05271(18) 0.22576(18)
H7 H 0.1084 0.0790 0.2220
C12 C 0.1098(3) 0.0294(2) 0.19724(19)
H8 H 0.0990 0.0381 0.1737
C15 C 0.1390(2) 0.00453(19) 0.2666(2)
N6 N 0.11623(12) 0.17230(15) 0.32740(15)
N7 N 0.17230(15) 0.17260(15) 0.38377(12)
N10 N 0.10225(11) 0.15378(11) 0.40504(13)
N11 N 0.15378(11) 0.09496(13) 0.39775(11)
H31 H 0.137719 0.0472496 0.313452
Co2 Co 0.364610(16) 0.864610(16) 0.864610(16)
N4 N 0.32770(15) 0.82740(15) 0.88377(12)
N8 N 0.34622(11) 0.90504(13) 0.89775(11)
C17 C 0.32688(17) 0.78928(19) 0.8752(2)
H11 H 0.3436 0.7769 0.8574
C19 C 0.29754(19) 0.7704(2) 0.8967(2)
H13 H 0.2903 0.7441 0.8949
C21 C 0.28147(17) 0.79839(17) 0.92085(19)
H15 H 0.2615 0.7945 0.9391
C23 C 0.30063(14) 0.83380(18) 0.91297(18)
C25 C 0.29349(14) 0.86905(16) 0.92956(13)
C27 C 0.31356(12) 0.90322(15) 0.92210(13)
C29 C 0.30813(14) 0.9398(2) 0.93940(16)
H17 H 0.2883 0.9465 0.9570
C31 C 0.33707(17) 0.96422(16) 0.92605(15)
H19 H 0.3413 0.9904 0.9327
C33 C 0.35850(15) 0.94132(13) 0.90049(16)
H21 H 0.3799 0.9509 0.8864
C35 C 0.26102(16) 0.87134(18) 0.95801(15)
C37 C 0.22576(18) 0.8852(3) 0.94729(18)
H23 H 0.2220 0.8916 0.9210
C39 C 0.19724(19) 0.8902(3) 0.9706(2)
H25 H 0.1737 0.9010 0.9619
C45 C 0.2666(2) 0.8610(2) 0.99547(19)
H33 H 0.313452 0.862281 0.95275
Co3 Co 0.864610(16) 0.635390(16) 0.135390(16)
N5 N 0.88377(12) 0.67230(15) 0.17260(15)
N9 N 0.89775(11) 0.65378(11) 0.09496(13)
C18 C 0.8752(2) 0.67312(17) 0.21072(19)
H12 H 0.8574 0.6564 0.2231
C20 C 0.8967(2) 0.70246(19) 0.2296(2)
H14 H 0.8949 0.7097 0.2559
C22 C 0.92085(19) 0.71853(17) 0.20161(17)
H16 H 0.9391 0.7385 0.2055
C24 C 0.91297(18) 0.69937(14) 0.16620(18)
C26 C 0.92956(13) 0.70651(14) 0.13095(16)
C28 C 0.92210(13) 0.68644(12) 0.09678(15)
C30 C 0.93940(16) 0.69187(14) 0.0602(2)
H18 H 0.9570 0.7117 0.0535
C32 C 0.92605(15) 0.66293(17) 0.03578(16)
H20 H 0.9327 0.6587 0.0096
C34 C 0.90049(16) 0.64150(15) 0.05868(13)
H22 H 0.8864 0.6201 0.0491
C36 C 0.95801(15) 0.73898(16) 0.12866(18)
C38 C 0.94729(18) 0.77424(18) 0.1148(3)
H24 H 0.9210 0.7780 0.1084
C40 C 0.9706(2) 0.80276(19) 0.1098(3)
H26 H 0.9619 0.8263 0.0990
C46 C 0.99547(19) 0.7334(2) 0.1390(2)
H32 H 0.95275 0.686548 0.137719
N6_2 N 0.32740(15) 0.88377(12) 0.82770(15)
N7_2 N 0.38377(12) 0.82770(15) 0.82740(15)
N10_2 N 0.40504(13) 0.89775(11) 0.84622(11)
N11_2 N 0.39775(11) 0.84622(11) 0.90504(13)
N6_3 N 0.82770(15) 0.67260(15) 0.11623(12)
N7_3 N 0.82740(15) 0.61623(12) 0.17230(15)
N10_3 N 0.84622(11) 0.59496(13) 0.10225(11)
N11_3 N 0.90504(13) 0.60225(11) 0.15378(11)
C18_2 C 0.1248(2) 0.17312(17) 0.28928(19)
H12_2 H 0.1426 0.1564 0.2769
C20_2 C 0.1033(2) 0.20246(19) 0.2704(2)
H14_2 H 0.1051 0.2097 0.2441
C22_2 C 0.07915(19) 0.21853(17) 0.29839(17)
H16_2 H 0.0609 0.2385 0.2945
C24_2 C 0.08703(18) 0.19937(14) 0.33380(18)
C26_2 C 0.07044(13) 0.20651(14) 0.36905(16)
C28_2 C 0.07790(13) 0.18644(12) 0.40322(15)
C30_2 C 0.06060(16) 0.19187(14) 0.4398(2)
H18_2 H 0.0430 0.2117 0.4465
C32_2 C 0.07395(15) 0.16293(17) 0.46422(16)
H20_2 H 0.0673 0.1587 0.4904
C34_2 C 0.09951(16) 0.14150(15) 0.44132(13)
H22_2 H 0.1136 0.1201 0.4509
C36_2 C 0.04199(15) 0.23898(16) 0.37134(18)
C38_2 C 0.05271(18) 0.27424(18) 0.3852(3)
H24_2 H 0.0790 0.2780 0.3916
C40_2 C 0.0294(2) 0.30276(19) 0.3902(3)
H26_2 H 0.0381 0.3263 0.4010
C46_2 C 0.00453(19) 0.2334(2) 0.3610(2)
H32_2 H 0.0472496 0.186548 0.362281
Ag1 Ag 0.89692(4) 0.39692(4) 0.39692(4)
N3 N 0.8907(2) 0.4407(2) 0.3529(2)
C1_2 C 0.78928(19) 0.6248(2) 0.17312(17)
H1_2 H 0.7769 0.6426 0.1564
C2_2 C 0.7704(2) 0.6033(2) 0.20246(19)
H2_2 H 0.7441 0.6051 0.2097
C3_2 C 0.79839(17) 0.57915(19) 0.21853(17)
H3_2 H 0.7945 0.5609 0.2385
C4_2 C 0.83380(18) 0.58703(18) 0.19937(14)
C5_2 C 0.86905(16) 0.57044(13) 0.20651(14)
C6_2 C 0.90322(15) 0.57790(13) 0.18644(12)
C7_2 C 0.9398(2) 0.56060(16) 0.19187(14)
H4_2 H 0.9465 0.5430 0.2117
C8_2 C 0.96422(16) 0.57395(15) 0.16293(17)
H5_2 H 0.9904 0.5673 0.1587
C9_2 C 0.94132(13) 0.59951(16) 0.14150(15)
H6_2 H 0.9509 0.6136 0.1201
C10_2 C 0.87134(18) 0.54199(15) 0.23898(16)
C11_2 C 0.8852(3) 0.55271(18) 0.27424(18)
H7_2 H 0.8916 0.5790 0.2780
C12_2 C 0.8902(3) 0.5294(2) 0.30276(19)
H8_2 H 0.9010 0.5381 0.3263
C13 C 0.8790(2) 0.48969(17) 0.2981(2)
C14 C 0.8653(2) 0.47752(17) 0.2635(2)
H9 H 0.8587 0.4513 0.2597
C15_2 C 0.8610(2) 0.50453(19) 0.2334(2)
H10 H 0.8509 0.4966 0.2093
C16 C 0.8842(2) 0.4626(2) 0.3279(2)
Co2_2 Co 0.635390(16) 0.364610(16) 0.635390(16)
N4_2 N 0.67230(15) 0.32740(15) 0.61623(12)
N8_2 N 0.65378(11) 0.40504(13) 0.60225(11)
N12 N 0.8529(2) 0.3907(2) 0.4407(2)
N13 N 0.9407(2) 0.3529(2) 0.3907(2)
C17_2 C 0.67312(17) 0.28928(19) 0.6248(2)
H11_2 H 0.6564 0.2769 0.6426
C19_2 C 0.70246(19) 0.2704(2) 0.6033(2)
H13_2 H 0.7097 0.2441 0.6051
C21_2 C 0.71853(17) 0.29839(17) 0.57915(19)
H15_2 H 0.7385 0.2945 0.5609
C23_2 C 0.69937(14) 0.33380(18) 0.58703(18)
C25_2 C 0.70651(14) 0.36905(16) 0.57044(13)
C27_2 C 0.68644(12) 0.40322(15) 0.57790(13)
C29_2 C 0.69187(14) 0.4398(2) 0.56060(16)
H17_2 H 0.7117 0.4465 0.5430
C31_2 C 0.66293(17) 0.46422(16) 0.57395(15)
H19_2 H 0.6587 0.4904 0.5673
C33_2 C 0.64150(15) 0.44132(13) 0.59951(16)
H21_2 H 0.6201 0.4509 0.6136
C35_2 C 0.73898(16) 0.37134(18) 0.54199(15)
C37_2 C 0.77424(18) 0.3852(3) 0.55271(18)
H23_2 H 0.7780 0.3916 0.5790
C39_2 C 0.80276(19) 0.3902(3) 0.5294(2)
H25_2 H 0.8263 0.4010 0.5381
C41 C 0.7981(2) 0.3790(2) 0.48969(17)
C42 C 0.98969(17) 0.2981(2) 0.3790(2)
C43 C 0.7635(2) 0.3653(2) 0.47752(17)
C44 C 0.97752(17) 0.2635(2) 0.3653(2)
H27 H 0.7597 0.3587 0.4513
H28 H 0.9513 0.2597 0.3587
C45_2 C 0.7334(2) 0.3610(2) 0.50453(19)
H29 H 0.7093 0.3509 0.4966
H30 H 0.9966 0.2093 0.3509
C47 C 0.8279(2) 0.3842(2) 0.4626(2)
C48 C 0.9626(2) 0.3279(2) 0.3842(2)
H31_2 H 0.862281 0.54725 0.186548
H33_2 H 0.686548 0.362281 0.54725
N6_4 N 0.67260(15) 0.38377(12) 0.67230(15)
N7_4 N 0.61623(12) 0.32770(15) 0.67260(15)
N10_4 N 0.59496(13) 0.39775(11) 0.65378(11)
N11_4 N 0.60225(11) 0.34622(11) 0.59496(13)
Ag1_2 Ag 0.39692(4) 0.10308(4) 0.60308(4)
N3_2 N 0.3907(2) 0.0593(2) 0.6471(2)
C13_2 C 0.3790(2) 0.01031(17) 0.7019(2)
C14_2 C 0.3653(2) 0.02248(17) 0.7365(2)
H9_2 H 0.3587 0.0487 0.7403
H10_2 H 0.3509 0.0034 0.7907
C16_2 C 0.3842(2) 0.0374(2) 0.6721(2)
N12_2 N 0.3529(2) 0.1093(2) 0.5593(2)
N13_2 N 0.4407(2) 0.1471(2) 0.6093(2)
C17_3 C 0.17312(17) 0.21072(19) 0.3752(2)
C18_3 C 0.6248(2) 0.32688(17) 0.71072(19)
H11_3 H 0.1564 0.2231 0.3574
H12_3 H 0.6426 0.3436 0.7231
C19_3 C 0.20246(19) 0.2296(2) 0.3967(2)
C20_3 C 0.6033(2) 0.29754(19) 0.7296(2)
H13_3 H 0.2097 0.2559 0.3949
H14_3 H 0.6051 0.2903 0.7559
C21_3 C 0.21853(17) 0.20161(17) 0.42085(19)
C22_3 C 0.57915(19) 0.28147(17) 0.70161(17)
H15_3 H 0.2385 0.2055 0.4391
H16_3 H 0.5609 0.2615 0.7055
C23_3 C 0.19937(14) 0.16620(18) 0.41297(18)
C24_3 C 0.58703(18) 0.30063(14) 0.66620(18)
C25_3 C 0.20651(14) 0.13095(16) 0.42956(13)
C26_3 C 0.57044(13) 0.29349(14) 0.63095(16)
C27_3 C 0.18644(12) 0.09678(15) 0.42210(13)
C28_3 C 0.57790(13) 0.31356(12) 0.59678(15)
C29_3 C 0.19187(14) 0.0602(2) 0.43940(16)
C30_3 C 0.56060(16) 0.30813(14) 0.5602(2)
H17_3 H 0.2117 0.0535 0.4570
H18_3 H 0.5430 0.2883 0.5535
C31_3 C 0.16293(17) 0.03578(16) 0.42605(15)
C32_3 C 0.57395(15) 0.33707(17) 0.53578(16)
H19_3 H 0.1587 0.0096 0.4327
H20_3 H 0.5673 0.3413 0.5096
C33_3 C 0.14150(15) 0.05868(13) 0.40049(16)
C34_3 C 0.59951(16) 0.35850(15) 0.55868(13)
H21_3 H 0.1201 0.0491 0.3864
H22_3 H 0.6136 0.3799 0.5491
C35_3 C 0.23898(16) 0.12866(18) 0.45801(15)
C36_3 C 0.54199(15) 0.26102(16) 0.62866(18)
C37_3 C 0.27424(18) 0.1148(3) 0.44729(18)
C38_3 C 0.55271(18) 0.22576(18) 0.6148(3)
H23_3 H 0.2780 0.1084 0.4210
H24_3 H 0.5790 0.2220 0.6084
C39_3 C 0.30276(19) 0.1098(3) 0.4706(2)
C40_3 C 0.5294(2) 0.19724(19) 0.6098(3)
H25_3 H 0.3263 0.0990 0.4619
H26_3 H 0.5381 0.1737 0.5990
C41_2 C 0.2981(2) 0.1210(2) 0.51031(17)
C42_2 C 0.48969(17) 0.2019(2) 0.6210(2)
C43_2 C 0.2635(2) 0.1347(2) 0.52248(17)
C44_2 C 0.47752(17) 0.2365(2) 0.6347(2)
H27_2 H 0.2597 0.1413 0.5487
H28_2 H 0.4513 0.2403 0.6413
C45_3 C 0.2334(2) 0.1390(2) 0.49547(19)
C46_3 C 0.50453(19) 0.2666(2) 0.6390(2)
H29_2 H 0.2093 0.1491 0.5034
H30_2 H 0.4966 0.2907 0.6491
C47_2 C 0.3279(2) 0.1158(2) 0.5374(2)
C48_2 C 0.4626(2) 0.1721(2) 0.6158(2)
H32_3 H 0.54725 0.313452 0.637719
H33_3 H 0.186548 0.137719 0.45275
C1_3 C 0.28928(19) 0.8752(2) 0.82688(17)
H1_3 H 0.2769 0.8574 0.8436
C2_3 C 0.2704(2) 0.8967(2) 0.79754(19)
H2_3 H 0.2441 0.8949 0.7903
C3_3 C 0.29839(17) 0.92085(19) 0.78147(17)
H3_3 H 0.2945 0.9391 0.7615
C4_3 C 0.33380(18) 0.91297(18) 0.80063(14)
C5_3 C 0.36905(16) 0.92956(13) 0.79349(14)
C6_3 C 0.40322(15) 0.92210(13) 0.81356(12)
C7_3 C 0.4398(2) 0.93940(16) 0.80813(14)
H4_3 H 0.4465 0.9570 0.7883
C8_3 C 0.46422(16) 0.92605(15) 0.83707(17)
H5_3 H 0.4904 0.9327 0.8413
C9_3 C 0.44132(13) 0.90049(16) 0.85850(15)
H6_3 H 0.4509 0.8864 0.8799
C10_3 C 0.37134(18) 0.95801(15) 0.76102(16)
C11_3 C 0.3852(3) 0.94729(18) 0.72576(18)
H7_3 H 0.3916 0.9210 0.7220
C12_3 C 0.3902(3) 0.9706(2) 0.69724(19)
H8_3 H 0.4010 0.9619 0.6737
C15_3 C 0.3610(2) 0.99547(19) 0.7666(2)
H31_3 H 0.362281 0.95275 0.813452
C17_4 C 0.82688(17) 0.71072(19) 0.1248(2)
H11_4 H 0.8436 0.7231 0.1426
C19_4 C 0.79754(19) 0.7296(2) 0.1033(2)
H13_4 H 0.7903 0.7559 0.1051
C21_4 C 0.78147(17) 0.70161(17) 0.07915(19)
H15_4 H 0.7615 0.7055 0.0609
C23_4 C 0.80063(14) 0.66620(18) 0.08703(18)
C25_4 C 0.79349(14) 0.63095(16) 0.07044(13)
C27_4 C 0.81356(12) 0.59678(15) 0.07790(13)
C29_4 C 0.80813(14) 0.5602(2) 0.06060(16)
H17_4 H 0.7883 0.5535 0.0430
C31_4 C 0.83707(17) 0.53578(16) 0.07395(15)
H19_4 H 0.8413 0.5096 0.0673
C33_4 C 0.85850(15) 0.55868(13) 0.09951(16)
H21_4 H 0.8799 0.5491 0.1136
C35_4 C 0.76102(16) 0.62866(18) 0.04199(15)
C37_4 C 0.72576(18) 0.6148(3) 0.05271(18)
H23_4 H 0.7220 0.6084 0.0790
C39_4 C 0.69724(19) 0.6098(3) 0.0294(2)
H25_4 H 0.6737 0.5990 0.0381
C45_4 C 0.7666(2) 0.6390(2) 0.00453(19)
H33_4 H 0.813452 0.637719 0.0472496
Ag1_3 Ag 0.60308(4) 0.60308(4) 0.89692(4)
N3_3 N 0.6093(2) 0.5593(2) 0.8529(2)
C1_4 C 0.71072(19) 0.3752(2) 0.67312(17)
H1_4 H 0.7231 0.3574 0.6564
C2_4 C 0.7296(2) 0.3967(2) 0.70246(19)
H2_4 H 0.7559 0.3949 0.7097
C3_4 C 0.70161(17) 0.42085(19) 0.71853(17)
H3_4 H 0.7055 0.4391 0.7385
C4_4 C 0.66620(18) 0.41297(18) 0.69937(14)
C5_4 C 0.63095(16) 0.42956(13) 0.70651(14)
C6_4 C 0.59678(15) 0.42210(13) 0.68644(12)
C7_4 C 0.5602(2) 0.43940(16) 0.69187(14)
H4_4 H 0.5535 0.4570 0.7117
C8_4 C 0.53578(16) 0.42605(15) 0.66293(17)
H5_4 H 0.5096 0.4327 0.6587
C9_4 C 0.55868(13) 0.40049(16) 0.64150(15)
H6_4 H 0.5491 0.3864 0.6201
C10_4 C 0.62866(18) 0.45801(15) 0.73898(16)
C11_4 C 0.6148(3) 0.44729(18) 0.77424(18)
H7_4 H 0.6084 0.4210 0.7780
C12_4 C 0.6098(3) 0.4706(2) 0.80276(19)
H8_4 H 0.5990 0.4619 0.8263
C13_3 C 0.6210(2) 0.51031(17) 0.7981(2)
C14_3 C 0.6347(2) 0.52248(17) 0.7635(2)
H9_3 H 0.6413 0.5487 0.7597
C15_4 C 0.6390(2) 0.49547(19) 0.7334(2)
H10_3 H 0.6491 0.5034 0.7093
C16_3 C 0.6158(2) 0.5374(2) 0.8279(2)
N12_3 N 0.6471(2) 0.6093(2) 0.9407(2)
N13_3 N 0.5593(2) 0.6471(2) 0.8907(2)
C18_4 C 0.3752(2) 0.82688(17) 0.78928(19)
H12_4 H 0.3574 0.8436 0.7769
C20_4 C 0.3967(2) 0.79754(19) 0.7704(2)
H14_4 H 0.3949 0.7903 0.7441
C22_4 C 0.42085(19) 0.78147(17) 0.79839(17)
H16_4 H 0.4391 0.7615 0.7945
C24_4 C 0.41297(18) 0.80063(14) 0.83380(18)
C26_4 C 0.42956(13) 0.79349(14) 0.86905(16)
C28_4 C 0.42210(13) 0.81356(12) 0.90322(15)
C30_4 C 0.43940(16) 0.80813(14) 0.9398(2)
H18_4 H 0.4570 0.7883 0.9465
C32_4 C 0.42605(15) 0.83707(17) 0.96422(16)
H20_4 H 0.4327 0.8413 0.9904
C34_4 C 0.40049(16) 0.85850(15) 0.94132(13)
H22_4 H 0.3864 0.8799 0.9509
C36_4 C 0.45801(15) 0.76102(16) 0.87134(18)
C38_4 C 0.44729(18) 0.72576(18) 0.8852(3)
H24_4 H 0.4210 0.7220 0.8916
C40_4 C 0.4706(2) 0.69724(19) 0.8902(3)
H26_4 H 0.4619 0.6737 0.9010
C41_3 C 0.7019(2) 0.6210(2) 0.98969(17)
C42_3 C 0.51031(17) 0.7019(2) 0.8790(2)
C43_3 C 0.7365(2) 0.6347(2) 0.97752(17)
C44_3 C 0.52248(17) 0.7365(2) 0.8653(2)
H27_3 H 0.7403 0.6413 0.9513
H28_3 H 0.5487 0.7403 0.8587
C46_4 C 0.49547(19) 0.7666(2) 0.8610(2)
H29_3 H 0.7907 0.6491 0.9966
H30_3 H 0.5034 0.7907 0.8509
C47_3 C 0.6721(2) 0.6158(2) 0.9626(2)
C48_3 C 0.5374(2) 0.6721(2) 0.8842(2)
H31_4 H 0.637719 0.45275 0.686548
H32_4 H 0.45275 0.813452 0.862281
Ag1_4 Ag 0.10308(4) 0.89692(4) 0.10308(4)
N3_4 N 0.1093(2) 0.9407(2) 0.1471(2)
C13_4 C 0.1210(2) 0.98969(17) 0.2019(2)
C14_4 C 0.1347(2) 0.97752(17) 0.2365(2)
H9_4 H 0.1413 0.9513 0.2403
H10_4 H 0.1491 0.9966 0.2907
C16_4 C 0.1158(2) 0.9626(2) 0.1721(2)
N12_4 N 0.1471(2) 0.8907(2) 0.0593(2)
N13_4 N 0.0593(2) 0.8529(2) 0.1093(2)
C41_4 C 0.2019(2) 0.8790(2) 0.01031(17)
C42_4 C 0.01031(17) 0.7981(2) 0.1210(2)
C43_4 C 0.2365(2) 0.8653(2) 0.02248(17)
C44_4 C 0.02248(17) 0.7635(2) 0.1347(2)
H27_4 H 0.2403 0.8587 0.0487
H28_4 H 0.0487 0.7597 0.1413
H29_4 H 0.2907 0.8509 0.0034
H30_4 H 0.0034 0.7093 0.1491
C47_4 C 0.1721(2) 0.8842(2) 0.0374(2)
C48_4 C 0.0374(2) 0.8279(2) 0.1158(2)
Ag1_5 Ag 0.10308(4) 0.10308(4) 0.10308(4)
N3_5 N 0.0593(2) 0.1093(2) 0.1471(2)
C13_5 C 0.01031(17) 0.1210(2) 0.2019(2)
C14_5 C 0.02248(17) 0.1347(2) 0.2365(2)
H9_5 H 0.0487 0.1413 0.2403
H10_5 H 0.0034 0.1491 0.2907
C16_5 C 0.0374(2) 0.1158(2) 0.1721(2)
N12_5 N 0.1093(2) 0.1471(2) 0.0593(2)
N13_5 N 0.1471(2) 0.0593(2) 0.1093(2)
C41_5 C 0.1210(2) 0.2019(2) 0.01031(17)
C42_5 C 0.2019(2) 0.01031(17) 0.1210(2)
C43_5 C 0.1347(2) 0.2365(2) 0.02248(17)
C44_5 C 0.2365(2) 0.02248(17) 0.1347(2)
H27_5 H 0.1413 0.2403 0.0487
H28_5 H 0.2403 0.0487 0.1413
H29_5 H 0.1491 0.2907 0.0034
H30_5 H 0.2907 0.0034 0.1491
C47_5 C 0.1158(2) 0.1721(2) 0.0374(2)
C48_5 C 0.1721(2) 0.0374(2) 0.1158(2)
Co2_3 Co 0.135390(16) 0.364610(16) 0.864610(16)
N4_3 N 0.17260(15) 0.32770(15) 0.88377(12)
N8_3 N 0.09496(13) 0.34622(11) 0.89775(11)
C17_5 C 0.21072(19) 0.32688(17) 0.8752(2)
H11_5 H 0.2231 0.3436 0.8574
C19_5 C 0.2296(2) 0.29754(19) 0.8967(2)
H13_5 H 0.2559 0.2903 0.8949
C21_5 C 0.20161(17) 0.28147(17) 0.92085(19)
H15_5 H 0.2055 0.2615 0.9391
C23_5 C 0.16620(18) 0.30063(14) 0.91297(18)
C25_5 C 0.13095(16) 0.29349(14) 0.92956(13)
C27_5 C 0.09678(15) 0.31356(12) 0.92210(13)
C29_5 C 0.0602(2) 0.30813(14) 0.93940(16)
H17_5 H 0.0535 0.2883 0.9570
C31_5 C 0.03578(16) 0.33707(17) 0.92605(15)
H19_5 H 0.0096 0.3413 0.9327
C33_5 C 0.05868(13) 0.35850(15) 0.90049(16)
H21_5 H 0.0491 0.3799 0.8864
C35_5 C 0.12866(18) 0.26102(16) 0.95801(15)
C37_5 C 0.1148(3) 0.22576(18) 0.94729(18)
H23_5 H 0.1084 0.2220 0.9210
C39_5 C 0.1098(3) 0.19724(19) 0.9706(2)
H25_5 H 0.0990 0.1737 0.9619
C45_5 C 0.1390(2) 0.2666(2) 0.99547(19)
H33_5 H 0.137719 0.313452 0.95275
Co3_2 Co 0.364610(16) 0.864610(16) 0.135390(16)
N5_2 N 0.32770(15) 0.88377(12) 0.17260(15)
N9_2 N 0.34622(11) 0.89775(11) 0.09496(13)
C18_5 C 0.32688(17) 0.8752(2) 0.21072(19)
H12_5 H 0.3436 0.8574 0.2231
C20_5 C 0.29754(19) 0.8967(2) 0.2296(2)
H14_5 H 0.2903 0.8949 0.2559
C22_5 C 0.28147(17) 0.92085(19) 0.20161(17)
H16_5 H 0.2615 0.9391 0.2055
C24_5 C 0.30063(14) 0.91297(18) 0.16620(18)
C26_5 C 0.29349(14) 0.92956(13) 0.13095(16)
C28_5 C 0.31356(12) 0.92210(13) 0.09678(15)
C30_5 C 0.30813(14) 0.93940(16) 0.0602(2)
H18_5 H 0.2883 0.9570 0.0535
C32_5 C 0.33707(17) 0.92605(15) 0.03578(16)
H20_5 H 0.3413 0.9327 0.0096
C34_5 C 0.35850(15) 0.90049(16) 0.05868(13)
H22_5 H 0.3799 0.8864 0.0491
C36_5 C 0.26102(16) 0.95801(15) 0.12866(18)
C38_5 C 0.22576(18) 0.94729(18) 0.1148(3)
H24_5 H 0.2220 0.9210 0.1084
C40_5 C 0.19724(19) 0.9706(2) 0.1098(3)
H26_5 H 0.1737 0.9619 0.0990
C46_5 C 0.2666(2) 0.99547(19) 0.1390(2)
H32_5 H 0.313452 0.95275 0.137719
Co1_2 Co 0.864610(16) 0.135390(16) 0.364610(16)
N1_2 N 0.88377(12) 0.17260(15) 0.32770(15)
N2_2 N 0.89775(11) 0.09496(13) 0.34622(11)
C1_5 C 0.8752(2) 0.21072(19) 0.32688(17)
H1_5 H 0.8574 0.2231 0.3436
C2_5 C 0.8967(2) 0.2296(2) 0.29754(19)
H2_5 H 0.8949 0.2559 0.2903
C3_5 C 0.92085(19) 0.20161(17) 0.28147(17)
H3_5 H 0.9391 0.2055 0.2615
C4_5 C 0.91297(18) 0.16620(18) 0.30063(14)
C5_5 C 0.92956(13) 0.13095(16) 0.29349(14)
C6_5 C 0.92210(13) 0.09678(15) 0.31356(12)
C7_5 C 0.93940(16) 0.0602(2) 0.30813(14)
H4_5 H 0.9570 0.0535 0.2883
C8_5 C 0.92605(15) 0.03578(16) 0.33707(17)
H5_5 H 0.9327 0.0096 0.3413
C9_5 C 0.90049(16) 0.05868(13) 0.35850(15)
H6_5 H 0.8864 0.0491 0.3799
C10_5 C 0.95801(15) 0.12866(18) 0.26102(16)
C11_5 C 0.94729(18) 0.1148(3) 0.22576(18)
H7_5 H 0.9210 0.1084 0.2220
C12_5 C 0.9706(2) 0.1098(3) 0.19724(19)
H8_5 H 0.9619 0.0990 0.1737
C15_5 C 0.99547(19) 0.1390(2) 0.2666(2)
N6_5 N 0.82770(15) 0.11623(12) 0.32740(15)
N7_5 N 0.82740(15) 0.17230(15) 0.38377(12)
N10_5 N 0.84622(11) 0.10225(11) 0.40504(13)
N11_5 N 0.90504(13) 0.15378(11) 0.39775(11)
H31_5 H 0.95275 0.137719 0.313452
N6_6 N 0.11623(12) 0.32740(15) 0.82770(15)
N7_6 N 0.17230(15) 0.38377(12) 0.82740(15)
N10_6 N 0.10225(11) 0.40504(13) 0.84622(11)
N11_6 N 0.15378(11) 0.39775(11) 0.90504(13)
N6_7 N 0.32740(15) 0.82770(15) 0.11623(12)
N7_7 N 0.38377(12) 0.82740(15) 0.17230(15)
N10_7 N 0.40504(13) 0.84622(11) 0.10225(11)
N11_7 N 0.39775(11) 0.90504(13) 0.15378(11)
C1_6 C 0.1248(2) 0.28928(19) 0.82688(17)
H1_6 H 0.1426 0.2769 0.8436
C2_6 C 0.1033(2) 0.2704(2) 0.79754(19)
H2_6 H 0.1051 0.2441 0.7903
C3_6 C 0.07915(19) 0.29839(17) 0.78147(17)
H3_6 H 0.0609 0.2945 0.7615
C4_6 C 0.08703(18) 0.33380(18) 0.80063(14)
C5_6 C 0.07044(13) 0.36905(16) 0.79349(14)
C6_6 C 0.07790(13) 0.40322(15) 0.81356(12)
C7_6 C 0.06060(16) 0.4398(2) 0.80813(14)
H4_6 H 0.0430 0.4465 0.7883
C8_6 C 0.07395(15) 0.46422(16) 0.83707(17)
H5_6 H 0.0673 0.4904 0.8413
C9_6 C 0.09951(16) 0.44132(13) 0.85850(15)
H6_6 H 0.1136 0.4509 0.8799
C10_6 C 0.04199(15) 0.37134(18) 0.76102(16)
C11_6 C 0.05271(18) 0.3852(3) 0.72576(18)
H7_6 H 0.0790 0.3916 0.7220
C12_6 C 0.0294(2) 0.3902(3) 0.69724(19)
H8_6 H 0.0381 0.4010 0.6737
C15_6 C 0.00453(19) 0.3610(2) 0.7666(2)
H31_6 H 0.0472496 0.362281 0.813452
Ag1_6 Ag 0.89692(4) 0.39692(4) 0.60308(4)
N3_6 N 0.9407(2) 0.3907(2) 0.6471(2)
C13_6 C 0.98969(17) 0.3790(2) 0.7019(2)
C14_6 C 0.97752(17) 0.3653(2) 0.7365(2)
H9_6 H 0.9513 0.3587 0.7403
H10_6 H 0.9966 0.3509 0.7907
C16_6 C 0.9626(2) 0.3842(2) 0.6721(2)
Co3_3 Co 0.635390(16) 0.635390(16) 0.635390(16)
N5_3 N 0.67230(15) 0.61623(12) 0.67260(15)
N9_3 N 0.65378(11) 0.60225(11) 0.59496(13)
N12_6 N 0.8907(2) 0.3529(2) 0.5593(2)
N13_6 N 0.8529(2) 0.4407(2) 0.6093(2)
C17_6 C 0.78928(19) 0.17312(17) 0.3752(2)
C18_6 C 0.67312(17) 0.6248(2) 0.71072(19)
H11_6 H 0.7769 0.1564 0.3574
H12_6 H 0.6564 0.6426 0.7231
C19_6 C 0.7704(2) 0.20246(19) 0.3967(2)
C20_6 C 0.70246(19) 0.6033(2) 0.7296(2)
H13_6 H 0.7441 0.2097 0.3949
H14_6 H 0.7097 0.6051 0.7559
C21_6 C 0.79839(17) 0.21853(17) 0.42085(19)
C22_6 C 0.71853(17) 0.57915(19) 0.70161(17)
H15_6 H 0.7945 0.2385 0.4391
H16_6 H 0.7385 0.5609 0.7055
C23_6 C 0.83380(18) 0.19937(14) 0.41297(18)
C24_6 C 0.69937(14) 0.58703(18) 0.66620(18)
C25_6 C 0.86905(16) 0.20651(14) 0.42956(13)
C26_6 C 0.70651(14) 0.57044(13) 0.63095(16)
C27_6 C 0.90322(15) 0.18644(12) 0.42210(13)
C28_6 C 0.68644(12) 0.57790(13) 0.59678(15)
C29_6 C 0.9398(2) 0.19187(14) 0.43940(16)
C30_6 C 0.69187(14) 0.56060(16) 0.5602(2)
H17_6 H 0.9465 0.2117 0.4570
H18_6 H 0.7117 0.5430 0.5535
C31_6 C 0.96422(16) 0.16293(17) 0.42605(15)
C32_6 C 0.66293(17) 0.57395(15) 0.53578(16)
H19_6 H 0.9904 0.1587 0.4327
H20_6 H 0.6587 0.5673 0.5096
C33_6 C 0.94132(13) 0.14150(15) 0.40049(16)
C34_6 C 0.64150(15) 0.59951(16) 0.55868(13)
H21_6 H 0.9509 0.1201 0.3864
H22_6 H 0.6201 0.6136 0.5491
C35_6 C 0.87134(18) 0.23898(16) 0.45801(15)
C36_6 C 0.73898(16) 0.54199(15) 0.62866(18)
C37_6 C 0.8852(3) 0.27424(18) 0.44729(18)
C38_6 C 0.77424(18) 0.55271(18) 0.6148(3)
H23_6 H 0.8916 0.2780 0.4210
H24_6 H 0.7780 0.5790 0.6084
C39_6 C 0.8902(3) 0.30276(19) 0.4706(2)
C40_6 C 0.80276(19) 0.5294(2) 0.6098(3)
H25_6 H 0.9010 0.3263 0.4619
H26_6 H 0.8263 0.5381 0.5990
C41_6 C 0.8790(2) 0.2981(2) 0.51031(17)
C42_6 C 0.7981(2) 0.48969(17) 0.6210(2)
C43_6 C 0.8653(2) 0.2635(2) 0.52248(17)
C44_6 C 0.7635(2) 0.47752(17) 0.6347(2)
H27_6 H 0.8587 0.2597 0.5487
H28_6 H 0.7597 0.4513 0.6413
C45_6 C 0.8610(2) 0.2334(2) 0.49547(19)
C46_6 C 0.7334(2) 0.50453(19) 0.6390(2)
H29_6 H 0.8509 0.2093 0.5034
H30_6 H 0.7093 0.4966 0.6491
C47_6 C 0.8842(2) 0.3279(2) 0.5374(2)
C48_6 C 0.8279(2) 0.4626(2) 0.6158(2)
H32_6 H 0.686548 0.54725 0.637719
H33_6 H 0.862281 0.186548 0.45275
N6_8 N 0.67260(15) 0.67230(15) 0.61623(12)
N7_8 N 0.61623(12) 0.67260(15) 0.67230(15)
N10_8 N 0.59496(13) 0.65378(11) 0.60225(11)
N11_8 N 0.60225(11) 0.59496(13) 0.65378(11)
C18_7 C 0.82688(17) 0.1248(2) 0.28928(19)
H12_7 H 0.8436 0.1426 0.2769
C20_7 C 0.79754(19) 0.1033(2) 0.2704(2)
H14_7 H 0.7903 0.1051 0.2441
C22_7 C 0.78147(17) 0.07915(19) 0.29839(17)
H16_7 H 0.7615 0.0609 0.2945
C24_7 C 0.80063(14) 0.08703(18) 0.33380(18)
C26_7 C 0.79349(14) 0.07044(13) 0.36905(16)
C28_7 C 0.81356(12) 0.07790(13) 0.40322(15)
C30_7 C 0.80813(14) 0.06060(16) 0.4398(2)
H18_7 H 0.7883 0.0430 0.4465
C32_7 C 0.83707(17) 0.07395(15) 0.46422(16)
H20_7 H 0.8413 0.0673 0.4904
C34_7 C 0.85850(15) 0.09951(16) 0.44132(13)
H22_7 H 0.8799 0.1136 0.4509
C36_7 C 0.76102(16) 0.04199(15) 0.37134(18)
C38_7 C 0.72576(18) 0.05271(18) 0.3852(3)
H24_7 H 0.7220 0.0790 0.3916
C40_7 C 0.69724(19) 0.0294(2) 0.3902(3)
H26_7 H 0.6737 0.0381 0.4010
C46_7 C 0.7666(2) 0.00453(19) 0.3610(2)
H32_7 H 0.813452 0.0472496 0.362281
Ag1_7 Ag 0.60308(4) 0.89692(4) 0.39692(4)
N3_7 N 0.5593(2) 0.8907(2) 0.3529(2)
C1_7 C 0.3752(2) 0.78928(19) 0.17312(17)
H1_7 H 0.3574 0.7769 0.1564
C2_7 C 0.3967(2) 0.7704(2) 0.20246(19)
H2_7 H 0.3949 0.7441 0.2097
C3_7 C 0.42085(19) 0.79839(17) 0.21853(17)
H3_7 H 0.4391 0.7945 0.2385
C4_7 C 0.41297(18) 0.83380(18) 0.19937(14)
C5_7 C 0.42956(13) 0.86905(16) 0.20651(14)
C6_7 C 0.42210(13) 0.90322(15) 0.18644(12)
C7_7 C 0.43940(16) 0.9398(2) 0.19187(14)
H4_7 H 0.4570 0.9465 0.2117
C8_7 C 0.42605(15) 0.96422(16) 0.16293(17)
H5_7 H 0.4327 0.9904 0.1587
C9_7 C 0.40049(16) 0.94132(13) 0.14150(15)
H6_7 H 0.3864 0.9509 0.1201
C10_7 C 0.45801(15) 0.87134(18) 0.23898(16)
C11_7 C 0.44729(18) 0.8852(3) 0.27424(18)
H7_7 H 0.4210 0.8916 0.2780
C12_7 C 0.4706(2) 0.8902(3) 0.30276(19)
H8_7 H 0.4619 0.9010 0.3263
C13_7 C 0.51031(17) 0.8790(2) 0.2981(2)
C14_7 C 0.52248(17) 0.8653(2) 0.2635(2)
H9_7 H 0.5487 0.8587 0.2597
C15_7 C 0.49547(19) 0.8610(2) 0.2334(2)
H10_7 H 0.5034 0.8509 0.2093
C16_7 C 0.5374(2) 0.8842(2) 0.3279(2)
N12_7 N 0.6093(2) 0.8529(2) 0.4407(2)
N13_7 N 0.6471(2) 0.9407(2) 0.3907(2)
C17_7 C 0.71072(19) 0.67312(17) 0.6248(2)
H11_7 H 0.7231 0.6564 0.6426
C19_7 C 0.7296(2) 0.70246(19) 0.6033(2)
H13_7 H 0.7559 0.7097 0.6051
C21_7 C 0.70161(17) 0.71853(17) 0.57915(19)
H15_7 H 0.7055 0.7385 0.5609
C23_7 C 0.66620(18) 0.69937(14) 0.58703(18)
C25_7 C 0.63095(16) 0.70651(14) 0.57044(13)
C27_7 C 0.59678(15) 0.68644(12) 0.57790(13)
C29_7 C 0.5602(2) 0.69187(14) 0.56060(16)
H17_7 H 0.5535 0.7117 0.5430
C31_7 C 0.53578(16) 0.66293(17) 0.57395(15)
H19_7 H 0.5096 0.6587 0.5673
C33_7 C 0.55868(13) 0.64150(15) 0.59951(16)
H21_7 H 0.5491 0.6201 0.6136
C35_7 C 0.62866(18) 0.73898(16) 0.54199(15)
C37_7 C 0.6148(3) 0.77424(18) 0.55271(18)
H23_7 H 0.6084 0.7780 0.5790
C39_7 C 0.6098(3) 0.80276(19) 0.5294(2)
H25_7 H 0.5990 0.8263 0.5381
C41_7 C 0.6210(2) 0.7981(2) 0.48969(17)
C42_7 C 0.7019(2) 0.98969(17) 0.3790(2)
C43_7 C 0.6347(2) 0.7635(2) 0.47752(17)
C44_7 C 0.7365(2) 0.97752(17) 0.3653(2)
H27_7 H 0.6413 0.7597 0.4513
H28_7 H 0.7403 0.9513 0.3587
C45_7 C 0.6390(2) 0.7334(2) 0.50453(19)
H29_7 H 0.6491 0.7093 0.4966
H30_7 H 0.7907 0.9966 0.3509
C47_7 C 0.6158(2) 0.8279(2) 0.4626(2)
C48_7 C 0.6721(2) 0.9626(2) 0.3842(2)
H31_7 H 0.45275 0.862281 0.186548
H33_7 H 0.637719 0.686548 0.54725
C17_8 C 0.28928(19) 0.82688(17) 0.1248(2)
H11_8 H 0.2769 0.8436 0.1426
C19_8 C 0.2704(2) 0.79754(19) 0.1033(2)
H13_8 H 0.2441 0.7903 0.1051
C21_8 C 0.29839(17) 0.78147(17) 0.07915(19)
H15_8 H 0.2945 0.7615 0.0609
C23_8 C 0.33380(18) 0.80063(14) 0.08703(18)
C25_8 C 0.36905(16) 0.79349(14) 0.07044(13)
C27_8 C 0.40322(15) 0.81356(12) 0.07790(13)
C29_8 C 0.4398(2) 0.80813(14) 0.06060(16)
H17_8 H 0.4465 0.7883 0.0430
C31_8 C 0.46422(16) 0.83707(17) 0.07395(15)
H19_8 H 0.4904 0.8413 0.0673
C33_8 C 0.44132(13) 0.85850(15) 0.09951(16)
H21_8 H 0.4509 0.8799 0.1136
C35_8 C 0.37134(18) 0.76102(16) 0.04199(15)
C37_8 C 0.3852(3) 0.72576(18) 0.05271(18)
H23_8 H 0.3916 0.7220 0.0790
C39_8 C 0.3902(3) 0.69724(19) 0.0294(2)
H25_8 H 0.4010 0.6737 0.0381
C45_8 C 0.3610(2) 0.7666(2) 0.00453(19)
H33_8 H 0.362281 0.813452 0.0472496
Ag1_8 Ag 0.39692(4) 0.60308(4) 0.89692(4)
N3_8 N 0.4407(2) 0.6093(2) 0.8529(2)
C1_8 C 0.6248(2) 0.71072(19) 0.67312(17)
H1_8 H 0.6426 0.7231 0.6564
C2_8 C 0.6033(2) 0.7296(2) 0.70246(19)
H2_8 H 0.6051 0.7559 0.7097
C3_8 C 0.57915(19) 0.70161(17) 0.71853(17)
H3_8 H 0.5609 0.7055 0.7385
C4_8 C 0.58703(18) 0.66620(18) 0.69937(14)
C5_8 C 0.57044(13) 0.63095(16) 0.70651(14)
C6_8 C 0.57790(13) 0.59678(15) 0.68644(12)
C7_8 C 0.56060(16) 0.5602(2) 0.69187(14)
H4_8 H 0.5430 0.5535 0.7117
C8_8 C 0.57395(15) 0.53578(16) 0.66293(17)
H5_8 H 0.5673 0.5096 0.6587
C9_8 C 0.59951(16) 0.55868(13) 0.64150(15)
H6_8 H 0.6136 0.5491 0.6201
C10_8 C 0.54199(15) 0.62866(18) 0.73898(16)
C11_8 C 0.55271(18) 0.6148(3) 0.77424(18)
H7_8 H 0.5790 0.6084 0.7780
C12_8 C 0.5294(2) 0.6098(3) 0.80276(19)
H8_8 H 0.5381 0.5990 0.8263
C13_8 C 0.48969(17) 0.6210(2) 0.7981(2)
C14_8 C 0.47752(17) 0.6347(2) 0.7635(2)
H9_8 H 0.4513 0.6413 0.7597
C15_8 C 0.50453(19) 0.6390(2) 0.7334(2)
H10_8 H 0.4966 0.6491 0.7093
C16_8 C 0.4626(2) 0.6158(2) 0.8279(2)
N12_8 N 0.3907(2) 0.6471(2) 0.9407(2)
N13_8 N 0.3529(2) 0.5593(2) 0.8907(2)
C18_8 C 0.17312(17) 0.3752(2) 0.78928(19)
H12_8 H 0.1564 0.3574 0.7769
C20_8 C 0.20246(19) 0.3967(2) 0.7704(2)
H14_8 H 0.2097 0.3949 0.7441
C22_8 C 0.21853(17) 0.42085(19) 0.79839(17)
H16_8 H 0.2385 0.4391 0.7945
C24_8 C 0.19937(14) 0.41297(18) 0.83380(18)
C26_8 C 0.20651(14) 0.42956(13) 0.86905(16)
C28_8 C 0.18644(12) 0.42210(13) 0.90322(15)
C30_8 C 0.19187(14) 0.43940(16) 0.9398(2)
H18_8 H 0.2117 0.4570 0.9465
C32_8 C 0.16293(17) 0.42605(15) 0.96422(16)
H20_8 H 0.1587 0.4327 0.9904
C34_8 C 0.14150(15) 0.40049(16) 0.94132(13)
H22_8 H 0.1201 0.3864 0.9509
C36_8 C 0.23898(16) 0.45801(15) 0.87134(18)
C38_8 C 0.27424(18) 0.44729(18) 0.8852(3)
H24_8 H 0.2780 0.4210 0.8916
C40_8 C 0.30276(19) 0.4706(2) 0.8902(3)
H26_8 H 0.3263 0.4619 0.9010
C41_8 C 0.3790(2) 0.7019(2) 0.98969(17)
C42_8 C 0.2981(2) 0.51031(17) 0.8790(2)
C43_8 C 0.3653(2) 0.7365(2) 0.97752(17)
C44_8 C 0.2635(2) 0.52248(17) 0.8653(2)
H27_8 H 0.3587 0.7403 0.9513
H28_8 H 0.2597 0.5487 0.8587
C46_8 C 0.2334(2) 0.49547(19) 0.8610(2)
H29_8 H 0.3509 0.7907 0.9966
H30_8 H 0.2093 0.5034 0.8509
C47_8 C 0.3842(2) 0.6721(2) 0.9626(2)
C48_8 C 0.3279(2) 0.5374(2) 0.8842(2)
H31_8 H 0.54725 0.637719 0.686548
H32_8 H 0.186548 0.45275 0.862281
Co3_4 Co 0.135390(16) 0.364610(16) 0.135390(16)
N5_4 N 0.11623(12) 0.32770(15) 0.17260(15)
N9_4 N 0.10225(11) 0.34622(11) 0.09496(13)
C18_9 C 0.1248(2) 0.32688(17) 0.21072(19)
H12_9 H 0.1426 0.3436 0.2231
C20_9 C 0.1033(2) 0.29754(19) 0.2296(2)
H14_9 H 0.1051 0.2903 0.2559
C22_9 C 0.07915(19) 0.28147(17) 0.20161(17)
H16_9 H 0.0609 0.2615 0.2055
C24_9 C 0.08703(18) 0.30063(14) 0.16620(18)
C26_9 C 0.07044(13) 0.29349(14) 0.13095(16)
C28_9 C 0.07790(13) 0.31356(12) 0.09678(15)
C30_9 C 0.06060(16) 0.30813(14) 0.0602(2)
H18_9 H 0.0430 0.2883 0.0535
C32_9 C 0.07395(15) 0.33707(17) 0.03578(16)
H20_9 H 0.0673 0.3413 0.0096
C34_9 C 0.09951(16) 0.35850(15) 0.05868(13)
H22_9 H 0.1136 0.3799 0.0491
C36_9 C 0.04199(15) 0.26102(16) 0.12866(18)
C38_9 C 0.05271(18) 0.22576(18) 0.1148(3)
H24_9 H 0.0790 0.2220 0.1084
C40_9 C 0.0294(2) 0.19724(19) 0.1098(3)
H26_9 H 0.0381 0.1737 0.0990
C46_9 C 0.00453(19) 0.2666(2) 0.1390(2)
H32_9 H 0.0472496 0.313452 0.137719
Co2_4 Co 0.635390(16) 0.135390(16) 0.864610(16)
N4_4 N 0.67230(15) 0.17260(15) 0.88377(12)
N8_4 N 0.65378(11) 0.09496(13) 0.89775(11)
C17_9 C 0.67312(17) 0.21072(19) 0.8752(2)
H11_9 H 0.6564 0.2231 0.8574
C19_9 C 0.70246(19) 0.2296(2) 0.8967(2)
H13_9 H 0.7097 0.2559 0.8949
C21_9 C 0.71853(17) 0.20161(17) 0.92085(19)
H15_9 H 0.7385 0.2055 0.9391
C23_9 C 0.69937(14) 0.16620(18) 0.91297(18)
C25_9 C 0.70651(14) 0.13095(16) 0.92956(13)
C27_9 C 0.68644(12) 0.09678(15) 0.92210(13)
C29_9 C 0.69187(14) 0.0602(2) 0.93940(16)
H17_9 H 0.7117 0.0535 0.9570
C31_9 C 0.66293(17) 0.03578(16) 0.92605(15)
H19_9 H 0.6587 0.0096 0.9327
C33_9 C 0.64150(15) 0.05868(13) 0.90049(16)
H21_9 H 0.6201 0.0491 0.8864
C35_9 C 0.73898(16) 0.12866(18) 0.95801(15)
C37_9 C 0.77424(18) 0.1148(3) 0.94729(18)
H23_9 H 0.7780 0.1084 0.9210
C39_9 C 0.80276(19) 0.1098(3) 0.9706(2)
H25_9 H 0.8263 0.0990 0.9619
C45_9 C 0.7334(2) 0.1390(2) 0.99547(19)
H33_9 H 0.686548 0.137719 0.95275
Co1_3 Co 0.864610(16) 0.864610(16) 0.364610(16)
N1_3 N 0.82740(15) 0.88377(12) 0.32770(15)
N2_3 N 0.90504(13) 0.89775(11) 0.34622(11)
C1_9 C 0.78928(19) 0.8752(2) 0.32688(17)
H1_9 H 0.7769 0.8574 0.3436
C2_9 C 0.7704(2) 0.8967(2) 0.29754(19)
H2_9 H 0.7441 0.8949 0.2903
C3_9 C 0.79839(17) 0.92085(19) 0.28147(17)
H3_9 H 0.7945 0.9391 0.2615
C4_9 C 0.83380(18) 0.91297(18) 0.30063(14)
C5_9 C 0.86905(16) 0.92956(13) 0.29349(14)
C6_9 C 0.90322(15) 0.92210(13) 0.31356(12)
C7_9 C 0.9398(2) 0.93940(16) 0.30813(14)
H4_9 H 0.9465 0.9570 0.2883
C8_9 C 0.96422(16) 0.92605(15) 0.33707(17)
H5_9 H 0.9904 0.9327 0.3413
C9_9 C 0.94132(13) 0.90049(16) 0.35850(15)
H6_9 H 0.9509 0.8864 0.3799
C10_9 C 0.87134(18) 0.95801(15) 0.26102(16)
C11_9 C 0.8852(3) 0.94729(18) 0.22576(18)
H7_9 H 0.8916 0.9210 0.2220
C12_9 C 0.8902(3) 0.9706(2) 0.19724(19)
H8_9 H 0.9010 0.9619 0.1737
C15_9 C 0.8610(2) 0.99547(19) 0.2666(2)
N6_9 N 0.88377(12) 0.82770(15) 0.32740(15)
N7_9 N 0.82770(15) 0.82740(15) 0.38377(12)
N10_9 N 0.89775(11) 0.84622(11) 0.40504(13)
N11_9 N 0.84622(11) 0.90504(13) 0.39775(11)
H31_9 H 0.862281 0.95275 0.313452
N6_10 N 0.67260(15) 0.11623(12) 0.82770(15)
N7_10 N 0.61623(12) 0.17230(15) 0.82740(15)
N10_10 N 0.59496(13) 0.10225(11) 0.84622(11)
N11_10 N 0.60225(11) 0.15378(11) 0.90504(13)
N6_11 N 0.17230(15) 0.32740(15) 0.11623(12)
N7_11 N 0.17260(15) 0.38377(12) 0.17230(15)
N10_11 N 0.15378(11) 0.40504(13) 0.10225(11)
N11_11 N 0.09496(13) 0.39775(11) 0.15378(11)
Ag1_9 Ag 0.10308(4) 0.60308(4) 0.39692(4)
N3_9 N 0.1093(2) 0.5593(2) 0.3529(2)
C1_10 C 0.21072(19) 0.3752(2) 0.17312(17)
H1_10 H 0.2231 0.3574 0.1564
C2_10 C 0.2296(2) 0.3967(2) 0.20246(19)
H2_10 H 0.2559 0.3949 0.2097
C3_10 C 0.20161(17) 0.42085(19) 0.21853(17)
H3_10 H 0.2055 0.4391 0.2385
C4_10 C 0.16620(18) 0.41297(18) 0.19937(14)
C5_10 C 0.13095(16) 0.42956(13) 0.20651(14)
C6_10 C 0.09678(15) 0.42210(13) 0.18644(12)
C7_10 C 0.0602(2) 0.43940(16) 0.19187(14)
H4_10 H 0.0535 0.4570 0.2117
C8_10 C 0.03578(16) 0.42605(15) 0.16293(17)
H5_10 H 0.0096 0.4327 0.1587
C9_10 C 0.05868(13) 0.40049(16) 0.14150(15)
H6_10 H 0.0491 0.3864 0.1201
C10_10 C 0.12866(18) 0.45801(15) 0.23898(16)
C11_10 C 0.1148(3) 0.44729(18) 0.27424(18)
H7_10 H 0.1084 0.4210 0.2780
C12_10 C 0.1098(3) 0.4706(2) 0.30276(19)
H8_10 H 0.0990 0.4619 0.3263
C13_9 C 0.1210(2) 0.51031(17) 0.2981(2)
C14_9 C 0.1347(2) 0.52248(17) 0.2635(2)
H9_9 H 0.1413 0.5487 0.2597
C15_10 C 0.1390(2) 0.49547(19) 0.2334(2)
H10_9 H 0.1491 0.5034 0.2093
C16_9 C 0.1158(2) 0.5374(2) 0.3279(2)
Co2_5 Co 0.364610(16) 0.635390(16) 0.635390(16)
N4_5 N 0.32770(15) 0.67260(15) 0.61623(12)
N8_5 N 0.34622(11) 0.59496(13) 0.60225(11)
N12_9 N 0.1471(2) 0.6093(2) 0.4407(2)
N13_9 N 0.0593(2) 0.6471(2) 0.3907(2)
C17_10 C 0.32688(17) 0.71072(19) 0.6248(2)
H11_10 H 0.3436 0.7231 0.6426
C19_10 C 0.29754(19) 0.7296(2) 0.6033(2)
H13_10 H 0.2903 0.7559 0.6051
C21_10 C 0.28147(17) 0.70161(17) 0.57915(19)
H15_10 H 0.2615 0.7055 0.5609
C23_10 C 0.30063(14) 0.66620(18) 0.58703(18)
C25_10 C 0.29349(14) 0.63095(16) 0.57044(13)
C27_10 C 0.31356(12) 0.59678(15) 0.57790(13)
C29_10 C 0.30813(14) 0.5602(2) 0.56060(16)
H17_10 H 0.2883 0.5535 0.5430
C31_10 C 0.33707(17) 0.53578(16) 0.57395(15)
H19_10 H 0.3413 0.5096 0.5673
C33_10 C 0.35850(15) 0.55868(13) 0.59951(16)
H21_10 H 0.3799 0.5491 0.6136
C35_10 C 0.26102(16) 0.62866(18) 0.54199(15)
C37_10 C 0.22576(18) 0.6148(3) 0.55271(18)
H23_10 H 0.2220 0.6084 0.5790
C39_10 C 0.19724(19) 0.6098(3) 0.5294(2)
H25_10 H 0.1737 0.5990 0.5381
C41_9 C 0.2019(2) 0.6210(2) 0.48969(17)
C42_9 C 0.01031(17) 0.7019(2) 0.3790(2)
C43_9 C 0.2365(2) 0.6347(2) 0.47752(17)
C44_9 C 0.02248(17) 0.7365(2) 0.3653(2)
H27_9 H 0.2403 0.6413 0.4513
H28_9 H 0.0487 0.7403 0.3587
C45_10 C 0.2666(2) 0.6390(2) 0.50453(19)
H29_9 H 0.2907 0.6491 0.4966
H30_9 H 0.0034 0.7907 0.3509
C47_9 C 0.1721(2) 0.6158(2) 0.4626(2)
C48_9 C 0.0374(2) 0.6721(2) 0.3842(2)
H31_10 H 0.137719 0.45275 0.186548
H33_10 H 0.313452 0.637719 0.54725
C18_10 C 0.8752(2) 0.82688(17) 0.28928(19)
H12_10 H 0.8574 0.8436 0.2769
C20_10 C 0.8967(2) 0.79754(19) 0.2704(2)
H14_10 H 0.8949 0.7903 0.2441
C22_10 C 0.92085(19) 0.78147(17) 0.29839(17)
H16_10 H 0.9391 0.7615 0.2945
C24_10 C 0.91297(18) 0.80063(14) 0.33380(18)
C26_10 C 0.92956(13) 0.79349(14) 0.36905(16)
C28_10 C 0.92210(13) 0.81356(12) 0.40322(15)
C30_10 C 0.93940(16) 0.80813(14) 0.4398(2)
H18_10 H 0.9570 0.7883 0.4465
C32_10 C 0.92605(15) 0.83707(17) 0.46422(16)
H20_10 H 0.9327 0.8413 0.4904
C34_10 C 0.90049(16) 0.85850(15) 0.44132(13)
H22_10 H 0.8864 0.8799 0.4509
C36_10 C 0.95801(15) 0.76102(16) 0.37134(18)
C38_10 C 0.94729(18) 0.72576(18) 0.3852(3)
H24_10 H 0.9210 0.7220 0.3916
C40_10 C 0.9706(2) 0.69724(19) 0.3902(3)
H26_10 H 0.9619 0.6737 0.4010
C46_10 C 0.99547(19) 0.7666(2) 0.3610(2)
H32_10 H 0.95275 0.813452 0.362281
N6_12 N 0.32740(15) 0.61623(12) 0.67230(15)
N7_12 N 0.38377(12) 0.67230(15) 0.67260(15)
N10_12 N 0.40504(13) 0.60225(11) 0.65378(11)
N11_12 N 0.39775(11) 0.65378(11) 0.59496(13)
C1_11 C 0.71072(19) 0.1248(2) 0.82688(17)
H1_11 H 0.7231 0.1426 0.8436
C2_11 C 0.7296(2) 0.1033(2) 0.79754(19)
H2_11 H 0.7559 0.1051 0.7903
C3_11 C 0.70161(17) 0.07915(19) 0.78147(17)
H3_11 H 0.7055 0.0609 0.7615
C4_11 C 0.66620(18) 0.08703(18) 0.80063(14)
C5_11 C 0.63095(16) 0.07044(13) 0.79349(14)
C6_11 C 0.59678(15) 0.07790(13) 0.81356(12)
C7_11 C 0.5602(2) 0.06060(16) 0.80813(14)
H4_11 H 0.5535 0.0430 0.7883
C8_11 C 0.53578(16) 0.07395(15) 0.83707(17)
H5_11 H 0.5096 0.0673 0.8413
C9_11 C 0.55868(13) 0.09951(16) 0.85850(15)
H6_11 H 0.5491 0.1136 0.8799
C10_11 C 0.62866(18) 0.04199(15) 0.76102(16)
C11_11 C 0.6148(3) 0.05271(18) 0.72576(18)
H7_11 H 0.6084 0.0790 0.7220
C12_11 C 0.6098(3) 0.0294(2) 0.69724(19)
H8_11 H 0.5990 0.0381 0.6737
C15_11 C 0.6390(2) 0.00453(19) 0.7666(2)
H31_11 H 0.637719 0.0472496 0.813452
Ag1_10 Ag 0.60308(4) 0.89692(4) 0.60308(4)
N3_10 N 0.6093(2) 0.9407(2) 0.6471(2)
C13_10 C 0.6210(2) 0.98969(17) 0.7019(2)
C14_10 C 0.6347(2) 0.97752(17) 0.7365(2)
H9_10 H 0.6413 0.9513 0.7403
H10_10 H 0.6491 0.9966 0.7907
C16_10 C 0.6158(2) 0.9626(2) 0.6721(2)
N12_10 N 0.6471(2) 0.8907(2) 0.5593(2)
N13_10 N 0.5593(2) 0.8529(2) 0.6093(2)
C17_11 C 0.82688(17) 0.78928(19) 0.3752(2)
C18_11 C 0.3752(2) 0.67312(17) 0.71072(19)
H11_11 H 0.8436 0.7769 0.3574
H12_11 H 0.3574 0.6564 0.7231
C19_11 C 0.79754(19) 0.7704(2) 0.3967(2)
C20_11 C 0.3967(2) 0.70246(19) 0.7296(2)
H13_11 H 0.7903 0.7441 0.3949
H14_11 H 0.3949 0.7097 0.7559
C21_11 C 0.78147(17) 0.79839(17) 0.42085(19)
C22_11 C 0.42085(19) 0.71853(17) 0.70161(17)
H15_11 H 0.7615 0.7945 0.4391
H16_11 H 0.4391 0.7385 0.7055
C23_11 C 0.80063(14) 0.83380(18) 0.41297(18)
C24_11 C 0.41297(18) 0.69937(14) 0.66620(18)
C25_11 C 0.79349(14) 0.86905(16) 0.42956(13)
C26_11 C 0.42956(13) 0.70651(14) 0.63095(16)
C27_11 C 0.81356(12) 0.90322(15) 0.42210(13)
C28_11 C 0.42210(13) 0.68644(12) 0.59678(15)
C29_11 C 0.80813(14) 0.9398(2) 0.43940(16)
C30_11 C 0.43940(16) 0.69187(14) 0.5602(2)
H17_11 H 0.7883 0.9465 0.4570
H18_11 H 0.4570 0.7117 0.5535
C31_11 C 0.83707(17) 0.96422(16) 0.42605(15)
C32_11 C 0.42605(15) 0.66293(17) 0.53578(16)
H19_11 H 0.8413 0.9904 0.4327
H20_11 H 0.4327 0.6587 0.5096
C33_11 C 0.85850(15) 0.94132(13) 0.40049(16)
C34_11 C 0.40049(16) 0.64150(15) 0.55868(13)
H21_11 H 0.8799 0.9509 0.3864
H22_11 H 0.3864 0.6201 0.5491
C35_11 C 0.76102(16) 0.87134(18) 0.45801(15)
C36_11 C 0.45801(15) 0.73898(16) 0.62866(18)
C37_11 C 0.72576(18) 0.8852(3) 0.44729(18)
C38_11 C 0.44729(18) 0.77424(18) 0.6148(3)
H23_11 H 0.7220 0.8916 0.4210
H24_11 H 0.4210 0.7780 0.6084
C39_11 C 0.69724(19) 0.8902(3) 0.4706(2)
C40_11 C 0.4706(2) 0.80276(19) 0.6098(3)
H25_11 H 0.6737 0.9010 0.4619
H26_11 H 0.4619 0.8263 0.5990
C41_10 C 0.7019(2) 0.8790(2) 0.51031(17)
C42_10 C 0.51031(17) 0.7981(2) 0.6210(2)
C43_10 C 0.7365(2) 0.8653(2) 0.52248(17)
C44_10 C 0.52248(17) 0.7635(2) 0.6347(2)
H27_10 H 0.7403 0.8587 0.5487
H28_10 H 0.5487 0.7597 0.6413
C45_11 C 0.7666(2) 0.8610(2) 0.49547(19)
C46_11 C 0.49547(19) 0.7334(2) 0.6390(2)
H29_10 H 0.7907 0.8509 0.5034
H30_10 H 0.5034 0.7093 0.6491
C47_10 C 0.6721(2) 0.8842(2) 0.5374(2)
C48_10 C 0.5374(2) 0.8279(2) 0.6158(2)
H32_11 H 0.45275 0.686548 0.637719
H33_11 H 0.813452 0.862281 0.45275
C17_12 C 0.17312(17) 0.28928(19) 0.1248(2)
H11_12 H 0.1564 0.2769 0.1426
C19_12 C 0.20246(19) 0.2704(2) 0.1033(2)
H13_12 H 0.2097 0.2441 0.1051
C21_12 C 0.21853(17) 0.29839(17) 0.07915(19)
H15_12 H 0.2385 0.2945 0.0609
C23_12 C 0.19937(14) 0.33380(18) 0.08703(18)
C25_12 C 0.20651(14) 0.36905(16) 0.07044(13)
C27_12 C 0.18644(12) 0.40322(15) 0.07790(13)
C29_12 C 0.19187(14) 0.4398(2) 0.06060(16)
H17_12 H 0.2117 0.4465 0.0430
C31_12 C 0.16293(17) 0.46422(16) 0.07395(15)
H19_12 H 0.1587 0.4904 0.0673
C33_12 C 0.14150(15) 0.44132(13) 0.09951(16)
H21_12 H 0.1201 0.4509 0.1136
C35_12 C 0.23898(16) 0.37134(18) 0.04199(15)
C37_12 C 0.27424(18) 0.3852(3) 0.05271(18)
H23_12 H 0.2780 0.3916 0.0790
C39_12 C 0.30276(19) 0.3902(3) 0.0294(2)
H25_12 H 0.3263 0.4010 0.0381
C45_12 C 0.2334(2) 0.3610(2) 0.00453(19)
H33_12 H 0.186548 0.362281 0.0472496
Ag1_11 Ag 0.39692(4) 0.39692(4) 0.89692(4)
N3_11 N 0.3907(2) 0.4407(2) 0.8529(2)
C1_12 C 0.28928(19) 0.6248(2) 0.67312(17)
H1_12 H 0.2769 0.6426 0.6564
C2_12 C 0.2704(2) 0.6033(2) 0.70246(19)
H2_12 H 0.2441 0.6051 0.7097
C3_12 C 0.29839(17) 0.57915(19) 0.71853(17)
H3_12 H 0.2945 0.5609 0.7385
C4_12 C 0.33380(18) 0.58703(18) 0.69937(14)
C5_12 C 0.36905(16) 0.57044(13) 0.70651(14)
C6_12 C 0.40322(15) 0.57790(13) 0.68644(12)
C7_12 C 0.4398(2) 0.56060(16) 0.69187(14)
H4_12 H 0.4465 0.5430 0.7117
C8_12 C 0.46422(16) 0.57395(15) 0.66293(17)
H5_12 H 0.4904 0.5673 0.6587
C9_12 C 0.44132(13) 0.59951(16) 0.64150(15)
H6_12 H 0.4509 0.6136 0.6201
C10_12 C 0.37134(18) 0.54199(15) 0.73898(16)
C11_12 C 0.3852(3) 0.55271(18) 0.77424(18)
H7_12 H 0.3916 0.5790 0.7780
C12_12 C 0.3902(3) 0.5294(2) 0.80276(19)
H8_12 H 0.4010 0.5381 0.8263
C13_11 C 0.3790(2) 0.48969(17) 0.7981(2)
C14_11 C 0.3653(2) 0.47752(17) 0.7635(2)
H9_11 H 0.3587 0.4513 0.7597
C15_12 C 0.3610(2) 0.50453(19) 0.7334(2)
H10_11 H 0.3509 0.4966 0.7093
C16_11 C 0.3842(2) 0.4626(2) 0.8279(2)
N12_11 N 0.3529(2) 0.3907(2) 0.9407(2)
N13_11 N 0.4407(2) 0.3529(2) 0.8907(2)
C18_12 C 0.6248(2) 0.17312(17) 0.78928(19)
H12_12 H 0.6426 0.1564 0.7769
C20_12 C 0.6033(2) 0.20246(19) 0.7704(2)
H14_12 H 0.6051 0.2097 0.7441
C22_12 C 0.57915(19) 0.21853(17) 0.79839(17)
H16_12 H 0.5609 0.2385 0.7945
C24_12 C 0.58703(18) 0.19937(14) 0.83380(18)
C26_12 C 0.57044(13) 0.20651(14) 0.86905(16)
C28_12 C 0.57790(13) 0.18644(12) 0.90322(15)
C30_12 C 0.56060(16) 0.19187(14) 0.9398(2)
H18_12 H 0.5430 0.2117 0.9465
C32_12 C 0.57395(15) 0.16293(17) 0.96422(16)
H20_12 H 0.5673 0.1587 0.9904
C34_12 C 0.59951(16) 0.14150(15) 0.94132(13)
H22_12 H 0.6136 0.1201 0.9509
C36_12 C 0.54199(15) 0.23898(16) 0.87134(18)
C38_12 C 0.55271(18) 0.27424(18) 0.8852(3)
H24_12 H 0.5790 0.2780 0.8916
C40_12 C 0.5294(2) 0.30276(19) 0.8902(3)
H26_12 H 0.5381 0.3263 0.9010
C41_11 C 0.2981(2) 0.3790(2) 0.98969(17)
C42_11 C 0.48969(17) 0.2981(2) 0.8790(2)
C43_11 C 0.2635(2) 0.3653(2) 0.97752(17)
C44_11 C 0.47752(17) 0.2635(2) 0.8653(2)
H27_11 H 0.2597 0.3587 0.9513
H28_11 H 0.4513 0.2597 0.8587
C46_12 C 0.50453(19) 0.2334(2) 0.8610(2)
H29_11 H 0.2093 0.3509 0.9966
H30_11 H 0.4966 0.2093 0.8509
C47_11 C 0.3279(2) 0.3842(2) 0.9626(2)
C48_11 C 0.4626(2) 0.3279(2) 0.8842(2)
H31_12 H 0.362281 0.54725 0.686548
H32_12 H 0.54725 0.186548 0.862281
Ag1_12 Ag 0.89692(4) 0.10308(4) 0.10308(4)
N3_12 N 0.8907(2) 0.0593(2) 0.1471(2)
C13_12 C 0.8790(2) 0.01031(17) 0.2019(2)
C14_12 C 0.8653(2) 0.02248(17) 0.2365(2)
H9_12 H 0.8587 0.0487 0.2403
H10_12 H 0.8509 0.0034 0.2907
C16_12 C 0.8842(2) 0.0374(2) 0.1721(2)
N12_12 N 0.8529(2) 0.1093(2) 0.0593(2)
N13_12 N 0.9407(2) 0.1471(2) 0.1093(2)
C41_12 C 0.7981(2) 0.1210(2) 0.01031(17)
C42_12 C 0.98969(17) 0.2019(2) 0.1210(2)
C43_12 C 0.7635(2) 0.1347(2) 0.02248(17)
C44_12 C 0.97752(17) 0.2365(2) 0.1347(2)
H27_12 H 0.7597 0.1413 0.0487
H28_12 H 0.9513 0.2403 0.1413
H29_12 H 0.7093 0.1491 0.0034
H30_12 H 0.9966 0.2907 0.1491
C47_12 C 0.8279(2) 0.1158(2) 0.0374(2)
C48_12 C 0.9626(2) 0.1721(2) 0.1158(2)
Co1_4 Co 0.135390(16) 0.864610(16) 0.364610(16)
N1_4 N 0.11623(12) 0.82740(15) 0.32770(15)
N2_4 N 0.10225(11) 0.90504(13) 0.34622(11)
C1_13 C 0.1248(2) 0.78928(19) 0.32688(17)
H1_13 H 0.1426 0.7769 0.3436
C2_13 C 0.1033(2) 0.7704(2) 0.29754(19)
H2_13 H 0.1051 0.7441 0.2903
C3_13 C 0.07915(19) 0.79839(17) 0.28147(17)
H3_13 H 0.0609 0.7945 0.2615
C4_13 C 0.08703(18) 0.83380(18) 0.30063(14)
C5_13 C 0.07044(13) 0.86905(16) 0.29349(14)
C6_13 C 0.07790(13) 0.90322(15) 0.31356(12)
C7_13 C 0.06060(16) 0.9398(2) 0.30813(14)
H4_13 H 0.0430 0.9465 0.2883
C8_13 C 0.07395(15) 0.96422(16) 0.33707(17)
H5_13 H 0.0673 0.9904 0.3413
C9_13 C 0.09951(16) 0.94132(13) 0.35850(15)
H6_13 H 0.1136 0.9509 0.3799
C10_13 C 0.04199(15) 0.87134(18) 0.26102(16)
C11_13 C 0.05271(18) 0.8852(3) 0.22576(18)
H7_13 H 0.0790 0.8916 0.2220
C12_13 C 0.0294(2) 0.8902(3) 0.19724(19)
H8_13 H 0.0381 0.9010 0.1737
C15_13 C 0.00453(19) 0.8610(2) 0.2666(2)
N6_13 N 0.17230(15) 0.88377(12) 0.32740(15)
N7_13 N 0.17260(15) 0.82770(15) 0.38377(12)
N10_13 N 0.15378(11) 0.89775(11) 0.40504(13)
N11_13 N 0.09496(13) 0.84622(11) 0.39775(11)
H31_13 H 0.0472496 0.862281 0.313452
Co3_5 Co 0.635390(16) 0.135390(16) 0.135390(16)
N5_5 N 0.67230(15) 0.11623(12) 0.17260(15)
N9_5 N 0.65378(11) 0.10225(11) 0.09496(13)
C18_13 C 0.67312(17) 0.1248(2) 0.21072(19)
H12_13 H 0.6564 0.1426 0.2231
C20_13 C 0.70246(19) 0.1033(2) 0.2296(2)
H14_13 H 0.7097 0.1051 0.2559
C22_13 C 0.71853(17) 0.07915(19) 0.20161(17)
H16_13 H 0.7385 0.0609 0.2055
C24_13 C 0.69937(14) 0.08703(18) 0.16620(18)
C26_13 C 0.70651(14) 0.07044(13) 0.13095(16)
C28_13 C 0.68644(12) 0.07790(13) 0.09678(15)
C30_13 C 0.69187(14) 0.06060(16) 0.0602(2)
H18_13 H 0.7117 0.0430 0.0535
C32_13 C 0.66293(17) 0.07395(15) 0.03578(16)
H20_13 H 0.6587 0.0673 0.0096
C34_13 C 0.64150(15) 0.09951(16) 0.05868(13)
H22_13 H 0.6201 0.1136 0.0491
C36_13 C 0.73898(16) 0.04199(15) 0.12866(18)
C38_13 C 0.77424(18) 0.05271(18) 0.1148(3)
H24_13 H 0.7780 0.0790 0.1084
C40_13 C 0.80276(19) 0.0294(2) 0.1098(3)
H26_13 H 0.8263 0.0381 0.0990
C46_13 C 0.7334(2) 0.00453(19) 0.1390(2)
H32_13 H 0.686548 0.0472496 0.137719
Co2_6 Co 0.864610(16) 0.635390(16) 0.864610(16)
N4_6 N 0.82740(15) 0.67230(15) 0.88377(12)
N8_6 N 0.90504(13) 0.65378(11) 0.89775(11)
C17_13 C 0.78928(19) 0.67312(17) 0.8752(2)
H11_13 H 0.7769 0.6564 0.8574
C19_13 C 0.7704(2) 0.70246(19) 0.8967(2)
H13_13 H 0.7441 0.7097 0.8949
C21_13 C 0.79839(17) 0.71853(17) 0.92085(19)
H15_13 H 0.7945 0.7385 0.9391
C23_13 C 0.83380(18) 0.69937(14) 0.91297(18)
C25_13 C 0.86905(16) 0.70651(14) 0.92956(13)
C27_13 C 0.90322(15) 0.68644(12) 0.92210(13)
C29_13 C 0.9398(2) 0.69187(14) 0.93940(16)
H17_13 H 0.9465 0.7117 0.9570
C31_13 C 0.96422(16) 0.66293(17) 0.92605(15)
H19_13 H 0.9904 0.6587 0.9327
C33_13 C 0.94132(13) 0.64150(15) 0.90049(16)
H21_13 H 0.9509 0.6201 0.8864
C35_13 C 0.87134(18) 0.73898(16) 0.95801(15)
C37_13 C 0.8852(3) 0.77424(18) 0.94729(18)
H23_13 H 0.8916 0.7780 0.9210
C39_13 C 0.8902(3) 0.80276(19) 0.9706(2)
H25_13 H 0.9010 0.8263 0.9619
C45_13 C 0.8610(2) 0.7334(2) 0.99547(19)
H33_13 H 0.862281 0.686548 0.95275
N6_14 N 0.88377(12) 0.67260(15) 0.82770(15)
N7_14 N 0.82770(15) 0.61623(12) 0.82740(15)
N10_14 N 0.89775(11) 0.59496(13) 0.84622(11)
N11_14 N 0.84622(11) 0.60225(11) 0.90504(13)
N6_15 N 0.67260(15) 0.17230(15) 0.11623(12)
N7_15 N 0.61623(12) 0.17260(15) 0.17230(15)
N10_15 N 0.59496(13) 0.15378(11) 0.10225(11)
N11_15 N 0.60225(11) 0.09496(13) 0.15378(11)
Ag1_13 Ag 0.10308(4) 0.60308(4) 0.60308(4)
N3_13 N 0.0593(2) 0.6093(2) 0.6471(2)
C13_13 C 0.01031(17) 0.6210(2) 0.7019(2)
C14_13 C 0.02248(17) 0.6347(2) 0.7365(2)
H9_13 H 0.0487 0.6413 0.7403
H10_13 H 0.0034 0.6491 0.7907
C16_13 C 0.0374(2) 0.6158(2) 0.6721(2)
Co3_6 Co 0.364610(16) 0.364610(16) 0.635390(16)
N5_6 N 0.32770(15) 0.38377(12) 0.67260(15)
N9_6 N 0.34622(11) 0.39775(11) 0.59496(13)
N12_13 N 0.1093(2) 0.6471(2) 0.5593(2)
N13_13 N 0.1471(2) 0.5593(2) 0.6093(2)
C17_14 C 0.21072(19) 0.82688(17) 0.3752(2)
C18_14 C 0.32688(17) 0.3752(2) 0.71072(19)
H11_14 H 0.2231 0.8436 0.3574
H12_14 H 0.3436 0.3574 0.7231
C19_14 C 0.2296(2) 0.79754(19) 0.3967(2)
C20_14 C 0.29754(19) 0.3967(2) 0.7296(2)
H13_14 H 0.2559 0.7903 0.3949
H14_14 H 0.2903 0.3949 0.7559
C21_14 C 0.20161(17) 0.78147(17) 0.42085(19)
C22_14 C 0.28147(17) 0.42085(19) 0.70161(17)
H15_14 H 0.2055 0.7615 0.4391
H16_14 H 0.2615 0.4391 0.7055
C23_14 C 0.16620(18) 0.80063(14) 0.41297(18)
C24_14 C 0.30063(14) 0.41297(18) 0.66620(18)
C25_14 C 0.13095(16) 0.79349(14) 0.42956(13)
C26_14 C 0.29349(14) 0.42956(13) 0.63095(16)
C27_14 C 0.09678(15) 0.81356(12) 0.42210(13)
C28_14 C 0.31356(12) 0.42210(13) 0.59678(15)
C29_14 C 0.0602(2) 0.80813(14) 0.43940(16)
C30_14 C 0.30813(14) 0.43940(16) 0.5602(2)
H17_14 H 0.0535 0.7883 0.4570
H18_14 H 0.2883 0.4570 0.5535
C31_14 C 0.03578(16) 0.83707(17) 0.42605(15)
C32_14 C 0.33707(17) 0.42605(15) 0.53578(16)
H19_14 H 0.0096 0.8413 0.4327
H20_14 H 0.3413 0.4327 0.5096
C33_14 C 0.05868(13) 0.85850(15) 0.40049(16)
C34_14 C 0.35850(15) 0.40049(16) 0.55868(13)
H21_14 H 0.0491 0.8799 0.3864
H22_14 H 0.3799 0.3864 0.5491
C35_14 C 0.12866(18) 0.76102(16) 0.45801(15)
C36_14 C 0.26102(16) 0.45801(15) 0.62866(18)
C37_14 C 0.1148(3) 0.72576(18) 0.44729(18)
C38_14 C 0.22576(18) 0.44729(18) 0.6148(3)
H23_14 H 0.1084 0.7220 0.4210
H24_14 H 0.2220 0.4210 0.6084
C39_14 C 0.1098(3) 0.69724(19) 0.4706(2)
C40_14 C 0.19724(19) 0.4706(2) 0.6098(3)
H25_14 H 0.0990 0.6737 0.4619
H26_14 H 0.1737 0.4619 0.5990
C41_13 C 0.1210(2) 0.7019(2) 0.51031(17)
C42_13 C 0.2019(2) 0.51031(17) 0.6210(2)
C43_13 C 0.1347(2) 0.7365(2) 0.52248(17)
C44_13 C 0.2365(2) 0.52248(17) 0.6347(2)
H27_13 H 0.1413 0.7403 0.5487
H28_13 H 0.2403 0.5487 0.6413
C45_14 C 0.1390(2) 0.7666(2) 0.49547(19)
C46_14 C 0.2666(2) 0.49547(19) 0.6390(2)
H29_13 H 0.1491 0.7907 0.5034
H30_13 H 0.2907 0.5034 0.6491
C47_13 C 0.1158(2) 0.6721(2) 0.5374(2)
C48_13 C 0.1721(2) 0.5374(2) 0.6158(2)
H32_14 H 0.313452 0.45275 0.637719
H33_14 H 0.137719 0.813452 0.45275
C1_14 C 0.8752(2) 0.71072(19) 0.82688(17)
H1_14 H 0.8574 0.7231 0.8436
C2_14 C 0.8967(2) 0.7296(2) 0.79754(19)
H2_14 H 0.8949 0.7559 0.7903
C3_14 C 0.92085(19) 0.70161(17) 0.78147(17)
H3_14 H 0.9391 0.7055 0.7615
C4_14 C 0.91297(18) 0.66620(18) 0.80063(14)
C5_14 C 0.92956(13) 0.63095(16) 0.79349(14)
C6_14 C 0.92210(13) 0.59678(15) 0.81356(12)
C7_14 C 0.93940(16) 0.5602(2) 0.80813(14)
H4_14 H 0.9570 0.5535 0.7883
C8_14 C 0.92605(15) 0.53578(16) 0.83707(17)
H5_14 H 0.9327 0.5096 0.8413
C9_14 C 0.90049(16) 0.55868(13) 0.85850(15)
H6_14 H 0.8864 0.5491 0.8799
C10_14 C 0.95801(15) 0.62866(18) 0.76102(16)
C11_14 C 0.94729(18) 0.6148(3) 0.72576(18)
H7_14 H 0.9210 0.6084 0.7220
C12_14 C 0.9706(2) 0.6098(3) 0.69724(19)
H8_14 H 0.9619 0.5990 0.6737
C15_14 C 0.99547(19) 0.6390(2) 0.7666(2)
H31_14 H 0.95275 0.637719 0.813452
N6_16 N 0.32740(15) 0.32770(15) 0.61623(12)
N7_16 N 0.38377(12) 0.32740(15) 0.67230(15)
N10_16 N 0.40504(13) 0.34622(11) 0.60225(11)
N11_16 N 0.39775(11) 0.40504(13) 0.65378(11)
Ag1_14 Ag 0.39692(4) 0.10308(4) 0.39692(4)
N3_14 N 0.4407(2) 0.1093(2) 0.3529(2)
C1_15 C 0.6248(2) 0.21072(19) 0.17312(17)
H1_15 H 0.6426 0.2231 0.1564
C2_15 C 0.6033(2) 0.2296(2) 0.20246(19)
H2_15 H 0.6051 0.2559 0.2097
C3_15 C 0.57915(19) 0.20161(17) 0.21853(17)
H3_15 H 0.5609 0.2055 0.2385
C4_15 C 0.58703(18) 0.16620(18) 0.19937(14)
C5_15 C 0.57044(13) 0.13095(16) 0.20651(14)
C6_15 C 0.57790(13) 0.09678(15) 0.18644(12)
C7_15 C 0.56060(16) 0.0602(2) 0.19187(14)
H4_15 H 0.5430 0.0535 0.2117
C8_15 C 0.57395(15) 0.03578(16) 0.16293(17)
H5_15 H 0.5673 0.0096 0.1587
C9_15 C 0.59951(16) 0.05868(13) 0.14150(15)
H6_15 H 0.6136 0.0491 0.1201
C10_15 C 0.54199(15) 0.12866(18) 0.23898(16)
C11_15 C 0.55271(18) 0.1148(3) 0.27424(18)
H7_15 H 0.5790 0.1084 0.2780
C12_15 C 0.5294(2) 0.1098(3) 0.30276(19)
H8_15 H 0.5381 0.0990 0.3263
C13_14 C 0.48969(17) 0.1210(2) 0.2981(2)
C14_14 C 0.47752(17) 0.1347(2) 0.2635(2)
H9_14 H 0.4513 0.1413 0.2597
C15_15 C 0.50453(19) 0.1390(2) 0.2334(2)
H10_14 H 0.4966 0.1491 0.2093
C16_14 C 0.4626(2) 0.1158(2) 0.3279(2)
N12_14 N 0.3907(2) 0.1471(2) 0.4407(2)
N13_14 N 0.3529(2) 0.0593(2) 0.3907(2)
C17_15 C 0.28928(19) 0.32688(17) 0.6248(2)
H11_15 H 0.2769 0.3436 0.6426
C19_15 C 0.2704(2) 0.29754(19) 0.6033(2)
H13_15 H 0.2441 0.2903 0.6051
C21_15 C 0.29839(17) 0.28147(17) 0.57915(19)
H15_15 H 0.2945 0.2615 0.5609
C23_15 C 0.33380(18) 0.30063(14) 0.58703(18)
C25_15 C 0.36905(16) 0.29349(14) 0.57044(13)
C27_15 C 0.40322(15) 0.31356(12) 0.57790(13)
C29_15 C 0.4398(2) 0.30813(14) 0.56060(16)
H17_15 H 0.4465 0.2883 0.5430
C31_15 C 0.46422(16) 0.33707(17) 0.57395(15)
H19_15 H 0.4904 0.3413 0.5673
C33_15 C 0.44132(13) 0.35850(15) 0.59951(16)
H21_15 H 0.4509 0.3799 0.6136
C35_15 C 0.37134(18) 0.26102(16) 0.54199(15)
C37_15 C 0.3852(3) 0.22576(18) 0.55271(18)
H23_15 H 0.3916 0.2220 0.5790
C39_15 C 0.3902(3) 0.19724(19) 0.5294(2)
H25_15 H 0.4010 0.1737 0.5381
C41_14 C 0.3790(2) 0.2019(2) 0.48969(17)
C42_14 C 0.2981(2) 0.01031(17) 0.3790(2)
C43_14 C 0.3653(2) 0.2365(2) 0.47752(17)
C44_14 C 0.2635(2) 0.02248(17) 0.3653(2)
H27_14 H 0.3587 0.2403 0.4513
H28_14 H 0.2597 0.0487 0.3587
C45_15 C 0.3610(2) 0.2666(2) 0.50453(19)
H29_14 H 0.3509 0.2907 0.4966
H30_14 H 0.2093 0.0034 0.3509
C47_14 C 0.3842(2) 0.1721(2) 0.4626(2)
C48_14 C 0.3279(2) 0.0374(2) 0.3842(2)
H31_15 H 0.54725 0.137719 0.186548
H33_15 H 0.362281 0.313452 0.54725
C18_15 C 0.17312(17) 0.8752(2) 0.28928(19)
H12_15 H 0.1564 0.8574 0.2769
C20_15 C 0.20246(19) 0.8967(2) 0.2704(2)
H14_15 H 0.2097 0.8949 0.2441
C22_15 C 0.21853(17) 0.92085(19) 0.29839(17)
H16_15 H 0.2385 0.9391 0.2945
C24_15 C 0.19937(14) 0.91297(18) 0.33380(18)
C26_15 C 0.20651(14) 0.92956(13) 0.36905(16)
C28_15 C 0.18644(12) 0.92210(13) 0.40322(15)
C30_15 C 0.19187(14) 0.93940(16) 0.4398(2)
H18_15 H 0.2117 0.9570 0.4465
C32_15 C 0.16293(17) 0.92605(15) 0.46422(16)
H20_15 H 0.1587 0.9327 0.4904
C34_15 C 0.14150(15) 0.90049(16) 0.44132(13)
H22_15 H 0.1201 0.8864 0.4509
C36_15 C 0.23898(16) 0.95801(15) 0.37134(18)
C38_15 C 0.27424(18) 0.94729(18) 0.3852(3)
H24_15 H 0.2780 0.9210 0.3916
C40_15 C 0.30276(19) 0.9706(2) 0.3902(3)
H26_15 H 0.3263 0.9619 0.4010
C46_15 C 0.2334(2) 0.99547(19) 0.3610(2)
H32_15 H 0.186548 0.95275 0.362281
C17_16 C 0.71072(19) 0.17312(17) 0.1248(2)
H11_16 H 0.7231 0.1564 0.1426
C19_16 C 0.7296(2) 0.20246(19) 0.1033(2)
H13_16 H 0.7559 0.2097 0.1051
C21_16 C 0.70161(17) 0.21853(17) 0.07915(19)
H15_16 H 0.7055 0.2385 0.0609
C23_16 C 0.66620(18) 0.19937(14) 0.08703(18)
C25_16 C 0.63095(16) 0.20651(14) 0.07044(13)
C27_16 C 0.59678(15) 0.18644(12) 0.07790(13)
C29_16 C 0.5602(2) 0.19187(14) 0.06060(16)
H17_16 H 0.5535 0.2117 0.0430
C31_16 C 0.53578(16) 0.16293(17) 0.07395(15)
H19_16 H 0.5096 0.1587 0.0673
C33_16 C 0.55868(13) 0.14150(15) 0.09951(16)
H21_16 H 0.5491 0.1201 0.1136
C35_16 C 0.62866(18) 0.23898(16) 0.04199(15)
C37_16 C 0.6148(3) 0.27424(18) 0.05271(18)
H23_16 H 0.6084 0.2780 0.0790
C39_16 C 0.6098(3) 0.30276(19) 0.0294(2)
H25_16 H 0.5990 0.3263 0.0381
C45_16 C 0.6390(2) 0.2334(2) 0.00453(19)
H33_16 H 0.637719 0.186548 0.0472496
Ag1_15 Ag 0.60308(4) 0.39692(4) 0.89692(4)
N3_15 N 0.5593(2) 0.3907(2) 0.8529(2)
C1_16 C 0.3752(2) 0.28928(19) 0.67312(17)
H1_16 H 0.3574 0.2769 0.6564
C2_16 C 0.3967(2) 0.2704(2) 0.70246(19)
H2_16 H 0.3949 0.2441 0.7097
C3_16 C 0.42085(19) 0.29839(17) 0.71853(17)
H3_16 H 0.4391 0.2945 0.7385
C4_16 C 0.41297(18) 0.33380(18) 0.69937(14)
C5_16 C 0.42956(13) 0.36905(16) 0.70651(14)
C6_16 C 0.42210(13) 0.40322(15) 0.68644(12)
C7_16 C 0.43940(16) 0.4398(2) 0.69187(14)
H4_16 H 0.4570 0.4465 0.7117
C8_16 C 0.42605(15) 0.46422(16) 0.66293(17)
H5_16 H 0.4327 0.4904 0.6587
C9_16 C 0.40049(16) 0.44132(13) 0.64150(15)
H6_16 H 0.3864 0.4509 0.6201
C10_16 C 0.45801(15) 0.37134(18) 0.73898(16)
C11_16 C 0.44729(18) 0.3852(3) 0.77424(18)
H7_16 H 0.4210 0.3916 0.7780
C12_16 C 0.4706(2) 0.3902(3) 0.80276(19)
H8_16 H 0.4619 0.4010 0.8263
C13_15 C 0.51031(17) 0.3790(2) 0.7981(2)
C14_15 C 0.52248(17) 0.3653(2) 0.7635(2)
H9_15 H 0.5487 0.3587 0.7597
C15_16 C 0.49547(19) 0.3610(2) 0.7334(2)
H10_15 H 0.5034 0.3509 0.7093
C16_15 C 0.5374(2) 0.3842(2) 0.8279(2)
N12_15 N 0.6093(2) 0.3529(2) 0.9407(2)
N13_15 N 0.6471(2) 0.4407(2) 0.8907(2)
C18_16 C 0.82688(17) 0.6248(2) 0.78928(19)
H12_16 H 0.8436 0.6426 0.7769
C20_16 C 0.79754(19) 0.6033(2) 0.7704(2)
H14_16 H 0.7903 0.6051 0.7441
C22_16 C 0.78147(17) 0.57915(19) 0.79839(17)
H16_16 H 0.7615 0.5609 0.7945
C24_16 C 0.80063(14) 0.58703(18) 0.83380(18)
C26_16 C 0.79349(14) 0.57044(13) 0.86905(16)
C28_16 C 0.81356(12) 0.57790(13) 0.90322(15)
C30_16 C 0.80813(14) 0.56060(16) 0.9398(2)
H18_16 H 0.7883 0.5430 0.9465
C32_16 C 0.83707(17) 0.57395(15) 0.96422(16)
H20_16 H 0.8413 0.5673 0.9904
C34_16 C 0.85850(15) 0.59951(16) 0.94132(13)
H22_16 H 0.8799 0.6136 0.9509
C36_16 C 0.76102(16) 0.54199(15) 0.87134(18)
C38_16 C 0.72576(18) 0.55271(18) 0.8852(3)
H24_16 H 0.7220 0.5790 0.8916
C40_16 C 0.69724(19) 0.5294(2) 0.8902(3)
H26_16 H 0.6737 0.5381 0.9010
C41_15 C 0.6210(2) 0.2981(2) 0.98969(17)
C42_15 C 0.7019(2) 0.48969(17) 0.8790(2)
C43_15 C 0.6347(2) 0.2635(2) 0.97752(17)
C44_15 C 0.7365(2) 0.47752(17) 0.8653(2)
H27_15 H 0.6413 0.2597 0.9513
H28_15 H 0.7403 0.4513 0.8587
C46_16 C 0.7666(2) 0.50453(19) 0.8610(2)
H29_15 H 0.6491 0.2093 0.9966
H30_15 H 0.7907 0.4966 0.8509
C47_15 C 0.6158(2) 0.3279(2) 0.9626(2)
C48_15 C 0.6721(2) 0.4626(2) 0.8842(2)
H31_16 H 0.45275 0.362281 0.686548
H32_16 H 0.813452 0.54725 0.862281
Ag1_16 Ag 0.89692(4) 0.89692(4) 0.10308(4)
N3_16 N 0.9407(2) 0.8907(2) 0.1471(2)
C13_16 C 0.98969(17) 0.8790(2) 0.2019(2)
C14_16 C 0.97752(17) 0.8653(2) 0.2365(2)
H9_16 H 0.9513 0.8587 0.2403
H10_16 H 0.9966 0.8509 0.2907
C16_16 C 0.9626(2) 0.8842(2) 0.1721(2)
N12_16 N 0.8907(2) 0.8529(2) 0.0593(2)
N13_16 N 0.8529(2) 0.9407(2) 0.1093(2)
C41_16 C 0.8790(2) 0.7981(2) 0.01031(17)
C42_16 C 0.7981(2) 0.98969(17) 0.1210(2)
C43_16 C 0.8653(2) 0.7635(2) 0.02248(17)
C44_16 C 0.7635(2) 0.97752(17) 0.1347(2)
H27_16 H 0.8587 0.7597 0.0487
H28_16 H 0.7597 0.9513 0.1413
H29_16 H 0.8509 0.7093 0.0034
H30_16 H 0.7093 0.9966 0.1491
C47_16 C 0.8842(2) 0.8279(2) 0.0374(2)
C48_16 C 0.8279(2) 0.9626(2) 0.1158(2)
Co2_7 Co 0.364610(16) 0.135390(16) 0.135390(16)
N4_7 N 0.32770(15) 0.17260(15) 0.11623(12)
N8_7 N 0.34622(11) 0.09496(13) 0.10225(11)
C17_17 C 0.32688(17) 0.21072(19) 0.1248(2)
H11_17 H 0.3436 0.2231 0.1426
C19_17 C 0.29754(19) 0.2296(2) 0.1033(2)
H13_17 H 0.2903 0.2559 0.1051
C21_17 C 0.28147(17) 0.20161(17) 0.07915(19)
H15_17 H 0.2615 0.2055 0.0609
C23_17 C 0.30063(14) 0.16620(18) 0.08703(18)
C25_17 C 0.29349(14) 0.13095(16) 0.07044(13)
C27_17 C 0.31356(12) 0.09678(15) 0.07790(13)
C29_17 C 0.30813(14) 0.0602(2) 0.06060(16)
H17_17 H 0.2883 0.0535 0.0430
C31_17 C 0.33707(17) 0.03578(16) 0.07395(15)
H19_17 H 0.3413 0.0096 0.0673
C33_17 C 0.35850(15) 0.05868(13) 0.09951(16)
H21_17 H 0.3799 0.0491 0.1136
C35_17 C 0.26102(16) 0.12866(18) 0.04199(15)
C37_17 C 0.22576(18) 0.1148(3) 0.05271(18)
H23_17 H 0.2220 0.1084 0.0790
C39_17 C 0.19724(19) 0.1098(3) 0.0294(2)
H25_17 H 0.1737 0.0990 0.0381
C45_17 C 0.2666(2) 0.1390(2) 0.00453(19)
H33_17 H 0.313452 0.137719 0.0472496
Co1_5 Co 0.135390(16) 0.864610(16) 0.635390(16)
N1_5 N 0.17260(15) 0.88377(12) 0.67230(15)
N2_5 N 0.09496(13) 0.89775(11) 0.65378(11)
C1_17 C 0.21072(19) 0.8752(2) 0.67312(17)
H1_17 H 0.2231 0.8574 0.6564
C2_17 C 0.2296(2) 0.8967(2) 0.70246(19)
H2_17 H 0.2559 0.8949 0.7097
C3_17 C 0.20161(17) 0.92085(19) 0.71853(17)
H3_17 H 0.2055 0.9391 0.7385
C4_17 C 0.16620(18) 0.91297(18) 0.69937(14)
C5_17 C 0.13095(16) 0.92956(13) 0.70651(14)
C6_17 C 0.09678(15) 0.92210(13) 0.68644(12)
C7_17 C 0.0602(2) 0.93940(16) 0.69187(14)
H4_17 H 0.0535 0.9570 0.7117
C8_17 C 0.03578(16) 0.92605(15) 0.66293(17)
H5_17 H 0.0096 0.9327 0.6587
C9_17 C 0.05868(13) 0.90049(16) 0.64150(15)
H6_17 H 0.0491 0.8864 0.6201
C10_17 C 0.12866(18) 0.95801(15) 0.73898(16)
C11_17 C 0.1148(3) 0.94729(18) 0.77424(18)
H7_17 H 0.1084 0.9210 0.7780
C12_17 C 0.1098(3) 0.9706(2) 0.80276(19)
H8_17 H 0.0990 0.9619 0.8263
C15_17 C 0.1390(2) 0.99547(19) 0.7334(2)
N6_17 N 0.11623(12) 0.82770(15) 0.67260(15)
N7_17 N 0.17230(15) 0.82740(15) 0.61623(12)
N10_17 N 0.10225(11) 0.84622(11) 0.59496(13)
N11_17 N 0.15378(11) 0.90504(13) 0.60225(11)
H31_17 H 0.137719 0.95275 0.686548
Co3_7 Co 0.864610(16) 0.364610(16) 0.864610(16)
N5_7 N 0.88377(12) 0.32770(15) 0.82740(15)
N9_7 N 0.89775(11) 0.34622(11) 0.90504(13)
C18_17 C 0.8752(2) 0.32688(17) 0.78928(19)
H12_17 H 0.8574 0.3436 0.7769
C20_17 C 0.8967(2) 0.29754(19) 0.7704(2)
H14_17 H 0.8949 0.2903 0.7441
C22_17 C 0.92085(19) 0.28147(17) 0.79839(17)
H16_17 H 0.9391 0.2615 0.7945
C24_17 C 0.91297(18) 0.30063(14) 0.83380(18)
C26_17 C 0.92956(13) 0.29349(14) 0.86905(16)
C28_17 C 0.92210(13) 0.31356(12) 0.90322(15)
C30_17 C 0.93940(16) 0.30813(14) 0.9398(2)
H18_17 H 0.9570 0.2883 0.9465
C32_17 C 0.92605(15) 0.33707(17) 0.96422(16)
H20_17 H 0.9327 0.3413 0.9904
C34_17 C 0.90049(16) 0.35850(15) 0.94132(13)
H22_17 H 0.8864 0.3799 0.9509
C36_17 C 0.95801(15) 0.26102(16) 0.87134(18)
C38_17 C 0.94729(18) 0.22576(18) 0.8852(3)
H24_17 H 0.9210 0.2220 0.8916
C40_17 C 0.9706(2) 0.19724(19) 0.8902(3)
H26_17 H 0.9619 0.1737 0.9010
C46_17 C 0.99547(19) 0.2666(2) 0.8610(2)
H32_17 H 0.95275 0.313452 0.862281
N6_18 N 0.32740(15) 0.11623(12) 0.17230(15)
N7_18 N 0.38377(12) 0.17230(15) 0.17260(15)
N10_18 N 0.40504(13) 0.10225(11) 0.15378(11)
N11_18 N 0.39775(11) 0.15378(11) 0.09496(13)
N6_19 N 0.82770(15) 0.32740(15) 0.88377(12)
N7_19 N 0.82740(15) 0.38377(12) 0.82770(15)
N10_19 N 0.84622(11) 0.40504(13) 0.89775(11)
N11_19 N 0.90504(13) 0.39775(11) 0.84622(11)
C18_18 C 0.1248(2) 0.82688(17) 0.71072(19)
H12_18 H 0.1426 0.8436 0.7231
C20_18 C 0.1033(2) 0.79754(19) 0.7296(2)
H14_18 H 0.1051 0.7903 0.7559
C22_18 C 0.07915(19) 0.78147(17) 0.70161(17)
H16_18 H 0.0609 0.7615 0.7055
C24_18 C 0.08703(18) 0.80063(14) 0.66620(18)
C26_18 C 0.07044(13) 0.79349(14) 0.63095(16)
C28_18 C 0.07790(13) 0.81356(12) 0.59678(15)
C30_18 C 0.06060(16) 0.80813(14) 0.5602(2)
H18_18 H 0.0430 0.7883 0.5535
C32_18 C 0.07395(15) 0.83707(17) 0.53578(16)
H20_18 H 0.0673 0.8413 0.5096
C34_18 C 0.09951(16) 0.85850(15) 0.55868(13)
H22_18 H 0.1136 0.8799 0.5491
C36_18 C 0.04199(15) 0.76102(16) 0.62866(18)
C38_18 C 0.05271(18) 0.72576(18) 0.6148(3)
H24_18 H 0.0790 0.7220 0.6084
C40_18 C 0.0294(2) 0.69724(19) 0.6098(3)
H26_18 H 0.0381 0.6737 0.5990
C46_18 C 0.00453(19) 0.7666(2) 0.6390(2)
H32_18 H 0.0472496 0.813452 0.637719
Ag1_17 Ag 0.89692(4) 0.60308(4) 0.60308(4)
N3_17 N 0.8907(2) 0.5593(2) 0.6471(2)
C1_18 C 0.78928(19) 0.3752(2) 0.82688(17)
H1_18 H 0.7769 0.3574 0.8436
C2_18 C 0.7704(2) 0.3967(2) 0.79754(19)
H2_18 H 0.7441 0.3949 0.7903
C3_18 C 0.79839(17) 0.42085(19) 0.78147(17)
H3_18 H 0.7945 0.4391 0.7615
C4_18 C 0.83380(18) 0.41297(18) 0.80063(14)
C5_18 C 0.86905(16) 0.42956(13) 0.79349(14)
C6_18 C 0.90322(15) 0.42210(13) 0.81356(12)
C7_18 C 0.9398(2) 0.43940(16) 0.80813(14)
H4_18 H 0.9465 0.4570 0.7883
C8_18 C 0.96422(16) 0.42605(15) 0.83707(17)
H5_18 H 0.9904 0.4327 0.8413
C9_18 C 0.94132(13) 0.40049(16) 0.85850(15)
H6_18 H 0.9509 0.3864 0.8799
C10_18 C 0.87134(18) 0.45801(15) 0.76102(16)
C11_18 C 0.8852(3) 0.44729(18) 0.72576(18)
H7_18 H 0.8916 0.4210 0.7220
C12_18 C 0.8902(3) 0.4706(2) 0.69724(19)
H8_18 H 0.9010 0.4619 0.6737
C13_17 C 0.8790(2) 0.51031(17) 0.7019(2)
C14_17 C 0.8653(2) 0.52248(17) 0.7365(2)
H9_17 H 0.8587 0.5487 0.7403
C15_18 C 0.8610(2) 0.49547(19) 0.7666(2)
H10_17 H 0.8509 0.5034 0.7907
C16_17 C 0.8842(2) 0.5374(2) 0.6721(2)
Co2_8 Co 0.635390(16) 0.635390(16) 0.364610(16)
N4_8 N 0.67230(15) 0.67260(15) 0.38377(12)
N8_8 N 0.65378(11) 0.59496(13) 0.39775(11)
N12_17 N 0.8529(2) 0.6093(2) 0.5593(2)
N13_17 N 0.9407(2) 0.6471(2) 0.6093(2)
C17_18 C 0.67312(17) 0.71072(19) 0.3752(2)
H11_18 H 0.6564 0.7231 0.3574
C19_18 C 0.70246(19) 0.7296(2) 0.3967(2)
H13_18 H 0.7097 0.7559 0.3949
C21_18 C 0.71853(17) 0.70161(17) 0.42085(19)
H15_18 H 0.7385 0.7055 0.4391
C23_18 C 0.69937(14) 0.66620(18) 0.41297(18)
C25_18 C 0.70651(14) 0.63095(16) 0.42956(13)
C27_18 C 0.68644(12) 0.59678(15) 0.42210(13)
C29_18 C 0.69187(14) 0.5602(2) 0.43940(16)
H17_18 H 0.7117 0.5535 0.4570
C31_18 C 0.66293(17) 0.53578(16) 0.42605(15)
H19_18 H 0.6587 0.5096 0.4327
C33_18 C 0.64150(15) 0.55868(13) 0.40049(16)
H21_18 H 0.6201 0.5491 0.3864
C35_18 C 0.73898(16) 0.62866(18) 0.45801(15)
C37_18 C 0.77424(18) 0.6148(3) 0.44729(18)
H23_18 H 0.7780 0.6084 0.4210
C39_18 C 0.80276(19) 0.6098(3) 0.4706(2)
H25_18 H 0.8263 0.5990 0.4619
C41_17 C 0.7981(2) 0.6210(2) 0.51031(17)
C42_17 C 0.98969(17) 0.7019(2) 0.6210(2)
C43_17 C 0.7635(2) 0.6347(2) 0.52248(17)
C44_17 C 0.97752(17) 0.7365(2) 0.6347(2)
H27_17 H 0.7597 0.6413 0.5487
H28_17 H 0.9513 0.7403 0.6413
C45_18 C 0.7334(2) 0.6390(2) 0.49547(19)
H29_17 H 0.7093 0.6491 0.5034
H30_17 H 0.9966 0.7907 0.6491
C47_17 C 0.8279(2) 0.6158(2) 0.5374(2)
C48_17 C 0.9626(2) 0.6721(2) 0.6158(2)
H31_18 H 0.862281 0.45275 0.813452
H33_18 H 0.686548 0.637719 0.45275
N6_20 N 0.67260(15) 0.61623(12) 0.32770(15)
N7_20 N 0.61623(12) 0.67230(15) 0.32740(15)
N10_20 N 0.59496(13) 0.60225(11) 0.34622(11)
N11_20 N 0.60225(11) 0.65378(11) 0.40504(13)
C1_19 C 0.28928(19) 0.1248(2) 0.17312(17)
H1_19 H 0.2769 0.1426 0.1564
C2_19 C 0.2704(2) 0.1033(2) 0.20246(19)
H2_19 H 0.2441 0.1051 0.2097
C3_19 C 0.29839(17) 0.07915(19) 0.21853(17)
H3_19 H 0.2945 0.0609 0.2385
C4_19 C 0.33380(18) 0.08703(18) 0.19937(14)
C5_19 C 0.36905(16) 0.07044(13) 0.20651(14)
C6_19 C 0.40322(15) 0.07790(13) 0.18644(12)
C7_19 C 0.4398(2) 0.06060(16) 0.19187(14)
H4_19 H 0.4465 0.0430 0.2117
C8_19 C 0.46422(16) 0.07395(15) 0.16293(17)
H5_19 H 0.4904 0.0673 0.1587
C9_19 C 0.44132(13) 0.09951(16) 0.14150(15)
H6_19 H 0.4509 0.1136 0.1201
C10_19 C 0.37134(18) 0.04199(15) 0.23898(16)
C11_19 C 0.3852(3) 0.05271(18) 0.27424(18)
H7_19 H 0.3916 0.0790 0.2780
C12_19 C 0.3902(3) 0.0294(2) 0.30276(19)
H8_19 H 0.4010 0.0381 0.3263
C15_19 C 0.3610(2) 0.00453(19) 0.2334(2)
H31_19 H 0.362281 0.0472496 0.186548
Ag1_18 Ag 0.39692(4) 0.89692(4) 0.39692(4)
N3_18 N 0.3907(2) 0.9407(2) 0.3529(2)
C13_18 C 0.3790(2) 0.98969(17) 0.2981(2)
C14_18 C 0.3653(2) 0.97752(17) 0.2635(2)
H9_18 H 0.3587 0.9513 0.2597
H10_18 H 0.3509 0.9966 0.2093
C16_18 C 0.3842(2) 0.9626(2) 0.3279(2)
N12_18 N 0.3529(2) 0.8907(2) 0.4407(2)
N13_18 N 0.4407(2) 0.8529(2) 0.3907(2)
C17_19 C 0.17312(17) 0.78928(19) 0.6248(2)
C18_19 C 0.6248(2) 0.67312(17) 0.28928(19)
H11_19 H 0.1564 0.7769 0.6426
H12_19 H 0.6426 0.6564 0.2769
C19_19 C 0.20246(19) 0.7704(2) 0.6033(2)
C20_19 C 0.6033(2) 0.70246(19) 0.2704(2)
H13_19 H 0.2097 0.7441 0.6051
H14_19 H 0.6051 0.7097 0.2441
C21_19 C 0.21853(17) 0.79839(17) 0.57915(19)
C22_19 C 0.57915(19) 0.71853(17) 0.29839(17)
H15_19 H 0.2385 0.7945 0.5609
H16_19 H 0.5609 0.7385 0.2945
C23_19 C 0.19937(14) 0.83380(18) 0.58703(18)
C24_19 C 0.58703(18) 0.69937(14) 0.33380(18)
C25_19 C 0.20651(14) 0.86905(16) 0.57044(13)
C26_19 C 0.57044(13) 0.70651(14) 0.36905(16)
C27_19 C 0.18644(12) 0.90322(15) 0.57790(13)
C28_19 C 0.57790(13) 0.68644(12) 0.40322(15)
C29_19 C 0.19187(14) 0.9398(2) 0.56060(16)
C30_19 C 0.56060(16) 0.69187(14) 0.4398(2)
H17_19 H 0.2117 0.9465 0.5430
H18_19 H 0.5430 0.7117 0.4465
C31_19 C 0.16293(17) 0.96422(16) 0.57395(15)
C32_19 C 0.57395(15) 0.66293(17) 0.46422(16)
H19_19 H 0.1587 0.9904 0.5673
H20_19 H 0.5673 0.6587 0.4904
C33_19 C 0.14150(15) 0.94132(13) 0.59951(16)
C34_19 C 0.59951(16) 0.64150(15) 0.44132(13)
H21_19 H 0.1201 0.9509 0.6136
H22_19 H 0.6136 0.6201 0.4509
C35_19 C 0.23898(16) 0.87134(18) 0.54199(15)
C36_19 C 0.54199(15) 0.73898(16) 0.37134(18)
C37_19 C 0.27424(18) 0.8852(3) 0.55271(18)
C38_19 C 0.55271(18) 0.77424(18) 0.3852(3)
H23_19 H 0.2780 0.8916 0.5790
H24_19 H 0.5790 0.7780 0.3916
C39_19 C 0.30276(19) 0.8902(3) 0.5294(2)
C40_19 C 0.5294(2) 0.80276(19) 0.3902(3)
H25_19 H 0.3263 0.9010 0.5381
H26_19 H 0.5381 0.8263 0.4010
C41_18 C 0.2981(2) 0.8790(2) 0.48969(17)
C42_18 C 0.48969(17) 0.7981(2) 0.3790(2)
C43_18 C 0.2635(2) 0.8653(2) 0.47752(17)
C44_18 C 0.47752(17) 0.7635(2) 0.3653(2)
H27_18 H 0.2597 0.8587 0.4513
H28_18 H 0.4513 0.7597 0.3587
C45_19 C 0.2334(2) 0.8610(2) 0.50453(19)
C46_19 C 0.50453(19) 0.7334(2) 0.3610(2)
H29_18 H 0.2093 0.8509 0.4966
H30_18 H 0.4966 0.7093 0.3509
C47_18 C 0.3279(2) 0.8842(2) 0.4626(2)
C48_18 C 0.4626(2) 0.8279(2) 0.3842(2)
H32_19 H 0.54725 0.686548 0.362281
H33_19 H 0.186548 0.862281 0.54725
Ag1_19 Ag 0.60308(4) 0.39692(4) 0.10308(4)
N3_19 N 0.6093(2) 0.4407(2) 0.1471(2)
C1_20 C 0.71072(19) 0.6248(2) 0.32688(17)
H1_20 H 0.7231 0.6426 0.3436
C2_20 C 0.7296(2) 0.6033(2) 0.29754(19)
H2_20 H 0.7559 0.6051 0.2903
C3_20 C 0.70161(17) 0.57915(19) 0.28147(17)
H3_20 H 0.7055 0.5609 0.2615
C4_20 C 0.66620(18) 0.58703(18) 0.30063(14)
C5_20 C 0.63095(16) 0.57044(13) 0.29349(14)
C6_20 C 0.59678(15) 0.57790(13) 0.31356(12)
C7_20 C 0.5602(2) 0.56060(16) 0.30813(14)
H4_20 H 0.5535 0.5430 0.2883
C8_20 C 0.53578(16) 0.57395(15) 0.33707(17)
H5_20 H 0.5096 0.5673 0.3413
C9_20 C 0.55868(13) 0.59951(16) 0.35850(15)
H6_20 H 0.5491 0.6136 0.3799
C10_20 C 0.62866(18) 0.54199(15) 0.26102(16)
C11_20 C 0.6148(3) 0.55271(18) 0.22576(18)
H7_20 H 0.6084 0.5790 0.2220
C12_20 C 0.6098(3) 0.5294(2) 0.19724(19)
H8_20 H 0.5990 0.5381 0.1737
C13_19 C 0.6210(2) 0.48969(17) 0.2019(2)
C14_19 C 0.6347(2) 0.47752(17) 0.2365(2)
H9_19 H 0.6413 0.4513 0.2403
C15_20 C 0.6390(2) 0.50453(19) 0.2666(2)
H10_19 H 0.6491 0.4966 0.2907
C16_19 C 0.6158(2) 0.4626(2) 0.1721(2)
N12_19 N 0.6471(2) 0.3907(2) 0.0593(2)
N13_19 N 0.5593(2) 0.3529(2) 0.1093(2)
C18_20 C 0.3752(2) 0.17312(17) 0.21072(19)
H12_20 H 0.3574 0.1564 0.2231
C20_20 C 0.3967(2) 0.20246(19) 0.2296(2)
H14_20 H 0.3949 0.2097 0.2559
C22_20 C 0.42085(19) 0.21853(17) 0.20161(17)
H16_20 H 0.4391 0.2385 0.2055
C24_20 C 0.41297(18) 0.19937(14) 0.16620(18)
C26_20 C 0.42956(13) 0.20651(14) 0.13095(16)
C28_20 C 0.42210(13) 0.18644(12) 0.09678(15)
C30_20 C 0.43940(16) 0.19187(14) 0.0602(2)
H18_20 H 0.4570 0.2117 0.0535
C32_20 C 0.42605(15) 0.16293(17) 0.03578(16)
H20_20 H 0.4327 0.1587 0.0096
C34_20 C 0.40049(16) 0.14150(15) 0.05868(13)
H22_20 H 0.3864 0.1201 0.0491
C36_20 C 0.45801(15) 0.23898(16) 0.12866(18)
C38_20 C 0.44729(18) 0.27424(18) 0.1148(3)
H24_20 H 0.4210 0.2780 0.1084
C40_20 C 0.4706(2) 0.30276(19) 0.1098(3)
H26_20 H 0.4619 0.3263 0.0990
C41_19 C 0.7019(2) 0.3790(2) 0.01031(17)
C42_19 C 0.51031(17) 0.2981(2) 0.1210(2)
C43_19 C 0.7365(2) 0.3653(2) 0.02248(17)
C44_19 C 0.52248(17) 0.2635(2) 0.1347(2)
H27_19 H 0.7403 0.3587 0.0487
H28_19 H 0.5487 0.2597 0.1413
C46_20 C 0.49547(19) 0.2334(2) 0.1390(2)
H29_19 H 0.7907 0.3509 0.0034
H30_19 H 0.5034 0.2093 0.1491
C47_19 C 0.6721(2) 0.3842(2) 0.0374(2)
C48_19 C 0.5374(2) 0.3279(2) 0.1158(2)
H31_20 H 0.637719 0.54725 0.313452
H32_20 H 0.45275 0.186548 0.137719
C17_20 C 0.82688(17) 0.28928(19) 0.8752(2)
H11_20 H 0.8436 0.2769 0.8574
C19_20 C 0.79754(19) 0.2704(2) 0.8967(2)
H13_20 H 0.7903 0.2441 0.8949
C21_20 C 0.78147(17) 0.29839(17) 0.92085(19)
H15_20 H 0.7615 0.2945 0.9391
C23_20 C 0.80063(14) 0.33380(18) 0.91297(18)
C25_20 C 0.79349(14) 0.36905(16) 0.92956(13)
C27_20 C 0.81356(12) 0.40322(15) 0.92210(13)
C29_20 C 0.80813(14) 0.4398(2) 0.93940(16)
H17_20 H 0.7883 0.4465 0.9570
C31_20 C 0.83707(17) 0.46422(16) 0.92605(15)
H19_20 H 0.8413 0.4904 0.9327
C33_20 C 0.85850(15) 0.44132(13) 0.90049(16)
H21_20 H 0.8799 0.4509 0.8864
C35_20 C 0.76102(16) 0.37134(18) 0.95801(15)
C37_20 C 0.72576(18) 0.3852(3) 0.94729(18)
H23_20 H 0.7220 0.3916 0.9210
C39_20 C 0.69724(19) 0.3902(3) 0.9706(2)
H25_20 H 0.6737 0.4010 0.9619
C45_20 C 0.7666(2) 0.3610(2) 0.99547(19)
H33_20 H 0.813452 0.362281 0.95275
Ag1_20 Ag 0.10308(4) 0.10308(4) 0.89692(4)
N3_20 N 0.1093(2) 0.0593(2) 0.8529(2)
C13_20 C 0.1210(2) 0.01031(17) 0.7981(2)
C14_20 C 0.1347(2) 0.02248(17) 0.7635(2)
H9_20 H 0.1413 0.0487 0.7597
H10_20 H 0.1491 0.0034 0.7093
C16_20 C 0.1158(2) 0.0374(2) 0.8279(2)
N12_20 N 0.1471(2) 0.1093(2) 0.9407(2)
N13_20 N 0.0593(2) 0.1471(2) 0.8907(2)
C41_20 C 0.2019(2) 0.1210(2) 0.98969(17)
C42_20 C 0.01031(17) 0.2019(2) 0.8790(2)
C43_20 C 0.2365(2) 0.1347(2) 0.97752(17)
C44_20 C 0.02248(17) 0.2365(2) 0.8653(2)
H27_20 H 0.2403 0.1413 0.9513
H28_20 H 0.0487 0.2403 0.8587
H29_20 H 0.2907 0.1491 0.9966
H30_20 H 0.0034 0.2907 0.8509
C47_20 C 0.1721(2) 0.1158(2) 0.9626(2)
C48_20 C 0.0374(2) 0.1721(2) 0.8842(2)
Co1_6 Co 0.135390(16) 0.135390(16) 0.635390(16)
N1_6 N 0.11623(12) 0.17260(15) 0.67230(15)
N2_6 N 0.10225(11) 0.09496(13) 0.65378(11)
C1_21 C 0.1248(2) 0.21072(19) 0.67312(17)
H1_21 H 0.1426 0.2231 0.6564
C2_21 C 0.1033(2) 0.2296(2) 0.70246(19)
H2_21 H 0.1051 0.2559 0.7097
C3_21 C 0.07915(19) 0.20161(17) 0.71853(17)
H3_21 H 0.0609 0.2055 0.7385
C4_21 C 0.08703(18) 0.16620(18) 0.69937(14)
C5_21 C 0.07044(13) 0.13095(16) 0.70651(14)
C6_21 C 0.07790(13) 0.09678(15) 0.68644(12)
C7_21 C 0.06060(16) 0.0602(2) 0.69187(14)
H4_21 H 0.0430 0.0535 0.7117
C8_21 C 0.07395(15) 0.03578(16) 0.66293(17)
H5_21 H 0.0673 0.0096 0.6587
C9_21 C 0.09951(16) 0.05868(13) 0.64150(15)
H6_21 H 0.1136 0.0491 0.6201
C10_21 C 0.04199(15) 0.12866(18) 0.73898(16)
C11_21 C 0.05271(18) 0.1148(3) 0.77424(18)
H7_21 H 0.0790 0.1084 0.7780
C12_21 C 0.0294(2) 0.1098(3) 0.80276(19)
H8_21 H 0.0381 0.0990 0.8263
C15_21 C 0.00453(19) 0.1390(2) 0.7334(2)
N6_21 N 0.17230(15) 0.11623(12) 0.67260(15)
N7_21 N 0.17260(15) 0.17230(15) 0.61623(12)
N10_21 N 0.15378(11) 0.10225(11) 0.59496(13)
N11_21 N 0.09496(13) 0.15378(11) 0.60225(11)
H31_21 H 0.0472496 0.137719 0.686548
Co2_9 Co 0.864610(16) 0.364610(16) 0.135390(16)
N4_9 N 0.82740(15) 0.32770(15) 0.11623(12)
N8_9 N 0.90504(13) 0.34622(11) 0.10225(11)
C17_21 C 0.78928(19) 0.32688(17) 0.1248(2)
H11_21 H 0.7769 0.3436 0.1426
C19_21 C 0.7704(2) 0.29754(19) 0.1033(2)
H13_21 H 0.7441 0.2903 0.1051
C21_21 C 0.79839(17) 0.28147(17) 0.07915(19)
H15_21 H 0.7945 0.2615 0.0609
C23_21 C 0.83380(18) 0.30063(14) 0.08703(18)
C25_21 C 0.86905(16) 0.29349(14) 0.07044(13)
C27_21 C 0.90322(15) 0.31356(12) 0.07790(13)
C29_21 C 0.9398(2) 0.30813(14) 0.06060(16)
H17_21 H 0.9465 0.2883 0.0430
C31_21 C 0.96422(16) 0.33707(17) 0.07395(15)
H19_21 H 0.9904 0.3413 0.0673
C33_21 C 0.94132(13) 0.35850(15) 0.09951(16)
H21_21 H 0.9509 0.3799 0.1136
C35_21 C 0.87134(18) 0.26102(16) 0.04199(15)
C37_21 C 0.8852(3) 0.22576(18) 0.05271(18)
H23_21 H 0.8916 0.2220 0.0790
C39_21 C 0.8902(3) 0.19724(19) 0.0294(2)
H25_21 H 0.9010 0.1737 0.0381
C45_21 C 0.8610(2) 0.2666(2) 0.00453(19)
H33_21 H 0.862281 0.313452 0.0472496
Co3_8 Co 0.635390(16) 0.864610(16) 0.864610(16)
N5_8 N 0.67230(15) 0.88377(12) 0.82740(15)
N9_8 N 0.65378(11) 0.89775(11) 0.90504(13)
C18_21 C 0.67312(17) 0.8752(2) 0.78928(19)
H12_21 H 0.6564 0.8574 0.7769
C20_21 C 0.70246(19) 0.8967(2) 0.7704(2)
H14_21 H 0.7097 0.8949 0.7441
C22_21 C 0.71853(17) 0.92085(19) 0.79839(17)
H16_21 H 0.7385 0.9391 0.7945
C24_21 C 0.69937(14) 0.91297(18) 0.83380(18)
C26_21 C 0.70651(14) 0.92956(13) 0.86905(16)
C28_21 C 0.68644(12) 0.92210(13) 0.90322(15)
C30_21 C 0.69187(14) 0.93940(16) 0.9398(2)
H18_21 H 0.7117 0.9570 0.9465
C32_21 C 0.66293(17) 0.92605(15) 0.96422(16)
H20_21 H 0.6587 0.9327 0.9904
C34_21 C 0.64150(15) 0.90049(16) 0.94132(13)
H22_21 H 0.6201 0.8864 0.9509
C36_21 C 0.73898(16) 0.95801(15) 0.87134(18)
C38_21 C 0.77424(18) 0.94729(18) 0.8852(3)
H24_21 H 0.7780 0.9210 0.8916
C40_21 C 0.80276(19) 0.9706(2) 0.8902(3)
H26_21 H 0.8263 0.9619 0.9010
C46_21 C 0.7334(2) 0.99547(19) 0.8610(2)
H32_21 H 0.686548 0.95275 0.862281
N6_22 N 0.88377(12) 0.32740(15) 0.17230(15)
N7_22 N 0.82770(15) 0.38377(12) 0.17260(15)
N10_22 N 0.89775(11) 0.40504(13) 0.15378(11)
N11_22 N 0.84622(11) 0.39775(11) 0.09496(13)
N6_23 N 0.67260(15) 0.82770(15) 0.88377(12)
N7_23 N 0.61623(12) 0.82740(15) 0.82770(15)
N10_23 N 0.59496(13) 0.84622(11) 0.89775(11)
N11_23 N 0.60225(11) 0.90504(13) 0.84622(11)
Ag1_21 Ag 0.10308(4) 0.39692(4) 0.39692(4)
N3_21 N 0.0593(2) 0.3907(2) 0.3529(2)
C13_21 C 0.01031(17) 0.3790(2) 0.2981(2)
C14_21 C 0.02248(17) 0.3653(2) 0.2635(2)
H9_21 H 0.0487 0.3587 0.2597
H10_21 H 0.0034 0.3509 0.2093
C16_21 C 0.0374(2) 0.3842(2) 0.3279(2)
Co3_9 Co 0.364610(16) 0.635390(16) 0.364610(16)
N5_9 N 0.32770(15) 0.61623(12) 0.32740(15)
N9_9 N 0.34622(11) 0.60225(11) 0.40504(13)
N12_21 N 0.1093(2) 0.3529(2) 0.4407(2)
N13_21 N 0.1471(2) 0.4407(2) 0.3907(2)
C17_22 C 0.21072(19) 0.17312(17) 0.6248(2)
C18_22 C 0.32688(17) 0.6248(2) 0.28928(19)
H11_22 H 0.2231 0.1564 0.6426
H12_22 H 0.3436 0.6426 0.2769
C19_22 C 0.2296(2) 0.20246(19) 0.6033(2)
C20_22 C 0.29754(19) 0.6033(2) 0.2704(2)
H13_22 H 0.2559 0.2097 0.6051
H14_22 H 0.2903 0.6051 0.2441
C21_22 C 0.20161(17) 0.21853(17) 0.57915(19)
C22_22 C 0.28147(17) 0.57915(19) 0.29839(17)
H15_22 H 0.2055 0.2385 0.5609
H16_22 H 0.2615 0.5609 0.2945
C23_22 C 0.16620(18) 0.19937(14) 0.58703(18)
C24_22 C 0.30063(14) 0.58703(18) 0.33380(18)
C25_22 C 0.13095(16) 0.20651(14) 0.57044(13)
C26_22 C 0.29349(14) 0.57044(13) 0.36905(16)
C27_22 C 0.09678(15) 0.18644(12) 0.57790(13)
C28_22 C 0.31356(12) 0.57790(13) 0.40322(15)
C29_22 C 0.0602(2) 0.19187(14) 0.56060(16)
C30_22 C 0.30813(14) 0.56060(16) 0.4398(2)
H17_22 H 0.0535 0.2117 0.5430
H18_22 H 0.2883 0.5430 0.4465
C31_22 C 0.03578(16) 0.16293(17) 0.57395(15)
C32_22 C 0.33707(17) 0.57395(15) 0.46422(16)
H19_22 H 0.0096 0.1587 0.5673
H20_22 H 0.3413 0.5673 0.4904
C33_22 C 0.05868(13) 0.14150(15) 0.59951(16)
C34_22 C 0.35850(15) 0.59951(16) 0.44132(13)
H21_22 H 0.0491 0.1201 0.6136
H22_22 H 0.3799 0.6136 0.4509
C35_22 C 0.12866(18) 0.23898(16) 0.54199(15)
C36_22 C 0.26102(16) 0.54199(15) 0.37134(18)
C37_22 C 0.1148(3) 0.27424(18) 0.55271(18)
C38_22 C 0.22576(18) 0.55271(18) 0.3852(3)
H23_22 H 0.1084 0.2780 0.5790
H24_22 H 0.2220 0.5790 0.3916
C39_22 C 0.1098(3) 0.30276(19) 0.5294(2)
C40_22 C 0.19724(19) 0.5294(2) 0.3902(3)
H25_22 H 0.0990 0.3263 0.5381
H26_22 H 0.1737 0.5381 0.4010
C41_21 C 0.1210(2) 0.2981(2) 0.48969(17)
C42_21 C 0.2019(2) 0.48969(17) 0.3790(2)
C43_21 C 0.1347(2) 0.2635(2) 0.47752(17)
C44_21 C 0.2365(2) 0.47752(17) 0.3653(2)
H27_21 H 0.1413 0.2597 0.4513
H28_21 H 0.2403 0.4513 0.3587
C45_22 C 0.1390(2) 0.2334(2) 0.50453(19)
C46_22 C 0.2666(2) 0.50453(19) 0.3610(2)
H29_21 H 0.1491 0.2093 0.4966
H30_21 H 0.2907 0.4966 0.3509
C47_21 C 0.1158(2) 0.3279(2) 0.4626(2)
C48_21 C 0.1721(2) 0.4626(2) 0.3842(2)
H32_22 H 0.313452 0.54725 0.362281
H33_22 H 0.137719 0.186548 0.54725
C1_22 C 0.8752(2) 0.28928(19) 0.17312(17)
H1_22 H 0.8574 0.2769 0.1564
C2_22 C 0.8967(2) 0.2704(2) 0.20246(19)
H2_22 H 0.8949 0.2441 0.2097
C3_22 C 0.92085(19) 0.29839(17) 0.21853(17)
H3_22 H 0.9391 0.2945 0.2385
C4_22 C 0.91297(18) 0.33380(18) 0.19937(14)
C5_22 C 0.92956(13) 0.36905(16) 0.20651(14)
C6_22 C 0.92210(13) 0.40322(15) 0.18644(12)
C7_22 C 0.93940(16) 0.4398(2) 0.19187(14)
H4_22 H 0.9570 0.4465 0.2117
C8_22 C 0.92605(15) 0.46422(16) 0.16293(17)
H5_22 H 0.9327 0.4904 0.1587
C9_22 C 0.90049(16) 0.44132(13) 0.14150(15)
H6_22 H 0.8864 0.4509 0.1201
C10_22 C 0.95801(15) 0.37134(18) 0.23898(16)
C11_22 C 0.94729(18) 0.3852(3) 0.27424(18)
H7_22 H 0.9210 0.3916 0.2780
C12_22 C 0.9706(2) 0.3902(3) 0.30276(19)
H8_22 H 0.9619 0.4010 0.3263
C15_22 C 0.99547(19) 0.3610(2) 0.2334(2)
H31_22 H 0.95275 0.362281 0.186548
N6_24 N 0.32740(15) 0.67230(15) 0.38377(12)
N7_24 N 0.38377(12) 0.67260(15) 0.32770(15)
N10_24 N 0.40504(13) 0.65378(11) 0.39775(11)
N11_24 N 0.39775(11) 0.59496(13) 0.34622(11)
C18_23 C 0.17312(17) 0.1248(2) 0.71072(19)
H12_23 H 0.1564 0.1426 0.7231
C20_23 C 0.20246(19) 0.1033(2) 0.7296(2)
H14_23 H 0.2097 0.1051 0.7559
C22_23 C 0.21853(17) 0.07915(19) 0.70161(17)
H16_23 H 0.2385 0.0609 0.7055
C24_23 C 0.19937(14) 0.08703(18) 0.66620(18)
C26_23 C 0.20651(14) 0.07044(13) 0.63095(16)
C28_23 C 0.18644(12) 0.07790(13) 0.59678(15)
C30_23 C 0.19187(14) 0.06060(16) 0.5602(2)
H18_23 H 0.2117 0.0430 0.5535
C32_23 C 0.16293(17) 0.07395(15) 0.53578(16)
H20_23 H 0.1587 0.0673 0.5096
C34_23 C 0.14150(15) 0.09951(16) 0.55868(13)
H22_23 H 0.1201 0.1136 0.5491
C36_23 C 0.23898(16) 0.04199(15) 0.62866(18)
C38_23 C 0.27424(18) 0.05271(18) 0.6148(3)
H24_23 H 0.2780 0.0790 0.6084
C40_23 C 0.30276(19) 0.0294(2) 0.6098(3)
H26_23 H 0.3263 0.0381 0.5990
C46_23 C 0.2334(2) 0.00453(19) 0.6390(2)
H32_23 H 0.186548 0.0472496 0.637719
Ag1_22 Ag 0.39692(4) 0.89692(4) 0.60308(4)
N3_22 N 0.4407(2) 0.8907(2) 0.6471(2)
C1_23 C 0.6248(2) 0.78928(19) 0.82688(17)
H1_23 H 0.6426 0.7769 0.8436
C2_23 C 0.6033(2) 0.7704(2) 0.79754(19)
H2_23 H 0.6051 0.7441 0.7903
C3_23 C 0.57915(19) 0.79839(17) 0.78147(17)
H3_23 H 0.5609 0.7945 0.7615
C4_23 C 0.58703(18) 0.83380(18) 0.80063(14)
C5_23 C 0.57044(13) 0.86905(16) 0.79349(14)
C6_23 C 0.57790(13) 0.90322(15) 0.81356(12)
C7_23 C 0.56060(16) 0.9398(2) 0.80813(14)
H4_23 H 0.5430 0.9465 0.7883
C8_23 C 0.57395(15) 0.96422(16) 0.83707(17)
H5_23 H 0.5673 0.9904 0.8413
C9_23 C 0.59951(16) 0.94132(13) 0.85850(15)
H6_23 H 0.6136 0.9509 0.8799
C10_23 C 0.54199(15) 0.87134(18) 0.76102(16)
C11_23 C 0.55271(18) 0.8852(3) 0.72576(18)
H7_23 H 0.5790 0.8916 0.7220
C12_23 C 0.5294(2) 0.8902(3) 0.69724(19)
H8_23 H 0.5381 0.9010 0.6737
C13_22 C 0.48969(17) 0.8790(2) 0.7019(2)
C14_22 C 0.47752(17) 0.8653(2) 0.7365(2)
H9_22 H 0.4513 0.8587 0.7403
C15_23 C 0.50453(19) 0.8610(2) 0.7666(2)
H10_22 H 0.4966 0.8509 0.7907
C16_22 C 0.4626(2) 0.8842(2) 0.6721(2)
N12_22 N 0.3907(2) 0.8529(2) 0.5593(2)
N13_22 N 0.3529(2) 0.9407(2) 0.6093(2)
C17_23 C 0.28928(19) 0.67312(17) 0.3752(2)
H11_23 H 0.2769 0.6564 0.3574
C19_23 C 0.2704(2) 0.70246(19) 0.3967(2)
H13_23 H 0.2441 0.7097 0.3949
C21_23 C 0.29839(17) 0.71853(17) 0.42085(19)
H15_23 H 0.2945 0.7385 0.4391
C23_23 C 0.33380(18) 0.69937(14) 0.41297(18)
C25_23 C 0.36905(16) 0.70651(14) 0.42956(13)
C27_23 C 0.40322(15) 0.68644(12) 0.42210(13)
C29_23 C 0.4398(2) 0.69187(14) 0.43940(16)
H17_23 H 0.4465 0.7117 0.4570
C31_23 C 0.46422(16) 0.66293(17) 0.42605(15)
H19_23 H 0.4904 0.6587 0.4327
C33_23 C 0.44132(13) 0.64150(15) 0.40049(16)
H21_23 H 0.4509 0.6201 0.3864
C35_23 C 0.37134(18) 0.73898(16) 0.45801(15)
C37_23 C 0.3852(3) 0.77424(18) 0.44729(18)
H23_23 H 0.3916 0.7780 0.4210
C39_23 C 0.3902(3) 0.80276(19) 0.4706(2)
H25_23 H 0.4010 0.8263 0.4619
C41_22 C 0.3790(2) 0.7981(2) 0.51031(17)
C42_22 C 0.2981(2) 0.98969(17) 0.6210(2)
C43_22 C 0.3653(2) 0.7635(2) 0.52248(17)
C44_22 C 0.2635(2) 0.97752(17) 0.6347(2)
H27_22 H 0.3587 0.7597 0.5487
H28_22 H 0.2597 0.9513 0.6413
C45_23 C 0.3610(2) 0.7334(2) 0.49547(19)
H29_22 H 0.3509 0.7093 0.5034
H30_22 H 0.2093 0.9966 0.6491
C47_22 C 0.3842(2) 0.8279(2) 0.5374(2)
C48_22 C 0.3279(2) 0.9626(2) 0.6158(2)
H31_23 H 0.54725 0.862281 0.813452
H33_23 H 0.362281 0.686548 0.45275
Ag1_23 Ag 0.60308(4) 0.60308(4) 0.10308(4)
N3_23 N 0.5593(2) 0.6093(2) 0.1471(2)
C1_24 C 0.3752(2) 0.71072(19) 0.32688(17)
H1_24 H 0.3574 0.7231 0.3436
C2_24 C 0.3967(2) 0.7296(2) 0.29754(19)
H2_24 H 0.3949 0.7559 0.2903
C3_24 C 0.42085(19) 0.70161(17) 0.28147(17)
H3_24 H 0.4391 0.7055 0.2615
C4_24 C 0.41297(18) 0.66620(18) 0.30063(14)
C5_24 C 0.42956(13) 0.63095(16) 0.29349(14)
C6_24 C 0.42210(13) 0.59678(15) 0.31356(12)
C7_24 C 0.43940(16) 0.5602(2) 0.30813(14)
H4_24 H 0.4570 0.5535 0.2883
C8_24 C 0.42605(15) 0.53578(16) 0.33707(17)
H5_24 H 0.4327 0.5096 0.3413
C9_24 C 0.40049(16) 0.55868(13) 0.35850(15)
H6_24 H 0.3864 0.5491 0.3799
C10_24 C 0.45801(15) 0.62866(18) 0.26102(16)
C11_24 C 0.44729(18) 0.6148(3) 0.22576(18)
H7_24 H 0.4210 0.6084 0.2220
C12_24 C 0.4706(2) 0.6098(3) 0.19724(19)
H8_24 H 0.4619 0.5990 0.1737
C13_23 C 0.51031(17) 0.6210(2) 0.2019(2)
C14_23 C 0.52248(17) 0.6347(2) 0.2365(2)
H9_23 H 0.5487 0.6413 0.2403
C15_24 C 0.49547(19) 0.6390(2) 0.2666(2)
H10_23 H 0.5034 0.6491 0.2907
C16_23 C 0.5374(2) 0.6158(2) 0.1721(2)
N12_23 N 0.6093(2) 0.6471(2) 0.0593(2)
N13_23 N 0.6471(2) 0.5593(2) 0.1093(2)
C18_24 C 0.82688(17) 0.3752(2) 0.21072(19)
H12_24 H 0.8436 0.3574 0.2231
C20_24 C 0.79754(19) 0.3967(2) 0.2296(2)
H14_24 H 0.7903 0.3949 0.2559
C22_24 C 0.78147(17) 0.42085(19) 0.20161(17)
H16_24 H 0.7615 0.4391 0.2055
C24_24 C 0.80063(14) 0.41297(18) 0.16620(18)
C26_24 C 0.79349(14) 0.42956(13) 0.13095(16)
C28_24 C 0.81356(12) 0.42210(13) 0.09678(15)
C30_24 C 0.80813(14) 0.43940(16) 0.0602(2)
H18_24 H 0.7883 0.4570 0.0535
C32_24 C 0.83707(17) 0.42605(15) 0.03578(16)
H20_24 H 0.8413 0.4327 0.0096
C34_24 C 0.85850(15) 0.40049(16) 0.05868(13)
H22_24 H 0.8799 0.3864 0.0491
C36_24 C 0.76102(16) 0.45801(15) 0.12866(18)
C38_24 C 0.72576(18) 0.44729(18) 0.1148(3)
H24_24 H 0.7220 0.4210 0.1084
C40_24 C 0.69724(19) 0.4706(2) 0.1098(3)
H26_24 H 0.6737 0.4619 0.0990
C41_23 C 0.6210(2) 0.7019(2) 0.01031(17)
C42_23 C 0.7019(2) 0.51031(17) 0.1210(2)
C43_23 C 0.6347(2) 0.7365(2) 0.02248(17)
C44_23 C 0.7365(2) 0.52248(17) 0.1347(2)
H27_23 H 0.6413 0.7403 0.0487
H28_23 H 0.7403 0.5487 0.1413
C46_24 C 0.7666(2) 0.49547(19) 0.1390(2)
H29_23 H 0.6491 0.7907 0.0034
H30_23 H 0.7907 0.5034 0.1491
C47_23 C 0.6158(2) 0.6721(2) 0.0374(2)
C48_23 C 0.6721(2) 0.5374(2) 0.1158(2)
H31_24 H 0.45275 0.637719 0.313452
H32_24 H 0.813452 0.45275 0.137719
C17_24 C 0.71072(19) 0.82688(17) 0.8752(2)
H11_24 H 0.7231 0.8436 0.8574
C19_24 C 0.7296(2) 0.79754(19) 0.8967(2)
H13_24 H 0.7559 0.7903 0.8949
C21_24 C 0.70161(17) 0.78147(17) 0.92085(19)
H15_24 H 0.7055 0.7615 0.9391
C23_24 C 0.66620(18) 0.80063(14) 0.91297(18)
C25_24 C 0.63095(16) 0.79349(14) 0.92956(13)
C27_24 C 0.59678(15) 0.81356(12) 0.92210(13)
C29_24 C 0.5602(2) 0.80813(14) 0.93940(16)
H17_24 H 0.5535 0.7883 0.9570
C31_24 C 0.53578(16) 0.83707(17) 0.92605(15)
H19_24 H 0.5096 0.8413 0.9327
C33_24 C 0.55868(13) 0.85850(15) 0.90049(16)
H21_24 H 0.5491 0.8799 0.8864
C35_24 C 0.62866(18) 0.76102(16) 0.95801(15)
C37_24 C 0.6148(3) 0.72576(18) 0.94729(18)
H23_24 H 0.6084 0.7220 0.9210
C39_24 C 0.6098(3) 0.69724(19) 0.9706(2)
H25_24 H 0.5990 0.6737 0.9619
C45_24 C 0.6390(2) 0.7666(2) 0.99547(19)
H33_24 H 0.637719 0.813452 0.95275
Ag1_24 Ag 0.89692(4) 0.10308(4) 0.89692(4)
N3_24 N 0.9407(2) 0.1093(2) 0.8529(2)
C13_24 C 0.98969(17) 0.1210(2) 0.7981(2)
C14_24 C 0.97752(17) 0.1347(2) 0.7635(2)
H9_24 H 0.9513 0.1413 0.7597
H10_24 H 0.9966 0.1491 0.7093
C16_24 C 0.9626(2) 0.1158(2) 0.8279(2)
N12_24 N 0.8907(2) 0.1471(2) 0.9407(2)
N13_24 N 0.8529(2) 0.0593(2) 0.8907(2)
C41_24 C 0.8790(2) 0.2019(2) 0.98969(17)
C42_24 C 0.7981(2) 0.01031(17) 0.8790(2)
C43_24 C 0.8653(2) 0.2365(2) 0.97752(17)
C44_24 C 0.7635(2) 0.02248(17) 0.8653(2)
H27_24 H 0.8587 0.2403 0.9513
H28_24 H 0.7597 0.0487 0.8587
H29_24 H 0.8509 0.2907 0.9966
H30_24 H 0.7093 0.0034 0.8509
C47_24 C 0.8842(2) 0.1721(2) 0.9626(2)
C48_24 C 0.8279(2) 0.0374(2) 0.8842(2)
Co3_10 Co 0.135390(16) 0.635390(16) 0.864610(16)
N5_10 N 0.11623(12) 0.67230(15) 0.82740(15)
N9_10 N 0.10225(11) 0.65378(11) 0.90504(13)
C18_25 C 0.1248(2) 0.67312(17) 0.78928(19)
H12_25 H 0.1426 0.6564 0.7769
C20_25 C 0.1033(2) 0.70246(19) 0.7704(2)
H14_25 H 0.1051 0.7097 0.7441
C22_25 C 0.07915(19) 0.71853(17) 0.79839(17)
H16_25 H 0.0609 0.7385 0.7945
C24_25 C 0.08703(18) 0.69937(14) 0.83380(18)
C26_25 C 0.07044(13) 0.70651(14) 0.86905(16)
C28_25 C 0.07790(13) 0.68644(12) 0.90322(15)
C30_25 C 0.06060(16) 0.69187(14) 0.9398(2)
H18_25 H 0.0430 0.7117 0.9465
C32_25 C 0.07395(15) 0.66293(17) 0.96422(16)
H20_25 H 0.0673 0.6587 0.9904
C34_25 C 0.09951(16) 0.64150(15) 0.94132(13)
H22_25 H 0.1136 0.6201 0.9509
C36_25 C 0.04199(15) 0.73898(16) 0.87134(18)
C38_25 C 0.05271(18) 0.77424(18) 0.8852(3)
H24_25 H 0.0790 0.7780 0.8916
C40_25 C 0.0294(2) 0.80276(19) 0.8902(3)
H26_25 H 0.0381 0.8263 0.9010
C46_25 C 0.00453(19) 0.7334(2) 0.8610(2)
H32_25 H 0.0472496 0.686548 0.862281
Co1_7 Co 0.864610(16) 0.135390(16) 0.635390(16)
N1_7 N 0.82740(15) 0.11623(12) 0.67230(15)
N2_7 N 0.90504(13) 0.10225(11) 0.65378(11)
C1_25 C 0.78928(19) 0.1248(2) 0.67312(17)
H1_25 H 0.7769 0.1426 0.6564
C2_25 C 0.7704(2) 0.1033(2) 0.70246(19)
H2_25 H 0.7441 0.1051 0.7097
C3_25 C 0.79839(17) 0.07915(19) 0.71853(17)
H3_25 H 0.7945 0.0609 0.7385
C4_25 C 0.83380(18) 0.08703(18) 0.69937(14)
C5_25 C 0.86905(16) 0.07044(13) 0.70651(14)
C6_25 C 0.90322(15) 0.07790(13) 0.68644(12)
C7_25 C 0.9398(2) 0.06060(16) 0.69187(14)
H4_25 H 0.9465 0.0430 0.7117
C8_25 C 0.96422(16) 0.07395(15) 0.66293(17)
H5_25 H 0.9904 0.0673 0.6587
C9_25 C 0.94132(13) 0.09951(16) 0.64150(15)
H6_25 H 0.9509 0.1136 0.6201
C10_25 C 0.87134(18) 0.04199(15) 0.73898(16)
C11_25 C 0.8852(3) 0.05271(18) 0.77424(18)
H7_25 H 0.8916 0.0790 0.7780
C12_25 C 0.8902(3) 0.0294(2) 0.80276(19)
H8_25 H 0.9010 0.0381 0.8263
C15_25 C 0.8610(2) 0.00453(19) 0.7334(2)
N6_25 N 0.88377(12) 0.17230(15) 0.67260(15)
N7_25 N 0.82770(15) 0.17260(15) 0.61623(12)
N10_25 N 0.89775(11) 0.15378(11) 0.59496(13)
N11_25 N 0.84622(11) 0.09496(13) 0.60225(11)
H31_25 H 0.862281 0.0472496 0.686548
Co2_10 Co 0.635390(16) 0.864610(16) 0.135390(16)
N4_10 N 0.67230(15) 0.82740(15) 0.11623(12)
N8_10 N 0.65378(11) 0.90504(13) 0.10225(11)
C17_25 C 0.67312(17) 0.78928(19) 0.1248(2)
H11_25 H 0.6564 0.7769 0.1426
C19_25 C 0.70246(19) 0.7704(2) 0.1033(2)
H13_25 H 0.7097 0.7441 0.1051
C21_25 C 0.71853(17) 0.79839(17) 0.07915(19)
H15_25 H 0.7385 0.7945 0.0609
C23_25 C 0.69937(14) 0.83380(18) 0.08703(18)
C25_25 C 0.70651(14) 0.86905(16) 0.07044(13)
C27_25 C 0.68644(12) 0.90322(15) 0.07790(13)
C29_25 C 0.69187(14) 0.9398(2) 0.06060(16)
H17_25 H 0.7117 0.9465 0.0430
C31_25 C 0.66293(17) 0.96422(16) 0.07395(15)
H19_25 H 0.6587 0.9904 0.0673
C33_25 C 0.64150(15) 0.94132(13) 0.09951(16)
H21_25 H 0.6201 0.9509 0.1136
C35_25 C 0.73898(16) 0.87134(18) 0.04199(15)
C37_25 C 0.77424(18) 0.8852(3) 0.05271(18)
H23_25 H 0.7780 0.8916 0.0790
C39_25 C 0.80276(19) 0.8902(3) 0.0294(2)
H25_25 H 0.8263 0.9010 0.0381
C45_25 C 0.7334(2) 0.8610(2) 0.00453(19)
H33_25 H 0.686548 0.862281 0.0472496
N6_26 N 0.67260(15) 0.88377(12) 0.17230(15)
N7_26 N 0.61623(12) 0.82770(15) 0.17260(15)
N10_26 N 0.59496(13) 0.89775(11) 0.15378(11)
N11_26 N 0.60225(11) 0.84622(11) 0.09496(13)
N6_27 N 0.17230(15) 0.67260(15) 0.88377(12)
N7_27 N 0.17260(15) 0.61623(12) 0.82770(15)
N10_27 N 0.15378(11) 0.59496(13) 0.89775(11)
N11_27 N 0.09496(13) 0.60225(11) 0.84622(11)
Ag1_25 Ag 0.10308(4) 0.39692(4) 0.60308(4)
N3_25 N 0.1093(2) 0.4407(2) 0.6471(2)
C1_26 C 0.21072(19) 0.6248(2) 0.82688(17)
H1_26 H 0.2231 0.6426 0.8436
C2_26 C 0.2296(2) 0.6033(2) 0.79754(19)
H2_26 H 0.2559 0.6051 0.7903
C3_26 C 0.20161(17) 0.57915(19) 0.78147(17)
H3_26 H 0.2055 0.5609 0.7615
C4_26 C 0.16620(18) 0.58703(18) 0.80063(14)
C5_26 C 0.13095(16) 0.57044(13) 0.79349(14)
C6_26 C 0.09678(15) 0.57790(13) 0.81356(12)
C7_26 C 0.0602(2) 0.56060(16) 0.80813(14)
H4_26 H 0.0535 0.5430 0.7883
C8_26 C 0.03578(16) 0.57395(15) 0.83707(17)
H5_26 H 0.0096 0.5673 0.8413
C9_26 C 0.05868(13) 0.59951(16) 0.85850(15)
H6_26 H 0.0491 0.6136 0.8799
C10_26 C 0.12866(18) 0.54199(15) 0.76102(16)
C11_26 C 0.1148(3) 0.55271(18) 0.72576(18)
H7_26 H 0.1084 0.5790 0.7220
C12_26 C 0.1098(3) 0.5294(2) 0.69724(19)
H8_26 H 0.0990 0.5381 0.6737
C13_25 C 0.1210(2) 0.48969(17) 0.7019(2)
C14_25 C 0.1347(2) 0.47752(17) 0.7365(2)
H9_25 H 0.1413 0.4513 0.7403
C15_26 C 0.1390(2) 0.50453(19) 0.7666(2)
H10_25 H 0.1491 0.4966 0.7907
C16_25 C 0.1158(2) 0.4626(2) 0.6721(2)
Co2_11 Co 0.364610(16) 0.364610(16) 0.364610(16)
N4_11 N 0.32770(15) 0.32740(15) 0.38377(12)
N8_11 N 0.34622(11) 0.40504(13) 0.39775(11)
N12_25 N 0.1471(2) 0.3907(2) 0.5593(2)
N13_25 N 0.0593(2) 0.3529(2) 0.6093(2)
C17_26 C 0.32688(17) 0.28928(19) 0.3752(2)
H11_26 H 0.3436 0.2769 0.3574
C19_26 C 0.29754(19) 0.2704(2) 0.3967(2)
H13_26 H 0.2903 0.2441 0.3949
C21_26 C 0.28147(17) 0.29839(17) 0.42085(19)
H15_26 H 0.2615 0.2945 0.4391
C23_26 C 0.30063(14) 0.33380(18) 0.41297(18)
C25_26 C 0.29349(14) 0.36905(16) 0.42956(13)
C27_26 C 0.31356(12) 0.40322(15) 0.42210(13)
C29_26 C 0.30813(14) 0.4398(2) 0.43940(16)
H17_26 H 0.2883 0.4465 0.4570
C31_26 C 0.33707(17) 0.46422(16) 0.42605(15)
H19_26 H 0.3413 0.4904 0.4327
C33_26 C 0.35850(15) 0.44132(13) 0.40049(16)
H21_26 H 0.3799 0.4509 0.3864
C35_26 C 0.26102(16) 0.37134(18) 0.45801(15)
C37_26 C 0.22576(18) 0.3852(3) 0.44729(18)
H23_26 H 0.2220 0.3916 0.4210
C39_26 C 0.19724(19) 0.3902(3) 0.4706(2)
H25_26 H 0.1737 0.4010 0.4619
C41_25 C 0.2019(2) 0.3790(2) 0.51031(17)
C42_25 C 0.01031(17) 0.2981(2) 0.6210(2)
C43_25 C 0.2365(2) 0.3653(2) 0.52248(17)
C44_25 C 0.02248(17) 0.2635(2) 0.6347(2)
H27_25 H 0.2403 0.3587 0.5487
H28_25 H 0.0487 0.2597 0.6413
C45_26 C 0.2666(2) 0.3610(2) 0.49547(19)
H29_25 H 0.2907 0.3509 0.5034
H30_25 H 0.0034 0.2093 0.6491
C47_25 C 0.1721(2) 0.3842(2) 0.5374(2)
C48_25 C 0.0374(2) 0.3279(2) 0.6158(2)
H31_26 H 0.137719 0.54725 0.813452
H33_26 H 0.313452 0.362281 0.45275
C18_26 C 0.8752(2) 0.17312(17) 0.71072(19)
H12_26 H 0.8574 0.1564 0.7231
C20_26 C 0.8967(2) 0.20246(19) 0.7296(2)
H14_26 H 0.8949 0.2097 0.7559
C22_26 C 0.92085(19) 0.21853(17) 0.70161(17)
H16_26 H 0.9391 0.2385 0.7055
C24_26 C 0.91297(18) 0.19937(14) 0.66620(18)
C26_26 C 0.92956(13) 0.20651(14) 0.63095(16)
C28_26 C 0.92210(13) 0.18644(12) 0.59678(15)
C30_26 C 0.93940(16) 0.19187(14) 0.5602(2)
H18_26 H 0.9570 0.2117 0.5535
C32_26 C 0.92605(15) 0.16293(17) 0.53578(16)
H20_26 H 0.9327 0.1587 0.5096
C34_26 C 0.90049(16) 0.14150(15) 0.55868(13)
H22_26 H 0.8864 0.1201 0.5491
C36_26 C 0.95801(15) 0.23898(16) 0.62866(18)
C38_26 C 0.94729(18) 0.27424(18) 0.6148(3)
H24_26 H 0.9210 0.2780 0.6084
C40_26 C 0.9706(2) 0.30276(19) 0.6098(3)
H26_26 H 0.9619 0.3263 0.5990
C46_26 C 0.99547(19) 0.2334(2) 0.6390(2)
H32_26 H 0.95275 0.186548 0.637719
N6_28 N 0.32740(15) 0.38377(12) 0.32770(15)
N7_28 N 0.38377(12) 0.32770(15) 0.32740(15)
N10_28 N 0.40504(13) 0.39775(11) 0.34622(11)
N11_28 N 0.39775(11) 0.34622(11) 0.40504(13)
Ag1_26 Ag 0.60308(4) 0.10308(4) 0.39692(4)
N3_26 N 0.6093(2) 0.0593(2) 0.3529(2)
C13_26 C 0.6210(2) 0.01031(17) 0.2981(2)
C14_26 C 0.6347(2) 0.02248(17) 0.2635(2)
H9_26 H 0.6413 0.0487 0.2597
H10_26 H 0.6491 0.0034 0.2093
C16_26 C 0.6158(2) 0.0374(2) 0.3279(2)
N12_26 N 0.6471(2) 0.1093(2) 0.4407(2)
N13_26 N 0.5593(2) 0.1471(2) 0.3907(2)
C17_27 C 0.82688(17) 0.21072(19) 0.6248(2)
C18_27 C 0.3752(2) 0.32688(17) 0.28928(19)
H11_27 H 0.8436 0.2231 0.6426
H12_27 H 0.3574 0.3436 0.2769
C19_27 C 0.79754(19) 0.2296(2) 0.6033(2)
C20_27 C 0.3967(2) 0.29754(19) 0.2704(2)
H13_27 H 0.7903 0.2559 0.6051
H14_27 H 0.3949 0.2903 0.2441
C21_27 C 0.78147(17) 0.20161(17) 0.57915(19)
C22_27 C 0.42085(19) 0.28147(17) 0.29839(17)
H15_27 H 0.7615 0.2055 0.5609
H16_27 H 0.4391 0.2615 0.2945
C23_27 C 0.80063(14) 0.16620(18) 0.58703(18)
C24_27 C 0.41297(18) 0.30063(14) 0.33380(18)
C25_27 C 0.79349(14) 0.13095(16) 0.57044(13)
C26_27 C 0.42956(13) 0.29349(14) 0.36905(16)
C27_27 C 0.81356(12) 0.09678(15) 0.57790(13)
C28_27 C 0.42210(13) 0.31356(12) 0.40322(15)
C29_27 C 0.80813(14) 0.0602(2) 0.56060(16)
C30_27 C 0.43940(16) 0.30813(14) 0.4398(2)
H17_27 H 0.7883 0.0535 0.5430
H18_27 H 0.4570 0.2883 0.4465
C31_27 C 0.83707(17) 0.03578(16) 0.57395(15)
C32_27 C 0.42605(15) 0.33707(17) 0.46422(16)
H19_27 H 0.8413 0.0096 0.5673
H20_27 H 0.4327 0.3413 0.4904
C33_27 C 0.85850(15) 0.05868(13) 0.59951(16)
C34_27 C 0.40049(16) 0.35850(15) 0.44132(13)
H21_27 H 0.8799 0.0491 0.6136
H22_27 H 0.3864 0.3799 0.4509
C35_27 C 0.76102(16) 0.12866(18) 0.54199(15)
C36_27 C 0.45801(15) 0.26102(16) 0.37134(18)
C37_27 C 0.72576(18) 0.1148(3) 0.55271(18)
C38_27 C 0.44729(18) 0.22576(18) 0.3852(3)
H23_27 H 0.7220 0.1084 0.5790
H24_27 H 0.4210 0.2220 0.3916
C39_27 C 0.69724(19) 0.1098(3) 0.5294(2)
C40_27 C 0.4706(2) 0.19724(19) 0.3902(3)
H25_27 H 0.6737 0.0990 0.5381
H26_27 H 0.4619 0.1737 0.4010
C41_26 C 0.7019(2) 0.1210(2) 0.48969(17)
C42_26 C 0.51031(17) 0.2019(2) 0.3790(2)
C43_26 C 0.7365(2) 0.1347(2) 0.47752(17)
C44_26 C 0.52248(17) 0.2365(2) 0.3653(2)
H27_26 H 0.7403 0.1413 0.4513
H28_26 H 0.5487 0.2403 0.3587
C45_27 C 0.7666(2) 0.1390(2) 0.50453(19)
C46_27 C 0.49547(19) 0.2666(2) 0.3610(2)
H29_26 H 0.7907 0.1491 0.4966
H30_26 H 0.5034 0.2907 0.3509
C47_26 C 0.6721(2) 0.1158(2) 0.4626(2)
C48_26 C 0.5374(2) 0.1721(2) 0.3842(2)
H32_27 H 0.45275 0.313452 0.362281
H33_27 H 0.813452 0.137719 0.54725
C1_27 C 0.71072(19) 0.8752(2) 0.17312(17)
H1_27 H 0.7231 0.8574 0.1564
C2_27 C 0.7296(2) 0.8967(2) 0.20246(19)
H2_27 H 0.7559 0.8949 0.2097
C3_27 C 0.70161(17) 0.92085(19) 0.21853(17)
H3_27 H 0.7055 0.9391 0.2385
C4_27 C 0.66620(18) 0.91297(18) 0.19937(14)
C5_27 C 0.63095(16) 0.92956(13) 0.20651(14)
C6_27 C 0.59678(15) 0.92210(13) 0.18644(12)
C7_27 C 0.5602(2) 0.93940(16) 0.19187(14)
H4_27 H 0.5535 0.9570 0.2117
C8_27 C 0.53578(16) 0.92605(15) 0.16293(17)
H5_27 H 0.5096 0.9327 0.1587
C9_27 C 0.55868(13) 0.90049(16) 0.14150(15)
H6_27 H 0.5491 0.8864 0.1201
C10_27 C 0.62866(18) 0.95801(15) 0.23898(16)
C11_27 C 0.6148(3) 0.94729(18) 0.27424(18)
H7_27 H 0.6084 0.9210 0.2780
C12_27 C 0.6098(3) 0.9706(2) 0.30276(19)
H8_27 H 0.5990 0.9619 0.3263
C15_27 C 0.6390(2) 0.99547(19) 0.2334(2)
H31_27 H 0.637719 0.95275 0.186548
Ag1_27 Ag 0.39692(4) 0.60308(4) 0.10308(4)
N3_27 N 0.3907(2) 0.5593(2) 0.1471(2)
C1_28 C 0.28928(19) 0.3752(2) 0.32688(17)
H1_28 H 0.2769 0.3574 0.3436
C2_28 C 0.2704(2) 0.3967(2) 0.29754(19)
H2_28 H 0.2441 0.3949 0.2903
C3_28 C 0.29839(17) 0.42085(19) 0.28147(17)
H3_28 H 0.2945 0.4391 0.2615
C4_28 C 0.33380(18) 0.41297(18) 0.30063(14)
C5_28 C 0.36905(16) 0.42956(13) 0.29349(14)
C6_28 C 0.40322(15) 0.42210(13) 0.31356(12)
C7_28 C 0.4398(2) 0.43940(16) 0.30813(14)
H4_28 H 0.4465 0.4570 0.2883
C8_28 C 0.46422(16) 0.42605(15) 0.33707(17)
H5_28 H 0.4904 0.4327 0.3413
C9_28 C 0.44132(13) 0.40049(16) 0.35850(15)
H6_28 H 0.4509 0.3864 0.3799
C10_28 C 0.37134(18) 0.45801(15) 0.26102(16)
C11_28 C 0.3852(3) 0.44729(18) 0.22576(18)
H7_28 H 0.3916 0.4210 0.2220
C12_28 C 0.3902(3) 0.4706(2) 0.19724(19)
H8_28 H 0.4010 0.4619 0.1737
C13_27 C 0.3790(2) 0.51031(17) 0.2019(2)
C14_27 C 0.3653(2) 0.52248(17) 0.2365(2)
H9_27 H 0.3587 0.5487 0.2403
C15_28 C 0.3610(2) 0.49547(19) 0.2666(2)
H10_27 H 0.3509 0.5034 0.2907
C16_27 C 0.3842(2) 0.5374(2) 0.1721(2)
N12_27 N 0.3529(2) 0.6093(2) 0.0593(2)
N13_27 N 0.4407(2) 0.6471(2) 0.1093(2)
C18_28 C 0.6248(2) 0.82688(17) 0.21072(19)
H12_28 H 0.6426 0.8436 0.2231
C20_28 C 0.6033(2) 0.79754(19) 0.2296(2)
H14_28 H 0.6051 0.7903 0.2559
C22_28 C 0.57915(19) 0.78147(17) 0.20161(17)
H16_28 H 0.5609 0.7615 0.2055
C24_28 C 0.58703(18) 0.80063(14) 0.16620(18)
C26_28 C 0.57044(13) 0.79349(14) 0.13095(16)
C28_28 C 0.57790(13) 0.81356(12) 0.09678(15)
C30_28 C 0.56060(16) 0.80813(14) 0.0602(2)
H18_28 H 0.5430 0.7883 0.0535
C32_28 C 0.57395(15) 0.83707(17) 0.03578(16)
H20_28 H 0.5673 0.8413 0.0096
C34_28 C 0.59951(16) 0.85850(15) 0.05868(13)
H22_28 H 0.6136 0.8799 0.0491
C36_28 C 0.54199(15) 0.76102(16) 0.12866(18)
C38_28 C 0.55271(18) 0.72576(18) 0.1148(3)
H24_28 H 0.5790 0.7220 0.1084
C40_28 C 0.5294(2) 0.69724(19) 0.1098(3)
H26_28 H 0.5381 0.6737 0.0990
C41_27 C 0.2981(2) 0.6210(2) 0.01031(17)
C42_27 C 0.48969(17) 0.7019(2) 0.1210(2)
C43_27 C 0.2635(2) 0.6347(2) 0.02248(17)
C44_27 C 0.47752(17) 0.7365(2) 0.1347(2)
H27_27 H 0.2597 0.6413 0.0487
H28_27 H 0.4513 0.7403 0.1413
C46_28 C 0.50453(19) 0.7666(2) 0.1390(2)
H29_27 H 0.2093 0.6491 0.0034
H30_27 H 0.4966 0.7907 0.1491
C47_27 C 0.3279(2) 0.6158(2) 0.0374(2)
C48_27 C 0.4626(2) 0.6721(2) 0.1158(2)
H31_28 H 0.362281 0.45275 0.313452
H32_28 H 0.54725 0.813452 0.137719
C17_28 C 0.17312(17) 0.71072(19) 0.8752(2)
H11_28 H 0.1564 0.7231 0.8574
C19_28 C 0.20246(19) 0.7296(2) 0.8967(2)
H13_28 H 0.2097 0.7559 0.8949
C21_28 C 0.21853(17) 0.70161(17) 0.92085(19)
H15_28 H 0.2385 0.7055 0.9391
C23_28 C 0.19937(14) 0.66620(18) 0.91297(18)
C25_28 C 0.20651(14) 0.63095(16) 0.92956(13)
C27_28 C 0.18644(12) 0.59678(15) 0.92210(13)
C29_28 C 0.19187(14) 0.5602(2) 0.93940(16)
H17_28 H 0.2117 0.5535 0.9570
C31_28 C 0.16293(17) 0.53578(16) 0.92605(15)
H19_28 H 0.1587 0.5096 0.9327
C33_28 C 0.14150(15) 0.55868(13) 0.90049(16)
H21_28 H 0.1201 0.5491 0.8864
C35_28 C 0.23898(16) 0.62866(18) 0.95801(15)
C37_28 C 0.27424(18) 0.6148(3) 0.94729(18)
H23_28 H 0.2780 0.6084 0.9210
C39_28 C 0.30276(19) 0.6098(3) 0.9706(2)
H25_28 H 0.3263 0.5990 0.9619
C45_28 C 0.2334(2) 0.6390(2) 0.99547(19)
H33_28 H 0.186548 0.637719 0.95275
Ag1_28 Ag 0.89692(4) 0.89692(4) 0.89692(4)
N3_28 N 0.8907(2) 0.9407(2) 0.8529(2)
C13_28 C 0.8790(2) 0.98969(17) 0.7981(2)
C14_28 C 0.8653(2) 0.97752(17) 0.7635(2)
H9_28 H 0.8587 0.9513 0.7597
H10_28 H 0.8509 0.9966 0.7093
C16_28 C 0.8842(2) 0.9626(2) 0.8279(2)
N12_28 N 0.8529(2) 0.8907(2) 0.9407(2)
N13_28 N 0.9407(2) 0.8529(2) 0.8907(2)
C41_28 C 0.7981(2) 0.8790(2) 0.98969(17)
C42_28 C 0.98969(17) 0.7981(2) 0.8790(2)
C43_28 C 0.7635(2) 0.8653(2) 0.97752(17)
C44_28 C 0.97752(17) 0.7635(2) 0.8653(2)
H27_28 H 0.7597 0.8587 0.9513
H28_28 H 0.9513 0.7597 0.8587
H29_28 H 0.7093 0.8509 0.9966
H30_28 H 0.9966 0.7093 0.8509
C47_28 C 0.8279(2) 0.8842(2) 0.9626(2)
C48_28 C 0.9626(2) 0.8279(2) 0.8842(2)
Co3_11 Co 0.364610(16) 0.135390(16) 0.864610(16)
N5_11 N 0.32770(15) 0.11623(12) 0.82740(15)
N9_11 N 0.34622(11) 0.10225(11) 0.90504(13)
C18_29 C 0.32688(17) 0.1248(2) 0.78928(19)
H12_29 H 0.3436 0.1426 0.7769
C20_29 C 0.29754(19) 0.1033(2) 0.7704(2)
H14_29 H 0.2903 0.1051 0.7441
C22_29 C 0.28147(17) 0.07915(19) 0.79839(17)
H16_29 H 0.2615 0.0609 0.7945
C24_29 C 0.30063(14) 0.08703(18) 0.83380(18)
C26_29 C 0.29349(14) 0.07044(13) 0.86905(16)
C28_29 C 0.31356(12) 0.07790(13) 0.90322(15)
C30_29 C 0.30813(14) 0.06060(16) 0.9398(2)
H18_29 H 0.2883 0.0430 0.9465
C32_29 C 0.33707(17) 0.07395(15) 0.96422(16)
H20_29 H 0.3413 0.0673 0.9904
C34_29 C 0.35850(15) 0.09951(16) 0.94132(13)
H22_29 H 0.3799 0.1136 0.9509
C36_29 C 0.26102(16) 0.04199(15) 0.87134(18)
C38_29 C 0.22576(18) 0.05271(18) 0.8852(3)
H24_29 H 0.2220 0.0790 0.8916
C40_29 C 0.19724(19) 0.0294(2) 0.8902(3)
H26_29 H 0.1737 0.0381 0.9010
C46_29 C 0.2666(2) 0.00453(19) 0.8610(2)
H32_29 H 0.313452 0.0472496 0.862281
Co2_12 Co 0.135390(16) 0.635390(16) 0.135390(16)
N4_12 N 0.17260(15) 0.67230(15) 0.11623(12)
N8_12 N 0.09496(13) 0.65378(11) 0.10225(11)
C17_29 C 0.21072(19) 0.67312(17) 0.1248(2)
H11_29 H 0.2231 0.6564 0.1426
C19_29 C 0.2296(2) 0.70246(19) 0.1033(2)
H13_29 H 0.2559 0.7097 0.1051
C21_29 C 0.20161(17) 0.71853(17) 0.07915(19)
H15_29 H 0.2055 0.7385 0.0609
C23_29 C 0.16620(18) 0.69937(14) 0.08703(18)
C25_29 C 0.13095(16) 0.70651(14) 0.07044(13)
C27_29 C 0.09678(15) 0.68644(12) 0.07790(13)
C29_29 C 0.0602(2) 0.69187(14) 0.06060(16)
H17_29 H 0.0535 0.7117 0.0430
C31_29 C 0.03578(16) 0.66293(17) 0.07395(15)
H19_29 H 0.0096 0.6587 0.0673
C33_29 C 0.05868(13) 0.64150(15) 0.09951(16)
H21_29 H 0.0491 0.6201 0.1136
C35_29 C 0.12866(18) 0.73898(16) 0.04199(15)
C37_29 C 0.1148(3) 0.77424(18) 0.05271(18)
H23_29 H 0.1084 0.7780 0.0790
C39_29 C 0.1098(3) 0.80276(19) 0.0294(2)
H25_29 H 0.0990 0.8263 0.0381
C45_29 C 0.1390(2) 0.7334(2) 0.00453(19)
H33_29 H 0.137719 0.686548 0.0472496
Co1_8 Co 0.864610(16) 0.864610(16) 0.635390(16)
N1_8 N 0.88377(12) 0.82740(15) 0.67230(15)
N2_8 N 0.89775(11) 0.90504(13) 0.65378(11)
C1_29 C 0.8752(2) 0.78928(19) 0.67312(17)
H1_29 H 0.8574 0.7769 0.6564
C2_29 C 0.8967(2) 0.7704(2) 0.70246(19)
H2_29 H 0.8949 0.7441 0.7097
C3_29 C 0.92085(19) 0.79839(17) 0.71853(17)
H3_29 H 0.9391 0.7945 0.7385
C4_29 C 0.91297(18) 0.83380(18) 0.69937(14)
C5_29 C 0.92956(13) 0.86905(16) 0.70651(14)
C6_29 C 0.92210(13) 0.90322(15) 0.68644(12)
C7_29 C 0.93940(16) 0.9398(2) 0.69187(14)
H4_29 H 0.9570 0.9465 0.7117
C8_29 C 0.92605(15) 0.96422(16) 0.66293(17)
H5_29 H 0.9327 0.9904 0.6587
C9_29 C 0.90049(16) 0.94132(13) 0.64150(15)
H6_29 H 0.8864 0.9509 0.6201
C10_29 C 0.95801(15) 0.87134(18) 0.73898(16)
C11_29 C 0.94729(18) 0.8852(3) 0.77424(18)
H7_29 H 0.9210 0.8916 0.7780
C12_29 C 0.9706(2) 0.8902(3) 0.80276(19)
H8_29 H 0.9619 0.9010 0.8263
C15_29 C 0.99547(19) 0.8610(2) 0.7334(2)
N6_29 N 0.82770(15) 0.88377(12) 0.67260(15)
N7_29 N 0.82740(15) 0.82770(15) 0.61623(12)
N10_29 N 0.84622(11) 0.89775(11) 0.59496(13)
N11_29 N 0.90504(13) 0.84622(11) 0.60225(11)
H31_29 H 0.95275 0.862281 0.686548
N6_30 N 0.11623(12) 0.67260(15) 0.17230(15)
N7_30 N 0.17230(15) 0.61623(12) 0.17260(15)
N10_30 N 0.10225(11) 0.59496(13) 0.15378(11)
N11_30 N 0.15378(11) 0.60225(11) 0.09496(13)
N6_31 N 0.32740(15) 0.17230(15) 0.88377(12)
N7_31 N 0.38377(12) 0.17260(15) 0.82770(15)
N10_31 N 0.40504(13) 0.15378(11) 0.89775(11)
N11_31 N 0.39775(11) 0.09496(13) 0.84622(11)
C1_30 C 0.1248(2) 0.71072(19) 0.17312(17)
H1_30 H 0.1426 0.7231 0.1564
C2_30 C 0.1033(2) 0.7296(2) 0.20246(19)
H2_30 H 0.1051 0.7559 0.2097
C3_30 C 0.07915(19) 0.70161(17) 0.21853(17)
H3_30 H 0.0609 0.7055 0.2385
C4_30 C 0.08703(18) 0.66620(18) 0.19937(14)
C5_30 C 0.07044(13) 0.63095(16) 0.20651(14)
C6_30 C 0.07790(13) 0.59678(15) 0.18644(12)
C7_30 C 0.06060(16) 0.5602(2) 0.19187(14)
H4_30 H 0.0430 0.5535 0.2117
C8_30 C 0.07395(15) 0.53578(16) 0.16293(17)
H5_30 H 0.0673 0.5096 0.1587
C9_30 C 0.09951(16) 0.55868(13) 0.14150(15)
H6_30 H 0.1136 0.5491 0.1201
C10_30 C 0.04199(15) 0.62866(18) 0.23898(16)
C11_30 C 0.05271(18) 0.6148(3) 0.27424(18)
H7_30 H 0.0790 0.6084 0.2780
C12_30 C 0.0294(2) 0.6098(3) 0.30276(19)
H8_30 H 0.0381 0.5990 0.3263
C15_30 C 0.00453(19) 0.6390(2) 0.2334(2)
H31_30 H 0.0472496 0.637719 0.186548
Ag1_29 Ag 0.89692(4) 0.60308(4) 0.39692(4)
N3_29 N 0.9407(2) 0.6093(2) 0.3529(2)
C13_29 C 0.98969(17) 0.6210(2) 0.2981(2)
C14_29 C 0.97752(17) 0.6347(2) 0.2635(2)
H9_29 H 0.9513 0.6413 0.2597
H10_29 H 0.9966 0.6491 0.2093
C16_29 C 0.9626(2) 0.6158(2) 0.3279(2)
Co3_12 Co 0.635390(16) 0.364610(16) 0.364610(16)
N5_12 N 0.67230(15) 0.38377(12) 0.32740(15)
N9_12 N 0.65378(11) 0.39775(11) 0.40504(13)
N12_29 N 0.8907(2) 0.6471(2) 0.4407(2)
N13_29 N 0.8529(2) 0.5593(2) 0.3907(2)
C17_30 C 0.78928(19) 0.82688(17) 0.6248(2)
C18_30 C 0.67312(17) 0.3752(2) 0.28928(19)
H11_30 H 0.7769 0.8436 0.6426
H12_30 H 0.6564 0.3574 0.2769
C19_30 C 0.7704(2) 0.79754(19) 0.6033(2)
C20_30 C 0.70246(19) 0.3967(2) 0.2704(2)
H13_30 H 0.7441 0.7903 0.6051
H14_30 H 0.7097 0.3949 0.2441
C21_30 C 0.79839(17) 0.78147(17) 0.57915(19)
C22_30 C 0.71853(17) 0.42085(19) 0.29839(17)
H15_30 H 0.7945 0.7615 0.5609
H16_30 H 0.7385 0.4391 0.2945
C23_30 C 0.83380(18) 0.80063(14) 0.58703(18)
C24_30 C 0.69937(14) 0.41297(18) 0.33380(18)
C25_30 C 0.86905(16) 0.79349(14) 0.57044(13)
C26_30 C 0.70651(14) 0.42956(13) 0.36905(16)
C27_30 C 0.90322(15) 0.81356(12) 0.57790(13)
C28_30 C 0.68644(12) 0.42210(13) 0.40322(15)
C29_30 C 0.9398(2) 0.80813(14) 0.56060(16)
C30_30 C 0.69187(14) 0.43940(16) 0.4398(2)
H17_30 H 0.9465 0.7883 0.5430
H18_30 H 0.7117 0.4570 0.4465
C31_30 C 0.96422(16) 0.83707(17) 0.57395(15)
C32_30 C 0.66293(17) 0.42605(15) 0.46422(16)
H19_30 H 0.9904 0.8413 0.5673
H20_30 H 0.6587 0.4327 0.4904
C33_30 C 0.94132(13) 0.85850(15) 0.59951(16)
C34_30 C 0.64150(15) 0.40049(16) 0.44132(13)
H21_30 H 0.9509 0.8799 0.6136
H22_30 H 0.6201 0.3864 0.4509
C35_30 C 0.87134(18) 0.76102(16) 0.54199(15)
C36_30 C 0.73898(16) 0.45801(15) 0.37134(18)
C37_30 C 0.8852(3) 0.72576(18) 0.55271(18)
C38_30 C 0.77424(18) 0.44729(18) 0.3852(3)
H23_30 H 0.8916 0.7220 0.5790
H24_30 H 0.7780 0.4210 0.3916
C39_30 C 0.8902(3) 0.69724(19) 0.5294(2)
C40_30 C 0.80276(19) 0.4706(2) 0.3902(3)
H25_30 H 0.9010 0.6737 0.5381
H26_30 H 0.8263 0.4619 0.4010
C41_29 C 0.8790(2) 0.7019(2) 0.48969(17)
C42_29 C 0.7981(2) 0.51031(17) 0.3790(2)
C43_29 C 0.8653(2) 0.7365(2) 0.47752(17)
C44_29 C 0.7635(2) 0.52248(17) 0.3653(2)
H27_29 H 0.8587 0.7403 0.4513
H28_29 H 0.7597 0.5487 0.3587
C45_30 C 0.8610(2) 0.7666(2) 0.50453(19)
C46_30 C 0.7334(2) 0.49547(19) 0.3610(2)
H29_29 H 0.8509 0.7907 0.4966
H30_29 H 0.7093 0.5034 0.3509
C47_29 C 0.8842(2) 0.6721(2) 0.4626(2)
C48_29 C 0.8279(2) 0.5374(2) 0.3842(2)
H32_30 H 0.686548 0.45275 0.362281
H33_30 H 0.862281 0.813452 0.54725
N6_32 N 0.67260(15) 0.32770(15) 0.38377(12)
N7_32 N 0.61623(12) 0.32740(15) 0.32770(15)
N10_32 N 0.59496(13) 0.34622(11) 0.39775(11)
N11_32 N 0.60225(11) 0.40504(13) 0.34622(11)
Ag1_30 Ag 0.60308(4) 0.10308(4) 0.60308(4)
N3_30 N 0.5593(2) 0.1093(2) 0.6471(2)
C1_31 C 0.3752(2) 0.21072(19) 0.82688(17)
H1_31 H 0.3574 0.2231 0.8436
C2_31 C 0.3967(2) 0.2296(2) 0.79754(19)
H2_31 H 0.3949 0.2559 0.7903
C3_31 C 0.42085(19) 0.20161(17) 0.78147(17)
H3_31 H 0.4391 0.2055 0.7615
C4_31 C 0.41297(18) 0.16620(18) 0.80063(14)
C5_31 C 0.42956(13) 0.13095(16) 0.79349(14)
C6_31 C 0.42210(13) 0.09678(15) 0.81356(12)
C7_31 C 0.43940(16) 0.0602(2) 0.80813(14)
H4_31 H 0.4570 0.0535 0.7883
C8_31 C 0.42605(15) 0.03578(16) 0.83707(17)
H5_31 H 0.4327 0.0096 0.8413
C9_31 C 0.40049(16) 0.05868(13) 0.85850(15)
H6_31 H 0.3864 0.0491 0.8799
C10_31 C 0.45801(15) 0.12866(18) 0.76102(16)
C11_31 C 0.44729(18) 0.1148(3) 0.72576(18)
H7_31 H 0.4210 0.1084 0.7220
C12_31 C 0.4706(2) 0.1098(3) 0.69724(19)
H8_31 H 0.4619 0.0990 0.6737
C13_30 C 0.51031(17) 0.1210(2) 0.7019(2)
C14_30 C 0.52248(17) 0.1347(2) 0.7365(2)
H9_30 H 0.5487 0.1413 0.7403
C15_31 C 0.49547(19) 0.1390(2) 0.7666(2)
H10_30 H 0.5034 0.1491 0.7907
C16_30 C 0.5374(2) 0.1158(2) 0.6721(2)
N12_30 N 0.6093(2) 0.1471(2) 0.5593(2)
N13_30 N 0.6471(2) 0.0593(2) 0.6093(2)
C17_31 C 0.71072(19) 0.32688(17) 0.3752(2)
H11_31 H 0.7231 0.3436 0.3574
C19_31 C 0.7296(2) 0.29754(19) 0.3967(2)
H13_31 H 0.7559 0.2903 0.3949
C21_31 C 0.70161(17) 0.28147(17) 0.42085(19)
H15_31 H 0.7055 0.2615 0.4391
C23_31 C 0.66620(18) 0.30063(14) 0.41297(18)
C25_31 C 0.63095(16) 0.29349(14) 0.42956(13)
C27_31 C 0.59678(15) 0.31356(12) 0.42210(13)
C29_31 C 0.5602(2) 0.30813(14) 0.43940(16)
H17_31 H 0.5535 0.2883 0.4570
C31_31 C 0.53578(16) 0.33707(17) 0.42605(15)
H19_31 H 0.5096 0.3413 0.4327
C33_31 C 0.55868(13) 0.35850(15) 0.40049(16)
H21_31 H 0.5491 0.3799 0.3864
C35_31 C 0.62866(18) 0.26102(16) 0.45801(15)
C37_31 C 0.6148(3) 0.22576(18) 0.44729(18)
H23_31 H 0.6084 0.2220 0.4210
C39_31 C 0.6098(3) 0.19724(19) 0.4706(2)
H25_31 H 0.5990 0.1737 0.4619
C41_30 C 0.6210(2) 0.2019(2) 0.51031(17)
C42_30 C 0.7019(2) 0.01031(17) 0.6210(2)
C43_30 C 0.6347(2) 0.2365(2) 0.52248(17)
C44_30 C 0.7365(2) 0.02248(17) 0.6347(2)
H27_30 H 0.6413 0.2403 0.5487
H28_30 H 0.7403 0.0487 0.6413
C45_31 C 0.6390(2) 0.2666(2) 0.49547(19)
H29_30 H 0.6491 0.2907 0.5034
H30_30 H 0.7907 0.0034 0.6491
C47_30 C 0.6158(2) 0.1721(2) 0.5374(2)
C48_30 C 0.6721(2) 0.0374(2) 0.6158(2)
H31_31 H 0.45275 0.137719 0.813452
H33_31 H 0.637719 0.313452 0.45275
C18_31 C 0.82688(17) 0.8752(2) 0.71072(19)
H12_31 H 0.8436 0.8574 0.7231
C20_31 C 0.79754(19) 0.8967(2) 0.7296(2)
H14_31 H 0.7903 0.8949 0.7559
C22_31 C 0.78147(17) 0.92085(19) 0.70161(17)
H16_31 H 0.7615 0.9391 0.7055
C24_31 C 0.80063(14) 0.91297(18) 0.66620(18)
C26_31 C 0.79349(14) 0.92956(13) 0.63095(16)
C28_31 C 0.81356(12) 0.92210(13) 0.59678(15)
C30_31 C 0.80813(14) 0.93940(16) 0.5602(2)
H18_31 H 0.7883 0.9570 0.5535
C32_31 C 0.83707(17) 0.92605(15) 0.53578(16)
H20_31 H 0.8413 0.9327 0.5096
C34_31 C 0.85850(15) 0.90049(16) 0.55868(13)
H22_31 H 0.8799 0.8864 0.5491
C36_31 C 0.76102(16) 0.95801(15) 0.62866(18)
C38_31 C 0.72576(18) 0.94729(18) 0.6148(3)
H24_31 H 0.7220 0.9210 0.6084
C40_31 C 0.69724(19) 0.9706(2) 0.6098(3)
H26_31 H 0.6737 0.9619 0.5990
C46_31 C 0.7666(2) 0.99547(19) 0.6390(2)
H32_31 H 0.813452 0.95275 0.637719
Ag1_31 Ag 0.39692(4) 0.39692(4) 0.10308(4)
N3_31 N 0.4407(2) 0.3907(2) 0.1471(2)
C1_32 C 0.6248(2) 0.28928(19) 0.32688(17)
H1_32 H 0.6426 0.2769 0.3436
C2_32 C 0.6033(2) 0.2704(2) 0.29754(19)
H2_32 H 0.6051 0.2441 0.2903
C3_32 C 0.57915(19) 0.29839(17) 0.28147(17)
H3_32 H 0.5609 0.2945 0.2615
C4_32 C 0.58703(18) 0.33380(18) 0.30063(14)
C5_32 C 0.57044(13) 0.36905(16) 0.29349(14)
C6_32 C 0.57790(13) 0.40322(15) 0.31356(12)
C7_32 C 0.56060(16) 0.4398(2) 0.30813(14)
H4_32 H 0.5430 0.4465 0.2883
C8_32 C 0.57395(15) 0.46422(16) 0.33707(17)
H5_32 H 0.5673 0.4904 0.3413
C9_32 C 0.59951(16) 0.44132(13) 0.35850(15)
H6_32 H 0.6136 0.4509 0.3799
C10_32 C 0.54199(15) 0.37134(18) 0.26102(16)
C11_32 C 0.55271(18) 0.3852(3) 0.22576(18)
H7_32 H 0.5790 0.3916 0.2220
C12_32 C 0.5294(2) 0.3902(3) 0.19724(19)
H8_32 H 0.5381 0.4010 0.1737
C13_31 C 0.48969(17) 0.3790(2) 0.2019(2)
C14_31 C 0.47752(17) 0.3653(2) 0.2365(2)
H9_31 H 0.4513 0.3587 0.2403
C15_32 C 0.50453(19) 0.3610(2) 0.2666(2)
H10_31 H 0.4966 0.3509 0.2907
C16_31 C 0.4626(2) 0.3842(2) 0.1721(2)
N12_31 N 0.3907(2) 0.3529(2) 0.0593(2)
N13_31 N 0.3529(2) 0.4407(2) 0.1093(2)
C18_32 C 0.17312(17) 0.6248(2) 0.21072(19)
H12_32 H 0.1564 0.6426 0.2231
C20_32 C 0.20246(19) 0.6033(2) 0.2296(2)
H14_32 H 0.2097 0.6051 0.2559
C22_32 C 0.21853(17) 0.57915(19) 0.20161(17)
H16_32 H 0.2385 0.5609 0.2055
C24_32 C 0.19937(14) 0.58703(18) 0.16620(18)
C26_32 C 0.20651(14) 0.57044(13) 0.13095(16)
C28_32 C 0.18644(12) 0.57790(13) 0.09678(15)
C30_32 C 0.19187(14) 0.56060(16) 0.0602(2)
H18_32 H 0.2117 0.5430 0.0535
C32_32 C 0.16293(17) 0.57395(15) 0.03578(16)
H20_32 H 0.1587 0.5673 0.0096
C34_32 C 0.14150(15) 0.59951(16) 0.05868(13)
H22_32 H 0.1201 0.6136 0.0491
C36_32 C 0.23898(16) 0.54199(15) 0.12866(18)
C38_32 C 0.27424(18) 0.55271(18) 0.1148(3)
H24_32 H 0.2780 0.5790 0.1084
C40_32 C 0.30276(19) 0.5294(2) 0.1098(3)
H26_32 H 0.3263 0.5381 0.0990
C41_31 C 0.3790(2) 0.2981(2) 0.01031(17)
C42_31 C 0.2981(2) 0.48969(17) 0.1210(2)
C43_31 C 0.3653(2) 0.2635(2) 0.02248(17)
C44_31 C 0.2635(2) 0.47752(17) 0.1347(2)
H27_31 H 0.3587 0.2597 0.0487
H28_31 H 0.2597 0.4513 0.1413
C46_32 C 0.2334(2) 0.50453(19) 0.1390(2)
H29_31 H 0.3509 0.2093 0.0034
H30_31 H 0.2093 0.4966 0.1491
C47_31 C 0.3842(2) 0.3279(2) 0.0374(2)
C48_31 C 0.3279(2) 0.4626(2) 0.1158(2)
H31_32 H 0.54725 0.362281 0.313452
H32_32 H 0.186548 0.54725 0.137719
C17_32 C 0.28928(19) 0.17312(17) 0.8752(2)
H11_32 H 0.2769 0.1564 0.8574
C19_32 C 0.2704(2) 0.20246(19) 0.8967(2)
H13_32 H 0.2441 0.2097 0.8949
C21_32 C 0.29839(17) 0.21853(17) 0.92085(19)
H15_32 H 0.2945 0.2385 0.9391
C23_32 C 0.33380(18) 0.19937(14) 0.91297(18)
C25_32 C 0.36905(16) 0.20651(14) 0.92956(13)
C27_32 C 0.40322(15) 0.18644(12) 0.92210(13)
C29_32 C 0.4398(2) 0.19187(14) 0.93940(16)
H17_32 H 0.4465 0.2117 0.9570
C31_32 C 0.46422(16) 0.16293(17) 0.92605(15)
H19_32 H 0.4904 0.1587 0.9327
C33_32 C 0.44132(13) 0.14150(15) 0.90049(16)
H21_32 H 0.4509 0.1201 0.8864
C35_32 C 0.37134(18) 0.23898(16) 0.95801(15)
C37_32 C 0.3852(3) 0.27424(18) 0.94729(18)
H23_32 H 0.3916 0.2780 0.9210
C39_32 C 0.3902(3) 0.30276(19) 0.9706(2)
H25_32 H 0.4010 0.3263 0.9619
C45_32 C 0.3610(2) 0.2334(2) 0.99547(19)
H33_32 H 0.362281 0.186548 0.95275
Ag1_32 Ag 0.10308(4) 0.89692(4) 0.89692(4)
N3_32 N 0.0593(2) 0.8907(2) 0.8529(2)
C13_32 C 0.01031(17) 0.8790(2) 0.7981(2)
C14_32 C 0.02248(17) 0.8653(2) 0.7635(2)
H9_32 H 0.0487 0.8587 0.7597
H10_32 H 0.0034 0.8509 0.7093
C16_32 C 0.0374(2) 0.8842(2) 0.8279(2)
N12_32 N 0.1093(2) 0.8529(2) 0.9407(2)
N13_32 N 0.1471(2) 0.9407(2) 0.8907(2)
C41_32 C 0.1210(2) 0.7981(2) 0.98969(17)
C42_32 C 0.2019(2) 0.98969(17) 0.8790(2)
C43_32 C 0.1347(2) 0.7635(2) 0.97752(17)
C44_32 C 0.2365(2) 0.97752(17) 0.8653(2)
H27_32 H 0.1413 0.7597 0.9513
H28_32 H 0.2403 0.9513 0.8587
H29_32 H 0.1491 0.7093 0.9966
H30_32 H 0.2907 0.9966 0.8509
C47_32 C 0.1158(2) 0.8279(2) 0.9626(2)
C48_32 C 0.1721(2) 0.9626(2) 0.8842(2)
loop_
_geom_bond_atom_site_label_1
_geom_bond_atom_site_label_2
_geom_bond_site_symmetry_1
_geom_bond_site_symmetry_2
Co1 N1 1_555 1_555
N1 C1 1_555 1_555
N2 Co1 1_555 1_555
C1 H1 1_555 1_555
C2 C1 1_555 1_555
H2 C2 1_555 1_555
C3 C2 1_555 1_555
H3 C3 1_555 1_555
C4 N1 1_555 1_555
C5 C4 1_555 1_555
C6 N2 1_555 1_555
C7 C6 1_555 1_555
H4 C7 1_555 1_555
C8 C7 1_555 1_555
H5 C8 1_555 1_555
C9 N2 1_555 1_555
H6 C9 1_555 1_555
C10 C5 1_555 1_555
C11 C10 1_555 1_555
H7 C11 1_555 1_555
C12 C11 1_555 1_555
H8 C12 1_555 1_555
C15 C10 1_555 1_555
N6 Co1 1_555 1_555
N7 Co1 1_555 1_555
N10 Co1 1_555 1_555
N11 Co1 1_555 1_555
C3 C4 1_555 1_555
C5 C6 1_555 1_555
C8 C9 1_555 1_555
C5 H31 1_555 1_555
Co2 N4 1_555 1_555
N4 C17 1_555 1_555
N8 Co2 1_555 1_555
C17 H11 1_555 1_555
C19 C17 1_555 1_555
H13 C19 1_555 1_555
C21 C19 1_555 1_555
H15 C21 1_555 1_555
C23 N4 1_555 1_555
C25 C23 1_555 1_555
C27 N8 1_555 1_555
C29 C27 1_555 1_555
H17 C29 1_555 1_555
C31 C29 1_555 1_555
H19 C31 1_555 1_555
C33 N8 1_555 1_555
H21 C33 1_555 1_555
C35 C25 1_555 1_555
C37 C35 1_555 1_555
H23 C37 1_555 1_555
C39 C37 1_555 1_555
H25 C39 1_555 1_555
C45 C35 1_555 1_555
C21 C23 1_555 1_555
C25 C27 1_555 1_555
C31 C33 1_555 1_555
C25 H33 1_555 1_555
Co3 N5 1_555 1_555
N5 C18 1_555 1_555
N9 Co3 1_555 1_555
C18 H12 1_555 1_555
C20 C18 1_555 1_555
H14 C20 1_555 1_555
C22 C20 1_555 1_555
H16 C22 1_555 1_555
C24 N5 1_555 1_555
C26 C24 1_555 1_555
C28 N9 1_555 1_555
C30 C28 1_555 1_555
H18 C30 1_555 1_555
C32 C30 1_555 1_555
H20 C32 1_555 1_555
C34 N9 1_555 1_555
H22 C34 1_555 1_555
C36 C26 1_555 1_555
C38 C36 1_555 1_555
H24 C38 1_555 1_555
C40 C38 1_555 1_555
H26 C40 1_555 1_555
C46 C36 1_555 1_555
C22 C24 1_555 1_555
C26 C28 1_555 1_555
C32 C34 1_555 1_555
C26 H32 1_555 1_555
N6_2 Co2 1_555 1_555
N7_2 Co2 1_555 1_555
N10_2 Co2 1_555 1_555
N11_2 Co2 1_555 1_555
N6_3 Co3 1_555 1_555
N7_3 Co3 1_555 1_555
N10_3 Co3 1_555 1_555
N11_3 Co3 1_555 1_555
N6 C18_2 1_555 1_555
C18_2 H12_2 1_555 1_555
C20_2 C18_2 1_555 1_555
H14_2 C20_2 1_555 1_555
C22_2 C20_2 1_555 1_555
H16_2 C22_2 1_555 1_555
C24_2 N6 1_555 1_555
C26_2 C24_2 1_555 1_555
C28_2 N10 1_555 1_555
C30_2 C28_2 1_555 1_555
H18_2 C30_2 1_555 1_555
C32_2 C30_2 1_555 1_555
H20_2 C32_2 1_555 1_555
C34_2 N10 1_555 1_555
H22_2 C34_2 1_555 1_555
C36_2 C26_2 1_555 1_555
C38_2 C36_2 1_555 1_555
H24_2 C38_2 1_555 1_555
C40_2 C38_2 1_555 1_555
H26_2 C40_2 1_555 1_555
C46_2 C36_2 1_555 1_555
C22_2 C24_2 1_555 1_555
C26_2 C28_2 1_555 1_555
C32_2 C34_2 1_555 1_555
C26_2 H32_2 1_555 1_555
Ag1 N3 1_555 1_555
N7_3 C1_2 1_555 1_555
N3 C16 1_555 1_555
C1_2 H1_2 1_555 1_555
C2_2 C1_2 1_555 1_555
H2_2 C2_2 1_555 1_555
C3_2 C2_2 1_555 1_555
H3_2 C3_2 1_555 1_555
C4_2 N7_3 1_555 1_555
C5_2 C4_2 1_555 1_555
C6_2 N11_3 1_555 1_555
C7_2 C6_2 1_555 1_555
H4_2 C7_2 1_555 1_555
C8_2 C7_2 1_555 1_555
H5_2 C8_2 1_555 1_555
C9_2 N11_3 1_555 1_555
H6_2 C9_2 1_555 1_555
C10_2 C5_2 1_555 1_555
C11_2 C10_2 1_555 1_555
H7_2 C11_2 1_555 1_555
C12_2 C11_2 1_555 1_555
H8_2 C12_2 1_555 1_555
C13 C12_2 1_555 1_555
C14 C13 1_555 1_555
H9 C14 1_555 1_555
C15_2 C10_2 1_555 1_555
H10 C15_2 1_555 1_555
C16 C13 1_555 1_555
Co2_2 N4_2 1_555 1_555
N4_2 C17_2 1_555 1_555
N8_2 Co2_2 1_555 1_555
N12 Ag1 1_555 1_555
N13 Ag1 1_555 1_555
C17_2 H11_2 1_555 1_555
C19_2 C17_2 1_555 1_555
H13_2 C19_2 1_555 1_555
C21_2 C19_2 1_555 1_555
H15_2 C21_2 1_555 1_555
C23_2 N4_2 1_555 1_555
C25_2 C23_2 1_555 1_555
C27_2 N8_2 1_555 1_555
C29_2 C27_2 1_555 1_555
H17_2 C29_2 1_555 1_555
C31_2 C29_2 1_555 1_555
H19_2 C31_2 1_555 1_555
C33_2 N8_2 1_555 1_555
H21_2 C33_2 1_555 1_555
C35_2 C25_2 1_555 1_555
C37_2 C35_2 1_555 1_555
H23_2 C37_2 1_555 1_555
C39_2 C37_2 1_555 1_555
H25_2 C39_2 1_555 1_555
C41 C39_2 1_555 1_555
C43 C41 1_555 1_555
C44 C42 1_555 1_555
H27 C43 1_555 1_555
H28 C44 1_555 1_555
C45_2 C35_2 1_555 1_555
H29 C45_2 1_555 1_555
C47 N12 1_555 1_555
C48 N13 1_555 1_555
C3_2 C4_2 1_555 1_555
C5_2 C6_2 1_555 1_555
C8_2 C9_2 1_555 1_555
C14 C15_2 1_555 1_555
C21_2 C23_2 1_555 1_555
C25_2 C27_2 1_555 1_555
C31_2 C33_2 1_555 1_555
C41 C47 1_555 1_555
C42 C48 1_555 1_555
C43 C45_2 1_555 1_555
C5_2 H31_2 1_555 1_555
C25_2 H33_2 1_555 1_555
N6_4 Co2_2 1_555 1_555
N7_4 Co2_2 1_555 1_555
N10_4 Co2_2 1_555 1_555
N11_4 Co2_2 1_555 1_555
Ag1_2 N3_2 1_555 1_555
N3_2 C16_2 1_555 1_555
C14_2 C13_2 1_555 1_555
H9_2 C14_2 1_555 1_555
C16_2 C13_2 1_555 1_555
N7 C17_3 1_555 1_555
N7_4 C18_3 1_555 1_555
N12_2 Ag1_2 1_555 1_555
N13_2 Ag1_2 1_555 1_555
C17_3 H11_3 1_555 1_555
C18_3 H12_3 1_555 1_555
C19_3 C17_3 1_555 1_555
C20_3 C18_3 1_555 1_555
H13_3 C19_3 1_555 1_555
H14_3 C20_3 1_555 1_555
C21_3 C19_3 1_555 1_555
C22_3 C20_3 1_555 1_555
H15_3 C21_3 1_555 1_555
H16_3 C22_3 1_555 1_555
C23_3 N7 1_555 1_555
C24_3 N7_4 1_555 1_555
C25_3 C23_3 1_555 1_555
C26_3 C24_3 1_555 1_555
C27_3 N11 1_555 1_555
C28_3 N11_4 1_555 1_555
C29_3 C27_3 1_555 1_555
C30_3 C28_3 1_555 1_555
H17_3 C29_3 1_555 1_555
H18_3 C30_3 1_555 1_555
C31_3 C29_3 1_555 1_555
C32_3 C30_3 1_555 1_555
H19_3 C31_3 1_555 1_555
H20_3 C32_3 1_555 1_555
C33_3 N11 1_555 1_555
C34_3 N11_4 1_555 1_555
H21_3 C33_3 1_555 1_555
H22_3 C34_3 1_555 1_555
C35_3 C25_3 1_555 1_555
C36_3 C26_3 1_555 1_555
C37_3 C35_3 1_555 1_555
C38_3 C36_3 1_555 1_555
H23_3 C37_3 1_555 1_555
H24_3 C38_3 1_555 1_555
C39_3 C37_3 1_555 1_555
C40_3 C38_3 1_555 1_555
H25_3 C39_3 1_555 1_555
H26_3 C40_3 1_555 1_555
C41_2 C39_3 1_555 1_555
C42_2 C40_3 1_555 1_555
C43_2 C41_2 1_555 1_555
C44_2 C42_2 1_555 1_555
H27_2 C43_2 1_555 1_555
H28_2 C44_2 1_555 1_555
C45_3 C35_3 1_555 1_555
C46_3 C36_3 1_555 1_555
H29_2 C45_3 1_555 1_555
H30_2 C46_3 1_555 1_555
C47_2 N12_2 1_555 1_555
C48_2 N13_2 1_555 1_555
C21_3 C23_3 1_555 1_555
C22_3 C24_3 1_555 1_555
C25_3 C27_3 1_555 1_555
C26_3 C28_3 1_555 1_555
C31_3 C33_3 1_555 1_555
C32_3 C34_3 1_555 1_555
C41_2 C47_2 1_555 1_555
C42_2 C48_2 1_555 1_555
C43_2 C45_3 1_555 1_555
C44_2 C46_3 1_555 1_555
C26_3 H32_3 1_555 1_555
C25_3 H33_3 1_555 1_555
N6_2 C1_3 1_555 1_555
C1_3 H1_3 1_555 1_555
C2_3 C1_3 1_555 1_555
H2_3 C2_3 1_555 1_555
C3_3 C2_3 1_555 1_555
H3_3 C3_3 1_555 1_555
C4_3 N6_2 1_555 1_555
C5_3 C4_3 1_555 1_555
C6_3 N10_2 1_555 1_555
C7_3 C6_3 1_555 1_555
H4_3 C7_3 1_555 1_555
C8_3 C7_3 1_555 1_555
H5_3 C8_3 1_555 1_555
C9_3 N10_2 1_555 1_555
H6_3 C9_3 1_555 1_555
C10_3 C5_3 1_555 1_555
C11_3 C10_3 1_555 1_555
H7_3 C11_3 1_555 1_555
C12_3 C11_3 1_555 1_555
H8_3 C12_3 1_555 1_555
C15_3 C10_3 1_555 1_555
C3_3 C4_3 1_555 1_555
C5_3 C6_3 1_555 1_555
C8_3 C9_3 1_555 1_555
C5_3 H31_3 1_555 1_555
N6_3 C17_4 1_555 1_555
C17_4 H11_4 1_555 1_555
C19_4 C17_4 1_555 1_555
H13_4 C19_4 1_555 1_555
C21_4 C19_4 1_555 1_555
H15_4 C21_4 1_555 1_555
C23_4 N6_3 1_555 1_555
C25_4 C23_4 1_555 1_555
C27_4 N10_3 1_555 1_555
C29_4 C27_4 1_555 1_555
H17_4 C29_4 1_555 1_555
C31_4 C29_4 1_555 1_555
H19_4 C31_4 1_555 1_555
C33_4 N10_3 1_555 1_555
H21_4 C33_4 1_555 1_555
C35_4 C25_4 1_555 1_555
C37_4 C35_4 1_555 1_555
H23_4 C37_4 1_555 1_555
C39_4 C37_4 1_555 1_555
H25_4 C39_4 1_555 1_555
C45_4 C35_4 1_555 1_555
C21_4 C23_4 1_555 1_555
C25_4 C27_4 1_555 1_555
C31_4 C33_4 1_555 1_555
C25_4 H33_4 1_555 1_555
Ag1_3 N3_3 1_555 1_555
N6_4 C1_4 1_555 1_555
N3_3 C16_3 1_555 1_555
C1_4 H1_4 1_555 1_555
C2_4 C1_4 1_555 1_555
H2_4 C2_4 1_555 1_555
C3_4 C2_4 1_555 1_555
H3_4 C3_4 1_555 1_555
C4_4 N6_4 1_555 1_555
C5_4 C4_4 1_555 1_555
C6_4 N10_4 1_555 1_555
C7_4 C6_4 1_555 1_555
H4_4 C7_4 1_555 1_555
C8_4 C7_4 1_555 1_555
H5_4 C8_4 1_555 1_555
C9_4 N10_4 1_555 1_555
H6_4 C9_4 1_555 1_555
C10_4 C5_4 1_555 1_555
C11_4 C10_4 1_555 1_555
H7_4 C11_4 1_555 1_555
C12_4 C11_4 1_555 1_555
H8_4 C12_4 1_555 1_555
C13_3 C12_4 1_555 1_555
C14_3 C13_3 1_555 1_555
H9_3 C14_3 1_555 1_555
C15_4 C10_4 1_555 1_555
H10_3 C15_4 1_555 1_555
C16_3 C13_3 1_555 1_555
N7_2 C18_4 1_555 1_555
N12_3 Ag1_3 1_555 1_555
N13_3 Ag1_3 1_555 1_555
C18_4 H12_4 1_555 1_555
C20_4 C18_4 1_555 1_555
H14_4 C20_4 1_555 1_555
C22_4 C20_4 1_555 1_555
H16_4 C22_4 1_555 1_555
C24_4 N7_2 1_555 1_555
C26_4 C24_4 1_555 1_555
C28_4 N11_2 1_555 1_555
C30_4 C28_4 1_555 1_555
H18_4 C30_4 1_555 1_555
C32_4 C30_4 1_555 1_555
H20_4 C32_4 1_555 1_555
C34_4 N11_2 1_555 1_555
H22_4 C34_4 1_555 1_555
C36_4 C26_4 1_555 1_555
C38_4 C36_4 1_555 1_555
H24_4 C38_4 1_555 1_555
C40_4 C38_4 1_555 1_555
H26_4 C40_4 1_555 1_555
C42_3 C40_4 1_555 1_555
C43_3 C41_3 1_555 1_555
C44_3 C42_3 1_555 1_555
H27_3 C43_3 1_555 1_555
H28_3 C44_3 1_555 1_555
C46_4 C36_4 1_555 1_555
H30_3 C46_4 1_555 1_555
C47_3 N12_3 1_555 1_555
C48_3 N13_3 1_555 1_555
C3_4 C4_4 1_555 1_555
C5_4 C6_4 1_555 1_555
C8_4 C9_4 1_555 1_555
C14_3 C15_4 1_555 1_555
C22_4 C24_4 1_555 1_555
C26_4 C28_4 1_555 1_555
C32_4 C34_4 1_555 1_555
C41_3 C47_3 1_555 1_555
C42_3 C48_3 1_555 1_555
C44_3 C46_4 1_555 1_555
C5_4 H31_4 1_555 1_555
C26_4 H32_4 1_555 1_555
Ag1_4 N3_4 1_555 1_555
N3_4 C16_4 1_555 1_555
C14_4 C13_4 1_555 1_555
H9_4 C14_4 1_555 1_555
C16_4 C13_4 1_555 1_555
N12_4 Ag1_4 1_555 1_555
N13_4 Ag1_4 1_555 1_555
C43_4 C41_4 1_555 1_555
C44_4 C42_4 1_555 1_555
H27_4 C43_4 1_555 1_555
H28_4 C44_4 1_555 1_555
C47_4 N12_4 1_555 1_555
C48_4 N13_4 1_555 1_555
C41_4 C47_4 1_555 1_555
C42_4 C48_4 1_555 1_555
Ag1_5 N3_5 1_555 1_555
N3_5 C16_5 1_555 1_555
C14_5 C13_5 1_555 1_555
H9_5 C14_5 1_555 1_555
C16_5 C13_5 1_555 1_555
N12_5 Ag1_5 1_555 1_555
N13_5 Ag1_5 1_555 1_555
C43_5 C41_5 1_555 1_555
C44_5 C42_5 1_555 1_555
H27_5 C43_5 1_555 1_555
H28_5 C44_5 1_555 1_555
C47_5 N12_5 1_555 1_555
C48_5 N13_5 1_555 1_555
C41_5 C47_5 1_555 1_555
C42_5 C48_5 1_555 1_555
Co2_3 N4_3 1_555 1_555
N4_3 C17_5 1_555 1_555
N8_3 Co2_3 1_555 1_555
C17_5 H11_5 1_555 1_555
C19_5 C17_5 1_555 1_555
H13_5 C19_5 1_555 1_555
C21_5 C19_5 1_555 1_555
H15_5 C21_5 1_555 1_555
C23_5 N4_3 1_555 1_555
C25_5 C23_5 1_555 1_555
C27_5 N8_3 1_555 1_555
C29_5 C27_5 1_555 1_555
H17_5 C29_5 1_555 1_555
C31_5 C29_5 1_555 1_555
H19_5 C31_5 1_555 1_555
C33_5 N8_3 1_555 1_555
H21_5 C33_5 1_555 1_555
C35_5 C25_5 1_555 1_555
C37_5 C35_5 1_555 1_555
H23_5 C37_5 1_555 1_555
C39_5 C37_5 1_555 1_555
H25_5 C39_5 1_555 1_555
C45_5 C35_5 1_555 1_555
C21_5 C23_5 1_555 1_555
C25_5 C27_5 1_555 1_555
C31_5 C33_5 1_555 1_555
C25_5 H33_5 1_555 1_555
Co3_2 N5_2 1_555 1_555
N5_2 C18_5 1_555 1_555
N9_2 Co3_2 1_555 1_555
C18_5 H12_5 1_555 1_555
C20_5 C18_5 1_555 1_555
H14_5 C20_5 1_555 1_555
C22_5 C20_5 1_555 1_555
H16_5 C22_5 1_555 1_555
C24_5 N5_2 1_555 1_555
C26_5 C24_5 1_555 1_555
C28_5 N9_2 1_555 1_555
C30_5 C28_5 1_555 1_555
H18_5 C30_5 1_555 1_555
C32_5 C30_5 1_555 1_555
H20_5 C32_5 1_555 1_555
C34_5 N9_2 1_555 1_555
H22_5 C34_5 1_555 1_555
C36_5 C26_5 1_555 1_555
C38_5 C36_5 1_555 1_555
H24_5 C38_5 1_555 1_555
C40_5 C38_5 1_555 1_555
H26_5 C40_5 1_555 1_555
C46_5 C36_5 1_555 1_555
C22_5 C24_5 1_555 1_555
C26_5 C28_5 1_555 1_555
C32_5 C34_5 1_555 1_555
C26_5 H32_5 1_555 1_555
Co1_2 N1_2 1_555 1_555
N1_2 C1_5 1_555 1_555
N2_2 Co1_2 1_555 1_555
C1_5 H1_5 1_555 1_555
C2_5 C1_5 1_555 1_555
H2_5 C2_5 1_555 1_555
C3_5 C2_5 1_555 1_555
H3_5 C3_5 1_555 1_555
C4_5 N1_2 1_555 1_555
C5_5 C4_5 1_555 1_555
C6_5 N2_2 1_555 1_555
C7_5 C6_5 1_555 1_555
H4_5 C7_5 1_555 1_555
C8_5 C7_5 1_555 1_555
H5_5 C8_5 1_555 1_555
C9_5 N2_2 1_555 1_555
H6_5 C9_5 1_555 1_555
C10_5 C5_5 1_555 1_555
C11_5 C10_5 1_555 1_555
H7_5 C11_5 1_555 1_555
C12_5 C11_5 1_555 1_555
H8_5 C12_5 1_555 1_555
C15_5 C10_5 1_555 1_555
N6_5 Co1_2 1_555 1_555
N7_5 Co1_2 1_555 1_555
N10_5 Co1_2 1_555 1_555
N11_5 Co1_2 1_555 1_555
C3_5 C4_5 1_555 1_555
C5_5 C6_5 1_555 1_555
C8_5 C9_5 1_555 1_555
C5_5 H31_5 1_555 1_555
N6_6 Co2_3 1_555 1_555
N7_6 Co2_3 1_555 1_555
N10_6 Co2_3 1_555 1_555
N11_6 Co2_3 1_555 1_555
N6_7 Co3_2 1_555 1_555
N7_7 Co3_2 1_555 1_555
N10_7 Co3_2 1_555 1_555
N11_7 Co3_2 1_555 1_555
N6_6 C1_6 1_555 1_555
C1_6 H1_6 1_555 1_555
C2_6 C1_6 1_555 1_555
H2_6 C2_6 1_555 1_555
C3_6 C2_6 1_555 1_555
H3_6 C3_6 1_555 1_555
C4_6 N6_6 1_555 1_555
C5_6 C4_6 1_555 1_555
C6_6 N10_6 1_555 1_555
C7_6 C6_6 1_555 1_555
H4_6 C7_6 1_555 1_555
C8_6 C7_6 1_555 1_555
H5_6 C8_6 1_555 1_555
C9_6 N10_6 1_555 1_555
H6_6 C9_6 1_555 1_555
C10_6 C5_6 1_555 1_555
C11_6 C10_6 1_555 1_555
H7_6 C11_6 1_555 1_555
C12_6 C11_6 1_555 1_555
H8_6 C12_6 1_555 1_555
C15_6 C10_6 1_555 1_555
C3_6 C4_6 1_555 1_555
C5_6 C6_6 1_555 1_555
C8_6 C9_6 1_555 1_555
C5_6 H31_6 1_555 1_555
Ag1_6 N3_6 1_555 1_555
N3_6 C16_6 1_555 1_555
C14_6 C13_6 1_555 1_555
H9_6 C14_6 1_555 1_555
C16_6 C13_6 1_555 1_555
Co3_3 N5_3 1_555 1_555
N7_5 C17_6 1_555 1_555
N5_3 C18_6 1_555 1_555
N9_3 Co3_3 1_555 1_555
N12_6 Ag1_6 1_555 1_555
N13_6 Ag1_6 1_555 1_555
C17_6 H11_6 1_555 1_555
C18_6 H12_6 1_555 1_555
C19_6 C17_6 1_555 1_555
C20_6 C18_6 1_555 1_555
H13_6 C19_6 1_555 1_555
H14_6 C20_6 1_555 1_555
C21_6 C19_6 1_555 1_555
C22_6 C20_6 1_555 1_555
H15_6 C21_6 1_555 1_555
H16_6 C22_6 1_555 1_555
C23_6 N7_5 1_555 1_555
C24_6 N5_3 1_555 1_555
C25_6 C23_6 1_555 1_555
C26_6 C24_6 1_555 1_555
C27_6 N11_5 1_555 1_555
C28_6 N9_3 1_555 1_555
C29_6 C27_6 1_555 1_555
C30_6 C28_6 1_555 1_555
H17_6 C29_6 1_555 1_555
H18_6 C30_6 1_555 1_555
C31_6 C29_6 1_555 1_555
C32_6 C30_6 1_555 1_555
H19_6 C31_6 1_555 1_555
H20_6 C32_6 1_555 1_555
C33_6 N11_5 1_555 1_555
C34_6 N9_3 1_555 1_555
H21_6 C33_6 1_555 1_555
H22_6 C34_6 1_555 1_555
C35_6 C25_6 1_555 1_555
C36_6 C26_6 1_555 1_555
C37_6 C35_6 1_555 1_555
C38_6 C36_6 1_555 1_555
H23_6 C37_6 1_555 1_555
H24_6 C38_6 1_555 1_555
C39_6 C37_6 1_555 1_555
C40_6 C38_6 1_555 1_555
H25_6 C39_6 1_555 1_555
H26_6 C40_6 1_555 1_555
C41_6 C39_6 1_555 1_555
C42_6 C40_6 1_555 1_555
C43_6 C41_6 1_555 1_555
C44_6 C42_6 1_555 1_555
H27_6 C43_6 1_555 1_555
H28_6 C44_6 1_555 1_555
C45_6 C35_6 1_555 1_555
C46_6 C36_6 1_555 1_555
H29_6 C45_6 1_555 1_555
H30_6 C46_6 1_555 1_555
C47_6 N12_6 1_555 1_555
C48_6 N13_6 1_555 1_555
C21_6 C23_6 1_555 1_555
C22_6 C24_6 1_555 1_555
C25_6 C27_6 1_555 1_555
C26_6 C28_6 1_555 1_555
C31_6 C33_6 1_555 1_555
C32_6 C34_6 1_555 1_555
C41_6 C47_6 1_555 1_555
C42_6 C48_6 1_555 1_555
C43_6 C45_6 1_555 1_555
C44_6 C46_6 1_555 1_555
C26_6 H32_6 1_555 1_555
C25_6 H33_6 1_555 1_555
N6_8 Co3_3 1_555 1_555
N7_8 Co3_3 1_555 1_555
N10_8 Co3_3 1_555 1_555
N11_8 Co3_3 1_555 1_555
N6_5 C18_7 1_555 1_555
C18_7 H12_7 1_555 1_555
C20_7 C18_7 1_555 1_555
H14_7 C20_7 1_555 1_555
C22_7 C20_7 1_555 1_555
H16_7 C22_7 1_555 1_555
C24_7 N6_5 1_555 1_555
C26_7 C24_7 1_555 1_555
C28_7 N10_5 1_555 1_555
C30_7 C28_7 1_555 1_555
H18_7 C30_7 1_555 1_555
C32_7 C30_7 1_555 1_555
H20_7 C32_7 1_555 1_555
C34_7 N10_5 1_555 1_555
H22_7 C34_7 1_555 1_555
C36_7 C26_7 1_555 1_555
C38_7 C36_7 1_555 1_555
H24_7 C38_7 1_555 1_555
C40_7 C38_7 1_555 1_555
H26_7 C40_7 1_555 1_555
C46_7 C36_7 1_555 1_555
C22_7 C24_7 1_555 1_555
C26_7 C28_7 1_555 1_555
C32_7 C34_7 1_555 1_555
C26_7 H32_7 1_555 1_555
Ag1_7 N3_7 1_555 1_555
N7_7 C1_7 1_555 1_555
N3_7 C16_7 1_555 1_555
C1_7 H1_7 1_555 1_555
C2_7 C1_7 1_555 1_555
H2_7 C2_7 1_555 1_555
C3_7 C2_7 1_555 1_555
H3_7 C3_7 1_555 1_555
C4_7 N7_7 1_555 1_555
C5_7 C4_7 1_555 1_555
C6_7 N11_7 1_555 1_555
C7_7 C6_7 1_555 1_555
H4_7 C7_7 1_555 1_555
C8_7 C7_7 1_555 1_555
H5_7 C8_7 1_555 1_555
C9_7 N11_7 1_555 1_555
H6_7 C9_7 1_555 1_555
C10_7 C5_7 1_555 1_555
C11_7 C10_7 1_555 1_555
H7_7 C11_7 1_555 1_555
C12_7 C11_7 1_555 1_555
H8_7 C12_7 1_555 1_555
C13_7 C12_7 1_555 1_555
C14_7 C13_7 1_555 1_555
H9_7 C14_7 1_555 1_555
C15_7 C10_7 1_555 1_555
H10_7 C15_7 1_555 1_555
C16_7 C13_7 1_555 1_555
N6_8 C17_7 1_555 1_555
N12_7 Ag1_7 1_555 1_555
N13_7 Ag1_7 1_555 1_555
C17_7 H11_7 1_555 1_555
C19_7 C17_7 1_555 1_555
H13_7 C19_7 1_555 1_555
C21_7 C19_7 1_555 1_555
H15_7 C21_7 1_555 1_555
C23_7 N6_8 1_555 1_555
C25_7 C23_7 1_555 1_555
C27_7 N10_8 1_555 1_555
C29_7 C27_7 1_555 1_555
H17_7 C29_7 1_555 1_555
C31_7 C29_7 1_555 1_555
H19_7 C31_7 1_555 1_555
C33_7 N10_8 1_555 1_555
H21_7 C33_7 1_555 1_555
C35_7 C25_7 1_555 1_555
C37_7 C35_7 1_555 1_555
H23_7 C37_7 1_555 1_555
C39_7 C37_7 1_555 1_555
H25_7 C39_7 1_555 1_555
C41_7 C39_7 1_555 1_555
C43_7 C41_7 1_555 1_555
C44_7 C42_7 1_555 1_555
H27_7 C43_7 1_555 1_555
H28_7 C44_7 1_555 1_555
C45_7 C35_7 1_555 1_555
H29_7 C45_7 1_555 1_555
C47_7 N12_7 1_555 1_555
C48_7 N13_7 1_555 1_555
C3_7 C4_7 1_555 1_555
C5_7 C6_7 1_555 1_555
C8_7 C9_7 1_555 1_555
C14_7 C15_7 1_555 1_555
C21_7 C23_7 1_555 1_555
C25_7 C27_7 1_555 1_555
C31_7 C33_7 1_555 1_555
C41_7 C47_7 1_555 1_555
C42_7 C48_7 1_555 1_555
C43_7 C45_7 1_555 1_555
C5_7 H31_7 1_555 1_555
C25_7 H33_7 1_555 1_555
N6_7 C17_8 1_555 1_555
C17_8 H11_8 1_555 1_555
C19_8 C17_8 1_555 1_555
H13_8 C19_8 1_555 1_555
C21_8 C19_8 1_555 1_555
H15_8 C21_8 1_555 1_555
C23_8 N6_7 1_555 1_555
C25_8 C23_8 1_555 1_555
C27_8 N10_7 1_555 1_555
C29_8 C27_8 1_555 1_555
H17_8 C29_8 1_555 1_555
C31_8 C29_8 1_555 1_555
H19_8 C31_8 1_555 1_555
C33_8 N10_7 1_555 1_555
H21_8 C33_8 1_555 1_555
C35_8 C25_8 1_555 1_555
C37_8 C35_8 1_555 1_555
H23_8 C37_8 1_555 1_555
C39_8 C37_8 1_555 1_555
H25_8 C39_8 1_555 1_555
C45_8 C35_8 1_555 1_555
C21_8 C23_8 1_555 1_555
C25_8 C27_8 1_555 1_555
C31_8 C33_8 1_555 1_555
C25_8 H33_8 1_555 1_555
Ag1_8 N3_8 1_555 1_555
N7_8 C1_8 1_555 1_555
N3_8 C16_8 1_555 1_555
C1_8 H1_8 1_555 1_555
C2_8 C1_8 1_555 1_555
H2_8 C2_8 1_555 1_555
C3_8 C2_8 1_555 1_555
H3_8 C3_8 1_555 1_555
C4_8 N7_8 1_555 1_555
C5_8 C4_8 1_555 1_555
C6_8 N11_8 1_555 1_555
C7_8 C6_8 1_555 1_555
H4_8 C7_8 1_555 1_555
C8_8 C7_8 1_555 1_555
H5_8 C8_8 1_555 1_555
C9_8 N11_8 1_555 1_555
H6_8 C9_8 1_555 1_555
C10_8 C5_8 1_555 1_555
C11_8 C10_8 1_555 1_555
H7_8 C11_8 1_555 1_555
C12_8 C11_8 1_555 1_555
H8_8 C12_8 1_555 1_555
C13_8 C12_8 1_555 1_555
C14_8 C13_8 1_555 1_555
H9_8 C14_8 1_555 1_555
C15_8 C10_8 1_555 1_555
H10_8 C15_8 1_555 1_555
C16_8 C13_8 1_555 1_555
N7_6 C18_8 1_555 1_555
N12_8 Ag1_8 1_555 1_555
N13_8 Ag1_8 1_555 1_555
C18_8 H12_8 1_555 1_555
C20_8 C18_8 1_555 1_555
H14_8 C20_8 1_555 1_555
C22_8 C20_8 1_555 1_555
H16_8 C22_8 1_555 1_555
C24_8 N7_6 1_555 1_555
C26_8 C24_8 1_555 1_555
C28_8 N11_6 1_555 1_555
C30_8 C28_8 1_555 1_555
H18_8 C30_8 1_555 1_555
C32_8 C30_8 1_555 1_555
H20_8 C32_8 1_555 1_555
C34_8 N11_6 1_555 1_555
H22_8 C34_8 1_555 1_555
C36_8 C26_8 1_555 1_555
C38_8 C36_8 1_555 1_555
H24_8 C38_8 1_555 1_555
C40_8 C38_8 1_555 1_555
H26_8 C40_8 1_555 1_555
C42_8 C40_8 1_555 1_555
C43_8 C41_8 1_555 1_555
C44_8 C42_8 1_555 1_555
H27_8 C43_8 1_555 1_555
H28_8 C44_8 1_555 1_555
C46_8 C36_8 1_555 1_555
H30_8 C46_8 1_555 1_555
C47_8 N12_8 1_555 1_555
C48_8 N13_8 1_555 1_555
C3_8 C4_8 1_555 1_555
C5_8 C6_8 1_555 1_555
C8_8 C9_8 1_555 1_555
C14_8 C15_8 1_555 1_555
C22_8 C24_8 1_555 1_555
C26_8 C28_8 1_555 1_555
C32_8 C34_8 1_555 1_555
C41_8 C47_8 1_555 1_555
C42_8 C48_8 1_555 1_555
C44_8 C46_8 1_555 1_555
C5_8 H31_8 1_555 1_555
C26_8 H32_8 1_555 1_555
Co3_4 N5_4 1_555 1_555
N5_4 C18_9 1_555 1_555
N9_4 Co3_4 1_555 1_555
C18_9 H12_9 1_555 1_555
C20_9 C18_9 1_555 1_555
H14_9 C20_9 1_555 1_555
C22_9 C20_9 1_555 1_555
H16_9 C22_9 1_555 1_555
C24_9 N5_4 1_555 1_555
C26_9 C24_9 1_555 1_555
C28_9 N9_4 1_555 1_555
C30_9 C28_9 1_555 1_555
H18_9 C30_9 1_555 1_555
C32_9 C30_9 1_555 1_555
H20_9 C32_9 1_555 1_555
C34_9 N9_4 1_555 1_555
H22_9 C34_9 1_555 1_555
C36_9 C26_9 1_555 1_555
C38_9 C36_9 1_555 1_555
H24_9 C38_9 1_555 1_555
C40_9 C38_9 1_555 1_555
H26_9 C40_9 1_555 1_555
C46_9 C36_9 1_555 1_555
C22_9 C24_9 1_555 1_555
C26_9 C28_9 1_555 1_555
C32_9 C34_9 1_555 1_555
C26_9 H32_9 1_555 1_555
Co2_4 N4_4 1_555 1_555
N4_4 C17_9 1_555 1_555
N8_4 Co2_4 1_555 1_555
C17_9 H11_9 1_555 1_555
C19_9 C17_9 1_555 1_555
H13_9 C19_9 1_555 1_555
C21_9 C19_9 1_555 1_555
H15_9 C21_9 1_555 1_555
C23_9 N4_4 1_555 1_555
C25_9 C23_9 1_555 1_555
C27_9 N8_4 1_555 1_555
C29_9 C27_9 1_555 1_555
H17_9 C29_9 1_555 1_555
C31_9 C29_9 1_555 1_555
H19_9 C31_9 1_555 1_555
C33_9 N8_4 1_555 1_555
H21_9 C33_9 1_555 1_555
C35_9 C25_9 1_555 1_555
C37_9 C35_9 1_555 1_555
H23_9 C37_9 1_555 1_555
C39_9 C37_9 1_555 1_555
H25_9 C39_9 1_555 1_555
C45_9 C35_9 1_555 1_555
C21_9 C23_9 1_555 1_555
C25_9 C27_9 1_555 1_555
C31_9 C33_9 1_555 1_555
C25_9 H33_9 1_555 1_555
Co1_3 N1_3 1_555 1_555
N1_3 C1_9 1_555 1_555
N2_3 Co1_3 1_555 1_555
C1_9 H1_9 1_555 1_555
C2_9 C1_9 1_555 1_555
H2_9 C2_9 1_555 1_555
C3_9 C2_9 1_555 1_555
H3_9 C3_9 1_555 1_555
C4_9 N1_3 1_555 1_555
C5_9 C4_9 1_555 1_555
C6_9 N2_3 1_555 1_555
C7_9 C6_9 1_555 1_555
H4_9 C7_9 1_555 1_555
C8_9 C7_9 1_555 1_555
H5_9 C8_9 1_555 1_555
C9_9 N2_3 1_555 1_555
H6_9 C9_9 1_555 1_555
C10_9 C5_9 1_555 1_555
C11_9 C10_9 1_555 1_555
H7_9 C11_9 1_555 1_555
C12_9 C11_9 1_555 1_555
H8_9 C12_9 1_555 1_555
C15_9 C10_9 1_555 1_555
N6_9 Co1_3 1_555 1_555
N7_9 Co1_3 1_555 1_555
N10_9 Co1_3 1_555 1_555
N11_9 Co1_3 1_555 1_555
C3_9 C4_9 1_555 1_555
C5_9 C6_9 1_555 1_555
C8_9 C9_9 1_555 1_555
C5_9 H31_9 1_555 1_555
N6_10 Co2_4 1_555 1_555
N7_10 Co2_4 1_555 1_555
N10_10 Co2_4 1_555 1_555
N11_10 Co2_4 1_555 1_555
N6_11 Co3_4 1_555 1_555
N7_11 Co3_4 1_555 1_555
N10_11 Co3_4 1_555 1_555
N11_11 Co3_4 1_555 1_555
Ag1_9 N3_9 1_555 1_555
N7_11 C1_10 1_555 1_555
N3_9 C16_9 1_555 1_555
C1_10 H1_10 1_555 1_555
C2_10 C1_10 1_555 1_555
H2_10 C2_10 1_555 1_555
C3_10 C2_10 1_555 1_555
H3_10 C3_10 1_555 1_555
C4_10 N7_11 1_555 1_555
C5_10 C4_10 1_555 1_555
C6_10 N11_11 1_555 1_555
C7_10 C6_10 1_555 1_555
H4_10 C7_10 1_555 1_555
C8_10 C7_10 1_555 1_555
H5_10 C8_10 1_555 1_555
C9_10 N11_11 1_555 1_555
H6_10 C9_10 1_555 1_555
C10_10 C5_10 1_555 1_555
C11_10 C10_10 1_555 1_555
H7_10 C11_10 1_555 1_555
C12_10 C11_10 1_555 1_555
H8_10 C12_10 1_555 1_555
C13_9 C12_10 1_555 1_555
C14_9 C13_9 1_555 1_555
H9_9 C14_9 1_555 1_555
C15_10 C10_10 1_555 1_555
H10_9 C15_10 1_555 1_555
C16_9 C13_9 1_555 1_555
Co2_5 N4_5 1_555 1_555
N4_5 C17_10 1_555 1_555
N8_5 Co2_5 1_555 1_555
N12_9 Ag1_9 1_555 1_555
N13_9 Ag1_9 1_555 1_555
C17_10 H11_10 1_555 1_555
C19_10 C17_10 1_555 1_555
H13_10 C19_10 1_555 1_555
C21_10 C19_10 1_555 1_555
H15_10 C21_10 1_555 1_555
C23_10 N4_5 1_555 1_555
C25_10 C23_10 1_555 1_555
C27_10 N8_5 1_555 1_555
C29_10 C27_10 1_555 1_555
H17_10 C29_10 1_555 1_555
C31_10 C29_10 1_555 1_555
H19_10 C31_10 1_555 1_555
C33_10 N8_5 1_555 1_555
H21_10 C33_10 1_555 1_555
C35_10 C25_10 1_555 1_555
C37_10 C35_10 1_555 1_555
H23_10 C37_10 1_555 1_555
C39_10 C37_10 1_555 1_555
H25_10 C39_10 1_555 1_555
C41_9 C39_10 1_555 1_555
C43_9 C41_9 1_555 1_555
C44_9 C42_9 1_555 1_555
H27_9 C43_9 1_555 1_555
H28_9 C44_9 1_555 1_555
C45_10 C35_10 1_555 1_555
H29_9 C45_10 1_555 1_555
C47_9 N12_9 1_555 1_555
C48_9 N13_9 1_555 1_555
C3_10 C4_10 1_555 1_555
C5_10 C6_10 1_555 1_555
C8_10 C9_10 1_555 1_555
C14_9 C15_10 1_555 1_555
C21_10 C23_10 1_555 1_555
C25_10 C27_10 1_555 1_555
C31_10 C33_10 1_555 1_555
C41_9 C47_9 1_555 1_555
C42_9 C48_9 1_555 1_555
C43_9 C45_10 1_555 1_555
C5_10 H31_10 1_555 1_555
C25_10 H33_10 1_555 1_555
N6_9 C18_10 1_555 1_555
C18_10 H12_10 1_555 1_555
C20_10 C18_10 1_555 1_555
H14_10 C20_10 1_555 1_555
C22_10 C20_10 1_555 1_555
H16_10 C22_10 1_555 1_555
C24_10 N6_9 1_555 1_555
C26_10 C24_10 1_555 1_555
C28_10 N10_9 1_555 1_555
C30_10 C28_10 1_555 1_555
H18_10 C30_10 1_555 1_555
C32_10 C30_10 1_555 1_555
H20_10 C32_10 1_555 1_555
C34_10 N10_9 1_555 1_555
H22_10 C34_10 1_555 1_555
C36_10 C26_10 1_555 1_555
C38_10 C36_10 1_555 1_555
H24_10 C38_10 1_555 1_555
C40_10 C38_10 1_555 1_555
H26_10 C40_10 1_555 1_555
C46_10 C36_10 1_555 1_555
C22_10 C24_10 1_555 1_555
C26_10 C28_10 1_555 1_555
C32_10 C34_10 1_555 1_555
C26_10 H32_10 1_555 1_555
N6_12 Co2_5 1_555 1_555
N7_12 Co2_5 1_555 1_555
N10_12 Co2_5 1_555 1_555
N11_12 Co2_5 1_555 1_555
N6_10 C1_11 1_555 1_555
C1_11 H1_11 1_555 1_555
C2_11 C1_11 1_555 1_555
H2_11 C2_11 1_555 1_555
C3_11 C2_11 1_555 1_555
H3_11 C3_11 1_555 1_555
C4_11 N6_10 1_555 1_555
C5_11 C4_11 1_555 1_555
C6_11 N10_10 1_555 1_555
C7_11 C6_11 1_555 1_555
H4_11 C7_11 1_555 1_555
C8_11 C7_11 1_555 1_555
H5_11 C8_11 1_555 1_555
C9_11 N10_10 1_555 1_555
H6_11 C9_11 1_555 1_555
C10_11 C5_11 1_555 1_555
C11_11 C10_11 1_555 1_555
H7_11 C11_11 1_555 1_555
C12_11 C11_11 1_555 1_555
H8_11 C12_11 1_555 1_555
C15_11 C10_11 1_555 1_555
C3_11 C4_11 1_555 1_555
C5_11 C6_11 1_555 1_555
C8_11 C9_11 1_555 1_555
C5_11 H31_11 1_555 1_555
Ag1_10 N3_10 1_555 1_555
N3_10 C16_10 1_555 1_555
C14_10 C13_10 1_555 1_555
H9_10 C14_10 1_555 1_555
C16_10 C13_10 1_555 1_555
N7_9 C17_11 1_555 1_555
N7_12 C18_11 1_555 1_555
N12_10 Ag1_10 1_555 1_555
N13_10 Ag1_10 1_555 1_555
C17_11 H11_11 1_555 1_555
C18_11 H12_11 1_555 1_555
C19_11 C17_11 1_555 1_555
C20_11 C18_11 1_555 1_555
H13_11 C19_11 1_555 1_555
H14_11 C20_11 1_555 1_555
C21_11 C19_11 1_555 1_555
C22_11 C20_11 1_555 1_555
H15_11 C21_11 1_555 1_555
H16_11 C22_11 1_555 1_555
C23_11 N7_9 1_555 1_555
C24_11 N7_12 1_555 1_555
C25_11 C23_11 1_555 1_555
C26_11 C24_11 1_555 1_555
C27_11 N11_9 1_555 1_555
C28_11 N11_12 1_555 1_555
C29_11 C27_11 1_555 1_555
C30_11 C28_11 1_555 1_555
H17_11 C29_11 1_555 1_555
H18_11 C30_11 1_555 1_555
C31_11 C29_11 1_555 1_555
C32_11 C30_11 1_555 1_555
H19_11 C31_11 1_555 1_555
H20_11 C32_11 1_555 1_555
C33_11 N11_9 1_555 1_555
C34_11 N11_12 1_555 1_555
H21_11 C33_11 1_555 1_555
H22_11 C34_11 1_555 1_555
C35_11 C25_11 1_555 1_555
C36_11 C26_11 1_555 1_555
C37_11 C35_11 1_555 1_555
C38_11 C36_11 1_555 1_555
H23_11 C37_11 1_555 1_555
H24_11 C38_11 1_555 1_555
C39_11 C37_11 1_555 1_555
C40_11 C38_11 1_555 1_555
H25_11 C39_11 1_555 1_555
H26_11 C40_11 1_555 1_555
C41_10 C39_11 1_555 1_555
C42_10 C40_11 1_555 1_555
C43_10 C41_10 1_555 1_555
C44_10 C42_10 1_555 1_555
H27_10 C43_10 1_555 1_555
H28_10 C44_10 1_555 1_555
C45_11 C35_11 1_555 1_555
C46_11 C36_11 1_555 1_555
H29_10 C45_11 1_555 1_555
H30_10 C46_11 1_555 1_555
C47_10 N12_10 1_555 1_555
C48_10 N13_10 1_555 1_555
C21_11 C23_11 1_555 1_555
C22_11 C24_11 1_555 1_555
C25_11 C27_11 1_555 1_555
C26_11 C28_11 1_555 1_555
C31_11 C33_11 1_555 1_555
C32_11 C34_11 1_555 1_555
C41_10 C47_10 1_555 1_555
C42_10 C48_10 1_555 1_555
C43_10 C45_11 1_555 1_555
C44_10 C46_11 1_555 1_555
C26_11 H32_11 1_555 1_555
C25_11 H33_11 1_555 1_555
N6_11 C17_12 1_555 1_555
C17_12 H11_12 1_555 1_555
C19_12 C17_12 1_555 1_555
H13_12 C19_12 1_555 1_555
C21_12 C19_12 1_555 1_555
H15_12 C21_12 1_555 1_555
C23_12 N6_11 1_555 1_555
C25_12 C23_12 1_555 1_555
C27_12 N10_11 1_555 1_555
C29_12 C27_12 1_555 1_555
H17_12 C29_12 1_555 1_555
C31_12 C29_12 1_555 1_555
H19_12 C31_12 1_555 1_555
C33_12 N10_11 1_555 1_555
H21_12 C33_12 1_555 1_555
C35_12 C25_12 1_555 1_555
C37_12 C35_12 1_555 1_555
H23_12 C37_12 1_555 1_555
C39_12 C37_12 1_555 1_555
H25_12 C39_12 1_555 1_555
C45_12 C35_12 1_555 1_555
C21_12 C23_12 1_555 1_555
C25_12 C27_12 1_555 1_555
C31_12 C33_12 1_555 1_555
C25_12 H33_12 1_555 1_555
Ag1_11 N3_11 1_555 1_555
N6_12 C1_12 1_555 1_555
N3_11 C16_11 1_555 1_555
C1_12 H1_12 1_555 1_555
C2_12 C1_12 1_555 1_555
H2_12 C2_12 1_555 1_555
C3_12 C2_12 1_555 1_555
H3_12 C3_12 1_555 1_555
C4_12 N6_12 1_555 1_555
C5_12 C4_12 1_555 1_555
C6_12 N10_12 1_555 1_555
C7_12 C6_12 1_555 1_555
H4_12 C7_12 1_555 1_555
C8_12 C7_12 1_555 1_555
H5_12 C8_12 1_555 1_555
C9_12 N10_12 1_555 1_555
H6_12 C9_12 1_555 1_555
C10_12 C5_12 1_555 1_555
C11_12 C10_12 1_555 1_555
H7_12 C11_12 1_555 1_555
C12_12 C11_12 1_555 1_555
H8_12 C12_12 1_555 1_555
C13_11 C12_12 1_555 1_555
C14_11 C13_11 1_555 1_555
H9_11 C14_11 1_555 1_555
C15_12 C10_12 1_555 1_555
H10_11 C15_12 1_555 1_555
C16_11 C13_11 1_555 1_555
N7_10 C18_12 1_555 1_555
N12_11 Ag1_11 1_555 1_555
N13_11 Ag1_11 1_555 1_555
C18_12 H12_12 1_555 1_555
C20_12 C18_12 1_555 1_555
H14_12 C20_12 1_555 1_555
C22_12 C20_12 1_555 1_555
H16_12 C22_12 1_555 1_555
C24_12 N7_10 1_555 1_555
C26_12 C24_12 1_555 1_555
C28_12 N11_10 1_555 1_555
C30_12 C28_12 1_555 1_555
H18_12 C30_12 1_555 1_555
C32_12 C30_12 1_555 1_555
H20_12 C32_12 1_555 1_555
C34_12 N11_10 1_555 1_555
H22_12 C34_12 1_555 1_555
C36_12 C26_12 1_555 1_555
C38_12 C36_12 1_555 1_555
H24_12 C38_12 1_555 1_555
C40_12 C38_12 1_555 1_555
H26_12 C40_12 1_555 1_555
C42_11 C40_12 1_555 1_555
C43_11 C41_11 1_555 1_555
C44_11 C42_11 1_555 1_555
H27_11 C43_11 1_555 1_555
H28_11 C44_11 1_555 1_555
C46_12 C36_12 1_555 1_555
H30_11 C46_12 1_555 1_555
C47_11 N12_11 1_555 1_555
C48_11 N13_11 1_555 1_555
C3_12 C4_12 1_555 1_555
C5_12 C6_12 1_555 1_555
C8_12 C9_12 1_555 1_555
C14_11 C15_12 1_555 1_555
C22_12 C24_12 1_555 1_555
C26_12 C28_12 1_555 1_555
C32_12 C34_12 1_555 1_555
C41_11 C47_11 1_555 1_555
C42_11 C48_11 1_555 1_555
C44_11 C46_12 1_555 1_555
C5_12 H31_12 1_555 1_555
C26_12 H32_12 1_555 1_555
Ag1_12 N3_12 1_555 1_555
N3_12 C16_12 1_555 1_555
C14_12 C13_12 1_555 1_555
H9_12 C14_12 1_555 1_555
C16_12 C13_12 1_555 1_555
N12_12 Ag1_12 1_555 1_555
N13_12 Ag1_12 1_555 1_555
C43_12 C41_12 1_555 1_555
C44_12 C42_12 1_555 1_555
H27_12 C43_12 1_555 1_555
H28_12 C44_12 1_555 1_555
C47_12 N12_12 1_555 1_555
C48_12 N13_12 1_555 1_555
C41_12 C47_12 1_555 1_555
C42_12 C48_12 1_555 1_555
Co1_4 N1_4 1_555 1_555
N1_4 C1_13 1_555 1_555
N2_4 Co1_4 1_555 1_555
C1_13 H1_13 1_555 1_555
C2_13 C1_13 1_555 1_555
H2_13 C2_13 1_555 1_555
C3_13 C2_13 1_555 1_555
H3_13 C3_13 1_555 1_555
C4_13 N1_4 1_555 1_555
C5_13 C4_13 1_555 1_555
C6_13 N2_4 1_555 1_555
C7_13 C6_13 1_555 1_555
H4_13 C7_13 1_555 1_555
C8_13 C7_13 1_555 1_555
H5_13 C8_13 1_555 1_555
C9_13 N2_4 1_555 1_555
H6_13 C9_13 1_555 1_555
C10_13 C5_13 1_555 1_555
C11_13 C10_13 1_555 1_555
H7_13 C11_13 1_555 1_555
C12_13 C11_13 1_555 1_555
H8_13 C12_13 1_555 1_555
C15_13 C10_13 1_555 1_555
N6_13 Co1_4 1_555 1_555
N7_13 Co1_4 1_555 1_555
N10_13 Co1_4 1_555 1_555
N11_13 Co1_4 1_555 1_555
C3_13 C4_13 1_555 1_555
C5_13 C6_13 1_555 1_555
C8_13 C9_13 1_555 1_555
C5_13 H31_13 1_555 1_555
Co3_5 N5_5 1_555 1_555
N5_5 C18_13 1_555 1_555
N9_5 Co3_5 1_555 1_555
C18_13 H12_13 1_555 1_555
C20_13 C18_13 1_555 1_555
H14_13 C20_13 1_555 1_555
C22_13 C20_13 1_555 1_555
H16_13 C22_13 1_555 1_555
C24_13 N5_5 1_555 1_555
C26_13 C24_13 1_555 1_555
C28_13 N9_5 1_555 1_555
C30_13 C28_13 1_555 1_555
H18_13 C30_13 1_555 1_555
C32_13 C30_13 1_555 1_555
H20_13 C32_13 1_555 1_555
C34_13 N9_5 1_555 1_555
H22_13 C34_13 1_555 1_555
C36_13 C26_13 1_555 1_555
C38_13 C36_13 1_555 1_555
H24_13 C38_13 1_555 1_555
C40_13 C38_13 1_555 1_555
H26_13 C40_13 1_555 1_555
C46_13 C36_13 1_555 1_555
C22_13 C24_13 1_555 1_555
C26_13 C28_13 1_555 1_555
C32_13 C34_13 1_555 1_555
C26_13 H32_13 1_555 1_555
Co2_6 N4_6 1_555 1_555
N4_6 C17_13 1_555 1_555
N8_6 Co2_6 1_555 1_555
C17_13 H11_13 1_555 1_555
C19_13 C17_13 1_555 1_555
H13_13 C19_13 1_555 1_555
C21_13 C19_13 1_555 1_555
H15_13 C21_13 1_555 1_555
C23_13 N4_6 1_555 1_555
C25_13 C23_13 1_555 1_555
C27_13 N8_6 1_555 1_555
C29_13 C27_13 1_555 1_555
H17_13 C29_13 1_555 1_555
C31_13 C29_13 1_555 1_555
H19_13 C31_13 1_555 1_555
C33_13 N8_6 1_555 1_555
H21_13 C33_13 1_555 1_555
C35_13 C25_13 1_555 1_555
C37_13 C35_13 1_555 1_555
H23_13 C37_13 1_555 1_555
C39_13 C37_13 1_555 1_555
H25_13 C39_13 1_555 1_555
C45_13 C35_13 1_555 1_555
C21_13 C23_13 1_555 1_555
C25_13 C27_13 1_555 1_555
C31_13 C33_13 1_555 1_555
C25_13 H33_13 1_555 1_555
N6_14 Co2_6 1_555 1_555
N7_14 Co2_6 1_555 1_555
N10_14 Co2_6 1_555 1_555
N11_14 Co2_6 1_555 1_555
N6_15 Co3_5 1_555 1_555
N7_15 Co3_5 1_555 1_555
N10_15 Co3_5 1_555 1_555
N11_15 Co3_5 1_555 1_555
Ag1_13 N3_13 1_555 1_555
N3_13 C16_13 1_555 1_555
C14_13 C13_13 1_555 1_555
H9_13 C14_13 1_555 1_555
C16_13 C13_13 1_555 1_555
Co3_6 N5_6 1_555 1_555
N7_13 C17_14 1_555 1_555
N5_6 C18_14 1_555 1_555
N9_6 Co3_6 1_555 1_555
N12_13 Ag1_13 1_555 1_555
N13_13 Ag1_13 1_555 1_555
C17_14 H11_14 1_555 1_555
C18_14 H12_14 1_555 1_555
C19_14 C17_14 1_555 1_555
C20_14 C18_14 1_555 1_555
H13_14 C19_14 1_555 1_555
H14_14 C20_14 1_555 1_555
C21_14 C19_14 1_555 1_555
C22_14 C20_14 1_555 1_555
H15_14 C21_14 1_555 1_555
H16_14 C22_14 1_555 1_555
C23_14 N7_13 1_555 1_555
C24_14 N5_6 1_555 1_555
C25_14 C23_14 1_555 1_555
C26_14 C24_14 1_555 1_555
C27_14 N11_13 1_555 1_555
C28_14 N9_6 1_555 1_555
C29_14 C27_14 1_555 1_555
C30_14 C28_14 1_555 1_555
H17_14 C29_14 1_555 1_555
H18_14 C30_14 1_555 1_555
C31_14 C29_14 1_555 1_555
C32_14 C30_14 1_555 1_555
H19_14 C31_14 1_555 1_555
H20_14 C32_14 1_555 1_555
C33_14 N11_13 1_555 1_555
C34_14 N9_6 1_555 1_555
H21_14 C33_14 1_555 1_555
H22_14 C34_14 1_555 1_555
C35_14 C25_14 1_555 1_555
C36_14 C26_14 1_555 1_555
C37_14 C35_14 1_555 1_555
C38_14 C36_14 1_555 1_555
H23_14 C37_14 1_555 1_555
H24_14 C38_14 1_555 1_555
C39_14 C37_14 1_555 1_555
C40_14 C38_14 1_555 1_555
H25_14 C39_14 1_555 1_555
H26_14 C40_14 1_555 1_555
C41_13 C39_14 1_555 1_555
C42_13 C40_14 1_555 1_555
C43_13 C41_13 1_555 1_555
C44_13 C42_13 1_555 1_555
H27_13 C43_13 1_555 1_555
H28_13 C44_13 1_555 1_555
C45_14 C35_14 1_555 1_555
C46_14 C36_14 1_555 1_555
H29_13 C45_14 1_555 1_555
H30_13 C46_14 1_555 1_555
C47_13 N12_13 1_555 1_555
C48_13 N13_13 1_555 1_555
C21_14 C23_14 1_555 1_555
C22_14 C24_14 1_555 1_555
C25_14 C27_14 1_555 1_555
C26_14 C28_14 1_555 1_555
C31_14 C33_14 1_555 1_555
C32_14 C34_14 1_555 1_555
C41_13 C47_13 1_555 1_555
C42_13 C48_13 1_555 1_555
C43_13 C45_14 1_555 1_555
C44_13 C46_14 1_555 1_555
C26_14 H32_14 1_555 1_555
C25_14 H33_14 1_555 1_555
N6_14 C1_14 1_555 1_555
C1_14 H1_14 1_555 1_555
C2_14 C1_14 1_555 1_555
H2_14 C2_14 1_555 1_555
C3_14 C2_14 1_555 1_555
H3_14 C3_14 1_555 1_555
C4_14 N6_14 1_555 1_555
C5_14 C4_14 1_555 1_555
C6_14 N10_14 1_555 1_555
C7_14 C6_14 1_555 1_555
H4_14 C7_14 1_555 1_555
C8_14 C7_14 1_555 1_555
H5_14 C8_14 1_555 1_555
C9_14 N10_14 1_555 1_555
H6_14 C9_14 1_555 1_555
C10_14 C5_14 1_555 1_555
C11_14 C10_14 1_555 1_555
H7_14 C11_14 1_555 1_555
C12_14 C11_14 1_555 1_555
H8_14 C12_14 1_555 1_555
C15_14 C10_14 1_555 1_555
C3_14 C4_14 1_555 1_555
C5_14 C6_14 1_555 1_555
C8_14 C9_14 1_555 1_555
C5_14 H31_14 1_555 1_555
N6_16 Co3_6 1_555 1_555
N7_16 Co3_6 1_555 1_555
N10_16 Co3_6 1_555 1_555
N11_16 Co3_6 1_555 1_555
Ag1_14 N3_14 1_555 1_555
N7_15 C1_15 1_555 1_555
N3_14 C16_14 1_555 1_555
C1_15 H1_15 1_555 1_555
C2_15 C1_15 1_555 1_555
H2_15 C2_15 1_555 1_555
C3_15 C2_15 1_555 1_555
H3_15 C3_15 1_555 1_555
C4_15 N7_15 1_555 1_555
C5_15 C4_15 1_555 1_555
C6_15 N11_15 1_555 1_555
C7_15 C6_15 1_555 1_555
H4_15 C7_15 1_555 1_555
C8_15 C7_15 1_555 1_555
H5_15 C8_15 1_555 1_555
C9_15 N11_15 1_555 1_555
H6_15 C9_15 1_555 1_555
C10_15 C5_15 1_555 1_555
C11_15 C10_15 1_555 1_555
H7_15 C11_15 1_555 1_555
C12_15 C11_15 1_555 1_555
H8_15 C12_15 1_555 1_555
C13_14 C12_15 1_555 1_555
C14_14 C13_14 1_555 1_555
H9_14 C14_14 1_555 1_555
C15_15 C10_15 1_555 1_555
H10_14 C15_15 1_555 1_555
C16_14 C13_14 1_555 1_555
N6_16 C17_15 1_555 1_555
N12_14 Ag1_14 1_555 1_555
N13_14 Ag1_14 1_555 1_555
C17_15 H11_15 1_555 1_555
C19_15 C17_15 1_555 1_555
H13_15 C19_15 1_555 1_555
C21_15 C19_15 1_555 1_555
H15_15 C21_15 1_555 1_555
C23_15 N6_16 1_555 1_555
C25_15 C23_15 1_555 1_555
C27_15 N10_16 1_555 1_555
C29_15 C27_15 1_555 1_555
H17_15 C29_15 1_555 1_555
C31_15 C29_15 1_555 1_555
H19_15 C31_15 1_555 1_555
C33_15 N10_16 1_555 1_555
H21_15 C33_15 1_555 1_555
C35_15 C25_15 1_555 1_555
C37_15 C35_15 1_555 1_555
H23_15 C37_15 1_555 1_555
C39_15 C37_15 1_555 1_555
H25_15 C39_15 1_555 1_555
C41_14 C39_15 1_555 1_555
C43_14 C41_14 1_555 1_555
C44_14 C42_14 1_555 1_555
H27_14 C43_14 1_555 1_555
H28_14 C44_14 1_555 1_555
C45_15 C35_15 1_555 1_555
H29_14 C45_15 1_555 1_555
C47_14 N12_14 1_555 1_555
C48_14 N13_14 1_555 1_555
C3_15 C4_15 1_555 1_555
C5_15 C6_15 1_555 1_555
C8_15 C9_15 1_555 1_555
C14_14 C15_15 1_555 1_555
C21_15 C23_15 1_555 1_555
C25_15 C27_15 1_555 1_555
C31_15 C33_15 1_555 1_555
C41_14 C47_14 1_555 1_555
C42_14 C48_14 1_555 1_555
C43_14 C45_15 1_555 1_555
C5_15 H31_15 1_555 1_555
C25_15 H33_15 1_555 1_555
N6_13 C18_15 1_555 1_555
C18_15 H12_15 1_555 1_555
C20_15 C18_15 1_555 1_555
H14_15 C20_15 1_555 1_555
C22_15 C20_15 1_555 1_555
H16_15 C22_15 1_555 1_555
C24_15 N6_13 1_555 1_555
C26_15 C24_15 1_555 1_555
C28_15 N10_13 1_555 1_555
C30_15 C28_15 1_555 1_555
H18_15 C30_15 1_555 1_555
C32_15 C30_15 1_555 1_555
H20_15 C32_15 1_555 1_555
C34_15 N10_13 1_555 1_555
H22_15 C34_15 1_555 1_555
C36_15 C26_15 1_555 1_555
C38_15 C36_15 1_555 1_555
H24_15 C38_15 1_555 1_555
C40_15 C38_15 1_555 1_555
H26_15 C40_15 1_555 1_555
C46_15 C36_15 1_555 1_555
C22_15 C24_15 1_555 1_555
C26_15 C28_15 1_555 1_555
C32_15 C34_15 1_555 1_555
C26_15 H32_15 1_555 1_555
N6_15 C17_16 1_555 1_555
C17_16 H11_16 1_555 1_555
C19_16 C17_16 1_555 1_555
H13_16 C19_16 1_555 1_555
C21_16 C19_16 1_555 1_555
H15_16 C21_16 1_555 1_555
C23_16 N6_15 1_555 1_555
C25_16 C23_16 1_555 1_555
C27_16 N10_15 1_555 1_555
C29_16 C27_16 1_555 1_555
H17_16 C29_16 1_555 1_555
C31_16 C29_16 1_555 1_555
H19_16 C31_16 1_555 1_555
C33_16 N10_15 1_555 1_555
H21_16 C33_16 1_555 1_555
C35_16 C25_16 1_555 1_555
C37_16 C35_16 1_555 1_555
H23_16 C37_16 1_555 1_555
C39_16 C37_16 1_555 1_555
H25_16 C39_16 1_555 1_555
C45_16 C35_16 1_555 1_555
C21_16 C23_16 1_555 1_555
C25_16 C27_16 1_555 1_555
C31_16 C33_16 1_555 1_555
C25_16 H33_16 1_555 1_555
Ag1_15 N3_15 1_555 1_555
N7_16 C1_16 1_555 1_555
N3_15 C16_15 1_555 1_555
C1_16 H1_16 1_555 1_555
C2_16 C1_16 1_555 1_555
H2_16 C2_16 1_555 1_555
C3_16 C2_16 1_555 1_555
H3_16 C3_16 1_555 1_555
C4_16 N7_16 1_555 1_555
C5_16 C4_16 1_555 1_555
C6_16 N11_16 1_555 1_555
C7_16 C6_16 1_555 1_555
H4_16 C7_16 1_555 1_555
C8_16 C7_16 1_555 1_555
H5_16 C8_16 1_555 1_555
C9_16 N11_16 1_555 1_555
H6_16 C9_16 1_555 1_555
C10_16 C5_16 1_555 1_555
C11_16 C10_16 1_555 1_555
H7_16 C11_16 1_555 1_555
C12_16 C11_16 1_555 1_555
H8_16 C12_16 1_555 1_555
C13_15 C12_16 1_555 1_555
C14_15 C13_15 1_555 1_555
H9_15 C14_15 1_555 1_555
C15_16 C10_16 1_555 1_555
H10_15 C15_16 1_555 1_555
C16_15 C13_15 1_555 1_555
N7_14 C18_16 1_555 1_555
N12_15 Ag1_15 1_555 1_555
N13_15 Ag1_15 1_555 1_555
C18_16 H12_16 1_555 1_555
C20_16 C18_16 1_555 1_555
H14_16 C20_16 1_555 1_555
C22_16 C20_16 1_555 1_555
H16_16 C22_16 1_555 1_555
C24_16 N7_14 1_555 1_555
C26_16 C24_16 1_555 1_555
C28_16 N11_14 1_555 1_555
C30_16 C28_16 1_555 1_555
H18_16 C30_16 1_555 1_555
C32_16 C30_16 1_555 1_555
H20_16 C32_16 1_555 1_555
C34_16 N11_14 1_555 1_555
H22_16 C34_16 1_555 1_555
C36_16 C26_16 1_555 1_555
C38_16 C36_16 1_555 1_555
H24_16 C38_16 1_555 1_555
C40_16 C38_16 1_555 1_555
H26_16 C40_16 1_555 1_555
C42_15 C40_16 1_555 1_555
C43_15 C41_15 1_555 1_555
C44_15 C42_15 1_555 1_555
H27_15 C43_15 1_555 1_555
H28_15 C44_15 1_555 1_555
C46_16 C36_16 1_555 1_555
H30_15 C46_16 1_555 1_555
C47_15 N12_15 1_555 1_555
C48_15 N13_15 1_555 1_555
C3_16 C4_16 1_555 1_555
C5_16 C6_16 1_555 1_555
C8_16 C9_16 1_555 1_555
C14_15 C15_16 1_555 1_555
C22_16 C24_16 1_555 1_555
C26_16 C28_16 1_555 1_555
C32_16 C34_16 1_555 1_555
C41_15 C47_15 1_555 1_555
C42_15 C48_15 1_555 1_555
C44_15 C46_16 1_555 1_555
C5_16 H31_16 1_555 1_555
C26_16 H32_16 1_555 1_555
Ag1_16 N3_16 1_555 1_555
N3_16 C16_16 1_555 1_555
C14_16 C13_16 1_555 1_555
H9_16 C14_16 1_555 1_555
C16_16 C13_16 1_555 1_555
N12_16 Ag1_16 1_555 1_555
N13_16 Ag1_16 1_555 1_555
C43_16 C41_16 1_555 1_555
C44_16 C42_16 1_555 1_555
H27_16 C43_16 1_555 1_555
H28_16 C44_16 1_555 1_555
C47_16 N12_16 1_555 1_555
C48_16 N13_16 1_555 1_555
C41_16 C47_16 1_555 1_555
C42_16 C48_16 1_555 1_555
Co2_7 N4_7 1_555 1_555
N4_7 C17_17 1_555 1_555
N8_7 Co2_7 1_555 1_555
C17_17 H11_17 1_555 1_555
C19_17 C17_17 1_555 1_555
H13_17 C19_17 1_555 1_555
C21_17 C19_17 1_555 1_555
H15_17 C21_17 1_555 1_555
C23_17 N4_7 1_555 1_555
C25_17 C23_17 1_555 1_555
C27_17 N8_7 1_555 1_555
C29_17 C27_17 1_555 1_555
H17_17 C29_17 1_555 1_555
C31_17 C29_17 1_555 1_555
H19_17 C31_17 1_555 1_555
C33_17 N8_7 1_555 1_555
H21_17 C33_17 1_555 1_555
C35_17 C25_17 1_555 1_555
C37_17 C35_17 1_555 1_555
H23_17 C37_17 1_555 1_555
C39_17 C37_17 1_555 1_555
H25_17 C39_17 1_555 1_555
C45_17 C35_17 1_555 1_555
C21_17 C23_17 1_555 1_555
C25_17 C27_17 1_555 1_555
C31_17 C33_17 1_555 1_555
C25_17 H33_17 1_555 1_555
Co1_5 N1_5 1_555 1_555
N1_5 C1_17 1_555 1_555
N2_5 Co1_5 1_555 1_555
C1_17 H1_17 1_555 1_555
C2_17 C1_17 1_555 1_555
H2_17 C2_17 1_555 1_555
C3_17 C2_17 1_555 1_555
H3_17 C3_17 1_555 1_555
C4_17 N1_5 1_555 1_555
C5_17 C4_17 1_555 1_555
C6_17 N2_5 1_555 1_555
C7_17 C6_17 1_555 1_555
H4_17 C7_17 1_555 1_555
C8_17 C7_17 1_555 1_555
H5_17 C8_17 1_555 1_555
C9_17 N2_5 1_555 1_555
H6_17 C9_17 1_555 1_555
C10_17 C5_17 1_555 1_555
C11_17 C10_17 1_555 1_555
H7_17 C11_17 1_555 1_555
C12_17 C11_17 1_555 1_555
H8_17 C12_17 1_555 1_555
C15_17 C10_17 1_555 1_555
N6_17 Co1_5 1_555 1_555
N7_17 Co1_5 1_555 1_555
N10_17 Co1_5 1_555 1_555
N11_17 Co1_5 1_555 1_555
C3_17 C4_17 1_555 1_555
C5_17 C6_17 1_555 1_555
C8_17 C9_17 1_555 1_555
C5_17 H31_17 1_555 1_555
Co3_7 N5_7 1_555 1_555
N5_7 C18_17 1_555 1_555
N9_7 Co3_7 1_555 1_555
C18_17 H12_17 1_555 1_555
C20_17 C18_17 1_555 1_555
H14_17 C20_17 1_555 1_555
C22_17 C20_17 1_555 1_555
H16_17 C22_17 1_555 1_555
C24_17 N5_7 1_555 1_555
C26_17 C24_17 1_555 1_555
C28_17 N9_7 1_555 1_555
C30_17 C28_17 1_555 1_555
H18_17 C30_17 1_555 1_555
C32_17 C30_17 1_555 1_555
H20_17 C32_17 1_555 1_555
C34_17 N9_7 1_555 1_555
H22_17 C34_17 1_555 1_555
C36_17 C26_17 1_555 1_555
C38_17 C36_17 1_555 1_555
H24_17 C38_17 1_555 1_555
C40_17 C38_17 1_555 1_555
H26_17 C40_17 1_555 1_555
C46_17 C36_17 1_555 1_555
C22_17 C24_17 1_555 1_555
C26_17 C28_17 1_555 1_555
C32_17 C34_17 1_555 1_555
C26_17 H32_17 1_555 1_555
N6_18 Co2_7 1_555 1_555
N7_18 Co2_7 1_555 1_555
N10_18 Co2_7 1_555 1_555
N11_18 Co2_7 1_555 1_555
N6_19 Co3_7 1_555 1_555
N7_19 Co3_7 1_555 1_555
N10_19 Co3_7 1_555 1_555
N11_19 Co3_7 1_555 1_555
N6_17 C18_18 1_555 1_555
C18_18 H12_18 1_555 1_555
C20_18 C18_18 1_555 1_555
H14_18 C20_18 1_555 1_555
C22_18 C20_18 1_555 1_555
H16_18 C22_18 1_555 1_555
C24_18 N6_17 1_555 1_555
C26_18 C24_18 1_555 1_555
C28_18 N10_17 1_555 1_555
C30_18 C28_18 1_555 1_555
H18_18 C30_18 1_555 1_555
C32_18 C30_18 1_555 1_555
H20_18 C32_18 1_555 1_555
C34_18 N10_17 1_555 1_555
H22_18 C34_18 1_555 1_555
C36_18 C26_18 1_555 1_555
C38_18 C36_18 1_555 1_555
H24_18 C38_18 1_555 1_555
C40_18 C38_18 1_555 1_555
H26_18 C40_18 1_555 1_555
C46_18 C36_18 1_555 1_555
C22_18 C24_18 1_555 1_555
C26_18 C28_18 1_555 1_555
C32_18 C34_18 1_555 1_555
C26_18 H32_18 1_555 1_555
Ag1_17 N3_17 1_555 1_555
N7_19 C1_18 1_555 1_555
N3_17 C16_17 1_555 1_555
C1_18 H1_18 1_555 1_555
C2_18 C1_18 1_555 1_555
H2_18 C2_18 1_555 1_555
C3_18 C2_18 1_555 1_555
H3_18 C3_18 1_555 1_555
C4_18 N7_19 1_555 1_555
C5_18 C4_18 1_555 1_555
C6_18 N11_19 1_555 1_555
C7_18 C6_18 1_555 1_555
H4_18 C7_18 1_555 1_555
C8_18 C7_18 1_555 1_555
H5_18 C8_18 1_555 1_555
C9_18 N11_19 1_555 1_555
H6_18 C9_18 1_555 1_555
C10_18 C5_18 1_555 1_555
C11_18 C10_18 1_555 1_555
H7_18 C11_18 1_555 1_555
C12_18 C11_18 1_555 1_555
H8_18 C12_18 1_555 1_555
C13_17 C12_18 1_555 1_555
C14_17 C13_17 1_555 1_555
H9_17 C14_17 1_555 1_555
C15_18 C10_18 1_555 1_555
H10_17 C15_18 1_555 1_555
C16_17 C13_17 1_555 1_555
Co2_8 N4_8 1_555 1_555
N4_8 C17_18 1_555 1_555
N8_8 Co2_8 1_555 1_555
N12_17 Ag1_17 1_555 1_555
N13_17 Ag1_17 1_555 1_555
C17_18 H11_18 1_555 1_555
C19_18 C17_18 1_555 1_555
H13_18 C19_18 1_555 1_555
C21_18 C19_18 1_555 1_555
H15_18 C21_18 1_555 1_555
C23_18 N4_8 1_555 1_555
C25_18 C23_18 1_555 1_555
C27_18 N8_8 1_555 1_555
C29_18 C27_18 1_555 1_555
H17_18 C29_18 1_555 1_555
C31_18 C29_18 1_555 1_555
H19_18 C31_18 1_555 1_555
C33_18 N8_8 1_555 1_555
H21_18 C33_18 1_555 1_555
C35_18 C25_18 1_555 1_555
C37_18 C35_18 1_555 1_555
H23_18 C37_18 1_555 1_555
C39_18 C37_18 1_555 1_555
H25_18 C39_18 1_555 1_555
C41_17 C39_18 1_555 1_555
C43_17 C41_17 1_555 1_555
C44_17 C42_17 1_555 1_555
H27_17 C43_17 1_555 1_555
H28_17 C44_17 1_555 1_555
C45_18 C35_18 1_555 1_555
H29_17 C45_18 1_555 1_555
C47_17 N12_17 1_555 1_555
C48_17 N13_17 1_555 1_555
C3_18 C4_18 1_555 1_555
C5_18 C6_18 1_555 1_555
C8_18 C9_18 1_555 1_555
C14_17 C15_18 1_555 1_555
C21_18 C23_18 1_555 1_555
C25_18 C27_18 1_555 1_555
C31_18 C33_18 1_555 1_555
C41_17 C47_17 1_555 1_555
C42_17 C48_17 1_555 1_555
C43_17 C45_18 1_555 1_555
C5_18 H31_18 1_555 1_555
C25_18 H33_18 1_555 1_555
N6_20 Co2_8 1_555 1_555
N7_20 Co2_8 1_555 1_555
N10_20 Co2_8 1_555 1_555
N11_20 Co2_8 1_555 1_555
N6_18 C1_19 1_555 1_555
C1_19 H1_19 1_555 1_555
C2_19 C1_19 1_555 1_555
H2_19 C2_19 1_555 1_555
C3_19 C2_19 1_555 1_555
H3_19 C3_19 1_555 1_555
C4_19 N6_18 1_555 1_555
C5_19 C4_19 1_555 1_555
C6_19 N10_18 1_555 1_555
C7_19 C6_19 1_555 1_555
H4_19 C7_19 1_555 1_555
C8_19 C7_19 1_555 1_555
H5_19 C8_19 1_555 1_555
C9_19 N10_18 1_555 1_555
H6_19 C9_19 1_555 1_555
C10_19 C5_19 1_555 1_555
C11_19 C10_19 1_555 1_555
H7_19 C11_19 1_555 1_555
C12_19 C11_19 1_555 1_555
H8_19 C12_19 1_555 1_555
C15_19 C10_19 1_555 1_555
C3_19 C4_19 1_555 1_555
C5_19 C6_19 1_555 1_555
C8_19 C9_19 1_555 1_555
C5_19 H31_19 1_555 1_555
Ag1_18 N3_18 1_555 1_555
N3_18 C16_18 1_555 1_555
C14_18 C13_18 1_555 1_555
H9_18 C14_18 1_555 1_555
C16_18 C13_18 1_555 1_555
N7_17 C17_19 1_555 1_555
N7_20 C18_19 1_555 1_555
N12_18 Ag1_18 1_555 1_555
N13_18 Ag1_18 1_555 1_555
C17_19 H11_19 1_555 1_555
C18_19 H12_19 1_555 1_555
C19_19 C17_19 1_555 1_555
C20_19 C18_19 1_555 1_555
H13_19 C19_19 1_555 1_555
H14_19 C20_19 1_555 1_555
C21_19 C19_19 1_555 1_555
C22_19 C20_19 1_555 1_555
H15_19 C21_19 1_555 1_555
H16_19 C22_19 1_555 1_555
C23_19 N7_17 1_555 1_555
C24_19 N7_20 1_555 1_555
C25_19 C23_19 1_555 1_555
C26_19 C24_19 1_555 1_555
C27_19 N11_17 1_555 1_555
C28_19 N11_20 1_555 1_555
C29_19 C27_19 1_555 1_555
C30_19 C28_19 1_555 1_555
H17_19 C29_19 1_555 1_555
H18_19 C30_19 1_555 1_555
C31_19 C29_19 1_555 1_555
C32_19 C30_19 1_555 1_555
H19_19 C31_19 1_555 1_555
H20_19 C32_19 1_555 1_555
C33_19 N11_17 1_555 1_555
C34_19 N11_20 1_555 1_555
H21_19 C33_19 1_555 1_555
H22_19 C34_19 1_555 1_555
C35_19 C25_19 1_555 1_555
C36_19 C26_19 1_555 1_555
C37_19 C35_19 1_555 1_555
C38_19 C36_19 1_555 1_555
H23_19 C37_19 1_555 1_555
H24_19 C38_19 1_555 1_555
C39_19 C37_19 1_555 1_555
C40_19 C38_19 1_555 1_555
H25_19 C39_19 1_555 1_555
H26_19 C40_19 1_555 1_555
C41_18 C39_19 1_555 1_555
C42_18 C40_19 1_555 1_555
C43_18 C41_18 1_555 1_555
C44_18 C42_18 1_555 1_555
H27_18 C43_18 1_555 1_555
H28_18 C44_18 1_555 1_555
C45_19 C35_19 1_555 1_555
C46_19 C36_19 1_555 1_555
H29_18 C45_19 1_555 1_555
H30_18 C46_19 1_555 1_555
C47_18 N12_18 1_555 1_555
C48_18 N13_18 1_555 1_555
C21_19 C23_19 1_555 1_555
C22_19 C24_19 1_555 1_555
C25_19 C27_19 1_555 1_555
C26_19 C28_19 1_555 1_555
C31_19 C33_19 1_555 1_555
C32_19 C34_19 1_555 1_555
C41_18 C47_18 1_555 1_555
C42_18 C48_18 1_555 1_555
C43_18 C45_19 1_555 1_555
C44_18 C46_19 1_555 1_555
C26_19 H32_19 1_555 1_555
C25_19 H33_19 1_555 1_555
Ag1_19 N3_19 1_555 1_555
N6_20 C1_20 1_555 1_555
N3_19 C16_19 1_555 1_555
C1_20 H1_20 1_555 1_555
C2_20 C1_20 1_555 1_555
H2_20 C2_20 1_555 1_555
C3_20 C2_20 1_555 1_555
H3_20 C3_20 1_555 1_555
C4_20 N6_20 1_555 1_555
C5_20 C4_20 1_555 1_555
C6_20 N10_20 1_555 1_555
C7_20 C6_20 1_555 1_555
H4_20 C7_20 1_555 1_555
C8_20 C7_20 1_555 1_555
H5_20 C8_20 1_555 1_555
C9_20 N10_20 1_555 1_555
H6_20 C9_20 1_555 1_555
C10_20 C5_20 1_555 1_555
C11_20 C10_20 1_555 1_555
H7_20 C11_20 1_555 1_555
C12_20 C11_20 1_555 1_555
H8_20 C12_20 1_555 1_555
C13_19 C12_20 1_555 1_555
C14_19 C13_19 1_555 1_555
H9_19 C14_19 1_555 1_555
C15_20 C10_20 1_555 1_555
H10_19 C15_20 1_555 1_555
C16_19 C13_19 1_555 1_555
N7_18 C18_20 1_555 1_555
N12_19 Ag1_19 1_555 1_555
N13_19 Ag1_19 1_555 1_555
C18_20 H12_20 1_555 1_555
C20_20 C18_20 1_555 1_555
H14_20 C20_20 1_555 1_555
C22_20 C20_20 1_555 1_555
H16_20 C22_20 1_555 1_555
C24_20 N7_18 1_555 1_555
C26_20 C24_20 1_555 1_555
C28_20 N11_18 1_555 1_555
C30_20 C28_20 1_555 1_555
H18_20 C30_20 1_555 1_555
C32_20 C30_20 1_555 1_555
H20_20 C32_20 1_555 1_555
C34_20 N11_18 1_555 1_555
H22_20 C34_20 1_555 1_555
C36_20 C26_20 1_555 1_555
C38_20 C36_20 1_555 1_555
H24_20 C38_20 1_555 1_555
C40_20 C38_20 1_555 1_555
H26_20 C40_20 1_555 1_555
C42_19 C40_20 1_555 1_555
C43_19 C41_19 1_555 1_555
C44_19 C42_19 1_555 1_555
H27_19 C43_19 1_555 1_555
H28_19 C44_19 1_555 1_555
C46_20 C36_20 1_555 1_555
H30_19 C46_20 1_555 1_555
C47_19 N12_19 1_555 1_555
C48_19 N13_19 1_555 1_555
C3_20 C4_20 1_555 1_555
C5_20 C6_20 1_555 1_555
C8_20 C9_20 1_555 1_555
C14_19 C15_20 1_555 1_555
C22_20 C24_20 1_555 1_555
C26_20 C28_20 1_555 1_555
C32_20 C34_20 1_555 1_555
C41_19 C47_19 1_555 1_555
C42_19 C48_19 1_555 1_555
C44_19 C46_20 1_555 1_555
C5_20 H31_20 1_555 1_555
C26_20 H32_20 1_555 1_555
N6_19 C17_20 1_555 1_555
C17_20 H11_20 1_555 1_555
C19_20 C17_20 1_555 1_555
H13_20 C19_20 1_555 1_555
C21_20 C19_20 1_555 1_555
H15_20 C21_20 1_555 1_555
C23_20 N6_19 1_555 1_555
C25_20 C23_20 1_555 1_555
C27_20 N10_19 1_555 1_555
C29_20 C27_20 1_555 1_555
H17_20 C29_20 1_555 1_555
C31_20 C29_20 1_555 1_555
H19_20 C31_20 1_555 1_555
C33_20 N10_19 1_555 1_555
H21_20 C33_20 1_555 1_555
C35_20 C25_20 1_555 1_555
C37_20 C35_20 1_555 1_555
H23_20 C37_20 1_555 1_555
C39_20 C37_20 1_555 1_555
H25_20 C39_20 1_555 1_555
C45_20 C35_20 1_555 1_555
C21_20 C23_20 1_555 1_555
C25_20 C27_20 1_555 1_555
C31_20 C33_20 1_555 1_555
C25_20 H33_20 1_555 1_555
Ag1_20 N3_20 1_555 1_555
N3_20 C16_20 1_555 1_555
C14_20 C13_20 1_555 1_555
H9_20 C14_20 1_555 1_555
C16_20 C13_20 1_555 1_555
N12_20 Ag1_20 1_555 1_555
N13_20 Ag1_20 1_555 1_555
C43_20 C41_20 1_555 1_555
C44_20 C42_20 1_555 1_555
H27_20 C43_20 1_555 1_555
H28_20 C44_20 1_555 1_555
C47_20 N12_20 1_555 1_555
C48_20 N13_20 1_555 1_555
C41_20 C47_20 1_555 1_555
C42_20 C48_20 1_555 1_555
Co1_6 N1_6 1_555 1_555
N1_6 C1_21 1_555 1_555
N2_6 Co1_6 1_555 1_555
C1_21 H1_21 1_555 1_555
C2_21 C1_21 1_555 1_555
H2_21 C2_21 1_555 1_555
C3_21 C2_21 1_555 1_555
H3_21 C3_21 1_555 1_555
C4_21 N1_6 1_555 1_555
C5_21 C4_21 1_555 1_555
C6_21 N2_6 1_555 1_555
C7_21 C6_21 1_555 1_555
H4_21 C7_21 1_555 1_555
C8_21 C7_21 1_555 1_555
H5_21 C8_21 1_555 1_555
C9_21 N2_6 1_555 1_555
H6_21 C9_21 1_555 1_555
C10_21 C5_21 1_555 1_555
C11_21 C10_21 1_555 1_555
H7_21 C11_21 1_555 1_555
C12_21 C11_21 1_555 1_555
H8_21 C12_21 1_555 1_555
C15_21 C10_21 1_555 1_555
N6_21 Co1_6 1_555 1_555
N7_21 Co1_6 1_555 1_555
N10_21 Co1_6 1_555 1_555
N11_21 Co1_6 1_555 1_555
C3_21 C4_21 1_555 1_555
C5_21 C6_21 1_555 1_555
C8_21 C9_21 1_555 1_555
C5_21 H31_21 1_555 1_555
Co2_9 N4_9 1_555 1_555
N4_9 C17_21 1_555 1_555
N8_9 Co2_9 1_555 1_555
C17_21 H11_21 1_555 1_555
C19_21 C17_21 1_555 1_555
H13_21 C19_21 1_555 1_555
C21_21 C19_21 1_555 1_555
H15_21 C21_21 1_555 1_555
C23_21 N4_9 1_555 1_555
C25_21 C23_21 1_555 1_555
C27_21 N8_9 1_555 1_555
C29_21 C27_21 1_555 1_555
H17_21 C29_21 1_555 1_555
C31_21 C29_21 1_555 1_555
H19_21 C31_21 1_555 1_555
C33_21 N8_9 1_555 1_555
H21_21 C33_21 1_555 1_555
C35_21 C25_21 1_555 1_555
C37_21 C35_21 1_555 1_555
H23_21 C37_21 1_555 1_555
C39_21 C37_21 1_555 1_555
H25_21 C39_21 1_555 1_555
C45_21 C35_21 1_555 1_555
C21_21 C23_21 1_555 1_555
C25_21 C27_21 1_555 1_555
C31_21 C33_21 1_555 1_555
C25_21 H33_21 1_555 1_555
Co3_8 N5_8 1_555 1_555
N5_8 C18_21 1_555 1_555
N9_8 Co3_8 1_555 1_555
C18_21 H12_21 1_555 1_555
C20_21 C18_21 1_555 1_555
H14_21 C20_21 1_555 1_555
C22_21 C20_21 1_555 1_555
H16_21 C22_21 1_555 1_555
C24_21 N5_8 1_555 1_555
C26_21 C24_21 1_555 1_555
C28_21 N9_8 1_555 1_555
C30_21 C28_21 1_555 1_555
H18_21 C30_21 1_555 1_555
C32_21 C30_21 1_555 1_555
H20_21 C32_21 1_555 1_555
C34_21 N9_8 1_555 1_555
H22_21 C34_21 1_555 1_555
C36_21 C26_21 1_555 1_555
C38_21 C36_21 1_555 1_555
H24_21 C38_21 1_555 1_555
C40_21 C38_21 1_555 1_555
H26_21 C40_21 1_555 1_555
C46_21 C36_21 1_555 1_555
C22_21 C24_21 1_555 1_555
C26_21 C28_21 1_555 1_555
C32_21 C34_21 1_555 1_555
C26_21 H32_21 1_555 1_555
N6_22 Co2_9 1_555 1_555
N7_22 Co2_9 1_555 1_555
N10_22 Co2_9 1_555 1_555
N11_22 Co2_9 1_555 1_555
N6_23 Co3_8 1_555 1_555
N7_23 Co3_8 1_555 1_555
N10_23 Co3_8 1_555 1_555
N11_23 Co3_8 1_555 1_555
Ag1_21 N3_21 1_555 1_555
N3_21 C16_21 1_555 1_555
C14_21 C13_21 1_555 1_555
H9_21 C14_21 1_555 1_555
C16_21 C13_21 1_555 1_555
Co3_9 N5_9 1_555 1_555
N7_21 C17_22 1_555 1_555
N5_9 C18_22 1_555 1_555
N9_9 Co3_9 1_555 1_555
N12_21 Ag1_21 1_555 1_555
N13_21 Ag1_21 1_555 1_555
C17_22 H11_22 1_555 1_555
C18_22 H12_22 1_555 1_555
C19_22 C17_22 1_555 1_555
C20_22 C18_22 1_555 1_555
H13_22 C19_22 1_555 1_555
H14_22 C20_22 1_555 1_555
C21_22 C19_22 1_555 1_555
C22_22 C20_22 1_555 1_555
H15_22 C21_22 1_555 1_555
H16_22 C22_22 1_555 1_555
C23_22 N7_21 1_555 1_555
C24_22 N5_9 1_555 1_555
C25_22 C23_22 1_555 1_555
C26_22 C24_22 1_555 1_555
C27_22 N11_21 1_555 1_555
C28_22 N9_9 1_555 1_555
C29_22 C27_22 1_555 1_555
C30_22 C28_22 1_555 1_555
H17_22 C29_22 1_555 1_555
H18_22 C30_22 1_555 1_555
C31_22 C29_22 1_555 1_555
C32_22 C30_22 1_555 1_555
H19_22 C31_22 1_555 1_555
H20_22 C32_22 1_555 1_555
C33_22 N11_21 1_555 1_555
C34_22 N9_9 1_555 1_555
H21_22 C33_22 1_555 1_555
H22_22 C34_22 1_555 1_555
C35_22 C25_22 1_555 1_555
C36_22 C26_22 1_555 1_555
C37_22 C35_22 1_555 1_555
C38_22 C36_22 1_555 1_555
H23_22 C37_22 1_555 1_555
H24_22 C38_22 1_555 1_555
C39_22 C37_22 1_555 1_555
C40_22 C38_22 1_555 1_555
H25_22 C39_22 1_555 1_555
H26_22 C40_22 1_555 1_555
C41_21 C39_22 1_555 1_555
C42_21 C40_22 1_555 1_555
C43_21 C41_21 1_555 1_555
C44_21 C42_21 1_555 1_555
H27_21 C43_21 1_555 1_555
H28_21 C44_21 1_555 1_555
C45_22 C35_22 1_555 1_555
C46_22 C36_22 1_555 1_555
H29_21 C45_22 1_555 1_555
H30_21 C46_22 1_555 1_555
C47_21 N12_21 1_555 1_555
C48_21 N13_21 1_555 1_555
C21_22 C23_22 1_555 1_555
C22_22 C24_22 1_555 1_555
C25_22 C27_22 1_555 1_555
C26_22 C28_22 1_555 1_555
C31_22 C33_22 1_555 1_555
C32_22 C34_22 1_555 1_555
C41_21 C47_21 1_555 1_555
C42_21 C48_21 1_555 1_555
C43_21 C45_22 1_555 1_555
C44_21 C46_22 1_555 1_555
C26_22 H32_22 1_555 1_555
C25_22 H33_22 1_555 1_555
N6_22 C1_22 1_555 1_555
C1_22 H1_22 1_555 1_555
C2_22 C1_22 1_555 1_555
H2_22 C2_22 1_555 1_555
C3_22 C2_22 1_555 1_555
H3_22 C3_22 1_555 1_555
C4_22 N6_22 1_555 1_555
C5_22 C4_22 1_555 1_555
C6_22 N10_22 1_555 1_555
C7_22 C6_22 1_555 1_555
H4_22 C7_22 1_555 1_555
C8_22 C7_22 1_555 1_555
H5_22 C8_22 1_555 1_555
C9_22 N10_22 1_555 1_555
H6_22 C9_22 1_555 1_555
C10_22 C5_22 1_555 1_555
C11_22 C10_22 1_555 1_555
H7_22 C11_22 1_555 1_555
C12_22 C11_22 1_555 1_555
H8_22 C12_22 1_555 1_555
C15_22 C10_22 1_555 1_555
C3_22 C4_22 1_555 1_555
C5_22 C6_22 1_555 1_555
C8_22 C9_22 1_555 1_555
C5_22 H31_22 1_555 1_555
N6_24 Co3_9 1_555 1_555
N7_24 Co3_9 1_555 1_555
N10_24 Co3_9 1_555 1_555
N11_24 Co3_9 1_555 1_555
N6_21 C18_23 1_555 1_555
C18_23 H12_23 1_555 1_555
C20_23 C18_23 1_555 1_555
H14_23 C20_23 1_555 1_555
C22_23 C20_23 1_555 1_555
H16_23 C22_23 1_555 1_555
C24_23 N6_21 1_555 1_555
C26_23 C24_23 1_555 1_555
C28_23 N10_21 1_555 1_555
C30_23 C28_23 1_555 1_555
H18_23 C30_23 1_555 1_555
C32_23 C30_23 1_555 1_555
H20_23 C32_23 1_555 1_555
C34_23 N10_21 1_555 1_555
H22_23 C34_23 1_555 1_555
C36_23 C26_23 1_555 1_555
C38_23 C36_23 1_555 1_555
H24_23 C38_23 1_555 1_555
C40_23 C38_23 1_555 1_555
H26_23 C40_23 1_555 1_555
C46_23 C36_23 1_555 1_555
C22_23 C24_23 1_555 1_555
C26_23 C28_23 1_555 1_555
C32_23 C34_23 1_555 1_555
C26_23 H32_23 1_555 1_555
Ag1_22 N3_22 1_555 1_555
N7_23 C1_23 1_555 1_555
N3_22 C16_22 1_555 1_555
C1_23 H1_23 1_555 1_555
C2_23 C1_23 1_555 1_555
H2_23 C2_23 1_555 1_555
C3_23 C2_23 1_555 1_555
H3_23 C3_23 1_555 1_555
C4_23 N7_23 1_555 1_555
C5_23 C4_23 1_555 1_555
C6_23 N11_23 1_555 1_555
C7_23 C6_23 1_555 1_555
H4_23 C7_23 1_555 1_555
C8_23 C7_23 1_555 1_555
H5_23 C8_23 1_555 1_555
C9_23 N11_23 1_555 1_555
H6_23 C9_23 1_555 1_555
C10_23 C5_23 1_555 1_555
C11_23 C10_23 1_555 1_555
H7_23 C11_23 1_555 1_555
C12_23 C11_23 1_555 1_555
H8_23 C12_23 1_555 1_555
C13_22 C12_23 1_555 1_555
C14_22 C13_22 1_555 1_555
H9_22 C14_22 1_555 1_555
C15_23 C10_23 1_555 1_555
H10_22 C15_23 1_555 1_555
C16_22 C13_22 1_555 1_555
N6_24 C17_23 1_555 1_555
N12_22 Ag1_22 1_555 1_555
N13_22 Ag1_22 1_555 1_555
C17_23 H11_23 1_555 1_555
C19_23 C17_23 1_555 1_555
H13_23 C19_23 1_555 1_555
C21_23 C19_23 1_555 1_555
H15_23 C21_23 1_555 1_555
C23_23 N6_24 1_555 1_555
C25_23 C23_23 1_555 1_555
C27_23 N10_24 1_555 1_555
C29_23 C27_23 1_555 1_555
H17_23 C29_23 1_555 1_555
C31_23 C29_23 1_555 1_555
H19_23 C31_23 1_555 1_555
C33_23 N10_24 1_555 1_555
H21_23 C33_23 1_555 1_555
C35_23 C25_23 1_555 1_555
C37_23 C35_23 1_555 1_555
H23_23 C37_23 1_555 1_555
C39_23 C37_23 1_555 1_555
H25_23 C39_23 1_555 1_555
C41_22 C39_23 1_555 1_555
C43_22 C41_22 1_555 1_555
C44_22 C42_22 1_555 1_555
H27_22 C43_22 1_555 1_555
H28_22 C44_22 1_555 1_555
C45_23 C35_23 1_555 1_555
H29_22 C45_23 1_555 1_555
C47_22 N12_22 1_555 1_555
C48_22 N13_22 1_555 1_555
C3_23 C4_23 1_555 1_555
C5_23 C6_23 1_555 1_555
C8_23 C9_23 1_555 1_555
C14_22 C15_23 1_555 1_555
C21_23 C23_23 1_555 1_555
C25_23 C27_23 1_555 1_555
C31_23 C33_23 1_555 1_555
C41_22 C47_22 1_555 1_555
C42_22 C48_22 1_555 1_555
C43_22 C45_23 1_555 1_555
C5_23 H31_23 1_555 1_555
C25_23 H33_23 1_555 1_555
Ag1_23 N3_23 1_555 1_555
N7_24 C1_24 1_555 1_555
N3_23 C16_23 1_555 1_555
C1_24 H1_24 1_555 1_555
C2_24 C1_24 1_555 1_555
H2_24 C2_24 1_555 1_555
C3_24 C2_24 1_555 1_555
H3_24 C3_24 1_555 1_555
C4_24 N7_24 1_555 1_555
C5_24 C4_24 1_555 1_555
C6_24 N11_24 1_555 1_555
C7_24 C6_24 1_555 1_555
H4_24 C7_24 1_555 1_555
C8_24 C7_24 1_555 1_555
H5_24 C8_24 1_555 1_555
C9_24 N11_24 1_555 1_555
H6_24 C9_24 1_555 1_555
C10_24 C5_24 1_555 1_555
C11_24 C10_24 1_555 1_555
H7_24 C11_24 1_555 1_555
C12_24 C11_24 1_555 1_555
H8_24 C12_24 1_555 1_555
C13_23 C12_24 1_555 1_555
C14_23 C13_23 1_555 1_555
H9_23 C14_23 1_555 1_555
C15_24 C10_24 1_555 1_555
H10_23 C15_24 1_555 1_555
C16_23 C13_23 1_555 1_555
N7_22 C18_24 1_555 1_555
N12_23 Ag1_23 1_555 1_555
N13_23 Ag1_23 1_555 1_555
C18_24 H12_24 1_555 1_555
C20_24 C18_24 1_555 1_555
H14_24 C20_24 1_555 1_555
C22_24 C20_24 1_555 1_555
H16_24 C22_24 1_555 1_555
C24_24 N7_22 1_555 1_555
C26_24 C24_24 1_555 1_555
C28_24 N11_22 1_555 1_555
C30_24 C28_24 1_555 1_555
H18_24 C30_24 1_555 1_555
C32_24 C30_24 1_555 1_555
H20_24 C32_24 1_555 1_555
C34_24 N11_22 1_555 1_555
H22_24 C34_24 1_555 1_555
C36_24 C26_24 1_555 1_555
C38_24 C36_24 1_555 1_555
H24_24 C38_24 1_555 1_555
C40_24 C38_24 1_555 1_555
H26_24 C40_24 1_555 1_555
C42_23 C40_24 1_555 1_555
C43_23 C41_23 1_555 1_555
C44_23 C42_23 1_555 1_555
H27_23 C43_23 1_555 1_555
H28_23 C44_23 1_555 1_555
C46_24 C36_24 1_555 1_555
H30_23 C46_24 1_555 1_555
C47_23 N12_23 1_555 1_555
C48_23 N13_23 1_555 1_555
C3_24 C4_24 1_555 1_555
C5_24 C6_24 1_555 1_555
C8_24 C9_24 1_555 1_555
C14_23 C15_24 1_555 1_555
C22_24 C24_24 1_555 1_555
C26_24 C28_24 1_555 1_555
C32_24 C34_24 1_555 1_555
C41_23 C47_23 1_555 1_555
C42_23 C48_23 1_555 1_555
C44_23 C46_24 1_555 1_555
C5_24 H31_24 1_555 1_555
C26_24 H32_24 1_555 1_555
N6_23 C17_24 1_555 1_555
C17_24 H11_24 1_555 1_555
C19_24 C17_24 1_555 1_555
H13_24 C19_24 1_555 1_555
C21_24 C19_24 1_555 1_555
H15_24 C21_24 1_555 1_555
C23_24 N6_23 1_555 1_555
C25_24 C23_24 1_555 1_555
C27_24 N10_23 1_555 1_555
C29_24 C27_24 1_555 1_555
H17_24 C29_24 1_555 1_555
C31_24 C29_24 1_555 1_555
H19_24 C31_24 1_555 1_555
C33_24 N10_23 1_555 1_555
H21_24 C33_24 1_555 1_555
C35_24 C25_24 1_555 1_555
C37_24 C35_24 1_555 1_555
H23_24 C37_24 1_555 1_555
C39_24 C37_24 1_555 1_555
H25_24 C39_24 1_555 1_555
C45_24 C35_24 1_555 1_555
C21_24 C23_24 1_555 1_555
C25_24 C27_24 1_555 1_555
C31_24 C33_24 1_555 1_555
C25_24 H33_24 1_555 1_555
Ag1_24 N3_24 1_555 1_555
N3_24 C16_24 1_555 1_555
C14_24 C13_24 1_555 1_555
H9_24 C14_24 1_555 1_555
C16_24 C13_24 1_555 1_555
N12_24 Ag1_24 1_555 1_555
N13_24 Ag1_24 1_555 1_555
C43_24 C41_24 1_555 1_555
C44_24 C42_24 1_555 1_555
H27_24 C43_24 1_555 1_555
H28_24 C44_24 1_555 1_555
C47_24 N12_24 1_555 1_555
C48_24 N13_24 1_555 1_555
C41_24 C47_24 1_555 1_555
C42_24 C48_24 1_555 1_555
Co3_10 N5_10 1_555 1_555
N5_10 C18_25 1_555 1_555
N9_10 Co3_10 1_555 1_555
C18_25 H12_25 1_555 1_555
C20_25 C18_25 1_555 1_555
H14_25 C20_25 1_555 1_555
C22_25 C20_25 1_555 1_555
H16_25 C22_25 1_555 1_555
C24_25 N5_10 1_555 1_555
C26_25 C24_25 1_555 1_555
C28_25 N9_10 1_555 1_555
C30_25 C28_25 1_555 1_555
H18_25 C30_25 1_555 1_555
C32_25 C30_25 1_555 1_555
H20_25 C32_25 1_555 1_555
C34_25 N9_10 1_555 1_555
H22_25 C34_25 1_555 1_555
C36_25 C26_25 1_555 1_555
C38_25 C36_25 1_555 1_555
H24_25 C38_25 1_555 1_555
C40_25 C38_25 1_555 1_555
H26_25 C40_25 1_555 1_555
C46_25 C36_25 1_555 1_555
C22_25 C24_25 1_555 1_555
C26_25 C28_25 1_555 1_555
C32_25 C34_25 1_555 1_555
C26_25 H32_25 1_555 1_555
Co1_7 N1_7 1_555 1_555
N1_7 C1_25 1_555 1_555
N2_7 Co1_7 1_555 1_555
C1_25 H1_25 1_555 1_555
C2_25 C1_25 1_555 1_555
H2_25 C2_25 1_555 1_555
C3_25 C2_25 1_555 1_555
H3_25 C3_25 1_555 1_555
C4_25 N1_7 1_555 1_555
C5_25 C4_25 1_555 1_555
C6_25 N2_7 1_555 1_555
C7_25 C6_25 1_555 1_555
H4_25 C7_25 1_555 1_555
C8_25 C7_25 1_555 1_555
H5_25 C8_25 1_555 1_555
C9_25 N2_7 1_555 1_555
H6_25 C9_25 1_555 1_555
C10_25 C5_25 1_555 1_555
C11_25 C10_25 1_555 1_555
H7_25 C11_25 1_555 1_555
C12_25 C11_25 1_555 1_555
H8_25 C12_25 1_555 1_555
C15_25 C10_25 1_555 1_555
N6_25 Co1_7 1_555 1_555
N7_25 Co1_7 1_555 1_555
N10_25 Co1_7 1_555 1_555
N11_25 Co1_7 1_555 1_555
C3_25 C4_25 1_555 1_555
C5_25 C6_25 1_555 1_555
C8_25 C9_25 1_555 1_555
C5_25 H31_25 1_555 1_555
Co2_10 N4_10 1_555 1_555
N4_10 C17_25 1_555 1_555
N8_10 Co2_10 1_555 1_555
C17_25 H11_25 1_555 1_555
C19_25 C17_25 1_555 1_555
H13_25 C19_25 1_555 1_555
C21_25 C19_25 1_555 1_555
H15_25 C21_25 1_555 1_555
C23_25 N4_10 1_555 1_555
C25_25 C23_25 1_555 1_555
C27_25 N8_10 1_555 1_555
C29_25 C27_25 1_555 1_555
H17_25 C29_25 1_555 1_555
C31_25 C29_25 1_555 1_555
H19_25 C31_25 1_555 1_555
C33_25 N8_10 1_555 1_555
H21_25 C33_25 1_555 1_555
C35_25 C25_25 1_555 1_555
C37_25 C35_25 1_555 1_555
H23_25 C37_25 1_555 1_555
C39_25 C37_25 1_555 1_555
H25_25 C39_25 1_555 1_555
C45_25 C35_25 1_555 1_555
C21_25 C23_25 1_555 1_555
C25_25 C27_25 1_555 1_555
C31_25 C33_25 1_555 1_555
C25_25 H33_25 1_555 1_555
N6_26 Co2_10 1_555 1_555
N7_26 Co2_10 1_555 1_555
N10_26 Co2_10 1_555 1_555
N11_26 Co2_10 1_555 1_555
N6_27 Co3_10 1_555 1_555
N7_27 Co3_10 1_555 1_555
N10_27 Co3_10 1_555 1_555
N11_27 Co3_10 1_555 1_555
Ag1_25 N3_25 1_555 1_555
N7_27 C1_26 1_555 1_555
N3_25 C16_25 1_555 1_555
C1_26 H1_26 1_555 1_555
C2_26 C1_26 1_555 1_555
H2_26 C2_26 1_555 1_555
C3_26 C2_26 1_555 1_555
H3_26 C3_26 1_555 1_555
C4_26 N7_27 1_555 1_555
C5_26 C4_26 1_555 1_555
C6_26 N11_27 1_555 1_555
C7_26 C6_26 1_555 1_555
H4_26 C7_26 1_555 1_555
C8_26 C7_26 1_555 1_555
H5_26 C8_26 1_555 1_555
C9_26 N11_27 1_555 1_555
H6_26 C9_26 1_555 1_555
C10_26 C5_26 1_555 1_555
C11_26 C10_26 1_555 1_555
H7_26 C11_26 1_555 1_555
C12_26 C11_26 1_555 1_555
H8_26 C12_26 1_555 1_555
C13_25 C12_26 1_555 1_555
C14_25 C13_25 1_555 1_555
H9_25 C14_25 1_555 1_555
C15_26 C10_26 1_555 1_555
H10_25 C15_26 1_555 1_555
C16_25 C13_25 1_555 1_555
Co2_11 N4_11 1_555 1_555
N4_11 C17_26 1_555 1_555
N8_11 Co2_11 1_555 1_555
N12_25 Ag1_25 1_555 1_555
N13_25 Ag1_25 1_555 1_555
C17_26 H11_26 1_555 1_555
C19_26 C17_26 1_555 1_555
H13_26 C19_26 1_555 1_555
C21_26 C19_26 1_555 1_555
H15_26 C21_26 1_555 1_555
C23_26 N4_11 1_555 1_555
C25_26 C23_26 1_555 1_555
C27_26 N8_11 1_555 1_555
C29_26 C27_26 1_555 1_555
H17_26 C29_26 1_555 1_555
C31_26 C29_26 1_555 1_555
H19_26 C31_26 1_555 1_555
C33_26 N8_11 1_555 1_555
H21_26 C33_26 1_555 1_555
C35_26 C25_26 1_555 1_555
C37_26 C35_26 1_555 1_555
H23_26 C37_26 1_555 1_555
C39_26 C37_26 1_555 1_555
H25_26 C39_26 1_555 1_555
C41_25 C39_26 1_555 1_555
C43_25 C41_25 1_555 1_555
C44_25 C42_25 1_555 1_555
H27_25 C43_25 1_555 1_555
H28_25 C44_25 1_555 1_555
C45_26 C35_26 1_555 1_555
H29_25 C45_26 1_555 1_555
C47_25 N12_25 1_555 1_555
C48_25 N13_25 1_555 1_555
C3_26 C4_26 1_555 1_555
C5_26 C6_26 1_555 1_555
C8_26 C9_26 1_555 1_555
C14_25 C15_26 1_555 1_555
C21_26 C23_26 1_555 1_555
C25_26 C27_26 1_555 1_555
C31_26 C33_26 1_555 1_555
C41_25 C47_25 1_555 1_555
C42_25 C48_25 1_555 1_555
C43_25 C45_26 1_555 1_555
C5_26 H31_26 1_555 1_555
C25_26 H33_26 1_555 1_555
N6_25 C18_26 1_555 1_555
C18_26 H12_26 1_555 1_555
C20_26 C18_26 1_555 1_555
H14_26 C20_26 1_555 1_555
C22_26 C20_26 1_555 1_555
H16_26 C22_26 1_555 1_555
C24_26 N6_25 1_555 1_555
C26_26 C24_26 1_555 1_555
C28_26 N10_25 1_555 1_555
C30_26 C28_26 1_555 1_555
H18_26 C30_26 1_555 1_555
C32_26 C30_26 1_555 1_555
H20_26 C32_26 1_555 1_555
C34_26 N10_25 1_555 1_555
H22_26 C34_26 1_555 1_555
C36_26 C26_26 1_555 1_555
C38_26 C36_26 1_555 1_555
H24_26 C38_26 1_555 1_555
C40_26 C38_26 1_555 1_555
H26_26 C40_26 1_555 1_555
C46_26 C36_26 1_555 1_555
C22_26 C24_26 1_555 1_555
C26_26 C28_26 1_555 1_555
C32_26 C34_26 1_555 1_555
C26_26 H32_26 1_555 1_555
N6_28 Co2_11 1_555 1_555
N7_28 Co2_11 1_555 1_555
N10_28 Co2_11 1_555 1_555
N11_28 Co2_11 1_555 1_555
Ag1_26 N3_26 1_555 1_555
N3_26 C16_26 1_555 1_555
C14_26 C13_26 1_555 1_555
H9_26 C14_26 1_555 1_555
C16_26 C13_26 1_555 1_555
N7_25 C17_27 1_555 1_555
N7_28 C18_27 1_555 1_555
N12_26 Ag1_26 1_555 1_555
N13_26 Ag1_26 1_555 1_555
C17_27 H11_27 1_555 1_555
C18_27 H12_27 1_555 1_555
C19_27 C17_27 1_555 1_555
C20_27 C18_27 1_555 1_555
H13_27 C19_27 1_555 1_555
H14_27 C20_27 1_555 1_555
C21_27 C19_27 1_555 1_555
C22_27 C20_27 1_555 1_555
H15_27 C21_27 1_555 1_555
H16_27 C22_27 1_555 1_555
C23_27 N7_25 1_555 1_555
C24_27 N7_28 1_555 1_555
C25_27 C23_27 1_555 1_555
C26_27 C24_27 1_555 1_555
C27_27 N11_25 1_555 1_555
C28_27 N11_28 1_555 1_555
C29_27 C27_27 1_555 1_555
C30_27 C28_27 1_555 1_555
H17_27 C29_27 1_555 1_555
H18_27 C30_27 1_555 1_555
C31_27 C29_27 1_555 1_555
C32_27 C30_27 1_555 1_555
H19_27 C31_27 1_555 1_555
H20_27 C32_27 1_555 1_555
C33_27 N11_25 1_555 1_555
C34_27 N11_28 1_555 1_555
H21_27 C33_27 1_555 1_555
H22_27 C34_27 1_555 1_555
C35_27 C25_27 1_555 1_555
C36_27 C26_27 1_555 1_555
C37_27 C35_27 1_555 1_555
C38_27 C36_27 1_555 1_555
H23_27 C37_27 1_555 1_555
H24_27 C38_27 1_555 1_555
C39_27 C37_27 1_555 1_555
C40_27 C38_27 1_555 1_555
H25_27 C39_27 1_555 1_555
H26_27 C40_27 1_555 1_555
C41_26 C39_27 1_555 1_555
C42_26 C40_27 1_555 1_555
C43_26 C41_26 1_555 1_555
C44_26 C42_26 1_555 1_555
H27_26 C43_26 1_555 1_555
H28_26 C44_26 1_555 1_555
C45_27 C35_27 1_555 1_555
C46_27 C36_27 1_555 1_555
H29_26 C45_27 1_555 1_555
H30_26 C46_27 1_555 1_555
C47_26 N12_26 1_555 1_555
C48_26 N13_26 1_555 1_555
C21_27 C23_27 1_555 1_555
C22_27 C24_27 1_555 1_555
C25_27 C27_27 1_555 1_555
C26_27 C28_27 1_555 1_555
C31_27 C33_27 1_555 1_555
C32_27 C34_27 1_555 1_555
C41_26 C47_26 1_555 1_555
C42_26 C48_26 1_555 1_555
C43_26 C45_27 1_555 1_555
C44_26 C46_27 1_555 1_555
C26_27 H32_27 1_555 1_555
C25_27 H33_27 1_555 1_555
N6_26 C1_27 1_555 1_555
C1_27 H1_27 1_555 1_555
C2_27 C1_27 1_555 1_555
H2_27 C2_27 1_555 1_555
C3_27 C2_27 1_555 1_555
H3_27 C3_27 1_555 1_555
C4_27 N6_26 1_555 1_555
C5_27 C4_27 1_555 1_555
C6_27 N10_26 1_555 1_555
C7_27 C6_27 1_555 1_555
H4_27 C7_27 1_555 1_555
C8_27 C7_27 1_555 1_555
H5_27 C8_27 1_555 1_555
C9_27 N10_26 1_555 1_555
H6_27 C9_27 1_555 1_555
C10_27 C5_27 1_555 1_555
C11_27 C10_27 1_555 1_555
H7_27 C11_27 1_555 1_555
C12_27 C11_27 1_555 1_555
H8_27 C12_27 1_555 1_555
C15_27 C10_27 1_555 1_555
C3_27 C4_27 1_555 1_555
C5_27 C6_27 1_555 1_555
C8_27 C9_27 1_555 1_555
C5_27 H31_27 1_555 1_555
Ag1_27 N3_27 1_555 1_555
N6_28 C1_28 1_555 1_555
N3_27 C16_27 1_555 1_555
C1_28 H1_28 1_555 1_555
C2_28 C1_28 1_555 1_555
H2_28 C2_28 1_555 1_555
C3_28 C2_28 1_555 1_555
H3_28 C3_28 1_555 1_555
C4_28 N6_28 1_555 1_555
C5_28 C4_28 1_555 1_555
C6_28 N10_28 1_555 1_555
C7_28 C6_28 1_555 1_555
H4_28 C7_28 1_555 1_555
C8_28 C7_28 1_555 1_555
H5_28 C8_28 1_555 1_555
C9_28 N10_28 1_555 1_555
H6_28 C9_28 1_555 1_555
C10_28 C5_28 1_555 1_555
C11_28 C10_28 1_555 1_555
H7_28 C11_28 1_555 1_555
C12_28 C11_28 1_555 1_555
H8_28 C12_28 1_555 1_555
C13_27 C12_28 1_555 1_555
C14_27 C13_27 1_555 1_555
H9_27 C14_27 1_555 1_555
C15_28 C10_28 1_555 1_555
H10_27 C15_28 1_555 1_555
C16_27 C13_27 1_555 1_555
N7_26 C18_28 1_555 1_555
N12_27 Ag1_27 1_555 1_555
N13_27 Ag1_27 1_555 1_555
C18_28 H12_28 1_555 1_555
C20_28 C18_28 1_555 1_555
H14_28 C20_28 1_555 1_555
C22_28 C20_28 1_555 1_555
H16_28 C22_28 1_555 1_555
C24_28 N7_26 1_555 1_555
C26_28 C24_28 1_555 1_555
C28_28 N11_26 1_555 1_555
C30_28 C28_28 1_555 1_555
H18_28 C30_28 1_555 1_555
C32_28 C30_28 1_555 1_555
H20_28 C32_28 1_555 1_555
C34_28 N11_26 1_555 1_555
H22_28 C34_28 1_555 1_555
C36_28 C26_28 1_555 1_555
C38_28 C36_28 1_555 1_555
H24_28 C38_28 1_555 1_555
C40_28 C38_28 1_555 1_555
H26_28 C40_28 1_555 1_555
C42_27 C40_28 1_555 1_555
C43_27 C41_27 1_555 1_555
C44_27 C42_27 1_555 1_555
H27_27 C43_27 1_555 1_555
H28_27 C44_27 1_555 1_555
C46_28 C36_28 1_555 1_555
H30_27 C46_28 1_555 1_555
C47_27 N12_27 1_555 1_555
C48_27 N13_27 1_555 1_555
C3_28 C4_28 1_555 1_555
C5_28 C6_28 1_555 1_555
C8_28 C9_28 1_555 1_555
C14_27 C15_28 1_555 1_555
C22_28 C24_28 1_555 1_555
C26_28 C28_28 1_555 1_555
C32_28 C34_28 1_555 1_555
C41_27 C47_27 1_555 1_555
C42_27 C48_27 1_555 1_555
C44_27 C46_28 1_555 1_555
C5_28 H31_28 1_555 1_555
C26_28 H32_28 1_555 1_555
N6_27 C17_28 1_555 1_555
C17_28 H11_28 1_555 1_555
C19_28 C17_28 1_555 1_555
H13_28 C19_28 1_555 1_555
C21_28 C19_28 1_555 1_555
H15_28 C21_28 1_555 1_555
C23_28 N6_27 1_555 1_555
C25_28 C23_28 1_555 1_555
C27_28 N10_27 1_555 1_555
C29_28 C27_28 1_555 1_555
H17_28 C29_28 1_555 1_555
C31_28 C29_28 1_555 1_555
H19_28 C31_28 1_555 1_555
C33_28 N10_27 1_555 1_555
H21_28 C33_28 1_555 1_555
C35_28 C25_28 1_555 1_555
C37_28 C35_28 1_555 1_555
H23_28 C37_28 1_555 1_555
C39_28 C37_28 1_555 1_555
H25_28 C39_28 1_555 1_555
C45_28 C35_28 1_555 1_555
C21_28 C23_28 1_555 1_555
C25_28 C27_28 1_555 1_555
C31_28 C33_28 1_555 1_555
C25_28 H33_28 1_555 1_555
Ag1_28 N3_28 1_555 1_555
N3_28 C16_28 1_555 1_555
C14_28 C13_28 1_555 1_555
H9_28 C14_28 1_555 1_555
C16_28 C13_28 1_555 1_555
N12_28 Ag1_28 1_555 1_555
N13_28 Ag1_28 1_555 1_555
C43_28 C41_28 1_555 1_555
C44_28 C42_28 1_555 1_555
H27_28 C43_28 1_555 1_555
H28_28 C44_28 1_555 1_555
C47_28 N12_28 1_555 1_555
C48_28 N13_28 1_555 1_555
C41_28 C47_28 1_555 1_555
C42_28 C48_28 1_555 1_555
Co3_11 N5_11 1_555 1_555
N5_11 C18_29 1_555 1_555
N9_11 Co3_11 1_555 1_555
C18_29 H12_29 1_555 1_555
C20_29 C18_29 1_555 1_555
H14_29 C20_29 1_555 1_555
C22_29 C20_29 1_555 1_555
H16_29 C22_29 1_555 1_555
C24_29 N5_11 1_555 1_555
C26_29 C24_29 1_555 1_555
C28_29 N9_11 1_555 1_555
C30_29 C28_29 1_555 1_555
H18_29 C30_29 1_555 1_555
C32_29 C30_29 1_555 1_555
H20_29 C32_29 1_555 1_555
C34_29 N9_11 1_555 1_555
H22_29 C34_29 1_555 1_555
C36_29 C26_29 1_555 1_555
C38_29 C36_29 1_555 1_555
H24_29 C38_29 1_555 1_555
C40_29 C38_29 1_555 1_555
H26_29 C40_29 1_555 1_555
C46_29 C36_29 1_555 1_555
C22_29 C24_29 1_555 1_555
C26_29 C28_29 1_555 1_555
C32_29 C34_29 1_555 1_555
C26_29 H32_29 1_555 1_555
Co2_12 N4_12 1_555 1_555
N4_12 C17_29 1_555 1_555
N8_12 Co2_12 1_555 1_555
C17_29 H11_29 1_555 1_555
C19_29 C17_29 1_555 1_555
H13_29 C19_29 1_555 1_555
C21_29 C19_29 1_555 1_555
H15_29 C21_29 1_555 1_555
C23_29 N4_12 1_555 1_555
C25_29 C23_29 1_555 1_555
C27_29 N8_12 1_555 1_555
C29_29 C27_29 1_555 1_555
H17_29 C29_29 1_555 1_555
C31_29 C29_29 1_555 1_555
H19_29 C31_29 1_555 1_555
C33_29 N8_12 1_555 1_555
H21_29 C33_29 1_555 1_555
C35_29 C25_29 1_555 1_555
C37_29 C35_29 1_555 1_555
H23_29 C37_29 1_555 1_555
C39_29 C37_29 1_555 1_555
H25_29 C39_29 1_555 1_555
C45_29 C35_29 1_555 1_555
C21_29 C23_29 1_555 1_555
C25_29 C27_29 1_555 1_555
C31_29 C33_29 1_555 1_555
C25_29 H33_29 1_555 1_555
Co1_8 N1_8 1_555 1_555
N1_8 C1_29 1_555 1_555
N2_8 Co1_8 1_555 1_555
C1_29 H1_29 1_555 1_555
C2_29 C1_29 1_555 1_555
H2_29 C2_29 1_555 1_555
C3_29 C2_29 1_555 1_555
H3_29 C3_29 1_555 1_555
C4_29 N1_8 1_555 1_555
C5_29 C4_29 1_555 1_555
C6_29 N2_8 1_555 1_555
C7_29 C6_29 1_555 1_555
H4_29 C7_29 1_555 1_555
C8_29 C7_29 1_555 1_555
H5_29 C8_29 1_555 1_555
C9_29 N2_8 1_555 1_555
H6_29 C9_29 1_555 1_555
C10_29 C5_29 1_555 1_555
C11_29 C10_29 1_555 1_555
H7_29 C11_29 1_555 1_555
C12_29 C11_29 1_555 1_555
H8_29 C12_29 1_555 1_555
C15_29 C10_29 1_555 1_555
N6_29 Co1_8 1_555 1_555
N7_29 Co1_8 1_555 1_555
N10_29 Co1_8 1_555 1_555
N11_29 Co1_8 1_555 1_555
C3_29 C4_29 1_555 1_555
C5_29 C6_29 1_555 1_555
C8_29 C9_29 1_555 1_555
C5_29 H31_29 1_555 1_555
N6_30 Co2_12 1_555 1_555
N7_30 Co2_12 1_555 1_555
N10_30 Co2_12 1_555 1_555
N11_30 Co2_12 1_555 1_555
N6_31 Co3_11 1_555 1_555
N7_31 Co3_11 1_555 1_555
N10_31 Co3_11 1_555 1_555
N11_31 Co3_11 1_555 1_555
N6_30 C1_30 1_555 1_555
C1_30 H1_30 1_555 1_555
C2_30 C1_30 1_555 1_555
H2_30 C2_30 1_555 1_555
C3_30 C2_30 1_555 1_555
H3_30 C3_30 1_555 1_555
C4_30 N6_30 1_555 1_555
C5_30 C4_30 1_555 1_555
C6_30 N10_30 1_555 1_555
C7_30 C6_30 1_555 1_555
H4_30 C7_30 1_555 1_555
C8_30 C7_30 1_555 1_555
H5_30 C8_30 1_555 1_555
C9_30 N10_30 1_555 1_555
H6_30 C9_30 1_555 1_555
C10_30 C5_30 1_555 1_555
C11_30 C10_30 1_555 1_555
H7_30 C11_30 1_555 1_555
C12_30 C11_30 1_555 1_555
H8_30 C12_30 1_555 1_555
C15_30 C10_30 1_555 1_555
C3_30 C4_30 1_555 1_555
C5_30 C6_30 1_555 1_555
C8_30 C9_30 1_555 1_555
C5_30 H31_30 1_555 1_555
Ag1_29 N3_29 1_555 1_555
N3_29 C16_29 1_555 1_555
C14_29 C13_29 1_555 1_555
H9_29 C14_29 1_555 1_555
C16_29 C13_29 1_555 1_555
Co3_12 N5_12 1_555 1_555
N7_29 C17_30 1_555 1_555
N5_12 C18_30 1_555 1_555
N9_12 Co3_12 1_555 1_555
N12_29 Ag1_29 1_555 1_555
N13_29 Ag1_29 1_555 1_555
C17_30 H11_30 1_555 1_555
C18_30 H12_30 1_555 1_555
C19_30 C17_30 1_555 1_555
C20_30 C18_30 1_555 1_555
H13_30 C19_30 1_555 1_555
H14_30 C20_30 1_555 1_555
C21_30 C19_30 1_555 1_555
C22_30 C20_30 1_555 1_555
H15_30 C21_30 1_555 1_555
H16_30 C22_30 1_555 1_555
C23_30 N7_29 1_555 1_555
C24_30 N5_12 1_555 1_555
C25_30 C23_30 1_555 1_555
C26_30 C24_30 1_555 1_555
C27_30 N11_29 1_555 1_555
C28_30 N9_12 1_555 1_555
C29_30 C27_30 1_555 1_555
C30_30 C28_30 1_555 1_555
H17_30 C29_30 1_555 1_555
H18_30 C30_30 1_555 1_555
C31_30 C29_30 1_555 1_555
C32_30 C30_30 1_555 1_555
H19_30 C31_30 1_555 1_555
H20_30 C32_30 1_555 1_555
C33_30 N11_29 1_555 1_555
C34_30 N9_12 1_555 1_555
H21_30 C33_30 1_555 1_555
H22_30 C34_30 1_555 1_555
C35_30 C25_30 1_555 1_555
C36_30 C26_30 1_555 1_555
C37_30 C35_30 1_555 1_555
C38_30 C36_30 1_555 1_555
H23_30 C37_30 1_555 1_555
H24_30 C38_30 1_555 1_555
C39_30 C37_30 1_555 1_555
C40_30 C38_30 1_555 1_555
H25_30 C39_30 1_555 1_555
H26_30 C40_30 1_555 1_555
C41_29 C39_30 1_555 1_555
C42_29 C40_30 1_555 1_555
C43_29 C41_29 1_555 1_555
C44_29 C42_29 1_555 1_555
H27_29 C43_29 1_555 1_555
H28_29 C44_29 1_555 1_555
C45_30 C35_30 1_555 1_555
C46_30 C36_30 1_555 1_555
H29_29 C45_30 1_555 1_555
H30_29 C46_30 1_555 1_555
C47_29 N12_29 1_555 1_555
C48_29 N13_29 1_555 1_555
C21_30 C23_30 1_555 1_555
C22_30 C24_30 1_555 1_555
C25_30 C27_30 1_555 1_555
C26_30 C28_30 1_555 1_555
C31_30 C33_30 1_555 1_555
C32_30 C34_30 1_555 1_555
C41_29 C47_29 1_555 1_555
C42_29 C48_29 1_555 1_555
C43_29 C45_30 1_555 1_555
C44_29 C46_30 1_555 1_555
C26_30 H32_30 1_555 1_555
C25_30 H33_30 1_555 1_555
N6_32 Co3_12 1_555 1_555
N7_32 Co3_12 1_555 1_555
N10_32 Co3_12 1_555 1_555
N11_32 Co3_12 1_555 1_555
Ag1_30 N3_30 1_555 1_555
N7_31 C1_31 1_555 1_555
N3_30 C16_30 1_555 1_555
C1_31 H1_31 1_555 1_555
C2_31 C1_31 1_555 1_555
H2_31 C2_31 1_555 1_555
C3_31 C2_31 1_555 1_555
H3_31 C3_31 1_555 1_555
C4_31 N7_31 1_555 1_555
C5_31 C4_31 1_555 1_555
C6_31 N11_31 1_555 1_555
C7_31 C6_31 1_555 1_555
H4_31 C7_31 1_555 1_555
C8_31 C7_31 1_555 1_555
H5_31 C8_31 1_555 1_555
C9_31 N11_31 1_555 1_555
H6_31 C9_31 1_555 1_555
C10_31 C5_31 1_555 1_555
C11_31 C10_31 1_555 1_555
H7_31 C11_31 1_555 1_555
C12_31 C11_31 1_555 1_555
H8_31 C12_31 1_555 1_555
C13_30 C12_31 1_555 1_555
C14_30 C13_30 1_555 1_555
H9_30 C14_30 1_555 1_555
C15_31 C10_31 1_555 1_555
H10_30 C15_31 1_555 1_555
C16_30 C13_30 1_555 1_555
N6_32 C17_31 1_555 1_555
N12_30 Ag1_30 1_555 1_555
N13_30 Ag1_30 1_555 1_555
C17_31 H11_31 1_555 1_555
C19_31 C17_31 1_555 1_555
H13_31 C19_31 1_555 1_555
C21_31 C19_31 1_555 1_555
H15_31 C21_31 1_555 1_555
C23_31 N6_32 1_555 1_555
C25_31 C23_31 1_555 1_555
C27_31 N10_32 1_555 1_555
C29_31 C27_31 1_555 1_555
H17_31 C29_31 1_555 1_555
C31_31 C29_31 1_555 1_555
H19_31 C31_31 1_555 1_555
C33_31 N10_32 1_555 1_555
H21_31 C33_31 1_555 1_555
C35_31 C25_31 1_555 1_555
C37_31 C35_31 1_555 1_555
H23_31 C37_31 1_555 1_555
C39_31 C37_31 1_555 1_555
H25_31 C39_31 1_555 1_555
C41_30 C39_31 1_555 1_555
C43_30 C41_30 1_555 1_555
C44_30 C42_30 1_555 1_555
H27_30 C43_30 1_555 1_555
H28_30 C44_30 1_555 1_555
C45_31 C35_31 1_555 1_555
H29_30 C45_31 1_555 1_555
C47_30 N12_30 1_555 1_555
C48_30 N13_30 1_555 1_555
C3_31 C4_31 1_555 1_555
C5_31 C6_31 1_555 1_555
C8_31 C9_31 1_555 1_555
C14_30 C15_31 1_555 1_555
C21_31 C23_31 1_555 1_555
C25_31 C27_31 1_555 1_555
C31_31 C33_31 1_555 1_555
C41_30 C47_30 1_555 1_555
C42_30 C48_30 1_555 1_555
C43_30 C45_31 1_555 1_555
C5_31 H31_31 1_555 1_555
C25_31 H33_31 1_555 1_555
N6_29 C18_31 1_555 1_555
C18_31 H12_31 1_555 1_555
C20_31 C18_31 1_555 1_555
H14_31 C20_31 1_555 1_555
C22_31 C20_31 1_555 1_555
H16_31 C22_31 1_555 1_555
C24_31 N6_29 1_555 1_555
C26_31 C24_31 1_555 1_555
C28_31 N10_29 1_555 1_555
C30_31 C28_31 1_555 1_555
H18_31 C30_31 1_555 1_555
C32_31 C30_31 1_555 1_555
H20_31 C32_31 1_555 1_555
C34_31 N10_29 1_555 1_555
H22_31 C34_31 1_555 1_555
C36_31 C26_31 1_555 1_555
C38_31 C36_31 1_555 1_555
H24_31 C38_31 1_555 1_555
C40_31 C38_31 1_555 1_555
H26_31 C40_31 1_555 1_555
C46_31 C36_31 1_555 1_555
C22_31 C24_31 1_555 1_555
C26_31 C28_31 1_555 1_555
C32_31 C34_31 1_555 1_555
C26_31 H32_31 1_555 1_555
Ag1_31 N3_31 1_555 1_555
N7_32 C1_32 1_555 1_555
N3_31 C16_31 1_555 1_555
C1_32 H1_32 1_555 1_555
C2_32 C1_32 1_555 1_555
H2_32 C2_32 1_555 1_555
C3_32 C2_32 1_555 1_555
H3_32 C3_32 1_555 1_555
C4_32 N7_32 1_555 1_555
C5_32 C4_32 1_555 1_555
C6_32 N11_32 1_555 1_555
C7_32 C6_32 1_555 1_555
H4_32 C7_32 1_555 1_555
C8_32 C7_32 1_555 1_555
H5_32 C8_32 1_555 1_555
C9_32 N11_32 1_555 1_555
H6_32 C9_32 1_555 1_555
C10_32 C5_32 1_555 1_555
C11_32 C10_32 1_555 1_555
H7_32 C11_32 1_555 1_555
C12_32 C11_32 1_555 1_555
H8_32 C12_32 1_555 1_555
C13_31 C12_32 1_555 1_555
C14_31 C13_31 1_555 1_555
H9_31 C14_31 1_555 1_555
C15_32 C10_32 1_555 1_555
H10_31 C15_32 1_555 1_555
C16_31 C13_31 1_555 1_555
N7_30 C18_32 1_555 1_555
N12_31 Ag1_31 1_555 1_555
N13_31 Ag1_31 1_555 1_555
C18_32 H12_32 1_555 1_555
C20_32 C18_32 1_555 1_555
H14_32 C20_32 1_555 1_555
C22_32 C20_32 1_555 1_555
H16_32 C22_32 1_555 1_555
C24_32 N7_30 1_555 1_555
C26_32 C24_32 1_555 1_555
C28_32 N11_30 1_555 1_555
C30_32 C28_32 1_555 1_555
H18_32 C30_32 1_555 1_555
C32_32 C30_32 1_555 1_555
H20_32 C32_32 1_555 1_555
C34_32 N11_30 1_555 1_555
H22_32 C34_32 1_555 1_555
C36_32 C26_32 1_555 1_555
C38_32 C36_32 1_555 1_555
H24_32 C38_32 1_555 1_555
C40_32 C38_32 1_555 1_555
H26_32 C40_32 1_555 1_555
C42_31 C40_32 1_555 1_555
C43_31 C41_31 1_555 1_555
C44_31 C42_31 1_555 1_555
H27_31 C43_31 1_555 1_555
H28_31 C44_31 1_555 1_555
C46_32 C36_32 1_555 1_555
H30_31 C46_32 1_555 1_555
C47_31 N12_31 1_555 1_555
C48_31 N13_31 1_555 1_555
C3_32 C4_32 1_555 1_555
C5_32 C6_32 1_555 1_555
C8_32 C9_32 1_555 1_555
C14_31 C15_32 1_555 1_555
C22_32 C24_32 1_555 1_555
C26_32 C28_32 1_555 1_555
C32_32 C34_32 1_555 1_555
C41_31 C47_31 1_555 1_555
C42_31 C48_31 1_555 1_555
C44_31 C46_32 1_555 1_555
C5_32 H31_32 1_555 1_555
C26_32 H32_32 1_555 1_555
N6_31 C17_32 1_555 1_555
C17_32 H11_32 1_555 1_555
C19_32 C17_32 1_555 1_555
H13_32 C19_32 1_555 1_555
C21_32 C19_32 1_555 1_555
H15_32 C21_32 1_555 1_555
C23_32 N6_31 1_555 1_555
C25_32 C23_32 1_555 1_555
C27_32 N10_31 1_555 1_555
C29_32 C27_32 1_555 1_555
H17_32 C29_32 1_555 1_555
C31_32 C29_32 1_555 1_555
H19_32 C31_32 1_555 1_555
C33_32 N10_31 1_555 1_555
H21_32 C33_32 1_555 1_555
C35_32 C25_32 1_555 1_555
C37_32 C35_32 1_555 1_555
H23_32 C37_32 1_555 1_555
C39_32 C37_32 1_555 1_555
H25_32 C39_32 1_555 1_555
C45_32 C35_32 1_555 1_555
C21_32 C23_32 1_555 1_555
C25_32 C27_32 1_555 1_555
C31_32 C33_32 1_555 1_555
C25_32 H33_32 1_555 1_555
Ag1_32 N3_32 1_555 1_555
N3_32 C16_32 1_555 1_555
C14_32 C13_32 1_555 1_555
H9_32 C14_32 1_555 1_555
C16_32 C13_32 1_555 1_555
N12_32 Ag1_32 1_555 1_555
N13_32 Ag1_32 1_555 1_555
C43_32 C41_32 1_555 1_555
C44_32 C42_32 1_555 1_555
H27_32 C43_32 1_555 1_555
H28_32 C44_32 1_555 1_555
C47_32 N12_32 1_555 1_555
C48_32 N13_32 1_555 1_555
C41_32 C47_32 1_555 1_555
C42_32 C48_32 1_555 1_555

#END
