
###############################################################################
#
# This file contains modified crystal structure data generated from the
# MOF subset of the Cambridge Structural Database (CSD) v543 
# hosted by the Cambridge Crystallographic Data Centre (CCDC).
#
# This work is licensed under the Creative Commons
# Attribution-NonCommercial-ShareAlike 4.0 International License.
# To view a copy of this license, visit
# http://creativecommons.org/licenses/by-nc-sa/4.0/
# or send a letter to
# Creative Commons, PO Box 1866, Mountain View, CA 94042, USA.
#
# CIF created using the CSD Python API on 29 September 2022
# The structure has been converted into the P1 space group
# The structure has a 3D framework
# The original CSD entry MAZSUD is in the triclinic crystal system
# The framework has been calculated to contain at least 10.0% void space
# The void calculation uses a probe of radius 1.32A, grid spacing 0.4
# H atom positions have been added when not included in the experimental data
#
###############################################################################

data_MAZSUD
_chemical_formula_moiety         '(C20 H14 N6 O8 Zn4)n'
_symmetry_cell_setting           triclinic
_symmetry_space_group_name_H-M   'P 1'
_symmetry_Int_Tables_number      1
_space_group_name_Hall           'P 1'
loop_
_symmetry_equiv_pos_site_id
_symmetry_equiv_pos_as_xyz
1 x,y,z
_cell_length_a                   9.1789(9)
_cell_length_b                   10.9267(14)
_cell_length_c                   11.3710(14)
_cell_angle_alpha                117.844(13)
_cell_angle_beta                 100.861(10)
_cell_angle_gamma                99.344(10)
_cell_volume                     948.298
loop_
_atom_site_label
_atom_site_type_symbol
_atom_site_fract_x
_atom_site_fract_y
_atom_site_fract_z
H6 H 0.0323 0.8224 0.3460
Zn9 Zn 0.19095(9) 0.62355(8) 0.12211(8)
N9 N 0.0151(7) 0.3561(7) 0.8457(7)
Zn4 Zn 0.5000 0.5000 0.0000
O3 O 0.4638(7) 0.4982(7) 0.1762(6)
O4 O 0.2975(7) 0.6090(7) 0.2751(6)
N1 N 0.7357(7) 0.6007(8) 0.1115(7)
N2 N 0.8486(6) 0.5568(5) 0.0618(5)
N3 N 0.9849(7) 0.6439(7) 0.1543(7)
C2 C 0.4260(11) 0.1030(11) 0.0143(13)
H1 H 0.3747 0.1722 0.0233
C5 C 0.4533(9) 0.5258(10) 0.3928(8)
C6 C 0.3847(12) 0.5660(12) 0.4958(9)
H3 H 0.3058 0.6092 0.4929
C7 C 0.5685(12) 0.4570(14) 0.3952(10)
H4 H 0.6136 0.4267 0.3235
C8 C 0.4019(9) 0.5449(9) 0.2699(8)
C9 C 0.8024(12) 0.7162(14) 0.2367(13)
H5 H 0.7504 0.7690 0.2962
C10 C 0.9584(13) 0.7461(15) 0.2653(12)
Zn4_2 Zn 0.5000 0.5000 1.0000
Zn7 Zn 0.80905(9) 0.37645(8) 0.87789(8)
O7 O 0.4669(7) 0.7051(6) 0.0720(7)
O8 O 0.5362(7) 0.5018(7) 0.8238(6)
O10 O 0.7025(7) 0.3910(7) 0.7249(6)
C13 C 0.3772(12) 0.0050(11) 0.0521(12)
H8 H 0.2942 0.0097 0.0885
C15 C 0.5467(9) 0.4742(10) 0.6072(8)
C16 C 0.6153(12) 0.4340(12) 0.5042(9)
H9 H 0.6942 0.3908 0.5071
C17 C 0.4315(12) 0.5430(14) 0.6048(10)
H10 H 0.3864 0.5733 0.6765
C18 C 0.5981(9) 0.4551(9) 0.7301(8)
H13 H 0.848453 0.617101 0.0157721
O1 O 0.7299(7) 0.2092(6) 0.8944(7)
O2 O 0.5331(7) 0.2949(6) 0.9280(7)
C1 C 0.5516(9) 0.0995(8) 0.9626(9)
C4 C 0.6081(9) 0.2099(8) 0.9269(8)
N5 N 0.2643(7) 0.3993(8) 0.8885(7)
O5 O 0.2701(7) 0.7908(6) 0.1056(7)
C11 C 0.4484(9) 0.9005(8) 0.0374(9)
C14 C 0.3919(9) 0.7901(8) 0.0731(8)
C3 C 0.6228(12) 0.9950(11) 0.9479(12)
H2 H 0.7058 0.9903 0.9115
N6 N 0.1514(6) 0.4432(5) 0.9382(5)
C12 C 0.5740(11) 0.8970(11) 0.9857(13)
H7 H 0.6253 0.8278 0.9767
C19 C 0.1976(12) 0.2838(14) 0.7633(13)
H11 H 0.2496 0.2310 0.7038
C20 C 0.0416(13) 0.2539(15) 0.7347(12)
H14 H 0.151547 0.382899 0.984228
H12 H 0.9677 0.1776 0.6540
loop_
_geom_bond_atom_site_label_1
_geom_bond_atom_site_label_2
_geom_bond_site_symmetry_1
_geom_bond_site_symmetry_2
O3 Zn4 1_555 1_555
O4 C8 1_555 1_555
N1 Zn4 1_555 1_555
N3 N2 1_555 1_555
C2 H1 1_555 1_555
C5 C6 1_555 1_555
C6 H3 1_555 1_555
C7 C5 1_555 1_555
H4 C7 1_555 1_555
C8 O3 1_555 1_555
C9 N1 1_555 1_555
H5 C9 1_555 1_555
C10 N3 1_555 1_555
Zn4_2 O8 1_555 1_555
Zn7 O10 1_555 1_555
Zn9 O4 1_555 1_555
O7 Zn4 1_555 1_555
O8 C18 1_555 1_555
O10 C18 1_555 1_555
C13 C2 1_555 1_555
H8 C13 1_555 1_555
C15 C16 1_555 1_555
C16 C7 1_555 1_555
H9 C16 1_555 1_555
C17 C6 1_555 1_555
H10 C17 1_555 1_555
C18 C15 1_555 1_555
N1 N2 1_555 1_555
C5 C8 1_555 1_555
C9 C10 1_555 1_555
C15 C17 1_555 1_555
N2 H13 1_555 1_555
Zn4_2 O2 1_555 1_555
Zn7 O1 1_555 1_555
O1 C4 1_555 1_555
O2 C4 1_555 1_555
C4 C1 1_555 1_555
N5 Zn4_2 1_555 1_555
Zn9 O5 1_555 1_555
O5 C14 1_555 1_555
O7 C14 1_555 1_555
C14 C11 1_555 1_555
H2 C3 1_555 1_555
N9 N6 1_555 1_555
C12 C3 1_555 1_555
H7 C12 1_555 1_555
C19 N5 1_555 1_555
H11 C19 1_555 1_555
C20 N9 1_555 1_555
N5 N6 1_555 1_555
C19 C20 1_555 1_555
N6 H14 1_555 1_555

#END
