
###############################################################################
#
# This file contains modified crystal structure data generated from the
# MOF subset of the Cambridge Structural Database (CSD) v543 
# hosted by the Cambridge Crystallographic Data Centre (CCDC).
#
# This work is licensed under the Creative Commons
# Attribution-NonCommercial-ShareAlike 4.0 International License.
# To view a copy of this license, visit
# http://creativecommons.org/licenses/by-nc-sa/4.0/
# or send a letter to
# Creative Commons, PO Box 1866, Mountain View, CA 94042, USA.
#
# CIF created using the CSD Python API on 29 September 2022
# The structure has been converted into the P1 space group
# The structure has a 3D framework
# The original CSD entry MEBLUA is in the orthorhombic crystal system
# The original CSD entry MEBLUA is in a Sohncke space group
# The framework has been calculated to contain at least 10.0% void space
# The void calculation uses a probe of radius 1.32A, grid spacing 0.4
#
###############################################################################

data_MEBLUA
_chemical_formula_moiety         '(C32 H40 Ag2 N20 O11)n'
_symmetry_cell_setting           triclinic
_symmetry_space_group_name_H-M   'P 1'
_symmetry_Int_Tables_number      1
_space_group_name_Hall           'P 1'
loop_
_symmetry_equiv_pos_site_id
_symmetry_equiv_pos_as_xyz
1 x,y,z
_cell_length_a                   5.9630(10)
_cell_length_b                   12.633(3)
_cell_length_c                   17.556(4)
_cell_angle_alpha                90
_cell_angle_beta                 90
_cell_angle_gamma                90
_cell_volume                     1322.5
loop_
_atom_site_label
_atom_site_type_symbol
_atom_site_fract_x
_atom_site_fract_y
_atom_site_fract_z
O4 O 0.0172(6) 0.2759(3) 0.1220(2)
Ag2 Ag 0.3124(1) 0.3375(1) 0.0244(1)
Ag1 Ag 0.8124(1) 0.1625(1) 0.9756(1)
O5 O 0.5172(6) 0.2241(3) 0.8780(2)
O6 O 0.9875(6) 0.0534(3) 0.8935(2)
O3 O 0.5125(6) 0.9466(3) 0.3935(2)
H1 H 0.0884(9) 0.9998(4) 0.1847(2)
H3 H 0.2359(9) 0.9681(4) 0.1144(2)
H9 H 0.0167(7) 0.9721(4) 0.4063(3)
Ag3 Ag 0.6876(1) 0.8375(1) 0.4756(1)
N1 N 0.9541(6) 0.8305(3) 0.7776(2)
N2 N 0.6548(7) 0.7746(3) 0.5985(2)
C1 C 0.9990(7) 0.8610(3) 0.6183(2)
C2 C 0.8001(8) 0.7879(3) 0.7315(2)
C3 C 0.8117(8) 0.8031(3) 0.6501(2)
N4 N 0.6403(7) 0.7325(3) 0.7639(2)
O2 O 0.9909(6) 0.9203(3) 0.9780(2)
O4_2 O 0.4828(6) 0.7241(3) 0.6220(2)
H4 H 0.5329(7) 0.7024(3) 0.7351(2)
H5 H 0.6382(7) 0.7244(3) 0.8148(2)
O5_2 O 0.9828(6) 0.7759(3) 0.3780(2)
Ag2_2 Ag 0.1876(1) 0.6625(1) 0.5244(1)
O6_2 O 0.4875(6) 0.4466(3) 0.1065(2)
N1_2 N 0.0459(6) 0.3305(3) 0.7224(2)
N2_2 N 0.3452(7) 0.2746(3) 0.9015(2)
C1_2 C 0.0010(7) 0.3610(3) 0.8817(2)
C2_2 C 0.1999(8) 0.2879(3) 0.7685(2)
C3_2 C 0.1883(8) 0.3031(3) 0.8499(2)
N4_2 N 0.3597(7) 0.2325(3) 0.7361(2)
O2_2 O 0.0091(6) 0.4203(3) 0.5220(2)
O3_2 O 0.0125(6) 0.5534(3) 0.6065(2)
H4_2 H 0.4671(7) 0.2024(3) 0.7649(2)
H5_2 H 0.3618(7) 0.2244(3) 0.6852(2)
N1_3 N 0.4541(6) 0.6695(3) 0.2224(2)
N2_3 N 0.1548(7) 0.7254(3) 0.4015(2)
N3 N 0.6436(6) 0.5923(3) 0.3293(2)
C1_3 C 0.4990(7) 0.6390(3) 0.3817(2)
C2_3 C 0.3001(8) 0.7121(3) 0.2685(2)
C3_3 C 0.3117(8) 0.6969(3) 0.3499(2)
O1 O 0.5357(7) 0.6284(3) 0.4501(2)
C4 C 0.8256(9) 0.5264(4) 0.3574(2)
N4_3 N 0.1403(7) 0.7675(3) 0.2361(2)
C5 C 0.6160(7) 0.6096(3) 0.2521(2)
N5 N 0.7596(6) 0.5642(3) 0.2047(2)
C6 C 0.7532(7) 0.5871(3) 0.1234(2)
C7 C 0.9728(7) 0.5476(4) 0.0885(3)
O2_3 O 0.4909(6) 0.5797(3) 0.0220(2)
C8 C 0.5567(7) 0.5331(3) 0.0809(2)
H1_2 H 0.9116(9) 0.4998(4) 0.3153(2)
H2 H 0.9208(9) 0.5676(4) 0.3900(2)
H3_2 H 0.7641(9) 0.4681(4) 0.3856(2)
H4_3 H 0.0329(7) 0.7976(3) 0.2649(2)
H5_3 H 0.1382(7) 0.7756(3) 0.1852(2)
H6 H 0.8627(6) 0.5188(3) 0.2230(2)
H7 H 0.7427(7) 0.6623(3) 0.1164(2)
H9_2 H 0.9833(7) 0.4721(4) 0.0937(3)
H10 H 0.9776(7) 0.5662(4) 0.0355(3)
N1_4 N 0.5459(6) 0.1695(3) 0.2776(2)
N2_4 N 0.8452(7) 0.2254(3) 0.0985(2)
N3_2 N 0.3564(6) 0.0923(3) 0.1707(2)
C1_4 C 0.5010(7) 0.1390(3) 0.1183(2)
C2_4 C 0.6999(8) 0.2121(3) 0.2315(2)
C3_4 C 0.6883(8) 0.1969(3) 0.1501(2)
O1_2 O 0.4643(7) 0.1284(3) 0.0499(2)
C4_2 C 0.1744(9) 0.0264(4) 0.1426(2)
N4_4 N 0.8597(7) 0.2675(3) 0.2639(2)
C5_2 C 0.3840(7) 0.1096(3) 0.2479(2)
N5_2 N 0.2404(6) 0.0642(3) 0.2953(2)
C6_2 C 0.2468(7) 0.0871(3) 0.3766(2)
C7_2 C 0.0272(7) 0.0476(4) 0.4115(3)
O2_4 O 0.5091(6) 0.0797(3) 0.4780(2)
C8_2 C 0.4433(7) 0.0331(3) 0.4191(2)
H2_2 H 0.0792(9) 0.0676(4) 0.1100(2)
H4_4 H 0.9671(7) 0.2976(3) 0.2351(2)
H5_4 H 0.8618(7) 0.2756(3) 0.3148(2)
H6_2 H 0.1373(6) 0.0188(3) 0.2770(2)
H7_2 H 0.2573(7) 0.1623(3) 0.3836(2)
H10_2 H 0.0224(7) 0.0662(4) 0.4645(3)
H8 H 0.9040(7) 0.0804(4) 0.3855(3)
H1_3 H 0.4116(9) 0.0002(4) 0.6847(2)
H3_3 H 0.2641(9) 0.0319(4) 0.6144(2)
H9_3 H 0.4833(7) 0.0279(4) 0.9063(3)
N3_3 N 0.1436(6) 0.9077(3) 0.6707(2)
O1_3 O 0.0357(7) 0.8716(3) 0.5499(2)
C4_3 C 0.3256(9) 0.9736(4) 0.6426(2)
C5_3 C 0.1160(7) 0.8904(3) 0.7479(2)
N5_3 N 0.2596(6) 0.9358(3) 0.7953(2)
C6_3 C 0.2532(7) 0.9129(3) 0.8766(2)
C7_3 C 0.4728(7) 0.9524(4) 0.9115(3)
C8_3 C 0.0567(7) 0.9669(3) 0.9191(2)
H2_3 H 0.4208(9) 0.9324(4) 0.6100(2)
H6_3 H 0.3627(6) 0.9812(3) 0.7770(2)
H7_3 H 0.2427(7) 0.8377(3) 0.8836(2)
H8_2 H 0.5960(7) 0.9196(4) 0.8855(3)
H10_3 H 0.4776(7) 0.9338(4) 0.9645(3)
N3_4 N 0.8564(6) 0.4077(3) 0.8293(2)
O1_4 O 0.9643(7) 0.3716(3) 0.9501(2)
C4_4 C 0.6744(9) 0.4736(4) 0.8574(2)
C5_4 C 0.8840(7) 0.3904(3) 0.7521(2)
N5_4 N 0.7404(6) 0.4358(3) 0.7047(2)
C6_4 C 0.7468(7) 0.4129(3) 0.6234(2)
C7_4 C 0.5272(7) 0.4524(4) 0.5885(3)
C8_4 C 0.9433(7) 0.4669(3) 0.5809(2)
H1_4 H 0.5884(9) 0.5002(4) 0.8153(2)
H2_4 H 0.5792(9) 0.4324(4) 0.8900(2)
H3_4 H 0.7359(9) 0.5319(4) 0.8856(2)
H6_4 H 0.6373(6) 0.4812(3) 0.7230(2)
H7_4 H 0.7573(7) 0.3377(3) 0.6164(2)
H8_3 H 0.4040(7) 0.4196(4) 0.6145(3)
H9_4 H 0.5167(7) 0.5279(4) 0.5937(3)
H10_4 H 0.5224(7) 0.4338(4) 0.5355(3)
H8_4 H 0.0960(7) 0.5804(4) 0.1145(3)
loop_
_geom_bond_atom_site_label_1
_geom_bond_atom_site_label_2
_geom_bond_site_symmetry_1
_geom_bond_site_symmetry_2
Ag2 O4 1_555 1_555
O5 Ag1 1_555 1_555
O6 Ag1 1_555 1_555
Ag3 O3 1_555 1_555
Ag3 N2 1_555 1_555
N1 C2 1_555 1_555
N2 C3 1_555 1_555
C1 C3 1_555 1_555
C2 C3 1_555 1_555
N4 C2 1_555 1_555
O4_2 N2 1_555 1_555
H4 N4 1_555 1_555
H5 N4 1_555 1_555
O5_2 Ag3 1_555 1_555
Ag2_2 O4_2 1_555 1_555
O6_2 Ag2 1_555 1_555
N1_2 C2_2 1_555 1_555
N2_2 C3_2 1_555 1_555
C1_2 C3_2 1_555 1_555
C2_2 C3_2 1_555 1_555
N4_2 C2_2 1_555 1_555
O5 N2_2 1_555 1_555
H4_2 N4_2 1_555 1_555
H5_2 N4_2 1_555 1_555
Ag2_2 O3_2 1_555 1_555
Ag2_2 N2_3 1_555 1_555
N1_3 C2_3 1_555 1_555
N2_3 C3_3 1_555 1_555
N3 C1_3 1_555 1_555
C1_3 C3_3 1_555 1_555
C2_3 C3_3 1_555 1_555
O1 Ag2_2 1_555 1_555
C4 N3 1_555 1_555
N4_3 C2_3 1_555 1_555
C5 N1_3 1_555 1_555
N5 C5 1_555 1_555
C6 N5 1_555 1_555
C7 C6 1_555 1_555
O2_3 C8 1_555 1_555
O6_2 C8 1_555 1_555
C8 C6 1_555 1_555
H1_2 C4 1_555 1_555
H2 C4 1_555 1_555
H3_2 C4 1_555 1_555
H4_3 N4_3 1_555 1_555
H5_3 N4_3 1_555 1_555
H6 N5 1_555 1_555
H7 C6 1_555 1_555
H9_2 C7 1_555 1_555
H10 C7 1_555 1_555
N3 C5 1_555 1_555
C1_3 O1 1_555 1_555
N1_4 C2_4 1_555 1_555
N2_4 C3_4 1_555 1_555
N3_2 C1_4 1_555 1_555
C1_4 C3_4 1_555 1_555
C2_4 C3_4 1_555 1_555
C4_2 N3_2 1_555 1_555
N4_4 C2_4 1_555 1_555
C5_2 N1_4 1_555 1_555
N5_2 C5_2 1_555 1_555
C6_2 N5_2 1_555 1_555
C7_2 C6_2 1_555 1_555
O2_4 C8_2 1_555 1_555
C8_2 C6_2 1_555 1_555
H2_2 C4_2 1_555 1_555
H4_4 N4_4 1_555 1_555
H5_4 N4_4 1_555 1_555
H6_2 N5_2 1_555 1_555
H7_2 C6_2 1_555 1_555
H10_2 C7_2 1_555 1_555
N3_2 C5_2 1_555 1_555
C1_4 O1_2 1_555 1_555
C4_3 N3_3 1_555 1_555
N5_3 C5_3 1_555 1_555
C6_3 N5_3 1_555 1_555
C7_3 C6_3 1_555 1_555
C8_3 C6_3 1_555 1_555
H2_3 C4_3 1_555 1_555
H6_3 N5_3 1_555 1_555
H7_3 C6_3 1_555 1_555
H8_2 C7_3 1_555 1_555
H10_3 C7_3 1_555 1_555
N3_3 C5_3 1_555 1_555
C4_4 N3_4 1_555 1_555
N5_4 C5_4 1_555 1_555
C6_4 N5_4 1_555 1_555
C7_4 C6_4 1_555 1_555
C8_4 C6_4 1_555 1_555
H1_4 C4_4 1_555 1_555
H2_4 C4_4 1_555 1_555
H3_4 C4_4 1_555 1_555
H6_4 N5_4 1_555 1_555
H7_4 C6_4 1_555 1_555
H8_3 C7_4 1_555 1_555
H9_4 C7_4 1_555 1_555
H10_4 C7_4 1_555 1_555
N3_4 C5_4 1_555 1_555

#END
