
###############################################################################
#
# This file contains modified crystal structure data generated from the
# MOF subset of the Cambridge Structural Database (CSD) v543 
# hosted by the Cambridge Crystallographic Data Centre (CCDC).
#
# This work is licensed under the Creative Commons
# Attribution-NonCommercial-ShareAlike 4.0 International License.
# To view a copy of this license, visit
# http://creativecommons.org/licenses/by-nc-sa/4.0/
# or send a letter to
# Creative Commons, PO Box 1866, Mountain View, CA 94042, USA.
#
# CIF created using the CSD Python API on 29 September 2022
# The structure has been converted into the P1 space group
# The structure has a 3D framework
# The original CSD entry MECDEH is in the monoclinic crystal system
# The framework has been calculated to contain at least 10.0% void space
# The void calculation uses a probe of radius 1.32A, grid spacing 0.4
# H atom positions have been added when not included in the experimental data
#
###############################################################################

data_MECDEH
_chemical_formula_moiety         '(C192 H96 N16 O48 Zn8)n'
_symmetry_cell_setting           triclinic
_symmetry_space_group_name_H-M   'P 1'
_symmetry_Int_Tables_number      1
_space_group_name_Hall           'P 1'
loop_
_symmetry_equiv_pos_site_id
_symmetry_equiv_pos_as_xyz
1 x,y,z
_cell_length_a                   16.5435(9)
_cell_length_b                   13.6921(10)
_cell_length_c                   33.449(2)
_cell_angle_alpha                90
_cell_angle_beta                 94.146(5)
_cell_angle_gamma                90
_cell_volume                     7556.88
loop_
_atom_site_label
_atom_site_type_symbol
_atom_site_fract_x
_atom_site_fract_y
_atom_site_fract_z
Zn1 Zn 0.74297(4) 0.25178(6) 0.70576(2)
C1 C 0.4949(5) 0.3221(8) 0.4756(3)
C2 C 0.6654(4) 0.4043(6) 0.7500(3)
C3 C 0.5996(4) 0.4851(5) 0.7523(2)
C4 C 0.5561(4) 0.4796(6) 0.7849(2)
C5 C 0.4849(4) 0.5417(6) 0.7893(2)
C6 C 0.4676(4) 0.6077(6) 0.7584(3)
C7 C 0.3874(4) 0.6619(5) 0.7602(3)
C8 C 0.5175(4) 0.6218(6) 0.7269(2)
C9 C 0.5070(5) 0.6989(6) 0.6992(3)
C10 C 0.5577(5) 0.7126(7) 0.6681(3)
C11 C 0.6213(5) 0.6473(6) 0.6645(3)
C12 C 0.5859(4) 0.5591(5) 0.7232(2)
C13 C 0.6357(4) 0.5739(6) 0.6904(2)
C14 C 0.8254(5) 0.2286(6) 0.6296(3)
C15 C 0.8378(6) 0.2391(8) 0.5916(3)
C16 C 0.7816(6) 0.2898(9) 0.5657(3)
C17 C 0.7140(5) 0.3255(7) 0.5823(2)
C18 C 0.7026(4) 0.3115(6) 0.6226(2)
C19 C 0.6406(5) 0.4761(9) 0.5669(3)
C20 C 0.6089(5) 0.3197(10) 0.5287(3)
C21 C 0.5411(5) 0.3770(8) 0.5054(3)
C22 C 0.4353(5) 0.3752(9) 0.4524(3)
C23 C 0.4217(5) 0.4713(8) 0.4581(2)
C24 C 0.5289(4) 0.4764(6) 0.5115(2)
O1 O 0.6807(3) 0.3746(4) 0.71682(16)
O2 O 0.6948(3) 0.3749(3) 0.78327(16)
O3 O 0.3648(3) 0.6803(4) 0.79509(16)
O4 O 0.3493(3) 0.6781(4) 0.72773(16)
O5 O 0.6226(5) 0.2340(5) 0.5227(2)
O6 O 0.6856(4) 0.5161(6) 0.5915(2)
N1 N 0.7585(4) 0.2634(4) 0.64661(19)
N2 N 0.6521(4) 0.3754(6) 0.5586(2)
C25 C 0.5051(5) 0.6779(8) 0.5244(3)
C26 C 0.1746(5) 0.7714(6) 0.3704(3)
C27 C 0.1622(6) 0.7609(8) 0.4084(3)
C28 C 0.2184(6) 0.7102(9) 0.4343(3)
C29 C 0.2860(5) 0.6745(7) 0.4177(2)
C30 C 0.2974(4) 0.6885(6) 0.3774(2)
C31 C 0.3594(5) 0.5239(9) 0.4331(3)
C32 C 0.3911(5) 0.6803(10) 0.4713(3)
C33 C 0.4589(5) 0.6230(8) 0.4946(3)
C34 C 0.5647(5) 0.6248(9) 0.5476(3)
C35 C 0.5783(5) 0.5287(8) 0.5419(2)
C36 C 0.4711(4) 0.5236(6) 0.4885(2)
O7 O 0.3774(5) 0.7660(5) 0.4773(2)
O8 O 0.3144(4) 0.4839(6) 0.4085(2)
N3 N 0.2415(4) 0.7366(4) 0.35339(19)
N4 N 0.3479(4) 0.6246(6) 0.4414(2)
Zn2 Zn 0.25703(4) 0.74822(6) 0.29424(2)
C37 C 0.3346(4) 0.5957(6) 0.2500(3)
C38 C 0.4004(4) 0.5149(5) 0.2477(2)
C39 C 0.4439(4) 0.5204(6) 0.2151(2)
C40 C 0.5151(4) 0.4583(6) 0.2107(2)
C41 C 0.5324(4) 0.3923(6) 0.2416(3)
C42 C 0.6126(4) 0.3381(5) 0.2398(3)
C43 C 0.4825(4) 0.3782(6) 0.2731(2)
C44 C 0.4930(5) 0.3011(6) 0.3008(3)
C45 C 0.4423(5) 0.2874(7) 0.3319(3)
C46 C 0.3787(5) 0.3527(6) 0.3355(3)
C47 C 0.4141(4) 0.4409(5) 0.2768(2)
C48 C 0.3643(4) 0.4261(6) 0.3096(2)
O9 O 0.3193(3) 0.6254(4) 0.28318(16)
O10 O 0.3052(3) 0.6251(3) 0.21673(16)
O11 O 0.6352(3) 0.3197(4) 0.20491(16)
O12 O 0.6507(3) 0.3219(4) 0.27227(16)
Zn3 Zn 0.75703(4) 0.25178(6) 0.29424(2)
Zn4 Zn 0.24297(4) 0.75178(6) 0.20576(2)
Zn5 Zn 0.25703(4) 0.75178(6) 0.79424(2)
Zn6 Zn 0.24297(4) 0.74822(6) 0.70576(2)
Zn7 Zn 0.75703(4) 0.24822(6) 0.79424(2)
Zn8 Zn 0.74297(4) 0.24822(6) 0.20576(2)
O13 O 0.1948(3) 0.8749(3) 0.28327(16)
O14 O 0.8052(3) 0.1251(3) 0.71673(16)
O15 O 0.6352(3) 0.1803(4) 0.70491(16)
O16 O 0.3648(3) 0.8197(4) 0.29509(16)
O17 O 0.1507(3) 0.6781(4) 0.27227(16)
O18 O 0.8493(3) 0.3219(4) 0.72773(16)
H1 H 0.660373 0.656267 0.639917
H2 H 0.68613 0.524514 0.686508
H3 H 0.892068 0.208328 0.579952
H4 H 0.870953 0.189982 0.648696
H5 H 0.7912 0.300206 0.534115
H6 H 0.457299 0.74994 0.702152
H7 H 0.574323 0.427738 0.80854
H8 H 0.504921 0.24441 0.471043
H9 H 0.547761 0.772972 0.647124
H10 H 0.448296 0.536312 0.814992
H11 H 0.648104 0.339534 0.634991
H12 H 0.129047 0.810018 0.351304
H13 H 0.2088 0.699794 0.465885
H14 H 0.351896 0.660466 0.365009
H15 H 0.398751 0.337093 0.428922
H16 H 0.601249 0.662907 0.571078
H17 H 0.107932 0.791672 0.420048
H18 H 0.495079 0.75559 0.528957
H19 H 0.542701 0.25006 0.297848
H20 H 0.31387 0.475486 0.313492
H21 H 0.425677 0.572262 0.19146
H22 H 0.551704 0.463688 0.185008
H23 H 0.339627 0.343733 0.360083
H24 H 0.452239 0.227028 0.352876
C1_2 C 0.0051(5) 0.3221(8) 0.5244(3)
C5_2 C 0.0151(4) 0.5417(6) 0.2107(2)
C6_2 C 0.0324(4) 0.6077(6) 0.2416(3)
C7_2 C 0.1126(4) 0.6619(5) 0.2398(3)
C22_2 C 0.0647(5) 0.3752(9) 0.5476(3)
C23_2 C 0.0783(5) 0.4713(8) 0.5419(2)
O3_2 O 0.1352(3) 0.6803(4) 0.20491(16)
C26_2 C 0.3254(5) 0.7714(6) 0.6296(3)
C27_2 C 0.3378(6) 0.7609(8) 0.5916(3)
C28_2 C 0.2816(6) 0.7102(9) 0.5657(3)
C29_2 C 0.2140(5) 0.6745(7) 0.5823(2)
C30_2 C 0.2026(4) 0.6885(6) 0.6226(2)
C31_2 C 0.1406(5) 0.5239(9) 0.5669(3)
C32_2 C 0.1089(5) 0.6803(10) 0.5287(3)
C33_2 C 0.0411(5) 0.6230(8) 0.5054(3)
C36_2 C 0.0289(4) 0.5236(6) 0.5115(2)
O7_2 O 0.1226(5) 0.7660(5) 0.5227(2)
O8_2 O 0.1856(4) 0.4839(6) 0.5915(2)
N3_2 N 0.2585(4) 0.7366(4) 0.64661(19)
N4_2 N 0.1521(4) 0.6246(6) 0.5586(2)
C37_2 C 0.1654(4) 0.5957(6) 0.7500(3)
C38_2 C 0.0996(4) 0.5149(5) 0.7523(2)
C39_2 C 0.0561(4) 0.5204(6) 0.7849(2)
C43_2 C 0.0175(4) 0.3782(6) 0.7269(2)
C44_2 C 0.0070(5) 0.3011(6) 0.6992(3)
C45_2 C 0.0577(5) 0.2874(7) 0.6681(3)
C46_2 C 0.1213(5) 0.3527(6) 0.6645(3)
C47_2 C 0.0859(4) 0.4409(5) 0.7232(2)
C48_2 C 0.1357(4) 0.4261(6) 0.6904(2)
O9_2 O 0.1807(3) 0.6254(4) 0.71682(16)
O10_2 O 0.1948(3) 0.6251(3) 0.78327(16)
O13_2 O 0.3052(3) 0.8749(3) 0.71673(16)
O16_2 O 0.1352(3) 0.8197(4) 0.70491(16)
H6_2 H 0.0427007 0.74994 0.297848
H10_2 H 0.0517036 0.536312 0.185008
H12_2 H 0.370953 0.810018 0.648696
H13_2 H 0.2912 0.699794 0.534115
H14_2 H 0.148104 0.660466 0.634991
H15_2 H 0.101249 0.337093 0.571078
H17_2 H 0.392068 0.791672 0.579952
H18_2 H 0.00492099 0.75559 0.471043
H20_2 H 0.18613 0.475486 0.686508
H21_2 H 0.0743229 0.572262 0.80854
H23_2 H 0.160373 0.343733 0.639917
H24_2 H 0.0477613 0.227028 0.647124
C2_2 C 0.8346(4) 0.4043(6) 0.2500(3)
C3_2 C 0.9004(4) 0.4851(5) 0.2477(2)
C4_2 C 0.9439(4) 0.4796(6) 0.2151(2)
C8_2 C 0.9825(4) 0.6218(6) 0.2731(2)
C9_2 C 0.9930(5) 0.6989(6) 0.3008(3)
C10_2 C 0.9423(5) 0.7126(7) 0.3319(3)
C11_2 C 0.8787(5) 0.6473(6) 0.3355(3)
C12_2 C 0.9141(4) 0.5591(5) 0.2768(2)
C13_2 C 0.8643(4) 0.5739(6) 0.3096(2)
C14_2 C 0.6746(5) 0.2286(6) 0.3704(3)
C15_2 C 0.6622(6) 0.2391(8) 0.4084(3)
C16_2 C 0.7184(6) 0.2898(9) 0.4343(3)
C17_2 C 0.7860(5) 0.3255(7) 0.4177(2)
C18_2 C 0.7974(4) 0.3115(6) 0.3774(2)
C19_2 C 0.8594(5) 0.4761(9) 0.4331(3)
C20_2 C 0.8911(5) 0.3197(10) 0.4713(3)
C21_2 C 0.9589(5) 0.3770(8) 0.4946(3)
C24_2 C 0.9711(4) 0.4764(6) 0.4885(2)
O1_2 O 0.8193(3) 0.3746(4) 0.28318(16)
O2_2 O 0.8052(3) 0.3749(3) 0.21673(16)
O5_2 O 0.8774(5) 0.2340(5) 0.4773(2)
O6_2 O 0.8144(4) 0.5161(6) 0.4085(2)
N1_2 N 0.7415(4) 0.2634(4) 0.35339(19)
N2_2 N 0.8479(4) 0.3754(6) 0.4414(2)
C25_2 C 0.9949(5) 0.6779(8) 0.4756(3)
C34_2 C 0.9353(5) 0.6248(9) 0.4524(3)
C35_2 C 0.9217(5) 0.5287(8) 0.4581(2)
C40_2 C 0.9849(4) 0.4583(6) 0.7893(2)
C41_2 C 0.9676(4) 0.3923(6) 0.7584(3)
C42_2 C 0.8874(4) 0.3381(5) 0.7602(3)
O11_2 O 0.8648(3) 0.3197(4) 0.79509(16)
O14_2 O 0.6948(3) 0.1251(3) 0.28327(16)
O15_2 O 0.8648(3) 0.1803(4) 0.29509(16)
H1_2 H 0.839627 0.656267 0.360083
H2_2 H 0.81387 0.524514 0.313492
H3_2 H 0.607932 0.208328 0.420048
H4_2 H 0.629047 0.189982 0.351304
H5_2 H 0.7088 0.300206 0.465885
H7_2 H 0.925677 0.427738 0.19146
H8_2 H 0.995079 0.24441 0.528957
H9_2 H 0.952239 0.772972 0.352876
H11_2 H 0.851896 0.339534 0.365009
H16_2 H 0.898751 0.662907 0.428922
H19_2 H 0.957299 0.25006 0.702152
H22_2 H 0.948296 0.463688 0.814992
C2_3 C 0.1654(4) 0.9043(6) 0.2500(3)
C3_3 C 0.0996(4) 0.9851(5) 0.2523(2)
C4_3 C 0.0561(4) 0.9796(6) 0.2849(2)
C14_3 C 0.3254(5) 0.7286(6) 0.1296(3)
C15_3 C 0.3378(6) 0.7391(8) 0.0916(3)
C16_3 C 0.2816(6) 0.7898(9) 0.0657(3)
C17_3 C 0.2140(5) 0.8255(7) 0.0823(2)
C18_3 C 0.2026(4) 0.8115(6) 0.1226(2)
C19_3 C 0.1406(5) 0.9761(9) 0.0669(3)
C20_3 C 0.1089(5) 0.8197(10) 0.0287(3)
C21_3 C 0.0411(5) 0.8770(8) 0.0054(3)
C24_3 C 0.0289(4) 0.9764(6) 0.0115(2)
O1_3 O 0.1807(3) 0.8746(4) 0.21682(16)
O5_3 O 0.1226(5) 0.7340(5) 0.0227(2)
N1_3 N 0.2585(4) 0.7634(4) 0.14661(19)
N2_3 N 0.1521(4) 0.8754(6) 0.0586(2)
O18_2 O 0.3493(3) 0.8219(4) 0.22773(16)
H3_3 H 0.392068 0.708328 0.0799519
H4_3 H 0.370953 0.689982 0.148696
H5_3 H 0.2912 0.800206 0.0341153
H7_3 H 0.0743229 0.927738 0.30854
H11_3 H 0.148104 0.839534 0.134991
C40_3 C 0.0151(4) 0.9583(6) 0.7107(2)
C41_3 C 0.0324(4) 0.8923(6) 0.7416(3)
C42_3 C 0.1126(4) 0.8381(5) 0.7398(3)
O12_2 O 0.1507(3) 0.8219(4) 0.77227(16)
H8_3 H 0.00492099 0.74441 0.971043
H19_3 H 0.0427007 0.75006 0.797848
H22_3 H 0.0517036 0.963688 0.685008
C5_3 C 0.9849(4) 0.0417(6) 0.2893(2)
C6_3 C 0.9676(4) 0.1077(6) 0.2584(3)
C7_3 C 0.8874(4) 0.1619(5) 0.2602(3)
O4_2 O 0.8493(3) 0.1781(4) 0.22773(16)
H6_3 H 0.957299 0.24994 0.202152
H10_3 H 0.948296 0.0363124 0.314992
H18_3 H 0.995079 0.25559 0.0289573
C26_3 C 0.6746(5) 0.2714(6) 0.8704(3)
C27_3 C 0.6622(6) 0.2609(8) 0.9084(3)
C28_3 C 0.7184(6) 0.2102(9) 0.9343(3)
C29_3 C 0.7860(5) 0.1745(7) 0.9177(2)
C30_3 C 0.7974(4) 0.1885(6) 0.8774(2)
C31_3 C 0.8594(5) 0.0239(9) 0.9331(3)
C32_3 C 0.8911(5) 0.1803(10) 0.9713(3)
C33_3 C 0.9589(5) 0.1230(8) 0.9946(3)
C36_3 C 0.9711(4) 0.0236(6) 0.9885(2)
O7_3 O 0.8774(5) 0.2660(5) 0.9773(2)
N3_3 N 0.7415(4) 0.2366(4) 0.85339(19)
N4_3 N 0.8479(4) 0.1246(6) 0.9414(2)
C37_3 C 0.8346(4) 0.0957(6) 0.7500(3)
C38_3 C 0.9004(4) 0.0149(5) 0.7477(2)
C39_3 C 0.9439(4) 0.0204(6) 0.7151(2)
O9_3 O 0.8193(3) 0.1254(4) 0.78318(16)
O17_2 O 0.6507(3) 0.1781(4) 0.77227(16)
H12_3 H 0.629047 0.310018 0.851304
H13_3 H 0.7088 0.199794 0.965885
H14_3 H 0.851896 0.160466 0.865009
H17_3 H 0.607932 0.291672 0.920048
H21_3 H 0.925677 0.0722616 0.69146
C26_4 C 0.8254(5) 0.2714(6) 0.1296(3)
C27_4 C 0.8378(6) 0.2609(8) 0.0916(3)
C28_4 C 0.7816(6) 0.2102(9) 0.0657(3)
C29_4 C 0.7140(5) 0.1745(7) 0.0823(2)
C30_4 C 0.7026(4) 0.1885(6) 0.1226(2)
C31_4 C 0.6406(5) 0.0239(9) 0.0669(3)
C32_4 C 0.6089(5) 0.1803(10) 0.0287(3)
C33_4 C 0.5411(5) 0.1230(8) 0.0054(3)
C36_4 C 0.5289(4) 0.0236(6) 0.0115(2)
O7_4 O 0.6226(5) 0.2660(5) 0.0227(2)
N3_4 N 0.7585(4) 0.2366(4) 0.14661(19)
N4_4 N 0.6521(4) 0.1246(6) 0.0586(2)
C37_4 C 0.6654(4) 0.0957(6) 0.2500(3)
C38_4 C 0.5996(4) 0.0149(5) 0.2523(2)
C39_4 C 0.5561(4) 0.0204(6) 0.2849(2)
O9_4 O 0.6807(3) 0.1254(4) 0.21682(16)
H12_4 H 0.870953 0.310018 0.148696
H13_4 H 0.7912 0.199794 0.0341153
H14_4 H 0.648104 0.160466 0.134991
H17_4 H 0.892068 0.291672 0.0799519
H21_4 H 0.574323 0.0722616 0.30854
C5_4 C 0.5151(4) 0.0417(6) 0.7107(2)
C6_4 C 0.5324(4) 0.1077(6) 0.7416(3)
C7_4 C 0.6126(4) 0.1619(5) 0.7398(3)
C8_3 C 0.4825(4) 0.1218(6) 0.7731(2)
C9_3 C 0.4930(5) 0.1989(6) 0.8008(3)
C10_3 C 0.4423(5) 0.2126(7) 0.8319(3)
C11_3 C 0.3787(5) 0.1473(6) 0.8355(3)
C12_3 C 0.4141(4) 0.0591(5) 0.7768(2)
C13_3 C 0.3643(4) 0.0739(6) 0.8096(2)
O6_3 O 0.3144(4) 0.0161(6) 0.9085(2)
C25_3 C 0.4949(5) 0.1779(8) 0.9756(3)
C34_3 C 0.4353(5) 0.1248(9) 0.9524(3)
C35_3 C 0.4217(5) 0.0287(8) 0.9581(2)
H1_3 H 0.339627 0.156267 0.860083
H2_3 H 0.31387 0.0245143 0.813492
H6_4 H 0.542701 0.24994 0.797848
H9_3 H 0.452239 0.272972 0.852876
H10_4 H 0.551704 0.0363124 0.685008
H16_3 H 0.398751 0.162907 0.928922
H18_4 H 0.504921 0.25559 0.971043
C1_3 C 0.5051(5) 0.8221(8) 0.0244(3)
C22_3 C 0.5647(5) 0.8752(9) 0.0476(3)
C23_3 C 0.5783(5) 0.9713(8) 0.0419(2)
O8_3 O 0.6856(4) 0.9839(6) 0.0915(2)
C40_4 C 0.4849(4) 0.9583(6) 0.2893(2)
C41_4 C 0.4676(4) 0.8923(6) 0.2584(3)
C42_4 C 0.3874(4) 0.8381(5) 0.2602(3)
C43_3 C 0.5175(4) 0.8782(6) 0.2269(2)
C44_3 C 0.5070(5) 0.8011(6) 0.1992(3)
C45_3 C 0.5577(5) 0.7874(7) 0.1681(3)
C46_3 C 0.6213(5) 0.8527(6) 0.1645(3)
C47_3 C 0.5859(4) 0.9409(5) 0.2232(2)
C48_3 C 0.6357(4) 0.9261(6) 0.1904(2)
H8_4 H 0.495079 0.74441 0.0289573
H15_3 H 0.601249 0.837093 0.0710784
H19_4 H 0.457299 0.75006 0.202152
H20_3 H 0.68613 0.975486 0.186508
H22_4 H 0.448296 0.963688 0.314992
H23_3 H 0.660373 0.843733 0.139917
H24_3 H 0.547761 0.727028 0.147124
C2_4 C 0.3346(4) 0.9043(6) 0.7500(3)
C3_4 C 0.4004(4) 0.9851(5) 0.7477(2)
C4_4 C 0.4439(4) 0.9796(6) 0.7151(2)
C14_4 C 0.1746(5) 0.7286(6) 0.8704(3)
C15_4 C 0.1622(6) 0.7391(8) 0.9084(3)
C16_4 C 0.2184(6) 0.7898(9) 0.9343(3)
C17_4 C 0.2860(5) 0.8255(7) 0.9177(2)
C18_4 C 0.2974(4) 0.8115(6) 0.8774(2)
C19_4 C 0.3594(5) 0.9761(9) 0.9331(3)
C20_4 C 0.3911(5) 0.8197(10) 0.9713(3)
C21_4 C 0.4589(5) 0.8770(8) 0.9946(3)
C24_4 C 0.4711(4) 0.9764(6) 0.9885(2)
O1_4 O 0.3193(3) 0.8746(4) 0.78318(16)
O5_4 O 0.3774(5) 0.7340(5) 0.9773(2)
N1_4 N 0.2415(4) 0.7634(4) 0.85339(19)
N2_4 N 0.3479(4) 0.8754(6) 0.9414(2)
H3_4 H 0.107932 0.708328 0.920048
H4_4 H 0.129047 0.689982 0.851304
H5_4 H 0.2088 0.800206 0.965885
H7_4 H 0.425677 0.927738 0.69146
H11_4 H 0.351896 0.839534 0.865009
C8_4 C 0.0175(4) 0.1218(6) 0.2269(2)
C9_4 C 0.0070(5) 0.1989(6) 0.1992(3)
C10_4 C 0.0577(5) 0.2126(7) 0.1681(3)
C11_4 C 0.1213(5) 0.1473(6) 0.1645(3)
C12_4 C 0.0859(4) 0.0591(5) 0.2232(2)
C13_4 C 0.1357(4) 0.0739(6) 0.1904(2)
O6_4 O 0.1856(4) 0.0161(6) 0.0915(2)
C25_4 C 0.0051(5) 0.1779(8) 0.0244(3)
C34_4 C 0.0647(5) 0.1248(9) 0.0476(3)
C35_4 C 0.0783(5) 0.0287(8) 0.0419(2)
H1_4 H 0.160373 0.156267 0.139917
H2_4 H 0.18613 0.0245143 0.186508
H9_4 H 0.0477613 0.272972 0.147124
H16_4 H 0.101249 0.162907 0.0710784
C1_4 C 0.9949(5) 0.8221(8) 0.9756(3)
C22_4 C 0.9353(5) 0.8752(9) 0.9524(3)
C23_4 C 0.9217(5) 0.9713(8) 0.9581(2)
O8_4 O 0.8144(4) 0.9839(6) 0.9085(2)
C43_4 C 0.9825(4) 0.8782(6) 0.7731(2)
C44_4 C 0.9930(5) 0.8011(6) 0.8008(3)
C45_4 C 0.9423(5) 0.7874(7) 0.8319(3)
C46_4 C 0.8787(5) 0.8527(6) 0.8355(3)
C47_4 C 0.9141(4) 0.9409(5) 0.7768(2)
C48_4 C 0.8643(4) 0.9261(6) 0.8096(2)
H15_4 H 0.898751 0.837093 0.928922
H20_4 H 0.81387 0.975486 0.813492
H23_4 H 0.839627 0.843733 0.860083
H24_4 H 0.952239 0.727028 0.852876
loop_
_geom_bond_atom_site_label_1
_geom_bond_atom_site_label_2
_geom_bond_site_symmetry_1
_geom_bond_site_symmetry_2
Zn1 O1 1_555 1_555
C1 C21 1_555 1_555
C2 C3 1_555 1_555
C3 C4 1_555 1_555
C4 C5 1_555 1_555
C5 C6 1_555 1_555
C6 C7 1_555 1_555
C7 O3 1_555 1_555
C8 C6 1_555 1_555
C9 C8 1_555 1_555
C10 C9 1_555 1_555
C11 C10 1_555 1_555
C12 C3 1_555 1_555
C13 C11 1_555 1_555
C14 C15 1_555 1_555
C15 C16 1_555 1_555
C16 C17 1_555 1_555
C17 C18 1_555 1_555
C18 N1 1_555 1_555
C19 O6 1_555 1_555
C20 C21 1_555 1_555
C21 C24 1_555 1_555
C22 C1 1_555 1_555
C23 C22 1_555 1_555
C24 C35 1_555 1_555
O1 C2 1_555 1_555
O2 C2 1_555 1_555
O3 Zn5 1_555 1_555
O4 C7 1_555 1_555
O5 C20 1_555 1_555
N1 Zn1 1_555 1_555
N2 C17 1_555 1_555
C25 C33 1_555 1_555
C26 C27 1_555 1_555
C27 C28 1_555 1_555
C28 C29 1_555 1_555
C29 C30 1_555 1_555
C30 N3 1_555 1_555
C31 C23 1_555 1_555
C32 C33 1_555 1_555
C33 C36 1_555 1_555
C34 C25 1_555 1_555
C35 C19 1_555 1_555
C36 C23 1_555 1_555
O7 C32 1_555 1_555
O8 C31 1_555 1_555
N3 C26 1_555 1_555
N4 C29 1_555 1_555
Zn2 N3 1_555 1_555
C37 C38 1_555 1_555
C38 C39 1_555 1_555
C39 C40 1_555 1_555
C40 C41 1_555 1_555
C41 C42 1_555 1_555
C42 O11 1_555 1_555
C43 C41 1_555 1_555
C44 C43 1_555 1_555
C45 C44 1_555 1_555
C46 C45 1_555 1_555
C47 C38 1_555 1_555
C48 C46 1_555 1_555
O9 Zn2 1_555 1_555
O10 C37 1_555 1_555
O11 Zn8 1_555 1_555
O12 C42 1_555 1_555
Zn3 O12 1_555 1_555
Zn4 O10 1_555 1_555
Zn6 O4 1_555 1_555
Zn7 O2 1_555 1_555
O13 Zn2 1_555 1_555
O14 Zn1 1_555 1_555
O15 Zn1 1_555 1_555
O16 Zn2 1_555 1_555
O17 Zn2 1_555 1_555
O18 Zn1 1_555 1_555
C8 C12 1_555 1_555
C12 C13 1_555 1_555
C14 N1 1_555 1_555
C19 N2 1_555 1_555
C20 N2 1_555 1_555
C24 C36 1_555 1_555
C31 N4 1_555 1_555
C32 N4 1_555 1_555
C34 C35 1_555 1_555
C37 O9 1_555 1_555
C43 C47 1_555 1_555
C47 C48 1_555 1_555
C11 H1 1_555 1_555
C13 H2 1_555 1_555
C15 H3 1_555 1_555
C14 H4 1_555 1_555
C16 H5 1_555 1_555
C9 H6 1_555 1_555
C4 H7 1_555 1_555
C1 H8 1_555 1_555
C10 H9 1_555 1_555
C5 H10 1_555 1_555
C18 H11 1_555 1_555
C26 H12 1_555 1_555
C28 H13 1_555 1_555
C30 H14 1_555 1_555
C22 H15 1_555 1_555
C34 H16 1_555 1_555
C27 H17 1_555 1_555
C25 H18 1_555 1_555
C44 H19 1_555 1_555
C48 H20 1_555 1_555
C39 H21 1_555 1_555
C40 H22 1_555 1_555
C46 H23 1_555 1_555
C45 H24 1_555 1_555
C5_2 C6_2 1_555 1_555
C6_2 C7_2 1_555 1_555
C7_2 O3_2 1_555 1_555
C22_2 C1_2 1_555 1_555
C23_2 C22_2 1_555 1_555
O3_2 Zn4 1_555 1_555
O17 C7_2 1_555 1_555
C26_2 C27_2 1_555 1_555
C27_2 C28_2 1_555 1_555
C28_2 C29_2 1_555 1_555
C29_2 C30_2 1_555 1_555
C30_2 N3_2 1_555 1_555
C31_2 C23_2 1_555 1_555
C32_2 C33_2 1_555 1_555
C33_2 C36_2 1_555 1_555
C36_2 C23_2 1_555 1_555
O7_2 C32_2 1_555 1_555
O8_2 C31_2 1_555 1_555
N3_2 C26_2 1_555 1_555
N4_2 C29_2 1_555 1_555
Zn6 N3_2 1_555 1_555
C37_2 C38_2 1_555 1_555
C38_2 C39_2 1_555 1_555
C44_2 C43_2 1_555 1_555
C45_2 C44_2 1_555 1_555
C46_2 C45_2 1_555 1_555
C47_2 C38_2 1_555 1_555
C48_2 C46_2 1_555 1_555
O9_2 Zn6 1_555 1_555
O10_2 C37_2 1_555 1_555
Zn5 O10_2 1_555 1_555
O13_2 Zn6 1_555 1_555
O16_2 Zn6 1_555 1_555
C31_2 N4_2 1_555 1_555
C32_2 N4_2 1_555 1_555
C37_2 O9_2 1_555 1_555
C43_2 C47_2 1_555 1_555
C47_2 C48_2 1_555 1_555
C5_2 H10_2 1_555 1_555
C26_2 H12_2 1_555 1_555
C28_2 H13_2 1_555 1_555
C30_2 H14_2 1_555 1_555
C22_2 H15_2 1_555 1_555
C27_2 H17_2 1_555 1_555
C48_2 H20_2 1_555 1_555
C39_2 H21_2 1_555 1_555
C46_2 H23_2 1_555 1_555
C45_2 H24_2 1_555 1_555
Zn3 O1_2 1_555 1_555
C2_2 C3_2 1_555 1_555
C3_2 C4_2 1_555 1_555
C9_2 C8_2 1_555 1_555
C10_2 C9_2 1_555 1_555
C11_2 C10_2 1_555 1_555
C12_2 C3_2 1_555 1_555
C13_2 C11_2 1_555 1_555
C14_2 C15_2 1_555 1_555
C15_2 C16_2 1_555 1_555
C16_2 C17_2 1_555 1_555
C17_2 C18_2 1_555 1_555
C18_2 N1_2 1_555 1_555
C19_2 O6_2 1_555 1_555
C20_2 C21_2 1_555 1_555
C21_2 C24_2 1_555 1_555
C24_2 C35_2 1_555 1_555
O1_2 C2_2 1_555 1_555
O2_2 C2_2 1_555 1_555
O5_2 C20_2 1_555 1_555
N1_2 Zn3 1_555 1_555
N2_2 C17_2 1_555 1_555
C34_2 C25_2 1_555 1_555
C35_2 C19_2 1_555 1_555
C40_2 C41_2 1_555 1_555
C41_2 C42_2 1_555 1_555
C42_2 O11_2 1_555 1_555
O11_2 Zn7 1_555 1_555
O18 C42_2 1_555 1_555
Zn8 O2_2 1_555 1_555
O14_2 Zn3 1_555 1_555
O15_2 Zn3 1_555 1_555
C8_2 C12_2 1_555 1_555
C12_2 C13_2 1_555 1_555
C14_2 N1_2 1_555 1_555
C19_2 N2_2 1_555 1_555
C20_2 N2_2 1_555 1_555
C34_2 C35_2 1_555 1_555
C11_2 H1_2 1_555 1_555
C13_2 H2_2 1_555 1_555
C15_2 H3_2 1_555 1_555
C14_2 H4_2 1_555 1_555
C16_2 H5_2 1_555 1_555
C4_2 H7_2 1_555 1_555
C10_2 H9_2 1_555 1_555
C18_2 H11_2 1_555 1_555
C34_2 H16_2 1_555 1_555
C40_2 H22_2 1_555 1_555
Zn4 O1_3 1_555 1_555
C2_3 C3_3 1_555 1_555
C3_3 C4_3 1_555 1_555
C14_3 C15_3 1_555 1_555
C15_3 C16_3 1_555 1_555
C16_3 C17_3 1_555 1_555
C17_3 C18_3 1_555 1_555
C18_3 N1_3 1_555 1_555
C20_3 C21_3 1_555 1_555
C21_3 C24_3 1_555 1_555
O1_3 C2_3 1_555 1_555
O13 C2_3 1_555 1_555
O5_3 C20_3 1_555 1_555
N1_3 Zn4 1_555 1_555
N2_3 C17_3 1_555 1_555
O18_2 Zn4 1_555 1_555
C14_3 N1_3 1_555 1_555
C19_3 N2_3 1_555 1_555
C20_3 N2_3 1_555 1_555
C15_3 H3_3 1_555 1_555
C14_3 H4_3 1_555 1_555
C16_3 H5_3 1_555 1_555
C4_3 H7_3 1_555 1_555
C18_3 H11_3 1_555 1_555
C40_3 C41_3 1_555 1_555
C41_3 C42_3 1_555 1_555
C42_3 O16_2 1_555 1_555
O12_2 C42_3 1_555 1_555
Zn5 O12_2 1_555 1_555
C40_3 H22_3 1_555 1_555
C5_3 C6_3 1_555 1_555
C6_3 C7_3 1_555 1_555
C7_3 O15_2 1_555 1_555
O4_2 C7_3 1_555 1_555
Zn8 O4_2 1_555 1_555
C5_3 H10_3 1_555 1_555
C26_3 C27_3 1_555 1_555
C27_3 C28_3 1_555 1_555
C28_3 C29_3 1_555 1_555
C29_3 C30_3 1_555 1_555
C30_3 N3_3 1_555 1_555
C32_3 C33_3 1_555 1_555
C33_3 C36_3 1_555 1_555
O7_3 C32_3 1_555 1_555
N3_3 C26_3 1_555 1_555
N4_3 C29_3 1_555 1_555
Zn7 N3_3 1_555 1_555
C37_3 C38_3 1_555 1_555
C38_3 C39_3 1_555 1_555
O9_3 Zn7 1_555 1_555
O14 C37_3 1_555 1_555
O17_2 Zn7 1_555 1_555
C31_3 N4_3 1_555 1_555
C32_3 N4_3 1_555 1_555
C37_3 O9_3 1_555 1_555
C26_3 H12_3 1_555 1_555
C28_3 H13_3 1_555 1_555
C30_3 H14_3 1_555 1_555
C27_3 H17_3 1_555 1_555
C39_3 H21_3 1_555 1_555
C26_4 C27_4 1_555 1_555
C27_4 C28_4 1_555 1_555
C28_4 C29_4 1_555 1_555
C29_4 C30_4 1_555 1_555
C30_4 N3_4 1_555 1_555
C32_4 C33_4 1_555 1_555
C33_4 C36_4 1_555 1_555
O7_4 C32_4 1_555 1_555
N3_4 C26_4 1_555 1_555
N4_4 C29_4 1_555 1_555
Zn8 N3_4 1_555 1_555
C37_4 C38_4 1_555 1_555
C38_4 C39_4 1_555 1_555
O9_4 Zn8 1_555 1_555
O14_2 C37_4 1_555 1_555
C31_4 N4_4 1_555 1_555
C32_4 N4_4 1_555 1_555
C37_4 O9_4 1_555 1_555
C26_4 H12_4 1_555 1_555
C28_4 H13_4 1_555 1_555
C30_4 H14_4 1_555 1_555
C27_4 H17_4 1_555 1_555
C39_4 H21_4 1_555 1_555
C5_4 C6_4 1_555 1_555
C6_4 C7_4 1_555 1_555
C7_4 O15 1_555 1_555
C8_3 C6_4 1_555 1_555
C9_3 C8_3 1_555 1_555
C10_3 C9_3 1_555 1_555
C11_3 C10_3 1_555 1_555
C13_3 C11_3 1_555 1_555
O17_2 C7_4 1_555 1_555
C34_3 C25_3 1_555 1_555
C8_3 C12_3 1_555 1_555
C12_3 C13_3 1_555 1_555
C34_3 C35_3 1_555 1_555
C11_3 H1_3 1_555 1_555
C13_3 H2_3 1_555 1_555
C9_3 H6_4 1_555 1_555
C10_3 H9_3 1_555 1_555
C5_4 H10_4 1_555 1_555
C34_3 H16_3 1_555 1_555
C25_3 H18_4 1_555 1_555
C22_3 C1_3 1_555 1_555
C23_3 C22_3 1_555 1_555
C40_4 C41_4 1_555 1_555
C41_4 C42_4 1_555 1_555
C42_4 O16 1_555 1_555
C43_3 C41_4 1_555 1_555
C44_3 C43_3 1_555 1_555
C45_3 C44_3 1_555 1_555
C46_3 C45_3 1_555 1_555
C48_3 C46_3 1_555 1_555
O18_2 C42_4 1_555 1_555
C43_3 C47_3 1_555 1_555
C47_3 C48_3 1_555 1_555
C1_3 H8_4 1_555 1_555
C22_3 H15_3 1_555 1_555
C44_3 H19_4 1_555 1_555
C48_3 H20_3 1_555 1_555
C40_4 H22_4 1_555 1_555
C46_3 H23_3 1_555 1_555
C45_3 H24_3 1_555 1_555
Zn5 O1_4 1_555 1_555
C2_4 C3_4 1_555 1_555
C3_4 C4_4 1_555 1_555
C14_4 C15_4 1_555 1_555
C15_4 C16_4 1_555 1_555
C16_4 C17_4 1_555 1_555
C17_4 C18_4 1_555 1_555
C18_4 N1_4 1_555 1_555
C20_4 C21_4 1_555 1_555
C21_4 C24_4 1_555 1_555
O1_4 C2_4 1_555 1_555
O13_2 C2_4 1_555 1_555
O5_4 C20_4 1_555 1_555
N1_4 Zn5 1_555 1_555
N2_4 C17_4 1_555 1_555
C14_4 N1_4 1_555 1_555
C19_4 N2_4 1_555 1_555
C20_4 N2_4 1_555 1_555
C15_4 H3_4 1_555 1_555
C14_4 H4_4 1_555 1_555
C16_4 H5_4 1_555 1_555
C4_4 H7_4 1_555 1_555
C18_4 H11_4 1_555 1_555
C9_4 C8_4 1_555 1_555
C10_4 C9_4 1_555 1_555
C11_4 C10_4 1_555 1_555
C13_4 C11_4 1_555 1_555
C34_4 C25_4 1_555 1_555
C8_4 C12_4 1_555 1_555
C12_4 C13_4 1_555 1_555
C34_4 C35_4 1_555 1_555
C11_4 H1_4 1_555 1_555
C13_4 H2_4 1_555 1_555
C10_4 H9_4 1_555 1_555
C34_4 H16_4 1_555 1_555
C22_4 C1_4 1_555 1_555
C23_4 C22_4 1_555 1_555
C44_4 C43_4 1_555 1_555
C45_4 C44_4 1_555 1_555
C46_4 C45_4 1_555 1_555
C48_4 C46_4 1_555 1_555
C43_4 C47_4 1_555 1_555
C47_4 C48_4 1_555 1_555
C22_4 H15_4 1_555 1_555
C48_4 H20_4 1_555 1_555
C46_4 H23_4 1_555 1_555
C45_4 H24_4 1_555 1_555

#END
