
###############################################################################
#
# This file contains modified crystal structure data generated from the
# MOF subset of the Cambridge Structural Database (CSD) v543 
# hosted by the Cambridge Crystallographic Data Centre (CCDC).
#
# This work is licensed under the Creative Commons
# Attribution-NonCommercial-ShareAlike 4.0 International License.
# To view a copy of this license, visit
# http://creativecommons.org/licenses/by-nc-sa/4.0/
# or send a letter to
# Creative Commons, PO Box 1866, Mountain View, CA 94042, USA.
#
# CIF created using the CSD Python API on 29 September 2022
# The structure has been converted into the P1 space group
# The structure has a 3D framework
# The original CSD entry MECNOA is in the orthorhombic crystal system
# The framework has been calculated to contain at least 10.0% void space
# The void calculation uses a probe of radius 1.32A, grid spacing 0.4
#
###############################################################################

data_MECNOA
_chemical_formula_moiety         '(C216 H128 O44 Pb4)n'
_symmetry_cell_setting           triclinic
_symmetry_space_group_name_H-M   'P 1'
_symmetry_Int_Tables_number      1
_space_group_name_Hall           'P 1'
loop_
_symmetry_equiv_pos_site_id
_symmetry_equiv_pos_as_xyz
1 x,y,z
_cell_length_a                   20.989(6)
_cell_length_b                   29.784(9)
_cell_length_c                   7.425(2)
_cell_angle_alpha                90
_cell_angle_beta                 90
_cell_angle_gamma                90
_cell_volume                     4641.64
loop_
_atom_site_label
_atom_site_type_symbol
_atom_site_fract_x
_atom_site_fract_y
_atom_site_fract_z
Pb5 Pb 0.19853(2) 0.012251(19) 0.15668(8)
Pb1 Pb 0.30147(2) 0.012251(19) 0.65668(8)
O8 O 0.3638(5) 0.0660(3) 0.8398(13)
O9 O 0.2391(4) 0.0691(3) 0.4062(12)
O10 O 0.2609(4) 0.0691(3) 0.9062(12)
O11 O 0.4129(7) 0.0291(5) 0.512(4)
C2 C 0.2581(4) 0.8691(3) 0.0561(15)
H1 H 0.2225 0.8868 0.0786
C3 C 0.2573(6) 0.8250(4) 0.1164(13)
H2 H 0.2213 0.8126 0.1698
C4 C 0.3122(5) 0.8005(3) 0.0936(14)
H3 H 0.3137 0.7715 0.1401
C5 C 0.3679(5) 0.8176(3) 0.0004(15)
H10 H 0.5664 0.6541 0.0241
C20 C 0.6149(5) 0.8491(4) 0.0103(16)
H12 H 0.5831 0.8623 0.0795
C25 C 0.6839(8) 0.9141(4) 0.082(2)
C27 C 0.5844(8) 0.5681(6) 0.027(3)
O3 O 0.6362(5) 0.9340(3) 0.1602(13)
O4 O 0.7391(4) 0.9309(3) 0.0938(12)
O6 O 0.6333(6) 0.5915(9) 0.072(2)
H16 H 0.6327 0.6155 0.0175
Pb4 Pb 0.69853(2) 0.987749(19) 0.34332(8)
C1 C 0.3084(4) 0.8880(3) 0.9650(17)
C6 C 0.3629(4) 0.8609(3) 0.9391(13)
H4 H 0.3973 0.8731 0.8770
C7 C 0.4237(4) 0.7893(3) 0.9766(13)
C8 C 0.4217(4) 0.7442(4) 0.9719(17)
H5 H 0.3826 0.7300 0.9835
C9 C 0.4776(4) 0.7175(4) 0.9496(15)
C10 C 0.5351(5) 0.7383(3) 0.9375(15)
H6 H 0.5718 0.7209 0.9335
C11 C 0.4845(5) 0.8104(3) 0.9554(14)
H7 H 0.4868 0.8416 0.9579
C12 C 0.5411(4) 0.7855(3) 0.9308(13)
C13 C 0.4735(4) 0.6679(3) 0.9540(12)
C14 C 0.4166(5) 0.6438(3) 0.9138(17)
H8 H 0.3796 0.6595 0.8854
C15 C 0.4156(7) 0.5986(4) 0.9162(19)
H9 H 0.3772 0.5840 0.8943
C16 C 0.5280(5) 0.6405(4) 0.9928(13)
C17 C 0.4685(6) 0.5731(4) 0.949(2)
H11 H 0.4656 0.5420 0.9477
C18 C 0.3051(5) 0.9330(4) 0.8857(18)
C19 C 0.6031(4) 0.8077(4) 0.9234(12)
C21 C 0.6524(5) 0.7889(4) 0.8171(12)
H13 H 0.6447 0.7628 0.7522
C22 C 0.6739(5) 0.8703(4) 0.9934(12)
C23 C 0.7226(6) 0.8499(4) 0.8953(17)
H14 H 0.7624 0.8635 0.8876
C24 C 0.7117(5) 0.8088(4) 0.8084(17)
H15 H 0.7444 0.7950 0.7447
C26 C 0.5242(5) 0.5928(4) 0.9840(14)
O1 O 0.3536(4) 0.9501(3) 0.8185(12)
O2 O 0.2527(3) 0.9546(2) 0.8942(11)
O5 O 0.5871(7) 0.5291(5) 0.988(4)
O7 O 0.2473(3) 0.9546(2) 0.3942(11)
Pb2 Pb 0.80147(2) 0.987749(19) 0.84332(8)
Pb3 Pb 0.69853(2) 0.512251(19) 0.84332(8)
C2_2 C 0.2419(4) 0.6309(3) 0.0561(15)
H1_2 H 0.2775 0.6132 0.0786
C3_2 C 0.2427(6) 0.6750(4) 0.1164(13)
H2_2 H 0.2787 0.6874 0.1698
C4_2 C 0.1878(5) 0.6995(3) 0.0936(14)
H3_2 H 0.1863 0.7285 0.1401
C5_2 C 0.1321(5) 0.6824(3) 0.0004(15)
Pb5_2 Pb 0.30147(2) 0.487749(19) 0.15668(8)
C1_2 C 0.1916(4) 0.6120(3) 0.9650(17)
C6_2 C 0.1371(4) 0.6391(3) 0.9391(13)
H4_2 H 0.1027 0.6269 0.8770
C7_2 C 0.0763(4) 0.7107(3) 0.9766(13)
C8_2 C 0.0783(4) 0.7558(4) 0.9719(17)
H5_2 H 0.1174 0.7700 0.9835
C9_2 C 0.0224(4) 0.7825(4) 0.9496(15)
C11_2 C 0.0155(5) 0.6896(3) 0.9554(14)
H7_2 H 0.0132 0.6584 0.9579
C13_2 C 0.0265(4) 0.8321(3) 0.9540(12)
C14_2 C 0.0834(5) 0.8562(3) 0.9138(17)
H8_2 H 0.1204 0.8405 0.8854
C15_2 C 0.0844(7) 0.9014(4) 0.9162(19)
H9_2 H 0.1228 0.9160 0.8943
C17_2 C 0.0315(6) 0.9269(4) 0.949(2)
H11_2 H 0.0344 0.9580 0.9477
C18_2 C 0.1949(5) 0.5670(4) 0.8857(18)
O1_2 O 0.1464(4) 0.5499(3) 0.8185(12)
O2_2 O 0.2473(3) 0.5454(2) 0.8942(11)
Pb1_2 Pb 0.19853(2) 0.487749(19) 0.65668(8)
O7_2 O 0.2527(3) 0.5454(2) 0.3942(11)
O8_2 O 0.1362(5) 0.4340(3) 0.8398(13)
O9_2 O 0.2609(4) 0.4309(3) 0.4062(12)
O10_2 O 0.2391(4) 0.4309(3) 0.9062(12)
O11_2 O 0.0871(7) 0.4709(5) 0.512(4)
H10_2 H 0.9336 0.8459 0.0241
C20_2 C 0.8851(5) 0.6509(4) 0.0103(16)
H12_2 H 0.9169 0.6377 0.0795
C25_2 C 0.8161(8) 0.5859(4) 0.082(2)
C27_2 C 0.9156(8) 0.9319(6) 0.027(3)
O3_2 O 0.8638(5) 0.5660(3) 0.1602(13)
O4_2 O 0.7609(4) 0.5691(3) 0.0938(12)
O6_2 O 0.8667(6) 0.9085(9) 0.072(2)
H16_2 H 0.8673 0.8845 0.0175
Pb4_2 Pb 0.80147(2) 0.512251(19) 0.34332(8)
C10_2 C 0.9649(5) 0.7617(3) 0.9375(15)
H6_2 H 0.9282 0.7791 0.9335
C12_2 C 0.9589(4) 0.7145(3) 0.9308(13)
C16_2 C 0.9720(5) 0.8595(4) 0.9928(13)
C19_2 C 0.8969(4) 0.6923(4) 0.9234(12)
C21_2 C 0.8476(5) 0.7111(4) 0.8171(12)
H13_2 H 0.8553 0.7372 0.7522
C22_2 C 0.8261(5) 0.6297(4) 0.9934(12)
C23_2 C 0.7774(6) 0.6501(4) 0.8953(17)
H14_2 H 0.7376 0.6365 0.8876
C24_2 C 0.7883(5) 0.6912(4) 0.8084(17)
H15_2 H 0.7556 0.7050 0.7447
C26_2 C 0.9758(5) 0.9072(4) 0.9840(14)
O5_2 O 0.9129(7) 0.9709(5) 0.988(4)
C10_3 C 0.0351(5) 0.2617(3) 0.5625(15)
H6_3 H 0.0718 0.2791 0.5665
C12_3 C 0.0411(4) 0.2145(3) 0.5692(13)
C16_3 C 0.0280(5) 0.3595(4) 0.5072(13)
H10_3 H 0.0664 0.3459 0.4759
C19_3 C 0.1031(4) 0.1923(4) 0.5766(12)
C20_3 C 0.1149(5) 0.1509(4) 0.4897(16)
H12_3 H 0.0831 0.1377 0.4205
C21_3 C 0.1524(5) 0.2111(4) 0.6829(12)
H13_3 H 0.1447 0.2372 0.7478
C22_3 C 0.1739(5) 0.1297(4) 0.5066(12)
C23_3 C 0.2226(6) 0.1501(4) 0.6047(17)
H14_3 H 0.2624 0.1365 0.6124
C24_3 C 0.2117(5) 0.1912(4) 0.6916(17)
H15_3 H 0.2444 0.2050 0.7553
C25_3 C 0.1839(8) 0.0859(4) 0.418(2)
C26_3 C 0.0242(5) 0.4072(4) 0.5160(14)
C27_3 C 0.0844(8) 0.4319(6) 0.473(3)
O3_3 O 0.1362(5) 0.0660(3) 0.3398(13)
O6_3 O 0.1333(6) 0.4085(9) 0.428(2)
H16_3 H 0.1327 0.3845 0.4825
O7_3 O 0.7473(3) 0.0454(2) 0.1058(11)
C1_3 C 0.8084(4) 0.1120(3) 0.5350(17)
C2_3 C 0.7581(4) 0.1309(3) 0.4439(15)
H1_3 H 0.7225 0.1132 0.4214
C3_3 C 0.7573(6) 0.1750(4) 0.3836(13)
H2_3 H 0.7213 0.1874 0.3302
C4_3 C 0.8122(5) 0.1995(3) 0.4064(14)
H3_3 H 0.8137 0.2285 0.3599
C5_3 C 0.8679(5) 0.1824(3) 0.4996(15)
C6_3 C 0.8629(4) 0.1391(3) 0.5609(13)
H4_3 H 0.8973 0.1269 0.6230
C7_3 C 0.9237(4) 0.2107(3) 0.5234(13)
C8_3 C 0.9217(4) 0.2558(4) 0.5281(17)
H5_3 H 0.8826 0.2700 0.5165
C9_3 C 0.9776(4) 0.2825(4) 0.5504(15)
C11_3 C 0.9845(5) 0.1896(3) 0.5446(14)
H7_3 H 0.9868 0.1584 0.5421
C13_3 C 0.9735(4) 0.3321(3) 0.5460(12)
C14_3 C 0.9166(5) 0.3562(3) 0.5862(17)
H8_3 H 0.8796 0.3405 0.6146
C15_3 C 0.9156(7) 0.4014(4) 0.5838(19)
H9_3 H 0.8772 0.4160 0.6057
C17_3 C 0.9685(6) 0.4269(4) 0.551(2)
H11_3 H 0.9656 0.4580 0.5523
C18_3 C 0.8051(5) 0.0670(4) 0.6143(18)
O1_3 O 0.8536(4) 0.0499(3) 0.6815(12)
O2_3 O 0.7527(3) 0.0454(2) 0.6058(11)
O8_3 O 0.8638(5) 0.9340(3) 0.6602(13)
O10_3 O 0.7609(4) 0.9309(3) 0.5938(12)
O7_4 O 0.7527(3) 0.4546(2) 0.1058(11)
C1_4 C 0.6916(4) 0.3880(3) 0.5350(17)
C2_4 C 0.7419(4) 0.3691(3) 0.4439(15)
H1_4 H 0.7775 0.3868 0.4214
C3_4 C 0.7427(6) 0.3250(4) 0.3836(13)
H2_4 H 0.7787 0.3126 0.3302
C4_4 C 0.6878(5) 0.3005(3) 0.4064(14)
H3_4 H 0.6863 0.2715 0.3599
C5_4 C 0.6321(5) 0.3176(3) 0.4996(15)
C6_4 C 0.6371(4) 0.3609(3) 0.5609(13)
H4_4 H 0.6027 0.3731 0.6230
C7_4 C 0.5763(4) 0.2893(3) 0.5234(13)
C8_4 C 0.5783(4) 0.2442(4) 0.5281(17)
H5_4 H 0.6174 0.2300 0.5165
C9_4 C 0.5224(4) 0.2175(4) 0.5504(15)
C10_4 C 0.4649(5) 0.2383(3) 0.5625(15)
H6_4 H 0.4282 0.2209 0.5665
C11_4 C 0.5155(5) 0.3104(3) 0.5446(14)
H7_4 H 0.5132 0.3416 0.5421
C12_4 C 0.4589(4) 0.2855(3) 0.5692(13)
C13_4 C 0.5265(4) 0.1679(3) 0.5460(12)
C14_4 C 0.5834(5) 0.1438(3) 0.5862(17)
H8_4 H 0.6204 0.1595 0.6146
C15_4 C 0.5844(7) 0.0986(4) 0.5838(19)
H9_4 H 0.6228 0.0840 0.6057
C16_4 C 0.4720(5) 0.1405(4) 0.5072(13)
H10_4 H 0.4336 0.1541 0.4759
C17_4 C 0.5315(6) 0.0731(4) 0.551(2)
H11_4 H 0.5344 0.0420 0.5523
C18_4 C 0.6949(5) 0.4330(4) 0.6143(18)
C19_4 C 0.3969(4) 0.3077(4) 0.5766(12)
C20_4 C 0.3851(5) 0.3491(4) 0.4897(16)
H12_4 H 0.4169 0.3623 0.4205
C21_4 C 0.3476(5) 0.2889(4) 0.6829(12)
H13_4 H 0.3553 0.2628 0.7478
C22_4 C 0.3261(5) 0.3703(4) 0.5066(12)
C23_4 C 0.2774(6) 0.3499(4) 0.6047(17)
H14_4 H 0.2376 0.3635 0.6124
C24_4 C 0.2883(5) 0.3088(4) 0.6916(17)
H15_4 H 0.2556 0.2950 0.7553
C25_4 C 0.3161(8) 0.4141(4) 0.418(2)
C26_4 C 0.4758(5) 0.0928(4) 0.5160(14)
C27_4 C 0.4156(8) 0.0681(6) 0.473(3)
O1_4 O 0.6464(4) 0.4501(3) 0.6815(12)
O2_4 O 0.7473(3) 0.4546(2) 0.6058(11)
O3_4 O 0.3638(5) 0.4340(3) 0.3398(13)
O6_4 O 0.3667(6) 0.0915(9) 0.428(2)
H16_4 H 0.3673 0.1155 0.4825
O8_4 O 0.6362(5) 0.5660(3) 0.6602(13)
O10_4 O 0.7391(4) 0.5691(3) 0.5938(12)
C1_5 C 0.6916(4) 0.1120(3) 0.0350(17)
C6_5 C 0.6371(4) 0.1391(3) 0.0609(13)
H4_5 H 0.6027 0.1269 0.1230
C7_5 C 0.5763(4) 0.2107(3) 0.0234(13)
C8_5 C 0.5783(4) 0.2558(4) 0.0281(17)
H5_5 H 0.6174 0.2700 0.0165
C9_5 C 0.5224(4) 0.2825(4) 0.0504(15)
C10_5 C 0.4649(5) 0.2617(3) 0.0625(15)
H6_5 H 0.4282 0.2791 0.0665
C11_5 C 0.5155(5) 0.1896(3) 0.0446(14)
H7_5 H 0.5132 0.1584 0.0421
C12_5 C 0.4589(4) 0.2145(3) 0.0692(13)
C13_5 C 0.5265(4) 0.3321(3) 0.0460(12)
C14_5 C 0.5834(5) 0.3562(3) 0.0862(17)
H8_5 H 0.6204 0.3405 0.1146
C15_5 C 0.5844(7) 0.4014(4) 0.0838(19)
H9_5 H 0.6228 0.4160 0.1057
C16_5 C 0.4720(5) 0.3595(4) 0.0072(13)
C17_5 C 0.5315(6) 0.4269(4) 0.051(2)
H11_5 H 0.5344 0.4580 0.0523
C18_5 C 0.6949(5) 0.0670(4) 0.1143(18)
C19_5 C 0.3969(4) 0.1923(4) 0.0766(12)
C21_5 C 0.3476(5) 0.2111(4) 0.1829(12)
H13_5 H 0.3553 0.2372 0.2478
C22_5 C 0.3261(5) 0.1297(4) 0.0066(12)
C23_5 C 0.2774(6) 0.1501(4) 0.1047(17)
H14_5 H 0.2376 0.1365 0.1124
C24_5 C 0.2883(5) 0.1912(4) 0.1916(17)
H15_5 H 0.2556 0.2050 0.2553
C26_5 C 0.4758(5) 0.4072(4) 0.0160(14)
O1_5 O 0.6464(4) 0.0499(3) 0.1815(12)
O5_3 O 0.4129(7) 0.4709(5) 0.012(4)
C2_5 C 0.7419(4) 0.1309(3) 0.9439(15)
H1_5 H 0.7775 0.1132 0.9214
C3_5 C 0.7427(6) 0.1750(4) 0.8836(13)
H2_5 H 0.7787 0.1874 0.8302
C4_5 C 0.6878(5) 0.1995(3) 0.9064(14)
H3_5 H 0.6863 0.2285 0.8599
C5_5 C 0.6321(5) 0.1824(3) 0.9996(15)
H10_5 H 0.4336 0.3459 0.9759
C20_5 C 0.3851(5) 0.1509(4) 0.9897(16)
H12_5 H 0.4169 0.1377 0.9205
C25_5 C 0.3161(8) 0.0859(4) 0.918(2)
C27_5 C 0.4156(8) 0.4319(6) 0.973(3)
O6_5 O 0.3667(6) 0.4085(9) 0.928(2)
H16_5 H 0.3673 0.3845 0.9825
O11_3 O 0.5871(7) 0.9709(5) 0.488(4)
C10_6 C 0.0351(5) 0.2383(3) 0.0625(15)
H6_6 H 0.0718 0.2209 0.0665
C12_6 C 0.0411(4) 0.2855(3) 0.0692(13)
C16_6 C 0.0280(5) 0.1405(4) 0.0072(13)
C19_6 C 0.1031(4) 0.3077(4) 0.0766(12)
C21_6 C 0.1524(5) 0.2889(4) 0.1829(12)
H13_6 H 0.1447 0.2628 0.2478
C22_6 C 0.1739(5) 0.3703(4) 0.0066(12)
C23_6 C 0.2226(6) 0.3499(4) 0.1047(17)
H14_6 H 0.2624 0.3635 0.1124
C24_6 C 0.2117(5) 0.3088(4) 0.1916(17)
H15_6 H 0.2444 0.2950 0.2553
C26_6 C 0.0242(5) 0.0928(4) 0.0160(14)
O5_4 O 0.0871(7) 0.0291(5) 0.012(4)
H10_6 H 0.0664 0.1541 0.9759
C20_6 C 0.1149(5) 0.3491(4) 0.9897(16)
H12_6 H 0.0831 0.3623 0.9205
C25_6 C 0.1839(8) 0.4141(4) 0.918(2)
C27_6 C 0.0844(8) 0.0681(6) 0.973(3)
O6_6 O 0.1333(6) 0.0915(9) 0.928(2)
H16_6 H 0.1327 0.1155 0.9825
C1_6 C 0.8084(4) 0.3880(3) 0.0350(17)
C6_6 C 0.8629(4) 0.3609(3) 0.0609(13)
H4_6 H 0.8973 0.3731 0.1230
C7_6 C 0.9237(4) 0.2893(3) 0.0234(13)
C8_6 C 0.9217(4) 0.2442(4) 0.0281(17)
H5_6 H 0.8826 0.2300 0.0165
C9_6 C 0.9776(4) 0.2175(4) 0.0504(15)
C11_6 C 0.9845(5) 0.3104(3) 0.0446(14)
H7_6 H 0.9868 0.3416 0.0421
C13_6 C 0.9735(4) 0.1679(3) 0.0460(12)
C14_6 C 0.9166(5) 0.1438(3) 0.0862(17)
H8_6 H 0.8796 0.1595 0.1146
C15_6 C 0.9156(7) 0.0986(4) 0.0838(19)
H9_6 H 0.8772 0.0840 0.1057
C17_6 C 0.9685(6) 0.0731(4) 0.051(2)
H11_6 H 0.9656 0.0420 0.0523
C18_6 C 0.8051(5) 0.4330(4) 0.1143(18)
O1_6 O 0.8536(4) 0.4501(3) 0.1815(12)
O11_4 O 0.9129(7) 0.5291(5) 0.488(4)
C2_6 C 0.7581(4) 0.3691(3) 0.9439(15)
H1_6 H 0.7225 0.3868 0.9214
C3_6 C 0.7573(6) 0.3250(4) 0.8836(13)
H2_6 H 0.7213 0.3126 0.8302
C4_6 C 0.8122(5) 0.3005(3) 0.9064(14)
H3_6 H 0.8137 0.2715 0.8599
C5_6 C 0.8679(5) 0.3176(3) 0.9996(15)
C1_7 C 0.1916(4) 0.8880(3) 0.4650(17)
C2_7 C 0.2419(4) 0.8691(3) 0.5561(15)
H1_7 H 0.2775 0.8868 0.5786
C3_7 C 0.2427(6) 0.8250(4) 0.6164(13)
H2_7 H 0.2787 0.8126 0.6698
C4_7 C 0.1878(5) 0.8005(3) 0.5936(14)
H3_7 H 0.1863 0.7715 0.6401
C5_7 C 0.1321(5) 0.8176(3) 0.5004(15)
C6_7 C 0.1371(4) 0.8609(3) 0.4391(13)
H4_7 H 0.1027 0.8731 0.3770
C7_7 C 0.0763(4) 0.7893(3) 0.4766(13)
C8_7 C 0.0783(4) 0.7442(4) 0.4719(17)
H5_7 H 0.1174 0.7300 0.4835
C9_7 C 0.0224(4) 0.7175(4) 0.4496(15)
C11_7 C 0.0155(5) 0.8104(3) 0.4554(14)
H7_7 H 0.0132 0.8416 0.4579
C13_7 C 0.0265(4) 0.6679(3) 0.4540(12)
C14_7 C 0.0834(5) 0.6438(3) 0.4138(17)
H8_7 H 0.1204 0.6595 0.3854
C15_7 C 0.0844(7) 0.5986(4) 0.4162(19)
H9_7 H 0.1228 0.5840 0.3943
C17_7 C 0.0315(6) 0.5731(4) 0.449(2)
H11_7 H 0.0344 0.5420 0.4477
C18_7 C 0.1949(5) 0.9330(4) 0.3857(18)
O1_7 O 0.1464(4) 0.9501(3) 0.3185(12)
C10_7 C 0.9649(5) 0.7383(3) 0.4375(15)
H6_7 H 0.9282 0.7209 0.4335
C12_7 C 0.9589(4) 0.7855(3) 0.4308(13)
C16_7 C 0.9720(5) 0.6405(4) 0.4928(13)
H10_7 H 0.9336 0.6541 0.5241
C19_7 C 0.8969(4) 0.8077(4) 0.4234(12)
C20_7 C 0.8851(5) 0.8491(4) 0.5103(16)
H12_7 H 0.9169 0.8623 0.5795
C21_7 C 0.8476(5) 0.7889(4) 0.3171(12)
H13_7 H 0.8553 0.7628 0.2522
C22_7 C 0.8261(5) 0.8703(4) 0.4934(12)
C23_7 C 0.7774(6) 0.8499(4) 0.3953(17)
H14_7 H 0.7376 0.8635 0.3876
C24_7 C 0.7883(5) 0.8088(4) 0.3084(17)
H15_7 H 0.7556 0.7950 0.2447
C25_7 C 0.8161(8) 0.9141(4) 0.582(2)
C26_7 C 0.9758(5) 0.5928(4) 0.4840(14)
C27_7 C 0.9156(8) 0.5681(6) 0.527(3)
O6_7 O 0.8667(6) 0.5915(9) 0.572(2)
H16_7 H 0.8673 0.6155 0.5175
C1_8 C 0.3084(4) 0.6120(3) 0.4650(17)
C2_8 C 0.2581(4) 0.6309(3) 0.5561(15)
H1_8 H 0.2225 0.6132 0.5786
C3_8 C 0.2573(6) 0.6750(4) 0.6164(13)
H2_8 H 0.2213 0.6874 0.6698
C4_8 C 0.3122(5) 0.6995(3) 0.5936(14)
H3_8 H 0.3137 0.7285 0.6401
C5_8 C 0.3679(5) 0.6824(3) 0.5004(15)
C6_8 C 0.3629(4) 0.6391(3) 0.4391(13)
H4_8 H 0.3973 0.6269 0.3770
C7_8 C 0.4237(4) 0.7107(3) 0.4766(13)
C8_8 C 0.4217(4) 0.7558(4) 0.4719(17)
H5_8 H 0.3826 0.7700 0.4835
C9_8 C 0.4776(4) 0.7825(4) 0.4496(15)
C10_8 C 0.5351(5) 0.7617(3) 0.4375(15)
H6_8 H 0.5718 0.7791 0.4335
C11_8 C 0.4845(5) 0.6896(3) 0.4554(14)
H7_8 H 0.4868 0.6584 0.4579
C12_8 C 0.5411(4) 0.7145(3) 0.4308(13)
C13_8 C 0.4735(4) 0.8321(3) 0.4540(12)
C14_8 C 0.4166(5) 0.8562(3) 0.4138(17)
H8_8 H 0.3796 0.8405 0.3854
C15_8 C 0.4156(7) 0.9014(4) 0.4162(19)
H9_8 H 0.3772 0.9160 0.3943
C16_8 C 0.5280(5) 0.8595(4) 0.4928(13)
H10_8 H 0.5664 0.8459 0.5241
C17_8 C 0.4685(6) 0.9269(4) 0.449(2)
H11_8 H 0.4656 0.9580 0.4477
C18_8 C 0.3051(5) 0.5670(4) 0.3857(18)
C19_8 C 0.6031(4) 0.6923(4) 0.4234(12)
C20_8 C 0.6149(5) 0.6509(4) 0.5103(16)
H12_8 H 0.5831 0.6377 0.5795
C21_8 C 0.6524(5) 0.7111(4) 0.3171(12)
H13_8 H 0.6447 0.7372 0.2522
C22_8 C 0.6739(5) 0.6297(4) 0.4934(12)
C23_8 C 0.7226(6) 0.6501(4) 0.3953(17)
H14_8 H 0.7624 0.6365 0.3876
C24_8 C 0.7117(5) 0.6912(4) 0.3084(17)
H15_8 H 0.7444 0.7050 0.2447
C25_8 C 0.6839(8) 0.5859(4) 0.582(2)
C26_8 C 0.5242(5) 0.9072(4) 0.4840(14)
C27_8 C 0.5844(8) 0.9319(6) 0.527(3)
O1_8 O 0.3536(4) 0.5499(3) 0.3185(12)
O6_8 O 0.6333(6) 0.9085(9) 0.572(2)
H16_8 H 0.6327 0.8845 0.5175
loop_
_geom_bond_atom_site_label_1
_geom_bond_atom_site_label_2
_geom_bond_site_symmetry_1
_geom_bond_site_symmetry_2
O8 Pb1 1_555 1_555
O9 Pb1 1_555 1_555
O10 Pb1 1_555 1_555
O11 Pb1 1_555 1_555
C2 H1 1_555 1_555
C3 C2 1_555 1_555
H2 C3 1_555 1_555
C4 C3 1_555 1_555
H3 C4 1_555 1_555
C5 C4 1_555 1_555
H12 C20 1_555 1_555
O3 C25 1_555 1_555
O4 C25 1_555 1_555
O6 C27 1_555 1_555
H16 O6 1_555 1_555
Pb4 O3 1_555 1_555
O4 Pb4 1_555 1_555
C6 C1 1_555 1_555
H4 C6 1_555 1_555
C8 C7 1_555 1_555
H5 C8 1_555 1_555
C9 C8 1_555 1_555
C10 C9 1_555 1_555
H6 C10 1_555 1_555
C11 C7 1_555 1_555
H7 C11 1_555 1_555
C12 C10 1_555 1_555
C13 C9 1_555 1_555
C14 C13 1_555 1_555
H8 C14 1_555 1_555
C15 C14 1_555 1_555
H9 C15 1_555 1_555
C16 C13 1_555 1_555
C17 C15 1_555 1_555
H11 C17 1_555 1_555
C18 C1 1_555 1_555
C19 C12 1_555 1_555
C21 C19 1_555 1_555
H13 C21 1_555 1_555
C23 C22 1_555 1_555
H14 C23 1_555 1_555
C24 C21 1_555 1_555
H15 C24 1_555 1_555
C26 C16 1_555 1_555
O1 C18 1_555 1_555
O2 C18 1_555 1_555
Pb3 O5 1_555 1_555
C11 C12 1_555 1_555
C17 C26 1_555 1_555
C23 C24 1_555 1_555
C2_2 H1_2 1_555 1_555
C3_2 C2_2 1_555 1_555
H2_2 C3_2 1_555 1_555
C4_2 C3_2 1_555 1_555
H3_2 C4_2 1_555 1_555
C5_2 C4_2 1_555 1_555
C6_2 C1_2 1_555 1_555
H4_2 C6_2 1_555 1_555
C8_2 C7_2 1_555 1_555
H5_2 C8_2 1_555 1_555
C9_2 C8_2 1_555 1_555
C11_2 C7_2 1_555 1_555
H7_2 C11_2 1_555 1_555
C13_2 C9_2 1_555 1_555
C14_2 C13_2 1_555 1_555
H8_2 C14_2 1_555 1_555
C15_2 C14_2 1_555 1_555
H9_2 C15_2 1_555 1_555
C17_2 C15_2 1_555 1_555
H11_2 C17_2 1_555 1_555
C18_2 C1_2 1_555 1_555
O1_2 C18_2 1_555 1_555
O2_2 C18_2 1_555 1_555
Pb1_2 O1_2 1_555 1_555
O7_2 Pb1_2 1_555 1_555
O8_2 Pb1_2 1_555 1_555
O9_2 Pb1_2 1_555 1_555
O10_2 Pb1_2 1_555 1_555
O11_2 Pb1_2 1_555 1_555
O2_2 Pb1_2 1_555 1_555
H12_2 C20_2 1_555 1_555
O3_2 C25_2 1_555 1_555
O4_2 C25_2 1_555 1_555
O6_2 C27_2 1_555 1_555
H16_2 O6_2 1_555 1_555
Pb4_2 O3_2 1_555 1_555
O4_2 Pb4_2 1_555 1_555
H6_2 C10_2 1_555 1_555
C12_2 C10_2 1_555 1_555
C19_2 C12_2 1_555 1_555
C21_2 C19_2 1_555 1_555
H13_2 C21_2 1_555 1_555
C23_2 C22_2 1_555 1_555
H14_2 C23_2 1_555 1_555
C24_2 C21_2 1_555 1_555
H15_2 C24_2 1_555 1_555
C26_2 C16_2 1_555 1_555
Pb2 O5_2 1_555 1_555
C23_2 C24_2 1_555 1_555
H6_3 C10_3 1_555 1_555
C12_3 C10_3 1_555 1_555
H10_3 C16_3 1_555 1_555
C19_3 C12_3 1_555 1_555
C20_3 C19_3 1_555 1_555
H12_3 C20_3 1_555 1_555
C21_3 C19_3 1_555 1_555
H13_3 C21_3 1_555 1_555
C22_3 C20_3 1_555 1_555
C23_3 C22_3 1_555 1_555
H14_3 C23_3 1_555 1_555
C24_3 C21_3 1_555 1_555
H15_3 C24_3 1_555 1_555
C25_3 C22_3 1_555 1_555
C26_3 C16_3 1_555 1_555
C27_3 C26_3 1_555 1_555
O3_3 C25_3 1_555 1_555
O9 C25_3 1_555 1_555
O11_2 C27_3 1_555 1_555
O6_3 C27_3 1_555 1_555
H16_3 O6_3 1_555 1_555
Pb5 O3_3 1_555 1_555
C23_3 C24_3 1_555 1_555
O9 Pb5 1_555 1_555
C1_3 C2_3 1_555 1_555
C2_3 H1_3 1_555 1_555
C3_3 C2_3 1_555 1_555
H2_3 C3_3 1_555 1_555
C4_3 C3_3 1_555 1_555
H3_3 C4_3 1_555 1_555
C5_3 C4_3 1_555 1_555
C6_3 C1_3 1_555 1_555
H4_3 C6_3 1_555 1_555
C7_3 C5_3 1_555 1_555
C8_3 C7_3 1_555 1_555
H5_3 C8_3 1_555 1_555
C9_3 C8_3 1_555 1_555
C11_3 C7_3 1_555 1_555
H7_3 C11_3 1_555 1_555
C13_3 C9_3 1_555 1_555
C14_3 C13_3 1_555 1_555
H8_3 C14_3 1_555 1_555
C15_3 C14_3 1_555 1_555
H9_3 C15_3 1_555 1_555
C17_3 C15_3 1_555 1_555
H11_3 C17_3 1_555 1_555
C18_3 C1_3 1_555 1_555
O1_3 C18_3 1_555 1_555
O2_3 C18_3 1_555 1_555
C5_3 C6_3 1_555 1_555
O8_3 Pb2 1_555 1_555
O10_3 Pb2 1_555 1_555
O10_3 Pb4 1_555 1_555
C1_4 C2_4 1_555 1_555
C2_4 H1_4 1_555 1_555
C3_4 C2_4 1_555 1_555
H2_4 C3_4 1_555 1_555
C4_4 C3_4 1_555 1_555
H3_4 C4_4 1_555 1_555
C5_4 C4_4 1_555 1_555
C6_4 C1_4 1_555 1_555
H4_4 C6_4 1_555 1_555
C7_4 C5_4 1_555 1_555
C8_4 C7_4 1_555 1_555
H5_4 C8_4 1_555 1_555
C9_4 C8_4 1_555 1_555
C10_4 C9_4 1_555 1_555
H6_4 C10_4 1_555 1_555
C11_4 C7_4 1_555 1_555
H7_4 C11_4 1_555 1_555
C12_4 C10_4 1_555 1_555
C13_4 C9_4 1_555 1_555
C14_4 C13_4 1_555 1_555
H8_4 C14_4 1_555 1_555
C15_4 C14_4 1_555 1_555
H9_4 C15_4 1_555 1_555
C16_4 C13_4 1_555 1_555
H10_4 C16_4 1_555 1_555
C17_4 C15_4 1_555 1_555
H11_4 C17_4 1_555 1_555
C18_4 C1_4 1_555 1_555
C19_4 C12_4 1_555 1_555
C20_4 C19_4 1_555 1_555
H12_4 C20_4 1_555 1_555
C21_4 C19_4 1_555 1_555
H13_4 C21_4 1_555 1_555
C22_4 C20_4 1_555 1_555
C23_4 C22_4 1_555 1_555
H14_4 C23_4 1_555 1_555
C24_4 C21_4 1_555 1_555
H15_4 C24_4 1_555 1_555
C25_4 C22_4 1_555 1_555
C26_4 C16_4 1_555 1_555
C27_4 C26_4 1_555 1_555
O1_4 C18_4 1_555 1_555
O2_4 C18_4 1_555 1_555
O3_4 C25_4 1_555 1_555
O9_2 C25_4 1_555 1_555
O11 C27_4 1_555 1_555
O6_4 C27_4 1_555 1_555
H16_4 O6_4 1_555 1_555
Pb3 O1_4 1_555 1_555
O8_4 Pb3 1_555 1_555
O10_4 Pb3 1_555 1_555
Pb5_2 O3_4 1_555 1_555
Pb4_2 O2_4 1_555 1_555
C5_4 C6_4 1_555 1_555
C11_4 C12_4 1_555 1_555
C17_4 C26_4 1_555 1_555
C23_4 C24_4 1_555 1_555
O2_4 Pb3 1_555 1_555
O9_2 Pb5_2 1_555 1_555
O10_4 Pb4_2 1_555 1_555
C6_5 C1_5 1_555 1_555
H4_5 C6_5 1_555 1_555
C8_5 C7_5 1_555 1_555
H5_5 C8_5 1_555 1_555
C9_5 C8_5 1_555 1_555
C10_5 C9_5 1_555 1_555
H6_5 C10_5 1_555 1_555
C11_5 C7_5 1_555 1_555
H7_5 C11_5 1_555 1_555
C12_5 C10_5 1_555 1_555
C13_5 C9_5 1_555 1_555
C14_5 C13_5 1_555 1_555
H8_5 C14_5 1_555 1_555
C15_5 C14_5 1_555 1_555
H9_5 C15_5 1_555 1_555
C16_5 C13_5 1_555 1_555
C17_5 C15_5 1_555 1_555
H11_5 C17_5 1_555 1_555
C18_5 C1_5 1_555 1_555
C19_5 C12_5 1_555 1_555
C21_5 C19_5 1_555 1_555
H13_5 C21_5 1_555 1_555
C23_5 C22_5 1_555 1_555
H14_5 C23_5 1_555 1_555
C24_5 C21_5 1_555 1_555
H15_5 C24_5 1_555 1_555
C26_5 C16_5 1_555 1_555
O1_5 C18_5 1_555 1_555
O7_3 C18_5 1_555 1_555
Pb5_2 O5_3 1_555 1_555
C11_5 C12_5 1_555 1_555
C17_5 C26_5 1_555 1_555
C23_5 C24_5 1_555 1_555
C2_5 H1_5 1_555 1_555
C3_5 C2_5 1_555 1_555
H2_5 C3_5 1_555 1_555
C4_5 C3_5 1_555 1_555
H3_5 C4_5 1_555 1_555
C5_5 C4_5 1_555 1_555
H12_5 C20_5 1_555 1_555
O8 C25_5 1_555 1_555
O10 C25_5 1_555 1_555
O6_5 C27_5 1_555 1_555
H16_5 O6_5 1_555 1_555
O11_3 Pb4 1_555 1_555
H6_6 C10_6 1_555 1_555
C12_6 C10_6 1_555 1_555
C19_6 C12_6 1_555 1_555
C21_6 C19_6 1_555 1_555
H13_6 C21_6 1_555 1_555
C23_6 C22_6 1_555 1_555
H14_6 C23_6 1_555 1_555
C24_6 C21_6 1_555 1_555
H15_6 C24_6 1_555 1_555
C26_6 C16_6 1_555 1_555
Pb5 O5_4 1_555 1_555
C23_6 C24_6 1_555 1_555
H12_6 C20_6 1_555 1_555
O8_2 C25_6 1_555 1_555
O10_2 C25_6 1_555 1_555
O6_6 C27_6 1_555 1_555
H16_6 O6_6 1_555 1_555
C6_6 C1_6 1_555 1_555
H4_6 C6_6 1_555 1_555
C8_6 C7_6 1_555 1_555
H5_6 C8_6 1_555 1_555
C9_6 C8_6 1_555 1_555
C11_6 C7_6 1_555 1_555
H7_6 C11_6 1_555 1_555
C13_6 C9_6 1_555 1_555
C14_6 C13_6 1_555 1_555
H8_6 C14_6 1_555 1_555
C15_6 C14_6 1_555 1_555
H9_6 C15_6 1_555 1_555
C17_6 C15_6 1_555 1_555
H11_6 C17_6 1_555 1_555
C18_6 C1_6 1_555 1_555
O1_6 C18_6 1_555 1_555
O7_4 C18_6 1_555 1_555
Pb4_2 O1_6 1_555 1_555
O11_4 Pb4_2 1_555 1_555
O7_4 Pb4_2 1_555 1_555
C2_6 H1_6 1_555 1_555
C3_6 C2_6 1_555 1_555
H2_6 C3_6 1_555 1_555
C4_6 C3_6 1_555 1_555
H3_6 C4_6 1_555 1_555
C5_6 C4_6 1_555 1_555
C1_7 C2_7 1_555 1_555
C2_7 H1_7 1_555 1_555
C3_7 C2_7 1_555 1_555
H2_7 C3_7 1_555 1_555
C4_7 C3_7 1_555 1_555
H3_7 C4_7 1_555 1_555
C5_7 C4_7 1_555 1_555
C6_7 C1_7 1_555 1_555
H4_7 C6_7 1_555 1_555
C7_7 C5_7 1_555 1_555
C8_7 C7_7 1_555 1_555
H5_7 C8_7 1_555 1_555
C9_7 C8_7 1_555 1_555
C11_7 C7_7 1_555 1_555
H7_7 C11_7 1_555 1_555
C13_7 C9_7 1_555 1_555
C14_7 C13_7 1_555 1_555
H8_7 C14_7 1_555 1_555
C15_7 C14_7 1_555 1_555
H9_7 C15_7 1_555 1_555
C17_7 C15_7 1_555 1_555
H11_7 C17_7 1_555 1_555
C18_7 C1_7 1_555 1_555
O1_7 C18_7 1_555 1_555
O7 C18_7 1_555 1_555
C5_7 C6_7 1_555 1_555
H6_7 C10_7 1_555 1_555
C12_7 C10_7 1_555 1_555
H10_7 C16_7 1_555 1_555
C19_7 C12_7 1_555 1_555
C20_7 C19_7 1_555 1_555
H12_7 C20_7 1_555 1_555
C21_7 C19_7 1_555 1_555
H13_7 C21_7 1_555 1_555
C22_7 C20_7 1_555 1_555
C23_7 C22_7 1_555 1_555
H14_7 C23_7 1_555 1_555
C24_7 C21_7 1_555 1_555
H15_7 C24_7 1_555 1_555
C25_7 C22_7 1_555 1_555
C26_7 C16_7 1_555 1_555
C27_7 C26_7 1_555 1_555
O8_3 C25_7 1_555 1_555
O10_3 C25_7 1_555 1_555
O11_4 C27_7 1_555 1_555
O6_7 C27_7 1_555 1_555
H16_7 O6_7 1_555 1_555
C23_7 C24_7 1_555 1_555
C1_8 C2_8 1_555 1_555
C2_8 H1_8 1_555 1_555
C3_8 C2_8 1_555 1_555
H2_8 C3_8 1_555 1_555
C4_8 C3_8 1_555 1_555
H3_8 C4_8 1_555 1_555
C5_8 C4_8 1_555 1_555
C6_8 C1_8 1_555 1_555
H4_8 C6_8 1_555 1_555
C7_8 C5_8 1_555 1_555
C8_8 C7_8 1_555 1_555
H5_8 C8_8 1_555 1_555
C9_8 C8_8 1_555 1_555
C10_8 C9_8 1_555 1_555
H6_8 C10_8 1_555 1_555
C11_8 C7_8 1_555 1_555
H7_8 C11_8 1_555 1_555
C12_8 C10_8 1_555 1_555
C13_8 C9_8 1_555 1_555
C14_8 C13_8 1_555 1_555
H8_8 C14_8 1_555 1_555
C15_8 C14_8 1_555 1_555
H9_8 C15_8 1_555 1_555
C16_8 C13_8 1_555 1_555
H10_8 C16_8 1_555 1_555
C17_8 C15_8 1_555 1_555
H11_8 C17_8 1_555 1_555
C18_8 C1_8 1_555 1_555
C19_8 C12_8 1_555 1_555
C20_8 C19_8 1_555 1_555
H12_8 C20_8 1_555 1_555
C21_8 C19_8 1_555 1_555
H13_8 C21_8 1_555 1_555
C22_8 C20_8 1_555 1_555
C23_8 C22_8 1_555 1_555
H14_8 C23_8 1_555 1_555
C24_8 C21_8 1_555 1_555
H15_8 C24_8 1_555 1_555
C25_8 C22_8 1_555 1_555
C26_8 C16_8 1_555 1_555
C27_8 C26_8 1_555 1_555
O1_8 C18_8 1_555 1_555
O7_2 C18_8 1_555 1_555
O8_4 C25_8 1_555 1_555
O10_4 C25_8 1_555 1_555
O11_3 C27_8 1_555 1_555
O6_8 C27_8 1_555 1_555
H16_8 O6_8 1_555 1_555
Pb5_2 O1_8 1_555 1_555
C5_8 C6_8 1_555 1_555
C11_8 C12_8 1_555 1_555
C17_8 C26_8 1_555 1_555
C23_8 C24_8 1_555 1_555
O7_2 Pb5_2 1_555 1_555

#END
